
###############################################################################
#
# This file contains modified crystal structure data generated from the
# MOF subset of the Cambridge Structural Database (CSD) v543 
# hosted by the Cambridge Crystallographic Data Centre (CCDC).
#
# This work is licensed under the Creative Commons
# Attribution-NonCommercial-ShareAlike 4.0 International License.
# To view a copy of this license, visit
# http://creativecommons.org/licenses/by-nc-sa/4.0/
# or send a letter to
# Creative Commons, PO Box 1866, Mountain View, CA 94042, USA.
#
# CIF created using the CSD Python API on 29 September 2022
# The structure has been converted into the P1 space group
# The structure has a 3D framework
# The original CSD entry FEVDIV is in the monoclinic crystal system
# The framework has been calculated to contain at least 10.0% void space
# The void calculation uses a probe of radius 1.32A, grid spacing 0.4
#
###############################################################################

data_FEVDIV
_chemical_formula_moiety         '(C136 H88 N16 Ni4 O16)n'
_symmetry_cell_setting           triclinic
_symmetry_space_group_name_H-M   'P 1'
_symmetry_Int_Tables_number      1
_space_group_name_Hall           'P 1'
loop_
_symmetry_equiv_pos_site_id
_symmetry_equiv_pos_as_xyz
1 x,y,z
_cell_length_a                   8.3722(8)
_cell_length_b                   34.923(3)
_cell_length_c                   11.4888(11)
_cell_angle_alpha                90
_cell_angle_beta                 105.590(2)
_cell_angle_gamma                90
_cell_volume                     3235.54
loop_
_atom_site_label
_atom_site_type_symbol
_atom_site_fract_x
_atom_site_fract_y
_atom_site_fract_z
C20 C 0.0926(4) 0.07048(10) 0.7247(3)
H12 H 0.1473 0.0934 0.7509
C21 C 0.1776(5) 0.03597(10) 0.7537(3)
C22 C 0.0932(5) 0.00220(10) 0.7159(3)
C30 C 0.3564(5) 0.03610(11) 0.8208(4)
C31 C 0.4274(6) 0.06628(14) 0.8938(5)
H19 H 0.3622 0.0867 0.9058
C32 C 0.5975(8) 0.06612(19) 0.9497(6)
H20 H 0.6427 0.0870 0.9975
C33 C 0.6279(7) 0.00905(19) 0.8726(5)
C34 C 0.4600(6) 0.00662(14) 0.8127(4)
N4 N 0.6975(6) 0.03813(19) 0.9386(5)
H13 H 0.1479 0.9790 0.7367
H21 H 0.6954 0.9885 0.8652
H22 H 0.4185 0.9850 0.7673
Ni1 Ni 0.52306(5) 0.148604(11) 0.49090(4)
C1 C 0.3920(4) 0.17393(9) 0.2887(3)
C2 C 0.3122(4) 0.19015(9) 0.1666(3)
C3 C 0.1739(4) 0.21335(9) 0.1503(3)
H1 H 0.1324 0.2191 0.2156
C4 C 0.0961(5) 0.22826(10) 0.0361(3)
C12 C 0.3737(5) 0.18103(10) 0.0697(3)
H7 H 0.4674 0.1657 0.0813
C18 C 0.8365(4) 0.10895(10) 0.6332(3)
C19 C 0.9275(4) 0.07132(9) 0.6574(3)
C23 C 0.9277(5) 0.00208(9) 0.6475(3)
C24 C 0.8473(5) 0.03717(9) 0.6166(3)
H14 H 0.7386 0.0376 0.5682
O1 O 0.3428(3) 0.18486(6) 0.37845(19)
O2 O 0.5055(3) 0.14936(6) 0.3009(2)
O3 O 0.8925(3) 0.13636(7) 0.7005(2)
O4 O 0.7048(3) 0.10887(6) 0.5459(2)
N5 N 0.6964(4) 0.19250(7) 0.5030(2)
N6 N 0.4643(4) 0.16160(7) 0.6477(2)
N7 N 0.3504(4) 0.10201(8) 0.4557(3)
H5 H 0.0218 0.2925 0.9105
C10 C 0.1581(5) 0.21865(10) 0.9402(3)
H6 H 0.1067 0.2284 0.8640
C11 C 0.2952(5) 0.19492(10) 0.9541(3)
C13 C 0.3555(4) 0.18380(9) 0.8489(3)
C14 C 0.2451(5) 0.17838(10) 0.7355(3)
H8 H 0.1322 0.1823 0.7247
C15 C 0.3030(5) 0.16729(10) 0.6397(3)
H9 H 0.2265 0.1635 0.5653
C16 C 0.5704(5) 0.16684(10) 0.7573(3)
H10 H 0.6828 0.1630 0.7655
C17 C 0.5223(5) 0.17758(10) 0.8579(3)
H11 H 0.6011 0.1807 0.9317
C25 C 0.1644(5) 0.03408(9) 0.3900(3)
C26 C 0.2961(5) 0.03653(10) 0.4927(3)
H15 H 0.3258 0.0153 0.5428
C27 C 0.3833(5) 0.07011(10) 0.5210(3)
H16 H 0.4713 0.0706 0.5905
C28 C 0.2202(5) 0.09993(11) 0.3586(4)
H17 H 0.1913 0.1218 0.3116
C29 C 0.1261(5) 0.06758(10) 0.3236(4)
H18 H 0.0365 0.0682 0.2552
C5 C 0.9539(4) 0.24551(10) 0.5216(3)
C6 C 0.8289(5) 0.25162(10) 0.5778(3)
H2 H 0.8291 0.2736 0.6234
C7 C 0.7042(5) 0.22488(10) 0.5657(3)
H3 H 0.6209 0.2297 0.6035
C8 C 0.8156(5) 0.18694(10) 0.4467(3)
H4 H 0.8119 0.1647 0.4014
C9 C 0.9433(5) 0.21239(10) 0.4525(3)
C25_2 C 0.8356(5) 0.96592(9) 0.6100(3)
C26_2 C 0.7039(5) 0.96347(10) 0.5073(3)
H15_2 H 0.6742 0.9847 0.4572
C27_2 C 0.6167(5) 0.92989(10) 0.4790(3)
H16_2 H 0.5287 0.9294 0.4095
C28_2 C 0.7798(5) 0.90007(11) 0.6414(4)
H17_2 H 0.8087 0.8782 0.6884
C29_2 C 0.8739(5) 0.93242(10) 0.6764(4)
H18_2 H 0.9635 0.9318 0.7448
N3 N 0.6496(4) 0.89799(8) 0.5443(3)
Ni3 Ni 0.47694(5) 0.851396(11) 0.50910(4)
C5_2 C 0.0461(4) 0.75449(10) 0.4784(3)
C6_2 C 0.1711(5) 0.74838(10) 0.4222(3)
H2_2 H 0.1709 0.7264 0.3766
C7_2 C 0.2958(5) 0.77512(10) 0.4343(3)
H3_2 H 0.3791 0.7703 0.3965
C8_2 C 0.1844(5) 0.81306(10) 0.5533(3)
H4_2 H 0.1881 0.8353 0.5986
C9_2 C 0.0567(5) 0.78761(10) 0.5475(3)
N1 N 0.3036(4) 0.80750(7) 0.4970(2)
H5_2 H 0.9782 0.7075 0.0895
C10_2 C 0.8419(5) 0.78135(10) 0.0598(3)
H6_2 H 0.8933 0.7716 0.1360
C11_2 C 0.7048(5) 0.80508(10) 0.0459(3)
C13_2 C 0.6445(4) 0.81620(9) 0.1511(3)
C14_2 C 0.7549(5) 0.82162(10) 0.2645(3)
H8_2 H 0.8678 0.8177 0.2753
C15_2 C 0.6970(5) 0.83271(10) 0.3603(3)
H9_2 H 0.7735 0.8365 0.4347
C16_2 C 0.4296(5) 0.83316(10) 0.2427(3)
H10_2 H 0.3172 0.8370 0.2345
C17_2 C 0.4777(5) 0.82242(10) 0.1421(3)
H11_2 H 0.3989 0.8193 0.0683
N2 N 0.5357(4) 0.83840(7) 0.3523(2)
C1_2 C 0.6080(4) 0.82607(9) 0.7113(3)
C2_2 C 0.6878(4) 0.80985(9) 0.8334(3)
C3_2 C 0.8261(4) 0.78665(9) 0.8497(3)
H1_2 H 0.8676 0.7809 0.7844
C4_2 C 0.9039(5) 0.77174(10) 0.9639(3)
C12_2 C 0.6263(5) 0.81897(10) 0.9303(3)
H7_2 H 0.5326 0.8343 0.9187
C18_2 C 0.1635(4) 0.89105(10) 0.3668(3)
C19_2 C 0.0725(4) 0.92868(9) 0.3426(3)
C23_2 C 0.0723(5) 0.99792(9) 0.3525(3)
C24_2 C 0.1527(5) 0.96283(9) 0.3834(3)
H14_2 H 0.2614 0.9624 0.4318
O1_2 O 0.6572(3) 0.81514(6) 0.62155(19)
O2_2 O 0.4945(3) 0.85064(6) 0.6991(2)
O3_2 O 0.1075(3) 0.86364(7) 0.2995(2)
O4_2 O 0.2952(3) 0.89113(6) 0.4541(2)
C5_3 C 0.9539(4) 0.25449(10) 0.0216(3)
C6_3 C 0.8289(5) 0.24838(10) 0.0778(3)
H2_3 H 0.8291 0.2264 0.1234
C7_3 C 0.7042(5) 0.27512(10) 0.0657(3)
H3_3 H 0.6209 0.2703 0.1035
N1_2 N 0.6964(4) 0.30750(7) 0.0030(2)
C8_3 C 0.8156(5) 0.31306(10) 0.9467(3)
H4_3 H 0.8119 0.3353 0.9014
C9_3 C 0.9433(5) 0.28761(10) 0.9525(3)
Ni4 Ni 0.52306(5) 0.351396(11) 0.99090(4)
Ni2 Ni 0.47694(5) 0.648604(11) 0.00910(4)
C1_3 C 0.6080(4) 0.67393(9) 0.2113(3)
C2_3 C 0.6878(4) 0.69015(9) 0.3334(3)
C3_3 C 0.8261(4) 0.71335(9) 0.3497(3)
H1_3 H 0.8676 0.7191 0.2844
C4_3 C 0.9039(5) 0.72826(10) 0.4639(3)
H5_3 H 0.9782 0.7925 0.5895
C10_3 C 0.8419(5) 0.71865(10) 0.5598(3)
H6_3 H 0.8933 0.7284 0.6360
C11_3 C 0.7048(5) 0.69492(10) 0.5459(3)
C12_3 C 0.6263(5) 0.68103(10) 0.4303(3)
H7_3 H 0.5326 0.6657 0.4187
C13_3 C 0.6445(4) 0.68380(9) 0.6511(3)
C14_3 C 0.7549(5) 0.67838(10) 0.7645(3)
H8_3 H 0.8678 0.6823 0.7753
C15_3 C 0.6970(5) 0.66729(10) 0.8603(3)
H9_3 H 0.7735 0.6635 0.9347
C16_3 C 0.4296(5) 0.66684(10) 0.7427(3)
H10_3 H 0.3172 0.6630 0.7345
C17_3 C 0.4777(5) 0.67758(10) 0.6421(3)
H11_3 H 0.3989 0.6807 0.5683
H15_3 H 0.3258 0.4847 0.0428
C27_3 C 0.3833(5) 0.42989(10) 0.0210(3)
H16_3 H 0.4713 0.4294 0.0905
N2_2 N 0.5357(4) 0.66160(7) 0.8523(2)
O1_3 O 0.6572(3) 0.68486(6) 0.12155(19)
O2_3 O 0.4945(3) 0.64936(6) 0.1991(2)
N7_2 N 0.6496(4) 0.60201(8) 0.0443(3)
C18_3 C 0.1635(4) 0.60895(10) 0.8668(3)
C19_3 C 0.0725(4) 0.57132(9) 0.8426(3)
C23_3 C 0.0723(5) 0.50208(9) 0.8525(3)
C24_3 C 0.1527(5) 0.53717(9) 0.8834(3)
H14_3 H 0.2614 0.5376 0.9318
C25_3 C 0.1644(5) 0.46592(9) 0.8900(3)
C26_3 C 0.2961(5) 0.46347(10) 0.9927(3)
C28_3 C 0.2202(5) 0.40007(11) 0.8586(4)
H17_3 H 0.1913 0.3782 0.8116
C29_3 C 0.1261(5) 0.43242(10) 0.8236(4)
H18_3 H 0.0365 0.4318 0.7552
N3_2 N 0.3504(4) 0.39799(8) 0.9557(3)
O3_3 O 0.1075(3) 0.63636(7) 0.7995(2)
O4_3 O 0.2952(3) 0.60887(6) 0.9541(2)
N5_2 N 0.3036(4) 0.69250(7) 0.9970(2)
C8_4 C 0.1844(5) 0.68694(10) 0.0533(3)
H4_4 H 0.1881 0.6647 0.0986
C9_4 C 0.0567(5) 0.71239(10) 0.0475(3)
C5_4 C 0.0461(4) 0.74551(10) 0.9784(3)
C6_4 C 0.1711(5) 0.75162(10) 0.9222(3)
H2_4 H 0.1709 0.7736 0.8766
C7_4 C 0.2958(5) 0.72488(10) 0.9343(3)
H3_4 H 0.3791 0.7297 0.8965
C18_4 C 0.8365(4) 0.39105(10) 0.1332(3)
C19_4 C 0.9275(4) 0.42868(9) 0.1574(3)
C23_4 C 0.9277(5) 0.49792(9) 0.1475(3)
C24_4 C 0.8473(5) 0.46283(9) 0.1166(3)
H14_4 H 0.7386 0.4624 0.0682
C25_4 C 0.8356(5) 0.53408(9) 0.1100(3)
C26_4 C 0.7039(5) 0.53653(10) 0.0073(3)
C28_4 C 0.7798(5) 0.59993(11) 0.1414(4)
H17_4 H 0.8087 0.6218 0.1884
C29_4 C 0.8739(5) 0.56758(10) 0.1764(4)
H18_4 H 0.9635 0.5682 0.2448
O3_4 O 0.8925(3) 0.36364(7) 0.2005(2)
O4_4 O 0.7048(3) 0.39113(6) 0.0459(2)
N6_2 N 0.4643(4) 0.33840(7) 0.1477(2)
C1_4 C 0.3920(4) 0.32607(9) 0.7887(3)
C2_4 C 0.3122(4) 0.30985(9) 0.6666(3)
C3_4 C 0.1739(4) 0.28665(9) 0.6503(3)
H1_4 H 0.1324 0.2809 0.7156
C4_4 C 0.0961(5) 0.27174(10) 0.5361(3)
H5_4 H 0.0218 0.2075 0.4105
C10_4 C 0.1581(5) 0.28135(10) 0.4402(3)
H6_4 H 0.1067 0.2716 0.3640
C11_4 C 0.2952(5) 0.30508(10) 0.4541(3)
C12_4 C 0.3737(5) 0.31897(10) 0.5697(3)
H7_4 H 0.4674 0.3343 0.5813
C13_4 C 0.3555(4) 0.31620(9) 0.3489(3)
C14_4 C 0.2451(5) 0.32162(10) 0.2355(3)
H8_4 H 0.1322 0.3177 0.2247
C15_4 C 0.3030(5) 0.33271(10) 0.1397(3)
H9_4 H 0.2265 0.3365 0.0653
C16_4 C 0.5704(5) 0.33316(10) 0.2573(3)
H10_4 H 0.6828 0.3370 0.2655
C17_4 C 0.5223(5) 0.32242(10) 0.3579(3)
H11_4 H 0.6011 0.3193 0.4317
H15_4 H 0.6742 0.5153 0.9572
C27_4 C 0.6167(5) 0.57011(10) 0.9790(3)
H16_4 H 0.5287 0.5706 0.9095
O1_4 O 0.3428(3) 0.31514(6) 0.87845(19)
O2_4 O 0.5055(3) 0.35064(6) 0.8009(2)
C20_2 C 0.9074(4) 0.57048(10) 0.7753(3)
H12_2 H 0.8527 0.5934 0.7491
C21_2 C 0.8224(5) 0.53597(10) 0.7463(3)
C22_2 C 0.9068(5) 0.50220(10) 0.7841(3)
H13_2 H 0.8521 0.4790 0.7633
C30_2 C 0.6436(5) 0.53610(11) 0.6792(4)
C31_2 C 0.5726(6) 0.56628(14) 0.6062(5)
H19_2 H 0.6378 0.5867 0.5942
C32_2 C 0.4025(8) 0.56612(19) 0.5503(6)
H20_2 H 0.3573 0.5870 0.5025
C33_2 C 0.3721(7) 0.50905(19) 0.6274(5)
H21_2 H 0.3046 0.4885 0.6348
C34_2 C 0.5400(6) 0.50662(14) 0.6873(4)
H22_2 H 0.5815 0.4850 0.7327
N4_2 N 0.3025(6) 0.53813(19) 0.5614(5)
H13_3 H 0.8521 0.0210 0.2633
H21_3 H 0.3046 0.0115 0.1348
H22_3 H 0.5815 0.0150 0.2327
C20_3 C 0.9074(4) 0.92952(10) 0.2753(3)
H12_3 H 0.8527 0.9066 0.2491
C21_3 C 0.8224(5) 0.96403(10) 0.2463(3)
C22_3 C 0.9068(5) 0.99780(10) 0.2841(3)
C30_3 C 0.6436(5) 0.96390(11) 0.1792(4)
C31_3 C 0.5726(6) 0.93372(14) 0.1062(5)
H19_3 H 0.6378 0.9133 0.0942
C32_3 C 0.4025(8) 0.93388(19) 0.0503(6)
H20_3 H 0.3573 0.9130 0.0025
C33_3 C 0.3721(7) 0.99095(19) 0.1274(5)
C34_3 C 0.5400(6) 0.99338(14) 0.1873(4)
N4_3 N 0.3025(6) 0.96187(19) 0.0614(5)
C20_4 C 0.0926(4) 0.42952(10) 0.2247(3)
H12_4 H 0.1473 0.4066 0.2509
C21_4 C 0.1776(5) 0.46403(10) 0.2537(3)
C22_4 C 0.0932(5) 0.49780(10) 0.2159(3)
H13_4 H 0.1479 0.5210 0.2367
C30_4 C 0.3564(5) 0.46390(11) 0.3208(4)
C31_4 C 0.4274(6) 0.43372(14) 0.3938(5)
H19_4 H 0.3622 0.4133 0.4058
C32_4 C 0.5975(8) 0.43388(19) 0.4497(6)
H20_4 H 0.6427 0.4130 0.4975
C33_4 C 0.6279(7) 0.49095(19) 0.3726(5)
H21_4 H 0.6954 0.5115 0.3652
C34_4 C 0.4600(6) 0.49338(14) 0.3127(4)
H22_4 H 0.4185 0.5150 0.2673
N4_4 N 0.6975(6) 0.46187(19) 0.4386(5)
loop_
_geom_bond_atom_site_label_1
_geom_bond_atom_site_label_2
_geom_bond_site_symmetry_1
_geom_bond_site_symmetry_2
C20 H12 1_555 1_555
C21 C20 1_555 1_555
C22 C21 1_555 1_555
C30 C21 1_555 1_555
C31 C30 1_555 1_555
H19 C31 1_555 1_555
C32 C31 1_555 1_555
H20 C32 1_555 1_555
C34 C30 1_555 1_555
N4 C32 1_555 1_555
C33 C34 1_555 1_555
C33 N4 1_555 1_555
Ni1 O1 1_555 1_555
C1 C2 1_555 1_555
C2 C3 1_555 1_555
C3 H1 1_555 1_555
C4 C3 1_555 1_555
C12 C2 1_555 1_555
H7 C12 1_555 1_555
C18 C19 1_555 1_555
C24 C19 1_555 1_555
H14 C24 1_555 1_555
O1 C1 1_555 1_555
O2 Ni1 1_555 1_555
O3 C18 1_555 1_555
O4 Ni1 1_555 1_555
N5 Ni1 1_555 1_555
N6 Ni1 1_555 1_555
N7 Ni1 1_555 1_555
C1 O2 1_555 1_555
C18 O4 1_555 1_555
C23 C24 1_555 1_555
H6 C10 1_555 1_555
C11 C10 1_555 1_555
C13 C11 1_555 1_555
C14 C13 1_555 1_555
H8 C14 1_555 1_555
C15 C14 1_555 1_555
H9 C15 1_555 1_555
C16 H10 1_555 1_555
C17 C13 1_555 1_555
H11 C17 1_555 1_555
N6 C15 1_555 1_555
C16 C17 1_555 1_555
C16 N6 1_555 1_555
C26 C25 1_555 1_555
H15 C26 1_555 1_555
C27 C26 1_555 1_555
H16 C27 1_555 1_555
C28 H17 1_555 1_555
C29 C25 1_555 1_555
H18 C29 1_555 1_555
N7 C27 1_555 1_555
C28 C29 1_555 1_555
C28 N7 1_555 1_555
C6 C5 1_555 1_555
H2 C6 1_555 1_555
C7 C6 1_555 1_555
H3 C7 1_555 1_555
C8 H4 1_555 1_555
C9 C5 1_555 1_555
N5 C7 1_555 1_555
C8 C9 1_555 1_555
C8 N5 1_555 1_555
C26_2 C25_2 1_555 1_555
H15_2 C26_2 1_555 1_555
C27_2 C26_2 1_555 1_555
H16_2 C27_2 1_555 1_555
C28_2 H17_2 1_555 1_555
C29_2 C25_2 1_555 1_555
H18_2 C29_2 1_555 1_555
N3 C27_2 1_555 1_555
Ni3 N3 1_555 1_555
C28_2 C29_2 1_555 1_555
C28_2 N3 1_555 1_555
C6_2 C5_2 1_555 1_555
H2_2 C6_2 1_555 1_555
C7_2 C6_2 1_555 1_555
H3_2 C7_2 1_555 1_555
C8_2 H4_2 1_555 1_555
C9_2 C5_2 1_555 1_555
N1 C7_2 1_555 1_555
Ni3 N1 1_555 1_555
C8_2 C9_2 1_555 1_555
C8_2 N1 1_555 1_555
H6_2 C10_2 1_555 1_555
C11_2 C10_2 1_555 1_555
C13_2 C11_2 1_555 1_555
C14_2 C13_2 1_555 1_555
H8_2 C14_2 1_555 1_555
C15_2 C14_2 1_555 1_555
H9_2 C15_2 1_555 1_555
C16_2 H10_2 1_555 1_555
C17_2 C13_2 1_555 1_555
H11_2 C17_2 1_555 1_555
N2 C15_2 1_555 1_555
Ni3 N2 1_555 1_555
C16_2 C17_2 1_555 1_555
C16_2 N2 1_555 1_555
Ni3 O1_2 1_555 1_555
C1_2 C2_2 1_555 1_555
C2_2 C3_2 1_555 1_555
C3_2 H1_2 1_555 1_555
C4_2 C3_2 1_555 1_555
C12_2 C2_2 1_555 1_555
H7_2 C12_2 1_555 1_555
C18_2 C19_2 1_555 1_555
C24_2 C19_2 1_555 1_555
H14_2 C24_2 1_555 1_555
O1_2 C1_2 1_555 1_555
O2_2 Ni3 1_555 1_555
O3_2 C18_2 1_555 1_555
O4_2 Ni3 1_555 1_555
C1_2 O2_2 1_555 1_555
C18_2 O4_2 1_555 1_555
C23_2 C24_2 1_555 1_555
C6_3 C5_3 1_555 1_555
H2_3 C6_3 1_555 1_555
C7_3 C6_3 1_555 1_555
H3_3 C7_3 1_555 1_555
N1_2 C7_3 1_555 1_555
C8_3 H4_3 1_555 1_555
C8_3 C9_3 1_555 1_555
Ni2 O1_3 1_555 1_555
C1_3 C2_3 1_555 1_555
C2_3 C3_3 1_555 1_555
C3_3 H1_3 1_555 1_555
C4_3 C3_3 1_555 1_555
C10_3 C4_3 1_555 1_555
H6_3 C10_3 1_555 1_555
C11_3 C10_3 1_555 1_555
C12_3 C2_3 1_555 1_555
H7_3 C12_3 1_555 1_555
C13_3 C11_3 1_555 1_555
C14_3 C13_3 1_555 1_555
H8_3 C14_3 1_555 1_555
C15_3 C14_3 1_555 1_555
H9_3 C15_3 1_555 1_555
C16_3 H10_3 1_555 1_555
C17_3 C13_3 1_555 1_555
H11_3 C17_3 1_555 1_555
H16_3 C27_3 1_555 1_555
N2_2 C15_3 1_555 1_555
O1_3 C1_3 1_555 1_555
O2_3 Ni2 1_555 1_555
N7_2 Ni2 1_555 1_555
C1_3 O2_3 1_555 1_555
C11_3 C12_3 1_555 1_555
C16_3 C17_3 1_555 1_555
C16_3 N2_2 1_555 1_555
C18_3 C19_3 1_555 1_555
C24_3 C19_3 1_555 1_555
H14_3 C24_3 1_555 1_555
C25_3 C23_3 1_555 1_555
C26_3 C25_3 1_555 1_555
C28_3 H17_3 1_555 1_555
C29_3 C25_3 1_555 1_555
H18_3 C29_3 1_555 1_555
O3_3 C18_3 1_555 1_555
Ni4 N3_2 1_555 1_555
C18_3 O4_3 1_555 1_555
C23_3 C24_3 1_555 1_555
C28_3 C29_3 1_555 1_555
C28_3 N3_2 1_555 1_555
C8_4 H4_4 1_555 1_555
C8_4 C9_4 1_555 1_555
C6_4 C5_4 1_555 1_555
H2_4 C6_4 1_555 1_555
C7_4 C6_4 1_555 1_555
H3_4 C7_4 1_555 1_555
N5_2 C7_4 1_555 1_555
C18_4 C19_4 1_555 1_555
C24_4 C19_4 1_555 1_555
H14_4 C24_4 1_555 1_555
C25_4 C23_4 1_555 1_555
C26_4 C25_4 1_555 1_555
C28_4 H17_4 1_555 1_555
C29_4 C25_4 1_555 1_555
H18_4 C29_4 1_555 1_555
O3_4 C18_4 1_555 1_555
C18_4 O4_4 1_555 1_555
C23_4 C24_4 1_555 1_555
C28_4 C29_4 1_555 1_555
C28_4 N7_2 1_555 1_555
Ni4 O1_4 1_555 1_555
C1_4 C2_4 1_555 1_555
C2_4 C3_4 1_555 1_555
C3_4 H1_4 1_555 1_555
C4_4 C3_4 1_555 1_555
C10_4 C4_4 1_555 1_555
H6_4 C10_4 1_555 1_555
C11_4 C10_4 1_555 1_555
C12_4 C2_4 1_555 1_555
H7_4 C12_4 1_555 1_555
C13_4 C11_4 1_555 1_555
C14_4 C13_4 1_555 1_555
H8_4 C14_4 1_555 1_555
C15_4 C14_4 1_555 1_555
H9_4 C15_4 1_555 1_555
C16_4 H10_4 1_555 1_555
C17_4 C13_4 1_555 1_555
H11_4 C17_4 1_555 1_555
H16_4 C27_4 1_555 1_555
N6_2 C15_4 1_555 1_555
O1_4 C1_4 1_555 1_555
O2_4 Ni4 1_555 1_555
C1_4 O2_4 1_555 1_555
C11_4 C12_4 1_555 1_555
C16_4 C17_4 1_555 1_555
C16_4 N6_2 1_555 1_555
C20_2 H12_2 1_555 1_555
C21_2 C20_2 1_555 1_555
C22_2 C21_2 1_555 1_555
H13_2 C22_2 1_555 1_555
C30_2 C21_2 1_555 1_555
C31_2 C30_2 1_555 1_555
H19_2 C31_2 1_555 1_555
C32_2 C31_2 1_555 1_555
H20_2 C32_2 1_555 1_555
C33_2 H21_2 1_555 1_555
C34_2 C30_2 1_555 1_555
H22_2 C34_2 1_555 1_555
N4_2 C32_2 1_555 1_555
C33_2 C34_2 1_555 1_555
C33_2 N4_2 1_555 1_555
C20_3 H12_3 1_555 1_555
C21_3 C20_3 1_555 1_555
C22_3 C21_3 1_555 1_555
C30_3 C21_3 1_555 1_555
C31_3 C30_3 1_555 1_555
H19_3 C31_3 1_555 1_555
C32_3 C31_3 1_555 1_555
H20_3 C32_3 1_555 1_555
C34_3 C30_3 1_555 1_555
N4_3 C32_3 1_555 1_555
C33_3 C34_3 1_555 1_555
C33_3 N4_3 1_555 1_555
C20_4 H12_4 1_555 1_555
C21_4 C20_4 1_555 1_555
C22_4 C21_4 1_555 1_555
H13_4 C22_4 1_555 1_555
C30_4 C21_4 1_555 1_555
C31_4 C30_4 1_555 1_555
H19_4 C31_4 1_555 1_555
C32_4 C31_4 1_555 1_555
H20_4 C32_4 1_555 1_555
C33_4 H21_4 1_555 1_555
C34_4 C30_4 1_555 1_555
H22_4 C34_4 1_555 1_555
N4_4 C32_4 1_555 1_555
C33_4 C34_4 1_555 1_555
C33_4 N4_4 1_555 1_555

#END
