
###############################################################################
#
# This file contains modified crystal structure data generated from the
# MOF subset of the Cambridge Structural Database (CSD) v543 
# hosted by the Cambridge Crystallographic Data Centre (CCDC).
#
# This work is licensed under the Creative Commons
# Attribution-NonCommercial-ShareAlike 4.0 International License.
# To view a copy of this license, visit
# http://creativecommons.org/licenses/by-nc-sa/4.0/
# or send a letter to
# Creative Commons, PO Box 1866, Mountain View, CA 94042, USA.
#
# CIF created using the CSD Python API on 29 September 2022
# The structure has been converted into the P1 space group
# The structure has a 3D framework
# The original CSD entry FEVDER is in the monoclinic crystal system
# The framework has been calculated to contain at least 10.0% void space
# The void calculation uses a probe of radius 1.32A, grid spacing 0.4
#
###############################################################################

data_FEVDER
_chemical_formula_moiety         '(C136 H88 Co4 N16 O16)n'
_symmetry_cell_setting           triclinic
_symmetry_space_group_name_H-M   'P 1'
_symmetry_Int_Tables_number      1
_space_group_name_Hall           'P 1'
loop_
_symmetry_equiv_pos_site_id
_symmetry_equiv_pos_as_xyz
1 x,y,z
_cell_length_a                   8.4073(14)
_cell_length_b                   35.108(6)
_cell_length_c                   11.491(2)
_cell_angle_alpha                90
_cell_angle_beta                 105.842(3)
_cell_angle_gamma                90
_cell_volume                     3262.9
loop_
_atom_site_label
_atom_site_type_symbol
_atom_site_fract_x
_atom_site_fract_y
_atom_site_fract_z
C10 C 0.0956(4) 0.00246(9) 0.7161(3)
C11 C 0.1784(4) 0.03598(10) 0.7538(3)
C12 C 0.0938(4) 0.07034(9) 0.7272(3)
H7 H 0.1483 0.0930 0.7544
C13 C 0.3574(4) 0.03577(10) 0.8205(3)
C14 C 0.4586(5) 0.00630(13) 0.8124(4)
C15 C 0.6254(6) 0.00788(18) 0.8711(5)
C16 C 0.5984(7) 0.06531(18) 0.9479(6)
H10 H 0.6453 0.0861 0.9951
C17 C 0.4291(5) 0.06596(13) 0.8929(5)
H11 H 0.3651 0.0864 0.9047
N2 N 0.6972(5) 0.03672(17) 0.9369(5)
H6 H 0.1506 0.9794 0.7363
H8 H 0.4152 0.9849 0.7669
H9 H 0.6907 0.9872 0.8634
Co1 Co 0.52575(5) 0.147814(11) 0.49623(3)
C1 C 0.8372(4) 0.10811(9) 0.6380(3)
C2 C 0.9294(4) 0.07115(9) 0.6606(3)
C3 C 0.8502(4) 0.03721(9) 0.6190(3)
H1 H 0.7415 0.0378 0.5709
C4 C 0.9292(4) 0.00253(9) 0.6476(3)
C18 C 0.3893(4) 0.17377(9) 0.2915(3)
C19 C 0.3108(4) 0.18987(9) 0.1698(3)
C20 C 0.3719(4) 0.18101(9) 0.0726(3)
H12 H 0.4647 0.1656 0.0838
C28 C 0.0970(4) 0.22807(9) 0.0397(3)
C29 C 0.1745(4) 0.21321(9) 0.1528(3)
H18 H 0.1338 0.2191 0.2182
O1 O 0.7064(2) 0.10829(6) 0.5491(2)
O2 O 0.8906(3) 0.13543(7) 0.7055(2)
O3 O 0.5030(3) 0.14938(6) 0.30379(18)
O4 O 0.3407(3) 0.18425(6) 0.38076(18)
N5 N 0.3478(3) 0.10074(7) 0.4601(2)
N6 N 0.4625(3) 0.16224(7) 0.6532(2)
N7 N 0.7005(3) 0.19277(7) 0.5072(2)
C21 C 0.2945(4) 0.19519(9) 0.9586(3)
C22 C 0.3539(4) 0.18404(9) 0.8528(3)
C23 C 0.2438(4) 0.17843(10) 0.7403(3)
H13 H 0.1310 0.1819 0.7293
C24 C 0.3026(4) 0.16771(10) 0.6451(3)
H14 H 0.2265 0.1640 0.5703
C25 C 0.5677(4) 0.16774(10) 0.7623(3)
H15 H 0.6799 0.1642 0.7707
C26 C 0.5201(4) 0.17822(10) 0.8625(3)
H16 H 0.5986 0.1814 0.9365
C27 C 0.1588(4) 0.21872(10) 0.9438(3)
H17 H 0.1080 0.2285 0.8675
H19 H 0.0209 0.2918 0.9125
C5 C 0.1623(4) 0.03352(9) 0.3914(3)
C6 C 0.2953(4) 0.03546(10) 0.4931(3)
H2 H 0.3261 0.0140 0.5417
C7 C 0.3820(4) 0.06863(10) 0.5229(3)
H3 H 0.4710 0.0687 0.5920
C8 C 0.2163(5) 0.09917(11) 0.3632(4)
H4 H 0.1866 0.1212 0.3173
C9 C 0.1230(4) 0.06714(10) 0.3276(4)
H5 H 0.0323 0.0680 0.2599
C30 C 0.9566(4) 0.24560(9) 0.5257(3)
C31 C 0.9440(4) 0.21290(10) 0.4556(3)
C32 C 0.8182(4) 0.18754(9) 0.4499(3)
H20 H 0.8142 0.1656 0.4041
C33 C 0.7093(4) 0.22488(10) 0.5698(3)
H21 H 0.6269 0.2295 0.6080
C34 C 0.8320(4) 0.25174(10) 0.5820(3)
H22 H 0.8316 0.2737 0.6273
C5_2 C 0.8377(4) 0.96648(9) 0.6086(3)
C6_2 C 0.7047(4) 0.96454(10) 0.5069(3)
H2_2 H 0.6739 0.9860 0.4583
C7_2 C 0.6180(4) 0.93137(10) 0.4771(3)
H3_2 H 0.5290 0.9313 0.4080
C8_2 C 0.7837(5) 0.90083(11) 0.6368(4)
H4_2 H 0.8134 0.8788 0.6827
C9_2 C 0.8770(4) 0.93286(10) 0.6724(4)
H5_2 H 0.9677 0.9320 0.7401
N1 N 0.6522(3) 0.89926(7) 0.5399(2)
Co3 Co 0.47425(5) 0.852186(11) 0.50377(3)
C30_2 C 0.0434(4) 0.75440(9) 0.4743(3)
C31_2 C 0.0560(4) 0.78710(10) 0.5444(3)
C32_2 C 0.1818(4) 0.81246(9) 0.5501(3)
H20_2 H 0.1858 0.8344 0.5959
C33_2 C 0.2907(4) 0.77512(10) 0.4302(3)
H21_2 H 0.3731 0.7705 0.3920
C34_2 C 0.1680(4) 0.74826(10) 0.4180(3)
H22_2 H 0.1684 0.7263 0.3727
N4 N 0.2995(3) 0.80723(7) 0.4928(2)
C21_2 C 0.7055(4) 0.80481(9) 0.0414(3)
C22_2 C 0.6461(4) 0.81596(9) 0.1472(3)
C23_2 C 0.7562(4) 0.82157(10) 0.2597(3)
H13_2 H 0.8690 0.8181 0.2707
C24_2 C 0.6974(4) 0.83229(10) 0.3549(3)
H14_2 H 0.7735 0.8360 0.4297
C25_2 C 0.4323(4) 0.83226(10) 0.2377(3)
H15_2 H 0.3201 0.8358 0.2293
C26_2 C 0.4799(4) 0.82178(10) 0.1375(3)
H16_2 H 0.4014 0.8186 0.0635
C27_2 C 0.8412(4) 0.78128(10) 0.0562(3)
H17_2 H 0.8920 0.7715 0.1325
H19_2 H 0.9791 0.7082 0.0875
N3 N 0.5375(3) 0.83776(7) 0.3468(2)
C1_2 C 0.1628(4) 0.89189(9) 0.3620(3)
C2_2 C 0.0706(4) 0.92885(9) 0.3394(3)
C3_2 C 0.1498(4) 0.96279(9) 0.3810(3)
H1_2 H 0.2585 0.9622 0.4291
C4_2 C 0.0708(4) 0.99747(9) 0.3524(3)
C18_2 C 0.6107(4) 0.82623(9) 0.7085(3)
C19_2 C 0.6892(4) 0.81013(9) 0.8302(3)
C20_2 C 0.6281(4) 0.81899(9) 0.9274(3)
H12_2 H 0.5353 0.8344 0.9162
C28_2 C 0.9030(4) 0.77193(9) 0.9603(3)
C29_2 C 0.8255(4) 0.78679(9) 0.8472(3)
H18_2 H 0.8662 0.7809 0.7818
O1_2 O 0.2936(2) 0.89171(6) 0.4509(2)
O2_2 O 0.1094(3) 0.86457(7) 0.2945(2)
O3_2 O 0.4970(3) 0.85062(6) 0.69621(18)
O4_2 O 0.6593(3) 0.81575(6) 0.61924(18)
C30_3 C 0.9566(4) 0.25440(9) 0.0257(3)
C33_3 C 0.7093(4) 0.27512(10) 0.0698(3)
H21_3 H 0.6269 0.2705 0.1080
C34_3 C 0.8320(4) 0.24826(10) 0.0820(3)
H22_3 H 0.8316 0.2263 0.1273
N4_2 N 0.7005(3) 0.30723(7) 0.0072(2)
C31_3 C 0.9440(4) 0.28710(10) 0.9556(3)
C32_3 C 0.8182(4) 0.31246(9) 0.9499(3)
H20_3 H 0.8142 0.3344 0.9041
Co4 Co 0.52575(5) 0.352186(11) 0.99623(3)
Co2 Co 0.47425(5) 0.647814(11) 0.00377(3)
H2_3 H 0.3261 0.4860 0.0417
C7_3 C 0.3820(4) 0.43137(10) 0.0229(3)
H3_3 H 0.4710 0.4313 0.0920
C18_3 C 0.6107(4) 0.67377(9) 0.2085(3)
C19_3 C 0.6892(4) 0.68987(9) 0.3302(3)
C20_3 C 0.6281(4) 0.68101(9) 0.4274(3)
H12_3 H 0.5353 0.6656 0.4162
C21_3 C 0.7055(4) 0.69519(9) 0.5414(3)
C22_3 C 0.6461(4) 0.68404(9) 0.6472(3)
C23_3 C 0.7562(4) 0.67843(10) 0.7597(3)
H13_3 H 0.8690 0.6819 0.7707
C24_3 C 0.6974(4) 0.66771(10) 0.8549(3)
H14_3 H 0.7735 0.6640 0.9297
C25_3 C 0.4323(4) 0.66774(10) 0.7377(3)
H15_3 H 0.3201 0.6642 0.7293
C26_3 C 0.4799(4) 0.67822(10) 0.6375(3)
H16_3 H 0.4014 0.6814 0.5635
C27_3 C 0.8412(4) 0.71872(10) 0.5562(3)
H17_3 H 0.8920 0.7285 0.6325
C28_3 C 0.9030(4) 0.72807(9) 0.4603(3)
C29_3 C 0.8255(4) 0.71321(9) 0.3472(3)
H18_3 H 0.8662 0.7191 0.2818
H19_3 H 0.9791 0.7918 0.5875
N3_2 N 0.5375(3) 0.66224(7) 0.8468(2)
O3_3 O 0.4970(3) 0.64938(6) 0.19621(18)
O4_3 O 0.6593(3) 0.68425(6) 0.11924(18)
N5_2 N 0.6522(3) 0.60074(7) 0.0399(2)
C1_3 C 0.1628(4) 0.60811(9) 0.8620(3)
C2_3 C 0.0706(4) 0.57115(9) 0.8394(3)
C3_3 C 0.1498(4) 0.53721(9) 0.8810(3)
H1_3 H 0.2585 0.5378 0.9291
C4_3 C 0.0708(4) 0.50253(9) 0.8524(3)
C5_3 C 0.1623(4) 0.46648(9) 0.8914(3)
C6_3 C 0.2953(4) 0.46454(10) 0.9931(3)
C8_3 C 0.2163(5) 0.40083(11) 0.8632(4)
H4_3 H 0.1866 0.3788 0.8173
C9_3 C 0.1230(4) 0.43286(10) 0.8276(4)
H5_3 H 0.0323 0.4320 0.7599
N1_2 N 0.3478(3) 0.39926(7) 0.9601(2)
O1_3 O 0.2936(2) 0.60829(6) 0.9509(2)
O2_3 O 0.1094(3) 0.63543(7) 0.7945(2)
N7_2 N 0.2995(3) 0.69277(7) 0.9928(2)
C31_4 C 0.0560(4) 0.71290(10) 0.0444(3)
C32_4 C 0.1818(4) 0.68754(9) 0.0501(3)
H20_4 H 0.1858 0.6656 0.0959
C30_4 C 0.0434(4) 0.74560(9) 0.9743(3)
C33_4 C 0.2907(4) 0.72488(10) 0.9302(3)
H21_4 H 0.3731 0.7295 0.8920
C34_4 C 0.1680(4) 0.75174(10) 0.9180(3)
H22_4 H 0.1684 0.7737 0.8727
C1_4 C 0.8372(4) 0.39189(9) 0.1380(3)
C2_4 C 0.9294(4) 0.42885(9) 0.1606(3)
C3_4 C 0.8502(4) 0.46279(9) 0.1190(3)
H1_4 H 0.7415 0.4622 0.0709
C4_4 C 0.9292(4) 0.49747(9) 0.1476(3)
C5_4 C 0.8377(4) 0.53352(9) 0.1086(3)
C6_4 C 0.7047(4) 0.53546(10) 0.0069(3)
C8_4 C 0.7837(5) 0.59917(11) 0.1368(4)
H4_4 H 0.8134 0.6212 0.1827
C9_4 C 0.8770(4) 0.56714(10) 0.1724(4)
H5_4 H 0.9677 0.5680 0.2401
O1_4 O 0.7064(2) 0.39171(6) 0.0491(2)
O2_4 O 0.8906(3) 0.36457(7) 0.2055(2)
N6_2 N 0.4625(3) 0.33776(7) 0.1532(2)
H2_4 H 0.6739 0.5140 0.9583
C7_4 C 0.6180(4) 0.56863(10) 0.9771(3)
H3_4 H 0.5290 0.5687 0.9080
C18_4 C 0.3893(4) 0.32623(9) 0.7915(3)
C19_4 C 0.3108(4) 0.31013(9) 0.6698(3)
C20_4 C 0.3719(4) 0.31899(9) 0.5726(3)
H12_4 H 0.4647 0.3344 0.5838
C21_4 C 0.2945(4) 0.30481(9) 0.4586(3)
C22_4 C 0.3539(4) 0.31596(9) 0.3528(3)
C23_4 C 0.2438(4) 0.32157(10) 0.2403(3)
H13_4 H 0.1310 0.3181 0.2293
C24_4 C 0.3026(4) 0.33229(10) 0.1451(3)
H14_4 H 0.2265 0.3360 0.0703
C25_4 C 0.5677(4) 0.33226(10) 0.2623(3)
H15_4 H 0.6799 0.3358 0.2707
C26_4 C 0.5201(4) 0.32178(10) 0.3625(3)
H16_4 H 0.5986 0.3186 0.4365
C27_4 C 0.1588(4) 0.28128(10) 0.4438(3)
H17_4 H 0.1080 0.2715 0.3675
C28_4 C 0.0970(4) 0.27193(9) 0.5397(3)
C29_4 C 0.1745(4) 0.28679(9) 0.6528(3)
H18_4 H 0.1338 0.2809 0.7182
H19_4 H 0.0209 0.2082 0.4125
O3_4 O 0.5030(3) 0.35062(6) 0.80379(18)
O4_4 O 0.3407(3) 0.31575(6) 0.88076(18)
C10_2 C 0.9044(4) 0.50246(9) 0.7839(3)
H6_2 H 0.8494 0.4794 0.7637
C11_2 C 0.8216(4) 0.53598(10) 0.7462(3)
C12_2 C 0.9062(4) 0.57034(9) 0.7728(3)
H7_2 H 0.8517 0.5930 0.7456
C13_2 C 0.6426(4) 0.53577(10) 0.6795(3)
C14_2 C 0.5414(5) 0.50630(13) 0.6876(4)
H8_2 H 0.5848 0.4849 0.7331
C15_2 C 0.3746(6) 0.50788(18) 0.6289(5)
H9_2 H 0.3093 0.4872 0.6366
C16_2 C 0.4016(7) 0.56531(18) 0.5521(6)
H10_2 H 0.3547 0.5861 0.5049
C17_2 C 0.5709(5) 0.56596(13) 0.6071(5)
H11_2 H 0.6349 0.5864 0.5953
N2_2 N 0.3028(5) 0.53672(17) 0.5631(5)
H6_3 H 0.8494 0.0206 0.2637
H8_3 H 0.5848 0.0151 0.2331
H9_3 H 0.3093 0.0128 0.1366
C10_3 C 0.9044(4) 0.99754(9) 0.2839(3)
C11_3 C 0.8216(4) 0.96402(10) 0.2462(3)
C12_3 C 0.9062(4) 0.92966(9) 0.2728(3)
H7_3 H 0.8517 0.9070 0.2456
C13_3 C 0.6426(4) 0.96423(10) 0.1795(3)
C14_3 C 0.5414(5) 0.99370(13) 0.1876(4)
C15_3 C 0.3746(6) 0.99212(18) 0.1289(5)
C16_3 C 0.4016(7) 0.93469(18) 0.0521(6)
H10_3 H 0.3547 0.9139 0.0049
C17_3 C 0.5709(5) 0.93404(13) 0.1071(5)
H11_3 H 0.6349 0.9136 0.0953
N2_3 N 0.3028(5) 0.96328(17) 0.0631(5)
C10_4 C 0.0956(4) 0.49754(9) 0.2161(3)
H6_4 H 0.1506 0.5206 0.2363
C11_4 C 0.1784(4) 0.46402(10) 0.2538(3)
C12_4 C 0.0938(4) 0.42966(9) 0.2272(3)
H7_4 H 0.1483 0.4070 0.2544
C13_4 C 0.3574(4) 0.46423(10) 0.3205(3)
C14_4 C 0.4586(5) 0.49370(13) 0.3124(4)
H8_4 H 0.4152 0.5151 0.2669
C15_4 C 0.6254(6) 0.49212(18) 0.3711(5)
H9_4 H 0.6907 0.5128 0.3634
C16_4 C 0.5984(7) 0.43469(18) 0.4479(6)
H10_4 H 0.6453 0.4139 0.4951
C17_4 C 0.4291(5) 0.43404(13) 0.3929(5)
H11_4 H 0.3651 0.4136 0.4047
N2_4 N 0.6972(5) 0.46328(17) 0.4369(5)
loop_
_geom_bond_atom_site_label_1
_geom_bond_atom_site_label_2
_geom_bond_site_symmetry_1
_geom_bond_site_symmetry_2
C11 C10 1_555 1_555
H7 C12 1_555 1_555
C13 C11 1_555 1_555
C14 C13 1_555 1_555
C15 C14 1_555 1_555
C16 H10 1_555 1_555
C17 C13 1_555 1_555
H11 C17 1_555 1_555
N2 C15 1_555 1_555
C11 C12 1_555 1_555
C16 C17 1_555 1_555
C16 N2 1_555 1_555
Co1 O1 1_555 1_555
C1 C2 1_555 1_555
C2 C3 1_555 1_555
C3 H1 1_555 1_555
C4 C3 1_555 1_555
C18 C19 1_555 1_555
C19 C20 1_555 1_555
C20 H12 1_555 1_555
C29 C19 1_555 1_555
H18 C29 1_555 1_555
O1 C1 1_555 1_555
O2 C1 1_555 1_555
O3 Co1 1_555 1_555
O4 Co1 1_555 1_555
N5 Co1 1_555 1_555
N6 Co1 1_555 1_555
N7 Co1 1_555 1_555
C18 O3 1_555 1_555
C18 O4 1_555 1_555
C28 C29 1_555 1_555
C22 C21 1_555 1_555
C23 C22 1_555 1_555
H13 C23 1_555 1_555
C24 C23 1_555 1_555
H14 C24 1_555 1_555
C25 H15 1_555 1_555
C26 C22 1_555 1_555
H16 C26 1_555 1_555
C27 C21 1_555 1_555
H17 C27 1_555 1_555
N6 C24 1_555 1_555
C25 C26 1_555 1_555
C25 N6 1_555 1_555
C6 C5 1_555 1_555
H2 C6 1_555 1_555
C7 C6 1_555 1_555
H3 C7 1_555 1_555
C8 H4 1_555 1_555
C9 C5 1_555 1_555
H5 C9 1_555 1_555
N5 C7 1_555 1_555
C8 C9 1_555 1_555
C8 N5 1_555 1_555
C31 C30 1_555 1_555
C32 C31 1_555 1_555
H20 C32 1_555 1_555
C33 H21 1_555 1_555
C34 C30 1_555 1_555
H22 C34 1_555 1_555
N7 C32 1_555 1_555
C33 C34 1_555 1_555
C33 N7 1_555 1_555
C6_2 C5_2 1_555 1_555
H2_2 C6_2 1_555 1_555
C7_2 C6_2 1_555 1_555
H3_2 C7_2 1_555 1_555
C8_2 H4_2 1_555 1_555
C9_2 C5_2 1_555 1_555
H5_2 C9_2 1_555 1_555
N1 C7_2 1_555 1_555
Co3 N1 1_555 1_555
C8_2 C9_2 1_555 1_555
C8_2 N1 1_555 1_555
C31_2 C30_2 1_555 1_555
C32_2 C31_2 1_555 1_555
H20_2 C32_2 1_555 1_555
C33_2 H21_2 1_555 1_555
C34_2 C30_2 1_555 1_555
H22_2 C34_2 1_555 1_555
N4 C32_2 1_555 1_555
Co3 N4 1_555 1_555
C33_2 C34_2 1_555 1_555
C33_2 N4 1_555 1_555
C22_2 C21_2 1_555 1_555
C23_2 C22_2 1_555 1_555
H13_2 C23_2 1_555 1_555
C24_2 C23_2 1_555 1_555
H14_2 C24_2 1_555 1_555
C25_2 H15_2 1_555 1_555
C26_2 C22_2 1_555 1_555
H16_2 C26_2 1_555 1_555
C27_2 C21_2 1_555 1_555
H17_2 C27_2 1_555 1_555
N3 C24_2 1_555 1_555
Co3 N3 1_555 1_555
C25_2 C26_2 1_555 1_555
C25_2 N3 1_555 1_555
Co3 O1_2 1_555 1_555
C1_2 C2_2 1_555 1_555
C2_2 C3_2 1_555 1_555
C3_2 H1_2 1_555 1_555
C4_2 C3_2 1_555 1_555
C18_2 C19_2 1_555 1_555
C19_2 C20_2 1_555 1_555
C20_2 H12_2 1_555 1_555
C29_2 C19_2 1_555 1_555
H18_2 C29_2 1_555 1_555
O1_2 C1_2 1_555 1_555
O2_2 C1_2 1_555 1_555
O3_2 Co3 1_555 1_555
O4_2 Co3 1_555 1_555
C18_2 O3_2 1_555 1_555
C18_2 O4_2 1_555 1_555
C28_2 C29_2 1_555 1_555
C33_3 H21_3 1_555 1_555
C34_3 C30_3 1_555 1_555
H22_3 C34_3 1_555 1_555
C33_3 C34_3 1_555 1_555
C33_3 N4_2 1_555 1_555
C32_3 C31_3 1_555 1_555
H20_3 C32_3 1_555 1_555
H3_3 C7_3 1_555 1_555
C18_3 C19_3 1_555 1_555
C19_3 C20_3 1_555 1_555
C20_3 H12_3 1_555 1_555
C21_3 C20_3 1_555 1_555
C22_3 C21_3 1_555 1_555
C23_3 C22_3 1_555 1_555
H13_3 C23_3 1_555 1_555
C24_3 C23_3 1_555 1_555
H14_3 C24_3 1_555 1_555
C25_3 H15_3 1_555 1_555
C26_3 C22_3 1_555 1_555
H16_3 C26_3 1_555 1_555
C27_3 C21_3 1_555 1_555
H17_3 C27_3 1_555 1_555
C28_3 C27_3 1_555 1_555
C29_3 C19_3 1_555 1_555
H18_3 C29_3 1_555 1_555
N3_2 C24_3 1_555 1_555
O3_3 Co2 1_555 1_555
O4_3 Co2 1_555 1_555
N5_2 Co2 1_555 1_555
C18_3 O3_3 1_555 1_555
C18_3 O4_3 1_555 1_555
C25_3 C26_3 1_555 1_555
C25_3 N3_2 1_555 1_555
C28_3 C29_3 1_555 1_555
C1_3 C2_3 1_555 1_555
C2_3 C3_3 1_555 1_555
C3_3 H1_3 1_555 1_555
C4_3 C3_3 1_555 1_555
C5_3 C4_3 1_555 1_555
C6_3 C5_3 1_555 1_555
C8_3 H4_3 1_555 1_555
C9_3 C5_3 1_555 1_555
H5_3 C9_3 1_555 1_555
O1_3 C1_3 1_555 1_555
O2_3 C1_3 1_555 1_555
Co4 N1_2 1_555 1_555
C8_3 C9_3 1_555 1_555
C8_3 N1_2 1_555 1_555
C32_4 C31_4 1_555 1_555
H20_4 C32_4 1_555 1_555
C33_4 H21_4 1_555 1_555
C34_4 C30_4 1_555 1_555
H22_4 C34_4 1_555 1_555
C33_4 C34_4 1_555 1_555
C33_4 N7_2 1_555 1_555
C1_4 C2_4 1_555 1_555
C2_4 C3_4 1_555 1_555
C3_4 H1_4 1_555 1_555
C4_4 C3_4 1_555 1_555
C5_4 C4_4 1_555 1_555
C6_4 C5_4 1_555 1_555
C8_4 H4_4 1_555 1_555
C9_4 C5_4 1_555 1_555
H5_4 C9_4 1_555 1_555
O1_4 C1_4 1_555 1_555
O2_4 C1_4 1_555 1_555
C8_4 C9_4 1_555 1_555
C8_4 N5_2 1_555 1_555
H3_4 C7_4 1_555 1_555
C18_4 C19_4 1_555 1_555
C19_4 C20_4 1_555 1_555
C20_4 H12_4 1_555 1_555
C21_4 C20_4 1_555 1_555
C22_4 C21_4 1_555 1_555
C23_4 C22_4 1_555 1_555
H13_4 C23_4 1_555 1_555
C24_4 C23_4 1_555 1_555
H14_4 C24_4 1_555 1_555
C25_4 H15_4 1_555 1_555
C26_4 C22_4 1_555 1_555
H16_4 C26_4 1_555 1_555
C27_4 C21_4 1_555 1_555
H17_4 C27_4 1_555 1_555
C28_4 C27_4 1_555 1_555
C29_4 C19_4 1_555 1_555
H18_4 C29_4 1_555 1_555
N6_2 C24_4 1_555 1_555
O3_4 Co4 1_555 1_555
O4_4 Co4 1_555 1_555
C18_4 O3_4 1_555 1_555
C18_4 O4_4 1_555 1_555
C25_4 C26_4 1_555 1_555
C25_4 N6_2 1_555 1_555
C28_4 C29_4 1_555 1_555
H6_2 C10_2 1_555 1_555
C11_2 C10_2 1_555 1_555
H7_2 C12_2 1_555 1_555
C13_2 C11_2 1_555 1_555
C14_2 C13_2 1_555 1_555
H8_2 C14_2 1_555 1_555
C15_2 C14_2 1_555 1_555
H9_2 C15_2 1_555 1_555
C16_2 H10_2 1_555 1_555
C17_2 C13_2 1_555 1_555
H11_2 C17_2 1_555 1_555
N2_2 C15_2 1_555 1_555
C11_2 C12_2 1_555 1_555
C16_2 C17_2 1_555 1_555
C16_2 N2_2 1_555 1_555
C11_3 C10_3 1_555 1_555
H7_3 C12_3 1_555 1_555
C13_3 C11_3 1_555 1_555
C14_3 C13_3 1_555 1_555
C15_3 C14_3 1_555 1_555
C16_3 H10_3 1_555 1_555
C17_3 C13_3 1_555 1_555
H11_3 C17_3 1_555 1_555
N2_3 C15_3 1_555 1_555
C11_3 C12_3 1_555 1_555
C16_3 C17_3 1_555 1_555
C16_3 N2_3 1_555 1_555
H6_4 C10_4 1_555 1_555
C11_4 C10_4 1_555 1_555
H7_4 C12_4 1_555 1_555
C13_4 C11_4 1_555 1_555
C14_4 C13_4 1_555 1_555
H8_4 C14_4 1_555 1_555
C15_4 C14_4 1_555 1_555
H9_4 C15_4 1_555 1_555
C16_4 H10_4 1_555 1_555
C17_4 C13_4 1_555 1_555
H11_4 C17_4 1_555 1_555
N2_4 C15_4 1_555 1_555
C11_4 C12_4 1_555 1_555
C16_4 C17_4 1_555 1_555
C16_4 N2_4 1_555 1_555

#END
