
###############################################################################
#
# This file contains modified crystal structure data generated from the
# MOF subset of the Cambridge Structural Database (CSD) v543 
# hosted by the Cambridge Crystallographic Data Centre (CCDC).
#
# This work is licensed under the Creative Commons
# Attribution-NonCommercial-ShareAlike 4.0 International License.
# To view a copy of this license, visit
# http://creativecommons.org/licenses/by-nc-sa/4.0/
# or send a letter to
# Creative Commons, PO Box 1866, Mountain View, CA 94042, USA.
#
# CIF created using the CSD Python API on 29 September 2022
# The structure has been converted into the P1 space group
# The structure has a 3D framework
# The original CSD entry FEVFUJ is in the tetragonal crystal system
# The framework has been calculated to contain at least 10.0% void space
# The void calculation uses a probe of radius 1.32A, grid spacing 0.4
#
###############################################################################

data_FEVFUJ
_chemical_formula_moiety         '(C720 H480 Cu48 N96)n'
_symmetry_cell_setting           triclinic
_symmetry_space_group_name_H-M   'P 1'
_symmetry_Int_Tables_number      1
_space_group_name_Hall           'P 1'
loop_
_symmetry_equiv_pos_site_id
_symmetry_equiv_pos_as_xyz
1 x,y,z
_cell_length_a                   30.835(14)
_cell_length_b                   30.835(14)
_cell_length_c                   29.306(7)
_cell_angle_alpha                90
_cell_angle_beta                 90
_cell_angle_gamma                90
_cell_volume                     27864.1
loop_
_atom_site_label
_atom_site_type_symbol
_atom_site_fract_x
_atom_site_fract_y
_atom_site_fract_z
Cu2 Cu 0.128492(9) 0.323738(9) 0.055104(9)
Cu3 Cu 0.149946(9) 0.425672(10) 0.038828(10)
N2 N 0.07906(5) 0.30279(5) 0.02593(6)
N3 N 0.17357(6) 0.34987(5) 0.08726(6)
N4 N 0.17531(5) 0.39436(5) 0.08618(6)
N5 N 0.29573(6) 0.37888(6) 0.23756(6)
N6 N 0.31792(6) 0.35147(6) 0.20923(6)
C2 C 0.01698(6) 0.26663(6) 0.01250(6)
C3 C 0.05744(6) 0.26557(6) 0.03458(6)
C4 C 0.07781(6) 0.23493(6) 0.06693(7)
C5 C 0.09127(7) 0.19365(7) 0.05450(8)
H1 H 0.0854 0.1830 0.0247
C6 C 0.11327(8) 0.16805(7) 0.08555(9)
H2 H 0.1221 0.1396 0.0771
C7 C 0.12253(7) 0.18340(8) 0.12862(8)
H3 H 0.1384 0.1659 0.1494
C8 C 0.10888(8) 0.22403(7) 0.14151(7)
H4 H 0.1149 0.2344 0.1714
C9 C 0.08649(7) 0.24977(7) 0.11108(7)
H5 H 0.0769 0.2777 0.1202
C16 C 0.20145(6) 0.33616(6) 0.11974(7)
C17 C 0.22189(7) 0.37193(7) 0.13954(7)
C18 C 0.20412(7) 0.40795(7) 0.11763(7)
C19 C 0.20839(7) 0.29005(7) 0.13087(8)
C20 C 0.21538(8) 0.25926(8) 0.09708(9)
H11 H 0.2131 0.2672 0.0659
C21 C 0.22570(9) 0.21685(8) 0.10880(11)
H12 H 0.2307 0.1960 0.0855
C22 C 0.22876(10) 0.20492(8) 0.15394(12)
H13 H 0.2362 0.1760 0.1617
C23 C 0.22103(9) 0.23486(9) 0.18775(10)
H14 H 0.2226 0.2265 0.2189
C24 C 0.21094(8) 0.27701(8) 0.17625(8)
H15 H 0.2056 0.2976 0.1998
C25 C 0.21205(9) 0.45439(7) 0.12473(8)
C26 C 0.25463(12) 0.46975(9) 0.12922(11)
H16 H 0.2784 0.4502 0.1272
C27 C 0.26193(19) 0.51388(12) 0.13674(15)
H17 H 0.2907 0.5245 0.1400
C28 C 0.2271(2) 0.54206(11) 0.13945(17)
H18 H 0.2320 0.5721 0.1445
C29 C 0.1863(2) 0.52730(12) 0.13497(16)
H19 H 0.1627 0.5470 0.1369
C30 C 0.17815(13) 0.48320(9) 0.12754(12)
H20 H 0.1492 0.4732 0.1244
C31 C 0.25855(7) 0.39039(7) 0.21644(7)
C32 C 0.25659(6) 0.37038(6) 0.17383(7)
C33 C 0.29475(7) 0.34653(7) 0.17070(7)
C34 C 0.22709(8) 0.42024(7) 0.23712(8)
C35 C 0.23988(10) 0.45965(9) 0.25540(11)
H21 H 0.2697 0.4675 0.2556
C36 C 0.20902(14) 0.48751(12) 0.27334(14)
H22 H 0.2180 0.5141 0.2867
C37 C 0.16663(14) 0.47747(15) 0.27210(15)
H23 H 0.1459 0.4974 0.2837
C38 C 0.15311(11) 0.43831(13) 0.25406(14)
H24 H 0.1232 0.4310 0.2537
C39 C 0.18339(9) 0.41007(10) 0.23661(9)
H25 H 0.1742 0.3832 0.2240
C40 C 0.31093(7) 0.32022(8) 0.13196(7)
C41 C 0.32848(9) 0.27957(9) 0.13891(9)
H26 H 0.3298 0.2681 0.1690
C42 C 0.34417(12) 0.25535(11) 0.10293(12)
H27 H 0.3565 0.2276 0.1082
C43 C 0.34168(14) 0.27201(14) 0.05894(12)
H28 H 0.3526 0.2557 0.0340
C44 C 0.32372(13) 0.31154(13) 0.05152(10)
H29 H 0.3218 0.3226 0.0213
C45 C 0.30807(10) 0.33616(10) 0.08792(9)
H30 H 0.2955 0.3638 0.0825
Cu7 Cu 0.369566(9) 0.326552(9) 0.228535(10)
Cu9 Cu 0.324328(10) 0.399946(9) 0.288828(10)
Cu1 Cu 0.076552(9) 0.380434(9) 0.978535(10)
N1 N 0.05361(5) 0.32862(5) 0.99915(5)
C1 C 0.01622(6) 0.30739(6) 0.99107(6)
C55 C 0.01959(7) 0.17183(7) 0.96586(7)
C56 C 0.04466(8) 0.19517(9) 0.93471(8)
H36 H 0.0377 0.2245 0.9280
C57 C 0.07974(9) 0.17546(11) 0.91354(10)
H37 H 0.0968 0.1915 0.8924
C58 C 0.09014(10) 0.13297(11) 0.92282(11)
H38 H 0.1142 0.1198 0.9081
C59 C 0.06596(9) 0.10967(10) 0.95313(11)
H39 H 0.0732 0.0803 0.9594
C60 C 0.03072(8) 0.12895(8) 0.97485(8)
H40 H 0.0141 0.1126 0.9961
N13 N 0.12888(6) 0.45427(6) 0.98756(6)
N15 N 0.10147(6) 0.43208(6) 0.95923(6)
N8 N 0.92094(5) 0.19721(5) 0.02593(6)
C47 C 0.98302(6) 0.23337(6) 0.01250(6)
C48 C 0.94256(6) 0.23443(6) 0.03458(6)
C49 C 0.92219(6) 0.26507(6) 0.06693(7)
C50 C 0.90873(7) 0.30635(7) 0.05450(8)
H31 H 0.9146 0.3170 0.0247
C51 C 0.88673(8) 0.33195(7) 0.08555(9)
H32 H 0.8779 0.3604 0.0771
C52 C 0.87747(7) 0.31660(8) 0.12862(8)
H33 H 0.8616 0.3341 0.1494
C53 C 0.89112(8) 0.27597(7) 0.14151(7)
H34 H 0.8851 0.2656 0.1714
C54 C 0.91351(7) 0.25023(7) 0.11108(7)
H35 H 0.9231 0.2223 0.1202
Cu5 Cu 0.871508(9) 0.176262(9) 0.055104(9)
Cu6 Cu 0.850054(9) 0.074328(10) 0.038828(10)
N9 N 0.82643(6) 0.15013(5) 0.08726(6)
N10 N 0.82469(5) 0.10564(5) 0.08618(6)
N11 N 0.70427(6) 0.12112(6) 0.23756(6)
N12 N 0.68208(6) 0.14853(6) 0.20923(6)
C61 C 0.79855(6) 0.16384(6) 0.11974(7)
C62 C 0.77811(7) 0.12807(7) 0.13954(7)
C63 C 0.79588(7) 0.09205(7) 0.11763(7)
C64 C 0.79161(7) 0.20995(7) 0.13087(8)
C65 C 0.78462(8) 0.24074(8) 0.09708(9)
H41 H 0.7869 0.2328 0.0659
C66 C 0.77430(9) 0.28315(8) 0.10880(11)
H42 H 0.7693 0.3040 0.0855
C67 C 0.77124(10) 0.29508(8) 0.15394(12)
H43 H 0.7638 0.3240 0.1617
C68 C 0.77897(9) 0.26514(9) 0.18775(10)
H44 H 0.7774 0.2735 0.2189
C69 C 0.78906(8) 0.22299(8) 0.17625(8)
H45 H 0.7944 0.2024 0.1998
C70 C 0.78795(9) 0.04561(7) 0.12473(8)
C71 C 0.74537(12) 0.03025(9) 0.12922(11)
H46 H 0.7216 0.0498 0.1272
C75 C 0.82185(13) 0.01680(9) 0.12754(12)
H50 H 0.8508 0.0268 0.1244
C76 C 0.74145(7) 0.10961(7) 0.21644(7)
C77 C 0.74341(6) 0.12962(6) 0.17383(7)
C78 C 0.70525(7) 0.15347(7) 0.17070(7)
C79 C 0.77291(8) 0.07976(7) 0.23712(8)
C80 C 0.76012(10) 0.04035(9) 0.25540(11)
H51 H 0.7303 0.0325 0.2556
C81 C 0.79098(14) 0.01249(12) 0.27334(14)
C82 C 0.83337(14) 0.02253(15) 0.27210(15)
H53 H 0.8541 0.0026 0.2837
C83 C 0.84689(11) 0.06169(13) 0.25406(14)
H54 H 0.8768 0.0690 0.2537
C84 C 0.81661(9) 0.08993(10) 0.23661(9)
H55 H 0.8258 0.1168 0.2240
C85 C 0.68907(7) 0.17978(8) 0.13196(7)
C86 C 0.67152(9) 0.22043(9) 0.13891(9)
H56 H 0.6702 0.2319 0.1690
C87 C 0.65583(12) 0.24465(11) 0.10293(12)
H57 H 0.6435 0.2724 0.1082
C88 C 0.65832(14) 0.22799(14) 0.05894(12)
H58 H 0.6474 0.2443 0.0340
C89 C 0.67628(13) 0.18846(13) 0.05152(10)
H59 H 0.6782 0.1774 0.0213
C90 C 0.69193(10) 0.16384(10) 0.08792(9)
H60 H 0.7045 0.1362 0.0825
Cu8 Cu 0.630434(9) 0.173448(9) 0.228535(10)
Cu10 Cu 0.675672(10) 0.100054(9) 0.288828(10)
Cu1_2 Cu 0.423448(9) 0.619566(9) 0.478535(10)
Cu2_2 Cu 0.371508(9) 0.676262(9) 0.555104(9)
Cu3_2 Cu 0.350054(9) 0.574328(10) 0.538828(10)
N1_2 N 0.44639(5) 0.67138(5) 0.49915(5)
N2_2 N 0.42094(5) 0.69721(5) 0.52593(6)
N3_2 N 0.32643(6) 0.65013(5) 0.58726(6)
N4_2 N 0.32469(5) 0.60564(5) 0.58618(6)
N5_2 N 0.20427(6) 0.62112(6) 0.73756(6)
N6_2 N 0.18208(6) 0.64853(6) 0.70923(6)
C1_2 C 0.48378(6) 0.69261(6) 0.49107(6)
C2_2 C 0.48302(6) 0.73337(6) 0.51250(6)
C3_2 C 0.44256(6) 0.73443(6) 0.53458(6)
C4_2 C 0.42219(6) 0.76507(6) 0.56693(7)
C5_2 C 0.40873(7) 0.80635(7) 0.55450(8)
H1_2 H 0.4146 0.8170 0.5247
C6_2 C 0.38673(8) 0.83195(7) 0.58555(9)
H2_2 H 0.3779 0.8604 0.5771
C7_2 C 0.37747(7) 0.81660(8) 0.62862(8)
H3_2 H 0.3616 0.8341 0.6494
C8_2 C 0.39112(8) 0.77597(7) 0.64151(7)
H4_2 H 0.3851 0.7656 0.6714
C9_2 C 0.41351(7) 0.75023(7) 0.61108(7)
H5_2 H 0.4231 0.7223 0.6202
C10 C 0.51959(7) 0.67183(7) 0.46586(7)
C11 C 0.54466(8) 0.69517(9) 0.43471(8)
H6 H 0.5377 0.7245 0.4280
C12 C 0.57974(9) 0.67546(11) 0.41354(10)
H7 H 0.5968 0.6915 0.3924
C13 C 0.59014(10) 0.63297(11) 0.42282(11)
H8 H 0.6142 0.6198 0.4081
C14 C 0.56596(9) 0.60967(10) 0.45313(11)
H9 H 0.5732 0.5803 0.4594
C15 C 0.53072(8) 0.62895(8) 0.47485(8)
H10 H 0.5141 0.6126 0.4961
C16_2 C 0.29855(6) 0.66384(6) 0.61974(7)
C17_2 C 0.27811(7) 0.62807(7) 0.63954(7)
C18_2 C 0.29588(7) 0.59205(7) 0.61763(7)
C19_2 C 0.29161(7) 0.70995(7) 0.63087(8)
C20_2 C 0.28462(8) 0.74074(8) 0.59708(9)
H11_2 H 0.2869 0.7328 0.5659
C21_2 C 0.27430(9) 0.78315(8) 0.60880(11)
H12_2 H 0.2693 0.8040 0.5855
C22_2 C 0.27124(10) 0.79508(8) 0.65394(12)
H13_2 H 0.2638 0.8240 0.6617
C23_2 C 0.27897(9) 0.76514(9) 0.68775(10)
H14_2 H 0.2774 0.7735 0.7189
C24_2 C 0.28906(8) 0.72299(8) 0.67625(8)
H15_2 H 0.2944 0.7024 0.6998
C25_2 C 0.28795(9) 0.54561(7) 0.62473(8)
C26_2 C 0.24537(12) 0.53025(9) 0.62922(11)
H16_2 H 0.2216 0.5498 0.6272
C27_2 C 0.23807(19) 0.48612(12) 0.63674(15)
H17_2 H 0.2093 0.4755 0.6400
C28_2 C 0.2729(2) 0.45794(11) 0.63945(17)
H18_2 H 0.2680 0.4279 0.6445
C29_2 C 0.3137(2) 0.47270(12) 0.63497(16)
H19_2 H 0.3373 0.4530 0.6369
C30_2 C 0.32185(13) 0.51680(9) 0.62754(12)
H20_2 H 0.3508 0.5268 0.6244
C31_2 C 0.24145(7) 0.60961(7) 0.71644(7)
C32_2 C 0.24341(6) 0.62962(6) 0.67383(7)
C33_2 C 0.20525(7) 0.65347(7) 0.67070(7)
C34_2 C 0.27291(8) 0.57976(7) 0.73712(8)
C35_2 C 0.26012(10) 0.54035(9) 0.75540(11)
H21_2 H 0.2303 0.5325 0.7556
C36_2 C 0.29098(14) 0.51249(12) 0.77334(14)
H22_2 H 0.2820 0.4859 0.7867
C37_2 C 0.33337(14) 0.52253(15) 0.77210(15)
H23_2 H 0.3541 0.5026 0.7837
C38_2 C 0.34689(11) 0.56169(13) 0.75406(14)
H24_2 H 0.3768 0.5690 0.7537
C39_2 C 0.31661(9) 0.58993(10) 0.73661(9)
H25_2 H 0.3258 0.6168 0.7240
C40_2 C 0.18907(7) 0.67978(8) 0.63196(7)
C41_2 C 0.17152(9) 0.72043(9) 0.63891(9)
H26_2 H 0.1702 0.7319 0.6690
C42_2 C 0.15583(12) 0.74465(11) 0.60293(12)
H27_2 H 0.1435 0.7724 0.6082
C43_2 C 0.15832(14) 0.72799(14) 0.55894(12)
H28_2 H 0.1474 0.7443 0.5340
C44_2 C 0.17628(13) 0.68846(13) 0.55152(10)
H29_2 H 0.1782 0.6774 0.5213
C45_2 C 0.19193(10) 0.66384(10) 0.58792(9)
H30_2 H 0.2045 0.6362 0.5825
N7 N 0.55361(5) 0.82862(5) 0.49915(5)
N8_2 N 0.57906(5) 0.80279(5) 0.52593(6)
C46 C 0.51622(6) 0.80739(6) 0.49107(6)
C47_2 C 0.51698(6) 0.76663(6) 0.51250(6)
C48_2 C 0.55744(6) 0.76557(6) 0.53458(6)
C49_2 C 0.57781(6) 0.73493(6) 0.56693(7)
C50_2 C 0.59127(7) 0.69365(7) 0.55450(8)
H31_2 H 0.5854 0.6830 0.5247
C51_2 C 0.61327(8) 0.66805(7) 0.58555(9)
H32_2 H 0.6221 0.6396 0.5771
C52_2 C 0.62253(7) 0.68340(8) 0.62862(8)
H33_2 H 0.6384 0.6659 0.6494
C53_2 C 0.60888(8) 0.72403(7) 0.64151(7)
H34_2 H 0.6149 0.7344 0.6714
C54_2 C 0.58649(7) 0.74977(7) 0.61108(7)
H35_2 H 0.5769 0.7777 0.6202
C55_2 C 0.48041(7) 0.82817(7) 0.46586(7)
C56_2 C 0.45534(8) 0.80483(9) 0.43471(8)
H36_2 H 0.4623 0.7755 0.4280
C57_2 C 0.42026(9) 0.82454(11) 0.41354(10)
H37_2 H 0.4032 0.8085 0.3924
C58_2 C 0.40986(10) 0.86703(11) 0.42282(11)
H38_2 H 0.3858 0.8802 0.4081
C59_2 C 0.43404(9) 0.89033(10) 0.45313(11)
H39_2 H 0.4268 0.9197 0.4594
C60_2 C 0.46928(8) 0.87105(8) 0.47485(8)
H40_2 H 0.4859 0.8874 0.4961
Cu4 Cu 0.576552(9) 0.880434(9) 0.478535(10)
Cu5_2 Cu 0.628492(9) 0.823738(9) 0.555104(9)
Cu6_2 Cu 0.649946(9) 0.925672(10) 0.538828(10)
N9_2 N 0.67357(6) 0.84987(5) 0.58726(6)
N10_2 N 0.67531(5) 0.89436(5) 0.58618(6)
N11_2 N 0.79573(6) 0.87888(6) 0.73756(6)
N12_2 N 0.81792(6) 0.85147(6) 0.70923(6)
C61_2 C 0.70145(6) 0.83616(6) 0.61974(7)
C62_2 C 0.72189(7) 0.87193(7) 0.63954(7)
C63_2 C 0.70412(7) 0.90795(7) 0.61763(7)
C64_2 C 0.70839(7) 0.79005(7) 0.63087(8)
C65_2 C 0.71538(8) 0.75926(8) 0.59708(9)
H41_2 H 0.7131 0.7672 0.5659
C66_2 C 0.72570(9) 0.71685(8) 0.60880(11)
H42_2 H 0.7307 0.6960 0.5855
C67_2 C 0.72876(10) 0.70492(8) 0.65394(12)
H43_2 H 0.7362 0.6760 0.6617
C68_2 C 0.72103(9) 0.73486(9) 0.68775(10)
H44_2 H 0.7226 0.7265 0.7189
C69_2 C 0.71094(8) 0.77701(8) 0.67625(8)
H45_2 H 0.7056 0.7976 0.6998
C70_2 C 0.71205(9) 0.95439(7) 0.62473(8)
C71_2 C 0.75463(12) 0.96975(9) 0.62922(11)
H46_2 H 0.7784 0.9502 0.6272
C75_2 C 0.67815(13) 0.98320(9) 0.62754(12)
H50_2 H 0.6492 0.9732 0.6244
C76_2 C 0.75855(7) 0.89039(7) 0.71644(7)
C77_2 C 0.75659(6) 0.87038(6) 0.67383(7)
C78_2 C 0.79475(7) 0.84653(7) 0.67070(7)
C79_2 C 0.72709(8) 0.92024(7) 0.73712(8)
C80_2 C 0.73988(10) 0.95965(9) 0.75540(11)
H51_2 H 0.7697 0.9675 0.7556
C81_2 C 0.70902(14) 0.98751(12) 0.77334(14)
C82_2 C 0.66663(14) 0.97747(15) 0.77210(15)
H53_2 H 0.6459 0.9974 0.7837
C83_2 C 0.65311(11) 0.93831(13) 0.75406(14)
H54_2 H 0.6232 0.9310 0.7537
C84_2 C 0.68339(9) 0.91007(10) 0.73661(9)
H55_2 H 0.6742 0.8832 0.7240
C85_2 C 0.81093(7) 0.82022(8) 0.63196(7)
C86_2 C 0.82848(9) 0.77957(9) 0.63891(9)
H56_2 H 0.8298 0.7681 0.6690
C87_2 C 0.84417(12) 0.75535(11) 0.60293(12)
H57_2 H 0.8565 0.7276 0.6082
C88_2 C 0.84168(14) 0.77201(14) 0.55894(12)
H58_2 H 0.8526 0.7557 0.5340
C89_2 C 0.82372(13) 0.81154(13) 0.55152(10)
H59_2 H 0.8218 0.8226 0.5213
C90_2 C 0.80807(10) 0.83616(10) 0.58792(9)
H60_2 H 0.7955 0.8638 0.5825
Cu7_2 Cu 0.130434(9) 0.673448(9) 0.728535(10)
Cu8_2 Cu 0.869566(9) 0.826552(9) 0.728535(10)
Cu9_2 Cu 0.175672(10) 0.600054(9) 0.788828(10)
Cu10_2 Cu 0.824328(10) 0.899946(9) 0.788828(10)
N13_2 N 0.37112(6) 0.54573(6) 0.48756(6)
N14 N 0.62888(6) 0.95427(6) 0.48756(6)
N15_2 N 0.39853(6) 0.56792(6) 0.45923(6)
N16 N 0.60147(6) 0.93208(6) 0.45923(6)
Cu2_3 Cu 0.426262(9) 0.378492(9) 0.305104(9)
N1_3 N 0.42138(5) 0.30361(5) 0.24915(5)
N2_3 N 0.44721(5) 0.32906(5) 0.27593(6)
N3_3 N 0.40013(5) 0.42357(6) 0.33726(6)
N4_3 N 0.35564(5) 0.42531(5) 0.33618(6)
C1_3 C 0.44261(6) 0.26622(6) 0.24107(6)
C2_3 C 0.48337(6) 0.26698(6) 0.26250(6)
C3_3 C 0.48443(6) 0.30744(6) 0.28458(6)
C4_3 C 0.51507(6) 0.32781(6) 0.31693(7)
C5_3 C 0.55635(7) 0.34127(7) 0.30450(8)
H1_3 H 0.5670 0.3354 0.2747
C6_3 C 0.58195(7) 0.36327(8) 0.33555(9)
H2_3 H 0.6104 0.3721 0.3271
C7_3 C 0.56660(8) 0.37253(7) 0.37862(8)
H3_3 H 0.5841 0.3884 0.3994
C8_3 C 0.52597(7) 0.35888(8) 0.39151(7)
H4_3 H 0.5156 0.3649 0.4214
C9_3 C 0.50023(7) 0.33649(7) 0.36108(7)
H5_3 H 0.4723 0.3269 0.3702
C10_2 C 0.42183(7) 0.23041(7) 0.21586(7)
C11_2 C 0.44517(9) 0.20534(8) 0.18471(8)
H6_2 H 0.4745 0.2123 0.1780
C12_2 C 0.42546(11) 0.17026(9) 0.16354(10)
H7_2 H 0.4415 0.1532 0.1424
C13_2 C 0.38297(11) 0.15986(10) 0.17282(11)
H8_2 H 0.3698 0.1358 0.1581
C14_2 C 0.35967(10) 0.18404(9) 0.20313(11)
H9_2 H 0.3303 0.1768 0.2094
C15_2 C 0.37895(8) 0.21928(8) 0.22485(8)
H10_2 H 0.3626 0.2359 0.2461
C16_3 C 0.41384(6) 0.45145(6) 0.36974(7)
C17_3 C 0.37807(7) 0.47189(7) 0.38954(7)
C18_3 C 0.34205(7) 0.45412(7) 0.36763(7)
C19_3 C 0.45995(7) 0.45839(7) 0.38087(8)
C20_3 C 0.49074(8) 0.46538(8) 0.34708(9)
H11_3 H 0.4828 0.4631 0.3159
C21_3 C 0.53315(8) 0.47570(9) 0.35880(11)
H12_3 H 0.5540 0.4807 0.3355
C22_3 C 0.54508(8) 0.47876(10) 0.40394(12)
H13_3 H 0.5740 0.4862 0.4117
C23_3 C 0.51514(9) 0.47103(9) 0.43775(10)
H14_3 H 0.5235 0.4726 0.4689
C24_3 C 0.47299(8) 0.46094(8) 0.42625(8)
H15_3 H 0.4524 0.4556 0.4498
C25_3 C 0.29561(7) 0.46205(9) 0.37473(8)
C26_3 C 0.28025(9) 0.50463(12) 0.37922(11)
H16_3 H 0.2998 0.5284 0.3772
C27_3 C 0.23612(12) 0.51193(19) 0.38674(15)
H17_3 H 0.2255 0.5407 0.3900
C28_3 C 0.20794(11) 0.4771(2) 0.38945(17)
H18_3 H 0.1779 0.4820 0.3945
C29_3 C 0.22270(12) 0.4363(2) 0.38497(16)
H19_3 H 0.2030 0.4127 0.3869
C30_3 C 0.26680(9) 0.42815(13) 0.37754(12)
H20_3 H 0.2768 0.3992 0.3744
C31_3 C 0.35961(7) 0.50855(7) 0.46644(7)
C32_3 C 0.37962(6) 0.50659(6) 0.42383(7)
C33_3 C 0.40347(7) 0.54475(7) 0.42070(7)
C34_3 C 0.32976(7) 0.47709(8) 0.48712(8)
C35_3 C 0.29035(9) 0.48988(10) 0.50540(11)
H21_3 H 0.2825 0.5197 0.5056
C36_3 C 0.26249(12) 0.45902(14) 0.52334(14)
H22_3 H 0.2359 0.4680 0.5367
C37_3 C 0.27253(15) 0.41663(14) 0.52210(15)
H23_3 H 0.2526 0.3959 0.5337
C38_3 C 0.31169(13) 0.40311(11) 0.50406(14)
H24_3 H 0.3190 0.3732 0.5037
C39_3 C 0.33993(10) 0.43339(9) 0.48661(9)
H25_3 H 0.3668 0.4242 0.4740
C40_3 C 0.42978(8) 0.56093(7) 0.38196(7)
C41_3 C 0.47043(9) 0.57848(9) 0.38891(9)
H26_3 H 0.4819 0.5798 0.4190
C42_3 C 0.49465(11) 0.59417(12) 0.35293(12)
H27_3 H 0.5224 0.6065 0.3582
C43_3 C 0.47799(14) 0.59168(14) 0.30894(12)
H28_3 H 0.4943 0.6026 0.2840
C44_3 C 0.43846(13) 0.57372(13) 0.30152(10)
H29_3 H 0.4274 0.5718 0.2713
C45_3 C 0.41384(10) 0.55807(10) 0.33792(9)
H30_3 H 0.3862 0.5455 0.3325
N7_2 N 0.57862(5) 0.19639(5) 0.24915(5)
N8_3 N 0.55279(5) 0.17094(5) 0.27593(6)
C46_2 C 0.55739(6) 0.23378(6) 0.24107(6)
C47_3 C 0.51663(6) 0.23302(6) 0.26250(6)
C48_3 C 0.51557(6) 0.19256(6) 0.28458(6)
C49_3 C 0.48493(6) 0.17219(6) 0.31693(7)
C50_3 C 0.44365(7) 0.15873(7) 0.30450(8)
H31_3 H 0.4330 0.1646 0.2747
C51_3 C 0.41805(7) 0.13673(8) 0.33555(9)
H32_3 H 0.3896 0.1279 0.3271
C52_3 C 0.43340(8) 0.12747(7) 0.37862(8)
H33_3 H 0.4159 0.1116 0.3994
C53_3 C 0.47403(7) 0.14112(8) 0.39151(7)
H34_3 H 0.4844 0.1351 0.4214
C54_3 C 0.49977(7) 0.16351(7) 0.36108(7)
H35_3 H 0.5277 0.1731 0.3702
C55_3 C 0.57817(7) 0.26959(7) 0.21586(7)
C56_3 C 0.55483(9) 0.29466(8) 0.18471(8)
H36_3 H 0.5255 0.2877 0.1780
C57_3 C 0.57454(11) 0.32974(9) 0.16354(10)
H37_3 H 0.5585 0.3468 0.1424
C58_3 C 0.61703(11) 0.34014(10) 0.17282(11)
H38_3 H 0.6302 0.3642 0.1581
C59_3 C 0.64033(10) 0.31596(9) 0.20313(11)
H39_3 H 0.6697 0.3232 0.2094
C60_3 C 0.62105(8) 0.28072(8) 0.22485(8)
H40_3 H 0.6374 0.2641 0.2461
Cu5_3 Cu 0.573738(9) 0.121508(9) 0.305104(9)
N9_3 N 0.59987(5) 0.07643(6) 0.33726(6)
N10_3 N 0.64436(5) 0.07469(5) 0.33618(6)
C61_3 C 0.58616(6) 0.04855(6) 0.36974(7)
C62_3 C 0.62193(7) 0.02811(7) 0.38954(7)
C63_3 C 0.65795(7) 0.04588(7) 0.36763(7)
C64_3 C 0.54005(7) 0.04161(7) 0.38087(8)
C65_3 C 0.50926(8) 0.03462(8) 0.34708(9)
H41_3 H 0.5172 0.0369 0.3159
C66_3 C 0.46685(8) 0.02430(9) 0.35880(11)
H42_3 H 0.4460 0.0193 0.3355
C67_3 C 0.45492(8) 0.02124(10) 0.40394(12)
H43_3 H 0.4260 0.0138 0.4117
C68_3 C 0.48486(9) 0.02897(9) 0.43775(10)
H44_3 H 0.4765 0.0274 0.4689
C69_3 C 0.52701(8) 0.03906(8) 0.42625(8)
H45_3 H 0.5476 0.0444 0.4498
C70_3 C 0.70439(7) 0.03795(9) 0.37473(8)
C73 C 0.79206(11) 0.0229(2) 0.38945(17)
H48 H 0.8221 0.0180 0.3945
C74 C 0.77730(12) 0.0637(2) 0.38497(16)
H49 H 0.7970 0.0873 0.3869
C75_3 C 0.73320(9) 0.07185(13) 0.37754(12)
H50_3 H 0.7232 0.1008 0.3744
C79_3 C 0.67024(7) 0.02291(8) 0.48712(8)
C80_3 C 0.70965(9) 0.01012(10) 0.50540(11)
C81_3 C 0.73751(12) 0.04098(14) 0.52334(14)
H52 H 0.7641 0.0320 0.5367
C82_3 C 0.72747(15) 0.08337(14) 0.52210(15)
H53_3 H 0.7474 0.1041 0.5337
C83_3 C 0.68831(13) 0.09689(11) 0.50406(14)
H54_3 H 0.6810 0.1268 0.5037
C84_3 C 0.66007(10) 0.06661(9) 0.48661(9)
H55_3 H 0.6332 0.0758 0.4740
C71_3 C 0.71975(9) 0.99537(12) 0.37922(11)
H46_3 H 0.7002 0.9716 0.3772
C72 C 0.76388(12) 0.98807(19) 0.38674(15)
H47 H 0.7745 0.9593 0.3900
C76_3 C 0.64039(7) 0.99145(7) 0.46644(7)
C77_3 C 0.62038(6) 0.99341(6) 0.42383(7)
C78_3 C 0.59653(7) 0.95525(7) 0.42070(7)
H51_3 H 0.7175 0.9803 0.5056
C85_3 C 0.57022(8) 0.93907(7) 0.38196(7)
C86_3 C 0.52957(9) 0.92152(9) 0.38891(9)
H56_3 H 0.5181 0.9202 0.4190
C87_3 C 0.50535(11) 0.90583(12) 0.35293(12)
H57_3 H 0.4776 0.8935 0.3582
C88_3 C 0.52201(14) 0.90832(14) 0.30894(12)
H58_3 H 0.5057 0.8974 0.2840
C89_3 C 0.56154(13) 0.92628(13) 0.30152(10)
H59_3 H 0.5726 0.9282 0.2713
C90_3 C 0.58616(10) 0.94193(10) 0.33792(9)
H60_3 H 0.6138 0.9545 0.3325
C35_4 C 0.20965(9) 0.51012(10) 0.00540(11)
H21_4 H 0.2175 0.4803 0.0056
C36_4 C 0.23751(12) 0.54098(14) 0.02334(14)
H22_4 H 0.2641 0.5320 0.0367
C37_4 C 0.22747(15) 0.58337(14) 0.02210(15)
H23_4 H 0.2474 0.6041 0.0337
C38_4 C 0.18831(13) 0.59689(11) 0.00406(14)
H24_4 H 0.1810 0.6268 0.0037
Cu2_4 Cu 0.073738(9) 0.621508(9) 0.805104(9)
N1_4 N 0.07862(5) 0.69639(5) 0.74915(5)
N2_4 N 0.05279(5) 0.67094(5) 0.77593(6)
N3_4 N 0.09987(5) 0.57643(6) 0.83726(6)
N4_4 N 0.14436(5) 0.57469(5) 0.83618(6)
C1_4 C 0.05739(6) 0.73378(6) 0.74107(6)
C2_4 C 0.01663(6) 0.73302(6) 0.76250(6)
C3_4 C 0.01557(6) 0.69256(6) 0.78458(6)
H5_4 H 0.0277 0.6731 0.8702
C10_3 C 0.07817(7) 0.76959(7) 0.71586(7)
C11_3 C 0.05483(9) 0.79466(8) 0.68471(8)
H6_3 H 0.0255 0.7877 0.6780
C12_3 C 0.07454(11) 0.82974(9) 0.66354(10)
H7_3 H 0.0585 0.8468 0.6424
C13_3 C 0.11703(11) 0.84014(10) 0.67282(11)
H8_3 H 0.1302 0.8642 0.6581
C14_3 C 0.14033(10) 0.81596(9) 0.70313(11)
H9_3 H 0.1697 0.8232 0.7094
C15_3 C 0.12105(8) 0.78072(8) 0.72485(8)
H10_3 H 0.1374 0.7641 0.7461
C16_4 C 0.08616(6) 0.54855(6) 0.86974(7)
C17_4 C 0.12193(7) 0.52811(7) 0.88954(7)
C18_4 C 0.15795(7) 0.54588(7) 0.86763(7)
C19_4 C 0.04005(7) 0.54161(7) 0.88087(8)
C20_4 C 0.00926(8) 0.53462(8) 0.84708(9)
H11_4 H 0.0172 0.5369 0.8159
C24_4 C 0.02701(8) 0.53906(8) 0.92625(8)
H15_4 H 0.0476 0.5444 0.9498
C25_4 C 0.20439(7) 0.53795(9) 0.87473(8)
C26_4 C 0.21975(9) 0.49537(12) 0.87922(11)
H16_4 H 0.2002 0.4716 0.8772
C27_4 C 0.26388(12) 0.48807(19) 0.88674(15)
H17_4 H 0.2745 0.4593 0.8900
C28_4 C 0.29206(11) 0.5229(2) 0.88945(17)
H18_4 H 0.3221 0.5180 0.8945
C29_4 C 0.27730(12) 0.5637(2) 0.88497(16)
H19_4 H 0.2970 0.5873 0.8869
C30_4 C 0.23320(9) 0.57185(13) 0.87754(12)
H20_4 H 0.2232 0.6008 0.8744
C31_4 C 0.14039(7) 0.49145(7) 0.96644(7)
C32_4 C 0.12038(6) 0.49341(6) 0.92383(7)
C33_4 C 0.09653(7) 0.45525(7) 0.92070(7)
C34_4 C 0.17024(7) 0.52291(8) 0.98712(8)
C39_4 C 0.16007(10) 0.56661(9) 0.98661(9)
H25_4 H 0.1332 0.5758 0.9740
C40_4 C 0.07022(8) 0.43907(7) 0.88196(7)
C41_4 C 0.02957(9) 0.42152(9) 0.88891(9)
H26_4 H 0.0181 0.4202 0.9190
C42_4 C 0.00535(11) 0.40583(12) 0.85293(12)
C43_4 C 0.02201(14) 0.40832(14) 0.80894(12)
H28_4 H 0.0057 0.3974 0.7840
C44_4 C 0.06154(13) 0.42628(13) 0.80152(10)
H29_4 H 0.0726 0.4282 0.7713
C45_4 C 0.08616(10) 0.44193(10) 0.83792(9)
H30_4 H 0.1138 0.4545 0.8325
C49_4 C 0.01507(6) 0.82781(6) 0.81693(7)
C50_4 C 0.05635(7) 0.84127(7) 0.80450(8)
H31_4 H 0.0670 0.8354 0.7747
C51_4 C 0.08195(7) 0.86327(8) 0.83555(9)
H32_4 H 0.1104 0.8721 0.8271
C52_4 C 0.06660(8) 0.87253(7) 0.87862(8)
H33_4 H 0.0841 0.8884 0.8994
C53_4 C 0.02597(7) 0.85888(8) 0.89151(7)
H34_4 H 0.0156 0.8649 0.9214
C54_4 C 0.00023(7) 0.83649(7) 0.86108(7)
C66_4 C 0.03315(8) 0.97570(9) 0.85880(11)
H42_4 H 0.0540 0.9807 0.8355
C67_4 C 0.04508(8) 0.97876(10) 0.90394(12)
H43_4 H 0.0740 0.9862 0.9117
C68_4 C 0.01514(9) 0.97103(9) 0.93775(10)
H44_4 H 0.0235 0.9726 0.9689
H51_4 H 0.7825 0.0197 0.0056
C4_4 C 0.98493(6) 0.67219(6) 0.81693(7)
C5_4 C 0.94365(7) 0.65873(7) 0.80450(8)
H1_4 H 0.9330 0.6646 0.7747
C6_4 C 0.91805(7) 0.63673(8) 0.83555(9)
H2_4 H 0.8896 0.6279 0.8271
C7_4 C 0.93340(8) 0.62747(7) 0.87862(8)
H3_4 H 0.9159 0.6116 0.8994
C8_4 C 0.97403(7) 0.64112(8) 0.89151(7)
H4_4 H 0.9844 0.6351 0.9214
C9_4 C 0.99977(7) 0.66351(7) 0.86108(7)
C21_4 C 0.96685(8) 0.52430(9) 0.85880(11)
H12_4 H 0.9460 0.5193 0.8355
C22_4 C 0.95492(8) 0.52124(10) 0.90394(12)
H13_4 H 0.9260 0.5138 0.9117
C23_4 C 0.98486(9) 0.52897(9) 0.93775(10)
H14_4 H 0.9765 0.5274 0.9689
H27_4 H 0.9776 0.3935 0.8582
N7_3 N 0.92138(5) 0.80361(5) 0.74915(5)
N8_4 N 0.94721(5) 0.82906(5) 0.77593(6)
C46_3 C 0.94261(6) 0.76622(6) 0.74107(6)
C47_4 C 0.98337(6) 0.76698(6) 0.76250(6)
C48_4 C 0.98443(6) 0.80744(6) 0.78458(6)
H35_4 H 0.9723 0.8269 0.8702
C55_4 C 0.92183(7) 0.73041(7) 0.71586(7)
C56_4 C 0.94517(9) 0.70534(8) 0.68471(8)
H36_4 H 0.9745 0.7123 0.6780
C57_4 C 0.92546(11) 0.67026(9) 0.66354(10)
H37_4 H 0.9415 0.6532 0.6424
C58_4 C 0.88297(11) 0.65986(10) 0.67282(11)
H38_4 H 0.8698 0.6358 0.6581
C59_4 C 0.85967(10) 0.68404(9) 0.70313(11)
H39_4 H 0.8303 0.6768 0.7094
C60_4 C 0.87895(8) 0.71928(8) 0.72485(8)
H40_4 H 0.8626 0.7359 0.7461
Cu5_4 Cu 0.926262(9) 0.878492(9) 0.805104(9)
N9_4 N 0.90013(5) 0.92357(6) 0.83726(6)
N10_4 N 0.85564(5) 0.92531(5) 0.83618(6)
C61_4 C 0.91384(6) 0.95145(6) 0.86974(7)
C62_4 C 0.87807(7) 0.97189(7) 0.88954(7)
C63_4 C 0.84205(7) 0.95412(7) 0.86763(7)
C64_4 C 0.95995(7) 0.95839(7) 0.88087(8)
C65_4 C 0.99074(8) 0.96538(8) 0.84708(9)
H41_4 H 0.9828 0.9631 0.8159
C69_4 C 0.97299(8) 0.96094(8) 0.92625(8)
H45_4 H 0.9524 0.9556 0.9498
C70_4 C 0.79561(7) 0.96205(9) 0.87473(8)
C73_2 C 0.70794(11) 0.9771(2) 0.88945(17)
H48_2 H 0.6779 0.9820 0.8945
C74_2 C 0.72270(12) 0.9363(2) 0.88497(16)
H49_2 H 0.7030 0.9127 0.8869
C75_4 C 0.76680(9) 0.92815(13) 0.87754(12)
H50_4 H 0.7768 0.8992 0.8744
C79_4 C 0.82976(7) 0.97709(8) 0.98712(8)
C84_4 C 0.83993(10) 0.93339(9) 0.98661(9)
H55_4 H 0.8668 0.9242 0.9740
C10_4 C 0.98041(7) 0.32817(7) 0.96586(7)
C11_4 C 0.95534(8) 0.30483(9) 0.93471(8)
H6_4 H 0.9623 0.2755 0.9280
C12_4 C 0.92026(9) 0.32454(11) 0.91354(10)
H7_4 H 0.9032 0.3085 0.8924
C13_4 C 0.90986(10) 0.36703(11) 0.92282(11)
H8_4 H 0.8858 0.3802 0.9081
C14_4 C 0.93404(9) 0.39033(10) 0.95313(11)
H9_4 H 0.9268 0.4197 0.9594
C15_4 C 0.96928(8) 0.37105(8) 0.97485(8)
H10_4 H 0.9859 0.3874 0.9961
N7_4 N 0.94639(5) 0.17138(5) 0.99915(5)
C46_4 C 0.98378(6) 0.19261(6) 0.99107(6)
Cu4_2 Cu 0.923448(9) 0.119566(9) 0.978535(10)
N14_2 N 0.87112(6) 0.04573(6) 0.98756(6)
N16_2 N 0.89853(6) 0.06792(6) 0.95923(6)
C71_4 C 0.78025(9) 0.00463(12) 0.87922(11)
H46_4 H 0.7998 0.0284 0.8772
C72_2 C 0.73612(12) 0.01193(19) 0.88674(15)
H47_2 H 0.7255 0.0407 0.8900
C76_4 C 0.85961(7) 0.00855(7) 0.96644(7)
C77_4 C 0.87962(6) 0.00659(6) 0.92383(7)
C78_4 C 0.90347(7) 0.04475(7) 0.92070(7)
C85_4 C 0.92978(8) 0.06093(7) 0.88196(7)
C86_4 C 0.97043(9) 0.07848(9) 0.88891(9)
H56_4 H 0.9819 0.0798 0.9190
C87_4 C 0.99465(11) 0.09417(12) 0.85293(12)
C88_4 C 0.97799(14) 0.09168(14) 0.80894(12)
H58_4 H 0.9943 0.1026 0.7840
C89_4 C 0.93846(13) 0.07372(13) 0.80152(10)
H59_4 H 0.9274 0.0718 0.7713
C90_4 C 0.91384(10) 0.05807(10) 0.83792(9)
H60_4 H 0.8862 0.0455 0.8325
C72_3 C 0.73807(19) 0.98612(12) 0.13674(15)
H47_3 H 0.7093 0.9755 0.1400
C73_3 C 0.7729(2) 0.95794(11) 0.13945(17)
H48_3 H 0.7680 0.9279 0.1445
C74_3 C 0.8137(2) 0.97270(12) 0.13497(16)
H49_3 H 0.8373 0.9530 0.1369
H52_2 H 0.7820 0.9859 0.2867
C72_4 C 0.76193(19) 0.01388(12) 0.63674(15)
H47_4 H 0.7907 0.0245 0.6400
C73_4 C 0.7271(2) 0.04206(11) 0.63945(17)
H48_4 H 0.7320 0.0721 0.6445
C74_4 C 0.6863(2) 0.02730(12) 0.63497(16)
H49_4 H 0.6627 0.0470 0.6369
H52_3 H 0.7180 0.0141 0.7867
H57_4 H 0.0224 0.1065 0.8582
C80_4 C 0.79035(9) 0.98988(10) 0.00540(11)
C81_4 C 0.76249(12) 0.95902(14) 0.02334(14)
H52_4 H 0.7359 0.9680 0.0367
C82_4 C 0.77253(15) 0.91663(14) 0.02210(15)
H53_4 H 0.7526 0.8959 0.0337
C83_4 C 0.81169(13) 0.90311(11) 0.00406(14)
H54_4 H 0.8190 0.8732 0.0037
C72_5 C 0.26193(19) 0.01388(12) 0.86326(15)
H47_5 H 0.2907 0.0245 0.8600
C73_5 C 0.2271(2) 0.04206(11) 0.86055(17)
H48_5 H 0.2320 0.0721 0.8555
C74_5 C 0.1863(2) 0.02730(12) 0.86503(16)
H49_5 H 0.1627 0.0470 0.8631
H52_5 H 0.2180 0.0141 0.7133
C10_5 C 0.01959(7) 0.67183(7) 0.03414(7)
C11_5 C 0.04466(8) 0.69517(9) 0.06529(8)
H6_5 H 0.0377 0.7245 0.0720
C12_5 C 0.07974(9) 0.67546(11) 0.08646(10)
H7_5 H 0.0968 0.6915 0.1076
C13_5 C 0.09014(10) 0.63297(11) 0.07718(11)
H8_5 H 0.1142 0.6198 0.0919
C14_5 C 0.06596(9) 0.60967(10) 0.04687(11)
H9_5 H 0.0732 0.5803 0.0406
C15_5 C 0.03072(8) 0.62895(8) 0.02515(8)
H10_5 H 0.0141 0.6126 0.0039
N7_5 N 0.05361(5) 0.82862(5) 0.00085(5)
C46_5 C 0.01622(6) 0.80739(6) 0.00893(6)
Cu4_3 Cu 0.076552(9) 0.880434(9) 0.021465(10)
N14_3 N 0.12888(6) 0.95427(6) 0.01244(6)
N16_3 N 0.10147(6) 0.93208(6) 0.04077(6)
C71_5 C 0.21975(9) 0.99537(12) 0.12078(11)
H46_5 H 0.2002 0.9716 0.1228
C72_6 C 0.26388(12) 0.98807(19) 0.11326(15)
H47_6 H 0.2745 0.9593 0.1100
C76_5 C 0.14039(7) 0.99145(7) 0.03356(7)
C77_5 C 0.12038(6) 0.99341(6) 0.07617(7)
C78_5 C 0.09653(7) 0.95525(7) 0.07930(7)
C85_5 C 0.07022(8) 0.93907(7) 0.11804(7)
C86_5 C 0.02957(9) 0.92152(9) 0.11109(9)
H56_5 H 0.0181 0.9202 0.0810
C87_5 C 0.00535(11) 0.90583(12) 0.14707(12)
C88_5 C 0.02201(14) 0.90832(14) 0.19106(12)
H58_5 H 0.0057 0.8974 0.2160
C89_5 C 0.06154(13) 0.92628(13) 0.19848(10)
H59_5 H 0.0726 0.9282 0.2287
C90_5 C 0.08616(10) 0.94193(10) 0.16208(9)
H60_5 H 0.1138 0.9545 0.1675
N8_5 N 0.07906(5) 0.80279(5) 0.97407(6)
C47_5 C 0.01698(6) 0.76663(6) 0.98750(6)
C48_5 C 0.05744(6) 0.76557(6) 0.96542(6)
C49_5 C 0.07781(6) 0.73493(6) 0.93307(7)
C50_5 C 0.09127(7) 0.69365(7) 0.94550(8)
H31_5 H 0.0854 0.6830 0.9753
C51_5 C 0.11327(8) 0.66805(7) 0.91445(9)
H32_5 H 0.1221 0.6396 0.9229
C52_5 C 0.12253(7) 0.68340(8) 0.87138(8)
H33_5 H 0.1384 0.6659 0.8506
C53_5 C 0.10888(8) 0.72403(7) 0.85849(7)
H34_5 H 0.1149 0.7344 0.8286
C54_5 C 0.08649(7) 0.74977(7) 0.88892(7)
H35_5 H 0.0769 0.7777 0.8798
Cu5_5 Cu 0.128492(9) 0.823738(9) 0.944896(9)
Cu6_3 Cu 0.149946(9) 0.925672(10) 0.961172(10)
N9_5 N 0.17357(6) 0.84987(5) 0.91274(6)
N10_5 N 0.17531(5) 0.89436(5) 0.91382(6)
N11_3 N 0.29573(6) 0.87888(6) 0.76244(6)
N12_3 N 0.31792(6) 0.85147(6) 0.79077(6)
C61_5 C 0.20145(6) 0.83616(6) 0.88026(7)
C62_5 C 0.22189(7) 0.87193(7) 0.86046(7)
C63_5 C 0.20412(7) 0.90795(7) 0.88237(7)
C64_5 C 0.20839(7) 0.79005(7) 0.86913(8)
C65_5 C 0.21538(8) 0.75926(8) 0.90292(9)
H41_5 H 0.2131 0.7672 0.9341
C66_5 C 0.22570(9) 0.71685(8) 0.89120(11)
H42_5 H 0.2307 0.6960 0.9145
C67_5 C 0.22876(10) 0.70492(8) 0.84606(12)
H43_5 H 0.2362 0.6760 0.8383
C68_5 C 0.22103(9) 0.73486(9) 0.81225(10)
H44_5 H 0.2226 0.7265 0.7811
C69_5 C 0.21094(8) 0.77701(8) 0.82375(8)
H45_5 H 0.2056 0.7976 0.8002
C70_5 C 0.21205(9) 0.95439(7) 0.87527(8)
C71_6 C 0.25463(12) 0.96975(9) 0.87078(11)
H46_6 H 0.2784 0.9502 0.8728
C75_5 C 0.17815(13) 0.98320(9) 0.87246(12)
H50_5 H 0.1492 0.9732 0.8756
C76_6 C 0.25855(7) 0.89039(7) 0.78356(7)
C77_6 C 0.25659(6) 0.87038(6) 0.82617(7)
C78_6 C 0.29475(7) 0.84653(7) 0.82930(7)
C79_5 C 0.22709(8) 0.92024(7) 0.76288(8)
C80_5 C 0.23988(10) 0.95965(9) 0.74460(11)
H51_5 H 0.2697 0.9675 0.7444
C81_5 C 0.20902(14) 0.98751(12) 0.72666(14)
C82_5 C 0.16663(14) 0.97747(15) 0.72790(15)
H53_5 H 0.1459 0.9974 0.7163
C83_5 C 0.15311(11) 0.93831(13) 0.74594(14)
H54_5 H 0.1232 0.9310 0.7463
C84_5 C 0.18339(9) 0.91007(10) 0.76339(9)
H55_5 H 0.1742 0.8832 0.7760
C85_6 C 0.31093(7) 0.82022(8) 0.86804(7)
C86_6 C 0.32848(9) 0.77957(9) 0.86109(9)
H56_6 H 0.3298 0.7681 0.8310
C87_6 C 0.34417(12) 0.75535(11) 0.89707(12)
H57_5 H 0.3565 0.7276 0.8918
C88_6 C 0.34168(14) 0.77201(14) 0.94106(12)
H58_6 H 0.3526 0.7557 0.9660
C89_6 C 0.32372(13) 0.81154(13) 0.94848(10)
H59_6 H 0.3218 0.8226 0.9787
C90_6 C 0.30807(10) 0.83616(10) 0.91208(9)
H60_6 H 0.2955 0.8638 0.9175
Cu8_3 Cu 0.369566(9) 0.826552(9) 0.771465(10)
Cu10_3 Cu 0.324328(10) 0.899946(9) 0.711172(10)
Cu1_3 Cu 0.923448(9) 0.619566(9) 0.021465(10)
N1_5 N 0.94639(5) 0.67138(5) 0.00085(5)
C1_5 C 0.98378(6) 0.69261(6) 0.00893(6)
C55_5 C 0.98041(7) 0.82817(7) 0.03414(7)
C56_5 C 0.95534(8) 0.80483(9) 0.06529(8)
H36_5 H 0.9623 0.7755 0.0720
C57_5 C 0.92026(9) 0.82454(11) 0.08646(10)
H37_5 H 0.9032 0.8085 0.1076
C58_5 C 0.90986(10) 0.86703(11) 0.07718(11)
H38_5 H 0.8858 0.8802 0.0919
C59_5 C 0.93404(9) 0.89033(10) 0.04687(11)
H39_5 H 0.9268 0.9197 0.0406
C60_5 C 0.96928(8) 0.87105(8) 0.02515(8)
H40_5 H 0.9859 0.8874 0.0039
N13_3 N 0.87112(6) 0.54573(6) 0.01244(6)
N15_3 N 0.89853(6) 0.56792(6) 0.04077(6)
Cu2_5 Cu 0.871508(9) 0.676262(9) 0.944896(9)
Cu3_3 Cu 0.850054(9) 0.574328(10) 0.961172(10)
N2_5 N 0.92094(5) 0.69721(5) 0.97407(6)
N3_5 N 0.82643(6) 0.65013(5) 0.91274(6)
N4_5 N 0.82469(5) 0.60564(5) 0.91382(6)
N5_3 N 0.70427(6) 0.62112(6) 0.76244(6)
N6_3 N 0.68208(6) 0.64853(6) 0.79077(6)
C2_5 C 0.98302(6) 0.73337(6) 0.98750(6)
C3_5 C 0.94256(6) 0.73443(6) 0.96542(6)
C4_5 C 0.92219(6) 0.76507(6) 0.93307(7)
C5_5 C 0.90873(7) 0.80635(7) 0.94550(8)
H1_5 H 0.9146 0.8170 0.9753
C6_5 C 0.88673(8) 0.83195(7) 0.91445(9)
H2_5 H 0.8779 0.8604 0.9229
C7_5 C 0.87747(7) 0.81660(8) 0.87138(8)
H3_5 H 0.8616 0.8341 0.8506
C8_5 C 0.89112(8) 0.77597(7) 0.85849(7)
H4_5 H 0.8851 0.7656 0.8286
C9_5 C 0.91351(7) 0.75023(7) 0.88892(7)
H5_5 H 0.9231 0.7223 0.8798
C16_5 C 0.79855(6) 0.66384(6) 0.88026(7)
C17_5 C 0.77811(7) 0.62807(7) 0.86046(7)
C18_5 C 0.79588(7) 0.59205(7) 0.88237(7)
C19_5 C 0.79161(7) 0.70995(7) 0.86913(8)
C20_5 C 0.78462(8) 0.74074(8) 0.90292(9)
H11_5 H 0.7869 0.7328 0.9341
C21_5 C 0.77430(9) 0.78315(8) 0.89120(11)
H12_5 H 0.7693 0.8040 0.9145
C22_5 C 0.77124(10) 0.79508(8) 0.84606(12)
H13_5 H 0.7638 0.8240 0.8383
C23_5 C 0.77897(9) 0.76514(9) 0.81225(10)
H14_5 H 0.7774 0.7735 0.7811
C24_5 C 0.78906(8) 0.72299(8) 0.82375(8)
H15_5 H 0.7944 0.7024 0.8002
C25_5 C 0.78795(9) 0.54561(7) 0.87527(8)
C26_5 C 0.74537(12) 0.53025(9) 0.87078(11)
H16_5 H 0.7216 0.5498 0.8728
C27_5 C 0.73807(19) 0.48612(12) 0.86326(15)
H17_5 H 0.7093 0.4755 0.8600
C28_5 C 0.7729(2) 0.45794(11) 0.86055(17)
H18_5 H 0.7680 0.4279 0.8555
C29_5 C 0.8137(2) 0.47270(12) 0.86503(16)
H19_5 H 0.8373 0.4530 0.8631
C30_5 C 0.82185(13) 0.51680(9) 0.87246(12)
H20_5 H 0.8508 0.5268 0.8756
C31_5 C 0.74145(7) 0.60961(7) 0.78356(7)
C32_5 C 0.74341(6) 0.62962(6) 0.82617(7)
C33_5 C 0.70525(7) 0.65347(7) 0.82930(7)
C34_5 C 0.77291(8) 0.57976(7) 0.76288(8)
C35_5 C 0.76012(10) 0.54035(9) 0.74460(11)
H21_5 H 0.7303 0.5325 0.7444
C36_5 C 0.79098(14) 0.51249(12) 0.72666(14)
H22_5 H 0.7820 0.4859 0.7133
C37_5 C 0.83337(14) 0.52253(15) 0.72790(15)
H23_5 H 0.8541 0.5026 0.7163
C38_5 C 0.84689(11) 0.56169(13) 0.74594(14)
H24_5 H 0.8768 0.5690 0.7463
C39_5 C 0.81661(9) 0.58993(10) 0.76339(9)
H25_5 H 0.8258 0.6168 0.7760
C40_5 C 0.68907(7) 0.67978(8) 0.86804(7)
C41_5 C 0.67152(9) 0.72043(9) 0.86109(9)
H26_5 H 0.6702 0.7319 0.8310
C42_5 C 0.65583(12) 0.74465(11) 0.89707(12)
H27_5 H 0.6435 0.7724 0.8918
C43_5 C 0.65832(14) 0.72799(14) 0.94106(12)
H28_5 H 0.6474 0.7443 0.9660
C44_5 C 0.67628(13) 0.68846(13) 0.94848(10)
H29_5 H 0.6782 0.6774 0.9787
C45_5 C 0.69193(10) 0.66384(10) 0.91208(9)
H30_5 H 0.7045 0.6362 0.9175
Cu7_3 Cu 0.630434(9) 0.673448(9) 0.771465(10)
Cu9_3 Cu 0.675672(10) 0.600054(9) 0.711172(10)
Cu1_4 Cu 0.576552(9) 0.380434(9) 0.521465(10)
Cu2_6 Cu 0.628492(9) 0.323738(9) 0.444896(9)
Cu3_4 Cu 0.649946(9) 0.425672(10) 0.461172(10)
N1_6 N 0.55361(5) 0.32862(5) 0.50085(5)
N2_6 N 0.57906(5) 0.30279(5) 0.47407(6)
N3_6 N 0.67357(6) 0.34987(5) 0.41274(6)
N4_6 N 0.67531(5) 0.39436(5) 0.41382(6)
N5_4 N 0.79573(6) 0.37888(6) 0.26244(6)
N6_4 N 0.81792(6) 0.35147(6) 0.29077(6)
C1_6 C 0.51622(6) 0.30739(6) 0.50893(6)
C2_6 C 0.51698(6) 0.26663(6) 0.48750(6)
C3_6 C 0.55744(6) 0.26557(6) 0.46542(6)
C4_6 C 0.57781(6) 0.23493(6) 0.43307(7)
C5_6 C 0.59127(7) 0.19365(7) 0.44550(8)
H1_6 H 0.5854 0.1830 0.4753
C6_6 C 0.61327(8) 0.16805(7) 0.41445(9)
H2_6 H 0.6221 0.1396 0.4229
C7_6 C 0.62253(7) 0.18340(8) 0.37138(8)
H3_6 H 0.6384 0.1659 0.3506
C8_6 C 0.60888(8) 0.22403(7) 0.35849(7)
H4_6 H 0.6149 0.2344 0.3286
C9_6 C 0.58649(7) 0.24977(7) 0.38892(7)
H5_6 H 0.5769 0.2777 0.3798
C10_6 C 0.48041(7) 0.32817(7) 0.53414(7)
C11_6 C 0.45534(8) 0.30483(9) 0.56529(8)
H6_6 H 0.4623 0.2755 0.5720
C12_6 C 0.42026(9) 0.32454(11) 0.58646(10)
H7_6 H 0.4032 0.3085 0.6076
C13_6 C 0.40986(10) 0.36703(11) 0.57718(11)
H8_6 H 0.3858 0.3802 0.5919
C14_6 C 0.43404(9) 0.39033(10) 0.54687(11)
H9_6 H 0.4268 0.4197 0.5406
C15_6 C 0.46928(8) 0.37105(8) 0.52515(8)
H10_6 H 0.4859 0.3874 0.5039
C16_6 C 0.70145(6) 0.33616(6) 0.38026(7)
C17_6 C 0.72189(7) 0.37193(7) 0.36046(7)
C18_6 C 0.70412(7) 0.40795(7) 0.38237(7)
C19_6 C 0.70839(7) 0.29005(7) 0.36913(8)
C20_6 C 0.71538(8) 0.25926(8) 0.40292(9)
H11_6 H 0.7131 0.2672 0.4341
C21_6 C 0.72570(9) 0.21685(8) 0.39120(11)
H12_6 H 0.7307 0.1960 0.4145
C22_6 C 0.72876(10) 0.20492(8) 0.34606(12)
H13_6 H 0.7362 0.1760 0.3383
C23_6 C 0.72103(9) 0.23486(9) 0.31225(10)
H14_6 H 0.7226 0.2265 0.2811
C24_6 C 0.71094(8) 0.27701(8) 0.32375(8)
H15_6 H 0.7056 0.2976 0.3002
C25_6 C 0.71205(9) 0.45439(7) 0.37527(8)
C26_6 C 0.75463(12) 0.46975(9) 0.37078(11)
H16_6 H 0.7784 0.4502 0.3728
C27_6 C 0.76193(19) 0.51388(12) 0.36326(15)
H17_6 H 0.7907 0.5245 0.3600
C28_6 C 0.7271(2) 0.54206(11) 0.36055(17)
H18_6 H 0.7320 0.5721 0.3555
C29_6 C 0.6863(2) 0.52730(12) 0.36503(16)
H19_6 H 0.6627 0.5470 0.3631
C30_6 C 0.67815(13) 0.48320(9) 0.37246(12)
H20_6 H 0.6492 0.4732 0.3756
C31_6 C 0.75855(7) 0.39039(7) 0.28356(7)
C32_6 C 0.75659(6) 0.37038(6) 0.32617(7)
C33_6 C 0.79475(7) 0.34653(7) 0.32930(7)
C34_6 C 0.72709(8) 0.42024(7) 0.26288(8)
C35_6 C 0.73988(10) 0.45965(9) 0.24460(11)
H21_6 H 0.7697 0.4675 0.2444
C36_6 C 0.70902(14) 0.48751(12) 0.22666(14)
H22_6 H 0.7180 0.5141 0.2133
C37_6 C 0.66663(14) 0.47747(15) 0.22790(15)
H23_6 H 0.6459 0.4974 0.2163
C38_6 C 0.65311(11) 0.43831(13) 0.24594(14)
H24_6 H 0.6232 0.4310 0.2463
C39_6 C 0.68339(9) 0.41007(10) 0.26339(9)
H25_6 H 0.6742 0.3832 0.2760
C40_6 C 0.81093(7) 0.32022(8) 0.36804(7)
C41_6 C 0.82848(9) 0.27957(9) 0.36109(9)
H26_6 H 0.8298 0.2681 0.3310
C42_6 C 0.84417(12) 0.25535(11) 0.39707(12)
H27_6 H 0.8565 0.2276 0.3918
C43_6 C 0.84168(14) 0.27201(14) 0.44106(12)
H28_6 H 0.8526 0.2557 0.4660
C44_6 C 0.82372(13) 0.31154(13) 0.44848(10)
H29_6 H 0.8218 0.3226 0.4787
C45_6 C 0.80807(10) 0.33616(10) 0.41208(9)
H30_6 H 0.7955 0.3638 0.4175
N7_6 N 0.44639(5) 0.17138(5) 0.50085(5)
N8_6 N 0.42094(5) 0.19721(5) 0.47407(6)
C46_6 C 0.48378(6) 0.19261(6) 0.50893(6)
C47_6 C 0.48302(6) 0.23337(6) 0.48750(6)
C48_6 C 0.44256(6) 0.23443(6) 0.46542(6)
C49_6 C 0.42219(6) 0.26507(6) 0.43307(7)
C50_6 C 0.40873(7) 0.30635(7) 0.44550(8)
H31_6 H 0.4146 0.3170 0.4753
C51_6 C 0.38673(8) 0.33195(7) 0.41445(9)
H32_6 H 0.3779 0.3604 0.4229
C52_6 C 0.37747(7) 0.31660(8) 0.37138(8)
H33_6 H 0.3616 0.3341 0.3506
C53_6 C 0.39112(8) 0.27597(7) 0.35849(7)
H34_6 H 0.3851 0.2656 0.3286
C54_6 C 0.41351(7) 0.25023(7) 0.38892(7)
H35_6 H 0.4231 0.2223 0.3798
C55_6 C 0.51959(7) 0.17183(7) 0.53414(7)
C56_6 C 0.54466(8) 0.19517(9) 0.56529(8)
H36_6 H 0.5377 0.2245 0.5720
C57_6 C 0.57974(9) 0.17546(11) 0.58646(10)
H37_6 H 0.5968 0.1915 0.6076
C58_6 C 0.59014(10) 0.13297(11) 0.57718(11)
H38_6 H 0.6142 0.1198 0.5919
C59_6 C 0.56596(9) 0.10967(10) 0.54687(11)
H39_6 H 0.5732 0.0803 0.5406
C60_6 C 0.53072(8) 0.12895(8) 0.52515(8)
H40_6 H 0.5141 0.1126 0.5039
Cu4_4 Cu 0.423448(9) 0.119566(9) 0.521465(10)
Cu5_6 Cu 0.371508(9) 0.176262(9) 0.444896(9)
Cu6_4 Cu 0.350054(9) 0.074328(10) 0.461172(10)
N9_6 N 0.32643(6) 0.15013(5) 0.41274(6)
N10_6 N 0.32469(5) 0.10564(5) 0.41382(6)
N11_4 N 0.20427(6) 0.12112(6) 0.26244(6)
N12_4 N 0.18208(6) 0.14853(6) 0.29077(6)
C61_6 C 0.29855(6) 0.16384(6) 0.38026(7)
C62_6 C 0.27811(7) 0.12807(7) 0.36046(7)
C63_6 C 0.29588(7) 0.09205(7) 0.38237(7)
C64_6 C 0.29161(7) 0.20995(7) 0.36913(8)
C65_6 C 0.28462(8) 0.24074(8) 0.40292(9)
H41_6 H 0.2869 0.2328 0.4341
C66_6 C 0.27430(9) 0.28315(8) 0.39120(11)
H42_6 H 0.2693 0.3040 0.4145
C67_6 C 0.27124(10) 0.29508(8) 0.34606(12)
H43_6 H 0.2638 0.3240 0.3383
C68_6 C 0.27897(9) 0.26514(9) 0.31225(10)
H44_6 H 0.2774 0.2735 0.2811
C69_6 C 0.28906(8) 0.22299(8) 0.32375(8)
H45_6 H 0.2944 0.2024 0.3002
C70_6 C 0.28795(9) 0.04561(7) 0.37527(8)
C71_7 C 0.24537(12) 0.03025(9) 0.37078(11)
H46_7 H 0.2216 0.0498 0.3728
C75_6 C 0.32185(13) 0.01680(9) 0.37246(12)
H50_6 H 0.3508 0.0268 0.3756
C76_7 C 0.24145(7) 0.10961(7) 0.28356(7)
C77_7 C 0.24341(6) 0.12962(6) 0.32617(7)
C78_7 C 0.20525(7) 0.15347(7) 0.32930(7)
C79_6 C 0.27291(8) 0.07976(7) 0.26288(8)
C80_6 C 0.26012(10) 0.04035(9) 0.24460(11)
H51_6 H 0.2303 0.0325 0.2444
C81_6 C 0.29098(14) 0.01249(12) 0.22666(14)
C82_6 C 0.33337(14) 0.02253(15) 0.22790(15)
H53_6 H 0.3541 0.0026 0.2163
C83_6 C 0.34689(11) 0.06169(13) 0.24594(14)
H54_6 H 0.3768 0.0690 0.2463
C84_6 C 0.31661(9) 0.08993(10) 0.26339(9)
H55_6 H 0.3258 0.1168 0.2760
C85_7 C 0.18907(7) 0.17978(8) 0.36804(7)
C86_7 C 0.17152(9) 0.22043(9) 0.36109(9)
H56_7 H 0.1702 0.2319 0.3310
C87_7 C 0.15583(12) 0.24465(11) 0.39707(12)
H57_6 H 0.1435 0.2724 0.3918
C88_7 C 0.15832(14) 0.22799(14) 0.44106(12)
H58_7 H 0.1474 0.2443 0.4660
C89_7 C 0.17628(13) 0.18846(13) 0.44848(10)
H59_7 H 0.1782 0.1774 0.4787
C90_7 C 0.19193(10) 0.16384(10) 0.41208(9)
H60_7 H 0.2045 0.1362 0.4175
Cu7_4 Cu 0.869566(9) 0.326552(9) 0.271465(10)
Cu8_4 Cu 0.130434(9) 0.173448(9) 0.271465(10)
Cu9_4 Cu 0.824328(10) 0.399946(9) 0.211172(10)
Cu10_4 Cu 0.175672(10) 0.100054(9) 0.211172(10)
N13_4 N 0.62888(6) 0.45427(6) 0.51244(6)
N14_4 N 0.37112(6) 0.04573(6) 0.51244(6)
N15_4 N 0.60147(6) 0.43208(6) 0.54077(6)
N16_4 N 0.39853(6) 0.06792(6) 0.54077(6)
C71_8 C 0.28025(9) 0.00463(12) 0.62078(11)
H46_8 H 0.2998 0.0284 0.6228
C72_7 C 0.23612(12) 0.01193(19) 0.61326(15)
H47_7 H 0.2255 0.0407 0.6100
C76_8 C 0.35961(7) 0.00855(7) 0.53356(7)
C77_8 C 0.37962(6) 0.00659(6) 0.57617(7)
C78_8 C 0.40347(7) 0.04475(7) 0.57930(7)
H51_7 H 0.2825 0.0197 0.4944
C85_8 C 0.42978(8) 0.06093(7) 0.61804(7)
C86_8 C 0.47043(9) 0.07848(9) 0.61109(9)
H56_8 H 0.4819 0.0798 0.5810
C87_8 C 0.49465(11) 0.09417(12) 0.64707(12)
H57_7 H 0.5224 0.1065 0.6418
C88_8 C 0.47799(14) 0.09168(14) 0.69106(12)
H58_8 H 0.4943 0.1026 0.7160
C89_8 C 0.43846(13) 0.07372(13) 0.69848(10)
H59_8 H 0.4274 0.0718 0.7287
C90_8 C 0.41384(10) 0.05807(10) 0.66208(9)
H60_8 H 0.3862 0.0455 0.6675
Cu2_7 Cu 0.573738(9) 0.621508(9) 0.694896(9)
N1_7 N 0.57862(5) 0.69639(5) 0.75085(5)
N2_7 N 0.55279(5) 0.67094(5) 0.72407(6)
N3_7 N 0.59987(5) 0.57643(6) 0.66274(6)
N4_7 N 0.64436(5) 0.57469(5) 0.66382(6)
C1_7 C 0.55739(6) 0.73378(6) 0.75893(6)
C2_7 C 0.51663(6) 0.73302(6) 0.73750(6)
C3_7 C 0.51557(6) 0.69256(6) 0.71542(6)
C4_7 C 0.48493(6) 0.67219(6) 0.68307(7)
C5_7 C 0.44365(7) 0.65873(7) 0.69550(8)
H1_7 H 0.4330 0.6646 0.7253
C6_7 C 0.41805(7) 0.63673(8) 0.66445(9)
H2_7 H 0.3896 0.6279 0.6729
C7_7 C 0.43340(8) 0.62747(7) 0.62138(8)
H3_7 H 0.4159 0.6116 0.6006
C8_7 C 0.47403(7) 0.64112(8) 0.60849(7)
H4_7 H 0.4844 0.6351 0.5786
C9_7 C 0.49977(7) 0.66351(7) 0.63892(7)
H5_7 H 0.5277 0.6731 0.6298
C10_7 C 0.57817(7) 0.76959(7) 0.78414(7)
C11_7 C 0.55483(9) 0.79466(8) 0.81529(8)
H6_7 H 0.5255 0.7877 0.8220
C12_7 C 0.57454(11) 0.82974(9) 0.83646(10)
H7_7 H 0.5585 0.8468 0.8576
C13_7 C 0.61703(11) 0.84014(10) 0.82718(11)
H8_7 H 0.6302 0.8642 0.8419
C14_7 C 0.64033(10) 0.81596(9) 0.79687(11)
H9_7 H 0.6697 0.8232 0.7906
C15_7 C 0.62105(8) 0.78072(8) 0.77515(8)
H10_7 H 0.6374 0.7641 0.7539
C16_7 C 0.58616(6) 0.54855(6) 0.63026(7)
C17_7 C 0.62193(7) 0.52811(7) 0.61046(7)
C18_7 C 0.65795(7) 0.54588(7) 0.63237(7)
C19_7 C 0.54005(7) 0.54161(7) 0.61913(8)
C20_7 C 0.50926(8) 0.53462(8) 0.65292(9)
H11_7 H 0.5172 0.5369 0.6841
C21_7 C 0.46685(8) 0.52430(9) 0.64120(11)
H12_7 H 0.4460 0.5193 0.6645
C22_7 C 0.45492(8) 0.52124(10) 0.59606(12)
H13_7 H 0.4260 0.5138 0.5883
C23_7 C 0.48486(9) 0.52897(9) 0.56225(10)
H14_7 H 0.4765 0.5274 0.5311
C24_7 C 0.52701(8) 0.53906(8) 0.57375(8)
H15_7 H 0.5476 0.5444 0.5502
C25_7 C 0.70439(7) 0.53795(9) 0.62527(8)
C26_7 C 0.71975(9) 0.49537(12) 0.62078(11)
H16_7 H 0.7002 0.4716 0.6228
C27_7 C 0.76388(12) 0.48807(19) 0.61326(15)
H17_7 H 0.7745 0.4593 0.6100
C28_7 C 0.79206(11) 0.5229(2) 0.61055(17)
H18_7 H 0.8221 0.5180 0.6055
C29_7 C 0.77730(12) 0.5637(2) 0.61503(16)
H19_7 H 0.7970 0.5873 0.6131
C30_7 C 0.73320(9) 0.57185(13) 0.62246(12)
H20_7 H 0.7232 0.6008 0.6256
C31_7 C 0.64039(7) 0.49145(7) 0.53356(7)
C32_7 C 0.62038(6) 0.49341(6) 0.57617(7)
C33_7 C 0.59653(7) 0.45525(7) 0.57930(7)
C34_7 C 0.67024(7) 0.52291(8) 0.51288(8)
C35_7 C 0.70965(9) 0.51012(10) 0.49460(11)
H21_7 H 0.7175 0.4803 0.4944
C36_7 C 0.73751(12) 0.54098(14) 0.47666(14)
H22_7 H 0.7641 0.5320 0.4633
C37_7 C 0.72747(15) 0.58337(14) 0.47790(15)
H23_7 H 0.7474 0.6041 0.4663
C38_7 C 0.68831(13) 0.59689(11) 0.49594(14)
H24_7 H 0.6810 0.6268 0.4963
C39_7 C 0.66007(10) 0.56661(9) 0.51339(9)
H25_7 H 0.6332 0.5758 0.5260
C40_7 C 0.57022(8) 0.43907(7) 0.61804(7)
C41_7 C 0.52957(9) 0.42152(9) 0.61109(9)
H26_7 H 0.5181 0.4202 0.5810
C42_7 C 0.50535(11) 0.40583(12) 0.64707(12)
H27_7 H 0.4776 0.3935 0.6418
C43_7 C 0.52201(14) 0.40832(14) 0.69106(12)
H28_7 H 0.5057 0.3974 0.7160
C44_7 C 0.56154(13) 0.42628(13) 0.69848(10)
H29_7 H 0.5726 0.4282 0.7287
C45_7 C 0.58616(10) 0.44193(10) 0.66208(9)
H30_7 H 0.6138 0.4545 0.6675
N7_7 N 0.42138(5) 0.80361(5) 0.75085(5)
N8_7 N 0.44721(5) 0.82906(5) 0.72407(6)
C46_7 C 0.44261(6) 0.76622(6) 0.75893(6)
C47_7 C 0.48337(6) 0.76698(6) 0.73750(6)
C48_7 C 0.48443(6) 0.80744(6) 0.71542(6)
C49_7 C 0.51507(6) 0.82781(6) 0.68307(7)
C50_7 C 0.55635(7) 0.84127(7) 0.69550(8)
H31_7 H 0.5670 0.8354 0.7253
C51_7 C 0.58195(7) 0.86327(8) 0.66445(9)
H32_7 H 0.6104 0.8721 0.6729
C52_7 C 0.56660(8) 0.87253(7) 0.62138(8)
H33_7 H 0.5841 0.8884 0.6006
C53_7 C 0.52597(7) 0.85888(8) 0.60849(7)
H34_7 H 0.5156 0.8649 0.5786
C54_7 C 0.50023(7) 0.83649(7) 0.63892(7)
H35_7 H 0.4723 0.8269 0.6298
C55_7 C 0.42183(7) 0.73041(7) 0.78414(7)
C56_7 C 0.44517(9) 0.70534(8) 0.81529(8)
H36_7 H 0.4745 0.7123 0.8220
C57_7 C 0.42546(11) 0.67026(9) 0.83646(10)
H37_7 H 0.4415 0.6532 0.8576
C58_7 C 0.38297(11) 0.65986(10) 0.82718(11)
H38_7 H 0.3698 0.6358 0.8419
C59_7 C 0.35967(10) 0.68404(9) 0.79687(11)
H39_7 H 0.3303 0.6768 0.7906
C60_7 C 0.37895(8) 0.71928(8) 0.77515(8)
H40_7 H 0.3626 0.7359 0.7539
Cu5_7 Cu 0.426262(9) 0.878492(9) 0.694896(9)
N9_7 N 0.40013(5) 0.92357(6) 0.66274(6)
N10_7 N 0.35564(5) 0.92531(5) 0.66382(6)
C61_7 C 0.41384(6) 0.95145(6) 0.63026(7)
C62_7 C 0.37807(7) 0.97189(7) 0.61046(7)
C63_7 C 0.34205(7) 0.95412(7) 0.63237(7)
C64_7 C 0.45995(7) 0.95839(7) 0.61913(8)
C65_7 C 0.49074(8) 0.96538(8) 0.65292(9)
H41_7 H 0.4828 0.9631 0.6841
C66_7 C 0.53315(8) 0.97570(9) 0.64120(11)
H42_7 H 0.5540 0.9807 0.6645
C67_7 C 0.54508(8) 0.97876(10) 0.59606(12)
H43_7 H 0.5740 0.9862 0.5883
C68_7 C 0.51514(9) 0.97103(9) 0.56225(10)
H44_7 H 0.5235 0.9726 0.5311
C69_7 C 0.47299(8) 0.96094(8) 0.57375(8)
H45_7 H 0.4524 0.9556 0.5502
C70_7 C 0.29561(7) 0.96205(9) 0.62527(8)
C73_6 C 0.20794(11) 0.9771(2) 0.61055(17)
H48_6 H 0.1779 0.9820 0.6055
C74_6 C 0.22270(12) 0.9363(2) 0.61503(16)
H49_6 H 0.2030 0.9127 0.6131
C75_7 C 0.26680(9) 0.92815(13) 0.62246(12)
H50_7 H 0.2768 0.8992 0.6256
C79_7 C 0.32976(7) 0.97709(8) 0.51288(8)
C80_7 C 0.29035(9) 0.98988(10) 0.49460(11)
C81_7 C 0.26249(12) 0.95902(14) 0.47666(14)
H52_6 H 0.2359 0.9680 0.4633
C82_7 C 0.27253(15) 0.91663(14) 0.47790(15)
H53_7 H 0.2526 0.8959 0.4663
C83_7 C 0.31169(13) 0.90311(11) 0.49594(14)
H54_7 H 0.3190 0.8732 0.4963
C84_7 C 0.33993(10) 0.93339(9) 0.51339(9)
H55_7 H 0.3668 0.9242 0.5260
C4_8 C 0.01507(6) 0.32781(6) 0.18307(7)
C5_8 C 0.05635(7) 0.34127(7) 0.19550(8)
H1_8 H 0.0670 0.3354 0.2253
C6_8 C 0.08195(7) 0.36327(8) 0.16445(9)
H2_8 H 0.1104 0.3721 0.1729
C7_8 C 0.06660(8) 0.37253(7) 0.12138(8)
H3_8 H 0.0841 0.3884 0.1006
C8_8 C 0.02597(7) 0.35888(8) 0.10849(7)
H4_8 H 0.0156 0.3649 0.0786
C9_8 C 0.00023(7) 0.33649(7) 0.13892(7)
C21_8 C 0.03315(8) 0.47570(9) 0.14120(11)
H12_8 H 0.0540 0.4807 0.1645
C22_8 C 0.04508(8) 0.47876(10) 0.09606(12)
H13_8 H 0.0740 0.4862 0.0883
C23_8 C 0.01514(9) 0.47103(9) 0.06225(10)
H14_8 H 0.0235 0.4726 0.0311
H27_8 H 0.0224 0.6065 0.1418
N7_8 N 0.07862(5) 0.19639(5) 0.25085(5)
N8_8 N 0.05279(5) 0.17094(5) 0.22407(6)
C46_8 C 0.05739(6) 0.23378(6) 0.25893(6)
C47_8 C 0.01663(6) 0.23302(6) 0.23750(6)
C48_8 C 0.01557(6) 0.19256(6) 0.21542(6)
H35_8 H 0.0277 0.1731 0.1298
C55_8 C 0.07817(7) 0.26959(7) 0.28414(7)
C56_8 C 0.05483(9) 0.29466(8) 0.31529(8)
H36_8 H 0.0255 0.2877 0.3220
C57_8 C 0.07454(11) 0.32974(9) 0.33646(10)
H37_8 H 0.0585 0.3468 0.3576
C58_8 C 0.11703(11) 0.34014(10) 0.32718(11)
H38_8 H 0.1302 0.3642 0.3419
C59_8 C 0.14033(10) 0.31596(9) 0.29687(11)
H39_8 H 0.1697 0.3232 0.2906
C60_8 C 0.12105(8) 0.28072(8) 0.27515(8)
H40_8 H 0.1374 0.2641 0.2539
Cu5_8 Cu 0.073738(9) 0.121508(9) 0.194896(9)
N9_8 N 0.09987(5) 0.07643(6) 0.16274(6)
N10_8 N 0.14436(5) 0.07469(5) 0.16382(6)
C61_8 C 0.08616(6) 0.04855(6) 0.13026(7)
C62_8 C 0.12193(7) 0.02811(7) 0.11046(7)
C63_8 C 0.15795(7) 0.04588(7) 0.13237(7)
C64_8 C 0.04005(7) 0.04161(7) 0.11913(8)
C65_8 C 0.00926(8) 0.03462(8) 0.15292(9)
H41_8 H 0.0172 0.0369 0.1841
C69_8 C 0.02701(8) 0.03906(8) 0.07375(8)
H45_8 H 0.0476 0.0444 0.0502
C70_8 C 0.20439(7) 0.03795(9) 0.12527(8)
C73_7 C 0.29206(11) 0.0229(2) 0.11055(17)
H48_7 H 0.3221 0.0180 0.1055
C74_7 C 0.27730(12) 0.0637(2) 0.11503(16)
H49_7 H 0.2970 0.0873 0.1131
C75_8 C 0.23320(9) 0.07185(13) 0.12246(12)
H50_8 H 0.2232 0.1008 0.1256
C79_8 C 0.17024(7) 0.02291(8) 0.01288(8)
C84_8 C 0.16007(10) 0.06661(9) 0.01339(9)
H55_8 H 0.1332 0.0758 0.0260
H51_8 H 0.2175 0.9803 0.9944
Cu2_8 Cu 0.926262(9) 0.378492(9) 0.194896(9)
N1_8 N 0.92138(5) 0.30361(5) 0.25085(5)
N2_8 N 0.94721(5) 0.32906(5) 0.22407(6)
N3_8 N 0.90013(5) 0.42357(6) 0.16274(6)
N4_8 N 0.85564(5) 0.42531(5) 0.16382(6)
C1_8 C 0.94261(6) 0.26622(6) 0.25893(6)
C2_8 C 0.98337(6) 0.26698(6) 0.23750(6)
C3_8 C 0.98443(6) 0.30744(6) 0.21542(6)
H5_8 H 0.9723 0.3269 0.1298
C10_8 C 0.92183(7) 0.23041(7) 0.28414(7)
C11_8 C 0.94517(9) 0.20534(8) 0.31529(8)
H6_8 H 0.9745 0.2123 0.3220
C12_8 C 0.92546(11) 0.17026(9) 0.33646(10)
H7_8 H 0.9415 0.1532 0.3576
C13_8 C 0.88297(11) 0.15986(10) 0.32718(11)
H8_8 H 0.8698 0.1358 0.3419
C14_8 C 0.85967(10) 0.18404(9) 0.29687(11)
H9_8 H 0.8303 0.1768 0.2906
C15_8 C 0.87895(8) 0.21928(8) 0.27515(8)
H10_8 H 0.8626 0.2359 0.2539
C16_8 C 0.91384(6) 0.45145(6) 0.13026(7)
C17_8 C 0.87807(7) 0.47189(7) 0.11046(7)
C18_8 C 0.84205(7) 0.45412(7) 0.13237(7)
C19_8 C 0.95995(7) 0.45839(7) 0.11913(8)
C20_8 C 0.99074(8) 0.46538(8) 0.15292(9)
H11_8 H 0.9828 0.4631 0.1841
C24_8 C 0.97299(8) 0.46094(8) 0.07375(8)
H15_8 H 0.9524 0.4556 0.0502
C25_8 C 0.79561(7) 0.46205(9) 0.12527(8)
C26_8 C 0.78025(9) 0.50463(12) 0.12078(11)
H16_8 H 0.7998 0.5284 0.1228
C27_8 C 0.73612(12) 0.51193(19) 0.11326(15)
H17_8 H 0.7255 0.5407 0.1100
C28_8 C 0.70794(11) 0.4771(2) 0.11055(17)
H18_8 H 0.6779 0.4820 0.1055
C29_8 C 0.72270(12) 0.4363(2) 0.11503(16)
H19_8 H 0.7030 0.4127 0.1131
C30_8 C 0.76680(9) 0.42815(13) 0.12246(12)
H20_8 H 0.7768 0.3992 0.1256
C31_8 C 0.85961(7) 0.50855(7) 0.03356(7)
C32_8 C 0.87962(6) 0.50659(6) 0.07617(7)
C33_8 C 0.90347(7) 0.54475(7) 0.07930(7)
C34_8 C 0.82976(7) 0.47709(8) 0.01288(8)
C39_8 C 0.83993(10) 0.43339(9) 0.01339(9)
H25_8 H 0.8668 0.4242 0.0260
C40_8 C 0.92978(8) 0.56093(7) 0.11804(7)
C41_8 C 0.97043(9) 0.57848(9) 0.11109(9)
H26_8 H 0.9819 0.5798 0.0810
C42_8 C 0.99465(11) 0.59417(12) 0.14707(12)
C43_8 C 0.97799(14) 0.59168(14) 0.19106(12)
H28_8 H 0.9943 0.6026 0.2160
C44_8 C 0.93846(13) 0.57372(13) 0.19848(10)
H29_8 H 0.9274 0.5718 0.2287
C45_8 C 0.91384(10) 0.55807(10) 0.16208(9)
H30_8 H 0.8862 0.5455 0.1675
C49_8 C 0.98493(6) 0.17219(6) 0.18307(7)
C50_8 C 0.94365(7) 0.15873(7) 0.19550(8)
H31_8 H 0.9330 0.1646 0.2253
C51_8 C 0.91805(7) 0.13673(8) 0.16445(9)
H32_8 H 0.8896 0.1279 0.1729
C52_8 C 0.93340(8) 0.12747(7) 0.12138(8)
H33_8 H 0.9159 0.1116 0.1006
C53_8 C 0.97403(7) 0.14112(8) 0.10849(7)
H34_8 H 0.9844 0.1351 0.0786
C54_8 C 0.99977(7) 0.16351(7) 0.13892(7)
C66_8 C 0.96685(8) 0.02430(9) 0.14120(11)
H42_8 H 0.9460 0.0193 0.1645
C67_8 C 0.95492(8) 0.02124(10) 0.09606(12)
H43_8 H 0.9260 0.0138 0.0883
C68_8 C 0.98486(9) 0.02897(9) 0.06225(10)
H44_8 H 0.9765 0.0274 0.0311
C35_8 C 0.79035(9) 0.48988(10) 0.99460(11)
H21_8 H 0.7825 0.5197 0.9944
C36_8 C 0.76249(12) 0.45902(14) 0.97666(14)
H22_8 H 0.7359 0.4680 0.9633
C37_8 C 0.77253(15) 0.41663(14) 0.97790(15)
H23_8 H 0.7526 0.3959 0.9663
C38_8 C 0.81169(13) 0.40311(11) 0.99594(14)
H24_8 H 0.8190 0.3732 0.9963
C72_8 C 0.23807(19) 0.98612(12) 0.36326(15)
H47_8 H 0.2093 0.9755 0.3600
C73_8 C 0.2729(2) 0.95794(11) 0.36055(17)
H48_8 H 0.2680 0.9279 0.3555
C74_8 C 0.3137(2) 0.97270(12) 0.36503(16)
H49_8 H 0.3373 0.9530 0.3631
H52_7 H 0.2820 0.9859 0.2133
C80_8 C 0.20965(9) 0.01012(10) 0.99460(11)
C81_8 C 0.23751(12) 0.04098(14) 0.97666(14)
H52_8 H 0.2641 0.0320 0.9633
C82_8 C 0.22747(15) 0.08337(14) 0.97790(15)
H53_8 H 0.2474 0.1041 0.9663
C83_8 C 0.18831(13) 0.09689(11) 0.99594(14)
H54_8 H 0.1810 0.1268 0.9963
H57_8 H 0.9776 0.8935 0.1418
loop_
_geom_bond_atom_site_label_1
_geom_bond_atom_site_label_2
_geom_bond_site_symmetry_1
_geom_bond_site_symmetry_2
Cu2 N2 1_555 1_555
Cu3 N4 1_555 1_555
N2 C3 1_555 1_555
N3 Cu2 1_555 1_555
N4 N3 1_555 1_555
N5 N6 1_555 1_555
N6 C33 1_555 1_555
C3 C2 1_555 1_555
C4 C3 1_555 1_555
C5 C4 1_555 1_555
H1 C5 1_555 1_555
C6 C5 1_555 1_555
H2 C6 1_555 1_555
C7 C6 1_555 1_555
H3 C7 1_555 1_555
C8 C7 1_555 1_555
H4 C8 1_555 1_555
C9 C4 1_555 1_555
H5 C9 1_555 1_555
C16 N3 1_555 1_555
C17 C16 1_555 1_555
C18 N4 1_555 1_555
C19 C16 1_555 1_555
C20 C19 1_555 1_555
H11 C20 1_555 1_555
C21 C20 1_555 1_555
H12 C21 1_555 1_555
C22 C21 1_555 1_555
H13 C22 1_555 1_555
C23 C22 1_555 1_555
H14 C23 1_555 1_555
C24 C19 1_555 1_555
H15 C24 1_555 1_555
C25 C18 1_555 1_555
C26 C25 1_555 1_555
H16 C26 1_555 1_555
C27 C26 1_555 1_555
H17 C27 1_555 1_555
C28 C27 1_555 1_555
H18 C28 1_555 1_555
C29 C28 1_555 1_555
H19 C29 1_555 1_555
C30 C25 1_555 1_555
H20 C30 1_555 1_555
C31 N5 1_555 1_555
C32 C17 1_555 1_555
C33 C32 1_555 1_555
C34 C31 1_555 1_555
C35 C34 1_555 1_555
H21 C35 1_555 1_555
C36 C35 1_555 1_555
H22 C36 1_555 1_555
C37 C36 1_555 1_555
H23 C37 1_555 1_555
C38 C37 1_555 1_555
H24 C38 1_555 1_555
C39 C34 1_555 1_555
H25 C39 1_555 1_555
C40 C33 1_555 1_555
C41 C40 1_555 1_555
H26 C41 1_555 1_555
C42 C41 1_555 1_555
H27 C42 1_555 1_555
C43 C42 1_555 1_555
H28 C43 1_555 1_555
C44 C43 1_555 1_555
H29 C44 1_555 1_555
C45 C40 1_555 1_555
H30 C45 1_555 1_555
Cu7 N6 1_555 1_555
Cu9 N5 1_555 1_555
C8 C9 1_555 1_555
C17 C18 1_555 1_555
C23 C24 1_555 1_555
C29 C30 1_555 1_555
C31 C32 1_555 1_555
C38 C39 1_555 1_555
C44 C45 1_555 1_555
Cu1 N1 1_555 1_555
C1 N1 1_555 1_555
C56 C55 1_555 1_555
H36 C56 1_555 1_555
C57 C56 1_555 1_555
H37 C57 1_555 1_555
C58 C57 1_555 1_555
H38 C58 1_555 1_555
C59 C58 1_555 1_555
H39 C59 1_555 1_555
C60 C55 1_555 1_555
H40 C60 1_555 1_555
N15 Cu1 1_555 1_555
C59 C60 1_555 1_555
N13 N15 1_555 1_555
N8 C48 1_555 1_555
C48 C47 1_555 1_555
C49 C48 1_555 1_555
C50 C49 1_555 1_555
H31 C50 1_555 1_555
C51 C50 1_555 1_555
H32 C51 1_555 1_555
C52 C51 1_555 1_555
H33 C52 1_555 1_555
C53 C52 1_555 1_555
H34 C53 1_555 1_555
C54 C49 1_555 1_555
H35 C54 1_555 1_555
Cu5 N8 1_555 1_555
Cu6 N10 1_555 1_555
N9 Cu5 1_555 1_555
N10 N9 1_555 1_555
N11 N12 1_555 1_555
N12 C78 1_555 1_555
C61 N9 1_555 1_555
C62 C61 1_555 1_555
C63 N10 1_555 1_555
C64 C61 1_555 1_555
C65 C64 1_555 1_555
H41 C65 1_555 1_555
C66 C65 1_555 1_555
H42 C66 1_555 1_555
C67 C66 1_555 1_555
H43 C67 1_555 1_555
C68 C67 1_555 1_555
H44 C68 1_555 1_555
C69 C64 1_555 1_555
H45 C69 1_555 1_555
C70 C63 1_555 1_555
C71 C70 1_555 1_555
H46 C71 1_555 1_555
C75 C70 1_555 1_555
H50 C75 1_555 1_555
C76 N11 1_555 1_555
C77 C62 1_555 1_555
C78 C77 1_555 1_555
C79 C76 1_555 1_555
C80 C79 1_555 1_555
H51 C80 1_555 1_555
C81 C80 1_555 1_555
C82 C81 1_555 1_555
H53 C82 1_555 1_555
C83 C82 1_555 1_555
H54 C83 1_555 1_555
C84 C79 1_555 1_555
H55 C84 1_555 1_555
C85 C78 1_555 1_555
C86 C85 1_555 1_555
H56 C86 1_555 1_555
C87 C86 1_555 1_555
H57 C87 1_555 1_555
C88 C87 1_555 1_555
H58 C88 1_555 1_555
C89 C88 1_555 1_555
H59 C89 1_555 1_555
C90 C85 1_555 1_555
H60 C90 1_555 1_555
Cu8 N12 1_555 1_555
Cu10 N11 1_555 1_555
C53 C54 1_555 1_555
C62 C63 1_555 1_555
C68 C69 1_555 1_555
C76 C77 1_555 1_555
C83 C84 1_555 1_555
C89 C90 1_555 1_555
Cu1_2 N1_2 1_555 1_555
Cu2_2 N2_2 1_555 1_555
Cu3_2 N4_2 1_555 1_555
N1_2 N2_2 1_555 1_555
N2_2 C3_2 1_555 1_555
N3_2 Cu2_2 1_555 1_555
N4_2 N3_2 1_555 1_555
N5_2 N6_2 1_555 1_555
N6_2 C33_2 1_555 1_555
C1_2 N1_2 1_555 1_555
C2_2 C1_2 1_555 1_555
C3_2 C2_2 1_555 1_555
C4_2 C3_2 1_555 1_555
C5_2 C4_2 1_555 1_555
H1_2 C5_2 1_555 1_555
C6_2 C5_2 1_555 1_555
H2_2 C6_2 1_555 1_555
C7_2 C6_2 1_555 1_555
H3_2 C7_2 1_555 1_555
C8_2 C7_2 1_555 1_555
H4_2 C8_2 1_555 1_555
C9_2 C4_2 1_555 1_555
H5_2 C9_2 1_555 1_555
C10 C1_2 1_555 1_555
C11 C10 1_555 1_555
H6 C11 1_555 1_555
C12 C11 1_555 1_555
H7 C12 1_555 1_555
C13 C12 1_555 1_555
H8 C13 1_555 1_555
C14 C13 1_555 1_555
H9 C14 1_555 1_555
C15 C10 1_555 1_555
H10 C15 1_555 1_555
C16_2 N3_2 1_555 1_555
C17_2 C16_2 1_555 1_555
C18_2 N4_2 1_555 1_555
C19_2 C16_2 1_555 1_555
C20_2 C19_2 1_555 1_555
H11_2 C20_2 1_555 1_555
C21_2 C20_2 1_555 1_555
H12_2 C21_2 1_555 1_555
C22_2 C21_2 1_555 1_555
H13_2 C22_2 1_555 1_555
C23_2 C22_2 1_555 1_555
H14_2 C23_2 1_555 1_555
C24_2 C19_2 1_555 1_555
H15_2 C24_2 1_555 1_555
C25_2 C18_2 1_555 1_555
C26_2 C25_2 1_555 1_555
H16_2 C26_2 1_555 1_555
C27_2 C26_2 1_555 1_555
H17_2 C27_2 1_555 1_555
C28_2 C27_2 1_555 1_555
H18_2 C28_2 1_555 1_555
C29_2 C28_2 1_555 1_555
H19_2 C29_2 1_555 1_555
C30_2 C25_2 1_555 1_555
H20_2 C30_2 1_555 1_555
C31_2 N5_2 1_555 1_555
C32_2 C17_2 1_555 1_555
C33_2 C32_2 1_555 1_555
C34_2 C31_2 1_555 1_555
C35_2 C34_2 1_555 1_555
H21_2 C35_2 1_555 1_555
C36_2 C35_2 1_555 1_555
H22_2 C36_2 1_555 1_555
C37_2 C36_2 1_555 1_555
H23_2 C37_2 1_555 1_555
C38_2 C37_2 1_555 1_555
H24_2 C38_2 1_555 1_555
C39_2 C34_2 1_555 1_555
H25_2 C39_2 1_555 1_555
C40_2 C33_2 1_555 1_555
C41_2 C40_2 1_555 1_555
H26_2 C41_2 1_555 1_555
C42_2 C41_2 1_555 1_555
H27_2 C42_2 1_555 1_555
C43_2 C42_2 1_555 1_555
H28_2 C43_2 1_555 1_555
C44_2 C43_2 1_555 1_555
H29_2 C44_2 1_555 1_555
C45_2 C40_2 1_555 1_555
H30_2 C45_2 1_555 1_555
N7 N8_2 1_555 1_555
N8_2 C48_2 1_555 1_555
C46 N7 1_555 1_555
C47_2 C2_2 1_555 1_555
C48_2 C47_2 1_555 1_555
C49_2 C48_2 1_555 1_555
C50_2 C49_2 1_555 1_555
H31_2 C50_2 1_555 1_555
C51_2 C50_2 1_555 1_555
H32_2 C51_2 1_555 1_555
C52_2 C51_2 1_555 1_555
H33_2 C52_2 1_555 1_555
C53_2 C52_2 1_555 1_555
H34_2 C53_2 1_555 1_555
C54_2 C49_2 1_555 1_555
H35_2 C54_2 1_555 1_555
C55_2 C46 1_555 1_555
C56_2 C55_2 1_555 1_555
H36_2 C56_2 1_555 1_555
C57_2 C56_2 1_555 1_555
H37_2 C57_2 1_555 1_555
C58_2 C57_2 1_555 1_555
H38_2 C58_2 1_555 1_555
C59_2 C58_2 1_555 1_555
H39_2 C59_2 1_555 1_555
C60_2 C55_2 1_555 1_555
H40_2 C60_2 1_555 1_555
Cu4 N7 1_555 1_555
Cu5_2 N8_2 1_555 1_555
Cu6_2 N10_2 1_555 1_555
N9_2 Cu5_2 1_555 1_555
N10_2 N9_2 1_555 1_555
N11_2 N12_2 1_555 1_555
N12_2 C78_2 1_555 1_555
C61_2 N9_2 1_555 1_555
C62_2 C61_2 1_555 1_555
C63_2 N10_2 1_555 1_555
C64_2 C61_2 1_555 1_555
C65_2 C64_2 1_555 1_555
H41_2 C65_2 1_555 1_555
C66_2 C65_2 1_555 1_555
H42_2 C66_2 1_555 1_555
C67_2 C66_2 1_555 1_555
H43_2 C67_2 1_555 1_555
C68_2 C67_2 1_555 1_555
H44_2 C68_2 1_555 1_555
C69_2 C64_2 1_555 1_555
H45_2 C69_2 1_555 1_555
C70_2 C63_2 1_555 1_555
C71_2 C70_2 1_555 1_555
H46_2 C71_2 1_555 1_555
C75_2 C70_2 1_555 1_555
H50_2 C75_2 1_555 1_555
C76_2 N11_2 1_555 1_555
C77_2 C62_2 1_555 1_555
C78_2 C77_2 1_555 1_555
C79_2 C76_2 1_555 1_555
C80_2 C79_2 1_555 1_555
H51_2 C80_2 1_555 1_555
C81_2 C80_2 1_555 1_555
C82_2 C81_2 1_555 1_555
H53_2 C82_2 1_555 1_555
C83_2 C82_2 1_555 1_555
H54_2 C83_2 1_555 1_555
C84_2 C79_2 1_555 1_555
H55_2 C84_2 1_555 1_555
C85_2 C78_2 1_555 1_555
C86_2 C85_2 1_555 1_555
H56_2 C86_2 1_555 1_555
C87_2 C86_2 1_555 1_555
H57_2 C87_2 1_555 1_555
C88_2 C87_2 1_555 1_555
H58_2 C88_2 1_555 1_555
C89_2 C88_2 1_555 1_555
H59_2 C89_2 1_555 1_555
C90_2 C85_2 1_555 1_555
H60_2 C90_2 1_555 1_555
Cu7_2 N6_2 1_555 1_555
Cu8_2 N12_2 1_555 1_555
Cu9_2 N5_2 1_555 1_555
Cu10_2 N11_2 1_555 1_555
N13_2 Cu3_2 1_555 1_555
N14 Cu6_2 1_555 1_555
N15_2 Cu1_2 1_555 1_555
N16 Cu4 1_555 1_555
C8_2 C9_2 1_555 1_555
C14 C15 1_555 1_555
C17_2 C18_2 1_555 1_555
C23_2 C24_2 1_555 1_555
C29_2 C30_2 1_555 1_555
C31_2 C32_2 1_555 1_555
C38_2 C39_2 1_555 1_555
C44_2 C45_2 1_555 1_555
C46 C47_2 1_555 1_555
C53_2 C54_2 1_555 1_555
C59_2 C60_2 1_555 1_555
C62_2 C63_2 1_555 1_555
C68_2 C69_2 1_555 1_555
C76_2 C77_2 1_555 1_555
C83_2 C84_2 1_555 1_555
C89_2 C90_2 1_555 1_555
N13_2 N15_2 1_555 1_555
N14 N16 1_555 1_555
Cu7 N1_3 1_555 1_555
Cu2_3 N2_3 1_555 1_555
Cu9 N4_3 1_555 1_555
N1_3 N2_3 1_555 1_555
N2_3 C3_3 1_555 1_555
N3_3 Cu2_3 1_555 1_555
N4_3 N3_3 1_555 1_555
N15_2 C33_3 1_555 1_555
C1_3 N1_3 1_555 1_555
C2_3 C1_3 1_555 1_555
C3_3 C2_3 1_555 1_555
C4_3 C3_3 1_555 1_555
C5_3 C4_3 1_555 1_555
H1_3 C5_3 1_555 1_555
C6_3 C5_3 1_555 1_555
H2_3 C6_3 1_555 1_555
C7_3 C6_3 1_555 1_555
H3_3 C7_3 1_555 1_555
C8_3 C7_3 1_555 1_555
H4_3 C8_3 1_555 1_555
C9_3 C4_3 1_555 1_555
H5_3 C9_3 1_555 1_555
C10_2 C1_3 1_555 1_555
C11_2 C10_2 1_555 1_555
H6_2 C11_2 1_555 1_555
C12_2 C11_2 1_555 1_555
H7_2 C12_2 1_555 1_555
C13_2 C12_2 1_555 1_555
H8_2 C13_2 1_555 1_555
C14_2 C13_2 1_555 1_555
H9_2 C14_2 1_555 1_555
C15_2 C10_2 1_555 1_555
H10_2 C15_2 1_555 1_555
C16_3 N3_3 1_555 1_555
C17_3 C16_3 1_555 1_555
C18_3 N4_3 1_555 1_555
C19_3 C16_3 1_555 1_555
C20_3 C19_3 1_555 1_555
H11_3 C20_3 1_555 1_555
C21_3 C20_3 1_555 1_555
H12_3 C21_3 1_555 1_555
C22_3 C21_3 1_555 1_555
H13_3 C22_3 1_555 1_555
C23_3 C22_3 1_555 1_555
H14_3 C23_3 1_555 1_555
C24_3 C19_3 1_555 1_555
H15_3 C24_3 1_555 1_555
C25_3 C18_3 1_555 1_555
C26_3 C25_3 1_555 1_555
H16_3 C26_3 1_555 1_555
C27_3 C26_3 1_555 1_555
H17_3 C27_3 1_555 1_555
C28_3 C27_3 1_555 1_555
H18_3 C28_3 1_555 1_555
C29_3 C28_3 1_555 1_555
H19_3 C29_3 1_555 1_555
C30_3 C25_3 1_555 1_555
H20_3 C30_3 1_555 1_555
C31_3 N13_2 1_555 1_555
C32_3 C17_3 1_555 1_555
C33_3 C32_3 1_555 1_555
C34_3 C31_3 1_555 1_555
C35_3 C34_3 1_555 1_555
H21_3 C35_3 1_555 1_555
C36_3 C35_3 1_555 1_555
H22_3 C36_3 1_555 1_555
C37_3 C36_3 1_555 1_555
H23_3 C37_3 1_555 1_555
C38_3 C37_3 1_555 1_555
H24_3 C38_3 1_555 1_555
C39_3 C34_3 1_555 1_555
H25_3 C39_3 1_555 1_555
C40_3 C33_3 1_555 1_555
C41_3 C40_3 1_555 1_555
H26_3 C41_3 1_555 1_555
C42_3 C41_3 1_555 1_555
H27_3 C42_3 1_555 1_555
C43_3 C42_3 1_555 1_555
H28_3 C43_3 1_555 1_555
C44_3 C43_3 1_555 1_555
H29_3 C44_3 1_555 1_555
C45_3 C40_3 1_555 1_555
H30_3 C45_3 1_555 1_555
N7_2 N8_3 1_555 1_555
N8_3 C48_3 1_555 1_555
C46_2 N7_2 1_555 1_555
C47_3 C2_3 1_555 1_555
C48_3 C47_3 1_555 1_555
C49_3 C48_3 1_555 1_555
C50_3 C49_3 1_555 1_555
H31_3 C50_3 1_555 1_555
C51_3 C50_3 1_555 1_555
H32_3 C51_3 1_555 1_555
C52_3 C51_3 1_555 1_555
H33_3 C52_3 1_555 1_555
C53_3 C52_3 1_555 1_555
H34_3 C53_3 1_555 1_555
C54_3 C49_3 1_555 1_555
H35_3 C54_3 1_555 1_555
C55_3 C46_2 1_555 1_555
C56_3 C55_3 1_555 1_555
H36_3 C56_3 1_555 1_555
C57_3 C56_3 1_555 1_555
H37_3 C57_3 1_555 1_555
C58_3 C57_3 1_555 1_555
H38_3 C58_3 1_555 1_555
C59_3 C58_3 1_555 1_555
H39_3 C59_3 1_555 1_555
C60_3 C55_3 1_555 1_555
H40_3 C60_3 1_555 1_555
Cu8 N7_2 1_555 1_555
Cu5_3 N8_3 1_555 1_555
Cu10 N10_3 1_555 1_555
N9_3 Cu5_3 1_555 1_555
N10_3 N9_3 1_555 1_555
C61_3 N9_3 1_555 1_555
C62_3 C61_3 1_555 1_555
C63_3 N10_3 1_555 1_555
C64_3 C61_3 1_555 1_555
C65_3 C64_3 1_555 1_555
H41_3 C65_3 1_555 1_555
C66_3 C65_3 1_555 1_555
H42_3 C66_3 1_555 1_555
C67_3 C66_3 1_555 1_555
H43_3 C67_3 1_555 1_555
C68_3 C67_3 1_555 1_555
H44_3 C68_3 1_555 1_555
C69_3 C64_3 1_555 1_555
H45_3 C69_3 1_555 1_555
C70_3 C63_3 1_555 1_555
H48 C73 1_555 1_555
C74 C73 1_555 1_555
H49 C74 1_555 1_555
C75_3 C70_3 1_555 1_555
H50_3 C75_3 1_555 1_555
C80_3 C79_3 1_555 1_555
C81_3 C80_3 1_555 1_555
H52 C81_3 1_555 1_555
C82_3 C81_3 1_555 1_555
H53_3 C82_3 1_555 1_555
C83_3 C82_3 1_555 1_555
H54_3 C83_3 1_555 1_555
C84_3 C79_3 1_555 1_555
H55_3 C84_3 1_555 1_555
C8_3 C9_3 1_555 1_555
C14_2 C15_2 1_555 1_555
C17_3 C18_3 1_555 1_555
C23_3 C24_3 1_555 1_555
C29_3 C30_3 1_555 1_555
C31_3 C32_3 1_555 1_555
C38_3 C39_3 1_555 1_555
C44_3 C45_3 1_555 1_555
C46_2 C47_3 1_555 1_555
C53_3 C54_3 1_555 1_555
C59_3 C60_3 1_555 1_555
C62_3 C63_3 1_555 1_555
C68_3 C69_3 1_555 1_555
C74 C75_3 1_555 1_555
C83_3 C84_3 1_555 1_555
N16 C78_3 1_555 1_555
H46_3 C71_3 1_555 1_555
C72 C71_3 1_555 1_555
H47 C72 1_555 1_555
C76_3 N14 1_555 1_555
C78_3 C77_3 1_555 1_555
C85_3 C78_3 1_555 1_555
C86_3 C85_3 1_555 1_555
H56_3 C86_3 1_555 1_555
C87_3 C86_3 1_555 1_555
H57_3 C87_3 1_555 1_555
C88_3 C87_3 1_555 1_555
H58_3 C88_3 1_555 1_555
C89_3 C88_3 1_555 1_555
H59_3 C89_3 1_555 1_555
C90_3 C85_3 1_555 1_555
H60_3 C90_3 1_555 1_555
C76_3 C77_3 1_555 1_555
C89_3 C90_3 1_555 1_555
H21_4 C35_4 1_555 1_555
C36_4 C35_4 1_555 1_555
H22_4 C36_4 1_555 1_555
C37_4 C36_4 1_555 1_555
H23_4 C37_4 1_555 1_555
C38_4 C37_4 1_555 1_555
H24_4 C38_4 1_555 1_555
Cu7_2 N1_4 1_555 1_555
Cu2_4 N2_4 1_555 1_555
Cu9_2 N4_4 1_555 1_555
N1_4 N2_4 1_555 1_555
N2_4 C3_4 1_555 1_555
N3_4 Cu2_4 1_555 1_555
N4_4 N3_4 1_555 1_555
N15 C33_4 1_555 1_555
C1_4 N1_4 1_555 1_555
C2_4 C1_4 1_555 1_555
C3_4 C2_4 1_555 1_555
C10_3 C1_4 1_555 1_555
C11_3 C10_3 1_555 1_555
H6_3 C11_3 1_555 1_555
C12_3 C11_3 1_555 1_555
H7_3 C12_3 1_555 1_555
C13_3 C12_3 1_555 1_555
H8_3 C13_3 1_555 1_555
C14_3 C13_3 1_555 1_555
H9_3 C14_3 1_555 1_555
C15_3 C10_3 1_555 1_555
H10_3 C15_3 1_555 1_555
C16_4 N3_4 1_555 1_555
C17_4 C16_4 1_555 1_555
C18_4 N4_4 1_555 1_555
C19_4 C16_4 1_555 1_555
C20_4 C19_4 1_555 1_555
H11_4 C20_4 1_555 1_555
C24_4 C19_4 1_555 1_555
H15_4 C24_4 1_555 1_555
C25_4 C18_4 1_555 1_555
C26_4 C25_4 1_555 1_555
H16_4 C26_4 1_555 1_555
C27_4 C26_4 1_555 1_555
H17_4 C27_4 1_555 1_555
C28_4 C27_4 1_555 1_555
H18_4 C28_4 1_555 1_555
C29_4 C28_4 1_555 1_555
H19_4 C29_4 1_555 1_555
C30_4 C25_4 1_555 1_555
H20_4 C30_4 1_555 1_555
C31_4 N13 1_555 1_555
C32_4 C17_4 1_555 1_555
C33_4 C32_4 1_555 1_555
C34_4 C31_4 1_555 1_555
C39_4 C34_4 1_555 1_555
H25_4 C39_4 1_555 1_555
C40_4 C33_4 1_555 1_555
C41_4 C40_4 1_555 1_555
H26_4 C41_4 1_555 1_555
C42_4 C41_4 1_555 1_555
C43_4 C42_4 1_555 1_555
H28_4 C43_4 1_555 1_555
C44_4 C43_4 1_555 1_555
H29_4 C44_4 1_555 1_555
C45_4 C40_4 1_555 1_555
H30_4 C45_4 1_555 1_555
C50_4 C49_4 1_555 1_555
H31_4 C50_4 1_555 1_555
C51_4 C50_4 1_555 1_555
H32_4 C51_4 1_555 1_555
C52_4 C51_4 1_555 1_555
H33_4 C52_4 1_555 1_555
C53_4 C52_4 1_555 1_555
H34_4 C53_4 1_555 1_555
C54_4 C49_4 1_555 1_555
H42_4 C66_4 1_555 1_555
C67_4 C66_4 1_555 1_555
H43_4 C67_4 1_555 1_555
C68_4 C67_4 1_555 1_555
H44_4 C68_4 1_555 1_555
C14_3 C15_3 1_555 1_555
C17_4 C18_4 1_555 1_555
C29_4 C30_4 1_555 1_555
C31_4 C32_4 1_555 1_555
C44_4 C45_4 1_555 1_555
C53_4 C54_4 1_555 1_555
C5_4 C4_4 1_555 1_555
H1_4 C5_4 1_555 1_555
C6_4 C5_4 1_555 1_555
H2_4 C6_4 1_555 1_555
C7_4 C6_4 1_555 1_555
H3_4 C7_4 1_555 1_555
C8_4 C7_4 1_555 1_555
H4_4 C8_4 1_555 1_555
C9_4 C4_4 1_555 1_555
H12_4 C21_4 1_555 1_555
C22_4 C21_4 1_555 1_555
H13_4 C22_4 1_555 1_555
C23_4 C22_4 1_555 1_555
H14_4 C23_4 1_555 1_555
N7_3 N8_4 1_555 1_555
N8_4 C48_4 1_555 1_555
C46_3 N7_3 1_555 1_555
C48_4 C47_4 1_555 1_555
C55_4 C46_3 1_555 1_555
C56_4 C55_4 1_555 1_555
H36_4 C56_4 1_555 1_555
C57_4 C56_4 1_555 1_555
H37_4 C57_4 1_555 1_555
C58_4 C57_4 1_555 1_555
H38_4 C58_4 1_555 1_555
C59_4 C58_4 1_555 1_555
H39_4 C59_4 1_555 1_555
C60_4 C55_4 1_555 1_555
H40_4 C60_4 1_555 1_555
Cu8_2 N7_3 1_555 1_555
Cu5_4 N8_4 1_555 1_555
Cu10_2 N10_4 1_555 1_555
N9_4 Cu5_4 1_555 1_555
N10_4 N9_4 1_555 1_555
C61_4 N9_4 1_555 1_555
C62_4 C61_4 1_555 1_555
C63_4 N10_4 1_555 1_555
C64_4 C61_4 1_555 1_555
C65_4 C64_4 1_555 1_555
H41_4 C65_4 1_555 1_555
C69_4 C64_4 1_555 1_555
H45_4 C69_4 1_555 1_555
C70_4 C63_4 1_555 1_555
H48_2 C73_2 1_555 1_555
C74_2 C73_2 1_555 1_555
H49_2 C74_2 1_555 1_555
C75_4 C70_4 1_555 1_555
H50_4 C75_4 1_555 1_555
C84_4 C79_4 1_555 1_555
H55_4 C84_4 1_555 1_555
C8_4 C9_4 1_555 1_555
C46_3 C47_4 1_555 1_555
C59_4 C60_4 1_555 1_555
C62_4 C63_4 1_555 1_555
C74_2 C75_4 1_555 1_555
C11_4 C10_4 1_555 1_555
H6_4 C11_4 1_555 1_555
C12_4 C11_4 1_555 1_555
H7_4 C12_4 1_555 1_555
C13_4 C12_4 1_555 1_555
H8_4 C13_4 1_555 1_555
C14_4 C13_4 1_555 1_555
H9_4 C14_4 1_555 1_555
C15_4 C10_4 1_555 1_555
H10_4 C15_4 1_555 1_555
C46_4 N7_4 1_555 1_555
Cu4_2 N7_4 1_555 1_555
N16_2 Cu4_2 1_555 1_555
C14_4 C15_4 1_555 1_555
N14_2 N16_2 1_555 1_555
N16_2 C78_4 1_555 1_555
H46_4 C71_4 1_555 1_555
C72_2 C71_4 1_555 1_555
H47_2 C72_2 1_555 1_555
C76_4 N14_2 1_555 1_555
C78_4 C77_4 1_555 1_555
C85_4 C78_4 1_555 1_555
C86_4 C85_4 1_555 1_555
H56_4 C86_4 1_555 1_555
C87_4 C86_4 1_555 1_555
C88_4 C87_4 1_555 1_555
H58_4 C88_4 1_555 1_555
C89_4 C88_4 1_555 1_555
H59_4 C89_4 1_555 1_555
C90_4 C85_4 1_555 1_555
H60_4 C90_4 1_555 1_555
C76_4 C77_4 1_555 1_555
C89_4 C90_4 1_555 1_555
H47_3 C72_3 1_555 1_555
C73_3 C72_3 1_555 1_555
H48_3 C73_3 1_555 1_555
C74_3 C73_3 1_555 1_555
H49_3 C74_3 1_555 1_555
H47_4 C72_4 1_555 1_555
C73_4 C72_4 1_555 1_555
H48_4 C73_4 1_555 1_555
C74_4 C73_4 1_555 1_555
H49_4 C74_4 1_555 1_555
C81_4 C80_4 1_555 1_555
H52_4 C81_4 1_555 1_555
C82_4 C81_4 1_555 1_555
H53_4 C82_4 1_555 1_555
C83_4 C82_4 1_555 1_555
H54_4 C83_4 1_555 1_555
H47_5 C72_5 1_555 1_555
C73_5 C72_5 1_555 1_555
H48_5 C73_5 1_555 1_555
C74_5 C73_5 1_555 1_555
H49_5 C74_5 1_555 1_555
C11_5 C10_5 1_555 1_555
H6_5 C11_5 1_555 1_555
C12_5 C11_5 1_555 1_555
H7_5 C12_5 1_555 1_555
C13_5 C12_5 1_555 1_555
H8_5 C13_5 1_555 1_555
C14_5 C13_5 1_555 1_555
H9_5 C14_5 1_555 1_555
C15_5 C10_5 1_555 1_555
H10_5 C15_5 1_555 1_555
C46_5 N7_5 1_555 1_555
Cu4_3 N7_5 1_555 1_555
N16_3 Cu4_3 1_555 1_555
C14_5 C15_5 1_555 1_555
N14_3 N16_3 1_555 1_555
N16_3 C78_5 1_555 1_555
H46_5 C71_5 1_555 1_555
C72_6 C71_5 1_555 1_555
H47_6 C72_6 1_555 1_555
C76_5 N14_3 1_555 1_555
C78_5 C77_5 1_555 1_555
C85_5 C78_5 1_555 1_555
C86_5 C85_5 1_555 1_555
H56_5 C86_5 1_555 1_555
C87_5 C86_5 1_555 1_555
C88_5 C87_5 1_555 1_555
H58_5 C88_5 1_555 1_555
C89_5 C88_5 1_555 1_555
H59_5 C89_5 1_555 1_555
C90_5 C85_5 1_555 1_555
H60_5 C90_5 1_555 1_555
C76_5 C77_5 1_555 1_555
C89_5 C90_5 1_555 1_555
N8_5 C48_5 1_555 1_555
C48_5 C47_5 1_555 1_555
C49_5 C48_5 1_555 1_555
C50_5 C49_5 1_555 1_555
H31_5 C50_5 1_555 1_555
C51_5 C50_5 1_555 1_555
H32_5 C51_5 1_555 1_555
C52_5 C51_5 1_555 1_555
H33_5 C52_5 1_555 1_555
C53_5 C52_5 1_555 1_555
H34_5 C53_5 1_555 1_555
C54_5 C49_5 1_555 1_555
H35_5 C54_5 1_555 1_555
Cu5_5 N8_5 1_555 1_555
Cu6_3 N10_5 1_555 1_555
N9_5 Cu5_5 1_555 1_555
N10_5 N9_5 1_555 1_555
N11_3 N12_3 1_555 1_555
N12_3 C78_6 1_555 1_555
C61_5 N9_5 1_555 1_555
C62_5 C61_5 1_555 1_555
C63_5 N10_5 1_555 1_555
C64_5 C61_5 1_555 1_555
C65_5 C64_5 1_555 1_555
H41_5 C65_5 1_555 1_555
C66_5 C65_5 1_555 1_555
H42_5 C66_5 1_555 1_555
C67_5 C66_5 1_555 1_555
H43_5 C67_5 1_555 1_555
C68_5 C67_5 1_555 1_555
H44_5 C68_5 1_555 1_555
C69_5 C64_5 1_555 1_555
H45_5 C69_5 1_555 1_555
C70_5 C63_5 1_555 1_555
C71_6 C70_5 1_555 1_555
H46_6 C71_6 1_555 1_555
C75_5 C70_5 1_555 1_555
H50_5 C75_5 1_555 1_555
C76_6 N11_3 1_555 1_555
C77_6 C62_5 1_555 1_555
C78_6 C77_6 1_555 1_555
C79_5 C76_6 1_555 1_555
C80_5 C79_5 1_555 1_555
H51_5 C80_5 1_555 1_555
C81_5 C80_5 1_555 1_555
C82_5 C81_5 1_555 1_555
H53_5 C82_5 1_555 1_555
C83_5 C82_5 1_555 1_555
H54_5 C83_5 1_555 1_555
C84_5 C79_5 1_555 1_555
H55_5 C84_5 1_555 1_555
C85_6 C78_6 1_555 1_555
C86_6 C85_6 1_555 1_555
H56_6 C86_6 1_555 1_555
C87_6 C86_6 1_555 1_555
H57_5 C87_6 1_555 1_555
C88_6 C87_6 1_555 1_555
H58_6 C88_6 1_555 1_555
C89_6 C88_6 1_555 1_555
H59_6 C89_6 1_555 1_555
C90_6 C85_6 1_555 1_555
H60_6 C90_6 1_555 1_555
Cu8_3 N12_3 1_555 1_555
Cu10_3 N11_3 1_555 1_555
C53_5 C54_5 1_555 1_555
C62_5 C63_5 1_555 1_555
C68_5 C69_5 1_555 1_555
C76_6 C77_6 1_555 1_555
C83_5 C84_5 1_555 1_555
C89_6 C90_6 1_555 1_555
Cu1_3 N1_5 1_555 1_555
C1_5 N1_5 1_555 1_555
C56_5 C55_5 1_555 1_555
H36_5 C56_5 1_555 1_555
C57_5 C56_5 1_555 1_555
H37_5 C57_5 1_555 1_555
C58_5 C57_5 1_555 1_555
H38_5 C58_5 1_555 1_555
C59_5 C58_5 1_555 1_555
H39_5 C59_5 1_555 1_555
C60_5 C55_5 1_555 1_555
H40_5 C60_5 1_555 1_555
N15_3 Cu1_3 1_555 1_555
C59_5 C60_5 1_555 1_555
N13_3 N15_3 1_555 1_555
Cu2_5 N2_5 1_555 1_555
Cu3_3 N4_5 1_555 1_555
N2_5 C3_5 1_555 1_555
N3_5 Cu2_5 1_555 1_555
N4_5 N3_5 1_555 1_555
N5_3 N6_3 1_555 1_555
N6_3 C33_5 1_555 1_555
C3_5 C2_5 1_555 1_555
C4_5 C3_5 1_555 1_555
C5_5 C4_5 1_555 1_555
H1_5 C5_5 1_555 1_555
C6_5 C5_5 1_555 1_555
H2_5 C6_5 1_555 1_555
C7_5 C6_5 1_555 1_555
H3_5 C7_5 1_555 1_555
C8_5 C7_5 1_555 1_555
H4_5 C8_5 1_555 1_555
C9_5 C4_5 1_555 1_555
H5_5 C9_5 1_555 1_555
C16_5 N3_5 1_555 1_555
C17_5 C16_5 1_555 1_555
C18_5 N4_5 1_555 1_555
C19_5 C16_5 1_555 1_555
C20_5 C19_5 1_555 1_555
H11_5 C20_5 1_555 1_555
C21_5 C20_5 1_555 1_555
H12_5 C21_5 1_555 1_555
C22_5 C21_5 1_555 1_555
H13_5 C22_5 1_555 1_555
C23_5 C22_5 1_555 1_555
H14_5 C23_5 1_555 1_555
C24_5 C19_5 1_555 1_555
H15_5 C24_5 1_555 1_555
C25_5 C18_5 1_555 1_555
C26_5 C25_5 1_555 1_555
H16_5 C26_5 1_555 1_555
C27_5 C26_5 1_555 1_555
H17_5 C27_5 1_555 1_555
C28_5 C27_5 1_555 1_555
H18_5 C28_5 1_555 1_555
C29_5 C28_5 1_555 1_555
H19_5 C29_5 1_555 1_555
C30_5 C25_5 1_555 1_555
H20_5 C30_5 1_555 1_555
C31_5 N5_3 1_555 1_555
C32_5 C17_5 1_555 1_555
C33_5 C32_5 1_555 1_555
C34_5 C31_5 1_555 1_555
C35_5 C34_5 1_555 1_555
H21_5 C35_5 1_555 1_555
C36_5 C35_5 1_555 1_555
H22_5 C36_5 1_555 1_555
C37_5 C36_5 1_555 1_555
H23_5 C37_5 1_555 1_555
C38_5 C37_5 1_555 1_555
H24_5 C38_5 1_555 1_555
C39_5 C34_5 1_555 1_555
H25_5 C39_5 1_555 1_555
C40_5 C33_5 1_555 1_555
C41_5 C40_5 1_555 1_555
H26_5 C41_5 1_555 1_555
C42_5 C41_5 1_555 1_555
H27_5 C42_5 1_555 1_555
C43_5 C42_5 1_555 1_555
H28_5 C43_5 1_555 1_555
C44_5 C43_5 1_555 1_555
H29_5 C44_5 1_555 1_555
C45_5 C40_5 1_555 1_555
H30_5 C45_5 1_555 1_555
Cu7_3 N6_3 1_555 1_555
Cu9_3 N5_3 1_555 1_555
C8_5 C9_5 1_555 1_555
C17_5 C18_5 1_555 1_555
C23_5 C24_5 1_555 1_555
C29_5 C30_5 1_555 1_555
C31_5 C32_5 1_555 1_555
C38_5 C39_5 1_555 1_555
C44_5 C45_5 1_555 1_555
Cu1_4 N1_6 1_555 1_555
Cu2_6 N2_6 1_555 1_555
Cu3_4 N4_6 1_555 1_555
N1_6 N2_6 1_555 1_555
N2_6 C3_6 1_555 1_555
N3_6 Cu2_6 1_555 1_555
N4_6 N3_6 1_555 1_555
N5_4 N6_4 1_555 1_555
N6_4 C33_6 1_555 1_555
C1_6 N1_6 1_555 1_555
C2_6 C1_6 1_555 1_555
C3_6 C2_6 1_555 1_555
C4_6 C3_6 1_555 1_555
C5_6 C4_6 1_555 1_555
H1_6 C5_6 1_555 1_555
C6_6 C5_6 1_555 1_555
H2_6 C6_6 1_555 1_555
C7_6 C6_6 1_555 1_555
H3_6 C7_6 1_555 1_555
C8_6 C7_6 1_555 1_555
H4_6 C8_6 1_555 1_555
C9_6 C4_6 1_555 1_555
H5_6 C9_6 1_555 1_555
C10_6 C1_6 1_555 1_555
C11_6 C10_6 1_555 1_555
H6_6 C11_6 1_555 1_555
C12_6 C11_6 1_555 1_555
H7_6 C12_6 1_555 1_555
C13_6 C12_6 1_555 1_555
H8_6 C13_6 1_555 1_555
C14_6 C13_6 1_555 1_555
H9_6 C14_6 1_555 1_555
C15_6 C10_6 1_555 1_555
H10_6 C15_6 1_555 1_555
C16_6 N3_6 1_555 1_555
C17_6 C16_6 1_555 1_555
C18_6 N4_6 1_555 1_555
C19_6 C16_6 1_555 1_555
C20_6 C19_6 1_555 1_555
H11_6 C20_6 1_555 1_555
C21_6 C20_6 1_555 1_555
H12_6 C21_6 1_555 1_555
C22_6 C21_6 1_555 1_555
H13_6 C22_6 1_555 1_555
C23_6 C22_6 1_555 1_555
H14_6 C23_6 1_555 1_555
C24_6 C19_6 1_555 1_555
H15_6 C24_6 1_555 1_555
C25_6 C18_6 1_555 1_555
C26_6 C25_6 1_555 1_555
H16_6 C26_6 1_555 1_555
C27_6 C26_6 1_555 1_555
H17_6 C27_6 1_555 1_555
C28_6 C27_6 1_555 1_555
H18_6 C28_6 1_555 1_555
C29_6 C28_6 1_555 1_555
H19_6 C29_6 1_555 1_555
C30_6 C25_6 1_555 1_555
H20_6 C30_6 1_555 1_555
C31_6 N5_4 1_555 1_555
C32_6 C17_6 1_555 1_555
C33_6 C32_6 1_555 1_555
C34_6 C31_6 1_555 1_555
C35_6 C34_6 1_555 1_555
H21_6 C35_6 1_555 1_555
C36_6 C35_6 1_555 1_555
H22_6 C36_6 1_555 1_555
C37_6 C36_6 1_555 1_555
H23_6 C37_6 1_555 1_555
C38_6 C37_6 1_555 1_555
H24_6 C38_6 1_555 1_555
C39_6 C34_6 1_555 1_555
H25_6 C39_6 1_555 1_555
C40_6 C33_6 1_555 1_555
C41_6 C40_6 1_555 1_555
H26_6 C41_6 1_555 1_555
C42_6 C41_6 1_555 1_555
H27_6 C42_6 1_555 1_555
C43_6 C42_6 1_555 1_555
H28_6 C43_6 1_555 1_555
C44_6 C43_6 1_555 1_555
H29_6 C44_6 1_555 1_555
C45_6 C40_6 1_555 1_555
H30_6 C45_6 1_555 1_555
N7_6 N8_6 1_555 1_555
N8_6 C48_6 1_555 1_555
C46_6 N7_6 1_555 1_555
C47_6 C2_6 1_555 1_555
C48_6 C47_6 1_555 1_555
C49_6 C48_6 1_555 1_555
C50_6 C49_6 1_555 1_555
H31_6 C50_6 1_555 1_555
C51_6 C50_6 1_555 1_555
H32_6 C51_6 1_555 1_555
C52_6 C51_6 1_555 1_555
H33_6 C52_6 1_555 1_555
C53_6 C52_6 1_555 1_555
H34_6 C53_6 1_555 1_555
C54_6 C49_6 1_555 1_555
H35_6 C54_6 1_555 1_555
C55_6 C46_6 1_555 1_555
C56_6 C55_6 1_555 1_555
H36_6 C56_6 1_555 1_555
C57_6 C56_6 1_555 1_555
H37_6 C57_6 1_555 1_555
C58_6 C57_6 1_555 1_555
H38_6 C58_6 1_555 1_555
C59_6 C58_6 1_555 1_555
H39_6 C59_6 1_555 1_555
C60_6 C55_6 1_555 1_555
H40_6 C60_6 1_555 1_555
Cu4_4 N7_6 1_555 1_555
Cu5_6 N8_6 1_555 1_555
Cu6_4 N10_6 1_555 1_555
N9_6 Cu5_6 1_555 1_555
N10_6 N9_6 1_555 1_555
N11_4 N12_4 1_555 1_555
N12_4 C78_7 1_555 1_555
C61_6 N9_6 1_555 1_555
C62_6 C61_6 1_555 1_555
C63_6 N10_6 1_555 1_555
C64_6 C61_6 1_555 1_555
C65_6 C64_6 1_555 1_555
H41_6 C65_6 1_555 1_555
C66_6 C65_6 1_555 1_555
H42_6 C66_6 1_555 1_555
C67_6 C66_6 1_555 1_555
H43_6 C67_6 1_555 1_555
C68_6 C67_6 1_555 1_555
H44_6 C68_6 1_555 1_555
C69_6 C64_6 1_555 1_555
H45_6 C69_6 1_555 1_555
C70_6 C63_6 1_555 1_555
C71_7 C70_6 1_555 1_555
H46_7 C71_7 1_555 1_555
C75_6 C70_6 1_555 1_555
H50_6 C75_6 1_555 1_555
C76_7 N11_4 1_555 1_555
C77_7 C62_6 1_555 1_555
C78_7 C77_7 1_555 1_555
C79_6 C76_7 1_555 1_555
C80_6 C79_6 1_555 1_555
H51_6 C80_6 1_555 1_555
C81_6 C80_6 1_555 1_555
C82_6 C81_6 1_555 1_555
H53_6 C82_6 1_555 1_555
C83_6 C82_6 1_555 1_555
H54_6 C83_6 1_555 1_555
C84_6 C79_6 1_555 1_555
H55_6 C84_6 1_555 1_555
C85_7 C78_7 1_555 1_555
C86_7 C85_7 1_555 1_555
H56_7 C86_7 1_555 1_555
C87_7 C86_7 1_555 1_555
H57_6 C87_7 1_555 1_555
C88_7 C87_7 1_555 1_555
H58_7 C88_7 1_555 1_555
C89_7 C88_7 1_555 1_555
H59_7 C89_7 1_555 1_555
C90_7 C85_7 1_555 1_555
H60_7 C90_7 1_555 1_555
Cu7_4 N6_4 1_555 1_555
Cu8_4 N12_4 1_555 1_555
Cu9_4 N5_4 1_555 1_555
Cu10_4 N11_4 1_555 1_555
N13_4 Cu3_4 1_555 1_555
N14_4 Cu6_4 1_555 1_555
N15_4 Cu1_4 1_555 1_555
N16_4 Cu4_4 1_555 1_555
C8_6 C9_6 1_555 1_555
C14_6 C15_6 1_555 1_555
C17_6 C18_6 1_555 1_555
C23_6 C24_6 1_555 1_555
C29_6 C30_6 1_555 1_555
C31_6 C32_6 1_555 1_555
C38_6 C39_6 1_555 1_555
C44_6 C45_6 1_555 1_555
C46_6 C47_6 1_555 1_555
C53_6 C54_6 1_555 1_555
C59_6 C60_6 1_555 1_555
C62_6 C63_6 1_555 1_555
C68_6 C69_6 1_555 1_555
C76_7 C77_7 1_555 1_555
C83_6 C84_6 1_555 1_555
C89_7 C90_7 1_555 1_555
N13_4 N15_4 1_555 1_555
N14_4 N16_4 1_555 1_555
N16_4 C78_8 1_555 1_555
H46_8 C71_8 1_555 1_555
C72_7 C71_8 1_555 1_555
H47_7 C72_7 1_555 1_555
C76_8 N14_4 1_555 1_555
C78_8 C77_8 1_555 1_555
C85_8 C78_8 1_555 1_555
C86_8 C85_8 1_555 1_555
H56_8 C86_8 1_555 1_555
C87_8 C86_8 1_555 1_555
H57_7 C87_8 1_555 1_555
C88_8 C87_8 1_555 1_555
H58_8 C88_8 1_555 1_555
C89_8 C88_8 1_555 1_555
H59_8 C89_8 1_555 1_555
C90_8 C85_8 1_555 1_555
H60_8 C90_8 1_555 1_555
C76_8 C77_8 1_555 1_555
C89_8 C90_8 1_555 1_555
Cu7_3 N1_7 1_555 1_555
Cu2_7 N2_7 1_555 1_555
Cu9_3 N4_7 1_555 1_555
N1_7 N2_7 1_555 1_555
N2_7 C3_7 1_555 1_555
N3_7 Cu2_7 1_555 1_555
N4_7 N3_7 1_555 1_555
N15_4 C33_7 1_555 1_555
C1_7 N1_7 1_555 1_555
C2_7 C1_7 1_555 1_555
C3_7 C2_7 1_555 1_555
C4_7 C3_7 1_555 1_555
C5_7 C4_7 1_555 1_555
H1_7 C5_7 1_555 1_555
C6_7 C5_7 1_555 1_555
H2_7 C6_7 1_555 1_555
C7_7 C6_7 1_555 1_555
H3_7 C7_7 1_555 1_555
C8_7 C7_7 1_555 1_555
H4_7 C8_7 1_555 1_555
C9_7 C4_7 1_555 1_555
H5_7 C9_7 1_555 1_555
C10_7 C1_7 1_555 1_555
C11_7 C10_7 1_555 1_555
H6_7 C11_7 1_555 1_555
C12_7 C11_7 1_555 1_555
H7_7 C12_7 1_555 1_555
C13_7 C12_7 1_555 1_555
H8_7 C13_7 1_555 1_555
C14_7 C13_7 1_555 1_555
H9_7 C14_7 1_555 1_555
C15_7 C10_7 1_555 1_555
H10_7 C15_7 1_555 1_555
C16_7 N3_7 1_555 1_555
C17_7 C16_7 1_555 1_555
C18_7 N4_7 1_555 1_555
C19_7 C16_7 1_555 1_555
C20_7 C19_7 1_555 1_555
H11_7 C20_7 1_555 1_555
C21_7 C20_7 1_555 1_555
H12_7 C21_7 1_555 1_555
C22_7 C21_7 1_555 1_555
H13_7 C22_7 1_555 1_555
C23_7 C22_7 1_555 1_555
H14_7 C23_7 1_555 1_555
C24_7 C19_7 1_555 1_555
H15_7 C24_7 1_555 1_555
C25_7 C18_7 1_555 1_555
C26_7 C25_7 1_555 1_555
H16_7 C26_7 1_555 1_555
C27_7 C26_7 1_555 1_555
H17_7 C27_7 1_555 1_555
C28_7 C27_7 1_555 1_555
H18_7 C28_7 1_555 1_555
C29_7 C28_7 1_555 1_555
H19_7 C29_7 1_555 1_555
C30_7 C25_7 1_555 1_555
H20_7 C30_7 1_555 1_555
C31_7 N13_4 1_555 1_555
C32_7 C17_7 1_555 1_555
C33_7 C32_7 1_555 1_555
C34_7 C31_7 1_555 1_555
C35_7 C34_7 1_555 1_555
H21_7 C35_7 1_555 1_555
C36_7 C35_7 1_555 1_555
H22_7 C36_7 1_555 1_555
C37_7 C36_7 1_555 1_555
H23_7 C37_7 1_555 1_555
C38_7 C37_7 1_555 1_555
H24_7 C38_7 1_555 1_555
C39_7 C34_7 1_555 1_555
H25_7 C39_7 1_555 1_555
C40_7 C33_7 1_555 1_555
C41_7 C40_7 1_555 1_555
H26_7 C41_7 1_555 1_555
C42_7 C41_7 1_555 1_555
H27_7 C42_7 1_555 1_555
C43_7 C42_7 1_555 1_555
H28_7 C43_7 1_555 1_555
C44_7 C43_7 1_555 1_555
H29_7 C44_7 1_555 1_555
C45_7 C40_7 1_555 1_555
H30_7 C45_7 1_555 1_555
N7_7 N8_7 1_555 1_555
N8_7 C48_7 1_555 1_555
C46_7 N7_7 1_555 1_555
C47_7 C2_7 1_555 1_555
C48_7 C47_7 1_555 1_555
C49_7 C48_7 1_555 1_555
C50_7 C49_7 1_555 1_555
H31_7 C50_7 1_555 1_555
C51_7 C50_7 1_555 1_555
H32_7 C51_7 1_555 1_555
C52_7 C51_7 1_555 1_555
H33_7 C52_7 1_555 1_555
C53_7 C52_7 1_555 1_555
H34_7 C53_7 1_555 1_555
C54_7 C49_7 1_555 1_555
H35_7 C54_7 1_555 1_555
C55_7 C46_7 1_555 1_555
C56_7 C55_7 1_555 1_555
H36_7 C56_7 1_555 1_555
C57_7 C56_7 1_555 1_555
H37_7 C57_7 1_555 1_555
C58_7 C57_7 1_555 1_555
H38_7 C58_7 1_555 1_555
C59_7 C58_7 1_555 1_555
H39_7 C59_7 1_555 1_555
C60_7 C55_7 1_555 1_555
H40_7 C60_7 1_555 1_555
Cu8_3 N7_7 1_555 1_555
Cu5_7 N8_7 1_555 1_555
Cu10_3 N10_7 1_555 1_555
N9_7 Cu5_7 1_555 1_555
N10_7 N9_7 1_555 1_555
C61_7 N9_7 1_555 1_555
C62_7 C61_7 1_555 1_555
C63_7 N10_7 1_555 1_555
C64_7 C61_7 1_555 1_555
C65_7 C64_7 1_555 1_555
H41_7 C65_7 1_555 1_555
C66_7 C65_7 1_555 1_555
H42_7 C66_7 1_555 1_555
C67_7 C66_7 1_555 1_555
H43_7 C67_7 1_555 1_555
C68_7 C67_7 1_555 1_555
H44_7 C68_7 1_555 1_555
C69_7 C64_7 1_555 1_555
H45_7 C69_7 1_555 1_555
C70_7 C63_7 1_555 1_555
H48_6 C73_6 1_555 1_555
C74_6 C73_6 1_555 1_555
H49_6 C74_6 1_555 1_555
C75_7 C70_7 1_555 1_555
H50_7 C75_7 1_555 1_555
C80_7 C79_7 1_555 1_555
C81_7 C80_7 1_555 1_555
H52_6 C81_7 1_555 1_555
C82_7 C81_7 1_555 1_555
H53_7 C82_7 1_555 1_555
C83_7 C82_7 1_555 1_555
H54_7 C83_7 1_555 1_555
C84_7 C79_7 1_555 1_555
H55_7 C84_7 1_555 1_555
C8_7 C9_7 1_555 1_555
C14_7 C15_7 1_555 1_555
C17_7 C18_7 1_555 1_555
C23_7 C24_7 1_555 1_555
C29_7 C30_7 1_555 1_555
C31_7 C32_7 1_555 1_555
C38_7 C39_7 1_555 1_555
C44_7 C45_7 1_555 1_555
C46_7 C47_7 1_555 1_555
C53_7 C54_7 1_555 1_555
C59_7 C60_7 1_555 1_555
C62_7 C63_7 1_555 1_555
C68_7 C69_7 1_555 1_555
C74_6 C75_7 1_555 1_555
C83_7 C84_7 1_555 1_555
C5_8 C4_8 1_555 1_555
H1_8 C5_8 1_555 1_555
C6_8 C5_8 1_555 1_555
H2_8 C6_8 1_555 1_555
C7_8 C6_8 1_555 1_555
H3_8 C7_8 1_555 1_555
C8_8 C7_8 1_555 1_555
H4_8 C8_8 1_555 1_555
C9_8 C4_8 1_555 1_555
H12_8 C21_8 1_555 1_555
C22_8 C21_8 1_555 1_555
H13_8 C22_8 1_555 1_555
C23_8 C22_8 1_555 1_555
H14_8 C23_8 1_555 1_555
N7_8 N8_8 1_555 1_555
N8_8 C48_8 1_555 1_555
C46_8 N7_8 1_555 1_555
C48_8 C47_8 1_555 1_555
C55_8 C46_8 1_555 1_555
C56_8 C55_8 1_555 1_555
H36_8 C56_8 1_555 1_555
C57_8 C56_8 1_555 1_555
H37_8 C57_8 1_555 1_555
C58_8 C57_8 1_555 1_555
H38_8 C58_8 1_555 1_555
C59_8 C58_8 1_555 1_555
H39_8 C59_8 1_555 1_555
C60_8 C55_8 1_555 1_555
H40_8 C60_8 1_555 1_555
Cu8_4 N7_8 1_555 1_555
Cu5_8 N8_8 1_555 1_555
Cu10_4 N10_8 1_555 1_555
N9_8 Cu5_8 1_555 1_555
N10_8 N9_8 1_555 1_555
C61_8 N9_8 1_555 1_555
C62_8 C61_8 1_555 1_555
C63_8 N10_8 1_555 1_555
C64_8 C61_8 1_555 1_555
C65_8 C64_8 1_555 1_555
H41_8 C65_8 1_555 1_555
C69_8 C64_8 1_555 1_555
H45_8 C69_8 1_555 1_555
C70_8 C63_8 1_555 1_555
H48_7 C73_7 1_555 1_555
C74_7 C73_7 1_555 1_555
H49_7 C74_7 1_555 1_555
C75_8 C70_8 1_555 1_555
H50_8 C75_8 1_555 1_555
C84_8 C79_8 1_555 1_555
H55_8 C84_8 1_555 1_555
C8_8 C9_8 1_555 1_555
C46_8 C47_8 1_555 1_555
C59_8 C60_8 1_555 1_555
C62_8 C63_8 1_555 1_555
C74_7 C75_8 1_555 1_555
Cu7_4 N1_8 1_555 1_555
Cu2_8 N2_8 1_555 1_555
Cu9_4 N4_8 1_555 1_555
N1_8 N2_8 1_555 1_555
N2_8 C3_8 1_555 1_555
N3_8 Cu2_8 1_555 1_555
N4_8 N3_8 1_555 1_555
N15_3 C33_8 1_555 1_555
C1_8 N1_8 1_555 1_555
C2_8 C1_8 1_555 1_555
C3_8 C2_8 1_555 1_555
C10_8 C1_8 1_555 1_555
C11_8 C10_8 1_555 1_555
H6_8 C11_8 1_555 1_555
C12_8 C11_8 1_555 1_555
H7_8 C12_8 1_555 1_555
C13_8 C12_8 1_555 1_555
H8_8 C13_8 1_555 1_555
C14_8 C13_8 1_555 1_555
H9_8 C14_8 1_555 1_555
C15_8 C10_8 1_555 1_555
H10_8 C15_8 1_555 1_555
C16_8 N3_8 1_555 1_555
C17_8 C16_8 1_555 1_555
C18_8 N4_8 1_555 1_555
C19_8 C16_8 1_555 1_555
C20_8 C19_8 1_555 1_555
H11_8 C20_8 1_555 1_555
C24_8 C19_8 1_555 1_555
H15_8 C24_8 1_555 1_555
C25_8 C18_8 1_555 1_555
C26_8 C25_8 1_555 1_555
H16_8 C26_8 1_555 1_555
C27_8 C26_8 1_555 1_555
H17_8 C27_8 1_555 1_555
C28_8 C27_8 1_555 1_555
H18_8 C28_8 1_555 1_555
C29_8 C28_8 1_555 1_555
H19_8 C29_8 1_555 1_555
C30_8 C25_8 1_555 1_555
H20_8 C30_8 1_555 1_555
C31_8 N13_3 1_555 1_555
C32_8 C17_8 1_555 1_555
C33_8 C32_8 1_555 1_555
C34_8 C31_8 1_555 1_555
C39_8 C34_8 1_555 1_555
H25_8 C39_8 1_555 1_555
C40_8 C33_8 1_555 1_555
C41_8 C40_8 1_555 1_555
H26_8 C41_8 1_555 1_555
C42_8 C41_8 1_555 1_555
C43_8 C42_8 1_555 1_555
H28_8 C43_8 1_555 1_555
C44_8 C43_8 1_555 1_555
H29_8 C44_8 1_555 1_555
C45_8 C40_8 1_555 1_555
H30_8 C45_8 1_555 1_555
C50_8 C49_8 1_555 1_555
H31_8 C50_8 1_555 1_555
C51_8 C50_8 1_555 1_555
H32_8 C51_8 1_555 1_555
C52_8 C51_8 1_555 1_555
H33_8 C52_8 1_555 1_555
C53_8 C52_8 1_555 1_555
H34_8 C53_8 1_555 1_555
C54_8 C49_8 1_555 1_555
H42_8 C66_8 1_555 1_555
C67_8 C66_8 1_555 1_555
H43_8 C67_8 1_555 1_555
C68_8 C67_8 1_555 1_555
H44_8 C68_8 1_555 1_555
C14_8 C15_8 1_555 1_555
C17_8 C18_8 1_555 1_555
C29_8 C30_8 1_555 1_555
C31_8 C32_8 1_555 1_555
C44_8 C45_8 1_555 1_555
C53_8 C54_8 1_555 1_555
H21_8 C35_8 1_555 1_555
C36_8 C35_8 1_555 1_555
H22_8 C36_8 1_555 1_555
C37_8 C36_8 1_555 1_555
H23_8 C37_8 1_555 1_555
C38_8 C37_8 1_555 1_555
H24_8 C38_8 1_555 1_555
H47_8 C72_8 1_555 1_555
C73_8 C72_8 1_555 1_555
H48_8 C73_8 1_555 1_555
C74_8 C73_8 1_555 1_555
H49_8 C74_8 1_555 1_555
C81_8 C80_8 1_555 1_555
H52_8 C81_8 1_555 1_555
C82_8 C81_8 1_555 1_555
H53_8 C82_8 1_555 1_555
C83_8 C82_8 1_555 1_555
H54_8 C83_8 1_555 1_555

#END
