
###############################################################################
#
# This file contains modified crystal structure data generated from the
# MOF subset of the Cambridge Structural Database (CSD) v543 
# hosted by the Cambridge Crystallographic Data Centre (CCDC).
#
# This work is licensed under the Creative Commons
# Attribution-NonCommercial-ShareAlike 4.0 International License.
# To view a copy of this license, visit
# http://creativecommons.org/licenses/by-nc-sa/4.0/
# or send a letter to
# Creative Commons, PO Box 1866, Mountain View, CA 94042, USA.
#
# CIF created using the CSD Python API on 29 September 2022
# The structure has been converted into the P1 space group
# The structure has a 3D framework
# The original CSD entry FEVNOK is in the monoclinic crystal system
# The framework has been calculated to contain at least 10.0% void space
# The void calculation uses a probe of radius 1.32A, grid spacing 0.4
#
###############################################################################

data_FEVNOK
_chemical_formula_moiety         '(C32 H16 Cu4 N12 O16)n'
_symmetry_cell_setting           triclinic
_symmetry_space_group_name_H-M   'P 1'
_symmetry_Int_Tables_number      1
_space_group_name_Hall           'P 1'
loop_
_symmetry_equiv_pos_site_id
_symmetry_equiv_pos_as_xyz
1 x,y,z
_cell_length_a                   4.7101(1)
_cell_length_b                   20.0289(2)
_cell_length_c                   10.7704(2)
_cell_angle_alpha                90
_cell_angle_beta                 95.472(2)
_cell_angle_gamma                90
_cell_volume                     1011.43
loop_
_atom_site_label
_atom_site_type_symbol
_atom_site_fract_x
_atom_site_fract_y
_atom_site_fract_z
_atom_site_U_iso_or_equiv
_atom_site_thermal_displace_type
Cu3 Cu 0.6890(8) 0.1636(1) 0.035(2) 0.0063 Uiso
O2 O 0.128(4) 0.314(1) 0.864(7) 0.0089 Uiso
O3 O 0.505(2) 0.183(1) 0.864(8) 0.0089 Uiso
O4 O 0.114(4) 0.163(1) 0.973(6) 0.0089 Uiso
C2 C 0.043(6) 0.187(3) 0.76(1) 0.0241 Uiso
C6 C 0.216(3) 0.180(1) 0.88(1) 0.0241 Uiso
O10 O 0.114(4) 0.337(1) 0.473(6) 0.0089 Uiso
Cu1 Cu 0.6890(8) 0.3364(1) 0.535(2) 0.0063 Uiso
O1 O 0.871(3) 0.370(1) 0.695(8) 0.0089 Uiso
N1 N 0.780(2) 0.2437(8) 0.596(4) 0.0089 Uiso
N2 N 0.975(4) 0.129(1) 0.71(1) 0.0089 Uiso
N3 N 0.611(2) 0.4368(8) 0.507(3) 0.0089 Uiso
C1 C 0.941(4) 0.245(1) 0.70(1) 0.0241 Uiso
C3 C 0.812(4) 0.128(2) 0.60(1) 0.0241 Uiso
C4 C 0.711(5) 0.1846(8) 0.541(6) 0.0241 Uiso
C5 C 0.993(6) 0.315(2) 0.76(1) 0.0241 Uiso
C7 C 0.433(4) 0.457(1) 0.584(9) 0.0241 Uiso
C8 C 0.686(5) 0.479(1) 0.423(5) 0.0241 Uiso
H1 H 0.76534 0.08462 0.56865 0.0241 Uiso
H2 H 0.59639 0.18320 0.46365 0.0241 Uiso
H3 H 0.38871 0.42504 0.64473 0.0241 Uiso
H4 H 0.82002 0.46455 0.36802 0.0241 Uiso
Cu5 Cu 0.3110(8) 0.6636(1) 0.465(2) 0.0063 Uiso
O6 O 0.128(4) 0.186(1) 0.364(7) 0.0089 Uiso
O7 O 0.505(2) 0.317(1) 0.364(8) 0.0089 Uiso
N6 N 0.389(2) 0.5632(8) 0.493(3) 0.0089 Uiso
C10 C 0.043(6) 0.313(3) 0.26(1) 0.0241 Uiso
C14 C 0.216(3) 0.320(1) 0.38(1) 0.0241 Uiso
C15 C 0.567(4) 0.543(1) 0.416(9) 0.0241 Uiso
C16 C 0.314(5) 0.521(1) 0.577(5) 0.0241 Uiso
H7 H 0.61129 0.57496 0.35527 0.0241 Uiso
H8 H 0.17998 0.53545 0.63198 0.0241 Uiso
O5 O 0.871(3) 0.130(1) 0.195(8) 0.0089 Uiso
N4 N 0.780(2) 0.2563(8) 0.096(4) 0.0089 Uiso
N5 N 0.975(4) 0.371(1) 0.21(1) 0.0089 Uiso
N7 N 0.611(2) 0.0632(8) 0.007(3) 0.0089 Uiso
C9 C 0.941(4) 0.255(1) 0.20(1) 0.0241 Uiso
C11 C 0.812(4) 0.372(2) 0.10(1) 0.0241 Uiso
C12 C 0.711(5) 0.3154(8) 0.041(6) 0.0241 Uiso
C13 C 0.993(6) 0.185(2) 0.26(1) 0.0241 Uiso
H5 H 0.76534 0.41538 0.06865 0.0241 Uiso
H6 H 0.59639 0.31680 0.96365 0.0241 Uiso
O5_2 O 0.129(3) 0.630(1) 0.305(8) 0.0089 Uiso
O8 O 0.495(2) 0.683(1) 0.636(8) 0.0089 Uiso
N4_2 N 0.220(2) 0.7563(8) 0.404(4) 0.0089 Uiso
N5_2 N 0.025(4) 0.871(1) 0.29(1) 0.0089 Uiso
C9_2 C 0.059(4) 0.755(1) 0.30(1) 0.0241 Uiso
C11_2 C 0.188(4) 0.872(2) 0.40(1) 0.0241 Uiso
C12_2 C 0.289(5) 0.8154(8) 0.459(6) 0.0241 Uiso
C13_2 C 0.007(6) 0.685(2) 0.24(1) 0.0241 Uiso
H5_2 H 0.23466 0.91538 0.43135 0.0241 Uiso
H6_2 H 0.40361 0.81680 0.53635 0.0241 Uiso
Cu6 Cu 0.3110(8) 0.8364(1) 0.965(2) 0.0063 Uiso
C15_2 C 0.433(4) 0.043(1) 0.084(9) 0.0241 Uiso
H7_2 H 0.38871 0.07496 0.14473 0.0241 Uiso
C16_2 C 0.686(5) 0.021(1) 0.923(5) 0.0241 Uiso
H8_2 H 0.82002 0.03545 0.86802 0.0241 Uiso
C8_2 C 0.314(5) 0.979(1) 0.077(5) 0.0241 Uiso
H2_2 H 0.40361 0.68320 0.03635 0.0241 Uiso
H4_2 H 0.17998 0.96455 0.13198 0.0241 Uiso
O6_2 O 0.872(4) 0.686(1) 0.136(7) 0.0089 Uiso
O7_2 O 0.495(2) 0.817(1) 0.136(8) 0.0089 Uiso
O9 O 0.886(4) 0.837(1) 0.027(6) 0.0089 Uiso
O11 O 0.886(4) 0.663(1) 0.527(6) 0.0089 Uiso
C10_2 C 0.957(6) 0.813(3) 0.24(1) 0.0241 Uiso
C14_2 C 0.784(3) 0.820(1) 0.12(1) 0.0241 Uiso
O1_2 O 0.129(3) 0.870(1) 0.805(8) 0.0089 Uiso
N1_2 N 0.220(2) 0.7437(8) 0.904(4) 0.0089 Uiso
N2_2 N 0.025(4) 0.629(1) 0.79(1) 0.0089 Uiso
N3_2 N 0.389(2) 0.9368(8) 0.993(3) 0.0089 Uiso
C1_2 C 0.059(4) 0.745(1) 0.80(1) 0.0241 Uiso
C3_2 C 0.188(4) 0.628(2) 0.90(1) 0.0241 Uiso
C4_2 C 0.289(5) 0.6846(8) 0.959(6) 0.0241 Uiso
C5_2 C 0.007(6) 0.815(2) 0.74(1) 0.0241 Uiso
C7_2 C 0.567(4) 0.957(1) 0.916(9) 0.0241 Uiso
H1_2 H 0.23466 0.58462 0.93135 0.0241 Uiso
H3_2 H 0.61129 0.92504 0.85527 0.0241 Uiso
O2_2 O 0.872(4) 0.814(1) 0.636(7) 0.0089 Uiso
C2_2 C 0.957(6) 0.687(3) 0.74(1) 0.0241 Uiso
C6_2 C 0.784(3) 0.680(1) 0.62(1) 0.0241 Uiso
loop_
_geom_bond_atom_site_label_1
_geom_bond_atom_site_label_2
_geom_bond_site_symmetry_1
_geom_bond_site_symmetry_2
O3 C6 1_555 1_555
O4 C6 1_555 1_555
C6 C2 1_555 1_555
Cu1 O1 1_555 1_555
O1 C5 1_555 1_555
N1 Cu1 1_555 1_555
N3 Cu1 1_555 1_555
C1 N1 1_555 1_555
C3 N2 1_555 1_555
C4 N1 1_555 1_555
C5 C1 1_555 1_555
C7 N3 1_555 1_555
C8 N3 1_555 1_555
H1 C3 1_555 1_555
H2 C4 1_555 1_555
H3 C7 1_555 1_555
H4 C8 1_555 1_555
Cu5 N6 1_555 1_555
O7 Cu1 1_555 1_555
O10 C14 1_555 1_555
N6 C15 1_555 1_555
C14 O7 1_555 1_555
C15 C8 1_555 1_555
C16 C7 1_555 1_555
H7 C15 1_555 1_555
H8 C16 1_555 1_555
C3 C4 1_555 1_555
N6 C16 1_555 1_555
C10 C14 1_555 1_555
Cu3 O5 1_555 1_555
O5 C13 1_555 1_555
N4 Cu3 1_555 1_555
N7 Cu3 1_555 1_555
C9 N4 1_555 1_555
C11 N5 1_555 1_555
C12 N4 1_555 1_555
C13 C9 1_555 1_555
H5 C11 1_555 1_555
C11 C12 1_555 1_555
Cu5 O5_2 1_555 1_555
O5_2 C13_2 1_555 1_555
O8 Cu5 1_555 1_555
N4_2 Cu5 1_555 1_555
C9_2 N4_2 1_555 1_555
C11_2 N5_2 1_555 1_555
C12_2 N4_2 1_555 1_555
C13_2 C9_2 1_555 1_555
H5_2 C11_2 1_555 1_555
H6_2 C12_2 1_555 1_555
C11_2 C12_2 1_555 1_555
N7 C15_2 1_555 1_555
H7_2 C15_2 1_555 1_555
H8_2 C16_2 1_555 1_555
H4_2 C8_2 1_555 1_555
O9 C14_2 1_555 1_555
C14_2 O7_2 1_555 1_555
C10_2 C14_2 1_555 1_555
Cu6 O1_2 1_555 1_555
O1_2 C5_2 1_555 1_555
N1_2 Cu6 1_555 1_555
N3_2 Cu6 1_555 1_555
C1_2 N1_2 1_555 1_555
C3_2 N2_2 1_555 1_555
C4_2 N1_2 1_555 1_555
C5_2 C1_2 1_555 1_555
C7_2 N3_2 1_555 1_555
H1_2 C3_2 1_555 1_555
H3_2 C7_2 1_555 1_555
C3_2 C4_2 1_555 1_555
O8 C6_2 1_555 1_555
O11 C6_2 1_555 1_555
C6_2 C2_2 1_555 1_555

#END
