
###############################################################################
#
# This file contains modified crystal structure data generated from the
# MOF subset of the Cambridge Structural Database (CSD) v543 
# hosted by the Cambridge Crystallographic Data Centre (CCDC).
#
# This work is licensed under the Creative Commons
# Attribution-NonCommercial-ShareAlike 4.0 International License.
# To view a copy of this license, visit
# http://creativecommons.org/licenses/by-nc-sa/4.0/
# or send a letter to
# Creative Commons, PO Box 1866, Mountain View, CA 94042, USA.
#
# CIF created using the CSD Python API on 29 September 2022
# The structure has been converted into the P1 space group
# The structure has a 3D framework
# The original CSD entry FEVPIH is in the rhombohedral crystal system
# The framework has been calculated to contain at least 10.0% void space
# The void calculation uses a probe of radius 1.32A, grid spacing 0.4
# H atom positions have been added when not included in the experimental data
# Generated hydrogen atom positions removed from atoms on special positions
#
###############################################################################

data_FEVPIH
_chemical_formula_moiety         '(C108 H360 Cd18 Cl30 N72 O72)n'
_symmetry_cell_setting           triclinic
_symmetry_space_group_name_H-M   'P 1'
_symmetry_Int_Tables_number      1
_space_group_name_Hall           'P 1'
loop_
_symmetry_equiv_pos_site_id
_symmetry_equiv_pos_as_xyz
1 x,y,z
_cell_length_a                   20.073(4)
_cell_length_b                   20.073(4)
_cell_length_c                   15.195(6)
_cell_angle_alpha                90
_cell_angle_beta                 90
_cell_angle_gamma                120
_cell_volume                     5302.2
loop_
_atom_site_label
_atom_site_type_symbol
_atom_site_fract_x
_atom_site_fract_y
_atom_site_fract_z
H28 H 0.5615 0.0089 0.1705
H34 H 0.4475 0.0089 0.1705
Cl15 Cl 0.59429(11) 0.0000 0.5000
Cl16 Cl 0.40575(11) 0.0000 0.5000
C1 C 0.22252(17) 0.4450(3) 0.0452(3)
C2 C 0.2274(2) 0.3771(2) 0.1674(2)
H1 H 0.2192 0.3244 0.1628
C3 C 0.21586(16) 0.4317(3) 0.2991(3)
C4 C 0.3344(2) 0.4242(2) 0.2821(2)
H2 H 0.3373 0.3778 0.2698
H3 H 0.3372 0.4315 0.3460
N1 N 0.26666(19) 0.4230(2) 0.0913(2)
N2 N 0.26107(19) 0.4123(2) 0.2515(2)
O3 O 0.22972(15) 0.4594(3) 0.3733(3)
C5 C 0.44415(17) 0.55581(34) 0.2881(3)
C6 C 0.4393(2) 0.4830(3) 0.1659(2)
H4 H 0.4475 0.4385 0.1705
C7 C 0.45081(16) 0.54917(34) 0.0342(3)
C8 C 0.3323(2) 0.4231(3) 0.0512(2)
H5 H 0.3294 0.3738 0.0635
N3 N 0.40001(19) 0.48967(28) 0.2420(2)
N4 N 0.40560(19) 0.48456(28) 0.0818(2)
O4 O 0.42801(17) 0.57197(34) 0.3592(3)
C9 C 0.1497(3) 0.3771(2) 0.1674(2)
H7 H 0.1052 0.3244 0.1628
C10 C 0.0898(3) 0.4242(2) 0.2821(2)
H8 H 0.0405 0.3778 0.2698
H9 H 0.0943 0.4315 0.3460
N5 N 0.15634(28) 0.4230(2) 0.0913(2)
N6 N 0.15123(28) 0.4123(2) 0.2515(2)
C11 C 0.1117(3) 0.55585(17) 0.2881(3)
C12 C 0.0438(2) 0.4830(3) 0.1659(2)
C13 C 0.0984(3) 0.54919(16) 0.0342(3)
C14 C 0.0909(2) 0.4231(3) 0.0512(2)
H11 H 0.0445 0.3738 0.0635
N7 N 0.0897(2) 0.48967(28) 0.2420(2)
N8 N 0.0790(2) 0.48456(28) 0.0818(2)
O6 O 0.1440(3) 0.57199(17) 0.3592(3)
C15 C 0.5170(3) 0.5607(2) 0.1659(2)
H13 H 0.5615 0.5525 0.1705
C16 C 0.5769(3) 0.6677(2) 0.0512(2)
H14 H 0.6262 0.6706 0.0635
N9 N 0.51033(28) 0.59999(19) 0.2420(2)
N10 N 0.51544(28) 0.59440(19) 0.0818(2)
C17 C 0.0438(2) 0.5607(2) 0.1659(2)
C18 C 0.0909(2) 0.6677(2) 0.0512(2)
H17 H 0.0445 0.6706 0.0635
N11 N 0.0897(2) 0.59999(19) 0.2420(2)
N12 N 0.0790(2) 0.59440(19) 0.0818(2)
C19 C 0.5550(3) 0.77752(34) 0.0452(3)
C20 C 0.6229(2) 0.7726(2) 0.1674(2)
H19 H 0.6756 0.7808 0.1628
C21 C 0.5683(3) 0.78416(34) 0.2991(3)
C22 C 0.5758(2) 0.6656(2) 0.2821(2)
H20 H 0.6222 0.6627 0.2698
H21 H 0.5685 0.6628 0.3460
N13 N 0.5770(2) 0.73334(19) 0.0913(2)
N14 N 0.5877(2) 0.73893(19) 0.2515(2)
O9 O 0.5406(3) 0.77032(34) 0.3733(3)
C23 C 0.6229(2) 0.8503(3) 0.1674(2)
H22 H 0.6756 0.8948 0.1628
C24 C 0.5758(2) 0.9102(3) 0.2821(2)
H23 H 0.6222 0.9595 0.2698
H24 H 0.5685 0.9057 0.3460
N15 N 0.5770(2) 0.84366(28) 0.0913(2)
N16 N 0.5877(2) 0.84877(28) 0.2515(2)
C25 C 0.22248(34) 0.77748(17) 0.0452(3)
C26 C 0.1497(3) 0.7726(2) 0.1674(2)
H25 H 0.1052 0.7808 0.1628
C27 C 0.21584(34) 0.78414(16) 0.2991(3)
C28 C 0.0898(3) 0.6656(2) 0.2821(2)
H26 H 0.0405 0.6627 0.2698
H27 H 0.0943 0.6628 0.3460
N17 N 0.15634(28) 0.73334(19) 0.0913(2)
N18 N 0.15123(28) 0.73893(19) 0.2515(2)
O11 O 0.22968(34) 0.77028(15) 0.3733(3)
C29 C 0.44419(34) 0.8883(3) 0.2881(3)
C30 C 0.5170(3) 0.9562(2) 0.1659(2)
C31 C 0.45083(34) 0.9016(3) 0.0342(3)
C32 C 0.5769(3) 0.9091(2) 0.0512(2)
H29 H 0.6262 0.9555 0.0635
N19 N 0.51033(28) 0.9103(2) 0.2420(2)
N20 N 0.51544(28) 0.9210(2) 0.0818(2)
O12 O 0.42803(34) 0.8560(3) 0.3592(3)
C33 C 0.2274(2) 0.8503(3) 0.1674(2)
H31 H 0.2192 0.8948 0.1628
C34 C 0.3344(2) 0.9102(3) 0.2821(2)
H32 H 0.3373 0.9595 0.2698
H33 H 0.3372 0.9057 0.3460
N21 N 0.26666(19) 0.84366(28) 0.0913(2)
N22 N 0.26107(19) 0.84877(28) 0.2515(2)
C35 C 0.4393(2) 0.9562(2) 0.1659(2)
C36 C 0.3323(2) 0.9091(2) 0.0512(2)
H35 H 0.3294 0.9555 0.0635
N23 N 0.40001(19) 0.9103(2) 0.2420(2)
N24 N 0.40560(19) 0.9210(2) 0.0818(2)
Cd4 Cd 0.08166(7) 0.54082(3) 0.51888(6)
Cl7 Cl 0.0888(2) 0.54436(12) 0.6837(2)
O16 O 0.1909(4) 0.6528(5) 0.5169(3)
Cd5 Cd 0.45918(3) 0.54083(8) 0.51888(6)
Cl8 Cl 0.45564(12) 0.54440(23) 0.6837(2)
O17 O 0.3472(5) 0.5380(6) 0.5169(3)
Cd6 Cd 0.45917(8) 0.91834(7) 0.51888(6)
Cl9 Cl 0.45560(23) 0.9112(2) 0.6837(2)
O18 O 0.4620(6) 0.8091(4) 0.5169(3)
O22 O 0.3472(5) 0.8091(4) 0.5169(3)
O23 O 0.1909(4) 0.5380(6) 0.5169(3)
O24 O 0.4620(6) 0.6528(5) 0.5169(3)
Cl13 Cl -0.0000 0.59425(11) 0.5000
Cl14 Cl 0.40575(11) 0.40571(11) 0.5000
Cl15_2 Cl 0.59429(11) 1.0000 0.5000
Cl16_2 Cl 0.40575(11) 1.0000 0.5000
Cl17 Cl -0.0000 0.40571(11) 0.5000
Cl18 Cl 0.59429(11) 0.59425(11) 0.5000
H10 H 0.9911 0.4385 0.1705
H16 H 0.9911 0.5525 0.1705
Cl13_2 Cl 1.0000 0.59425(11) 0.5000
Cl17_2 Cl 1.0000 0.40571(11) 0.5000
H28_2 H 0.0089 0.5615 0.8295
H34_2 H 0.0089 0.4475 0.8295
C1_2 C 0.4450(3) 0.22252(17) 0.9548(3)
C2_2 C 0.3771(2) 0.2274(2) 0.8326(2)
H1_2 H 0.3244 0.2192 0.8372
C3_2 C 0.4317(3) 0.21586(16) 0.7009(3)
C4_2 C 0.4242(2) 0.3344(2) 0.7179(2)
H2_2 H 0.3778 0.3373 0.7302
H3_2 H 0.4315 0.3372 0.6540
N1_2 N 0.4230(2) 0.26666(19) 0.9087(2)
N2_2 N 0.4123(2) 0.26107(19) 0.7485(2)
O3_2 O 0.4594(3) 0.22972(15) 0.6267(3)
C5_2 C 0.55581(34) 0.44415(17) 0.7119(3)
C6_2 C 0.4830(3) 0.4393(2) 0.8341(2)
H4_2 H 0.4385 0.4475 0.8295
C7_2 C 0.54917(34) 0.45081(16) 0.9658(3)
C8_2 C 0.4231(3) 0.3323(2) 0.9488(2)
H5_2 H 0.3738 0.3294 0.9365
N3_2 N 0.48967(28) 0.40001(19) 0.7580(2)
N4_2 N 0.48456(28) 0.40560(19) 0.9182(2)
O4_2 O 0.57197(34) 0.42801(17) 0.6408(3)
C9_2 C 0.3771(2) 0.1497(3) 0.8326(2)
H7_2 H 0.3244 0.1052 0.8372
C10_2 C 0.4242(2) 0.0898(3) 0.7179(2)
H8_2 H 0.3778 0.0405 0.7302
H9_2 H 0.4315 0.0943 0.6540
N5_2 N 0.4230(2) 0.15634(28) 0.9087(2)
N6_2 N 0.4123(2) 0.15123(28) 0.7485(2)
C11_2 C 0.55585(17) 0.1117(3) 0.7119(3)
C12_2 C 0.4830(3) 0.0438(2) 0.8341(2)
C13_2 C 0.54919(16) 0.0984(3) 0.9658(3)
C14_2 C 0.4231(3) 0.0909(2) 0.9488(2)
H11_2 H 0.3738 0.0445 0.9365
N7_2 N 0.48967(28) 0.0897(2) 0.7580(2)
N8_2 N 0.48456(28) 0.0790(2) 0.9182(2)
O6_2 O 0.57199(17) 0.1440(3) 0.6408(3)
C15_2 C 0.5607(2) 0.5170(3) 0.8341(2)
H13_2 H 0.5525 0.5615 0.8295
C16_2 C 0.6677(2) 0.5769(3) 0.9488(2)
H14_2 H 0.6706 0.6262 0.9365
N9_2 N 0.59999(19) 0.51033(28) 0.7580(2)
N10_2 N 0.59440(19) 0.51544(28) 0.9182(2)
C17_2 C 0.5607(2) 0.0438(2) 0.8341(2)
C18_2 C 0.6677(2) 0.0909(2) 0.9488(2)
H17_2 H 0.6706 0.0445 0.9365
N11_2 N 0.59999(19) 0.0897(2) 0.7580(2)
N12_2 N 0.59440(19) 0.0790(2) 0.9182(2)
C19_2 C 0.77752(34) 0.5550(3) 0.9548(3)
C20_2 C 0.7726(2) 0.6229(2) 0.8326(2)
H19_2 H 0.7808 0.6756 0.8372
C21_2 C 0.78416(34) 0.5683(3) 0.7009(3)
C22_2 C 0.6656(2) 0.5758(2) 0.7179(2)
H20_2 H 0.6627 0.6222 0.7302
H21_2 H 0.6628 0.5685 0.6540
N13_2 N 0.73334(19) 0.5770(2) 0.9087(2)
N14_2 N 0.73893(19) 0.5877(2) 0.7485(2)
O9_2 O 0.77032(34) 0.5406(3) 0.6267(3)
C23_2 C 0.8503(3) 0.6229(2) 0.8326(2)
H22_2 H 0.8948 0.6756 0.8372
C24_2 C 0.9102(3) 0.5758(2) 0.7179(2)
H23_2 H 0.9595 0.6222 0.7302
H24_2 H 0.9057 0.5685 0.6540
N15_2 N 0.84366(28) 0.5770(2) 0.9087(2)
N16_2 N 0.84877(28) 0.5877(2) 0.7485(2)
C25_2 C 0.77748(17) 0.22248(34) 0.9548(3)
C26_2 C 0.7726(2) 0.1497(3) 0.8326(2)
H25_2 H 0.7808 0.1052 0.8372
C27_2 C 0.78414(16) 0.21584(34) 0.7009(3)
C28_2 C 0.6656(2) 0.0898(3) 0.7179(2)
H26_2 H 0.6627 0.0405 0.7302
H27_2 H 0.6628 0.0943 0.6540
N17_2 N 0.73334(19) 0.15634(28) 0.9087(2)
N18_2 N 0.73893(19) 0.15123(28) 0.7485(2)
O11_2 O 0.77028(15) 0.22968(34) 0.6267(3)
C29_2 C 0.8883(3) 0.44419(34) 0.7119(3)
C30_2 C 0.9562(2) 0.5170(3) 0.8341(2)
C31_2 C 0.9016(3) 0.45083(34) 0.9658(3)
C32_2 C 0.9091(2) 0.5769(3) 0.9488(2)
H29_2 H 0.9555 0.6262 0.9365
N19_2 N 0.9103(2) 0.51033(28) 0.7580(2)
N20_2 N 0.9210(2) 0.51544(28) 0.9182(2)
O12_2 O 0.8560(3) 0.42803(34) 0.6408(3)
C33_2 C 0.8503(3) 0.2274(2) 0.8326(2)
H31_2 H 0.8948 0.2192 0.8372
C34_2 C 0.9102(3) 0.3344(2) 0.7179(2)
H32_2 H 0.9595 0.3373 0.7302
H33_2 H 0.9057 0.3372 0.6540
N21_2 N 0.84366(28) 0.26666(19) 0.9087(2)
N22_2 N 0.84877(28) 0.26107(19) 0.7485(2)
C35_2 C 0.9562(2) 0.4393(2) 0.8341(2)
C36_2 C 0.9091(2) 0.3323(2) 0.9488(2)
H35_2 H 0.9555 0.3294 0.9365
N23_2 N 0.9103(2) 0.40001(19) 0.7580(2)
N24_2 N 0.9210(2) 0.40560(19) 0.9182(2)
Cd4_2 Cd 0.54082(3) 0.08166(7) 0.48112(6)
Cl7_2 Cl 0.54436(12) 0.0888(2) 0.3163(2)
O16_2 O 0.6528(5) 0.1909(4) 0.4831(3)
Cd5_2 Cd 0.54083(8) 0.45918(3) 0.48112(6)
Cl8_2 Cl 0.54440(23) 0.45564(12) 0.3163(2)
O17_2 O 0.5380(6) 0.3472(5) 0.4831(3)
Cd6_2 Cd 0.91834(7) 0.45917(8) 0.48112(6)
Cl9_2 Cl 0.9112(2) 0.45560(23) 0.3163(2)
O18_2 O 0.8091(4) 0.4620(6) 0.4831(3)
O22_2 O 0.8091(4) 0.3472(5) 0.4831(3)
O23_2 O 0.5380(6) 0.1909(4) 0.4831(3)
O24_2 O 0.6528(5) 0.4620(6) 0.4831(3)
H10_2 H 0.4385 0.9911 0.8295
H16_2 H 0.5525 0.9911 0.8295
Cl1 Cl 0.26092(11) 0.3333 0.8333
Cd1 Cd 0.20749(3) 0.41499(7) 0.81445(6)
Cl2 Cl 0.21103(12) 0.4221(2) 0.6496(2)
O1 O 0.3195(5) 0.5242(4) 0.8164(3)
O2 O 0.23866(17) 0.4773(3) 0.9741(3)
H6 H 0.3295 0.4276 0.9873
O5 O 0.43695(15) 0.56301(34) 0.9600(3)
H12 H 0.0982 0.4276 0.9873
O7 O 0.1261(3) 0.56305(15) 0.9600(3)
H15 H 0.5724 0.6705 0.9873
H18 H 0.0982 0.6705 0.9873
O8 O 0.5227(3) 0.76136(34) 0.9741(3)
O10 O 0.23864(34) 0.76134(17) 0.9741(3)
H30 H 0.5724 0.9018 0.9873
O13 O 0.43699(34) 0.8739(3) 0.9600(3)
H36 H 0.3295 0.9018 0.9873
Cl3 Cl 0.6667 0.92762(11) 0.8333
Cd2 Cd 0.58501(7) 0.79250(8) 0.81445(6)
Cl4 Cl 0.5779(2) 0.78893(23) 0.6496(2)
O14 O 0.4758(4) 0.7953(6) 0.8164(3)
Cl5 Cl 0.07238(11) 0.73908(11) 0.8333
Cd3 Cd 0.20750(8) 0.79251(3) 0.81445(6)
Cl6 Cl 0.21107(23) 0.78897(12) 0.6496(2)
O15 O 0.2047(6) 0.6805(5) 0.8164(3)
Cl10 Cl 0.6667 0.73908(11) 0.8333
O19 O 0.4758(4) 0.6805(5) 0.8164(3)
Cl11 Cl 0.26092(11) 0.92762(11) 0.8333
O20 O 0.3195(5) 0.7953(6) 0.8164(3)
Cl12 Cl 0.07238(11) 0.3333 0.8333
O21 O 0.2047(6) 0.5242(4) 0.8164(3)
Cd7 Cd 0.74832(7) 0.87416(3) 0.85222(6)
Cd8 Cd 0.12584(3) 0.87417(8) 0.85222(6)
Cd9 Cd 0.12583(8) 0.25168(7) 0.85222(6)
Cl1_2 Cl 0.3333 0.26092(11) 0.1667
Cd1_2 Cd 0.41499(7) 0.20749(3) 0.18555(6)
Cl2_2 Cl 0.4221(2) 0.21103(12) 0.3504(2)
O1_2 O 0.5242(4) 0.3195(5) 0.1836(3)
O2_2 O 0.4773(3) 0.23866(17) 0.0259(3)
H6_2 H 0.4276 0.3295 0.0127
O5_2 O 0.56301(34) 0.43695(15) 0.0400(3)
H12_2 H 0.4276 0.0982 0.0127
O7_2 O 0.56305(15) 0.1261(3) 0.0400(3)
H15_2 H 0.6705 0.5724 0.0127
H18_2 H 0.6705 0.0982 0.0127
O8_2 O 0.76136(34) 0.5227(3) 0.0259(3)
O10_2 O 0.76134(17) 0.23864(34) 0.0259(3)
H30_2 H 0.9018 0.5724 0.0127
O13_2 O 0.8739(3) 0.43699(34) 0.0400(3)
H36_2 H 0.9018 0.3295 0.0127
Cl3_2 Cl 0.92762(11) 0.6667 0.1667
Cd2_2 Cd 0.79250(8) 0.58501(7) 0.18555(6)
Cl4_2 Cl 0.78893(23) 0.5779(2) 0.3504(2)
O14_2 O 0.7953(6) 0.4758(4) 0.1836(3)
Cl5_2 Cl 0.73908(11) 0.07238(11) 0.1667
Cd3_2 Cd 0.79251(3) 0.20750(8) 0.18555(6)
Cl6_2 Cl 0.78897(12) 0.21107(23) 0.3504(2)
O15_2 O 0.6805(5) 0.2047(6) 0.1836(3)
Cl10_2 Cl 0.73908(11) 0.6667 0.1667
O19_2 O 0.6805(5) 0.4758(4) 0.1836(3)
Cl11_2 Cl 0.92762(11) 0.26092(11) 0.1667
O20_2 O 0.7953(6) 0.3195(5) 0.1836(3)
Cl12_2 Cl 0.3333 0.07238(11) 0.1667
O21_2 O 0.5242(4) 0.2047(6) 0.1836(3)
Cd7_2 Cd 0.87416(3) 0.74832(7) 0.14778(6)
Cd8_2 Cd 0.87417(8) 0.12584(3) 0.14778(6)
Cd9_2 Cd 0.25168(7) 0.12583(8) 0.14778(6)
C16_3 C 0.2435(3) 0.0011(2) 0.3846(2)
H14_3 H 0.2928 0.0040 0.3969
H15_3 H 0.2390 0.0039 0.3207
C19_3 C 0.2217(3) 0.11085(34) 0.3785(3)
C20_3 C 0.2896(2) 0.1059(2) 0.5007(2)
H19_3 H 0.3423 0.1141 0.4961
C21_3 C 0.2350(3) 0.11749(34) 0.6324(3)
N13_3 N 0.2437(2) 0.06667(19) 0.4246(2)
N14_3 N 0.2544(2) 0.07226(19) 0.5848(2)
O8_3 O 0.1894(3) 0.09469(34) 0.3074(3)
O9_3 O 0.2073(3) 0.10365(34) 0.7066(3)
C23_3 C 0.2896(2) 0.1836(3) 0.5007(2)
H22_3 H 0.3423 0.2281 0.4961
C24_3 C 0.2425(2) 0.2435(3) 0.6154(2)
H23_3 H 0.2889 0.2928 0.6031
H24_3 H 0.2352 0.2390 0.6793
N15_3 N 0.2437(2) 0.17699(28) 0.4246(2)
N16_3 N 0.2544(2) 0.18210(28) 0.5848(2)
C29_3 C 0.11085(34) 0.2217(3) 0.6215(3)
C30_3 C 0.1836(3) 0.2896(2) 0.4993(2)
H28_3 H 0.2281 0.3423 0.5039
C31_3 C 0.11749(34) 0.2350(3) 0.3676(3)
C32_3 C 0.2435(3) 0.2425(2) 0.3846(2)
H29_3 H 0.2928 0.2889 0.3969
H30_3 H 0.2390 0.2352 0.3207
N19_3 N 0.17699(28) 0.2437(2) 0.5754(2)
N20_3 N 0.18210(28) 0.2544(2) 0.4152(2)
O12_3 O 0.09469(34) 0.1894(3) 0.6926(3)
O13_3 O 0.10365(34) 0.2073(3) 0.2934(3)
C34_3 C 0.0011(2) 0.2435(3) 0.6154(2)
H32_3 H 0.0040 0.2928 0.6031
H33_3 H 0.0039 0.2390 0.6793
C35_3 C 0.1059(2) 0.2896(2) 0.4993(2)
H34_3 H 0.1141 0.3423 0.5039
N23_3 N 0.06667(19) 0.2437(2) 0.5754(2)
N24_3 N 0.07226(19) 0.2544(2) 0.4152(2)
O14_3 O 0.1425(4) 0.1286(6) 0.1497(3)
O18_3 O 0.1286(6) 0.1425(4) 0.8503(3)
O19_3 O 0.1425(4) 0.0138(5) 0.1497(3)
O22_3 O 0.0138(5) 0.1425(4) 0.8503(3)
H40 H 0.00934944 0.141281 0.0900231
H60 H 0.141281 0.00934944 0.909977
C4_3 C 0.0011(2) 0.7575(2) 0.6154(2)
H2_3 H 0.0040 0.7111 0.6031
H3_3 H 0.0039 0.7648 0.6793
C5_3 C 0.11081(17) 0.88915(34) 0.6215(3)
C6_3 C 0.1059(2) 0.8164(3) 0.4993(2)
H4_3 H 0.1141 0.7719 0.5039
C7_3 C 0.11747(16) 0.88251(34) 0.3676(3)
N3_3 N 0.06667(19) 0.82301(28) 0.5754(2)
N4_3 N 0.07226(19) 0.81790(28) 0.4152(2)
O4_3 O 0.09467(17) 0.90531(34) 0.6926(3)
O5_3 O 0.10361(15) 0.89635(34) 0.2934(3)
C15_3 C 0.1836(3) 0.8941(2) 0.4993(2)
H13_3 H 0.2281 0.8859 0.5039
N9_3 N 0.17699(28) 0.93333(19) 0.5754(2)
N10_3 N 0.18210(28) 0.92774(19) 0.4152(2)
C22_3 C 0.2425(2) 0.9989(2) 0.6154(2)
H20_3 H 0.2889 0.9960 0.6031
H21_3 H 0.2352 0.9961 0.6793
O17_3 O 0.0138(5) 0.8714(6) 0.8503(3)
O24_3 O 0.1286(6) 0.9862(5) 0.8503(3)
H37 H 0.0189526 0.857479 0.100828
H48 H 0.131931 0.990651 0.0900231
C18_3 C 0.7575(2) 0.0011(2) 0.3846(2)
H17_3 H 0.7111 0.0040 0.3969
H18_3 H 0.7648 0.0039 0.3207
C25_3 C 0.88915(34) 0.11081(17) 0.3785(3)
C26_3 C 0.8164(3) 0.1059(2) 0.5007(2)
H25_3 H 0.7719 0.1141 0.4961
C27_3 C 0.88251(34) 0.11747(16) 0.6324(3)
N17_3 N 0.82301(28) 0.06667(19) 0.4246(2)
N18_3 N 0.81790(28) 0.07226(19) 0.5848(2)
O10_3 O 0.90531(34) 0.09467(17) 0.3074(3)
O11_3 O 0.89635(34) 0.10361(15) 0.7066(3)
C33_3 C 0.8941(2) 0.1836(3) 0.5007(2)
H31_3 H 0.8859 0.2281 0.4961
N21_3 N 0.93333(19) 0.17699(28) 0.4246(2)
N22_3 N 0.92774(19) 0.18210(28) 0.5848(2)
C36_3 C 0.9989(2) 0.2425(2) 0.3846(2)
H35_3 H 0.9960 0.2889 0.3969
H36_3 H 0.9961 0.2352 0.3207
O15_3 O 0.8714(6) 0.0138(5) 0.1497(3)
O20_3 O 0.9862(5) 0.1286(6) 0.1497(3)
H43 H 0.852987 0.0213386 0.807878
H44 H 0.868072 0.00934495 0.909979
H54 H 0.990651 0.131931 0.909977
O1_3 O 0.9862(5) 0.8575(4) 0.1497(3)
C1_3 C 0.88919(17) 0.7783(3) 0.3785(3)
C2_3 C 0.8941(2) 0.7104(2) 0.5007(2)
H1_3 H 0.8859 0.6577 0.4961
C3_3 C 0.88253(16) 0.7650(3) 0.6324(3)
N1_3 N 0.93333(19) 0.7563(2) 0.4246(2)
N2_3 N 0.92774(19) 0.7456(2) 0.5848(2)
O2_3 O 0.90533(17) 0.8106(3) 0.3074(3)
O3_3 O 0.89639(15) 0.7927(3) 0.7066(3)
C8_3 C 0.9989(2) 0.7565(3) 0.3846(2)
H5_3 H 0.9960 0.7072 0.3969
H6_3 H 0.9961 0.7610 0.3207
C9_3 C 0.8164(3) 0.7104(2) 0.5007(2)
H7_3 H 0.7719 0.6577 0.4961
C10_3 C 0.7565(3) 0.7575(2) 0.6154(2)
H8_3 H 0.7072 0.7111 0.6031
H9_3 H 0.7610 0.7648 0.6793
N5_3 N 0.82301(28) 0.7563(2) 0.4246(2)
N6_3 N 0.81790(28) 0.7456(2) 0.5848(2)
C11_3 C 0.7783(3) 0.88919(17) 0.6215(3)
C12_3 C 0.7104(2) 0.8164(3) 0.4993(2)
H10_3 H 0.6577 0.7719 0.5039
C13_3 C 0.7650(3) 0.88253(16) 0.3676(3)
C14_3 C 0.7575(2) 0.7565(3) 0.3846(2)
H11_3 H 0.7111 0.7072 0.3969
H12_3 H 0.7648 0.7610 0.3207
N7_3 N 0.7563(2) 0.82301(28) 0.5754(2)
N8_3 N 0.7456(2) 0.81790(28) 0.4152(2)
O6_3 O 0.8106(3) 0.90533(17) 0.6926(3)
O7_3 O 0.7927(3) 0.89639(15) 0.2934(3)
C17_3 C 0.7104(2) 0.8941(2) 0.4993(2)
H16_3 H 0.6577 0.8859 0.5039
N11_3 N 0.7563(2) 0.93333(19) 0.5754(2)
N12_3 N 0.7456(2) 0.92774(19) 0.4152(2)
C28_3 C 0.7565(3) 0.9989(2) 0.6154(2)
H26_3 H 0.7072 0.9960 0.6031
H27_3 H 0.7610 0.9961 0.6793
O16_3 O 0.8575(4) 0.9862(5) 0.8503(3)
O21_3 O 0.8714(6) 0.8575(4) 0.1497(3)
O23_3 O 0.8575(4) 0.8714(6) 0.8503(3)
H49 H 0.978661 0.831649 0.807878
H50 H 0.990655 0.858727 0.909979
H55 H 0.831649 0.978661 0.192122
H56 H 0.858727 0.990655 0.0900206
H55_2 H 0.0213386 0.852987 0.192122
H56_2 H 0.00934495 0.868072 0.0900206
H58 H 0.152285 0.972544 0.129243
H58_2 H 0.0274561 0.179742 0.129243
H37_2 H 0.838526 0.981047 0.100828
H37_3 H 0.857479 0.0189526 0.899172
H58_3 H 0.179742 0.0274561 0.870757
H37_4 H 0.981047 0.838526 0.899172
H58_4 H 0.972544 0.152285 0.870757
H49_2 H 0.0213386 0.168351 0.192122
H55_3 H 0.168351 0.0213386 0.807878
H43_2 H 0.147013 0.978661 0.192122
H37_5 H 0.981047 0.142521 0.899172
H55_4 H 0.978661 0.147013 0.807878
H58_5 H 0.847715 0.0274561 0.870757
H37_6 H 0.161474 0.0189526 0.899172
H58_6 H 0.972544 0.820258 0.870757
H37_7 H 0.142521 0.981047 0.100828
H37_8 H 0.0189526 0.161474 0.100828
H58_7 H 0.820258 0.972544 0.129243
H58_8 H 0.0274561 0.847715 0.129243
Cl9_3 Cl 0.12226(23) 0.2446(2) 0.0171(2)
Cl4_3 Cl 0.2446(2) 0.12226(23) 0.9829(2)
Cl8_3 Cl 0.12230(12) 0.87774(23) 0.0171(2)
Cl6_3 Cl 0.87774(23) 0.12230(12) 0.9829(2)
Cl7_3 Cl 0.7554(2) 0.87770(12) 0.0171(2)
Cl2_3 Cl 0.87770(12) 0.7554(2) 0.9829(2)
loop_
_geom_bond_atom_site_label_1
_geom_bond_atom_site_label_2
_geom_bond_site_symmetry_1
_geom_bond_site_symmetry_2
C1 N1 1_555 1_555
C2 H1 1_555 1_555
C3 N2 1_555 1_555
C4 H2 1_555 1_555
H3 C4 1_555 1_555
N1 C2 1_555 1_555
N2 C2 1_555 1_555
O3 C3 1_555 1_555
C5 N3 1_555 1_555
C6 H4 1_555 1_555
C7 N4 1_555 1_555
C8 N1 1_555 1_555
H5 C8 1_555 1_555
N3 C4 1_555 1_555
N4 C6 1_555 1_555
O4 C5 1_555 1_555
C9 C2 1_555 1_555
H7 C9 1_555 1_555
C10 H8 1_555 1_555
H9 C10 1_555 1_555
N5 C1 1_555 1_555
N6 C3 1_555 1_555
C11 N7 1_555 1_555
C13 N8 1_555 1_555
C14 N5 1_555 1_555
H11 C14 1_555 1_555
N7 C10 1_555 1_555
N8 C12 1_555 1_555
O6 C11 1_555 1_555
C15 C6 1_555 1_555
H13 C15 1_555 1_555
C16 H14 1_555 1_555
N9 C5 1_555 1_555
N10 C7 1_555 1_555
C17 C12 1_555 1_555
C18 H17 1_555 1_555
N11 C11 1_555 1_555
N12 C13 1_555 1_555
C19 N13 1_555 1_555
C20 H19 1_555 1_555
C21 N14 1_555 1_555
C22 N9 1_555 1_555
H20 C22 1_555 1_555
H21 C22 1_555 1_555
N13 C16 1_555 1_555
N14 C20 1_555 1_555
O9 C21 1_555 1_555
C23 C20 1_555 1_555
H22 C23 1_555 1_555
C24 H23 1_555 1_555
H24 C24 1_555 1_555
N15 C19 1_555 1_555
N16 C21 1_555 1_555
C25 N17 1_555 1_555
C26 H25 1_555 1_555
C27 N18 1_555 1_555
C28 N11 1_555 1_555
H26 C28 1_555 1_555
H27 C28 1_555 1_555
N17 C18 1_555 1_555
N18 C26 1_555 1_555
O11 C27 1_555 1_555
C29 N19 1_555 1_555
C31 N20 1_555 1_555
C32 N15 1_555 1_555
H29 C32 1_555 1_555
N19 C24 1_555 1_555
N20 C30 1_555 1_555
O12 C29 1_555 1_555
C33 C26 1_555 1_555
H31 C33 1_555 1_555
C34 H32 1_555 1_555
H33 C34 1_555 1_555
N21 C25 1_555 1_555
N22 C27 1_555 1_555
C35 C30 1_555 1_555
C36 N21 1_555 1_555
H35 C36 1_555 1_555
N23 C29 1_555 1_555
N24 C31 1_555 1_555
Cd4 O6 1_555 1_555
Cl7 Cd4 1_555 1_555
O16 Cd4 1_555 1_555
Cd5 O4 1_555 1_555
Cl8 Cd5 1_555 1_555
O17 Cd5 1_555 1_555
Cd6 O12 1_555 1_555
Cl9 Cd6 1_555 1_555
O18 Cd6 1_555 1_555
O22 Cd6 1_555 1_555
O23 Cd4 1_555 1_555
O24 Cd5 1_555 1_555
Cl13 Cd4 1_555 1_555
Cl14 Cd5 1_555 1_555
Cl15_2 Cd6 1_555 1_555
Cl16_2 Cd6 1_555 1_555
Cl17 Cd4 1_555 1_555
Cl18 Cd5 1_555 1_555
C4 N2 1_555 1_555
C6 N3 1_555 1_555
C8 N4 1_555 1_555
C9 N5 1_555 1_555
C9 N6 1_555 1_555
C10 N6 1_555 1_555
C12 N7 1_555 1_555
C14 N8 1_555 1_555
C15 N9 1_555 1_555
C15 N10 1_555 1_555
C16 N10 1_555 1_555
C17 N11 1_555 1_555
C17 N12 1_555 1_555
C18 N12 1_555 1_555
C20 N13 1_555 1_555
C22 N14 1_555 1_555
C23 N15 1_555 1_555
C23 N16 1_555 1_555
C24 N16 1_555 1_555
C26 N17 1_555 1_555
C28 N18 1_555 1_555
C30 N19 1_555 1_555
C32 N20 1_555 1_555
C33 N21 1_555 1_555
C33 N22 1_555 1_555
C34 N22 1_555 1_555
C34 N23 1_555 1_555
C35 N23 1_555 1_555
C35 N24 1_555 1_555
C36 N24 1_555 1_555
C1_2 N1_2 1_555 1_555
C2_2 H1_2 1_555 1_555
C3_2 N2_2 1_555 1_555
C4_2 H2_2 1_555 1_555
H3_2 C4_2 1_555 1_555
N1_2 C2_2 1_555 1_555
N2_2 C2_2 1_555 1_555
O3_2 C3_2 1_555 1_555
C5_2 N3_2 1_555 1_555
C6_2 H4_2 1_555 1_555
C7_2 N4_2 1_555 1_555
C8_2 N1_2 1_555 1_555
H5_2 C8_2 1_555 1_555
N3_2 C4_2 1_555 1_555
N4_2 C6_2 1_555 1_555
O4_2 C5_2 1_555 1_555
C9_2 C2_2 1_555 1_555
H7_2 C9_2 1_555 1_555
C10_2 H8_2 1_555 1_555
H9_2 C10_2 1_555 1_555
N5_2 C1_2 1_555 1_555
N6_2 C3_2 1_555 1_555
C11_2 N7_2 1_555 1_555
C13_2 N8_2 1_555 1_555
C14_2 N5_2 1_555 1_555
H11_2 C14_2 1_555 1_555
N7_2 C10_2 1_555 1_555
N8_2 C12_2 1_555 1_555
O6_2 C11_2 1_555 1_555
C15_2 C6_2 1_555 1_555
H13_2 C15_2 1_555 1_555
C16_2 H14_2 1_555 1_555
N9_2 C5_2 1_555 1_555
N10_2 C7_2 1_555 1_555
C17_2 C12_2 1_555 1_555
C18_2 H17_2 1_555 1_555
N11_2 C11_2 1_555 1_555
N12_2 C13_2 1_555 1_555
C19_2 N13_2 1_555 1_555
C20_2 H19_2 1_555 1_555
C21_2 N14_2 1_555 1_555
C22_2 N9_2 1_555 1_555
H20_2 C22_2 1_555 1_555
H21_2 C22_2 1_555 1_555
N13_2 C16_2 1_555 1_555
N14_2 C20_2 1_555 1_555
O9_2 C21_2 1_555 1_555
C23_2 C20_2 1_555 1_555
H22_2 C23_2 1_555 1_555
C24_2 H23_2 1_555 1_555
H24_2 C24_2 1_555 1_555
N15_2 C19_2 1_555 1_555
N16_2 C21_2 1_555 1_555
C25_2 N17_2 1_555 1_555
C26_2 H25_2 1_555 1_555
C27_2 N18_2 1_555 1_555
C28_2 N11_2 1_555 1_555
H26_2 C28_2 1_555 1_555
H27_2 C28_2 1_555 1_555
N17_2 C18_2 1_555 1_555
N18_2 C26_2 1_555 1_555
O11_2 C27_2 1_555 1_555
C29_2 N19_2 1_555 1_555
C31_2 N20_2 1_555 1_555
C32_2 N15_2 1_555 1_555
H29_2 C32_2 1_555 1_555
N19_2 C24_2 1_555 1_555
N20_2 C30_2 1_555 1_555
O12_2 C29_2 1_555 1_555
C33_2 C26_2 1_555 1_555
H31_2 C33_2 1_555 1_555
C34_2 H32_2 1_555 1_555
H33_2 C34_2 1_555 1_555
N21_2 C25_2 1_555 1_555
N22_2 C27_2 1_555 1_555
C35_2 C30_2 1_555 1_555
C36_2 N21_2 1_555 1_555
H35_2 C36_2 1_555 1_555
N23_2 C29_2 1_555 1_555
N24_2 C31_2 1_555 1_555
Cd4_2 O6_2 1_555 1_555
Cl7_2 Cd4_2 1_555 1_555
O16_2 Cd4_2 1_555 1_555
Cd5_2 O4_2 1_555 1_555
Cl8_2 Cd5_2 1_555 1_555
O17_2 Cd5_2 1_555 1_555
Cd6_2 O12_2 1_555 1_555
Cl9_2 Cd6_2 1_555 1_555
O18_2 Cd6_2 1_555 1_555
O22_2 Cd6_2 1_555 1_555
O23_2 Cd4_2 1_555 1_555
O24_2 Cd5_2 1_555 1_555
Cl15 Cd4_2 1_555 1_555
Cl14 Cd5_2 1_555 1_555
Cl13_2 Cd6_2 1_555 1_555
Cl17_2 Cd6_2 1_555 1_555
Cl16 Cd4_2 1_555 1_555
Cl18 Cd5_2 1_555 1_555
C4_2 N2_2 1_555 1_555
C6_2 N3_2 1_555 1_555
C8_2 N4_2 1_555 1_555
C9_2 N5_2 1_555 1_555
C9_2 N6_2 1_555 1_555
C10_2 N6_2 1_555 1_555
C12_2 N7_2 1_555 1_555
C14_2 N8_2 1_555 1_555
C15_2 N9_2 1_555 1_555
C15_2 N10_2 1_555 1_555
C16_2 N10_2 1_555 1_555
C17_2 N11_2 1_555 1_555
C17_2 N12_2 1_555 1_555
C18_2 N12_2 1_555 1_555
C20_2 N13_2 1_555 1_555
C22_2 N14_2 1_555 1_555
C23_2 N15_2 1_555 1_555
C23_2 N16_2 1_555 1_555
C24_2 N16_2 1_555 1_555
C26_2 N17_2 1_555 1_555
C28_2 N18_2 1_555 1_555
C30_2 N19_2 1_555 1_555
C32_2 N20_2 1_555 1_555
C33_2 N21_2 1_555 1_555
C33_2 N22_2 1_555 1_555
C34_2 N22_2 1_555 1_555
C34_2 N23_2 1_555 1_555
C35_2 N23_2 1_555 1_555
C35_2 N24_2 1_555 1_555
C36_2 N24_2 1_555 1_555
Cl1 Cd1 1_555 1_555
Cd1 Cl2 1_555 1_555
O1 Cd1 1_555 1_555
O2 Cd1 1_555 1_555
Cl3 Cd2 1_555 1_555
Cd2 O8 1_555 1_555
Cl4 Cd2 1_555 1_555
O14 Cd2 1_555 1_555
Cl5 Cd3 1_555 1_555
Cd3 O10 1_555 1_555
Cl6 Cd3 1_555 1_555
O15 Cd3 1_555 1_555
Cl10 Cd2 1_555 1_555
O19 Cd2 1_555 1_555
Cl11 Cd3 1_555 1_555
O20 Cd3 1_555 1_555
Cl12 Cd1 1_555 1_555
O21 Cd1 1_555 1_555
Cd7 Cl3 1_555 1_555
Cd8 Cl5 1_555 1_555
Cd9 Cl1 1_555 1_555
Cl10 Cd7 1_555 1_555
Cl11 Cd8 1_555 1_555
Cl12 Cd9 1_555 1_555
Cl1_2 Cd1_2 1_555 1_555
Cd1_2 Cl2_2 1_555 1_555
O1_2 Cd1_2 1_555 1_555
O2_2 Cd1_2 1_555 1_555
Cl3_2 Cd2_2 1_555 1_555
Cd2_2 O8_2 1_555 1_555
Cl4_2 Cd2_2 1_555 1_555
O14_2 Cd2_2 1_555 1_555
Cl5_2 Cd3_2 1_555 1_555
Cd3_2 O10_2 1_555 1_555
Cl6_2 Cd3_2 1_555 1_555
O15_2 Cd3_2 1_555 1_555
Cl10_2 Cd2_2 1_555 1_555
O19_2 Cd2_2 1_555 1_555
Cl11_2 Cd3_2 1_555 1_555
O20_2 Cd3_2 1_555 1_555
Cl12_2 Cd1_2 1_555 1_555
O21_2 Cd1_2 1_555 1_555
Cd7_2 Cl3_2 1_555 1_555
Cd8_2 Cl5_2 1_555 1_555
Cd9_2 Cl1_2 1_555 1_555
Cl10_2 Cd7_2 1_555 1_555
Cl11_2 Cd8_2 1_555 1_555
Cl12_2 Cd9_2 1_555 1_555
C16_3 H14_3 1_555 1_555
H15_3 C16_3 1_555 1_555
C19_3 N13_3 1_555 1_555
C20_3 H19_3 1_555 1_555
C21_3 N14_3 1_555 1_555
N13_3 C16_3 1_555 1_555
N14_3 C20_3 1_555 1_555
O8_3 C19_3 1_555 1_555
O9_3 C21_3 1_555 1_555
C23_3 C20_3 1_555 1_555
H22_3 C23_3 1_555 1_555
C24_3 H23_3 1_555 1_555
H24_3 C24_3 1_555 1_555
N15_3 C19_3 1_555 1_555
N16_3 C21_3 1_555 1_555
C29_3 N19_3 1_555 1_555
C30_3 H28_3 1_555 1_555
C31_3 N20_3 1_555 1_555
C32_3 N15_3 1_555 1_555
H29_3 C32_3 1_555 1_555
H30_3 C32_3 1_555 1_555
N19_3 C24_3 1_555 1_555
N20_3 C30_3 1_555 1_555
O12_3 C29_3 1_555 1_555
O13_3 C31_3 1_555 1_555
C34_3 H32_3 1_555 1_555
H33_3 C34_3 1_555 1_555
C35_3 C30_3 1_555 1_555
H34_3 C35_3 1_555 1_555
N23_3 C29_3 1_555 1_555
N24_3 C31_3 1_555 1_555
Cd9_2 O8_3 1_555 1_555
O14_3 Cd9_2 1_555 1_555
Cd9 O12_3 1_555 1_555
O18_3 Cd9 1_555 1_555
O19_3 Cd9_2 1_555 1_555
O22_3 Cd9 1_555 1_555
C20_3 N13_3 1_555 1_555
C23_3 N15_3 1_555 1_555
C23_3 N16_3 1_555 1_555
C24_3 N16_3 1_555 1_555
C30_3 N19_3 1_555 1_555
C32_3 N20_3 1_555 1_555
C34_3 N23_3 1_555 1_555
C35_3 N23_3 1_555 1_555
C35_3 N24_3 1_555 1_555
C4_3 H2_3 1_555 1_555
H3_3 C4_3 1_555 1_555
C5_3 N3_3 1_555 1_555
C6_3 H4_3 1_555 1_555
C7_3 N4_3 1_555 1_555
N3_3 C4_3 1_555 1_555
N4_3 C6_3 1_555 1_555
O4_3 C5_3 1_555 1_555
O5_3 C7_3 1_555 1_555
C15_3 C6_3 1_555 1_555
H13_3 C15_3 1_555 1_555
N9_3 C5_3 1_555 1_555
N10_3 C7_3 1_555 1_555
C22_3 N9_3 1_555 1_555
H20_3 C22_3 1_555 1_555
H21_3 C22_3 1_555 1_555
Cd8 O4_3 1_555 1_555
O17_3 Cd8 1_555 1_555
O24_3 Cd8 1_555 1_555
C6_3 N3_3 1_555 1_555
C15_3 N9_3 1_555 1_555
C15_3 N10_3 1_555 1_555
C18_3 H17_3 1_555 1_555
H18_3 C18_3 1_555 1_555
C25_3 N17_3 1_555 1_555
C26_3 H25_3 1_555 1_555
C27_3 N18_3 1_555 1_555
N17_3 C18_3 1_555 1_555
N18_3 C26_3 1_555 1_555
O10_3 C25_3 1_555 1_555
O11_3 C27_3 1_555 1_555
C33_3 C26_3 1_555 1_555
H31_3 C33_3 1_555 1_555
N21_3 C25_3 1_555 1_555
N22_3 C27_3 1_555 1_555
C36_3 N21_3 1_555 1_555
H35_3 C36_3 1_555 1_555
H36_3 C36_3 1_555 1_555
Cd8_2 O10_3 1_555 1_555
O15_3 Cd8_2 1_555 1_555
O20_3 Cd8_2 1_555 1_555
C26_3 N17_3 1_555 1_555
C33_3 N21_3 1_555 1_555
C33_3 N22_3 1_555 1_555
O1_3 Cd7_2 1_555 1_555
C1_3 N1_3 1_555 1_555
C2_3 H1_3 1_555 1_555
C3_3 N2_3 1_555 1_555
N1_3 C2_3 1_555 1_555
N2_3 C2_3 1_555 1_555
O2_3 Cd7_2 1_555 1_555
O3_3 C3_3 1_555 1_555
C8_3 N1_3 1_555 1_555
H5_3 C8_3 1_555 1_555
H6_3 C8_3 1_555 1_555
C9_3 C2_3 1_555 1_555
H7_3 C9_3 1_555 1_555
C10_3 H8_3 1_555 1_555
H9_3 C10_3 1_555 1_555
N5_3 C1_3 1_555 1_555
N6_3 C3_3 1_555 1_555
C11_3 N7_3 1_555 1_555
C12_3 H10_3 1_555 1_555
C13_3 N8_3 1_555 1_555
C14_3 N5_3 1_555 1_555
H11_3 C14_3 1_555 1_555
H12_3 C14_3 1_555 1_555
N7_3 C10_3 1_555 1_555
N8_3 C12_3 1_555 1_555
O6_3 C11_3 1_555 1_555
O7_3 C13_3 1_555 1_555
C17_3 C12_3 1_555 1_555
H16_3 C17_3 1_555 1_555
N11_3 C11_3 1_555 1_555
N12_3 C13_3 1_555 1_555
C28_3 N11_3 1_555 1_555
H26_3 C28_3 1_555 1_555
H27_3 C28_3 1_555 1_555
Cd7 O6_3 1_555 1_555
O16_3 Cd7 1_555 1_555
O21_3 Cd7_2 1_555 1_555
O23_3 Cd7 1_555 1_555
C1_3 O2_3 1_555 1_555
C9_3 N5_3 1_555 1_555
C9_3 N6_3 1_555 1_555
C10_3 N6_3 1_555 1_555
C12_3 N7_3 1_555 1_555
C14_3 N8_3 1_555 1_555
C17_3 N11_3 1_555 1_555
C17_3 N12_3 1_555 1_555

#END
