
###############################################################################
#
# This file contains modified crystal structure data generated from the
# MOF subset of the Cambridge Structural Database (CSD) v543 
# hosted by the Cambridge Crystallographic Data Centre (CCDC).
#
# This work is licensed under the Creative Commons
# Attribution-NonCommercial-ShareAlike 4.0 International License.
# To view a copy of this license, visit
# http://creativecommons.org/licenses/by-nc-sa/4.0/
# or send a letter to
# Creative Commons, PO Box 1866, Mountain View, CA 94042, USA.
#
# CIF created using the CSD Python API on 29 September 2022
# The structure has been converted into the P1 space group
# The structure has a 3D framework
# The original CSD entry FEVPED is in the triclinic crystal system
# The framework has been calculated to contain at least 10.0% void space
# The void calculation uses a probe of radius 1.32A, grid spacing 0.4
# H atom positions have been added when not included in the experimental data
# Generated hydrogen atom positions removed from atoms on special positions
#
###############################################################################

data_FEVPED
_chemical_formula_moiety         '(C36 H108 Cd6 Cl6 N24 O27)n'
_symmetry_cell_setting           triclinic
_symmetry_space_group_name_H-M   'P 1'
_symmetry_Int_Tables_number      1
_space_group_name_Hall           'P 1'
loop_
_symmetry_equiv_pos_site_id
_symmetry_equiv_pos_as_xyz
1 x,y,z
_cell_length_a                   12.60(3)
_cell_length_b                   12.647(14)
_cell_length_c                   12.733(13)
_cell_angle_alpha                106.08(3)
_cell_angle_beta                 105.57(5)
_cell_angle_gamma                104.49(5)
_cell_volume                     1758.86
loop_
_atom_site_label
_atom_site_type_symbol
_atom_site_fract_x
_atom_site_fract_y
_atom_site_fract_z
_atom_site_U_iso_or_equiv
_atom_site_thermal_displace_type
O2 O 0.6409(4) 0.2730(4) 0.6410(5) 0.0510 Uani
O6 O 0.3509(8) 0.2023(8) 0.4835(11) 0.1235 Uani
O8 O 0.4852(11) 0.2041(8) 0.3533(9) 0.1322 Uani
Cd2 Cd 0.47919(10) 0.10180(12) 0.47893(11) 0.0555 Uani
C4 C 0.3669(6) 0.0156(6) 0.0146(7) 0.0433 Uani
C16 C 0.0154(5) 0.0153(6) 0.3660(6) 0.0338 Uani
O13 O 0.4132(5) 0.1034(4) 0.1042(5) 0.0475 Uani
O14 O 0.2895(5) 0.0046(5) 0.2899(6) 0.0611 Uani
O15 O 0.1042(5) 0.1041(5) 0.4152(6) 0.0571 Uani
C25 C 0.0148(6) 0.3664(6) 0.0144(6) 0.0389 Uani
O16 O 0.0045(5) 0.2897(5) 0.2891(5) 0.0574 Uani
O17 O 0.1043(5) 0.4154(5) 0.1034(5) 0.0528 Uani
O18 O 0.2892(5) 0.2894(5) 0.0023(5) 0.0610 Uani
Cl5 Cl 0.4059(3) 0.0014(5) 0.5949(3) 0.1098 Uani
Cd7 Cd 0.47912(10) 0.47903(10) 0.10194(12) 0.0542 Uani
Cd9 Cd 0.10167(11) 0.47909(11) 0.47906(11) 0.0556 Uani
Cl3 Cl 0.0026(5) 0.4071(3) 0.5942(3) 0.1108 Uani
C1 C 0.1014(6) 0.7671(6) 0.7671(7) 0.0402 Uani
C2 C 0.2909(6) 0.8955(6) 0.8161(7) 0.0409 Uani
H1 H 0.3389 0.8826 0.7669 0.0490 Uiso
C3 C 0.2901(6) 0.8164(6) 0.8957(6) 0.0356 Uani
H2 H 0.3379 0.7661 0.8836 0.0430 Uiso
C5 C 0.1280(6) 0.6442(6) 0.8827(7) 0.0430 Uani
H3 H 0.1907 0.6108 0.8927 0.0510 Uiso
H4 H 0.0597 0.5863 0.8146 0.0510 Uiso
C18 C 0.1284(7) 0.8849(7) 0.6417(6) 0.0436 Uani
H17 H 0.1915 0.8955 0.6102 0.0520 Uiso
H18 H 0.0603 0.8176 0.5824 0.0520 Uiso
N1 N 0.1679(5) 0.8581(6) 0.7484(5) 0.0433 Uani
N2 N 0.1670(5) 0.7479(5) 0.8583(6) 0.0436 Uani
N5 N 0.0963(5) 0.6620(5) 0.9853(5) 0.0415 Uani
N24 N 0.0972(5) 0.9864(5) 0.6617(6) 0.0423 Uani
O28 O 0.2736(4) 0.6420(4) 0.6410(5) 0.0509 Uani
O29 O 0.2051(7) 0.3536(8) 0.4803(10) 0.1216 Uani
O30 O 0.2055(7) 0.4865(11) 0.3549(9) 0.1312 Uani
C24 C 0.6420(6) 0.1274(7) 0.8844(7) 0.0436 Uani
H23 H 0.5840 0.0587 0.8167 0.0520 Uiso
H24 H 0.6082 0.1897 0.8951 0.0520 Uiso
C26 C 0.8180(6) 0.2901(6) 0.8938(6) 0.0405 Uani
H25 H 0.7683 0.3385 0.8824 0.0480 Uiso
C27 C 0.8960(6) 0.2914(6) 0.8161(7) 0.0469 Uani
H26 H 0.8831 0.3395 0.7676 0.0560 Uiso
C28 C 0.7667(7) 0.0993(6) 0.7679(7) 0.0471 Uani
C30 C 0.8844(6) 0.1284(6) 0.6426(6) 0.0413 Uani
H29 H 0.8968 0.1915 0.6117 0.0500 Uiso
H30 H 0.8166 0.0611 0.5830 0.0500 Uiso
N16 N 0.6612(5) 0.0968(5) 0.9866(5) 0.0420 Uani
N19 N 0.7470(5) 0.1670(5) 0.8581(6) 0.0456 Uani
N20 N 0.8583(5) 0.1678(5) 0.7466(5) 0.0403 Uani
N23 N 0.9851(5) 0.0951(5) 0.6623(5) 0.0384 Uani
C11 C 0.8843(6) 0.6435(6) 0.1254(7) 0.0416 Uani
H9 H 0.8933 0.6079 0.1851 0.0500 Uiso
H10 H 0.8171 0.5871 0.0554 0.0500 Uiso
C13 C 0.7670(6) 0.7666(6) 0.0999(6) 0.0402 Uani
C14 C 0.8955(5) 0.8171(6) 0.2912(6) 0.0320 Uani
H13 H 0.8848 0.7689 0.3396 0.0390 Uiso
C15 C 0.8166(6) 0.8952(6) 0.2902(7) 0.0403 Uani
H14 H 0.7669 0.8842 0.3375 0.0490 Uiso
N6 N 0.9860(5) 0.6614(5) 0.0969(5) 0.0412 Uani
N9 N 0.8577(5) 0.7468(5) 0.1681(5) 0.0443 Uani
N10 N 0.7481(5) 0.8585(5) 0.1680(5) 0.0380 Uani
C35 C 0.6424(6) 0.8832(7) 0.1274(7) 0.0441 Uani
H33 H 0.5848 0.8152 0.0587 0.0530 Uiso
H34 H 0.6088 0.8946 0.1890 0.0530 Uiso
N15 N 0.6621(5) 0.9872(5) 0.0960(6) 0.0437 Uani
O22 O 0.6413(5) 0.6419(5) 0.2734(4) 0.0538 Uani
O23 O 0.3523(8) 0.4827(11) 0.2033(8) 0.1283 Uani
O24 O 0.4809(11) 0.3540(10) 0.2025(8) 0.1330 Uani
Cl4 Cl 0.5943(3) 0.4058(3) 0.0007(5) 0.1065 Uani
C17 C 0.3576(6) 0.1168(7) 0.8726(7) 0.0441 Uani
H15 H 0.4152 0.1848 0.9413 0.0530 Uiso
H16 H 0.3912 0.1054 0.8110 0.0530 Uiso
N3 N 0.3379(5) 0.0128(5) 0.9040(6) 0.0437 Uani
C29 C 0.1157(6) 0.3565(6) 0.8746(7) 0.0416 Uani
H27 H 0.1067 0.3921 0.8149 0.0500 Uiso
H28 H 0.1829 0.4129 0.9446 0.0500 Uiso
C31 C 0.2330(6) 0.2334(6) 0.9001(6) 0.0402 Uani
C32 C 0.1045(5) 0.1829(6) 0.7088(6) 0.0320 Uani
H31 H 0.1152 0.2311 0.6604 0.0390 Uiso
C33 C 0.1834(6) 0.1048(6) 0.7098(7) 0.0403 Uani
H32 H 0.2331 0.1158 0.6625 0.0490 Uiso
N18 N 0.0140(5) 0.3386(5) 0.9031(5) 0.0412 Uani
N21 N 0.1423(5) 0.2532(5) 0.8319(5) 0.0443 Uani
N22 N 0.2519(5) 0.1415(5) 0.8320(5) 0.0380 Uani
Cl2 Cl 0.5941(3) 0.9986(5) 0.4051(3) 0.1098 Uani
C6 C 0.3580(6) 0.8726(7) 0.1156(7) 0.0436 Uani
H5 H 0.4160 0.9413 0.1833 0.0520 Uiso
H6 H 0.3918 0.8103 0.1049 0.0520 Uiso
C8 C 0.1820(6) 0.7099(6) 0.1062(6) 0.0405 Uani
H7 H 0.2317 0.6615 0.1176 0.0480 Uiso
C9 C 0.1040(6) 0.7086(6) 0.1839(7) 0.0469 Uani
H8 H 0.1169 0.6605 0.2324 0.0560 Uiso
C10 C 0.2333(7) 0.9007(6) 0.2321(7) 0.0471 Uani
C12 C 0.1156(6) 0.8716(6) 0.3574(6) 0.0413 Uani
H11 H 0.1032 0.8085 0.3883 0.0500 Uiso
H12 H 0.1834 0.9389 0.4170 0.0500 Uiso
N4 N 0.3388(5) 0.9032(5) 0.0134(5) 0.0420 Uani
N7 N 0.2530(5) 0.8330(5) 0.1419(6) 0.0456 Uani
N8 N 0.1417(5) 0.8322(5) 0.2534(5) 0.0403 Uani
N11 N 0.0149(5) 0.9049(5) 0.3377(5) 0.0384 Uani
O25 O 0.3591(4) 0.7270(4) 0.3590(5) 0.0510 Uani
O26 O 0.6491(8) 0.7977(8) 0.5165(11) 0.1235 Uani
O27 O 0.5148(11) 0.7959(8) 0.6467(9) 0.1322 Uani
Cd5 Cd 0.52081(10) 0.89820(12) 0.52107(11) 0.0555 Uani
O33 O 0.7105(5) 0.9954(5) 0.7101(6) 0.0611 Uani
N12 N 0.9028(5) 0.0136(5) 0.3383(6) 0.0423 Uani
C19 C 0.8986(6) 0.2329(6) 0.2329(7) 0.0402 Uani
C20 C 0.7091(6) 0.1045(6) 0.1839(7) 0.0409 Uani
H19 H 0.6611 0.1174 0.2331 0.0490 Uiso
C21 C 0.7099(6) 0.1836(6) 0.1043(6) 0.0356 Uani
H20 H 0.6621 0.2339 0.1164 0.0430 Uiso
C23 C 0.8720(6) 0.3558(6) 0.1173(7) 0.0430 Uani
H21 H 0.8093 0.3892 0.1073 0.0510 Uiso
H22 H 0.9403 0.4137 0.1854 0.0510 Uiso
C36 C 0.8716(7) 0.1151(7) 0.3583(6) 0.0436 Uani
H35 H 0.8085 0.1045 0.3898 0.0520 Uiso
H36 H 0.9397 0.1824 0.4176 0.0520 Uiso
N13 N 0.8321(5) 0.1419(6) 0.2516(5) 0.0433 Uani
N14 N 0.8330(5) 0.2521(5) 0.1417(6) 0.0436 Uani
N17 N 0.9037(5) 0.3380(5) 0.0147(5) 0.0415 Uani
O1 O 0.3587(5) 0.3581(5) 0.7266(4) 0.0538 Uani
O3 O 0.7264(4) 0.3580(4) 0.3590(5) 0.0509 Uani
O4 O 0.7949(7) 0.6464(8) 0.5197(10) 0.1216 Uani
O5 O 0.7945(7) 0.5135(11) 0.6451(9) 0.1312 Uani
O7 O 0.6477(8) 0.5173(11) 0.7967(8) 0.1283 Uani
O9 O 0.5191(11) 0.6460(10) 0.7975(8) 0.1330 Uani
Cl1 Cl 0.4057(3) 0.5942(3) 0.9993(5) 0.1065 Uani
Cd1 Cd 0.52088(10) 0.52097(10) 0.89806(12) 0.0542 Uani
Cd3 Cd 0.89833(11) 0.52091(11) 0.52094(11) 0.0556 Uani
C7 C 0.9852(6) 0.6336(6) 0.9856(6) 0.0389 Uani
O10 O 0.9955(5) 0.7103(5) 0.7109(5) 0.0574 Uani
O11 O 0.8957(5) 0.5846(5) 0.8966(5) 0.0528 Uani
O12 O 0.7108(5) 0.7106(5) 0.9977(5) 0.0610 Uani
C22 C 0.6331(6) 0.9844(6) 0.9854(7) 0.0433 Uani
C34 C 0.9846(5) 0.9847(6) 0.6340(6) 0.0338 Uani
O19 O 0.5868(5) 0.8966(4) 0.8958(5) 0.0475 Uani
O21 O 0.8958(5) 0.8959(5) 0.5848(6) 0.0571 Uani
Cl6 Cl 0.9974(5) 0.5929(3) 0.4058(3) 0.1108 Uani
loop_
_atom_site_aniso_label
_atom_site_aniso_U_11
_atom_site_aniso_U_22
_atom_site_aniso_U_33
_atom_site_aniso_U_23
_atom_site_aniso_U_13
_atom_site_aniso_U_12
O2 0.042 0.025 0.036 -0.009 -0.033 0.004
O6 0.079 0.062 0.166 -0.006 0.003 0.02
O8 0.169 0.072 0.082 0.006 -0.001 -0.002
Cd2 0.0417 0.0578 0.0407 -0.0032 0.0006 0.014
C4 0.035 0.03 0.044 -0.003 -0.003 0.015
C16 0.03 0.037 0.026 0.004 0.005 0.012
O13 0.059 0.031 0.032 0.002 0.002 0.009
O14 0.067 0.04 0.054 -0.005 0.013 0.017
O15 0.042 0.039 0.06 -0.003 -0.003 0.012
C25 0.034 0.034 0.038 -0.001 0.005 0.019
O16 0.042 0.061 0.052 0.017 0.001 0.012
O17 0.043 0.052 0.036 -0.003 -0.001 0.01
O18 0.061 0.058 0.044 0 0.001 0.029
Cl5 0.0662 0.218 0.066 0.053 0.0314 0.075
Cd7 0.0422 0.0394 0.0558 -0.0016 0.0005 0.0133
Cd9 0.0611 0.0394 0.0407 -0.0006 -0.0008 0.0138
Cl3 0.215 0.0688 0.0713 0.0285 0.059 0.076
C1 0.033 0.027 0.044 0.002 0.003 0.008
C2 0.033 0.039 0.036 -0.004 0.005 0.017
C3 0.036 0.03 0.034 -0.003 0.01 0.02
C5 0.044 0.029 0.038 -0.006 0.003 0.017
C18 0.052 0.039 0.029 0.002 0.002 0.024
N1 0.039 0.044 0.032 0.003 -0.003 0.02
N2 0.033 0.035 0.043 -0.002 -0.001 0.014
N5 0.04 0.037 0.028 -0.004 0.002 0.011
N24 0.036 0.03 0.043 -0.003 0.005 0.011
O28 0.027 0.041 0.035 -0.034 -0.006 0.0036
O29 0.062 0.089 0.148 -0.009 -0.003 0.023
O30 0.061 0.175 0.082 -0.008 0.006 0.002
C24 0.03 0.042 0.039 -0.001 -0.003 0.015
C26 0.04 0.031 0.033 0 -0.007 0.019
C27 0.034 0.035 0.047 -0.008 -0.007 0.021
C28 0.046 0.028 0.038 -0.008 -0.009 0.014
C30 0.041 0.036 0.028 -0.005 -0.001 0.016
N16 0.042 0.036 0.028 0 -0.001 0.009
N19 0.041 0.037 0.04 -0.003 0 0.018
N20 0.036 0.038 0.032 -0.001 0.008 0.009
N23 0.031 0.045 0.028 0.002 0.004 0.015
C11 0.041 0.029 0.041 0 0.004 0.016
C13 0.031 0.038 0.028 -0.007 -0.001 0.008
C14 0.029 0.025 0.031 0.004 0.007 0.003
C15 0.036 0.032 0.033 -0.002 -0.001 0.01
N6 0.039 0.039 0.029 -0.002 0.002 0.014
N9 0.046 0.033 0.033 -0.008 -0.004 0.022
N10 0.036 0.038 0.031 0.004 0.004 0.017
C35 0.032 0.044 0.041 0 0.004 0.016
N15 0.048 0.029 0.035 -0.001 -0.001 0.014
O22 0.046 0.039 0.021 -0.012 -0.014 -0.021
O23 0.082 0.171 0.056 -0.006 0.007 -0.006
O24 0.161 0.102 0.066 0.007 -0.002 0.006
Cl4 0.0673 0.0667 0.209 0.06 0.06 0.041
C17 0.032 0.044 0.041 0 0.004 0.016
N3 0.048 0.029 0.035 -0.001 -0.001 0.014
C29 0.041 0.029 0.041 0 0.004 0.016
C31 0.031 0.038 0.028 -0.007 -0.001 0.008
C32 0.029 0.025 0.031 0.004 0.007 0.003
C33 0.036 0.032 0.033 -0.002 -0.001 0.01
N18 0.039 0.039 0.029 -0.002 0.002 0.014
N21 0.046 0.033 0.033 -0.008 -0.004 0.022
N22 0.036 0.038 0.031 0.004 0.004 0.017
Cl2 0.0662 0.218 0.066 0.053 0.0314 0.075
C6 0.03 0.042 0.039 -0.001 -0.003 0.015
C8 0.04 0.031 0.033 0 -0.007 0.019
C9 0.034 0.035 0.047 -0.008 -0.007 0.021
C10 0.046 0.028 0.038 -0.008 -0.009 0.014
C12 0.041 0.036 0.028 -0.005 -0.001 0.016
N4 0.042 0.036 0.028 0 -0.001 0.009
N7 0.041 0.037 0.04 -0.003 0 0.018
N8 0.036 0.038 0.032 -0.001 0.008 0.009
N11 0.031 0.045 0.028 0.002 0.004 0.015
O25 0.042 0.025 0.036 -0.009 -0.033 0.004
O26 0.079 0.062 0.166 -0.006 0.003 0.02
O27 0.169 0.072 0.082 0.006 -0.001 -0.002
Cd5 0.0417 0.0578 0.0407 -0.0032 0.0006 0.014
O33 0.067 0.04 0.054 -0.005 0.013 0.017
N12 0.036 0.03 0.043 -0.003 0.005 0.011
C19 0.033 0.027 0.044 0.002 0.003 0.008
C20 0.033 0.039 0.036 -0.004 0.005 0.017
C21 0.036 0.03 0.034 -0.003 0.01 0.02
C23 0.044 0.029 0.038 -0.006 0.003 0.017
C36 0.052 0.039 0.029 0.002 0.002 0.024
N13 0.039 0.044 0.032 0.003 -0.003 0.02
N14 0.033 0.035 0.043 -0.002 -0.001 0.014
N17 0.04 0.037 0.028 -0.004 0.002 0.011
O1 0.046 0.039 0.021 -0.012 -0.014 -0.021
O3 0.027 0.041 0.035 -0.034 -0.006 0.0036
O4 0.062 0.089 0.148 -0.009 -0.003 0.023
O5 0.061 0.175 0.082 -0.008 0.006 0.002
O7 0.082 0.171 0.056 -0.006 0.007 -0.006
O9 0.161 0.102 0.066 0.007 -0.002 0.006
Cl1 0.0673 0.0667 0.209 0.06 0.06 0.041
Cd1 0.0422 0.0394 0.0558 -0.0016 0.0005 0.0133
Cd3 0.0611 0.0394 0.0407 -0.0006 -0.0008 0.0138
C7 0.034 0.034 0.038 -0.001 0.005 0.019
O10 0.042 0.061 0.052 0.017 0.001 0.012
O11 0.043 0.052 0.036 -0.003 -0.001 0.01
O12 0.061 0.058 0.044 0 0.001 0.029
C22 0.035 0.03 0.044 -0.003 -0.003 0.015
C34 0.03 0.037 0.026 0.004 0.005 0.012
O19 0.059 0.031 0.032 0.002 0.002 0.009
O21 0.042 0.039 0.06 -0.003 -0.003 0.012
Cl6 0.215 0.0688 0.0713 0.0285 0.059 0.076
loop_
_geom_bond_atom_site_label_1
_geom_bond_atom_site_label_2
_geom_bond_site_symmetry_1
_geom_bond_site_symmetry_2
O2 Cd2 1_555 1_555
O6 Cd2 1_555 1_555
O8 Cd2 1_555 1_555
Cd2 O14 1_555 1_555
O13 C4 1_555 1_555
O15 C16 1_555 1_555
O17 C25 1_555 1_555
Cl5 Cd2 1_555 1_555
Cd7 O18 1_555 1_555
Cd9 O16 1_555 1_555
C1 N1 1_555 1_555
C2 H1 1_555 1_555
C3 C2 1_555 1_555
H2 C3 1_555 1_555
C5 H3 1_555 1_555
H4 C5 1_555 1_555
C18 H17 1_555 1_555
H18 C18 1_555 1_555
N1 C2 1_555 1_555
N2 C1 1_555 1_555
N5 C5 1_555 1_555
N24 C18 1_555 1_555
O28 Cd9 1_555 1_555
O29 Cd9 1_555 1_555
O30 Cd9 1_555 1_555
Cd9 Cl3 1_555 1_555
C3 N2 1_555 1_555
C5 N2 1_555 1_555
C18 N1 1_555 1_555
C24 H23 1_555 1_555
H24 C24 1_555 1_555
C26 H25 1_555 1_555
C27 C26 1_555 1_555
H26 C27 1_555 1_555
C28 N19 1_555 1_555
C30 H29 1_555 1_555
H30 C30 1_555 1_555
N19 C24 1_555 1_555
N20 C27 1_555 1_555
N23 C30 1_555 1_555
C24 N16 1_555 1_555
C26 N19 1_555 1_555
C28 N20 1_555 1_555
C30 N20 1_555 1_555
C11 H9 1_555 1_555
H10 C11 1_555 1_555
C13 N9 1_555 1_555
C14 H13 1_555 1_555
C15 C14 1_555 1_555
H14 C15 1_555 1_555
N9 C11 1_555 1_555
N10 C13 1_555 1_555
C35 N10 1_555 1_555
H33 C35 1_555 1_555
H34 C35 1_555 1_555
O22 Cd7 1_555 1_555
O23 Cd7 1_555 1_555
O24 Cd7 1_555 1_555
C11 N6 1_555 1_555
C14 N9 1_555 1_555
C15 N10 1_555 1_555
C35 N15 1_555 1_555
Cl4 Cd7 1_555 1_555
C17 H15 1_555 1_555
H16 C17 1_555 1_555
C29 H27 1_555 1_555
H28 C29 1_555 1_555
C31 N21 1_555 1_555
C32 H31 1_555 1_555
C33 C32 1_555 1_555
H32 C33 1_555 1_555
N21 C29 1_555 1_555
N22 C17 1_555 1_555
C17 N3 1_555 1_555
C29 N18 1_555 1_555
C31 N22 1_555 1_555
C32 N21 1_555 1_555
C33 N22 1_555 1_555
C6 H5 1_555 1_555
H6 C6 1_555 1_555
C8 H7 1_555 1_555
C9 C8 1_555 1_555
H8 C9 1_555 1_555
C10 N7 1_555 1_555
C12 H11 1_555 1_555
H12 C12 1_555 1_555
N7 C6 1_555 1_555
N8 C9 1_555 1_555
N11 C12 1_555 1_555
O25 Cd5 1_555 1_555
O26 Cd5 1_555 1_555
O27 Cd5 1_555 1_555
Cd5 Cl2 1_555 1_555
O33 Cd5 1_555 1_555
C6 N4 1_555 1_555
C8 N7 1_555 1_555
C10 N8 1_555 1_555
C12 N8 1_555 1_555
C19 N13 1_555 1_555
C20 H19 1_555 1_555
C21 C20 1_555 1_555
H20 C21 1_555 1_555
C23 H21 1_555 1_555
H22 C23 1_555 1_555
C36 N12 1_555 1_555
H35 C36 1_555 1_555
H36 C36 1_555 1_555
N13 C20 1_555 1_555
N14 C19 1_555 1_555
N17 C23 1_555 1_555
C21 N14 1_555 1_555
C23 N14 1_555 1_555
C36 N13 1_555 1_555
O1 Cd1 1_555 1_555
O3 Cd3 1_555 1_555
O4 Cd3 1_555 1_555
O5 Cd3 1_555 1_555
O7 Cd1 1_555 1_555
O9 Cd1 1_555 1_555
Cl1 Cd1 1_555 1_555
Cd1 O12 1_555 1_555
Cd3 O10 1_555 1_555
O11 C7 1_555 1_555
O19 C22 1_555 1_555
O21 C34 1_555 1_555
Cl6 Cd3 1_555 1_555

#END
