
###############################################################################
#
# This file contains modified crystal structure data generated from the
# MOF subset of the Cambridge Structural Database (CSD) v543 
# hosted by the Cambridge Crystallographic Data Centre (CCDC).
#
# This work is licensed under the Creative Commons
# Attribution-NonCommercial-ShareAlike 4.0 International License.
# To view a copy of this license, visit
# http://creativecommons.org/licenses/by-nc-sa/4.0/
# or send a letter to
# Creative Commons, PO Box 1866, Mountain View, CA 94042, USA.
#
# CIF created using the CSD Python API on 29 September 2022
# The structure has been converted into the P1 space group
# The structure has a 3D framework
# The original CSD entry FEVTEF is in the monoclinic crystal system
# The framework has been calculated to contain at least 10.0% void space
# The void calculation uses a probe of radius 1.32A, grid spacing 0.4
# The framework is charged, counterions have been retained in the structure
#
###############################################################################

data_FEVTEF
_chemical_formula_moiety         '(C120 H240 Cl16 Co12 N24 O24 4+)n'
_symmetry_cell_setting           triclinic
_symmetry_space_group_name_H-M   'P 1'
_symmetry_Int_Tables_number      1
_space_group_name_Hall           'P 1'
loop_
_symmetry_equiv_pos_site_id
_symmetry_equiv_pos_as_xyz
1 x,y,z
_cell_length_a                   23.846(3)
_cell_length_b                   11.3010(13)
_cell_length_c                   20.3262(11)
_cell_angle_alpha                90
_cell_angle_beta                 103.446(7)
_cell_angle_gamma                90
_cell_volume                     5327.44
loop_
_atom_site_label
_atom_site_type_symbol
_atom_site_fract_x
_atom_site_fract_y
_atom_site_fract_z
Co1 Co 0.5000 0.30672(8) 0.7500
Cl1 Cl 0.53803(7) 0.19444(15) 0.84175(9)
Cl2 Cl 0.42918(5) 0.42289(12) 0.77486(6)
Cl3 Cl 0.46197(7) 0.19444(15) 0.65825(9)
Cl4 Cl 0.57082(5) 0.42289(12) 0.72514(6)
Co1_2 Co 0.0000 0.80672(8) 0.7500
Cl1_2 Cl 0.03803(7) 0.69444(15) 0.84175(9)
Cl4_2 Cl 0.07082(5) 0.92289(12) 0.72514(6)
Co1_3 Co 1.0000 0.80672(8) 0.7500
Cl2_2 Cl 0.92918(5) 0.92289(12) 0.77486(6)
Cl3_2 Cl 0.96197(7) 0.69444(15) 0.65825(9)
Co1_4 Co 0.5000 0.69328(8) 0.2500
Cl1_3 Cl 0.46197(7) 0.80556(15) 0.15825(9)
Cl2_3 Cl 0.57082(5) 0.57711(12) 0.22514(6)
Cl3_3 Cl 0.53803(7) 0.80556(15) 0.34175(9)
Cl4_3 Cl 0.42918(5) 0.57711(12) 0.27486(6)
Co1_5 Co 0.0000 0.19328(8) 0.2500
Cl2_4 Cl 0.07082(5) 0.07711(12) 0.22514(6)
Cl3_4 Cl 0.03803(7) 0.30556(15) 0.34175(9)
Co1_6 Co 1.0000 0.19328(8) 0.2500
Cl1_4 Cl 0.96197(7) 0.30556(15) 0.15825(9)
Cl4_4 Cl 0.92918(5) 0.07711(12) 0.27486(6)
H9 H 0.5548(2) 0.0531(5) 0.0246(3)
H10 H 0.5132(2) 0.0188(5) 0.0710(3)
H13 H 0.6848(3) 0.0141(6) 0.0193(3)
Co3 Co 0.2500 0.2500 0.0000
C6 C 0.6825(3) 0.0422(6) 0.9741(3)
H11 H 0.6543(3) 0.1042(6) 0.9638(3)
H12 H 0.7194(3) 0.0722(6) 0.9708(3)
H14 H 0.5930(2) 0.0123(6) 0.8826(3)
C16 C 0.4742(2) 0.0034(5) 0.9694(3)
C19 C 0.4473(2) 0.1269(5) 0.9594(3)
C22 C 0.4008(2) 0.1309(5) 0.8943(3)
H37 H 0.4768(2) 0.1850(5) 0.9576(3)
H38 H 0.4307(2) 0.1462(5) 0.9974(3)
N4 N 0.3770(2) 0.2487(4) 0.8800(2)
H43 H 0.3701(2) 0.0765(5) 0.8978(3)
H44 H 0.4170(2) 0.1049(5) 0.8572(3)
C25 C 0.3326(2) 0.2883(4) 0.9030(2)
H49 H 0.3922(2) 0.2950(4) 0.8554(2)
H50 H 0.4070(2) 0.0123(6) 0.6174(3)
C28 C 0.3102(2) 0.4100(5) 0.8795(3)
O7 O 0.30955(12) 0.2253(3) 0.93905(14)
C29 C 0.3175(3) 0.0422(6) 0.5259(3)
H52 H 0.3340(2) 0.4439(5) 0.8522(3)
H53 H 0.2712(2) 0.4037(5) 0.8532(3)
H54 H 0.3111(2) 0.4596(5) 0.9181(3)
Co3_2 Co 0.2500 0.2500 1.0000
H55 H 0.3457(3) 0.1042(6) 0.5362(3)
H56 H 0.2806(3) 0.0722(6) 0.5292(3)
H57 H 0.3152(3) 0.0141(6) 0.4807(3)
Co2 Co 0.7500 0.7500 0.0000
C1 C 0.6898(2) 0.5900(5) 0.1205(3)
H1 H 0.6660(2) 0.5561(5) 0.1478(3)
H2 H 0.7288(2) 0.5963(5) 0.1468(3)
H3 H 0.6889(2) 0.5404(5) 0.0819(3)
O1 O 0.69045(12) 0.7747(3) 0.06095(14)
C2 C 0.6674(2) 0.7117(4) 0.0970(2)
N1 N 0.6230(2) 0.7513(4) 0.1200(2)
H4 H 0.6078(2) 0.7050(4) 0.1446(2)
C3 C 0.5992(2) 0.8691(5) 0.1057(3)
H5 H 0.6299(2) 0.9235(5) 0.1022(3)
H6 H 0.5830(2) 0.8951(5) 0.1428(3)
C4 C 0.5527(2) 0.8731(5) 0.0406(3)
H7 H 0.5232(2) 0.8150(5) 0.0424(3)
H8 H 0.5693(2) 0.8538(5) 0.0026(3)
C5 C 0.5258(2) 0.9966(5) 0.0306(3)
H30 H 0.5540(3) 0.4823(7) 0.0435(4)
O5 O 0.80584(12) 0.6485(3) 0.0728(2)
O6 O 0.79870(13) 0.8971(3) 0.0431(2)
C18 C 0.4720(3) 0.5283(7) 0.0005(4)
C21 C 0.4426(3) 0.4809(7) 0.0544(3)
H35 H 0.4782(3) 0.6126(7) 0.0076(4)
C24 C 0.3902(3) 0.5528(6) 0.0594(3)
H41 H 0.4700(3) 0.4816(7) 0.0979(3)
H42 H 0.4311(3) 0.3996(7) 0.0437(3)
N6 N 0.3638(2) 0.5080(4) 0.1113(2)
H47 H 0.3623(3) 0.5508(6) 0.0162(3)
H48 H 0.4015(3) 0.6345(6) 0.0693(3)
C27 C 0.3197(2) 0.4337(4) 0.1007(2)
H51 H 0.3777(2) 0.5312(4) 0.1522(2)
C30 C 0.2977(2) 0.3997(6) 0.1611(2)
O9 O 0.29870(13) 0.3971(3) 0.0431(2)
H58 H 0.3203(2) 0.4383(6) 0.2005(2)
H59 H 0.2581(2) 0.4234(6) 0.1544(2)
H60 H 0.3006(2) 0.3155(6) 0.1672(2)
Co2_2 Co 0.7500 0.7500 1.0000
O2 O 0.69416(12) 0.8515(3) 0.9272(2)
C7 C 0.6653(2) 0.9431(5) 0.9254(3)
N2 N 0.6162(2) 0.9556(6) 0.8793(3)
C8 C 0.6018(4) 0.8708(10) 0.8223(6)
H15 H 0.6057(4) 0.9070(10) 0.7803(6)
H16 H 0.6262(4) 0.8011(10) 0.8309(6)
C9 C 0.5445(6) 0.8430(13) 0.8204(7)
H17 H 0.5198(6) 0.9119(13) 0.8102(7)
H18 H 0.5403(6) 0.8081(13) 0.8626(7)
C10 C 0.53235(14) 0.7544(12) 0.7633(7)
H19 H 0.54579(14) 0.6764(12) 0.7796(7)
H20 H 0.55148(14) 0.7774(12) 0.7281(7)
C11 C 0.7023(2) 0.6003(6) 0.8389(2)
H21 H 0.6797(2) 0.5617(6) 0.7995(2)
H22 H 0.7419(2) 0.5766(6) 0.8456(2)
H23 H 0.6994(2) 0.6845(6) 0.8328(2)
O3 O 0.70130(13) 0.6029(3) 0.9569(2)
C12 C 0.6803(2) 0.5663(4) 0.8993(2)
N3 N 0.6362(2) 0.4920(4) 0.8887(2)
H24 H 0.6223(2) 0.4688(4) 0.8478(2)
C13 C 0.6098(3) 0.4472(6) 0.9406(3)
H25 H 0.6377(3) 0.4492(6) 0.9838(3)
H26 H 0.5985(3) 0.3655(6) 0.9307(3)
C14 C 0.5574(3) 0.5191(7) 0.9456(3)
H27 H 0.5300(3) 0.5184(7) 0.9021(3)
H28 H 0.5689(3) 0.6004(7) 0.9563(3)
C15 C 0.5280(3) 0.4717(7) 0.9995(4)
H29 H 0.5218(3) 0.3874(7) 0.9924(4)
O4 O 0.80955(12) 0.7253(3) 0.93905(14)
C17 C 0.46765(14) 0.7544(12) 0.7367(7)
H31 H 0.4452(2) 0.9469(5) 0.9754(3)
H32 H 0.4868(2) 0.9812(5) 0.9290(3)
C20 C 0.4555(6) 0.8430(13) 0.6796(7)
H33 H 0.45421(14) 0.6764(12) 0.7204(7)
H34 H 0.44852(14) 0.7774(12) 0.7719(7)
H36 H 0.4460(3) 0.5177(7) 0.9565(4)
C23 C 0.3982(4) 0.8708(10) 0.6777(6)
H39 H 0.4802(6) 0.9119(13) 0.6898(7)
H40 H 0.4597(6) 0.8081(13) 0.6374(7)
N5 N 0.3838(2) 0.9556(6) 0.6207(3)
H45 H 0.3943(4) 0.9070(10) 0.7197(6)
H46 H 0.3738(4) 0.8011(10) 0.6691(6)
C26 C 0.3347(2) 0.9431(5) 0.5746(3)
O8 O 0.30584(12) 0.8515(3) 0.5728(2)
Co4 Co 0.2500 0.7500 0.5000
C1_2 C 0.1898(2) 0.0900(5) 0.1205(3)
H1_2 H 0.1660(2) 0.0561(5) 0.1478(3)
H2_2 H 0.2288(2) 0.0963(5) 0.1468(3)
H3_2 H 0.1889(2) 0.0404(5) 0.0819(3)
O1_2 O 0.19045(12) 0.2747(3) 0.06095(14)
C2_2 C 0.1674(2) 0.2117(4) 0.0970(2)
N1_2 N 0.1230(2) 0.2513(4) 0.1200(2)
H4_2 H 0.1078(2) 0.2050(4) 0.1446(2)
C3_2 C 0.0992(2) 0.3691(5) 0.1057(3)
H5_2 H 0.1299(2) 0.4235(5) 0.1022(3)
H6_2 H 0.0830(2) 0.3951(5) 0.1428(3)
C4_2 C 0.0527(2) 0.3731(5) 0.0406(3)
H7_2 H 0.0232(2) 0.3150(5) 0.0424(3)
H8_2 H 0.0693(2) 0.3538(5) 0.0026(3)
C5_2 C 0.0258(2) 0.4966(5) 0.0306(3)
H9_2 H 0.0548(2) 0.5531(5) 0.0246(3)
H10_2 H 0.0132(2) 0.5188(5) 0.0710(3)
H13_2 H 0.1848(3) 0.5141(6) 0.0193(3)
O5_2 O 0.30584(12) 0.1485(3) 0.0728(2)
C6_2 C 0.1825(3) 0.5422(6) 0.9741(3)
H11_2 H 0.1543(3) 0.6042(6) 0.9638(3)
H12_2 H 0.2194(3) 0.5722(6) 0.9708(3)
O2_2 O 0.19416(12) 0.3515(3) 0.9272(2)
C7_2 C 0.1653(2) 0.4431(5) 0.9254(3)
N2_2 N 0.1162(2) 0.4556(6) 0.8793(3)
H14_2 H 0.0930(2) 0.5123(6) 0.8826(3)
C8_2 C 0.1018(4) 0.3708(10) 0.8223(6)
H15_2 H 0.1057(4) 0.4070(10) 0.7803(6)
H16_2 H 0.1262(4) 0.3011(10) 0.8309(6)
C9_2 C 0.0445(6) 0.3430(13) 0.8204(7)
H17_2 H 0.0198(6) 0.4119(13) 0.8102(7)
H18_2 H 0.0403(6) 0.3081(13) 0.8626(7)
C10_2 C 0.03235(14) 0.2544(12) 0.7633(7)
H19_2 H 0.04579(14) 0.1764(12) 0.7796(7)
H20_2 H 0.05148(14) 0.2774(12) 0.7281(7)
C11_2 C 0.2023(2) 0.1003(6) 0.8389(2)
H21_2 H 0.1797(2) 0.0617(6) 0.7995(2)
H22_2 H 0.2419(2) 0.0766(6) 0.8456(2)
H23_2 H 0.1994(2) 0.1845(6) 0.8328(2)
O3_2 O 0.20130(13) 0.1029(3) 0.9569(2)
C12_2 C 0.1803(2) 0.0663(4) 0.8993(2)
C14_2 C 0.0574(3) 0.0191(7) 0.9456(3)
H27_2 H 0.0300(3) 0.0184(7) 0.9021(3)
H28_2 H 0.0689(3) 0.1004(7) 0.9563(3)
H30_2 H 0.0540(3) 0.9823(7) 0.0435(4)
N3_2 N 0.1362(2) 0.9920(4) 0.8887(2)
H24_2 H 0.1223(2) 0.9688(4) 0.8478(2)
C13_2 C 0.1098(3) 0.9472(6) 0.9406(3)
H25_2 H 0.1377(3) 0.9492(6) 0.9838(3)
H26_2 H 0.0985(3) 0.8655(6) 0.9307(3)
C15_2 C 0.0280(3) 0.9717(7) 0.9995(4)
H29_2 H 0.0218(3) 0.8874(7) 0.9924(4)
C18_2 C 0.9720(3) 0.0283(7) 0.0005(4)
H35_2 H 0.9782(3) 0.1126(7) 0.0076(4)
C24_2 C 0.8902(3) 0.0528(6) 0.0594(3)
N6_2 N 0.8638(2) 0.0080(4) 0.1113(2)
H47_2 H 0.8623(3) 0.0508(6) 0.0162(3)
H48_2 H 0.9015(3) 0.1345(6) 0.0693(3)
H51_2 H 0.8777(2) 0.0312(4) 0.1522(2)
C16_2 C 0.9742(2) 0.5034(5) 0.9694(3)
C17_2 C 0.96765(14) 0.2544(12) 0.7367(7)
C19_2 C 0.9473(2) 0.6269(5) 0.9594(3)
H31_2 H 0.9452(2) 0.4469(5) 0.9754(3)
H32_2 H 0.9868(2) 0.4812(5) 0.9290(3)
C20_2 C 0.9555(6) 0.3430(13) 0.6796(7)
H33_2 H 0.95421(14) 0.1764(12) 0.7204(7)
H34_2 H 0.94852(14) 0.2774(12) 0.7719(7)
H36_2 H 0.9460(3) 0.0177(7) 0.9565(4)
C22_2 C 0.9008(2) 0.6309(5) 0.8943(3)
H37_2 H 0.9768(2) 0.6850(5) 0.9576(3)
H38_2 H 0.9307(2) 0.6462(5) 0.9974(3)
C23_2 C 0.8982(4) 0.3708(10) 0.6777(6)
H39_2 H 0.9802(6) 0.4119(13) 0.6898(7)
H40_2 H 0.9597(6) 0.3081(13) 0.6374(7)
N4_2 N 0.8770(2) 0.7487(4) 0.8800(2)
H43_2 H 0.8701(2) 0.5765(5) 0.8978(3)
H44_2 H 0.9170(2) 0.6049(5) 0.8572(3)
N5_2 N 0.8838(2) 0.4556(6) 0.6207(3)
H45_2 H 0.8943(4) 0.4070(10) 0.7197(6)
H46_2 H 0.8738(4) 0.3011(10) 0.6691(6)
C25_2 C 0.8326(2) 0.7883(4) 0.9030(2)
H49_2 H 0.8922(2) 0.7950(4) 0.8554(2)
C26_2 C 0.8347(2) 0.4431(5) 0.5746(3)
H50_2 H 0.9070(2) 0.5123(6) 0.6174(3)
C28_2 C 0.8102(2) 0.9100(5) 0.8795(3)
C29_2 C 0.8175(3) 0.5422(6) 0.5259(3)
O8_2 O 0.80584(12) 0.3515(3) 0.5728(2)
H52_2 H 0.8340(2) 0.9439(5) 0.8522(3)
H53_2 H 0.7712(2) 0.9037(5) 0.8532(3)
H54_2 H 0.8111(2) 0.9596(5) 0.9181(3)
H55_2 H 0.8457(3) 0.6042(6) 0.5362(3)
H56_2 H 0.7806(3) 0.5722(6) 0.5292(3)
H57_2 H 0.8152(3) 0.5141(6) 0.4807(3)
Co4_2 Co 0.7500 0.2500 0.5000
C21_2 C 0.9426(3) 0.9809(7) 0.0544(3)
H41_2 H 0.9700(3) 0.9816(7) 0.0979(3)
H42_2 H 0.9311(3) 0.8996(7) 0.0437(3)
C27_2 C 0.8197(2) 0.9337(4) 0.1007(2)
C30_2 C 0.7977(2) 0.8997(6) 0.1611(2)
H58_2 H 0.8203(2) 0.9383(6) 0.2005(2)
H59_2 H 0.7581(2) 0.9234(6) 0.1544(2)
H60_2 H 0.8006(2) 0.8155(6) 0.1672(2)
H9_3 H 0.4452(2) 0.0531(5) 0.4754(3)
H10_3 H 0.4868(2) 0.0188(5) 0.4290(3)
C16_3 C 0.5258(2) 0.0034(5) 0.5306(3)
C19_3 C 0.5527(2) 0.1269(5) 0.5406(3)
C22_3 C 0.5992(2) 0.1309(5) 0.6057(3)
H37_3 H 0.5232(2) 0.1850(5) 0.5424(3)
H38_3 H 0.5693(2) 0.1462(5) 0.5026(3)
N4_3 N 0.6230(2) 0.2487(4) 0.6200(2)
H43_3 H 0.6299(2) 0.0765(5) 0.6022(3)
H44_3 H 0.5830(2) 0.1049(5) 0.6428(3)
C25_3 C 0.6674(2) 0.2883(4) 0.5970(2)
H49_3 H 0.6078(2) 0.2950(4) 0.6446(2)
C28_3 C 0.6898(2) 0.4100(5) 0.6205(3)
O7_2 O 0.69045(12) 0.2253(3) 0.56095(14)
H52_3 H 0.6660(2) 0.4439(5) 0.6478(3)
H53_3 H 0.7288(2) 0.4037(5) 0.6468(3)
H54_3 H 0.6889(2) 0.4596(5) 0.5819(3)
C1_3 C 0.3102(2) 0.5900(5) 0.3795(3)
H1_3 H 0.3340(2) 0.5561(5) 0.3522(3)
H2_3 H 0.2712(2) 0.5963(5) 0.3532(3)
H3_3 H 0.3111(2) 0.5404(5) 0.4181(3)
O1_3 O 0.30955(12) 0.7747(3) 0.43905(14)
C2_3 C 0.3326(2) 0.7117(4) 0.4030(2)
N1_3 N 0.3770(2) 0.7513(4) 0.3800(2)
H4_3 H 0.3922(2) 0.7050(4) 0.3554(2)
C3_3 C 0.4008(2) 0.8691(5) 0.3943(3)
H5_3 H 0.3701(2) 0.9235(5) 0.3978(3)
H6_3 H 0.4170(2) 0.8951(5) 0.3572(3)
C4_3 C 0.4473(2) 0.8731(5) 0.4594(3)
H7_3 H 0.4768(2) 0.8150(5) 0.4576(3)
H8_3 H 0.4307(2) 0.8538(5) 0.4974(3)
C5_3 C 0.4742(2) 0.9966(5) 0.4694(3)
C11_3 C 0.2977(2) 0.6003(6) 0.6611(2)
H21_3 H 0.3203(2) 0.5617(6) 0.7005(2)
H22_3 H 0.2581(2) 0.5766(6) 0.6544(2)
H23_3 H 0.3006(2) 0.6845(6) 0.6672(2)
O3_3 O 0.29870(13) 0.6029(3) 0.5431(2)
C12_3 C 0.3197(2) 0.5663(4) 0.6007(2)
N3_3 N 0.3638(2) 0.4920(4) 0.6113(2)
H24_3 H 0.3777(2) 0.4688(4) 0.6522(2)
C13_3 C 0.3902(3) 0.4472(6) 0.5594(3)
H25_3 H 0.3623(3) 0.4492(6) 0.5162(3)
H26_3 H 0.4015(3) 0.3655(6) 0.5693(3)
C14_3 C 0.4426(3) 0.5191(7) 0.5544(3)
H27_3 H 0.4700(3) 0.5184(7) 0.5979(3)
H28_3 H 0.4311(3) 0.6004(7) 0.5437(3)
C15_3 C 0.4720(3) 0.4717(7) 0.5005(4)
H29_3 H 0.4782(3) 0.3874(7) 0.5076(4)
H30_3 H 0.4460(3) 0.4823(7) 0.4565(4)
O4_2 O 0.19045(12) 0.7253(3) 0.56095(14)
O5_3 O 0.19416(12) 0.6485(3) 0.4272(2)
O6_2 O 0.20130(13) 0.8971(3) 0.4569(2)
C18_3 C 0.5280(3) 0.5283(7) 0.4995(4)
H31_3 H 0.5548(2) 0.9469(5) 0.5246(3)
H32_3 H 0.5132(2) 0.9812(5) 0.5710(3)
C21_3 C 0.5574(3) 0.4809(7) 0.4456(3)
H35_3 H 0.5218(3) 0.6126(7) 0.4924(4)
H36_3 H 0.5540(3) 0.5177(7) 0.5435(4)
C24_3 C 0.6098(3) 0.5528(6) 0.4406(3)
H41_3 H 0.5300(3) 0.4816(7) 0.4021(3)
H42_3 H 0.5689(3) 0.3996(7) 0.4563(3)
N6_3 N 0.6362(2) 0.5080(4) 0.3887(2)
H47_3 H 0.6377(3) 0.5508(6) 0.4838(3)
H48_3 H 0.5985(3) 0.6345(6) 0.4307(3)
C27_3 C 0.6803(2) 0.4337(4) 0.3993(2)
H51_3 H 0.6223(2) 0.5312(4) 0.3478(2)
C30_3 C 0.7023(2) 0.3997(6) 0.3389(2)
O9_2 O 0.70130(13) 0.3971(3) 0.4569(2)
H58_3 H 0.6797(2) 0.4383(6) 0.2995(2)
H59_3 H 0.7419(2) 0.4234(6) 0.3456(2)
H60_3 H 0.6994(2) 0.3155(6) 0.3328(2)
C16_4 C 0.0258(2) 0.5034(5) 0.5306(3)
C18_4 C 0.0280(3) 0.0283(7) 0.4995(4)
C19_4 C 0.0527(2) 0.6269(5) 0.5406(3)
H31_4 H 0.0548(2) 0.4469(5) 0.5246(3)
H32_4 H 0.0132(2) 0.4812(5) 0.5710(3)
H35_4 H 0.0218(3) 0.1126(7) 0.4924(4)
H36_4 H 0.0540(3) 0.0177(7) 0.5435(4)
C22_4 C 0.0992(2) 0.6309(5) 0.6057(3)
H37_4 H 0.0232(2) 0.6850(5) 0.5424(3)
H38_4 H 0.0693(2) 0.6462(5) 0.5026(3)
C24_4 C 0.1098(3) 0.0528(6) 0.4406(3)
N4_4 N 0.1230(2) 0.7487(4) 0.6200(2)
H43_4 H 0.1299(2) 0.5765(5) 0.6022(3)
H44_4 H 0.0830(2) 0.6049(5) 0.6428(3)
N6_4 N 0.1362(2) 0.0080(4) 0.3887(2)
H47_4 H 0.1377(3) 0.0508(6) 0.4838(3)
H48_4 H 0.0985(3) 0.1345(6) 0.4307(3)
C25_4 C 0.1674(2) 0.7883(4) 0.5970(2)
H49_4 H 0.1078(2) 0.7950(4) 0.6446(2)
H51_4 H 0.1223(2) 0.0312(4) 0.3478(2)
C28_4 C 0.1898(2) 0.9100(5) 0.6205(3)
H52_4 H 0.1660(2) 0.9439(5) 0.6478(3)
H53_4 H 0.2288(2) 0.9037(5) 0.6468(3)
H54_4 H 0.1889(2) 0.9596(5) 0.5819(3)
C21_4 C 0.0574(3) 0.9809(7) 0.4456(3)
H41_4 H 0.0300(3) 0.9816(7) 0.4021(3)
H42_4 H 0.0689(3) 0.8996(7) 0.4563(3)
C27_4 C 0.1803(2) 0.9337(4) 0.3993(2)
C30_4 C 0.2023(2) 0.8997(6) 0.3389(2)
H58_4 H 0.1797(2) 0.9383(6) 0.2995(2)
H59_4 H 0.2419(2) 0.9234(6) 0.3456(2)
H60_4 H 0.1994(2) 0.8155(6) 0.3328(2)
C1_4 C 0.8102(2) 0.0900(5) 0.3795(3)
H1_4 H 0.8340(2) 0.0561(5) 0.3522(3)
H2_4 H 0.7712(2) 0.0963(5) 0.3532(3)
H3_4 H 0.8111(2) 0.0404(5) 0.4181(3)
O1_4 O 0.80955(12) 0.2747(3) 0.43905(14)
C2_4 C 0.8326(2) 0.2117(4) 0.4030(2)
N1_4 N 0.8770(2) 0.2513(4) 0.3800(2)
H4_4 H 0.8922(2) 0.2050(4) 0.3554(2)
C3_4 C 0.9008(2) 0.3691(5) 0.3943(3)
H5_4 H 0.8701(2) 0.4235(5) 0.3978(3)
H6_4 H 0.9170(2) 0.3951(5) 0.3572(3)
C4_4 C 0.9473(2) 0.3731(5) 0.4594(3)
H7_4 H 0.9768(2) 0.3150(5) 0.4576(3)
H8_4 H 0.9307(2) 0.3538(5) 0.4974(3)
C5_4 C 0.9742(2) 0.4966(5) 0.4694(3)
H9_4 H 0.9452(2) 0.5531(5) 0.4754(3)
H10_4 H 0.9868(2) 0.5188(5) 0.4290(3)
C11_4 C 0.7977(2) 0.1003(6) 0.6611(2)
H21_4 H 0.8203(2) 0.0617(6) 0.7005(2)
H22_4 H 0.7581(2) 0.0766(6) 0.6544(2)
H23_4 H 0.8006(2) 0.1845(6) 0.6672(2)
O3_4 O 0.79870(13) 0.1029(3) 0.5431(2)
C12_4 C 0.8197(2) 0.0663(4) 0.6007(2)
C14_4 C 0.9426(3) 0.0191(7) 0.5544(3)
H27_4 H 0.9700(3) 0.0184(7) 0.5979(3)
H28_4 H 0.9311(3) 0.1004(7) 0.5437(3)
O5_4 O 0.69416(12) 0.1485(3) 0.4272(2)
N3_4 N 0.8638(2) 0.9920(4) 0.6113(2)
H24_4 H 0.8777(2) 0.9688(4) 0.6522(2)
C13_4 C 0.8902(3) 0.9472(6) 0.5594(3)
H25_4 H 0.8623(3) 0.9492(6) 0.5162(3)
H26_4 H 0.9015(3) 0.8655(6) 0.5693(3)
C15_4 C 0.9720(3) 0.9717(7) 0.5005(4)
H29_4 H 0.9782(3) 0.8874(7) 0.5076(4)
H30_4 H 0.9460(3) 0.9823(7) 0.4565(4)
C7_3 C 0.3347(2) 0.0569(5) 0.0746(3)
N2_3 N 0.3838(2) 0.0444(6) 0.1207(3)
C8_3 C 0.3982(4) 0.1292(10) 0.1777(6)
H15_3 H 0.3943(4) 0.0930(10) 0.2197(6)
H16_3 H 0.3738(4) 0.1989(10) 0.1691(6)
C9_3 C 0.4555(6) 0.1570(13) 0.1796(7)
H17_3 H 0.4802(6) 0.0881(13) 0.1898(7)
H18_3 H 0.4597(6) 0.1919(13) 0.1374(7)
C10_3 C 0.46765(14) 0.2456(12) 0.2367(7)
H19_3 H 0.45421(14) 0.3236(12) 0.2204(7)
H20_3 H 0.44852(14) 0.2226(12) 0.2719(7)
C17_3 C 0.53235(14) 0.2456(12) 0.2633(7)
C20_3 C 0.5445(6) 0.1570(13) 0.3204(7)
H33_3 H 0.54579(14) 0.3236(12) 0.2796(7)
H34_3 H 0.55148(14) 0.2226(12) 0.2281(7)
C23_3 C 0.6018(4) 0.1292(10) 0.3223(6)
H39_3 H 0.5198(6) 0.0881(13) 0.3102(7)
H40_3 H 0.5403(6) 0.1919(13) 0.3626(7)
N5_3 N 0.6162(2) 0.0444(6) 0.3793(3)
H45_3 H 0.6057(4) 0.0930(10) 0.2803(6)
H46_3 H 0.6262(4) 0.1989(10) 0.3309(6)
C26_3 C 0.6653(2) 0.0569(5) 0.4254(3)
C6_3 C 0.3175(3) 0.9578(6) 0.0259(3)
H11_3 H 0.3457(3) 0.8958(6) 0.0362(3)
H12_3 H 0.2806(3) 0.9278(6) 0.0292(3)
H14_3 H 0.4070(2) 0.9877(6) 0.1174(3)
H50_3 H 0.5930(2) 0.9877(6) 0.3826(3)
C29_3 C 0.6825(3) 0.9578(6) 0.4741(3)
H55_3 H 0.6543(3) 0.8958(6) 0.4638(3)
H56_3 H 0.7194(3) 0.9278(6) 0.4708(3)
H57_3 H 0.6848(3) 0.9859(6) 0.5193(3)
H13_3 H 0.3152(3) 0.9859(6) 0.9807(3)
C17_4 C 0.03235(14) 0.7456(12) 0.2633(7)
C20_4 C 0.0445(6) 0.6570(13) 0.3204(7)
H33_4 H 0.04579(14) 0.8236(12) 0.2796(7)
H34_4 H 0.05148(14) 0.7226(12) 0.2281(7)
C23_4 C 0.1018(4) 0.6292(10) 0.3223(6)
H39_4 H 0.0198(6) 0.5881(13) 0.3102(7)
H40_4 H 0.0403(6) 0.6919(13) 0.3626(7)
N5_4 N 0.1162(2) 0.5444(6) 0.3793(3)
H45_4 H 0.1057(4) 0.5930(10) 0.2803(6)
H46_4 H 0.1262(4) 0.6989(10) 0.3309(6)
C26_4 C 0.1653(2) 0.5569(5) 0.4254(3)
H50_4 H 0.0930(2) 0.4877(6) 0.3826(3)
C29_4 C 0.1825(3) 0.4578(6) 0.4741(3)
H55_4 H 0.1543(3) 0.3958(6) 0.4638(3)
H56_4 H 0.2194(3) 0.4278(6) 0.4708(3)
H57_4 H 0.1848(3) 0.4859(6) 0.5193(3)
C6_4 C 0.8175(3) 0.4578(6) 0.0259(3)
H11_4 H 0.8457(3) 0.3958(6) 0.0362(3)
H12_4 H 0.7806(3) 0.4278(6) 0.0292(3)
C7_4 C 0.8347(2) 0.5569(5) 0.0746(3)
N2_4 N 0.8838(2) 0.5444(6) 0.1207(3)
H14_4 H 0.9070(2) 0.4877(6) 0.1174(3)
C8_4 C 0.8982(4) 0.6292(10) 0.1777(6)
H15_4 H 0.8943(4) 0.5930(10) 0.2197(6)
H16_4 H 0.8738(4) 0.6989(10) 0.1691(6)
C9_4 C 0.9555(6) 0.6570(13) 0.1796(7)
H17_4 H 0.9802(6) 0.5881(13) 0.1898(7)
H18_4 H 0.9597(6) 0.6919(13) 0.1374(7)
C10_4 C 0.96765(14) 0.7456(12) 0.2367(7)
H19_4 H 0.95421(14) 0.8236(12) 0.2204(7)
H20_4 H 0.94852(14) 0.7226(12) 0.2719(7)
H13_4 H 0.8152(3) 0.4859(6) 0.9807(3)
loop_
_geom_bond_atom_site_label_1
_geom_bond_atom_site_label_2
_geom_bond_site_symmetry_1
_geom_bond_site_symmetry_2
Co1 Cl1 1_555 1_555
Cl2 Co1 1_555 1_555
Cl3 Co1 1_555 1_555
Cl4 Co1 1_555 1_555
Co1_2 Cl1_2 1_555 1_555
Cl4_2 Co1_2 1_555 1_555
Cl2_2 Co1_3 1_555 1_555
Cl3_2 Co1_3 1_555 1_555
Co1_4 Cl1_3 1_555 1_555
Cl2_3 Co1_4 1_555 1_555
Cl3_3 Co1_4 1_555 1_555
Cl4_3 Co1_4 1_555 1_555
Cl2_4 Co1_5 1_555 1_555
Cl3_4 Co1_5 1_555 1_555
Co1_6 Cl1_4 1_555 1_555
Cl4_4 Co1_6 1_555 1_555
C6 H11 1_555 1_555
H12 C6 1_555 1_555
C19 C16 1_555 1_555
C22 C19 1_555 1_555
H37 C19 1_555 1_555
H38 C19 1_555 1_555
N4 C22 1_555 1_555
H43 C22 1_555 1_555
H44 C22 1_555 1_555
C25 N4 1_555 1_555
H49 N4 1_555 1_555
C28 C25 1_555 1_555
O7 C25 1_555 1_555
H52 C28 1_555 1_555
H53 C28 1_555 1_555
H54 C28 1_555 1_555
Co3_2 O7 1_555 1_555
H55 C29 1_555 1_555
H56 C29 1_555 1_555
H57 C29 1_555 1_555
Co2 O1 1_555 1_555
C1 H1 1_555 1_555
H2 C1 1_555 1_555
H3 C1 1_555 1_555
O1 C2 1_555 1_555
C2 C1 1_555 1_555
N1 C2 1_555 1_555
H4 N1 1_555 1_555
C3 N1 1_555 1_555
H5 C3 1_555 1_555
H6 C3 1_555 1_555
C4 C3 1_555 1_555
H7 C4 1_555 1_555
H8 C4 1_555 1_555
C5 C4 1_555 1_555
O5 Co2 1_555 1_555
O6 Co2 1_555 1_555
C21 C18 1_555 1_555
H35 C18 1_555 1_555
C24 C21 1_555 1_555
H41 C21 1_555 1_555
H42 C21 1_555 1_555
N6 C24 1_555 1_555
H47 C24 1_555 1_555
H48 C24 1_555 1_555
C27 N6 1_555 1_555
H51 N6 1_555 1_555
C30 C27 1_555 1_555
O9 C27 1_555 1_555
H58 C30 1_555 1_555
H59 C30 1_555 1_555
H60 C30 1_555 1_555
Co3 O9 1_555 1_555
O2 Co2_2 1_555 1_555
N2 C7 1_555 1_555
C8 N2 1_555 1_555
H15 C8 1_555 1_555
H16 C8 1_555 1_555
C9 C8 1_555 1_555
H17 C9 1_555 1_555
H18 C9 1_555 1_555
C10 C9 1_555 1_555
H19 C10 1_555 1_555
H20 C10 1_555 1_555
C11 H21 1_555 1_555
H22 C11 1_555 1_555
H23 C11 1_555 1_555
O3 Co2_2 1_555 1_555
C12 C11 1_555 1_555
N3 C12 1_555 1_555
H24 N3 1_555 1_555
C13 N3 1_555 1_555
H25 C13 1_555 1_555
H26 C13 1_555 1_555
C14 C13 1_555 1_555
H27 C14 1_555 1_555
H28 C14 1_555 1_555
C15 C14 1_555 1_555
H29 C15 1_555 1_555
O4 Co2_2 1_555 1_555
C17 C10 1_555 1_555
C20 C17 1_555 1_555
H33 C17 1_555 1_555
H34 C17 1_555 1_555
C23 C20 1_555 1_555
H39 C20 1_555 1_555
H40 C20 1_555 1_555
N5 C23 1_555 1_555
H45 C23 1_555 1_555
H46 C23 1_555 1_555
C26 N5 1_555 1_555
O8 C26 1_555 1_555
Co4 O8 1_555 1_555
O2 C7 1_555 1_555
O3 C12 1_555 1_555
Co3 O1_2 1_555 1_555
C1_2 H1_2 1_555 1_555
H2_2 C1_2 1_555 1_555
H3_2 C1_2 1_555 1_555
O1_2 C2_2 1_555 1_555
C2_2 C1_2 1_555 1_555
N1_2 C2_2 1_555 1_555
H4_2 N1_2 1_555 1_555
C3_2 N1_2 1_555 1_555
H5_2 C3_2 1_555 1_555
H6_2 C3_2 1_555 1_555
C4_2 C3_2 1_555 1_555
H7_2 C4_2 1_555 1_555
H8_2 C4_2 1_555 1_555
C5_2 C4_2 1_555 1_555
H9_2 C5_2 1_555 1_555
H10_2 C5_2 1_555 1_555
O5_2 Co3 1_555 1_555
C6_2 H11_2 1_555 1_555
H12_2 C6_2 1_555 1_555
O2_2 Co3_2 1_555 1_555
C7_2 C6_2 1_555 1_555
N2_2 C7_2 1_555 1_555
H14_2 N2_2 1_555 1_555
C8_2 N2_2 1_555 1_555
H15_2 C8_2 1_555 1_555
H16_2 C8_2 1_555 1_555
C9_2 C8_2 1_555 1_555
H17_2 C9_2 1_555 1_555
H18_2 C9_2 1_555 1_555
C10_2 C9_2 1_555 1_555
H19_2 C10_2 1_555 1_555
H20_2 C10_2 1_555 1_555
C11_2 H21_2 1_555 1_555
H22_2 C11_2 1_555 1_555
H23_2 C11_2 1_555 1_555
O3_2 Co3_2 1_555 1_555
C12_2 C11_2 1_555 1_555
H27_2 C14_2 1_555 1_555
H28_2 C14_2 1_555 1_555
O2_2 C7_2 1_555 1_555
O3_2 C12_2 1_555 1_555
H24_2 N3_2 1_555 1_555
C13_2 N3_2 1_555 1_555
H25_2 C13_2 1_555 1_555
H26_2 C13_2 1_555 1_555
H29_2 C15_2 1_555 1_555
H35_2 C18_2 1_555 1_555
N6_2 C24_2 1_555 1_555
H47_2 C24_2 1_555 1_555
H48_2 C24_2 1_555 1_555
H51_2 N6_2 1_555 1_555
C19_2 C16_2 1_555 1_555
H31_2 C16_2 1_555 1_555
H32_2 C16_2 1_555 1_555
C20_2 C17_2 1_555 1_555
H33_2 C17_2 1_555 1_555
H34_2 C17_2 1_555 1_555
C22_2 C19_2 1_555 1_555
H37_2 C19_2 1_555 1_555
H38_2 C19_2 1_555 1_555
C23_2 C20_2 1_555 1_555
H39_2 C20_2 1_555 1_555
H40_2 C20_2 1_555 1_555
N4_2 C22_2 1_555 1_555
H43_2 C22_2 1_555 1_555
H44_2 C22_2 1_555 1_555
N5_2 C23_2 1_555 1_555
H45_2 C23_2 1_555 1_555
H46_2 C23_2 1_555 1_555
C25_2 N4_2 1_555 1_555
H49_2 N4_2 1_555 1_555
C26_2 N5_2 1_555 1_555
H50_2 N5_2 1_555 1_555
C28_2 C25_2 1_555 1_555
O4 C25_2 1_555 1_555
C29_2 C26_2 1_555 1_555
O8_2 C26_2 1_555 1_555
H52_2 C28_2 1_555 1_555
H53_2 C28_2 1_555 1_555
H54_2 C28_2 1_555 1_555
H55_2 C29_2 1_555 1_555
H56_2 C29_2 1_555 1_555
H57_2 C29_2 1_555 1_555
Co4_2 O8_2 1_555 1_555
H41_2 C21_2 1_555 1_555
H42_2 C21_2 1_555 1_555
C30_2 C27_2 1_555 1_555
O6 C27_2 1_555 1_555
H58_2 C30_2 1_555 1_555
H59_2 C30_2 1_555 1_555
H60_2 C30_2 1_555 1_555
C19_3 C16_3 1_555 1_555
C22_3 C19_3 1_555 1_555
H37_3 C19_3 1_555 1_555
H38_3 C19_3 1_555 1_555
N4_3 C22_3 1_555 1_555
H43_3 C22_3 1_555 1_555
H44_3 C22_3 1_555 1_555
C25_3 N4_3 1_555 1_555
H49_3 N4_3 1_555 1_555
C28_3 C25_3 1_555 1_555
O7_2 C25_3 1_555 1_555
H52_3 C28_3 1_555 1_555
H53_3 C28_3 1_555 1_555
H54_3 C28_3 1_555 1_555
Co4_2 O7_2 1_555 1_555
Co4 O1_3 1_555 1_555
C1_3 H1_3 1_555 1_555
H2_3 C1_3 1_555 1_555
H3_3 C1_3 1_555 1_555
O1_3 C2_3 1_555 1_555
C2_3 C1_3 1_555 1_555
N1_3 C2_3 1_555 1_555
H4_3 N1_3 1_555 1_555
C3_3 N1_3 1_555 1_555
H5_3 C3_3 1_555 1_555
H6_3 C3_3 1_555 1_555
C4_3 C3_3 1_555 1_555
H7_3 C4_3 1_555 1_555
H8_3 C4_3 1_555 1_555
C5_3 C4_3 1_555 1_555
C11_3 H21_3 1_555 1_555
H22_3 C11_3 1_555 1_555
H23_3 C11_3 1_555 1_555
O3_3 Co4 1_555 1_555
C12_3 C11_3 1_555 1_555
N3_3 C12_3 1_555 1_555
H24_3 N3_3 1_555 1_555
C13_3 N3_3 1_555 1_555
H25_3 C13_3 1_555 1_555
H26_3 C13_3 1_555 1_555
C14_3 C13_3 1_555 1_555
H27_3 C14_3 1_555 1_555
H28_3 C14_3 1_555 1_555
C15_3 C14_3 1_555 1_555
H29_3 C15_3 1_555 1_555
H30_3 C15_3 1_555 1_555
O4_2 Co4 1_555 1_555
O5_3 Co4 1_555 1_555
O6_2 Co4 1_555 1_555
C18_3 C15_3 1_555 1_555
C21_3 C18_3 1_555 1_555
H35_3 C18_3 1_555 1_555
H36_3 C18_3 1_555 1_555
C24_3 C21_3 1_555 1_555
H41_3 C21_3 1_555 1_555
H42_3 C21_3 1_555 1_555
N6_3 C24_3 1_555 1_555
H47_3 C24_3 1_555 1_555
H48_3 C24_3 1_555 1_555
C27_3 N6_3 1_555 1_555
H51_3 N6_3 1_555 1_555
C30_3 C27_3 1_555 1_555
O9_2 C27_3 1_555 1_555
H58_3 C30_3 1_555 1_555
H59_3 C30_3 1_555 1_555
H60_3 C30_3 1_555 1_555
Co4_2 O9_2 1_555 1_555
O3_3 C12_3 1_555 1_555
C19_4 C16_4 1_555 1_555
H31_4 C16_4 1_555 1_555
H32_4 C16_4 1_555 1_555
H35_4 C18_4 1_555 1_555
H36_4 C18_4 1_555 1_555
C22_4 C19_4 1_555 1_555
H37_4 C19_4 1_555 1_555
H38_4 C19_4 1_555 1_555
N4_4 C22_4 1_555 1_555
H43_4 C22_4 1_555 1_555
H44_4 C22_4 1_555 1_555
N6_4 C24_4 1_555 1_555
H47_4 C24_4 1_555 1_555
H48_4 C24_4 1_555 1_555
C25_4 N4_4 1_555 1_555
H49_4 N4_4 1_555 1_555
H51_4 N6_4 1_555 1_555
C28_4 C25_4 1_555 1_555
O4_2 C25_4 1_555 1_555
H52_4 C28_4 1_555 1_555
H53_4 C28_4 1_555 1_555
H54_4 C28_4 1_555 1_555
H41_4 C21_4 1_555 1_555
H42_4 C21_4 1_555 1_555
C30_4 C27_4 1_555 1_555
O6_2 C27_4 1_555 1_555
H58_4 C30_4 1_555 1_555
H59_4 C30_4 1_555 1_555
H60_4 C30_4 1_555 1_555
Co4_2 O1_4 1_555 1_555
C1_4 H1_4 1_555 1_555
H2_4 C1_4 1_555 1_555
H3_4 C1_4 1_555 1_555
O1_4 C2_4 1_555 1_555
C2_4 C1_4 1_555 1_555
N1_4 C2_4 1_555 1_555
H4_4 N1_4 1_555 1_555
C3_4 N1_4 1_555 1_555
H5_4 C3_4 1_555 1_555
H6_4 C3_4 1_555 1_555
C4_4 C3_4 1_555 1_555
H7_4 C4_4 1_555 1_555
H8_4 C4_4 1_555 1_555
C5_4 C4_4 1_555 1_555
H9_4 C5_4 1_555 1_555
H10_4 C5_4 1_555 1_555
C11_4 H21_4 1_555 1_555
H22_4 C11_4 1_555 1_555
H23_4 C11_4 1_555 1_555
O3_4 Co4_2 1_555 1_555
C12_4 C11_4 1_555 1_555
H27_4 C14_4 1_555 1_555
H28_4 C14_4 1_555 1_555
O5_4 Co4_2 1_555 1_555
O3_4 C12_4 1_555 1_555
H24_4 N3_4 1_555 1_555
C13_4 N3_4 1_555 1_555
H25_4 C13_4 1_555 1_555
H26_4 C13_4 1_555 1_555
H29_4 C15_4 1_555 1_555
H30_4 C15_4 1_555 1_555
N2_3 C7_3 1_555 1_555
C8_3 N2_3 1_555 1_555
H15_3 C8_3 1_555 1_555
H16_3 C8_3 1_555 1_555
C9_3 C8_3 1_555 1_555
H17_3 C9_3 1_555 1_555
H18_3 C9_3 1_555 1_555
C10_3 C9_3 1_555 1_555
H19_3 C10_3 1_555 1_555
H20_3 C10_3 1_555 1_555
C17_3 C10_3 1_555 1_555
C20_3 C17_3 1_555 1_555
H33_3 C17_3 1_555 1_555
H34_3 C17_3 1_555 1_555
C23_3 C20_3 1_555 1_555
H39_3 C20_3 1_555 1_555
H40_3 C20_3 1_555 1_555
N5_3 C23_3 1_555 1_555
H45_3 C23_3 1_555 1_555
H46_3 C23_3 1_555 1_555
C26_3 N5_3 1_555 1_555
O5_4 C26_3 1_555 1_555
O5_2 C7_3 1_555 1_555
C6_3 H11_3 1_555 1_555
H12_3 C6_3 1_555 1_555
H55_3 C29_3 1_555 1_555
H56_3 C29_3 1_555 1_555
H57_3 C29_3 1_555 1_555
C20_4 C17_4 1_555 1_555
H33_4 C17_4 1_555 1_555
H34_4 C17_4 1_555 1_555
C23_4 C20_4 1_555 1_555
H39_4 C20_4 1_555 1_555
H40_4 C20_4 1_555 1_555
N5_4 C23_4 1_555 1_555
H45_4 C23_4 1_555 1_555
H46_4 C23_4 1_555 1_555
C26_4 N5_4 1_555 1_555
H50_4 N5_4 1_555 1_555
C29_4 C26_4 1_555 1_555
O5_3 C26_4 1_555 1_555
H55_4 C29_4 1_555 1_555
H56_4 C29_4 1_555 1_555
H57_4 C29_4 1_555 1_555
C6_4 H11_4 1_555 1_555
H12_4 C6_4 1_555 1_555
C7_4 C6_4 1_555 1_555
N2_4 C7_4 1_555 1_555
H14_4 N2_4 1_555 1_555
C8_4 N2_4 1_555 1_555
H15_4 C8_4 1_555 1_555
H16_4 C8_4 1_555 1_555
C9_4 C8_4 1_555 1_555
H17_4 C9_4 1_555 1_555
H18_4 C9_4 1_555 1_555
C10_4 C9_4 1_555 1_555
H19_4 C10_4 1_555 1_555
H20_4 C10_4 1_555 1_555
O5 C7_4 1_555 1_555

#END
