
###############################################################################
#
# This file contains modified crystal structure data generated from the
# MOF subset of the Cambridge Structural Database (CSD) v543 
# hosted by the Cambridge Crystallographic Data Centre (CCDC).
#
# This work is licensed under the Creative Commons
# Attribution-NonCommercial-ShareAlike 4.0 International License.
# To view a copy of this license, visit
# http://creativecommons.org/licenses/by-nc-sa/4.0/
# or send a letter to
# Creative Commons, PO Box 1866, Mountain View, CA 94042, USA.
#
# CIF created using the CSD Python API on 29 September 2022
# The structure has been converted into the P1 space group
# The structure has a 3D framework
# The original CSD entry FEVVIM is in the monoclinic crystal system
# The framework has been calculated to contain at least 10.0% void space
# The void calculation uses a probe of radius 1.32A, grid spacing 0.4
# The framework is charged, counterions have been retained in the structure
#
###############################################################################

data_FEVVIM
_chemical_formula_moiety         '(C120 H240 Br16 Mn12 N24 O24 4+)n'
_symmetry_cell_setting           triclinic
_symmetry_space_group_name_H-M   'P 1'
_symmetry_Int_Tables_number      1
_space_group_name_Hall           'P 1'
loop_
_symmetry_equiv_pos_site_id
_symmetry_equiv_pos_as_xyz
1 x,y,z
_cell_length_a                   24.404(3)
_cell_length_b                   11.262(2)
_cell_length_c                   21.160(3)
_cell_angle_alpha                90
_cell_angle_beta                 102.334(11)
_cell_angle_gamma                90
_cell_volume                     5681.34
loop_
_atom_site_label
_atom_site_type_symbol
_atom_site_fract_x
_atom_site_fract_y
_atom_site_fract_z
Mn1 Mn 0.5000 0.3214(2) 0.7500
Br1 Br 0.54041(6) 0.19842(15) 0.84599(8)
Br2 Br 0.42423(5) 0.44784(12) 0.77697(6)
Br3 Br 0.45959(6) 0.19842(15) 0.65401(8)
Br4 Br 0.57577(5) 0.44784(12) 0.72303(6)
Mn1_2 Mn 0.0000 0.8214(2) 0.7500
Br1_2 Br 0.04041(6) 0.69842(15) 0.84599(8)
Br4_2 Br 0.07577(5) 0.94784(12) 0.72303(6)
Mn1_3 Mn 1.0000 0.8214(2) 0.7500
Br2_2 Br 0.92423(5) 0.94784(12) 0.77697(6)
Br3_2 Br 0.95959(6) 0.69842(15) 0.65401(8)
Mn1_4 Mn 0.5000 0.6786(2) 0.2500
Br1_3 Br 0.45959(6) 0.80158(15) 0.15401(8)
Br2_3 Br 0.57577(5) 0.55216(12) 0.22303(6)
Br3_3 Br 0.54041(6) 0.80158(15) 0.34599(8)
Br4_3 Br 0.42423(5) 0.55216(12) 0.27697(6)
Mn1_5 Mn -0.0000 0.1786(2) 0.2500
Br2_4 Br 0.07577(5) 0.05216(12) 0.22303(6)
Br3_4 Br 0.04041(6) 0.30158(15) 0.34599(8)
Mn1_6 Mn 1.0000 0.1786(2) 0.2500
Br1_4 Br 0.95959(6) 0.30158(15) 0.15401(8)
Br4_4 Br 0.92423(5) 0.05216(12) 0.27697(6)
Mn2 Mn 0.2500 0.2500 0.0000
H9 H 0.5111(5) 0.0205(12) 0.0666(5)
H10 H 0.5519(5) 0.0551(12) 0.0216(5)
O2 O 0.3062(3) 0.1535(7) 0.0745(3)
C7 C 0.3363(4) 0.0650(13) 0.0785(5)
N2 N 0.3845(5) 0.0673(9) 0.1244(5)
H14 H 0.4071(5) 0.0079(9) 0.1285(5)
C8 C 0.3983(4) 0.1697(12) 0.1670(9)
H15 H 0.3893(4) 0.2442(12) 0.1441(9)
H16 H 0.3803(4) 0.1663(12) 0.2036(9)
C9 C 0.4608(4) 0.1495(13) 0.1868(7)
H17 H 0.4808(4) 0.1770(13) 0.1546(7)
H18 H 0.4704(4) 0.0676(13) 0.1982(7)
C10 C 0.4684(2) 0.2297(18) 0.2447(9)
H19 H 0.5479(2) 0.3078(18) 0.2654(9)
H20 H 0.5451(2) 0.1949(18) 0.2195(9)
C11 C 0.2946(5) 0.4154(13) 0.1519(6)
H21 H 0.3172(5) 0.4521(13) 0.1895(6)
H22 H 0.2570(5) 0.4455(13) 0.1449(6)
H23 H 0.2942(5) 0.3310(13) 0.1581(6)
O3 O 0.2966(3) 0.4041(6) 0.0395(3)
C12 C 0.3189(4) 0.4427(11) 0.0939(5)
N3 N 0.3634(4) 0.5122(13) 0.1020(5)
H24 H 0.3772(4) 0.5373(13) 0.1405(5)
C13 C 0.3907(6) 0.5494(16) 0.0507(7)
H25 H 0.3650(6) 0.5388(16) 0.0093(7)
H26 H 0.3997(6) 0.6332(16) 0.0558(7)
C14 C 0.4429(6) 0.4817(15) 0.0507(7)
H27 H 0.4680(6) 0.4891(15) 0.0928(7)
H28 H 0.4338(6) 0.3983(15) 0.0433(7)
H30 H 0.5511(5) 0.4895(13) 0.0438(6)
O5 O 0.1884(3) 0.2786(6) 0.0597(3)
C21 C 0.5316(2) 0.2297(18) 0.2553(9)
C22 C 0.5392(4) 0.1495(13) 0.3132(7)
C23 C 0.6017(4) 0.1697(12) 0.3330(9)
N5 N 0.6155(5) 0.0673(9) 0.3756(5)
C24 C 0.6637(4) 0.0650(13) 0.4215(5)
O6 O 0.6938(3) 0.1535(7) 0.4255(3)
Mn4 Mn 0.7500 0.2500 0.5000
H37 H 0.5929(5) 0.0079(9) 0.3715(5)
H38 H 0.6107(4) 0.2442(12) 0.3559(9)
H39 H 0.6197(4) 0.1663(12) 0.2964(9)
H40 H 0.5192(4) 0.1770(13) 0.3454(7)
H41 H 0.5296(4) 0.0676(13) 0.3018(7)
H42 H 0.4521(2) 0.3078(18) 0.2346(9)
H43 H 0.4549(2) 0.1949(18) 0.2805(9)
C26 C 0.5275(5) 0.4732(13) 0.0016(6)
Mn5 Mn 0.7500 0.7500 0.0000
H52 H 0.4769(5) 0.6123(13) 0.0026(6)
Mn2_2 Mn 0.2500 0.2500 1.0000
C15 C 0.4725(5) 0.5268(13) 0.9984(6)
H29 H 0.5231(5) 0.3877(13) 0.9974(6)
C16 C 0.4760(5) 0.0023(12) 0.9720(5)
C17 C 0.4485(4) 0.1256(11) 0.9613(5)
C18 C 0.4026(5) 0.1295(10) 0.8995(5)
N4 N 0.3790(3) 0.2454(8) 0.8851(4)
C19 C 0.3345(4) 0.2855(9) 0.9051(4)
C20 C 0.3137(4) 0.4020(10) 0.8837(5)
H31 H 0.3372(4) 0.4361(10) 0.8573(5)
H32 H 0.2760(4) 0.3955(10) 0.8589(5)
H33 H 0.3142(4) 0.4519(10) 0.9206(5)
O4 O 0.3116(3) 0.2214(6) 0.9403(3)
O7 O 0.1938(3) 0.3465(7) 0.9255(3)
C27 C 0.5571(6) 0.5183(15) 0.9493(7)
C28 C 0.6093(6) 0.4506(16) 0.9493(7)
N6 N 0.6366(4) 0.4878(13) 0.8980(5)
C29 C 0.6811(4) 0.5573(11) 0.9061(5)
C30 C 0.7054(5) 0.5846(13) 0.8481(6)
H44 H 0.6828(5) 0.5479(13) 0.8105(6)
H45 H 0.7430(5) 0.5545(13) 0.8551(6)
H46 H 0.7058(5) 0.6690(13) 0.8419(6)
O8 O 0.7034(3) 0.5959(6) 0.9605(3)
Mn5_2 Mn 0.7500 0.7500 1.0000
H47 H 0.6228(4) 0.4627(13) 0.8595(5)
H48 H 0.6350(6) 0.4612(16) 0.9907(7)
H49 H 0.6003(6) 0.3668(16) 0.9442(7)
H50 H 0.5320(6) 0.5109(15) 0.9072(7)
H51 H 0.5662(6) 0.6017(15) 0.9567(7)
H53 H 0.4489(5) 0.5105(13) 0.9562(6)
O9 O 0.2034(3) 0.0959(6) 0.9605(3)
H54 H 0.3947(3) 0.2919(8) 0.8620(4)
H55 H 0.3729(5) 0.0750(10) 0.9040(5)
H56 H 0.4182(5) 0.1026(10) 0.8635(5)
H57 H 0.4769(4) 0.1844(11) 0.9585(5)
H58 H 0.4323(4) 0.1455(11) 0.9981(5)
C1 C 0.6863(4) 0.5980(10) 0.1163(5)
H1 H 0.6628(4) 0.5639(10) 0.1427(5)
H2 H 0.7240(4) 0.6045(10) 0.1411(5)
H3 H 0.6858(4) 0.5481(10) 0.0794(5)
O1 O 0.6884(3) 0.7786(6) 0.0597(3)
C2 C 0.6655(4) 0.7145(9) 0.0949(4)
N1 N 0.6210(3) 0.7546(8) 0.1149(4)
H4 H 0.6053(3) 0.7081(8) 0.1380(4)
C3 C 0.5974(5) 0.8705(10) 0.1005(5)
H5 H 0.6271(5) 0.9250(10) 0.0960(5)
H6 H 0.5818(5) 0.8974(10) 0.1365(5)
C4 C 0.5515(4) 0.8744(11) 0.0387(5)
H7 H 0.5231(4) 0.8156(11) 0.0415(5)
H8 H 0.5677(4) 0.8545(11) 0.0019(5)
C5 C 0.5240(5) 0.9977(12) 0.0280(5)
C6 C 0.3243(7) 0.9587(15) 0.0374(7)
H11 H 0.3540(7) 0.9021(15) 0.0500(7)
H12 H 0.2895(7) 0.9242(15) 0.0425(7)
C25 C 0.6757(7) 0.9587(15) 0.4626(7)
H34 H 0.6460(7) 0.9021(15) 0.4500(7)
H35 H 0.7105(7) 0.9242(15) 0.4575(7)
H36 H 0.6786(7) 0.9806(15) 0.5070(7)
H13 H 0.3214(7) 0.9806(15) 0.9930(7)
H59 H 0.4889(5) 0.9795(12) 0.9334(5)
H60 H 0.4481(5) 0.9449(12) 0.9784(5)
C27_2 C 0.0571(6) 0.0183(15) 0.9493(7)
C29_2 C 0.1811(4) 0.0573(11) 0.9061(5)
C30_2 C 0.2054(5) 0.0846(13) 0.8481(6)
H44_2 H 0.1828(5) 0.0479(13) 0.8105(6)
H45_2 H 0.2430(5) 0.0545(13) 0.8551(6)
H46_2 H 0.2058(5) 0.1690(13) 0.8419(6)
H50_2 H 0.0320(6) 0.0109(15) 0.9072(7)
H51_2 H 0.0662(6) 0.1017(15) 0.9567(7)
C1_2 C 0.1863(4) 0.0980(10) 0.1163(5)
H1_2 H 0.1628(4) 0.0639(10) 0.1427(5)
H2_2 H 0.2240(4) 0.1045(10) 0.1411(5)
H3_2 H 0.1858(4) 0.0481(10) 0.0794(5)
C2_2 C 0.1655(4) 0.2145(9) 0.0949(4)
N1_2 N 0.1210(3) 0.2546(8) 0.1149(4)
H4_2 H 0.1053(3) 0.2081(8) 0.1380(4)
C3_2 C 0.0974(5) 0.3705(10) 0.1005(5)
H5_2 H 0.1271(5) 0.4250(10) 0.0960(5)
H6_2 H 0.0818(5) 0.3974(10) 0.1365(5)
C4_2 C 0.0515(4) 0.3744(11) 0.0387(5)
H7_2 H 0.0231(4) 0.3156(11) 0.0415(5)
H8_2 H 0.0677(4) 0.3545(11) 0.0019(5)
C5_2 C 0.0240(5) 0.4977(12) 0.0280(5)
H9_2 H 0.0111(5) 0.5205(12) 0.0666(5)
H10_2 H 0.0519(5) 0.5551(12) 0.0216(5)
H19_2 H 0.0479(2) 0.8078(18) 0.2654(9)
H20_2 H 0.0451(2) 0.6949(18) 0.2195(9)
H30_2 H 0.0511(5) 0.9895(13) 0.0438(6)
C21_2 C 0.0316(2) 0.7297(18) 0.2553(9)
C22_2 C 0.0392(4) 0.6495(13) 0.3132(7)
C23_2 C 0.1017(4) 0.6697(12) 0.3330(9)
N5_2 N 0.1155(5) 0.5673(9) 0.3756(5)
C24_2 C 0.1637(4) 0.5650(13) 0.4215(5)
C25_2 C 0.1757(7) 0.4587(15) 0.4626(7)
H34_2 H 0.1460(7) 0.4021(15) 0.4500(7)
H35_2 H 0.2105(7) 0.4242(15) 0.4575(7)
H36_2 H 0.1786(7) 0.4806(15) 0.5070(7)
O6_2 O 0.1938(3) 0.6535(7) 0.4255(3)
Mn4_2 Mn 0.2500 0.7500 0.5000
H37_2 H 0.0929(5) 0.5079(9) 0.3715(5)
H38_2 H 0.1107(4) 0.7442(12) 0.3559(9)
H39_2 H 0.1197(4) 0.6663(12) 0.2964(9)
H40_2 H 0.0192(4) 0.6770(13) 0.3454(7)
H41_2 H 0.0296(4) 0.5676(13) 0.3018(7)
C26_2 C 0.0275(5) 0.9732(13) 0.0016(6)
H29_2 H 0.0231(5) 0.8877(13) 0.9974(6)
C28_2 C 0.1093(6) 0.9506(16) 0.9493(7)
N6_2 N 0.1366(4) 0.9878(13) 0.8980(5)
H47_2 H 0.1228(4) 0.9627(13) 0.8595(5)
H48_2 H 0.1350(6) 0.9612(16) 0.9907(7)
H49_2 H 0.1003(6) 0.8668(16) 0.9442(7)
N3_2 N 0.8634(4) 0.0122(13) 0.1020(5)
H24_2 H 0.8772(4) 0.0373(13) 0.1405(5)
C13_2 C 0.8907(6) 0.0494(16) 0.0507(7)
H25_2 H 0.8650(6) 0.0388(16) 0.0093(7)
H26_2 H 0.8997(6) 0.1332(16) 0.0558(7)
H52_2 H 0.9769(5) 0.1123(13) 0.0026(6)
C15_2 C 0.9725(5) 0.0268(13) 0.9984(6)
H53_2 H 0.9489(5) 0.0105(13) 0.9562(6)
C6_2 C 0.8243(7) 0.4587(15) 0.0374(7)
H11_2 H 0.8540(7) 0.4021(15) 0.0500(7)
H12_2 H 0.7895(7) 0.4242(15) 0.0425(7)
O2_2 O 0.8062(3) 0.6535(7) 0.0745(3)
C7_2 C 0.8363(4) 0.5650(13) 0.0785(5)
N2_2 N 0.8845(5) 0.5673(9) 0.1244(5)
H14_2 H 0.9071(5) 0.5079(9) 0.1285(5)
C8_2 C 0.8983(4) 0.6697(12) 0.1670(9)
H15_2 H 0.8893(4) 0.7442(12) 0.1441(9)
H16_2 H 0.8803(4) 0.6663(12) 0.2036(9)
C9_2 C 0.9608(4) 0.6495(13) 0.1868(7)
H17_2 H 0.9808(4) 0.6770(13) 0.1546(7)
H18_2 H 0.9704(4) 0.5676(13) 0.1982(7)
C10_2 C 0.9684(2) 0.7297(18) 0.2447(9)
C11_2 C 0.7946(5) 0.9154(13) 0.1519(6)
H21_2 H 0.8172(5) 0.9521(13) 0.1895(6)
H22_2 H 0.7570(5) 0.9455(13) 0.1449(6)
H23_2 H 0.7942(5) 0.8310(13) 0.1581(6)
O3_2 O 0.7966(3) 0.9041(6) 0.0395(3)
C12_2 C 0.8189(4) 0.9427(11) 0.0939(5)
C14_2 C 0.9429(6) 0.9817(15) 0.0507(7)
H27_2 H 0.9680(6) 0.9891(15) 0.0928(7)
H28_2 H 0.9338(6) 0.8983(15) 0.0433(7)
H42_2 H 0.9521(2) 0.8078(18) 0.2346(9)
H43_2 H 0.9549(2) 0.6949(18) 0.2805(9)
H13_2 H 0.8214(7) 0.4806(15) 0.9930(7)
C16_2 C 0.9760(5) 0.5023(12) 0.9720(5)
C17_2 C 0.9485(4) 0.6256(11) 0.9613(5)
C18_2 C 0.9026(5) 0.6295(10) 0.8995(5)
N4_2 N 0.8790(3) 0.7454(8) 0.8851(4)
C19_2 C 0.8345(4) 0.7855(9) 0.9051(4)
C20_2 C 0.8137(4) 0.9020(10) 0.8837(5)
H31_2 H 0.8372(4) 0.9361(10) 0.8573(5)
H32_2 H 0.7760(4) 0.8955(10) 0.8589(5)
H33_2 H 0.8142(4) 0.9519(10) 0.9206(5)
O4_2 O 0.8116(3) 0.7214(6) 0.9403(3)
O7_2 O 0.6938(3) 0.8465(7) 0.9255(3)
H54_2 H 0.8947(3) 0.7919(8) 0.8620(4)
H55_2 H 0.8729(5) 0.5750(10) 0.9040(5)
H56_2 H 0.9182(5) 0.6026(10) 0.8635(5)
H57_2 H 0.9769(4) 0.6844(11) 0.9585(5)
H58_2 H 0.9323(4) 0.6455(11) 0.9981(5)
H59_2 H 0.9889(5) 0.4795(12) 0.9334(5)
H60_2 H 0.9481(5) 0.4449(12) 0.9784(5)
H9_3 H 0.4889(5) 0.0205(12) 0.4334(5)
H10_3 H 0.4481(5) 0.0551(12) 0.4784(5)
C11_3 C 0.7054(5) 0.4154(13) 0.3481(6)
H21_3 H 0.6828(5) 0.4521(13) 0.3105(6)
H22_3 H 0.7430(5) 0.4455(13) 0.3551(6)
H23_3 H 0.7058(5) 0.3310(13) 0.3419(6)
O3_3 O 0.7034(3) 0.4041(6) 0.4605(3)
C12_3 C 0.6811(4) 0.4427(11) 0.4061(5)
N3_3 N 0.6366(4) 0.5122(13) 0.3980(5)
H24_3 H 0.6228(4) 0.5373(13) 0.3595(5)
C13_3 C 0.6093(6) 0.5494(16) 0.4493(7)
H25_3 H 0.6350(6) 0.5388(16) 0.4907(7)
H26_3 H 0.6003(6) 0.6332(16) 0.4442(7)
C14_3 C 0.5571(6) 0.4817(15) 0.4493(7)
H27_3 H 0.5320(6) 0.4891(15) 0.4072(7)
H28_3 H 0.5662(6) 0.3983(15) 0.4567(7)
C15_3 C 0.5275(5) 0.5268(13) 0.5016(6)
H29_3 H 0.4769(5) 0.3877(13) 0.5026(6)
H30_3 H 0.4489(5) 0.4895(13) 0.4562(6)
C16_3 C 0.5240(5) 0.0023(12) 0.5280(5)
C17_3 C 0.5515(4) 0.1256(11) 0.5387(5)
C18_3 C 0.5974(5) 0.1295(10) 0.6005(5)
N4_3 N 0.6210(3) 0.2454(8) 0.6149(4)
C19_3 C 0.6655(4) 0.2855(9) 0.5949(4)
C20_3 C 0.6863(4) 0.4020(10) 0.6163(5)
H31_3 H 0.6628(4) 0.4361(10) 0.6427(5)
H32_3 H 0.7240(4) 0.3955(10) 0.6411(5)
H33_3 H 0.6858(4) 0.4519(10) 0.5794(5)
O4_3 O 0.6884(3) 0.2214(6) 0.5597(3)
O5_2 O 0.8116(3) 0.2786(6) 0.4403(3)
O7_3 O 0.8062(3) 0.3465(7) 0.5745(3)
C26_3 C 0.4725(5) 0.4732(13) 0.4984(6)
C27_3 C 0.4429(6) 0.5183(15) 0.5507(7)
C28_3 C 0.3907(6) 0.4506(16) 0.5507(7)
N6_3 N 0.3634(4) 0.4878(13) 0.6020(5)
C29_3 C 0.3189(4) 0.5573(11) 0.5939(5)
C30_3 C 0.2946(5) 0.5846(13) 0.6519(6)
H44_3 H 0.3172(5) 0.5479(13) 0.6895(6)
H45_3 H 0.2570(5) 0.5545(13) 0.6449(6)
H46_3 H 0.2942(5) 0.6690(13) 0.6581(6)
O8_2 O 0.2966(3) 0.5959(6) 0.5395(3)
H47_3 H 0.3772(4) 0.4627(13) 0.6405(5)
H48_3 H 0.3650(6) 0.4612(16) 0.5093(7)
H49_3 H 0.3997(6) 0.3668(16) 0.5558(7)
H50_3 H 0.4680(6) 0.5109(15) 0.5928(7)
H51_3 H 0.4338(6) 0.6017(15) 0.5433(7)
H52_3 H 0.5231(5) 0.6123(13) 0.4974(6)
H53_3 H 0.5511(5) 0.5105(13) 0.5438(6)
O9_2 O 0.7966(3) 0.0959(6) 0.5395(3)
H54_3 H 0.6053(3) 0.2919(8) 0.6380(4)
H55_3 H 0.6271(5) 0.0750(10) 0.5960(5)
H56_3 H 0.5818(5) 0.1026(10) 0.6365(5)
H57_3 H 0.5231(4) 0.1844(11) 0.5415(5)
H58_3 H 0.5677(4) 0.1455(11) 0.5019(5)
C1_3 C 0.3137(4) 0.5980(10) 0.3837(5)
H1_3 H 0.3372(4) 0.5639(10) 0.3573(5)
H2_3 H 0.2760(4) 0.6045(10) 0.3589(5)
H3_3 H 0.3142(4) 0.5481(10) 0.4206(5)
O1_2 O 0.3116(3) 0.7786(6) 0.4403(3)
C2_3 C 0.3345(4) 0.7145(9) 0.4051(4)
N1_3 N 0.3790(3) 0.7546(8) 0.3851(4)
H4_3 H 0.3947(3) 0.7081(8) 0.3620(4)
C3_3 C 0.4026(5) 0.8705(10) 0.3995(5)
H5_3 H 0.3729(5) 0.9250(10) 0.4040(5)
H6_3 H 0.4182(5) 0.8974(10) 0.3635(5)
C4_3 C 0.4485(4) 0.8744(11) 0.4613(5)
H7_3 H 0.4769(4) 0.8156(11) 0.4585(5)
H8_3 H 0.4323(4) 0.8545(11) 0.4981(5)
C5_3 C 0.4760(5) 0.9977(12) 0.4720(5)
H59_3 H 0.5111(5) 0.9795(12) 0.5666(5)
H60_3 H 0.5519(5) 0.9449(12) 0.5216(5)
N3_4 N 0.1366(4) 0.0122(13) 0.3980(5)
H24_4 H 0.1228(4) 0.0373(13) 0.3595(5)
C13_4 C 0.1093(6) 0.0494(16) 0.4493(7)
H25_4 H 0.1350(6) 0.0388(16) 0.4907(7)
H26_4 H 0.1003(6) 0.1332(16) 0.4442(7)
C15_4 C 0.0275(5) 0.0268(13) 0.5016(6)
H52_4 H 0.0231(5) 0.1123(13) 0.4974(6)
H53_4 H 0.0511(5) 0.0105(13) 0.5438(6)
C11_4 C 0.2054(5) 0.9154(13) 0.3481(6)
H21_4 H 0.1828(5) 0.9521(13) 0.3105(6)
H22_4 H 0.2430(5) 0.9455(13) 0.3551(6)
H23_4 H 0.2058(5) 0.8310(13) 0.3419(6)
O3_4 O 0.2034(3) 0.9041(6) 0.4605(3)
C12_4 C 0.1811(4) 0.9427(11) 0.4061(5)
C14_4 C 0.0571(6) 0.9817(15) 0.4493(7)
H27_4 H 0.0320(6) 0.9891(15) 0.4072(7)
H28_4 H 0.0662(6) 0.8983(15) 0.4567(7)
C16_4 C 0.0240(5) 0.5023(12) 0.5280(5)
C17_4 C 0.0515(4) 0.6256(11) 0.5387(5)
C18_4 C 0.0974(5) 0.6295(10) 0.6005(5)
N4_4 N 0.1210(3) 0.7454(8) 0.6149(4)
C19_4 C 0.1655(4) 0.7855(9) 0.5949(4)
C20_4 C 0.1863(4) 0.9020(10) 0.6163(5)
H31_4 H 0.1628(4) 0.9361(10) 0.6427(5)
H32_4 H 0.2240(4) 0.8955(10) 0.6411(5)
H33_4 H 0.1858(4) 0.9519(10) 0.5794(5)
O4_4 O 0.1884(3) 0.7214(6) 0.5597(3)
O7_4 O 0.3062(3) 0.8465(7) 0.5745(3)
H54_4 H 0.1053(3) 0.7919(8) 0.6380(4)
H55_4 H 0.1271(5) 0.5750(10) 0.5960(5)
H56_4 H 0.0818(5) 0.6026(10) 0.6365(5)
H57_4 H 0.0231(4) 0.6844(11) 0.5415(5)
H58_4 H 0.0677(4) 0.6455(11) 0.5019(5)
H59_4 H 0.0111(5) 0.4795(12) 0.5666(5)
H60_4 H 0.0519(5) 0.4449(12) 0.5216(5)
C27_4 C 0.9429(6) 0.0183(15) 0.5507(7)
C29_4 C 0.8189(4) 0.0573(11) 0.5939(5)
C30_4 C 0.7946(5) 0.0846(13) 0.6519(6)
H44_4 H 0.8172(5) 0.0479(13) 0.6895(6)
H45_4 H 0.7570(5) 0.0545(13) 0.6449(6)
H46_4 H 0.7942(5) 0.1690(13) 0.6581(6)
H50_4 H 0.9680(6) 0.0109(15) 0.5928(7)
H51_4 H 0.9338(6) 0.1017(15) 0.5433(7)
C1_4 C 0.8137(4) 0.0980(10) 0.3837(5)
H1_4 H 0.8372(4) 0.0639(10) 0.3573(5)
H2_4 H 0.7760(4) 0.1045(10) 0.3589(5)
H3_4 H 0.8142(4) 0.0481(10) 0.4206(5)
C2_4 C 0.8345(4) 0.2145(9) 0.4051(4)
N1_4 N 0.8790(3) 0.2546(8) 0.3851(4)
H4_4 H 0.8947(3) 0.2081(8) 0.3620(4)
C3_4 C 0.9026(5) 0.3705(10) 0.3995(5)
H5_4 H 0.8729(5) 0.4250(10) 0.4040(5)
H6_4 H 0.9182(5) 0.3974(10) 0.3635(5)
C4_4 C 0.9485(4) 0.3744(11) 0.4613(5)
H7_4 H 0.9769(4) 0.3156(11) 0.4585(5)
H8_4 H 0.9323(4) 0.3545(11) 0.4981(5)
C5_4 C 0.9760(5) 0.4977(12) 0.4720(5)
H9_4 H 0.9889(5) 0.5205(12) 0.4334(5)
H10_4 H 0.9481(5) 0.5551(12) 0.4784(5)
H29_4 H 0.9769(5) 0.8877(13) 0.5026(6)
H30_4 H 0.9489(5) 0.9895(13) 0.4562(6)
C26_4 C 0.9725(5) 0.9732(13) 0.4984(6)
C28_4 C 0.8907(6) 0.9506(16) 0.5507(7)
N6_4 N 0.8634(4) 0.9878(13) 0.6020(5)
H47_4 H 0.8772(4) 0.9627(13) 0.6405(5)
H48_4 H 0.8650(6) 0.9612(16) 0.5093(7)
H49_4 H 0.8997(6) 0.8668(16) 0.5558(7)
H13_3 H 0.6786(7) 0.0194(15) 0.0070(7)
C6_3 C 0.6757(7) 0.0413(15) 0.9626(7)
H11_3 H 0.6460(7) 0.0979(15) 0.9500(7)
H12_3 H 0.7105(7) 0.0758(15) 0.9575(7)
C25_3 C 0.3243(7) 0.0413(15) 0.5374(7)
H34_3 H 0.3540(7) 0.0979(15) 0.5500(7)
H35_3 H 0.2895(7) 0.0758(15) 0.5425(7)
H36_3 H 0.3214(7) 0.0194(15) 0.4930(7)
C7_3 C 0.6637(4) 0.9350(13) 0.9215(5)
N2_3 N 0.6155(5) 0.9327(9) 0.8756(5)
H14_3 H 0.5929(5) 0.9921(9) 0.8715(5)
C8_3 C 0.6017(4) 0.8303(12) 0.8330(9)
H15_3 H 0.6107(4) 0.7558(12) 0.8559(9)
H16_3 H 0.6197(4) 0.8337(12) 0.7964(9)
C9_3 C 0.5392(4) 0.8505(13) 0.8132(7)
H17_3 H 0.5192(4) 0.8230(13) 0.8454(7)
H18_3 H 0.5296(4) 0.9324(13) 0.8018(7)
C10_3 C 0.5316(2) 0.7703(18) 0.7553(9)
H19_3 H 0.4521(2) 0.6922(18) 0.7346(9)
H20_3 H 0.4549(2) 0.8051(18) 0.7805(9)
C21_3 C 0.4684(2) 0.7703(18) 0.7447(9)
C22_3 C 0.4608(4) 0.8505(13) 0.6868(7)
C23_3 C 0.3983(4) 0.8303(12) 0.6670(9)
N5_3 N 0.3845(5) 0.9327(9) 0.6244(5)
C24_3 C 0.3363(4) 0.9350(13) 0.5785(5)
H37_3 H 0.4071(5) 0.9921(9) 0.6285(5)
H38_3 H 0.3893(4) 0.7558(12) 0.6441(9)
H39_3 H 0.3803(4) 0.8337(12) 0.7036(9)
H40_3 H 0.4808(4) 0.8230(13) 0.6546(7)
H41_3 H 0.4704(4) 0.9324(13) 0.6982(7)
H42_3 H 0.5479(2) 0.6922(18) 0.7654(9)
H43_3 H 0.5451(2) 0.8051(18) 0.7195(9)
H13_4 H 0.1786(7) 0.5194(15) 0.0070(7)
C6_4 C 0.1757(7) 0.5413(15) 0.9626(7)
H11_4 H 0.1460(7) 0.5979(15) 0.9500(7)
H12_4 H 0.2105(7) 0.5758(15) 0.9575(7)
C7_4 C 0.1637(4) 0.4350(13) 0.9215(5)
N2_4 N 0.1155(5) 0.4327(9) 0.8756(5)
H14_4 H 0.0929(5) 0.4921(9) 0.8715(5)
C8_4 C 0.1017(4) 0.3303(12) 0.8330(9)
H15_4 H 0.1107(4) 0.2558(12) 0.8559(9)
H16_4 H 0.1197(4) 0.3337(12) 0.7964(9)
C9_4 C 0.0392(4) 0.3505(13) 0.8132(7)
H17_4 H 0.0192(4) 0.3230(13) 0.8454(7)
H18_4 H 0.0296(4) 0.4324(13) 0.8018(7)
C10_4 C 0.0316(2) 0.2703(18) 0.7553(9)
H42_4 H 0.0479(2) 0.1922(18) 0.7654(9)
H43_4 H 0.0451(2) 0.3051(18) 0.7195(9)
H19_4 H 0.9521(2) 0.1922(18) 0.7346(9)
H20_4 H 0.9549(2) 0.3051(18) 0.7805(9)
C21_4 C 0.9684(2) 0.2703(18) 0.7447(9)
C22_4 C 0.9608(4) 0.3505(13) 0.6868(7)
C23_4 C 0.8983(4) 0.3303(12) 0.6670(9)
N5_4 N 0.8845(5) 0.4327(9) 0.6244(5)
C24_4 C 0.8363(4) 0.4350(13) 0.5785(5)
C25_4 C 0.8243(7) 0.5413(15) 0.5374(7)
H34_4 H 0.8540(7) 0.5979(15) 0.5500(7)
H35_4 H 0.7895(7) 0.5758(15) 0.5425(7)
H36_4 H 0.8214(7) 0.5194(15) 0.4930(7)
H37_4 H 0.9071(5) 0.4921(9) 0.6285(5)
H38_4 H 0.8893(4) 0.2558(12) 0.6441(9)
H39_4 H 0.8803(4) 0.3337(12) 0.7036(9)
H40_4 H 0.9808(4) 0.3230(13) 0.6546(7)
H41_4 H 0.9704(4) 0.4324(13) 0.6982(7)
loop_
_geom_bond_atom_site_label_1
_geom_bond_atom_site_label_2
_geom_bond_site_symmetry_1
_geom_bond_site_symmetry_2
Mn1 Br1 1_555 1_555
Br2 Mn1 1_555 1_555
Br3 Mn1 1_555 1_555
Br4 Mn1 1_555 1_555
Mn1_2 Br1_2 1_555 1_555
Br4_2 Mn1_2 1_555 1_555
Br2_2 Mn1_3 1_555 1_555
Br3_2 Mn1_3 1_555 1_555
Mn1_4 Br1_3 1_555 1_555
Br2_3 Mn1_4 1_555 1_555
Br3_3 Mn1_4 1_555 1_555
Br4_3 Mn1_4 1_555 1_555
Br2_4 Mn1_5 1_555 1_555
Br3_4 Mn1_5 1_555 1_555
Mn1_6 Br1_4 1_555 1_555
Br4_4 Mn1_6 1_555 1_555
Mn2 O2 1_555 1_555
O2 C7 1_555 1_555
N2 C7 1_555 1_555
H14 N2 1_555 1_555
C8 N2 1_555 1_555
H15 C8 1_555 1_555
H16 C8 1_555 1_555
C9 C8 1_555 1_555
H17 C9 1_555 1_555
H18 C9 1_555 1_555
C10 C9 1_555 1_555
H19 C21 1_555 1_555
H20 C21 1_555 1_555
C11 H21 1_555 1_555
H22 C11 1_555 1_555
H23 C11 1_555 1_555
O3 Mn2 1_555 1_555
C12 C11 1_555 1_555
N3 C12 1_555 1_555
H24 N3 1_555 1_555
C13 N3 1_555 1_555
H25 C13 1_555 1_555
H26 C13 1_555 1_555
C14 C13 1_555 1_555
H27 C14 1_555 1_555
H28 C14 1_555 1_555
H30 C26 1_555 1_555
O5 Mn2 1_555 1_555
C21 C10 1_555 1_555
C22 C21 1_555 1_555
C23 C22 1_555 1_555
N5 C23 1_555 1_555
C24 N5 1_555 1_555
O6 C24 1_555 1_555
Mn4 O6 1_555 1_555
H37 N5 1_555 1_555
H38 C23 1_555 1_555
H39 C23 1_555 1_555
H40 C22 1_555 1_555
H41 C22 1_555 1_555
H42 C10 1_555 1_555
H43 C10 1_555 1_555
O3 C12 1_555 1_555
C17 C16 1_555 1_555
C18 C17 1_555 1_555
N4 C18 1_555 1_555
C19 N4 1_555 1_555
C20 C19 1_555 1_555
H31 C20 1_555 1_555
H32 C20 1_555 1_555
H33 C20 1_555 1_555
O4 Mn2_2 1_555 1_555
O7 Mn2_2 1_555 1_555
C28 C27 1_555 1_555
N6 C28 1_555 1_555
C29 N6 1_555 1_555
C30 C29 1_555 1_555
H44 C30 1_555 1_555
H45 C30 1_555 1_555
H46 C30 1_555 1_555
O8 C29 1_555 1_555
Mn5_2 O8 1_555 1_555
H47 N6 1_555 1_555
H48 C28 1_555 1_555
H49 C28 1_555 1_555
H50 C27 1_555 1_555
H51 C27 1_555 1_555
H53 C15 1_555 1_555
O9 Mn2_2 1_555 1_555
H54 N4 1_555 1_555
H55 C18 1_555 1_555
H56 C18 1_555 1_555
H57 C17 1_555 1_555
H58 C17 1_555 1_555
C19 O4 1_555 1_555
C1 H1 1_555 1_555
H2 C1 1_555 1_555
H3 C1 1_555 1_555
O1 C2 1_555 1_555
C2 C1 1_555 1_555
N1 C2 1_555 1_555
H4 N1 1_555 1_555
C3 N1 1_555 1_555
H5 C3 1_555 1_555
H6 C3 1_555 1_555
C4 C3 1_555 1_555
H7 C4 1_555 1_555
H8 C4 1_555 1_555
C5 C4 1_555 1_555
C6 H11 1_555 1_555
H12 C6 1_555 1_555
Mn5 O1 1_555 1_555
H34 C25 1_555 1_555
H35 C25 1_555 1_555
H36 C25 1_555 1_555
C30_2 C29_2 1_555 1_555
H44_2 C30_2 1_555 1_555
H45_2 C30_2 1_555 1_555
H46_2 C30_2 1_555 1_555
O9 C29_2 1_555 1_555
H50_2 C27_2 1_555 1_555
H51_2 C27_2 1_555 1_555
C1_2 H1_2 1_555 1_555
H2_2 C1_2 1_555 1_555
H3_2 C1_2 1_555 1_555
O5 C2_2 1_555 1_555
C2_2 C1_2 1_555 1_555
N1_2 C2_2 1_555 1_555
H4_2 N1_2 1_555 1_555
C3_2 N1_2 1_555 1_555
H5_2 C3_2 1_555 1_555
H6_2 C3_2 1_555 1_555
C4_2 C3_2 1_555 1_555
H7_2 C4_2 1_555 1_555
H8_2 C4_2 1_555 1_555
C5_2 C4_2 1_555 1_555
H9_2 C5_2 1_555 1_555
H10_2 C5_2 1_555 1_555
H19_2 C21_2 1_555 1_555
H20_2 C21_2 1_555 1_555
H30_2 C26_2 1_555 1_555
C22_2 C21_2 1_555 1_555
C23_2 C22_2 1_555 1_555
N5_2 C23_2 1_555 1_555
C24_2 N5_2 1_555 1_555
C25_2 C24_2 1_555 1_555
H34_2 C25_2 1_555 1_555
H35_2 C25_2 1_555 1_555
H36_2 C25_2 1_555 1_555
O6_2 C24_2 1_555 1_555
Mn4_2 O6_2 1_555 1_555
H37_2 N5_2 1_555 1_555
H38_2 C23_2 1_555 1_555
H39_2 C23_2 1_555 1_555
H40_2 C22_2 1_555 1_555
H41_2 C22_2 1_555 1_555
N6_2 C28_2 1_555 1_555
H47_2 N6_2 1_555 1_555
H48_2 C28_2 1_555 1_555
H49_2 C28_2 1_555 1_555
H24_2 N3_2 1_555 1_555
C13_2 N3_2 1_555 1_555
H25_2 C13_2 1_555 1_555
H26_2 C13_2 1_555 1_555
H53_2 C15_2 1_555 1_555
Mn5 O2_2 1_555 1_555
C6_2 H11_2 1_555 1_555
H12_2 C6_2 1_555 1_555
O2_2 C7_2 1_555 1_555
C7_2 C6_2 1_555 1_555
N2_2 C7_2 1_555 1_555
H14_2 N2_2 1_555 1_555
C8_2 N2_2 1_555 1_555
H15_2 C8_2 1_555 1_555
H16_2 C8_2 1_555 1_555
C9_2 C8_2 1_555 1_555
H17_2 C9_2 1_555 1_555
H18_2 C9_2 1_555 1_555
C10_2 C9_2 1_555 1_555
C11_2 H21_2 1_555 1_555
H22_2 C11_2 1_555 1_555
H23_2 C11_2 1_555 1_555
O3_2 Mn5 1_555 1_555
C12_2 C11_2 1_555 1_555
H27_2 C14_2 1_555 1_555
H28_2 C14_2 1_555 1_555
H42_2 C10_2 1_555 1_555
H43_2 C10_2 1_555 1_555
O3_2 C12_2 1_555 1_555
C17_2 C16_2 1_555 1_555
C18_2 C17_2 1_555 1_555
N4_2 C18_2 1_555 1_555
C19_2 N4_2 1_555 1_555
C20_2 C19_2 1_555 1_555
H31_2 C20_2 1_555 1_555
H32_2 C20_2 1_555 1_555
H33_2 C20_2 1_555 1_555
O4_2 Mn5_2 1_555 1_555
O7_2 Mn5_2 1_555 1_555
H54_2 N4_2 1_555 1_555
H55_2 C18_2 1_555 1_555
H56_2 C18_2 1_555 1_555
H57_2 C17_2 1_555 1_555
H58_2 C17_2 1_555 1_555
H59_2 C16_2 1_555 1_555
H60_2 C16_2 1_555 1_555
C19_2 O4_2 1_555 1_555
C11_3 H21_3 1_555 1_555
H22_3 C11_3 1_555 1_555
H23_3 C11_3 1_555 1_555
O3_3 Mn4 1_555 1_555
C12_3 C11_3 1_555 1_555
N3_3 C12_3 1_555 1_555
H24_3 N3_3 1_555 1_555
C13_3 N3_3 1_555 1_555
H25_3 C13_3 1_555 1_555
H26_3 C13_3 1_555 1_555
C14_3 C13_3 1_555 1_555
H27_3 C14_3 1_555 1_555
H28_3 C14_3 1_555 1_555
C15_3 C14_3 1_555 1_555
H29_3 C26_3 1_555 1_555
H30_3 C26_3 1_555 1_555
C17_3 C16_3 1_555 1_555
C18_3 C17_3 1_555 1_555
N4_3 C18_3 1_555 1_555
C19_3 N4_3 1_555 1_555
C20_3 C19_3 1_555 1_555
H31_3 C20_3 1_555 1_555
H32_3 C20_3 1_555 1_555
H33_3 C20_3 1_555 1_555
O4_3 Mn4 1_555 1_555
O5_2 Mn4 1_555 1_555
O7_3 Mn4 1_555 1_555
C26_3 C15_3 1_555 1_555
C27_3 C26_3 1_555 1_555
C28_3 C27_3 1_555 1_555
N6_3 C28_3 1_555 1_555
C29_3 N6_3 1_555 1_555
C30_3 C29_3 1_555 1_555
H44_3 C30_3 1_555 1_555
H45_3 C30_3 1_555 1_555
H46_3 C30_3 1_555 1_555
O8_2 C29_3 1_555 1_555
Mn4_2 O8_2 1_555 1_555
H47_3 N6_3 1_555 1_555
H48_3 C28_3 1_555 1_555
H49_3 C28_3 1_555 1_555
H50_3 C27_3 1_555 1_555
H51_3 C27_3 1_555 1_555
H52_3 C15_3 1_555 1_555
H53_3 C15_3 1_555 1_555
O9_2 Mn4 1_555 1_555
H54_3 N4_3 1_555 1_555
H55_3 C18_3 1_555 1_555
H56_3 C18_3 1_555 1_555
H57_3 C17_3 1_555 1_555
H58_3 C17_3 1_555 1_555
O3_3 C12_3 1_555 1_555
C19_3 O4_3 1_555 1_555
C1_3 H1_3 1_555 1_555
H2_3 C1_3 1_555 1_555
H3_3 C1_3 1_555 1_555
O1_2 C2_3 1_555 1_555
C2_3 C1_3 1_555 1_555
N1_3 C2_3 1_555 1_555
H4_3 N1_3 1_555 1_555
C3_3 N1_3 1_555 1_555
H5_3 C3_3 1_555 1_555
H6_3 C3_3 1_555 1_555
C4_3 C3_3 1_555 1_555
H7_3 C4_3 1_555 1_555
H8_3 C4_3 1_555 1_555
C5_3 C4_3 1_555 1_555
Mn4_2 O1_2 1_555 1_555
H24_4 N3_4 1_555 1_555
C13_4 N3_4 1_555 1_555
H25_4 C13_4 1_555 1_555
H26_4 C13_4 1_555 1_555
H52_4 C15_4 1_555 1_555
H53_4 C15_4 1_555 1_555
C11_4 H21_4 1_555 1_555
H22_4 C11_4 1_555 1_555
H23_4 C11_4 1_555 1_555
O3_4 Mn4_2 1_555 1_555
C12_4 C11_4 1_555 1_555
H27_4 C14_4 1_555 1_555
H28_4 C14_4 1_555 1_555
C17_4 C16_4 1_555 1_555
C18_4 C17_4 1_555 1_555
N4_4 C18_4 1_555 1_555
C19_4 N4_4 1_555 1_555
C20_4 C19_4 1_555 1_555
H31_4 C20_4 1_555 1_555
H32_4 C20_4 1_555 1_555
H33_4 C20_4 1_555 1_555
O4_4 Mn4_2 1_555 1_555
O7_4 Mn4_2 1_555 1_555
H54_4 N4_4 1_555 1_555
H55_4 C18_4 1_555 1_555
H56_4 C18_4 1_555 1_555
H57_4 C17_4 1_555 1_555
H58_4 C17_4 1_555 1_555
H59_4 C16_4 1_555 1_555
H60_4 C16_4 1_555 1_555
O3_4 C12_4 1_555 1_555
C19_4 O4_4 1_555 1_555
C30_4 C29_4 1_555 1_555
H44_4 C30_4 1_555 1_555
H45_4 C30_4 1_555 1_555
H46_4 C30_4 1_555 1_555
O9_2 C29_4 1_555 1_555
H50_4 C27_4 1_555 1_555
H51_4 C27_4 1_555 1_555
C1_4 H1_4 1_555 1_555
H2_4 C1_4 1_555 1_555
H3_4 C1_4 1_555 1_555
O5_2 C2_4 1_555 1_555
C2_4 C1_4 1_555 1_555
N1_4 C2_4 1_555 1_555
H4_4 N1_4 1_555 1_555
C3_4 N1_4 1_555 1_555
H5_4 C3_4 1_555 1_555
H6_4 C3_4 1_555 1_555
C4_4 C3_4 1_555 1_555
H7_4 C4_4 1_555 1_555
H8_4 C4_4 1_555 1_555
C5_4 C4_4 1_555 1_555
H9_4 C5_4 1_555 1_555
H10_4 C5_4 1_555 1_555
H29_4 C26_4 1_555 1_555
H30_4 C26_4 1_555 1_555
N6_4 C28_4 1_555 1_555
H47_4 N6_4 1_555 1_555
H48_4 C28_4 1_555 1_555
H49_4 C28_4 1_555 1_555
C6_3 H11_3 1_555 1_555
H12_3 C6_3 1_555 1_555
H34_3 C25_3 1_555 1_555
H35_3 C25_3 1_555 1_555
H36_3 C25_3 1_555 1_555
O7_2 C7_3 1_555 1_555
N2_3 C7_3 1_555 1_555
H14_3 N2_3 1_555 1_555
C8_3 N2_3 1_555 1_555
H15_3 C8_3 1_555 1_555
H16_3 C8_3 1_555 1_555
C9_3 C8_3 1_555 1_555
H17_3 C9_3 1_555 1_555
H18_3 C9_3 1_555 1_555
C10_3 C9_3 1_555 1_555
H19_3 C21_3 1_555 1_555
H20_3 C21_3 1_555 1_555
C21_3 C10_3 1_555 1_555
C22_3 C21_3 1_555 1_555
C23_3 C22_3 1_555 1_555
N5_3 C23_3 1_555 1_555
C24_3 N5_3 1_555 1_555
O7_4 C24_3 1_555 1_555
H37_3 N5_3 1_555 1_555
H38_3 C23_3 1_555 1_555
H39_3 C23_3 1_555 1_555
H40_3 C22_3 1_555 1_555
H41_3 C22_3 1_555 1_555
H42_3 C10_3 1_555 1_555
H43_3 C10_3 1_555 1_555
C6_4 H11_4 1_555 1_555
H12_4 C6_4 1_555 1_555
O7 C7_4 1_555 1_555
C7_4 C6_4 1_555 1_555
N2_4 C7_4 1_555 1_555
H14_4 N2_4 1_555 1_555
C8_4 N2_4 1_555 1_555
H15_4 C8_4 1_555 1_555
H16_4 C8_4 1_555 1_555
C9_4 C8_4 1_555 1_555
H17_4 C9_4 1_555 1_555
H18_4 C9_4 1_555 1_555
C10_4 C9_4 1_555 1_555
H42_4 C10_4 1_555 1_555
H43_4 C10_4 1_555 1_555
H19_4 C21_4 1_555 1_555
H20_4 C21_4 1_555 1_555
C22_4 C21_4 1_555 1_555
C23_4 C22_4 1_555 1_555
N5_4 C23_4 1_555 1_555
C24_4 N5_4 1_555 1_555
C25_4 C24_4 1_555 1_555
H34_4 C25_4 1_555 1_555
H35_4 C25_4 1_555 1_555
H36_4 C25_4 1_555 1_555
O7_3 C24_4 1_555 1_555
H37_4 N5_4 1_555 1_555
H38_4 C23_4 1_555 1_555
H39_4 C23_4 1_555 1_555
H40_4 C22_4 1_555 1_555
H41_4 C22_4 1_555 1_555

#END
