
###############################################################################
#
# This file contains modified crystal structure data generated from the
# MOF subset of the Cambridge Structural Database (CSD) v543 
# hosted by the Cambridge Crystallographic Data Centre (CCDC).
#
# This work is licensed under the Creative Commons
# Attribution-NonCommercial-ShareAlike 4.0 International License.
# To view a copy of this license, visit
# http://creativecommons.org/licenses/by-nc-sa/4.0/
# or send a letter to
# Creative Commons, PO Box 1866, Mountain View, CA 94042, USA.
#
# CIF created using the CSD Python API on 29 September 2022
# The structure has been converted into the P1 space group
# The structure has a 3D framework
# The original CSD entry FEWGUL is in the monoclinic crystal system
# The framework has been calculated to contain at least 10.0% void space
# The void calculation uses a probe of radius 1.32A, grid spacing 0.4
# H atom positions have been added when not included in the experimental data
#
###############################################################################

data_FEWGUL
_chemical_formula_moiety         '(C96 H64 La4 N24 O27)n'
_symmetry_cell_setting           triclinic
_symmetry_space_group_name_H-M   'P 1'
_symmetry_Int_Tables_number      1
_space_group_name_Hall           'P 1'
loop_
_symmetry_equiv_pos_site_id
_symmetry_equiv_pos_as_xyz
1 x,y,z
_cell_length_a                   5.1474(10)
_cell_length_b                   18.232(4)
_cell_length_c                   26.783(5)
_cell_angle_alpha                90
_cell_angle_beta                 90.08(3)
_cell_angle_gamma                90
_cell_volume                     2513.51
loop_
_atom_site_label
_atom_site_type_symbol
_atom_site_fract_x
_atom_site_fract_y
_atom_site_fract_z
H11 H 0.1226 0.4293 0.2074
H12 H 0.0556 0.4642 0.1223
La4 La 0.1478(4) 0.10559(5) 0.47778(5)
La11 La 0.1478(4) 0.39441(5) 0.97778(5)
C1 C 0.678(5) 0.2244(11) 0.5138(7)
C2 C 0.622(5) 0.2967(10) 0.5380(7)
C3 C 0.422(4) 0.3415(10) 0.5195(9)
H1 H 0.3061 0.3237 0.4948
C4 C 0.397(5) 0.4121(10) 0.5379(6)
C5 C 0.552(5) 0.4382(13) 0.5735(8)
H2 H 0.5204 0.4856 0.5868
C6 C 0.761(5) 0.3971(13) 0.5916(8)
H3 H 0.8809 0.4163 0.6153
C7 C 0.784(5) 0.3248(11) 0.5725(7)
H4 H 0.9206 0.2947 0.5847
C8 C 0.177(5) 0.4580(11) 0.5176(8)
C16 C 0.083(5) 0.1915(12) 0.2415(8)
C17 C 0.419(5) 0.2792(12) 0.2043(8)
C18 C 0.662(6) 0.4372(11) 0.0584(7)
C19 C 0.721(5) 0.4070(10) 0.1118(7)
C20 C 0.562(5) 0.3562(11) 0.1326(7)
H9 H 0.4238 0.336 0.1134
C21 C 0.599(5) 0.3330(11) 0.1823(7)
C22 C 0.802(6) 0.3589(13) 0.2087(9)
H10 H 0.8264 0.3423 0.242
C23 C 0.981(6) 0.4105(12) 0.1885(8)
C24 C 0.936(5) 0.4321(11) 0.1382(8)
O1 O 0.487(4) 0.1989(7) 0.4890(6)
O2 O 0.880(4) 0.1934(7) 0.5222(6)
O5 O 0.441(4) 0.4334(8) 0.0448(5)
O6 O 0.854(4) 0.4666(7) 0.0370(4)
O7 O 0.072(6) 0.2322(14) 0.4193(9)
N1 N 0.147(5) 0.5232(9) 0.5397(6)
N2 N 0.041(4) 0.4351(10) 0.4791(8)
N3 N 0.234(5) 0.2311(11) 0.2712(8)
N4 N 0.413(5) 0.2781(10) 0.2536(7)
N5 N 0.276(4) 0.2365(10) 0.1730(7)
N6 N 0.114(5) 0.1921(10) 0.1925(7)
O17 O 0.388(4) 0.0851(7) 0.4016(5)
O20 O 0.441(4) 0.0666(8) 0.5448(5)
La7 La 0.8522(4) 0.60559(5) 0.02222(5)
H25 H 0.22257 0.238892 0.396615
O22 O 0.146(4) 0.9666(7) 0.4630(4)
C9 C 0.606(7) 0.0916(11) 0.3898(8)
C10 C 0.663(7) 0.0999(13) 0.3333(8)
C11 C 0.848(6) 0.1360(10) 0.3140(7)
H5 H 0.9663 0.1595 0.3359
C12 C 0.890(6) 0.1435(12) 0.2627(8)
C13 C 0.703(6) 0.1106(14) 0.2307(10)
H6 H 0.7151 0.1175 0.1956
C14 C 0.503(7) 0.0681(16) 0.2505(10)
H7 H 0.3826 0.0436 0.2294
C15 C 0.486(6) 0.0629(13) 0.3014(8)
H8 H 0.3527 0.0338 0.3157
O4 O 0.811(4) 0.0960(9) 0.4164(6)
C25 C 0.322(5) 0.7756(11) 0.4862(7)
C26 C 0.378(5) 0.7033(10) 0.4620(7)
C27 C 0.578(4) 0.6585(10) 0.4805(9)
H13 H 0.6939 0.6763 0.5052
C28 C 0.603(5) 0.5879(10) 0.4621(6)
C29 C 0.448(5) 0.5618(13) 0.4265(8)
H14 H 0.4796 0.5144 0.4132
C30 C 0.239(5) 0.6029(13) 0.4084(8)
H15 H 0.1191 0.5837 0.3847
C31 C 0.216(5) 0.6752(11) 0.4275(7)
H16 H 0.0794 0.7053 0.4153
C32 C 0.823(5) 0.5420(11) 0.4824(8)
O8 O 0.513(4) 0.8011(7) 0.5110(6)
O9 O 0.120(4) 0.8066(7) 0.4778(6)
N7 N 0.853(5) 0.4768(9) 0.4603(6)
N8 N 0.959(4) 0.5649(10) 0.5209(8)
C33 C 0.394(7) 0.9084(11) 0.6102(8)
C34 C 0.337(7) 0.9001(13) 0.6667(8)
C35 C 0.152(6) 0.8640(10) 0.6860(7)
H17 H 0.0337 0.8405 0.6641
C36 C 0.110(6) 0.8565(12) 0.7373(8)
C37 C 0.297(6) 0.8894(14) 0.7693(10)
H18 H 0.2849 0.8825 0.8044
C38 C 0.497(7) 0.9319(16) 0.7495(10)
H19 H 0.6174 0.9564 0.7706
C39 C 0.514(6) 0.9371(13) 0.6986(8)
H20 H 0.6473 0.9662 0.6843
O10 O 0.612(4) 0.9149(7) 0.5984(5)
O11 O 0.189(4) 0.9040(9) 0.5836(6)
O24 O 0.854(4) 0.0334(7) 0.5370(4)
La8 La 0.8522(4) 0.89441(5) 0.52222(5)
H26 H 0.910833 0.226702 0.399227
H27 H 0.116582 0.760834 0.586959
C40 C 0.917(5) 0.8085(12) 0.7585(8)
C41 C 0.581(5) 0.7208(12) 0.7957(8)
C42 C 0.338(6) 0.5628(11) 0.9416(7)
C43 C 0.279(5) 0.5930(10) 0.8882(7)
C44 C 0.438(5) 0.6438(11) 0.8674(7)
H21 H 0.5762 0.664 0.8866
C45 C 0.401(5) 0.6670(11) 0.8177(7)
C46 C 0.198(6) 0.6411(13) 0.7913(9)
H22 H 0.1736 0.6577 0.758
C47 C 0.019(6) 0.5895(12) 0.8115(8)
C48 C 0.064(5) 0.5679(11) 0.8618(8)
O12 O 0.559(4) 0.5666(8) 0.9552(5)
O13 O 0.146(4) 0.5334(7) 0.9630(4)
O14 O 0.928(6) 0.7678(14) 0.5807(9)
N9 N 0.766(5) 0.7689(11) 0.7288(8)
N10 N 0.587(5) 0.7219(10) 0.7464(7)
N11 N 0.724(4) 0.7635(10) 0.8270(7)
N12 N 0.886(5) 0.8079(10) 0.8075(7)
O19 O 0.559(4) 0.9334(8) 0.4552(5)
H28 H 0.836022 0.773502 0.613034
H23 H 0.8774 0.5707 0.7926
H24 H 0.9444 0.5358 0.8777
H23_2 H 0.1226 0.0707 0.7074
H24_2 H 0.0556 0.0358 0.6223
C40_2 C 0.083(5) 0.3085(12) 0.7415(8)
C41_2 C 0.419(5) 0.2208(12) 0.7043(8)
C42_2 C 0.662(6) 0.0628(11) 0.5584(7)
C43_2 C 0.721(5) 0.0930(10) 0.6118(7)
C44_2 C 0.562(5) 0.1438(11) 0.6326(7)
H21_2 H 0.4238 0.164 0.6134
C45_2 C 0.599(5) 0.1670(11) 0.6823(7)
C46_2 C 0.802(6) 0.1411(13) 0.7087(9)
H22_2 H 0.8264 0.1577 0.742
C47_2 C 0.981(6) 0.0895(12) 0.6885(8)
C48_2 C 0.936(5) 0.0679(11) 0.6382(8)
O14_2 O 0.072(6) 0.2678(14) 0.9193(9)
N9_2 N 0.234(5) 0.2689(11) 0.7712(8)
N10_2 N 0.413(5) 0.2219(10) 0.7536(7)
N11_2 N 0.276(4) 0.2635(10) 0.6730(7)
N12_2 N 0.114(5) 0.3079(10) 0.6925(7)
O15 O 0.487(4) 0.3011(7) 0.9890(6)
O18 O 0.388(4) 0.4149(7) 0.9016(5)
H28_2 H 0.163978 0.273502 0.886966
C25_2 C 0.678(5) 0.2756(11) 0.0138(7)
C26_2 C 0.622(5) 0.2033(10) 0.0380(7)
C27_2 C 0.422(4) 0.1585(10) 0.0195(9)
C28_2 C 0.397(5) 0.0879(10) 0.0379(6)
C29_2 C 0.552(5) 0.0618(13) 0.0735(8)
H14_2 H 0.5204 0.0144 0.0868
C30_2 C 0.761(5) 0.1029(13) 0.0916(8)
H15_2 H 0.8809 0.0837 0.1153
C31_2 C 0.784(5) 0.1752(11) 0.0725(7)
H16_2 H 0.9206 0.2053 0.0847
C32_2 C 0.177(5) 0.0420(11) 0.0176(8)
O9_2 O 0.880(4) 0.3066(7) 0.0222(6)
H13_2 H 0.3061 0.1763 0.9948
N8_2 N 0.041(4) 0.0649(10) 0.9791(8)
C33_2 C 0.606(7) 0.4084(11) 0.8898(8)
C34_2 C 0.663(7) 0.4001(13) 0.8333(8)
C35_2 C 0.848(6) 0.3640(10) 0.8140(7)
H17_2 H 0.9663 0.3405 0.8359
C36_2 C 0.890(6) 0.3565(12) 0.7627(8)
C37_2 C 0.703(6) 0.3894(14) 0.7307(10)
H18_2 H 0.7151 0.3825 0.6956
C38_2 C 0.503(7) 0.4319(16) 0.7505(10)
H19_2 H 0.3826 0.4564 0.7294
C39_2 C 0.486(6) 0.4371(13) 0.8014(8)
H20_2 H 0.3527 0.4662 0.8157
O11_2 O 0.811(4) 0.4040(9) 0.9164(6)
H27_2 H 0.883418 0.260834 0.913041
C9_2 C 0.394(7) 0.5916(11) 0.1102(8)
C10_2 C 0.337(7) 0.5999(13) 0.1667(8)
C11_2 C 0.152(6) 0.6360(10) 0.1860(7)
H5_2 H 0.0337 0.6595 0.1641
C12_2 C 0.110(6) 0.6435(12) 0.2373(8)
C13_2 C 0.297(6) 0.6106(14) 0.2693(10)
H6_2 H 0.2849 0.6175 0.3044
C14_2 C 0.497(7) 0.5681(16) 0.2495(10)
H7_2 H 0.6174 0.5436 0.2706
C15_2 C 0.514(6) 0.5629(13) 0.1986(8)
H8_2 H 0.6473 0.5338 0.1843
O3 O 0.612(4) 0.5851(7) 0.0984(5)
O4_2 O 0.189(4) 0.5960(9) 0.0836(6)
N7_2 N 0.147(5) 0.9768(9) 0.0397(6)
H26_2 H 0.0891673 0.726702 0.100773
O16 O 0.120(4) 0.6934(7) 0.9778(6)
N1_2 N 0.853(5) 0.0232(9) 0.9603(6)
H1_2 H 0.6939 0.8237 0.0052
C16_2 C 0.917(5) 0.6915(12) 0.2585(8)
C17_2 C 0.581(5) 0.7792(12) 0.2957(8)
C18_2 C 0.338(6) 0.9372(11) 0.4416(7)
C19_2 C 0.279(5) 0.9070(10) 0.3882(7)
C20_2 C 0.438(5) 0.8562(11) 0.3674(7)
H9_2 H 0.5762 0.836 0.3866
C21_2 C 0.401(5) 0.8330(11) 0.3177(7)
C22_2 C 0.198(6) 0.8589(13) 0.2913(9)
H10_2 H 0.1736 0.8423 0.258
C23_2 C 0.019(6) 0.9105(12) 0.3115(8)
C24_2 C 0.064(5) 0.9321(11) 0.3618(8)
O1_2 O 0.513(4) 0.6989(7) 0.0110(6)
O7_2 O 0.928(6) 0.7322(14) 0.0807(9)
N2_2 N 0.959(4) 0.9351(10) 0.0209(8)
N3_2 N 0.766(5) 0.7311(11) 0.2288(8)
N4_2 N 0.587(5) 0.7781(10) 0.2464(7)
N5_2 N 0.724(4) 0.7365(10) 0.3270(7)
N6_2 N 0.886(5) 0.6921(10) 0.3075(7)
H25_2 H 0.77743 0.738892 0.103385
C1_2 C 0.322(5) 0.7244(11) 0.9862(7)
C2_2 C 0.378(5) 0.7967(10) 0.9620(7)
C3_2 C 0.578(4) 0.8415(10) 0.9805(9)
C4_2 C 0.603(5) 0.9121(10) 0.9621(6)
C5_2 C 0.448(5) 0.9382(13) 0.9265(8)
H2_2 H 0.4796 0.9856 0.9132
C6_2 C 0.239(5) 0.8971(13) 0.9084(8)
H3_2 H 0.1191 0.9163 0.8847
C7_2 C 0.216(5) 0.8248(11) 0.9275(7)
H4_2 H 0.0794 0.7947 0.9153
C8_2 C 0.823(5) 0.9580(11) 0.9824(8)
H11_2 H 0.8774 0.9293 0.2926
H12_2 H 0.9444 0.9642 0.3777
H28_3 H 0.163978 0.226498 0.386966
H26_3 H 0.0891673 0.773298 0.600773
H27_3 H 0.883418 0.239166 0.413041
H25_3 H 0.77743 0.761108 0.603385
H25_4 H 0.22257 0.261108 0.896615
H26_4 H 0.910833 0.273298 0.899227
H27_4 H 0.116582 0.739166 0.0869586
H28_4 H 0.836022 0.726498 0.113034
loop_
_geom_bond_atom_site_label_1
_geom_bond_atom_site_label_2
_geom_bond_site_symmetry_1
_geom_bond_site_symmetry_2
C1 C2 1_555 1_555
C2 C3 1_555 1_555
C3 H1 1_555 1_555
C4 C3 1_555 1_555
C5 C4 1_555 1_555
H2 C5 1_555 1_555
C6 C5 1_555 1_555
H3 C6 1_555 1_555
C7 C2 1_555 1_555
H4 C7 1_555 1_555
C8 C4 1_555 1_555
C17 C21 1_555 1_555
C18 C19 1_555 1_555
C19 C20 1_555 1_555
C20 H9 1_555 1_555
C21 C20 1_555 1_555
C22 C21 1_555 1_555
H10 C22 1_555 1_555
C23 C22 1_555 1_555
C24 C19 1_555 1_555
O1 C1 1_555 1_555
O2 C1 1_555 1_555
O5 C18 1_555 1_555
O6 C18 1_555 1_555
O7 La4 1_555 1_555
N1 C8 1_555 1_555
N2 C8 1_555 1_555
N3 C16 1_555 1_555
N4 C17 1_555 1_555
N5 C17 1_555 1_555
N6 C16 1_555 1_555
La4 O1 1_555 1_555
O17 La4 1_555 1_555
O20 La4 1_555 1_555
La7 O6 1_555 1_555
C6 C7 1_555 1_555
C23 C24 1_555 1_555
N3 N4 1_555 1_555
N5 N6 1_555 1_555
O7 H25 1_555 1_555
C9 C10 1_555 1_555
C10 C11 1_555 1_555
C11 H5 1_555 1_555
C12 C11 1_555 1_555
C13 C12 1_555 1_555
H6 C13 1_555 1_555
C14 C13 1_555 1_555
H7 C14 1_555 1_555
C15 C10 1_555 1_555
H8 C15 1_555 1_555
O17 C9 1_555 1_555
O4 C9 1_555 1_555
C25 C26 1_555 1_555
C26 C27 1_555 1_555
C27 H13 1_555 1_555
C28 C27 1_555 1_555
C29 C28 1_555 1_555
H14 C29 1_555 1_555
C30 C29 1_555 1_555
H15 C30 1_555 1_555
C31 C26 1_555 1_555
H16 C31 1_555 1_555
C32 C28 1_555 1_555
O8 C25 1_555 1_555
O9 C25 1_555 1_555
C33 C34 1_555 1_555
C34 C35 1_555 1_555
C35 H17 1_555 1_555
C36 C35 1_555 1_555
C37 C36 1_555 1_555
H18 C37 1_555 1_555
C38 C37 1_555 1_555
H19 C38 1_555 1_555
C39 C34 1_555 1_555
H20 C39 1_555 1_555
O10 C33 1_555 1_555
O11 C33 1_555 1_555
La8 O8 1_555 1_555
C14 C15 1_555 1_555
C30 C31 1_555 1_555
C32 N7 1_555 1_555
C32 N8 1_555 1_555
C38 C39 1_555 1_555
O10 La8 1_555 1_555
C41 C45 1_555 1_555
C42 C43 1_555 1_555
C43 C44 1_555 1_555
C44 H21 1_555 1_555
C45 C44 1_555 1_555
C46 C45 1_555 1_555
H22 C46 1_555 1_555
C47 C46 1_555 1_555
C48 C43 1_555 1_555
O12 C42 1_555 1_555
O13 C42 1_555 1_555
O14 La8 1_555 1_555
N9 C40 1_555 1_555
N10 C41 1_555 1_555
N11 C41 1_555 1_555
N12 C40 1_555 1_555
O19 La8 1_555 1_555
La11 O13 1_555 1_555
C47 C48 1_555 1_555
N9 N10 1_555 1_555
N11 N12 1_555 1_555
O14 H28 1_555 1_555
C41_2 C45_2 1_555 1_555
C42_2 C43_2 1_555 1_555
C43_2 C44_2 1_555 1_555
C44_2 H21_2 1_555 1_555
C45_2 C44_2 1_555 1_555
C46_2 C45_2 1_555 1_555
H22_2 C46_2 1_555 1_555
C47_2 C46_2 1_555 1_555
C48_2 C43_2 1_555 1_555
O20 C42_2 1_555 1_555
O24 C42_2 1_555 1_555
O14_2 La11 1_555 1_555
N9_2 C40_2 1_555 1_555
N10_2 C41_2 1_555 1_555
N11_2 C41_2 1_555 1_555
N12_2 C40_2 1_555 1_555
O15 La11 1_555 1_555
O18 La11 1_555 1_555
C47_2 C48_2 1_555 1_555
N9_2 N10_2 1_555 1_555
N11_2 N12_2 1_555 1_555
O14_2 H28_2 1_555 1_555
C25_2 C26_2 1_555 1_555
C26_2 C27_2 1_555 1_555
C28_2 C27_2 1_555 1_555
C29_2 C28_2 1_555 1_555
H14_2 C29_2 1_555 1_555
C30_2 C29_2 1_555 1_555
H15_2 C30_2 1_555 1_555
C31_2 C26_2 1_555 1_555
H16_2 C31_2 1_555 1_555
C32_2 C28_2 1_555 1_555
O9_2 C25_2 1_555 1_555
C30_2 C31_2 1_555 1_555
C33_2 C34_2 1_555 1_555
C34_2 C35_2 1_555 1_555
C35_2 H17_2 1_555 1_555
C36_2 C35_2 1_555 1_555
C37_2 C36_2 1_555 1_555
H18_2 C37_2 1_555 1_555
C38_2 C37_2 1_555 1_555
H19_2 C38_2 1_555 1_555
C39_2 C34_2 1_555 1_555
H20_2 C39_2 1_555 1_555
O18 C33_2 1_555 1_555
O11_2 C33_2 1_555 1_555
C38_2 C39_2 1_555 1_555
C9_2 C10_2 1_555 1_555
C10_2 C11_2 1_555 1_555
C11_2 H5_2 1_555 1_555
C12_2 C11_2 1_555 1_555
C13_2 C12_2 1_555 1_555
H6_2 C13_2 1_555 1_555
C14_2 C13_2 1_555 1_555
H7_2 C14_2 1_555 1_555
C15_2 C10_2 1_555 1_555
H8_2 C15_2 1_555 1_555
O3 C9_2 1_555 1_555
O4_2 C9_2 1_555 1_555
La7 O3 1_555 1_555
C14_2 C15_2 1_555 1_555
C17_2 C21_2 1_555 1_555
C18_2 C19_2 1_555 1_555
C19_2 C20_2 1_555 1_555
C20_2 H9_2 1_555 1_555
C21_2 C20_2 1_555 1_555
C22_2 C21_2 1_555 1_555
H10_2 C22_2 1_555 1_555
C23_2 C22_2 1_555 1_555
C24_2 C19_2 1_555 1_555
O19 C18_2 1_555 1_555
O22 C18_2 1_555 1_555
O7_2 La7 1_555 1_555
N3_2 C16_2 1_555 1_555
N4_2 C17_2 1_555 1_555
N5_2 C17_2 1_555 1_555
N6_2 C16_2 1_555 1_555
La7 O1_2 1_555 1_555
C23_2 C24_2 1_555 1_555
N3_2 N4_2 1_555 1_555
N5_2 N6_2 1_555 1_555
O7_2 H25_2 1_555 1_555
C1_2 C2_2 1_555 1_555
C2_2 C3_2 1_555 1_555
C4_2 C3_2 1_555 1_555
C5_2 C4_2 1_555 1_555
H2_2 C5_2 1_555 1_555
C6_2 C5_2 1_555 1_555
H3_2 C6_2 1_555 1_555
C7_2 C2_2 1_555 1_555
H4_2 C7_2 1_555 1_555
C8_2 C4_2 1_555 1_555
O16 C1_2 1_555 1_555
C6_2 C7_2 1_555 1_555
O7 H28_3 1_555 1_555
O14 H25_3 1_555 1_555
O14_2 H25_4 1_555 1_555
O7_2 H28_4 1_555 1_555

#END
