
###############################################################################
#
# This file contains modified crystal structure data generated from the
# MOF subset of the Cambridge Structural Database (CSD) v543 
# hosted by the Cambridge Crystallographic Data Centre (CCDC).
#
# This work is licensed under the Creative Commons
# Attribution-NonCommercial-ShareAlike 4.0 International License.
# To view a copy of this license, visit
# http://creativecommons.org/licenses/by-nc-sa/4.0/
# or send a letter to
# Creative Commons, PO Box 1866, Mountain View, CA 94042, USA.
#
# CIF created using the CSD Python API on 29 September 2022
# The structure has been converted into the P1 space group
# The structure has a 3D framework
# The original CSD entry FEWQIJ is in the rhombohedral crystal system
# The framework has been calculated to contain at least 10.0% void space
# The void calculation uses a probe of radius 1.32A, grid spacing 0.4
# H atom positions have been added when not included in the experimental data
# Generated hydrogen atom positions removed from atoms on special positions
#
###############################################################################

data_FEWQIJ
_chemical_formula_moiety         '(C90 H108 Cu11 Dy16 N36 O88)n'
_symmetry_cell_setting           triclinic
_symmetry_space_group_name_H-M   'P 1'
_symmetry_Int_Tables_number      1
_space_group_name_Hall           'P 1'
loop_
_symmetry_equiv_pos_site_id
_symmetry_equiv_pos_as_xyz
1 x,y,z
_cell_length_a                   27.3934(11)
_cell_length_b                   27.3934(11)
_cell_length_c                   7.0054(3)
_cell_angle_alpha                90
_cell_angle_beta                 90
_cell_angle_gamma                120
_cell_volume                     4552.56
loop_
_atom_site_label
_atom_site_type_symbol
_atom_site_fract_x
_atom_site_fract_y
_atom_site_fract_z
O21 O -0.0000 0.0000 0.179(2)
Dy14 Dy 0.08038(2) 0.00793(3) 0.28431(7)
O36 O 0.0000 -0.0000 0.5000
O21_2 O -0.0000 1.0000 0.179(2)
O22 O 0.0077(3) 0.9159(3) 0.3865(11)
Dy12 Dy 0.00793(3) 0.92756(2) 0.71569(7)
O36_2 O 0.0000 1.0000 0.5000
N13 N 0.0518(5) 0.1769(4) 0.2181(14)
O49 O 0.0841(3) 0.0917(4) 0.3865(11)
O37 O 0.0569(4) 0.1219(3) 0.9926(11)
O21_3 O 1.0000 0.0000 0.179(2)
Dy16 Dy 0.99207(3) 0.07244(2) 0.28431(7)
O36_3 O 1.0000 -0.0000 0.5000
Cu1 Cu 0.8333 0.6667 0.1667
Dy1 Dy 0.73911(2) 0.41371(2) 0.04902(7)
C1 C 0.7716(6) 0.5552(5) 0.2704(17)
N1 N 0.7846(6) 0.6055(5) 0.3435(17)
C2 C 0.7675(8) 0.6097(6) 0.516(2)
H1 H 0.7781 0.6449 0.5677
C3 C 0.7946(6) 0.5572(5) 0.0759(19)
N2 N 0.7185(5) 0.5102(4) 0.5514(14)
O2 O 0.7236(4) 0.4552(3) 0.3259(11)
C4 C 0.7334(7) 0.5611(6) 0.617(2)
H2 H 0.7205 0.5642 0.7371
C5 C 0.7386(5) 0.5059(5) 0.3759(16)
O4 O 0.8238(4) 0.6055(4) 0.0020(14)
O5 O 0.6667 0.3333 0.154(2)
O7 O 0.7406(8) 0.6653(7) 0.005(2)
Cu2 Cu 0.3333 0.1666 0.1667
Dy2 Dy 0.58629(2) 0.32540(3) 0.04902(7)
C6 C 0.4448(5) 0.2164(8) 0.2704(17)
N3 N 0.3945(5) 0.1791(8) 0.3435(17)
C7 C 0.3903(6) 0.1578(10) 0.516(2)
H3 H 0.3551 0.1332 0.5677
C8 C 0.4428(5) 0.2374(8) 0.0759(19)
N4 N 0.4898(4) 0.2083(6) 0.5514(14)
O8 O 0.5448(3) 0.2684(5) 0.3259(11)
C9 C 0.4389(6) 0.1723(9) 0.617(2)
H4 H 0.4358 0.1563 0.7371
C10 C 0.4941(5) 0.2327(7) 0.3759(16)
O10 O 0.3945(4) 0.2183(6) 0.0020(14)
O12 O 0.3347(7) 0.0753(11) 0.005(2)
Cu3 Cu 0.8334 0.1667 0.1667
Dy3 Dy 0.67460(3) 0.26089(2) 0.04902(7)
C11 C 0.7836(8) 0.2284(6) 0.2704(17)
N5 N 0.8209(8) 0.2154(6) 0.3435(17)
C12 C 0.8422(10) 0.2325(8) 0.516(2)
H5 H 0.8668 0.2219 0.5677
C13 C 0.7626(8) 0.2054(6) 0.0759(19)
N6 N 0.7917(6) 0.2815(5) 0.5514(14)
O13 O 0.7316(5) 0.2764(4) 0.3259(11)
C14 C 0.8277(9) 0.2666(7) 0.617(2)
H6 H 0.8437 0.2795 0.7371
C15 C 0.7673(7) 0.2614(5) 0.3759(16)
O15 O 0.7817(6) 0.1762(4) 0.0020(14)
O17 O 0.9247(11) 0.2594(8) 0.005(2)
Dy4 Dy 0.92756(2) 0.91962(2) 0.28431(7)
C16 C 0.8951(6) 0.7781(5) 0.0629(17)
C18 C 0.8721(6) 0.7761(5) 0.2574(19)
O18 O 0.9431(4) 0.8781(3) 0.0074(11)
O19 O 0.8842(4) 0.8204(4) 0.3442(12)
O20 O 0.8429(4) 0.7278(4) 0.3313(14)
O21_4 O 1.0000 1.0000 0.179(2)
O23 O 0.9261(8) 0.6680(7) 0.328(2)
C21 C 0.2219(5) 0.1169(8) 0.0629(17)
C23 C 0.2239(5) 0.0959(8) 0.2574(19)
O24 O 0.1219(3) 0.0649(5) 0.0074(11)
O25 O 0.1796(4) 0.0637(6) 0.3442(12)
O26 O 0.2722(4) 0.1150(6) 0.3313(14)
O28 O 0.3320(7) 0.2580(11) 0.328(2)
C26 C 0.8831(8) 0.1049(6) 0.0629(17)
C28 C 0.9041(8) 0.1279(6) 0.2574(19)
O29 O 0.9351(5) 0.0569(4) 0.0074(11)
O30 O 0.9363(6) 0.1158(4) 0.3442(12)
O31 O 0.8850(6) 0.1571(4) 0.3313(14)
O33 O 0.7420(11) 0.0739(8) 0.328(2)
Dy8 Dy 0.07244(2) 0.08038(2) 0.71569(7)
Dy18 Dy 0.59422(2) 0.25296(2) 0.61765(7)
Dy20 Dy 0.74704(2) 0.34127(3) 0.61765(7)
Dy22 Dy 0.65873(3) 0.40578(2) 0.61765(7)
O36_4 O 1.0000 1.0000 0.5000
N14 N 0.8231(4) 0.8750(6) 0.2181(14)
N16 N 0.6148(5) 0.1565(4) 0.1153(14)
N17 N 0.8435(4) 0.4584(6) 0.1153(14)
N18 N 0.5416(6) 0.3852(5) 0.1153(14)
O40 O 0.6097(4) 0.2115(3) 0.3408(11)
O41 O 0.7885(3) 0.3983(5) 0.3408(11)
O42 O 0.6017(5) 0.3903(4) 0.3408(11)
O45 O 0.9923(3) 0.0841(3) 0.6135(11)
O46 O 0.9159(3) 0.9083(4) 0.6135(11)
O47 O 0.0917(4) 0.0077(3) 0.6135(11)
O50 O 0.9083(4) 0.9923(3) 0.3865(11)
O1 O 0.6667 0.3333 0.8333
O3 O 0.7825(4) 0.5129(4) 0.9891(12)
O6 O 0.6590(3) 0.4174(3) 0.9468(11)
O9 O 0.4871(4) 0.2696(6) 0.9891(12)
O11 O 0.5826(3) 0.2416(4) 0.9468(11)
O14 O 0.7304(6) 0.2175(4) 0.9891(12)
O16 O 0.7584(4) 0.3410(3) 0.9468(11)
N7 N 0.8821(6) 0.7278(5) 0.9898(17)
C17 C 0.8992(8) 0.7236(6) 0.817(2)
H7 H 0.8886 0.6884 0.7656
N8 N 0.9482(5) 0.8231(4) 0.7819(14)
C19 C 0.9333(7) 0.7722(6) 0.716(2)
H8 H 0.9462 0.7691 0.5962
C20 C 0.9281(5) 0.8274(5) 0.9574(16)
N9 N 0.2722(5) 0.1542(8) 0.9898(17)
C22 C 0.2764(6) 0.1755(10) 0.817(2)
H9 H 0.3116 0.2001 0.7656
N10 N 0.1769(4) 0.1250(6) 0.7819(14)
C24 C 0.2278(6) 0.1610(9) 0.716(2)
H10 H 0.2309 0.1770 0.5962
C25 C 0.1726(5) 0.1006(7) 0.9574(16)
N11 N 0.8458(8) 0.1179(6) 0.9898(17)
C27 C 0.8245(10) 0.1008(8) 0.817(2)
H11 H 0.7999 0.1114 0.7656
N12 N 0.8750(6) 0.0518(5) 0.7819(14)
C29 C 0.8390(9) 0.0667(7) 0.716(2)
H12 H 0.8230 0.0538 0.5962
C30 C 0.8994(7) 0.0719(5) 0.9574(16)
O38 O 0.8781(3) 0.9351(5) 0.9926(11)
O51 O 0.6743(3) 0.2493(3) 0.7199(11)
O52 O 0.7507(3) 0.4251(4) 0.7199(11)
O53 O 0.5749(4) 0.3257(3) 0.7199(11)
H14 H 0.75323 0.694205 0.902726
H16 H 0.940975 0.24677 0.902726
H18 H 0.305795 0.0590248 0.902726
Dy10 Dy 0.91962(2) 0.99207(3) 0.71569(7)
N15 N 0.1250(6) 0.9482(5) 0.2181(14)
O39 O 0.0649(5) 0.9431(4) 0.9926(11)
Cu1_2 Cu 0.5000 0.0000 0.5000
C16_2 C 0.5617(6) 0.1115(5) 0.3963(17)
N7_2 N 0.5487(6) 0.0612(5) 0.3232(17)
C17_2 C 0.5658(8) 0.0570(6) 0.151(2)
H7_2 H 0.5552 0.0218 0.0990
C18_2 C 0.5387(6) 0.1095(5) 0.5908(19)
C19_2 C 0.5999(7) 0.1056(6) 0.050(2)
C20_2 C 0.5947(5) 0.1608(5) 0.2908(16)
O19_2 O 0.5508(4) 0.1538(4) 0.6776(12)
O20_2 O 0.5095(4) 0.0612(4) 0.6647(14)
O21_5 O 0.6666 0.3334 0.513(2)
O23_2 O 0.5927(8) 0.0014(7) 0.662(2)
H13 H 0.386689 0.00703597 0.437805
H14_2 H 0.419897 0.0275387 0.23606
H22 H 0.627572 0.0305989 0.598109
H8_2 H 0.6128 0.1025 0.9296
H2_2 H 0.3872 0.8975 0.0704
H4_2 H 0.1025 0.4896 0.0704
H6_2 H 0.5104 0.6128 0.0704
Cu1_3 Cu 0.5000 1.0000 0.5000
Dy1_2 Dy 0.40578(2) 0.74704(2) 0.38235(7)
C1_2 C 0.4383(6) 0.8885(5) 0.6037(17)
N1_2 N 0.4513(6) 0.9388(5) 0.6768(17)
O1_2 O 0.3334 0.6666 0.1666
C2_2 C 0.4342(8) 0.9430(6) 0.849(2)
H1_2 H 0.4448 0.9782 0.9010
C3_2 C 0.4613(6) 0.8905(5) 0.4092(19)
N2_2 N 0.3852(5) 0.8435(4) 0.8847(14)
O2_2 O 0.3903(4) 0.7885(3) 0.6592(11)
C4_2 C 0.4001(7) 0.8944(6) 0.950(2)
C5_2 C 0.4053(5) 0.8392(5) 0.7092(16)
O3_2 O 0.4492(4) 0.8462(4) 0.3224(12)
O4_2 O 0.4905(4) 0.9388(4) 0.3353(14)
O5_2 O 0.3334 0.6666 0.487(2)
O6_2 O 0.3257(3) 0.7507(3) 0.2801(11)
O7_2 O 0.4073(8) 0.9986(7) 0.338(2)
Cu2_2 Cu -0.0000 0.4999 0.5000
Dy2_2 Dy 0.25296(2) 0.65873(3) 0.38235(7)
C6_2 C 0.1115(5) 0.5497(8) 0.6037(17)
N3_2 N 0.0612(5) 0.5124(8) 0.6768(17)
C7_2 C 0.0570(6) 0.4911(10) 0.849(2)
H3_2 H 0.0218 0.4665 0.9010
C8_2 C 0.1095(5) 0.5707(8) 0.4092(19)
N4_2 N 0.1565(4) 0.5416(6) 0.8847(14)
O8_2 O 0.2115(3) 0.6017(5) 0.6592(11)
C9_2 C 0.1056(6) 0.5056(9) 0.950(2)
C10_2 C 0.1608(5) 0.5660(7) 0.7092(16)
O9_2 O 0.1538(4) 0.6029(6) 0.3224(12)
O10_2 O 0.0612(4) 0.5516(6) 0.3353(14)
O11_2 O 0.2493(3) 0.5749(4) 0.2801(11)
O12_2 O 0.0014(7) 0.4086(11) 0.338(2)
Cu3_2 Cu 0.5001 0.5000 0.5000
Dy3_2 Dy 0.34127(3) 0.59422(2) 0.38235(7)
C11_2 C 0.4503(8) 0.5617(6) 0.6037(17)
N5_2 N 0.4876(8) 0.5487(6) 0.6768(17)
C12_2 C 0.5089(10) 0.5658(8) 0.849(2)
H5_2 H 0.5335 0.5552 0.9010
C13_2 C 0.4293(8) 0.5387(6) 0.4092(19)
N6_2 N 0.4584(6) 0.6148(5) 0.8847(14)
O13_2 O 0.3983(5) 0.6097(4) 0.6592(11)
C14_2 C 0.4944(9) 0.5999(7) 0.950(2)
C15_2 C 0.4340(7) 0.5947(5) 0.7092(16)
O14_2 O 0.3971(6) 0.5508(4) 0.3224(12)
O15_2 O 0.4484(6) 0.5095(4) 0.3353(14)
O16_2 O 0.4251(4) 0.6743(3) 0.2801(11)
O17_2 O 0.5914(11) 0.5927(8) 0.338(2)
C26_2 C 0.5497(8) 0.4383(6) 0.3963(17)
N11_2 N 0.5124(8) 0.4513(6) 0.3232(17)
C27_2 C 0.4911(10) 0.4342(8) 0.151(2)
H11_2 H 0.4665 0.4448 0.0990
C28_2 C 0.5707(8) 0.4613(6) 0.5908(19)
C29_2 C 0.5056(9) 0.4001(7) 0.050(2)
C30_2 C 0.5660(7) 0.4053(5) 0.2908(16)
O30_2 O 0.6029(6) 0.4492(4) 0.6776(12)
O31_2 O 0.5516(6) 0.4905(4) 0.6647(14)
O33_2 O 0.4086(11) 0.4073(8) 0.662(2)
Dy18_2 Dy 0.26089(2) 0.58629(2) 0.95098(7)
Dy20_2 Dy 0.41371(2) 0.67460(3) 0.95098(7)
Dy22_2 Dy 0.32540(3) 0.73911(2) 0.95098(7)
N16_2 N 0.2815(5) 0.4898(4) 0.4486(14)
N17_2 N 0.5102(4) 0.7917(6) 0.4486(14)
N18_2 N 0.2083(6) 0.7185(5) 0.4486(14)
O40_2 O 0.2764(4) 0.5448(3) 0.6741(11)
O41_2 O 0.4552(3) 0.7316(5) 0.6741(11)
O42_2 O 0.2684(5) 0.7236(4) 0.6741(11)
O51_2 O 0.3410(3) 0.5826(3) 0.0532(11)
O52_2 O 0.4174(3) 0.7584(4) 0.0532(11)
O53_2 O 0.2416(4) 0.6590(3) 0.0532(11)
H19 H 0.0361177 0.62567 0.645037
H21 H 0.589552 0.963882 0.645037
H12_2 H 0.4896 0.3872 0.9296
Cu2_3 Cu 1.0000 0.4999 0.5000
C21_2 C 0.8885(5) 0.4503(8) 0.3963(17)
N9_2 N 0.9388(5) 0.4876(8) 0.3232(17)
C22_2 C 0.9430(6) 0.5089(10) 0.151(2)
H9_2 H 0.9782 0.5335 0.0990
C23_2 C 0.8905(5) 0.4293(8) 0.5908(19)
C24_2 C 0.8944(6) 0.4944(9) 0.050(2)
C25_2 C 0.8392(5) 0.4340(7) 0.2908(16)
O25_2 O 0.8462(4) 0.3971(6) 0.6776(12)
O26_2 O 0.9388(4) 0.4484(6) 0.6647(14)
O28_2 O 0.9986(7) 0.5914(11) 0.662(2)
H17 H 0.992964 0.379654 0.437805
H18_2 H 0.972461 0.392358 0.23606
H20 H 0.969401 0.596973 0.598109
H10_2 H 0.8975 0.5104 0.9296
N1_3 N 0.1179(6) 0.2722(5) 0.0102(17)
C2_3 C 0.1008(8) 0.2764(6) 0.183(2)
H1_3 H 0.1114 0.3116 0.2344
C4_3 C 0.0667(7) 0.2278(6) 0.284(2)
H2_3 H 0.0538 0.2309 0.4038
C5_3 C 0.0719(5) 0.1726(5) 0.0426(16)
O19_3 O 0.2175(4) 0.4871(4) 0.0109(12)
Cu1_4 Cu 0.1666 0.3334 0.8334
C1_3 C 0.1049(6) 0.2219(5) 0.9371(17)
C3_3 C 0.1279(6) 0.2239(5) 0.7426(19)
O3_3 O 0.1158(4) 0.1796(4) 0.6558(12)
O4_3 O 0.1571(4) 0.2722(4) 0.6687(14)
O5_3 O 0.0000 -0.0000 0.821(2)
O7_3 O 0.0739(8) 0.3320(7) 0.672(2)
C16_3 C 0.2284(6) 0.4448(5) 0.7296(17)
N7_3 N 0.2154(6) 0.3945(5) 0.6565(17)
C17_3 C 0.2325(8) 0.3903(6) 0.484(2)
H7_3 H 0.2219 0.3551 0.4323
C18_3 C 0.2054(6) 0.4428(5) 0.9241(19)
C19_3 C 0.2666(7) 0.4389(6) 0.383(2)
H8_3 H 0.2795 0.4358 0.2629
C20_3 C 0.2614(5) 0.4941(5) 0.6241(16)
O20_3 O 0.1762(4) 0.3945(4) 0.9980(14)
O21_6 O 0.3333 0.6667 0.846(2)
O23_3 O 0.2594(8) 0.3347(7) 0.995(2)
N5_3 N 0.1542(8) 0.8821(6) 0.0102(17)
C12_3 C 0.1755(10) 0.8992(8) 0.183(2)
H5_3 H 0.2001 0.8886 0.2344
C14_3 C 0.1610(9) 0.9333(7) 0.284(2)
H6_3 H 0.1770 0.9462 0.4038
C15_3 C 0.1006(7) 0.9281(5) 0.0426(16)
O30_3 O 0.2696(6) 0.7825(4) 0.0109(12)
O5_4 O 0.0000 1.0000 0.821(2)
Cu3_3 Cu 0.1667 0.8334 0.8334
C11_3 C 0.1169(8) 0.8951(6) 0.9371(17)
C13_3 C 0.0959(8) 0.8721(6) 0.7426(19)
O14_3 O 0.0637(6) 0.8842(4) 0.6558(12)
O15_3 O 0.1150(6) 0.8429(4) 0.6687(14)
O17_3 O 0.2580(11) 0.9261(8) 0.672(2)
C26_3 C 0.2164(8) 0.7716(6) 0.7296(17)
N11_3 N 0.1791(8) 0.7846(6) 0.6565(17)
C27_3 C 0.1578(10) 0.7675(8) 0.484(2)
H11_3 H 0.1332 0.7781 0.4323
C28_3 C 0.2374(8) 0.7946(6) 0.9241(19)
C29_3 C 0.1723(9) 0.7334(7) 0.383(2)
H12_3 H 0.1563 0.7205 0.2629
C30_3 C 0.2327(7) 0.7386(5) 0.6241(16)
O31_3 O 0.2183(6) 0.8238(4) 0.9980(14)
O33_3 O 0.0753(11) 0.7406(8) 0.995(2)
O5_5 O 1.0000 -0.0000 0.821(2)
N3_3 N 0.7278(5) 0.8458(8) 0.0102(17)
C7_3 C 0.7236(6) 0.8245(10) 0.183(2)
H3_3 H 0.6884 0.7999 0.2344
C9_3 C 0.7722(6) 0.8390(9) 0.284(2)
H4_3 H 0.7691 0.8230 0.4038
C10_3 C 0.8274(5) 0.8994(7) 0.0426(16)
O25_3 O 0.5129(4) 0.7304(6) 0.0109(12)
O5_6 O 1.0000 1.0000 0.821(2)
Cu2_4 Cu 0.6666 0.8333 0.8334
C6_3 C 0.7781(5) 0.8831(8) 0.9371(17)
C8_3 C 0.7761(5) 0.9041(8) 0.7426(19)
O9_3 O 0.8204(4) 0.9363(6) 0.6558(12)
O10_3 O 0.7278(4) 0.8850(6) 0.6687(14)
O12_3 O 0.6680(7) 0.7420(11) 0.672(2)
C21_3 C 0.5552(5) 0.7836(8) 0.7296(17)
N9_3 N 0.6055(5) 0.8209(8) 0.6565(17)
C22_3 C 0.6097(6) 0.8422(10) 0.484(2)
H9_3 H 0.6449 0.8668 0.4323
C23_3 C 0.5572(5) 0.7626(8) 0.9241(19)
C24_3 C 0.5611(6) 0.8277(9) 0.383(2)
H10_3 H 0.5642 0.8437 0.2629
C25_3 C 0.5059(5) 0.7673(7) 0.6241(16)
O26_3 O 0.6055(4) 0.7817(6) 0.9980(14)
O28_3 O 0.6653(7) 0.9247(11) 0.995(2)
H14_3 H 0.24677 0.305795 0.0972736
H16_2 H 0.0590248 0.75323 0.0972736
H18_3 H 0.694205 0.940975 0.0972736
H17_2 H 0.00703597 0.620346 0.562195
H18_4 H 0.0275387 0.607642 0.76394
H20_2 H 0.0305989 0.403027 0.401891
H19_2 H 0.963882 0.37433 0.354963
H21_2 H 0.410448 0.0361177 0.354963
H13_2 H 0.613311 0.992964 0.562195
H14_4 H 0.580103 0.972461 0.76394
H22_2 H 0.372428 0.969401 0.401891
loop_
_geom_bond_atom_site_label_1
_geom_bond_atom_site_label_2
_geom_bond_site_symmetry_1
_geom_bond_site_symmetry_2
Dy14 O21 1_555 1_555
Dy14 O36 1_555 1_555
Dy12 O22 1_555 1_555
Dy12 O36_2 1_555 1_555
Dy16 O21_3 1_555 1_555
Dy16 O36_3 1_555 1_555
Cu1 N1 1_555 1_555
C1 N1 1_555 1_555
N1 C2 1_555 1_555
C2 H1 1_555 1_555
C3 C1 1_555 1_555
N2 C4 1_555 1_555
O2 Dy1 1_555 1_555
C4 C2 1_555 1_555
H2 C4 1_555 1_555
C5 C1 1_555 1_555
O4 Cu1 1_555 1_555
O5 Dy1 1_555 1_555
O7 Cu1 1_555 1_555
Cu2 N3 1_555 1_555
Dy2 O5 1_555 1_555
C6 N3 1_555 1_555
N3 C7 1_555 1_555
C7 H3 1_555 1_555
C8 C6 1_555 1_555
N4 C9 1_555 1_555
O8 Dy2 1_555 1_555
C9 C7 1_555 1_555
H4 C9 1_555 1_555
C10 C6 1_555 1_555
O10 Cu2 1_555 1_555
O12 Cu2 1_555 1_555
Cu3 N5 1_555 1_555
C11 N5 1_555 1_555
N5 C12 1_555 1_555
C12 H5 1_555 1_555
C13 C11 1_555 1_555
N6 C14 1_555 1_555
O13 Dy3 1_555 1_555
C14 C12 1_555 1_555
H6 C14 1_555 1_555
C15 C11 1_555 1_555
O15 Cu3 1_555 1_555
O17 Cu3 1_555 1_555
Dy4 O18 1_555 1_555
C18 C16 1_555 1_555
O19 Dy4 1_555 1_555
O20 Cu1 1_555 1_555
O21_4 Dy4 1_555 1_555
O23 Cu1 1_555 1_555
Dy14 O24 1_555 1_555
C23 C21 1_555 1_555
O25 Dy14 1_555 1_555
O26 Cu2 1_555 1_555
O49 Dy14 1_555 1_555
O28 Cu2 1_555 1_555
Dy16 O29 1_555 1_555
C28 C26 1_555 1_555
O30 Dy16 1_555 1_555
O31 Cu3 1_555 1_555
O33 Cu3 1_555 1_555
Dy8 O49 1_555 1_555
Dy18 N4 1_555 1_555
Dy20 N6 1_555 1_555
Dy22 N2 1_555 1_555
O36_4 Dy4 1_555 1_555
N14 Dy4 1_555 1_555
N16 Dy3 1_555 1_555
N17 Dy1 1_555 1_555
N18 Dy2 1_555 1_555
O40 Dy3 1_555 1_555
O41 Dy1 1_555 1_555
O42 Dy2 1_555 1_555
O45 Dy16 1_555 1_555
O46 Dy4 1_555 1_555
O47 Dy14 1_555 1_555
O50 Dy4 1_555 1_555
C3 O4 1_555 1_555
N2 C5 1_555 1_555
O2 C5 1_555 1_555
O2 Dy22 1_555 1_555
O5 Dy3 1_555 1_555
C8 O10 1_555 1_555
N4 C10 1_555 1_555
O8 C10 1_555 1_555
O8 Dy18 1_555 1_555
C13 O15 1_555 1_555
N6 C15 1_555 1_555
O13 C15 1_555 1_555
O13 Dy20 1_555 1_555
C18 O19 1_555 1_555
C18 O20 1_555 1_555
C23 O25 1_555 1_555
C23 O26 1_555 1_555
C28 O30 1_555 1_555
C28 O31 1_555 1_555
Dy8 O36 1_555 1_555
Dy8 O47 1_555 1_555
Dy18 O40 1_555 1_555
Dy20 O41 1_555 1_555
Dy22 O42 1_555 1_555
C17 N7 1_555 1_555
H7 C17 1_555 1_555
N8 C19 1_555 1_555
C19 C17 1_555 1_555
H8 C19 1_555 1_555
C22 N9 1_555 1_555
H9 C22 1_555 1_555
N10 C24 1_555 1_555
C24 C22 1_555 1_555
H10 C24 1_555 1_555
C27 N11 1_555 1_555
H11 C27 1_555 1_555
N12 C29 1_555 1_555
C29 C27 1_555 1_555
H12 C29 1_555 1_555
Dy8 N10 1_555 1_555
Dy18 O1 1_555 1_555
Dy20 O1 1_555 1_555
Dy22 O1 1_555 1_555
O6 Dy22 1_555 1_555
O11 Dy18 1_555 1_555
O16 Dy20 1_555 1_555
N8 C20 1_555 1_555
N10 C25 1_555 1_555
N12 C30 1_555 1_555
Dy18 O51 1_555 1_555
Dy18 O53 1_555 1_555
Dy20 O51 1_555 1_555
Dy20 O52 1_555 1_555
Dy22 O52 1_555 1_555
Dy22 O53 1_555 1_555
Dy10 O50 1_555 1_555
Dy10 O36_4 1_555 1_555
C16_2 N7_2 1_555 1_555
N7_2 Cu1_2 1_555 1_555
C17_2 N7_2 1_555 1_555
H7_2 C17_2 1_555 1_555
C18_2 C16_2 1_555 1_555
N16 C19_2 1_555 1_555
O40 C20_2 1_555 1_555
C19_2 C17_2 1_555 1_555
C20_2 C16_2 1_555 1_555
O19_2 Dy18 1_555 1_555
O20_2 Cu1_2 1_555 1_555
O21_5 Dy18 1_555 1_555
O23_2 Cu1_2 1_555 1_555
Dy20 O21_5 1_555 1_555
Dy22 O21_5 1_555 1_555
C18_2 O19_2 1_555 1_555
C18_2 O20_2 1_555 1_555
N16 C20_2 1_555 1_555
O23_2 H22 1_555 1_555
Cu1_3 N1_2 1_555 1_555
Dy1_2 O1_2 1_555 1_555
C1_2 N1_2 1_555 1_555
N1_2 C2_2 1_555 1_555
O1_2 Dy2_2 1_555 1_555
C2_2 H1_2 1_555 1_555
C3_2 C1_2 1_555 1_555
N2_2 C4_2 1_555 1_555
O2_2 Dy1_2 1_555 1_555
C4_2 C2_2 1_555 1_555
C5_2 C1_2 1_555 1_555
O3_2 Dy1_2 1_555 1_555
O4_2 Cu1_3 1_555 1_555
O5_2 Dy1_2 1_555 1_555
O6_2 Dy1_2 1_555 1_555
O7_2 Cu1_3 1_555 1_555
Cu2_2 N3_2 1_555 1_555
Dy2_2 O5_2 1_555 1_555
C6_2 N3_2 1_555 1_555
N3_2 C7_2 1_555 1_555
C7_2 H3_2 1_555 1_555
C8_2 C6_2 1_555 1_555
N4_2 C9_2 1_555 1_555
O8_2 Dy2_2 1_555 1_555
C9_2 C7_2 1_555 1_555
C10_2 C6_2 1_555 1_555
O9_2 Dy2_2 1_555 1_555
O10_2 Cu2_2 1_555 1_555
O11_2 Dy2_2 1_555 1_555
O12_2 Cu2_2 1_555 1_555
Cu3_2 N5_2 1_555 1_555
Dy3_2 O1_2 1_555 1_555
C11_2 N5_2 1_555 1_555
N5_2 C12_2 1_555 1_555
C12_2 H5_2 1_555 1_555
C13_2 C11_2 1_555 1_555
N6_2 C14_2 1_555 1_555
O13_2 Dy3_2 1_555 1_555
C14_2 C12_2 1_555 1_555
C15_2 C11_2 1_555 1_555
O14_2 Dy3_2 1_555 1_555
O15_2 Cu3_2 1_555 1_555
O16_2 Dy1_2 1_555 1_555
O17_2 Cu3_2 1_555 1_555
C26_2 N11_2 1_555 1_555
N11_2 Cu3_2 1_555 1_555
C27_2 N11_2 1_555 1_555
H11_2 C27_2 1_555 1_555
C28_2 C26_2 1_555 1_555
N18 C29_2 1_555 1_555
O42 C30_2 1_555 1_555
C29_2 C27_2 1_555 1_555
C30_2 C26_2 1_555 1_555
O30_2 Dy22 1_555 1_555
O31_2 Cu3_2 1_555 1_555
O33_2 Cu3_2 1_555 1_555
Dy18_2 N4_2 1_555 1_555
Dy20_2 N6_2 1_555 1_555
Dy22_2 N2_2 1_555 1_555
N16_2 Dy3_2 1_555 1_555
N17_2 Dy1_2 1_555 1_555
N18_2 Dy2_2 1_555 1_555
O40_2 Dy3_2 1_555 1_555
O41_2 Dy1_2 1_555 1_555
O42_2 Dy2_2 1_555 1_555
O51_2 Dy3_2 1_555 1_555
O52_2 Dy1_2 1_555 1_555
O53_2 Dy2_2 1_555 1_555
C3_2 O3_2 1_555 1_555
C3_2 O4_2 1_555 1_555
N2_2 C5_2 1_555 1_555
O2_2 C5_2 1_555 1_555
O2_2 Dy22_2 1_555 1_555
O5_2 Dy3_2 1_555 1_555
O6_2 Dy2_2 1_555 1_555
C8_2 O9_2 1_555 1_555
C8_2 O10_2 1_555 1_555
N4_2 C10_2 1_555 1_555
O8_2 C10_2 1_555 1_555
O8_2 Dy18_2 1_555 1_555
O11_2 Dy3_2 1_555 1_555
Dy3_2 O16_2 1_555 1_555
C13_2 O14_2 1_555 1_555
C13_2 O15_2 1_555 1_555
N6_2 C15_2 1_555 1_555
O13_2 C15_2 1_555 1_555
O13_2 Dy20_2 1_555 1_555
C28_2 O30_2 1_555 1_555
C28_2 O31_2 1_555 1_555
N18 C30_2 1_555 1_555
Dy18_2 O40_2 1_555 1_555
Dy20_2 O41_2 1_555 1_555
Dy22_2 O42_2 1_555 1_555
C21_2 N9_2 1_555 1_555
N9_2 Cu2_3 1_555 1_555
C22_2 N9_2 1_555 1_555
H9_2 C22_2 1_555 1_555
C23_2 C21_2 1_555 1_555
N17 C24_2 1_555 1_555
O41 C25_2 1_555 1_555
C24_2 C22_2 1_555 1_555
C25_2 C21_2 1_555 1_555
O25_2 Dy20 1_555 1_555
O26_2 Cu2_3 1_555 1_555
O28_2 Cu2_3 1_555 1_555
C23_2 O25_2 1_555 1_555
C23_2 O26_2 1_555 1_555
N17 C25_2 1_555 1_555
O28_2 H20 1_555 1_555
N1_3 C2_3 1_555 1_555
C2_3 H1_3 1_555 1_555
N13 C4_3 1_555 1_555
C4_3 C2_3 1_555 1_555
H2_3 C4_3 1_555 1_555
N13 C5_3 1_555 1_555
C3_3 C1_3 1_555 1_555
O37 Dy8 1_555 1_555
O3_3 Dy8 1_555 1_555
O4_3 Cu1_4 1_555 1_555
O5_3 Dy8 1_555 1_555
O7_3 Cu1_4 1_555 1_555
C16_3 N7_3 1_555 1_555
N7_3 Cu1_4 1_555 1_555
C17_3 N7_3 1_555 1_555
H7_3 C17_3 1_555 1_555
C18_3 C16_3 1_555 1_555
N16_2 C19_3 1_555 1_555
O40_2 C20_3 1_555 1_555
C19_3 C17_3 1_555 1_555
H8_3 C19_3 1_555 1_555
C20_3 C16_3 1_555 1_555
O20_3 Cu1_4 1_555 1_555
O21_6 Dy18_2 1_555 1_555
O23_3 Cu1_4 1_555 1_555
Dy20_2 O21_6 1_555 1_555
Dy22_2 O21_6 1_555 1_555
C3_3 O3_3 1_555 1_555
C3_3 O4_3 1_555 1_555
C18_3 O20_3 1_555 1_555
N16_2 C20_3 1_555 1_555
N5_3 C12_3 1_555 1_555
C12_3 H5_3 1_555 1_555
N15 C14_3 1_555 1_555
C14_3 C12_3 1_555 1_555
H6_3 C14_3 1_555 1_555
N15 C15_3 1_555 1_555
C13_3 C11_3 1_555 1_555
O39 Dy12 1_555 1_555
O14_3 Dy12 1_555 1_555
O15_3 Cu3_3 1_555 1_555
O17_3 Cu3_3 1_555 1_555
C26_3 N11_3 1_555 1_555
N11_3 Cu3_3 1_555 1_555
C27_3 N11_3 1_555 1_555
H11_3 C27_3 1_555 1_555
C28_3 C26_3 1_555 1_555
N18_2 C29_3 1_555 1_555
O42_2 C30_3 1_555 1_555
C29_3 C27_3 1_555 1_555
H12_3 C29_3 1_555 1_555
C30_3 C26_3 1_555 1_555
O31_3 Cu3_3 1_555 1_555
O33_3 Cu3_3 1_555 1_555
O5_4 Dy12 1_555 1_555
C13_3 O14_3 1_555 1_555
C13_3 O15_3 1_555 1_555
C28_3 O31_3 1_555 1_555
N18_2 C30_3 1_555 1_555
N3_3 C7_3 1_555 1_555
C7_3 H3_3 1_555 1_555
N14 C9_3 1_555 1_555
C9_3 C7_3 1_555 1_555
H4_3 C9_3 1_555 1_555
N14 C10_3 1_555 1_555
Dy10 O5_6 1_555 1_555
C8_3 C6_3 1_555 1_555
O38 Dy10 1_555 1_555
O9_3 Dy10 1_555 1_555
O10_3 Cu2_4 1_555 1_555
O46 Dy10 1_555 1_555
O12_3 Cu2_4 1_555 1_555
C21_3 N9_3 1_555 1_555
N9_3 Cu2_4 1_555 1_555
C22_3 N9_3 1_555 1_555
H9_3 C22_3 1_555 1_555
C23_3 C21_3 1_555 1_555
N17_2 C24_3 1_555 1_555
O41_2 C25_3 1_555 1_555
C24_3 C22_3 1_555 1_555
H10_3 C24_3 1_555 1_555
C25_3 C21_3 1_555 1_555
O26_3 Cu2_4 1_555 1_555
O28_3 Cu2_4 1_555 1_555
C8_3 O9_3 1_555 1_555
C8_3 O10_3 1_555 1_555
C23_3 O26_3 1_555 1_555
N17_2 C25_3 1_555 1_555
O12_2 H20_2 1_555 1_555
O7_2 H22_2 1_555 1_555

#END
