
###############################################################################
#
# This file contains modified crystal structure data generated from the
# MOF subset of the Cambridge Structural Database (CSD) v543 
# hosted by the Cambridge Crystallographic Data Centre (CCDC).
#
# This work is licensed under the Creative Commons
# Attribution-NonCommercial-ShareAlike 4.0 International License.
# To view a copy of this license, visit
# http://creativecommons.org/licenses/by-nc-sa/4.0/
# or send a letter to
# Creative Commons, PO Box 1866, Mountain View, CA 94042, USA.
#
# CIF created using the CSD Python API on 29 September 2022
# The structure has been converted into the P1 space group
# The structure has a 3D framework
# The original CSD entry FEWQOP is in the rhombohedral crystal system
# The framework has been calculated to contain at least 10.0% void space
# The void calculation uses a probe of radius 1.32A, grid spacing 0.4
# H atom positions have been added when not included in the experimental data
# Generated hydrogen atom positions removed from atoms on special positions
#
###############################################################################

data_FEWQOP
_chemical_formula_moiety         '(C90 H112 Cu11 Gd16 N36 O88)n'
_symmetry_cell_setting           triclinic
_symmetry_space_group_name_H-M   'P 1'
_symmetry_Int_Tables_number      1
_space_group_name_Hall           'P 1'
loop_
_symmetry_equiv_pos_site_id
_symmetry_equiv_pos_as_xyz
1 x,y,z
_cell_length_a                   27.521(3)
_cell_length_b                   27.521(3)
_cell_length_c                   6.9997(5)
_cell_angle_alpha                90
_cell_angle_beta                 90
_cell_angle_gamma                120
_cell_volume                     4591.33
loop_
_atom_site_label
_atom_site_type_symbol
_atom_site_fract_x
_atom_site_fract_y
_atom_site_fract_z
O21 O -0.0000 0.0000 0.175(2)
Gd14 Gd 0.08007(2) 0.00689(3) 0.28476(7)
O36 O 0.0000 -0.0000 0.5000
O21_2 O -0.0000 1.0000 0.175(2)
O22 O 0.0063(3) 0.9141(3) 0.3840(10)
Gd12 Gd 0.00689(3) 0.92683(2) 0.71524(7)
O36_2 O 0.0000 1.0000 0.5000
N13 N 0.0542(4) 0.1785(3) 0.2190(12)
O49 O 0.0859(3) 0.0921(4) 0.3840(10)
O37 O 0.0583(3) 0.1229(3) 0.9926(10)
O21_3 O 1.0000 0.0000 0.175(2)
Gd16 Gd 0.99311(3) 0.07317(2) 0.28476(7)
O36_3 O 1.0000 -0.0000 0.5000
Cu1 Cu 0.8333 0.6667 0.1667
Gd1 Gd 0.73984(2) 0.41340(2) 0.04857(7)
C1 C 0.7722(5) 0.5553(4) 0.2708(16)
N1 N 0.7859(5) 0.6056(4) 0.3436(15)
C2 C 0.7681(6) 0.6098(6) 0.517(2)
H1 H 0.7779 0.6448 0.5673
C3 C 0.7959(5) 0.5580(4) 0.0753(17)
N2 N 0.7209(4) 0.5118(3) 0.5523(12)
O2 O 0.7250(3) 0.4562(3) 0.3259(10)
C4 C 0.7350(6) 0.5616(5) 0.6201(17)
H2 H 0.7224 0.5645 0.7405
C5 C 0.7394(5) 0.5058(4) 0.3793(15)
O4 O 0.8257(4) 0.6062(3) 0.0042(13)
O5 O 0.6667 0.3333 0.158(2)
O7 O 0.7396(12) 0.6593(11) 0.010(3)
Cu2 Cu 0.3333 0.1666 0.1667
Gd2 Gd 0.58660(2) 0.32644(3) 0.04857(7)
C6 C 0.4447(4) 0.2169(6) 0.2708(16)
N3 N 0.3944(4) 0.1803(6) 0.3436(15)
C7 C 0.3902(6) 0.1583(8) 0.517(2)
H3 H 0.3552 0.1331 0.5673
C8 C 0.4420(4) 0.2379(6) 0.0753(17)
N4 N 0.4882(3) 0.2091(5) 0.5523(12)
O8 O 0.5438(3) 0.2688(4) 0.3259(10)
C9 C 0.4384(5) 0.1734(8) 0.6201(17)
H4 H 0.4355 0.1579 0.7405
C10 C 0.4942(4) 0.2336(6) 0.3793(15)
O10 O 0.3938(3) 0.2195(5) 0.0042(13)
O12 O 0.3407(11) 0.0803(16) 0.010(3)
Cu3 Cu 0.8334 0.1667 0.1667
Gd3 Gd 0.67356(3) 0.26016(2) 0.04857(7)
C11 C 0.7831(6) 0.2278(5) 0.2708(16)
N5 N 0.8197(6) 0.2141(5) 0.3436(15)
C12 C 0.8417(8) 0.2319(6) 0.517(2)
H5 H 0.8669 0.2221 0.5673
C13 C 0.7621(6) 0.2041(5) 0.0753(17)
N6 N 0.7909(5) 0.2791(4) 0.5523(12)
O13 O 0.7312(4) 0.2750(3) 0.3259(10)
C14 C 0.8266(8) 0.2650(6) 0.6201(17)
H6 H 0.8421 0.2776 0.7405
C15 C 0.7664(6) 0.2606(5) 0.3793(15)
O15 O 0.7805(5) 0.1743(4) 0.0042(13)
O17 O 0.9197(16) 0.2604(12) 0.010(3)
Gd4 Gd 0.92683(2) 0.91993(2) 0.28476(7)
C16 C 0.8945(5) 0.7780(4) 0.0625(16)
C18 C 0.8708(5) 0.7753(4) 0.2580(17)
O18 O 0.9417(3) 0.8771(3) 0.0074(10)
O19 O 0.8819(3) 0.8192(3) 0.3418(10)
O20 O 0.8410(4) 0.7271(3) 0.3291(13)
O21_4 O 1.0000 1.0000 0.175(2)
O23 O 0.9271(12) 0.6740(11) 0.323(3)
C21 C 0.2220(4) 0.1164(6) 0.0625(16)
C23 C 0.2247(4) 0.0954(6) 0.2580(17)
O24 O 0.1229(3) 0.0645(4) 0.0074(10)
O25 O 0.1808(3) 0.0626(4) 0.3418(10)
O26 O 0.2729(3) 0.1138(5) 0.3291(13)
O28 O 0.3260(11) 0.2530(16) 0.323(3)
C26 C 0.8836(6) 0.1055(5) 0.0625(16)
C28 C 0.9046(6) 0.1292(5) 0.2580(17)
O29 O 0.9355(4) 0.0583(3) 0.0074(10)
O30 O 0.9374(4) 0.1181(3) 0.3418(10)
O31 O 0.8862(5) 0.1590(4) 0.3291(13)
O33 O 0.7470(16) 0.0729(12) 0.323(3)
Gd8 Gd 0.07317(2) 0.08007(2) 0.71524(7)
Gd18 Gd 0.59349(2) 0.25327(2) 0.61810(7)
Gd20 Gd 0.74673(2) 0.34023(3) 0.61810(7)
Gd22 Gd 0.65977(3) 0.40651(2) 0.61810(7)
O36_4 O 1.0000 1.0000 0.5000
N14 N 0.8215(3) 0.8758(5) 0.2190(12)
N16 N 0.6124(4) 0.1549(3) 0.1144(12)
N17 N 0.8451(3) 0.4576(5) 0.1144(12)
N18 N 0.5424(5) 0.3876(4) 0.1144(12)
O40 O 0.6083(3) 0.2105(3) 0.3408(10)
O41 O 0.7895(3) 0.3979(4) 0.3408(10)
O42 O 0.6021(4) 0.3917(3) 0.3408(10)
O45 O 0.9937(3) 0.0859(3) 0.6160(10)
O46 O 0.9141(3) 0.9079(4) 0.6160(10)
O47 O 0.0921(4) 0.0063(3) 0.6160(10)
O50 O 0.9079(4) 0.9937(3) 0.3840(10)
O1 O 0.6667 0.3333 0.8333
O3 O 0.7848(3) 0.5141(3) 0.9915(10)
O6 O 0.6604(3) 0.4192(3) 0.9493(10)
O9 O 0.4859(3) 0.2707(4) 0.9915(10)
O11 O 0.5808(3) 0.2412(4) 0.9493(10)
O14 O 0.7293(4) 0.2152(3) 0.9915(10)
O16 O 0.7588(4) 0.3396(3) 0.9493(10)
N7 N 0.8808(5) 0.7277(4) 0.9897(15)
C17 C 0.8986(6) 0.7235(6) 0.816(2)
H7 H 0.8888 0.6885 0.7660
N8 N 0.9458(4) 0.8215(3) 0.7810(12)
C19 C 0.9317(6) 0.7717(5) 0.7132(17)
H8 H 0.9443 0.7688 0.5928
C20 C 0.9273(5) 0.8275(4) 0.9540(15)
N9 N 0.2723(4) 0.1530(6) 0.9897(15)
C22 C 0.2765(6) 0.1750(8) 0.816(2)
H9 H 0.3115 0.2002 0.7660
N10 N 0.1785(3) 0.1242(5) 0.7810(12)
C24 C 0.2283(5) 0.1599(8) 0.7132(17)
H10 H 0.2312 0.1754 0.5928
C25 C 0.1725(4) 0.0997(6) 0.9540(15)
N11 N 0.8470(6) 0.1192(5) 0.9897(15)
C27 C 0.8250(8) 0.1014(6) 0.816(2)
H11 H 0.7998 0.1112 0.7660
N12 N 0.8758(5) 0.0542(4) 0.7810(12)
C29 C 0.8401(8) 0.0683(6) 0.7132(17)
H12 H 0.8246 0.0557 0.5928
C30 C 0.9003(6) 0.0727(5) 0.9540(15)
O38 O 0.8771(3) 0.9355(4) 0.9926(10)
O51 O 0.6729(3) 0.2475(3) 0.7174(10)
O52 O 0.7525(3) 0.4255(4) 0.7174(10)
O53 O 0.5745(4) 0.3271(3) 0.7174(10)
H14 H 0.750451 0.687458 0.906213
H16 H 0.312542 0.0629928 0.906213
H18 H 0.937007 0.249549 0.906213
Gd10 Gd 0.91993(2) 0.99311(3) 0.71524(7)
N15 N 0.1242(5) 0.9458(4) 0.2190(12)
O39 O 0.0645(4) 0.9417(3) 0.9926(10)
Cu1_2 Cu 0.5000 0.0000 0.5000
C16_2 C 0.5611(5) 0.1114(4) 0.3959(16)
N7_2 N 0.5474(5) 0.0611(4) 0.3231(15)
C17_2 C 0.5652(6) 0.0569(6) 0.150(2)
H7_2 H 0.5554 0.0219 0.0994
C18_2 C 0.5374(5) 0.1087(4) 0.5914(17)
C19_2 C 0.5983(6) 0.1051(5) 0.0466(17)
C20_2 C 0.5939(5) 0.1609(4) 0.2874(15)
O19_2 O 0.5485(3) 0.1526(3) 0.6752(10)
O20_2 O 0.5076(4) 0.0605(3) 0.6625(13)
O21_5 O 0.6666 0.3334 0.509(2)
O23_2 O 0.5937(12) 0.0074(11) 0.657(3)
H13 H 0.385076 -1.79688e-05 0.443041
H14_2 H 0.417117 0.0207911 0.239546
H20 H 0.627436 0.0373206 0.591075
H8_2 H 0.6109 0.1022 0.9262
H2_2 H 0.3891 0.8978 0.0738
H4_2 H 0.1022 0.4912 0.0738
H6_2 H 0.5088 0.6109 0.0738
Cu1_3 Cu 0.5000 1.0000 0.5000
Gd1_2 Gd 0.40651(2) 0.74673(2) 0.38190(7)
C1_2 C 0.4389(5) 0.8886(4) 0.6041(16)
N1_2 N 0.4526(5) 0.9389(4) 0.6769(15)
O1_2 O 0.3334 0.6666 0.1666
C2_2 C 0.4348(6) 0.9431(6) 0.850(2)
H1_2 H 0.4446 0.9781 0.9006
C3_2 C 0.4626(5) 0.8913(4) 0.4086(17)
N2_2 N 0.3876(4) 0.8451(3) 0.8856(12)
O2_2 O 0.3917(3) 0.7895(3) 0.6592(10)
C4_2 C 0.4017(6) 0.8949(5) 0.9534(17)
C5_2 C 0.4061(5) 0.8391(4) 0.7126(15)
O3_2 O 0.4515(3) 0.8474(3) 0.3248(10)
O4_2 O 0.4924(4) 0.9395(3) 0.3375(13)
O5_2 O 0.3334 0.6666 0.491(2)
O6_2 O 0.3271(3) 0.7525(3) 0.2826(10)
O7_2 O 0.4063(12) 0.9926(11) 0.343(3)
Cu2_2 Cu -0.0000 0.4999 0.5000
Gd2_2 Gd 0.25327(2) 0.65977(3) 0.38190(7)
C6_2 C 0.1114(4) 0.5502(6) 0.6041(16)
N3_2 N 0.0611(4) 0.5136(6) 0.6769(15)
C7_2 C 0.0569(6) 0.4916(8) 0.850(2)
H3_2 H 0.0219 0.4664 0.9006
C8_2 C 0.1087(4) 0.5712(6) 0.4086(17)
N4_2 N 0.1549(3) 0.5424(5) 0.8856(12)
O8_2 O 0.2105(3) 0.6021(4) 0.6592(10)
C9_2 C 0.1051(5) 0.5067(8) 0.9534(17)
C10_2 C 0.1609(4) 0.5669(6) 0.7126(15)
O9_2 O 0.1526(3) 0.6040(4) 0.3248(10)
O10_2 O 0.0605(3) 0.5528(5) 0.3375(13)
O11_2 O 0.2475(3) 0.5745(4) 0.2826(10)
O12_2 O 0.0074(11) 0.4136(16) 0.343(3)
Cu3_2 Cu 0.5001 0.5000 0.5000
Gd3_2 Gd 0.34023(3) 0.59349(2) 0.38190(7)
C11_2 C 0.4498(6) 0.5611(5) 0.6041(16)
N5_2 N 0.4864(6) 0.5474(5) 0.6769(15)
C12_2 C 0.5084(8) 0.5652(6) 0.850(2)
H5_2 H 0.5336 0.5554 0.9006
C13_2 C 0.4288(6) 0.5374(5) 0.4086(17)
N6_2 N 0.4576(5) 0.6124(4) 0.8856(12)
O13_2 O 0.3979(4) 0.6083(3) 0.6592(10)
C14_2 C 0.4933(8) 0.5983(6) 0.9534(17)
C15_2 C 0.4331(6) 0.5939(5) 0.7126(15)
O14_2 O 0.3960(4) 0.5485(3) 0.3248(10)
O15_2 O 0.4472(5) 0.5076(4) 0.3375(13)
O16_2 O 0.4255(4) 0.6729(3) 0.2826(10)
O17_2 O 0.5864(16) 0.5937(12) 0.343(3)
C26_2 C 0.5502(6) 0.4389(5) 0.3959(16)
N11_2 N 0.5136(6) 0.4526(5) 0.3231(15)
C27_2 C 0.4916(8) 0.4348(6) 0.150(2)
H11_2 H 0.4664 0.4446 0.0994
C28_2 C 0.5712(6) 0.4626(5) 0.5914(17)
C29_2 C 0.5067(8) 0.4017(6) 0.0466(17)
C30_2 C 0.5669(6) 0.4061(5) 0.2874(15)
O30_2 O 0.6040(4) 0.4515(3) 0.6752(10)
O31_2 O 0.5528(5) 0.4924(4) 0.6625(13)
O33_2 O 0.4136(16) 0.4063(12) 0.657(3)
Gd18_2 Gd 0.26016(2) 0.58660(2) 0.95143(7)
Gd20_2 Gd 0.41340(2) 0.67356(3) 0.95143(7)
Gd22_2 Gd 0.32644(3) 0.73984(2) 0.95143(7)
N16_2 N 0.2791(4) 0.4882(3) 0.4477(12)
N17_2 N 0.5118(3) 0.7909(5) 0.4477(12)
N18_2 N 0.2091(5) 0.7209(4) 0.4477(12)
O40_2 O 0.2750(3) 0.5438(3) 0.6741(10)
O41_2 O 0.4562(3) 0.7312(4) 0.6741(10)
O42_2 O 0.2688(4) 0.7250(3) 0.6741(10)
O51_2 O 0.3396(3) 0.5808(3) 0.0507(10)
O52_2 O 0.4192(3) 0.7588(4) 0.0507(10)
O53_2 O 0.2412(4) 0.6604(3) 0.0507(10)
H13_2 H 0.385076 0.999982 0.443041
H15 H 1.79688e-05 0.385094 0.443041
H19 H 0.592622 0.970947 0.641572
H21 H 0.0290528 0.621675 0.641572
H12_2 H 0.4912 0.3891 0.9262
Cu2_3 Cu 1.0000 0.4999 0.5000
C21_2 C 0.8886(4) 0.4498(6) 0.3959(16)
N9_2 N 0.9389(4) 0.4864(6) 0.3231(15)
C22_2 C 0.9431(6) 0.5084(8) 0.150(2)
H9_2 H 0.9781 0.5336 0.0994
C23_2 C 0.8913(4) 0.4288(6) 0.5914(17)
C24_2 C 0.8949(5) 0.4933(8) 0.0466(17)
C25_2 C 0.8391(4) 0.4331(6) 0.2874(15)
O25_2 O 0.8474(3) 0.3960(4) 0.6752(10)
O26_2 O 0.9395(3) 0.4472(5) 0.6625(13)
O28_2 O 0.9926(11) 0.5864(16) 0.657(3)
H15_2 H 1.00002 0.385094 0.443041
H16_2 H 0.979209 0.396326 0.239546
H22 H 0.962679 0.590115 0.591075
H10_2 H 0.8978 0.5088 0.9262
N1_3 N 0.1192(5) 0.2723(4) 0.0103(15)
C2_3 C 0.1014(6) 0.2765(6) 0.184(2)
H1_3 H 0.1112 0.3115 0.2340
C4_3 C 0.0683(6) 0.2283(5) 0.2868(17)
H2_3 H 0.0557 0.2312 0.4072
C5_3 C 0.0727(5) 0.1725(4) 0.0460(15)
O19_3 O 0.2152(3) 0.4859(3) 0.0085(10)
Cu1_4 Cu 0.1666 0.3334 0.8334
C1_3 C 0.1055(5) 0.2220(4) 0.9375(16)
C3_3 C 0.1292(5) 0.2247(4) 0.7420(17)
O3_3 O 0.1181(3) 0.1808(3) 0.6582(10)
O4_3 O 0.1590(4) 0.2729(3) 0.6709(13)
O5_3 O 0.0000 -0.0000 0.825(2)
O7_3 O 0.0729(12) 0.3260(11) 0.677(3)
C16_3 C 0.2278(5) 0.4447(4) 0.7292(16)
N7_3 N 0.2141(5) 0.3944(4) 0.6564(15)
C17_3 C 0.2319(6) 0.3902(6) 0.483(2)
H7_3 H 0.2221 0.3552 0.4327
C18_3 C 0.2041(5) 0.4420(4) 0.9247(17)
C19_3 C 0.2650(6) 0.4384(5) 0.3799(17)
H8_3 H 0.2776 0.4355 0.2595
C20_3 C 0.2606(5) 0.4942(4) 0.6207(15)
O20_3 O 0.1743(4) 0.3938(3) 0.9958(13)
O21_6 O 0.3333 0.6667 0.842(2)
O23_3 O 0.2604(12) 0.3407(11) 0.990(3)
N5_3 N 0.1530(6) 0.8808(5) 0.0103(15)
C12_3 C 0.1750(8) 0.8986(6) 0.184(2)
H5_3 H 0.2002 0.8888 0.2340
C14_3 C 0.1599(8) 0.9317(6) 0.2868(17)
H6_3 H 0.1754 0.9443 0.4072
C15_3 C 0.0997(6) 0.9273(5) 0.0460(15)
O30_3 O 0.2707(4) 0.7848(3) 0.0085(10)
O5_4 O 0.0000 1.0000 0.825(2)
Cu3_3 Cu 0.1667 0.8334 0.8334
C11_3 C 0.1164(6) 0.8945(5) 0.9375(16)
C13_3 C 0.0954(6) 0.8708(5) 0.7420(17)
O14_3 O 0.0626(4) 0.8819(3) 0.6582(10)
O15_3 O 0.1138(5) 0.8410(4) 0.6709(13)
O17_3 O 0.2530(16) 0.9271(12) 0.677(3)
C26_3 C 0.2169(6) 0.7722(5) 0.7292(16)
N11_3 N 0.1803(6) 0.7859(5) 0.6564(15)
C27_3 C 0.1583(8) 0.7681(6) 0.483(2)
H11_3 H 0.1331 0.7779 0.4327
C28_3 C 0.2379(6) 0.7959(5) 0.9247(17)
C29_3 C 0.1734(8) 0.7350(6) 0.3799(17)
H12_3 H 0.1579 0.7224 0.2595
C30_3 C 0.2336(6) 0.7394(5) 0.6207(15)
O31_3 O 0.2195(5) 0.8257(4) 0.9958(13)
O33_3 O 0.0803(16) 0.7396(12) 0.990(3)
O5_5 O 1.0000 -0.0000 0.825(2)
N3_3 N 0.7277(4) 0.8470(6) 0.0103(15)
C7_3 C 0.7235(6) 0.8250(8) 0.184(2)
H3_3 H 0.6885 0.7998 0.2340
C9_3 C 0.7717(5) 0.8401(8) 0.2868(17)
H4_3 H 0.7688 0.8246 0.4072
C10_3 C 0.8275(4) 0.9003(6) 0.0460(15)
O25_3 O 0.5141(3) 0.7293(4) 0.0085(10)
O5_6 O 1.0000 1.0000 0.825(2)
Cu2_4 Cu 0.6666 0.8333 0.8334
C6_3 C 0.7780(4) 0.8836(6) 0.9375(16)
C8_3 C 0.7753(4) 0.9046(6) 0.7420(17)
O9_3 O 0.8192(3) 0.9374(4) 0.6582(10)
O10_3 O 0.7271(3) 0.8862(5) 0.6709(13)
O12_3 O 0.6740(11) 0.7470(16) 0.677(3)
C21_3 C 0.5553(4) 0.7831(6) 0.7292(16)
N9_3 N 0.6056(4) 0.8197(6) 0.6564(15)
C22_3 C 0.6098(6) 0.8417(8) 0.483(2)
H9_3 H 0.6448 0.8669 0.4327
C23_3 C 0.5580(4) 0.7621(6) 0.9247(17)
C24_3 C 0.5616(5) 0.8266(8) 0.3799(17)
H10_3 H 0.5645 0.8421 0.2595
C25_3 C 0.5058(4) 0.7664(6) 0.6207(15)
O26_3 O 0.6062(3) 0.7805(5) 0.9958(13)
O28_3 O 0.6593(11) 0.9197(16) 0.990(3)
H14_3 H 0.249549 0.312542 0.0937868
H16_3 H 0.687458 0.937007 0.0937868
H18_2 H 0.0629928 0.750451 0.0937868
H15_3 H -1.79688e-05 0.614906 0.556959
H16_4 H 0.0207911 0.603674 0.760454
H22_2 H 0.0373206 0.409885 0.408925
H13_3 H 0.614924 1.79688e-05 0.556959
H15_4 H 0.999982 0.614906 0.556959
H19_2 H 0.407378 0.0290528 0.358428
H21_2 H 0.970947 0.378325 0.358428
H13_4 H 0.614924 1.00002 0.556959
H14_4 H 0.582883 0.979209 0.760454
H20_2 H 0.372564 0.962679 0.408925
loop_
_geom_bond_atom_site_label_1
_geom_bond_atom_site_label_2
_geom_bond_site_symmetry_1
_geom_bond_site_symmetry_2
Gd14 O21 1_555 1_555
Gd14 O36 1_555 1_555
Gd12 O22 1_555 1_555
Gd12 O36_2 1_555 1_555
Gd16 O21_3 1_555 1_555
Gd16 O36_3 1_555 1_555
Cu1 N1 1_555 1_555
C1 N1 1_555 1_555
N1 C2 1_555 1_555
C2 H1 1_555 1_555
C3 C1 1_555 1_555
N2 C4 1_555 1_555
O2 Gd1 1_555 1_555
C4 C2 1_555 1_555
H2 C4 1_555 1_555
C5 C1 1_555 1_555
O4 Cu1 1_555 1_555
O5 Gd1 1_555 1_555
O7 Cu1 1_555 1_555
Cu2 N3 1_555 1_555
Gd2 O5 1_555 1_555
C6 N3 1_555 1_555
N3 C7 1_555 1_555
C7 H3 1_555 1_555
C8 C6 1_555 1_555
N4 C9 1_555 1_555
O8 Gd2 1_555 1_555
C9 C7 1_555 1_555
H4 C9 1_555 1_555
C10 C6 1_555 1_555
O10 Cu2 1_555 1_555
O12 Cu2 1_555 1_555
Cu3 N5 1_555 1_555
C11 N5 1_555 1_555
N5 C12 1_555 1_555
C12 H5 1_555 1_555
C13 C11 1_555 1_555
N6 C14 1_555 1_555
O13 Gd3 1_555 1_555
C14 C12 1_555 1_555
H6 C14 1_555 1_555
C15 C11 1_555 1_555
O15 Cu3 1_555 1_555
O17 Cu3 1_555 1_555
Gd4 O18 1_555 1_555
C18 C16 1_555 1_555
O19 Gd4 1_555 1_555
O20 Cu1 1_555 1_555
O21_4 Gd4 1_555 1_555
O23 Cu1 1_555 1_555
Gd14 O24 1_555 1_555
C23 C21 1_555 1_555
O25 Gd14 1_555 1_555
O26 Cu2 1_555 1_555
O49 Gd14 1_555 1_555
O28 Cu2 1_555 1_555
Gd16 O29 1_555 1_555
C28 C26 1_555 1_555
O30 Gd16 1_555 1_555
O31 Cu3 1_555 1_555
O33 Cu3 1_555 1_555
Gd8 O49 1_555 1_555
Gd18 N4 1_555 1_555
Gd20 N6 1_555 1_555
Gd22 N2 1_555 1_555
O36_4 Gd4 1_555 1_555
N14 Gd4 1_555 1_555
N16 Gd3 1_555 1_555
N17 Gd1 1_555 1_555
N18 Gd2 1_555 1_555
O40 Gd3 1_555 1_555
O41 Gd1 1_555 1_555
O42 Gd2 1_555 1_555
O45 Gd16 1_555 1_555
O46 Gd4 1_555 1_555
O47 Gd14 1_555 1_555
O50 Gd4 1_555 1_555
C3 O4 1_555 1_555
N2 C5 1_555 1_555
O2 C5 1_555 1_555
O2 Gd22 1_555 1_555
O5 Gd3 1_555 1_555
C8 O10 1_555 1_555
N4 C10 1_555 1_555
O8 C10 1_555 1_555
O8 Gd18 1_555 1_555
C13 O15 1_555 1_555
N6 C15 1_555 1_555
O13 C15 1_555 1_555
O13 Gd20 1_555 1_555
C18 O19 1_555 1_555
C18 O20 1_555 1_555
C23 O25 1_555 1_555
C23 O26 1_555 1_555
C28 O30 1_555 1_555
C28 O31 1_555 1_555
Gd8 O36 1_555 1_555
Gd8 O47 1_555 1_555
Gd18 O40 1_555 1_555
Gd20 O41 1_555 1_555
Gd22 O42 1_555 1_555
C17 N7 1_555 1_555
H7 C17 1_555 1_555
N8 C19 1_555 1_555
C19 C17 1_555 1_555
H8 C19 1_555 1_555
C22 N9 1_555 1_555
H9 C22 1_555 1_555
N10 C24 1_555 1_555
C24 C22 1_555 1_555
H10 C24 1_555 1_555
C27 N11 1_555 1_555
H11 C27 1_555 1_555
N12 C29 1_555 1_555
C29 C27 1_555 1_555
H12 C29 1_555 1_555
Gd8 N10 1_555 1_555
Gd18 O1 1_555 1_555
Gd20 O1 1_555 1_555
Gd22 O1 1_555 1_555
O6 Gd22 1_555 1_555
O11 Gd18 1_555 1_555
O16 Gd20 1_555 1_555
N8 C20 1_555 1_555
N10 C25 1_555 1_555
N12 C30 1_555 1_555
Gd18 O51 1_555 1_555
Gd18 O53 1_555 1_555
Gd20 O51 1_555 1_555
Gd20 O52 1_555 1_555
Gd22 O52 1_555 1_555
Gd22 O53 1_555 1_555
Gd10 O50 1_555 1_555
Gd10 O36_4 1_555 1_555
C16_2 N7_2 1_555 1_555
N7_2 Cu1_2 1_555 1_555
C17_2 N7_2 1_555 1_555
H7_2 C17_2 1_555 1_555
C18_2 C16_2 1_555 1_555
N16 C19_2 1_555 1_555
O40 C20_2 1_555 1_555
C19_2 C17_2 1_555 1_555
C20_2 C16_2 1_555 1_555
O19_2 Gd18 1_555 1_555
O20_2 Cu1_2 1_555 1_555
O21_5 Gd18 1_555 1_555
O23_2 Cu1_2 1_555 1_555
Gd20 O21_5 1_555 1_555
Gd22 O21_5 1_555 1_555
C18_2 O19_2 1_555 1_555
C18_2 O20_2 1_555 1_555
N16 C20_2 1_555 1_555
O23_2 H20 1_555 1_555
Cu1_3 N1_2 1_555 1_555
Gd1_2 O1_2 1_555 1_555
C1_2 N1_2 1_555 1_555
N1_2 C2_2 1_555 1_555
O1_2 Gd2_2 1_555 1_555
C2_2 H1_2 1_555 1_555
C3_2 C1_2 1_555 1_555
N2_2 C4_2 1_555 1_555
O2_2 Gd1_2 1_555 1_555
C4_2 C2_2 1_555 1_555
C5_2 C1_2 1_555 1_555
O3_2 Gd1_2 1_555 1_555
O4_2 Cu1_3 1_555 1_555
O5_2 Gd1_2 1_555 1_555
O6_2 Gd1_2 1_555 1_555
O7_2 Cu1_3 1_555 1_555
Cu2_2 N3_2 1_555 1_555
Gd2_2 O5_2 1_555 1_555
C6_2 N3_2 1_555 1_555
N3_2 C7_2 1_555 1_555
C7_2 H3_2 1_555 1_555
C8_2 C6_2 1_555 1_555
N4_2 C9_2 1_555 1_555
O8_2 Gd2_2 1_555 1_555
C9_2 C7_2 1_555 1_555
C10_2 C6_2 1_555 1_555
O9_2 Gd2_2 1_555 1_555
O10_2 Cu2_2 1_555 1_555
O11_2 Gd2_2 1_555 1_555
O12_2 Cu2_2 1_555 1_555
Cu3_2 N5_2 1_555 1_555
Gd3_2 O1_2 1_555 1_555
C11_2 N5_2 1_555 1_555
N5_2 C12_2 1_555 1_555
C12_2 H5_2 1_555 1_555
C13_2 C11_2 1_555 1_555
N6_2 C14_2 1_555 1_555
O13_2 Gd3_2 1_555 1_555
C14_2 C12_2 1_555 1_555
C15_2 C11_2 1_555 1_555
O14_2 Gd3_2 1_555 1_555
O15_2 Cu3_2 1_555 1_555
O16_2 Gd1_2 1_555 1_555
O17_2 Cu3_2 1_555 1_555
C26_2 N11_2 1_555 1_555
N11_2 Cu3_2 1_555 1_555
C27_2 N11_2 1_555 1_555
H11_2 C27_2 1_555 1_555
C28_2 C26_2 1_555 1_555
N18 C29_2 1_555 1_555
O42 C30_2 1_555 1_555
C29_2 C27_2 1_555 1_555
C30_2 C26_2 1_555 1_555
O30_2 Gd22 1_555 1_555
O31_2 Cu3_2 1_555 1_555
O33_2 Cu3_2 1_555 1_555
Gd18_2 N4_2 1_555 1_555
Gd20_2 N6_2 1_555 1_555
Gd22_2 N2_2 1_555 1_555
N16_2 Gd3_2 1_555 1_555
N17_2 Gd1_2 1_555 1_555
N18_2 Gd2_2 1_555 1_555
O40_2 Gd3_2 1_555 1_555
O41_2 Gd1_2 1_555 1_555
O42_2 Gd2_2 1_555 1_555
O51_2 Gd3_2 1_555 1_555
O52_2 Gd1_2 1_555 1_555
O53_2 Gd2_2 1_555 1_555
C3_2 O3_2 1_555 1_555
C3_2 O4_2 1_555 1_555
N2_2 C5_2 1_555 1_555
O2_2 C5_2 1_555 1_555
O2_2 Gd22_2 1_555 1_555
O5_2 Gd3_2 1_555 1_555
O6_2 Gd2_2 1_555 1_555
C8_2 O9_2 1_555 1_555
C8_2 O10_2 1_555 1_555
N4_2 C10_2 1_555 1_555
O8_2 C10_2 1_555 1_555
O8_2 Gd18_2 1_555 1_555
O11_2 Gd3_2 1_555 1_555
Gd3_2 O16_2 1_555 1_555
C13_2 O14_2 1_555 1_555
C13_2 O15_2 1_555 1_555
N6_2 C15_2 1_555 1_555
O13_2 C15_2 1_555 1_555
O13_2 Gd20_2 1_555 1_555
C28_2 O30_2 1_555 1_555
C28_2 O31_2 1_555 1_555
N18 C30_2 1_555 1_555
Gd18_2 O40_2 1_555 1_555
Gd20_2 O41_2 1_555 1_555
Gd22_2 O42_2 1_555 1_555
O7_2 H13_2 1_555 1_555
O12_2 H15 1_555 1_555
C21_2 N9_2 1_555 1_555
N9_2 Cu2_3 1_555 1_555
C22_2 N9_2 1_555 1_555
H9_2 C22_2 1_555 1_555
C23_2 C21_2 1_555 1_555
N17 C24_2 1_555 1_555
O41 C25_2 1_555 1_555
C24_2 C22_2 1_555 1_555
C25_2 C21_2 1_555 1_555
O25_2 Gd20 1_555 1_555
O26_2 Cu2_3 1_555 1_555
O28_2 Cu2_3 1_555 1_555
C23_2 O25_2 1_555 1_555
C23_2 O26_2 1_555 1_555
N17 C25_2 1_555 1_555
O28_2 H22 1_555 1_555
N1_3 C2_3 1_555 1_555
C2_3 H1_3 1_555 1_555
N13 C4_3 1_555 1_555
C4_3 C2_3 1_555 1_555
H2_3 C4_3 1_555 1_555
N13 C5_3 1_555 1_555
C3_3 C1_3 1_555 1_555
O37 Gd8 1_555 1_555
O3_3 Gd8 1_555 1_555
O4_3 Cu1_4 1_555 1_555
O5_3 Gd8 1_555 1_555
O7_3 Cu1_4 1_555 1_555
C16_3 N7_3 1_555 1_555
N7_3 Cu1_4 1_555 1_555
C17_3 N7_3 1_555 1_555
H7_3 C17_3 1_555 1_555
C18_3 C16_3 1_555 1_555
N16_2 C19_3 1_555 1_555
O40_2 C20_3 1_555 1_555
C19_3 C17_3 1_555 1_555
H8_3 C19_3 1_555 1_555
C20_3 C16_3 1_555 1_555
O20_3 Cu1_4 1_555 1_555
O21_6 Gd18_2 1_555 1_555
O23_3 Cu1_4 1_555 1_555
Gd20_2 O21_6 1_555 1_555
Gd22_2 O21_6 1_555 1_555
C3_3 O3_3 1_555 1_555
C3_3 O4_3 1_555 1_555
C18_3 O20_3 1_555 1_555
N16_2 C20_3 1_555 1_555
N5_3 C12_3 1_555 1_555
C12_3 H5_3 1_555 1_555
N15 C14_3 1_555 1_555
C14_3 C12_3 1_555 1_555
H6_3 C14_3 1_555 1_555
N15 C15_3 1_555 1_555
C13_3 C11_3 1_555 1_555
O39 Gd12 1_555 1_555
O14_3 Gd12 1_555 1_555
O15_3 Cu3_3 1_555 1_555
O17_3 Cu3_3 1_555 1_555
C26_3 N11_3 1_555 1_555
N11_3 Cu3_3 1_555 1_555
C27_3 N11_3 1_555 1_555
H11_3 C27_3 1_555 1_555
C28_3 C26_3 1_555 1_555
N18_2 C29_3 1_555 1_555
O42_2 C30_3 1_555 1_555
C29_3 C27_3 1_555 1_555
H12_3 C29_3 1_555 1_555
C30_3 C26_3 1_555 1_555
O31_3 Cu3_3 1_555 1_555
O33_3 Cu3_3 1_555 1_555
O5_4 Gd12 1_555 1_555
C13_3 O14_3 1_555 1_555
C13_3 O15_3 1_555 1_555
C28_3 O31_3 1_555 1_555
N18_2 C30_3 1_555 1_555
N3_3 C7_3 1_555 1_555
C7_3 H3_3 1_555 1_555
N14 C9_3 1_555 1_555
C9_3 C7_3 1_555 1_555
H4_3 C9_3 1_555 1_555
N14 C10_3 1_555 1_555
Gd10 O5_6 1_555 1_555
C8_3 C6_3 1_555 1_555
O38 Gd10 1_555 1_555
O9_3 Gd10 1_555 1_555
O10_3 Cu2_4 1_555 1_555
O46 Gd10 1_555 1_555
O12_3 Cu2_4 1_555 1_555
C21_3 N9_3 1_555 1_555
N9_3 Cu2_4 1_555 1_555
C22_3 N9_3 1_555 1_555
H9_3 C22_3 1_555 1_555
C23_3 C21_3 1_555 1_555
N17_2 C24_3 1_555 1_555
O41_2 C25_3 1_555 1_555
C24_3 C22_3 1_555 1_555
H10_3 C24_3 1_555 1_555
C25_3 C21_3 1_555 1_555
O26_3 Cu2_4 1_555 1_555
O28_3 Cu2_4 1_555 1_555
C8_3 O9_3 1_555 1_555
C8_3 O10_3 1_555 1_555
C23_3 O26_3 1_555 1_555
N17_2 C25_3 1_555 1_555
O12_2 H22_2 1_555 1_555
O23_2 H13_3 1_555 1_555
O28_2 H15_4 1_555 1_555
O7_2 H20_2 1_555 1_555

#END
