
###############################################################################
#
# This file contains modified crystal structure data generated from the
# MOF subset of the Cambridge Structural Database (CSD) v543 
# hosted by the Cambridge Crystallographic Data Centre (CCDC).
#
# This work is licensed under the Creative Commons
# Attribution-NonCommercial-ShareAlike 4.0 International License.
# To view a copy of this license, visit
# http://creativecommons.org/licenses/by-nc-sa/4.0/
# or send a letter to
# Creative Commons, PO Box 1866, Mountain View, CA 94042, USA.
#
# CIF created using the CSD Python API on 29 September 2022
# The structure has been converted into the P1 space group
# The structure has a 3D framework
# The original CSD entry FEWSIM is in the orthorhombic crystal system
# The original CSD entry FEWSIM is in a Sohncke space group
# The framework has been calculated to contain at least 10.0% void space
# The void calculation uses a probe of radius 1.32A, grid spacing 0.4
#
###############################################################################

data_FEWSIM
_chemical_formula_moiety         '(C188 H128 Co14 F8 N56 O16)n'
_symmetry_cell_setting           triclinic
_symmetry_space_group_name_H-M   'P 1'
_symmetry_Int_Tables_number      1
_space_group_name_Hall           'P 1'
loop_
_symmetry_equiv_pos_site_id
_symmetry_equiv_pos_as_xyz
1 x,y,z
_cell_length_a                   21.514(4)
_cell_length_b                   11.443(2)
_cell_length_c                   22.579(4)
_cell_angle_alpha                90
_cell_angle_beta                 90
_cell_angle_gamma                90
_cell_volume                     5558.6
loop_
_atom_site_label
_atom_site_type_symbol
_atom_site_fract_x
_atom_site_fract_y
_atom_site_fract_z
C1 C 0.4622(2) 0.1255(4) 0.7143(2)
H1 H 0.4361 0.0848 0.6888
C2 C 0.4600(3) 0.2462(4) 0.7134(2)
H2 H 0.4319 0.2839 0.6886
C3 C 0.5000 0.3130(6) 0.7500
C4 C 0.5000 0.4395(5) 0.7500
C5 C 0.5533(2) 0.5055(5) 0.7647(2)
H3 H 0.5900 0.4678 0.7752
C6 C 0.5509(2) 0.6253(4) 0.7635(2)
H4 H 0.5868 0.6667 0.7726
C37 C -0.0000 0.2074(5) 0.2500
C38 C -0.0000 0.3393(6) 0.2500
N1 N 0.5000 0.0634(4) 0.7500
N2 N 0.5000 0.6851(5) 0.7500
N12 N -0.0000 0.5819(4) 0.2500
C49 C 0.5378(2) 0.1255(4) 0.7857(2)
H33 H 0.5639 0.0848 0.8112
C50 C 0.5400(3) 0.2462(4) 0.7866(2)
H34 H 0.5681 0.2839 0.8114
C51 C 0.4467(2) 0.5055(5) 0.7353(2)
H35 H 0.4100 0.4678 0.7248
C52 C 0.4491(2) 0.6253(4) 0.7365(2)
H36 H 0.4132 0.6667 0.7274
C53 C 0.0441(2) 0.0233(5) 0.2233(3)
C54 C 0.0440(3) 0.1428(5) 0.2216(3)
H38 H 0.0750 0.1811 0.2005
C55 C 0.0438(3) 0.4002(5) 0.2231(3)
H39 H 0.0765 0.3616 0.2045
C56 C 0.0415(3) 0.5209(5) 0.2222(3)
H40 H 0.0714 0.5606 0.2004
N30 N 0.60238(17) 0.0535(3) 0.62148(16)
Co8 Co 0.5000 0.87506(7) 0.7500
Co15 Co -0.0000 0.77206(7) 0.2500
C7 C 0.6490(2) 0.6142(4) 0.6418(3)
H5 H 0.6824 0.6544 0.6581
C8 C 0.6525(2) 0.4943(5) 0.6385(3)
H6 H 0.6882 0.4566 0.6518
C9 C 0.6049(2) 0.4301(4) 0.61638(19)
C10 C 0.5533(3) 0.4921(5) 0.5961(3)
H7 H 0.5188 0.4537 0.5806
C11 C 0.5552(3) 0.6120(5) 0.5998(3)
H8 H 0.5213 0.6530 0.5848
C12 C 0.6053(2) 0.2993(4) 0.6168(2)
C13 C 0.6366(2) 0.2384(4) 0.6604(2)
H9 H 0.6590 0.2786 0.6891
C14 C 0.6345(2) 0.1168(4) 0.6614(2)
H10 H 0.6562 0.0775 0.6909
C15 C 0.5715(2) 0.1135(5) 0.5781(2)
H11 H 0.5498 0.0715 0.5496
C16 C 0.5713(2) 0.2343(4) 0.5751(2)
H12 H 0.5488 0.2723 0.5457
C17 C 0.41211(19) 0.8603(4) 0.58149(19)
C18 C 0.3578(2) 0.8484(4) 0.5418(2)
C19 C 0.3655(2) 0.8294(5) 0.4821(2)
H13 H 0.4053 0.8283 0.4659
C20 C 0.3139(2) 0.8118(5) 0.4456(2)
H14 H 0.3193 0.7977 0.4054
C21 C 0.2556(2) 0.8154(4) 0.46914(19)
C22 C 0.2474(2) 0.8397(6) 0.5273(2)
H15 H 0.2074 0.8439 0.5428
C23 C 0.2991(3) 0.8588(6) 0.5644(2)
H16 H 0.2933 0.8783 0.6040
C24 C 0.1981(2) 0.7940(4) 0.4315(2)
C25 C 0.1404(3) 0.5265(5) 0.3504(3)
H17 H 0.1689 0.5647 0.3261
C26 C 0.1426(3) 0.4073(6) 0.3515(3)
H18 H 0.1721 0.3700 0.3281
C27 C 0.1062(3) 0.3439(4) 0.3829(2)
C28 C 0.0658(3) 0.4072(6) 0.4143(3)
H19 H 0.0372 0.3692 0.4385
C29 C 0.0654(3) 0.5287(5) 0.4116(2)
H20 H 0.0362 0.5687 0.4343
C30 C 0.1050(2) 0.2123(4) 0.3822(2)
C31 C 0.1429(3) 0.1519(4) 0.3428(3)
H21 H 0.1706 0.1915 0.3184
C32 C 0.1384(3) 0.0305(4) 0.3410(2)
C33 C 0.0672(2) 0.0278(4) 0.4140(2)
C34 C 0.0695(2) 0.1482(5) 0.4203(2)
H24 H 0.0470 0.1849 0.4501
N3 N 0.60140(19) 0.6745(3) 0.62325(18)
N5 N 0.40724(17) 0.8671(4) 0.64021(17)
N6 N 0.46571(16) 0.8734(3) 0.65978(16)
N7 N 0.50400(17) 0.8687(3) 0.61400(16)
N8 N 0.47102(18) 0.8604(3) 0.56348(16)
N9 N 0.10320(19) 0.5889(3) 0.37942(17)
N11 N -0.0000 0.9610(4) 0.2500
N14 N 0.00392(17) 0.7794(3) 0.38614(14)
O1 O 0.14597(14) 0.7890(3) 0.45590(13)
O2 O 0.20338(14) 0.7851(3) 0.37538(15)
Co2 Co 0.60049(3) 0.86635(5) 0.62669(3)
Co3 Co 0.10075(3) 0.77824(5) 0.37304(3)
F1 F 0.58670(11) 0.8723(2) 0.71411(10)
F2 F 0.08709(11) 0.7730(2) 0.28532(10)
H37 H 0.0765 0.9836 0.2048
C85 C 0.0878(2) 0.7977(4) 0.0822(2)
C86 C 0.1420(2) 0.8137(4) 0.0438(2)
C87 C 0.2026(2) 0.8089(5) 0.0674(2)
H61 H 0.2084 0.7955 0.1076
C88 C 0.2528(2) 0.8240(5) 0.0310(2)
H62 H 0.2927 0.8187 0.0467
N25 N 0.02895(18) 0.7928(3) 0.06455(16)
N27 N 0.03337(17) 0.7749(3) 0.16002(16)
N28 N 0.09283(17) 0.7839(4) 0.14239(15)
N32 N 0.53429(16) 0.8734(3) 0.84022(16)
N33 N 0.10090(17) 0.9690(3) 0.37606(16)
O9 O 0.70361(13) 0.8678(3) 0.62395(14)
O11 O 0.64537(15) 0.8609(3) 0.54456(14)
F5 F 0.41330(11) 0.8723(2) 0.78589(10)
C89 C 0.2452(2) 0.8472(4) 0.97047(19)
C90 C 0.1857(2) 0.8544(5) 0.9475(2)
H63 H 0.1800 0.8686 0.9074
C91 C 0.1349(2) 0.8404(5) 0.9840(2)
H64 H 0.0952 0.8490 0.9684
C92 C 0.3017(2) 0.8604(4) 0.9327(2)
O7 O 0.29639(13) 0.8678(3) 0.87605(14)
O8 O 0.35463(15) 0.8609(3) 0.95544(14)
Co12 Co 0.39951(3) 0.86635(5) 0.87331(3)
H22 H 0.1629 0.9904 0.3138
H23 H 0.0402 0.9862 0.4383
C35 C 0.9559(2) 0.0233(5) 0.2767(3)
C36 C 0.9560(3) 0.1428(5) 0.2784(3)
H26 H 0.9250 0.1811 0.2995
C37_2 C 1.0000 0.2074(5) 0.2500
C38_2 C 1.0000 0.3393(6) 0.2500
C39 C 0.9562(3) 0.4002(5) 0.2769(3)
H27 H 0.9235 0.3616 0.2955
C40 C 0.9585(3) 0.5209(5) 0.2778(3)
H28 H 0.9286 0.5606 0.2996
N12_2 N 1.0000 0.5819(4) 0.2500
Co15_2 Co 1.0000 0.77206(7) 0.2500
N31 N 0.39762(17) 0.0535(3) 0.87852(16)
H25 H 0.9235 0.9836 0.2952
C41 C 0.9122(2) 0.7977(4) 0.4178(2)
C42 C 0.8580(2) 0.8137(4) 0.4562(2)
C43 C 0.7974(2) 0.8089(5) 0.4326(2)
H29 H 0.7916 0.7955 0.3924
C44 C 0.7472(2) 0.8240(5) 0.4690(2)
H30 H 0.7073 0.8187 0.4533
C45 C 0.7548(2) 0.8472(4) 0.52953(19)
C46 C 0.8143(2) 0.8544(5) 0.5525(2)
H31 H 0.8200 0.8686 0.5926
C47 C 0.8651(2) 0.8404(5) 0.5160(2)
H32 H 0.9048 0.8490 0.5316
C48 C 0.6983(2) 0.8604(4) 0.5673(2)
N11_2 N 1.0000 0.9610(4) 0.2500
N13 N 0.97105(18) 0.7928(3) 0.43545(16)
N15 N 0.96663(17) 0.7749(3) 0.33998(16)
N16 N 0.90717(17) 0.7839(4) 0.35761(15)
C69 C 0.6345(2) 0.8294(5) 0.0179(2)
H49 H 0.5947 0.8283 0.0341
C70 C 0.6861(2) 0.8118(5) 0.0544(2)
H50 H 0.6807 0.7977 0.0946
C71 C 0.7444(2) 0.8154(4) 0.03086(19)
C74 C 0.8019(2) 0.7940(4) 0.0685(2)
C75 C 0.8596(3) 0.5265(5) 0.1496(3)
H53 H 0.8311 0.5647 0.1739
C76 C 0.8574(3) 0.4073(6) 0.1485(3)
H54 H 0.8279 0.3700 0.1719
C77 C 0.8938(3) 0.3439(4) 0.1171(2)
C78 C 0.9342(3) 0.4072(6) 0.0857(3)
H55 H 0.9628 0.3692 0.0615
C79 C 0.9346(3) 0.5287(5) 0.0884(2)
H56 H 0.9638 0.5687 0.0657
C80 C 0.8950(2) 0.2123(4) 0.1178(2)
C81 C 0.8571(3) 0.1519(4) 0.1572(3)
H57 H 0.8294 0.1915 0.1816
C82 C 0.8616(3) 0.0305(4) 0.1590(2)
C83 C 0.9328(2) 0.0278(4) 0.0860(2)
C84 C 0.9305(2) 0.1482(5) 0.0797(2)
H60 H 0.9530 0.1849 0.0499
N23 N 0.89680(19) 0.5889(3) 0.12058(17)
N26 N 0.99608(17) 0.7794(3) 0.11386(14)
O5 O 0.85403(14) 0.7890(3) 0.04410(13)
O6 O 0.79662(14) 0.7851(3) 0.12462(15)
Co6 Co 0.89925(3) 0.77824(5) 0.12696(3)
F4 F 0.91291(11) 0.7730(2) 0.21468(10)
N34 N 0.89910(17) 0.9690(3) 0.12394(16)
C57 C 0.3510(2) 0.6142(4) 0.8582(3)
H41 H 0.3176 0.6544 0.8419
C58 C 0.3475(2) 0.4943(5) 0.8615(3)
H42 H 0.3118 0.4566 0.8482
C59 C 0.3951(2) 0.4301(4) 0.88362(19)
C60 C 0.4467(3) 0.4921(5) 0.9039(3)
H43 H 0.4812 0.4537 0.9194
C61 C 0.4448(3) 0.6120(5) 0.9002(3)
H44 H 0.4787 0.6530 0.9152
C62 C 0.3947(2) 0.2993(4) 0.8832(2)
C63 C 0.3634(2) 0.2384(4) 0.8396(2)
H45 H 0.3410 0.2786 0.8109
C64 C 0.3655(2) 0.1168(4) 0.8386(2)
H46 H 0.3438 0.0775 0.8091
C65 C 0.4285(2) 0.1135(5) 0.9219(2)
H47 H 0.4502 0.0715 0.9504
C66 C 0.4287(2) 0.2343(4) 0.9249(2)
H48 H 0.4512 0.2723 0.9543
C67 C 0.58789(19) 0.8603(4) 0.91851(19)
C68 C 0.6422(2) 0.8484(4) 0.9582(2)
C72 C 0.7526(2) 0.8397(6) 0.9727(2)
H51 H 0.7926 0.8439 0.9572
C73 C 0.7009(3) 0.8588(6) 0.9356(2)
H52 H 0.7067 0.8783 0.8960
N17 N 0.39860(19) 0.6745(3) 0.87675(18)
N19 N 0.59276(17) 0.8671(4) 0.85979(17)
N21 N 0.49600(17) 0.8687(3) 0.88600(16)
N22 N 0.52898(18) 0.8604(3) 0.93652(16)
H58 H 0.8371 0.9904 0.1862
H59 H 0.9598 0.9862 0.0617
H58_2 H 0.1629 0.0096 0.6862
H59_2 H 0.0402 0.0138 0.5617
N24 N 0.10090(17) 0.0310(3) 0.62394(16)
Co11 Co 0.60049(3) 0.13365(5) 0.37331(3)
Co14 Co 0.10075(3) 0.22176(5) 0.62696(3)
C45_2 C 0.2452(2) 0.1528(4) 0.02953(19)
C46_2 C 0.1857(2) 0.1456(5) 0.0525(2)
H31_2 H 0.1800 0.1314 0.0926
C47_2 C 0.1349(2) 0.1596(5) 0.0160(2)
H32_2 H 0.0952 0.1510 0.0316
C48_2 C 0.3017(2) 0.1396(4) 0.0673(2)
O3 O 0.29639(13) 0.1322(3) 0.12395(14)
O4 O 0.35463(15) 0.1391(3) 0.04456(14)
Co9 Co 0.39951(3) 0.13365(5) 0.12669(3)
H25_2 H 0.0765 0.0164 0.7952
C41_2 C 0.0878(2) 0.2023(4) 0.9178(2)
C42_2 C 0.1420(2) 0.1863(4) 0.9562(2)
C43_2 C 0.2026(2) 0.1911(5) 0.9326(2)
H29_2 H 0.2084 0.2045 0.8924
C44_2 C 0.2528(2) 0.1760(5) 0.9690(2)
H30_2 H 0.2927 0.1813 0.9533
N11_3 N 0.0000 0.0390(4) 0.7500
N13_2 N 0.02895(18) 0.2072(3) 0.93545(16)
N15_2 N 0.03337(17) 0.2251(3) 0.83998(16)
N16_2 N 0.09283(17) 0.2161(4) 0.85761(15)
Co4 Co 0.0000 0.22794(7) 0.7500
C57_2 C 0.6490(2) 0.3858(4) 0.3582(3)
H41_2 H 0.6824 0.3456 0.3419
C58_2 C 0.6525(2) 0.5057(5) 0.3615(3)
H42_2 H 0.6882 0.5434 0.3482
C59_2 C 0.6049(2) 0.5699(4) 0.38362(19)
C60_2 C 0.5533(3) 0.5079(5) 0.4039(3)
H43_2 H 0.5188 0.5463 0.4194
C61_2 C 0.5552(3) 0.3880(5) 0.4002(3)
H44_2 H 0.5213 0.3470 0.4152
C62_2 C 0.6053(2) 0.7007(4) 0.3832(2)
C63_2 C 0.6366(2) 0.7616(4) 0.3396(2)
H45_2 H 0.6590 0.7214 0.3109
C64_2 C 0.6345(2) 0.8832(4) 0.3386(2)
H46_2 H 0.6562 0.9225 0.3091
C65_2 C 0.5715(2) 0.8865(5) 0.4219(2)
H47_2 H 0.5498 0.9285 0.4504
C66_2 C 0.5713(2) 0.7657(4) 0.4249(2)
H48_2 H 0.5488 0.7277 0.4543
C67_2 C 0.41211(19) 0.1397(4) 0.41851(19)
C68_2 C 0.3578(2) 0.1516(4) 0.4582(2)
C69_2 C 0.3655(2) 0.1706(5) 0.5179(2)
H49_2 H 0.4053 0.1717 0.5341
C70_2 C 0.3139(2) 0.1882(5) 0.5544(2)
H50_2 H 0.3193 0.2023 0.5946
C71_2 C 0.2556(2) 0.1846(4) 0.53086(19)
C72_2 C 0.2474(2) 0.1603(6) 0.4727(2)
H51_2 H 0.2074 0.1561 0.4572
C73_2 C 0.2991(3) 0.1412(6) 0.4356(2)
H52_2 H 0.2933 0.1217 0.3960
C74_2 C 0.1981(2) 0.2060(4) 0.5685(2)
C75_2 C 0.1404(3) 0.4735(5) 0.6496(3)
H53_2 H 0.1689 0.4353 0.6739
C76_2 C 0.1426(3) 0.5927(6) 0.6485(3)
H54_2 H 0.1721 0.6300 0.6719
C77_2 C 0.1062(3) 0.6561(4) 0.6171(2)
C78_2 C 0.0658(3) 0.5928(6) 0.5857(3)
H55_2 H 0.0372 0.6308 0.5615
C79_2 C 0.0654(3) 0.4713(5) 0.5884(2)
H56_2 H 0.0362 0.4313 0.5657
C80_2 C 0.1050(2) 0.7877(4) 0.6178(2)
C81_2 C 0.1429(3) 0.8481(4) 0.6572(3)
H57_2 H 0.1706 0.8085 0.6816
C82_2 C 0.1384(3) 0.9695(4) 0.6590(2)
C83_2 C 0.0672(2) 0.9722(4) 0.5860(2)
C84_2 C 0.0695(2) 0.8518(5) 0.5797(2)
H60_2 H 0.0470 0.8151 0.5499
N17_2 N 0.60140(19) 0.3255(3) 0.37675(18)
N18 N 0.60238(17) 0.9465(3) 0.37852(16)
N19_2 N 0.40724(17) 0.1329(4) 0.35979(17)
N20 N 0.46571(16) 0.1266(3) 0.34022(16)
N21_2 N 0.50400(17) 0.1313(3) 0.38600(16)
N22_2 N 0.47102(18) 0.1396(3) 0.43652(16)
N23_2 N 0.10320(19) 0.4111(3) 0.62058(17)
N26_2 N 0.00392(17) 0.2206(3) 0.61386(14)
O5_2 O 0.14597(14) 0.2110(3) 0.54410(13)
O6_2 O 0.20338(14) 0.2149(3) 0.62462(15)
F3 F 0.58670(11) 0.1277(2) 0.28589(10)
F4_2 F 0.08709(11) 0.2270(2) 0.71468(10)
N35 N 0.0000 0.4181(4) 0.7500
O10 O 0.70361(13) 0.1322(3) 0.37605(14)
O12 O 0.64537(15) 0.1391(3) 0.45544(14)
Co7 Co 0.5000 0.12494(7) 0.2500
C35_2 C 0.0441(2) 0.9767(5) 0.7767(3)
C36_2 C 0.0440(3) 0.8572(5) 0.7784(3)
H26_2 H 0.0750 0.8189 0.7995
C37_3 C 0.0000 0.7926(5) 0.7500
C38_3 C 0.0000 0.6607(6) 0.7500
C39_2 C 0.0438(3) 0.5998(5) 0.7769(3)
H27_2 H 0.0765 0.6384 0.7955
C40_2 C 0.0415(3) 0.4791(5) 0.7778(3)
H28_2 H 0.0714 0.4394 0.7996
H22_2 H 0.8371 0.0096 0.8138
H23_2 H 0.9598 0.0138 0.9383
N10 N 0.89910(17) 0.0310(3) 0.87606(16)
Co13 Co 0.89925(3) 0.22176(5) 0.87304(3)
C7_2 C 0.3510(2) 0.3858(4) 0.1418(3)
H5_2 H 0.3176 0.3456 0.1581
C8_2 C 0.3475(2) 0.5057(5) 0.1385(3)
H6_2 H 0.3118 0.5434 0.1518
C9_2 C 0.3951(2) 0.5699(4) 0.11638(19)
C10_2 C 0.4467(3) 0.5079(5) 0.0961(3)
H7_2 H 0.4812 0.5463 0.0806
C11_2 C 0.4448(3) 0.3880(5) 0.0998(3)
H8_2 H 0.4787 0.3470 0.0848
C12_2 C 0.3947(2) 0.7007(4) 0.1168(2)
C13_2 C 0.3634(2) 0.7616(4) 0.1604(2)
H9_2 H 0.3410 0.7214 0.1891
C14_2 C 0.3655(2) 0.8832(4) 0.1614(2)
H10_2 H 0.3438 0.9225 0.1909
C15_2 C 0.4285(2) 0.8865(5) 0.0781(2)
H11_2 H 0.4502 0.9285 0.0496
C16_2 C 0.4287(2) 0.7657(4) 0.0751(2)
H12_2 H 0.4512 0.7277 0.0457
C17_2 C 0.58789(19) 0.1397(4) 0.08149(19)
C18_2 C 0.6422(2) 0.1516(4) 0.0418(2)
C22_2 C 0.7526(2) 0.1603(6) 0.0273(2)
H15_2 H 0.7926 0.1561 0.0428
C23_2 C 0.7009(3) 0.1412(6) 0.0644(2)
H16_2 H 0.7067 0.1217 0.1040
N3_2 N 0.39860(19) 0.3255(3) 0.12325(18)
N4 N 0.39762(17) 0.9465(3) 0.12148(16)
N5_2 N 0.59276(17) 0.1329(4) 0.14021(17)
N6_2 N 0.53429(16) 0.1266(3) 0.15978(16)
N7_2 N 0.49600(17) 0.1313(3) 0.11400(16)
N8_2 N 0.52898(18) 0.1396(3) 0.06348(16)
F1_2 F 0.41330(11) 0.1277(2) 0.21411(10)
N29 N 0.5000 0.3149(5) 0.2500
C19_2 C 0.6345(2) 0.1706(5) 0.9821(2)
H13_2 H 0.5947 0.1717 0.9659
C20_2 C 0.6861(2) 0.1882(5) 0.9456(2)
H14_2 H 0.6807 0.2023 0.9054
C21_2 C 0.7444(2) 0.1846(4) 0.96914(19)
C24_2 C 0.8019(2) 0.2060(4) 0.9315(2)
C25_2 C 0.8596(3) 0.4735(5) 0.8504(3)
H17_2 H 0.8311 0.4353 0.8261
C26_2 C 0.8574(3) 0.5927(6) 0.8515(3)
H18_2 H 0.8279 0.6300 0.8281
C27_2 C 0.8938(3) 0.6561(4) 0.8829(2)
C28_2 C 0.9342(3) 0.5928(6) 0.9143(3)
H19_2 H 0.9628 0.6308 0.9385
C29_2 C 0.9346(3) 0.4713(5) 0.9116(2)
H20_2 H 0.9638 0.4313 0.9343
C30_2 C 0.8950(2) 0.7877(4) 0.8822(2)
C31_2 C 0.8571(3) 0.8481(4) 0.8428(3)
H21_2 H 0.8294 0.8085 0.8184
C32_2 C 0.8616(3) 0.9695(4) 0.8410(2)
C33_2 C 0.9328(2) 0.9722(4) 0.9140(2)
C34_2 C 0.9305(2) 0.8518(5) 0.9203(2)
H24_2 H 0.9530 0.8151 0.9501
N9_2 N 0.89680(19) 0.4111(3) 0.87942(17)
N11_4 N 1.0000 0.0390(4) 0.7500
N14_2 N 0.99608(17) 0.2206(3) 0.88614(14)
O1_2 O 0.85403(14) 0.2110(3) 0.95590(13)
O2_2 O 0.79662(14) 0.2149(3) 0.87538(15)
Co4_2 Co 1.0000 0.22794(7) 0.7500
F2_2 F 0.91291(11) 0.2270(2) 0.78532(10)
H37_2 H 0.9235 0.0164 0.7048
C85_2 C 0.9122(2) 0.2023(4) 0.5822(2)
C86_2 C 0.8580(2) 0.1863(4) 0.5438(2)
C87_2 C 0.7974(2) 0.1911(5) 0.5674(2)
H61_2 H 0.7916 0.2045 0.6076
C88_2 C 0.7472(2) 0.1760(5) 0.5310(2)
H62_2 H 0.7073 0.1813 0.5467
C89_2 C 0.7548(2) 0.1528(4) 0.47047(19)
C90_2 C 0.8143(2) 0.1456(5) 0.4475(2)
H63_2 H 0.8200 0.1314 0.4074
C91_2 C 0.8651(2) 0.1596(5) 0.4840(2)
H64_2 H 0.9048 0.1510 0.4684
C92_2 C 0.6983(2) 0.1396(4) 0.4327(2)
N25_2 N 0.97105(18) 0.2072(3) 0.56455(16)
N27_2 N 0.96663(17) 0.2251(3) 0.66002(16)
N28_2 N 0.90717(17) 0.2161(4) 0.64239(15)
N35_2 N 1.0000 0.4181(4) 0.7500
C1_2 C 0.5378(2) 0.8745(4) 0.2143(2)
H1_2 H 0.5639 0.9152 0.1888
C2_2 C 0.5400(3) 0.7538(4) 0.2134(2)
H2_2 H 0.5681 0.7161 0.1886
C3_2 C 0.5000 0.6870(6) 0.2500
C4_2 C 0.5000 0.5605(5) 0.2500
C5_2 C 0.4467(2) 0.4945(5) 0.2647(2)
H3_2 H 0.4100 0.5322 0.2752
C6_2 C 0.4491(2) 0.3747(4) 0.2635(2)
H4_2 H 0.4132 0.3333 0.2726
N1_2 N 0.5000 0.9366(4) 0.2500
C49_2 C 0.4622(2) 0.8745(4) 0.2857(2)
H33_2 H 0.4361 0.9152 0.3112
C50_2 C 0.4600(3) 0.7538(4) 0.2866(2)
H34_2 H 0.4319 0.7161 0.3114
C51_2 C 0.5533(2) 0.4945(5) 0.2353(2)
H35_2 H 0.5900 0.5322 0.2248
C52_2 C 0.5509(2) 0.3747(4) 0.2365(2)
H36_2 H 0.5868 0.3333 0.2274
C37_4 C 1.0000 0.7926(5) 0.7500
C38_4 C 1.0000 0.6607(6) 0.7500
C53_2 C 0.9559(2) 0.9767(5) 0.7233(3)
C54_2 C 0.9560(3) 0.8572(5) 0.7216(3)
H38_2 H 0.9250 0.8189 0.7005
C55_2 C 0.9562(3) 0.5998(5) 0.7231(3)
H39_2 H 0.9235 0.6384 0.7045
C56_2 C 0.9585(3) 0.4791(5) 0.7222(3)
H40_2 H 0.9286 0.4394 0.7004
loop_
_geom_bond_atom_site_label_1
_geom_bond_atom_site_label_2
_geom_bond_site_symmetry_1
_geom_bond_site_symmetry_2
C1 H1 1_555 1_555
C2 C1 1_555 1_555
H2 C2 1_555 1_555
C3 C2 1_555 1_555
C4 C3 1_555 1_555
C5 C4 1_555 1_555
H3 C5 1_555 1_555
C6 C5 1_555 1_555
H4 C6 1_555 1_555
C38 C37 1_555 1_555
N1 C1 1_555 1_555
N2 C6 1_555 1_555
C49 N1 1_555 1_555
H33 C49 1_555 1_555
C50 C3 1_555 1_555
H34 C50 1_555 1_555
C51 C4 1_555 1_555
H35 C51 1_555 1_555
C52 N2 1_555 1_555
H36 C52 1_555 1_555
C54 C37 1_555 1_555
H38 C54 1_555 1_555
C55 C38 1_555 1_555
H39 C55 1_555 1_555
C56 N12 1_555 1_555
H40 C56 1_555 1_555
Co8 N2 1_555 1_555
Co15 N12 1_555 1_555
C49 C50 1_555 1_555
C51 C52 1_555 1_555
C53 C54 1_555 1_555
C55 C56 1_555 1_555
C7 H5 1_555 1_555
C8 C7 1_555 1_555
H6 C8 1_555 1_555
C9 C8 1_555 1_555
C10 C9 1_555 1_555
H7 C10 1_555 1_555
C11 C10 1_555 1_555
H8 C11 1_555 1_555
C12 C9 1_555 1_555
C13 C12 1_555 1_555
H9 C13 1_555 1_555
C14 C13 1_555 1_555
H10 C14 1_555 1_555
C15 H11 1_555 1_555
C16 C12 1_555 1_555
H12 C16 1_555 1_555
C17 C18 1_555 1_555
C18 C19 1_555 1_555
C19 H13 1_555 1_555
C20 C19 1_555 1_555
H14 C20 1_555 1_555
C21 C20 1_555 1_555
C22 C21 1_555 1_555
H15 C22 1_555 1_555
C23 C18 1_555 1_555
H16 C23 1_555 1_555
C24 C21 1_555 1_555
C25 H17 1_555 1_555
C26 C25 1_555 1_555
H18 C26 1_555 1_555
C27 C26 1_555 1_555
C28 C27 1_555 1_555
H19 C28 1_555 1_555
C29 C28 1_555 1_555
H20 C29 1_555 1_555
C30 C27 1_555 1_555
C31 C30 1_555 1_555
H21 C31 1_555 1_555
C32 C31 1_555 1_555
C34 C30 1_555 1_555
H24 C34 1_555 1_555
N3 C7 1_555 1_555
N30 C14 1_555 1_555
N5 C17 1_555 1_555
N6 N5 1_555 1_555
N7 N6 1_555 1_555
N8 C17 1_555 1_555
N9 C25 1_555 1_555
O1 C24 1_555 1_555
O2 C24 1_555 1_555
Co2 N3 1_555 1_555
Co3 N9 1_555 1_555
Co15 N11 1_555 1_555
F1 Co8 1_555 1_555
F2 Co3 1_555 1_555
C85 C86 1_555 1_555
C86 C87 1_555 1_555
C87 H61 1_555 1_555
C88 C87 1_555 1_555
H62 C88 1_555 1_555
N25 C85 1_555 1_555
N27 Co15 1_555 1_555
N28 C85 1_555 1_555
N32 Co8 1_555 1_555
N33 Co3 1_555 1_555
O9 Co2 1_555 1_555
O11 Co2 1_555 1_555
F5 Co8 1_555 1_555
C11 N3 1_555 1_555
C15 C16 1_555 1_555
C15 N30 1_555 1_555
C22 C23 1_555 1_555
C29 N9 1_555 1_555
C33 C34 1_555 1_555
N6 Co8 1_555 1_555
N7 N8 1_555 1_555
N7 Co2 1_555 1_555
N14 Co3 1_555 1_555
O1 Co3 1_555 1_555
O2 Co3 1_555 1_555
Co2 F1 1_555 1_555
Co15 F2 1_555 1_555
N27 N28 1_555 1_555
C90 C89 1_555 1_555
H63 C90 1_555 1_555
H64 C91 1_555 1_555
C92 C89 1_555 1_555
O7 C92 1_555 1_555
O8 C92 1_555 1_555
Co12 O7 1_555 1_555
C90 C91 1_555 1_555
O8 Co12 1_555 1_555
C36 C35 1_555 1_555
H26 C36 1_555 1_555
C37_2 C36 1_555 1_555
C38_2 C37_2 1_555 1_555
C39 C38_2 1_555 1_555
H27 C39 1_555 1_555
C40 C39 1_555 1_555
H28 C40 1_555 1_555
N12_2 C40 1_555 1_555
Co15_2 N12_2 1_555 1_555
C41 C42 1_555 1_555
C42 C43 1_555 1_555
C43 H29 1_555 1_555
C44 C43 1_555 1_555
H30 C44 1_555 1_555
C45 C44 1_555 1_555
C46 C45 1_555 1_555
H31 C46 1_555 1_555
C47 C42 1_555 1_555
H32 C47 1_555 1_555
C48 C45 1_555 1_555
N13 C41 1_555 1_555
N16 C41 1_555 1_555
O9 C48 1_555 1_555
O11 C48 1_555 1_555
Co15_2 N11_2 1_555 1_555
C69 H49 1_555 1_555
C70 C69 1_555 1_555
H50 C70 1_555 1_555
C71 C70 1_555 1_555
C74 C71 1_555 1_555
C75 H53 1_555 1_555
C76 C75 1_555 1_555
H54 C76 1_555 1_555
C77 C76 1_555 1_555
C78 C77 1_555 1_555
H55 C78 1_555 1_555
C79 C78 1_555 1_555
H56 C79 1_555 1_555
C80 C77 1_555 1_555
C81 C80 1_555 1_555
H57 C81 1_555 1_555
C82 C81 1_555 1_555
C84 C80 1_555 1_555
H60 C84 1_555 1_555
N23 C75 1_555 1_555
O5 C74 1_555 1_555
O6 C74 1_555 1_555
Co6 N23 1_555 1_555
F4 Co15_2 1_555 1_555
N34 Co6 1_555 1_555
C46 C47 1_555 1_555
N15 N16 1_555 1_555
N15 Co15_2 1_555 1_555
C79 N23 1_555 1_555
C83 C84 1_555 1_555
N26 Co6 1_555 1_555
O5 Co6 1_555 1_555
O6 Co6 1_555 1_555
Co6 F4 1_555 1_555
C57 H41 1_555 1_555
C58 C57 1_555 1_555
H42 C58 1_555 1_555
C59 C58 1_555 1_555
C60 C59 1_555 1_555
H43 C60 1_555 1_555
C61 C60 1_555 1_555
H44 C61 1_555 1_555
C62 C59 1_555 1_555
C63 C62 1_555 1_555
H45 C63 1_555 1_555
C64 C63 1_555 1_555
H46 C64 1_555 1_555
C65 H47 1_555 1_555
C66 C62 1_555 1_555
H48 C66 1_555 1_555
C67 C68 1_555 1_555
H51 C72 1_555 1_555
C73 C68 1_555 1_555
H52 C73 1_555 1_555
N17 C57 1_555 1_555
N31 C64 1_555 1_555
N19 C67 1_555 1_555
N32 N19 1_555 1_555
N21 N32 1_555 1_555
N22 C67 1_555 1_555
Co12 N17 1_555 1_555
F5 Co12 1_555 1_555
C61 N17 1_555 1_555
C65 C66 1_555 1_555
C65 N31 1_555 1_555
C72 C73 1_555 1_555
N21 N22 1_555 1_555
N21 Co12 1_555 1_555
Co14 N24 1_555 1_555
C46_2 C45_2 1_555 1_555
H31_2 C46_2 1_555 1_555
H32_2 C47_2 1_555 1_555
C48_2 C45_2 1_555 1_555
O3 C48_2 1_555 1_555
O4 C48_2 1_555 1_555
Co9 O3 1_555 1_555
C46_2 C47_2 1_555 1_555
O4 Co9 1_555 1_555
C41_2 C42_2 1_555 1_555
C42_2 C43_2 1_555 1_555
C43_2 H29_2 1_555 1_555
C44_2 C43_2 1_555 1_555
H30_2 C44_2 1_555 1_555
N13_2 C41_2 1_555 1_555
N16_2 C41_2 1_555 1_555
Co4 N11_3 1_555 1_555
C57_2 H41_2 1_555 1_555
C58_2 C57_2 1_555 1_555
H42_2 C58_2 1_555 1_555
C59_2 C58_2 1_555 1_555
C60_2 C59_2 1_555 1_555
H43_2 C60_2 1_555 1_555
C61_2 C60_2 1_555 1_555
H44_2 C61_2 1_555 1_555
C62_2 C59_2 1_555 1_555
C63_2 C62_2 1_555 1_555
H45_2 C63_2 1_555 1_555
C64_2 C63_2 1_555 1_555
H46_2 C64_2 1_555 1_555
C65_2 H47_2 1_555 1_555
C66_2 C62_2 1_555 1_555
H48_2 C66_2 1_555 1_555
C67_2 C68_2 1_555 1_555
C68_2 C69_2 1_555 1_555
C69_2 H49_2 1_555 1_555
C70_2 C69_2 1_555 1_555
H50_2 C70_2 1_555 1_555
C71_2 C70_2 1_555 1_555
C72_2 C71_2 1_555 1_555
H51_2 C72_2 1_555 1_555
C73_2 C68_2 1_555 1_555
H52_2 C73_2 1_555 1_555
C74_2 C71_2 1_555 1_555
C75_2 H53_2 1_555 1_555
C76_2 C75_2 1_555 1_555
H54_2 C76_2 1_555 1_555
C77_2 C76_2 1_555 1_555
C78_2 C77_2 1_555 1_555
H55_2 C78_2 1_555 1_555
C79_2 C78_2 1_555 1_555
H56_2 C79_2 1_555 1_555
C80_2 C77_2 1_555 1_555
C81_2 C80_2 1_555 1_555
H57_2 C81_2 1_555 1_555
C82_2 C81_2 1_555 1_555
C84_2 C80_2 1_555 1_555
H60_2 C84_2 1_555 1_555
N17_2 C57_2 1_555 1_555
N18 C64_2 1_555 1_555
N19_2 C67_2 1_555 1_555
N20 N19_2 1_555 1_555
N21_2 N20 1_555 1_555
N22_2 C67_2 1_555 1_555
N23_2 C75_2 1_555 1_555
O5_2 C74_2 1_555 1_555
O6_2 C74_2 1_555 1_555
Co11 N17_2 1_555 1_555
Co14 N23_2 1_555 1_555
F3 Co11 1_555 1_555
F4_2 Co4 1_555 1_555
N35 Co4 1_555 1_555
O10 Co11 1_555 1_555
O12 Co11 1_555 1_555
Co7 N20 1_555 1_555
N15_2 N16_2 1_555 1_555
N15_2 Co4 1_555 1_555
C61_2 N17_2 1_555 1_555
C65_2 C66_2 1_555 1_555
C65_2 N18 1_555 1_555
C72_2 C73_2 1_555 1_555
C79_2 N23_2 1_555 1_555
C83_2 C84_2 1_555 1_555
N21_2 N22_2 1_555 1_555
N21_2 Co11 1_555 1_555
N26_2 Co14 1_555 1_555
O5_2 Co14 1_555 1_555
O6_2 Co14 1_555 1_555
Co14 F4_2 1_555 1_555
F3 Co7 1_555 1_555
C36_2 C35_2 1_555 1_555
H26_2 C36_2 1_555 1_555
C37_3 C36_2 1_555 1_555
C38_3 C37_3 1_555 1_555
C39_2 C38_3 1_555 1_555
H27_2 C39_2 1_555 1_555
C40_2 C39_2 1_555 1_555
H28_2 C40_2 1_555 1_555
N35 C40_2 1_555 1_555
Co13 N10 1_555 1_555
C7_2 H5_2 1_555 1_555
C8_2 C7_2 1_555 1_555
H6_2 C8_2 1_555 1_555
C9_2 C8_2 1_555 1_555
C10_2 C9_2 1_555 1_555
H7_2 C10_2 1_555 1_555
C11_2 C10_2 1_555 1_555
H8_2 C11_2 1_555 1_555
C12_2 C9_2 1_555 1_555
C13_2 C12_2 1_555 1_555
H9_2 C13_2 1_555 1_555
C14_2 C13_2 1_555 1_555
H10_2 C14_2 1_555 1_555
C15_2 H11_2 1_555 1_555
C16_2 C12_2 1_555 1_555
H12_2 C16_2 1_555 1_555
C17_2 C18_2 1_555 1_555
H15_2 C22_2 1_555 1_555
C23_2 C18_2 1_555 1_555
H16_2 C23_2 1_555 1_555
N3_2 C7_2 1_555 1_555
N4 C14_2 1_555 1_555
N5_2 C17_2 1_555 1_555
N6_2 N5_2 1_555 1_555
N7_2 N6_2 1_555 1_555
N8_2 C17_2 1_555 1_555
Co9 N3_2 1_555 1_555
F1_2 Co7 1_555 1_555
N29 Co7 1_555 1_555
C11_2 N3_2 1_555 1_555
C15_2 C16_2 1_555 1_555
C15_2 N4 1_555 1_555
C22_2 C23_2 1_555 1_555
N6_2 Co7 1_555 1_555
N7_2 N8_2 1_555 1_555
N7_2 Co9 1_555 1_555
Co9 F1_2 1_555 1_555
C19_2 H13_2 1_555 1_555
C20_2 C19_2 1_555 1_555
H14_2 C20_2 1_555 1_555
C21_2 C20_2 1_555 1_555
C24_2 C21_2 1_555 1_555
C25_2 H17_2 1_555 1_555
C26_2 C25_2 1_555 1_555
H18_2 C26_2 1_555 1_555
C27_2 C26_2 1_555 1_555
C28_2 C27_2 1_555 1_555
H19_2 C28_2 1_555 1_555
C29_2 C28_2 1_555 1_555
H20_2 C29_2 1_555 1_555
C30_2 C27_2 1_555 1_555
C31_2 C30_2 1_555 1_555
H21_2 C31_2 1_555 1_555
C32_2 C31_2 1_555 1_555
C34_2 C30_2 1_555 1_555
H24_2 C34_2 1_555 1_555
N9_2 C25_2 1_555 1_555
O1_2 C24_2 1_555 1_555
O2_2 C24_2 1_555 1_555
Co13 N9_2 1_555 1_555
Co4_2 N11_4 1_555 1_555
F2_2 Co13 1_555 1_555
C85_2 C86_2 1_555 1_555
C86_2 C87_2 1_555 1_555
C87_2 H61_2 1_555 1_555
C88_2 C87_2 1_555 1_555
H62_2 C88_2 1_555 1_555
C89_2 C88_2 1_555 1_555
C90_2 C89_2 1_555 1_555
H63_2 C90_2 1_555 1_555
C91_2 C86_2 1_555 1_555
H64_2 C91_2 1_555 1_555
C92_2 C89_2 1_555 1_555
N25_2 C85_2 1_555 1_555
N27_2 Co4_2 1_555 1_555
N28_2 C85_2 1_555 1_555
O10 C92_2 1_555 1_555
O12 C92_2 1_555 1_555
N35_2 Co4_2 1_555 1_555
C29_2 N9_2 1_555 1_555
C33_2 C34_2 1_555 1_555
N14_2 Co13 1_555 1_555
O1_2 Co13 1_555 1_555
O2_2 Co13 1_555 1_555
Co4_2 F2_2 1_555 1_555
C90_2 C91_2 1_555 1_555
N27_2 N28_2 1_555 1_555
C1_2 H1_2 1_555 1_555
C2_2 C1_2 1_555 1_555
H2_2 C2_2 1_555 1_555
C3_2 C2_2 1_555 1_555
C4_2 C3_2 1_555 1_555
C5_2 C4_2 1_555 1_555
H3_2 C5_2 1_555 1_555
C6_2 C5_2 1_555 1_555
H4_2 C6_2 1_555 1_555
N1_2 C1_2 1_555 1_555
N29 C6_2 1_555 1_555
C49_2 N1_2 1_555 1_555
H33_2 C49_2 1_555 1_555
C50_2 C3_2 1_555 1_555
H34_2 C50_2 1_555 1_555
C51_2 C4_2 1_555 1_555
H35_2 C51_2 1_555 1_555
C52_2 N29 1_555 1_555
H36_2 C52_2 1_555 1_555
C49_2 C50_2 1_555 1_555
C51_2 C52_2 1_555 1_555
C38_4 C37_4 1_555 1_555
C54_2 C37_4 1_555 1_555
H38_2 C54_2 1_555 1_555
C55_2 C38_4 1_555 1_555
H39_2 C55_2 1_555 1_555
C56_2 N35_2 1_555 1_555
H40_2 C56_2 1_555 1_555
C53_2 C54_2 1_555 1_555
C55_2 C56_2 1_555 1_555

#END
