
###############################################################################
#
# This file contains modified crystal structure data generated from the
# MOF subset of the Cambridge Structural Database (CSD) v543 
# hosted by the Cambridge Crystallographic Data Centre (CCDC).
#
# This work is licensed under the Creative Commons
# Attribution-NonCommercial-ShareAlike 4.0 International License.
# To view a copy of this license, visit
# http://creativecommons.org/licenses/by-nc-sa/4.0/
# or send a letter to
# Creative Commons, PO Box 1866, Mountain View, CA 94042, USA.
#
# CIF created using the CSD Python API on 29 September 2022
# The structure has been converted into the P1 space group
# The structure has a 3D framework
# The original CSD entry FEXCES is in the trigonal crystal system
# The original CSD entry FEXCES is in a Sohncke space group
# The framework has been calculated to contain at least 10.0% void space
# The void calculation uses a probe of radius 1.32A, grid spacing 0.4
#
###############################################################################

data_FEXCES
_chemical_formula_moiety         '(C78 H60 Co6 N6 O36)n'
_symmetry_cell_setting           triclinic
_symmetry_space_group_name_H-M   'P 1'
_symmetry_Int_Tables_number      1
_space_group_name_Hall           'P 1'
loop_
_symmetry_equiv_pos_site_id
_symmetry_equiv_pos_as_xyz
1 x,y,z
_cell_length_a                   11.050(3)
_cell_length_b                   11.050(3)
_cell_length_c                   27.772(10)
_cell_angle_alpha                90
_cell_angle_beta                 90
_cell_angle_gamma                120
_cell_volume                     2936.72
loop_
_atom_site_label
_atom_site_type_symbol
_atom_site_fract_x
_atom_site_fract_y
_atom_site_fract_z
O6 O 0.0601(4) 0.8615(4) 0.08851(12)
H9 H 0.0309 0.8050 0.1121
H10 H 0.1473 0.8923 0.0859
H8 H 0.0184 0.9846 0.9778
O12 O 0.0964(5) 0.7739(4) 0.99494(12)
H11 H 0.9846 0.0184 0.0222
O13 O 0.7739(4) 0.0964(5) 0.00506(12)
N1 N 0.1503(4) 0.6878(4) 0.28022(13)
C1 C 0.2400(5) 0.7207(5) 0.24356(16)
H1 H 0.2536 0.7932 0.2231
C2 C 0.3142(5) 0.6512(5) 0.23461(16)
C3 C 0.2906(5) 0.5438(5) 0.26526(17)
H2 H 0.3365 0.4938 0.2602
C4 C 0.1974(5) 0.5090(5) 0.30424(17)
C5 C 0.1245(5) 0.5834(5) 0.30878(16)
H3 H 0.0568 0.5576 0.3326
C6 C 0.1680(5) 0.3923(5) 0.33822(17)
C7 C 0.4129(5) 0.6947(5) 0.19330(16)
C8 C 0.3844(6) 0.7423(5) 0.15122(17)
H4 H 0.3069 0.7540 0.1493
C9 C 0.4729(5) 0.7726(6) 0.11163(17)
H5 H 0.4543 0.8067 0.0836
C10 C 0.5898(5) 0.7531(5) 0.11285(17)
C11 C 0.6213(5) 0.7110(6) 0.15750(19)
H6 H 0.7019 0.7047 0.1603
C12 C 0.5325(5) 0.6793(6) 0.19669(17)
H7 H 0.5515 0.6479 0.2252
C13 C 0.6828(5) 0.7801(4) 0.07048(18)
O1 O 0.7793(4) 0.7539(3) 0.07519(11)
O2 O 0.6508(4) 0.8187(4) 0.03262(12)
O3 O 0.2261(4) 0.3225(3) 0.32827(12)
O4 O 0.0928(5) 0.3746(4) 0.37317(15)
O5 O 0.9572(4) 0.9572(4) 0.0000
Co1 Co 0.92301(6) 0.75378(6) 0.02925(2)
N4 N 0.8497(4) 0.5375(6) 0.05311(13)
Co3 Co 0.24622(6) 0.16923(8) 0.36258(2)
Co6 Co 0.07699(6) 0.83077(8) 0.30408(2)
O5_2 O 0.9572(4) 0.9572(4) 1.0000
N2 N 0.6878(4) 0.1503(4) 0.71978(13)
C14 C 0.7207(5) 0.2400(5) 0.75644(16)
H12 H 0.7932 0.2536 0.7769
C15 C 0.6512(5) 0.3142(5) 0.76539(16)
C16 C 0.5438(5) 0.2906(5) 0.73474(17)
H13 H 0.4938 0.3365 0.7398
C17 C 0.5090(5) 0.1974(5) 0.69576(17)
C18 C 0.5834(5) 0.1245(5) 0.69122(16)
H14 H 0.5576 0.0568 0.6674
C19 C 0.3923(5) 0.1680(5) 0.66178(17)
C20 C 0.6947(5) 0.4129(5) 0.80670(16)
C21 C 0.7423(5) 0.3844(6) 0.84878(17)
H15 H 0.7540 0.3069 0.8507
C22 C 0.7726(6) 0.4729(5) 0.88837(17)
H16 H 0.8067 0.4543 0.9164
C23 C 0.7531(5) 0.5898(5) 0.88715(17)
C24 C 0.7110(6) 0.6213(5) 0.84250(19)
H17 H 0.7047 0.7019 0.8397
C25 C 0.6793(6) 0.5325(5) 0.80331(17)
H18 H 0.6479 0.5515 0.7748
C26 C 0.7801(4) 0.6828(5) 0.92952(18)
O7 O 0.7539(3) 0.7793(4) 0.92481(11)
O8 O 0.8187(4) 0.6508(4) 0.96738(12)
O9 O 0.3225(3) 0.2261(4) 0.67173(12)
O10 O 0.3746(4) 0.0928(5) 0.62683(15)
Co2 Co 0.75378(6) 0.92301(6) 0.97075(2)
N3 N 0.5375(6) 0.8497(4) 0.94689(13)
Co4 Co 0.83077(8) 0.07699(6) 0.69592(2)
Co5 Co 0.16923(8) 0.24622(6) 0.63742(2)
O1_2 O 0.2461(3) 0.0254(5) 0.40852(11)
O5_3 O 0.0428(4) 0.0000(6) 0.3333
H8_2 H 0.0154 0.0338 0.3111
O6_2 O 0.1385(4) 0.1986(6) 0.42184(12)
H9_2 H 0.1950 0.2259 0.4454
H10_2 H 0.1077 0.2550 0.4192
C14_2 C 0.7600(5) 0.4807(7) 0.08977(16)
H12_2 H 0.7464 0.5396 0.1102
C15_2 C 0.6858(5) 0.3370(7) 0.09872(16)
C16_2 C 0.7094(5) 0.2532(7) 0.06807(17)
H13_2 H 0.6635 0.1573 0.0731
C17_2 C 0.8026(5) 0.3116(7) 0.02909(17)
C18_2 C 0.8755(5) 0.4589(7) 0.02455(16)
H14_2 H 0.9432 0.5008 0.0007
C20_2 C 0.5871(5) 0.2818(7) 0.14003(16)
C21_2 C 0.6156(6) 0.3579(8) 0.18211(17)
H15_2 H 0.6931 0.4471 0.1840
C22_2 C 0.5271(5) 0.2997(8) 0.22170(17)
H16_2 H 0.5457 0.3524 0.2497
C23_2 C 0.4102(5) 0.1633(7) 0.22048(17)
C24_2 C 0.3787(5) 0.0897(8) 0.17583(19)
H17_2 H 0.2981 0.0028 0.1730
C25_2 C 0.4675(5) 0.1468(8) 0.13664(17)
H18_2 H 0.4485 0.0964 0.1081
C26_2 C 0.3172(5) 0.0973(6) 0.26285(18)
O8_2 O 0.3492(4) 0.1679(6) 0.30071(12)
N4_2 N 0.4625(6) 0.3122(7) 0.38645(13)
N1_2 N 0.3122(4) 0.4625(6) 0.61355(13)
C1_2 C 0.2793(5) 0.5193(7) 0.57689(16)
H1_2 H 0.2068 0.4604 0.5564
C2_2 C 0.3488(5) 0.6630(7) 0.56794(16)
C3_2 C 0.4562(5) 0.7468(7) 0.59859(17)
H2_2 H 0.5062 0.8427 0.5935
C4_2 C 0.4910(5) 0.6884(7) 0.63757(17)
C5_2 C 0.4166(5) 0.5411(7) 0.64211(16)
H3_2 H 0.4424 0.4992 0.6659
C6_2 C 0.6077(5) 0.7757(7) 0.67155(17)
C7_2 C 0.3053(5) 0.7182(7) 0.52663(16)
C8_2 C 0.2577(5) 0.6421(8) 0.48455(17)
H4_2 H 0.2460 0.5529 0.4826
C9_2 C 0.2274(6) 0.7003(8) 0.44496(17)
H5_2 H 0.1933 0.6476 0.4169
C10_2 C 0.2469(5) 0.8367(7) 0.44618(17)
C11_2 C 0.2890(6) 0.9103(8) 0.49083(19)
H6_2 H 0.2953 0.9972 0.4936
C12_2 C 0.3207(6) 0.8532(8) 0.53002(17)
H7_2 H 0.3521 0.9036 0.5585
C13_2 C 0.2199(4) 0.9027(6) 0.40381(18)
O2_2 O 0.1813(4) 0.8321(6) 0.36595(12)
O3_2 O 0.6775(3) 0.9036(5) 0.66160(12)
O4_2 O 0.6254(4) 0.7182(6) 0.70650(15)
O5_4 O 0.0428(4) 1.0000(6) 0.3333
O7_2 O 0.2207(4) 0.9746(5) 0.25814(11)
H11_2 H 0.9816 0.9662 0.3555
O11 O 0.9399(4) 0.8014(6) 0.24482(12)
H19 H 0.9691 0.7741 0.2212
H20 H 0.8527 0.7450 0.2474
O13_2 O 0.9036(5) 0.6775(6) 0.33840(12)
C1_3 C 0.4807(7) 0.7600(5) 0.91023(16)
H1_3 H 0.5396 0.7464 0.8898
C2_3 C 0.3370(7) 0.6858(5) 0.90128(16)
C3_3 C 0.2532(7) 0.7094(5) 0.93193(17)
H2_3 H 0.1573 0.6635 0.9269
C4_3 C 0.3116(7) 0.8026(5) 0.97091(17)
C5_3 C 0.4589(7) 0.8755(5) 0.97545(16)
H3_3 H 0.5008 0.9432 0.9993
C7_3 C 0.2818(7) 0.5871(5) 0.85997(16)
C8_3 C 0.3579(8) 0.6156(6) 0.81789(17)
H4_3 H 0.4471 0.6931 0.8160
C9_3 C 0.2997(8) 0.5271(5) 0.77830(17)
H5_3 H 0.3524 0.5457 0.7503
C10_3 C 0.1633(7) 0.4102(5) 0.77952(17)
C11_3 C 0.0897(8) 0.3787(5) 0.82417(19)
H6_3 H 0.0028 0.2981 0.8270
C12_3 C 0.1468(8) 0.4675(5) 0.86336(17)
H7_3 H 0.0964 0.4485 0.8919
C13_3 C 0.0973(6) 0.3172(5) 0.73715(18)
O2_3 O 0.1679(6) 0.3492(4) 0.69929(12)
O5_5 O -0.0000(6) 0.0428(4) 0.6667
H11_3 H 0.0338 0.0154 0.6889
O7_3 O 0.0254(5) 0.2461(3) 0.59148(11)
O11_2 O 0.1986(6) 0.1385(4) 0.57816(12)
H19_2 H 0.2259 0.1950 0.5546
H20_2 H 0.2550 0.1077 0.5808
O1_3 O 0.9746(5) 0.2207(4) 0.74186(11)
O5_6 O 1.0000(6) 0.0428(4) 0.6667
C14_3 C 0.5193(7) 0.2793(5) 0.42311(16)
H12_3 H 0.4604 0.2068 0.4436
C15_3 C 0.6630(7) 0.3488(5) 0.43206(16)
C16_3 C 0.7468(7) 0.4562(5) 0.40141(17)
H13_3 H 0.8427 0.5062 0.4065
C17_3 C 0.6884(7) 0.4910(5) 0.36243(17)
C18_3 C 0.5411(7) 0.4166(5) 0.35789(16)
H14_3 H 0.4992 0.4424 0.3341
C19_2 C 0.7757(7) 0.6077(5) 0.32845(17)
C20_3 C 0.7182(7) 0.3053(5) 0.47337(16)
C21_3 C 0.6421(8) 0.2577(5) 0.51545(17)
H15_3 H 0.5529 0.2460 0.5174
C22_3 C 0.7003(8) 0.2274(6) 0.55504(17)
H16_3 H 0.6476 0.1933 0.5831
C23_3 C 0.8367(7) 0.2469(5) 0.55382(17)
C24_3 C 0.9103(8) 0.2890(6) 0.50917(19)
H17_3 H 0.9972 0.2953 0.5064
C25_3 C 0.8532(8) 0.3207(6) 0.46998(17)
H18_3 H 0.9036 0.3521 0.4415
C26_3 C 0.9027(6) 0.2199(4) 0.59619(18)
O8_3 O 0.8321(6) 0.1813(4) 0.63405(12)
O10_2 O 0.7182(6) 0.6254(4) 0.29350(15)
H8_3 H 0.9662 0.9816 0.6445
O6_3 O 0.8014(6) 0.9399(4) 0.75518(12)
H9_3 H 0.7741 0.9691 0.7788
H10_3 H 0.7450 0.8527 0.7526
O11_3 O 0.8615(4) 0.0601(4) 0.91149(12)
H19_3 H 0.8050 0.0309 0.8879
H20_3 H 0.8923 0.1473 0.9141
C19_3 C 0.8320(5) 0.2243(7) 0.99511(17)
O10_3 O 0.9072(5) 0.2818(6) 0.96016(15)
C6_3 C 0.2243(7) 0.8320(5) 0.00489(17)
O4_3 O 0.2818(6) 0.9072(5) 0.03984(15)
loop_
_geom_bond_atom_site_label_1
_geom_bond_atom_site_label_2
_geom_bond_site_symmetry_1
_geom_bond_site_symmetry_2
O6 H9 1_555 1_555
H10 O6 1_555 1_555
N1 C1 1_555 1_555
C1 H1 1_555 1_555
C2 C1 1_555 1_555
C3 C2 1_555 1_555
H2 C3 1_555 1_555
C4 C3 1_555 1_555
C5 N1 1_555 1_555
H3 C5 1_555 1_555
C6 C4 1_555 1_555
C7 C2 1_555 1_555
C8 C7 1_555 1_555
H4 C8 1_555 1_555
C9 C8 1_555 1_555
H5 C9 1_555 1_555
C10 C9 1_555 1_555
C11 C10 1_555 1_555
H6 C11 1_555 1_555
C12 C7 1_555 1_555
H7 C12 1_555 1_555
C13 C10 1_555 1_555
O1 C13 1_555 1_555
O2 C13 1_555 1_555
O3 C6 1_555 1_555
O4 C6 1_555 1_555
Co1 O1 1_555 1_555
N4 Co1 1_555 1_555
Co3 O3 1_555 1_555
Co6 N1 1_555 1_555
C4 C5 1_555 1_555
C11 C12 1_555 1_555
O5 Co1 1_555 1_555
N2 C14 1_555 1_555
C14 H12 1_555 1_555
C15 C14 1_555 1_555
C16 C15 1_555 1_555
H13 C16 1_555 1_555
C17 C16 1_555 1_555
C18 N2 1_555 1_555
H14 C18 1_555 1_555
C19 C17 1_555 1_555
C20 C15 1_555 1_555
C21 C20 1_555 1_555
H15 C21 1_555 1_555
C22 C21 1_555 1_555
H16 C22 1_555 1_555
C23 C22 1_555 1_555
C24 C23 1_555 1_555
H17 C24 1_555 1_555
C25 C20 1_555 1_555
H18 C25 1_555 1_555
C26 C23 1_555 1_555
O7 C26 1_555 1_555
O9 C19 1_555 1_555
O10 C19 1_555 1_555
N3 Co2 1_555 1_555
Co4 N2 1_555 1_555
Co5 O9 1_555 1_555
O5_2 Co2 1_555 1_555
C17 C18 1_555 1_555
C24 C25 1_555 1_555
C26 O8 1_555 1_555
O7 Co2 1_555 1_555
O5_3 H8_2 1_555 1_555
O6_2 H9_2 1_555 1_555
H10_2 O6_2 1_555 1_555
Co3 O1_2 1_555 1_555
N4 C14_2 1_555 1_555
C14_2 H12_2 1_555 1_555
C15_2 C14_2 1_555 1_555
C16_2 C15_2 1_555 1_555
H13_2 C16_2 1_555 1_555
C17_2 C16_2 1_555 1_555
C18_2 N4 1_555 1_555
H14_2 C18_2 1_555 1_555
C20_2 C15_2 1_555 1_555
C21_2 C20_2 1_555 1_555
H15_2 C21_2 1_555 1_555
C22_2 C21_2 1_555 1_555
H16_2 C22_2 1_555 1_555
C23_2 C22_2 1_555 1_555
C24_2 C23_2 1_555 1_555
H17_2 C24_2 1_555 1_555
C25_2 C20_2 1_555 1_555
H18_2 C25_2 1_555 1_555
C26_2 C23_2 1_555 1_555
O8_2 Co3 1_555 1_555
N4_2 Co3 1_555 1_555
O5_3 Co3 1_555 1_555
O6_2 Co3 1_555 1_555
C17_2 C18_2 1_555 1_555
C24_2 C25_2 1_555 1_555
C26_2 O8_2 1_555 1_555
N1_2 C1_2 1_555 1_555
C1_2 H1_2 1_555 1_555
C2_2 C1_2 1_555 1_555
C3_2 C2_2 1_555 1_555
H2_2 C3_2 1_555 1_555
C4_2 C3_2 1_555 1_555
C5_2 N1_2 1_555 1_555
H3_2 C5_2 1_555 1_555
C6_2 C4_2 1_555 1_555
C7_2 C2_2 1_555 1_555
C8_2 C7_2 1_555 1_555
H4_2 C8_2 1_555 1_555
C9_2 C8_2 1_555 1_555
H5_2 C9_2 1_555 1_555
C10_2 C9_2 1_555 1_555
C11_2 C10_2 1_555 1_555
H6_2 C11_2 1_555 1_555
C12_2 C7_2 1_555 1_555
H7_2 C12_2 1_555 1_555
C13_2 C10_2 1_555 1_555
O2_2 C13_2 1_555 1_555
O3_2 C6_2 1_555 1_555
O4_2 C6_2 1_555 1_555
Co6 O2_2 1_555 1_555
Co5 N1_2 1_555 1_555
C4_2 C5_2 1_555 1_555
C11_2 C12_2 1_555 1_555
O5_4 Co6 1_555 1_555
O7_2 Co6 1_555 1_555
O11 H19 1_555 1_555
H20 O11 1_555 1_555
N3 C1_3 1_555 1_555
C1_3 H1_3 1_555 1_555
C2_3 C1_3 1_555 1_555
C3_3 C2_3 1_555 1_555
H2_3 C3_3 1_555 1_555
C4_3 C3_3 1_555 1_555
C5_3 N3 1_555 1_555
H3_3 C5_3 1_555 1_555
C7_3 C2_3 1_555 1_555
C8_3 C7_3 1_555 1_555
H4_3 C8_3 1_555 1_555
C9_3 C8_3 1_555 1_555
H5_3 C9_3 1_555 1_555
C10_3 C9_3 1_555 1_555
C11_3 C10_3 1_555 1_555
H6_3 C11_3 1_555 1_555
C12_3 C7_3 1_555 1_555
H7_3 C12_3 1_555 1_555
C13_3 C10_3 1_555 1_555
O2_3 C13_3 1_555 1_555
H11_3 O5_5 1_555 1_555
O11_2 H19_2 1_555 1_555
H20_2 O11_2 1_555 1_555
Co5 O2_3 1_555 1_555
C4_3 C5_3 1_555 1_555
C11_3 C12_3 1_555 1_555
O5_5 Co5 1_555 1_555
O7_3 Co5 1_555 1_555
O11_2 Co5 1_555 1_555
Co4 O1_3 1_555 1_555
N4_2 C14_3 1_555 1_555
C14_3 H12_3 1_555 1_555
C15_3 C14_3 1_555 1_555
C16_3 C15_3 1_555 1_555
H13_3 C16_3 1_555 1_555
C17_3 C16_3 1_555 1_555
C18_3 N4_2 1_555 1_555
H14_3 C18_3 1_555 1_555
C19_2 C17_3 1_555 1_555
C20_3 C15_3 1_555 1_555
C21_3 C20_3 1_555 1_555
H15_3 C21_3 1_555 1_555
C22_3 C21_3 1_555 1_555
H16_3 C22_3 1_555 1_555
C23_3 C22_3 1_555 1_555
C24_3 C23_3 1_555 1_555
H17_3 C24_3 1_555 1_555
C25_3 C20_3 1_555 1_555
H18_3 C25_3 1_555 1_555
C26_3 C23_3 1_555 1_555
O8_3 Co4 1_555 1_555
O13_2 C19_2 1_555 1_555
O10_2 C19_2 1_555 1_555
O5_6 Co4 1_555 1_555
C17_3 C18_3 1_555 1_555
C24_3 C25_3 1_555 1_555
C26_3 O8_3 1_555 1_555
O6_3 H9_3 1_555 1_555
H10_3 O6_3 1_555 1_555
O11_3 H19_3 1_555 1_555
H20_3 O11_3 1_555 1_555
O10_3 C19_3 1_555 1_555
O4_3 C6_3 1_555 1_555

#END
