
###############################################################################
#
# This file contains modified crystal structure data generated from the
# MOF subset of the Cambridge Structural Database (CSD) v543 
# hosted by the Cambridge Crystallographic Data Centre (CCDC).
#
# This work is licensed under the Creative Commons
# Attribution-NonCommercial-ShareAlike 4.0 International License.
# To view a copy of this license, visit
# http://creativecommons.org/licenses/by-nc-sa/4.0/
# or send a letter to
# Creative Commons, PO Box 1866, Mountain View, CA 94042, USA.
#
# CIF created using the CSD Python API on 29 September 2022
# The structure has been converted into the P1 space group
# The structure has a 3D framework
# The original CSD entry FEXHOG01 is in the monoclinic crystal system
# The framework has been calculated to contain at least 10.0% void space
# The void calculation uses a probe of radius 1.32A, grid spacing 0.4
#
###############################################################################

data_FEXHOG01
_chemical_formula_moiety         '(C32 H16 Cu4 N12 O16)n'
_symmetry_cell_setting           triclinic
_symmetry_space_group_name_H-M   'P 1'
_symmetry_Int_Tables_number      1
_space_group_name_Hall           'P 1'
loop_
_symmetry_equiv_pos_site_id
_symmetry_equiv_pos_as_xyz
1 x,y,z
_cell_length_a                   4.73310(16)
_cell_length_b                   19.9244(4)
_cell_length_c                   10.8678(3)
_cell_angle_alpha                90
_cell_angle_beta                 96.009(4)
_cell_angle_gamma                90
_cell_volume                     1019.25
loop_
_atom_site_label
_atom_site_type_symbol
_atom_site_fract_x
_atom_site_fract_y
_atom_site_fract_z
_atom_site_U_iso_or_equiv
_atom_site_thermal_displace_type
Cu3 Cu 0.7032(7) 0.16310(7) 0.0379(3) 1.3300 Uiso
O2 O 0.165(2) 0.3183(4) 0.8574(8) 0.8000 Uiso
O3 O 0.516(1) 0.1891(6) 0.8656(8) 0.8000 Uiso
O4 O 0.150(2) 0.1697(6) 0.9682(5) 0.8000 Uiso
N2 N 0.003(3) 0.1268(3) 0.697(1) 1.7000 Uiso
C2 C 0.069(4) 0.1845(3) 0.753(1) 2.4000 Uiso
C5 C 0.001(3) 0.3128(3) 0.764(1) 2.4000 Uiso
C6 C 0.259(1) 0.1761(5) 0.871(1) 2.4000 Uiso
O10 O 0.150(2) 0.3303(6) 0.4682(5) 0.8000 Uiso
Cu1 Cu 0.7032(7) 0.33690(7) 0.5379(3) 1.3300 Uiso
O1 O 0.880(2) 0.3590(2) 0.7029(9) 0.8000 Uiso
N1 N 0.778(2) 0.2437(1) 0.600(1) 1.7000 Uiso
N3 N 0.575(2) 0.4337(2) 0.5091(7) 1.7000 Uiso
C1 C 0.953(4) 0.2434(3) 0.705(1) 2.4000 Uiso
C3 C 0.826(4) 0.1273(2) 0.594(2) 2.4000 Uiso
C4 C 0.710(4) 0.1853(2) 0.542(1) 2.4000 Uiso
C7 C 0.453(4) 0.4634(4) 0.596(1) 2.4000 Uiso
C8 C 0.628(4) 0.4695(3) 0.412(1) 2.4000 Uiso
H1 H 0.77522 0.08467 0.55233 2.4000 Uiso
H2 H 0.57906 0.18520 0.46890 2.4000 Uiso
H3 H 0.41881 0.43994 0.66965 2.4000 Uiso
H4 H 0.72052 0.44978 0.34854 2.4000 Uiso
Cu5 Cu 0.2968(7) 0.66310(7) 0.4621(3) 1.3300 Uiso
O6 O 0.165(2) 0.1817(4) 0.3574(8) 0.8000 Uiso
O7 O 0.516(1) 0.3109(6) 0.3656(8) 0.8000 Uiso
N5 N 0.003(3) 0.3732(3) 0.197(1) 1.7000 Uiso
N6 N 0.425(2) 0.5663(2) 0.4909(7) 1.7000 Uiso
C10 C 0.069(4) 0.3155(3) 0.253(1) 2.4000 Uiso
C13 C 0.001(3) 0.1872(3) 0.264(1) 2.4000 Uiso
C14 C 0.259(1) 0.3239(5) 0.371(1) 2.4000 Uiso
C15 C 0.547(4) 0.5366(4) 0.404(1) 2.4000 Uiso
C16 C 0.372(4) 0.5305(3) 0.588(1) 2.4000 Uiso
H7 H 0.58119 0.56006 0.33035 2.4000 Uiso
H8 H 0.27948 0.55022 0.65146 2.4000 Uiso
O5 O 0.880(2) 0.1410(2) 0.2029(9) 0.8000 Uiso
N4 N 0.778(2) 0.2563(1) 0.100(1) 1.7000 Uiso
N7 N 0.575(2) 0.0663(2) 0.0091(7) 1.7000 Uiso
C9 C 0.953(4) 0.2566(3) 0.205(1) 2.4000 Uiso
C11 C 0.826(4) 0.3727(2) 0.094(2) 2.4000 Uiso
C12 C 0.710(4) 0.3147(2) 0.042(1) 2.4000 Uiso
H5 H 0.77522 0.41533 0.05233 2.4000 Uiso
H6 H 0.57906 0.31480 0.96890 2.4000 Uiso
O5_2 O 0.120(2) 0.6410(2) 0.2971(9) 0.8000 Uiso
O8 O 0.484(1) 0.6891(6) 0.6344(8) 0.8000 Uiso
N4_2 N 0.222(2) 0.7563(1) 0.400(1) 1.7000 Uiso
C9_2 C 0.047(4) 0.7566(3) 0.295(1) 2.4000 Uiso
C11_2 C 0.174(4) 0.8727(2) 0.406(2) 2.4000 Uiso
C12_2 C 0.290(4) 0.8147(2) 0.458(1) 2.4000 Uiso
H5_2 H 0.22478 0.91533 0.44767 2.4000 Uiso
H6_2 H 0.42094 0.81480 0.53110 2.4000 Uiso
Cu6 Cu 0.2968(7) 0.83690(7) 0.9621(3) 1.3300 Uiso
C15_2 C 0.453(4) 0.0366(4) 0.096(1) 2.4000 Uiso
H7_2 H 0.41881 0.06006 0.16965 2.4000 Uiso
C16_2 C 0.628(4) 0.0305(3) 0.912(1) 2.4000 Uiso
H8_2 H 0.72052 0.05022 0.84854 2.4000 Uiso
C8_2 C 0.372(4) 0.9695(3) 0.088(1) 2.4000 Uiso
H2_2 H 0.42094 0.68520 0.03110 2.4000 Uiso
H4_2 H 0.27948 0.94978 0.15146 2.4000 Uiso
O6_2 O 0.835(2) 0.6817(4) 0.1426(8) 0.8000 Uiso
O7_2 O 0.484(1) 0.8109(6) 0.1344(8) 0.8000 Uiso
O9 O 0.850(2) 0.8303(6) 0.0318(5) 0.8000 Uiso
O11 O 0.850(2) 0.6697(6) 0.5318(5) 0.8000 Uiso
N5_2 N 0.997(3) 0.8732(3) 0.303(1) 1.7000 Uiso
C10_2 C 0.931(4) 0.8155(3) 0.247(1) 2.4000 Uiso
C13_2 C 0.999(3) 0.6872(3) 0.236(1) 2.4000 Uiso
C14_2 C 0.741(1) 0.8239(5) 0.129(1) 2.4000 Uiso
O1_2 O 0.120(2) 0.8590(2) 0.7971(9) 0.8000 Uiso
N1_2 N 0.222(2) 0.7437(1) 0.900(1) 1.7000 Uiso
N3_2 N 0.425(2) 0.9337(2) 0.9909(7) 1.7000 Uiso
C1_2 C 0.047(4) 0.7434(3) 0.795(1) 2.4000 Uiso
C3_2 C 0.174(4) 0.6273(2) 0.906(2) 2.4000 Uiso
C4_2 C 0.290(4) 0.6853(2) 0.958(1) 2.4000 Uiso
C7_2 C 0.547(4) 0.9634(4) 0.904(1) 2.4000 Uiso
H1_2 H 0.22478 0.58467 0.94767 2.4000 Uiso
H3_2 H 0.58119 0.93994 0.83035 2.4000 Uiso
O2_2 O 0.835(2) 0.8183(4) 0.6426(8) 0.8000 Uiso
N2_2 N 0.997(3) 0.6268(3) 0.803(1) 1.7000 Uiso
C2_2 C 0.931(4) 0.6845(3) 0.747(1) 2.4000 Uiso
C5_2 C 0.999(3) 0.8128(3) 0.736(1) 2.4000 Uiso
C6_2 C 0.741(1) 0.6761(5) 0.629(1) 2.4000 Uiso
loop_
_geom_bond_atom_site_label_1
_geom_bond_atom_site_label_2
_geom_bond_site_symmetry_1
_geom_bond_site_symmetry_2
O2 C5 1_555 1_555
O3 C6 1_555 1_555
O4 C6 1_555 1_555
N2 C2 1_555 1_555
C6 C2 1_555 1_555
Cu1 O1 1_555 1_555
N1 Cu1 1_555 1_555
N3 Cu1 1_555 1_555
C1 N1 1_555 1_555
C4 N1 1_555 1_555
C7 N3 1_555 1_555
C8 N3 1_555 1_555
H1 C3 1_555 1_555
H2 C4 1_555 1_555
H3 C7 1_555 1_555
H4 C8 1_555 1_555
Cu5 N6 1_555 1_555
O6 C13 1_555 1_555
O7 Cu1 1_555 1_555
O10 C14 1_555 1_555
N5 C10 1_555 1_555
N6 C15 1_555 1_555
C14 O7 1_555 1_555
C15 C8 1_555 1_555
C16 C7 1_555 1_555
H7 C15 1_555 1_555
H8 C16 1_555 1_555
C3 C4 1_555 1_555
N6 C16 1_555 1_555
C10 C14 1_555 1_555
Cu3 O5 1_555 1_555
N4 Cu3 1_555 1_555
N7 Cu3 1_555 1_555
C9 N4 1_555 1_555
C12 N4 1_555 1_555
H5 C11 1_555 1_555
C11 C12 1_555 1_555
Cu5 O5_2 1_555 1_555
O8 Cu5 1_555 1_555
N4_2 Cu5 1_555 1_555
C9_2 N4_2 1_555 1_555
C12_2 N4_2 1_555 1_555
H5_2 C11_2 1_555 1_555
H6_2 C12_2 1_555 1_555
C11_2 C12_2 1_555 1_555
N7 C15_2 1_555 1_555
H7_2 C15_2 1_555 1_555
H8_2 C16_2 1_555 1_555
H4_2 C8_2 1_555 1_555
O6_2 C13_2 1_555 1_555
O9 C14_2 1_555 1_555
N5_2 C10_2 1_555 1_555
C14_2 O7_2 1_555 1_555
C10_2 C14_2 1_555 1_555
Cu6 O1_2 1_555 1_555
N1_2 Cu6 1_555 1_555
N3_2 Cu6 1_555 1_555
C1_2 N1_2 1_555 1_555
C4_2 N1_2 1_555 1_555
C7_2 N3_2 1_555 1_555
H1_2 C3_2 1_555 1_555
H3_2 C7_2 1_555 1_555
C3_2 C4_2 1_555 1_555
O2_2 C5_2 1_555 1_555
O8 C6_2 1_555 1_555
O11 C6_2 1_555 1_555
N2_2 C2_2 1_555 1_555
C6_2 C2_2 1_555 1_555

#END
