
###############################################################################
#
# This file contains modified crystal structure data generated from the
# MOF subset of the Cambridge Structural Database (CSD) v543 
# hosted by the Cambridge Crystallographic Data Centre (CCDC).
#
# This work is licensed under the Creative Commons
# Attribution-NonCommercial-ShareAlike 4.0 International License.
# To view a copy of this license, visit
# http://creativecommons.org/licenses/by-nc-sa/4.0/
# or send a letter to
# Creative Commons, PO Box 1866, Mountain View, CA 94042, USA.
#
# CIF created using the CSD Python API on 29 September 2022
# The structure has been converted into the P1 space group
# The structure has a 3D framework
# The original CSD entry FEYJOJ is in the monoclinic crystal system
# The framework has been calculated to contain at least 10.0% void space
# The void calculation uses a probe of radius 1.32A, grid spacing 0.4
#
###############################################################################

data_FEYJOJ
_chemical_formula_moiety         '(C88 H88 Co6 N8 O44)n'
_symmetry_cell_setting           triclinic
_symmetry_space_group_name_H-M   'P 1'
_symmetry_Int_Tables_number      1
_space_group_name_Hall           'P 1'
loop_
_symmetry_equiv_pos_site_id
_symmetry_equiv_pos_as_xyz
1 x,y,z
_cell_length_a                   14.279(3)
_cell_length_b                   13.006(2)
_cell_length_c                   17.515(3)
_cell_angle_alpha                90
_cell_angle_beta                 96.872(4)
_cell_angle_gamma                90
_cell_volume                     3229.39
loop_
_atom_site_label
_atom_site_type_symbol
_atom_site_fract_x
_atom_site_fract_y
_atom_site_fract_z
Co1 Co 0.00145(3) 0.93298(3) 0.22604(2)
O12 O 0.12131(18) 0.9954(2) 0.27470(14)
O13 O 0.06098(17) 0.83290(19) 0.16287(14)
O1 O 0.9108(2) 0.0729(2) 0.27024(15)
O2 O 0.94252(18) 0.0416(2) 0.15280(15)
O7 O 0.54758(15) 0.35584(17) 0.18586(13)
O8 O 0.64225(18) 0.3359(2) 0.29363(14)
C5 C 0.7710(3) 0.2804(3) 0.0601(2)
C9 C 0.8353(3) 0.2087(3) 0.0934(2)
H4 H 0.8818 0.1821 0.0642
C10 C 0.9004(3) 0.0923(3) 0.2000(2)
C11 C 0.6995(2) 0.2834(3) 0.1780(2)
C12 C 0.6264(2) 0.3250(3) 0.2234(2)
C13 C 0.7666(3) 0.2148(3) 0.2118(2)
H5 H 0.7669 0.1954 0.2641
C14 C 0.7005(3) 0.3145(3) 0.1030(2)
H6 H 0.6528 0.3596 0.0801
C15 C 0.8334(3) 0.1750(3) 0.1681(2)
C18 C 0.9175(11) 0.8176(16) 0.0034(13)
H9 H 0.9352 0.8589 0.0496
H10 H 0.9057 0.7465 0.0182
H21 H 0.5537 0.6372 0.0042
Co5 Co 0.49855(3) 0.43298(3) 0.27396(2)
Co7 Co 0.43054(3) 0.27162(4) 0.13121(3)
Co2 Co 0.56946(3) 0.72838(4) 0.86879(3)
O3 O 0.62131(18) 0.5046(2) 0.77470(14)
O4 O 0.64449(19) 0.5922(2) 0.88591(14)
O5 O 0.93902(17) 0.16710(19) 0.83713(14)
O6 O 0.88246(19) 0.2619(2) 0.73585(14)
C1 C 0.7746(2) 0.3790(3) 0.82714(19)
H1 H 0.7727 0.3982 0.7746
C2 C 0.6580(2) 0.5181(3) 0.8434(2)
C3 C 0.7225(3) 0.4335(3) 0.8753(2)
C4 C 0.7247(3) 0.4047(3) 0.9518(2)
H2 H 0.6915 0.4445 0.9854
C6 C 0.8295(2) 0.2970(3) 0.8553(2)
C7 C 0.7748(3) 0.3182(3) 0.9800(2)
C8 C 0.8283(3) 0.2662(3) 0.9311(2)
H3 H 0.8647 0.2084 0.9499
C16 C 0.8883(2) 0.2377(3) 0.8048(2)
O9 O 0.6830(3) 0.8175(3) 0.9151(2)
C17 C 0.7524(4) 0.8010(6) 0.9412(4)
H7 H 0.7623 0.7306 0.9543
N1 N 0.8298(3) 0.8613(4) 0.9594(3)
H8 H 0.9689 0.8188 0.9710
C19 C 0.820(3) 0.972(2) 0.952(3)
H11 H 0.7554 0.9890 0.9302
H13 H 0.8644 0.9983 0.9184
O10 O 0.4868(2) 0.8619(2) 0.8524(2)
C20 C 0.4440(4) 0.9133(5) 0.8918(4)
H14 H 0.4516 0.8977 0.9452
N2 N 0.3862(3) 0.9905(3) 0.8692(3)
H17 H 0.3974 0.9786 0.7574
O11 O 0.5309(2) 0.6974(2) 0.97726(15)
H22 H 0.4904 0.7433 0.9999
Co3 Co 0.50145(3) 0.56702(3) 0.72604(2)
Co4 Co 0.99855(3) 0.06702(3) 0.77396(2)
Co6 Co 0.93054(3) 0.22838(4) 0.63121(3)
O14 O 0.61754(19) 0.7619(2) 0.76415(14)
O16 O 0.45242(15) 0.64416(17) 0.81414(13)
O15 O 0.95242(15) 0.85584(17) 0.31414(13)
O17 O 0.85775(18) 0.8359(2) 0.20637(14)
O10_2 O 0.0132(2) 0.3619(2) 0.6476(2)
C20_2 C 0.0560(4) 0.4133(5) 0.6082(4)
H14_2 H 0.0484 0.3977 0.5548
N2_2 N 0.1138(3) 0.4905(3) 0.6308(3)
C21 C 0.1333(5) 0.5247(5) 0.7090(4)
H15 H 0.2016 0.5241 0.7243
H16 H 0.1091 0.5947 0.7134
H17_2 H 0.1026 0.4786 0.7426
C22 C 0.1592(6) 0.5450(7) 0.5724(5)
H18 H 0.1326 0.5214 0.5212
H19 H 0.1483 0.6190 0.5769
H20 H 0.2271 0.5312 0.5799
H22_2 H 0.0096 0.2433 0.5001
O16_2 O 0.04758(15) 0.14416(17) 0.68586(13)
Co7_2 Co 0.06946(3) 0.77162(4) 0.36879(3)
O3_2 O 0.87869(18) 0.0046(2) 0.72530(14)
O4_2 O 0.85551(19) 0.0922(2) 0.61409(14)
C2_2 C 0.8420(2) 0.0181(3) 0.6566(2)
O9_2 O 0.8170(3) 0.3175(3) 0.5849(2)
C17_2 C 0.7476(4) 0.3010(6) 0.5588(4)
H7_2 H 0.7377 0.2306 0.5457
N1_2 N 0.6702(3) 0.3613(4) 0.5406(3)
C18_2 C 0.5825(11) 0.3176(16) 0.4966(13)
H8_2 H 0.5311 0.3188 0.5290
H9_2 H 0.5648 0.3589 0.4504
H10_2 H 0.5943 0.2465 0.4818
C19_2 C 0.680(3) 0.472(2) 0.548(3)
H11_2 H 0.7446 0.4890 0.5698
H12 H 0.6667 0.5039 0.4970
H13_2 H 0.6356 0.4983 0.5816
O11_2 O 0.9691(2) 0.1974(2) 0.52274(15)
H21_2 H 0.9463 0.1372 0.4958
O1_2 O 0.5892(2) 0.5729(2) 0.22976(15)
O2_2 O 0.55748(18) 0.5416(2) 0.34720(15)
O5_2 O 0.56098(17) 0.66710(19) 0.66287(14)
C1_2 C 0.7254(2) 0.8790(3) 0.67286(19)
H1_2 H 0.7273 0.8982 0.7254
C3_2 C 0.7775(3) 0.9335(3) 0.6247(2)
C4_2 C 0.7753(3) 0.9047(3) 0.5482(2)
H2_2 H 0.8085 0.9445 0.5146
C5_2 C 0.7290(3) 0.7804(3) 0.4399(2)
C6_2 C 0.6705(2) 0.7970(3) 0.6447(2)
C7_2 C 0.7252(3) 0.8182(3) 0.5200(2)
C8_2 C 0.6717(3) 0.7662(3) 0.5689(2)
H3_2 H 0.6353 0.7084 0.5501
C9_2 C 0.6647(3) 0.7087(3) 0.4066(2)
H4_2 H 0.6182 0.6821 0.4358
C10_2 C 0.5996(3) 0.5923(3) 0.3000(2)
C11_2 C 0.8005(2) 0.7834(3) 0.3220(2)
C12_2 C 0.8736(2) 0.8250(3) 0.2766(2)
C13_2 C 0.7334(3) 0.7148(3) 0.2882(2)
H5_2 H 0.7331 0.6954 0.2359
C14_2 C 0.7995(3) 0.8145(3) 0.3970(2)
H6_2 H 0.8472 0.8596 0.4199
C15_2 C 0.6666(3) 0.6750(3) 0.3319(2)
C16_2 C 0.6117(2) 0.7377(3) 0.6952(2)
O12_2 O 0.37869(18) 0.4954(2) 0.22530(14)
O13_2 O 0.43902(17) 0.33290(19) 0.33713(14)
O17_2 O 0.14225(18) 0.1641(2) 0.79363(14)
O4_3 O 0.35551(19) 0.4078(2) 0.11409(14)
O6_2 O 0.11754(19) 0.7381(2) 0.26415(14)
C1_3 C 0.2254(2) 0.6210(3) 0.17286(19)
H1_3 H 0.2273 0.6018 0.2254
C2_3 C 0.3420(2) 0.4819(3) 0.1566(2)
C3_3 C 0.2775(3) 0.5665(3) 0.1247(2)
C4_3 C 0.2753(3) 0.5953(3) 0.0482(2)
H2_3 H 0.3085 0.5555 0.0146
C6_3 C 0.1705(2) 0.7030(3) 0.1447(2)
C7_3 C 0.2252(3) 0.6818(3) 0.0200(2)
C8_3 C 0.1717(3) 0.7338(3) 0.0689(2)
H3_3 H 0.1353 0.7916 0.0501
C16_3 C 0.1117(2) 0.7623(3) 0.1952(2)
O9_3 O 0.3170(3) 0.1825(3) 0.0849(2)
C17_3 C 0.2476(4) 0.1990(6) 0.0588(4)
H7_3 H 0.2377 0.2694 0.0457
N1_3 N 0.1702(3) 0.1387(4) 0.0406(3)
H8_3 H 0.0311 0.1812 0.0290
C19_3 C 0.180(3) 0.028(2) 0.048(3)
H11_3 H 0.2446 0.0110 0.0698
H13_3 H 0.1356 0.0017 0.0816
O10_3 O 0.5132(2) 0.1381(2) 0.1476(2)
C20_3 C 0.5560(4) 0.0867(5) 0.1082(4)
H14_3 H 0.5484 0.1023 0.0548
N2_3 N 0.6138(3) 0.0095(3) 0.1308(3)
H17_3 H 0.6026 0.0214 0.2426
O11_3 O 0.4691(2) 0.3026(2) 0.02274(15)
H22_3 H 0.5096 0.2567 0.0001
O14_2 O 0.38246(19) 0.2381(2) 0.23585(14)
O1_3 O 0.0892(2) 0.9271(2) 0.72976(15)
O2_3 O 0.05748(18) 0.9584(2) 0.84720(15)
O8_2 O 0.35775(18) 0.6641(2) 0.70637(14)
C5_3 C 0.2290(3) 0.7196(3) 0.9399(2)
C9_3 C 0.1647(3) 0.7913(3) 0.9066(2)
H4_3 H 0.1182 0.8179 0.9358
C10_3 C 0.0996(3) 0.9077(3) 0.8000(2)
C11_3 C 0.3005(2) 0.7166(3) 0.8220(2)
C12_3 C 0.3736(2) 0.6750(3) 0.7766(2)
C13_3 C 0.2334(3) 0.7852(3) 0.7882(2)
H5_3 H 0.2331 0.8046 0.7359
C14_3 C 0.2995(3) 0.6855(3) 0.8970(2)
H6_3 H 0.3472 0.6404 0.9199
C15_3 C 0.1666(3) 0.8250(3) 0.8319(2)
C18_3 C 0.0825(11) 0.1824(16) 0.9966(13)
H9_3 H 0.0648 0.1411 0.9504
H10_3 H 0.0943 0.2535 0.9818
H21_3 H 0.4463 0.3628 0.9958
O1_4 O 0.4108(2) 0.4271(2) 0.77024(15)
O2_4 O 0.44252(18) 0.4584(2) 0.65280(15)
C1_4 C 0.2746(2) 0.1210(3) 0.32714(19)
H1_4 H 0.2727 0.1018 0.2746
C3_4 C 0.2225(3) 0.0665(3) 0.3753(2)
C4_4 C 0.2247(3) 0.0953(3) 0.4518(2)
H2_4 H 0.1915 0.0555 0.4854
C5_4 C 0.2710(3) 0.2196(3) 0.5601(2)
C6_4 C 0.3295(2) 0.2030(3) 0.3553(2)
C7_4 C 0.2748(3) 0.1818(3) 0.4800(2)
C8_4 C 0.3283(3) 0.2338(3) 0.4311(2)
H3_4 H 0.3647 0.2916 0.4499
C9_4 C 0.3353(3) 0.2913(3) 0.5934(2)
H4_4 H 0.3818 0.3179 0.5642
C10_4 C 0.4004(3) 0.4077(3) 0.7000(2)
C11_4 C 0.1995(2) 0.2166(3) 0.6780(2)
C12_4 C 0.1264(2) 0.1750(3) 0.7234(2)
C13_4 C 0.2666(3) 0.2852(3) 0.7118(2)
H5_4 H 0.2669 0.3046 0.7641
C14_4 C 0.2005(3) 0.1855(3) 0.6030(2)
H6_4 H 0.1528 0.1404 0.5801
C15_4 C 0.3334(3) 0.3250(3) 0.6681(2)
C16_4 C 0.3883(2) 0.2623(3) 0.3048(2)
O4_4 O 0.14449(19) 0.9078(2) 0.38591(14)
C2_4 C 0.1580(2) 0.9819(3) 0.3434(2)
O9_4 O 0.1830(3) 0.6825(3) 0.4151(2)
C17_4 C 0.2524(4) 0.6990(6) 0.4412(4)
H7_4 H 0.2623 0.7694 0.4543
N1_4 N 0.3298(3) 0.6387(4) 0.4594(3)
C18_4 C 0.4175(11) 0.6824(16) 0.5034(13)
H8_4 H 0.4689 0.6812 0.4710
H9_4 H 0.4352 0.6411 0.5496
H10_4 H 0.4057 0.7535 0.5182
C19_4 C 0.320(3) 0.528(2) 0.452(3)
H11_4 H 0.2554 0.5110 0.4302
H12_2 H 0.3333 0.4961 0.5030
H13_4 H 0.3644 0.5017 0.4184
O11_4 O 0.0309(2) 0.8026(2) 0.47726(15)
H21_4 H 0.0537 0.8628 0.5042
O10_4 O 0.9868(2) 0.6381(2) 0.3524(2)
C20_4 C 0.9440(4) 0.5867(5) 0.3918(4)
H14_4 H 0.9516 0.6023 0.4452
N2_4 N 0.8862(3) 0.5095(3) 0.3692(3)
C21_2 C 0.8667(5) 0.4753(5) 0.2910(4)
H15_2 H 0.7984 0.4759 0.2757
H16_2 H 0.8909 0.4053 0.2866
H17_4 H 0.8974 0.5214 0.2574
C22_2 C 0.8408(6) 0.4550(7) 0.4276(5)
H18_2 H 0.8674 0.4786 0.4788
H19_2 H 0.8517 0.3810 0.4231
H20_2 H 0.7729 0.4688 0.4201
H22_4 H 0.9904 0.7567 0.4999
H12_3 H 0.8333 0.0039 0.0030
C21_3 C 0.3667(5) 0.0247(5) 0.7910(4)
H15_3 H 0.2984 0.0241 0.7757
H16_3 H 0.3909 0.0947 0.7866
C22_3 C 0.3408(6) 0.0450(7) 0.9276(5)
H18_3 H 0.3674 0.0214 0.9788
H19_3 H 0.3517 0.1190 0.9231
H20_3 H 0.2729 0.0312 0.9201
C21_4 C 0.6333(5) 0.9753(5) 0.2090(4)
H15_4 H 0.7016 0.9759 0.2243
H16_4 H 0.6091 0.9053 0.2134
C22_4 C 0.6592(6) 0.9550(7) 0.0724(5)
H18_4 H 0.6326 0.9786 0.0212
H19_4 H 0.6483 0.8810 0.0769
H20_4 H 0.7271 0.9688 0.0799
H12_4 H 0.1667 0.9961 0.9970
loop_
_geom_bond_atom_site_label_1
_geom_bond_atom_site_label_2
_geom_bond_site_symmetry_1
_geom_bond_site_symmetry_2
O12 Co1 1_555 1_555
O13 Co1 1_555 1_555
O1 C10 1_555 1_555
O2 C10 1_555 1_555
O7 C12 1_555 1_555
O8 C12 1_555 1_555
C9 C5 1_555 1_555
H4 C9 1_555 1_555
C10 C15 1_555 1_555
C11 C12 1_555 1_555
C13 C11 1_555 1_555
H5 C13 1_555 1_555
C14 C5 1_555 1_555
H6 C14 1_555 1_555
C15 C9 1_555 1_555
H9 C18 1_555 1_555
H10 C18 1_555 1_555
Co5 O7 1_555 1_555
Co7 O7 1_555 1_555
O8 Co5 1_555 1_555
C11 C14 1_555 1_555
C13 C15 1_555 1_555
Co2 O4 1_555 1_555
O3 C2 1_555 1_555
O4 C2 1_555 1_555
O5 C16 1_555 1_555
O6 C16 1_555 1_555
C1 H1 1_555 1_555
C2 C3 1_555 1_555
C3 C1 1_555 1_555
C4 C3 1_555 1_555
H2 C4 1_555 1_555
C6 C1 1_555 1_555
C7 C4 1_555 1_555
C8 C6 1_555 1_555
H3 C8 1_555 1_555
C16 C6 1_555 1_555
O9 Co2 1_555 1_555
C17 O9 1_555 1_555
H7 C17 1_555 1_555
N1 C17 1_555 1_555
C19 N1 1_555 1_555
H11 C19 1_555 1_555
H13 C19 1_555 1_555
O10 Co2 1_555 1_555
C20 O10 1_555 1_555
H14 C20 1_555 1_555
N2 C20 1_555 1_555
O11 Co2 1_555 1_555
H22 O11 1_555 1_555
Co3 O3 1_555 1_555
Co4 O5 1_555 1_555
Co6 O6 1_555 1_555
O14 Co2 1_555 1_555
O16 Co2 1_555 1_555
C7 C8 1_555 1_555
Co3 O16 1_555 1_555
C20_2 O10_2 1_555 1_555
H14_2 C20_2 1_555 1_555
N2_2 C20_2 1_555 1_555
C21 N2_2 1_555 1_555
H15 C21 1_555 1_555
H16 C21 1_555 1_555
H17_2 C21 1_555 1_555
C22 N2_2 1_555 1_555
H18 C22 1_555 1_555
H19 C22 1_555 1_555
H20 C22 1_555 1_555
Co6 O4_2 1_555 1_555
O3_2 C2_2 1_555 1_555
O4_2 C2_2 1_555 1_555
O9_2 Co6 1_555 1_555
C17_2 O9_2 1_555 1_555
H7_2 C17_2 1_555 1_555
N1_2 C17_2 1_555 1_555
C18_2 N1_2 1_555 1_555
H8_2 C18_2 1_555 1_555
H9_2 C18_2 1_555 1_555
H10_2 C18_2 1_555 1_555
C19_2 N1_2 1_555 1_555
H11_2 C19_2 1_555 1_555
H12 C19_2 1_555 1_555
H13_2 C19_2 1_555 1_555
O11_2 Co6 1_555 1_555
H21_2 O11_2 1_555 1_555
Co4 O3_2 1_555 1_555
Co5 O2_2 1_555 1_555
O1_2 C10_2 1_555 1_555
O2_2 C10_2 1_555 1_555
O5_2 C16_2 1_555 1_555
O14 C16_2 1_555 1_555
O15 C12_2 1_555 1_555
O17 C12_2 1_555 1_555
C1_2 H1_2 1_555 1_555
C3_2 C1_2 1_555 1_555
C4_2 C3_2 1_555 1_555
H2_2 C4_2 1_555 1_555
C5_2 C7_2 1_555 1_555
C6_2 C1_2 1_555 1_555
C7_2 C4_2 1_555 1_555
C8_2 C6_2 1_555 1_555
H3_2 C8_2 1_555 1_555
C9_2 C5_2 1_555 1_555
H4_2 C9_2 1_555 1_555
C10_2 C15_2 1_555 1_555
C11_2 C12_2 1_555 1_555
C13_2 C11_2 1_555 1_555
H5_2 C13_2 1_555 1_555
C14_2 C5_2 1_555 1_555
H6_2 C14_2 1_555 1_555
C15_2 C9_2 1_555 1_555
C16_2 C6_2 1_555 1_555
Co3 O5_2 1_555 1_555
O12_2 Co5 1_555 1_555
O13_2 Co5 1_555 1_555
C7_2 C8_2 1_555 1_555
C11_2 C14_2 1_555 1_555
C13_2 C15_2 1_555 1_555
Co7 O4_3 1_555 1_555
O12_2 C2_3 1_555 1_555
O4_3 C2_3 1_555 1_555
O13 C16_3 1_555 1_555
O6_2 C16_3 1_555 1_555
C1_3 H1_3 1_555 1_555
C2_3 C3_3 1_555 1_555
C3_3 C1_3 1_555 1_555
C4_3 C3_3 1_555 1_555
H2_3 C4_3 1_555 1_555
C6_3 C1_3 1_555 1_555
C7_3 C4_3 1_555 1_555
C8_3 C6_3 1_555 1_555
H3_3 C8_3 1_555 1_555
C16_3 C6_3 1_555 1_555
O9_3 Co7 1_555 1_555
C17_3 O9_3 1_555 1_555
H7_3 C17_3 1_555 1_555
N1_3 C17_3 1_555 1_555
C19_3 N1_3 1_555 1_555
H11_3 C19_3 1_555 1_555
H13_3 C19_3 1_555 1_555
O10_3 Co7 1_555 1_555
C20_3 O10_3 1_555 1_555
H14_3 C20_3 1_555 1_555
N2_3 C20_3 1_555 1_555
O11_3 Co7 1_555 1_555
H22_3 O11_3 1_555 1_555
Co7_2 O6_2 1_555 1_555
O14_2 Co7 1_555 1_555
C7_3 C8_3 1_555 1_555
O1_3 C10_3 1_555 1_555
O2_3 C10_3 1_555 1_555
O16 C12_3 1_555 1_555
O8_2 C12_3 1_555 1_555
C9_3 C5_3 1_555 1_555
H4_3 C9_3 1_555 1_555
C10_3 C15_3 1_555 1_555
C11_3 C12_3 1_555 1_555
C13_3 C11_3 1_555 1_555
H5_3 C13_3 1_555 1_555
C14_3 C5_3 1_555 1_555
H6_3 C14_3 1_555 1_555
C15_3 C9_3 1_555 1_555
H9_3 C18_3 1_555 1_555
H10_3 C18_3 1_555 1_555
O8_2 Co3 1_555 1_555
C11_3 C14_3 1_555 1_555
C13_3 C15_3 1_555 1_555
Co3 O2_4 1_555 1_555
O1_4 C10_4 1_555 1_555
O2_4 C10_4 1_555 1_555
O13_2 C16_4 1_555 1_555
O14_2 C16_4 1_555 1_555
O16_2 C12_4 1_555 1_555
O17_2 C12_4 1_555 1_555
C1_4 H1_4 1_555 1_555
C3_4 C1_4 1_555 1_555
C4_4 C3_4 1_555 1_555
H2_4 C4_4 1_555 1_555
C5_4 C7_4 1_555 1_555
C6_4 C1_4 1_555 1_555
C7_4 C4_4 1_555 1_555
C8_4 C6_4 1_555 1_555
H3_4 C8_4 1_555 1_555
C9_4 C5_4 1_555 1_555
H4_4 C9_4 1_555 1_555
C10_4 C15_4 1_555 1_555
C11_4 C12_4 1_555 1_555
C13_4 C11_4 1_555 1_555
H5_4 C13_4 1_555 1_555
C14_4 C5_4 1_555 1_555
H6_4 C14_4 1_555 1_555
C15_4 C9_4 1_555 1_555
C16_4 C6_4 1_555 1_555
C7_4 C8_4 1_555 1_555
C11_4 C14_4 1_555 1_555
C13_4 C15_4 1_555 1_555
Co7_2 O4_4 1_555 1_555
O12 C2_4 1_555 1_555
O4_4 C2_4 1_555 1_555
O9_4 Co7_2 1_555 1_555
C17_4 O9_4 1_555 1_555
H7_4 C17_4 1_555 1_555
N1_4 C17_4 1_555 1_555
C18_4 N1_4 1_555 1_555
H8_4 C18_4 1_555 1_555
H9_4 C18_4 1_555 1_555
H10_4 C18_4 1_555 1_555
C19_4 N1_4 1_555 1_555
H11_4 C19_4 1_555 1_555
H12_2 C19_4 1_555 1_555
H13_4 C19_4 1_555 1_555
O11_4 Co7_2 1_555 1_555
H21_4 O11_4 1_555 1_555
C20_4 O10_4 1_555 1_555
H14_4 C20_4 1_555 1_555
N2_4 C20_4 1_555 1_555
C21_2 N2_4 1_555 1_555
H15_2 C21_2 1_555 1_555
H16_2 C21_2 1_555 1_555
H17_4 C21_2 1_555 1_555
C22_2 N2_4 1_555 1_555
H18_2 C22_2 1_555 1_555
H19_2 C22_2 1_555 1_555
H20_2 C22_2 1_555 1_555
H15_3 C21_3 1_555 1_555
H16_3 C21_3 1_555 1_555
H18_3 C22_3 1_555 1_555
H19_3 C22_3 1_555 1_555
H20_3 C22_3 1_555 1_555
H15_4 C21_4 1_555 1_555
H16_4 C21_4 1_555 1_555
H18_4 C22_4 1_555 1_555
H19_4 C22_4 1_555 1_555
H20_4 C22_4 1_555 1_555

#END
