
###############################################################################
#
# This file contains modified crystal structure data generated from the
# MOF subset of the Cambridge Structural Database (CSD) v543 
# hosted by the Cambridge Crystallographic Data Centre (CCDC).
#
# This work is licensed under the Creative Commons
# Attribution-NonCommercial-ShareAlike 4.0 International License.
# To view a copy of this license, visit
# http://creativecommons.org/licenses/by-nc-sa/4.0/
# or send a letter to
# Creative Commons, PO Box 1866, Mountain View, CA 94042, USA.
#
# CIF created using the CSD Python API on 29 September 2022
# The structure has been converted into the P1 space group
# The structure has a 3D framework
# The original CSD entry FEYQIK is in the triclinic crystal system
# The framework has been calculated to contain at least 10.0% void space
# The void calculation uses a probe of radius 1.32A, grid spacing 0.4
#
###############################################################################

data_FEYQIK
_chemical_formula_moiety         '(C18 H32 O16 Pr2)n'
_symmetry_cell_setting           triclinic
_symmetry_space_group_name_H-M   'P 1'
_symmetry_Int_Tables_number      1
_space_group_name_Hall           'P 1'
loop_
_symmetry_equiv_pos_site_id
_symmetry_equiv_pos_as_xyz
1 x,y,z
_cell_length_a                   8.6550(5)
_cell_length_b                   9.9366(6)
_cell_length_c                   11.7170(6)
_cell_angle_alpha                74.7100(10)
_cell_angle_beta                 69.7950(10)
_cell_angle_gamma                85.9590(10)
_cell_volume                     911.958
loop_
_atom_site_label
_atom_site_type_symbol
_atom_site_fract_x
_atom_site_fract_y
_atom_site_fract_z
O5 O 0.0994(3) 0.1164(3) 0.1812(2)
Pr3 Pr 0.25445(2) 0.022390(19) 0.988080(15)
O21 O 0.0681(3) 0.9647(2) 0.88908(19)
O20 O 0.9319(3) 0.0353(2) 0.11092(19)
O23 O 0.6243(4) 0.1973(3) 0.0879(3)
H27 H 0.0349 0.5225 0.1027
H31 H 0.644(7) 0.263(6) 0.044(5)
H32 H 0.538(6) 0.208(6) 0.132(5)
O2 O 0.4249(3) 0.1073(3) 0.75320(19)
O3 O 0.1375(3) 0.2470(2) 0.9017(2)
O4 O 0.3584(3) 0.2814(3) 0.9409(2)
C1 C 0.9554(4) 0.0844(3) 0.1932(3)
C2 C 0.8101(4) 0.1030(4) 0.3028(3)
H1 H 0.7344 0.0246 0.3279
H2 H 0.7542 0.1865 0.2746
C3 C 0.8450(4) 0.1147(4) 0.4171(3)
H3 H 0.9049 0.2016 0.3972
H4 H 0.9143 0.0386 0.4396
C4 C 0.6891(4) 0.1106(4) 0.5280(3)
H5 H 0.6258 0.0271 0.5429
H6 H 0.6238 0.1904 0.5066
C5 C 0.7171(4) 0.1118(4) 0.6488(3)
H7 H 0.7955 0.0405 0.6635
H8 H 0.7662 0.2013 0.6376
C7 C 0.2378(4) 0.3285(4) 0.9072(3)
C8 C 0.2106(5) 0.4834(4) 0.8726(4)
H9 H 0.2451 0.5167 0.7817
H10 H 0.2791 0.5304 0.9012
C9 C 0.0328(5) 0.5216(4) 0.9287(4)
H12 H 0.0233 0.6218 0.9006
O9 O 0.5777(3) 0.0448(2) 0.87212(18)
O24 O 0.8716(3) 0.2019(3) 0.8474(3)
C15 C 0.5644(4) 0.0873(3) 0.7633(3)
H29 H 0.967(6) 0.226(5) 0.850(4)
H30 H 0.832(7) 0.264(6) 0.832(5)
O1 O 0.4223(3) 0.9552(2) 0.12788(18)
O8 O 0.1284(3) 0.7981(3) 0.1526(3)
C6 C 0.4356(4) 0.9127(3) 0.2367(3)
H13 H 0.033(6) 0.774(5) 0.150(4)
H14 H 0.168(7) 0.736(6) 0.168(5)
Pr2 Pr 0.74555(2) 0.977610(19) 0.011920(15)
O10 O 0.5751(3) 0.8927(3) 0.24680(19)
O11 O 0.8625(3) 0.7530(2) 0.0983(2)
O13 O 0.6416(3) 0.7186(3) 0.0591(2)
C10 C 0.0446(4) 0.9156(3) 0.8068(3)
C11 C 0.1899(4) 0.8970(4) 0.6972(3)
H17 H 0.2656 0.9754 0.6721
H18 H 0.2458 0.8135 0.7254
C12 C 0.1550(4) 0.8853(4) 0.5829(3)
H19 H 0.0951 0.7984 0.6028
H20 H 0.0857 0.9614 0.5604
C13 C 0.3109(4) 0.8894(4) 0.4720(3)
H21 H 0.3742 0.9729 0.4571
H22 H 0.3762 0.8096 0.4934
C14 C 0.2829(4) 0.8882(4) 0.3512(3)
H23 H 0.2045 0.9595 0.3365
H24 H 0.2338 0.7987 0.3624
O7 O 0.3757(4) 0.8027(3) 0.9121(3)
H15 H 0.356(7) 0.737(6) 0.956(5)
H16 H 0.462(6) 0.792(6) 0.868(5)
O16 O 0.9006(3) 0.8836(3) 0.8188(2)
C16 C 0.7622(4) 0.6715(4) 0.0928(3)
C17 C 0.7894(5) 0.5166(4) 0.1274(4)
H25 H 0.7549 0.4833 0.2183
H26 H 0.7209 0.4696 0.0988
C18 C 0.9672(5) 0.4784(4) 0.0713(4)
H28 H 0.9767 0.3782 0.0994
H11 H 0.9651 0.4775 0.8973
loop_
_geom_bond_atom_site_label_1
_geom_bond_atom_site_label_2
_geom_bond_site_symmetry_1
_geom_bond_site_symmetry_2
H31 O23 1_555 1_555
H32 O23 1_555 1_555
O2 Pr3 1_555 1_555
O3 Pr3 1_555 1_555
O4 Pr3 1_555 1_555
O20 C1 1_555 1_555
C1 C2 1_555 1_555
C2 H1 1_555 1_555
H2 C2 1_555 1_555
C3 C2 1_555 1_555
H3 C3 1_555 1_555
H4 C3 1_555 1_555
C4 C3 1_555 1_555
H5 C4 1_555 1_555
H6 C4 1_555 1_555
C5 C4 1_555 1_555
H7 C5 1_555 1_555
H8 C5 1_555 1_555
C7 O3 1_555 1_555
C8 C7 1_555 1_555
H9 C8 1_555 1_555
H10 C8 1_555 1_555
C9 C8 1_555 1_555
H12 C9 1_555 1_555
O9 Pr3 1_555 1_555
C15 O2 1_555 1_555
H29 O24 1_555 1_555
H30 O24 1_555 1_555
O4 C7 1_555 1_555
C5 C15 1_555 1_555
O9 C15 1_555 1_555
O1 C6 1_555 1_555
C6 O10 1_555 1_555
H13 O8 1_555 1_555
H14 O8 1_555 1_555
Pr2 O1 1_555 1_555
O10 Pr2 1_555 1_555
O11 Pr2 1_555 1_555
O13 Pr2 1_555 1_555
C10 O21 1_555 1_555
C11 C10 1_555 1_555
H17 C11 1_555 1_555
H18 C11 1_555 1_555
C12 C11 1_555 1_555
H19 C12 1_555 1_555
H20 C12 1_555 1_555
C13 C12 1_555 1_555
H21 C13 1_555 1_555
H22 C13 1_555 1_555
C14 C6 1_555 1_555
H23 C14 1_555 1_555
H24 C14 1_555 1_555
C13 C14 1_555 1_555
H15 O7 1_555 1_555
H16 O7 1_555 1_555
O11 C16 1_555 1_555
C16 O13 1_555 1_555
C17 C16 1_555 1_555
H25 C17 1_555 1_555
H26 C17 1_555 1_555
H28 C18 1_555 1_555
C17 C18 1_555 1_555

#END
