
###############################################################################
#
# This file contains modified crystal structure data generated from the
# MOF subset of the Cambridge Structural Database (CSD) v543 
# hosted by the Cambridge Crystallographic Data Centre (CCDC).
#
# This work is licensed under the Creative Commons
# Attribution-NonCommercial-ShareAlike 4.0 International License.
# To view a copy of this license, visit
# http://creativecommons.org/licenses/by-nc-sa/4.0/
# or send a letter to
# Creative Commons, PO Box 1866, Mountain View, CA 94042, USA.
#
# CIF created using the CSD Python API on 29 September 2022
# The structure has been converted into the P1 space group
# The structure has a 3D framework
# The original CSD entry FEZQEI is in the hexagonal crystal system
# The original CSD entry FEZQEI is in a Sohncke space group
# The framework has been calculated to contain at least 10.0% void space
# The void calculation uses a probe of radius 1.32A, grid spacing 0.4
#
###############################################################################

data_FEZQEI
_chemical_formula_moiety         '(C132 H156 Ce7 F22 N22 O44 P12 3-)n'
_symmetry_cell_setting           triclinic
_symmetry_space_group_name_H-M   'P 1'
_symmetry_Int_Tables_number      1
_space_group_name_Hall           'P 1'
loop_
_symmetry_equiv_pos_site_id
_symmetry_equiv_pos_as_xyz
1 x,y,z
_cell_length_a                   15.9742(3)
_cell_length_b                   15.9742(3)
_cell_length_c                   19.4383(6)
_cell_angle_alpha                90
_cell_angle_beta                 90
_cell_angle_gamma                120
_cell_volume                     4295.63
loop_
_atom_site_label
_atom_site_type_symbol
_atom_site_fract_x
_atom_site_fract_y
_atom_site_fract_z
C1 C 0.1726(4) 0.4274(4) 0.3214(3)
C2 C 0.1238(5) 0.3574(5) 0.2705(3)
C3 C 0.1633(6) 0.3063(5) 0.2422(4)
H1 H 0.1312 0.2621 0.2071
C4 C 0.2523(7) 0.3214(6) 0.2666(5)
H2 H 0.2787 0.2865 0.2472
C5 C 0.2999(6) 0.3836(6) 0.3164(4)
H3 H 0.3581 0.3908 0.3321
C6 C 0.2625(4) 0.4398(4) 0.3463(3)
C7 C 0.3172(4) 0.5112(4) 0.3968(2)
H4 H 0.3751 0.5162 0.4113
C8 C 0.3539(4) 0.6509(4) 0.4674(2)
H5 H 0.4097 0.6455 0.4820
C9 C 0.3898(5) 0.7436(4) 0.4270(3)
H6 H 0.4302 0.7438 0.3897
H7 H 0.3346 0.7442 0.4068
C10 C 0.4465(6) 0.8343(5) 0.4685(4)
H8 H 0.4623 0.8901 0.4399
H9 H 0.5065 0.8390 0.4837
H10 H 0.0194 0.2687 0.1707
Ce1 Ce 0.0000 0.5000 0.3333
N1 N 0.2927(4) 0.5685(4) 0.4236(2)
N2 N -0.0000 0.5000 0.4927(3)
O1 O 0.1410(2) 0.4823(3) 0.34262(19)
O2 O 0.0370(3) 0.3489(3) 0.2531(2)
O4 O -0.0000 0.5000 0.5559(3)
H13 H 0.245(4) 0.556(4) 0.415(3)
C12 C 0.2548(6) 0.4274(4) 0.6786(3)
C13 C 0.2336(7) 0.3574(5) 0.7295(3)
C14 C 0.1430(8) 0.3063(5) 0.7578(4)
H14 H 0.1309 0.2621 0.7929
C15 C 0.0691(9) 0.3214(6) 0.7334(5)
H15 H 0.0078 0.2865 0.7528
C16 C 0.0837(8) 0.3836(6) 0.6836(4)
H16 H 0.0327 0.3908 0.6679
C17 C 0.1773(6) 0.4398(4) 0.6537(3)
C18 C 0.1940(6) 0.5112(4) 0.6032(2)
H17 H 0.1411 0.5162 0.5887
C19 C 0.2970(6) 0.6509(4) 0.5326(2)
H18 H 0.2358 0.6455 0.5180
C20 C 0.3538(6) 0.7436(4) 0.5730(3)
H19 H 0.3136 0.7438 0.6103
H20 H 0.4096 0.7442 0.5932
C21 C 0.3878(8) 0.8343(5) 0.5315(4)
H21 H 0.4278 0.8901 0.5601
H22 H 0.3325 0.8390 0.5163
C22 C 0.2968(8) 0.2752(6) 0.7962(5)
H23 H 0.2493 0.2687 0.8293
H24 H 0.3566 0.2930 0.8193
H25 H 0.2746 0.2148 0.7728
N3 N 0.2758(6) 0.5685(4) 0.5764(2)
O5 O 0.3413(4) 0.4823(3) 0.65738(19)
O6 O 0.3119(4) 0.3489(3) 0.7469(2)
H26 H 0.311(6) 0.556(4) 0.585(3)
O7 O 0.0765(3) 0.5300(4) 0.4600(2)
C33 C 0.0216(6) 0.7248(6) 0.2038(5)
H37 H 0.0636 0.7070 0.1807
H38 H 0.0598 0.7852 0.2272
N6 N -0.0000 0.5000 0.1740(3)
O13 O -0.0000 0.5000 0.1108(3)
O14 O 0.0765(3) 0.5465(5) 0.2067(2)
Ce3 Ce 0.5000 0.5000 0.6666
O15 O 0.1410(2) 0.6587(4) 0.32405(19)
C11 C 0.9784(6) 0.2752(6) 0.2038(5)
H11 H 0.9364 0.2930 0.1807
H12 H 0.9402 0.2148 0.2272
Ce1_2 Ce 1.0000 0.5000 0.3333
N2_2 N 1.0000 0.5000 0.4927(3)
O3 O 0.9235(3) 0.4700(4) 0.4600(2)
O4_2 O 1.0000 0.5000 0.5559(3)
C23 C 0.8274(4) 0.5726(4) 0.3214(3)
C24 C 0.8762(5) 0.6426(5) 0.2705(3)
C25 C 0.8367(6) 0.6937(5) 0.2422(4)
H27 H 0.8688 0.7379 0.2071
C26 C 0.7477(7) 0.6786(6) 0.2666(5)
H28 H 0.7213 0.7135 0.2472
C27 C 0.7001(6) 0.6164(6) 0.3164(4)
H29 H 0.6419 0.6092 0.3321
C28 C 0.7375(4) 0.5602(4) 0.3463(3)
C29 C 0.6828(4) 0.4888(4) 0.3968(2)
H30 H 0.6249 0.4838 0.4113
C30 C 0.6461(4) 0.3491(4) 0.4674(2)
H31 H 0.5903 0.3545 0.4820
C31 C 0.6102(5) 0.2564(4) 0.4270(3)
H32 H 0.5698 0.2562 0.3897
H33 H 0.6654 0.2558 0.4068
C32 C 0.5535(6) 0.1657(5) 0.4685(4)
H34 H 0.5377 0.1099 0.4399
H35 H 0.4935 0.1610 0.4837
H36 H 0.9806 0.7313 0.1707
N4 N 0.7073(4) 0.4315(4) 0.4236(2)
O8 O 0.8590(2) 0.5177(3) 0.34262(19)
O9 O 0.9630(3) 0.6511(3) 0.2531(2)
H39 H 0.755(4) 0.444(4) 0.415(3)
C34 C 0.7452(6) 0.5726(4) 0.6786(3)
C35 C 0.7664(7) 0.6426(5) 0.7295(3)
C36 C 0.8570(8) 0.6937(5) 0.7578(4)
H40 H 0.8691 0.7379 0.7929
C37 C 0.9309(9) 0.6786(6) 0.7334(5)
H41 H 0.9922 0.7135 0.7528
C38 C 0.9163(8) 0.6164(6) 0.6836(4)
H42 H 0.9673 0.6092 0.6679
C39 C 0.8227(6) 0.5602(4) 0.6537(3)
C40 C 0.8060(6) 0.4888(4) 0.6032(2)
H43 H 0.8589 0.4838 0.5887
C41 C 0.7030(6) 0.3491(4) 0.5326(2)
H44 H 0.7642 0.3545 0.5180
C42 C 0.6462(6) 0.2564(4) 0.5730(3)
H45 H 0.6864 0.2562 0.6103
H46 H 0.5904 0.2558 0.5932
C43 C 0.6122(8) 0.1657(5) 0.5315(4)
H47 H 0.5722 0.1099 0.5601
H48 H 0.6675 0.1610 0.5163
C44 C 0.7032(8) 0.7248(6) 0.7962(5)
H49 H 0.7507 0.7313 0.8293
H50 H 0.6434 0.7070 0.8193
H51 H 0.7254 0.7852 0.7728
N5 N 0.7242(6) 0.4315(4) 0.5764(2)
O10 O 0.6587(4) 0.5177(3) 0.65738(19)
O11 O 0.6881(4) 0.6511(3) 0.7469(2)
H52 H 0.689(6) 0.444(4) 0.585(3)
N6_2 N 1.0000 0.5000 0.1740(3)
O12 O 0.9235(3) 0.4535(5) 0.2067(2)
O13_2 O 1.0000 0.5000 0.1108(3)
O16 O 0.8590(2) 0.3413(4) 0.32405(19)
C22_2 C 0.0216(10) 0.2968(8) 0.4629(5)
H24_2 H 0.0636 0.3566 0.4860
H25_2 H 0.0598 0.2746 0.4395
C6_2 C 0.8227(6) 0.2625(4) 0.0130(3)
C7_2 C 0.8060(6) 0.3172(4) 0.0635(2)
H4_2 H 0.8589 0.3751 0.0780
C8_2 C 0.7030(6) 0.3539(4) 0.1341(2)
H5_2 H 0.7642 0.4097 0.1487
C9_2 C 0.6462(6) 0.3898(5) 0.0937(3)
H6_2 H 0.6864 0.4302 0.0564
H7_2 H 0.5904 0.3346 0.0735
C10_2 C 0.6122(8) 0.4465(6) 0.1352(4)
H8_2 H 0.5722 0.4623 0.1066
H9_2 H 0.6675 0.5065 0.1504
Ce1_3 Ce 0.5000 0.0000 -0.0000
N1_2 N 0.7242(6) 0.2927(4) 0.0903(2)
N2_3 N 0.5000 -0.0000 0.1594(3)
O1_2 O 0.6587(4) 0.1410(2) 0.00929(19)
O4_3 O 0.5000 -0.0000 0.2226(3)
H13_2 H 0.689(6) 0.245(4) 0.082(3)
C12_2 C 0.8274(7) 0.2548(6) 0.3453(3)
C13_2 C 0.8762(9) 0.2336(7) 0.3962(3)
C14_2 C 0.8367(9) 0.1430(8) 0.4245(4)
H14_2 H 0.8688 0.1309 0.4596
C15_2 C 0.7477(11) 0.0691(9) 0.4001(5)
H15_2 H 0.7213 0.0078 0.4195
C16_2 C 0.7001(10) 0.0837(8) 0.3503(4)
H16_2 H 0.6419 0.0327 0.3346
C17_2 C 0.7375(7) 0.1773(6) 0.3204(3)
C18_2 C 0.6828(7) 0.1940(6) 0.2699(2)
H17_2 H 0.6249 0.1411 0.2554
C19_2 C 0.6461(7) 0.2970(6) 0.1993(2)
H18_2 H 0.5903 0.2358 0.1847
C20_2 C 0.6102(7) 0.3538(6) 0.2397(3)
H19_2 H 0.5698 0.3136 0.2770
H20_2 H 0.6654 0.4096 0.2599
C21_2 C 0.5535(9) 0.3878(8) 0.1982(4)
H21_2 H 0.5377 0.4278 0.2268
H22_2 H 0.4935 0.3325 0.1830
H23_2 H 0.9806 0.2493 0.4960
N3_2 N 0.7073(7) 0.2758(6) 0.2431(2)
O6_2 O 0.9630(5) 0.3119(4) 0.4136(2)
H26_2 H 0.755(7) 0.311(6) 0.252(3)
O7_2 O 0.5465(5) 0.0765(3) 0.1267(2)
C1_2 C 0.7452(6) 0.1726(4) 0.9881(3)
C2_2 C 0.7664(7) 0.1238(5) 0.9372(3)
C3_2 C 0.8570(8) 0.1633(6) 0.9089(4)
H1_2 H 0.8691 0.1312 0.8738
C4_2 C 0.9309(9) 0.2523(7) 0.9333(5)
H2_2 H 0.9922 0.2787 0.9139
C5_2 C 0.9163(8) 0.2999(6) 0.9831(4)
H3_2 H 0.9673 0.3581 0.9988
H10_2 H 0.7507 0.0194 0.8374
Ce1_4 Ce 0.5000 0.0000 1.0000
O2_2 O 0.6881(4) 0.0370(3) 0.9198(2)
C33_2 C 0.2968(8) 0.0216(6) 0.8705(5)
H37_2 H 0.3566 0.0636 0.8474
H38_2 H 0.2746 0.0598 0.8939
N6_3 N 0.5000 -0.0000 0.8406(3)
O13_3 O 0.5000 -0.0000 0.7774(3)
O14_2 O 0.5300(6) 0.0765(3) 0.8733(2)
O15_2 O 0.4823(4) 0.1410(2) 0.99071(19)
Ce1_5 Ce 0.5000 1.0000 -0.0000
N2_4 N 0.5000 1.0000 0.1594(3)
O3_2 O 0.4535(5) 0.9235(3) 0.1267(2)
O4_4 O 0.5000 1.0000 0.2226(3)
C28_2 C 0.1773(6) 0.7375(4) 0.0130(3)
C29_2 C 0.1940(6) 0.6828(4) 0.0635(2)
H30_2 H 0.1411 0.6249 0.0780
C30_2 C 0.2970(6) 0.6461(4) 0.1341(2)
H31_2 H 0.2358 0.5903 0.1487
C31_2 C 0.3538(6) 0.6102(5) 0.0937(3)
H32_2 H 0.3136 0.5698 0.0564
H33_2 H 0.4096 0.6654 0.0735
C32_2 C 0.3878(8) 0.5535(6) 0.1352(4)
H34_2 H 0.4278 0.5377 0.1066
H35_2 H 0.3325 0.4935 0.1504
N4_2 N 0.2758(6) 0.7073(4) 0.0903(2)
O8_2 O 0.3413(4) 0.8590(2) 0.00929(19)
H39_2 H 0.311(6) 0.755(4) 0.082(3)
C34_2 C 0.1726(7) 0.7452(6) 0.3453(3)
C35_2 C 0.1238(9) 0.7664(7) 0.3962(3)
C36_2 C 0.1633(9) 0.8570(8) 0.4245(4)
H40_2 H 0.1312 0.8691 0.4596
C37_2 C 0.2523(11) 0.9309(9) 0.4001(5)
H41_2 H 0.2787 0.9922 0.4195
C38_2 C 0.2999(10) 0.9163(8) 0.3503(4)
H42_2 H 0.3581 0.9673 0.3346
C39_2 C 0.2625(7) 0.8227(6) 0.3204(3)
C40_2 C 0.3172(7) 0.8060(6) 0.2699(2)
H43_2 H 0.3751 0.8589 0.2554
C41_2 C 0.3539(7) 0.7030(6) 0.1993(2)
H44_2 H 0.4097 0.7642 0.1847
C42_2 C 0.3898(7) 0.6462(6) 0.2397(3)
H45_2 H 0.4302 0.6864 0.2770
H46_2 H 0.3346 0.5904 0.2599
C43_2 C 0.4465(9) 0.6122(8) 0.1982(4)
H47_2 H 0.4623 0.5722 0.2268
H48_2 H 0.5065 0.6675 0.1830
H49_2 H 0.0194 0.7507 0.4960
N5_2 N 0.2927(7) 0.7242(6) 0.2431(2)
O11_2 O 0.0370(5) 0.6881(4) 0.4136(2)
H52_2 H 0.245(7) 0.689(6) 0.252(3)
C11_2 C 0.7032(8) 0.9784(6) 0.8705(5)
H11_2 H 0.6434 0.9364 0.8474
H12_2 H 0.7254 0.9402 0.8939
Ce1_6 Ce 0.5000 1.0000 1.0000
C23_2 C 0.2548(6) 0.8274(4) 0.9881(3)
C24_2 C 0.2336(7) 0.8762(5) 0.9372(3)
C25_2 C 0.1430(8) 0.8367(6) 0.9089(4)
H27_2 H 0.1309 0.8688 0.8738
C26_2 C 0.0691(9) 0.7477(7) 0.9333(5)
H28_2 H 0.0078 0.7213 0.9139
C27_2 C 0.0837(8) 0.7001(6) 0.9831(4)
H29_2 H 0.0327 0.6419 0.9988
H36_2 H 0.2493 0.9806 0.8374
O9_2 O 0.3119(4) 0.9630(3) 0.9198(2)
N6_4 N 0.5000 1.0000 0.8406(3)
O12_2 O 0.4700(6) 0.9235(3) 0.8733(2)
O13_4 O 0.5000 1.0000 0.7774(3)
O16_2 O 0.5177(4) 0.8590(2) 0.99071(19)
C44_2 C 0.9784(10) 0.7032(8) 0.4629(5)
H50_2 H 0.9364 0.6434 0.4860
H51_2 H 0.9402 0.7254 0.4395
C22_3 C 0.7248(6) 0.0216(10) 0.1295(5)
H24_3 H 0.7070 0.0636 0.1526
H25_3 H 0.7852 0.0598 0.1061
C12_3 C 0.5726(4) 0.8274(7) 0.0119(3)
C13_3 C 0.6426(5) 0.8762(9) 0.0628(3)
C14_3 C 0.6937(5) 0.8367(9) 0.0911(4)
H14_3 H 0.7379 0.8688 0.1262
C15_3 C 0.6786(6) 0.7477(11) 0.0667(5)
H15_3 H 0.7135 0.7213 0.0861
C16_3 C 0.6164(6) 0.7001(10) 0.0169(4)
H16_3 H 0.6092 0.6419 0.0012
H23_3 H 0.7313 0.9806 0.1626
O6_3 O 0.6511(3) 0.9630(5) 0.0802(2)
C34_3 C 0.4274(4) 0.1726(7) 0.0119(3)
C35_3 C 0.3574(5) 0.1238(9) 0.0628(3)
C36_3 C 0.3063(5) 0.1633(9) 0.0911(4)
H40_3 H 0.2621 0.1312 0.1262
C37_3 C 0.3214(6) 0.2523(11) 0.0667(5)
H41_3 H 0.2865 0.2787 0.0861
C38_3 C 0.3836(6) 0.2999(10) 0.0169(4)
H42_3 H 0.3908 0.3581 0.0012
H49_3 H 0.2687 0.0194 0.1626
O11_3 O 0.3489(3) 0.0370(5) 0.0802(2)
C1_3 C 0.5726(4) 0.7452(6) 0.6547(3)
C2_3 C 0.6426(5) 0.7664(7) 0.6038(3)
C3_3 C 0.6937(5) 0.8570(8) 0.5755(4)
H1_3 H 0.7379 0.8691 0.5404
C4_3 C 0.6786(6) 0.9309(9) 0.5999(5)
H2_3 H 0.7135 0.9922 0.5805
C5_3 C 0.6164(6) 0.9163(8) 0.6497(4)
H3_3 H 0.6092 0.9673 0.6654
C6_3 C 0.5602(4) 0.8227(6) 0.6796(3)
C7_3 C 0.4888(4) 0.8060(6) 0.7301(2)
H4_3 H 0.4838 0.8589 0.7446
C8_3 C 0.3491(4) 0.7030(6) 0.8007(2)
H5_3 H 0.3545 0.7642 0.8153
C9_3 C 0.2564(4) 0.6462(6) 0.7603(3)
H6_3 H 0.2562 0.6864 0.7230
H7_3 H 0.2558 0.5904 0.7401
C10_3 C 0.1657(5) 0.6122(8) 0.8018(4)
H8_3 H 0.1099 0.5722 0.7732
H9_3 H 0.1610 0.6675 0.8170
C11_3 C 0.7248(6) 0.7032(8) 0.5371(5)
H10_3 H 0.7313 0.7507 0.5040
H11_3 H 0.7070 0.6434 0.5140
H12_3 H 0.7852 0.7254 0.5605
N1_3 N 0.4315(4) 0.7242(6) 0.7569(2)
N2_5 N 0.5000 0.5000 0.8260(3)
O1_3 O 0.5177(3) 0.6587(4) 0.67595(19)
O2_3 O 0.6511(3) 0.6881(4) 0.5864(2)
O3_3 O 0.5300(4) 0.4535(5) 0.7933(2)
O4_5 O 0.5000 0.5000 0.8892(3)
H13_3 H 0.444(4) 0.689(6) 0.748(3)
C17_3 C 0.5602(4) 0.7375(7) 0.9870(3)
C18_3 C 0.4888(4) 0.6828(7) 0.9365(2)
H17_3 H 0.4838 0.6249 0.9220
C19_3 C 0.3491(4) 0.6461(7) 0.8659(2)
H18_3 H 0.3545 0.5903 0.8513
C20_3 C 0.2564(4) 0.6102(7) 0.9063(3)
H19_3 H 0.2562 0.5698 0.9436
H20_3 H 0.2558 0.6654 0.9265
C21_3 C 0.1657(5) 0.5535(9) 0.8648(4)
H21_3 H 0.1099 0.5377 0.8934
H22_3 H 0.1610 0.4935 0.8496
N3_3 N 0.4315(4) 0.7073(7) 0.9097(2)
H26_3 H 0.444(4) 0.755(7) 0.918(3)
O7_3 O 0.4700(4) 0.5465(5) 0.7933(2)
C23_3 C 0.4274(4) 0.2548(6) 0.6547(3)
C24_3 C 0.3574(5) 0.2336(7) 0.6038(3)
C25_3 C 0.3063(5) 0.1430(8) 0.5755(4)
H27_3 H 0.2621 0.1309 0.5404
C26_3 C 0.3214(6) 0.0691(9) 0.5999(5)
H28_3 H 0.2865 0.0078 0.5805
C27_3 C 0.3836(6) 0.0837(8) 0.6497(4)
H29_3 H 0.3908 0.0327 0.6654
C28_3 C 0.4398(4) 0.1773(6) 0.6796(3)
C29_3 C 0.5112(4) 0.1940(6) 0.7301(2)
H30_3 H 0.5162 0.1411 0.7446
C30_3 C 0.6509(4) 0.2970(6) 0.8007(2)
H31_3 H 0.6455 0.2358 0.8153
C31_3 C 0.7436(4) 0.3538(6) 0.7603(3)
H32_3 H 0.7438 0.3136 0.7230
H33_3 H 0.7442 0.4096 0.7401
C32_3 C 0.8343(5) 0.3878(8) 0.8018(4)
H34_3 H 0.8901 0.4278 0.7732
H35_3 H 0.8390 0.3325 0.8170
C33_3 C 0.2752(6) 0.2968(8) 0.5371(5)
H36_3 H 0.2687 0.2493 0.5040
H37_3 H 0.2930 0.3566 0.5140
H38_3 H 0.2148 0.2746 0.5605
N4_3 N 0.5685(4) 0.2758(6) 0.7569(2)
O8_3 O 0.4823(3) 0.3413(4) 0.67595(19)
O9_3 O 0.3489(3) 0.3119(4) 0.5864(2)
H39_3 H 0.556(4) 0.311(6) 0.748(3)
C39_3 C 0.4398(4) 0.2625(7) 0.9870(3)
C40_3 C 0.5112(4) 0.3172(7) 0.9365(2)
H43_3 H 0.5162 0.3751 0.9220
C41_3 C 0.6509(4) 0.3539(7) 0.8659(2)
H44_3 H 0.6455 0.4097 0.8513
C42_3 C 0.7436(4) 0.3898(7) 0.9063(3)
H45_3 H 0.7438 0.4302 0.9436
H46_3 H 0.7442 0.3346 0.9265
C43_3 C 0.8343(5) 0.4465(9) 0.8648(4)
H47_3 H 0.8901 0.4623 0.8934
H48_3 H 0.8390 0.5065 0.8496
N5_3 N 0.5685(4) 0.2927(7) 0.9097(2)
H52_3 H 0.556(4) 0.245(7) 0.918(3)
N6_5 N 0.5000 0.5000 0.5073(3)
O12_3 O 0.5465(5) 0.4700(6) 0.5400(2)
O13_5 O 0.5000 0.5000 0.4441(3)
O14_3 O 0.4535(5) 0.5300(6) 0.5400(2)
C44_3 C 0.2752(6) 0.9784(10) 0.1295(5)
H50_3 H 0.2930 0.9364 0.1526
H51_3 H 0.2148 0.9402 0.1061
F1 F 0.0974(6) 0.0974(6) 0.1667
P1 P -0.0000 -0.0000 0.1667
F2 F 0.051(2) 0.972(3) 0.107(3)
P1_2 P -0.0000 1.0000 0.1667
F5 F 0.028(3) 0.949(2) 0.226(3)
P1_3 P 1.0000 -0.0000 0.1667
F4 F 0.949(2) 0.028(3) 0.107(3)
F6 F 0.972(3) 0.051(2) 0.226(3)
P1_4 P 1.0000 1.0000 0.1667
F3 F 0.9026(6) 0.9026(6) 0.1667
F1_2 F 0.0000(8) 0.0974(6) 0.8334
F2_2 F 0.079(4) 0.051(2) 0.774(3)
P1_5 P 0.0000 0.0000 0.8334
F5_2 F 0.079(4) 0.028(3) 0.893(3)
P1_6 P -0.0000 1.0000 0.8334
F3_2 F -0.0000(8) 0.9026(6) 0.8334
F1_3 F 1.0000(8) 0.0974(6) 0.8334
P1_7 P 1.0000 0.0000 0.8334
P1_8 P 1.0000 1.0000 0.8334
F3_3 F 1.0000(8) 0.9026(6) 0.8334
F4_2 F 0.921(4) 0.949(2) 0.774(3)
F6_2 F 0.921(4) 0.972(3) 0.893(3)
F2_3 F 0.028(3) 0.079(4) 0.440(3)
P1_9 P -0.0000 -0.0000 0.5000
F3_4 F 0.0974(6) -0.0000(8) 0.5000
F5_3 F 0.051(2) 0.079(4) 0.560(3)
P1_10 P 0.0000 1.0000 0.5000
F3_5 F 0.0974(6) 1.0000(8) 0.5000
F1_4 F 0.9026(6) 0.0000(8) 0.5000
P1_11 P 1.0000 -0.0000 0.5000
F1_5 F 0.9026(6) 1.0000(8) 0.5000
P1_12 P 1.0000 1.0000 0.5000
F4_3 F 0.972(3) 0.921(4) 0.440(3)
F6_3 F 0.949(2) 0.921(4) 0.560(3)
loop_
_geom_bond_atom_site_label_1
_geom_bond_atom_site_label_2
_geom_bond_site_symmetry_1
_geom_bond_site_symmetry_2
C1 C2 1_555 1_555
C2 C3 1_555 1_555
C3 H1 1_555 1_555
C4 C3 1_555 1_555
H2 C4 1_555 1_555
C5 C4 1_555 1_555
H3 C5 1_555 1_555
C6 C1 1_555 1_555
C7 C6 1_555 1_555
H4 C7 1_555 1_555
C8 H5 1_555 1_555
C9 C8 1_555 1_555
H6 C9 1_555 1_555
H7 C9 1_555 1_555
C10 C9 1_555 1_555
H8 C10 1_555 1_555
H9 C10 1_555 1_555
Ce1 O1 1_555 1_555
N1 C7 1_555 1_555
O1 C1 1_555 1_555
O2 C2 1_555 1_555
O4 N2 1_555 1_555
H13 N1 1_555 1_555
C12 C13 1_555 1_555
C13 C14 1_555 1_555
C14 H14 1_555 1_555
C15 C14 1_555 1_555
H15 C15 1_555 1_555
C16 C15 1_555 1_555
H16 C16 1_555 1_555
C17 C12 1_555 1_555
C18 C17 1_555 1_555
H17 C18 1_555 1_555
C19 C8 1_555 1_555
H18 C19 1_555 1_555
C20 C19 1_555 1_555
H19 C20 1_555 1_555
H20 C20 1_555 1_555
C21 C10 1_555 1_555
H21 C21 1_555 1_555
H22 C21 1_555 1_555
C22 H23 1_555 1_555
H24 C22 1_555 1_555
H25 C22 1_555 1_555
N3 C18 1_555 1_555
O5 C12 1_555 1_555
O6 C13 1_555 1_555
H26 N3 1_555 1_555
O7 Ce1 1_555 1_555
H37 C33 1_555 1_555
H38 C33 1_555 1_555
O13 N6 1_555 1_555
O14 Ce1 1_555 1_555
Ce3 O5 1_555 1_555
O15 Ce1 1_555 1_555
C5 C6 1_555 1_555
C8 N1 1_555 1_555
N2 O7 1_555 1_555
C16 C17 1_555 1_555
C19 N3 1_555 1_555
C20 C21 1_555 1_555
C22 O6 1_555 1_555
N6 O14 1_555 1_555
H11 C11 1_555 1_555
H12 C11 1_555 1_555
N2_2 O3 1_555 1_555
O3 Ce1_2 1_555 1_555
O4_2 N2_2 1_555 1_555
C23 C24 1_555 1_555
C24 C25 1_555 1_555
C25 H27 1_555 1_555
C26 C25 1_555 1_555
H28 C26 1_555 1_555
C27 C26 1_555 1_555
H29 C27 1_555 1_555
C28 C23 1_555 1_555
C29 C28 1_555 1_555
H30 C29 1_555 1_555
C30 H31 1_555 1_555
C31 C30 1_555 1_555
H32 C31 1_555 1_555
H33 C31 1_555 1_555
C32 C31 1_555 1_555
H34 C32 1_555 1_555
H35 C32 1_555 1_555
N4 C29 1_555 1_555
O8 Ce1_2 1_555 1_555
O9 C24 1_555 1_555
H39 N4 1_555 1_555
C34 C35 1_555 1_555
C35 C36 1_555 1_555
C36 H40 1_555 1_555
C37 C36 1_555 1_555
H41 C37 1_555 1_555
C38 C37 1_555 1_555
H42 C38 1_555 1_555
C39 C34 1_555 1_555
C40 C39 1_555 1_555
H43 C40 1_555 1_555
C41 C30 1_555 1_555
H44 C41 1_555 1_555
C42 C41 1_555 1_555
H45 C42 1_555 1_555
H46 C42 1_555 1_555
C43 C32 1_555 1_555
H47 C43 1_555 1_555
H48 C43 1_555 1_555
C44 H49 1_555 1_555
H50 C44 1_555 1_555
H51 C44 1_555 1_555
N5 C40 1_555 1_555
O10 C34 1_555 1_555
O11 C35 1_555 1_555
H52 N5 1_555 1_555
N6_2 O12 1_555 1_555
O12 Ce1_2 1_555 1_555
O13_2 N6_2 1_555 1_555
Ce3 O10 1_555 1_555
O16 Ce1_2 1_555 1_555
C23 O8 1_555 1_555
C27 C28 1_555 1_555
C30 N4 1_555 1_555
C38 C39 1_555 1_555
C41 N5 1_555 1_555
C42 C43 1_555 1_555
C44 O11 1_555 1_555
H24_2 C22_2 1_555 1_555
H25_2 C22_2 1_555 1_555
C7_2 C6_2 1_555 1_555
H4_2 C7_2 1_555 1_555
C8_2 H5_2 1_555 1_555
C9_2 C8_2 1_555 1_555
H6_2 C9_2 1_555 1_555
H7_2 C9_2 1_555 1_555
C10_2 C9_2 1_555 1_555
H8_2 C10_2 1_555 1_555
H9_2 C10_2 1_555 1_555
Ce1_3 O1_2 1_555 1_555
N1_2 C7_2 1_555 1_555
O4_3 N2_3 1_555 1_555
H13_2 N1_2 1_555 1_555
C12_2 C13_2 1_555 1_555
C13_2 C14_2 1_555 1_555
C14_2 H14_2 1_555 1_555
C15_2 C14_2 1_555 1_555
H15_2 C15_2 1_555 1_555
C16_2 C15_2 1_555 1_555
H16_2 C16_2 1_555 1_555
C17_2 C12_2 1_555 1_555
C18_2 C17_2 1_555 1_555
H17_2 C18_2 1_555 1_555
C19_2 C8_2 1_555 1_555
H18_2 C19_2 1_555 1_555
C20_2 C19_2 1_555 1_555
H19_2 C20_2 1_555 1_555
H20_2 C20_2 1_555 1_555
C21_2 C10_2 1_555 1_555
H21_2 C21_2 1_555 1_555
H22_2 C21_2 1_555 1_555
N3_2 C18_2 1_555 1_555
O16 C12_2 1_555 1_555
O6_2 C13_2 1_555 1_555
H26_2 N3_2 1_555 1_555
O7_2 Ce1_3 1_555 1_555
C8_2 N1_2 1_555 1_555
N2_3 O7_2 1_555 1_555
C16_2 C17_2 1_555 1_555
C19_2 N3_2 1_555 1_555
C20_2 C21_2 1_555 1_555
C1_2 C2_2 1_555 1_555
C2_2 C3_2 1_555 1_555
C3_2 H1_2 1_555 1_555
C4_2 C3_2 1_555 1_555
H2_2 C4_2 1_555 1_555
C5_2 C4_2 1_555 1_555
H3_2 C5_2 1_555 1_555
O2_2 C2_2 1_555 1_555
H37_2 C33_2 1_555 1_555
H38_2 C33_2 1_555 1_555
O13_3 N6_3 1_555 1_555
O14_2 Ce1_4 1_555 1_555
O15_2 Ce1_4 1_555 1_555
N6_3 O14_2 1_555 1_555
N2_4 O3_2 1_555 1_555
O3_2 Ce1_5 1_555 1_555
O4_4 N2_4 1_555 1_555
C29_2 C28_2 1_555 1_555
H30_2 C29_2 1_555 1_555
C30_2 H31_2 1_555 1_555
C31_2 C30_2 1_555 1_555
H32_2 C31_2 1_555 1_555
H33_2 C31_2 1_555 1_555
C32_2 C31_2 1_555 1_555
H34_2 C32_2 1_555 1_555
H35_2 C32_2 1_555 1_555
N4_2 C29_2 1_555 1_555
O8_2 Ce1_5 1_555 1_555
H39_2 N4_2 1_555 1_555
C34_2 C35_2 1_555 1_555
C35_2 C36_2 1_555 1_555
C36_2 H40_2 1_555 1_555
C37_2 C36_2 1_555 1_555
H41_2 C37_2 1_555 1_555
C38_2 C37_2 1_555 1_555
H42_2 C38_2 1_555 1_555
C39_2 C34_2 1_555 1_555
C40_2 C39_2 1_555 1_555
H43_2 C40_2 1_555 1_555
C41_2 C30_2 1_555 1_555
H44_2 C41_2 1_555 1_555
C42_2 C41_2 1_555 1_555
H45_2 C42_2 1_555 1_555
H46_2 C42_2 1_555 1_555
C43_2 C32_2 1_555 1_555
H47_2 C43_2 1_555 1_555
H48_2 C43_2 1_555 1_555
N5_2 C40_2 1_555 1_555
O15 C34_2 1_555 1_555
O11_2 C35_2 1_555 1_555
H52_2 N5_2 1_555 1_555
C30_2 N4_2 1_555 1_555
C38_2 C39_2 1_555 1_555
C41_2 N5_2 1_555 1_555
C42_2 C43_2 1_555 1_555
H11_2 C11_2 1_555 1_555
H12_2 C11_2 1_555 1_555
C23_2 C24_2 1_555 1_555
C24_2 C25_2 1_555 1_555
C25_2 H27_2 1_555 1_555
C26_2 C25_2 1_555 1_555
H28_2 C26_2 1_555 1_555
C27_2 C26_2 1_555 1_555
H29_2 C27_2 1_555 1_555
O9_2 C24_2 1_555 1_555
N6_4 O12_2 1_555 1_555
O12_2 Ce1_6 1_555 1_555
O13_4 N6_4 1_555 1_555
O16_2 Ce1_6 1_555 1_555
H50_2 C44_2 1_555 1_555
H51_2 C44_2 1_555 1_555
H24_3 C22_3 1_555 1_555
H25_3 C22_3 1_555 1_555
C12_3 C13_3 1_555 1_555
C13_3 C14_3 1_555 1_555
C14_3 H14_3 1_555 1_555
C15_3 C14_3 1_555 1_555
H15_3 C15_3 1_555 1_555
C16_3 C15_3 1_555 1_555
H16_3 C16_3 1_555 1_555
O6_3 C13_3 1_555 1_555
C34_3 C35_3 1_555 1_555
C35_3 C36_3 1_555 1_555
C36_3 H40_3 1_555 1_555
C37_3 C36_3 1_555 1_555
H41_3 C37_3 1_555 1_555
C38_3 C37_3 1_555 1_555
H42_3 C38_3 1_555 1_555
O11_3 C35_3 1_555 1_555
C1_3 C2_3 1_555 1_555
C2_3 C3_3 1_555 1_555
C3_3 H1_3 1_555 1_555
C4_3 C3_3 1_555 1_555
H2_3 C4_3 1_555 1_555
C5_3 C4_3 1_555 1_555
H3_3 C5_3 1_555 1_555
C6_3 C1_3 1_555 1_555
C7_3 C6_3 1_555 1_555
H4_3 C7_3 1_555 1_555
C8_3 H5_3 1_555 1_555
C9_3 C8_3 1_555 1_555
H6_3 C9_3 1_555 1_555
H7_3 C9_3 1_555 1_555
C10_3 C9_3 1_555 1_555
H8_3 C10_3 1_555 1_555
H9_3 C10_3 1_555 1_555
C11_3 H10_3 1_555 1_555
H11_3 C11_3 1_555 1_555
H12_3 C11_3 1_555 1_555
Ce3 O1_3 1_555 1_555
N1_3 C7_3 1_555 1_555
N2_5 O3_3 1_555 1_555
O1_3 C1_3 1_555 1_555
O2_3 C2_3 1_555 1_555
O3_3 Ce3 1_555 1_555
O4_5 N2_5 1_555 1_555
H13_3 N1_3 1_555 1_555
C18_3 C17_3 1_555 1_555
H17_3 C18_3 1_555 1_555
C19_3 C8_3 1_555 1_555
H18_3 C19_3 1_555 1_555
C20_3 C19_3 1_555 1_555
H19_3 C20_3 1_555 1_555
H20_3 C20_3 1_555 1_555
C21_3 C10_3 1_555 1_555
H21_3 C21_3 1_555 1_555
H22_3 C21_3 1_555 1_555
N3_3 C18_3 1_555 1_555
H26_3 N3_3 1_555 1_555
O7_3 Ce3 1_555 1_555
C23_3 C24_3 1_555 1_555
C24_3 C25_3 1_555 1_555
C25_3 H27_3 1_555 1_555
C26_3 C25_3 1_555 1_555
H28_3 C26_3 1_555 1_555
C27_3 C26_3 1_555 1_555
H29_3 C27_3 1_555 1_555
C28_3 C23_3 1_555 1_555
C29_3 C28_3 1_555 1_555
H30_3 C29_3 1_555 1_555
C30_3 H31_3 1_555 1_555
C31_3 C30_3 1_555 1_555
H32_3 C31_3 1_555 1_555
H33_3 C31_3 1_555 1_555
C32_3 C31_3 1_555 1_555
H34_3 C32_3 1_555 1_555
H35_3 C32_3 1_555 1_555
C33_3 H36_3 1_555 1_555
H37_3 C33_3 1_555 1_555
H38_3 C33_3 1_555 1_555
N4_3 C29_3 1_555 1_555
O8_3 Ce3 1_555 1_555
O9_3 C24_3 1_555 1_555
H39_3 N4_3 1_555 1_555
C40_3 C39_3 1_555 1_555
H43_3 C40_3 1_555 1_555
C41_3 C30_3 1_555 1_555
H44_3 C41_3 1_555 1_555
C42_3 C41_3 1_555 1_555
H45_3 C42_3 1_555 1_555
H46_3 C42_3 1_555 1_555
C43_3 C32_3 1_555 1_555
H47_3 C43_3 1_555 1_555
H48_3 C43_3 1_555 1_555
N5_3 C40_3 1_555 1_555
H52_3 N5_3 1_555 1_555
N6_5 O12_3 1_555 1_555
O12_3 Ce3 1_555 1_555
O13_5 N6_5 1_555 1_555
O14_3 Ce3 1_555 1_555
C5_3 C6_3 1_555 1_555
C8_3 N1_3 1_555 1_555
C11_3 O2_3 1_555 1_555
N2_5 O7_3 1_555 1_555
C19_3 N3_3 1_555 1_555
C20_3 C21_3 1_555 1_555
C23_3 O8_3 1_555 1_555
C27_3 C28_3 1_555 1_555
C30_3 N4_3 1_555 1_555
C33_3 O9_3 1_555 1_555
C41_3 N5_3 1_555 1_555
C42_3 C43_3 1_555 1_555
N6_5 O14_3 1_555 1_555
H50_3 C44_3 1_555 1_555
H51_3 C44_3 1_555 1_555
F1 P1 1_555 1_555
F2 P1_2 1_555 1_555
F5 P1_2 1_555 1_555
F4 P1_3 1_555 1_555
F6 P1_3 1_555 1_555
P1_4 F3 1_555 1_555
F1_2 P1_5 1_555 1_555
F2_2 P1_5 1_555 1_555
F5_2 P1_5 1_555 1_555
P1_6 F3_2 1_555 1_555
F1_3 P1_7 1_555 1_555
P1_8 F3_3 1_555 1_555
F4_2 P1_8 1_555 1_555
F6_2 P1_8 1_555 1_555
F2_3 P1_9 1_555 1_555
P1_9 F3_4 1_555 1_555
F5_3 P1_9 1_555 1_555
P1_10 F3_5 1_555 1_555
F1_4 P1_11 1_555 1_555
F1_5 P1_12 1_555 1_555
F4_3 P1_12 1_555 1_555
F6_3 P1_12 1_555 1_555

#END
