
###############################################################################
#
# This file contains modified crystal structure data generated from the
# MOF subset of the Cambridge Structural Database (CSD) v543 
# hosted by the Cambridge Crystallographic Data Centre (CCDC).
#
# This work is licensed under the Creative Commons
# Attribution-NonCommercial-ShareAlike 4.0 International License.
# To view a copy of this license, visit
# http://creativecommons.org/licenses/by-nc-sa/4.0/
# or send a letter to
# Creative Commons, PO Box 1866, Mountain View, CA 94042, USA.
#
# CIF created using the CSD Python API on 29 September 2022
# The structure has been converted into the P1 space group
# The structure has a 3D framework
# The original CSD entry FIBHUW is in the orthorhombic crystal system
# The framework has been calculated to contain at least 10.0% void space
# The void calculation uses a probe of radius 1.32A, grid spacing 0.4
#
###############################################################################

data_FIBHUW
_chemical_formula_moiety         '(C64 H136 Cd48 Cl40 N320)n'
_symmetry_cell_setting           triclinic
_symmetry_space_group_name_H-M   'P 1'
_symmetry_Int_Tables_number      1
_space_group_name_Hall           'P 1'
loop_
_symmetry_equiv_pos_site_id
_symmetry_equiv_pos_as_xyz
1 x,y,z
_cell_length_a                   18.324(4)
_cell_length_b                   18.867(4)
_cell_length_c                   27.757(6)
_cell_angle_alpha                90
_cell_angle_beta                 90
_cell_angle_gamma                90
_cell_volume                     9596.12
loop_
_atom_site_label
_atom_site_type_symbol
_atom_site_fract_x
_atom_site_fract_y
_atom_site_fract_z
N1 N 0.7956(5) 0.2842(5) 0.3505(3)
N3 N 0.4343(5) 0.1576(5) 0.4182(3)
N4 N 0.4972(5) 0.1833(5) 0.4179(3)
N5 N 0.7576(5) 0.2783(5) 0.1302(3)
N6 N 0.7819(5) 0.0976(4) 0.0279(3)
Cd1 Cd 0.64422(4) 0.19076(4) 0.36482(3)
Cd3 Cd 0.82760(4) 0.04685(4) 0.13770(3)
Cd5 Cd 0.73094(5) 0.11634(4) 0.25017(3)
Cl1 Cl 0.85784(17) 0.05685(18) 0.22768(10)
Cl4 Cl 0.61000(16) 0.17961(16) 0.27306(10)
N9 N 0.7185(5) 0.0008(5) 0.1660(3)
N10 N 0.7756(5) 0.0474(4) 0.0602(3)
N11 N 0.7780(5) 0.1654(4) 0.1437(3)
N15 N 0.6864(5) 0.0691(5) 0.3563(3)
N16 N 0.5376(5) 0.1435(5) 0.3886(3)
N17 N 0.7465(5) 0.1912(5) 0.1829(3)
N18 N 0.6815(5) 0.0186(5) 0.3878(3)
N19 N 0.7567(5) 0.2315(5) 0.3346(3)
N20 N 0.7214(5) 0.0446(5) 0.3167(3)
N23 N 0.7850(5) 0.2168(4) 0.1125(3)
N24 N 0.6802(5) 0.0288(5) 0.2016(3)
C1 C 0.7342(6) 0.2613(6) 0.1740(4)
N26 N 0.6097(5) 0.3112(5) 0.3714(3)
N27 N 0.8524(6) 0.2940(6) 0.3221(4)
N28 N 0.7040(6) 0.3086(5) 0.2055(3)
H3 H 0.6992 0.3524 0.1974
H4 H 0.6898 0.2946 0.2335
N29 N 0.7865(5) 0.2053(5) 0.2945(3)
N30 N 0.6503(5) 0.3590(5) 0.3932(4)
N32 N 0.4300(5) 0.0994(5) 0.3886(3)
N34 N 0.6194(7) 0.4204(6) 0.3978(5)
C5 C 0.4947(6) 0.0927(7) 0.3707(4)
N36 N 0.4954(6) 0.3201(6) 0.3366(4)
H9 H 0.4981 0.2775 0.3256
H10 H 0.4572 0.3453 0.3311
N37 N 0.5150(6) 0.0401(7) 0.3398(5)
H11 H 0.4838 0.0086 0.3310
H12 H 0.5590 0.0384 0.3291
N38 N 0.5548(6) 0.4130(6) 0.3773(5)
H13 H 0.5218 0.4451 0.3745
C6 C 0.5507(6) 0.3470(7) 0.3622(5)
C7 C 0.8458(7) 0.2451(7) 0.2882(4)
N39 N 0.8920(7) 0.2356(8) 0.2515(5)
H14 H 0.9296 0.2625 0.2486
H15 H 0.8840 0.2026 0.2307
H16 H 0.5738 0.0320 0.2563
N42 N 0.6857(5) 0.1925(5) 0.4434(3)
Cd8 Cd 0.76479(4) 0.38209(4) 0.08494(3)
Cd9 Cd 0.32760(4) 0.04685(4) 0.36230(3)
Cd10 Cd 0.77003(4) 0.35653(4) 0.41727(3)
Cd13 Cd 0.34775(4) 0.20833(4) 0.46366(3)
Cd14 Cd 0.84775(4) 0.20833(4) 0.03634(3)
N50 N 0.9300(5) 0.0994(5) 0.1114(3)
N7 N 0.7482(5) 0.0770(5) 0.9880(3)
C2 C 0.7210(6) 0.0124(6) 0.9974(4)
Cd12 Cd 0.77003(4) 0.14347(4) 0.91727(3)
N8 N 0.7132(5) 0.9582(5) 0.3707(3)
Cd2 Cd 0.73521(4) 0.88209(4) 0.08494(3)
Cd6 Cd 0.65225(4) 0.70833(4) 0.03634(3)
Cl2 Cl 0.86466(15) 0.91685(14) 0.11665(11)
Cl3 Cl 0.61291(15) 0.84143(14) 0.04971(11)
N12 N 0.7828(5) 0.8247(5) 0.0181(3)
N13 N 0.7378(5) 0.9920(4) 0.0427(3)
N21 N 0.6871(5) 0.9439(5) 0.1492(3)
N22 N 0.7489(5) 0.7661(5) 0.0005(3)
C4 C 0.7373(7) 0.9751(6) 0.3277(4)
H5 H 0.8672 0.9296 0.0126
N33 N 0.6267(5) 0.9319(6) 0.1730(4)
N35 N 0.7721(8) 0.9307(6) 0.2981(4)
H7 H 0.7802 0.8877 0.3069
H8 H 0.7865 0.9452 0.2703
C8 C 0.6242(7) 0.9858(7) 0.2047(4)
N40 N 0.5715(8) 0.9964(9) 0.2370(5)
H17 H 0.5351 0.9677 0.2385
N43 N 0.5657(5) 0.6576(5) 0.0818(3)
N44 N 0.7424(5) 0.7783(5) 0.1302(3)
N45 N 0.7181(5) 0.5976(4) 0.0279(3)
Cd11 Cd 0.72997(4) 0.85653(4) 0.41727(3)
N48 N 0.7150(5) 0.7168(4) 0.1125(3)
N2 N 0.8143(5) 0.8075(5) 0.9434(3)
Cd4 Cd 0.72997(4) 0.64347(4) 0.91727(3)
Cl5 Cl 0.60657(16) 0.67242(18) 0.95321(10)
N14 N 0.7668(5) 0.7557(5) 0.9564(3)
N25 N 0.6828(6) 0.9722(5) 0.9674(4)
H1 H 0.6733 0.9871 0.9388
H2 H 0.6675 0.9313 0.9766
C3 C 0.8235(6) 0.8487(6) 0.9822(4)
N31 N 0.8658(5) 0.9064(6) 0.9860(4)
H6 H 0.8914 0.9202 0.9618
N41 N 0.7044(5) 0.7158(5) 0.8505(3)
N46 N 0.7518(5) 0.5770(5) 0.9880(3)
N47 N 0.7132(5) 0.5418(5) 0.8707(3)
Cd7 Cd 0.85578(4) 0.80924(4) 0.86482(3)
N49 N 0.8497(5) 0.6410(5) 0.8932(4)
N3_2 N 0.0657(5) 0.8424(5) 0.9182(3)
N4_2 N 0.0028(5) 0.8167(5) 0.9179(3)
N32_2 N 0.0700(5) 0.9006(5) 0.8886(3)
C5_2 C 0.0053(6) 0.9073(7) 0.8707(4)
N36_2 N 0.0046(6) 0.6799(6) 0.8366(4)
H9_2 H 0.0019 0.7225 0.8256
H10_2 H 0.0428 0.6547 0.8311
H11_2 H 0.0162 0.9914 0.8310
Cd9_2 Cd 0.17240(4) 0.95315(4) 0.86230(3)
Cd13_2 Cd 0.15225(4) 0.79167(4) 0.96366(3)
N8_2 N 0.7868(5) 0.0418(5) 0.8707(3)
Cd2_2 Cd 0.76479(4) 0.11791(4) 0.58494(3)
Cd6_2 Cd 0.84775(4) 0.29167(4) 0.53634(3)
Cl2_2 Cl 0.63534(15) 0.08315(14) 0.61665(11)
Cl3_2 Cl 0.88709(15) 0.15857(14) 0.54971(11)
Cl5_2 Cl 0.89343(16) 0.32758(18) 0.45321(10)
N12_2 N 0.7172(5) 0.1753(5) 0.5181(3)
N13_2 N 0.7622(5) 0.0080(4) 0.5427(3)
N14_2 N 0.7332(5) 0.2443(5) 0.4564(3)
N21_2 N 0.8129(5) 0.0561(5) 0.6492(3)
N22_2 N 0.7511(5) 0.2339(5) 0.5005(3)
N25_2 N 0.8172(6) 0.0278(5) 0.4674(4)
H1_2 H 0.8267 0.0129 0.4388
H2_2 H 0.8325 0.0687 0.4766
C3_2 C 0.6765(6) 0.1513(6) 0.4822(4)
C4_2 C 0.7627(7) 0.0249(6) 0.8277(4)
N31_2 N 0.6342(5) 0.0936(6) 0.4860(4)
H5_2 H 0.6328 0.0704 0.5126
H6_2 H 0.6086 0.0798 0.4618
N33_2 N 0.8733(5) 0.0681(6) 0.6730(4)
N35_2 N 0.7279(8) 0.0693(6) 0.7981(4)
H7_2 H 0.7198 0.1123 0.8069
H8_2 H 0.7135 0.0548 0.7703
C8_2 C 0.8758(7) 0.0142(7) 0.7047(4)
N40_2 N 0.9285(8) 0.0036(9) 0.7370(5)
H17_2 H 0.9649 0.0323 0.7385
N43_2 N 0.9343(5) 0.3424(5) 0.5818(3)
N44_2 N 0.7576(5) 0.2217(5) 0.6302(3)
N45_2 N 0.7819(5) 0.4024(4) 0.5279(3)
N46_2 N 0.7482(5) 0.4230(5) 0.4880(3)
N47_2 N 0.7868(5) 0.4582(5) 0.3707(3)
N48_2 N 0.7850(5) 0.2832(4) 0.6125(3)
N5_2 N 0.7424(5) 0.7217(5) 0.6302(3)
N6_2 N 0.7181(5) 0.9024(4) 0.5279(3)
N7_2 N 0.7518(5) 0.9230(5) 0.4880(3)
Cd3_2 Cd 0.67240(4) 0.95315(4) 0.63770(3)
Cd5_2 Cd 0.76906(5) 0.88366(4) 0.75017(3)
Cl1_2 Cl 0.64216(17) 0.94315(18) 0.72768(10)
Cl4_2 Cl 0.89000(16) 0.82039(16) 0.77306(10)
N9_2 N 0.7815(5) 0.9992(5) 0.6660(3)
N10_2 N 0.7244(5) 0.9526(4) 0.5602(3)
N11_2 N 0.7220(5) 0.8346(4) 0.6437(3)
N15_2 N 0.8136(5) 0.9309(5) 0.8563(3)
N16_2 N 0.9624(5) 0.8565(5) 0.8886(3)
N17_2 N 0.7535(5) 0.8088(5) 0.6829(3)
N18_2 N 0.8185(5) 0.9814(5) 0.8878(3)
N19_2 N 0.7433(5) 0.7685(5) 0.8346(3)
N20_2 N 0.7786(5) 0.9554(5) 0.8167(3)
N23_2 N 0.7150(5) 0.7832(4) 0.6125(3)
N24_2 N 0.8198(5) 0.9712(5) 0.7016(3)
C1_2 C 0.7658(6) 0.7387(6) 0.6740(4)
C2_2 C 0.7790(6) 0.9876(6) 0.4974(4)
N26_2 N 0.8903(5) 0.6888(5) 0.8714(3)
N27_2 N 0.6476(6) 0.7060(6) 0.8221(4)
N28_2 N 0.7960(6) 0.6914(5) 0.7055(3)
H3_2 H 0.8008 0.6476 0.6974
H4_2 H 0.8102 0.7054 0.7335
N29_2 N 0.7135(5) 0.7947(5) 0.7945(3)
N34_2 N 0.8806(7) 0.5796(6) 0.8978(5)
N37_2 N 0.9850(6) 0.9599(7) 0.8398(5)
H12_2 H 0.9410 0.9616 0.8291
N38_2 N 0.9452(6) 0.5870(6) 0.8773(5)
H13_2 H 0.9782 0.5549 0.8745
C6_2 C 0.9493(6) 0.6530(7) 0.8622(5)
C7_2 C 0.6542(7) 0.7549(7) 0.7882(4)
N39_2 N 0.6080(7) 0.7644(8) 0.7515(5)
H14_2 H 0.5704 0.7375 0.7486
H15_2 H 0.6160 0.7974 0.7307
H16_2 H 0.9262 0.9680 0.7563
Cd8_2 Cd 0.73521(4) 0.61791(4) 0.58494(3)
Cd14_2 Cd 0.65225(4) 0.79167(4) 0.53634(3)
N50_2 N 0.5700(5) 0.9006(5) 0.6114(3)
N1_2 N 0.2044(5) 0.7842(5) 0.1495(3)
N2_2 N 0.1857(5) 0.3075(5) 0.5566(3)
N4_3 N 0.5028(5) 0.6833(5) 0.0821(3)
N5_3 N 0.2424(5) 0.7783(5) 0.3698(3)
N6_3 N 0.2181(5) 0.5976(4) 0.4721(3)
N7_3 N 0.2518(5) 0.5770(5) 0.5120(3)
N8_3 N 0.2868(5) 0.4582(5) 0.1293(3)
Cd1_2 Cd 0.35578(4) 0.69076(4) 0.13518(3)
Cd2_3 Cd 0.26479(4) 0.38209(4) 0.41506(3)
Cd3_3 Cd 0.17240(4) 0.54685(4) 0.36230(3)
Cd4_2 Cd 0.27003(4) 0.14347(4) 0.58273(3)
Cd5_3 Cd 0.26906(5) 0.61634(4) 0.24983(3)
Cl1_3 Cl 0.14216(17) 0.55685(18) 0.27232(10)
Cl2_3 Cl 0.13534(15) 0.41685(14) 0.38335(11)
Cl3_3 Cl 0.38709(15) 0.34143(14) 0.45029(11)
Cl4_3 Cl 0.39000(16) 0.67961(16) 0.22694(10)
Cl5_3 Cl 0.39343(16) 0.17242(18) 0.54679(10)
N9_3 N 0.2815(5) 0.5008(5) 0.3340(3)
N10_3 N 0.2244(5) 0.5474(4) 0.4398(3)
N11_3 N 0.2220(5) 0.6654(4) 0.3563(3)
N12_3 N 0.2172(5) 0.3247(5) 0.4819(3)
N13_3 N 0.2622(5) 0.4920(4) 0.4573(3)
N14_3 N 0.2332(5) 0.2557(5) 0.5436(3)
N15_3 N 0.3136(5) 0.5691(5) 0.1437(3)
N16_3 N 0.4624(5) 0.6435(5) 0.1114(3)
N17_3 N 0.2535(5) 0.6912(5) 0.3171(3)
N18_3 N 0.3185(5) 0.5186(5) 0.1122(3)
N19_3 N 0.2433(5) 0.7315(5) 0.1654(3)
N20_3 N 0.2786(5) 0.5446(5) 0.1833(3)
N21_3 N 0.3129(5) 0.4439(5) 0.3508(3)
N22_3 N 0.2511(5) 0.2661(5) 0.4995(3)
N23_3 N 0.2150(5) 0.7168(4) 0.3875(3)
N24_3 N 0.3198(5) 0.5288(5) 0.2984(3)
C1_3 C 0.2658(6) 0.7613(6) 0.3260(4)
C2_3 C 0.2790(6) 0.5124(6) 0.5026(4)
N25_3 N 0.3172(6) 0.4722(5) 0.5326(4)
H1_3 H 0.3267 0.4871 0.5612
H2_3 H 0.3325 0.4313 0.5234
N26_3 N 0.3903(5) 0.8112(5) 0.1286(3)
N27_3 N 0.1476(6) 0.7940(6) 0.1779(4)
C3_3 C 0.1765(6) 0.3487(6) 0.5178(4)
C4_3 C 0.2627(7) 0.4751(6) 0.1723(4)
N28_3 N 0.2960(6) 0.8086(5) 0.2945(3)
H3_3 H 0.3008 0.8524 0.3026
H4_3 H 0.3102 0.7946 0.2665
N29_3 N 0.2135(5) 0.7053(5) 0.2055(3)
N30_2 N 0.3497(5) 0.8590(5) 0.1068(4)
N31_3 N 0.1342(5) 0.4064(6) 0.5140(4)
H5_3 H 0.1328 0.4296 0.4874
H6_3 H 0.1086 0.4202 0.5382
N32_3 N 0.5700(5) 0.5994(5) 0.1114(3)
N33_3 N 0.3733(5) 0.4319(6) 0.3270(4)
N34_3 N 0.3806(7) 0.9204(6) 0.1022(5)
C5_3 C 0.5053(6) 0.5927(7) 0.1293(4)
N35_3 N 0.2279(8) 0.4307(6) 0.2019(4)
H7_3 H 0.2198 0.3877 0.1931
H8_3 H 0.2135 0.4452 0.2297
N36_3 N 0.5046(6) 0.8201(6) 0.1634(4)
H9_3 H 0.5019 0.7775 0.1744
H10_3 H 0.5428 0.8453 0.1689
N37_3 N 0.4850(6) 0.5401(7) 0.1602(5)
H11_3 H 0.5162 0.5086 0.1690
H12_3 H 0.4410 0.5384 0.1709
N38_3 N 0.4452(6) 0.9130(6) 0.1227(5)
H13_3 H 0.4782 0.9451 0.1255
C6_3 C 0.4493(6) 0.8470(7) 0.1378(5)
C7_3 C 0.1542(7) 0.7451(7) 0.2118(4)
C8_3 C 0.3758(7) 0.4858(7) 0.2953(4)
N39_3 N 0.1080(7) 0.7356(8) 0.2485(5)
H14_3 H 0.0704 0.7625 0.2514
H15_3 H 0.1160 0.7026 0.2693
N40_3 N 0.4285(8) 0.4964(9) 0.2630(5)
H16_3 H 0.4262 0.5320 0.2437
H17_3 H 0.4649 0.4677 0.2615
N41_2 N 0.2956(5) 0.2158(5) 0.6495(3)
N42_2 N 0.3143(5) 0.6925(5) 0.0566(3)
N44_3 N 0.2576(5) 0.2783(5) 0.3698(3)
N45_3 N 0.2819(5) 0.0976(4) 0.4721(3)
N46_3 N 0.2482(5) 0.0770(5) 0.5120(3)
N47_3 N 0.2868(5) 0.0418(5) 0.6293(3)
Cd7_2 Cd 0.14422(4) 0.30924(4) 0.63518(3)
Cd8_3 Cd 0.23521(4) 0.88209(4) 0.41506(3)
Cd9_3 Cd 0.67240(4) 0.54685(4) 0.13770(3)
Cd10_2 Cd 0.22997(4) 0.85653(4) 0.08273(3)
Cd11_2 Cd 0.27003(4) 0.35653(4) 0.08273(3)
Cd12_2 Cd 0.22997(4) 0.64347(4) 0.58273(3)
Cd14_3 Cd 0.15225(4) 0.70833(4) 0.46366(3)
N48_3 N 0.2850(5) 0.2168(4) 0.3875(3)
N49_2 N 0.1503(5) 0.1410(5) 0.6068(4)
N50_3 N 0.0700(5) 0.5994(5) 0.3886(3)
N7_4 N 0.2482(5) 0.4230(5) 0.0120(3)
Cl5_4 Cl 0.10657(16) 0.82758(18) 0.04679(10)
N14_4 N 0.2668(5) 0.7443(5) 0.0436(3)
C2_4 C 0.2210(6) 0.4876(6) 0.0026(4)
N25_4 N 0.1828(6) 0.5278(5) 0.0326(4)
H1_4 H 0.1733 0.5129 0.0612
H2_4 H 0.1675 0.5687 0.0234
C3_4 C 0.3235(6) 0.6513(6) 0.0178(4)
N31_4 N 0.3658(5) 0.5936(6) 0.0140(4)
H6_4 H 0.3914 0.5798 0.0382
N46_4 N 0.2518(5) 0.9230(5) 0.0120(3)
N47_4 N 0.2132(5) 0.9582(5) 0.1293(3)
N5_4 N 0.2576(5) 0.2217(5) 0.8698(3)
N6_4 N 0.2819(5) 0.4024(4) 0.9721(3)
N8_4 N 0.2132(5) 0.5418(5) 0.6293(3)
Cd2_4 Cd 0.23521(4) 0.61791(4) 0.91506(3)
Cd3_4 Cd 0.32760(4) 0.45315(4) 0.86230(3)
Cd5_4 Cd 0.23094(5) 0.38366(4) 0.74983(3)
Cl1_4 Cl 0.35784(17) 0.44315(18) 0.77232(10)
Cl2_4 Cl 0.36466(15) 0.58315(14) 0.88335(11)
Cl3_4 Cl 0.11291(15) 0.65857(14) 0.95029(11)
Cl4_4 Cl 0.11000(16) 0.32039(16) 0.72694(10)
N9_4 N 0.2185(5) 0.4992(5) 0.8340(3)
N10_4 N 0.2756(5) 0.4526(4) 0.9398(3)
N11_4 N 0.2780(5) 0.3346(4) 0.8563(3)
N12_4 N 0.2828(5) 0.6753(5) 0.9819(3)
N13_4 N 0.2378(5) 0.5080(4) 0.9573(3)
N15_4 N 0.1864(5) 0.4309(5) 0.6437(3)
N16_4 N 0.0376(5) 0.3565(5) 0.6114(3)
N17_4 N 0.2465(5) 0.3088(5) 0.8171(3)
N18_4 N 0.1815(5) 0.4814(5) 0.6122(3)
N19_4 N 0.2567(5) 0.2685(5) 0.6654(3)
N20_4 N 0.2214(5) 0.4554(5) 0.6833(3)
N21_4 N 0.1871(5) 0.5561(5) 0.8508(3)
N22_4 N 0.2489(5) 0.7339(5) 0.9995(3)
N23_4 N 0.2850(5) 0.2832(4) 0.8875(3)
N24_4 N 0.1802(5) 0.4712(5) 0.7984(3)
C1_4 C 0.2342(6) 0.2387(6) 0.8260(4)
N26_4 N 0.1097(5) 0.1888(5) 0.6286(3)
N27_4 N 0.3524(6) 0.2060(6) 0.6779(4)
C4_4 C 0.2373(7) 0.5249(6) 0.6723(4)
N28_4 N 0.2040(6) 0.1914(5) 0.7945(3)
H3_4 H 0.1992 0.1476 0.8026
H4_4 H 0.1898 0.2054 0.7665
N29_4 N 0.2865(5) 0.2947(5) 0.7055(3)
H5_4 H 0.3672 0.5704 0.9874
N33_4 N 0.1267(5) 0.5681(6) 0.8270(4)
N34_4 N 0.1194(7) 0.0796(6) 0.6022(5)
N35_4 N 0.2721(8) 0.5693(6) 0.7019(4)
H7_4 H 0.2802 0.6123 0.6931
H8_4 H 0.2865 0.5548 0.7297
N37_4 N 0.0150(6) 0.4599(7) 0.6602(5)
H12_4 H 0.0590 0.4616 0.6709
N38_4 N 0.0548(6) 0.0870(6) 0.6227(5)
H13_4 H 0.0218 0.0549 0.6255
C6_4 C 0.0507(6) 0.1530(7) 0.6378(5)
C7_4 C 0.3458(7) 0.2549(7) 0.7118(4)
C8_4 C 0.1242(7) 0.5142(7) 0.7953(4)
N39_4 N 0.3920(7) 0.2644(8) 0.7485(5)
H14_4 H 0.4296 0.2375 0.7514
H15_4 H 0.3840 0.2974 0.7693
N40_4 N 0.0715(8) 0.5036(9) 0.7630(5)
H16_4 H 0.0738 0.4680 0.7437
H17_4 H 0.0351 0.5323 0.7615
N44_4 N 0.2424(5) 0.7217(5) 0.8698(3)
N45_4 N 0.2181(5) 0.9024(4) 0.9721(3)
Cd8_4 Cd 0.26479(4) 0.11791(4) 0.91506(3)
Cd14_4 Cd 0.34775(4) 0.29167(4) 0.96366(3)
N48_4 N 0.2150(5) 0.7832(4) 0.8875(3)
N50_4 N 0.4300(5) 0.4006(5) 0.8886(3)
N4_4 N 0.9972(5) 0.3167(5) 0.5821(3)
N32_4 N 0.9300(5) 0.4006(5) 0.6114(3)
C5_4 C 0.9947(6) 0.4073(7) 0.6293(4)
N36_4 N 0.9954(6) 0.1799(6) 0.6634(4)
H9_4 H 0.9981 0.2225 0.6744
H10_4 H 0.9572 0.1547 0.6689
H11_4 H 0.9838 0.4914 0.6690
Cd9_4 Cd 0.82760(4) 0.45315(4) 0.63770(3)
N2_3 N 0.1857(5) 0.1925(5) 0.0566(3)
Cl5_5 Cl 0.39343(16) 0.32758(18) 0.04679(10)
N14_5 N 0.2332(5) 0.2443(5) 0.0436(3)
N25_5 N 0.3172(6) 0.0278(5) 0.0326(4)
H1_5 H 0.3267 0.0129 0.0612
H2_5 H 0.3325 0.0687 0.0234
C3_5 C 0.1765(6) 0.1513(6) 0.0178(4)
N31_5 N 0.1342(5) 0.0936(6) 0.0140(4)
H6_5 H 0.1086 0.0798 0.0382
N41_3 N 0.2956(5) 0.2842(5) 0.1495(3)
Cd7_3 Cd 0.14422(4) 0.19076(4) 0.13518(3)
N49_3 N 0.1503(5) 0.3590(5) 0.1068(4)
Cl2_5 Cl 0.13534(15) 0.08315(14) 0.88335(11)
Cl3_5 Cl 0.38709(15) 0.15857(14) 0.95029(11)
N12_5 N 0.2172(5) 0.1753(5) 0.9819(3)
N13_5 N 0.2622(5) 0.0080(4) 0.9573(3)
N21_5 N 0.3129(5) 0.0561(5) 0.8508(3)
N22_5 N 0.2511(5) 0.2339(5) 0.9995(3)
C4_5 C 0.2627(7) 0.0249(6) 0.6723(4)
H5_5 H 0.1328 0.0704 0.9874
N33_5 N 0.3733(5) 0.0681(6) 0.8270(4)
N35_5 N 0.2279(8) 0.0693(6) 0.7019(4)
H7_5 H 0.2198 0.1123 0.6931
H8_5 H 0.2135 0.0548 0.7297
C8_5 C 0.3758(7) 0.0142(7) 0.7953(4)
N40_5 N 0.4285(8) 0.0036(9) 0.7630(5)
H17_5 H 0.4649 0.0323 0.7615
N43_3 N 0.4343(5) 0.3424(5) 0.9182(3)
C2_5 C 0.2790(6) 0.9876(6) 0.0026(4)
N1_3 N 0.2044(5) 0.7158(5) 0.6495(3)
N3_3 N 0.5657(5) 0.8424(5) 0.5818(3)
N4_5 N 0.5028(5) 0.8167(5) 0.5821(3)
Cd1_3 Cd 0.35578(4) 0.80924(4) 0.63518(3)
Cd5_5 Cd 0.26906(5) 0.88366(4) 0.74983(3)
Cl1_5 Cl 0.14216(17) 0.94315(18) 0.77232(10)
Cl4_5 Cl 0.39000(16) 0.82039(16) 0.72694(10)
N9_5 N 0.2815(5) 0.9992(5) 0.8340(3)
N10_5 N 0.2244(5) 0.9526(4) 0.9398(3)
N11_5 N 0.2220(5) 0.8346(4) 0.8563(3)
N15_5 N 0.3136(5) 0.9309(5) 0.6437(3)
N16_5 N 0.4624(5) 0.8565(5) 0.6114(3)
N17_5 N 0.2535(5) 0.8088(5) 0.8171(3)
N18_5 N 0.3185(5) 0.9814(5) 0.6122(3)
N19_5 N 0.2433(5) 0.7685(5) 0.6654(3)
N20_5 N 0.2786(5) 0.9554(5) 0.6833(3)
N24_5 N 0.3198(5) 0.9712(5) 0.7984(3)
C1_5 C 0.2658(6) 0.7387(6) 0.8260(4)
N26_5 N 0.3903(5) 0.6888(5) 0.6286(3)
N27_5 N 0.1476(6) 0.7060(6) 0.6779(4)
N28_5 N 0.2960(6) 0.6914(5) 0.7945(3)
H3_5 H 0.3008 0.6476 0.8026
H4_5 H 0.3102 0.7054 0.7665
N29_5 N 0.2135(5) 0.7947(5) 0.7055(3)
N30_3 N 0.3497(5) 0.6410(5) 0.6068(4)
N34_5 N 0.3806(7) 0.5796(6) 0.6022(5)
C5_5 C 0.5053(6) 0.9073(7) 0.6293(4)
N36_5 N 0.5046(6) 0.6799(6) 0.6634(4)
H9_5 H 0.5019 0.7225 0.6744
H10_5 H 0.5428 0.6547 0.6689
N37_5 N 0.4850(6) 0.9599(7) 0.6602(5)
H11_5 H 0.5162 0.9914 0.6690
H12_5 H 0.4410 0.9616 0.6709
N38_5 N 0.4452(6) 0.5870(6) 0.6227(5)
H13_5 H 0.4782 0.5549 0.6255
C6_5 C 0.4493(6) 0.6530(7) 0.6378(5)
C7_5 C 0.1542(7) 0.7549(7) 0.7118(4)
N39_5 N 0.1080(7) 0.7644(8) 0.7485(5)
H14_5 H 0.0704 0.7375 0.7514
H15_5 H 0.1160 0.7974 0.7693
H16_5 H 0.4262 0.9680 0.7437
N42_3 N 0.3143(5) 0.8075(5) 0.5566(3)
Cd5_6 Cd 0.23094(5) 0.11634(4) 0.24983(3)
Cl1_6 Cl 0.35784(17) 0.05685(18) 0.27232(10)
Cl4_6 Cl 0.11000(16) 0.17961(16) 0.22694(10)
N9_6 N 0.2185(5) 0.0008(5) 0.3340(3)
N10_6 N 0.2756(5) 0.0474(4) 0.4398(3)
N11_6 N 0.2780(5) 0.1654(4) 0.3563(3)
N15_6 N 0.1864(5) 0.0691(5) 0.1437(3)
N16_6 N 0.0376(5) 0.1435(5) 0.1114(3)
N17_6 N 0.2465(5) 0.1912(5) 0.3171(3)
N18_6 N 0.1815(5) 0.0186(5) 0.1122(3)
N19_6 N 0.2567(5) 0.2315(5) 0.1654(3)
N20_6 N 0.2214(5) 0.0446(5) 0.1833(3)
N24_6 N 0.1802(5) 0.0288(5) 0.2984(3)
C1_6 C 0.2342(6) 0.2613(6) 0.3260(4)
C2_6 C 0.2210(6) 0.0124(6) 0.5026(4)
N26_6 N 0.1097(5) 0.3112(5) 0.1286(3)
N27_6 N 0.3524(6) 0.2940(6) 0.1779(4)
N28_6 N 0.2040(6) 0.3086(5) 0.2945(3)
H3_6 H 0.1992 0.3524 0.3026
H4_6 H 0.1898 0.2946 0.2665
N29_6 N 0.2865(5) 0.2053(5) 0.2055(3)
N34_6 N 0.1194(7) 0.4204(6) 0.1022(5)
N37_6 N 0.0150(6) 0.0401(7) 0.1602(5)
H12_6 H 0.0590 0.0384 0.1709
N38_6 N 0.0548(6) 0.4130(6) 0.1227(5)
H13_6 H 0.0218 0.4451 0.1255
C6_6 C 0.0507(6) 0.3470(7) 0.1378(5)
C7_6 C 0.3458(7) 0.2451(7) 0.2118(4)
N39_6 N 0.3920(7) 0.2356(8) 0.2485(5)
H14_6 H 0.4296 0.2625 0.2514
H15_6 H 0.3840 0.2026 0.2693
H16_6 H 0.0738 0.0320 0.2437
Cl2_6 Cl 0.36466(15) 0.91685(14) 0.38335(11)
Cl3_6 Cl 0.11291(15) 0.84143(14) 0.45029(11)
Cl5_6 Cl 0.10657(16) 0.67242(18) 0.54679(10)
N12_6 N 0.2828(5) 0.8247(5) 0.4819(3)
N13_6 N 0.2378(5) 0.9920(4) 0.4573(3)
N14_6 N 0.2668(5) 0.7557(5) 0.5436(3)
N21_6 N 0.1871(5) 0.9439(5) 0.3508(3)
N22_6 N 0.2489(5) 0.7661(5) 0.4995(3)
N25_6 N 0.1828(6) 0.9722(5) 0.5326(4)
H1_6 H 0.1733 0.9871 0.5612
H2_6 H 0.1675 0.9313 0.5234
C3_6 C 0.3235(6) 0.8487(6) 0.5178(4)
C4_6 C 0.2373(7) 0.9751(6) 0.1723(4)
N31_6 N 0.3658(5) 0.9064(6) 0.5140(4)
H5_6 H 0.3672 0.9296 0.4874
H6_6 H 0.3914 0.9202 0.5382
N33_6 N 0.1267(5) 0.9319(6) 0.3270(4)
N35_6 N 0.2721(8) 0.9307(6) 0.2019(4)
H7_6 H 0.2802 0.8877 0.1931
H8_6 H 0.2865 0.9452 0.2297
C8_6 C 0.1242(7) 0.9858(7) 0.2953(4)
N40_6 N 0.0715(8) 0.9964(9) 0.2630(5)
H17_6 H 0.0351 0.9677 0.2615
N43_4 N 0.0657(5) 0.6576(5) 0.4182(3)
N3_4 N 0.9343(5) 0.1576(5) 0.0818(3)
N4_6 N 0.9972(5) 0.1833(5) 0.0821(3)
C5_6 C 0.9947(6) 0.0927(7) 0.1293(4)
N36_6 N 0.9954(6) 0.3201(6) 0.1634(4)
H9_6 H 0.9981 0.2775 0.1744
H10_6 H 0.9572 0.3453 0.1689
H11_6 H 0.9838 0.0086 0.1690
N1_4 N 0.7956(5) 0.2158(5) 0.8505(3)
N2_4 N 0.8143(5) 0.6925(5) 0.4434(3)
N4_7 N 0.4972(5) 0.3167(5) 0.9179(3)
Cd1_4 Cd 0.64422(4) 0.30924(4) 0.86482(3)
Cd5_7 Cd 0.73094(5) 0.38366(4) 0.75017(3)
Cl1_7 Cl 0.85784(17) 0.44315(18) 0.72768(10)
Cl2_7 Cl 0.86466(15) 0.58315(14) 0.61665(11)
Cl3_7 Cl 0.61291(15) 0.65857(14) 0.54971(11)
Cl4_7 Cl 0.61000(16) 0.32039(16) 0.77306(10)
Cl5_7 Cl 0.60657(16) 0.82758(18) 0.45321(10)
N9_7 N 0.7185(5) 0.4992(5) 0.6660(3)
N10_7 N 0.7756(5) 0.4526(4) 0.5602(3)
N11_7 N 0.7780(5) 0.3346(4) 0.6437(3)
N12_7 N 0.7828(5) 0.6753(5) 0.5181(3)
N13_7 N 0.7378(5) 0.5080(4) 0.5427(3)
N14_7 N 0.7668(5) 0.7443(5) 0.4564(3)
N15_7 N 0.6864(5) 0.4309(5) 0.8563(3)
N16_7 N 0.5376(5) 0.3565(5) 0.8886(3)
N17_7 N 0.7465(5) 0.3088(5) 0.6829(3)
N18_7 N 0.6815(5) 0.4814(5) 0.8878(3)
N19_7 N 0.7567(5) 0.2685(5) 0.8346(3)
N20_7 N 0.7214(5) 0.4554(5) 0.8167(3)
N21_7 N 0.6871(5) 0.5561(5) 0.6492(3)
N22_7 N 0.7489(5) 0.7339(5) 0.5005(3)
N24_7 N 0.6802(5) 0.4712(5) 0.7016(3)
C1_7 C 0.7342(6) 0.2387(6) 0.6740(4)
C2_7 C 0.7210(6) 0.4876(6) 0.4974(4)
N25_7 N 0.6828(6) 0.5278(5) 0.4674(4)
H1_7 H 0.6733 0.5129 0.4388
H2_7 H 0.6675 0.5687 0.4766
N26_7 N 0.6097(5) 0.1888(5) 0.8714(3)
N27_7 N 0.8524(6) 0.2060(6) 0.8221(4)
C3_7 C 0.8235(6) 0.6513(6) 0.4822(4)
C4_7 C 0.7373(7) 0.5249(6) 0.8277(4)
N28_7 N 0.7040(6) 0.1914(5) 0.7055(3)
H3_7 H 0.6992 0.1476 0.6974
H4_7 H 0.6898 0.2054 0.7335
N29_7 N 0.7865(5) 0.2947(5) 0.7945(3)
N30_4 N 0.6503(5) 0.1410(5) 0.8932(4)
N31_7 N 0.8658(5) 0.5936(6) 0.4860(4)
H5_7 H 0.8672 0.5704 0.5126
H6_7 H 0.8914 0.5798 0.4618
N33_7 N 0.6267(5) 0.5681(6) 0.6730(4)
N34_7 N 0.6194(7) 0.0796(6) 0.8978(5)
C5_7 C 0.4947(6) 0.4073(7) 0.8707(4)
N35_7 N 0.7721(8) 0.5693(6) 0.7981(4)
H7_7 H 0.7802 0.6123 0.8069
H8_7 H 0.7865 0.5548 0.7703
N36_7 N 0.4954(6) 0.1799(6) 0.8366(4)
H9_7 H 0.4981 0.2225 0.8256
H10_7 H 0.4572 0.1547 0.8311
N37_7 N 0.5150(6) 0.4599(7) 0.8398(5)
H11_7 H 0.4838 0.4914 0.8310
H12_7 H 0.5590 0.4616 0.8291
N38_7 N 0.5548(6) 0.0870(6) 0.8773(5)
H13_7 H 0.5218 0.0549 0.8745
C6_7 C 0.5507(6) 0.1530(7) 0.8622(5)
C7_7 C 0.8458(7) 0.2549(7) 0.7882(4)
C8_7 C 0.6242(7) 0.5142(7) 0.7047(4)
N39_7 N 0.8920(7) 0.2644(8) 0.7515(5)
H14_7 H 0.9296 0.2375 0.7486
H15_7 H 0.8840 0.2974 0.7307
N40_7 N 0.5715(8) 0.5036(9) 0.7370(5)
H16_7 H 0.5738 0.4680 0.7563
H17_7 H 0.5351 0.5323 0.7385
N41_4 N 0.7044(5) 0.7842(5) 0.3505(3)
N42_4 N 0.6857(5) 0.3075(5) 0.9434(3)
Cd7_4 Cd 0.85578(4) 0.69076(4) 0.36482(3)
N49_4 N 0.8497(5) 0.8590(5) 0.3932(4)
N4_8 N 0.0028(5) 0.6833(5) 0.4179(3)
C5_8 C 0.0053(6) 0.5927(7) 0.3707(4)
N36_8 N 0.0046(6) 0.8201(6) 0.3366(4)
H9_8 H 0.0019 0.7775 0.3256
H10_8 H 0.0428 0.8453 0.3311
H11_8 H 0.0162 0.5086 0.3310
Cd5_8 Cd 0.76906(5) 0.61634(4) 0.25017(3)
Cl1_8 Cl 0.64216(17) 0.55685(18) 0.22768(10)
Cl2_8 Cl 0.63534(15) 0.41685(14) 0.11665(11)
Cl3_8 Cl 0.88709(15) 0.34143(14) 0.04971(11)
Cl4_8 Cl 0.89000(16) 0.67961(16) 0.27306(10)
N9_8 N 0.7815(5) 0.5008(5) 0.1660(3)
N10_8 N 0.7244(5) 0.5474(4) 0.0602(3)
N11_8 N 0.7220(5) 0.6654(4) 0.1437(3)
N12_8 N 0.7172(5) 0.3247(5) 0.0181(3)
N13_8 N 0.7622(5) 0.4920(4) 0.0427(3)
N15_8 N 0.8136(5) 0.5691(5) 0.3563(3)
N16_8 N 0.9624(5) 0.6435(5) 0.3886(3)
N17_8 N 0.7535(5) 0.6912(5) 0.1829(3)
N18_8 N 0.8185(5) 0.5186(5) 0.3878(3)
N19_8 N 0.7433(5) 0.7315(5) 0.3346(3)
N20_8 N 0.7786(5) 0.5446(5) 0.3167(3)
N21_8 N 0.8129(5) 0.4439(5) 0.1492(3)
N22_8 N 0.7511(5) 0.2661(5) 0.0005(3)
N24_8 N 0.8198(5) 0.5288(5) 0.2016(3)
C1_8 C 0.7658(6) 0.7613(6) 0.1740(4)
N26_8 N 0.8903(5) 0.8112(5) 0.3714(3)
N27_8 N 0.6476(6) 0.7940(6) 0.3221(4)
C4_8 C 0.7627(7) 0.4751(6) 0.3277(4)
N28_8 N 0.7960(6) 0.8086(5) 0.2055(3)
H3_8 H 0.8008 0.8524 0.1974
H4_8 H 0.8102 0.7946 0.2335
N29_8 N 0.7135(5) 0.7053(5) 0.2945(3)
H5_8 H 0.6328 0.4296 0.0126
N33_8 N 0.8733(5) 0.4319(6) 0.1730(4)
N34_8 N 0.8806(7) 0.9204(6) 0.3978(5)
N35_8 N 0.7279(8) 0.4307(6) 0.2981(4)
H7_8 H 0.7198 0.3877 0.3069
H8_8 H 0.7135 0.4452 0.2703
N37_8 N 0.9850(6) 0.5401(7) 0.3398(5)
H12_8 H 0.9410 0.5384 0.3291
N38_8 N 0.9452(6) 0.9130(6) 0.3773(5)
H13_8 H 0.9782 0.9451 0.3745
C6_8 C 0.9493(6) 0.8470(7) 0.3622(5)
C7_8 C 0.6542(7) 0.7451(7) 0.2882(4)
C8_8 C 0.8758(7) 0.4858(7) 0.2047(4)
N39_8 N 0.6080(7) 0.7356(8) 0.2515(5)
H14_8 H 0.5704 0.7625 0.2486
H15_8 H 0.6160 0.7026 0.2307
N40_8 N 0.9285(8) 0.4964(9) 0.2370(5)
H16_8 H 0.9262 0.5320 0.2563
H17_8 H 0.9649 0.4677 0.2385
Cl5_8 Cl 0.89343(16) 0.17242(18) 0.95321(10)
N14_8 N 0.7332(5) 0.2557(5) 0.9564(3)
C2_8 C 0.7790(6) 0.5124(6) 0.9974(4)
N25_8 N 0.8172(6) 0.4722(5) 0.9674(4)
H1_8 H 0.8267 0.4871 0.9388
H2_8 H 0.8325 0.4313 0.9766
C3_8 C 0.6765(6) 0.3487(6) 0.9822(4)
N31_8 N 0.6342(5) 0.4064(6) 0.9860(4)
H6_8 H 0.6086 0.4202 0.9618
loop_
_geom_bond_atom_site_label_1
_geom_bond_atom_site_label_2
_geom_bond_site_symmetry_1
_geom_bond_site_symmetry_2
N1 N19 1_555 1_555
N3 N4 1_555 1_555
N4 N16 1_555 1_555
N5 N23 1_555 1_555
Cd1 Cl4 1_555 1_555
Cd3 Cl1 1_555 1_555
Cd5 Cl1 1_555 1_555
Cl4 Cd5 1_555 1_555
N9 Cd3 1_555 1_555
N10 N6 1_555 1_555
N11 Cd3 1_555 1_555
N15 Cd1 1_555 1_555
N16 Cd1 1_555 1_555
N17 Cd5 1_555 1_555
N18 N15 1_555 1_555
N19 Cd1 1_555 1_555
N20 Cd5 1_555 1_555
N23 N11 1_555 1_555
N24 Cd5 1_555 1_555
C1 N5 1_555 1_555
N26 Cd1 1_555 1_555
N27 N1 1_555 1_555
N28 C1 1_555 1_555
H3 N28 1_555 1_555
H4 N28 1_555 1_555
N29 Cd5 1_555 1_555
N30 N26 1_555 1_555
N32 N3 1_555 1_555
N34 N30 1_555 1_555
C5 N16 1_555 1_555
N36 H9 1_555 1_555
H10 N36 1_555 1_555
N37 C5 1_555 1_555
H11 N37 1_555 1_555
H12 N37 1_555 1_555
N38 N34 1_555 1_555
H13 N38 1_555 1_555
C6 N26 1_555 1_555
C7 N27 1_555 1_555
N39 C7 1_555 1_555
H14 N39 1_555 1_555
H15 N39 1_555 1_555
N42 Cd1 1_555 1_555
Cd8 N5 1_555 1_555
Cd9 N32 1_555 1_555
Cd10 N1 1_555 1_555
Cd13 N3 1_555 1_555
Cd14 N6 1_555 1_555
N50 Cd3 1_555 1_555
Cd3 N10 1_555 1_555
N9 N24 1_555 1_555
N11 N17 1_555 1_555
N15 N20 1_555 1_555
N17 C1 1_555 1_555
N19 N29 1_555 1_555
N23 Cd14 1_555 1_555
N29 C7 1_555 1_555
N30 Cd10 1_555 1_555
N32 C5 1_555 1_555
N36 C6 1_555 1_555
N38 C6 1_555 1_555
N7 C2 1_555 1_555
Cd12 N7 1_555 1_555
Cd2 Cl2 1_555 1_555
Cd6 Cl3 1_555 1_555
Cl3 Cd2 1_555 1_555
N12 Cd2 1_555 1_555
N13 Cd2 1_555 1_555
N21 Cd2 1_555 1_555
N22 Cd6 1_555 1_555
C4 N8 1_555 1_555
N33 N21 1_555 1_555
N35 C4 1_555 1_555
H7 N35 1_555 1_555
H8 N35 1_555 1_555
N40 C8 1_555 1_555
H17 N40 1_555 1_555
N43 Cd6 1_555 1_555
N44 Cd2 1_555 1_555
N45 Cd6 1_555 1_555
Cd11 N8 1_555 1_555
N48 Cd6 1_555 1_555
N12 N22 1_555 1_555
N33 C8 1_555 1_555
N44 N48 1_555 1_555
N2 N14 1_555 1_555
Cd4 Cl5 1_555 1_555
N14 Cd4 1_555 1_555
H1 N25 1_555 1_555
H2 N25 1_555 1_555
C3 N2 1_555 1_555
N31 C3 1_555 1_555
H6 N31 1_555 1_555
N41 Cd4 1_555 1_555
N46 Cd4 1_555 1_555
N47 Cd4 1_555 1_555
Cd7 N2 1_555 1_555
N49 Cd4 1_555 1_555
N3_2 N4_2 1_555 1_555
N32_2 N3_2 1_555 1_555
N36_2 H9_2 1_555 1_555
H10_2 N36_2 1_555 1_555
Cd9_2 N32_2 1_555 1_555
Cd13_2 N3_2 1_555 1_555
N32_2 C5_2 1_555 1_555
N42 N14_2 1_555 1_555
Cd2_2 Cl2_2 1_555 1_555
Cd10 Cl5_2 1_555 1_555
Cd6_2 Cl3_2 1_555 1_555
Cl3_2 Cd2_2 1_555 1_555
Cl5_2 Cd6_2 1_555 1_555
N12_2 Cd2_2 1_555 1_555
N13_2 Cd2_2 1_555 1_555
N14_2 Cd10 1_555 1_555
N21_2 Cd2_2 1_555 1_555
N22_2 Cd6_2 1_555 1_555
H1_2 N25_2 1_555 1_555
H2_2 N25_2 1_555 1_555
C3_2 N42 1_555 1_555
C4_2 N8_2 1_555 1_555
N31_2 C3_2 1_555 1_555
H5_2 N31_2 1_555 1_555
H6_2 N31_2 1_555 1_555
N33_2 N21_2 1_555 1_555
N35_2 C4_2 1_555 1_555
H7_2 N35_2 1_555 1_555
H8_2 N35_2 1_555 1_555
N40_2 C8_2 1_555 1_555
H17_2 N40_2 1_555 1_555
N43_2 Cd6_2 1_555 1_555
N44_2 Cd2_2 1_555 1_555
N45_2 Cd6_2 1_555 1_555
N46_2 Cd10 1_555 1_555
N47_2 Cd10 1_555 1_555
Cd12 N8_2 1_555 1_555
N48_2 Cd6_2 1_555 1_555
N12_2 N22_2 1_555 1_555
N12_2 C3_2 1_555 1_555
N14_2 N22_2 1_555 1_555
N33_2 C8_2 1_555 1_555
N44_2 N48_2 1_555 1_555
N45_2 N46_2 1_555 1_555
N41 N19_2 1_555 1_555
N5_2 N23_2 1_555 1_555
N6_2 N7_2 1_555 1_555
N7_2 C2_2 1_555 1_555
Cd7 Cl4_2 1_555 1_555
Cd3_2 Cl1_2 1_555 1_555
Cd5_2 Cl1_2 1_555 1_555
Cl4_2 Cd5_2 1_555 1_555
N9_2 Cd3_2 1_555 1_555
N10_2 N6_2 1_555 1_555
N11_2 Cd3_2 1_555 1_555
N15_2 Cd7 1_555 1_555
N16_2 Cd7 1_555 1_555
N17_2 Cd5_2 1_555 1_555
N18_2 N15_2 1_555 1_555
N19_2 Cd7 1_555 1_555
N20_2 Cd5_2 1_555 1_555
N23_2 N11_2 1_555 1_555
N24_2 Cd5_2 1_555 1_555
C1_2 N5_2 1_555 1_555
N26_2 Cd7 1_555 1_555
N27_2 N41 1_555 1_555
N28_2 C1_2 1_555 1_555
H3_2 N28_2 1_555 1_555
H4_2 N28_2 1_555 1_555
N29_2 Cd5_2 1_555 1_555
N49 N26_2 1_555 1_555
N34_2 N49 1_555 1_555
H12_2 N37_2 1_555 1_555
N38_2 N34_2 1_555 1_555
H13_2 N38_2 1_555 1_555
C6_2 N26_2 1_555 1_555
C7_2 N27_2 1_555 1_555
N39_2 C7_2 1_555 1_555
H14_2 N39_2 1_555 1_555
H15_2 N39_2 1_555 1_555
Cd8_2 N5_2 1_555 1_555
Cd11 N7_2 1_555 1_555
Cd14_2 N6_2 1_555 1_555
N50_2 Cd3_2 1_555 1_555
Cd3_2 N10_2 1_555 1_555
N9_2 N24_2 1_555 1_555
N11_2 N17_2 1_555 1_555
N15_2 N20_2 1_555 1_555
N17_2 C1_2 1_555 1_555
N19_2 N29_2 1_555 1_555
N23_2 Cd14_2 1_555 1_555
N29_2 C7_2 1_555 1_555
N38_2 C6_2 1_555 1_555
N1_2 N19_3 1_555 1_555
N2_2 N14_3 1_555 1_555
N43 N4_3 1_555 1_555
N4_3 N16_3 1_555 1_555
N5_3 N23_3 1_555 1_555
N6_3 N7_3 1_555 1_555
N7_3 C2_3 1_555 1_555
N8_3 N18_3 1_555 1_555
Cd1_2 Cl4_3 1_555 1_555
Cd2_3 Cl2_3 1_555 1_555
Cd3_3 Cl1_3 1_555 1_555
Cd4_2 Cl5_3 1_555 1_555
Cd5_3 Cl1_3 1_555 1_555
Cd13 Cl3_3 1_555 1_555
Cl2_3 Cd3_3 1_555 1_555
Cl3_3 Cd2_3 1_555 1_555
Cl4_3 Cd5_3 1_555 1_555
Cl5_3 Cd13 1_555 1_555
N9_3 Cd3_3 1_555 1_555
N10_3 N6_3 1_555 1_555
N11_3 Cd3_3 1_555 1_555
N12_3 Cd2_3 1_555 1_555
N13_3 Cd2_3 1_555 1_555
N14_3 Cd4_2 1_555 1_555
N15_3 Cd1_2 1_555 1_555
N16_3 Cd1_2 1_555 1_555
N17_3 Cd5_3 1_555 1_555
N18_3 N15_3 1_555 1_555
N19_3 Cd1_2 1_555 1_555
N20_3 Cd5_3 1_555 1_555
N21_3 Cd2_3 1_555 1_555
N22_3 Cd13 1_555 1_555
N23_3 N11_3 1_555 1_555
N24_3 Cd5_3 1_555 1_555
C1_3 N5_3 1_555 1_555
C2_3 N13_3 1_555 1_555
N25_3 C2_3 1_555 1_555
H1_3 N25_3 1_555 1_555
H2_3 N25_3 1_555 1_555
N26_3 Cd1_2 1_555 1_555
N27_3 N1_2 1_555 1_555
C3_3 N2_2 1_555 1_555
C4_3 N8_3 1_555 1_555
N28_3 C1_3 1_555 1_555
H3_3 N28_3 1_555 1_555
H4_3 N28_3 1_555 1_555
N29_3 Cd5_3 1_555 1_555
N30_2 N26_3 1_555 1_555
N31_3 C3_3 1_555 1_555
H5_3 N31_3 1_555 1_555
H6_3 N31_3 1_555 1_555
N32_3 N43 1_555 1_555
N33_3 N21_3 1_555 1_555
N34_3 N30_2 1_555 1_555
C5_3 N16_3 1_555 1_555
N35_3 C4_3 1_555 1_555
H7_3 N35_3 1_555 1_555
H8_3 N35_3 1_555 1_555
N36_3 H9_3 1_555 1_555
H10_3 N36_3 1_555 1_555
N37_3 C5_3 1_555 1_555
H11_3 N37_3 1_555 1_555
H12_3 N37_3 1_555 1_555
N38_3 N34_3 1_555 1_555
H13_3 N38_3 1_555 1_555
C6_3 N26_3 1_555 1_555
C7_3 N27_3 1_555 1_555
C8_3 N24_3 1_555 1_555
N39_3 C7_3 1_555 1_555
H14_3 N39_3 1_555 1_555
H15_3 N39_3 1_555 1_555
N40_3 C8_3 1_555 1_555
H16_3 N40_3 1_555 1_555
H17_3 N40_3 1_555 1_555
N41_2 Cd4_2 1_555 1_555
N42_2 Cd1_2 1_555 1_555
N44_3 Cd2_3 1_555 1_555
N45_3 Cd13 1_555 1_555
N46_3 Cd4_2 1_555 1_555
N47_3 Cd4_2 1_555 1_555
Cd7_2 N2_2 1_555 1_555
Cd8_3 N5_3 1_555 1_555
Cd9_3 N32_3 1_555 1_555
Cd10_2 N1_2 1_555 1_555
Cd11_2 N8_3 1_555 1_555
Cd12_2 N7_3 1_555 1_555
Cd14_3 N6_3 1_555 1_555
N48_3 Cd13 1_555 1_555
N49_2 Cd4_2 1_555 1_555
N50_3 Cd3_3 1_555 1_555
Cd3_3 N10_3 1_555 1_555
N9_3 N21_3 1_555 1_555
N9_3 N24_3 1_555 1_555
N10_3 N13_3 1_555 1_555
N11_3 N17_3 1_555 1_555
N12_3 N22_3 1_555 1_555
N12_3 C3_3 1_555 1_555
N14_3 N22_3 1_555 1_555
N15_3 N20_3 1_555 1_555
N17_3 C1_3 1_555 1_555
N19_3 N29_3 1_555 1_555
N20_3 C4_3 1_555 1_555
N23_3 Cd14_3 1_555 1_555
N29_3 C7_3 1_555 1_555
N30_2 Cd10_2 1_555 1_555
N32_3 C5_3 1_555 1_555
N33_3 C8_3 1_555 1_555
N36_3 C6_3 1_555 1_555
N38_3 C6_3 1_555 1_555
N44_3 N48_3 1_555 1_555
N45_3 N46_3 1_555 1_555
N42_2 N14_4 1_555 1_555
N7_4 C2_4 1_555 1_555
Cd10_2 Cl5_4 1_555 1_555
N14_4 Cd10_2 1_555 1_555
N25_4 C2_4 1_555 1_555
H1_4 N25_4 1_555 1_555
H2_4 N25_4 1_555 1_555
C3_4 N42_2 1_555 1_555
N31_4 C3_4 1_555 1_555
H6_4 N31_4 1_555 1_555
N46_4 Cd10_2 1_555 1_555
N47_4 Cd10_2 1_555 1_555
Cd11_2 N7_4 1_555 1_555
N41_2 N19_4 1_555 1_555
N5_4 N23_4 1_555 1_555
N8_4 N18_4 1_555 1_555
Cd7_2 Cl4_4 1_555 1_555
Cd2_4 Cl2_4 1_555 1_555
Cd3_4 Cl1_4 1_555 1_555
Cd5_4 Cl1_4 1_555 1_555
Cd13_2 Cl3_4 1_555 1_555
Cl2_4 Cd3_4 1_555 1_555
Cl3_4 Cd2_4 1_555 1_555
Cl4_4 Cd5_4 1_555 1_555
N9_4 Cd3_4 1_555 1_555
N10_4 N6_4 1_555 1_555
N11_4 Cd3_4 1_555 1_555
N12_4 Cd2_4 1_555 1_555
N13_4 Cd2_4 1_555 1_555
N15_4 Cd7_2 1_555 1_555
N16_4 Cd7_2 1_555 1_555
N17_4 Cd5_4 1_555 1_555
N18_4 N15_4 1_555 1_555
N19_4 Cd7_2 1_555 1_555
N20_4 Cd5_4 1_555 1_555
N21_4 Cd2_4 1_555 1_555
N22_4 Cd13_2 1_555 1_555
N23_4 N11_4 1_555 1_555
N24_4 Cd5_4 1_555 1_555
C1_4 N5_4 1_555 1_555
N26_4 Cd7_2 1_555 1_555
N27_4 N41_2 1_555 1_555
C4_4 N8_4 1_555 1_555
N28_4 C1_4 1_555 1_555
H3_4 N28_4 1_555 1_555
H4_4 N28_4 1_555 1_555
N29_4 Cd5_4 1_555 1_555
N49_2 N26_4 1_555 1_555
N33_4 N21_4 1_555 1_555
N34_4 N49_2 1_555 1_555
N35_4 C4_4 1_555 1_555
H7_4 N35_4 1_555 1_555
H8_4 N35_4 1_555 1_555
H12_4 N37_4 1_555 1_555
N38_4 N34_4 1_555 1_555
H13_4 N38_4 1_555 1_555
C6_4 N26_4 1_555 1_555
C7_4 N27_4 1_555 1_555
C8_4 N24_4 1_555 1_555
N39_4 C7_4 1_555 1_555
H14_4 N39_4 1_555 1_555
H15_4 N39_4 1_555 1_555
N40_4 C8_4 1_555 1_555
H16_4 N40_4 1_555 1_555
H17_4 N40_4 1_555 1_555
N44_4 Cd2_4 1_555 1_555
N45_4 Cd13_2 1_555 1_555
Cd8_4 N5_4 1_555 1_555
Cd12_2 N8_4 1_555 1_555
Cd14_4 N6_4 1_555 1_555
N48_4 Cd13_2 1_555 1_555
N50_4 Cd3_4 1_555 1_555
Cd3_4 N10_4 1_555 1_555
N9_4 N21_4 1_555 1_555
N9_4 N24_4 1_555 1_555
N10_4 N13_4 1_555 1_555
N11_4 N17_4 1_555 1_555
N12_4 N22_4 1_555 1_555
N15_4 N20_4 1_555 1_555
N17_4 C1_4 1_555 1_555
N19_4 N29_4 1_555 1_555
N20_4 C4_4 1_555 1_555
N23_4 Cd14_4 1_555 1_555
N29_4 C7_4 1_555 1_555
N33_4 C8_4 1_555 1_555
N38_4 C6_4 1_555 1_555
N44_4 N48_4 1_555 1_555
N43_2 N4_4 1_555 1_555
N32_4 N43_2 1_555 1_555
N36_4 H9_4 1_555 1_555
H10_4 N36_4 1_555 1_555
Cd9_4 N32_4 1_555 1_555
N32_4 C5_4 1_555 1_555
N2_3 N14_5 1_555 1_555
Cd11_2 Cl5_5 1_555 1_555
N14_5 Cd11_2 1_555 1_555
H1_5 N25_5 1_555 1_555
H2_5 N25_5 1_555 1_555
C3_5 N2_3 1_555 1_555
N31_5 C3_5 1_555 1_555
H6_5 N31_5 1_555 1_555
N41_3 Cd11_2 1_555 1_555
Cd7_3 N2_3 1_555 1_555
N49_3 Cd11_2 1_555 1_555
Cd8_4 Cl2_5 1_555 1_555
Cd14_4 Cl3_5 1_555 1_555
Cl3_5 Cd8_4 1_555 1_555
N12_5 Cd8_4 1_555 1_555
N13_5 Cd8_4 1_555 1_555
N21_5 Cd8_4 1_555 1_555
N22_5 Cd14_4 1_555 1_555
C4_5 N47_3 1_555 1_555
N33_5 N21_5 1_555 1_555
N35_5 C4_5 1_555 1_555
H7_5 N35_5 1_555 1_555
H8_5 N35_5 1_555 1_555
N40_5 C8_5 1_555 1_555
H17_5 N40_5 1_555 1_555
N43_3 Cd14_4 1_555 1_555
N12_5 N22_5 1_555 1_555
N33_5 C8_5 1_555 1_555
N46_4 C2_5 1_555 1_555
N1_3 N19_5 1_555 1_555
N3_3 N4_5 1_555 1_555
N4_5 N16_5 1_555 1_555
Cd1_3 Cl4_5 1_555 1_555
Cd9_2 Cl1_5 1_555 1_555
Cd5_5 Cl1_5 1_555 1_555
Cl4_5 Cd5_5 1_555 1_555
N9_5 Cd9_2 1_555 1_555
N10_5 N45_4 1_555 1_555
N11_5 Cd9_2 1_555 1_555
N15_5 Cd1_3 1_555 1_555
N16_5 Cd1_3 1_555 1_555
N17_5 Cd5_5 1_555 1_555
N18_5 N15_5 1_555 1_555
N19_5 Cd1_3 1_555 1_555
N20_5 Cd5_5 1_555 1_555
N48_4 N11_5 1_555 1_555
N24_5 Cd5_5 1_555 1_555
C1_5 N44_4 1_555 1_555
N26_5 Cd1_3 1_555 1_555
N27_5 N1_3 1_555 1_555
N28_5 C1_5 1_555 1_555
H3_5 N28_5 1_555 1_555
H4_5 N28_5 1_555 1_555
N29_5 Cd5_5 1_555 1_555
N30_3 N26_5 1_555 1_555
N50_2 N3_3 1_555 1_555
N34_5 N30_3 1_555 1_555
C5_5 N16_5 1_555 1_555
N36_5 H9_5 1_555 1_555
H10_5 N36_5 1_555 1_555
N37_5 C5_5 1_555 1_555
H11_5 N37_5 1_555 1_555
H12_5 N37_5 1_555 1_555
N38_5 N34_5 1_555 1_555
H13_5 N38_5 1_555 1_555
C6_5 N26_5 1_555 1_555
C7_5 N27_5 1_555 1_555
N39_5 C7_5 1_555 1_555
H14_5 N39_5 1_555 1_555
H15_5 N39_5 1_555 1_555
N42_3 Cd1_3 1_555 1_555
Cd12_2 N1_3 1_555 1_555
Cd14_2 N3_3 1_555 1_555
Cd9_2 N10_5 1_555 1_555
N9_5 N24_5 1_555 1_555
N11_5 N17_5 1_555 1_555
N15_5 N20_5 1_555 1_555
N17_5 C1_5 1_555 1_555
N19_5 N29_5 1_555 1_555
N29_5 C7_5 1_555 1_555
N30_3 Cd12_2 1_555 1_555
N50_2 C5_5 1_555 1_555
N36_5 C6_5 1_555 1_555
N38_5 C6_5 1_555 1_555
N41_3 N19_6 1_555 1_555
N46_3 C2_6 1_555 1_555
Cd7_3 Cl4_6 1_555 1_555
Cd9 Cl1_6 1_555 1_555
Cd5_6 Cl1_6 1_555 1_555
Cl4_6 Cd5_6 1_555 1_555
N9_6 Cd9 1_555 1_555
N10_6 N45_3 1_555 1_555
N11_6 Cd9 1_555 1_555
N15_6 Cd7_3 1_555 1_555
N16_6 Cd7_3 1_555 1_555
N17_6 Cd5_6 1_555 1_555
N18_6 N15_6 1_555 1_555
N19_6 Cd7_3 1_555 1_555
N20_6 Cd5_6 1_555 1_555
N48_3 N11_6 1_555 1_555
N24_6 Cd5_6 1_555 1_555
C1_6 N44_3 1_555 1_555
N26_6 Cd7_3 1_555 1_555
N27_6 N41_3 1_555 1_555
N28_6 C1_6 1_555 1_555
H3_6 N28_6 1_555 1_555
H4_6 N28_6 1_555 1_555
N29_6 Cd5_6 1_555 1_555
N49_3 N26_6 1_555 1_555
N34_6 N49_3 1_555 1_555
H12_6 N37_6 1_555 1_555
N38_6 N34_6 1_555 1_555
H13_6 N38_6 1_555 1_555
C6_6 N26_6 1_555 1_555
C7_6 N27_6 1_555 1_555
N39_6 C7_6 1_555 1_555
H14_6 N39_6 1_555 1_555
H15_6 N39_6 1_555 1_555
Cd9 N10_6 1_555 1_555
N9_6 N24_6 1_555 1_555
N11_6 N17_6 1_555 1_555
N15_6 N20_6 1_555 1_555
N17_6 C1_6 1_555 1_555
N19_6 N29_6 1_555 1_555
N29_6 C7_6 1_555 1_555
N38_6 C6_6 1_555 1_555
N42_3 N14_6 1_555 1_555
Cd8_3 Cl2_6 1_555 1_555
Cd12_2 Cl5_6 1_555 1_555
Cd14_3 Cl3_6 1_555 1_555
Cl3_6 Cd8_3 1_555 1_555
Cl5_6 Cd14_3 1_555 1_555
N12_6 Cd8_3 1_555 1_555
N13_6 Cd8_3 1_555 1_555
N14_6 Cd12_2 1_555 1_555
N21_6 Cd8_3 1_555 1_555
N22_6 Cd14_3 1_555 1_555
H1_6 N25_6 1_555 1_555
H2_6 N25_6 1_555 1_555
C3_6 N42_3 1_555 1_555
C4_6 N47_4 1_555 1_555
N31_6 C3_6 1_555 1_555
H5_6 N31_6 1_555 1_555
H6_6 N31_6 1_555 1_555
N33_6 N21_6 1_555 1_555
N35_6 C4_6 1_555 1_555
H7_6 N35_6 1_555 1_555
H8_6 N35_6 1_555 1_555
N40_6 C8_6 1_555 1_555
H17_6 N40_6 1_555 1_555
N43_4 Cd14_3 1_555 1_555
N12_6 N22_6 1_555 1_555
N12_6 C3_6 1_555 1_555
N14_6 N22_6 1_555 1_555
N33_6 C8_6 1_555 1_555
N3_4 N4_6 1_555 1_555
N50 N3_4 1_555 1_555
N36_6 H9_6 1_555 1_555
H10_6 N36_6 1_555 1_555
Cd14 N3_4 1_555 1_555
N50 C5_6 1_555 1_555
N1_4 N19_7 1_555 1_555
N2_4 N14_7 1_555 1_555
N43_3 N4_7 1_555 1_555
N4_7 N16_7 1_555 1_555
N46_2 C2_7 1_555 1_555
N47 N18_7 1_555 1_555
Cd1_4 Cl4_7 1_555 1_555
Cd8_2 Cl2_7 1_555 1_555
Cd9_4 Cl1_7 1_555 1_555
Cd11 Cl5_7 1_555 1_555
Cd5_7 Cl1_7 1_555 1_555
Cd14_2 Cl3_7 1_555 1_555
Cl2_7 Cd9_4 1_555 1_555
Cl3_7 Cd8_2 1_555 1_555
Cl4_7 Cd5_7 1_555 1_555
Cl5_7 Cd14_2 1_555 1_555
N9_7 Cd9_4 1_555 1_555
N10_7 N45_2 1_555 1_555
N11_7 Cd9_4 1_555 1_555
N12_7 Cd8_2 1_555 1_555
N13_7 Cd8_2 1_555 1_555
N14_7 Cd11 1_555 1_555
N15_7 Cd1_4 1_555 1_555
N16_7 Cd1_4 1_555 1_555
N17_7 Cd5_7 1_555 1_555
N18_7 N15_7 1_555 1_555
N19_7 Cd1_4 1_555 1_555
N20_7 Cd5_7 1_555 1_555
N21_7 Cd8_2 1_555 1_555
N22_7 Cd14_2 1_555 1_555
N48_2 N11_7 1_555 1_555
N24_7 Cd5_7 1_555 1_555
C1_7 N44_2 1_555 1_555
C2_7 N13_7 1_555 1_555
N25_7 C2_7 1_555 1_555
H1_7 N25_7 1_555 1_555
H2_7 N25_7 1_555 1_555
N26_7 Cd1_4 1_555 1_555
N27_7 N1_4 1_555 1_555
C3_7 N2_4 1_555 1_555
C4_7 N47 1_555 1_555
N28_7 C1_7 1_555 1_555
H3_7 N28_7 1_555 1_555
H4_7 N28_7 1_555 1_555
N29_7 Cd5_7 1_555 1_555
N30_4 N26_7 1_555 1_555
N31_7 C3_7 1_555 1_555
H5_7 N31_7 1_555 1_555
H6_7 N31_7 1_555 1_555
N50_4 N43_3 1_555 1_555
N33_7 N21_7 1_555 1_555
N34_7 N30_4 1_555 1_555
C5_7 N16_7 1_555 1_555
N35_7 C4_7 1_555 1_555
H7_7 N35_7 1_555 1_555
H8_7 N35_7 1_555 1_555
N36_7 H9_7 1_555 1_555
H10_7 N36_7 1_555 1_555
N37_7 C5_7 1_555 1_555
H11_7 N37_7 1_555 1_555
H12_7 N37_7 1_555 1_555
N38_7 N34_7 1_555 1_555
H13_7 N38_7 1_555 1_555
C6_7 N26_7 1_555 1_555
C7_7 N27_7 1_555 1_555
C8_7 N24_7 1_555 1_555
N39_7 C7_7 1_555 1_555
H14_7 N39_7 1_555 1_555
H15_7 N39_7 1_555 1_555
N40_7 C8_7 1_555 1_555
H16_7 N40_7 1_555 1_555
H17_7 N40_7 1_555 1_555
N41_4 Cd11 1_555 1_555
N42_4 Cd1_4 1_555 1_555
Cd7_4 N2_4 1_555 1_555
Cd12 N1_4 1_555 1_555
N49_4 Cd11 1_555 1_555
Cd9_4 N10_7 1_555 1_555
N9_7 N21_7 1_555 1_555
N9_7 N24_7 1_555 1_555
N10_7 N13_7 1_555 1_555
N11_7 N17_7 1_555 1_555
N12_7 N22_7 1_555 1_555
N12_7 C3_7 1_555 1_555
N14_7 N22_7 1_555 1_555
N15_7 N20_7 1_555 1_555
N17_7 C1_7 1_555 1_555
N19_7 N29_7 1_555 1_555
N20_7 C4_7 1_555 1_555
N29_7 C7_7 1_555 1_555
N30_4 Cd12 1_555 1_555
N50_4 C5_7 1_555 1_555
N33_7 C8_7 1_555 1_555
N36_7 C6_7 1_555 1_555
N38_7 C6_7 1_555 1_555
N43_4 N4_8 1_555 1_555
N50_3 N43_4 1_555 1_555
N36_8 H9_8 1_555 1_555
H10_8 N36_8 1_555 1_555
N50_3 C5_8 1_555 1_555
N41_4 N19_8 1_555 1_555
N47_2 N18_8 1_555 1_555
Cd7_4 Cl4_8 1_555 1_555
Cd8 Cl2_8 1_555 1_555
Cd9_3 Cl1_8 1_555 1_555
Cd5_8 Cl1_8 1_555 1_555
Cd14 Cl3_8 1_555 1_555
Cl2_8 Cd9_3 1_555 1_555
Cl3_8 Cd8 1_555 1_555
Cl4_8 Cd5_8 1_555 1_555
N9_8 Cd9_3 1_555 1_555
N10_8 N45 1_555 1_555
N11_8 Cd9_3 1_555 1_555
N12_8 Cd8 1_555 1_555
N13_8 Cd8 1_555 1_555
N15_8 Cd7_4 1_555 1_555
N16_8 Cd7_4 1_555 1_555
N17_8 Cd5_8 1_555 1_555
N18_8 N15_8 1_555 1_555
N19_8 Cd7_4 1_555 1_555
N20_8 Cd5_8 1_555 1_555
N21_8 Cd8 1_555 1_555
N22_8 Cd14 1_555 1_555
N48 N11_8 1_555 1_555
N24_8 Cd5_8 1_555 1_555
C1_8 N44 1_555 1_555
N26_8 Cd7_4 1_555 1_555
N27_8 N41_4 1_555 1_555
C4_8 N47_2 1_555 1_555
N28_8 C1_8 1_555 1_555
H3_8 N28_8 1_555 1_555
H4_8 N28_8 1_555 1_555
N29_8 Cd5_8 1_555 1_555
N49_4 N26_8 1_555 1_555
N33_8 N21_8 1_555 1_555
N34_8 N49_4 1_555 1_555
N35_8 C4_8 1_555 1_555
H7_8 N35_8 1_555 1_555
H8_8 N35_8 1_555 1_555
H12_8 N37_8 1_555 1_555
N38_8 N34_8 1_555 1_555
H13_8 N38_8 1_555 1_555
C6_8 N26_8 1_555 1_555
C7_8 N27_8 1_555 1_555
C8_8 N24_8 1_555 1_555
N39_8 C7_8 1_555 1_555
H14_8 N39_8 1_555 1_555
H15_8 N39_8 1_555 1_555
N40_8 C8_8 1_555 1_555
H16_8 N40_8 1_555 1_555
H17_8 N40_8 1_555 1_555
Cd9_3 N10_8 1_555 1_555
N9_8 N21_8 1_555 1_555
N9_8 N24_8 1_555 1_555
N10_8 N13_8 1_555 1_555
N11_8 N17_8 1_555 1_555
N12_8 N22_8 1_555 1_555
N15_8 N20_8 1_555 1_555
N17_8 C1_8 1_555 1_555
N19_8 N29_8 1_555 1_555
N20_8 C4_8 1_555 1_555
N29_8 C7_8 1_555 1_555
N33_8 C8_8 1_555 1_555
N38_8 C6_8 1_555 1_555
N42_4 N14_8 1_555 1_555
N46 C2_8 1_555 1_555
Cd12 Cl5_8 1_555 1_555
N14_8 Cd12 1_555 1_555
N25_8 C2_8 1_555 1_555
H1_8 N25_8 1_555 1_555
H2_8 N25_8 1_555 1_555
C3_8 N42_4 1_555 1_555
N31_8 C3_8 1_555 1_555
H6_8 N31_8 1_555 1_555

#END
