
###############################################################################
#
# This file contains modified crystal structure data generated from the
# MOF subset of the Cambridge Structural Database (CSD) v543 
# hosted by the Cambridge Crystallographic Data Centre (CCDC).
#
# This work is licensed under the Creative Commons
# Attribution-NonCommercial-ShareAlike 4.0 International License.
# To view a copy of this license, visit
# http://creativecommons.org/licenses/by-nc-sa/4.0/
# or send a letter to
# Creative Commons, PO Box 1866, Mountain View, CA 94042, USA.
#
# CIF created using the CSD Python API on 29 September 2022
# The structure has been converted into the P1 space group
# The structure has a 3D framework
# The original CSD entry FIBMAG is in the monoclinic crystal system
# The framework has been calculated to contain at least 10.0% void space
# The void calculation uses a probe of radius 1.32A, grid spacing 0.4
#
###############################################################################

data_FIBMAG
_chemical_formula_moiety         '(C224 H176 Cd8 N32 O28)n'
_symmetry_cell_setting           triclinic
_symmetry_space_group_name_H-M   'P 1'
_symmetry_Int_Tables_number      1
_space_group_name_Hall           'P 1'
loop_
_symmetry_equiv_pos_site_id
_symmetry_equiv_pos_as_xyz
1 x,y,z
_cell_length_a                   25.328(5)
_cell_length_b                   11.327(5)
_cell_length_c                   20.358(5)
_cell_angle_alpha                90
_cell_angle_beta                 110.460(5)
_cell_angle_gamma                90
_cell_volume                     5472.07
loop_
_atom_site_label
_atom_site_type_symbol
_atom_site_fract_x
_atom_site_fract_y
_atom_site_fract_z
H4 H 0.0090 0.4210 0.1041
O5 O 0.22505(10) 0.6298(2) 0.01551(13)
C32 C 0.12673(16) 0.5569(4) 0.0404(2)
H23 H 0.1608 0.5530 0.0777
C33 C 0.07767(16) 0.5180(4) 0.0493(2)
H24 H 0.0796 0.4884 0.0926
Cd4 Cd 0.263216(10) 0.71931(2) 0.123035(12)
O6 O 0.17369(11) 0.6683(3) 0.90400(14)
C29 C 0.17892(14) 0.6367(3) 0.96558(18)
C30 C 0.02612(14) 0.5223(3) 0.99541(19)
C31 C 0.12549(14) 0.6012(3) 0.97668(18)
C34 C 0.02515(18) 0.5717(6) 0.9327(2)
C35 C 0.07408(18) 0.6106(5) 0.9237(2)
H26 H 0.0721 0.6436 0.8811
Cd2 Cd 0.236784(10) 0.78069(2) 0.876965(12)
N5 N 0.66867(13) 0.4250(3) 0.84656(17)
N6 N 0.39561(14) 0.5875(4) 0.90845(19)
N7 N 0.31475(13) 0.6623(3) 0.90476(18)
N8 N 0.59224(13) 0.5208(3) 0.84401(18)
C43 C 0.54140(15) 0.5431(4) 0.8589(2)
C44 C 0.35508(16) 0.6676(4) 0.8777(2)
H31 H 0.3555 0.7193 0.8424
C45 C 0.45419(17) 0.4617(4) 0.8634(2)
C46 C 0.44597(16) 0.5691(4) 0.8917(2)
C47 C 0.62481(16) 0.4244(4) 0.8670(2)
H32 H 0.6172 0.3650 0.8939
C48 C 0.48432(18) 0.6599(4) 0.9039(3)
H33 H 0.4772 0.7302 0.9229
C49 C 0.53352(18) 0.6494(4) 0.8884(3)
C50 C 0.50307(17) 0.4522(4) 0.8466(2)
H34 H 0.5099 0.3827 0.8266
C51 C 0.3302(2) 0.5765(5) 0.9545(2)
H35 H 0.3094 0.5533 0.9820
C52 C 0.6167(2) 0.5865(4) 0.8057(3)
H36 H 0.6036 0.6574 0.7827
C53 C 0.4130(2) 0.3607(6) 0.8484(4)
H37 H 0.3752 0.3911 0.8317
H38 H 0.4183 0.3104 0.8133
H39 H 0.4191 0.3162 0.8906
C54 C 0.66371(19) 0.5269(4) 0.8081(3)
H40 H 0.6889 0.5514 0.7868
C55 C 0.5766(3) 0.7481(6) 0.9069(5)
H41 H 0.5713 0.7961 0.8662
H42 H 0.5719 0.7957 0.9435
H43 H 0.6138 0.7150 0.9226
C56 C 0.3796(2) 0.5307(6) 0.9582(3)
H44 H 0.3995 0.4716 0.9886
Cd7 Cd 0.736784(10) 0.28069(2) 0.876965(12)
O9 O 0.27495(10) 0.8702(2) 0.98449(13)
O11 O 0.27019(14) 0.8639(3) 0.78554(15)
O12 O 0.20825(14) 0.7190(3) 0.76004(16)
N10 N 0.16867(13) 0.9250(3) 0.84656(17)
Cd1 Cd 0.763216(10) 0.21931(2) 0.123035(12)
O2 O 0.82631(11) 0.3317(3) 0.09600(14)
O3 O 0.72981(14) 0.1361(3) 0.21446(15)
O4 O 0.79175(14) 0.2810(3) 0.23996(16)
N1 N 0.33133(13) 0.5750(3) 0.15344(17)
N2 N 0.60439(14) 0.4125(4) 0.09155(19)
N3 N 0.68525(13) 0.3377(3) 0.09524(18)
N4 N 0.40776(13) 0.4792(3) 0.15599(18)
C1 C 0.82108(14) 0.3633(3) 0.03442(18)
C2 C 0.7520(2) 0.2423(4) 0.4647(2)
C3 C 0.97388(14) 0.4777(3) 0.00459(19)
C4 C 0.45860(15) 0.4569(4) 0.1411(2)
C5 C 0.87451(14) 0.3988(3) 0.02332(18)
C6 C 0.64492(16) 0.3324(4) 0.1223(2)
H1 H 0.6445 0.2807 0.1576
C8 C 0.76059(18) 0.2093(4) 0.2571(2)
C10 C 0.54581(17) 0.5383(4) 0.1366(2)
C11 C 0.55403(16) 0.4309(4) 0.1083(2)
C12 C 0.97485(18) 0.4283(6) 0.0673(2)
C13 C 0.37519(16) 0.5756(4) 0.1330(2)
H5 H 0.3828 0.6350 0.1061
C14 C 0.75910(19) 0.2167(4) 0.3303(2)
C15 C 0.51568(18) 0.3401(4) 0.0961(3)
H6 H 0.5228 0.2698 0.0771
C16 C 0.46648(18) 0.3506(4) 0.1116(3)
C17 C 0.49693(17) 0.5478(4) 0.1534(2)
H7 H 0.4901 0.6173 0.1734
C18 C 0.6698(2) 0.4235(5) 0.0455(2)
H8 H 0.6906 0.4467 0.0180
C19 C 0.92592(18) 0.3894(5) 0.0763(2)
H9 H 0.9279 0.3564 0.1189
C20 C 0.3833(2) 0.4135(4) 0.1943(3)
H10 H 0.3964 0.3426 0.2173
C21 C 0.5870(2) 0.6393(6) 0.1516(4)
H11 H 0.6248 0.6089 0.1683
H12 H 0.5817 0.6896 0.1867
H13 H 0.5809 0.6838 0.1094
C22 C 0.33629(19) 0.4731(4) 0.1919(3)
H14 H 0.3111 0.4486 0.2132
C23 C 0.7879(3) 0.3034(7) 0.3748(3)
H15 H 0.8104 0.3550 0.3607
C24 C 0.7279(3) 0.1396(5) 0.3539(3)
H16 H 0.7092 0.0776 0.3253
C25 C 0.4234(3) 0.2519(6) 0.0931(5)
H17 H 0.4287 0.2039 0.1338
H18 H 0.4281 0.2043 0.0565
H19 H 0.3862 0.2850 0.0774
C26 C 0.7842(3) 0.3164(7) 0.4414(3)
H20 H 0.8042 0.3769 0.4704
C27 C 0.6204(2) 0.4693(6) 0.0418(3)
H21 H 0.6005 0.5284 0.0114
C28 C 0.7241(3) 0.1528(5) 0.4202(3)
H22 H 0.7022 0.1002 0.4347
O7 O 0.77019(14) 0.3639(3) 0.78554(15)
O8 O 0.70825(14) 0.2190(3) 0.76004(16)
C36 C 0.7480(2) 0.2577(4) 0.5353(2)
C37 C 0.73941(18) 0.2907(4) 0.7429(2)
C38 C 0.74090(19) 0.2833(4) 0.6697(2)
C39 C 0.7121(3) 0.1966(7) 0.6252(3)
H27 H 0.6896 0.1450 0.6393
C40 C 0.7721(3) 0.3604(5) 0.6461(3)
H28 H 0.7908 0.4224 0.6747
C41 C 0.7158(3) 0.1836(7) 0.5586(3)
H29 H 0.6958 0.1231 0.5296
C42 C 0.7759(3) 0.3472(5) 0.5798(3)
H30 H 0.7978 0.3998 0.5653
O10 O 0.72505(10) 0.1298(2) 0.01551(13)
N9 N 0.83133(13) 0.0750(3) 0.15344(17)
O1 O 0.77495(10) 0.3702(2) 0.98449(13)
C7 C 0.87327(16) 0.4431(4) 0.9596(2)
H2 H 0.8392 0.4470 0.9223
C9 C 0.92233(16) 0.4820(4) 0.9507(2)
H3 H 0.9204 0.5116 0.9074
H25 H 0.9910 0.5790 0.8959
C47_2 C 0.12481(16) 0.9244(4) 0.8670(2)
H32_2 H 0.1172 0.8650 0.8939
C50_2 C 0.00307(17) 0.9522(4) 0.8466(2)
H34_2 H 0.0099 0.8827 0.8266
C10_2 C 0.04581(17) 0.0383(4) 0.1366(2)
C21_2 C 0.0870(2) 0.1393(6) 0.1516(4)
H11_2 H 0.1248 0.1089 0.1683
H12_2 H 0.0817 0.1896 0.1867
H13_2 H 0.0809 0.1838 0.1094
H21_2 H 0.1005 0.0284 0.0114
C32_2 C 0.62673(16) 0.0569(4) 0.0404(2)
H23_2 H 0.6608 0.0530 0.0777
C33_2 C 0.57767(16) 0.0180(4) 0.0493(2)
H3_2 H 0.4204 0.0116 0.9074
O6_2 O 0.67369(11) 0.1683(3) 0.90400(14)
C29_2 C 0.67892(14) 0.1367(3) 0.96558(18)
C30_2 C 0.52612(14) 0.0223(3) 0.99541(19)
C31_2 C 0.62549(14) 0.1012(3) 0.97668(18)
C34_2 C 0.52515(18) 0.0717(6) 0.9327(2)
H25_2 H 0.4910 0.0790 0.8959
C35_2 C 0.57408(18) 0.1106(5) 0.9237(2)
H26_2 H 0.5721 0.1436 0.8811
N6_2 N 0.89561(14) 0.0875(4) 0.90845(19)
N7_2 N 0.81475(13) 0.1623(3) 0.90476(18)
C44_2 C 0.85508(16) 0.1676(4) 0.8777(2)
H31_2 H 0.8555 0.2193 0.8424
C46_2 C 0.94597(16) 0.0691(4) 0.8917(2)
C48_2 C 0.98432(18) 0.1599(4) 0.9039(3)
H33_2 H 0.9772 0.2302 0.9229
C51_2 C 0.8302(2) 0.0765(5) 0.9545(2)
H35_2 H 0.8094 0.0533 0.9820
C56_2 C 0.8796(2) 0.0307(6) 0.9582(3)
O2_2 O 0.32631(11) 0.8317(3) 0.09600(14)
O3_2 O 0.22981(14) 0.6361(3) 0.21446(15)
O4_2 O 0.29175(14) 0.7810(3) 0.23996(16)
N2_2 N 0.10439(14) 0.9125(4) 0.09155(19)
N3_2 N 0.18525(13) 0.8377(3) 0.09524(18)
C1_2 C 0.32108(14) 0.8633(3) 0.03442(18)
C2_2 C 0.2520(2) 0.7423(4) 0.4647(2)
C3_2 C 0.47388(14) 0.9777(3) 0.00459(19)
C5_2 C 0.37451(14) 0.8988(3) 0.02332(18)
C6_2 C 0.14492(16) 0.8324(4) 0.1223(2)
H1_2 H 0.1445 0.7807 0.1576
C8_2 C 0.26059(18) 0.7093(4) 0.2571(2)
C11_2 C 0.05403(16) 0.9309(4) 0.1083(2)
C12_2 C 0.47485(18) 0.9283(6) 0.0673(2)
H4_2 H 0.5090 0.9210 0.1041
C14_2 C 0.25910(19) 0.7167(4) 0.3303(2)
C15_2 C 0.01568(18) 0.8401(4) 0.0961(3)
H6_2 H 0.0228 0.7698 0.0771
C18_2 C 0.1698(2) 0.9235(5) 0.0455(2)
H8_2 H 0.1906 0.9467 0.0180
C19_2 C 0.42592(18) 0.8894(5) 0.0763(2)
H9_2 H 0.4279 0.8564 0.1189
C23_2 C 0.2879(3) 0.8034(7) 0.3748(3)
H15_2 H 0.3104 0.8550 0.3607
C24_2 C 0.2279(3) 0.6396(5) 0.3539(3)
H16_2 H 0.2092 0.5776 0.3253
C26_2 C 0.2842(3) 0.8164(7) 0.4414(3)
H20_2 H 0.3042 0.8769 0.4704
C27_2 C 0.1204(2) 0.9693(6) 0.0418(3)
C28_2 C 0.2241(3) 0.6528(5) 0.4202(3)
H22_2 H 0.2022 0.6002 0.4347
H24_2 H 0.5796 0.9884 0.0926
C36_2 C 0.2480(2) 0.7577(4) 0.5353(2)
C37_2 C 0.23941(18) 0.7907(4) 0.7429(2)
C38_2 C 0.24090(19) 0.7833(4) 0.6697(2)
C39_2 C 0.2121(3) 0.6966(7) 0.6252(3)
H27_2 H 0.1896 0.6450 0.6393
C40_2 C 0.2721(3) 0.8604(5) 0.6461(3)
H28_2 H 0.2908 0.9224 0.6747
C41_2 C 0.2158(3) 0.6836(7) 0.5586(3)
H29_2 H 0.1958 0.6231 0.5296
C42_2 C 0.2759(3) 0.8472(5) 0.5798(3)
H30_2 H 0.2978 0.8998 0.5653
C7_2 C 0.37327(16) 0.9431(4) 0.9596(2)
H2_2 H 0.3392 0.9470 0.9223
C9_2 C 0.42233(16) 0.9820(4) 0.9507(2)
C45_2 C 0.95419(17) 0.9617(4) 0.8634(2)
C53_2 C 0.9130(2) 0.8607(6) 0.8484(4)
H37_2 H 0.8752 0.8911 0.8317
H38_2 H 0.9183 0.8104 0.8133
H39_2 H 0.9191 0.8162 0.8906
H44_2 H 0.8995 0.9716 0.9886
C13_2 C 0.87519(16) 0.0756(4) 0.1330(2)
H5_2 H 0.8828 0.1350 0.1061
C17_2 C 0.99693(17) 0.0478(4) 0.1534(2)
H7_2 H 0.9901 0.1173 0.1734
Cd1_2 Cd 0.236784(10) 0.21931(2) 0.376965(12)
O1_2 O 0.22505(10) 0.3702(2) 0.51551(13)
O2_3 O 0.17369(11) 0.3317(3) 0.40400(14)
O3_3 O 0.27019(14) 0.1361(3) 0.28554(15)
O4_3 O 0.20825(14) 0.2810(3) 0.26004(16)
N1_2 N 0.66867(13) 0.5750(3) 0.34656(17)
N2_3 N 0.39561(14) 0.4125(4) 0.40845(19)
N3_3 N 0.31475(13) 0.3377(3) 0.40476(18)
N4_2 N 0.59224(13) 0.4792(3) 0.34401(18)
C1_3 C 0.17892(14) 0.3633(3) 0.46558(18)
C2_3 C 0.2480(2) 0.2423(4) 0.0353(2)
C3_3 C 0.02612(14) 0.4777(3) 0.49541(19)
C4_2 C 0.54140(15) 0.4569(4) 0.3589(2)
C5_3 C 0.12549(14) 0.3988(3) 0.47668(18)
C6_3 C 0.35508(16) 0.3324(4) 0.3777(2)
H1_3 H 0.3555 0.2807 0.3424
C7_3 C 0.12673(16) 0.4431(4) 0.5404(2)
H2_3 H 0.1608 0.4470 0.5777
C8_3 C 0.23941(18) 0.2093(4) 0.2429(2)
C9_3 C 0.07767(16) 0.4820(4) 0.5493(2)
H3_3 H 0.0796 0.5116 0.5926
C10_3 C 0.45419(17) 0.5383(4) 0.3634(2)
C11_3 C 0.44597(16) 0.4309(4) 0.3917(2)
C12_3 C 0.02515(18) 0.4283(6) 0.4327(2)
C13_3 C 0.62481(16) 0.5756(4) 0.3670(2)
H5_3 H 0.6172 0.6350 0.3939
C14_3 C 0.24090(19) 0.2167(4) 0.1697(2)
C15_3 C 0.48432(18) 0.3401(4) 0.4039(3)
H6_3 H 0.4772 0.2698 0.4229
C16_2 C 0.53352(18) 0.3506(4) 0.3884(3)
C17_3 C 0.50307(17) 0.5478(4) 0.3466(2)
H7_3 H 0.5099 0.6173 0.3266
C18_3 C 0.3302(2) 0.4235(5) 0.4545(2)
H8_3 H 0.3094 0.4467 0.4820
C19_3 C 0.07408(18) 0.3894(5) 0.4237(2)
H9_3 H 0.0721 0.3564 0.3811
C20_2 C 0.6167(2) 0.4135(4) 0.3057(3)
H10_2 H 0.6036 0.3426 0.2827
C21_3 C 0.4130(2) 0.6393(6) 0.3484(4)
H11_3 H 0.3752 0.6089 0.3317
H12_3 H 0.4183 0.6896 0.3133
H13_3 H 0.4191 0.6838 0.3906
C22_2 C 0.66371(19) 0.4731(4) 0.3081(3)
H14_2 H 0.6889 0.4486 0.2868
C23_3 C 0.2121(3) 0.3034(7) 0.1252(3)
H15_3 H 0.1896 0.3550 0.1393
C24_3 C 0.2721(3) 0.1396(5) 0.1461(3)
H16_3 H 0.2908 0.0776 0.1747
C25_2 C 0.5766(3) 0.2519(6) 0.4069(5)
H17_2 H 0.5713 0.2039 0.3662
H18_2 H 0.5719 0.2043 0.4435
H19_2 H 0.6138 0.2850 0.4226
C26_3 C 0.2158(3) 0.3164(7) 0.0586(3)
H20_3 H 0.1958 0.3769 0.0296
C27_3 C 0.3796(2) 0.4693(6) 0.4582(3)
H21_3 H 0.3995 0.5284 0.4886
C28_3 C 0.2759(3) 0.1528(5) 0.0798(3)
H22_3 H 0.2978 0.1002 0.0653
H25_3 H 0.0090 0.5790 0.6041
Cd3 Cd 0.736784(10) 0.71931(2) 0.376965(12)
Cd5 Cd 0.263216(10) 0.28069(2) 0.623035(12)
O10_2 O 0.27495(10) 0.1298(2) 0.48449(13)
N9_2 N 0.16867(13) 0.0750(3) 0.34656(17)
O7_2 O 0.22981(14) 0.3639(3) 0.71446(15)
O8_2 O 0.29175(14) 0.2190(3) 0.73996(16)
C36_3 C 0.2520(2) 0.2577(4) 0.9647(2)
C37_3 C 0.26059(18) 0.2907(4) 0.7571(2)
C38_3 C 0.25910(19) 0.2833(4) 0.8303(2)
C39_3 C 0.2879(3) 0.1966(7) 0.8748(3)
H27_3 H 0.3104 0.1450 0.8607
C40_3 C 0.2279(3) 0.3604(5) 0.8539(3)
H28_3 H 0.2092 0.4224 0.8253
C41_3 C 0.2842(3) 0.1836(7) 0.9414(3)
H29_3 H 0.3042 0.1231 0.9704
C42_3 C 0.2241(3) 0.3472(5) 0.9202(3)
H30_3 H 0.2022 0.3998 0.9347
H4_3 H 0.9910 0.4210 0.3959
O5_2 O 0.77495(10) 0.6298(2) 0.48449(13)
O6_3 O 0.82631(11) 0.6683(3) 0.59600(14)
C29_3 C 0.82108(14) 0.6367(3) 0.53442(18)
C30_3 C 0.97388(14) 0.5223(3) 0.50459(19)
C31_3 C 0.87451(14) 0.6012(3) 0.52332(18)
C32_3 C 0.87327(16) 0.5569(4) 0.4596(2)
H23_3 H 0.8392 0.5530 0.4223
C33_3 C 0.92233(16) 0.5180(4) 0.4507(2)
H24_3 H 0.9204 0.4884 0.4074
C34_3 C 0.97485(18) 0.5717(6) 0.5673(2)
C35_3 C 0.92592(18) 0.6106(5) 0.5763(2)
H26_3 H 0.9279 0.6436 0.6189
Cd2_2 Cd 0.763216(10) 0.78069(2) 0.623035(12)
N5_2 N 0.33133(13) 0.4250(3) 0.65344(17)
N6_3 N 0.60439(14) 0.5875(4) 0.59155(19)
N7_3 N 0.68525(13) 0.6623(3) 0.59524(18)
N8_2 N 0.40776(13) 0.5208(3) 0.65599(18)
C43_2 C 0.45860(15) 0.5431(4) 0.6411(2)
C44_3 C 0.64492(16) 0.6676(4) 0.6223(2)
H31_3 H 0.6445 0.7193 0.6576
C45_3 C 0.54581(17) 0.4617(4) 0.6366(2)
C46_3 C 0.55403(16) 0.5691(4) 0.6083(2)
C47_3 C 0.37519(16) 0.4244(4) 0.6330(2)
H32_3 H 0.3828 0.3650 0.6061
C48_3 C 0.51568(18) 0.6599(4) 0.5961(3)
H33_3 H 0.5228 0.7302 0.5771
C49_2 C 0.46648(18) 0.6494(4) 0.6116(3)
C50_3 C 0.49693(17) 0.4522(4) 0.6534(2)
H34_3 H 0.4901 0.3827 0.6734
C51_3 C 0.6698(2) 0.5765(5) 0.5455(2)
H35_3 H 0.6906 0.5533 0.5180
C52_2 C 0.3833(2) 0.5865(4) 0.6943(3)
H36_2 H 0.3964 0.6574 0.7173
C53_3 C 0.5870(2) 0.3607(6) 0.6516(4)
H37_3 H 0.6248 0.3911 0.6683
H38_3 H 0.5817 0.3104 0.6867
H39_3 H 0.5809 0.3162 0.6094
C54_2 C 0.33629(19) 0.5269(4) 0.6919(3)
H40_2 H 0.3111 0.5514 0.7132
C55_2 C 0.4234(3) 0.7481(6) 0.5931(5)
H41_2 H 0.4287 0.7961 0.6338
H42_2 H 0.4281 0.7957 0.5565
H43_2 H 0.3862 0.7150 0.5774
C56_3 C 0.6204(2) 0.5307(6) 0.5418(3)
H44_3 H 0.6005 0.4716 0.5114
O9_2 O 0.72505(10) 0.8702(2) 0.51551(13)
O11_2 O 0.72981(14) 0.8639(3) 0.71446(15)
O12_2 O 0.79175(14) 0.7190(3) 0.73996(16)
N10_2 N 0.83133(13) 0.9250(3) 0.65344(17)
C13_4 C 0.12481(16) 0.0756(4) 0.3670(2)
H5_4 H 0.1172 0.1350 0.3939
C17_4 C 0.00307(17) 0.0478(4) 0.3466(2)
H7_4 H 0.0099 0.1173 0.3266
H3_4 H 0.5796 0.0116 0.5926
C10_4 C 0.95419(17) 0.0383(4) 0.3634(2)
C21_4 C 0.9130(2) 0.1393(6) 0.3484(4)
H11_4 H 0.8752 0.1089 0.3317
H12_4 H 0.9183 0.1896 0.3133
H13_4 H 0.9191 0.1838 0.3906
H21_4 H 0.8995 0.0284 0.4886
O6_4 O 0.32631(11) 0.1683(3) 0.59600(14)
C29_4 C 0.32108(14) 0.1367(3) 0.53442(18)
C30_4 C 0.47388(14) 0.0223(3) 0.50459(19)
C31_4 C 0.37451(14) 0.1012(3) 0.52332(18)
C32_4 C 0.37327(16) 0.0569(4) 0.4596(2)
H23_4 H 0.3392 0.0530 0.4223
C33_4 C 0.42233(16) 0.0180(4) 0.4507(2)
C34_4 C 0.47485(18) 0.0717(6) 0.5673(2)
H25_4 H 0.5090 0.0790 0.6041
C35_4 C 0.42592(18) 0.1106(5) 0.5763(2)
H26_4 H 0.4279 0.1436 0.6189
N6_4 N 0.10439(14) 0.0875(4) 0.59155(19)
N7_4 N 0.18525(13) 0.1623(3) 0.59524(18)
C44_4 C 0.14492(16) 0.1676(4) 0.6223(2)
H31_4 H 0.1445 0.2193 0.6576
C46_4 C 0.05403(16) 0.0691(4) 0.6083(2)
C48_4 C 0.01568(18) 0.1599(4) 0.5961(3)
H33_4 H 0.0228 0.2302 0.5771
C51_4 C 0.1698(2) 0.0765(5) 0.5455(2)
H35_4 H 0.1906 0.0533 0.5180
C56_4 C 0.1204(2) 0.0307(6) 0.5418(3)
O2_4 O 0.67369(11) 0.8317(3) 0.40400(14)
O3_4 O 0.77019(14) 0.6361(3) 0.28554(15)
O4_4 O 0.70825(14) 0.7810(3) 0.26004(16)
N2_4 N 0.89561(14) 0.9125(4) 0.40845(19)
N3_4 N 0.81475(13) 0.8377(3) 0.40476(18)
C1_4 C 0.67892(14) 0.8633(3) 0.46558(18)
C2_4 C 0.7480(2) 0.7423(4) 0.0353(2)
C3_4 C 0.52612(14) 0.9777(3) 0.49541(19)
C5_4 C 0.62549(14) 0.8988(3) 0.47668(18)
C6_4 C 0.85508(16) 0.8324(4) 0.3777(2)
H1_4 H 0.8555 0.7807 0.3424
C7_4 C 0.62673(16) 0.9431(4) 0.5404(2)
H2_4 H 0.6608 0.9470 0.5777
C8_4 C 0.73941(18) 0.7093(4) 0.2429(2)
C9_4 C 0.57767(16) 0.9820(4) 0.5493(2)
C11_4 C 0.94597(16) 0.9309(4) 0.3917(2)
C12_4 C 0.52515(18) 0.9283(6) 0.4327(2)
H4_4 H 0.4910 0.9210 0.3959
C14_4 C 0.74090(19) 0.7167(4) 0.1697(2)
C15_4 C 0.98432(18) 0.8401(4) 0.4039(3)
H6_4 H 0.9772 0.7698 0.4229
C18_4 C 0.8302(2) 0.9235(5) 0.4545(2)
H8_4 H 0.8094 0.9467 0.4820
C19_4 C 0.57408(18) 0.8894(5) 0.4237(2)
H9_4 H 0.5721 0.8564 0.3811
C23_4 C 0.7121(3) 0.8034(7) 0.1252(3)
H15_4 H 0.6896 0.8550 0.1393
C24_4 C 0.7721(3) 0.6396(5) 0.1461(3)
H16_4 H 0.7908 0.5776 0.1747
C26_4 C 0.7158(3) 0.8164(7) 0.0586(3)
H20_4 H 0.6958 0.8769 0.0296
C27_4 C 0.8796(2) 0.9693(6) 0.4582(3)
C28_4 C 0.7759(3) 0.6528(5) 0.0798(3)
H22_4 H 0.7978 0.6002 0.0653
H24_4 H 0.4204 0.9884 0.4074
C45_4 C 0.04581(17) 0.9617(4) 0.6366(2)
C53_4 C 0.0870(2) 0.8607(6) 0.6516(4)
H37_4 H 0.1248 0.8911 0.6683
H38_4 H 0.0817 0.8104 0.6867
H39_4 H 0.0809 0.8162 0.6094
H44_4 H 0.1005 0.9716 0.5114
C36_4 C 0.7520(2) 0.7577(4) 0.9647(2)
C37_4 C 0.76059(18) 0.7907(4) 0.7571(2)
C38_4 C 0.75910(19) 0.7833(4) 0.8303(2)
C39_4 C 0.7879(3) 0.6966(7) 0.8748(3)
H27_4 H 0.8104 0.6450 0.8607
C40_4 C 0.7279(3) 0.8604(5) 0.8539(3)
H28_4 H 0.7092 0.9224 0.8253
C41_4 C 0.7842(3) 0.6836(7) 0.9414(3)
H29_4 H 0.8042 0.6231 0.9704
C42_4 C 0.7241(3) 0.8472(5) 0.9202(3)
H30_4 H 0.7022 0.8998 0.9347
C47_4 C 0.87519(16) 0.9244(4) 0.6330(2)
H32_4 H 0.8828 0.8650 0.6061
C50_4 C 0.99693(17) 0.9522(4) 0.6534(2)
H34_4 H 0.9901 0.8827 0.6734
N8_3 N 0.09224(13) 0.0208(3) 0.84401(18)
C43_3 C 0.04140(15) 0.0431(4) 0.8589(2)
C49_3 C 0.03352(18) 0.1494(4) 0.8884(3)
C52_3 C 0.1167(2) 0.0865(4) 0.8057(3)
H36_3 H 0.1036 0.1574 0.7827
C54_3 C 0.16371(19) 0.0269(4) 0.8081(3)
H40_3 H 0.1889 0.0514 0.7868
C55_3 C 0.0766(3) 0.2481(6) 0.9069(5)
H41_3 H 0.0713 0.2961 0.8662
H42_3 H 0.0719 0.2957 0.9435
H43_3 H 0.1138 0.2150 0.9226
N4_3 N 0.90776(13) 0.9792(3) 0.15599(18)
C4_3 C 0.95860(15) 0.9569(4) 0.1411(2)
C16_3 C 0.96648(18) 0.8506(4) 0.1116(3)
C20_3 C 0.8833(2) 0.9135(4) 0.1943(3)
H10_3 H 0.8964 0.8426 0.2173
C22_3 C 0.83629(19) 0.9731(4) 0.1919(3)
H14_3 H 0.8111 0.9486 0.2132
C25_3 C 0.9234(3) 0.7519(6) 0.0931(5)
H17_3 H 0.9287 0.7039 0.1338
H18_3 H 0.9281 0.7043 0.0565
H19_3 H 0.8862 0.7850 0.0774
N4_4 N 0.09224(13) 0.9792(3) 0.34401(18)
C4_4 C 0.04140(15) 0.9569(4) 0.3589(2)
C16_4 C 0.03352(18) 0.8506(4) 0.3884(3)
C20_4 C 0.1167(2) 0.9135(4) 0.3057(3)
H10_4 H 0.1036 0.8426 0.2827
C22_4 C 0.16371(19) 0.9731(4) 0.3081(3)
H14_4 H 0.1889 0.9486 0.2868
C25_4 C 0.0766(3) 0.7519(6) 0.4069(5)
H17_4 H 0.0713 0.7039 0.3662
H18_4 H 0.0719 0.7043 0.4435
H19_4 H 0.1138 0.7850 0.4226
N8_4 N 0.90776(13) 0.0208(3) 0.65599(18)
C43_4 C 0.95860(15) 0.0431(4) 0.6411(2)
C49_4 C 0.96648(18) 0.1494(4) 0.6116(3)
C52_4 C 0.8833(2) 0.0865(4) 0.6943(3)
H36_4 H 0.8964 0.1574 0.7173
C54_4 C 0.83629(19) 0.0269(4) 0.6919(3)
H40_4 H 0.8111 0.0514 0.7132
C55_4 C 0.9234(3) 0.2481(6) 0.5931(5)
H41_4 H 0.9287 0.2961 0.6338
H42_4 H 0.9281 0.2957 0.5565
H43_4 H 0.8862 0.2150 0.5774
loop_
_geom_bond_atom_site_label_1
_geom_bond_atom_site_label_2
_geom_bond_site_symmetry_1
_geom_bond_site_symmetry_2
C32 H23 1_555 1_555
H24 C33 1_555 1_555
Cd4 O5 1_555 1_555
C32 C33 1_555 1_555
O6 C29 1_555 1_555
C29 C31 1_555 1_555
C34 C30 1_555 1_555
C35 C31 1_555 1_555
H26 C35 1_555 1_555
Cd2 O6 1_555 1_555
N5 C47 1_555 1_555
N6 C44 1_555 1_555
N7 Cd2 1_555 1_555
N8 C43 1_555 1_555
C43 C49 1_555 1_555
C44 N7 1_555 1_555
H31 C44 1_555 1_555
C45 C46 1_555 1_555
C46 N6 1_555 1_555
C47 N8 1_555 1_555
H32 C47 1_555 1_555
C48 C46 1_555 1_555
H33 C48 1_555 1_555
C49 C48 1_555 1_555
C50 C43 1_555 1_555
H34 C50 1_555 1_555
C51 N7 1_555 1_555
H35 C51 1_555 1_555
C52 N8 1_555 1_555
H36 C52 1_555 1_555
C53 C45 1_555 1_555
H37 C53 1_555 1_555
H38 C53 1_555 1_555
H39 C53 1_555 1_555
C54 N5 1_555 1_555
H40 C54 1_555 1_555
C55 C49 1_555 1_555
H41 C55 1_555 1_555
H42 C55 1_555 1_555
H43 C55 1_555 1_555
C56 N6 1_555 1_555
H44 C56 1_555 1_555
Cd7 N5 1_555 1_555
O9 Cd2 1_555 1_555
O11 Cd2 1_555 1_555
O12 Cd2 1_555 1_555
N10 Cd2 1_555 1_555
C34 C35 1_555 1_555
C45 C50 1_555 1_555
C51 C56 1_555 1_555
C52 C54 1_555 1_555
Cd1 O2 1_555 1_555
O2 C1 1_555 1_555
O3 Cd1 1_555 1_555
O4 Cd1 1_555 1_555
N1 C13 1_555 1_555
N2 C6 1_555 1_555
N3 Cd1 1_555 1_555
N4 C4 1_555 1_555
C1 C5 1_555 1_555
C2 C26 1_555 1_555
C4 C16 1_555 1_555
C6 N3 1_555 1_555
H1 C6 1_555 1_555
C8 O3 1_555 1_555
C10 C11 1_555 1_555
C11 N2 1_555 1_555
C12 C3 1_555 1_555
C13 N4 1_555 1_555
H5 C13 1_555 1_555
C14 C8 1_555 1_555
C15 C11 1_555 1_555
H6 C15 1_555 1_555
C16 C15 1_555 1_555
C17 C4 1_555 1_555
H7 C17 1_555 1_555
C18 N3 1_555 1_555
H8 C18 1_555 1_555
C19 C5 1_555 1_555
H9 C19 1_555 1_555
C20 N4 1_555 1_555
H10 C20 1_555 1_555
C21 C10 1_555 1_555
H11 C21 1_555 1_555
H12 C21 1_555 1_555
H13 C21 1_555 1_555
C22 N1 1_555 1_555
H14 C22 1_555 1_555
C23 C14 1_555 1_555
H15 C23 1_555 1_555
C24 C14 1_555 1_555
H16 C24 1_555 1_555
C25 C16 1_555 1_555
H17 C25 1_555 1_555
H18 C25 1_555 1_555
H19 C25 1_555 1_555
C26 C23 1_555 1_555
H20 C26 1_555 1_555
C27 N2 1_555 1_555
H21 C27 1_555 1_555
C28 C2 1_555 1_555
H22 C28 1_555 1_555
O7 C37 1_555 1_555
O8 C37 1_555 1_555
C36 C2 1_555 1_555
C37 C38 1_555 1_555
C38 C39 1_555 1_555
C39 H27 1_555 1_555
C40 C38 1_555 1_555
H28 C40 1_555 1_555
C41 C36 1_555 1_555
H29 C41 1_555 1_555
C42 C36 1_555 1_555
H30 C42 1_555 1_555
Cd4 N1 1_555 1_555
Cd7 O7 1_555 1_555
O10 Cd1 1_555 1_555
N9 Cd1 1_555 1_555
O4 C8 1_555 1_555
C10 C17 1_555 1_555
C12 C19 1_555 1_555
C18 C27 1_555 1_555
C20 C22 1_555 1_555
C24 C28 1_555 1_555
O8 Cd7 1_555 1_555
C39 C41 1_555 1_555
C40 C42 1_555 1_555
C7 H2 1_555 1_555
C9 C7 1_555 1_555
H3 C9 1_555 1_555
Cd7 O1 1_555 1_555
N10 C47_2 1_555 1_555
H32_2 C47_2 1_555 1_555
H34_2 C50_2 1_555 1_555
C21_2 C10_2 1_555 1_555
H11_2 C21_2 1_555 1_555
H12_2 C21_2 1_555 1_555
H13_2 C21_2 1_555 1_555
C32_2 H23_2 1_555 1_555
C32_2 C33_2 1_555 1_555
O6_2 C29_2 1_555 1_555
C29_2 C31_2 1_555 1_555
C34_2 C30_2 1_555 1_555
H25_2 C34_2 1_555 1_555
C35_2 C31_2 1_555 1_555
H26_2 C35_2 1_555 1_555
Cd7 O6_2 1_555 1_555
N6_2 C44_2 1_555 1_555
N7_2 Cd7 1_555 1_555
C44_2 N7_2 1_555 1_555
H31_2 C44_2 1_555 1_555
C46_2 N6_2 1_555 1_555
C48_2 C46_2 1_555 1_555
H33_2 C48_2 1_555 1_555
C51_2 N7_2 1_555 1_555
H35_2 C51_2 1_555 1_555
C56_2 N6_2 1_555 1_555
C34_2 C35_2 1_555 1_555
C51_2 C56_2 1_555 1_555
Cd4 O2_2 1_555 1_555
O2_2 C1_2 1_555 1_555
O3_2 Cd4 1_555 1_555
O4_2 Cd4 1_555 1_555
N2_2 C6_2 1_555 1_555
N3_2 Cd4 1_555 1_555
C1_2 C5_2 1_555 1_555
C2_2 C26_2 1_555 1_555
C6_2 N3_2 1_555 1_555
H1_2 C6_2 1_555 1_555
C8_2 O3_2 1_555 1_555
C11_2 N2_2 1_555 1_555
C12_2 C3_2 1_555 1_555
H4_2 C12_2 1_555 1_555
C14_2 C8_2 1_555 1_555
C15_2 C11_2 1_555 1_555
H6_2 C15_2 1_555 1_555
C18_2 N3_2 1_555 1_555
H8_2 C18_2 1_555 1_555
C19_2 C5_2 1_555 1_555
H9_2 C19_2 1_555 1_555
C23_2 C14_2 1_555 1_555
H15_2 C23_2 1_555 1_555
C24_2 C14_2 1_555 1_555
H16_2 C24_2 1_555 1_555
C26_2 C23_2 1_555 1_555
H20_2 C26_2 1_555 1_555
C27_2 N2_2 1_555 1_555
C28_2 C2_2 1_555 1_555
H22_2 C28_2 1_555 1_555
O11 C37_2 1_555 1_555
O12 C37_2 1_555 1_555
C36_2 C2_2 1_555 1_555
C37_2 C38_2 1_555 1_555
C38_2 C39_2 1_555 1_555
C39_2 H27_2 1_555 1_555
C40_2 C38_2 1_555 1_555
H28_2 C40_2 1_555 1_555
C41_2 C36_2 1_555 1_555
H29_2 C41_2 1_555 1_555
C42_2 C36_2 1_555 1_555
H30_2 C42_2 1_555 1_555
O4_2 C8_2 1_555 1_555
C12_2 C19_2 1_555 1_555
C18_2 C27_2 1_555 1_555
C24_2 C28_2 1_555 1_555
C39_2 C41_2 1_555 1_555
C40_2 C42_2 1_555 1_555
C7_2 H2_2 1_555 1_555
C9_2 C7_2 1_555 1_555
C53_2 C45_2 1_555 1_555
H37_2 C53_2 1_555 1_555
H38_2 C53_2 1_555 1_555
H39_2 C53_2 1_555 1_555
N9 C13_2 1_555 1_555
H5_2 C13_2 1_555 1_555
H7_2 C17_2 1_555 1_555
Cd1_2 O2_3 1_555 1_555
O1_2 C1_3 1_555 1_555
O2_3 C1_3 1_555 1_555
O3_3 Cd1_2 1_555 1_555
O4_3 Cd1_2 1_555 1_555
N1_2 C13_3 1_555 1_555
N2_3 C6_3 1_555 1_555
N3_3 Cd1_2 1_555 1_555
N4_2 C4_2 1_555 1_555
C1_3 C5_3 1_555 1_555
C2_3 C26_3 1_555 1_555
C3_3 C9_3 1_555 1_555
C4_2 C16_2 1_555 1_555
C5_3 C7_3 1_555 1_555
C6_3 N3_3 1_555 1_555
H1_3 C6_3 1_555 1_555
C7_3 H2_3 1_555 1_555
C8_3 O3_3 1_555 1_555
C9_3 C7_3 1_555 1_555
H3_3 C9_3 1_555 1_555
C10_3 C11_3 1_555 1_555
C11_3 N2_3 1_555 1_555
C12_3 C3_3 1_555 1_555
C13_3 N4_2 1_555 1_555
H5_3 C13_3 1_555 1_555
C14_3 C8_3 1_555 1_555
C15_3 C11_3 1_555 1_555
H6_3 C15_3 1_555 1_555
C16_2 C15_3 1_555 1_555
C17_3 C4_2 1_555 1_555
H7_3 C17_3 1_555 1_555
C18_3 N3_3 1_555 1_555
H8_3 C18_3 1_555 1_555
C19_3 C5_3 1_555 1_555
H9_3 C19_3 1_555 1_555
C20_2 N4_2 1_555 1_555
H10_2 C20_2 1_555 1_555
C21_3 C10_3 1_555 1_555
H11_3 C21_3 1_555 1_555
H12_3 C21_3 1_555 1_555
H13_3 C21_3 1_555 1_555
C22_2 N1_2 1_555 1_555
H14_2 C22_2 1_555 1_555
C23_3 C14_3 1_555 1_555
H15_3 C23_3 1_555 1_555
C24_3 C14_3 1_555 1_555
H16_3 C24_3 1_555 1_555
C25_2 C16_2 1_555 1_555
H17_2 C25_2 1_555 1_555
H18_2 C25_2 1_555 1_555
H19_2 C25_2 1_555 1_555
C26_3 C23_3 1_555 1_555
H20_3 C26_3 1_555 1_555
C27_3 N2_3 1_555 1_555
H21_3 C27_3 1_555 1_555
C28_3 C2_3 1_555 1_555
H22_3 C28_3 1_555 1_555
Cd3 N1_2 1_555 1_555
Cd5 O1_2 1_555 1_555
O10_2 Cd1_2 1_555 1_555
N9_2 Cd1_2 1_555 1_555
O4_3 C8_3 1_555 1_555
C10_3 C17_3 1_555 1_555
C12_3 C19_3 1_555 1_555
C18_3 C27_3 1_555 1_555
C20_2 C22_2 1_555 1_555
C24_3 C28_3 1_555 1_555
O7_2 C37_3 1_555 1_555
O8_2 C37_3 1_555 1_555
C37_3 C38_3 1_555 1_555
C38_3 C39_3 1_555 1_555
C39_3 H27_3 1_555 1_555
C40_3 C38_3 1_555 1_555
H28_3 C40_3 1_555 1_555
C41_3 C36_3 1_555 1_555
H29_3 C41_3 1_555 1_555
C42_3 C36_3 1_555 1_555
H30_3 C42_3 1_555 1_555
Cd5 O7_2 1_555 1_555
O8_2 Cd5 1_555 1_555
C39_3 C41_3 1_555 1_555
C40_3 C42_3 1_555 1_555
O5_2 C29_3 1_555 1_555
O6_3 C29_3 1_555 1_555
C29_3 C31_3 1_555 1_555
C31_3 C32_3 1_555 1_555
C32_3 H23_3 1_555 1_555
C33_3 C30_3 1_555 1_555
H24_3 C33_3 1_555 1_555
C34_3 C30_3 1_555 1_555
C35_3 C31_3 1_555 1_555
H26_3 C35_3 1_555 1_555
Cd2_2 O6_3 1_555 1_555
N5_2 C47_3 1_555 1_555
N6_3 C44_3 1_555 1_555
N7_3 Cd2_2 1_555 1_555
N8_2 C43_2 1_555 1_555
C43_2 C49_2 1_555 1_555
C44_3 N7_3 1_555 1_555
H31_3 C44_3 1_555 1_555
C45_3 C46_3 1_555 1_555
C46_3 N6_3 1_555 1_555
C47_3 N8_2 1_555 1_555
H32_3 C47_3 1_555 1_555
C48_3 C46_3 1_555 1_555
H33_3 C48_3 1_555 1_555
C49_2 C48_3 1_555 1_555
C50_3 C43_2 1_555 1_555
H34_3 C50_3 1_555 1_555
C51_3 N7_3 1_555 1_555
H35_3 C51_3 1_555 1_555
C52_2 N8_2 1_555 1_555
H36_2 C52_2 1_555 1_555
C53_3 C45_3 1_555 1_555
H37_3 C53_3 1_555 1_555
H38_3 C53_3 1_555 1_555
H39_3 C53_3 1_555 1_555
C54_2 N5_2 1_555 1_555
H40_2 C54_2 1_555 1_555
C55_2 C49_2 1_555 1_555
H41_2 C55_2 1_555 1_555
H42_2 C55_2 1_555 1_555
H43_2 C55_2 1_555 1_555
C56_3 N6_3 1_555 1_555
H44_3 C56_3 1_555 1_555
Cd3 O5_2 1_555 1_555
Cd5 N5_2 1_555 1_555
O9_2 Cd2_2 1_555 1_555
O11_2 Cd2_2 1_555 1_555
O12_2 Cd2_2 1_555 1_555
N10_2 Cd2_2 1_555 1_555
C32_3 C33_3 1_555 1_555
C34_3 C35_3 1_555 1_555
C45_3 C50_3 1_555 1_555
C51_3 C56_3 1_555 1_555
C52_2 C54_2 1_555 1_555
N9_2 C13_4 1_555 1_555
H5_4 C13_4 1_555 1_555
H7_4 C17_4 1_555 1_555
C21_4 C10_4 1_555 1_555
H11_4 C21_4 1_555 1_555
H12_4 C21_4 1_555 1_555
H13_4 C21_4 1_555 1_555
O10_2 C29_4 1_555 1_555
O6_4 C29_4 1_555 1_555
C29_4 C31_4 1_555 1_555
C31_4 C32_4 1_555 1_555
C32_4 H23_4 1_555 1_555
C33_4 C30_4 1_555 1_555
C34_4 C30_4 1_555 1_555
H25_4 C34_4 1_555 1_555
C35_4 C31_4 1_555 1_555
H26_4 C35_4 1_555 1_555
Cd5 O6_4 1_555 1_555
N6_4 C44_4 1_555 1_555
N7_4 Cd5 1_555 1_555
C44_4 N7_4 1_555 1_555
H31_4 C44_4 1_555 1_555
C46_4 N6_4 1_555 1_555
C48_4 C46_4 1_555 1_555
H33_4 C48_4 1_555 1_555
C51_4 N7_4 1_555 1_555
H35_4 C51_4 1_555 1_555
C56_4 N6_4 1_555 1_555
C32_4 C33_4 1_555 1_555
C34_4 C35_4 1_555 1_555
C51_4 C56_4 1_555 1_555
Cd3 O2_4 1_555 1_555
O9_2 C1_4 1_555 1_555
O2_4 C1_4 1_555 1_555
O3_4 Cd3 1_555 1_555
O4_4 Cd3 1_555 1_555
N2_4 C6_4 1_555 1_555
N3_4 Cd3 1_555 1_555
C1_4 C5_4 1_555 1_555
C2_4 C26_4 1_555 1_555
C3_4 C9_4 1_555 1_555
C5_4 C7_4 1_555 1_555
C6_4 N3_4 1_555 1_555
H1_4 C6_4 1_555 1_555
C7_4 H2_4 1_555 1_555
C8_4 O3_4 1_555 1_555
C9_4 C7_4 1_555 1_555
C11_4 N2_4 1_555 1_555
C12_4 C3_4 1_555 1_555
H4_4 C12_4 1_555 1_555
C14_4 C8_4 1_555 1_555
C15_4 C11_4 1_555 1_555
H6_4 C15_4 1_555 1_555
C18_4 N3_4 1_555 1_555
H8_4 C18_4 1_555 1_555
C19_4 C5_4 1_555 1_555
H9_4 C19_4 1_555 1_555
C23_4 C14_4 1_555 1_555
H15_4 C23_4 1_555 1_555
C24_4 C14_4 1_555 1_555
H16_4 C24_4 1_555 1_555
C26_4 C23_4 1_555 1_555
H20_4 C26_4 1_555 1_555
C27_4 N2_4 1_555 1_555
C28_4 C2_4 1_555 1_555
H22_4 C28_4 1_555 1_555
C53_4 C45_4 1_555 1_555
H37_4 C53_4 1_555 1_555
H38_4 C53_4 1_555 1_555
H39_4 C53_4 1_555 1_555
O4_4 C8_4 1_555 1_555
C12_4 C19_4 1_555 1_555
C18_4 C27_4 1_555 1_555
C24_4 C28_4 1_555 1_555
O11_2 C37_4 1_555 1_555
O12_2 C37_4 1_555 1_555
C37_4 C38_4 1_555 1_555
C38_4 C39_4 1_555 1_555
C39_4 H27_4 1_555 1_555
C40_4 C38_4 1_555 1_555
H28_4 C40_4 1_555 1_555
C41_4 C36_4 1_555 1_555
H29_4 C41_4 1_555 1_555
C42_4 C36_4 1_555 1_555
H30_4 C42_4 1_555 1_555
C39_4 C41_4 1_555 1_555
C40_4 C42_4 1_555 1_555
N10_2 C47_4 1_555 1_555
H32_4 C47_4 1_555 1_555
H34_4 C50_4 1_555 1_555
N8_3 C43_3 1_555 1_555
C43_3 C49_3 1_555 1_555
C52_3 N8_3 1_555 1_555
H36_3 C52_3 1_555 1_555
H40_3 C54_3 1_555 1_555
C55_3 C49_3 1_555 1_555
H41_3 C55_3 1_555 1_555
H42_3 C55_3 1_555 1_555
H43_3 C55_3 1_555 1_555
C52_3 C54_3 1_555 1_555
N4_3 C4_3 1_555 1_555
C4_3 C16_3 1_555 1_555
C20_3 N4_3 1_555 1_555
H10_3 C20_3 1_555 1_555
H14_3 C22_3 1_555 1_555
C25_3 C16_3 1_555 1_555
H17_3 C25_3 1_555 1_555
H18_3 C25_3 1_555 1_555
H19_3 C25_3 1_555 1_555
C20_3 C22_3 1_555 1_555
N4_4 C4_4 1_555 1_555
C4_4 C16_4 1_555 1_555
C20_4 N4_4 1_555 1_555
H10_4 C20_4 1_555 1_555
H14_4 C22_4 1_555 1_555
C25_4 C16_4 1_555 1_555
H17_4 C25_4 1_555 1_555
H18_4 C25_4 1_555 1_555
H19_4 C25_4 1_555 1_555
C20_4 C22_4 1_555 1_555
N8_4 C43_4 1_555 1_555
C43_4 C49_4 1_555 1_555
C52_4 N8_4 1_555 1_555
H36_4 C52_4 1_555 1_555
H40_4 C54_4 1_555 1_555
C55_4 C49_4 1_555 1_555
H41_4 C55_4 1_555 1_555
H42_4 C55_4 1_555 1_555
H43_4 C55_4 1_555 1_555
C52_4 C54_4 1_555 1_555

#END
