
###############################################################################
#
# This file contains modified crystal structure data generated from the
# MOF subset of the Cambridge Structural Database (CSD) v543 
# hosted by the Cambridge Crystallographic Data Centre (CCDC).
#
# This work is licensed under the Creative Commons
# Attribution-NonCommercial-ShareAlike 4.0 International License.
# To view a copy of this license, visit
# http://creativecommons.org/licenses/by-nc-sa/4.0/
# or send a letter to
# Creative Commons, PO Box 1866, Mountain View, CA 94042, USA.
#
# CIF created using the CSD Python API on 29 September 2022
# The structure has been converted into the P1 space group
# The structure has a 3D framework
# The original CSD entry FIDFEG is in the monoclinic crystal system
# The framework has been calculated to contain at least 10.0% void space
# The void calculation uses a probe of radius 1.32A, grid spacing 0.4
#
###############################################################################

data_FIDFEG
_chemical_formula_moiety         '(C264 H184 Cu6 N16 O20 S8)n'
_symmetry_cell_setting           triclinic
_symmetry_space_group_name_H-M   'P 1'
_symmetry_Int_Tables_number      1
_space_group_name_Hall           'P 1'
loop_
_symmetry_equiv_pos_site_id
_symmetry_equiv_pos_as_xyz
1 x,y,z
_cell_length_a                   24.023(5)
_cell_length_b                   27.646(6)
_cell_length_c                   9.2183(18)
_cell_angle_alpha                90
_cell_angle_beta                 97.63(3)
_cell_angle_gamma                90
_cell_volume                     6068.04
loop_
_atom_site_label
_atom_site_type_symbol
_atom_site_fract_x
_atom_site_fract_y
_atom_site_fract_z
Cu3 Cu -0.0000 0.73448(2) 0.2500
Cu1 Cu 0.5000 0.23448(2) 0.2500
S1 S 0.39400(5) 0.25199(4) 0.50889(14)
O1 O 0.42416(13) 0.23440(10) 0.3925(3)
O2 O 0.40657(14) 0.22346(12) 0.6399(4)
O3 O 0.40022(14) 0.30355(11) 0.5327(4)
N1 N 0.54076(16) 0.28712(11) 0.3778(4)
N2 N 0.96077(15) 0.68011(11) 0.1240(4)
C1 C 0.32125(19) 0.24385(14) 0.4404(5)
C2 C 0.3077(2) 0.23040(17) 0.2964(6)
H1 H 0.3358 0.2244 0.2386
C3 C 0.2507(2) 0.22576(18) 0.2369(6)
H2 H 0.2417 0.2170 0.1392
C4 C 0.2089(2) 0.23380(16) 0.3185(5)
H3 H 0.1717 0.2307 0.2762
C5 C 0.22132(18) 0.24696(15) 0.4692(5)
C6 C 0.5387(2) 0.29142(17) 0.5235(5)
H4 H 0.5166 0.2697 0.5678
C7 C 0.5673(2) 0.32605(18) 0.6083(5)
H5 H 0.5643 0.3280 0.7076
C8 C 0.6003(3) 0.35753(19) 0.5466(6)
H6 H 0.6196 0.3815 0.6036
C9 C 0.6055(2) 0.35445(16) 0.3991(5)
C10 C 0.5743(2) 0.31854(15) 0.3197(5)
H7 H 0.5769 0.3161 0.2202
C11 C 0.6424(2) 0.38582(17) 0.3238(6)
H8 H 0.6434 0.3801 0.2248
C12 C 0.6740(2) 0.42118(17) 0.3851(6)
H9 H 0.6725 0.4268 0.4840
C13 C 0.7114(2) 0.45279(16) 0.3127(5)
C14 C 0.7046(2) 0.50355(16) 0.3267(5)
C15 C 0.6615(2) 0.52334(19) 0.3998(6)
H10 H 0.6366 0.5025 0.4373
C16 C 0.6554(3) 0.5718(2) 0.4171(6)
H11 H 0.6273 0.5837 0.4677
C17 C 0.6917(3) 0.60386(19) 0.3582(7)
H12 H 0.6878 0.6370 0.3699
C18 C 0.7320(2) 0.58668(17) 0.2853(6)
H13 H 0.7550 0.6086 0.2449
C19 C 0.7412(2) 0.53669(16) 0.2667(5)
C20 C 0.7835(2) 0.51799(16) 0.1889(5)
C21 C 0.7904(2) 0.46765(16) 0.1759(5)
C22 C 0.8340(3) 0.44779(18) 0.1031(5)
H14 H 0.8572 0.4686 0.0593
C23 C 0.8428(3) 0.3989(2) 0.0960(6)
H15 H 0.8709 0.3868 0.0456
C24 C 0.8085(3) 0.36696(19) 0.1665(6)
H16 H 0.8153 0.3338 0.1664
C25 C 0.7665(3) 0.38435(18) 0.2332(6)
H17 H 0.7444 0.3626 0.2774
C26 C 0.7539(2) 0.43510(16) 0.2393(5)
C27 C 0.8212(2) 0.55000(15) 0.1177(5)
H18 H 0.8219 0.5448 0.0183
C28 C 0.8538(2) 0.58490(17) 0.1776(6)
H19 H 0.8523 0.5913 0.2761
C29 C 0.8922(2) 0.61469(16) 0.1041(5)
C33 C 0.9227(2) 0.65170(15) 0.1803(5)
H23 H 0.9167 0.6573 0.2764
S2 S 0.10600(5) 0.24801(4) 0.49111(14)
O4 O 0.07584(13) 0.26560(10) 0.6075(3)
O5 O 0.09343(14) 0.27654(12) 0.3601(4)
O6 O 0.09978(14) 0.19645(11) 0.4673(4)
C34 C 0.17875(19) 0.25615(14) 0.5596(5)
C35 C 0.1923(2) 0.26960(17) 0.7036(6)
H24 H 0.1642 0.2756 0.7614
C36 C 0.2493(2) 0.27424(18) 0.7631(6)
H25 H 0.2583 0.2830 0.8608
C37 C 0.2911(2) 0.26620(16) 0.6815(5)
H26 H 0.3283 0.2693 0.7238
C38 C 0.27868(18) 0.25304(15) 0.5308(5)
N3 N 0.45924(16) 0.28712(11) 0.1222(4)
N4 N 0.03923(15) 0.68011(11) 0.3760(4)
C42 C 0.3945(2) 0.35445(16) 0.1009(5)
C43 C 0.4257(2) 0.31854(15) 0.1803(5)
H30 H 0.4231 0.3161 0.2798
C44 C 0.3576(2) 0.38582(17) 0.1762(6)
H31 H 0.3566 0.3801 0.2752
C45 C 0.3260(2) 0.42118(17) 0.1149(6)
H32 H 0.3275 0.4268 0.0160
C46 C 0.2886(2) 0.45279(16) 0.1873(5)
C47 C 0.2954(2) 0.50355(16) 0.1733(5)
C48 C 0.3385(2) 0.52334(19) 0.1002(6)
H33 H 0.3634 0.5025 0.0627
C49 C 0.3446(3) 0.5718(2) 0.0829(6)
H34 H 0.3727 0.5837 0.0323
C50 C 0.3083(3) 0.60386(19) 0.1418(7)
H35 H 0.3122 0.6370 0.1301
C51 C 0.2680(2) 0.58668(17) 0.2147(6)
H36 H 0.2450 0.6086 0.2551
C52 C 0.2588(2) 0.53669(16) 0.2333(5)
C53 C 0.2165(2) 0.51799(16) 0.3111(5)
C54 C 0.2096(2) 0.46765(16) 0.3241(5)
C55 C 0.1660(3) 0.44779(18) 0.3969(5)
H37 H 0.1428 0.4686 0.4407
C56 C 0.1572(3) 0.3989(2) 0.4040(6)
H38 H 0.1291 0.3868 0.4544
C57 C 0.1915(3) 0.36696(19) 0.3335(6)
H39 H 0.1847 0.3338 0.3336
C58 C 0.2335(3) 0.38435(18) 0.2668(6)
H40 H 0.2556 0.3626 0.2226
C59 C 0.2461(2) 0.43510(16) 0.2607(5)
C60 C 0.1788(2) 0.55000(15) 0.3823(5)
H41 H 0.1781 0.5448 0.4817
C61 C 0.1462(2) 0.58490(17) 0.3224(6)
H42 H 0.1477 0.5913 0.2239
C62 C 0.1078(2) 0.61469(16) 0.3959(5)
C63 C 0.0986(2) 0.60753(18) 0.5397(6)
H43 H 0.1191 0.5844 0.5975
C64 C 0.0580(3) 0.63544(19) 0.5968(6)
H44 H 0.0501 0.6300 0.6916
C65 C 0.0301(2) 0.67056(17) 0.5130(5)
H45 H 0.0034 0.6888 0.5530
C66 C 0.0773(2) 0.65170(15) 0.3197(5)
H46 H 0.0833 0.6573 0.2236
Cu3_2 Cu 1.0000 0.73448(2) 0.2500
Cu4 Cu -0.0000 0.26552(2) 0.7500
O7 O 0.57584(13) 0.23440(10) 0.1075(3)
N5 N 0.46077(15) 0.18011(11) 0.1240(4)
N6 N 0.53923(15) 0.18011(11) 0.3760(4)
C30 C 0.9014(2) 0.60753(18) 0.9603(6)
H20 H 0.8809 0.5844 0.9025
C31 C 0.9420(3) 0.63544(19) 0.9032(6)
H21 H 0.9499 0.6300 0.8084
C32 C 0.9699(2) 0.67056(17) 0.9870(5)
H22 H 0.9966 0.6888 0.9470
C39 C 0.4613(2) 0.29142(17) 0.9765(5)
H27 H 0.4834 0.2697 0.9322
C40 C 0.4327(2) 0.32605(18) 0.8917(5)
H28 H 0.4357 0.3280 0.7924
C41 C 0.3997(3) 0.35753(19) 0.9534(6)
H29 H 0.3804 0.3815 0.8964
Cu4_2 Cu 1.0000 0.26552(2) 0.7500
C1_2 C 0.67875(19) 0.24385(14) 0.0596(5)
C2_2 C 0.6923(2) 0.23040(17) 0.2036(6)
H1_2 H 0.6642 0.2244 0.2614
C3_2 C 0.7493(2) 0.22576(18) 0.2631(6)
H2_2 H 0.7583 0.2170 0.3608
C4_2 C 0.7911(2) 0.23380(16) 0.1815(5)
H3_2 H 0.8283 0.2307 0.2238
C5_2 C 0.77868(18) 0.24696(15) 0.0308(5)
S2_2 S 0.89400(5) 0.24801(4) 0.00889(14)
O5_2 O 0.90657(14) 0.27654(12) 0.1399(4)
O6_2 O 0.90022(14) 0.19645(11) 0.0327(4)
S1_2 S 0.60600(5) 0.25199(4) 0.99111(14)
O2_2 O 0.59343(14) 0.22346(12) 0.8601(4)
O3_2 O 0.59978(14) 0.30355(11) 0.9673(4)
O4_2 O 0.92416(13) 0.26560(10) 0.8925(3)
C34_2 C 0.82125(19) 0.25615(14) 0.9404(5)
C35_2 C 0.8077(2) 0.26960(17) 0.7964(6)
H24_2 H 0.8358 0.2756 0.7386
C36_2 C 0.7507(2) 0.27424(18) 0.7369(6)
H25_2 H 0.7417 0.2830 0.6392
C37_2 C 0.7089(2) 0.26620(16) 0.8185(5)
H26_2 H 0.6717 0.2693 0.7762
C38_2 C 0.72132(18) 0.25304(15) 0.9692(5)
C14_2 C 0.2046(2) 0.00355(16) 0.3267(5)
C15_2 C 0.1615(2) 0.02334(19) 0.3998(6)
H10_2 H 0.1366 0.0025 0.4373
C16_2 C 0.1554(3) 0.0718(2) 0.4171(6)
H11_2 H 0.1273 0.0837 0.4677
C17_2 C 0.1917(3) 0.10386(19) 0.3582(7)
H12_2 H 0.1878 0.1370 0.3699
C18_2 C 0.2320(2) 0.08668(17) 0.2853(6)
H13_2 H 0.2550 0.1086 0.2449
C19_2 C 0.2412(2) 0.03669(16) 0.2667(5)
C20_2 C 0.2835(2) 0.01799(16) 0.1889(5)
C27_2 C 0.3212(2) 0.05000(15) 0.1177(5)
H18_2 H 0.3219 0.0448 0.0183
C28_2 C 0.3538(2) 0.08490(17) 0.1776(6)
H19_2 H 0.3523 0.0913 0.2761
C29_2 C 0.3922(2) 0.11469(16) 0.1041(5)
C33_2 C 0.4227(2) 0.15170(15) 0.1803(5)
H23_2 H 0.4167 0.1573 0.2764
N1_2 N 0.04076(16) 0.78712(11) 0.3778(4)
C6_2 C 0.0387(2) 0.79142(17) 0.5235(5)
H4_2 H 0.0166 0.7697 0.5678
C7_2 C 0.0673(2) 0.82605(18) 0.6083(5)
H5_2 H 0.0643 0.8280 0.7076
C8_2 C 0.1003(3) 0.85753(19) 0.5466(6)
H6_2 H 0.1196 0.8815 0.6036
C9_2 C 0.1055(2) 0.85445(16) 0.3991(5)
C10_2 C 0.0743(2) 0.81854(15) 0.3197(5)
H7_2 H 0.0769 0.8161 0.2202
C11_2 C 0.1424(2) 0.88582(17) 0.3238(6)
H8_2 H 0.1434 0.8801 0.2248
C12_2 C 0.1740(2) 0.92118(17) 0.3851(6)
H9_2 H 0.1725 0.9268 0.4840
C13_2 C 0.2114(2) 0.95279(16) 0.3127(5)
C21_2 C 0.2904(2) 0.96765(16) 0.1759(5)
C22_2 C 0.3340(3) 0.94779(18) 0.1031(5)
H14_2 H 0.3572 0.9686 0.0593
C23_2 C 0.3428(3) 0.8989(2) 0.0960(6)
H15_2 H 0.3709 0.8868 0.0456
C24_2 C 0.3085(3) 0.86696(19) 0.1665(6)
H16_2 H 0.3153 0.8338 0.1664
C25_2 C 0.2665(3) 0.88435(18) 0.2332(6)
H17_2 H 0.2444 0.8626 0.2774
C26_2 C 0.2539(2) 0.93510(16) 0.2393(5)
O7_2 O 0.07584(13) 0.73440(10) 0.1075(3)
C47_2 C 0.7954(2) 0.00355(16) 0.1733(5)
C48_2 C 0.8385(2) 0.02334(19) 0.1002(6)
H33_2 H 0.8634 0.0025 0.0627
C49_2 C 0.8446(3) 0.0718(2) 0.0829(6)
H34_2 H 0.8727 0.0837 0.0323
C50_2 C 0.8083(3) 0.10386(19) 0.1418(7)
H35_2 H 0.8122 0.1370 0.1301
C51_2 C 0.7680(2) 0.08668(17) 0.2147(6)
H36_2 H 0.7450 0.1086 0.2551
C52_2 C 0.7588(2) 0.03669(16) 0.2333(5)
C53_2 C 0.7165(2) 0.01799(16) 0.3111(5)
C60_2 C 0.6788(2) 0.05000(15) 0.3823(5)
H41_2 H 0.6781 0.0448 0.4817
C61_2 C 0.6462(2) 0.08490(17) 0.3224(6)
H42_2 H 0.6477 0.0913 0.2239
C62_2 C 0.6078(2) 0.11469(16) 0.3959(5)
C63_2 C 0.5986(2) 0.10753(18) 0.5397(6)
H43_2 H 0.6191 0.0844 0.5975
C64_2 C 0.5580(3) 0.13544(19) 0.5968(6)
H44_2 H 0.5501 0.1300 0.6916
C65_2 C 0.5301(2) 0.17056(17) 0.5130(5)
H45_2 H 0.5034 0.1888 0.5530
C66_2 C 0.5773(2) 0.15170(15) 0.3197(5)
H46_2 H 0.5833 0.1573 0.2236
S1_3 S 0.89400(5) 0.75199(4) 0.50889(14)
O1_2 O 0.92416(13) 0.73440(10) 0.3925(3)
O2_3 O 0.90657(14) 0.72346(12) 0.6399(4)
O3_3 O 0.90022(14) 0.80355(11) 0.5327(4)
C1_3 C 0.82125(19) 0.74385(14) 0.4404(5)
C2_3 C 0.8077(2) 0.73040(17) 0.2964(6)
H1_3 H 0.8358 0.7244 0.2386
C3_3 C 0.7507(2) 0.72576(18) 0.2369(6)
H2_3 H 0.7417 0.7170 0.1392
C4_3 C 0.7089(2) 0.73380(16) 0.3185(5)
H3_3 H 0.6717 0.7307 0.2762
C5_3 C 0.72132(18) 0.74696(15) 0.4692(5)
S2_3 S 0.60600(5) 0.74801(4) 0.49111(14)
O4_3 O 0.57584(13) 0.76560(10) 0.6075(3)
O5_3 O 0.59343(14) 0.77654(12) 0.3601(4)
O6_3 O 0.59978(14) 0.69645(11) 0.4673(4)
C34_3 C 0.67875(19) 0.75615(14) 0.5596(5)
C35_3 C 0.6923(2) 0.76960(17) 0.7036(6)
H24_3 H 0.6642 0.7756 0.7614
C36_3 C 0.7493(2) 0.77424(18) 0.7631(6)
H25_3 H 0.7583 0.7830 0.8608
C37_3 C 0.7911(2) 0.76620(16) 0.6815(5)
H26_3 H 0.8283 0.7693 0.7238
C38_3 C 0.77868(18) 0.75304(15) 0.5308(5)
N3_2 N 0.95924(16) 0.78712(11) 0.1222(4)
C42_2 C 0.8945(2) 0.85445(16) 0.1009(5)
C43_2 C 0.9257(2) 0.81854(15) 0.1803(5)
H30_2 H 0.9231 0.8161 0.2798
C44_2 C 0.8576(2) 0.88582(17) 0.1762(6)
H31_2 H 0.8566 0.8801 0.2752
C45_2 C 0.8260(2) 0.92118(17) 0.1149(6)
H32_2 H 0.8275 0.9268 0.0160
C46_2 C 0.7886(2) 0.95279(16) 0.1873(5)
C54_2 C 0.7096(2) 0.96765(16) 0.3241(5)
C55_2 C 0.6660(3) 0.94779(18) 0.3969(5)
H37_2 H 0.6428 0.9686 0.4407
C56_2 C 0.6572(3) 0.8989(2) 0.4040(6)
H38_2 H 0.6291 0.8868 0.4544
C57_2 C 0.6915(3) 0.86696(19) 0.3335(6)
H39_2 H 0.6847 0.8338 0.3336
C58_2 C 0.7335(3) 0.88435(18) 0.2668(6)
H40_2 H 0.7556 0.8626 0.2226
C59_2 C 0.7461(2) 0.93510(16) 0.2607(5)
Cu4_3 Cu 0.5000 0.76552(2) 0.7500
C1_4 C 0.17875(19) 0.74385(14) 0.0596(5)
C2_4 C 0.1923(2) 0.73040(17) 0.2036(6)
H1_4 H 0.1642 0.7244 0.2614
C3_4 C 0.2493(2) 0.72576(18) 0.2631(6)
H2_4 H 0.2583 0.7170 0.3608
C4_4 C 0.2911(2) 0.73380(16) 0.1815(5)
H3_4 H 0.3283 0.7307 0.2238
C5_4 C 0.27868(18) 0.74696(15) 0.0308(5)
S2_4 S 0.39400(5) 0.74801(4) 0.00889(14)
O5_4 O 0.40657(14) 0.77654(12) 0.1399(4)
O6_4 O 0.40022(14) 0.69645(11) 0.0327(4)
S1_4 S 0.10600(5) 0.75199(4) 0.99111(14)
O2_4 O 0.09343(14) 0.72346(12) 0.8601(4)
O3_4 O 0.09978(14) 0.80355(11) 0.9673(4)
O4_4 O 0.42416(13) 0.76560(10) 0.8925(3)
C34_4 C 0.32125(19) 0.75615(14) 0.9404(5)
C35_4 C 0.3077(2) 0.76960(17) 0.7964(6)
H24_4 H 0.3358 0.7756 0.7386
C36_4 C 0.2507(2) 0.77424(18) 0.7369(6)
H25_4 H 0.2417 0.7830 0.6392
C37_4 C 0.2089(2) 0.76620(16) 0.8185(5)
H26_4 H 0.1717 0.7693 0.7762
C38_4 C 0.22132(18) 0.75304(15) 0.9692(5)
C30_2 C 0.0986(2) 0.39247(18) 0.0397(6)
H20_2 H 0.1191 0.4156 0.0975
C31_2 C 0.0580(3) 0.36456(19) 0.0968(6)
H21_2 H 0.0501 0.3700 0.1916
C32_2 C 0.0301(2) 0.32944(17) 0.0130(5)
H22_2 H 0.0034 0.3112 0.0530
C39_2 C 0.5387(2) 0.70858(17) 0.0235(5)
H27_2 H 0.5166 0.7303 0.0678
C40_2 C 0.5673(2) 0.67395(18) 0.1083(5)
H28_2 H 0.5643 0.6720 0.2076
C41_2 C 0.6003(3) 0.64247(19) 0.0466(6)
H29_2 H 0.6196 0.6185 0.1036
N1_3 N 0.45924(16) 0.71288(11) 0.6222(4)
N2_2 N 0.03923(15) 0.31989(11) 0.8760(4)
C6_3 C 0.4613(2) 0.70858(17) 0.4765(5)
H4_3 H 0.4834 0.7303 0.4322
C7_3 C 0.4327(2) 0.67395(18) 0.3917(5)
H5_3 H 0.4357 0.6720 0.2924
C8_3 C 0.3997(3) 0.64247(19) 0.4534(6)
H6_3 H 0.3804 0.6185 0.3964
C9_3 C 0.3945(2) 0.64555(16) 0.6009(5)
C10_3 C 0.4257(2) 0.68146(15) 0.6803(5)
H7_3 H 0.4231 0.6839 0.7798
C11_3 C 0.3576(2) 0.61418(17) 0.6762(6)
H8_3 H 0.3566 0.6199 0.7752
C12_3 C 0.3260(2) 0.57882(17) 0.6149(6)
H9_3 H 0.3275 0.5732 0.5160
C13_3 C 0.2886(2) 0.54721(16) 0.6873(5)
C14_3 C 0.2954(2) 0.49645(16) 0.6733(5)
C15_3 C 0.3385(2) 0.47666(19) 0.6002(6)
H10_3 H 0.3634 0.4975 0.5627
C16_3 C 0.3446(3) 0.4282(2) 0.5829(6)
H11_3 H 0.3727 0.4163 0.5323
C17_3 C 0.3083(3) 0.39614(19) 0.6418(7)
H12_3 H 0.3122 0.3630 0.6301
C18_3 C 0.2680(2) 0.41332(17) 0.7147(6)
H13_3 H 0.2450 0.3914 0.7551
C19_3 C 0.2588(2) 0.46331(16) 0.7333(5)
C20_3 C 0.2165(2) 0.48201(16) 0.8111(5)
C21_3 C 0.2096(2) 0.53235(16) 0.8241(5)
C22_3 C 0.1660(3) 0.55221(18) 0.8969(5)
H14_3 H 0.1428 0.5314 0.9407
C23_3 C 0.1572(3) 0.6011(2) 0.9040(6)
H15_3 H 0.1291 0.6132 0.9544
C24_3 C 0.1915(3) 0.63304(19) 0.8335(6)
H16_3 H 0.1847 0.6662 0.8336
C25_3 C 0.2335(3) 0.61565(18) 0.7668(6)
H17_3 H 0.2556 0.6374 0.7226
C26_3 C 0.2461(2) 0.56490(16) 0.7607(5)
C27_3 C 0.1788(2) 0.45000(15) 0.8823(5)
H18_3 H 0.1781 0.4552 0.9817
C28_3 C 0.1462(2) 0.41510(17) 0.8224(6)
H19_3 H 0.1477 0.4087 0.7239
C29_3 C 0.1078(2) 0.38531(16) 0.8959(5)
C33_3 C 0.0773(2) 0.34830(15) 0.8197(5)
H23_3 H 0.0833 0.3427 0.7236
N3_3 N 0.54076(16) 0.71288(11) 0.8778(4)
N4_2 N 0.96077(15) 0.31989(11) 0.6240(4)
C42_3 C 0.6055(2) 0.64555(16) 0.8991(5)
C43_3 C 0.5743(2) 0.68146(15) 0.8197(5)
H30_3 H 0.5769 0.6839 0.7202
C44_3 C 0.6424(2) 0.61418(17) 0.8238(6)
H31_3 H 0.6434 0.6199 0.7248
C45_3 C 0.6740(2) 0.57882(17) 0.8851(6)
H32_3 H 0.6725 0.5732 0.9840
C46_3 C 0.7114(2) 0.54721(16) 0.8127(5)
C47_3 C 0.7046(2) 0.49645(16) 0.8267(5)
C48_3 C 0.6615(2) 0.47666(19) 0.8998(6)
H33_3 H 0.6366 0.4975 0.9373
C49_3 C 0.6554(3) 0.4282(2) 0.9171(6)
H34_3 H 0.6273 0.4163 0.9677
C50_3 C 0.6917(3) 0.39614(19) 0.8582(7)
H35_3 H 0.6878 0.3630 0.8699
C51_3 C 0.7320(2) 0.41332(17) 0.7853(6)
H36_3 H 0.7550 0.3914 0.7449
C52_3 C 0.7412(2) 0.46331(16) 0.7667(5)
C53_3 C 0.7835(2) 0.48201(16) 0.6889(5)
C54_3 C 0.7904(2) 0.53235(16) 0.6759(5)
C55_3 C 0.8340(3) 0.55221(18) 0.6031(5)
H37_3 H 0.8572 0.5314 0.5593
C56_3 C 0.8428(3) 0.6011(2) 0.5960(6)
H38_3 H 0.8709 0.6132 0.5456
C57_3 C 0.8085(3) 0.63304(19) 0.6665(6)
H39_3 H 0.8153 0.6662 0.6664
C58_3 C 0.7665(3) 0.61565(18) 0.7332(6)
H40_3 H 0.7444 0.6374 0.7774
C59_3 C 0.7539(2) 0.56490(16) 0.7393(5)
C60_3 C 0.8212(2) 0.45000(15) 0.6177(5)
H41_3 H 0.8219 0.4552 0.5183
C61_3 C 0.8538(2) 0.41510(17) 0.6776(6)
H42_3 H 0.8523 0.4087 0.7761
C62_3 C 0.8922(2) 0.38531(16) 0.6041(5)
C63_3 C 0.9014(2) 0.39247(18) 0.4603(6)
H43_3 H 0.8809 0.4156 0.4025
C64_3 C 0.9420(3) 0.36456(19) 0.4032(6)
H44_3 H 0.9499 0.3700 0.3084
C65_3 C 0.9699(2) 0.32944(17) 0.4870(5)
H45_3 H 0.9966 0.3112 0.4470
C66_3 C 0.9227(2) 0.34830(15) 0.6803(5)
H46_3 H 0.9167 0.3427 0.7764
N5_2 N 0.53923(15) 0.81989(11) 0.8760(4)
N6_2 N 0.46077(15) 0.81989(11) 0.6240(4)
N3_4 N 0.04076(16) 0.21288(11) 0.8778(4)
C42_4 C 0.1055(2) 0.14555(16) 0.8991(5)
C43_4 C 0.0743(2) 0.18146(15) 0.8197(5)
H30_4 H 0.0769 0.1839 0.7202
C44_4 C 0.1424(2) 0.11418(17) 0.8238(6)
H31_4 H 0.1434 0.1199 0.7248
C45_4 C 0.1740(2) 0.07882(17) 0.8851(6)
H32_4 H 0.1725 0.0732 0.9840
C46_4 C 0.2114(2) 0.04721(16) 0.8127(5)
C54_4 C 0.2904(2) 0.03235(16) 0.6759(5)
C55_4 C 0.3340(3) 0.05221(18) 0.6031(5)
H37_4 H 0.3572 0.0314 0.5593
C56_4 C 0.3428(3) 0.1011(2) 0.5960(6)
H38_4 H 0.3709 0.1132 0.5456
C57_4 C 0.3085(3) 0.13304(19) 0.6665(6)
H39_4 H 0.3153 0.1662 0.6664
C58_4 C 0.2665(3) 0.11565(18) 0.7332(6)
H40_4 H 0.2444 0.1374 0.7774
C59_4 C 0.2539(2) 0.06490(16) 0.7393(5)
C47_4 C 0.2046(2) 0.99645(16) 0.8267(5)
C48_4 C 0.1615(2) 0.97666(19) 0.8998(6)
H33_4 H 0.1366 0.9975 0.9373
C49_4 C 0.1554(3) 0.9282(2) 0.9171(6)
H34_4 H 0.1273 0.9163 0.9677
C50_4 C 0.1917(3) 0.89614(19) 0.8582(7)
H35_4 H 0.1878 0.8630 0.8699
C51_4 C 0.2320(2) 0.91332(17) 0.7853(6)
H36_4 H 0.2550 0.8914 0.7449
C52_4 C 0.2412(2) 0.96331(16) 0.7667(5)
C53_4 C 0.2835(2) 0.98201(16) 0.6889(5)
C60_4 C 0.3212(2) 0.95000(15) 0.6177(5)
H41_4 H 0.3219 0.9552 0.5183
C61_4 C 0.3538(2) 0.91510(17) 0.6776(6)
H42_4 H 0.3523 0.9087 0.7761
C62_4 C 0.3922(2) 0.88531(16) 0.6041(5)
C63_4 C 0.4014(2) 0.89247(18) 0.4603(6)
H43_4 H 0.3809 0.9156 0.4025
C64_4 C 0.4420(3) 0.86456(19) 0.4032(6)
H44_4 H 0.4499 0.8700 0.3084
C65_4 C 0.4699(2) 0.82944(17) 0.4870(5)
H45_4 H 0.4966 0.8112 0.4470
C66_4 C 0.4227(2) 0.84830(15) 0.6803(5)
H46_4 H 0.4167 0.8427 0.7764
N1_4 N 0.95924(16) 0.21288(11) 0.6222(4)
C6_4 C 0.9613(2) 0.20858(17) 0.4765(5)
H4_4 H 0.9834 0.2303 0.4322
C7_4 C 0.9327(2) 0.17395(18) 0.3917(5)
H5_4 H 0.9357 0.1720 0.2924
C8_4 C 0.8997(3) 0.14247(19) 0.4534(6)
H6_4 H 0.8804 0.1185 0.3964
C9_4 C 0.8945(2) 0.14555(16) 0.6009(5)
C10_4 C 0.9257(2) 0.18146(15) 0.6803(5)
H7_4 H 0.9231 0.1839 0.7798
C11_4 C 0.8576(2) 0.11418(17) 0.6762(6)
H8_4 H 0.8566 0.1199 0.7752
C12_4 C 0.8260(2) 0.07882(17) 0.6149(6)
H9_4 H 0.8275 0.0732 0.5160
C13_4 C 0.7886(2) 0.04721(16) 0.6873(5)
C21_4 C 0.7096(2) 0.03235(16) 0.8241(5)
C22_4 C 0.6660(3) 0.05221(18) 0.8969(5)
H14_4 H 0.6428 0.0314 0.9407
C23_4 C 0.6572(3) 0.1011(2) 0.9040(6)
H15_4 H 0.6291 0.1132 0.9544
C24_4 C 0.6915(3) 0.13304(19) 0.8335(6)
H16_4 H 0.6847 0.1662 0.8336
C25_4 C 0.7335(3) 0.11565(18) 0.7668(6)
H17_4 H 0.7556 0.1374 0.7226
C26_4 C 0.7461(2) 0.06490(16) 0.7607(5)
C14_4 C 0.7954(2) 0.99645(16) 0.6733(5)
C15_4 C 0.8385(2) 0.97666(19) 0.6002(6)
H10_4 H 0.8634 0.9975 0.5627
C16_4 C 0.8446(3) 0.9282(2) 0.5829(6)
H11_4 H 0.8727 0.9163 0.5323
C17_4 C 0.8083(3) 0.89614(19) 0.6418(7)
H12_4 H 0.8122 0.8630 0.6301
C18_4 C 0.7680(2) 0.91332(17) 0.7147(6)
H13_4 H 0.7450 0.8914 0.7551
C19_4 C 0.7588(2) 0.96331(16) 0.7333(5)
C20_4 C 0.7165(2) 0.98201(16) 0.8111(5)
C27_4 C 0.6788(2) 0.95000(15) 0.8823(5)
H18_4 H 0.6781 0.9552 0.9817
C28_4 C 0.6462(2) 0.91510(17) 0.8224(6)
H19_4 H 0.6477 0.9087 0.7239
C29_4 C 0.6078(2) 0.88531(16) 0.8959(5)
C33_4 C 0.5773(2) 0.84830(15) 0.8197(5)
H23_4 H 0.5833 0.8427 0.7236
C30_3 C 0.4014(2) 0.10753(18) 0.9603(6)
H20_3 H 0.3809 0.0844 0.9025
C31_3 C 0.4420(3) 0.13544(19) 0.9032(6)
H21_3 H 0.4499 0.1300 0.8084
C32_3 C 0.4699(2) 0.17056(17) 0.9870(5)
H22_3 H 0.4966 0.1888 0.9470
C39_3 C 0.9613(2) 0.79142(17) 0.9765(5)
H27_3 H 0.9834 0.7697 0.9322
C40_3 C 0.9327(2) 0.82605(18) 0.8917(5)
H28_3 H 0.9357 0.8280 0.7924
C41_3 C 0.8997(3) 0.85753(19) 0.9534(6)
H29_3 H 0.8804 0.8815 0.8964
C39_4 C 0.0387(2) 0.20858(17) 0.0235(5)
H27_4 H 0.0166 0.2303 0.0678
C40_4 C 0.0673(2) 0.17395(18) 0.1083(5)
H28_4 H 0.0643 0.1720 0.2076
C41_4 C 0.1003(3) 0.14247(19) 0.0466(6)
H29_4 H 0.1196 0.1185 0.1036
C30_4 C 0.5986(2) 0.89247(18) 0.0397(6)
H20_4 H 0.6191 0.9156 0.0975
C31_4 C 0.5580(3) 0.86456(19) 0.0968(6)
H21_4 H 0.5501 0.8700 0.1916
C32_4 C 0.5301(2) 0.82944(17) 0.0130(5)
H22_4 H 0.5034 0.8112 0.0530
loop_
_geom_bond_atom_site_label_1
_geom_bond_atom_site_label_2
_geom_bond_site_symmetry_1
_geom_bond_site_symmetry_2
Cu1 O1 1_555 1_555
S1 O1 1_555 1_555
O2 S1 1_555 1_555
O3 S1 1_555 1_555
N1 Cu1 1_555 1_555
C1 S1 1_555 1_555
C2 C1 1_555 1_555
H1 C2 1_555 1_555
C3 C2 1_555 1_555
H2 C3 1_555 1_555
C4 C3 1_555 1_555
H3 C4 1_555 1_555
C5 C4 1_555 1_555
C6 N1 1_555 1_555
H4 C6 1_555 1_555
C7 C6 1_555 1_555
H5 C7 1_555 1_555
C8 C7 1_555 1_555
H6 C8 1_555 1_555
C9 C8 1_555 1_555
C10 N1 1_555 1_555
H7 C10 1_555 1_555
C11 C9 1_555 1_555
H8 C11 1_555 1_555
C12 C11 1_555 1_555
H9 C12 1_555 1_555
C13 C12 1_555 1_555
C14 C13 1_555 1_555
C15 C14 1_555 1_555
H10 C15 1_555 1_555
C16 C15 1_555 1_555
H11 C16 1_555 1_555
C17 C16 1_555 1_555
H12 C17 1_555 1_555
C18 C17 1_555 1_555
H13 C18 1_555 1_555
C19 C14 1_555 1_555
C20 C19 1_555 1_555
C21 C20 1_555 1_555
C22 C21 1_555 1_555
H14 C22 1_555 1_555
C23 C22 1_555 1_555
H15 C23 1_555 1_555
C24 C23 1_555 1_555
H16 C24 1_555 1_555
C25 C24 1_555 1_555
H17 C25 1_555 1_555
C26 C13 1_555 1_555
C27 C20 1_555 1_555
H18 C27 1_555 1_555
C28 C27 1_555 1_555
H19 C28 1_555 1_555
C29 C28 1_555 1_555
C33 N2 1_555 1_555
H23 C33 1_555 1_555
S2 O4 1_555 1_555
O4 Cu4 1_555 1_555
O5 S2 1_555 1_555
O6 S2 1_555 1_555
C34 C5 1_555 1_555
C35 C34 1_555 1_555
H24 C35 1_555 1_555
C36 C35 1_555 1_555
H25 C36 1_555 1_555
C37 C36 1_555 1_555
H26 C37 1_555 1_555
C38 C1 1_555 1_555
N3 Cu1 1_555 1_555
N4 C65 1_555 1_555
C43 N3 1_555 1_555
H30 C43 1_555 1_555
C44 C42 1_555 1_555
H31 C44 1_555 1_555
C45 C44 1_555 1_555
H32 C45 1_555 1_555
C46 C45 1_555 1_555
C47 C46 1_555 1_555
C48 C47 1_555 1_555
H33 C48 1_555 1_555
C49 C48 1_555 1_555
H34 C49 1_555 1_555
C50 C49 1_555 1_555
H35 C50 1_555 1_555
C51 C50 1_555 1_555
H36 C51 1_555 1_555
C52 C47 1_555 1_555
C53 C52 1_555 1_555
C54 C53 1_555 1_555
C55 C54 1_555 1_555
H37 C55 1_555 1_555
C56 C55 1_555 1_555
H38 C56 1_555 1_555
C57 C56 1_555 1_555
H39 C57 1_555 1_555
C58 C57 1_555 1_555
H40 C58 1_555 1_555
C59 C46 1_555 1_555
C60 C53 1_555 1_555
H41 C60 1_555 1_555
C61 C60 1_555 1_555
H42 C61 1_555 1_555
C62 C61 1_555 1_555
C63 C62 1_555 1_555
H43 C63 1_555 1_555
C64 C63 1_555 1_555
H44 C64 1_555 1_555
C65 C64 1_555 1_555
H45 C65 1_555 1_555
C66 N4 1_555 1_555
H46 C66 1_555 1_555
Cu3 N4 1_555 1_555
Cu3_2 N2 1_555 1_555
O7 Cu1 1_555 1_555
N5 Cu1 1_555 1_555
N6 Cu1 1_555 1_555
C5 C38 1_555 1_555
C9 C10 1_555 1_555
C18 C19 1_555 1_555
C21 C26 1_555 1_555
C25 C26 1_555 1_555
C29 C33 1_555 1_555
S2 C34 1_555 1_555
C37 C38 1_555 1_555
C42 C43 1_555 1_555
C51 C52 1_555 1_555
C54 C59 1_555 1_555
C58 C59 1_555 1_555
C62 C66 1_555 1_555
H20 C30 1_555 1_555
C31 C30 1_555 1_555
H21 C31 1_555 1_555
C32 C31 1_555 1_555
H22 C32 1_555 1_555
H27 C39 1_555 1_555
C40 C39 1_555 1_555
H28 C40 1_555 1_555
C41 C40 1_555 1_555
H29 C41 1_555 1_555
C2_2 C1_2 1_555 1_555
H1_2 C2_2 1_555 1_555
C3_2 C2_2 1_555 1_555
H2_2 C3_2 1_555 1_555
C4_2 C3_2 1_555 1_555
H3_2 C4_2 1_555 1_555
C5_2 C4_2 1_555 1_555
O5_2 S2_2 1_555 1_555
O6_2 S2_2 1_555 1_555
O2_2 S1_2 1_555 1_555
O3_2 S1_2 1_555 1_555
O4_2 Cu4_2 1_555 1_555
C35_2 C34_2 1_555 1_555
H24_2 C35_2 1_555 1_555
C36_2 C35_2 1_555 1_555
H25_2 C36_2 1_555 1_555
C37_2 C36_2 1_555 1_555
H26_2 C37_2 1_555 1_555
C37_2 C38_2 1_555 1_555
C15_2 C14_2 1_555 1_555
H10_2 C15_2 1_555 1_555
C16_2 C15_2 1_555 1_555
H11_2 C16_2 1_555 1_555
C17_2 C16_2 1_555 1_555
H12_2 C17_2 1_555 1_555
C18_2 C17_2 1_555 1_555
H13_2 C18_2 1_555 1_555
C19_2 C14_2 1_555 1_555
C20_2 C19_2 1_555 1_555
C27_2 C20_2 1_555 1_555
H18_2 C27_2 1_555 1_555
C28_2 C27_2 1_555 1_555
H19_2 C28_2 1_555 1_555
C29_2 C28_2 1_555 1_555
C33_2 N5 1_555 1_555
H23_2 C33_2 1_555 1_555
C18_2 C19_2 1_555 1_555
C29_2 C33_2 1_555 1_555
N1_2 Cu3 1_555 1_555
C6_2 N1_2 1_555 1_555
H4_2 C6_2 1_555 1_555
C7_2 C6_2 1_555 1_555
H5_2 C7_2 1_555 1_555
C8_2 C7_2 1_555 1_555
H6_2 C8_2 1_555 1_555
C9_2 C8_2 1_555 1_555
C10_2 N1_2 1_555 1_555
H7_2 C10_2 1_555 1_555
C11_2 C9_2 1_555 1_555
H8_2 C11_2 1_555 1_555
C12_2 C11_2 1_555 1_555
H9_2 C12_2 1_555 1_555
C13_2 C12_2 1_555 1_555
C22_2 C21_2 1_555 1_555
H14_2 C22_2 1_555 1_555
C23_2 C22_2 1_555 1_555
H15_2 C23_2 1_555 1_555
C24_2 C23_2 1_555 1_555
H16_2 C24_2 1_555 1_555
C25_2 C24_2 1_555 1_555
H17_2 C25_2 1_555 1_555
C26_2 C13_2 1_555 1_555
O7_2 Cu3 1_555 1_555
C9_2 C10_2 1_555 1_555
C21_2 C26_2 1_555 1_555
C25_2 C26_2 1_555 1_555
N6 C65_2 1_555 1_555
C48_2 C47_2 1_555 1_555
H33_2 C48_2 1_555 1_555
C49_2 C48_2 1_555 1_555
H34_2 C49_2 1_555 1_555
C50_2 C49_2 1_555 1_555
H35_2 C50_2 1_555 1_555
C51_2 C50_2 1_555 1_555
H36_2 C51_2 1_555 1_555
C52_2 C47_2 1_555 1_555
C53_2 C52_2 1_555 1_555
C60_2 C53_2 1_555 1_555
H41_2 C60_2 1_555 1_555
C61_2 C60_2 1_555 1_555
H42_2 C61_2 1_555 1_555
C62_2 C61_2 1_555 1_555
C63_2 C62_2 1_555 1_555
H43_2 C63_2 1_555 1_555
C64_2 C63_2 1_555 1_555
H44_2 C64_2 1_555 1_555
C65_2 C64_2 1_555 1_555
H45_2 C65_2 1_555 1_555
C66_2 N6 1_555 1_555
H46_2 C66_2 1_555 1_555
C51_2 C52_2 1_555 1_555
C62_2 C66_2 1_555 1_555
Cu3_2 O1_2 1_555 1_555
S1_3 O1_2 1_555 1_555
O2_3 S1_3 1_555 1_555
O3_3 S1_3 1_555 1_555
C1_3 S1_3 1_555 1_555
C2_3 C1_3 1_555 1_555
H1_3 C2_3 1_555 1_555
C3_3 C2_3 1_555 1_555
H2_3 C3_3 1_555 1_555
C4_3 C3_3 1_555 1_555
H3_3 C4_3 1_555 1_555
C5_3 C4_3 1_555 1_555
S2_3 O4_3 1_555 1_555
O4_3 Cu4_3 1_555 1_555
O5_3 S2_3 1_555 1_555
O6_3 S2_3 1_555 1_555
C34_3 C5_3 1_555 1_555
C35_3 C34_3 1_555 1_555
H24_3 C35_3 1_555 1_555
C36_3 C35_3 1_555 1_555
H25_3 C36_3 1_555 1_555
C37_3 C36_3 1_555 1_555
H26_3 C37_3 1_555 1_555
C38_3 C1_3 1_555 1_555
N3_2 Cu3_2 1_555 1_555
C43_2 N3_2 1_555 1_555
H30_2 C43_2 1_555 1_555
C44_2 C42_2 1_555 1_555
H31_2 C44_2 1_555 1_555
C45_2 C44_2 1_555 1_555
H32_2 C45_2 1_555 1_555
C46_2 C45_2 1_555 1_555
C55_2 C54_2 1_555 1_555
H37_2 C55_2 1_555 1_555
C56_2 C55_2 1_555 1_555
H38_2 C56_2 1_555 1_555
C57_2 C56_2 1_555 1_555
H39_2 C57_2 1_555 1_555
C58_2 C57_2 1_555 1_555
H40_2 C58_2 1_555 1_555
C59_2 C46_2 1_555 1_555
C5_3 C38_3 1_555 1_555
S2_3 C34_3 1_555 1_555
C37_3 C38_3 1_555 1_555
C42_2 C43_2 1_555 1_555
C54_2 C59_2 1_555 1_555
C58_2 C59_2 1_555 1_555
C2_4 C1_4 1_555 1_555
H1_4 C2_4 1_555 1_555
C3_4 C2_4 1_555 1_555
H2_4 C3_4 1_555 1_555
C4_4 C3_4 1_555 1_555
H3_4 C4_4 1_555 1_555
C5_4 C4_4 1_555 1_555
O5_4 S2_4 1_555 1_555
O6_4 S2_4 1_555 1_555
O2_4 S1_4 1_555 1_555
O3_4 S1_4 1_555 1_555
O4_4 Cu4_3 1_555 1_555
C35_4 C34_4 1_555 1_555
H24_4 C35_4 1_555 1_555
C36_4 C35_4 1_555 1_555
H25_4 C36_4 1_555 1_555
C37_4 C36_4 1_555 1_555
H26_4 C37_4 1_555 1_555
C37_4 C38_4 1_555 1_555
H20_2 C30_2 1_555 1_555
C31_2 C30_2 1_555 1_555
H21_2 C31_2 1_555 1_555
C32_2 C31_2 1_555 1_555
H22_2 C32_2 1_555 1_555
H27_2 C39_2 1_555 1_555
C40_2 C39_2 1_555 1_555
H28_2 C40_2 1_555 1_555
C41_2 C40_2 1_555 1_555
H29_2 C41_2 1_555 1_555
N1_3 Cu4_3 1_555 1_555
C6_3 N1_3 1_555 1_555
H4_3 C6_3 1_555 1_555
C7_3 C6_3 1_555 1_555
H5_3 C7_3 1_555 1_555
C8_3 C7_3 1_555 1_555
H6_3 C8_3 1_555 1_555
C9_3 C8_3 1_555 1_555
C10_3 N1_3 1_555 1_555
H7_3 C10_3 1_555 1_555
C11_3 C9_3 1_555 1_555
H8_3 C11_3 1_555 1_555
C12_3 C11_3 1_555 1_555
H9_3 C12_3 1_555 1_555
C13_3 C12_3 1_555 1_555
C14_3 C13_3 1_555 1_555
C15_3 C14_3 1_555 1_555
H10_3 C15_3 1_555 1_555
C16_3 C15_3 1_555 1_555
H11_3 C16_3 1_555 1_555
C17_3 C16_3 1_555 1_555
H12_3 C17_3 1_555 1_555
C18_3 C17_3 1_555 1_555
H13_3 C18_3 1_555 1_555
C19_3 C14_3 1_555 1_555
C20_3 C19_3 1_555 1_555
C21_3 C20_3 1_555 1_555
C22_3 C21_3 1_555 1_555
H14_3 C22_3 1_555 1_555
C23_3 C22_3 1_555 1_555
H15_3 C23_3 1_555 1_555
C24_3 C23_3 1_555 1_555
H16_3 C24_3 1_555 1_555
C25_3 C24_3 1_555 1_555
H17_3 C25_3 1_555 1_555
C26_3 C13_3 1_555 1_555
C27_3 C20_3 1_555 1_555
H18_3 C27_3 1_555 1_555
C28_3 C27_3 1_555 1_555
H19_3 C28_3 1_555 1_555
C29_3 C28_3 1_555 1_555
C33_3 N2_2 1_555 1_555
H23_3 C33_3 1_555 1_555
N3_3 Cu4_3 1_555 1_555
N4_2 C65_3 1_555 1_555
C43_3 N3_3 1_555 1_555
H30_3 C43_3 1_555 1_555
C44_3 C42_3 1_555 1_555
H31_3 C44_3 1_555 1_555
C45_3 C44_3 1_555 1_555
H32_3 C45_3 1_555 1_555
C46_3 C45_3 1_555 1_555
C47_3 C46_3 1_555 1_555
C48_3 C47_3 1_555 1_555
H33_3 C48_3 1_555 1_555
C49_3 C48_3 1_555 1_555
H34_3 C49_3 1_555 1_555
C50_3 C49_3 1_555 1_555
H35_3 C50_3 1_555 1_555
C51_3 C50_3 1_555 1_555
H36_3 C51_3 1_555 1_555
C52_3 C47_3 1_555 1_555
C53_3 C52_3 1_555 1_555
C54_3 C53_3 1_555 1_555
C55_3 C54_3 1_555 1_555
H37_3 C55_3 1_555 1_555
C56_3 C55_3 1_555 1_555
H38_3 C56_3 1_555 1_555
C57_3 C56_3 1_555 1_555
H39_3 C57_3 1_555 1_555
C58_3 C57_3 1_555 1_555
H40_3 C58_3 1_555 1_555
C59_3 C46_3 1_555 1_555
C60_3 C53_3 1_555 1_555
H41_3 C60_3 1_555 1_555
C61_3 C60_3 1_555 1_555
H42_3 C61_3 1_555 1_555
C62_3 C61_3 1_555 1_555
C63_3 C62_3 1_555 1_555
H43_3 C63_3 1_555 1_555
C64_3 C63_3 1_555 1_555
H44_3 C64_3 1_555 1_555
C65_3 C64_3 1_555 1_555
H45_3 C65_3 1_555 1_555
C66_3 N4_2 1_555 1_555
H46_3 C66_3 1_555 1_555
Cu4_2 N4_2 1_555 1_555
Cu4 N2_2 1_555 1_555
N5_2 Cu4_3 1_555 1_555
N6_2 Cu4_3 1_555 1_555
C9_3 C10_3 1_555 1_555
C18_3 C19_3 1_555 1_555
C21_3 C26_3 1_555 1_555
C25_3 C26_3 1_555 1_555
C29_3 C33_3 1_555 1_555
C42_3 C43_3 1_555 1_555
C51_3 C52_3 1_555 1_555
C54_3 C59_3 1_555 1_555
C58_3 C59_3 1_555 1_555
C62_3 C66_3 1_555 1_555
N3_4 Cu4 1_555 1_555
C43_4 N3_4 1_555 1_555
H30_4 C43_4 1_555 1_555
C44_4 C42_4 1_555 1_555
H31_4 C44_4 1_555 1_555
C45_4 C44_4 1_555 1_555
H32_4 C45_4 1_555 1_555
C46_4 C45_4 1_555 1_555
C55_4 C54_4 1_555 1_555
H37_4 C55_4 1_555 1_555
C56_4 C55_4 1_555 1_555
H38_4 C56_4 1_555 1_555
C57_4 C56_4 1_555 1_555
H39_4 C57_4 1_555 1_555
C58_4 C57_4 1_555 1_555
H40_4 C58_4 1_555 1_555
C59_4 C46_4 1_555 1_555
C42_4 C43_4 1_555 1_555
C54_4 C59_4 1_555 1_555
C58_4 C59_4 1_555 1_555
N6_2 C65_4 1_555 1_555
C48_4 C47_4 1_555 1_555
H33_4 C48_4 1_555 1_555
C49_4 C48_4 1_555 1_555
H34_4 C49_4 1_555 1_555
C50_4 C49_4 1_555 1_555
H35_4 C50_4 1_555 1_555
C51_4 C50_4 1_555 1_555
H36_4 C51_4 1_555 1_555
C52_4 C47_4 1_555 1_555
C53_4 C52_4 1_555 1_555
C60_4 C53_4 1_555 1_555
H41_4 C60_4 1_555 1_555
C61_4 C60_4 1_555 1_555
H42_4 C61_4 1_555 1_555
C62_4 C61_4 1_555 1_555
C63_4 C62_4 1_555 1_555
H43_4 C63_4 1_555 1_555
C64_4 C63_4 1_555 1_555
H44_4 C64_4 1_555 1_555
C65_4 C64_4 1_555 1_555
H45_4 C65_4 1_555 1_555
C66_4 N6_2 1_555 1_555
H46_4 C66_4 1_555 1_555
C51_4 C52_4 1_555 1_555
C62_4 C66_4 1_555 1_555
N1_4 Cu4_2 1_555 1_555
C6_4 N1_4 1_555 1_555
H4_4 C6_4 1_555 1_555
C7_4 C6_4 1_555 1_555
H5_4 C7_4 1_555 1_555
C8_4 C7_4 1_555 1_555
H6_4 C8_4 1_555 1_555
C9_4 C8_4 1_555 1_555
C10_4 N1_4 1_555 1_555
H7_4 C10_4 1_555 1_555
C11_4 C9_4 1_555 1_555
H8_4 C11_4 1_555 1_555
C12_4 C11_4 1_555 1_555
H9_4 C12_4 1_555 1_555
C13_4 C12_4 1_555 1_555
C22_4 C21_4 1_555 1_555
H14_4 C22_4 1_555 1_555
C23_4 C22_4 1_555 1_555
H15_4 C23_4 1_555 1_555
C24_4 C23_4 1_555 1_555
H16_4 C24_4 1_555 1_555
C25_4 C24_4 1_555 1_555
H17_4 C25_4 1_555 1_555
C26_4 C13_4 1_555 1_555
C9_4 C10_4 1_555 1_555
C21_4 C26_4 1_555 1_555
C25_4 C26_4 1_555 1_555
C15_4 C14_4 1_555 1_555
H10_4 C15_4 1_555 1_555
C16_4 C15_4 1_555 1_555
H11_4 C16_4 1_555 1_555
C17_4 C16_4 1_555 1_555
H12_4 C17_4 1_555 1_555
C18_4 C17_4 1_555 1_555
H13_4 C18_4 1_555 1_555
C19_4 C14_4 1_555 1_555
C20_4 C19_4 1_555 1_555
C27_4 C20_4 1_555 1_555
H18_4 C27_4 1_555 1_555
C28_4 C27_4 1_555 1_555
H19_4 C28_4 1_555 1_555
C29_4 C28_4 1_555 1_555
C33_4 N5_2 1_555 1_555
H23_4 C33_4 1_555 1_555
C18_4 C19_4 1_555 1_555
C29_4 C33_4 1_555 1_555
H20_3 C30_3 1_555 1_555
C31_3 C30_3 1_555 1_555
H21_3 C31_3 1_555 1_555
C32_3 C31_3 1_555 1_555
H22_3 C32_3 1_555 1_555
H27_3 C39_3 1_555 1_555
C40_3 C39_3 1_555 1_555
H28_3 C40_3 1_555 1_555
C41_3 C40_3 1_555 1_555
H29_3 C41_3 1_555 1_555
H27_4 C39_4 1_555 1_555
C40_4 C39_4 1_555 1_555
H28_4 C40_4 1_555 1_555
C41_4 C40_4 1_555 1_555
H29_4 C41_4 1_555 1_555
H20_4 C30_4 1_555 1_555
C31_4 C30_4 1_555 1_555
H21_4 C31_4 1_555 1_555
C32_4 C31_4 1_555 1_555
H22_4 C32_4 1_555 1_555

#END
