
###############################################################################
#
# This file contains modified crystal structure data generated from the
# MOF subset of the Cambridge Structural Database (CSD) v543 
# hosted by the Cambridge Crystallographic Data Centre (CCDC).
#
# This work is licensed under the Creative Commons
# Attribution-NonCommercial-ShareAlike 4.0 International License.
# To view a copy of this license, visit
# http://creativecommons.org/licenses/by-nc-sa/4.0/
# or send a letter to
# Creative Commons, PO Box 1866, Mountain View, CA 94042, USA.
#
# CIF created using the CSD Python API on 29 September 2022
# The structure has been converted into the P1 space group
# The structure has a 3D framework
# The original CSD entry FIDLUC is in the triclinic crystal system
# The framework has been calculated to contain at least 10.0% void space
# The void calculation uses a probe of radius 1.32A, grid spacing 0.4
# The framework is charged, counterions have been retained in the structure
# H atom positions have been added when not included in the experimental data
# Generated hydrogen atom positions removed from atoms on special positions
#
###############################################################################

data_FIDLUC
_chemical_formula_moiety         '(C126 H82 Co6 N8 O38 2-)n'
_symmetry_cell_setting           triclinic
_symmetry_space_group_name_H-M   'P 1'
_symmetry_Int_Tables_number      1
_space_group_name_Hall           'P 1'
loop_
_symmetry_equiv_pos_site_id
_symmetry_equiv_pos_as_xyz
1 x,y,z
_cell_length_a                   14.921(3)
_cell_length_b                   15.306(3)
_cell_length_c                   19.697(4)
_cell_angle_alpha                92.83(3)
_cell_angle_beta                 108.71(3)
_cell_angle_gamma                116.58(3)
_cell_volume                     3710.26
loop_
_atom_site_label
_atom_site_type_symbol
_atom_site_fract_x
_atom_site_fract_y
_atom_site_fract_z
Co1 Co 0.05116(7) 0.43501(6) 0.37506(5)
O1 O 0.0422(4) 0.3520(3) 0.2778(2)
O17 O 0.0240(4) 0.5188(3) 0.4410(3)
H38 H 0.049(5) 0.570(4) 0.436(3)
Co11 Co 0.12039(8) 0.52713(6) 0.54311(5)
O24 O 0.1187(4) 0.3625(3) 0.4402(3)
O28 O 0.2006(4) 0.5622(3) 0.3922(3)
Co2 Co 0.87961(8) 0.47287(6) 0.45689(5)
Co4 Co 0.21294(8) 0.19093(6) 0.08272(5)
O2 O 0.9830(4) 0.4600(3) 0.2663(3)
O5 O 0.3071(4) 0.1779(3) 0.0358(2)
O18 O 0.0540(4) 0.1028(3) 0.0238(2)
C1 C 0.9966(6) 0.3934(5) 0.2368(4)
C2 C 0.9570(6) 0.3632(4) 0.1559(4)
C3 C 0.9464(5) 0.2758(5) 0.1208(4)
H1 H 0.965402 0.235528 0.149335
C4 C 0.9082(5) 0.2468(4) 0.0446(4)
H2 H 0.901459 0.188126 0.022111
C5 C 0.8808(5) 0.3080(4) 0.0034(3)
C6 C 0.8901(5) 0.3959(4) 0.0369(3)
C7 C 0.9279(6) 0.4228(4) 0.1130(4)
H3 H 0.933826 0.481136 0.135436
H4 H 0.861270 0.566568 0.024054
C20 C 0.4587(6) 0.1444(5) 0.0000(4)
H13 H 0.484578 0.198667 0.037963
H37 H 0.025(5) 0.130(4) 0.002(3)
O19 O 0.1903(6) 0.3083(4) 0.0196(4)
O20 O 0.2334(5) 0.3253(4) 0.1378(3)
O21 O 0.7878(4) 0.3747(4) 0.3626(3)
O22 O 0.8974(4) 0.3130(3) 0.3547(3)
O23 O 0.8913(4) 0.6093(3) 0.4508(3)
O26 O 0.2496(4) 0.1369(3) 0.1710(2)
O27 O 0.7448(4) 0.4159(4) 0.4842(3)
O29 O 0.9760(4) 0.4812(3) 0.5590(3)
Co3 Co 0.02563(7) 0.01076(6) 0.93018(4)
O3 O 0.8097(6) 0.6917(4) 0.9804(4)
O4 O 0.7666(5) 0.6747(4) 0.8622(3)
O6 O 0.1774(4) 0.0193(3) 0.9814(3)
O10 O 0.0879(4) 0.0924(3) 0.8524(2)
O11 O 0.1087(4) 0.3907(3) 0.5492(3)
O16 O 0.7994(4) 0.4378(3) 0.6078(3)
C8 C 0.8533(6) 0.4404(4) 0.9798(4)
C9 C 0.8422(6) 0.5256(5) 0.9797(4)
C10 C 0.8032(7) 0.5502(5) 0.9143(5)
C11 C 0.7737(7) 0.4878(6) 0.8486(5)
H5 H 0.745960 0.503517 0.804452
C12 C 0.7845(7) 0.4021(5) 0.8470(4)
H6 H 0.765201 0.361450 0.802418
C13 C 0.8241(5) 0.3786(4) 0.9122(3)
C14 C 0.7919(7) 0.6450(6) 0.9198(5)
C15 C 0.8113(5) 0.2131(4) 0.8718(3)
H7 H 0.850117 0.178066 0.892727
H8 H 0.831455 0.236840 0.831414
C16 C 0.6887(5) 0.1400(4) 0.8423(3)
H9 H 0.667192 0.094631 0.796914
H10 H 0.649475 0.177213 0.831751
C17 C 0.6599(5) 0.0795(4) 0.8995(4)
H11 H 0.686013 0.031585 0.901492
H12 H 0.697058 0.124862 0.947605
C18 C 0.2711(6) 0.0911(5) 0.9966(3)
C19 C 0.3476(5) 0.0771(4) 0.9695(4)
C20_2 C 0.4587(6) 0.1444(5) 1.0000(4)
C21 C 0.5316(5) 0.1346(4) 0.9770(4)
H14 H 0.605727 0.179005 0.999747
C22 C 0.4891(5) 0.0538(4) 0.9168(3)
C32 C 0.0550(5) 0.0068(5) 0.8126(3)
C37 C 0.1105(6) 0.0692(5) 0.6440(3)
C38 C 0.0897(5) 0.0777(4) 0.7067(3)
H21 H 0.086551 0.133615 0.723654
C39 C 0.1427(6) 0.0797(5) 0.5375(4)
C40 C 0.1596(6) 0.1170(5) 0.4781(4)
H22 H 0.176459 0.086466 0.445801
C41 C 0.1506(6) 0.2017(5) 0.4686(4)
H23 H 0.156236 0.225187 0.426730
C42 C 0.1335(5) 0.2538(4) 0.5184(4)
C43 C 0.1195(5) 0.2167(4) 0.5799(3)
H24 H 0.106760 0.249715 0.613573
C44 C 0.1251(5) 0.1307(4) 0.5898(3)
C45 C 0.1195(5) 0.3423(5) 0.5017(4)
H28 H 0.323683 0.022383 0.588485
C49 C 0.1980(5) 0.0477(5) 0.1794(4)
C50 C 0.2405(5) 0.0308(4) 0.2546(3)
C51 C 0.3341(5) 0.1053(4) 0.3086(3)
H31 H 0.373339 0.165715 0.297462
C52 C 0.3714(5) 0.0926(4) 0.3794(3)
C53 C 0.3117(5) 0.0021(4) 0.3974(3)
C56 C 0.4637(5) 0.1562(4) 0.4458(3)
C57 C 0.5540(5) 0.2487(5) 0.4608(4)
H34 H 0.561330 0.283059 0.423508
C58 C 0.6332(6) 0.2903(5) 0.5307(4)
C59 C 0.6230(5) 0.2384(5) 0.5867(4)
H35 H 0.676595 0.267600 0.633869
C60 C 0.5338(6) 0.1433(5) 0.5731(4)
H36 H 0.526930 0.108558 0.610226
C61 C 0.4558(5) 0.1030(5) 0.5016(4)
C62 C 0.7336(6) 0.3887(5) 0.5437(4)
N1 N 0.8431(4) 0.2988(3) 0.9278(3)
N2 N 0.5435(4) 0.0258(4) 0.8832(3)
N4 N 0.3622(4) 0.0084(4) 0.4708(3)
Co7 Co 0.94884(7) 0.56499(6) 0.62494(5)
Co15 Co 0.78706(8) 0.80907(6) 0.91728(5)
O7 O 0.2122(4) 0.6253(4) 0.6374(3)
O8 O 0.1026(4) 0.6870(3) 0.6453(3)
O9 O 0.0076(4) 0.9270(3) 0.8334(2)
O13 O 0.1144(4) 0.9784(3) 0.1296(2)
C23 C 0.3762(5) 0.9844(4) 0.8849(3)
C24 C 0.3052(5) 0.9952(4) 0.9116(3)
H15 H 0.231362 0.949162 0.891456
C25 C 0.4665(6) 0.9408(5) 0.8268(4)
C26 C 0.4851(6) 0.8885(5) 0.7773(4)
H16 H 0.554742 0.907071 0.779694
C27 C 0.3963(7) 0.8094(6) 0.7260(5)
H17 H 0.405323 0.773226 0.691879
C28 C 0.2903(6) 0.7799(5) 0.7222(4)
C29 C 0.2735(5) 0.8320(4) 0.7729(3)
H18 H 0.203841 0.812549 0.770820
C30 C 0.3635(5) 0.9138(4) 0.8265(4)
C31 C 0.1935(7) 0.6931(5) 0.6632(4)
C33 C 0.0732(5) 0.9997(5) 0.7441(3)
C34 C 0.0776(6) 0.9166(5) 0.7178(3)
H19 H 0.064205 0.865008 0.742760
C35 C 0.1005(6) 0.9070(4) 0.6571(4)
H20 H 0.104770 0.851465 0.640766
C36 C 0.1172(5) 0.9854(4) 0.6211(3)
C46 C 0.1639(6) 0.9286(5) 0.5216(4)
H25 H 0.153578 0.935279 0.471379
H26 H 0.114840 0.859654 0.520093
C47 C 0.2805(6) 0.9522(5) 0.5631(4)
H27 H 0.281748 0.912657 0.600072
C48 C 0.3325(6) 0.9310(5) 0.5138(4)
H29 H 0.396951 0.929010 0.543911
H30 H 0.282085 0.865829 0.480289
C54 C 0.2160(6) 0.9244(4) 0.3428(4)
H32 H 0.176693 0.863793 0.353742
C55 C 0.1813(5) 0.9396(4) 0.2727(3)
H33 H 0.117623 0.888776 0.236593
N3 N 0.1381(5) 0.9939(4) 0.5556(3)
O25 O 0.8856(4) 0.0216(3) 0.8704(2)
Co13 Co 0.97437(7) 0.98924(6) 0.06982(4)
O30 O 0.9460(4) 0.8972(3) 0.9762(2)
O9_2 O 0.9924(4) 0.0730(3) 0.1666(2)
C23_2 C 0.6238(5) 0.0156(4) 0.1151(3)
C24_2 C 0.6948(5) 0.0048(4) 0.0884(3)
H15_2 H 0.768638 0.050838 0.108544
C25_2 C 0.5335(6) 0.0592(5) 0.1732(4)
C26_2 C 0.5149(6) 0.1115(5) 0.2227(4)
H16_2 H 0.445258 0.092929 0.220306
C27_2 C 0.6037(7) 0.1906(6) 0.2740(5)
H17_2 H 0.594677 0.226774 0.308121
C28_2 C 0.7097(6) 0.2201(5) 0.2778(4)
C29_2 C 0.7265(5) 0.1680(4) 0.2271(3)
H18_2 H 0.796159 0.187451 0.229180
C30_2 C 0.6365(5) 0.0862(4) 0.1735(4)
C31_2 C 0.8065(7) 0.3069(5) 0.3368(4)
C33_2 C 0.9268(5) 0.0003(5) 0.2559(3)
C34_2 C 0.9224(6) 0.0834(5) 0.2822(3)
H19_2 H 0.935795 0.134992 0.257240
C35_2 C 0.8995(6) 0.0930(4) 0.3429(4)
H20_2 H 0.895230 0.148535 0.359234
C36_2 C 0.8828(5) 0.0146(4) 0.3789(3)
C46_2 C 0.8361(6) 0.0714(5) 0.4784(4)
H25_2 H 0.846422 0.064721 0.528621
H26_2 H 0.885160 0.140346 0.479907
C47_2 C 0.7195(6) 0.0478(5) 0.4369(4)
H27_2 H 0.718252 0.087343 0.399928
C48_2 C 0.6675(6) 0.0690(5) 0.4862(4)
H29_2 H 0.603049 0.070990 0.456089
H30_2 H 0.717915 0.134171 0.519711
C54_2 C 0.7840(6) 0.0756(4) 0.6572(4)
H32_2 H 0.823307 0.136207 0.646258
C55_2 C 0.8187(5) 0.0604(4) 0.7273(3)
H33_2 H 0.882377 0.111224 0.763407
N3_2 N 0.8619(5) 0.0061(4) 0.4444(3)
O6_2 O 0.8226(4) 0.9807(3) 0.0186(3)
O10_2 O 0.9121(4) 0.9076(3) 0.1476(2)
O12 O 0.8813(4) 0.6375(3) 0.5598(3)
O14 O 0.7504(4) 0.8631(3) 0.8290(2)
O15 O 0.2552(4) 0.5841(4) 0.5158(3)
C8_2 C 0.1467(6) 0.5596(4) 0.0202(4)
C9_2 C 0.1578(6) 0.4744(5) 0.0203(4)
C10_2 C 0.1968(7) 0.4498(5) 0.0857(5)
C11_2 C 0.2263(7) 0.5122(6) 0.1514(5)
H5_2 H 0.254040 0.496483 0.195548
C12_2 C 0.2155(7) 0.5979(5) 0.1530(4)
H6_2 H 0.234799 0.638550 0.197582
C13_2 C 0.1759(5) 0.6214(4) 0.0878(3)
C14_2 C 0.2081(7) 0.3550(6) 0.0802(5)
C15_2 C 0.1887(5) 0.7869(4) 0.1282(3)
H7_2 H 0.149883 0.821934 0.107273
H8_2 H 0.168545 0.763160 0.168586
C16_2 C 0.3113(5) 0.8600(4) 0.1577(3)
H9_2 H 0.332808 0.905369 0.203086
H10_2 H 0.350525 0.822787 0.168249
C17_2 C 0.3401(5) 0.9205(4) 0.1005(4)
H11_2 H 0.313987 0.968415 0.098508
H12_2 H 0.302942 0.875138 0.052395
C18_2 C 0.7289(6) 0.9089(5) 0.0034(3)
C19_2 C 0.6524(5) 0.9229(4) 0.0305(4)
C20_3 C 0.5413(6) 0.8556(5) 0.0000(4)
C21_2 C 0.4684(5) 0.8654(4) 0.0230(4)
H14_2 H 0.394273 0.820995 0.000253
C22_2 C 0.5109(5) 0.9462(4) 0.0832(3)
C32_2 C 0.9450(5) 0.9932(5) 0.1874(3)
C37_2 C 0.8895(6) 0.9308(5) 0.3560(3)
C38_2 C 0.9103(5) 0.9223(4) 0.2933(3)
H21_2 H 0.913449 0.866385 0.276346
C39_2 C 0.8573(6) 0.9203(5) 0.4625(4)
C40_2 C 0.8404(6) 0.8830(5) 0.5219(4)
H22_2 H 0.823541 0.913534 0.554199
C41_2 C 0.8494(6) 0.7983(5) 0.5314(4)
H23_2 H 0.843764 0.774813 0.573270
C42_2 C 0.8665(5) 0.7462(4) 0.4816(4)
C43_2 C 0.8805(5) 0.7833(4) 0.4201(3)
H24_2 H 0.893240 0.750285 0.386427
C44_2 C 0.8749(5) 0.8693(4) 0.4102(3)
C45_2 C 0.8805(5) 0.6577(5) 0.4983(4)
H28_2 H 0.676317 0.977617 0.411515
C49_2 C 0.8020(5) 0.9523(5) 0.8206(4)
C50_2 C 0.7595(5) 0.9692(4) 0.7454(3)
C51_2 C 0.6659(5) 0.8947(4) 0.6914(3)
H31_2 H 0.626661 0.834285 0.702538
C52_2 C 0.6286(5) 0.9074(4) 0.6206(3)
C53_2 C 0.6883(5) 0.9979(4) 0.6026(3)
C56_2 C 0.5363(5) 0.8438(4) 0.5542(3)
C57_2 C 0.4460(5) 0.7513(5) 0.5392(4)
H34_2 H 0.438670 0.716941 0.576492
C58_2 C 0.3668(6) 0.7097(5) 0.4693(4)
C59_2 C 0.3770(5) 0.7616(5) 0.4133(4)
H35_2 H 0.323405 0.732400 0.366131
C60_2 C 0.4662(6) 0.8567(5) 0.4269(4)
H36_2 H 0.473070 0.891442 0.389774
C61_2 C 0.5442(5) 0.8970(5) 0.4984(4)
C62_2 C 0.2664(6) 0.6113(5) 0.4563(4)
N1_2 N 0.1569(4) 0.7012(3) 0.0722(3)
N2_2 N 0.4565(4) 0.9742(4) 0.1168(3)
N4_2 N 0.6378(4) 0.9916(4) 0.5292(3)
O2_2 O 0.0170(4) 0.5400(3) 0.7337(3)
O5_2 O 0.6929(4) 0.8221(3) 0.9642(2)
C1_2 C 0.0034(6) 0.6066(5) 0.7632(4)
C2_2 C 0.0430(6) 0.6368(4) 0.8441(4)
C3_2 C 0.0536(5) 0.7242(5) 0.8792(4)
H1_2 H 0.034598 0.764472 0.850665
C4_2 C 0.0918(5) 0.7532(4) 0.9554(4)
H2_2 H 0.098541 0.811874 0.977889
C5_2 C 0.1192(5) 0.6920(4) 0.9966(3)
C6_2 C 0.1099(5) 0.6041(4) 0.9631(3)
C7_2 C 0.0721(6) 0.5772(4) 0.8870(4)
H3_2 H 0.066174 0.518864 0.864564
H4_2 H 0.138730 0.433432 0.975946
C20_4 C 0.5413(6) 0.8556(5) 1.0000(4)
H13_2 H 0.515422 0.801333 0.962037
H37_2 H 0.975(5) 0.870(4) 0.998(3)
O1_2 O 0.9578(4) 0.6480(3) 0.7222(2)
H38_2 H 0.951(5) 0.430(4) 0.564(3)
O31 O 0.0731(6) 0.7060(5) 0.4037(4)
O31_2 O 0.9269(6) 0.2940(5) 0.5963(4)
loop_
_geom_bond_atom_site_label_1
_geom_bond_atom_site_label_2
_geom_bond_site_symmetry_1
_geom_bond_site_symmetry_2
Co1 O1 1_555 1_555
O17 Co1 1_555 1_555
H38 O17 1_555 1_555
Co11 O17 1_555 1_555
O24 Co1 1_555 1_555
O28 Co1 1_555 1_555
Co4 O5 1_555 1_555
C1 O2 1_555 1_555
C2 C1 1_555 1_555
C3 C2 1_555 1_555
H1 C3 1_555 1_555
C4 C3 1_555 1_555
H2 C4 1_555 1_555
C5 C4 1_555 1_555
C6 C5 1_555 1_555
C7 C2 1_555 1_555
H3 C7 1_555 1_555
C20 H13 1_555 1_555
H37 O18 1_555 1_555
O19 Co4 1_555 1_555
O20 Co4 1_555 1_555
O21 Co2 1_555 1_555
O23 Co2 1_555 1_555
O26 Co4 1_555 1_555
O27 Co2 1_555 1_555
O29 Co2 1_555 1_555
Co4 O18 1_555 1_555
C6 C7 1_555 1_555
Co3 O6 1_555 1_555
O3 C14 1_555 1_555
O4 C14 1_555 1_555
O6 C18 1_555 1_555
O10 Co3 1_555 1_555
O11 C45 1_555 1_555
O24 C45 1_555 1_555
O26 C49 1_555 1_555
O27 C62 1_555 1_555
O16 C62 1_555 1_555
C9 C8 1_555 1_555
C10 C9 1_555 1_555
C11 C10 1_555 1_555
H5 C11 1_555 1_555
C12 C11 1_555 1_555
H6 C12 1_555 1_555
C13 C8 1_555 1_555
C14 C10 1_555 1_555
C15 H7 1_555 1_555
H8 C15 1_555 1_555
C16 C15 1_555 1_555
H9 C16 1_555 1_555
H10 C16 1_555 1_555
C17 C16 1_555 1_555
H11 C17 1_555 1_555
H12 C17 1_555 1_555
C18 C19 1_555 1_555
C19 C20_2 1_555 1_555
C21 C20_2 1_555 1_555
H14 C21 1_555 1_555
C22 C21 1_555 1_555
H21 C38 1_555 1_555
C39 C40 1_555 1_555
C40 H22 1_555 1_555
C41 C40 1_555 1_555
H23 C41 1_555 1_555
C42 C41 1_555 1_555
C43 C42 1_555 1_555
H24 C43 1_555 1_555
C44 C37 1_555 1_555
C45 C42 1_555 1_555
C49 C50 1_555 1_555
C50 C51 1_555 1_555
C51 H31 1_555 1_555
C52 C51 1_555 1_555
C53 C52 1_555 1_555
C56 C52 1_555 1_555
C57 C56 1_555 1_555
H34 C57 1_555 1_555
C58 C57 1_555 1_555
C59 C58 1_555 1_555
H35 C59 1_555 1_555
C60 C59 1_555 1_555
H36 C60 1_555 1_555
C61 C56 1_555 1_555
C62 C58 1_555 1_555
N2 C17 1_555 1_555
Co7 O16 1_555 1_555
Co11 O11 1_555 1_555
Co15 O3 1_555 1_555
O4 Co15 1_555 1_555
O10 C32 1_555 1_555
C12 C13 1_555 1_555
C13 N1 1_555 1_555
C15 N1 1_555 1_555
C22 N2 1_555 1_555
C37 C38 1_555 1_555
C39 C44 1_555 1_555
C43 C44 1_555 1_555
C53 N4 1_555 1_555
C60 C61 1_555 1_555
C61 N4 1_555 1_555
O7 C31 1_555 1_555
O8 C31 1_555 1_555
H15 C24 1_555 1_555
C25 C26 1_555 1_555
C26 H16 1_555 1_555
C27 C26 1_555 1_555
H17 C27 1_555 1_555
C28 C27 1_555 1_555
C29 C28 1_555 1_555
H18 C29 1_555 1_555
C30 C23 1_555 1_555
C31 C28 1_555 1_555
C34 C33 1_555 1_555
H19 C34 1_555 1_555
C35 C34 1_555 1_555
H20 C35 1_555 1_555
C36 C35 1_555 1_555
C46 H25 1_555 1_555
H26 C46 1_555 1_555
C47 C46 1_555 1_555
H27 C47 1_555 1_555
C48 C47 1_555 1_555
H29 C48 1_555 1_555
H30 C48 1_555 1_555
H32 C54 1_555 1_555
H33 C55 1_555 1_555
N3 C36 1_555 1_555
Co11 O7 1_555 1_555
C23 C24 1_555 1_555
C25 C30 1_555 1_555
C29 C30 1_555 1_555
C46 N3 1_555 1_555
C54 C55 1_555 1_555
O21 C31_2 1_555 1_555
O22 C31_2 1_555 1_555
H15_2 C24_2 1_555 1_555
C25_2 C26_2 1_555 1_555
C26_2 H16_2 1_555 1_555
C27_2 C26_2 1_555 1_555
H17_2 C27_2 1_555 1_555
C28_2 C27_2 1_555 1_555
C29_2 C28_2 1_555 1_555
H18_2 C29_2 1_555 1_555
C30_2 C23_2 1_555 1_555
C31_2 C28_2 1_555 1_555
C34_2 C33_2 1_555 1_555
H19_2 C34_2 1_555 1_555
C35_2 C34_2 1_555 1_555
H20_2 C35_2 1_555 1_555
C36_2 C35_2 1_555 1_555
C46_2 H25_2 1_555 1_555
H26_2 C46_2 1_555 1_555
C47_2 C46_2 1_555 1_555
H27_2 C47_2 1_555 1_555
C48_2 C47_2 1_555 1_555
H29_2 C48_2 1_555 1_555
H30_2 C48_2 1_555 1_555
H32_2 C54_2 1_555 1_555
H33_2 C55_2 1_555 1_555
N3_2 C36_2 1_555 1_555
C23_2 C24_2 1_555 1_555
C25_2 C30_2 1_555 1_555
C29_2 C30_2 1_555 1_555
C46_2 N3_2 1_555 1_555
C54_2 C55_2 1_555 1_555
Co13 O6_2 1_555 1_555
O19 C14_2 1_555 1_555
O20 C14_2 1_555 1_555
O6_2 C18_2 1_555 1_555
O10_2 Co13 1_555 1_555
O23 C45_2 1_555 1_555
O12 C45_2 1_555 1_555
O14 C49_2 1_555 1_555
O15 C62_2 1_555 1_555
O28 C62_2 1_555 1_555
C9_2 C8_2 1_555 1_555
C10_2 C9_2 1_555 1_555
C11_2 C10_2 1_555 1_555
H5_2 C11_2 1_555 1_555
C12_2 C11_2 1_555 1_555
H6_2 C12_2 1_555 1_555
C13_2 C8_2 1_555 1_555
C14_2 C10_2 1_555 1_555
C15_2 H7_2 1_555 1_555
H8_2 C15_2 1_555 1_555
C16_2 C15_2 1_555 1_555
H9_2 C16_2 1_555 1_555
H10_2 C16_2 1_555 1_555
C17_2 C16_2 1_555 1_555
H11_2 C17_2 1_555 1_555
H12_2 C17_2 1_555 1_555
C18_2 C19_2 1_555 1_555
C19_2 C20_3 1_555 1_555
C21_2 C20_3 1_555 1_555
H14_2 C21_2 1_555 1_555
C22_2 C21_2 1_555 1_555
H21_2 C38_2 1_555 1_555
C39_2 C40_2 1_555 1_555
C40_2 H22_2 1_555 1_555
C41_2 C40_2 1_555 1_555
H23_2 C41_2 1_555 1_555
C42_2 C41_2 1_555 1_555
C43_2 C42_2 1_555 1_555
H24_2 C43_2 1_555 1_555
C44_2 C37_2 1_555 1_555
C45_2 C42_2 1_555 1_555
C49_2 C50_2 1_555 1_555
C50_2 C51_2 1_555 1_555
C51_2 H31_2 1_555 1_555
C52_2 C51_2 1_555 1_555
C53_2 C52_2 1_555 1_555
C56_2 C52_2 1_555 1_555
C57_2 C56_2 1_555 1_555
H34_2 C57_2 1_555 1_555
C58_2 C57_2 1_555 1_555
C59_2 C58_2 1_555 1_555
H35_2 C59_2 1_555 1_555
C60_2 C59_2 1_555 1_555
H36_2 C60_2 1_555 1_555
C61_2 C56_2 1_555 1_555
C62_2 C58_2 1_555 1_555
N2_2 C17_2 1_555 1_555
Co7 O12 1_555 1_555
Co11 O15 1_555 1_555
Co15 O14 1_555 1_555
O10_2 C32_2 1_555 1_555
C12_2 C13_2 1_555 1_555
C13_2 N1_2 1_555 1_555
C15_2 N1_2 1_555 1_555
C22_2 N2_2 1_555 1_555
C37_2 C38_2 1_555 1_555
C39_2 C44_2 1_555 1_555
C43_2 C44_2 1_555 1_555
C53_2 N4_2 1_555 1_555
C60_2 C61_2 1_555 1_555
C61_2 N4_2 1_555 1_555
Co15 O5_2 1_555 1_555
C1_2 O2_2 1_555 1_555
C2_2 C1_2 1_555 1_555
C3_2 C2_2 1_555 1_555
H1_2 C3_2 1_555 1_555
C4_2 C3_2 1_555 1_555
H2_2 C4_2 1_555 1_555
C5_2 C4_2 1_555 1_555
C6_2 C5_2 1_555 1_555
C7_2 C2_2 1_555 1_555
H3_2 C7_2 1_555 1_555
C20_4 H13_2 1_555 1_555
H37_2 O30 1_555 1_555
Co15 O30 1_555 1_555
C6_2 C7_2 1_555 1_555
Co7 O1_2 1_555 1_555
O29 Co7 1_555 1_555
H38_2 O29 1_555 1_555

#END
