
###############################################################################
#
# This file contains modified crystal structure data generated from the
# MOF subset of the Cambridge Structural Database (CSD) v543 
# hosted by the Cambridge Crystallographic Data Centre (CCDC).
#
# This work is licensed under the Creative Commons
# Attribution-NonCommercial-ShareAlike 4.0 International License.
# To view a copy of this license, visit
# http://creativecommons.org/licenses/by-nc-sa/4.0/
# or send a letter to
# Creative Commons, PO Box 1866, Mountain View, CA 94042, USA.
#
# CIF created using the CSD Python API on 29 September 2022
# The structure has been converted into the P1 space group
# The structure has a 3D framework
# The original CSD entry FIDRIV is in the tetragonal crystal system
# The original CSD entry FIDRIV is in a Sohncke space group
# The framework has been calculated to contain at least 10.0% void space
# The void calculation uses a probe of radius 1.32A, grid spacing 0.4
# H atom positions have been added when not included in the experimental data
# Generated hydrogen atom positions removed from atoms on special positions
#
###############################################################################

data_FIDRIV
_chemical_formula_moiety         '(C152 H200 Dy9 Na5 O47)n'
_symmetry_cell_setting           triclinic
_symmetry_space_group_name_H-M   'P 1'
_symmetry_Int_Tables_number      1
_space_group_name_Hall           'P 1'
loop_
_symmetry_equiv_pos_site_id
_symmetry_equiv_pos_as_xyz
1 x,y,z
_cell_length_a                   23.6972(10)
_cell_length_b                   23.6972(10)
_cell_length_c                   14.1273(6)
_cell_angle_alpha                90
_cell_angle_beta                 90
_cell_angle_gamma                90
_cell_volume                     7933.29
loop_
_atom_site_label
_atom_site_type_symbol
_atom_site_fract_x
_atom_site_fract_y
_atom_site_fract_z
H25 H 0.1258 0.0050 0.3454
H32 H 0.2160 0.0047 0.4139
Dy2 Dy 0.59012(3) 0.0000 0.2500
Na2 Na 0.5000 0.08101(10) 0.0000
O10 O 0.44235(17) 0.0076(2) 0.9308(3)
Dy4 Dy 0.40988(3) 0.0000 0.7500
Na2_2 Na 0.5000 0.08101(10) 1.0000
Dy1 Dy 0.0000 0.40988(3) 0.0000
O1 O 0.0633(3) 0.4804(2) 0.0040(3)
O4 O 0.0455(3) 0.6268(2) 0.3673(3)
C2 C 0.0692(2) 0.57718(15) 0.0462(2)
C3 C 0.0502(2) 0.56544(13) 0.1372(3)
H1 H 0.0408 0.5287 0.1539
C4 C 0.0453(2) 0.60867(16) 0.2032(2)
C5 C 0.0593(2) 0.66363(14) 0.1782(2)
H2 H 0.0560 0.6926 0.2223
C6 C 0.0783(2) 0.67537(14) 0.0872(2)
C7 C 0.0832(2) 0.63214(17) 0.02118(19)
C8 C 0.0267(4) 0.5961(3) 0.3007(5)
C9 C 0.0946(2) 0.73495(15) 0.0619(3)
C10 C 0.1282(2) 0.76841(19) 0.1197(2)
C11 C 0.1403(2) 0.82367(19) 0.0937(3)
C12 C 0.1188(2) 0.84548(15) 0.0098(3)
C15 C 0.1576(4) 0.7438(4) 0.2073(5)
H5 H 0.1457 0.7055 0.2164
H6 H 0.1479 0.7658 0.2620
H7 H 0.1978 0.7449 0.1982
O8 O 0.5196(2) 0.9367(3) 0.2460(3)
O9 O 0.4562(3) 0.9119(3) 0.3583(3)
O12 O 0.0996(2) 0.8697(3) 0.2637(4)
C20 C 0.4710(4) 0.9285(4) 0.2745(5)
C21 C 0.42282(15) 0.9308(2) 0.2038(2)
C22 C 0.43456(13) 0.9498(2) 0.1128(3)
H17 H 0.4713 0.9592 0.0961
C23 C 0.39133(16) 0.9547(2) 0.0468(2)
C24 C 0.33637(14) 0.9407(2) 0.0718(2)
H18 H 0.3074 0.9440 0.0277
C25 C 0.32463(14) 0.9217(2) 0.1628(2)
C26 C 0.36786(17) 0.9168(2) 0.22882(19)
H19 H 0.3600 0.9041 0.2897
C28 C 0.26505(15) 0.9054(2) 0.1881(3)
C29 C 0.23159(19) 0.8718(2) 0.1303(2)
C30 C 0.17633(19) 0.8597(2) 0.1563(3)
C31 C 0.15452(15) 0.8812(2) 0.2402(3)
C32 C 0.18798(19) 0.9149(2) 0.2981(3)
C33 C 0.24324(19) 0.9270(2) 0.2720(3)
H20 H 0.2656 0.9495 0.3108
C34 C 0.2562(4) 0.8424(4) 0.0427(5)
H21 H 0.2945 0.8543 0.0336
H23 H 0.2551 0.8022 0.0518
C35 C 0.1647(5) 0.9362(4) 0.3981(5)
C36 C 0.1149(5) 0.9726(5) 0.3820(7)
H24 H 0.0866 0.9517 0.3484
H26 H 0.1000 0.9848 0.4418
C37 C 0.1475(5) 0.8852(5) 0.4595(6)
H27 H 0.1795 0.8609 0.4683
H28 H 0.1179 0.8647 0.4286
H29 H 0.1345 0.8982 0.5200
C38 C 0.2067(4) 0.9721(5) 0.4511(5)
H30 H 0.2403 0.9506 0.4630
H31 H 0.1905 0.9839 0.5102
Dy2_2 Dy 0.59012(3) 1.0000 0.2500
Dy3 Dy -0.0000 0.59012(3) 0.5000
Na4 Na 0.5000 0.91899(10) 0.5000
O21 O 0.0455(3) 0.3732(2) 0.1327(3)
H36 H 0.0944115 0.82825 0.269229
Dy1_2 Dy 0.0000 0.40988(3) 1.0000
Na1 Na 0.08101(10) 0.5000 0.7500
O2 O 0.0881(3) 0.5438(3) 0.8917(3)
O5 O 0.1303(3) 0.9004(2) 0.9863(4)
O6 O 0.0763(4) 0.3586(3) 0.9363(4)
C1 C 0.0715(4) 0.5290(4) 0.9755(5)
H3 H 0.0959 0.6400 0.9603
C13 C 0.0851(2) 0.81202(19) 0.9519(3)
C14 C 0.0730(2) 0.75676(19) 0.9780(3)
H4 H 0.0505 0.7344 0.9392
C16 C 0.0638(4) 0.8353(5) 0.8519(5)
C17 C 0.0274(5) 0.8851(5) 0.8680(7)
H8 H 0.0483 0.9134 0.9016
H10 H 0.0152 0.9000 0.8082
C18 C 0.1148(5) 0.8525(5) 0.7905(6)
H11 H 0.1391 0.8205 0.7817
H12 H 0.1353 0.8821 0.8214
H13 H 0.1018 0.8655 0.7300
C19 C 0.0279(5) 0.7933(4) 0.7989(5)
H14 H 0.0494 0.7597 0.7870
H15 H 0.0161 0.8095 0.7398
O7 O 0.1427(6) 0.4298(7) 0.8034(7)
O11 O 0.3732(2) 0.9545(3) 0.8827(3)
C27 C 0.4039(3) 0.9733(4) 0.9493(5)
H22 H 0.2342 0.8521 0.9880
O13 O 0.1427(6) 0.5702(7) 0.6966(7)
Dy4_2 Dy 0.40988(3) 1.0000 0.7500
O16 O 0.0881(3) 0.4562(3) 0.6083(3)
O17 O 0.0076(2) 0.44235(17) 0.8192(3)
O19 O 0.0076(2) 0.55765(17) 0.6808(3)
H33 H 0.17175 0.905589 0.980771
Dy1_3 Dy 1.0000 0.40988(3) 0.0000
O3 O 0.9924(2) 0.55765(17) 0.3192(3)
O14 O 0.9237(4) 0.3586(3) 0.0637(4)
Dy3_2 Dy 1.0000 0.59012(3) 0.5000
Na3 Na 0.91899(10) 0.5000 0.2500
O18 O 0.9924(2) 0.44235(17) 0.1808(3)
Dy1_4 Dy 1.0000 0.40988(3) 1.0000
H9 H 0.9950 0.8742 0.9046
H16 H 0.9953 0.7840 0.8361
O15 O 0.9367(3) 0.4804(2) 0.9960(3)
O20 O 0.9545(3) 0.3732(2) 0.8673(3)
O1_2 O 0.5196(2) 0.0633(3) 0.2540(3)
O2_2 O 0.4562(3) 0.0881(3) 0.1417(3)
O4_2 O 0.3732(2) 0.0455(3) 0.6173(3)
O5_2 O 0.0996(2) 0.1303(3) 0.2363(4)
O6_2 O 0.6414(3) 0.0763(4) 0.1863(4)
C1_2 C 0.4710(4) 0.0715(4) 0.2255(5)
C2_2 C 0.42282(15) 0.0692(2) 0.2962(2)
C3_2 C 0.43456(13) 0.0502(2) 0.3872(3)
H1_2 H 0.4713 0.0408 0.4039
C4_2 C 0.39133(16) 0.0453(2) 0.4532(2)
C5_2 C 0.33637(14) 0.0593(2) 0.4282(2)
H2_2 H 0.3074 0.0560 0.4723
C6_2 C 0.32463(14) 0.0783(2) 0.3372(2)
C7_2 C 0.36786(17) 0.0832(2) 0.27118(19)
H3_2 H 0.3600 0.0959 0.2103
C8_2 C 0.4039(3) 0.0267(4) 0.5507(5)
C9_2 C 0.26505(15) 0.0946(2) 0.3119(3)
C10_2 C 0.23159(19) 0.1282(2) 0.3697(2)
C11_2 C 0.17633(19) 0.1403(2) 0.3437(3)
C12_2 C 0.15452(15) 0.1188(2) 0.2598(3)
C13_2 C 0.18798(19) 0.0851(2) 0.2019(3)
C14_2 C 0.24324(19) 0.0730(2) 0.2280(3)
H4_2 H 0.2656 0.0505 0.1892
C15_2 C 0.2562(4) 0.1576(4) 0.4573(5)
H5_2 H 0.2945 0.1457 0.4664
H6_2 H 0.2342 0.1479 0.5120
H7_2 H 0.2551 0.1978 0.4482
C16_2 C 0.1647(5) 0.0638(4) 0.1019(5)
C17_2 C 0.1149(5) 0.0274(5) 0.1180(7)
H8_2 H 0.0866 0.0483 0.1516
H10_2 H 0.1000 0.0152 0.0582
C18_2 C 0.1475(5) 0.1148(5) 0.0405(6)
H11_2 H 0.1795 0.1391 0.0317
H12_2 H 0.1179 0.1353 0.0714
C19_2 C 0.2067(4) 0.0279(5) 0.0489(5)
H14_2 H 0.2403 0.0494 0.0370
O7_2 O 0.5702(7) 0.1427(6) 0.0534(7)
O8_2 O 0.0633(3) 0.5196(2) 0.4960(3)
O12_2 O 0.1303(3) 0.0996(2) 0.5137(4)
C20_2 C 0.0715(4) 0.4710(4) 0.5245(5)
C21_2 C 0.0692(2) 0.42282(15) 0.4538(2)
C22_2 C 0.0502(2) 0.43456(13) 0.3628(3)
H17_2 H 0.0408 0.4713 0.3461
C23_2 C 0.0453(2) 0.39133(16) 0.2968(2)
C24_2 C 0.0593(2) 0.33637(14) 0.3218(2)
H18_2 H 0.0560 0.3074 0.2777
C25_2 C 0.0783(2) 0.32463(14) 0.4128(2)
C26_2 C 0.0832(2) 0.36786(17) 0.47882(19)
H19_2 H 0.0959 0.3600 0.5397
C27_2 C 0.0267(4) 0.4039(3) 0.1993(5)
C28_2 C 0.0946(2) 0.26505(15) 0.4381(3)
C29_2 C 0.1282(2) 0.23159(19) 0.3803(2)
C30_2 C 0.1403(2) 0.17633(19) 0.4063(3)
C31_2 C 0.1188(2) 0.15452(15) 0.4902(3)
C32_2 C 0.0851(2) 0.18798(19) 0.5481(3)
C33_2 C 0.0730(2) 0.24324(19) 0.5220(3)
H20_2 H 0.0505 0.2656 0.5608
C34_2 C 0.1576(4) 0.2562(4) 0.2927(5)
H21_2 H 0.1457 0.2945 0.2836
H22_2 H 0.1479 0.2342 0.2380
H23_2 H 0.1978 0.2551 0.3018
C35_2 C 0.0638(4) 0.1647(5) 0.6481(5)
C36_2 C 0.0274(5) 0.1149(5) 0.6320(7)
H24_2 H 0.0483 0.0866 0.5984
H26_2 H 0.0152 0.1000 0.6918
C37_2 C 0.1148(5) 0.1475(5) 0.7095(6)
H27_2 H 0.1391 0.1795 0.7183
H28_2 H 0.1353 0.1179 0.6786
H29_2 H 0.1018 0.1345 0.7700
C38_2 C 0.0279(5) 0.2067(4) 0.7011(5)
H30_2 H 0.0494 0.2403 0.7130
H31_2 H 0.0161 0.1905 0.7602
O17_2 O 0.55765(17) 0.0076(2) 0.0692(3)
O21_2 O 0.6268(2) 0.0455(3) 0.3827(3)
H33_2 H 0.0944115 0.17175 0.230771
H36_2 H 0.17175 0.0944115 0.519229
H13_2 H 0.1345 0.1018 0.9800
H15_2 H 0.1905 0.0161 0.9898
O13_2 O 0.4298(7) 0.1427(6) 0.9466(7)
O16_2 O 0.5438(3) 0.0881(3) 0.8583(3)
O3_2 O 0.44235(17) 0.9924(2) 0.5692(3)
H9_2 H 0.1258 0.9950 0.1546
H16_2 H 0.2160 0.9953 0.0861
O14_2 O 0.6414(3) 0.9237(4) 0.3137(4)
O18_2 O 0.55765(17) 0.9924(2) 0.4308(3)
O20_2 O 0.6268(2) 0.9545(3) 0.1173(3)
H25_2 H 0.9950 0.1258 0.5954
H32_2 H 0.9953 0.2160 0.6639
H9_3 H 0.0050 0.1258 0.4046
H16_3 H 0.0047 0.2160 0.3361
O14_3 O 0.0763(4) 0.6414(3) 0.5637(4)
H29_3 H 0.8655 0.1018 0.0200
H31_3 H 0.8095 0.0161 0.0102
O1_3 O 0.9367(3) 0.5196(2) 0.5040(3)
O2_3 O 0.9119(3) 0.4562(3) 0.3917(3)
O5_3 O 0.8697(3) 0.0996(2) 0.4863(4)
O6_3 O 0.9237(4) 0.6414(3) 0.4363(4)
C1_3 C 0.9285(4) 0.4710(4) 0.4755(5)
C2_3 C 0.9308(2) 0.42282(15) 0.5462(2)
C3_3 C 0.9498(2) 0.43456(13) 0.6372(3)
H1_3 H 0.9592 0.4713 0.6539
C4_3 C 0.9547(2) 0.39133(16) 0.7032(2)
C5_3 C 0.9407(2) 0.33637(14) 0.6782(2)
H2_3 H 0.9440 0.3074 0.7223
C6_3 C 0.9217(2) 0.32463(14) 0.5872(2)
C7_3 C 0.9168(2) 0.36786(17) 0.52118(19)
H3_3 H 0.9041 0.3600 0.4603
C8_3 C 0.9733(4) 0.4039(3) 0.8007(5)
C9_3 C 0.9054(2) 0.26505(15) 0.5619(3)
C10_3 C 0.8718(2) 0.23159(19) 0.6197(2)
C11_3 C 0.8597(2) 0.17633(19) 0.5937(3)
C12_3 C 0.8812(2) 0.15452(15) 0.5098(3)
C13_3 C 0.9149(2) 0.18798(19) 0.4519(3)
C14_3 C 0.9270(2) 0.24324(19) 0.4780(3)
H4_3 H 0.9495 0.2656 0.4392
C15_3 C 0.8424(4) 0.2562(4) 0.7073(5)
H5_3 H 0.8543 0.2945 0.7164
H6_3 H 0.8521 0.2342 0.7620
H7_3 H 0.8022 0.2551 0.6982
C16_3 C 0.9362(4) 0.1647(5) 0.3519(5)
C17_3 C 0.9726(5) 0.1149(5) 0.3680(7)
H8_3 H 0.9517 0.0866 0.4016
H10_3 H 0.9848 0.1000 0.3082
C18_3 C 0.8852(5) 0.1475(5) 0.2905(6)
H11_3 H 0.8609 0.1795 0.2817
H12_3 H 0.8647 0.1179 0.3214
H13_3 H 0.8982 0.1345 0.2300
C19_3 C 0.9721(5) 0.2067(4) 0.2989(5)
H14_3 H 0.9506 0.2403 0.2870
H15_3 H 0.9839 0.1905 0.2398
O7_3 O 0.8573(6) 0.5702(7) 0.3034(7)
O8_3 O 0.4804(2) 0.0633(3) 0.7460(3)
O12_3 O 0.9004(2) 0.1303(3) 0.7637(4)
C20_3 C 0.5290(4) 0.0715(4) 0.7745(5)
C21_3 C 0.57718(15) 0.0692(2) 0.7038(2)
C22_3 C 0.56544(13) 0.0502(2) 0.6128(3)
H17_3 H 0.5287 0.0408 0.5961
C23_3 C 0.60867(16) 0.0453(2) 0.5468(2)
C24_3 C 0.66363(14) 0.0593(2) 0.5718(2)
H18_3 H 0.6926 0.0560 0.5277
C25_3 C 0.67537(14) 0.0783(2) 0.6628(2)
C26_3 C 0.63214(17) 0.0832(2) 0.72882(19)
H19_3 H 0.6400 0.0959 0.7897
C27_3 C 0.5961(3) 0.0267(4) 0.4493(5)
C28_3 C 0.73495(15) 0.0946(2) 0.6881(3)
C29_3 C 0.76841(19) 0.1282(2) 0.6303(2)
C30_3 C 0.82367(19) 0.1403(2) 0.6563(3)
C31_3 C 0.84548(15) 0.1188(2) 0.7402(3)
C32_3 C 0.81202(19) 0.0851(2) 0.7981(3)
C33_3 C 0.75676(19) 0.0730(2) 0.7720(3)
H20_3 H 0.7344 0.0505 0.8108
C34_3 C 0.7438(4) 0.1576(4) 0.5427(5)
H21_3 H 0.7055 0.1457 0.5336
H22_3 H 0.7658 0.1479 0.4880
H23_3 H 0.7449 0.1978 0.5518
C35_3 C 0.8353(5) 0.0638(4) 0.8981(5)
C36_3 C 0.8851(5) 0.0274(5) 0.8820(7)
H24_3 H 0.9134 0.0483 0.8484
H26_3 H 0.9000 0.0152 0.9418
C37_3 C 0.8525(5) 0.1148(5) 0.9595(6)
H27_3 H 0.8205 0.1391 0.9683
H28_3 H 0.8821 0.1353 0.9286
C38_3 C 0.7933(4) 0.0279(5) 0.9511(5)
H30_3 H 0.7597 0.0494 0.9630
O13_3 O 0.8573(6) 0.4298(7) 0.1966(7)
O16_3 O 0.9119(3) 0.5438(3) 0.1083(3)
O21_3 O 0.9545(3) 0.6268(2) 0.6327(3)
H33_3 H 0.82825 0.0944115 0.480771
H36_3 H 0.905589 0.17175 0.769229
H25_3 H 0.8742 0.9950 0.8454
H32_3 H 0.7840 0.9953 0.9139
H25_4 H 0.0050 0.8742 0.0954
H32_4 H 0.0047 0.7840 0.1639
H9_4 H 0.8742 0.0050 0.6546
H16_4 H 0.7840 0.0047 0.5861
O14_4 O 0.3586(3) 0.0763(4) 0.8137(4)
C8_4 C 0.5961(3) 0.9733(4) 0.0507(5)
H6_4 H 0.7658 0.8521 0.0120
O12_4 O 0.8697(3) 0.9004(2) 0.0137(4)
C20_4 C 0.9285(4) 0.5290(4) 0.0245(5)
H19_4 H 0.9041 0.6400 0.0397
C32_4 C 0.9149(2) 0.81202(19) 0.0481(3)
C33_4 C 0.9270(2) 0.75676(19) 0.0220(3)
H20_4 H 0.9495 0.7344 0.0608
C35_4 C 0.9362(4) 0.8353(5) 0.1481(5)
C36_4 C 0.9726(5) 0.8851(5) 0.1320(7)
H24_4 H 0.9517 0.9134 0.0984
H26_4 H 0.9848 0.9000 0.1918
C37_4 C 0.8852(5) 0.8525(5) 0.2095(6)
H27_4 H 0.8609 0.8205 0.2183
H28_4 H 0.8647 0.8821 0.1786
H29_4 H 0.8982 0.8655 0.2700
C38_4 C 0.9721(5) 0.7933(4) 0.2011(5)
H30_4 H 0.9506 0.7597 0.2130
H31_4 H 0.9839 0.8095 0.2602
H36_4 H 0.82825 0.905589 0.0192292
O1_4 O 0.4804(2) 0.9367(3) 0.7540(3)
O2_4 O 0.5438(3) 0.9119(3) 0.6417(3)
O5_4 O 0.9004(2) 0.8697(3) 0.7363(4)
O6_4 O 0.3586(3) 0.9237(4) 0.6863(4)
C1_4 C 0.5290(4) 0.9285(4) 0.7255(5)
C2_4 C 0.57718(15) 0.9308(2) 0.7962(2)
C3_4 C 0.56544(13) 0.9498(2) 0.8872(3)
H1_4 H 0.5287 0.9592 0.9039
C4_4 C 0.60867(16) 0.9547(2) 0.9532(2)
C5_4 C 0.66363(14) 0.9407(2) 0.9282(2)
H2_4 H 0.6926 0.9440 0.9723
C6_4 C 0.67537(14) 0.9217(2) 0.8372(2)
C7_4 C 0.63214(17) 0.9168(2) 0.77118(19)
H3_4 H 0.6400 0.9041 0.7103
C9_4 C 0.73495(15) 0.9054(2) 0.8119(3)
C10_4 C 0.76841(19) 0.8718(2) 0.8697(2)
C11_4 C 0.82367(19) 0.8597(2) 0.8437(3)
C12_4 C 0.84548(15) 0.8812(2) 0.7598(3)
C13_4 C 0.81202(19) 0.9149(2) 0.7019(3)
C14_4 C 0.75676(19) 0.9270(2) 0.7280(3)
H4_4 H 0.7344 0.9495 0.6892
C15_4 C 0.7438(4) 0.8424(4) 0.9573(5)
H5_4 H 0.7055 0.8543 0.9664
H7_4 H 0.7449 0.8022 0.9482
C16_4 C 0.8353(5) 0.9362(4) 0.6019(5)
C17_4 C 0.8851(5) 0.9726(5) 0.6180(7)
H8_4 H 0.9134 0.9517 0.6516
H10_4 H 0.9000 0.9848 0.5582
C18_4 C 0.8525(5) 0.8852(5) 0.5405(6)
H11_4 H 0.8205 0.8609 0.5317
H12_4 H 0.8821 0.8647 0.5714
H13_4 H 0.8655 0.8982 0.4800
C19_4 C 0.7933(4) 0.9721(5) 0.5489(5)
H14_4 H 0.7597 0.9506 0.5370
H15_4 H 0.8095 0.9839 0.4898
O7_4 O 0.4298(7) 0.8573(6) 0.5534(7)
C21_4 C 0.9308(2) 0.57718(15) 0.9538(2)
C22_4 C 0.9498(2) 0.56544(13) 0.8628(3)
H17_4 H 0.9592 0.5287 0.8461
C23_4 C 0.9547(2) 0.60867(16) 0.7968(2)
C24_4 C 0.9407(2) 0.66363(14) 0.8218(2)
H18_4 H 0.9440 0.6926 0.7777
C25_4 C 0.9217(2) 0.67537(14) 0.9128(2)
C26_4 C 0.9168(2) 0.63214(17) 0.97882(19)
C27_4 C 0.9733(4) 0.5961(3) 0.6993(5)
C28_4 C 0.9054(2) 0.73495(15) 0.9381(3)
C29_4 C 0.8718(2) 0.76841(19) 0.8803(2)
C30_4 C 0.8597(2) 0.82367(19) 0.9063(3)
C31_4 C 0.8812(2) 0.84548(15) 0.9902(3)
C34_4 C 0.8424(4) 0.7438(4) 0.7927(5)
H21_4 H 0.8543 0.7055 0.7836
H22_4 H 0.8521 0.7658 0.7380
H23_4 H 0.8022 0.7449 0.8018
O13_4 O 0.5702(7) 0.8573(6) 0.4466(7)
H33_4 H 0.905589 0.82825 0.730771
loop_
_geom_bond_atom_site_label_1
_geom_bond_atom_site_label_2
_geom_bond_site_symmetry_1
_geom_bond_site_symmetry_2
Dy4 O10 1_555 1_555
Na2_2 O10 1_555 1_555
Dy1 O1 1_555 1_555
O4 C8 1_555 1_555
C2 C3 1_555 1_555
C3 H1 1_555 1_555
C4 C3 1_555 1_555
C5 C4 1_555 1_555
H2 C5 1_555 1_555
C6 C5 1_555 1_555
C7 C2 1_555 1_555
C8 C4 1_555 1_555
C9 C6 1_555 1_555
C10 C9 1_555 1_555
C11 C10 1_555 1_555
C12 C11 1_555 1_555
C15 C10 1_555 1_555
H5 C15 1_555 1_555
H6 C15 1_555 1_555
H7 C15 1_555 1_555
O8 C20 1_555 1_555
O9 C20 1_555 1_555
O12 C31 1_555 1_555
C20 C21 1_555 1_555
C21 C22 1_555 1_555
C22 H17 1_555 1_555
C23 C22 1_555 1_555
C24 C23 1_555 1_555
H18 C24 1_555 1_555
C25 C24 1_555 1_555
C26 C21 1_555 1_555
H19 C26 1_555 1_555
C28 C25 1_555 1_555
C29 C28 1_555 1_555
C30 C11 1_555 1_555
C31 C30 1_555 1_555
C32 C31 1_555 1_555
C33 C28 1_555 1_555
H20 C33 1_555 1_555
C34 C29 1_555 1_555
H21 C34 1_555 1_555
H23 C34 1_555 1_555
C35 C32 1_555 1_555
C36 C35 1_555 1_555
H24 C36 1_555 1_555
H26 C36 1_555 1_555
C37 C35 1_555 1_555
H27 C37 1_555 1_555
H28 C37 1_555 1_555
H29 C37 1_555 1_555
C38 C35 1_555 1_555
H30 C38 1_555 1_555
H31 C38 1_555 1_555
Dy2_2 O8 1_555 1_555
Na4 O9 1_555 1_555
O21 Dy1 1_555 1_555
O4 Dy3 1_555 1_555
C6 C7 1_555 1_555
C25 C26 1_555 1_555
C29 C30 1_555 1_555
C32 C33 1_555 1_555
O12 H36 1_555 1_555
Na1 O2 1_555 1_555
O2 C1 1_555 1_555
O6 Dy1_2 1_555 1_555
H4 C14 1_555 1_555
C16 C13 1_555 1_555
C17 C16 1_555 1_555
H8 C17 1_555 1_555
H10 C17 1_555 1_555
C18 C16 1_555 1_555
H11 C18 1_555 1_555
H12 C18 1_555 1_555
H13 C18 1_555 1_555
C19 C16 1_555 1_555
H14 C19 1_555 1_555
H15 C19 1_555 1_555
O7 Na1 1_555 1_555
O11 C27 1_555 1_555
O13 Na1 1_555 1_555
O16 Na1 1_555 1_555
O17 Dy1_2 1_555 1_555
O19 Na1 1_555 1_555
Na1 O17 1_555 1_555
C13 C14 1_555 1_555
O11 Dy4_2 1_555 1_555
O5 H33 1_555 1_555
O14 Dy1_3 1_555 1_555
Dy3_2 O3 1_555 1_555
Na3 O3 1_555 1_555
O18 Dy1_3 1_555 1_555
Na3 O18 1_555 1_555
O15 Dy1_4 1_555 1_555
O20 Dy1_4 1_555 1_555
Dy2 O1_2 1_555 1_555
Na2 O2_2 1_555 1_555
O1_2 C1_2 1_555 1_555
O2_2 C1_2 1_555 1_555
O4_2 C8_2 1_555 1_555
O5_2 C12_2 1_555 1_555
O6_2 Dy2 1_555 1_555
C1_2 C2_2 1_555 1_555
C2_2 C3_2 1_555 1_555
C3_2 H1_2 1_555 1_555
C4_2 C3_2 1_555 1_555
C5_2 C4_2 1_555 1_555
H2_2 C5_2 1_555 1_555
C6_2 C5_2 1_555 1_555
C7_2 C2_2 1_555 1_555
H3_2 C7_2 1_555 1_555
C8_2 C4_2 1_555 1_555
C9_2 C6_2 1_555 1_555
C10_2 C9_2 1_555 1_555
C11_2 C10_2 1_555 1_555
C12_2 C11_2 1_555 1_555
C13_2 C12_2 1_555 1_555
C14_2 C9_2 1_555 1_555
H4_2 C14_2 1_555 1_555
C15_2 C10_2 1_555 1_555
H5_2 C15_2 1_555 1_555
H6_2 C15_2 1_555 1_555
H7_2 C15_2 1_555 1_555
C16_2 C13_2 1_555 1_555
C17_2 C16_2 1_555 1_555
H8_2 C17_2 1_555 1_555
H10_2 C17_2 1_555 1_555
C18_2 C16_2 1_555 1_555
H11_2 C18_2 1_555 1_555
H12_2 C18_2 1_555 1_555
C19_2 C16_2 1_555 1_555
H14_2 C19_2 1_555 1_555
O7_2 Na2 1_555 1_555
O8_2 C20_2 1_555 1_555
O16 C20_2 1_555 1_555
O21 C27_2 1_555 1_555
O12_2 C31_2 1_555 1_555
C20_2 C21_2 1_555 1_555
C21_2 C22_2 1_555 1_555
C22_2 H17_2 1_555 1_555
C23_2 C22_2 1_555 1_555
C24_2 C23_2 1_555 1_555
H18_2 C24_2 1_555 1_555
C25_2 C24_2 1_555 1_555
C26_2 C21_2 1_555 1_555
H19_2 C26_2 1_555 1_555
C27_2 C23_2 1_555 1_555
C28_2 C25_2 1_555 1_555
C29_2 C28_2 1_555 1_555
C30_2 C11_2 1_555 1_555
C31_2 C30_2 1_555 1_555
C32_2 C31_2 1_555 1_555
C33_2 C28_2 1_555 1_555
H20_2 C33_2 1_555 1_555
C34_2 C29_2 1_555 1_555
H21_2 C34_2 1_555 1_555
H22_2 C34_2 1_555 1_555
H23_2 C34_2 1_555 1_555
C35_2 C32_2 1_555 1_555
C36_2 C35_2 1_555 1_555
H24_2 C36_2 1_555 1_555
H26_2 C36_2 1_555 1_555
C37_2 C35_2 1_555 1_555
H27_2 C37_2 1_555 1_555
H28_2 C37_2 1_555 1_555
H29_2 C37_2 1_555 1_555
C38_2 C35_2 1_555 1_555
H30_2 C38_2 1_555 1_555
H31_2 C38_2 1_555 1_555
Dy3 O8_2 1_555 1_555
O17_2 Dy2 1_555 1_555
O21_2 Dy2 1_555 1_555
Na2 O17_2 1_555 1_555
O4_2 Dy4 1_555 1_555
C6_2 C7_2 1_555 1_555
C13_2 C14_2 1_555 1_555
C25_2 C26_2 1_555 1_555
C29_2 C30_2 1_555 1_555
C32_2 C33_2 1_555 1_555
O5_2 H33_2 1_555 1_555
O12_2 H36_2 1_555 1_555
O13_2 Na2_2 1_555 1_555
O16_2 Na2_2 1_555 1_555
O14_2 Dy2_2 1_555 1_555
Dy4_2 O3_2 1_555 1_555
Na4 O3_2 1_555 1_555
O18_2 Dy2_2 1_555 1_555
O20_2 Dy2_2 1_555 1_555
Na4 O18_2 1_555 1_555
O14_3 Dy3 1_555 1_555
O19 Dy3 1_555 1_555
Dy3_2 O1_3 1_555 1_555
Na3 O2_3 1_555 1_555
O1_3 C1_3 1_555 1_555
O2_3 C1_3 1_555 1_555
O20 C8_3 1_555 1_555
O5_3 C12_3 1_555 1_555
O6_3 Dy3_2 1_555 1_555
C1_3 C2_3 1_555 1_555
C2_3 C3_3 1_555 1_555
C3_3 H1_3 1_555 1_555
C4_3 C3_3 1_555 1_555
C5_3 C4_3 1_555 1_555
H2_3 C5_3 1_555 1_555
C6_3 C5_3 1_555 1_555
C7_3 C2_3 1_555 1_555
H3_3 C7_3 1_555 1_555
C8_3 C4_3 1_555 1_555
C9_3 C6_3 1_555 1_555
C10_3 C9_3 1_555 1_555
C11_3 C10_3 1_555 1_555
C12_3 C11_3 1_555 1_555
C13_3 C12_3 1_555 1_555
C14_3 C9_3 1_555 1_555
H4_3 C14_3 1_555 1_555
C15_3 C10_3 1_555 1_555
H5_3 C15_3 1_555 1_555
H6_3 C15_3 1_555 1_555
H7_3 C15_3 1_555 1_555
C16_3 C13_3 1_555 1_555
C17_3 C16_3 1_555 1_555
H8_3 C17_3 1_555 1_555
H10_3 C17_3 1_555 1_555
C18_3 C16_3 1_555 1_555
H11_3 C18_3 1_555 1_555
H12_3 C18_3 1_555 1_555
H13_3 C18_3 1_555 1_555
C19_3 C16_3 1_555 1_555
H14_3 C19_3 1_555 1_555
H15_3 C19_3 1_555 1_555
O7_3 Na3 1_555 1_555
O8_3 C20_3 1_555 1_555
O16_2 C20_3 1_555 1_555
O21_2 C27_3 1_555 1_555
O12_3 C31_3 1_555 1_555
C20_3 C21_3 1_555 1_555
C21_3 C22_3 1_555 1_555
C22_3 H17_3 1_555 1_555
C23_3 C22_3 1_555 1_555
C24_3 C23_3 1_555 1_555
H18_3 C24_3 1_555 1_555
C25_3 C24_3 1_555 1_555
C26_3 C21_3 1_555 1_555
H19_3 C26_3 1_555 1_555
C27_3 C23_3 1_555 1_555
C28_3 C25_3 1_555 1_555
C29_3 C28_3 1_555 1_555
C30_3 C11_3 1_555 1_555
C31_3 C30_3 1_555 1_555
C32_3 C31_3 1_555 1_555
C33_3 C28_3 1_555 1_555
H20_3 C33_3 1_555 1_555
C34_3 C29_3 1_555 1_555
H21_3 C34_3 1_555 1_555
H22_3 C34_3 1_555 1_555
H23_3 C34_3 1_555 1_555
C35_3 C32_3 1_555 1_555
C36_3 C35_3 1_555 1_555
H24_3 C36_3 1_555 1_555
H26_3 C36_3 1_555 1_555
C37_3 C35_3 1_555 1_555
H27_3 C37_3 1_555 1_555
H28_3 C37_3 1_555 1_555
C38_3 C35_3 1_555 1_555
H30_3 C38_3 1_555 1_555
O13_3 Na3 1_555 1_555
Dy4 O8_3 1_555 1_555
O16_3 Na3 1_555 1_555
O21_3 Dy3_2 1_555 1_555
C6_3 C7_3 1_555 1_555
C13_3 C14_3 1_555 1_555
C25_3 C26_3 1_555 1_555
C29_3 C30_3 1_555 1_555
C32_3 C33_3 1_555 1_555
O5_3 H33_3 1_555 1_555
O12_3 H36_3 1_555 1_555
O14_4 Dy4 1_555 1_555
O20_2 C8_4 1_555 1_555
O16_3 C20_4 1_555 1_555
H20_4 C33_4 1_555 1_555
C35_4 C32_4 1_555 1_555
C36_4 C35_4 1_555 1_555
H24_4 C36_4 1_555 1_555
H26_4 C36_4 1_555 1_555
C37_4 C35_4 1_555 1_555
H27_4 C37_4 1_555 1_555
H28_4 C37_4 1_555 1_555
H29_4 C37_4 1_555 1_555
C38_4 C35_4 1_555 1_555
H30_4 C38_4 1_555 1_555
H31_4 C38_4 1_555 1_555
C32_4 C33_4 1_555 1_555
O12_4 H36_4 1_555 1_555
Dy4_2 O1_4 1_555 1_555
Na4 O2_4 1_555 1_555
O1_4 C1_4 1_555 1_555
O2_4 C1_4 1_555 1_555
O5_4 C12_4 1_555 1_555
O6_4 Dy4_2 1_555 1_555
C1_4 C2_4 1_555 1_555
C2_4 C3_4 1_555 1_555
C3_4 H1_4 1_555 1_555
C4_4 C3_4 1_555 1_555
C5_4 C4_4 1_555 1_555
H2_4 C5_4 1_555 1_555
C6_4 C5_4 1_555 1_555
C7_4 C2_4 1_555 1_555
H3_4 C7_4 1_555 1_555
C9_4 C6_4 1_555 1_555
C10_4 C9_4 1_555 1_555
C11_4 C10_4 1_555 1_555
C12_4 C11_4 1_555 1_555
C13_4 C12_4 1_555 1_555
C14_4 C9_4 1_555 1_555
H4_4 C14_4 1_555 1_555
C15_4 C10_4 1_555 1_555
H5_4 C15_4 1_555 1_555
H7_4 C15_4 1_555 1_555
C16_4 C13_4 1_555 1_555
C17_4 C16_4 1_555 1_555
H8_4 C17_4 1_555 1_555
H10_4 C17_4 1_555 1_555
C18_4 C16_4 1_555 1_555
H11_4 C18_4 1_555 1_555
H12_4 C18_4 1_555 1_555
H13_4 C18_4 1_555 1_555
C19_4 C16_4 1_555 1_555
H14_4 C19_4 1_555 1_555
H15_4 C19_4 1_555 1_555
O7_4 Na4 1_555 1_555
O21_3 C27_4 1_555 1_555
C21_4 C22_4 1_555 1_555
C22_4 H17_4 1_555 1_555
C23_4 C22_4 1_555 1_555
C24_4 C23_4 1_555 1_555
H18_4 C24_4 1_555 1_555
C25_4 C24_4 1_555 1_555
C26_4 C21_4 1_555 1_555
C27_4 C23_4 1_555 1_555
C28_4 C25_4 1_555 1_555
C29_4 C28_4 1_555 1_555
C30_4 C11_4 1_555 1_555
C31_4 C30_4 1_555 1_555
C34_4 C29_4 1_555 1_555
H21_4 C34_4 1_555 1_555
H22_4 C34_4 1_555 1_555
H23_4 C34_4 1_555 1_555
O13_4 Na4 1_555 1_555
C6_4 C7_4 1_555 1_555
C13_4 C14_4 1_555 1_555
C25_4 C26_4 1_555 1_555
C29_4 C30_4 1_555 1_555
O5_4 H33_4 1_555 1_555

#END
