
###############################################################################
#
# This file contains modified crystal structure data generated from the
# MOF subset of the Cambridge Structural Database (CSD) v543 
# hosted by the Cambridge Crystallographic Data Centre (CCDC).
#
# This work is licensed under the Creative Commons
# Attribution-NonCommercial-ShareAlike 4.0 International License.
# To view a copy of this license, visit
# http://creativecommons.org/licenses/by-nc-sa/4.0/
# or send a letter to
# Creative Commons, PO Box 1866, Mountain View, CA 94042, USA.
#
# CIF created using the CSD Python API on 29 September 2022
# The structure has been converted into the P1 space group
# The structure has a 3D framework
# The original CSD entry FIFGIM is in the trigonal crystal system
# The framework has been calculated to contain at least 10.0% void space
# The void calculation uses a probe of radius 1.32A, grid spacing 0.4
# H atom positions have been added when not included in the experimental data
#
###############################################################################

data_FIFGIM
_chemical_formula_moiety         '(C120 H84 In6 N6 O53 Zn16)n'
_symmetry_cell_setting           triclinic
_symmetry_space_group_name_H-M   'P 1'
_symmetry_Int_Tables_number      1
_space_group_name_Hall           'P 1'
loop_
_symmetry_equiv_pos_site_id
_symmetry_equiv_pos_as_xyz
1 x,y,z
_cell_length_a                   18.7843(8)
_cell_length_b                   18.7843(8)
_cell_length_c                   25.0267(11)
_cell_angle_alpha                90
_cell_angle_beta                 90
_cell_angle_gamma                120
_cell_volume                     7647.58
loop_
_atom_site_label
_atom_site_type_symbol
_atom_site_fract_x
_atom_site_fract_y
_atom_site_fract_z
Zn1 Zn -0.0000 0.0000 0.67797(9)
O3 O -0.0000 0.0000 0.5990(8)
Zn2 Zn -0.0000 0.0000 0.82203(9)
O21 O -0.0000 -0.0000 0.9010(8)
O30 O 0.1145(6) 0.0575(4) 0.7012(3)
O31 O 0.1145(6) 0.0570(4) 0.7988(3)
H39 H 0.0286494 0.0575501 0.585774
Zn1_2 Zn -0.0000 1.0000 0.67797(9)
O3_2 O -0.0000 1.0000 0.5990(8)
O12 O 0.18743(19) 0.65364(27) 0.31173(12)
O13 O 0.18757(19) 0.53397(28) 0.31171(12)
C32 C 0.0484(5) 0.5850(6) 0.4512(3)
H19 H 0.0328 0.6202 0.4665
C33 C 0.0487(5) 0.4626(6) 0.4509(3)
H20 H 0.0333 0.4116 0.4661
C34 C 0.0939(4) 0.6083(6) 0.4048(2)
H21 H 0.1095 0.6593 0.3899
C35 C 0.0937(4) 0.4856(6) 0.4047(2)
H22 H 0.1091 0.4501 0.3895
C36 C 0.1163(3) 0.5582(4) 0.3806(2)
C37 C 0.0262(4) 0.5129(6) 0.4747(2)
C38 C 0.1680(3) 0.5839(5) 0.33012(19)
Zn2_2 Zn -0.0000 1.0000 0.82203(9)
O21_2 O -0.0000 1.0000 0.9010(8)
In8 In 0.270989(13) 0.729011(13) 0.2500
In10 In 0.270989(13) 0.541978(18) 0.2500
H38 H 0.0286494 0.971099 0.914226
H40 H 0.0289007 0.971351 0.585774
In1 In 0.729011(13) 0.270989(13) 0.7500
Zn1_3 Zn 1.0000 0.0000 0.67797(9)
O1 O 0.53379(19) 0.18743(19) 0.68827(12)
O2 O 0.6536(2) 0.18757(19) 0.68829(12)
O3_3 O 1.0000 0.0000 0.5990(8)
O4 O 0.9425(4) 0.0570(4) 0.7012(3)
O5 O 0.6667 0.3333 0.7500
N1 N 0.79555(18) 0.20445(18) 0.7500
C1 C 0.4634(4) 0.0484(5) 0.5488(3)
H1 H 0.4126 0.0328 0.5335
C2 C 0.5861(4) 0.0487(5) 0.5491(3)
H2 H 0.6217 0.0333 0.5339
C3 C 0.4856(4) 0.0939(4) 0.5952(2)
H3 H 0.4502 0.1095 0.6101
C4 C 0.6081(4) 0.0937(4) 0.5953(2)
H4 H 0.6590 0.1091 0.6105
C5 C 0.8165(5) 0.1834(5) 0.7075(4)
H5 H 0.8030 0.1987 0.6755
C6 C 0.5581(3) 0.1163(3) 0.6194(2)
C7 C 0.5133(4) 0.0262(4) 0.5253(2)
C8 C 0.5841(4) 0.1680(3) 0.66988(19)
C9 C 0.8595(6) 0.1376(6) 0.7042(4)
H6 H 0.8722 0.1214 0.6722
C10 C 0.8778(4) 0.1222(4) 0.7500
C11 C 0.9253(4) 0.0747(4) 0.7500
O8 O 0.9430(4) 0.0575(4) 0.7988(3)
C19 C 0.8166(5) 0.1835(5) 0.7925(4)
H11 H 0.8013 0.1970 0.8245
C20 C 0.8624(6) 0.1405(6) 0.7958(4)
H12 H 0.8786 0.1278 0.8278
Zn2_3 Zn 1.0000 0.0000 0.82203(9)
O21_3 O 1.0000 -0.0000 0.9010(8)
In5 In 0.729011(13) 0.458022(18) 0.7500
In6 In 0.541978(18) 0.270989(13) 0.7500
O23 O 0.81257(19) 0.34636(27) 0.68827(12)
O25 O 0.65364(27) 0.18743(19) 0.81173(12)
O27 O 0.81243(19) 0.3464(2) 0.81171(12)
Zn1_4 Zn 1.0000 1.0000 0.67797(9)
O3_4 O 1.0000 1.0000 0.5990(8)
O6 O 0.46621(19) 0.81257(19) 0.31173(12)
O7 O 0.3464(2) 0.81243(19) 0.31171(12)
C12 C 0.5366(4) 0.9516(5) 0.4512(3)
H7 H 0.5874 0.9672 0.4665
C13 C 0.4139(4) 0.9513(5) 0.4509(3)
H8 H 0.3783 0.9667 0.4661
C14 C 0.5144(4) 0.9061(4) 0.4048(2)
H9 H 0.5498 0.8905 0.3899
C15 C 0.3919(4) 0.9063(4) 0.4047(2)
H10 H 0.3410 0.8909 0.3895
C16 C 0.4419(3) 0.8837(3) 0.3806(2)
C17 C 0.4867(4) 0.9738(4) 0.4747(2)
C18 C 0.4159(4) 0.8320(3) 0.33012(19)
O10 O 0.81243(19) 0.46603(28) 0.68829(12)
O11 O 0.9430(4) 0.8855(6) 0.7012(3)
N2 N 0.79555(18) 0.59110(25) 0.7500
C21 C 0.9516(5) 0.4150(6) 0.5488(3)
H13 H 0.9672 0.3798 0.5335
C22 C 0.9513(5) 0.5374(6) 0.5491(3)
H14 H 0.9667 0.5884 0.5339
C23 C 0.9061(4) 0.3917(6) 0.5952(2)
H15 H 0.8905 0.3407 0.6101
C24 C 0.9063(4) 0.5144(6) 0.5953(2)
H16 H 0.8909 0.5499 0.6105
C25 C 0.8166(5) 0.6331(7) 0.7075(4)
H17 H 0.8013 0.6043 0.6755
C26 C 0.8837(3) 0.4418(4) 0.6194(2)
C27 C 0.9738(4) 0.4871(6) 0.5253(2)
C28 C 0.8320(3) 0.4161(5) 0.66988(19)
C29 C 0.8624(6) 0.7219(8) 0.7042(4)
H18 H 0.8786 0.7508 0.6722
C30 C 0.8778(4) 0.7556(6) 0.7500
C31 C 0.9253(4) 0.8506(6) 0.7500
O14 O 0.9425(4) 0.8855(6) 0.7988(3)
C39 C 0.8165(5) 0.6331(7) 0.7925(4)
H23 H 0.8030 0.6043 0.8245
C40 C 0.8595(6) 0.7219(8) 0.7958(4)
H24 H 0.8722 0.7508 0.8278
O15 O 0.65364(27) 0.46621(19) 0.68827(12)
O16 O 0.53397(28) 0.3464(2) 0.68829(12)
N3 N 0.40890(25) 0.20445(18) 0.7500
C41 C 0.5850(6) 0.5366(4) 0.5488(3)
H25 H 0.6202 0.5874 0.5335
C42 C 0.4626(6) 0.4139(4) 0.5491(3)
H26 H 0.4116 0.3783 0.5339
C43 C 0.6083(6) 0.5144(4) 0.5952(2)
H27 H 0.6593 0.5498 0.6101
C44 C 0.4856(6) 0.3919(4) 0.5953(2)
H28 H 0.4501 0.3410 0.6105
C45 C 0.3669(7) 0.1835(5) 0.7075(4)
H29 H 0.3957 0.1970 0.6755
C46 C 0.5582(4) 0.4419(3) 0.6194(2)
C47 C 0.5129(6) 0.4867(4) 0.5253(2)
C48 C 0.5839(5) 0.4159(4) 0.66988(19)
C49 C 0.2781(8) 0.1405(6) 0.7042(4)
H30 H 0.2492 0.1278 0.6722
C50 C 0.2444(6) 0.1222(4) 0.7500
C51 C 0.1494(6) 0.0747(4) 0.7500
O18 O 0.34636(27) 0.53379(19) 0.31173(12)
O19 O 0.46603(28) 0.6536(2) 0.31171(12)
C52 C 0.4150(6) 0.4634(4) 0.4512(3)
H31 H 0.3798 0.4126 0.4665
C53 C 0.5374(6) 0.5861(4) 0.4509(3)
H32 H 0.5884 0.6217 0.4661
C54 C 0.3917(6) 0.4856(4) 0.4048(2)
H33 H 0.3407 0.4502 0.3899
C55 C 0.5144(6) 0.6081(4) 0.4047(2)
H34 H 0.5499 0.6590 0.3895
C56 C 0.4418(4) 0.5581(3) 0.3806(2)
C57 C 0.4871(6) 0.5133(4) 0.4747(2)
C58 C 0.4161(5) 0.5841(4) 0.33012(19)
C59 C 0.3669(7) 0.1834(5) 0.7925(4)
H35 H 0.3957 0.1987 0.8245
C60 C 0.2781(8) 0.1376(6) 0.7958(4)
H36 H 0.2492 0.1214 0.8278
Zn2_4 Zn 1.0000 1.0000 0.82203(9)
O21_4 O 1.0000 1.0000 0.9010(8)
In11 In 0.458022(18) 0.729011(13) 0.2500
O24 O 0.81257(19) 0.46621(19) 0.81173(12)
O26 O 0.53379(19) 0.34636(27) 0.81173(12)
O28 O 0.53397(28) 0.18757(19) 0.81171(12)
O29 O 0.6536(2) 0.46603(28) 0.81171(12)
H37 H 0.94245 0.971351 0.914226
H38_2 H 0.0289007 0.0575501 0.914226
H39_2 H 0.94245 0.971099 0.585774
O6_2 O 0.18743(19) 0.53379(19) 0.18827(12)
O7_2 O 0.18757(19) 0.6536(2) 0.18829(12)
C12_2 C 0.0484(5) 0.4634(4) 0.0488(3)
H7_2 H 0.0328 0.4126 0.0335
C13_2 C 0.0487(5) 0.5861(4) 0.0491(3)
H8_2 H 0.0333 0.6217 0.0339
C14_2 C 0.0939(4) 0.4856(4) 0.0952(2)
H9_2 H 0.1095 0.4502 0.1101
C15_2 C 0.0937(4) 0.6081(4) 0.0953(2)
H10_2 H 0.1091 0.6590 0.1105
C16_2 C 0.1163(3) 0.5581(3) 0.1194(2)
C17_2 C 0.0262(4) 0.5133(4) 0.0253(2)
C18_2 C 0.1680(3) 0.5841(4) 0.16988(19)
O18_2 O 0.46621(19) 0.65364(27) 0.18827(12)
O19_2 O 0.3464(2) 0.53397(28) 0.18829(12)
C52_2 C 0.5366(4) 0.5850(6) 0.0488(3)
H31_2 H 0.5874 0.6202 0.0335
C53_2 C 0.4139(4) 0.4626(6) 0.0491(3)
H32_2 H 0.3783 0.4116 0.0339
C54_2 C 0.5144(4) 0.6083(6) 0.0952(2)
H33_2 H 0.5498 0.6593 0.1101
C55_2 C 0.3919(4) 0.4856(6) 0.0953(2)
H34_2 H 0.3410 0.4501 0.1105
C56_2 C 0.4419(3) 0.5582(4) 0.1194(2)
C57_2 C 0.4867(4) 0.5129(6) 0.0253(2)
C58_2 C 0.4159(4) 0.5839(5) 0.16988(19)
C21_2 C 0.5850(6) 0.0484(5) 0.9512(3)
H13_2 H 0.6202 0.0328 0.9665
C22_2 C 0.4626(6) 0.0487(5) 0.9509(3)
H14_2 H 0.4116 0.0333 0.9661
C23_2 C 0.6083(6) 0.0939(4) 0.9048(2)
H15_2 H 0.6593 0.1095 0.8899
C24_2 C 0.4856(6) 0.0937(4) 0.9047(2)
H16_2 H 0.4501 0.1091 0.8895
C26_2 C 0.5582(4) 0.1163(3) 0.8806(2)
C27_2 C 0.5129(6) 0.0262(4) 0.9747(2)
C28_2 C 0.5839(5) 0.1680(3) 0.83012(19)
C41_2 C 0.4634(4) 0.4150(6) 0.9512(3)
H25_2 H 0.4126 0.3798 0.9665
C42_2 C 0.5861(4) 0.5374(6) 0.9509(3)
H26_2 H 0.6217 0.5884 0.9661
C43_2 C 0.4856(4) 0.3917(6) 0.9048(2)
H27_2 H 0.4502 0.3407 0.8899
C44_2 C 0.6081(4) 0.5144(6) 0.9047(2)
H28_2 H 0.6590 0.5499 0.8895
C46_2 C 0.5581(3) 0.4418(4) 0.8806(2)
C47_2 C 0.5133(4) 0.4871(6) 0.9747(2)
C48_2 C 0.5841(4) 0.4161(5) 0.83012(19)
O12_2 O 0.34636(27) 0.81257(19) 0.18827(12)
O13_2 O 0.46603(28) 0.81243(19) 0.18829(12)
C32_2 C 0.4150(6) 0.9516(5) 0.0488(3)
H19_2 H 0.3798 0.9672 0.0335
C33_2 C 0.5374(6) 0.9513(5) 0.0491(3)
H20_2 H 0.5884 0.9667 0.0339
C34_2 C 0.3917(6) 0.9061(4) 0.0952(2)
H21_2 H 0.3407 0.8905 0.1101
C35_2 C 0.5144(6) 0.9063(4) 0.0953(2)
H22_2 H 0.5499 0.8909 0.1105
C36_2 C 0.4418(4) 0.8837(3) 0.1194(2)
C37_2 C 0.4871(6) 0.9738(4) 0.0253(2)
C38_2 C 0.4161(5) 0.8320(3) 0.16988(19)
C1_2 C 0.9516(5) 0.5366(4) 0.9512(3)
H1_2 H 0.9672 0.5874 0.9665
C2_2 C 0.9513(5) 0.4139(4) 0.9509(3)
H2_2 H 0.9667 0.3783 0.9661
C3_2 C 0.9061(4) 0.5144(4) 0.9048(2)
H3_2 H 0.8905 0.5498 0.8899
C4_2 C 0.9063(4) 0.3919(4) 0.9047(2)
H4_2 H 0.8909 0.3410 0.8895
C6_2 C 0.8837(3) 0.4419(3) 0.8806(2)
C7_2 C 0.9738(4) 0.4867(4) 0.9747(2)
C8_2 C 0.8320(3) 0.4159(4) 0.83012(19)
Zn3 Zn -0.0000 -0.0000 0.32203(9)
Zn4 Zn -0.0000 -0.0000 0.17797(9)
Zn3_2 Zn -0.0000 1.0000 0.32203(9)
Zn4_2 Zn -0.0000 1.0000 0.17797(9)
Zn3_3 Zn 1.0000 -0.0000 0.32203(9)
Zn4_3 Zn 1.0000 -0.0000 0.17797(9)
O3_5 O 0.0000 0.0000 0.4010(8)
O11_2 O 0.0570(4) 0.1145(6) 0.2988(3)
N2_2 N 0.20445(18) 0.40890(25) 0.2500
C25_2 C 0.1834(5) 0.3669(7) 0.2925(4)
H17_2 H 0.1987 0.3957 0.3245
C29_2 C 0.1376(6) 0.2781(8) 0.2958(4)
H18_2 H 0.1214 0.2492 0.3278
C30_2 C 0.1222(4) 0.2444(6) 0.2500
C31_2 C 0.0747(4) 0.1494(6) 0.2500
O14_2 O 0.0575(4) 0.1145(6) 0.2012(3)
C39_2 C 0.1835(5) 0.3669(7) 0.2075(4)
H23_2 H 0.1970 0.3957 0.1755
C40_2 C 0.1405(6) 0.2781(8) 0.2042(4)
H24_2 H 0.1278 0.2492 0.1722
O17 O 0.8855(6) 0.9425(4) 0.2988(3)
N3_2 N 0.59110(25) 0.79555(18) 0.2500
C45_2 C 0.6331(7) 0.8165(5) 0.2925(4)
H29_2 H 0.6043 0.8030 0.3245
C49_2 C 0.7219(8) 0.8595(6) 0.2958(4)
H30_2 H 0.7508 0.8722 0.3278
C50_2 C 0.7556(6) 0.8778(4) 0.2500
C51_2 C 0.8506(6) 0.9253(4) 0.2500
O20 O 0.8855(6) 0.9430(4) 0.2012(3)
C59_2 C 0.6331(7) 0.8166(5) 0.2075(4)
H35_2 H 0.6043 0.8013 0.1755
C60_2 C 0.7219(8) 0.8624(6) 0.2042(4)
H36_2 H 0.7508 0.8786 0.1722
O21_5 O 0.0000 0.0000 0.0990(8)
Zn3_4 Zn 1.0000 1.0000 0.32203(9)
Zn4_4 Zn 1.0000 1.0000 0.17797(9)
O32 O 0.3333 0.6667 0.2500
H37_2 H 0.0575501 0.0286494 0.0857741
O3_6 O 0.0000 1.0000 0.4010(8)
O4_2 O 0.0575(4) 0.9430(4) 0.2988(3)
N1_2 N 0.20445(18) 0.79555(18) 0.2500
C5_2 C 0.1835(5) 0.8166(5) 0.2925(4)
H5_2 H 0.1970 0.8013 0.3245
C9_2 C 0.1405(6) 0.8624(6) 0.2958(4)
H6_2 H 0.1278 0.8786 0.3278
C10_2 C 0.1222(4) 0.8778(4) 0.2500
C11_2 C 0.0747(4) 0.9253(4) 0.2500
O8_2 O 0.0570(4) 0.9425(4) 0.2012(3)
C19_2 C 0.1834(5) 0.8165(5) 0.2075(4)
H11_2 H 0.1987 0.8030 0.1755
C20_2 C 0.1376(6) 0.8595(6) 0.2042(4)
H12_2 H 0.1214 0.8722 0.1722
O21_6 O 0.0000 1.0000 0.0990(8)
O3_7 O 1.0000 0.0000 0.4010(8)
O21_7 O 1.0000 0.0000 0.0990(8)
H38_3 H 0.971351 0.0289007 0.0857741
H40_2 H 0.971099 0.0286494 0.414226
O3_8 O 1.0000 1.0000 0.4010(8)
O21_8 O 1.0000 1.0000 0.0990(8)
H39_3 H 0.971351 0.94245 0.414226
H39_4 H 0.0575501 0.0289007 0.414226
H38_4 H 0.971099 0.94245 0.0857741
loop_
_geom_bond_atom_site_label_1
_geom_bond_atom_site_label_2
_geom_bond_site_symmetry_1
_geom_bond_site_symmetry_2
Zn1 O3 1_555 1_555
O21 Zn2 1_555 1_555
O30 Zn1 1_555 1_555
O31 Zn2 1_555 1_555
O3 H39 1_555 1_555
Zn1_2 O3_2 1_555 1_555
O12 C38 1_555 1_555
O13 C38 1_555 1_555
C32 H19 1_555 1_555
C33 H20 1_555 1_555
C34 C32 1_555 1_555
H21 C34 1_555 1_555
C35 C33 1_555 1_555
H22 C35 1_555 1_555
C36 C34 1_555 1_555
C38 C36 1_555 1_555
O21_2 Zn2_2 1_555 1_555
In8 O12 1_555 1_555
In10 O13 1_555 1_555
C32 C37 1_555 1_555
C33 C37 1_555 1_555
C35 C36 1_555 1_555
O21_2 H38 1_555 1_555
O3_2 H40 1_555 1_555
In1 O2 1_555 1_555
Zn1_3 O3_3 1_555 1_555
O1 C8 1_555 1_555
O2 C8 1_555 1_555
O4 Zn1_3 1_555 1_555
O5 In1 1_555 1_555
N1 In1 1_555 1_555
C1 H1 1_555 1_555
C2 H2 1_555 1_555
C3 C1 1_555 1_555
H3 C3 1_555 1_555
C4 C2 1_555 1_555
H4 C4 1_555 1_555
C5 N1 1_555 1_555
H5 C5 1_555 1_555
C6 C3 1_555 1_555
C7 C1 1_555 1_555
C8 C6 1_555 1_555
C9 C5 1_555 1_555
H6 C9 1_555 1_555
C10 C9 1_555 1_555
C11 O4 1_555 1_555
O8 C11 1_555 1_555
C19 N1 1_555 1_555
H11 C19 1_555 1_555
C20 C10 1_555 1_555
H12 C20 1_555 1_555
Zn2_3 O8 1_555 1_555
O21_3 Zn2_3 1_555 1_555
In5 O5 1_555 1_555
In6 O1 1_555 1_555
O23 In1 1_555 1_555
O25 In1 1_555 1_555
O27 In1 1_555 1_555
O5 In6 1_555 1_555
C2 C7 1_555 1_555
C4 C6 1_555 1_555
C10 C11 1_555 1_555
C19 C20 1_555 1_555
Zn1_4 O3_4 1_555 1_555
O6 C18 1_555 1_555
O7 C18 1_555 1_555
C12 H7 1_555 1_555
C13 H8 1_555 1_555
C14 C12 1_555 1_555
H9 C14 1_555 1_555
C15 C13 1_555 1_555
H10 C15 1_555 1_555
C16 C14 1_555 1_555
C18 C16 1_555 1_555
In5 O10 1_555 1_555
O23 C28 1_555 1_555
O10 C28 1_555 1_555
O11 Zn1_4 1_555 1_555
N2 In5 1_555 1_555
C21 H13 1_555 1_555
C22 H14 1_555 1_555
C23 C21 1_555 1_555
H15 C23 1_555 1_555
C24 C22 1_555 1_555
H16 C24 1_555 1_555
C25 N2 1_555 1_555
H17 C25 1_555 1_555
C26 C23 1_555 1_555
C27 C21 1_555 1_555
C28 C26 1_555 1_555
C29 C25 1_555 1_555
H18 C29 1_555 1_555
C30 C29 1_555 1_555
C31 O11 1_555 1_555
O14 C31 1_555 1_555
C39 N2 1_555 1_555
H23 C39 1_555 1_555
C40 C30 1_555 1_555
H24 C40 1_555 1_555
In6 O16 1_555 1_555
O15 In5 1_555 1_555
O16 C48 1_555 1_555
O30 C51 1_555 1_555
N3 In6 1_555 1_555
C41 H25 1_555 1_555
C42 H26 1_555 1_555
C43 C41 1_555 1_555
H27 C43 1_555 1_555
C44 C42 1_555 1_555
H28 C44 1_555 1_555
C45 N3 1_555 1_555
H29 C45 1_555 1_555
C46 C43 1_555 1_555
C47 C41 1_555 1_555
C48 O15 1_555 1_555
C49 C45 1_555 1_555
H30 C49 1_555 1_555
C50 C49 1_555 1_555
C51 C50 1_555 1_555
O18 C58 1_555 1_555
O19 C58 1_555 1_555
C52 H31 1_555 1_555
C53 H32 1_555 1_555
C54 C52 1_555 1_555
H33 C54 1_555 1_555
C55 C53 1_555 1_555
H34 C55 1_555 1_555
C56 C54 1_555 1_555
C57 C47 1_555 1_555
C58 C56 1_555 1_555
O31 C51 1_555 1_555
C59 N3 1_555 1_555
H35 C59 1_555 1_555
C60 C50 1_555 1_555
H36 C60 1_555 1_555
O21_4 Zn2_4 1_555 1_555
In8 O7 1_555 1_555
In10 O18 1_555 1_555
In11 O6 1_555 1_555
O24 In5 1_555 1_555
O26 In6 1_555 1_555
O28 In6 1_555 1_555
O29 In5 1_555 1_555
C12 C17 1_555 1_555
C13 C17 1_555 1_555
C15 C16 1_555 1_555
C22 C27 1_555 1_555
C24 C26 1_555 1_555
C30 C31 1_555 1_555
O14 Zn2_4 1_555 1_555
C39 C40 1_555 1_555
C42 C47 1_555 1_555
C44 C46 1_555 1_555
C46 C48 1_555 1_555
O19 In11 1_555 1_555
C52 C57 1_555 1_555
C53 C57 1_555 1_555
C55 C56 1_555 1_555
C59 C60 1_555 1_555
O21_4 H37 1_555 1_555
O21 H38_2 1_555 1_555
O3_4 H39_2 1_555 1_555
O6_2 C18_2 1_555 1_555
O7_2 C18_2 1_555 1_555
C12_2 H7_2 1_555 1_555
C13_2 H8_2 1_555 1_555
C14_2 C12_2 1_555 1_555
H9_2 C14_2 1_555 1_555
C15_2 C13_2 1_555 1_555
H10_2 C15_2 1_555 1_555
C16_2 C14_2 1_555 1_555
C18_2 C16_2 1_555 1_555
O18_2 C58_2 1_555 1_555
O19_2 C58_2 1_555 1_555
C52_2 H31_2 1_555 1_555
C53_2 H32_2 1_555 1_555
C54_2 C52_2 1_555 1_555
H33_2 C54_2 1_555 1_555
C55_2 C53_2 1_555 1_555
H34_2 C55_2 1_555 1_555
C56_2 C54_2 1_555 1_555
C58_2 C56_2 1_555 1_555
In8 O7_2 1_555 1_555
In11 O18_2 1_555 1_555
In10 O6_2 1_555 1_555
C12_2 C17_2 1_555 1_555
C13_2 C17_2 1_555 1_555
C15_2 C16_2 1_555 1_555
O19_2 In10 1_555 1_555
C52_2 C57_2 1_555 1_555
C53_2 C57_2 1_555 1_555
C55_2 C56_2 1_555 1_555
O25 C28_2 1_555 1_555
O28 C28_2 1_555 1_555
C21_2 H13_2 1_555 1_555
C22_2 H14_2 1_555 1_555
C23_2 C21_2 1_555 1_555
H15_2 C23_2 1_555 1_555
C24_2 C22_2 1_555 1_555
H16_2 C24_2 1_555 1_555
C26_2 C23_2 1_555 1_555
C27_2 C21_2 1_555 1_555
C28_2 C26_2 1_555 1_555
O29 C48_2 1_555 1_555
C41_2 H25_2 1_555 1_555
C42_2 H26_2 1_555 1_555
C43_2 C41_2 1_555 1_555
H27_2 C43_2 1_555 1_555
C44_2 C42_2 1_555 1_555
H28_2 C44_2 1_555 1_555
C46_2 C43_2 1_555 1_555
C47_2 C41_2 1_555 1_555
C48_2 O26 1_555 1_555
C22_2 C27_2 1_555 1_555
C24_2 C26_2 1_555 1_555
C42_2 C47_2 1_555 1_555
C44_2 C46_2 1_555 1_555
C46_2 C48_2 1_555 1_555
O12_2 C38_2 1_555 1_555
O13_2 C38_2 1_555 1_555
C32_2 H19_2 1_555 1_555
C33_2 H20_2 1_555 1_555
C34_2 C32_2 1_555 1_555
H21_2 C34_2 1_555 1_555
C35_2 C33_2 1_555 1_555
H22_2 C35_2 1_555 1_555
C36_2 C34_2 1_555 1_555
C38_2 C36_2 1_555 1_555
In8 O12_2 1_555 1_555
In11 O13_2 1_555 1_555
C32_2 C37_2 1_555 1_555
C33_2 C37_2 1_555 1_555
C35_2 C36_2 1_555 1_555
O24 C8_2 1_555 1_555
O27 C8_2 1_555 1_555
C1_2 H1_2 1_555 1_555
C2_2 H2_2 1_555 1_555
C3_2 C1_2 1_555 1_555
H3_2 C3_2 1_555 1_555
C4_2 C2_2 1_555 1_555
H4_2 C4_2 1_555 1_555
C6_2 C3_2 1_555 1_555
C7_2 C1_2 1_555 1_555
C8_2 C6_2 1_555 1_555
C2_2 C7_2 1_555 1_555
C4_2 C6_2 1_555 1_555
Zn3 O3_5 1_555 1_555
O11_2 Zn3 1_555 1_555
N2_2 In10 1_555 1_555
C25_2 N2_2 1_555 1_555
H17_2 C25_2 1_555 1_555
C29_2 C25_2 1_555 1_555
H18_2 C29_2 1_555 1_555
C30_2 C29_2 1_555 1_555
C31_2 O11_2 1_555 1_555
O14_2 C31_2 1_555 1_555
C39_2 N2_2 1_555 1_555
H23_2 C39_2 1_555 1_555
C40_2 C30_2 1_555 1_555
H24_2 C40_2 1_555 1_555
O17 C51_2 1_555 1_555
N3_2 In11 1_555 1_555
C45_2 N3_2 1_555 1_555
H29_2 C45_2 1_555 1_555
C49_2 C45_2 1_555 1_555
H30_2 C49_2 1_555 1_555
C50_2 C49_2 1_555 1_555
C51_2 C50_2 1_555 1_555
O20 C51_2 1_555 1_555
C59_2 N3_2 1_555 1_555
H35_2 C59_2 1_555 1_555
C60_2 C50_2 1_555 1_555
H36_2 C60_2 1_555 1_555
O21_5 Zn4 1_555 1_555
Zn3_4 O17 1_555 1_555
Zn4_4 O20 1_555 1_555
O32 In10 1_555 1_555
C30_2 C31_2 1_555 1_555
O14_2 Zn4 1_555 1_555
C39_2 C40_2 1_555 1_555
In11 O32 1_555 1_555
C59_2 C60_2 1_555 1_555
In8 O32 1_555 1_555
O21_5 H37_2 1_555 1_555
Zn3_2 O3_6 1_555 1_555
O4_2 Zn3_2 1_555 1_555
N1_2 In8 1_555 1_555
C5_2 N1_2 1_555 1_555
H5_2 C5_2 1_555 1_555
C9_2 C5_2 1_555 1_555
H6_2 C9_2 1_555 1_555
C10_2 C9_2 1_555 1_555
C11_2 O4_2 1_555 1_555
O8_2 C11_2 1_555 1_555
C19_2 N1_2 1_555 1_555
H11_2 C19_2 1_555 1_555
C20_2 C10_2 1_555 1_555
H12_2 C20_2 1_555 1_555
Zn4_2 O8_2 1_555 1_555
O21_6 Zn4_2 1_555 1_555
C10_2 C11_2 1_555 1_555
C19_2 C20_2 1_555 1_555
Zn3_3 O3_7 1_555 1_555
O21_7 Zn4_3 1_555 1_555
O21_7 H38_3 1_555 1_555
O3_7 H40_2 1_555 1_555
Zn3_4 O3_8 1_555 1_555
O21_8 Zn4_4 1_555 1_555
O3_8 H39_3 1_555 1_555
O3_5 H39_4 1_555 1_555
O21_8 H38_4 1_555 1_555

#END
