
###############################################################################
#
# This file contains modified crystal structure data generated from the
# MOF subset of the Cambridge Structural Database (CSD) v543 
# hosted by the Cambridge Crystallographic Data Centre (CCDC).
#
# This work is licensed under the Creative Commons
# Attribution-NonCommercial-ShareAlike 4.0 International License.
# To view a copy of this license, visit
# http://creativecommons.org/licenses/by-nc-sa/4.0/
# or send a letter to
# Creative Commons, PO Box 1866, Mountain View, CA 94042, USA.
#
# CIF created using the CSD Python API on 29 September 2022
# The structure has been converted into the P1 space group
# The structure has a 3D framework
# The original CSD entry FIFGAE is in the hexagonal crystal system
# The framework has been calculated to contain at least 10.0% void space
# The void calculation uses a probe of radius 1.32A, grid spacing 0.4
# The framework is charged, counterions have been retained in the structure
# H atom positions have been added when not included in the experimental data
#
###############################################################################

data_FIFGAE
_chemical_formula_moiety         '(C126 H114 Co16 In6 N12 O72 6-)n'
_symmetry_cell_setting           triclinic
_symmetry_space_group_name_H-M   'P 1'
_symmetry_Int_Tables_number      1
_space_group_name_Hall           'P 1'
loop_
_symmetry_equiv_pos_site_id
_symmetry_equiv_pos_as_xyz
1 x,y,z
_cell_length_a                   18.1997(8)
_cell_length_b                   18.1997(8)
_cell_length_c                   20.0204(10)
_cell_angle_alpha                90
_cell_angle_beta                 90
_cell_angle_gamma                120
_cell_volume                     5742.91
loop_
_atom_site_label
_atom_site_type_symbol
_atom_site_fract_x
_atom_site_fract_y
_atom_site_fract_z
In9 In 0.00000(4) 0.59109(3) 0.0000
In9_2 In 0.00000(4) 0.59109(3) 1.0000
In6 In 0.59109(3) 0.00000(4) 0.0000
In6_2 In 0.59109(3) 0.00000(4) 1.0000
In1 In 0.40891(3) 0.40891(3) 0.0000
Co1 Co 0.0000 0.0000 0.14704(9)
O1 O 0.0726(3) 0.1119(3) 0.1953(3)
O2 O 0.3138(3) 0.3205(3) 0.0726(2)
O3 O 0.4190(3) 0.4306(3) 0.1194(2)
O4 O 0.5484(3) 0.4490(3) 0.00607(19)
O5 O 0.4571(3) 0.3140(3) 0.0070(2)
C1 C 0.3104(4) 0.3286(4) 0.1891(3)
C3 C 0.3520(5) 0.3636(5) 0.1245(3)
C5 C 0.1031(6) 0.1406(6) 0.2500
C6 C 0.2320(4) 0.2580(4) 0.1913(3)
H7 H 0.2054 0.2337 0.1511
C7 C 0.5815(4) 0.2678(4) 0.0107(3)
C8 C 0.1898(6) 0.2204(6) 0.2500
C10 C 0.6036(4) 0.3542(4) 0.0116(3)
C11 C 0.3504(6) 0.3635(5) 0.2500
H9 H 0.4045 0.4108 0.2500
C12 C 0.5311(4) 0.3740(5) 0.0080(3)
O7 O 0.0726(3) 0.1119(3) 0.3047(3)
O8 O 0.3138(3) 0.3205(3) 0.4274(2)
O9 O 0.4190(3) 0.4306(3) 0.3806(2)
C13 C 0.3104(4) 0.3286(4) 0.3109(3)
C14 C 0.3520(5) 0.3636(5) 0.3755(3)
C15 C 0.2320(4) 0.2580(4) 0.3087(3)
H10 H 0.2054 0.2337 0.3489
O10 O 0.5510(3) 0.0994(4) 0.00607(19)
O11 O 0.6860(3) 0.1431(4) 0.0070(2)
C16 C 0.7322(4) 0.3137(6) 0.0107(3)
C17 C 0.6458(4) 0.2494(6) 0.0116(3)
C18 C 0.6260(5) 0.1571(6) 0.0080(3)
O12 O 0.9006(4) 0.4516(3) 0.00607(19)
O13 O 0.8569(4) 0.5429(3) 0.0070(2)
C19 C 0.6863(6) 0.4185(4) 0.0107(3)
C20 C 0.7506(6) 0.3964(4) 0.0116(3)
C21 C 0.8429(6) 0.4689(4) 0.0080(3)
Co2 Co 0.0000 0.0000 0.35296(9)
O24 O 0.1039(4) 0.0387(6) 0.0793(3)
N3 N 0.2503(5) 0.1043(7) 0.0697(4)
C35 C 0.3312(5) 0.1375(8) 0.1019(6)
H21 H 0.3229 0.1207 0.1480
H22 H 0.3614 0.1984 0.0991
H23 H 0.3635 0.1158 0.0803
C41 C 0.1757(7) 0.0666(9) 0.1058(5)
H28 H 0.1786 0.0615 0.1518
O30 O 0.1039(4) 0.0387(6) 0.4207(3)
N6 N 0.2503(5) 0.1043(7) 0.4303(4)
C52 C 0.3312(5) 0.1375(8) 0.3981(6)
H45 H 0.3229 0.1207 0.3520
H46 H 0.3614 0.1984 0.4009
H47 H 0.3635 0.1158 0.4197
C53 C 0.2488(6) 0.1231(9) 0.5005(4)
H48 H 0.3054 0.1492 0.5182
H49 H 0.2271 0.1612 0.5054
H50 H 0.2132 0.0715 0.5243
C54 C 0.1757(7) 0.0666(9) 0.3942(5)
H51 H 0.1786 0.0615 0.3482
In6_3 In 0.59109(3) 1.00000(4) 0.0000
In7 In 0.40891(3) 0.40891(3) 0.5000
In9_3 In 1.00000(4) 0.59109(3) 0.0000
H52 H 0.782516 0.297878 0.0093332
H53 H 0.702122 0.484638 0.0093332
H57 H 0.515362 0.217484 0.0093332
In1_2 In 0.40891(3) 0.40891(3) 1.0000
C37 C 0.2488(6) 0.1231(9) 0.9995(4)
H24 H 0.3054 0.1492 0.9818
H25 H 0.2271 0.1612 0.9946
H26 H 0.2132 0.0715 0.9757
O31 O 0.4490(3) 0.5484(3) 0.99393(19)
O32 O 0.3140(3) 0.4571(3) 0.9930(2)
C55 C 0.2678(4) 0.5815(4) 0.9893(3)
C56 C 0.3542(4) 0.6036(4) 0.9884(3)
C57 C 0.3740(5) 0.5311(4) 0.9920(3)
O33 O 0.0994(4) 0.5510(3) 0.99393(19)
O34 O 0.1431(4) 0.6860(3) 0.9930(2)
C58 C 0.3137(6) 0.7322(4) 0.9893(3)
C59 C 0.2494(6) 0.6458(4) 0.9884(3)
C60 C 0.1571(6) 0.6260(5) 0.9920(3)
O35 O 0.4516(3) 0.9006(4) 0.99393(19)
O36 O 0.5429(3) 0.8569(4) 0.9930(2)
C61 C 0.4185(4) 0.6863(6) 0.9893(3)
C62 C 0.3964(4) 0.7506(6) 0.9884(3)
C63 C 0.4689(4) 0.8429(6) 0.9920(3)
In6_4 In 0.59109(3) 1.00000(4) 1.0000
In9_4 In 1.00000(4) 0.59109(3) 1.0000
O38 O 0.3205(3) 0.3138(3) 0.9274(2)
O41 O 0.4306(3) 0.4190(3) 0.8806(2)
H54 H 0.217484 0.515362 0.990667
H55 H 0.484638 0.702122 0.990667
H56 H 0.297878 0.782516 0.990667
Co1_2 Co 0.0000 1.0000 0.14704(9)
Co2_2 Co 0.0000 1.0000 0.35296(9)
O14 O 0.0393(4) 0.9274(3) 0.3047(3)
O15 O 0.0067(4) 0.6862(3) 0.4274(2)
O16 O 0.0116(4) 0.5810(3) 0.3806(2)
C22 C 0.0182(6) 0.6896(4) 0.3109(3)
C24 C 0.0116(7) 0.6480(5) 0.3755(3)
C26 C 0.0375(8) 0.8969(6) 0.2500
C27 C 0.0260(6) 0.7680(4) 0.3087(3)
H17 H 0.0283 0.7946 0.3489
C28 C 0.0306(8) 0.8102(6) 0.2500
C30 C 0.0131(8) 0.6496(6) 0.2500
H19 H 0.0063 0.5955 0.2500
O18 O 0.0393(4) 0.9274(3) 0.1953(3)
O19 O 0.0067(4) 0.6862(3) 0.0726(2)
O20 O 0.0116(4) 0.5810(3) 0.1194(2)
C31 C 0.0182(6) 0.6896(4) 0.1891(3)
C32 C 0.0116(7) 0.6480(5) 0.1245(3)
C33 C 0.0260(6) 0.7680(4) 0.1913(3)
H20 H 0.0283 0.7946 0.1511
In4 In 0.00000(4) 0.59109(3) 0.5000
Co1_3 Co 1.0000 0.0000 0.14704(9)
Co2_3 Co 1.0000 0.0000 0.35296(9)
O17 O 0.9613(6) 0.0652(4) 0.4207(3)
N2 N 0.8957(7) 0.1460(5) 0.4303(4)
C23 C 0.8625(8) 0.1937(6) 0.3981(6)
H11 H 0.8793 0.2022 0.3520
H12 H 0.8016 0.1630 0.4009
H13 H 0.8842 0.2477 0.4197
C25 C 0.8769(9) 0.1257(7) 0.5005(4)
H14 H 0.8508 0.1562 0.5182
H15 H 0.8388 0.0659 0.5054
H16 H 0.9285 0.1417 0.5243
C29 C 0.9334(9) 0.1091(6) 0.3942(5)
H18 H 0.9385 0.1171 0.3482
O29 O 0.9613(6) 0.0652(4) 0.0793(3)
N5 N 0.8957(7) 0.1460(5) 0.0697(4)
C49 C 0.8625(8) 0.1937(6) 0.1019(6)
H38 H 0.8793 0.2022 0.1480
H39 H 0.8016 0.1630 0.0991
H40 H 0.8842 0.2477 0.0803
C51 C 0.9334(9) 0.1091(6) 0.1058(5)
H44 H 0.9385 0.1171 0.1518
In10 In 0.59109(3) 0.00000(4) 0.5000
C50 C 0.8769(9) 0.1257(7) 0.9995(4)
H41 H 0.8508 0.1562 0.9818
H42 H 0.8388 0.0659 0.9946
H43 H 0.9285 0.1417 0.9757
O39 O 0.6862(3) 0.0067(4) 0.9274(2)
O42 O 0.5810(3) 0.0116(4) 0.8806(2)
Co1_4 Co 1.0000 1.0000 0.14704(9)
O6 O 0.9348(4) 0.8961(4) 0.0793(3)
N1 N 0.8540(5) 0.7497(5) 0.0697(4)
C2 C 0.8063(6) 0.6688(5) 0.1019(6)
H1 H 0.7978 0.6771 0.1480
H2 H 0.8370 0.6386 0.0991
H3 H 0.7523 0.6365 0.0803
C9 C 0.8909(6) 0.8243(7) 0.1058(5)
H8 H 0.8829 0.8214 0.1518
Co2_4 Co 1.0000 1.0000 0.35296(9)
O21 O 0.8881(3) 0.9607(4) 0.1953(3)
O22 O 0.6795(3) 0.9933(4) 0.0726(2)
O23 O 0.5694(3) 0.9884(4) 0.1194(2)
C34 C 0.6714(4) 0.9818(6) 0.1891(3)
C36 C 0.6364(5) 0.9884(7) 0.1245(3)
C38 C 0.8594(6) 0.9625(8) 0.2500
C39 C 0.7420(4) 0.9740(6) 0.1913(3)
H27 H 0.7663 0.9717 0.1511
C40 C 0.7796(6) 0.9694(8) 0.2500
C42 C 0.6365(5) 0.9869(8) 0.2500
H29 H 0.5892 0.9937 0.2500
O25 O 0.8881(3) 0.9607(4) 0.3047(3)
O26 O 0.6795(3) 0.9933(4) 0.4274(2)
O27 O 0.5694(3) 0.9884(4) 0.3806(2)
C43 C 0.6714(4) 0.9818(6) 0.3109(3)
C44 C 0.6364(5) 0.9884(7) 0.3755(3)
C45 C 0.7420(4) 0.9740(6) 0.3087(3)
H30 H 0.7663 0.9717 0.3489
O28 O 0.9348(4) 0.8961(4) 0.4207(3)
N4 N 0.8540(5) 0.7497(5) 0.4303(4)
C46 C 0.8063(6) 0.6688(5) 0.3981(6)
H31 H 0.7978 0.6771 0.3520
H32 H 0.8370 0.6386 0.4009
H33 H 0.7523 0.6365 0.4197
C47 C 0.8743(7) 0.7512(6) 0.5005(4)
H34 H 0.8438 0.6946 0.5182
H35 H 0.9341 0.7729 0.5054
H36 H 0.8583 0.7868 0.5243
C48 C 0.8909(6) 0.8243(7) 0.3942(5)
H37 H 0.8829 0.8214 0.3482
In4_2 In 1.00000(4) 0.59109(3) 0.5000
In10_2 In 0.59109(3) 1.00000(4) 0.5000
C4 C 0.8743(7) 0.7512(6) 0.9995(4)
H4 H 0.8438 0.6946 0.9818
H5 H 0.9341 0.7729 0.9946
H6 H 0.8583 0.7868 0.9757
O37 O 0.9933(4) 0.6795(3) 0.9274(2)
O40 O 0.9884(4) 0.5694(3) 0.8806(2)
O39_2 O 0.3205(5) 0.3138(3) 0.5726(2)
O42_2 O 0.4306(5) 0.4190(3) 0.6194(2)
O43 O 0.5484(5) 0.4490(3) 0.49393(19)
O46 O 0.4490(5) 0.5484(3) 0.50607(19)
O47 O 0.4571(5) 0.3140(3) 0.4930(2)
O50 O 0.3140(5) 0.4571(3) 0.5070(2)
O31_2 O 0.0994(4) 0.5510(3) 0.50607(19)
O32_2 O 0.1431(4) 0.6860(3) 0.5070(2)
C55_2 C 0.3137(6) 0.7322(4) 0.5107(3)
C56_2 C 0.2494(6) 0.6458(4) 0.5116(3)
C57_2 C 0.1571(6) 0.6260(5) 0.5080(3)
O33_2 O 0.4516(5) 0.9006(4) 0.50607(19)
O34_2 O 0.5429(5) 0.8569(4) 0.5070(2)
C58_2 C 0.4185(7) 0.6863(6) 0.5107(3)
C59_2 C 0.3964(7) 0.7506(6) 0.5116(3)
C60_2 C 0.4689(8) 0.8429(6) 0.5080(3)
C61_2 C 0.2678(7) 0.5815(4) 0.5107(3)
C62_2 C 0.3542(7) 0.6036(4) 0.5116(3)
C63_2 C 0.3740(7) 0.5311(4) 0.5080(3)
H54_2 H 0.297878 0.782516 0.509333
H55_2 H 0.217484 0.515362 0.509333
H56_2 H 0.484638 0.702122 0.509333
O37_2 O 0.6862(5) 0.0067(4) 0.5726(2)
O40_2 O 0.5810(5) 0.0116(4) 0.6194(2)
O44 O 0.5510(5) 0.0994(4) 0.49393(19)
O48 O 0.6860(5) 0.1431(4) 0.4930(2)
O4_2 O 0.9006(4) 0.4516(3) 0.49393(19)
O5_2 O 0.8569(4) 0.5429(3) 0.4930(2)
C7_2 C 0.6863(6) 0.4185(4) 0.4893(3)
C10_2 C 0.7506(6) 0.3964(4) 0.4884(3)
C12_2 C 0.8429(6) 0.4689(4) 0.4920(3)
C16_2 C 0.5815(7) 0.2678(4) 0.4893(3)
C17_2 C 0.6036(7) 0.3542(4) 0.4884(3)
C18_2 C 0.5311(8) 0.3740(5) 0.4920(3)
C19_2 C 0.7322(7) 0.3137(6) 0.4893(3)
C20_2 C 0.6458(7) 0.2494(6) 0.4884(3)
C21_2 C 0.6260(7) 0.1571(6) 0.4920(3)
O38_2 O 0.9933(4) 0.6795(3) 0.5726(2)
O41_2 O 0.9884(4) 0.5694(3) 0.6194(2)
H52_2 H 0.515362 0.217484 0.490667
H53_2 H 0.782516 0.297878 0.490667
H57_2 H 0.702122 0.484638 0.490667
C53_2 C 0.1231(9) 0.2488(6) 0.0005(4)
H48_2 H 0.1492 0.3054 0.0182
H49_2 H 0.1612 0.2271 0.0054
H50_2 H 0.0715 0.2132 0.0243
Co1_5 Co 0.0000 0.0000 0.64704(9)
O1_2 O 0.1119(3) 0.0726(3) 0.6953(3)
C1_2 C 0.3286(4) 0.3104(4) 0.6891(3)
C3_2 C 0.3636(5) 0.3520(5) 0.6245(3)
C5_2 C 0.1406(6) 0.1031(6) 0.7500
C6_2 C 0.2580(4) 0.2320(4) 0.6913(3)
H7_2 H 0.2337 0.2054 0.6511
C8_2 C 0.2204(6) 0.1898(6) 0.7500
C11_2 C 0.3635(5) 0.3504(6) 0.7500
H9_2 H 0.4108 0.4045 0.7500
O7_2 O 0.1119(3) 0.0726(3) 0.8047(3)
C13_2 C 0.3286(4) 0.3104(4) 0.8109(3)
C14_2 C 0.3636(5) 0.3520(5) 0.8755(3)
C15_2 C 0.2580(4) 0.2320(4) 0.8087(3)
H10_2 H 0.2337 0.2054 0.8489
Co2_5 Co 0.0000 0.0000 0.85296(9)
O24_2 O 0.0387(6) 0.1039(4) 0.5793(3)
N3_2 N 0.1043(7) 0.2503(5) 0.5697(4)
C35_2 C 0.1375(8) 0.3312(5) 0.6019(6)
H21_2 H 0.1207 0.3229 0.6480
H22_2 H 0.1984 0.3614 0.5991
H23_2 H 0.1158 0.3635 0.5803
C37_2 C 0.1231(9) 0.2488(6) 0.4995(4)
H24_2 H 0.1492 0.3054 0.4818
H25_2 H 0.1612 0.2271 0.4946
H26_2 H 0.0715 0.2132 0.4757
C41_2 C 0.0666(9) 0.1757(7) 0.6058(5)
H28_2 H 0.0615 0.1786 0.6518
O30_2 O 0.0387(6) 0.1039(4) 0.9207(3)
N6_2 N 0.1043(7) 0.2503(5) 0.9303(4)
C52_2 C 0.1375(8) 0.3312(5) 0.8981(6)
H45_2 H 0.1207 0.3229 0.8520
H46_2 H 0.1984 0.3614 0.9009
H47_2 H 0.1158 0.3635 0.9197
C54_2 C 0.0666(9) 0.1757(7) 0.8942(5)
H51_2 H 0.0615 0.1786 0.8482
C25_2 C 0.1257(7) 0.8769(9) 0.0005(4)
H14_2 H 0.1562 0.8508 0.0182
H15_2 H 0.0659 0.8388 0.0054
H16_2 H 0.1417 0.9285 0.0243
Co1_6 Co 0.0000 1.0000 0.64704(9)
Co2_6 Co 0.0000 1.0000 0.85296(9)
O17_2 O 0.0652(4) 0.9613(6) 0.9207(3)
N2_2 N 0.1460(5) 0.8957(7) 0.9303(4)
C23_2 C 0.1937(6) 0.8625(8) 0.8981(6)
H11_2 H 0.2022 0.8793 0.8520
H12_2 H 0.1630 0.8016 0.9009
H13_2 H 0.2477 0.8842 0.9197
C29_2 C 0.1091(6) 0.9334(9) 0.8942(5)
H18_2 H 0.1171 0.9385 0.8482
O29_2 O 0.0652(4) 0.9613(6) 0.5793(3)
N5_2 N 0.1460(5) 0.8957(7) 0.5697(4)
C49_2 C 0.1937(6) 0.8625(8) 0.6019(6)
H38_2 H 0.2022 0.8793 0.6480
H39_2 H 0.1630 0.8016 0.5991
H40_2 H 0.2477 0.8842 0.5803
C50_2 C 0.1257(7) 0.8769(9) 0.4995(4)
H41_2 H 0.1562 0.8508 0.4818
H42_2 H 0.0659 0.8388 0.4946
H43_2 H 0.1417 0.9285 0.4757
C51_2 C 0.1091(6) 0.9334(9) 0.6058(5)
H44_2 H 0.1171 0.9385 0.6518
Co1_7 Co 1.0000 0.0000 0.64704(9)
Co2_7 Co 1.0000 0.0000 0.85296(9)
O14_2 O 0.9274(3) 0.0393(4) 0.8047(3)
C22_2 C 0.6896(4) 0.0182(6) 0.8109(3)
C24_2 C 0.6480(5) 0.0116(7) 0.8755(3)
C26_2 C 0.8969(6) 0.0375(8) 0.7500
C27_2 C 0.7680(4) 0.0260(6) 0.8087(3)
H17_2 H 0.7946 0.0283 0.8489
C28_2 C 0.8102(6) 0.0306(8) 0.7500
C30_2 C 0.6496(6) 0.0131(8) 0.7500
H19_2 H 0.5955 0.0063 0.7500
O18_2 O 0.9274(3) 0.0393(4) 0.6953(3)
C31_2 C 0.6896(4) 0.0182(6) 0.6891(3)
C32_2 C 0.6480(5) 0.0116(7) 0.6245(3)
C33_2 C 0.7680(4) 0.0260(6) 0.6913(3)
H20_2 H 0.7946 0.0283 0.6511
C47_2 C 0.7512(6) 0.8743(7) 0.0005(4)
H34_2 H 0.6946 0.8438 0.0182
H35_2 H 0.7729 0.9341 0.0054
H36_2 H 0.7868 0.8583 0.0243
Co1_8 Co 1.0000 1.0000 0.64704(9)
O6_2 O 0.8961(4) 0.9348(4) 0.5793(3)
N1_2 N 0.7497(5) 0.8540(5) 0.5697(4)
C2_2 C 0.6688(5) 0.8063(6) 0.6019(6)
H1_2 H 0.6771 0.7978 0.6480
H2_2 H 0.6386 0.8370 0.5991
H3_2 H 0.6365 0.7523 0.5803
C4_2 C 0.7512(6) 0.8743(7) 0.4995(4)
H4_2 H 0.6946 0.8438 0.4818
H5_2 H 0.7729 0.9341 0.4946
H6_2 H 0.7868 0.8583 0.4757
C9_2 C 0.8243(7) 0.8909(6) 0.6058(5)
H8_2 H 0.8214 0.8829 0.6518
Co2_8 Co 1.0000 1.0000 0.85296(9)
O21_2 O 0.9607(4) 0.8881(3) 0.6953(3)
C34_2 C 0.9818(6) 0.6714(4) 0.6891(3)
C36_2 C 0.9884(7) 0.6364(5) 0.6245(3)
C38_2 C 0.9625(8) 0.8594(6) 0.7500
C39_2 C 0.9740(6) 0.7420(4) 0.6913(3)
H27_2 H 0.9717 0.7663 0.6511
C40_2 C 0.9694(8) 0.7796(6) 0.7500
C42_2 C 0.9869(8) 0.6365(5) 0.7500
H29_2 H 0.9937 0.5892 0.7500
O25_2 O 0.9607(4) 0.8881(3) 0.8047(3)
C43_2 C 0.9818(6) 0.6714(4) 0.8109(3)
C44_2 C 0.9884(7) 0.6364(5) 0.8755(3)
C45_2 C 0.9740(6) 0.7420(4) 0.8087(3)
H30_2 H 0.9717 0.7663 0.8489
O28_2 O 0.8961(4) 0.9348(4) 0.9207(3)
N4_2 N 0.7497(5) 0.8540(5) 0.9303(4)
C46_2 C 0.6688(5) 0.8063(6) 0.8981(6)
H31_2 H 0.6771 0.7978 0.8520
H32_2 H 0.6386 0.8370 0.9009
H33_2 H 0.6365 0.7523 0.9197
C48_2 C 0.8243(7) 0.8909(6) 0.8942(5)
H37_2 H 0.8214 0.8829 0.8482
loop_
_geom_bond_atom_site_label_1
_geom_bond_atom_site_label_2
_geom_bond_site_symmetry_1
_geom_bond_site_symmetry_2
In1 O2 1_555 1_555
Co1 O1 1_555 1_555
O1 C5 1_555 1_555
O2 C3 1_555 1_555
O3 In1 1_555 1_555
O4 In1 1_555 1_555
O5 In1 1_555 1_555
C1 C3 1_555 1_555
C3 O3 1_555 1_555
C5 C8 1_555 1_555
C6 C1 1_555 1_555
H7 C6 1_555 1_555
C7 C10 1_555 1_555
C8 C6 1_555 1_555
C10 C12 1_555 1_555
C11 C1 1_555 1_555
H9 C11 1_555 1_555
C12 O4 1_555 1_555
O7 C5 1_555 1_555
O8 C14 1_555 1_555
O9 C14 1_555 1_555
C13 C11 1_555 1_555
C14 C13 1_555 1_555
C15 C8 1_555 1_555
H10 C15 1_555 1_555
O10 C18 1_555 1_555
O11 C18 1_555 1_555
C16 C17 1_555 1_555
C17 C7 1_555 1_555
C18 C17 1_555 1_555
O12 C21 1_555 1_555
O13 C21 1_555 1_555
C19 C10 1_555 1_555
C20 C16 1_555 1_555
C21 C20 1_555 1_555
Co2 O7 1_555 1_555
O24 Co1 1_555 1_555
N3 C35 1_555 1_555
C35 H21 1_555 1_555
H22 C35 1_555 1_555
H23 C35 1_555 1_555
C41 O24 1_555 1_555
H28 C41 1_555 1_555
O30 Co2 1_555 1_555
N6 C52 1_555 1_555
C52 H45 1_555 1_555
H46 C52 1_555 1_555
H47 C52 1_555 1_555
C53 N6 1_555 1_555
H48 C53 1_555 1_555
H49 C53 1_555 1_555
H50 C53 1_555 1_555
C54 O30 1_555 1_555
H51 C54 1_555 1_555
In6 O10 1_555 1_555
In7 O8 1_555 1_555
In9_3 O12 1_555 1_555
O5 C12 1_555 1_555
O9 In7 1_555 1_555
C13 C15 1_555 1_555
O11 In6 1_555 1_555
O13 In9_3 1_555 1_555
C19 C20 1_555 1_555
N3 C41 1_555 1_555
N6 C54 1_555 1_555
C16 H52 1_555 1_555
C19 H53 1_555 1_555
C7 H57 1_555 1_555
H24 C37 1_555 1_555
H25 C37 1_555 1_555
H26 C37 1_555 1_555
O31 In1_2 1_555 1_555
O32 In1_2 1_555 1_555
C55 C56 1_555 1_555
C56 C57 1_555 1_555
C57 O31 1_555 1_555
O33 C60 1_555 1_555
O34 C60 1_555 1_555
C58 C59 1_555 1_555
C59 C55 1_555 1_555
C60 C59 1_555 1_555
O35 C63 1_555 1_555
O36 C63 1_555 1_555
C61 C56 1_555 1_555
C62 C58 1_555 1_555
C63 C62 1_555 1_555
In6_4 O35 1_555 1_555
In9_2 O33 1_555 1_555
O38 In1_2 1_555 1_555
O41 In1_2 1_555 1_555
O32 C57 1_555 1_555
O34 In9_2 1_555 1_555
O36 In6_4 1_555 1_555
C61 C62 1_555 1_555
C55 H54 1_555 1_555
C61 H55 1_555 1_555
C58 H56 1_555 1_555
O14 Co2_2 1_555 1_555
O15 C24 1_555 1_555
O16 C24 1_555 1_555
C22 C24 1_555 1_555
C26 O14 1_555 1_555
C27 C22 1_555 1_555
H17 C27 1_555 1_555
C28 C26 1_555 1_555
C30 C22 1_555 1_555
H19 C30 1_555 1_555
O18 Co1_2 1_555 1_555
O19 C32 1_555 1_555
O20 C32 1_555 1_555
C31 C30 1_555 1_555
C32 C31 1_555 1_555
C33 C28 1_555 1_555
H20 C33 1_555 1_555
In9 O19 1_555 1_555
In4 O15 1_555 1_555
O16 In4 1_555 1_555
C26 O18 1_555 1_555
C27 C28 1_555 1_555
O20 In9 1_555 1_555
C31 C33 1_555 1_555
O17 Co2_3 1_555 1_555
N2 C23 1_555 1_555
C23 H11 1_555 1_555
H12 C23 1_555 1_555
H13 C23 1_555 1_555
C25 N2 1_555 1_555
H14 C25 1_555 1_555
H15 C25 1_555 1_555
H16 C25 1_555 1_555
C29 O17 1_555 1_555
H18 C29 1_555 1_555
O29 Co1_3 1_555 1_555
N5 C49 1_555 1_555
C49 H38 1_555 1_555
H39 C49 1_555 1_555
H40 C49 1_555 1_555
C51 O29 1_555 1_555
H44 C51 1_555 1_555
N2 C29 1_555 1_555
N5 C51 1_555 1_555
H41 C50 1_555 1_555
H42 C50 1_555 1_555
H43 C50 1_555 1_555
O39 In6_2 1_555 1_555
O42 In6_2 1_555 1_555
O6 Co1_4 1_555 1_555
N1 C2 1_555 1_555
C2 H1 1_555 1_555
H2 C2 1_555 1_555
H3 C2 1_555 1_555
C9 O6 1_555 1_555
H8 C9 1_555 1_555
In6_3 O22 1_555 1_555
O21 Co1_4 1_555 1_555
O22 C36 1_555 1_555
O23 In6_3 1_555 1_555
C34 C36 1_555 1_555
C36 O23 1_555 1_555
C38 O21 1_555 1_555
C39 C34 1_555 1_555
H27 C39 1_555 1_555
C40 C38 1_555 1_555
C42 C34 1_555 1_555
H29 C42 1_555 1_555
O25 Co2_4 1_555 1_555
O26 C44 1_555 1_555
O27 C44 1_555 1_555
C43 C42 1_555 1_555
C44 C43 1_555 1_555
C45 C40 1_555 1_555
H30 C45 1_555 1_555
O28 Co2_4 1_555 1_555
N4 C46 1_555 1_555
C46 H31 1_555 1_555
H32 C46 1_555 1_555
H33 C46 1_555 1_555
C47 N4 1_555 1_555
H34 C47 1_555 1_555
H35 C47 1_555 1_555
H36 C47 1_555 1_555
C48 O28 1_555 1_555
H37 C48 1_555 1_555
In10_2 O26 1_555 1_555
N1 C9 1_555 1_555
C38 O25 1_555 1_555
C39 C40 1_555 1_555
O27 In10_2 1_555 1_555
C43 C45 1_555 1_555
N4 C48 1_555 1_555
H4 C4 1_555 1_555
H5 C4 1_555 1_555
H6 C4 1_555 1_555
O37 In9_4 1_555 1_555
O40 In9_4 1_555 1_555
O39_2 In7 1_555 1_555
O42_2 In7 1_555 1_555
O43 In7 1_555 1_555
O46 In7 1_555 1_555
O47 In7 1_555 1_555
O50 In7 1_555 1_555
O31_2 In4 1_555 1_555
O32_2 In4 1_555 1_555
C55_2 C56_2 1_555 1_555
C56_2 C57_2 1_555 1_555
C57_2 O31_2 1_555 1_555
O33_2 C60_2 1_555 1_555
O34_2 C60_2 1_555 1_555
C58_2 C59_2 1_555 1_555
C59_2 C55_2 1_555 1_555
C60_2 C59_2 1_555 1_555
O46 C63_2 1_555 1_555
O50 C63_2 1_555 1_555
C61_2 C56_2 1_555 1_555
C62_2 C58_2 1_555 1_555
C63_2 C62_2 1_555 1_555
In10_2 O33_2 1_555 1_555
O32_2 C57_2 1_555 1_555
O34_2 In10_2 1_555 1_555
C61_2 C62_2 1_555 1_555
C55_2 H54_2 1_555 1_555
C61_2 H55_2 1_555 1_555
C58_2 H56_2 1_555 1_555
O37_2 In10 1_555 1_555
O40_2 In10 1_555 1_555
O44 In10 1_555 1_555
O48 In10 1_555 1_555
O4_2 In4_2 1_555 1_555
O5_2 In4_2 1_555 1_555
C7_2 C10_2 1_555 1_555
C10_2 C12_2 1_555 1_555
C12_2 O4_2 1_555 1_555
O43 C18_2 1_555 1_555
O47 C18_2 1_555 1_555
C16_2 C17_2 1_555 1_555
C17_2 C7_2 1_555 1_555
C18_2 C17_2 1_555 1_555
O44 C21_2 1_555 1_555
O48 C21_2 1_555 1_555
C19_2 C10_2 1_555 1_555
C20_2 C16_2 1_555 1_555
C21_2 C20_2 1_555 1_555
O38_2 In4_2 1_555 1_555
O41_2 In4_2 1_555 1_555
O5_2 C12_2 1_555 1_555
C19_2 C20_2 1_555 1_555
C16_2 H52_2 1_555 1_555
C19_2 H53_2 1_555 1_555
C7_2 H57_2 1_555 1_555
H48_2 C53_2 1_555 1_555
H49_2 C53_2 1_555 1_555
H50_2 C53_2 1_555 1_555
Co1_5 O1_2 1_555 1_555
O1_2 C5_2 1_555 1_555
O39_2 C3_2 1_555 1_555
C1_2 C3_2 1_555 1_555
C3_2 O42_2 1_555 1_555
C5_2 C8_2 1_555 1_555
C6_2 C1_2 1_555 1_555
H7_2 C6_2 1_555 1_555
C8_2 C6_2 1_555 1_555
C11_2 C1_2 1_555 1_555
H9_2 C11_2 1_555 1_555
O7_2 C5_2 1_555 1_555
O38 C14_2 1_555 1_555
O41 C14_2 1_555 1_555
C13_2 C11_2 1_555 1_555
C14_2 C13_2 1_555 1_555
C15_2 C8_2 1_555 1_555
H10_2 C15_2 1_555 1_555
Co2_5 O7_2 1_555 1_555
O24_2 Co1_5 1_555 1_555
N3_2 C35_2 1_555 1_555
C35_2 H21_2 1_555 1_555
H22_2 C35_2 1_555 1_555
H23_2 C35_2 1_555 1_555
C37_2 N3_2 1_555 1_555
H24_2 C37_2 1_555 1_555
H25_2 C37_2 1_555 1_555
H26_2 C37_2 1_555 1_555
C41_2 O24_2 1_555 1_555
H28_2 C41_2 1_555 1_555
O30_2 Co2_5 1_555 1_555
N6_2 C52_2 1_555 1_555
C52_2 H45_2 1_555 1_555
H46_2 C52_2 1_555 1_555
H47_2 C52_2 1_555 1_555
C54_2 O30_2 1_555 1_555
H51_2 C54_2 1_555 1_555
C13_2 C15_2 1_555 1_555
N3_2 C41_2 1_555 1_555
N6_2 C54_2 1_555 1_555
H14_2 C25_2 1_555 1_555
H15_2 C25_2 1_555 1_555
H16_2 C25_2 1_555 1_555
O17_2 Co2_6 1_555 1_555
N2_2 C23_2 1_555 1_555
C23_2 H11_2 1_555 1_555
H12_2 C23_2 1_555 1_555
H13_2 C23_2 1_555 1_555
C29_2 O17_2 1_555 1_555
H18_2 C29_2 1_555 1_555
O29_2 Co1_6 1_555 1_555
N5_2 C49_2 1_555 1_555
C49_2 H38_2 1_555 1_555
H39_2 C49_2 1_555 1_555
H40_2 C49_2 1_555 1_555
C50_2 N5_2 1_555 1_555
H41_2 C50_2 1_555 1_555
H42_2 C50_2 1_555 1_555
H43_2 C50_2 1_555 1_555
C51_2 O29_2 1_555 1_555
H44_2 C51_2 1_555 1_555
N2_2 C29_2 1_555 1_555
N5_2 C51_2 1_555 1_555
O14_2 Co2_7 1_555 1_555
O39 C24_2 1_555 1_555
O42 C24_2 1_555 1_555
C22_2 C24_2 1_555 1_555
C26_2 O14_2 1_555 1_555
C27_2 C22_2 1_555 1_555
H17_2 C27_2 1_555 1_555
C28_2 C26_2 1_555 1_555
C30_2 C22_2 1_555 1_555
H19_2 C30_2 1_555 1_555
O18_2 Co1_7 1_555 1_555
O37_2 C32_2 1_555 1_555
O40_2 C32_2 1_555 1_555
C31_2 C30_2 1_555 1_555
C32_2 C31_2 1_555 1_555
C33_2 C28_2 1_555 1_555
H20_2 C33_2 1_555 1_555
C26_2 O18_2 1_555 1_555
C27_2 C28_2 1_555 1_555
C31_2 C33_2 1_555 1_555
H34_2 C47_2 1_555 1_555
H35_2 C47_2 1_555 1_555
H36_2 C47_2 1_555 1_555
O6_2 Co1_8 1_555 1_555
N1_2 C2_2 1_555 1_555
C2_2 H1_2 1_555 1_555
H2_2 C2_2 1_555 1_555
H3_2 C2_2 1_555 1_555
C4_2 N1_2 1_555 1_555
H4_2 C4_2 1_555 1_555
H5_2 C4_2 1_555 1_555
H6_2 C4_2 1_555 1_555
C9_2 O6_2 1_555 1_555
H8_2 C9_2 1_555 1_555
O21_2 Co1_8 1_555 1_555
O38_2 C36_2 1_555 1_555
C34_2 C36_2 1_555 1_555
C36_2 O41_2 1_555 1_555
C38_2 O21_2 1_555 1_555
C39_2 C34_2 1_555 1_555
H27_2 C39_2 1_555 1_555
C40_2 C38_2 1_555 1_555
C42_2 C34_2 1_555 1_555
H29_2 C42_2 1_555 1_555
O25_2 Co2_8 1_555 1_555
O37 C44_2 1_555 1_555
O40 C44_2 1_555 1_555
C43_2 C42_2 1_555 1_555
C44_2 C43_2 1_555 1_555
C45_2 C40_2 1_555 1_555
H30_2 C45_2 1_555 1_555
O28_2 Co2_8 1_555 1_555
N4_2 C46_2 1_555 1_555
C46_2 H31_2 1_555 1_555
H32_2 C46_2 1_555 1_555
H33_2 C46_2 1_555 1_555
C48_2 O28_2 1_555 1_555
H37_2 C48_2 1_555 1_555
N1_2 C9_2 1_555 1_555
C38_2 O25_2 1_555 1_555
C39_2 C40_2 1_555 1_555
C43_2 C45_2 1_555 1_555
N4_2 C48_2 1_555 1_555

#END
