
###############################################################################
#
# This file contains modified crystal structure data generated from the
# MOF subset of the Cambridge Structural Database (CSD) v543 
# hosted by the Cambridge Crystallographic Data Centre (CCDC).
#
# This work is licensed under the Creative Commons
# Attribution-NonCommercial-ShareAlike 4.0 International License.
# To view a copy of this license, visit
# http://creativecommons.org/licenses/by-nc-sa/4.0/
# or send a letter to
# Creative Commons, PO Box 1866, Mountain View, CA 94042, USA.
#
# CIF created using the CSD Python API on 29 September 2022
# The structure has been converted into the P1 space group
# The structure has a 3D framework
# The original CSD entry FIFGEI is in the trigonal crystal system
# The framework has been calculated to contain at least 10.0% void space
# The void calculation uses a probe of radius 1.32A, grid spacing 0.4
# The framework is charged, counterions have been retained in the structure
# H atom positions have been added when not included in the experimental data
# Generated hydrogen atom positions removed from atoms on special positions
#
###############################################################################

data_FIFGEI
_chemical_formula_moiety         '(C84 H96 In6 O32 4+)n'
_symmetry_cell_setting           triclinic
_symmetry_space_group_name_H-M   'P 1'
_symmetry_Int_Tables_number      1
_space_group_name_Hall           'P 1'
loop_
_symmetry_equiv_pos_site_id
_symmetry_equiv_pos_as_xyz
1 x,y,z
_cell_length_a                   20.8131(10)
_cell_length_b                   20.8131(10)
_cell_length_c                   23.185(2)
_cell_angle_alpha                90
_cell_angle_beta                 90
_cell_angle_gamma                120
_cell_volume                     8697.84
loop_
_atom_site_label
_atom_site_type_symbol
_atom_site_fract_x
_atom_site_fract_y
_atom_site_fract_z
O5 O 0.20065(11) 0.54640(11) 0.31581(8)
O6 O 0.20052(11) 0.65426(13) 0.31585(8)
C8 C 0.0511(3) 0.5823(2) 0.45174(18)
H5 H 0.0339 0.6125 0.4664
C9 C 0.0518(3) 0.4694(2) 0.45180(18)
H6 H 0.0352 0.4222 0.4666
C10 C 0.1014(2) 0.4952(2) 0.40644(16)
H7 H 0.1186 0.4652 0.3914
C11 C 0.1009(2) 0.6066(2) 0.40662(16)
H8 H 0.1182 0.6539 0.3917
C12 C 0.0272(2) 0.5138(2) 0.47490(13)
C13 C 0.12504(18) 0.5623(2) 0.38365(12)
C14 C 0.18145(17) 0.5906(2) 0.33423(12)
In5 In 0.276924(7) 0.723076(7) 0.2500
In7 In 0.276924(7) 0.553848(10) 0.2500
In1 In 0.723076(7) 0.276924(7) 0.7500
O1 O 0.6667 0.3333 0.7500
O2 O 0.79935(11) 0.45360(11) 0.68419(8)
O3 O 0.79948(11) 0.34574(13) 0.68415(8)
C1 C 0.9489(3) 0.4177(2) 0.54826(18)
H1 H 0.9661 0.3875 0.5336
C2 C 0.9482(3) 0.5306(2) 0.54820(18)
H2 H 0.9648 0.5778 0.5334
C3 C 0.8986(2) 0.5048(2) 0.59356(16)
H3 H 0.8814 0.5348 0.6086
C4 C 0.8991(2) 0.3934(2) 0.59338(16)
H4 H 0.8818 0.3461 0.6083
C5 C 0.9728(2) 0.4862(2) 0.52510(13)
C6 C 0.87496(18) 0.4377(2) 0.61635(12)
C7 C 0.81855(17) 0.4094(2) 0.66577(12)
O4 O 0.78264(8) 0.21736(8) 0.7500
In2 In 0.723076(7) 0.446152(10) 0.7500
O7 O 0.54640(11) 0.34575(16) 0.68419(8)
O8 O 0.65426(13) 0.45374(17) 0.68415(8)
C15 C 0.5823(2) 0.5312(4) 0.54826(18)
H9 H 0.6125 0.5786 0.5336
C16 C 0.4694(2) 0.4176(4) 0.54820(18)
H10 H 0.4222 0.3870 0.5334
C17 C 0.4952(2) 0.3938(3) 0.59356(16)
H11 H 0.4652 0.3466 0.6086
C18 C 0.6066(2) 0.5057(3) 0.59338(16)
H12 H 0.6539 0.5357 0.6083
C19 C 0.5138(2) 0.4866(3) 0.52510(13)
C20 C 0.5623(2) 0.43726(27) 0.61635(12)
C21 C 0.5906(2) 0.40915(26) 0.66577(12)
O9 O 0.78264(8) 0.56528(11) 0.7500
O10 O 0.45360(11) 0.65425(16) 0.31581(8)
O11 O 0.34574(13) 0.54626(17) 0.31585(8)
C22 C 0.4177(2) 0.4688(4) 0.45174(18)
H13 H 0.3875 0.4214 0.4664
C23 C 0.5306(2) 0.5824(4) 0.45180(18)
H14 H 0.5778 0.6130 0.4666
C24 C 0.5048(2) 0.6062(3) 0.40644(16)
H15 H 0.5348 0.6534 0.3914
C25 C 0.3934(2) 0.4943(3) 0.40662(16)
H16 H 0.3461 0.4643 0.3917
C26 C 0.4862(2) 0.5134(3) 0.47490(13)
C27 C 0.4377(2) 0.56274(27) 0.38365(12)
C28 C 0.4094(2) 0.59085(26) 0.33423(12)
In3 In 0.553848(10) 0.276924(7) 0.7500
O12 O 0.65425(16) 0.20065(11) 0.68419(8)
O13 O 0.54626(17) 0.20052(11) 0.68415(8)
C29 C 0.4688(4) 0.0511(3) 0.54826(18)
H17 H 0.4214 0.0339 0.5336
C30 C 0.5824(4) 0.0518(3) 0.54820(18)
H18 H 0.6130 0.0352 0.5334
C31 C 0.6062(3) 0.1014(2) 0.59356(16)
H19 H 0.6534 0.1186 0.6086
C32 C 0.4943(3) 0.1009(2) 0.59338(16)
H20 H 0.4643 0.1182 0.6083
C33 C 0.5134(3) 0.0272(2) 0.52510(13)
C34 C 0.56274(27) 0.12504(18) 0.61635(12)
C35 C 0.59085(26) 0.18145(17) 0.66577(12)
O14 O 0.43472(11) 0.21736(8) 0.7500
In9 In 0.446152(10) 0.723076(7) 0.2500
O17 O 0.54640(11) 0.20065(11) 0.81581(8)
O18 O 0.65425(16) 0.45360(11) 0.81581(8)
O19 O 0.79935(11) 0.34575(16) 0.81581(8)
O20 O 0.65426(13) 0.20052(11) 0.81585(8)
O21 O 0.54626(17) 0.34574(13) 0.81585(8)
O22 O 0.79948(11) 0.45374(17) 0.81585(8)
O15 O 0.34575(16) 0.79935(11) 0.31581(8)
O16 O 0.45374(17) 0.79948(11) 0.31585(8)
C36 C 0.5312(4) 0.9489(3) 0.45174(18)
H21 H 0.5786 0.9661 0.4664
C37 C 0.4176(4) 0.9482(3) 0.45180(18)
H22 H 0.3870 0.9648 0.4666
C38 C 0.3938(3) 0.8986(2) 0.40644(16)
H23 H 0.3466 0.8814 0.3914
C39 C 0.5057(3) 0.8991(2) 0.40662(16)
H24 H 0.5357 0.8818 0.3917
C40 C 0.4866(3) 0.9728(2) 0.47490(13)
C41 C 0.43726(27) 0.87496(18) 0.38365(12)
C42 C 0.40915(26) 0.81855(17) 0.33423(12)
O15_2 O 0.20065(11) 0.65425(16) 0.18419(8)
O16_2 O 0.20052(11) 0.54626(17) 0.18415(8)
C36_2 C 0.0511(3) 0.4688(4) 0.04826(18)
H21_2 H 0.0339 0.4214 0.0336
C37_2 C 0.0518(3) 0.5824(4) 0.04820(18)
H22_2 H 0.0352 0.6130 0.0334
C38_2 C 0.1014(2) 0.6062(3) 0.09356(16)
H23_2 H 0.1186 0.6534 0.1086
C39_2 C 0.1009(2) 0.4943(3) 0.09338(16)
H24_2 H 0.1182 0.4643 0.1083
C40_2 C 0.0272(2) 0.5134(3) 0.02510(13)
C41_2 C 0.12504(18) 0.56274(27) 0.11635(12)
C42_2 C 0.18145(17) 0.59085(26) 0.16577(12)
O10_2 O 0.34575(16) 0.54640(11) 0.18419(8)
O11_2 O 0.45374(17) 0.65426(13) 0.18415(8)
C22_2 C 0.5312(4) 0.5823(2) 0.04826(18)
H13_2 H 0.5786 0.6125 0.0336
C23_2 C 0.4176(4) 0.4694(2) 0.04820(18)
H14_2 H 0.3870 0.4222 0.0334
C24_2 C 0.3938(3) 0.4952(2) 0.09356(16)
H15_2 H 0.3466 0.4652 0.1086
C25_2 C 0.5057(3) 0.6066(2) 0.09338(16)
H16_2 H 0.5357 0.6539 0.1083
C26_2 C 0.4866(3) 0.5138(2) 0.02510(13)
C27_2 C 0.43726(27) 0.5623(2) 0.11635(12)
C28_2 C 0.40915(26) 0.5906(2) 0.16577(12)
C1_2 C 0.5823(2) 0.0511(3) 0.95174(18)
H1_2 H 0.6125 0.0339 0.9664
C2_2 C 0.4694(2) 0.0518(3) 0.95180(18)
H2_2 H 0.4222 0.0352 0.9666
C3_2 C 0.4952(2) 0.1014(2) 0.90644(16)
H3_2 H 0.4652 0.1186 0.8914
C4_2 C 0.6066(2) 0.1009(2) 0.90662(16)
H4_2 H 0.6539 0.1182 0.8917
C5_2 C 0.5138(2) 0.0272(2) 0.97490(13)
C6_2 C 0.5623(2) 0.12504(18) 0.88365(12)
C7_2 C 0.5906(2) 0.18145(17) 0.83423(12)
C15_2 C 0.4688(4) 0.4177(2) 0.95174(18)
H9_2 H 0.4214 0.3875 0.9664
C16_2 C 0.5824(4) 0.5306(2) 0.95180(18)
H10_2 H 0.6130 0.5778 0.9666
C17_2 C 0.6062(3) 0.5048(2) 0.90644(16)
H11_2 H 0.6534 0.5348 0.8914
C18_2 C 0.4943(3) 0.3934(2) 0.90662(16)
H12_2 H 0.4643 0.3461 0.8917
C19_2 C 0.5134(3) 0.4862(2) 0.97490(13)
C20_2 C 0.56274(27) 0.4377(2) 0.88365(12)
C21_2 C 0.59085(26) 0.4094(2) 0.83423(12)
C29_2 C 0.9489(3) 0.5312(4) 0.95174(18)
H17_2 H 0.9661 0.5786 0.9664
C30_2 C 0.9482(3) 0.4176(4) 0.95180(18)
H18_2 H 0.9648 0.3870 0.9666
C31_2 C 0.8986(2) 0.3938(3) 0.90644(16)
H19_2 H 0.8814 0.3466 0.8914
C32_2 C 0.8991(2) 0.5057(3) 0.90662(16)
H20_2 H 0.8818 0.5357 0.8917
C33_2 C 0.9728(2) 0.4866(3) 0.97490(13)
C34_2 C 0.87496(18) 0.43726(27) 0.88365(12)
C35_2 C 0.81855(17) 0.40915(26) 0.83423(12)
O5_2 O 0.45360(11) 0.79935(11) 0.18419(8)
O6_2 O 0.34574(13) 0.79948(11) 0.18415(8)
C8_2 C 0.4177(2) 0.9489(3) 0.04826(18)
H5_2 H 0.3875 0.9661 0.0336
C9_2 C 0.5306(2) 0.9482(3) 0.04820(18)
H6_2 H 0.5778 0.9648 0.0334
C10_2 C 0.5048(2) 0.8986(2) 0.09356(16)
H7_2 H 0.5348 0.8814 0.1086
C11_2 C 0.3934(2) 0.8991(2) 0.09338(16)
H8_2 H 0.3461 0.8818 0.1083
C12_2 C 0.4862(2) 0.9728(2) 0.02510(13)
C13_2 C 0.4377(2) 0.87496(18) 0.11635(12)
C14_2 C 0.4094(2) 0.81855(17) 0.16577(12)
O1_2 O 0.3333 0.6667 0.2500
O4_2 O 0.21736(8) 0.78264(8) 0.2500
O9_2 O 0.21736(8) 0.43472(11) 0.2500
O14_2 O 0.56528(11) 0.78264(8) 0.2500
loop_
_geom_bond_atom_site_label_1
_geom_bond_atom_site_label_2
_geom_bond_site_symmetry_1
_geom_bond_site_symmetry_2
O5 C14 1_555 1_555
O6 C14 1_555 1_555
C8 H5 1_555 1_555
C9 H6 1_555 1_555
C10 C9 1_555 1_555
H7 C10 1_555 1_555
C11 C8 1_555 1_555
H8 C11 1_555 1_555
C13 C10 1_555 1_555
C14 C13 1_555 1_555
In5 O6 1_555 1_555
In7 O5 1_555 1_555
C8 C12 1_555 1_555
C9 C12 1_555 1_555
C11 C13 1_555 1_555
In1 O1 1_555 1_555
O1 In2 1_555 1_555
O2 C7 1_555 1_555
O3 In1 1_555 1_555
C1 H1 1_555 1_555
C2 H2 1_555 1_555
C3 C2 1_555 1_555
H3 C3 1_555 1_555
C4 C1 1_555 1_555
H4 C4 1_555 1_555
C5 C1 1_555 1_555
C6 C3 1_555 1_555
C7 O3 1_555 1_555
O4 In1 1_555 1_555
In2 O2 1_555 1_555
O7 C21 1_555 1_555
O8 In2 1_555 1_555
C15 H9 1_555 1_555
C16 H10 1_555 1_555
C17 C16 1_555 1_555
H11 C17 1_555 1_555
C18 C15 1_555 1_555
H12 C18 1_555 1_555
C19 C15 1_555 1_555
C20 C17 1_555 1_555
C21 O8 1_555 1_555
O9 In2 1_555 1_555
O10 C28 1_555 1_555
O11 C28 1_555 1_555
C22 H13 1_555 1_555
C23 H14 1_555 1_555
C24 C23 1_555 1_555
H15 C24 1_555 1_555
C25 C22 1_555 1_555
H16 C25 1_555 1_555
C26 C19 1_555 1_555
C27 C24 1_555 1_555
C28 C27 1_555 1_555
In3 O1 1_555 1_555
O12 In1 1_555 1_555
O13 In3 1_555 1_555
C29 H17 1_555 1_555
C30 H18 1_555 1_555
C31 C30 1_555 1_555
H19 C31 1_555 1_555
C32 C29 1_555 1_555
H20 C32 1_555 1_555
C33 C29 1_555 1_555
C34 C31 1_555 1_555
C35 O12 1_555 1_555
O14 In3 1_555 1_555
In7 O11 1_555 1_555
In9 O10 1_555 1_555
O17 In3 1_555 1_555
O18 In2 1_555 1_555
O19 In1 1_555 1_555
O20 In1 1_555 1_555
O21 In3 1_555 1_555
O22 In2 1_555 1_555
C2 C5 1_555 1_555
C4 C6 1_555 1_555
C6 C7 1_555 1_555
O7 In3 1_555 1_555
C16 C19 1_555 1_555
C18 C20 1_555 1_555
C20 C21 1_555 1_555
C22 C26 1_555 1_555
C23 C26 1_555 1_555
C25 C27 1_555 1_555
O13 C35 1_555 1_555
C30 C33 1_555 1_555
C32 C34 1_555 1_555
C34 C35 1_555 1_555
O15 C42 1_555 1_555
O16 C42 1_555 1_555
C36 H21 1_555 1_555
C37 H22 1_555 1_555
C38 C37 1_555 1_555
H23 C38 1_555 1_555
C39 C36 1_555 1_555
H24 C39 1_555 1_555
C41 C38 1_555 1_555
C42 C41 1_555 1_555
In5 O15 1_555 1_555
In9 O16 1_555 1_555
C36 C40 1_555 1_555
C37 C40 1_555 1_555
C39 C41 1_555 1_555
O15_2 C42_2 1_555 1_555
O16_2 C42_2 1_555 1_555
C36_2 H21_2 1_555 1_555
C37_2 H22_2 1_555 1_555
C38_2 C37_2 1_555 1_555
H23_2 C38_2 1_555 1_555
C39_2 C36_2 1_555 1_555
H24_2 C39_2 1_555 1_555
C41_2 C38_2 1_555 1_555
C42_2 C41_2 1_555 1_555
In5 O15_2 1_555 1_555
In7 O16_2 1_555 1_555
C36_2 C40_2 1_555 1_555
C37_2 C40_2 1_555 1_555
C39_2 C41_2 1_555 1_555
O10_2 C28_2 1_555 1_555
O11_2 C28_2 1_555 1_555
C22_2 H13_2 1_555 1_555
C23_2 H14_2 1_555 1_555
C24_2 C23_2 1_555 1_555
H15_2 C24_2 1_555 1_555
C25_2 C22_2 1_555 1_555
H16_2 C25_2 1_555 1_555
C27_2 C24_2 1_555 1_555
C28_2 C27_2 1_555 1_555
In9 O11_2 1_555 1_555
In7 O10_2 1_555 1_555
C22_2 C26_2 1_555 1_555
C23_2 C26_2 1_555 1_555
C25_2 C27_2 1_555 1_555
O17 C7_2 1_555 1_555
C1_2 H1_2 1_555 1_555
C2_2 H2_2 1_555 1_555
C3_2 C2_2 1_555 1_555
H3_2 C3_2 1_555 1_555
C4_2 C1_2 1_555 1_555
H4_2 C4_2 1_555 1_555
C5_2 C1_2 1_555 1_555
C6_2 C3_2 1_555 1_555
C7_2 O20 1_555 1_555
O18 C21_2 1_555 1_555
C15_2 H9_2 1_555 1_555
C16_2 H10_2 1_555 1_555
C17_2 C16_2 1_555 1_555
H11_2 C17_2 1_555 1_555
C18_2 C15_2 1_555 1_555
H12_2 C18_2 1_555 1_555
C19_2 C15_2 1_555 1_555
C20_2 C17_2 1_555 1_555
C21_2 O21 1_555 1_555
C29_2 H17_2 1_555 1_555
C30_2 H18_2 1_555 1_555
C31_2 C30_2 1_555 1_555
H19_2 C31_2 1_555 1_555
C32_2 C29_2 1_555 1_555
H20_2 C32_2 1_555 1_555
C33_2 C29_2 1_555 1_555
C34_2 C31_2 1_555 1_555
C35_2 O19 1_555 1_555
C2_2 C5_2 1_555 1_555
C4_2 C6_2 1_555 1_555
C6_2 C7_2 1_555 1_555
C16_2 C19_2 1_555 1_555
C18_2 C20_2 1_555 1_555
C20_2 C21_2 1_555 1_555
O22 C35_2 1_555 1_555
C30_2 C33_2 1_555 1_555
C32_2 C34_2 1_555 1_555
C34_2 C35_2 1_555 1_555
O5_2 C14_2 1_555 1_555
O6_2 C14_2 1_555 1_555
C8_2 H5_2 1_555 1_555
C9_2 H6_2 1_555 1_555
C10_2 C9_2 1_555 1_555
H7_2 C10_2 1_555 1_555
C11_2 C8_2 1_555 1_555
H8_2 C11_2 1_555 1_555
C13_2 C10_2 1_555 1_555
C14_2 C13_2 1_555 1_555
In5 O6_2 1_555 1_555
In9 O5_2 1_555 1_555
C8_2 C12_2 1_555 1_555
C9_2 C12_2 1_555 1_555
C11_2 C13_2 1_555 1_555
In5 O1_2 1_555 1_555
O1_2 In7 1_555 1_555
O4_2 In5 1_555 1_555
O9_2 In7 1_555 1_555
In9 O1_2 1_555 1_555
O14_2 In9 1_555 1_555

#END
