
###############################################################################
#
# This file contains modified crystal structure data generated from the
# MOF subset of the Cambridge Structural Database (CSD) v543 
# hosted by the Cambridge Crystallographic Data Centre (CCDC).
#
# This work is licensed under the Creative Commons
# Attribution-NonCommercial-ShareAlike 4.0 International License.
# To view a copy of this license, visit
# http://creativecommons.org/licenses/by-nc-sa/4.0/
# or send a letter to
# Creative Commons, PO Box 1866, Mountain View, CA 94042, USA.
#
# CIF created using the CSD Python API on 29 September 2022
# The structure has been converted into the P1 space group
# The structure has a 3D framework
# The original CSD entry FIFMIS01 is in the hexagonal crystal system
# The original CSD entry FIFMIS01 is in a Sohncke space group
# The framework has been calculated to contain at least 10.0% void space
# The void calculation uses a probe of radius 1.32A, grid spacing 0.4
#
###############################################################################

data_FIFMIS01
_chemical_formula_moiety         '(C150 H126 Co12 N18 O49)n'
_symmetry_cell_setting           triclinic
_symmetry_space_group_name_H-M   'P 1'
_symmetry_Int_Tables_number      1
_space_group_name_Hall           'P 1'
loop_
_symmetry_equiv_pos_site_id
_symmetry_equiv_pos_as_xyz
1 x,y,z
_cell_length_a                   15.9363(6)
_cell_length_b                   15.9363(6)
_cell_length_c                   21.3380(9)
_cell_angle_alpha                90
_cell_angle_beta                 90
_cell_angle_gamma                120
_cell_volume                     4693.09
loop_
_atom_site_label
_atom_site_type_symbol
_atom_site_fract_x
_atom_site_fract_y
_atom_site_fract_z
Co1 Co 0.44665(6) 0.29302(6) 0.08815(3)
Co2 Co 0.51712(6) 0.48611(6) 0.19393(3)
N1 N 0.4944(4) 0.4359(4) 0.2923(2)
N2 N 0.2961(4) 0.2261(5) 0.0747(3)
O1 O 0.4260(3) 0.3386(3) 0.17716(19)
O2 O 0.3142(4) 0.2090(4) 0.2294(2)
O3 O 0.3834(3) 0.4853(3) 0.2174(2)
O4 O 0.2736(4) 0.4399(4) 0.2930(2)
O5 O 0.6391(5) 0.2289(4) 0.4389(2)
O6 O 0.5303(3) 0.1702(3) 0.5168(2)
O7 O 0.4887(4) 0.4586(3) 0.6068(2)
O8 O 0.5404(4) 0.5851(3) 0.5433(2)
C1 C 0.5684(4) 0.3207(4) 0.4678(3)
C2 C 0.5429(5) 0.3624(4) 0.5155(3)
H1 H 0.5276 0.3338 0.5550
C3 C 0.5400(5) 0.4468(4) 0.5046(3)
C4 C 0.5565(5) 0.4847(4) 0.4437(3)
H2 H 0.5538 0.5408 0.4362
C5 C 0.5764(4) 0.4415(5) 0.3951(3)
C6 C 0.5841(4) 0.3600(4) 0.4079(3)
H3 H 0.6000 0.3312 0.3756
C7 C 0.5867(4) 0.4780(5) 0.3281(3)
H4 H 0.6152 0.5479 0.3290
H5 H 0.6313 0.4637 0.3060
C8 C 0.4480(6) 0.3295(5) 0.2875(3)
H6 H 0.4061 0.3006 0.3235
H7 H 0.4979 0.3116 0.2891
C9 C 0.3883(5) 0.2875(5) 0.2277(3)
C10 C 0.4269(5) 0.4638(6) 0.3212(3)
H8 H 0.4637 0.5284 0.3388
H9 H 0.3916 0.4193 0.3551
C11 C 0.3550(5) 0.4617(5) 0.2728(3)
C12 C 0.5795(5) 0.2323(4) 0.4756(3)
C13 C 0.5214(5) 0.5012(5) 0.5559(3)
C14 C 0.2547(5) 0.2807(7) 0.0823(4)
H10 H 0.2941 0.3463 0.0909
C15 C 0.1552(5) 0.2432(7) 0.0778(4)
H11 H 0.1284 0.2827 0.0842
C16 C 0.0956(6) 0.1444(7) 0.0633(4)
C17 C 0.1392(6) 0.0890(7) 0.0556(4)
H12 H 0.1020 0.0234 0.0464
C18 C 0.2359(5) 0.1306(6) 0.0615(4)
H13 H 0.2635 0.0917 0.0562
Co3 Co 0.70698(6) 0.15363(8) 0.42148(3)
Co4 Co 0.55335(6) 0.70698(6) 0.58815(3)
Co5 Co 0.15363(8) 0.44665(6) 0.25482(3)
Co6 Co 0.51389(6) 0.03101(8) 0.52726(3)
Co7 Co 0.48288(6) 0.51389(6) 0.69393(3)
N4 N 0.6104(6) 0.6351(4) 0.2182(2)
O10 O 0.4399(4) 0.1663(6) 0.1263(2)
O11 O 0.5898(6) 0.3609(5) 0.1056(2)
O12 O 0.6399(4) 0.4697(3) 0.1835(2)
O13 O 0.5113(4) 0.5414(3) 0.1068(2)
O14 O 0.4596(4) 0.4149(3) 0.0433(2)
N3 N 0.6351(4) 0.0247(4) 0.0515(2)
C19 C 0.9905(7) 0.1028(8) 0.0589(4)
H14 H 0.9555 0.0379 0.0475
C20 C 0.9405(6) 0.1447(7) 0.0687(5)
H15 H 0.9755 0.2098 0.0798
C21 C 0.8349(6) 0.1024(6) 0.0646(4)
C22 C 0.7910(6) 0.1584(7) 0.0638(5)
H16 H 0.8295 0.2251 0.0687
C23 C 0.6940(6) 0.1201(6) 0.0562(4)
H17 H 0.6684 0.1611 0.0541
C25 C 0.7705(6) 0.0025(6) 0.0630(4)
C24 C 0.6756(5) 0.9689(6) 0.0562(4)
H18 H 0.6349 0.9021 0.0546
H19 H 0.7937 0.9595 0.0667
Co8 Co 0.48611(6) 0.96899(8) 0.02726(3)
C24_2 C 0.0311(6) 0.7067(8) 0.3895(4)
H18_2 H 0.0979 0.7328 0.3879
H19_2 H 0.0405 0.8342 0.4000
Co8_2 Co 0.03101(8) 0.51712(10) 0.36060(3)
N1_2 N 0.5641(4) 0.0585(6) 0.6256(2)
N2_2 N 0.7739(5) 0.0700(6) 0.4080(3)
O1_2 O 0.6614(3) 0.0874(4) 0.51049(19)
O2_2 O 0.7910(4) 0.1052(6) 0.5627(2)
O5_2 O 0.7711(4) 0.4102(6) 0.7722(2)
O6_2 O 0.8298(3) 0.3601(4) 0.8501(2)
O7_2 O 0.5414(3) 0.0301(5) 0.9401(2)
C1_2 C 0.6793(4) 0.2477(6) 0.8011(3)
C2_2 C 0.6376(4) 0.1805(6) 0.8488(3)
H1_2 H 0.6662 0.1938 0.8883
C3_2 C 0.5532(4) 0.0932(6) 0.8379(3)
C4_2 C 0.5153(4) 0.0718(6) 0.7770(3)
H2_2 H 0.4592 0.0130 0.7695
C5_2 C 0.5585(5) 0.1349(6) 0.7284(3)
C6_2 C 0.6400(4) 0.2241(6) 0.7412(3)
H3_2 H 0.6688 0.2688 0.7089
C7_2 C 0.5220(5) 0.1087(6) 0.6614(3)
H4_2 H 0.4521 0.0673 0.6623
H5_2 H 0.5363 0.1676 0.6393
C8_2 C 0.6705(5) 0.1185(8) 0.6208(3)
H6_2 H 0.6994 0.1055 0.6568
H7_2 H 0.6884 0.1863 0.6224
C9_2 C 0.7125(5) 0.1008(7) 0.5610(3)
C12_2 C 0.7677(4) 0.3472(6) 0.8089(3)
C13_2 C 0.4988(5) 0.0202(7) 0.8892(3)
C17_2 C 0.9110(7) 0.0502(9) 0.3889(4)
H12_2 H 0.9766 0.0786 0.3797
C18_2 C 0.8694(6) 0.1053(8) 0.3948(4)
H13_2 H 0.9083 0.1718 0.3895
O9 O 0.7530(4) 0.2205(6) 0.3318(2)
H20 H 0.7079 0.2212 0.3109
H21 H 0.7991 0.2787 0.3291
Co3_2 Co 0.84637(8) 0.55335(10) 0.75482(3)
Co6_2 Co 0.96899(8) 0.48288(10) 0.86060(3)
O10_2 O 0.8337(6) 0.2736(7) 0.4597(2)
O14_2 O 0.5851(3) 0.0447(5) 0.3766(2)
N3_2 N 0.9753(4) 0.6104(6) 0.3848(2)
O3_2 O 0.5147(3) 0.8981(4) 0.5507(2)
O4_2 O 0.5601(4) 0.8337(6) 0.6263(2)
O8_2 O 0.4149(3) 0.9553(5) 0.8766(2)
C10_2 C 0.5362(6) 0.9631(8) 0.6545(3)
H8_2 H 0.4716 0.9353 0.6721
H9_2 H 0.5807 0.9723 0.6884
C11_2 C 0.5383(5) 0.8933(7) 0.6061(3)
C14_2 C 0.7193(7) 0.9740(9) 0.4156(4)
H10_2 H 0.6537 0.9478 0.4242
C15_2 C 0.7568(7) 0.9120(9) 0.4111(4)
H11_2 H 0.7173 0.8457 0.4175
C16_2 C 0.8556(7) 0.9512(9) 0.3966(4)
C19_2 C 0.8972(8) 0.8877(11) 0.3922(4)
H14_2 H 0.9621 0.9176 0.3808
C20_2 C 0.8553(7) 0.7958(9) 0.4020(5)
H15_2 H 0.7902 0.7657 0.4131
C21_2 C 0.8976(6) 0.7325(8) 0.3979(4)
C22_2 C 0.8416(7) 0.6326(9) 0.3971(5)
H16_2 H 0.7749 0.6044 0.4020
C23_2 C 0.8799(6) 0.5739(8) 0.3895(4)
H17_2 H 0.8389 0.5073 0.3874
C25_2 C 0.9975(6) 0.7680(8) 0.3963(4)
Co4_2 Co 0.29302(6) 0.84637(8) 0.92148(3)
N4_2 N 0.3649(4) 0.9753(7) 0.5515(2)
O13_2 O 0.4586(3) 0.9699(5) 0.4401(2)
N3_3 N 0.3896(6) 0.3649(4) 0.7182(2)
C19_3 C 0.1123(11) 0.0095(7) 0.7256(4)
H14_3 H 0.0824 0.0445 0.7142
C20_3 C 0.2042(9) 0.0595(6) 0.7354(5)
H15_3 H 0.2343 0.0245 0.7465
C21_3 C 0.2675(8) 0.1651(6) 0.7313(4)
C22_3 C 0.3674(9) 0.2090(6) 0.7305(5)
H16_3 H 0.3956 0.1705 0.7354
C23_3 C 0.4261(8) 0.3060(6) 0.7229(4)
H17_3 H 0.4927 0.3316 0.7208
C24_3 C 0.2933(8) 0.3244(5) 0.7229(4)
H18_3 H 0.2672 0.3651 0.7213
C25_3 C 0.2320(8) 0.2295(6) 0.7297(4)
H19_3 H 0.1658 0.2063 0.7334
O8_3 O 0.0447(5) 0.4596(4) 0.2100(2)
H8_3 H 0.0647 0.5363 0.0055
H9_3 H 0.0277 0.6084 0.0218
O3_3 O 0.1019(4) 0.6166(3) 0.8841(2)
O4_3 O 0.1663(6) 0.7264(4) 0.9597(2)
C10_3 C 0.0369(8) 0.5731(5) 0.9879(3)
C11_3 C 0.1067(7) 0.6450(5) 0.9395(3)
C14_3 C 0.0260(9) 0.7453(5) 0.7490(4)
H10_3 H 0.0522 0.7059 0.7576
C15_3 C 0.0880(9) 0.8448(5) 0.7445(4)
H11_3 H 0.1543 0.8716 0.7509
C16_3 C 0.0488(9) 0.9044(6) 0.7300(4)
N4_3 N 0.0247(7) 0.3896(6) 0.8848(2)
O13_3 O 0.0301(5) 0.4887(4) 0.7735(2)
O7_3 O 0.9699(5) 0.5113(4) 0.2735(2)
C1_3 C 0.7523(6) 0.4316(4) 0.1345(3)
C2_3 C 0.8195(6) 0.4571(5) 0.1822(3)
H1_3 H 0.8062 0.4724 0.2217
C3_3 C 0.9068(6) 0.4600(5) 0.1713(3)
C4_3 C 0.9282(6) 0.4435(5) 0.1104(3)
H2_3 H 0.9870 0.4462 0.1029
C5_3 C 0.8651(6) 0.4236(4) 0.0618(3)
C6_3 C 0.7759(6) 0.4159(4) 0.0746(3)
H3_3 H 0.7312 0.4000 0.0423
C12_3 C 0.6528(6) 0.4205(5) 0.1423(3)
C13_3 C 0.9798(7) 0.4786(5) 0.2226(3)
N1_3 N 0.9415(6) 0.5056(4) 0.9590(2)
N2_3 N 0.9300(6) 0.7039(4) 0.7414(3)
O1_3 O 0.9126(4) 0.5740(3) 0.84383(19)
O2_3 O 0.8948(6) 0.6858(4) 0.8961(2)
C7_3 C 0.8913(6) 0.4133(4) 0.9948(3)
H4_3 H 0.9327 0.3848 0.9957
H5_3 H 0.8324 0.3687 0.9727
C8_3 C 0.8815(8) 0.5520(6) 0.9542(3)
H6_3 H 0.8945 0.5939 0.9902
H7_3 H 0.8137 0.5021 0.9558
C9_3 C 0.8992(7) 0.6117(5) 0.8944(3)
C17_3 C 0.9498(9) 0.8608(6) 0.7223(4)
H12_3 H 0.9214 0.8980 0.7131
C18_3 C 0.8947(8) 0.7641(5) 0.7282(4)
H13_3 H 0.8282 0.7365 0.7229
O9_2 O 0.7795(6) 0.5325(4) 0.6652(2)
H20_2 H 0.7788 0.4867 0.6443
H21_2 H 0.7213 0.5204 0.6625
O10_3 O 0.7264(7) 0.5601(4) 0.7930(2)
O14_3 O 0.9553(5) 0.5404(4) 0.7100(2)
C24_4 C 0.3244(5) 0.0311(6) 0.5562(4)
H18_4 H 0.3651 0.0979 0.5546
H19_4 H 0.2063 0.0405 0.5667
C19_4 C 0.0095(7) 0.8972(8) 0.5589(4)
H14_4 H 0.0445 0.9621 0.5475
C20_4 C 0.0595(6) 0.8553(7) 0.5687(5)
H15_4 H 0.0245 0.7902 0.5798
C21_4 C 0.1651(6) 0.8976(6) 0.5646(4)
C22_4 C 0.2090(6) 0.8416(7) 0.5638(5)
H16_4 H 0.1705 0.7749 0.5687
C23_4 C 0.3060(6) 0.8799(6) 0.5562(4)
H17_4 H 0.3316 0.8389 0.5541
C25_4 C 0.2295(6) 0.9975(6) 0.5630(4)
O6_3 O 0.4697(3) 0.8298(3) 0.0168(2)
C2_4 C 0.4571(5) 0.6376(4) 0.0155(3)
H1_4 H 0.4724 0.6662 0.0550
C3_4 C 0.4600(5) 0.5532(4) 0.0046(3)
C13_4 C 0.4786(5) 0.4988(5) 0.0559(3)
N1_4 N 0.5056(4) 0.5641(4) 0.7923(2)
N2_4 N 0.7039(4) 0.7739(5) 0.5747(3)
O1_4 O 0.5740(3) 0.6614(3) 0.67716(19)
O2_4 O 0.6858(4) 0.7910(4) 0.7294(2)
O3_4 O 0.6166(3) 0.5147(3) 0.7174(2)
O5_3 O 0.3609(5) 0.7711(4) 0.9389(2)
C1_4 C 0.4316(4) 0.6793(4) 0.9678(3)
C4_4 C 0.4435(5) 0.5153(4) 0.9437(3)
H2_4 H 0.4462 0.4592 0.9362
C5_4 C 0.4236(4) 0.5585(5) 0.8951(3)
C6_4 C 0.4159(4) 0.6400(4) 0.9079(3)
H3_4 H 0.4000 0.6688 0.8756
C7_4 C 0.4133(4) 0.5220(5) 0.8281(3)
H4_4 H 0.3848 0.4521 0.8290
H5_4 H 0.3687 0.5363 0.8060
C8_4 C 0.5520(6) 0.6705(5) 0.7875(3)
H6_4 H 0.5939 0.6994 0.8235
H7_4 H 0.5021 0.6884 0.7891
C9_4 C 0.6117(5) 0.7125(5) 0.7277(3)
C10_4 C 0.5731(5) 0.5362(6) 0.8212(3)
H8_4 H 0.5363 0.4716 0.8388
H9_4 H 0.6084 0.5807 0.8551
C11_4 C 0.6450(5) 0.5383(5) 0.7728(3)
C12_4 C 0.4205(5) 0.7677(4) 0.9756(3)
C14_4 C 0.7453(5) 0.7193(7) 0.5823(4)
H10_4 H 0.7059 0.6537 0.5909
C15_4 C 0.8448(5) 0.7568(7) 0.5778(4)
H11_4 H 0.8716 0.7173 0.5842
C16_4 C 0.9044(6) 0.8556(7) 0.5633(4)
C17_4 C 0.8608(6) 0.9110(7) 0.5556(4)
H12_4 H 0.8980 0.9766 0.5464
C18_4 C 0.7641(5) 0.8694(6) 0.5615(4)
H13_4 H 0.7365 0.9083 0.5562
O9_3 O 0.5325(4) 0.7530(4) 0.4985(2)
H20_3 H 0.4867 0.7079 0.4776
H21_3 H 0.5204 0.7991 0.4958
O11_2 O 0.4102(6) 0.6391(5) 0.6056(2)
O12_2 O 0.3601(4) 0.5303(3) 0.6835(2)
O3_5 O 0.4853(3) 0.1019(4) 0.0507(2)
C10_5 C 0.4638(6) 0.0369(8) 0.1545(3)
H8_5 H 0.5284 0.0647 0.1721
H9_5 H 0.4193 0.0277 0.1884
C11_5 C 0.4617(5) 0.1067(7) 0.1061(3)
C14_5 C 0.2807(7) 0.0260(9) 0.9156(4)
H10_5 H 0.3463 0.0522 0.9242
C15_5 C 0.2432(7) 0.0880(9) 0.9111(4)
H11_5 H 0.2827 0.1543 0.9175
C16_5 C 0.1444(7) 0.0488(9) 0.8966(4)
C19_5 C 0.1028(8) 0.1123(11) 0.8922(4)
H14_5 H 0.0379 0.0824 0.8808
C20_5 C 0.1447(7) 0.2042(9) 0.9020(5)
H15_5 H 0.2098 0.2343 0.9131
C21_5 C 0.1024(6) 0.2675(8) 0.8979(4)
C22_5 C 0.1584(7) 0.3674(9) 0.8971(5)
H16_5 H 0.2251 0.3956 0.9020
C23_5 C 0.1201(6) 0.4261(8) 0.8895(4)
H17_5 H 0.1611 0.4927 0.8874
C25_5 C 0.0025(6) 0.2320(8) 0.8963(4)
N1_5 N 0.4359(4) 0.9415(6) 0.1256(2)
O1_5 O 0.3386(3) 0.9126(4) 0.01049(19)
O2_5 O 0.2090(4) 0.8948(6) 0.0627(2)
O5_4 O 0.2289(4) 0.5898(6) 0.2722(2)
O6_4 O 0.1702(3) 0.6399(4) 0.3501(2)
C1_5 C 0.3207(4) 0.7523(6) 0.3011(3)
C2_5 C 0.3624(4) 0.8195(6) 0.3488(3)
H1_5 H 0.3338 0.8062 0.3883
C3_5 C 0.4468(4) 0.9068(6) 0.3379(3)
C4_5 C 0.4847(4) 0.9282(6) 0.2770(3)
H2_5 H 0.5408 0.9870 0.2695
C5_5 C 0.4415(5) 0.8651(6) 0.2284(3)
C6_5 C 0.3600(4) 0.7759(6) 0.2412(3)
H3_5 H 0.3312 0.7312 0.2089
C7_5 C 0.4780(5) 0.8913(6) 0.1614(3)
H4_5 H 0.5479 0.9327 0.1623
H5_5 H 0.4637 0.8324 0.1393
C8_5 C 0.3295(5) 0.8815(8) 0.1208(3)
H6_5 H 0.3006 0.8945 0.1568
H7_5 H 0.3116 0.8137 0.1224
C9_5 C 0.2875(5) 0.8992(7) 0.0610(3)
C12_5 C 0.2323(4) 0.6528(6) 0.3089(3)
C13_5 C 0.5012(5) 0.9798(7) 0.3892(3)
N2_5 N 0.2261(5) 0.9300(6) 0.9080(3)
C17_5 C 0.0890(7) 0.9498(9) 0.8889(4)
H12_5 H 0.0234 0.9214 0.8797
C18_5 C 0.1306(6) 0.8947(8) 0.8948(4)
H13_5 H 0.0917 0.8282 0.8895
O9_4 O 0.2470(4) 0.7795(6) 0.8318(2)
H20_4 H 0.2921 0.7788 0.8109
H21_4 H 0.2009 0.7213 0.8291
C24_5 C 0.9689(6) 0.2933(8) 0.8895(4)
H18_5 H 0.9021 0.2672 0.8879
H19_5 H 0.9595 0.1658 0.9000
N1_6 N 0.0585(6) 0.4944(4) 0.4590(2)
N2_6 N 0.0700(6) 0.2961(4) 0.2414(3)
O1_6 O 0.0874(4) 0.4260(3) 0.34383(19)
O2_6 O 0.1052(6) 0.3142(4) 0.3961(2)
C1_6 C 0.2477(6) 0.5684(4) 0.6345(3)
C2_6 C 0.1805(6) 0.5429(5) 0.6822(3)
H1_6 H 0.1938 0.5276 0.7217
C3_6 C 0.0932(6) 0.5400(5) 0.6713(3)
C4_6 C 0.0718(6) 0.5565(5) 0.6104(3)
H2_6 H 0.0130 0.5538 0.6029
C5_6 C 0.1349(6) 0.5764(4) 0.5618(3)
C6_6 C 0.2241(6) 0.5841(4) 0.5746(3)
H3_6 H 0.2688 0.6000 0.5423
C7_6 C 0.1087(6) 0.5867(4) 0.4948(3)
H4_6 H 0.0673 0.6152 0.4957
H5_6 H 0.1676 0.6313 0.4727
C8_6 C 0.1185(8) 0.4480(6) 0.4542(3)
H6_6 H 0.1055 0.4061 0.4902
H7_6 H 0.1863 0.4979 0.4558
C9_6 C 0.1008(7) 0.3883(5) 0.3944(3)
C12_6 C 0.3472(6) 0.5795(5) 0.6423(3)
C13_6 C 0.0202(7) 0.5214(5) 0.7226(3)
C17_6 C 0.0502(9) 0.1392(6) 0.2223(4)
H12_6 H 0.0786 0.1020 0.2131
C18_6 C 0.1053(8) 0.2359(5) 0.2282(4)
H13_6 H 0.1718 0.2635 0.2229
O9_5 O 0.2205(6) 0.4675(4) 0.1652(2)
H20_5 H 0.2212 0.5133 0.1443
H21_5 H 0.2787 0.4796 0.1625
O3_6 O 0.8981(4) 0.3834(3) 0.3841(2)
C10_6 C 0.9631(8) 0.4269(5) 0.4879(3)
H8_6 H 0.9353 0.4637 0.5055
H9_6 H 0.9723 0.3916 0.5218
C11_6 C 0.8933(7) 0.3550(5) 0.4395(3)
C14_6 C 0.9740(9) 0.2547(5) 0.2490(4)
H10_6 H 0.9478 0.2941 0.2576
C15_6 C 0.9120(9) 0.1552(5) 0.2445(4)
H11_6 H 0.8457 0.1284 0.2509
C16_6 C 0.9512(9) 0.0956(6) 0.2300(4)
C19_6 C 0.8877(11) 0.9905(7) 0.2256(4)
H14_6 H 0.9176 0.9555 0.2142
C20_6 C 0.7958(9) 0.9405(6) 0.2354(5)
H15_6 H 0.7657 0.9755 0.2465
C21_6 C 0.7325(8) 0.8349(6) 0.2313(4)
C22_6 C 0.6326(9) 0.7910(6) 0.2305(5)
H16_6 H 0.6044 0.8295 0.2354
C23_6 C 0.5739(8) 0.6940(6) 0.2229(4)
H17_6 H 0.5073 0.6684 0.2208
C24_6 C 0.7067(8) 0.6756(5) 0.2229(4)
H18_6 H 0.7328 0.6349 0.2213
C25_6 C 0.7680(8) 0.7705(6) 0.2297(4)
H19_6 H 0.8342 0.7937 0.2334
O9_6 O 0.4675(4) 0.2470(4) 0.9985(2)
H20_6 H 0.5133 0.2921 0.9776
H21_6 H 0.4796 0.2009 0.9958
loop_
_geom_bond_atom_site_label_1
_geom_bond_atom_site_label_2
_geom_bond_site_symmetry_1
_geom_bond_site_symmetry_2
Co1 N2 1_555 1_555
Co2 N1 1_555 1_555
N1 C7 1_555 1_555
N2 C14 1_555 1_555
O1 Co1 1_555 1_555
O2 C9 1_555 1_555
O3 Co2 1_555 1_555
O4 C11 1_555 1_555
O5 C12 1_555 1_555
O6 C12 1_555 1_555
O7 C13 1_555 1_555
O8 C13 1_555 1_555
C1 C2 1_555 1_555
C2 H1 1_555 1_555
C3 C2 1_555 1_555
C4 C3 1_555 1_555
H2 C4 1_555 1_555
C5 C4 1_555 1_555
C6 C1 1_555 1_555
H3 C6 1_555 1_555
C7 C5 1_555 1_555
H4 C7 1_555 1_555
H5 C7 1_555 1_555
C8 N1 1_555 1_555
H6 C8 1_555 1_555
H7 C8 1_555 1_555
C9 O1 1_555 1_555
C10 N1 1_555 1_555
H8 C10 1_555 1_555
H9 C10 1_555 1_555
C11 O3 1_555 1_555
C12 C1 1_555 1_555
C13 C3 1_555 1_555
C14 H10 1_555 1_555
C15 C14 1_555 1_555
H11 C15 1_555 1_555
C16 C15 1_555 1_555
C17 C16 1_555 1_555
H12 C17 1_555 1_555
C18 N2 1_555 1_555
H13 C18 1_555 1_555
Co3 O5 1_555 1_555
Co4 O8 1_555 1_555
Co5 O4 1_555 1_555
Co6 O6 1_555 1_555
Co7 O7 1_555 1_555
N4 Co2 1_555 1_555
O10 Co1 1_555 1_555
O11 Co1 1_555 1_555
O12 Co2 1_555 1_555
O13 Co2 1_555 1_555
O14 Co1 1_555 1_555
Co2 O1 1_555 1_555
C5 C6 1_555 1_555
C8 C9 1_555 1_555
C10 C11 1_555 1_555
C17 C18 1_555 1_555
N3 C23 1_555 1_555
H14 C19 1_555 1_555
C20 C19 1_555 1_555
H15 C20 1_555 1_555
C21 C20 1_555 1_555
C22 C21 1_555 1_555
H16 C22 1_555 1_555
C23 C22 1_555 1_555
H17 C23 1_555 1_555
C25 C21 1_555 1_555
H18 C24 1_555 1_555
H18_2 C24_2 1_555 1_555
Co3 N2_2 1_555 1_555
Co6 N1_2 1_555 1_555
N1_2 C7_2 1_555 1_555
O1_2 Co3 1_555 1_555
O2_2 C9_2 1_555 1_555
O5_2 C12_2 1_555 1_555
O6_2 C12_2 1_555 1_555
O7_2 C13_2 1_555 1_555
C1_2 C2_2 1_555 1_555
C2_2 H1_2 1_555 1_555
C3_2 C2_2 1_555 1_555
C4_2 C3_2 1_555 1_555
H2_2 C4_2 1_555 1_555
C5_2 C4_2 1_555 1_555
C6_2 C1_2 1_555 1_555
H3_2 C6_2 1_555 1_555
C7_2 C5_2 1_555 1_555
H4_2 C7_2 1_555 1_555
H5_2 C7_2 1_555 1_555
C8_2 N1_2 1_555 1_555
H6_2 C8_2 1_555 1_555
H7_2 C8_2 1_555 1_555
C9_2 O1_2 1_555 1_555
C12_2 C1_2 1_555 1_555
C13_2 C3_2 1_555 1_555
H12_2 C17_2 1_555 1_555
C18_2 N2_2 1_555 1_555
H13_2 C18_2 1_555 1_555
O9 Co3 1_555 1_555
H20 O9 1_555 1_555
H21 O9 1_555 1_555
Co3_2 O5_2 1_555 1_555
Co6_2 O6_2 1_555 1_555
O10_2 Co3 1_555 1_555
O14_2 Co3 1_555 1_555
Co6 O1_2 1_555 1_555
C5_2 C6_2 1_555 1_555
C8_2 C9_2 1_555 1_555
C17_2 C18_2 1_555 1_555
N3_2 C23_2 1_555 1_555
O4_2 C11_2 1_555 1_555
H8_2 C10_2 1_555 1_555
H9_2 C10_2 1_555 1_555
C11_2 O3_2 1_555 1_555
C14_2 H10_2 1_555 1_555
C15_2 C14_2 1_555 1_555
H11_2 C15_2 1_555 1_555
C16_2 C15_2 1_555 1_555
C19_2 C16_2 1_555 1_555
H14_2 C19_2 1_555 1_555
C20_2 C19_2 1_555 1_555
H15_2 C20_2 1_555 1_555
C21_2 C20_2 1_555 1_555
C22_2 C21_2 1_555 1_555
H16_2 C22_2 1_555 1_555
C23_2 C22_2 1_555 1_555
H17_2 C23_2 1_555 1_555
C25_2 C21_2 1_555 1_555
Co4_2 O8_2 1_555 1_555
Co4 O4_2 1_555 1_555
C10_2 C11_2 1_555 1_555
N3_3 C23_3 1_555 1_555
H14_3 C19_3 1_555 1_555
C20_3 C19_3 1_555 1_555
H15_3 C20_3 1_555 1_555
C21_3 C20_3 1_555 1_555
C22_3 C21_3 1_555 1_555
H16_3 C22_3 1_555 1_555
C23_3 C22_3 1_555 1_555
H17_3 C23_3 1_555 1_555
C24_3 N3_3 1_555 1_555
H18_3 C24_3 1_555 1_555
C25_3 C21_3 1_555 1_555
H19_3 C25_3 1_555 1_555
Co7 N3_3 1_555 1_555
C24_3 C25_3 1_555 1_555
Co5 O8_3 1_555 1_555
O4_3 C11_3 1_555 1_555
C11_3 O3_3 1_555 1_555
C14_3 H10_3 1_555 1_555
C15_3 C14_3 1_555 1_555
H11_3 C15_3 1_555 1_555
C16_3 C15_3 1_555 1_555
Co4_2 O4_3 1_555 1_555
C10_3 C11_3 1_555 1_555
O11 C12_3 1_555 1_555
O12 C12_3 1_555 1_555
O7_3 C13_3 1_555 1_555
C1_3 C2_3 1_555 1_555
C2_3 H1_3 1_555 1_555
C3_3 C2_3 1_555 1_555
C4_3 C3_3 1_555 1_555
H2_3 C4_3 1_555 1_555
C5_3 C4_3 1_555 1_555
C6_3 C1_3 1_555 1_555
H3_3 C6_3 1_555 1_555
C12_3 C1_3 1_555 1_555
C13_3 C3_3 1_555 1_555
C5_3 C6_3 1_555 1_555
Co3_2 N2_3 1_555 1_555
Co6_2 N1_3 1_555 1_555
N1_3 C7_3 1_555 1_555
O1_3 Co3_2 1_555 1_555
O2_3 C9_3 1_555 1_555
H4_3 C7_3 1_555 1_555
H5_3 C7_3 1_555 1_555
C8_3 N1_3 1_555 1_555
H6_3 C8_3 1_555 1_555
H7_3 C8_3 1_555 1_555
C9_3 O1_3 1_555 1_555
H12_3 C17_3 1_555 1_555
C18_3 N2_3 1_555 1_555
H13_3 C18_3 1_555 1_555
O9_2 Co3_2 1_555 1_555
H20_2 O9_2 1_555 1_555
H21_2 O9_2 1_555 1_555
O10_3 Co3_2 1_555 1_555
O14_3 Co3_2 1_555 1_555
Co6_2 O1_3 1_555 1_555
C8_3 C9_3 1_555 1_555
C17_3 C18_3 1_555 1_555
H18_4 C24_4 1_555 1_555
N4_2 C23_4 1_555 1_555
H14_4 C19_4 1_555 1_555
C20_4 C19_4 1_555 1_555
H15_4 C20_4 1_555 1_555
C21_4 C20_4 1_555 1_555
C22_4 C21_4 1_555 1_555
H16_4 C22_4 1_555 1_555
C23_4 C22_4 1_555 1_555
H17_4 C23_4 1_555 1_555
C25_4 C21_4 1_555 1_555
O13 C13_4 1_555 1_555
O14 C13_4 1_555 1_555
C2_4 H1_4 1_555 1_555
C3_4 C2_4 1_555 1_555
C13_4 C3_4 1_555 1_555
Co8 O6_3 1_555 1_555
Co4 N2_4 1_555 1_555
Co7 N1_4 1_555 1_555
N1_4 C7_4 1_555 1_555
N2_4 C14_4 1_555 1_555
O1_4 Co4 1_555 1_555
O2_4 C9_4 1_555 1_555
O3_4 Co7 1_555 1_555
O10_3 C11_4 1_555 1_555
O5_3 C12_4 1_555 1_555
H2_4 C4_4 1_555 1_555
C5_4 C4_4 1_555 1_555
C6_4 C1_4 1_555 1_555
H3_4 C6_4 1_555 1_555
C7_4 C5_4 1_555 1_555
H4_4 C7_4 1_555 1_555
H5_4 C7_4 1_555 1_555
C8_4 N1_4 1_555 1_555
H6_4 C8_4 1_555 1_555
H7_4 C8_4 1_555 1_555
C9_4 O1_4 1_555 1_555
C10_4 N1_4 1_555 1_555
H8_4 C10_4 1_555 1_555
H9_4 C10_4 1_555 1_555
C11_4 O3_4 1_555 1_555
C12_4 C1_4 1_555 1_555
C14_4 H10_4 1_555 1_555
C15_4 C14_4 1_555 1_555
H11_4 C15_4 1_555 1_555
C16_4 C15_4 1_555 1_555
C17_4 C16_4 1_555 1_555
H12_4 C17_4 1_555 1_555
C18_4 N2_4 1_555 1_555
H13_4 C18_4 1_555 1_555
O9_3 Co4 1_555 1_555
H20_3 O9_3 1_555 1_555
H21_3 O9_3 1_555 1_555
Co4_2 O5_3 1_555 1_555
O11_2 Co4 1_555 1_555
O12_2 Co7 1_555 1_555
Co7 O1_4 1_555 1_555
C5_4 C6_4 1_555 1_555
C8_4 C9_4 1_555 1_555
C10_4 C11_4 1_555 1_555
C17_4 C18_4 1_555 1_555
O10 C11_5 1_555 1_555
H8_5 C10_5 1_555 1_555
H9_5 C10_5 1_555 1_555
C11_5 O3_5 1_555 1_555
C10_5 C11_5 1_555 1_555
N4_3 C23_5 1_555 1_555
C14_5 H10_5 1_555 1_555
C15_5 C14_5 1_555 1_555
H11_5 C15_5 1_555 1_555
C16_5 C15_5 1_555 1_555
C19_5 C16_5 1_555 1_555
H14_5 C19_5 1_555 1_555
C20_5 C19_5 1_555 1_555
H15_5 C20_5 1_555 1_555
C21_5 C20_5 1_555 1_555
C22_5 C21_5 1_555 1_555
H16_5 C22_5 1_555 1_555
C23_5 C22_5 1_555 1_555
H17_5 C23_5 1_555 1_555
C25_5 C21_5 1_555 1_555
Co8 N1_5 1_555 1_555
N1_5 C7_5 1_555 1_555
O2_5 C9_5 1_555 1_555
O5_4 C12_5 1_555 1_555
O6_4 C12_5 1_555 1_555
O13_2 C13_5 1_555 1_555
C1_5 C2_5 1_555 1_555
C2_5 H1_5 1_555 1_555
C3_5 C2_5 1_555 1_555
C4_5 C3_5 1_555 1_555
H2_5 C4_5 1_555 1_555
C5_5 C4_5 1_555 1_555
C6_5 C1_5 1_555 1_555
H3_5 C6_5 1_555 1_555
C7_5 C5_5 1_555 1_555
H4_5 C7_5 1_555 1_555
H5_5 C7_5 1_555 1_555
C8_5 N1_5 1_555 1_555
H6_5 C8_5 1_555 1_555
H7_5 C8_5 1_555 1_555
C9_5 O1_5 1_555 1_555
C12_5 C1_5 1_555 1_555
C13_5 C3_5 1_555 1_555
Co5 O5_4 1_555 1_555
Co8_2 O6_4 1_555 1_555
Co8 O1_5 1_555 1_555
C5_5 C6_5 1_555 1_555
C8_5 C9_5 1_555 1_555
Co4_2 N2_5 1_555 1_555
H12_5 C17_5 1_555 1_555
C18_5 N2_5 1_555 1_555
H13_5 C18_5 1_555 1_555
O9_4 Co4_2 1_555 1_555
H20_4 O9_4 1_555 1_555
H21_4 O9_4 1_555 1_555
C17_5 C18_5 1_555 1_555
H18_5 C24_5 1_555 1_555
Co5 N2_6 1_555 1_555
Co8_2 N1_6 1_555 1_555
N1_6 C7_6 1_555 1_555
O1_6 Co5 1_555 1_555
O2_6 C9_6 1_555 1_555
O11_2 C12_6 1_555 1_555
O12_2 C12_6 1_555 1_555
O13_3 C13_6 1_555 1_555
C1_6 C2_6 1_555 1_555
C2_6 H1_6 1_555 1_555
C3_6 C2_6 1_555 1_555
C4_6 C3_6 1_555 1_555
H2_6 C4_6 1_555 1_555
C5_6 C4_6 1_555 1_555
C6_6 C1_6 1_555 1_555
H3_6 C6_6 1_555 1_555
C7_6 C5_6 1_555 1_555
H4_6 C7_6 1_555 1_555
H5_6 C7_6 1_555 1_555
C8_6 N1_6 1_555 1_555
H6_6 C8_6 1_555 1_555
H7_6 C8_6 1_555 1_555
C9_6 O1_6 1_555 1_555
C12_6 C1_6 1_555 1_555
C13_6 C3_6 1_555 1_555
H12_6 C17_6 1_555 1_555
C18_6 N2_6 1_555 1_555
H13_6 C18_6 1_555 1_555
O9_5 Co5 1_555 1_555
H20_5 O9_5 1_555 1_555
H21_5 O9_5 1_555 1_555
Co8_2 O1_6 1_555 1_555
C5_6 C6_6 1_555 1_555
C8_6 C9_6 1_555 1_555
C17_6 C18_6 1_555 1_555
O10_2 C11_6 1_555 1_555
H8_6 C10_6 1_555 1_555
H9_6 C10_6 1_555 1_555
C11_6 O3_6 1_555 1_555
C14_6 H10_6 1_555 1_555
C15_6 C14_6 1_555 1_555
H11_6 C15_6 1_555 1_555
C16_6 C15_6 1_555 1_555
C10_6 C11_6 1_555 1_555
N4 C23_6 1_555 1_555
H14_6 C19_6 1_555 1_555
C20_6 C19_6 1_555 1_555
H15_6 C20_6 1_555 1_555
C21_6 C20_6 1_555 1_555
C22_6 C21_6 1_555 1_555
H16_6 C22_6 1_555 1_555
C23_6 C22_6 1_555 1_555
H17_6 C23_6 1_555 1_555
C24_6 N4 1_555 1_555
H18_6 C24_6 1_555 1_555
C25_6 C21_6 1_555 1_555
H19_6 C25_6 1_555 1_555
C24_6 C25_6 1_555 1_555
H20_6 O9_6 1_555 1_555
H21_6 O9_6 1_555 1_555

#END
