
###############################################################################
#
# This file contains modified crystal structure data generated from the
# MOF subset of the Cambridge Structural Database (CSD) v543 
# hosted by the Cambridge Crystallographic Data Centre (CCDC).
#
# This work is licensed under the Creative Commons
# Attribution-NonCommercial-ShareAlike 4.0 International License.
# To view a copy of this license, visit
# http://creativecommons.org/licenses/by-nc-sa/4.0/
# or send a letter to
# Creative Commons, PO Box 1866, Mountain View, CA 94042, USA.
#
# CIF created using the CSD Python API on 29 September 2022
# The structure has been converted into the P1 space group
# The structure has a 3D framework
# The original CSD entry FIFMUD is in the orthorhombic crystal system
# The framework has been calculated to contain at least 10.0% void space
# The void calculation uses a probe of radius 1.32A, grid spacing 0.4
#
###############################################################################

data_FIFMUD
_chemical_formula_moiety         '(C336 H240 Ag8 B8 F32 Fe8 N72)n'
_symmetry_cell_setting           triclinic
_symmetry_space_group_name_H-M   'P 1'
_symmetry_Int_Tables_number      1
_space_group_name_Hall           'P 1'
loop_
_symmetry_equiv_pos_site_id
_symmetry_equiv_pos_as_xyz
1 x,y,z
_cell_length_a                   26.959(3)
_cell_length_b                   12.3089(14)
_cell_length_c                   33.493(4)
_cell_angle_alpha                90
_cell_angle_beta                 90
_cell_angle_gamma                90
_cell_volume                     11114.2
loop_
_atom_site_label
_atom_site_type_symbol
_atom_site_fract_x
_atom_site_fract_y
_atom_site_fract_z
C8 C 0.0020(3) 0.3121(6) 0.5821(2)
H5 H 0.0036 0.3834 0.5713
C9 C 0.0403(3) 0.2368(6) 0.5851(2)
H6 H 0.0732 0.2514 0.5766
C15 C 0.0510(3) 0.1584(6) 0.6844(2)
H11 H 0.0333 0.2106 0.6691
C16 C 0.0584(3) 0.1636(9) 0.7268(3)
H12 H 0.0465 0.2191 0.7440
C17 C 0.0853(3) 0.0759(8) 0.7380(2)
H13 H 0.0960 0.0587 0.7643
C18 C 0.0946(3) 0.0131(7) 0.70183(19)
H20 H 0.1896 0.0035 0.7455
C29 C 0.1580(3) 0.1538(8) 0.6264(2)
H21 H 0.1543 0.1540 0.6546
C30 C 0.1933(3) 0.2064(9) 0.6067(3)
H22 H 0.2194 0.2454 0.6192
C31 C 0.1877(3) 0.1978(8) 0.5669(3)
H23 H 0.2066 0.2313 0.5464
C32 C 0.1460(2) 0.1251(7) 0.5631(2)
C33 C 0.1251(2) 0.0829(6) 0.5274(2)
C34 C 0.0857(2) 0.0077(6) 0.52504(19)
C38 C 0.1469(2) 0.1220(7) 0.4898(2)
C39 C 0.1958(2) 0.0930(7) 0.4777(2)
H27 H 0.2149 0.0426 0.4928
C40 C 0.2143(2) 0.1387(7) 0.4444(2)
H28 H 0.2481 0.1252 0.4381
C41 C 0.1411(3) 0.2266(7) 0.4292(2)
H29 H 0.1221 0.2731 0.4125
C42 C 0.1195(2) 0.1854(6) 0.4632(2)
H30 H 0.0856 0.2003 0.4687
Fe1 Fe 0.06826(3) 0.01802(9) 0.61439(3)
N2 N 0.02602(18) 0.1394(5) 0.60143(15)
N4 N 0.0723(2) 0.0707(5) 0.66994(16)
N7 N 0.12822(19) 0.1001(6) 0.60077(17)
N9 N 0.1876(2) 0.2037(5) 0.41875(18)
Ag2 Ag 0.220730(19) 0.26095(5) 0.361560(16)
C1 C 0.0102(3) 0.8313(6) 0.6443(2)
H1 H 0.0387 0.7861 0.6450
C19 C 0.1212(3) 0.9214(8) 0.6982(2)
C20 C 0.1310(3) 0.8636(8) 0.6617(2)
C21 C 0.1636(3) 0.7787(7) 0.6574(3)
H14 H 0.1835 0.7466 0.6776
C22 C 0.1615(3) 0.7493(7) 0.6169(3)
H15 H 0.1779 0.6901 0.6043
C23 C 0.1309(3) 0.8241(7) 0.5996(2)
H16 H 0.1237 0.8249 0.5718
C24 C 0.1437(3) 0.8761(7) 0.7358(2)
C25 C 0.1316(4) 0.7791(7) 0.7502(3)
H17 H 0.1079 0.7351 0.7368
C26 C 0.1540(5) 0.7429(7) 0.7848(3)
H18 H 0.1445 0.6739 0.7950
C27 C 0.2001(4) 0.8957(9) 0.7895(2)
H19 H 0.2242 0.9384 0.8031
C28 C 0.1794(4) 0.9350(9) 0.7556(2)
C35 C 0.0684(2) 0.9507(6) 0.49122(19)
H24 H 0.0796 0.9598 0.4645
C36 C 0.0330(2) 0.8807(6) 0.50370(18)
H25 H 0.0145 0.8316 0.4876
C37 C 0.0290(2) 0.8952(5) 0.54517(18)
H26 H 0.0067 0.8557 0.5617
N1 N 0.01087(19) 0.9316(5) 0.63181(16)
N5 N 0.11195(18) 0.8965(5) 0.62539(15)
N6 N 0.1878(3) 0.7987(7) 0.80453(19)
N8 N 0.06119(17) 0.9732(5) 0.55913(14)
Ag3 Ag 0.220730(19) 0.73905(5) 0.861560(16)
Ag1 Ag 0.720730(19) 0.23905(5) 0.638440(16)
C5 C 0.9456(2) 0.0759(6) 0.6260(2)
C6 C 0.9765(2) 0.1535(6) 0.60914(18)
C7 C 0.9615(3) 0.2608(6) 0.5981(2)
H4 H 0.9293 0.2910 0.6013
C10 C 0.8934(3) 0.1002(7) 0.63341(18)
C11 C 0.8558(2) 0.0517(7) 0.6115(2)
C12 C 0.8077(2) 0.0845(6) 0.6172(2)
H8 H 0.7822 0.0513 0.6019
C13 C 0.8297(2) 0.2043(6) 0.66545(19)
H9 H 0.8205 0.2549 0.6856
C14 C 0.8809(2) 0.1800(7) 0.6611(2)
H10 H 0.9055 0.2164 0.6764
F2 F 0.6493(3) 0.0866(6) 0.6356(3)
N3 N 0.79505(18) 0.1629(4) 0.64416(15)
N10 N 0.6878(3) 0.2987(7) 0.69547(19)
N11 N 0.6876(2) 0.2963(5) 0.58125(18)
B1 B 0.1678(8) 0.5196(15) 0.3732(8)
C1_2 C 0.5102(3) 0.6687(6) 0.3557(2)
H1_2 H 0.5387 0.7139 0.3550
C2 C 0.4635(3) 0.7025(8) 0.3435(3)
H2 H 0.4543 0.7726 0.3342
C3 C 0.4337(3) 0.6143(7) 0.3477(2)
H3 H 0.3997 0.6099 0.3405
C4 C 0.4615(2) 0.5336(6) 0.36400(18)
C5_2 C 0.4456(2) 0.4241(6) 0.3740(2)
C6_2 C 0.4765(2) 0.3465(6) 0.39086(18)
C7_2 C 0.4615(3) 0.2392(6) 0.4019(2)
H4_2 H 0.4293 0.2090 0.3987
C8_2 C 0.5020(3) 0.1879(6) 0.4179(2)
H5_2 H 0.5036 0.1166 0.4287
C9_2 C 0.5403(3) 0.2632(6) 0.4149(2)
H6_2 H 0.5732 0.2486 0.4234
C10_2 C 0.3934(3) 0.3998(7) 0.36659(18)
C11_2 C 0.3558(2) 0.4483(7) 0.3885(2)
H7 H 0.3633 0.5038 0.4073
C12_2 C 0.3077(2) 0.4155(6) 0.3828(2)
H8_2 H 0.2822 0.4487 0.3981
C13_2 C 0.3297(2) 0.2957(6) 0.33455(19)
H9_2 H 0.3205 0.2451 0.3144
C14_2 C 0.3809(2) 0.3200(7) 0.3389(2)
H10_2 H 0.4055 0.2836 0.3236
C15_2 C 0.5510(3) 0.3416(6) 0.3156(2)
H11_2 H 0.5333 0.2894 0.3309
C16_2 C 0.5584(3) 0.3364(9) 0.2732(3)
H12_2 H 0.5465 0.2809 0.2560
C17_2 C 0.5853(3) 0.4241(8) 0.2620(2)
H13_2 H 0.5960 0.4413 0.2357
C18_2 C 0.5946(3) 0.4869(7) 0.29817(19)
C19_2 C 0.6212(3) 0.5786(8) 0.3018(2)
C20_2 C 0.6310(3) 0.6364(8) 0.3383(2)
C21_2 C 0.6636(3) 0.7213(7) 0.3426(3)
H14_2 H 0.6835 0.7534 0.3224
C22_2 C 0.6615(3) 0.7507(7) 0.3831(3)
H15_2 H 0.6779 0.8099 0.3957
C23_2 C 0.6309(3) 0.6759(7) 0.4004(2)
H16_2 H 0.6237 0.6751 0.4282
C24_2 C 0.6437(3) 0.6239(7) 0.2642(2)
C25_2 C 0.6316(4) 0.7209(7) 0.2498(3)
H17_2 H 0.6079 0.7649 0.2632
C26_2 C 0.6540(5) 0.7571(7) 0.2152(3)
H18_2 H 0.6445 0.8261 0.2050
C27_2 C 0.7001(4) 0.6043(9) 0.2105(2)
H19_2 H 0.7242 0.5616 0.1969
C28_2 C 0.6794(4) 0.5650(9) 0.2444(2)
H20_2 H 0.6896 0.4965 0.2545
C29_2 C 0.6580(3) 0.3462(8) 0.3736(2)
H21_2 H 0.6543 0.3460 0.3454
C30_2 C 0.6933(3) 0.2936(9) 0.3933(3)
H22_2 H 0.7194 0.2546 0.3808
C31_2 C 0.6877(3) 0.3022(8) 0.4331(3)
H23_2 H 0.7066 0.2687 0.4536
C32_2 C 0.6460(2) 0.3749(7) 0.4369(2)
C33_2 C 0.6251(2) 0.4171(6) 0.4726(2)
C34_2 C 0.5857(2) 0.4923(6) 0.47496(19)
C35_2 C 0.5684(2) 0.5493(6) 0.50878(19)
H24_2 H 0.5796 0.5402 0.5355
C36_2 C 0.5330(2) 0.6193(6) 0.49630(18)
H25_2 H 0.5145 0.6684 0.5124
C37_2 C 0.5290(2) 0.6048(5) 0.45483(18)
H26_2 H 0.5067 0.6443 0.4383
C38_2 C 0.6469(2) 0.3780(7) 0.5102(2)
C39_2 C 0.6958(2) 0.4070(7) 0.5223(2)
H27_2 H 0.7149 0.4574 0.5072
C40_2 C 0.7143(2) 0.3613(7) 0.5556(2)
H28_2 H 0.7481 0.3748 0.5619
C41_2 C 0.6411(3) 0.2734(7) 0.5708(2)
H29_2 H 0.6221 0.2269 0.5875
C42_2 C 0.6195(2) 0.3146(6) 0.5368(2)
H30_2 H 0.5856 0.2997 0.5313
F1 F 0.2098(3) 0.5511(7) 0.3551(3)
F2_2 F 0.1493(3) 0.4134(6) 0.3644(3)
F3 F 0.1458(5) 0.5990(8) 0.3869(4)
F4 F 0.1392(9) 0.5532(15) 0.3363(7)
Fe1_2 Fe 0.56826(3) 0.48198(9) 0.38561(3)
N1_2 N 0.51087(19) 0.5684(5) 0.36819(16)
N2_2 N 0.52602(18) 0.3606(5) 0.39857(15)
N3_2 N 0.29505(18) 0.3371(4) 0.35584(15)
N4_2 N 0.5723(2) 0.4293(5) 0.33006(16)
N5_2 N 0.61195(18) 0.6035(5) 0.37461(15)
N6_2 N 0.6878(3) 0.7013(7) 0.19547(19)
N7_2 N 0.62822(19) 0.3999(6) 0.39923(17)
N8_2 N 0.56119(17) 0.5268(5) 0.44087(14)
Ag3_2 Ag 0.720730(19) 0.76095(5) 0.138440(16)
N10_2 N 0.1878(3) 0.2013(7) 0.30453(19)
C35_3 C 0.5684(2) 0.4507(6) 0.00878(19)
H24_3 H 0.5796 0.4598 0.0355
H25_3 H 0.5145 0.3316 0.0124
C38_3 C 0.6469(2) 0.6220(7) 0.0102(2)
C39_3 C 0.6958(2) 0.5930(7) 0.0223(2)
H27_3 H 0.7149 0.5426 0.0072
C40_3 C 0.7143(2) 0.6387(7) 0.0556(2)
H28_3 H 0.7481 0.6252 0.0619
C41_3 C 0.6411(3) 0.7266(7) 0.0708(2)
H29_3 H 0.6221 0.7731 0.0875
C42_3 C 0.6195(2) 0.6854(6) 0.0368(2)
H30_3 H 0.5856 0.7003 0.0313
N9_2 N 0.6876(2) 0.7037(5) 0.08125(18)
B1_2 B 0.1678(8) 0.4804(15) 0.8732(8)
C1_3 C 0.5102(3) 0.3313(6) 0.8557(2)
H1_3 H 0.5387 0.2861 0.8550
C2_2 C 0.4635(3) 0.2975(8) 0.8435(3)
H2_2 H 0.4543 0.2274 0.8342
C3_2 C 0.4337(3) 0.3857(7) 0.8477(2)
H3_2 H 0.3997 0.3901 0.8405
C4_2 C 0.4615(2) 0.4664(6) 0.86400(18)
C5_3 C 0.4456(2) 0.5759(6) 0.8740(2)
C6_3 C 0.4765(2) 0.6535(6) 0.89086(18)
C7_3 C 0.4615(3) 0.7608(6) 0.9019(2)
H4_3 H 0.4293 0.7910 0.8987
C8_3 C 0.5020(3) 0.8121(6) 0.9179(2)
H5_3 H 0.5036 0.8834 0.9287
C9_3 C 0.5403(3) 0.7368(6) 0.9149(2)
H6_3 H 0.5732 0.7514 0.9234
C10_3 C 0.3934(3) 0.6002(7) 0.86659(18)
C11_3 C 0.3558(2) 0.5517(7) 0.8885(2)
H7_2 H 0.3633 0.4962 0.9073
C12_3 C 0.3077(2) 0.5845(6) 0.8828(2)
H8_3 H 0.2822 0.5513 0.8981
C13_3 C 0.3297(2) 0.7043(6) 0.83455(19)
H9_3 H 0.3205 0.7549 0.8144
C14_3 C 0.3809(2) 0.6800(7) 0.8389(2)
H10_3 H 0.4055 0.7164 0.8236
C15_3 C 0.5510(3) 0.6584(6) 0.8156(2)
H11_3 H 0.5333 0.7106 0.8309
C16_3 C 0.5584(3) 0.6636(9) 0.7732(3)
H12_3 H 0.5465 0.7191 0.7560
C17_3 C 0.5853(3) 0.5759(8) 0.7620(2)
H13_3 H 0.5960 0.5587 0.7357
C18_3 C 0.5946(3) 0.5131(7) 0.79817(19)
C19_3 C 0.6212(3) 0.4214(8) 0.8018(2)
C20_3 C 0.6310(3) 0.3636(8) 0.8383(2)
C21_3 C 0.6636(3) 0.2787(7) 0.8426(3)
H14_3 H 0.6835 0.2466 0.8224
C22_3 C 0.6615(3) 0.2493(7) 0.8831(3)
H15_3 H 0.6779 0.1901 0.8957
C23_3 C 0.6309(3) 0.3241(7) 0.9004(2)
H16_3 H 0.6237 0.3249 0.9282
C24_3 C 0.6437(3) 0.3761(7) 0.7642(2)
C25_3 C 0.6316(4) 0.2791(7) 0.7498(3)
H17_3 H 0.6079 0.2351 0.7632
C26_3 C 0.6540(5) 0.2429(7) 0.7152(3)
H18_3 H 0.6445 0.1739 0.7050
C27_3 C 0.7001(4) 0.3957(9) 0.7105(2)
H19_3 H 0.7242 0.4384 0.6969
C28_3 C 0.6794(4) 0.4350(9) 0.7444(2)
H20_3 H 0.6896 0.5035 0.7545
C29_3 C 0.6580(3) 0.6538(8) 0.8736(2)
H21_3 H 0.6543 0.6540 0.8454
C30_3 C 0.6933(3) 0.7064(9) 0.8933(3)
H22_3 H 0.7194 0.7454 0.8808
C31_3 C 0.6877(3) 0.6978(8) 0.9331(3)
H23_3 H 0.7066 0.7313 0.9536
C32_3 C 0.6460(2) 0.6251(7) 0.9369(2)
C33_3 C 0.6251(2) 0.5829(6) 0.9726(2)
C34_3 C 0.5857(2) 0.5077(6) 0.97496(19)
C36_3 C 0.5330(2) 0.3807(6) 0.99630(18)
C37_3 C 0.5290(2) 0.3952(5) 0.95483(18)
H26_3 H 0.5067 0.3557 0.9383
F1_2 F 0.2098(3) 0.4489(7) 0.8551(3)
F2_3 F 0.1493(3) 0.5866(6) 0.8644(3)
F3_2 F 0.1458(5) 0.4010(8) 0.8869(4)
F4_2 F 0.1392(9) 0.4468(15) 0.8363(7)
Fe1_3 Fe 0.56826(3) 0.51802(9) 0.88561(3)
N1_3 N 0.51087(19) 0.4316(5) 0.86819(16)
N2_3 N 0.52602(18) 0.6394(5) 0.89857(15)
N3_3 N 0.29505(18) 0.6629(4) 0.85584(15)
N4_3 N 0.5723(2) 0.5707(5) 0.83006(16)
N5_3 N 0.61195(18) 0.3965(5) 0.87461(15)
N7_3 N 0.62822(19) 0.6001(6) 0.89923(17)
N8_3 N 0.56119(17) 0.4732(5) 0.94087(14)
N11_2 N 0.1876(2) 0.7963(5) 0.91875(18)
C1_4 C 0.0102(3) 0.1687(6) 0.1443(2)
H1_4 H 0.0387 0.2139 0.1450
C19_4 C 0.1212(3) 0.0786(8) 0.1982(2)
C20_4 C 0.1310(3) 0.1364(8) 0.1617(2)
C21_4 C 0.1636(3) 0.2213(7) 0.1574(3)
H14_4 H 0.1835 0.2534 0.1776
C22_4 C 0.1615(3) 0.2507(7) 0.1169(3)
H15_4 H 0.1779 0.3099 0.1043
C23_4 C 0.1309(3) 0.1759(7) 0.0996(2)
H16_4 H 0.1237 0.1751 0.0718
C24_4 C 0.1437(3) 0.1239(7) 0.2358(2)
C25_4 C 0.1316(4) 0.2209(7) 0.2502(3)
H17_4 H 0.1079 0.2649 0.2368
C26_4 C 0.1540(5) 0.2571(7) 0.2848(3)
H18_4 H 0.1445 0.3261 0.2950
C27_4 C 0.2001(4) 0.1043(9) 0.2895(2)
H19_4 H 0.2242 0.0616 0.3031
C28_4 C 0.1794(4) 0.0650(9) 0.2556(2)
C36_4 C 0.0330(2) 0.1193(6) 0.00370(18)
C37_4 C 0.0290(2) 0.1048(5) 0.04517(18)
H26_4 H 0.0067 0.1443 0.0617
N1_4 N 0.01087(19) 0.0684(5) 0.13181(16)
N5_4 N 0.11195(18) 0.1035(5) 0.12539(15)
N8_4 N 0.06119(17) 0.0268(5) 0.05913(14)
C38_4 C 0.1469(2) 0.8780(7) 0.9898(2)
C39_4 C 0.1958(2) 0.9070(7) 0.9777(2)
H27_4 H 0.2149 0.9574 0.9928
C40_4 C 0.2143(2) 0.8613(7) 0.9444(2)
H28_4 H 0.2481 0.8748 0.9381
C41_4 C 0.1411(3) 0.7734(7) 0.9292(2)
H29_4 H 0.1221 0.7269 0.9125
C42_4 C 0.1195(2) 0.8146(6) 0.9632(2)
H30_4 H 0.0856 0.7997 0.9687
C5_4 C 0.9456(2) 0.9241(6) 0.1260(2)
C6_4 C 0.9765(2) 0.8465(6) 0.10914(18)
C7_4 C 0.9615(3) 0.7392(6) 0.0981(2)
H4_4 H 0.9293 0.7090 0.1013
C10_4 C 0.8934(3) 0.8998(7) 0.13341(18)
C11_4 C 0.8558(2) 0.9483(7) 0.1115(2)
C12_4 C 0.8077(2) 0.9155(6) 0.1172(2)
H8_4 H 0.7822 0.9487 0.1019
C13_4 C 0.8297(2) 0.7957(6) 0.16545(19)
H9_4 H 0.8205 0.7451 0.1856
C14_4 C 0.8809(2) 0.8200(7) 0.1611(2)
H10_4 H 0.9055 0.7836 0.1764
F2_4 F 0.6493(3) 0.9134(6) 0.1356(3)
N3_4 N 0.79505(18) 0.8371(4) 0.14416(15)
B1_3 B 0.6678(8) 0.9804(15) 0.6268(8)
C2_3 C 0.9635(3) 0.7975(8) 0.6565(3)
H2_3 H 0.9543 0.7274 0.6658
C3_3 C 0.9337(3) 0.8857(7) 0.6523(2)
H3_3 H 0.8997 0.8901 0.6595
C4_3 C 0.9615(2) 0.9664(6) 0.63600(18)
H7_3 H 0.8633 0.9962 0.5927
F1_3 F 0.7098(3) 0.9489(7) 0.6449(3)
F3_3 F 0.6458(5) 0.9010(8) 0.6131(4)
F4_3 F 0.6392(9) 0.9468(15) 0.6637(7)
Ag1_2 Ag 0.779270(19) 0.26095(5) 0.138440(16)
B1_4 B 0.8322(8) 0.5196(15) 0.1268(8)
C1_5 C 0.4898(3) 0.6687(6) 0.1443(2)
H1_5 H 0.4613 0.7139 0.1450
C2_4 C 0.5365(3) 0.7025(8) 0.1565(3)
H2_4 H 0.5457 0.7726 0.1658
C3_4 C 0.5663(3) 0.6143(7) 0.1523(2)
H3_4 H 0.6003 0.6099 0.1595
C4_4 C 0.5385(2) 0.5336(6) 0.13600(18)
C5_5 C 0.5544(2) 0.4241(6) 0.1260(2)
C6_5 C 0.5235(2) 0.3465(6) 0.10914(18)
C7_5 C 0.5385(3) 0.2392(6) 0.0981(2)
H4_5 H 0.5707 0.2090 0.1013
C8_4 C 0.4980(3) 0.1879(6) 0.0821(2)
H5_4 H 0.4964 0.1166 0.0713
C9_4 C 0.4597(3) 0.2632(6) 0.0851(2)
H6_4 H 0.4268 0.2486 0.0766
C10_5 C 0.6066(3) 0.3998(7) 0.13341(18)
C11_5 C 0.6442(2) 0.4483(7) 0.1115(2)
H7_4 H 0.6367 0.5038 0.0927
C12_5 C 0.6923(2) 0.4155(6) 0.1172(2)
H8_5 H 0.7178 0.4487 0.1019
C13_5 C 0.6703(2) 0.2957(6) 0.16545(19)
H9_5 H 0.6795 0.2451 0.1856
C14_5 C 0.6191(2) 0.3200(7) 0.1611(2)
H10_5 H 0.5945 0.2836 0.1764
C15_4 C 0.4490(3) 0.3416(6) 0.1844(2)
H11_4 H 0.4667 0.2894 0.1691
C16_4 C 0.4416(3) 0.3364(9) 0.2268(3)
H12_4 H 0.4535 0.2809 0.2440
C17_4 C 0.4147(3) 0.4241(8) 0.2380(2)
H13_4 H 0.4040 0.4413 0.2643
C18_4 C 0.4054(3) 0.4869(7) 0.20183(19)
C19_5 C 0.3788(3) 0.5786(8) 0.1982(2)
C20_5 C 0.3690(3) 0.6364(8) 0.1617(2)
C21_5 C 0.3364(3) 0.7213(7) 0.1574(3)
H14_5 H 0.3165 0.7534 0.1776
C22_5 C 0.3385(3) 0.7507(7) 0.1169(3)
H15_5 H 0.3221 0.8099 0.1043
C23_5 C 0.3691(3) 0.6759(7) 0.0996(2)
H16_5 H 0.3763 0.6751 0.0718
C24_5 C 0.3563(3) 0.6239(7) 0.2358(2)
C25_5 C 0.3684(4) 0.7209(7) 0.2502(3)
H17_5 H 0.3921 0.7649 0.2368
C26_5 C 0.3460(5) 0.7571(7) 0.2848(3)
H18_5 H 0.3555 0.8261 0.2950
C27_5 C 0.2999(4) 0.6043(9) 0.2895(2)
H19_5 H 0.2758 0.5616 0.3031
C28_5 C 0.3206(4) 0.5650(9) 0.2556(2)
H20_4 H 0.3104 0.4965 0.2455
C29_4 C 0.3420(3) 0.3462(8) 0.1264(2)
H21_4 H 0.3457 0.3460 0.1546
C30_4 C 0.3067(3) 0.2936(9) 0.1067(3)
H22_4 H 0.2806 0.2546 0.1192
C31_4 C 0.3123(3) 0.3022(8) 0.0669(3)
H23_4 H 0.2934 0.2687 0.0464
C32_4 C 0.3540(2) 0.3749(7) 0.0631(2)
C33_4 C 0.3749(2) 0.4171(6) 0.0274(2)
C34_4 C 0.4143(2) 0.4923(6) 0.02504(19)
C36_5 C 0.4670(2) 0.6193(6) 0.00370(18)
C37_5 C 0.4710(2) 0.6048(5) 0.04517(18)
H26_5 H 0.4933 0.6443 0.0617
F1_4 F 0.7902(3) 0.5511(7) 0.1449(3)
F2_5 F 0.8507(3) 0.4134(6) 0.1356(3)
F3_4 F 0.8542(5) 0.5990(8) 0.1131(4)
F4_4 F 0.8608(9) 0.5532(15) 0.1637(7)
Fe1_4 Fe 0.43174(3) 0.48198(9) 0.11439(3)
N1_5 N 0.48913(19) 0.5684(5) 0.13181(16)
N2_4 N 0.47398(18) 0.3606(5) 0.10143(15)
N3_5 N 0.70495(18) 0.3371(4) 0.14416(15)
N4_4 N 0.4277(2) 0.4293(5) 0.16994(16)
N5_5 N 0.38805(18) 0.6035(5) 0.12539(15)
N6_3 N 0.3122(3) 0.7013(7) 0.30453(19)
N7_4 N 0.37178(19) 0.3999(6) 0.10077(17)
N8_5 N 0.43881(17) 0.5268(5) 0.05913(14)
Ag3_3 Ag 0.279270(19) 0.76095(5) 0.361560(16)
N10_3 N 0.8122(3) 0.2013(7) 0.19547(19)
N11_3 N 0.8124(2) 0.2037(5) 0.08125(18)
C35_4 C 0.4316(2) 0.5493(6) 0.99122(19)
H24_4 H 0.4204 0.5402 0.9645
H25_4 H 0.4855 0.6684 0.9876
C38_5 C 0.3531(2) 0.3780(7) 0.9898(2)
C39_5 C 0.3042(2) 0.4070(7) 0.9777(2)
H27_5 H 0.2851 0.4574 0.9928
C40_5 C 0.2857(2) 0.3613(7) 0.9444(2)
H28_5 H 0.2519 0.3748 0.9381
C41_5 C 0.3589(3) 0.2734(7) 0.9292(2)
H29_5 H 0.3779 0.2269 0.9125
C42_5 C 0.3805(2) 0.3146(6) 0.9632(2)
H30_5 H 0.4144 0.2997 0.9687
N9_3 N 0.3124(2) 0.2963(5) 0.91875(18)
Ag2_2 Ag 0.279270(19) 0.23905(5) 0.861560(16)
C5_6 C 0.0544(2) 0.0759(6) 0.8740(2)
C6_6 C 0.0235(2) 0.1535(6) 0.89086(18)
C7_6 C 0.0385(3) 0.2608(6) 0.9019(2)
H4_6 H 0.0707 0.2910 0.8987
C10_6 C 0.1066(3) 0.1002(7) 0.86659(18)
C11_6 C 0.1442(2) 0.0517(7) 0.8885(2)
C12_6 C 0.1923(2) 0.0845(6) 0.8828(2)
H8_6 H 0.2178 0.0513 0.8981
C13_6 C 0.1703(2) 0.2043(6) 0.83455(19)
H9_6 H 0.1795 0.2549 0.8144
C14_6 C 0.1191(2) 0.1800(7) 0.8389(2)
H10_6 H 0.0945 0.2164 0.8236
F2_6 F 0.3507(3) 0.0866(6) 0.8644(3)
N3_6 N 0.20495(18) 0.1629(4) 0.85584(15)
N10_4 N 0.3122(3) 0.2987(7) 0.80453(19)
C38_6 C 0.8531(2) 0.1220(7) 0.0102(2)
C39_6 C 0.8042(2) 0.0930(7) 0.0223(2)
H27_6 H 0.7851 0.0426 0.0072
C40_6 C 0.7857(2) 0.1387(7) 0.0556(2)
H28_6 H 0.7519 0.1252 0.0619
C41_6 C 0.8589(3) 0.2266(7) 0.0708(2)
H29_6 H 0.8779 0.2731 0.0875
C42_6 C 0.8805(2) 0.1854(6) 0.0368(2)
H30_6 H 0.9144 0.2003 0.0313
C1_6 C 0.9898(3) 0.8313(6) 0.8557(2)
H1_6 H 0.9613 0.7861 0.8550
C19_6 C 0.8788(3) 0.9214(8) 0.8018(2)
C20_6 C 0.8690(3) 0.8636(8) 0.8383(2)
C21_6 C 0.8364(3) 0.7787(7) 0.8426(3)
H14_6 H 0.8165 0.7466 0.8224
C22_6 C 0.8385(3) 0.7493(7) 0.8831(3)
H15_6 H 0.8221 0.6901 0.8957
C23_6 C 0.8691(3) 0.8241(7) 0.9004(2)
H16_6 H 0.8763 0.8249 0.9282
C24_6 C 0.8563(3) 0.8761(7) 0.7642(2)
C25_6 C 0.8684(4) 0.7791(7) 0.7498(3)
H17_6 H 0.8921 0.7351 0.7632
C26_6 C 0.8460(5) 0.7429(7) 0.7152(3)
H18_6 H 0.8555 0.6739 0.7050
C27_6 C 0.7999(4) 0.8957(9) 0.7105(2)
H19_6 H 0.7758 0.9384 0.6969
C28_6 C 0.8206(4) 0.9350(9) 0.7444(2)
C36_6 C 0.9670(2) 0.8807(6) 0.99630(18)
C37_6 C 0.9710(2) 0.8952(5) 0.95483(18)
H26_6 H 0.9933 0.8557 0.9383
N1_6 N 0.98913(19) 0.9316(5) 0.86819(16)
N5_6 N 0.88805(18) 0.8965(5) 0.87461(15)
N6_4 N 0.8122(3) 0.7987(7) 0.69547(19)
N8_6 N 0.93881(17) 0.9732(5) 0.94087(14)
Ag3_4 Ag 0.779270(19) 0.73905(5) 0.638440(16)
C5_7 C 0.0544(2) 0.9241(6) 0.3740(2)
C6_7 C 0.0235(2) 0.8465(6) 0.39086(18)
C7_7 C 0.0385(3) 0.7392(6) 0.4019(2)
H4_7 H 0.0707 0.7090 0.3987
C10_7 C 0.1066(3) 0.8998(7) 0.36659(18)
C11_7 C 0.1442(2) 0.9483(7) 0.3885(2)
C12_7 C 0.1923(2) 0.9155(6) 0.3828(2)
H8_7 H 0.2178 0.9487 0.3981
C13_7 C 0.1703(2) 0.7957(6) 0.33455(19)
H9_7 H 0.1795 0.7451 0.3144
C14_7 C 0.1191(2) 0.8200(7) 0.3389(2)
H10_7 H 0.0945 0.7836 0.3236
F2_7 F 0.3507(3) 0.9134(6) 0.3644(3)
N3_7 N 0.20495(18) 0.8371(4) 0.35584(15)
N11_4 N 0.3124(2) 0.7037(5) 0.41875(18)
C1_7 C 0.9898(3) 0.1687(6) 0.3557(2)
H1_7 H 0.9613 0.2139 0.3550
C19_7 C 0.8788(3) 0.0786(8) 0.3018(2)
C20_7 C 0.8690(3) 0.1364(8) 0.3383(2)
C21_7 C 0.8364(3) 0.2213(7) 0.3426(3)
H14_7 H 0.8165 0.2534 0.3224
C22_7 C 0.8385(3) 0.2507(7) 0.3831(3)
H15_7 H 0.8221 0.3099 0.3957
C23_7 C 0.8691(3) 0.1759(7) 0.4004(2)
H16_7 H 0.8763 0.1751 0.4282
C24_7 C 0.8563(3) 0.1239(7) 0.2642(2)
C25_7 C 0.8684(4) 0.2209(7) 0.2498(3)
H17_7 H 0.8921 0.2649 0.2632
C26_7 C 0.8460(5) 0.2571(7) 0.2152(3)
H18_7 H 0.8555 0.3261 0.2050
C27_7 C 0.7999(4) 0.1043(9) 0.2105(2)
H19_7 H 0.7758 0.0616 0.1969
C28_7 C 0.8206(4) 0.0650(9) 0.2444(2)
C35_5 C 0.9316(2) 0.0493(6) 0.50878(19)
H24_5 H 0.9204 0.0402 0.5355
C36_7 C 0.9670(2) 0.1193(6) 0.49630(18)
H25_5 H 0.9855 0.1684 0.5124
C37_7 C 0.9710(2) 0.1048(5) 0.45483(18)
H26_7 H 0.9933 0.1443 0.4383
N1_7 N 0.98913(19) 0.0684(5) 0.36819(16)
N5_7 N 0.88805(18) 0.1035(5) 0.37461(15)
N8_7 N 0.93881(17) 0.0268(5) 0.44087(14)
C8_5 C 0.9980(3) 0.6879(6) 0.4179(2)
H5_5 H 0.9964 0.6166 0.4287
C9_5 C 0.9597(3) 0.7632(6) 0.4149(2)
H6_5 H 0.9268 0.7486 0.4234
C15_5 C 0.9490(3) 0.8416(6) 0.3156(2)
H11_5 H 0.9667 0.7894 0.3309
C16_5 C 0.9416(3) 0.8364(9) 0.2732(3)
H12_5 H 0.9535 0.7809 0.2560
C17_5 C 0.9147(3) 0.9241(8) 0.2620(2)
H13_5 H 0.9040 0.9413 0.2357
C18_5 C 0.9054(3) 0.9869(7) 0.29817(19)
H20_5 H 0.8104 0.9965 0.2545
C29_5 C 0.8420(3) 0.8462(8) 0.3736(2)
H21_5 H 0.8457 0.8460 0.3454
C30_5 C 0.8067(3) 0.7936(9) 0.3933(3)
H22_5 H 0.7806 0.7546 0.3808
C31_5 C 0.8123(3) 0.8022(8) 0.4331(3)
H23_5 H 0.7934 0.7687 0.4536
C32_5 C 0.8540(2) 0.8749(7) 0.4369(2)
C33_5 C 0.8749(2) 0.9171(6) 0.4726(2)
C34_5 C 0.9143(2) 0.9923(6) 0.47496(19)
C38_7 C 0.8531(2) 0.8780(7) 0.5102(2)
C39_7 C 0.8042(2) 0.9070(7) 0.5223(2)
H27_7 H 0.7851 0.9574 0.5072
C40_7 C 0.7857(2) 0.8613(7) 0.5556(2)
H28_7 H 0.7519 0.8748 0.5619
C41_7 C 0.8589(3) 0.7734(7) 0.5708(2)
H29_7 H 0.8779 0.7269 0.5875
C42_7 C 0.8805(2) 0.8146(6) 0.5368(2)
H30_7 H 0.9144 0.7997 0.5313
Fe1_5 Fe 0.93174(3) 0.98198(9) 0.38561(3)
N2_5 N 0.97398(18) 0.8606(5) 0.39857(15)
N4_5 N 0.9277(2) 0.9293(5) 0.33006(16)
N7_5 N 0.87178(19) 0.8999(6) 0.39923(17)
N9_4 N 0.8124(2) 0.7963(5) 0.58125(18)
B1_5 B 0.8322(8) 0.4804(15) 0.6268(8)
C1_8 C 0.4898(3) 0.3313(6) 0.6443(2)
H1_8 H 0.4613 0.2861 0.6450
C2_5 C 0.5365(3) 0.2975(8) 0.6565(3)
H2_5 H 0.5457 0.2274 0.6658
C3_5 C 0.5663(3) 0.3857(7) 0.6523(2)
H3_5 H 0.6003 0.3901 0.6595
C4_5 C 0.5385(2) 0.4664(6) 0.63600(18)
C5_8 C 0.5544(2) 0.5759(6) 0.6260(2)
C6_8 C 0.5235(2) 0.6535(6) 0.60914(18)
C7_8 C 0.5385(3) 0.7608(6) 0.5981(2)
H4_8 H 0.5707 0.7910 0.6013
C8_6 C 0.4980(3) 0.8121(6) 0.5821(2)
H5_6 H 0.4964 0.8834 0.5713
C9_6 C 0.4597(3) 0.7368(6) 0.5851(2)
H6_6 H 0.4268 0.7514 0.5766
C10_8 C 0.6066(3) 0.6002(7) 0.63341(18)
C11_8 C 0.6442(2) 0.5517(7) 0.6115(2)
H7_5 H 0.6367 0.4962 0.5927
C12_8 C 0.6923(2) 0.5845(6) 0.6172(2)
H8_8 H 0.7178 0.5513 0.6019
C13_8 C 0.6703(2) 0.7043(6) 0.66545(19)
H9_8 H 0.6795 0.7549 0.6856
C14_8 C 0.6191(2) 0.6800(7) 0.6611(2)
H10_8 H 0.5945 0.7164 0.6764
C15_6 C 0.4490(3) 0.6584(6) 0.6844(2)
H11_6 H 0.4667 0.7106 0.6691
C16_6 C 0.4416(3) 0.6636(9) 0.7268(3)
H12_6 H 0.4535 0.7191 0.7440
C17_6 C 0.4147(3) 0.5759(8) 0.7380(2)
H13_6 H 0.4040 0.5587 0.7643
C18_6 C 0.4054(3) 0.5131(7) 0.70183(19)
C19_8 C 0.3788(3) 0.4214(8) 0.6982(2)
C20_8 C 0.3690(3) 0.3636(8) 0.6617(2)
C21_8 C 0.3364(3) 0.2787(7) 0.6574(3)
H14_8 H 0.3165 0.2466 0.6776
C22_8 C 0.3385(3) 0.2493(7) 0.6169(3)
H15_8 H 0.3221 0.1901 0.6043
C23_8 C 0.3691(3) 0.3241(7) 0.5996(2)
H16_8 H 0.3763 0.3249 0.5718
C24_8 C 0.3563(3) 0.3761(7) 0.7358(2)
C25_8 C 0.3684(4) 0.2791(7) 0.7502(3)
H17_8 H 0.3921 0.2351 0.7368
C26_8 C 0.3460(5) 0.2429(7) 0.7848(3)
H18_8 H 0.3555 0.1739 0.7950
C27_8 C 0.2999(4) 0.3957(9) 0.7895(2)
H19_8 H 0.2758 0.4384 0.8031
C28_8 C 0.3206(4) 0.4350(9) 0.7556(2)
H20_6 H 0.3104 0.5035 0.7455
C29_6 C 0.3420(3) 0.6538(8) 0.6264(2)
H21_6 H 0.3457 0.6540 0.6546
C30_6 C 0.3067(3) 0.7064(9) 0.6067(3)
H22_6 H 0.2806 0.7454 0.6192
C31_6 C 0.3123(3) 0.6978(8) 0.5669(3)
H23_6 H 0.2934 0.7313 0.5464
C32_6 C 0.3540(2) 0.6251(7) 0.5631(2)
C33_6 C 0.3749(2) 0.5829(6) 0.5274(2)
C34_6 C 0.4143(2) 0.5077(6) 0.52504(19)
C35_6 C 0.4316(2) 0.4507(6) 0.49122(19)
H24_6 H 0.4204 0.4598 0.4645
C36_8 C 0.4670(2) 0.3807(6) 0.50370(18)
H25_6 H 0.4855 0.3316 0.4876
C37_8 C 0.4710(2) 0.3952(5) 0.54517(18)
H26_8 H 0.4933 0.3557 0.5617
C38_8 C 0.3531(2) 0.6220(7) 0.4898(2)
C39_8 C 0.3042(2) 0.5930(7) 0.4777(2)
H27_8 H 0.2851 0.5426 0.4928
C40_8 C 0.2857(2) 0.6387(7) 0.4444(2)
H28_8 H 0.2519 0.6252 0.4381
C41_8 C 0.3589(3) 0.7266(7) 0.4292(2)
H29_8 H 0.3779 0.7731 0.4125
C42_8 C 0.3805(2) 0.6854(6) 0.4632(2)
H30_8 H 0.4144 0.7003 0.4687
F1_5 F 0.7902(3) 0.4489(7) 0.6449(3)
F2_8 F 0.8507(3) 0.5866(6) 0.6356(3)
F3_5 F 0.8542(5) 0.4010(8) 0.6131(4)
F4_5 F 0.8608(9) 0.4468(15) 0.6637(7)
Fe1_6 Fe 0.43174(3) 0.51802(9) 0.61439(3)
N1_8 N 0.48913(19) 0.4316(5) 0.63181(16)
N2_6 N 0.47398(18) 0.6394(5) 0.60143(15)
N3_8 N 0.70495(18) 0.6629(4) 0.64416(15)
N4_6 N 0.4277(2) 0.5707(5) 0.66994(16)
N5_8 N 0.38805(18) 0.3965(5) 0.62539(15)
N7_6 N 0.37178(19) 0.6001(6) 0.60077(17)
N8_8 N 0.43881(17) 0.4732(5) 0.55913(14)
B1_6 B 0.3322(8) 0.9804(15) 0.8732(8)
C2_6 C 0.0365(3) 0.7975(8) 0.8435(3)
H2_6 H 0.0457 0.7274 0.8342
C3_6 C 0.0663(3) 0.8857(7) 0.8477(2)
H3_6 H 0.1003 0.8901 0.8405
C4_6 C 0.0385(2) 0.9664(6) 0.86400(18)
H7_6 H 0.1367 0.9962 0.9073
F1_6 F 0.2902(3) 0.9489(7) 0.8551(3)
F3_6 F 0.3542(5) 0.9010(8) 0.8869(4)
F4_6 F 0.3608(9) 0.9468(15) 0.8363(7)
C8_7 C 0.9980(3) 0.3121(6) 0.9179(2)
H5_7 H 0.9964 0.3834 0.9287
C9_7 C 0.9597(3) 0.2368(6) 0.9149(2)
H6_7 H 0.9268 0.2514 0.9234
C15_7 C 0.9490(3) 0.1584(6) 0.8156(2)
H11_7 H 0.9667 0.2106 0.8309
C16_7 C 0.9416(3) 0.1636(9) 0.7732(3)
H12_7 H 0.9535 0.2191 0.7560
C17_7 C 0.9147(3) 0.0759(8) 0.7620(2)
H13_7 H 0.9040 0.0587 0.7357
C18_7 C 0.9054(3) 0.0131(7) 0.79817(19)
H20_7 H 0.8104 0.0035 0.7545
C29_7 C 0.8420(3) 0.1538(8) 0.8736(2)
H21_7 H 0.8457 0.1540 0.8454
C30_7 C 0.8067(3) 0.2064(9) 0.8933(3)
H22_7 H 0.7806 0.2454 0.8808
C31_7 C 0.8123(3) 0.1978(8) 0.9331(3)
H23_7 H 0.7934 0.2313 0.9536
C32_7 C 0.8540(2) 0.1251(7) 0.9369(2)
C33_7 C 0.8749(2) 0.0829(6) 0.9726(2)
C34_7 C 0.9143(2) 0.0077(6) 0.97496(19)
Fe1_7 Fe 0.93174(3) 0.01802(9) 0.88561(3)
N2_7 N 0.97398(18) 0.1394(5) 0.89857(15)
N4_7 N 0.9277(2) 0.0707(5) 0.83006(16)
N7_7 N 0.87178(19) 0.1001(6) 0.89923(17)
C35_7 C 0.9316(2) 0.9507(6) 0.00878(19)
H24_7 H 0.9204 0.9598 0.0355
H25_7 H 0.9855 0.8316 0.0124
B1_7 B 0.3322(8) 0.0196(15) 0.3732(8)
C2_7 C 0.0365(3) 0.2025(8) 0.3435(3)
H2_7 H 0.0457 0.2726 0.3342
C3_7 C 0.0663(3) 0.1143(7) 0.3477(2)
H3_7 H 0.1003 0.1099 0.3405
C4_7 C 0.0385(2) 0.0336(6) 0.36400(18)
H7_7 H 0.1367 0.0038 0.4073
F1_7 F 0.2902(3) 0.0511(7) 0.3551(3)
F3_7 F 0.3542(5) 0.0990(8) 0.3869(4)
F4_7 F 0.3608(9) 0.0532(15) 0.3363(7)
C35_8 C 0.0684(2) 0.0493(6) 0.99122(19)
H24_8 H 0.0796 0.0402 0.9645
H25_8 H 0.0145 0.1684 0.9876
C8_8 C 0.0020(3) 0.6879(6) 0.0821(2)
H5_8 H 0.0036 0.6166 0.0713
C9_8 C 0.0403(3) 0.7632(6) 0.0851(2)
H6_8 H 0.0732 0.7486 0.0766
C15_8 C 0.0510(3) 0.8416(6) 0.1844(2)
H11_8 H 0.0333 0.7894 0.1691
C16_8 C 0.0584(3) 0.8364(9) 0.2268(3)
H12_8 H 0.0465 0.7809 0.2440
C17_8 C 0.0853(3) 0.9241(8) 0.2380(2)
H13_8 H 0.0960 0.9413 0.2643
C18_8 C 0.0946(3) 0.9869(7) 0.20183(19)
H20_8 H 0.1896 0.9965 0.2455
C29_8 C 0.1580(3) 0.8462(8) 0.1264(2)
H21_8 H 0.1543 0.8460 0.1546
C30_8 C 0.1933(3) 0.7936(9) 0.1067(3)
H22_8 H 0.2194 0.7546 0.1192
C31_8 C 0.1877(3) 0.8022(8) 0.0669(3)
H23_8 H 0.2066 0.7687 0.0464
C32_8 C 0.1460(2) 0.8749(7) 0.0631(2)
C33_8 C 0.1251(2) 0.9171(6) 0.0274(2)
C34_8 C 0.0857(2) 0.9923(6) 0.02504(19)
Fe1_8 Fe 0.06826(3) 0.98198(9) 0.11439(3)
N2_8 N 0.02602(18) 0.8606(5) 0.10143(15)
N4_8 N 0.0723(2) 0.9293(5) 0.16994(16)
N7_8 N 0.12822(19) 0.8999(6) 0.10077(17)
B1_8 B 0.6678(8) 0.0196(15) 0.1268(8)
C2_8 C 0.9635(3) 0.2025(8) 0.1565(3)
H2_8 H 0.9543 0.2726 0.1658
C3_8 C 0.9337(3) 0.1143(7) 0.1523(2)
H3_8 H 0.8997 0.1099 0.1595
C4_8 C 0.9615(2) 0.0336(6) 0.13600(18)
H7_8 H 0.8633 0.0038 0.0927
F1_8 F 0.7098(3) 0.0511(7) 0.1449(3)
F3_8 F 0.6458(5) 0.0990(8) 0.1131(4)
F4_8 F 0.6392(9) 0.0532(15) 0.1637(7)
loop_
_geom_bond_atom_site_label_1
_geom_bond_atom_site_label_2
_geom_bond_site_symmetry_1
_geom_bond_site_symmetry_2
H5 C8 1_555 1_555
C9 C8 1_555 1_555
H6 C9 1_555 1_555
C15 H11 1_555 1_555
C16 C15 1_555 1_555
H12 C16 1_555 1_555
C17 C16 1_555 1_555
H13 C17 1_555 1_555
C18 C17 1_555 1_555
C29 H21 1_555 1_555
C30 C29 1_555 1_555
H22 C30 1_555 1_555
C31 C30 1_555 1_555
H23 C31 1_555 1_555
C32 C31 1_555 1_555
C33 C32 1_555 1_555
C34 C33 1_555 1_555
C38 C33 1_555 1_555
C39 C38 1_555 1_555
H27 C39 1_555 1_555
C40 C39 1_555 1_555
H28 C40 1_555 1_555
C41 H29 1_555 1_555
C42 C38 1_555 1_555
H30 C42 1_555 1_555
N4 C15 1_555 1_555
N7 C29 1_555 1_555
N9 C40 1_555 1_555
Ag2 N9 1_555 1_555
C9 N2 1_555 1_555
C18 N4 1_555 1_555
C32 N7 1_555 1_555
C41 C42 1_555 1_555
C41 N9 1_555 1_555
Fe1 N2 1_555 1_555
Fe1 N4 1_555 1_555
Fe1 N7 1_555 1_555
C1 H1 1_555 1_555
C20 C19 1_555 1_555
C21 C20 1_555 1_555
H14 C21 1_555 1_555
C22 C21 1_555 1_555
H15 C22 1_555 1_555
C23 C22 1_555 1_555
H16 C23 1_555 1_555
C24 C19 1_555 1_555
C25 C24 1_555 1_555
H17 C25 1_555 1_555
C26 C25 1_555 1_555
H18 C26 1_555 1_555
C27 H19 1_555 1_555
C28 C24 1_555 1_555
H24 C35 1_555 1_555
C36 C35 1_555 1_555
H25 C36 1_555 1_555
C37 C36 1_555 1_555
H26 C37 1_555 1_555
N1 C1 1_555 1_555
N5 C20 1_555 1_555
N6 C26 1_555 1_555
Ag3 N6 1_555 1_555
C23 N5 1_555 1_555
C27 C28 1_555 1_555
C27 N6 1_555 1_555
C37 N8 1_555 1_555
Ag1 F2 1_555 1_555
C6 C5 1_555 1_555
C7 C6 1_555 1_555
H4 C7 1_555 1_555
C10 C5 1_555 1_555
C11 C10 1_555 1_555
C12 C11 1_555 1_555
H8 C12 1_555 1_555
C13 H9 1_555 1_555
C14 C10 1_555 1_555
H10 C14 1_555 1_555
N3 Ag1 1_555 1_555
N10 Ag1 1_555 1_555
N11 Ag1 1_555 1_555
C12 N3 1_555 1_555
C13 C14 1_555 1_555
C13 N3 1_555 1_555
Ag2 F2_2 1_555 1_555
B1 F1 1_555 1_555
C1_2 H1_2 1_555 1_555
C2 C1_2 1_555 1_555
H2 C2 1_555 1_555
C3 C2 1_555 1_555
H3 C3 1_555 1_555
C4 C3 1_555 1_555
C5_2 C4 1_555 1_555
C6_2 C5_2 1_555 1_555
C7_2 C6_2 1_555 1_555
H4_2 C7_2 1_555 1_555
C8_2 C7_2 1_555 1_555
H5_2 C8_2 1_555 1_555
C9_2 C8_2 1_555 1_555
H6_2 C9_2 1_555 1_555
C10_2 C5_2 1_555 1_555
C11_2 C10_2 1_555 1_555
H7 C11_2 1_555 1_555
C12_2 C11_2 1_555 1_555
H8_2 C12_2 1_555 1_555
C13_2 H9_2 1_555 1_555
C14_2 C10_2 1_555 1_555
H10_2 C14_2 1_555 1_555
C15_2 H11_2 1_555 1_555
C16_2 C15_2 1_555 1_555
H12_2 C16_2 1_555 1_555
C17_2 C16_2 1_555 1_555
H13_2 C17_2 1_555 1_555
C18_2 C17_2 1_555 1_555
C19_2 C18_2 1_555 1_555
C20_2 C19_2 1_555 1_555
C21_2 C20_2 1_555 1_555
H14_2 C21_2 1_555 1_555
C22_2 C21_2 1_555 1_555
H15_2 C22_2 1_555 1_555
C23_2 C22_2 1_555 1_555
H16_2 C23_2 1_555 1_555
C24_2 C19_2 1_555 1_555
C25_2 C24_2 1_555 1_555
H17_2 C25_2 1_555 1_555
C26_2 C25_2 1_555 1_555
H18_2 C26_2 1_555 1_555
C27_2 H19_2 1_555 1_555
C28_2 C24_2 1_555 1_555
H20_2 C28_2 1_555 1_555
C29_2 H21_2 1_555 1_555
C30_2 C29_2 1_555 1_555
H22_2 C30_2 1_555 1_555
C31_2 C30_2 1_555 1_555
H23_2 C31_2 1_555 1_555
C32_2 C31_2 1_555 1_555
C33_2 C32_2 1_555 1_555
C34_2 C33_2 1_555 1_555
C35_2 C34_2 1_555 1_555
H24_2 C35_2 1_555 1_555
C36_2 C35_2 1_555 1_555
H25_2 C36_2 1_555 1_555
C37_2 C36_2 1_555 1_555
H26_2 C37_2 1_555 1_555
C38_2 C33_2 1_555 1_555
C39_2 C38_2 1_555 1_555
H27_2 C39_2 1_555 1_555
C40_2 C39_2 1_555 1_555
H28_2 C40_2 1_555 1_555
C41_2 H29_2 1_555 1_555
C42_2 C38_2 1_555 1_555
H30_2 C42_2 1_555 1_555
F2_2 B1 1_555 1_555
F3 B1 1_555 1_555
F4 B1 1_555 1_555
Fe1_2 N1_2 1_555 1_555
N1_2 C1_2 1_555 1_555
N2_2 C6_2 1_555 1_555
N3_2 Ag2 1_555 1_555
N4_2 C15_2 1_555 1_555
N5_2 C20_2 1_555 1_555
N6_2 C26_2 1_555 1_555
N7_2 C29_2 1_555 1_555
N8_2 C34_2 1_555 1_555
N11 C40_2 1_555 1_555
Ag3_2 N6_2 1_555 1_555
N10_2 Ag2 1_555 1_555
C4 N1_2 1_555 1_555
C9_2 N2_2 1_555 1_555
C12_2 N3_2 1_555 1_555
C13_2 C14_2 1_555 1_555
C13_2 N3_2 1_555 1_555
C18_2 N4_2 1_555 1_555
C23_2 N5_2 1_555 1_555
C27_2 C28_2 1_555 1_555
C27_2 N6_2 1_555 1_555
C32_2 N7_2 1_555 1_555
C37_2 N8_2 1_555 1_555
C41_2 C42_2 1_555 1_555
C41_2 N11 1_555 1_555
Fe1_2 N2_2 1_555 1_555
Fe1_2 N4_2 1_555 1_555
Fe1_2 N5_2 1_555 1_555
Fe1_2 N7_2 1_555 1_555
Fe1_2 N8_2 1_555 1_555
H24_3 C35_3 1_555 1_555
C39_3 C38_3 1_555 1_555
H27_3 C39_3 1_555 1_555
C40_3 C39_3 1_555 1_555
H28_3 C40_3 1_555 1_555
C41_3 H29_3 1_555 1_555
C42_3 C38_3 1_555 1_555
H30_3 C42_3 1_555 1_555
N9_2 C40_3 1_555 1_555
Ag3_2 N9_2 1_555 1_555
C41_3 C42_3 1_555 1_555
C41_3 N9_2 1_555 1_555
Ag3 F2_3 1_555 1_555
B1_2 F1_2 1_555 1_555
C1_3 H1_3 1_555 1_555
C2_2 C1_3 1_555 1_555
H2_2 C2_2 1_555 1_555
C3_2 C2_2 1_555 1_555
H3_2 C3_2 1_555 1_555
C4_2 C3_2 1_555 1_555
C5_3 C4_2 1_555 1_555
C6_3 C5_3 1_555 1_555
C7_3 C6_3 1_555 1_555
H4_3 C7_3 1_555 1_555
C8_3 C7_3 1_555 1_555
H5_3 C8_3 1_555 1_555
C9_3 C8_3 1_555 1_555
H6_3 C9_3 1_555 1_555
C10_3 C5_3 1_555 1_555
C11_3 C10_3 1_555 1_555
H7_2 C11_3 1_555 1_555
C12_3 C11_3 1_555 1_555
H8_3 C12_3 1_555 1_555
C13_3 H9_3 1_555 1_555
C14_3 C10_3 1_555 1_555
H10_3 C14_3 1_555 1_555
C15_3 H11_3 1_555 1_555
C16_3 C15_3 1_555 1_555
H12_3 C16_3 1_555 1_555
C17_3 C16_3 1_555 1_555
H13_3 C17_3 1_555 1_555
C18_3 C17_3 1_555 1_555
C19_3 C18_3 1_555 1_555
C20_3 C19_3 1_555 1_555
C21_3 C20_3 1_555 1_555
H14_3 C21_3 1_555 1_555
C22_3 C21_3 1_555 1_555
H15_3 C22_3 1_555 1_555
C23_3 C22_3 1_555 1_555
H16_3 C23_3 1_555 1_555
C24_3 C19_3 1_555 1_555
C25_3 C24_3 1_555 1_555
H17_3 C25_3 1_555 1_555
C26_3 C25_3 1_555 1_555
H18_3 C26_3 1_555 1_555
C27_3 H19_3 1_555 1_555
C28_3 C24_3 1_555 1_555
H20_3 C28_3 1_555 1_555
C29_3 H21_3 1_555 1_555
C30_3 C29_3 1_555 1_555
H22_3 C30_3 1_555 1_555
C31_3 C30_3 1_555 1_555
H23_3 C31_3 1_555 1_555
C32_3 C31_3 1_555 1_555
C33_3 C32_3 1_555 1_555
C34_3 C33_3 1_555 1_555
C37_3 C36_3 1_555 1_555
H26_3 C37_3 1_555 1_555
F2_3 B1_2 1_555 1_555
F3_2 B1_2 1_555 1_555
F4_2 B1_2 1_555 1_555
Fe1_3 N1_3 1_555 1_555
N1_3 C1_3 1_555 1_555
N2_3 C6_3 1_555 1_555
N3_3 Ag3 1_555 1_555
N4_3 C15_3 1_555 1_555
N5_3 C20_3 1_555 1_555
N10 C26_3 1_555 1_555
N7_3 C29_3 1_555 1_555
N8_3 C34_3 1_555 1_555
N11_2 Ag3 1_555 1_555
C4_2 N1_3 1_555 1_555
C9_3 N2_3 1_555 1_555
C12_3 N3_3 1_555 1_555
C13_3 C14_3 1_555 1_555
C13_3 N3_3 1_555 1_555
C18_3 N4_3 1_555 1_555
C23_3 N5_3 1_555 1_555
C27_3 C28_3 1_555 1_555
C27_3 N10 1_555 1_555
C32_3 N7_3 1_555 1_555
C37_3 N8_3 1_555 1_555
Fe1_3 N2_3 1_555 1_555
Fe1_3 N4_3 1_555 1_555
Fe1_3 N5_3 1_555 1_555
Fe1_3 N7_3 1_555 1_555
Fe1_3 N8_3 1_555 1_555
C1_4 H1_4 1_555 1_555
C20_4 C19_4 1_555 1_555
C21_4 C20_4 1_555 1_555
H14_4 C21_4 1_555 1_555
C22_4 C21_4 1_555 1_555
H15_4 C22_4 1_555 1_555
C23_4 C22_4 1_555 1_555
H16_4 C23_4 1_555 1_555
C24_4 C19_4 1_555 1_555
C25_4 C24_4 1_555 1_555
H17_4 C25_4 1_555 1_555
C26_4 C25_4 1_555 1_555
H18_4 C26_4 1_555 1_555
C27_4 H19_4 1_555 1_555
C28_4 C24_4 1_555 1_555
C37_4 C36_4 1_555 1_555
H26_4 C37_4 1_555 1_555
N1_4 C1_4 1_555 1_555
N5_4 C20_4 1_555 1_555
N10_2 C26_4 1_555 1_555
C23_4 N5_4 1_555 1_555
C27_4 C28_4 1_555 1_555
C27_4 N10_2 1_555 1_555
C37_4 N8_4 1_555 1_555
C39_4 C38_4 1_555 1_555
H27_4 C39_4 1_555 1_555
C40_4 C39_4 1_555 1_555
H28_4 C40_4 1_555 1_555
C41_4 H29_4 1_555 1_555
C42_4 C38_4 1_555 1_555
H30_4 C42_4 1_555 1_555
N11_2 C40_4 1_555 1_555
C41_4 C42_4 1_555 1_555
C41_4 N11_2 1_555 1_555
Ag3_2 F2_4 1_555 1_555
C6_4 C5_4 1_555 1_555
C7_4 C6_4 1_555 1_555
H4_4 C7_4 1_555 1_555
C10_4 C5_4 1_555 1_555
C11_4 C10_4 1_555 1_555
C12_4 C11_4 1_555 1_555
H8_4 C12_4 1_555 1_555
C13_4 H9_4 1_555 1_555
C14_4 C10_4 1_555 1_555
H10_4 C14_4 1_555 1_555
N3_4 Ag3_2 1_555 1_555
C12_4 N3_4 1_555 1_555
C13_4 C14_4 1_555 1_555
C13_4 N3_4 1_555 1_555
B1_3 F1_3 1_555 1_555
H2_3 C2_3 1_555 1_555
C3_3 C2_3 1_555 1_555
H3_3 C3_3 1_555 1_555
C4_3 C3_3 1_555 1_555
F3_3 B1_3 1_555 1_555
F4_3 B1_3 1_555 1_555
Ag1_2 F2_5 1_555 1_555
B1_4 F1_4 1_555 1_555
C1_5 H1_5 1_555 1_555
C2_4 C1_5 1_555 1_555
H2_4 C2_4 1_555 1_555
C3_4 C2_4 1_555 1_555
H3_4 C3_4 1_555 1_555
C4_4 C3_4 1_555 1_555
C5_5 C4_4 1_555 1_555
C6_5 C5_5 1_555 1_555
C7_5 C6_5 1_555 1_555
H4_5 C7_5 1_555 1_555
C8_4 C7_5 1_555 1_555
H5_4 C8_4 1_555 1_555
C9_4 C8_4 1_555 1_555
H6_4 C9_4 1_555 1_555
C10_5 C5_5 1_555 1_555
C11_5 C10_5 1_555 1_555
H7_4 C11_5 1_555 1_555
C12_5 C11_5 1_555 1_555
H8_5 C12_5 1_555 1_555
C13_5 H9_5 1_555 1_555
C14_5 C10_5 1_555 1_555
H10_5 C14_5 1_555 1_555
C15_4 H11_4 1_555 1_555
C16_4 C15_4 1_555 1_555
H12_4 C16_4 1_555 1_555
C17_4 C16_4 1_555 1_555
H13_4 C17_4 1_555 1_555
C18_4 C17_4 1_555 1_555
C19_5 C18_4 1_555 1_555
C20_5 C19_5 1_555 1_555
C21_5 C20_5 1_555 1_555
H14_5 C21_5 1_555 1_555
C22_5 C21_5 1_555 1_555
H15_5 C22_5 1_555 1_555
C23_5 C22_5 1_555 1_555
H16_5 C23_5 1_555 1_555
C24_5 C19_5 1_555 1_555
C25_5 C24_5 1_555 1_555
H17_5 C25_5 1_555 1_555
C26_5 C25_5 1_555 1_555
H18_5 C26_5 1_555 1_555
C27_5 H19_5 1_555 1_555
C28_5 C24_5 1_555 1_555
H20_4 C28_5 1_555 1_555
C29_4 H21_4 1_555 1_555
C30_4 C29_4 1_555 1_555
H22_4 C30_4 1_555 1_555
C31_4 C30_4 1_555 1_555
H23_4 C31_4 1_555 1_555
C32_4 C31_4 1_555 1_555
C33_4 C32_4 1_555 1_555
C34_4 C33_4 1_555 1_555
C37_5 C36_5 1_555 1_555
H26_5 C37_5 1_555 1_555
F2_5 B1_4 1_555 1_555
F3_4 B1_4 1_555 1_555
F4_4 B1_4 1_555 1_555
Fe1_4 N1_5 1_555 1_555
N1_5 C1_5 1_555 1_555
N2_4 C6_5 1_555 1_555
N3_5 Ag1_2 1_555 1_555
N4_4 C15_4 1_555 1_555
N5_5 C20_5 1_555 1_555
N6_3 C26_5 1_555 1_555
N7_4 C29_4 1_555 1_555
N8_5 C34_4 1_555 1_555
Ag3_3 N6_3 1_555 1_555
N10_3 Ag1_2 1_555 1_555
N11_3 Ag1_2 1_555 1_555
C4_4 N1_5 1_555 1_555
C9_4 N2_4 1_555 1_555
C12_5 N3_5 1_555 1_555
C13_5 C14_5 1_555 1_555
C13_5 N3_5 1_555 1_555
C18_4 N4_4 1_555 1_555
C23_5 N5_5 1_555 1_555
C27_5 C28_5 1_555 1_555
C27_5 N6_3 1_555 1_555
C32_4 N7_4 1_555 1_555
C37_5 N8_5 1_555 1_555
Fe1_4 N2_4 1_555 1_555
Fe1_4 N4_4 1_555 1_555
Fe1_4 N5_5 1_555 1_555
Fe1_4 N7_4 1_555 1_555
Fe1_4 N8_5 1_555 1_555
H24_4 C35_4 1_555 1_555
C39_5 C38_5 1_555 1_555
H27_5 C39_5 1_555 1_555
C40_5 C39_5 1_555 1_555
H28_5 C40_5 1_555 1_555
C41_5 H29_5 1_555 1_555
C42_5 C38_5 1_555 1_555
H30_5 C42_5 1_555 1_555
N9_3 C40_5 1_555 1_555
Ag2_2 N9_3 1_555 1_555
C41_5 C42_5 1_555 1_555
C41_5 N9_3 1_555 1_555
Ag2_2 F2_6 1_555 1_555
C6_6 C5_6 1_555 1_555
C7_6 C6_6 1_555 1_555
H4_6 C7_6 1_555 1_555
C10_6 C5_6 1_555 1_555
C11_6 C10_6 1_555 1_555
C12_6 C11_6 1_555 1_555
H8_6 C12_6 1_555 1_555
C13_6 H9_6 1_555 1_555
C14_6 C10_6 1_555 1_555
H10_6 C14_6 1_555 1_555
N3_6 Ag2_2 1_555 1_555
N10_4 Ag2_2 1_555 1_555
C12_6 N3_6 1_555 1_555
C13_6 C14_6 1_555 1_555
C13_6 N3_6 1_555 1_555
C39_6 C38_6 1_555 1_555
H27_6 C39_6 1_555 1_555
C40_6 C39_6 1_555 1_555
H28_6 C40_6 1_555 1_555
C41_6 H29_6 1_555 1_555
C42_6 C38_6 1_555 1_555
H30_6 C42_6 1_555 1_555
N11_3 C40_6 1_555 1_555
C41_6 C42_6 1_555 1_555
C41_6 N11_3 1_555 1_555
C1_6 H1_6 1_555 1_555
C20_6 C19_6 1_555 1_555
C21_6 C20_6 1_555 1_555
H14_6 C21_6 1_555 1_555
C22_6 C21_6 1_555 1_555
H15_6 C22_6 1_555 1_555
C23_6 C22_6 1_555 1_555
H16_6 C23_6 1_555 1_555
C24_6 C19_6 1_555 1_555
C25_6 C24_6 1_555 1_555
H17_6 C25_6 1_555 1_555
C26_6 C25_6 1_555 1_555
H18_6 C26_6 1_555 1_555
C27_6 H19_6 1_555 1_555
C28_6 C24_6 1_555 1_555
C37_6 C36_6 1_555 1_555
H26_6 C37_6 1_555 1_555
N1_6 C1_6 1_555 1_555
N5_6 C20_6 1_555 1_555
N6_4 C26_6 1_555 1_555
Ag3_4 N6_4 1_555 1_555
C23_6 N5_6 1_555 1_555
C27_6 C28_6 1_555 1_555
C27_6 N6_4 1_555 1_555
C37_6 N8_6 1_555 1_555
Ag3_3 F2_7 1_555 1_555
C6_7 C5_7 1_555 1_555
C7_7 C6_7 1_555 1_555
H4_7 C7_7 1_555 1_555
C10_7 C5_7 1_555 1_555
C11_7 C10_7 1_555 1_555
C12_7 C11_7 1_555 1_555
H8_7 C12_7 1_555 1_555
C13_7 H9_7 1_555 1_555
C14_7 C10_7 1_555 1_555
H10_7 C14_7 1_555 1_555
N3_7 Ag3_3 1_555 1_555
N11_4 Ag3_3 1_555 1_555
C12_7 N3_7 1_555 1_555
C13_7 C14_7 1_555 1_555
C13_7 N3_7 1_555 1_555
C1_7 H1_7 1_555 1_555
C20_7 C19_7 1_555 1_555
C21_7 C20_7 1_555 1_555
H14_7 C21_7 1_555 1_555
C22_7 C21_7 1_555 1_555
H15_7 C22_7 1_555 1_555
C23_7 C22_7 1_555 1_555
H16_7 C23_7 1_555 1_555
C24_7 C19_7 1_555 1_555
C25_7 C24_7 1_555 1_555
H17_7 C25_7 1_555 1_555
C26_7 C25_7 1_555 1_555
H18_7 C26_7 1_555 1_555
C27_7 H19_7 1_555 1_555
C28_7 C24_7 1_555 1_555
H24_5 C35_5 1_555 1_555
C36_7 C35_5 1_555 1_555
H25_5 C36_7 1_555 1_555
C37_7 C36_7 1_555 1_555
H26_7 C37_7 1_555 1_555
N1_7 C1_7 1_555 1_555
N5_7 C20_7 1_555 1_555
N10_3 C26_7 1_555 1_555
C23_7 N5_7 1_555 1_555
C27_7 C28_7 1_555 1_555
C27_7 N10_3 1_555 1_555
C37_7 N8_7 1_555 1_555
H5_5 C8_5 1_555 1_555
C9_5 C8_5 1_555 1_555
H6_5 C9_5 1_555 1_555
C15_5 H11_5 1_555 1_555
C16_5 C15_5 1_555 1_555
H12_5 C16_5 1_555 1_555
C17_5 C16_5 1_555 1_555
H13_5 C17_5 1_555 1_555
C18_5 C17_5 1_555 1_555
C29_5 H21_5 1_555 1_555
C30_5 C29_5 1_555 1_555
H22_5 C30_5 1_555 1_555
C31_5 C30_5 1_555 1_555
H23_5 C31_5 1_555 1_555
C32_5 C31_5 1_555 1_555
C33_5 C32_5 1_555 1_555
C34_5 C33_5 1_555 1_555
C38_7 C33_5 1_555 1_555
C39_7 C38_7 1_555 1_555
H27_7 C39_7 1_555 1_555
C40_7 C39_7 1_555 1_555
H28_7 C40_7 1_555 1_555
C41_7 H29_7 1_555 1_555
C42_7 C38_7 1_555 1_555
H30_7 C42_7 1_555 1_555
N4_5 C15_5 1_555 1_555
N7_5 C29_5 1_555 1_555
N9_4 C40_7 1_555 1_555
Ag3_4 N9_4 1_555 1_555
C9_5 N2_5 1_555 1_555
C18_5 N4_5 1_555 1_555
C32_5 N7_5 1_555 1_555
C41_7 C42_7 1_555 1_555
C41_7 N9_4 1_555 1_555
Fe1_5 N2_5 1_555 1_555
Fe1_5 N4_5 1_555 1_555
Fe1_5 N7_5 1_555 1_555
Ag3_4 F2_8 1_555 1_555
B1_5 F1_5 1_555 1_555
C1_8 H1_8 1_555 1_555
C2_5 C1_8 1_555 1_555
H2_5 C2_5 1_555 1_555
C3_5 C2_5 1_555 1_555
H3_5 C3_5 1_555 1_555
C4_5 C3_5 1_555 1_555
C5_8 C4_5 1_555 1_555
C6_8 C5_8 1_555 1_555
C7_8 C6_8 1_555 1_555
H4_8 C7_8 1_555 1_555
C8_6 C7_8 1_555 1_555
H5_6 C8_6 1_555 1_555
C9_6 C8_6 1_555 1_555
H6_6 C9_6 1_555 1_555
C10_8 C5_8 1_555 1_555
C11_8 C10_8 1_555 1_555
H7_5 C11_8 1_555 1_555
C12_8 C11_8 1_555 1_555
H8_8 C12_8 1_555 1_555
C13_8 H9_8 1_555 1_555
C14_8 C10_8 1_555 1_555
H10_8 C14_8 1_555 1_555
C15_6 H11_6 1_555 1_555
C16_6 C15_6 1_555 1_555
H12_6 C16_6 1_555 1_555
C17_6 C16_6 1_555 1_555
H13_6 C17_6 1_555 1_555
C18_6 C17_6 1_555 1_555
C19_8 C18_6 1_555 1_555
C20_8 C19_8 1_555 1_555
C21_8 C20_8 1_555 1_555
H14_8 C21_8 1_555 1_555
C22_8 C21_8 1_555 1_555
H15_8 C22_8 1_555 1_555
C23_8 C22_8 1_555 1_555
H16_8 C23_8 1_555 1_555
C24_8 C19_8 1_555 1_555
C25_8 C24_8 1_555 1_555
H17_8 C25_8 1_555 1_555
C26_8 C25_8 1_555 1_555
H18_8 C26_8 1_555 1_555
C27_8 H19_8 1_555 1_555
C28_8 C24_8 1_555 1_555
H20_6 C28_8 1_555 1_555
C29_6 H21_6 1_555 1_555
C30_6 C29_6 1_555 1_555
H22_6 C30_6 1_555 1_555
C31_6 C30_6 1_555 1_555
H23_6 C31_6 1_555 1_555
C32_6 C31_6 1_555 1_555
C33_6 C32_6 1_555 1_555
C34_6 C33_6 1_555 1_555
C35_6 C34_6 1_555 1_555
H24_6 C35_6 1_555 1_555
C36_8 C35_6 1_555 1_555
H25_6 C36_8 1_555 1_555
C37_8 C36_8 1_555 1_555
H26_8 C37_8 1_555 1_555
C38_8 C33_6 1_555 1_555
C39_8 C38_8 1_555 1_555
H27_8 C39_8 1_555 1_555
C40_8 C39_8 1_555 1_555
H28_8 C40_8 1_555 1_555
C41_8 H29_8 1_555 1_555
C42_8 C38_8 1_555 1_555
H30_8 C42_8 1_555 1_555
F2_8 B1_5 1_555 1_555
F3_5 B1_5 1_555 1_555
F4_5 B1_5 1_555 1_555
Fe1_6 N1_8 1_555 1_555
N1_8 C1_8 1_555 1_555
N2_6 C6_8 1_555 1_555
N3_8 Ag3_4 1_555 1_555
N4_6 C15_6 1_555 1_555
N5_8 C20_8 1_555 1_555
N10_4 C26_8 1_555 1_555
N7_6 C29_6 1_555 1_555
N8_8 C34_6 1_555 1_555
N11_4 C40_8 1_555 1_555
C4_5 N1_8 1_555 1_555
C9_6 N2_6 1_555 1_555
C12_8 N3_8 1_555 1_555
C13_8 C14_8 1_555 1_555
C13_8 N3_8 1_555 1_555
C18_6 N4_6 1_555 1_555
C23_8 N5_8 1_555 1_555
C27_8 C28_8 1_555 1_555
C27_8 N10_4 1_555 1_555
C32_6 N7_6 1_555 1_555
C37_8 N8_8 1_555 1_555
C41_8 C42_8 1_555 1_555
C41_8 N11_4 1_555 1_555
Fe1_6 N2_6 1_555 1_555
Fe1_6 N4_6 1_555 1_555
Fe1_6 N5_8 1_555 1_555
Fe1_6 N7_6 1_555 1_555
Fe1_6 N8_8 1_555 1_555
B1_6 F1_6 1_555 1_555
H2_6 C2_6 1_555 1_555
C3_6 C2_6 1_555 1_555
H3_6 C3_6 1_555 1_555
C4_6 C3_6 1_555 1_555
F3_6 B1_6 1_555 1_555
F4_6 B1_6 1_555 1_555
H5_7 C8_7 1_555 1_555
C9_7 C8_7 1_555 1_555
H6_7 C9_7 1_555 1_555
C15_7 H11_7 1_555 1_555
C16_7 C15_7 1_555 1_555
H12_7 C16_7 1_555 1_555
C17_7 C16_7 1_555 1_555
H13_7 C17_7 1_555 1_555
C18_7 C17_7 1_555 1_555
C29_7 H21_7 1_555 1_555
C30_7 C29_7 1_555 1_555
H22_7 C30_7 1_555 1_555
C31_7 C30_7 1_555 1_555
H23_7 C31_7 1_555 1_555
C32_7 C31_7 1_555 1_555
C33_7 C32_7 1_555 1_555
C34_7 C33_7 1_555 1_555
N4_7 C15_7 1_555 1_555
N7_7 C29_7 1_555 1_555
C9_7 N2_7 1_555 1_555
C18_7 N4_7 1_555 1_555
C32_7 N7_7 1_555 1_555
Fe1_7 N2_7 1_555 1_555
Fe1_7 N4_7 1_555 1_555
Fe1_7 N7_7 1_555 1_555
H24_7 C35_7 1_555 1_555
B1_7 F1_7 1_555 1_555
H2_7 C2_7 1_555 1_555
C3_7 C2_7 1_555 1_555
H3_7 C3_7 1_555 1_555
C4_7 C3_7 1_555 1_555
F3_7 B1_7 1_555 1_555
F4_7 B1_7 1_555 1_555
H24_8 C35_8 1_555 1_555
H5_8 C8_8 1_555 1_555
C9_8 C8_8 1_555 1_555
H6_8 C9_8 1_555 1_555
C15_8 H11_8 1_555 1_555
C16_8 C15_8 1_555 1_555
H12_8 C16_8 1_555 1_555
C17_8 C16_8 1_555 1_555
H13_8 C17_8 1_555 1_555
C18_8 C17_8 1_555 1_555
C29_8 H21_8 1_555 1_555
C30_8 C29_8 1_555 1_555
H22_8 C30_8 1_555 1_555
C31_8 C30_8 1_555 1_555
H23_8 C31_8 1_555 1_555
C32_8 C31_8 1_555 1_555
C33_8 C32_8 1_555 1_555
C34_8 C33_8 1_555 1_555
N4_8 C15_8 1_555 1_555
N7_8 C29_8 1_555 1_555
C9_8 N2_8 1_555 1_555
C18_8 N4_8 1_555 1_555
C32_8 N7_8 1_555 1_555
Fe1_8 N2_8 1_555 1_555
Fe1_8 N4_8 1_555 1_555
Fe1_8 N7_8 1_555 1_555
B1_8 F1_8 1_555 1_555
H2_8 C2_8 1_555 1_555
C3_8 C2_8 1_555 1_555
H3_8 C3_8 1_555 1_555
C4_8 C3_8 1_555 1_555
F3_8 B1_8 1_555 1_555
F4_8 B1_8 1_555 1_555

#END
