
###############################################################################
#
# This file contains modified crystal structure data generated from the
# MOF subset of the Cambridge Structural Database (CSD) v543 
# hosted by the Cambridge Crystallographic Data Centre (CCDC).
#
# This work is licensed under the Creative Commons
# Attribution-NonCommercial-ShareAlike 4.0 International License.
# To view a copy of this license, visit
# http://creativecommons.org/licenses/by-nc-sa/4.0/
# or send a letter to
# Creative Commons, PO Box 1866, Mountain View, CA 94042, USA.
#
# CIF created using the CSD Python API on 29 September 2022
# The structure has been converted into the P1 space group
# The structure has a 3D framework
# The original CSD entry FIFMOX is in the orthorhombic crystal system
# The framework has been calculated to contain at least 10.0% void space
# The void calculation uses a probe of radius 1.32A, grid spacing 0.4
#
###############################################################################

data_FIFMOX
_chemical_formula_moiety         '(C344 H240 Ag8 Co8 F24 N72 O24 S8)n'
_symmetry_cell_setting           triclinic
_symmetry_space_group_name_H-M   'P 1'
_symmetry_Int_Tables_number      1
_space_group_name_Hall           'P 1'
loop_
_symmetry_equiv_pos_site_id
_symmetry_equiv_pos_as_xyz
1 x,y,z
_cell_length_a                   26.713(3)
_cell_length_b                   12.5800(13)
_cell_length_c                   33.455(3)
_cell_angle_alpha                90
_cell_angle_beta                 90
_cell_angle_gamma                90
_cell_volume                     11242.5
loop_
_atom_site_label
_atom_site_type_symbol
_atom_site_fract_x
_atom_site_fract_y
_atom_site_fract_z
C1 C 0.01247(18) 0.6732(4) 0.64304(13)
H1 H 0.0417 0.7162 0.6437
C8 C 0.00060(18) 0.2000(4) 0.58359(14)
H5 H 0.0017 0.1295 0.5734
C9 C 0.04137(18) 0.2706(4) 0.58754(13)
H6 H 0.0749 0.2539 0.5804
C15 C 0.05052(17) 0.3542(4) 0.68584(14)
H11 H 0.0302 0.3055 0.6714
C16 C 0.06096(18) 0.3471(5) 0.72731(14)
H12 H 0.0495 0.2939 0.7453
C17 C 0.09049(19) 0.4311(5) 0.73620(14)
H13 H 0.1031 0.4484 0.7619
C18 C 0.09935(17) 0.4890(4) 0.70036(13)
C19 C 0.12831(17) 0.5794(4) 0.69556(13)
C20 C 0.13569(16) 0.6335(4) 0.65968(13)
C21 C 0.16677(18) 0.7229(4) 0.65234(16)
H14 H 0.1871 0.7583 0.6715
C22 C 0.1622(2) 0.7491(4) 0.61297(16)
H15 H 0.1779 0.8066 0.5995
C23 C 0.12941(17) 0.6731(4) 0.59640(13)
H16 H 0.1200 0.6712 0.5690
C24 C 0.15366(18) 0.6218(5) 0.73206(13)
C25 C 0.18768(19) 0.5634(4) 0.75344(15)
H17 H 0.1972 0.4949 0.7442
C26 C 0.20813(19) 0.6030(5) 0.78811(14)
H18 H 0.2319 0.5613 0.8022
C27 C 0.1633(3) 0.7571(5) 0.78079(16)
H19 H 0.1552 0.8262 0.7902
C28 C 0.1418(2) 0.7224(5) 0.74594(16)
H20 H 0.1192 0.7665 0.7316
C29 C 0.15683(19) 0.3501(5) 0.62782(14)
H21 H 0.1531 0.3524 0.6560
C30 C 0.1934(2) 0.2911(6) 0.60775(18)
H22 H 0.2188 0.2489 0.6197
C31 C 0.1857(2) 0.3057(5) 0.56752(16)
H23 H 0.2038 0.2735 0.5463
C32 C 0.14517(17) 0.3784(4) 0.56376(13)
C33 C 0.12467(17) 0.4190(3) 0.52868(12)
C34 C 0.08551(16) 0.4920(3) 0.52625(12)
C35 C 0.06820(17) 0.5469(4) 0.49196(13)
H24 H 0.0796 0.5376 0.4653
C36 C 0.03144(18) 0.6166(4) 0.50478(13)
H25 H 0.0128 0.6647 0.4887
C37 C 0.02718(16) 0.6018(3) 0.54635(13)
H26 H 0.0040 0.6388 0.5628
C38 C 0.14714(17) 0.3802(4) 0.49065(12)
C39 C 0.19636(19) 0.4020(4) 0.47963(14)
H27 H 0.2169 0.4450 0.4962
C40 C 0.21485(18) 0.3612(4) 0.44483(14)
H28 H 0.2484 0.3775 0.4377
C41 C 0.14067(17) 0.2786(4) 0.43033(13)
H29 H 0.1211 0.2350 0.4132
C42 C 0.11858(17) 0.3179(4) 0.46487(13)
H30 H 0.0846 0.3025 0.4708
Co1 Co 0.06876(2) 0.48538(4) 0.614680(15)
N1 N 0.01194(13) 0.5713(3) 0.63116(10)
N2 N 0.02682(12) 0.3641(3) 0.60266(10)
N4 N 0.07331(13) 0.4391(3) 0.66968(10)
N5 N 0.11334(12) 0.6049(3) 0.62354(10)
N6 N 0.19561(17) 0.6975(4) 0.80241(12)
N7 N 0.12781(13) 0.4030(3) 0.60194(10)
N8 N 0.05968(13) 0.5293(3) 0.55990(10)
N9 N 0.18790(15) 0.2988(3) 0.41998(11)
Ag2 Ag 0.219920(14) 0.24111(3) 0.362320(10)
Ag3 Ag 0.219920(14) 0.75889(3) 0.862320(10)
Ag1 Ag 0.719920(14) 0.25889(3) 0.637680(10)
C2 C 0.96514(18) 0.7082(4) 0.65432(17)
H2 H 0.9565 0.7775 0.6632
C3 C 0.93330(17) 0.6227(4) 0.65003(15)
H3 H 0.8985 0.6214 0.6558
C4 C 0.96250(15) 0.5372(4) 0.63530(12)
C5 C 0.94601(15) 0.4354(4) 0.62524(12)
C6 C 0.97547(16) 0.3561(3) 0.60890(12)
C7 C 0.95934(18) 0.2528(4) 0.59729(13)
H4 H 0.9262 0.2258 0.5988
C10 C 0.89252(16) 0.4095(4) 0.63214(12)
C11 C 0.87912(16) 0.3390(4) 0.66232(12)
H7 H 0.9037 0.3110 0.6799
C12 C 0.82915(17) 0.3104(4) 0.66621(13)
H8 H 0.8204 0.2619 0.6868
C13 C 0.80574(18) 0.4178(4) 0.61541(15)
H9 H 0.7802 0.4469 0.5990
C14 C 0.85451(17) 0.4522(4) 0.60940(15)
H10 H 0.8616 0.5047 0.5898
C43 C 0.6047(6) 0.5275(14) 0.6445(4)
F1 F 0.5747(5) 0.5020(6) 0.6062(6)
F2 F 0.5823(2) 0.5968(6) 0.6653(3)
F3 F 0.5948(3) 0.4343(9) 0.6719(6)
N3 N 0.79282(14) 0.3470(3) 0.64268(11)
O1 O 0.6662(4) 0.4220(6) 0.6200(4)
O2 O 0.6917(3) 0.5468(5) 0.6627(3)
O3 O 0.6572(3) 0.6221(6) 0.5934(5)
S1 S 0.66117(6) 0.52383(12) 0.63228(5)
N10 N 0.69561(17) 0.1975(4) 0.69759(12)
N11 N 0.68790(15) 0.2012(3) 0.58002(11)
C5_2 C 0.44601(15) 0.0646(4) 0.37476(12)
C6_2 C 0.47547(16) 0.1439(3) 0.39110(12)
C7_2 C 0.45934(18) 0.2472(4) 0.40271(13)
H4_2 H 0.4262 0.2742 0.4012
C8_2 C 0.50060(18) 0.3000(4) 0.41641(14)
H5_2 H 0.5017 0.3705 0.4266
C9_2 C 0.54137(18) 0.2294(4) 0.41246(13)
H6_2 H 0.5749 0.2461 0.4196
C10_2 C 0.39252(16) 0.0905(4) 0.36786(12)
C11_2 C 0.37912(16) 0.1610(4) 0.33768(12)
H7_2 H 0.4037 0.1890 0.3201
C12_2 C 0.32915(17) 0.1896(4) 0.33379(13)
H8_2 H 0.3204 0.2381 0.3132
C13_2 C 0.30574(18) 0.0822(4) 0.38459(15)
H9_2 H 0.2802 0.0531 0.4010
C14_2 C 0.35451(17) 0.0478(4) 0.39060(15)
C15_2 C 0.55052(17) 0.1458(4) 0.31416(14)
H11_2 H 0.5302 0.1945 0.3286
C16_2 C 0.56096(18) 0.1529(5) 0.27269(14)
H12_2 H 0.5495 0.2061 0.2547
C17_2 C 0.59049(19) 0.0689(5) 0.26380(14)
H13_2 H 0.6031 0.0516 0.2381
C18_2 C 0.59935(17) 0.0110(4) 0.29964(13)
H17_2 H 0.6972 0.0051 0.2558
C29_2 C 0.65683(19) 0.1499(5) 0.37218(14)
H21_2 H 0.6531 0.1476 0.3440
C30_2 C 0.6934(2) 0.2089(6) 0.39225(18)
H22_2 H 0.7188 0.2511 0.3803
C31_2 C 0.6857(2) 0.1943(5) 0.43248(16)
H23_2 H 0.7038 0.2265 0.4537
C32_2 C 0.64517(17) 0.1216(4) 0.43624(13)
C33_2 C 0.62467(17) 0.0810(3) 0.47132(12)
C34_2 C 0.58551(16) 0.0080(3) 0.47375(12)
C38_2 C 0.64714(17) 0.1198(4) 0.50935(12)
C39_2 C 0.69636(19) 0.0980(4) 0.52037(14)
H27_2 H 0.7169 0.0550 0.5038
C40_2 C 0.71485(18) 0.1388(4) 0.55517(14)
H28_2 H 0.7484 0.1225 0.5623
C41_2 C 0.64067(17) 0.2214(4) 0.56967(13)
H29_2 H 0.6211 0.2650 0.5868
C42_2 C 0.61858(17) 0.1821(4) 0.53513(13)
H30_2 H 0.5846 0.1975 0.5292
Co1_2 Co 0.56876(2) 0.01462(4) 0.385320(15)
F3_2 F 0.0948(3) 0.0657(9) 0.3281(6)
N2_2 N 0.52682(12) 0.1359(3) 0.39734(10)
N3_2 N 0.29282(14) 0.1530(3) 0.35732(11)
N4_2 N 0.57331(13) 0.0609(3) 0.33032(10)
N7_2 N 0.62781(13) 0.0970(3) 0.39806(10)
O1_2 O 0.1662(4) 0.0780(6) 0.3800(4)
N10_2 N 0.19561(17) 0.3025(4) 0.30241(12)
C1_2 C 0.51247(18) 0.1732(4) 0.85696(13)
H1_2 H 0.5417 0.2162 0.8563
C2_2 C 0.46514(18) 0.2082(4) 0.84568(17)
H2_2 H 0.4565 0.2775 0.8368
C3_2 C 0.43330(17) 0.1227(4) 0.84997(15)
H3_2 H 0.3985 0.1214 0.8442
C4_2 C 0.46250(15) 0.0372(4) 0.86470(12)
H10_2 H 0.3616 0.0047 0.9102
C19_2 C 0.62831(17) 0.0794(4) 0.80444(13)
C20_2 C 0.63569(16) 0.1335(4) 0.84032(13)
C21_2 C 0.66677(18) 0.2229(4) 0.84766(16)
H14_2 H 0.6871 0.2583 0.8285
C22_2 C 0.6622(2) 0.2491(4) 0.88703(16)
H15_2 H 0.6779 0.3066 0.9005
C23_2 C 0.62941(17) 0.1731(4) 0.90360(13)
H16_2 H 0.6200 0.1712 0.9310
C24_2 C 0.65366(18) 0.1218(5) 0.76794(13)
C25_2 C 0.68768(19) 0.0634(4) 0.74656(15)
C26_2 C 0.70813(19) 0.1030(5) 0.71189(14)
H18_2 H 0.7319 0.0613 0.6978
C27_2 C 0.6633(3) 0.2571(5) 0.71921(16)
H19_2 H 0.6552 0.3262 0.7098
C28_2 C 0.6418(2) 0.2224(5) 0.75406(16)
H20_2 H 0.6192 0.2665 0.7684
C36_2 C 0.53144(18) 0.1166(4) 0.99522(13)
C37_2 C 0.52718(16) 0.1018(3) 0.95365(13)
H26_2 H 0.5040 0.1388 0.9372
C43_2 C 0.1047(6) 0.0275(14) 0.8555(4)
F1_2 F 0.0747(5) 0.0020(6) 0.8938(6)
F2_2 F 0.0823(2) 0.0968(6) 0.8347(3)
N1_2 N 0.51194(13) 0.0713(3) 0.86884(10)
N5_2 N 0.61334(12) 0.1049(3) 0.87646(10)
N8_2 N 0.55968(13) 0.0293(3) 0.94010(10)
O2_2 O 0.1917(3) 0.0468(5) 0.8373(3)
O3_2 O 0.1572(3) 0.1221(6) 0.9066(5)
S1_2 S 0.16117(6) 0.02383(12) 0.86772(5)
C5_3 C 0.44601(15) 0.9354(4) 0.87476(12)
C6_3 C 0.47547(16) 0.8561(3) 0.89110(12)
C7_3 C 0.45934(18) 0.7528(4) 0.90271(13)
H4_3 H 0.4262 0.7258 0.9012
C8_3 C 0.50060(18) 0.7000(4) 0.91641(14)
H5_3 H 0.5017 0.6295 0.9266
C9_3 C 0.54137(18) 0.7706(4) 0.91246(13)
H6_3 H 0.5749 0.7539 0.9196
C10_3 C 0.39252(16) 0.9095(4) 0.86786(12)
C11_3 C 0.37912(16) 0.8390(4) 0.83768(12)
H7_3 H 0.4037 0.8110 0.8201
C12_3 C 0.32915(17) 0.8104(4) 0.83379(13)
H8_3 H 0.3204 0.7619 0.8132
C13_3 C 0.30574(18) 0.9178(4) 0.88459(15)
H9_3 H 0.2802 0.9469 0.9010
C14_3 C 0.35451(17) 0.9522(4) 0.89060(15)
C15_3 C 0.55052(17) 0.8542(4) 0.81416(14)
H11_3 H 0.5302 0.8055 0.8286
C16_3 C 0.56096(18) 0.8471(5) 0.77269(14)
H12_3 H 0.5495 0.7939 0.7547
C17_3 C 0.59049(19) 0.9311(5) 0.76380(14)
H13_3 H 0.6031 0.9484 0.7381
C18_3 C 0.59935(17) 0.9890(4) 0.79964(13)
H17_3 H 0.6972 0.9949 0.7558
C29_3 C 0.65683(19) 0.8501(5) 0.87218(14)
H21_3 H 0.6531 0.8524 0.8440
C30_3 C 0.6934(2) 0.7911(6) 0.89225(18)
H22_3 H 0.7188 0.7489 0.8803
C31_3 C 0.6857(2) 0.8057(5) 0.93248(16)
H23_3 H 0.7038 0.7735 0.9537
C32_3 C 0.64517(17) 0.8784(4) 0.93624(13)
C33_3 C 0.62467(17) 0.9190(3) 0.97132(12)
C34_3 C 0.58551(16) 0.9920(3) 0.97375(12)
Co1_3 Co 0.56876(2) 0.98538(4) 0.885320(15)
F3_3 F 0.0948(3) 0.9343(9) 0.8281(6)
N2_3 N 0.52682(12) 0.8641(3) 0.89734(10)
N3_3 N 0.29282(14) 0.8470(3) 0.85732(11)
N4_3 N 0.57331(13) 0.9391(3) 0.83032(10)
N7_3 N 0.62781(13) 0.9030(3) 0.89806(10)
O1_3 O 0.1662(4) 0.9220(6) 0.8800(4)
N11_2 N 0.18790(15) 0.7012(3) 0.91998(11)
C1_3 C 0.01247(18) 0.3268(4) 0.14304(13)
H1_3 H 0.0417 0.2838 0.1437
C8_4 C 0.00060(18) 0.8000(4) 0.08359(14)
H5_4 H 0.0017 0.8705 0.0734
C9_4 C 0.04137(18) 0.7294(4) 0.08754(13)
H6_4 H 0.0749 0.7461 0.0804
C15_4 C 0.05052(17) 0.6458(4) 0.18584(14)
H11_4 H 0.0302 0.6945 0.1714
C16_4 C 0.06096(18) 0.6529(5) 0.22731(14)
H12_4 H 0.0495 0.7061 0.2453
C17_4 C 0.09049(19) 0.5689(5) 0.23620(14)
H13_4 H 0.1031 0.5516 0.2619
C18_4 C 0.09935(17) 0.5110(4) 0.20036(13)
C19_3 C 0.12831(17) 0.4206(4) 0.19556(13)
C20_3 C 0.13569(16) 0.3665(4) 0.15968(13)
C21_3 C 0.16677(18) 0.2771(4) 0.15234(16)
H14_3 H 0.1871 0.2417 0.1715
C22_3 C 0.1622(2) 0.2509(4) 0.11297(16)
H15_3 H 0.1779 0.1934 0.0995
C23_3 C 0.12941(17) 0.3269(4) 0.09640(13)
H16_3 H 0.1200 0.3288 0.0690
C24_3 C 0.15366(18) 0.3782(5) 0.23206(13)
C25_3 C 0.18768(19) 0.4366(4) 0.25344(15)
H17_4 H 0.1972 0.5051 0.2442
C26_3 C 0.20813(19) 0.3970(5) 0.28811(14)
H18_3 H 0.2319 0.4387 0.3022
C27_3 C 0.1633(3) 0.2429(5) 0.28079(16)
H19_3 H 0.1552 0.1738 0.2902
C28_3 C 0.1418(2) 0.2776(5) 0.24594(16)
H20_3 H 0.1192 0.2335 0.2316
C29_4 C 0.15683(19) 0.6499(5) 0.12782(14)
H21_4 H 0.1531 0.6476 0.1560
C30_4 C 0.1934(2) 0.7089(6) 0.10775(18)
H22_4 H 0.2188 0.7511 0.1197
C31_4 C 0.1857(2) 0.6943(5) 0.06752(16)
H23_4 H 0.2038 0.7265 0.0463
C32_4 C 0.14517(17) 0.6216(4) 0.06376(13)
C33_4 C 0.12467(17) 0.5810(3) 0.02868(12)
C34_4 C 0.08551(16) 0.5080(3) 0.02625(12)
C36_3 C 0.03144(18) 0.3834(4) 0.00478(13)
C37_3 C 0.02718(16) 0.3982(3) 0.04635(13)
H26_3 H 0.0040 0.3612 0.0628
Co1_4 Co 0.06876(2) 0.51462(4) 0.114680(15)
N1_3 N 0.01194(13) 0.4287(3) 0.13116(10)
N2_4 N 0.02682(12) 0.6359(3) 0.10266(10)
N4_4 N 0.07331(13) 0.5609(3) 0.16968(10)
N5_3 N 0.11334(12) 0.3951(3) 0.12354(10)
N7_4 N 0.12781(13) 0.5970(3) 0.10194(10)
N8_3 N 0.05968(13) 0.4707(3) 0.05990(10)
C35_2 C 0.06820(17) 0.4531(4) 0.99196(13)
H24_2 H 0.0796 0.4624 0.9653
H25_2 H 0.0128 0.3353 0.9887
C38_3 C 0.14714(17) 0.6198(4) 0.99065(12)
C39_3 C 0.19636(19) 0.5980(4) 0.97963(14)
H27_3 H 0.2169 0.5550 0.9962
C40_3 C 0.21485(18) 0.6388(4) 0.94483(14)
H28_3 H 0.2484 0.6225 0.9377
C41_3 C 0.14067(17) 0.7214(4) 0.93033(13)
H29_3 H 0.1211 0.7650 0.9132
C42_3 C 0.11858(17) 0.6821(4) 0.96487(13)
H30_3 H 0.0846 0.6975 0.9708
Ag1_2 Ag 0.780080(14) 0.24111(3) 0.137680(10)
C5_4 C 0.55399(15) 0.0646(4) 0.12524(12)
C6_4 C 0.52453(16) 0.1439(3) 0.10890(12)
C7_4 C 0.54066(18) 0.2472(4) 0.09729(13)
H4_4 H 0.5738 0.2742 0.0988
C8_5 C 0.49940(18) 0.3000(4) 0.08359(14)
H5_5 H 0.4983 0.3705 0.0734
C9_5 C 0.45863(18) 0.2294(4) 0.08754(13)
H6_5 H 0.4251 0.2461 0.0804
C10_4 C 0.60748(16) 0.0905(4) 0.13214(12)
C11_4 C 0.62088(16) 0.1610(4) 0.16232(12)
H7_4 H 0.5963 0.1890 0.1799
C12_4 C 0.67085(17) 0.1896(4) 0.16621(13)
H8_4 H 0.6796 0.2381 0.1868
C13_4 C 0.69426(18) 0.0822(4) 0.11541(15)
H9_4 H 0.7198 0.0531 0.0990
C14_4 C 0.64549(17) 0.0478(4) 0.10940(15)
C15_5 C 0.44948(17) 0.1458(4) 0.18584(14)
H11_5 H 0.4698 0.1945 0.1714
C16_5 C 0.43904(18) 0.1529(5) 0.22731(14)
H12_5 H 0.4505 0.2061 0.2453
C17_5 C 0.40951(19) 0.0689(5) 0.23620(14)
H13_5 H 0.3969 0.0516 0.2619
C18_5 C 0.40065(17) 0.0110(4) 0.20036(13)
H17_5 H 0.3028 0.0051 0.2442
C29_5 C 0.34317(19) 0.1499(5) 0.12782(14)
H21_5 H 0.3469 0.1476 0.1560
C30_5 C 0.3066(2) 0.2089(6) 0.10775(18)
H22_5 H 0.2812 0.2511 0.1197
C31_5 C 0.3143(2) 0.1943(5) 0.06752(16)
H23_5 H 0.2962 0.2265 0.0463
C32_5 C 0.35483(17) 0.1216(4) 0.06376(13)
C33_5 C 0.37533(17) 0.0810(3) 0.02868(12)
C34_5 C 0.41449(16) 0.0080(3) 0.02625(12)
Co1_5 Co 0.43124(2) 0.01462(4) 0.114680(15)
F3_4 F 0.9052(3) 0.0657(9) 0.1719(6)
N2_5 N 0.47318(12) 0.1359(3) 0.10266(10)
N3_4 N 0.70718(14) 0.1530(3) 0.14268(11)
N4_5 N 0.42669(13) 0.0609(3) 0.16968(10)
N7_5 N 0.37219(13) 0.0970(3) 0.10194(10)
O1_4 O 0.8338(4) 0.0780(6) 0.1200(4)
N10_3 N 0.80439(17) 0.3025(4) 0.19759(12)
N11_3 N 0.81210(15) 0.2988(3) 0.08002(11)
C1_4 C 0.48753(18) 0.8268(4) 0.14304(13)
H1_4 H 0.4583 0.7838 0.1437
C2_3 C 0.53486(18) 0.7918(4) 0.15432(17)
H2_3 H 0.5435 0.7225 0.1632
C3_3 C 0.56670(17) 0.8773(4) 0.15003(15)
H3_3 H 0.6015 0.8786 0.1558
C4_3 C 0.53750(15) 0.9628(4) 0.13530(12)
H10_3 H 0.6384 0.9953 0.0898
C19_4 C 0.37169(17) 0.9206(4) 0.19556(13)
C20_4 C 0.36431(16) 0.8665(4) 0.15968(13)
C21_4 C 0.33323(18) 0.7771(4) 0.15234(16)
H14_4 H 0.3129 0.7417 0.1715
C22_4 C 0.3378(2) 0.7509(4) 0.11297(16)
H15_4 H 0.3221 0.6934 0.0995
C23_4 C 0.37059(17) 0.8269(4) 0.09640(13)
H16_4 H 0.3800 0.8288 0.0690
C24_4 C 0.34634(18) 0.8782(5) 0.23206(13)
C25_4 C 0.31232(19) 0.9366(4) 0.25344(15)
C26_4 C 0.29187(19) 0.8970(5) 0.28811(14)
H18_4 H 0.2681 0.9387 0.3022
C27_4 C 0.3367(3) 0.7429(5) 0.28079(16)
H19_4 H 0.3448 0.6738 0.2902
C28_4 C 0.3582(2) 0.7776(5) 0.24594(16)
H20_4 H 0.3808 0.7335 0.2316
C36_4 C 0.46856(18) 0.8834(4) 0.00478(13)
C37_4 C 0.47282(16) 0.8982(3) 0.04635(13)
H26_4 H 0.4960 0.8612 0.0628
C43_3 C 0.8953(6) 0.9725(14) 0.1445(4)
F1_3 F 0.9253(5) 0.9980(6) 0.1062(6)
F2_3 F 0.9177(2) 0.9032(6) 0.1653(3)
N1_4 N 0.48806(13) 0.9287(3) 0.13116(10)
N5_4 N 0.38666(12) 0.8951(3) 0.12354(10)
N6_2 N 0.30439(17) 0.8025(4) 0.30241(12)
N8_4 N 0.44032(13) 0.9707(3) 0.05990(10)
O2_3 O 0.8083(3) 0.9532(5) 0.1627(3)
O3_3 O 0.8428(3) 0.8779(6) 0.0934(5)
S1_3 S 0.83883(6) 0.97617(12) 0.13228(5)
Ag3_2 Ag 0.280080(14) 0.74111(3) 0.362320(10)
C35_3 C 0.93180(17) 0.5469(4) 0.00804(13)
H24_3 H 0.9204 0.5376 0.0347
H25_3 H 0.9872 0.6647 0.0113
C38_4 C 0.85286(17) 0.3802(4) 0.00935(12)
C39_4 C 0.80364(19) 0.4020(4) 0.02037(14)
H27_4 H 0.7831 0.4450 0.0038
C40_4 C 0.78515(18) 0.3612(4) 0.05517(14)
H28_4 H 0.7516 0.3775 0.0623
C41_4 C 0.85933(17) 0.2786(4) 0.06967(13)
H29_4 H 0.8789 0.2350 0.0868
C42_4 C 0.88142(17) 0.3179(4) 0.03513(13)
H30_4 H 0.9154 0.3025 0.0292
C1_5 C 0.98753(18) 0.6732(4) 0.85696(13)
H1_5 H 0.9583 0.7162 0.8563
C8_6 C 0.99940(18) 0.2000(4) 0.91641(14)
H5_6 H 0.9983 0.1295 0.9266
C9_6 C 0.95863(18) 0.2706(4) 0.91246(13)
H6_6 H 0.9251 0.2539 0.9196
C15_6 C 0.94948(17) 0.3542(4) 0.81416(14)
H11_6 H 0.9698 0.3055 0.8286
C16_6 C 0.93904(18) 0.3471(5) 0.77269(14)
H12_6 H 0.9505 0.2939 0.7547
C17_6 C 0.90951(19) 0.4311(5) 0.76380(14)
H13_6 H 0.8969 0.4484 0.7381
C18_6 C 0.90065(17) 0.4890(4) 0.79964(13)
C19_5 C 0.87169(17) 0.5794(4) 0.80444(13)
C20_5 C 0.86431(16) 0.6335(4) 0.84032(13)
C21_5 C 0.83323(18) 0.7229(4) 0.84766(16)
H14_5 H 0.8129 0.7583 0.8285
C22_5 C 0.8378(2) 0.7491(4) 0.88703(16)
H15_5 H 0.8221 0.8066 0.9005
C23_5 C 0.87059(17) 0.6731(4) 0.90360(13)
H16_5 H 0.8800 0.6712 0.9310
C24_5 C 0.84634(18) 0.6218(5) 0.76794(13)
C25_5 C 0.81232(19) 0.5634(4) 0.74656(15)
H17_6 H 0.8028 0.4949 0.7558
C26_5 C 0.79187(19) 0.6030(5) 0.71189(14)
H18_5 H 0.7681 0.5613 0.6978
C27_5 C 0.8367(3) 0.7571(5) 0.71921(16)
H19_5 H 0.8448 0.8262 0.7098
C28_5 C 0.8582(2) 0.7224(5) 0.75406(16)
H20_5 H 0.8808 0.7665 0.7684
C29_6 C 0.84317(19) 0.3501(5) 0.87218(14)
H21_6 H 0.8469 0.3524 0.8440
C30_6 C 0.8066(2) 0.2911(6) 0.89225(18)
H22_6 H 0.7812 0.2489 0.8803
C31_6 C 0.8143(2) 0.3057(5) 0.93248(16)
H23_6 H 0.7962 0.2735 0.9537
C32_6 C 0.85483(17) 0.3784(4) 0.93624(13)
C33_6 C 0.87533(17) 0.4190(3) 0.97132(12)
C34_6 C 0.91449(16) 0.4920(3) 0.97375(12)
C36_5 C 0.96856(18) 0.6166(4) 0.99522(13)
C37_5 C 0.97282(16) 0.6018(3) 0.95365(13)
H26_5 H 0.9960 0.6388 0.9372
Co1_6 Co 0.93124(2) 0.48538(4) 0.885320(15)
N1_5 N 0.98806(13) 0.5713(3) 0.86884(10)
N2_6 N 0.97318(12) 0.3641(3) 0.89734(10)
N4_6 N 0.92669(13) 0.4391(3) 0.83032(10)
N5_5 N 0.88666(12) 0.6049(3) 0.87646(10)
N6_3 N 0.80439(17) 0.6975(4) 0.69759(12)
N7_6 N 0.87219(13) 0.4030(3) 0.89806(10)
N8_5 N 0.94032(13) 0.5293(3) 0.94010(10)
Ag3_3 Ag 0.780080(14) 0.75889(3) 0.637680(10)
C2_4 C 0.03486(18) 0.2918(4) 0.34568(17)
H2_4 H 0.0435 0.2225 0.3368
C3_4 C 0.06670(17) 0.3773(4) 0.34997(15)
H3_4 H 0.1015 0.3786 0.3442
C4_4 C 0.03750(15) 0.4628(4) 0.36470(12)
C5_5 C 0.05399(15) 0.5646(4) 0.37476(12)
C6_5 C 0.02453(16) 0.6439(3) 0.39110(12)
C7_5 C 0.04066(18) 0.7472(4) 0.40271(13)
H4_5 H 0.0738 0.7742 0.4012
C10_5 C 0.10748(16) 0.5905(4) 0.36786(12)
C11_5 C 0.12088(16) 0.6610(4) 0.33768(12)
H7_5 H 0.0963 0.6890 0.3201
C12_5 C 0.17085(17) 0.6896(4) 0.33379(13)
H8_5 H 0.1796 0.7381 0.3132
C13_5 C 0.19426(18) 0.5822(4) 0.38459(15)
H9_5 H 0.2198 0.5531 0.4010
C14_5 C 0.14549(17) 0.5478(4) 0.39060(15)
H10_4 H 0.1384 0.4953 0.4102
C43_4 C 0.3953(6) 0.4725(14) 0.3555(4)
F1_4 F 0.4253(5) 0.4980(6) 0.3938(6)
F2_4 F 0.4177(2) 0.4032(6) 0.3347(3)
F3_5 F 0.4052(3) 0.5657(9) 0.3281(6)
N3_5 N 0.20718(14) 0.6530(3) 0.35732(11)
O1_5 O 0.3338(4) 0.5780(6) 0.3800(4)
O2_4 O 0.3083(3) 0.4532(5) 0.3373(3)
O3_4 O 0.3428(3) 0.3779(6) 0.4066(5)
S1_4 S 0.33883(6) 0.47617(12) 0.36772(5)
N11_4 N 0.31210(15) 0.7988(3) 0.41998(11)
C1_6 C 0.98753(18) 0.3268(4) 0.35696(13)
H1_6 H 0.9583 0.2838 0.3563
C8_7 C 0.99940(18) 0.8000(4) 0.41641(14)
H5_7 H 0.9983 0.8705 0.4266
C9_7 C 0.95863(18) 0.7294(4) 0.41246(13)
H6_7 H 0.9251 0.7461 0.4196
C15_7 C 0.94948(17) 0.6458(4) 0.31416(14)
H11_7 H 0.9698 0.6945 0.3286
C16_7 C 0.93904(18) 0.6529(5) 0.27269(14)
H12_7 H 0.9505 0.7061 0.2547
C17_7 C 0.90951(19) 0.5689(5) 0.26380(14)
H13_7 H 0.8969 0.5516 0.2381
C18_7 C 0.90065(17) 0.5110(4) 0.29964(13)
C19_6 C 0.87169(17) 0.4206(4) 0.30444(13)
C20_6 C 0.86431(16) 0.3665(4) 0.34032(13)
C21_6 C 0.83323(18) 0.2771(4) 0.34766(16)
H14_6 H 0.8129 0.2417 0.3285
C22_6 C 0.8378(2) 0.2509(4) 0.38703(16)
H15_6 H 0.8221 0.1934 0.4005
C23_6 C 0.87059(17) 0.3269(4) 0.40360(13)
H16_6 H 0.8800 0.3288 0.4310
C24_6 C 0.84634(18) 0.3782(5) 0.26794(13)
C25_6 C 0.81232(19) 0.4366(4) 0.24656(15)
H17_7 H 0.8028 0.5051 0.2558
C26_6 C 0.79187(19) 0.3970(5) 0.21189(14)
H18_6 H 0.7681 0.4387 0.1978
C27_6 C 0.8367(3) 0.2429(5) 0.21921(16)
H19_6 H 0.8448 0.1738 0.2098
C28_6 C 0.8582(2) 0.2776(5) 0.25406(16)
H20_6 H 0.8808 0.2335 0.2684
C29_7 C 0.84317(19) 0.6499(5) 0.37218(14)
H21_7 H 0.8469 0.6476 0.3440
C30_7 C 0.8066(2) 0.7089(6) 0.39225(18)
H22_7 H 0.7812 0.7511 0.3803
C31_7 C 0.8143(2) 0.6943(5) 0.43248(16)
H23_7 H 0.7962 0.7265 0.4537
C32_7 C 0.85483(17) 0.6216(4) 0.43624(13)
C33_7 C 0.87533(17) 0.5810(3) 0.47132(12)
C34_7 C 0.91449(16) 0.5080(3) 0.47375(12)
C35_4 C 0.93180(17) 0.4531(4) 0.50804(13)
H24_4 H 0.9204 0.4624 0.5347
C36_6 C 0.96856(18) 0.3834(4) 0.49522(13)
H25_4 H 0.9872 0.3353 0.5113
C37_6 C 0.97282(16) 0.3982(3) 0.45365(13)
H26_6 H 0.9960 0.3612 0.4372
C38_5 C 0.85286(17) 0.6198(4) 0.50935(12)
C39_5 C 0.80364(19) 0.5980(4) 0.52037(14)
H27_5 H 0.7831 0.5550 0.5038
C40_5 C 0.78515(18) 0.6388(4) 0.55517(14)
H28_5 H 0.7516 0.6225 0.5623
C41_5 C 0.85933(17) 0.7214(4) 0.56967(13)
H29_5 H 0.8789 0.7650 0.5868
C42_5 C 0.88142(17) 0.6821(4) 0.53513(13)
H30_5 H 0.9154 0.6975 0.5292
Co1_7 Co 0.93124(2) 0.51462(4) 0.385320(15)
N1_6 N 0.98806(13) 0.4287(3) 0.36884(10)
N2_7 N 0.97318(12) 0.6359(3) 0.39734(10)
N4_7 N 0.92669(13) 0.5609(3) 0.33032(10)
N5_6 N 0.88666(12) 0.3951(3) 0.37646(10)
N7_7 N 0.87219(13) 0.5970(3) 0.39806(10)
N8_6 N 0.94032(13) 0.4707(3) 0.44010(10)
N9_2 N 0.81210(15) 0.7012(3) 0.58002(11)
C5_6 C 0.55399(15) 0.9354(4) 0.62524(12)
C6_6 C 0.52453(16) 0.8561(3) 0.60890(12)
C7_6 C 0.54066(18) 0.7528(4) 0.59729(13)
H4_6 H 0.5738 0.7258 0.5988
C8_8 C 0.49940(18) 0.7000(4) 0.58359(14)
H5_8 H 0.4983 0.6295 0.5734
C9_8 C 0.45863(18) 0.7706(4) 0.58754(13)
H6_8 H 0.4251 0.7539 0.5804
C10_6 C 0.60748(16) 0.9095(4) 0.63214(12)
C11_6 C 0.62088(16) 0.8390(4) 0.66232(12)
H7_6 H 0.5963 0.8110 0.6799
C12_6 C 0.67085(17) 0.8104(4) 0.66621(13)
H8_6 H 0.6796 0.7619 0.6868
C13_6 C 0.69426(18) 0.9178(4) 0.61541(15)
H9_6 H 0.7198 0.9469 0.5990
C14_6 C 0.64549(17) 0.9522(4) 0.60940(15)
C15_8 C 0.44948(17) 0.8542(4) 0.68584(14)
H11_8 H 0.4698 0.8055 0.6714
C16_8 C 0.43904(18) 0.8471(5) 0.72731(14)
H12_8 H 0.4505 0.7939 0.7453
C17_8 C 0.40951(19) 0.9311(5) 0.73620(14)
H13_8 H 0.3969 0.9484 0.7619
C18_8 C 0.40065(17) 0.9890(4) 0.70036(13)
H17_8 H 0.3028 0.9949 0.7442
C29_8 C 0.34317(19) 0.8501(5) 0.62782(14)
H21_8 H 0.3469 0.8524 0.6560
C30_8 C 0.3066(2) 0.7911(6) 0.60775(18)
H22_8 H 0.2812 0.7489 0.6197
C31_8 C 0.3143(2) 0.8057(5) 0.56752(16)
H23_8 H 0.2962 0.7735 0.5463
C32_8 C 0.35483(17) 0.8784(4) 0.56376(13)
C33_8 C 0.37533(17) 0.9190(3) 0.52868(12)
C34_8 C 0.41449(16) 0.9920(3) 0.52625(12)
C38_6 C 0.35286(17) 0.8802(4) 0.49065(12)
C39_6 C 0.30364(19) 0.9020(4) 0.47963(14)
H27_6 H 0.2831 0.9450 0.4962
C40_6 C 0.28515(18) 0.8612(4) 0.44483(14)
H28_6 H 0.2516 0.8775 0.4377
C41_6 C 0.35933(17) 0.7786(4) 0.43033(13)
H29_6 H 0.3789 0.7350 0.4132
C42_6 C 0.38142(17) 0.8179(4) 0.46487(13)
H30_6 H 0.4154 0.8025 0.4708
Co1_8 Co 0.43124(2) 0.98538(4) 0.614680(15)
F3_6 F 0.9052(3) 0.9343(9) 0.6719(6)
N2_8 N 0.47318(12) 0.8641(3) 0.60266(10)
N3_6 N 0.70718(14) 0.8470(3) 0.64268(11)
N4_8 N 0.42669(13) 0.9391(3) 0.66968(10)
N7_8 N 0.37219(13) 0.9030(3) 0.60194(10)
O1_6 O 0.8338(4) 0.9220(6) 0.6200(4)
C38_7 C 0.35286(17) 0.1198(4) 0.99065(12)
C39_7 C 0.30364(19) 0.0980(4) 0.97963(14)
H27_7 H 0.2831 0.0550 0.9962
C40_7 C 0.28515(18) 0.1388(4) 0.94483(14)
H28_7 H 0.2516 0.1225 0.9377
C41_7 C 0.35933(17) 0.2214(4) 0.93033(13)
H29_7 H 0.3789 0.2650 0.9132
C42_7 C 0.38142(17) 0.1821(4) 0.96487(13)
H30_7 H 0.4154 0.1975 0.9708
N9_3 N 0.31210(15) 0.2012(3) 0.91998(11)
Ag2_2 Ag 0.280080(14) 0.25889(3) 0.862320(10)
C2_5 C 0.03486(18) 0.7082(4) 0.84568(17)
H2_5 H 0.0435 0.7775 0.8368
C3_5 C 0.06670(17) 0.6227(4) 0.84997(15)
H3_5 H 0.1015 0.6214 0.8442
C4_5 C 0.03750(15) 0.5372(4) 0.86470(12)
C5_7 C 0.05399(15) 0.4354(4) 0.87476(12)
C6_7 C 0.02453(16) 0.3561(3) 0.89110(12)
C7_7 C 0.04066(18) 0.2528(4) 0.90271(13)
H4_7 H 0.0738 0.2258 0.9012
C10_7 C 0.10748(16) 0.4095(4) 0.86786(12)
C11_7 C 0.12088(16) 0.3390(4) 0.83768(12)
H7_7 H 0.0963 0.3110 0.8201
C12_7 C 0.17085(17) 0.3104(4) 0.83379(13)
H8_7 H 0.1796 0.2619 0.8132
C13_7 C 0.19426(18) 0.4178(4) 0.88459(15)
H9_7 H 0.2198 0.4469 0.9010
C14_7 C 0.14549(17) 0.4522(4) 0.89060(15)
H10_5 H 0.1384 0.5047 0.9102
C43_5 C 0.3953(6) 0.5275(14) 0.8555(4)
F1_5 F 0.4253(5) 0.5020(6) 0.8938(6)
F2_5 F 0.4177(2) 0.5968(6) 0.8347(3)
F3_7 F 0.4052(3) 0.4343(9) 0.8281(6)
N3_7 N 0.20718(14) 0.3470(3) 0.85732(11)
O1_7 O 0.3338(4) 0.4220(6) 0.8800(4)
O2_5 O 0.3083(3) 0.5468(5) 0.8373(3)
O3_5 O 0.3428(3) 0.6221(6) 0.9066(5)
S1_5 S 0.33883(6) 0.52383(12) 0.86772(5)
N10_4 N 0.30439(17) 0.1975(4) 0.80241(12)
C1_7 C 0.48753(18) 0.1732(4) 0.64304(13)
H1_7 H 0.4583 0.2162 0.6437
C2_6 C 0.53486(18) 0.2082(4) 0.65432(17)
H2_6 H 0.5435 0.2775 0.6632
C3_6 C 0.56670(17) 0.1227(4) 0.65003(15)
H3_6 H 0.6015 0.1214 0.6558
C4_6 C 0.53750(15) 0.0372(4) 0.63530(12)
H10_6 H 0.6384 0.0047 0.5898
C19_7 C 0.37169(17) 0.0794(4) 0.69556(13)
C20_7 C 0.36431(16) 0.1335(4) 0.65968(13)
C21_7 C 0.33323(18) 0.2229(4) 0.65234(16)
H14_7 H 0.3129 0.2583 0.6715
C22_7 C 0.3378(2) 0.2491(4) 0.61297(16)
H15_7 H 0.3221 0.3066 0.5995
C23_7 C 0.37059(17) 0.1731(4) 0.59640(13)
H16_7 H 0.3800 0.1712 0.5690
C24_7 C 0.34634(18) 0.1218(5) 0.73206(13)
C25_7 C 0.31232(19) 0.0634(4) 0.75344(15)
C26_7 C 0.29187(19) 0.1030(5) 0.78811(14)
H18_7 H 0.2681 0.0613 0.8022
C27_7 C 0.3367(3) 0.2571(5) 0.78079(16)
H19_7 H 0.3448 0.3262 0.7902
C28_7 C 0.3582(2) 0.2224(5) 0.74594(16)
H20_7 H 0.3808 0.2665 0.7316
C35_5 C 0.43180(17) 0.0469(4) 0.49196(13)
H24_5 H 0.4204 0.0376 0.4653
C36_7 C 0.46856(18) 0.1166(4) 0.50478(13)
H25_5 H 0.4872 0.1647 0.4887
C37_7 C 0.47282(16) 0.1018(3) 0.54635(13)
H26_7 H 0.4960 0.1388 0.5628
C43_6 C 0.8953(6) 0.0275(14) 0.6445(4)
F1_6 F 0.9253(5) 0.0020(6) 0.6062(6)
F2_6 F 0.9177(2) 0.0968(6) 0.6653(3)
N1_7 N 0.48806(13) 0.0713(3) 0.63116(10)
N5_7 N 0.38666(12) 0.1049(3) 0.62354(10)
N8_7 N 0.44032(13) 0.0293(3) 0.55990(10)
O2_6 O 0.8083(3) 0.0468(5) 0.6627(3)
O3_6 O 0.8428(3) 0.1221(6) 0.5934(5)
S1_6 S 0.83883(6) 0.02383(12) 0.63228(5)
C35_6 C 0.43180(17) 0.9531(4) 0.99196(13)
H24_6 H 0.4204 0.9624 0.9653
H25_6 H 0.4872 0.8353 0.9887
C1_8 C 0.51247(18) 0.8268(4) 0.35696(13)
H1_8 H 0.5417 0.7838 0.3563
C2_7 C 0.46514(18) 0.7918(4) 0.34568(17)
H2_7 H 0.4565 0.7225 0.3368
C3_7 C 0.43330(17) 0.8773(4) 0.34997(15)
H3_7 H 0.3985 0.8786 0.3442
C4_7 C 0.46250(15) 0.9628(4) 0.36470(12)
H10_7 H 0.3616 0.9953 0.4102
C19_8 C 0.62831(17) 0.9206(4) 0.30444(13)
C20_8 C 0.63569(16) 0.8665(4) 0.34032(13)
C21_8 C 0.66677(18) 0.7771(4) 0.34766(16)
H14_8 H 0.6871 0.7417 0.3285
C22_8 C 0.6622(2) 0.7509(4) 0.38703(16)
H15_8 H 0.6779 0.6934 0.4005
C23_8 C 0.62941(17) 0.8269(4) 0.40360(13)
H16_8 H 0.6200 0.8288 0.4310
C24_8 C 0.65366(18) 0.8782(5) 0.26794(13)
C25_8 C 0.68768(19) 0.9366(4) 0.24656(15)
C26_8 C 0.70813(19) 0.8970(5) 0.21189(14)
H18_8 H 0.7319 0.9387 0.1978
C27_8 C 0.6633(3) 0.7429(5) 0.21921(16)
H19_8 H 0.6552 0.6738 0.2098
C28_8 C 0.6418(2) 0.7776(5) 0.25406(16)
H20_8 H 0.6192 0.7335 0.2684
C35_7 C 0.56820(17) 0.9531(4) 0.50804(13)
H24_7 H 0.5796 0.9624 0.5347
C36_8 C 0.53144(18) 0.8834(4) 0.49522(13)
H25_7 H 0.5128 0.8353 0.5113
C37_8 C 0.52718(16) 0.8982(3) 0.45365(13)
H26_8 H 0.5040 0.8612 0.4372
C43_7 C 0.1047(6) 0.9725(14) 0.3555(4)
F1_7 F 0.0747(5) 0.9980(6) 0.3938(6)
F2_7 F 0.0823(2) 0.9032(6) 0.3347(3)
N1_8 N 0.51194(13) 0.9287(3) 0.36884(10)
N5_8 N 0.61334(12) 0.8951(3) 0.37646(10)
N6_4 N 0.69561(17) 0.8025(4) 0.19759(12)
N8_8 N 0.55968(13) 0.9707(3) 0.44010(10)
O2_7 O 0.1917(3) 0.9532(5) 0.3373(3)
O3_7 O 0.1572(3) 0.8779(6) 0.4066(5)
S1_7 S 0.16117(6) 0.97617(12) 0.36772(5)
Ag3_4 Ag 0.719920(14) 0.74111(3) 0.137680(10)
C38_8 C 0.64714(17) 0.8802(4) 0.00935(12)
C39_8 C 0.69636(19) 0.9020(4) 0.02037(14)
H27_8 H 0.7169 0.9450 0.0038
C40_8 C 0.71485(18) 0.8612(4) 0.05517(14)
H28_8 H 0.7484 0.8775 0.0623
C41_8 C 0.64067(17) 0.7786(4) 0.06967(13)
H29_8 H 0.6211 0.7350 0.0868
C42_8 C 0.61858(17) 0.8179(4) 0.03513(13)
H30_8 H 0.5846 0.8025 0.0292
N9_4 N 0.68790(15) 0.7988(3) 0.08002(11)
C2_8 C 0.96514(18) 0.2918(4) 0.15432(17)
H2_8 H 0.9565 0.2225 0.1632
C3_8 C 0.93330(17) 0.3773(4) 0.15003(15)
H3_8 H 0.8985 0.3786 0.1558
C4_8 C 0.96250(15) 0.4628(4) 0.13530(12)
C5_8 C 0.94601(15) 0.5646(4) 0.12524(12)
C6_8 C 0.97547(16) 0.6439(3) 0.10890(12)
C7_8 C 0.95934(18) 0.7472(4) 0.09729(13)
H4_8 H 0.9262 0.7742 0.0988
C10_8 C 0.89252(16) 0.5905(4) 0.13214(12)
C11_8 C 0.87912(16) 0.6610(4) 0.16232(12)
H7_8 H 0.9037 0.6890 0.1799
C12_8 C 0.82915(17) 0.6896(4) 0.16621(13)
H8_8 H 0.8204 0.7381 0.1868
C13_8 C 0.80574(18) 0.5822(4) 0.11541(15)
H9_8 H 0.7802 0.5531 0.0990
C14_8 C 0.85451(17) 0.5478(4) 0.10940(15)
H10_8 H 0.8616 0.4953 0.0898
C43_8 C 0.6047(6) 0.4725(14) 0.1445(4)
F1_8 F 0.5747(5) 0.4980(6) 0.1062(6)
F2_8 F 0.5823(2) 0.4032(6) 0.1653(3)
F3_8 F 0.5948(3) 0.5657(9) 0.1719(6)
N3_8 N 0.79282(14) 0.6530(3) 0.14268(11)
O1_8 O 0.6662(4) 0.5780(6) 0.1200(4)
O2_8 O 0.6917(3) 0.4532(5) 0.1627(3)
O3_8 O 0.6572(3) 0.3779(6) 0.0934(5)
S1_8 S 0.66117(6) 0.47617(12) 0.13228(5)
C35_8 C 0.56820(17) 0.0469(4) 0.00804(13)
H24_8 H 0.5796 0.0376 0.0347
H25_8 H 0.5128 0.1647 0.0113
loop_
_geom_bond_atom_site_label_1
_geom_bond_atom_site_label_2
_geom_bond_site_symmetry_1
_geom_bond_site_symmetry_2
C1 H1 1_555 1_555
H5 C8 1_555 1_555
C9 C8 1_555 1_555
H6 C9 1_555 1_555
C15 H11 1_555 1_555
C16 C15 1_555 1_555
H12 C16 1_555 1_555
C17 C16 1_555 1_555
H13 C17 1_555 1_555
C18 C17 1_555 1_555
C19 C18 1_555 1_555
C20 C19 1_555 1_555
C21 C20 1_555 1_555
H14 C21 1_555 1_555
C22 C21 1_555 1_555
H15 C22 1_555 1_555
C23 C22 1_555 1_555
H16 C23 1_555 1_555
C24 C19 1_555 1_555
C25 C24 1_555 1_555
H17 C25 1_555 1_555
C26 C25 1_555 1_555
H18 C26 1_555 1_555
C27 H19 1_555 1_555
C28 C24 1_555 1_555
H20 C28 1_555 1_555
C29 H21 1_555 1_555
C30 C29 1_555 1_555
H22 C30 1_555 1_555
C31 C30 1_555 1_555
H23 C31 1_555 1_555
C32 C31 1_555 1_555
C33 C32 1_555 1_555
C34 C33 1_555 1_555
C35 C34 1_555 1_555
H24 C35 1_555 1_555
C36 C35 1_555 1_555
H25 C36 1_555 1_555
C37 C36 1_555 1_555
H26 C37 1_555 1_555
C38 C33 1_555 1_555
C39 C38 1_555 1_555
H27 C39 1_555 1_555
C40 C39 1_555 1_555
H28 C40 1_555 1_555
C41 H29 1_555 1_555
C42 C38 1_555 1_555
H30 C42 1_555 1_555
Co1 N1 1_555 1_555
N1 C1 1_555 1_555
N4 C15 1_555 1_555
N5 C20 1_555 1_555
N6 C26 1_555 1_555
N7 C29 1_555 1_555
N8 C34 1_555 1_555
N9 C40 1_555 1_555
Ag2 N9 1_555 1_555
Ag3 N6 1_555 1_555
C9 N2 1_555 1_555
C18 N4 1_555 1_555
C23 N5 1_555 1_555
C27 C28 1_555 1_555
C27 N6 1_555 1_555
C32 N7 1_555 1_555
C37 N8 1_555 1_555
C41 C42 1_555 1_555
C41 N9 1_555 1_555
Co1 N2 1_555 1_555
Co1 N4 1_555 1_555
Co1 N5 1_555 1_555
Co1 N7 1_555 1_555
Co1 N8 1_555 1_555
Ag1 N3 1_555 1_555
H2 C2 1_555 1_555
C3 C2 1_555 1_555
H3 C3 1_555 1_555
C4 C3 1_555 1_555
C5 C4 1_555 1_555
C6 C5 1_555 1_555
C7 C6 1_555 1_555
H4 C7 1_555 1_555
C10 C5 1_555 1_555
C11 C10 1_555 1_555
H7 C11 1_555 1_555
C12 C11 1_555 1_555
H8 C12 1_555 1_555
C13 H9 1_555 1_555
C14 C10 1_555 1_555
H10 C14 1_555 1_555
C43 F1 1_555 1_555
F2 C43 1_555 1_555
F3 C43 1_555 1_555
N3 C12 1_555 1_555
O1 Ag1 1_555 1_555
O2 S1 1_555 1_555
O3 S1 1_555 1_555
S1 C43 1_555 1_555
N10 Ag1 1_555 1_555
N11 Ag1 1_555 1_555
C13 C14 1_555 1_555
C13 N3 1_555 1_555
O1 S1 1_555 1_555
Ag2 N3_2 1_555 1_555
C6_2 C5_2 1_555 1_555
C7_2 C6_2 1_555 1_555
H4_2 C7_2 1_555 1_555
C8_2 C7_2 1_555 1_555
H5_2 C8_2 1_555 1_555
C9_2 C8_2 1_555 1_555
H6_2 C9_2 1_555 1_555
C10_2 C5_2 1_555 1_555
C11_2 C10_2 1_555 1_555
H7_2 C11_2 1_555 1_555
C12_2 C11_2 1_555 1_555
H8_2 C12_2 1_555 1_555
C13_2 H9_2 1_555 1_555
C14_2 C10_2 1_555 1_555
C15_2 H11_2 1_555 1_555
C16_2 C15_2 1_555 1_555
H12_2 C16_2 1_555 1_555
C17_2 C16_2 1_555 1_555
H13_2 C17_2 1_555 1_555
C18_2 C17_2 1_555 1_555
C29_2 H21_2 1_555 1_555
C30_2 C29_2 1_555 1_555
H22_2 C30_2 1_555 1_555
C31_2 C30_2 1_555 1_555
H23_2 C31_2 1_555 1_555
C32_2 C31_2 1_555 1_555
C33_2 C32_2 1_555 1_555
C34_2 C33_2 1_555 1_555
C38_2 C33_2 1_555 1_555
C39_2 C38_2 1_555 1_555
H27_2 C39_2 1_555 1_555
C40_2 C39_2 1_555 1_555
H28_2 C40_2 1_555 1_555
C41_2 H29_2 1_555 1_555
C42_2 C38_2 1_555 1_555
H30_2 C42_2 1_555 1_555
N2_2 C6_2 1_555 1_555
N3_2 C12_2 1_555 1_555
N4_2 C15_2 1_555 1_555
N7_2 C29_2 1_555 1_555
N11 C40_2 1_555 1_555
O1_2 Ag2 1_555 1_555
N10_2 Ag2 1_555 1_555
C9_2 N2_2 1_555 1_555
C13_2 C14_2 1_555 1_555
C13_2 N3_2 1_555 1_555
C18_2 N4_2 1_555 1_555
C32_2 N7_2 1_555 1_555
C41_2 C42_2 1_555 1_555
C41_2 N11 1_555 1_555
Co1_2 N2_2 1_555 1_555
Co1_2 N4_2 1_555 1_555
Co1_2 N7_2 1_555 1_555
C1_2 H1_2 1_555 1_555
C2_2 C1_2 1_555 1_555
H2_2 C2_2 1_555 1_555
C3_2 C2_2 1_555 1_555
H3_2 C3_2 1_555 1_555
C4_2 C3_2 1_555 1_555
C20_2 C19_2 1_555 1_555
C21_2 C20_2 1_555 1_555
H14_2 C21_2 1_555 1_555
C22_2 C21_2 1_555 1_555
H15_2 C22_2 1_555 1_555
C23_2 C22_2 1_555 1_555
H16_2 C23_2 1_555 1_555
C24_2 C19_2 1_555 1_555
C25_2 C24_2 1_555 1_555
C26_2 C25_2 1_555 1_555
H18_2 C26_2 1_555 1_555
C27_2 H19_2 1_555 1_555
C28_2 C24_2 1_555 1_555
H20_2 C28_2 1_555 1_555
C37_2 C36_2 1_555 1_555
H26_2 C37_2 1_555 1_555
C43_2 F1_2 1_555 1_555
F2_2 C43_2 1_555 1_555
N1_2 C1_2 1_555 1_555
N5_2 C20_2 1_555 1_555
N10 C26_2 1_555 1_555
O2_2 S1_2 1_555 1_555
O3_2 S1_2 1_555 1_555
S1_2 C43_2 1_555 1_555
C4_2 N1_2 1_555 1_555
C23_2 N5_2 1_555 1_555
C27_2 C28_2 1_555 1_555
C27_2 N10 1_555 1_555
C37_2 N8_2 1_555 1_555
Ag3 N3_3 1_555 1_555
C6_3 C5_3 1_555 1_555
C7_3 C6_3 1_555 1_555
H4_3 C7_3 1_555 1_555
C8_3 C7_3 1_555 1_555
H5_3 C8_3 1_555 1_555
C9_3 C8_3 1_555 1_555
H6_3 C9_3 1_555 1_555
C10_3 C5_3 1_555 1_555
C11_3 C10_3 1_555 1_555
H7_3 C11_3 1_555 1_555
C12_3 C11_3 1_555 1_555
H8_3 C12_3 1_555 1_555
C13_3 H9_3 1_555 1_555
C14_3 C10_3 1_555 1_555
C15_3 H11_3 1_555 1_555
C16_3 C15_3 1_555 1_555
H12_3 C16_3 1_555 1_555
C17_3 C16_3 1_555 1_555
H13_3 C17_3 1_555 1_555
C18_3 C17_3 1_555 1_555
C29_3 H21_3 1_555 1_555
C30_3 C29_3 1_555 1_555
H22_3 C30_3 1_555 1_555
C31_3 C30_3 1_555 1_555
H23_3 C31_3 1_555 1_555
C32_3 C31_3 1_555 1_555
C33_3 C32_3 1_555 1_555
C34_3 C33_3 1_555 1_555
N2_3 C6_3 1_555 1_555
N3_3 C12_3 1_555 1_555
N4_3 C15_3 1_555 1_555
N7_3 C29_3 1_555 1_555
O1_3 Ag3 1_555 1_555
N11_2 Ag3 1_555 1_555
C9_3 N2_3 1_555 1_555
C13_3 C14_3 1_555 1_555
C13_3 N3_3 1_555 1_555
C18_3 N4_3 1_555 1_555
C32_3 N7_3 1_555 1_555
Co1_3 N2_3 1_555 1_555
Co1_3 N4_3 1_555 1_555
Co1_3 N7_3 1_555 1_555
C1_3 H1_3 1_555 1_555
H5_4 C8_4 1_555 1_555
C9_4 C8_4 1_555 1_555
H6_4 C9_4 1_555 1_555
C15_4 H11_4 1_555 1_555
C16_4 C15_4 1_555 1_555
H12_4 C16_4 1_555 1_555
C17_4 C16_4 1_555 1_555
H13_4 C17_4 1_555 1_555
C18_4 C17_4 1_555 1_555
C19_3 C18_4 1_555 1_555
C20_3 C19_3 1_555 1_555
C21_3 C20_3 1_555 1_555
H14_3 C21_3 1_555 1_555
C22_3 C21_3 1_555 1_555
H15_3 C22_3 1_555 1_555
C23_3 C22_3 1_555 1_555
H16_3 C23_3 1_555 1_555
C24_3 C19_3 1_555 1_555
C25_3 C24_3 1_555 1_555
H17_4 C25_3 1_555 1_555
C26_3 C25_3 1_555 1_555
H18_3 C26_3 1_555 1_555
C27_3 H19_3 1_555 1_555
C28_3 C24_3 1_555 1_555
H20_3 C28_3 1_555 1_555
C29_4 H21_4 1_555 1_555
C30_4 C29_4 1_555 1_555
H22_4 C30_4 1_555 1_555
C31_4 C30_4 1_555 1_555
H23_4 C31_4 1_555 1_555
C32_4 C31_4 1_555 1_555
C33_4 C32_4 1_555 1_555
C34_4 C33_4 1_555 1_555
C37_3 C36_3 1_555 1_555
H26_3 C37_3 1_555 1_555
Co1_4 N1_3 1_555 1_555
N1_3 C1_3 1_555 1_555
N4_4 C15_4 1_555 1_555
N5_3 C20_3 1_555 1_555
N10_2 C26_3 1_555 1_555
N7_4 C29_4 1_555 1_555
N8_3 C34_4 1_555 1_555
C9_4 N2_4 1_555 1_555
C18_4 N4_4 1_555 1_555
C23_3 N5_3 1_555 1_555
C27_3 C28_3 1_555 1_555
C27_3 N10_2 1_555 1_555
C32_4 N7_4 1_555 1_555
C37_3 N8_3 1_555 1_555
Co1_4 N2_4 1_555 1_555
Co1_4 N4_4 1_555 1_555
Co1_4 N5_3 1_555 1_555
Co1_4 N7_4 1_555 1_555
Co1_4 N8_3 1_555 1_555
H24_2 C35_2 1_555 1_555
C39_3 C38_3 1_555 1_555
H27_3 C39_3 1_555 1_555
C40_3 C39_3 1_555 1_555
H28_3 C40_3 1_555 1_555
C41_3 H29_3 1_555 1_555
C42_3 C38_3 1_555 1_555
H30_3 C42_3 1_555 1_555
N11_2 C40_3 1_555 1_555
C41_3 C42_3 1_555 1_555
C41_3 N11_2 1_555 1_555
Ag1_2 N3_4 1_555 1_555
C6_4 C5_4 1_555 1_555
C7_4 C6_4 1_555 1_555
H4_4 C7_4 1_555 1_555
C8_5 C7_4 1_555 1_555
H5_5 C8_5 1_555 1_555
C9_5 C8_5 1_555 1_555
H6_5 C9_5 1_555 1_555
C10_4 C5_4 1_555 1_555
C11_4 C10_4 1_555 1_555
H7_4 C11_4 1_555 1_555
C12_4 C11_4 1_555 1_555
H8_4 C12_4 1_555 1_555
C13_4 H9_4 1_555 1_555
C14_4 C10_4 1_555 1_555
C15_5 H11_5 1_555 1_555
C16_5 C15_5 1_555 1_555
H12_5 C16_5 1_555 1_555
C17_5 C16_5 1_555 1_555
H13_5 C17_5 1_555 1_555
C18_5 C17_5 1_555 1_555
C29_5 H21_5 1_555 1_555
C30_5 C29_5 1_555 1_555
H22_5 C30_5 1_555 1_555
C31_5 C30_5 1_555 1_555
H23_5 C31_5 1_555 1_555
C32_5 C31_5 1_555 1_555
C33_5 C32_5 1_555 1_555
C34_5 C33_5 1_555 1_555
N2_5 C6_4 1_555 1_555
N3_4 C12_4 1_555 1_555
N4_5 C15_5 1_555 1_555
N7_5 C29_5 1_555 1_555
O1_4 Ag1_2 1_555 1_555
N10_3 Ag1_2 1_555 1_555
N11_3 Ag1_2 1_555 1_555
C9_5 N2_5 1_555 1_555
C13_4 C14_4 1_555 1_555
C13_4 N3_4 1_555 1_555
C18_5 N4_5 1_555 1_555
C32_5 N7_5 1_555 1_555
Co1_5 N2_5 1_555 1_555
Co1_5 N4_5 1_555 1_555
Co1_5 N7_5 1_555 1_555
C1_4 H1_4 1_555 1_555
C2_3 C1_4 1_555 1_555
H2_3 C2_3 1_555 1_555
C3_3 C2_3 1_555 1_555
H3_3 C3_3 1_555 1_555
C4_3 C3_3 1_555 1_555
C20_4 C19_4 1_555 1_555
C21_4 C20_4 1_555 1_555
H14_4 C21_4 1_555 1_555
C22_4 C21_4 1_555 1_555
H15_4 C22_4 1_555 1_555
C23_4 C22_4 1_555 1_555
H16_4 C23_4 1_555 1_555
C24_4 C19_4 1_555 1_555
C25_4 C24_4 1_555 1_555
C26_4 C25_4 1_555 1_555
H18_4 C26_4 1_555 1_555
C27_4 H19_4 1_555 1_555
C28_4 C24_4 1_555 1_555
H20_4 C28_4 1_555 1_555
C37_4 C36_4 1_555 1_555
H26_4 C37_4 1_555 1_555
C43_3 F1_3 1_555 1_555
F2_3 C43_3 1_555 1_555
N1_4 C1_4 1_555 1_555
N5_4 C20_4 1_555 1_555
N6_2 C26_4 1_555 1_555
O2_3 S1_3 1_555 1_555
O3_3 S1_3 1_555 1_555
S1_3 C43_3 1_555 1_555
Ag3_2 N6_2 1_555 1_555
C4_3 N1_4 1_555 1_555
C23_4 N5_4 1_555 1_555
C27_4 C28_4 1_555 1_555
C27_4 N6_2 1_555 1_555
C37_4 N8_4 1_555 1_555
H24_3 C35_3 1_555 1_555
C39_4 C38_4 1_555 1_555
H27_4 C39_4 1_555 1_555
C40_4 C39_4 1_555 1_555
H28_4 C40_4 1_555 1_555
C41_4 H29_4 1_555 1_555
C42_4 C38_4 1_555 1_555
H30_4 C42_4 1_555 1_555
N11_3 C40_4 1_555 1_555
C41_4 C42_4 1_555 1_555
C41_4 N11_3 1_555 1_555
C1_5 H1_5 1_555 1_555
H5_6 C8_6 1_555 1_555
C9_6 C8_6 1_555 1_555
H6_6 C9_6 1_555 1_555
C15_6 H11_6 1_555 1_555
C16_6 C15_6 1_555 1_555
H12_6 C16_6 1_555 1_555
C17_6 C16_6 1_555 1_555
H13_6 C17_6 1_555 1_555
C18_6 C17_6 1_555 1_555
C19_5 C18_6 1_555 1_555
C20_5 C19_5 1_555 1_555
C21_5 C20_5 1_555 1_555
H14_5 C21_5 1_555 1_555
C22_5 C21_5 1_555 1_555
H15_5 C22_5 1_555 1_555
C23_5 C22_5 1_555 1_555
H16_5 C23_5 1_555 1_555
C24_5 C19_5 1_555 1_555
C25_5 C24_5 1_555 1_555
H17_6 C25_5 1_555 1_555
C26_5 C25_5 1_555 1_555
H18_5 C26_5 1_555 1_555
C27_5 H19_5 1_555 1_555
C28_5 C24_5 1_555 1_555
H20_5 C28_5 1_555 1_555
C29_6 H21_6 1_555 1_555
C30_6 C29_6 1_555 1_555
H22_6 C30_6 1_555 1_555
C31_6 C30_6 1_555 1_555
H23_6 C31_6 1_555 1_555
C32_6 C31_6 1_555 1_555
C33_6 C32_6 1_555 1_555
C34_6 C33_6 1_555 1_555
C37_5 C36_5 1_555 1_555
H26_5 C37_5 1_555 1_555
Co1_6 N1_5 1_555 1_555
N1_5 C1_5 1_555 1_555
N4_6 C15_6 1_555 1_555
N5_5 C20_5 1_555 1_555
N6_3 C26_5 1_555 1_555
N7_6 C29_6 1_555 1_555
N8_5 C34_6 1_555 1_555
Ag3_3 N6_3 1_555 1_555
C9_6 N2_6 1_555 1_555
C18_6 N4_6 1_555 1_555
C23_5 N5_5 1_555 1_555
C27_5 C28_5 1_555 1_555
C27_5 N6_3 1_555 1_555
C32_6 N7_6 1_555 1_555
C37_5 N8_5 1_555 1_555
Co1_6 N2_6 1_555 1_555
Co1_6 N4_6 1_555 1_555
Co1_6 N5_5 1_555 1_555
Co1_6 N7_6 1_555 1_555
Co1_6 N8_5 1_555 1_555
Ag3_2 N3_5 1_555 1_555
H2_4 C2_4 1_555 1_555
C3_4 C2_4 1_555 1_555
H3_4 C3_4 1_555 1_555
C4_4 C3_4 1_555 1_555
C5_5 C4_4 1_555 1_555
C6_5 C5_5 1_555 1_555
C7_5 C6_5 1_555 1_555
H4_5 C7_5 1_555 1_555
C10_5 C5_5 1_555 1_555
C11_5 C10_5 1_555 1_555
H7_5 C11_5 1_555 1_555
C12_5 C11_5 1_555 1_555
H8_5 C12_5 1_555 1_555
C13_5 H9_5 1_555 1_555
C14_5 C10_5 1_555 1_555
H10_4 C14_5 1_555 1_555
C43_4 F1_4 1_555 1_555
F2_4 C43_4 1_555 1_555
F3_5 C43_4 1_555 1_555
N3_5 C12_5 1_555 1_555
O1_5 Ag3_2 1_555 1_555
O2_4 S1_4 1_555 1_555
O3_4 S1_4 1_555 1_555
S1_4 C43_4 1_555 1_555
N11_4 Ag3_2 1_555 1_555
C13_5 C14_5 1_555 1_555
C13_5 N3_5 1_555 1_555
O1_5 S1_4 1_555 1_555
C1_6 H1_6 1_555 1_555
H5_7 C8_7 1_555 1_555
C9_7 C8_7 1_555 1_555
H6_7 C9_7 1_555 1_555
C15_7 H11_7 1_555 1_555
C16_7 C15_7 1_555 1_555
H12_7 C16_7 1_555 1_555
C17_7 C16_7 1_555 1_555
H13_7 C17_7 1_555 1_555
C18_7 C17_7 1_555 1_555
C19_6 C18_7 1_555 1_555
C20_6 C19_6 1_555 1_555
C21_6 C20_6 1_555 1_555
H14_6 C21_6 1_555 1_555
C22_6 C21_6 1_555 1_555
H15_6 C22_6 1_555 1_555
C23_6 C22_6 1_555 1_555
H16_6 C23_6 1_555 1_555
C24_6 C19_6 1_555 1_555
C25_6 C24_6 1_555 1_555
H17_7 C25_6 1_555 1_555
C26_6 C25_6 1_555 1_555
H18_6 C26_6 1_555 1_555
C27_6 H19_6 1_555 1_555
C28_6 C24_6 1_555 1_555
H20_6 C28_6 1_555 1_555
C29_7 H21_7 1_555 1_555
C30_7 C29_7 1_555 1_555
H22_7 C30_7 1_555 1_555
C31_7 C30_7 1_555 1_555
H23_7 C31_7 1_555 1_555
C32_7 C31_7 1_555 1_555
C33_7 C32_7 1_555 1_555
C34_7 C33_7 1_555 1_555
C35_4 C34_7 1_555 1_555
H24_4 C35_4 1_555 1_555
C36_6 C35_4 1_555 1_555
H25_4 C36_6 1_555 1_555
C37_6 C36_6 1_555 1_555
H26_6 C37_6 1_555 1_555
C38_5 C33_7 1_555 1_555
C39_5 C38_5 1_555 1_555
H27_5 C39_5 1_555 1_555
C40_5 C39_5 1_555 1_555
H28_5 C40_5 1_555 1_555
C41_5 H29_5 1_555 1_555
C42_5 C38_5 1_555 1_555
H30_5 C42_5 1_555 1_555
Co1_7 N1_6 1_555 1_555
N1_6 C1_6 1_555 1_555
N4_7 C15_7 1_555 1_555
N5_6 C20_6 1_555 1_555
N10_3 C26_6 1_555 1_555
N7_7 C29_7 1_555 1_555
N8_6 C34_7 1_555 1_555
N9_2 C40_5 1_555 1_555
Ag3_3 N9_2 1_555 1_555
C9_7 N2_7 1_555 1_555
C18_7 N4_7 1_555 1_555
C23_6 N5_6 1_555 1_555
C27_6 C28_6 1_555 1_555
C27_6 N10_3 1_555 1_555
C32_7 N7_7 1_555 1_555
C37_6 N8_6 1_555 1_555
C41_5 C42_5 1_555 1_555
C41_5 N9_2 1_555 1_555
Co1_7 N2_7 1_555 1_555
Co1_7 N4_7 1_555 1_555
Co1_7 N5_6 1_555 1_555
Co1_7 N7_7 1_555 1_555
Co1_7 N8_6 1_555 1_555
Ag3_3 N3_6 1_555 1_555
C6_6 C5_6 1_555 1_555
C7_6 C6_6 1_555 1_555
H4_6 C7_6 1_555 1_555
C8_8 C7_6 1_555 1_555
H5_8 C8_8 1_555 1_555
C9_8 C8_8 1_555 1_555
H6_8 C9_8 1_555 1_555
C10_6 C5_6 1_555 1_555
C11_6 C10_6 1_555 1_555
H7_6 C11_6 1_555 1_555
C12_6 C11_6 1_555 1_555
H8_6 C12_6 1_555 1_555
C13_6 H9_6 1_555 1_555
C14_6 C10_6 1_555 1_555
C15_8 H11_8 1_555 1_555
C16_8 C15_8 1_555 1_555
H12_8 C16_8 1_555 1_555
C17_8 C16_8 1_555 1_555
H13_8 C17_8 1_555 1_555
C18_8 C17_8 1_555 1_555
C29_8 H21_8 1_555 1_555
C30_8 C29_8 1_555 1_555
H22_8 C30_8 1_555 1_555
C31_8 C30_8 1_555 1_555
H23_8 C31_8 1_555 1_555
C32_8 C31_8 1_555 1_555
C33_8 C32_8 1_555 1_555
C34_8 C33_8 1_555 1_555
C38_6 C33_8 1_555 1_555
C39_6 C38_6 1_555 1_555
H27_6 C39_6 1_555 1_555
C40_6 C39_6 1_555 1_555
H28_6 C40_6 1_555 1_555
C41_6 H29_6 1_555 1_555
C42_6 C38_6 1_555 1_555
H30_6 C42_6 1_555 1_555
N2_8 C6_6 1_555 1_555
N3_6 C12_6 1_555 1_555
N4_8 C15_8 1_555 1_555
N7_8 C29_8 1_555 1_555
N11_4 C40_6 1_555 1_555
O1_6 Ag3_3 1_555 1_555
C9_8 N2_8 1_555 1_555
C13_6 C14_6 1_555 1_555
C13_6 N3_6 1_555 1_555
C18_8 N4_8 1_555 1_555
C32_8 N7_8 1_555 1_555
C41_6 C42_6 1_555 1_555
C41_6 N11_4 1_555 1_555
Co1_8 N2_8 1_555 1_555
Co1_8 N4_8 1_555 1_555
Co1_8 N7_8 1_555 1_555
C39_7 C38_7 1_555 1_555
H27_7 C39_7 1_555 1_555
C40_7 C39_7 1_555 1_555
H28_7 C40_7 1_555 1_555
C41_7 H29_7 1_555 1_555
C42_7 C38_7 1_555 1_555
H30_7 C42_7 1_555 1_555
N9_3 C40_7 1_555 1_555
Ag2_2 N9_3 1_555 1_555
C41_7 C42_7 1_555 1_555
C41_7 N9_3 1_555 1_555
Ag2_2 N3_7 1_555 1_555
H2_5 C2_5 1_555 1_555
C3_5 C2_5 1_555 1_555
H3_5 C3_5 1_555 1_555
C4_5 C3_5 1_555 1_555
C5_7 C4_5 1_555 1_555
C6_7 C5_7 1_555 1_555
C7_7 C6_7 1_555 1_555
H4_7 C7_7 1_555 1_555
C10_7 C5_7 1_555 1_555
C11_7 C10_7 1_555 1_555
H7_7 C11_7 1_555 1_555
C12_7 C11_7 1_555 1_555
H8_7 C12_7 1_555 1_555
C13_7 H9_7 1_555 1_555
C14_7 C10_7 1_555 1_555
H10_5 C14_7 1_555 1_555
C43_5 F1_5 1_555 1_555
F2_5 C43_5 1_555 1_555
F3_7 C43_5 1_555 1_555
N3_7 C12_7 1_555 1_555
O1_7 Ag2_2 1_555 1_555
O2_5 S1_5 1_555 1_555
O3_5 S1_5 1_555 1_555
S1_5 C43_5 1_555 1_555
N10_4 Ag2_2 1_555 1_555
C13_7 C14_7 1_555 1_555
C13_7 N3_7 1_555 1_555
O1_7 S1_5 1_555 1_555
C1_7 H1_7 1_555 1_555
C2_6 C1_7 1_555 1_555
H2_6 C2_6 1_555 1_555
C3_6 C2_6 1_555 1_555
H3_6 C3_6 1_555 1_555
C4_6 C3_6 1_555 1_555
C20_7 C19_7 1_555 1_555
C21_7 C20_7 1_555 1_555
H14_7 C21_7 1_555 1_555
C22_7 C21_7 1_555 1_555
H15_7 C22_7 1_555 1_555
C23_7 C22_7 1_555 1_555
H16_7 C23_7 1_555 1_555
C24_7 C19_7 1_555 1_555
C25_7 C24_7 1_555 1_555
C26_7 C25_7 1_555 1_555
H18_7 C26_7 1_555 1_555
C27_7 H19_7 1_555 1_555
C28_7 C24_7 1_555 1_555
H20_7 C28_7 1_555 1_555
H24_5 C35_5 1_555 1_555
C36_7 C35_5 1_555 1_555
H25_5 C36_7 1_555 1_555
C37_7 C36_7 1_555 1_555
H26_7 C37_7 1_555 1_555
C43_6 F1_6 1_555 1_555
F2_6 C43_6 1_555 1_555
N1_7 C1_7 1_555 1_555
N5_7 C20_7 1_555 1_555
N10_4 C26_7 1_555 1_555
O2_6 S1_6 1_555 1_555
O3_6 S1_6 1_555 1_555
S1_6 C43_6 1_555 1_555
C4_6 N1_7 1_555 1_555
C23_7 N5_7 1_555 1_555
C27_7 C28_7 1_555 1_555
C27_7 N10_4 1_555 1_555
C37_7 N8_7 1_555 1_555
H24_6 C35_6 1_555 1_555
C1_8 H1_8 1_555 1_555
C2_7 C1_8 1_555 1_555
H2_7 C2_7 1_555 1_555
C3_7 C2_7 1_555 1_555
H3_7 C3_7 1_555 1_555
C4_7 C3_7 1_555 1_555
C20_8 C19_8 1_555 1_555
C21_8 C20_8 1_555 1_555
H14_8 C21_8 1_555 1_555
C22_8 C21_8 1_555 1_555
H15_8 C22_8 1_555 1_555
C23_8 C22_8 1_555 1_555
H16_8 C23_8 1_555 1_555
C24_8 C19_8 1_555 1_555
C25_8 C24_8 1_555 1_555
C26_8 C25_8 1_555 1_555
H18_8 C26_8 1_555 1_555
C27_8 H19_8 1_555 1_555
C28_8 C24_8 1_555 1_555
H20_8 C28_8 1_555 1_555
H24_7 C35_7 1_555 1_555
C36_8 C35_7 1_555 1_555
H25_7 C36_8 1_555 1_555
C37_8 C36_8 1_555 1_555
H26_8 C37_8 1_555 1_555
C43_7 F1_7 1_555 1_555
F2_7 C43_7 1_555 1_555
N1_8 C1_8 1_555 1_555
N5_8 C20_8 1_555 1_555
N6_4 C26_8 1_555 1_555
O2_7 S1_7 1_555 1_555
O3_7 S1_7 1_555 1_555
S1_7 C43_7 1_555 1_555
Ag3_4 N6_4 1_555 1_555
C4_7 N1_8 1_555 1_555
C23_8 N5_8 1_555 1_555
C27_8 C28_8 1_555 1_555
C27_8 N6_4 1_555 1_555
C37_8 N8_8 1_555 1_555
C39_8 C38_8 1_555 1_555
H27_8 C39_8 1_555 1_555
C40_8 C39_8 1_555 1_555
H28_8 C40_8 1_555 1_555
C41_8 H29_8 1_555 1_555
C42_8 C38_8 1_555 1_555
H30_8 C42_8 1_555 1_555
N9_4 C40_8 1_555 1_555
Ag3_4 N9_4 1_555 1_555
C41_8 C42_8 1_555 1_555
C41_8 N9_4 1_555 1_555
Ag3_4 N3_8 1_555 1_555
H2_8 C2_8 1_555 1_555
C3_8 C2_8 1_555 1_555
H3_8 C3_8 1_555 1_555
C4_8 C3_8 1_555 1_555
C5_8 C4_8 1_555 1_555
C6_8 C5_8 1_555 1_555
C7_8 C6_8 1_555 1_555
H4_8 C7_8 1_555 1_555
C10_8 C5_8 1_555 1_555
C11_8 C10_8 1_555 1_555
H7_8 C11_8 1_555 1_555
C12_8 C11_8 1_555 1_555
H8_8 C12_8 1_555 1_555
C13_8 H9_8 1_555 1_555
C14_8 C10_8 1_555 1_555
H10_8 C14_8 1_555 1_555
C43_8 F1_8 1_555 1_555
F2_8 C43_8 1_555 1_555
F3_8 C43_8 1_555 1_555
N3_8 C12_8 1_555 1_555
O1_8 Ag3_4 1_555 1_555
O2_8 S1_8 1_555 1_555
O3_8 S1_8 1_555 1_555
S1_8 C43_8 1_555 1_555
C13_8 C14_8 1_555 1_555
C13_8 N3_8 1_555 1_555
O1_8 S1_8 1_555 1_555
H24_8 C35_8 1_555 1_555

#END
