
###############################################################################
#
# This file contains modified crystal structure data generated from the
# MOF subset of the Cambridge Structural Database (CSD) v543 
# hosted by the Cambridge Crystallographic Data Centre (CCDC).
#
# This work is licensed under the Creative Commons
# Attribution-NonCommercial-ShareAlike 4.0 International License.
# To view a copy of this license, visit
# http://creativecommons.org/licenses/by-nc-sa/4.0/
# or send a letter to
# Creative Commons, PO Box 1866, Mountain View, CA 94042, USA.
#
# CIF created using the CSD Python API on 29 September 2022
# The structure has been converted into the P1 space group
# The structure has a 3D framework
# The original CSD entry FIFMUE is in the hexagonal crystal system
# The original CSD entry FIFMUE is in a Sohncke space group
# The framework has been calculated to contain at least 10.0% void space
# The void calculation uses a probe of radius 1.32A, grid spacing 0.4
#
###############################################################################

data_FIFMUE
_chemical_formula_moiety         '(C151 H114 Co12 N18 O48)n'
_symmetry_cell_setting           triclinic
_symmetry_space_group_name_H-M   'P 1'
_symmetry_Int_Tables_number      1
_space_group_name_Hall           'P 1'
loop_
_symmetry_equiv_pos_site_id
_symmetry_equiv_pos_as_xyz
1 x,y,z
_cell_length_a                   15.6888(7)
_cell_length_b                   15.6888(7)
_cell_length_c                   21.7323(17)
_cell_angle_alpha                90
_cell_angle_beta                 90
_cell_angle_gamma                120
_cell_volume                     4632.5
loop_
_atom_site_label
_atom_site_type_symbol
_atom_site_fract_x
_atom_site_fract_y
_atom_site_fract_z
Co1 Co 0.47482(6) 0.18168(5) 0.17500(4)
Co2 Co 0.55155(6) 0.05830(5) 0.08380(3)
N2 N 0.3215(5) 0.0903(6) 0.1950(4)
O1 O 0.4535(3) 0.1105(3) 0.0948(2)
O2 O 0.3806(19) 0.174(2) 0.0504(6)
C9 C 0.4240(10) 0.1318(12) 0.0485(4)
C17 C 0.1611(9) 0.0628(17) 0.2127(8)
H12 H 0.1210 0.0895 0.2208
C18 C 0.2597(7) 0.1262(12) 0.2047(7)
H13 H 0.2844 0.1938 0.2058
N4 N 0.6510(5) 0.0060(7) 0.0671(3)
O9 O 0.4638(8) 0.2918(5) 0.2019(7)
O10 O 0.6182(4) 0.2725(6) 0.1532(3)
O11 O 0.6704(3) 0.2032(4) 0.0835(2)
O12 O 0.5587(5) 0.0261(4) 0.1765(3)
O13 O 0.4979(5) 0.0989(4) 0.2360(2)
N1 N 0.5036(5) 0.0572(5) 0.9879(3)
O5 O 0.6543(4) 0.3818(4) 0.8199(3)
O6 O 0.5328(3) 0.3296(3) 0.7502(2)
C1 C 0.5623(5) 0.2129(5) 0.8015(3)
C2 C 0.5221(5) 0.1362(5) 0.7581(3)
H1 H 0.5048 0.1470 0.7191
C3 C 0.5084(6) 0.0444(5) 0.7735(3)
C4 C 0.5285(6) 0.0274(5) 0.8333(3)
C5 C 0.5657(6) 0.1000(5) 0.8773(3)
C6 C 0.5863(6) 0.1946(5) 0.8593(3)
H3 H 0.6171 0.2463 0.8871
C7 C 0.5850(6) 0.0817(6) 0.9426(3)
H4 H 0.5989 0.0281 0.9423
H5 H 0.6437 0.1399 0.9571
C8 C 0.4734(11) 0.1314(13) 0.9876(4)
H6 H 0.4279 0.1182 0.9539
H7 H 0.5306 0.1958 0.9809
C12 C 0.5846(5) 0.3170(5) 0.7885(3)
Co4 Co 0.70686(8) 0.52518(6) 0.84167(4)
Co8 Co 0.50675(8) 0.44845(6) 0.75047(3)
O3 O 0.4332(5) 0.9189(4) 0.0811(5)
O4 O 0.2918(5) 0.8280(6) 0.0352(7)
C11 C 0.3794(7) 0.8960(6) 0.0369(6)
C14 C 0.2830(8) 0.9930(9) 0.1911(7)
H10 H 0.3233 0.9671 0.1814
C15 C 0.1811(11) 0.9285(12) 0.2016(9)
H11 H 0.1570 0.8610 0.2030
C16 C 0.1183(9) 0.9631(18) 0.2096(7)
C19 C 0.0111(13) 0.9207(14) 0.2167(9)
Co5 Co 0.18168(5) 0.70686(8) 0.00833(4)
O7 O 0.4413(5) 0.9739(4) 0.6765(3)
O8 O 0.5021(5) 0.9011(4) 0.7360(2)
H2 H 0.5165 0.9648 0.8437
C10 C 0.4171(9) 0.9547(12) 0.9796(6)
H8 H 0.3638 0.9598 0.9606
H9 H 0.4360 0.9192 0.9513
C13 C 0.4793(6) 0.9666(5) 0.7239(3)
Co3 Co 0.52518(6) 0.81832(5) 0.67500(4)
Co7 Co 0.44845(6) 0.94170(5) 0.58380(3)
N3 N 0.6450(5) 0.6510(5) 0.2338(3)
H14 H 0.9834 0.9602 0.2235
C20 C 0.9564(8) 0.8240(15) 0.2129(9)
H15 H 0.9833 0.7841 0.2049
C21 C 0.8487(7) 0.7828(14) 0.2222(7)
C22 C 0.8075(8) 0.6809(15) 0.2227(10)
H16 H 0.8485 0.6543 0.2184
C23 C 0.7077(7) 0.6185(10) 0.2293(7)
H17 H 0.6837 0.5510 0.2307
C24 C 0.6826(7) 0.7478(8) 0.2329(7)
H18 H 0.6407 0.7735 0.2365
C25 C 0.7839(10) 0.8120(10) 0.2267(9)
H19 H 0.8066 0.8792 0.2257
Co6 Co 0.49325(8) 0.55155(6) 0.25047(3)
Co1_2 Co 0.29314(8) 0.47482(6) 0.34167(4)
N1_2 N 0.4464(7) 0.5036(5) 0.1546(3)
N2_2 N 0.2312(8) 0.3215(5) 0.3617(4)
O1_2 O 0.3430(4) 0.4535(3) 0.2615(2)
O2_2 O 0.2066(28) 0.3806(19) 0.2171(6)
O3_2 O 0.5143(6) 0.4332(5) 0.2478(5)
C4_2 C 0.5011(8) 0.5285(6) -0.0000(3)
H2_2 H 0.5517 0.5165 0.0104
C5_2 C 0.4657(8) 0.5657(6) 0.0440(3)
C6_2 C 0.3917(8) 0.5863(6) 0.0260(3)
H3_2 H 0.3708 0.6171 0.0538
C7_2 C 0.5033(8) 0.5850(6) 0.1093(3)
H4_2 H 0.5708 0.5989 0.1090
H5_2 H 0.5038 0.6437 0.1238
C8_2 C 0.3420(17) 0.4734(11) 0.1543(4)
H6_2 H 0.3097 0.4279 0.1206
H7_2 H 0.3348 0.5306 0.1476
C9_2 C 0.2922(16) 0.4240(10) 0.2152(4)
C10_2 C 0.4624(15) 0.4171(9) 0.1463(6)
H8_2 H 0.4040 0.3638 0.1273
H9_2 H 0.5168 0.4360 0.1180
C11_2 C 0.4834(9) 0.3794(7) 0.2036(6)
C14_2 C 0.2900(12) 0.2830(8) 0.3578(7)
H10_2 H 0.3562 0.3233 0.3481
C15_2 C 0.2526(16) 0.1811(11) 0.3683(9)
H11_2 H 0.2960 0.1570 0.3697
C16_2 C 0.1552(20) 0.1183(9) 0.3763(7)
C17_2 C 0.0983(19) 0.1611(9) 0.3794(8)
H12_2 H 0.0315 0.1210 0.3875
C18_2 C 0.1335(14) 0.2597(7) 0.3714(7)
H13_2 H 0.0906 0.2844 0.3725
C19_2 C 0.0904(19) 0.0111(13) 0.3834(9)
O9_2 O 0.1720(9) 0.4638(8) 0.3685(7)
O10_2 O 0.3457(7) 0.6182(4) 0.3199(3)
O11_2 O 0.4672(5) 0.6704(3) 0.2502(2)
O12_2 O 0.5326(6) 0.5587(5) 0.3432(3)
O13_2 O 0.3990(6) 0.4979(5) 0.4027(2)
O5_2 O 0.2725(6) 0.6543(4) 0.9866(3)
O6_2 O 0.2032(4) 0.5328(3) 0.9169(2)
O7_2 O 0.4674(6) 0.4413(5) 0.8432(3)
O8_2 O 0.6010(6) 0.5021(5) 0.9027(2)
C1_2 C 0.3494(7) 0.5623(5) 0.9682(3)
C2_2 C 0.3859(7) 0.5221(5) 0.9248(3)
H1_2 H 0.3578 0.5048 0.8858
C3_2 C 0.4640(8) 0.5084(6) 0.9402(3)
C4_3 C 0.5011(8) 0.5285(6) 1.0000(3)
C12_2 C 0.2676(7) 0.5846(5) 0.9552(3)
C13_2 C 0.5127(8) 0.4793(6) 0.8906(3)
Co8_2 Co 0.05830(10) 0.50675(8) 0.91713(3)
N3_2 N 0.9940(7) 0.6450(5) 0.4005(3)
C24_2 C 0.9348(11) 0.6826(7) 0.3996(7)
H18_2 H 0.8672 0.6407 0.4032
C25_2 C 0.9719(14) 0.7839(10) 0.3934(9)
H19_2 H 0.9274 0.8066 0.3924
Co6_2 Co 0.94170(10) 0.49325(8) 0.41713(3)
O3_3 O 0.0811(4) 0.5143(6) 0.4144(5)
O7_3 O 0.0261(4) 0.4674(6) 0.0098(3)
O8_3 O 0.0989(4) 0.6010(6) 0.0693(2)
H2_3 H 0.0352 0.5517 0.1770
C10_3 C 0.0453(12) 0.4624(15) 0.3129(6)
H8_3 H 0.0402 0.4040 0.2939
H9_3 H 0.0808 0.5168 0.2846
C11_3 C 0.1040(6) 0.4834(9) 0.3702(6)
C13_3 C 0.0334(5) 0.5127(8) 0.0572(3)
C14_3 C 0.0070(9) 0.2900(12) 0.5244(7)
H10_3 H 0.0329 0.3562 0.5147
C15_3 C 0.0715(12) 0.2526(16) 0.5349(9)
H11_3 H 0.1390 0.2960 0.5363
C16_3 C 0.0369(18) 0.1552(20) 0.5429(7)
C19_3 C 0.0793(14) 0.0904(19) 0.5500(9)
H14_2 H 0.0398 0.0232 0.5568
C20_2 C 0.1760(15) 0.1324(17) 0.5462(9)
H15_2 H 0.2159 0.1992 0.5382
C21_2 C 0.2172(14) 0.0659(16) 0.5555(7)
C22_2 C 0.3191(15) 0.1266(17) 0.5560(10)
H16_2 H 0.3457 0.1942 0.5517
C23_2 C 0.3815(10) 0.0892(12) 0.5626(7)
H17_2 H 0.4490 0.1327 0.5640
N3_3 N 0.3490(5) 0.9940(7) 0.5671(3)
C24_3 C 0.2522(8) 0.9348(11) 0.5662(7)
H18_3 H 0.2265 0.8672 0.5698
C25_3 C 0.1880(10) 0.9719(14) 0.5600(9)
H19_3 H 0.1208 0.9274 0.5590
Co1_3 Co 0.81832(5) 0.29314(8) 0.50833(4)
N1_3 N 0.9428(5) 0.4464(7) 0.3212(3)
N2_3 N 0.9097(6) 0.2312(8) 0.5283(4)
O1_3 O 0.8895(3) 0.3430(4) 0.4281(2)
O2_3 O 0.826(2) 0.2066(28) 0.3837(6)
C1_3 C 0.7871(5) 0.3494(7) 0.1348(3)
C2_3 C 0.8638(5) 0.3859(7) 0.0914(3)
H1_3 H 0.8530 0.3578 0.0524
C3_3 C 0.9556(5) 0.4640(8) 0.1068(3)
C4_4 C 0.9726(5) 0.5011(8) 0.1666(3)
C5_3 C 0.9000(5) 0.4657(8) 0.2106(3)
C6_3 C 0.8054(5) 0.3917(8) 0.1926(3)
H3_3 H 0.7537 0.3708 0.2204
C7_3 C 0.9183(6) 0.5033(8) 0.2759(3)
H4_3 H 0.9719 0.5708 0.2756
H5_3 H 0.8601 0.5038 0.2904
C8_3 C 0.8686(13) 0.3420(17) 0.3209(4)
H6_3 H 0.8818 0.3097 0.2872
H7_3 H 0.8042 0.3348 0.3142
C9_3 C 0.8682(12) 0.2922(16) 0.3818(4)
C12_3 C 0.6830(5) 0.2676(7) 0.1218(3)
C17_3 C 0.9372(17) 0.0983(19) 0.5460(8)
H12_3 H 0.9105 0.0315 0.5541
C18_3 C 0.8738(12) 0.1335(14) 0.5380(7)
H13_3 H 0.8062 0.0906 0.5391
O9_3 O 0.7082(5) 0.1720(9) 0.5352(7)
O10_3 O 0.7275(6) 0.3457(7) 0.4866(3)
O11_3 O 0.7968(4) 0.4672(5) 0.4169(2)
O12_3 O 0.9739(4) 0.5326(6) 0.5098(3)
O13_3 O 0.9011(4) 0.3990(6) 0.5693(2)
N3_4 N 0.3550(5) 0.3490(5) 0.7338(3)
H14_3 H 0.0166 0.0398 0.7235
C20_3 C 0.0436(8) 0.1760(15) 0.7129(9)
H15_3 H 0.0167 0.2159 0.7049
C21_3 C 0.1513(7) 0.2172(14) 0.7222(7)
C22_3 C 0.1925(8) 0.3191(15) 0.7227(10)
H16_3 H 0.1515 0.3457 0.7184
C23_3 C 0.2923(7) 0.3815(10) 0.7293(7)
H17_3 H 0.3163 0.4490 0.7307
C24_4 C 0.3174(7) 0.2522(8) 0.7329(7)
H18_4 H 0.3593 0.2265 0.7365
C25_4 C 0.2161(10) 0.1880(10) 0.7267(9)
H19_4 H 0.1934 0.1208 0.7257
O3_4 O 0.5668(5) 0.0811(4) 0.5811(5)
H2_4 H 0.4835 0.0352 0.3437
C10_4 C 0.5829(9) 0.0453(12) 0.4796(6)
H8_4 H 0.6362 0.0402 0.4606
H9_4 H 0.5640 0.0808 0.4513
C11_4 C 0.6206(7) 0.1040(6) 0.5369(6)
C13_4 C 0.5207(6) 0.0334(5) 0.2239(3)
C14_4 C 0.7170(8) 0.0070(9) 0.6911(7)
H10_4 H 0.6767 0.0329 0.6814
C15_4 C 0.8189(11) 0.0715(12) 0.7016(9)
H11_4 H 0.8430 0.1390 0.7030
C16_4 C 0.8817(9) 0.0369(18) 0.7096(7)
C19_4 C 0.9889(13) 0.0793(14) 0.7167(9)
N1_4 N 0.4964(5) 0.9428(5) 0.4879(3)
N2_4 N 0.6785(5) 0.9097(6) 0.6950(4)
O1_4 O 0.5465(3) 0.8895(3) 0.5948(2)
O2_4 O 0.6194(19) 0.826(2) 0.5504(6)
C1_4 C 0.4377(5) 0.7871(5) 0.3015(3)
C2_4 C 0.4779(5) 0.8638(5) 0.2581(3)
H1_4 H 0.4952 0.8530 0.2191
C3_4 C 0.4916(6) 0.9556(5) 0.2735(3)
C4_5 C 0.4715(6) 0.9726(5) 0.3333(3)
C5_4 C 0.4343(6) 0.9000(5) 0.3773(3)
C6_4 C 0.4137(6) 0.8054(5) 0.3593(3)
H3_4 H 0.3829 0.7537 0.3871
C7_4 C 0.4150(6) 0.9183(6) 0.4426(3)
H4_4 H 0.4011 0.9719 0.4423
H5_4 H 0.3563 0.8601 0.4571
C8_4 C 0.5266(11) 0.8686(13) 0.4876(4)
H6_4 H 0.5721 0.8818 0.4539
H7_4 H 0.4694 0.8042 0.4809
C9_4 C 0.5760(10) 0.8682(12) 0.5485(4)
C12_4 C 0.4154(5) 0.6830(5) 0.2885(3)
C17_4 C 0.8389(9) 0.9372(17) 0.7127(8)
H12_4 H 0.8790 0.9105 0.7208
C18_4 C 0.7403(7) 0.8738(12) 0.7047(7)
H13_4 H 0.7156 0.8062 0.7058
O9_4 O 0.5362(8) 0.7082(5) 0.7019(7)
O10_4 O 0.3818(4) 0.7275(6) 0.6532(3)
O11_4 O 0.3296(3) 0.7968(4) 0.5835(2)
N3_5 N 0.0060(7) 0.3550(5) 0.9005(3)
C24_5 C 0.0652(11) 0.3174(7) 0.8996(7)
H18_5 H 0.1328 0.3593 0.9032
C25_5 C 0.0281(14) 0.2161(10) 0.8934(9)
H19_5 H 0.0726 0.1934 0.8924
N1_5 N 0.5536(7) 0.4964(5) 0.6546(3)
N2_5 N 0.7688(8) 0.6785(5) 0.8617(4)
O1_5 O 0.6570(4) 0.5465(3) 0.7615(2)
O2_5 O 0.7934(28) 0.6194(19) 0.7171(6)
O3_5 O 0.4857(6) 0.5668(5) 0.7478(5)
C1_5 C 0.6506(7) 0.4377(5) 0.4682(3)
C2_5 C 0.6141(7) 0.4779(5) 0.4248(3)
H1_5 H 0.6422 0.4952 0.3858
C3_5 C 0.5360(8) 0.4916(6) 0.4402(3)
C4_6 C 0.4989(8) 0.4715(6) 0.5000(3)
H2_5 H 0.4483 0.4835 0.5104
C5_5 C 0.5343(8) 0.4343(6) 0.5440(3)
C6_5 C 0.6083(8) 0.4137(6) 0.5260(3)
H3_5 H 0.6292 0.3829 0.5538
C7_5 C 0.4967(8) 0.4150(6) 0.6093(3)
H4_5 H 0.4292 0.4011 0.6090
H5_5 H 0.4962 0.3563 0.6238
C8_5 C 0.6580(17) 0.5266(11) 0.6543(4)
H6_5 H 0.6903 0.5721 0.6206
H7_5 H 0.6652 0.4694 0.6476
C9_5 C 0.7078(16) 0.5760(10) 0.7152(4)
C10_5 C 0.5376(15) 0.5829(9) 0.6463(6)
H8_5 H 0.5960 0.6362 0.6273
H9_5 H 0.4832 0.5640 0.6180
C11_5 C 0.5166(9) 0.6206(7) 0.7036(6)
C12_5 C 0.7324(7) 0.4154(5) 0.4552(3)
C13_5 C 0.4873(8) 0.5207(6) 0.3906(3)
C14_5 C 0.7100(12) 0.7170(8) 0.8578(7)
H10_5 H 0.6438 0.6767 0.8481
C15_5 C 0.7474(16) 0.8189(11) 0.8683(9)
H11_5 H 0.7040 0.8430 0.8697
C16_5 C 0.8448(20) 0.8817(9) 0.8763(7)
C17_5 C 0.9017(19) 0.8389(9) 0.8794(8)
H12_5 H 0.9685 0.8790 0.8875
C18_5 C 0.8665(14) 0.7403(7) 0.8714(7)
H13_5 H 0.9094 0.7156 0.8725
C19_5 C 0.9096(19) 0.9889(13) 0.8834(9)
O9_5 O 0.8280(9) 0.5362(8) 0.8685(7)
N2_6 N 0.0903(6) 0.7688(8) 0.0283(4)
C17_6 C 0.0628(17) 0.9017(19) 0.0460(8)
H12_6 H 0.0895 0.9685 0.0541
C18_6 C 0.1262(12) 0.8665(14) 0.0380(7)
H13_6 H 0.1938 0.9094 0.0391
N1_6 N 0.0572(5) 0.5536(7) 0.8212(3)
O1_6 O 0.1105(3) 0.6570(4) 0.9281(2)
O2_6 O 0.174(2) 0.7934(28) 0.8837(6)
C1_6 C 0.2129(5) 0.6506(7) 0.6348(3)
C2_6 C 0.1362(5) 0.6141(7) 0.5914(3)
H1_6 H 0.1470 0.6422 0.5524
C3_6 C 0.0444(5) 0.5360(8) 0.6068(3)
C4_7 C 0.0274(5) 0.4989(8) 0.6666(3)
C5_6 C 0.1000(5) 0.5343(8) 0.7106(3)
C6_6 C 0.1946(5) 0.6083(8) 0.6926(3)
H3_6 H 0.2463 0.6292 0.7204
C7_6 C 0.0817(6) 0.4967(8) 0.7759(3)
H4_6 H 0.0281 0.4292 0.7756
H5_6 H 0.1399 0.4962 0.7904
C8_6 C 0.1314(13) 0.6580(17) 0.8209(4)
H6_6 H 0.1182 0.6903 0.7872
H7_6 H 0.1958 0.6652 0.8142
C9_6 C 0.1318(12) 0.7078(16) 0.8818(4)
C12_6 C 0.3170(5) 0.7324(7) 0.6218(3)
C24_6 C 0.7478(8) 0.0652(11) 0.0662(7)
H18_6 H 0.7735 0.1328 0.0698
C25_6 C 0.8120(10) 0.0281(14) 0.0600(9)
H19_6 H 0.8792 0.0726 0.0590
O3_6 O 0.9189(4) 0.4857(6) 0.9144(5)
H2_6 H 0.9648 0.4483 0.6770
C10_6 C 0.9547(12) 0.5376(15) 0.8129(6)
H8_6 H 0.9598 0.5960 0.7939
H9_6 H 0.9192 0.4832 0.7846
C11_6 C 0.8960(6) 0.5166(9) 0.8702(6)
C13_6 C 0.9666(5) 0.4873(8) 0.5572(3)
H14_4 H 0.0232 0.9834 0.3902
C20_4 C 0.1324(17) 0.9564(8) 0.3796(9)
H15_4 H 0.1992 0.9833 0.3716
C21_4 C 0.0659(16) 0.8487(7) 0.3889(7)
C22_4 C 0.1266(17) 0.8075(8) 0.3894(10)
H16_4 H 0.1942 0.8485 0.3851
C23_4 C 0.0892(12) 0.7077(7) 0.3960(7)
H17_4 H 0.1327 0.6837 0.3974
H14_5 H 0.9768 0.0166 0.8902
C20_5 C 0.8676(17) 0.0436(8) 0.8796(9)
H15_5 H 0.8008 0.0167 0.8716
C21_5 C 0.9341(16) 0.1513(7) 0.8889(7)
C22_5 C 0.8734(17) 0.1925(8) 0.8894(10)
H16_5 H 0.8058 0.1515 0.8851
C23_5 C 0.9108(12) 0.2923(7) 0.8960(7)
H17_5 H 0.8673 0.3163 0.8974
C14_6 C 0.9930(9) 0.7100(12) 0.0244(7)
H10_6 H 0.9671 0.6438 0.0147
C15_6 C 0.9285(12) 0.7474(16) 0.0349(9)
H11_6 H 0.8610 0.7040 0.0363
C16_6 C 0.9631(18) 0.8448(20) 0.0429(7)
C19_6 C 0.9207(14) 0.9096(19) 0.0500(9)
H14_6 H 0.9602 0.9768 0.0568
C20_6 C 0.8240(15) 0.8676(17) 0.0462(9)
H15_6 H 0.7841 0.8008 0.0382
C21_6 C 0.7828(14) 0.9341(16) 0.0555(7)
C22_6 C 0.6809(15) 0.8734(17) 0.0560(10)
H16_6 H 0.6543 0.8058 0.0517
C23_6 C 0.6185(10) 0.9108(12) 0.0626(7)
H17_6 H 0.5510 0.8673 0.0640
loop_
_geom_bond_atom_site_label_1
_geom_bond_atom_site_label_2
_geom_bond_site_symmetry_1
_geom_bond_site_symmetry_2
Co1 N2 1_555 1_555
O1 Co1 1_555 1_555
O2 C9 1_555 1_555
C9 O1 1_555 1_555
H12 C17 1_555 1_555
C18 N2 1_555 1_555
H13 C18 1_555 1_555
N4 Co2 1_555 1_555
O9 Co1 1_555 1_555
O10 Co1 1_555 1_555
O11 Co2 1_555 1_555
O12 Co2 1_555 1_555
O13 Co1 1_555 1_555
Co2 O1 1_555 1_555
C17 C18 1_555 1_555
N1 C7 1_555 1_555
O5 C12 1_555 1_555
O6 C12 1_555 1_555
C1 C2 1_555 1_555
C2 H1 1_555 1_555
C3 C2 1_555 1_555
C4 C3 1_555 1_555
C5 C4 1_555 1_555
C6 C1 1_555 1_555
H3 C6 1_555 1_555
C7 C5 1_555 1_555
H4 C7 1_555 1_555
H5 C7 1_555 1_555
C8 N1 1_555 1_555
H6 C8 1_555 1_555
H7 C8 1_555 1_555
C12 C1 1_555 1_555
Co4 O5 1_555 1_555
Co8 O6 1_555 1_555
C5 C6 1_555 1_555
O4 C11 1_555 1_555
C11 O3 1_555 1_555
C14 H10 1_555 1_555
C15 C14 1_555 1_555
H11 C15 1_555 1_555
C16 C15 1_555 1_555
C19 C16 1_555 1_555
Co5 O4 1_555 1_555
O7 C13 1_555 1_555
O8 C13 1_555 1_555
H8 C10 1_555 1_555
H9 C10 1_555 1_555
Co3 O8 1_555 1_555
Co7 O7 1_555 1_555
N3 C23 1_555 1_555
H15 C20 1_555 1_555
C21 C20 1_555 1_555
C22 C21 1_555 1_555
H16 C22 1_555 1_555
C23 C22 1_555 1_555
H17 C23 1_555 1_555
C24 N3 1_555 1_555
H18 C24 1_555 1_555
C25 C21 1_555 1_555
H19 C25 1_555 1_555
Co6 N3 1_555 1_555
C24 C25 1_555 1_555
Co1_2 N2_2 1_555 1_555
Co6 N1_2 1_555 1_555
N1_2 C7_2 1_555 1_555
N2_2 C14_2 1_555 1_555
O1_2 Co1_2 1_555 1_555
O2_2 C9_2 1_555 1_555
O3_2 Co6 1_555 1_555
O9 C11_2 1_555 1_555
H2_2 C4_2 1_555 1_555
C5_2 C4_2 1_555 1_555
H3_2 C6_2 1_555 1_555
C7_2 C5_2 1_555 1_555
H4_2 C7_2 1_555 1_555
H5_2 C7_2 1_555 1_555
C8_2 N1_2 1_555 1_555
H6_2 C8_2 1_555 1_555
H7_2 C8_2 1_555 1_555
C9_2 O1_2 1_555 1_555
C10_2 N1_2 1_555 1_555
H8_2 C10_2 1_555 1_555
H9_2 C10_2 1_555 1_555
C11_2 O3_2 1_555 1_555
C14_2 H10_2 1_555 1_555
C15_2 C14_2 1_555 1_555
H11_2 C15_2 1_555 1_555
C16_2 C15_2 1_555 1_555
C17_2 C16_2 1_555 1_555
H12_2 C17_2 1_555 1_555
C18_2 N2_2 1_555 1_555
H13_2 C18_2 1_555 1_555
C19_2 C16_2 1_555 1_555
O9_2 Co1_2 1_555 1_555
O10_2 Co1_2 1_555 1_555
O11_2 Co6 1_555 1_555
O12_2 Co6 1_555 1_555
O13_2 Co1_2 1_555 1_555
Co6 O1_2 1_555 1_555
C5_2 C6_2 1_555 1_555
C8_2 C9_2 1_555 1_555
C10_2 C11_2 1_555 1_555
C17_2 C18_2 1_555 1_555
O5_2 C12_2 1_555 1_555
O6_2 C12_2 1_555 1_555
O7_2 C13_2 1_555 1_555
O8_2 C13_2 1_555 1_555
C1_2 C2_2 1_555 1_555
C2_2 H1_2 1_555 1_555
C3_2 C2_2 1_555 1_555
C4_3 C3_2 1_555 1_555
C12_2 C1_2 1_555 1_555
C13_2 C3_2 1_555 1_555
Co4 O8_2 1_555 1_555
Co8 O7_2 1_555 1_555
Co8_2 O6_2 1_555 1_555
C24_2 N3_2 1_555 1_555
H18_2 C24_2 1_555 1_555
H19_2 C25_2 1_555 1_555
Co6_2 N3_2 1_555 1_555
C24_2 C25_2 1_555 1_555
O9_2 C11_3 1_555 1_555
O7_3 C13_3 1_555 1_555
O8_3 C13_3 1_555 1_555
H8_3 C10_3 1_555 1_555
H9_3 C10_3 1_555 1_555
C11_3 O3_3 1_555 1_555
C14_3 H10_3 1_555 1_555
C15_3 C14_3 1_555 1_555
H11_3 C15_3 1_555 1_555
C16_3 C15_3 1_555 1_555
C19_3 C16_3 1_555 1_555
H14_2 C19_3 1_555 1_555
C20_2 C19_3 1_555 1_555
H15_2 C20_2 1_555 1_555
C21_2 C20_2 1_555 1_555
C22_2 C21_2 1_555 1_555
H16_2 C22_2 1_555 1_555
C23_2 C22_2 1_555 1_555
H17_2 C23_2 1_555 1_555
Co5 O8_3 1_555 1_555
C10_3 C11_3 1_555 1_555
C24_3 N3_3 1_555 1_555
H18_3 C24_3 1_555 1_555
H19_3 C25_3 1_555 1_555
Co7 N3_3 1_555 1_555
C24_3 C25_3 1_555 1_555
Co1_3 N2_3 1_555 1_555
Co6_2 N1_3 1_555 1_555
N1_3 C7_3 1_555 1_555
O1_3 Co1_3 1_555 1_555
O2_3 C9_3 1_555 1_555
O10 C12_3 1_555 1_555
O11 C12_3 1_555 1_555
C1_3 C2_3 1_555 1_555
C2_3 H1_3 1_555 1_555
C3_3 C2_3 1_555 1_555
C4_4 C3_3 1_555 1_555
C5_3 C4_4 1_555 1_555
C6_3 C1_3 1_555 1_555
H3_3 C6_3 1_555 1_555
C7_3 C5_3 1_555 1_555
H4_3 C7_3 1_555 1_555
H5_3 C7_3 1_555 1_555
C8_3 N1_3 1_555 1_555
H6_3 C8_3 1_555 1_555
H7_3 C8_3 1_555 1_555
C9_3 O1_3 1_555 1_555
C12_3 C1_3 1_555 1_555
H12_3 C17_3 1_555 1_555
C18_3 N2_3 1_555 1_555
H13_3 C18_3 1_555 1_555
O9_3 Co1_3 1_555 1_555
O10_3 Co1_3 1_555 1_555
O11_3 Co6_2 1_555 1_555
O12_3 Co6_2 1_555 1_555
O13_3 Co1_3 1_555 1_555
Co6_2 O1_3 1_555 1_555
C5_3 C6_3 1_555 1_555
C8_3 C9_3 1_555 1_555
C17_3 C18_3 1_555 1_555
N3_4 C23_3 1_555 1_555
H15_3 C20_3 1_555 1_555
C21_3 C20_3 1_555 1_555
C22_3 C21_3 1_555 1_555
H16_3 C22_3 1_555 1_555
C23_3 C22_3 1_555 1_555
H17_3 C23_3 1_555 1_555
C24_4 N3_4 1_555 1_555
H18_4 C24_4 1_555 1_555
C25_4 C21_3 1_555 1_555
H19_4 C25_4 1_555 1_555
Co8 N3_4 1_555 1_555
C24_4 C25_4 1_555 1_555
O9_3 C11_4 1_555 1_555
O12 C13_4 1_555 1_555
O13 C13_4 1_555 1_555
H8_4 C10_4 1_555 1_555
H9_4 C10_4 1_555 1_555
C11_4 O3_4 1_555 1_555
C14_4 H10_4 1_555 1_555
C15_4 C14_4 1_555 1_555
H11_4 C15_4 1_555 1_555
C16_4 C15_4 1_555 1_555
C19_4 C16_4 1_555 1_555
C10_4 C11_4 1_555 1_555
Co3 N2_4 1_555 1_555
Co7 N1_4 1_555 1_555
N1_4 C7_4 1_555 1_555
O1_4 Co3 1_555 1_555
O2_4 C9_4 1_555 1_555
O10_2 C12_4 1_555 1_555
O11_2 C12_4 1_555 1_555
C1_4 C2_4 1_555 1_555
C2_4 H1_4 1_555 1_555
C3_4 C2_4 1_555 1_555
C4_5 C3_4 1_555 1_555
C5_4 C4_5 1_555 1_555
C6_4 C1_4 1_555 1_555
H3_4 C6_4 1_555 1_555
C7_4 C5_4 1_555 1_555
H4_4 C7_4 1_555 1_555
H5_4 C7_4 1_555 1_555
C8_4 N1_4 1_555 1_555
H6_4 C8_4 1_555 1_555
H7_4 C8_4 1_555 1_555
C9_4 O1_4 1_555 1_555
C12_4 C1_4 1_555 1_555
H12_4 C17_4 1_555 1_555
C18_4 N2_4 1_555 1_555
H13_4 C18_4 1_555 1_555
O9_4 Co3 1_555 1_555
O10_4 Co3 1_555 1_555
O11_4 Co7 1_555 1_555
Co7 O1_4 1_555 1_555
C5_4 C6_4 1_555 1_555
C8_4 C9_4 1_555 1_555
C17_4 C18_4 1_555 1_555
C24_5 N3_5 1_555 1_555
H18_5 C24_5 1_555 1_555
H19_5 C25_5 1_555 1_555
Co8_2 N3_5 1_555 1_555
C24_5 C25_5 1_555 1_555
Co4 N2_5 1_555 1_555
Co8 N1_5 1_555 1_555
N1_5 C7_5 1_555 1_555
N2_5 C14_5 1_555 1_555
O1_5 Co4 1_555 1_555
O2_5 C9_5 1_555 1_555
O3_5 Co8 1_555 1_555
O9_4 C11_5 1_555 1_555
O10_3 C12_5 1_555 1_555
O11_3 C12_5 1_555 1_555
O12_2 C13_5 1_555 1_555
O13_2 C13_5 1_555 1_555
C1_5 C2_5 1_555 1_555
C2_5 H1_5 1_555 1_555
C3_5 C2_5 1_555 1_555
C4_6 C3_5 1_555 1_555
H2_5 C4_6 1_555 1_555
C5_5 C4_6 1_555 1_555
C6_5 C1_5 1_555 1_555
H3_5 C6_5 1_555 1_555
C7_5 C5_5 1_555 1_555
H4_5 C7_5 1_555 1_555
H5_5 C7_5 1_555 1_555
C8_5 N1_5 1_555 1_555
H6_5 C8_5 1_555 1_555
H7_5 C8_5 1_555 1_555
C9_5 O1_5 1_555 1_555
C10_5 N1_5 1_555 1_555
H8_5 C10_5 1_555 1_555
H9_5 C10_5 1_555 1_555
C11_5 O3_5 1_555 1_555
C12_5 C1_5 1_555 1_555
C13_5 C3_5 1_555 1_555
C14_5 H10_5 1_555 1_555
C15_5 C14_5 1_555 1_555
H11_5 C15_5 1_555 1_555
C16_5 C15_5 1_555 1_555
C17_5 C16_5 1_555 1_555
H12_5 C17_5 1_555 1_555
C18_5 N2_5 1_555 1_555
H13_5 C18_5 1_555 1_555
C19_5 C16_5 1_555 1_555
O9_5 Co4 1_555 1_555
Co8 O1_5 1_555 1_555
C5_5 C6_5 1_555 1_555
C8_5 C9_5 1_555 1_555
C10_5 C11_5 1_555 1_555
C17_5 C18_5 1_555 1_555
Co5 N2_6 1_555 1_555
H12_6 C17_6 1_555 1_555
C18_6 N2_6 1_555 1_555
H13_6 C18_6 1_555 1_555
C17_6 C18_6 1_555 1_555
Co8_2 N1_6 1_555 1_555
N1_6 C7_6 1_555 1_555
O2_6 C9_6 1_555 1_555
O10_4 C12_6 1_555 1_555
O11_4 C12_6 1_555 1_555
C1_6 C2_6 1_555 1_555
C2_6 H1_6 1_555 1_555
C3_6 C2_6 1_555 1_555
C4_7 C3_6 1_555 1_555
C5_6 C4_7 1_555 1_555
C6_6 C1_6 1_555 1_555
H3_6 C6_6 1_555 1_555
C7_6 C5_6 1_555 1_555
H4_6 C7_6 1_555 1_555
H5_6 C7_6 1_555 1_555
C8_6 N1_6 1_555 1_555
H6_6 C8_6 1_555 1_555
H7_6 C8_6 1_555 1_555
C9_6 O1_6 1_555 1_555
C12_6 C1_6 1_555 1_555
Co8_2 O1_6 1_555 1_555
C5_6 C6_6 1_555 1_555
C8_6 C9_6 1_555 1_555
C24_6 N4 1_555 1_555
H18_6 C24_6 1_555 1_555
H19_6 C25_6 1_555 1_555
C24_6 C25_6 1_555 1_555
O9_5 C11_6 1_555 1_555
O12_3 C13_6 1_555 1_555
O13_3 C13_6 1_555 1_555
H8_6 C10_6 1_555 1_555
H9_6 C10_6 1_555 1_555
C11_6 O3_6 1_555 1_555
C10_6 C11_6 1_555 1_555
H15_4 C20_4 1_555 1_555
C21_4 C20_4 1_555 1_555
C22_4 C21_4 1_555 1_555
H16_4 C22_4 1_555 1_555
C23_4 C22_4 1_555 1_555
H17_4 C23_4 1_555 1_555
H15_5 C20_5 1_555 1_555
C21_5 C20_5 1_555 1_555
C22_5 C21_5 1_555 1_555
H16_5 C22_5 1_555 1_555
C23_5 C22_5 1_555 1_555
H17_5 C23_5 1_555 1_555
C14_6 H10_6 1_555 1_555
C15_6 C14_6 1_555 1_555
H11_6 C15_6 1_555 1_555
C16_6 C15_6 1_555 1_555
C19_6 C16_6 1_555 1_555
H14_6 C19_6 1_555 1_555
C20_6 C19_6 1_555 1_555
H15_6 C20_6 1_555 1_555
C21_6 C20_6 1_555 1_555
C22_6 C21_6 1_555 1_555
H16_6 C22_6 1_555 1_555
C23_6 C22_6 1_555 1_555
H17_6 C23_6 1_555 1_555

#END
