
###############################################################################
#
# This file contains modified crystal structure data generated from the
# MOF subset of the Cambridge Structural Database (CSD) v543 
# hosted by the Cambridge Crystallographic Data Centre (CCDC).
#
# This work is licensed under the Creative Commons
# Attribution-NonCommercial-ShareAlike 4.0 International License.
# To view a copy of this license, visit
# http://creativecommons.org/licenses/by-nc-sa/4.0/
# or send a letter to
# Creative Commons, PO Box 1866, Mountain View, CA 94042, USA.
#
# CIF created using the CSD Python API on 29 September 2022
# The structure has been converted into the P1 space group
# The structure has a 3D framework
# The original CSD entry FIFMIS is in the hexagonal crystal system
# The original CSD entry FIFMIS is in a Sohncke space group
# The framework has been calculated to contain at least 10.0% void space
# The void calculation uses a probe of radius 1.32A, grid spacing 0.4
#
###############################################################################

data_FIFMIS
_chemical_formula_moiety         '(C150 H126 Co12 N18 O51)n'
_symmetry_cell_setting           triclinic
_symmetry_space_group_name_H-M   'P 1'
_symmetry_Int_Tables_number      1
_space_group_name_Hall           'P 1'
loop_
_symmetry_equiv_pos_site_id
_symmetry_equiv_pos_as_xyz
1 x,y,z
_cell_length_a                   15.9288(6)
_cell_length_b                   15.9288(6)
_cell_length_c                   21.3663(11)
_cell_angle_alpha                90
_cell_angle_beta                 90
_cell_angle_gamma                120
_cell_volume                     4694.9
loop_
_atom_site_label
_atom_site_type_symbol
_atom_site_fract_x
_atom_site_fract_y
_atom_site_fract_z
N3 N 0.3911(3) 0.3658(3) 0.97207(19)
C19 C 0.1128(6) 0.0101(5) 0.9795(3)
H14 H 0.0828 0.0456 0.9696
C20 C 0.2063(6) 0.0592(5) 0.9885(4)
H15 H 0.2365 0.0238 0.9980
C21 C 0.2685(5) 0.1653(4) 0.9851(3)
C22 C 0.3689(5) 0.2082(5) 0.9841(4)
H16 H 0.3974 0.1698 0.9886
C23 C 0.4260(5) 0.3058(5) 0.9767(3)
H17 H 0.4928 0.3317 0.9748
C24 C 0.2933(4) 0.3250(4) 0.9765(3)
H18 H 0.2671 0.3656 0.9748
C25 C 0.2321(5) 0.2291(5) 0.9833(3)
H19 H 0.1658 0.2053 0.9868
Co8 Co 0.48305(5) 0.51376(7) 0.94745(3)
O3 O 0.1012(3) 0.6168(3) 0.13741(16)
O4 O 0.1655(3) 0.7271(3) 0.21294(18)
O8 O 0.0446(3) 0.4603(3) 0.46331(17)
C10 C 0.0368(4) 0.5729(4) 0.2405(2)
H8 H 0.0644 0.5357 0.2577
H9 H 0.0274 0.6076 0.2746
C11 C 0.1073(4) 0.6459(4) 0.1928(2)
C14 C 0.0267(5) 0.7458(4) 0.0023(3)
H10 H 0.0528 0.7063 0.0111
H11 H 0.1543 0.8699 0.0043
Co3 Co 0.29315(7) 0.84656(5) 0.17483(3)
Co5 Co 0.15344(5) 0.44659(5) 0.50816(3)
Co7 Co 0.03071(5) 0.51695(5) 0.61412(3)
N4 N 0.0253(4) 0.3911(3) 0.13874(19)
O13 O 0.0304(3) 0.4884(3) 0.02725(15)
Co1 Co 0.84656(5) 0.55341(5) 0.00816(3)
Co2 Co 0.96929(5) 0.48305(5) 0.11412(3)
N1 N 0.9418(3) 0.5059(3) 0.21157(18)
O1 O 0.9123(3) 0.5739(3) 0.09744(15)
O2 O 0.8953(4) 0.6854(3) 0.1493(2)
O5 O 0.5899(3) 0.3607(4) 0.3593(2)
O6 O 0.6396(2) 0.4701(3) 0.43671(16)
O7 O 0.9696(3) 0.5116(3) 0.52725(15)
C1 C 0.7529(4) 0.4327(4) 0.3877(2)
C2 C 0.8192(4) 0.4567(4) 0.4357(2)
H1 H 0.8052 0.4704 0.4753
C3 C 0.9073(3) 0.4604(4) 0.4244(2)
C4 C 0.9282(4) 0.4439(4) 0.3637(2)
H2 H 0.9868 0.4463 0.3561
C5 C 0.8653(4) 0.4244(4) 0.3153(2)
C6 C 0.7762(4) 0.4159(4) 0.3277(2)
H3 H 0.7311 0.3988 0.2955
C7 C 0.8911(4) 0.4136(4) 0.2484(2)
H4 H 0.9321 0.3847 0.2494
H5 H 0.8319 0.3690 0.2265
C8 C 0.8825(5) 0.5527(5) 0.2071(3)
H6 H 0.8962 0.5949 0.2430
H7 H 0.8146 0.5030 0.2092
C9 C 0.8993(4) 0.6118(4) 0.1477(2)
C12 C 0.6525(3) 0.4209(4) 0.3962(2)
C13 C 0.9798(4) 0.4790(4) 0.4763(2)
Co4 Co 0.44659(5) 0.29315(7) 0.34149(3)
Co6 Co 0.51695(5) 0.48624(7) 0.44745(3)
O10 O 0.7271(3) 0.5616(4) 0.04627(18)
O11 O 0.7708(5) 0.4101(3) 0.0260(2)
O12 O 0.8305(4) 0.3604(2) 0.10338(16)
N2 N 0.9305(3) 0.7043(3) 0.9945(2)
C17 C 0.9519(6) 0.8606(5) 0.9757(3)
H12 H 0.9236 0.8980 0.9665
C18 C 0.8956(5) 0.7638(4) 0.9813(3)
H13 H 0.8291 0.7366 0.9757
O9 O 0.7799(3) 0.5321(3) 0.91849(18)
H20 H 0.7196 0.5102 0.9238
H21 H 0.7856 0.4976 0.8903
O14 O 0.9554(3) 0.5397(3) 0.96331(17)
O3_2 O 0.4844(4) 0.1012(3) 0.30408(16)
O4_2 O 0.4384(4) 0.1655(3) 0.37961(18)
O8_2 O 0.5843(4) 0.0446(3) 0.62998(17)
C10_2 C 0.4639(6) 0.0368(4) 0.4072(2)
H8_2 H 0.5287 0.0644 0.4244
H9_2 H 0.4198 0.0274 0.4413
C11_2 C 0.4614(6) 0.1073(4) 0.3595(2)
C14_2 C 0.2809(6) 0.0267(5) 0.1690(3)
H10_2 H 0.3465 0.0528 0.1778
C15 C 0.2444(6) 0.0881(5) 0.1645(4)
H11_2 H 0.2844 0.1543 0.1710
C16 C 0.1457(8) 0.0503(6) 0.1501(3)
C19_2 C 0.1027(8) 0.1128(6) 0.1462(3)
H14_2 H 0.0372 0.0828 0.1363
C20_2 C 0.1471(8) 0.2063(6) 0.1552(4)
H15_2 H 0.2127 0.2365 0.1647
C21_2 C 0.1032(6) 0.2685(5) 0.1518(3)
C22_2 C 0.1607(7) 0.3689(5) 0.1508(4)
H16_2 H 0.2276 0.3974 0.1553
C23_2 C 0.1202(7) 0.4260(5) 0.1434(3)
H17_2 H 0.1611 0.4928 0.1415
C25_2 C 0.0030(7) 0.2321(5) 0.1500(3)
Co5_2 Co 0.70685(7) 0.15344(5) 0.67483(3)
Co7_2 Co 0.51376(7) 0.03071(5) 0.78079(3)
N4_2 N 0.6342(5) 0.0253(4) 0.30540(19)
O13_2 O 0.5420(4) 0.0304(3) 0.19392(15)
Co2_2 Co 0.48624(7) 0.96929(5) 0.28079(3)
N1_2 N 0.4359(4) 0.9418(3) 0.37824(18)
N2_2 N 0.2262(4) 0.9305(3) 0.1612(2)
O1_2 O 0.3384(4) 0.9123(3) 0.26411(15)
O2_2 O 0.2099(5) 0.8953(4) 0.3160(2)
O5_2 O 0.2292(5) 0.5899(3) 0.5260(2)
O6_2 O 0.1695(4) 0.6396(2) 0.60338(16)
O7_2 O 0.4580(4) 0.9696(3) 0.69392(15)
C1_2 C 0.3202(6) 0.7529(4) 0.5544(2)
C2_2 C 0.3625(6) 0.8192(4) 0.6024(2)
H1_2 H 0.3348 0.8052 0.6420
C3_2 C 0.4469(5) 0.9073(3) 0.5911(2)
C4_2 C 0.4843(6) 0.9282(4) 0.5304(2)
H2_2 H 0.5405 0.9868 0.5228
C5_2 C 0.4409(6) 0.8653(4) 0.4820(2)
C6_2 C 0.3603(6) 0.7762(4) 0.4944(2)
H3_2 H 0.3323 0.7311 0.4622
C7_2 C 0.4775(6) 0.8911(4) 0.4151(2)
H4_2 H 0.5474 0.9321 0.4161
H5_2 H 0.4629 0.8319 0.3932
C8_2 C 0.3298(7) 0.8825(5) 0.3738(3)
H6_2 H 0.3013 0.8962 0.4097
H7_2 H 0.3116 0.8146 0.3759
C9_2 C 0.2875(6) 0.8993(4) 0.3144(2)
C12_2 C 0.2316(5) 0.6525(3) 0.5629(2)
C13_2 C 0.5008(6) 0.9798(4) 0.6430(2)
C17_2 C 0.0913(8) 0.9519(6) 0.1424(3)
H12_2 H 0.0256 0.9236 0.1332
C18_2 C 0.1318(6) 0.8956(5) 0.1480(3)
H13_2 H 0.0925 0.8291 0.1424
O9_2 O 0.2478(4) 0.7799(3) 0.08516(18)
H20_2 H 0.2094 0.7196 0.0905
H21_2 H 0.2880 0.7856 0.0570
O11_2 O 0.3607(6) 0.7708(5) 0.1926(2)
O12_2 O 0.4701(4) 0.8305(4) 0.27004(16)
O14_2 O 0.4157(4) 0.9554(3) 0.12998(17)
C24_2 C 0.9683(6) 0.2933(4) 0.1432(3)
H18_2 H 0.9015 0.2671 0.1415
H19_2 H 0.9605 0.1658 0.1535
N1_3 N 0.4941(3) 0.4359(4) 0.54490(18)
N2_3 N 0.2957(3) 0.2262(4) 0.3278(2)
O1_3 O 0.4261(3) 0.3384(4) 0.43077(15)
O2_3 O 0.3146(3) 0.2099(5) 0.4826(2)
O3_3 O 0.3832(3) 0.4844(4) 0.47074(16)
O4_3 O 0.2729(3) 0.4384(4) 0.54627(18)
O5_3 O 0.6393(4) 0.2292(5) 0.6926(2)
O6_3 O 0.5299(3) 0.1695(4) 0.77004(16)
O7_3 O 0.4884(3) 0.4580(4) 0.86058(15)
O8_3 O 0.5397(3) 0.5843(4) 0.79664(17)
C1_3 C 0.5673(4) 0.3202(6) 0.7210(2)
C2_3 C 0.5433(4) 0.3625(6) 0.7690(2)
H1_3 H 0.5296 0.3348 0.8086
C3_3 C 0.5396(4) 0.4469(5) 0.7577(2)
C4_3 C 0.5561(4) 0.4843(6) 0.6970(2)
H2_3 H 0.5537 0.5405 0.6894
C5_3 C 0.5756(4) 0.4409(6) 0.6486(2)
C6_3 C 0.5841(4) 0.3603(6) 0.6610(2)
H3_3 H 0.6012 0.3323 0.6288
C7_3 C 0.5864(4) 0.4775(6) 0.5817(2)
H4_3 H 0.6153 0.5474 0.5827
H5_3 H 0.6310 0.4629 0.5598
C8_3 C 0.4473(5) 0.3298(7) 0.5404(3)
H6_3 H 0.4051 0.3013 0.5763
H7_3 H 0.4970 0.3116 0.5425
C9_3 C 0.3882(4) 0.2875(6) 0.4810(2)
C10_3 C 0.4271(4) 0.4639(6) 0.5738(2)
H8_3 H 0.4643 0.5287 0.5910
H9_3 H 0.3924 0.4198 0.6079
C11_3 C 0.3541(4) 0.4614(6) 0.5261(2)
C12_3 C 0.5791(4) 0.2316(5) 0.7295(2)
C13_3 C 0.5210(4) 0.5008(6) 0.8096(2)
C14_3 C 0.2542(4) 0.2809(6) 0.3356(3)
H10_3 H 0.2937 0.3465 0.3444
C15_2 C 0.1563(4) 0.2444(6) 0.3311(4)
H11_3 H 0.1301 0.2844 0.3376
C16_2 C 0.0954(5) 0.1457(8) 0.3167(3)
C17_3 C 0.1394(5) 0.0913(8) 0.3090(3)
H12_3 H 0.1020 0.0256 0.2998
C18_3 C 0.2362(4) 0.1318(6) 0.3146(3)
H13_3 H 0.2634 0.0925 0.3090
O9_3 O 0.4679(3) 0.2478(4) 0.25182(18)
H20_3 H 0.4898 0.2094 0.2571
H21_3 H 0.5024 0.2880 0.2236
Co5_3 Co 0.55341(5) 0.70685(7) 0.84149(3)
N4_3 N 0.6089(3) 0.6342(5) 0.47207(19)
O13_3 O 0.5116(3) 0.5420(4) 0.36058(15)
O14_3 O 0.4603(3) 0.4157(4) 0.29664(17)
C19_3 C 0.9899(5) 0.1027(8) 0.3128(3)
H14_3 H 0.9544 0.0372 0.3029
C20_3 C 0.9408(5) 0.1471(8) 0.3218(4)
H15_3 H 0.9762 0.2127 0.3313
C21_3 C 0.8347(4) 0.1032(6) 0.3184(3)
C22_3 C 0.7918(5) 0.1607(7) 0.3174(4)
H16_3 H 0.8302 0.2276 0.3219
C23_3 C 0.6942(5) 0.1202(7) 0.3100(3)
H17_3 H 0.6683 0.1611 0.3081
C25_3 C 0.7709(5) 0.0030(7) 0.3166(3)
C24_3 C 0.6750(4) 0.9683(6) 0.3098(3)
H18_3 H 0.6344 0.9015 0.3081
H19_3 H 0.7947 0.9605 0.3201
N1_4 N 0.0582(3) 0.4941(3) 0.71157(18)
N2_4 N 0.0695(3) 0.2957(3) 0.4945(2)
O1_4 O 0.0877(3) 0.4261(3) 0.59744(15)
O2_4 O 0.1047(4) 0.3146(3) 0.6493(2)
O5_4 O 0.4101(3) 0.6393(4) 0.8593(2)
O6_4 O 0.3604(2) 0.5299(3) 0.93671(16)
C1_4 C 0.2471(4) 0.5673(4) 0.8877(2)
C2_4 C 0.1808(4) 0.5433(4) 0.9357(2)
H1_4 H 0.1948 0.5296 0.9753
C3_4 C 0.0927(3) 0.5396(4) 0.9244(2)
C4_4 C 0.0718(4) 0.5561(4) 0.8637(2)
H2_4 H 0.0132 0.5537 0.8561
C5_4 C 0.1347(4) 0.5756(4) 0.8153(2)
C6_4 C 0.2238(4) 0.5841(4) 0.8277(2)
H3_4 H 0.2689 0.6012 0.7955
C7_4 C 0.1089(4) 0.5864(4) 0.7484(2)
H4_4 H 0.0679 0.6153 0.7494
H5_4 H 0.1681 0.6310 0.7265
C8_4 C 0.1175(5) 0.4473(5) 0.7071(3)
H6_4 H 0.1038 0.4051 0.7430
H7_4 H 0.1854 0.4970 0.7092
C9_4 C 0.1007(4) 0.3882(4) 0.6477(2)
C12_4 C 0.3475(3) 0.5791(4) 0.8962(2)
C13_4 C 0.0202(4) 0.5210(4) 0.9763(2)
C17_4 C 0.0481(6) 0.1394(5) 0.4757(3)
H12_4 H 0.0764 0.1020 0.4665
C18_4 C 0.1044(5) 0.2362(4) 0.4813(3)
H13_4 H 0.1709 0.2634 0.4757
O9_4 O 0.2201(3) 0.4679(3) 0.41849(18)
H20_4 H 0.2804 0.4898 0.4238
H21_4 H 0.2144 0.5024 0.3903
O3_4 O 0.8988(3) 0.3832(3) 0.63741(16)
O4_4 O 0.8345(3) 0.2729(3) 0.71294(18)
C10_4 C 0.9632(4) 0.4271(4) 0.7405(2)
H8_4 H 0.9356 0.4643 0.7577
H9_4 H 0.9726 0.3924 0.7746
C11_4 C 0.8927(4) 0.3541(4) 0.6928(2)
C14_4 C 0.9733(5) 0.2542(4) 0.5023(3)
H10_4 H 0.9472 0.2937 0.5111
C15_3 C 0.9119(5) 0.1563(4) 0.4978(4)
H11_4 H 0.8457 0.1301 0.5043
C16_3 C 0.9497(6) 0.0954(5) 0.4834(3)
N4_4 N 0.9747(4) 0.6089(3) 0.63874(19)
C19_4 C 0.8872(6) 0.9899(5) 0.4795(3)
H14_4 H 0.9172 0.9544 0.4696
C20_4 C 0.7937(6) 0.9408(5) 0.4885(4)
H15_4 H 0.7635 0.9762 0.4980
C21_4 C 0.7315(5) 0.8347(4) 0.4851(3)
C22_4 C 0.6311(5) 0.7918(5) 0.4841(4)
H16_4 H 0.6026 0.8302 0.4886
C23_4 C 0.5740(5) 0.6942(5) 0.4767(3)
H17_4 H 0.5072 0.6683 0.4748
C24_4 C 0.7067(4) 0.6750(4) 0.4765(3)
H18_4 H 0.7329 0.6344 0.4748
C25_4 C 0.7679(5) 0.7709(5) 0.4833(3)
H19_4 H 0.8342 0.7947 0.4868
C24_5 C 0.0317(6) 0.7067(4) 0.6432(3)
H18_5 H 0.0985 0.7329 0.6415
H19_5 H 0.0395 0.8342 0.6535
C1_5 C 0.6798(6) 0.2471(4) 0.0544(2)
C2_5 C 0.6375(6) 0.1808(4) 0.1024(2)
H1_5 H 0.6652 0.1948 0.1420
C3_5 C 0.5531(5) 0.0927(3) 0.0911(2)
C4_5 C 0.5157(6) 0.0718(4) 0.0304(2)
H2_5 H 0.4595 0.0132 0.0228
C12_5 C 0.7684(5) 0.3475(3) 0.0629(2)
C13_5 C 0.4992(6) 0.0202(4) 0.1430(2)
N1_5 N 0.5641(4) 0.0582(3) 0.87824(18)
N2_5 N 0.7738(4) 0.0695(3) 0.6612(2)
O1_5 O 0.6616(4) 0.0877(3) 0.76411(15)
O2_5 O 0.7901(5) 0.1047(4) 0.8160(2)
C5_5 C 0.5591(6) 0.1347(4) 0.9820(2)
C6_5 C 0.6397(6) 0.2238(4) 0.9944(2)
H3_5 H 0.6677 0.2689 0.9622
C7_5 C 0.5225(6) 0.1089(4) 0.9151(2)
H4_5 H 0.4526 0.0679 0.9161
H5_5 H 0.5371 0.1681 0.8932
C8_5 C 0.6702(7) 0.1175(5) 0.8738(3)
H6_5 H 0.6987 0.1038 0.9097
H7_5 H 0.6884 0.1854 0.8759
C9_5 C 0.7125(6) 0.1007(4) 0.8144(2)
C17_5 C 0.9087(8) 0.0481(6) 0.6424(3)
H12_5 H 0.9744 0.0764 0.6332
C18_5 C 0.8682(6) 0.1044(5) 0.6480(3)
H13_5 H 0.9075 0.1709 0.6424
O9_5 O 0.7522(4) 0.2201(3) 0.58516(18)
H20_5 H 0.7906 0.2804 0.5905
H21_5 H 0.7120 0.2144 0.5570
O3_5 O 0.5156(4) 0.8988(3) 0.80408(16)
O4_5 O 0.5616(4) 0.8345(3) 0.87961(18)
C10_5 C 0.5361(6) 0.9632(4) 0.9072(2)
H8_5 H 0.4713 0.9356 0.9244
H9_5 H 0.5802 0.9726 0.9413
C11_5 C 0.5386(6) 0.8927(4) 0.8595(2)
C14_5 C 0.7191(6) 0.9733(5) 0.6690(3)
H10_5 H 0.6535 0.9472 0.6778
C15_4 C 0.7556(6) 0.9119(5) 0.6645(4)
H11_5 H 0.7156 0.8457 0.6710
C16_4 C 0.8543(8) 0.9497(6) 0.6501(3)
C19_5 C 0.8973(8) 0.8872(6) 0.6462(3)
H14_5 H 0.9628 0.9172 0.6363
C20_5 C 0.8529(8) 0.7937(6) 0.6552(4)
H15_5 H 0.7873 0.7635 0.6647
C21_5 C 0.8968(6) 0.7315(5) 0.6518(3)
C22_5 C 0.8393(7) 0.6311(5) 0.6508(4)
H16_5 H 0.7724 0.6026 0.6553
C23_5 C 0.8798(7) 0.5740(5) 0.6434(3)
H17_5 H 0.8389 0.5072 0.6415
C25_5 C 0.9970(7) 0.7679(5) 0.6500(3)
N4_5 N 0.3658(5) 0.9747(4) 0.80540(19)
C24_6 C 0.3250(4) 0.0317(6) 0.8098(3)
H18_6 H 0.3656 0.0985 0.8081
H19_6 H 0.2053 0.0395 0.8201
C19_6 C 0.0101(5) 0.8973(8) 0.8128(3)
H14_6 H 0.0456 0.9628 0.8029
C20_6 C 0.0592(5) 0.8529(8) 0.8218(4)
H15_6 H 0.0238 0.7873 0.8313
C21_6 C 0.1653(4) 0.8968(6) 0.8184(3)
C22_6 C 0.2082(5) 0.8393(7) 0.8174(4)
H16_6 H 0.1698 0.7724 0.8219
C23_6 C 0.3058(5) 0.8798(7) 0.8100(3)
H17_6 H 0.3317 0.8389 0.8081
C25_6 C 0.2291(5) 0.9970(7) 0.8166(3)
N1_6 N 0.5059(3) 0.5641(4) 0.04490(18)
C1_6 C 0.4327(4) 0.6798(6) 0.2210(2)
C2_6 C 0.4567(4) 0.6375(6) 0.2690(2)
H1_6 H 0.4704 0.6652 0.3086
C3_6 C 0.4604(4) 0.5531(5) 0.2577(2)
C4_6 C 0.4439(4) 0.5157(6) 0.1970(2)
H2_6 H 0.4463 0.4595 0.1894
C5_6 C 0.4244(4) 0.5591(6) 0.1486(2)
C6_6 C 0.4159(4) 0.6397(6) 0.1610(2)
H3_6 H 0.3988 0.6677 0.1288
C7_6 C 0.4136(4) 0.5225(6) 0.0817(2)
H4_6 H 0.3847 0.4526 0.0827
H5_6 H 0.3690 0.5371 0.0598
C8_6 C 0.5527(5) 0.6702(7) 0.0404(3)
H6_6 H 0.5949 0.6987 0.0763
H7_6 H 0.5030 0.6884 0.0425
C10_6 C 0.5729(4) 0.5361(6) 0.0738(2)
H8_6 H 0.5357 0.4713 0.0910
H9_6 H 0.6076 0.5802 0.1079
C11_6 C 0.6459(4) 0.5386(6) 0.0261(2)
C12_6 C 0.4209(4) 0.7684(5) 0.2295(2)
C13_6 C 0.4790(4) 0.4992(6) 0.3096(2)
N2_6 N 0.7043(3) 0.7738(4) 0.8278(2)
O1_6 O 0.5739(3) 0.6616(4) 0.93077(15)
O2_6 O 0.6854(3) 0.7901(5) 0.9826(2)
O3_6 O 0.6168(3) 0.5156(4) 0.97074(16)
C9_6 C 0.6118(4) 0.7125(6) 0.9810(2)
C14_6 C 0.7458(4) 0.7191(6) 0.8356(3)
H10_6 H 0.7063 0.6535 0.8444
C15_5 C 0.8437(4) 0.7556(6) 0.8311(4)
H11_6 H 0.8699 0.7156 0.8376
C16_5 C 0.9046(5) 0.8543(8) 0.8167(3)
C17_6 C 0.8606(5) 0.9087(8) 0.8090(3)
H12_6 H 0.8980 0.9744 0.7998
C18_6 C 0.7638(4) 0.8682(6) 0.8146(3)
H13_6 H 0.7366 0.9075 0.8090
O9_6 O 0.5321(3) 0.7522(4) 0.75182(18)
H20_6 H 0.5102 0.7906 0.7571
H21_6 H 0.4976 0.7120 0.7236
C15_6 C 0.0881(5) 0.8437(4) 0.9978(4)
C16_6 C 0.0503(6) 0.9046(5) 0.9834(3)
loop_
_geom_bond_atom_site_label_1
_geom_bond_atom_site_label_2
_geom_bond_site_symmetry_1
_geom_bond_site_symmetry_2
N3 C23 1_555 1_555
H14 C19 1_555 1_555
C20 C19 1_555 1_555
H15 C20 1_555 1_555
C21 C20 1_555 1_555
C22 C21 1_555 1_555
H16 C22 1_555 1_555
C23 C22 1_555 1_555
H17 C23 1_555 1_555
C24 N3 1_555 1_555
H18 C24 1_555 1_555
C25 C21 1_555 1_555
H19 C25 1_555 1_555
Co8 N3 1_555 1_555
C24 C25 1_555 1_555
O4 C11 1_555 1_555
H8 C10 1_555 1_555
H9 C10 1_555 1_555
C11 O3 1_555 1_555
C14 H10 1_555 1_555
Co3 O4 1_555 1_555
Co5 O8 1_555 1_555
C10 C11 1_555 1_555
Co2 N1 1_555 1_555
N1 C7 1_555 1_555
O1 Co1 1_555 1_555
O2 C9 1_555 1_555
O5 C12 1_555 1_555
O6 C12 1_555 1_555
O7 C13 1_555 1_555
C1 C2 1_555 1_555
C2 H1 1_555 1_555
C3 C2 1_555 1_555
C4 C3 1_555 1_555
H2 C4 1_555 1_555
C5 C4 1_555 1_555
C6 C1 1_555 1_555
H3 C6 1_555 1_555
C7 C5 1_555 1_555
H4 C7 1_555 1_555
H5 C7 1_555 1_555
C8 N1 1_555 1_555
H6 C8 1_555 1_555
H7 C8 1_555 1_555
C9 O1 1_555 1_555
C12 C1 1_555 1_555
C13 C3 1_555 1_555
Co4 O5 1_555 1_555
Co6 O6 1_555 1_555
O10 Co1 1_555 1_555
O11 Co1 1_555 1_555
O12 Co2 1_555 1_555
Co2 O1 1_555 1_555
C5 C6 1_555 1_555
C8 C9 1_555 1_555
H12 C17 1_555 1_555
C18 N2 1_555 1_555
H13 C18 1_555 1_555
H20 O9 1_555 1_555
H21 O9 1_555 1_555
C17 C18 1_555 1_555
N4 C23_2 1_555 1_555
O4_2 C11_2 1_555 1_555
H8_2 C10_2 1_555 1_555
H9_2 C10_2 1_555 1_555
C11_2 O3_2 1_555 1_555
C14_2 H10_2 1_555 1_555
C15 C14_2 1_555 1_555
H11_2 C15 1_555 1_555
C16 C15 1_555 1_555
C19_2 C16 1_555 1_555
H14_2 C19_2 1_555 1_555
C20_2 C19_2 1_555 1_555
H15_2 C20_2 1_555 1_555
C21_2 C20_2 1_555 1_555
C22_2 C21_2 1_555 1_555
H16_2 C22_2 1_555 1_555
C23_2 C22_2 1_555 1_555
H17_2 C23_2 1_555 1_555
C25_2 C21_2 1_555 1_555
Co4 O4_2 1_555 1_555
Co5_2 O8_2 1_555 1_555
C10_2 C11_2 1_555 1_555
Co3 N2_2 1_555 1_555
Co2_2 N1_2 1_555 1_555
N1_2 C7_2 1_555 1_555
O1_2 Co3 1_555 1_555
O2_2 C9_2 1_555 1_555
O5_2 C12_2 1_555 1_555
O6_2 C12_2 1_555 1_555
O7_2 C13_2 1_555 1_555
C1_2 C2_2 1_555 1_555
C2_2 H1_2 1_555 1_555
C3_2 C2_2 1_555 1_555
C4_2 C3_2 1_555 1_555
H2_2 C4_2 1_555 1_555
C5_2 C4_2 1_555 1_555
C6_2 C1_2 1_555 1_555
H3_2 C6_2 1_555 1_555
C7_2 C5_2 1_555 1_555
H4_2 C7_2 1_555 1_555
H5_2 C7_2 1_555 1_555
C8_2 N1_2 1_555 1_555
H6_2 C8_2 1_555 1_555
H7_2 C8_2 1_555 1_555
C9_2 O1_2 1_555 1_555
C12_2 C1_2 1_555 1_555
C13_2 C3_2 1_555 1_555
H12_2 C17_2 1_555 1_555
C18_2 N2_2 1_555 1_555
H13_2 C18_2 1_555 1_555
O9_2 Co3 1_555 1_555
H20_2 O9_2 1_555 1_555
H21_2 O9_2 1_555 1_555
Co5 O5_2 1_555 1_555
Co7 O6_2 1_555 1_555
O11_2 Co3 1_555 1_555
O12_2 Co2_2 1_555 1_555
O14_2 Co3 1_555 1_555
Co2_2 O1_2 1_555 1_555
C5_2 C6_2 1_555 1_555
C8_2 C9_2 1_555 1_555
C17_2 C18_2 1_555 1_555
H18_2 C24_2 1_555 1_555
Co4 N2_3 1_555 1_555
Co6 N1_3 1_555 1_555
N1_3 C7_3 1_555 1_555
N2_3 C14_3 1_555 1_555
O1_3 Co4 1_555 1_555
O2_3 C9_3 1_555 1_555
O3_3 Co6 1_555 1_555
O4_3 C11_3 1_555 1_555
O5_3 C12_3 1_555 1_555
O6_3 C12_3 1_555 1_555
O7_3 C13_3 1_555 1_555
O8_3 C13_3 1_555 1_555
C1_3 C2_3 1_555 1_555
C2_3 H1_3 1_555 1_555
C3_3 C2_3 1_555 1_555
C4_3 C3_3 1_555 1_555
H2_3 C4_3 1_555 1_555
C5_3 C4_3 1_555 1_555
C6_3 C1_3 1_555 1_555
H3_3 C6_3 1_555 1_555
C7_3 C5_3 1_555 1_555
H4_3 C7_3 1_555 1_555
H5_3 C7_3 1_555 1_555
C8_3 N1_3 1_555 1_555
H6_3 C8_3 1_555 1_555
H7_3 C8_3 1_555 1_555
C9_3 O1_3 1_555 1_555
C10_3 N1_3 1_555 1_555
H8_3 C10_3 1_555 1_555
H9_3 C10_3 1_555 1_555
C11_3 O3_3 1_555 1_555
C12_3 C1_3 1_555 1_555
C13_3 C3_3 1_555 1_555
C14_3 H10_3 1_555 1_555
C15_2 C14_3 1_555 1_555
H11_3 C15_2 1_555 1_555
C16_2 C15_2 1_555 1_555
C17_3 C16_2 1_555 1_555
H12_3 C17_3 1_555 1_555
C18_3 N2_3 1_555 1_555
H13_3 C18_3 1_555 1_555
O9_3 Co4 1_555 1_555
H20_3 O9_3 1_555 1_555
H21_3 O9_3 1_555 1_555
Co5 O4_3 1_555 1_555
Co5_2 O5_3 1_555 1_555
Co5_3 O8_3 1_555 1_555
Co7_2 O6_3 1_555 1_555
Co8 O7_3 1_555 1_555
N4_3 Co6 1_555 1_555
O13_3 Co6 1_555 1_555
O14_3 Co4 1_555 1_555
Co6 O1_3 1_555 1_555
C5_3 C6_3 1_555 1_555
C8_3 C9_3 1_555 1_555
C10_3 C11_3 1_555 1_555
C17_3 C18_3 1_555 1_555
N4_2 C23_3 1_555 1_555
H14_3 C19_3 1_555 1_555
C20_3 C19_3 1_555 1_555
H15_3 C20_3 1_555 1_555
C21_3 C20_3 1_555 1_555
C22_3 C21_3 1_555 1_555
H16_3 C22_3 1_555 1_555
C23_3 C22_3 1_555 1_555
H17_3 C23_3 1_555 1_555
C25_3 C21_3 1_555 1_555
H18_3 C24_3 1_555 1_555
Co5 N2_4 1_555 1_555
Co7 N1_4 1_555 1_555
N1_4 C7_4 1_555 1_555
O1_4 Co5 1_555 1_555
O2_4 C9_4 1_555 1_555
O5_4 C12_4 1_555 1_555
O6_4 C12_4 1_555 1_555
C1_4 C2_4 1_555 1_555
C2_4 H1_4 1_555 1_555
C3_4 C2_4 1_555 1_555
C4_4 C3_4 1_555 1_555
H2_4 C4_4 1_555 1_555
C5_4 C4_4 1_555 1_555
C6_4 C1_4 1_555 1_555
H3_4 C6_4 1_555 1_555
C7_4 C5_4 1_555 1_555
H4_4 C7_4 1_555 1_555
H5_4 C7_4 1_555 1_555
C8_4 N1_4 1_555 1_555
H6_4 C8_4 1_555 1_555
H7_4 C8_4 1_555 1_555
C9_4 O1_4 1_555 1_555
C12_4 C1_4 1_555 1_555
C13_4 C3_4 1_555 1_555
H12_4 C17_4 1_555 1_555
C18_4 N2_4 1_555 1_555
H13_4 C18_4 1_555 1_555
O9_4 Co5 1_555 1_555
H20_4 O9_4 1_555 1_555
H21_4 O9_4 1_555 1_555
Co5_3 O5_4 1_555 1_555
Co8 O6_4 1_555 1_555
Co7 O1_4 1_555 1_555
C5_4 C6_4 1_555 1_555
C8_4 C9_4 1_555 1_555
C17_4 C18_4 1_555 1_555
O4_4 C11_4 1_555 1_555
H8_4 C10_4 1_555 1_555
H9_4 C10_4 1_555 1_555
C11_4 O3_4 1_555 1_555
C14_4 H10_4 1_555 1_555
C15_3 C14_4 1_555 1_555
H11_4 C15_3 1_555 1_555
C16_3 C15_3 1_555 1_555
Co5_2 O4_4 1_555 1_555
C10_4 C11_4 1_555 1_555
N4_3 C23_4 1_555 1_555
H14_4 C19_4 1_555 1_555
C20_4 C19_4 1_555 1_555
H15_4 C20_4 1_555 1_555
C21_4 C20_4 1_555 1_555
C22_4 C21_4 1_555 1_555
H16_4 C22_4 1_555 1_555
C23_4 C22_4 1_555 1_555
H17_4 C23_4 1_555 1_555
C24_4 N4_3 1_555 1_555
H18_4 C24_4 1_555 1_555
C25_4 C21_4 1_555 1_555
H19_4 C25_4 1_555 1_555
C24_4 C25_4 1_555 1_555
H18_5 C24_5 1_555 1_555
O11 C12_5 1_555 1_555
O12 C12_5 1_555 1_555
O13_2 C13_5 1_555 1_555
C1_5 C2_5 1_555 1_555
C2_5 H1_5 1_555 1_555
C3_5 C2_5 1_555 1_555
C4_5 C3_5 1_555 1_555
H2_5 C4_5 1_555 1_555
C12_5 C1_5 1_555 1_555
C13_5 C3_5 1_555 1_555
Co5_2 N2_5 1_555 1_555
Co7_2 N1_5 1_555 1_555
N1_5 C7_5 1_555 1_555
O1_5 Co5_2 1_555 1_555
O2_5 C9_5 1_555 1_555
H3_5 C6_5 1_555 1_555
C7_5 C5_5 1_555 1_555
H4_5 C7_5 1_555 1_555
H5_5 C7_5 1_555 1_555
C8_5 N1_5 1_555 1_555
H6_5 C8_5 1_555 1_555
H7_5 C8_5 1_555 1_555
C9_5 O1_5 1_555 1_555
H12_5 C17_5 1_555 1_555
C18_5 N2_5 1_555 1_555
H13_5 C18_5 1_555 1_555
O9_5 Co5_2 1_555 1_555
H20_5 O9_5 1_555 1_555
H21_5 O9_5 1_555 1_555
Co7_2 O1_5 1_555 1_555
C5_5 C6_5 1_555 1_555
C8_5 C9_5 1_555 1_555
C17_5 C18_5 1_555 1_555
N4_4 C23_5 1_555 1_555
O4_5 C11_5 1_555 1_555
H8_5 C10_5 1_555 1_555
H9_5 C10_5 1_555 1_555
C11_5 O3_5 1_555 1_555
C14_5 H10_5 1_555 1_555
C15_4 C14_5 1_555 1_555
H11_5 C15_4 1_555 1_555
C16_4 C15_4 1_555 1_555
C19_5 C16_4 1_555 1_555
H14_5 C19_5 1_555 1_555
C20_5 C19_5 1_555 1_555
H15_5 C20_5 1_555 1_555
C21_5 C20_5 1_555 1_555
C22_5 C21_5 1_555 1_555
H16_5 C22_5 1_555 1_555
C23_5 C22_5 1_555 1_555
H17_5 C23_5 1_555 1_555
C25_5 C21_5 1_555 1_555
Co5_3 O4_5 1_555 1_555
C10_5 C11_5 1_555 1_555
H18_6 C24_6 1_555 1_555
N4_5 C23_6 1_555 1_555
H14_6 C19_6 1_555 1_555
C20_6 C19_6 1_555 1_555
H15_6 C20_6 1_555 1_555
C21_6 C20_6 1_555 1_555
C22_6 C21_6 1_555 1_555
H16_6 C22_6 1_555 1_555
C23_6 C22_6 1_555 1_555
H17_6 C23_6 1_555 1_555
C25_6 C21_6 1_555 1_555
N1_6 C7_6 1_555 1_555
O10 C11_6 1_555 1_555
O11_2 C12_6 1_555 1_555
O12_2 C12_6 1_555 1_555
O13_3 C13_6 1_555 1_555
O14_3 C13_6 1_555 1_555
C1_6 C2_6 1_555 1_555
C2_6 H1_6 1_555 1_555
C3_6 C2_6 1_555 1_555
C4_6 C3_6 1_555 1_555
H2_6 C4_6 1_555 1_555
C5_6 C4_6 1_555 1_555
C6_6 C1_6 1_555 1_555
H3_6 C6_6 1_555 1_555
C7_6 C5_6 1_555 1_555
H4_6 C7_6 1_555 1_555
H5_6 C7_6 1_555 1_555
C8_6 N1_6 1_555 1_555
H6_6 C8_6 1_555 1_555
H7_6 C8_6 1_555 1_555
C10_6 N1_6 1_555 1_555
H8_6 C10_6 1_555 1_555
H9_6 C10_6 1_555 1_555
C12_6 C1_6 1_555 1_555
C13_6 C3_6 1_555 1_555
C5_6 C6_6 1_555 1_555
C10_6 C11_6 1_555 1_555
Co5_3 N2_6 1_555 1_555
N2_6 C14_6 1_555 1_555
O1_6 Co5_3 1_555 1_555
O2_6 C9_6 1_555 1_555
O3_6 Co8 1_555 1_555
C9_6 O1_6 1_555 1_555
C14_6 H10_6 1_555 1_555
C15_5 C14_6 1_555 1_555
H11_6 C15_5 1_555 1_555
C16_5 C15_5 1_555 1_555
C17_6 C16_5 1_555 1_555
H12_6 C17_6 1_555 1_555
C18_6 N2_6 1_555 1_555
H13_6 C18_6 1_555 1_555
O9_6 Co5_3 1_555 1_555
H20_6 O9_6 1_555 1_555
H21_6 O9_6 1_555 1_555
Co8 O1_6 1_555 1_555
C17_6 C18_6 1_555 1_555
C16_6 C15_6 1_555 1_555

#END
