
###############################################################################
#
# This file contains modified crystal structure data generated from the
# MOF subset of the Cambridge Structural Database (CSD) v543 
# hosted by the Cambridge Crystallographic Data Centre (CCDC).
#
# This work is licensed under the Creative Commons
# Attribution-NonCommercial-ShareAlike 4.0 International License.
# To view a copy of this license, visit
# http://creativecommons.org/licenses/by-nc-sa/4.0/
# or send a letter to
# Creative Commons, PO Box 1866, Mountain View, CA 94042, USA.
#
# CIF created using the CSD Python API on 29 September 2022
# The structure has been converted into the P1 space group
# The structure has a 3D framework
# The original CSD entry FIFMOY is in the hexagonal crystal system
# The original CSD entry FIFMOY is in a Sohncke space group
# The framework has been calculated to contain at least 10.0% void space
# The void calculation uses a probe of radius 1.32A, grid spacing 0.4
#
###############################################################################

data_FIFMOY
_chemical_formula_moiety         '(C150 H126 Co12 N18 O51)n'
_symmetry_cell_setting           triclinic
_symmetry_space_group_name_H-M   'P 1'
_symmetry_Int_Tables_number      1
_space_group_name_Hall           'P 1'
loop_
_symmetry_equiv_pos_site_id
_symmetry_equiv_pos_as_xyz
1 x,y,z
_cell_length_a                   15.8831(4)
_cell_length_b                   15.8831(4)
_cell_length_c                   21.3791(9)
_cell_angle_alpha                90
_cell_angle_beta                 90
_cell_angle_gamma                120
_cell_volume                     4670.79
loop_
_atom_site_label
_atom_site_type_symbol
_atom_site_fract_x
_atom_site_fract_y
_atom_site_fract_z
O3 O 0.48567(16) 0.10523(15) 0.16691(10)
O4 O 0.43587(18) 0.16950(17) 0.24094(11)
O8 O 0.58429(15) 0.04414(16) 0.48918(10)
C10 C 0.4523(3) 0.0355(2) 0.26874(15)
H10 H 0.5145 0.0620 0.2898
H11 H 0.4035 0.0244 0.3000
C11 C 0.4571(2) 0.1090(2) 0.22116(14)
C14 C 0.2784(3) 0.0281(3) 0.02595(19)
H12 H 0.3448 0.0554 0.0328
C15 C 0.2406(3) 0.0886(3) 0.0216(2)
H13 H 0.2812 0.1555 0.0250
C16 C 0.1412(3) 0.0498(3) 0.01213(19)
C19 C 0.0972(3) 0.1115(3) 0.0071(2)
C20 C 0.1421(3) 0.2055(3) 0.0155(2)
H17 H 0.2077 0.2351 0.0259
C21 C 0.1011(3) 0.2693(3) 0.0105(2)
C22 C 0.1584(3) 0.3677(3) 0.0152(3)
H18 H 0.2246 0.3949 0.0231
C23 C 0.1185(3) 0.4271(3) 0.0084(2)
H19 H 0.1596 0.4940 0.0111
C25 C 0.0024(3) 0.2345(3) 0.0028(3)
Co4 Co 0.70475(3) 0.14839(3) 0.536968(17)
Co5 Co 0.44364(4) 0.29525(3) 0.203635(17)
Co7 Co 0.51764(3) 0.02795(3) 0.641583(16)
N4 N 0.63108(28) 0.0252(2) 0.16496(12)
O13 O 0.53757(16) 0.03691(16) 0.05615(9)
N3 N 0.0252(2) 0.39412(19) 0.99829(12)
H16 H 0.0314 0.0811 0.9971
Co1 Co 0.29525(3) 0.85161(3) 0.036968(17)
Co2 Co 0.48236(3) 0.97205(3) 0.141583(16)
N1 N 0.42818(19) 0.94171(18) 0.23934(11)
N2 N 0.2243(2) 0.93165(19) 0.02075(13)
O1 O 0.33781(14) 0.91753(15) 0.12389(9)
O2 O 0.20831(19) 0.9049(2) 0.17358(12)
O5 O 0.22467(17) 0.58969(15) 0.38368(10)
O6 O 0.16973(15) 0.63473(14) 0.46578(9)
O7 O 0.46243(16) 0.96309(16) 0.55615(9)
C1 C 0.3154(2) 0.7512(2) 0.41472(13)
C2 C 0.3602(2) 0.8180(2) 0.46331(13)
H3 H 0.3338 0.8037 0.5033
C3 C 0.4450(2) 0.9065(2) 0.45152(13)
C4 C 0.4814(2) 0.9292(2) 0.39099(13)
H4 H 0.5377 0.9880 0.3834
C5 C 0.4352(2) 0.8657(2) 0.34165(13)
C6 C 0.3552(2) 0.7765(2) 0.35485(13)
H5 H 0.3268 0.7316 0.3226
C7 C 0.4718(2) 0.8930(2) 0.27536(13)
H6 H 0.5418 0.9358 0.2766
H7 H 0.4591 0.8345 0.2532
C8 C 0.3222(2) 0.8801(3) 0.23164(16)
H8 H 0.2901 0.8884 0.2678
H9 H 0.3057 0.8125 0.2303
C9 C 0.2836(2) 0.9031(2) 0.17270(15)
C12 C 0.2294(2) 0.6501(2) 0.42271(13)
C13 C 0.5011(2) 0.9773(2) 0.50360(14)
C17 C 0.0859(3) 0.9502(3) 0.0077(2)
H14 H 0.0191 0.9209 0.0016
C18 C 0.1293(3) 0.8936(3) 0.0125(2)
H15 H 0.0905 0.8264 0.0098
Co3 Co 0.14839(3) 0.44364(4) 0.370301(17)
Co6 Co 0.02795(3) 0.51031(4) 0.474916(16)
O10 O 0.16950(17) 0.73363(25) 0.07427(11)
O11 O 0.36502(23) 0.77533(17) 0.05035(10)
O12 O 0.46500(21) 0.83027(15) 0.13245(9)
O9 O 0.24981(19) 0.77885(18) 0.94514(11)
H1 H 0.1997 0.7225 0.9451
H2 H 0.2927 0.7743 0.9240
O14 O 0.41571(15) 0.95586(16) 0.98918(10)
C24 C 0.9689(3) 0.2986(3) 0.9966(2)
H20 H 0.9025 0.2732 0.9910
Co8 Co 0.97205(3) 0.48969(4) 0.974916(16)
N1_2 N 0.05829(18) 0.48647(26) 0.57267(11)
N2_2 N 0.06835(19) 0.29265(28) 0.35408(13)
O1_2 O 0.08247(15) 0.42028(21) 0.45722(9)
O2_2 O 0.0951(2) 0.30341(28) 0.50691(12)
O5_2 O 0.41031(15) 0.63498(23) 0.71701(10)
O6_2 O 0.36527(14) 0.53500(21) 0.79911(9)
O7_2 O 0.03691(16) 0.49934(23) 0.88948(9)
O9_2 O 0.22115(18) 0.47096(26) 0.27847(11)
H1_2 H 0.2775 0.4772 0.2784
H2_2 H 0.2257 0.5184 0.2573
C1_2 C 0.2488(2) 0.5642(3) 0.74805(13)
C2_2 C 0.1820(2) 0.5422(3) 0.79664(13)
H3_2 H 0.1963 0.5301 0.8366
C3_2 C 0.0935(2) 0.5385(3) 0.78485(13)
C4_2 C 0.0708(2) 0.5522(3) 0.72432(13)
H4_2 H 0.0120 0.5497 0.7167
C5_2 C 0.1343(2) 0.5695(3) 0.67498(13)
C6_2 C 0.2235(2) 0.5787(3) 0.68818(13)
H5_2 H 0.2684 0.5952 0.6559
C7_2 C 0.1070(2) 0.5788(3) 0.60869(13)
H6_2 H 0.0642 0.6060 0.6099
H7_2 H 0.1655 0.6246 0.5865
C8_2 C 0.1199(3) 0.4421(4) 0.56497(16)
H8_2 H 0.1116 0.4017 0.6011
H9_2 H 0.1875 0.4932 0.5636
C9_2 C 0.0969(2) 0.3805(3) 0.50603(15)
C12_2 C 0.3499(2) 0.5793(3) 0.75604(13)
C13_2 C 0.0227(2) 0.5238(3) 0.83693(14)
C17_2 C 0.0498(3) 0.1357(4) 0.3410(2)
H14_2 H 0.0791 0.0982 0.3349
C18_2 C 0.1064(3) 0.2357(4) 0.3458(2)
H15_2 H 0.1736 0.2641 0.3431
Co3_2 Co 0.55636(4) 0.70475(5) 0.703635(17)
Co6_2 Co 0.48969(4) 0.51764(5) 0.808250(16)
O10_2 O 0.26637(25) 0.43587(30) 0.40761(11)
O14_2 O 0.04414(16) 0.45985(22) 0.32251(10)
O3_2 O 0.89477(15) 0.38044(22) 0.50024(10)
O4_2 O 0.83050(17) 0.26637(25) 0.57427(11)
O8_2 O 0.95586(16) 0.54015(22) 0.82251(10)
C10_2 C 0.9645(2) 0.4168(4) 0.60207(15)
H10_2 H 0.9380 0.4525 0.6231
H11_2 H 0.9756 0.3791 0.6333
C11_2 C 0.8910(2) 0.3481(3) 0.55449(14)
C14_2 C 0.9719(3) 0.2503(4) 0.35928(19)
H12_2 H 0.9446 0.2894 0.3661
C15_2 C 0.9114(3) 0.1520(4) 0.3549(2)
H13_2 H 0.8445 0.1257 0.3583
C16_2 C 0.9502(3) 0.0914(4) 0.34546(19)
Co4_2 Co 0.85161(3) 0.55636(4) 0.870301(17)
N4_2 N 0.9748(2) 0.60588(34) 0.49829(12)
O13_2 O 0.96309(16) 0.50066(23) 0.38948(9)
N3_2 N 0.60588(19) 0.63108(28) 0.33162(12)
C19_2 C 0.8885(3) 0.9857(4) 0.3404(2)
H16_2 H 0.9189 0.9503 0.3304
C20_2 C 0.7945(3) 0.9366(4) 0.3488(2)
H17_2 H 0.7649 0.9726 0.3592
C21_2 C 0.7307(3) 0.8318(4) 0.3438(2)
C22_2 C 0.6323(3) 0.7907(4) 0.3485(3)
H18_2 H 0.6051 0.8297 0.3564
C23_2 C 0.5729(3) 0.6914(4) 0.3417(2)
H19_2 H 0.5060 0.6656 0.3444
C24_2 C 0.7014(3) 0.6703(4) 0.3299(2)
H20_2 H 0.7268 0.6293 0.3243
C25_2 C 0.7655(3) 0.7679(4) 0.3361(3)
H21 H 0.8321 0.7913 0.3351
Co8_2 Co 0.51031(4) 0.48236(5) 0.308250(16)
C24_3 C 0.3297(4) 0.0311(3) 0.6633(2)
H20_3 H 0.3707 0.0975 0.6577
H21_2 H 0.2087 0.0408 0.6685
N3_3 N 0.36892(28) 0.9748(2) 0.66496(12)
C19_3 C 0.0143(4) 0.9028(3) 0.6738(2)
H16_3 H 0.0497 0.9686 0.6638
C20_3 C 0.0634(4) 0.8579(3) 0.6822(2)
H17_3 H 0.0274 0.7923 0.6926
C21_3 C 0.1682(4) 0.8989(3) 0.6772(2)
C22_3 C 0.2093(4) 0.8416(3) 0.6819(3)
H18_3 H 0.1703 0.7754 0.6898
C23_3 C 0.3086(4) 0.8815(3) 0.6751(2)
H19_3 H 0.3344 0.8404 0.6778
C25_3 C 0.2321(4) 0.9976(3) 0.6695(3)
O7_3 O 0.50066(23) 0.53757(16) 0.22282(9)
O8_3 O 0.45985(22) 0.41571(15) 0.15585(10)
C1_3 C 0.4358(3) 0.6846(2) 0.08139(13)
C2_3 C 0.4578(3) 0.6398(2) 0.12998(13)
H3_3 H 0.4699 0.6662 0.1700
C3_3 C 0.4615(3) 0.5550(2) 0.11819(13)
C4_3 C 0.4478(3) 0.5186(2) 0.05766(13)
H4_3 H 0.4503 0.4623 0.0501
C5_3 C 0.4305(3) 0.5648(2) 0.00832(13)
C6_3 C 0.4213(3) 0.6448(2) 0.02152(13)
C12_3 C 0.4207(3) 0.7706(2) 0.08938(13)
C13_3 C 0.4762(3) 0.4989(2) 0.17027(14)
N1_3 N 0.51353(26) 0.57182(19) 0.90601(11)
N2_3 N 0.70735(28) 0.7757(2) 0.68742(13)
O1_3 O 0.57972(21) 0.66219(14) 0.79056(9)
O2_3 O 0.69659(28) 0.79169(19) 0.84025(12)
O3_3 O 0.61956(22) 0.51433(16) 0.83358(10)
O4_3 O 0.73363(25) 0.56413(18) 0.90761(11)
O9_3 O 0.52904(26) 0.75019(19) 0.61181(11)
H1_3 H 0.5228 0.8003 0.6118
H2_3 H 0.4816 0.7073 0.5907
H5_3 H 0.4048 0.6732 0.9893
C7_3 C 0.4212(3) 0.5282(2) 0.94203(13)
H6_3 H 0.3940 0.4582 0.9433
H7_3 H 0.3754 0.5409 0.9199
C8_3 C 0.5579(4) 0.6778(2) 0.89831(16)
H8_3 H 0.5983 0.7099 0.9345
H9_3 H 0.5068 0.6943 0.8970
C9_3 C 0.6195(3) 0.7164(2) 0.83937(15)
C10_3 C 0.5832(4) 0.5477(3) 0.93541(15)
H10_3 H 0.5475 0.4855 0.9565
H11_3 H 0.6209 0.5965 0.9667
C11_3 C 0.6519(3) 0.5429(2) 0.88783(14)
C14_3 C 0.7497(4) 0.7216(3) 0.69262(19)
H12_3 H 0.7106 0.6552 0.6995
C15_3 C 0.8480(4) 0.7594(3) 0.6883(2)
H13_3 H 0.8743 0.7188 0.6917
C16_3 C 0.9086(4) 0.8588(3) 0.67880(19)
C17_3 C 0.8643(4) 0.9141(3) 0.6744(2)
H14_3 H 0.9018 0.9809 0.6683
C18_3 C 0.7643(4) 0.8707(3) 0.6792(2)
H15_3 H 0.7359 0.9095 0.6765
N4_3 N 0.39412(34) 0.36892(28) 0.83162(12)
O10_3 O 0.56413(30) 0.83050(17) 0.74094(11)
O13_3 O 0.49934(23) 0.46243(16) 0.72282(9)
O14_3 O 0.54015(22) 0.58429(15) 0.65585(10)
C24_4 C 0.0311(3) 0.7014(3) 0.4966(2)
H20_4 H 0.0975 0.7268 0.4910
H21_3 H 0.0408 0.8321 0.5018
H3_4 H 0.6662 0.1963 0.0033
C13_4 C 0.4989(2) 0.0227(2) 0.00360(14)
N1_4 N 0.57182(19) 0.05829(18) 0.73934(11)
N2_4 N 0.7757(2) 0.06835(19) 0.52075(13)
O1_4 O 0.66219(14) 0.08247(15) 0.62389(9)
O2_4 O 0.79169(19) 0.0951(2) 0.67358(12)
O5_3 O 0.77533(17) 0.41031(15) 0.88368(10)
O6_3 O 0.83027(15) 0.36527(14) 0.96578(9)
O9_4 O 0.75019(19) 0.22115(18) 0.44514(11)
H1_4 H 0.8003 0.2775 0.4451
H2_4 H 0.7073 0.2257 0.4240
C1_4 C 0.6846(2) 0.2488(2) 0.91472(13)
C2_4 C 0.6398(2) 0.1820(2) 0.96331(13)
C3_4 C 0.5550(2) 0.0935(2) 0.95152(13)
C4_4 C 0.5186(2) 0.0708(2) 0.89099(13)
H4_4 H 0.4623 0.0120 0.8834
C5_4 C 0.5648(2) 0.1343(2) 0.84165(13)
C6_4 C 0.6448(2) 0.2235(2) 0.85485(13)
H5_4 H 0.6732 0.2684 0.8226
C7_4 C 0.5282(2) 0.1070(2) 0.77536(13)
H6_4 H 0.4582 0.0642 0.7766
H7_4 H 0.5409 0.1655 0.7532
C8_4 C 0.6778(2) 0.1199(3) 0.73164(16)
H8_4 H 0.7099 0.1116 0.7678
H9_4 H 0.6943 0.1875 0.7303
C9_4 C 0.7164(2) 0.0969(2) 0.67270(15)
C12_4 C 0.7706(2) 0.3499(2) 0.92271(13)
C17_4 C 0.9141(3) 0.0498(3) 0.5077(2)
H14_4 H 0.9809 0.0791 0.5016
C18_4 C 0.8707(3) 0.1064(3) 0.5125(2)
H15_4 H 0.9095 0.1736 0.5098
O11_2 O 0.63498(23) 0.22467(17) 0.55035(10)
O12_2 O 0.53500(21) 0.16973(15) 0.63245(9)
O3_4 O 0.51433(16) 0.89477(15) 0.66691(10)
C10_4 C 0.5477(3) 0.9645(2) 0.76874(15)
H10_4 H 0.4855 0.9380 0.7898
H11_4 H 0.5965 0.9756 0.8000
C11_4 C 0.5429(2) 0.8910(2) 0.72116(14)
C14_4 C 0.7216(3) 0.9719(3) 0.52595(19)
H12_4 H 0.6552 0.9446 0.5328
C15_4 C 0.7594(3) 0.9114(3) 0.5216(2)
H13_4 H 0.7188 0.8445 0.5250
C16_4 C 0.8588(3) 0.9502(3) 0.51213(19)
C19_4 C 0.9028(3) 0.8885(3) 0.5071(2)
H16_4 H 0.9686 0.9189 0.4971
C20_4 C 0.8579(3) 0.7945(3) 0.5155(2)
H17_4 H 0.7923 0.7649 0.5259
C21_4 C 0.8989(3) 0.7307(3) 0.5105(2)
C22_4 C 0.8416(3) 0.6323(3) 0.5152(3)
H18_4 H 0.7754 0.6051 0.5231
C23_4 C 0.8815(3) 0.5729(3) 0.5084(2)
H19_4 H 0.8404 0.5060 0.5111
C25_4 C 0.9976(3) 0.7655(3) 0.5028(3)
C19_5 C 0.1115(3) 0.0143(4) 0.8404(2)
H16_5 H 0.0811 0.0497 0.8304
C20_5 C 0.2055(3) 0.0634(4) 0.8488(2)
H17_5 H 0.2351 0.0274 0.8592
C21_5 C 0.2693(3) 0.1682(4) 0.8438(2)
C22_5 C 0.3677(3) 0.2093(4) 0.8485(3)
H18_5 H 0.3949 0.1703 0.8564
C23_5 C 0.4271(3) 0.3086(4) 0.8417(2)
H19_5 H 0.4940 0.3344 0.8444
C24_5 C 0.2986(3) 0.3297(4) 0.8299(2)
H20_5 H 0.2732 0.3707 0.8243
C25_5 C 0.2345(3) 0.2321(4) 0.8361(3)
H21_4 H 0.1679 0.2087 0.8351
O3_5 O 0.10523(15) 0.61956(22) 0.00024(10)
C10_5 C 0.0355(2) 0.5832(4) 0.10207(15)
H10_5 H 0.0620 0.5475 0.1231
H11_5 H 0.0244 0.6209 0.1333
C11_5 C 0.1090(2) 0.6519(3) 0.05449(14)
C14_5 C 0.0281(3) 0.7497(4) 0.85928(19)
H12_5 H 0.0554 0.7106 0.8661
C15_5 C 0.0886(3) 0.8480(4) 0.8549(2)
H13_5 H 0.1555 0.8743 0.8583
C16_5 C 0.0498(3) 0.9086(4) 0.84546(19)
N1_5 N 0.94171(18) 0.51353(26) 0.07267(11)
O2_5 O 0.9049(2) 0.69659(28) 0.00691(12)
O5_4 O 0.58969(15) 0.36502(23) 0.21701(10)
O6_4 O 0.63473(14) 0.46500(21) 0.29911(9)
C1_5 C 0.7512(2) 0.4358(3) 0.24805(13)
C2_5 C 0.8180(2) 0.4578(3) 0.29664(13)
H3_5 H 0.8037 0.4699 0.3366
C3_5 C 0.9065(2) 0.4615(3) 0.28485(13)
C4_5 C 0.9292(2) 0.4478(3) 0.22432(13)
H4_5 H 0.9880 0.4503 0.2167
C5_5 C 0.8657(2) 0.4305(3) 0.17498(13)
C6_5 C 0.7765(2) 0.4213(3) 0.18818(13)
H5_5 H 0.7316 0.4048 0.1559
C7_5 C 0.8930(2) 0.4212(3) 0.10869(13)
H6_5 H 0.9358 0.3940 0.1099
H7_5 H 0.8345 0.3754 0.0865
C8_5 C 0.8801(3) 0.5579(4) 0.06497(16)
H8_5 H 0.8884 0.5983 0.1011
H9_5 H 0.8125 0.5068 0.0636
C9_5 C 0.9031(2) 0.6195(3) 0.00603(15)
C12_5 C 0.6501(2) 0.4207(3) 0.25604(13)
C13_5 C 0.9773(2) 0.4762(3) 0.33693(14)
N2_5 N 0.93165(19) 0.70735(28) 0.85408(13)
O1_5 O 0.91753(15) 0.57972(21) 0.95722(9)
O9_5 O 0.77885(18) 0.52904(26) 0.77847(11)
H1_5 H 0.7225 0.5228 0.7784
H2_5 H 0.7743 0.4816 0.7573
C17_5 C 0.9502(3) 0.8643(4) 0.8410(2)
H14_5 H 0.9209 0.9018 0.8349
C18_5 C 0.8936(3) 0.7643(4) 0.8458(2)
H15_5 H 0.8264 0.7359 0.8431
N1_6 N 0.48647(26) 0.42818(19) 0.40601(11)
N2_6 N 0.29265(28) 0.2243(2) 0.18742(13)
O1_6 O 0.42028(21) 0.33781(14) 0.29056(9)
O2_6 O 0.30341(28) 0.20831(19) 0.34025(12)
O3_6 O 0.38044(22) 0.48567(16) 0.33358(10)
O9_6 O 0.47096(26) 0.24981(19) 0.11181(11)
H1_6 H 0.4772 0.1997 0.1118
H2_6 H 0.5184 0.2927 0.0907
C1_6 C 0.5642(3) 0.3154(2) 0.58139(13)
C2_6 C 0.5422(3) 0.3602(2) 0.62998(13)
H3_6 H 0.5301 0.3338 0.6700
C3_6 C 0.5385(3) 0.4450(2) 0.61819(13)
C4_6 C 0.5522(3) 0.4814(2) 0.55766(13)
H4_6 H 0.5497 0.5377 0.5501
C5_6 C 0.5695(3) 0.4352(2) 0.50832(13)
C6_6 C 0.5787(3) 0.3552(2) 0.52152(13)
H5_6 H 0.5952 0.3268 0.4893
C7_6 C 0.5788(3) 0.4718(2) 0.44203(13)
H6_6 H 0.6060 0.5418 0.4433
H7_6 H 0.6246 0.4591 0.4199
C8_6 C 0.4421(4) 0.3222(2) 0.39831(16)
H8_6 H 0.4017 0.2901 0.4345
H9_6 H 0.4932 0.3057 0.3970
C9_6 C 0.3805(3) 0.2836(2) 0.33937(15)
C10_6 C 0.4168(4) 0.4523(3) 0.43541(15)
H10_6 H 0.4525 0.5145 0.4565
H11_6 H 0.3791 0.4035 0.4667
C11_6 C 0.3481(3) 0.4571(2) 0.38783(14)
C12_6 C 0.5793(3) 0.2294(2) 0.58938(13)
C13_6 C 0.5238(3) 0.5011(2) 0.67027(14)
C14_6 C 0.2503(4) 0.2784(3) 0.19262(19)
H12_6 H 0.2894 0.3448 0.1995
C15_6 C 0.1520(4) 0.2406(3) 0.1883(2)
H13_6 H 0.1257 0.2812 0.1917
C16_6 C 0.0914(4) 0.1412(3) 0.17880(19)
C17_6 C 0.1357(4) 0.0859(3) 0.1744(2)
H14_6 H 0.0982 0.0191 0.1683
C18_6 C 0.2357(4) 0.1293(3) 0.1792(2)
H15_6 H 0.2641 0.0905 0.1765
C19_6 C 0.9857(4) 0.0972(3) 0.1738(2)
H16_6 H 0.9503 0.0314 0.1638
C20_6 C 0.9366(4) 0.1421(3) 0.1822(2)
H17_6 H 0.9726 0.2077 0.1926
C21_6 C 0.8318(4) 0.1011(3) 0.1772(2)
C22_6 C 0.7907(4) 0.1584(3) 0.1819(3)
H18_6 H 0.8297 0.2246 0.1898
C23_6 C 0.6914(4) 0.1185(3) 0.1751(2)
H19_6 H 0.6656 0.1596 0.1778
C25_6 C 0.7679(4) 0.0024(3) 0.1695(3)
C24_6 C 0.6703(4) 0.9689(3) 0.1633(2)
H20_6 H 0.6293 0.9025 0.1577
H21_5 H 0.7913 0.9592 0.1685
H21_6 H 0.9592 0.1679 0.0018
loop_
_geom_bond_atom_site_label_1
_geom_bond_atom_site_label_2
_geom_bond_site_symmetry_1
_geom_bond_site_symmetry_2
O4 C11 1_555 1_555
H10 C10 1_555 1_555
H11 C10 1_555 1_555
C11 O3 1_555 1_555
C14 H12 1_555 1_555
C15 C14 1_555 1_555
H13 C15 1_555 1_555
C16 C15 1_555 1_555
C19 C16 1_555 1_555
C20 C19 1_555 1_555
H17 C20 1_555 1_555
C21 C20 1_555 1_555
C22 C21 1_555 1_555
H18 C22 1_555 1_555
C23 C22 1_555 1_555
H19 C23 1_555 1_555
C25 C21 1_555 1_555
Co4 O8 1_555 1_555
Co5 O4 1_555 1_555
C10 C11 1_555 1_555
Co1 N2 1_555 1_555
Co2 N1 1_555 1_555
N1 C7 1_555 1_555
O1 Co1 1_555 1_555
O2 C9 1_555 1_555
O5 C12 1_555 1_555
O6 C12 1_555 1_555
O7 C13 1_555 1_555
C1 C2 1_555 1_555
C2 H3 1_555 1_555
C3 C2 1_555 1_555
C4 C3 1_555 1_555
H4 C4 1_555 1_555
C5 C4 1_555 1_555
C6 C1 1_555 1_555
H5 C6 1_555 1_555
C7 C5 1_555 1_555
H6 C7 1_555 1_555
H7 C7 1_555 1_555
C8 N1 1_555 1_555
H8 C8 1_555 1_555
H9 C8 1_555 1_555
C9 O1 1_555 1_555
C12 C1 1_555 1_555
C13 C3 1_555 1_555
H14 C17 1_555 1_555
C18 N2 1_555 1_555
H15 C18 1_555 1_555
Co3 O5 1_555 1_555
Co6 O6 1_555 1_555
O10 Co1 1_555 1_555
O11 Co1 1_555 1_555
O12 Co2 1_555 1_555
Co2 O1 1_555 1_555
C5 C6 1_555 1_555
C8 C9 1_555 1_555
C17 C18 1_555 1_555
H1 O9 1_555 1_555
H2 O9 1_555 1_555
H20 C24 1_555 1_555
Co3 N2_2 1_555 1_555
Co6 N1_2 1_555 1_555
N1_2 C7_2 1_555 1_555
O1_2 Co3 1_555 1_555
O2_2 C9_2 1_555 1_555
O5_2 C12_2 1_555 1_555
O6_2 C12_2 1_555 1_555
O7_2 C13_2 1_555 1_555
O9_2 Co3 1_555 1_555
H1_2 O9_2 1_555 1_555
H2_2 O9_2 1_555 1_555
C1_2 C2_2 1_555 1_555
C2_2 H3_2 1_555 1_555
C3_2 C2_2 1_555 1_555
C4_2 C3_2 1_555 1_555
H4_2 C4_2 1_555 1_555
C5_2 C4_2 1_555 1_555
C6_2 C1_2 1_555 1_555
H5_2 C6_2 1_555 1_555
C7_2 C5_2 1_555 1_555
H6_2 C7_2 1_555 1_555
H7_2 C7_2 1_555 1_555
C8_2 N1_2 1_555 1_555
H8_2 C8_2 1_555 1_555
H9_2 C8_2 1_555 1_555
C9_2 O1_2 1_555 1_555
C12_2 C1_2 1_555 1_555
C13_2 C3_2 1_555 1_555
H14_2 C17_2 1_555 1_555
C18_2 N2_2 1_555 1_555
H15_2 C18_2 1_555 1_555
Co3_2 O5_2 1_555 1_555
Co6_2 O6_2 1_555 1_555
O10_2 Co3 1_555 1_555
O14_2 Co3 1_555 1_555
Co6 O1_2 1_555 1_555
C5_2 C6_2 1_555 1_555
C8_2 C9_2 1_555 1_555
C17_2 C18_2 1_555 1_555
O4_2 C11_2 1_555 1_555
H10_2 C10_2 1_555 1_555
H11_2 C10_2 1_555 1_555
C11_2 O3_2 1_555 1_555
C14_2 H12_2 1_555 1_555
C15_2 C14_2 1_555 1_555
H13_2 C15_2 1_555 1_555
C16_2 C15_2 1_555 1_555
Co4_2 O8_2 1_555 1_555
Co4 O4_2 1_555 1_555
C10_2 C11_2 1_555 1_555
N3_2 C23_2 1_555 1_555
H16_2 C19_2 1_555 1_555
C20_2 C19_2 1_555 1_555
H17_2 C20_2 1_555 1_555
C21_2 C20_2 1_555 1_555
C22_2 C21_2 1_555 1_555
H18_2 C22_2 1_555 1_555
C23_2 C22_2 1_555 1_555
H19_2 C23_2 1_555 1_555
C24_2 N3_2 1_555 1_555
H20_2 C24_2 1_555 1_555
C25_2 C21_2 1_555 1_555
H21 C25_2 1_555 1_555
Co8_2 N3_2 1_555 1_555
C24_2 C25_2 1_555 1_555
H20_3 C24_3 1_555 1_555
N3_3 C23_3 1_555 1_555
H16_3 C19_3 1_555 1_555
C20_3 C19_3 1_555 1_555
H17_3 C20_3 1_555 1_555
C21_3 C20_3 1_555 1_555
C22_3 C21_3 1_555 1_555
H18_3 C22_3 1_555 1_555
C23_3 C22_3 1_555 1_555
H19_3 C23_3 1_555 1_555
C25_3 C21_3 1_555 1_555
O11 C12_3 1_555 1_555
O12 C12_3 1_555 1_555
O7_3 C13_3 1_555 1_555
O8_3 C13_3 1_555 1_555
C1_3 C2_3 1_555 1_555
C2_3 H3_3 1_555 1_555
C3_3 C2_3 1_555 1_555
C4_3 C3_3 1_555 1_555
H4_3 C4_3 1_555 1_555
C5_3 C4_3 1_555 1_555
C6_3 C1_3 1_555 1_555
C12_3 C1_3 1_555 1_555
C13_3 C3_3 1_555 1_555
Co5 O8_3 1_555 1_555
Co8_2 O7_3 1_555 1_555
C5_3 C6_3 1_555 1_555
Co3_2 N2_3 1_555 1_555
Co6_2 N1_3 1_555 1_555
N1_3 C7_3 1_555 1_555
N2_3 C14_3 1_555 1_555
O1_3 Co3_2 1_555 1_555
O2_3 C9_3 1_555 1_555
O3_3 Co6_2 1_555 1_555
O4_3 C11_3 1_555 1_555
O9_3 Co3_2 1_555 1_555
H1_3 O9_3 1_555 1_555
H2_3 O9_3 1_555 1_555
H6_3 C7_3 1_555 1_555
H7_3 C7_3 1_555 1_555
C8_3 N1_3 1_555 1_555
H8_3 C8_3 1_555 1_555
H9_3 C8_3 1_555 1_555
C9_3 O1_3 1_555 1_555
C10_3 N1_3 1_555 1_555
H10_3 C10_3 1_555 1_555
H11_3 C10_3 1_555 1_555
C11_3 O3_3 1_555 1_555
C14_3 H12_3 1_555 1_555
C15_3 C14_3 1_555 1_555
H13_3 C15_3 1_555 1_555
C16_3 C15_3 1_555 1_555
C17_3 C16_3 1_555 1_555
H14_3 C17_3 1_555 1_555
C18_3 N2_3 1_555 1_555
H15_3 C18_3 1_555 1_555
Co4_2 O4_3 1_555 1_555
N4_3 Co6_2 1_555 1_555
O10_3 Co3_2 1_555 1_555
O13_3 Co6_2 1_555 1_555
O14_3 Co3_2 1_555 1_555
Co6_2 O1_3 1_555 1_555
C8_3 C9_3 1_555 1_555
C10_3 C11_3 1_555 1_555
C17_3 C18_3 1_555 1_555
H20_4 C24_4 1_555 1_555
O13 C13_4 1_555 1_555
Co4 N2_4 1_555 1_555
Co7 N1_4 1_555 1_555
N1_4 C7_4 1_555 1_555
O1_4 Co4 1_555 1_555
O2_4 C9_4 1_555 1_555
O5_3 C12_4 1_555 1_555
O6_3 C12_4 1_555 1_555
O9_4 Co4 1_555 1_555
H1_4 O9_4 1_555 1_555
H2_4 O9_4 1_555 1_555
C1_4 C2_4 1_555 1_555
C3_4 C2_4 1_555 1_555
C4_4 C3_4 1_555 1_555
H4_4 C4_4 1_555 1_555
C5_4 C4_4 1_555 1_555
C6_4 C1_4 1_555 1_555
H5_4 C6_4 1_555 1_555
C7_4 C5_4 1_555 1_555
H6_4 C7_4 1_555 1_555
H7_4 C7_4 1_555 1_555
C8_4 N1_4 1_555 1_555
H8_4 C8_4 1_555 1_555
H9_4 C8_4 1_555 1_555
C9_4 O1_4 1_555 1_555
C12_4 C1_4 1_555 1_555
H14_4 C17_4 1_555 1_555
C18_4 N2_4 1_555 1_555
H15_4 C18_4 1_555 1_555
Co4_2 O5_3 1_555 1_555
Co8 O6_3 1_555 1_555
O11_2 Co4 1_555 1_555
O12_2 Co7 1_555 1_555
Co7 O1_4 1_555 1_555
C5_4 C6_4 1_555 1_555
C8_4 C9_4 1_555 1_555
C17_4 C18_4 1_555 1_555
N4_2 C23_4 1_555 1_555
O10_3 C11_4 1_555 1_555
H10_4 C10_4 1_555 1_555
H11_4 C10_4 1_555 1_555
C11_4 O3_4 1_555 1_555
C14_4 H12_4 1_555 1_555
C15_4 C14_4 1_555 1_555
H13_4 C15_4 1_555 1_555
C16_4 C15_4 1_555 1_555
C19_4 C16_4 1_555 1_555
H16_4 C19_4 1_555 1_555
C20_4 C19_4 1_555 1_555
H17_4 C20_4 1_555 1_555
C21_4 C20_4 1_555 1_555
C22_4 C21_4 1_555 1_555
H18_4 C22_4 1_555 1_555
C23_4 C22_4 1_555 1_555
H19_4 C23_4 1_555 1_555
C25_4 C21_4 1_555 1_555
C10_4 C11_4 1_555 1_555
N4_3 C23_5 1_555 1_555
H16_5 C19_5 1_555 1_555
C20_5 C19_5 1_555 1_555
H17_5 C20_5 1_555 1_555
C21_5 C20_5 1_555 1_555
C22_5 C21_5 1_555 1_555
H18_5 C22_5 1_555 1_555
C23_5 C22_5 1_555 1_555
H19_5 C23_5 1_555 1_555
C24_5 N4_3 1_555 1_555
H20_5 C24_5 1_555 1_555
C25_5 C21_5 1_555 1_555
H21_4 C25_5 1_555 1_555
C24_5 C25_5 1_555 1_555
O10 C11_5 1_555 1_555
H10_5 C10_5 1_555 1_555
H11_5 C10_5 1_555 1_555
C11_5 O3_5 1_555 1_555
C10_5 C11_5 1_555 1_555
C14_5 H12_5 1_555 1_555
C15_5 C14_5 1_555 1_555
H13_5 C15_5 1_555 1_555
C16_5 C15_5 1_555 1_555
N1_5 C7_5 1_555 1_555
O2_5 C9_5 1_555 1_555
O5_4 C12_5 1_555 1_555
O6_4 C12_5 1_555 1_555
O13_2 C13_5 1_555 1_555
C1_5 C2_5 1_555 1_555
C2_5 H3_5 1_555 1_555
C3_5 C2_5 1_555 1_555
C4_5 C3_5 1_555 1_555
H4_5 C4_5 1_555 1_555
C5_5 C4_5 1_555 1_555
C6_5 C1_5 1_555 1_555
H5_5 C6_5 1_555 1_555
C7_5 C5_5 1_555 1_555
H6_5 C7_5 1_555 1_555
H7_5 C7_5 1_555 1_555
C8_5 N1_5 1_555 1_555
H8_5 C8_5 1_555 1_555
H9_5 C8_5 1_555 1_555
C12_5 C1_5 1_555 1_555
C13_5 C3_5 1_555 1_555
Co5 O5_4 1_555 1_555
Co8_2 O6_4 1_555 1_555
C5_5 C6_5 1_555 1_555
C8_5 C9_5 1_555 1_555
Co4_2 N2_5 1_555 1_555
O1_5 Co4_2 1_555 1_555
O9_5 Co4_2 1_555 1_555
H1_5 O9_5 1_555 1_555
H2_5 O9_5 1_555 1_555
H14_5 C17_5 1_555 1_555
C18_5 N2_5 1_555 1_555
H15_5 C18_5 1_555 1_555
Co8 O1_5 1_555 1_555
C17_5 C18_5 1_555 1_555
Co5 N2_6 1_555 1_555
Co8_2 N1_6 1_555 1_555
N1_6 C7_6 1_555 1_555
N2_6 C14_6 1_555 1_555
O1_6 Co5 1_555 1_555
O2_6 C9_6 1_555 1_555
O3_6 Co8_2 1_555 1_555
O10_2 C11_6 1_555 1_555
O11_2 C12_6 1_555 1_555
O12_2 C12_6 1_555 1_555
O13_3 C13_6 1_555 1_555
O14_3 C13_6 1_555 1_555
O9_6 Co5 1_555 1_555
H1_6 O9_6 1_555 1_555
H2_6 O9_6 1_555 1_555
C1_6 C2_6 1_555 1_555
C2_6 H3_6 1_555 1_555
C3_6 C2_6 1_555 1_555
C4_6 C3_6 1_555 1_555
H4_6 C4_6 1_555 1_555
C5_6 C4_6 1_555 1_555
C6_6 C1_6 1_555 1_555
H5_6 C6_6 1_555 1_555
C7_6 C5_6 1_555 1_555
H6_6 C7_6 1_555 1_555
H7_6 C7_6 1_555 1_555
C8_6 N1_6 1_555 1_555
H8_6 C8_6 1_555 1_555
H9_6 C8_6 1_555 1_555
C9_6 O1_6 1_555 1_555
C10_6 N1_6 1_555 1_555
H10_6 C10_6 1_555 1_555
H11_6 C10_6 1_555 1_555
C11_6 O3_6 1_555 1_555
C12_6 C1_6 1_555 1_555
C13_6 C3_6 1_555 1_555
C14_6 H12_6 1_555 1_555
C15_6 C14_6 1_555 1_555
H13_6 C15_6 1_555 1_555
C16_6 C15_6 1_555 1_555
C17_6 C16_6 1_555 1_555
H14_6 C17_6 1_555 1_555
C18_6 N2_6 1_555 1_555
H15_6 C18_6 1_555 1_555
Co8_2 O1_6 1_555 1_555
C5_6 C6_6 1_555 1_555
C8_6 C9_6 1_555 1_555
C10_6 C11_6 1_555 1_555
C17_6 C18_6 1_555 1_555
N4 C23_6 1_555 1_555
H16_6 C19_6 1_555 1_555
C20_6 C19_6 1_555 1_555
H17_6 C20_6 1_555 1_555
C21_6 C20_6 1_555 1_555
C22_6 C21_6 1_555 1_555
H18_6 C22_6 1_555 1_555
C23_6 C22_6 1_555 1_555
H19_6 C23_6 1_555 1_555
C25_6 C21_6 1_555 1_555
H20_6 C24_6 1_555 1_555

#END
