
###############################################################################
#
# This file contains modified crystal structure data generated from the
# MOF subset of the Cambridge Structural Database (CSD) v543 
# hosted by the Cambridge Crystallographic Data Centre (CCDC).
#
# This work is licensed under the Creative Commons
# Attribution-NonCommercial-ShareAlike 4.0 International License.
# To view a copy of this license, visit
# http://creativecommons.org/licenses/by-nc-sa/4.0/
# or send a letter to
# Creative Commons, PO Box 1866, Mountain View, CA 94042, USA.
#
# CIF created using the CSD Python API on 29 September 2022
# The structure has been converted into the P1 space group
# The structure has a 3D framework
# The original CSD entry FIFNUE01 is in the monoclinic crystal system
# The framework has been calculated to contain at least 10.0% void space
# The void calculation uses a probe of radius 1.32A, grid spacing 0.4
#
###############################################################################

data_FIFNUE01
_chemical_formula_moiety         '(C48 H48 Co4 N8 O20)n'
_symmetry_cell_setting           triclinic
_symmetry_space_group_name_H-M   'P 1'
_symmetry_Int_Tables_number      1
_space_group_name_Hall           'P 1'
loop_
_symmetry_equiv_pos_site_id
_symmetry_equiv_pos_as_xyz
1 x,y,z
_cell_length_a                   10.5245(11)
_cell_length_b                   20.292(2)
_cell_length_c                   8.1405(8)
_cell_angle_alpha                90
_cell_angle_beta                 102.250(2)
_cell_angle_gamma                90
_cell_volume                     1698.93
loop_
_atom_site_label
_atom_site_type_symbol
_atom_site_fract_x
_atom_site_fract_y
_atom_site_fract_z
Co1 Co 0.45406(13) 0.25374(3) 0.37208(14)
O1 O 0.2962(4) 0.20260(19) 0.2226(5)
O2 O 0.5250(4) 0.2834(2) 0.1625(5)
N1 N 0.3562(5) 0.3469(2) 0.3657(6)
N2 N 0.0511(5) 0.6599(2) 0.3821(6)
C1 C 0.2441(7) 0.3546(3) 0.4202(9)
H1 H 0.2063 0.3165 0.4583
C2 C 0.4053(7) 0.4024(3) 0.3137(10)
H2 H 0.4834 0.3993 0.2734
C3 C 0.2340(6) 0.4707(3) 0.3724(8)
C4 C 0.1718(6) 0.5361(3) 0.3790(8)
C6 C 0.1824(6) 0.4131(3) 0.4237(8)
H4 H 0.1030 0.4147 0.4616
C7 C 0.2340(7) 0.5941(3) 0.3458(9)
H5 H 0.3185 0.5927 0.3219
C8 C 0.0482(6) 0.5428(3) 0.4139(9)
H6 H 0.0015 0.5050 0.4368
O3 O 0.3927(6) 0.2313(3) 0.5917(8)
C9 C 0.1703(6) 0.6535(3) 0.3485(8)
H7 H 0.2136 0.6924 0.3252
C10 C 0.3486(7) 0.4636(3) 0.3156(10)
H8 H 0.3882 0.5011 0.2778
O4 O 0.1174(4) 0.19857(19) 0.0211(5)
C11 C 0.1953(7) 0.2276(2) 0.1349(8)
C12 C 0.4877(7) 0.2632(3) 0.0127(9)
H9 H 0.174(5) 0.270(3) 0.144(6)
H10 H 0.431(7) 0.224(4) 0.011(8)
H11 H 0.346(8) 0.194(5) 0.599(10)
H12 H 0.415(7) 0.244(3) 0.649(10)
N3 N 0.5511(5) 0.1599(2) 0.3821(6)
O6 O 0.6174(4) 0.30143(19) 0.5211(5)
C5 C 0.9950(6) 0.6041(3) 0.4148(9)
H3 H 0.9114 0.6071 0.4409
Co2 Co 0.95406(13) 0.75374(3) 0.37208(14)
Co3 Co 0.95406(13) 0.24626(3) 0.87208(14)
O3_2 O 0.3927(6) 0.7687(3) 0.0917(8)
H11_2 H 0.346(8) 0.806(5) 0.099(10)
H12_2 H 0.415(7) 0.756(3) 0.149(10)
O6_2 O 0.6174(4) 0.69857(19) 0.0211(5)
Co1_2 Co 0.45406(13) 0.74626(3) 0.87208(14)
O1_2 O 0.2962(4) 0.79740(19) 0.7226(5)
O2_2 O 0.5250(4) 0.7166(2) 0.6625(5)
N1_2 N 0.3562(5) 0.6531(2) 0.8657(6)
N2_2 N 0.0511(5) 0.3401(2) 0.8821(6)
C1_2 C 0.2441(7) 0.6454(3) 0.9202(9)
H1_2 H 0.2063 0.6835 0.9583
C2_2 C 0.4053(7) 0.5976(3) 0.8137(10)
H2_2 H 0.4834 0.6007 0.7734
C3_2 C 0.2340(6) 0.5293(3) 0.8724(8)
C4_2 C 0.1718(6) 0.4639(3) 0.8790(8)
C6_2 C 0.1824(6) 0.5869(3) 0.9237(8)
H4_2 H 0.1030 0.5853 0.9616
C7_2 C 0.2340(7) 0.4059(3) 0.8458(9)
H5_2 H 0.3185 0.4073 0.8219
C8_2 C 0.0482(6) 0.4572(3) 0.9139(9)
H6_2 H 0.0015 0.4950 0.9368
C9_2 C 0.1703(6) 0.3465(3) 0.8485(8)
H7_2 H 0.2136 0.3076 0.8252
C10_2 C 0.3486(7) 0.5364(3) 0.8156(10)
H8_2 H 0.3882 0.4989 0.7778
O4_2 O 0.1174(4) 0.80143(19) 0.5211(5)
C11_2 C 0.1953(7) 0.7724(2) 0.6349(8)
O5 O 0.5112(6) 0.7116(3) 0.3871(6)
C12_2 C 0.4877(7) 0.7368(3) 0.5127(9)
H9_2 H 0.174(5) 0.730(3) 0.644(6)
H10_2 H 0.431(7) 0.776(4) 0.511(8)
N3_2 N 0.5511(5) 0.8401(2) 0.8821(6)
C5_2 C 0.9950(6) 0.3959(3) 0.9148(9)
H3_2 H 0.9114 0.3929 0.9409
O2_3 O 0.0250(4) 0.7834(2) 0.1625(5)
C4_3 C 0.6718(6) 0.0361(3) 0.3790(8)
C5_3 C 0.4950(6) 0.1041(3) 0.4148(9)
H3_3 H 0.4114 0.1071 0.4409
C7_3 C 0.7340(7) 0.0941(3) 0.3458(9)
H5_3 H 0.8185 0.0927 0.3219
C8_3 C 0.5482(6) 0.0428(3) 0.4139(9)
H6_3 H 0.5015 0.0050 0.4368
C9_3 C 0.6703(6) 0.1535(3) 0.3485(8)
H7_3 H 0.7136 0.1924 0.3252
H8_3 H 0.8882 0.0011 0.2778
O1_3 O 0.7962(4) 0.70260(19) 0.2226(5)
N1_3 N 0.8562(5) 0.8469(2) 0.3657(6)
C1_3 C 0.7441(7) 0.8546(3) 0.4202(9)
H1_3 H 0.7063 0.8165 0.4583
C2_3 C 0.9053(7) 0.9024(3) 0.3137(10)
H2_3 H 0.9834 0.8993 0.2734
C3_3 C 0.7340(6) 0.9707(3) 0.3724(8)
C6_3 C 0.6824(6) 0.9131(3) 0.4237(8)
H4_3 H 0.6030 0.9147 0.4616
O3_3 O 0.8927(6) 0.7313(3) 0.5917(8)
C10_3 C 0.8486(7) 0.9636(3) 0.3156(10)
C11_3 C 0.6953(7) 0.7276(2) 0.1349(8)
C12_3 C 0.9877(7) 0.7632(3) 0.0127(9)
H9_3 H 0.674(5) 0.770(3) 0.144(6)
H10_3 H 0.931(7) 0.724(4) 0.011(8)
H11_3 H 0.846(8) 0.694(5) 0.599(10)
H12_3 H 0.915(7) 0.744(3) 0.649(10)
O2_4 O 0.0250(4) 0.2166(2) 0.6625(5)
O5_2 O 0.0112(6) 0.2116(3) 0.3871(6)
O1_4 O 0.7962(4) 0.29740(19) 0.7226(5)
N1_4 N 0.8562(5) 0.1531(2) 0.8657(6)
C1_4 C 0.7441(7) 0.1454(3) 0.9202(9)
H1_4 H 0.7063 0.1835 0.9583
C2_4 C 0.9053(7) 0.0976(3) 0.8137(10)
H2_4 H 0.9834 0.1007 0.7734
C3_4 C 0.7340(6) 0.0293(3) 0.8724(8)
C6_4 C 0.6824(6) 0.0869(3) 0.9237(8)
H4_4 H 0.6030 0.0853 0.9616
C10_4 C 0.8486(7) 0.0364(3) 0.8156(10)
C11_4 C 0.6953(7) 0.2724(2) 0.6349(8)
C12_4 C 0.9877(7) 0.2368(3) 0.5127(9)
H9_4 H 0.674(5) 0.230(3) 0.644(6)
H10_4 H 0.931(7) 0.276(4) 0.511(8)
C4_4 C 0.6718(6) 0.9639(3) 0.8790(8)
C5_4 C 0.4950(6) 0.8959(3) 0.9148(9)
H3_4 H 0.4114 0.8929 0.9409
C7_4 C 0.7340(7) 0.9059(3) 0.8458(9)
H5_4 H 0.8185 0.9073 0.8219
C8_4 C 0.5482(6) 0.9572(3) 0.9139(9)
H6_4 H 0.5015 0.9950 0.9368
C9_4 C 0.6703(6) 0.8465(3) 0.8485(8)
H7_4 H 0.7136 0.8076 0.8252
H8_4 H 0.8882 0.9989 0.7778
O5_3 O 0.5112(6) 0.2884(3) 0.8871(6)
O5_4 O 0.0112(6) 0.7884(3) 0.8871(6)
O3_4 O 0.8927(6) 0.2687(3) 0.0917(8)
H11_4 H 0.846(8) 0.306(5) 0.099(10)
H12_4 H 0.915(7) 0.256(3) 0.149(10)
loop_
_geom_bond_atom_site_label_1
_geom_bond_atom_site_label_2
_geom_bond_site_symmetry_1
_geom_bond_site_symmetry_2
Co1 O1 1_555 1_555
O1 C11 1_555 1_555
O2 Co1 1_555 1_555
N1 Co1 1_555 1_555
C1 N1 1_555 1_555
H1 C1 1_555 1_555
C2 N1 1_555 1_555
H2 C2 1_555 1_555
C3 C4 1_555 1_555
C4 C7 1_555 1_555
C6 C1 1_555 1_555
H4 C6 1_555 1_555
C7 H5 1_555 1_555
C8 C4 1_555 1_555
H6 C8 1_555 1_555
O3 Co1 1_555 1_555
C9 N2 1_555 1_555
H7 C9 1_555 1_555
C10 C2 1_555 1_555
H8 C10 1_555 1_555
O4 C11 1_555 1_555
C11 H9 1_555 1_555
C12 O2 1_555 1_555
H10 C12 1_555 1_555
H11 O3 1_555 1_555
H12 O3 1_555 1_555
N3 Co1 1_555 1_555
O6 Co1 1_555 1_555
C3 C6 1_555 1_555
C3 C10 1_555 1_555
C7 C9 1_555 1_555
C5 H3 1_555 1_555
H11_2 O3_2 1_555 1_555
H12_2 O3_2 1_555 1_555
Co1_2 O1_2 1_555 1_555
O1_2 C11_2 1_555 1_555
O2_2 Co1_2 1_555 1_555
N1_2 Co1_2 1_555 1_555
C1_2 N1_2 1_555 1_555
H1_2 C1_2 1_555 1_555
C2_2 N1_2 1_555 1_555
H2_2 C2_2 1_555 1_555
C3_2 C4_2 1_555 1_555
C4_2 C7_2 1_555 1_555
C6_2 C1_2 1_555 1_555
H4_2 C6_2 1_555 1_555
C7_2 H5_2 1_555 1_555
C8_2 C4_2 1_555 1_555
H6_2 C8_2 1_555 1_555
C9_2 N2_2 1_555 1_555
H7_2 C9_2 1_555 1_555
C10_2 C2_2 1_555 1_555
H8_2 C10_2 1_555 1_555
O4_2 C11_2 1_555 1_555
C11_2 H9_2 1_555 1_555
O5 C12_2 1_555 1_555
C12_2 O2_2 1_555 1_555
H10_2 C12_2 1_555 1_555
N3_2 Co1_2 1_555 1_555
C3_2 C6_2 1_555 1_555
C3_2 C10_2 1_555 1_555
C7_2 C9_2 1_555 1_555
C5_2 H3_2 1_555 1_555
N3 C5_3 1_555 1_555
C4_3 C7_3 1_555 1_555
C5_3 H3_3 1_555 1_555
C7_3 H5_3 1_555 1_555
C8_3 C4_3 1_555 1_555
H6_3 C8_3 1_555 1_555
C9_3 N3 1_555 1_555
H7_3 C9_3 1_555 1_555
C5_3 C8_3 1_555 1_555
C7_3 C9_3 1_555 1_555
Co2 O1_3 1_555 1_555
O1_3 C11_3 1_555 1_555
N1_3 Co2 1_555 1_555
C1_3 N1_3 1_555 1_555
H1_3 C1_3 1_555 1_555
C2_3 N1_3 1_555 1_555
H2_3 C2_3 1_555 1_555
C6_3 C1_3 1_555 1_555
H4_3 C6_3 1_555 1_555
O3_3 Co2 1_555 1_555
C10_3 C2_3 1_555 1_555
O6_2 C11_3 1_555 1_555
C11_3 H9_3 1_555 1_555
H10_3 C12_3 1_555 1_555
H11_3 O3_3 1_555 1_555
H12_3 O3_3 1_555 1_555
C3_3 C6_3 1_555 1_555
C3_3 C10_3 1_555 1_555
Co3 O1_4 1_555 1_555
O1_4 C11_4 1_555 1_555
N1_4 Co3 1_555 1_555
C1_4 N1_4 1_555 1_555
H1_4 C1_4 1_555 1_555
C2_4 N1_4 1_555 1_555
H2_4 C2_4 1_555 1_555
C6_4 C1_4 1_555 1_555
H4_4 C6_4 1_555 1_555
C10_4 C2_4 1_555 1_555
O6 C11_4 1_555 1_555
C11_4 H9_4 1_555 1_555
H10_4 C12_4 1_555 1_555
C3_4 C6_4 1_555 1_555
C3_4 C10_4 1_555 1_555
N3_2 C5_4 1_555 1_555
C4_4 C7_4 1_555 1_555
C5_4 H3_4 1_555 1_555
C7_4 H5_4 1_555 1_555
C8_4 C4_4 1_555 1_555
H6_4 C8_4 1_555 1_555
C9_4 N3_2 1_555 1_555
H7_4 C9_4 1_555 1_555
C5_4 C8_4 1_555 1_555
C7_4 C9_4 1_555 1_555
H11_4 O3_4 1_555 1_555
H12_4 O3_4 1_555 1_555

#END
