
###############################################################################
#
# This file contains modified crystal structure data generated from the
# MOF subset of the Cambridge Structural Database (CSD) v543 
# hosted by the Cambridge Crystallographic Data Centre (CCDC).
#
# This work is licensed under the Creative Commons
# Attribution-NonCommercial-ShareAlike 4.0 International License.
# To view a copy of this license, visit
# http://creativecommons.org/licenses/by-nc-sa/4.0/
# or send a letter to
# Creative Commons, PO Box 1866, Mountain View, CA 94042, USA.
#
# CIF created using the CSD Python API on 29 September 2022
# The structure has been converted into the P1 space group
# The structure has a 3D framework
# The original CSD entry FIFNUE is in the monoclinic crystal system
# The framework has been calculated to contain at least 10.0% void space
# The void calculation uses a probe of radius 1.32A, grid spacing 0.4
# H atom positions have been added when not included in the experimental data
#
###############################################################################

data_FIFNUE
_chemical_formula_moiety         '(C48 H48 Co4 N8 O22)n'
_symmetry_cell_setting           triclinic
_symmetry_space_group_name_H-M   'P 1'
_symmetry_Int_Tables_number      1
_space_group_name_Hall           'P 1'
loop_
_symmetry_equiv_pos_site_id
_symmetry_equiv_pos_as_xyz
1 x,y,z
_cell_length_a                   10.5108(3)
_cell_length_b                   20.2765(7)
_cell_length_c                   8.1309(2)
_cell_angle_alpha                90
_cell_angle_beta                 102.223(2)
_cell_angle_gamma                90
_cell_volume                     1693.59
loop_
_atom_site_label
_atom_site_type_symbol
_atom_site_fract_x
_atom_site_fract_y
_atom_site_fract_z
O3 O 0.0129(2) 0.28389(12) 0.3003(3)
O4 O 0.0000(3) 0.28831(14) 0.0250(3)
O6 O 0.1063(2) 0.30169(12) 0.6595(3)
N3 N 0.0399(3) 0.16019(13) 0.5192(4)
H3 H 0.3740 0.0007 0.4165
C6 C 0.1592(4) 0.03610(16) 0.5168(4)
C7 C 0.2216(4) 0.09439(18) 0.4844(5)
H5 H 0.3047 0.0928 0.4619
C8 C 0.0373(4) 0.04267(18) 0.5533(5)
C9 C 0.1589(4) 0.15387(16) 0.4863(5)
H7 H 0.2015 0.1919 0.4633
O1 O 0.2852(2) 0.29751(11) 0.8612(3)
O3_2 O 0.5129(2) 0.21611(12) 0.8003(3)
O4_2 O 0.5000(3) 0.21169(14) 0.5250(3)
C1 C 0.3929(4) 0.09749(17) 0.9519(5)
H1 H 0.4694 0.1005 0.9122
C3 C 0.3356(5) 0.03607(18) 0.9540(6)
C11 C 0.1840(4) 0.27257(14) 0.7747(5)
H9 H 0.1651 0.2292 0.7976
C12 C 0.4746(3) 0.23654(16) 0.6522(4)
H10 H 0.4221 0.2739 0.6375
Co1 Co 0.94204(8) 0.25379(2) 0.51007(9)
O1_2 O 0.7852(2) 0.20249(11) 0.3612(3)
O2 O 0.6063(2) 0.19831(12) 0.1595(3)
O4_3 O 1.0000(3) 0.28831(14) 0.0250(3)
O5 O 0.8806(3) 0.23149(13) 0.7332(3)
N1 N 0.8445(3) 0.34789(13) 0.5035(3)
N2 N 0.5399(3) 0.66019(13) 0.5192(4)
C1_2 C 0.8929(4) 0.40251(17) 0.4519(5)
H1_2 H 0.9694 0.3995 0.4122
C2 C 0.7326(4) 0.35492(17) 0.5581(5)
H2 H 0.6956 0.3175 0.5945
C3_2 C 0.8356(5) 0.46393(18) 0.4540(6)
H3_2 H 0.8740 0.5007 0.4165
C4 C 0.6710(4) 0.41338(17) 0.5629(5)
H4 H 0.5938 0.4150 0.6014
C5 C 0.7222(4) 0.47075(17) 0.5110(5)
C6_2 C 0.6592(4) 0.53610(16) 0.5168(4)
C7_2 C 0.7216(4) 0.59439(18) 0.4844(5)
H5_2 H 0.8047 0.5928 0.4619
C8_2 C 0.5373(4) 0.54267(18) 0.5533(5)
H6 H 0.4923 0.5056 0.5770
C9_2 C 0.6589(4) 0.65387(16) 0.4863(5)
H7_2 H 0.7015 0.6919 0.4633
C10 C 0.4825(4) 0.60479(18) 0.5543(5)
H8 H 0.4009 0.6080 0.5810
C11_2 C 0.6840(4) 0.22743(14) 0.2747(5)
H9_2 H 0.6651 0.2708 0.2976
C12_2 C 0.9746(3) 0.26346(16) 0.1522(4)
H10_2 H 0.9221 0.2261 0.1375
Co2 Co 0.44204(8) 0.24621(2) 0.01007(9)
Co3 Co 0.44204(8) 0.75379(2) 0.51007(9)
H11 H 0.878648 0.182894 0.747595
H12 H 0.942027 0.251278 0.830368
O6_2 O 0.1063(2) 0.69831(12) 0.1595(3)
N3_2 N 0.0399(3) 0.83981(13) 0.0192(4)
Co1_2 Co 0.94204(8) 0.74621(2) 0.01007(9)
O5_2 O 0.8806(3) 0.76851(13) 0.2332(3)
N1_2 N 0.8445(3) 0.65211(13) 0.0035(3)
N2_2 N 0.5399(3) 0.33981(13) 0.0192(4)
C2_2 C 0.7326(4) 0.64508(17) 0.0581(5)
H2_2 H 0.6956 0.6825 0.0945
C4_2 C 0.6710(4) 0.58662(17) 0.0629(5)
H4_2 H 0.5938 0.5850 0.1014
C5_2 C 0.7222(4) 0.52925(17) 0.0110(5)
C6_3 C 0.6592(4) 0.46390(16) 0.0168(4)
C8_3 C 0.5373(4) 0.45733(18) 0.0533(5)
H6_2 H 0.4923 0.4944 0.0770
C10_2 C 0.4825(4) 0.39521(18) 0.0543(5)
H8_2 H 0.4009 0.3920 0.0810
H11_2 H 0.878648 0.817106 0.247595
H12_2 H 0.942027 0.748722 0.330368
O1_3 O 0.7852(2) 0.79751(11) 0.8612(3)
O2_2 O 0.6063(2) 0.80169(12) 0.6595(3)
O4_4 O 1.0000(3) 0.71169(14) 0.5250(3)
C1_3 C 0.8929(4) 0.59749(17) 0.9519(5)
H1_3 H 0.9694 0.6005 0.9122
C3_3 C 0.8356(5) 0.53607(18) 0.9540(6)
H3_3 H 0.8740 0.4993 0.9165
C7_3 C 0.7216(4) 0.40561(18) 0.9844(5)
H5_3 H 0.8047 0.4072 0.9619
C9_3 C 0.6589(4) 0.34613(16) 0.9863(5)
H7_3 H 0.7015 0.3081 0.9633
C11_3 C 0.6840(4) 0.77257(14) 0.7747(5)
H9_3 H 0.6651 0.7292 0.7976
C12_3 C 0.9746(3) 0.73654(16) 0.6522(4)
H10_3 H 0.9221 0.7739 0.6375
O1_4 O 0.2852(2) 0.70249(11) 0.3612(3)
O3_3 O 0.5129(2) 0.78389(12) 0.3003(3)
O4_5 O 0.5000(3) 0.78831(14) 0.0250(3)
O5_3 O 0.3806(3) 0.73149(13) 0.7332(3)
N1_3 N 0.3445(3) 0.84789(13) 0.5035(3)
C1_4 C 0.3929(4) 0.90251(17) 0.4519(5)
H1_4 H 0.4694 0.8995 0.4122
C2_3 C 0.2326(4) 0.85492(17) 0.5581(5)
H2_3 H 0.1956 0.8175 0.5945
C3_4 C 0.3356(5) 0.96393(18) 0.4540(6)
C4_3 C 0.1710(4) 0.91338(17) 0.5629(5)
H4_3 H 0.0938 0.9150 0.6014
C5_3 C 0.2222(4) 0.97075(17) 0.5110(5)
C11_4 C 0.1840(4) 0.72743(14) 0.2747(5)
H9_4 H 0.1651 0.7708 0.2976
C12_4 C 0.4746(3) 0.76346(16) 0.1522(4)
H10_4 H 0.4221 0.7261 0.1375
H11_3 H 0.378648 0.682894 0.747595
H12_3 H 0.442027 0.751278 0.830368
H6_3 H 0.9923 0.0056 0.5770
C10_3 C 0.9825(4) 0.10479(18) 0.5543(5)
H8_3 H 0.9009 0.1080 0.5810
O5_4 O 0.3806(3) 0.26851(13) 0.2332(3)
N1_4 N 0.3445(3) 0.15211(13) 0.0035(3)
C2_4 C 0.2326(4) 0.14508(17) 0.0581(5)
H2_4 H 0.1956 0.1825 0.0945
C4_4 C 0.1710(4) 0.08662(17) 0.0629(5)
H4_4 H 0.0938 0.0850 0.1014
C5_4 C 0.2222(4) 0.02925(17) 0.0110(5)
H11_4 H 0.378648 0.317106 0.247595
H12_4 H 0.442027 0.248722 0.330368
C6_4 C 0.1592(4) 0.96390(16) 0.0168(4)
C8_4 C 0.0373(4) 0.95733(18) 0.0533(5)
H6_4 H 0.9923 0.9944 0.0770
C10_4 C 0.9825(4) 0.89521(18) 0.0543(5)
H8_4 H 0.9009 0.8920 0.0810
O3_4 O 0.0129(2) 0.71611(12) 0.8003(3)
O4_6 O 0.0000(3) 0.71169(14) 0.5250(3)
H3_4 H 0.3740 0.9993 0.9165
C7_4 C 0.2216(4) 0.90561(18) 0.9844(5)
H5_4 H 0.3047 0.9072 0.9619
C9_4 C 0.1589(4) 0.84613(16) 0.9863(5)
H7_4 H 0.2015 0.8081 0.9633
loop_
_geom_bond_atom_site_label_1
_geom_bond_atom_site_label_2
_geom_bond_site_symmetry_1
_geom_bond_site_symmetry_2
N3 C9 1_555 1_555
C7 C6 1_555 1_555
H5 C7 1_555 1_555
C8 C6 1_555 1_555
C9 C7 1_555 1_555
H7 C9 1_555 1_555
O1 C11 1_555 1_555
O6 C11 1_555 1_555
O4_2 C12 1_555 1_555
H1 C1 1_555 1_555
C3 C1 1_555 1_555
C11 H9 1_555 1_555
C12 O3_2 1_555 1_555
H10 C12 1_555 1_555
Co1 O1_2 1_555 1_555
O1_2 C11_2 1_555 1_555
O2 C11_2 1_555 1_555
O4_3 C12_2 1_555 1_555
O5 Co1 1_555 1_555
N1 Co1 1_555 1_555
N2 C9_2 1_555 1_555
C1_2 N1 1_555 1_555
H1_2 C1_2 1_555 1_555
C2 N1 1_555 1_555
H2 C2 1_555 1_555
C3_2 C1_2 1_555 1_555
H3_2 C3_2 1_555 1_555
C4 C2 1_555 1_555
H4 C4 1_555 1_555
C5 C3_2 1_555 1_555
C6_2 C5 1_555 1_555
C7_2 C6_2 1_555 1_555
H5_2 C7_2 1_555 1_555
C8_2 C6_2 1_555 1_555
H6 C8_2 1_555 1_555
C9_2 C7_2 1_555 1_555
H7_2 C9_2 1_555 1_555
C10 N2 1_555 1_555
H8 C10 1_555 1_555
C11_2 H9_2 1_555 1_555
H10_2 C12_2 1_555 1_555
Co2 O2 1_555 1_555
Co3 N2 1_555 1_555
C4 C5 1_555 1_555
C8_2 C10 1_555 1_555
O5 H11 1_555 1_555
O5 H12 1_555 1_555
O5_2 Co1_2 1_555 1_555
N1_2 Co1_2 1_555 1_555
C2_2 N1_2 1_555 1_555
H2_2 C2_2 1_555 1_555
C4_2 C2_2 1_555 1_555
H4_2 C4_2 1_555 1_555
C6_3 C5_2 1_555 1_555
C8_3 C6_3 1_555 1_555
H6_2 C8_3 1_555 1_555
C10_2 N2_2 1_555 1_555
H8_2 C10_2 1_555 1_555
Co2 N2_2 1_555 1_555
C4_2 C5_2 1_555 1_555
C8_3 C10_2 1_555 1_555
O5_2 H11_2 1_555 1_555
O5_2 H12_2 1_555 1_555
O1_3 C11_3 1_555 1_555
O2_2 C11_3 1_555 1_555
O4_4 C12_3 1_555 1_555
H1_3 C1_3 1_555 1_555
C3_3 C1_3 1_555 1_555
H3_3 C3_3 1_555 1_555
H5_3 C7_3 1_555 1_555
C9_3 C7_3 1_555 1_555
H7_3 C9_3 1_555 1_555
C11_3 H9_3 1_555 1_555
H10_3 C12_3 1_555 1_555
Co3 O2_2 1_555 1_555
Co3 O1_4 1_555 1_555
O1_4 C11_4 1_555 1_555
O6_2 C11_4 1_555 1_555
O3_3 Co3 1_555 1_555
O4_5 C12_4 1_555 1_555
O5_3 Co3 1_555 1_555
N1_3 Co3 1_555 1_555
C1_4 N1_3 1_555 1_555
H1_4 C1_4 1_555 1_555
C2_3 N1_3 1_555 1_555
H2_3 C2_3 1_555 1_555
C3_4 C1_4 1_555 1_555
C4_3 C2_3 1_555 1_555
H4_3 C4_3 1_555 1_555
C5_3 C3_4 1_555 1_555
C11_4 H9_4 1_555 1_555
C12_4 O3_3 1_555 1_555
H10_4 C12_4 1_555 1_555
C4_3 C5_3 1_555 1_555
O5_3 H11_3 1_555 1_555
O5_3 H12_3 1_555 1_555
H8_3 C10_3 1_555 1_555
O5_4 Co2 1_555 1_555
N1_4 Co2 1_555 1_555
C2_4 N1_4 1_555 1_555
H2_4 C2_4 1_555 1_555
C4_4 C2_4 1_555 1_555
H4_4 C4_4 1_555 1_555
C4_4 C5_4 1_555 1_555
O5_4 H11_4 1_555 1_555
O5_4 H12_4 1_555 1_555
C8_4 C6_4 1_555 1_555
H8_4 C10_4 1_555 1_555
H5_4 C7_4 1_555 1_555
C9_4 C7_4 1_555 1_555
H7_4 C9_4 1_555 1_555

#END
