
###############################################################################
#
# This file contains modified crystal structure data generated from the
# MOF subset of the Cambridge Structural Database (CSD) v543 
# hosted by the Cambridge Crystallographic Data Centre (CCDC).
#
# This work is licensed under the Creative Commons
# Attribution-NonCommercial-ShareAlike 4.0 International License.
# To view a copy of this license, visit
# http://creativecommons.org/licenses/by-nc-sa/4.0/
# or send a letter to
# Creative Commons, PO Box 1866, Mountain View, CA 94042, USA.
#
# CIF created using the CSD Python API on 29 September 2022
# The structure has been converted into the P1 space group
# The structure has a 3D framework
# The original CSD entry FIFPAM01 is in the monoclinic crystal system
# The framework has been calculated to contain at least 10.0% void space
# The void calculation uses a probe of radius 1.32A, grid spacing 0.4
#
###############################################################################

data_FIFPAM01
_chemical_formula_moiety         '(C48 H48 N8 Ni4 O20)n'
_symmetry_cell_setting           triclinic
_symmetry_space_group_name_H-M   'P 1'
_symmetry_Int_Tables_number      1
_space_group_name_Hall           'P 1'
loop_
_symmetry_equiv_pos_site_id
_symmetry_equiv_pos_as_xyz
1 x,y,z
_cell_length_a                   10.5032(18)
_cell_length_b                   20.087(3)
_cell_length_c                   8.1405(14)
_cell_angle_alpha                90
_cell_angle_beta                 102.656(3)
_cell_angle_gamma                90
_cell_volume                     1675.74
loop_
_atom_site_label
_atom_site_type_symbol
_atom_site_fract_x
_atom_site_fract_y
_atom_site_fract_z
Ni1 Ni 0.2015(3) 0.25324(6) 0.1818(3)
O1 O 0.0383(8) 0.3003(3) 0.0364(10)
O4 O 0.1327(8) 0.2849(4) 0.3926(10)
N1 N 0.1074(10) 0.1619(4) 0.1754(11)
C5 C 0.1072(13) 0.0424(6) 0.1388(16)
C7 C 0.1614(13) 0.1047(5) 0.1385(18)
O5 O 0.1427(10) 0.2874(5) 0.6657(11)
C8 C 0.1715(11) 0.2626(5) 0.5390(13)
H5 H 0.259(8) 0.108(4) 0.085(10)
H7 H 0.210(11) 0.224(6) 0.527(14)
O6 O 0.3611(8) 0.2032(3) 0.3325(10)
N3 N 0.2998(10) 0.3461(4) 0.1881(13)
O2 O 0.8611(8) 0.2968(3) 0.8325(10)
C9 C 0.9608(13) 0.2709(4) 0.9202(15)
H2 H 0.977(8) 0.220(3) 0.902(9)
Ni2 Ni 0.7015(3) 0.24676(6) 0.6818(3)
C1 C 0.9214(12) 0.9703(5) 0.1838(16)
C6 C 0.8080(16) 0.9625(6) 0.236(2)
N2 N 0.7998(10) 0.8461(4) 0.1881(13)
C10 C 0.9717(15) 0.9119(7) 0.136(2)
C11 C 0.7495(15) 0.9020(5) 0.241(2)
C12 C 0.9126(13) 0.8525(6) 0.1377(16)
H4 H 0.781(10) 0.983(5) 0.273(12)
H6 H 0.700(10) 0.890(4) 0.261(13)
H9 H 0.939(13) 0.811(7) 0.138(16)
Ni3 Ni 0.7015(3) 0.75324(6) 0.1818(3)
Ni1_2 Ni 0.2015(3) 0.74676(6) 0.6818(3)
O1_2 O 0.0383(8) 0.6997(3) 0.5364(10)
O3 O 0.2626(9) 0.7694(5) 0.4626(10)
O4_2 O 0.1327(8) 0.7151(4) 0.8926(10)
N1_2 N 0.1074(10) 0.8381(4) 0.6754(11)
C5_2 C 0.1072(13) 0.9576(6) 0.6388(16)
C7_2 C 0.1614(13) 0.8953(5) 0.6385(18)
H5_2 H 0.259(8) 0.892(4) 0.585(10)
H10 H 0.266(10) 0.739(5) 0.477(13)
H11 H 0.300(12) 0.803(6) 0.437(15)
O6_2 O 0.3611(8) 0.7968(3) 0.8325(10)
N3_2 N 0.2998(10) 0.6539(4) 0.6881(13)
C1_2 C 0.9214(12) 0.0297(5) 0.6838(16)
C6_2 C 0.8080(16) 0.0375(6) 0.736(2)
N2_2 N 0.7998(10) 0.1539(4) 0.6881(13)
C10_2 C 0.9717(15) 0.0881(7) 0.636(2)
C11_2 C 0.7495(15) 0.0980(5) 0.741(2)
C12_2 C 0.9126(13) 0.1475(6) 0.6377(16)
H4_2 H 0.781(10) 0.017(5) 0.773(12)
H6_2 H 0.700(10) 0.110(4) 0.761(13)
H9_2 H 0.939(13) 0.189(7) 0.638(16)
O2_2 O 0.8611(8) 0.7032(3) 0.3325(10)
C2 C 0.9837(12) 0.9632(5) 0.6789(14)
C3 C 0.9901(12) 0.8453(5) 0.7103(16)
C4 C 0.9209(14) 0.9050(6) 0.7138(16)
C9_2 C 0.9608(13) 0.7291(4) 0.4202(15)
H1 H 0.934(13) 0.812(6) 0.764(16)
H2_2 H 0.977(8) 0.780(3) 0.402(9)
H3 H 0.834(10) 0.905(4) 0.738(12)
O1_3 O 0.5383(8) 0.8003(3) 0.0364(10)
O4_3 O 0.6327(8) 0.7849(4) 0.3926(10)
N1_3 N 0.6074(10) 0.6619(4) 0.1754(11)
C1_3 C 0.4214(12) 0.4703(5) 0.1838(16)
C2_2 C 0.4837(12) 0.5368(5) 0.1789(14)
C3_2 C 0.4901(12) 0.6547(5) 0.2103(16)
C4_2 C 0.4209(14) 0.5950(6) 0.2138(16)
C5_3 C 0.6072(13) 0.5424(6) 0.1388(16)
C6_3 C 0.3080(16) 0.4625(6) 0.236(2)
C7_3 C 0.6614(13) 0.6047(5) 0.1385(18)
O5_2 O 0.6427(10) 0.7874(5) 0.6657(11)
C8_2 C 0.6715(11) 0.7626(5) 0.5390(13)
H1_2 H 0.434(13) 0.688(6) 0.264(16)
C10_3 C 0.4717(15) 0.4119(7) 0.136(2)
C11_3 C 0.2495(15) 0.4020(5) 0.241(2)
C12_3 C 0.4126(13) 0.3525(6) 0.1377(16)
H3_2 H 0.334(10) 0.595(4) 0.238(12)
H4_3 H 0.281(10) 0.483(5) 0.273(12)
H5_3 H 0.759(8) 0.608(4) 0.085(10)
H6_3 H 0.200(10) 0.390(4) 0.261(13)
H7_2 H 0.710(11) 0.724(6) 0.527(14)
H8 H 0.669(9) 0.499(4) 0.132(11)
H9_3 H 0.439(13) 0.311(7) 0.138(16)
H12 H 0.512(10) 0.409(5) 0.095(12)
O3_2 O 0.7626(9) 0.7306(5) 0.9626(10)
C9_3 C 0.4608(13) 0.7709(4) 0.9202(15)
H2_3 H 0.477(8) 0.720(3) 0.902(9)
H10_2 H 0.766(10) 0.761(5) 0.977(13)
H11_2 H 0.800(12) 0.697(6) 0.937(15)
O1_4 O 0.5383(8) 0.1997(3) 0.5364(10)
O3_3 O 0.7626(9) 0.2694(5) 0.4626(10)
O4_4 O 0.6327(8) 0.2151(4) 0.8926(10)
N1_4 N 0.6074(10) 0.3381(4) 0.6754(11)
C1_4 C 0.4214(12) 0.5297(5) 0.6838(16)
C2_3 C 0.4837(12) 0.4632(5) 0.6789(14)
C3_3 C 0.4901(12) 0.3453(5) 0.7103(16)
C4_3 C 0.4209(14) 0.4050(6) 0.7138(16)
C5_4 C 0.6072(13) 0.4576(6) 0.6388(16)
C6_4 C 0.3080(16) 0.5375(6) 0.736(2)
C7_4 C 0.6614(13) 0.3953(5) 0.6385(18)
C9_4 C 0.4608(13) 0.2291(4) 0.4202(15)
H1_3 H 0.434(13) 0.312(6) 0.764(16)
C10_4 C 0.4717(15) 0.5881(7) 0.636(2)
C11_4 C 0.2495(15) 0.5980(5) 0.741(2)
C12_4 C 0.4126(13) 0.6475(6) 0.6377(16)
H2_4 H 0.477(8) 0.280(3) 0.402(9)
H3_3 H 0.334(10) 0.405(4) 0.738(12)
H4_4 H 0.281(10) 0.517(5) 0.773(12)
H5_4 H 0.759(8) 0.392(4) 0.585(10)
H6_4 H 0.200(10) 0.610(4) 0.761(13)
H8_2 H 0.669(9) 0.501(4) 0.632(11)
H9_4 H 0.439(13) 0.689(7) 0.638(16)
H10_3 H 0.766(10) 0.239(5) 0.477(13)
H11_3 H 0.800(12) 0.303(6) 0.437(15)
H12_2 H 0.512(10) 0.591(5) 0.595(12)
O3_4 O 0.2626(9) 0.2306(5) 0.9626(10)
H10_4 H 0.266(10) 0.261(5) 0.977(13)
H11_4 H 0.300(12) 0.197(6) 0.937(15)
H8_3 H 0.169(9) 0.999(4) 0.132(11)
H12_3 H 0.012(10) 0.909(5) 0.095(12)
C2_4 C 0.9837(12) 0.0368(5) 0.1789(14)
C3_4 C 0.9901(12) 0.1547(5) 0.2103(16)
C4_4 C 0.9209(14) 0.0950(6) 0.2138(16)
H1_4 H 0.934(13) 0.188(6) 0.264(16)
H3_4 H 0.834(10) 0.095(4) 0.238(12)
H8_4 H 0.169(9) 0.001(4) 0.632(11)
H12_4 H 0.012(10) 0.091(5) 0.595(12)
O5_3 O 0.1427(10) 0.7126(5) 0.1657(11)
C8_3 C 0.1715(11) 0.7374(5) 0.0390(13)
H7_3 H 0.210(11) 0.776(6) 0.027(14)
O5_4 O 0.6427(10) 0.2126(5) 0.1657(11)
C8_4 C 0.6715(11) 0.2374(5) 0.0390(13)
H7_4 H 0.710(11) 0.276(6) 0.027(14)
loop_
_geom_bond_atom_site_label_1
_geom_bond_atom_site_label_2
_geom_bond_site_symmetry_1
_geom_bond_site_symmetry_2
Ni1 O1 1_555 1_555
O4 Ni1 1_555 1_555
N1 Ni1 1_555 1_555
C7 N1 1_555 1_555
O5 C8 1_555 1_555
C8 O4 1_555 1_555
H5 C7 1_555 1_555
H7 C8 1_555 1_555
O6 Ni1 1_555 1_555
N3 Ni1 1_555 1_555
C5 C7 1_555 1_555
O2 C9 1_555 1_555
C9 H2 1_555 1_555
Ni2 O2 1_555 1_555
C6 C1 1_555 1_555
N2 C11 1_555 1_555
C10 C1 1_555 1_555
C11 C6 1_555 1_555
C12 N2 1_555 1_555
H4 C6 1_555 1_555
H6 C11 1_555 1_555
H9 C12 1_555 1_555
Ni3 N2 1_555 1_555
C10 C12 1_555 1_555
Ni1_2 O1_2 1_555 1_555
O3 Ni1_2 1_555 1_555
O4_2 Ni1_2 1_555 1_555
N1_2 Ni1_2 1_555 1_555
C7_2 N1_2 1_555 1_555
H5_2 C7_2 1_555 1_555
H10 O3 1_555 1_555
H11 O3 1_555 1_555
O6_2 Ni1_2 1_555 1_555
N3_2 Ni1_2 1_555 1_555
C5_2 C7_2 1_555 1_555
C6_2 C1_2 1_555 1_555
N2_2 C11_2 1_555 1_555
C10_2 C1_2 1_555 1_555
C11_2 C6_2 1_555 1_555
C12_2 N2_2 1_555 1_555
H4_2 C6_2 1_555 1_555
H6_2 C11_2 1_555 1_555
H9_2 C12_2 1_555 1_555
Ni2 N2_2 1_555 1_555
C10_2 C12_2 1_555 1_555
O2_2 C9_2 1_555 1_555
C2 C4 1_555 1_555
C4 C3 1_555 1_555
C9_2 H2_2 1_555 1_555
H1 C3 1_555 1_555
H3 C4 1_555 1_555
Ni3 O2_2 1_555 1_555
Ni3 O1_3 1_555 1_555
O4_3 Ni3 1_555 1_555
N1_3 Ni3 1_555 1_555
C1_3 C2_2 1_555 1_555
C2_2 C4_2 1_555 1_555
C3_2 N1_3 1_555 1_555
C4_2 C3_2 1_555 1_555
C5_3 C2_2 1_555 1_555
C6_3 C1_3 1_555 1_555
C7_3 N1_3 1_555 1_555
O5_2 C8_2 1_555 1_555
C8_2 O4_3 1_555 1_555
H1_2 C3_2 1_555 1_555
N3 C11_3 1_555 1_555
C10_3 C1_3 1_555 1_555
C11_3 C6_3 1_555 1_555
C12_3 N3 1_555 1_555
H3_2 C4_2 1_555 1_555
H4_3 C6_3 1_555 1_555
H5_3 C7_3 1_555 1_555
H6_3 C11_3 1_555 1_555
H7_2 C8_2 1_555 1_555
H8 C5_3 1_555 1_555
H9_3 C12_3 1_555 1_555
H12 C10_3 1_555 1_555
C5_3 C7_3 1_555 1_555
C10_3 C12_3 1_555 1_555
O6_2 C9_3 1_555 1_555
C9_3 H2_3 1_555 1_555
H10_2 O3_2 1_555 1_555
H11_2 O3_2 1_555 1_555
Ni2 O1_4 1_555 1_555
O1_4 C9_4 1_555 1_555
O6 C9_4 1_555 1_555
O3_3 Ni2 1_555 1_555
O4_4 Ni2 1_555 1_555
N1_4 Ni2 1_555 1_555
C1_4 C2_3 1_555 1_555
C2_3 C4_3 1_555 1_555
C3_3 N1_4 1_555 1_555
C4_3 C3_3 1_555 1_555
C5_4 C2_3 1_555 1_555
C6_4 C1_4 1_555 1_555
C7_4 N1_4 1_555 1_555
C9_4 H2_4 1_555 1_555
H1_3 C3_3 1_555 1_555
N3_2 C11_4 1_555 1_555
C10_4 C1_4 1_555 1_555
C11_4 C6_4 1_555 1_555
C12_4 N3_2 1_555 1_555
H3_3 C4_3 1_555 1_555
H4_4 C6_4 1_555 1_555
H5_4 C7_4 1_555 1_555
H6_4 C11_4 1_555 1_555
H8_2 C5_4 1_555 1_555
H9_4 C12_4 1_555 1_555
H10_3 O3_3 1_555 1_555
H11_3 O3_3 1_555 1_555
H12_2 C10_4 1_555 1_555
C5_4 C7_4 1_555 1_555
C10_4 C12_4 1_555 1_555
H10_4 O3_4 1_555 1_555
H11_4 O3_4 1_555 1_555
C2_4 C4_4 1_555 1_555
C4_4 C3_4 1_555 1_555
H1_4 C3_4 1_555 1_555
H3_4 C4_4 1_555 1_555
O5_3 C8_3 1_555 1_555
H7_3 C8_3 1_555 1_555
O5_4 C8_4 1_555 1_555
H7_4 C8_4 1_555 1_555

#END
