
###############################################################################
#
# This file contains modified crystal structure data generated from the
# MOF subset of the Cambridge Structural Database (CSD) v543 
# hosted by the Cambridge Crystallographic Data Centre (CCDC).
#
# This work is licensed under the Creative Commons
# Attribution-NonCommercial-ShareAlike 4.0 International License.
# To view a copy of this license, visit
# http://creativecommons.org/licenses/by-nc-sa/4.0/
# or send a letter to
# Creative Commons, PO Box 1866, Mountain View, CA 94042, USA.
#
# CIF created using the CSD Python API on 29 September 2022
# The structure has been converted into the P1 space group
# The structure has a 3D framework
# The original CSD entry FIGQUJ is in the triclinic crystal system
# The framework has been calculated to contain at least 10.0% void space
# The void calculation uses a probe of radius 1.32A, grid spacing 0.4
#
###############################################################################

data_FIGQUJ
_chemical_formula_moiety         '(C42 H42 Cu4 N6 O18)n'
_symmetry_cell_setting           triclinic
_symmetry_space_group_name_H-M   'P 1'
_symmetry_Int_Tables_number      1
_space_group_name_Hall           'P 1'
loop_
_symmetry_equiv_pos_site_id
_symmetry_equiv_pos_as_xyz
1 x,y,z
_cell_length_a                   8.531(2)
_cell_length_b                   12.570(4)
_cell_length_c                   13.252(4)
_cell_angle_alpha                105.078(3)
_cell_angle_beta                 90.123(3)
_cell_angle_gamma                107.139(3)
_cell_volume                     1306.43
loop_
_atom_site_label
_atom_site_type_symbol
_atom_site_fract_x
_atom_site_fract_y
_atom_site_fract_z
Cu1 Cu 0.50779(15) 0.40404(11) 0.02052(9)
Cu2 Cu 0.00930(14) 0.40511(11) 0.43273(9)
O1 O 0.2468(8) 0.4938(7) 0.4550(5)
O3 O 0.4784(8) 0.4857(6) 0.1650(5)
O4 O 0.2307(7) 0.6559(6) 0.5623(5)
O7 O 0.4740(9) 0.6506(7) 0.1308(5)
N1 N 0.5680(9) 0.2641(7) 0.0622(6)
C1 C 0.3071(12) 0.5950(10) 0.5053(8)
C2 C 0.4836(11) 0.6525(9) 0.4984(7)
H2 H 0.5508 0.6377 0.5511
H3 H 0.5040 0.7371 0.5145
C3 C 0.5366(11) 0.6075(9) 0.3874(7)
H4 H 0.5163 0.5229 0.3710
H5 H 0.6559 0.6447 0.3857
C4 C 0.4373(12) 0.6353(9) 0.3029(7)
H6 H 0.3183 0.6044 0.3105
H7 H 0.4648 0.7204 0.3176
C5 C 0.4686(11) 0.5870(10) 0.1910(8)
C12 C 0.6799(12) 0.1064(10) 0.0199(8)
C13 C 0.6977(14) 0.1171(11) 0.1282(9)
H15 H 0.7415 0.0657 0.1518
C14 C 0.6532(18) 0.1997(11) 0.1985(9)
H16 H 0.6664 0.2074 0.2715
C15 C 0.5895(13) 0.2713(9) 0.1633(8)
H17 H 0.5588 0.3295 0.2132
O12 O 0.7417(9) 0.4905(7) 0.0415(5)
O14 O 0.0305(9) 0.3517(6) 0.5569(5)
N4 N 0.0645(10) 0.2628(9) 0.3245(8)
O2 O 0.0177(9) 0.5144(7) 0.6718(5)
O5 O 0.2583(9) 0.5095(7) 0.9585(5)
O6 O 0.2671(8) 0.3461(6) 0.9891(5)
O9 O 0.6957(14) 0.0732(9) 0.7907(10)
N2 N 0.7368(11) 0.0234(8) 0.9476(7)
C6 C 0.1926(13) 0.4069(10) 0.9589(8)
C7 C 0.0149(13) 0.3515(11) 0.9218(8)
C9 C 0.0599(14) 0.3625(11) 0.7366(8)
H12 H 0.1790 0.3906 0.7595
H13 H 0.0278 0.2772 0.7093
C10 C 0.0305(11) 0.4138(11) 0.6479(9)
C11 C 0.6134(12) 0.1845(9) 0.9922(8)
H14 H 0.5999 0.1806 0.9201
C21 C 0.749(2) 0.0101(15) 0.8439(13)
Cu3 Cu 0.49221(15) 0.59596(11) 0.97948(9)
O13 O 0.5260(9) 0.3494(7) 0.8692(5)
H1 H 0.7680 0.9746 0.9738
N3 N 0.9355(10) 0.7372(9) 0.6755(8)
C16 C 0.870(2) 0.9159(15) 0.7006(15)
H18 H 0.8728 0.9804 0.6750
C17 C 0.817(2) 0.9078(16) 0.788(2)
C18 C 0.9216(17) 0.8274(12) 0.6453(12)
H19 H 0.9519 0.8301 0.5769
C19 C 0.8850(19) 0.7302(12) 0.7679(12)
H20 H 0.8885 0.6671 0.7938
C20 C 0.8235(17) 0.8210(15) 0.8296(12)
H21 H 0.7888 0.8198 0.8975
Cu7 Cu 0.99070(14) 0.59489(11) 0.56727(9)
O10 O 0.9823(9) 0.4856(7) 0.3282(5)
O11 O 0.7693(7) 0.3441(6) 0.4377(5)
H8 H 0.9478 0.3685 0.9813
H9 H 0.9922 0.2665 0.8977
C8 C 0.9635(13) 0.3938(11) 0.8323(8)
H10 H 0.9856 0.4787 0.8559
H11 H 0.8439 0.3574 0.8125
H8_2 H 0.0522 0.6315 0.0187
H9_2 H 0.0078 0.7335 0.1023
C8_2 C 0.0365(13) 0.6062(11) 0.1677(8)
H10_2 H 0.0144 0.5213 0.1441
H11_2 H 0.1561 0.6426 0.1875
H1_2 H 0.2320 0.0254 0.0262
C16_2 C 0.130(2) 0.0841(15) 0.2994(15)
H18_2 H 0.1272 0.0196 0.3250
C17_2 C 0.183(2) 0.0922(16) 0.212(2)
C18_2 C 0.0784(17) 0.1726(12) 0.3547(12)
H19_2 H 0.0481 0.1699 0.4231
C19_2 C 0.1150(19) 0.2698(12) 0.2321(12)
H20_2 H 0.1115 0.3329 0.2062
C20_2 C 0.1765(17) 0.1790(15) 0.1704(12)
H21_2 H 0.2112 0.1802 0.1025
O6_2 O 0.7329(8) 0.6539(6) 0.0109(5)
O8 O 0.9695(9) 0.6483(6) 0.4431(5)
O9_2 O 0.3043(14) 0.9268(9) 0.2093(10)
N2_2 N 0.2632(11) 0.9766(8) 0.0524(7)
C6_2 C 0.8074(13) 0.5931(10) 0.0411(8)
C7_2 C 0.9851(13) 0.6485(11) 0.0782(8)
C9_2 C 0.9401(14) 0.6375(11) 0.2634(8)
H12_2 H 0.8210 0.6094 0.2405
H13_2 H 0.9722 0.7228 0.2907
C10_2 C 0.9695(11) 0.5862(11) 0.3521(9)
C11_2 C 0.3866(12) 0.8155(9) 0.0078(8)
H14_2 H 0.4001 0.8194 0.0799
C21_2 C 0.251(2) 0.9899(15) 0.1561(13)
O1_2 O 0.7532(8) 0.5062(7) 0.5450(5)
O3_2 O 0.5216(8) 0.5143(6) 0.8350(5)
N1_2 N 0.4320(9) 0.7359(7) 0.9378(6)
C1_2 C 0.6929(12) 0.4050(10) 0.4947(8)
C2_2 C 0.5164(11) 0.3475(9) 0.5016(7)
H2_2 H 0.4492 0.3623 0.4489
H3_2 H 0.4960 0.2629 0.4855
C3_2 C 0.4634(11) 0.3925(9) 0.6126(7)
H4_2 H 0.4837 0.4771 0.6290
H5_2 H 0.3441 0.3553 0.6143
C4_2 C 0.5627(12) 0.3647(9) 0.6971(7)
H6_2 H 0.6817 0.3956 0.6895
H7_2 H 0.5352 0.2796 0.6824
C5_2 C 0.5314(11) 0.4130(10) 0.8090(8)
C12_2 C 0.3201(12) 0.8936(10) 0.9801(8)
C13_2 C 0.3023(14) 0.8829(11) 0.8718(9)
H15_2 H 0.2585 0.9343 0.8482
C14_2 C 0.3468(18) 0.8003(11) 0.8015(9)
H16_2 H 0.3336 0.7926 0.7285
C15_2 C 0.4105(13) 0.7287(9) 0.8367(8)
H17_2 H 0.4412 0.6705 0.7868
loop_
_geom_bond_atom_site_label_1
_geom_bond_atom_site_label_2
_geom_bond_site_symmetry_1
_geom_bond_site_symmetry_2
Cu1 O3 1_555 1_555
Cu2 O1 1_555 1_555
O1 C1 1_555 1_555
O3 C5 1_555 1_555
O4 C1 1_555 1_555
O7 C5 1_555 1_555
N1 Cu1 1_555 1_555
C1 C2 1_555 1_555
C2 H2 1_555 1_555
H3 C2 1_555 1_555
C3 C2 1_555 1_555
H4 C3 1_555 1_555
H5 C3 1_555 1_555
C4 C3 1_555 1_555
H6 C4 1_555 1_555
H7 C4 1_555 1_555
C5 C4 1_555 1_555
C13 C12 1_555 1_555
H15 C13 1_555 1_555
C14 C13 1_555 1_555
H16 C14 1_555 1_555
C15 N1 1_555 1_555
H17 C15 1_555 1_555
O12 Cu1 1_555 1_555
O14 Cu2 1_555 1_555
N4 Cu2 1_555 1_555
C14 C15 1_555 1_555
O2 C10 1_555 1_555
O5 C6 1_555 1_555
O14 C10 1_555 1_555
O9 C21 1_555 1_555
C6 O6 1_555 1_555
C7 C6 1_555 1_555
H12 C9 1_555 1_555
H13 C9 1_555 1_555
C10 C9 1_555 1_555
H14 C11 1_555 1_555
C21 N2 1_555 1_555
Cu3 O5 1_555 1_555
N3 C18 1_555 1_555
C16 H18 1_555 1_555
C17 C16 1_555 1_555
C18 C16 1_555 1_555
H19 C18 1_555 1_555
C19 N3 1_555 1_555
H20 C19 1_555 1_555
C20 C17 1_555 1_555
H21 C20 1_555 1_555
Cu7 N3 1_555 1_555
C19 C20 1_555 1_555
H10 C8 1_555 1_555
H11 C8 1_555 1_555
H10_2 C8_2 1_555 1_555
H11_2 C8_2 1_555 1_555
N4 C18_2 1_555 1_555
C16_2 H18_2 1_555 1_555
C17_2 C16_2 1_555 1_555
C18_2 C16_2 1_555 1_555
H19_2 C18_2 1_555 1_555
C19_2 N4 1_555 1_555
H20_2 C19_2 1_555 1_555
C20_2 C17_2 1_555 1_555
H21_2 C20_2 1_555 1_555
C19_2 C20_2 1_555 1_555
O10 C10_2 1_555 1_555
O12 C6_2 1_555 1_555
O8 C10_2 1_555 1_555
O9_2 C21_2 1_555 1_555
C6_2 O6_2 1_555 1_555
C7_2 C6_2 1_555 1_555
H12_2 C9_2 1_555 1_555
H13_2 C9_2 1_555 1_555
C10_2 C9_2 1_555 1_555
H14_2 C11_2 1_555 1_555
C21_2 N2_2 1_555 1_555
Cu7 O8 1_555 1_555
Cu3 O3_2 1_555 1_555
Cu7 O1_2 1_555 1_555
O1_2 C1_2 1_555 1_555
O3_2 C5_2 1_555 1_555
O11 C1_2 1_555 1_555
O13 C5_2 1_555 1_555
N1_2 Cu3 1_555 1_555
C1_2 C2_2 1_555 1_555
C2_2 H2_2 1_555 1_555
H3_2 C2_2 1_555 1_555
C3_2 C2_2 1_555 1_555
H4_2 C3_2 1_555 1_555
H5_2 C3_2 1_555 1_555
C4_2 C3_2 1_555 1_555
H6_2 C4_2 1_555 1_555
H7_2 C4_2 1_555 1_555
C5_2 C4_2 1_555 1_555
C13_2 C12_2 1_555 1_555
H15_2 C13_2 1_555 1_555
C14_2 C13_2 1_555 1_555
H16_2 C14_2 1_555 1_555
C15_2 N1_2 1_555 1_555
H17_2 C15_2 1_555 1_555
C14_2 C15_2 1_555 1_555

#END
