
###############################################################################
#
# This file contains modified crystal structure data generated from the
# MOF subset of the Cambridge Structural Database (CSD) v543 
# hosted by the Cambridge Crystallographic Data Centre (CCDC).
#
# This work is licensed under the Creative Commons
# Attribution-NonCommercial-ShareAlike 4.0 International License.
# To view a copy of this license, visit
# http://creativecommons.org/licenses/by-nc-sa/4.0/
# or send a letter to
# Creative Commons, PO Box 1866, Mountain View, CA 94042, USA.
#
# CIF created using the CSD Python API on 29 September 2022
# The structure has been converted into the P1 space group
# The structure has a 3D framework
# The original CSD entry FIGXAW is in the monoclinic crystal system
# The framework has been calculated to contain at least 10.0% void space
# The void calculation uses a probe of radius 1.32A, grid spacing 0.4
#
###############################################################################

data_FIGXAW
_chemical_formula_moiety         '(C104 H72 Cd8 N16 O50)n'
_symmetry_cell_setting           triclinic
_symmetry_space_group_name_H-M   'P 1'
_symmetry_Int_Tables_number      1
_space_group_name_Hall           'P 1'
loop_
_symmetry_equiv_pos_site_id
_symmetry_equiv_pos_as_xyz
1 x,y,z
_cell_length_a                   14.2941(4)
_cell_length_b                   16.7256(5)
_cell_length_c                   15.4016(4)
_cell_angle_alpha                90
_cell_angle_beta                 115.904(2)
_cell_angle_gamma                90
_cell_volume                     3312.22
loop_
_atom_site_label
_atom_site_type_symbol
_atom_site_fract_x
_atom_site_fract_y
_atom_site_fract_z
O3 O 0.7722(3) 0.4425(2) 0.0653(3)
O11 O 0.9115(3) 0.5144(3) 0.0829(3)
C6 C 0.8255(4) 0.4823(3) 0.0335(4)
Cd4 Cd 0.83284(3) 0.36975(2) 0.20662(3)
Cd1 Cd 0.16716(3) 0.63025(2) 0.79338(3)
O1 O 0.2039(3) 0.4285(3) 0.4210(3)
O2 O 0.5650(3) 0.4260(2) 0.6984(3)
N1 N 0.2320(4) 0.5412(3) 0.7144(3)
O4 O 0.4597(3) 0.4193(3) 0.7784(3)
O5 O 0.0681(3) 0.4951(3) 0.4227(3)
O7 O 0.0923(3) 0.6900(2) 0.6461(3)
O9 O 0.0981(4) 0.6246(3) 0.2408(3)
N2 N 0.2390(4) 0.7734(3) 0.1685(3)
N3 N 0.7960(4) 0.5472(3) 0.7887(3)
C1 C 0.7082(4) 0.5099(3) 0.7306(4)
H1 H 0.6823 0.5162 0.6627
C2 C 0.6534(4) 0.4621(3) 0.7668(4)
C3 C 0.5125(4) 0.3753(3) 0.7350(4)
H2 H 0.5632 0.3388 0.7833
H3 H 0.4619 0.3423 0.6818
C4 C 0.6899(4) 0.4539(3) 0.8655(4)
H4 H 0.6521 0.4234 0.8915
C5 C 0.7818(4) 0.4905(3) 0.9255(4)
C7 C 0.3234(4) 0.5047(4) 0.7618(4)
H5 H 0.3603 0.5130 0.8295
C8 C 0.3673(4) 0.4553(4) 0.7177(4)
C9 C 0.3163(4) 0.4446(4) 0.6189(4)
H6 H 0.3468 0.4141 0.5858
C10 C 0.2193(4) 0.4796(4) 0.5695(4)
C11 C 0.1592(4) 0.4670(3) 0.4618(4)
C12 C 0.1792(5) 0.5271(4) 0.6186(4)
H7 H 0.1126 0.5506 0.5840
C15 C 0.0043(5) 0.7073(4) 0.4440(4)
H8 H 0.0663 0.6765 0.4720
C17 C 0.0899(5) 0.6569(4) 0.3202(4)
H9 H 0.1487 0.6935 0.3560
H10 H 0.0894 0.6142 0.3645
C18 C 0.1265(5) 0.6758(3) 0.1854(4)
C19 C 0.0737(4) 0.6672(3) 0.0859(4)
H11 H 0.0159 0.6321 0.0576
C20 C 0.1081(4) 0.7115(3) 0.0290(4)
C21 C 0.1902(4) 0.7632(3) 0.0724(4)
H12 H 0.2135 0.7929 0.0329
C22 C 0.2081(5) 0.7298(4) 0.2244(4)
H13 H 0.2431 0.7360 0.2925
C26 C 0.8330(4) 0.5373(3) 0.8841(4)
H16 H 0.8962 0.5629 0.9253
O13 O 0.0181(3) 0.5546(2) 0.7527(3)
H17 H 0.0016 0.5338 0.6965
H18 H 0.0377 0.5241 0.8111
O15 O 0.2278(3) 0.5575(2) 0.9347(3)
O16 O 0.1135(3) 0.7179(2) 0.8784(3)
N7 N 0.3243(4) 0.7010(3) 0.8618(3)
Cd7 Cd 0.87646(3) 0.63581(2) 0.72648(3)
Cd8 Cd 0.12354(3) 0.36419(2) 0.27352(3)
Cd9 Cd 0.37646(3) 0.86419(2) 0.22648(3)
C23 C 0.0571(4) 0.7026(3) 0.9202(4)
O8 O 0.9938(4) 0.6994(3) 0.2812(3)
O10 O 0.9364(3) 0.7191(2) 0.6425(3)
N4 N 0.8243(4) 0.7990(3) 0.3618(3)
C13 C 0.9986(4) 0.7128(3) 0.6057(4)
C14 C 0.9562(4) 0.7354(4) 0.4997(4)
C16 C 0.9589(6) 0.7257(5) 0.3461(5)
C24 C 0.8717(5) 0.7737(4) 0.3089(4)
H14 H 0.8443 0.7894 0.2431
C25 C 0.8647(4) 0.7790(3) 0.4554(4)
H15 H 0.8297 0.7951 0.4926
Cd5 Cd 0.66716(3) 0.86975(2) 0.29338(3)
O14 O 0.7961(3) 0.5715(3) 0.5790(3)
O17 O 0.9629(3) 0.6821(2) 0.8807(3)
N5 N 0.7390(4) 0.7266(3) 0.6685(3)
O6 O 0.3865(3) 0.2179(2) 0.6216(3)
O8_2 O 0.5062(4) 0.1994(3) 0.2188(3)
O9_2 O 0.4019(4) 0.1246(3) 0.2592(3)
O12 O 0.5371(3) 0.1821(2) 0.6193(3)
N2_2 N 0.2610(4) 0.2734(3) 0.3315(3)
N4_2 N 0.6757(4) 0.2990(3) 0.1382(3)
C14_2 C 0.5438(4) 0.2354(4) 0.0003(4)
C15_2 C 0.4957(5) 0.2073(4) 0.0560(4)
H8_2 H 0.4337 0.1765 0.0280
C16_2 C 0.5411(6) 0.2257(5) 0.1539(5)
C17_2 C 0.4101(5) 0.1569(4) 0.1798(4)
H9_2 H 0.3513 0.1935 0.1440
H10_2 H 0.4106 0.1142 0.1355
C18_2 C 0.3735(5) 0.1758(3) 0.3146(4)
C19_2 C 0.4263(4) 0.1672(3) 0.4141(4)
H11_2 H 0.4841 0.1321 0.4424
C20_2 C 0.3919(4) 0.2115(3) 0.4710(4)
C21_2 C 0.3098(4) 0.2632(3) 0.4276(4)
H12_2 H 0.2865 0.2929 0.4671
C22_2 C 0.2919(5) 0.2298(4) 0.2756(4)
H13_2 H 0.2569 0.2360 0.2075
C23_2 C 0.4429(4) 0.2026(3) 0.5798(4)
C24_2 C 0.6283(5) 0.2737(4) 0.1911(4)
H14_2 H 0.6557 0.2894 0.2569
C25_2 C 0.6353(4) 0.2790(3) 0.0446(4)
H15_2 H 0.6703 0.2951 0.0074
Cd3 Cd 0.33284(3) 0.13025(2) 0.70662(3)
Cd6 Cd 0.62354(3) 0.13581(2) 0.77352(3)
N1_2 N 0.2680(4) 0.0412(3) 0.7856(3)
O7_2 O 0.4077(3) 0.1900(2) 0.8539(3)
O10_2 O 0.5636(3) 0.2191(2) 0.8575(3)
C7_2 C 0.1766(4) 0.0047(4) 0.7382(4)
H5_2 H 0.1397 0.0130 0.6705
C12_2 C 0.3208(5) 0.0271(4) 0.8814(4)
H7_2 H 0.3874 0.0506 0.9160
C13_2 C 0.5014(4) 0.2128(3) 0.8943(4)
O13_2 O 0.4819(3) 0.0546(2) 0.7473(3)
H17_2 H 0.4984 0.0338 0.8035
H18_2 H 0.4623 0.0241 0.6889
O14_2 O 0.7039(3) 0.0715(3) 0.9210(3)
O15_2 O 0.2722(3) 0.0575(2) 0.5653(3)
N5_2 N 0.7610(4) 0.2266(3) 0.8315(3)
N6 N 0.7040(4) 0.0472(3) 0.7113(3)
N7_2 N 0.1757(4) 0.2010(3) 0.6382(3)
O1_2 O 0.2961(3) 0.9285(3) 0.0790(3)
O5_2 O 0.4319(3) 0.9951(3) 0.0773(3)
C11_2 C 0.3408(4) 0.9670(3) 0.0382(4)
O11_2 O 0.5885(3) 0.0144(3) 0.4171(3)
C1_2 C 0.7918(4) 0.0099(3) 0.7694(4)
H1_2 H 0.8177 0.0162 0.8373
C26_2 C 0.6670(4) 0.0373(3) 0.6159(4)
H16_2 H 0.6038 0.0629 0.5747
O2_2 O 0.9350(3) 0.9260(2) 0.8016(3)
O3_2 O 0.7278(3) 0.9425(2) 0.4347(3)
C2_2 C 0.8466(4) 0.9621(3) 0.7332(4)
C3_2 C 0.9875(4) 0.8753(3) 0.7650(4)
H2_2 H 0.9368 0.8388 0.7167
C4_2 C 0.8101(4) 0.9539(3) 0.6345(4)
H4_2 H 0.8479 0.9234 0.6085
C5_2 C 0.7182(4) 0.9905(3) 0.5745(4)
C6_2 C 0.6745(4) 0.9823(3) 0.4665(4)
O12_2 O 0.0371(3) 0.3179(2) 0.1193(3)
O8_3 O 0.0062(4) 0.3006(3) 0.7188(3)
O10_3 O 0.0636(3) 0.2809(2) 0.3575(3)
C13_3 C 0.0014(4) 0.2872(3) 0.3943(4)
C14_3 C 0.0438(4) 0.2646(4) 0.5003(4)
C16_3 C 0.0411(6) 0.2743(5) 0.6539(5)
C24_3 C 0.1283(5) 0.2263(4) 0.6911(4)
H14_3 H 0.1557 0.2106 0.7569
C25_3 C 0.1353(4) 0.2210(3) 0.5446(4)
H15_3 H 0.1703 0.2049 0.5074
N6_2 N 0.2040(4) 0.4528(3) 0.2113(3)
O6_2 O 0.8865(3) 0.2821(2) 0.1216(3)
C23_3 C 0.9429(4) 0.2974(3) 0.0798(4)
O2_3 O 0.4350(3) 0.5740(2) 0.3016(3)
N1_3 N 0.7680(4) 0.4588(3) 0.2856(3)
O4_2 O 0.5403(3) 0.5807(3) 0.2216(3)
O5_3 O 0.9319(3) 0.5049(3) 0.5773(3)
O7_3 O 0.9077(3) 0.3100(2) 0.3539(3)
O9_3 O 0.9019(4) 0.3754(3) 0.7592(3)
C1_3 C 0.2918(4) 0.4901(3) 0.2694(4)
H1_3 H 0.3177 0.4838 0.3373
C2_3 C 0.3466(4) 0.5379(3) 0.2332(4)
C3_3 C 0.4875(4) 0.6247(3) 0.2650(4)
H2_3 H 0.4368 0.6612 0.2167
H3_2 H 0.5381 0.6577 0.3182
C4_3 C 0.3101(4) 0.5461(3) 0.1345(4)
H4_3 H 0.3479 0.5766 0.1085
C5_3 C 0.2182(4) 0.5095(3) 0.0745(4)
C7_3 C 0.6766(4) 0.4953(4) 0.2382(4)
H5_3 H 0.6397 0.4870 0.1705
C8_2 C 0.6327(4) 0.5447(4) 0.2823(4)
C9_2 C 0.6837(4) 0.5554(4) 0.3811(4)
H6_2 H 0.6532 0.5859 0.4142
C10_2 C 0.7807(4) 0.5204(4) 0.4305(4)
C11_3 C 0.8408(4) 0.5330(3) 0.5382(4)
C12_3 C 0.8208(5) 0.4729(4) 0.3814(4)
H7_3 H 0.8874 0.4494 0.4160
C15_3 C 0.9957(5) 0.2927(4) 0.5560(4)
H8_3 H 0.9337 0.3235 0.5280
C17_3 C 0.9101(5) 0.3431(4) 0.6798(4)
H9_3 H 0.8513 0.3065 0.6440
H10_3 H 0.9106 0.3858 0.6355
C18_3 C 0.8735(5) 0.3242(3) 0.8146(4)
C19_3 C 0.9263(4) 0.3328(3) 0.9141(4)
H11_3 H 0.9841 0.3679 0.9424
C20_3 C 0.8919(4) 0.2885(3) 0.9710(4)
C21_3 C 0.8098(4) 0.2368(3) 0.9276(4)
H12_3 H 0.7865 0.2071 0.9671
C22_3 C 0.7919(5) 0.2702(4) 0.7756(4)
H13_3 H 0.7569 0.2640 0.7075
C26_3 C 0.1670(4) 0.4627(3) 0.1159(4)
H16_3 H 0.1038 0.4371 0.0747
O13_3 O 0.9819(3) 0.4454(2) 0.2473(3)
H17_3 H 0.9984 0.4662 0.3035
H18_3 H 0.9623 0.4759 0.1889
O11_3 O 0.0885(3) 0.4856(3) 0.9171(3)
C6_3 C 0.1745(4) 0.5177(3) 0.9665(4)
O2_4 O 0.0650(3) 0.0740(2) 0.1984(3)
C2_4 C 0.1534(4) 0.0379(3) 0.2668(4)
C3_4 C 0.0125(4) 0.1247(3) 0.2350(4)
H2_4 H 0.0632 0.1612 0.2833
C4_4 C 0.1899(4) 0.0461(3) 0.3655(4)
H4_4 H 0.1521 0.0766 0.3915
C5_4 C 0.2818(4) 0.0095(3) 0.4255(4)
C6_4 C 0.3255(4) 0.0177(3) 0.5335(4)
O11_4 O 0.4115(3) 0.9856(3) 0.5829(3)
N3_2 N 0.2960(4) 0.9528(3) 0.2887(3)
C1_4 C 0.2082(4) 0.9901(3) 0.2306(4)
H1_4 H 0.1823 0.9838 0.1627
C26_4 C 0.3330(4) 0.9627(3) 0.3841(4)
H16_4 H 0.3962 0.9371 0.4253
O5_4 O 0.5681(3) 0.0049(3) 0.9227(3)
C11_4 C 0.6592(4) 0.0330(3) 0.9618(4)
N1_4 N 0.7320(4) 0.9588(3) 0.2144(3)
O7_4 O 0.5923(3) 0.8100(2) 0.1461(3)
O10_4 O 0.4364(3) 0.7809(2) 0.1425(3)
C7_4 C 0.8234(4) 0.9953(4) 0.2618(4)
H5_4 H 0.8603 0.9870 0.3295
C12_4 C 0.6792(5) 0.9729(4) 0.1186(4)
H7_4 H 0.6126 0.9494 0.0840
C13_4 C 0.4986(4) 0.7872(3) 0.1057(4)
O13_4 O 0.5181(3) 0.9454(2) 0.2527(3)
H17_4 H 0.5016 0.9662 0.1965
H18_4 H 0.5377 0.9759 0.3111
O16_2 O 0.6135(3) 0.7821(2) 0.3784(3)
O17_2 O 0.4629(3) 0.8179(2) 0.3807(3)
O8_4 O 0.4938(4) 0.8006(3) 0.7812(3)
O9_4 O 0.5981(4) 0.8754(3) 0.7408(3)
C14_4 C 0.4562(4) 0.7646(4) 0.9997(4)
C15_4 C 0.5043(5) 0.7927(4) 0.9440(4)
H8_4 H 0.5663 0.8235 0.9720
C16_4 C 0.4589(6) 0.7743(5) 0.8461(5)
C17_4 C 0.5899(5) 0.8431(4) 0.8202(4)
H9_4 H 0.6487 0.8065 0.8560
H10_4 H 0.5894 0.8858 0.8645
C18_4 C 0.6265(5) 0.8242(3) 0.6854(4)
C19_4 C 0.5737(4) 0.8328(3) 0.5859(4)
H11_4 H 0.5159 0.8679 0.5576
C20_4 C 0.6081(4) 0.7885(3) 0.5290(4)
C21_4 C 0.6902(4) 0.7368(3) 0.5724(4)
H12_4 H 0.7135 0.7071 0.5329
C22_4 C 0.7081(5) 0.7702(4) 0.7244(4)
H13_4 H 0.7431 0.7640 0.7925
C23_4 C 0.5571(4) 0.7974(3) 0.4202(4)
C24_4 C 0.3717(5) 0.7263(4) 0.8089(4)
H14_4 H 0.3443 0.7106 0.7431
C25_4 C 0.3647(4) 0.7210(3) 0.9554(4)
H15_4 H 0.3297 0.7049 0.9926
O4_3 O 0.0403(3) 0.9193(3) 0.7216(3)
H3_3 H 0.0381 0.8423 0.8182
C8_3 C 0.1327(4) 0.9553(4) 0.7823(4)
C9_3 C 0.1837(4) 0.9446(4) 0.8811(4)
H6_3 H 0.1532 0.9141 0.9142
C10_3 C 0.2807(4) 0.9796(4) 0.9305(4)
O4_4 O 0.9597(3) 0.0807(3) 0.2784(3)
H3_4 H 0.9619 0.1577 0.1818
C8_4 C 0.8673(4) 0.0447(4) 0.2177(4)
C9_4 C 0.8163(4) 0.0554(4) 0.1189(4)
H6_4 H 0.8468 0.0859 0.0858
C10_4 C 0.7193(4) 0.0204(4) 0.0695(4)
loop_
_geom_bond_atom_site_label_1
_geom_bond_atom_site_label_2
_geom_bond_site_symmetry_1
_geom_bond_site_symmetry_2
O3 C6 1_555 1_555
O11 C6 1_555 1_555
Cd4 O3 1_555 1_555
Cd1 N1 1_555 1_555
O1 C11 1_555 1_555
O2 C2 1_555 1_555
N1 C7 1_555 1_555
O4 C3 1_555 1_555
O5 C11 1_555 1_555
O7 Cd1 1_555 1_555
O9 C17 1_555 1_555
N2 C21 1_555 1_555
N3 C1 1_555 1_555
C1 H1 1_555 1_555
C2 C1 1_555 1_555
C3 O2 1_555 1_555
H2 C3 1_555 1_555
H3 C3 1_555 1_555
C4 C2 1_555 1_555
H4 C4 1_555 1_555
C5 C4 1_555 1_555
C7 H5 1_555 1_555
C8 O4 1_555 1_555
C9 C8 1_555 1_555
H6 C9 1_555 1_555
C10 C9 1_555 1_555
C11 C10 1_555 1_555
C12 N1 1_555 1_555
H7 C12 1_555 1_555
H8 C15 1_555 1_555
H9 C17 1_555 1_555
H10 C17 1_555 1_555
C18 O9 1_555 1_555
C19 C18 1_555 1_555
H11 C19 1_555 1_555
C20 C19 1_555 1_555
C21 C20 1_555 1_555
H12 C21 1_555 1_555
C22 N2 1_555 1_555
H13 C22 1_555 1_555
C26 N3 1_555 1_555
H16 C26 1_555 1_555
O13 Cd1 1_555 1_555
H17 O13 1_555 1_555
H18 O13 1_555 1_555
O15 Cd1 1_555 1_555
O16 Cd1 1_555 1_555
N7 Cd1 1_555 1_555
Cd7 N3 1_555 1_555
Cd8 O1 1_555 1_555
Cd9 N2 1_555 1_555
C5 C26 1_555 1_555
C7 C8 1_555 1_555
C10 C12 1_555 1_555
C18 C22 1_555 1_555
O16 C23 1_555 1_555
O8 C16 1_555 1_555
O10 C13 1_555 1_555
N4 C24 1_555 1_555
C14 C13 1_555 1_555
C24 C16 1_555 1_555
H14 C24 1_555 1_555
C25 N4 1_555 1_555
H15 C25 1_555 1_555
Cd7 O10 1_555 1_555
Cd5 N4 1_555 1_555
O14 Cd7 1_555 1_555
O17 Cd7 1_555 1_555
N5 Cd7 1_555 1_555
C14 C25 1_555 1_555
O6 C23_2 1_555 1_555
O8_2 C16_2 1_555 1_555
O9_2 C17_2 1_555 1_555
O12 C23_2 1_555 1_555
N2_2 C21_2 1_555 1_555
N4_2 C24_2 1_555 1_555
C15_2 C14_2 1_555 1_555
H8_2 C15_2 1_555 1_555
C16_2 C15_2 1_555 1_555
C17_2 O8_2 1_555 1_555
H9_2 C17_2 1_555 1_555
H10_2 C17_2 1_555 1_555
C18_2 O9_2 1_555 1_555
C19_2 C18_2 1_555 1_555
H11_2 C19_2 1_555 1_555
C20_2 C19_2 1_555 1_555
C21_2 C20_2 1_555 1_555
H12_2 C21_2 1_555 1_555
C22_2 N2_2 1_555 1_555
H13_2 C22_2 1_555 1_555
C23_2 C20_2 1_555 1_555
C24_2 C16_2 1_555 1_555
H14_2 C24_2 1_555 1_555
C25_2 N4_2 1_555 1_555
H15_2 C25_2 1_555 1_555
Cd3 O6 1_555 1_555
Cd4 N4_2 1_555 1_555
Cd6 O12 1_555 1_555
Cd8 N2_2 1_555 1_555
C14_2 C25_2 1_555 1_555
C18_2 C22_2 1_555 1_555
Cd3 N1_2 1_555 1_555
N1_2 C7_2 1_555 1_555
O7_2 Cd3 1_555 1_555
O10_2 C13_2 1_555 1_555
C7_2 H5_2 1_555 1_555
C12_2 N1_2 1_555 1_555
H7_2 C12_2 1_555 1_555
C13_2 O7_2 1_555 1_555
Cd6 O10_2 1_555 1_555
O13_2 Cd3 1_555 1_555
H17_2 O13_2 1_555 1_555
H18_2 O13_2 1_555 1_555
O14_2 Cd6 1_555 1_555
O15_2 Cd3 1_555 1_555
N5_2 Cd6 1_555 1_555
N6 Cd6 1_555 1_555
N7_2 Cd3 1_555 1_555
Cd6 O13_2 1_555 1_555
O1_2 C11_2 1_555 1_555
O5_2 C11_2 1_555 1_555
Cd9 O1_2 1_555 1_555
N6 C1_2 1_555 1_555
C1_2 H1_2 1_555 1_555
C26_2 N6 1_555 1_555
H16_2 C26_2 1_555 1_555
O2_2 C2_2 1_555 1_555
O3_2 C6_2 1_555 1_555
C3_2 O2_2 1_555 1_555
H2_2 C3_2 1_555 1_555
C4_2 C2_2 1_555 1_555
H4_2 C4_2 1_555 1_555
C5_2 C4_2 1_555 1_555
C6_2 C5_2 1_555 1_555
Cd5 O3_2 1_555 1_555
Cd8 O12_2 1_555 1_555
O8_3 C16_3 1_555 1_555
O10_3 C13_3 1_555 1_555
N7_2 C24_3 1_555 1_555
C14_3 C13_3 1_555 1_555
C24_3 C16_3 1_555 1_555
H14_3 C24_3 1_555 1_555
C25_3 N7_2 1_555 1_555
H15_3 C25_3 1_555 1_555
Cd8 O10_3 1_555 1_555
N6_2 Cd8 1_555 1_555
C14_3 C25_3 1_555 1_555
O6_2 C23_3 1_555 1_555
Cd4 O6_2 1_555 1_555
Cd4 N1_3 1_555 1_555
O14 C11_3 1_555 1_555
O2_3 C2_3 1_555 1_555
N1_3 C7_3 1_555 1_555
O4_2 C3_3 1_555 1_555
O5_3 C11_3 1_555 1_555
O7_3 Cd4 1_555 1_555
O9_3 C17_3 1_555 1_555
N5_2 C21_3 1_555 1_555
N6_2 C1_3 1_555 1_555
C1_3 H1_3 1_555 1_555
C2_3 C1_3 1_555 1_555
C3_3 O2_3 1_555 1_555
H2_3 C3_3 1_555 1_555
H3_2 C3_3 1_555 1_555
C4_3 C2_3 1_555 1_555
H4_3 C4_3 1_555 1_555
C5_3 C4_3 1_555 1_555
C7_3 H5_3 1_555 1_555
C8_2 O4_2 1_555 1_555
C9_2 C8_2 1_555 1_555
H6_2 C9_2 1_555 1_555
C10_2 C9_2 1_555 1_555
C11_3 C10_2 1_555 1_555
C12_3 N1_3 1_555 1_555
H7_3 C12_3 1_555 1_555
H8_3 C15_3 1_555 1_555
H9_3 C17_3 1_555 1_555
H10_3 C17_3 1_555 1_555
C18_3 O9_3 1_555 1_555
C19_3 C18_3 1_555 1_555
H11_3 C19_3 1_555 1_555
C20_3 C19_3 1_555 1_555
C21_3 C20_3 1_555 1_555
H12_3 C21_3 1_555 1_555
C22_3 N5_2 1_555 1_555
H13_3 C22_3 1_555 1_555
C26_3 N6_2 1_555 1_555
H16_3 C26_3 1_555 1_555
O13_3 Cd4 1_555 1_555
H17_3 O13_3 1_555 1_555
H18_3 O13_3 1_555 1_555
C5_3 C26_3 1_555 1_555
C7_3 C8_2 1_555 1_555
C10_2 C12_3 1_555 1_555
C18_3 C22_3 1_555 1_555
O15 C6_3 1_555 1_555
O11_3 C6_3 1_555 1_555
O2_4 C2_4 1_555 1_555
O15_2 C6_4 1_555 1_555
C3_4 O2_4 1_555 1_555
H2_4 C3_4 1_555 1_555
C4_4 C2_4 1_555 1_555
H4_4 C4_4 1_555 1_555
C5_4 C4_4 1_555 1_555
C6_4 C5_4 1_555 1_555
N3_2 C1_4 1_555 1_555
C1_4 H1_4 1_555 1_555
C26_4 N3_2 1_555 1_555
H16_4 C26_4 1_555 1_555
Cd9 N3_2 1_555 1_555
O14_2 C11_4 1_555 1_555
O5_4 C11_4 1_555 1_555
Cd5 N1_4 1_555 1_555
N1_4 C7_4 1_555 1_555
O7_4 Cd5 1_555 1_555
O10_4 C13_4 1_555 1_555
C7_4 H5_4 1_555 1_555
C12_4 N1_4 1_555 1_555
H7_4 C12_4 1_555 1_555
C13_4 O7_4 1_555 1_555
Cd9 O10_4 1_555 1_555
O13_4 Cd5 1_555 1_555
H17_4 O13_4 1_555 1_555
H18_4 O13_4 1_555 1_555
O16_2 Cd5 1_555 1_555
O17_2 Cd9 1_555 1_555
Cd9 O13_4 1_555 1_555
O16_2 C23_4 1_555 1_555
O8_4 C16_4 1_555 1_555
O9_4 C17_4 1_555 1_555
O17_2 C23_4 1_555 1_555
N5 C21_4 1_555 1_555
N7 C24_4 1_555 1_555
C15_4 C14_4 1_555 1_555
H8_4 C15_4 1_555 1_555
C16_4 C15_4 1_555 1_555
C17_4 O8_4 1_555 1_555
H9_4 C17_4 1_555 1_555
H10_4 C17_4 1_555 1_555
C18_4 O9_4 1_555 1_555
C19_4 C18_4 1_555 1_555
H11_4 C19_4 1_555 1_555
C20_4 C19_4 1_555 1_555
C21_4 C20_4 1_555 1_555
H12_4 C21_4 1_555 1_555
C22_4 N5 1_555 1_555
H13_4 C22_4 1_555 1_555
C23_4 C20_4 1_555 1_555
C24_4 C16_4 1_555 1_555
H14_4 C24_4 1_555 1_555
C25_4 N7 1_555 1_555
H15_4 C25_4 1_555 1_555
C14_4 C25_4 1_555 1_555
C18_4 C22_4 1_555 1_555
C8_3 O4_3 1_555 1_555
C9_3 C8_3 1_555 1_555
H6_3 C9_3 1_555 1_555
C10_3 C9_3 1_555 1_555
C8_4 O4_4 1_555 1_555
C9_4 C8_4 1_555 1_555
H6_4 C9_4 1_555 1_555
C10_4 C9_4 1_555 1_555

#END
