
###############################################################################
#
# This file contains modified crystal structure data generated from the
# MOF subset of the Cambridge Structural Database (CSD) v543 
# hosted by the Cambridge Crystallographic Data Centre (CCDC).
#
# This work is licensed under the Creative Commons
# Attribution-NonCommercial-ShareAlike 4.0 International License.
# To view a copy of this license, visit
# http://creativecommons.org/licenses/by-nc-sa/4.0/
# or send a letter to
# Creative Commons, PO Box 1866, Mountain View, CA 94042, USA.
#
# CIF created using the CSD Python API on 29 September 2022
# The structure has been converted into the P1 space group
# The structure has a 3D framework
# The original CSD entry FIHFAF is in the triclinic crystal system
# The framework has been calculated to contain at least 10.0% void space
# The void calculation uses a probe of radius 1.32A, grid spacing 0.4
# H atom positions have been added when not included in the experimental data
#
###############################################################################

data_FIHFAF
_chemical_formula_moiety         '(C36 H40 Co12 N26 O14)n'
_symmetry_cell_setting           triclinic
_symmetry_space_group_name_H-M   'P 1'
_symmetry_Int_Tables_number      1
_space_group_name_Hall           'P 1'
loop_
_symmetry_equiv_pos_site_id
_symmetry_equiv_pos_as_xyz
1 x,y,z
_cell_length_a                   9.275(5)
_cell_length_b                   12.922(7)
_cell_length_c                   14.564(8)
_cell_angle_alpha                105.060(9)
_cell_angle_beta                 97.194(10)
_cell_angle_gamma                96.254(10)
_cell_volume                     1653.96
loop_
_atom_site_label
_atom_site_type_symbol
_atom_site_fract_x
_atom_site_fract_y
_atom_site_fract_z
Co8 Co 0.55472(9) 0.08115(6) 0.28209(6)
C1 C 0.1824(8) 0.4784(5) 0.2227(5)
C2 C 0.2590(7) 0.5907(5) 0.2803(4)
C3 C 0.3092(7) 0.6636(5) 0.2332(5)
H1 H 0.2993 0.6438 0.1663
C4 C 0.3754(8) 0.7680(5) 0.2870(5)
C5 C 0.3904(8) 0.7943(5) 0.3840(5)
H2 H 0.4333 0.8639 0.4197
C6 C 0.3429(8) 0.7193(5) 0.4320(5)
C7 C 0.2781(8) 0.6176(5) 0.3800(5)
H3 H 0.2470 0.5668 0.4111
C8 C 0.3655(8) 0.7509(6) 0.5395(5)
C9 C 0.4326(8) 0.8495(5) 0.2363(5)
C12 C 0.3279(7) 0.2144(5) 0.2182(5)
C13 C 0.2929(8) 0.0530(5) 0.1323(5)
Co1 Co 0.0000 0.0000 0.0000
Co3 Co 0.04706(10) 0.29721(6) 0.12683(6)
N9 N 0.1876(6) 0.0937(4) 0.0971(4)
N10 N 0.2064(6) 0.2024(4) 0.1511(4)
N11 N 0.3841(6) 0.1221(4) 0.2087(4)
N12 N 0.3821(8) 0.3098(5) 0.2850(5)
H18 H 0.4594 0.3143 0.3260
H19 H 0.3392 0.3658 0.2863
O1 O 0.1803(5) 0.4472(4) 0.1333(3)
O2 O 0.1213(5) 0.4174(3) 0.2657(3)
O3 O 0.5024(6) 0.9374(4) 0.2936(4)
O4 O 0.4107(7) 0.8278(4) 0.1487(4)
O5 O 0.4045(6) 0.8520(4) 0.5807(3)
O6 O 0.3468(7) 0.6816(4) 0.5829(4)
Co11 Co 0.44528(9) 0.91885(6) 0.71791(6)
C10 C 0.0342(8) 0.2889(5) 0.9115(5)
Co1_2 Co -0.0000 0.0000 1.0000
N6 N 0.0227(6) 0.2357(4) 0.9782(4)
N7 N 0.0059(7) 0.2181(5) 0.8234(4)
N8 N 0.0691(9) 0.3950(5) 0.9301(5)
H16 H 0.0862 0.4350 0.9887
H17 H 0.0746 0.4241 0.8835
N17 N 0.3005(9) 0.0800(5) 0.8977(6)
H33 H 0.2729 0.1222 0.9463
H34 H 0.3671 0.1047 0.8696
O16 O 0.4976(6) 0.0626(4) 0.7064(4)
H39 H 0.00544588 0.23522 0.759189
Co1_3 Co -0.0000 1.0000 1.0000
C32 C 0.2380(8) 0.9722(5) 0.8648(5)
C33 C 0.1921(7) 0.8068(5) 0.7837(5)
H25 H 0.1933 0.7413 0.7386
C34 C 0.2562(9) 0.6482(6) 0.9280(5)
H26 H 0.2642 0.7103 0.9790
C35 C 0.3736(14) 0.5173(10) 0.8262(9)
H27 H 0.2910 0.5150 0.7785
H28 H 0.4626 0.5241 0.7996
H29 H 0.3639 0.4518 0.8458
C36 C 0.5213(11) 0.6571(12) 0.9665(10)
H30 H 0.5593 0.6060 0.9971
H31 H 0.5879 0.6757 0.9259
N14 N 0.1058(6) 0.8195(4) 0.8492(4)
N15 N 0.1355(6) 0.9268(4) 0.9029(4)
N16 N 0.2792(6) 0.8999(4) 0.7893(4)
N26 N 0.3783(8) 0.6089(6) 0.9084(5)
O14 O 0.1332(6) 0.6080(4) 0.8832(4)
N28 N 0.6159(6) 0.8779(4) 0.7913(4)
C14 C 0.7620(8) 0.0278(5) 0.1352(5)
C15 C 0.8079(7) 0.1932(5) 0.2163(5)
H6 H 0.8067 0.2587 0.2614
C16 C 0.7438(9) 0.3518(6) 0.0720(5)
H7 H 0.7358 0.2897 0.0210
C17 C 0.6264(14) 0.4827(10) 0.1738(9)
H8 H 0.7090 0.4850 0.2215
H9 H 0.5374 0.4759 0.2004
H10 H 0.6361 0.5482 0.1542
C18 C 0.4787(11) 0.3429(12) 0.0335(10)
H11 H 0.4407 0.3940 0.0029
H12 H 0.4121 0.3243 0.0741
Co1_4 Co 1.0000 0.0000 0.0000
N1 N 0.8942(6) 0.1805(4) 0.1508(4)
N2 N 0.8645(6) 0.0732(4) 0.0971(4)
N3 N 0.7208(6) 0.1001(4) 0.2107(4)
N13 N 0.6217(8) 0.3911(6) 0.0916(5)
O7 O 0.8668(6) 0.3920(4) 0.1168(4)
O18 O 0.5955(6) 0.1480(4) 0.4193(3)
Co1_5 Co 1.0000 1.0000 0.0000
N4 N 0.6995(9) 0.9200(5) 0.1023(6)
H14 H 0.7271 0.8778 0.0537
H15 H 0.6329 0.8953 0.1304
C28 C 0.9658(8) 0.7111(5) 0.0885(5)
N19 N 0.9773(6) 0.7643(4) 0.0218(4)
N20 N 0.9941(7) 0.7819(5) 0.1766(4)
N21 N 0.9309(9) 0.6050(5) 0.0699(5)
H35 H 0.9138 0.5650 0.0113
H36 H 0.9254 0.5759 0.1165
H40 H 0.994554 0.76478 0.240811
Co1_6 Co 1.0000 1.0000 1.0000
C19 C 0.8176(8) 0.5216(5) 0.7773(5)
C20 C 0.7410(7) 0.4093(5) 0.7197(4)
C21 C 0.6908(7) 0.3364(5) 0.7668(5)
H20 H 0.7007 0.3562 0.8337
C22 C 0.6246(8) 0.2320(5) 0.7130(5)
C23 C 0.6096(8) 0.2057(5) 0.6160(5)
H21 H 0.5667 0.1361 0.5803
C24 C 0.6571(8) 0.2807(5) 0.5680(5)
C25 C 0.7219(8) 0.3824(5) 0.6200(5)
H22 H 0.7530 0.4332 0.5889
C26 C 0.6345(8) 0.2491(6) 0.4605(5)
C27 C 0.5674(8) 0.1505(5) 0.7637(5)
C30 C 0.6721(7) 0.7856(5) 0.7818(5)
C31 C 0.7071(8) 0.9470(5) 0.8677(5)
Co5 Co 0.95294(10) 0.70279(6) 0.87317(6)
N22 N 0.8124(6) 0.9063(4) 0.9029(4)
N23 N 0.7936(6) 0.7976(4) 0.8489(4)
N25 N 0.6179(8) 0.6902(5) 0.7150(5)
H37 H 0.5406 0.6857 0.6740
H38 H 0.6608 0.6342 0.7137
O8 O 0.8197(5) 0.5528(4) 0.8667(3)
O9 O 0.8787(5) 0.5826(3) 0.7343(3)
O11 O 0.5893(7) 0.1722(4) 0.8513(4)
O13 O 0.6532(7) 0.3184(4) 0.4171(4)
H5 H 0.3062 0.9813 0.1076
Co1_7 Co -0.0000 1.0000 0.0000
C29 C 0.0217(9) 0.8802(6) 0.1619(5)
H23 H 0.0444 0.9450 0.2107
H32 H 0.5109 0.7212 0.0148
N18 N 0.0124(6) 0.8730(4) 0.0711(4)
C11 C 0.9783(9) 0.1198(6) 0.8381(5)
H4 H 0.9556 0.0550 0.7893
H13 H 0.4891 0.2788 0.9852
Co1_8 Co 1.0000 0.0000 1.0000
N5 N 0.9876(6) 0.1270(4) 0.9289(4)
H24 H 0.6938 0.0187 0.8924
loop_
_geom_bond_atom_site_label_1
_geom_bond_atom_site_label_2
_geom_bond_site_symmetry_1
_geom_bond_site_symmetry_2
C1 C2 1_555 1_555
C2 C3 1_555 1_555
C3 H1 1_555 1_555
C4 C3 1_555 1_555
C5 C4 1_555 1_555
H2 C5 1_555 1_555
C6 C5 1_555 1_555
C7 C2 1_555 1_555
H3 C7 1_555 1_555
C8 C6 1_555 1_555
C9 C4 1_555 1_555
C12 N10 1_555 1_555
N9 C13 1_555 1_555
N10 Co3 1_555 1_555
N11 C12 1_555 1_555
N12 C12 1_555 1_555
H18 N12 1_555 1_555
H19 N12 1_555 1_555
O1 C1 1_555 1_555
O2 C1 1_555 1_555
O3 C9 1_555 1_555
O4 C9 1_555 1_555
O5 C8 1_555 1_555
O6 C8 1_555 1_555
Co8 N11 1_555 1_555
Co11 O5 1_555 1_555
C6 C7 1_555 1_555
C13 N11 1_555 1_555
Co1 N9 1_555 1_555
Co3 O1 1_555 1_555
Co3 O2 1_555 1_555
N9 N10 1_555 1_555
C10 N6 1_555 1_555
N7 C10 1_555 1_555
N8 C10 1_555 1_555
H16 N8 1_555 1_555
H17 N8 1_555 1_555
H33 N17 1_555 1_555
H34 N17 1_555 1_555
N7 H39 1_555 1_555
C32 N15 1_555 1_555
C33 H25 1_555 1_555
C34 H26 1_555 1_555
C35 H27 1_555 1_555
H28 C35 1_555 1_555
H29 C35 1_555 1_555
C36 H30 1_555 1_555
H31 C36 1_555 1_555
Co11 N16 1_555 1_555
N14 C33 1_555 1_555
N15 Co1_3 1_555 1_555
N16 C32 1_555 1_555
N26 C34 1_555 1_555
O14 C34 1_555 1_555
N28 Co11 1_555 1_555
C33 N16 1_555 1_555
C35 N26 1_555 1_555
C36 N26 1_555 1_555
N14 N15 1_555 1_555
C14 N2 1_555 1_555
C15 H6 1_555 1_555
C16 H7 1_555 1_555
C17 H8 1_555 1_555
H9 C17 1_555 1_555
H10 C17 1_555 1_555
C18 H11 1_555 1_555
H12 C18 1_555 1_555
Co1_4 N2 1_555 1_555
Co8 N3 1_555 1_555
N1 C15 1_555 1_555
N2 N1 1_555 1_555
N3 C14 1_555 1_555
N13 C16 1_555 1_555
O7 C16 1_555 1_555
O18 Co8 1_555 1_555
C15 N3 1_555 1_555
C17 N13 1_555 1_555
C18 N13 1_555 1_555
H14 N4 1_555 1_555
H15 N4 1_555 1_555
C28 N19 1_555 1_555
N20 C28 1_555 1_555
N21 C28 1_555 1_555
H35 N21 1_555 1_555
H36 N21 1_555 1_555
N20 H40 1_555 1_555
C19 C20 1_555 1_555
C20 C21 1_555 1_555
C21 H20 1_555 1_555
C22 C21 1_555 1_555
C23 C22 1_555 1_555
H21 C23 1_555 1_555
C24 C23 1_555 1_555
C25 C20 1_555 1_555
H22 C25 1_555 1_555
C26 C24 1_555 1_555
C27 C22 1_555 1_555
C30 N23 1_555 1_555
N22 Co1_6 1_555 1_555
N23 Co5 1_555 1_555
N28 C30 1_555 1_555
N25 C30 1_555 1_555
H37 N25 1_555 1_555
H38 N25 1_555 1_555
O8 C19 1_555 1_555
O9 C19 1_555 1_555
O16 C27 1_555 1_555
O11 C27 1_555 1_555
O18 C26 1_555 1_555
O13 C26 1_555 1_555
C24 C25 1_555 1_555
C31 N22 1_555 1_555
C31 N28 1_555 1_555
Co5 O8 1_555 1_555
Co5 O9 1_555 1_555
N22 N23 1_555 1_555
C29 H23 1_555 1_555
N18 Co1_7 1_555 1_555
C29 N18 1_555 1_555
C11 H4 1_555 1_555
N5 C11 1_555 1_555
Co1_8 N5 1_555 1_555

#END
