
###############################################################################
#
# This file contains modified crystal structure data generated from the
# MOF subset of the Cambridge Structural Database (CSD) v543 
# hosted by the Cambridge Crystallographic Data Centre (CCDC).
#
# This work is licensed under the Creative Commons
# Attribution-NonCommercial-ShareAlike 4.0 International License.
# To view a copy of this license, visit
# http://creativecommons.org/licenses/by-nc-sa/4.0/
# or send a letter to
# Creative Commons, PO Box 1866, Mountain View, CA 94042, USA.
#
# CIF created using the CSD Python API on 29 September 2022
# The structure has been converted into the P1 space group
# The structure has a 3D framework
# The original CSD entry FIHLOZ is in the monoclinic crystal system
# The framework has been calculated to contain at least 10.0% void space
# The void calculation uses a probe of radius 1.32A, grid spacing 0.4
#
###############################################################################

data_FIHLOZ
_chemical_formula_moiety         '(C208 H154 Co16 N32 O106)n'
_symmetry_cell_setting           triclinic
_symmetry_space_group_name_H-M   'P 1'
_symmetry_Int_Tables_number      1
_space_group_name_Hall           'P 1'
loop_
_symmetry_equiv_pos_site_id
_symmetry_equiv_pos_as_xyz
1 x,y,z
_cell_length_a                   10.7873(2)
_cell_length_b                   26.9072(5)
_cell_length_c                   22.3486(3)
_cell_angle_alpha                90
_cell_angle_beta                 101.1730(10)
_cell_angle_gamma                90
_cell_volume                     6363.87
loop_
_atom_site_label
_atom_site_type_symbol
_atom_site_fract_x
_atom_site_fract_y
_atom_site_fract_z
O9 O 0.41664(13) 0.07248(5) 0.44496(6)
O10 O 0.29422(14) 0.07852(5) 0.35165(6)
C16 C 0.34871(19) 0.05457(8) 0.39765(9)
Co5 Co 0.33277(3) 0.155537(10) 0.341139(13)
Co6 Co 0.58772(3) 0.109839(10) 0.453007(12)
Co1 Co 0.16723(3) 0.655537(10) 0.158861(13)
Co3 Co 0.41049(3) 0.852116(10) 0.055269(13)
Co4 Co 0.65412(3) 0.898392(10) 0.176557(13)
O1 O 0.15892(13) 0.68088(5) 0.07125(6)
O8 O 0.30200(15) 0.88560(5) 0.30220(7)
O13 O 0.41611(14) 0.82342(5) 0.14306(7)
O14 O 0.61035(13) 0.82530(5) 0.20053(6)
O15 O 0.60387(14) 0.87747(5) 0.08345(7)
H3 H 0.621(2) 0.9045(5) 0.0707(10)
H4 H 0.643(2) 0.8549(6) 0.0725(10)
O19 O 0.78380(14) 0.47012(5) 0.34488(6)
O20 O 0.85435(15) 0.46648(6) 0.44606(7)
O21 O 0.67233(15) 0.63098(6) 0.22728(7)
O22 O 0.80434(15) 0.66270(6) 0.31326(7)
O24 O 0.16505(18) 0.64538(6) 0.24987(7)
H5 H 0.197(3) 0.6676(7) 0.2727(10)
H6 H 0.182(3) 0.6194(5) 0.2692(11)
O25 O 0.11300(13) 0.73160(5) 0.17776(7)
O27 O 0.16275(14) 0.92110(5) 0.22088(7)
N2 N 0.36226(16) 0.92414(6) 0.45863(8)
N3 N 0.21900(16) 0.82425(7) 0.03141(8)
N7 N 0.35913(17) 0.67841(7) 0.17733(8)
N8 N 0.88727(17) 0.61597(6) 0.46573(8)
C1 C 0.0646(2) 0.70050(8) 0.03697(9)
C14 C 0.36284(19) 0.97367(8) 0.45371(9)
H14 H 0.3820 0.9929 0.4900
C15 C 0.33680(19) 0.99849(8) 0.39804(10)
C17 C 0.30959(19) 0.97049(8) 0.34444(9)
H15 H 0.2878 0.9861 0.3057
C18 C 0.3155(2) 0.91907(8) 0.34977(9)
C19 C 0.3396(2) 0.89742(8) 0.40711(10)
H16 H 0.3400 0.8622 0.4100
C20 C 0.0766(2) 0.75531(8) 0.02680(9)
C21 C 0.1976(2) 0.77574(8) 0.03537(9)
H17 H 0.2682 0.7540 0.0445
C22 C 0.51032(19) 0.80335(8) 0.17621(9)
C31 C 0.8222(2) 0.48970(8) 0.39677(10)
C32 C 0.8337(2) 0.54549(8) 0.40023(10)
C35 C 0.4995(2) 0.74835(8) 0.18639(9)
C36 C 0.3807(2) 0.72711(8) 0.17173(9)
H26 H 0.3108 0.7481 0.1569
C37 C 0.4589(2) 0.64901(8) 0.19653(10)
H27 H 0.4451 0.6144 0.2004
C38 C 0.5816(2) 0.66691(8) 0.21107(10)
C39 C 0.7960(2) 0.64646(9) 0.25295(10)
H28 H 0.8211 0.6738 0.2282
H29 H 0.8553 0.6185 0.2522
C40 C 0.6034(2) 0.71762(8) 0.20737(9)
H30 H 0.6861 0.7310 0.2187
C41 C 0.8613(2) 0.64532(8) 0.41660(10)
H31 H 0.8697 0.6802 0.4221
C42 C 0.8227(2) 0.62703(8) 0.35822(10)
C43 C 0.8048(2) 0.57625(8) 0.34923(10)
H32 H 0.7741 0.5630 0.3098
C44 C 0.8761(2) 0.56677(8) 0.45700(10)
H33 H 0.8982 0.5455 0.4913
C45 C 0.1194(2) 0.85507(9) 0.02052(10)
H34 H 0.1335 0.8897 0.0169
C48 C 0.0035(2) 0.74859(8) 0.17418(9)
C50 C 0.0931(2) 0.83484(8) 0.19946(9)
H36 H 0.1768 0.8222 0.2049
C51 C 0.0706(2) 0.88484(8) 0.20715(9)
C52 C 0.2876(2) 0.90481(8) 0.24265(10)
H37 H 0.3094 0.8788 0.2151
H38 H 0.3466 0.9330 0.2425
Co8 Co 0.41228(3) 0.890161(10) 0.546993(12)
Co11 Co 0.91049(3) 0.647884(10) 0.555269(13)
Co13 Co 0.84588(3) 0.398392(10) 0.323443(13)
O29 O 0.08336(13) 0.57248(5) 0.05504(6)
O30 O 0.20578(14) 0.57852(5) 0.14835(6)
O31 O 0.47384(13) 0.78607(5) 0.02752(7)
O32 O 0.48107(13) 0.93899(5) 0.16572(6)
O33 O 0.34280(14) 0.91671(5) 0.08125(6)
O34 O 0.71620(14) 0.97012(5) 0.15512(6)
N10 N 0.68168(17) 0.91852(6) 0.27004(8)
N11 N 0.84661(16) 0.87194(7) 0.18449(8)
N12 N 0.38727(17) 0.88403(6) 0.96573(8)
O16 O 0.51893(13) 0.06101(5) 0.83428(6)
O17 O 0.65720(14) 0.08329(5) 0.91875(6)
C24 C 0.6140(2) 0.05425(8) 0.87569(9)
C25 C 0.6898(2) 0.00729(8) 0.87451(10)
H19 H 0.8081 0.0186 0.9565
Co10 Co 0.58951(3) 0.147884(10) 0.944731(13)
Co14 Co 0.34588(3) 0.101608(10) 0.823443(13)
Co2 Co 0.91228(3) 0.609839(10) 0.046993(12)
O2 O 0.96550(13) 0.67822(5) 0.01225(6)
O3 O 0.97390(14) 0.63856(6) 0.13547(6)
H1 H 0.952(2) 0.6154(6) 0.1541(9)
H2 H 0.946(2) 0.6641(5) 0.1469(10)
O12 O 0.68443(13) 0.79363(5) 0.04904(7)
O23 O 0.89263(15) 0.86849(6) 0.00815(8)
O26 O 0.90259(14) 0.72385(5) 0.16257(7)
N1 N 0.72679(16) 0.64160(6) 0.03656(8)
C7 C 0.6222(2) 0.61372(8) 0.02167(10)
H9 H 0.6309 0.5787 0.0197
C8 C 0.5022(2) 0.63399(8) 0.00910(10)
H10 H 0.2755 0.6510 0.0077
C10 C 0.4891(2) 0.68487(8) 0.01076(10)
H12 H 0.4081 0.6998 0.0000
C11 C 0.5961(2) 0.71377(8) 0.02842(9)
C12 C 0.5852(2) 0.76899(8) 0.03534(10)
C13 C 0.7128(2) 0.69077(8) 0.04107(9)
H13 H 0.7861 0.7107 0.0534
C28 C 0.9158(2) 0.91975(9) 0.01845(11)
H20 H 0.9812 0.9243 0.0558
H21 H 0.8374 0.9362 0.0251
C33 C 0.9470(2) 0.90200(8) 0.19952(9)
H24 H 0.9331 0.9364 0.2052
C34 C 0.8684(2) 0.82351(8) 0.17624(9)
H25 H 0.7981 0.8019 0.1649
C46 C 0.9966(2) 0.83776(9) 0.01433(11)
C47 C 0.9739(2) 0.78725(8) 0.01554(10)
H35 H 0.8900 0.7747 0.0088
C49 C 0.9893(2) 0.80378(8) 0.18360(9)
O28 O 0.84556(14) 0.54726(5) 0.08807(6)
O4 O 0.15444(14) 0.45274(5) 0.91193(6)
O5 O 0.08046(15) 0.44013(5) 0.81195(7)
O6 O 0.40326(14) 0.60077(5) 0.99669(7)
O7 O 0.25630(15) 0.63729(6) 0.91932(7)
O18 O 0.95658(14) 0.94227(6) 0.96862(7)
N4 N 0.18168(17) 0.58148(6) 0.77004(8)
N5 N 0.7327(2) 0.93248(8) 0.82439(10)
C2 C 0.1324(2) 0.46589(8) 0.85675(10)
C3 C 0.1671(2) 0.51804(8) 0.84326(10)
C4 C 0.2056(2) 0.55119(8) 0.89066(10)
H7 H 0.2171 0.5406 0.9319
C5 C 0.2267(2) 0.59995(8) 0.87661(10)
C6 C 0.15670(19) 0.53452(8) 0.78376(10)
H8 H 0.1308 0.5116 0.7514
C9 C 0.2813(2) 0.62201(8) 0.98108(10)
H11 H 0.2173 0.5973 0.9877
H12_2 H 0.4081 0.6998 1.0000
C23 C 0.2153(2) 0.61372(8) 0.81605(10)
H18 H 0.2320 0.6472 0.8068
C26 C 0.7885(2) 0.99663(8) 0.92278(10)
C27 C 0.8569(2) 0.95391(9) 0.92097(11)
C29 C 0.8277(2) 0.92279(9) 0.87078(12)
H22 H 0.8768 0.8937 0.8694
C30 C 0.6647(2) 0.97378(9) 0.82670(11)
H23 H 0.5961 0.9804 0.7941
Co7 Co 0.08772(3) 0.390161(10) 0.953007(12)
Co15 Co 0.15412(3) 0.601608(10) 0.676557(13)
N9 N 0.86226(16) 0.57586(6) 0.95863(8)
O6_2 O 0.09674(14) 0.10077(5) 0.50331(7)
O7_2 O 0.24370(15) 0.13729(6) 0.58068(7)
O11 O 0.02616(13) 0.28607(5) 0.47248(7)
N4_2 N 0.31832(17) 0.08148(6) 0.72996(8)
C3_2 C 0.3329(2) 0.01804(8) 0.65674(10)
C4_2 C 0.2944(2) 0.05119(8) 0.60934(10)
H7_2 H 0.2829 0.0406 0.5681
C5_2 C 0.2733(2) 0.09995(8) 0.62339(10)
C6_2 C 0.34330(19) 0.03452(8) 0.71624(10)
H8_2 H 0.3692 0.0116 0.7486
C9_2 C 0.2187(2) 0.12201(8) 0.51892(10)
H10_2 H 0.2245 0.1510 0.4923
H11_2 H 0.2827 0.0973 0.5123
C10_2 C 0.0109(2) 0.18487(8) 0.48924(10)
H12_3 H 0.0919 0.1998 0.5000
C23_2 C 0.2847(2) 0.11372(8) 0.68395(10)
H18_2 H 0.2680 0.1472 0.6932
Co9 Co 0.08951(3) 0.352116(10) 0.444731(13)
O4_2 O 0.34556(14) 0.95274(5) 0.58807(6)
O5_2 O 0.41954(15) 0.94013(5) 0.68805(7)
C2_2 C 0.3676(2) 0.96589(8) 0.64325(10)
O1_2 O 0.34108(13) 0.18088(5) 0.42875(6)
O2_2 O 0.53450(13) 0.17822(5) 0.48775(6)
O3_2 O 0.52610(14) 0.13856(6) 0.36453(6)
H1_2 H 0.548(2) 0.1154(6) 0.3459(9)
H2_2 H 0.554(2) 0.1641(5) 0.3531(10)
O8_2 O 0.19800(15) 0.38560(5) 0.19780(7)
O12_2 O 0.81557(13) 0.29363(5) 0.45096(7)
O13_2 O 0.08389(14) 0.32342(5) 0.35694(7)
O16_2 O 0.98107(13) 0.56101(5) 0.66572(6)
O17_2 O 0.84280(14) 0.58329(5) 0.58125(6)
O18_2 O 0.54342(14) 0.44227(6) 0.53138(7)
O23_2 O 0.60737(15) 0.36849(6) 0.49185(8)
O24_2 O 0.33495(18) 0.14538(6) 0.25013(7)
H5_2 H 0.303(3) 0.1676(7) 0.2273(10)
H6_2 H 0.318(3) 0.1194(5) 0.2308(11)
O25_2 O 0.38700(13) 0.23160(5) 0.32224(7)
O26_2 O 0.59741(14) 0.22385(5) 0.33743(7)
O27_2 O 0.33725(14) 0.42110(5) 0.27912(7)
N1_2 N 0.77321(16) 0.14160(6) 0.46344(8)
N2_2 N 0.13774(16) 0.42414(6) 0.04137(8)
N3_2 N 0.28100(16) 0.32425(7) 0.46859(8)
N5_2 N 0.7673(2) 0.43248(8) 0.67561(10)
N6 N 0.65339(16) 0.37194(7) 0.31551(8)
N7_2 N 0.14087(17) 0.17841(7) 0.32267(8)
C1_2 C 0.4354(2) 0.20050(8) 0.46303(9)
C7_2 C 0.8778(2) 0.11372(8) 0.47833(10)
H9_2 H 0.8691 0.0787 0.4803
C8_2 C 0.9978(2) 0.13399(8) 0.49090(10)
C11_2 C 0.9039(2) 0.21377(8) 0.47158(9)
C12_2 C 0.9148(2) 0.26899(8) 0.46466(10)
C13_2 C 0.7872(2) 0.19077(8) 0.45893(9)
H13_2 H 0.7139 0.2107 0.4466
C14_2 C 0.13716(19) 0.47367(8) 0.04629(9)
H14_2 H 0.1180 0.4929 0.0100
C15_2 C 0.16320(19) 0.49849(8) 0.10196(10)
C16_2 C 0.15129(19) 0.55457(8) 0.10235(9)
C17_2 C 0.19041(19) 0.47049(8) 0.15556(9)
H15_2 H 0.2122 0.4861 0.1943
C18_2 C 0.1845(2) 0.41907(8) 0.15023(9)
C19_2 C 0.1604(2) 0.39742(8) 0.09289(10)
H16_2 H 0.1600 0.3622 0.0900
C20_2 C 0.4234(2) 0.25531(8) 0.47320(9)
C21_2 C 0.3024(2) 0.27574(8) 0.46463(9)
H17_2 H 0.2318 0.2540 0.4555
C24_2 C 0.8860(2) 0.55425(8) 0.62431(9)
C25_2 C 0.8102(2) 0.50729(8) 0.62549(10)
C26_2 C 0.7115(2) 0.49663(8) 0.57722(10)
H19_2 H 0.6919 0.5186 0.5435
C27_2 C 0.6431(2) 0.45391(9) 0.57903(11)
C28_2 C 0.5842(2) 0.41975(9) 0.48155(11)
H20_2 H 0.5188 0.4243 0.4442
H21_2 H 0.6626 0.4362 0.4749
C29_2 C 0.6723(2) 0.42279(9) 0.62922(12)
H22_2 H 0.6232 0.3937 0.6306
C30_2 C 0.8353(2) 0.47378(9) 0.67330(11)
H23_2 H 0.9039 0.4804 0.7059
C33_2 C 0.5530(2) 0.40200(8) 0.30048(9)
H24_2 H 0.5669 0.4364 0.2948
C34_2 C 0.6316(2) 0.32351(8) 0.32376(9)
H25_2 H 0.7019 0.3019 0.3351
C35_2 C 0.0005(2) 0.24835(8) 0.31361(9)
C36_2 C 0.1193(2) 0.22711(8) 0.32827(9)
H26_2 H 0.1892 0.2481 0.3431
C37_2 C 0.0411(2) 0.14901(8) 0.30347(10)
H27_2 H 0.0549 0.1144 0.2996
C45_2 C 0.3806(2) 0.35507(9) 0.47948(10)
H34_2 H 0.3665 0.3897 0.4831
C46_2 C 0.5034(2) 0.33776(9) 0.48567(11)
C47_2 C 0.5261(2) 0.28725(8) 0.48446(10)
H35_2 H 0.6100 0.2747 0.4912
C48_2 C 0.4965(2) 0.24859(8) 0.32582(9)
C49_2 C 0.5107(2) 0.30378(8) 0.31640(9)
C50_2 C 0.4069(2) 0.33484(8) 0.30054(9)
H36_2 H 0.3232 0.3222 0.2951
C51_2 C 0.4294(2) 0.38484(8) 0.29285(9)
C52_2 C 0.2124(2) 0.40481(8) 0.25735(10)
H37_2 H 0.1906 0.3788 0.2849
H38_2 H 0.1534 0.4330 0.2575
O28_2 O 0.65444(14) 0.04726(5) 0.41193(6)
O32_2 O 0.01893(13) 0.43899(5) 0.33428(6)
O33_2 O 0.15720(14) 0.41671(5) 0.41875(6)
N9_2 N 0.63774(16) 0.07586(6) 0.54137(8)
N12_2 N 0.11273(17) 0.38403(6) 0.53427(8)
O14_2 O 0.88965(13) 0.32530(5) 0.29947(6)
O15_2 O 0.89613(14) 0.37747(5) 0.41655(7)
H3_2 H 0.879(2) 0.4045(5) 0.4293(10)
H4_2 H 0.857(2) 0.3549(6) 0.4275(10)
O21_2 O 0.82767(15) 0.13098(6) 0.27272(7)
O22_2 O 0.69566(15) 0.16270(6) 0.18674(7)
N8_2 N 0.61273(17) 0.11597(6) 0.03427(8)
C22_2 C 0.98968(19) 0.30335(8) 0.32379(9)
C32_2 C 0.6663(2) 0.04549(8) 0.09977(10)
C38_2 C 0.9184(2) 0.16691(8) 0.28893(10)
C39_2 C 0.7040(2) 0.14646(9) 0.24705(10)
H28_2 H 0.6789 0.1738 0.2718
H29_2 H 0.6447 0.1185 0.2478
C40_2 C 0.8966(2) 0.21762(8) 0.29263(9)
H30_2 H 0.8139 0.2310 0.2813
C41_2 C 0.6387(2) 0.14532(8) 0.08340(10)
H31_2 H 0.6303 0.1802 0.0779
C42_2 C 0.6773(2) 0.12703(8) 0.14178(10)
C43_2 C 0.6952(2) 0.07625(8) 0.15077(10)
H32_2 H 0.7259 0.0630 0.1902
C44_2 C 0.6239(2) 0.06677(8) 0.04300(10)
H33_2 H 0.6018 0.0455 0.0087
N10_2 N 0.81832(17) 0.41852(6) 0.22996(8)
O20_2 O 0.64565(15) 0.96648(6) 0.05394(7)
C31_2 C 0.6778(2) 0.98970(8) 0.10323(10)
O5_3 O 0.91954(15) 0.55987(5) 0.18805(7)
O6_3 O 0.59674(14) 0.39923(5) 0.00331(7)
O7_3 O 0.74370(15) 0.36271(6) 0.08068(7)
O18_3 O 0.04342(14) 0.05773(6) 0.03138(7)
N5_3 N 0.2673(2) 0.06752(8) 0.17561(10)
C2_3 C 0.8676(2) 0.53411(8) 0.14325(10)
C3_3 C 0.8329(2) 0.48196(8) 0.15674(10)
C4_3 C 0.7944(2) 0.44881(8) 0.10934(10)
H7_3 H 0.7829 0.4594 0.0681
C5_3 C 0.7733(2) 0.40005(8) 0.12339(10)
C6_3 C 0.84330(19) 0.46548(8) 0.21624(10)
H8_3 H 0.8692 0.4884 0.2486
C9_3 C 0.7187(2) 0.37799(8) 0.01892(10)
H11_3 H 0.7827 0.4027 0.0123
H12_4 H 0.5919 0.3002 0.0000
C23_3 C 0.7847(2) 0.38628(8) 0.18395(10)
H18_3 H 0.7680 0.3528 0.1932
C26_3 C 0.2115(2) 0.00337(8) 0.07722(10)
C27_3 C 0.1431(2) 0.04609(9) 0.07903(11)
C29_3 C 0.1723(2) 0.07721(9) 0.12922(12)
H22_3 H 0.1232 0.1063 0.1306
C30_3 C 0.3353(2) 0.02622(9) 0.17330(11)
H23_3 H 0.4039 0.0196 0.2059
O2_3 O 0.03450(13) 0.32178(5) 0.98775(6)
O3_3 O 0.02610(14) 0.36144(6) 0.86453(6)
H1_3 H 0.048(2) 0.3846(6) 0.8459(9)
H2_3 H 0.054(2) 0.3359(5) 0.8531(10)
O11_2 O 0.52616(13) 0.21393(5) 0.97248(7)
O12_3 O 0.31557(13) 0.20637(5) 0.95096(7)
O23_3 O 0.10737(15) 0.13151(6) 0.99185(8)
O26_3 O 0.09741(14) 0.27615(5) 0.83743(7)
N1_3 N 0.27321(16) 0.35840(6) 0.96344(8)
N6_2 N 0.15339(16) 0.12806(7) 0.81551(8)
C7_3 C 0.3778(2) 0.38628(8) 0.97833(10)
H9_3 H 0.3691 0.4213 0.9803
C8_3 C 0.4978(2) 0.36601(8) 0.99090(10)
H10_3 H 0.7245 0.3490 0.9923
C10_3 C 0.5109(2) 0.31513(8) 0.98924(10)
H12_5 H 0.5919 0.3002 1.0000
C11_3 C 0.4039(2) 0.28623(8) 0.97158(9)
C12_3 C 0.4148(2) 0.23101(8) 0.96466(10)
C13_3 C 0.2872(2) 0.30923(8) 0.95893(9)
H13_3 H 0.2139 0.2893 0.9466
C28_3 C 0.0842(2) 0.08025(9) 0.98155(11)
H20_3 H 0.0188 0.0757 0.9442
H21_3 H 0.1626 0.0638 0.9749
C33_3 C 0.0530(2) 0.09800(8) 0.80048(9)
H24_3 H 0.0669 0.0636 0.7948
C34_3 C 0.1316(2) 0.17649(8) 0.82376(9)
H25_3 H 0.2019 0.1981 0.8351
C46_3 C 0.0034(2) 0.16224(9) 0.98567(11)
C47_3 C 0.0261(2) 0.21275(8) 0.98446(10)
H35_3 H 0.1100 0.2253 0.9912
C49_3 C 0.0107(2) 0.19622(8) 0.81640(9)
C24_3 C 0.3860(2) 0.94575(8) 0.12431(9)
C25_3 C 0.3102(2) 0.99271(8) 0.12549(10)
H19_3 H 0.1919 0.9814 0.0435
Co1_2 Co 0.83277(3) 0.344463(10) 0.841139(13)
O1_3 O 0.84108(13) 0.31912(5) 0.92875(6)
O8_3 O 0.69800(15) 0.11440(5) 0.69780(7)
O13_3 O 0.58389(14) 0.17658(5) 0.85694(7)
O14_3 O 0.38965(13) 0.17470(5) 0.79947(6)
O15_3 O 0.39613(14) 0.12253(5) 0.91655(7)
H3_3 H 0.379(2) 0.0955(5) 0.9293(10)
H4_3 H 0.357(2) 0.1451(6) 0.9275(10)
O19_2 O 0.21620(14) 0.52988(5) 0.65512(6)
O20_3 O 0.14565(15) 0.53352(6) 0.55394(7)
O21_3 O 0.32767(15) 0.36902(6) 0.77272(7)
O22_3 O 0.19566(15) 0.33730(6) 0.68674(7)
O24_3 O 0.83495(18) 0.35462(6) 0.75013(7)
H5_3 H 0.803(3) 0.3324(7) 0.7273(10)
H6_3 H 0.818(3) 0.3806(5) 0.7308(11)
O25_3 O 0.88700(13) 0.26840(5) 0.82224(7)
O27_3 O 0.83725(14) 0.07890(5) 0.77912(7)
N3_3 N 0.78100(16) 0.17575(7) 0.96859(8)
N7_3 N 0.64087(17) 0.32159(7) 0.82267(8)
C1_3 C 0.9354(2) 0.29950(8) 0.96303(9)
C14_3 C 0.63716(19) 0.02633(8) 0.54629(9)
H14_3 H 0.6180 0.0071 0.5100
C15_3 C 0.66320(19) 0.00151(8) 0.60196(10)
C17_3 C 0.69041(19) 0.02951(8) 0.65556(9)
H15_3 H 0.7122 0.0139 0.6943
C18_3 C 0.6845(2) 0.08093(8) 0.65023(9)
C19_3 C 0.6604(2) 0.10258(8) 0.59289(10)
H16_3 H 0.6600 0.1378 0.5900
C20_3 C 0.9234(2) 0.24469(8) 0.97320(9)
C21_3 C 0.8024(2) 0.22426(8) 0.96463(9)
H17_3 H 0.7318 0.2460 0.9555
C22_3 C 0.48968(19) 0.19665(8) 0.82379(9)
C31_3 C 0.1778(2) 0.51030(8) 0.60323(10)
C32_3 C 0.1663(2) 0.45451(8) 0.59977(10)
C35_3 C 0.5005(2) 0.25165(8) 0.81361(9)
C36_3 C 0.6193(2) 0.27289(8) 0.82827(9)
H26_3 H 0.6892 0.2519 0.8431
C37_3 C 0.5411(2) 0.35099(8) 0.80347(10)
H27_3 H 0.5549 0.3856 0.7996
C38_3 C 0.4184(2) 0.33309(8) 0.78893(10)
C39_3 C 0.2040(2) 0.35354(9) 0.74705(10)
H28_3 H 0.1789 0.3262 0.7718
H29_3 H 0.1447 0.3815 0.7478
C40_3 C 0.3966(2) 0.28238(8) 0.79263(9)
H30_3 H 0.3139 0.2690 0.7813
C41_3 C 0.1387(2) 0.35468(8) 0.58340(10)
H31_3 H 0.1303 0.3198 0.5779
C42_3 C 0.1773(2) 0.37297(8) 0.64178(10)
C43_3 C 0.1952(2) 0.42375(8) 0.65077(10)
H32_3 H 0.2259 0.4370 0.6902
C44_3 C 0.1239(2) 0.43323(8) 0.54300(10)
H33_3 H 0.1018 0.4545 0.5087
C45_3 C 0.8806(2) 0.14493(9) 0.97948(10)
H34_3 H 0.8665 0.1103 0.9831
C48_3 C 0.9965(2) 0.25141(8) 0.82582(9)
C50_3 C 0.9069(2) 0.16516(8) 0.80054(9)
H36_3 H 0.8232 0.1778 0.7951
C51_3 C 0.9294(2) 0.11516(8) 0.79285(9)
C52_3 C 0.7124(2) 0.09519(8) 0.75735(10)
H37_3 H 0.6906 0.1212 0.7849
H38_3 H 0.6534 0.0670 0.7575
O29_2 O 0.91664(13) 0.42752(5) 0.94496(6)
O30_2 O 0.79422(14) 0.42148(5) 0.85165(6)
O34_2 O 0.28380(14) 0.02988(5) 0.84488(6)
O9_2 O 0.58336(13) 0.92752(5) 0.55504(6)
O10_2 O 0.70578(14) 0.92148(5) 0.64835(6)
C16_3 C 0.65129(19) 0.94543(8) 0.60235(9)
Co5_2 Co 0.66723(3) 0.844463(10) 0.658861(13)
O20_4 O 0.35435(15) 0.03352(6) 0.94606(7)
C31_4 C 0.3222(2) 0.01030(8) 0.89677(10)
O14_4 O 0.11035(13) 0.67470(5) 0.70053(6)
O15_4 O 0.10387(14) 0.62253(5) 0.58345(7)
H3_4 H 0.121(2) 0.5955(5) 0.5707(10)
H4_4 H 0.143(2) 0.6451(6) 0.5725(10)
O21_4 O 0.17233(15) 0.86902(6) 0.72728(7)
O22_4 O 0.30434(15) 0.83730(6) 0.81326(7)
C22_4 C 0.01032(19) 0.69665(8) 0.67621(9)
C32_4 C 0.3337(2) 0.95451(8) 0.90023(10)
C38_4 C 0.0816(2) 0.83309(8) 0.71107(10)
C39_4 C 0.2960(2) 0.85354(9) 0.75295(10)
H28_4 H 0.3211 0.8262 0.7282
H29_4 H 0.3553 0.8815 0.7522
C40_4 C 0.1034(2) 0.78238(8) 0.70737(9)
H30_4 H 0.1861 0.7690 0.7187
C41_4 C 0.3613(2) 0.85468(8) 0.91660(10)
H31_4 H 0.3697 0.8198 0.9221
C42_4 C 0.3227(2) 0.87297(8) 0.85822(10)
C43_4 C 0.3048(2) 0.92375(8) 0.84923(10)
H32_4 H 0.2741 0.9370 0.8098
C44_4 C 0.3761(2) 0.93323(8) 0.95700(10)
H33_4 H 0.3982 0.9545 0.9913
N11_2 N 0.34661(16) 0.62806(7) 0.68449(8)
O1_4 O 0.65892(13) 0.81912(5) 0.57125(6)
O2_4 O 0.46550(13) 0.82178(5) 0.51225(6)
O3_4 O 0.47390(14) 0.86144(6) 0.63547(6)
H1_4 H 0.452(2) 0.8846(6) 0.6541(9)
H2_4 H 0.446(2) 0.8359(5) 0.6469(10)
O8_4 O 0.80200(15) 0.61440(5) 0.80220(7)
O12_4 O 0.18443(13) 0.70637(5) 0.54904(7)
O13_4 O 0.91611(14) 0.67658(5) 0.64306(7)
O18_4 O 0.45658(14) 0.55773(6) 0.46862(7)
O23_4 O 0.39263(15) 0.63151(6) 0.50815(8)
O24_4 O 0.66505(18) 0.85462(6) 0.74987(7)
H5_4 H 0.697(3) 0.8324(7) 0.7727(10)
H6_4 H 0.682(3) 0.8806(5) 0.7692(11)
O25_4 O 0.61300(13) 0.76840(5) 0.67776(7)
O26_4 O 0.40259(14) 0.77615(5) 0.66257(7)
O27_4 O 0.66275(14) 0.57890(5) 0.72088(7)
N1_4 N 0.22679(16) 0.85840(6) 0.53656(8)
N3_4 N 0.71900(16) 0.67575(7) 0.53141(8)
N5_4 N 0.2327(2) 0.56752(8) 0.32439(10)
N7_4 N 0.85913(17) 0.82159(7) 0.67733(8)
C1_4 C 0.5646(2) 0.79950(8) 0.53697(9)
C7_4 C 0.1222(2) 0.88628(8) 0.52167(10)
H9_4 H 0.1309 0.9213 0.5197
C8_4 C 0.0022(2) 0.86601(8) 0.50910(10)
C11_4 C 0.0961(2) 0.78623(8) 0.52842(9)
C12_4 C 0.0852(2) 0.73101(8) 0.53534(10)
C13_4 C 0.2128(2) 0.80923(8) 0.54107(9)
H13_4 H 0.2861 0.7893 0.5534
C14_4 C 0.86284(19) 0.52633(8) 0.95371(9)
H14_4 H 0.8820 0.5071 0.9900
C15_4 C 0.83680(19) 0.50151(8) 0.89804(10)
C16_4 C 0.84871(19) 0.44543(8) 0.89765(9)
C17_4 C 0.80959(19) 0.52951(8) 0.84444(9)
H15_4 H 0.7878 0.5139 0.8057
C18_4 C 0.8155(2) 0.58093(8) 0.84977(9)
C19_4 C 0.8396(2) 0.60258(8) 0.90711(10)
H16_4 H 0.8400 0.6378 0.9100
C20_4 C 0.5766(2) 0.74469(8) 0.52680(9)
C21_4 C 0.6976(2) 0.72426(8) 0.53537(9)
H17_4 H 0.7682 0.7460 0.5445
C24_4 C 0.1140(2) 0.44575(8) 0.37569(9)
C25_4 C 0.1898(2) 0.49271(8) 0.37451(10)
C26_4 C 0.2885(2) 0.50337(8) 0.42278(10)
H19_4 H 0.3081 0.4814 0.4565
C27_4 C 0.3569(2) 0.54609(9) 0.42097(11)
C28_4 C 0.4158(2) 0.58025(9) 0.51845(11)
H20_4 H 0.4812 0.5757 0.5558
H21_4 H 0.3374 0.5638 0.5251
C29_4 C 0.3277(2) 0.57721(9) 0.37078(12)
H22_4 H 0.3768 0.6063 0.3694
C30_4 C 0.1647(2) 0.52622(9) 0.32670(11)
H23_4 H 0.0961 0.5196 0.2941
C33_4 C 0.4470(2) 0.59800(8) 0.69952(9)
H24_4 H 0.4331 0.5636 0.7052
C34_4 C 0.3684(2) 0.67649(8) 0.67624(9)
H25_4 H 0.2981 0.6981 0.6649
C35_4 C 0.9995(2) 0.75165(8) 0.68639(9)
C36_4 C 0.8807(2) 0.77289(8) 0.67173(9)
H26_4 H 0.8108 0.7519 0.6569
C37_4 C 0.9589(2) 0.85099(8) 0.69653(10)
H27_4 H 0.9451 0.8856 0.7004
C45_4 C 0.6194(2) 0.64493(9) 0.52052(10)
H34_4 H 0.6335 0.6103 0.5169
C46_4 C 0.4966(2) 0.66224(9) 0.51433(11)
C47_4 C 0.4739(2) 0.71275(8) 0.51554(10)
H35_4 H 0.3900 0.7253 0.5088
C48_4 C 0.5035(2) 0.75141(8) 0.67418(9)
C49_4 C 0.4893(2) 0.69622(8) 0.68360(9)
C50_4 C 0.5931(2) 0.66516(8) 0.69946(9)
H36_4 H 0.6768 0.6778 0.7049
C51_4 C 0.5706(2) 0.61516(8) 0.70715(9)
C52_4 C 0.7876(2) 0.59519(8) 0.74265(10)
H37_4 H 0.8094 0.6212 0.7151
H38_4 H 0.8466 0.5670 0.7425
O31_2 O 0.97384(13) 0.71393(5) 0.52752(7)
O5_4 O 0.58046(15) 0.05987(5) 0.31195(7)
C2_4 C 0.6324(2) 0.03411(8) 0.35675(10)
O6_4 O 0.90326(14) 0.89923(5) 0.49669(7)
O7_4 O 0.75630(15) 0.86271(6) 0.41932(7)
C3_4 C 0.6671(2) 0.98196(8) 0.34326(10)
C4_4 C 0.7056(2) 0.94881(8) 0.39066(10)
H7_4 H 0.7171 0.9594 0.4319
C5_4 C 0.7267(2) 0.90005(8) 0.37661(10)
C6_4 C 0.65670(19) 0.96548(8) 0.28376(10)
H8_4 H 0.6308 0.9884 0.2514
C9_4 C 0.7813(2) 0.87799(8) 0.48108(10)
H10_4 H 0.7755 0.8490 0.5077
H11_4 H 0.7173 0.9027 0.4877
C10_4 C 0.9891(2) 0.81513(8) 0.51076(10)
H12_6 H 0.9081 0.8002 0.5000
C23_4 C 0.7153(2) 0.88628(8) 0.31605(10)
H18_4 H 0.7320 0.8528 0.3068
loop_
_geom_bond_atom_site_label_1
_geom_bond_atom_site_label_2
_geom_bond_site_symmetry_1
_geom_bond_site_symmetry_2
O9 C16 1_555 1_555
O10 C16 1_555 1_555
Co5 O10 1_555 1_555
Co6 O9 1_555 1_555
Co1 O1 1_555 1_555
Co3 O13 1_555 1_555
Co4 O14 1_555 1_555
O1 C1 1_555 1_555
O8 C18 1_555 1_555
O13 C22 1_555 1_555
O14 C22 1_555 1_555
O15 Co3 1_555 1_555
H3 O15 1_555 1_555
H4 O15 1_555 1_555
O19 C31 1_555 1_555
O20 C31 1_555 1_555
O21 C38 1_555 1_555
O22 C39 1_555 1_555
O24 Co1 1_555 1_555
H5 O24 1_555 1_555
H6 O24 1_555 1_555
O25 Co1 1_555 1_555
O27 C51 1_555 1_555
N2 C14 1_555 1_555
N3 Co3 1_555 1_555
N7 Co1 1_555 1_555
N8 C41 1_555 1_555
C1 C20 1_555 1_555
C14 H14 1_555 1_555
C15 C14 1_555 1_555
C17 C15 1_555 1_555
H15 C17 1_555 1_555
C18 C17 1_555 1_555
C19 N2 1_555 1_555
H16 C19 1_555 1_555
C20 C21 1_555 1_555
C21 N3 1_555 1_555
H17 C21 1_555 1_555
C22 C35 1_555 1_555
C31 C32 1_555 1_555
C32 C43 1_555 1_555
C35 C36 1_555 1_555
C36 N7 1_555 1_555
H26 C36 1_555 1_555
C37 N7 1_555 1_555
H27 C37 1_555 1_555
C38 C37 1_555 1_555
C39 O21 1_555 1_555
H28 C39 1_555 1_555
H29 C39 1_555 1_555
C40 C35 1_555 1_555
H30 C40 1_555 1_555
C41 H31 1_555 1_555
C42 O22 1_555 1_555
C43 C42 1_555 1_555
H32 C43 1_555 1_555
C44 N8 1_555 1_555
H33 C44 1_555 1_555
C45 N3 1_555 1_555
H34 C45 1_555 1_555
C48 O25 1_555 1_555
H36 C50 1_555 1_555
C52 O8 1_555 1_555
H37 C52 1_555 1_555
H38 C52 1_555 1_555
Co8 N2 1_555 1_555
Co11 N8 1_555 1_555
Co13 O19 1_555 1_555
O30 Co1 1_555 1_555
O31 Co3 1_555 1_555
O32 Co4 1_555 1_555
O33 Co3 1_555 1_555
O34 Co4 1_555 1_555
N10 Co4 1_555 1_555
N11 Co4 1_555 1_555
Co4 O15 1_555 1_555
O27 C52 1_555 1_555
C18 C19 1_555 1_555
C32 C44 1_555 1_555
C38 C40 1_555 1_555
C41 C42 1_555 1_555
C50 C51 1_555 1_555
O16 C24 1_555 1_555
O17 C24 1_555 1_555
C24 C25 1_555 1_555
Co10 O17 1_555 1_555
Co14 O16 1_555 1_555
Co2 O2 1_555 1_555
H1 O3 1_555 1_555
H2 O3 1_555 1_555
O31 C12 1_555 1_555
O12 C12 1_555 1_555
O23 C28 1_555 1_555
N1 Co2 1_555 1_555
N11 C33 1_555 1_555
C7 N1 1_555 1_555
H9 C7 1_555 1_555
C8 C7 1_555 1_555
C10 C8 1_555 1_555
H12 C10 1_555 1_555
C11 C10 1_555 1_555
C12 C11 1_555 1_555
C13 N1 1_555 1_555
H13 C13 1_555 1_555
H20 C28 1_555 1_555
H21 C28 1_555 1_555
C33 H24 1_555 1_555
C34 N11 1_555 1_555
H25 C34 1_555 1_555
C46 O23 1_555 1_555
H35 C47 1_555 1_555
C49 C34 1_555 1_555
O28 Co2 1_555 1_555
Co2 O3 1_555 1_555
C11 C13 1_555 1_555
C46 C47 1_555 1_555
O4 C2 1_555 1_555
O5 C2 1_555 1_555
O7 C5 1_555 1_555
O18 C27 1_555 1_555
N4 C6 1_555 1_555
N5 C29 1_555 1_555
C2 C3 1_555 1_555
C3 C4 1_555 1_555
C4 H7 1_555 1_555
C5 C4 1_555 1_555
C6 C3 1_555 1_555
H8 C6 1_555 1_555
C9 O6 1_555 1_555
H11 C9 1_555 1_555
C23 N4 1_555 1_555
H18 C23 1_555 1_555
C27 C26 1_555 1_555
C29 C27 1_555 1_555
H22 C29 1_555 1_555
C30 N5 1_555 1_555
H23 C30 1_555 1_555
Co7 O4 1_555 1_555
Co15 N4 1_555 1_555
O7 C9 1_555 1_555
C5 C23 1_555 1_555
O7_2 C5_2 1_555 1_555
N4_2 C6_2 1_555 1_555
C3_2 C4_2 1_555 1_555
C4_2 H7_2 1_555 1_555
C5_2 C4_2 1_555 1_555
C6_2 C3_2 1_555 1_555
H8_2 C6_2 1_555 1_555
C9_2 O6_2 1_555 1_555
H10_2 C9_2 1_555 1_555
H11_2 C9_2 1_555 1_555
H12_3 C10_2 1_555 1_555
C23_2 N4_2 1_555 1_555
H18_2 C23_2 1_555 1_555
Co9 O11 1_555 1_555
Co14 N4_2 1_555 1_555
O7_2 C9_2 1_555 1_555
C5_2 C23_2 1_555 1_555
O4_2 C2_2 1_555 1_555
O5_2 C2_2 1_555 1_555
Co8 O4_2 1_555 1_555
Co5 O1_2 1_555 1_555
Co6 O2_2 1_555 1_555
Co9 O13_2 1_555 1_555
O1_2 C1_2 1_555 1_555
O2_2 C1_2 1_555 1_555
O3_2 Co5 1_555 1_555
H1_2 O3_2 1_555 1_555
H2_2 O3_2 1_555 1_555
O8_2 C18_2 1_555 1_555
O29 C16_2 1_555 1_555
O30 C16_2 1_555 1_555
O12_2 C12_2 1_555 1_555
O16_2 C24_2 1_555 1_555
O17_2 C24_2 1_555 1_555
O18_2 C27_2 1_555 1_555
O23_2 C28_2 1_555 1_555
O24_2 Co5 1_555 1_555
H5_2 O24_2 1_555 1_555
H6_2 O24_2 1_555 1_555
O25_2 Co5 1_555 1_555
O26_2 C48_2 1_555 1_555
O27_2 C51_2 1_555 1_555
N1_2 Co6 1_555 1_555
N2_2 C14_2 1_555 1_555
N3_2 Co9 1_555 1_555
N5_2 C29_2 1_555 1_555
N6 C33_2 1_555 1_555
N7_2 Co5 1_555 1_555
C1_2 C20_2 1_555 1_555
C7_2 N1_2 1_555 1_555
H9_2 C7_2 1_555 1_555
C8_2 C7_2 1_555 1_555
C12_2 C11_2 1_555 1_555
C13_2 N1_2 1_555 1_555
H13_2 C13_2 1_555 1_555
C14_2 H14_2 1_555 1_555
C15_2 C14_2 1_555 1_555
C16_2 C15_2 1_555 1_555
C17_2 C15_2 1_555 1_555
H15_2 C17_2 1_555 1_555
C18_2 C17_2 1_555 1_555
C19_2 N2_2 1_555 1_555
H16_2 C19_2 1_555 1_555
C20_2 C21_2 1_555 1_555
C21_2 N3_2 1_555 1_555
H17_2 C21_2 1_555 1_555
C24_2 C25_2 1_555 1_555
C25_2 C26_2 1_555 1_555
C26_2 H19_2 1_555 1_555
C27_2 C26_2 1_555 1_555
C28_2 O18_2 1_555 1_555
H20_2 C28_2 1_555 1_555
H21_2 C28_2 1_555 1_555
C29_2 C27_2 1_555 1_555
H22_2 C29_2 1_555 1_555
C30_2 N5_2 1_555 1_555
H23_2 C30_2 1_555 1_555
C33_2 H24_2 1_555 1_555
C34_2 N6 1_555 1_555
H25_2 C34_2 1_555 1_555
C35_2 C36_2 1_555 1_555
C36_2 N7_2 1_555 1_555
H26_2 C36_2 1_555 1_555
C37_2 N7_2 1_555 1_555
H27_2 C37_2 1_555 1_555
C45_2 N3_2 1_555 1_555
H34_2 C45_2 1_555 1_555
C46_2 O23_2 1_555 1_555
C47_2 C20_2 1_555 1_555
H35_2 C47_2 1_555 1_555
C48_2 O25_2 1_555 1_555
C49_2 C34_2 1_555 1_555
C50_2 C49_2 1_555 1_555
H36_2 C50_2 1_555 1_555
C51_2 C33_2 1_555 1_555
C52_2 O8_2 1_555 1_555
H37_2 C52_2 1_555 1_555
H38_2 C52_2 1_555 1_555
Co11 O17_2 1_555 1_555
Co13 N6 1_555 1_555
O28_2 Co6 1_555 1_555
O33_2 Co9 1_555 1_555
N9_2 Co6 1_555 1_555
N12_2 Co9 1_555 1_555
Co6 O3_2 1_555 1_555
O27_2 C52_2 1_555 1_555
C11_2 C13_2 1_555 1_555
C18_2 C19_2 1_555 1_555
C25_2 C30_2 1_555 1_555
C45_2 C46_2 1_555 1_555
C46_2 C47_2 1_555 1_555
C48_2 C49_2 1_555 1_555
C50_2 C51_2 1_555 1_555
Co13 O14_2 1_555 1_555
O14_2 C22_2 1_555 1_555
H3_2 O15_2 1_555 1_555
H4_2 O15_2 1_555 1_555
O21_2 C38_2 1_555 1_555
O22_2 C39_2 1_555 1_555
N8_2 C41_2 1_555 1_555
C32_2 C43_2 1_555 1_555
C39_2 O21_2 1_555 1_555
H28_2 C39_2 1_555 1_555
H29_2 C39_2 1_555 1_555
H30_2 C40_2 1_555 1_555
C41_2 H31_2 1_555 1_555
C42_2 O22_2 1_555 1_555
C43_2 C42_2 1_555 1_555
H32_2 C43_2 1_555 1_555
C44_2 N8_2 1_555 1_555
H33_2 C44_2 1_555 1_555
N10_2 Co13 1_555 1_555
Co13 O15_2 1_555 1_555
C32_2 C44_2 1_555 1_555
C38_2 C40_2 1_555 1_555
C41_2 C42_2 1_555 1_555
O34 C31_2 1_555 1_555
O20_2 C31_2 1_555 1_555
O28 C2_3 1_555 1_555
O5_3 C2_3 1_555 1_555
O7_3 C5_3 1_555 1_555
O18_3 C27_3 1_555 1_555
N10_2 C6_3 1_555 1_555
N5_3 C29_3 1_555 1_555
C2_3 C3_3 1_555 1_555
C3_3 C4_3 1_555 1_555
C4_3 H7_3 1_555 1_555
C5_3 C4_3 1_555 1_555
C6_3 C3_3 1_555 1_555
H8_3 C6_3 1_555 1_555
C9_3 O6_3 1_555 1_555
H11_3 C9_3 1_555 1_555
C23_3 N10_2 1_555 1_555
H18_3 C23_3 1_555 1_555
C27_3 C26_3 1_555 1_555
C29_3 C27_3 1_555 1_555
H22_3 C29_3 1_555 1_555
C30_3 N5_3 1_555 1_555
H23_3 C30_3 1_555 1_555
O7_3 C9_3 1_555 1_555
C5_3 C23_3 1_555 1_555
Co7 O2_3 1_555 1_555
H1_3 O3_3 1_555 1_555
H2_3 O3_3 1_555 1_555
O11_2 C12_3 1_555 1_555
O12_3 C12_3 1_555 1_555
O23_3 C28_3 1_555 1_555
N1_3 Co7 1_555 1_555
N6_2 C33_3 1_555 1_555
C7_3 N1_3 1_555 1_555
H9_3 C7_3 1_555 1_555
C8_3 C7_3 1_555 1_555
C10_3 C8_3 1_555 1_555
H12_5 C10_3 1_555 1_555
C11_3 C10_3 1_555 1_555
C12_3 C11_3 1_555 1_555
C13_3 N1_3 1_555 1_555
H13_3 C13_3 1_555 1_555
H20_3 C28_3 1_555 1_555
H21_3 C28_3 1_555 1_555
C33_3 H24_3 1_555 1_555
C34_3 N6_2 1_555 1_555
H25_3 C34_3 1_555 1_555
C46_3 O23_3 1_555 1_555
H35_3 C47_3 1_555 1_555
C49_3 C34_3 1_555 1_555
Co10 O11_2 1_555 1_555
Co14 N6_2 1_555 1_555
Co7 O3_3 1_555 1_555
C11_3 C13_3 1_555 1_555
C46_3 C47_3 1_555 1_555
O32 C24_3 1_555 1_555
O33 C24_3 1_555 1_555
C24_3 C25_3 1_555 1_555
Co1_2 O1_3 1_555 1_555
Co10 O13_3 1_555 1_555
Co14 O14_3 1_555 1_555
O1_3 C1_3 1_555 1_555
O8_3 C18_3 1_555 1_555
O13_3 C22_3 1_555 1_555
O14_3 C22_3 1_555 1_555
O15_3 Co10 1_555 1_555
H3_3 O15_3 1_555 1_555
H4_3 O15_3 1_555 1_555
O19_2 C31_3 1_555 1_555
O20_3 C31_3 1_555 1_555
O21_3 C38_3 1_555 1_555
O22_3 C39_3 1_555 1_555
O24_3 Co1_2 1_555 1_555
H5_3 O24_3 1_555 1_555
H6_3 O24_3 1_555 1_555
O25_3 Co1_2 1_555 1_555
O27_3 C51_3 1_555 1_555
N9_2 C14_3 1_555 1_555
N3_3 Co10 1_555 1_555
N7_3 Co1_2 1_555 1_555
N12_2 C41_3 1_555 1_555
C1_3 C20_3 1_555 1_555
C14_3 H14_3 1_555 1_555
C15_3 C14_3 1_555 1_555
C17_3 C15_3 1_555 1_555
H15_3 C17_3 1_555 1_555
C18_3 C17_3 1_555 1_555
C19_3 N9_2 1_555 1_555
H16_3 C19_3 1_555 1_555
C20_3 C21_3 1_555 1_555
C21_3 N3_3 1_555 1_555
H17_3 C21_3 1_555 1_555
C22_3 C35_3 1_555 1_555
C31_3 C32_3 1_555 1_555
C32_3 C43_3 1_555 1_555
C35_3 C36_3 1_555 1_555
C36_3 N7_3 1_555 1_555
H26_3 C36_3 1_555 1_555
C37_3 N7_3 1_555 1_555
H27_3 C37_3 1_555 1_555
C38_3 C37_3 1_555 1_555
C39_3 O21_3 1_555 1_555
H28_3 C39_3 1_555 1_555
H29_3 C39_3 1_555 1_555
C40_3 C35_3 1_555 1_555
H30_3 C40_3 1_555 1_555
C41_3 H31_3 1_555 1_555
C42_3 O22_3 1_555 1_555
C43_3 C42_3 1_555 1_555
H32_3 C43_3 1_555 1_555
C44_3 N12_2 1_555 1_555
H33_3 C44_3 1_555 1_555
C45_3 N3_3 1_555 1_555
H34_3 C45_3 1_555 1_555
C48_3 O25_3 1_555 1_555
H36_3 C50_3 1_555 1_555
C52_3 O8_3 1_555 1_555
H37_3 C52_3 1_555 1_555
H38_3 C52_3 1_555 1_555
Co15 O19_2 1_555 1_555
O30_2 Co1_2 1_555 1_555
O34_2 Co14 1_555 1_555
Co14 O15_3 1_555 1_555
O27_3 C52_3 1_555 1_555
C18_3 C19_3 1_555 1_555
C32_3 C44_3 1_555 1_555
C38_3 C40_3 1_555 1_555
C41_3 C42_3 1_555 1_555
C50_3 C51_3 1_555 1_555
O9_2 C16_3 1_555 1_555
O10_2 C16_3 1_555 1_555
Co5_2 O10_2 1_555 1_555
Co8 O9_2 1_555 1_555
O34_2 C31_4 1_555 1_555
O20_4 C31_4 1_555 1_555
Co15 O14_4 1_555 1_555
O14_4 C22_4 1_555 1_555
H3_4 O15_4 1_555 1_555
H4_4 O15_4 1_555 1_555
O21_4 C38_4 1_555 1_555
O22_4 C39_4 1_555 1_555
N12 C41_4 1_555 1_555
C32_4 C43_4 1_555 1_555
C39_4 O21_4 1_555 1_555
H28_4 C39_4 1_555 1_555
H29_4 C39_4 1_555 1_555
H30_4 C40_4 1_555 1_555
C41_4 H31_4 1_555 1_555
C42_4 O22_4 1_555 1_555
C43_4 C42_4 1_555 1_555
H32_4 C43_4 1_555 1_555
C44_4 N12 1_555 1_555
H33_4 C44_4 1_555 1_555
N11_2 Co15 1_555 1_555
Co15 O15_4 1_555 1_555
C32_4 C44_4 1_555 1_555
C38_4 C40_4 1_555 1_555
C41_4 C42_4 1_555 1_555
Co5_2 O1_4 1_555 1_555
Co8 O2_4 1_555 1_555
Co11 O13_4 1_555 1_555
O1_4 C1_4 1_555 1_555
O2_4 C1_4 1_555 1_555
O3_4 Co5_2 1_555 1_555
H1_4 O3_4 1_555 1_555
H2_4 O3_4 1_555 1_555
O8_4 C18_4 1_555 1_555
O29_2 C16_4 1_555 1_555
O30_2 C16_4 1_555 1_555
O12_4 C12_4 1_555 1_555
O32_2 C24_4 1_555 1_555
O33_2 C24_4 1_555 1_555
O18_4 C27_4 1_555 1_555
O23_4 C28_4 1_555 1_555
O24_4 Co5_2 1_555 1_555
H5_4 O24_4 1_555 1_555
H6_4 O24_4 1_555 1_555
O25_4 Co5_2 1_555 1_555
O26_4 C48_4 1_555 1_555
O27_4 C51_4 1_555 1_555
N1_4 Co8 1_555 1_555
N9 C14_4 1_555 1_555
N3_4 Co11 1_555 1_555
N5_4 C29_4 1_555 1_555
N11_2 C33_4 1_555 1_555
N7_4 Co5_2 1_555 1_555
C1_4 C20_4 1_555 1_555
C7_4 N1_4 1_555 1_555
H9_4 C7_4 1_555 1_555
C8_4 C7_4 1_555 1_555
C12_4 C11_4 1_555 1_555
C13_4 N1_4 1_555 1_555
H13_4 C13_4 1_555 1_555
C14_4 H14_4 1_555 1_555
C15_4 C14_4 1_555 1_555
C16_4 C15_4 1_555 1_555
C17_4 C15_4 1_555 1_555
H15_4 C17_4 1_555 1_555
C18_4 C17_4 1_555 1_555
C19_4 N9 1_555 1_555
H16_4 C19_4 1_555 1_555
C20_4 C21_4 1_555 1_555
C21_4 N3_4 1_555 1_555
H17_4 C21_4 1_555 1_555
C24_4 C25_4 1_555 1_555
C25_4 C26_4 1_555 1_555
C26_4 H19_4 1_555 1_555
C27_4 C26_4 1_555 1_555
C28_4 O18_4 1_555 1_555
H20_4 C28_4 1_555 1_555
H21_4 C28_4 1_555 1_555
C29_4 C27_4 1_555 1_555
H22_4 C29_4 1_555 1_555
C30_4 N5_4 1_555 1_555
H23_4 C30_4 1_555 1_555
C33_4 H24_4 1_555 1_555
C34_4 N11_2 1_555 1_555
H25_4 C34_4 1_555 1_555
C35_4 C36_4 1_555 1_555
C36_4 N7_4 1_555 1_555
H26_4 C36_4 1_555 1_555
C37_4 N7_4 1_555 1_555
H27_4 C37_4 1_555 1_555
C45_4 N3_4 1_555 1_555
H34_4 C45_4 1_555 1_555
C46_4 O23_4 1_555 1_555
C47_4 C20_4 1_555 1_555
H35_4 C47_4 1_555 1_555
C48_4 O25_4 1_555 1_555
C49_4 C34_4 1_555 1_555
C50_4 C49_4 1_555 1_555
H36_4 C50_4 1_555 1_555
C51_4 C33_4 1_555 1_555
C52_4 O8_4 1_555 1_555
H37_4 C52_4 1_555 1_555
H38_4 C52_4 1_555 1_555
O31_2 Co11 1_555 1_555
Co8 O3_4 1_555 1_555
O27_4 C52_4 1_555 1_555
C11_4 C13_4 1_555 1_555
C18_4 C19_4 1_555 1_555
C25_4 C30_4 1_555 1_555
C45_4 C46_4 1_555 1_555
C46_4 C47_4 1_555 1_555
C48_4 C49_4 1_555 1_555
C50_4 C51_4 1_555 1_555
O28_2 C2_4 1_555 1_555
O5_4 C2_4 1_555 1_555
O7_4 C5_4 1_555 1_555
N10 C6_4 1_555 1_555
C3_4 C4_4 1_555 1_555
C4_4 H7_4 1_555 1_555
C5_4 C4_4 1_555 1_555
C6_4 C3_4 1_555 1_555
H8_4 C6_4 1_555 1_555
C9_4 O6_4 1_555 1_555
H10_4 C9_4 1_555 1_555
H11_4 C9_4 1_555 1_555
H12_6 C10_4 1_555 1_555
C23_4 N10 1_555 1_555
H18_4 C23_4 1_555 1_555
O7_4 C9_4 1_555 1_555
C5_4 C23_4 1_555 1_555

#END
