
###############################################################################
#
# This file contains modified crystal structure data generated from the
# MOF subset of the Cambridge Structural Database (CSD) v543 
# hosted by the Cambridge Crystallographic Data Centre (CCDC).
#
# This work is licensed under the Creative Commons
# Attribution-NonCommercial-ShareAlike 4.0 International License.
# To view a copy of this license, visit
# http://creativecommons.org/licenses/by-nc-sa/4.0/
# or send a letter to
# Creative Commons, PO Box 1866, Mountain View, CA 94042, USA.
#
# CIF created using the CSD Python API on 29 September 2022
# The structure has been converted into the P1 space group
# The structure has a 3D framework
# The original CSD entry FIHLUF is in the triclinic crystal system
# The framework has been calculated to contain at least 10.0% void space
# The void calculation uses a probe of radius 1.32A, grid spacing 0.4
#
###############################################################################

data_FIHLUF
_chemical_formula_moiety         '(C52 H36 Mn4 N8 O26)n'
_symmetry_cell_setting           triclinic
_symmetry_space_group_name_H-M   'P 1'
_symmetry_Int_Tables_number      1
_space_group_name_Hall           'P 1'
loop_
_symmetry_equiv_pos_site_id
_symmetry_equiv_pos_as_xyz
1 x,y,z
_cell_length_a                   10.5259(5)
_cell_length_b                   11.6385(6)
_cell_length_c                   14.3080(6)
_cell_angle_alpha                105.079(2)
_cell_angle_beta                 103.924(2)
_cell_angle_gamma                100.717(2)
_cell_volume                     1583.9
loop_
_atom_site_label
_atom_site_type_symbol
_atom_site_fract_x
_atom_site_fract_y
_atom_site_fract_z
Mn3 Mn 0.00963(7) 0.78278(7) 0.78695(5)
O3 O 0.2556(4) 0.3626(3) 0.1189(3)
O4 O 0.1453(4) 0.1901(3) 0.1385(3)
O11 O 0.9204(4) 0.4278(3) 0.0879(3)
O12 O 0.8684(4) 0.2268(3) 0.0716(3)
C6 C 0.1876(5) 0.2510(5) 0.0859(4)
C24 C 0.8665(5) 0.3161(5) 0.0376(4)
Mn6 Mn 0.99037(7) 0.21722(7) 0.21305(5)
Mn9 Mn 0.28978(7) 0.47588(7) 0.27517(5)
Mn2 Mn 0.71022(7) 0.52412(7) 0.72483(5)
O1 O 0.0535(4) 0.2155(3) 0.7173(3)
O2 O 0.2002(4) 0.4107(3) 0.7657(3)
O8 O 0.3070(3) 0.3506(3) 0.3646(3)
O9 O 0.1109(3) 0.2407(3) 0.3689(3)
O10 O 0.9311(3) 0.5827(3) 0.7492(2)
H1 H 0.9532 0.5337 0.6998
H2 H 0.9806 0.5639 0.8003
O13 O 0.6347(4) 0.0250(3) 0.6921(3)
N2 N 0.4827(4) 0.4577(4) 0.6703(3)
N4 N 0.7255(4) 0.3579(4) 0.7845(3)
C1 C 0.0591(6) 0.0464(5) 0.7726(4)
C2 C 0.0823(5) 0.1724(5) 0.7980(4)
C3 C 0.1321(5) 0.2446(5) 0.9016(4)
H4 H 0.1546 0.3322 0.9218
C4 C 0.1471(5) 0.1829(5) 0.9729(4)
C5 C 0.1187(5) 0.0557(5) 0.9407(4)
H5 H 0.1287 0.0142 0.9900
C7 C 0.0632(5) 0.3423(5) 0.7366(4)
H6 H 0.0233 0.3714 0.7914
H7 H 0.0111 0.3558 0.6747
C8 C 0.2631(6) 0.4019(5) 0.6918(4)
C9 C 0.2027(5) 0.3502(5) 0.5878(4)
H8 H 0.1082 0.3109 0.5599
C10 C 0.2849(5) 0.3576(4) 0.5255(4)
C11 C 0.2285(5) 0.3123(5) 0.4099(4)
C12 C 0.4234(5) 0.4122(5) 0.5688(4)
H9 H 0.4783 0.4176 0.5254
C13 C 0.6789(5) 0.2394(5) 0.7251(4)
H10 H 0.6404 0.2225 0.6541
C14 C 0.6835(5) 0.1412(5) 0.7609(4)
C22 C 0.7424(5) 0.1652(5) 0.8652(4)
H16 H 0.7460 0.0997 0.8931
C23 C 0.7952(5) 0.2869(4) 0.9263(4)
C25 C 0.7864(5) 0.3811(5) 0.8842(4)
H17 H 0.8244 0.4643 0.9270
C26 C 0.4042(5) 0.4531(5) 0.7298(4)
H18 H 0.4453 0.4860 0.8013
O14 O 0.7444(4) 0.6374(3) 0.8811(3)
O16 O 0.7028(4) 0.3914(3) 0.5803(3)
O17 O 0.6930(3) 0.6494(3) 0.6354(3)
O5 O 0.5503(4) 0.9022(3) 0.7801(3)
O6 O 0.2972(4) 0.6086(3) 0.4197(3)
O7 O 0.0865(3) 0.5466(3) 0.4285(3)
N1 N 0.0771(4) 0.9885(4) 0.8411(3)
N3 N 0.1885(4) 0.7740(4) 0.7213(3)
H3 H 0.0287 0.9987 0.7027
C15 C 0.6479(5) 0.9259(5) 0.7302(4)
H11 H 0.7400 0.9460 0.7783
H12 H 0.6363 0.8510 0.6733
C16 C 0.4201(5) 0.8341(5) 0.7218(4)
C17 C 0.3187(5) 0.8403(5) 0.7684(4)
H13 H 0.3421 0.8934 0.8363
C18 C 0.1575(5) 0.6994(5) 0.6258(4)
H14 H 0.0668 0.6502 0.5922
C19 C 0.2522(5) 0.6913(4) 0.5744(4)
C20 C 0.3853(5) 0.7594(5) 0.6225(4)
H15 H 0.4516 0.7548 0.5878
C21 C 0.2088(5) 0.6088(5) 0.4659(4)
O20 O 0.1316(4) 0.7732(3) 0.9284(3)
O15 O 0.8547(4) 0.8099(3) 0.8615(3)
O18 O 0.8891(3) 0.7593(3) 0.6311(3)
O19 O 0.0689(3) 0.4173(3) 0.2508(2)
O5_2 O 0.4497(4) 0.0978(3) 0.2199(3)
O7_2 O 0.9135(3) 0.4534(3) 0.5715(3)
N1_2 N 0.9229(4) 0.0115(4) 0.1589(3)
N3_2 N 0.8115(4) 0.2260(4) 0.2787(3)
H3_2 H 0.9713 0.0013 0.2973
C15_2 C 0.3521(5) 0.0741(5) 0.2698(4)
H11_2 H 0.2600 0.0540 0.2217
H12_2 H 0.3637 0.1490 0.3267
C16_2 C 0.5799(5) 0.1659(5) 0.2782(4)
C17_2 C 0.6813(5) 0.1597(5) 0.2316(4)
H13_2 H 0.6579 0.1066 0.1637
C18_2 C 0.8425(5) 0.3006(5) 0.3742(4)
H14_2 H 0.9332 0.3498 0.4078
C19_2 C 0.7478(5) 0.3087(4) 0.4256(4)
C20_2 C 0.6147(5) 0.2406(5) 0.3775(4)
H15_2 H 0.5484 0.2452 0.4122
C21_2 C 0.7912(5) 0.3912(5) 0.5341(4)
O1_2 O 0.9465(4) 0.7845(3) 0.2827(3)
O2_2 O 0.7998(4) 0.5893(3) 0.2343(3)
H1_2 H 0.0468 0.4663 0.3002
H2_2 H 0.0194 0.4361 0.1997
O13_2 O 0.3653(4) 0.9750(3) 0.3079(3)
N2_2 N 0.5173(4) 0.5423(4) 0.3297(3)
N4_2 N 0.2745(4) 0.6421(4) 0.2155(3)
C1_2 C 0.9409(6) 0.9536(5) 0.2274(4)
C2_2 C 0.9177(5) 0.8276(5) 0.2020(4)
C3_2 C 0.8679(5) 0.7554(5) 0.0984(4)
H4_2 H 0.8454 0.6678 0.0782
C4_2 C 0.8529(5) 0.8171(5) 0.0271(4)
C5_2 C 0.8813(5) 0.9443(5) 0.0593(4)
H5_2 H 0.8713 0.9858 0.0100
C7_2 C 0.9368(5) 0.6577(5) 0.2634(4)
H6_2 H 0.9767 0.6286 0.2086
H7_2 H 0.9889 0.6442 0.3253
C8_2 C 0.7369(6) 0.5981(5) 0.3082(4)
C9_2 C 0.7973(5) 0.6498(5) 0.4122(4)
H8_2 H 0.8918 0.6891 0.4401
C10_2 C 0.7151(5) 0.6424(4) 0.4745(4)
C11_2 C 0.7715(5) 0.6877(5) 0.5901(4)
C12_2 C 0.5766(5) 0.5878(5) 0.4312(4)
H9_2 H 0.5217 0.5824 0.4746
C13_2 C 0.3211(5) 0.7606(5) 0.2749(4)
H10_2 H 0.3596 0.7775 0.3459
C14_2 C 0.3165(5) 0.8588(5) 0.2391(4)
C22_2 C 0.2576(5) 0.8348(5) 0.1348(4)
H16_2 H 0.2540 0.9003 0.1069
C23_2 C 0.2048(5) 0.7131(4) 0.0737(4)
C25_2 C 0.2136(5) 0.6189(5) 0.1158(4)
H17_2 H 0.1756 0.5357 0.0730
C26_2 C 0.5958(5) 0.5469(5) 0.2702(4)
H18_2 H 0.5547 0.5140 0.1987
O11_2 O 0.0796(4) 0.5722(3) 0.9121(3)
C6_2 C 0.8124(5) 0.7490(5) 0.9141(4)
C24_2 C 0.1335(5) 0.6839(5) 0.9624(4)
loop_
_geom_bond_atom_site_label_1
_geom_bond_atom_site_label_2
_geom_bond_site_symmetry_1
_geom_bond_site_symmetry_2
O3 C6 1_555 1_555
O4 C6 1_555 1_555
O11 C24 1_555 1_555
O12 C24 1_555 1_555
Mn6 O12 1_555 1_555
Mn9 O3 1_555 1_555
Mn2 O10 1_555 1_555
O1 C2 1_555 1_555
O2 C7 1_555 1_555
O8 C11 1_555 1_555
O9 C11 1_555 1_555
O10 H1 1_555 1_555
H2 O10 1_555 1_555
O13 C14 1_555 1_555
N2 Mn2 1_555 1_555
N4 Mn2 1_555 1_555
C2 C1 1_555 1_555
C3 C2 1_555 1_555
H4 C3 1_555 1_555
C4 C3 1_555 1_555
H5 C5 1_555 1_555
C7 O1 1_555 1_555
H6 C7 1_555 1_555
H7 C7 1_555 1_555
C8 O2 1_555 1_555
C9 C8 1_555 1_555
H8 C9 1_555 1_555
C10 C9 1_555 1_555
C11 C10 1_555 1_555
C12 N2 1_555 1_555
H9 C12 1_555 1_555
C13 N4 1_555 1_555
H10 C13 1_555 1_555
C14 C13 1_555 1_555
C22 C14 1_555 1_555
H16 C22 1_555 1_555
C23 C22 1_555 1_555
C25 N4 1_555 1_555
H17 C25 1_555 1_555
C26 N2 1_555 1_555
H18 C26 1_555 1_555
Mn9 O8 1_555 1_555
O14 Mn2 1_555 1_555
O16 Mn2 1_555 1_555
O17 Mn2 1_555 1_555
C4 C5 1_555 1_555
C8 C26 1_555 1_555
C10 C12 1_555 1_555
C23 C25 1_555 1_555
Mn3 N1 1_555 1_555
O5 C15 1_555 1_555
O6 C21 1_555 1_555
O7 C21 1_555 1_555
N3 Mn3 1_555 1_555
H11 C15 1_555 1_555
H12 C15 1_555 1_555
C16 O5 1_555 1_555
C17 N3 1_555 1_555
H13 C17 1_555 1_555
C18 N3 1_555 1_555
H14 C18 1_555 1_555
C19 C18 1_555 1_555
C20 C16 1_555 1_555
H15 C20 1_555 1_555
C21 C19 1_555 1_555
Mn9 O6 1_555 1_555
O20 Mn3 1_555 1_555
C16 C17 1_555 1_555
C19 C20 1_555 1_555
Mn6 N1_2 1_555 1_555
O5_2 C15_2 1_555 1_555
O16 C21_2 1_555 1_555
O7_2 C21_2 1_555 1_555
N3_2 Mn6 1_555 1_555
H11_2 C15_2 1_555 1_555
H12_2 C15_2 1_555 1_555
C16_2 O5_2 1_555 1_555
C17_2 N3_2 1_555 1_555
H13_2 C17_2 1_555 1_555
C18_2 N3_2 1_555 1_555
H14_2 C18_2 1_555 1_555
C19_2 C18_2 1_555 1_555
C20_2 C16_2 1_555 1_555
H15_2 C20_2 1_555 1_555
C21_2 C19_2 1_555 1_555
C16_2 C17_2 1_555 1_555
C19_2 C20_2 1_555 1_555
Mn9 O19 1_555 1_555
O1_2 C2_2 1_555 1_555
O2_2 C7_2 1_555 1_555
O17 C11_2 1_555 1_555
O18 C11_2 1_555 1_555
O19 H1_2 1_555 1_555
H2_2 O19 1_555 1_555
O13_2 C14_2 1_555 1_555
N2_2 Mn9 1_555 1_555
N4_2 Mn9 1_555 1_555
C2_2 C1_2 1_555 1_555
C3_2 C2_2 1_555 1_555
H4_2 C3_2 1_555 1_555
C4_2 C3_2 1_555 1_555
H5_2 C5_2 1_555 1_555
C7_2 O1_2 1_555 1_555
H6_2 C7_2 1_555 1_555
H7_2 C7_2 1_555 1_555
C8_2 O2_2 1_555 1_555
C9_2 C8_2 1_555 1_555
H8_2 C9_2 1_555 1_555
C10_2 C9_2 1_555 1_555
C11_2 C10_2 1_555 1_555
C12_2 N2_2 1_555 1_555
H9_2 C12_2 1_555 1_555
C13_2 N4_2 1_555 1_555
H10_2 C13_2 1_555 1_555
C14_2 C13_2 1_555 1_555
C22_2 C14_2 1_555 1_555
H16_2 C22_2 1_555 1_555
C23_2 C22_2 1_555 1_555
C25_2 N4_2 1_555 1_555
H17_2 C25_2 1_555 1_555
C26_2 N2_2 1_555 1_555
H18_2 C26_2 1_555 1_555
C4_2 C5_2 1_555 1_555
C8_2 C26_2 1_555 1_555
C10_2 C12_2 1_555 1_555
C23_2 C25_2 1_555 1_555
O14 C6_2 1_555 1_555
O15 C6_2 1_555 1_555
O11_2 C24_2 1_555 1_555
O20 C24_2 1_555 1_555

#END
