
###############################################################################
#
# This file contains modified crystal structure data generated from the
# MOF subset of the Cambridge Structural Database (CSD) v543 
# hosted by the Cambridge Crystallographic Data Centre (CCDC).
#
# This work is licensed under the Creative Commons
# Attribution-NonCommercial-ShareAlike 4.0 International License.
# To view a copy of this license, visit
# http://creativecommons.org/licenses/by-nc-sa/4.0/
# or send a letter to
# Creative Commons, PO Box 1866, Mountain View, CA 94042, USA.
#
# CIF created using the CSD Python API on 29 September 2022
# The structure has been converted into the P1 space group
# The structure has a 3D framework
# The original CSD entry FIHRIZ is in the monoclinic crystal system
# The framework has been calculated to contain at least 10.0% void space
# The void calculation uses a probe of radius 1.32A, grid spacing 0.4
#
###############################################################################

data_FIHRIZ
_chemical_formula_moiety         '(C128 H80 N16 Ni10 O56)n'
_symmetry_cell_setting           triclinic
_symmetry_space_group_name_H-M   'P 1'
_symmetry_Int_Tables_number      1
_space_group_name_Hall           'P 1'
loop_
_symmetry_equiv_pos_site_id
_symmetry_equiv_pos_as_xyz
1 x,y,z
_cell_length_a                   18.3877(7)
_cell_length_b                   22.2348(8)
_cell_length_c                   13.2146(5)
_cell_angle_alpha                90
_cell_angle_beta                 93.580(3)
_cell_angle_gamma                90
_cell_volume                     5392.2
loop_
_atom_site_label
_atom_site_type_symbol
_atom_site_fract_x
_atom_site_fract_y
_atom_site_fract_z
N4 N 0.2799(3) 0.7349(3) 0.0965(4)
C23 C 0.3005(4) 0.7835(3) 0.0486(5)
H15 H 0.3358 0.8083 0.0802
C24 C 0.2288(4) 0.7010(3) 0.0476(5)
H16 H 0.2125 0.6664 0.0785
Ni7 Ni 0.30716(5) 0.71772(4) 0.25499(6)
Ni9 Ni 0.7500 0.7500 -0.0000
Ni1 Ni 0.19284(5) 0.78228(4) 0.74501(6)
Ni2 Ni 0.2500 0.7500 0.5000
O1 O 0.3031(3) 0.7821(2) 0.7387(3)
N1 N 0.0774(3) 0.7844(3) 0.7560(4)
O2 O 0.1877(2) 0.6912(2) 0.7283(3)
O3 O 0.3013(3) 0.3746(2) 0.7257(3)
O4 O 0.3379(3) 0.7809(2) 0.5802(4)
O5 O 0.1782(2) 0.7986(2) 0.5882(3)
N2 N 0.2201(3) 0.7651(3) 0.9035(4)
O6 O 0.2487(3) 0.6751(2) 0.5883(4)
O7 O 0.2721(4) 0.4014(3) 0.8819(4)
C1 C 0.1995(4) 0.7165(3) 0.9514(5)
H1 H 0.1642 0.6917 0.9198
C2 C 0.2712(4) 0.7990(3) 0.9524(5)
H2 H 0.2875 0.8336 0.9215
C3 C 0.2739(4) 0.4938(4) 0.6574(6)
H3 H 0.2913 0.4670 0.6106
C4 C 0.3487(4) 0.7822(3) 0.6744(5)
C5 C 0.2222(4) 0.6587(3) 0.6693(5)
C6 C 0.4277(4) 0.7840(3) 0.7139(5)
C7 C 0.2330(4) 0.5936(3) 0.6978(5)
C8 C 0.2801(4) 0.4117(3) 0.7903(5)
C9 C 0.0378(4) 0.8347(4) 0.7526(7)
H4 H 0.0620 0.8715 0.7539
C10 C 0.2593(4) 0.5532(3) 0.6300(5)
H5 H 0.2674 0.5659 0.5646
C11 C 0.2623(4) 0.4751(3) 0.7552(5)
C12 C 0.2179(4) 0.5743(3) 0.7945(6)
H6 H 0.1979 0.6006 0.8398
C13 C 0.2332(5) 0.5151(4) 0.8225(6)
H7 H 0.2239 0.5021 0.8874
C14 C 0.4821(4) 0.7848(4) 0.6465(6)
H8 H 0.4704 0.7851 0.5770
C15 C 0.4453(4) 0.7851(4) 0.8163(6)
H9 H 0.4084 0.7860 0.8613
C16 C 0.0372(4) 0.7341(4) 0.7544(8)
H10 H 0.0612 0.6973 0.7595
O8 O 0.6969(3) 0.7821(2) 0.7613(3)
O9 O 0.6621(3) 0.7809(2) 0.9198(4)
C17 C 0.6513(4) 0.7822(3) 0.8256(5)
C18 C 0.5723(4) 0.7840(3) 0.7861(5)
C19 C 0.5179(4) 0.7848(4) 0.8535(6)
H11 H 0.5296 0.7851 0.9230
C20 C 0.5547(4) 0.7851(4) 0.6837(6)
H12 H 0.5916 0.7860 0.6387
Ni4 Ni 0.80716(5) 0.78228(4) 0.75499(6)
Ni6 Ni 0.30716(5) 0.28228(4) 0.75499(6)
Ni9_2 Ni 0.7500 0.7500 1.0000
O17 O 0.1987(3) 0.8746(2) 0.7743(3)
O18 O 0.1621(3) 0.7191(2) 0.4198(4)
O19 O 0.3218(2) 0.7014(2) 0.4118(3)
O20 O 0.2513(3) 0.8249(2) 0.4117(4)
N3 N 0.9226(3) 0.7844(3) 0.7440(4)
C21 C 0.9622(4) 0.8347(4) 0.7474(7)
H13 H 0.9380 0.8715 0.7461
C22 C 0.9628(4) 0.7341(4) 0.7456(8)
H14 H 0.9388 0.6973 0.7405
O10 O 0.8123(2) 0.6912(2) 0.7717(3)
O11 O 0.6987(3) 0.3746(2) 0.7743(3)
O12 O 0.8218(2) 0.7986(2) 0.9118(3)
O13 O 0.7513(3) 0.6751(2) 0.9117(4)
O14 O 0.7279(4) 0.4014(3) 0.6181(4)
C25 C 0.7261(4) 0.4938(4) 0.8426(6)
H17 H 0.7087 0.4670 0.8894
C26 C 0.7778(4) 0.6587(3) 0.8307(5)
C27 C 0.7670(4) 0.5936(3) 0.8022(5)
C28 C 0.7199(4) 0.4117(3) 0.7097(5)
C29 C 0.7407(4) 0.5532(3) 0.8700(5)
H18 H 0.7326 0.5659 0.9354
C30 C 0.7377(4) 0.4751(3) 0.7448(5)
C31 C 0.7821(4) 0.5743(3) 0.7055(6)
H19 H 0.8021 0.6006 0.6602
C32 C 0.7668(5) 0.5151(4) 0.6775(6)
H20 H 0.7761 0.5021 0.6126
Ni5 Ni 0.69284(5) 0.28228(4) 0.74501(6)
O16 O 0.8013(3) 0.8746(2) 0.7257(3)
N5 N 0.7799(3) 0.7651(3) 0.5965(4)
O18_2 O 0.8379(3) 0.7191(2) 0.0802(4)
O19_2 O 0.6782(2) 0.7014(2) 0.0882(3)
O20_2 O 0.7487(3) 0.8249(2) 0.0883(4)
C1_2 C 0.8005(4) 0.7165(3) 0.5486(5)
H1_2 H 0.8358 0.6917 0.5802
C2_2 C 0.7288(4) 0.7990(3) 0.5476(5)
H2_2 H 0.7125 0.8336 0.5785
N4_2 N 0.7201(3) 0.7349(3) 0.4035(4)
C23_2 C 0.6995(4) 0.7835(3) 0.4514(5)
H15_2 H 0.6642 0.8083 0.4198
C24_2 C 0.7712(4) 0.7010(3) 0.4524(5)
H16_2 H 0.7875 0.6664 0.4215
Ni7_2 Ni 0.69284(5) 0.71772(4) 0.24501(6)
Ni9_3 Ni 0.2500 0.2500 -0.0000
O8_2 O 0.1969(3) 0.2821(2) 0.7613(3)
O9_2 O 0.1621(3) 0.2809(2) 0.9198(4)
C17_2 C 0.1513(4) 0.2822(3) 0.8256(5)
C18_2 C 0.0723(4) 0.2840(3) 0.7861(5)
C19_2 C 0.0179(4) 0.2848(4) 0.8535(6)
H11_2 H 0.0296 0.2851 0.9230
C20_2 C 0.0547(4) 0.2851(4) 0.6837(6)
H12_2 H 0.0916 0.2860 0.6387
Ni9_4 Ni 0.2500 0.2500 1.0000
N4_3 N 0.7799(3) 0.2349(3) 0.0965(4)
C23_3 C 0.8005(4) 0.2835(3) 0.0486(5)
H15_3 H 0.8358 0.3083 0.0802
C24_3 C 0.7288(4) 0.2010(3) 0.0476(5)
H16_3 H 0.7125 0.1664 0.0785
Ni7_3 Ni 0.80716(5) 0.21772(4) 0.25499(6)
Ni2_2 Ni 0.7500 0.2500 0.5000
O1_2 O 0.8031(3) 0.2821(2) 0.7387(3)
N1_2 N 0.5774(3) 0.2844(3) 0.7560(4)
O2_2 O 0.6877(2) 0.1912(2) 0.7283(3)
O4_2 O 0.8379(3) 0.2809(2) 0.5802(4)
O5_2 O 0.6782(2) 0.2986(2) 0.5882(3)
N2_2 N 0.7201(3) 0.2651(3) 0.9035(4)
O6_2 O 0.7487(3) 0.1751(2) 0.5883(4)
C1_3 C 0.6995(4) 0.2165(3) 0.9514(5)
H1_3 H 0.6642 0.1917 0.9198
C2_3 C 0.7712(4) 0.2990(3) 0.9524(5)
H2_3 H 0.7875 0.3336 0.9215
C4_2 C 0.8487(4) 0.2822(3) 0.6744(5)
C5_2 C 0.7222(4) 0.1587(3) 0.6693(5)
C6_2 C 0.9277(4) 0.2840(3) 0.7139(5)
C7_2 C 0.7330(4) 0.0936(3) 0.6978(5)
C9_2 C 0.5378(4) 0.3347(4) 0.7526(7)
H4_2 H 0.5620 0.3715 0.7539
C10_2 C 0.7593(4) 0.0532(3) 0.6300(5)
H5_2 H 0.7674 0.0659 0.5646
C12_2 C 0.7179(4) 0.0743(3) 0.7945(6)
H6_2 H 0.6979 0.1006 0.8398
C13_2 C 0.7332(5) 0.0151(4) 0.8225(6)
H7_2 H 0.7239 0.0021 0.8874
C14_2 C 0.9821(4) 0.2848(4) 0.6465(6)
H8_2 H 0.9704 0.2851 0.5770
C15_2 C 0.9453(4) 0.2851(4) 0.8163(6)
H9_2 H 0.9084 0.2860 0.8613
C16_2 C 0.5372(4) 0.2341(4) 0.7544(8)
H10_2 H 0.5612 0.1973 0.7595
N3_2 N 0.4226(3) 0.2844(3) 0.7440(4)
C21_2 C 0.4622(4) 0.3347(4) 0.7474(7)
H13_2 H 0.4380 0.3715 0.7461
C22_2 C 0.4628(4) 0.2341(4) 0.7456(8)
H14_2 H 0.4388 0.1973 0.7405
O10_2 O 0.3123(2) 0.1912(2) 0.7717(3)
O12_2 O 0.3218(2) 0.2986(2) 0.9118(3)
O13_2 O 0.2513(3) 0.1751(2) 0.9117(4)
C26_2 C 0.2778(4) 0.1587(3) 0.8307(5)
C27_2 C 0.2670(4) 0.0936(3) 0.8022(5)
C29_2 C 0.2407(4) 0.0532(3) 0.8700(5)
H18_2 H 0.2326 0.0659 0.9354
C31_2 C 0.2821(4) 0.0743(3) 0.7055(6)
H19_2 H 0.3021 0.1006 0.6602
C32_2 C 0.2668(5) 0.0151(4) 0.6775(6)
H20_2 H 0.2761 0.0021 0.6126
O18_3 O 0.6621(3) 0.2191(2) 0.4198(4)
O19_3 O 0.8218(2) 0.2014(2) 0.4118(3)
N5_2 N 0.2799(3) 0.2651(3) 0.5965(4)
O20_3 O 0.7513(3) 0.3249(2) 0.4117(4)
O7_2 O 0.7721(4) 0.9014(3) 0.8819(4)
C3_2 C 0.7739(4) 0.9938(4) 0.6574(6)
H3_2 H 0.7913 0.9670 0.6106
C8_2 C 0.7801(4) 0.9117(3) 0.7903(5)
C11_2 C 0.7623(4) 0.9751(3) 0.7552(5)
O14_2 O 0.2279(4) 0.9014(3) 0.6181(4)
C25_2 C 0.2261(4) 0.9938(4) 0.8426(6)
H17_2 H 0.2087 0.9670 0.8894
C28_2 C 0.2199(4) 0.9117(3) 0.7097(5)
C30_2 C 0.2377(4) 0.9751(3) 0.7448(5)
O18_4 O 0.3379(3) 0.2191(2) 0.0802(4)
O19_4 O 0.1782(2) 0.2014(2) 0.0882(3)
O20_4 O 0.2487(3) 0.3249(2) 0.0883(4)
C1_4 C 0.3005(4) 0.2165(3) 0.5486(5)
H1_4 H 0.3358 0.1917 0.5802
C2_4 C 0.2288(4) 0.2990(3) 0.5476(5)
H2_4 H 0.2125 0.3336 0.5785
N4_4 N 0.2201(3) 0.2349(3) 0.4035(4)
C23_4 C 0.1995(4) 0.2835(3) 0.4514(5)
H15_4 H 0.1642 0.3083 0.4198
C24_4 C 0.2712(4) 0.2010(3) 0.4524(5)
H16_4 H 0.2875 0.1664 0.4215
Ni7_4 Ni 0.19284(5) 0.21772(4) 0.24501(6)
N3_3 N 0.0774(3) 0.2156(3) 0.2560(4)
C21_3 C 0.0378(4) 0.1653(4) 0.2526(7)
H13_3 H 0.0620 0.1285 0.2539
C22_3 C 0.0372(4) 0.2659(4) 0.2544(8)
H14_3 H 0.0612 0.3027 0.2595
O10_3 O 0.1877(2) 0.3088(2) 0.2283(3)
O11_2 O 0.3013(3) 0.6254(2) 0.2257(3)
O14_3 O 0.2721(4) 0.5986(3) 0.3819(4)
C25_3 C 0.2739(4) 0.5062(4) 0.1574(6)
H17_3 H 0.2913 0.5330 0.1106
C26_3 C 0.2222(4) 0.3413(3) 0.1693(5)
C27_3 C 0.2330(4) 0.4064(3) 0.1978(5)
C28_3 C 0.2801(4) 0.5883(3) 0.2903(5)
C29_3 C 0.2593(4) 0.4468(3) 0.1300(5)
H18_3 H 0.2674 0.4341 0.0646
C30_3 C 0.2623(4) 0.5249(3) 0.2552(5)
C31_3 C 0.2179(4) 0.4257(3) 0.2945(6)
H19_3 H 0.1979 0.3994 0.3398
C32_3 C 0.2332(5) 0.4849(4) 0.3225(6)
H20_3 H 0.2239 0.4979 0.3874
O15 O 0.3031(3) 0.2179(2) 0.2387(3)
O16_2 O 0.1987(3) 0.1254(2) 0.2743(3)
O1_3 O 0.6969(3) 0.2179(2) 0.2613(3)
N1_3 N 0.9226(3) 0.2156(3) 0.2440(4)
O2_3 O 0.8123(2) 0.3088(2) 0.2717(3)
O3_2 O 0.6987(3) 0.6254(2) 0.2743(3)
O7_3 O 0.7279(4) 0.5986(3) 0.1181(4)
C3_3 C 0.7261(4) 0.5062(4) 0.3426(6)
H3_3 H 0.7087 0.5330 0.3894
C4_3 C 0.6513(4) 0.2178(3) 0.3256(5)
C5_3 C 0.7778(4) 0.3413(3) 0.3307(5)
C6_3 C 0.5723(4) 0.2160(3) 0.2861(5)
C7_3 C 0.7670(4) 0.4064(3) 0.3022(5)
C8_3 C 0.7199(4) 0.5883(3) 0.2097(5)
C9_3 C 0.9622(4) 0.1653(4) 0.2474(7)
H4_3 H 0.9380 0.1285 0.2461
C10_3 C 0.7407(4) 0.4468(3) 0.3700(5)
H5_3 H 0.7326 0.4341 0.4354
C11_3 C 0.7377(4) 0.5249(3) 0.2448(5)
C12_3 C 0.7821(4) 0.4257(3) 0.2055(6)
H6_3 H 0.8021 0.3994 0.1602
C13_3 C 0.7668(5) 0.4849(4) 0.1775(6)
H7_3 H 0.7761 0.4979 0.1126
C14_3 C 0.5179(4) 0.2152(4) 0.3535(6)
H8_3 H 0.5296 0.2149 0.4230
C15_3 C 0.5547(4) 0.2149(4) 0.1837(6)
H9_3 H 0.5916 0.2140 0.1387
C16_3 C 0.9628(4) 0.2659(4) 0.2456(8)
H10_3 H 0.9388 0.3027 0.2405
C17_3 C 0.3487(4) 0.2178(3) 0.1744(5)
C18_3 C 0.4277(4) 0.2160(3) 0.2139(5)
C19_3 C 0.4821(4) 0.2152(4) 0.1465(6)
H11_3 H 0.4704 0.2149 0.0770
C20_3 C 0.4453(4) 0.2149(4) 0.3163(6)
H12_3 H 0.4084 0.2140 0.3613
O17_2 O 0.8013(3) 0.1254(2) 0.2257(3)
O7_4 O 0.2279(4) 0.0986(3) 0.1181(4)
C3_4 C 0.2261(4) 0.0062(4) 0.3426(6)
H3_4 H 0.2087 0.0330 0.3894
C8_4 C 0.2199(4) 0.0883(3) 0.2097(5)
C11_4 C 0.2377(4) 0.0249(3) 0.2448(5)
O14_4 O 0.7721(4) 0.0986(3) 0.3819(4)
C25_4 C 0.7739(4) 0.0062(4) 0.1574(6)
H17_4 H 0.7913 0.0330 0.1106
C28_4 C 0.7801(4) 0.0883(3) 0.2903(5)
C30_4 C 0.7623(4) 0.0249(3) 0.2552(5)
O1_4 O 0.1969(3) 0.7179(2) 0.2613(3)
N1_4 N 0.4226(3) 0.7156(3) 0.2440(4)
O2_4 O 0.3123(2) 0.8088(2) 0.2717(3)
C4_4 C 0.1513(4) 0.7178(3) 0.3256(5)
C5_4 C 0.2778(4) 0.8413(3) 0.3307(5)
C6_4 C 0.0723(4) 0.7160(3) 0.2861(5)
C7_4 C 0.2670(4) 0.9064(3) 0.3022(5)
C9_4 C 0.4622(4) 0.6653(4) 0.2474(7)
H4_4 H 0.4380 0.6285 0.2461
C10_4 C 0.2407(4) 0.9468(3) 0.3700(5)
H5_4 H 0.2326 0.9341 0.4354
C12_4 C 0.2821(4) 0.9257(3) 0.2055(6)
H6_4 H 0.3021 0.8994 0.1602
C13_4 C 0.2668(5) 0.9849(4) 0.1775(6)
H7_4 H 0.2761 0.9979 0.1126
C14_4 C 0.0179(4) 0.7152(4) 0.3535(6)
H8_4 H 0.0296 0.7149 0.4230
C15_4 C 0.0547(4) 0.7149(4) 0.1837(6)
H9_4 H 0.0916 0.7140 0.1387
C16_4 C 0.4628(4) 0.7659(4) 0.2456(8)
H10_4 H 0.4388 0.8027 0.2405
N3_4 N 0.5774(3) 0.7156(3) 0.2560(4)
C21_4 C 0.5378(4) 0.6653(4) 0.2526(7)
H13_4 H 0.5620 0.6285 0.2539
C22_4 C 0.5372(4) 0.7659(4) 0.2544(8)
H14_4 H 0.5612 0.8027 0.2595
O10_4 O 0.6877(2) 0.8088(2) 0.2283(3)
C26_4 C 0.7222(4) 0.8413(3) 0.1693(5)
C27_4 C 0.7330(4) 0.9064(3) 0.1978(5)
C29_4 C 0.7593(4) 0.9468(3) 0.1300(5)
H18_4 H 0.7674 0.9341 0.0646
C31_4 C 0.7179(4) 0.9257(3) 0.2945(6)
H19_4 H 0.6979 0.8994 0.3398
C32_4 C 0.7332(5) 0.9849(4) 0.3225(6)
H20_4 H 0.7239 0.9979 0.3874
O15_2 O 0.8031(3) 0.7179(2) 0.2387(3)
C17_4 C 0.8487(4) 0.7178(3) 0.1744(5)
C18_4 C 0.9277(4) 0.7160(3) 0.2139(5)
C19_4 C 0.9821(4) 0.7152(4) 0.1465(6)
H11_4 H 0.9704 0.7149 0.0770
C20_4 C 0.9453(4) 0.7149(4) 0.3163(6)
H12_4 H 0.9084 0.7140 0.3613
loop_
_geom_bond_atom_site_label_1
_geom_bond_atom_site_label_2
_geom_bond_site_symmetry_1
_geom_bond_site_symmetry_2
N4 C23 1_555 1_555
H15 C23 1_555 1_555
H16 C24 1_555 1_555
Ni7 N4 1_555 1_555
N4 C24 1_555 1_555
Ni1 O1 1_555 1_555
Ni2 O4 1_555 1_555
O1 C4 1_555 1_555
N1 Ni1 1_555 1_555
O2 Ni1 1_555 1_555
O3 C8 1_555 1_555
O4 C4 1_555 1_555
O5 Ni1 1_555 1_555
N2 Ni1 1_555 1_555
O6 Ni2 1_555 1_555
O7 C8 1_555 1_555
C1 N2 1_555 1_555
H1 C1 1_555 1_555
C2 N2 1_555 1_555
H2 C2 1_555 1_555
C3 H3 1_555 1_555
C4 C6 1_555 1_555
C5 O2 1_555 1_555
C6 C14 1_555 1_555
C7 C5 1_555 1_555
C8 C11 1_555 1_555
C9 N1 1_555 1_555
H4 C9 1_555 1_555
C10 C3 1_555 1_555
H5 C10 1_555 1_555
C11 C3 1_555 1_555
C12 C7 1_555 1_555
H6 C12 1_555 1_555
C13 C11 1_555 1_555
H7 C13 1_555 1_555
C14 H8 1_555 1_555
C15 C6 1_555 1_555
H9 C15 1_555 1_555
C16 N1 1_555 1_555
H10 C16 1_555 1_555
O8 C17 1_555 1_555
O9 C17 1_555 1_555
C17 C18 1_555 1_555
C18 C19 1_555 1_555
C19 C15 1_555 1_555
H11 C19 1_555 1_555
C20 C14 1_555 1_555
H12 C20 1_555 1_555
Ni4 O8 1_555 1_555
Ni6 O3 1_555 1_555
Ni9_2 O9 1_555 1_555
O17 Ni1 1_555 1_555
O18 Ni2 1_555 1_555
O19 Ni2 1_555 1_555
O20 Ni2 1_555 1_555
Ni2 O5 1_555 1_555
O6 C5 1_555 1_555
C7 C10 1_555 1_555
C12 C13 1_555 1_555
C18 C20 1_555 1_555
N3 C21 1_555 1_555
H13 C21 1_555 1_555
H14 C22 1_555 1_555
Ni4 N3 1_555 1_555
O10 Ni4 1_555 1_555
O11 C28 1_555 1_555
O12 Ni4 1_555 1_555
O13 C26 1_555 1_555
O14 C28 1_555 1_555
C25 H17 1_555 1_555
C26 O10 1_555 1_555
C27 C26 1_555 1_555
C28 C30 1_555 1_555
C29 C25 1_555 1_555
H18 C29 1_555 1_555
C30 C25 1_555 1_555
C31 C27 1_555 1_555
H19 C31 1_555 1_555
C32 C30 1_555 1_555
H20 C32 1_555 1_555
Ni5 O11 1_555 1_555
Ni9_2 O12 1_555 1_555
O16 Ni4 1_555 1_555
N5 Ni4 1_555 1_555
N3 C22 1_555 1_555
O13 Ni9_2 1_555 1_555
C27 C29 1_555 1_555
C31 C32 1_555 1_555
O18_2 Ni9 1_555 1_555
O19_2 Ni9 1_555 1_555
O20_2 Ni9 1_555 1_555
C1_2 N5 1_555 1_555
H1_2 C1_2 1_555 1_555
C2_2 N5 1_555 1_555
H2_2 C2_2 1_555 1_555
N4_2 C23_2 1_555 1_555
C23_2 C2_2 1_555 1_555
H15_2 C23_2 1_555 1_555
C24_2 C1_2 1_555 1_555
H16_2 C24_2 1_555 1_555
Ni7_2 N4_2 1_555 1_555
N4_2 C24_2 1_555 1_555
O8_2 C17_2 1_555 1_555
O9_2 C17_2 1_555 1_555
C17_2 C18_2 1_555 1_555
C18_2 C19_2 1_555 1_555
H11_2 C19_2 1_555 1_555
H12_2 C20_2 1_555 1_555
Ni6 O8_2 1_555 1_555
Ni9_4 O9_2 1_555 1_555
C18_2 C20_2 1_555 1_555
N4_3 C23_3 1_555 1_555
H15_3 C23_3 1_555 1_555
H16_3 C24_3 1_555 1_555
Ni7_3 N4_3 1_555 1_555
N4_3 C24_3 1_555 1_555
Ni5 O1_2 1_555 1_555
Ni2_2 O4_2 1_555 1_555
O1_2 C4_2 1_555 1_555
N1_2 Ni5 1_555 1_555
O2_2 Ni5 1_555 1_555
O4_2 C4_2 1_555 1_555
O5_2 Ni5 1_555 1_555
N2_2 Ni5 1_555 1_555
O6_2 Ni2_2 1_555 1_555
C1_3 N2_2 1_555 1_555
H1_3 C1_3 1_555 1_555
C2_3 N2_2 1_555 1_555
H2_3 C2_3 1_555 1_555
C4_2 C6_2 1_555 1_555
C5_2 O2_2 1_555 1_555
C6_2 C14_2 1_555 1_555
C7_2 C5_2 1_555 1_555
C9_2 N1_2 1_555 1_555
H4_2 C9_2 1_555 1_555
H5_2 C10_2 1_555 1_555
C12_2 C7_2 1_555 1_555
H6_2 C12_2 1_555 1_555
H7_2 C13_2 1_555 1_555
C14_2 H8_2 1_555 1_555
C15_2 C6_2 1_555 1_555
H9_2 C15_2 1_555 1_555
C16_2 N1_2 1_555 1_555
H10_2 C16_2 1_555 1_555
N3_2 C21_2 1_555 1_555
C21_2 C9_2 1_555 1_555
H13_2 C21_2 1_555 1_555
C22_2 C16_2 1_555 1_555
H14_2 C22_2 1_555 1_555
Ni6 N3_2 1_555 1_555
O10_2 Ni6 1_555 1_555
O12_2 Ni6 1_555 1_555
O13_2 C26_2 1_555 1_555
C26_2 O10_2 1_555 1_555
C27_2 C26_2 1_555 1_555
H18_2 C29_2 1_555 1_555
C31_2 C27_2 1_555 1_555
H19_2 C31_2 1_555 1_555
H20_2 C32_2 1_555 1_555
Ni9_4 O12_2 1_555 1_555
O18_3 Ni2_2 1_555 1_555
O19_3 Ni2_2 1_555 1_555
N5_2 Ni6 1_555 1_555
O20_3 Ni2_2 1_555 1_555
Ni2_2 O5_2 1_555 1_555
O6_2 C5_2 1_555 1_555
C7_2 C10_2 1_555 1_555
C12_2 C13_2 1_555 1_555
N3_2 C22_2 1_555 1_555
O13_2 Ni9_4 1_555 1_555
C27_2 C29_2 1_555 1_555
C31_2 C32_2 1_555 1_555
O16 C8_2 1_555 1_555
O7_2 C8_2 1_555 1_555
C3_2 H3_2 1_555 1_555
C8_2 C11_2 1_555 1_555
C11_2 C3_2 1_555 1_555
O17 C28_2 1_555 1_555
O14_2 C28_2 1_555 1_555
C25_2 H17_2 1_555 1_555
C28_2 C30_2 1_555 1_555
C30_2 C25_2 1_555 1_555
O18_4 Ni9_3 1_555 1_555
O19_4 Ni9_3 1_555 1_555
O20_4 Ni9_3 1_555 1_555
C1_4 N5_2 1_555 1_555
H1_4 C1_4 1_555 1_555
C2_4 N5_2 1_555 1_555
H2_4 C2_4 1_555 1_555
N4_4 C23_4 1_555 1_555
C23_4 C2_4 1_555 1_555
H15_4 C23_4 1_555 1_555
C24_4 C1_4 1_555 1_555
H16_4 C24_4 1_555 1_555
Ni7_4 N4_4 1_555 1_555
N4_4 C24_4 1_555 1_555
N3_3 C21_3 1_555 1_555
H13_3 C21_3 1_555 1_555
H14_3 C22_3 1_555 1_555
Ni7_4 N3_3 1_555 1_555
O10_3 Ni7_4 1_555 1_555
O11_2 C28_3 1_555 1_555
O19_4 Ni7_4 1_555 1_555
O20_4 C26_3 1_555 1_555
O14_3 C28_3 1_555 1_555
C25_3 H17_3 1_555 1_555
C26_3 O10_3 1_555 1_555
C27_3 C26_3 1_555 1_555
C28_3 C30_3 1_555 1_555
C29_3 C25_3 1_555 1_555
H18_3 C29_3 1_555 1_555
C30_3 C25_3 1_555 1_555
C31_3 C27_3 1_555 1_555
H19_3 C31_3 1_555 1_555
C32_3 C30_3 1_555 1_555
H20_3 C32_3 1_555 1_555
Ni7 O11_2 1_555 1_555
O15 Ni7_4 1_555 1_555
O16_2 Ni7_4 1_555 1_555
N3_3 C22_3 1_555 1_555
C27_3 C29_3 1_555 1_555
C31_3 C32_3 1_555 1_555
Ni7_3 O1_3 1_555 1_555
O1_3 C4_3 1_555 1_555
N1_3 Ni7_3 1_555 1_555
O2_3 Ni7_3 1_555 1_555
O3_2 C8_3 1_555 1_555
O18_3 C4_3 1_555 1_555
O19_3 Ni7_3 1_555 1_555
O7_3 C8_3 1_555 1_555
C3_3 H3_3 1_555 1_555
C4_3 C6_3 1_555 1_555
C5_3 O2_3 1_555 1_555
C6_3 C14_3 1_555 1_555
C7_3 C5_3 1_555 1_555
C8_3 C11_3 1_555 1_555
C9_3 N1_3 1_555 1_555
H4_3 C9_3 1_555 1_555
C10_3 C3_3 1_555 1_555
H5_3 C10_3 1_555 1_555
C11_3 C3_3 1_555 1_555
C12_3 C7_3 1_555 1_555
H6_3 C12_3 1_555 1_555
C13_3 C11_3 1_555 1_555
H7_3 C13_3 1_555 1_555
C14_3 H8_3 1_555 1_555
C15_3 C6_3 1_555 1_555
H9_3 C15_3 1_555 1_555
C16_3 N1_3 1_555 1_555
H10_3 C16_3 1_555 1_555
O15 C17_3 1_555 1_555
O18_4 C17_3 1_555 1_555
C17_3 C18_3 1_555 1_555
C18_3 C19_3 1_555 1_555
C19_3 C15_3 1_555 1_555
H11_3 C19_3 1_555 1_555
C20_3 C14_3 1_555 1_555
H12_3 C20_3 1_555 1_555
Ni7_2 O3_2 1_555 1_555
O17_2 Ni7_3 1_555 1_555
O20_3 C5_3 1_555 1_555
C7_3 C10_3 1_555 1_555
C12_3 C13_3 1_555 1_555
C18_3 C20_3 1_555 1_555
O16_2 C8_4 1_555 1_555
O7_4 C8_4 1_555 1_555
C3_4 H3_4 1_555 1_555
C8_4 C11_4 1_555 1_555
C11_4 C3_4 1_555 1_555
O17_2 C28_4 1_555 1_555
O14_4 C28_4 1_555 1_555
C25_4 H17_4 1_555 1_555
C28_4 C30_4 1_555 1_555
C30_4 C25_4 1_555 1_555
Ni7 O1_4 1_555 1_555
O1_4 C4_4 1_555 1_555
N1_4 Ni7 1_555 1_555
O2_4 Ni7 1_555 1_555
O18 C4_4 1_555 1_555
O19 Ni7 1_555 1_555
C4_4 C6_4 1_555 1_555
C5_4 O2_4 1_555 1_555
C6_4 C14_4 1_555 1_555
C7_4 C5_4 1_555 1_555
C9_4 N1_4 1_555 1_555
H4_4 C9_4 1_555 1_555
H5_4 C10_4 1_555 1_555
C12_4 C7_4 1_555 1_555
H6_4 C12_4 1_555 1_555
H7_4 C13_4 1_555 1_555
C14_4 H8_4 1_555 1_555
C15_4 C6_4 1_555 1_555
H9_4 C15_4 1_555 1_555
C16_4 N1_4 1_555 1_555
H10_4 C16_4 1_555 1_555
N3_4 C21_4 1_555 1_555
C21_4 C9_4 1_555 1_555
H13_4 C21_4 1_555 1_555
C22_4 C16_4 1_555 1_555
H14_4 C22_4 1_555 1_555
Ni7_2 N3_4 1_555 1_555
O10_4 Ni7_2 1_555 1_555
O19_2 Ni7_2 1_555 1_555
O20_2 C26_4 1_555 1_555
C26_4 O10_4 1_555 1_555
C27_4 C26_4 1_555 1_555
H18_4 C29_4 1_555 1_555
C31_4 C27_4 1_555 1_555
H19_4 C31_4 1_555 1_555
H20_4 C32_4 1_555 1_555
O15_2 Ni7_2 1_555 1_555
O20 C5_4 1_555 1_555
C7_4 C10_4 1_555 1_555
C12_4 C13_4 1_555 1_555
N3_4 C22_4 1_555 1_555
C27_4 C29_4 1_555 1_555
C31_4 C32_4 1_555 1_555
O15_2 C17_4 1_555 1_555
O18_2 C17_4 1_555 1_555
C17_4 C18_4 1_555 1_555
C18_4 C19_4 1_555 1_555
H11_4 C19_4 1_555 1_555
H12_4 C20_4 1_555 1_555
C18_4 C20_4 1_555 1_555

#END
