
###############################################################################
#
# This file contains modified crystal structure data generated from the
# MOF subset of the Cambridge Structural Database (CSD) v543 
# hosted by the Cambridge Crystallographic Data Centre (CCDC).
#
# This work is licensed under the Creative Commons
# Attribution-NonCommercial-ShareAlike 4.0 International License.
# To view a copy of this license, visit
# http://creativecommons.org/licenses/by-nc-sa/4.0/
# or send a letter to
# Creative Commons, PO Box 1866, Mountain View, CA 94042, USA.
#
# CIF created using the CSD Python API on 29 September 2022
# The structure has been converted into the P1 space group
# The structure has a 3D framework
# The original CSD entry FIJCUX01 is in the monoclinic crystal system
# The framework has been calculated to contain at least 10.0% void space
# The void calculation uses a probe of radius 1.32A, grid spacing 0.4
#
###############################################################################

data_FIJCUX01
_chemical_formula_moiety         '(C96 H60 O60 Zn20)n'
_symmetry_cell_setting           triclinic
_symmetry_space_group_name_H-M   'P 1'
_symmetry_Int_Tables_number      1
_space_group_name_Hall           'P 1'
loop_
_symmetry_equiv_pos_site_id
_symmetry_equiv_pos_as_xyz
1 x,y,z
_cell_length_a                   17.7374(3)
_cell_length_b                   15.2605(2)
_cell_length_c                   18.2635(2)
_cell_angle_alpha                90.00
_cell_angle_beta                 113.0710(10)
_cell_angle_gamma                90.00
_cell_volume                     4548.2
loop_
_atom_site_label
_atom_site_type_symbol
_atom_site_fract_x
_atom_site_fract_y
_atom_site_fract_z
Zn10 Zn 0.00025(3) 0.00460(3) 0.33424(3)
Zn17 Zn 0.00227(3) 0.09603(3) 0.50479(2)
Zn1 Zn 0.0000 0.0000 0.0000
O9 O 0.0653(2) 0.1203(2) 0.01086(17)
O13 O 0.44257(19) 0.3793(2) 0.15361(17)
O15 O 0.4149(2) 0.33845(19) 0.25765(17)
C17 C 0.4004(3) 0.3408(3) 0.1835(2)
C18 C 0.3242(3) 0.2929(3) 0.1305(2)
C19 C 0.3013(3) 0.2941(3) 0.0486(2)
H12 H 0.3335 0.3228 0.0264
C20 C 0.2299(3) 0.2519(3) 0.0002(2)
C21 C 0.1815(3) 0.2078(3) 0.0322(2)
C23 C 0.2055(3) 0.2063(3) 0.1146(2)
H14 H 0.1738 0.1767 0.1369
C24 C 0.2761(3) 0.2486(3) 0.1632(2)
H15 H 0.2917 0.2475 0.2181
Zn8 Zn 0.49975(3) 0.50460(3) 0.16576(3)
Zn12 Zn 0.00199(3) 0.09639(3) 0.16618(3)
Zn22 Zn 0.50195(3) 0.40684(3) 0.33286(3)
O25 O 0.08335(19) 0.16965(18) 0.24219(16)
Zn1_2 Zn 0.0000 0.0000 1.0000
Zn5 Zn 0.00195(3) 0.09316(3) 0.83286(3)
O14 O 0.0906(2) 0.1615(2) 0.90570(17)
H13 H 0.2141 0.2532 0.9453
C22 C 0.1063(3) 0.1589(3) 0.9802(2)
Zn1_3 Zn -0.0000 1.0000 0.0000
Zn4 Zn 0.50227(3) 0.40397(3) 0.00479(2)
O1 O 0.54713(18) 0.50353(15) 0.28869(16)
H1 H 0.6072 0.5049 0.3119
O2 O 0.45240(17) 0.50181(15) 0.04332(15)
H2 H 0.3924 0.5001 0.0201
O4 O 0.41665(19) 0.66965(18) 0.25781(16)
O6 O 0.92418(18) 0.17647(18) 0.43194(16)
O7 O 0.61177(17) 0.44616(19) 0.17461(16)
O8 O 0.39168(17) 0.56771(19) 0.16347(16)
O10 O 0.59158(19) 0.34126(18) 0.08386(16)
O11 O 0.10419(18) 0.93072(19) 0.00363(17)
O12 O 0.94692(19) 0.12935(19) 0.32705(17)
C1 C 0.9095(3) 0.1751(3) 0.3578(2)
C2 C 0.8424(3) 0.2337(3) 0.3048(2)
C3 C 0.8090(3) 0.2179(3) 0.2233(2)
H4 H 0.8323 0.1756 0.2020
C4 C 0.7417(3) 0.2641(3) 0.1739(2)
H5 H 0.7191 0.2518 0.1197
C5 C 0.7071(3) 0.3292(3) 0.2044(2)
C6 C 0.6312(3) 0.3761(3) 0.1511(2)
C7 C 0.7427(3) 0.3485(3) 0.2851(2)
H6 H 0.7219 0.3938 0.3057
C8 C 0.8094(3) 0.3000(3) 0.3351(2)
H7 H 0.8321 0.3121 0.3894
C10 C 0.1843(3) 0.8015(3) 0.0327(2)
C11 C 0.2297(3) 0.8278(3) 0.1109(2)
H8 H 0.2175 0.8805 0.1294
C12 C 0.2929(3) 0.7758(3) 0.1609(2)
H9 H 0.3234 0.7937 0.2129
C13 C 0.3107(3) 0.6966(3) 0.1334(2)
C14 C 0.3786(3) 0.6400(3) 0.1881(2)
C15 C 0.2669(3) 0.6705(3) 0.0556(2)
H10 H 0.2799 0.6183 0.0369
C16 C 0.2033(3) 0.7229(3) 0.0054(2)
Zn13 Zn 0.49801(3) 0.59639(3) 0.33382(3)
Zn18 Zn 0.99773(3) 0.90397(3) 0.49521(2)
O22 O 0.04698(18) 0.99870(15) 0.12214(15)
H22 H 0.1070 0.9972 0.1454
O27 O 0.57582(18) 0.67647(18) 0.06806(16)
O30 O 0.88823(17) 0.94616(19) 0.32539(16)
O34 O 0.90842(19) 0.84126(18) 0.41614(16)
O37 O 0.55308(19) 0.62935(19) 0.17295(17)
O45 O 0.0851(2) 0.83845(19) 0.24235(17)
C25 C 0.5905(3) 0.6751(3) 0.1422(2)
C26 C 0.6576(3) 0.7337(3) 0.1952(2)
C27 C 0.6910(3) 0.7179(3) 0.2767(2)
H23 H 0.6677 0.6756 0.2980
C28 C 0.7583(3) 0.7641(3) 0.3261(2)
H24 H 0.7809 0.7518 0.3803
C29 C 0.7929(3) 0.8292(3) 0.2956(2)
C30 C 0.8688(3) 0.8761(3) 0.3489(2)
C31 C 0.7573(3) 0.8485(3) 0.2149(2)
H25 H 0.7781 0.8938 0.1943
C32 C 0.6906(3) 0.8000(3) 0.1649(2)
H26 H 0.6679 0.8121 0.1106
Zn1_4 Zn 0.0000 1.0000 1.0000
O5 O 0.07673(19) 0.82774(19) 0.91003(17)
C9 C 0.1166(3) 0.8583(3) 0.9788(2)
H11 H 0.1733 0.7052 0.9533
Zn16 Zn 0.49773(3) 0.59603(3) 0.99521(2)
O16 O 0.04713(18) 0.99647(15) 0.78869(16)
H16 H 0.1072 0.9951 0.8119
O20 O 0.54760(17) 0.49819(15) 0.95668(15)
H20 H 0.6076 0.4999 0.9799
O28 O 0.42418(18) 0.32353(18) 0.93194(16)
Zn1_5 Zn 1.0000 0.0000 0.0000
O18 O 0.95287(18) 0.00353(15) 0.21131(16)
H18 H 0.8928 0.0049 0.1881
O26 O 0.92327(19) 0.17226(19) 0.08997(17)
C33 C 0.8834(3) 0.1417(3) 0.0212(2)
H30 H 0.8267 0.2948 0.0467
Zn1_6 Zn 1.0000 0.0000 1.0000
O3 O 0.95302(18) 0.00130(15) 0.87786(15)
H3 H 0.8930 0.0028 0.8546
Zn6 Zn 0.50025(3) 0.49540(3) 0.83424(3)
Zn14 Zn 0.50199(3) 0.40361(3) 0.66618(3)
O17 O 0.45287(18) 0.49647(15) 0.71131(16)
H17 H 0.3928 0.4951 0.6881
O23 O 0.58335(19) 0.33035(18) 0.74219(16)
O31 O 0.38823(17) 0.55384(19) 0.82539(16)
O32 O 0.60832(17) 0.43229(19) 0.83653(16)
O35 O 0.40842(19) 0.65874(18) 0.91614(16)
O36 O 0.89581(18) 0.06928(19) 0.99637(17)
O38 O 0.44692(19) 0.37065(19) 0.82705(17)
O41 O 0.55743(19) 0.6207(2) 0.84639(17)
O44 O 0.9149(2) 0.16155(19) 0.75765(17)
C34 C 0.8157(3) 0.1985(3) 0.9673(2)
C35 C 0.7703(3) 0.1722(3) 0.8891(2)
H27 H 0.7825 0.1195 0.8706
C36 C 0.7071(3) 0.2242(3) 0.8391(2)
H28 H 0.6766 0.2063 0.7871
C37 C 0.6893(3) 0.3034(3) 0.8666(2)
C38 C 0.6214(3) 0.3600(3) 0.8119(2)
C39 C 0.7331(3) 0.3295(3) 0.9444(2)
H29 H 0.7201 0.3817 0.9631
C40 C 0.7967(3) 0.2771(3) 0.9946(2)
Zn1_7 Zn 1.0000 1.0000 0.0000
Zn20 Zn 0.99805(3) 0.90684(3) 0.16714(3)
O42 O 0.9094(2) 0.8385(2) 0.09430(17)
H32 H 0.7859 0.7468 0.0547
C46 C 0.8937(3) 0.8411(3) 0.0198(2)
Zn1_8 Zn 1.0000 1.0000 1.0000
Zn3 Zn 0.99801(3) 0.90361(3) 0.83382(3)
Zn11 Zn 0.99975(3) 0.99540(3) 0.66576(3)
Zn23 Zn 0.49805(3) 0.59316(3) 0.66714(3)
O24 O 0.91665(19) 0.83035(18) 0.75781(16)
O33 O 0.9347(2) 0.8797(2) 0.98914(17)
O43 O 0.5851(2) 0.66155(19) 0.74235(17)
C41 C 0.5996(3) 0.6592(3) 0.8165(2)
C42 C 0.6758(3) 0.7071(3) 0.8695(2)
C43 C 0.6987(3) 0.7059(3) 0.9514(2)
H31 H 0.6665 0.6772 0.9736
C44 C 0.7701(3) 0.7481(3) 0.9998(2)
C45 C 0.8185(3) 0.7922(3) 0.9678(2)
C47 C 0.7945(3) 0.7937(3) 0.8854(2)
H33 H 0.8262 0.8233 0.8631
C48 C 0.7239(3) 0.7514(3) 0.8368(2)
H34 H 0.7083 0.7525 0.7819
O21 O 0.04760(17) 0.00181(15) 0.45668(15)
H21 H 0.1076 0.0001 0.4799
O31_2 O 0.11177(17) 0.05384(19) 0.67461(16)
O35_2 O 0.09158(19) 0.15874(18) 0.58386(16)
O38_2 O 0.05308(19) 0.87065(19) 0.67295(17)
O41_2 O 0.94257(19) 0.1207(2) 0.65361(17)
Zn1_9 Zn 0.5000 0.5000 0.5000
O3_2 O 0.54698(18) 0.50130(15) 0.62214(15)
H3_2 H 0.6070 0.5028 0.6454
O5_2 O 0.42327(19) 0.32774(19) 0.58997(17)
O8_2 O 0.10832(17) 0.06771(19) 0.33653(16)
O9_2 O 0.4347(2) 0.6203(2) 0.48914(17)
O11_2 O 0.39581(18) 0.43072(19) 0.49637(17)
O13_2 O 0.05743(19) 0.8793(2) 0.34639(17)
O14_2 O 0.4094(2) 0.6615(2) 0.59430(17)
C9_2 C 0.3834(3) 0.3583(3) 0.5212(2)
C10_2 C 0.3157(3) 0.3015(3) 0.4673(2)
C11_2 C 0.2703(3) 0.3278(3) 0.3891(2)
H8_2 H 0.2825 0.3805 0.3706
C12_2 C 0.2071(3) 0.2758(3) 0.3391(2)
H9_2 H 0.1766 0.2937 0.2871
C13_2 C 0.1893(3) 0.1966(3) 0.3666(2)
C14_2 C 0.1214(3) 0.1400(3) 0.3119(2)
C15_2 C 0.2331(3) 0.1705(3) 0.4444(2)
H10_2 H 0.2201 0.1183 0.4631
C16_2 C 0.2967(3) 0.2229(3) 0.4946(2)
H11_2 H 0.3267 0.2052 0.5467
C17_2 C 0.0996(3) 0.8408(3) 0.3165(2)
C18_2 C 0.1758(3) 0.7929(3) 0.3695(2)
C19_2 C 0.1987(3) 0.7941(3) 0.4514(2)
H12_2 H 0.1665 0.8228 0.4736
C20_2 C 0.2701(3) 0.7519(3) 0.4998(2)
H13_2 H 0.2859 0.7532 0.5547
C21_2 C 0.3185(3) 0.7078(3) 0.4678(2)
C22_2 C 0.3937(3) 0.6589(3) 0.5198(2)
C23_2 C 0.2945(3) 0.7063(3) 0.3854(2)
H14_2 H 0.3262 0.6767 0.3631
C24_2 C 0.2239(3) 0.7486(3) 0.3368(2)
H15_2 H 0.2083 0.7475 0.2819
O19 O 0.95240(17) 0.99819(15) 0.54332(15)
H19 H 0.8924 0.9999 0.5201
O22_2 O 0.45302(18) 0.49870(15) 0.37786(15)
H22_2 H 0.3930 0.4972 0.3546
O26_2 O 0.57673(19) 0.67226(19) 0.41003(17)
O32_2 O 0.89168(17) 0.93229(19) 0.66347(16)
O33_2 O 0.5653(2) 0.3797(2) 0.51086(17)
O36_2 O 0.60419(18) 0.56928(19) 0.50363(17)
O42_2 O 0.5906(2) 0.3385(2) 0.40570(17)
C33_2 C 0.6166(3) 0.6417(3) 0.4788(2)
C34_2 C 0.6843(3) 0.6985(3) 0.5327(2)
C35_2 C 0.7297(3) 0.6722(3) 0.6109(2)
H27_2 H 0.7175 0.6195 0.6294
C36_2 C 0.7929(3) 0.7242(3) 0.6609(2)
H28_2 H 0.8234 0.7063 0.7129
C37_2 C 0.8107(3) 0.8034(3) 0.6334(2)
C38_2 C 0.8786(3) 0.8600(3) 0.6881(2)
C39_2 C 0.7669(3) 0.8295(3) 0.5556(2)
H29_2 H 0.7799 0.8817 0.5369
C40_2 C 0.7033(3) 0.7771(3) 0.5054(2)
H30_2 H 0.6733 0.7948 0.4533
C41_2 C 0.9004(3) 0.1592(3) 0.6835(2)
C42_2 C 0.8242(3) 0.2071(3) 0.6305(2)
C43_2 C 0.8013(3) 0.2059(3) 0.5486(2)
H31_2 H 0.8335 0.1772 0.5264
C44_2 C 0.7299(3) 0.2481(3) 0.5002(2)
H32_2 H 0.7141 0.2468 0.4453
C45_2 C 0.6815(3) 0.2922(3) 0.5322(2)
C46_2 C 0.6063(3) 0.3411(3) 0.4802(2)
C47_2 C 0.7055(3) 0.2937(3) 0.6146(2)
H33_2 H 0.6738 0.3233 0.6369
C48_2 C 0.7761(3) 0.2514(3) 0.6632(2)
H34_2 H 0.7917 0.2525 0.7181
O28_2 O 0.07582(18) 0.82353(18) 0.56806(16)
C1_2 C 0.0905(3) 0.8249(3) 0.6422(2)
C2_2 C 0.1576(3) 0.7663(3) 0.6952(2)
C3_2 C 0.1910(3) 0.7821(3) 0.7767(2)
H4_2 H 0.1677 0.8244 0.7980
C4_2 C 0.2583(3) 0.7359(3) 0.8261(2)
H5_2 H 0.2809 0.7482 0.8803
C5_2 C 0.2929(3) 0.6708(3) 0.7956(2)
C6_2 C 0.3688(3) 0.6239(3) 0.8489(2)
C7_2 C 0.2573(3) 0.6515(3) 0.7149(2)
H6_2 H 0.2781 0.6062 0.6943
C8_2 C 0.1906(3) 0.7000(3) 0.6649(2)
H7_2 H 0.1679 0.6879 0.6106
C25_2 C 0.4095(3) 0.3249(3) 0.8578(2)
C26_2 C 0.3424(3) 0.2663(3) 0.8048(2)
C27_2 C 0.3090(3) 0.2821(3) 0.7233(2)
H23_2 H 0.3323 0.3244 0.7020
C28_2 C 0.2417(3) 0.2359(3) 0.6739(2)
H24_2 H 0.2191 0.2482 0.6197
C29_2 C 0.2071(3) 0.1708(3) 0.7044(2)
C30_2 C 0.1312(3) 0.1239(3) 0.6511(2)
C31_2 C 0.2427(3) 0.1515(3) 0.7851(2)
H25_2 H 0.2219 0.1062 0.8057
C32_2 C 0.3094(3) 0.2000(3) 0.8351(2)
H26_2 H 0.3321 0.1879 0.8894
loop_
_geom_bond_atom_site_label_1
_geom_bond_atom_site_label_2
_geom_bond_site_symmetry_1
_geom_bond_site_symmetry_2
O9 Zn1 1_555 1_555
O13 C17 1_555 1_555
O15 C17 1_555 1_555
C17 C18 1_555 1_555
C18 C19 1_555 1_555
C19 H12 1_555 1_555
C20 C19 1_555 1_555
C21 C20 1_555 1_555
C23 C21 1_555 1_555
H14 C23 1_555 1_555
C24 C18 1_555 1_555
H15 C24 1_555 1_555
Zn8 O13 1_555 1_555
Zn22 O15 1_555 1_555
O25 Zn12 1_555 1_555
C23 C24 1_555 1_555
O14 Zn5 1_555 1_555
O14 C22 1_555 1_555
Zn8 O1 1_555 1_555
Zn4 O2 1_555 1_555
O1 H1 1_555 1_555
O2 Zn8 1_555 1_555
H2 O2 1_555 1_555
O4 C14 1_555 1_555
O6 C1 1_555 1_555
O7 Zn8 1_555 1_555
O8 Zn8 1_555 1_555
O10 Zn4 1_555 1_555
O11 Zn1_3 1_555 1_555
O12 C1 1_555 1_555
C1 C2 1_555 1_555
C2 C3 1_555 1_555
C3 H4 1_555 1_555
C4 C3 1_555 1_555
H5 C4 1_555 1_555
C5 C4 1_555 1_555
C6 O7 1_555 1_555
C7 C5 1_555 1_555
H6 C7 1_555 1_555
C8 C2 1_555 1_555
H7 C8 1_555 1_555
C11 C10 1_555 1_555
H8 C11 1_555 1_555
C12 C11 1_555 1_555
H9 C12 1_555 1_555
C13 C12 1_555 1_555
C14 O8 1_555 1_555
C15 C13 1_555 1_555
H10 C15 1_555 1_555
C16 C10 1_555 1_555
Zn13 O1 1_555 1_555
Zn18 O34 1_555 1_555
Zn22 O1 1_555 1_555
O22 Zn1_3 1_555 1_555
H22 O22 1_555 1_555
O30 C30 1_555 1_555
O34 C30 1_555 1_555
O37 Zn8 1_555 1_555
C25 O27 1_555 1_555
C26 C25 1_555 1_555
C27 C26 1_555 1_555
H23 C27 1_555 1_555
C28 C27 1_555 1_555
H24 C28 1_555 1_555
C29 C28 1_555 1_555
C30 C29 1_555 1_555
C31 C29 1_555 1_555
H25 C31 1_555 1_555
C32 C26 1_555 1_555
H26 C32 1_555 1_555
O4 Zn13 1_555 1_555
O10 C6 1_555 1_555
C5 C6 1_555 1_555
C7 C8 1_555 1_555
C13 C14 1_555 1_555
C15 C16 1_555 1_555
O37 C25 1_555 1_555
C31 C32 1_555 1_555
C9 O5 1_555 1_555
H16 O16 1_555 1_555
H20 O20 1_555 1_555
Zn16 O20 1_555 1_555
O18 H18 1_555 1_555
C33 O26 1_555 1_555
Zn1_6 O3 1_555 1_555
O3 H3 1_555 1_555
Zn6 O17 1_555 1_555
Zn14 O17 1_555 1_555
O17 H17 1_555 1_555
O20 Zn6 1_555 1_555
O23 Zn14 1_555 1_555
O31 Zn6 1_555 1_555
O32 Zn6 1_555 1_555
O35 Zn16 1_555 1_555
O36 Zn1_6 1_555 1_555
O38 Zn6 1_555 1_555
O41 Zn6 1_555 1_555
C35 C34 1_555 1_555
H27 C35 1_555 1_555
C36 C35 1_555 1_555
H28 C36 1_555 1_555
C37 C36 1_555 1_555
C38 O23 1_555 1_555
C39 C37 1_555 1_555
H29 C39 1_555 1_555
C40 C34 1_555 1_555
O32 C38 1_555 1_555
C37 C38 1_555 1_555
C39 C40 1_555 1_555
O42 Zn20 1_555 1_555
O42 C46 1_555 1_555
Zn23 O43 1_555 1_555
O24 Zn3 1_555 1_555
O33 Zn1_8 1_555 1_555
O41 C41 1_555 1_555
O43 C41 1_555 1_555
C41 C42 1_555 1_555
C42 C43 1_555 1_555
C43 H31 1_555 1_555
C44 C43 1_555 1_555
C45 C44 1_555 1_555
C47 C45 1_555 1_555
H33 C47 1_555 1_555
C48 C42 1_555 1_555
H34 C48 1_555 1_555
C47 C48 1_555 1_555
O21 Zn17 1_555 1_555
H21 O21 1_555 1_555
O35_2 Zn17 1_555 1_555
Zn1_9 O3_2 1_555 1_555
Zn14 O3_2 1_555 1_555
Zn23 O3_2 1_555 1_555
O21 Zn10 1_555 1_555
O3_2 H3_2 1_555 1_555
O25 C14_2 1_555 1_555
O5_2 Zn14 1_555 1_555
O8_2 Zn10 1_555 1_555
O9_2 Zn1_9 1_555 1_555
O11_2 Zn1_9 1_555 1_555
O13_2 C17_2 1_555 1_555
O14_2 Zn23 1_555 1_555
O45 C17_2 1_555 1_555
C9_2 O5_2 1_555 1_555
C10_2 C9_2 1_555 1_555
C11_2 C10_2 1_555 1_555
H8_2 C11_2 1_555 1_555
C12_2 C11_2 1_555 1_555
H9_2 C12_2 1_555 1_555
C13_2 C12_2 1_555 1_555
C14_2 O8_2 1_555 1_555
C15_2 C13_2 1_555 1_555
H10_2 C15_2 1_555 1_555
C16_2 C10_2 1_555 1_555
H11_2 C16_2 1_555 1_555
C17_2 C18_2 1_555 1_555
C18_2 C19_2 1_555 1_555
C19_2 H12_2 1_555 1_555
C20_2 C19_2 1_555 1_555
H13_2 C20_2 1_555 1_555
C21_2 C20_2 1_555 1_555
C22_2 O9_2 1_555 1_555
C23_2 C21_2 1_555 1_555
H14_2 C23_2 1_555 1_555
C24_2 C18_2 1_555 1_555
H15_2 C24_2 1_555 1_555
Zn18 O19 1_555 1_555
O19 Zn11 1_555 1_555
H19 O19 1_555 1_555
O22_2 Zn1_9 1_555 1_555
H22_2 O22_2 1_555 1_555
O26_2 Zn13 1_555 1_555
O32_2 Zn11 1_555 1_555
O33_2 Zn1_9 1_555 1_555
O36_2 Zn1_9 1_555 1_555
O41_2 C41_2 1_555 1_555
O42_2 Zn22 1_555 1_555
O44 C41_2 1_555 1_555
C33_2 O26_2 1_555 1_555
C34_2 C33_2 1_555 1_555
C35_2 C34_2 1_555 1_555
H27_2 C35_2 1_555 1_555
C36_2 C35_2 1_555 1_555
H28_2 C36_2 1_555 1_555
C37_2 C36_2 1_555 1_555
C38_2 O24 1_555 1_555
C39_2 C37_2 1_555 1_555
H29_2 C39_2 1_555 1_555
C40_2 C34_2 1_555 1_555
H30_2 C40_2 1_555 1_555
C41_2 C42_2 1_555 1_555
C42_2 C43_2 1_555 1_555
C43_2 H31_2 1_555 1_555
C44_2 C43_2 1_555 1_555
H32_2 C44_2 1_555 1_555
C45_2 C44_2 1_555 1_555
C46_2 O33_2 1_555 1_555
C47_2 C45_2 1_555 1_555
H33_2 C47_2 1_555 1_555
C48_2 C42_2 1_555 1_555
H34_2 C48_2 1_555 1_555
Zn23 O17 1_555 1_555
O11_2 C9_2 1_555 1_555
O14_2 C22_2 1_555 1_555
C13_2 C14_2 1_555 1_555
C15_2 C16_2 1_555 1_555
C21_2 C22_2 1_555 1_555
C23_2 C24_2 1_555 1_555
Zn13 O22_2 1_555 1_555
Zn22 O22_2 1_555 1_555
O32_2 C38_2 1_555 1_555
O36_2 C33_2 1_555 1_555
O42_2 C46_2 1_555 1_555
C37_2 C38_2 1_555 1_555
C39_2 C40_2 1_555 1_555
C45_2 C46_2 1_555 1_555
C47_2 C48_2 1_555 1_555
O28_2 C1_2 1_555 1_555
O38_2 C1_2 1_555 1_555
C1_2 C2_2 1_555 1_555
C2_2 C3_2 1_555 1_555
C3_2 H4_2 1_555 1_555
C4_2 C3_2 1_555 1_555
H5_2 C4_2 1_555 1_555
C5_2 C4_2 1_555 1_555
C6_2 O31 1_555 1_555
C7_2 C5_2 1_555 1_555
H6_2 C7_2 1_555 1_555
C8_2 C2_2 1_555 1_555
H7_2 C8_2 1_555 1_555
O31_2 C30_2 1_555 1_555
O35_2 C30_2 1_555 1_555
C25_2 O28 1_555 1_555
C26_2 C25_2 1_555 1_555
C27_2 C26_2 1_555 1_555
H23_2 C27_2 1_555 1_555
C28_2 C27_2 1_555 1_555
H24_2 C28_2 1_555 1_555
C29_2 C28_2 1_555 1_555
C30_2 C29_2 1_555 1_555
C31_2 C29_2 1_555 1_555
H25_2 C31_2 1_555 1_555
C32_2 C26_2 1_555 1_555
H26_2 C32_2 1_555 1_555
O35 C6_2 1_555 1_555
C5_2 C6_2 1_555 1_555
C7_2 C8_2 1_555 1_555
O38 C25_2 1_555 1_555
C31_2 C32_2 1_555 1_555

#END
