
###############################################################################
#
# This file contains modified crystal structure data generated from the
# MOF subset of the Cambridge Structural Database (CSD) v543 
# hosted by the Cambridge Crystallographic Data Centre (CCDC).
#
# This work is licensed under the Creative Commons
# Attribution-NonCommercial-ShareAlike 4.0 International License.
# To view a copy of this license, visit
# http://creativecommons.org/licenses/by-nc-sa/4.0/
# or send a letter to
# Creative Commons, PO Box 1866, Mountain View, CA 94042, USA.
#
# CIF created using the CSD Python API on 29 September 2022
# The structure has been converted into the P1 space group
# The structure has a 3D framework
# The original CSD entry FIJCUX is in the monoclinic crystal system
# The framework has been calculated to contain at least 10.0% void space
# The void calculation uses a probe of radius 1.32A, grid spacing 0.4
#
###############################################################################

data_FIJCUX
_chemical_formula_moiety         '(C96 H59 O59 Zn21)n'
_symmetry_cell_setting           triclinic
_symmetry_space_group_name_H-M   'P 1'
_symmetry_Int_Tables_number      1
_space_group_name_Hall           'P 1'
loop_
_symmetry_equiv_pos_site_id
_symmetry_equiv_pos_as_xyz
1 x,y,z
_cell_length_a                   17.664(3)
_cell_length_b                   14.848(2)
_cell_length_c                   18.129(3)
_cell_angle_alpha                90
_cell_angle_beta                 112.140(2)
_cell_angle_gamma                90
_cell_volume                     4404.19
loop_
_atom_site_label
_atom_site_type_symbol
_atom_site_fract_x
_atom_site_fract_y
_atom_site_fract_z
Zn1 Zn -0.0000 0.0000 -0.0000
O8 O 0.06048(7) 0.12643(7) 0.00981(6)
O10 O 0.44871(6) 0.37217(7) 0.15500(6)
O11 O 0.41533(7) 0.33535(8) 0.25821(6)
C10 C 0.18144(9) 0.20976(11) 0.03238(9)
C11 C 0.20305(10) 0.20894(11) 0.11436(9)
H8 H 0.1683 0.1809 0.1367
C12 C 0.23260(10) 0.25119(11) 0.00006(9)
C13 C 0.27502(10) 0.24878(11) 0.16349(9)
H10 H 0.2895 0.2482 0.2196
C14 C 0.30500(10) 0.29107(11) 0.04905(9)
H11 H 0.3398 0.3191 0.0267
C15 C 0.32655(9) 0.28996(10) 0.13112(9)
C16 C 0.40303(9) 0.33599(10) 0.18438(9)
Zn6 Zn 0.002633(10) 0.098201(12) 0.166384(10)
Zn10 Zn 0.502143(10) 0.404504(12) 0.333159(10)
Zn15 Zn 0.499620(10) 0.503810(11) 0.165620(10)
O28 O 0.08475(7) 0.17160(8) 0.24207(6)
Zn1_2 Zn -0.0000 0.0000 1.0000
Zn3 Zn 0.002143(10) 0.095496(12) 0.833159(10)
O9 O 0.09091(7) 0.16496(8) 0.90517(6)
C9 C 0.10467(9) 0.16355(10) 0.97939(9)
H9 H 0.2177 0.2521 0.9440
Zn1_3 Zn -0.0000 1.0000 -0.0000
Zn8 Zn 0.497367(10) 0.598201(12) 0.333616(10)
Zn19 Zn 0.503540(10) 0.401530(12) 0.004950(10)
O16 O 0.04798(8) 0.99809(7) 0.12152(7)
H16 H 0.0901(12) 0.9993(10) 0.1359(11)
O19 O 0.54748(8) 0.50315(7) 0.28796(7)
H19 H 0.5933(13) 0.5060(11) 0.3045(12)
O20 O 0.45175(8) 0.50093(7) 0.04339(7)
H20 H 0.4080(13) 0.4996(11) 0.0280(12)
O25 O 0.39040(6) 0.56211(7) 0.16706(6)
O26 O 0.41525(7) 0.67160(8) 0.25793(6)
O36 O 0.08467(7) 0.83535(8) 0.24179(6)
O38 O 0.61306(6) 0.45127(7) 0.17115(6)
O40 O 0.59391(7) 0.33888(8) 0.08388(6)
O42 O 0.54584(7) 0.63499(7) 0.17133(6)
C26 C 0.18442(9) 0.80043(11) 0.03091(9)
C27 C 0.22972(10) 0.83112(11) 0.10744(9)
H23 H 0.2178 0.8880 0.1245
C28 C 0.20276(10) 0.71775(11) 0.00601(9)
C29 C 0.29215(10) 0.77857(11) 0.15867(9)
H25 H 0.3231 0.7995 0.2109
C30 C 0.26526(10) 0.66492(11) 0.05712(9)
H26 H 0.2776 0.6084 0.0398
C31 C 0.30966(9) 0.69508(11) 0.13387(9)
C32 C 0.37688(9) 0.63821(11) 0.18949(9)
Zn1_4 Zn -0.0000 1.0000 1.0000
O2 O 0.04748(8) 0.99685(7) 0.78796(7)
H2 H 0.0933(13) 0.9940(11) 0.8045(12)
Zn23 Zn 0.496460(10) 0.598470(12) 0.995050(10)
O22 O 0.54825(8) 0.49907(7) 0.95661(7)
H22 H 0.5920(13) 0.5004(11) 0.9720(12)
O23 O 0.10457(6) 0.93346(7) 0.99873(6)
O24 O 0.07518(7) 0.82314(8) 0.90863(6)
O45 O 0.42562(7) 0.31862(7) 0.93260(6)
C25 C 0.11626(9) 0.85689(11) 0.97602(9)
H24 H 0.1722 0.6972 0.9535
Zn1_5 Zn 1.0000 0.0000 -0.0000
O4 O 0.89543(6) 0.06654(7) 0.00127(6)
O5 O 0.92482(7) 0.17686(8) 0.09137(6)
C1 C 0.88374(9) 0.14311(11) 0.02398(9)
H5 H 0.8278 0.3028 0.0465
O18 O 0.95252(8) 0.00315(7) 0.21204(7)
H18 H 0.9067(13) 0.0060(11) 0.1955(12)
O44 O 0.57438(7) 0.68138(7) 0.06740(6)
Zn1_6 Zn 1.0000 0.0000 1.0000
Zn4 Zn 0.500380(10) 0.496190(11) 0.834380(10)
O1 O 0.95202(8) 0.00191(7) 0.87848(7)
H1 H 0.9099(12) 0.0007(10) 0.8641(11)
O6 O 0.60960(6) 0.43789(7) 0.83294(6)
O7 O 0.58475(7) 0.32840(8) 0.74207(6)
O12 O 0.38694(6) 0.54873(7) 0.82885(6)
O13 O 0.40609(7) 0.66112(8) 0.91612(6)
O14 O 0.04584(7) 0.86501(7) 0.67133(6)
O15 O 0.07438(7) 0.81862(7) 0.56740(6)
C2 C 0.81558(9) 0.19957(11) 0.96909(9)
C3 C 0.77028(10) 0.16888(11) 0.89256(9)
H4 H 0.7822 0.1120 0.8755
C4 C 0.79724(10) 0.28225(11) 0.99399(9)
C5 C 0.70785(10) 0.22143(11) 0.84133(9)
H6 H 0.6769 0.2005 0.7891
C6 C 0.73474(10) 0.33508(11) 0.94288(9)
H7 H 0.7224 0.3916 0.9602
C7 C 0.69034(9) 0.30492(11) 0.86613(9)
C8 C 0.62312(9) 0.36179(11) 0.81051(9)
C17 C 0.36630(9) 0.62137(11) 0.85103(9)
C18 C 0.28920(9) 0.66718(11) 0.79761(9)
C19 C 0.25476(10) 0.73566(11) 0.82668(9)
H12 H 0.2781 0.7512 0.8815
C20 C 0.25402(10) 0.64382(12) 0.71747(9)
H13 H 0.2756 0.5950 0.6977
C21 C 0.18659(9) 0.78152(11) 0.77643(9)
H14 H 0.1622 0.8268 0.7972
C22 C 0.18738(10) 0.69190(11) 0.66642(9)
H15 H 0.1647 0.6772 0.6114
C23 C 0.15372(9) 0.76136(10) 0.69550(9)
C24 C 0.08547(9) 0.81919(10) 0.64124(9)
Zn7 Zn 0.502633(10) 0.401799(12) 0.666384(10)
Zn12 Zn 0.497857(10) 0.595496(12) 0.666841(10)
Zn22 Zn 0.003540(10) 0.098470(12) 0.504950(10)
O17 O 0.45252(8) 0.49685(7) 0.71204(7)
H17 H 0.4067(13) 0.4940(11) 0.6955(12)
O32 O 0.55129(6) 0.62783(7) 0.84500(6)
O35 O 0.91533(7) 0.16465(8) 0.75821(6)
O37 O 0.11306(6) 0.04873(7) 0.67115(6)
O39 O 0.09391(7) 0.16112(8) 0.58388(6)
O41 O 0.45416(7) 0.36501(7) 0.82867(6)
C41 C 0.13370(9) 0.12137(11) 0.64897(9)
C42 C 0.21080(9) 0.16718(11) 0.70239(9)
C43 C 0.24524(10) 0.23566(11) 0.67332(9)
H31 H 0.2219 0.2512 0.6185
C44 C 0.24598(10) 0.14382(12) 0.78253(9)
H32 H 0.2244 0.0950 0.8023
C45 C 0.31341(9) 0.28152(11) 0.72357(9)
H33 H 0.3378 0.3268 0.7028
C46 C 0.31262(10) 0.19190(11) 0.83358(9)
H34 H 0.3353 0.1772 0.8886
C47 C 0.34628(9) 0.26136(10) 0.80450(9)
C48 C 0.41453(9) 0.31919(10) 0.85876(9)
Zn1_7 Zn 1.0000 1.0000 -0.0000
Zn9 Zn 0.997857(10) 0.904504(12) 0.166841(10)
O30 O 0.90909(7) 0.83504(8) 0.09483(6)
C33 C 0.89533(9) 0.83645(10) 0.02061(9)
H28 H 0.7823 0.7479 0.0560
Zn1_8 Zn 1.0000 1.0000 1.0000
Zn2 Zn 0.997367(10) 0.901799(12) 0.833616(10)
Zn14 Zn 0.999620(10) 0.996190(11) 0.665620(10)
O27 O 0.91525(7) 0.82840(8) 0.75793(6)
O29 O 0.93952(7) 0.87357(7) 0.99019(6)
O34 O 0.58467(7) 0.66465(8) 0.74179(6)
C34 C 0.81856(9) 0.79024(11) 0.96762(9)
C35 C 0.79695(10) 0.79106(11) 0.88564(9)
H27 H 0.8317 0.8191 0.8633
C36 C 0.76740(10) 0.74881(11) 0.99994(9)
C37 C 0.72498(10) 0.75122(11) 0.83651(9)
H29 H 0.7105 0.7518 0.7804
C38 C 0.69500(10) 0.70893(11) 0.95095(9)
H30 H 0.6602 0.6809 0.9733
C39 C 0.67345(9) 0.71004(10) 0.86888(9)
C40 C 0.59697(9) 0.66401(10) 0.81562(9)
Zn21 Zn 0.996460(10) 0.901530(12) 0.495050(10)
O21 O 0.04825(8) 0.00093(7) 0.45661(7)
H21 H 0.0920(13) 0.9996(11) 0.4720(12)
H3 H 0.9080(13) 0.0004(11) 0.5280(12)
Zn15_2 Zn 0.000380(10) 0.003810(11) 0.334380(10)
O32_2 O 0.94871(6) 0.12783(7) 0.65500(6)
O44_2 O 0.92562(7) 0.18138(7) 0.43260(6)
Zn1_9 Zn 0.5000 0.5000 0.5000
O1_2 O 0.54798(8) 0.50191(7) 0.62152(7)
H1_2 H 0.5901(12) 0.5007(10) 0.6359(11)
O3 O 0.95175(8) 0.99907(7) 0.54339(7)
O4_2 O 0.60457(6) 0.56654(7) 0.49873(6)
O5_2 O 0.57518(7) 0.67686(8) 0.40863(6)
O6_2 O 0.89040(6) 0.93789(7) 0.66706(6)
O8_2 O 0.43952(7) 0.62643(7) 0.49019(6)
O9_2 O 0.40909(7) 0.66496(8) 0.59483(6)
O10_2 O 0.05129(6) 0.87217(7) 0.34500(6)
C1_2 C 0.61626(9) 0.64311(11) 0.47602(9)
C2_2 C 0.68442(9) 0.69957(11) 0.53091(9)
C3_2 C 0.72972(10) 0.66888(11) 0.60744(9)
H4_2 H 0.7178 0.6120 0.6245
C4_2 C 0.70276(10) 0.78225(11) 0.50601(9)
H5_2 H 0.6722 0.8028 0.4535
C5_2 C 0.79215(10) 0.72143(11) 0.65867(9)
H6_2 H 0.8231 0.7005 0.7109
C6_2 C 0.76526(10) 0.83508(11) 0.55712(9)
H7_2 H 0.7776 0.8916 0.5398
C7_2 C 0.80966(9) 0.80492(11) 0.63387(9)
C8_2 C 0.87688(9) 0.86179(11) 0.68949(9)
C9_2 C 0.39533(9) 0.66355(10) 0.52061(9)
C10_2 C 0.31856(9) 0.70976(11) 0.46762(9)
C11_2 C 0.29695(10) 0.70894(11) 0.38564(9)
H8_2 H 0.3317 0.6809 0.3633
C12_2 C 0.26740(10) 0.75119(11) 0.49994(9)
H9_2 H 0.2823 0.7521 0.5560
C13_2 C 0.22498(10) 0.74878(11) 0.33651(9)
H10_2 H 0.2105 0.7482 0.2804
C14_2 C 0.19500(10) 0.79107(11) 0.45095(9)
H11_2 H 0.1602 0.8191 0.4733
C15_2 C 0.17345(9) 0.78996(10) 0.36888(9)
C16_2 C 0.09697(9) 0.83599(10) 0.31562(9)
O16_2 O 0.45202(8) 0.49809(7) 0.37848(7)
H16_2 H 0.4099(12) 0.4993(10) 0.3641(11)
O23_2 O 0.39543(6) 0.43346(7) 0.50127(6)
O24_2 O 0.42482(7) 0.32314(8) 0.59137(6)
O25_2 O 0.10960(6) 0.06211(7) 0.33294(6)
O29_2 O 0.56048(7) 0.37357(7) 0.50981(6)
O30_2 O 0.59091(7) 0.33504(8) 0.40517(6)
C25_2 C 0.38374(9) 0.35689(11) 0.52398(9)
C26_2 C 0.31558(9) 0.30043(11) 0.46909(9)
C27_2 C 0.27028(10) 0.33112(11) 0.39256(9)
H23_2 H 0.2822 0.3880 0.3755
C28_2 C 0.29724(10) 0.21775(11) 0.49399(9)
H24_2 H 0.3278 0.1972 0.5465
C29_2 C 0.20785(10) 0.27857(11) 0.34133(9)
H25_2 H 0.1769 0.2995 0.2891
C30_2 C 0.23474(10) 0.16492(11) 0.44288(9)
H26_2 H 0.2224 0.1084 0.4602
C31_2 C 0.19034(9) 0.19508(11) 0.36613(9)
C32_2 C 0.12312(9) 0.13821(11) 0.31051(9)
C33_2 C 0.60467(9) 0.33645(10) 0.47939(9)
C34_2 C 0.68144(9) 0.29024(11) 0.53238(9)
C35_2 C 0.70305(10) 0.29106(11) 0.61436(9)
H27_2 H 0.6683 0.3191 0.6367
C36_2 C 0.73260(10) 0.24881(11) 0.50006(9)
H28_2 H 0.7177 0.2479 0.4440
C37_2 C 0.77502(10) 0.25122(11) 0.66349(9)
H29_2 H 0.7895 0.2518 0.7196
C38_2 C 0.80500(10) 0.20893(11) 0.54905(9)
H30_2 H 0.8398 0.1809 0.5267
C39_2 C 0.82655(9) 0.21004(10) 0.63112(9)
C40_2 C 0.90303(9) 0.16401(10) 0.68438(9)
O42_2 O 0.95416(7) 0.13499(7) 0.32867(6)
O38_2 O 0.88694(6) 0.95127(7) 0.32885(6)
O40_2 O 0.90609(7) 0.83888(8) 0.41612(6)
C17_2 C 0.63370(9) 0.37863(11) 0.14897(9)
C18_2 C 0.71080(9) 0.33282(11) 0.20239(9)
C19_2 C 0.74524(10) 0.26434(11) 0.17332(9)
H12_2 H 0.7219 0.2488 0.1185
C20_2 C 0.74598(10) 0.35618(12) 0.28253(9)
H13_2 H 0.7244 0.4050 0.3023
C21_2 C 0.81341(9) 0.21848(11) 0.22357(9)
H14_2 H 0.8378 0.1732 0.2028
C22_2 C 0.81262(10) 0.30810(11) 0.33358(9)
H15_2 H 0.8353 0.3228 0.3886
C23_2 C 0.84628(9) 0.23864(10) 0.30450(9)
C24_2 C 0.91453(9) 0.18081(10) 0.35876(9)
C41_2 C 0.86630(9) 0.87863(11) 0.35103(9)
C42_2 C 0.78920(9) 0.83282(11) 0.29761(9)
C43_2 C 0.75476(10) 0.76434(11) 0.32668(9)
H31_2 H 0.7781 0.7488 0.3815
C44_2 C 0.75402(10) 0.85618(12) 0.21747(9)
H32_2 H 0.7756 0.9050 0.1977
C45_2 C 0.68659(9) 0.71848(11) 0.27643(9)
H33_2 H 0.6622 0.6732 0.2972
C46_2 C 0.68738(10) 0.80810(11) 0.16642(9)
H34_2 H 0.6647 0.8228 0.1114
C47_2 C 0.65372(9) 0.73864(10) 0.19550(9)
C48_2 C 0.58547(9) 0.68081(10) 0.14124(9)
loop_
_geom_bond_atom_site_label_1
_geom_bond_atom_site_label_2
_geom_bond_site_symmetry_1
_geom_bond_site_symmetry_2
O8 Zn1 1_555 1_555
O10 C16 1_555 1_555
O11 C16 1_555 1_555
C11 C10 1_555 1_555
H8 C11 1_555 1_555
C12 C10 1_555 1_555
C13 C11 1_555 1_555
H10 C13 1_555 1_555
C14 C12 1_555 1_555
H11 C14 1_555 1_555
C15 C13 1_555 1_555
C16 C15 1_555 1_555
Zn10 O11 1_555 1_555
Zn15 O10 1_555 1_555
O28 Zn6 1_555 1_555
C14 C15 1_555 1_555
O9 Zn3 1_555 1_555
O9 C9 1_555 1_555
Zn8 O19 1_555 1_555
Zn15 O19 1_555 1_555
Zn19 O20 1_555 1_555
O16 Zn1_3 1_555 1_555
H16 O16 1_555 1_555
O19 H19 1_555 1_555
O20 Zn15 1_555 1_555
H20 O20 1_555 1_555
O25 Zn15 1_555 1_555
O26 Zn8 1_555 1_555
O38 Zn15 1_555 1_555
O40 Zn19 1_555 1_555
O42 Zn15 1_555 1_555
C27 C26 1_555 1_555
H23 C27 1_555 1_555
C28 C26 1_555 1_555
C29 C27 1_555 1_555
H25 C29 1_555 1_555
C30 C28 1_555 1_555
H26 C30 1_555 1_555
C31 C29 1_555 1_555
C32 O25 1_555 1_555
O26 C32 1_555 1_555
C30 C31 1_555 1_555
C31 C32 1_555 1_555
H2 O2 1_555 1_555
H22 O22 1_555 1_555
O23 Zn1_4 1_555 1_555
C25 O23 1_555 1_555
Zn23 O22 1_555 1_555
O24 C25 1_555 1_555
O4 Zn1_5 1_555 1_555
O5 C1 1_555 1_555
C1 O4 1_555 1_555
H18 O18 1_555 1_555
Zn1_6 O1 1_555 1_555
Zn4 O22 1_555 1_555
O1 H1 1_555 1_555
O6 Zn4 1_555 1_555
O7 C8 1_555 1_555
O12 Zn4 1_555 1_555
O13 Zn23 1_555 1_555
O14 C24 1_555 1_555
O15 C24 1_555 1_555
C3 C2 1_555 1_555
H4 C3 1_555 1_555
C4 C2 1_555 1_555
C5 C3 1_555 1_555
H6 C5 1_555 1_555
C6 C4 1_555 1_555
H7 C6 1_555 1_555
C7 C5 1_555 1_555
C8 O6 1_555 1_555
C17 O12 1_555 1_555
C18 C17 1_555 1_555
C19 C18 1_555 1_555
H12 C19 1_555 1_555
C20 C18 1_555 1_555
H13 C20 1_555 1_555
C21 C19 1_555 1_555
H14 C21 1_555 1_555
C22 C20 1_555 1_555
H15 C22 1_555 1_555
C23 C21 1_555 1_555
C24 C23 1_555 1_555
Zn7 O7 1_555 1_555
Zn12 O17 1_555 1_555
Zn22 O39 1_555 1_555
O17 Zn4 1_555 1_555
H17 O17 1_555 1_555
O32 Zn4 1_555 1_555
O37 C41 1_555 1_555
O39 C41 1_555 1_555
O41 Zn4 1_555 1_555
C41 C42 1_555 1_555
C42 C43 1_555 1_555
C43 H31 1_555 1_555
C44 C42 1_555 1_555
H32 C44 1_555 1_555
C45 C43 1_555 1_555
H33 C45 1_555 1_555
C46 C44 1_555 1_555
H34 C46 1_555 1_555
C47 C45 1_555 1_555
C48 O41 1_555 1_555
O13 C17 1_555 1_555
C6 C7 1_555 1_555
C7 C8 1_555 1_555
C22 C23 1_555 1_555
Zn7 O17 1_555 1_555
O45 C48 1_555 1_555
C46 C47 1_555 1_555
C47 C48 1_555 1_555
O30 Zn9 1_555 1_555
O30 C33 1_555 1_555
Zn12 O34 1_555 1_555
O27 Zn2 1_555 1_555
O29 Zn1_8 1_555 1_555
O32 C40 1_555 1_555
O34 C40 1_555 1_555
C35 C34 1_555 1_555
H27 C35 1_555 1_555
C36 C34 1_555 1_555
C37 C35 1_555 1_555
H29 C37 1_555 1_555
C38 C36 1_555 1_555
H30 C38 1_555 1_555
C39 C37 1_555 1_555
C40 C39 1_555 1_555
C38 C39 1_555 1_555
O21 Zn22 1_555 1_555
Zn1_9 O1_2 1_555 1_555
Zn7 O1_2 1_555 1_555
Zn12 O1_2 1_555 1_555
Zn14 O3 1_555 1_555
O1_2 H1_2 1_555 1_555
O4_2 Zn1_9 1_555 1_555
O5_2 C1_2 1_555 1_555
O6_2 Zn14 1_555 1_555
O27 C8_2 1_555 1_555
O8_2 Zn1_9 1_555 1_555
O9_2 Zn12 1_555 1_555
O10_2 C16_2 1_555 1_555
O36 C16_2 1_555 1_555
C1_2 O4_2 1_555 1_555
C2_2 C1_2 1_555 1_555
C3_2 C2_2 1_555 1_555
H4_2 C3_2 1_555 1_555
C4_2 C2_2 1_555 1_555
H5_2 C4_2 1_555 1_555
C5_2 C3_2 1_555 1_555
H6_2 C5_2 1_555 1_555
C6_2 C4_2 1_555 1_555
H7_2 C6_2 1_555 1_555
C7_2 C5_2 1_555 1_555
C8_2 O6_2 1_555 1_555
C9_2 O8_2 1_555 1_555
C10_2 C9_2 1_555 1_555
C11_2 C10_2 1_555 1_555
H8_2 C11_2 1_555 1_555
C12_2 C10_2 1_555 1_555
H9_2 C12_2 1_555 1_555
C13_2 C11_2 1_555 1_555
H10_2 C13_2 1_555 1_555
C14_2 C12_2 1_555 1_555
H11_2 C14_2 1_555 1_555
C15_2 C13_2 1_555 1_555
C16_2 C15_2 1_555 1_555
Zn8 O5_2 1_555 1_555
Zn10 O16_2 1_555 1_555
Zn21 O3 1_555 1_555
O16_2 Zn1_9 1_555 1_555
H16_2 O16_2 1_555 1_555
O21 Zn15_2 1_555 1_555
O23_2 Zn1_9 1_555 1_555
O24_2 Zn7 1_555 1_555
O25_2 Zn15_2 1_555 1_555
O29_2 Zn1_9 1_555 1_555
O30_2 Zn10 1_555 1_555
O32_2 C40_2 1_555 1_555
O35 C40_2 1_555 1_555
C25_2 O23_2 1_555 1_555
C26_2 C25_2 1_555 1_555
C27_2 C26_2 1_555 1_555
H23_2 C27_2 1_555 1_555
C28_2 C26_2 1_555 1_555
H24_2 C28_2 1_555 1_555
C29_2 C27_2 1_555 1_555
H25_2 C29_2 1_555 1_555
C30_2 C28_2 1_555 1_555
H26_2 C30_2 1_555 1_555
C31_2 C29_2 1_555 1_555
C32_2 O25_2 1_555 1_555
C33_2 O29_2 1_555 1_555
C34_2 C33_2 1_555 1_555
C35_2 C34_2 1_555 1_555
H27_2 C35_2 1_555 1_555
C36_2 C34_2 1_555 1_555
H28_2 C36_2 1_555 1_555
C37_2 C35_2 1_555 1_555
H29_2 C37_2 1_555 1_555
C38_2 C36_2 1_555 1_555
H30_2 C38_2 1_555 1_555
C39_2 C37_2 1_555 1_555
C40_2 C39_2 1_555 1_555
O9_2 C9_2 1_555 1_555
C6_2 C7_2 1_555 1_555
C7_2 C8_2 1_555 1_555
C14_2 C15_2 1_555 1_555
Zn8 O16_2 1_555 1_555
Zn10 O19 1_555 1_555
O24_2 C25_2 1_555 1_555
O28 C32_2 1_555 1_555
O30_2 C33_2 1_555 1_555
C30_2 C31_2 1_555 1_555
C31_2 C32_2 1_555 1_555
C38_2 C39_2 1_555 1_555
O40_2 Zn21 1_555 1_555
O42_2 C24_2 1_555 1_555
O44_2 C24_2 1_555 1_555
C17_2 O38 1_555 1_555
C18_2 C17_2 1_555 1_555
C19_2 C18_2 1_555 1_555
H12_2 C19_2 1_555 1_555
C20_2 C18_2 1_555 1_555
H13_2 C20_2 1_555 1_555
C21_2 C19_2 1_555 1_555
H14_2 C21_2 1_555 1_555
C22_2 C20_2 1_555 1_555
H15_2 C22_2 1_555 1_555
C23_2 C21_2 1_555 1_555
C24_2 C23_2 1_555 1_555
O38_2 C41_2 1_555 1_555
O40_2 C41_2 1_555 1_555
C41_2 C42_2 1_555 1_555
C42_2 C43_2 1_555 1_555
C43_2 H31_2 1_555 1_555
C44_2 C42_2 1_555 1_555
H32_2 C44_2 1_555 1_555
C45_2 C43_2 1_555 1_555
H33_2 C45_2 1_555 1_555
C46_2 C44_2 1_555 1_555
H34_2 C46_2 1_555 1_555
C47_2 C45_2 1_555 1_555
C48_2 O42 1_555 1_555
O40 C17_2 1_555 1_555
C22_2 C23_2 1_555 1_555
O44 C48_2 1_555 1_555
C46_2 C47_2 1_555 1_555
C47_2 C48_2 1_555 1_555

#END
