
###############################################################################
#
# This file contains modified crystal structure data generated from the
# MOF subset of the Cambridge Structural Database (CSD) v543 
# hosted by the Cambridge Crystallographic Data Centre (CCDC).
#
# This work is licensed under the Creative Commons
# Attribution-NonCommercial-ShareAlike 4.0 International License.
# To view a copy of this license, visit
# http://creativecommons.org/licenses/by-nc-sa/4.0/
# or send a letter to
# Creative Commons, PO Box 1866, Mountain View, CA 94042, USA.
#
# CIF created using the CSD Python API on 29 September 2022
# The structure has been converted into the P1 space group
# The structure has a 3D framework
# The original CSD entry FIJDEI is in the monoclinic crystal system
# The framework has been calculated to contain at least 10.0% void space
# The void calculation uses a probe of radius 1.32A, grid spacing 0.4
# The framework is charged, counterions have been retained in the structure
#
###############################################################################

data_FIJDEI
_chemical_formula_moiety         '(C128 H64 Cd10 O62 11-)n'
_symmetry_cell_setting           triclinic
_symmetry_space_group_name_H-M   'P 1'
_symmetry_Int_Tables_number      1
_space_group_name_Hall           'P 1'
loop_
_symmetry_equiv_pos_site_id
_symmetry_equiv_pos_as_xyz
1 x,y,z
_cell_length_a                   13.686(2)
_cell_length_b                   18.252(3)
_cell_length_c                   14.906(3)
_cell_angle_alpha                90
_cell_angle_beta                 101.070(3)
_cell_angle_gamma                90
_cell_volume                     3654.19
loop_
_atom_site_label
_atom_site_type_symbol
_atom_site_fract_x
_atom_site_fract_y
_atom_site_fract_z
Cd11 Cd 0.0000 0.327483(15) 0.7500
Cd2 Cd 0.5000 0.172517(15) 0.2500
O4 O 0.48083(16) 0.15527(11) 0.09250(14)
O5 O 0.61999(16) 0.09049(12) 0.26465(15)
O6 O 0.72661(17) 0.11252(12) 0.17079(15)
C6 C 0.8693(2) 0.02260(17) 0.2880(2)
H4 H 0.8960 0.0554 0.2495
C7 C 0.7685(2) 0.02419(15) 0.28927(19)
C8 C 0.6999(2) 0.08083(15) 0.23579(19)
C9 C 0.4486(2) 0.19303(16) 0.0218(2)
C10 C 0.2757(2) 0.14253(16) 0.0155(2)
H5 H 0.2964 0.1232 0.0753
Cd5 Cd 0.658770(14) 0.209530(10) 0.074560(13)
Cd7 Cd 0.341230(14) 0.209530(10) 0.425440(13)
Cd8 Cd 0.841230(14) 0.290470(10) 0.925440(13)
Cd11_2 Cd 1.0000 0.327483(15) 0.7500
O13 O 0.49689(15) 0.23507(12) 0.51324(15)
O16 O 0.51917(16) 0.15527(11) 0.40750(14)
O19 O 0.38001(16) 0.09049(12) 0.23535(15)
O20 O 0.27339(17) 0.11252(12) 0.32921(15)
O23 O 0.90104(15) 0.23726(11) 0.79086(14)
O25 O 0.59896(15) 0.26274(11) 0.20914(14)
O26 O 0.40104(15) 0.26274(11) 0.29086(14)
O28 O 0.74319(16) 0.23101(12) 0.80191(14)
C22 C 0.1307(2) 0.02260(17) 0.2120(2)
H12 H 0.1040 0.0554 0.2505
C23 C 0.2315(2) 0.02419(15) 0.21073(19)
C24 C 0.3001(2) 0.08083(15) 0.26421(19)
C25 C 0.5514(2) 0.19303(16) 0.4782(2)
C26 C 0.7243(2) 0.14253(16) 0.4845(2)
H13 H 0.7036 0.1232 0.4247
C27 C 0.6578(2) 0.18236(15) 0.52504(19)
C28 C 0.8209(2) 0.13091(17) 0.5312(2)
H14 H 0.8664 0.1043 0.5028
C29 C 0.6886(2) 0.20885(14) 0.6128(2)
H15 H 0.6435 0.2363 0.6406
C30 C 0.8517(2) 0.15783(16) 0.6192(2)
H16 H 0.9181 0.1504 0.6508
C31 C 0.7838(2) 0.19608(15) 0.66076(19)
C32 C 0.8110(2) 0.22306(15) 0.75656(19)
O3 O 0.50311(15) 0.23507(12) 0.98676(15)
O7 O 0.09896(15) 0.23726(11) 0.70914(14)
O8 O 0.25681(16) 0.23101(12) 0.69809(14)
C11 C 0.3422(2) 0.18236(15) 0.97496(19)
C12 C 0.1791(2) 0.13091(17) 0.9688(2)
H6 H 0.1336 0.1043 0.9972
C13 C 0.3114(2) 0.20885(14) 0.8872(2)
H7 H 0.3565 0.2363 0.8594
C14 C 0.1483(2) 0.15783(16) 0.8808(2)
H8 H 0.0819 0.1504 0.8492
C15 C 0.2162(2) 0.19608(15) 0.83924(19)
C16 C 0.1890(2) 0.22306(15) 0.74344(19)
Cd6 Cd 0.158770(14) 0.290470(10) 0.574560(13)
Cd1 Cd 0.658770(14) 0.790470(10) 0.574560(13)
O1 O 0.80129(16) 0.82130(10) 0.49927(14)
O2 O 0.65773(16) 0.87914(12) 0.46233(15)
C1 C 0.7480(2) 0.87126(15) 0.45668(19)
C2 C 0.7920(2) 0.92442(15) 0.3985(2)
C3 C 0.8931(2) 0.92445(16) 0.3980(2)
H1 H 0.9360 0.8910 0.4355
C4 C 0.7305(2) 0.97477(15) 0.34480(19)
H2 H 0.6614 0.9754 0.3461
C5 C 0.9318(2) 0.97341(18) 0.3426(2)
Cd4 Cd 0.841230(14) 0.709530(10) 0.425440(13)
Cd9 Cd 0.158770(14) 0.709530(10) 0.074560(13)
O9 O 0.19871(16) 0.82130(10) 0.00073(14)
O10 O 0.69871(16) 0.67870(10) 0.50073(14)
O12 O 0.34227(16) 0.87914(12) 0.03767(15)
O14 O 0.50311(15) 0.76493(12) 0.48676(15)
O15 O 0.49689(15) 0.76493(12) 0.01324(15)
O17 O 0.48083(16) 0.84473(11) 0.59250(14)
O21 O 0.72661(17) 0.88748(12) 0.67079(15)
O24 O 0.59896(15) 0.73726(11) 0.70914(14)
O29 O 0.75681(16) 0.73101(12) 0.69809(14)
C17 C 0.2520(2) 0.87126(15) 0.04332(19)
C18 C 0.2080(2) 0.92442(15) 0.1015(2)
C19 C 0.1069(2) 0.92445(16) 0.1020(2)
H9 H 0.0640 0.8910 0.0645
C20 C 0.2695(2) 0.97477(15) 0.15520(19)
H10 H 0.3386 0.9754 0.1539
C21 C 0.0682(2) 0.97341(18) 0.1574(2)
Cd3 Cd 0.341230(14) 0.790470(10) 0.925440(13)
O11 O 0.30129(16) 0.67870(10) 0.99927(14)
O18 O 0.51917(16) 0.84473(11) 0.90750(14)
O22 O 0.27339(17) 0.88748(12) 0.82921(15)
O27 O 0.40104(15) 0.73726(11) 0.79086(14)
O30 O 0.24319(16) 0.73101(12) 0.80191(14)
Cd2_2 Cd -0.0000 0.672517(15) 0.2500
O1_2 O 0.30129(16) 0.32130(10) 0.49927(14)
O2_2 O 0.15773(16) 0.37914(12) 0.46233(15)
O5_2 O 0.11999(16) 0.59049(12) 0.26465(15)
O6_2 O 0.22661(17) 0.61252(12) 0.17079(15)
C1_2 C 0.2480(2) 0.37126(15) 0.45668(19)
C2_2 C 0.2920(2) 0.42442(15) 0.3985(2)
C3_2 C 0.3931(2) 0.42445(16) 0.3980(2)
H1_2 H 0.4360 0.3910 0.4355
C4_2 C 0.2305(2) 0.47477(15) 0.34480(19)
H2_2 H 0.1614 0.4754 0.3461
C5_2 C 0.4318(2) 0.47341(18) 0.3426(2)
H3 H 0.5011 0.4733 0.3421
C6_2 C 0.3693(2) 0.52260(17) 0.2880(2)
H4_2 H 0.3960 0.5554 0.2495
C7_2 C 0.2685(2) 0.52419(15) 0.28927(19)
C8_2 C 0.1999(2) 0.58083(15) 0.23579(19)
Cd11_3 Cd 0.5000 0.827483(15) 0.7500
O10_2 O 0.19871(16) 0.17870(10) 0.50073(14)
O14_2 O 0.00311(15) 0.26493(12) 0.48676(15)
O16_2 O 0.01917(16) 0.65527(11) 0.40750(14)
O21_2 O 0.22661(17) 0.38748(12) 0.67079(15)
O25_2 O 0.09896(15) 0.76274(11) 0.20914(14)
C25_2 C 0.0514(2) 0.69303(16) 0.4782(2)
C26_2 C 0.2243(2) 0.64253(16) 0.4845(2)
H13_2 H 0.2036 0.6232 0.4247
C27_2 C 0.1578(2) 0.68236(15) 0.52504(19)
C28_2 C 0.3209(2) 0.63091(17) 0.5312(2)
H14_2 H 0.3664 0.6043 0.5028
C29_2 C 0.1886(2) 0.70885(14) 0.6128(2)
H15_2 H 0.1435 0.7363 0.6406
C30_2 C 0.3517(2) 0.65783(16) 0.6192(2)
H16_2 H 0.4181 0.6504 0.6508
C31_2 C 0.2838(2) 0.69608(15) 0.66076(19)
C32_2 C 0.3110(2) 0.72306(15) 0.75656(19)
O3_2 O 0.00311(15) 0.73507(12) 0.98676(15)
O18_2 O 0.01917(16) 0.34473(11) 0.90750(14)
Cd2_3 Cd 1.0000 0.672517(15) 0.2500
O4_2 O 0.98083(16) 0.65527(11) 0.09250(14)
C9_2 C 0.9486(2) 0.69303(16) 0.0218(2)
C10_2 C 0.7757(2) 0.64253(16) 0.0155(2)
H5_2 H 0.7964 0.6232 0.0753
O9_2 O 0.69871(16) 0.32130(10) 0.00073(14)
O12_2 O 0.84227(16) 0.37914(12) 0.03767(15)
O13_2 O 0.99689(15) 0.73507(12) 0.51324(15)
O15_2 O 0.99689(15) 0.26493(12) 0.01324(15)
O17_2 O 0.98083(16) 0.34473(11) 0.59250(14)
O19_2 O 0.88001(16) 0.59049(12) 0.23535(15)
O20_2 O 0.77339(17) 0.61252(12) 0.32921(15)
O26_2 O 0.90104(15) 0.76274(11) 0.29086(14)
C17_2 C 0.7520(2) 0.37126(15) 0.04332(19)
C18_2 C 0.7080(2) 0.42442(15) 0.1015(2)
C19_2 C 0.6069(2) 0.42445(16) 0.1020(2)
H9_2 H 0.5640 0.3910 0.0645
C20_2 C 0.7695(2) 0.47477(15) 0.15520(19)
H10_2 H 0.8386 0.4754 0.1539
C21_2 C 0.5682(2) 0.47341(18) 0.1574(2)
H11 H 0.4989 0.4733 0.1579
C22_2 C 0.6307(2) 0.52260(17) 0.2120(2)
H12_2 H 0.6040 0.5554 0.2505
C23_2 C 0.7315(2) 0.52419(15) 0.21073(19)
C24_2 C 0.8001(2) 0.58083(15) 0.26421(19)
C11_2 C 0.8422(2) 0.68236(15) 0.97496(19)
C12_2 C 0.6791(2) 0.63091(17) 0.9688(2)
H6_2 H 0.6336 0.6043 0.9972
C13_2 C 0.8114(2) 0.70885(14) 0.8872(2)
H7_2 H 0.8565 0.7363 0.8594
C14_2 C 0.6483(2) 0.65783(16) 0.8808(2)
H8_2 H 0.5819 0.6504 0.8492
C15_2 C 0.7162(2) 0.69608(15) 0.83924(19)
C16_2 C 0.6890(2) 0.72306(15) 0.74344(19)
O11_2 O 0.80129(16) 0.17870(10) 0.99927(14)
O22_2 O 0.77339(17) 0.38748(12) 0.82921(15)
O30_2 O 0.75681(16) 0.26899(12) 0.19809(14)
O2_3 O 0.34227(16) 0.12086(12) 0.53767(15)
C1_3 C 0.2520(2) 0.12874(15) 0.54332(19)
C2_3 C 0.2080(2) 0.07558(15) 0.6015(2)
C3_3 C 0.1069(2) 0.07555(16) 0.6020(2)
H1_3 H 0.0640 0.1090 0.5645
C4_3 C 0.2695(2) 0.02523(15) 0.65520(19)
H2_3 H 0.3386 0.0246 0.6539
C5_3 C 0.0682(2) 0.02659(18) 0.6574(2)
O12_3 O 0.65773(16) 0.12086(12) 0.96233(15)
O29_2 O 0.24319(16) 0.26899(12) 0.30191(14)
C17_3 C 0.7480(2) 0.12874(15) 0.95668(19)
C18_3 C 0.7920(2) 0.07558(15) 0.8985(2)
C19_3 C 0.8931(2) 0.07555(16) 0.8980(2)
H9_3 H 0.9360 0.1090 0.9355
C20_3 C 0.7305(2) 0.02523(15) 0.84480(19)
H10_3 H 0.6614 0.0246 0.8461
C21_3 C 0.9318(2) 0.02659(18) 0.8426(2)
O8_2 O 0.74319(16) 0.76899(12) 0.30191(14)
C11_3 C 0.6578(2) 0.81764(15) 0.02504(19)
C12_3 C 0.8209(2) 0.86909(17) 0.0312(2)
H6_3 H 0.8664 0.8957 0.0028
C13_3 C 0.6886(2) 0.79115(14) 0.1128(2)
H7_3 H 0.6435 0.7637 0.1406
C14_3 C 0.8517(2) 0.84217(16) 0.1192(2)
H8_3 H 0.9181 0.8496 0.1508
C15_3 C 0.7838(2) 0.80392(15) 0.16076(19)
C16_3 C 0.8110(2) 0.77694(15) 0.25656(19)
O5_3 O 0.38001(16) 0.90951(12) 0.73535(15)
C6_3 C 0.1307(2) 0.97740(17) 0.7120(2)
H4_3 H 0.1040 0.9446 0.7505
C7_3 C 0.2315(2) 0.97581(15) 0.71073(19)
C8_3 C 0.3001(2) 0.91917(15) 0.76421(19)
C9_3 C 0.5514(2) 0.80697(16) 0.9782(2)
C10_3 C 0.7243(2) 0.85747(16) 0.9845(2)
H5_3 H 0.7036 0.8768 0.9247
O19_3 O 0.61999(16) 0.90951(12) 0.76465(15)
O28_2 O 0.25681(16) 0.76899(12) 0.19809(14)
C22_3 C 0.8693(2) 0.97740(17) 0.7880(2)
H12_3 H 0.8960 0.9446 0.7495
C23_3 C 0.7685(2) 0.97581(15) 0.78927(19)
C24_3 C 0.6999(2) 0.91917(15) 0.73579(19)
C25_3 C 0.4486(2) 0.80697(16) 0.5218(2)
C26_3 C 0.2757(2) 0.85747(16) 0.5155(2)
H13_3 H 0.2964 0.8768 0.5753
C27_3 C 0.3422(2) 0.81764(15) 0.47496(19)
C28_3 C 0.1791(2) 0.86909(17) 0.4688(2)
H14_3 H 0.1336 0.8957 0.4972
C29_3 C 0.3114(2) 0.79115(14) 0.3872(2)
H15_3 H 0.3565 0.7637 0.3594
C30_3 C 0.1483(2) 0.84217(16) 0.3808(2)
H16_3 H 0.0819 0.8496 0.3492
C31_3 C 0.2162(2) 0.80392(15) 0.33924(19)
C32_3 C 0.1890(2) 0.77694(15) 0.24344(19)
C11_4 C 0.1578(2) 0.31764(15) 0.02504(19)
C12_4 C 0.3209(2) 0.36909(17) 0.0312(2)
H6_4 H 0.3664 0.3957 0.0028
C13_4 C 0.1886(2) 0.29115(14) 0.1128(2)
H7_4 H 0.1435 0.2637 0.1406
C14_4 C 0.3517(2) 0.34217(16) 0.1192(2)
H8_4 H 0.4181 0.3496 0.1508
C15_4 C 0.2838(2) 0.30392(15) 0.16076(19)
C16_4 C 0.3110(2) 0.27694(15) 0.25656(19)
C9_4 C 0.0514(2) 0.30697(16) 0.9782(2)
C10_4 C 0.2243(2) 0.35747(16) 0.9845(2)
H5_4 H 0.2036 0.3768 0.9247
O12_4 O 0.15773(16) 0.62086(12) 0.96233(15)
O19_4 O 0.11999(16) 0.40951(12) 0.76465(15)
C17_4 C 0.2480(2) 0.62874(15) 0.95668(19)
C18_4 C 0.2920(2) 0.57558(15) 0.8985(2)
C19_4 C 0.3931(2) 0.57555(16) 0.8980(2)
H9_4 H 0.4360 0.6090 0.9355
C20_4 C 0.2305(2) 0.52523(15) 0.84480(19)
H10_4 H 0.1614 0.5246 0.8461
C21_4 C 0.4318(2) 0.52659(18) 0.8426(2)
H11_2 H 0.5011 0.5267 0.8421
C22_4 C 0.3693(2) 0.47740(17) 0.7880(2)
H12_4 H 0.3960 0.4446 0.7495
C23_4 C 0.2685(2) 0.47581(15) 0.78927(19)
C24_4 C 0.1999(2) 0.41917(15) 0.73579(19)
O2_4 O 0.84227(16) 0.62086(12) 0.53767(15)
O5_4 O 0.88001(16) 0.40951(12) 0.73535(15)
C1_4 C 0.7520(2) 0.62874(15) 0.54332(19)
C2_4 C 0.7080(2) 0.57558(15) 0.6015(2)
C3_4 C 0.6069(2) 0.57555(16) 0.6020(2)
H1_4 H 0.5640 0.6090 0.5645
C4_4 C 0.7695(2) 0.52523(15) 0.65520(19)
H2_4 H 0.8386 0.5246 0.6539
C5_4 C 0.5682(2) 0.52659(18) 0.6574(2)
H3_2 H 0.4989 0.5267 0.6579
C6_4 C 0.6307(2) 0.47740(17) 0.7120(2)
H4_4 H 0.6040 0.4446 0.7505
C7_4 C 0.7315(2) 0.47581(15) 0.71073(19)
C8_4 C 0.8001(2) 0.41917(15) 0.76421(19)
C25_4 C 0.9486(2) 0.30697(16) 0.5218(2)
C26_4 C 0.7757(2) 0.35747(16) 0.5155(2)
H13_4 H 0.7964 0.3768 0.5753
C27_4 C 0.8422(2) 0.31764(15) 0.47496(19)
C28_4 C 0.6791(2) 0.36909(17) 0.4688(2)
H14_4 H 0.6336 0.3957 0.4972
C29_4 C 0.8114(2) 0.29115(14) 0.3872(2)
H15_4 H 0.8565 0.2637 0.3594
C30_4 C 0.6483(2) 0.34217(16) 0.3808(2)
H16_4 H 0.5819 0.3496 0.3492
C31_4 C 0.7162(2) 0.30392(15) 0.33924(19)
C32_4 C 0.6890(2) 0.27694(15) 0.24344(19)
H3_3 H 0.0011 0.9733 0.3421
H11_3 H 0.9989 0.9733 0.1579
H11_4 H 0.0011 0.0267 0.8421
H3_4 H 0.9989 0.0267 0.6579
loop_
_geom_bond_atom_site_label_1
_geom_bond_atom_site_label_2
_geom_bond_site_symmetry_1
_geom_bond_site_symmetry_2
Cd2 O4 1_555 1_555
O4 C9 1_555 1_555
O5 Cd2 1_555 1_555
O6 C8 1_555 1_555
H4 C6 1_555 1_555
C8 O5 1_555 1_555
C10 H5 1_555 1_555
Cd7 O13 1_555 1_555
Cd8 O23 1_555 1_555
Cd11_2 O23 1_555 1_555
O13 C25 1_555 1_555
O16 Cd2 1_555 1_555
O19 Cd2 1_555 1_555
O20 Cd7 1_555 1_555
O23 C32 1_555 1_555
O25 Cd2 1_555 1_555
O26 Cd2 1_555 1_555
O28 Cd8 1_555 1_555
H12 C22 1_555 1_555
C24 O19 1_555 1_555
C25 O16 1_555 1_555
C26 H13 1_555 1_555
C27 C25 1_555 1_555
C28 C26 1_555 1_555
H14 C28 1_555 1_555
C29 C27 1_555 1_555
H15 C29 1_555 1_555
C30 C28 1_555 1_555
H16 C30 1_555 1_555
C31 C29 1_555 1_555
C32 O28 1_555 1_555
O4 Cd5 1_555 1_555
O6 Cd5 1_555 1_555
C6 C7 1_555 1_555
C7 C8 1_555 1_555
Cd5 O25 1_555 1_555
Cd7 O16 1_555 1_555
Cd7 O26 1_555 1_555
O20 C24 1_555 1_555
C22 C23 1_555 1_555
C23 C24 1_555 1_555
C26 C27 1_555 1_555
C30 C31 1_555 1_555
C31 C32 1_555 1_555
O7 C16 1_555 1_555
O8 C16 1_555 1_555
H6 C12 1_555 1_555
C13 C11 1_555 1_555
H7 C13 1_555 1_555
C14 C12 1_555 1_555
H8 C14 1_555 1_555
C15 C13 1_555 1_555
C16 C15 1_555 1_555
Cd6 O7 1_555 1_555
Cd11 O7 1_555 1_555
O8 Cd6 1_555 1_555
C14 C15 1_555 1_555
Cd1 O1 1_555 1_555
O1 C1 1_555 1_555
O2 Cd1 1_555 1_555
C1 O2 1_555 1_555
C2 C1 1_555 1_555
C3 C2 1_555 1_555
H1 C3 1_555 1_555
C4 C2 1_555 1_555
H2 C4 1_555 1_555
C5 C3 1_555 1_555
Cd4 O1 1_555 1_555
Cd9 O9 1_555 1_555
O9 C17 1_555 1_555
O10 Cd1 1_555 1_555
O14 Cd1 1_555 1_555
O17 Cd1 1_555 1_555
O21 Cd1 1_555 1_555
O24 Cd1 1_555 1_555
O29 Cd1 1_555 1_555
C17 O12 1_555 1_555
C18 C17 1_555 1_555
C19 C18 1_555 1_555
H9 C19 1_555 1_555
C20 C18 1_555 1_555
H10 C20 1_555 1_555
C21 C19 1_555 1_555
Cd4 O10 1_555 1_555
O11 Cd3 1_555 1_555
O18 Cd3 1_555 1_555
O22 Cd3 1_555 1_555
O27 Cd3 1_555 1_555
O30 Cd3 1_555 1_555
Cd6 O1_2 1_555 1_555
O1_2 C1_2 1_555 1_555
O2_2 Cd6 1_555 1_555
O5_2 Cd2_2 1_555 1_555
O6_2 C8_2 1_555 1_555
C1_2 O2_2 1_555 1_555
C2_2 C1_2 1_555 1_555
C3_2 C2_2 1_555 1_555
H1_2 C3_2 1_555 1_555
C4_2 C2_2 1_555 1_555
H2_2 C4_2 1_555 1_555
C5_2 C3_2 1_555 1_555
H3 C5_2 1_555 1_555
C6_2 C5_2 1_555 1_555
H4_2 C6_2 1_555 1_555
C7_2 C4_2 1_555 1_555
C8_2 O5_2 1_555 1_555
Cd7 O1_2 1_555 1_555
Cd11_3 O27 1_555 1_555
O10_2 Cd6 1_555 1_555
O14_2 Cd6 1_555 1_555
O16_2 Cd2_2 1_555 1_555
O21_2 Cd6 1_555 1_555
O27 C32_2 1_555 1_555
O25_2 Cd2_2 1_555 1_555
C25_2 O16_2 1_555 1_555
C26_2 H13_2 1_555 1_555
C27_2 C25_2 1_555 1_555
C28_2 C26_2 1_555 1_555
H14_2 C28_2 1_555 1_555
C29_2 C27_2 1_555 1_555
H15_2 C29_2 1_555 1_555
C30_2 C28_2 1_555 1_555
H16_2 C30_2 1_555 1_555
C31_2 C29_2 1_555 1_555
C32_2 O30 1_555 1_555
O6_2 Cd9 1_555 1_555
C6_2 C7_2 1_555 1_555
C7_2 C8_2 1_555 1_555
Cd7 O10_2 1_555 1_555
Cd9 O25_2 1_555 1_555
C26_2 C27_2 1_555 1_555
C30_2 C31_2 1_555 1_555
C31_2 C32_2 1_555 1_555
Cd2_3 O4_2 1_555 1_555
O4_2 C9_2 1_555 1_555
C10_2 H5_2 1_555 1_555
Cd4 O13_2 1_555 1_555
Cd5 O9_2 1_555 1_555
O9_2 C17_2 1_555 1_555
O19_2 Cd2_3 1_555 1_555
O20_2 Cd4 1_555 1_555
O26_2 Cd2_3 1_555 1_555
C17_2 O12_2 1_555 1_555
C18_2 C17_2 1_555 1_555
C19_2 C18_2 1_555 1_555
H9_2 C19_2 1_555 1_555
C20_2 C18_2 1_555 1_555
H10_2 C20_2 1_555 1_555
C21_2 C19_2 1_555 1_555
H11 C21_2 1_555 1_555
C22_2 C21_2 1_555 1_555
H12_2 C22_2 1_555 1_555
C23_2 C20_2 1_555 1_555
C24_2 O19_2 1_555 1_555
Cd4 O26_2 1_555 1_555
O20_2 C24_2 1_555 1_555
C22_2 C23_2 1_555 1_555
C23_2 C24_2 1_555 1_555
O24 C16_2 1_555 1_555
O29 C16_2 1_555 1_555
H6_2 C12_2 1_555 1_555
C13_2 C11_2 1_555 1_555
H7_2 C13_2 1_555 1_555
C14_2 C12_2 1_555 1_555
H8_2 C14_2 1_555 1_555
C15_2 C13_2 1_555 1_555
C16_2 C15_2 1_555 1_555
Cd11_3 O24 1_555 1_555
O11_2 Cd8 1_555 1_555
O22_2 Cd8 1_555 1_555
C14_2 C15_2 1_555 1_555
O30_2 Cd5 1_555 1_555
O10_2 C1_3 1_555 1_555
O2_3 Cd7 1_555 1_555
C1_3 O2_3 1_555 1_555
C2_3 C1_3 1_555 1_555
C3_3 C2_3 1_555 1_555
H1_3 C3_3 1_555 1_555
C4_3 C2_3 1_555 1_555
H2_3 C4_3 1_555 1_555
C5_3 C3_3 1_555 1_555
O11_2 C17_3 1_555 1_555
O29_2 Cd7 1_555 1_555
C17_3 O12_3 1_555 1_555
C18_3 C17_3 1_555 1_555
C19_3 C18_3 1_555 1_555
H9_3 C19_3 1_555 1_555
C20_3 C18_3 1_555 1_555
H10_3 C20_3 1_555 1_555
C21_3 C19_3 1_555 1_555
O26_2 C16_3 1_555 1_555
O8_2 C16_3 1_555 1_555
H6_3 C12_3 1_555 1_555
C13_3 C11_3 1_555 1_555
H7_3 C13_3 1_555 1_555
C14_3 C12_3 1_555 1_555
H8_3 C14_3 1_555 1_555
C15_3 C13_3 1_555 1_555
C16_3 C15_3 1_555 1_555
O8_2 Cd4 1_555 1_555
C14_3 C15_3 1_555 1_555
Cd11_3 O18 1_555 1_555
O18 C9_3 1_555 1_555
O5_3 Cd11_3 1_555 1_555
O22 C8_3 1_555 1_555
H4_3 C6_3 1_555 1_555
C8_3 O5_3 1_555 1_555
C10_3 H5_3 1_555 1_555
O14 C25_3 1_555 1_555
O17 Cd11_3 1_555 1_555
O19_3 Cd11_3 1_555 1_555
O25_2 C32_3 1_555 1_555
O28_2 Cd9 1_555 1_555
H12_3 C22_3 1_555 1_555
C24_3 O19_3 1_555 1_555
C25_3 O17 1_555 1_555
C26_3 H13_3 1_555 1_555
C27_3 C25_3 1_555 1_555
C28_3 C26_3 1_555 1_555
H14_3 C28_3 1_555 1_555
C29_3 C27_3 1_555 1_555
H15_3 C29_3 1_555 1_555
C30_3 C28_3 1_555 1_555
H16_3 C30_3 1_555 1_555
C31_3 C29_3 1_555 1_555
C32_3 O28_2 1_555 1_555
C6_3 C7_3 1_555 1_555
C7_3 C8_3 1_555 1_555
O21 C24_3 1_555 1_555
C22_3 C23_3 1_555 1_555
C23_3 C24_3 1_555 1_555
C26_3 C27_3 1_555 1_555
C30_3 C31_3 1_555 1_555
C31_3 C32_3 1_555 1_555
O26 C16_4 1_555 1_555
O29_2 C16_4 1_555 1_555
H6_4 C12_4 1_555 1_555
C13_4 C11_4 1_555 1_555
H7_4 C13_4 1_555 1_555
C14_4 C12_4 1_555 1_555
H8_4 C14_4 1_555 1_555
C15_4 C13_4 1_555 1_555
C16_4 C15_4 1_555 1_555
C14_4 C15_4 1_555 1_555
Cd11 O18_2 1_555 1_555
O18_2 C9_4 1_555 1_555
C10_4 H5_4 1_555 1_555
O11 C17_4 1_555 1_555
O19_4 Cd11 1_555 1_555
C17_4 O12_4 1_555 1_555
C18_4 C17_4 1_555 1_555
C19_4 C18_4 1_555 1_555
H9_4 C19_4 1_555 1_555
C20_4 C18_4 1_555 1_555
H10_4 C20_4 1_555 1_555
C21_4 C19_4 1_555 1_555
H11_2 C21_4 1_555 1_555
C22_4 C21_4 1_555 1_555
H12_4 C22_4 1_555 1_555
C23_4 C20_4 1_555 1_555
C24_4 O19_4 1_555 1_555
O21_2 C24_4 1_555 1_555
C22_4 C23_4 1_555 1_555
C23_4 C24_4 1_555 1_555
O10 C1_4 1_555 1_555
O2_4 Cd4 1_555 1_555
O5_4 Cd11_2 1_555 1_555
O22_2 C8_4 1_555 1_555
C1_4 O2_4 1_555 1_555
C2_4 C1_4 1_555 1_555
C3_4 C2_4 1_555 1_555
H1_4 C3_4 1_555 1_555
C4_4 C2_4 1_555 1_555
H2_4 C4_4 1_555 1_555
C5_4 C3_4 1_555 1_555
H3_2 C5_4 1_555 1_555
C6_4 C5_4 1_555 1_555
H4_4 C6_4 1_555 1_555
C7_4 C4_4 1_555 1_555
C8_4 O5_4 1_555 1_555
O17_2 Cd11_2 1_555 1_555
O25 C32_4 1_555 1_555
C25_4 O17_2 1_555 1_555
C26_4 H13_4 1_555 1_555
C27_4 C25_4 1_555 1_555
C28_4 C26_4 1_555 1_555
H14_4 C28_4 1_555 1_555
C29_4 C27_4 1_555 1_555
H15_4 C29_4 1_555 1_555
C30_4 C28_4 1_555 1_555
H16_4 C30_4 1_555 1_555
C31_4 C29_4 1_555 1_555
C32_4 O30_2 1_555 1_555
C6_4 C7_4 1_555 1_555
C7_4 C8_4 1_555 1_555
C26_4 C27_4 1_555 1_555
C30_4 C31_4 1_555 1_555
C31_4 C32_4 1_555 1_555

#END
