
###############################################################################
#
# This file contains modified crystal structure data generated from the
# MOF subset of the Cambridge Structural Database (CSD) v543 
# hosted by the Cambridge Crystallographic Data Centre (CCDC).
#
# This work is licensed under the Creative Commons
# Attribution-NonCommercial-ShareAlike 4.0 International License.
# To view a copy of this license, visit
# http://creativecommons.org/licenses/by-nc-sa/4.0/
# or send a letter to
# Creative Commons, PO Box 1866, Mountain View, CA 94042, USA.
#
# CIF created using the CSD Python API on 29 September 2022
# The structure has been converted into the P1 space group
# The structure has a 3D framework
# The original CSD entry FIJDAE is in the monoclinic crystal system
# The framework has been calculated to contain at least 10.0% void space
# The void calculation uses a probe of radius 1.32A, grid spacing 0.4
#
###############################################################################

data_FIJDAE
_chemical_formula_moiety         '(C40 H40 O20 Pb4)n'
_symmetry_cell_setting           triclinic
_symmetry_space_group_name_H-M   'P 1'
_symmetry_Int_Tables_number      1
_space_group_name_Hall           'P 1'
loop_
_symmetry_equiv_pos_site_id
_symmetry_equiv_pos_as_xyz
1 x,y,z
_cell_length_a                   8.3639(3)
_cell_length_b                   17.9914(8)
_cell_length_c                   9.9617(4)
_cell_angle_alpha                90
_cell_angle_beta                 102.687(1)
_cell_angle_gamma                90
_cell_volume                     1462.42
loop_
_atom_site_label
_atom_site_type_symbol
_atom_site_fract_x
_atom_site_fract_y
_atom_site_fract_z
H10 H 0.038(8) 0.109(3) 0.050(7)
H5 H 0.064(9) 0.088(4) 0.691(7)
H7 H 0.008(9) 0.173(4) 0.948(7)
C10 C 0.0253(9) 0.1242(5) 0.9547(6)
H8 H 0.027(9) 0.034(4) 0.862(7)
H9 H 0.154(10) 0.138(4) 0.959(7)
O9 O 0.0088(3) 0.06468(16) 0.4062(3)
Pb1 Pb 0.747585(15) 0.028903(7) 0.495535(12)
O5 O 0.9531(4) 0.09849(19) 0.7093(3)
C9 C 0.9585(7) 0.0696(4) 0.8444(5)
H6 H 0.847(7) 0.056(3) 0.861(5)
O6 O 0.5070(3) 0.05728(16) 0.6205(3)
O1 O 0.7330(3) 0.92450(16) 0.3291(3)
O2 O 0.4930(3) 0.94272(16) 0.3795(3)
O3 O 0.2490(3) 0.58391(16) 0.1397(3)
H1 H 0.243(6) 0.713(2) 0.225(4)
O4 O 0.4912(3) 0.56468(16) 0.0938(3)
C1 C 0.5381(5) 0.8263(2) 0.2780(4)
C2 C 0.3816(5) 0.8007(3) 0.2778(5)
H2 H 0.326(6) 0.828(3) 0.303(5)
C3 C 0.3346(5) 0.7303(2) 0.2303(5)
C4 C 0.4416(5) 0.6842(2) 0.1832(4)
C5 C 0.5971(6) 0.7096(3) 0.1817(5)
H3 H 0.658(7) 0.683(3) 0.147(5)
C6 C 0.6448(6) 0.7802(3) 0.2303(5)
H4 H 0.734(7) 0.797(3) 0.237(5)
C7 C 0.5901(5) 0.9022(2) 0.3316(4)
C8 C 0.3918(5) 0.6063(2) 0.1366(4)
Pb2 Pb 0.252415(15) 0.971097(7) 0.504465(12)
Pb4 Pb 0.752415(15) 0.528903(7) 0.004465(12)
O7 O 0.7490(3) 0.91609(16) 0.6397(3)
O8 O 0.9912(3) 0.93532(16) 0.5938(3)
Pb3 Pb 0.247585(15) 0.471097(7) 0.995535(12)
O2_2 O 0.0070(3) 0.44272(16) 0.1205(3)
O3_2 O 0.2510(3) 0.08391(16) 0.3603(3)
H1_2 H 0.257(6) 0.213(2) 0.275(4)
C2_2 C 0.1184(5) 0.3007(3) 0.2222(5)
H2_2 H 0.174(6) 0.328(3) 0.197(5)
C3_2 C 0.1654(5) 0.2303(2) 0.2697(5)
C4_2 C 0.0584(5) 0.1842(2) 0.3168(4)
C8_2 C 0.1082(5) 0.1063(2) 0.3634(4)
O1_2 O 0.7670(3) 0.42450(16) 0.1709(3)
C1_2 C 0.9619(5) 0.3263(2) 0.2220(4)
C5_2 C 0.9029(6) 0.2096(3) 0.3183(5)
H3_2 H 0.842(7) 0.183(3) 0.353(5)
C6_2 C 0.8552(6) 0.2802(3) 0.2697(5)
H4_2 H 0.766(7) 0.297(3) 0.263(5)
C7_2 C 0.9099(5) 0.4022(2) 0.1684(4)
O5_2 O 0.5469(4) 0.59849(19) 0.7907(3)
H5_2 H 0.436(9) 0.588(4) 0.809(7)
C9_2 C 0.5415(7) 0.5696(4) 0.6556(5)
H6_2 H 0.653(7) 0.556(3) 0.639(5)
H7_2 H 0.492(9) 0.673(4) 0.552(7)
C10_2 C 0.4747(9) 0.6242(5) 0.5453(6)
H8_2 H 0.473(9) 0.534(4) 0.638(7)
H9_2 H 0.346(10) 0.638(4) 0.541(7)
H10_2 H 0.462(8) 0.609(3) 0.450(7)
O6_2 O 0.9930(3) 0.55728(16) 0.8795(3)
O7_2 O 0.7510(3) 0.41609(16) 0.8603(3)
O8_2 O 0.5088(3) 0.43532(16) 0.9062(3)
O1_3 O 0.2670(3) 0.07550(16) 0.6709(3)
H1_3 H 0.757(6) 0.287(2) 0.775(4)
C1_3 C 0.4619(5) 0.1737(2) 0.7220(4)
C2_3 C 0.6184(5) 0.1993(3) 0.7222(5)
H2_3 H 0.674(6) 0.172(3) 0.697(5)
C3_3 C 0.6654(5) 0.2697(2) 0.7697(5)
C4_3 C 0.5584(5) 0.3158(2) 0.8168(4)
C5_3 C 0.4029(6) 0.2904(3) 0.8183(5)
H3_3 H 0.342(7) 0.317(3) 0.853(5)
C6_3 C 0.3552(6) 0.2198(3) 0.7697(5)
H4_3 H 0.266(7) 0.203(3) 0.763(5)
C7_3 C 0.4099(5) 0.0978(2) 0.6684(4)
C8_3 C 0.6082(5) 0.3937(2) 0.8634(4)
O5_3 O 0.0469(4) 0.90151(19) 0.2907(3)
C9_3 C 0.0415(7) 0.9304(4) 0.1556(5)
H6_3 H 0.153(7) 0.944(3) 0.139(5)
H5_3 H 0.936(9) 0.912(4) 0.309(7)
H7_3 H 0.992(9) 0.827(4) 0.052(7)
C10_3 C 0.9747(9) 0.8758(5) 0.0453(6)
H8_3 H 0.973(9) 0.966(4) 0.138(7)
H9_3 H 0.846(10) 0.862(4) 0.041(7)
O5_4 O 0.4531(4) 0.40151(19) 0.2093(3)
H5_4 H 0.564(9) 0.412(4) 0.191(7)
C9_4 C 0.4585(7) 0.4304(4) 0.3444(5)
H6_4 H 0.347(7) 0.444(3) 0.361(5)
H7_4 H 0.508(9) 0.327(4) 0.448(7)
C10_4 C 0.5253(9) 0.3758(5) 0.4547(6)
H8_4 H 0.527(9) 0.466(4) 0.362(7)
H9_4 H 0.654(10) 0.362(4) 0.459(7)
H10_3 H 0.538(8) 0.391(3) 0.550(7)
O1_4 O 0.2330(3) 0.57550(16) 0.8291(3)
C1_4 C 0.0381(5) 0.6737(2) 0.7780(4)
C5_4 C 0.0971(6) 0.7904(3) 0.6817(5)
H3_4 H 0.158(7) 0.817(3) 0.647(5)
C6_4 C 0.1448(6) 0.7198(3) 0.7303(5)
H4_4 H 0.234(7) 0.703(3) 0.737(5)
C7_4 C 0.0901(5) 0.5978(2) 0.8316(4)
H1_4 H 0.743(6) 0.787(2) 0.725(4)
C2_4 C 0.8816(5) 0.6993(3) 0.7778(5)
H2_4 H 0.826(6) 0.672(3) 0.803(5)
C3_4 C 0.8346(5) 0.7697(2) 0.7303(5)
C4_4 C 0.9416(5) 0.8158(2) 0.6832(4)
C8_4 C 0.8918(5) 0.8937(2) 0.6366(4)
H10_4 H 0.962(8) 0.891(3) 0.950(7)
loop_
_geom_bond_atom_site_label_1
_geom_bond_atom_site_label_2
_geom_bond_site_symmetry_1
_geom_bond_site_symmetry_2
H7 C10 1_555 1_555
H9 C10 1_555 1_555
O5 Pb1 1_555 1_555
C9 O5 1_555 1_555
H6 C9 1_555 1_555
O6 Pb1 1_555 1_555
O1 C7 1_555 1_555
O3 C8 1_555 1_555
H1 C3 1_555 1_555
O4 C8 1_555 1_555
C1 C2 1_555 1_555
C2 H2 1_555 1_555
C3 C2 1_555 1_555
C4 C3 1_555 1_555
C5 C4 1_555 1_555
H3 C5 1_555 1_555
C6 C1 1_555 1_555
H4 C6 1_555 1_555
C7 O2 1_555 1_555
C8 C4 1_555 1_555
Pb2 O2 1_555 1_555
Pb4 O4 1_555 1_555
C1 C7 1_555 1_555
C5 C6 1_555 1_555
O3_2 C8_2 1_555 1_555
H1_2 C3_2 1_555 1_555
O9 C8_2 1_555 1_555
C2_2 H2_2 1_555 1_555
C3_2 C2_2 1_555 1_555
C4_2 C3_2 1_555 1_555
C8_2 C4_2 1_555 1_555
Pb4 O1_2 1_555 1_555
O1_2 C7_2 1_555 1_555
H3_2 C5_2 1_555 1_555
C6_2 C1_2 1_555 1_555
H4_2 C6_2 1_555 1_555
C1_2 C7_2 1_555 1_555
C5_2 C6_2 1_555 1_555
H5_2 O5_2 1_555 1_555
C9_2 O5_2 1_555 1_555
H6_2 C9_2 1_555 1_555
H7_2 C10_2 1_555 1_555
C10_2 C9_2 1_555 1_555
H8_2 C9_2 1_555 1_555
H9_2 C10_2 1_555 1_555
H10_2 C10_2 1_555 1_555
O1_3 C7_3 1_555 1_555
O7_2 C8_3 1_555 1_555
H1_3 C3_3 1_555 1_555
O8_2 C8_3 1_555 1_555
C1_3 C2_3 1_555 1_555
C2_3 H2_3 1_555 1_555
C3_3 C2_3 1_555 1_555
C4_3 C3_3 1_555 1_555
C5_3 C4_3 1_555 1_555
H3_3 C5_3 1_555 1_555
C6_3 C1_3 1_555 1_555
H4_3 C6_3 1_555 1_555
C7_3 O6 1_555 1_555
C8_3 C4_3 1_555 1_555
Pb3 O8_2 1_555 1_555
C1_3 C7_3 1_555 1_555
C5_3 C6_3 1_555 1_555
O5_3 Pb2 1_555 1_555
C9_3 O5_3 1_555 1_555
H6_3 C9_3 1_555 1_555
H7_3 C10_3 1_555 1_555
H9_3 C10_3 1_555 1_555
H5_4 O5_4 1_555 1_555
C9_4 O5_4 1_555 1_555
H6_4 C9_4 1_555 1_555
H7_4 C10_4 1_555 1_555
C10_4 C9_4 1_555 1_555
H8_4 C9_4 1_555 1_555
H9_4 C10_4 1_555 1_555
H10_3 C10_4 1_555 1_555
Pb3 O1_4 1_555 1_555
O1_4 C7_4 1_555 1_555
H3_4 C5_4 1_555 1_555
C6_4 C1_4 1_555 1_555
H4_4 C6_4 1_555 1_555
C1_4 C7_4 1_555 1_555
C5_4 C6_4 1_555 1_555
O7 C8_4 1_555 1_555
H1_4 C3_4 1_555 1_555
O8 C8_4 1_555 1_555
C2_4 H2_4 1_555 1_555
C3_4 C2_4 1_555 1_555
C4_4 C3_4 1_555 1_555
C8_4 C4_4 1_555 1_555

#END
