
###############################################################################
#
# This file contains modified crystal structure data generated from the
# MOF subset of the Cambridge Structural Database (CSD) v543 
# hosted by the Cambridge Crystallographic Data Centre (CCDC).
#
# This work is licensed under the Creative Commons
# Attribution-NonCommercial-ShareAlike 4.0 International License.
# To view a copy of this license, visit
# http://creativecommons.org/licenses/by-nc-sa/4.0/
# or send a letter to
# Creative Commons, PO Box 1866, Mountain View, CA 94042, USA.
#
# CIF created using the CSD Python API on 29 September 2022
# The structure has been converted into the P1 space group
# The structure has a 3D framework
# The original CSD entry FIJFUA is in the triclinic crystal system
# The framework has been calculated to contain at least 10.0% void space
# The void calculation uses a probe of radius 1.32A, grid spacing 0.4
#
###############################################################################

data_FIJFUA
_chemical_formula_moiety         '(C60 H46 N2 O16 Tb2)n'
_symmetry_cell_setting           triclinic
_symmetry_space_group_name_H-M   'P 1'
_symmetry_Int_Tables_number      1
_space_group_name_Hall           'P 1'
loop_
_symmetry_equiv_pos_site_id
_symmetry_equiv_pos_as_xyz
1 x,y,z
_cell_length_a                   9.8294(4)
_cell_length_b                   12.1098(5)
_cell_length_c                   14.6279(6)
_cell_angle_alpha                109.7500(10)
_cell_angle_beta                 103.6130(10)
_cell_angle_gamma                100.1400(10)
_cell_volume                     1529.29
loop_
_atom_site_label
_atom_site_type_symbol
_atom_site_fract_x
_atom_site_fract_y
_atom_site_fract_z
_atom_site_U_iso_or_equiv
_atom_site_thermal_displace_type
H2 H 0.035(3) 0.199(5) 0.071(4) 0.0330 Uiso
C19 C 0.0438(5) 0.0005(4) 0.2680(3) 0.0190 Uani
C22 C 0.0092(5) 0.0004(4) 0.4527(3) 0.0213 Uani
C25 C 0.0640(5) 0.0005(4) 0.1694(4) 0.0245 Uani
Tb5 Tb 0.23970(3) 0.97874(2) 0.004694(17) 0.0181 Uani
O8 O 0.1820(3) 0.9848(3) 0.1545(2) 0.0258 Uani
C23 C 0.1187(5) 0.9544(5) 0.4186(4) 0.0260 Uani
C24 C 0.1348(5) 0.9562(4) 0.3264(4) 0.0259 Uani
H14 H 0.2091 0.9267 0.3033 0.0310 Uiso
C27 C 0.2097(6) 0.9062(6) 0.4792(4) 0.0447 Uani
H16 H 0.2852 0.8768 0.4578 0.0530 Uiso
O18 O 0.0356(3) 0.9838(3) 0.8925(2) 0.0240 Uani
C50 C 0.0639(5) 0.9548(5) 0.6979(4) 0.0267 Uani
H36 H 0.1263 0.9251 0.7380 0.0320 Uiso
C51 C 0.0818(5) 0.9529(5) 0.6058(4) 0.0272 Uani
C56 C 0.1882(6) 0.9028(6) 0.5664(4) 0.0474 Uani
H38 H 0.2453 0.8660 0.6027 0.0570 Uiso
Tb3 Tb 0.76030(3) 0.02126(2) 0.995306(17) 0.0181 Uani
O1 O 0.9524(4) 0.2076(3) 0.0518(3) 0.0273 Uani
H1 H 0.951(6) 0.247(4) 0.014(3) 0.0330 Uiso
O3 O 0.7124(3) 0.1540(3) 0.1369(2) 0.0254 Uani
O4 O 0.4798(3) 0.0684(3) 0.1108(2) 0.0255 Uani
O5 O 0.7694(3) 0.8179(3) 0.9099(2) 0.0251 Uani
O6 O 0.5836(4) 0.6816(3) 0.9105(2) 0.0318 Uani
O7 O 0.9644(3) 0.0162(3) 0.1075(2) 0.0240 Uani
C1 C 0.5133(5) 0.2005(4) 0.3168(3) 0.0211 Uani
H5 H 0.4348 0.1280 0.2802 0.0260 Uiso
C2 C 0.6138(5) 0.2323(4) 0.2703(3) 0.0197 Uani
C3 C 0.7269(5) 0.3404(4) 0.3226(4) 0.0230 Uani
H6 H 0.7961 0.3602 0.2908 0.0280 Uiso
C4 C 0.8501(6) 0.5357(5) 0.4747(4) 0.0312 Uani
H7 H 0.9157 0.5603 0.4422 0.0370 Uiso
C5 C 0.8616(6) 0.6097(5) 0.5704(4) 0.0309 Uani
H8 H 0.9374 0.6842 0.6045 0.0370 Uiso
C6 C 0.7691(5) 0.6579(4) 0.7196(3) 0.0259 Uani
H9 H 0.8423 0.7340 0.7540 0.0310 Uiso
C7 C 0.6705(5) 0.6263(4) 0.7663(3) 0.0218 Uani
C8 C 0.5612(5) 0.5149(4) 0.7160(3) 0.0244 Uani
H10 H 0.4933 0.4942 0.7483 0.0290 Uiso
C9 C 0.4393(6) 0.3192(5) 0.5643(4) 0.0347 Uani
H11 H 0.3719 0.2961 0.5961 0.0410 Uiso
C10 C 0.4282(5) 0.2441(5) 0.4690(4) 0.0310 Uani
H12 H 0.3533 0.1690 0.4351 0.0370 Uiso
C11 C 0.5279(5) 0.2756(4) 0.4175(4) 0.0254 Uani
C12 C 0.6406(5) 0.3872(4) 0.4697(3) 0.0203 Uani
C13 C 0.7398(5) 0.4197(4) 0.4206(4) 0.0238 Uani
C14 C 0.7627(5) 0.5795(4) 0.6224(4) 0.0246 Uani
C15 C 0.6523(5) 0.4653(4) 0.5706(3) 0.0215 Uani
C16 C 0.5511(5) 0.4335(4) 0.6185(4) 0.0237 Uani
C17 C 0.6007(5) 0.1464(4) 0.1646(4) 0.0227 Uani
C18 C 0.6720(5) 0.7135(5) 0.8697(4) 0.0262 Uani
C20 C 0.9361(5) 0.0452(5) 0.3021(4) 0.0267 Uani
H13 H 0.8737 0.0749 0.2620 0.0320 Uiso
C21 C 0.9182(5) 0.0471(5) 0.3942(4) 0.0272 Uani
C26 C 0.8118(6) 0.0972(6) 0.4336(4) 0.0474 Uani
H15 H 0.7547 0.1340 0.3973 0.0570 Uiso
H17 H 0.7138 0.3140 0.0424 0.0720 Uiso
H18 H 0.6847 0.4884 0.0271 0.1410 Uiso
O16 O 0.2306(3) 0.1821(3) 0.0901(2) 0.0251 Uani
O20 O 0.8180(3) 0.0152(3) 0.8455(2) 0.0258 Uani
C53 C 0.8813(5) 0.0456(5) 0.5814(4) 0.0260 Uani
C54 C 0.8652(5) 0.0438(4) 0.6736(4) 0.0259 Uani
H37 H 0.7909 0.0733 0.6967 0.0310 Uiso
C57 C 0.7903(6) 0.0938(6) 0.5208(4) 0.0447 Uani
H39 H 0.7148 0.1232 0.5422 0.0530 Uiso
O9 O 0.6594(4) 0.1624(4) 0.9377(3) 0.0354 Uani
C28 C 0.6716(7) 0.2686(8) 0.9706(6) 0.0596 Uani
N1 N 0.6282(7) 0.3290(6) 0.9107(5) 0.0690 Uani
C29 C 0.6551(12) 0.4576(7) 0.9522(8) 0.1175 Uani
H19 H 0.5661 0.4789 0.9267 0.1410 Uiso
H20 H 0.7330 0.4946 0.9314 0.1410 Uiso
C30 C 0.5755(11) 0.2591(8) 0.8004(6) 0.1058 Uani
H21 H 0.5577 0.1717 0.7860 0.1270 Uiso
H22 H 0.6488 0.2834 0.7704 0.1270 Uiso
H23 H 0.4845 0.2750 0.7706 0.1270 Uiso
O11 O 0.3468(4) 0.1057(3) 0.9254(3) 0.0252 Uani
H26 H 0.426(3) 0.092(4) 0.921(4) 0.0300 Uiso
H27 H 0.377(5) 0.178(2) 0.970(3) 0.0300 Uiso
O2 O 0.6532(4) 0.8943(3) 0.0746(3) 0.0252 Uani
H3 H 0.574(3) 0.908(4) 0.079(4) 0.0300 Uiso
H4 H 0.623(5) 0.822(2) 0.030(3) 0.0300 Uiso
C49 C 0.9562(5) 0.9995(4) 0.7320(3) 0.0190 Uani
C52 C 0.9908(5) 0.9996(4) 0.5473(3) 0.0213 Uani
C55 C 0.9360(5) 0.9995(4) 0.8306(4) 0.0245 Uani
O23 O 0.3406(4) 0.8376(4) 0.0623(3) 0.0354 Uani
C58 C 0.3284(7) 0.7314(8) 0.0294(6) 0.0596 Uani
N2 N 0.3718(7) 0.6710(6) 0.0893(5) 0.0690 Uani
C59 C 0.3449(12) 0.5424(7) 0.0478(8) 0.1175 Uani
H42 H 0.4339 0.5211 0.0733 0.1410 Uiso
H43 H 0.2670 0.5054 0.0686 0.1410 Uiso
C60 C 0.4245(11) 0.7409(8) 0.1996(6) 0.1058 Uani
H44 H 0.4423 0.8283 0.2140 0.1270 Uiso
H45 H 0.3512 0.7166 0.2296 0.1270 Uiso
H46 H 0.5155 0.7250 0.2294 0.1270 Uiso
O10 O 0.0476(4) 0.7924(3) 0.9482(3) 0.0273 Uani
H24 H 0.049(6) 0.753(4) 0.986(3) 0.0330 Uiso
O12 O 0.2876(3) 0.8460(3) 0.8631(2) 0.0254 Uani
O13 O 0.5202(3) 0.9316(3) 0.8892(2) 0.0255 Uani
O17 O 0.4164(4) 0.3184(3) 0.0895(2) 0.0318 Uani
C31 C 0.4867(5) 0.7995(4) 0.6832(3) 0.0211 Uani
H28 H 0.5652 0.8720 0.7198 0.0260 Uiso
C32 C 0.3862(5) 0.7677(4) 0.7297(3) 0.0197 Uani
C33 C 0.2731(5) 0.6596(4) 0.6774(4) 0.0230 Uani
H29 H 0.2039 0.6398 0.7092 0.0280 Uiso
C34 C 0.1499(6) 0.4643(5) 0.5253(4) 0.0312 Uani
H30 H 0.0843 0.4397 0.5578 0.0370 Uiso
C35 C 0.1384(6) 0.3903(5) 0.4296(4) 0.0309 Uani
H31 H 0.0626 0.3158 0.3955 0.0370 Uiso
C36 C 0.2309(5) 0.3421(4) 0.2804(3) 0.0259 Uani
H32 H 0.1577 0.2660 0.2460 0.0310 Uiso
C37 C 0.3295(5) 0.3737(4) 0.2337(3) 0.0218 Uani
C38 C 0.4388(5) 0.4851(4) 0.2840(3) 0.0244 Uani
H33 H 0.5067 0.5058 0.2517 0.0290 Uiso
C39 C 0.5607(6) 0.6808(5) 0.4357(4) 0.0347 Uani
H34 H 0.6281 0.7039 0.4039 0.0410 Uiso
C40 C 0.5718(5) 0.7559(5) 0.5310(4) 0.0310 Uani
H35 H 0.6467 0.8310 0.5649 0.0370 Uiso
C41 C 0.4721(5) 0.7244(4) 0.5825(4) 0.0254 Uani
C42 C 0.3594(5) 0.6128(4) 0.5303(3) 0.0203 Uani
C43 C 0.2602(5) 0.5803(4) 0.5794(4) 0.0238 Uani
C44 C 0.2373(5) 0.4205(4) 0.3776(4) 0.0246 Uani
C45 C 0.3477(5) 0.5347(4) 0.4294(3) 0.0215 Uani
C46 C 0.4489(5) 0.5665(4) 0.3815(4) 0.0237 Uani
C47 C 0.3993(5) 0.8536(4) 0.8354(4) 0.0227 Uani
C48 C 0.3280(5) 0.2865(5) 0.1303(4) 0.0262 Uani
H40 H 0.2862 0.6860 0.9576 0.0720 Uiso
H41 H 0.3153 0.5116 0.9729 0.1410 Uiso
H25 H 0.965(3) 0.801(5) 0.929(4) 0.0330 Uiso
loop_
_atom_site_aniso_label
_atom_site_aniso_U_11
_atom_site_aniso_U_22
_atom_site_aniso_U_33
_atom_site_aniso_U_23
_atom_site_aniso_U_13
_atom_site_aniso_U_12
C19 0.021 0.028 0.01 0.009 0.006 0.007
C22 0.02 0.029 0.017 0.009 0.008 0.009
C25 0.023 0.031 0.017 0.008 0.007 0.004
Tb5 0.01664 0.02467 0.01037 0.00287 0.00519 0.00659
O8 0.027 0.04 0.015 0.0104 0.0125 0.0136
C23 0.025 0.039 0.02 0.016 0.009 0.012
C24 0.025 0.04 0.022 0.015 0.014 0.017
C27 0.048 0.079 0.035 0.03 0.029 0.048
O18 0.0229 0.038 0.0136 0.0122 0.0063 0.0096
C50 0.024 0.042 0.02 0.016 0.007 0.016
C51 0.03 0.042 0.018 0.015 0.012 0.018
C56 0.051 0.091 0.036 0.043 0.027 0.052
Tb3 0.01664 0.02467 0.01037 0.00287 0.00519 0.00659
O1 0.024 0.033 0.028 0.0143 0.0092 0.0098
O3 0.0251 0.03 0.0161 0.0011 0.0096 0.0076
O4 0.0187 0.03 0.0158 -0.0018 0.0012 0.0054
O5 0.024 0.0207 0.0197 -0.0037 0.007 0.0038
O6 0.04 0.03 0.0231 0.0046 0.0186 0.0045
O7 0.0229 0.038 0.0136 0.0122 0.0063 0.0096
C1 0.017 0.024 0.015 0.001 0.002 0.006
C2 0.02 0.027 0.014 0.006 0.008 0.012
C3 0.021 0.029 0.021 0.007 0.013 0.009
C4 0.031 0.03 0.029 0.005 0.018 0.002
C5 0.031 0.025 0.026 -0.001 0.011 0.002
C6 0.027 0.025 0.016 0 0.005 0.003
C7 0.025 0.025 0.012 0.003 0.004 0.01
C8 0.025 0.03 0.018 0.007 0.009 0.009
C9 0.032 0.041 0.027 0.006 0.018 0.004
C10 0.027 0.032 0.023 0.001 0.01 -0.001
C11 0.024 0.031 0.017 0.004 0.007 0.008
C12 0.019 0.023 0.016 0.003 0.005 0.009
C13 0.022 0.027 0.017 0.002 0.005 0.009
C14 0.028 0.028 0.019 0.006 0.012 0.011
C15 0.021 0.024 0.016 0.003 0.005 0.009
C16 0.026 0.023 0.019 0.004 0.008 0.007
C17 0.029 0.024 0.019 0.008 0.009 0.016
C18 0.028 0.028 0.02 0.004 0.006 0.015
C20 0.024 0.042 0.02 0.016 0.007 0.016
C21 0.03 0.042 0.018 0.015 0.012 0.018
C26 0.051 0.091 0.036 0.043 0.027 0.052
O16 0.024 0.0207 0.0197 -0.0037 0.007 0.0038
O20 0.027 0.04 0.015 0.0104 0.0125 0.0136
C53 0.025 0.039 0.02 0.016 0.009 0.012
C54 0.025 0.04 0.022 0.015 0.014 0.017
C57 0.048 0.079 0.035 0.03 0.029 0.048
O9 0.039 0.036 0.036 0.014 0.0145 0.0192
C28 0.031 0.099 0.06 0.053 0.006 0.013
N1 0.075 0.068 0.058 0.028 0.011 0.013
C29 0.162 0.056 0.125 0.03 0.033 0.037
C30 0.151 0.1 0.062 0.033 0.022 0.039
O11 0.0218 0.027 0.0203 0.0007 0.0085 0.006
O2 0.0218 0.027 0.0203 0.0007 0.0085 0.006
C49 0.021 0.028 0.01 0.009 0.006 0.007
C52 0.02 0.029 0.017 0.009 0.008 0.009
C55 0.023 0.031 0.017 0.008 0.007 0.004
O23 0.039 0.036 0.036 0.014 0.0145 0.0192
C58 0.031 0.099 0.06 0.053 0.006 0.013
N2 0.075 0.068 0.058 0.028 0.011 0.013
C59 0.162 0.056 0.125 0.03 0.033 0.037
C60 0.151 0.1 0.062 0.033 0.022 0.039
O10 0.024 0.033 0.028 0.0143 0.0092 0.0098
O12 0.0251 0.03 0.0161 0.0011 0.0096 0.0076
O13 0.0187 0.03 0.0158 -0.0018 0.0012 0.0054
O17 0.04 0.03 0.0231 0.0046 0.0186 0.0045
C31 0.017 0.024 0.015 0.001 0.002 0.006
C32 0.02 0.027 0.014 0.006 0.008 0.012
C33 0.021 0.029 0.021 0.007 0.013 0.009
C34 0.031 0.03 0.029 0.005 0.018 0.002
C35 0.031 0.025 0.026 -0.001 0.011 0.002
C36 0.027 0.025 0.016 0 0.005 0.003
C37 0.025 0.025 0.012 0.003 0.004 0.01
C38 0.025 0.03 0.018 0.007 0.009 0.009
C39 0.032 0.041 0.027 0.006 0.018 0.004
C40 0.027 0.032 0.023 0.001 0.01 -0.001
C41 0.024 0.031 0.017 0.004 0.007 0.008
C42 0.019 0.023 0.016 0.003 0.005 0.009
C43 0.022 0.027 0.017 0.002 0.005 0.009
C44 0.028 0.028 0.019 0.006 0.012 0.011
C45 0.021 0.024 0.016 0.003 0.005 0.009
C46 0.026 0.023 0.019 0.004 0.008 0.007
C47 0.029 0.024 0.019 0.008 0.009 0.016
C48 0.028 0.028 0.02 0.004 0.006 0.015
loop_
_geom_bond_atom_site_label_1
_geom_bond_atom_site_label_2
_geom_bond_site_symmetry_1
_geom_bond_site_symmetry_2
C19 C25 1_555 1_555
H14 C24 1_555 1_555
C27 C23 1_555 1_555
H16 C27 1_555 1_555
Tb5 O8 1_555 1_555
C50 H36 1_555 1_555
C51 C50 1_555 1_555
C56 C27 1_555 1_555
H38 C56 1_555 1_555
C23 C24 1_555 1_555
C51 C56 1_555 1_555
O1 H1 1_555 1_555
O4 C17 1_555 1_555
O5 C18 1_555 1_555
O6 C18 1_555 1_555
C1 H5 1_555 1_555
C2 C1 1_555 1_555
C3 C2 1_555 1_555
H6 C3 1_555 1_555
C4 H7 1_555 1_555
C5 C4 1_555 1_555
H8 C5 1_555 1_555
C6 H9 1_555 1_555
C7 C6 1_555 1_555
C8 C7 1_555 1_555
H10 C8 1_555 1_555
C9 H11 1_555 1_555
C10 C9 1_555 1_555
H12 C10 1_555 1_555
C11 C1 1_555 1_555
C12 C11 1_555 1_555
C13 C3 1_555 1_555
C14 C5 1_555 1_555
C15 C12 1_555 1_555
C16 C8 1_555 1_555
C17 O3 1_555 1_555
C18 C7 1_555 1_555
C20 H13 1_555 1_555
C21 C20 1_555 1_555
C26 C21 1_555 1_555
H15 C26 1_555 1_555
Tb3 O20 1_555 1_555
H37 C54 1_555 1_555
C57 C26 1_555 1_555
H39 C57 1_555 1_555
C2 C17 1_555 1_555
C4 C13 1_555 1_555
C6 C14 1_555 1_555
C9 C16 1_555 1_555
C10 C11 1_555 1_555
C12 C13 1_555 1_555
C14 C15 1_555 1_555
C15 C16 1_555 1_555
C53 C54 1_555 1_555
C53 C57 1_555 1_555
O9 Tb3 1_555 1_555
C28 O9 1_555 1_555
N1 C28 1_555 1_555
C29 N1 1_555 1_555
H19 C29 1_555 1_555
H20 C29 1_555 1_555
C30 N1 1_555 1_555
H21 C30 1_555 1_555
H22 C30 1_555 1_555
H23 C30 1_555 1_555
H26 O11 1_555 1_555
H27 O11 1_555 1_555
H3 O2 1_555 1_555
H4 O2 1_555 1_555
C55 C49 1_555 1_555
O23 Tb5 1_555 1_555
C58 O23 1_555 1_555
N2 C58 1_555 1_555
C59 N2 1_555 1_555
H42 C59 1_555 1_555
H43 C59 1_555 1_555
C60 N2 1_555 1_555
H44 C60 1_555 1_555
H45 C60 1_555 1_555
H46 C60 1_555 1_555
H24 O10 1_555 1_555
O16 C48 1_555 1_555
O17 C48 1_555 1_555
C31 H28 1_555 1_555
C32 C31 1_555 1_555
C33 C32 1_555 1_555
H29 C33 1_555 1_555
C34 H30 1_555 1_555
C35 C34 1_555 1_555
H31 C35 1_555 1_555
C36 H32 1_555 1_555
C37 C36 1_555 1_555
C38 C37 1_555 1_555
H33 C38 1_555 1_555
C39 H34 1_555 1_555
C40 C39 1_555 1_555
H35 C40 1_555 1_555
C41 C31 1_555 1_555
C42 C41 1_555 1_555
C43 C33 1_555 1_555
C44 C35 1_555 1_555
C45 C42 1_555 1_555
C46 C38 1_555 1_555
C47 O12 1_555 1_555
C48 C37 1_555 1_555
O13 C47 1_555 1_555
C32 C47 1_555 1_555
C34 C43 1_555 1_555
C36 C44 1_555 1_555
C39 C46 1_555 1_555
C40 C41 1_555 1_555
C42 C43 1_555 1_555
C44 C45 1_555 1_555
C45 C46 1_555 1_555

#END
