
###############################################################################
#
# This file contains modified crystal structure data generated from the
# MOF subset of the Cambridge Structural Database (CSD) v543 
# hosted by the Cambridge Crystallographic Data Centre (CCDC).
#
# This work is licensed under the Creative Commons
# Attribution-NonCommercial-ShareAlike 4.0 International License.
# To view a copy of this license, visit
# http://creativecommons.org/licenses/by-nc-sa/4.0/
# or send a letter to
# Creative Commons, PO Box 1866, Mountain View, CA 94042, USA.
#
# CIF created using the CSD Python API on 29 September 2022
# The structure has been converted into the P1 space group
# The structure has a 3D framework
# The original CSD entry FIJRAS is in the orthorhombic crystal system
# The framework has been calculated to contain at least 10.0% void space
# The void calculation uses a probe of radius 1.32A, grid spacing 0.4
#
###############################################################################

data_FIJRAS
_chemical_formula_moiety         '(C208 H128 Ag30 F96 O64)n'
_symmetry_cell_setting           triclinic
_symmetry_space_group_name_H-M   'P 1'
_symmetry_Int_Tables_number      1
_space_group_name_Hall           'P 1'
loop_
_symmetry_equiv_pos_site_id
_symmetry_equiv_pos_as_xyz
1 x,y,z
_cell_length_a                   34.878(3)
_cell_length_b                   9.4075(8)
_cell_length_c                   20.312(2)
_cell_angle_alpha                90
_cell_angle_beta                 90
_cell_angle_gamma                90
_cell_volume                     6664.67
loop_
_atom_site_label
_atom_site_type_symbol
_atom_site_fract_x
_atom_site_fract_y
_atom_site_fract_z
Ag2 Ag 0.36458(3) 0.09094(8) 0.12572(4)
F1 F 0.2857(2) 0.1735(8) 0.3313(4)
F2 F 0.2914(2) 0.1710(8) 0.2295(4)
F3 F 0.2988(2) 0.4272(6) 0.2818(6)
F4 F 0.3516(5) 0.3342(8) 0.2194(5)
F5 F 0.3879(2) 0.3063(6) 0.3295(5)
F6 F 0.3344(3) 0.3502(10) 0.3847(3)
O1 O 0.3547(2) 0.0173(6) 0.2379(3)
O2 O 0.3463(2) 0.0176(6) 0.3463(3)
O3 O 0.3696(3) 0.5944(8) 0.2592(4)
O4 O 0.3767(2) 0.5990(6) 0.3679(3)
C3 C 0.4557(3) 0.052(1) 0.3180(5)
C4 C 0.4581(2) 0.1330(8) 0.2616(5)
C5 C 0.4548(2) 0.0621(9) 0.2035(4)
C8 C 0.4710(3) 0.2876(8) 0.2639(6)
C9 C 0.3411(2) 0.0606(7) 0.2904(4)
C10 C 0.3120(2) 0.1839(8) 0.2854(4)
C11 C 0.3269(3) 0.330(1) 0.289(2)
C12 C 0.3589(3) 0.3835(10) 0.3175(7)
C13 C 0.3700(2) 0.5433(8) 0.3139(4)
H2 H 0.4524 0.0987 0.3591
H3 H 0.4505 0.1145 0.1642
H7 H 0.4581 0.3387 0.2302
H8 H 0.4644 0.3262 0.3056
Ag4 Ag 0.39273(2) 0.81047(7) 0.23413(3)
Ag5 Ag 0.35727(2) 0.56047(7) 0.48413(3)
Ag6 Ag 0.60727(2) 0.18953(7) 0.23413(3)
Ag10 Ag 0.38542(3) 0.84094(8) 0.37572(4)
O7 O 0.4037(2) 0.2676(6) 0.0963(3)
C14 C 0.5371(2) 0.1663(7) 0.2567(4)
C16 C 0.5421(2) 0.0960(10) 0.3169(4)
C20 C 0.5425(2) 0.0858(9) 0.2002(4)
C21 C 0.5155(2) 0.3049(9) 0.2534(5)
H9 H 0.5440 0.1487 0.3567
H12 H 0.5443 0.1319 0.1587
H13 H 0.5251 0.3663 0.2867
H14 H 0.5197 0.3464 0.2114
C1 C 0.4629(2) 0.8337(7) 0.2567(4)
C2 C 0.4579(2) 0.9040(10) 0.3169(4)
C6 C 0.4575(2) 0.9142(9) 0.2002(4)
C7 C 0.4845(2) 0.6951(9) 0.2534(5)
H1 H 0.4560 0.8513 0.3567
H4 H 0.4557 0.8681 0.1587
H5 H 0.4749 0.6337 0.2867
H6 H 0.4803 0.6536 0.2114
O12 O 0.3733(2) 0.8490(6) 0.1179(3)
C17 C 0.5443(3) 0.948(1) 0.3180(5)
C18 C 0.5419(2) 0.8670(8) 0.2616(5)
C19 C 0.5452(2) 0.9379(9) 0.2035(4)
C22 C 0.5290(3) 0.7124(8) 0.2639(6)
H10 H 0.5476 0.9013 0.3591
H11 H 0.5495 0.8855 0.1642
H15 H 0.5419 0.6613 0.2302
H16 H 0.5356 0.6738 0.3056
Ag11 Ag 0.61458(3) 0.15906(8) 0.37572(4)
O10 O 0.6304(3) 0.4056(8) 0.2592(4)
O13 O 0.6267(2) 0.1510(6) 0.1179(3)
Ag7 Ag 0.64273(2) 0.43953(7) 0.48413(3)
Ag8 Ag 0.63542(3) 0.90906(8) 0.12572(4)
F7 F 0.7143(2) 0.8265(8) 0.3313(4)
F8 F 0.7086(2) 0.8290(8) 0.2295(4)
F9 F 0.7012(2) 0.5728(6) 0.2818(6)
F10 F 0.6484(5) 0.6658(8) 0.2194(5)
F11 F 0.6121(2) 0.6937(6) 0.3295(5)
F12 F 0.6656(3) 0.6498(10) 0.3847(3)
O5 O 0.6453(2) 0.9827(6) 0.2379(3)
O6 O 0.6537(2) 0.9824(6) 0.3463(3)
O8 O 0.5963(2) 0.7324(6) 0.0963(3)
O11 O 0.6233(2) 0.4010(6) 0.3679(3)
C23 C 0.6589(2) 0.9394(7) 0.2904(4)
C24 C 0.6880(2) 0.8161(8) 0.2854(4)
C25 C 0.6731(3) 0.670(1) 0.289(2)
C26 C 0.6411(3) 0.6165(10) 0.3175(7)
C27 C 0.6300(2) 0.4567(8) 0.3139(4)
Ag4_2 Ag 0.85727(2) 0.06047(7) 0.48413(3)
Ag10_2 Ag 0.86458(3) 0.09094(8) 0.62572(4)
Ag2_2 Ag 0.88542(3) 0.34094(8) 0.37572(4)
F1_2 F 0.9643(2) 0.4235(8) 0.5813(4)
F2_2 F 0.9586(2) 0.4210(8) 0.4795(4)
F3_2 F 0.9512(2) 0.6772(6) 0.5318(6)
F4_2 F 0.8984(5) 0.5842(8) 0.4694(5)
F5_2 F 0.8621(2) 0.5563(6) 0.5795(5)
F6_2 F 0.9156(3) 0.6002(10) 0.6347(3)
O1_2 O 0.8953(2) 0.2673(6) 0.4879(3)
O2_2 O 0.9037(2) 0.2676(6) 0.5963(3)
O3_2 O 0.8804(3) 0.8444(8) 0.5092(4)
O4_2 O 0.8733(2) 0.8490(6) 0.6179(3)
C1_2 C 0.7871(2) 0.0837(7) 0.5067(4)
C2_2 C 0.7921(2) 0.1540(10) 0.5669(4)
C3_2 C 0.7943(3) 0.302(1) 0.5680(5)
C4_2 C 0.7919(2) 0.3830(8) 0.5116(5)
C5_2 C 0.7952(2) 0.3121(9) 0.4535(4)
C6_2 C 0.7925(2) 0.1642(9) 0.4502(4)
C8_2 C 0.7790(3) 0.5376(8) 0.5139(6)
C9_2 C 0.9089(2) 0.3106(7) 0.5404(4)
C10_2 C 0.9380(2) 0.4339(8) 0.5354(4)
C11_2 C 0.9231(3) 0.580(1) 0.539(2)
C12_2 C 0.8911(3) 0.6335(10) 0.5675(7)
C13_2 C 0.8800(2) 0.7933(8) 0.5639(4)
H1_2 H 0.7940 0.1013 0.6067
H2_2 H 0.7976 0.3487 0.6091
H3_2 H 0.7995 0.3645 0.4142
H4_2 H 0.7943 0.1181 0.4087
H7_2 H 0.7919 0.5887 0.4802
H8_2 H 0.7856 0.5762 0.5556
Ag5_2 Ag 0.89273(2) 0.81047(7) 0.73413(3)
O7_2 O 0.8463(2) 0.5176(6) 0.3463(3)
O12_2 O 0.8767(2) 0.0990(6) 0.3679(3)
C14_2 C 0.7129(2) 0.4163(7) 0.5067(4)
C16_2 C 0.7079(2) 0.3460(10) 0.5669(4)
C17_2 C 0.7057(3) 0.198(1) 0.5680(5)
C18_2 C 0.7081(2) 0.1170(8) 0.5116(5)
C19_2 C 0.7048(2) 0.1879(9) 0.4535(4)
C20_2 C 0.7075(2) 0.3358(9) 0.4502(4)
C21_2 C 0.7345(2) 0.5549(9) 0.5034(5)
H9_2 H 0.7060 0.3987 0.6067
H10_2 H 0.7024 0.1513 0.6091
H11_2 H 0.7005 0.1355 0.4142
H12_2 H 0.7057 0.3819 0.4087
H13_2 H 0.7249 0.6163 0.5367
H14_2 H 0.7303 0.5964 0.4614
C7_2 C 0.7655(2) 0.9451(9) 0.5034(5)
H5_2 H 0.7751 0.8837 0.5367
H6_2 H 0.7697 0.9036 0.4614
C22_2 C 0.7210(3) 0.9624(8) 0.5139(6)
H15_2 H 0.7081 0.9113 0.4802
H16_2 H 0.7144 0.9238 0.5556
Ag11_2 Ag 0.63542(3) 0.40906(8) 0.62572(4)
F7_2 F 0.5357(2) 0.0765(8) 0.5813(4)
F8_2 F 0.5414(2) 0.0790(8) 0.4795(4)
O5_2 O 0.6047(2) 0.2327(6) 0.4879(3)
O6_2 O 0.5963(2) 0.2324(6) 0.5963(3)
O10_2 O 0.6196(3) 0.6556(8) 0.5092(4)
C23_2 C 0.5911(2) 0.1894(7) 0.5404(4)
C24_2 C 0.5620(2) 0.0661(8) 0.5354(4)
Ag7_2 Ag 0.60727(2) 0.68953(7) 0.73413(3)
F9_2 F 0.5488(2) 0.8228(6) 0.5318(6)
F10_2 F 0.6016(5) 0.9158(8) 0.4694(5)
F11_2 F 0.6379(2) 0.9437(6) 0.5795(5)
F12_2 F 0.5844(3) 0.8998(10) 0.6347(3)
O11_2 O 0.6267(2) 0.6510(6) 0.6179(3)
C25_2 C 0.5769(3) 0.920(1) 0.539(2)
C26_2 C 0.6089(3) 0.8665(10) 0.5675(7)
C27_2 C 0.6200(2) 0.7067(8) 0.5639(4)
O3_3 O 0.3696(3) 0.0944(8) 0.7592(4)
O4_3 O 0.3767(2) 0.0990(6) 0.8679(3)
C13_3 C 0.3700(2) 0.0433(8) 0.8139(4)
Ag4_3 Ag 0.39273(2) 0.31047(7) 0.73413(3)
Ag5_3 Ag 0.35727(2) 0.06047(7) 0.98413(3)
Ag10_3 Ag 0.38542(3) 0.34094(8) 0.87572(4)
Ag2_3 Ag 0.36458(3) 0.59094(8) 0.62572(4)
F1_3 F 0.2857(2) 0.6735(8) 0.8313(4)
F2_3 F 0.2914(2) 0.6710(8) 0.7295(4)
F3_3 F 0.2988(2) 0.9272(6) 0.7818(6)
F4_3 F 0.3516(5) 0.8342(8) 0.7194(5)
F5_3 F 0.3879(2) 0.8063(6) 0.8295(5)
F6_3 F 0.3344(3) 0.8502(10) 0.8847(3)
O1_3 O 0.3547(2) 0.5173(6) 0.7379(3)
O2_3 O 0.3463(2) 0.5176(6) 0.8463(3)
C1_3 C 0.4629(2) 0.3337(7) 0.7567(4)
C2_3 C 0.4579(2) 0.4040(10) 0.8169(4)
C3_3 C 0.4557(3) 0.552(1) 0.8180(5)
C4_3 C 0.4581(2) 0.6330(8) 0.7616(5)
C5_3 C 0.4548(2) 0.5621(9) 0.7035(4)
C6_3 C 0.4575(2) 0.4142(9) 0.7002(4)
C7_3 C 0.4845(2) 0.1951(9) 0.7534(5)
C8_3 C 0.4710(3) 0.7876(8) 0.7639(6)
C9_3 C 0.3411(2) 0.5606(7) 0.7904(4)
C10_3 C 0.3120(2) 0.6839(8) 0.7854(4)
C11_3 C 0.3269(3) 0.830(1) 0.789(2)
C12_3 C 0.3589(3) 0.8835(10) 0.8175(7)
H1_3 H 0.4560 0.3513 0.8567
H2_3 H 0.4524 0.5987 0.8591
H3_3 H 0.4505 0.6145 0.6642
H4_3 H 0.4557 0.3681 0.6587
H5_3 H 0.4749 0.1337 0.7867
H6_3 H 0.4803 0.1536 0.7114
H7_3 H 0.4581 0.8387 0.7302
H8_3 H 0.4644 0.8262 0.8056
O7_3 O 0.4037(2) 0.7676(6) 0.5963(3)
O12_3 O 0.3733(2) 0.3490(6) 0.6179(3)
C14_3 C 0.5371(2) 0.6663(7) 0.7567(4)
C16_3 C 0.5421(2) 0.5960(10) 0.8169(4)
C17_3 C 0.5443(3) 0.448(1) 0.8180(5)
C18_3 C 0.5419(2) 0.3670(8) 0.7616(5)
C19_3 C 0.5452(2) 0.4379(9) 0.7035(4)
C20_3 C 0.5425(2) 0.5858(9) 0.7002(4)
C21_3 C 0.5155(2) 0.8049(9) 0.7534(5)
C22_3 C 0.5290(3) 0.2124(8) 0.7639(6)
H9_3 H 0.5440 0.6487 0.8567
H10_3 H 0.5476 0.4013 0.8591
H11_3 H 0.5495 0.3855 0.6642
H12_3 H 0.5443 0.6319 0.6587
H13_3 H 0.5251 0.8663 0.7867
H14_3 H 0.5197 0.8464 0.7114
H15_3 H 0.5419 0.1613 0.7302
H16_3 H 0.5356 0.1738 0.8056
Ag11_3 Ag 0.61458(3) 0.65906(8) 0.87572(4)
F7_3 F 0.7143(2) 0.3265(8) 0.8313(4)
F8_3 F 0.7086(2) 0.3290(8) 0.7295(4)
F9_3 F 0.7012(2) 0.0728(6) 0.7818(6)
F10_3 F 0.6484(5) 0.1658(8) 0.7194(5)
F11_3 F 0.6121(2) 0.1937(6) 0.8295(5)
F12_3 F 0.6656(3) 0.1498(10) 0.8847(3)
O5_3 O 0.6453(2) 0.4827(6) 0.7379(3)
O6_3 O 0.6537(2) 0.4824(6) 0.8463(3)
O10_3 O 0.6304(3) 0.9056(8) 0.7592(4)
C23_3 C 0.6589(2) 0.4394(7) 0.7904(4)
C24_3 C 0.6880(2) 0.3161(8) 0.7854(4)
C25_3 C 0.6731(3) 0.170(1) 0.789(2)
C26_3 C 0.6411(3) 0.1165(10) 0.8175(7)
Ag7_3 Ag 0.64273(2) 0.93953(7) 0.98413(3)
O11_3 O 0.6233(2) 0.9010(6) 0.8679(3)
C27_3 C 0.6300(2) 0.9567(8) 0.8139(4)
F3_4 F 0.9512(2) 0.1772(6) 0.0318(6)
F5_4 F 0.8621(2) 0.0563(6) 0.0795(5)
F6_4 F 0.9156(3) 0.1002(10) 0.1347(3)
O3_4 O 0.8804(3) 0.3444(8) 0.0092(4)
O4_4 O 0.8733(2) 0.3490(6) 0.1179(3)
C8_4 C 0.7790(3) 0.0376(8) 0.0139(6)
C11_4 C 0.9231(3) 0.080(1) 0.039(2)
C12_4 C 0.8911(3) 0.1335(10) 0.0675(7)
C13_4 C 0.8800(2) 0.2933(8) 0.0639(4)
H8_4 H 0.7856 0.0762 0.0556
Ag5_4 Ag 0.89273(2) 0.31047(7) 0.23413(3)
Ag10_4 Ag 0.86458(3) 0.59094(8) 0.12572(4)
C21_4 C 0.7345(2) 0.0549(9) 0.0034(5)
H13_4 H 0.7249 0.1163 0.0367
F4_4 F 0.8984(5) 0.0842(8) 0.9694(5)
H7_4 H 0.7919 0.0887 0.9802
Ag4_4 Ag 0.85727(2) 0.56047(7) 0.98413(3)
O7_4 O 0.8463(2) 0.0176(6) 0.8463(3)
H14_4 H 0.7303 0.0964 0.9614
F1_4 F 0.9643(2) 0.9235(8) 0.0813(4)
O2_4 O 0.9037(2) 0.7676(6) 0.0963(3)
C1_4 C 0.7871(2) 0.5837(7) 0.0067(4)
C2_4 C 0.7921(2) 0.6540(10) 0.0669(4)
C3_4 C 0.7943(3) 0.802(1) 0.0680(5)
C4_4 C 0.7919(2) 0.8830(8) 0.0116(5)
C7_4 C 0.7655(2) 0.4451(9) 0.0034(5)
C9_4 C 0.9089(2) 0.8106(7) 0.0404(4)
C10_4 C 0.9380(2) 0.9339(8) 0.0354(4)
H1_4 H 0.7940 0.6013 0.1067
H2_4 H 0.7976 0.8487 0.1091
H5_4 H 0.7751 0.3837 0.0367
C14_4 C 0.7129(2) 0.9163(7) 0.0067(4)
C16_4 C 0.7079(2) 0.8460(10) 0.0669(4)
C17_4 C 0.7057(3) 0.698(1) 0.0680(5)
C18_4 C 0.7081(2) 0.6170(8) 0.0116(5)
C22_4 C 0.7210(3) 0.4624(8) 0.0139(6)
H9_4 H 0.7060 0.8987 0.1067
H10_4 H 0.7024 0.6513 0.1091
H16_4 H 0.7144 0.4238 0.0556
Ag2_4 Ag 0.88542(3) 0.84094(8) 0.87572(4)
F2_4 F 0.9586(2) 0.9210(8) 0.9795(4)
O1_4 O 0.8953(2) 0.7673(6) 0.9879(3)
C5_4 C 0.7952(2) 0.8121(9) 0.9535(4)
C6_4 C 0.7925(2) 0.6642(9) 0.9502(4)
H3_4 H 0.7995 0.8645 0.9142
H4_4 H 0.7943 0.6181 0.9087
H6_4 H 0.7697 0.4036 0.9614
O12_4 O 0.8767(2) 0.5990(6) 0.8679(3)
C19_4 C 0.7048(2) 0.6879(9) 0.9535(4)
C20_4 C 0.7075(2) 0.8358(9) 0.9502(4)
H11_4 H 0.7005 0.6355 0.9142
H12_4 H 0.7057 0.8819 0.9087
H15_4 H 0.7081 0.4113 0.9802
O10_4 O 0.6196(3) 0.1556(8) 0.0092(4)
F7_4 F 0.5357(2) 0.5765(8) 0.0813(4)
F9_4 F 0.5488(2) 0.3228(6) 0.0318(6)
F11_4 F 0.6379(2) 0.4437(6) 0.0795(5)
F12_4 F 0.5844(3) 0.3998(10) 0.1347(3)
C23_4 C 0.5911(2) 0.6894(7) 0.0404(4)
C24_4 C 0.5620(2) 0.5661(8) 0.0354(4)
C25_4 C 0.5769(3) 0.420(1) 0.039(2)
C26_4 C 0.6089(3) 0.3665(10) 0.0675(7)
C27_4 C 0.6200(2) 0.2067(8) 0.0639(4)
F8_4 F 0.5414(2) 0.5790(8) 0.9795(4)
F10_4 F 0.6016(5) 0.4158(8) 0.9694(5)
O5_4 O 0.6047(2) 0.7327(6) 0.9879(3)
Ag6_2 Ag 0.10727(2) 0.18953(7) 0.73413(3)
C14_5 C 0.0371(2) 0.1663(7) 0.7567(4)
C16_5 C 0.0421(2) 0.0960(10) 0.8169(4)
C20_5 C 0.0425(2) 0.0858(9) 0.7002(4)
C21_5 C 0.0155(2) 0.3049(9) 0.7534(5)
H9_5 H 0.0440 0.1487 0.8567
H12_5 H 0.0443 0.1319 0.6587
H13_5 H 0.0251 0.3663 0.7867
H14_5 H 0.0197 0.3464 0.7114
C17_5 C 0.0443(3) 0.948(1) 0.8180(5)
C18_5 C 0.0419(2) 0.8670(8) 0.7616(5)
C19_5 C 0.0452(2) 0.9379(9) 0.7035(4)
C22_5 C 0.0290(3) 0.7124(8) 0.7639(6)
H10_5 H 0.0476 0.9013 0.8591
H11_5 H 0.0495 0.8855 0.6642
H15_5 H 0.0419 0.6613 0.7302
H16_5 H 0.0356 0.6738 0.8056
F1_5 F 0.7857(2) 0.1735(8) 0.8313(4)
F2_5 F 0.7914(2) 0.1710(8) 0.7295(4)
F3_5 F 0.7988(2) 0.4272(6) 0.7818(6)
F4_5 F 0.8516(5) 0.3342(8) 0.7194(5)
F5_5 F 0.8879(2) 0.3063(6) 0.8295(5)
F6_5 F 0.8344(3) 0.3502(10) 0.8847(3)
O1_5 O 0.8547(2) 0.0173(6) 0.7379(3)
O3_5 O 0.8696(3) 0.5944(8) 0.7592(4)
C3_5 C 0.9557(3) 0.052(1) 0.8180(5)
C4_5 C 0.9581(2) 0.1330(8) 0.7616(5)
C5_5 C 0.9548(2) 0.0621(9) 0.7035(4)
C8_5 C 0.9710(3) 0.2876(8) 0.7639(6)
C9_5 C 0.8411(2) 0.0606(7) 0.7904(4)
C10_5 C 0.8120(2) 0.1839(8) 0.7854(4)
C11_5 C 0.8269(3) 0.330(1) 0.789(2)
C12_5 C 0.8589(3) 0.3835(10) 0.8175(7)
C13_5 C 0.8700(2) 0.5433(8) 0.8139(4)
H2_5 H 0.9524 0.0987 0.8591
H3_5 H 0.9505 0.1145 0.6642
H7_5 H 0.9581 0.3387 0.7302
H8_5 H 0.9644 0.3262 0.8056
C1_5 C 0.9629(2) 0.8337(7) 0.7567(4)
C2_5 C 0.9579(2) 0.9040(10) 0.8169(4)
C6_5 C 0.9575(2) 0.9142(9) 0.7002(4)
C7_5 C 0.9845(2) 0.6951(9) 0.7534(5)
H1_5 H 0.9560 0.8513 0.8567
H4_5 H 0.9557 0.8681 0.6587
H5_5 H 0.9749 0.6337 0.7867
H6_5 H 0.9803 0.6536 0.7114
Ag11_4 Ag 0.11458(3) 0.15906(8) 0.87572(4)
O10_5 O 0.1304(3) 0.4056(8) 0.7592(4)
O13_2 O 0.1267(2) 0.1510(6) 0.6179(3)
Ag7_4 Ag 0.14273(2) 0.43953(7) 0.98413(3)
Ag8_2 Ag 0.13542(3) 0.90906(8) 0.62572(4)
F7_5 F 0.2143(2) 0.8265(8) 0.8313(4)
F8_5 F 0.2086(2) 0.8290(8) 0.7295(4)
F9_5 F 0.2012(2) 0.5728(6) 0.7818(6)
F10_5 F 0.1484(5) 0.6658(8) 0.7194(5)
F11_5 F 0.1121(2) 0.6937(6) 0.8295(5)
F12_5 F 0.1656(3) 0.6498(10) 0.8847(3)
O5_5 O 0.1453(2) 0.9827(6) 0.7379(3)
O6_4 O 0.1537(2) 0.9824(6) 0.8463(3)
O8_2 O 0.0963(2) 0.7324(6) 0.5963(3)
O11_4 O 0.1233(2) 0.4010(6) 0.8679(3)
C23_5 C 0.1589(2) 0.9394(7) 0.7904(4)
C24_5 C 0.1880(2) 0.8161(8) 0.7854(4)
C25_5 C 0.1731(3) 0.670(1) 0.789(2)
C26_5 C 0.1411(3) 0.6165(10) 0.8175(7)
C27_5 C 0.1300(2) 0.4567(8) 0.8139(4)
F1_6 F 0.4643(2) 0.4235(8) 0.0813(4)
F3_6 F 0.4512(2) 0.6772(6) 0.0318(6)
F5_6 F 0.3621(2) 0.5563(6) 0.0795(5)
F6_6 F 0.4156(3) 0.6002(10) 0.1347(3)
O3_6 O 0.3804(3) 0.8444(8) 0.0092(4)
C1_6 C 0.2871(2) 0.0837(7) 0.0067(4)
C2_6 C 0.2921(2) 0.1540(10) 0.0669(4)
C3_6 C 0.2943(3) 0.302(1) 0.0680(5)
C4_6 C 0.2919(2) 0.3830(8) 0.0116(5)
C8_6 C 0.2790(3) 0.5376(8) 0.0139(6)
C9_6 C 0.4089(2) 0.3106(7) 0.0404(4)
C10_6 C 0.4380(2) 0.4339(8) 0.0354(4)
C11_6 C 0.4231(3) 0.580(1) 0.039(2)
C12_6 C 0.3911(3) 0.6335(10) 0.0675(7)
C13_6 C 0.3800(2) 0.7933(8) 0.0639(4)
H1_6 H 0.2940 0.1013 0.1067
H2_6 H 0.2976 0.3487 0.1091
H8_6 H 0.2856 0.5762 0.0556
C14_6 C 0.2129(2) 0.4163(7) 0.0067(4)
C16_6 C 0.2079(2) 0.3460(10) 0.0669(4)
C17_6 C 0.2057(3) 0.198(1) 0.0680(5)
C18_6 C 0.2081(2) 0.1170(8) 0.0116(5)
C21_6 C 0.2345(2) 0.5549(9) 0.0034(5)
H9_6 H 0.2060 0.3987 0.1067
H10_6 H 0.2024 0.1513 0.1091
H13_6 H 0.2249 0.6163 0.0367
F2_6 F 0.4586(2) 0.4210(8) 0.9795(4)
F4_6 F 0.3984(5) 0.5842(8) 0.9694(5)
O1_6 O 0.3953(2) 0.2673(6) 0.9879(3)
C5_6 C 0.2952(2) 0.3121(9) 0.9535(4)
C6_6 C 0.2925(2) 0.1642(9) 0.9502(4)
H3_6 H 0.2995 0.3645 0.9142
H4_6 H 0.2943 0.1181 0.9087
H7_6 H 0.2919 0.5887 0.9802
C19_6 C 0.2048(2) 0.1879(9) 0.9535(4)
C20_6 C 0.2075(2) 0.3358(9) 0.9502(4)
H11_6 H 0.2005 0.1355 0.9142
H12_6 H 0.2057 0.3819 0.9087
H14_6 H 0.2303 0.5964 0.9614
C7_6 C 0.2655(2) 0.9451(9) 0.0034(5)
H5_6 H 0.2751 0.8837 0.0367
C22_6 C 0.2210(3) 0.9624(8) 0.0139(6)
H16_6 H 0.2144 0.9238 0.0556
H6_6 H 0.2697 0.9036 0.9614
H15_6 H 0.2081 0.9113 0.9802
Ag11_5 Ag 0.13542(3) 0.40906(8) 0.12572(4)
F7_6 F 0.0357(2) 0.0765(8) 0.0813(4)
O6_5 O 0.0963(2) 0.2324(6) 0.0963(3)
O10_6 O 0.1196(3) 0.6556(8) 0.0092(4)
C23_6 C 0.0911(2) 0.1894(7) 0.0404(4)
C24_6 C 0.0620(2) 0.0661(8) 0.0354(4)
F8_6 F 0.0414(2) 0.0790(8) 0.9795(4)
O5_6 O 0.1047(2) 0.2327(6) 0.9879(3)
Ag7_5 Ag 0.10727(2) 0.68953(7) 0.23413(3)
F9_6 F 0.0488(2) 0.8228(6) 0.0318(6)
F11_6 F 0.1379(2) 0.9437(6) 0.0795(5)
F12_6 F 0.0844(3) 0.8998(10) 0.1347(3)
O11_5 O 0.1267(2) 0.6510(6) 0.1179(3)
C25_6 C 0.0769(3) 0.920(1) 0.039(2)
C26_6 C 0.1089(3) 0.8665(10) 0.0675(7)
C27_6 C 0.1200(2) 0.7067(8) 0.0639(4)
F10_6 F 0.1016(5) 0.9158(8) 0.9694(5)
C14_7 C 0.0371(2) 0.6663(7) 0.2567(4)
C16_7 C 0.0421(2) 0.5960(10) 0.3169(4)
C17_7 C 0.0443(3) 0.448(1) 0.3180(5)
C18_7 C 0.0419(2) 0.3670(8) 0.2616(5)
C19_7 C 0.0452(2) 0.4379(9) 0.2035(4)
C20_7 C 0.0425(2) 0.5858(9) 0.2002(4)
C21_7 C 0.0155(2) 0.8049(9) 0.2534(5)
C22_7 C 0.0290(3) 0.2124(8) 0.2639(6)
H9_7 H 0.0440 0.6487 0.3567
H10_7 H 0.0476 0.4013 0.3591
H11_7 H 0.0495 0.3855 0.1642
H12_7 H 0.0443 0.6319 0.1587
H13_7 H 0.0251 0.8663 0.2867
H14_7 H 0.0197 0.8464 0.2114
H15_7 H 0.0419 0.1613 0.2302
H16_7 H 0.0356 0.1738 0.3056
O3_7 O 0.8696(3) 0.0944(8) 0.2592(4)
C13_7 C 0.8700(2) 0.0433(8) 0.3139(4)
F1_7 F 0.7857(2) 0.6735(8) 0.3313(4)
F2_7 F 0.7914(2) 0.6710(8) 0.2295(4)
F3_7 F 0.7988(2) 0.9272(6) 0.2818(6)
F4_7 F 0.8516(5) 0.8342(8) 0.2194(5)
F5_7 F 0.8879(2) 0.8063(6) 0.3295(5)
F6_7 F 0.8344(3) 0.8502(10) 0.3847(3)
O1_7 O 0.8547(2) 0.5173(6) 0.2379(3)
C1_7 C 0.9629(2) 0.3337(7) 0.2567(4)
C2_7 C 0.9579(2) 0.4040(10) 0.3169(4)
C3_7 C 0.9557(3) 0.552(1) 0.3180(5)
C4_7 C 0.9581(2) 0.6330(8) 0.2616(5)
C5_7 C 0.9548(2) 0.5621(9) 0.2035(4)
C6_7 C 0.9575(2) 0.4142(9) 0.2002(4)
C7_7 C 0.9845(2) 0.1951(9) 0.2534(5)
C8_7 C 0.9710(3) 0.7876(8) 0.2639(6)
C9_7 C 0.8411(2) 0.5606(7) 0.2904(4)
C10_7 C 0.8120(2) 0.6839(8) 0.2854(4)
C11_7 C 0.8269(3) 0.830(1) 0.289(2)
C12_7 C 0.8589(3) 0.8835(10) 0.3175(7)
H1_7 H 0.9560 0.3513 0.3567
H2_7 H 0.9524 0.5987 0.3591
H3_7 H 0.9505 0.6145 0.1642
H4_7 H 0.9557 0.3681 0.1587
H5_7 H 0.9749 0.1337 0.2867
H6_7 H 0.9803 0.1536 0.2114
H7_7 H 0.9581 0.8387 0.2302
H8_7 H 0.9644 0.8262 0.3056
Ag11_6 Ag 0.11458(3) 0.65906(8) 0.37572(4)
F7_7 F 0.2143(2) 0.3265(8) 0.3313(4)
F8_7 F 0.2086(2) 0.3290(8) 0.2295(4)
F9_7 F 0.2012(2) 0.0728(6) 0.2818(6)
F10_7 F 0.1484(5) 0.1658(8) 0.2194(5)
F11_7 F 0.1121(2) 0.1937(6) 0.3295(5)
F12_7 F 0.1656(3) 0.1498(10) 0.3847(3)
O5_7 O 0.1453(2) 0.4827(6) 0.2379(3)
O6_6 O 0.1537(2) 0.4824(6) 0.3463(3)
O10_7 O 0.1304(3) 0.9056(8) 0.2592(4)
C23_7 C 0.1589(2) 0.4394(7) 0.2904(4)
C24_7 C 0.1880(2) 0.3161(8) 0.2854(4)
C25_7 C 0.1731(3) 0.170(1) 0.289(2)
C26_7 C 0.1411(3) 0.1165(10) 0.3175(7)
Ag7_6 Ag 0.14273(2) 0.93953(7) 0.48413(3)
O11_6 O 0.1233(2) 0.9010(6) 0.3679(3)
C27_7 C 0.1300(2) 0.9567(8) 0.3139(4)
F3_8 F 0.4512(2) 0.1772(6) 0.5318(6)
F4_8 F 0.3984(5) 0.0842(8) 0.4694(5)
F5_8 F 0.3621(2) 0.0563(6) 0.5795(5)
F6_8 F 0.4156(3) 0.1002(10) 0.6347(3)
O3_8 O 0.3804(3) 0.3444(8) 0.5092(4)
C8_8 C 0.2790(3) 0.0376(8) 0.5139(6)
C11_8 C 0.4231(3) 0.080(1) 0.539(2)
C12_8 C 0.3911(3) 0.1335(10) 0.5675(7)
C13_8 C 0.3800(2) 0.2933(8) 0.5639(4)
H7_8 H 0.2919 0.0887 0.4802
H8_8 H 0.2856 0.0762 0.5556
C21_8 C 0.2345(2) 0.0549(9) 0.5034(5)
H13_8 H 0.2249 0.1163 0.5367
H14_8 H 0.2303 0.0964 0.4614
F1_8 F 0.4643(2) 0.9235(8) 0.5813(4)
F2_8 F 0.4586(2) 0.9210(8) 0.4795(4)
O1_8 O 0.3953(2) 0.7673(6) 0.4879(3)
C1_8 C 0.2871(2) 0.5837(7) 0.5067(4)
C2_8 C 0.2921(2) 0.6540(10) 0.5669(4)
C3_8 C 0.2943(3) 0.802(1) 0.5680(5)
C4_8 C 0.2919(2) 0.8830(8) 0.5116(5)
C5_8 C 0.2952(2) 0.8121(9) 0.4535(4)
C6_8 C 0.2925(2) 0.6642(9) 0.4502(4)
C7_8 C 0.2655(2) 0.4451(9) 0.5034(5)
C9_8 C 0.4089(2) 0.8106(7) 0.5404(4)
C10_8 C 0.4380(2) 0.9339(8) 0.5354(4)
H1_8 H 0.2940 0.6013 0.6067
H2_8 H 0.2976 0.8487 0.6091
H3_8 H 0.2995 0.8645 0.4142
H4_8 H 0.2943 0.6181 0.4087
H5_8 H 0.2751 0.3837 0.5367
H6_8 H 0.2697 0.4036 0.4614
C14_8 C 0.2129(2) 0.9163(7) 0.5067(4)
C16_8 C 0.2079(2) 0.8460(10) 0.5669(4)
C17_8 C 0.2057(3) 0.698(1) 0.5680(5)
C18_8 C 0.2081(2) 0.6170(8) 0.5116(5)
C19_8 C 0.2048(2) 0.6879(9) 0.4535(4)
C20_8 C 0.2075(2) 0.8358(9) 0.4502(4)
C22_8 C 0.2210(3) 0.4624(8) 0.5139(6)
H9_8 H 0.2060 0.8987 0.6067
H10_8 H 0.2024 0.6513 0.6091
H11_8 H 0.2005 0.6355 0.4142
H12_8 H 0.2057 0.8819 0.4087
H15_8 H 0.2081 0.4113 0.4802
H16_8 H 0.2144 0.4238 0.5556
O10_8 O 0.1196(3) 0.1556(8) 0.5092(4)
F7_8 F 0.0357(2) 0.5765(8) 0.5813(4)
F8_8 F 0.0414(2) 0.5790(8) 0.4795(4)
F9_8 F 0.0488(2) 0.3228(6) 0.5318(6)
F10_8 F 0.1016(5) 0.4158(8) 0.4694(5)
F11_8 F 0.1379(2) 0.4437(6) 0.5795(5)
F12_8 F 0.0844(3) 0.3998(10) 0.6347(3)
O5_8 O 0.1047(2) 0.7327(6) 0.4879(3)
C23_8 C 0.0911(2) 0.6894(7) 0.5404(4)
C24_8 C 0.0620(2) 0.5661(8) 0.5354(4)
C25_8 C 0.0769(3) 0.420(1) 0.539(2)
C26_8 C 0.1089(3) 0.3665(10) 0.5675(7)
C27_8 C 0.1200(2) 0.2067(8) 0.5639(4)
loop_
_geom_bond_atom_site_label_1
_geom_bond_atom_site_label_2
_geom_bond_site_symmetry_1
_geom_bond_site_symmetry_2
Ag2 O1 1_555 1_555
F1 C10 1_555 1_555
F2 C10 1_555 1_555
F3 C11 1_555 1_555
F4 C11 1_555 1_555
F5 C12 1_555 1_555
F6 C12 1_555 1_555
O1 C9 1_555 1_555
O2 C9 1_555 1_555
O3 C13 1_555 1_555
O4 C13 1_555 1_555
C4 C3 1_555 1_555
C5 C4 1_555 1_555
C8 C4 1_555 1_555
C9 C10 1_555 1_555
C10 C11 1_555 1_555
C11 C12 1_555 1_555
C12 C13 1_555 1_555
H2 C3 1_555 1_555
H3 C5 1_555 1_555
H7 C8 1_555 1_555
H8 C8 1_555 1_555
Ag4 O3 1_555 1_555
Ag5 O4 1_555 1_555
Ag6 C14 1_555 1_555
Ag10 O4 1_555 1_555
O7 Ag2 1_555 1_555
C14 C16 1_555 1_555
C20 C14 1_555 1_555
C21 C8 1_555 1_555
H9 C16 1_555 1_555
H12 C20 1_555 1_555
H13 C21 1_555 1_555
H14 C21 1_555 1_555
C14 C21 1_555 1_555
C1 Ag4 1_555 1_555
C2 C1 1_555 1_555
C6 C1 1_555 1_555
C7 C1 1_555 1_555
H1 C2 1_555 1_555
H4 C6 1_555 1_555
H5 C7 1_555 1_555
H6 C7 1_555 1_555
O12 Ag4 1_555 1_555
C17 C18 1_555 1_555
C18 C19 1_555 1_555
C22 C7 1_555 1_555
H10 C17 1_555 1_555
H11 C19 1_555 1_555
H15 C22 1_555 1_555
H16 C22 1_555 1_555
C18 C22 1_555 1_555
O10 Ag6 1_555 1_555
O13 Ag6 1_555 1_555
Ag7 O11 1_555 1_555
Ag8 O5 1_555 1_555
F7 C24 1_555 1_555
F8 C24 1_555 1_555
F9 C25 1_555 1_555
F10 C25 1_555 1_555
F11 C26 1_555 1_555
F12 C26 1_555 1_555
O5 C23 1_555 1_555
O6 C23 1_555 1_555
O8 Ag8 1_555 1_555
O11 Ag11 1_555 1_555
C23 C24 1_555 1_555
C24 C25 1_555 1_555
C25 C26 1_555 1_555
C26 C27 1_555 1_555
C27 O10 1_555 1_555
O11 C27 1_555 1_555
Ag4_2 O1_2 1_555 1_555
Ag2_2 O1_2 1_555 1_555
F1_2 C10_2 1_555 1_555
F2_2 C10_2 1_555 1_555
F3_2 C11_2 1_555 1_555
F4_2 C11_2 1_555 1_555
F5_2 C12_2 1_555 1_555
F6_2 C12_2 1_555 1_555
O1_2 C9_2 1_555 1_555
O2_2 C9_2 1_555 1_555
O3_2 C13_2 1_555 1_555
O4_2 C13_2 1_555 1_555
C1_2 Ag4_2 1_555 1_555
C2_2 C1_2 1_555 1_555
C3_2 C2_2 1_555 1_555
C4_2 C3_2 1_555 1_555
C5_2 C4_2 1_555 1_555
C6_2 C1_2 1_555 1_555
C8_2 C4_2 1_555 1_555
C9_2 C10_2 1_555 1_555
C10_2 C11_2 1_555 1_555
C11_2 C12_2 1_555 1_555
C12_2 C13_2 1_555 1_555
H1_2 C2_2 1_555 1_555
H2_2 C3_2 1_555 1_555
H3_2 C5_2 1_555 1_555
H4_2 C6_2 1_555 1_555
H7_2 C8_2 1_555 1_555
H8_2 C8_2 1_555 1_555
Ag5_2 O4_2 1_555 1_555
Ag7 C14_2 1_555 1_555
Ag10_2 O2_2 1_555 1_555
O7_2 Ag2_2 1_555 1_555
O12_2 Ag4_2 1_555 1_555
C14_2 C16_2 1_555 1_555
C16_2 C17_2 1_555 1_555
C17_2 C18_2 1_555 1_555
C18_2 C19_2 1_555 1_555
C19_2 C20_2 1_555 1_555
C20_2 C14_2 1_555 1_555
C21_2 C8_2 1_555 1_555
H9_2 C16_2 1_555 1_555
H10_2 C17_2 1_555 1_555
H11_2 C19_2 1_555 1_555
H12_2 C20_2 1_555 1_555
H13_2 C21_2 1_555 1_555
H14_2 C21_2 1_555 1_555
Ag2_2 O12_2 1_555 1_555
C5_2 C6_2 1_555 1_555
C14_2 C21_2 1_555 1_555
H5_2 C7_2 1_555 1_555
H6_2 C7_2 1_555 1_555
C22_2 C7_2 1_555 1_555
H15_2 C22_2 1_555 1_555
H16_2 C22_2 1_555 1_555
Ag7 O5_2 1_555 1_555
Ag11 O5_2 1_555 1_555
Ag11_2 O6_2 1_555 1_555
F7_2 C24_2 1_555 1_555
F8_2 C24_2 1_555 1_555
O5_2 C23_2 1_555 1_555
O6_2 C23_2 1_555 1_555
O10_2 Ag7 1_555 1_555
C23_2 C24_2 1_555 1_555
Ag7_2 O11_2 1_555 1_555
F9_2 C25_2 1_555 1_555
F10_2 C25_2 1_555 1_555
F11_2 C26_2 1_555 1_555
F12_2 C26_2 1_555 1_555
O11_2 Ag11_2 1_555 1_555
C25_2 C26_2 1_555 1_555
C26_2 C27_2 1_555 1_555
C27_2 O10_2 1_555 1_555
O11_2 C27_2 1_555 1_555
O3_3 C13_3 1_555 1_555
O4_3 C13_3 1_555 1_555
Ag4_3 O3_3 1_555 1_555
Ag5_3 O4_3 1_555 1_555
Ag10_3 O4_3 1_555 1_555
Ag4_3 O1_3 1_555 1_555
Ag2_3 O1_3 1_555 1_555
F1_3 C10_3 1_555 1_555
F2_3 C10_3 1_555 1_555
F3_3 C11_3 1_555 1_555
F4_3 C11_3 1_555 1_555
F5_3 C12_3 1_555 1_555
F6_3 C12_3 1_555 1_555
O1_3 C9_3 1_555 1_555
O2_3 C9_3 1_555 1_555
C1_3 Ag4_3 1_555 1_555
C2_3 C1_3 1_555 1_555
C3_3 C2_3 1_555 1_555
C4_3 C3_3 1_555 1_555
C5_3 C4_3 1_555 1_555
C6_3 C1_3 1_555 1_555
C7_3 C1_3 1_555 1_555
C8_3 C4_3 1_555 1_555
C9_3 C10_3 1_555 1_555
C10_3 C11_3 1_555 1_555
C11_3 C12_3 1_555 1_555
H1_3 C2_3 1_555 1_555
H2_3 C3_3 1_555 1_555
H3_3 C5_3 1_555 1_555
H4_3 C6_3 1_555 1_555
H5_3 C7_3 1_555 1_555
H6_3 C7_3 1_555 1_555
H7_3 C8_3 1_555 1_555
H8_3 C8_3 1_555 1_555
Ag7_2 C14_3 1_555 1_555
Ag10_3 O2_3 1_555 1_555
O7_3 Ag2_3 1_555 1_555
O12_3 Ag4_3 1_555 1_555
C14_3 C16_3 1_555 1_555
C16_3 C17_3 1_555 1_555
C17_3 C18_3 1_555 1_555
C18_3 C19_3 1_555 1_555
C19_3 C20_3 1_555 1_555
C20_3 C14_3 1_555 1_555
C21_3 C8_3 1_555 1_555
C22_3 C7_3 1_555 1_555
H9_3 C16_3 1_555 1_555
H10_3 C17_3 1_555 1_555
H11_3 C19_3 1_555 1_555
H12_3 C20_3 1_555 1_555
H13_3 C21_3 1_555 1_555
H14_3 C21_3 1_555 1_555
H15_3 C22_3 1_555 1_555
H16_3 C22_3 1_555 1_555
Ag2_3 O12_3 1_555 1_555
C5_3 C6_3 1_555 1_555
C14_3 C21_3 1_555 1_555
C18_3 C22_3 1_555 1_555
Ag7_2 O5_3 1_555 1_555
Ag11_2 O5_3 1_555 1_555
Ag11_3 O6_3 1_555 1_555
F7_3 C24_3 1_555 1_555
F8_3 C24_3 1_555 1_555
F9_3 C25_3 1_555 1_555
F10_3 C25_3 1_555 1_555
F11_3 C26_3 1_555 1_555
F12_3 C26_3 1_555 1_555
O5_3 C23_3 1_555 1_555
O6_3 C23_3 1_555 1_555
O10_3 Ag7_2 1_555 1_555
C23_3 C24_3 1_555 1_555
C24_3 C25_3 1_555 1_555
C25_3 C26_3 1_555 1_555
Ag7_3 O11_3 1_555 1_555
O11_3 Ag11_3 1_555 1_555
C27_3 O10_3 1_555 1_555
O11_3 C27_3 1_555 1_555
F3_4 C11_4 1_555 1_555
F5_4 C12_4 1_555 1_555
F6_4 C12_4 1_555 1_555
O3_4 C13_4 1_555 1_555
O4_4 C13_4 1_555 1_555
C11_4 C12_4 1_555 1_555
C12_4 C13_4 1_555 1_555
H8_4 C8_4 1_555 1_555
Ag5_4 O4_4 1_555 1_555
Ag10_4 O4_4 1_555 1_555
C21_4 C8_4 1_555 1_555
H13_4 C21_4 1_555 1_555
F1_4 C10_4 1_555 1_555
O2_4 C9_4 1_555 1_555
C2_4 C1_4 1_555 1_555
C3_4 C2_4 1_555 1_555
C4_4 C3_4 1_555 1_555
C7_4 C1_4 1_555 1_555
C9_4 C10_4 1_555 1_555
H1_4 C2_4 1_555 1_555
H2_4 C3_4 1_555 1_555
H5_4 C7_4 1_555 1_555
Ag10_4 O2_4 1_555 1_555
C14_4 C16_4 1_555 1_555
C16_4 C17_4 1_555 1_555
C17_4 C18_4 1_555 1_555
C22_4 C7_4 1_555 1_555
H9_4 C16_4 1_555 1_555
H10_4 C17_4 1_555 1_555
H16_4 C22_4 1_555 1_555
C18_4 C22_4 1_555 1_555
Ag4_4 O1_4 1_555 1_555
Ag2_4 O1_4 1_555 1_555
H3_4 C5_4 1_555 1_555
H4_4 C6_4 1_555 1_555
O12_4 Ag4_4 1_555 1_555
C19_4 C20_4 1_555 1_555
H11_4 C19_4 1_555 1_555
H12_4 C20_4 1_555 1_555
Ag2_4 O12_4 1_555 1_555
C5_4 C6_4 1_555 1_555
F7_4 C24_4 1_555 1_555
F9_4 C25_4 1_555 1_555
F11_4 C26_4 1_555 1_555
F12_4 C26_4 1_555 1_555
O8 C23_4 1_555 1_555
C23_4 C24_4 1_555 1_555
C24_4 C25_4 1_555 1_555
C25_4 C26_4 1_555 1_555
C26_4 C27_4 1_555 1_555
C27_4 O10_4 1_555 1_555
O13 C27_4 1_555 1_555
Ag7_3 O5_4 1_555 1_555
Ag11_3 O5_4 1_555 1_555
Ag6_2 C14_5 1_555 1_555
C14_5 C16_5 1_555 1_555
C20_5 C14_5 1_555 1_555
H9_5 C16_5 1_555 1_555
H12_5 C20_5 1_555 1_555
H13_5 C21_5 1_555 1_555
H14_5 C21_5 1_555 1_555
C14_5 C21_5 1_555 1_555
C17_5 C18_5 1_555 1_555
C18_5 C19_5 1_555 1_555
H10_5 C17_5 1_555 1_555
H11_5 C19_5 1_555 1_555
H15_5 C22_5 1_555 1_555
H16_5 C22_5 1_555 1_555
C18_5 C22_5 1_555 1_555
Ag10_2 O1_5 1_555 1_555
F1_5 C10_5 1_555 1_555
F2_5 C10_5 1_555 1_555
F3_5 C11_5 1_555 1_555
F4_5 C11_5 1_555 1_555
F5_5 C12_5 1_555 1_555
F6_5 C12_5 1_555 1_555
O1_5 C9_5 1_555 1_555
O7_4 C9_5 1_555 1_555
O3_5 C13_5 1_555 1_555
O12_4 C13_5 1_555 1_555
C4_5 C3_5 1_555 1_555
C5_5 C4_5 1_555 1_555
C8_5 C4_5 1_555 1_555
C9_5 C10_5 1_555 1_555
C10_5 C11_5 1_555 1_555
C11_5 C12_5 1_555 1_555
C12_5 C13_5 1_555 1_555
H2_5 C3_5 1_555 1_555
H3_5 C5_5 1_555 1_555
H7_5 C8_5 1_555 1_555
H8_5 C8_5 1_555 1_555
Ag5_2 O3_5 1_555 1_555
C1_5 Ag5_2 1_555 1_555
C2_5 C1_5 1_555 1_555
C6_5 C1_5 1_555 1_555
C7_5 C1_5 1_555 1_555
H1_5 C2_5 1_555 1_555
H4_5 C6_5 1_555 1_555
H5_5 C7_5 1_555 1_555
H6_5 C7_5 1_555 1_555
O10_5 Ag6_2 1_555 1_555
O13_2 Ag6_2 1_555 1_555
Ag7_4 O11_4 1_555 1_555
Ag8_2 O5_5 1_555 1_555
F7_5 C24_5 1_555 1_555
F8_5 C24_5 1_555 1_555
F9_5 C25_5 1_555 1_555
F10_5 C25_5 1_555 1_555
F11_5 C26_5 1_555 1_555
F12_5 C26_5 1_555 1_555
O5_5 C23_5 1_555 1_555
O6_4 C23_5 1_555 1_555
O8_2 Ag8_2 1_555 1_555
O11_4 Ag11_4 1_555 1_555
C23_5 C24_5 1_555 1_555
C24_5 C25_5 1_555 1_555
C25_5 C26_5 1_555 1_555
C26_5 C27_5 1_555 1_555
C27_5 O10_5 1_555 1_555
O11_4 C27_5 1_555 1_555
F1_6 C10_6 1_555 1_555
F3_6 C11_6 1_555 1_555
F5_6 C12_6 1_555 1_555
F6_6 C12_6 1_555 1_555
O7 C9_6 1_555 1_555
O3_6 C13_6 1_555 1_555
O12 C13_6 1_555 1_555
C2_6 C1_6 1_555 1_555
C3_6 C2_6 1_555 1_555
C4_6 C3_6 1_555 1_555
C8_6 C4_6 1_555 1_555
C9_6 C10_6 1_555 1_555
C10_6 C11_6 1_555 1_555
C11_6 C12_6 1_555 1_555
C12_6 C13_6 1_555 1_555
H1_6 C2_6 1_555 1_555
H2_6 C3_6 1_555 1_555
H8_6 C8_6 1_555 1_555
C14_6 C16_6 1_555 1_555
C16_6 C17_6 1_555 1_555
C17_6 C18_6 1_555 1_555
C21_6 C8_6 1_555 1_555
H9_6 C16_6 1_555 1_555
H10_6 C17_6 1_555 1_555
H13_6 C21_6 1_555 1_555
C14_6 C21_6 1_555 1_555
Ag5_3 O1_6 1_555 1_555
Ag10_3 O1_6 1_555 1_555
H3_6 C5_6 1_555 1_555
H4_6 C6_6 1_555 1_555
C19_6 C20_6 1_555 1_555
H11_6 C19_6 1_555 1_555
H12_6 C20_6 1_555 1_555
C5_6 C6_6 1_555 1_555
H5_6 C7_6 1_555 1_555
C22_6 C7_6 1_555 1_555
H16_6 C22_6 1_555 1_555
Ag11_5 O6_5 1_555 1_555
F7_6 C24_6 1_555 1_555
O6_5 C23_6 1_555 1_555
C23_6 C24_6 1_555 1_555
Ag7_4 O5_6 1_555 1_555
Ag11_4 O5_6 1_555 1_555
Ag7_5 O11_5 1_555 1_555
F9_6 C25_6 1_555 1_555
F11_6 C26_6 1_555 1_555
F12_6 C26_6 1_555 1_555
O11_5 Ag11_5 1_555 1_555
C25_6 C26_6 1_555 1_555
C26_6 C27_6 1_555 1_555
C27_6 O10_6 1_555 1_555
O11_5 C27_6 1_555 1_555
Ag7_5 C14_7 1_555 1_555
C14_7 C16_7 1_555 1_555
C16_7 C17_7 1_555 1_555
C17_7 C18_7 1_555 1_555
C18_7 C19_7 1_555 1_555
C19_7 C20_7 1_555 1_555
C20_7 C14_7 1_555 1_555
H9_7 C16_7 1_555 1_555
H10_7 C17_7 1_555 1_555
H11_7 C19_7 1_555 1_555
H12_7 C20_7 1_555 1_555
H13_7 C21_7 1_555 1_555
H14_7 C21_7 1_555 1_555
H15_7 C22_7 1_555 1_555
H16_7 C22_7 1_555 1_555
C14_7 C21_7 1_555 1_555
C18_7 C22_7 1_555 1_555
O3_7 C13_7 1_555 1_555
O12_2 C13_7 1_555 1_555
Ag5_4 O3_7 1_555 1_555
Ag5_4 O1_7 1_555 1_555
Ag10_4 O1_7 1_555 1_555
F1_7 C10_7 1_555 1_555
F2_7 C10_7 1_555 1_555
F3_7 C11_7 1_555 1_555
F4_7 C11_7 1_555 1_555
F5_7 C12_7 1_555 1_555
F6_7 C12_7 1_555 1_555
O1_7 C9_7 1_555 1_555
O7_2 C9_7 1_555 1_555
C1_7 Ag5_4 1_555 1_555
C2_7 C1_7 1_555 1_555
C3_7 C2_7 1_555 1_555
C4_7 C3_7 1_555 1_555
C5_7 C4_7 1_555 1_555
C6_7 C1_7 1_555 1_555
C7_7 C1_7 1_555 1_555
C8_7 C4_7 1_555 1_555
C9_7 C10_7 1_555 1_555
C10_7 C11_7 1_555 1_555
C11_7 C12_7 1_555 1_555
H1_7 C2_7 1_555 1_555
H2_7 C3_7 1_555 1_555
H3_7 C5_7 1_555 1_555
H4_7 C6_7 1_555 1_555
H5_7 C7_7 1_555 1_555
H6_7 C7_7 1_555 1_555
H7_7 C8_7 1_555 1_555
H8_7 C8_7 1_555 1_555
C5_7 C6_7 1_555 1_555
Ag7_5 O5_7 1_555 1_555
Ag11_5 O5_7 1_555 1_555
Ag11_6 O6_6 1_555 1_555
F7_7 C24_7 1_555 1_555
F8_7 C24_7 1_555 1_555
F9_7 C25_7 1_555 1_555
F10_7 C25_7 1_555 1_555
F11_7 C26_7 1_555 1_555
F12_7 C26_7 1_555 1_555
O5_7 C23_7 1_555 1_555
O6_6 C23_7 1_555 1_555
O10_7 Ag7_5 1_555 1_555
C23_7 C24_7 1_555 1_555
C24_7 C25_7 1_555 1_555
C25_7 C26_7 1_555 1_555
Ag7_6 O11_6 1_555 1_555
O11_6 Ag11_6 1_555 1_555
C27_7 O10_7 1_555 1_555
O11_6 C27_7 1_555 1_555
F3_8 C11_8 1_555 1_555
F4_8 C11_8 1_555 1_555
F5_8 C12_8 1_555 1_555
F6_8 C12_8 1_555 1_555
O3_8 C13_8 1_555 1_555
O12_3 C13_8 1_555 1_555
C11_8 C12_8 1_555 1_555
C12_8 C13_8 1_555 1_555
H7_8 C8_8 1_555 1_555
H8_8 C8_8 1_555 1_555
Ag5 O3_8 1_555 1_555
C21_8 C8_8 1_555 1_555
H13_8 C21_8 1_555 1_555
H14_8 C21_8 1_555 1_555
Ag5 O1_8 1_555 1_555
Ag10 O1_8 1_555 1_555
F1_8 C10_8 1_555 1_555
F2_8 C10_8 1_555 1_555
O1_8 C9_8 1_555 1_555
O7_3 C9_8 1_555 1_555
C1_8 Ag5 1_555 1_555
C2_8 C1_8 1_555 1_555
C3_8 C2_8 1_555 1_555
C4_8 C3_8 1_555 1_555
C5_8 C4_8 1_555 1_555
C6_8 C1_8 1_555 1_555
C7_8 C1_8 1_555 1_555
C9_8 C10_8 1_555 1_555
H1_8 C2_8 1_555 1_555
H2_8 C3_8 1_555 1_555
H3_8 C5_8 1_555 1_555
H4_8 C6_8 1_555 1_555
H5_8 C7_8 1_555 1_555
H6_8 C7_8 1_555 1_555
Ag7_6 C14_8 1_555 1_555
C14_8 C16_8 1_555 1_555
C16_8 C17_8 1_555 1_555
C17_8 C18_8 1_555 1_555
C18_8 C19_8 1_555 1_555
C19_8 C20_8 1_555 1_555
C20_8 C14_8 1_555 1_555
C22_8 C7_8 1_555 1_555
H9_8 C16_8 1_555 1_555
H10_8 C17_8 1_555 1_555
H11_8 C19_8 1_555 1_555
H12_8 C20_8 1_555 1_555
H15_8 C22_8 1_555 1_555
H16_8 C22_8 1_555 1_555
C5_8 C6_8 1_555 1_555
C18_8 C22_8 1_555 1_555
Ag7_6 O5_8 1_555 1_555
Ag11_6 O5_8 1_555 1_555
F7_8 C24_8 1_555 1_555
F8_8 C24_8 1_555 1_555
F9_8 C25_8 1_555 1_555
F10_8 C25_8 1_555 1_555
F11_8 C26_8 1_555 1_555
F12_8 C26_8 1_555 1_555
O5_8 C23_8 1_555 1_555
O8_2 C23_8 1_555 1_555
C23_8 C24_8 1_555 1_555
C24_8 C25_8 1_555 1_555
C25_8 C26_8 1_555 1_555
C26_8 C27_8 1_555 1_555
C27_8 O10_8 1_555 1_555
O13_2 C27_8 1_555 1_555

#END
