
###############################################################################
#
# This file contains modified crystal structure data generated from the
# MOF subset of the Cambridge Structural Database (CSD) v543 
# hosted by the Cambridge Crystallographic Data Centre (CCDC).
#
# This work is licensed under the Creative Commons
# Attribution-NonCommercial-ShareAlike 4.0 International License.
# To view a copy of this license, visit
# http://creativecommons.org/licenses/by-nc-sa/4.0/
# or send a letter to
# Creative Commons, PO Box 1866, Mountain View, CA 94042, USA.
#
# CIF created using the CSD Python API on 29 September 2022
# The structure has been converted into the P1 space group
# The structure has a 3D framework
# The original CSD entry FIJREW is in the monoclinic crystal system
# The framework has been calculated to contain at least 10.0% void space
# The void calculation uses a probe of radius 1.32A, grid spacing 0.4
# H atom positions have been added when not included in the experimental data
#
###############################################################################

data_FIJREW
_chemical_formula_moiety         '(C176 H140 Ag8 F64 O32)n'
_symmetry_cell_setting           triclinic
_symmetry_space_group_name_H-M   'P 1'
_symmetry_Int_Tables_number      1
_space_group_name_Hall           'P 1'
loop_
_symmetry_equiv_pos_site_id
_symmetry_equiv_pos_as_xyz
1 x,y,z
_cell_length_a                   14.147(6)
_cell_length_b                   18.094(7)
_cell_length_c                   20.457(9)
_cell_angle_alpha                90
_cell_angle_beta                 102.567(5)
_cell_angle_gamma                90
_cell_volume                     5111.04
loop_
_atom_site_label
_atom_site_type_symbol
_atom_site_fract_x
_atom_site_fract_y
_atom_site_fract_z
O8 O 0.2799(3) 0.7957(2) 0.0447(2)
Ag1 Ag 0.23590(2) 0.60605(2) 0.46343(2)
F1 F 0.2453(3) 0.8495(2) 0.3086(2)
F2 F 0.0947(2) 0.8174(2) 0.2707(1)
F3 F 0.3080(2) 0.7192(2) 0.2756(1)
F4 F 0.1605(2) 0.6750(2) 0.2488(1)
F5 F 0.2280(2) 0.8359(1) 0.1783(1)
F6 F 0.1101(2) 0.7576(2) 0.1467(1)
F7 F 0.3592(2) 0.7378(2) 0.1610(1)
F8 F 0.2534(2) 0.6489(1) 0.1451(1)
O1 O 0.2239(3) 0.6996(2) 0.3840(2)
O2 O 0.1448(3) 0.8004(2) 0.4053(2)
O4 O 0.1743(3) 0.7018(2) 0.0267(2)
C1 C 0.4067(3) 0.5830(2) 0.4767(3)
C2 C 0.3800(3) 0.5301(3) 0.4263(3)
C3 C 0.3764(4) 0.4556(3) 0.4428(3)
C4 C 0.3957(3) 0.4334(3) 0.5090(3)
C5 C 0.3994(4) 0.4871(3) 0.5567(3)
C6 C 0.4049(3) 0.5611(3) 0.5416(3)
C7 C 0.4579(4) 0.6534(3) 0.4647(4)
C8 C 0.4311(4) 0.3564(3) 0.5281(5)
C9 C 0.0851(3) 0.5443(3) 0.4427(3)
C10 C 0.1388(3) 0.4909(3) 0.4839(3)
C11 C 0.1395(4) 0.4870(3) 0.5515(3)
C12 C 0.0849(3) 0.5361(3) 0.5803(3)
C13 C 0.0489(4) 0.5979(3) 0.5426(3)
C14 C 0.0479(4) 0.6027(3) 0.4754(3)
C15 C 0.0445(5) 0.5292(4) 0.3694(3)
C16 C 0.0525(5) 0.5159(5) 0.6436(3)
C17 C 0.1840(4) 0.7586(3) 0.3701(2)
C18 C 0.1828(3) 0.7913(3) 0.2999(2)
C19 C 0.2148(3) 0.7370(2) 0.2516(2)
C20 C 0.2035(3) 0.7639(2) 0.1779(2)
C21 C 0.2648(3) 0.7227(2) 0.1366(2)
C22 C 0.2385(3) 0.7430(2) 0.0618(2)
H1 H 0.378(3) 0.550(3) 0.384(2)
H2 H 0.366(4) 0.427(3) 0.414(3)
H3 H 0.408(4) 0.473(3) 0.602(3)
H4 H 0.413(3) 0.597(3) 0.573(2)
H5 H 0.432(3) 0.673(3) 0.427(2)
H6 H 0.451(4) 0.688(3) 0.495(3)
H7 H 0.395(4) 0.326(3) 0.501(3)
H8 H 0.416(4) 0.337(3) 0.565(3)
H9 H 0.169(4) 0.453(3) 0.460(2)
H10 H 0.171(4) 0.450(3) 0.574(3)
H11 H 0.019(4) 0.628(3) 0.558(3)
H12 H 0.014(4) 0.640(3) 0.444(3)
H13 H 0.088(3) 0.504(3) 0.350(2)
H14 H 0.036(4) 0.571(3) 0.349(3)
H15 H 0.108(4) 0.494(3) 0.673(3)
H16 H 0.039(4) 0.559(3) 0.662(3)
Ag2 Ag 0.23590(2) 0.89395(2) 0.96343(2)
Ag4 Ag 0.76410(2) 0.39395(2) 0.53657(2)
F9 F 0.2453(3) 0.6505(2) 0.8086(2)
F10 F 0.0947(2) 0.6826(2) 0.7707(1)
F11 F 0.3080(2) 0.7808(2) 0.7756(1)
F12 F 0.1605(2) 0.8250(2) 0.7488(1)
F13 F 0.2280(2) 0.6641(1) 0.6783(1)
F14 F 0.1101(2) 0.7424(2) 0.6467(1)
F15 F 0.3592(2) 0.7622(2) 0.6610(1)
F16 F 0.2534(2) 0.8511(1) 0.6451(1)
O5 O 0.2239(3) 0.8004(2) 0.8840(2)
O6 O 0.1448(3) 0.6996(2) 0.9053(2)
O7 O 0.2799(3) 0.7043(2) 0.5447(2)
O9 O 0.1743(3) 0.7982(2) 0.5267(2)
C23 C 0.5933(3) 0.4170(2) 0.5233(3)
C24 C 0.4067(3) 0.9170(2) 0.9767(3)
C25 C 0.6200(3) 0.4699(3) 0.5737(3)
C26 C 0.6236(4) 0.5444(3) 0.5572(3)
C27 C 0.6043(3) 0.5666(3) 0.4910(3)
C28 C 0.6006(4) 0.5129(3) 0.4433(3)
C29 C 0.5951(3) 0.4389(3) 0.4584(3)
C30 C 0.5421(4) 0.3466(3) 0.5353(4)
C31 C 0.5689(4) 0.6436(3) 0.4719(5)
C33 C 0.0851(3) 0.9557(3) 0.9427(3)
C41 C 0.1840(4) 0.7414(3) 0.8701(2)
C42 C 0.1828(3) 0.7087(3) 0.7999(2)
C43 C 0.2148(3) 0.7630(2) 0.7516(2)
C44 C 0.2035(3) 0.7361(2) 0.6779(2)
C45 C 0.2648(3) 0.7773(2) 0.6366(2)
C46 C 0.2385(3) 0.7570(2) 0.5618(2)
H18 H 0.622(3) 0.450(3) 0.616(2)
H19 H 0.634(4) 0.573(3) 0.586(3)
H20 H 0.592(4) 0.527(3) 0.398(3)
H21 H 0.587(3) 0.403(3) 0.427(2)
H22 H 0.568(3) 0.327(3) 0.573(2)
H23 H 0.549(4) 0.312(3) 0.505(3)
H24 H 0.605(4) 0.674(3) 0.499(3)
H25 H 0.584(4) 0.663(3) 0.435(3)
H34 H 0.159(4) 0.795(3) 0.469(3)
H17 H 0.159(4) 0.705(3) 0.969(3)
C32 C 0.9149(3) 0.4557(3) 0.5573(3)
C34 C 0.8612(3) 0.5091(3) 0.5161(3)
C35 C 0.8605(4) 0.5130(3) 0.4485(3)
C36 C 0.9151(3) 0.4639(3) 0.4197(3)
C37 C 0.9511(4) 0.4021(3) 0.4574(3)
C38 C 0.9521(4) 0.3973(3) 0.5246(3)
C39 C 0.9555(5) 0.4708(4) 0.6306(3)
C40 C 0.9475(5) 0.4841(5) 0.3564(3)
H26 H 0.831(4) 0.547(3) 0.540(2)
H27 H 0.829(4) 0.550(3) 0.426(3)
H28 H 0.981(4) 0.372(3) 0.442(3)
H29 H 0.986(4) 0.360(3) 0.556(3)
H30 H 0.912(3) 0.496(3) 0.650(2)
H31 H 0.964(4) 0.429(3) 0.651(3)
H32 H 0.892(4) 0.506(3) 0.327(3)
H33 H 0.961(4) 0.441(3) 0.338(3)
C35_2 C 0.1395(4) 0.0130(3) 0.0515(3)
H27_2 H 0.171(4) 0.050(3) 0.074(3)
H32_2 H 0.108(4) 0.006(3) 0.173(3)
C34_2 C 0.1388(3) 0.0091(3) 0.9839(3)
H26_2 H 0.169(4) 0.047(3) 0.960(2)
C36_2 C 0.0849(3) 0.9639(3) 0.0803(3)
C37_2 C 0.0489(4) 0.9021(3) 0.0426(3)
C40_2 C 0.0525(5) 0.9841(5) 0.1436(3)
H28_2 H 0.019(4) 0.872(3) 0.058(3)
H33_2 H 0.039(4) 0.941(3) 0.162(3)
C38_2 C 0.0479(4) 0.8973(3) 0.9754(3)
C39_2 C 0.0445(5) 0.9708(4) 0.8694(3)
H29_2 H 0.014(4) 0.860(3) 0.944(3)
H30_2 H 0.088(3) 0.996(3) 0.850(2)
H31_2 H 0.036(4) 0.929(3) 0.849(3)
Ag1_2 Ag 0.76410(2) 0.10605(2) 0.03657(2)
F1_2 F 0.7547(3) 0.3495(2) 0.1914(2)
F2_2 F 0.9053(2) 0.3174(2) 0.2293(1)
F3_2 F 0.6920(2) 0.2192(2) 0.2244(1)
F4_2 F 0.8395(2) 0.1750(2) 0.2512(1)
F5_2 F 0.7720(2) 0.3359(1) 0.3217(1)
F6_2 F 0.8899(2) 0.2576(2) 0.3533(1)
F7_2 F 0.6408(2) 0.2378(2) 0.3390(1)
F8_2 F 0.7466(2) 0.1489(1) 0.3549(1)
O1_2 O 0.7761(3) 0.1996(2) 0.1160(2)
O2_2 O 0.8552(3) 0.3004(2) 0.0947(2)
O3 O 0.7201(3) 0.2957(2) 0.4553(2)
O4_2 O 0.8257(3) 0.2018(2) 0.4733(2)
C1_2 C 0.5933(3) 0.0830(2) 0.0233(3)
C2_2 C 0.6200(3) 0.0301(3) 0.0737(3)
C7_2 C 0.5421(4) 0.1534(3) 0.0353(4)
C9_2 C 0.9149(3) 0.0443(3) 0.0573(3)
C14_2 C 0.9521(4) 0.1027(3) 0.0246(3)
C15_2 C 0.9555(5) 0.0292(4) 0.1306(3)
C17_2 C 0.8160(4) 0.2586(3) 0.1299(2)
C18_2 C 0.8172(3) 0.2913(3) 0.2001(2)
C19_2 C 0.7852(3) 0.2370(2) 0.2484(2)
C20_2 C 0.7965(3) 0.2639(2) 0.3221(2)
C21_2 C 0.7352(3) 0.2227(2) 0.3634(2)
C22_2 C 0.7615(3) 0.2430(2) 0.4382(2)
H1_2 H 0.622(3) 0.050(3) 0.116(2)
H5_2 H 0.568(3) 0.173(3) 0.073(2)
H6_2 H 0.549(4) 0.188(3) 0.005(3)
H12_2 H 0.986(4) 0.140(3) 0.056(3)
H13_2 H 0.912(3) 0.004(3) 0.150(2)
H14_2 H 0.964(4) 0.071(3) 0.151(3)
H17_2 H 0.841(4) 0.205(3) 0.531(3)
C27_2 C 0.3957(3) 0.0666(3) 0.0090(3)
C28_2 C 0.3994(4) 0.0129(3) 0.0567(3)
C31_2 C 0.4311(4) 0.1436(3) 0.0281(5)
H20_2 H 0.408(4) 0.027(3) 0.102(3)
H24_2 H 0.395(4) 0.174(3) 0.001(3)
H25_2 H 0.416(4) 0.163(3) 0.065(3)
H34_2 H 0.841(4) 0.295(3) 0.031(3)
C6_2 C 0.5951(3) 0.0611(3) 0.9584(3)
C12_2 C 0.9151(3) 0.0361(3) 0.9197(3)
C13_2 C 0.9511(4) 0.0979(3) 0.9574(3)
C16_2 C 0.9475(5) 0.0159(5) 0.8564(3)
H4_2 H 0.587(3) 0.097(3) 0.927(2)
H11_2 H 0.981(4) 0.128(3) 0.942(3)
H16_2 H 0.961(4) 0.059(3) 0.838(3)
F9_2 F 0.7547(3) 0.1505(2) 0.6914(2)
F10_2 F 0.9053(2) 0.1826(2) 0.7293(1)
F11_2 F 0.6920(2) 0.2808(2) 0.7244(1)
F12_2 F 0.8395(2) 0.3250(2) 0.7512(1)
F13_2 F 0.7720(2) 0.1641(1) 0.8217(1)
F14_2 F 0.8899(2) 0.2424(2) 0.8533(1)
F15_2 F 0.6408(2) 0.2622(2) 0.8390(1)
F16_2 F 0.7466(2) 0.3511(1) 0.8549(1)
O5_2 O 0.7761(3) 0.3004(2) 0.6160(2)
O6_2 O 0.8552(3) 0.1996(2) 0.5947(2)
O7_2 O 0.7201(3) 0.2043(2) 0.9553(2)
O9_2 O 0.8257(3) 0.2982(2) 0.9733(2)
C26_2 C 0.3764(4) 0.0444(3) 0.9428(3)
C41_2 C 0.8160(4) 0.2414(3) 0.6299(2)
C42_2 C 0.8172(3) 0.2087(3) 0.7001(2)
C43_2 C 0.7852(3) 0.2630(2) 0.7484(2)
C44_2 C 0.7965(3) 0.2361(2) 0.8221(2)
C45_2 C 0.7352(3) 0.2773(2) 0.8634(2)
C46_2 C 0.7615(3) 0.2570(2) 0.9382(2)
H19_2 H 0.366(4) 0.073(3) 0.914(3)
C3_2 C 0.6236(4) 0.9556(3) 0.0572(3)
C10_2 C 0.8612(3) 0.9909(3) 0.0161(3)
H2_2 H 0.634(4) 0.927(3) 0.086(3)
H9_2 H 0.831(4) 0.953(3) 0.040(2)
C29_2 C 0.4049(3) 0.9389(3) 0.0416(3)
H21_2 H 0.413(3) 0.903(3) 0.073(2)
C4_2 C 0.6043(3) 0.9334(3) 0.9910(3)
C5_2 C 0.6006(4) 0.9871(3) 0.9433(3)
C8_2 C 0.5689(4) 0.8564(3) 0.9719(5)
C11_2 C 0.8605(4) 0.9870(3) 0.9485(3)
H3_2 H 0.592(4) 0.973(3) 0.898(3)
H7_2 H 0.605(4) 0.826(3) 0.999(3)
H8_2 H 0.584(4) 0.837(3) 0.935(3)
H10_2 H 0.829(4) 0.950(3) 0.926(3)
H15_2 H 0.892(4) 0.994(3) 0.827(3)
C25_2 C 0.3800(3) 0.9699(3) 0.9263(3)
C30_2 C 0.4579(4) 0.8466(3) 0.9647(4)
H18_2 H 0.378(3) 0.950(3) 0.884(2)
H22_2 H 0.432(3) 0.827(3) 0.927(2)
H23_2 H 0.451(4) 0.812(3) 0.995(3)
Ag6 Ag 0.24692(2) 0.38691(2) 0.00075(2)
F17 F 0.3334(3) 0.2385(2) 0.2066(2)
F18 F 0.2406(3) 0.1444(2) 0.1727(2)
F19 F 0.1598(4) 0.3215(2) 0.1981(2)
F20 F 0.0862(4) 0.2177(3) 0.1831(2)
F21 F 0.2877(3) 0.2975(3) 0.3169(2)
F22 F 0.2297(4) 0.1684(2) 0.2992(2)
F23 F 0.1152(3) 0.3334(3) 0.3149(2)
F24 F 0.0677(3) 0.2084(2) 0.3042(2)
O10 O 0.2743(3) 0.3039(2) 0.0907(2)
O11 O 0.1670(3) 0.2111(2) 0.0590(2)
O12 O 0.2638(3) 0.2202(2) 0.4287(2)
O13 O 0.1351(3) 0.2875(2) 0.4375(2)
C47 C 0.4156(3) 0.4151(2) 0.0107(2)
C48 C 0.4120(3) 0.4641(3) 0.0627(3)
C49 C 0.3990(3) 0.5393(3) 0.0492(3)
C53 C 0.4738(4) 0.3436(3) 0.0239(4)
C56 C 0.1417(4) 0.5114(3) 0.0052(3)
C57 C 0.1191(4) 0.5118(3) 0.0670(3)
C58 C 0.0591(3) 0.4580(3) 0.0857(3)
C59 C 0.0407(4) 0.3962(3) 0.0452(3)
C62 C 0.0047(5) 0.4729(4) 0.1394(3)
C63 C 0.2278(4) 0.2485(3) 0.1000(2)
C64 C 0.2453(5) 0.2193(3) 0.1726(3)
C65 C 0.1742(8) 0.2500(4) 0.2095(3)
C66 C 0.2198(7) 0.2386(5) 0.2887(4)
C67 C 0.1475(7) 0.2580(7) 0.3288(5)
C68 C 0.1935(4) 0.2583(3) 0.4069(2)
H35 H 0.429(3) 0.447(3) 0.105(2)
H36 H 0.401(3) 0.568(3) 0.084(2)
H39 H 0.466(4) 0.321(3) 0.059(3)
H41 H 0.393(4) 0.676(3) 0.002(3)
H44 H 0.135(4) 0.546(3) 0.095(3)
H49 H 0.040(4) 0.485(3) 0.178(3)
Ag8 Ag 0.24692(2) 0.11309(2) 0.50075(2)
C73 C 0.6107(3) 0.4339(2) 0.0150(3)
C74 C 0.6289(3) 0.4837(3) 0.0671(3)
C75 C 0.6165(3) 0.5592(3) 0.0545(3)
C77 C 0.5835(4) 0.3554(3) 0.0274(4)
H53 H 0.637(4) 0.467(3) 0.111(3)
H54 H 0.620(3) 0.585(3) 0.088(2)
H56 H 0.546(4) 0.688(3) 0.021(3)
H58 H 0.616(4) 0.339(3) 0.073(3)
H68 H 0.170636 0.321774 0.472205
C50 C 0.3893(3) 0.5661(2) 0.9850(3)
C51 C 0.3711(3) 0.5163(3) 0.9329(3)
C52 C 0.3835(3) 0.4408(3) 0.9455(3)
C54 C 0.4165(4) 0.6446(3) 0.9726(4)
C55 C 0.1044(4) 0.4576(3) 0.9578(3)
C60 C 0.0620(4) 0.3952(3) 0.9824(3)
C61 C 0.0856(5) 0.4758(4) 0.8842(3)
H37 H 0.363(4) 0.533(3) 0.889(3)
H38 H 0.380(3) 0.415(3) 0.912(2)
H40 H 0.454(4) 0.312(3) 0.979(3)
H42 H 0.384(4) 0.661(3) 0.927(3)
H43 H 0.173(3) 0.550(3) 0.991(2)
H46 H 0.034(4) 0.361(3) 0.948(3)
H47 H 0.142(4) 0.488(3) 0.873(2)
H48 H 0.069(4) 0.430(3) 0.858(3)
Ag9 Ag 0.75308(2) 0.61309(2) 0.99925(2)
F25 F 0.3334(3) 0.2615(2) 0.7066(2)
F26 F 0.2406(3) 0.3556(2) 0.6727(2)
F27 F 0.1598(4) 0.1785(2) 0.6981(2)
F28 F 0.0862(4) 0.2823(3) 0.6831(2)
F29 F 0.2877(3) 0.2025(3) 0.8169(2)
F30 F 0.2297(4) 0.3316(2) 0.7992(2)
F31 F 0.1152(3) 0.1666(3) 0.8149(2)
F32 F 0.0677(3) 0.2916(2) 0.8042(2)
O14 O 0.2743(3) 0.1961(2) 0.5907(2)
O15 O 0.1670(3) 0.2889(2) 0.5590(2)
O16 O 0.2638(3) 0.2798(2) 0.9287(2)
O18 O 0.1351(3) 0.2125(2) 0.9375(2)
C69 C 0.5844(3) 0.5849(2) 0.9893(2)
C70 C 0.4156(3) 0.0849(2) 0.5107(2)
C71 C 0.5880(3) 0.5359(3) 0.9373(3)
C72 C 0.6010(3) 0.4607(3) 0.9508(3)
C76 C 0.5262(4) 0.6564(3) 0.9761(4)
C79 C 0.1044(4) 0.0424(3) 0.4578(3)
C87 C 0.2278(4) 0.2515(3) 0.6000(2)
C88 C 0.2453(5) 0.2807(3) 0.6726(3)
C89 C 0.1742(8) 0.2500(4) 0.7095(3)
C90 C 0.2198(7) 0.2614(5) 0.7887(4)
C91 C 0.1475(7) 0.2420(7) 0.8288(5)
C92 C 0.1935(4) 0.2417(3) 0.9069(2)
H51 H 0.571(3) 0.553(3) 0.895(2)
H52 H 0.599(3) 0.432(3) 0.916(2)
H55 H 0.534(4) 0.679(3) 0.941(3)
H57 H 0.607(4) 0.324(3) 0.998(3)
H61 H 0.004(6) 0.639(5) 0.941(4)
H66 H 0.013(4) 0.571(3) 0.843(3)
H67 H 0.103358 0.251608 0.959194
H45 H 0.996(6) 0.361(5) 0.059(4)
H50 H 0.987(4) 0.429(3) 0.157(3)
C78 C 0.8956(4) 0.5424(3) 0.0422(3)
C84 C 0.9380(4) 0.6048(3) 0.0176(3)
C85 C 0.9144(5) 0.5242(4) 0.1158(3)
H59 H 0.827(3) 0.450(3) 0.009(2)
H62 H 0.966(4) 0.639(3) 0.052(3)
H63 H 0.858(4) 0.512(3) 0.127(2)
H64 H 0.931(4) 0.570(3) 0.142(3)
C80 C 0.8583(4) 0.4886(3) 0.9948(3)
C81 C 0.8809(4) 0.4882(3) 0.9330(3)
C82 C 0.9409(3) 0.5420(3) 0.9143(3)
C83 C 0.9593(4) 0.6038(3) 0.9548(3)
C86 C 0.9953(5) 0.5271(4) 0.8606(3)
H60 H 0.865(4) 0.454(3) 0.905(3)
H65 H 0.960(4) 0.515(3) 0.822(3)
C82_2 C 0.0591(3) 0.0420(3) 0.5857(3)
C83_2 C 0.0407(4) 0.1038(3) 0.5452(3)
C84_2 C 0.0620(4) 0.1048(3) 0.4824(3)
C85_2 C 0.0856(5) 0.0242(4) 0.3842(3)
C86_2 C 0.0047(5) 0.0271(4) 0.6394(3)
H62_2 H 0.034(4) 0.139(3) 0.448(3)
H63_2 H 0.142(4) 0.012(3) 0.373(2)
H64_2 H 0.069(4) 0.070(3) 0.358(3)
H65_2 H 0.040(4) 0.015(3) 0.678(3)
H45_2 H 0.004(6) 0.861(5) 0.441(4)
H50_2 H 0.013(4) 0.929(3) 0.343(3)
C80_2 C 0.1417(4) 0.9886(3) 0.5052(3)
C81_2 C 0.1191(4) 0.9882(3) 0.5670(3)
H59_2 H 0.173(3) 0.950(3) 0.491(2)
H60_2 H 0.135(4) 0.954(3) 0.595(3)
C49_2 C 0.6010(3) 0.0393(3) 0.4508(3)
C50_2 C 0.6107(3) 0.0661(2) 0.5150(3)
C51_2 C 0.6289(3) 0.0163(3) 0.5671(3)
C54_2 C 0.5835(4) 0.1446(3) 0.5274(4)
C56_2 C 0.8583(4) 0.0114(3) 0.4948(3)
C57_2 C 0.8809(4) 0.0118(3) 0.4330(3)
H36_2 H 0.599(3) 0.068(3) 0.416(2)
H37_2 H 0.637(4) 0.033(3) 0.611(3)
H41_2 H 0.607(4) 0.176(3) 0.498(3)
H42_2 H 0.616(4) 0.161(3) 0.573(3)
H43_2 H 0.827(3) 0.050(3) 0.509(2)
H44_2 H 0.865(4) 0.046(3) 0.405(3)
C71_2 C 0.4120(3) 0.0359(3) 0.5627(3)
C75_2 C 0.3835(3) 0.0592(3) 0.4455(3)
C76_2 C 0.4738(4) 0.1564(3) 0.5239(4)
H51_2 H 0.429(3) 0.053(3) 0.605(2)
H54_2 H 0.380(3) 0.085(3) 0.412(2)
H55_2 H 0.466(4) 0.179(3) 0.559(3)
H56_2 H 0.454(4) 0.188(3) 0.479(3)
H61_2 H 0.996(6) 0.139(5) 0.559(4)
H66_2 H 0.987(4) 0.071(3) 0.657(3)
O17 O 0.7362(3) 0.7202(2) 0.0713(2)
Ag6_2 Ag 0.75308(2) 0.88691(2) 0.49925(2)
F17_2 F 0.6666(3) 0.7385(2) 0.2934(2)
F18_2 F 0.7594(3) 0.6444(2) 0.3273(2)
F19_2 F 0.8402(4) 0.8215(2) 0.3019(2)
F20_2 F 0.9138(4) 0.7177(3) 0.3169(2)
F21_2 F 0.7123(3) 0.7975(3) 0.1831(2)
F22_2 F 0.7703(4) 0.6684(2) 0.2008(2)
F23_2 F 0.8848(3) 0.8334(3) 0.1851(2)
F24_2 F 0.9323(3) 0.7084(2) 0.1958(2)
O10_2 O 0.7257(3) 0.8039(2) 0.4093(2)
O11_2 O 0.8330(3) 0.7111(2) 0.4410(2)
O13_2 O 0.8649(3) 0.7875(2) 0.0625(2)
C47_2 C 0.5844(3) 0.9151(2) 0.4893(2)
C48_2 C 0.5880(3) 0.9641(3) 0.4373(3)
C52_2 C 0.6165(3) 0.9408(3) 0.5545(3)
C53_2 C 0.5262(4) 0.8436(3) 0.4761(4)
C55_2 C 0.8956(4) 0.9576(3) 0.5422(3)
C58_2 C 0.9409(3) 0.9580(3) 0.4143(3)
C59_2 C 0.9593(4) 0.8962(3) 0.4548(3)
C60_2 C 0.9380(4) 0.8952(3) 0.5176(3)
C61_2 C 0.9144(5) 0.9758(4) 0.6158(3)
C62_2 C 0.9953(5) 0.9729(4) 0.3606(3)
C63_2 C 0.7722(4) 0.7485(3) 0.4000(2)
C64_2 C 0.7547(5) 0.7193(3) 0.3274(3)
C65_2 C 0.8258(8) 0.7500(4) 0.2905(3)
C66_2 C 0.7802(7) 0.7386(5) 0.2113(4)
C67_2 C 0.8525(7) 0.7580(7) 0.1712(5)
C68_2 C 0.8065(4) 0.7583(3) 0.0931(2)
H35_2 H 0.571(3) 0.947(3) 0.395(2)
H38_2 H 0.620(3) 0.915(3) 0.588(2)
H39_2 H 0.534(4) 0.821(3) 0.441(3)
H40_2 H 0.546(4) 0.812(3) 0.521(3)
H46_2 H 0.966(4) 0.861(3) 0.552(3)
H47_2 H 0.858(4) 0.988(3) 0.627(2)
H48_2 H 0.931(4) 0.930(3) 0.642(3)
H49_2 H 0.960(4) 0.985(3) 0.322(3)
F25_2 F 0.6666(3) 0.7615(2) 0.7934(2)
F26_2 F 0.7594(3) 0.8556(2) 0.8273(2)
F27_2 F 0.8402(4) 0.6785(2) 0.8019(2)
F28_2 F 0.9138(4) 0.7823(3) 0.8169(2)
F29_2 F 0.7123(3) 0.7025(3) 0.6831(2)
F30_2 F 0.7703(4) 0.8316(2) 0.7008(2)
F31_2 F 0.8848(3) 0.6666(3) 0.6851(2)
F32_2 F 0.9323(3) 0.7916(2) 0.6958(2)
O14_2 O 0.7257(3) 0.6961(2) 0.9093(2)
O15_2 O 0.8330(3) 0.7889(2) 0.9410(2)
O16_2 O 0.7362(3) 0.7798(2) 0.5713(2)
O18_2 O 0.8649(3) 0.7125(2) 0.5625(2)
C72_2 C 0.3990(3) 0.9607(3) 0.5492(3)
C73_2 C 0.3893(3) 0.9339(2) 0.4850(3)
C74_2 C 0.3711(3) 0.9837(3) 0.4329(3)
C77_2 C 0.4165(4) 0.8554(3) 0.4726(4)
C87_2 C 0.7722(4) 0.7515(3) 0.9000(2)
C88_2 C 0.7547(5) 0.7807(3) 0.8274(3)
C89_2 C 0.8258(8) 0.7500(4) 0.7905(3)
C90_2 C 0.7802(7) 0.7614(5) 0.7113(4)
C91_2 C 0.8525(7) 0.7420(7) 0.6712(5)
C92_2 C 0.8065(4) 0.7417(3) 0.5931(2)
H52_2 H 0.401(3) 0.932(3) 0.584(2)
H53_2 H 0.363(4) 0.967(3) 0.389(3)
H57_2 H 0.393(4) 0.824(3) 0.502(3)
H58_2 H 0.384(4) 0.839(3) 0.427(3)
H67_2 H 0.896642 0.751608 0.540806
H68_2 H 0.829364 0.821774 0.0277948
H67_3 H 0.896642 0.748392 0.0408063
H68_3 H 0.829364 0.678226 0.527795
H67_4 H 0.103358 0.248392 0.459194
H68_4 H 0.170636 0.178226 0.972205
loop_
_geom_bond_atom_site_label_1
_geom_bond_atom_site_label_2
_geom_bond_site_symmetry_1
_geom_bond_site_symmetry_2
Ag1 O1 1_555 1_555
F1 C18 1_555 1_555
F2 C18 1_555 1_555
F3 C19 1_555 1_555
F4 C19 1_555 1_555
F5 C20 1_555 1_555
F6 C20 1_555 1_555
F7 C21 1_555 1_555
F8 C21 1_555 1_555
O1 C17 1_555 1_555
O2 C17 1_555 1_555
O8 C22 1_555 1_555
O4 C22 1_555 1_555
C1 Ag1 1_555 1_555
C2 C1 1_555 1_555
C3 C2 1_555 1_555
C4 C3 1_555 1_555
C5 C4 1_555 1_555
C6 C1 1_555 1_555
C7 C1 1_555 1_555
C8 C4 1_555 1_555
C9 Ag1 1_555 1_555
C10 C9 1_555 1_555
C11 C10 1_555 1_555
C12 C11 1_555 1_555
C13 C12 1_555 1_555
C14 C9 1_555 1_555
C15 C9 1_555 1_555
C16 C12 1_555 1_555
C17 C18 1_555 1_555
C18 C19 1_555 1_555
C19 C20 1_555 1_555
C20 C21 1_555 1_555
C21 C22 1_555 1_555
H1 C2 1_555 1_555
H2 C3 1_555 1_555
H3 C5 1_555 1_555
H4 C6 1_555 1_555
H5 C7 1_555 1_555
H6 C7 1_555 1_555
H7 C8 1_555 1_555
H8 C8 1_555 1_555
H9 C10 1_555 1_555
H10 C11 1_555 1_555
H11 C13 1_555 1_555
H12 C14 1_555 1_555
H13 C15 1_555 1_555
H14 C15 1_555 1_555
H15 C16 1_555 1_555
H16 C16 1_555 1_555
Ag2 O5 1_555 1_555
Ag4 C23 1_555 1_555
F9 C42 1_555 1_555
F10 C42 1_555 1_555
F11 C43 1_555 1_555
F12 C43 1_555 1_555
F13 C44 1_555 1_555
F14 C44 1_555 1_555
F15 C45 1_555 1_555
F16 C45 1_555 1_555
O5 C41 1_555 1_555
O6 C41 1_555 1_555
O7 Ag1 1_555 1_555
O9 C46 1_555 1_555
C23 C25 1_555 1_555
C24 Ag2 1_555 1_555
C25 C26 1_555 1_555
C26 C27 1_555 1_555
C27 C28 1_555 1_555
C28 C29 1_555 1_555
C29 C23 1_555 1_555
C30 C8 1_555 1_555
C31 C7 1_555 1_555
C33 Ag2 1_555 1_555
C41 C42 1_555 1_555
C42 C43 1_555 1_555
C43 C44 1_555 1_555
C44 C45 1_555 1_555
C45 C46 1_555 1_555
C46 O7 1_555 1_555
H18 C25 1_555 1_555
H19 C26 1_555 1_555
H20 C28 1_555 1_555
H21 C29 1_555 1_555
H22 C30 1_555 1_555
H23 C30 1_555 1_555
H24 C31 1_555 1_555
H25 C31 1_555 1_555
H34 O9 1_555 1_555
C5 C6 1_555 1_555
C13 C14 1_555 1_555
C23 C30 1_555 1_555
C27 C31 1_555 1_555
Ag4 C32 1_555 1_555
C32 C34 1_555 1_555
C34 C35 1_555 1_555
C35 C36 1_555 1_555
C36 C37 1_555 1_555
C37 C38 1_555 1_555
C38 C32 1_555 1_555
H26 C34 1_555 1_555
H27 C35 1_555 1_555
H28 C37 1_555 1_555
H29 C38 1_555 1_555
H30 C39 1_555 1_555
H31 C39 1_555 1_555
H32 C40 1_555 1_555
H33 C40 1_555 1_555
C32 C39 1_555 1_555
C36 C40 1_555 1_555
H27_2 C35_2 1_555 1_555
H26_2 C34_2 1_555 1_555
C36_2 C37_2 1_555 1_555
H28_2 C37_2 1_555 1_555
H33_2 C40_2 1_555 1_555
C36_2 C40_2 1_555 1_555
C38_2 C33 1_555 1_555
H29_2 C38_2 1_555 1_555
H30_2 C39_2 1_555 1_555
H31_2 C39_2 1_555 1_555
C33 C39_2 1_555 1_555
Ag1_2 O1_2 1_555 1_555
F1_2 C18_2 1_555 1_555
F2_2 C18_2 1_555 1_555
F3_2 C19_2 1_555 1_555
F4_2 C19_2 1_555 1_555
F5_2 C20_2 1_555 1_555
F6_2 C20_2 1_555 1_555
F7_2 C21_2 1_555 1_555
F8_2 C21_2 1_555 1_555
O1_2 C17_2 1_555 1_555
O2_2 C17_2 1_555 1_555
O3 C22_2 1_555 1_555
O4_2 C22_2 1_555 1_555
C1_2 Ag1_2 1_555 1_555
C2_2 C1_2 1_555 1_555
C7_2 C1_2 1_555 1_555
C9_2 Ag1_2 1_555 1_555
C14_2 C9_2 1_555 1_555
C15_2 C9_2 1_555 1_555
C17_2 C18_2 1_555 1_555
C18_2 C19_2 1_555 1_555
C19_2 C20_2 1_555 1_555
C20_2 C21_2 1_555 1_555
C21_2 C22_2 1_555 1_555
H1_2 C2_2 1_555 1_555
H5_2 C7_2 1_555 1_555
H6_2 C7_2 1_555 1_555
H12_2 C14_2 1_555 1_555
H13_2 C15_2 1_555 1_555
H14_2 C15_2 1_555 1_555
H17_2 O4_2 1_555 1_555
Ag4 O3 1_555 1_555
C27_2 C28_2 1_555 1_555
C31_2 C7_2 1_555 1_555
H20_2 C28_2 1_555 1_555
H24_2 C31_2 1_555 1_555
H25_2 C31_2 1_555 1_555
C27_2 C31_2 1_555 1_555
C13_2 C12_2 1_555 1_555
C16_2 C12_2 1_555 1_555
H4_2 C6_2 1_555 1_555
H11_2 C13_2 1_555 1_555
H16_2 C16_2 1_555 1_555
Ag4 O5_2 1_555 1_555
F9_2 C42_2 1_555 1_555
F10_2 C42_2 1_555 1_555
F11_2 C43_2 1_555 1_555
F12_2 C43_2 1_555 1_555
F13_2 C44_2 1_555 1_555
F14_2 C44_2 1_555 1_555
F15_2 C45_2 1_555 1_555
F16_2 C45_2 1_555 1_555
O5_2 C41_2 1_555 1_555
O6_2 C41_2 1_555 1_555
O9_2 C46_2 1_555 1_555
C41_2 C42_2 1_555 1_555
C42_2 C43_2 1_555 1_555
C43_2 C44_2 1_555 1_555
C44_2 C45_2 1_555 1_555
C45_2 C46_2 1_555 1_555
C46_2 O7_2 1_555 1_555
H19_2 C26_2 1_555 1_555
H2_2 C3_2 1_555 1_555
H9_2 C10_2 1_555 1_555
H21_2 C29_2 1_555 1_555
C5_2 C4_2 1_555 1_555
C8_2 C4_2 1_555 1_555
H3_2 C5_2 1_555 1_555
H7_2 C8_2 1_555 1_555
H8_2 C8_2 1_555 1_555
H10_2 C11_2 1_555 1_555
C24 C25_2 1_555 1_555
C30_2 C8_2 1_555 1_555
H18_2 C25_2 1_555 1_555
H22_2 C30_2 1_555 1_555
H23_2 C30_2 1_555 1_555
C24 C30_2 1_555 1_555
Ag6 O10 1_555 1_555
F17 C64 1_555 1_555
F18 C64 1_555 1_555
F19 C65 1_555 1_555
F20 C65 1_555 1_555
F21 C66 1_555 1_555
F22 C66 1_555 1_555
F23 C67 1_555 1_555
F24 C67 1_555 1_555
O10 C63 1_555 1_555
O11 C63 1_555 1_555
O12 C68 1_555 1_555
O13 C68 1_555 1_555
C47 Ag6 1_555 1_555
C48 C47 1_555 1_555
C49 C48 1_555 1_555
C53 C47 1_555 1_555
C57 C56 1_555 1_555
C58 C57 1_555 1_555
C59 C58 1_555 1_555
C62 C58 1_555 1_555
C63 C64 1_555 1_555
C64 C65 1_555 1_555
C65 C66 1_555 1_555
C66 C67 1_555 1_555
C67 C68 1_555 1_555
H35 C48 1_555 1_555
H36 C49 1_555 1_555
H39 C53 1_555 1_555
H44 C57 1_555 1_555
H49 C62 1_555 1_555
Ag8 O12 1_555 1_555
C73 C74 1_555 1_555
C74 C75 1_555 1_555
C77 C53 1_555 1_555
H53 C74 1_555 1_555
H54 C75 1_555 1_555
H58 C77 1_555 1_555
C73 C77 1_555 1_555
O13 H68 1_555 1_555
C51 C50 1_555 1_555
C54 C50 1_555 1_555
C60 C55 1_555 1_555
C61 C55 1_555 1_555
H37 C51 1_555 1_555
H38 C52 1_555 1_555
H42 C54 1_555 1_555
H46 C60 1_555 1_555
H47 C61 1_555 1_555
H48 C61 1_555 1_555
Ag8 O14 1_555 1_555
Ag9 C69 1_555 1_555
F25 C88 1_555 1_555
F26 C88 1_555 1_555
F27 C89 1_555 1_555
F28 C89 1_555 1_555
F29 C90 1_555 1_555
F30 C90 1_555 1_555
F31 C91 1_555 1_555
F32 C91 1_555 1_555
O14 C87 1_555 1_555
O15 C87 1_555 1_555
O18 C92 1_555 1_555
C69 C71 1_555 1_555
C70 Ag8 1_555 1_555
C71 C72 1_555 1_555
C76 C54 1_555 1_555
C79 Ag8 1_555 1_555
C87 C88 1_555 1_555
C88 C89 1_555 1_555
C89 C90 1_555 1_555
C90 C91 1_555 1_555
C91 C92 1_555 1_555
C92 O16 1_555 1_555
H51 C71 1_555 1_555
H52 C72 1_555 1_555
H55 C76 1_555 1_555
C51 C52 1_555 1_555
C69 C76 1_555 1_555
O18 H67 1_555 1_555
C84 C78 1_555 1_555
H62 C84 1_555 1_555
H63 C85 1_555 1_555
H64 C85 1_555 1_555
C78 C85 1_555 1_555
C80 C81 1_555 1_555
C81 C82 1_555 1_555
C82 C83 1_555 1_555
H60 C81 1_555 1_555
H65 C86 1_555 1_555
C82 C86 1_555 1_555
C82_2 C83_2 1_555 1_555
C83_2 C84_2 1_555 1_555
C84_2 C79 1_555 1_555
H62_2 C84_2 1_555 1_555
H63_2 C85_2 1_555 1_555
H64_2 C85_2 1_555 1_555
H65_2 C86_2 1_555 1_555
C79 C85_2 1_555 1_555
C82_2 C86_2 1_555 1_555
C80_2 C81_2 1_555 1_555
H59_2 C80_2 1_555 1_555
H60_2 C81_2 1_555 1_555
C50_2 C49_2 1_555 1_555
C51_2 C50_2 1_555 1_555
C54_2 C50_2 1_555 1_555
C57_2 C56_2 1_555 1_555
H36_2 C49_2 1_555 1_555
H37_2 C51_2 1_555 1_555
H41_2 C54_2 1_555 1_555
H42_2 C54_2 1_555 1_555
H43_2 C56_2 1_555 1_555
H44_2 C57_2 1_555 1_555
C70 C71_2 1_555 1_555
C75_2 C70 1_555 1_555
C76_2 C54_2 1_555 1_555
H51_2 C71_2 1_555 1_555
H54_2 C75_2 1_555 1_555
H55_2 C76_2 1_555 1_555
H56_2 C76_2 1_555 1_555
C70 C76_2 1_555 1_555
Ag6_2 O10_2 1_555 1_555
F17_2 C64_2 1_555 1_555
F18_2 C64_2 1_555 1_555
F19_2 C65_2 1_555 1_555
F20_2 C65_2 1_555 1_555
F21_2 C66_2 1_555 1_555
F22_2 C66_2 1_555 1_555
F23_2 C67_2 1_555 1_555
F24_2 C67_2 1_555 1_555
O10_2 C63_2 1_555 1_555
O11_2 C63_2 1_555 1_555
O17 C68_2 1_555 1_555
O13_2 C68_2 1_555 1_555
C47_2 Ag6_2 1_555 1_555
C48_2 C47_2 1_555 1_555
C52_2 C47_2 1_555 1_555
C53_2 C47_2 1_555 1_555
C55_2 Ag6_2 1_555 1_555
C59_2 C58_2 1_555 1_555
C60_2 C55_2 1_555 1_555
C61_2 C55_2 1_555 1_555
C62_2 C58_2 1_555 1_555
C63_2 C64_2 1_555 1_555
C64_2 C65_2 1_555 1_555
C65_2 C66_2 1_555 1_555
C66_2 C67_2 1_555 1_555
C67_2 C68_2 1_555 1_555
H35_2 C48_2 1_555 1_555
H38_2 C52_2 1_555 1_555
H39_2 C53_2 1_555 1_555
H40_2 C53_2 1_555 1_555
H46_2 C60_2 1_555 1_555
H47_2 C61_2 1_555 1_555
H48_2 C61_2 1_555 1_555
H49_2 C62_2 1_555 1_555
Ag9 O14_2 1_555 1_555
F25_2 C88_2 1_555 1_555
F26_2 C88_2 1_555 1_555
F27_2 C89_2 1_555 1_555
F28_2 C89_2 1_555 1_555
F29_2 C90_2 1_555 1_555
F30_2 C90_2 1_555 1_555
F31_2 C91_2 1_555 1_555
F32_2 C91_2 1_555 1_555
O14_2 C87_2 1_555 1_555
O15_2 C87_2 1_555 1_555
O16_2 Ag6_2 1_555 1_555
O18_2 C92_2 1_555 1_555
C72_2 C73_2 1_555 1_555
C73_2 C74_2 1_555 1_555
C77_2 C53_2 1_555 1_555
C87_2 C88_2 1_555 1_555
C88_2 C89_2 1_555 1_555
C89_2 C90_2 1_555 1_555
C90_2 C91_2 1_555 1_555
C91_2 C92_2 1_555 1_555
C92_2 O16_2 1_555 1_555
H52_2 C72_2 1_555 1_555
H53_2 C74_2 1_555 1_555
H57_2 C77_2 1_555 1_555
H58_2 C77_2 1_555 1_555
C59_2 C60_2 1_555 1_555
C73_2 C77_2 1_555 1_555
O18_2 H67_2 1_555 1_555
O13_2 H68_2 1_555 1_555
O13_2 H67_3 1_555 1_555
O18_2 H68_3 1_555 1_555
O13 H67_4 1_555 1_555
O18 H68_4 1_555 1_555

#END
