
###############################################################################
#
# This file contains modified crystal structure data generated from the
# MOF subset of the Cambridge Structural Database (CSD) v543 
# hosted by the Cambridge Crystallographic Data Centre (CCDC).
#
# This work is licensed under the Creative Commons
# Attribution-NonCommercial-ShareAlike 4.0 International License.
# To view a copy of this license, visit
# http://creativecommons.org/licenses/by-nc-sa/4.0/
# or send a letter to
# Creative Commons, PO Box 1866, Mountain View, CA 94042, USA.
#
# CIF created using the CSD Python API on 29 September 2022
# The structure has been converted into the P1 space group
# The structure has a 3D framework
# The original CSD entry FILBAG is in the cubic crystal system
# The original CSD entry FILBAG is in a Sohncke space group
# The framework has been calculated to contain at least 10.0% void space
# The void calculation uses a probe of radius 1.32A, grid spacing 0.4
# The framework is charged, counterions have been retained in the structure
# H atom positions have been added when not included in the experimental data
# Generated hydrogen atom positions removed from atoms on special positions
#
###############################################################################

data_FILBAG
_chemical_formula_moiety         '(C384 H192 N72 O92 Zn20 11-)n'
_symmetry_cell_setting           triclinic
_symmetry_space_group_name_H-M   'P 1'
_symmetry_Int_Tables_number      1
_space_group_name_Hall           'P 1'
loop_
_symmetry_equiv_pos_site_id
_symmetry_equiv_pos_as_xyz
1 x,y,z
_cell_length_a                   31.124(3)
_cell_length_b                   31.124(3)
_cell_length_c                   31.124(3)
_cell_angle_alpha                90
_cell_angle_beta                 90
_cell_angle_gamma                90
_cell_volume                     30149.9
loop_
_atom_site_label
_atom_site_type_symbol
_atom_site_fract_x
_atom_site_fract_y
_atom_site_fract_z
Zn1 Zn 0.44159(3) 0.44159(3) 0.44159(3)
Zn2 Zn 0.26430(2) 0.48570(2) 0.3750
O1 O 0.5062(3) 0.8343(2) 0.3050(2)
O2 O 0.48269(17) 0.82042(17) 0.24511(18)
O3 O 0.3549(2) 0.6519(2) 0.3126(3)
O4 O 0.4851(2) 0.6266(2) 0.3744(3)
O5 O 0.48223(13) 0.48223(13) 0.48223(13)
N1 N 0.39410(17) 0.47694(15) 0.41441(17)
N2 N 0.32928(16) 0.48982(16) 0.38681(15)
N3 N 0.4230(3) 0.6523(3) 0.3432(4)
C1 C 0.3537(2) 0.4626(2) 0.4071(2)
H1 H 0.3442 0.4356 0.4157
C2 C 0.39514(13) 0.51456(12) 0.39517(16)
C3 C 0.35498(12) 0.52326(12) 0.37767(16)
C4 C 0.34748(13) 0.56229(15) 0.35731(18)
H2 H 0.3206 0.5681 0.3456
C5 C 0.38013(18) 0.59263(14) 0.3545(2)
C6 C 0.42029(15) 0.58393(16) 0.3720(2)
C7 C 0.42779(12) 0.54489(17) 0.3923(2)
H3 H 0.4547 0.5391 0.4040
C8 C 0.4493(4) 0.6233(4) 0.3651(5)
C9 C 0.3828(4) 0.6345(3) 0.3340(4)
C10 C 0.4372(3) 0.69183(19) 0.3278(3)
C11 C 0.4318(3) 0.7040(2) 0.2852(3)
H4 H 0.4173 0.6859 0.2663
C12 C 0.4480(3) 0.7430(2) 0.27086(19)
H5 H 0.4444 0.7511 0.2423
C13 C 0.4696(3) 0.76996(17) 0.2992(2)
C14 C 0.4750(3) 0.7578(2) 0.3418(2)
H6 H 0.4895 0.7759 0.3607
C15 C 0.4588(3) 0.7188(2) 0.3561(2)
H7 H 0.4624 0.7107 0.3847
C16 C 0.4865(3) 0.8136(3) 0.2801(3)
Zn3 Zn 0.3750 0.26430(2) 0.48570(2)
O6 O 0.3050(2) 0.5062(3) 0.8343(2)
O7 O 0.24511(18) 0.48269(17) 0.82042(17)
O8 O 0.3126(3) 0.3549(2) 0.6519(2)
O9 O 0.3744(3) 0.4851(2) 0.6266(2)
N4 N 0.41441(17) 0.39410(17) 0.47694(15)
N5 N 0.38681(15) 0.32928(16) 0.48982(16)
N6 N 0.3432(4) 0.4230(3) 0.6523(3)
C17 C 0.4071(2) 0.3537(2) 0.4626(2)
H8 H 0.4157 0.3442 0.4356
C18 C 0.39517(16) 0.39514(13) 0.51456(12)
C19 C 0.37767(16) 0.35498(12) 0.52326(12)
C20 C 0.35731(18) 0.34748(13) 0.56229(15)
H9 H 0.3456 0.3206 0.5681
C21 C 0.3545(2) 0.38013(18) 0.59263(14)
C22 C 0.3720(2) 0.42029(15) 0.58393(16)
C23 C 0.3923(2) 0.42779(12) 0.54489(17)
H10 H 0.4040 0.4547 0.5391
C24 C 0.3651(5) 0.4493(4) 0.6233(4)
C25 C 0.3340(4) 0.3828(4) 0.6345(3)
C26 C 0.3278(3) 0.4372(3) 0.69183(19)
C27 C 0.2852(3) 0.4318(3) 0.7040(2)
H11 H 0.2663 0.4173 0.6859
C28 C 0.27086(19) 0.4480(3) 0.7430(2)
H12 H 0.2423 0.4444 0.7511
C29 C 0.2992(2) 0.4696(3) 0.76996(17)
C30 C 0.3418(2) 0.4750(3) 0.7578(2)
H13 H 0.3607 0.4895 0.7759
C31 C 0.3561(2) 0.4588(3) 0.7188(2)
H14 H 0.3847 0.4624 0.7107
C32 C 0.2801(3) 0.4865(3) 0.8136(3)
Zn4 Zn 0.48570(2) 0.3750 0.26430(2)
O10 O 0.8343(2) 0.3050(2) 0.5062(3)
O11 O 0.82042(17) 0.24511(18) 0.48269(17)
O12 O 0.6519(2) 0.3126(3) 0.3549(2)
O13 O 0.6266(2) 0.3744(3) 0.4851(2)
N7 N 0.47694(15) 0.41441(17) 0.39410(17)
N8 N 0.48982(16) 0.38681(15) 0.32928(16)
N9 N 0.6523(3) 0.3432(4) 0.4230(3)
C33 C 0.4626(2) 0.4071(2) 0.3537(2)
H15 H 0.4356 0.4157 0.3442
C34 C 0.51456(12) 0.39517(16) 0.39514(13)
C35 C 0.52326(12) 0.37767(16) 0.35498(12)
C36 C 0.56229(15) 0.35731(18) 0.34748(13)
H16 H 0.5681 0.3456 0.3206
C37 C 0.59263(14) 0.3545(2) 0.38013(18)
C38 C 0.58393(16) 0.3720(2) 0.42029(15)
C39 C 0.54489(17) 0.3923(2) 0.42779(12)
H17 H 0.5391 0.4040 0.4547
C40 C 0.6233(4) 0.3651(5) 0.4493(4)
C41 C 0.6345(3) 0.3340(4) 0.3828(4)
C42 C 0.69183(19) 0.3278(3) 0.4372(3)
C43 C 0.7040(2) 0.2852(3) 0.4318(3)
H18 H 0.6859 0.2663 0.4173
C44 C 0.7430(2) 0.27086(19) 0.4480(3)
H19 H 0.7511 0.2423 0.4444
C45 C 0.76996(17) 0.2992(2) 0.4696(3)
C46 C 0.7578(2) 0.3418(2) 0.4750(3)
H20 H 0.7759 0.3607 0.4895
C47 C 0.7188(2) 0.3561(2) 0.4588(3)
H21 H 0.7107 0.3847 0.4624
C48 C 0.8136(3) 0.2801(3) 0.4865(3)
Zn5 Zn 0.30841(3) 0.30841(3) 0.30841(3)
O16 O 0.0981(2) 0.3951(2) 0.4374(3)
O17 O 0.1234(2) 0.2649(2) 0.3756(3)
O18 O 0.26777(13) 0.26777(13) 0.26777(13)
N10 N 0.27306(15) 0.35590(17) 0.33559(17)
N11 N 0.26018(16) 0.42072(16) 0.36319(15)
N12 N 0.0977(3) 0.3270(3) 0.4068(4)
C49 C 0.2874(2) 0.3963(2) 0.3429(2)
H22 H 0.3144 0.4058 0.3343
C50 C 0.23544(12) 0.35486(13) 0.35483(16)
C51 C 0.22674(12) 0.39502(12) 0.37233(16)
C52 C 0.18771(15) 0.40252(13) 0.39269(18)
H23 H 0.1819 0.4294 0.4044
C53 C 0.15737(14) 0.36987(18) 0.3955(2)
C54 C 0.16607(16) 0.32971(15) 0.3780(2)
C55 C 0.20511(17) 0.32221(12) 0.3577(2)
H24 H 0.2109 0.2953 0.3460
C56 C 0.1267(4) 0.3007(4) 0.3849(5)
C57 C 0.1155(3) 0.3672(4) 0.4160(4)
C58 C 0.05817(19) 0.3128(3) 0.4222(3)
C59 C 0.0460(2) 0.3182(3) 0.4648(3)
H25 H 0.0641 0.3327 0.4837
C60 C 0.0070(2) 0.3020(3) 0.47914(19)
C63 C 0.0312(2) 0.2912(3) 0.3939(2)
H28 H 0.0393 0.2876 0.3653
O21 O 0.3951(2) 0.4374(3) 0.0981(2)
O22 O 0.2649(2) 0.3756(3) 0.1234(2)
N13 N 0.35590(17) 0.33559(17) 0.27306(15)
N14 N 0.42072(16) 0.36319(15) 0.26018(16)
N15 N 0.3270(3) 0.4068(4) 0.0977(3)
C65 C 0.3963(2) 0.3429(2) 0.2874(2)
H29 H 0.4058 0.3343 0.3144
C66 C 0.35486(13) 0.35483(16) 0.23544(12)
C67 C 0.39502(12) 0.37233(16) 0.22674(12)
C68 C 0.40252(13) 0.39269(18) 0.18771(15)
H30 H 0.4294 0.4044 0.1819
C69 C 0.36987(18) 0.3955(2) 0.15737(14)
C70 C 0.32971(15) 0.3780(2) 0.16607(16)
C71 C 0.32221(12) 0.3577(2) 0.20511(17)
H31 H 0.2953 0.3460 0.2109
C72 C 0.3007(4) 0.3849(5) 0.1267(4)
C73 C 0.3672(4) 0.4160(4) 0.1155(3)
C74 C 0.3128(3) 0.4222(3) 0.05817(19)
C75 C 0.3182(3) 0.4648(3) 0.0460(2)
H32 H 0.3327 0.4837 0.0641
C76 C 0.3020(3) 0.47914(19) 0.0070(2)
C79 C 0.2912(3) 0.3939(2) 0.0312(2)
H35 H 0.2876 0.3653 0.0393
O25 O 0.4374(3) 0.0981(2) 0.3951(2)
O26 O 0.3756(3) 0.1234(2) 0.2649(2)
N16 N 0.33559(17) 0.27306(15) 0.35590(17)
N17 N 0.36319(15) 0.26018(16) 0.42072(16)
N18 N 0.4068(4) 0.0977(3) 0.3270(3)
C81 C 0.3429(2) 0.2874(2) 0.3963(2)
H36 H 0.3343 0.3144 0.4058
C82 C 0.35483(16) 0.23544(12) 0.35486(13)
C83 C 0.37233(16) 0.22674(12) 0.39502(12)
C84 C 0.39269(18) 0.18771(15) 0.40252(13)
H37 H 0.4044 0.1819 0.4294
C85 C 0.3955(2) 0.15737(14) 0.36987(18)
C86 C 0.3780(2) 0.16607(16) 0.32971(15)
C87 C 0.3577(2) 0.20511(17) 0.32221(12)
H38 H 0.3460 0.2109 0.2953
C88 C 0.3849(5) 0.1267(4) 0.3007(4)
C89 C 0.4160(4) 0.1155(3) 0.3672(4)
C90 C 0.4222(3) 0.05817(19) 0.3128(3)
C91 C 0.4648(3) 0.0460(2) 0.3182(3)
H39 H 0.4837 0.0641 0.3327
C92 C 0.47914(19) 0.0070(2) 0.3020(3)
C95 C 0.3939(2) 0.0312(2) 0.2912(3)
H42 H 0.3653 0.0393 0.2876
Zn7 Zn 0.23570(2) 0.51430(2) 0.8750
Zn9 Zn 0.8750 0.23570(2) 0.51430(2)
Zn11 Zn 0.51430(2) 0.8750 0.23570(2)
O27 O 0.4938(3) 0.3343(2) 0.1950(2)
O28 O 0.1950(2) 0.4938(3) 0.3343(2)
O29 O 0.3343(2) 0.1950(2) 0.4938(3)
O30 O 0.4157(2) 0.2562(3) 0.5550(2)
O31 O 0.2562(3) 0.5550(2) 0.4157(2)
O32 O 0.5550(2) 0.4157(2) 0.2562(3)
O33 O 0.51731(17) 0.32042(17) 0.25489(18)
O34 O 0.25489(18) 0.51731(17) 0.32042(17)
O35 O 0.32042(17) 0.25489(18) 0.51731(17)
O36 O 0.42958(17) 0.23269(17) 0.49511(18)
O37 O 0.23269(17) 0.49511(18) 0.42958(17)
O38 O 0.49511(18) 0.42958(17) 0.23269(17)
O19 O 0.2438(3) 0.4450(2) 0.9157(2)
O20 O 0.26731(17) 0.50489(18) 0.92958(17)
H33 H 0.3056 0.5077 0.9989
C77 C 0.2804(3) 0.4508(2) 0.98004(17)
C78 C 0.2750(3) 0.4082(2) 0.9922(2)
H34 H 0.2605 0.3893 0.9741
C80 C 0.2635(3) 0.4699(3) 0.9364(3)
O23 O 0.4450(2) 0.9157(2) 0.2438(3)
O24 O 0.50489(18) 0.92958(17) 0.26731(17)
H40 H 0.5077 0.9989 0.3056
C93 C 0.4508(2) 0.98004(17) 0.2804(3)
C94 C 0.4082(2) 0.9922(2) 0.2750(3)
H41 H 0.3893 0.9741 0.2605
C96 C 0.4699(3) 0.9364(3) 0.2635(3)
O14 O 0.9157(2) 0.2438(3) 0.4450(2)
O15 O 0.92958(17) 0.26731(17) 0.50489(18)
H26 H 0.9989 0.3056 0.5077
C61 C 0.98004(17) 0.2804(3) 0.4508(2)
C62 C 0.9922(2) 0.2750(3) 0.4082(2)
H27 H 0.9741 0.2605 0.3893
C64 C 0.9364(3) 0.2635(3) 0.4699(3)
O23_2 O 0.0550(2) 0.0843(2) 0.7438(3)
C93_2 C 0.0492(2) 0.01996(17) 0.7804(3)
C94_2 C 0.0918(2) 0.0078(2) 0.7750(3)
H41_2 H 0.1107 0.0259 0.7605
C96_2 C 0.0301(3) 0.0636(3) 0.7635(3)
O8_2 O 0.1874(3) 0.6451(2) 0.1519(2)
O9_2 O 0.1256(3) 0.5149(2) 0.1266(2)
N6_2 N 0.1568(4) 0.5770(3) 0.1523(3)
C18_2 C 0.10483(16) 0.60486(13) 0.01456(12)
C19_2 C 0.12233(16) 0.64502(12) 0.02326(12)
C20_2 C 0.14269(18) 0.65252(13) 0.06229(15)
H9_2 H 0.1544 0.6794 0.0681
C21_2 C 0.1455(2) 0.61987(18) 0.09263(14)
C22_2 C 0.1280(2) 0.57971(15) 0.08393(16)
C23_2 C 0.1077(2) 0.57221(12) 0.04489(17)
H10_2 H 0.0960 0.5453 0.0391
C24_2 C 0.1349(5) 0.5507(4) 0.1233(4)
C25_2 C 0.1660(4) 0.6172(4) 0.1345(3)
C26_2 C 0.1722(3) 0.5628(3) 0.19183(19)
C27_2 C 0.2148(3) 0.5682(3) 0.2040(2)
H11_2 H 0.2337 0.5827 0.1859
C28_2 C 0.22914(19) 0.5520(3) 0.2430(2)
H12_2 H 0.2577 0.5556 0.2511
C29_2 C 0.2008(2) 0.5304(3) 0.26996(17)
C30_2 C 0.1582(2) 0.5250(3) 0.2578(2)
H13_2 H 0.1393 0.5105 0.2759
C31_2 C 0.1439(2) 0.5412(3) 0.2188(2)
H14_2 H 0.1153 0.5376 0.2107
C32_2 C 0.2199(3) 0.5135(3) 0.3136(3)
O15_2 O 0.57042(17) 0.73269(17) 0.00489(18)
H26_2 H 0.5011 0.6944 0.0077
Zn8 Zn 0.6250 0.76430(2) 0.01430(2)
O30_2 O 0.0843(2) 0.7438(3) 0.0550(2)
O35_2 O 0.17958(17) 0.74511(18) 0.01731(17)
H45 H 0.0355012 0.504697 0.00530832
Zn1_2 Zn 0.05841(3) 0.55841(3) 0.94159(3)
O2_2 O 0.01731(17) 0.17958(17) 0.74511(18)
O3_2 O 0.1451(2) 0.3481(2) 0.8126(3)
O4_2 O 0.0149(2) 0.3734(2) 0.8744(3)
O5_2 O 0.01777(13) 0.51777(13) 0.98223(13)
N1_2 N 0.10590(17) 0.52306(15) 0.91441(17)
N2_2 N 0.17072(16) 0.51018(16) 0.88681(15)
N3_2 N 0.0770(3) 0.3477(3) 0.8432(4)
C1_2 C 0.1463(2) 0.5374(2) 0.9071(2)
H1_2 H 0.1558 0.5644 0.9157
C2_2 C 0.10486(13) 0.48544(12) 0.89517(16)
C3_2 C 0.14502(12) 0.47674(12) 0.87767(16)
C4_2 C 0.15252(13) 0.43771(15) 0.85731(18)
H2_2 H 0.1794 0.4319 0.8456
C5_2 C 0.11987(18) 0.40737(14) 0.8545(2)
C6_2 C 0.07971(15) 0.41607(16) 0.8720(2)
C7_2 C 0.07221(12) 0.45511(17) 0.8923(2)
H3_2 H 0.0453 0.4609 0.9040
C8_2 C 0.0507(4) 0.3767(4) 0.8651(5)
C9_2 C 0.1172(4) 0.3655(3) 0.8340(4)
C10_2 C 0.0628(3) 0.30817(19) 0.8278(3)
C11_2 C 0.0682(3) 0.2960(2) 0.7852(3)
H4_2 H 0.0827 0.3141 0.7663
C12_2 C 0.0520(3) 0.2570(2) 0.77086(19)
H5_2 H 0.0556 0.2489 0.7423
C13_2 C 0.0304(3) 0.23004(17) 0.7992(2)
C14_2 C 0.0250(3) 0.2422(2) 0.8418(2)
H6_2 H 0.0105 0.2241 0.8607
C15_2 C 0.0412(3) 0.2812(2) 0.8561(2)
H7_2 H 0.0376 0.2893 0.8847
C16_2 C 0.0135(3) 0.1864(3) 0.7801(3)
Zn3_2 Zn 0.1250 0.73570(2) 0.98570(2)
N4_2 N 0.08559(17) 0.60590(17) 0.97694(15)
N5_2 N 0.11319(15) 0.67072(16) 0.98982(16)
C17_2 C 0.0929(2) 0.6463(2) 0.9626(2)
H8_2 H 0.0843 0.6558 0.9356
Zn4_2 Zn 0.01430(2) 0.6250 0.76430(2)
N7_2 N 0.02306(15) 0.58559(17) 0.89410(17)
N8_2 N 0.01018(16) 0.61319(15) 0.82928(16)
C33_2 C 0.0374(2) 0.5929(2) 0.8537(2)
H15_2 H 0.0644 0.5843 0.8442
Zn5_2 Zn 0.19159(3) 0.69159(3) 0.80841(3)
O14_2 O 0.5843(2) 0.7562(3) 0.9450(2)
O16_2 O 0.4019(2) 0.6049(2) 0.9374(3)
O17_2 O 0.3766(2) 0.7351(2) 0.8756(3)
O18_2 O 0.23223(13) 0.73223(13) 0.76777(13)
N10_2 N 0.22694(15) 0.64410(17) 0.83559(17)
N11_2 N 0.23982(16) 0.57928(16) 0.86319(15)
N12_2 N 0.4023(3) 0.6730(3) 0.9068(4)
C49_2 C 0.2126(2) 0.6037(2) 0.8429(2)
H22_2 H 0.1856 0.5942 0.8343
C50_2 C 0.26456(12) 0.64514(13) 0.85483(16)
C51_2 C 0.27326(12) 0.60498(12) 0.87233(16)
C52_2 C 0.31229(15) 0.59748(13) 0.89269(18)
H23_2 H 0.3181 0.5706 0.9044
C53_2 C 0.34263(14) 0.63013(18) 0.8955(2)
C54_2 C 0.33393(16) 0.67029(15) 0.8780(2)
C55_2 C 0.29489(17) 0.67779(12) 0.8577(2)
H24_2 H 0.2891 0.7047 0.8460
C56_2 C 0.3733(4) 0.6993(4) 0.8849(5)
C57_2 C 0.3845(3) 0.6328(4) 0.9160(4)
C58_2 C 0.44183(19) 0.6872(3) 0.9222(3)
C59_2 C 0.4540(2) 0.6818(3) 0.9648(3)
H25_2 H 0.4359 0.6673 0.9837
C60_2 C 0.4930(2) 0.6980(3) 0.97914(19)
C61_2 C 0.51996(17) 0.7196(3) 0.9508(2)
C62_2 C 0.5078(2) 0.7250(3) 0.9082(2)
H27_2 H 0.5259 0.7395 0.8893
C63_2 C 0.4688(2) 0.7088(3) 0.8939(2)
H28_2 H 0.4607 0.7124 0.8653
C64_2 C 0.5636(3) 0.7365(3) 0.9699(3)
O21_2 O 0.1049(2) 0.5626(3) 0.5981(2)
O22_2 O 0.2351(2) 0.6244(3) 0.6234(2)
N13_2 N 0.14410(17) 0.66441(17) 0.77306(15)
N14_2 N 0.07928(16) 0.63681(15) 0.76018(16)
N15_2 N 0.1730(3) 0.5932(4) 0.5977(3)
C65_2 C 0.1037(2) 0.6571(2) 0.7874(2)
H29_2 H 0.0942 0.6657 0.8144
C66_2 C 0.14514(13) 0.64517(16) 0.73544(12)
C67_2 C 0.10498(12) 0.62767(16) 0.72674(12)
C68_2 C 0.09748(13) 0.60731(18) 0.68771(15)
H30_2 H 0.0706 0.5956 0.6819
C69_2 C 0.13013(18) 0.6045(2) 0.65737(14)
C70_2 C 0.17029(15) 0.6220(2) 0.66607(16)
C71_2 C 0.17779(12) 0.6423(2) 0.70511(17)
H31_2 H 0.2047 0.6540 0.7109
C72_2 C 0.1993(4) 0.6151(5) 0.6267(4)
C73_2 C 0.1328(4) 0.5840(4) 0.6155(3)
C74_2 C 0.1872(3) 0.5778(3) 0.55817(19)
C75_2 C 0.1818(3) 0.5352(3) 0.5460(2)
H32_2 H 0.1673 0.5163 0.5641
C76_2 C 0.1980(3) 0.52086(19) 0.5070(2)
H33_2 H 0.1944 0.4923 0.4989
C77_2 C 0.2196(3) 0.5492(2) 0.48004(17)
C78_2 C 0.2250(3) 0.5918(2) 0.4922(2)
H34_2 H 0.2395 0.6107 0.4741
C79_2 C 0.2088(3) 0.6061(2) 0.5312(2)
H35_2 H 0.2124 0.6347 0.5393
C80_2 C 0.2365(3) 0.5301(3) 0.4364(3)
O25_2 O 0.0626(3) 0.9019(2) 0.8951(2)
O26_2 O 0.1244(3) 0.8766(2) 0.7649(2)
N16_2 N 0.16441(17) 0.72694(15) 0.85590(17)
N17_2 N 0.13681(15) 0.73982(16) 0.92072(16)
N18_2 N 0.0932(4) 0.9023(3) 0.8270(3)
C81_2 C 0.1571(2) 0.7126(2) 0.8963(2)
H36_2 H 0.1657 0.6856 0.9058
C82_2 C 0.14517(16) 0.76456(12) 0.85486(13)
C83_2 C 0.12767(16) 0.77326(12) 0.89502(12)
C84_2 C 0.10731(18) 0.81229(15) 0.90252(13)
H37_2 H 0.0956 0.8181 0.9294
C85_2 C 0.1045(2) 0.84263(14) 0.86987(18)
C86_2 C 0.1220(2) 0.83393(16) 0.82971(15)
C87_2 C 0.1423(2) 0.79489(17) 0.82221(12)
H38_2 H 0.1540 0.7891 0.7953
C88_2 C 0.1151(5) 0.8733(4) 0.8007(4)
C89_2 C 0.0840(4) 0.8845(3) 0.8672(4)
C90_2 C 0.0778(3) 0.94183(19) 0.8128(3)
C91_2 C 0.0352(3) 0.9540(2) 0.8182(3)
H39_2 H 0.0163 0.9359 0.8327
C92_2 C 0.02086(19) 0.9930(2) 0.8020(3)
C95_2 C 0.1061(2) 0.9688(2) 0.7912(3)
H42_2 H 0.1347 0.9607 0.7876
O27_2 O 0.0062(3) 0.6657(2) 0.6950(2)
O29_2 O 0.1657(2) 0.8050(2) 0.9938(3)
O36_2 O 0.07042(17) 0.76731(17) 0.99511(18)
O38_2 O 0.00489(18) 0.57042(17) 0.73269(17)
O24_2 O 0.99511(18) 0.07042(17) 0.76731(17)
H40_2 H 0.9923 0.0011 0.8056
Zn10 Zn 0.98570(2) 0.1250 0.73570(2)
O10_2 O 0.6657(2) 0.6950(2) 0.0062(3)
O1_2 O 0.9938(3) 0.1657(2) 0.8050(2)
O11_2 O 0.67958(17) 0.75489(18) 0.98269(17)
O12_2 O 0.8481(2) 0.6874(3) 0.8549(2)
O13_2 O 0.8734(2) 0.6256(3) 0.9851(2)
N9_2 N 0.8477(3) 0.6568(4) 0.9230(3)
C34_2 C 0.98544(12) 0.60483(16) 0.89514(13)
C35_2 C 0.97674(12) 0.62233(16) 0.85498(12)
C36_2 C 0.93771(15) 0.64269(18) 0.84748(13)
H16_2 H 0.9319 0.6544 0.8206
C37_2 C 0.90737(14) 0.6455(2) 0.88013(18)
C38_2 C 0.91607(16) 0.6280(2) 0.92029(15)
C39_2 C 0.95511(17) 0.6077(2) 0.92779(12)
H17_2 H 0.9609 0.5960 0.9547
C40_2 C 0.8767(4) 0.6349(5) 0.9493(4)
C41_2 C 0.8655(3) 0.6660(4) 0.8828(4)
C42_2 C 0.80817(19) 0.6722(3) 0.9372(3)
C43_2 C 0.7960(2) 0.7148(3) 0.9318(3)
H18_2 H 0.8141 0.7337 0.9173
C44_2 C 0.7570(2) 0.72914(19) 0.9480(3)
H19_2 H 0.7489 0.7577 0.9444
C45_2 C 0.73004(17) 0.7008(2) 0.9696(3)
C46_2 C 0.7422(2) 0.6582(2) 0.9750(3)
H20_2 H 0.7241 0.6393 0.9895
C47_2 C 0.7812(2) 0.6439(2) 0.9588(3)
H21_2 H 0.7893 0.6153 0.9624
C48_2 C 0.6864(3) 0.7199(3) 0.9865(3)
O32_2 O 0.9450(2) 0.5843(2) 0.7562(3)
O33_2 O 0.98269(17) 0.67958(17) 0.75489(18)
H46 H 0.994692 0.535501 0.995303
C61_3 C 0.01996(17) 0.7804(3) 0.0492(2)
C62_3 C 0.0078(2) 0.7750(3) 0.0918(2)
H27_3 H 0.0259 0.7605 0.1107
C64_3 C 0.0636(3) 0.7635(3) 0.0301(3)
H26_3 H 0.0011 0.8056 0.9923
O3_3 O 0.6451(2) 0.1519(2) 0.1874(3)
O4_3 O 0.5149(2) 0.1266(2) 0.1256(3)
N3_3 N 0.5770(3) 0.1523(3) 0.1568(4)
C2_3 C 0.60486(13) 0.01456(12) 0.10483(16)
C3_3 C 0.64502(12) 0.02326(12) 0.12233(16)
C4_3 C 0.65252(13) 0.06229(15) 0.14269(18)
H2_3 H 0.6794 0.0681 0.1544
C5_3 C 0.61987(18) 0.09263(14) 0.1455(2)
C6_3 C 0.57971(15) 0.08393(16) 0.1280(2)
C7_3 C 0.57221(12) 0.04489(17) 0.1077(2)
H3_3 H 0.5453 0.0391 0.0960
C8_3 C 0.5507(4) 0.1233(4) 0.1349(5)
C9_3 C 0.6172(4) 0.1345(3) 0.1660(4)
C10_3 C 0.5628(3) 0.19183(19) 0.1722(3)
C11_3 C 0.5682(3) 0.2040(2) 0.2148(3)
H4_3 H 0.5827 0.1859 0.2337
C12_3 C 0.5520(3) 0.2430(2) 0.22914(19)
H5_3 H 0.5556 0.2511 0.2577
C13_3 C 0.5304(3) 0.26996(17) 0.2008(2)
C14_3 C 0.5250(3) 0.2578(2) 0.1582(2)
H6_3 H 0.5105 0.2759 0.1393
C15_3 C 0.5412(3) 0.2188(2) 0.1439(2)
H7_3 H 0.5376 0.2107 0.1153
C16_3 C 0.5135(3) 0.3136(3) 0.2199(3)
O20_2 O 0.73269(17) 0.00489(18) 0.57042(17)
H33_3 H 0.6944 0.0077 0.5011
Zn6 Zn 0.76430(2) 0.01430(2) 0.6250
O31_2 O 0.7438(3) 0.0550(2) 0.0843(2)
O34_2 O 0.74511(18) 0.01731(17) 0.17958(17)
O6_2 O 0.6950(2) 0.0062(3) 0.6657(2)
Zn1_3 Zn 0.55841(3) 0.94159(3) 0.05841(3)
Zn2_2 Zn 0.73570(2) 0.98570(2) 0.1250
O5_3 O 0.51777(13) 0.98223(13) 0.01777(13)
N1_3 N 0.60590(17) 0.97694(15) 0.08559(17)
N2_3 N 0.67072(16) 0.98982(16) 0.11319(15)
C1_3 C 0.6463(2) 0.9626(2) 0.0929(2)
H1_3 H 0.6558 0.9356 0.0843
N4_3 N 0.58559(17) 0.89410(17) 0.02306(15)
N5_3 N 0.61319(15) 0.82928(16) 0.01018(16)
C17_3 C 0.5929(2) 0.8537(2) 0.0374(2)
H8_3 H 0.5843 0.8442 0.0644
O12_3 O 0.3481(2) 0.8126(3) 0.1451(2)
O13_3 O 0.3734(2) 0.8744(3) 0.0149(2)
N7_3 N 0.52306(15) 0.91441(17) 0.10590(17)
N8_3 N 0.51018(16) 0.88681(15) 0.17072(16)
N9_3 N 0.3477(3) 0.8432(4) 0.0770(3)
C33_3 C 0.5374(2) 0.9071(2) 0.1463(2)
H15_3 H 0.5644 0.9157 0.1558
C34_3 C 0.48544(12) 0.89517(16) 0.10486(13)
C35_3 C 0.47674(12) 0.87767(16) 0.14502(12)
C36_3 C 0.43771(15) 0.85731(18) 0.15252(13)
H16_3 H 0.4319 0.8456 0.1794
C37_3 C 0.40737(14) 0.8545(2) 0.11987(18)
C38_3 C 0.41607(16) 0.8720(2) 0.07971(15)
C39_3 C 0.45511(17) 0.8923(2) 0.07221(12)
H17_3 H 0.4609 0.9040 0.0453
C40_3 C 0.3767(4) 0.8651(5) 0.0507(4)
C41_3 C 0.3655(3) 0.8340(4) 0.1172(4)
C42_3 C 0.30817(19) 0.8278(3) 0.0628(3)
C43_3 C 0.2960(2) 0.7852(3) 0.0682(3)
H18_3 H 0.3141 0.7663 0.0827
C44_3 C 0.2570(2) 0.77086(19) 0.0520(3)
H19_3 H 0.2489 0.7423 0.0556
C45_3 C 0.23004(17) 0.7992(2) 0.0304(3)
C46_3 C 0.2422(2) 0.8418(2) 0.0250(3)
H20_3 H 0.2241 0.8607 0.0105
C47_3 C 0.2812(2) 0.8561(2) 0.0412(3)
H21_3 H 0.2893 0.8847 0.0376
C48_3 C 0.1864(3) 0.7801(3) 0.0135(3)
Zn5_3 Zn 0.69159(3) 0.80841(3) 0.19159(3)
O16_3 O 0.9019(2) 0.8951(2) 0.0626(3)
O17_3 O 0.8766(2) 0.7649(2) 0.1244(3)
O18_3 O 0.73223(13) 0.76777(13) 0.23223(13)
N10_3 N 0.72694(15) 0.85590(17) 0.16441(17)
N11_3 N 0.73982(16) 0.92072(16) 0.13681(15)
N12_3 N 0.9023(3) 0.8270(3) 0.0932(4)
C49_3 C 0.7126(2) 0.8963(2) 0.1571(2)
H22_3 H 0.6856 0.9058 0.1657
C50_3 C 0.76456(12) 0.85486(13) 0.14517(16)
C51_3 C 0.77326(12) 0.89502(12) 0.12767(16)
C52_3 C 0.81229(15) 0.90252(13) 0.10731(18)
H23_3 H 0.8181 0.9294 0.0956
C53_3 C 0.84263(14) 0.86987(18) 0.1045(2)
C54_3 C 0.83393(16) 0.82971(15) 0.1220(2)
C55_3 C 0.79489(17) 0.82221(12) 0.1423(2)
H24_3 H 0.7891 0.7953 0.1540
C56_3 C 0.8733(4) 0.8007(4) 0.1151(5)
C57_3 C 0.8845(3) 0.8672(4) 0.0840(4)
C58_3 C 0.94183(19) 0.8128(3) 0.0778(3)
C59_3 C 0.9540(2) 0.8182(3) 0.0352(3)
H25_3 H 0.9359 0.8327 0.0163
C60_3 C 0.9930(2) 0.8020(3) 0.02086(19)
C63_3 C 0.9688(2) 0.7912(3) 0.1061(2)
H28_3 H 0.9607 0.7876 0.1347
O19_2 O 0.7562(3) 0.9450(2) 0.5843(2)
O21_3 O 0.6049(2) 0.9374(3) 0.4019(2)
O22_3 O 0.7351(2) 0.8756(3) 0.3766(2)
N13_3 N 0.64410(17) 0.83559(17) 0.22694(15)
N14_3 N 0.57928(16) 0.86319(15) 0.23982(16)
N15_3 N 0.6730(3) 0.9068(4) 0.4023(3)
C65_3 C 0.6037(2) 0.8429(2) 0.2126(2)
H29_3 H 0.5942 0.8343 0.1856
C66_3 C 0.64514(13) 0.85483(16) 0.26456(12)
C67_3 C 0.60498(12) 0.87233(16) 0.27326(12)
C68_3 C 0.59748(13) 0.89269(18) 0.31229(15)
H30_3 H 0.5706 0.9044 0.3181
C69_3 C 0.63013(18) 0.8955(2) 0.34263(14)
C70_3 C 0.67029(15) 0.8780(2) 0.33393(16)
C71_3 C 0.67779(12) 0.8577(2) 0.29489(17)
H31_3 H 0.7047 0.8460 0.2891
C72_3 C 0.6993(4) 0.8849(5) 0.3733(4)
C73_3 C 0.6328(4) 0.9160(4) 0.3845(3)
C74_3 C 0.6872(3) 0.9222(3) 0.44183(19)
C75_3 C 0.6818(3) 0.9648(3) 0.4540(2)
H32_3 H 0.6673 0.9837 0.4359
C76_3 C 0.6980(3) 0.97914(19) 0.4930(2)
C77_3 C 0.7196(3) 0.9508(2) 0.51996(17)
C78_3 C 0.7250(3) 0.9082(2) 0.5078(2)
H34_3 H 0.7395 0.8893 0.5259
C79_3 C 0.7088(3) 0.8939(2) 0.4688(2)
H35_3 H 0.7124 0.8653 0.4607
C80_3 C 0.7365(3) 0.9699(3) 0.5636(3)
O25_3 O 0.5626(3) 0.5981(2) 0.1049(2)
O26_3 O 0.6244(3) 0.6234(2) 0.2351(2)
N16_3 N 0.66441(17) 0.77306(15) 0.14410(17)
N17_3 N 0.63681(15) 0.76018(16) 0.07928(16)
N18_3 N 0.5932(4) 0.5977(3) 0.1730(3)
C81_3 C 0.6571(2) 0.7874(2) 0.1037(2)
H36_3 H 0.6657 0.8144 0.0942
C82_3 C 0.64517(16) 0.73544(12) 0.14514(13)
C83_3 C 0.62767(16) 0.72674(12) 0.10498(12)
C84_3 C 0.60731(18) 0.68771(15) 0.09748(13)
H37_3 H 0.5956 0.6819 0.0706
C85_3 C 0.6045(2) 0.65737(14) 0.13013(18)
C86_3 C 0.6220(2) 0.66607(16) 0.17029(15)
C87_3 C 0.6423(2) 0.70511(17) 0.17779(12)
H38_3 H 0.6540 0.7109 0.2047
C88_3 C 0.6151(5) 0.6267(4) 0.1993(4)
C89_3 C 0.5840(4) 0.6155(3) 0.1328(4)
C90_3 C 0.5778(3) 0.55817(19) 0.1872(3)
C91_3 C 0.5352(3) 0.5460(2) 0.1818(3)
H39_3 H 0.5163 0.5641 0.1673
C92_3 C 0.52086(19) 0.5070(2) 0.1980(3)
H40_3 H 0.4923 0.4989 0.1944
C93_3 C 0.5492(2) 0.48004(17) 0.2196(3)
C94_3 C 0.5918(2) 0.4922(2) 0.2250(3)
H41_3 H 0.6107 0.4741 0.2395
C95_3 C 0.6061(2) 0.5312(2) 0.2088(3)
H42_3 H 0.6347 0.5393 0.2124
C96_3 C 0.5301(3) 0.4364(3) 0.2365(3)
O28_2 O 0.8050(2) 0.9938(3) 0.1657(2)
O37_2 O 0.76731(17) 0.99511(18) 0.07042(17)
H46_2 H 0.494692 0.964499 0.004697
O7_2 O 0.75489(18) 0.98269(17) 0.67958(17)
O8_3 O 0.6874(3) 0.8549(2) 0.8481(2)
O9_3 O 0.6256(3) 0.9851(2) 0.8734(2)
N6_3 N 0.6568(4) 0.9230(3) 0.8477(3)
C18_3 C 0.60483(16) 0.89514(13) 0.98544(12)
C19_3 C 0.62233(16) 0.85498(12) 0.97674(12)
C20_3 C 0.64269(18) 0.84748(13) 0.93771(15)
H9_3 H 0.6544 0.8206 0.9319
C21_3 C 0.6455(2) 0.88013(18) 0.90737(14)
C22_3 C 0.6280(2) 0.92029(15) 0.91607(16)
C23_3 C 0.6077(2) 0.92779(12) 0.95511(17)
H10_3 H 0.5960 0.9547 0.9609
C24_3 C 0.6349(5) 0.9493(4) 0.8767(4)
C25_3 C 0.6660(4) 0.8828(4) 0.8655(3)
C26_3 C 0.6722(3) 0.9372(3) 0.80817(19)
C27_3 C 0.7148(3) 0.9318(3) 0.7960(2)
H11_3 H 0.7337 0.9173 0.8141
C28_3 C 0.72914(19) 0.9480(3) 0.7570(2)
H12_3 H 0.7577 0.9444 0.7489
C29_3 C 0.7008(2) 0.9696(3) 0.73004(17)
C30_3 C 0.6582(2) 0.9750(3) 0.7422(2)
H13_3 H 0.6393 0.9895 0.7241
C31_3 C 0.6439(2) 0.9588(3) 0.7812(2)
H14_3 H 0.6153 0.9624 0.7893
C32_3 C 0.7199(3) 0.9865(3) 0.6864(3)
H45_2 H 0.535501 0.995303 0.994692
O12_4 O 0.1519(2) 0.1874(3) 0.6451(2)
O13_4 O 0.1266(2) 0.1256(3) 0.5149(2)
N9_4 N 0.1523(3) 0.1568(4) 0.5770(3)
C34_4 C 0.01456(12) 0.10483(16) 0.60486(13)
C35_4 C 0.02326(12) 0.12233(16) 0.64502(12)
C36_4 C 0.06229(15) 0.14269(18) 0.65252(13)
H16_4 H 0.0681 0.1544 0.6794
C37_4 C 0.09263(14) 0.1455(2) 0.61987(18)
C38_4 C 0.08393(16) 0.1280(2) 0.57971(15)
C39_4 C 0.04489(17) 0.1077(2) 0.57221(12)
H17_4 H 0.0391 0.0960 0.5453
C40_4 C 0.1233(4) 0.1349(5) 0.5507(4)
C41_4 C 0.1345(3) 0.1660(4) 0.6172(4)
C42_4 C 0.19183(19) 0.1722(3) 0.5628(3)
C43_4 C 0.2040(2) 0.2148(3) 0.5682(3)
H18_4 H 0.1859 0.2337 0.5827
C44_4 C 0.2430(2) 0.22914(19) 0.5520(3)
H19_4 H 0.2511 0.2577 0.5556
C45_4 C 0.26996(17) 0.2008(2) 0.5304(3)
C46_4 C 0.2578(2) 0.1582(2) 0.5250(3)
H20_4 H 0.2759 0.1393 0.5105
C47_4 C 0.2188(2) 0.1439(2) 0.5412(3)
H21_4 H 0.2107 0.1153 0.5376
C48_4 C 0.3136(3) 0.2199(3) 0.5135(3)
H40_4 H 0.0077 0.5011 0.6944
H46_3 H 0.00530832 0.0355012 0.504697
C77_4 C 0.7804(3) 0.0492(2) 0.01996(17)
C78_4 C 0.7750(3) 0.0918(2) 0.0078(2)
H34_4 H 0.7605 0.1107 0.0259
C80_4 C 0.7635(3) 0.0301(3) 0.0636(3)
Zn1_4 Zn 0.94159(3) 0.05841(3) 0.55841(3)
O5_4 O 0.98223(13) 0.01777(13) 0.51777(13)
N1_4 N 0.89410(17) 0.02306(15) 0.58559(17)
N2_4 N 0.82928(16) 0.01018(16) 0.61319(15)
C1_4 C 0.8537(2) 0.0374(2) 0.5929(2)
H1_4 H 0.8442 0.0644 0.5843
O8_4 O 0.8126(3) 0.1451(2) 0.3481(2)
O9_4 O 0.8744(3) 0.0149(2) 0.3734(2)
N4_4 N 0.91441(17) 0.10590(17) 0.52306(15)
N5_4 N 0.88681(15) 0.17072(16) 0.51018(16)
N6_4 N 0.8432(4) 0.0770(3) 0.3477(3)
C17_4 C 0.9071(2) 0.1463(2) 0.5374(2)
H8_4 H 0.9157 0.1558 0.5644
C18_4 C 0.89517(16) 0.10486(13) 0.48544(12)
C19_4 C 0.87767(16) 0.14502(12) 0.47674(12)
C20_4 C 0.85731(18) 0.15252(13) 0.43771(15)
H9_4 H 0.8456 0.1794 0.4319
C21_4 C 0.8545(2) 0.11987(18) 0.40737(14)
C22_4 C 0.8720(2) 0.07971(15) 0.41607(16)
C23_4 C 0.8923(2) 0.07221(12) 0.45511(17)
H10_4 H 0.9040 0.0453 0.4609
C24_4 C 0.8651(5) 0.0507(4) 0.3767(4)
C25_4 C 0.8340(4) 0.1172(4) 0.3655(3)
C26_4 C 0.8278(3) 0.0628(3) 0.30817(19)
C27_4 C 0.7852(3) 0.0682(3) 0.2960(2)
H11_4 H 0.7663 0.0827 0.3141
C28_4 C 0.77086(19) 0.0520(3) 0.2570(2)
H12_4 H 0.7423 0.0556 0.2489
C29_4 C 0.7992(2) 0.0304(3) 0.23004(17)
C30_4 C 0.8418(2) 0.0250(3) 0.2422(2)
H13_4 H 0.8607 0.0105 0.2241
C31_4 C 0.8561(2) 0.0412(3) 0.2812(2)
H14_4 H 0.8847 0.0376 0.2893
C32_4 C 0.7801(3) 0.0135(3) 0.1864(3)
N7_4 N 0.97694(15) 0.08559(17) 0.60590(17)
N8_4 N 0.98982(16) 0.11319(15) 0.67072(16)
C33_4 C 0.9626(2) 0.0929(2) 0.6463(2)
H15_4 H 0.9356 0.0843 0.6558
Zn5_4 Zn 0.80841(3) 0.19159(3) 0.69159(3)
O16_4 O 0.5981(2) 0.1049(2) 0.5626(3)
O17_4 O 0.6234(2) 0.2351(2) 0.6244(3)
O18_4 O 0.76777(13) 0.23223(13) 0.73223(13)
N10_4 N 0.77306(15) 0.14410(17) 0.66441(17)
N11_4 N 0.76018(16) 0.07928(16) 0.63681(15)
N12_4 N 0.5977(3) 0.1730(3) 0.5932(4)
C49_4 C 0.7874(2) 0.1037(2) 0.6571(2)
H22_4 H 0.8144 0.0942 0.6657
C50_4 C 0.73544(12) 0.14514(13) 0.64517(16)
C51_4 C 0.72674(12) 0.10498(12) 0.62767(16)
C52_4 C 0.68771(15) 0.09748(13) 0.60731(18)
H23_4 H 0.6819 0.0706 0.5956
C53_4 C 0.65737(14) 0.13013(18) 0.6045(2)
C54_4 C 0.66607(16) 0.17029(15) 0.6220(2)
C55_4 C 0.70511(17) 0.17779(12) 0.6423(2)
H24_4 H 0.7109 0.2047 0.6540
C56_4 C 0.6267(4) 0.1993(4) 0.6151(5)
C57_4 C 0.6155(3) 0.1328(4) 0.5840(4)
C58_4 C 0.55817(19) 0.1872(3) 0.5778(3)
C59_4 C 0.5460(2) 0.1818(3) 0.5352(3)
H25_4 H 0.5641 0.1673 0.5163
C60_4 C 0.5070(2) 0.1980(3) 0.52086(19)
H26_4 H 0.4989 0.1944 0.4923
C61_4 C 0.48004(17) 0.2196(3) 0.5492(2)
C62_4 C 0.4922(2) 0.2250(3) 0.5918(2)
H27_4 H 0.4741 0.2395 0.6107
C63_4 C 0.5312(2) 0.2088(3) 0.6061(2)
H28_4 H 0.5393 0.2124 0.6347
C64_4 C 0.4364(3) 0.2365(3) 0.5301(3)
O21_4 O 0.8951(2) 0.0626(3) 0.9019(2)
O22_4 O 0.7649(2) 0.1244(3) 0.8766(2)
N13_4 N 0.85590(17) 0.16441(17) 0.72694(15)
N14_4 N 0.92072(16) 0.13681(15) 0.73982(16)
N15_4 N 0.8270(3) 0.0932(4) 0.9023(3)
C65_4 C 0.8963(2) 0.1571(2) 0.7126(2)
H29_4 H 0.9058 0.1657 0.6856
C66_4 C 0.85486(13) 0.14517(16) 0.76456(12)
C67_4 C 0.89502(12) 0.12767(16) 0.77326(12)
C68_4 C 0.90252(13) 0.10731(18) 0.81229(15)
H30_4 H 0.9294 0.0956 0.8181
C69_4 C 0.86987(18) 0.1045(2) 0.84263(14)
C70_4 C 0.82971(15) 0.1220(2) 0.83393(16)
C71_4 C 0.82221(12) 0.1423(2) 0.79489(17)
H31_4 H 0.7953 0.1540 0.7891
C72_4 C 0.8007(4) 0.1151(5) 0.8733(4)
C73_4 C 0.8672(4) 0.0840(4) 0.8845(3)
C74_4 C 0.8128(3) 0.0778(3) 0.94183(19)
C75_4 C 0.8182(3) 0.0352(3) 0.9540(2)
H32_4 H 0.8327 0.0163 0.9359
C76_4 C 0.8020(3) 0.02086(19) 0.9930(2)
C79_4 C 0.7912(3) 0.1061(2) 0.9688(2)
H35_4 H 0.7876 0.1347 0.9607
O25_4 O 0.9374(3) 0.4019(2) 0.6049(2)
O26_4 O 0.8756(3) 0.3766(2) 0.7351(2)
N16_4 N 0.83559(17) 0.22694(15) 0.64410(17)
N17_4 N 0.86319(15) 0.23982(16) 0.57928(16)
N18_4 N 0.9068(4) 0.4023(3) 0.6730(3)
C81_4 C 0.8429(2) 0.2126(2) 0.6037(2)
H36_4 H 0.8343 0.1856 0.5942
C82_4 C 0.85483(16) 0.26456(12) 0.64514(13)
C83_4 C 0.87233(16) 0.27326(12) 0.60498(12)
C84_4 C 0.89269(18) 0.31229(15) 0.59748(13)
H37_4 H 0.9044 0.3181 0.5706
C85_4 C 0.8955(2) 0.34263(14) 0.63013(18)
C86_4 C 0.8780(2) 0.33393(16) 0.67029(15)
C87_4 C 0.8577(2) 0.29489(17) 0.67779(12)
H38_4 H 0.8460 0.2891 0.7047
C88_4 C 0.8849(5) 0.3733(4) 0.6993(4)
C89_4 C 0.9160(4) 0.3845(3) 0.6328(4)
C90_4 C 0.9222(3) 0.44183(19) 0.6872(3)
C91_4 C 0.9648(3) 0.4540(2) 0.6818(3)
H39_4 H 0.9837 0.4359 0.6673
C92_4 C 0.97914(19) 0.4930(2) 0.6980(3)
C93_4 C 0.9508(2) 0.51996(17) 0.7196(3)
C94_4 C 0.9082(2) 0.5078(2) 0.7250(3)
H41_4 H 0.8893 0.5259 0.7395
C95_4 C 0.8939(2) 0.4688(2) 0.7088(3)
H42_4 H 0.8653 0.4607 0.7124
C96_4 C 0.9699(3) 0.5636(3) 0.7365(3)
H45_3 H 0.964499 0.004697 0.494692
H33_4 H 0.8056 0.9923 0.0011
O3_4 O 0.8549(2) 0.8481(2) 0.6874(3)
O4_4 O 0.9851(2) 0.8734(2) 0.6256(3)
N3_4 N 0.9230(3) 0.8477(3) 0.6568(4)
C2_4 C 0.89514(13) 0.98544(12) 0.60483(16)
C3_4 C 0.85498(12) 0.97674(12) 0.62233(16)
C4_4 C 0.84748(13) 0.93771(15) 0.64269(18)
H2_4 H 0.8206 0.9319 0.6544
C5_4 C 0.88013(18) 0.90737(14) 0.6455(2)
C6_4 C 0.92029(15) 0.91607(16) 0.6280(2)
C7_4 C 0.92779(12) 0.95511(17) 0.6077(2)
H3_4 H 0.9547 0.9609 0.5960
C8_4 C 0.9493(4) 0.8767(4) 0.6349(5)
C9_4 C 0.8828(4) 0.8655(3) 0.6660(4)
C10_4 C 0.9372(3) 0.80817(19) 0.6722(3)
C11_4 C 0.9318(3) 0.7960(2) 0.7148(3)
H4_4 H 0.9173 0.8141 0.7337
C12_4 C 0.9480(3) 0.7570(2) 0.72914(19)
H5_4 H 0.9444 0.7489 0.7577
C13_4 C 0.9696(3) 0.73004(17) 0.7008(2)
C14_4 C 0.9750(3) 0.7422(2) 0.6582(2)
H6_4 H 0.9895 0.7241 0.6393
C15_4 C 0.9588(3) 0.7812(2) 0.6439(2)
H7_4 H 0.9624 0.7893 0.6153
C16_4 C 0.9865(3) 0.6864(3) 0.7199(3)
H46_4 H 0.995303 0.994692 0.535501
H46_5 H 0.004697 0.494692 0.964499
H46_6 H 0.504697 0.00530832 0.0355012
loop_
_geom_bond_atom_site_label_1
_geom_bond_atom_site_label_2
_geom_bond_site_symmetry_1
_geom_bond_site_symmetry_2
Zn1 O5 1_555 1_555
Zn2 N2 1_555 1_555
O1 C16 1_555 1_555
O2 C16 1_555 1_555
O3 C9 1_555 1_555
O4 C8 1_555 1_555
N1 Zn1 1_555 1_555
N2 C1 1_555 1_555
N3 C8 1_555 1_555
C1 N1 1_555 1_555
H1 C1 1_555 1_555
C2 N1 1_555 1_555
C3 N2 1_555 1_555
C4 C3 1_555 1_555
H2 C4 1_555 1_555
C5 C4 1_555 1_555
C6 C5 1_555 1_555
C7 C2 1_555 1_555
H3 C7 1_555 1_555
C8 C6 1_555 1_555
C9 N3 1_555 1_555
C10 N3 1_555 1_555
C11 C10 1_555 1_555
H4 C11 1_555 1_555
C12 C11 1_555 1_555
H5 C12 1_555 1_555
C13 C12 1_555 1_555
C14 C13 1_555 1_555
H6 C14 1_555 1_555
C15 C10 1_555 1_555
H7 C15 1_555 1_555
C16 C13 1_555 1_555
Zn3 N5 1_555 1_555
O6 C32 1_555 1_555
O7 C32 1_555 1_555
O8 C25 1_555 1_555
O9 C24 1_555 1_555
N4 Zn1 1_555 1_555
N5 C17 1_555 1_555
N6 C24 1_555 1_555
C17 N4 1_555 1_555
H8 C17 1_555 1_555
C18 N4 1_555 1_555
C19 N5 1_555 1_555
C20 C19 1_555 1_555
H9 C20 1_555 1_555
C21 C20 1_555 1_555
C22 C21 1_555 1_555
C23 C18 1_555 1_555
H10 C23 1_555 1_555
C24 C22 1_555 1_555
C25 N6 1_555 1_555
C26 N6 1_555 1_555
C27 C26 1_555 1_555
H11 C27 1_555 1_555
C28 C27 1_555 1_555
H12 C28 1_555 1_555
C29 C28 1_555 1_555
C30 C29 1_555 1_555
H13 C30 1_555 1_555
C31 C26 1_555 1_555
H14 C31 1_555 1_555
C32 C29 1_555 1_555
Zn4 N8 1_555 1_555
O10 C48 1_555 1_555
O11 C48 1_555 1_555
O12 C41 1_555 1_555
O13 C40 1_555 1_555
N7 Zn1 1_555 1_555
N8 C33 1_555 1_555
N9 C40 1_555 1_555
C33 N7 1_555 1_555
H15 C33 1_555 1_555
C34 N7 1_555 1_555
C35 N8 1_555 1_555
C36 C35 1_555 1_555
H16 C36 1_555 1_555
C37 C36 1_555 1_555
C38 C37 1_555 1_555
C39 C34 1_555 1_555
H17 C39 1_555 1_555
C40 C38 1_555 1_555
C41 N9 1_555 1_555
C42 N9 1_555 1_555
C43 C42 1_555 1_555
H18 C43 1_555 1_555
C44 C43 1_555 1_555
H19 C44 1_555 1_555
C45 C44 1_555 1_555
C46 C45 1_555 1_555
H20 C46 1_555 1_555
C47 C42 1_555 1_555
H21 C47 1_555 1_555
C48 C45 1_555 1_555
Zn5 O18 1_555 1_555
O16 C57 1_555 1_555
O17 C56 1_555 1_555
N10 Zn5 1_555 1_555
N11 Zn2 1_555 1_555
N12 C56 1_555 1_555
C49 N10 1_555 1_555
H22 C49 1_555 1_555
C50 N10 1_555 1_555
C51 N11 1_555 1_555
C52 C51 1_555 1_555
H23 C52 1_555 1_555
C53 C52 1_555 1_555
C54 C53 1_555 1_555
C55 C50 1_555 1_555
H24 C55 1_555 1_555
C56 C54 1_555 1_555
C57 N12 1_555 1_555
C58 N12 1_555 1_555
C59 C58 1_555 1_555
H25 C59 1_555 1_555
C60 C59 1_555 1_555
C63 C58 1_555 1_555
H28 C63 1_555 1_555
O21 C73 1_555 1_555
O22 C72 1_555 1_555
N13 Zn5 1_555 1_555
N14 Zn4 1_555 1_555
N15 C72 1_555 1_555
C65 N13 1_555 1_555
H29 C65 1_555 1_555
C66 N13 1_555 1_555
C67 N14 1_555 1_555
C68 C67 1_555 1_555
H30 C68 1_555 1_555
C69 C68 1_555 1_555
C70 C69 1_555 1_555
C71 C66 1_555 1_555
H31 C71 1_555 1_555
C72 C70 1_555 1_555
C73 N15 1_555 1_555
C74 N15 1_555 1_555
C75 C74 1_555 1_555
H32 C75 1_555 1_555
C76 C75 1_555 1_555
C79 C74 1_555 1_555
H35 C79 1_555 1_555
O25 C89 1_555 1_555
O26 C88 1_555 1_555
N16 Zn5 1_555 1_555
N17 Zn3 1_555 1_555
N18 C88 1_555 1_555
C81 N16 1_555 1_555
H36 C81 1_555 1_555
C82 N16 1_555 1_555
C83 N17 1_555 1_555
C84 C83 1_555 1_555
H37 C84 1_555 1_555
C85 C84 1_555 1_555
C86 C85 1_555 1_555
C87 C82 1_555 1_555
H38 C87 1_555 1_555
C88 C86 1_555 1_555
C89 N18 1_555 1_555
C90 N18 1_555 1_555
C91 C90 1_555 1_555
H39 C91 1_555 1_555
C92 C91 1_555 1_555
C95 C90 1_555 1_555
H42 C95 1_555 1_555
Zn7 O6 1_555 1_555
Zn9 O10 1_555 1_555
Zn11 O1 1_555 1_555
O27 Zn4 1_555 1_555
O28 Zn2 1_555 1_555
O29 Zn3 1_555 1_555
O30 Zn3 1_555 1_555
O31 Zn2 1_555 1_555
O32 Zn4 1_555 1_555
O33 Zn4 1_555 1_555
O34 Zn2 1_555 1_555
O35 Zn3 1_555 1_555
O36 Zn3 1_555 1_555
O37 Zn2 1_555 1_555
O38 Zn4 1_555 1_555
O2 Zn11 1_555 1_555
C2 C3 1_555 1_555
C5 C9 1_555 1_555
C6 C7 1_555 1_555
C14 C15 1_555 1_555
O7 Zn7 1_555 1_555
C18 C19 1_555 1_555
C21 C25 1_555 1_555
C22 C23 1_555 1_555
C30 C31 1_555 1_555
O11 Zn9 1_555 1_555
C34 C35 1_555 1_555
C37 C41 1_555 1_555
C38 C39 1_555 1_555
C46 C47 1_555 1_555
N11 C49 1_555 1_555
C50 C51 1_555 1_555
C53 C57 1_555 1_555
C54 C55 1_555 1_555
N14 C65 1_555 1_555
C66 C67 1_555 1_555
C69 C73 1_555 1_555
C70 C71 1_555 1_555
N17 C81 1_555 1_555
C82 C83 1_555 1_555
C85 C89 1_555 1_555
C86 C87 1_555 1_555
O19 C80 1_555 1_555
O20 C80 1_555 1_555
C78 C77 1_555 1_555
H34 C78 1_555 1_555
C80 C77 1_555 1_555
Zn7 O19 1_555 1_555
O20 Zn7 1_555 1_555
O23 C96 1_555 1_555
O24 C96 1_555 1_555
C94 C93 1_555 1_555
H41 C94 1_555 1_555
C96 C93 1_555 1_555
Zn11 O23 1_555 1_555
O24 Zn11 1_555 1_555
O14 C64 1_555 1_555
O15 C64 1_555 1_555
C62 C61 1_555 1_555
H27 C62 1_555 1_555
C64 C61 1_555 1_555
Zn9 O14 1_555 1_555
O15 Zn9 1_555 1_555
O23_2 C96_2 1_555 1_555
C94_2 C93_2 1_555 1_555
H41_2 C94_2 1_555 1_555
C96_2 C93_2 1_555 1_555
O28 C32_2 1_555 1_555
O34 C32_2 1_555 1_555
O8_2 C25_2 1_555 1_555
O9_2 C24_2 1_555 1_555
N6_2 C24_2 1_555 1_555
C20_2 C19_2 1_555 1_555
H9_2 C20_2 1_555 1_555
C21_2 C20_2 1_555 1_555
C22_2 C21_2 1_555 1_555
C23_2 C18_2 1_555 1_555
H10_2 C23_2 1_555 1_555
C24_2 C22_2 1_555 1_555
C25_2 N6_2 1_555 1_555
C26_2 N6_2 1_555 1_555
C27_2 C26_2 1_555 1_555
H11_2 C27_2 1_555 1_555
C28_2 C27_2 1_555 1_555
H12_2 C28_2 1_555 1_555
C29_2 C28_2 1_555 1_555
C30_2 C29_2 1_555 1_555
H13_2 C30_2 1_555 1_555
C31_2 C26_2 1_555 1_555
H14_2 C31_2 1_555 1_555
C32_2 C29_2 1_555 1_555
C18_2 C19_2 1_555 1_555
C21_2 C25_2 1_555 1_555
C22_2 C23_2 1_555 1_555
C30_2 C31_2 1_555 1_555
O15_2 Zn8 1_555 1_555
Zn1_2 O5_2 1_555 1_555
Zn7 N2_2 1_555 1_555
O2_2 C16_2 1_555 1_555
O3_2 C9_2 1_555 1_555
O4_2 C8_2 1_555 1_555
N1_2 Zn1_2 1_555 1_555
N2_2 C1_2 1_555 1_555
N3_2 C8_2 1_555 1_555
C1_2 N1_2 1_555 1_555
H1_2 C1_2 1_555 1_555
C2_2 N1_2 1_555 1_555
C3_2 N2_2 1_555 1_555
C4_2 C3_2 1_555 1_555
H2_2 C4_2 1_555 1_555
C5_2 C4_2 1_555 1_555
C6_2 C5_2 1_555 1_555
C7_2 C2_2 1_555 1_555
H3_2 C7_2 1_555 1_555
C8_2 C6_2 1_555 1_555
C9_2 N3_2 1_555 1_555
C10_2 N3_2 1_555 1_555
C11_2 C10_2 1_555 1_555
H4_2 C11_2 1_555 1_555
C12_2 C11_2 1_555 1_555
H5_2 C12_2 1_555 1_555
C13_2 C12_2 1_555 1_555
C14_2 C13_2 1_555 1_555
H6_2 C14_2 1_555 1_555
C15_2 C10_2 1_555 1_555
H7_2 C15_2 1_555 1_555
C16_2 C13_2 1_555 1_555
Zn3_2 N5_2 1_555 1_555
N4_2 Zn1_2 1_555 1_555
N5_2 C17_2 1_555 1_555
C17_2 N4_2 1_555 1_555
H8_2 C17_2 1_555 1_555
Zn4_2 N8_2 1_555 1_555
N7_2 Zn1_2 1_555 1_555
N8_2 C33_2 1_555 1_555
C33_2 N7_2 1_555 1_555
H15_2 C33_2 1_555 1_555
Zn5_2 O18_2 1_555 1_555
O14_2 C64_2 1_555 1_555
O16_2 C57_2 1_555 1_555
O17_2 C56_2 1_555 1_555
N10_2 Zn5_2 1_555 1_555
N11_2 Zn7 1_555 1_555
N12_2 C56_2 1_555 1_555
C49_2 N10_2 1_555 1_555
H22_2 C49_2 1_555 1_555
C50_2 N10_2 1_555 1_555
C51_2 N11_2 1_555 1_555
C52_2 C51_2 1_555 1_555
H23_2 C52_2 1_555 1_555
C53_2 C52_2 1_555 1_555
C54_2 C53_2 1_555 1_555
C55_2 C50_2 1_555 1_555
H24_2 C55_2 1_555 1_555
C56_2 C54_2 1_555 1_555
C57_2 N12_2 1_555 1_555
C58_2 N12_2 1_555 1_555
C59_2 C58_2 1_555 1_555
H25_2 C59_2 1_555 1_555
C60_2 C59_2 1_555 1_555
C61_2 C60_2 1_555 1_555
C62_2 C61_2 1_555 1_555
H27_2 C62_2 1_555 1_555
C63_2 C58_2 1_555 1_555
H28_2 C63_2 1_555 1_555
C64_2 C61_2 1_555 1_555
O31 C80_2 1_555 1_555
O37 C80_2 1_555 1_555
O21_2 C73_2 1_555 1_555
O22_2 C72_2 1_555 1_555
N13_2 Zn5_2 1_555 1_555
N14_2 Zn4_2 1_555 1_555
N15_2 C72_2 1_555 1_555
C65_2 N13_2 1_555 1_555
H29_2 C65_2 1_555 1_555
C66_2 N13_2 1_555 1_555
C67_2 N14_2 1_555 1_555
C68_2 C67_2 1_555 1_555
H30_2 C68_2 1_555 1_555
C69_2 C68_2 1_555 1_555
C70_2 C69_2 1_555 1_555
C71_2 C66_2 1_555 1_555
H31_2 C71_2 1_555 1_555
C72_2 C70_2 1_555 1_555
C73_2 N15_2 1_555 1_555
C74_2 N15_2 1_555 1_555
C75_2 C74_2 1_555 1_555
H32_2 C75_2 1_555 1_555
C76_2 C75_2 1_555 1_555
H33_2 C76_2 1_555 1_555
C77_2 C76_2 1_555 1_555
C78_2 C77_2 1_555 1_555
H34_2 C78_2 1_555 1_555
C79_2 C74_2 1_555 1_555
H35_2 C79_2 1_555 1_555
C80_2 C77_2 1_555 1_555
O25_2 C89_2 1_555 1_555
O26_2 C88_2 1_555 1_555
N16_2 Zn5_2 1_555 1_555
N17_2 Zn3_2 1_555 1_555
N18_2 C88_2 1_555 1_555
C81_2 N16_2 1_555 1_555
H36_2 C81_2 1_555 1_555
C82_2 N16_2 1_555 1_555
C83_2 N17_2 1_555 1_555
C84_2 C83_2 1_555 1_555
H37_2 C84_2 1_555 1_555
C85_2 C84_2 1_555 1_555
C86_2 C85_2 1_555 1_555
C87_2 C82_2 1_555 1_555
H38_2 C87_2 1_555 1_555
C88_2 C86_2 1_555 1_555
C89_2 N18_2 1_555 1_555
C90_2 N18_2 1_555 1_555
C91_2 C90_2 1_555 1_555
H39_2 C91_2 1_555 1_555
C92_2 C91_2 1_555 1_555
C95_2 C90_2 1_555 1_555
H42_2 C95_2 1_555 1_555
O27_2 Zn4_2 1_555 1_555
O29_2 Zn3_2 1_555 1_555
O36_2 Zn3_2 1_555 1_555
O38_2 Zn4_2 1_555 1_555
C2_2 C3_2 1_555 1_555
C5_2 C9_2 1_555 1_555
C6_2 C7_2 1_555 1_555
C14_2 C15_2 1_555 1_555
N11_2 C49_2 1_555 1_555
C50_2 C51_2 1_555 1_555
C53_2 C57_2 1_555 1_555
C54_2 C55_2 1_555 1_555
C62_2 C63_2 1_555 1_555
N14_2 C65_2 1_555 1_555
C66_2 C67_2 1_555 1_555
C69_2 C73_2 1_555 1_555
C70_2 C71_2 1_555 1_555
C78_2 C79_2 1_555 1_555
N17_2 C81_2 1_555 1_555
C82_2 C83_2 1_555 1_555
C85_2 C89_2 1_555 1_555
C86_2 C87_2 1_555 1_555
O24_2 Zn10 1_555 1_555
Zn8 O10_2 1_555 1_555
O11_2 C48_2 1_555 1_555
O12_2 C41_2 1_555 1_555
O13_2 C40_2 1_555 1_555
N9_2 C40_2 1_555 1_555
C36_2 C35_2 1_555 1_555
H16_2 C36_2 1_555 1_555
C37_2 C36_2 1_555 1_555
C38_2 C37_2 1_555 1_555
C39_2 C34_2 1_555 1_555
H17_2 C39_2 1_555 1_555
C40_2 C38_2 1_555 1_555
C41_2 N9_2 1_555 1_555
C42_2 N9_2 1_555 1_555
C43_2 C42_2 1_555 1_555
H18_2 C43_2 1_555 1_555
C44_2 C43_2 1_555 1_555
H19_2 C44_2 1_555 1_555
C45_2 C44_2 1_555 1_555
C46_2 C45_2 1_555 1_555
H20_2 C46_2 1_555 1_555
C47_2 C42_2 1_555 1_555
H21_2 C47_2 1_555 1_555
C48_2 C45_2 1_555 1_555
Zn10 O1_2 1_555 1_555
C34_2 C35_2 1_555 1_555
C37_2 C41_2 1_555 1_555
C38_2 C39_2 1_555 1_555
C46_2 C47_2 1_555 1_555
O30_2 C64_3 1_555 1_555
C62_3 C61_3 1_555 1_555
H27_3 C62_3 1_555 1_555
C64_3 C61_3 1_555 1_555
O27 C16_3 1_555 1_555
O33 C16_3 1_555 1_555
O3_3 C9_3 1_555 1_555
O4_3 C8_3 1_555 1_555
N3_3 C8_3 1_555 1_555
C4_3 C3_3 1_555 1_555
H2_3 C4_3 1_555 1_555
C5_3 C4_3 1_555 1_555
C6_3 C5_3 1_555 1_555
C7_3 C2_3 1_555 1_555
H3_3 C7_3 1_555 1_555
C8_3 C6_3 1_555 1_555
C9_3 N3_3 1_555 1_555
C10_3 N3_3 1_555 1_555
C11_3 C10_3 1_555 1_555
H4_3 C11_3 1_555 1_555
C12_3 C11_3 1_555 1_555
H5_3 C12_3 1_555 1_555
C13_3 C12_3 1_555 1_555
C14_3 C13_3 1_555 1_555
H6_3 C14_3 1_555 1_555
C15_3 C10_3 1_555 1_555
H7_3 C15_3 1_555 1_555
C16_3 C13_3 1_555 1_555
C2_3 C3_3 1_555 1_555
C5_3 C9_3 1_555 1_555
C6_3 C7_3 1_555 1_555
C14_3 C15_3 1_555 1_555
O20_2 Zn6 1_555 1_555
Zn6 O6_2 1_555 1_555
Zn1_3 O5_3 1_555 1_555
Zn2_2 N2_3 1_555 1_555
N1_3 Zn1_3 1_555 1_555
N2_3 C1_3 1_555 1_555
C1_3 N1_3 1_555 1_555
H1_3 C1_3 1_555 1_555
Zn8 N5_3 1_555 1_555
N4_3 Zn1_3 1_555 1_555
N5_3 C17_3 1_555 1_555
C17_3 N4_3 1_555 1_555
H8_3 C17_3 1_555 1_555
Zn11 N8_3 1_555 1_555
O35_2 C48_3 1_555 1_555
O12_3 C41_3 1_555 1_555
O13_3 C40_3 1_555 1_555
N7_3 Zn1_3 1_555 1_555
N8_3 C33_3 1_555 1_555
N9_3 C40_3 1_555 1_555
C33_3 N7_3 1_555 1_555
H15_3 C33_3 1_555 1_555
C34_3 N7_3 1_555 1_555
C35_3 N8_3 1_555 1_555
C36_3 C35_3 1_555 1_555
H16_3 C36_3 1_555 1_555
C37_3 C36_3 1_555 1_555
C38_3 C37_3 1_555 1_555
C39_3 C34_3 1_555 1_555
H17_3 C39_3 1_555 1_555
C40_3 C38_3 1_555 1_555
C41_3 N9_3 1_555 1_555
C42_3 N9_3 1_555 1_555
C43_3 C42_3 1_555 1_555
H18_3 C43_3 1_555 1_555
C44_3 C43_3 1_555 1_555
H19_3 C44_3 1_555 1_555
C45_3 C44_3 1_555 1_555
C46_3 C45_3 1_555 1_555
H20_3 C46_3 1_555 1_555
C47_3 C42_3 1_555 1_555
H21_3 C47_3 1_555 1_555
C48_3 C45_3 1_555 1_555
Zn5_3 O18_3 1_555 1_555
O16_3 C57_3 1_555 1_555
O17_3 C56_3 1_555 1_555
N10_3 Zn5_3 1_555 1_555
N11_3 Zn2_2 1_555 1_555
N12_3 C56_3 1_555 1_555
C49_3 N10_3 1_555 1_555
H22_3 C49_3 1_555 1_555
C50_3 N10_3 1_555 1_555
C51_3 N11_3 1_555 1_555
C52_3 C51_3 1_555 1_555
H23_3 C52_3 1_555 1_555
C53_3 C52_3 1_555 1_555
C54_3 C53_3 1_555 1_555
C55_3 C50_3 1_555 1_555
H24_3 C55_3 1_555 1_555
C56_3 C54_3 1_555 1_555
C57_3 N12_3 1_555 1_555
C58_3 N12_3 1_555 1_555
C59_3 C58_3 1_555 1_555
H25_3 C59_3 1_555 1_555
C60_3 C59_3 1_555 1_555
C63_3 C58_3 1_555 1_555
H28_3 C63_3 1_555 1_555
O19_2 C80_3 1_555 1_555
O21_3 C73_3 1_555 1_555
O22_3 C72_3 1_555 1_555
N13_3 Zn5_3 1_555 1_555
N14_3 Zn11 1_555 1_555
N15_3 C72_3 1_555 1_555
C65_3 N13_3 1_555 1_555
H29_3 C65_3 1_555 1_555
C66_3 N13_3 1_555 1_555
C67_3 N14_3 1_555 1_555
C68_3 C67_3 1_555 1_555
H30_3 C68_3 1_555 1_555
C69_3 C68_3 1_555 1_555
C70_3 C69_3 1_555 1_555
C71_3 C66_3 1_555 1_555
H31_3 C71_3 1_555 1_555
C72_3 C70_3 1_555 1_555
C73_3 N15_3 1_555 1_555
C74_3 N15_3 1_555 1_555
C75_3 C74_3 1_555 1_555
H32_3 C75_3 1_555 1_555
C76_3 C75_3 1_555 1_555
C77_3 C76_3 1_555 1_555
C78_3 C77_3 1_555 1_555
H34_3 C78_3 1_555 1_555
C79_3 C74_3 1_555 1_555
H35_3 C79_3 1_555 1_555
C80_3 C77_3 1_555 1_555
O32 C96_3 1_555 1_555
O38 C96_3 1_555 1_555
O25_3 C89_3 1_555 1_555
O26_3 C88_3 1_555 1_555
N16_3 Zn5_3 1_555 1_555
N17_3 Zn8 1_555 1_555
N18_3 C88_3 1_555 1_555
C81_3 N16_3 1_555 1_555
H36_3 C81_3 1_555 1_555
C82_3 N16_3 1_555 1_555
C83_3 N17_3 1_555 1_555
C84_3 C83_3 1_555 1_555
H37_3 C84_3 1_555 1_555
C85_3 C84_3 1_555 1_555
C86_3 C85_3 1_555 1_555
C87_3 C82_3 1_555 1_555
H38_3 C87_3 1_555 1_555
C88_3 C86_3 1_555 1_555
C89_3 N18_3 1_555 1_555
C90_3 N18_3 1_555 1_555
C91_3 C90_3 1_555 1_555
H39_3 C91_3 1_555 1_555
C92_3 C91_3 1_555 1_555
H40_3 C92_3 1_555 1_555
C93_3 C92_3 1_555 1_555
C94_3 C93_3 1_555 1_555
H41_3 C94_3 1_555 1_555
C95_3 C90_3 1_555 1_555
H42_3 C95_3 1_555 1_555
C96_3 C93_3 1_555 1_555
O28_2 Zn2_2 1_555 1_555
O37_2 Zn2_2 1_555 1_555
C34_3 C35_3 1_555 1_555
C37_3 C41_3 1_555 1_555
C38_3 C39_3 1_555 1_555
C46_3 C47_3 1_555 1_555
N11_3 C49_3 1_555 1_555
C50_3 C51_3 1_555 1_555
C53_3 C57_3 1_555 1_555
C54_3 C55_3 1_555 1_555
N14_3 C65_3 1_555 1_555
C66_3 C67_3 1_555 1_555
C69_3 C73_3 1_555 1_555
C70_3 C71_3 1_555 1_555
C78_3 C79_3 1_555 1_555
N17_3 C81_3 1_555 1_555
C82_3 C83_3 1_555 1_555
C85_3 C89_3 1_555 1_555
C86_3 C87_3 1_555 1_555
C94_3 C95_3 1_555 1_555
O5_3 H46_2 1_555 1_555
O7_2 C32_3 1_555 1_555
O8_3 C25_3 1_555 1_555
O9_3 C24_3 1_555 1_555
N6_3 C24_3 1_555 1_555
C20_3 C19_3 1_555 1_555
H9_3 C20_3 1_555 1_555
C21_3 C20_3 1_555 1_555
C22_3 C21_3 1_555 1_555
C23_3 C18_3 1_555 1_555
H10_3 C23_3 1_555 1_555
C24_3 C22_3 1_555 1_555
C25_3 N6_3 1_555 1_555
C26_3 N6_3 1_555 1_555
C27_3 C26_3 1_555 1_555
H11_3 C27_3 1_555 1_555
C28_3 C27_3 1_555 1_555
H12_3 C28_3 1_555 1_555
C29_3 C28_3 1_555 1_555
C30_3 C29_3 1_555 1_555
H13_3 C30_3 1_555 1_555
C31_3 C26_3 1_555 1_555
H14_3 C31_3 1_555 1_555
C32_3 C29_3 1_555 1_555
C18_3 C19_3 1_555 1_555
C21_3 C25_3 1_555 1_555
C22_3 C23_3 1_555 1_555
C30_3 C31_3 1_555 1_555
O29 C48_4 1_555 1_555
O35 C48_4 1_555 1_555
O12_4 C41_4 1_555 1_555
O13_4 C40_4 1_555 1_555
N9_4 C40_4 1_555 1_555
C36_4 C35_4 1_555 1_555
H16_4 C36_4 1_555 1_555
C37_4 C36_4 1_555 1_555
C38_4 C37_4 1_555 1_555
C39_4 C34_4 1_555 1_555
H17_4 C39_4 1_555 1_555
C40_4 C38_4 1_555 1_555
C41_4 N9_4 1_555 1_555
C42_4 N9_4 1_555 1_555
C43_4 C42_4 1_555 1_555
H18_4 C43_4 1_555 1_555
C44_4 C43_4 1_555 1_555
H19_4 C44_4 1_555 1_555
C45_4 C44_4 1_555 1_555
C46_4 C45_4 1_555 1_555
H20_4 C46_4 1_555 1_555
C47_4 C42_4 1_555 1_555
H21_4 C47_4 1_555 1_555
C48_4 C45_4 1_555 1_555
C34_4 C35_4 1_555 1_555
C37_4 C41_4 1_555 1_555
C38_4 C39_4 1_555 1_555
C46_4 C47_4 1_555 1_555
O31_2 C80_4 1_555 1_555
C78_4 C77_4 1_555 1_555
H34_4 C78_4 1_555 1_555
C80_4 C77_4 1_555 1_555
Zn1_4 O5_4 1_555 1_555
Zn6 N2_4 1_555 1_555
N1_4 Zn1_4 1_555 1_555
N2_4 C1_4 1_555 1_555
C1_4 N1_4 1_555 1_555
H1_4 C1_4 1_555 1_555
Zn9 N5_4 1_555 1_555
O34_2 C32_4 1_555 1_555
O8_4 C25_4 1_555 1_555
O9_4 C24_4 1_555 1_555
N4_4 Zn1_4 1_555 1_555
N5_4 C17_4 1_555 1_555
N6_4 C24_4 1_555 1_555
C17_4 N4_4 1_555 1_555
H8_4 C17_4 1_555 1_555
C18_4 N4_4 1_555 1_555
C19_4 N5_4 1_555 1_555
C20_4 C19_4 1_555 1_555
H9_4 C20_4 1_555 1_555
C21_4 C20_4 1_555 1_555
C22_4 C21_4 1_555 1_555
C23_4 C18_4 1_555 1_555
H10_4 C23_4 1_555 1_555
C24_4 C22_4 1_555 1_555
C25_4 N6_4 1_555 1_555
C26_4 N6_4 1_555 1_555
C27_4 C26_4 1_555 1_555
H11_4 C27_4 1_555 1_555
C28_4 C27_4 1_555 1_555
H12_4 C28_4 1_555 1_555
C29_4 C28_4 1_555 1_555
C30_4 C29_4 1_555 1_555
H13_4 C30_4 1_555 1_555
C31_4 C26_4 1_555 1_555
H14_4 C31_4 1_555 1_555
C32_4 C29_4 1_555 1_555
Zn10 N8_4 1_555 1_555
N7_4 Zn1_4 1_555 1_555
N8_4 C33_4 1_555 1_555
C33_4 N7_4 1_555 1_555
H15_4 C33_4 1_555 1_555
Zn5_4 O18_4 1_555 1_555
O30 C64_4 1_555 1_555
O36 C64_4 1_555 1_555
O16_4 C57_4 1_555 1_555
O17_4 C56_4 1_555 1_555
N10_4 Zn5_4 1_555 1_555
N11_4 Zn6 1_555 1_555
N12_4 C56_4 1_555 1_555
C49_4 N10_4 1_555 1_555
H22_4 C49_4 1_555 1_555
C50_4 N10_4 1_555 1_555
C51_4 N11_4 1_555 1_555
C52_4 C51_4 1_555 1_555
H23_4 C52_4 1_555 1_555
C53_4 C52_4 1_555 1_555
C54_4 C53_4 1_555 1_555
C55_4 C50_4 1_555 1_555
H24_4 C55_4 1_555 1_555
C56_4 C54_4 1_555 1_555
C57_4 N12_4 1_555 1_555
C58_4 N12_4 1_555 1_555
C59_4 C58_4 1_555 1_555
H25_4 C59_4 1_555 1_555
C60_4 C59_4 1_555 1_555
H26_4 C60_4 1_555 1_555
C61_4 C60_4 1_555 1_555
C62_4 C61_4 1_555 1_555
H27_4 C62_4 1_555 1_555
C63_4 C58_4 1_555 1_555
H28_4 C63_4 1_555 1_555
C64_4 C61_4 1_555 1_555
O21_4 C73_4 1_555 1_555
O22_4 C72_4 1_555 1_555
N13_4 Zn5_4 1_555 1_555
N14_4 Zn10 1_555 1_555
N15_4 C72_4 1_555 1_555
C65_4 N13_4 1_555 1_555
H29_4 C65_4 1_555 1_555
C66_4 N13_4 1_555 1_555
C67_4 N14_4 1_555 1_555
C68_4 C67_4 1_555 1_555
H30_4 C68_4 1_555 1_555
C69_4 C68_4 1_555 1_555
C70_4 C69_4 1_555 1_555
C71_4 C66_4 1_555 1_555
H31_4 C71_4 1_555 1_555
C72_4 C70_4 1_555 1_555
C73_4 N15_4 1_555 1_555
C74_4 N15_4 1_555 1_555
C75_4 C74_4 1_555 1_555
H32_4 C75_4 1_555 1_555
C76_4 C75_4 1_555 1_555
C79_4 C74_4 1_555 1_555
H35_4 C79_4 1_555 1_555
O32_2 C96_4 1_555 1_555
O25_4 C89_4 1_555 1_555
O26_4 C88_4 1_555 1_555
N16_4 Zn5_4 1_555 1_555
N17_4 Zn9 1_555 1_555
N18_4 C88_4 1_555 1_555
C81_4 N16_4 1_555 1_555
H36_4 C81_4 1_555 1_555
C82_4 N16_4 1_555 1_555
C83_4 N17_4 1_555 1_555
C84_4 C83_4 1_555 1_555
H37_4 C84_4 1_555 1_555
C85_4 C84_4 1_555 1_555
C86_4 C85_4 1_555 1_555
C87_4 C82_4 1_555 1_555
H38_4 C87_4 1_555 1_555
C88_4 C86_4 1_555 1_555
C89_4 N18_4 1_555 1_555
C90_4 N18_4 1_555 1_555
C91_4 C90_4 1_555 1_555
H39_4 C91_4 1_555 1_555
C92_4 C91_4 1_555 1_555
C93_4 C92_4 1_555 1_555
C94_4 C93_4 1_555 1_555
H41_4 C94_4 1_555 1_555
C95_4 C90_4 1_555 1_555
H42_4 C95_4 1_555 1_555
C96_4 C93_4 1_555 1_555
C18_4 C19_4 1_555 1_555
C21_4 C25_4 1_555 1_555
C22_4 C23_4 1_555 1_555
C30_4 C31_4 1_555 1_555
N11_4 C49_4 1_555 1_555
C50_4 C51_4 1_555 1_555
C53_4 C57_4 1_555 1_555
C54_4 C55_4 1_555 1_555
C62_4 C63_4 1_555 1_555
N14_4 C65_4 1_555 1_555
C66_4 C67_4 1_555 1_555
C69_4 C73_4 1_555 1_555
C70_4 C71_4 1_555 1_555
N17_4 C81_4 1_555 1_555
C82_4 C83_4 1_555 1_555
C85_4 C89_4 1_555 1_555
C86_4 C87_4 1_555 1_555
C94_4 C95_4 1_555 1_555
O5_4 H45_3 1_555 1_555
O33_2 C16_4 1_555 1_555
O3_4 C9_4 1_555 1_555
O4_4 C8_4 1_555 1_555
N3_4 C8_4 1_555 1_555
C4_4 C3_4 1_555 1_555
H2_4 C4_4 1_555 1_555
C5_4 C4_4 1_555 1_555
C6_4 C5_4 1_555 1_555
C7_4 C2_4 1_555 1_555
H3_4 C7_4 1_555 1_555
C8_4 C6_4 1_555 1_555
C9_4 N3_4 1_555 1_555
C10_4 N3_4 1_555 1_555
C11_4 C10_4 1_555 1_555
H4_4 C11_4 1_555 1_555
C12_4 C11_4 1_555 1_555
H5_4 C12_4 1_555 1_555
C13_4 C12_4 1_555 1_555
C14_4 C13_4 1_555 1_555
H6_4 C14_4 1_555 1_555
C15_4 C10_4 1_555 1_555
H7_4 C15_4 1_555 1_555
C16_4 C13_4 1_555 1_555
C2_4 C3_4 1_555 1_555
C5_4 C9_4 1_555 1_555
C6_4 C7_4 1_555 1_555
C14_4 C15_4 1_555 1_555
O5_2 H46_5 1_555 1_555

#END
