
###############################################################################
#
# This file contains modified crystal structure data generated from the
# MOF subset of the Cambridge Structural Database (CSD) v543 
# hosted by the Cambridge Crystallographic Data Centre (CCDC).
#
# This work is licensed under the Creative Commons
# Attribution-NonCommercial-ShareAlike 4.0 International License.
# To view a copy of this license, visit
# http://creativecommons.org/licenses/by-nc-sa/4.0/
# or send a letter to
# Creative Commons, PO Box 1866, Mountain View, CA 94042, USA.
#
# CIF created using the CSD Python API on 29 September 2022
# The structure has been converted into the P1 space group
# The structure has a 3D framework
# The original CSD entry FILGUE is in the trigonal crystal system
# The framework has been calculated to contain at least 10.0% void space
# The void calculation uses a probe of radius 1.32A, grid spacing 0.4
# The framework is charged, counterions have been retained in the structure
#
###############################################################################

data_FILGUE
_chemical_formula_moiety         '(C66 H48 N6 Na4 O36 Zn6 2-)n'
_symmetry_cell_setting           triclinic
_symmetry_space_group_name_H-M   'P 1'
_symmetry_Int_Tables_number      1
_space_group_name_Hall           'P 1'
loop_
_symmetry_equiv_pos_site_id
_symmetry_equiv_pos_as_xyz
1 x,y,z
_cell_length_a                   14.700(2)
_cell_length_b                   14.700(2)
_cell_length_c                   13.252(3)
_cell_angle_alpha                90
_cell_angle_beta                 90
_cell_angle_gamma                120
_cell_volume                     2479.97
loop_
_atom_site_label
_atom_site_type_symbol
_atom_site_fract_x
_atom_site_fract_y
_atom_site_fract_z
H9 H 0.0574 0.6794 0.0110
N5 N 0.0082(3) 0.4104(4) 0.3113(3)
O20 O 0.0246(3) 0.5934(4) 0.3889(3)
C14 C 0.0089(5) 0.6341(6) 0.9640(4)
C15 C 0.0350(4) 0.6485(6) 0.8630(4)
H10 H 0.0999 0.7036 0.8428
C18 C 0.0704(4) 0.6945(6) 0.6531(4)
H12 H 0.0631 0.7464 0.6921
H13 H 0.0549 0.7016 0.5833
C20 C 0.1831(4) 0.7201(6) 0.6594(4)
O9 O 0.2503(3) 0.8146(4) 0.6458(3)
O10 O 0.2040(2) 0.6490(4) 0.6779(2)
Zn5 Zn 0.39965(5) 0.90412(4) 0.69725(4)
Zn7 Zn 0.09588(4) 0.49553(6) 0.69725(4)
Na5 Na 0.3333 0.6667 0.7996(2)
Na8 Na 0.3333 0.6667 0.5270(2)
C1 C 0.6455(6) 0.1111(7) 0.1086(7)
O5 O 0.6212(4) 0.0436(4) 0.1697(3)
O6 O 0.6759(4) 0.2069(5) 0.1277(4)
Zn1 Zn 0.60035(5) 0.09588(4) 0.30275(4)
Na1 Na 0.6667 0.3333 0.2004(2)
C12 C 0.8889(7) 0.5344(9) 0.1086(7)
O11 O 0.9564(4) 0.5776(6) 0.1697(3)
O12 O 0.7931(5) 0.4690(6) 0.1277(4)
Zn2 Zn 0.90412(4) 0.50447(6) 0.30275(4)
C23 C 0.4656(9) 0.3545(6) 0.1086(7)
H17 H 0.3206 0.3780 0.0110
O17 O 0.4224(6) 0.3788(4) 0.1697(3)
O18 O 0.5310(6) 0.3241(4) 0.1277(4)
Zn3 Zn 0.49553(6) 0.39965(5) 0.30275(4)
N6 N 0.5896(4) 0.5978(3) 0.3113(3)
O21 O 0.4066(4) 0.4312(3) 0.3889(3)
O22 O 0.4357(3) 0.2503(3) 0.3542(3)
O23 O 0.7497(3) 0.1854(4) 0.3542(3)
O24 O 0.8146(4) 0.5643(3) 0.3542(3)
O26 O 0.5550(3) 0.2040(2) 0.3221(2)
O28 O 0.7960(2) 0.3510(4) 0.3221(2)
O30 O 0.6490(4) 0.4450(3) 0.3221(2)
C2 C 0.6411(4) 0.0859(5) 0.9969(5)
C5 C 0.6165(4) 0.0350(4) 0.7918(4)
C6 C 0.6322(5) 0.1322(4) 0.8250(5)
H3 H 0.6335 0.1803 0.7786
C8 C 0.6162(4) 0.0909(4) 0.6154(4)
H6 H 0.6412 0.0767 0.5529
H7 H 0.6716 0.1576 0.6411
C10 C 0.5225(4) 0.1017(4) 0.5923(4)
C11 C 0.6456(5) 0.1565(5) 0.9251(5)
H8 H 0.6582 0.2223 0.9457
N1 N 0.5978(3) 0.0082(3) 0.6887(3)
O1 O 0.5378(3) 0.1834(3) 0.5517(3)
O2 O 0.4312(3) 0.0246(3) 0.6111(3)
Na2 Na 0.6667 0.3333 0.4730(2)
C13 C 0.9141(5) 0.5552(6) 0.9969(5)
C16 C 0.9650(4) 0.5815(6) 0.7918(4)
C17 C 0.8678(4) 0.5000(6) 0.8250(5)
H11 H 0.8197 0.4532 0.7786
C19 C 0.9091(4) 0.5253(6) 0.6154(4)
H14 H 0.9233 0.5645 0.5529
H15 H 0.8424 0.5140 0.6411
C21 C 0.8983(4) 0.4208(6) 0.5923(4)
C22 C 0.8435(5) 0.4891(7) 0.9251(5)
H16 H 0.7777 0.4359 0.9457
N2 N 0.9918(3) 0.5896(4) 0.6887(3)
O7 O 0.8166(3) 0.3544(4) 0.5517(3)
O8 O 0.9754(3) 0.4066(4) 0.6111(3)
C24 C 0.4448(6) 0.3589(4) 0.9969(5)
C25 C 0.3659(6) 0.3748(4) 0.9640(4)
C26 C 0.3515(6) 0.3865(4) 0.8630(4)
H18 H 0.2964 0.3963 0.8428
C27 C 0.4185(6) 0.3835(4) 0.7918(4)
C28 C 0.5000(6) 0.3678(5) 0.8250(5)
H19 H 0.5468 0.3665 0.7786
C29 C 0.3055(6) 0.3759(4) 0.6531(4)
H20 H 0.2536 0.3167 0.6921
H21 H 0.2984 0.3533 0.5833
C30 C 0.4747(6) 0.3838(4) 0.6154(4)
H22 H 0.4355 0.3588 0.5529
H23 H 0.4860 0.3284 0.6411
C31 C 0.2799(6) 0.4630(4) 0.6594(4)
C32 C 0.5792(6) 0.4775(4) 0.5923(4)
C33 C 0.5109(7) 0.3544(5) 0.9251(5)
H24 H 0.5641 0.3418 0.9457
N3 N 0.4104(4) 0.4022(3) 0.6887(3)
O13 O 0.6456(4) 0.4622(3) 0.5517(3)
O14 O 0.5934(4) 0.5688(3) 0.6111(3)
O15 O 0.1854(4) 0.4357(3) 0.6458(3)
O16 O 0.3510(4) 0.5550(3) 0.6779(2)
Zn9 Zn 0.50447(6) 0.60035(5) 0.69725(4)
H1 H 0.6220 0.9426 0.0110
N4 N 0.4022(3) 0.9918(3) 0.3113(3)
O19 O 0.5688(3) 0.9754(3) 0.3889(3)
C3 C 0.6252(4) 0.9911(5) 0.9640(4)
C4 C 0.6135(4) 0.9650(4) 0.8630(4)
H2 H 0.6037 0.9001 0.8428
C7 C 0.6241(4) 0.9296(4) 0.6531(4)
H4 H 0.6833 0.9369 0.6921
H5 H 0.6467 0.9451 0.5833
C9 C 0.5370(4) 0.8169(4) 0.6594(4)
O3 O 0.5643(3) 0.7497(3) 0.6458(3)
O4 O 0.4450(3) 0.7960(2) 0.6779(2)
C3_2 C 0.3748(4) 0.0089(5) 0.0360(4)
C4_2 C 0.3865(4) 0.0350(4) 0.1370(4)
H2_2 H 0.3963 0.0999 0.1572
C7_2 C 0.3759(4) 0.0704(4) 0.3469(4)
H4_2 H 0.3167 0.0631 0.3079
H5_2 H 0.3533 0.0549 0.4167
C9_2 C 0.4630(4) 0.1831(4) 0.3406(4)
H1_2 H 0.3780 0.0574 0.9890
C2_2 C 0.3589(4) 0.9141(5) 0.0031(5)
C5_2 C 0.3835(4) 0.9650(4) 0.2082(4)
C6_2 C 0.3678(5) 0.8678(4) 0.1750(5)
H3_2 H 0.3665 0.8197 0.2214
C8_2 C 0.3838(4) 0.9091(4) 0.3846(4)
H6_2 H 0.3588 0.9233 0.4471
H7_2 H 0.3284 0.8424 0.3589
C10_2 C 0.4775(4) 0.8983(4) 0.4077(4)
C11_2 C 0.3544(5) 0.8435(5) 0.0749(5)
H8_2 H 0.3418 0.7777 0.0543
O1_2 O 0.4622(3) 0.8166(3) 0.4483(3)
C13_2 C 0.0859(5) 0.4448(6) 0.0031(5)
C16_2 C 0.0350(4) 0.4185(6) 0.2082(4)
C17_2 C 0.1322(4) 0.5000(6) 0.1750(5)
H11_2 H 0.1803 0.5468 0.2214
C19_2 C 0.0909(4) 0.4747(6) 0.3846(4)
H14_2 H 0.0767 0.4355 0.4471
H15_2 H 0.1576 0.4860 0.3589
C21_2 C 0.1017(4) 0.5792(6) 0.4077(4)
C22_2 C 0.1565(5) 0.5109(7) 0.0749(5)
H16_2 H 0.2223 0.5641 0.0543
O7_2 O 0.1834(3) 0.6456(4) 0.4483(3)
C24_2 C 0.5552(6) 0.6411(4) 0.0031(5)
C25_2 C 0.6341(6) 0.6252(4) 0.0360(4)
C26_2 C 0.6485(6) 0.6135(4) 0.1370(4)
H18_2 H 0.7036 0.6037 0.1572
C27_2 C 0.5815(6) 0.6165(4) 0.2082(4)
C28_2 C 0.5000(6) 0.6322(5) 0.1750(5)
H19_2 H 0.4532 0.6335 0.2214
C29_2 C 0.6945(6) 0.6241(4) 0.3469(4)
H20_2 H 0.7464 0.6833 0.3079
H21_2 H 0.7016 0.6467 0.4167
C30_2 C 0.5253(6) 0.6162(4) 0.3846(4)
H22_2 H 0.5645 0.6412 0.4471
H23_2 H 0.5140 0.6716 0.3589
C31_2 C 0.7201(6) 0.5370(4) 0.3406(4)
C32_2 C 0.4208(6) 0.5225(4) 0.4077(4)
C33_2 C 0.4891(7) 0.6456(5) 0.0749(5)
H24_2 H 0.4359 0.6582 0.0543
O13_2 O 0.3544(4) 0.5378(3) 0.4483(3)
C1_2 C 0.3545(6) 0.8889(7) 0.8914(7)
O5_2 O 0.3788(4) 0.9564(4) 0.8303(3)
O6_2 O 0.3241(4) 0.7931(5) 0.8723(4)
C12_2 C 0.1111(7) 0.4656(9) 0.8914(7)
O11_2 O 0.0436(4) 0.4224(6) 0.8303(3)
O12_2 O 0.2069(5) 0.5310(6) 0.8723(4)
C23_2 C 0.5344(9) 0.6455(6) 0.8914(7)
H17_2 H 0.6794 0.6220 0.9890
O17_2 O 0.5776(6) 0.6212(4) 0.8303(3)
O18_2 O 0.4690(6) 0.6759(4) 0.8723(4)
C14_2 C 0.9911(5) 0.3659(6) 0.0360(4)
C15_2 C 0.9650(4) 0.3515(6) 0.1370(4)
H10_2 H 0.9001 0.2964 0.1572
C18_2 C 0.9296(4) 0.3055(6) 0.3469(4)
H12_2 H 0.9369 0.2536 0.3079
H13_2 H 0.9451 0.2984 0.4167
C20_2 C 0.8169(4) 0.2799(6) 0.3406(4)
H9_2 H 0.9426 0.3206 0.9890
loop_
_geom_bond_atom_site_label_1
_geom_bond_atom_site_label_2
_geom_bond_site_symmetry_1
_geom_bond_site_symmetry_2
C15 C14 1_555 1_555
H10 C15 1_555 1_555
C18 H12 1_555 1_555
H13 C18 1_555 1_555
C20 C18 1_555 1_555
O9 C20 1_555 1_555
O10 C20 1_555 1_555
Zn5 O9 1_555 1_555
Na5 O10 1_555 1_555
Na8 O10 1_555 1_555
O10 Zn7 1_555 1_555
O5 C1 1_555 1_555
O6 C1 1_555 1_555
Zn1 O5 1_555 1_555
Na1 O6 1_555 1_555
O11 C12 1_555 1_555
O12 Na1 1_555 1_555
Zn2 O11 1_555 1_555
O17 C23 1_555 1_555
O18 Na1 1_555 1_555
Zn3 O17 1_555 1_555
N6 Zn3 1_555 1_555
O21 Zn3 1_555 1_555
O22 Zn3 1_555 1_555
O23 Zn1 1_555 1_555
O24 Zn2 1_555 1_555
O26 Zn1 1_555 1_555
O28 Na1 1_555 1_555
O30 Na1 1_555 1_555
Na1 O26 1_555 1_555
C12 O12 1_555 1_555
Zn2 O28 1_555 1_555
C23 O18 1_555 1_555
Zn3 O30 1_555 1_555
C6 C5 1_555 1_555
H3 C6 1_555 1_555
C8 H6 1_555 1_555
H7 C8 1_555 1_555
C10 C8 1_555 1_555
C11 C2 1_555 1_555
H8 C11 1_555 1_555
N1 C5 1_555 1_555
O1 C10 1_555 1_555
O2 C10 1_555 1_555
Na2 O1 1_555 1_555
C17 C16 1_555 1_555
H11 C17 1_555 1_555
C19 H14 1_555 1_555
H15 C19 1_555 1_555
C21 C19 1_555 1_555
C22 C13 1_555 1_555
H16 C22 1_555 1_555
N2 C16 1_555 1_555
O7 Na2 1_555 1_555
O8 C21 1_555 1_555
C24 C25 1_555 1_555
C26 C25 1_555 1_555
H18 C26 1_555 1_555
C27 C26 1_555 1_555
C28 C27 1_555 1_555
H19 C28 1_555 1_555
C29 H20 1_555 1_555
H21 C29 1_555 1_555
C30 H22 1_555 1_555
H23 C30 1_555 1_555
C31 C29 1_555 1_555
C32 C30 1_555 1_555
C33 C24 1_555 1_555
H24 C33 1_555 1_555
N3 C27 1_555 1_555
O13 Na2 1_555 1_555
O14 C32 1_555 1_555
O15 C31 1_555 1_555
O16 C31 1_555 1_555
O26 Na2 1_555 1_555
O28 Na2 1_555 1_555
O30 Na2 1_555 1_555
Zn7 O15 1_555 1_555
Zn9 N3 1_555 1_555
Na5 O16 1_555 1_555
Na8 O16 1_555 1_555
C6 C11 1_555 1_555
C8 N1 1_555 1_555
C17 C22 1_555 1_555
C19 N2 1_555 1_555
C21 O7 1_555 1_555
C28 C33 1_555 1_555
C29 N3 1_555 1_555
C30 N3 1_555 1_555
C32 O13 1_555 1_555
O14 Zn9 1_555 1_555
O16 Zn9 1_555 1_555
C4 C3 1_555 1_555
H2 C4 1_555 1_555
C7 H4 1_555 1_555
H5 C7 1_555 1_555
C9 C7 1_555 1_555
O3 C9 1_555 1_555
O4 C9 1_555 1_555
Zn9 O3 1_555 1_555
Na5 O4 1_555 1_555
Na8 O4 1_555 1_555
O4 Zn5 1_555 1_555
C4_2 C3_2 1_555 1_555
H2_2 C4_2 1_555 1_555
C7_2 H4_2 1_555 1_555
H5_2 C7_2 1_555 1_555
C9_2 C7_2 1_555 1_555
O22 C9_2 1_555 1_555
O26 C9_2 1_555 1_555
C6_2 C5_2 1_555 1_555
H3_2 C6_2 1_555 1_555
C8_2 H6_2 1_555 1_555
H7_2 C8_2 1_555 1_555
C10_2 C8_2 1_555 1_555
C11_2 C2_2 1_555 1_555
H8_2 C11_2 1_555 1_555
N4 C5_2 1_555 1_555
O1_2 C10_2 1_555 1_555
O19 C10_2 1_555 1_555
Na8 O1_2 1_555 1_555
C17_2 C16_2 1_555 1_555
H11_2 C17_2 1_555 1_555
C19_2 H14_2 1_555 1_555
H15_2 C19_2 1_555 1_555
C21_2 C19_2 1_555 1_555
C22_2 C13_2 1_555 1_555
H16_2 C22_2 1_555 1_555
N5 C16_2 1_555 1_555
O7_2 Na8 1_555 1_555
O20 C21_2 1_555 1_555
C24_2 C25_2 1_555 1_555
C26_2 C25_2 1_555 1_555
H18_2 C26_2 1_555 1_555
C27_2 C26_2 1_555 1_555
C28_2 C27_2 1_555 1_555
H19_2 C28_2 1_555 1_555
C29_2 H20_2 1_555 1_555
H21_2 C29_2 1_555 1_555
C30_2 H22_2 1_555 1_555
H23_2 C30_2 1_555 1_555
C31_2 C29_2 1_555 1_555
C32_2 C30_2 1_555 1_555
C33_2 C24_2 1_555 1_555
H24_2 C33_2 1_555 1_555
N6 C27_2 1_555 1_555
O13_2 Na8 1_555 1_555
O21 C32_2 1_555 1_555
O24 C31_2 1_555 1_555
O30 C31_2 1_555 1_555
C6_2 C11_2 1_555 1_555
C8_2 N4 1_555 1_555
C17_2 C22_2 1_555 1_555
C19_2 N5 1_555 1_555
C21_2 O7_2 1_555 1_555
C28_2 C33_2 1_555 1_555
C29_2 N6 1_555 1_555
C30_2 N6 1_555 1_555
C32_2 O13_2 1_555 1_555
O5_2 C1_2 1_555 1_555
O6_2 C1_2 1_555 1_555
Zn5 O5_2 1_555 1_555
Na5 O6_2 1_555 1_555
O11_2 C12_2 1_555 1_555
O12_2 Na5 1_555 1_555
Zn7 O11_2 1_555 1_555
O17_2 C23_2 1_555 1_555
O18_2 Na5 1_555 1_555
Zn9 O17_2 1_555 1_555
C12_2 O12_2 1_555 1_555
C23_2 O18_2 1_555 1_555
C15_2 C14_2 1_555 1_555
H10_2 C15_2 1_555 1_555
C18_2 H12_2 1_555 1_555
H13_2 C18_2 1_555 1_555
C20_2 C18_2 1_555 1_555
O23 C20_2 1_555 1_555
O28 C20_2 1_555 1_555

#END
