
###############################################################################
#
# This file contains modified crystal structure data generated from the
# MOF subset of the Cambridge Structural Database (CSD) v543 
# hosted by the Cambridge Crystallographic Data Centre (CCDC).
#
# This work is licensed under the Creative Commons
# Attribution-NonCommercial-ShareAlike 4.0 International License.
# To view a copy of this license, visit
# http://creativecommons.org/licenses/by-nc-sa/4.0/
# or send a letter to
# Creative Commons, PO Box 1866, Mountain View, CA 94042, USA.
#
# CIF created using the CSD Python API on 29 September 2022
# The structure has been converted into the P1 space group
# The structure has a 3D framework
# The original CSD entry FILTIG is in the monoclinic crystal system
# The framework has been calculated to contain at least 10.0% void space
# The void calculation uses a probe of radius 1.32A, grid spacing 0.4
#
###############################################################################

data_FILTIG
_chemical_formula_moiety         '(C280 H176 Cd4 N16 O31)n'
_symmetry_cell_setting           triclinic
_symmetry_space_group_name_H-M   'P 1'
_symmetry_Int_Tables_number      1
_space_group_name_Hall           'P 1'
loop_
_symmetry_equiv_pos_site_id
_symmetry_equiv_pos_as_xyz
1 x,y,z
_cell_length_a                   16.8306(2)
_cell_length_b                   39.0579(5)
_cell_length_c                   18.7533(4)
_cell_angle_alpha                90
_cell_angle_beta                 95.975(2)
_cell_angle_gamma                90
_cell_volume                     12260.8
loop_
_atom_site_label
_atom_site_type_symbol
_atom_site_fract_x
_atom_site_fract_y
_atom_site_fract_z
Cd9 Cd 0.39929(2) 0.49735(2) 0.04252(2)
Cd15 Cd 0.40019(2) 0.00606(2) 0.04012(2)
O4 O 0.04881(16) 0.51410(10) 0.56462(16)
C2 C 0.0398(2) 0.51726(9) 0.6291(2)
C8 C 0.1132(2) 0.52019(10) 0.68192(18)
C15 C 0.1839(2) 0.52398(17) 0.6668(2)
C16 C 0.1076(3) 0.5361(2) 0.7484(3)
C21 C 0.2546(2) 0.52194(16) 0.7161(2)
H11 H 0.1907 0.5285 0.6192
H12 H 0.0581 0.5440 0.7594
C22 C 0.1737(3) 0.54029(19) 0.7979(3)
H14 H 0.1724 0.5542 0.8380
O11 O 0.52766(15) 0.51780(10) 0.84949(15)
O12 O 0.45119(16) 0.51410(10) 0.93538(16)
C77 C 0.4602(2) 0.51726(9) 0.8709(2)
C78 C 0.3868(2) 0.52019(10) 0.81808(18)
C79 C 0.3161(2) 0.52398(17) 0.8332(2)
C80 C 0.3924(3) 0.5361(2) 0.7516(3)
C81 C 0.2454(2) 0.52194(16) 0.7839(2)
H48 H 0.3093 0.5285 0.8808
H49 H 0.4419 0.5440 0.7406
C82 C 0.3263(3) 0.54029(19) 0.7021(3)
H50 H 0.3276 0.5542 0.6620
Cd6 Cd 0.60071(2) 0.50265(2) 0.95748(2)
Cd8 Cd 0.10071(2) 0.49735(2) 0.45748(2)
Cd14 Cd 0.09981(2) 0.00606(2) 0.45988(2)
O24 O 0.04524(15) 0.98588(8) 0.56524(18)
C60 C 0.0386(2) 0.97948(9) 0.6305(3)
C62 C 0.1114(2) 0.97576(10) 0.6839(2)
C65 C 0.1856(2) 0.97589(12) 0.6642(2)
C66 C 0.1039(3) 0.9677(2) 0.7589(3)
C69 C 0.2539(2) 0.97407(12) 0.7145(2)
H41 H 0.1924 0.9772 0.6157
H42 H 0.0535 0.9638 0.7735
C70 C 0.1682(3) 0.9656(2) 0.8068(4)
H44 H 0.1629 0.9588 0.8536
O15 O 0.45476(15) 0.98588(8) 0.93476(18)
O16 O 0.52929(14) 0.97760(8) 0.84867(16)
C135 C 0.4614(2) 0.97948(9) 0.8695(3)
C136 C 0.3886(2) 0.97576(10) 0.8161(2)
C137 C 0.3144(2) 0.97589(12) 0.8358(2)
C138 C 0.3961(3) 0.9677(2) 0.7411(3)
C139 C 0.2461(2) 0.97407(12) 0.7855(2)
H86 H 0.3076 0.9772 0.8843
H87 H 0.4465 0.9638 0.7265
C140 C 0.3318(3) 0.9656(2) 0.6932(4)
H88 H 0.3371 0.9588 0.6464
Cd12 Cd 0.59981(2) 0.99394(2) 0.95988(2)
N10 N 0.9086(2) 0.05043(8) 0.5784(2)
O26 O 0.95476(15) 0.01412(8) 0.43476(18)
O28 O 0.76880(19) 0.00793(10) 0.4899(2)
H51 H 0.6336 0.4277 0.0183
H65 H 0.5769 0.0725 0.0085
Cd1 Cd 0.89929(2) 0.50265(2) 0.54252(2)
O1 O 0.76962(16) 0.49038(8) 0.49032(18)
O2 O 0.77807(16) 0.51235(11) 0.59836(18)
O3 O 0.97234(15) 0.51780(10) 0.65051(15)
N1 N 0.90635(18) 0.44523(8) 0.57410(19)
N2 N 0.8857(2) 0.55723(9) 0.4962(2)
C1 C 0.7380(3) 0.50157(12) 0.5452(3)
C3 C 0.8769(3) 0.42177(12) 0.5298(3)
C4 C 0.9312(3) 0.43469(11) 0.6417(3)
C5 C 0.9236(3) 0.58287(13) 0.5110(4)
C6 C 0.8533(5) 0.55870(16) 0.4229(3)
C7 C 0.6478(2) 0.50302(13) 0.5386(3)
C9 C 0.8598(3) 0.38810(11) 0.5495(3)
H1 H 0.8664 0.4277 0.4817
C10 C 0.9209(3) 0.40093(12) 0.6624(3)
H2 H 0.9555 0.4503 0.6746
H3 H 0.9650 0.5811 0.5478
C11 C 0.9117(3) 0.61507(13) 0.4787(4)
C12 C 0.8357(5) 0.59061(15) 0.3930(4)
H4 H 0.8442 0.5388 0.3960
C13 C 0.6039(3) 0.49057(17) 0.4800(4)
C14 C 0.6095(3) 0.51926(19) 0.5922(3)
C17 C 0.8823(3) 0.37769(11) 0.6186(3)
H5 H 0.8338 0.3731 0.5163
H6 H 0.9415 0.3942 0.7082
C18 C 0.8573(3) 0.62114(12) 0.4287(3)
H7 H 0.9456 0.6329 0.4949
H8 H 0.8085 0.5917 0.3473
C19 C 0.5184(3) 0.49332(15) 0.4723(3)
H9 H 0.6294 0.4801 0.4441
H10 H 0.6399 0.5278 0.6326
C20 C 0.5302(3) 0.5227(2) 0.5864(3)
C23 C 0.8588(3) 0.34250(10) 0.6434(3)
C24 C 0.8353(3) 0.65504(11) 0.3972(3)
H13 H 0.5063 0.5355 0.6201
C25 C 0.8987(4) 0.32707(16) 0.6998(4)
C26 C 0.7963(4) 0.32548(14) 0.6111(3)
C27 C 0.8901(3) 0.67756(11) 0.3855(3)
C28 C 0.7542(4) 0.66202(14) 0.3716(4)
C29 C 0.8750(4) 0.29589(16) 0.7289(4)
H15 H 0.9448 0.3375 0.7211
C30 C 0.7676(4) 0.29558(13) 0.6395(3)
H16 H 0.7711 0.3339 0.5682
C31 C 0.8691(3) 0.70805(11) 0.3490(3)
H17 H 0.9433 0.6733 0.4016
C32 C 0.7349(4) 0.69310(12) 0.3378(3)
H18 H 0.7145 0.6460 0.3775
C33 C 0.8068(3) 0.28027(9) 0.6964(2)
H19 H 0.9043 0.2861 0.7686
H20 H 0.7202 0.2861 0.6185
C34 C 0.7919(3) 0.71620(10) 0.3231(3)
H21 H 0.9094 0.7236 0.3418
H22 H 0.6814 0.6983 0.3248
C35 C 0.7768(3) 0.24771(8) 0.7244(3)
C36 C 0.7712(4) 0.74827(8) 0.2832(3)
C37 C 0.8066(3) 0.21535(10) 0.6965(3)
C38 C 0.8002(3) 0.78031(9) 0.3203(2)
C39 C 0.8620(4) 0.19441(15) 0.7435(4)
C40 C 0.7959(4) 0.20528(13) 0.6303(3)
C41 C 0.7814(3) 0.78668(12) 0.3915(3)
C42 C 0.8486(3) 0.80357(11) 0.2874(3)
H23 H 0.8800 0.2026 0.7888
C43 C 0.8887(4) 0.16255(14) 0.7224(4)
H24 H 0.7670 0.2190 0.5963
C44 C 0.8274(4) 0.17371(14) 0.6090(3)
H25 H 0.7535 0.7704 0.4150
C45 C 0.8048(3) 0.81730(11) 0.4259(3)
C46 C 0.8717(3) 0.83403(11) 0.3230(3)
H26 H 0.8650 0.7988 0.2426
C47 C 0.8633(3) 0.15251(12) 0.6487(3)
H27 H 0.9208 0.1486 0.7534
H28 H 0.8204 0.1685 0.5603
C48 C 0.8473(3) 0.84116(10) 0.3913(3)
H29 H 0.7916 0.8216 0.4720
H30 H 0.9033 0.8497 0.3016
C49 C 0.8862(3) 0.11700(12) 0.6265(3)
C50 C 0.8675(2) 0.87540(10) 0.4249(3)
C51 C 0.8995(3) 0.10956(12) 0.5581(3)
C52 C 0.9007(3) 0.09050(13) 0.6764(3)
C53 C 0.8735(3) 0.90413(10) 0.3819(3)
C54 C 0.8824(3) 0.87941(12) 0.4981(3)
H31 H 0.9004 0.1270 0.5245
C55 C 0.9117(2) 0.07631(12) 0.5383(3)
H32 H 0.9036 0.0948 0.7254
C56 C 0.9109(3) 0.05701(13) 0.6504(3)
H33 H 0.8690 0.9024 0.3322
C57 C 0.8867(3) 0.93593(12) 0.4163(3)
H34 H 0.8853 0.8605 0.5284
C58 C 0.8926(3) 0.91166(13) 0.5252(4)
H35 H 0.9231 0.0725 0.4915
H36 H 0.9193 0.0390 0.6828
N4 N 0.8930(2) 0.93982(9) 0.4872(2)
H37 H 0.8913 0.9552 0.3880
H38 H 0.9000 0.9139 0.5748
C63 C 0.6041(3) 0.0103(2) 0.4831(4)
C67 C 0.5181(3) 0.00875(16) 0.4789(3)
H39 H 0.6290 0.0224 0.4488
O9 O 0.23038(16) 0.50962(8) 0.50968(18)
O10 O 0.22193(16) 0.48765(11) 0.40164(18)
C71 C 0.2620(3) 0.49843(12) 0.4548(3)
C72 C 0.3522(2) 0.49698(13) 0.4614(3)
C73 C 0.3961(3) 0.50943(17) 0.5200(4)
C74 C 0.3905(3) 0.48074(19) 0.4078(3)
C75 C 0.4816(3) 0.50668(15) 0.5277(3)
H45 H 0.3706 0.5199 0.5559
H46 H 0.3601 0.4722 0.3674
C76 C 0.4698(3) 0.4773(2) 0.4136(3)
H47 H 0.4937 0.4645 0.3799
N5 N 0.59365(18) 0.44523(8) 0.92590(19)
C83 C 0.6231(3) 0.42177(12) 0.9702(3)
C84 C 0.5688(3) 0.43469(11) 0.8583(3)
C85 C 0.6402(3) 0.38810(11) 0.9505(3)
C86 C 0.5791(3) 0.40093(12) 0.8376(3)
H52 H 0.5445 0.4503 0.8254
C87 C 0.6177(3) 0.37769(11) 0.8814(3)
H53 H 0.6662 0.3731 0.9837
H54 H 0.5585 0.3942 0.7918
C88 C 0.6412(3) 0.34250(10) 0.8566(3)
C89 C 0.6013(4) 0.32707(16) 0.8002(4)
C90 C 0.7037(4) 0.32548(14) 0.8889(3)
C91 C 0.6250(4) 0.29589(16) 0.7711(4)
H55 H 0.5552 0.3375 0.7789
C92 C 0.7324(4) 0.29558(13) 0.8605(3)
H56 H 0.7289 0.3339 0.9318
C93 C 0.6932(3) 0.28027(9) 0.8036(2)
H57 H 0.5957 0.2861 0.7314
H58 H 0.7798 0.2861 0.8815
C94 C 0.7232(3) 0.24771(8) 0.7756(3)
C95 C 0.6934(3) 0.21535(10) 0.8035(3)
C96 C 0.6380(4) 0.19441(15) 0.7565(4)
C97 C 0.7041(4) 0.20528(13) 0.8697(3)
H59 H 0.6200 0.2026 0.7112
C98 C 0.6113(4) 0.16255(14) 0.7776(4)
H60 H 0.7330 0.2190 0.9037
C99 C 0.6726(4) 0.17371(14) 0.8910(3)
C100 C 0.6367(3) 0.15251(12) 0.8513(3)
H61 H 0.5792 0.1486 0.7466
H62 H 0.6796 0.1685 0.9397
C101 C 0.6138(3) 0.11700(12) 0.8735(3)
C102 C 0.6005(3) 0.10956(12) 0.9419(3)
C103 C 0.5993(3) 0.09050(13) 0.8236(3)
H63 H 0.5996 0.1270 0.9755
C104 C 0.5883(2) 0.07631(12) 0.9617(3)
H64 H 0.5964 0.0948 0.7746
C105 C 0.5891(3) 0.05701(13) 0.8496(3)
N6 N 0.5914(2) 0.05043(8) 0.9216(2)
H66 H 0.5807 0.0390 0.8172
N7 N 0.6143(2) 0.55723(9) 0.0038(2)
C107 C 0.6467(5) 0.55870(16) 0.0771(3)
C108 C 0.5883(3) 0.61507(13) 0.0213(4)
C109 C 0.6643(5) 0.59061(15) 0.1070(4)
H68 H 0.6558 0.5388 0.1040
C110 C 0.6427(3) 0.62114(12) 0.0713(3)
H69 H 0.5544 0.6329 0.0051
H70 H 0.6915 0.5917 0.1527
C111 C 0.6647(3) 0.65504(11) 0.1028(3)
C112 C 0.6099(3) 0.67756(11) 0.1145(3)
C113 C 0.7458(4) 0.66202(14) 0.1284(4)
C114 C 0.6309(3) 0.70805(11) 0.1510(3)
H71 H 0.5567 0.6733 0.0984
C115 C 0.7651(4) 0.69310(12) 0.1622(3)
H72 H 0.7855 0.6460 0.1225
C116 C 0.7081(3) 0.71620(10) 0.1769(3)
H73 H 0.5906 0.7236 0.1582
H74 H 0.8186 0.6983 0.1752
C117 C 0.7288(4) 0.74827(8) 0.2168(3)
C118 C 0.6998(3) 0.78031(9) 0.1797(2)
C119 C 0.7186(3) 0.78668(12) 0.1085(3)
C120 C 0.6514(3) 0.80357(11) 0.2126(3)
H75 H 0.7465 0.7704 0.0850
C121 C 0.6952(3) 0.81730(11) 0.0741(3)
C122 C 0.6283(3) 0.83403(11) 0.1770(3)
H76 H 0.6350 0.7988 0.2574
C123 C 0.6527(3) 0.84116(10) 0.1087(3)
H77 H 0.7084 0.8216 0.0280
H78 H 0.5967 0.8497 0.1984
C124 C 0.6325(2) 0.87540(10) 0.0751(3)
C125 C 0.6265(3) 0.90413(10) 0.1181(3)
C126 C 0.6176(3) 0.87941(12) 0.0019(3)
H79 H 0.6310 0.9024 0.1678
C127 C 0.6133(3) 0.93593(12) 0.0837(3)
N8 N 0.6070(2) 0.93982(9) 0.0128(2)
H81 H 0.6087 0.9552 0.1120
O13 O 0.22052(17) 0.01813(11) 0.4093(2)
C129 C 0.2605(3) 0.00586(13) 0.4602(4)
C130 C 0.3523(3) 0.00571(12) 0.4632(3)
C132 C 0.3856(4) 0.0283(2) 0.4212(4)
H84 H 0.3544 0.0415 0.3876
C134 C 0.4707(3) 0.0314(2) 0.4300(4)
H85 H 0.4956 0.0480 0.4044
Cd4 Cd 0.90019(2) 0.99394(2) 0.54012(2)
O17 O 0.73038(16) 0.49038(8) 0.00968(18)
O21 O 0.95119(16) 0.48590(10) 0.43538(16)
O22 O 0.54881(16) 0.48590(10) 0.06462(16)
O23 O 0.77948(17) 0.98187(11) 0.5907(2)
O27 O 0.97071(14) 0.97760(8) 0.65133(16)
C106 C 0.5764(3) 0.58287(13) 0.9890(4)
H67 H 0.5350 0.5811 0.9522
H80 H 0.6147 0.8605 0.9716
C128 C 0.6074(3) 0.91166(13) 0.9748(4)
H82 H 0.6000 0.9139 0.9252
O18 O 0.72193(16) 0.51235(11) 0.90164(18)
C59 C 0.7395(3) 0.99414(13) 0.5398(4)
C61 C 0.6477(3) 0.99429(12) 0.5368(3)
C64 C 0.6144(4) 0.9717(2) 0.5788(4)
H40 H 0.6456 0.9585 0.6124
C68 C 0.5293(3) 0.9686(2) 0.5700(4)
H43 H 0.5044 0.9520 0.5956
O14 O 0.23120(19) 0.99207(10) 0.5101(2)
C131 C 0.3959(3) 0.9897(2) 0.5169(4)
C133 C 0.4819(3) 0.99125(16) 0.5211(3)
H83 H 0.3710 0.9776 0.5512
O10_2 O 0.27807(16) 0.48765(11) 0.09836(18)
C71_2 C 0.2380(3) 0.49843(12) 0.0452(3)
C72_2 C 0.1478(2) 0.49698(13) 0.0386(3)
C74_2 C 0.1095(3) 0.48074(19) 0.0922(3)
H46_2 H 0.1399 0.4722 0.1326
C76_2 C 0.0302(3) 0.4773(2) 0.0864(3)
H47_2 H 0.0063 0.4645 0.1201
O13_2 O 0.27948(17) 0.01813(11) 0.0907(2)
C129_2 C 0.2395(3) 0.00586(13) 0.0398(4)
C130_2 C 0.1477(3) 0.00571(12) 0.0368(3)
C132_2 C 0.1144(4) 0.0283(2) 0.0788(4)
H84_2 H 0.1456 0.0415 0.1124
C134_2 C 0.0293(3) 0.0314(2) 0.0700(4)
H85_2 H 0.0044 0.0480 0.0956
O9_2 O 0.26962(16) 0.50962(8) 0.99032(18)
C73_2 C 0.1039(3) 0.50943(17) 0.9800(4)
C75_2 C 0.0184(3) 0.50668(15) 0.9723(3)
H45_2 H 0.1294 0.5199 0.9441
O14_2 O 0.26880(19) 0.99207(10) 0.9899(2)
C131_2 C 0.1041(3) 0.9897(2) 0.9831(4)
C133_2 C 0.0181(3) 0.99125(16) 0.9789(3)
H83_2 H 0.1290 0.9776 0.9488
O26_2 O 0.54524(15) 0.01412(8) 0.06524(18)
O28_2 O 0.73120(19) 0.00793(10) 0.0101(2)
C13_2 C 0.8961(3) 0.49057(17) 0.0200(4)
C19_2 C 0.9816(3) 0.49332(15) 0.0277(3)
H9_2 H 0.8706 0.4801 0.0559
C63_2 C 0.8959(3) 0.0103(2) 0.0169(4)
C67_2 C 0.9819(3) 0.00875(16) 0.0211(3)
H39_2 H 0.8710 0.0224 0.0512
C1_2 C 0.7620(3) 0.50157(12) 0.9548(3)
C7_2 C 0.8522(2) 0.50302(13) 0.9614(3)
C14_2 C 0.8905(3) 0.51926(19) 0.9078(3)
H10_2 H 0.8601 0.5278 0.8674
C20_2 C 0.9698(3) 0.5227(2) 0.9136(3)
H13_2 H 0.9937 0.5355 0.8799
O23_2 O 0.72052(17) 0.98187(11) 0.9093(2)
C59_2 C 0.7605(3) 0.99414(13) 0.9602(4)
C61_2 C 0.8523(3) 0.99429(12) 0.9632(3)
C64_2 C 0.8856(4) 0.9717(2) 0.9212(4)
H40_2 H 0.8544 0.9585 0.8876
C68_2 C 0.9707(3) 0.9686(2) 0.9300(4)
H43_2 H 0.9956 0.9520 0.9044
O7 O 0.02929(14) 0.02240(8) 0.34867(16)
N11 N 0.1070(2) 0.06018(9) 0.5128(2)
C106_2 C 0.4236(3) 0.41713(13) 0.0110(4)
H67_2 H 0.4650 0.4189 0.0478
H80_2 H 0.3853 0.1395 0.0284
C128_2 C 0.3926(3) 0.08834(13) 0.0252(4)
H82_2 H 0.4000 0.0861 0.0748
O19 O 0.47234(15) 0.48220(10) 0.15051(15)
N9 N 0.40635(18) 0.55477(8) 0.07410(19)
O3_2 O 0.02766(15) 0.48220(10) 0.34949(15)
N1_2 N 0.09365(18) 0.55477(8) 0.42590(19)
N2_2 N 0.1143(2) 0.44277(9) 0.5038(2)
C3_2 C 0.1231(3) 0.57823(12) 0.4702(3)
C4_2 C 0.0688(3) 0.56531(11) 0.3583(3)
C5_2 C 0.0764(3) 0.41713(13) 0.4890(4)
C6_2 C 0.1467(5) 0.44130(16) 0.5771(3)
C9_2 C 0.1402(3) 0.61190(11) 0.4505(3)
H1_2 H 0.1336 0.5723 0.5183
C10_2 C 0.0791(3) 0.59907(12) 0.3376(3)
H2_2 H 0.0445 0.5497 0.3254
H3_2 H 0.0350 0.4189 0.4522
C11_2 C 0.0883(3) 0.38493(13) 0.5213(4)
C12_2 C 0.1643(5) 0.40939(15) 0.6070(4)
H4_2 H 0.1558 0.4612 0.6040
C17_2 C 0.1177(3) 0.62231(11) 0.3814(3)
H5_2 H 0.1662 0.6269 0.4837
H6_2 H 0.0585 0.6058 0.2918
C18_2 C 0.1427(3) 0.37886(12) 0.5713(3)
H7_2 H 0.0544 0.3671 0.5051
H8_2 H 0.1915 0.4083 0.6527
C23_2 C 0.1412(3) 0.65750(10) 0.3566(3)
C24_2 C 0.1647(3) 0.34496(11) 0.6028(3)
C25_2 C 0.1013(4) 0.67293(16) 0.3002(4)
C26_2 C 0.2037(4) 0.67452(14) 0.3889(3)
C27_2 C 0.1099(3) 0.32244(11) 0.6145(3)
C28_2 C 0.2458(4) 0.33798(14) 0.6284(4)
C29_2 C 0.1250(4) 0.70411(16) 0.2711(4)
H15_2 H 0.0552 0.6625 0.2789
C30_2 C 0.2324(4) 0.70442(13) 0.3605(3)
H16_2 H 0.2289 0.6661 0.4318
C31_2 C 0.1309(3) 0.29195(11) 0.6510(3)
H17_2 H 0.0567 0.3267 0.5984
C32_2 C 0.2651(4) 0.30690(12) 0.6622(3)
H18_2 H 0.2855 0.3540 0.6225
C33_2 C 0.1932(3) 0.71973(9) 0.3036(2)
H19_2 H 0.0957 0.7139 0.2314
H20_2 H 0.2798 0.7139 0.3815
C34_2 C 0.2081(3) 0.28380(10) 0.6769(3)
H21_2 H 0.0906 0.2764 0.6582
H22_2 H 0.3186 0.3017 0.6752
C35_2 C 0.2232(3) 0.75229(8) 0.2756(3)
C36_2 C 0.2288(4) 0.25173(8) 0.7168(3)
C37_2 C 0.1934(3) 0.78465(10) 0.3035(3)
C38_2 C 0.1998(3) 0.21969(9) 0.6797(2)
C39_2 C 0.1380(4) 0.80559(15) 0.2565(4)
C40_2 C 0.2041(4) 0.79472(13) 0.3697(3)
C41_2 C 0.2186(3) 0.21332(12) 0.6085(3)
C42_2 C 0.1514(3) 0.19643(11) 0.7126(3)
H23_2 H 0.1200 0.7974 0.2112
C43_2 C 0.1113(4) 0.83745(14) 0.2776(4)
H24_2 H 0.2330 0.7810 0.4037
C44_2 C 0.1726(4) 0.82629(14) 0.3910(3)
H25_2 H 0.2465 0.2296 0.5850
C45_2 C 0.1952(3) 0.18270(11) 0.5741(3)
C46_2 C 0.1283(3) 0.16597(11) 0.6770(3)
H26_2 H 0.1350 0.2012 0.7574
C47_2 C 0.1367(3) 0.84749(12) 0.3513(3)
H27_2 H 0.0792 0.8514 0.2466
H28_2 H 0.1796 0.8315 0.4397
C48_2 C 0.1527(3) 0.15884(10) 0.6087(3)
H29_2 H 0.2084 0.1784 0.5280
H30_2 H 0.0967 0.1503 0.6984
C49_2 C 0.1138(3) 0.88300(12) 0.3735(3)
C50_2 C 0.1325(2) 0.12460(10) 0.5751(3)
C51_2 C 0.1005(3) 0.89044(12) 0.4419(3)
C52_2 C 0.0993(3) 0.90950(13) 0.3236(3)
C53_2 C 0.1265(3) 0.09587(10) 0.6181(3)
C54_2 C 0.1176(3) 0.12059(12) 0.5019(3)
H31_2 H 0.0996 0.8730 0.4755
C55_2 C 0.0883(2) 0.92369(12) 0.4617(3)
H32_2 H 0.0964 0.9052 0.2746
C56_2 C 0.0891(3) 0.94299(13) 0.3496(3)
H33_2 H 0.1310 0.0976 0.6678
C57_2 C 0.1133(3) 0.06407(12) 0.5837(3)
H34_2 H 0.1147 0.1395 0.4716
C58_2 C 0.1074(3) 0.08834(13) 0.4748(4)
N3 N 0.0914(2) 0.94957(8) 0.4216(2)
H35_2 H 0.0769 0.9275 0.5085
H36_2 H 0.0807 0.9610 0.3172
H37_2 H 0.1087 0.0448 0.6120
H38_2 H 0.1000 0.0861 0.4252
C83_2 C 0.3769(3) 0.57823(12) 0.0298(3)
C84_2 C 0.4312(3) 0.56531(11) 0.1417(3)
C85_2 C 0.3598(3) 0.61190(11) 0.0495(3)
C86_2 C 0.4209(3) 0.59907(12) 0.1624(3)
H52_2 H 0.4555 0.5497 0.1746
C87_2 C 0.3823(3) 0.62231(11) 0.1186(3)
H53_2 H 0.3338 0.6269 0.0163
H54_2 H 0.4415 0.6058 0.2082
C88_2 C 0.3588(3) 0.65750(10) 0.1434(3)
C89_2 C 0.3987(4) 0.67293(16) 0.1998(4)
C90_2 C 0.2963(4) 0.67452(14) 0.1111(3)
C91_2 C 0.3750(4) 0.70411(16) 0.2289(4)
H55_2 H 0.4448 0.6625 0.2211
C92_2 C 0.2676(4) 0.70442(13) 0.1395(3)
H56_2 H 0.2711 0.6661 0.0682
C93_2 C 0.3068(3) 0.71973(9) 0.1964(2)
H57_2 H 0.4043 0.7139 0.2686
H58_2 H 0.2202 0.7139 0.1185
C94_2 C 0.2768(3) 0.75229(8) 0.2244(3)
C95_2 C 0.3066(3) 0.78465(10) 0.1965(3)
C96_2 C 0.3620(4) 0.80559(15) 0.2435(4)
C97_2 C 0.2959(4) 0.79472(13) 0.1303(3)
H59_2 H 0.3800 0.7974 0.2888
C98_2 C 0.3887(4) 0.83745(14) 0.2224(4)
H60_2 H 0.2670 0.7810 0.0963
C99_2 C 0.3274(4) 0.82629(14) 0.1090(3)
C100_2 C 0.3633(3) 0.84749(12) 0.1487(3)
H61_2 H 0.4208 0.8514 0.2534
H62_2 H 0.3204 0.8315 0.0603
C101_2 C 0.3862(3) 0.88300(12) 0.1265(3)
C102_2 C 0.3995(3) 0.89044(12) 0.0581(3)
C103_2 C 0.4007(3) 0.90950(13) 0.1764(3)
H63_2 H 0.4004 0.8730 0.0245
C104_2 C 0.4117(2) 0.92369(12) 0.0383(3)
H64_2 H 0.4036 0.9052 0.2254
C105_2 C 0.4109(3) 0.94299(13) 0.1504(3)
N6_2 N 0.4086(2) 0.94957(8) 0.0784(2)
H66_2 H 0.4193 0.9610 0.1828
N7_2 N 0.3857(2) 0.44277(9) 0.9962(2)
C107_2 C 0.3533(5) 0.44130(16) 0.9229(3)
C108_2 C 0.4117(3) 0.38493(13) 0.9787(4)
C109_2 C 0.3357(5) 0.40939(15) 0.8930(4)
H68_2 H 0.3442 0.4612 0.8960
C110_2 C 0.3573(3) 0.37886(12) 0.9287(3)
H69_2 H 0.4456 0.3671 0.9949
H70_2 H 0.3085 0.4083 0.8473
C111_2 C 0.3353(3) 0.34496(11) 0.8972(3)
C112_2 C 0.3901(3) 0.32244(11) 0.8855(3)
C113_2 C 0.2542(4) 0.33798(14) 0.8716(4)
C114_2 C 0.3691(3) 0.29195(11) 0.8490(3)
H71_2 H 0.4433 0.3267 0.9016
C115_2 C 0.2349(4) 0.30690(12) 0.8378(3)
H72_2 H 0.2145 0.3540 0.8775
C116_2 C 0.2919(3) 0.28380(10) 0.8231(3)
H73_2 H 0.4094 0.2764 0.8418
H74_2 H 0.1814 0.3017 0.8248
C117_2 C 0.2712(4) 0.25173(8) 0.7832(3)
C118_2 C 0.3002(3) 0.21969(9) 0.8203(2)
C119_2 C 0.2814(3) 0.21332(12) 0.8915(3)
C120_2 C 0.3486(3) 0.19643(11) 0.7874(3)
H75_2 H 0.2535 0.2296 0.9150
C121_2 C 0.3048(3) 0.18270(11) 0.9259(3)
C122_2 C 0.3717(3) 0.16597(11) 0.8230(3)
H76_2 H 0.3650 0.2012 0.7426
C123_2 C 0.3473(3) 0.15884(10) 0.8913(3)
H77_2 H 0.2916 0.1784 0.9720
H78_2 H 0.4033 0.1503 0.8016
C124_2 C 0.3675(2) 0.12460(10) 0.9249(3)
C125_2 C 0.3735(3) 0.09587(10) 0.8819(3)
C126_2 C 0.3824(3) 0.12059(12) 0.9981(3)
H79_2 H 0.3690 0.0976 0.8322
C127_2 C 0.3867(3) 0.06407(12) 0.9163(3)
N8_2 N 0.3930(2) 0.06018(9) 0.9872(2)
H81_2 H 0.3913 0.0448 0.8880
H51_2 H 0.3664 0.5723 0.9817
H65_2 H 0.4231 0.9275 0.9915
C60_2 C 0.9614(2) 0.02052(9) 0.3695(3)
C62_2 C 0.8886(2) 0.02424(10) 0.3161(2)
C65_2 C 0.8144(2) 0.02411(12) 0.3358(2)
C66_2 C 0.8961(3) 0.0323(2) 0.2411(3)
C69_2 C 0.7461(2) 0.02593(12) 0.2855(2)
H41_2 H 0.8076 0.0228 0.3843
H42_2 H 0.9465 0.0362 0.2265
C70_2 C 0.8318(3) 0.0344(2) 0.1932(4)
H44_2 H 0.8371 0.0412 0.1464
O16_2 O 0.47071(14) 0.02240(8) 0.15133(16)
C135_2 C 0.5386(2) 0.02052(9) 0.1305(3)
C136_2 C 0.6114(2) 0.02424(10) 0.1839(2)
C137_2 C 0.6856(2) 0.02411(12) 0.1642(2)
C138_2 C 0.6039(3) 0.0323(2) 0.2589(3)
C139_2 C 0.7539(2) 0.02593(12) 0.2145(2)
H86_2 H 0.6924 0.0228 0.1157
H87_2 H 0.5535 0.0362 0.2735
C140_2 C 0.6682(3) 0.0344(2) 0.3068(4)
H88_2 H 0.6629 0.0412 0.3536
C2_2 C 0.9602(2) 0.48274(9) 0.3709(2)
C8_2 C 0.8868(2) 0.47981(10) 0.31808(18)
C15_2 C 0.8161(2) 0.47602(17) 0.3332(2)
C16_2 C 0.8924(3) 0.4639(2) 0.2516(3)
C21_2 C 0.7454(2) 0.47806(16) 0.2839(2)
H11_2 H 0.8093 0.4715 0.3808
H12_2 H 0.9419 0.4560 0.2406
C22_2 C 0.8263(3) 0.45971(19) 0.2021(3)
H14_2 H 0.8276 0.4458 0.1620
C77_2 C 0.5398(2) 0.48274(9) 0.1291(2)
C78_2 C 0.6132(2) 0.47981(10) 0.18192(18)
C79_2 C 0.6839(2) 0.47602(17) 0.1668(2)
C80_2 C 0.6076(3) 0.4639(2) 0.2484(3)
C81_2 C 0.7546(2) 0.47806(16) 0.2161(2)
H48_2 H 0.6907 0.4715 0.1192
H49_2 H 0.5581 0.4560 0.2594
C82_2 C 0.6737(3) 0.45971(19) 0.2979(3)
H50_2 H 0.6724 0.4458 0.3380
loop_
_geom_bond_atom_site_label_1
_geom_bond_atom_site_label_2
_geom_bond_site_symmetry_1
_geom_bond_site_symmetry_2
C8 C2 1_555 1_555
C15 C8 1_555 1_555
C16 C8 1_555 1_555
C21 C15 1_555 1_555
H11 C15 1_555 1_555
H12 C16 1_555 1_555
C22 C16 1_555 1_555
H14 C22 1_555 1_555
O11 C77 1_555 1_555
O12 C77 1_555 1_555
C77 C78 1_555 1_555
C78 C79 1_555 1_555
C79 C81 1_555 1_555
C80 C78 1_555 1_555
C81 C21 1_555 1_555
H48 C79 1_555 1_555
H49 C80 1_555 1_555
C82 C21 1_555 1_555
H50 C82 1_555 1_555
Cd6 O11 1_555 1_555
Cd8 O4 1_555 1_555
O4 C2 1_555 1_555
C22 C81 1_555 1_555
O12 Cd6 1_555 1_555
C80 C82 1_555 1_555
C60 O24 1_555 1_555
C62 C60 1_555 1_555
C65 C62 1_555 1_555
C66 C62 1_555 1_555
C69 C65 1_555 1_555
H41 C65 1_555 1_555
H42 C66 1_555 1_555
C70 C66 1_555 1_555
H44 C70 1_555 1_555
O15 C135 1_555 1_555
O16 C135 1_555 1_555
C135 C136 1_555 1_555
C136 C137 1_555 1_555
C137 C139 1_555 1_555
C138 C136 1_555 1_555
C139 C69 1_555 1_555
H86 C137 1_555 1_555
H87 C138 1_555 1_555
C140 C69 1_555 1_555
H88 C140 1_555 1_555
Cd12 O15 1_555 1_555
C70 C139 1_555 1_555
O16 Cd12 1_555 1_555
C138 C140 1_555 1_555
Cd1 O1 1_555 1_555
O1 C1 1_555 1_555
O2 Cd1 1_555 1_555
O3 Cd1 1_555 1_555
N1 Cd1 1_555 1_555
N2 Cd1 1_555 1_555
C1 O2 1_555 1_555
C3 N1 1_555 1_555
C4 N1 1_555 1_555
C5 N2 1_555 1_555
C6 N2 1_555 1_555
C7 C1 1_555 1_555
C9 C3 1_555 1_555
H1 C3 1_555 1_555
C10 C4 1_555 1_555
H2 C4 1_555 1_555
H3 C5 1_555 1_555
C11 C5 1_555 1_555
C12 C6 1_555 1_555
H4 C6 1_555 1_555
C13 C7 1_555 1_555
C14 C7 1_555 1_555
C17 C9 1_555 1_555
H5 C9 1_555 1_555
H6 C10 1_555 1_555
C18 C11 1_555 1_555
H7 C11 1_555 1_555
H8 C12 1_555 1_555
C19 C13 1_555 1_555
H9 C13 1_555 1_555
H10 C14 1_555 1_555
C20 C14 1_555 1_555
C23 C17 1_555 1_555
C24 C18 1_555 1_555
H13 C20 1_555 1_555
C25 C23 1_555 1_555
C26 C23 1_555 1_555
C27 C24 1_555 1_555
C28 C24 1_555 1_555
C29 C25 1_555 1_555
H15 C25 1_555 1_555
C30 C26 1_555 1_555
H16 C26 1_555 1_555
C31 C27 1_555 1_555
H17 C27 1_555 1_555
C32 C28 1_555 1_555
H18 C28 1_555 1_555
C33 C29 1_555 1_555
H19 C29 1_555 1_555
H20 C30 1_555 1_555
C34 C31 1_555 1_555
H21 C31 1_555 1_555
H22 C32 1_555 1_555
C35 C33 1_555 1_555
C36 C34 1_555 1_555
C37 C35 1_555 1_555
C38 C36 1_555 1_555
C39 C37 1_555 1_555
C40 C37 1_555 1_555
C41 C38 1_555 1_555
C42 C38 1_555 1_555
H23 C39 1_555 1_555
C43 C39 1_555 1_555
H24 C40 1_555 1_555
C44 C40 1_555 1_555
H25 C41 1_555 1_555
C45 C41 1_555 1_555
C46 C42 1_555 1_555
H26 C42 1_555 1_555
C47 C43 1_555 1_555
H27 C43 1_555 1_555
H28 C44 1_555 1_555
C48 C45 1_555 1_555
H29 C45 1_555 1_555
H30 C46 1_555 1_555
C49 C47 1_555 1_555
C50 C48 1_555 1_555
C51 C49 1_555 1_555
C52 C49 1_555 1_555
C53 C50 1_555 1_555
C54 C50 1_555 1_555
H31 C51 1_555 1_555
C55 C51 1_555 1_555
H32 C52 1_555 1_555
C56 C52 1_555 1_555
H33 C53 1_555 1_555
C57 C53 1_555 1_555
H34 C54 1_555 1_555
C58 C54 1_555 1_555
N10 C55 1_555 1_555
H35 C55 1_555 1_555
H36 C56 1_555 1_555
N4 C57 1_555 1_555
H37 C57 1_555 1_555
H38 C58 1_555 1_555
C67 C63 1_555 1_555
H39 C63 1_555 1_555
O9 C71 1_555 1_555
O10 C71 1_555 1_555
C71 C72 1_555 1_555
C72 C73 1_555 1_555
C73 C75 1_555 1_555
C74 C72 1_555 1_555
C75 C19 1_555 1_555
H45 C73 1_555 1_555
H46 C74 1_555 1_555
C76 C19 1_555 1_555
H47 C76 1_555 1_555
N5 C83 1_555 1_555
C83 C85 1_555 1_555
C84 N5 1_555 1_555
C85 C87 1_555 1_555
C86 C84 1_555 1_555
H52 C84 1_555 1_555
C87 C86 1_555 1_555
H53 C85 1_555 1_555
H54 C86 1_555 1_555
C88 C87 1_555 1_555
C89 C88 1_555 1_555
C90 C88 1_555 1_555
C91 C89 1_555 1_555
H55 C89 1_555 1_555
C92 C90 1_555 1_555
H56 C90 1_555 1_555
C93 C91 1_555 1_555
H57 C91 1_555 1_555
H58 C92 1_555 1_555
C94 C35 1_555 1_555
C95 C94 1_555 1_555
C96 C95 1_555 1_555
C97 C95 1_555 1_555
H59 C96 1_555 1_555
C98 C96 1_555 1_555
H60 C97 1_555 1_555
C99 C97 1_555 1_555
C100 C98 1_555 1_555
H61 C98 1_555 1_555
H62 C99 1_555 1_555
C101 C100 1_555 1_555
C102 C101 1_555 1_555
C103 C101 1_555 1_555
H63 C102 1_555 1_555
C104 C102 1_555 1_555
H64 C103 1_555 1_555
C105 C103 1_555 1_555
N6 C104 1_555 1_555
H66 C105 1_555 1_555
C107 N7 1_555 1_555
C109 C107 1_555 1_555
H68 C107 1_555 1_555
C110 C108 1_555 1_555
H69 C108 1_555 1_555
H70 C109 1_555 1_555
C111 C110 1_555 1_555
C112 C111 1_555 1_555
C113 C111 1_555 1_555
C114 C112 1_555 1_555
H71 C112 1_555 1_555
C115 C113 1_555 1_555
H72 C113 1_555 1_555
C116 C114 1_555 1_555
H73 C114 1_555 1_555
H74 C115 1_555 1_555
C117 C36 1_555 1_555
C118 C117 1_555 1_555
C119 C118 1_555 1_555
C120 C118 1_555 1_555
H75 C119 1_555 1_555
C121 C119 1_555 1_555
C122 C120 1_555 1_555
H76 C120 1_555 1_555
C123 C121 1_555 1_555
H77 C121 1_555 1_555
H78 C122 1_555 1_555
C124 C123 1_555 1_555
C125 C124 1_555 1_555
C126 C124 1_555 1_555
H79 C125 1_555 1_555
C127 C125 1_555 1_555
N8 C127 1_555 1_555
H81 C127 1_555 1_555
O13 C129 1_555 1_555
C129 C130 1_555 1_555
C132 C130 1_555 1_555
H84 C132 1_555 1_555
C134 C67 1_555 1_555
H85 C134 1_555 1_555
Cd4 N4 1_555 1_555
Cd6 N5 1_555 1_555
Cd8 O9 1_555 1_555
O21 Cd1 1_555 1_555
Cd14 O13 1_555 1_555
O23 Cd4 1_555 1_555
O27 Cd4 1_555 1_555
C10 C17 1_555 1_555
C12 C18 1_555 1_555
C20 C75 1_555 1_555
C30 C33 1_555 1_555
C32 C34 1_555 1_555
C44 C47 1_555 1_555
C46 C48 1_555 1_555
C56 N10 1_555 1_555
C58 N4 1_555 1_555
O10 Cd8 1_555 1_555
C74 C76 1_555 1_555
C92 C93 1_555 1_555
C93 C94 1_555 1_555
C99 C100 1_555 1_555
C105 N6 1_555 1_555
C109 C110 1_555 1_555
C115 C116 1_555 1_555
C116 C117 1_555 1_555
C122 C123 1_555 1_555
C132 C134 1_555 1_555
C106 H67 1_555 1_555
H82 C128 1_555 1_555
O18 Cd6 1_555 1_555
C59 O23 1_555 1_555
C61 C59 1_555 1_555
C64 C61 1_555 1_555
H40 C64 1_555 1_555
C68 C64 1_555 1_555
H43 C68 1_555 1_555
C131 C133 1_555 1_555
H83 C131 1_555 1_555
C68 C133 1_555 1_555
O10_2 C71_2 1_555 1_555
C71_2 C72_2 1_555 1_555
C74_2 C72_2 1_555 1_555
H46_2 C74_2 1_555 1_555
H47_2 C76_2 1_555 1_555
O13_2 C129_2 1_555 1_555
C129_2 C130_2 1_555 1_555
C132_2 C130_2 1_555 1_555
H84_2 C132_2 1_555 1_555
H85_2 C134_2 1_555 1_555
Cd15 O13_2 1_555 1_555
O10_2 Cd9 1_555 1_555
C74_2 C76_2 1_555 1_555
C132_2 C134_2 1_555 1_555
C73_2 C75_2 1_555 1_555
H45_2 C73_2 1_555 1_555
C131_2 C133_2 1_555 1_555
H83_2 C131_2 1_555 1_555
C19_2 C13_2 1_555 1_555
H9_2 C13_2 1_555 1_555
C67_2 C63_2 1_555 1_555
H39_2 C63_2 1_555 1_555
Cd9 O22 1_555 1_555
Cd15 O26_2 1_555 1_555
C1_2 O18 1_555 1_555
C7_2 C1_2 1_555 1_555
C14_2 C7_2 1_555 1_555
H10_2 C14_2 1_555 1_555
C20_2 C14_2 1_555 1_555
H13_2 C20_2 1_555 1_555
O23_2 Cd12 1_555 1_555
C59_2 O23_2 1_555 1_555
C61_2 C59_2 1_555 1_555
C64_2 C61_2 1_555 1_555
H40_2 C64_2 1_555 1_555
C68_2 C64_2 1_555 1_555
H43_2 C68_2 1_555 1_555
O7 Cd14 1_555 1_555
N11 Cd14 1_555 1_555
C106_2 H67_2 1_555 1_555
H82_2 C128_2 1_555 1_555
O19 Cd9 1_555 1_555
N9 Cd9 1_555 1_555
O3_2 Cd8 1_555 1_555
N1_2 Cd8 1_555 1_555
N2_2 Cd8 1_555 1_555
C3_2 N1_2 1_555 1_555
C4_2 N1_2 1_555 1_555
C5_2 N2_2 1_555 1_555
C6_2 N2_2 1_555 1_555
C9_2 C3_2 1_555 1_555
H1_2 C3_2 1_555 1_555
C10_2 C4_2 1_555 1_555
H2_2 C4_2 1_555 1_555
H3_2 C5_2 1_555 1_555
C11_2 C5_2 1_555 1_555
C12_2 C6_2 1_555 1_555
H4_2 C6_2 1_555 1_555
C17_2 C9_2 1_555 1_555
H5_2 C9_2 1_555 1_555
H6_2 C10_2 1_555 1_555
C18_2 C11_2 1_555 1_555
H7_2 C11_2 1_555 1_555
H8_2 C12_2 1_555 1_555
C23_2 C17_2 1_555 1_555
C24_2 C18_2 1_555 1_555
C25_2 C23_2 1_555 1_555
C26_2 C23_2 1_555 1_555
C27_2 C24_2 1_555 1_555
C28_2 C24_2 1_555 1_555
C29_2 C25_2 1_555 1_555
H15_2 C25_2 1_555 1_555
C30_2 C26_2 1_555 1_555
H16_2 C26_2 1_555 1_555
C31_2 C27_2 1_555 1_555
H17_2 C27_2 1_555 1_555
C32_2 C28_2 1_555 1_555
H18_2 C28_2 1_555 1_555
C33_2 C29_2 1_555 1_555
H19_2 C29_2 1_555 1_555
H20_2 C30_2 1_555 1_555
C34_2 C31_2 1_555 1_555
H21_2 C31_2 1_555 1_555
H22_2 C32_2 1_555 1_555
C35_2 C33_2 1_555 1_555
C36_2 C34_2 1_555 1_555
C37_2 C35_2 1_555 1_555
C38_2 C36_2 1_555 1_555
C39_2 C37_2 1_555 1_555
C40_2 C37_2 1_555 1_555
C41_2 C38_2 1_555 1_555
C42_2 C38_2 1_555 1_555
H23_2 C39_2 1_555 1_555
C43_2 C39_2 1_555 1_555
H24_2 C40_2 1_555 1_555
C44_2 C40_2 1_555 1_555
H25_2 C41_2 1_555 1_555
C45_2 C41_2 1_555 1_555
C46_2 C42_2 1_555 1_555
H26_2 C42_2 1_555 1_555
C47_2 C43_2 1_555 1_555
H27_2 C43_2 1_555 1_555
H28_2 C44_2 1_555 1_555
C48_2 C45_2 1_555 1_555
H29_2 C45_2 1_555 1_555
H30_2 C46_2 1_555 1_555
C49_2 C47_2 1_555 1_555
C50_2 C48_2 1_555 1_555
C51_2 C49_2 1_555 1_555
C52_2 C49_2 1_555 1_555
C53_2 C50_2 1_555 1_555
C54_2 C50_2 1_555 1_555
H31_2 C51_2 1_555 1_555
C55_2 C51_2 1_555 1_555
H32_2 C52_2 1_555 1_555
C56_2 C52_2 1_555 1_555
H33_2 C53_2 1_555 1_555
C57_2 C53_2 1_555 1_555
H34_2 C54_2 1_555 1_555
C58_2 C54_2 1_555 1_555
N3 C55_2 1_555 1_555
H35_2 C55_2 1_555 1_555
H36_2 C56_2 1_555 1_555
N11 C57_2 1_555 1_555
H37_2 C57_2 1_555 1_555
H38_2 C58_2 1_555 1_555
N9 C83_2 1_555 1_555
C83_2 C85_2 1_555 1_555
C84_2 N9 1_555 1_555
C85_2 C87_2 1_555 1_555
C86_2 C84_2 1_555 1_555
H52_2 C84_2 1_555 1_555
C87_2 C86_2 1_555 1_555
H53_2 C85_2 1_555 1_555
H54_2 C86_2 1_555 1_555
C88_2 C87_2 1_555 1_555
C89_2 C88_2 1_555 1_555
C90_2 C88_2 1_555 1_555
C91_2 C89_2 1_555 1_555
H55_2 C89_2 1_555 1_555
C92_2 C90_2 1_555 1_555
H56_2 C90_2 1_555 1_555
C93_2 C91_2 1_555 1_555
H57_2 C91_2 1_555 1_555
H58_2 C92_2 1_555 1_555
C94_2 C35_2 1_555 1_555
C95_2 C94_2 1_555 1_555
C96_2 C95_2 1_555 1_555
C97_2 C95_2 1_555 1_555
H59_2 C96_2 1_555 1_555
C98_2 C96_2 1_555 1_555
H60_2 C97_2 1_555 1_555
C99_2 C97_2 1_555 1_555
C100_2 C98_2 1_555 1_555
H61_2 C98_2 1_555 1_555
H62_2 C99_2 1_555 1_555
C101_2 C100_2 1_555 1_555
C102_2 C101_2 1_555 1_555
C103_2 C101_2 1_555 1_555
H63_2 C102_2 1_555 1_555
C104_2 C102_2 1_555 1_555
H64_2 C103_2 1_555 1_555
C105_2 C103_2 1_555 1_555
N6_2 C104_2 1_555 1_555
H66_2 C105_2 1_555 1_555
C107_2 N7_2 1_555 1_555
C109_2 C107_2 1_555 1_555
H68_2 C107_2 1_555 1_555
C110_2 C108_2 1_555 1_555
H69_2 C108_2 1_555 1_555
H70_2 C109_2 1_555 1_555
C111_2 C110_2 1_555 1_555
C112_2 C111_2 1_555 1_555
C113_2 C111_2 1_555 1_555
C114_2 C112_2 1_555 1_555
H71_2 C112_2 1_555 1_555
C115_2 C113_2 1_555 1_555
H72_2 C113_2 1_555 1_555
C116_2 C114_2 1_555 1_555
H73_2 C114_2 1_555 1_555
H74_2 C115_2 1_555 1_555
C117_2 C36_2 1_555 1_555
C118_2 C117_2 1_555 1_555
C119_2 C118_2 1_555 1_555
C120_2 C118_2 1_555 1_555
H75_2 C119_2 1_555 1_555
C121_2 C119_2 1_555 1_555
C122_2 C120_2 1_555 1_555
H76_2 C120_2 1_555 1_555
C123_2 C121_2 1_555 1_555
H77_2 C121_2 1_555 1_555
H78_2 C122_2 1_555 1_555
C124_2 C123_2 1_555 1_555
C125_2 C124_2 1_555 1_555
C126_2 C124_2 1_555 1_555
H79_2 C125_2 1_555 1_555
C127_2 C125_2 1_555 1_555
N8_2 C127_2 1_555 1_555
H81_2 C127_2 1_555 1_555
C10_2 C17_2 1_555 1_555
C12_2 C18_2 1_555 1_555
C30_2 C33_2 1_555 1_555
C32_2 C34_2 1_555 1_555
C44_2 C47_2 1_555 1_555
C46_2 C48_2 1_555 1_555
C56_2 N3 1_555 1_555
C58_2 N11 1_555 1_555
C92_2 C93_2 1_555 1_555
C93_2 C94_2 1_555 1_555
C99_2 C100_2 1_555 1_555
C105_2 N6_2 1_555 1_555
C109_2 C110_2 1_555 1_555
C115_2 C116_2 1_555 1_555
C116_2 C117_2 1_555 1_555
C122_2 C123_2 1_555 1_555
C60_2 O26 1_555 1_555
C62_2 C60_2 1_555 1_555
C65_2 C62_2 1_555 1_555
C66_2 C62_2 1_555 1_555
C69_2 C65_2 1_555 1_555
H41_2 C65_2 1_555 1_555
H42_2 C66_2 1_555 1_555
C70_2 C66_2 1_555 1_555
H44_2 C70_2 1_555 1_555
O26_2 C135_2 1_555 1_555
O16_2 C135_2 1_555 1_555
C135_2 C136_2 1_555 1_555
C136_2 C137_2 1_555 1_555
C137_2 C139_2 1_555 1_555
C138_2 C136_2 1_555 1_555
C139_2 C69_2 1_555 1_555
H86_2 C137_2 1_555 1_555
H87_2 C138_2 1_555 1_555
C140_2 C69_2 1_555 1_555
H88_2 C140_2 1_555 1_555
C70_2 C139_2 1_555 1_555
O16_2 Cd15 1_555 1_555
C138_2 C140_2 1_555 1_555
C8_2 C2_2 1_555 1_555
C15_2 C8_2 1_555 1_555
C16_2 C8_2 1_555 1_555
C21_2 C15_2 1_555 1_555
H11_2 C15_2 1_555 1_555
H12_2 C16_2 1_555 1_555
C22_2 C16_2 1_555 1_555
H14_2 C22_2 1_555 1_555
O19 C77_2 1_555 1_555
O22 C77_2 1_555 1_555
C77_2 C78_2 1_555 1_555
C78_2 C79_2 1_555 1_555
C79_2 C81_2 1_555 1_555
C80_2 C78_2 1_555 1_555
C81_2 C21_2 1_555 1_555
H48_2 C79_2 1_555 1_555
H49_2 C80_2 1_555 1_555
C82_2 C21_2 1_555 1_555
H50_2 C82_2 1_555 1_555
O21 C2_2 1_555 1_555
C22_2 C81_2 1_555 1_555
C80_2 C82_2 1_555 1_555

#END
