
###############################################################################
#
# This file contains modified crystal structure data generated from the
# MOF subset of the Cambridge Structural Database (CSD) v543 
# hosted by the Cambridge Crystallographic Data Centre (CCDC).
#
# This work is licensed under the Creative Commons
# Attribution-NonCommercial-ShareAlike 4.0 International License.
# To view a copy of this license, visit
# http://creativecommons.org/licenses/by-nc-sa/4.0/
# or send a letter to
# Creative Commons, PO Box 1866, Mountain View, CA 94042, USA.
#
# CIF created using the CSD Python API on 29 September 2022
# The structure has been converted into the P1 space group
# The structure has a 3D framework
# The original CSD entry FILTEC is in the monoclinic crystal system
# The framework has been calculated to contain at least 10.0% void space
# The void calculation uses a probe of radius 1.32A, grid spacing 0.4
#
###############################################################################

data_FILTEC
_chemical_formula_moiety         '(C562 H352 Cd14 N32 O64)n'
_symmetry_cell_setting           triclinic
_symmetry_space_group_name_H-M   'P 1'
_symmetry_Int_Tables_number      1
_space_group_name_Hall           'P 1'
loop_
_symmetry_equiv_pos_site_id
_symmetry_equiv_pos_as_xyz
1 x,y,z
_cell_length_a                   37.303(5)
_cell_length_b                   24.999(4)
_cell_length_c                   20.771(3)
_cell_angle_alpha                90
_cell_angle_beta                 93.068(5)
_cell_angle_gamma                90
_cell_volume                     19342
loop_
_atom_site_label
_atom_site_type_symbol
_atom_site_fract_x
_atom_site_fract_y
_atom_site_fract_z
Cd2 Cd 0.079952(8) 0.337712(12) 0.004359(13)
C98 C 0.60532(11) 0.01132(18) 0.0085(2)
C99 C 0.63318(12) 0.01615(18) 0.0572(2)
C100 C 0.66398(12) 0.04426(19) 0.0480(2)
H68 H 0.6820 0.0463 0.0807
C122 C 0.11140(13) 0.1399(2) 0.0309(2)
H79 H 0.1096 0.1616 0.0670
C123 C 0.11277(12) 0.08677(19) 0.0375(2)
H80 H 0.1122 0.0724 0.0787
Cd14 Cd 0.576828(8) 0.337716(12) 0.008320(13)
O18 O 0.05503(8) 0.40030(12) 0.06551(14)
O21 O 0.09635(8) 0.27614(13) 0.08299(14)
Cd1 Cd 0.591238(8) 0.091487(12) 0.709318(13)
Cd3 Cd 0.104779(8) 0.086624(12) 0.668489(13)
Cd4 Cd 0.076828(8) 0.162284(12) 0.508320(13)
O1 O 0.57573(8) 0.02685(12) 0.78335(13)
O2 O 0.60083(8) 0.10044(13) 0.82424(14)
O5 O 0.59006(9) 0.35009(14) 0.89547(15)
O6 O 0.56380(8) 0.27498(14) 0.92338(15)
O7 O 0.61346(8) 0.15438(12) 0.64384(13)
O8 O 0.59635(8) 0.22386(13) 0.58299(14)
O9 O 0.09379(8) 0.10097(13) 0.78239(14)
O10 O 0.12856(8) 0.03381(13) 0.75561(15)
O13 O 0.09185(8) 0.28572(12) 0.91641(14)
O14 O 0.05954(8) 0.35834(12) 0.89053(13)
O15 O 0.07238(8) 0.16282(12) 0.62715(14)
O16 O 0.05263(8) 0.23293(12) 0.57183(14)
N3 N 0.02322(9) 0.29531(16) 0.99993(17)
N5 N 0.15074(9) 0.55516(15) 0.71539(17)
N6 N 0.15493(9) 0.13840(15) 0.68606(17)
N7 N 0.54822(9) 0.54545(16) 0.66714(18)
N8 N 0.53734(9) 0.13559(16) 0.72542(18)
C34 C 0.02066(12) 0.2458(2) 0.9772(2)
H23 H 0.0415 0.2291 0.9649
C47 C 0.17951(12) 0.5800(2) 0.6957(2)
H33 H 0.1771 0.6143 0.6786
C48 C 0.21371(12) 0.55589(19) 0.7000(2)
H34 H 0.2335 0.5744 0.6864
C49 C 0.21768(11) 0.50559(18) 0.72387(19)
C50 C 0.18720(12) 0.48061(19) 0.7444(2)
H35 H 0.1888 0.4462 0.7612
C51 C 0.15516(12) 0.50583(19) 0.7401(2)
H36 H 0.1353 0.4882 0.7550
C52 C 0.25313(11) 0.47713(17) 0.7279(2)
C53 C 0.26180(11) 0.44184(18) 0.7782(2)
H37 H 0.2462 0.4381 0.8114
C54 C 0.27805(11) 0.48363(19) 0.6802(2)
H38 H 0.2735 0.5080 0.6470
C55 C 0.30937(11) 0.45386(18) 0.6825(2)
H39 H 0.3256 0.4588 0.6506
C56 C 0.31716(10) 0.41657(18) 0.7314(2)
C57 C 0.29353(11) 0.41197(19) 0.7796(2)
H40 H 0.2987 0.3887 0.8138
C58 C 0.34955(10) 0.38083(18) 0.7292(2)
C59 C 0.34676(10) 0.32717(18) 0.7362(2)
C60 C 0.31163(11) 0.29755(18) 0.7349(2)
C61 C 0.28485(12) 0.30806(18) 0.6882(2)
H41 H 0.2876 0.3364 0.6598
C62 C 0.25423(11) 0.2774(2) 0.6828(2)
H42 H 0.2369 0.2853 0.6504
C63 C 0.24856(11) 0.23604(19) 0.7230(2)
C64 C 0.27568(12) 0.2253(2) 0.7716(2)
H43 H 0.2728 0.1970 0.8000
C65 C 0.30609(11) 0.25614(18) 0.7774(2)
H44 H 0.3233 0.2491 0.8104
C66 C 0.21657(11) 0.20150(19) 0.7133(2)
C67 C 0.21708(14) 0.1469(2) 0.7235(3)
H45 H 0.2379 0.1302 0.7397
C68 C 0.18634(14) 0.1172(2) 0.7096(3)
H46 H 0.1873 0.0805 0.7167
C69 C 0.15457(12) 0.1903(2) 0.6776(2)
H47 H 0.1332 0.2059 0.6622
C70 C 0.18421(12) 0.22371(19) 0.6901(2)
H48 H 0.1823 0.2603 0.6829
C71 C 0.38427(10) 0.40871(17) 0.7178(2)
C72 C 0.39362(11) 0.45516(19) 0.7513(2)
H49 H 0.3782 0.4688 0.7810
C73 C 0.42534(11) 0.48152(18) 0.7413(2)
H50 H 0.4313 0.5120 0.7652
C74 C 0.44867(10) 0.46301(18) 0.6957(2)
C75 C 0.43839(11) 0.41747(17) 0.6604(2)
H51 H 0.4529 0.4051 0.6286
C76 C 0.40729(10) 0.39049(18) 0.6715(2)
H52 H 0.4014 0.3597 0.6481
C77 C 0.48314(11) 0.49181(18) 0.6843(2)
C78 C 0.48756(12) 0.5457(2) 0.6997(2)
H53 H 0.4688 0.5650 0.7163
C79 C 0.51982(12) 0.5700(2) 0.6901(2)
H54 H 0.5220 0.6061 0.7003
C80 C 0.54355(12) 0.4933(2) 0.6513(2)
H55 H 0.5625 0.4752 0.6338
C81 C 0.51287(12) 0.4665(2) 0.6596(3)
H56 H 0.5114 0.4304 0.6487
C82 C 0.37905(10) 0.29127(17) 0.7415(2)
C83 C 0.38009(11) 0.24728(18) 0.7022(2)
H57 H 0.3603 0.2393 0.6749
C84 C 0.41037(12) 0.21419(19) 0.7023(2)
H58 H 0.4107 0.1851 0.6745
C85 C 0.44017(11) 0.2248(2) 0.7442(2)
C86 C 0.43818(11) 0.26828(19) 0.7885(2)
H59 H 0.4571 0.2748 0.8185
C87 C 0.40801(11) 0.30065(19) 0.7866(2)
H60 H 0.4068 0.3289 0.8155
C88 C 0.47262(11) 0.1922(2) 0.7397(2)
C89 C 0.47904(14) 0.1628(3) 0.6884(3)
H61 H 0.4613 0.1612 0.6552
C90 C 0.51095(13) 0.1339(2) 0.6810(2)
H62 H 0.5134 0.1134 0.6441
C91 C 0.53191(12) 0.16368(18) 0.7792(2)
H63 H 0.5500 0.1641 0.8118
C92 C 0.50081(11) 0.1919(2) 0.7887(2)
H64 H 0.4983 0.2107 0.8268
C93 C 0.58647(11) 0.05441(19) 0.8304(2)
C94 C 0.58361(11) 0.03089(17) 0.8967(2)
C101 C 0.66818(11) 0.06982(18) 0.9893(2)
H69 H 0.6892 0.0888 0.9833
C102 C 0.64234(11) 0.06770(18) 0.9404(2)
H70 H 0.6457 0.0853 0.9018
C103 C 0.61004(11) 0.03838(17) 0.9486(2)
C105 C 0.57888(12) 0.3033(2) 0.8840(2)
C106 C 0.58530(11) 0.28011(19) 0.8178(2)
C107 C 0.56091(11) 0.29257(18) 0.7647(2)
C108 C 0.53020(11) 0.32581(18) 0.7717(2)
H71 H 0.5267 0.3420 0.8112
C109 C 0.50622(13) 0.33402(19) 0.7217(2)
H72 H 0.4862 0.3554 0.7272
C110 C 0.51119(13) 0.3108(2) 0.6620(2)
H73 H 0.4941 0.3164 0.6283
C111 C 0.54041(12) 0.28021(18) 0.6518(2)
H74 H 0.5435 0.2664 0.6109
C112 C 0.56659(12) 0.26891(18) 0.7028(2)
C113 C 0.59536(12) 0.2327(2) 0.6968(2)
C114 C 0.61868(12) 0.2214(2) 0.7515(2)
H75 H 0.6378 0.1980 0.7477
C115 C 0.61296(12) 0.2453(2) 0.8109(2)
H76 H 0.6283 0.2373 0.8464
C116 C 0.60236(11) 0.20159(18) 0.6371(2)
C117 C 0.11296(12) 0.06038(19) 0.7968(2)
C118 C 0.11642(12) 0.04126(18) 0.8657(2)
C119 C 0.11510(12) 0.07562(19) 0.9206(2)
C120 C 0.11403(12) 0.13183(19) 0.9168(2)
H77 H 0.1142 0.1478 0.8764
C121 C 0.11274(13) 0.1635(2) 0.9687(2)
H78 H 0.1127 0.2005 0.9640
C124 C 0.11509(11) 0.05094(18) 0.9842(2)
C129 C 0.07389(12) 0.31481(18) 0.8759(2)
C130 C 0.06970(11) 0.29300(18) 0.8082(2)
C131 C 0.06697(11) 0.23880(18) 0.8022(2)
H83 H 0.0672 0.2179 0.8392
C132 C 0.06384(11) 0.21365(18) 0.7419(2)
H84 H 0.0619 0.1766 0.7395
C133 C 0.06359(11) 0.24313(18) 0.6865(2)
C134 C 0.06659(11) 0.30129(18) 0.6896(2)
C135 C 0.06724(13) 0.33413(18) 0.6341(2)
H85 H 0.0649 0.3187 0.5933
C136 C 0.07125(13) 0.38784(19) 0.6400(2)
H86 H 0.0724 0.4086 0.6030
C137 C 0.07369(14) 0.41248(19) 0.6999(2)
H87 H 0.0755 0.4495 0.7026
C138 C 0.07343(13) 0.38308(18) 0.7543(2)
H88 H 0.0758 0.3998 0.7943
C139 C 0.06951(11) 0.32575(18) 0.7508(2)
C140 C 0.06240(11) 0.21196(18) 0.6246(2)
Cd6 Cd 0.091238(8) 0.591487(12) 0.709318(13)
Cd9 Cd 0.579952(8) 0.162288(12) 0.504359(13)
Cd11 Cd 0.604779(8) 0.586624(12) 0.668489(13)
O17 O 0.57540(8) 0.03365(12) 0.62928(14)
O19 O 0.09006(9) 0.14991(14) 0.39547(15)
O20 O 0.06380(8) 0.22502(14) 0.42338(15)
O22 O 0.12384(8) 0.01350(13) 0.60478(15)
O23 O 0.10645(8) 0.08490(12) 0.55002(15)
N9 N 0.13255(9) 0.20319(16) 0.51760(18)
N10 N 0.13335(9) 0.37927(15) 0.98623(17)
N11 N 0.02325(9) 0.11787(15) 0.49261(17)
N12 N 0.65074(9) 0.05516(15) 0.71539(17)
N13 N 0.04822(9) 0.04545(16) 0.66714(18)
O3 O 0.57540(8) 0.96635(12) 0.12928(14)
O4 O 0.55503(8) 0.90030(12) 0.06551(14)
O11 O 0.12384(8) 0.98650(13) 0.10478(15)
O12 O 0.10645(8) 0.91510(12) 0.05002(15)
C44 C 0.00144(12) 0.8823(2) 0.0400(2)
H30 H 0.0081 0.8638 0.0776
C97 C 0.57430(12) 0.97984(17) 0.0147(2)
H67 H 0.6305 0.9996 0.0967
C104 C 0.56844(12) 0.94710(19) 0.0753(2)
C128 C 0.11596(12) 0.9645(2) 0.0525(2)
Cd5 Cd 0.591238(8) 0.908513(12) 0.209318(13)
Cd8 Cd 0.579952(8) 0.837712(12) 0.004359(13)
Cd10 Cd 0.104779(8) 0.913376(12) 0.168489(13)
Cd12 Cd 0.076828(8) 0.837716(12) 0.008320(13)
N4 N 0.02325(9) 0.88213(15) 0.99261(17)
C45 C 0.01331(12) 0.9079(2) 0.9377(2)
H31 H 0.0288 0.9077 0.9040
C95 C 0.55416(11) 0.99910(19) 0.9043(2)
H65 H 0.5372 0.9945 0.8703
C96 C 0.54966(12) 0.97313(19) 0.9644(2)
H66 H 0.5298 0.9514 0.9694
C125 C 0.11645(12) 0.99429(18) 0.9889(2)
C126 C 0.11889(12) 0.96372(19) 0.9347(2)
H81 H 0.1201 0.9267 0.9386
C127 C 0.11957(13) 0.9868(2) 0.8735(2)
H82 H 0.1222 0.9652 0.8377
N1 N 0.63255(9) 0.29681(16) 0.01760(18)
C1 C 0.66355(13) 0.3228(2) 0.0088(3)
H1 H 0.6634 0.3599 0.0049
C2 C 0.69609(12) 0.2950(2) 0.0053(3)
C3 C 0.69700(11) 0.23843(18) 0.0110(2)
C4 C 0.66435(11) 0.21312(19) 0.0204(2)
H3 H 0.6636 0.1761 0.0248
C5 C 0.63311(13) 0.2427(2) 0.0232(2)
H4 H 0.6117 0.2248 0.0291
C6 C 0.73035(11) 0.20753(19) 0.0042(2)
C7 C 0.73637(11) 0.15994(17) 0.0374(2)
H5 H 0.7197 0.1482 0.0660
C8 C 0.76675(11) 0.12978(18) 0.0286(2)
H6 H 0.7700 0.0976 0.0508
C26 C 0.86675(11) 0.18508(19) 0.0297(2)
H17 H 0.8505 0.1886 0.0618
C27 C 0.89841(11) 0.21664(19) 0.0322(2)
H18 H 0.9031 0.2406 0.0659
C32 C 0.95999(12) 0.2933(2) 0.0128(2)
H21 H 0.9397 0.3108 0.0264
C33 C 0.99288(12) 0.3189(2) 0.0162(2)
H22 H 0.9939 0.3541 0.0306
C40 C 0.91592(11) -0.0000(2) 0.0279(2)
H27 H 0.9309 0.0001 0.0652
C41 C 0.88536(11) 0.03129(19) 0.0245(2)
H28 H 0.8805 0.0530 0.0594
C15 C 0.79451(11) 0.98049(18) 0.0004(2)
H9 H 0.8149 0.9708 0.0256
C16 C 0.76402(11) 0.94849(18) 0.0010(2)
H10 H 0.7639 0.9181 0.0268
C23 C 0.66171(12) 0.8742(2) 0.0292(2)
H15 H 0.6592 0.8517 0.0643
C24 C 0.69435(12) 0.90038(19) 0.0246(2)
H16 H 0.7123 0.8981 0.0573
C40_2 C 0.91592(11) 1.0000(2) 0.0279(2)
C43 C 0.96825(12) 0.9094(2) 0.0364(2)
H29 H 0.9535 0.9092 0.0711
N2 N 0.63335(9) 0.87927(15) 0.98623(17)
C17 C 0.73310(10) 0.96235(18) 0.9620(2)
C20 C 0.69920(11) 0.93147(18) 0.9668(2)
C21 C 0.67083(12) 0.93445(18) 0.9222(2)
H13 H 0.6730 0.9537 0.8843
C22 C 0.63894(12) 0.90869(17) 0.9336(2)
H14 H 0.6201 0.9120 0.9028
C37 C 0.86997(11) 0.9977(2) 0.9206(2)
H25 H 0.8542 0.9956 0.8845
C38 C 0.90078(12) 0.9674(2) 0.9223(2)
H26 H 0.9058 0.9460 0.8873
C39 C 0.92431(11) 0.96854(19) 0.9759(2)
C42 C 0.95832(11) 0.9361(2) 0.9808(2)
C46 C 0.98132(13) 0.9345(2) 0.9293(2)
H32 H 0.9749 0.9511 0.8904
O4_2 O 0.55503(8) 0.09970(12) 0.56551(14)
C44_2 C 0.00144(12) 0.1177(2) 0.5400(2)
H30_2 H 0.0081 0.1362 0.5776
C45_2 C 0.01331(12) 0.0921(2) 0.4377(2)
H31_2 H 0.0288 0.0923 0.4040
C95_2 C 0.55416(11) 0.00090(19) 0.4043(2)
H65_2 H 0.5372 0.0055 0.3703
C96_2 C 0.54966(12) 0.02687(19) 0.4644(2)
H66_2 H 0.5298 0.0486 0.4694
C97_2 C 0.57430(12) 0.02016(17) 0.5147(2)
H67_2 H 0.6305 0.0004 0.5967
C104_2 C 0.56844(12) 0.05290(19) 0.5753(2)
C125_2 C 0.11645(12) 0.00571(18) 0.4889(2)
C126_2 C 0.11889(12) 0.03628(19) 0.4347(2)
H81_2 H 0.1201 0.0733 0.4386
C127_2 C 0.11957(13) 0.0132(2) 0.3735(2)
H82_2 H 0.1222 0.0348 0.3377
C128_2 C 0.11596(12) 0.0355(2) 0.5525(2)
Cd2_2 Cd 0.079952(8) 0.662288(12) 0.504359(13)
O1_2 O 0.57573(8) 0.97315(12) 0.28335(13)
O2_2 O 0.60083(8) 0.89956(13) 0.32424(14)
O5_2 O 0.59006(9) 0.64991(14) 0.39547(15)
O6_2 O 0.56380(8) 0.72502(14) 0.42338(15)
O7_2 O 0.61346(8) 0.84562(12) 0.14384(13)
O8_2 O 0.59635(8) 0.77614(13) 0.08299(14)
O9_2 O 0.09379(8) 0.89903(13) 0.28239(14)
O10_2 O 0.12856(8) 0.96619(13) 0.25561(15)
O13_2 O 0.09185(8) 0.71428(12) 0.41641(14)
O14_2 O 0.05954(8) 0.64166(12) 0.39053(13)
O15_2 O 0.07238(8) 0.83718(12) 0.12715(14)
O16_2 O 0.05263(8) 0.76707(12) 0.07183(14)
N3_2 N 0.02322(9) 0.70469(16) 0.49993(17)
N5_2 N 0.15074(9) 0.44484(15) 0.21539(17)
N6_2 N 0.15493(9) 0.86160(15) 0.18606(17)
N7_2 N 0.54822(9) 0.45455(16) 0.16714(18)
N8_2 N 0.53734(9) 0.86441(16) 0.22542(18)
C34_2 C 0.02066(12) 0.7542(2) 0.4772(2)
H23_2 H 0.0415 0.7709 0.4649
C47_2 C 0.17951(12) 0.4200(2) 0.1957(2)
H33_2 H 0.1771 0.3857 0.1786
C48_2 C 0.21371(12) 0.44411(19) 0.2000(2)
H34_2 H 0.2335 0.4256 0.1864
C49_2 C 0.21768(11) 0.49441(18) 0.22387(19)
C50_2 C 0.18720(12) 0.51939(19) 0.2444(2)
H35_2 H 0.1888 0.5538 0.2612
C51_2 C 0.15516(12) 0.49417(19) 0.2401(2)
H36_2 H 0.1353 0.5118 0.2550
C52_2 C 0.25313(11) 0.52287(17) 0.2279(2)
C53_2 C 0.26180(11) 0.55816(18) 0.2782(2)
H37_2 H 0.2462 0.5619 0.3114
C54_2 C 0.27805(11) 0.51637(19) 0.1802(2)
H38_2 H 0.2735 0.4920 0.1470
C55_2 C 0.30937(11) 0.54614(18) 0.1825(2)
H39_2 H 0.3256 0.5412 0.1506
C56_2 C 0.31716(10) 0.58343(18) 0.2314(2)
C57_2 C 0.29353(11) 0.58803(19) 0.2796(2)
H40_2 H 0.2987 0.6113 0.3138
C58_2 C 0.34955(10) 0.61917(18) 0.2292(2)
C59_2 C 0.34676(10) 0.67283(18) 0.2362(2)
C60_2 C 0.31163(11) 0.70245(18) 0.2349(2)
C61_2 C 0.28485(12) 0.69194(18) 0.1882(2)
H41_2 H 0.2876 0.6636 0.1598
C62_2 C 0.25423(11) 0.7226(2) 0.1828(2)
H42_2 H 0.2369 0.7147 0.1504
C63_2 C 0.24856(11) 0.76396(19) 0.2230(2)
C64_2 C 0.27568(12) 0.7747(2) 0.2716(2)
H43_2 H 0.2728 0.8030 0.3000
C65_2 C 0.30609(11) 0.74386(18) 0.2774(2)
H44_2 H 0.3233 0.7509 0.3104
C66_2 C 0.21657(11) 0.79850(19) 0.2133(2)
C67_2 C 0.21708(14) 0.8531(2) 0.2235(3)
H45_2 H 0.2379 0.8698 0.2397
C68_2 C 0.18634(14) 0.8828(2) 0.2096(3)
H46_2 H 0.1873 0.9195 0.2167
C69_2 C 0.15457(12) 0.8097(2) 0.1776(2)
H47_2 H 0.1332 0.7941 0.1622
C70_2 C 0.18421(12) 0.77629(19) 0.1901(2)
H48_2 H 0.1823 0.7397 0.1829
C71_2 C 0.38427(10) 0.59129(17) 0.2178(2)
C72_2 C 0.39362(11) 0.54484(19) 0.2513(2)
H49_2 H 0.3782 0.5312 0.2810
C73_2 C 0.42534(11) 0.51848(18) 0.2413(2)
H50_2 H 0.4313 0.4880 0.2652
C74_2 C 0.44867(10) 0.53699(18) 0.1957(2)
C75_2 C 0.43839(11) 0.58253(17) 0.1604(2)
H51_2 H 0.4529 0.5949 0.1286
C76_2 C 0.40729(10) 0.60951(18) 0.1715(2)
H52_2 H 0.4014 0.6403 0.1481
C77_2 C 0.48314(11) 0.50819(18) 0.1843(2)
C78_2 C 0.48756(12) 0.4543(2) 0.1997(2)
H53_2 H 0.4688 0.4350 0.2163
C79_2 C 0.51982(12) 0.4300(2) 0.1901(2)
H54_2 H 0.5220 0.3939 0.2003
C80_2 C 0.54355(12) 0.5067(2) 0.1513(2)
H55_2 H 0.5625 0.5248 0.1338
C81_2 C 0.51287(12) 0.5335(2) 0.1596(3)
H56_2 H 0.5114 0.5696 0.1487
C82_2 C 0.37905(10) 0.70873(17) 0.2415(2)
C83_2 C 0.38009(11) 0.75272(18) 0.2022(2)
H57_2 H 0.3603 0.7607 0.1749
C84_2 C 0.41037(12) 0.78581(19) 0.2023(2)
H58_2 H 0.4107 0.8149 0.1745
C85_2 C 0.44017(11) 0.7752(2) 0.2442(2)
C86_2 C 0.43818(11) 0.73172(19) 0.2885(2)
H59_2 H 0.4571 0.7252 0.3185
C87_2 C 0.40801(11) 0.69935(19) 0.2866(2)
H60_2 H 0.4068 0.6711 0.3155
C88_2 C 0.47262(11) 0.8078(2) 0.2397(2)
C89_2 C 0.47904(14) 0.8372(3) 0.1884(3)
H61_2 H 0.4613 0.8388 0.1552
C90_2 C 0.51095(13) 0.8661(2) 0.1810(2)
H62_2 H 0.5134 0.8866 0.1441
C91_2 C 0.53191(12) 0.83632(18) 0.2792(2)
H63_2 H 0.5500 0.8359 0.3118
C92_2 C 0.50081(11) 0.8081(2) 0.2887(2)
H64_2 H 0.4983 0.7893 0.3268
C93_2 C 0.58647(11) 0.94559(19) 0.3304(2)
C94_2 C 0.58361(11) 0.96911(17) 0.3967(2)
C98_2 C 0.60532(11) 0.98868(18) 0.5085(2)
C99_2 C 0.63318(12) 0.98385(18) 0.5572(2)
C100_2 C 0.66398(12) 0.95574(19) 0.5480(2)
H68_2 H 0.6820 0.9537 0.5807
C101_2 C 0.66818(11) 0.93018(18) 0.4893(2)
H69_2 H 0.6892 0.9112 0.4833
C102_2 C 0.64234(11) 0.93230(18) 0.4404(2)
H70_2 H 0.6457 0.9147 0.4018
C103_2 C 0.61004(11) 0.96162(17) 0.4486(2)
C105_2 C 0.57888(12) 0.6967(2) 0.3840(2)
C106_2 C 0.58530(11) 0.71989(19) 0.3178(2)
C107_2 C 0.56091(11) 0.70743(18) 0.2647(2)
C108_2 C 0.53020(11) 0.67419(18) 0.2717(2)
H71_2 H 0.5267 0.6580 0.3112
C109_2 C 0.50622(13) 0.66598(19) 0.2217(2)
H72_2 H 0.4862 0.6446 0.2272
C110_2 C 0.51119(13) 0.6892(2) 0.1620(2)
H73_2 H 0.4941 0.6836 0.1283
C111_2 C 0.54041(12) 0.71979(18) 0.1518(2)
H74_2 H 0.5435 0.7336 0.1109
C112_2 C 0.56659(12) 0.73109(18) 0.2028(2)
C113_2 C 0.59536(12) 0.7673(2) 0.1968(2)
C114_2 C 0.61868(12) 0.7786(2) 0.2515(2)
H75_2 H 0.6378 0.8020 0.2477
C115_2 C 0.61296(12) 0.7547(2) 0.3109(2)
H76_2 H 0.6283 0.7627 0.3464
C116_2 C 0.60236(11) 0.79841(18) 0.1371(2)
C117_2 C 0.11296(12) 0.93962(19) 0.2968(2)
C118_2 C 0.11642(12) 0.95874(18) 0.3657(2)
C119_2 C 0.11510(12) 0.92438(19) 0.4206(2)
C120_2 C 0.11403(12) 0.86817(19) 0.4168(2)
H77_2 H 0.1142 0.8522 0.3764
C121_2 C 0.11274(13) 0.8365(2) 0.4687(2)
H78_2 H 0.1127 0.7995 0.4640
C122_2 C 0.11140(13) 0.8601(2) 0.5309(2)
H79_2 H 0.1096 0.8384 0.5670
C123_2 C 0.11277(12) 0.91323(19) 0.5375(2)
H80_2 H 0.1122 0.9276 0.5787
C124_2 C 0.11509(11) 0.94906(18) 0.4842(2)
C129_2 C 0.07389(12) 0.68519(18) 0.3759(2)
C130_2 C 0.06970(11) 0.70700(18) 0.3082(2)
C131_2 C 0.06697(11) 0.76120(18) 0.3022(2)
H83_2 H 0.0672 0.7821 0.3392
C132_2 C 0.06384(11) 0.78635(18) 0.2419(2)
H84_2 H 0.0619 0.8234 0.2395
C133_2 C 0.06359(11) 0.75687(18) 0.1865(2)
C134_2 C 0.06659(11) 0.69871(18) 0.1896(2)
C135_2 C 0.06724(13) 0.66587(18) 0.1341(2)
H85_2 H 0.0649 0.6813 0.0933
C136_2 C 0.07125(13) 0.61216(19) 0.1400(2)
H86_2 H 0.0724 0.5914 0.1030
C137_2 C 0.07369(14) 0.58752(19) 0.1999(2)
H87_2 H 0.0755 0.5505 0.2026
C138_2 C 0.07343(13) 0.61692(18) 0.2543(2)
H88_2 H 0.0758 0.6002 0.2943
C139_2 C 0.06951(11) 0.67425(18) 0.2508(2)
C140_2 C 0.06240(11) 0.78804(18) 0.1246(2)
Cd6_2 Cd 0.091238(8) 0.408513(12) 0.209318(13)
Cd11_2 Cd 0.604779(8) 0.413376(12) 0.168489(13)
Cd14_2 Cd 0.576828(8) 0.662284(12) 0.508320(13)
O18_2 O 0.05503(8) 0.59970(12) 0.56551(14)
O21_2 O 0.09635(8) 0.72386(13) 0.58299(14)
N9_2 N 0.13255(9) 0.79681(16) 0.01760(18)
N10_2 N 0.13335(9) 0.62073(15) 0.48623(17)
N12_2 N 0.65074(9) 0.94484(15) 0.21539(17)
N13_2 N 0.04822(9) 0.95455(16) 0.16714(18)
O19_2 O 0.09006(9) 0.85009(14) 0.89547(15)
O20_2 O 0.06380(8) 0.77498(14) 0.92338(15)
N2_2 N 0.63335(9) 0.12073(15) 0.48623(17)
C15_2 C 0.79451(11) 0.01951(18) 0.5004(2)
H9_2 H 0.8149 0.0292 0.5256
C16_2 C 0.76402(11) 0.05151(18) 0.5010(2)
H10_2 H 0.7639 0.0819 0.5268
C17_2 C 0.73310(10) 0.03765(18) 0.4620(2)
C20_2 C 0.69920(11) 0.06853(18) 0.4668(2)
C21_2 C 0.67083(12) 0.06555(18) 0.4222(2)
H13_2 H 0.6730 0.0463 0.3843
C22_2 C 0.63894(12) 0.09131(17) 0.4336(2)
H14_2 H 0.6201 0.0880 0.4028
C23_2 C 0.66171(12) 0.1258(2) 0.5292(2)
H15_2 H 0.6592 0.1483 0.5643
C24_2 C 0.69435(12) 0.09962(19) 0.5246(2)
H16_2 H 0.7123 0.1019 0.5573
C37_2 C 0.86997(11) 0.0023(2) 0.4206(2)
H25_2 H 0.8542 0.0044 0.3845
C38_2 C 0.90078(12) 0.0326(2) 0.4223(2)
H26_2 H 0.9058 0.0540 0.3873
C39_2 C 0.92431(11) 0.03146(19) 0.4759(2)
C40_3 C 0.91592(11) 0.0000(2) 0.5279(2)
C42_2 C 0.95832(11) 0.0639(2) 0.4808(2)
C43_2 C 0.96825(12) 0.0906(2) 0.5364(2)
H29_2 H 0.9535 0.0908 0.5711
C46_2 C 0.98132(13) 0.0655(2) 0.4293(2)
H32_2 H 0.9749 0.0489 0.3904
N1_2 N 0.63255(9) 0.70319(16) 0.51760(18)
C1_2 C 0.66355(13) 0.6772(2) 0.5088(3)
H1_2 H 0.6634 0.6401 0.5049
C2_2 C 0.69609(12) 0.7050(2) 0.5053(3)
H2 H 0.7172 0.6862 0.4992
C3_2 C 0.69700(11) 0.76157(18) 0.5110(2)
C4_2 C 0.66435(11) 0.78688(19) 0.5204(2)
H3_2 H 0.6636 0.8239 0.5248
C5_2 C 0.63311(13) 0.7573(2) 0.5232(2)
H4_2 H 0.6117 0.7752 0.5291
C6_2 C 0.73035(11) 0.79247(19) 0.5042(2)
C7_2 C 0.73637(11) 0.84006(17) 0.5374(2)
H5_2 H 0.7197 0.8518 0.5660
C8_2 C 0.76675(11) 0.87022(18) 0.5286(2)
H6_2 H 0.7700 0.9024 0.5508
C9 C 0.79269(11) 0.85333(18) 0.4872(2)
C10 C 0.78742(11) 0.80468(19) 0.4563(2)
H7 H 0.8048 0.7920 0.4296
C11 C 0.75683(12) 0.7744(2) 0.4645(2)
H8 H 0.7539 0.7418 0.4432
C12 C 0.82654(10) 0.88447(18) 0.4771(2)
C13 C 0.82753(11) 0.93895(18) 0.4695(2)
C14 C 0.79519(11) 0.97331(17) 0.4631(2)
C18 C 0.73522(10) 0.99462(17) 0.4215(2)
H11 H 0.7157 0.9868 0.3933
C19 C 0.76578(11) 0.96183(19) 0.4208(2)
H12 H 0.7664 0.9329 0.3927
C25 C 0.85985(10) 0.85094(18) 0.4800(2)
C26_2 C 0.86675(11) 0.81492(19) 0.5297(2)
H17_2 H 0.8505 0.8114 0.5618
C27_2 C 0.89841(11) 0.78336(19) 0.5322(2)
H18_2 H 0.9031 0.7594 0.5659
C28 C 0.92198(11) 0.78874(18) 0.4843(2)
C29 C 0.91466(11) 0.82274(19) 0.4335(2)
H19 H 0.9307 0.8250 0.4008
C30 C 0.88363(11) 0.8542(2) 0.4300(2)
H20 H 0.8788 0.8768 0.3951
C31 C 0.95724(11) 0.75847(19) 0.4889(2)
C32_2 C 0.95999(12) 0.7067(2) 0.5128(2)
H21_2 H 0.9397 0.6892 0.5264
C33_2 C 0.99288(12) 0.6811(2) 0.5162(2)
H22_2 H 0.9939 0.6459 0.5306
C35 C 0.98843(12) 0.7827(2) 0.4707(2)
H24 H 0.9880 0.8173 0.4543
C36 C 0.86168(10) 0.96866(18) 0.4706(2)
C40_4 C 0.91592(11) 1.0000(2) 0.5279(2)
H27_2 H 0.9309 0.9999 0.5652
C41_2 C 0.88536(11) 0.96871(19) 0.5245(2)
H28_2 H 0.8805 0.9470 0.5594
C79_3 C 0.01982(12) 0.0700(2) 0.6901(2)
H54_3 H 0.0220 0.1061 0.7003
O3_2 O 0.07540(8) 0.46635(12) 0.12928(14)
C97_3 C 0.07430(12) 0.47984(17) 0.0147(2)
C98_3 C 0.10532(11) 0.51132(18) 0.0085(2)
C99_3 C 0.13318(12) 0.51615(18) 0.0572(2)
H67_3 H 0.1305 0.4996 0.0967
C100_3 C 0.16398(12) 0.54426(19) 0.0480(2)
H68_3 H 0.1820 0.5463 0.0807
C104_3 C 0.06844(12) 0.44710(19) 0.0753(2)
O1_3 O 0.07573(8) 0.52685(12) 0.78335(13)
O2_3 O 0.10083(8) 0.60044(13) 0.82424(14)
O7_3 O 0.11346(8) 0.65438(12) 0.64384(13)
N8_3 N 0.03734(9) 0.63559(16) 0.72542(18)
C80_3 C 0.04355(12) 0.9933(2) 0.6513(2)
H55_3 H 0.0625 0.9752 0.6338
C81_3 C 0.01287(12) 0.9665(2) 0.6596(3)
H56_3 H 0.0114 0.9304 0.6487
C90_3 C 0.01095(13) 0.6339(2) 0.6810(2)
H62_3 H 0.0134 0.6134 0.6441
C91_3 C 0.03191(12) 0.66368(18) 0.7792(2)
H63_3 H 0.0500 0.6641 0.8118
C92_3 C 0.00081(11) 0.6919(2) 0.7887(2)
C93_3 C 0.08647(11) 0.55441(19) 0.8304(2)
C94_3 C 0.08361(11) 0.53089(17) 0.8967(2)
C95_3 C 0.05416(11) 0.49910(19) 0.9043(2)
H65_3 H 0.0372 0.4945 0.8703
C96_3 C 0.04966(12) 0.47313(19) 0.9644(2)
H66_3 H 0.0298 0.4514 0.9694
C101_3 C 0.16818(11) 0.56982(18) 0.9893(2)
H69_3 H 0.1892 0.5888 0.9833
C102_3 C 0.14234(11) 0.56770(18) 0.9404(2)
H70_3 H 0.1457 0.5853 0.9018
C103_3 C 0.11004(11) 0.53838(17) 0.9486(2)
C105_3 C 0.07888(12) 0.8033(2) 0.8840(2)
C106_3 C 0.08530(11) 0.78011(19) 0.8178(2)
C107_3 C 0.06091(11) 0.79257(18) 0.7647(2)
C108_3 C 0.03020(11) 0.82581(18) 0.7717(2)
H71_3 H 0.0267 0.8420 0.8112
C109_3 C 0.00622(13) 0.83402(19) 0.7217(2)
C110_3 C 0.01119(13) 0.8108(2) 0.6620(2)
C111_3 C 0.04041(12) 0.78021(18) 0.6518(2)
H74_3 H 0.0435 0.7664 0.6109
C112_3 C 0.06659(12) 0.76891(18) 0.7028(2)
C113_3 C 0.09536(12) 0.7327(2) 0.6968(2)
C114_3 C 0.11868(12) 0.7214(2) 0.7515(2)
H75_3 H 0.1378 0.6980 0.7477
C115_3 C 0.11296(12) 0.7453(2) 0.8109(2)
H76_3 H 0.1283 0.7373 0.8464
C116_3 C 0.10236(11) 0.70159(18) 0.6371(2)
O17_2 O 0.07540(8) 0.53365(12) 0.62928(14)
C47_3 C 0.67951(12) 0.0800(2) 0.6957(2)
H33_3 H 0.6771 0.1143 0.6786
C48_3 C 0.71371(12) 0.05589(19) 0.7000(2)
H34_3 H 0.7335 0.0744 0.6864
C49_3 C 0.71768(11) 0.00559(18) 0.72387(19)
C51_3 C 0.65516(12) 0.00583(19) 0.7401(2)
H38_3 H 0.7735 0.0080 0.6470
H50_3 H 0.9313 0.0120 0.7652
C78_3 C 0.98756(12) 0.0457(2) 0.6997(2)
H53_3 H 0.9688 0.0650 0.7163
O11_2 O 0.62384(8) 0.48650(13) 0.10478(15)
O12_2 O 0.60645(8) 0.41510(12) 0.05002(15)
C1_3 C 0.16355(13) 0.8228(2) 0.0088(3)
H1_3 H 0.1634 0.8599 0.0049
C2_3 C 0.19609(12) 0.7950(2) 0.0053(3)
C3_3 C 0.19700(11) 0.73843(18) 0.0110(2)
C4_3 C 0.16435(11) 0.71312(19) 0.0204(2)
H3_3 H 0.1636 0.6761 0.0248
C5_3 C 0.13311(13) 0.7427(2) 0.0232(2)
H4_3 H 0.1117 0.7248 0.0291
C6_3 C 0.23035(11) 0.70753(19) 0.0042(2)
C7_3 C 0.23637(11) 0.65994(17) 0.0374(2)
H5_3 H 0.2197 0.6482 0.0660
C8_3 C 0.26675(11) 0.62978(18) 0.0286(2)
H6_3 H 0.2700 0.5976 0.0508
C15_3 C 0.29451(11) 0.48049(18) 0.0004(2)
H9_3 H 0.3149 0.4708 0.0256
C16_3 C 0.26402(11) 0.44849(18) 0.0010(2)
H10_3 H 0.2639 0.4181 0.0268
C23_3 C 0.16171(12) 0.3742(2) 0.0292(2)
H15_3 H 0.1592 0.3517 0.0643
C24_3 C 0.19435(12) 0.40038(19) 0.0246(2)
H16_3 H 0.2123 0.3981 0.0573
C26_3 C 0.36675(11) 0.68508(19) 0.0297(2)
H17_3 H 0.3505 0.6886 0.0618
C27_3 C 0.39841(11) 0.71664(19) 0.0322(2)
H18_3 H 0.4031 0.7406 0.0659
C32_3 C 0.45999(12) 0.7933(2) 0.0128(2)
H21_3 H 0.4397 0.8108 0.0264
C33_3 C 0.49288(12) 0.8189(2) 0.0162(2)
H22_3 H 0.4939 0.8541 0.0306
C40_5 C 0.41592(11) 0.5000(2) 0.0279(2)
H27_3 H 0.4309 0.5001 0.0652
C41_3 C 0.38536(11) 0.53129(19) 0.0245(2)
H28_3 H 0.3805 0.5530 0.0594
C43_3 C 0.46825(12) 0.4094(2) 0.0364(2)
H29_3 H 0.4535 0.4092 0.0711
C44_3 C 0.50144(12) 0.3823(2) 0.0400(2)
H30_3 H 0.5081 0.3638 0.0776
C122_3 C 0.61140(13) 0.6399(2) 0.0309(2)
H79_3 H 0.6096 0.6616 0.0670
C123_3 C 0.61277(12) 0.58677(19) 0.0375(2)
H80_3 H 0.6122 0.5724 0.0787
C128_3 C 0.61596(12) 0.4645(2) 0.0525(2)
O9_3 O 0.59379(8) 0.60097(13) 0.78239(14)
O10_3 O 0.62856(8) 0.53381(13) 0.75561(15)
O13_3 O 0.59185(8) 0.78572(12) 0.91641(14)
O14_3 O 0.55954(8) 0.85834(12) 0.89053(13)
O15_3 O 0.57238(8) 0.66282(12) 0.62715(14)
O16_3 O 0.55263(8) 0.73293(12) 0.57183(14)
N3_3 N 0.52322(9) 0.79531(16) 0.99993(17)
N4_2 N 0.52325(9) 0.38213(15) 0.99261(17)
N6_3 N 0.65493(9) 0.63840(15) 0.68606(17)
H2_2 H 0.2172 0.8138 0.9992
C9_2 C 0.29269(11) 0.64667(18) 0.9872(2)
C10_2 C 0.28742(11) 0.69532(19) 0.9563(2)
H7_2 H 0.3048 0.7080 0.9296
C11_2 C 0.25683(12) 0.7256(2) 0.9645(2)
H8_2 H 0.2539 0.7582 0.9432
C12_2 C 0.32654(10) 0.61553(18) 0.9771(2)
C13_2 C 0.32753(11) 0.56105(18) 0.9695(2)
C14_2 C 0.29519(11) 0.52669(17) 0.9631(2)
C17_3 C 0.23310(10) 0.46235(18) 0.9620(2)
C18_2 C 0.23522(10) 0.50538(17) 0.9215(2)
H11_2 H 0.2157 0.5132 0.8933
C19_2 C 0.26578(11) 0.53817(19) 0.9208(2)
H12_2 H 0.2664 0.5671 0.8927
C20_3 C 0.19920(11) 0.43147(18) 0.9668(2)
C21_3 C 0.17083(12) 0.43445(18) 0.9222(2)
H13_3 H 0.1730 0.4537 0.8843
C22_3 C 0.13894(12) 0.40869(17) 0.9336(2)
H14_3 H 0.1201 0.4120 0.9028
C25_2 C 0.35985(10) 0.64906(18) 0.9800(2)
C28_2 C 0.42198(11) 0.71126(18) 0.9843(2)
C29_2 C 0.41466(11) 0.67726(19) 0.9335(2)
H19_2 H 0.4307 0.6750 0.9008
C30_2 C 0.38363(11) 0.6458(2) 0.9300(2)
H20_2 H 0.3788 0.6232 0.8951
C31_2 C 0.45724(11) 0.74153(19) 0.9889(2)
C34_3 C 0.52066(12) 0.7458(2) 0.9772(2)
H23_3 H 0.5415 0.7291 0.9649
C35_2 C 0.48843(12) 0.7173(2) 0.9707(2)
H24_2 H 0.4880 0.6827 0.9543
C36_2 C 0.36168(10) 0.53134(18) 0.9706(2)
C37_3 C 0.36997(11) 0.4977(2) 0.9206(2)
H25_3 H 0.3542 0.4956 0.8845
C38_3 C 0.40078(12) 0.4674(2) 0.9223(2)
H26_3 H 0.4058 0.4460 0.8873
C39_3 C 0.42431(11) 0.46854(19) 0.9759(2)
C42_3 C 0.45832(11) 0.4361(2) 0.9808(2)
C45_3 C 0.51331(12) 0.4079(2) 0.9377(2)
H31_3 H 0.5288 0.4077 0.9040
C46_3 C 0.48132(13) 0.4345(2) 0.9293(2)
H32_3 H 0.4749 0.4511 0.8904
C50_3 C 0.68720(12) 0.98061(19) 0.7444(2)
H35_3 H 0.6888 0.9462 0.7612
H36_3 H 0.6353 0.9882 0.7550
C52_3 C 0.75313(11) 0.97713(17) 0.7279(2)
C53_3 C 0.76180(11) 0.94184(18) 0.7782(2)
H37_3 H 0.7462 0.9381 0.8114
C54_3 C 0.77805(11) 0.98363(19) 0.6802(2)
C55_3 C 0.80937(11) 0.95386(18) 0.6825(2)
H39_3 H 0.8256 0.9588 0.6506
C56_3 C 0.81716(10) 0.91657(18) 0.7314(2)
C57_3 C 0.79353(11) 0.91197(19) 0.7796(2)
H40_3 H 0.7987 0.8887 0.8138
C58_3 C 0.84955(10) 0.88083(18) 0.7292(2)
C59_3 C 0.84676(10) 0.82717(18) 0.7362(2)
C60_3 C 0.81163(11) 0.79755(18) 0.7349(2)
C61_3 C 0.78485(12) 0.80806(18) 0.6882(2)
H41_3 H 0.7876 0.8364 0.6598
C62_3 C 0.75423(11) 0.7774(2) 0.6828(2)
H42_3 H 0.7369 0.7853 0.6504
C63_3 C 0.74856(11) 0.73604(19) 0.7230(2)
C64_3 C 0.77568(12) 0.7253(2) 0.7716(2)
H43_3 H 0.7728 0.6970 0.8000
C65_3 C 0.80609(11) 0.75614(18) 0.7774(2)
H44_3 H 0.8233 0.7491 0.8104
C66_3 C 0.71657(11) 0.70150(19) 0.7133(2)
C67_3 C 0.71708(14) 0.6469(2) 0.7235(3)
H45_3 H 0.7379 0.6302 0.7397
C68_3 C 0.68634(14) 0.6172(2) 0.7096(3)
H46_3 H 0.6873 0.5805 0.7167
C69_3 C 0.65457(12) 0.6903(2) 0.6776(2)
H47_3 H 0.6332 0.7059 0.6622
C70_3 C 0.68421(12) 0.72371(19) 0.6901(2)
H48_3 H 0.6823 0.7603 0.6829
C71_3 C 0.88427(10) 0.90871(17) 0.7178(2)
C72_3 C 0.89362(11) 0.95516(19) 0.7513(2)
H49_3 H 0.8782 0.9688 0.7810
C73_3 C 0.92534(11) 0.98152(18) 0.7413(2)
C74_3 C 0.94867(10) 0.96301(18) 0.6957(2)
C75_3 C 0.93839(11) 0.91747(17) 0.6604(2)
H51_3 H 0.9529 0.9051 0.6286
C76_3 C 0.90729(10) 0.89049(18) 0.6715(2)
H52_3 H 0.9014 0.8597 0.6481
C77_3 C 0.98314(11) 0.99181(18) 0.6843(2)
C82_3 C 0.87905(10) 0.79127(17) 0.7415(2)
C83_3 C 0.88009(11) 0.74728(18) 0.7022(2)
H57_3 H 0.8603 0.7393 0.6749
C84_3 C 0.91037(12) 0.71419(19) 0.7023(2)
H58_3 H 0.9107 0.6851 0.6745
C85_3 C 0.94017(11) 0.7248(2) 0.7442(2)
C86_3 C 0.93818(11) 0.76828(19) 0.7885(2)
H59_3 H 0.9571 0.7748 0.8185
C87_3 C 0.90801(11) 0.80065(19) 0.7866(2)
H60_3 H 0.9068 0.8289 0.8155
C88_3 C 0.97262(11) 0.6922(2) 0.7397(2)
C89_3 C 0.97904(14) 0.6628(3) 0.6884(3)
H61_3 H 0.9613 0.6612 0.6552
H64_3 H 0.9983 0.7107 0.8268
H72_3 H 0.9862 0.8554 0.7272
H73_3 H 0.9941 0.8164 0.6283
C117_3 C 0.61296(12) 0.56038(19) 0.7968(2)
C118_3 C 0.61642(12) 0.54126(18) 0.8657(2)
C119_3 C 0.61510(12) 0.57562(19) 0.9206(2)
C120_3 C 0.61403(12) 0.63183(19) 0.9168(2)
H77_3 H 0.6142 0.6478 0.8764
C121_3 C 0.61274(13) 0.6635(2) 0.9687(2)
H78_3 H 0.6127 0.7005 0.9640
C124_3 C 0.61509(11) 0.55094(18) 0.9842(2)
C125_3 C 0.61645(12) 0.49429(18) 0.9889(2)
C126_3 C 0.61889(12) 0.46372(19) 0.9347(2)
H81_3 H 0.6201 0.4267 0.9386
C127_3 C 0.61957(13) 0.4868(2) 0.8735(2)
H82_3 H 0.6222 0.4652 0.8377
C129_3 C 0.57389(12) 0.81481(18) 0.8759(2)
C130_3 C 0.56970(11) 0.79300(18) 0.8082(2)
C131_3 C 0.56697(11) 0.73880(18) 0.8022(2)
H83_3 H 0.5672 0.7179 0.8392
C132_3 C 0.56384(11) 0.71365(18) 0.7419(2)
H84_3 H 0.5619 0.6766 0.7395
C133_3 C 0.56359(11) 0.74313(18) 0.6865(2)
C134_3 C 0.56659(11) 0.80129(18) 0.6896(2)
C135_3 C 0.56724(13) 0.83413(18) 0.6341(2)
H85_3 H 0.5649 0.8187 0.5933
C136_3 C 0.57125(13) 0.88784(19) 0.6400(2)
H86_3 H 0.5724 0.9086 0.6030
C137_3 C 0.57369(14) 0.91248(19) 0.6999(2)
H87_3 H 0.5755 0.9495 0.7026
C138_3 C 0.57343(13) 0.88308(18) 0.7543(2)
H88_3 H 0.5758 0.8998 0.7943
C139_3 C 0.56951(11) 0.82575(18) 0.7508(2)
C140_3 C 0.56240(11) 0.71196(18) 0.6246(2)
O22_2 O 0.62384(8) 0.51350(13) 0.60478(15)
O23_2 O 0.60645(8) 0.58490(12) 0.55002(15)
N11_2 N 0.52325(9) 0.61787(15) 0.49261(17)
O1_4 O 0.07573(8) 0.47315(12) 0.28335(13)
O2_4 O 0.10083(8) 0.39956(13) 0.32424(14)
O7_4 O 0.11346(8) 0.34562(12) 0.14384(13)
N8_4 N 0.03734(9) 0.36441(16) 0.22542(18)
C80_4 C 0.04355(12) 0.0067(2) 0.1513(2)
H55_4 H 0.0625 0.0248 0.1338
C81_4 C 0.01287(12) 0.0335(2) 0.1596(3)
H56_4 H 0.0114 0.0696 0.1487
C90_4 C 0.01095(13) 0.3661(2) 0.1810(2)
H62_4 H 0.0134 0.3866 0.1441
C91_4 C 0.03191(12) 0.33632(18) 0.2792(2)
H63_4 H 0.0500 0.3359 0.3118
C92_4 C 0.00081(11) 0.3081(2) 0.2887(2)
C93_4 C 0.08647(11) 0.44559(19) 0.3304(2)
C94_4 C 0.08361(11) 0.46911(17) 0.3967(2)
C95_4 C 0.05416(11) 0.50090(19) 0.4043(2)
H65_4 H 0.0372 0.5055 0.3703
C96_4 C 0.04966(12) 0.52687(19) 0.4644(2)
H66_4 H 0.0298 0.5486 0.4694
C97_4 C 0.07430(12) 0.52016(17) 0.5147(2)
C98_4 C 0.10532(11) 0.48868(18) 0.5085(2)
C99_4 C 0.13318(12) 0.48385(18) 0.5572(2)
H67_4 H 0.1305 0.5004 0.5967
C100_4 C 0.16398(12) 0.45574(19) 0.5480(2)
H68_4 H 0.1820 0.4537 0.5807
C101_4 C 0.16818(11) 0.43018(18) 0.4893(2)
H69_4 H 0.1892 0.4112 0.4833
C102_4 C 0.14234(11) 0.43230(18) 0.4404(2)
H70_4 H 0.1457 0.4147 0.4018
C103_4 C 0.11004(11) 0.46162(17) 0.4486(2)
C104_4 C 0.06844(12) 0.55290(19) 0.5753(2)
C105_4 C 0.07888(12) 0.1967(2) 0.3840(2)
C106_4 C 0.08530(11) 0.21989(19) 0.3178(2)
C107_4 C 0.06091(11) 0.20743(18) 0.2647(2)
C108_4 C 0.03020(11) 0.17419(18) 0.2717(2)
H71_4 H 0.0267 0.1580 0.3112
C109_4 C 0.00622(13) 0.16598(19) 0.2217(2)
C110_4 C 0.01119(13) 0.1892(2) 0.1620(2)
C111_4 C 0.04041(12) 0.21979(18) 0.1518(2)
H74_4 H 0.0435 0.2336 0.1109
C112_4 C 0.06659(12) 0.23109(18) 0.2028(2)
C113_4 C 0.09536(12) 0.2673(2) 0.1968(2)
C114_4 C 0.11868(12) 0.2786(2) 0.2515(2)
H75_4 H 0.1378 0.3020 0.2477
C115_4 C 0.11296(12) 0.2547(2) 0.3109(2)
H76_4 H 0.1283 0.2627 0.3464
C116_4 C 0.10236(11) 0.29841(18) 0.1371(2)
C79_4 C 0.01982(12) 0.9300(2) 0.1901(2)
H54_4 H 0.0220 0.8939 0.2003
O9_4 O 0.59379(8) 0.39903(13) 0.28239(14)
O10_4 O 0.62856(8) 0.46619(13) 0.25561(15)
O13_4 O 0.59185(8) 0.21428(12) 0.41641(14)
O14_4 O 0.55954(8) 0.14166(12) 0.39053(13)
O15_4 O 0.57238(8) 0.33718(12) 0.12715(14)
O16_4 O 0.55263(8) 0.26707(12) 0.07183(14)
N3_4 N 0.52322(9) 0.20469(16) 0.49993(17)
N6_4 N 0.65493(9) 0.36160(15) 0.18606(17)
C1_4 C 0.16355(13) 0.1772(2) 0.5088(3)
H1_4 H 0.1634 0.1401 0.5049
C2_4 C 0.19609(12) 0.2050(2) 0.5053(3)
H2_3 H 0.2172 0.1862 0.4992
C3_4 C 0.19700(11) 0.26157(18) 0.5110(2)
C4_4 C 0.16435(11) 0.28688(19) 0.5204(2)
H3_4 H 0.1636 0.3239 0.5248
C5_4 C 0.13311(13) 0.2573(2) 0.5232(2)
H4_4 H 0.1117 0.2752 0.5291
C6_4 C 0.23035(11) 0.29247(19) 0.5042(2)
C7_4 C 0.23637(11) 0.34006(17) 0.5374(2)
H5_4 H 0.2197 0.3518 0.5660
C8_4 C 0.26675(11) 0.37022(18) 0.5286(2)
H6_4 H 0.2700 0.4024 0.5508
C9_3 C 0.29269(11) 0.35333(18) 0.4872(2)
C10_3 C 0.28742(11) 0.30468(19) 0.4563(2)
H7_3 H 0.3048 0.2920 0.4296
C11_3 C 0.25683(12) 0.2744(2) 0.4645(2)
H8_3 H 0.2539 0.2418 0.4432
C12_3 C 0.32654(10) 0.38447(18) 0.4771(2)
C13_3 C 0.32753(11) 0.43895(18) 0.4695(2)
C14_3 C 0.29519(11) 0.47331(17) 0.4631(2)
C15_4 C 0.29451(11) 0.51951(18) 0.5004(2)
H9_4 H 0.3149 0.5292 0.5256
C16_4 C 0.26402(11) 0.55151(18) 0.5010(2)
H10_4 H 0.2639 0.5819 0.5268
C17_4 C 0.23310(10) 0.53765(18) 0.4620(2)
C18_3 C 0.23522(10) 0.49462(17) 0.4215(2)
H11_3 H 0.2157 0.4868 0.3933
C19_3 C 0.26578(11) 0.46183(19) 0.4208(2)
H12_3 H 0.2664 0.4329 0.3927
C20_4 C 0.19920(11) 0.56853(18) 0.4668(2)
C21_4 C 0.17083(12) 0.56555(18) 0.4222(2)
H13_4 H 0.1730 0.5463 0.3843
C22_4 C 0.13894(12) 0.59131(17) 0.4336(2)
H14_4 H 0.1201 0.5880 0.4028
C23_4 C 0.16171(12) 0.6258(2) 0.5292(2)
H15_4 H 0.1592 0.6483 0.5643
C24_4 C 0.19435(12) 0.59962(19) 0.5246(2)
H16_4 H 0.2123 0.6019 0.5573
C25_3 C 0.35985(10) 0.35094(18) 0.4800(2)
C26_4 C 0.36675(11) 0.31492(19) 0.5297(2)
H17_4 H 0.3505 0.3114 0.5618
C27_4 C 0.39841(11) 0.28336(19) 0.5322(2)
H18_4 H 0.4031 0.2594 0.5659
C28_3 C 0.42198(11) 0.28874(18) 0.4843(2)
C29_3 C 0.41466(11) 0.32274(19) 0.4335(2)
H19_3 H 0.4307 0.3250 0.4008
C30_3 C 0.38363(11) 0.3542(2) 0.4300(2)
H20_3 H 0.3788 0.3768 0.3951
C31_3 C 0.45724(11) 0.25847(19) 0.4889(2)
C32_4 C 0.45999(12) 0.2067(2) 0.5128(2)
H21_4 H 0.4397 0.1892 0.5264
C33_4 C 0.49288(12) 0.1811(2) 0.5162(2)
H22_4 H 0.4939 0.1459 0.5306
C34_4 C 0.52066(12) 0.2542(2) 0.4772(2)
H23_4 H 0.5415 0.2709 0.4649
C35_3 C 0.48843(12) 0.2827(2) 0.4707(2)
H24_3 H 0.4880 0.3173 0.4543
C36_3 C 0.36168(10) 0.46866(18) 0.4706(2)
C37_4 C 0.36997(11) 0.5023(2) 0.4206(2)
H25_4 H 0.3542 0.5044 0.3845
C38_4 C 0.40078(12) 0.5326(2) 0.4223(2)
H26_4 H 0.4058 0.5540 0.3873
C39_4 C 0.42431(11) 0.53146(19) 0.4759(2)
C40_6 C 0.41592(11) 0.5000(2) 0.5279(2)
H27_4 H 0.4309 0.4999 0.5652
C41_4 C 0.38536(11) 0.46871(19) 0.5245(2)
H28_4 H 0.3805 0.4470 0.5594
C42_4 C 0.45832(11) 0.5639(2) 0.4808(2)
C43_4 C 0.46825(12) 0.5906(2) 0.5364(2)
H29_4 H 0.4535 0.5908 0.5711
C44_4 C 0.50144(12) 0.6177(2) 0.5400(2)
H30_4 H 0.5081 0.6362 0.5776
C45_4 C 0.51331(12) 0.5921(2) 0.4377(2)
H31_4 H 0.5288 0.5923 0.4040
C46_4 C 0.48132(13) 0.5655(2) 0.4293(2)
H32_4 H 0.4749 0.5489 0.3904
C50_4 C 0.68720(12) 0.01939(19) 0.2444(2)
H35_4 H 0.6888 0.0538 0.2612
H36_4 H 0.6353 0.0118 0.2550
C52_4 C 0.75313(11) 0.02287(17) 0.2279(2)
C53_4 C 0.76180(11) 0.05816(18) 0.2782(2)
H37_4 H 0.7462 0.0619 0.3114
C54_4 C 0.77805(11) 0.01637(19) 0.1802(2)
C55_4 C 0.80937(11) 0.04614(18) 0.1825(2)
H39_4 H 0.8256 0.0412 0.1506
C56_4 C 0.81716(10) 0.08343(18) 0.2314(2)
C57_4 C 0.79353(11) 0.08803(19) 0.2796(2)
H40_4 H 0.7987 0.1113 0.3138
C58_4 C 0.84955(10) 0.11917(18) 0.2292(2)
C59_4 C 0.84676(10) 0.17283(18) 0.2362(2)
C60_4 C 0.81163(11) 0.20245(18) 0.2349(2)
C61_4 C 0.78485(12) 0.19194(18) 0.1882(2)
H41_4 H 0.7876 0.1636 0.1598
C62_4 C 0.75423(11) 0.2226(2) 0.1828(2)
H42_4 H 0.7369 0.2147 0.1504
C63_4 C 0.74856(11) 0.26396(19) 0.2230(2)
C64_4 C 0.77568(12) 0.2747(2) 0.2716(2)
H43_4 H 0.7728 0.3030 0.3000
C65_4 C 0.80609(11) 0.24386(18) 0.2774(2)
H44_4 H 0.8233 0.2509 0.3104
C66_4 C 0.71657(11) 0.29850(19) 0.2133(2)
C67_4 C 0.71708(14) 0.3531(2) 0.2235(3)
H45_4 H 0.7379 0.3698 0.2397
C68_4 C 0.68634(14) 0.3828(2) 0.2096(3)
H46_4 H 0.6873 0.4195 0.2167
C69_4 C 0.65457(12) 0.3097(2) 0.1776(2)
H47_4 H 0.6332 0.2941 0.1622
C70_4 C 0.68421(12) 0.27629(19) 0.1901(2)
H48_4 H 0.6823 0.2397 0.1829
C71_4 C 0.88427(10) 0.09129(17) 0.2178(2)
C72_4 C 0.89362(11) 0.04484(19) 0.2513(2)
H49_4 H 0.8782 0.0312 0.2810
C73_4 C 0.92534(11) 0.01848(18) 0.2413(2)
C74_4 C 0.94867(10) 0.03699(18) 0.1957(2)
C75_4 C 0.93839(11) 0.08253(17) 0.1604(2)
H51_4 H 0.9529 0.0949 0.1286
C76_4 C 0.90729(10) 0.10951(18) 0.1715(2)
H52_4 H 0.9014 0.1403 0.1481
C77_4 C 0.98314(11) 0.00819(18) 0.1843(2)
C82_4 C 0.87905(10) 0.20873(17) 0.2415(2)
C83_4 C 0.88009(11) 0.25272(18) 0.2022(2)
H57_4 H 0.8603 0.2607 0.1749
C84_4 C 0.91037(12) 0.28581(19) 0.2023(2)
H58_4 H 0.9107 0.3149 0.1745
C85_4 C 0.94017(11) 0.2752(2) 0.2442(2)
C86_4 C 0.93818(11) 0.23172(19) 0.2885(2)
H59_4 H 0.9571 0.2252 0.3185
C87_4 C 0.90801(11) 0.19935(19) 0.2866(2)
H60_4 H 0.9068 0.1711 0.3155
C88_4 C 0.97262(11) 0.3078(2) 0.2397(2)
C89_4 C 0.97904(14) 0.3372(3) 0.1884(3)
H61_4 H 0.9613 0.3388 0.1552
H64_4 H 0.9983 0.2893 0.3268
H72_4 H 0.9862 0.1446 0.2272
H73_4 H 0.9941 0.1836 0.1283
C117_4 C 0.61296(12) 0.43962(19) 0.2968(2)
C118_4 C 0.61642(12) 0.45874(18) 0.3657(2)
C119_4 C 0.61510(12) 0.42438(19) 0.4206(2)
C120_4 C 0.61403(12) 0.36817(19) 0.4168(2)
H77_4 H 0.6142 0.3522 0.3764
C121_4 C 0.61274(13) 0.3365(2) 0.4687(2)
H78_4 H 0.6127 0.2995 0.4640
C122_4 C 0.61140(13) 0.3601(2) 0.5309(2)
H79_4 H 0.6096 0.3384 0.5670
C123_4 C 0.61277(12) 0.41323(19) 0.5375(2)
H80_4 H 0.6122 0.4276 0.5787
C124_4 C 0.61509(11) 0.44906(18) 0.4842(2)
C125_4 C 0.61645(12) 0.50571(18) 0.4889(2)
C126_4 C 0.61889(12) 0.53628(19) 0.4347(2)
H81_4 H 0.6201 0.5733 0.4386
C127_4 C 0.61957(13) 0.5132(2) 0.3735(2)
H82_4 H 0.6222 0.5348 0.3377
C128_4 C 0.61596(12) 0.5355(2) 0.5525(2)
C129_4 C 0.57389(12) 0.18519(18) 0.3759(2)
C130_4 C 0.56970(11) 0.20700(18) 0.3082(2)
C131_4 C 0.56697(11) 0.26120(18) 0.3022(2)
H83_4 H 0.5672 0.2821 0.3392
C132_4 C 0.56384(11) 0.28635(18) 0.2419(2)
H84_4 H 0.5619 0.3234 0.2395
C133_4 C 0.56359(11) 0.25687(18) 0.1865(2)
C134_4 C 0.56659(11) 0.19871(18) 0.1896(2)
C135_4 C 0.56724(13) 0.16587(18) 0.1341(2)
H85_4 H 0.5649 0.1813 0.0933
C136_4 C 0.57125(13) 0.11216(19) 0.1400(2)
H86_4 H 0.5724 0.0914 0.1030
C137_4 C 0.57369(14) 0.08752(19) 0.1999(2)
H87_4 H 0.5755 0.0505 0.2026
C138_4 C 0.57343(13) 0.11692(18) 0.2543(2)
H88_4 H 0.5758 0.1002 0.2943
C139_4 C 0.56951(11) 0.17425(18) 0.2508(2)
C140_4 C 0.56240(11) 0.28804(18) 0.1246(2)
C47_4 C 0.67951(12) 0.9200(2) 0.1957(2)
H33_4 H 0.6771 0.8857 0.1786
C48_4 C 0.71371(12) 0.94411(19) 0.2000(2)
H34_4 H 0.7335 0.9256 0.1864
C49_4 C 0.71768(11) 0.99441(18) 0.22387(19)
C51_4 C 0.65516(12) 0.99417(19) 0.2401(2)
H38_4 H 0.7735 0.9920 0.1470
H50_4 H 0.9313 0.9880 0.2652
C78_4 C 0.98756(12) 0.9543(2) 0.1997(2)
H53_4 H 0.9688 0.9350 0.2163
H2_4 H 0.7172 0.3138 0.9992
C9_4 C 0.79269(11) 0.14667(18) 0.9872(2)
C10_4 C 0.78742(11) 0.19532(19) 0.9563(2)
H7_4 H 0.8048 0.2080 0.9296
C11_4 C 0.75683(12) 0.2256(2) 0.9645(2)
H8_4 H 0.7539 0.2582 0.9432
C12_4 C 0.82654(10) 0.11553(18) 0.9771(2)
C13_4 C 0.82753(11) 0.06105(18) 0.9695(2)
C14_4 C 0.79519(11) 0.02669(17) 0.9631(2)
C18_4 C 0.73522(10) 0.00538(17) 0.9215(2)
H11_4 H 0.7157 0.0132 0.8933
C19_4 C 0.76578(11) 0.03817(19) 0.9208(2)
H12_4 H 0.7664 0.0671 0.8927
C25_4 C 0.85985(10) 0.14906(18) 0.9800(2)
C28_4 C 0.92198(11) 0.21126(18) 0.9843(2)
C29_4 C 0.91466(11) 0.17726(19) 0.9335(2)
H19_4 H 0.9307 0.1750 0.9008
C30_4 C 0.88363(11) 0.1458(2) 0.9300(2)
H20_4 H 0.8788 0.1232 0.8951
C31_4 C 0.95724(11) 0.24153(19) 0.9889(2)
C35_4 C 0.98843(12) 0.2173(2) 0.9707(2)
H24_4 H 0.9880 0.1827 0.9543
C36_4 C 0.86168(10) 0.03134(18) 0.9706(2)
loop_
_geom_bond_atom_site_label_1
_geom_bond_atom_site_label_2
_geom_bond_site_symmetry_1
_geom_bond_site_symmetry_2
C99 C98 1_555 1_555
C100 C99 1_555 1_555
H68 C100 1_555 1_555
H79 C122 1_555 1_555
C123 C122 1_555 1_555
H80 C123 1_555 1_555
O18 Cd2 1_555 1_555
O21 Cd2 1_555 1_555
Cd1 O1 1_555 1_555
Cd3 O9 1_555 1_555
Cd4 O15 1_555 1_555
O1 C93 1_555 1_555
O2 Cd1 1_555 1_555
O5 C105 1_555 1_555
O6 C105 1_555 1_555
O7 Cd1 1_555 1_555
O8 C116 1_555 1_555
O9 C117 1_555 1_555
O10 Cd3 1_555 1_555
O13 C129 1_555 1_555
O15 Cd3 1_555 1_555
O16 Cd4 1_555 1_555
N5 C47 1_555 1_555
N6 Cd3 1_555 1_555
N7 C79 1_555 1_555
N8 Cd1 1_555 1_555
C34 N3 1_555 1_555
H23 C34 1_555 1_555
C47 H33 1_555 1_555
C48 C47 1_555 1_555
H34 C48 1_555 1_555
C49 C48 1_555 1_555
C50 C49 1_555 1_555
H35 C50 1_555 1_555
C51 N5 1_555 1_555
H36 C51 1_555 1_555
C52 C49 1_555 1_555
C53 C52 1_555 1_555
H37 C53 1_555 1_555
C54 C52 1_555 1_555
H38 C54 1_555 1_555
C55 C54 1_555 1_555
H39 C55 1_555 1_555
C56 C55 1_555 1_555
C57 C53 1_555 1_555
H40 C57 1_555 1_555
C58 C56 1_555 1_555
C59 C58 1_555 1_555
C60 C59 1_555 1_555
C61 C60 1_555 1_555
H41 C61 1_555 1_555
C62 C61 1_555 1_555
H42 C62 1_555 1_555
C63 C62 1_555 1_555
C64 C63 1_555 1_555
H43 C64 1_555 1_555
C65 C60 1_555 1_555
H44 C65 1_555 1_555
C66 C63 1_555 1_555
C67 C66 1_555 1_555
H45 C67 1_555 1_555
C68 N6 1_555 1_555
H46 C68 1_555 1_555
C69 N6 1_555 1_555
H47 C69 1_555 1_555
C70 C66 1_555 1_555
H48 C70 1_555 1_555
C71 C58 1_555 1_555
C72 C71 1_555 1_555
H49 C72 1_555 1_555
C73 C72 1_555 1_555
H50 C73 1_555 1_555
C74 C73 1_555 1_555
C75 C74 1_555 1_555
H51 C75 1_555 1_555
C76 C71 1_555 1_555
H52 C76 1_555 1_555
C77 C74 1_555 1_555
C78 C77 1_555 1_555
H53 C78 1_555 1_555
C79 C78 1_555 1_555
H54 C79 1_555 1_555
C80 N7 1_555 1_555
H55 C80 1_555 1_555
C81 C77 1_555 1_555
H56 C81 1_555 1_555
C82 C59 1_555 1_555
C83 C82 1_555 1_555
H57 C83 1_555 1_555
C84 C83 1_555 1_555
H58 C84 1_555 1_555
C85 C84 1_555 1_555
C86 C85 1_555 1_555
H59 C86 1_555 1_555
C87 C82 1_555 1_555
H60 C87 1_555 1_555
C88 C85 1_555 1_555
C89 C88 1_555 1_555
H61 C89 1_555 1_555
C90 N8 1_555 1_555
H62 C90 1_555 1_555
C91 N8 1_555 1_555
H63 C91 1_555 1_555
C92 C88 1_555 1_555
H64 C92 1_555 1_555
C93 O2 1_555 1_555
C94 C93 1_555 1_555
H69 C101 1_555 1_555
C102 C101 1_555 1_555
H70 C102 1_555 1_555
C103 C94 1_555 1_555
C105 C106 1_555 1_555
C106 C107 1_555 1_555
C107 C108 1_555 1_555
C108 H71 1_555 1_555
C109 C108 1_555 1_555
H72 C109 1_555 1_555
C110 C109 1_555 1_555
H73 C110 1_555 1_555
C111 C110 1_555 1_555
H74 C111 1_555 1_555
C112 C107 1_555 1_555
C113 C112 1_555 1_555
C114 C113 1_555 1_555
H75 C114 1_555 1_555
C115 C106 1_555 1_555
H76 C115 1_555 1_555
C116 O7 1_555 1_555
C117 O10 1_555 1_555
C118 C117 1_555 1_555
C119 C118 1_555 1_555
C120 C119 1_555 1_555
H77 C120 1_555 1_555
C121 C120 1_555 1_555
H78 C121 1_555 1_555
C124 C119 1_555 1_555
C129 O14 1_555 1_555
C130 C129 1_555 1_555
C131 C130 1_555 1_555
H83 C131 1_555 1_555
C132 C131 1_555 1_555
H84 C132 1_555 1_555
C133 C132 1_555 1_555
C134 C133 1_555 1_555
C135 C134 1_555 1_555
H85 C135 1_555 1_555
C136 C135 1_555 1_555
H86 C136 1_555 1_555
C137 C136 1_555 1_555
H87 C137 1_555 1_555
C138 C137 1_555 1_555
H88 C138 1_555 1_555
C139 C130 1_555 1_555
C140 O15 1_555 1_555
Cd6 N5 1_555 1_555
Cd9 O8 1_555 1_555
Cd11 N7 1_555 1_555
O17 Cd1 1_555 1_555
O19 Cd4 1_555 1_555
O20 Cd4 1_555 1_555
O22 Cd3 1_555 1_555
O23 Cd3 1_555 1_555
N9 Cd4 1_555 1_555
N11 Cd4 1_555 1_555
N12 Cd1 1_555 1_555
N13 Cd3 1_555 1_555
Cd4 O23 1_555 1_555
O16 C140 1_555 1_555
C50 C51 1_555 1_555
C56 C57 1_555 1_555
C64 C65 1_555 1_555
C67 C68 1_555 1_555
C69 C70 1_555 1_555
C75 C76 1_555 1_555
C80 C81 1_555 1_555
C86 C87 1_555 1_555
C89 C90 1_555 1_555
C91 C92 1_555 1_555
C102 C103 1_555 1_555
C111 C112 1_555 1_555
C113 C116 1_555 1_555
C114 C115 1_555 1_555
C133 C140 1_555 1_555
C134 C139 1_555 1_555
C138 C139 1_555 1_555
O3 C104 1_555 1_555
O4 C104 1_555 1_555
O11 C128 1_555 1_555
O12 C128 1_555 1_555
H30 C44 1_555 1_555
C104 C97 1_555 1_555
Cd5 O3 1_555 1_555
Cd8 O4 1_555 1_555
Cd10 O11 1_555 1_555
Cd12 O12 1_555 1_555
O12 Cd10 1_555 1_555
C45 N4 1_555 1_555
H31 C45 1_555 1_555
H65 C95 1_555 1_555
C96 C95 1_555 1_555
H66 C96 1_555 1_555
C126 C125 1_555 1_555
H81 C126 1_555 1_555
H82 C127 1_555 1_555
C126 C127 1_555 1_555
N1 C1 1_555 1_555
C1 H1 1_555 1_555
C2 C1 1_555 1_555
C3 C2 1_555 1_555
C4 C3 1_555 1_555
H3 C4 1_555 1_555
C5 N1 1_555 1_555
H4 C5 1_555 1_555
C6 C3 1_555 1_555
C7 C6 1_555 1_555
H5 C7 1_555 1_555
C8 C7 1_555 1_555
H6 C8 1_555 1_555
H17 C26 1_555 1_555
C27 C26 1_555 1_555
H18 C27 1_555 1_555
H21 C32 1_555 1_555
H22 C33 1_555 1_555
H27 C40 1_555 1_555
H28 C41 1_555 1_555
Cd14 N1 1_555 1_555
C4 C5 1_555 1_555
C32 C33 1_555 1_555
C40 C41 1_555 1_555
H9 C15 1_555 1_555
C16 C15 1_555 1_555
H10 C16 1_555 1_555
H15 C23 1_555 1_555
H16 C24 1_555 1_555
H29 C43 1_555 1_555
C23 C24 1_555 1_555
N2 C22 1_555 1_555
C20 C17 1_555 1_555
C21 C20 1_555 1_555
H13 C21 1_555 1_555
C22 C21 1_555 1_555
H14 C22 1_555 1_555
H25 C37 1_555 1_555
C38 C37 1_555 1_555
H26 C38 1_555 1_555
C39 C38 1_555 1_555
C42 C39 1_555 1_555
C46 C42 1_555 1_555
H32 C46 1_555 1_555
O17 C104_2 1_555 1_555
O4_2 C104_2 1_555 1_555
O22 C128_2 1_555 1_555
O23 C128_2 1_555 1_555
N11 C44_2 1_555 1_555
H30_2 C44_2 1_555 1_555
C45_2 N11 1_555 1_555
H31_2 C45_2 1_555 1_555
H65_2 C95_2 1_555 1_555
C96_2 C95_2 1_555 1_555
H66_2 C96_2 1_555 1_555
C97_2 C96_2 1_555 1_555
C104_2 C97_2 1_555 1_555
C126_2 C125_2 1_555 1_555
H81_2 C126_2 1_555 1_555
H82_2 C127_2 1_555 1_555
C128_2 C125_2 1_555 1_555
Cd9 O4_2 1_555 1_555
C126_2 C127_2 1_555 1_555
Cd5 O1_2 1_555 1_555
Cd2_2 O13_2 1_555 1_555
Cd10 O9_2 1_555 1_555
Cd12 O15_2 1_555 1_555
O1_2 C93_2 1_555 1_555
O2_2 Cd5 1_555 1_555
O5_2 C105_2 1_555 1_555
O6_2 C105_2 1_555 1_555
O7_2 Cd5 1_555 1_555
O8_2 C116_2 1_555 1_555
O9_2 C117_2 1_555 1_555
O10_2 Cd10 1_555 1_555
O13_2 C129_2 1_555 1_555
O14_2 Cd2_2 1_555 1_555
O15_2 Cd10 1_555 1_555
O16_2 Cd12 1_555 1_555
N3_2 Cd2_2 1_555 1_555
N5_2 C47_2 1_555 1_555
N6_2 Cd10 1_555 1_555
N7_2 C79_2 1_555 1_555
N8_2 Cd5 1_555 1_555
C34_2 N3_2 1_555 1_555
H23_2 C34_2 1_555 1_555
C47_2 H33_2 1_555 1_555
C48_2 C47_2 1_555 1_555
H34_2 C48_2 1_555 1_555
C49_2 C48_2 1_555 1_555
C50_2 C49_2 1_555 1_555
H35_2 C50_2 1_555 1_555
C51_2 N5_2 1_555 1_555
H36_2 C51_2 1_555 1_555
C52_2 C49_2 1_555 1_555
C53_2 C52_2 1_555 1_555
H37_2 C53_2 1_555 1_555
C54_2 C52_2 1_555 1_555
H38_2 C54_2 1_555 1_555
C55_2 C54_2 1_555 1_555
H39_2 C55_2 1_555 1_555
C56_2 C55_2 1_555 1_555
C57_2 C53_2 1_555 1_555
H40_2 C57_2 1_555 1_555
C58_2 C56_2 1_555 1_555
C59_2 C58_2 1_555 1_555
C60_2 C59_2 1_555 1_555
C61_2 C60_2 1_555 1_555
H41_2 C61_2 1_555 1_555
C62_2 C61_2 1_555 1_555
H42_2 C62_2 1_555 1_555
C63_2 C62_2 1_555 1_555
C64_2 C63_2 1_555 1_555
H43_2 C64_2 1_555 1_555
C65_2 C60_2 1_555 1_555
H44_2 C65_2 1_555 1_555
C66_2 C63_2 1_555 1_555
C67_2 C66_2 1_555 1_555
H45_2 C67_2 1_555 1_555
C68_2 N6_2 1_555 1_555
H46_2 C68_2 1_555 1_555
C69_2 N6_2 1_555 1_555
H47_2 C69_2 1_555 1_555
C70_2 C66_2 1_555 1_555
H48_2 C70_2 1_555 1_555
C71_2 C58_2 1_555 1_555
C72_2 C71_2 1_555 1_555
H49_2 C72_2 1_555 1_555
C73_2 C72_2 1_555 1_555
H50_2 C73_2 1_555 1_555
C74_2 C73_2 1_555 1_555
C75_2 C74_2 1_555 1_555
H51_2 C75_2 1_555 1_555
C76_2 C71_2 1_555 1_555
H52_2 C76_2 1_555 1_555
C77_2 C74_2 1_555 1_555
C78_2 C77_2 1_555 1_555
H53_2 C78_2 1_555 1_555
C79_2 C78_2 1_555 1_555
H54_2 C79_2 1_555 1_555
C80_2 N7_2 1_555 1_555
H55_2 C80_2 1_555 1_555
C81_2 C77_2 1_555 1_555
H56_2 C81_2 1_555 1_555
C82_2 C59_2 1_555 1_555
C83_2 C82_2 1_555 1_555
H57_2 C83_2 1_555 1_555
C84_2 C83_2 1_555 1_555
H58_2 C84_2 1_555 1_555
C85_2 C84_2 1_555 1_555
C86_2 C85_2 1_555 1_555
H59_2 C86_2 1_555 1_555
C87_2 C82_2 1_555 1_555
H60_2 C87_2 1_555 1_555
C88_2 C85_2 1_555 1_555
C89_2 C88_2 1_555 1_555
H61_2 C89_2 1_555 1_555
C90_2 N8_2 1_555 1_555
H62_2 C90_2 1_555 1_555
C91_2 N8_2 1_555 1_555
H63_2 C91_2 1_555 1_555
C92_2 C88_2 1_555 1_555
H64_2 C92_2 1_555 1_555
C93_2 O2_2 1_555 1_555
C94_2 C93_2 1_555 1_555
C99_2 C98_2 1_555 1_555
C100_2 C99_2 1_555 1_555
H68_2 C100_2 1_555 1_555
C101_2 C100_2 1_555 1_555
H69_2 C101_2 1_555 1_555
C102_2 C101_2 1_555 1_555
H70_2 C102_2 1_555 1_555
C103_2 C94_2 1_555 1_555
C105_2 C106_2 1_555 1_555
C106_2 C107_2 1_555 1_555
C107_2 C108_2 1_555 1_555
C108_2 H71_2 1_555 1_555
C109_2 C108_2 1_555 1_555
H72_2 C109_2 1_555 1_555
C110_2 C109_2 1_555 1_555
H73_2 C110_2 1_555 1_555
C111_2 C110_2 1_555 1_555
H74_2 C111_2 1_555 1_555
C112_2 C107_2 1_555 1_555
C113_2 C112_2 1_555 1_555
C114_2 C113_2 1_555 1_555
H75_2 C114_2 1_555 1_555
C115_2 C106_2 1_555 1_555
H76_2 C115_2 1_555 1_555
C116_2 O7_2 1_555 1_555
C117_2 O10_2 1_555 1_555
C118_2 C117_2 1_555 1_555
C119_2 C118_2 1_555 1_555
C120_2 C119_2 1_555 1_555
H77_2 C120_2 1_555 1_555
C121_2 C120_2 1_555 1_555
H78_2 C121_2 1_555 1_555
C122_2 C121_2 1_555 1_555
H79_2 C122_2 1_555 1_555
C123_2 C122_2 1_555 1_555
H80_2 C123_2 1_555 1_555
C124_2 C119_2 1_555 1_555
C129_2 O14_2 1_555 1_555
C130_2 C129_2 1_555 1_555
C131_2 C130_2 1_555 1_555
H83_2 C131_2 1_555 1_555
C132_2 C131_2 1_555 1_555
H84_2 C132_2 1_555 1_555
C133_2 C132_2 1_555 1_555
C134_2 C133_2 1_555 1_555
C135_2 C134_2 1_555 1_555
H85_2 C135_2 1_555 1_555
C136_2 C135_2 1_555 1_555
H86_2 C136_2 1_555 1_555
C137_2 C136_2 1_555 1_555
H87_2 C137_2 1_555 1_555
C138_2 C137_2 1_555 1_555
H88_2 C138_2 1_555 1_555
C139_2 C130_2 1_555 1_555
C140_2 O15_2 1_555 1_555
Cd6_2 N5_2 1_555 1_555
Cd8 O8_2 1_555 1_555
Cd11_2 N7_2 1_555 1_555
Cd14_2 O5_2 1_555 1_555
O18_2 Cd2_2 1_555 1_555
O21_2 Cd2_2 1_555 1_555
N9_2 Cd12 1_555 1_555
N10_2 Cd2_2 1_555 1_555
N12_2 Cd5 1_555 1_555
N13_2 Cd10 1_555 1_555
O6_2 Cd14_2 1_555 1_555
O16_2 C140_2 1_555 1_555
C50_2 C51_2 1_555 1_555
C56_2 C57_2 1_555 1_555
C64_2 C65_2 1_555 1_555
C67_2 C68_2 1_555 1_555
C69_2 C70_2 1_555 1_555
C75_2 C76_2 1_555 1_555
C80_2 C81_2 1_555 1_555
C86_2 C87_2 1_555 1_555
C89_2 C90_2 1_555 1_555
C91_2 C92_2 1_555 1_555
C98_2 C103_2 1_555 1_555
C102_2 C103_2 1_555 1_555
C111_2 C112_2 1_555 1_555
C113_2 C116_2 1_555 1_555
C114_2 C115_2 1_555 1_555
C123_2 C124_2 1_555 1_555
C133_2 C140_2 1_555 1_555
C134_2 C139_2 1_555 1_555
C138_2 C139_2 1_555 1_555
N2_2 C22_2 1_555 1_555
H9_2 C15_2 1_555 1_555
C16_2 C15_2 1_555 1_555
H10_2 C16_2 1_555 1_555
C17_2 C16_2 1_555 1_555
C20_2 C17_2 1_555 1_555
C21_2 C20_2 1_555 1_555
H13_2 C21_2 1_555 1_555
C22_2 C21_2 1_555 1_555
H14_2 C22_2 1_555 1_555
C23_2 N2_2 1_555 1_555
H15_2 C23_2 1_555 1_555
C24_2 C20_2 1_555 1_555
H16_2 C24_2 1_555 1_555
H25_2 C37_2 1_555 1_555
C38_2 C37_2 1_555 1_555
H26_2 C38_2 1_555 1_555
C39_2 C38_2 1_555 1_555
C40_3 C39_2 1_555 1_555
C42_2 C39_2 1_555 1_555
C43_2 C42_2 1_555 1_555
H29_2 C43_2 1_555 1_555
C46_2 C42_2 1_555 1_555
H32_2 C46_2 1_555 1_555
Cd9 N2_2 1_555 1_555
C23_2 C24_2 1_555 1_555
N1_2 C1_2 1_555 1_555
C1_2 H1_2 1_555 1_555
C2_2 C1_2 1_555 1_555
H2 C2_2 1_555 1_555
C3_2 C2_2 1_555 1_555
C4_2 C3_2 1_555 1_555
H3_2 C4_2 1_555 1_555
C5_2 N1_2 1_555 1_555
H4_2 C5_2 1_555 1_555
C6_2 C3_2 1_555 1_555
C7_2 C6_2 1_555 1_555
H5_2 C7_2 1_555 1_555
C8_2 C7_2 1_555 1_555
H6_2 C8_2 1_555 1_555
C9 C8_2 1_555 1_555
C10 C9 1_555 1_555
H7 C10 1_555 1_555
C11 C6_2 1_555 1_555
H8 C11 1_555 1_555
C12 C9 1_555 1_555
C13 C12 1_555 1_555
C14 C13 1_555 1_555
H11 C18 1_555 1_555
C19 C14 1_555 1_555
H12 C19 1_555 1_555
C25 C12 1_555 1_555
C26_2 C25 1_555 1_555
H17_2 C26_2 1_555 1_555
C27_2 C26_2 1_555 1_555
H18_2 C27_2 1_555 1_555
C28 C27_2 1_555 1_555
C29 C28 1_555 1_555
H19 C29 1_555 1_555
C30 C25 1_555 1_555
H20 C30 1_555 1_555
C31 C28 1_555 1_555
C32_2 C31 1_555 1_555
H21_2 C32_2 1_555 1_555
H22_2 C33_2 1_555 1_555
C35 C31 1_555 1_555
H24 C35 1_555 1_555
C36 C13 1_555 1_555
H27_2 C40_4 1_555 1_555
C41_2 C36 1_555 1_555
H28_2 C41_2 1_555 1_555
Cd14_2 N1_2 1_555 1_555
C4_2 C5_2 1_555 1_555
C10 C11 1_555 1_555
C18 C19 1_555 1_555
C29 C30 1_555 1_555
C32_2 C33_2 1_555 1_555
C40_4 C41_2 1_555 1_555
N13 C79_3 1_555 1_555
H54_3 C79_3 1_555 1_555
O3_2 C104_3 1_555 1_555
O18 C104_3 1_555 1_555
C98_3 C97_3 1_555 1_555
C99_3 C98_3 1_555 1_555
H67_3 C99_3 1_555 1_555
C100_3 C99_3 1_555 1_555
H68_3 C100_3 1_555 1_555
C104_3 C97_3 1_555 1_555
Cd6_2 O3_2 1_555 1_555
Cd6 O1_3 1_555 1_555
O1_3 C93_3 1_555 1_555
O2_3 Cd6 1_555 1_555
O19_2 C105_3 1_555 1_555
O20_2 C105_3 1_555 1_555
O7_3 Cd6 1_555 1_555
O21_2 C116_3 1_555 1_555
N8_3 Cd6 1_555 1_555
H55_3 C80_3 1_555 1_555
H56_3 C81_3 1_555 1_555
C90_3 N8_3 1_555 1_555
H62_3 C90_3 1_555 1_555
C91_3 N8_3 1_555 1_555
H63_3 C91_3 1_555 1_555
C93_3 O2_3 1_555 1_555
C94_3 C93_3 1_555 1_555
C95_3 C94_3 1_555 1_555
H65_3 C95_3 1_555 1_555
C96_3 C95_3 1_555 1_555
H66_3 C96_3 1_555 1_555
H69_3 C101_3 1_555 1_555
C102_3 C101_3 1_555 1_555
H70_3 C102_3 1_555 1_555
C103_3 C94_3 1_555 1_555
C105_3 C106_3 1_555 1_555
C106_3 C107_3 1_555 1_555
C107_3 C108_3 1_555 1_555
C108_3 H71_3 1_555 1_555
C109_3 C108_3 1_555 1_555
C110_3 C109_3 1_555 1_555
C111_3 C110_3 1_555 1_555
H74_3 C111_3 1_555 1_555
C112_3 C107_3 1_555 1_555
C113_3 C112_3 1_555 1_555
C114_3 C113_3 1_555 1_555
H75_3 C114_3 1_555 1_555
C115_3 C106_3 1_555 1_555
H76_3 C115_3 1_555 1_555
C116_3 O7_3 1_555 1_555
O17_2 Cd6 1_555 1_555
C80_3 C81_3 1_555 1_555
C91_3 C92_3 1_555 1_555
C102_3 C103_3 1_555 1_555
C111_3 C112_3 1_555 1_555
C113_3 C116_3 1_555 1_555
C114_3 C115_3 1_555 1_555
N12 C47_3 1_555 1_555
C47_3 H33_3 1_555 1_555
C48_3 C47_3 1_555 1_555
H34_3 C48_3 1_555 1_555
C49_3 C48_3 1_555 1_555
C51_3 N12 1_555 1_555
H53_3 C78_3 1_555 1_555
O11_2 C128_3 1_555 1_555
O12_2 C128_3 1_555 1_555
N9_2 C1_3 1_555 1_555
C1_3 H1_3 1_555 1_555
C2_3 C1_3 1_555 1_555
C3_3 C2_3 1_555 1_555
C4_3 C3_3 1_555 1_555
H3_3 C4_3 1_555 1_555
C5_3 N9_2 1_555 1_555
H4_3 C5_3 1_555 1_555
C6_3 C3_3 1_555 1_555
C7_3 C6_3 1_555 1_555
H5_3 C7_3 1_555 1_555
C8_3 C7_3 1_555 1_555
H6_3 C8_3 1_555 1_555
H9_3 C15_3 1_555 1_555
C16_3 C15_3 1_555 1_555
H10_3 C16_3 1_555 1_555
H15_3 C23_3 1_555 1_555
H16_3 C24_3 1_555 1_555
H17_3 C26_3 1_555 1_555
C27_3 C26_3 1_555 1_555
H18_3 C27_3 1_555 1_555
H21_3 C32_3 1_555 1_555
H22_3 C33_3 1_555 1_555
H27_3 C40_5 1_555 1_555
H28_3 C41_3 1_555 1_555
H29_3 C43_3 1_555 1_555
C44_3 C43_3 1_555 1_555
H30_3 C44_3 1_555 1_555
H79_3 C122_3 1_555 1_555
C123_3 C122_3 1_555 1_555
H80_3 C123_3 1_555 1_555
Cd11_2 O11_2 1_555 1_555
Cd14 O12_2 1_555 1_555
O12_2 Cd11_2 1_555 1_555
C4_3 C5_3 1_555 1_555
C23_3 C24_3 1_555 1_555
C32_3 C33_3 1_555 1_555
C40_5 C41_3 1_555 1_555
Cd11 O9_3 1_555 1_555
Cd14_2 O15_3 1_555 1_555
O9_3 C117_3 1_555 1_555
O10_3 Cd11 1_555 1_555
O13_3 C129_3 1_555 1_555
O15_3 Cd11 1_555 1_555
O16_3 Cd14_2 1_555 1_555
N10 C22_3 1_555 1_555
N6_3 Cd11 1_555 1_555
C10_2 C9_2 1_555 1_555
H7_2 C10_2 1_555 1_555
H8_2 C11_2 1_555 1_555
C12_2 C9_2 1_555 1_555
C13_2 C12_2 1_555 1_555
C14_2 C13_2 1_555 1_555
C18_2 C17_3 1_555 1_555
H11_2 C18_2 1_555 1_555
C19_2 C14_2 1_555 1_555
H12_2 C19_2 1_555 1_555
C20_3 C17_3 1_555 1_555
C21_3 C20_3 1_555 1_555
H13_3 C21_3 1_555 1_555
C22_3 C21_3 1_555 1_555
H14_3 C22_3 1_555 1_555
C25_2 C12_2 1_555 1_555
C29_2 C28_2 1_555 1_555
H19_2 C29_2 1_555 1_555
C30_2 C25_2 1_555 1_555
H20_2 C30_2 1_555 1_555
C31_2 C28_2 1_555 1_555
C34_3 N3_3 1_555 1_555
H23_3 C34_3 1_555 1_555
C35_2 C31_2 1_555 1_555
H24_2 C35_2 1_555 1_555
C36_2 C13_2 1_555 1_555
C37_3 C36_2 1_555 1_555
H25_3 C37_3 1_555 1_555
C38_3 C37_3 1_555 1_555
H26_3 C38_3 1_555 1_555
C39_3 C38_3 1_555 1_555
C42_3 C39_3 1_555 1_555
C45_3 N4_2 1_555 1_555
H31_3 C45_3 1_555 1_555
C46_3 C42_3 1_555 1_555
H32_3 C46_3 1_555 1_555
H35_3 C50_3 1_555 1_555
C53_3 C52_3 1_555 1_555
H37_3 C53_3 1_555 1_555
C54_3 C52_3 1_555 1_555
C55_3 C54_3 1_555 1_555
H39_3 C55_3 1_555 1_555
C56_3 C55_3 1_555 1_555
C57_3 C53_3 1_555 1_555
H40_3 C57_3 1_555 1_555
C58_3 C56_3 1_555 1_555
C59_3 C58_3 1_555 1_555
C60_3 C59_3 1_555 1_555
C61_3 C60_3 1_555 1_555
H41_3 C61_3 1_555 1_555
C62_3 C61_3 1_555 1_555
H42_3 C62_3 1_555 1_555
C63_3 C62_3 1_555 1_555
C64_3 C63_3 1_555 1_555
H43_3 C64_3 1_555 1_555
C65_3 C60_3 1_555 1_555
H44_3 C65_3 1_555 1_555
C66_3 C63_3 1_555 1_555
C67_3 C66_3 1_555 1_555
H45_3 C67_3 1_555 1_555
C68_3 N6_3 1_555 1_555
H46_3 C68_3 1_555 1_555
C69_3 N6_3 1_555 1_555
H47_3 C69_3 1_555 1_555
C70_3 C66_3 1_555 1_555
H48_3 C70_3 1_555 1_555
C71_3 C58_3 1_555 1_555
C72_3 C71_3 1_555 1_555
H49_3 C72_3 1_555 1_555
C73_3 C72_3 1_555 1_555
C74_3 C73_3 1_555 1_555
C75_3 C74_3 1_555 1_555
H51_3 C75_3 1_555 1_555
C76_3 C71_3 1_555 1_555
H52_3 C76_3 1_555 1_555
C77_3 C74_3 1_555 1_555
C82_3 C59_3 1_555 1_555
C83_3 C82_3 1_555 1_555
H57_3 C83_3 1_555 1_555
C84_3 C83_3 1_555 1_555
H58_3 C84_3 1_555 1_555
C85_3 C84_3 1_555 1_555
C86_3 C85_3 1_555 1_555
H59_3 C86_3 1_555 1_555
C87_3 C82_3 1_555 1_555
H60_3 C87_3 1_555 1_555
C88_3 C85_3 1_555 1_555
C89_3 C88_3 1_555 1_555
H61_3 C89_3 1_555 1_555
C117_3 O10_3 1_555 1_555
C118_3 C117_3 1_555 1_555
C119_3 C118_3 1_555 1_555
C120_3 C119_3 1_555 1_555
H77_3 C120_3 1_555 1_555
C121_3 C120_3 1_555 1_555
H78_3 C121_3 1_555 1_555
C124_3 C119_3 1_555 1_555
C125_3 C124_3 1_555 1_555
C126_3 C125_3 1_555 1_555
H81_3 C126_3 1_555 1_555
C127_3 C118_3 1_555 1_555
H82_3 C127_3 1_555 1_555
C129_3 O14_3 1_555 1_555
C130_3 C129_3 1_555 1_555
C131_3 C130_3 1_555 1_555
H83_3 C131_3 1_555 1_555
C132_3 C131_3 1_555 1_555
H84_3 C132_3 1_555 1_555
C133_3 C132_3 1_555 1_555
C134_3 C133_3 1_555 1_555
C135_3 C134_3 1_555 1_555
H85_3 C135_3 1_555 1_555
C136_3 C135_3 1_555 1_555
H86_3 C136_3 1_555 1_555
C137_3 C136_3 1_555 1_555
H87_3 C137_3 1_555 1_555
C138_3 C137_3 1_555 1_555
H88_3 C138_3 1_555 1_555
C139_3 C130_3 1_555 1_555
C140_3 O15_3 1_555 1_555
O22_2 Cd11 1_555 1_555
O23_2 Cd11 1_555 1_555
N11_2 Cd14_2 1_555 1_555
Cd14_2 O23_2 1_555 1_555
O16_3 C140_3 1_555 1_555
C10_2 C11_2 1_555 1_555
C18_2 C19_2 1_555 1_555
C29_2 C30_2 1_555 1_555
C34_3 C35_2 1_555 1_555
C45_3 C46_3 1_555 1_555
C56_3 C57_3 1_555 1_555
C64_3 C65_3 1_555 1_555
C67_3 C68_3 1_555 1_555
C69_3 C70_3 1_555 1_555
C75_3 C76_3 1_555 1_555
C86_3 C87_3 1_555 1_555
C126_3 C127_3 1_555 1_555
C133_3 C140_3 1_555 1_555
C134_3 C139_3 1_555 1_555
C138_3 C139_3 1_555 1_555
Cd6_2 O1_4 1_555 1_555
O1_4 C93_4 1_555 1_555
O2_4 Cd6_2 1_555 1_555
O17_2 C104_4 1_555 1_555
O18_2 C104_4 1_555 1_555
O19 C105_4 1_555 1_555
O20 C105_4 1_555 1_555
O7_4 Cd6_2 1_555 1_555
O21 C116_4 1_555 1_555
N8_4 Cd6_2 1_555 1_555
H55_4 C80_4 1_555 1_555
H56_4 C81_4 1_555 1_555
C90_4 N8_4 1_555 1_555
H62_4 C90_4 1_555 1_555
C91_4 N8_4 1_555 1_555
H63_4 C91_4 1_555 1_555
C93_4 O2_4 1_555 1_555
C94_4 C93_4 1_555 1_555
C95_4 C94_4 1_555 1_555
H65_4 C95_4 1_555 1_555
C96_4 C95_4 1_555 1_555
H66_4 C96_4 1_555 1_555
C97_4 C96_4 1_555 1_555
C98_4 C97_4 1_555 1_555
C99_4 C98_4 1_555 1_555
H67_4 C99_4 1_555 1_555
C100_4 C99_4 1_555 1_555
H68_4 C100_4 1_555 1_555
C101_4 C100_4 1_555 1_555
H69_4 C101_4 1_555 1_555
C102_4 C101_4 1_555 1_555
H70_4 C102_4 1_555 1_555
C103_4 C94_4 1_555 1_555
C104_4 C97_4 1_555 1_555
C105_4 C106_4 1_555 1_555
C106_4 C107_4 1_555 1_555
C107_4 C108_4 1_555 1_555
C108_4 H71_4 1_555 1_555
C109_4 C108_4 1_555 1_555
C110_4 C109_4 1_555 1_555
C111_4 C110_4 1_555 1_555
H74_4 C111_4 1_555 1_555
C112_4 C107_4 1_555 1_555
C113_4 C112_4 1_555 1_555
C114_4 C113_4 1_555 1_555
H75_4 C114_4 1_555 1_555
C115_4 C106_4 1_555 1_555
H76_4 C115_4 1_555 1_555
C116_4 O7_4 1_555 1_555
C80_4 C81_4 1_555 1_555
C91_4 C92_4 1_555 1_555
C98_4 C103_4 1_555 1_555
C102_4 C103_4 1_555 1_555
C111_4 C112_4 1_555 1_555
C113_4 C116_4 1_555 1_555
C114_4 C115_4 1_555 1_555
N13_2 C79_4 1_555 1_555
H54_4 C79_4 1_555 1_555
Cd9 O13_4 1_555 1_555
Cd11_2 O9_4 1_555 1_555
Cd14 O15_4 1_555 1_555
O9_4 C117_4 1_555 1_555
O10_4 Cd11_2 1_555 1_555
O22_2 C128_4 1_555 1_555
O23_2 C128_4 1_555 1_555
O13_4 C129_4 1_555 1_555
O14_4 Cd9 1_555 1_555
O15_4 Cd11_2 1_555 1_555
O16_4 Cd14 1_555 1_555
N9 C1_4 1_555 1_555
N10_2 C22_4 1_555 1_555
N3_4 Cd9 1_555 1_555
N11_2 C44_4 1_555 1_555
N6_4 Cd11_2 1_555 1_555
C1_4 H1_4 1_555 1_555
C2_4 C1_4 1_555 1_555
H2_3 C2_4 1_555 1_555
C3_4 C2_4 1_555 1_555
C4_4 C3_4 1_555 1_555
H3_4 C4_4 1_555 1_555
C5_4 N9 1_555 1_555
H4_4 C5_4 1_555 1_555
C6_4 C3_4 1_555 1_555
C7_4 C6_4 1_555 1_555
H5_4 C7_4 1_555 1_555
C8_4 C7_4 1_555 1_555
H6_4 C8_4 1_555 1_555
C9_3 C8_4 1_555 1_555
C10_3 C9_3 1_555 1_555
H7_3 C10_3 1_555 1_555
C11_3 C6_4 1_555 1_555
H8_3 C11_3 1_555 1_555
C12_3 C9_3 1_555 1_555
C13_3 C12_3 1_555 1_555
C14_3 C13_3 1_555 1_555
C15_4 C14_3 1_555 1_555
H9_4 C15_4 1_555 1_555
C16_4 C15_4 1_555 1_555
H10_4 C16_4 1_555 1_555
C17_4 C16_4 1_555 1_555
C18_3 C17_4 1_555 1_555
H11_3 C18_3 1_555 1_555
C19_3 C14_3 1_555 1_555
H12_3 C19_3 1_555 1_555
C20_4 C17_4 1_555 1_555
C21_4 C20_4 1_555 1_555
H13_4 C21_4 1_555 1_555
C22_4 C21_4 1_555 1_555
H14_4 C22_4 1_555 1_555
C23_4 N10_2 1_555 1_555
H15_4 C23_4 1_555 1_555
C24_4 C20_4 1_555 1_555
H16_4 C24_4 1_555 1_555
C25_3 C12_3 1_555 1_555
C26_4 C25_3 1_555 1_555
H17_4 C26_4 1_555 1_555
C27_4 C26_4 1_555 1_555
H18_4 C27_4 1_555 1_555
C28_3 C27_4 1_555 1_555
C29_3 C28_3 1_555 1_555
H19_3 C29_3 1_555 1_555
C30_3 C25_3 1_555 1_555
H20_3 C30_3 1_555 1_555
C31_3 C28_3 1_555 1_555
C32_4 C31_3 1_555 1_555
H21_4 C32_4 1_555 1_555
C33_4 N3_4 1_555 1_555
H22_4 C33_4 1_555 1_555
C34_4 N3_4 1_555 1_555
H23_4 C34_4 1_555 1_555
C35_3 C31_3 1_555 1_555
H24_3 C35_3 1_555 1_555
C36_3 C13_3 1_555 1_555
C37_4 C36_3 1_555 1_555
H25_4 C37_4 1_555 1_555
C38_4 C37_4 1_555 1_555
H26_4 C38_4 1_555 1_555
C39_4 C38_4 1_555 1_555
C40_6 C39_4 1_555 1_555
H27_4 C40_6 1_555 1_555
C41_4 C36_3 1_555 1_555
H28_4 C41_4 1_555 1_555
C42_4 C39_4 1_555 1_555
C43_4 C42_4 1_555 1_555
H29_4 C43_4 1_555 1_555
C44_4 C43_4 1_555 1_555
H30_4 C44_4 1_555 1_555
C45_4 N11_2 1_555 1_555
H31_4 C45_4 1_555 1_555
C46_4 C42_4 1_555 1_555
H32_4 C46_4 1_555 1_555
H35_4 C50_4 1_555 1_555
C53_4 C52_4 1_555 1_555
H37_4 C53_4 1_555 1_555
C54_4 C52_4 1_555 1_555
C55_4 C54_4 1_555 1_555
H39_4 C55_4 1_555 1_555
C56_4 C55_4 1_555 1_555
C57_4 C53_4 1_555 1_555
H40_4 C57_4 1_555 1_555
C58_4 C56_4 1_555 1_555
C59_4 C58_4 1_555 1_555
C60_4 C59_4 1_555 1_555
C61_4 C60_4 1_555 1_555
H41_4 C61_4 1_555 1_555
C62_4 C61_4 1_555 1_555
H42_4 C62_4 1_555 1_555
C63_4 C62_4 1_555 1_555
C64_4 C63_4 1_555 1_555
H43_4 C64_4 1_555 1_555
C65_4 C60_4 1_555 1_555
H44_4 C65_4 1_555 1_555
C66_4 C63_4 1_555 1_555
C67_4 C66_4 1_555 1_555
H45_4 C67_4 1_555 1_555
C68_4 N6_4 1_555 1_555
H46_4 C68_4 1_555 1_555
C69_4 N6_4 1_555 1_555
H47_4 C69_4 1_555 1_555
C70_4 C66_4 1_555 1_555
H48_4 C70_4 1_555 1_555
C71_4 C58_4 1_555 1_555
C72_4 C71_4 1_555 1_555
H49_4 C72_4 1_555 1_555
C73_4 C72_4 1_555 1_555
C74_4 C73_4 1_555 1_555
C75_4 C74_4 1_555 1_555
H51_4 C75_4 1_555 1_555
C76_4 C71_4 1_555 1_555
H52_4 C76_4 1_555 1_555
C77_4 C74_4 1_555 1_555
C82_4 C59_4 1_555 1_555
C83_4 C82_4 1_555 1_555
H57_4 C83_4 1_555 1_555
C84_4 C83_4 1_555 1_555
H58_4 C84_4 1_555 1_555
C85_4 C84_4 1_555 1_555
C86_4 C85_4 1_555 1_555
H59_4 C86_4 1_555 1_555
C87_4 C82_4 1_555 1_555
H60_4 C87_4 1_555 1_555
C88_4 C85_4 1_555 1_555
C89_4 C88_4 1_555 1_555
H61_4 C89_4 1_555 1_555
C117_4 O10_4 1_555 1_555
C118_4 C117_4 1_555 1_555
C119_4 C118_4 1_555 1_555
C120_4 C119_4 1_555 1_555
H77_4 C120_4 1_555 1_555
C121_4 C120_4 1_555 1_555
H78_4 C121_4 1_555 1_555
C122_4 C121_4 1_555 1_555
H79_4 C122_4 1_555 1_555
C123_4 C122_4 1_555 1_555
H80_4 C123_4 1_555 1_555
C124_4 C119_4 1_555 1_555
C125_4 C124_4 1_555 1_555
C126_4 C125_4 1_555 1_555
H81_4 C126_4 1_555 1_555
C127_4 C118_4 1_555 1_555
H82_4 C127_4 1_555 1_555
C128_4 C125_4 1_555 1_555
C129_4 O14_4 1_555 1_555
C130_4 C129_4 1_555 1_555
C131_4 C130_4 1_555 1_555
H83_4 C131_4 1_555 1_555
C132_4 C131_4 1_555 1_555
H84_4 C132_4 1_555 1_555
C133_4 C132_4 1_555 1_555
C134_4 C133_4 1_555 1_555
C135_4 C134_4 1_555 1_555
H85_4 C135_4 1_555 1_555
C136_4 C135_4 1_555 1_555
H86_4 C136_4 1_555 1_555
C137_4 C136_4 1_555 1_555
H87_4 C137_4 1_555 1_555
C138_4 C137_4 1_555 1_555
H88_4 C138_4 1_555 1_555
C139_4 C130_4 1_555 1_555
C140_4 O15_4 1_555 1_555
O16_4 C140_4 1_555 1_555
C4_4 C5_4 1_555 1_555
C10_3 C11_3 1_555 1_555
C18_3 C19_3 1_555 1_555
C23_4 C24_4 1_555 1_555
C29_3 C30_3 1_555 1_555
C32_4 C33_4 1_555 1_555
C34_4 C35_3 1_555 1_555
C40_6 C41_4 1_555 1_555
C45_4 C46_4 1_555 1_555
C56_4 C57_4 1_555 1_555
C64_4 C65_4 1_555 1_555
C67_4 C68_4 1_555 1_555
C69_4 C70_4 1_555 1_555
C75_4 C76_4 1_555 1_555
C86_4 C87_4 1_555 1_555
C123_4 C124_4 1_555 1_555
C126_4 C127_4 1_555 1_555
C133_4 C140_4 1_555 1_555
C134_4 C139_4 1_555 1_555
C138_4 C139_4 1_555 1_555
N12_2 C47_4 1_555 1_555
C47_4 H33_4 1_555 1_555
C48_4 C47_4 1_555 1_555
H34_4 C48_4 1_555 1_555
C49_4 C48_4 1_555 1_555
C51_4 N12_2 1_555 1_555
H53_4 C78_4 1_555 1_555
C10_4 C9_4 1_555 1_555
H7_4 C10_4 1_555 1_555
H8_4 C11_4 1_555 1_555
C12_4 C9_4 1_555 1_555
C13_4 C12_4 1_555 1_555
C14_4 C13_4 1_555 1_555
H11_4 C18_4 1_555 1_555
C19_4 C14_4 1_555 1_555
H12_4 C19_4 1_555 1_555
C25_4 C12_4 1_555 1_555
C29_4 C28_4 1_555 1_555
H19_4 C29_4 1_555 1_555
C30_4 C25_4 1_555 1_555
H20_4 C30_4 1_555 1_555
C31_4 C28_4 1_555 1_555
C35_4 C31_4 1_555 1_555
H24_4 C35_4 1_555 1_555
C36_4 C13_4 1_555 1_555
C10_4 C11_4 1_555 1_555
C18_4 C19_4 1_555 1_555
C29_4 C30_4 1_555 1_555

#END
