
###############################################################################
#
# This file contains modified crystal structure data generated from the
# MOF subset of the Cambridge Structural Database (CSD) v543 
# hosted by the Cambridge Crystallographic Data Centre (CCDC).
#
# This work is licensed under the Creative Commons
# Attribution-NonCommercial-ShareAlike 4.0 International License.
# To view a copy of this license, visit
# http://creativecommons.org/licenses/by-nc-sa/4.0/
# or send a letter to
# Creative Commons, PO Box 1866, Mountain View, CA 94042, USA.
#
# CIF created using the CSD Python API on 29 September 2022
# The structure has been converted into the P1 space group
# The structure has a 3D framework
# The original CSD entry FILTAY is in the hexagonal crystal system
# The original CSD entry FILTAY is in a Sohncke space group
# The framework has been calculated to contain at least 10.0% void space
# The void calculation uses a probe of radius 1.32A, grid spacing 0.4
#
###############################################################################

data_FILTAY
_chemical_formula_moiety         '(C188 H120 N12 O24 Zn7)n'
_symmetry_cell_setting           triclinic
_symmetry_space_group_name_H-M   'P 1'
_symmetry_Int_Tables_number      1
_space_group_name_Hall           'P 1'
loop_
_symmetry_equiv_pos_site_id
_symmetry_equiv_pos_as_xyz
1 x,y,z
_cell_length_a                   16.8016(18)
_cell_length_b                   16.8016(18)
_cell_length_c                   25.828(5)
_cell_angle_alpha                90
_cell_angle_beta                 90
_cell_angle_gamma                120
_cell_volume                     6314.26
loop_
_atom_site_label
_atom_site_type_symbol
_atom_site_fract_x
_atom_site_fract_y
_atom_site_fract_z
C30 C 0.0697(6) 0.7448(12) 0.6402(8)
H20 H 0.1064 0.7927 0.6178
C34 C 0.0500(7) 0.6313(9) 0.6893(7)
H23 H 0.0701 0.5921 0.7013
N3 N 0.1090(4) 0.7073(3) 0.6696(3)
Zn3 Zn 0.24697(4) 0.75303(4) 0.6667
C1 C 0.2552(12) 0.9303(6) 0.6931(8)
H1 H 0.2073 0.8936 0.7155
C5 C 0.3687(9) 0.9500(7) 0.6440(7)
H4 H 0.4079 0.9299 0.6320
C13 C 0.2647(10) 0.6751(11) 0.5913(6)
C14 C 0.2853(8) 0.6320(10) 0.5408(3)
C15 C 0.2373(8) 0.5356(8) 0.5410(4)
H9 H 0.1999 0.5012 0.5683
C16 C 0.2491(7) 0.4983(14) 0.5000
H10 H 0.2172 0.4344 0.5000
C17 C 0.3378(5) 0.6756(10) 0.5000
H11 H 0.3698 0.7395 0.5000
N1 N 0.2927(3) 0.8910(4) 0.6637(3)
O1 O 0.3122(13) 0.7582(11) 0.5879(4)
O2 O 0.2143(6) 0.6179(9) 0.6267(4)
C52 C 0.4104(15) 0.6751(11) 0.4087(6)
C53 C 0.3467(13) 0.6320(10) 0.4592(3)
C54 C 0.2983(11) 0.5356(8) 0.4590(4)
H36 H 0.3013 0.5012 0.4317
O3 O 0.4460(17) 0.7582(11) 0.4121(4)
O4 O 0.4036(11) 0.6179(9) 0.3733(4)
O9 O 0.2418(11) 0.6878(13) 0.7454(4)
O11 O 0.3821(9) 0.7857(6) 0.7066(4)
Zn6 Zn 0.50606(6) 0.75303(4) 0.3334
C18 C 0.6751(13) 0.7448(12) 0.3598(8)
H12 H 0.6863 0.7927 0.3822
C19 C 0.7388(12) 0.7138(10) 0.3575(7)
H13 H 0.7955 0.7475 0.3738
C20 C 0.7189(6) 0.6360(4) 0.3322(4)
C21 C 0.6425(14) 0.6046(12) 0.3061(9)
H14 H 0.6301 0.5589 0.2819
C22 C 0.5813(11) 0.6313(9) 0.3107(7)
H15 H 0.5220 0.5921 0.2987
C23 C 0.7821(6) 0.5980(4) 0.3335(3)
C24 C 0.8520(7) 0.6280(5) 0.3680(3)
H16 H 0.8596 0.6722 0.3923
C25 C 0.9126(7) 0.5943(6) 0.3682(3)
H17 H 0.9626 0.6190 0.3907
C26 C 0.8980(6) 0.5222(4) 0.3339(4)
C27 C 0.8239(7) 0.4898(5) 0.2987(3)
H18 H 0.8128 0.4425 0.2760
C28 C 0.7675(6) 0.5288(4) 0.2980(4)
H19 H 0.7200 0.5087 0.2739
C29 C 0.9550(4) 0.4775(3) 0.3334
N2 N 0.5983(5) 0.7073(3) 0.3304(3)
C42 C 0.7388(12) 0.0250(6) 0.3092(7)
H29 H 0.7955 0.0480 0.2929
C43 C 0.7189(6) 0.0829(4) 0.3345(4)
C44 C 0.6425(14) 0.0379(8) 0.3606(9)
H30 H 0.6301 0.0712 0.3848
C46 C 0.7821(6) 0.1841(4) 0.3332(3)
C47 C 0.8520(7) 0.2240(5) 0.2987(3)
H32 H 0.8596 0.1874 0.2744
C48 C 0.9126(7) 0.3183(4) 0.2985(3)
H33 H 0.9626 0.3436 0.2760
C49 C 0.8980(6) 0.3758(4) 0.3328(4)
C50 C 0.8239(7) 0.3341(5) 0.3680(3)
H34 H 0.8128 0.3703 0.3907
C51 C 0.7675(6) 0.2387(5) 0.3687(4)
H35 H 0.7200 0.2113 0.3928
C41 C 0.6751(13) 0.9303(6) 0.3069(8)
H28 H 0.6863 0.8936 0.2845
C45 C 0.5813(11) 0.9500(7) 0.3560(7)
H31 H 0.5220 0.9299 0.3680
N4 N 0.5983(5) 0.8910(4) 0.3363(3)
C55 C 0.4104(15) 0.7353(10) 0.2580(6)
C56 C 0.3467(13) 0.7147(8) 0.2075(3)
C57 C 0.2983(11) 0.7627(8) 0.2077(4)
H37 H 0.3013 0.8001 0.2350
C58 C 0.2492(16) 0.7509(7) 0.1667
H38 H 0.2172 0.7828 0.1667
C59 C 0.3378(11) 0.6622(5) 0.1667
H39 H 0.3697 0.6302 0.1667
O5 O 0.4460(17) 0.6878(13) 0.2546(4)
O6 O 0.4036(11) 0.7857(6) 0.2934(4)
C60 C 0.2647(19) 0.5896(15) 0.0754(6)
C61 C 0.2853(16) 0.6533(13) 0.1259(3)
C62 C 0.2373(14) 0.7017(11) 0.1257(4)
H40 H 0.1999 0.6987 0.0984
O7 O 0.3122(20) 0.5540(17) 0.0788(4)
O8 O 0.2143(14) 0.5964(11) 0.0400(4)
Zn4 Zn 0.24697(7) 0.49394(6) 0.0000
Zn4_2 Zn 0.24697(7) 0.49394(6) 1.0000
C1_2 C 0.0697(6) 0.3249(13) 0.0264(8)
H1_2 H 0.1064 0.3137 0.0488
N6 N 0.2927(3) 0.4017(5) 0.0030(3)
C5_2 C 0.0500(7) 0.4187(11) 0.9773(7)
H4_2 H 0.0701 0.4780 0.9653
C13_2 C 0.3249(11) 0.5896(15) 0.9246(6)
C14_2 C 0.3680(10) 0.6533(13) 0.8741(3)
C15_2 C 0.4644(8) 0.7017(11) 0.8743(4)
H9_2 H 0.4988 0.6987 0.9016
C16_2 C 0.5017(14) 0.7508(16) 0.8333
H10_2 H 0.5656 0.7828 0.8333
C17_2 C 0.3244(10) 0.6622(11) 0.8333
H11_2 H 0.2605 0.6303 0.8333
N1_2 N 0.1090(4) 0.4017(5) 0.9970(3)
O1_2 O 0.2418(11) 0.5540(17) 0.9212(4)
O2_2 O 0.3821(9) 0.5964(11) 0.9600(4)
C52_2 C 0.3249(11) 0.7353(19) 0.7420(6)
C53_2 C 0.3680(10) 0.7147(16) 0.7925(3)
C54_2 C 0.4644(8) 0.7627(14) 0.7923(4)
H36_2 H 0.4988 0.8001 0.7650
C2 C 0.9750(6) 0.2612(12) 0.0241(7)
H2 H 0.9520 0.2045 0.0404
C6 C 0.8159(4) 0.2179(6) 0.0001(3)
C7 C 0.7760(5) 0.1480(7) 0.0346(3)
H5 H 0.8126 0.1404 0.0589
C8 C 0.6817(4) 0.0874(7) 0.0348(3)
H6 H 0.6564 0.0374 0.0573
C9 C 0.6242(4) 0.1020(6) 0.0005(4)
C12 C 0.5225(3) 0.0450(4) 0.0000
C32 C 0.3640(4) 0.2811(6) 0.0012(4)
C33 C 0.3954(12) 0.3575(14) 0.0273(9)
H22 H 0.4411 0.3699 0.0515
C34_2 C 0.3687(9) 0.4187(11) 0.0227(7)
H23_2 H 0.4079 0.4780 0.0347
C39 C 0.5102(5) 0.1761(7) 0.0347(3)
H26 H 0.5575 0.1872 0.0574
C40 C 0.4712(4) 0.2325(6) 0.0354(4)
H27 H 0.4913 0.2800 0.0595
C3 C 0.9171(4) 0.2811(6) 0.9988(4)
C4 C 0.9621(8) 0.3575(14) 0.9727(9)
H3 H 0.9288 0.3699 0.9485
C10 C 0.6659(5) 0.1761(7) 0.9653(3)
H7 H 0.6297 0.1872 0.9426
C11 C 0.7613(5) 0.2325(6) 0.9646(4)
H8 H 0.7887 0.2800 0.9405
C12_2 C 0.5225(3) 0.0450(4) 1.0000
C30_2 C 0.2552(12) 0.3249(13) 0.9736(8)
H20_2 H 0.2073 0.3137 0.9512
C31 C 0.2862(10) 0.2612(12) 0.9759(7)
H21 H 0.2525 0.2045 0.9596
C35 C 0.4020(4) 0.2179(6) 0.9999(3)
C36 C 0.3720(5) 0.1480(7) 0.9654(3)
H24 H 0.3278 0.1404 0.9411
C37 C 0.4057(6) 0.0874(7) 0.9652(3)
H25 H 0.3810 0.0374 0.9427
C38 C 0.4778(4) 0.1020(6) 0.9995(4)
C18_2 C 0.7448(12) 0.0697(6) 0.6931(8)
H12_2 H 0.7927 0.1064 0.7155
C22_2 C 0.6313(9) 0.0500(7) 0.6440(7)
H15_2 H 0.5921 0.0701 0.6320
N2_2 N 0.7073(3) 0.1090(4) 0.6637(3)
Zn5 Zn 0.75303(4) 0.24697(4) 0.6667
C41_2 C 0.9303(6) 0.2552(12) 0.6402(8)
H28_2 H 0.8936 0.2073 0.6178
C45_2 C 0.9500(7) 0.3687(9) 0.6893(7)
H31_2 H 0.9299 0.4079 0.7013
N4_2 N 0.8910(4) 0.2927(3) 0.6696(3)
C55_2 C 0.7353(10) 0.3249(11) 0.5913(6)
C56_2 C 0.7147(8) 0.3680(10) 0.5408(3)
C57_2 C 0.7627(8) 0.4644(8) 0.5410(4)
H37_2 H 0.8001 0.4988 0.5683
C58_2 C 0.7509(7) 0.5017(14) 0.5000
H38_2 H 0.7828 0.5656 0.5000
C59_2 C 0.6622(5) 0.3244(10) 0.5000
H39_2 H 0.6302 0.2605 0.5000
O5_2 O 0.6878(13) 0.2418(11) 0.5879(4)
O6_2 O 0.7857(6) 0.3821(9) 0.6267(4)
C60_2 C 0.5896(15) 0.3249(11) 0.4087(6)
C61_2 C 0.6533(13) 0.3680(10) 0.4592(3)
C62_2 C 0.7017(11) 0.4644(8) 0.4590(4)
H40_2 H 0.6987 0.4988 0.4317
O7_2 O 0.5540(17) 0.2418(11) 0.4121(4)
O8_2 O 0.5964(11) 0.3821(9) 0.3733(4)
O10 O 0.7582(11) 0.3122(13) 0.7454(4)
O12 O 0.6179(9) 0.2143(6) 0.7066(4)
Zn4_3 Zn 0.49394(6) 0.24697(4) 0.3334
C30_3 C 0.3249(13) 0.0697(6) 0.3069(8)
H20_3 H 0.3137 0.1064 0.2845
C34_3 C 0.4187(11) 0.0500(7) 0.3560(7)
H23_3 H 0.4780 0.0701 0.3680
N3_2 N 0.4017(5) 0.1090(4) 0.3363(3)
C1_3 C 0.3249(13) 0.2552(12) 0.3598(8)
H1_3 H 0.3137 0.2073 0.3822
C2_2 C 0.2612(12) 0.2862(10) 0.3575(7)
H2_2 H 0.2045 0.2525 0.3738
C3_2 C 0.2811(6) 0.3640(4) 0.3322(4)
C4_2 C 0.3575(14) 0.3954(12) 0.3061(9)
H3_2 H 0.3699 0.4411 0.2819
C5_3 C 0.4187(11) 0.3687(9) 0.3107(7)
H4_3 H 0.4780 0.4079 0.2987
C6_2 C 0.2179(6) 0.4020(4) 0.3335(3)
C7_2 C 0.1480(7) 0.3720(5) 0.3680(3)
H5_2 H 0.1404 0.3278 0.3923
C8_2 C 0.0874(7) 0.4057(6) 0.3682(3)
H6_2 H 0.0374 0.3810 0.3907
C9_2 C 0.1020(6) 0.4778(4) 0.3339(4)
C10_2 C 0.1761(7) 0.5102(5) 0.2987(3)
H7_2 H 0.1872 0.5575 0.2760
C11_2 C 0.2325(6) 0.4712(4) 0.2980(4)
H8_2 H 0.2800 0.4913 0.2739
C12_3 C 0.0450(4) 0.5225(3) 0.3334
C13_3 C 0.5896(15) 0.2647(10) 0.2580(6)
C14_3 C 0.6533(13) 0.2853(8) 0.2075(3)
C15_3 C 0.7017(11) 0.2373(8) 0.2077(4)
H9_3 H 0.6987 0.1999 0.2350
C16_3 C 0.7508(16) 0.2491(7) 0.1667
H10_3 H 0.7828 0.2172 0.1667
C17_3 C 0.6622(11) 0.3378(5) 0.1667
H11_3 H 0.6303 0.3698 0.1667
N1_3 N 0.4017(5) 0.2927(3) 0.3304(3)
O1_3 O 0.5540(17) 0.3122(13) 0.2546(4)
O2_3 O 0.5964(11) 0.2143(6) 0.2934(4)
C31_2 C 0.2612(12) 0.9750(6) 0.3092(7)
H21_2 H 0.2045 0.9520 0.2929
C32_2 C 0.2811(6) 0.9171(4) 0.3345(4)
C33_2 C 0.3575(14) 0.9621(8) 0.3606(9)
H22_2 H 0.3699 0.9288 0.3848
C35_2 C 0.2179(6) 0.8159(4) 0.3332(3)
C36_2 C 0.1480(7) 0.7760(5) 0.2987(3)
H24_2 H 0.1404 0.8126 0.2744
C37_2 C 0.0874(7) 0.6817(4) 0.2985(3)
H25_2 H 0.0374 0.6564 0.2760
C38_2 C 0.1020(6) 0.6242(4) 0.3328(4)
C39_2 C 0.1761(7) 0.6659(5) 0.3680(3)
H26_2 H 0.1872 0.6297 0.3907
C40_2 C 0.2325(6) 0.7613(5) 0.3687(4)
H27_2 H 0.2800 0.7887 0.3928
C52_3 C 0.7353(19) 0.4104(15) 0.0754(6)
C53_3 C 0.7147(16) 0.3467(13) 0.1259(3)
C54_3 C 0.7627(14) 0.2983(11) 0.1257(4)
H36_3 H 0.8001 0.3013 0.0984
O3_2 O 0.6878(20) 0.4460(17) 0.0788(4)
O4_2 O 0.7857(14) 0.4036(11) 0.0400(4)
Zn6_2 Zn 0.75303(7) 0.50606(6) 0.0000
Zn6_3 Zn 0.75303(7) 0.50606(6) 1.0000
C19_2 C 0.0250(6) 0.7388(12) 0.0241(7)
H13_2 H 0.0480 0.7955 0.0404
C23_2 C 0.1841(4) 0.7821(6) 0.0001(3)
C24_2 C 0.2240(5) 0.8520(7) 0.0346(3)
H16_2 H 0.1874 0.8596 0.0589
C25_2 C 0.3183(4) 0.9126(7) 0.0348(3)
H17_2 H 0.3436 0.9626 0.0573
C26_2 C 0.3758(4) 0.8980(6) 0.0005(4)
C29_2 C 0.4775(3) 0.9550(4) 0.0000
C43_2 C 0.6360(4) 0.7189(6) 0.0012(4)
C44_2 C 0.6046(12) 0.6425(14) 0.0273(9)
H30_2 H 0.5589 0.6301 0.0515
C45_3 C 0.6313(9) 0.5813(11) 0.0227(7)
H31_3 H 0.5921 0.5220 0.0347
C50_2 C 0.4898(5) 0.8239(7) 0.0347(3)
H34_2 H 0.4425 0.8128 0.0574
C51_2 C 0.5288(4) 0.7675(6) 0.0354(4)
H35_2 H 0.5087 0.7200 0.0595
N4_3 N 0.7073(3) 0.5983(5) 0.0030(3)
C20_2 C 0.0829(4) 0.7189(6) 0.9988(4)
C21_2 C 0.0379(8) 0.6425(14) 0.9727(9)
H14_2 H 0.0712 0.6301 0.9485
C27_2 C 0.3341(5) 0.8239(7) 0.9653(3)
H18_2 H 0.3703 0.8128 0.9426
C28_2 C 0.2387(5) 0.7675(6) 0.9646(4)
H19_2 H 0.2113 0.7200 0.9405
C29_3 C 0.4775(3) 0.9550(4) 1.0000
C41_3 C 0.7448(12) 0.6751(13) 0.9736(8)
H28_3 H 0.7927 0.6863 0.9512
C42_2 C 0.7138(10) 0.7388(12) 0.9759(7)
H29_2 H 0.7475 0.7955 0.9596
C46_2 C 0.5980(4) 0.7821(6) 0.9999(3)
C47_2 C 0.6280(5) 0.8520(7) 0.9654(3)
H32_2 H 0.6722 0.8596 0.9411
C48_2 C 0.5943(6) 0.9126(7) 0.9652(3)
H33_2 H 0.6190 0.9626 0.9427
C49_2 C 0.5222(4) 0.8980(6) 0.9995(4)
C55_3 C 0.6751(11) 0.4104(15) 0.9246(6)
C56_3 C 0.6320(10) 0.3467(13) 0.8741(3)
C57_3 C 0.5356(8) 0.2983(11) 0.8743(4)
H37_3 H 0.5012 0.3013 0.9016
C58_3 C 0.4983(14) 0.2492(16) 0.8333
H38_3 H 0.4344 0.2172 0.8333
C59_3 C 0.6756(10) 0.3378(11) 0.8333
H39_3 H 0.7395 0.3697 0.8333
O5_3 O 0.7582(11) 0.4460(17) 0.9212(4)
O6_3 O 0.6179(9) 0.4036(11) 0.9600(4)
C60_3 C 0.6751(11) 0.2647(19) 0.7420(6)
C61_3 C 0.6320(10) 0.2853(16) 0.7925(3)
C62_3 C 0.5356(8) 0.2373(14) 0.7923(4)
H40_3 H 0.5012 0.1999 0.7650
N5 N 0.8910(4) 0.5983(5) 0.9970(3)
C18_3 C 0.9303(6) 0.6751(13) 0.0264(8)
H12_3 H 0.8936 0.6863 0.0488
C22_3 C 0.9500(7) 0.5813(11) 0.9773(7)
H15_3 H 0.9299 0.5220 0.9653
C2_3 C 0.2862(10) 0.0250(6) 0.6908(7)
H2_3 H 0.2525 0.0480 0.7071
C3_3 C 0.3640(4) 0.0829(4) 0.6655(4)
C4_3 C 0.3954(12) 0.0379(8) 0.6394(9)
H3_3 H 0.4411 0.0712 0.6152
C6_3 C 0.4020(4) 0.1841(4) 0.6668(3)
C7_3 C 0.3720(5) 0.2240(5) 0.7013(3)
H5_3 H 0.3278 0.1874 0.7256
C8_3 C 0.4057(6) 0.3183(4) 0.7015(3)
H6_3 H 0.3810 0.3436 0.7240
C9_3 C 0.4778(4) 0.3758(4) 0.6672(4)
C10_3 C 0.5102(5) 0.3341(5) 0.6320(3)
H7_3 H 0.5575 0.3703 0.6093
C11_3 C 0.4712(4) 0.2387(5) 0.6313(4)
H8_3 H 0.4913 0.2113 0.6072
C12_4 C 0.5225(3) 0.4775(3) 0.6667
C19_3 C 0.7138(10) 0.9750(6) 0.6908(7)
H13_3 H 0.7475 0.9520 0.7071
C20_3 C 0.6360(4) 0.9171(4) 0.6655(4)
C21_3 C 0.6046(12) 0.9621(8) 0.6394(9)
H14_3 H 0.5589 0.9288 0.6152
C23_3 C 0.5980(4) 0.8159(4) 0.6668(3)
C24_3 C 0.6280(5) 0.7760(5) 0.7013(3)
H16_3 H 0.6722 0.8126 0.7256
C25_3 C 0.5943(6) 0.6817(4) 0.7015(3)
H17_3 H 0.6190 0.6564 0.7240
C26_3 C 0.5222(4) 0.6242(4) 0.6672(4)
C27_3 C 0.4898(5) 0.6659(5) 0.6320(3)
H18_3 H 0.4425 0.6297 0.6093
C28_3 C 0.5288(4) 0.7613(5) 0.6313(4)
H19_3 H 0.5087 0.7887 0.6072
C29_4 C 0.4775(3) 0.5225(3) 0.6667
C31_3 C 0.9750(6) 0.7138(10) 0.6425(7)
H21_3 H 0.9520 0.7475 0.6262
C32_3 C 0.9171(4) 0.6360(4) 0.6678(4)
C33_3 C 0.9621(8) 0.6046(12) 0.6939(9)
H22_3 H 0.9288 0.5589 0.7181
C35_3 C 0.8159(4) 0.5980(4) 0.6665(3)
C36_3 C 0.7760(5) 0.6280(5) 0.6320(3)
H24_3 H 0.8126 0.6722 0.6077
C37_3 C 0.6817(4) 0.5943(6) 0.6318(3)
H25_3 H 0.6564 0.6190 0.6093
C38_3 C 0.6242(4) 0.5222(4) 0.6661(4)
C39_3 C 0.6659(5) 0.4898(5) 0.7013(3)
H26_3 H 0.6297 0.4425 0.7240
C40_3 C 0.7613(5) 0.5288(4) 0.7020(4)
H27_3 H 0.7887 0.5087 0.7261
C42_3 C 0.0250(6) 0.2862(10) 0.6425(7)
H29_3 H 0.0480 0.2525 0.6262
C43_3 C 0.0829(4) 0.3640(4) 0.6678(4)
C44_3 C 0.0379(8) 0.3954(12) 0.6939(9)
H30_3 H 0.0712 0.4411 0.7181
C46_3 C 0.1841(4) 0.4020(4) 0.6665(3)
C47_3 C 0.2240(5) 0.3720(5) 0.6320(3)
H32_3 H 0.1874 0.3278 0.6077
C48_3 C 0.3183(4) 0.4057(6) 0.6318(3)
H33_3 H 0.3436 0.3810 0.6093
C49_3 C 0.3758(4) 0.4778(4) 0.6661(4)
C50_3 C 0.3341(5) 0.5102(5) 0.7013(3)
H34_3 H 0.3703 0.5575 0.7240
C51_3 C 0.2387(5) 0.4712(4) 0.7020(4)
H35_3 H 0.2113 0.4913 0.7261
loop_
_geom_bond_atom_site_label_1
_geom_bond_atom_site_label_2
_geom_bond_site_symmetry_1
_geom_bond_site_symmetry_2
C30 H20 1_555 1_555
H23 C34 1_555 1_555
N3 C30 1_555 1_555
Zn3 N3 1_555 1_555
C34 N3 1_555 1_555
C1 H1 1_555 1_555
H4 C5 1_555 1_555
C13 C14 1_555 1_555
C14 C15 1_555 1_555
C15 H9 1_555 1_555
C16 C15 1_555 1_555
H10 C16 1_555 1_555
C17 C14 1_555 1_555
H11 C17 1_555 1_555
N1 C1 1_555 1_555
O1 C13 1_555 1_555
O2 C13 1_555 1_555
Zn3 N1 1_555 1_555
C52 C53 1_555 1_555
C53 C17 1_555 1_555
C54 C16 1_555 1_555
H36 C54 1_555 1_555
O3 C52 1_555 1_555
O4 C52 1_555 1_555
O9 Zn3 1_555 1_555
O11 Zn3 1_555 1_555
Zn6 O3 1_555 1_555
C5 N1 1_555 1_555
O1 Zn3 1_555 1_555
O2 Zn3 1_555 1_555
C53 C54 1_555 1_555
O4 Zn6 1_555 1_555
C18 H12 1_555 1_555
C19 C18 1_555 1_555
H13 C19 1_555 1_555
C20 C19 1_555 1_555
C21 C20 1_555 1_555
H14 C21 1_555 1_555
C22 C21 1_555 1_555
H15 C22 1_555 1_555
C23 C20 1_555 1_555
C24 C23 1_555 1_555
H16 C24 1_555 1_555
C25 C24 1_555 1_555
H17 C25 1_555 1_555
C26 C25 1_555 1_555
C27 C26 1_555 1_555
H18 C27 1_555 1_555
C28 C23 1_555 1_555
H19 C28 1_555 1_555
N2 C18 1_555 1_555
H29 C42 1_555 1_555
C43 C42 1_555 1_555
C44 C43 1_555 1_555
H30 C44 1_555 1_555
C46 C43 1_555 1_555
C47 C46 1_555 1_555
H32 C47 1_555 1_555
C48 C47 1_555 1_555
H33 C48 1_555 1_555
C49 C29 1_555 1_555
C50 C49 1_555 1_555
H34 C50 1_555 1_555
C51 C46 1_555 1_555
H35 C51 1_555 1_555
Zn6 N2 1_555 1_555
C22 N2 1_555 1_555
C26 C29 1_555 1_555
C27 C28 1_555 1_555
C48 C49 1_555 1_555
C50 C51 1_555 1_555
C41 H28 1_555 1_555
H31 C45 1_555 1_555
N4 C41 1_555 1_555
C55 C56 1_555 1_555
C56 C57 1_555 1_555
C57 H37 1_555 1_555
C58 C57 1_555 1_555
H38 C58 1_555 1_555
C59 C56 1_555 1_555
H39 C59 1_555 1_555
O5 C55 1_555 1_555
O6 C55 1_555 1_555
Zn6 N4 1_555 1_555
C60 C61 1_555 1_555
C61 C59 1_555 1_555
C62 C58 1_555 1_555
H40 C62 1_555 1_555
O7 C60 1_555 1_555
O8 C60 1_555 1_555
Zn4 O7 1_555 1_555
C45 N4 1_555 1_555
O5 Zn6 1_555 1_555
O6 Zn6 1_555 1_555
C61 C62 1_555 1_555
O8 Zn4 1_555 1_555
C1_2 H1_2 1_555 1_555
N6 Zn4 1_555 1_555
H4_2 C5_2 1_555 1_555
C13_2 C14_2 1_555 1_555
C14_2 C15_2 1_555 1_555
C15_2 H9_2 1_555 1_555
C16_2 C15_2 1_555 1_555
H10_2 C16_2 1_555 1_555
C17_2 C14_2 1_555 1_555
H11_2 C17_2 1_555 1_555
O1_2 C13_2 1_555 1_555
O2_2 C13_2 1_555 1_555
Zn4_2 N1_2 1_555 1_555
C52_2 C53_2 1_555 1_555
C53_2 C17_2 1_555 1_555
C54_2 C16_2 1_555 1_555
H36_2 C54_2 1_555 1_555
O9 C52_2 1_555 1_555
O11 C52_2 1_555 1_555
C5_2 N1_2 1_555 1_555
O1_2 Zn4_2 1_555 1_555
O2_2 Zn4_2 1_555 1_555
C53_2 C54_2 1_555 1_555
H2 C2 1_555 1_555
C7 C6 1_555 1_555
H5 C7 1_555 1_555
C8 C7 1_555 1_555
H6 C8 1_555 1_555
C9 C8 1_555 1_555
C12 C9 1_555 1_555
C33 C32 1_555 1_555
H22 C33 1_555 1_555
C34_2 C33 1_555 1_555
H23_2 C34_2 1_555 1_555
H26 C39 1_555 1_555
H27 C40 1_555 1_555
C34_2 N6 1_555 1_555
C39 C40 1_555 1_555
C4 C3 1_555 1_555
H3 C4 1_555 1_555
H7 C10 1_555 1_555
H8 C11 1_555 1_555
C30_2 H20_2 1_555 1_555
C31 C30_2 1_555 1_555
H21 C31 1_555 1_555
C36 C35 1_555 1_555
H24 C36 1_555 1_555
C37 C36 1_555 1_555
H25 C37 1_555 1_555
C38 C12_2 1_555 1_555
C10 C11 1_555 1_555
C37 C38 1_555 1_555
C18_2 H12_2 1_555 1_555
H15_2 C22_2 1_555 1_555
N2_2 C18_2 1_555 1_555
Zn5 N2_2 1_555 1_555
C22_2 N2_2 1_555 1_555
C41_2 H28_2 1_555 1_555
H31_2 C45_2 1_555 1_555
N4_2 C41_2 1_555 1_555
C55_2 C56_2 1_555 1_555
C56_2 C57_2 1_555 1_555
C57_2 H37_2 1_555 1_555
C58_2 C57_2 1_555 1_555
H38_2 C58_2 1_555 1_555
C59_2 C56_2 1_555 1_555
H39_2 C59_2 1_555 1_555
O5_2 C55_2 1_555 1_555
O6_2 C55_2 1_555 1_555
Zn5 N4_2 1_555 1_555
C60_2 C61_2 1_555 1_555
C61_2 C59_2 1_555 1_555
C62_2 C58_2 1_555 1_555
H40_2 C62_2 1_555 1_555
O7_2 C60_2 1_555 1_555
O8_2 C60_2 1_555 1_555
O10 Zn5 1_555 1_555
O12 Zn5 1_555 1_555
Zn4_3 O7_2 1_555 1_555
C45_2 N4_2 1_555 1_555
O5_2 Zn5 1_555 1_555
O6_2 Zn5 1_555 1_555
C61_2 C62_2 1_555 1_555
O8_2 Zn4_3 1_555 1_555
C30_3 H20_3 1_555 1_555
H23_3 C34_3 1_555 1_555
N3_2 C30_3 1_555 1_555
Zn4_3 N3_2 1_555 1_555
C34_3 N3_2 1_555 1_555
C1_3 H1_3 1_555 1_555
C2_2 C1_3 1_555 1_555
H2_2 C2_2 1_555 1_555
C3_2 C2_2 1_555 1_555
C4_2 C3_2 1_555 1_555
H3_2 C4_2 1_555 1_555
C5_3 C4_2 1_555 1_555
H4_3 C5_3 1_555 1_555
C6_2 C3_2 1_555 1_555
C7_2 C6_2 1_555 1_555
H5_2 C7_2 1_555 1_555
C8_2 C7_2 1_555 1_555
H6_2 C8_2 1_555 1_555
C9_2 C8_2 1_555 1_555
C10_2 C9_2 1_555 1_555
H7_2 C10_2 1_555 1_555
C11_2 C6_2 1_555 1_555
H8_2 C11_2 1_555 1_555
C12_3 C9_2 1_555 1_555
C13_3 C14_3 1_555 1_555
C14_3 C15_3 1_555 1_555
C15_3 H9_3 1_555 1_555
C16_3 C15_3 1_555 1_555
H10_3 C16_3 1_555 1_555
C17_3 C14_3 1_555 1_555
H11_3 C17_3 1_555 1_555
N1_3 C1_3 1_555 1_555
O1_3 C13_3 1_555 1_555
O2_3 C13_3 1_555 1_555
Zn4_3 N1_3 1_555 1_555
H21_2 C31_2 1_555 1_555
C32_2 C31_2 1_555 1_555
C33_2 C32_2 1_555 1_555
H22_2 C33_2 1_555 1_555
C35_2 C32_2 1_555 1_555
C36_2 C35_2 1_555 1_555
H24_2 C36_2 1_555 1_555
C37_2 C36_2 1_555 1_555
H25_2 C37_2 1_555 1_555
C38_2 C12_3 1_555 1_555
C39_2 C38_2 1_555 1_555
H26_2 C39_2 1_555 1_555
C40_2 C35_2 1_555 1_555
H27_2 C40_2 1_555 1_555
C52_3 C53_3 1_555 1_555
C53_3 C17_3 1_555 1_555
C54_3 C16_3 1_555 1_555
H36_3 C54_3 1_555 1_555
O3_2 C52_3 1_555 1_555
O4_2 C52_3 1_555 1_555
Zn6_2 O3_2 1_555 1_555
C5_3 N1_3 1_555 1_555
C10_2 C11_2 1_555 1_555
O1_3 Zn4_3 1_555 1_555
O2_3 Zn4_3 1_555 1_555
C37_2 C38_2 1_555 1_555
C39_2 C40_2 1_555 1_555
C53_3 C54_3 1_555 1_555
O4_2 Zn6_2 1_555 1_555
H13_2 C19_2 1_555 1_555
C24_2 C23_2 1_555 1_555
H16_2 C24_2 1_555 1_555
C25_2 C24_2 1_555 1_555
H17_2 C25_2 1_555 1_555
C26_2 C25_2 1_555 1_555
C44_2 C43_2 1_555 1_555
H30_2 C44_2 1_555 1_555
C45_3 C44_2 1_555 1_555
H31_3 C45_3 1_555 1_555
H34_2 C50_2 1_555 1_555
H35_2 C51_2 1_555 1_555
Zn6_2 N4_3 1_555 1_555
C26_2 C29_2 1_555 1_555
C45_3 N4_3 1_555 1_555
C50_2 C51_2 1_555 1_555
C21_2 C20_2 1_555 1_555
H14_2 C21_2 1_555 1_555
H18_2 C27_2 1_555 1_555
H19_2 C28_2 1_555 1_555
C41_3 H28_3 1_555 1_555
C42_2 C41_3 1_555 1_555
H29_2 C42_2 1_555 1_555
C47_2 C46_2 1_555 1_555
H32_2 C47_2 1_555 1_555
C48_2 C47_2 1_555 1_555
H33_2 C48_2 1_555 1_555
C49_2 C29_3 1_555 1_555
C55_3 C56_3 1_555 1_555
C56_3 C57_3 1_555 1_555
C57_3 H37_3 1_555 1_555
C58_3 C57_3 1_555 1_555
H38_3 C58_3 1_555 1_555
C59_3 C56_3 1_555 1_555
H39_3 C59_3 1_555 1_555
O5_3 C55_3 1_555 1_555
O6_3 C55_3 1_555 1_555
C60_3 C61_3 1_555 1_555
C61_3 C59_3 1_555 1_555
C62_3 C58_3 1_555 1_555
H40_3 C62_3 1_555 1_555
O10 C60_3 1_555 1_555
O12 C60_3 1_555 1_555
N5 Zn6_3 1_555 1_555
C27_2 C28_2 1_555 1_555
C48_2 C49_2 1_555 1_555
O5_3 Zn6_3 1_555 1_555
O6_3 Zn6_3 1_555 1_555
C61_3 C62_3 1_555 1_555
C18_3 H12_3 1_555 1_555
H15_3 C22_3 1_555 1_555
C22_3 N5 1_555 1_555
H2_3 C2_3 1_555 1_555
C3_3 C2_3 1_555 1_555
C4_3 C3_3 1_555 1_555
H3_3 C4_3 1_555 1_555
C6_3 C3_3 1_555 1_555
C7_3 C6_3 1_555 1_555
H5_3 C7_3 1_555 1_555
C8_3 C7_3 1_555 1_555
H6_3 C8_3 1_555 1_555
C9_3 C8_3 1_555 1_555
C10_3 C9_3 1_555 1_555
H7_3 C10_3 1_555 1_555
C11_3 C6_3 1_555 1_555
H8_3 C11_3 1_555 1_555
C12_4 C9_3 1_555 1_555
H13_3 C19_3 1_555 1_555
C20_3 C19_3 1_555 1_555
C21_3 C20_3 1_555 1_555
H14_3 C21_3 1_555 1_555
C23_3 C20_3 1_555 1_555
C24_3 C23_3 1_555 1_555
H16_3 C24_3 1_555 1_555
C25_3 C24_3 1_555 1_555
H17_3 C25_3 1_555 1_555
C26_3 C25_3 1_555 1_555
C27_3 C26_3 1_555 1_555
H18_3 C27_3 1_555 1_555
C28_3 C23_3 1_555 1_555
H19_3 C28_3 1_555 1_555
C29_4 C12_4 1_555 1_555
H21_3 C31_3 1_555 1_555
C32_3 C31_3 1_555 1_555
C33_3 C32_3 1_555 1_555
H22_3 C33_3 1_555 1_555
C35_3 C32_3 1_555 1_555
C36_3 C35_3 1_555 1_555
H24_3 C36_3 1_555 1_555
C37_3 C36_3 1_555 1_555
H25_3 C37_3 1_555 1_555
C38_3 C12_4 1_555 1_555
C39_3 C38_3 1_555 1_555
H26_3 C39_3 1_555 1_555
C40_3 C35_3 1_555 1_555
H27_3 C40_3 1_555 1_555
H29_3 C42_3 1_555 1_555
C43_3 C42_3 1_555 1_555
C44_3 C43_3 1_555 1_555
H30_3 C44_3 1_555 1_555
C46_3 C43_3 1_555 1_555
C47_3 C46_3 1_555 1_555
H32_3 C47_3 1_555 1_555
C48_3 C47_3 1_555 1_555
H33_3 C48_3 1_555 1_555
C49_3 C29_4 1_555 1_555
C50_3 C49_3 1_555 1_555
H34_3 C50_3 1_555 1_555
C51_3 C46_3 1_555 1_555
H35_3 C51_3 1_555 1_555
C10_3 C11_3 1_555 1_555
C26_3 C29_4 1_555 1_555
C27_3 C28_3 1_555 1_555
C37_3 C38_3 1_555 1_555
C39_3 C40_3 1_555 1_555
C48_3 C49_3 1_555 1_555
C50_3 C51_3 1_555 1_555

#END
