
###############################################################################
#
# This file contains modified crystal structure data generated from the
# MOF subset of the Cambridge Structural Database (CSD) v543 
# hosted by the Cambridge Crystallographic Data Centre (CCDC).
#
# This work is licensed under the Creative Commons
# Attribution-NonCommercial-ShareAlike 4.0 International License.
# To view a copy of this license, visit
# http://creativecommons.org/licenses/by-nc-sa/4.0/
# or send a letter to
# Creative Commons, PO Box 1866, Mountain View, CA 94042, USA.
#
# CIF created using the CSD Python API on 29 September 2022
# The structure has been converted into the P1 space group
# The structure has a 3D framework
# The original CSD entry FILYEG is in the monoclinic crystal system
# The framework has been calculated to contain at least 10.0% void space
# The void calculation uses a probe of radius 1.32A, grid spacing 0.4
# H atom positions have been added when not included in the experimental data
#
###############################################################################

data_FILYEG
_chemical_formula_moiety         '(C160 H112 Co24 O98)n'
_symmetry_cell_setting           triclinic
_symmetry_space_group_name_H-M   'P 1'
_symmetry_Int_Tables_number      1
_space_group_name_Hall           'P 1'
loop_
_symmetry_equiv_pos_site_id
_symmetry_equiv_pos_as_xyz
1 x,y,z
_cell_length_a                   10.806(3)
_cell_length_b                   28.5540(14)
_cell_length_c                   24.3290(15)
_cell_angle_alpha                90
_cell_angle_beta                 93.658(5)
_cell_angle_gamma                90
_cell_volume                     7491.53
loop_
_atom_site_label
_atom_site_type_symbol
_atom_site_fract_x
_atom_site_fract_y
_atom_site_fract_z
C35 C 0.0714(12) 0.4966(6) 0.3849(5)
H18 H 0.0724 0.5138 0.3525
C36 C 0.1816(11) 0.4872(5) 0.4122(4)
H19 H 0.2564 0.4971 0.3993
C37 C 0.0670(8) 0.4436(3) 0.4773(4)
H20 H 0.0671 0.4244 0.5082
C38 C 0.2917(11) 0.4529(4) 0.4946(5)
O16 O 0.3854(6) 0.4789(2) 0.4875(3)
O17 O 0.2923(7) 0.4217(2) 0.5328(3)
C40 C 0.1763(10) 0.4609(4) 0.4623(4)
Co7 Co 0.56218(12) 0.45492(4) 0.46562(5)
Co8 Co 0.43782(12) 0.54508(4) 0.53438(5)
Co12 Co 0.44155(13) 0.41065(4) 0.58015(5)
C1 C 0.5482(9) 0.1430(4) 0.5639(4)
C2 C 0.4833(10) 0.1822(4) 0.5907(4)
C3 C 0.3901(13) 0.1744(4) 0.6262(5)
H1 H 0.3687 0.1439 0.6352
C4 C 0.3301(14) 0.2108(5) 0.6478(6)
H2 H 0.2656 0.2052 0.6704
C5 C 0.3622(13) 0.2554(5) 0.6370(5)
H3 H 0.3186 0.2799 0.6518
C6 C 0.4571(11) 0.2650(4) 0.6048(5)
C7 C 0.4946(12) 0.3135(4) 0.5928(5)
C8 C 0.5282(10) 0.3565(4) 0.4365(4)
C9 C 0.4570(10) 0.3184(4) 0.4078(4)
C10 C 0.3626(13) 0.3264(5) 0.3678(5)
H4 H 0.3419 0.3569 0.3574
C11 C 0.3008(14) 0.2899(5) 0.3441(6)
H5 H 0.2370 0.2956 0.3175
C12 C 0.3303(12) 0.2435(4) 0.3587(5)
H6 H 0.2818 0.2190 0.3442
C13 C 0.4271(9) 0.2345(3) 0.3932(4)
C14 C 0.4636(10) 0.1863(4) 0.4083(4)
C15 C 0.4930(11) 0.2714(4) 0.4185(5)
H7 H 0.5613 0.2652 0.4426
C16 C 0.2931(10) 0.0475(4) 0.5041(4)
C17 C 0.1909(11) 0.0398(4) 0.5363(4)
C18 C 0.0716(9) 0.0566(4) 0.5215(4)
H8 H 0.0595 0.0747 0.4898
O1 O 0.5480(7) 0.0076(3) 0.6060(3)
C21 C 0.1074(14) 0.0048(5) 0.6157(6)
C22 C 0.2070(12) 0.0150(4) 0.5877(5)
H11 H 0.2858 0.0060 0.6014
C24 C 0.5541(14) 0.0134(4) 0.7008(5)
C25 C 0.528(2) 0.0612(5) 0.7003(6)
H12 H 0.5154 0.0769 0.6670
C26 C 0.5216(15) 0.0852(6) 0.7498(6)
H13 H 0.5276 0.1177 0.7512
C27 C 0.5053(14) 0.0584(5) 0.7985(6)
H14 H 0.4720 0.0721 0.8289
C28 C 0.5391(14) 0.0122(4) 0.7998(4)
C31 C 0.5184(12) 0.2284(4) 0.5813(5)
H16 H 0.5835 0.2346 0.5592
C32 C 0.9522(11) 0.4534(4) 0.4482(4)
C33 C 0.8367(9) 0.4416(4) 0.4672(4)
C34 C 0.9516(12) 0.4818(5) 0.4027(5)
H17 H 0.8779 0.4911 0.3841
O3 O 0.5184(7) 0.0064(3) 0.8950(3)
O4 O 0.2839(7) 0.0768(3) 0.4649(3)
O5 O 0.3894(6) 0.0214(2) 0.5113(3)
O6 O 0.5010(7) 0.1030(2) 0.5663(3)
O7 O 0.6395(8) 0.1534(3) 0.5404(4)
O8 O 0.5672(10) 0.1815(4) 0.4328(5)
O9 O 0.3941(8) 0.1541(3) 0.3962(4)
O10 O 0.4830(7) 0.3971(2) 0.4317(3)
O11 O 0.6221(8) 0.3461(3) 0.4614(4)
O12 O 0.7366(7) 0.4526(3) 0.4438(3)
O13 O 0.8418(7) 0.4077(3) 0.5066(3)
O14 O 0.5958(10) 0.3189(3) 0.5715(5)
O15 O 0.4219(9) 0.3445(3) 0.5996(4)
O19 O 0.5916(6) 0.4234(2) 0.5424(2)
O20 O 0.5814(6) 0.0763(2) 0.4567(3)
Co2 Co 0.57173(12) 0.04517(4) 0.53349(5)
Co4 Co 0.41930(13) 0.08870(4) 0.41781(5)
Co5 Co 0.70980(14) 0.36609(5) 0.53673(6)
Co6 Co 0.69786(14) 0.13449(5) 0.46344(6)
O23 O 0.8377(13) 0.1873(4) 0.4653(5)
O24 O 0.8425(11) 0.3133(4) 0.5298(5)
O25 O 0.7864(12) 0.3815(4) 0.6179(5)
O26 O 0.7417(12) 0.1194(5) 0.3792(5)
O27 O 0.7524(6) 0.0479(2) 0.5543(3)
O28 O 0.5184(7) 0.4936(3) 0.3950(3)
O31 O 0.6146(6) 0.5211(2) 0.5125(3)
O33 O 0.4392(9) 0.4431(3) 0.6514(3)
O34 O 0.4066(9) 0.0558(3) 0.3466(3)
Co9 Co 0.56218(12) 0.04508(4) 0.96562(5)
O35 O 0.8388(7) 0.0929(3) 0.4916(3)
H21 H 0.820293 0.352381 0.63536
H22 H 0.853911 0.4049 0.615797
H23 H 0.887392 0.31845 0.495952
H24 H 0.902352 0.314093 0.562499
H25 H 0.897178 0.182118 0.497544
H26 H 0.882428 0.185776 0.430936
H27 H 0.759383 0.149125 0.360021
H28 H 0.815627 0.0987212 0.379538
H10 H 0.1187 0.9873 0.6478
C23 C 0.5658(10) 0.9870(4) 0.6487(4)
C29 C 0.5380(10) 0.9859(4) 0.8520(4)
C30 C 0.5569(15) 0.9894(4) 0.7508(5)
H15 H 0.5710 0.9573 0.7512
O18 O 0.5608(9) 0.9431(3) 0.8486(3)
O21 O 0.5934(9) 0.9442(3) 0.6534(3)
O29 O 0.6106(6) 0.9786(2) 0.4887(3)
Co11 Co 0.42827(12) 0.95483(4) 0.46651(5)
Co13 Co 0.55845(13) 0.91065(4) 0.91985(5)
Co14 Co 0.58070(13) 0.91130(4) 0.58219(5)
C19 C 0.9728(10) 0.0475(4) 0.5517(4)
C20 C 0.9836(11) 0.0198(5) 0.5982(5)
H9 H 0.9150 0.0114 0.6171
C39 C 0.8427(9) 0.0613(4) 0.5323(4)
O22 O 0.1612(7) 0.5929(3) 0.0084(3)
Co15 Co 0.30214(14) 0.63449(5) 0.03656(6)
C19_2 C 0.0272(10) 0.5475(4) 0.9483(4)
C20_2 C 0.0164(11) 0.5198(5) 0.9018(5)
H9_2 H 0.0850 0.5114 0.8829
C39_2 C 0.1573(9) 0.5613(4) 0.9677(4)
O2 O 0.2476(6) 0.5479(2) 0.9457(3)
Co10 Co 0.42827(12) 0.54517(4) 0.96651(5)
O31_2 O 0.3854(6) 0.0211(2) 0.9875(3)
C8_2 C 0.4718(10) 0.8565(4) 0.0635(4)
C9_2 C 0.5430(10) 0.8184(4) 0.0922(4)
C10_2 C 0.6374(13) 0.8264(5) 0.1322(5)
H4_2 H 0.6581 0.8569 0.1426
C11_2 C 0.6992(14) 0.7899(5) 0.1559(6)
H5_2 H 0.7630 0.7956 0.1825
C12_2 C 0.6697(12) 0.7435(4) 0.1413(5)
H6_2 H 0.7182 0.7190 0.1558
C13_2 C 0.5729(9) 0.7345(3) 0.1068(4)
C14_2 C 0.5364(10) 0.6863(4) 0.0917(4)
C15_2 C 0.5070(11) 0.7714(4) 0.0815(5)
H7_2 H 0.4387 0.7652 0.0574
H8_2 H 0.9405 0.5747 0.0102
C32_2 C 0.0478(11) 0.9534(4) 0.0518(4)
C33_2 C 0.1633(9) 0.9416(4) 0.0328(4)
C34_2 C 0.0484(12) 0.9818(5) 0.0973(5)
H17_2 H 0.1221 0.9911 0.1159
O4_2 O 0.7161(7) 0.5768(3) 0.0351(3)
O8_2 O 0.4328(10) 0.6815(4) 0.0672(5)
O9_2 O 0.6059(8) 0.6541(3) 0.1038(4)
O10_2 O 0.5170(7) 0.8971(2) 0.0683(3)
O11_2 O 0.3779(8) 0.8461(3) 0.0386(4)
O12_2 O 0.2634(7) 0.9526(3) 0.0562(3)
O20_2 O 0.4186(6) 0.5763(2) 0.0433(3)
Co1 Co 0.43782(12) 0.95492(4) 0.03438(5)
Co4_2 Co 0.58070(13) 0.58870(4) 0.08219(5)
O23_2 O 0.1623(13) 0.6873(4) 0.0347(5)
O26_2 O 0.2583(12) 0.6194(5) 0.1208(5)
O28_2 O 0.4816(7) 0.9936(3) 0.1050(3)
O29_2 O 0.3894(6) 0.4786(2) 0.0113(3)
O30 O 0.6146(6) 0.9789(2) 0.0125(3)
O34_2 O 0.5934(9) 0.5558(3) 0.1534(3)
Co11_2 Co 0.57173(12) 0.45483(4) 0.03349(5)
H23_2 H 0.112608 0.81845 0.00404772
H25_2 H 0.102822 0.682118 0.00245563
H26_2 H 0.117572 0.685776 0.0690645
H27_2 H 0.240617 0.649125 0.139979
H28_2 H 0.184373 0.598721 0.120462
C1_2 C 0.4518(9) 0.6430(4) 0.9361(4)
C2_2 C 0.5167(10) 0.6822(4) 0.9093(4)
C3_2 C 0.6099(13) 0.6744(4) 0.8738(5)
H1_2 H 0.6313 0.6439 0.8648
C4_2 C 0.6699(14) 0.7108(5) 0.8522(6)
H2_2 H 0.7344 0.7052 0.8296
C5_2 C 0.6378(13) 0.7554(5) 0.8630(5)
H3_2 H 0.6814 0.7799 0.8482
C6_2 C 0.5429(11) 0.7650(4) 0.8952(5)
C7_2 C 0.5054(12) 0.8135(4) 0.9072(5)
C16_2 C 0.7069(10) 0.5475(4) 0.9959(4)
C17_2 C 0.8091(11) 0.5398(4) 0.9637(4)
C18_2 C 0.9284(9) 0.5566(4) 0.9785(4)
O1_2 O 0.4520(7) 0.5076(3) 0.8940(3)
C21_2 C 0.8926(14) 0.5048(5) 0.8843(6)
H10_2 H 0.8813 0.4873 0.8522
C22_2 C 0.7930(12) 0.5150(4) 0.9123(5)
H11_2 H 0.7142 0.5060 0.8986
C23_2 C 0.4342(10) 0.4870(4) 0.8513(4)
C24_2 C 0.4459(14) 0.5134(4) 0.7992(5)
C25_2 C 0.472(2) 0.5612(5) 0.7997(6)
H12_2 H 0.4846 0.5769 0.8330
C26_2 C 0.4784(15) 0.5852(6) 0.7502(6)
H13_2 H 0.4724 0.6177 0.7488
C27_2 C 0.4947(14) 0.5584(5) 0.7015(6)
H14_2 H 0.5280 0.5721 0.6711
C28_2 C 0.4609(14) 0.5122(4) 0.7002(4)
C29_2 C 0.4620(10) 0.4859(4) 0.6480(4)
C30_2 C 0.4431(15) 0.4894(4) 0.7492(5)
H15_2 H 0.4290 0.4573 0.7488
C31_2 C 0.4816(12) 0.7284(4) 0.9187(5)
H16_2 H 0.4165 0.7346 0.9408
O3_2 O 0.4816(7) 0.5064(3) 0.6050(3)
O5_2 O 0.6106(6) 0.5214(2) 0.9887(3)
O6_2 O 0.4990(7) 0.6030(2) 0.9337(3)
O7_2 O 0.3605(8) 0.6534(3) 0.9596(4)
O13_2 O 0.1582(7) 0.9077(3) 0.9934(3)
O14_2 O 0.4042(10) 0.8189(3) 0.9285(5)
O15_2 O 0.5781(9) 0.8445(3) 0.9004(4)
O19_2 O 0.4084(6) 0.9234(2) 0.9576(2)
O21_2 O 0.4066(9) 0.4442(3) 0.8466(3)
Co5_2 Co 0.29020(14) 0.86609(5) 0.96327(6)
O24_2 O 0.1575(11) 0.8133(4) 0.9702(5)
O25_2 O 0.2136(12) 0.8815(4) 0.8821(5)
O32 O 0.7077(7) 0.9217(2) 0.9672(3)
Co14_2 Co 0.41930(13) 0.41130(4) 0.91781(5)
H21_2 H 0.179707 0.852381 0.86464
H22_2 H 0.146089 0.9049 0.884203
H24_2 H 0.0976481 0.814093 0.937501
C35_2 C 0.9286(12) 0.9966(6) 0.1151(5)
C36_2 C 0.8184(11) 0.9872(5) 0.0878(4)
H19_2 H 0.7436 0.9971 0.1007
C37_2 C 0.9330(8) 0.9436(3) 0.0227(4)
C38_2 C 0.7083(11) 0.9529(4) 0.0054(5)
C40_2 C 0.8237(10) 0.9609(4) 0.0377(4)
H20_2 H 0.9329 0.9244 0.9918
C19_3 C 0.0272(10) 0.9525(4) 0.4483(4)
C20_3 C 0.0164(11) 0.9802(5) 0.4018(5)
H9_3 H 0.0850 0.9886 0.3829
C39_3 C 0.1573(9) 0.9387(4) 0.4677(4)
O2_2 O 0.2476(6) 0.9521(2) 0.4457(3)
O22_2 O 0.1612(7) 0.9071(3) 0.5084(3)
Co15_2 Co 0.30214(14) 0.86551(5) 0.53656(6)
H10_3 H 0.8813 0.0127 0.3522
C23_3 C 0.4342(10) 0.0130(4) 0.3513(4)
C29_3 C 0.4620(10) 0.0141(4) 0.1480(4)
C30_3 C 0.4431(15) 0.0106(4) 0.2492(5)
H15_3 H 0.4290 0.0427 0.2488
O18_2 O 0.4392(9) 0.0569(3) 0.1514(3)
Co13_2 Co 0.44155(13) 0.08935(4) 0.08015(5)
C1_3 C 0.4518(9) 0.8570(4) 0.4361(4)
C2_3 C 0.5167(10) 0.8178(4) 0.4093(4)
C3_3 C 0.6099(13) 0.8256(4) 0.3738(5)
H1_3 H 0.6313 0.8561 0.3648
C4_3 C 0.6699(14) 0.7892(5) 0.3522(6)
H2_3 H 0.7344 0.7948 0.3296
C5_3 C 0.6378(13) 0.7446(5) 0.3630(5)
H3_3 H 0.6814 0.7201 0.3482
C6_3 C 0.5429(11) 0.7350(4) 0.3952(5)
C7_3 C 0.5054(12) 0.6865(4) 0.4072(5)
C8_3 C 0.4718(10) 0.6435(4) 0.5635(4)
C9_3 C 0.5430(10) 0.6816(4) 0.5922(4)
C10_3 C 0.6374(13) 0.6736(5) 0.6322(5)
H4_3 H 0.6581 0.6431 0.6426
C11_3 C 0.6992(14) 0.7101(5) 0.6559(6)
H5_3 H 0.7630 0.7044 0.6825
C12_3 C 0.6697(12) 0.7565(4) 0.6413(5)
H6_3 H 0.7182 0.7810 0.6558
C13_3 C 0.5729(9) 0.7655(3) 0.6068(4)
C14_3 C 0.5364(10) 0.8137(4) 0.5917(4)
C15_3 C 0.5070(11) 0.7286(4) 0.5815(5)
H7_3 H 0.4387 0.7348 0.5574
C16_3 C 0.7069(10) 0.9525(4) 0.4959(4)
C17_3 C 0.8091(11) 0.9602(4) 0.4637(4)
C18_3 C 0.9284(9) 0.9434(4) 0.4785(4)
H8_3 H 0.9405 0.9253 0.5102
O1_3 O 0.4520(7) 0.9924(3) 0.3940(3)
C21_3 C 0.8926(14) 0.9952(5) 0.3843(6)
C22_3 C 0.7930(12) 0.9850(4) 0.4123(5)
H11_3 H 0.7142 0.9940 0.3986
C24_3 C 0.4459(14) 0.9866(4) 0.2992(5)
C25_3 C 0.472(2) 0.9388(5) 0.2997(6)
H12_3 H 0.4846 0.9231 0.3330
C26_3 C 0.4784(15) 0.9148(6) 0.2502(6)
H13_3 H 0.4724 0.8823 0.2488
C27_3 C 0.4947(14) 0.9416(5) 0.2015(6)
H14_3 H 0.5280 0.9279 0.1711
C28_3 C 0.4609(14) 0.9878(4) 0.2002(4)
C31_3 C 0.4816(12) 0.7716(4) 0.4187(5)
H16_3 H 0.4165 0.7654 0.4408
C32_3 C 0.0478(11) 0.5466(4) 0.5518(4)
C33_3 C 0.1633(9) 0.5584(4) 0.5328(4)
C34_3 C 0.0484(12) 0.5182(5) 0.5973(5)
H17_3 H 0.1221 0.5089 0.6159
O4_3 O 0.7161(7) 0.9232(3) 0.5351(3)
O6_3 O 0.4990(7) 0.8970(2) 0.4337(3)
O7_3 O 0.3605(8) 0.8466(3) 0.4596(4)
O8_3 O 0.4328(10) 0.8185(4) 0.5672(5)
O9_3 O 0.6059(8) 0.8459(3) 0.6038(4)
O10_3 O 0.5170(7) 0.6029(2) 0.5683(3)
O11_3 O 0.3779(8) 0.6539(3) 0.5386(4)
O12_3 O 0.2634(7) 0.5474(3) 0.5562(3)
O13_3 O 0.1582(7) 0.5923(3) 0.4934(3)
O14_3 O 0.4042(10) 0.6811(3) 0.4285(5)
O15_3 O 0.5781(9) 0.6555(3) 0.4004(4)
O19_3 O 0.4084(6) 0.5766(2) 0.4576(2)
O20_3 O 0.4186(6) 0.9237(2) 0.5433(3)
Co3 Co 0.55845(13) 0.58935(4) 0.41985(5)
Co5_3 Co 0.29020(14) 0.63391(5) 0.46327(6)
O23_3 O 0.1623(13) 0.8127(4) 0.5347(5)
O24_3 O 0.1575(11) 0.6867(4) 0.4702(5)
O25_3 O 0.2136(12) 0.6185(4) 0.3821(5)
O26_3 O 0.2583(12) 0.8806(5) 0.6208(5)
O32_2 O 0.7077(7) 0.5783(2) 0.4672(3)
O33_2 O 0.5608(9) 0.5569(3) 0.3486(3)
H21_3 H 0.179707 0.647619 0.36464
H22_3 H 0.146089 0.5951 0.384203
H23_3 H 0.112608 0.68155 0.504048
H24_3 H 0.0976481 0.685907 0.437501
H25_3 H 0.102822 0.817882 0.502456
H26_3 H 0.117572 0.814224 0.569064
H27_3 H 0.240617 0.850875 0.639979
H28_3 H 0.184373 0.901279 0.620462
C35_3 C 0.9286(12) 0.5034(6) 0.6151(5)
H18_2 H 0.9276 0.4862 0.6475
C36_3 C 0.8184(11) 0.5128(5) 0.5878(4)
H19_3 H 0.7436 0.5029 0.6007
C37_3 C 0.9330(8) 0.5564(3) 0.5227(4)
H20_3 H 0.9329 0.5756 0.4918
C38_3 C 0.7083(11) 0.5471(4) 0.5054(5)
C40_3 C 0.8237(10) 0.5391(4) 0.5377(4)
H20_4 H 0.0671 0.0756 0.0082
O17_2 O 0.2923(7) 0.0783(2) 0.0328(3)
C35_4 C 0.0714(12) 0.0034(6) 0.8849(5)
C36_4 C 0.1816(11) 0.0128(5) 0.9122(4)
H19_4 H 0.2564 0.0029 0.8993
C37_4 C 0.0670(8) 0.0564(3) 0.9773(4)
C38_4 C 0.2917(11) 0.0471(4) 0.9946(5)
C40_4 C 0.1763(10) 0.0391(4) 0.9623(4)
C1_4 C 0.5482(9) 0.3570(4) 0.0639(4)
C2_4 C 0.4833(10) 0.3178(4) 0.0907(4)
C3_4 C 0.3901(13) 0.3256(4) 0.1262(5)
H1_4 H 0.3687 0.3561 0.1352
C4_4 C 0.3301(14) 0.2892(5) 0.1478(6)
H2_4 H 0.2656 0.2948 0.1704
C5_4 C 0.3622(13) 0.2446(5) 0.1370(5)
H3_4 H 0.3186 0.2201 0.1518
C6_4 C 0.4571(11) 0.2350(4) 0.1048(5)
C7_4 C 0.4946(12) 0.1865(4) 0.0928(5)
C16_4 C 0.2931(10) 0.4525(4) 0.0041(4)
C17_4 C 0.1909(11) 0.4602(4) 0.0363(4)
C18_4 C 0.0716(9) 0.4434(4) 0.0215(4)
O1_4 O 0.5480(7) 0.4924(3) 0.1060(3)
C21_4 C 0.1074(14) 0.4952(5) 0.1157(6)
H10_4 H 0.1187 0.5127 0.1478
C22_4 C 0.2070(12) 0.4850(4) 0.0877(5)
H11_4 H 0.2858 0.4940 0.1014
C23_4 C 0.5658(10) 0.5130(4) 0.1487(4)
C24_4 C 0.5541(14) 0.4866(4) 0.2008(5)
C25_4 C 0.528(2) 0.4388(5) 0.2003(6)
H12_4 H 0.5154 0.4231 0.1670
C26_4 C 0.5216(15) 0.4148(6) 0.2498(6)
H13_4 H 0.5276 0.3823 0.2512
C27_4 C 0.5053(14) 0.4416(5) 0.2985(6)
H14_4 H 0.4720 0.4279 0.3289
C28_4 C 0.5391(14) 0.4878(4) 0.2998(4)
C29_4 C 0.5380(10) 0.5141(4) 0.3520(4)
C30_4 C 0.5569(15) 0.5106(4) 0.2508(5)
H15_4 H 0.5710 0.5427 0.2512
C31_4 C 0.5184(12) 0.2716(4) 0.0813(5)
H16_4 H 0.5835 0.2654 0.0592
O6_4 O 0.5010(7) 0.3970(2) 0.0663(3)
O7_4 O 0.6395(8) 0.3466(3) 0.0404(4)
O13_4 O 0.8418(7) 0.0923(3) 0.0066(3)
O14_4 O 0.5958(10) 0.1811(3) 0.0715(5)
O15_4 O 0.4219(9) 0.1555(3) 0.0996(4)
O19_4 O 0.5916(6) 0.0766(2) 0.0424(2)
Co5_4 Co 0.70980(14) 0.13391(5) 0.03673(6)
O24_4 O 0.8425(11) 0.1867(4) 0.0298(5)
O25_4 O 0.7864(12) 0.1185(4) 0.1179(5)
O27_2 O 0.7524(6) 0.4521(2) 0.0543(3)
H21_4 H 0.820293 0.147619 0.13536
H22_4 H 0.853911 0.0950995 0.115797
H24_4 H 0.902352 0.185907 0.0624995
C8_4 C 0.5282(10) 0.1435(4) 0.9365(4)
C9_4 C 0.4570(10) 0.1816(4) 0.9078(4)
C10_4 C 0.3626(13) 0.1736(5) 0.8678(5)
H4_4 H 0.3419 0.1431 0.8574
C11_4 C 0.3008(14) 0.2101(5) 0.8441(6)
H5_4 H 0.2370 0.2044 0.8175
C12_4 C 0.3303(12) 0.2565(4) 0.8587(5)
H6_4 H 0.2818 0.2810 0.8442
C13_4 C 0.4271(9) 0.2655(3) 0.8932(4)
C14_4 C 0.4636(10) 0.3137(4) 0.9083(4)
C15_4 C 0.4930(11) 0.2286(4) 0.9185(5)
H7_4 H 0.5613 0.2348 0.9426
H8_4 H 0.0595 0.4253 0.9898
C32_4 C 0.9522(11) 0.0466(4) 0.9482(4)
C33_4 C 0.8367(9) 0.0584(4) 0.9672(4)
C34_4 C 0.9516(12) 0.0182(5) 0.9027(5)
H17_4 H 0.8779 0.0089 0.8841
O4_4 O 0.2839(7) 0.4232(3) 0.9649(3)
O8_4 O 0.5672(10) 0.3185(4) 0.9328(5)
O9_4 O 0.3941(8) 0.3459(3) 0.8962(4)
O10_4 O 0.4830(7) 0.1029(2) 0.9317(3)
O11_4 O 0.6221(8) 0.1539(3) 0.9614(4)
O12_4 O 0.7366(7) 0.0474(3) 0.9438(3)
O20_4 O 0.5814(6) 0.4237(2) 0.9567(3)
Co6_2 Co 0.69786(14) 0.36551(5) 0.96344(6)
O23_4 O 0.8377(13) 0.3127(4) 0.9653(5)
O26_4 O 0.7417(12) 0.3806(5) 0.8792(5)
O35_2 O 0.8388(7) 0.4071(3) 0.9916(3)
H23_4 H 0.887392 0.18155 0.995952
H25_4 H 0.897178 0.317882 0.997544
H26_4 H 0.882428 0.314224 0.930936
H27_4 H 0.759383 0.350875 0.860021
H28_4 H 0.815627 0.401279 0.879538
C19_4 C 0.9728(10) 0.4525(4) 0.0517(4)
C20_4 C 0.9836(11) 0.4802(5) 0.0982(5)
H9_4 H 0.9150 0.4886 0.1171
C39_4 C 0.8427(9) 0.4387(4) 0.0323(4)
H18_3 H 0.9276 0.0138 0.1475
H18_4 H 0.0724 0.9862 0.8525
loop_
_geom_bond_atom_site_label_1
_geom_bond_atom_site_label_2
_geom_bond_site_symmetry_1
_geom_bond_site_symmetry_2
H18 C35 1_555 1_555
C36 C35 1_555 1_555
H19 C36 1_555 1_555
H20 C37 1_555 1_555
C38 O16 1_555 1_555
O16 Co7 1_555 1_555
O17 C38 1_555 1_555
C40 C36 1_555 1_555
Co8 O16 1_555 1_555
Co12 O17 1_555 1_555
C37 C40 1_555 1_555
C38 C40 1_555 1_555
C1 C2 1_555 1_555
C2 C3 1_555 1_555
C3 H1 1_555 1_555
C4 C3 1_555 1_555
H2 C4 1_555 1_555
C5 C4 1_555 1_555
H3 C5 1_555 1_555
C6 C5 1_555 1_555
C7 C6 1_555 1_555
C8 C9 1_555 1_555
C9 C10 1_555 1_555
C10 H4 1_555 1_555
C11 C10 1_555 1_555
H5 C11 1_555 1_555
C12 C11 1_555 1_555
H6 C12 1_555 1_555
C13 C12 1_555 1_555
C14 C13 1_555 1_555
C15 C9 1_555 1_555
H7 C15 1_555 1_555
C16 C17 1_555 1_555
C17 C18 1_555 1_555
C18 H8 1_555 1_555
C22 C17 1_555 1_555
H11 C22 1_555 1_555
C24 C25 1_555 1_555
C25 H12 1_555 1_555
C26 C25 1_555 1_555
H13 C26 1_555 1_555
C27 C26 1_555 1_555
H14 C27 1_555 1_555
C28 C27 1_555 1_555
C31 C2 1_555 1_555
H16 C31 1_555 1_555
C32 C33 1_555 1_555
C33 O12 1_555 1_555
C34 C32 1_555 1_555
H17 C34 1_555 1_555
O4 C16 1_555 1_555
O5 C16 1_555 1_555
O6 C1 1_555 1_555
O7 C1 1_555 1_555
O8 C14 1_555 1_555
O9 C14 1_555 1_555
O10 C8 1_555 1_555
O11 C8 1_555 1_555
O12 Co7 1_555 1_555
O13 C33 1_555 1_555
O14 C7 1_555 1_555
O15 C7 1_555 1_555
O19 Co7 1_555 1_555
O20 Co2 1_555 1_555
Co7 O10 1_555 1_555
Co2 O1 1_555 1_555
Co12 O15 1_555 1_555
Co4 O4 1_555 1_555
Co5 O11 1_555 1_555
Co6 O7 1_555 1_555
O23 Co6 1_555 1_555
O24 Co5 1_555 1_555
O25 Co5 1_555 1_555
O26 Co6 1_555 1_555
O27 Co2 1_555 1_555
O28 Co7 1_555 1_555
O31 Co7 1_555 1_555
O33 Co12 1_555 1_555
O34 Co4 1_555 1_555
Co9 O3 1_555 1_555
O35 Co6 1_555 1_555
C6 C31 1_555 1_555
C13 C15 1_555 1_555
C21 C22 1_555 1_555
O5 Co2 1_555 1_555
O6 Co2 1_555 1_555
O8 Co6 1_555 1_555
O9 Co4 1_555 1_555
O13 Co5 1_555 1_555
O14 Co5 1_555 1_555
O19 Co12 1_555 1_555
O19 Co5 1_555 1_555
O20 Co4 1_555 1_555
O20 Co6 1_555 1_555
O25 H21 1_555 1_555
O25 H22 1_555 1_555
O24 H23 1_555 1_555
O24 H24 1_555 1_555
O23 H25 1_555 1_555
O23 H26 1_555 1_555
O26 H27 1_555 1_555
O26 H28 1_555 1_555
H15 C30 1_555 1_555
O18 C29 1_555 1_555
O21 C23 1_555 1_555
Co13 O18 1_555 1_555
Co14 O21 1_555 1_555
O29 Co11 1_555 1_555
C20 C19 1_555 1_555
H9 C20 1_555 1_555
C39 C19 1_555 1_555
O27 C39 1_555 1_555
O35 C39 1_555 1_555
Co15 O22 1_555 1_555
C20_2 C19_2 1_555 1_555
H9_2 C20_2 1_555 1_555
C39_2 C19_2 1_555 1_555
O2 C39_2 1_555 1_555
Co10 O2 1_555 1_555
C8_2 C9_2 1_555 1_555
C9_2 C10_2 1_555 1_555
C10_2 H4_2 1_555 1_555
C11_2 C10_2 1_555 1_555
H5_2 C11_2 1_555 1_555
C12_2 C11_2 1_555 1_555
H6_2 C12_2 1_555 1_555
C13_2 C12_2 1_555 1_555
C14_2 C13_2 1_555 1_555
C15_2 C9_2 1_555 1_555
H7_2 C15_2 1_555 1_555
C32_2 C33_2 1_555 1_555
C33_2 O12_2 1_555 1_555
C34_2 C32_2 1_555 1_555
H17_2 C34_2 1_555 1_555
O8_2 C14_2 1_555 1_555
O9_2 C14_2 1_555 1_555
O10_2 C8_2 1_555 1_555
O11_2 C8_2 1_555 1_555
O12_2 Co1 1_555 1_555
Co1 O10_2 1_555 1_555
Co4_2 O4_2 1_555 1_555
O23_2 Co15 1_555 1_555
O26_2 Co15 1_555 1_555
O28_2 Co1 1_555 1_555
O30 Co1 1_555 1_555
O34_2 Co4_2 1_555 1_555
C13_2 C15_2 1_555 1_555
O8_2 Co15 1_555 1_555
O9_2 Co4_2 1_555 1_555
O20_2 Co4_2 1_555 1_555
O20_2 Co15 1_555 1_555
O29_2 Co11_2 1_555 1_555
O23_2 H25_2 1_555 1_555
O23_2 H26_2 1_555 1_555
O26_2 H27_2 1_555 1_555
O26_2 H28_2 1_555 1_555
C1_2 C2_2 1_555 1_555
C2_2 C3_2 1_555 1_555
C3_2 H1_2 1_555 1_555
C4_2 C3_2 1_555 1_555
H2_2 C4_2 1_555 1_555
C5_2 C4_2 1_555 1_555
H3_2 C5_2 1_555 1_555
C6_2 C5_2 1_555 1_555
C7_2 C6_2 1_555 1_555
C16_2 C17_2 1_555 1_555
C17_2 C18_2 1_555 1_555
O1_2 C23_2 1_555 1_555
H10_2 C21_2 1_555 1_555
C22_2 C17_2 1_555 1_555
H11_2 C22_2 1_555 1_555
C23_2 C24_2 1_555 1_555
C24_2 C25_2 1_555 1_555
C25_2 H12_2 1_555 1_555
C26_2 C25_2 1_555 1_555
H13_2 C26_2 1_555 1_555
C27_2 C26_2 1_555 1_555
H14_2 C27_2 1_555 1_555
C28_2 C27_2 1_555 1_555
C29_2 C28_2 1_555 1_555
C30_2 C24_2 1_555 1_555
H15_2 C30_2 1_555 1_555
C31_2 C2_2 1_555 1_555
H16_2 C31_2 1_555 1_555
O3_2 C29_2 1_555 1_555
O5_2 C16_2 1_555 1_555
O6_2 C1_2 1_555 1_555
O7_2 C1_2 1_555 1_555
O14_2 C7_2 1_555 1_555
O15_2 C7_2 1_555 1_555
O33 C29_2 1_555 1_555
O21_2 C23_2 1_555 1_555
Co10 O1_2 1_555 1_555
Co13 O15_2 1_555 1_555
O24_2 Co5_2 1_555 1_555
O25_2 Co5_2 1_555 1_555
O32 Co13 1_555 1_555
Co8 O3_2 1_555 1_555
Co14_2 O21_2 1_555 1_555
C6_2 C31_2 1_555 1_555
C21_2 C22_2 1_555 1_555
C28_2 C30_2 1_555 1_555
O5_2 Co10 1_555 1_555
O6_2 Co10 1_555 1_555
O13_2 Co5_2 1_555 1_555
O14_2 Co5_2 1_555 1_555
O19_2 Co13 1_555 1_555
O19_2 Co5_2 1_555 1_555
O25_2 H21_2 1_555 1_555
O25_2 H22_2 1_555 1_555
O24_2 H24_2 1_555 1_555
C36_2 C35_2 1_555 1_555
H19_2 C36_2 1_555 1_555
C38_2 O30 1_555 1_555
C40_2 C36_2 1_555 1_555
C37_2 C40_2 1_555 1_555
C38_2 C40_2 1_555 1_555
C20_3 C19_3 1_555 1_555
H9_3 C20_3 1_555 1_555
C39_3 C19_3 1_555 1_555
O2_2 C39_3 1_555 1_555
O22_2 C39_3 1_555 1_555
Co11 O2_2 1_555 1_555
Co15_2 O22_2 1_555 1_555
H15_3 C30_3 1_555 1_555
O18_2 C29_3 1_555 1_555
O34 C23_3 1_555 1_555
Co13_2 O18_2 1_555 1_555
C1_3 C2_3 1_555 1_555
C2_3 C3_3 1_555 1_555
C3_3 H1_3 1_555 1_555
C4_3 C3_3 1_555 1_555
H2_3 C4_3 1_555 1_555
C5_3 C4_3 1_555 1_555
H3_3 C5_3 1_555 1_555
C6_3 C5_3 1_555 1_555
C7_3 C6_3 1_555 1_555
C8_3 C9_3 1_555 1_555
C9_3 C10_3 1_555 1_555
C10_3 H4_3 1_555 1_555
C11_3 C10_3 1_555 1_555
H5_3 C11_3 1_555 1_555
C12_3 C11_3 1_555 1_555
H6_3 C12_3 1_555 1_555
C13_3 C12_3 1_555 1_555
C14_3 C13_3 1_555 1_555
C15_3 C9_3 1_555 1_555
H7_3 C15_3 1_555 1_555
C16_3 C17_3 1_555 1_555
C17_3 C18_3 1_555 1_555
C18_3 H8_3 1_555 1_555
C22_3 C17_3 1_555 1_555
H11_3 C22_3 1_555 1_555
C24_3 C25_3 1_555 1_555
C25_3 H12_3 1_555 1_555
C26_3 C25_3 1_555 1_555
H13_3 C26_3 1_555 1_555
C27_3 C26_3 1_555 1_555
H14_3 C27_3 1_555 1_555
C28_3 C27_3 1_555 1_555
C31_3 C2_3 1_555 1_555
H16_3 C31_3 1_555 1_555
C32_3 C33_3 1_555 1_555
C33_3 O12_3 1_555 1_555
C34_3 C32_3 1_555 1_555
H17_3 C34_3 1_555 1_555
O4_3 C16_3 1_555 1_555
O29 C16_3 1_555 1_555
O6_3 C1_3 1_555 1_555
O7_3 C1_3 1_555 1_555
O8_3 C14_3 1_555 1_555
O9_3 C14_3 1_555 1_555
O10_3 C8_3 1_555 1_555
O11_3 C8_3 1_555 1_555
O12_3 Co8 1_555 1_555
O13_3 C33_3 1_555 1_555
O14_3 C7_3 1_555 1_555
O15_3 C7_3 1_555 1_555
O19_3 Co8 1_555 1_555
O20_3 Co11 1_555 1_555
Co8 O10_3 1_555 1_555
Co11 O1_3 1_555 1_555
Co3 O15_3 1_555 1_555
Co14 O4_3 1_555 1_555
Co5_3 O11_3 1_555 1_555
Co15_2 O7_3 1_555 1_555
O23_3 Co15_2 1_555 1_555
O24_3 Co5_3 1_555 1_555
O25_3 Co5_3 1_555 1_555
O26_3 Co15_2 1_555 1_555
O31 Co8 1_555 1_555
O32_2 Co3 1_555 1_555
O33_2 Co3 1_555 1_555
C6_3 C31_3 1_555 1_555
C13_3 C15_3 1_555 1_555
C21_3 C22_3 1_555 1_555
O6_3 Co11 1_555 1_555
O8_3 Co15_2 1_555 1_555
O9_3 Co14 1_555 1_555
O13_3 Co5_3 1_555 1_555
O14_3 Co5_3 1_555 1_555
O19_3 Co3 1_555 1_555
O19_3 Co5_3 1_555 1_555
O20_3 Co14 1_555 1_555
O20_3 Co15_2 1_555 1_555
O25_3 H21_3 1_555 1_555
O25_3 H22_3 1_555 1_555
O24_3 H23_3 1_555 1_555
O24_3 H24_3 1_555 1_555
O23_3 H25_3 1_555 1_555
O23_3 H26_3 1_555 1_555
O26_3 H27_3 1_555 1_555
O26_3 H28_3 1_555 1_555
H18_2 C35_3 1_555 1_555
C36_3 C35_3 1_555 1_555
H19_3 C36_3 1_555 1_555
H20_3 C37_3 1_555 1_555
C38_3 O31 1_555 1_555
O32_2 C38_3 1_555 1_555
C40_3 C36_3 1_555 1_555
C37_3 C40_3 1_555 1_555
C38_3 C40_3 1_555 1_555
Co13_2 O17_2 1_555 1_555
C36_4 C35_4 1_555 1_555
H19_4 C36_4 1_555 1_555
C38_4 O31_2 1_555 1_555
O31_2 Co9 1_555 1_555
C40_4 C36_4 1_555 1_555
C37_4 C40_4 1_555 1_555
C38_4 C40_4 1_555 1_555
C1_4 C2_4 1_555 1_555
C2_4 C3_4 1_555 1_555
C3_4 H1_4 1_555 1_555
C4_4 C3_4 1_555 1_555
H2_4 C4_4 1_555 1_555
C5_4 C4_4 1_555 1_555
H3_4 C5_4 1_555 1_555
C6_4 C5_4 1_555 1_555
C7_4 C6_4 1_555 1_555
C16_4 C17_4 1_555 1_555
C17_4 C18_4 1_555 1_555
O1_4 C23_4 1_555 1_555
H10_4 C21_4 1_555 1_555
C22_4 C17_4 1_555 1_555
H11_4 C22_4 1_555 1_555
C23_4 C24_4 1_555 1_555
C24_4 C25_4 1_555 1_555
C25_4 H12_4 1_555 1_555
C26_4 C25_4 1_555 1_555
H13_4 C26_4 1_555 1_555
C27_4 C26_4 1_555 1_555
H14_4 C27_4 1_555 1_555
C28_4 C27_4 1_555 1_555
C29_4 C28_4 1_555 1_555
C30_4 C24_4 1_555 1_555
H15_4 C30_4 1_555 1_555
C31_4 C2_4 1_555 1_555
H16_4 C31_4 1_555 1_555
O28 C29_4 1_555 1_555
O29_2 C16_4 1_555 1_555
O6_4 C1_4 1_555 1_555
O7_4 C1_4 1_555 1_555
O14_4 C7_4 1_555 1_555
O15_4 C7_4 1_555 1_555
O33_2 C29_4 1_555 1_555
O34_2 C23_4 1_555 1_555
Co11_2 O1_4 1_555 1_555
Co13_2 O15_4 1_555 1_555
O24_4 Co5_4 1_555 1_555
O25_4 Co5_4 1_555 1_555
O27_2 Co11_2 1_555 1_555
C6_4 C31_4 1_555 1_555
C21_4 C22_4 1_555 1_555
C28_4 C30_4 1_555 1_555
O6_4 Co11_2 1_555 1_555
O13_4 Co5_4 1_555 1_555
O14_4 Co5_4 1_555 1_555
O19_4 Co13_2 1_555 1_555
O19_4 Co5_4 1_555 1_555
O25_4 H21_4 1_555 1_555
O25_4 H22_4 1_555 1_555
O24_4 H24_4 1_555 1_555
C8_4 C9_4 1_555 1_555
C9_4 C10_4 1_555 1_555
C10_4 H4_4 1_555 1_555
C11_4 C10_4 1_555 1_555
H5_4 C11_4 1_555 1_555
C12_4 C11_4 1_555 1_555
H6_4 C12_4 1_555 1_555
C13_4 C12_4 1_555 1_555
C14_4 C13_4 1_555 1_555
C15_4 C9_4 1_555 1_555
H7_4 C15_4 1_555 1_555
C32_4 C33_4 1_555 1_555
C33_4 O12_4 1_555 1_555
C34_4 C32_4 1_555 1_555
H17_4 C34_4 1_555 1_555
O8_4 C14_4 1_555 1_555
O9_4 C14_4 1_555 1_555
O10_4 C8_4 1_555 1_555
O11_4 C8_4 1_555 1_555
O12_4 Co9 1_555 1_555
Co9 O10_4 1_555 1_555
Co14_2 O4_4 1_555 1_555
O23_4 Co6_2 1_555 1_555
O26_4 Co6_2 1_555 1_555
O35_2 Co6_2 1_555 1_555
C13_4 C15_4 1_555 1_555
O8_4 Co6_2 1_555 1_555
O9_4 Co14_2 1_555 1_555
O20_4 Co14_2 1_555 1_555
O20_4 Co6_2 1_555 1_555
O23_4 H25_4 1_555 1_555
O23_4 H26_4 1_555 1_555
O26_4 H27_4 1_555 1_555
O26_4 H28_4 1_555 1_555
C20_4 C19_4 1_555 1_555
H9_4 C20_4 1_555 1_555
C39_4 C19_4 1_555 1_555
O27_2 C39_4 1_555 1_555

#END
