
###############################################################################
#
# This file contains modified crystal structure data generated from the
# MOF subset of the Cambridge Structural Database (CSD) v543 
# hosted by the Cambridge Crystallographic Data Centre (CCDC).
#
# This work is licensed under the Creative Commons
# Attribution-NonCommercial-ShareAlike 4.0 International License.
# To view a copy of this license, visit
# http://creativecommons.org/licenses/by-nc-sa/4.0/
# or send a letter to
# Creative Commons, PO Box 1866, Mountain View, CA 94042, USA.
#
# CIF created using the CSD Python API on 29 September 2022
# The structure has been converted into the P1 space group
# The structure has a 3D framework
# The original CSD entry FIMXUW is in the monoclinic crystal system
# The framework has been calculated to contain at least 10.0% void space
# The void calculation uses a probe of radius 1.32A, grid spacing 0.4
#
###############################################################################

data_FIMXUW
_chemical_formula_moiety         '(C120 H88 La16 O124)n'
_symmetry_cell_setting           triclinic
_symmetry_space_group_name_H-M   'P 1'
_symmetry_Int_Tables_number      1
_space_group_name_Hall           'P 1'
loop_
_symmetry_equiv_pos_site_id
_symmetry_equiv_pos_as_xyz
1 x,y,z
_cell_length_a                   27.0959(17)
_cell_length_b                   10.5672(3)
_cell_length_c                   18.1032(11)
_cell_angle_alpha                90
_cell_angle_beta                 120.402(9)
_cell_angle_gamma                90
_cell_volume                     4470.7
loop_
_atom_site_label
_atom_site_type_symbol
_atom_site_fract_x
_atom_site_fract_y
_atom_site_fract_z
La1 La 0.168044(17) 0.06998(3) 0.13416(2)
O4 O 0.2985(2) 0.0171(5) 0.4113(3)
O5 O 0.2389(2) 0.2310(4) 0.2449(3)
O6 O 0.3068(2) 0.3363(4) 0.3534(3)
O7 O 0.2275(2) 0.5312(4) 0.3197(3)
O8 O 0.1798(3) 0.5835(4) 0.3827(4)
O9 O 0.1032(2) 0.1352(5) 0.1921(3)
H1 H 0.0674 0.0785 0.0159
O14 O 0.2165(2) 0.2563(4) 0.0810(3)
H3 H 0.2079 0.2372 0.0302
H4 H 0.1958 0.3224 0.0635
O15 O 0.1078(4) 0.2643(9) 0.0664(7)
H5 H 0.0928 0.3081 0.0893
H6 H 0.0998 0.2691 0.0146
C1 C 0.1851(3) 0.1146(6) 0.4172(4)
C2 C 0.1587(3) 0.2125(6) 0.4339(4)
C3 C 0.1643(3) 0.3364(6) 0.4147(4)
C4 C 0.1974(3) 0.3651(6) 0.3783(4)
C5 C 0.2238(3) 0.2680(6) 0.3598(4)
C6 C 0.2174(3) 0.1415(6) 0.3786(4)
C8 C 0.2474(3) 0.0390(6) 0.3592(4)
C9 C 0.2589(3) 0.2842(5) 0.3181(4)
C10 C 0.2023(3) 0.5015(6) 0.3598(4)
C11 C 0.0208(4) 0.1350(8) 0.2391(6)
C12 C 0.0406(3) 0.0242(7) 0.2249(4)
C14 C 0.0854(3) 0.0294(7) 0.1986(4)
H9 H 0.1366 0.1950 0.4587
H10 H 0.1457 0.4008 0.4262
H11 H 0.0358 0.2114 0.2339
La6 La 0.331956(17) 0.56998(3) 0.36584(2)
La9 La 0.177017(18) 0.76524(3) 0.28530(3)
La12 La 0.322983(18) 0.26524(3) 0.21470(3)
O34 O 0.1677(3) 0.0265(5) 0.0008(3)
O42 O 0.2725(2) 0.0312(4) 0.1803(3)
O1 O 0.1883(3) 0.8894(5) 0.4094(4)
O2 O 0.1677(3) 0.9735(5) 0.5008(3)
O3 O 0.2184(2) 0.9801(4) 0.2888(3)
O10 O 0.1040(2) 0.9278(4) 0.1836(3)
O11 O 0.0823(3) 0.7349(6) 0.2662(6)
O12 O 0.0019(4) 0.7444(11) 0.1413(9)
O13 O 0.0670(3) 0.9987(11) 0.0099(4)
H2 H 0.0896 0.9632 0.0574
O16 O 0.1276(3) 0.6159(6) 0.1553(4)
H7 H 0.1042 0.5601 0.1526
H8 H 0.1308 0.5790 0.1162
C7 C 0.1799(3) 0.9834(6) 0.4435(4)
C13 C 0.0196(3) 0.9098(7) 0.2361(5)
C15 C 0.0367(5) 0.7861(10) 0.2133(9)
La8 La 0.168044(17) 0.93002(3) 0.63416(2)
O36 O 0.2611(2) 0.7310(4) 0.2551(3)
O38 O 0.1932(2) 0.8363(4) 0.1466(3)
O46 O 0.2835(2) 0.7563(4) 0.4190(3)
O17 O 0.8968(2) 0.1352(5) 0.3079(3)
C16 C 0.9792(4) 0.1350(8) 0.2609(6)
C17 C 0.9594(3) 0.0242(7) 0.2751(4)
C19 C 0.9146(3) 0.0294(7) 0.3014(4)
H12 H 0.9642 0.2114 0.2661
La3 La 0.831956(17) 0.06998(3) 0.36584(2)
O24 O 0.7015(2) 0.0171(5) 0.0887(3)
O25 O 0.7611(2) 0.2310(4) 0.2551(3)
O26 O 0.6932(2) 0.3363(4) 0.1466(3)
O27 O 0.7725(2) 0.5312(4) 0.1803(3)
O28 O 0.8202(3) 0.5835(4) 0.1173(4)
H13 H 0.9326 0.0785 0.4841
O30 O 0.7835(2) 0.2563(4) 0.4190(3)
H15 H 0.7921 0.2372 0.4698
H16 H 0.8042 0.3224 0.4365
O31 O 0.8922(4) 0.2643(9) 0.4336(7)
H17 H 0.9072 0.3081 0.4107
H18 H 0.9002 0.2691 0.4854
C21 C 0.8149(3) 0.1146(6) 0.0828(4)
C22 C 0.8413(3) 0.2125(6) 0.0661(4)
C23 C 0.8357(3) 0.3364(6) 0.0853(4)
C24 C 0.8026(3) 0.3651(6) 0.1217(4)
C25 C 0.7762(3) 0.2680(6) 0.1402(4)
C26 C 0.7826(3) 0.1415(6) 0.1214(4)
C28 C 0.7526(3) 0.0390(6) 0.1408(4)
C29 C 0.7411(3) 0.2842(5) 0.1819(4)
C30 C 0.7977(3) 0.5015(6) 0.1402(4)
H21 H 0.8634 0.1950 0.0413
H22 H 0.8543 0.4008 0.0738
La5 La 0.668044(17) 0.56998(3) 0.13416(2)
La10 La 0.822983(18) 0.76524(3) 0.21470(3)
La11 La 0.677017(18) 0.26524(3) 0.28530(3)
O33 O 0.8323(3) 0.0265(5) 0.4992(3)
O41 O 0.7275(2) 0.0312(4) 0.3197(3)
O18 O 0.8960(2) 0.9278(4) 0.3164(3)
O19 O 0.9177(3) 0.7349(6) 0.2338(6)
O20 O 0.9981(4) 0.7444(11) 0.3587(9)
C18 C 0.9804(3) 0.9098(7) 0.2639(5)
C20 C 0.9633(5) 0.7861(10) 0.2867(9)
O21 O 0.8117(3) 0.8894(5) 0.0906(4)
O23 O 0.7816(2) 0.9801(4) 0.2112(3)
O29 O 0.9330(3) 0.9987(11) 0.4901(4)
H14 H 0.9104 0.9632 0.4426
O32 O 0.8724(3) 0.6159(6) 0.3447(4)
H19 H 0.8958 0.5601 0.3474
H20 H 0.8692 0.5790 0.3838
C27 C 0.8201(3) 0.9834(6) 0.0565(4)
O35 O 0.7389(2) 0.7310(4) 0.2449(3)
O37 O 0.8068(2) 0.8363(4) 0.3534(3)
O45 O 0.7165(2) 0.7563(4) 0.0810(3)
O22 O 0.8323(3) 0.9735(5) 0.9992(3)
La7 La 0.831956(17) 0.93002(3) 0.86584(2)
O8_2 O 0.6798(3) 0.0835(4) 0.3827(4)
C10_2 C 0.7023(3) 0.0015(6) 0.3598(4)
O28_2 O 0.3202(3) 0.0835(4) 0.1173(4)
C30_2 C 0.2977(3) 0.0015(6) 0.1402(4)
O1_2 O 0.6883(3) 0.3894(5) 0.4094(4)
O2_2 O 0.6677(3) 0.4735(5) 0.5008(3)
O3_2 O 0.7184(2) 0.4801(4) 0.2888(3)
O4_2 O 0.7985(2) 0.5171(5) 0.4113(3)
O9_2 O 0.6032(2) 0.6352(5) 0.1921(3)
O10_2 O 0.6040(2) 0.4278(4) 0.1836(3)
O11_2 O 0.5823(3) 0.2349(6) 0.2662(6)
O12_2 O 0.5019(4) 0.2444(11) 0.1413(9)
O13_2 O 0.5670(3) 0.4987(11) 0.0099(4)
H1_2 H 0.5674 0.5785 0.0159
H2_2 H 0.5896 0.4632 0.0574
H3_2 H 0.7079 0.7372 0.0302
H4_2 H 0.6958 0.8224 0.0635
O15_2 O 0.6078(4) 0.7643(9) 0.0664(7)
H5_2 H 0.5928 0.8081 0.0893
H6_2 H 0.5998 0.7691 0.0146
O16_2 O 0.6276(3) 0.1159(6) 0.1553(4)
H7_2 H 0.6042 0.0601 0.1526
H8_2 H 0.6308 0.0790 0.1162
C1_2 C 0.6851(3) 0.6146(6) 0.4172(4)
C2_2 C 0.6587(3) 0.7125(6) 0.4339(4)
C3_2 C 0.6643(3) 0.8364(6) 0.4147(4)
C4_2 C 0.6974(3) 0.8651(6) 0.3783(4)
C5_2 C 0.7238(3) 0.7680(6) 0.3598(4)
C6_2 C 0.7174(3) 0.6415(6) 0.3786(4)
C7_2 C 0.6799(3) 0.4834(6) 0.4435(4)
C8_2 C 0.7474(3) 0.5390(6) 0.3592(4)
C9_2 C 0.7589(3) 0.7842(5) 0.3181(4)
C11_2 C 0.5208(4) 0.6350(8) 0.2391(6)
C12_2 C 0.5406(3) 0.5242(7) 0.2249(4)
C13_2 C 0.5196(3) 0.4098(7) 0.2361(5)
C14_2 C 0.5854(3) 0.5294(7) 0.1986(4)
C15_2 C 0.5367(5) 0.2861(10) 0.2133(9)
H9_2 H 0.6366 0.6950 0.4587
H10_2 H 0.6457 0.9008 0.4262
H11_2 H 0.5358 0.7114 0.2339
O17_2 O 0.3968(2) 0.6352(5) 0.3079(3)
O18_2 O 0.3960(2) 0.4278(4) 0.3164(3)
O19_2 O 0.4177(3) 0.2349(6) 0.2338(6)
O20_2 O 0.4981(4) 0.2444(11) 0.3587(9)
C16_2 C 0.4792(4) 0.6350(8) 0.2609(6)
C17_2 C 0.4594(3) 0.5242(7) 0.2751(4)
C18_2 C 0.4804(3) 0.4098(7) 0.2639(5)
C19_2 C 0.4146(3) 0.5294(7) 0.3014(4)
C20_2 C 0.4633(5) 0.2861(10) 0.2867(9)
H12_2 H 0.4642 0.7114 0.2661
O21_2 O 0.3117(3) 0.3894(5) 0.0906(4)
O23_2 O 0.2816(2) 0.4801(4) 0.2112(3)
O24_2 O 0.2015(2) 0.5171(5) 0.0887(3)
O29_2 O 0.4330(3) 0.4987(11) 0.4901(4)
H13_2 H 0.4326 0.5785 0.4841
H14_2 H 0.4104 0.4632 0.4426
H15_2 H 0.2921 0.7372 0.4698
H16_2 H 0.3042 0.8224 0.4365
O31_2 O 0.3922(4) 0.7643(9) 0.4336(7)
H17_2 H 0.4072 0.8081 0.4107
H18_2 H 0.4002 0.7691 0.4854
O32_2 O 0.3724(3) 0.1159(6) 0.3447(4)
H19_2 H 0.3958 0.0601 0.3474
H20_2 H 0.3692 0.0790 0.3838
C21_2 C 0.3149(3) 0.6146(6) 0.0828(4)
C22_2 C 0.3413(3) 0.7125(6) 0.0661(4)
C23_2 C 0.3357(3) 0.8364(6) 0.0853(4)
C24_2 C 0.3026(3) 0.8651(6) 0.1217(4)
C25_2 C 0.2762(3) 0.7680(6) 0.1402(4)
C26_2 C 0.2826(3) 0.6415(6) 0.1214(4)
C27_2 C 0.3201(3) 0.4834(6) 0.0565(4)
C28_2 C 0.2526(3) 0.5390(6) 0.1408(4)
C29_2 C 0.2411(3) 0.7842(5) 0.1819(4)
H21_2 H 0.3634 0.6950 0.0413
H22_2 H 0.3543 0.9008 0.0738
La8_2 La 0.668044(17) 0.43002(3) 0.63416(2)
O33_2 O 0.3323(3) 0.5265(5) 0.4992(3)
O34_2 O 0.6677(3) 0.5265(5) 0.0008(3)
O22_2 O 0.3323(3) 0.4735(5) 0.9992(3)
La7_2 La 0.331956(17) 0.43002(3) 0.86584(2)
O18_3 O 0.1040(2) 0.0722(4) 0.6836(3)
O19_3 O 0.0823(3) 0.2651(6) 0.7662(6)
O20_3 O 0.0019(4) 0.2556(11) 0.6413(9)
C18_3 C 0.0196(3) 0.0902(7) 0.7361(5)
C20_3 C 0.0367(5) 0.2139(10) 0.7133(9)
La4 La 0.177017(18) 0.23476(3) 0.78530(3)
O21_3 O 0.1883(3) 0.1106(5) 0.9094(4)
O23_3 O 0.2184(2) 0.0199(4) 0.7888(3)
O29_3 O 0.0670(3) 0.0013(11) 0.5099(4)
H14_3 H 0.0896 0.0368 0.5574
O32_3 O 0.1276(3) 0.3841(6) 0.6553(4)
H19_3 H 0.1042 0.4399 0.6526
H20_3 H 0.1308 0.4210 0.6162
C27_3 C 0.1799(3) 0.0166(6) 0.9435(4)
O35_2 O 0.2611(2) 0.2690(4) 0.7551(3)
O37_2 O 0.1932(2) 0.1637(4) 0.6466(3)
O40 O 0.2275(2) 0.4688(4) 0.8197(3)
O44 O 0.1798(3) 0.4165(4) 0.8827(4)
O45_2 O 0.2835(2) 0.2437(4) 0.9190(3)
O17_3 O 0.1032(2) 0.8648(5) 0.6921(3)
C16_3 C 0.0208(4) 0.8650(8) 0.7391(6)
C17_3 C 0.0406(3) 0.9758(7) 0.7249(4)
C19_3 C 0.0854(3) 0.9706(7) 0.6986(4)
H12_3 H 0.0358 0.7886 0.7339
O24_3 O 0.2985(2) 0.9829(5) 0.9113(3)
O25_2 O 0.2389(2) 0.7690(4) 0.7449(3)
O26_2 O 0.3068(2) 0.6637(4) 0.8534(3)
H13_3 H 0.0674 0.9215 0.5159
O30_2 O 0.2165(2) 0.7437(4) 0.5810(3)
H15_3 H 0.2079 0.7628 0.5302
H16_3 H 0.1958 0.6776 0.5635
O31_3 O 0.1078(4) 0.7357(9) 0.5664(7)
H17_3 H 0.0928 0.6919 0.5893
H18_3 H 0.0998 0.7309 0.5146
C21_3 C 0.1851(3) 0.8854(6) 0.9172(4)
C22_3 C 0.1587(3) 0.7875(6) 0.9339(4)
C23_3 C 0.1643(3) 0.6636(6) 0.9147(4)
C24_3 C 0.1974(3) 0.6349(6) 0.8783(4)
C25_3 C 0.2238(3) 0.7320(6) 0.8598(4)
C26_3 C 0.2174(3) 0.8585(6) 0.8786(4)
C28_3 C 0.2474(3) 0.9610(6) 0.8592(4)
C29_3 C 0.2589(3) 0.7158(5) 0.8181(4)
C30_3 C 0.2023(3) 0.4985(6) 0.8598(4)
H21_3 H 0.1366 0.8050 0.9587
H22_3 H 0.1457 0.5992 0.9262
La11_2 La 0.322983(18) 0.73476(3) 0.71470(3)
O41_2 O 0.2725(2) 0.9688(4) 0.6803(3)
La2 La 0.822983(18) 0.23476(3) 0.71470(3)
O1_3 O 0.8117(3) 0.1106(5) 0.5906(4)
O3_3 O 0.7816(2) 0.0199(4) 0.7112(3)
O10_3 O 0.8960(2) 0.0722(4) 0.8164(3)
O11_3 O 0.9177(3) 0.2651(6) 0.7338(6)
O12_3 O 0.9981(4) 0.2556(11) 0.8587(9)
O13_3 O 0.9330(3) 0.0013(11) 0.9901(4)
H2_3 H 0.9104 0.0368 0.9426
O16_3 O 0.8724(3) 0.3841(6) 0.8447(4)
H7_3 H 0.8958 0.4399 0.8474
H8_3 H 0.8692 0.4210 0.8838
C7_3 C 0.8201(3) 0.0166(6) 0.5565(4)
C13_3 C 0.9804(3) 0.0902(7) 0.7639(5)
C15_3 C 0.9633(5) 0.2139(10) 0.7867(9)
O36_2 O 0.7389(2) 0.2690(4) 0.7449(3)
O38_2 O 0.8068(2) 0.1637(4) 0.8534(3)
O39 O 0.7725(2) 0.4688(4) 0.6803(3)
O43 O 0.8202(3) 0.4165(4) 0.6173(4)
O46_2 O 0.7165(2) 0.2437(4) 0.5810(3)
O4_3 O 0.7015(2) 0.9829(5) 0.5887(3)
O5_2 O 0.7611(2) 0.7690(4) 0.7551(3)
O6_2 O 0.6932(2) 0.6637(4) 0.6466(3)
O9_3 O 0.8968(2) 0.8648(5) 0.8079(3)
H1_3 H 0.9326 0.9215 0.9841
O14_2 O 0.7835(2) 0.7437(4) 0.9190(3)
H3_3 H 0.7921 0.7628 0.9698
H4_3 H 0.8042 0.6776 0.9365
O15_3 O 0.8922(4) 0.7357(9) 0.9336(7)
H5_3 H 0.9072 0.6919 0.9107
H6_3 H 0.9002 0.7309 0.9854
C1_3 C 0.8149(3) 0.8854(6) 0.5828(4)
C2_3 C 0.8413(3) 0.7875(6) 0.5661(4)
C3_3 C 0.8357(3) 0.6636(6) 0.5853(4)
C4_3 C 0.8026(3) 0.6349(6) 0.6217(4)
C5_3 C 0.7762(3) 0.7320(6) 0.6402(4)
C6_3 C 0.7826(3) 0.8585(6) 0.6214(4)
C8_3 C 0.7526(3) 0.9610(6) 0.6408(4)
C9_3 C 0.7411(3) 0.7158(5) 0.6819(4)
C10_3 C 0.7977(3) 0.4985(6) 0.6402(4)
C11_3 C 0.9792(4) 0.8650(8) 0.7609(6)
C12_3 C 0.9594(3) 0.9758(7) 0.7751(4)
C14_3 C 0.9146(3) 0.9706(7) 0.8014(4)
H9_3 H 0.8634 0.8050 0.5413
H10_3 H 0.8543 0.5992 0.5738
H11_3 H 0.9642 0.7886 0.7661
La12_2 La 0.677017(18) 0.73476(3) 0.78530(3)
O42_2 O 0.7275(2) 0.9688(4) 0.8197(3)
O1_4 O 0.3117(3) 0.6106(5) 0.5906(4)
O3_4 O 0.2816(2) 0.5199(4) 0.7112(3)
O4_4 O 0.2015(2) 0.4829(5) 0.5887(3)
O9_4 O 0.3968(2) 0.3648(5) 0.8079(3)
O10_4 O 0.3960(2) 0.5722(4) 0.8164(3)
O11_4 O 0.4177(3) 0.7651(6) 0.7338(6)
O12_4 O 0.4981(4) 0.7556(11) 0.8587(9)
O13_4 O 0.4330(3) 0.5013(11) 0.9901(4)
H1_4 H 0.4326 0.4215 0.9841
H2_4 H 0.4104 0.5368 0.9426
H3_4 H 0.2921 0.2628 0.9698
H4_4 H 0.3042 0.1776 0.9365
O15_4 O 0.3922(4) 0.2357(9) 0.9336(7)
H5_4 H 0.4072 0.1919 0.9107
H6_4 H 0.4002 0.2309 0.9854
O16_4 O 0.3724(3) 0.8841(6) 0.8447(4)
H7_4 H 0.3958 0.9399 0.8474
H8_4 H 0.3692 0.9210 0.8838
C1_4 C 0.3149(3) 0.3854(6) 0.5828(4)
C2_4 C 0.3413(3) 0.2875(6) 0.5661(4)
C3_4 C 0.3357(3) 0.1636(6) 0.5853(4)
C4_4 C 0.3026(3) 0.1349(6) 0.6217(4)
C5_4 C 0.2762(3) 0.2320(6) 0.6402(4)
C6_4 C 0.2826(3) 0.3585(6) 0.6214(4)
C7_4 C 0.3201(3) 0.5166(6) 0.5565(4)
C8_4 C 0.2526(3) 0.4610(6) 0.6408(4)
C9_4 C 0.2411(3) 0.2158(5) 0.6819(4)
C11_4 C 0.4792(4) 0.3650(8) 0.7609(6)
C12_4 C 0.4594(3) 0.4758(7) 0.7751(4)
C13_4 C 0.4804(3) 0.5902(7) 0.7639(5)
C14_4 C 0.4146(3) 0.4706(7) 0.8014(4)
C15_4 C 0.4633(5) 0.7139(10) 0.7867(9)
H9_4 H 0.3634 0.3050 0.5413
H10_4 H 0.3543 0.0992 0.5738
H11_4 H 0.4642 0.2886 0.7661
O17_4 O 0.6032(2) 0.3648(5) 0.6921(3)
O18_4 O 0.6040(2) 0.5722(4) 0.6836(3)
O19_4 O 0.5823(3) 0.7651(6) 0.7662(6)
O20_4 O 0.5019(4) 0.7556(11) 0.6413(9)
C16_4 C 0.5208(4) 0.3650(8) 0.7391(6)
C17_4 C 0.5406(3) 0.4758(7) 0.7249(4)
C18_4 C 0.5196(3) 0.5902(7) 0.7361(5)
C19_4 C 0.5854(3) 0.4706(7) 0.6986(4)
C20_4 C 0.5367(5) 0.7139(10) 0.7133(9)
H12_4 H 0.5358 0.2886 0.7339
O21_4 O 0.6883(3) 0.6106(5) 0.9094(4)
O23_4 O 0.7184(2) 0.5199(4) 0.7888(3)
O24_4 O 0.7985(2) 0.4829(5) 0.9113(3)
O29_4 O 0.5670(3) 0.5013(11) 0.5099(4)
H13_4 H 0.5674 0.4215 0.5159
H14_4 H 0.5896 0.5368 0.5574
H15_4 H 0.7079 0.2628 0.5302
H16_4 H 0.6958 0.1776 0.5635
O31_4 O 0.6078(4) 0.2357(9) 0.5664(7)
H17_4 H 0.5928 0.1919 0.5893
H18_4 H 0.5998 0.2309 0.5146
O32_4 O 0.6276(3) 0.8841(6) 0.6553(4)
H19_4 H 0.6042 0.9399 0.6526
H20_4 H 0.6308 0.9210 0.6162
C21_4 C 0.6851(3) 0.3854(6) 0.9172(4)
C22_4 C 0.6587(3) 0.2875(6) 0.9339(4)
C23_4 C 0.6643(3) 0.1636(6) 0.9147(4)
C24_4 C 0.6974(3) 0.1349(6) 0.8783(4)
C25_4 C 0.7238(3) 0.2320(6) 0.8598(4)
C26_4 C 0.7174(3) 0.3585(6) 0.8786(4)
C27_4 C 0.6799(3) 0.5166(6) 0.9435(4)
C28_4 C 0.7474(3) 0.4610(6) 0.8592(4)
C29_4 C 0.7589(3) 0.2158(5) 0.8181(4)
H21_4 H 0.6366 0.3050 0.9587
H22_4 H 0.6457 0.0992 0.9262
O43_2 O 0.3202(3) 0.9165(4) 0.6173(4)
O44_2 O 0.6798(3) 0.9165(4) 0.8827(4)
C10_4 C 0.2977(3) 0.9985(6) 0.6402(4)
C30_4 C 0.7023(3) 0.9985(6) 0.8598(4)
loop_
_geom_bond_atom_site_label_1
_geom_bond_atom_site_label_2
_geom_bond_site_symmetry_1
_geom_bond_site_symmetry_2
O4 C8 1_555 1_555
O5 La1 1_555 1_555
O6 C9 1_555 1_555
O7 C10 1_555 1_555
O8 C10 1_555 1_555
O9 La1 1_555 1_555
O14 La1 1_555 1_555
H3 O14 1_555 1_555
H4 O14 1_555 1_555
O15 La1 1_555 1_555
H5 O15 1_555 1_555
H6 O15 1_555 1_555
C1 C2 1_555 1_555
C2 C3 1_555 1_555
C3 C4 1_555 1_555
C4 C5 1_555 1_555
C5 C6 1_555 1_555
C6 C1 1_555 1_555
C9 O5 1_555 1_555
C10 C4 1_555 1_555
C11 C12 1_555 1_555
C14 O9 1_555 1_555
H9 C2 1_555 1_555
H10 C3 1_555 1_555
H11 C11 1_555 1_555
La6 O6 1_555 1_555
La9 O7 1_555 1_555
La12 O5 1_555 1_555
O34 La1 1_555 1_555
O42 La1 1_555 1_555
O6 La12 1_555 1_555
O7 La6 1_555 1_555
O8 La9 1_555 1_555
O14 La12 1_555 1_555
C5 C9 1_555 1_555
C6 C8 1_555 1_555
C12 C14 1_555 1_555
La12 O42 1_555 1_555
La9 O1 1_555 1_555
O1 C7 1_555 1_555
O2 C7 1_555 1_555
O3 La9 1_555 1_555
O11 La9 1_555 1_555
O12 C15 1_555 1_555
H2 O13 1_555 1_555
O16 La9 1_555 1_555
H7 O16 1_555 1_555
H8 O16 1_555 1_555
C13 C15 1_555 1_555
C15 O11 1_555 1_555
La8 O2 1_555 1_555
O36 La9 1_555 1_555
O46 La9 1_555 1_555
La9 O10 1_555 1_555
La9 O38 1_555 1_555
O17 C19 1_555 1_555
C17 C16 1_555 1_555
C19 C17 1_555 1_555
H12 C16 1_555 1_555
La3 O17 1_555 1_555
O24 C28 1_555 1_555
O25 La3 1_555 1_555
O26 C29 1_555 1_555
O27 C30 1_555 1_555
O28 C30 1_555 1_555
O30 La3 1_555 1_555
H15 O30 1_555 1_555
H16 O30 1_555 1_555
O31 La3 1_555 1_555
H17 O31 1_555 1_555
H18 O31 1_555 1_555
C21 C22 1_555 1_555
C22 C23 1_555 1_555
C23 C24 1_555 1_555
C24 C25 1_555 1_555
C25 C26 1_555 1_555
C26 C21 1_555 1_555
C29 O25 1_555 1_555
C30 C24 1_555 1_555
H21 C22 1_555 1_555
H22 C23 1_555 1_555
La5 O26 1_555 1_555
La10 O27 1_555 1_555
La11 O25 1_555 1_555
O33 La3 1_555 1_555
O41 La3 1_555 1_555
O26 La11 1_555 1_555
O27 La5 1_555 1_555
O28 La10 1_555 1_555
O30 La11 1_555 1_555
C25 C29 1_555 1_555
C26 C28 1_555 1_555
La11 O41 1_555 1_555
O19 C20 1_555 1_555
O20 C20 1_555 1_555
C20 C18 1_555 1_555
La10 O18 1_555 1_555
O21 La10 1_555 1_555
H14 O29 1_555 1_555
O32 La10 1_555 1_555
H19 O32 1_555 1_555
H20 O32 1_555 1_555
C27 O21 1_555 1_555
O35 La10 1_555 1_555
O45 La10 1_555 1_555
O19 La10 1_555 1_555
La10 O23 1_555 1_555
La10 O37 1_555 1_555
La7 O22 1_555 1_555
O41 C10_2 1_555 1_555
O8_2 C10_2 1_555 1_555
O42 C30_2 1_555 1_555
O28_2 C30_2 1_555 1_555
O8_2 La11 1_555 1_555
O28_2 La12 1_555 1_555
La5 O3_2 1_555 1_555
La11 O1_2 1_555 1_555
O1_2 C7_2 1_555 1_555
O2_2 C7_2 1_555 1_555
O3_2 La11 1_555 1_555
O4_2 C8_2 1_555 1_555
O35 La5 1_555 1_555
O37 C9_2 1_555 1_555
O9_2 La5 1_555 1_555
O10_2 La5 1_555 1_555
O11_2 La11 1_555 1_555
O12_2 C15_2 1_555 1_555
O13_2 La5 1_555 1_555
H1_2 O13_2 1_555 1_555
H2_2 O13_2 1_555 1_555
O45 La5 1_555 1_555
H3_2 O45 1_555 1_555
H4_2 O45 1_555 1_555
O15_2 La5 1_555 1_555
H5_2 O15_2 1_555 1_555
H6_2 O15_2 1_555 1_555
O16_2 La11 1_555 1_555
H7_2 O16_2 1_555 1_555
H8_2 O16_2 1_555 1_555
C1_2 C2_2 1_555 1_555
C2_2 C3_2 1_555 1_555
C3_2 C4_2 1_555 1_555
C4_2 C5_2 1_555 1_555
C5_2 C6_2 1_555 1_555
C6_2 C1_2 1_555 1_555
C7_2 C1_2 1_555 1_555
C8_2 O3_2 1_555 1_555
C9_2 O35 1_555 1_555
C11_2 C12_2 1_555 1_555
C12_2 C13_2 1_555 1_555
C13_2 C15_2 1_555 1_555
C14_2 O9_2 1_555 1_555
C15_2 O11_2 1_555 1_555
H9_2 C2_2 1_555 1_555
H10_2 C3_2 1_555 1_555
H11_2 C11_2 1_555 1_555
O17_2 C19_2 1_555 1_555
O18_2 C19_2 1_555 1_555
O19_2 C20_2 1_555 1_555
O20_2 C20_2 1_555 1_555
C16_2 C11_2 1_555 1_555
C17_2 C16_2 1_555 1_555
C18_2 C13_2 1_555 1_555
C19_2 C17_2 1_555 1_555
C20_2 C18_2 1_555 1_555
H12_2 C16_2 1_555 1_555
La6 O17_2 1_555 1_555
La12 O18_2 1_555 1_555
O21_2 La12 1_555 1_555
O23_2 La6 1_555 1_555
O24_2 C28_2 1_555 1_555
O36 La6 1_555 1_555
O38 C29_2 1_555 1_555
O29_2 La6 1_555 1_555
H13_2 O29_2 1_555 1_555
H14_2 O29_2 1_555 1_555
O46 La6 1_555 1_555
H15_2 O46 1_555 1_555
H16_2 O46 1_555 1_555
O31_2 La6 1_555 1_555
H17_2 O31_2 1_555 1_555
H18_2 O31_2 1_555 1_555
O32_2 La12 1_555 1_555
H19_2 O32_2 1_555 1_555
H20_2 O32_2 1_555 1_555
C21_2 C22_2 1_555 1_555
C22_2 C23_2 1_555 1_555
C23_2 C24_2 1_555 1_555
C24_2 C25_2 1_555 1_555
C25_2 C26_2 1_555 1_555
C26_2 C21_2 1_555 1_555
C27_2 O21_2 1_555 1_555
C28_2 O23_2 1_555 1_555
C29_2 O36 1_555 1_555
H21_2 C22_2 1_555 1_555
H22_2 C23_2 1_555 1_555
La8_2 O2_2 1_555 1_555
O33_2 La6 1_555 1_555
O34_2 La5 1_555 1_555
La11 O10_2 1_555 1_555
O10_2 C14_2 1_555 1_555
C5_2 C9_2 1_555 1_555
C6_2 C8_2 1_555 1_555
C12_2 C14_2 1_555 1_555
O18_2 La6 1_555 1_555
O19_2 La12 1_555 1_555
C17_2 C18_2 1_555 1_555
La12 O23_2 1_555 1_555
C21_2 C27_2 1_555 1_555
C25_2 C29_2 1_555 1_555
C26_2 C28_2 1_555 1_555
La7_2 O22_2 1_555 1_555
O19_3 C20_3 1_555 1_555
O20_3 C20_3 1_555 1_555
C20_3 C18_3 1_555 1_555
La4 O18_3 1_555 1_555
O21_3 La4 1_555 1_555
H14_3 O29_3 1_555 1_555
O32_3 La4 1_555 1_555
H19_3 O32_3 1_555 1_555
H20_3 O32_3 1_555 1_555
C27_3 O21_3 1_555 1_555
O35_2 La4 1_555 1_555
O40 La4 1_555 1_555
O44 La4 1_555 1_555
O45_2 La4 1_555 1_555
O19_3 La4 1_555 1_555
La4 O23_3 1_555 1_555
La4 O37_2 1_555 1_555
O17_3 C19_3 1_555 1_555
C17_3 C16_3 1_555 1_555
C19_3 C17_3 1_555 1_555
H12_3 C16_3 1_555 1_555
La8 O17_3 1_555 1_555
O24_3 C28_3 1_555 1_555
O25_2 La8 1_555 1_555
O26_2 C29_3 1_555 1_555
O40 C30_3 1_555 1_555
O44 C30_3 1_555 1_555
O30_2 La8 1_555 1_555
H15_3 O30_2 1_555 1_555
H16_3 O30_2 1_555 1_555
O31_3 La8 1_555 1_555
H17_3 O31_3 1_555 1_555
H18_3 O31_3 1_555 1_555
C21_3 C22_3 1_555 1_555
C22_3 C23_3 1_555 1_555
C23_3 C24_3 1_555 1_555
C24_3 C25_3 1_555 1_555
C25_3 C26_3 1_555 1_555
C26_3 C21_3 1_555 1_555
C29_3 O25_2 1_555 1_555
C30_3 C24_3 1_555 1_555
H21_3 C22_3 1_555 1_555
H22_3 C23_3 1_555 1_555
La7_2 O26_2 1_555 1_555
La11_2 O25_2 1_555 1_555
O41_2 La8 1_555 1_555
O26_2 La11_2 1_555 1_555
O40 La7_2 1_555 1_555
O30_2 La11_2 1_555 1_555
C25_3 C29_3 1_555 1_555
C26_3 C28_3 1_555 1_555
La11_2 O41_2 1_555 1_555
La2 O1_3 1_555 1_555
O1_3 C7_3 1_555 1_555
O33 C7_3 1_555 1_555
O3_3 La2 1_555 1_555
O11_3 La2 1_555 1_555
O12_3 C15_3 1_555 1_555
H2_3 O13_3 1_555 1_555
O16_3 La2 1_555 1_555
H7_3 O16_3 1_555 1_555
H8_3 O16_3 1_555 1_555
C13_3 C15_3 1_555 1_555
C15_3 O11_3 1_555 1_555
O36_2 La2 1_555 1_555
O39 La2 1_555 1_555
O43 La2 1_555 1_555
O46_2 La2 1_555 1_555
La2 O10_3 1_555 1_555
La2 O38_2 1_555 1_555
O4_3 C8_3 1_555 1_555
O5_2 La7 1_555 1_555
O6_2 C9_3 1_555 1_555
O39 C10_3 1_555 1_555
O43 C10_3 1_555 1_555
O9_3 La7 1_555 1_555
O14_2 La7 1_555 1_555
H3_3 O14_2 1_555 1_555
H4_3 O14_2 1_555 1_555
O15_3 La7 1_555 1_555
H5_3 O15_3 1_555 1_555
H6_3 O15_3 1_555 1_555
C1_3 C2_3 1_555 1_555
C2_3 C3_3 1_555 1_555
C3_3 C4_3 1_555 1_555
C4_3 C5_3 1_555 1_555
C5_3 C6_3 1_555 1_555
C6_3 C1_3 1_555 1_555
C9_3 O5_2 1_555 1_555
C10_3 C4_3 1_555 1_555
C11_3 C12_3 1_555 1_555
C14_3 O9_3 1_555 1_555
H9_3 C2_3 1_555 1_555
H10_3 C3_3 1_555 1_555
H11_3 C11_3 1_555 1_555
La8_2 O6_2 1_555 1_555
La12_2 O5_2 1_555 1_555
O42_2 La7 1_555 1_555
O6_2 La12_2 1_555 1_555
O39 La8_2 1_555 1_555
O14_2 La12_2 1_555 1_555
C5_3 C9_3 1_555 1_555
C6_3 C8_3 1_555 1_555
C12_3 C14_3 1_555 1_555
La12_2 O42_2 1_555 1_555
La7_2 O3_4 1_555 1_555
La11_2 O1_4 1_555 1_555
O1_4 C7_4 1_555 1_555
O33_2 C7_4 1_555 1_555
O3_4 La11_2 1_555 1_555
O4_4 C8_4 1_555 1_555
O35_2 La7_2 1_555 1_555
O37_2 C9_4 1_555 1_555
O9_4 La7_2 1_555 1_555
O10_4 La7_2 1_555 1_555
O11_4 La11_2 1_555 1_555
O12_4 C15_4 1_555 1_555
O13_4 La7_2 1_555 1_555
H1_4 O13_4 1_555 1_555
H2_4 O13_4 1_555 1_555
O45_2 La7_2 1_555 1_555
H3_4 O45_2 1_555 1_555
H4_4 O45_2 1_555 1_555
O15_4 La7_2 1_555 1_555
H5_4 O15_4 1_555 1_555
H6_4 O15_4 1_555 1_555
O16_4 La11_2 1_555 1_555
H7_4 O16_4 1_555 1_555
H8_4 O16_4 1_555 1_555
C1_4 C2_4 1_555 1_555
C2_4 C3_4 1_555 1_555
C3_4 C4_4 1_555 1_555
C4_4 C5_4 1_555 1_555
C5_4 C6_4 1_555 1_555
C6_4 C1_4 1_555 1_555
C7_4 C1_4 1_555 1_555
C8_4 O3_4 1_555 1_555
C9_4 O35_2 1_555 1_555
C11_4 C12_4 1_555 1_555
C12_4 C13_4 1_555 1_555
C13_4 C15_4 1_555 1_555
C14_4 O9_4 1_555 1_555
C15_4 O11_4 1_555 1_555
H9_4 C2_4 1_555 1_555
H10_4 C3_4 1_555 1_555
H11_4 C11_4 1_555 1_555
O17_4 C19_4 1_555 1_555
O18_4 C19_4 1_555 1_555
O19_4 C20_4 1_555 1_555
O20_4 C20_4 1_555 1_555
C16_4 C11_4 1_555 1_555
C17_4 C16_4 1_555 1_555
C18_4 C13_4 1_555 1_555
C19_4 C17_4 1_555 1_555
C20_4 C18_4 1_555 1_555
H12_4 C16_4 1_555 1_555
La8_2 O17_4 1_555 1_555
La12_2 O18_4 1_555 1_555
O21_4 La12_2 1_555 1_555
O23_4 La8_2 1_555 1_555
O24_4 C28_4 1_555 1_555
O36_2 La8_2 1_555 1_555
O38_2 C29_4 1_555 1_555
O29_4 La8_2 1_555 1_555
H13_4 O29_4 1_555 1_555
H14_4 O29_4 1_555 1_555
O46_2 La8_2 1_555 1_555
H15_4 O46_2 1_555 1_555
H16_4 O46_2 1_555 1_555
O31_4 La8_2 1_555 1_555
H17_4 O31_4 1_555 1_555
H18_4 O31_4 1_555 1_555
O32_4 La12_2 1_555 1_555
H19_4 O32_4 1_555 1_555
H20_4 O32_4 1_555 1_555
C21_4 C22_4 1_555 1_555
C22_4 C23_4 1_555 1_555
C23_4 C24_4 1_555 1_555
C24_4 C25_4 1_555 1_555
C25_4 C26_4 1_555 1_555
C26_4 C21_4 1_555 1_555
C27_4 O21_4 1_555 1_555
C28_4 O23_4 1_555 1_555
C29_4 O36_2 1_555 1_555
H21_4 C22_4 1_555 1_555
H22_4 C23_4 1_555 1_555
O43_2 La11_2 1_555 1_555
O44_2 La12_2 1_555 1_555
La11_2 O10_4 1_555 1_555
O10_4 C14_4 1_555 1_555
C5_4 C9_4 1_555 1_555
C6_4 C8_4 1_555 1_555
C12_4 C14_4 1_555 1_555
O18_4 La8_2 1_555 1_555
O19_4 La12_2 1_555 1_555
C17_4 C18_4 1_555 1_555
La12_2 O23_4 1_555 1_555
C21_4 C27_4 1_555 1_555
C25_4 C29_4 1_555 1_555
C26_4 C28_4 1_555 1_555
O41_2 C10_4 1_555 1_555
O43_2 C10_4 1_555 1_555
O42_2 C30_4 1_555 1_555
O44_2 C30_4 1_555 1_555

#END
