
###############################################################################
#
# This file contains modified crystal structure data generated from the
# MOF subset of the Cambridge Structural Database (CSD) v543 
# hosted by the Cambridge Crystallographic Data Centre (CCDC).
#
# This work is licensed under the Creative Commons
# Attribution-NonCommercial-ShareAlike 4.0 International License.
# To view a copy of this license, visit
# http://creativecommons.org/licenses/by-nc-sa/4.0/
# or send a letter to
# Creative Commons, PO Box 1866, Mountain View, CA 94042, USA.
#
# CIF created using the CSD Python API on 29 September 2022
# The structure has been converted into the P1 space group
# The structure has a 3D framework
# The original CSD entry FIMYUX is in the cubic crystal system
# The framework has been calculated to contain at least 10.0% void space
# The void calculation uses a probe of radius 1.32A, grid spacing 0.4
# The framework is charged, counterions have been retained in the structure
#
###############################################################################

data_FIMYUX
_chemical_formula_moiety         '(C384 H432 Cu48 N72 O168)n'
_symmetry_cell_setting           triclinic
_symmetry_space_group_name_H-M   'P 1'
_symmetry_Int_Tables_number      1
_space_group_name_Hall           'P 1'
loop_
_symmetry_equiv_pos_site_id
_symmetry_equiv_pos_as_xyz
1 x,y,z
_cell_length_a                   24.427(3)
_cell_length_b                   24.427(3)
_cell_length_c                   24.427(3)
_cell_angle_alpha                90
_cell_angle_beta                 90
_cell_angle_gamma                90
_cell_volume                     14575.1
loop_
_atom_site_label
_atom_site_type_symbol
_atom_site_fract_x
_atom_site_fract_y
_atom_site_fract_z
Cu1 Cu 0.05912(2) 0.21592(3) 0.38543(2)
Cu2 Cu 0.14849(2) 0.20257(3) 0.48689(2)
O2 O 0.07903(14) 0.18629(17) 0.45479(14)
N1 N 0.13800(18) 0.2264(2) 0.37199(18)
N2 N 0.17311(19) 0.2234(2) 0.41436(19)
C1 C 0.1670(3) 0.2316(3) 0.3259(3)
H1 H 0.1523 0.2349 0.2909
C2 C 0.2240(3) 0.2266(3) 0.3941(3)
H2 H 0.2559 0.2258 0.4149
C4 C 0.2221(3) 0.2314(4) 0.3381(3)
H3 H 0.2513 0.2339 0.3138
O8 O 0.12898(15) 0.16982(15) 0.55669(14)
O9 O 0.05669(14) 0.12898(15) 0.33018(15)
O10 O 0.19405(15) 0.10710(15) 0.48236(14)
O11 O 0.21072(16) 0.24245(16) 0.51985(18)
O12 O 0.04344(17) 0.26742(16) 0.32553(15)
O1 O 0.83018(15) 0.05669(14) 0.37102(15)
O3 O 0.98236(14) 0.19405(15) 0.39290(15)
O4 O 0.71072(16) 0.25755(16) 0.48015(18)
O5 O 0.76742(16) 0.32553(15) 0.45656(17)
O6 O 0.96143(19) 0.2764(2) 0.4264(3)
O7 O 0.7525(2) 0.0734(2) 0.4122(3)
C3 C 0.8896(2) 0.2121(2) 0.4174(2)
C5 C 0.7551(2) 0.2761(2) 0.4615(2)
C6 C 0.7981(2) 0.0880(2) 0.3983(3)
C7 C 0.8190(2) 0.1435(2) 0.4126(2)
C8 C 0.7971(2) 0.2346(2) 0.4435(2)
C9 C 0.9485(2) 0.2296(2) 0.4117(2)
C10 C 0.8728(2) 0.1585(2) 0.4052(2)
H4 H 0.8981 0.1332 0.3921
C11 C 0.8509(2) 0.2498(2) 0.4360(2)
H5 H 0.8616 0.2856 0.4434
C12 C 0.7809(2) 0.1812(2) 0.4323(2)
H6 H 0.7448 0.1706 0.4381
Cu3 Cu 0.88543(2) 0.05912(2) 0.28408(3)
Cu4 Cu 0.71592(3) 0.38543(2) 0.44088(2)
Cu5 Cu 0.64849(2) 0.29743(3) 0.51311(2)
Cu7 Cu 0.98689(2) 0.14849(2) 0.29743(3)
Cu6 Cu 0.79743(3) 0.98689(2) 0.35151(2)
Cu6_2 Cu 0.70257(3) 0.01311(2) 0.85151(2)
Cu5_2 Cu 0.85151(2) 0.70257(3) 0.01311(2)
O8_2 O 0.37102(15) 0.83018(15) 0.05669(14)
O11_2 O 0.28928(16) 0.75755(16) 0.01985(18)
Cu1_2 Cu 0.44088(2) 0.78408(3) 0.88543(2)
Cu2_2 Cu 0.35151(2) 0.79743(3) 0.98689(2)
O1_2 O 0.66982(15) 0.94331(14) 0.87102(15)
O2_2 O 0.42097(14) 0.81371(17) 0.95479(14)
O3_2 O 0.51764(14) 0.80595(15) 0.89290(15)
O4_2 O 0.78928(16) 0.74245(16) 0.98015(18)
O5_2 O 0.73258(16) 0.67447(15) 0.95656(17)
O6_2 O 0.53857(19) 0.7236(2) 0.9264(3)
O7_2 O 0.7475(2) 0.9266(2) 0.9122(3)
N1_2 N 0.36200(18) 0.7736(2) 0.87199(18)
N2_2 N 0.32689(19) 0.7766(2) 0.91436(19)
C1_2 C 0.3330(3) 0.7684(3) 0.8259(3)
H1_2 H 0.3477 0.7651 0.7909
C2_2 C 0.2760(3) 0.7734(3) 0.8941(3)
H2_2 H 0.2441 0.7742 0.9149
C3_2 C 0.6104(2) 0.7879(2) 0.9174(2)
C4_2 C 0.2779(3) 0.7686(4) 0.8381(3)
H3_2 H 0.2487 0.7661 0.8138
C5_2 C 0.7449(2) 0.7239(2) 0.9615(2)
C6_2 C 0.7019(2) 0.9120(2) 0.8983(3)
C7_2 C 0.6810(2) 0.8565(2) 0.9126(2)
C8_2 C 0.7029(2) 0.7654(2) 0.9435(2)
C9_2 C 0.5515(2) 0.7704(2) 0.9117(2)
C10_2 C 0.6272(2) 0.8415(2) 0.9052(2)
H4_2 H 0.6019 0.8668 0.8921
C11_2 C 0.6491(2) 0.7502(2) 0.9360(2)
H5_2 H 0.6384 0.7144 0.9434
C12_2 C 0.7191(2) 0.8188(2) 0.9323(2)
H6_2 H 0.7552 0.8294 0.9381
Cu3_2 Cu 0.61457(2) 0.94088(2) 0.78408(3)
Cu4_2 Cu 0.78408(3) 0.61457(2) 0.94088(2)
Cu7_2 Cu 0.51311(2) 0.85151(2) 0.79743(3)
O9_2 O 0.44331(14) 0.87102(15) 0.83018(15)
O10_2 O 0.30595(15) 0.89290(15) 0.98236(14)
O12_2 O 0.45656(17) 0.73258(16) 0.82553(15)
Cu1_3 Cu 0.55912(2) 0.28408(3) 0.61457(2)
O1_3 O 0.33018(15) 0.44331(14) 0.62898(15)
O2_3 O 0.57903(14) 0.31371(17) 0.54521(14)
O3_3 O 0.48236(14) 0.30595(15) 0.60710(15)
O5_3 O 0.26742(16) 0.17447(15) 0.54344(17)
O6_3 O 0.46143(19) 0.2236(2) 0.5736(3)
O7_3 O 0.2525(2) 0.4266(2) 0.5878(3)
N1_3 N 0.63800(18) 0.2736(2) 0.62801(18)
N2_3 N 0.67311(19) 0.2766(2) 0.58564(19)
C1_3 C 0.6670(3) 0.2684(3) 0.6741(3)
H1_3 H 0.6523 0.2651 0.7091
C2_3 C 0.7240(3) 0.2734(3) 0.6059(3)
H2_3 H 0.7559 0.2742 0.5851
C3_3 C 0.3896(2) 0.2879(2) 0.5826(2)
C4_3 C 0.7221(3) 0.2686(4) 0.6619(3)
H3_3 H 0.7513 0.2661 0.6862
C5_3 C 0.2551(2) 0.2239(2) 0.5385(2)
C6_3 C 0.2981(2) 0.4120(2) 0.6017(3)
C7_3 C 0.3190(2) 0.3565(2) 0.5874(2)
C8_3 C 0.2971(2) 0.2654(2) 0.5565(2)
C9_3 C 0.4485(2) 0.2704(2) 0.5883(2)
C10_3 C 0.3728(2) 0.3415(2) 0.5948(2)
H4_3 H 0.3981 0.3668 0.6079
C11_3 C 0.3509(2) 0.2502(2) 0.5640(2)
H5_3 H 0.3616 0.2144 0.5566
C12_3 C 0.2809(2) 0.3188(2) 0.5677(2)
H6_3 H 0.2448 0.3294 0.5619
Cu3_3 Cu 0.38543(2) 0.44088(2) 0.71592(3)
Cu4_3 Cu 0.21592(3) 0.11457(2) 0.55912(2)
Cu6_3 Cu 0.29743(3) 0.51311(2) 0.64849(2)
Cu7_3 Cu 0.48689(2) 0.35151(2) 0.70257(3)
O8_3 O 0.62898(15) 0.33018(15) 0.44331(14)
O9_3 O 0.55669(14) 0.37102(15) 0.66982(15)
O10_3 O 0.69405(15) 0.39290(15) 0.51764(14)
O12_3 O 0.54344(17) 0.23258(16) 0.67447(15)
O1_4 O 0.16982(15) 0.55669(14) 0.12898(15)
O3_4 O 0.01764(14) 0.69405(15) 0.10710(15)
O5_4 O 0.23258(16) 0.82553(15) 0.04344(17)
O6_4 O 0.03857(19) 0.7764(2) 0.0736(3)
O7_4 O 0.2475(2) 0.5734(2) 0.0878(3)
C3_4 C 0.1104(2) 0.7121(2) 0.0826(2)
C5_4 C 0.2449(2) 0.7761(2) 0.0385(2)
C6_4 C 0.2019(2) 0.5880(2) 0.1017(3)
C7_4 C 0.1810(2) 0.6435(2) 0.0874(2)
C8_4 C 0.2029(2) 0.7346(2) 0.0565(2)
C9_4 C 0.0515(2) 0.7296(2) 0.0883(2)
C10_4 C 0.1272(2) 0.6585(2) 0.0948(2)
H4_4 H 0.1019 0.6332 0.1079
C11_4 C 0.1491(2) 0.7498(2) 0.0640(2)
H5_4 H 0.1384 0.7856 0.0566
C12_4 C 0.2191(2) 0.6812(2) 0.0677(2)
H6_4 H 0.2552 0.6706 0.0619
Cu3_4 Cu 0.11457(2) 0.55912(2) 0.21592(3)
Cu4_4 Cu 0.28408(3) 0.88543(2) 0.05912(2)
Cu6_4 Cu 0.20257(3) 0.48689(2) 0.14849(2)
Cu7_4 Cu 0.01311(2) 0.64849(2) 0.20257(3)
Cu1_4 Cu 0.94088(2) 0.71592(3) 0.11457(2)
O2_4 O 0.92097(14) 0.68629(17) 0.04521(14)
N1_4 N 0.86200(18) 0.7264(2) 0.12801(18)
N2_4 N 0.82689(19) 0.7234(2) 0.08564(19)
C1_4 C 0.8330(3) 0.7316(3) 0.1741(3)
H1_4 H 0.8477 0.7349 0.2091
C2_4 C 0.7760(3) 0.7266(3) 0.1059(3)
H2_4 H 0.7441 0.7258 0.0851
C4_4 C 0.7779(3) 0.7314(4) 0.1619(3)
H3_4 H 0.7487 0.7339 0.1862
O9_4 O 0.94331(14) 0.62898(15) 0.16982(15)
O10_4 O 0.80595(15) 0.60710(15) 0.01764(14)
O12_4 O 0.95656(17) 0.76742(16) 0.17447(15)
O8_4 O 0.87102(15) 0.66982(15) 0.94331(14)
Cu1_5 Cu 0.38543(2) 0.05912(2) 0.21592(3)
Cu2_3 Cu 0.48689(2) 0.14849(2) 0.20257(3)
O2_5 O 0.45479(14) 0.07903(14) 0.18629(17)
N1_5 N 0.37199(18) 0.13800(18) 0.2264(2)
N2_5 N 0.41436(19) 0.17311(19) 0.2234(2)
C1_5 C 0.3259(3) 0.1670(3) 0.2316(3)
H1_5 H 0.2909 0.1523 0.2349
C2_5 C 0.3941(3) 0.2240(3) 0.2266(3)
H2_5 H 0.4149 0.2559 0.2258
C4_5 C 0.3381(3) 0.2221(3) 0.2314(4)
H3_5 H 0.3138 0.2513 0.2339
O8_5 O 0.55669(14) 0.12898(15) 0.16982(15)
O9_5 O 0.33018(15) 0.05669(14) 0.12898(15)
O10_5 O 0.48236(14) 0.19405(15) 0.10710(15)
O11_3 O 0.51985(18) 0.21072(16) 0.24245(16)
O12_5 O 0.32553(15) 0.04344(17) 0.26742(16)
O3_5 O 0.39290(15) 0.98236(14) 0.19405(15)
O4_3 O 0.48015(18) 0.71072(16) 0.25755(16)
O5_5 O 0.45656(17) 0.76742(16) 0.32553(15)
O6_5 O 0.4264(3) 0.96143(19) 0.2764(2)
O7_5 O 0.4122(3) 0.7525(2) 0.0734(2)
C3_5 C 0.4174(2) 0.8896(2) 0.2121(2)
C5_5 C 0.4615(2) 0.7551(2) 0.2761(2)
C6_5 C 0.3983(3) 0.7981(2) 0.0880(2)
C7_5 C 0.4126(2) 0.8190(2) 0.1435(2)
C8_5 C 0.4435(2) 0.7971(2) 0.2346(2)
C9_5 C 0.4117(2) 0.9485(2) 0.2296(2)
C10_5 C 0.4052(2) 0.8728(2) 0.1585(2)
H4_5 H 0.3921 0.8981 0.1332
C11_5 C 0.4360(2) 0.8509(2) 0.2498(2)
H5_5 H 0.4434 0.8616 0.2856
C12_5 C 0.4323(2) 0.7809(2) 0.1812(2)
H6_5 H 0.4381 0.7448 0.1706
Cu4_5 Cu 0.44088(2) 0.71592(3) 0.38543(2)
Cu5_3 Cu 0.51311(2) 0.64849(2) 0.29743(3)
Cu7_5 Cu 0.29743(3) 0.98689(2) 0.14849(2)
O3_6 O 0.10710(15) 0.01764(14) 0.69405(15)
O4_4 O 0.01985(18) 0.28928(16) 0.75755(16)
O5_6 O 0.04344(17) 0.23258(16) 0.82553(15)
O6_6 O 0.0736(3) 0.03857(19) 0.7764(2)
O7_6 O 0.0878(3) 0.2475(2) 0.5734(2)
C3_6 C 0.0826(2) 0.1104(2) 0.7121(2)
C5_6 C 0.0385(2) 0.2449(2) 0.7761(2)
C6_6 C 0.1017(3) 0.2019(2) 0.5880(2)
C7_6 C 0.0874(2) 0.1810(2) 0.6435(2)
C8_6 C 0.0565(2) 0.2029(2) 0.7346(2)
C9_6 C 0.0883(2) 0.0515(2) 0.7296(2)
C10_6 C 0.0948(2) 0.1272(2) 0.6585(2)
H4_6 H 0.1079 0.1019 0.6332
C11_6 C 0.0640(2) 0.1491(2) 0.7498(2)
H5_6 H 0.0566 0.1384 0.7856
C12_6 C 0.0677(2) 0.2191(2) 0.6812(2)
H6_6 H 0.0619 0.2552 0.6706
Cu4_6 Cu 0.05912(2) 0.28408(3) 0.88543(2)
Cu7_6 Cu 0.20257(3) 0.01311(2) 0.64849(2)
Cu1_6 Cu 0.11457(2) 0.94088(2) 0.71592(3)
Cu2_4 Cu 0.01311(2) 0.85151(2) 0.70257(3)
O2_6 O 0.04521(14) 0.92097(14) 0.68629(17)
N1_6 N 0.12801(18) 0.86200(18) 0.7264(2)
N2_6 N 0.08564(19) 0.82689(19) 0.7234(2)
C1_6 C 0.1741(3) 0.8330(3) 0.7316(3)
H1_6 H 0.2091 0.8477 0.7349
C2_6 C 0.1059(3) 0.7760(3) 0.7266(3)
H2_6 H 0.0851 0.7441 0.7258
C4_6 C 0.1619(3) 0.7779(3) 0.7314(4)
H3_6 H 0.1862 0.7487 0.7339
O9_6 O 0.16982(15) 0.94331(14) 0.62898(15)
O10_6 O 0.01764(14) 0.80595(15) 0.60710(15)
O12_6 O 0.17447(15) 0.95656(17) 0.76742(16)
Cu5_4 Cu 0.98689(2) 0.35151(2) 0.79743(3)
O8_6 O 0.94331(14) 0.87102(15) 0.66982(15)
O11_4 O 0.98015(18) 0.78928(16) 0.74245(16)
O8_7 O 0.05669(14) 0.37102(15) 0.83018(15)
Cu1_7 Cu 0.88543(2) 0.44088(2) 0.78408(3)
O2_7 O 0.95479(14) 0.42097(14) 0.81371(17)
O3_7 O 0.89290(15) 0.51764(14) 0.80595(15)
O5_7 O 0.95656(17) 0.73258(16) 0.67447(15)
O6_7 O 0.9264(3) 0.53857(19) 0.7236(2)
O7_7 O 0.9122(3) 0.7475(2) 0.9266(2)
N1_7 N 0.87199(18) 0.36200(18) 0.7736(2)
N2_7 N 0.91436(19) 0.32689(19) 0.7766(2)
C1_7 C 0.8259(3) 0.3330(3) 0.7684(3)
H1_7 H 0.7909 0.3477 0.7651
C2_7 C 0.8941(3) 0.2760(3) 0.7734(3)
H2_7 H 0.9149 0.2441 0.7742
C3_7 C 0.9174(2) 0.6104(2) 0.7879(2)
C4_7 C 0.8381(3) 0.2779(3) 0.7686(4)
H3_7 H 0.8138 0.2487 0.7661
C5_7 C 0.9615(2) 0.7449(2) 0.7239(2)
C6_7 C 0.8983(3) 0.7019(2) 0.9120(2)
C7_7 C 0.9126(2) 0.6810(2) 0.8565(2)
C8_7 C 0.9435(2) 0.7029(2) 0.7654(2)
C9_7 C 0.9117(2) 0.5515(2) 0.7704(2)
C10_7 C 0.9052(2) 0.6272(2) 0.8415(2)
H4_7 H 0.8921 0.6019 0.8668
C11_7 C 0.9360(2) 0.6491(2) 0.7502(2)
H5_7 H 0.9434 0.6384 0.7144
C12_7 C 0.9323(2) 0.7191(2) 0.8188(2)
H6_7 H 0.9381 0.7552 0.8294
Cu4_7 Cu 0.94088(2) 0.78408(3) 0.61457(2)
Cu7_7 Cu 0.79743(3) 0.51311(2) 0.85151(2)
O9_7 O 0.83018(15) 0.44331(14) 0.87102(15)
O10_7 O 0.98236(14) 0.30595(15) 0.89290(15)
O12_7 O 0.82553(15) 0.45656(17) 0.73258(16)
Cu1_8 Cu 0.61457(2) 0.55912(2) 0.28408(3)
O2_8 O 0.54521(14) 0.57903(14) 0.31371(17)
O3_8 O 0.60710(15) 0.48236(14) 0.30595(15)
O5_8 O 0.54344(17) 0.26742(16) 0.17447(15)
O6_8 O 0.5736(3) 0.46143(19) 0.2236(2)
O7_8 O 0.5878(3) 0.2525(2) 0.4266(2)
N1_8 N 0.62801(18) 0.63800(18) 0.2736(2)
N2_8 N 0.58564(19) 0.67311(19) 0.2766(2)
C1_8 C 0.6741(3) 0.6670(3) 0.2684(3)
H1_8 H 0.7091 0.6523 0.2651
C2_8 C 0.6059(3) 0.7240(3) 0.2734(3)
H2_8 H 0.5851 0.7559 0.2742
C3_8 C 0.5826(2) 0.3896(2) 0.2879(2)
C4_8 C 0.6619(3) 0.7221(3) 0.2686(4)
H3_8 H 0.6862 0.7513 0.2661
C5_8 C 0.5385(2) 0.2551(2) 0.2239(2)
C6_8 C 0.6017(3) 0.2981(2) 0.4120(2)
C7_8 C 0.5874(2) 0.3190(2) 0.3565(2)
C8_8 C 0.5565(2) 0.2971(2) 0.2654(2)
C9_8 C 0.5883(2) 0.4485(2) 0.2704(2)
C10_8 C 0.5948(2) 0.3728(2) 0.3415(2)
H4_8 H 0.6079 0.3981 0.3668
C11_8 C 0.5640(2) 0.3509(2) 0.2502(2)
H5_8 H 0.5566 0.3616 0.2144
C12_8 C 0.5677(2) 0.2809(2) 0.3188(2)
H6_8 H 0.5619 0.2448 0.3294
Cu4_8 Cu 0.55912(2) 0.21592(3) 0.11457(2)
Cu7_8 Cu 0.70257(3) 0.48689(2) 0.35151(2)
O8_8 O 0.44331(14) 0.62898(15) 0.33018(15)
O9_8 O 0.66982(15) 0.55669(14) 0.37102(15)
O10_8 O 0.51764(14) 0.69405(15) 0.39290(15)
O12_8 O 0.67447(15) 0.54344(17) 0.23258(16)
Cu1_9 Cu 0.21592(3) 0.38543(2) 0.05912(2)
O2_9 O 0.18629(17) 0.45479(14) 0.07903(14)
N1_9 N 0.2264(2) 0.37199(18) 0.13800(18)
N2_9 N 0.2234(2) 0.41436(19) 0.17311(19)
C1_9 C 0.2316(3) 0.3259(3) 0.1670(3)
H1_9 H 0.2349 0.2909 0.1523
C2_9 C 0.2266(3) 0.3941(3) 0.2240(3)
H2_9 H 0.2258 0.4149 0.2559
C4_9 C 0.2314(4) 0.3381(3) 0.2221(3)
H3_9 H 0.2339 0.3138 0.2513
O9_9 O 0.12898(15) 0.33018(15) 0.05669(14)
O10_9 O 0.10710(15) 0.48236(14) 0.19405(15)
O11_5 O 0.24245(16) 0.51985(18) 0.21072(16)
O12_9 O 0.26742(16) 0.32553(15) 0.04344(17)
O3_9 O 0.19405(15) 0.39290(15) 0.98236(14)
O4_5 O 0.25755(16) 0.48015(18) 0.71072(16)
O5_9 O 0.32553(15) 0.45656(17) 0.76742(16)
O6_9 O 0.2764(2) 0.4264(3) 0.96143(19)
O7_9 O 0.0734(2) 0.4122(3) 0.7525(2)
C3_9 C 0.2121(2) 0.4174(2) 0.8896(2)
C5_9 C 0.2761(2) 0.4615(2) 0.7551(2)
C6_9 C 0.0880(2) 0.3983(3) 0.7981(2)
C7_9 C 0.1435(2) 0.4126(2) 0.8190(2)
C8_9 C 0.2346(2) 0.4435(2) 0.7971(2)
C9_9 C 0.2296(2) 0.4117(2) 0.9485(2)
C10_9 C 0.1585(2) 0.4052(2) 0.8728(2)
H4_9 H 0.1332 0.3921 0.8981
C11_9 C 0.2498(2) 0.4360(2) 0.8509(2)
H5_9 H 0.2856 0.4434 0.8616
C12_9 C 0.1812(2) 0.4323(2) 0.7809(2)
H6_9 H 0.1706 0.4381 0.7448
Cu7_9 Cu 0.14849(2) 0.29743(3) 0.98689(2)
O3_10 O 0.69405(15) 0.10710(15) 0.01764(14)
O4_6 O 0.75755(16) 0.01985(18) 0.28928(16)
O5_10 O 0.82553(15) 0.04344(17) 0.23258(16)
O6_10 O 0.7764(2) 0.0736(3) 0.03857(19)
O7_10 O 0.5734(2) 0.0878(3) 0.2475(2)
C3_10 C 0.7121(2) 0.0826(2) 0.1104(2)
C5_10 C 0.7761(2) 0.0385(2) 0.2449(2)
C6_10 C 0.5880(2) 0.1017(3) 0.2019(2)
C7_10 C 0.6435(2) 0.0874(2) 0.1810(2)
C8_10 C 0.7346(2) 0.0565(2) 0.2029(2)
C9_10 C 0.7296(2) 0.0883(2) 0.0515(2)
C10_10 C 0.6585(2) 0.0948(2) 0.1272(2)
H4_10 H 0.6332 0.1079 0.1019
C11_10 C 0.7498(2) 0.0640(2) 0.1491(2)
H5_10 H 0.7856 0.0566 0.1384
C12_10 C 0.6812(2) 0.0677(2) 0.2191(2)
H6_10 H 0.6706 0.0619 0.2552
Cu7_10 Cu 0.64849(2) 0.20257(3) 0.01311(2)
Cu1_10 Cu 0.71592(3) 0.11457(2) 0.94088(2)
O2_10 O 0.68629(17) 0.04521(14) 0.92097(14)
N1_10 N 0.7264(2) 0.12801(18) 0.86200(18)
N2_10 N 0.7234(2) 0.08564(19) 0.82689(19)
C1_10 C 0.7316(3) 0.1741(3) 0.8330(3)
H1_10 H 0.7349 0.2091 0.8477
C2_10 C 0.7266(3) 0.1059(3) 0.7760(3)
H2_10 H 0.7258 0.0851 0.7441
C4_10 C 0.7314(4) 0.1619(3) 0.7779(3)
H3_10 H 0.7339 0.1862 0.7487
O9_10 O 0.62898(15) 0.16982(15) 0.94331(14)
O10_10 O 0.60710(15) 0.01764(14) 0.80595(15)
O12_10 O 0.76742(16) 0.17447(15) 0.95656(17)
O11_6 O 0.74245(16) 0.98015(18) 0.78928(16)
Cu1_11 Cu 0.78408(3) 0.88543(2) 0.44088(2)
O2_11 O 0.81371(17) 0.95479(14) 0.42097(14)
O3_11 O 0.80595(15) 0.89290(15) 0.51764(14)
O5_11 O 0.67447(15) 0.95656(17) 0.73258(16)
O6_11 O 0.7236(2) 0.9264(3) 0.53857(19)
O7_11 O 0.9266(2) 0.9122(3) 0.7475(2)
N1_11 N 0.7736(2) 0.87199(18) 0.36200(18)
N2_11 N 0.7766(2) 0.91436(19) 0.32689(19)
C1_11 C 0.7684(3) 0.8259(3) 0.3330(3)
H1_11 H 0.7651 0.7909 0.3477
C2_11 C 0.7734(3) 0.8941(3) 0.2760(3)
H2_11 H 0.7742 0.9149 0.2441
C3_11 C 0.7879(2) 0.9174(2) 0.6104(2)
C4_11 C 0.7686(4) 0.8381(3) 0.2779(3)
H3_11 H 0.7661 0.8138 0.2487
C5_11 C 0.7239(2) 0.9615(2) 0.7449(2)
C6_11 C 0.9120(2) 0.8983(3) 0.7019(2)
C7_11 C 0.8565(2) 0.9126(2) 0.6810(2)
C8_11 C 0.7654(2) 0.9435(2) 0.7029(2)
C9_11 C 0.7704(2) 0.9117(2) 0.5515(2)
C10_11 C 0.8415(2) 0.9052(2) 0.6272(2)
H4_11 H 0.8668 0.8921 0.6019
C11_11 C 0.7502(2) 0.9360(2) 0.6491(2)
H5_11 H 0.7144 0.9434 0.6384
C12_11 C 0.8188(2) 0.9323(2) 0.7191(2)
H6_11 H 0.8294 0.9381 0.7552
Cu7_11 Cu 0.85151(2) 0.79743(3) 0.51311(2)
O9_11 O 0.87102(15) 0.83018(15) 0.44331(14)
O10_11 O 0.89290(15) 0.98236(14) 0.30595(15)
O12_11 O 0.73258(16) 0.82553(15) 0.45656(17)
Cu1_12 Cu 0.28408(3) 0.61457(2) 0.55912(2)
O2_12 O 0.31371(17) 0.54521(14) 0.57903(14)
O3_12 O 0.30595(15) 0.60710(15) 0.48236(14)
O5_12 O 0.17447(15) 0.54344(17) 0.26742(16)
O6_12 O 0.2236(2) 0.5736(3) 0.46143(19)
O7_12 O 0.4266(2) 0.5878(3) 0.2525(2)
N1_12 N 0.2736(2) 0.62801(18) 0.63800(18)
N2_12 N 0.2766(2) 0.58564(19) 0.67311(19)
C1_12 C 0.2684(3) 0.6741(3) 0.6670(3)
H1_12 H 0.2651 0.7091 0.6523
C2_12 C 0.2734(3) 0.6059(3) 0.7240(3)
H2_12 H 0.2742 0.5851 0.7559
C3_12 C 0.2879(2) 0.5826(2) 0.3896(2)
C4_12 C 0.2686(4) 0.6619(3) 0.7221(3)
H3_12 H 0.2661 0.6862 0.7513
C5_12 C 0.2239(2) 0.5385(2) 0.2551(2)
C6_12 C 0.4120(2) 0.6017(3) 0.2981(2)
C7_12 C 0.3565(2) 0.5874(2) 0.3190(2)
C8_12 C 0.2654(2) 0.5565(2) 0.2971(2)
C9_12 C 0.2704(2) 0.5883(2) 0.4485(2)
C10_12 C 0.3415(2) 0.5948(2) 0.3728(2)
H4_12 H 0.3668 0.6079 0.3981
C11_12 C 0.2502(2) 0.5640(2) 0.3509(2)
H5_12 H 0.2144 0.5566 0.3616
C12_12 C 0.3188(2) 0.5677(2) 0.2809(2)
H6_12 H 0.3294 0.5619 0.2448
Cu7_12 Cu 0.35151(2) 0.70257(3) 0.48689(2)
O9_12 O 0.37102(15) 0.66982(15) 0.55669(14)
O10_12 O 0.39290(15) 0.51764(14) 0.69405(15)
O12_12 O 0.23258(16) 0.67447(15) 0.54344(17)
O4_7 O 0.28928(16) 0.74245(16) 0.51985(18)
O6_13 O 0.03857(19) 0.7236(2) 0.5736(3)
O7_13 O 0.2475(2) 0.9266(2) 0.5878(3)
C3_13 C 0.1104(2) 0.7879(2) 0.5826(2)
C5_13 C 0.2449(2) 0.7239(2) 0.5385(2)
C6_13 C 0.2019(2) 0.9120(2) 0.6017(3)
C7_13 C 0.1810(2) 0.8565(2) 0.5874(2)
C8_13 C 0.2029(2) 0.7654(2) 0.5565(2)
C9_13 C 0.0515(2) 0.7704(2) 0.5883(2)
C10_13 C 0.1272(2) 0.8415(2) 0.5948(2)
H4_13 H 0.1019 0.8668 0.6079
C11_13 C 0.1491(2) 0.7502(2) 0.5640(2)
H5_13 H 0.1384 0.7144 0.5566
C12_13 C 0.2191(2) 0.8188(2) 0.5677(2)
H6_13 H 0.2552 0.8294 0.5619
O2_13 O 0.92097(14) 0.81371(17) 0.54521(14)
N1_13 N 0.86200(18) 0.7736(2) 0.62801(18)
N2_13 N 0.82689(19) 0.7766(2) 0.58564(19)
C1_13 C 0.8330(3) 0.7684(3) 0.6741(3)
H1_13 H 0.8477 0.7651 0.7091
C2_13 C 0.7760(3) 0.7734(3) 0.6059(3)
H2_13 H 0.7441 0.7742 0.5851
C4_13 C 0.7779(3) 0.7686(4) 0.6619(3)
H3_13 H 0.7487 0.7661 0.6862
O11_7 O 0.78928(16) 0.75755(16) 0.48015(18)
O2_14 O 0.57903(14) 0.18629(17) 0.04521(14)
O4_8 O 0.21072(16) 0.25755(16) 0.01985(18)
O6_14 O 0.46143(19) 0.2764(2) 0.0736(3)
O7_14 O 0.2525(2) 0.0734(2) 0.0878(3)
N1_14 N 0.63800(18) 0.2264(2) 0.12801(18)
N2_14 N 0.67311(19) 0.2234(2) 0.08564(19)
C1_14 C 0.6670(3) 0.2316(3) 0.1741(3)
H1_14 H 0.6523 0.2349 0.2091
C2_14 C 0.7240(3) 0.2266(3) 0.1059(3)
H2_14 H 0.7559 0.2258 0.0851
C3_14 C 0.3896(2) 0.2121(2) 0.0826(2)
C4_14 C 0.7221(3) 0.2314(4) 0.1619(3)
H3_14 H 0.7513 0.2339 0.1862
C5_14 C 0.2551(2) 0.2761(2) 0.0385(2)
C6_14 C 0.2981(2) 0.0880(2) 0.1017(3)
C7_14 C 0.3190(2) 0.1435(2) 0.0874(2)
C8_14 C 0.2971(2) 0.2346(2) 0.0565(2)
C9_14 C 0.4485(2) 0.2296(2) 0.0883(2)
C10_14 C 0.3728(2) 0.1585(2) 0.0948(2)
H4_14 H 0.3981 0.1332 0.1079
C11_14 C 0.3509(2) 0.2498(2) 0.0640(2)
H5_14 H 0.3616 0.2856 0.0566
C12_14 C 0.2809(2) 0.1812(2) 0.0677(2)
H6_14 H 0.2448 0.1706 0.0619
O11_8 O 0.71072(16) 0.24245(16) 0.98015(18)
O2_15 O 0.42097(14) 0.68629(17) 0.45479(14)
O6_15 O 0.53857(19) 0.7764(2) 0.4264(3)
O7_15 O 0.7475(2) 0.5734(2) 0.4122(3)
N1_15 N 0.36200(18) 0.7264(2) 0.37199(18)
N2_15 N 0.32689(19) 0.7234(2) 0.41436(19)
C1_15 C 0.3330(3) 0.7316(3) 0.3259(3)
H1_15 H 0.3477 0.7349 0.2909
C2_15 C 0.2760(3) 0.7266(3) 0.3941(3)
H2_15 H 0.2441 0.7258 0.4149
C3_15 C 0.6104(2) 0.7121(2) 0.4174(2)
C4_15 C 0.2779(3) 0.7314(4) 0.3381(3)
H3_15 H 0.2487 0.7339 0.3138
C5_15 C 0.7449(2) 0.7761(2) 0.4615(2)
C6_15 C 0.7019(2) 0.5880(2) 0.3983(3)
C7_15 C 0.6810(2) 0.6435(2) 0.4126(2)
C8_15 C 0.7029(2) 0.7346(2) 0.4435(2)
C9_15 C 0.5515(2) 0.7296(2) 0.4117(2)
C10_15 C 0.6272(2) 0.6585(2) 0.4052(2)
H4_15 H 0.6019 0.6332 0.3921
C11_15 C 0.6491(2) 0.7498(2) 0.4360(2)
H5_15 H 0.6384 0.7856 0.4434
C12_15 C 0.7191(2) 0.6812(2) 0.4323(2)
H6_15 H 0.7552 0.6706 0.4381
O2_16 O 0.07903(14) 0.31371(17) 0.95479(14)
N1_16 N 0.13800(18) 0.2736(2) 0.87199(18)
N2_16 N 0.17311(19) 0.2766(2) 0.91436(19)
C1_16 C 0.1670(3) 0.2684(3) 0.8259(3)
H1_16 H 0.1523 0.2651 0.7909
C2_16 C 0.2240(3) 0.2734(3) 0.8941(3)
H2_16 H 0.2559 0.2742 0.9149
C4_16 C 0.2221(3) 0.2686(4) 0.8381(3)
H3_16 H 0.2513 0.2661 0.8138
O6_16 O 0.96143(19) 0.2236(2) 0.9264(3)
O7_16 O 0.7525(2) 0.4266(2) 0.9122(3)
C3_16 C 0.8896(2) 0.2879(2) 0.9174(2)
C5_16 C 0.7551(2) 0.2239(2) 0.9615(2)
C6_16 C 0.7981(2) 0.4120(2) 0.8983(3)
C7_16 C 0.8190(2) 0.3565(2) 0.9126(2)
C8_16 C 0.7971(2) 0.2654(2) 0.9435(2)
C9_16 C 0.9485(2) 0.2704(2) 0.9117(2)
C10_16 C 0.8728(2) 0.3415(2) 0.9052(2)
H4_16 H 0.8981 0.3668 0.8921
C11_16 C 0.8509(2) 0.2502(2) 0.9360(2)
H5_16 H 0.8616 0.2144 0.9434
C12_16 C 0.7809(2) 0.3188(2) 0.9323(2)
H6_16 H 0.7448 0.3294 0.9381
O4_9 O 0.51985(18) 0.28928(16) 0.74245(16)
O6_17 O 0.5736(3) 0.03857(19) 0.7236(2)
O7_17 O 0.5878(3) 0.2475(2) 0.9266(2)
C3_17 C 0.5826(2) 0.1104(2) 0.7879(2)
C5_17 C 0.5385(2) 0.2449(2) 0.7239(2)
C6_17 C 0.6017(3) 0.2019(2) 0.9120(2)
C7_17 C 0.5874(2) 0.1810(2) 0.8565(2)
C8_17 C 0.5565(2) 0.2029(2) 0.7654(2)
C9_17 C 0.5883(2) 0.0515(2) 0.7704(2)
C10_17 C 0.5948(2) 0.1272(2) 0.8415(2)
H4_17 H 0.6079 0.1019 0.8668
C11_17 C 0.5640(2) 0.1491(2) 0.7502(2)
H5_17 H 0.5566 0.1384 0.7144
C12_17 C 0.5677(2) 0.2191(2) 0.8188(2)
H6_17 H 0.5619 0.2552 0.8294
O2_17 O 0.54521(14) 0.92097(14) 0.81371(17)
N1_17 N 0.62801(18) 0.86200(18) 0.7736(2)
N2_17 N 0.58564(19) 0.82689(19) 0.7766(2)
C1_17 C 0.6741(3) 0.8330(3) 0.7684(3)
H1_17 H 0.7091 0.8477 0.7651
C2_17 C 0.6059(3) 0.7760(3) 0.7734(3)
H2_17 H 0.5851 0.7441 0.7742
C4_17 C 0.6619(3) 0.7779(3) 0.7686(4)
H3_17 H 0.6862 0.7487 0.7661
O11_9 O 0.48015(18) 0.78928(16) 0.75755(16)
O11_10 O 0.01985(18) 0.21072(16) 0.25755(16)
O2_18 O 0.95479(14) 0.07903(14) 0.31371(17)
N1_18 N 0.87199(18) 0.13800(18) 0.2736(2)
N2_18 N 0.91436(19) 0.17311(19) 0.2766(2)
C1_18 C 0.8259(3) 0.1670(3) 0.2684(3)
H1_18 H 0.7909 0.1523 0.2651
C2_18 C 0.8941(3) 0.2240(3) 0.2734(3)
H2_18 H 0.9149 0.2559 0.2742
C4_18 C 0.8381(3) 0.2221(3) 0.2686(4)
H3_18 H 0.8138 0.2513 0.2661
O4_10 O 0.98015(18) 0.71072(16) 0.24245(16)
O6_18 O 0.9264(3) 0.96143(19) 0.2236(2)
O7_18 O 0.9122(3) 0.7525(2) 0.4266(2)
C3_18 C 0.9174(2) 0.8896(2) 0.2879(2)
C5_18 C 0.9615(2) 0.7551(2) 0.2239(2)
C6_18 C 0.8983(3) 0.7981(2) 0.4120(2)
C7_18 C 0.9126(2) 0.8190(2) 0.3565(2)
C8_18 C 0.9435(2) 0.7971(2) 0.2654(2)
C9_18 C 0.9117(2) 0.9485(2) 0.2704(2)
C10_18 C 0.9052(2) 0.8728(2) 0.3415(2)
H4_18 H 0.8921 0.8981 0.3668
C11_18 C 0.9360(2) 0.8509(2) 0.2502(2)
H5_18 H 0.9434 0.8616 0.2144
C12_18 C 0.9323(2) 0.7809(2) 0.3188(2)
H6_18 H 0.9381 0.7448 0.3294
O2_19 O 0.04521(14) 0.57903(14) 0.18629(17)
O6_19 O 0.0736(3) 0.46143(19) 0.2764(2)
O7_19 O 0.0878(3) 0.2525(2) 0.0734(2)
N1_19 N 0.12801(18) 0.63800(18) 0.2264(2)
N2_19 N 0.08564(19) 0.67311(19) 0.2234(2)
C1_19 C 0.1741(3) 0.6670(3) 0.2316(3)
H1_19 H 0.2091 0.6523 0.2349
C2_19 C 0.1059(3) 0.7240(3) 0.2266(3)
H2_19 H 0.0851 0.7559 0.2258
C3_19 C 0.0826(2) 0.3896(2) 0.2121(2)
C4_19 C 0.1619(3) 0.7221(3) 0.2314(4)
H3_19 H 0.1862 0.7513 0.2339
C5_19 C 0.0385(2) 0.2551(2) 0.2761(2)
C6_19 C 0.1017(3) 0.2981(2) 0.0880(2)
C7_19 C 0.0874(2) 0.3190(2) 0.1435(2)
C8_19 C 0.0565(2) 0.2971(2) 0.2346(2)
C9_19 C 0.0883(2) 0.4485(2) 0.2296(2)
C10_19 C 0.0948(2) 0.3728(2) 0.1585(2)
H4_19 H 0.1079 0.3981 0.1332
C11_19 C 0.0640(2) 0.3509(2) 0.2498(2)
H5_19 H 0.0566 0.3616 0.2856
C12_19 C 0.0677(2) 0.2809(2) 0.1812(2)
H6_19 H 0.0619 0.2448 0.1706
O2_20 O 0.45479(14) 0.42097(14) 0.68629(17)
O6_20 O 0.4264(3) 0.53857(19) 0.7764(2)
O7_20 O 0.4122(3) 0.7475(2) 0.5734(2)
N1_20 N 0.37199(18) 0.36200(18) 0.7264(2)
N2_20 N 0.41436(19) 0.32689(19) 0.7234(2)
C1_20 C 0.3259(3) 0.3330(3) 0.7316(3)
H1_20 H 0.2909 0.3477 0.7349
C2_20 C 0.3941(3) 0.2760(3) 0.7266(3)
H2_20 H 0.4149 0.2441 0.7258
C3_20 C 0.4174(2) 0.6104(2) 0.7121(2)
C4_20 C 0.3381(3) 0.2779(3) 0.7314(4)
H3_20 H 0.3138 0.2487 0.7339
C5_20 C 0.4615(2) 0.7449(2) 0.7761(2)
C6_20 C 0.3983(3) 0.7019(2) 0.5880(2)
C7_20 C 0.4126(2) 0.6810(2) 0.6435(2)
C8_20 C 0.4435(2) 0.7029(2) 0.7346(2)
C9_20 C 0.4117(2) 0.5515(2) 0.7296(2)
C10_20 C 0.4052(2) 0.6272(2) 0.6585(2)
H4_20 H 0.3921 0.6019 0.6332
C11_20 C 0.4360(2) 0.6491(2) 0.7498(2)
H5_20 H 0.4434 0.6384 0.7856
C12_20 C 0.4323(2) 0.7191(2) 0.6812(2)
H6_20 H 0.4381 0.7552 0.6706
O4_11 O 0.74245(16) 0.51985(18) 0.28928(16)
O6_21 O 0.7236(2) 0.5736(3) 0.03857(19)
O7_21 O 0.9266(2) 0.5878(3) 0.2475(2)
C3_21 C 0.7879(2) 0.5826(2) 0.1104(2)
C5_21 C 0.7239(2) 0.5385(2) 0.2449(2)
C6_21 C 0.9120(2) 0.6017(3) 0.2019(2)
C7_21 C 0.8565(2) 0.5874(2) 0.1810(2)
C8_21 C 0.7654(2) 0.5565(2) 0.2029(2)
C9_21 C 0.7704(2) 0.5883(2) 0.0515(2)
C10_21 C 0.8415(2) 0.5948(2) 0.1272(2)
H4_21 H 0.8668 0.6079 0.1019
C11_21 C 0.7502(2) 0.5640(2) 0.1491(2)
H5_21 H 0.7144 0.5566 0.1384
C12_21 C 0.8188(2) 0.5677(2) 0.2191(2)
H6_21 H 0.8294 0.5619 0.2552
O2_21 O 0.81371(17) 0.54521(14) 0.92097(14)
N1_21 N 0.7736(2) 0.62801(18) 0.86200(18)
N2_21 N 0.7766(2) 0.58564(19) 0.82689(19)
C1_21 C 0.7684(3) 0.6741(3) 0.8330(3)
H1_21 H 0.7651 0.7091 0.8477
C2_21 C 0.7734(3) 0.6059(3) 0.7760(3)
H2_21 H 0.7742 0.5851 0.7441
C4_21 C 0.7686(4) 0.6619(3) 0.7779(3)
H3_21 H 0.7661 0.6862 0.7487
O11_11 O 0.75755(16) 0.48015(18) 0.78928(16)
O11_12 O 0.25755(16) 0.01985(18) 0.21072(16)
O2_22 O 0.31371(17) 0.95479(14) 0.07903(14)
N1_22 N 0.2736(2) 0.87199(18) 0.13800(18)
N2_22 N 0.2766(2) 0.91436(19) 0.17311(19)
C1_22 C 0.2684(3) 0.8259(3) 0.1670(3)
H1_22 H 0.2651 0.7909 0.1523
C2_22 C 0.2734(3) 0.8941(3) 0.2240(3)
H2_22 H 0.2742 0.9149 0.2559
C4_22 C 0.2686(4) 0.8381(3) 0.2221(3)
H3_22 H 0.2661 0.8138 0.2513
O4_12 O 0.24245(16) 0.98015(18) 0.71072(16)
O6_22 O 0.2236(2) 0.9264(3) 0.96143(19)
O7_22 O 0.4266(2) 0.9122(3) 0.7525(2)
C3_22 C 0.2879(2) 0.9174(2) 0.8896(2)
C5_22 C 0.2239(2) 0.9615(2) 0.7551(2)
C6_22 C 0.4120(2) 0.8983(3) 0.7981(2)
C7_22 C 0.3565(2) 0.9126(2) 0.8190(2)
C8_22 C 0.2654(2) 0.9435(2) 0.7971(2)
C9_22 C 0.2704(2) 0.9117(2) 0.9485(2)
C10_22 C 0.3415(2) 0.9052(2) 0.8728(2)
H4_22 H 0.3668 0.8921 0.8981
C11_22 C 0.2502(2) 0.9360(2) 0.8509(2)
H5_22 H 0.2144 0.9434 0.8616
C12_22 C 0.3188(2) 0.9323(2) 0.7809(2)
H6_22 H 0.3294 0.9381 0.7448
O2_23 O 0.18629(17) 0.04521(14) 0.57903(14)
O6_23 O 0.2764(2) 0.0736(3) 0.46143(19)
O7_23 O 0.0734(2) 0.0878(3) 0.2525(2)
N1_23 N 0.2264(2) 0.12801(18) 0.63800(18)
N2_23 N 0.2234(2) 0.08564(19) 0.67311(19)
C1_23 C 0.2316(3) 0.1741(3) 0.6670(3)
H1_23 H 0.2349 0.2091 0.6523
C2_23 C 0.2266(3) 0.1059(3) 0.7240(3)
H2_23 H 0.2258 0.0851 0.7559
C3_23 C 0.2121(2) 0.0826(2) 0.3896(2)
C4_23 C 0.2314(4) 0.1619(3) 0.7221(3)
H3_23 H 0.2339 0.1862 0.7513
C5_23 C 0.2761(2) 0.0385(2) 0.2551(2)
C6_23 C 0.0880(2) 0.1017(3) 0.2981(2)
C7_23 C 0.1435(2) 0.0874(2) 0.3190(2)
C8_23 C 0.2346(2) 0.0565(2) 0.2971(2)
C9_23 C 0.2296(2) 0.0883(2) 0.4485(2)
C10_23 C 0.1585(2) 0.0948(2) 0.3728(2)
H4_23 H 0.1332 0.1079 0.3981
C11_23 C 0.2498(2) 0.0640(2) 0.3509(2)
H5_23 H 0.2856 0.0566 0.3616
C12_23 C 0.1812(2) 0.0677(2) 0.2809(2)
H6_23 H 0.1706 0.0619 0.2448
O2_24 O 0.68629(17) 0.45479(14) 0.42097(14)
O6_24 O 0.7764(2) 0.4264(3) 0.53857(19)
O7_24 O 0.5734(2) 0.4122(3) 0.7475(2)
N1_24 N 0.7264(2) 0.37199(18) 0.36200(18)
N2_24 N 0.7234(2) 0.41436(19) 0.32689(19)
C1_24 C 0.7316(3) 0.3259(3) 0.3330(3)
H1_24 H 0.7349 0.2909 0.3477
C2_24 C 0.7266(3) 0.3941(3) 0.2760(3)
H2_24 H 0.7258 0.4149 0.2441
C3_24 C 0.7121(2) 0.4174(2) 0.6104(2)
C4_24 C 0.7314(4) 0.3381(3) 0.2779(3)
H3_24 H 0.7339 0.3138 0.2487
C5_24 C 0.7761(2) 0.4615(2) 0.7449(2)
C6_24 C 0.5880(2) 0.3983(3) 0.7019(2)
C7_24 C 0.6435(2) 0.4126(2) 0.6810(2)
C8_24 C 0.7346(2) 0.4435(2) 0.7029(2)
C9_24 C 0.7296(2) 0.4117(2) 0.5515(2)
C10_24 C 0.6585(2) 0.4052(2) 0.6272(2)
H4_24 H 0.6332 0.3921 0.6019
C11_24 C 0.7498(2) 0.4360(2) 0.6491(2)
H5_24 H 0.7856 0.4434 0.6384
C12_24 C 0.6812(2) 0.4323(2) 0.7191(2)
H6_24 H 0.6706 0.4381 0.7552
N3 N 0.1634(8) 0.4034(5) 0.4142(5)
C13 C 0.1868(10) 0.3738(9) 0.4607(7)
H7 H 0.1586 0.3536 0.4790
H8 H 0.2029 0.3995 0.4858
H9 H 0.2145 0.3490 0.4479
C14 C 0.1454(9) 0.3664(6) 0.3776(7)
H10 H 0.1130 0.3489 0.3914
H11 H 0.1733 0.3394 0.3715
H12 H 0.1371 0.3845 0.3437
C15 C 0.2183(9) 0.4281(6) 0.3922(7)
H13 H 0.2109 0.4499 0.3604
H14 H 0.2346 0.4506 0.4200
H15 H 0.2429 0.3990 0.3828
C16 C 0.1339(9) 0.4537(6) 0.4245(7)
H16 H 0.0980 0.4462 0.4387
H17 H 0.1541 0.4751 0.4505
H18 H 0.1307 0.4736 0.3908
N3_2 N 0.3366(8) 0.5966(5) 0.9142(5)
C13_2 C 0.3132(10) 0.6262(9) 0.9607(7)
H7_2 H 0.3414 0.6464 0.9790
H8_2 H 0.2971 0.6005 0.9858
H9_2 H 0.2855 0.6510 0.9479
C14_2 C 0.3546(9) 0.6336(6) 0.8776(7)
H10_2 H 0.3870 0.6511 0.8914
H11_2 H 0.3267 0.6606 0.8715
H12_2 H 0.3629 0.6155 0.8437
C15_2 C 0.2817(9) 0.5719(6) 0.8922(7)
H13_2 H 0.2891 0.5501 0.8604
H14_2 H 0.2654 0.5494 0.9200
H15_2 H 0.2571 0.6010 0.8828
C16_2 C 0.3661(9) 0.5463(6) 0.9245(7)
H16_2 H 0.4020 0.5538 0.9387
H17_2 H 0.3459 0.5249 0.9505
H18_2 H 0.3693 0.5264 0.8908
N3_3 N 0.6634(8) 0.0966(5) 0.5858(5)
C13_3 C 0.6868(10) 0.1262(9) 0.5393(7)
H7_3 H 0.6586 0.1464 0.5210
H8_3 H 0.7029 0.1005 0.5142
H9_3 H 0.7145 0.1510 0.5521
C14_3 C 0.6454(9) 0.1336(6) 0.6224(7)
H10_3 H 0.6130 0.1511 0.6086
H11_3 H 0.6733 0.1606 0.6285
H12_3 H 0.6371 0.1155 0.6563
C15_3 C 0.7183(9) 0.0719(6) 0.6078(7)
H13_3 H 0.7109 0.0501 0.6396
H14_3 H 0.7346 0.0494 0.5800
H15_3 H 0.7429 0.1010 0.6172
C16_3 C 0.6339(9) 0.0463(6) 0.5755(7)
H16_3 H 0.5980 0.0538 0.5613
H17_3 H 0.6541 0.0249 0.5495
H18_3 H 0.6307 0.0264 0.6092
N3_4 N 0.8366(8) 0.9034(5) 0.0858(5)
C13_4 C 0.8132(10) 0.8738(9) 0.0393(7)
H7_4 H 0.8414 0.8536 0.0210
H8_4 H 0.7971 0.8995 0.0142
H9_4 H 0.7855 0.8490 0.0521
C14_4 C 0.8546(9) 0.8664(6) 0.1224(7)
H10_4 H 0.8870 0.8489 0.1086
H11_4 H 0.8267 0.8394 0.1285
H12_4 H 0.8629 0.8845 0.1563
C15_4 C 0.7817(9) 0.9281(6) 0.1078(7)
H13_4 H 0.7891 0.9499 0.1396
H14_4 H 0.7654 0.9506 0.0800
H15_4 H 0.7571 0.8990 0.1172
C16_4 C 0.8661(9) 0.9537(6) 0.0755(7)
H16_4 H 0.9020 0.9462 0.0613
H17_4 H 0.8459 0.9751 0.0495
H18_4 H 0.8693 0.9736 0.1092
N3_5 N 0.4142(5) 0.1634(8) 0.4034(5)
C13_5 C 0.4607(7) 0.1868(10) 0.3738(9)
H7_5 H 0.4790 0.1586 0.3536
H8_5 H 0.4858 0.2029 0.3995
H9_5 H 0.4479 0.2145 0.3490
C14_5 C 0.3776(7) 0.1454(9) 0.3664(6)
H10_5 H 0.3914 0.1130 0.3489
H11_5 H 0.3715 0.1733 0.3394
H12_5 H 0.3437 0.1371 0.3845
C15_5 C 0.3922(7) 0.2183(9) 0.4281(6)
H13_5 H 0.3604 0.2109 0.4499
H14_5 H 0.4200 0.2346 0.4506
H15_5 H 0.3828 0.2429 0.3990
C16_5 C 0.4245(7) 0.1339(9) 0.4537(6)
H16_5 H 0.4387 0.0980 0.4462
H17_5 H 0.4505 0.1541 0.4751
H18_5 H 0.3908 0.1307 0.4736
N3_6 N 0.0858(5) 0.8366(8) 0.9034(5)
C13_6 C 0.0393(7) 0.8132(10) 0.8738(9)
H7_6 H 0.0210 0.8414 0.8536
H8_6 H 0.0142 0.7971 0.8995
H9_6 H 0.0521 0.7855 0.8490
C14_6 C 0.1224(7) 0.8546(9) 0.8664(6)
H10_6 H 0.1086 0.8870 0.8489
H11_6 H 0.1285 0.8267 0.8394
H12_6 H 0.1563 0.8629 0.8845
C15_6 C 0.1078(7) 0.7817(9) 0.9281(6)
H13_6 H 0.1396 0.7891 0.9499
H14_6 H 0.0800 0.7654 0.9506
H15_6 H 0.1172 0.7571 0.8990
C16_6 C 0.0755(7) 0.8661(9) 0.9537(6)
H16_6 H 0.0613 0.9020 0.9462
H17_6 H 0.0495 0.8459 0.9751
H18_6 H 0.1092 0.8693 0.9736
N3_7 N 0.9142(5) 0.3366(8) 0.5966(5)
C13_7 C 0.9607(7) 0.3132(10) 0.6262(9)
H7_7 H 0.9790 0.3414 0.6464
H8_7 H 0.9858 0.2971 0.6005
H9_7 H 0.9479 0.2855 0.6510
C14_7 C 0.8776(7) 0.3546(9) 0.6336(6)
H10_7 H 0.8914 0.3870 0.6511
H11_7 H 0.8715 0.3267 0.6606
H12_7 H 0.8437 0.3629 0.6155
C15_7 C 0.8922(7) 0.2817(9) 0.5719(6)
H13_7 H 0.8604 0.2891 0.5501
H14_7 H 0.9200 0.2654 0.5494
H15_7 H 0.8828 0.2571 0.6010
C16_7 C 0.9245(7) 0.3661(9) 0.5463(6)
H16_7 H 0.9387 0.4020 0.5538
H17_7 H 0.9505 0.3459 0.5249
H18_7 H 0.8908 0.3693 0.5264
N3_8 N 0.5858(5) 0.6634(8) 0.0966(5)
C13_8 C 0.5393(7) 0.6868(10) 0.1262(9)
H7_8 H 0.5210 0.6586 0.1464
H8_8 H 0.5142 0.7029 0.1005
H9_8 H 0.5521 0.7145 0.1510
C14_8 C 0.6224(7) 0.6454(9) 0.1336(6)
H10_8 H 0.6086 0.6130 0.1511
H11_8 H 0.6285 0.6733 0.1606
H12_8 H 0.6563 0.6371 0.1155
C15_8 C 0.6078(7) 0.7183(9) 0.0719(6)
H13_8 H 0.6396 0.7109 0.0501
H14_8 H 0.5800 0.7346 0.0494
H15_8 H 0.6172 0.7429 0.1010
C16_8 C 0.5755(7) 0.6339(9) 0.0463(6)
H16_8 H 0.5613 0.5980 0.0538
H17_8 H 0.5495 0.6541 0.0249
H18_8 H 0.6092 0.6307 0.0264
N3_9 N 0.4034(5) 0.4142(5) 0.1634(8)
C13_9 C 0.3738(9) 0.4607(7) 0.1868(10)
H7_9 H 0.3536 0.4790 0.1586
H8_9 H 0.3995 0.4858 0.2029
H9_9 H 0.3490 0.4479 0.2145
C14_9 C 0.3664(6) 0.3776(7) 0.1454(9)
H10_9 H 0.3489 0.3914 0.1130
H11_9 H 0.3394 0.3715 0.1733
H12_9 H 0.3845 0.3437 0.1371
C15_9 C 0.4281(6) 0.3922(7) 0.2183(9)
H13_9 H 0.4499 0.3604 0.2109
H14_9 H 0.4506 0.4200 0.2346
H15_9 H 0.3990 0.3828 0.2429
C16_9 C 0.4537(6) 0.4245(7) 0.1339(9)
H16_9 H 0.4462 0.4387 0.0980
H17_9 H 0.4751 0.4505 0.1541
H18_9 H 0.4736 0.3908 0.1307
N3_10 N 0.9034(5) 0.0858(5) 0.8366(8)
C13_10 C 0.8738(9) 0.0393(7) 0.8132(10)
H7_10 H 0.8536 0.0210 0.8414
H8_10 H 0.8995 0.0142 0.7971
H9_10 H 0.8490 0.0521 0.7855
C14_10 C 0.8664(6) 0.1224(7) 0.8546(9)
H10_10 H 0.8489 0.1086 0.8870
H11_10 H 0.8394 0.1285 0.8267
H12_10 H 0.8845 0.1563 0.8629
C15_10 C 0.9281(6) 0.1078(7) 0.7817(9)
H13_10 H 0.9499 0.1396 0.7891
H14_10 H 0.9506 0.0800 0.7654
H15_10 H 0.8990 0.1172 0.7571
C16_10 C 0.9537(6) 0.0755(7) 0.8661(9)
H16_10 H 0.9462 0.0613 0.9020
H17_10 H 0.9751 0.0495 0.8459
H18_10 H 0.9736 0.1092 0.8693
N3_11 N 0.5966(5) 0.9142(5) 0.3366(8)
C13_11 C 0.6262(9) 0.9607(7) 0.3132(10)
H7_11 H 0.6464 0.9790 0.3414
H8_11 H 0.6005 0.9858 0.2971
H9_11 H 0.6510 0.9479 0.2855
C14_11 C 0.6336(6) 0.8776(7) 0.3546(9)
H10_11 H 0.6511 0.8914 0.3870
H11_11 H 0.6606 0.8715 0.3267
H12_11 H 0.6155 0.8437 0.3629
C15_11 C 0.5719(6) 0.8922(7) 0.2817(9)
H13_11 H 0.5501 0.8604 0.2891
H14_11 H 0.5494 0.9200 0.2654
H15_11 H 0.6010 0.8828 0.2571
C16_11 C 0.5463(6) 0.9245(7) 0.3661(9)
H16_11 H 0.5538 0.9387 0.4020
H17_11 H 0.5249 0.9505 0.3459
H18_11 H 0.5264 0.8908 0.3693
N3_12 N 0.0966(5) 0.5858(5) 0.6634(8)
C13_12 C 0.1262(9) 0.5393(7) 0.6868(10)
H7_12 H 0.1464 0.5210 0.6586
H8_12 H 0.1005 0.5142 0.7029
H9_12 H 0.1510 0.5521 0.7145
C14_12 C 0.1336(6) 0.6224(7) 0.6454(9)
H10_12 H 0.1511 0.6086 0.6130
H11_12 H 0.1606 0.6285 0.6733
H12_12 H 0.1155 0.6563 0.6371
C15_12 C 0.0719(6) 0.6078(7) 0.7183(9)
H13_12 H 0.0501 0.6396 0.7109
H14_12 H 0.0494 0.5800 0.7346
H15_12 H 0.1010 0.6172 0.7429
C16_12 C 0.0463(6) 0.5755(7) 0.6339(9)
H16_12 H 0.0538 0.5613 0.5980
H17_12 H 0.0249 0.5495 0.6541
H18_12 H 0.0264 0.6092 0.6307
N3_13 N 0.8366(8) 0.5966(5) 0.5858(5)
C13_13 C 0.8132(10) 0.6262(9) 0.5393(7)
H7_13 H 0.8414 0.6464 0.5210
H8_13 H 0.7971 0.6005 0.5142
H9_13 H 0.7855 0.6510 0.5521
C14_13 C 0.8546(9) 0.6336(6) 0.6224(7)
H10_13 H 0.8870 0.6511 0.6086
H11_13 H 0.8267 0.6606 0.6285
H12_13 H 0.8629 0.6155 0.6563
C15_13 C 0.7817(9) 0.5719(6) 0.6078(7)
H13_13 H 0.7891 0.5501 0.6396
H14_13 H 0.7654 0.5494 0.5800
H15_13 H 0.7571 0.6010 0.6172
C16_13 C 0.8661(9) 0.5463(6) 0.5755(7)
H16_13 H 0.9020 0.5538 0.5613
H17_13 H 0.8459 0.5249 0.5495
H18_13 H 0.8693 0.5264 0.6092
N3_14 N 0.6634(8) 0.4034(5) 0.0858(5)
C13_14 C 0.6868(10) 0.3738(9) 0.0393(7)
H7_14 H 0.6586 0.3536 0.0210
H8_14 H 0.7029 0.3995 0.0142
H9_14 H 0.7145 0.3490 0.0521
C14_14 C 0.6454(9) 0.3664(6) 0.1224(7)
H10_14 H 0.6130 0.3489 0.1086
H11_14 H 0.6733 0.3394 0.1285
H12_14 H 0.6371 0.3845 0.1563
C15_14 C 0.7183(9) 0.4281(6) 0.1078(7)
H13_14 H 0.7109 0.4499 0.1396
H14_14 H 0.7346 0.4506 0.0800
H15_14 H 0.7429 0.3990 0.1172
C16_14 C 0.6339(9) 0.4537(6) 0.0755(7)
H16_14 H 0.5980 0.4462 0.0613
H17_14 H 0.6541 0.4751 0.0495
H18_14 H 0.6307 0.4736 0.1092
N3_15 N 0.3366(8) 0.9034(5) 0.4142(5)
C13_15 C 0.3132(10) 0.8738(9) 0.4607(7)
H7_15 H 0.3414 0.8536 0.4790
H8_15 H 0.2971 0.8995 0.4858
H9_15 H 0.2855 0.8490 0.4479
C14_15 C 0.3546(9) 0.8664(6) 0.3776(7)
H10_15 H 0.3870 0.8489 0.3914
H11_15 H 0.3267 0.8394 0.3715
H12_15 H 0.3629 0.8845 0.3437
C15_15 C 0.2817(9) 0.9281(6) 0.3922(7)
H13_15 H 0.2891 0.9499 0.3604
H14_15 H 0.2654 0.9506 0.4200
H15_15 H 0.2571 0.8990 0.3828
C16_15 C 0.3661(9) 0.9537(6) 0.4245(7)
H16_15 H 0.4020 0.9462 0.4387
H17_15 H 0.3459 0.9751 0.4505
H18_15 H 0.3693 0.9736 0.3908
N3_16 N 0.1634(8) 0.0966(5) 0.9142(5)
C13_16 C 0.1868(10) 0.1262(9) 0.9607(7)
H7_16 H 0.1586 0.1464 0.9790
H8_16 H 0.2029 0.1005 0.9858
H9_16 H 0.2145 0.1510 0.9479
C14_16 C 0.1454(9) 0.1336(6) 0.8776(7)
H10_16 H 0.1130 0.1511 0.8914
H11_16 H 0.1733 0.1606 0.8715
H12_16 H 0.1371 0.1155 0.8437
C15_16 C 0.2183(9) 0.0719(6) 0.8922(7)
H13_16 H 0.2109 0.0501 0.8604
H14_16 H 0.2346 0.0494 0.9200
H15_16 H 0.2429 0.1010 0.8828
C16_16 C 0.1339(9) 0.0463(6) 0.9245(7)
H16_16 H 0.0980 0.0538 0.9387
H17_16 H 0.1541 0.0249 0.9505
H18_16 H 0.1307 0.0264 0.8908
N3_17 N 0.5858(5) 0.8366(8) 0.5966(5)
C13_17 C 0.5393(7) 0.8132(10) 0.6262(9)
H7_17 H 0.5210 0.8414 0.6464
H8_17 H 0.5142 0.7971 0.6005
H9_17 H 0.5521 0.7855 0.6510
C14_17 C 0.6224(7) 0.8546(9) 0.6336(6)
H10_17 H 0.6086 0.8870 0.6511
H11_17 H 0.6285 0.8267 0.6606
H12_17 H 0.6563 0.8629 0.6155
C15_17 C 0.6078(7) 0.7817(9) 0.5719(6)
H13_17 H 0.6396 0.7891 0.5501
H14_17 H 0.5800 0.7654 0.5494
H15_17 H 0.6172 0.7571 0.6010
C16_17 C 0.5755(7) 0.8661(9) 0.5463(6)
H16_17 H 0.5613 0.9020 0.5538
H17_17 H 0.5495 0.8459 0.5249
H18_17 H 0.6092 0.8693 0.5264
N3_18 N 0.9142(5) 0.1634(8) 0.0966(5)
C13_18 C 0.9607(7) 0.1868(10) 0.1262(9)
H7_18 H 0.9790 0.1586 0.1464
H8_18 H 0.9858 0.2029 0.1005
H9_18 H 0.9479 0.2145 0.1510
C14_18 C 0.8776(7) 0.1454(9) 0.1336(6)
H10_18 H 0.8914 0.1130 0.1511
H11_18 H 0.8715 0.1733 0.1606
H12_18 H 0.8437 0.1371 0.1155
C15_18 C 0.8922(7) 0.2183(9) 0.0719(6)
H13_18 H 0.8604 0.2109 0.0501
H14_18 H 0.9200 0.2346 0.0494
H15_18 H 0.8828 0.2429 0.1010
C16_18 C 0.9245(7) 0.1339(9) 0.0463(6)
H16_18 H 0.9387 0.0980 0.0538
H17_18 H 0.9505 0.1541 0.0249
H18_18 H 0.8908 0.1307 0.0264
N3_19 N 0.0858(5) 0.6634(8) 0.4034(5)
C13_19 C 0.0393(7) 0.6868(10) 0.3738(9)
H7_19 H 0.0210 0.6586 0.3536
H8_19 H 0.0142 0.7029 0.3995
H9_19 H 0.0521 0.7145 0.3490
C14_19 C 0.1224(7) 0.6454(9) 0.3664(6)
H10_19 H 0.1086 0.6130 0.3489
H11_19 H 0.1285 0.6733 0.3394
H12_19 H 0.1563 0.6371 0.3845
C15_19 C 0.1078(7) 0.7183(9) 0.4281(6)
H13_19 H 0.1396 0.7109 0.4499
H14_19 H 0.0800 0.7346 0.4506
H15_19 H 0.1172 0.7429 0.3990
C16_19 C 0.0755(7) 0.6339(9) 0.4537(6)
H16_19 H 0.0613 0.5980 0.4462
H17_19 H 0.0495 0.6541 0.4751
H18_19 H 0.1092 0.6307 0.4736
N3_20 N 0.4142(5) 0.3366(8) 0.9034(5)
C13_20 C 0.4607(7) 0.3132(10) 0.8738(9)
H7_20 H 0.4790 0.3414 0.8536
H8_20 H 0.4858 0.2971 0.8995
H9_20 H 0.4479 0.2855 0.8490
C14_20 C 0.3776(7) 0.3546(9) 0.8664(6)
H10_20 H 0.3914 0.3870 0.8489
H11_20 H 0.3715 0.3267 0.8394
H12_20 H 0.3437 0.3629 0.8845
C15_20 C 0.3922(7) 0.2817(9) 0.9281(6)
H13_20 H 0.3604 0.2891 0.9499
H14_20 H 0.4200 0.2654 0.9506
H15_20 H 0.3828 0.2571 0.8990
C16_20 C 0.4245(7) 0.3661(9) 0.9537(6)
H16_20 H 0.4387 0.4020 0.9462
H17_20 H 0.4505 0.3459 0.9751
H18_20 H 0.3908 0.3693 0.9736
N3_21 N 0.5966(5) 0.5858(5) 0.8366(8)
C13_21 C 0.6262(9) 0.5393(7) 0.8132(10)
H7_21 H 0.6464 0.5210 0.8414
H8_21 H 0.6005 0.5142 0.7971
H9_21 H 0.6510 0.5521 0.7855
C14_21 C 0.6336(6) 0.6224(7) 0.8546(9)
H10_21 H 0.6511 0.6086 0.8870
H11_21 H 0.6606 0.6285 0.8267
H12_21 H 0.6155 0.6563 0.8629
C15_21 C 0.5719(6) 0.6078(7) 0.7817(9)
H13_21 H 0.5501 0.6396 0.7891
H14_21 H 0.5494 0.5800 0.7654
H15_21 H 0.6010 0.6172 0.7571
C16_21 C 0.5463(6) 0.5755(7) 0.8661(9)
H16_21 H 0.5538 0.5613 0.9020
H17_21 H 0.5249 0.5495 0.8459
H18_21 H 0.5264 0.6092 0.8693
N3_22 N 0.0966(5) 0.9142(5) 0.1634(8)
C13_22 C 0.1262(9) 0.9607(7) 0.1868(10)
H7_22 H 0.1464 0.9790 0.1586
H8_22 H 0.1005 0.9858 0.2029
H9_22 H 0.1510 0.9479 0.2145
C14_22 C 0.1336(6) 0.8776(7) 0.1454(9)
H10_22 H 0.1511 0.8914 0.1130
H11_22 H 0.1606 0.8715 0.1733
H12_22 H 0.1155 0.8437 0.1371
C15_22 C 0.0719(6) 0.8922(7) 0.2183(9)
H13_22 H 0.0501 0.8604 0.2109
H14_22 H 0.0494 0.9200 0.2346
H15_22 H 0.1010 0.8828 0.2429
C16_22 C 0.0463(6) 0.9245(7) 0.1339(9)
H16_22 H 0.0538 0.9387 0.0980
H17_22 H 0.0249 0.9505 0.1541
H18_22 H 0.0264 0.8908 0.1307
N3_23 N 0.4034(5) 0.0858(5) 0.6634(8)
C13_23 C 0.3738(9) 0.0393(7) 0.6868(10)
H7_23 H 0.3536 0.0210 0.6586
H8_23 H 0.3995 0.0142 0.7029
H9_23 H 0.3490 0.0521 0.7145
C14_23 C 0.3664(6) 0.1224(7) 0.6454(9)
H10_23 H 0.3489 0.1086 0.6130
H11_23 H 0.3394 0.1285 0.6733
H12_23 H 0.3845 0.1563 0.6371
C15_23 C 0.4281(6) 0.1078(7) 0.7183(9)
H13_23 H 0.4499 0.1396 0.7109
H14_23 H 0.4506 0.0800 0.7346
H15_23 H 0.3990 0.1172 0.7429
C16_23 C 0.4537(6) 0.0755(7) 0.6339(9)
H16_23 H 0.4462 0.0613 0.5980
H17_23 H 0.4751 0.0495 0.6541
H18_23 H 0.4736 0.1092 0.6307
N3_24 N 0.9034(5) 0.4142(5) 0.3366(8)
C13_24 C 0.8738(9) 0.4607(7) 0.3132(10)
H7_24 H 0.8536 0.4790 0.3414
H8_24 H 0.8995 0.4858 0.2971
H9_24 H 0.8490 0.4479 0.2855
C14_24 C 0.8664(6) 0.3776(7) 0.3546(9)
H10_24 H 0.8489 0.3914 0.3870
H11_24 H 0.8394 0.3715 0.3267
H12_24 H 0.8845 0.3437 0.3629
C15_24 C 0.9281(6) 0.3922(7) 0.2817(9)
H13_24 H 0.9499 0.3604 0.2891
H14_24 H 0.9506 0.4200 0.2654
H15_24 H 0.8990 0.3828 0.2571
C16_24 C 0.9537(6) 0.4245(7) 0.3661(9)
H16_24 H 0.9462 0.4387 0.4020
H17_24 H 0.9751 0.4505 0.3459
H18_24 H 0.9736 0.3908 0.3693
loop_
_geom_bond_atom_site_label_1
_geom_bond_atom_site_label_2
_geom_bond_site_symmetry_1
_geom_bond_site_symmetry_2
Cu1 O2 1_555 1_555
Cu2 O2 1_555 1_555
N1 Cu1 1_555 1_555
N2 Cu2 1_555 1_555
C1 N1 1_555 1_555
H1 C1 1_555 1_555
C2 N2 1_555 1_555
H2 C2 1_555 1_555
C4 C1 1_555 1_555
H3 C4 1_555 1_555
O8 Cu2 1_555 1_555
O9 Cu1 1_555 1_555
O10 Cu2 1_555 1_555
O11 Cu2 1_555 1_555
O12 Cu1 1_555 1_555
N1 N2 1_555 1_555
C2 C4 1_555 1_555
O1 C6 1_555 1_555
O4 C5 1_555 1_555
O5 C5 1_555 1_555
O6 C9 1_555 1_555
O7 C6 1_555 1_555
C3 C9 1_555 1_555
C5 C8 1_555 1_555
C6 C7 1_555 1_555
C7 C10 1_555 1_555
C8 C11 1_555 1_555
C9 O3 1_555 1_555
C10 C3 1_555 1_555
H4 C10 1_555 1_555
C11 C3 1_555 1_555
H5 C11 1_555 1_555
C12 C7 1_555 1_555
H6 C12 1_555 1_555
Cu3 O1 1_555 1_555
Cu4 O5 1_555 1_555
Cu5 O4 1_555 1_555
Cu7 O3 1_555 1_555
C8 C12 1_555 1_555
Cu1_2 O2_2 1_555 1_555
Cu2_2 O2_2 1_555 1_555
O1_2 C6_2 1_555 1_555
O3_2 Cu1_2 1_555 1_555
O4_2 C5_2 1_555 1_555
O5_2 C5_2 1_555 1_555
O6_2 C9_2 1_555 1_555
O7_2 C6_2 1_555 1_555
N1_2 Cu1_2 1_555 1_555
N2_2 Cu2_2 1_555 1_555
C1_2 N1_2 1_555 1_555
H1_2 C1_2 1_555 1_555
C2_2 N2_2 1_555 1_555
H2_2 C2_2 1_555 1_555
C3_2 C9_2 1_555 1_555
C4_2 C1_2 1_555 1_555
H3_2 C4_2 1_555 1_555
C5_2 C8_2 1_555 1_555
C6_2 C7_2 1_555 1_555
C7_2 C10_2 1_555 1_555
C8_2 C11_2 1_555 1_555
C9_2 O3_2 1_555 1_555
C10_2 C3_2 1_555 1_555
H4_2 C10_2 1_555 1_555
C11_2 C3_2 1_555 1_555
H5_2 C11_2 1_555 1_555
C12_2 C7_2 1_555 1_555
H6_2 C12_2 1_555 1_555
Cu3_2 O1_2 1_555 1_555
Cu4_2 O5_2 1_555 1_555
Cu7_2 O3_2 1_555 1_555
O9_2 Cu1_2 1_555 1_555
O10_2 Cu2_2 1_555 1_555
O12_2 Cu1_2 1_555 1_555
N1_2 N2_2 1_555 1_555
C2_2 C4_2 1_555 1_555
C8_2 C12_2 1_555 1_555
Cu7_2 O9_2 1_555 1_555
Cu1_3 O2_3 1_555 1_555
Cu5 O2_3 1_555 1_555
O1_3 C6_3 1_555 1_555
O3_3 Cu1_3 1_555 1_555
O11 C5_3 1_555 1_555
O5_3 C5_3 1_555 1_555
O6_3 C9_3 1_555 1_555
O7_3 C6_3 1_555 1_555
N1_3 Cu1_3 1_555 1_555
N2_3 Cu5 1_555 1_555
C1_3 N1_3 1_555 1_555
H1_3 C1_3 1_555 1_555
C2_3 N2_3 1_555 1_555
H2_3 C2_3 1_555 1_555
C3_3 C9_3 1_555 1_555
C4_3 C1_3 1_555 1_555
H3_3 C4_3 1_555 1_555
C5_3 C8_3 1_555 1_555
C6_3 C7_3 1_555 1_555
C7_3 C10_3 1_555 1_555
C8_3 C11_3 1_555 1_555
C9_3 O3_3 1_555 1_555
C10_3 C3_3 1_555 1_555
H4_3 C10_3 1_555 1_555
C11_3 C3_3 1_555 1_555
H5_3 C11_3 1_555 1_555
C12_3 C7_3 1_555 1_555
H6_3 C12_3 1_555 1_555
Cu3_3 O1_3 1_555 1_555
Cu4_3 O5_3 1_555 1_555
Cu6_3 O1_3 1_555 1_555
Cu7_3 O3_3 1_555 1_555
O8_3 Cu5 1_555 1_555
O9_3 Cu1_3 1_555 1_555
O10_3 Cu5 1_555 1_555
O12_3 Cu1_3 1_555 1_555
N1_3 N2_3 1_555 1_555
C2_3 C4_3 1_555 1_555
C8_3 C12_3 1_555 1_555
Cu7_3 O9_3 1_555 1_555
O1_4 C6_4 1_555 1_555
O11_2 C5_4 1_555 1_555
O5_4 C5_4 1_555 1_555
O6_4 C9_4 1_555 1_555
O7_4 C6_4 1_555 1_555
C3_4 C9_4 1_555 1_555
C5_4 C8_4 1_555 1_555
C6_4 C7_4 1_555 1_555
C7_4 C10_4 1_555 1_555
C8_4 C11_4 1_555 1_555
C9_4 O3_4 1_555 1_555
C10_4 C3_4 1_555 1_555
H4_4 C10_4 1_555 1_555
C11_4 C3_4 1_555 1_555
H5_4 C11_4 1_555 1_555
C12_4 C7_4 1_555 1_555
H6_4 C12_4 1_555 1_555
Cu3_4 O1_4 1_555 1_555
Cu4_4 O5_4 1_555 1_555
Cu6_4 O1_4 1_555 1_555
Cu7_4 O3_4 1_555 1_555
C8_4 C12_4 1_555 1_555
Cu1_4 O2_4 1_555 1_555
Cu5_2 O2_4 1_555 1_555
N1_4 Cu1_4 1_555 1_555
N2_4 Cu5_2 1_555 1_555
C1_4 N1_4 1_555 1_555
H1_4 C1_4 1_555 1_555
C2_4 N2_4 1_555 1_555
H2_4 C2_4 1_555 1_555
C4_4 C1_4 1_555 1_555
H3_4 C4_4 1_555 1_555
O9_4 Cu1_4 1_555 1_555
O10_4 Cu5_2 1_555 1_555
O12_4 Cu1_4 1_555 1_555
N1_4 N2_4 1_555 1_555
C2_4 C4_4 1_555 1_555
Cu1_5 O2_5 1_555 1_555
Cu2_3 O2_5 1_555 1_555
N1_5 Cu1_5 1_555 1_555
N2_5 Cu2_3 1_555 1_555
C1_5 N1_5 1_555 1_555
H1_5 C1_5 1_555 1_555
C2_5 N2_5 1_555 1_555
H2_5 C2_5 1_555 1_555
C4_5 C1_5 1_555 1_555
H3_5 C4_5 1_555 1_555
O8_5 Cu2_3 1_555 1_555
O9_5 Cu1_5 1_555 1_555
O10_5 Cu2_3 1_555 1_555
O11_3 Cu2_3 1_555 1_555
O12_5 Cu1_5 1_555 1_555
N1_5 N2_5 1_555 1_555
C2_5 C4_5 1_555 1_555
O8_2 C6_5 1_555 1_555
O4_3 C5_5 1_555 1_555
O5_5 C5_5 1_555 1_555
O6_5 C9_5 1_555 1_555
O7_5 C6_5 1_555 1_555
C3_5 C9_5 1_555 1_555
C5_5 C8_5 1_555 1_555
C6_5 C7_5 1_555 1_555
C7_5 C10_5 1_555 1_555
C8_5 C11_5 1_555 1_555
C9_5 O3_5 1_555 1_555
C10_5 C3_5 1_555 1_555
H4_5 C10_5 1_555 1_555
C11_5 C3_5 1_555 1_555
H5_5 C11_5 1_555 1_555
C12_5 C7_5 1_555 1_555
H6_5 C12_5 1_555 1_555
Cu4_4 O8_2 1_555 1_555
Cu4_5 O5_5 1_555 1_555
Cu5_3 O4_3 1_555 1_555
Cu7_5 O3_5 1_555 1_555
C8_5 C12_5 1_555 1_555
O8 C6_6 1_555 1_555
O4_4 C5_6 1_555 1_555
O5_6 C5_6 1_555 1_555
O6_6 C9_6 1_555 1_555
O7_6 C6_6 1_555 1_555
C3_6 C9_6 1_555 1_555
C5_6 C8_6 1_555 1_555
C6_6 C7_6 1_555 1_555
C7_6 C10_6 1_555 1_555
C8_6 C11_6 1_555 1_555
C9_6 O3_6 1_555 1_555
C10_6 C3_6 1_555 1_555
H4_6 C10_6 1_555 1_555
C11_6 C3_6 1_555 1_555
H5_6 C11_6 1_555 1_555
C12_6 C7_6 1_555 1_555
H6_6 C12_6 1_555 1_555
Cu4_3 O8 1_555 1_555
Cu4_6 O5_6 1_555 1_555
Cu7_6 O3_6 1_555 1_555
C8_6 C12_6 1_555 1_555
Cu1_6 O2_6 1_555 1_555
Cu2_4 O2_6 1_555 1_555
N1_6 Cu1_6 1_555 1_555
N2_6 Cu2_4 1_555 1_555
C1_6 N1_6 1_555 1_555
H1_6 C1_6 1_555 1_555
C2_6 N2_6 1_555 1_555
H2_6 C2_6 1_555 1_555
C4_6 C1_6 1_555 1_555
H3_6 C4_6 1_555 1_555
O9_6 Cu1_6 1_555 1_555
O10_6 Cu2_4 1_555 1_555
O12_6 Cu1_6 1_555 1_555
N1_6 N2_6 1_555 1_555
C2_6 C4_6 1_555 1_555
Cu1_7 O2_7 1_555 1_555
Cu5_4 O2_7 1_555 1_555
O8_4 C6_7 1_555 1_555
O3_7 Cu1_7 1_555 1_555
O11_4 C5_7 1_555 1_555
O5_7 C5_7 1_555 1_555
O6_7 C9_7 1_555 1_555
O7_7 C6_7 1_555 1_555
N1_7 Cu1_7 1_555 1_555
N2_7 Cu5_4 1_555 1_555
C1_7 N1_7 1_555 1_555
H1_7 C1_7 1_555 1_555
C2_7 N2_7 1_555 1_555
H2_7 C2_7 1_555 1_555
C3_7 C9_7 1_555 1_555
C4_7 C1_7 1_555 1_555
H3_7 C4_7 1_555 1_555
C5_7 C8_7 1_555 1_555
C6_7 C7_7 1_555 1_555
C7_7 C10_7 1_555 1_555
C8_7 C11_7 1_555 1_555
C9_7 O3_7 1_555 1_555
C10_7 C3_7 1_555 1_555
H4_7 C10_7 1_555 1_555
C11_7 C3_7 1_555 1_555
H5_7 C11_7 1_555 1_555
C12_7 C7_7 1_555 1_555
H6_7 C12_7 1_555 1_555
Cu4_2 O8_4 1_555 1_555
Cu4_7 O5_7 1_555 1_555
Cu7_7 O3_7 1_555 1_555
O9_7 Cu1_7 1_555 1_555
O10_7 Cu5_4 1_555 1_555
O12_7 Cu1_7 1_555 1_555
N1_7 N2_7 1_555 1_555
C2_7 C4_7 1_555 1_555
C8_7 C12_7 1_555 1_555
Cu7_7 O9_7 1_555 1_555
Cu1_8 O2_8 1_555 1_555
Cu5_3 O2_8 1_555 1_555
O8_3 C6_8 1_555 1_555
O3_8 Cu1_8 1_555 1_555
O11_3 C5_8 1_555 1_555
O5_8 C5_8 1_555 1_555
O6_8 C9_8 1_555 1_555
O7_8 C6_8 1_555 1_555
N1_8 Cu1_8 1_555 1_555
N2_8 Cu5_3 1_555 1_555
C1_8 N1_8 1_555 1_555
H1_8 C1_8 1_555 1_555
C2_8 N2_8 1_555 1_555
H2_8 C2_8 1_555 1_555
C3_8 C9_8 1_555 1_555
C4_8 C1_8 1_555 1_555
H3_8 C4_8 1_555 1_555
C5_8 C8_8 1_555 1_555
C6_8 C7_8 1_555 1_555
C7_8 C10_8 1_555 1_555
C8_8 C11_8 1_555 1_555
C9_8 O3_8 1_555 1_555
C10_8 C3_8 1_555 1_555
H4_8 C10_8 1_555 1_555
C11_8 C3_8 1_555 1_555
H5_8 C11_8 1_555 1_555
C12_8 C7_8 1_555 1_555
H6_8 C12_8 1_555 1_555
Cu4 O8_3 1_555 1_555
Cu4_8 O5_8 1_555 1_555
Cu7_8 O3_8 1_555 1_555
O8_8 Cu5_3 1_555 1_555
O9_8 Cu1_8 1_555 1_555
O10_8 Cu5_3 1_555 1_555
O12_8 Cu1_8 1_555 1_555
N1_8 N2_8 1_555 1_555
C2_8 C4_8 1_555 1_555
C8_8 C12_8 1_555 1_555
Cu7_8 O9_8 1_555 1_555
Cu1_9 O2_9 1_555 1_555
Cu6_4 O2_9 1_555 1_555
N1_9 Cu1_9 1_555 1_555
N2_9 Cu6_4 1_555 1_555
C1_9 N1_9 1_555 1_555
H1_9 C1_9 1_555 1_555
C2_9 N2_9 1_555 1_555
H2_9 C2_9 1_555 1_555
C4_9 C1_9 1_555 1_555
H3_9 C4_9 1_555 1_555
O9_9 Cu1_9 1_555 1_555
O10_9 Cu6_4 1_555 1_555
O11_5 Cu6_4 1_555 1_555
O12_9 Cu1_9 1_555 1_555
N1_9 N2_9 1_555 1_555
C2_9 C4_9 1_555 1_555
O8_7 C6_9 1_555 1_555
O4_5 C5_9 1_555 1_555
O5_9 C5_9 1_555 1_555
O6_9 C9_9 1_555 1_555
O7_9 C6_9 1_555 1_555
C3_9 C9_9 1_555 1_555
C5_9 C8_9 1_555 1_555
C6_9 C7_9 1_555 1_555
C7_9 C10_9 1_555 1_555
C8_9 C11_9 1_555 1_555
C9_9 O3_9 1_555 1_555
C10_9 C3_9 1_555 1_555
H4_9 C10_9 1_555 1_555
C11_9 C3_9 1_555 1_555
H5_9 C11_9 1_555 1_555
C12_9 C7_9 1_555 1_555
H6_9 C12_9 1_555 1_555
Cu4_6 O8_7 1_555 1_555
Cu3_3 O5_9 1_555 1_555
Cu6_3 O4_5 1_555 1_555
Cu7_9 O3_9 1_555 1_555
C8_9 C12_9 1_555 1_555
O8_5 C6_10 1_555 1_555
O4_6 C5_10 1_555 1_555
O5_10 C5_10 1_555 1_555
O6_10 C9_10 1_555 1_555
O7_10 C6_10 1_555 1_555
C3_10 C9_10 1_555 1_555
C5_10 C8_10 1_555 1_555
C6_10 C7_10 1_555 1_555
C7_10 C10_10 1_555 1_555
C8_10 C11_10 1_555 1_555
C9_10 O3_10 1_555 1_555
C10_10 C3_10 1_555 1_555
H4_10 C10_10 1_555 1_555
C11_10 C3_10 1_555 1_555
H5_10 C11_10 1_555 1_555
C12_10 C7_10 1_555 1_555
H6_10 C12_10 1_555 1_555
Cu4_8 O8_5 1_555 1_555
Cu3 O5_10 1_555 1_555
Cu7_10 O3_10 1_555 1_555
C8_10 C12_10 1_555 1_555
Cu1_10 O2_10 1_555 1_555
Cu6_2 O2_10 1_555 1_555
N1_10 Cu1_10 1_555 1_555
N2_10 Cu6_2 1_555 1_555
C1_10 N1_10 1_555 1_555
H1_10 C1_10 1_555 1_555
C2_10 N2_10 1_555 1_555
H2_10 C2_10 1_555 1_555
C4_10 C1_10 1_555 1_555
H3_10 C4_10 1_555 1_555
O9_10 Cu1_10 1_555 1_555
O10_10 Cu6_2 1_555 1_555
O12_10 Cu1_10 1_555 1_555
N1_10 N2_10 1_555 1_555
C2_10 C4_10 1_555 1_555
Cu1_11 O2_11 1_555 1_555
Cu6 O2_11 1_555 1_555
O8_6 C6_11 1_555 1_555
O3_11 Cu1_11 1_555 1_555
O11_6 C5_11 1_555 1_555
O5_11 C5_11 1_555 1_555
O6_11 C9_11 1_555 1_555
O7_11 C6_11 1_555 1_555
N1_11 Cu1_11 1_555 1_555
N2_11 Cu6 1_555 1_555
C1_11 N1_11 1_555 1_555
H1_11 C1_11 1_555 1_555
C2_11 N2_11 1_555 1_555
H2_11 C2_11 1_555 1_555
C3_11 C9_11 1_555 1_555
C4_11 C1_11 1_555 1_555
H3_11 C4_11 1_555 1_555
C5_11 C8_11 1_555 1_555
C6_11 C7_11 1_555 1_555
C7_11 C10_11 1_555 1_555
C8_11 C11_11 1_555 1_555
C9_11 O3_11 1_555 1_555
C10_11 C3_11 1_555 1_555
H4_11 C10_11 1_555 1_555
C11_11 C3_11 1_555 1_555
H5_11 C11_11 1_555 1_555
C12_11 C7_11 1_555 1_555
H6_11 C12_11 1_555 1_555
Cu4_7 O8_6 1_555 1_555
Cu3_2 O5_11 1_555 1_555
Cu7_11 O3_11 1_555 1_555
O9_11 Cu1_11 1_555 1_555
O10_11 Cu6 1_555 1_555
O12_11 Cu1_11 1_555 1_555
N1_11 N2_11 1_555 1_555
C2_11 C4_11 1_555 1_555
C8_11 C12_11 1_555 1_555
Cu7_11 O9_11 1_555 1_555
Cu1_12 O2_12 1_555 1_555
Cu6_3 O2_12 1_555 1_555
O8_8 C6_12 1_555 1_555
O3_12 Cu1_12 1_555 1_555
O11_5 C5_12 1_555 1_555
O5_12 C5_12 1_555 1_555
O6_12 C9_12 1_555 1_555
O7_12 C6_12 1_555 1_555
N1_12 Cu1_12 1_555 1_555
N2_12 Cu6_3 1_555 1_555
C1_12 N1_12 1_555 1_555
H1_12 C1_12 1_555 1_555
C2_12 N2_12 1_555 1_555
H2_12 C2_12 1_555 1_555
C3_12 C9_12 1_555 1_555
C4_12 C1_12 1_555 1_555
H3_12 C4_12 1_555 1_555
C5_12 C8_12 1_555 1_555
C6_12 C7_12 1_555 1_555
C7_12 C10_12 1_555 1_555
C8_12 C11_12 1_555 1_555
C9_12 O3_12 1_555 1_555
C10_12 C3_12 1_555 1_555
H4_12 C10_12 1_555 1_555
C11_12 C3_12 1_555 1_555
H5_12 C11_12 1_555 1_555
C12_12 C7_12 1_555 1_555
H6_12 C12_12 1_555 1_555
Cu4_5 O8_8 1_555 1_555
Cu3_4 O5_12 1_555 1_555
Cu7_12 O3_12 1_555 1_555
O9_12 Cu1_12 1_555 1_555
O10_12 Cu6_3 1_555 1_555
O12_12 Cu1_12 1_555 1_555
N1_12 N2_12 1_555 1_555
C2_12 C4_12 1_555 1_555
C8_12 C12_12 1_555 1_555
Cu7_12 O9_12 1_555 1_555
O9_6 C6_13 1_555 1_555
O4_7 C5_13 1_555 1_555
O12_12 C5_13 1_555 1_555
O6_13 C9_13 1_555 1_555
O7_13 C6_13 1_555 1_555
C3_13 C9_13 1_555 1_555
C5_13 C8_13 1_555 1_555
C6_13 C7_13 1_555 1_555
C7_13 C10_13 1_555 1_555
C8_13 C11_13 1_555 1_555
C9_13 O10_6 1_555 1_555
C10_13 C3_13 1_555 1_555
H4_13 C10_13 1_555 1_555
C11_13 C3_13 1_555 1_555
H5_13 C11_13 1_555 1_555
C12_13 C7_13 1_555 1_555
H6_13 C12_13 1_555 1_555
Cu7_12 O4_7 1_555 1_555
C8_13 C12_13 1_555 1_555
Cu4_7 O2_13 1_555 1_555
Cu7_11 O2_13 1_555 1_555
N1_13 Cu4_7 1_555 1_555
N2_13 Cu7_11 1_555 1_555
C1_13 N1_13 1_555 1_555
H1_13 C1_13 1_555 1_555
C2_13 N2_13 1_555 1_555
H2_13 C2_13 1_555 1_555
C4_13 C1_13 1_555 1_555
H3_13 C4_13 1_555 1_555
O11_7 Cu7_11 1_555 1_555
N1_13 N2_13 1_555 1_555
C2_13 C4_13 1_555 1_555
Cu4_8 O2_14 1_555 1_555
Cu7_10 O2_14 1_555 1_555
O9_5 C6_14 1_555 1_555
O10_5 Cu4_8 1_555 1_555
O4_8 C5_14 1_555 1_555
O12_9 C5_14 1_555 1_555
O6_14 C9_14 1_555 1_555
O7_14 C6_14 1_555 1_555
N1_14 Cu4_8 1_555 1_555
N2_14 Cu7_10 1_555 1_555
C1_14 N1_14 1_555 1_555
H1_14 C1_14 1_555 1_555
C2_14 N2_14 1_555 1_555
H2_14 C2_14 1_555 1_555
C3_14 C9_14 1_555 1_555
C4_14 C1_14 1_555 1_555
H3_14 C4_14 1_555 1_555
C5_14 C8_14 1_555 1_555
C6_14 C7_14 1_555 1_555
C7_14 C10_14 1_555 1_555
C8_14 C11_14 1_555 1_555
C9_14 O10_5 1_555 1_555
C10_14 C3_14 1_555 1_555
H4_14 C10_14 1_555 1_555
C11_14 C3_14 1_555 1_555
H5_14 C11_14 1_555 1_555
C12_14 C7_14 1_555 1_555
H6_14 C12_14 1_555 1_555
N1_14 N2_14 1_555 1_555
C2_14 C4_14 1_555 1_555
C8_14 C12_14 1_555 1_555
Cu4_5 O2_15 1_555 1_555
Cu7_12 O2_15 1_555 1_555
O9_8 C6_15 1_555 1_555
O10_8 Cu4_5 1_555 1_555
O11_7 C5_15 1_555 1_555
O12_11 C5_15 1_555 1_555
O6_15 C9_15 1_555 1_555
O7_15 C6_15 1_555 1_555
N1_15 Cu4_5 1_555 1_555
N2_15 Cu7_12 1_555 1_555
C1_15 N1_15 1_555 1_555
H1_15 C1_15 1_555 1_555
C2_15 N2_15 1_555 1_555
H2_15 C2_15 1_555 1_555
C3_15 C9_15 1_555 1_555
C4_15 C1_15 1_555 1_555
H3_15 C4_15 1_555 1_555
C5_15 C8_15 1_555 1_555
C6_15 C7_15 1_555 1_555
C7_15 C10_15 1_555 1_555
C8_15 C11_15 1_555 1_555
C9_15 O10_8 1_555 1_555
C10_15 C3_15 1_555 1_555
H4_15 C10_15 1_555 1_555
C11_15 C3_15 1_555 1_555
H5_15 C11_15 1_555 1_555
C12_15 C7_15 1_555 1_555
H6_15 C12_15 1_555 1_555
N1_15 N2_15 1_555 1_555
C2_15 C4_15 1_555 1_555
C8_15 C12_15 1_555 1_555
Cu4_6 O2_16 1_555 1_555
Cu7_9 O2_16 1_555 1_555
N1_16 Cu4_6 1_555 1_555
N2_16 Cu7_9 1_555 1_555
C1_16 N1_16 1_555 1_555
H1_16 C1_16 1_555 1_555
C2_16 N2_16 1_555 1_555
H2_16 C2_16 1_555 1_555
C4_16 C1_16 1_555 1_555
H3_16 C4_16 1_555 1_555
N1_16 N2_16 1_555 1_555
C2_16 C4_16 1_555 1_555
O9_7 C6_16 1_555 1_555
O11_8 C5_16 1_555 1_555
O12_10 C5_16 1_555 1_555
O6_16 C9_16 1_555 1_555
O7_16 C6_16 1_555 1_555
C3_16 C9_16 1_555 1_555
C5_16 C8_16 1_555 1_555
C6_16 C7_16 1_555 1_555
C7_16 C10_16 1_555 1_555
C8_16 C11_16 1_555 1_555
C9_16 O10_7 1_555 1_555
C10_16 C3_16 1_555 1_555
H4_16 C10_16 1_555 1_555
C11_16 C3_16 1_555 1_555
H5_16 C11_16 1_555 1_555
C12_16 C7_16 1_555 1_555
H6_16 C12_16 1_555 1_555
C8_16 C12_16 1_555 1_555
O9_10 C6_17 1_555 1_555
O4_9 C5_17 1_555 1_555
O12_3 C5_17 1_555 1_555
O6_17 C9_17 1_555 1_555
O7_17 C6_17 1_555 1_555
C3_17 C9_17 1_555 1_555
C5_17 C8_17 1_555 1_555
C6_17 C7_17 1_555 1_555
C7_17 C10_17 1_555 1_555
C8_17 C11_17 1_555 1_555
C9_17 O10_10 1_555 1_555
C10_17 C3_17 1_555 1_555
H4_17 C10_17 1_555 1_555
C11_17 C3_17 1_555 1_555
H5_17 C11_17 1_555 1_555
C12_17 C7_17 1_555 1_555
H6_17 C12_17 1_555 1_555
Cu7_3 O4_9 1_555 1_555
C8_17 C12_17 1_555 1_555
Cu3_2 O2_17 1_555 1_555
Cu7_2 O2_17 1_555 1_555
N1_17 Cu3_2 1_555 1_555
N2_17 Cu7_2 1_555 1_555
C1_17 N1_17 1_555 1_555
H1_17 C1_17 1_555 1_555
C2_17 N2_17 1_555 1_555
H2_17 C2_17 1_555 1_555
C4_17 C1_17 1_555 1_555
H3_17 C4_17 1_555 1_555
O11_9 Cu7_2 1_555 1_555
N1_17 N2_17 1_555 1_555
C2_17 C4_17 1_555 1_555
Cu3 O2_18 1_555 1_555
Cu7 O2_18 1_555 1_555
N1_18 Cu3 1_555 1_555
N2_18 Cu7 1_555 1_555
C1_18 N1_18 1_555 1_555
H1_18 C1_18 1_555 1_555
C2_18 N2_18 1_555 1_555
H2_18 C2_18 1_555 1_555
C4_18 C1_18 1_555 1_555
H3_18 C4_18 1_555 1_555
N1_18 N2_18 1_555 1_555
C2_18 C4_18 1_555 1_555
O9_11 C6_18 1_555 1_555
O4_10 C5_18 1_555 1_555
O12_4 C5_18 1_555 1_555
O6_18 C9_18 1_555 1_555
O7_18 C6_18 1_555 1_555
C3_18 C9_18 1_555 1_555
C5_18 C8_18 1_555 1_555
C6_18 C7_18 1_555 1_555
C7_18 C10_18 1_555 1_555
C8_18 C11_18 1_555 1_555
C9_18 O10_11 1_555 1_555
C10_18 C3_18 1_555 1_555
H4_18 C10_18 1_555 1_555
C11_18 C3_18 1_555 1_555
H5_18 C11_18 1_555 1_555
C12_18 C7_18 1_555 1_555
H6_18 C12_18 1_555 1_555
C8_18 C12_18 1_555 1_555
Cu3_4 O2_19 1_555 1_555
Cu7_4 O2_19 1_555 1_555
O9_9 C6_19 1_555 1_555
O10_9 Cu3_4 1_555 1_555
O11_10 C5_19 1_555 1_555
O12 C5_19 1_555 1_555
O6_19 C9_19 1_555 1_555
O7_19 C6_19 1_555 1_555
N1_19 Cu3_4 1_555 1_555
N2_19 Cu7_4 1_555 1_555
C1_19 N1_19 1_555 1_555
H1_19 C1_19 1_555 1_555
C2_19 N2_19 1_555 1_555
H2_19 C2_19 1_555 1_555
C3_19 C9_19 1_555 1_555
C4_19 C1_19 1_555 1_555
H3_19 C4_19 1_555 1_555
C5_19 C8_19 1_555 1_555
C6_19 C7_19 1_555 1_555
C7_19 C10_19 1_555 1_555
C8_19 C11_19 1_555 1_555
C9_19 O10_9 1_555 1_555
C10_19 C3_19 1_555 1_555
H4_19 C10_19 1_555 1_555
C11_19 C3_19 1_555 1_555
H5_19 C11_19 1_555 1_555
C12_19 C7_19 1_555 1_555
H6_19 C12_19 1_555 1_555
N1_19 N2_19 1_555 1_555
C2_19 C4_19 1_555 1_555
C8_19 C12_19 1_555 1_555
Cu3_3 O2_20 1_555 1_555
Cu7_3 O2_20 1_555 1_555
O9_12 C6_20 1_555 1_555
O10_12 Cu3_3 1_555 1_555
O11_9 C5_20 1_555 1_555
O12_2 C5_20 1_555 1_555
O6_20 C9_20 1_555 1_555
O7_20 C6_20 1_555 1_555
N1_20 Cu3_3 1_555 1_555
N2_20 Cu7_3 1_555 1_555
C1_20 N1_20 1_555 1_555
H1_20 C1_20 1_555 1_555
C2_20 N2_20 1_555 1_555
H2_20 C2_20 1_555 1_555
C3_20 C9_20 1_555 1_555
C4_20 C1_20 1_555 1_555
H3_20 C4_20 1_555 1_555
C5_20 C8_20 1_555 1_555
C6_20 C7_20 1_555 1_555
C7_20 C10_20 1_555 1_555
C8_20 C11_20 1_555 1_555
C9_20 O10_12 1_555 1_555
C10_20 C3_20 1_555 1_555
H4_20 C10_20 1_555 1_555
C11_20 C3_20 1_555 1_555
H5_20 C11_20 1_555 1_555
C12_20 C7_20 1_555 1_555
H6_20 C12_20 1_555 1_555
N1_20 N2_20 1_555 1_555
C2_20 C4_20 1_555 1_555
C8_20 C12_20 1_555 1_555
O9_4 C6_21 1_555 1_555
O4_11 C5_21 1_555 1_555
O12_8 C5_21 1_555 1_555
O6_21 C9_21 1_555 1_555
O7_21 C6_21 1_555 1_555
C3_21 C9_21 1_555 1_555
C5_21 C8_21 1_555 1_555
C6_21 C7_21 1_555 1_555
C7_21 C10_21 1_555 1_555
C8_21 C11_21 1_555 1_555
C9_21 O10_4 1_555 1_555
C10_21 C3_21 1_555 1_555
H4_21 C10_21 1_555 1_555
C11_21 C3_21 1_555 1_555
H5_21 C11_21 1_555 1_555
C12_21 C7_21 1_555 1_555
H6_21 C12_21 1_555 1_555
Cu7_8 O4_11 1_555 1_555
C8_21 C12_21 1_555 1_555
Cu4_2 O2_21 1_555 1_555
Cu7_7 O2_21 1_555 1_555
N1_21 Cu4_2 1_555 1_555
N2_21 Cu7_7 1_555 1_555
C1_21 N1_21 1_555 1_555
H1_21 C1_21 1_555 1_555
C2_21 N2_21 1_555 1_555
H2_21 C2_21 1_555 1_555
C4_21 C1_21 1_555 1_555
H3_21 C4_21 1_555 1_555
O11_11 Cu7_7 1_555 1_555
N1_21 N2_21 1_555 1_555
C2_21 C4_21 1_555 1_555
Cu4_4 O2_22 1_555 1_555
Cu7_5 O2_22 1_555 1_555
N1_22 Cu4_4 1_555 1_555
N2_22 Cu7_5 1_555 1_555
C1_22 N1_22 1_555 1_555
H1_22 C1_22 1_555 1_555
C2_22 N2_22 1_555 1_555
H2_22 C2_22 1_555 1_555
C4_22 C1_22 1_555 1_555
H3_22 C4_22 1_555 1_555
N1_22 N2_22 1_555 1_555
C2_22 C4_22 1_555 1_555
O9_2 C6_22 1_555 1_555
O4_12 C5_22 1_555 1_555
O12_6 C5_22 1_555 1_555
O6_22 C9_22 1_555 1_555
O7_22 C6_22 1_555 1_555
C3_22 C9_22 1_555 1_555
C5_22 C8_22 1_555 1_555
C6_22 C7_22 1_555 1_555
C7_22 C10_22 1_555 1_555
C8_22 C11_22 1_555 1_555
C9_22 O10_2 1_555 1_555
C10_22 C3_22 1_555 1_555
H4_22 C10_22 1_555 1_555
C11_22 C3_22 1_555 1_555
H5_22 C11_22 1_555 1_555
C12_22 C7_22 1_555 1_555
H6_22 C12_22 1_555 1_555
C8_22 C12_22 1_555 1_555
Cu4_3 O2_23 1_555 1_555
Cu7_6 O2_23 1_555 1_555
O9 C6_23 1_555 1_555
O10 Cu4_3 1_555 1_555
O11_12 C5_23 1_555 1_555
O12_5 C5_23 1_555 1_555
O6_23 C9_23 1_555 1_555
O7_23 C6_23 1_555 1_555
N1_23 Cu4_3 1_555 1_555
N2_23 Cu7_6 1_555 1_555
C1_23 N1_23 1_555 1_555
H1_23 C1_23 1_555 1_555
C2_23 N2_23 1_555 1_555
H2_23 C2_23 1_555 1_555
C3_23 C9_23 1_555 1_555
C4_23 C1_23 1_555 1_555
H3_23 C4_23 1_555 1_555
C5_23 C8_23 1_555 1_555
C6_23 C7_23 1_555 1_555
C7_23 C10_23 1_555 1_555
C8_23 C11_23 1_555 1_555
C9_23 O10 1_555 1_555
C10_23 C3_23 1_555 1_555
H4_23 C10_23 1_555 1_555
C11_23 C3_23 1_555 1_555
H5_23 C11_23 1_555 1_555
C12_23 C7_23 1_555 1_555
H6_23 C12_23 1_555 1_555
N1_23 N2_23 1_555 1_555
C2_23 C4_23 1_555 1_555
C8_23 C12_23 1_555 1_555
Cu4 O2_24 1_555 1_555
Cu7_8 O2_24 1_555 1_555
O9_3 C6_24 1_555 1_555
O10_3 Cu4 1_555 1_555
O11_11 C5_24 1_555 1_555
O12_7 C5_24 1_555 1_555
O6_24 C9_24 1_555 1_555
O7_24 C6_24 1_555 1_555
N1_24 Cu4 1_555 1_555
N2_24 Cu7_8 1_555 1_555
C1_24 N1_24 1_555 1_555
H1_24 C1_24 1_555 1_555
C2_24 N2_24 1_555 1_555
H2_24 C2_24 1_555 1_555
C3_24 C9_24 1_555 1_555
C4_24 C1_24 1_555 1_555
H3_24 C4_24 1_555 1_555
C5_24 C8_24 1_555 1_555
C6_24 C7_24 1_555 1_555
C7_24 C10_24 1_555 1_555
C8_24 C11_24 1_555 1_555
C9_24 O10_3 1_555 1_555
C10_24 C3_24 1_555 1_555
H4_24 C10_24 1_555 1_555
C11_24 C3_24 1_555 1_555
H5_24 C11_24 1_555 1_555
C12_24 C7_24 1_555 1_555
H6_24 C12_24 1_555 1_555
N1_24 N2_24 1_555 1_555
C2_24 C4_24 1_555 1_555
C8_24 C12_24 1_555 1_555
N3 C13 1_555 1_555
C13 H7 1_555 1_555
H8 C13 1_555 1_555
H9 C13 1_555 1_555
C14 N3 1_555 1_555
H10 C14 1_555 1_555
H11 C14 1_555 1_555
H12 C14 1_555 1_555
C15 N3 1_555 1_555
H13 C15 1_555 1_555
H14 C15 1_555 1_555
H15 C15 1_555 1_555
C16 N3 1_555 1_555
H16 C16 1_555 1_555
H17 C16 1_555 1_555
H18 C16 1_555 1_555
N3_2 C13_2 1_555 1_555
C13_2 H7_2 1_555 1_555
H8_2 C13_2 1_555 1_555
H9_2 C13_2 1_555 1_555
C14_2 N3_2 1_555 1_555
H10_2 C14_2 1_555 1_555
H11_2 C14_2 1_555 1_555
H12_2 C14_2 1_555 1_555
C15_2 N3_2 1_555 1_555
H13_2 C15_2 1_555 1_555
H14_2 C15_2 1_555 1_555
H15_2 C15_2 1_555 1_555
C16_2 N3_2 1_555 1_555
H16_2 C16_2 1_555 1_555
H17_2 C16_2 1_555 1_555
H18_2 C16_2 1_555 1_555
N3_3 C13_3 1_555 1_555
C13_3 H7_3 1_555 1_555
H8_3 C13_3 1_555 1_555
H9_3 C13_3 1_555 1_555
C14_3 N3_3 1_555 1_555
H10_3 C14_3 1_555 1_555
H11_3 C14_3 1_555 1_555
H12_3 C14_3 1_555 1_555
C15_3 N3_3 1_555 1_555
H13_3 C15_3 1_555 1_555
H14_3 C15_3 1_555 1_555
H15_3 C15_3 1_555 1_555
C16_3 N3_3 1_555 1_555
H16_3 C16_3 1_555 1_555
H17_3 C16_3 1_555 1_555
H18_3 C16_3 1_555 1_555
N3_4 C13_4 1_555 1_555
C13_4 H7_4 1_555 1_555
H8_4 C13_4 1_555 1_555
H9_4 C13_4 1_555 1_555
C14_4 N3_4 1_555 1_555
H10_4 C14_4 1_555 1_555
H11_4 C14_4 1_555 1_555
H12_4 C14_4 1_555 1_555
C15_4 N3_4 1_555 1_555
H13_4 C15_4 1_555 1_555
H14_4 C15_4 1_555 1_555
H15_4 C15_4 1_555 1_555
C16_4 N3_4 1_555 1_555
H16_4 C16_4 1_555 1_555
H17_4 C16_4 1_555 1_555
H18_4 C16_4 1_555 1_555
N3_5 C13_5 1_555 1_555
C13_5 H7_5 1_555 1_555
H8_5 C13_5 1_555 1_555
H9_5 C13_5 1_555 1_555
C14_5 N3_5 1_555 1_555
H10_5 C14_5 1_555 1_555
H11_5 C14_5 1_555 1_555
H12_5 C14_5 1_555 1_555
C15_5 N3_5 1_555 1_555
H13_5 C15_5 1_555 1_555
H14_5 C15_5 1_555 1_555
H15_5 C15_5 1_555 1_555
C16_5 N3_5 1_555 1_555
H16_5 C16_5 1_555 1_555
H17_5 C16_5 1_555 1_555
H18_5 C16_5 1_555 1_555
N3_6 C13_6 1_555 1_555
C13_6 H7_6 1_555 1_555
H8_6 C13_6 1_555 1_555
H9_6 C13_6 1_555 1_555
C14_6 N3_6 1_555 1_555
H10_6 C14_6 1_555 1_555
H11_6 C14_6 1_555 1_555
H12_6 C14_6 1_555 1_555
C15_6 N3_6 1_555 1_555
H13_6 C15_6 1_555 1_555
H14_6 C15_6 1_555 1_555
H15_6 C15_6 1_555 1_555
C16_6 N3_6 1_555 1_555
H16_6 C16_6 1_555 1_555
H17_6 C16_6 1_555 1_555
H18_6 C16_6 1_555 1_555
N3_7 C13_7 1_555 1_555
C13_7 H7_7 1_555 1_555
H8_7 C13_7 1_555 1_555
H9_7 C13_7 1_555 1_555
C14_7 N3_7 1_555 1_555
H10_7 C14_7 1_555 1_555
H11_7 C14_7 1_555 1_555
H12_7 C14_7 1_555 1_555
C15_7 N3_7 1_555 1_555
H13_7 C15_7 1_555 1_555
H14_7 C15_7 1_555 1_555
H15_7 C15_7 1_555 1_555
C16_7 N3_7 1_555 1_555
H16_7 C16_7 1_555 1_555
H17_7 C16_7 1_555 1_555
H18_7 C16_7 1_555 1_555
N3_8 C13_8 1_555 1_555
C13_8 H7_8 1_555 1_555
H8_8 C13_8 1_555 1_555
H9_8 C13_8 1_555 1_555
C14_8 N3_8 1_555 1_555
H10_8 C14_8 1_555 1_555
H11_8 C14_8 1_555 1_555
H12_8 C14_8 1_555 1_555
C15_8 N3_8 1_555 1_555
H13_8 C15_8 1_555 1_555
H14_8 C15_8 1_555 1_555
H15_8 C15_8 1_555 1_555
C16_8 N3_8 1_555 1_555
H16_8 C16_8 1_555 1_555
H17_8 C16_8 1_555 1_555
H18_8 C16_8 1_555 1_555
N3_9 C13_9 1_555 1_555
C13_9 H7_9 1_555 1_555
H8_9 C13_9 1_555 1_555
H9_9 C13_9 1_555 1_555
C14_9 N3_9 1_555 1_555
H10_9 C14_9 1_555 1_555
H11_9 C14_9 1_555 1_555
H12_9 C14_9 1_555 1_555
C15_9 N3_9 1_555 1_555
H13_9 C15_9 1_555 1_555
H14_9 C15_9 1_555 1_555
H15_9 C15_9 1_555 1_555
C16_9 N3_9 1_555 1_555
H16_9 C16_9 1_555 1_555
H17_9 C16_9 1_555 1_555
H18_9 C16_9 1_555 1_555
N3_10 C13_10 1_555 1_555
C13_10 H7_10 1_555 1_555
H8_10 C13_10 1_555 1_555
H9_10 C13_10 1_555 1_555
C14_10 N3_10 1_555 1_555
H10_10 C14_10 1_555 1_555
H11_10 C14_10 1_555 1_555
H12_10 C14_10 1_555 1_555
C15_10 N3_10 1_555 1_555
H13_10 C15_10 1_555 1_555
H14_10 C15_10 1_555 1_555
H15_10 C15_10 1_555 1_555
C16_10 N3_10 1_555 1_555
H16_10 C16_10 1_555 1_555
H17_10 C16_10 1_555 1_555
H18_10 C16_10 1_555 1_555
N3_11 C13_11 1_555 1_555
C13_11 H7_11 1_555 1_555
H8_11 C13_11 1_555 1_555
H9_11 C13_11 1_555 1_555
C14_11 N3_11 1_555 1_555
H10_11 C14_11 1_555 1_555
H11_11 C14_11 1_555 1_555
H12_11 C14_11 1_555 1_555
C15_11 N3_11 1_555 1_555
H13_11 C15_11 1_555 1_555
H14_11 C15_11 1_555 1_555
H15_11 C15_11 1_555 1_555
C16_11 N3_11 1_555 1_555
H16_11 C16_11 1_555 1_555
H17_11 C16_11 1_555 1_555
H18_11 C16_11 1_555 1_555
N3_12 C13_12 1_555 1_555
C13_12 H7_12 1_555 1_555
H8_12 C13_12 1_555 1_555
H9_12 C13_12 1_555 1_555
C14_12 N3_12 1_555 1_555
H10_12 C14_12 1_555 1_555
H11_12 C14_12 1_555 1_555
H12_12 C14_12 1_555 1_555
C15_12 N3_12 1_555 1_555
H13_12 C15_12 1_555 1_555
H14_12 C15_12 1_555 1_555
H15_12 C15_12 1_555 1_555
C16_12 N3_12 1_555 1_555
H16_12 C16_12 1_555 1_555
H17_12 C16_12 1_555 1_555
H18_12 C16_12 1_555 1_555
N3_13 C13_13 1_555 1_555
C13_13 H7_13 1_555 1_555
H8_13 C13_13 1_555 1_555
H9_13 C13_13 1_555 1_555
C14_13 N3_13 1_555 1_555
H10_13 C14_13 1_555 1_555
H11_13 C14_13 1_555 1_555
H12_13 C14_13 1_555 1_555
C15_13 N3_13 1_555 1_555
H13_13 C15_13 1_555 1_555
H14_13 C15_13 1_555 1_555
H15_13 C15_13 1_555 1_555
C16_13 N3_13 1_555 1_555
H16_13 C16_13 1_555 1_555
H17_13 C16_13 1_555 1_555
H18_13 C16_13 1_555 1_555
N3_14 C13_14 1_555 1_555
C13_14 H7_14 1_555 1_555
H8_14 C13_14 1_555 1_555
H9_14 C13_14 1_555 1_555
C14_14 N3_14 1_555 1_555
H10_14 C14_14 1_555 1_555
H11_14 C14_14 1_555 1_555
H12_14 C14_14 1_555 1_555
C15_14 N3_14 1_555 1_555
H13_14 C15_14 1_555 1_555
H14_14 C15_14 1_555 1_555
H15_14 C15_14 1_555 1_555
C16_14 N3_14 1_555 1_555
H16_14 C16_14 1_555 1_555
H17_14 C16_14 1_555 1_555
H18_14 C16_14 1_555 1_555
N3_15 C13_15 1_555 1_555
C13_15 H7_15 1_555 1_555
H8_15 C13_15 1_555 1_555
H9_15 C13_15 1_555 1_555
C14_15 N3_15 1_555 1_555
H10_15 C14_15 1_555 1_555
H11_15 C14_15 1_555 1_555
H12_15 C14_15 1_555 1_555
C15_15 N3_15 1_555 1_555
H13_15 C15_15 1_555 1_555
H14_15 C15_15 1_555 1_555
H15_15 C15_15 1_555 1_555
C16_15 N3_15 1_555 1_555
H16_15 C16_15 1_555 1_555
H17_15 C16_15 1_555 1_555
H18_15 C16_15 1_555 1_555
N3_16 C13_16 1_555 1_555
C13_16 H7_16 1_555 1_555
H8_16 C13_16 1_555 1_555
H9_16 C13_16 1_555 1_555
C14_16 N3_16 1_555 1_555
H10_16 C14_16 1_555 1_555
H11_16 C14_16 1_555 1_555
H12_16 C14_16 1_555 1_555
C15_16 N3_16 1_555 1_555
H13_16 C15_16 1_555 1_555
H14_16 C15_16 1_555 1_555
H15_16 C15_16 1_555 1_555
C16_16 N3_16 1_555 1_555
H16_16 C16_16 1_555 1_555
H17_16 C16_16 1_555 1_555
H18_16 C16_16 1_555 1_555
N3_17 C13_17 1_555 1_555
C13_17 H7_17 1_555 1_555
H8_17 C13_17 1_555 1_555
H9_17 C13_17 1_555 1_555
C14_17 N3_17 1_555 1_555
H10_17 C14_17 1_555 1_555
H11_17 C14_17 1_555 1_555
H12_17 C14_17 1_555 1_555
C15_17 N3_17 1_555 1_555
H13_17 C15_17 1_555 1_555
H14_17 C15_17 1_555 1_555
H15_17 C15_17 1_555 1_555
C16_17 N3_17 1_555 1_555
H16_17 C16_17 1_555 1_555
H17_17 C16_17 1_555 1_555
H18_17 C16_17 1_555 1_555
N3_18 C13_18 1_555 1_555
C13_18 H7_18 1_555 1_555
H8_18 C13_18 1_555 1_555
H9_18 C13_18 1_555 1_555
C14_18 N3_18 1_555 1_555
H10_18 C14_18 1_555 1_555
H11_18 C14_18 1_555 1_555
H12_18 C14_18 1_555 1_555
C15_18 N3_18 1_555 1_555
H13_18 C15_18 1_555 1_555
H14_18 C15_18 1_555 1_555
H15_18 C15_18 1_555 1_555
C16_18 N3_18 1_555 1_555
H16_18 C16_18 1_555 1_555
H17_18 C16_18 1_555 1_555
H18_18 C16_18 1_555 1_555
N3_19 C13_19 1_555 1_555
C13_19 H7_19 1_555 1_555
H8_19 C13_19 1_555 1_555
H9_19 C13_19 1_555 1_555
C14_19 N3_19 1_555 1_555
H10_19 C14_19 1_555 1_555
H11_19 C14_19 1_555 1_555
H12_19 C14_19 1_555 1_555
C15_19 N3_19 1_555 1_555
H13_19 C15_19 1_555 1_555
H14_19 C15_19 1_555 1_555
H15_19 C15_19 1_555 1_555
C16_19 N3_19 1_555 1_555
H16_19 C16_19 1_555 1_555
H17_19 C16_19 1_555 1_555
H18_19 C16_19 1_555 1_555
N3_20 C13_20 1_555 1_555
C13_20 H7_20 1_555 1_555
H8_20 C13_20 1_555 1_555
H9_20 C13_20 1_555 1_555
C14_20 N3_20 1_555 1_555
H10_20 C14_20 1_555 1_555
H11_20 C14_20 1_555 1_555
H12_20 C14_20 1_555 1_555
C15_20 N3_20 1_555 1_555
H13_20 C15_20 1_555 1_555
H14_20 C15_20 1_555 1_555
H15_20 C15_20 1_555 1_555
C16_20 N3_20 1_555 1_555
H16_20 C16_20 1_555 1_555
H17_20 C16_20 1_555 1_555
H18_20 C16_20 1_555 1_555
N3_21 C13_21 1_555 1_555
C13_21 H7_21 1_555 1_555
H8_21 C13_21 1_555 1_555
H9_21 C13_21 1_555 1_555
C14_21 N3_21 1_555 1_555
H10_21 C14_21 1_555 1_555
H11_21 C14_21 1_555 1_555
H12_21 C14_21 1_555 1_555
C15_21 N3_21 1_555 1_555
H13_21 C15_21 1_555 1_555
H14_21 C15_21 1_555 1_555
H15_21 C15_21 1_555 1_555
C16_21 N3_21 1_555 1_555
H16_21 C16_21 1_555 1_555
H17_21 C16_21 1_555 1_555
H18_21 C16_21 1_555 1_555
N3_22 C13_22 1_555 1_555
C13_22 H7_22 1_555 1_555
H8_22 C13_22 1_555 1_555
H9_22 C13_22 1_555 1_555
C14_22 N3_22 1_555 1_555
H10_22 C14_22 1_555 1_555
H11_22 C14_22 1_555 1_555
H12_22 C14_22 1_555 1_555
C15_22 N3_22 1_555 1_555
H13_22 C15_22 1_555 1_555
H14_22 C15_22 1_555 1_555
H15_22 C15_22 1_555 1_555
C16_22 N3_22 1_555 1_555
H16_22 C16_22 1_555 1_555
H17_22 C16_22 1_555 1_555
H18_22 C16_22 1_555 1_555
N3_23 C13_23 1_555 1_555
C13_23 H7_23 1_555 1_555
H8_23 C13_23 1_555 1_555
H9_23 C13_23 1_555 1_555
C14_23 N3_23 1_555 1_555
H10_23 C14_23 1_555 1_555
H11_23 C14_23 1_555 1_555
H12_23 C14_23 1_555 1_555
C15_23 N3_23 1_555 1_555
H13_23 C15_23 1_555 1_555
H14_23 C15_23 1_555 1_555
H15_23 C15_23 1_555 1_555
C16_23 N3_23 1_555 1_555
H16_23 C16_23 1_555 1_555
H17_23 C16_23 1_555 1_555
H18_23 C16_23 1_555 1_555
N3_24 C13_24 1_555 1_555
C13_24 H7_24 1_555 1_555
H8_24 C13_24 1_555 1_555
H9_24 C13_24 1_555 1_555
C14_24 N3_24 1_555 1_555
H10_24 C14_24 1_555 1_555
H11_24 C14_24 1_555 1_555
H12_24 C14_24 1_555 1_555
C15_24 N3_24 1_555 1_555
H13_24 C15_24 1_555 1_555
H14_24 C15_24 1_555 1_555
H15_24 C15_24 1_555 1_555
C16_24 N3_24 1_555 1_555
H16_24 C16_24 1_555 1_555
H17_24 C16_24 1_555 1_555
H18_24 C16_24 1_555 1_555

#END
