
###############################################################################
#
# This file contains modified crystal structure data generated from the
# MOF subset of the Cambridge Structural Database (CSD) v543 
# hosted by the Cambridge Crystallographic Data Centre (CCDC).
#
# This work is licensed under the Creative Commons
# Attribution-NonCommercial-ShareAlike 4.0 International License.
# To view a copy of this license, visit
# http://creativecommons.org/licenses/by-nc-sa/4.0/
# or send a letter to
# Creative Commons, PO Box 1866, Mountain View, CA 94042, USA.
#
# CIF created using the CSD Python API on 29 September 2022
# The structure has been converted into the P1 space group
# The structure has a 3D framework
# The original CSD entry FIMZAE is in the cubic crystal system
# The framework has been calculated to contain at least 10.0% void space
# The void calculation uses a probe of radius 1.32A, grid spacing 0.4
# The framework is charged, counterions have been retained in the structure
#
###############################################################################

data_FIMZAE
_chemical_formula_moiety         '(C408 H504 Cu48 N72 O168)n'
_symmetry_cell_setting           triclinic
_symmetry_space_group_name_H-M   'P 1'
_symmetry_Int_Tables_number      1
_space_group_name_Hall           'P 1'
loop_
_symmetry_equiv_pos_site_id
_symmetry_equiv_pos_as_xyz
1 x,y,z
_cell_length_a                   24.494(11)
_cell_length_b                   24.494(11)
_cell_length_c                   24.494(11)
_cell_angle_alpha                90
_cell_angle_beta                 90
_cell_angle_gamma                90
_cell_volume                     14695.3
loop_
_atom_site_label
_atom_site_type_symbol
_atom_site_fract_x
_atom_site_fract_y
_atom_site_fract_z
Cu1 Cu 0.202663(19) 0.484101(18) 0.146121(18)
Cu2 Cu 0.214023(19) 0.383052(17) 0.056308(18)
N1 N 0.22397(14) 0.41168(14) 0.17034(13)
N2 N 0.22575(15) 0.36941(13) 0.13500(13)
O3 O 0.18256(12) 0.45166(10) 0.07731(11)
C9 C 0.2303(2) 0.3232(2) 0.1640(2)
H1 H 0.2323 0.2883 0.1494
C11 C 0.2313(3) 0.3356(2) 0.2191(2)
H2 H 0.2341 0.3114 0.2482
C12 C 0.2273(2) 0.3914(2) 0.22122(18)
H3 H 0.2270 0.4121 0.2531
C13 C 0.1426(4) 0.4778(4) 0.0424(4)
H4 H 0.1373 0.4563 0.0101
H5 H 0.1554 0.5135 0.0324
H6 H 0.1086 0.4811 0.0616
O8 O 0.10924(11) 0.47885(10) 0.19413(11)
O9 O 0.17202(11) 0.55523(10) 0.12851(11)
O10 O 0.12851(11) 0.32798(11) 0.05523(10)
O11 O 0.26522(11) 0.32260(11) 0.03992(12)
O12 O 0.24514(12) 0.51702(13) 0.20783(12)
O1 O 0.19413(11) 0.39076(11) 0.97885(10)
O2 O 0.05523(10) 0.37149(11) 0.82798(11)
O4 O 0.32260(11) 0.46008(12) 0.76522(11)
O5 O 0.25486(12) 0.48298(13) 0.70783(12)
O6 O 0.27609(13) 0.42498(17) 0.95763(13)
O7 O 0.06857(14) 0.41850(19) 0.75214(15)
C1 C 0.21007(15) 0.41754(16) 0.88660(15)
C2 C 0.15677(15) 0.40590(16) 0.87064(16)
C3 C 0.27274(15) 0.46477(15) 0.75230(16)
C4 C 0.14101(15) 0.41467(16) 0.81660(16)
C5 C 0.23157(15) 0.44588(16) 0.79401(15)
C6 C 0.17841(16) 0.43580(17) 0.77866(17)
C7 C 0.24760(16) 0.43662(16) 0.84776(16)
C8 C 0.22918(17) 0.41054(17) 0.94509(15)
C10 C 0.08406(16) 0.40111(18) 0.79695(16)
H7 H 0.1340(17) 0.3921(16) 0.8936(17)
H8 H 0.2856(17) 0.4409(16) 0.8574(16)
H9 H 0.167(2) 0.444(2) 0.742(2)
Cu3 Cu 0.297337(19) 0.515899(18) 0.646121(18)
Cu5 Cu 0.146121(18) 0.297337(19) 0.984101(18)
Cu6 Cu 0.056308(18) 0.285977(19) 0.883052(17)
Cu7 Cu 0.383052(17) 0.443692(18) 0.714023(19)
Cu4 Cu 0.984101(18) 0.353879(18) 0.797337(19)
Cu2_2 Cu 0.285977(19) 0.616948(17) 0.556308(18)
N1_2 N 0.27603(14) 0.58832(14) 0.67034(13)
N2_2 N 0.27425(15) 0.63059(13) 0.63500(13)
O1_2 O 0.30587(11) 0.60924(11) 0.47885(10)
O2_2 O 0.44477(10) 0.62851(11) 0.32798(11)
O3_2 O 0.31744(12) 0.54834(10) 0.57731(11)
O4_2 O 0.17740(11) 0.53992(12) 0.26522(11)
O6_2 O 0.22391(13) 0.57502(17) 0.45763(13)
O7_2 O 0.43143(14) 0.58150(19) 0.25214(15)
C1_2 C 0.28993(15) 0.58246(16) 0.38660(15)
C2_2 C 0.34323(15) 0.59410(16) 0.37064(16)
C3_2 C 0.22726(15) 0.53523(15) 0.25230(16)
C4_2 C 0.35899(15) 0.58533(16) 0.31660(16)
C5_2 C 0.26843(15) 0.55412(16) 0.29401(15)
C6_2 C 0.32159(16) 0.56420(17) 0.27866(17)
C7_2 C 0.25240(16) 0.56338(16) 0.34776(16)
C8_2 C 0.27082(17) 0.58946(17) 0.44509(15)
C9_2 C 0.2697(2) 0.6768(2) 0.6640(2)
H1_2 H 0.2677 0.7117 0.6494
C10_2 C 0.41594(16) 0.59889(18) 0.29695(16)
C11_2 C 0.2687(3) 0.6644(2) 0.7191(2)
H2_2 H 0.2659 0.6886 0.7482
C12_2 C 0.2727(2) 0.6086(2) 0.72122(18)
H3_2 H 0.2730 0.5879 0.7531
C13_2 C 0.3574(4) 0.5222(4) 0.5424(4)
H4_2 H 0.3627 0.5437 0.5101
H5_2 H 0.3446 0.4865 0.5324
H6_2 H 0.3914 0.5189 0.5616
H7_2 H 0.3660(17) 0.6079(16) 0.3936(17)
H8_2 H 0.2144(17) 0.5591(16) 0.3574(16)
H9_2 H 0.333(2) 0.556(2) 0.242(2)
Cu4_2 Cu 0.515899(18) 0.646121(18) 0.297337(19)
Cu5_2 Cu 0.353879(18) 0.702663(19) 0.484101(18)
Cu6_2 Cu 0.443692(18) 0.714023(19) 0.383052(17)
Cu7_2 Cu 0.116948(17) 0.556308(18) 0.214023(19)
O8_2 O 0.39076(11) 0.52115(10) 0.69413(11)
O9_2 O 0.32798(11) 0.44477(10) 0.62851(11)
O10_2 O 0.37149(11) 0.67202(11) 0.55523(10)
O11_2 O 0.23478(11) 0.67740(11) 0.53992(12)
Cu4_3 Cu 0.015899(18) 0.853879(18) 0.702663(19)
H5_3 H 0.8446 0.0135 0.4676
Cu3_2 Cu 0.702663(19) 0.015899(18) 0.853879(18)
O9_3 O 0.82798(11) 0.05523(10) 0.37149(11)
O12_2 O 0.75486(12) 0.01702(13) 0.29217(12)
Cu1_2 Cu 0.797337(19) 0.984101(18) 0.353879(18)
Cu2_3 Cu 0.785977(19) 0.883052(17) 0.443692(18)
N1_3 N 0.77603(14) 0.91168(14) 0.32966(13)
N2_3 N 0.77425(15) 0.86941(13) 0.36500(13)
O1_3 O 0.80587(11) 0.89076(11) 0.52115(10)
O2_3 O 0.94477(10) 0.87149(11) 0.67202(11)
O3_3 O 0.81744(12) 0.95166(10) 0.42269(11)
O4_3 O 0.67740(11) 0.96008(12) 0.73478(11)
O5_2 O 0.74514(12) 0.98298(13) 0.79217(12)
O6_3 O 0.72391(13) 0.92498(17) 0.54237(13)
O7_3 O 0.93143(14) 0.91850(19) 0.74786(15)
C1_3 C 0.78993(15) 0.91754(16) 0.61340(15)
C2_3 C 0.84323(15) 0.90590(16) 0.62936(16)
C3_3 C 0.72726(15) 0.96477(15) 0.74770(16)
C4_3 C 0.85899(15) 0.91467(16) 0.68340(16)
C5_3 C 0.76843(15) 0.94588(16) 0.70599(15)
C6_3 C 0.82159(16) 0.93580(17) 0.72134(17)
C7_3 C 0.75240(16) 0.93662(16) 0.65224(16)
C8_3 C 0.77082(17) 0.91054(17) 0.55491(15)
C9_3 C 0.7697(2) 0.8232(2) 0.3360(2)
H1_3 H 0.7677 0.7883 0.3506
C10_3 C 0.91594(16) 0.90111(18) 0.70305(16)
C11_3 C 0.7687(3) 0.8356(2) 0.2809(2)
H2_3 H 0.7659 0.8114 0.2518
C12_3 C 0.7727(2) 0.8914(2) 0.27878(18)
H3_3 H 0.7730 0.9121 0.2469
C13_3 C 0.8574(4) 0.9778(4) 0.4576(4)
H4_3 H 0.8627 0.9563 0.4899
H6_3 H 0.8914 0.9811 0.4384
H7_3 H 0.8660(17) 0.8921(16) 0.6064(17)
H8_3 H 0.7144(17) 0.9409(16) 0.6426(16)
H9_3 H 0.833(2) 0.944(2) 0.758(2)
Cu5_3 Cu 0.853879(18) 0.797337(19) 0.515899(18)
Cu6_3 Cu 0.943692(18) 0.785977(19) 0.616948(17)
Cu7_3 Cu 0.616948(17) 0.943692(18) 0.785977(19)
O8_3 O 0.89076(11) 0.97885(10) 0.30587(11)
O10_3 O 0.87149(11) 0.82798(11) 0.44477(10)
O11_3 O 0.73478(11) 0.82260(11) 0.46008(12)
O1_4 O 0.69413(11) 0.10924(11) 0.02115(10)
O2_4 O 0.55523(10) 0.12851(11) 0.17202(11)
O4_4 O 0.82260(11) 0.03992(12) 0.23478(11)
O6_4 O 0.77609(13) 0.07502(17) 0.04237(13)
O7_4 O 0.56857(14) 0.08150(19) 0.24786(15)
C1_4 C 0.71007(15) 0.08246(16) 0.11340(15)
C2_4 C 0.65677(15) 0.09410(16) 0.12936(16)
C3_4 C 0.77274(15) 0.03523(15) 0.24770(16)
C4_4 C 0.64101(15) 0.08533(16) 0.18340(16)
C5_4 C 0.73157(15) 0.05412(16) 0.20599(15)
C6_4 C 0.67841(16) 0.06420(17) 0.22134(17)
C7_4 C 0.74760(16) 0.06338(16) 0.15224(16)
C8_4 C 0.72918(17) 0.08946(17) 0.05491(15)
C10_4 C 0.58406(16) 0.09889(18) 0.20305(16)
H7_4 H 0.6340(17) 0.1079(16) 0.1064(17)
H8_4 H 0.7856(17) 0.0591(16) 0.1426(16)
H9_4 H 0.667(2) 0.056(2) 0.258(2)
Cu4_4 Cu 0.484101(18) 0.146121(18) 0.202663(19)
Cu5_4 Cu 0.646121(18) 0.202663(19) 0.015899(18)
Cu6_4 Cu 0.556308(18) 0.214023(19) 0.116948(17)
Cu7_4 Cu 0.883052(17) 0.056308(18) 0.285977(19)
Cu2_4 Cu 0.714023(19) 0.116948(17) 0.943692(18)
N1_4 N 0.72397(14) 0.08832(14) 0.82966(13)
N2_4 N 0.72575(15) 0.13059(13) 0.86500(13)
O3_4 O 0.68256(12) 0.04834(10) 0.92269(11)
C9_4 C 0.7303(2) 0.1768(2) 0.8360(2)
H1_4 H 0.7323 0.2117 0.8506
C11_4 C 0.7313(3) 0.1644(2) 0.7809(2)
H2_4 H 0.7341 0.1886 0.7518
C12_4 C 0.7273(2) 0.1086(2) 0.77878(18)
H3_4 H 0.7270 0.0879 0.7469
C13_4 C 0.6426(4) 0.0222(4) 0.9576(4)
H4_4 H 0.6373 0.0437 0.9899
H6_4 H 0.6086 0.0189 0.9384
O8_4 O 0.60924(11) 0.02115(10) 0.80587(11)
O10_4 O 0.62851(11) 0.17202(11) 0.94477(10)
O11_4 O 0.76522(11) 0.17740(11) 0.96008(12)
H5_4 H 0.6554 0.9865 0.9676
O9_4 O 0.67202(11) 0.94477(10) 0.87149(11)
Cu1_3 Cu 0.146121(18) 0.202663(19) 0.484101(18)
Cu2_5 Cu 0.056308(18) 0.214023(19) 0.383052(17)
N1_5 N 0.17034(13) 0.22397(14) 0.41168(14)
N2_5 N 0.13500(13) 0.22575(15) 0.36941(13)
O3_5 O 0.07731(11) 0.18256(12) 0.45166(10)
C9_5 C 0.1640(2) 0.2303(2) 0.3232(2)
H1_5 H 0.1494 0.2323 0.2883
C11_5 C 0.2191(2) 0.2313(3) 0.3356(2)
H2_5 H 0.2482 0.2341 0.3114
C12_5 C 0.22122(18) 0.2273(2) 0.3914(2)
H3_5 H 0.2531 0.2270 0.4121
C13_5 C 0.0424(4) 0.1426(4) 0.4778(4)
H4_5 H 0.0101 0.1373 0.4563
H5_5 H 0.0324 0.1554 0.5135
H6_5 H 0.0616 0.1086 0.4811
O8_5 O 0.19413(11) 0.10924(11) 0.47885(10)
O9_5 O 0.12851(11) 0.17202(11) 0.55523(10)
O10_5 O 0.05523(10) 0.12851(11) 0.32798(11)
O11_5 O 0.03992(12) 0.26522(11) 0.32260(11)
O12_3 O 0.20783(12) 0.24514(12) 0.51702(13)
O1_5 O 0.97885(10) 0.19413(11) 0.39076(11)
O4_5 O 0.76522(11) 0.32260(11) 0.46008(12)
O5_3 O 0.70783(12) 0.25486(12) 0.48298(13)
O6_5 O 0.95763(13) 0.27609(13) 0.42498(17)
O7_5 O 0.75214(15) 0.06857(14) 0.41850(19)
C1_5 C 0.88660(15) 0.21007(15) 0.41754(16)
C2_5 C 0.87064(16) 0.15677(15) 0.40590(16)
C3_5 C 0.75230(16) 0.27274(15) 0.46477(15)
C4_5 C 0.81660(16) 0.14101(15) 0.41467(16)
C5_5 C 0.79401(15) 0.23157(15) 0.44588(16)
C6_5 C 0.77866(17) 0.17841(16) 0.43580(17)
C7_5 C 0.84776(16) 0.24760(16) 0.43662(16)
C8_5 C 0.94509(15) 0.22918(17) 0.41054(17)
C10_5 C 0.79695(16) 0.08406(16) 0.40111(18)
H7_5 H 0.8936(17) 0.1340(17) 0.3921(16)
H8_5 H 0.8574(16) 0.2856(17) 0.4409(16)
H9_5 H 0.742(2) 0.167(2) 0.444(2)
Cu3_3 Cu 0.646121(18) 0.297337(19) 0.515899(18)
Cu5_5 Cu 0.984101(18) 0.146121(18) 0.297337(19)
Cu7_5 Cu 0.714023(19) 0.383052(17) 0.443692(18)
Cu2_6 Cu 0.556308(18) 0.285977(19) 0.616948(17)
N1_6 N 0.67034(13) 0.27603(14) 0.58832(14)
N2_6 N 0.63500(13) 0.27425(15) 0.63059(13)
O1_6 O 0.47885(10) 0.30587(11) 0.60924(11)
O3_6 O 0.57731(11) 0.31744(12) 0.54834(10)
O4_6 O 0.26522(11) 0.17740(11) 0.53992(12)
O6_6 O 0.45763(13) 0.22391(13) 0.57502(17)
O7_6 O 0.25214(15) 0.43143(14) 0.58150(19)
C1_6 C 0.38660(15) 0.28993(15) 0.58246(16)
C2_6 C 0.37064(16) 0.34323(15) 0.59410(16)
C3_6 C 0.25230(16) 0.22726(15) 0.53523(15)
C4_6 C 0.31660(16) 0.35899(15) 0.58533(16)
C5_6 C 0.29401(15) 0.26843(15) 0.55412(16)
C6_6 C 0.27866(17) 0.32159(16) 0.56420(17)
C7_6 C 0.34776(16) 0.25240(16) 0.56338(16)
C8_6 C 0.44509(15) 0.27082(17) 0.58946(17)
C9_6 C 0.6640(2) 0.2697(2) 0.6768(2)
H1_6 H 0.6494 0.2677 0.7117
C10_6 C 0.29695(16) 0.41594(16) 0.59889(18)
C11_6 C 0.7191(2) 0.2687(3) 0.6644(2)
H2_6 H 0.7482 0.2659 0.6886
C12_6 C 0.72122(18) 0.2727(2) 0.6086(2)
H3_6 H 0.7531 0.2730 0.5879
C13_6 C 0.5424(4) 0.3574(4) 0.5222(4)
H4_6 H 0.5101 0.3627 0.5437
H5_6 H 0.5324 0.3446 0.4865
H6_6 H 0.5616 0.3914 0.5189
H7_6 H 0.3936(17) 0.3660(17) 0.6079(16)
H8_6 H 0.3574(16) 0.2144(17) 0.5591(16)
H9_6 H 0.242(2) 0.333(2) 0.556(2)
Cu5_6 Cu 0.484101(18) 0.353879(18) 0.702663(19)
Cu7_6 Cu 0.214023(19) 0.116948(17) 0.556308(18)
O8_6 O 0.69413(11) 0.39076(11) 0.52115(10)
O9_6 O 0.62851(11) 0.32798(11) 0.44477(10)
O10_6 O 0.55523(10) 0.37149(11) 0.67202(11)
O11_6 O 0.53992(12) 0.23478(11) 0.67740(11)
H5_7 H 0.4676 0.8446 0.0135
Cu3_4 Cu 0.853879(18) 0.702663(19) 0.015899(18)
O9_7 O 0.37149(11) 0.82798(11) 0.05523(10)
O12_4 O 0.29217(12) 0.75486(12) 0.01702(13)
Cu1_4 Cu 0.353879(18) 0.797337(19) 0.984101(18)
Cu2_7 Cu 0.443692(18) 0.785977(19) 0.883052(17)
N1_7 N 0.32966(13) 0.77603(14) 0.91168(14)
N2_7 N 0.36500(13) 0.77425(15) 0.86941(13)
O1_7 O 0.52115(10) 0.80587(11) 0.89076(11)
O3_7 O 0.42269(11) 0.81744(12) 0.95166(10)
O4_7 O 0.73478(11) 0.67740(11) 0.96008(12)
O5_4 O 0.79217(12) 0.74514(12) 0.98298(13)
O6_7 O 0.54237(13) 0.72391(13) 0.92498(17)
O7_7 O 0.74786(15) 0.93143(14) 0.91850(19)
C1_7 C 0.61340(15) 0.78993(15) 0.91754(16)
C2_7 C 0.62936(16) 0.84323(15) 0.90590(16)
C3_7 C 0.74770(16) 0.72726(15) 0.96477(15)
C4_7 C 0.68340(16) 0.85899(15) 0.91467(16)
C5_7 C 0.70599(15) 0.76843(15) 0.94588(16)
C6_7 C 0.72134(17) 0.82159(16) 0.93580(17)
C7_7 C 0.65224(16) 0.75240(16) 0.93662(16)
C8_7 C 0.55491(15) 0.77082(17) 0.91054(17)
C9_7 C 0.3360(2) 0.7697(2) 0.8232(2)
H1_7 H 0.3506 0.7677 0.7883
C10_7 C 0.70305(16) 0.91594(16) 0.90111(18)
C11_7 C 0.2809(2) 0.7687(3) 0.8356(2)
H2_7 H 0.2518 0.7659 0.8114
C12_7 C 0.27878(18) 0.7727(2) 0.8914(2)
H3_7 H 0.2469 0.7730 0.9121
C13_7 C 0.4576(4) 0.8574(4) 0.9778(4)
H4_7 H 0.4899 0.8627 0.9563
H6_7 H 0.4384 0.8914 0.9811
H7_7 H 0.6064(17) 0.8660(17) 0.8921(16)
H8_7 H 0.6426(16) 0.7144(17) 0.9409(16)
H9_7 H 0.758(2) 0.833(2) 0.944(2)
Cu5_7 Cu 0.515899(18) 0.853879(18) 0.797337(19)
Cu7_7 Cu 0.785977(19) 0.616948(17) 0.943692(18)
O8_7 O 0.30587(11) 0.89076(11) 0.97885(10)
O10_7 O 0.44477(10) 0.87149(11) 0.82798(11)
O11_7 O 0.46008(12) 0.73478(11) 0.82260(11)
O1_8 O 0.02115(10) 0.69413(11) 0.10924(11)
O4_8 O 0.23478(11) 0.82260(11) 0.03992(12)
O6_8 O 0.04237(13) 0.77609(13) 0.07502(17)
O7_8 O 0.24786(15) 0.56857(14) 0.08150(19)
C1_8 C 0.11340(15) 0.71007(15) 0.08246(16)
C2_8 C 0.12936(16) 0.65677(15) 0.09410(16)
C3_8 C 0.24770(16) 0.77274(15) 0.03523(15)
C4_8 C 0.18340(16) 0.64101(15) 0.08533(16)
C5_8 C 0.20599(15) 0.73157(15) 0.05412(16)
C6_8 C 0.22134(17) 0.67841(16) 0.06420(17)
C7_8 C 0.15224(16) 0.74760(16) 0.06338(16)
C8_8 C 0.05491(15) 0.72918(17) 0.08946(17)
C10_8 C 0.20305(16) 0.58406(16) 0.09889(18)
H7_8 H 0.1064(17) 0.6340(17) 0.1079(16)
H8_8 H 0.1426(16) 0.7856(17) 0.0591(16)
H9_8 H 0.258(2) 0.667(2) 0.056(2)
Cu5_8 Cu 0.015899(18) 0.646121(18) 0.202663(19)
Cu7_8 Cu 0.285977(19) 0.883052(17) 0.056308(18)
Cu2_8 Cu 0.943692(18) 0.714023(19) 0.116948(17)
N1_8 N 0.82966(13) 0.72397(14) 0.08832(14)
N2_8 N 0.86500(13) 0.72575(15) 0.13059(13)
O3_8 O 0.92269(11) 0.68256(12) 0.04834(10)
C9_8 C 0.8360(2) 0.7303(2) 0.1768(2)
H1_8 H 0.8506 0.7323 0.2117
C11_8 C 0.7809(2) 0.7313(3) 0.1644(2)
H2_8 H 0.7518 0.7341 0.1886
C12_8 C 0.77878(18) 0.7273(2) 0.1086(2)
H3_8 H 0.7469 0.7270 0.0879
C13_8 C 0.9576(4) 0.6426(4) 0.0222(4)
H4_8 H 0.9899 0.6373 0.0437
H6_8 H 0.9384 0.6086 0.0189
O8_8 O 0.80587(11) 0.60924(11) 0.02115(10)
O10_8 O 0.94477(10) 0.62851(11) 0.17202(11)
O11_8 O 0.96008(12) 0.76522(11) 0.17740(11)
H5_8 H 0.9676 0.6554 0.9865
O9_8 O 0.87149(11) 0.67202(11) 0.94477(10)
Cu2_9 Cu 0.383052(17) 0.056308(18) 0.214023(19)
N1_9 N 0.41168(14) 0.17034(13) 0.22397(14)
N2_9 N 0.36941(13) 0.13500(13) 0.22575(15)
O3_9 O 0.45166(10) 0.07731(11) 0.18256(12)
C9_9 C 0.3232(2) 0.1640(2) 0.2303(2)
H1_9 H 0.2883 0.1494 0.2323
C11_9 C 0.3356(2) 0.2191(2) 0.2313(3)
H2_9 H 0.3114 0.2482 0.2341
C12_9 C 0.3914(2) 0.22122(18) 0.2273(2)
H3_9 H 0.4121 0.2531 0.2270
C13_9 C 0.4778(4) 0.0424(4) 0.1426(4)
H4_9 H 0.4563 0.0101 0.1373
H5_9 H 0.5135 0.0324 0.1554
H6_9 H 0.4811 0.0616 0.1086
O8_9 O 0.47885(10) 0.19413(11) 0.10924(11)
O10_9 O 0.32798(11) 0.05523(10) 0.12851(11)
O11_9 O 0.32260(11) 0.03992(12) 0.26522(11)
O12_5 O 0.51702(13) 0.20783(12) 0.24514(12)
O1_9 O 0.39076(11) 0.97885(10) 0.19413(11)
O4_9 O 0.46008(12) 0.76522(11) 0.32260(11)
O5_5 O 0.48298(13) 0.70783(12) 0.25486(12)
O6_9 O 0.42498(17) 0.95763(13) 0.27609(13)
O7_9 O 0.41850(19) 0.75214(15) 0.06857(14)
C1_9 C 0.41754(16) 0.88660(15) 0.21007(15)
C2_9 C 0.40590(16) 0.87064(16) 0.15677(15)
C3_9 C 0.46477(15) 0.75230(16) 0.27274(15)
C4_9 C 0.41467(16) 0.81660(16) 0.14101(15)
C5_9 C 0.44588(16) 0.79401(15) 0.23157(15)
C6_9 C 0.43580(17) 0.77866(17) 0.17841(16)
C7_9 C 0.43662(16) 0.84776(16) 0.24760(16)
C8_9 C 0.41054(17) 0.94509(15) 0.22918(17)
C10_9 C 0.40111(18) 0.79695(16) 0.08406(16)
H7_9 H 0.3921(16) 0.8936(17) 0.1340(17)
H8_9 H 0.4409(16) 0.8574(16) 0.2856(17)
H9_9 H 0.444(2) 0.742(2) 0.167(2)
Cu5_9 Cu 0.297337(19) 0.984101(18) 0.146121(18)
Cu2_10 Cu 0.616948(17) 0.556308(18) 0.285977(19)
N1_10 N 0.58832(14) 0.67034(13) 0.27603(14)
N2_10 N 0.63059(13) 0.63500(13) 0.27425(15)
O1_10 O 0.60924(11) 0.47885(10) 0.30587(11)
O3_10 O 0.54834(10) 0.57731(11) 0.31744(12)
O4_10 O 0.53992(12) 0.26522(11) 0.17740(11)
O6_10 O 0.57502(17) 0.45763(13) 0.22391(13)
O7_10 O 0.58150(19) 0.25214(15) 0.43143(14)
C1_10 C 0.58246(16) 0.38660(15) 0.28993(15)
C2_10 C 0.59410(16) 0.37064(16) 0.34323(15)
C3_10 C 0.53523(15) 0.25230(16) 0.22726(15)
C4_10 C 0.58533(16) 0.31660(16) 0.35899(15)
C5_10 C 0.55412(16) 0.29401(15) 0.26843(15)
C6_10 C 0.56420(17) 0.27866(17) 0.32159(16)
C7_10 C 0.56338(16) 0.34776(16) 0.25240(16)
C8_10 C 0.58946(17) 0.44509(15) 0.27082(17)
C9_10 C 0.6768(2) 0.6640(2) 0.2697(2)
H1_10 H 0.7117 0.6494 0.2677
C10_10 C 0.59889(18) 0.29695(16) 0.41594(16)
C11_10 C 0.6644(2) 0.7191(2) 0.2687(3)
H2_10 H 0.6886 0.7482 0.2659
C12_10 C 0.6086(2) 0.72122(18) 0.2727(2)
H3_10 H 0.5879 0.7531 0.2730
C13_10 C 0.5222(4) 0.5424(4) 0.3574(4)
H4_10 H 0.5437 0.5101 0.3627
H5_10 H 0.4865 0.5324 0.3446
H6_10 H 0.5189 0.5616 0.3914
H7_10 H 0.6079(16) 0.3936(17) 0.3660(17)
H8_10 H 0.5591(16) 0.3574(16) 0.2144(17)
H9_10 H 0.556(2) 0.242(2) 0.333(2)
Cu5_10 Cu 0.702663(19) 0.484101(18) 0.353879(18)
O8_10 O 0.52115(10) 0.69413(11) 0.39076(11)
O10_10 O 0.67202(11) 0.55523(10) 0.37149(11)
O11_10 O 0.67740(11) 0.53992(12) 0.23478(11)
H5_11 H 0.0135 0.4676 0.8446
O12_6 O 0.01702(13) 0.29217(12) 0.75486(12)
Cu2_11 Cu 0.883052(17) 0.443692(18) 0.785977(19)
N1_11 N 0.91168(14) 0.32966(13) 0.77603(14)
N2_11 N 0.86941(13) 0.36500(13) 0.77425(15)
O1_11 O 0.89076(11) 0.52115(10) 0.80587(11)
O3_11 O 0.95166(10) 0.42269(11) 0.81744(12)
O4_11 O 0.96008(12) 0.73478(11) 0.67740(11)
O5_6 O 0.98298(13) 0.79217(12) 0.74514(12)
O6_11 O 0.92498(17) 0.54237(13) 0.72391(13)
O7_11 O 0.91850(19) 0.74786(15) 0.93143(14)
C1_11 C 0.91754(16) 0.61340(15) 0.78993(15)
C2_11 C 0.90590(16) 0.62936(16) 0.84323(15)
C3_11 C 0.96477(15) 0.74770(16) 0.72726(15)
C4_11 C 0.91467(16) 0.68340(16) 0.85899(15)
C5_11 C 0.94588(16) 0.70599(15) 0.76843(15)
C6_11 C 0.93580(17) 0.72134(17) 0.82159(16)
C7_11 C 0.93662(16) 0.65224(16) 0.75240(16)
C8_11 C 0.91054(17) 0.55491(15) 0.77082(17)
C9_11 C 0.8232(2) 0.3360(2) 0.7697(2)
H1_11 H 0.7883 0.3506 0.7677
C10_11 C 0.90111(18) 0.70305(16) 0.91594(16)
C11_11 C 0.8356(2) 0.2809(2) 0.7687(3)
H2_11 H 0.8114 0.2518 0.7659
C12_11 C 0.8914(2) 0.27878(18) 0.7727(2)
H3_11 H 0.9121 0.2469 0.7730
C13_11 C 0.9778(4) 0.4576(4) 0.8574(4)
H4_11 H 0.9563 0.4899 0.8627
H6_11 H 0.9811 0.4384 0.8914
H7_11 H 0.8921(16) 0.6064(17) 0.8660(17)
H8_11 H 0.9409(16) 0.6426(16) 0.7144(17)
H9_11 H 0.944(2) 0.758(2) 0.833(2)
Cu5_11 Cu 0.797337(19) 0.515899(18) 0.853879(18)
O8_11 O 0.97885(10) 0.30587(11) 0.89076(11)
O10_11 O 0.82798(11) 0.44477(10) 0.87149(11)
O11_11 O 0.82260(11) 0.46008(12) 0.73478(11)
O1_12 O 0.10924(11) 0.02115(10) 0.69413(11)
O4_12 O 0.03992(12) 0.23478(11) 0.82260(11)
O6_12 O 0.07502(17) 0.04237(13) 0.77609(13)
O7_12 O 0.08150(19) 0.24786(15) 0.56857(14)
C1_12 C 0.08246(16) 0.11340(15) 0.71007(15)
C2_12 C 0.09410(16) 0.12936(16) 0.65677(15)
C3_12 C 0.03523(15) 0.24770(16) 0.77274(15)
C4_12 C 0.08533(16) 0.18340(16) 0.64101(15)
C5_12 C 0.05412(16) 0.20599(15) 0.73157(15)
C6_12 C 0.06420(17) 0.22134(17) 0.67841(16)
C7_12 C 0.06338(16) 0.15224(16) 0.74760(16)
C8_12 C 0.08946(17) 0.05491(15) 0.72918(17)
C10_12 C 0.09889(18) 0.20305(16) 0.58406(16)
H7_12 H 0.1079(16) 0.1064(17) 0.6340(17)
H8_12 H 0.0591(16) 0.1426(16) 0.7856(17)
H9_12 H 0.056(2) 0.258(2) 0.667(2)
Cu5_12 Cu 0.202663(19) 0.015899(18) 0.646121(18)
Cu2_12 Cu 0.116948(17) 0.943692(18) 0.714023(19)
N1_12 N 0.08832(14) 0.82966(13) 0.72397(14)
N2_12 N 0.13059(13) 0.86500(13) 0.72575(15)
O3_12 O 0.04834(10) 0.92269(11) 0.68256(12)
C9_12 C 0.1768(2) 0.8360(2) 0.7303(2)
H1_12 H 0.2117 0.8506 0.7323
C11_12 C 0.1644(2) 0.7809(2) 0.7313(3)
H2_12 H 0.1886 0.7518 0.7341
C12_12 C 0.1086(2) 0.77878(18) 0.7273(2)
H3_12 H 0.0879 0.7469 0.7270
C13_12 C 0.0222(4) 0.9576(4) 0.6426(4)
H4_12 H 0.0437 0.9899 0.6373
H6_12 H 0.0189 0.9384 0.6086
O8_12 O 0.02115(10) 0.80587(11) 0.60924(11)
O10_12 O 0.17202(11) 0.94477(10) 0.62851(11)
O11_12 O 0.17740(11) 0.96008(12) 0.76522(11)
H5_12 H 0.9865 0.9676 0.6554
O5_7 O 0.74514(12) 0.51702(13) 0.29217(12)
O6_13 O 0.72391(13) 0.57502(17) 0.04237(13)
O7_13 O 0.93143(14) 0.58150(19) 0.24786(15)
C1_13 C 0.78993(15) 0.58246(16) 0.11340(15)
C2_13 C 0.84323(15) 0.59410(16) 0.12936(16)
C3_13 C 0.72726(15) 0.53523(15) 0.24770(16)
C4_13 C 0.85899(15) 0.58533(16) 0.18340(16)
C5_13 C 0.76843(15) 0.55412(16) 0.20599(15)
C6_13 C 0.82159(16) 0.56420(17) 0.22134(17)
C7_13 C 0.75240(16) 0.56338(16) 0.15224(16)
C8_13 C 0.77082(17) 0.58946(17) 0.05491(15)
C10_13 C 0.91594(16) 0.59889(18) 0.20305(16)
H7_13 H 0.8660(17) 0.6079(16) 0.1064(17)
H8_13 H 0.7144(17) 0.5591(16) 0.1426(16)
H9_13 H 0.833(2) 0.556(2) 0.258(2)
N1_13 N 0.77603(14) 0.58832(14) 0.82966(13)
N2_13 N 0.77425(15) 0.63059(13) 0.86500(13)
O3_13 O 0.81744(12) 0.54834(10) 0.92269(11)
C9_13 C 0.7697(2) 0.6768(2) 0.8360(2)
H1_13 H 0.7677 0.7117 0.8506
C11_13 C 0.7687(3) 0.6644(2) 0.7809(2)
H2_13 H 0.7659 0.6886 0.7518
C12_13 C 0.7727(2) 0.6086(2) 0.77878(18)
H3_13 H 0.7730 0.5879 0.7469
C13_13 C 0.8574(4) 0.5222(4) 0.9576(4)
H4_13 H 0.8627 0.5437 0.9899
H5_13 H 0.8446 0.4865 0.9676
H6_13 H 0.8914 0.5189 0.9384
O12_7 O 0.75486(12) 0.48298(13) 0.79217(12)
N1_14 N 0.72397(14) 0.41168(14) 0.32966(13)
N2_14 N 0.72575(15) 0.36941(13) 0.36500(13)
O3_14 O 0.68256(12) 0.45166(10) 0.42269(11)
O6_14 O 0.77609(13) 0.42498(17) 0.54237(13)
O7_14 O 0.56857(14) 0.41850(19) 0.74786(15)
C1_14 C 0.71007(15) 0.41754(16) 0.61340(15)
C2_14 C 0.65677(15) 0.40590(16) 0.62936(16)
C3_14 C 0.77274(15) 0.46477(15) 0.74770(16)
C4_14 C 0.64101(15) 0.41467(16) 0.68340(16)
C5_14 C 0.73157(15) 0.44588(16) 0.70599(15)
C6_14 C 0.67841(16) 0.43580(17) 0.72134(17)
C7_14 C 0.74760(16) 0.43662(16) 0.65224(16)
C8_14 C 0.72918(17) 0.41054(17) 0.55491(15)
C9_14 C 0.7303(2) 0.3232(2) 0.3360(2)
H1_14 H 0.7323 0.2883 0.3506
C10_14 C 0.58406(16) 0.40111(18) 0.70305(16)
C11_14 C 0.7313(3) 0.3356(2) 0.2809(2)
H2_14 H 0.7341 0.3114 0.2518
C12_14 C 0.7273(2) 0.3914(2) 0.27878(18)
H3_14 H 0.7270 0.4121 0.2469
C13_14 C 0.6426(4) 0.4778(4) 0.4576(4)
H4_14 H 0.6373 0.4563 0.4899
H5_14 H 0.6554 0.5135 0.4676
H6_14 H 0.6086 0.4811 0.4384
H7_14 H 0.6340(17) 0.3921(16) 0.6064(17)
H8_14 H 0.7856(17) 0.4409(16) 0.6426(16)
H9_14 H 0.667(2) 0.444(2) 0.758(2)
N1_15 N 0.22397(14) 0.08832(14) 0.67034(13)
N2_15 N 0.22575(15) 0.13059(13) 0.63500(13)
O3_15 O 0.18256(12) 0.04834(10) 0.57731(11)
O5_8 O 0.25486(12) 0.01702(13) 0.20783(12)
O6_15 O 0.27609(13) 0.07502(17) 0.45763(13)
O7_15 O 0.06857(14) 0.08150(19) 0.25214(15)
C1_15 C 0.21007(15) 0.08246(16) 0.38660(15)
C2_15 C 0.15677(15) 0.09410(16) 0.37064(16)
C3_15 C 0.27274(15) 0.03523(15) 0.25230(16)
C4_15 C 0.14101(15) 0.08533(16) 0.31660(16)
C5_15 C 0.23157(15) 0.05412(16) 0.29401(15)
C6_15 C 0.17841(16) 0.06420(17) 0.27866(17)
C7_15 C 0.24760(16) 0.06338(16) 0.34776(16)
C8_15 C 0.22918(17) 0.08946(17) 0.44509(15)
C9_15 C 0.2303(2) 0.1768(2) 0.6640(2)
H1_15 H 0.2323 0.2117 0.6494
C10_15 C 0.08406(16) 0.09889(18) 0.29695(16)
C11_15 C 0.2313(3) 0.1644(2) 0.7191(2)
H2_15 H 0.2341 0.1886 0.7482
C12_15 C 0.2273(2) 0.1086(2) 0.72122(18)
H3_15 H 0.2270 0.0879 0.7531
C13_15 C 0.1426(4) 0.0222(4) 0.5424(4)
H4_15 H 0.1373 0.0437 0.5101
H6_15 H 0.1086 0.0189 0.5616
H7_15 H 0.1340(17) 0.1079(16) 0.3936(17)
H8_15 H 0.2856(17) 0.0591(16) 0.3574(16)
H9_15 H 0.167(2) 0.056(2) 0.242(2)
H5_15 H 0.1554 0.9865 0.5324
O12_8 O 0.24514(12) 0.98298(13) 0.70783(12)
H5_16 H 0.3446 0.0135 0.0324
N1_16 N 0.27603(14) 0.91168(14) 0.17034(13)
N2_16 N 0.27425(15) 0.86941(13) 0.13500(13)
O3_16 O 0.31744(12) 0.95166(10) 0.07731(11)
C9_16 C 0.2697(2) 0.8232(2) 0.1640(2)
H1_16 H 0.2677 0.7883 0.1494
C11_16 C 0.2687(3) 0.8356(2) 0.2191(2)
H2_16 H 0.2659 0.8114 0.2482
C12_16 C 0.2727(2) 0.8914(2) 0.22122(18)
H3_16 H 0.2730 0.9121 0.2531
C13_16 C 0.3574(4) 0.9778(4) 0.0424(4)
H4_16 H 0.3627 0.9563 0.0101
H6_16 H 0.3914 0.9811 0.0616
O6_16 O 0.22391(13) 0.92498(17) 0.95763(13)
O7_16 O 0.43143(14) 0.91850(19) 0.75214(15)
C1_16 C 0.28993(15) 0.91754(16) 0.88660(15)
C2_16 C 0.34323(15) 0.90590(16) 0.87064(16)
C3_16 C 0.22726(15) 0.96477(15) 0.75230(16)
C4_16 C 0.35899(15) 0.91467(16) 0.81660(16)
C5_16 C 0.26843(15) 0.94588(16) 0.79401(15)
C6_16 C 0.32159(16) 0.93580(17) 0.77866(17)
C7_16 C 0.25240(16) 0.93662(16) 0.84776(16)
C8_16 C 0.27082(17) 0.91054(17) 0.94509(15)
C10_16 C 0.41594(16) 0.90111(18) 0.79695(16)
H7_16 H 0.3660(17) 0.8921(16) 0.8936(17)
H8_16 H 0.2144(17) 0.9409(16) 0.8574(16)
H9_16 H 0.333(2) 0.944(2) 0.742(2)
O5_9 O 0.29217(12) 0.74514(12) 0.51702(13)
O6_17 O 0.04237(13) 0.72391(13) 0.57502(17)
O7_17 O 0.24786(15) 0.93143(14) 0.58150(19)
C1_17 C 0.11340(15) 0.78993(15) 0.58246(16)
C2_17 C 0.12936(16) 0.84323(15) 0.59410(16)
C3_17 C 0.24770(16) 0.72726(15) 0.53523(15)
C4_17 C 0.18340(16) 0.85899(15) 0.58533(16)
C5_17 C 0.20599(15) 0.76843(15) 0.55412(16)
C6_17 C 0.22134(17) 0.82159(16) 0.56420(17)
C7_17 C 0.15224(16) 0.75240(16) 0.56338(16)
C8_17 C 0.05491(15) 0.77082(17) 0.58946(17)
C10_17 C 0.20305(16) 0.91594(16) 0.59889(18)
H7_17 H 0.1064(17) 0.8660(17) 0.6079(16)
H8_17 H 0.1426(16) 0.7144(17) 0.5591(16)
H9_17 H 0.258(2) 0.833(2) 0.556(2)
N1_17 N 0.82966(13) 0.77603(14) 0.58832(14)
N2_17 N 0.86500(13) 0.77425(15) 0.63059(13)
O3_17 O 0.92269(11) 0.81744(12) 0.54834(10)
C9_17 C 0.8360(2) 0.7697(2) 0.6768(2)
H1_17 H 0.8506 0.7677 0.7117
C11_17 C 0.7809(2) 0.7687(3) 0.6644(2)
H2_17 H 0.7518 0.7659 0.6886
C12_17 C 0.77878(18) 0.7727(2) 0.6086(2)
H3_17 H 0.7469 0.7730 0.5879
C13_17 C 0.9576(4) 0.8574(4) 0.5222(4)
H4_17 H 0.9899 0.8627 0.5437
H5_17 H 0.9676 0.8446 0.4865
H6_17 H 0.9384 0.8914 0.5189
O12_9 O 0.79217(12) 0.75486(12) 0.48298(13)
N1_18 N 0.32966(13) 0.72397(14) 0.41168(14)
N2_18 N 0.36500(13) 0.72575(15) 0.36941(13)
O3_18 O 0.42269(11) 0.68256(12) 0.45166(10)
O6_18 O 0.54237(13) 0.77609(13) 0.42498(17)
O7_18 O 0.74786(15) 0.56857(14) 0.41850(19)
C1_18 C 0.61340(15) 0.71007(15) 0.41754(16)
C2_18 C 0.62936(16) 0.65677(15) 0.40590(16)
C3_18 C 0.74770(16) 0.77274(15) 0.46477(15)
C4_18 C 0.68340(16) 0.64101(15) 0.41467(16)
C5_18 C 0.70599(15) 0.73157(15) 0.44588(16)
C6_18 C 0.72134(17) 0.67841(16) 0.43580(17)
C7_18 C 0.65224(16) 0.74760(16) 0.43662(16)
C8_18 C 0.55491(15) 0.72918(17) 0.41054(17)
C9_18 C 0.3360(2) 0.7303(2) 0.3232(2)
H1_18 H 0.3506 0.7323 0.2883
C10_18 C 0.70305(16) 0.58406(16) 0.40111(18)
C11_18 C 0.2809(2) 0.7313(3) 0.3356(2)
H2_18 H 0.2518 0.7341 0.3114
C12_18 C 0.27878(18) 0.7273(2) 0.3914(2)
H3_18 H 0.2469 0.7270 0.4121
C13_18 C 0.4576(4) 0.6426(4) 0.4778(4)
H4_18 H 0.4899 0.6373 0.4563
H5_18 H 0.4676 0.6554 0.5135
H6_18 H 0.4384 0.6086 0.4811
H7_18 H 0.6064(17) 0.6340(17) 0.3921(16)
H8_18 H 0.6426(16) 0.7856(17) 0.4409(16)
H9_18 H 0.758(2) 0.667(2) 0.444(2)
N1_19 N 0.67034(13) 0.22397(14) 0.08832(14)
N2_19 N 0.63500(13) 0.22575(15) 0.13059(13)
O3_19 O 0.57731(11) 0.18256(12) 0.04834(10)
O5_10 O 0.20783(12) 0.25486(12) 0.01702(13)
O6_19 O 0.45763(13) 0.27609(13) 0.07502(17)
O7_19 O 0.25214(15) 0.06857(14) 0.08150(19)
C1_19 C 0.38660(15) 0.21007(15) 0.08246(16)
C2_19 C 0.37064(16) 0.15677(15) 0.09410(16)
C3_19 C 0.25230(16) 0.27274(15) 0.03523(15)
C4_19 C 0.31660(16) 0.14101(15) 0.08533(16)
C5_19 C 0.29401(15) 0.23157(15) 0.05412(16)
C6_19 C 0.27866(17) 0.17841(16) 0.06420(17)
C7_19 C 0.34776(16) 0.24760(16) 0.06338(16)
C8_19 C 0.44509(15) 0.22918(17) 0.08946(17)
C9_19 C 0.6640(2) 0.2303(2) 0.1768(2)
H1_19 H 0.6494 0.2323 0.2117
C10_19 C 0.29695(16) 0.08406(16) 0.09889(18)
C11_19 C 0.7191(2) 0.2313(3) 0.1644(2)
H2_19 H 0.7482 0.2341 0.1886
C12_19 C 0.72122(18) 0.2273(2) 0.1086(2)
H3_19 H 0.7531 0.2270 0.0879
C13_19 C 0.5424(4) 0.1426(4) 0.0222(4)
H4_19 H 0.5101 0.1373 0.0437
H6_19 H 0.5616 0.1086 0.0189
H7_19 H 0.3936(17) 0.1340(17) 0.1079(16)
H8_19 H 0.3574(16) 0.2856(17) 0.0591(16)
H9_19 H 0.242(2) 0.167(2) 0.056(2)
H5_19 H 0.5324 0.1554 0.9865
O12_10 O 0.70783(12) 0.24514(12) 0.98298(13)
H5_20 H 0.0324 0.3446 0.0135
N1_20 N 0.17034(13) 0.27603(14) 0.91168(14)
N2_20 N 0.13500(13) 0.27425(15) 0.86941(13)
O3_20 O 0.07731(11) 0.31744(12) 0.95166(10)
C9_20 C 0.1640(2) 0.2697(2) 0.8232(2)
H1_20 H 0.1494 0.2677 0.7883
C11_20 C 0.2191(2) 0.2687(3) 0.8356(2)
H2_20 H 0.2482 0.2659 0.8114
C12_20 C 0.22122(18) 0.2727(2) 0.8914(2)
H3_20 H 0.2531 0.2730 0.9121
C13_20 C 0.0424(4) 0.3574(4) 0.9778(4)
H4_20 H 0.0101 0.3627 0.9563
H6_20 H 0.0616 0.3914 0.9811
O6_20 O 0.95763(13) 0.22391(13) 0.92498(17)
O7_20 O 0.75214(15) 0.43143(14) 0.91850(19)
C1_20 C 0.88660(15) 0.28993(15) 0.91754(16)
C2_20 C 0.87064(16) 0.34323(15) 0.90590(16)
C3_20 C 0.75230(16) 0.22726(15) 0.96477(15)
C4_20 C 0.81660(16) 0.35899(15) 0.91467(16)
C5_20 C 0.79401(15) 0.26843(15) 0.94588(16)
C6_20 C 0.77866(17) 0.32159(16) 0.93580(17)
C7_20 C 0.84776(16) 0.25240(16) 0.93662(16)
C8_20 C 0.94509(15) 0.27082(17) 0.91054(17)
C10_20 C 0.79695(16) 0.41594(16) 0.90111(18)
H7_20 H 0.8936(17) 0.3660(17) 0.8921(16)
H8_20 H 0.8574(16) 0.2144(17) 0.9409(16)
H9_20 H 0.742(2) 0.333(2) 0.944(2)
O5_11 O 0.51702(13) 0.29217(12) 0.74514(12)
O6_21 O 0.57502(17) 0.04237(13) 0.72391(13)
O7_21 O 0.58150(19) 0.24786(15) 0.93143(14)
C1_21 C 0.58246(16) 0.11340(15) 0.78993(15)
C2_21 C 0.59410(16) 0.12936(16) 0.84323(15)
C3_21 C 0.53523(15) 0.24770(16) 0.72726(15)
C4_21 C 0.58533(16) 0.18340(16) 0.85899(15)
C5_21 C 0.55412(16) 0.20599(15) 0.76843(15)
C6_21 C 0.56420(17) 0.22134(17) 0.82159(16)
C7_21 C 0.56338(16) 0.15224(16) 0.75240(16)
C8_21 C 0.58946(17) 0.05491(15) 0.77082(17)
C10_21 C 0.59889(18) 0.20305(16) 0.91594(16)
H7_21 H 0.6079(16) 0.1064(17) 0.8660(17)
H8_21 H 0.5591(16) 0.1426(16) 0.7144(17)
H9_21 H 0.556(2) 0.258(2) 0.833(2)
N1_21 N 0.58832(14) 0.82966(13) 0.77603(14)
N2_21 N 0.63059(13) 0.86500(13) 0.77425(15)
O3_21 O 0.54834(10) 0.92269(11) 0.81744(12)
C9_21 C 0.6768(2) 0.8360(2) 0.7697(2)
H1_21 H 0.7117 0.8506 0.7677
C11_21 C 0.6644(2) 0.7809(2) 0.7687(3)
H2_21 H 0.6886 0.7518 0.7659
C12_21 C 0.6086(2) 0.77878(18) 0.7727(2)
H3_21 H 0.5879 0.7469 0.7730
C13_21 C 0.5222(4) 0.9576(4) 0.8574(4)
H4_21 H 0.5437 0.9899 0.8627
H5_21 H 0.4865 0.9676 0.8446
H6_21 H 0.5189 0.9384 0.8914
O12_11 O 0.48298(13) 0.79217(12) 0.75486(12)
N1_22 N 0.41168(14) 0.32966(13) 0.72397(14)
N2_22 N 0.36941(13) 0.36500(13) 0.72575(15)
O3_22 O 0.45166(10) 0.42269(11) 0.68256(12)
O6_22 O 0.42498(17) 0.54237(13) 0.77609(13)
O7_22 O 0.41850(19) 0.74786(15) 0.56857(14)
C1_22 C 0.41754(16) 0.61340(15) 0.71007(15)
C2_22 C 0.40590(16) 0.62936(16) 0.65677(15)
C3_22 C 0.46477(15) 0.74770(16) 0.77274(15)
C4_22 C 0.41467(16) 0.68340(16) 0.64101(15)
C5_22 C 0.44588(16) 0.70599(15) 0.73157(15)
C6_22 C 0.43580(17) 0.72134(17) 0.67841(16)
C7_22 C 0.43662(16) 0.65224(16) 0.74760(16)
C8_22 C 0.41054(17) 0.55491(15) 0.72918(17)
C9_22 C 0.3232(2) 0.3360(2) 0.7303(2)
H1_22 H 0.2883 0.3506 0.7323
C10_22 C 0.40111(18) 0.70305(16) 0.58406(16)
C11_22 C 0.3356(2) 0.2809(2) 0.7313(3)
H2_22 H 0.3114 0.2518 0.7341
C12_22 C 0.3914(2) 0.27878(18) 0.7273(2)
H3_22 H 0.4121 0.2469 0.7270
C13_22 C 0.4778(4) 0.4576(4) 0.6426(4)
H4_22 H 0.4563 0.4899 0.6373
H5_22 H 0.5135 0.4676 0.6554
H6_22 H 0.4811 0.4384 0.6086
H7_22 H 0.3921(16) 0.6064(17) 0.6340(17)
H8_22 H 0.4409(16) 0.6426(16) 0.7856(17)
H9_22 H 0.444(2) 0.758(2) 0.667(2)
N1_23 N 0.08832(14) 0.67034(13) 0.22397(14)
N2_23 N 0.13059(13) 0.63500(13) 0.22575(15)
O3_23 O 0.04834(10) 0.57731(11) 0.18256(12)
O5_12 O 0.01702(13) 0.20783(12) 0.25486(12)
O6_23 O 0.07502(17) 0.45763(13) 0.27609(13)
O7_23 O 0.08150(19) 0.25214(15) 0.06857(14)
C1_23 C 0.08246(16) 0.38660(15) 0.21007(15)
C2_23 C 0.09410(16) 0.37064(16) 0.15677(15)
C3_23 C 0.03523(15) 0.25230(16) 0.27274(15)
C4_23 C 0.08533(16) 0.31660(16) 0.14101(15)
C5_23 C 0.05412(16) 0.29401(15) 0.23157(15)
C6_23 C 0.06420(17) 0.27866(17) 0.17841(16)
C7_23 C 0.06338(16) 0.34776(16) 0.24760(16)
C8_23 C 0.08946(17) 0.44509(15) 0.22918(17)
C9_23 C 0.1768(2) 0.6640(2) 0.2303(2)
H1_23 H 0.2117 0.6494 0.2323
C10_23 C 0.09889(18) 0.29695(16) 0.08406(16)
C11_23 C 0.1644(2) 0.7191(2) 0.2313(3)
H2_23 H 0.1886 0.7482 0.2341
C12_23 C 0.1086(2) 0.72122(18) 0.2273(2)
H3_23 H 0.0879 0.7531 0.2270
C13_23 C 0.0222(4) 0.5424(4) 0.1426(4)
H4_23 H 0.0437 0.5101 0.1373
H6_23 H 0.0189 0.5616 0.1086
H7_23 H 0.1079(16) 0.3936(17) 0.1340(17)
H8_23 H 0.0591(16) 0.3574(16) 0.2856(17)
H9_23 H 0.056(2) 0.242(2) 0.167(2)
H5_23 H 0.9865 0.5324 0.1554
O12_12 O 0.98298(13) 0.70783(12) 0.24514(12)
H5_24 H 0.0135 0.0324 0.3446
N1_24 N 0.91168(14) 0.17034(13) 0.27603(14)
N2_24 N 0.86941(13) 0.13500(13) 0.27425(15)
O3_24 O 0.95166(10) 0.07731(11) 0.31744(12)
C9_24 C 0.8232(2) 0.1640(2) 0.2697(2)
H1_24 H 0.7883 0.1494 0.2677
C11_24 C 0.8356(2) 0.2191(2) 0.2687(3)
H2_24 H 0.8114 0.2482 0.2659
C12_24 C 0.8914(2) 0.22122(18) 0.2727(2)
H3_24 H 0.9121 0.2531 0.2730
C13_24 C 0.9778(4) 0.0424(4) 0.3574(4)
H4_24 H 0.9563 0.0101 0.3627
H6_24 H 0.9811 0.0616 0.3914
O6_24 O 0.92498(17) 0.95763(13) 0.22391(13)
O7_24 O 0.91850(19) 0.75214(15) 0.43143(14)
C1_24 C 0.91754(16) 0.88660(15) 0.28993(15)
C2_24 C 0.90590(16) 0.87064(16) 0.34323(15)
C3_24 C 0.96477(15) 0.75230(16) 0.22726(15)
C4_24 C 0.91467(16) 0.81660(16) 0.35899(15)
C5_24 C 0.94588(16) 0.79401(15) 0.26843(15)
C6_24 C 0.93580(17) 0.77866(17) 0.32159(16)
C7_24 C 0.93662(16) 0.84776(16) 0.25240(16)
C8_24 C 0.91054(17) 0.94509(15) 0.27082(17)
C10_24 C 0.90111(18) 0.79695(16) 0.41594(16)
H7_24 H 0.8921(16) 0.8936(17) 0.3660(17)
H8_24 H 0.9409(16) 0.8574(16) 0.2144(17)
H9_24 H 0.944(2) 0.742(2) 0.333(2)
N3 N 0.4121(3) 0.3422(3) 0.9054(2)
C14 C 0.4608(4) 0.3219(5) 0.8776(5)
H10 H 0.4893 0.3162 0.9038
H11 H 0.4725 0.3482 0.8510
H12 H 0.4524 0.2881 0.8597
C15 C 0.3718(5) 0.3532(7) 0.8652(5)
H13 H 0.3389 0.3654 0.8826
H14 H 0.3645 0.3205 0.8448
H15 H 0.3848 0.3811 0.8409
C16 C 0.3922(7) 0.3063(9) 0.9434(7)
H16 H 0.3606 0.3217 0.9607
H17 H 0.4198 0.2993 0.9704
H18 H 0.3824 0.2727 0.9258
C17 C 0.4205(9) 0.3897(9) 0.9324(10)
H19 H 0.3876 0.4001 0.9511
H20 H 0.4303 0.4177 0.9068
H21 H 0.4494 0.3850 0.9584
N3_2 N 0.0879(3) 0.6578(3) 0.4054(2)
C14_2 C 0.0392(4) 0.6781(5) 0.3776(5)
H10_2 H 0.0107 0.6838 0.4038
H11_2 H 0.0275 0.6518 0.3510
H12_2 H 0.0476 0.7119 0.3597
C15_2 C 0.1282(5) 0.6468(7) 0.3652(5)
H13_2 H 0.1611 0.6346 0.3826
H14_2 H 0.1355 0.6795 0.3448
H15_2 H 0.1152 0.6189 0.3409
C16_2 C 0.1078(7) 0.6937(9) 0.4434(7)
H16_2 H 0.1394 0.6783 0.4607
H17_2 H 0.0802 0.7007 0.4704
H18_2 H 0.1176 0.7273 0.4258
C17_2 C 0.0795(9) 0.6103(9) 0.4324(10)
H19_2 H 0.1124 0.5999 0.4511
H20_2 H 0.0697 0.5823 0.4068
H21_2 H 0.0506 0.6150 0.4584
N3_3 N 0.5879(3) 0.8422(3) 0.5946(2)
C14_3 C 0.5392(4) 0.8219(5) 0.6224(5)
H10_3 H 0.5107 0.8162 0.5962
H11_3 H 0.5275 0.8482 0.6490
H12_3 H 0.5476 0.7881 0.6403
C15_3 C 0.6282(5) 0.8532(7) 0.6348(5)
H13_3 H 0.6611 0.8654 0.6174
H14_3 H 0.6355 0.8205 0.6552
H15_3 H 0.6152 0.8811 0.6591
C16_3 C 0.6078(7) 0.8063(9) 0.5566(7)
H16_3 H 0.6394 0.8217 0.5393
H17_3 H 0.5802 0.7993 0.5296
H18_3 H 0.6176 0.7727 0.5742
C17_3 C 0.5795(9) 0.8897(9) 0.5676(10)
H19_3 H 0.6124 0.9001 0.5489
H20_3 H 0.5697 0.9177 0.5932
H21_3 H 0.5506 0.8850 0.5416
N3_4 N 0.9121(3) 0.1578(3) 0.0946(2)
C14_4 C 0.9608(4) 0.1781(5) 0.1224(5)
H10_4 H 0.9893 0.1838 0.0962
H11_4 H 0.9725 0.1518 0.1490
H12_4 H 0.9524 0.2119 0.1403
C15_4 C 0.8718(5) 0.1468(7) 0.1348(5)
H13_4 H 0.8389 0.1346 0.1174
H14_4 H 0.8645 0.1795 0.1552
H15_4 H 0.8848 0.1189 0.1591
C16_4 C 0.8922(7) 0.1937(9) 0.0566(7)
H16_4 H 0.8606 0.1783 0.0393
H17_4 H 0.9198 0.2007 0.0296
H18_4 H 0.8824 0.2273 0.0742
C17_4 C 0.9205(9) 0.1103(9) 0.0676(10)
H19_4 H 0.8876 0.0999 0.0489
H20_4 H 0.9303 0.0823 0.0932
H21_4 H 0.9494 0.1150 0.0416
N3_5 N 0.9054(2) 0.4121(3) 0.3422(3)
C14_5 C 0.8776(5) 0.4608(4) 0.3219(5)
H10_5 H 0.9038 0.4893 0.3162
H11_5 H 0.8510 0.4725 0.3482
H12_5 H 0.8597 0.4524 0.2881
C15_5 C 0.8652(5) 0.3718(5) 0.3532(7)
H13_5 H 0.8826 0.3389 0.3654
H14_5 H 0.8448 0.3645 0.3205
H15_5 H 0.8409 0.3848 0.3811
C16_5 C 0.9434(7) 0.3922(7) 0.3063(9)
H16_5 H 0.9607 0.3606 0.3217
H17_5 H 0.9704 0.4198 0.2993
H18_5 H 0.9258 0.3824 0.2727
C17_5 C 0.9324(10) 0.4205(9) 0.3897(9)
H19_5 H 0.9511 0.3876 0.4001
H20_5 H 0.9068 0.4303 0.4177
H21_5 H 0.9584 0.4494 0.3850
N3_6 N 0.4054(2) 0.0879(3) 0.6578(3)
C14_6 C 0.3776(5) 0.0392(4) 0.6781(5)
H10_6 H 0.4038 0.0107 0.6838
H11_6 H 0.3510 0.0275 0.6518
H12_6 H 0.3597 0.0476 0.7119
C15_6 C 0.3652(5) 0.1282(5) 0.6468(7)
H13_6 H 0.3826 0.1611 0.6346
H14_6 H 0.3448 0.1355 0.6795
H15_6 H 0.3409 0.1152 0.6189
C16_6 C 0.4434(7) 0.1078(7) 0.6937(9)
H16_6 H 0.4607 0.1394 0.6783
H17_6 H 0.4704 0.0802 0.7007
H18_6 H 0.4258 0.1176 0.7273
C17_6 C 0.4324(10) 0.0795(9) 0.6103(9)
H19_6 H 0.4511 0.1124 0.5999
H20_6 H 0.4068 0.0697 0.5823
H21_6 H 0.4584 0.0506 0.6150
N3_7 N 0.5946(2) 0.5879(3) 0.8422(3)
C14_7 C 0.6224(5) 0.5392(4) 0.8219(5)
H10_7 H 0.5962 0.5107 0.8162
H11_7 H 0.6490 0.5275 0.8482
H12_7 H 0.6403 0.5476 0.7881
C15_7 C 0.6348(5) 0.6282(5) 0.8532(7)
H13_7 H 0.6174 0.6611 0.8654
H14_7 H 0.6552 0.6355 0.8205
H15_7 H 0.6591 0.6152 0.8811
C16_7 C 0.5566(7) 0.6078(7) 0.8063(9)
H16_7 H 0.5393 0.6394 0.8217
H17_7 H 0.5296 0.5802 0.7993
H18_7 H 0.5742 0.6176 0.7727
C17_7 C 0.5676(10) 0.5795(9) 0.8897(9)
H19_7 H 0.5489 0.6124 0.9001
H20_7 H 0.5932 0.5697 0.9177
H21_7 H 0.5416 0.5506 0.8850
N3_8 N 0.0946(2) 0.9121(3) 0.1578(3)
C14_8 C 0.1224(5) 0.9608(4) 0.1781(5)
H10_8 H 0.0962 0.9893 0.1838
H11_8 H 0.1490 0.9725 0.1518
H12_8 H 0.1403 0.9524 0.2119
C15_8 C 0.1348(5) 0.8718(5) 0.1468(7)
H13_8 H 0.1174 0.8389 0.1346
H14_8 H 0.1552 0.8645 0.1795
H15_8 H 0.1591 0.8848 0.1189
C16_8 C 0.0566(7) 0.8922(7) 0.1937(9)
H16_8 H 0.0393 0.8606 0.1783
H17_8 H 0.0296 0.9198 0.2007
H18_8 H 0.0742 0.8824 0.2273
C17_8 C 0.0676(10) 0.9205(9) 0.1103(9)
H19_8 H 0.0489 0.8876 0.0999
H20_8 H 0.0932 0.9303 0.0823
H21_8 H 0.0416 0.9494 0.1150
N3_9 N 0.3422(3) 0.9054(2) 0.4121(3)
C14_9 C 0.3219(5) 0.8776(5) 0.4608(4)
H10_9 H 0.3162 0.9038 0.4893
H11_9 H 0.3482 0.8510 0.4725
H12_9 H 0.2881 0.8597 0.4524
C15_9 C 0.3532(7) 0.8652(5) 0.3718(5)
H13_9 H 0.3654 0.8826 0.3389
H14_9 H 0.3205 0.8448 0.3645
H15_9 H 0.3811 0.8409 0.3848
C16_9 C 0.3063(9) 0.9434(7) 0.3922(7)
H16_9 H 0.3217 0.9607 0.3606
H17_9 H 0.2993 0.9704 0.4198
H18_9 H 0.2727 0.9258 0.3824
C17_9 C 0.3897(9) 0.9324(10) 0.4205(9)
H19_9 H 0.4001 0.9511 0.3876
H20_9 H 0.4177 0.9068 0.4303
H21_9 H 0.3850 0.9584 0.4494
N3_10 N 0.6578(3) 0.4054(2) 0.0879(3)
C14_10 C 0.6781(5) 0.3776(5) 0.0392(4)
H10_10 H 0.6838 0.4038 0.0107
H11_10 H 0.6518 0.3510 0.0275
H12_10 H 0.7119 0.3597 0.0476
C15_10 C 0.6468(7) 0.3652(5) 0.1282(5)
H13_10 H 0.6346 0.3826 0.1611
H14_10 H 0.6795 0.3448 0.1355
H15_10 H 0.6189 0.3409 0.1152
C16_10 C 0.6937(9) 0.4434(7) 0.1078(7)
H16_10 H 0.6783 0.4607 0.1394
H17_10 H 0.7007 0.4704 0.0802
H18_10 H 0.7273 0.4258 0.1176
C17_10 C 0.6103(9) 0.4324(10) 0.0795(9)
H19_10 H 0.5999 0.4511 0.1124
H20_10 H 0.5823 0.4068 0.0697
H21_10 H 0.6150 0.4584 0.0506
N3_11 N 0.8422(3) 0.5946(2) 0.5879(3)
C14_11 C 0.8219(5) 0.6224(5) 0.5392(4)
H10_11 H 0.8162 0.5962 0.5107
H11_11 H 0.8482 0.6490 0.5275
H12_11 H 0.7881 0.6403 0.5476
C15_11 C 0.8532(7) 0.6348(5) 0.6282(5)
H13_11 H 0.8654 0.6174 0.6611
H14_11 H 0.8205 0.6552 0.6355
H15_11 H 0.8811 0.6591 0.6152
C16_11 C 0.8063(9) 0.5566(7) 0.6078(7)
H16_11 H 0.8217 0.5393 0.6394
H17_11 H 0.7993 0.5296 0.5802
H18_11 H 0.7727 0.5742 0.6176
C17_11 C 0.8897(9) 0.5676(10) 0.5795(9)
H19_11 H 0.9001 0.5489 0.6124
H20_11 H 0.9177 0.5932 0.5697
H21_11 H 0.8850 0.5416 0.5506
N3_12 N 0.1578(3) 0.0946(2) 0.9121(3)
C14_12 C 0.1781(5) 0.1224(5) 0.9608(4)
H10_12 H 0.1838 0.0962 0.9893
H11_12 H 0.1518 0.1490 0.9725
H12_12 H 0.2119 0.1403 0.9524
C15_12 C 0.1468(7) 0.1348(5) 0.8718(5)
H13_12 H 0.1346 0.1174 0.8389
H14_12 H 0.1795 0.1552 0.8645
H15_12 H 0.1189 0.1591 0.8848
C16_12 C 0.1937(9) 0.0566(7) 0.8922(7)
H16_12 H 0.1783 0.0393 0.8606
H17_12 H 0.2007 0.0296 0.9198
H18_12 H 0.2273 0.0742 0.8824
C17_12 C 0.1103(9) 0.0676(10) 0.9205(9)
H19_12 H 0.0999 0.0489 0.8876
H20_12 H 0.0823 0.0932 0.9303
H21_12 H 0.1150 0.0416 0.9494
N3_13 N 0.5879(3) 0.6578(3) 0.0946(2)
C14_13 C 0.5392(4) 0.6781(5) 0.1224(5)
H10_13 H 0.5107 0.6838 0.0962
H11_13 H 0.5275 0.6518 0.1490
H12_13 H 0.5476 0.7119 0.1403
C15_13 C 0.6282(5) 0.6468(7) 0.1348(5)
H13_13 H 0.6611 0.6346 0.1174
H14_13 H 0.6355 0.6795 0.1552
H15_13 H 0.6152 0.6189 0.1591
C16_13 C 0.6078(7) 0.6937(9) 0.0566(7)
H16_13 H 0.6394 0.6783 0.0393
H17_13 H 0.5802 0.7007 0.0296
H18_13 H 0.6176 0.7273 0.0742
C17_13 C 0.5795(9) 0.6103(9) 0.0676(10)
H19_13 H 0.6124 0.5999 0.0489
H20_13 H 0.5697 0.5823 0.0932
H21_13 H 0.5506 0.6150 0.0416
N3_14 N 0.9121(3) 0.3422(3) 0.5946(2)
C14_14 C 0.9608(4) 0.3219(5) 0.6224(5)
H10_14 H 0.9893 0.3162 0.5962
H11_14 H 0.9725 0.3482 0.6490
H12_14 H 0.9524 0.2881 0.6403
C15_14 C 0.8718(5) 0.3532(7) 0.6348(5)
H13_14 H 0.8389 0.3654 0.6174
H14_14 H 0.8645 0.3205 0.6552
H15_14 H 0.8848 0.3811 0.6591
C16_14 C 0.8922(7) 0.3063(9) 0.5566(7)
H16_14 H 0.8606 0.3217 0.5393
H17_14 H 0.9198 0.2993 0.5296
H18_14 H 0.8824 0.2727 0.5742
C17_14 C 0.9205(9) 0.3897(9) 0.5676(10)
H19_14 H 0.8876 0.4001 0.5489
H20_14 H 0.9303 0.4177 0.5932
H21_14 H 0.9494 0.3850 0.5416
N3_15 N 0.4121(3) 0.1578(3) 0.4054(2)
C14_15 C 0.4608(4) 0.1781(5) 0.3776(5)
H10_15 H 0.4893 0.1838 0.4038
H11_15 H 0.4725 0.1518 0.3510
H12_15 H 0.4524 0.2119 0.3597
C15_15 C 0.3718(5) 0.1468(7) 0.3652(5)
H13_15 H 0.3389 0.1346 0.3826
H14_15 H 0.3645 0.1795 0.3448
H15_15 H 0.3848 0.1189 0.3409
C16_15 C 0.3922(7) 0.1937(9) 0.4434(7)
H16_15 H 0.3606 0.1783 0.4607
H17_15 H 0.4198 0.2007 0.4704
H18_15 H 0.3824 0.2273 0.4258
C17_15 C 0.4205(9) 0.1103(9) 0.4324(10)
H19_15 H 0.3876 0.0999 0.4511
H20_15 H 0.4303 0.0823 0.4068
H21_15 H 0.4494 0.1150 0.4584
N3_16 N 0.0879(3) 0.8422(3) 0.9054(2)
C14_16 C 0.0392(4) 0.8219(5) 0.8776(5)
H10_16 H 0.0107 0.8162 0.9038
H11_16 H 0.0275 0.8482 0.8510
H12_16 H 0.0476 0.7881 0.8597
C15_16 C 0.1282(5) 0.8532(7) 0.8652(5)
H13_16 H 0.1611 0.8654 0.8826
H14_16 H 0.1355 0.8205 0.8448
H15_16 H 0.1152 0.8811 0.8409
C16_16 C 0.1078(7) 0.8063(9) 0.9434(7)
H16_16 H 0.1394 0.8217 0.9607
H17_16 H 0.0802 0.7993 0.9704
H18_16 H 0.1176 0.7727 0.9258
C17_16 C 0.0795(9) 0.8897(9) 0.9324(10)
H19_16 H 0.1124 0.9001 0.9511
H20_16 H 0.0697 0.9177 0.9068
H21_16 H 0.0506 0.8850 0.9584
N3_17 N 0.0946(2) 0.5879(3) 0.6578(3)
C14_17 C 0.1224(5) 0.5392(4) 0.6781(5)
H10_17 H 0.0962 0.5107 0.6838
H11_17 H 0.1490 0.5275 0.6518
H12_17 H 0.1403 0.5476 0.7119
C15_17 C 0.1348(5) 0.6282(5) 0.6468(7)
H13_17 H 0.1174 0.6611 0.6346
H14_17 H 0.1552 0.6355 0.6795
H15_17 H 0.1591 0.6152 0.6189
C16_17 C 0.0566(7) 0.6078(7) 0.6937(9)
H16_17 H 0.0393 0.6394 0.6783
H17_17 H 0.0296 0.5802 0.7007
H18_17 H 0.0742 0.6176 0.7273
C17_17 C 0.0676(10) 0.5795(9) 0.6103(9)
H19_17 H 0.0489 0.6124 0.5999
H20_17 H 0.0932 0.5697 0.5823
H21_17 H 0.0416 0.5506 0.6150
N3_18 N 0.5946(2) 0.9121(3) 0.3422(3)
C14_18 C 0.6224(5) 0.9608(4) 0.3219(5)
H10_18 H 0.5962 0.9893 0.3162
H11_18 H 0.6490 0.9725 0.3482
H12_18 H 0.6403 0.9524 0.2881
C15_18 C 0.6348(5) 0.8718(5) 0.3532(7)
H13_18 H 0.6174 0.8389 0.3654
H14_18 H 0.6552 0.8645 0.3205
H15_18 H 0.6591 0.8848 0.3811
C16_18 C 0.5566(7) 0.8922(7) 0.3063(9)
H16_18 H 0.5393 0.8606 0.3217
H17_18 H 0.5296 0.9198 0.2993
H18_18 H 0.5742 0.8824 0.2727
C17_18 C 0.5676(10) 0.9205(9) 0.3897(9)
H19_18 H 0.5489 0.8876 0.4001
H20_18 H 0.5932 0.9303 0.4177
H21_18 H 0.5416 0.9494 0.3850
N3_19 N 0.4054(2) 0.4121(3) 0.1578(3)
C14_19 C 0.3776(5) 0.4608(4) 0.1781(5)
H10_19 H 0.4038 0.4893 0.1838
H11_19 H 0.3510 0.4725 0.1518
H12_19 H 0.3597 0.4524 0.2119
C15_19 C 0.3652(5) 0.3718(5) 0.1468(7)
H13_19 H 0.3826 0.3389 0.1346
H14_19 H 0.3448 0.3645 0.1795
H15_19 H 0.3409 0.3848 0.1189
C16_19 C 0.4434(7) 0.3922(7) 0.1937(9)
H16_19 H 0.4607 0.3606 0.1783
H17_19 H 0.4704 0.4198 0.2007
H18_19 H 0.4258 0.3824 0.2273
C17_19 C 0.4324(10) 0.4205(9) 0.1103(9)
H19_19 H 0.4511 0.3876 0.0999
H20_19 H 0.4068 0.4303 0.0823
H21_19 H 0.4584 0.4494 0.1150
N3_20 N 0.9054(2) 0.0879(3) 0.8422(3)
C14_20 C 0.8776(5) 0.0392(4) 0.8219(5)
H10_20 H 0.9038 0.0107 0.8162
H11_20 H 0.8510 0.0275 0.8482
H12_20 H 0.8597 0.0476 0.7881
C15_20 C 0.8652(5) 0.1282(5) 0.8532(7)
H13_20 H 0.8826 0.1611 0.8654
H14_20 H 0.8448 0.1355 0.8205
H15_20 H 0.8409 0.1152 0.8811
C16_20 C 0.9434(7) 0.1078(7) 0.8063(9)
H16_20 H 0.9607 0.1394 0.8217
H17_20 H 0.9704 0.0802 0.7993
H18_20 H 0.9258 0.1176 0.7727
C17_20 C 0.9324(10) 0.0795(9) 0.8897(9)
H19_20 H 0.9511 0.1124 0.9001
H20_20 H 0.9068 0.0697 0.9177
H21_20 H 0.9584 0.0506 0.8850
N3_21 N 0.6578(3) 0.0946(2) 0.5879(3)
C14_21 C 0.6781(5) 0.1224(5) 0.5392(4)
H10_21 H 0.6838 0.0962 0.5107
H11_21 H 0.6518 0.1490 0.5275
H12_21 H 0.7119 0.1403 0.5476
C15_21 C 0.6468(7) 0.1348(5) 0.6282(5)
H13_21 H 0.6346 0.1174 0.6611
H14_21 H 0.6795 0.1552 0.6355
H15_21 H 0.6189 0.1591 0.6152
C16_21 C 0.6937(9) 0.0566(7) 0.6078(7)
H16_21 H 0.6783 0.0393 0.6394
H17_21 H 0.7007 0.0296 0.5802
H18_21 H 0.7273 0.0742 0.6176
C17_21 C 0.6103(9) 0.0676(10) 0.5795(9)
H19_21 H 0.5999 0.0489 0.6124
H20_21 H 0.5823 0.0932 0.5697
H21_21 H 0.6150 0.0416 0.5506
N3_22 N 0.3422(3) 0.5946(2) 0.9121(3)
C14_22 C 0.3219(5) 0.6224(5) 0.9608(4)
H10_22 H 0.3162 0.5962 0.9893
H11_22 H 0.3482 0.6490 0.9725
H12_22 H 0.2881 0.6403 0.9524
C15_22 C 0.3532(7) 0.6348(5) 0.8718(5)
H13_22 H 0.3654 0.6174 0.8389
H14_22 H 0.3205 0.6552 0.8645
H15_22 H 0.3811 0.6591 0.8848
C16_22 C 0.3063(9) 0.5566(7) 0.8922(7)
H16_22 H 0.3217 0.5393 0.8606
H17_22 H 0.2993 0.5296 0.9198
H18_22 H 0.2727 0.5742 0.8824
C17_22 C 0.3897(9) 0.5676(10) 0.9205(9)
H19_22 H 0.4001 0.5489 0.8876
H20_22 H 0.4177 0.5932 0.9303
H21_22 H 0.3850 0.5416 0.9494
N3_23 N 0.1578(3) 0.4054(2) 0.4121(3)
C14_23 C 0.1781(5) 0.3776(5) 0.4608(4)
H10_23 H 0.1838 0.4038 0.4893
H11_23 H 0.1518 0.3510 0.4725
H12_23 H 0.2119 0.3597 0.4524
C15_23 C 0.1468(7) 0.3652(5) 0.3718(5)
H13_23 H 0.1346 0.3826 0.3389
H14_23 H 0.1795 0.3448 0.3645
H15_23 H 0.1189 0.3409 0.3848
C16_23 C 0.1937(9) 0.4434(7) 0.3922(7)
H16_23 H 0.1783 0.4607 0.3606
H17_23 H 0.2007 0.4704 0.4198
H18_23 H 0.2273 0.4258 0.3824
C17_23 C 0.1103(9) 0.4324(10) 0.4205(9)
H19_23 H 0.0999 0.4511 0.3876
H20_23 H 0.0823 0.4068 0.4303
H21_23 H 0.1150 0.4584 0.4494
N3_24 N 0.8422(3) 0.9054(2) 0.0879(3)
C14_24 C 0.8219(5) 0.8776(5) 0.0392(4)
H10_24 H 0.8162 0.9038 0.0107
H11_24 H 0.8482 0.8510 0.0275
H12_24 H 0.7881 0.8597 0.0476
C15_24 C 0.8532(7) 0.8652(5) 0.1282(5)
H13_24 H 0.8654 0.8826 0.1611
H14_24 H 0.8205 0.8448 0.1355
H15_24 H 0.8811 0.8409 0.1152
C16_24 C 0.8063(9) 0.9434(7) 0.1078(7)
H16_24 H 0.8217 0.9607 0.1394
H17_24 H 0.7993 0.9704 0.0802
H18_24 H 0.7727 0.9258 0.1176
C17_24 C 0.8897(9) 0.9324(10) 0.0795(9)
H19_24 H 0.9001 0.9511 0.1124
H20_24 H 0.9177 0.9068 0.0697
H21_24 H 0.8850 0.9584 0.0506
loop_
_geom_bond_atom_site_label_1
_geom_bond_atom_site_label_2
_geom_bond_site_symmetry_1
_geom_bond_site_symmetry_2
Cu1 N1 1_555 1_555
Cu2 N2 1_555 1_555
N1 N2 1_555 1_555
N2 C9 1_555 1_555
O3 Cu1 1_555 1_555
C9 H1 1_555 1_555
C11 C9 1_555 1_555
H2 C11 1_555 1_555
C12 N1 1_555 1_555
H3 C12 1_555 1_555
C13 O3 1_555 1_555
H4 C13 1_555 1_555
H5 C13 1_555 1_555
H6 C13 1_555 1_555
O8 Cu1 1_555 1_555
O9 Cu1 1_555 1_555
O10 Cu2 1_555 1_555
O11 Cu2 1_555 1_555
O12 Cu1 1_555 1_555
Cu2 O3 1_555 1_555
C11 C12 1_555 1_555
O2 C10 1_555 1_555
O4 C3 1_555 1_555
O5 C3 1_555 1_555
O6 C8 1_555 1_555
O7 C10 1_555 1_555
C1 C2 1_555 1_555
C2 C4 1_555 1_555
C3 C5 1_555 1_555
C4 C6 1_555 1_555
C5 C6 1_555 1_555
C6 H9 1_555 1_555
C7 C1 1_555 1_555
C8 O1 1_555 1_555
C10 C4 1_555 1_555
H7 C2 1_555 1_555
H8 C7 1_555 1_555
Cu3 O5 1_555 1_555
Cu5 O1 1_555 1_555
Cu6 O2 1_555 1_555
Cu7 O4 1_555 1_555
C1 C8 1_555 1_555
C5 C7 1_555 1_555
Cu3 N1_2 1_555 1_555
Cu2_2 N2_2 1_555 1_555
N1_2 N2_2 1_555 1_555
N2_2 C9_2 1_555 1_555
O1_2 Cu2_2 1_555 1_555
O2_2 C10_2 1_555 1_555
O3_2 Cu3 1_555 1_555
O4_2 C3_2 1_555 1_555
O12 C3_2 1_555 1_555
O6_2 C8_2 1_555 1_555
O7_2 C10_2 1_555 1_555
C1_2 C2_2 1_555 1_555
C2_2 C4_2 1_555 1_555
C3_2 C5_2 1_555 1_555
C4_2 C6_2 1_555 1_555
C5_2 C6_2 1_555 1_555
C6_2 H9_2 1_555 1_555
C7_2 C1_2 1_555 1_555
C8_2 O1_2 1_555 1_555
C9_2 H1_2 1_555 1_555
C10_2 C4_2 1_555 1_555
C11_2 C9_2 1_555 1_555
H2_2 C11_2 1_555 1_555
C12_2 N1_2 1_555 1_555
H3_2 C12_2 1_555 1_555
C13_2 O3_2 1_555 1_555
H4_2 C13_2 1_555 1_555
H5_2 C13_2 1_555 1_555
H6_2 C13_2 1_555 1_555
H7_2 C2_2 1_555 1_555
H8_2 C7_2 1_555 1_555
Cu4_2 O2_2 1_555 1_555
Cu5_2 O1_2 1_555 1_555
Cu6_2 O2_2 1_555 1_555
Cu7_2 O4_2 1_555 1_555
O8_2 Cu3 1_555 1_555
O9_2 Cu3 1_555 1_555
O10_2 Cu2_2 1_555 1_555
O11_2 Cu2_2 1_555 1_555
Cu2_2 O3_2 1_555 1_555
C1_2 C8_2 1_555 1_555
C5_2 C7_2 1_555 1_555
C11_2 C12_2 1_555 1_555
Cu5_2 O10_2 1_555 1_555
Cu1_2 N1_3 1_555 1_555
Cu2_3 N2_3 1_555 1_555
N1_3 N2_3 1_555 1_555
N2_3 C9_3 1_555 1_555
O1_3 Cu2_3 1_555 1_555
O2_3 C10_3 1_555 1_555
O3_3 Cu1_2 1_555 1_555
O4_3 C3_3 1_555 1_555
O5_2 C3_3 1_555 1_555
O6_3 C8_3 1_555 1_555
O7_3 C10_3 1_555 1_555
C1_3 C2_3 1_555 1_555
C2_3 C4_3 1_555 1_555
C3_3 C5_3 1_555 1_555
C4_3 C6_3 1_555 1_555
C5_3 C6_3 1_555 1_555
C6_3 H9_3 1_555 1_555
C7_3 C1_3 1_555 1_555
C8_3 O1_3 1_555 1_555
C9_3 H1_3 1_555 1_555
C10_3 C4_3 1_555 1_555
C11_3 C9_3 1_555 1_555
H2_3 C11_3 1_555 1_555
C12_3 N1_3 1_555 1_555
H3_3 C12_3 1_555 1_555
C13_3 O3_3 1_555 1_555
H4_3 C13_3 1_555 1_555
H6_3 C13_3 1_555 1_555
H7_3 C2_3 1_555 1_555
H8_3 C7_3 1_555 1_555
Cu5_3 O1_3 1_555 1_555
Cu6_3 O2_3 1_555 1_555
Cu7_3 O4_3 1_555 1_555
O8_3 Cu1_2 1_555 1_555
O10_3 Cu2_3 1_555 1_555
O11_3 Cu2_3 1_555 1_555
Cu2_3 O3_3 1_555 1_555
C1_3 C8_3 1_555 1_555
C5_3 C7_3 1_555 1_555
C11_3 C12_3 1_555 1_555
Cu5_3 O10_3 1_555 1_555
O2_4 C10_4 1_555 1_555
O4_4 C3_4 1_555 1_555
O12_2 C3_4 1_555 1_555
O6_4 C8_4 1_555 1_555
O7_4 C10_4 1_555 1_555
C1_4 C2_4 1_555 1_555
C2_4 C4_4 1_555 1_555
C3_4 C5_4 1_555 1_555
C4_4 C6_4 1_555 1_555
C5_4 C6_4 1_555 1_555
C6_4 H9_4 1_555 1_555
C7_4 C1_4 1_555 1_555
C8_4 O1_4 1_555 1_555
C10_4 C4_4 1_555 1_555
H7_4 C2_4 1_555 1_555
H8_4 C7_4 1_555 1_555
Cu4_4 O2_4 1_555 1_555
Cu5_4 O1_4 1_555 1_555
Cu6_4 O2_4 1_555 1_555
Cu7_4 O4_4 1_555 1_555
C1_4 C8_4 1_555 1_555
C5_4 C7_4 1_555 1_555
Cu3_2 N1_4 1_555 1_555
Cu2_4 N2_4 1_555 1_555
N1_4 N2_4 1_555 1_555
N2_4 C9_4 1_555 1_555
O3_4 Cu3_2 1_555 1_555
C9_4 H1_4 1_555 1_555
C11_4 C9_4 1_555 1_555
H2_4 C11_4 1_555 1_555
C12_4 N1_4 1_555 1_555
H3_4 C12_4 1_555 1_555
C13_4 O3_4 1_555 1_555
H4_4 C13_4 1_555 1_555
H6_4 C13_4 1_555 1_555
O8_4 Cu3_2 1_555 1_555
O10_4 Cu2_4 1_555 1_555
O11_4 Cu2_4 1_555 1_555
Cu2_4 O3_4 1_555 1_555
C11_4 C12_4 1_555 1_555
Cu1_3 N1_5 1_555 1_555
Cu2_5 N2_5 1_555 1_555
N1_5 N2_5 1_555 1_555
N2_5 C9_5 1_555 1_555
O3_5 Cu1_3 1_555 1_555
C9_5 H1_5 1_555 1_555
C11_5 C9_5 1_555 1_555
H2_5 C11_5 1_555 1_555
C12_5 N1_5 1_555 1_555
H3_5 C12_5 1_555 1_555
C13_5 O3_5 1_555 1_555
H4_5 C13_5 1_555 1_555
H5_5 C13_5 1_555 1_555
H6_5 C13_5 1_555 1_555
O8_5 Cu1_3 1_555 1_555
O9_5 Cu1_3 1_555 1_555
O10_5 Cu2_5 1_555 1_555
O11_5 Cu2_5 1_555 1_555
O12_3 Cu1_3 1_555 1_555
Cu2_5 O3_5 1_555 1_555
C11_5 C12_5 1_555 1_555
O9_3 C10_5 1_555 1_555
O4_5 C3_5 1_555 1_555
O5_3 C3_5 1_555 1_555
O6_5 C8_5 1_555 1_555
O7_5 C10_5 1_555 1_555
C1_5 C2_5 1_555 1_555
C2_5 C4_5 1_555 1_555
C3_5 C5_5 1_555 1_555
C4_5 C6_5 1_555 1_555
C5_5 C6_5 1_555 1_555
C6_5 H9_5 1_555 1_555
C7_5 C1_5 1_555 1_555
C8_5 O1_5 1_555 1_555
C10_5 C4_5 1_555 1_555
H7_5 C2_5 1_555 1_555
H8_5 C7_5 1_555 1_555
Cu3_3 O5_3 1_555 1_555
Cu5_5 O1_5 1_555 1_555
Cu7_4 O9_3 1_555 1_555
Cu7_5 O4_5 1_555 1_555
C1_5 C8_5 1_555 1_555
C5_5 C7_5 1_555 1_555
Cu3_3 N1_6 1_555 1_555
Cu2_6 N2_6 1_555 1_555
N1_6 N2_6 1_555 1_555
N2_6 C9_6 1_555 1_555
O1_6 Cu2_6 1_555 1_555
O9_2 C10_6 1_555 1_555
O3_6 Cu3_3 1_555 1_555
O4_6 C3_6 1_555 1_555
O12_3 C3_6 1_555 1_555
O6_6 C8_6 1_555 1_555
O7_6 C10_6 1_555 1_555
C1_6 C2_6 1_555 1_555
C2_6 C4_6 1_555 1_555
C3_6 C5_6 1_555 1_555
C4_6 C6_6 1_555 1_555
C5_6 C6_6 1_555 1_555
C6_6 H9_6 1_555 1_555
C7_6 C1_6 1_555 1_555
C8_6 O1_6 1_555 1_555
C9_6 H1_6 1_555 1_555
C10_6 C4_6 1_555 1_555
C11_6 C9_6 1_555 1_555
H2_6 C11_6 1_555 1_555
C12_6 N1_6 1_555 1_555
H3_6 C12_6 1_555 1_555
C13_6 O3_6 1_555 1_555
H4_6 C13_6 1_555 1_555
H5_6 C13_6 1_555 1_555
H6_6 C13_6 1_555 1_555
H7_6 C2_6 1_555 1_555
H8_6 C7_6 1_555 1_555
Cu5_6 O1_6 1_555 1_555
Cu7 O9_2 1_555 1_555
Cu7_6 O4_6 1_555 1_555
O8_6 Cu3_3 1_555 1_555
O9_6 Cu3_3 1_555 1_555
O10_6 Cu2_6 1_555 1_555
O11_6 Cu2_6 1_555 1_555
Cu2_6 O3_6 1_555 1_555
C1_6 C8_6 1_555 1_555
C5_6 C7_6 1_555 1_555
C11_6 C12_6 1_555 1_555
Cu5_6 O10_6 1_555 1_555
Cu1_4 N1_7 1_555 1_555
Cu2_7 N2_7 1_555 1_555
N1_7 N2_7 1_555 1_555
N2_7 C9_7 1_555 1_555
O1_7 Cu2_7 1_555 1_555
O9_4 C10_7 1_555 1_555
O3_7 Cu1_4 1_555 1_555
O4_7 C3_7 1_555 1_555
O5_4 C3_7 1_555 1_555
O6_7 C8_7 1_555 1_555
O7_7 C10_7 1_555 1_555
C1_7 C2_7 1_555 1_555
C2_7 C4_7 1_555 1_555
C3_7 C5_7 1_555 1_555
C4_7 C6_7 1_555 1_555
C5_7 C6_7 1_555 1_555
C6_7 H9_7 1_555 1_555
C7_7 C1_7 1_555 1_555
C8_7 O1_7 1_555 1_555
C9_7 H1_7 1_555 1_555
C10_7 C4_7 1_555 1_555
C11_7 C9_7 1_555 1_555
H2_7 C11_7 1_555 1_555
C12_7 N1_7 1_555 1_555
H3_7 C12_7 1_555 1_555
C13_7 O3_7 1_555 1_555
H4_7 C13_7 1_555 1_555
H6_7 C13_7 1_555 1_555
H7_7 C2_7 1_555 1_555
H8_7 C7_7 1_555 1_555
Cu5_7 O1_7 1_555 1_555
Cu7_3 O9_4 1_555 1_555
Cu7_7 O4_7 1_555 1_555
O8_7 Cu1_4 1_555 1_555
O10_7 Cu2_7 1_555 1_555
O11_7 Cu2_7 1_555 1_555
Cu2_7 O3_7 1_555 1_555
C1_7 C8_7 1_555 1_555
C5_7 C7_7 1_555 1_555
C11_7 C12_7 1_555 1_555
Cu5_7 O10_7 1_555 1_555
O9 C10_8 1_555 1_555
O4_8 C3_8 1_555 1_555
O12_4 C3_8 1_555 1_555
O6_8 C8_8 1_555 1_555
O7_8 C10_8 1_555 1_555
C1_8 C2_8 1_555 1_555
C2_8 C4_8 1_555 1_555
C3_8 C5_8 1_555 1_555
C4_8 C6_8 1_555 1_555
C5_8 C6_8 1_555 1_555
C6_8 H9_8 1_555 1_555
C7_8 C1_8 1_555 1_555
C8_8 O1_8 1_555 1_555
C10_8 C4_8 1_555 1_555
H7_8 C2_8 1_555 1_555
H8_8 C7_8 1_555 1_555
Cu5_8 O1_8 1_555 1_555
Cu7_2 O9 1_555 1_555
Cu7_8 O4_8 1_555 1_555
C1_8 C8_8 1_555 1_555
C5_8 C7_8 1_555 1_555
Cu3_4 N1_8 1_555 1_555
Cu2_8 N2_8 1_555 1_555
N1_8 N2_8 1_555 1_555
N2_8 C9_8 1_555 1_555
O3_8 Cu3_4 1_555 1_555
C9_8 H1_8 1_555 1_555
C11_8 C9_8 1_555 1_555
H2_8 C11_8 1_555 1_555
C12_8 N1_8 1_555 1_555
H3_8 C12_8 1_555 1_555
C13_8 O3_8 1_555 1_555
H4_8 C13_8 1_555 1_555
H6_8 C13_8 1_555 1_555
O8_8 Cu3_4 1_555 1_555
O10_8 Cu2_8 1_555 1_555
O11_8 Cu2_8 1_555 1_555
Cu2_8 O3_8 1_555 1_555
C11_8 C12_8 1_555 1_555
Cu4_4 N1_9 1_555 1_555
Cu2_9 N2_9 1_555 1_555
N1_9 N2_9 1_555 1_555
N2_9 C9_9 1_555 1_555
O3_9 Cu4_4 1_555 1_555
C9_9 H1_9 1_555 1_555
C11_9 C9_9 1_555 1_555
H2_9 C11_9 1_555 1_555
C12_9 N1_9 1_555 1_555
H3_9 C12_9 1_555 1_555
C13_9 O3_9 1_555 1_555
H4_9 C13_9 1_555 1_555
H5_9 C13_9 1_555 1_555
H6_9 C13_9 1_555 1_555
O8_9 Cu4_4 1_555 1_555
O10_9 Cu2_9 1_555 1_555
O11_9 Cu2_9 1_555 1_555
O12_5 Cu4_4 1_555 1_555
Cu2_9 O3_9 1_555 1_555
C11_9 C12_9 1_555 1_555
O9_7 C10_9 1_555 1_555
O4_9 C3_9 1_555 1_555
O5_5 C3_9 1_555 1_555
O6_9 C8_9 1_555 1_555
O7_9 C10_9 1_555 1_555
C1_9 C2_9 1_555 1_555
C2_9 C4_9 1_555 1_555
C3_9 C5_9 1_555 1_555
C4_9 C6_9 1_555 1_555
C5_9 C6_9 1_555 1_555
C6_9 H9_9 1_555 1_555
C7_9 C1_9 1_555 1_555
C8_9 O1_9 1_555 1_555
C10_9 C4_9 1_555 1_555
H7_9 C2_9 1_555 1_555
H8_9 C7_9 1_555 1_555
Cu4_2 O5_5 1_555 1_555
Cu5_9 O1_9 1_555 1_555
Cu7_8 O9_7 1_555 1_555
Cu6_2 O4_9 1_555 1_555
C1_9 C8_9 1_555 1_555
C5_9 C7_9 1_555 1_555
Cu4_2 N1_10 1_555 1_555
Cu2_10 N2_10 1_555 1_555
N1_10 N2_10 1_555 1_555
N2_10 C9_10 1_555 1_555
O1_10 Cu2_10 1_555 1_555
O9_6 C10_10 1_555 1_555
O3_10 Cu4_2 1_555 1_555
O4_10 C3_10 1_555 1_555
O12_5 C3_10 1_555 1_555
O6_10 C8_10 1_555 1_555
O7_10 C10_10 1_555 1_555
C1_10 C2_10 1_555 1_555
C2_10 C4_10 1_555 1_555
C3_10 C5_10 1_555 1_555
C4_10 C6_10 1_555 1_555
C5_10 C6_10 1_555 1_555
C6_10 H9_10 1_555 1_555
C7_10 C1_10 1_555 1_555
C8_10 O1_10 1_555 1_555
C9_10 H1_10 1_555 1_555
C10_10 C4_10 1_555 1_555
C11_10 C9_10 1_555 1_555
H2_10 C11_10 1_555 1_555
C12_10 N1_10 1_555 1_555
H3_10 C12_10 1_555 1_555
C13_10 O3_10 1_555 1_555
H4_10 C13_10 1_555 1_555
H5_10 C13_10 1_555 1_555
H6_10 C13_10 1_555 1_555
H7_10 C2_10 1_555 1_555
H8_10 C7_10 1_555 1_555
Cu5_10 O1_10 1_555 1_555
Cu7_5 O9_6 1_555 1_555
Cu6_4 O4_10 1_555 1_555
O8_10 Cu4_2 1_555 1_555
O10_10 Cu2_10 1_555 1_555
O11_10 Cu2_10 1_555 1_555
Cu2_10 O3_10 1_555 1_555
C1_10 C8_10 1_555 1_555
C5_10 C7_10 1_555 1_555
C11_10 C12_10 1_555 1_555
Cu5_10 O10_10 1_555 1_555
Cu4 N1_11 1_555 1_555
Cu2_11 N2_11 1_555 1_555
N1_11 N2_11 1_555 1_555
N2_11 C9_11 1_555 1_555
O1_11 Cu2_11 1_555 1_555
O9_8 C10_11 1_555 1_555
O3_11 Cu4 1_555 1_555
O4_11 C3_11 1_555 1_555
O5_6 C3_11 1_555 1_555
O6_11 C8_11 1_555 1_555
O7_11 C10_11 1_555 1_555
C1_11 C2_11 1_555 1_555
C2_11 C4_11 1_555 1_555
C3_11 C5_11 1_555 1_555
C4_11 C6_11 1_555 1_555
C5_11 C6_11 1_555 1_555
C6_11 H9_11 1_555 1_555
C7_11 C1_11 1_555 1_555
C8_11 O1_11 1_555 1_555
C9_11 H1_11 1_555 1_555
C10_11 C4_11 1_555 1_555
C11_11 C9_11 1_555 1_555
H2_11 C11_11 1_555 1_555
C12_11 N1_11 1_555 1_555
H3_11 C12_11 1_555 1_555
C13_11 O3_11 1_555 1_555
H4_11 C13_11 1_555 1_555
H6_11 C13_11 1_555 1_555
H7_11 C2_11 1_555 1_555
H8_11 C7_11 1_555 1_555
Cu5_11 O1_11 1_555 1_555
Cu7_7 O9_8 1_555 1_555
Cu6_3 O4_11 1_555 1_555
O8_11 Cu4 1_555 1_555
O10_11 Cu2_11 1_555 1_555
O11_11 Cu2_11 1_555 1_555
Cu2_11 O3_11 1_555 1_555
C1_11 C8_11 1_555 1_555
C5_11 C7_11 1_555 1_555
C11_11 C12_11 1_555 1_555
Cu5_11 O10_11 1_555 1_555
O9_5 C10_12 1_555 1_555
O4_12 C3_12 1_555 1_555
O12_6 C3_12 1_555 1_555
O6_12 C8_12 1_555 1_555
O7_12 C10_12 1_555 1_555
C1_12 C2_12 1_555 1_555
C2_12 C4_12 1_555 1_555
C3_12 C5_12 1_555 1_555
C4_12 C6_12 1_555 1_555
C5_12 C6_12 1_555 1_555
C6_12 H9_12 1_555 1_555
C7_12 C1_12 1_555 1_555
C8_12 O1_12 1_555 1_555
C10_12 C4_12 1_555 1_555
H7_12 C2_12 1_555 1_555
H8_12 C7_12 1_555 1_555
Cu5_12 O1_12 1_555 1_555
Cu7_6 O9_5 1_555 1_555
Cu6 O4_12 1_555 1_555
C1_12 C8_12 1_555 1_555
C5_12 C7_12 1_555 1_555
Cu4_3 N1_12 1_555 1_555
Cu2_12 N2_12 1_555 1_555
N1_12 N2_12 1_555 1_555
N2_12 C9_12 1_555 1_555
O3_12 Cu4_3 1_555 1_555
C9_12 H1_12 1_555 1_555
C11_12 C9_12 1_555 1_555
H2_12 C11_12 1_555 1_555
C12_12 N1_12 1_555 1_555
H3_12 C12_12 1_555 1_555
C13_12 O3_12 1_555 1_555
H4_12 C13_12 1_555 1_555
H6_12 C13_12 1_555 1_555
O8_12 Cu4_3 1_555 1_555
O10_12 Cu2_12 1_555 1_555
O11_12 Cu2_12 1_555 1_555
Cu2_12 O3_12 1_555 1_555
C11_12 C12_12 1_555 1_555
O10_8 C10_13 1_555 1_555
O11_10 C3_13 1_555 1_555
O5_7 C3_13 1_555 1_555
O6_13 C8_13 1_555 1_555
O7_13 C10_13 1_555 1_555
C1_13 C2_13 1_555 1_555
C2_13 C4_13 1_555 1_555
C3_13 C5_13 1_555 1_555
C4_13 C6_13 1_555 1_555
C5_13 C6_13 1_555 1_555
C6_13 H9_13 1_555 1_555
C7_13 C1_13 1_555 1_555
C8_13 O8_8 1_555 1_555
C10_13 C4_13 1_555 1_555
H7_13 C2_13 1_555 1_555
H8_13 C7_13 1_555 1_555
Cu5_10 O5_7 1_555 1_555
C1_13 C8_13 1_555 1_555
C5_13 C7_13 1_555 1_555
Cu5_11 N1_13 1_555 1_555
Cu7_7 N2_13 1_555 1_555
N1_13 N2_13 1_555 1_555
N2_13 C9_13 1_555 1_555
O3_13 Cu5_11 1_555 1_555
C9_13 H1_13 1_555 1_555
C11_13 C9_13 1_555 1_555
H2_13 C11_13 1_555 1_555
C12_13 N1_13 1_555 1_555
H3_13 C12_13 1_555 1_555
C13_13 O3_13 1_555 1_555
H4_13 C13_13 1_555 1_555
H5_13 C13_13 1_555 1_555
H6_13 C13_13 1_555 1_555
O12_7 Cu5_11 1_555 1_555
Cu7_7 O3_13 1_555 1_555
C11_13 C12_13 1_555 1_555
Cu5_10 N1_14 1_555 1_555
Cu7_5 N2_14 1_555 1_555
N1_14 N2_14 1_555 1_555
N2_14 C9_14 1_555 1_555
O8_6 Cu7_5 1_555 1_555
O10_6 C10_14 1_555 1_555
O3_14 Cu5_10 1_555 1_555
O11_11 C3_14 1_555 1_555
O12_7 C3_14 1_555 1_555
O6_14 C8_14 1_555 1_555
O7_14 C10_14 1_555 1_555
C1_14 C2_14 1_555 1_555
C2_14 C4_14 1_555 1_555
C3_14 C5_14 1_555 1_555
C4_14 C6_14 1_555 1_555
C5_14 C6_14 1_555 1_555
C6_14 H9_14 1_555 1_555
C7_14 C1_14 1_555 1_555
C8_14 O8_6 1_555 1_555
C9_14 H1_14 1_555 1_555
C10_14 C4_14 1_555 1_555
C11_14 C9_14 1_555 1_555
H2_14 C11_14 1_555 1_555
C12_14 N1_14 1_555 1_555
H3_14 C12_14 1_555 1_555
C13_14 O3_14 1_555 1_555
H4_14 C13_14 1_555 1_555
H5_14 C13_14 1_555 1_555
H6_14 C13_14 1_555 1_555
H7_14 C2_14 1_555 1_555
H8_14 C7_14 1_555 1_555
Cu7_5 O3_14 1_555 1_555
C1_14 C8_14 1_555 1_555
C5_14 C7_14 1_555 1_555
C11_14 C12_14 1_555 1_555
Cu5_12 N1_15 1_555 1_555
Cu7_6 N2_15 1_555 1_555
N1_15 N2_15 1_555 1_555
N2_15 C9_15 1_555 1_555
O8_5 Cu7_6 1_555 1_555
O10_5 C10_15 1_555 1_555
O3_15 Cu5_12 1_555 1_555
O11_9 C3_15 1_555 1_555
O5_8 C3_15 1_555 1_555
O6_15 C8_15 1_555 1_555
O7_15 C10_15 1_555 1_555
C1_15 C2_15 1_555 1_555
C2_15 C4_15 1_555 1_555
C3_15 C5_15 1_555 1_555
C4_15 C6_15 1_555 1_555
C5_15 C6_15 1_555 1_555
C6_15 H9_15 1_555 1_555
C7_15 C1_15 1_555 1_555
C8_15 O8_5 1_555 1_555
C9_15 H1_15 1_555 1_555
C10_15 C4_15 1_555 1_555
C11_15 C9_15 1_555 1_555
H2_15 C11_15 1_555 1_555
C12_15 N1_15 1_555 1_555
H3_15 C12_15 1_555 1_555
C13_15 O3_15 1_555 1_555
H4_15 C13_15 1_555 1_555
H6_15 C13_15 1_555 1_555
H7_15 C2_15 1_555 1_555
H8_15 C7_15 1_555 1_555
Cu7_6 O3_15 1_555 1_555
C1_15 C8_15 1_555 1_555
C5_15 C7_15 1_555 1_555
C11_15 C12_15 1_555 1_555
Cu5_9 N1_16 1_555 1_555
Cu7_8 N2_16 1_555 1_555
N1_16 N2_16 1_555 1_555
N2_16 C9_16 1_555 1_555
O3_16 Cu5_9 1_555 1_555
C9_16 H1_16 1_555 1_555
C11_16 C9_16 1_555 1_555
H2_16 C11_16 1_555 1_555
C12_16 N1_16 1_555 1_555
H3_16 C12_16 1_555 1_555
C13_16 O3_16 1_555 1_555
H4_16 C13_16 1_555 1_555
H6_16 C13_16 1_555 1_555
Cu7_8 O3_16 1_555 1_555
C11_16 C12_16 1_555 1_555
O10_7 C10_16 1_555 1_555
O11_12 C3_16 1_555 1_555
O12_8 C3_16 1_555 1_555
O6_16 C8_16 1_555 1_555
O7_16 C10_16 1_555 1_555
C1_16 C2_16 1_555 1_555
C2_16 C4_16 1_555 1_555
C3_16 C5_16 1_555 1_555
C4_16 C6_16 1_555 1_555
C5_16 C6_16 1_555 1_555
C6_16 H9_16 1_555 1_555
C7_16 C1_16 1_555 1_555
C8_16 O8_7 1_555 1_555
C10_16 C4_16 1_555 1_555
H7_16 C2_16 1_555 1_555
H8_16 C7_16 1_555 1_555
C1_16 C8_16 1_555 1_555
C5_16 C7_16 1_555 1_555
O10_12 C10_17 1_555 1_555
O11_2 C3_17 1_555 1_555
O5_9 C3_17 1_555 1_555
O6_17 C8_17 1_555 1_555
O7_17 C10_17 1_555 1_555
C1_17 C2_17 1_555 1_555
C2_17 C4_17 1_555 1_555
C3_17 C5_17 1_555 1_555
C4_17 C6_17 1_555 1_555
C5_17 C6_17 1_555 1_555
C6_17 H9_17 1_555 1_555
C7_17 C1_17 1_555 1_555
C8_17 O8_12 1_555 1_555
C10_17 C4_17 1_555 1_555
H7_17 C2_17 1_555 1_555
H8_17 C7_17 1_555 1_555
Cu5_2 O5_9 1_555 1_555
C1_17 C8_17 1_555 1_555
C5_17 C7_17 1_555 1_555
Cu5_3 N1_17 1_555 1_555
Cu6_3 N2_17 1_555 1_555
N1_17 N2_17 1_555 1_555
N2_17 C9_17 1_555 1_555
O3_17 Cu5_3 1_555 1_555
C9_17 H1_17 1_555 1_555
C11_17 C9_17 1_555 1_555
H2_17 C11_17 1_555 1_555
C12_17 N1_17 1_555 1_555
H3_17 C12_17 1_555 1_555
C13_17 O3_17 1_555 1_555
H4_17 C13_17 1_555 1_555
H5_17 C13_17 1_555 1_555
H6_17 C13_17 1_555 1_555
O12_9 Cu5_3 1_555 1_555
Cu6_3 O3_17 1_555 1_555
C11_17 C12_17 1_555 1_555
Cu5_2 N1_18 1_555 1_555
Cu6_2 N2_18 1_555 1_555
N1_18 N2_18 1_555 1_555
N2_18 C9_18 1_555 1_555
O8_10 Cu6_2 1_555 1_555
O10_10 C10_18 1_555 1_555
O3_18 Cu5_2 1_555 1_555
O11_3 C3_18 1_555 1_555
O12_9 C3_18 1_555 1_555
O6_18 C8_18 1_555 1_555
O7_18 C10_18 1_555 1_555
C1_18 C2_18 1_555 1_555
C2_18 C4_18 1_555 1_555
C3_18 C5_18 1_555 1_555
C4_18 C6_18 1_555 1_555
C5_18 C6_18 1_555 1_555
C6_18 H9_18 1_555 1_555
C7_18 C1_18 1_555 1_555
C8_18 O8_10 1_555 1_555
C9_18 H1_18 1_555 1_555
C10_18 C4_18 1_555 1_555
C11_18 C9_18 1_555 1_555
H2_18 C11_18 1_555 1_555
C12_18 N1_18 1_555 1_555
H3_18 C12_18 1_555 1_555
C13_18 O3_18 1_555 1_555
H4_18 C13_18 1_555 1_555
H5_18 C13_18 1_555 1_555
H6_18 C13_18 1_555 1_555
H7_18 C2_18 1_555 1_555
H8_18 C7_18 1_555 1_555
Cu6_2 O3_18 1_555 1_555
C1_18 C8_18 1_555 1_555
C5_18 C7_18 1_555 1_555
C11_18 C12_18 1_555 1_555
Cu5_4 N1_19 1_555 1_555
Cu6_4 N2_19 1_555 1_555
N1_19 N2_19 1_555 1_555
N2_19 C9_19 1_555 1_555
O8_9 Cu6_4 1_555 1_555
O10_9 C10_19 1_555 1_555
O3_19 Cu5_4 1_555 1_555
O11 C3_19 1_555 1_555
O5_10 C3_19 1_555 1_555
O6_19 C8_19 1_555 1_555
O7_19 C10_19 1_555 1_555
C1_19 C2_19 1_555 1_555
C2_19 C4_19 1_555 1_555
C3_19 C5_19 1_555 1_555
C4_19 C6_19 1_555 1_555
C5_19 C6_19 1_555 1_555
C6_19 H9_19 1_555 1_555
C7_19 C1_19 1_555 1_555
C8_19 O8_9 1_555 1_555
C9_19 H1_19 1_555 1_555
C10_19 C4_19 1_555 1_555
C11_19 C9_19 1_555 1_555
H2_19 C11_19 1_555 1_555
C12_19 N1_19 1_555 1_555
H3_19 C12_19 1_555 1_555
C13_19 O3_19 1_555 1_555
H4_19 C13_19 1_555 1_555
H6_19 C13_19 1_555 1_555
H7_19 C2_19 1_555 1_555
H8_19 C7_19 1_555 1_555
Cu6_4 O3_19 1_555 1_555
C1_19 C8_19 1_555 1_555
C5_19 C7_19 1_555 1_555
C11_19 C12_19 1_555 1_555
Cu5 N1_20 1_555 1_555
Cu6 N2_20 1_555 1_555
N1_20 N2_20 1_555 1_555
N2_20 C9_20 1_555 1_555
O3_20 Cu5 1_555 1_555
C9_20 H1_20 1_555 1_555
C11_20 C9_20 1_555 1_555
H2_20 C11_20 1_555 1_555
C12_20 N1_20 1_555 1_555
H3_20 C12_20 1_555 1_555
C13_20 O3_20 1_555 1_555
H4_20 C13_20 1_555 1_555
H6_20 C13_20 1_555 1_555
Cu6 O3_20 1_555 1_555
C11_20 C12_20 1_555 1_555
O10_11 C10_20 1_555 1_555
O11_4 C3_20 1_555 1_555
O12_10 C3_20 1_555 1_555
O6_20 C8_20 1_555 1_555
O7_20 C10_20 1_555 1_555
C1_20 C2_20 1_555 1_555
C2_20 C4_20 1_555 1_555
C3_20 C5_20 1_555 1_555
C4_20 C6_20 1_555 1_555
C5_20 C6_20 1_555 1_555
C6_20 H9_20 1_555 1_555
C7_20 C1_20 1_555 1_555
C8_20 O8_11 1_555 1_555
C10_20 C4_20 1_555 1_555
H7_20 C2_20 1_555 1_555
H8_20 C7_20 1_555 1_555
C1_20 C8_20 1_555 1_555
C5_20 C7_20 1_555 1_555
O10_4 C10_21 1_555 1_555
O11_6 C3_21 1_555 1_555
O5_11 C3_21 1_555 1_555
O6_21 C8_21 1_555 1_555
O7_21 C10_21 1_555 1_555
C1_21 C2_21 1_555 1_555
C2_21 C4_21 1_555 1_555
C3_21 C5_21 1_555 1_555
C4_21 C6_21 1_555 1_555
C5_21 C6_21 1_555 1_555
C6_21 H9_21 1_555 1_555
C7_21 C1_21 1_555 1_555
C8_21 O8_4 1_555 1_555
C10_21 C4_21 1_555 1_555
H7_21 C2_21 1_555 1_555
H8_21 C7_21 1_555 1_555
Cu5_6 O5_11 1_555 1_555
C1_21 C8_21 1_555 1_555
C5_21 C7_21 1_555 1_555
Cu5_7 N1_21 1_555 1_555
Cu7_3 N2_21 1_555 1_555
N1_21 N2_21 1_555 1_555
N2_21 C9_21 1_555 1_555
O3_21 Cu5_7 1_555 1_555
C9_21 H1_21 1_555 1_555
C11_21 C9_21 1_555 1_555
H2_21 C11_21 1_555 1_555
C12_21 N1_21 1_555 1_555
H3_21 C12_21 1_555 1_555
C13_21 O3_21 1_555 1_555
H4_21 C13_21 1_555 1_555
H5_21 C13_21 1_555 1_555
H6_21 C13_21 1_555 1_555
O12_11 Cu5_7 1_555 1_555
Cu7_3 O3_21 1_555 1_555
C11_21 C12_21 1_555 1_555
Cu5_6 N1_22 1_555 1_555
Cu7 N2_22 1_555 1_555
N1_22 N2_22 1_555 1_555
N2_22 C9_22 1_555 1_555
O8_2 Cu7 1_555 1_555
O10_2 C10_22 1_555 1_555
O3_22 Cu5_6 1_555 1_555
O11_7 C3_22 1_555 1_555
O12_11 C3_22 1_555 1_555
O6_22 C8_22 1_555 1_555
O7_22 C10_22 1_555 1_555
C1_22 C2_22 1_555 1_555
C2_22 C4_22 1_555 1_555
C3_22 C5_22 1_555 1_555
C4_22 C6_22 1_555 1_555
C5_22 C6_22 1_555 1_555
C6_22 H9_22 1_555 1_555
C7_22 C1_22 1_555 1_555
C8_22 O8_2 1_555 1_555
C9_22 H1_22 1_555 1_555
C10_22 C4_22 1_555 1_555
C11_22 C9_22 1_555 1_555
H2_22 C11_22 1_555 1_555
C12_22 N1_22 1_555 1_555
H3_22 C12_22 1_555 1_555
C13_22 O3_22 1_555 1_555
H4_22 C13_22 1_555 1_555
H5_22 C13_22 1_555 1_555
H6_22 C13_22 1_555 1_555
H7_22 C2_22 1_555 1_555
H8_22 C7_22 1_555 1_555
Cu7 O3_22 1_555 1_555
C1_22 C8_22 1_555 1_555
C5_22 C7_22 1_555 1_555
C11_22 C12_22 1_555 1_555
Cu5_8 N1_23 1_555 1_555
Cu7_2 N2_23 1_555 1_555
N1_23 N2_23 1_555 1_555
N2_23 C9_23 1_555 1_555
O8 Cu7_2 1_555 1_555
O10 C10_23 1_555 1_555
O3_23 Cu5_8 1_555 1_555
O11_5 C3_23 1_555 1_555
O5_12 C3_23 1_555 1_555
O6_23 C8_23 1_555 1_555
O7_23 C10_23 1_555 1_555
C1_23 C2_23 1_555 1_555
C2_23 C4_23 1_555 1_555
C3_23 C5_23 1_555 1_555
C4_23 C6_23 1_555 1_555
C5_23 C6_23 1_555 1_555
C6_23 H9_23 1_555 1_555
C7_23 C1_23 1_555 1_555
C8_23 O8 1_555 1_555
C9_23 H1_23 1_555 1_555
C10_23 C4_23 1_555 1_555
C11_23 C9_23 1_555 1_555
H2_23 C11_23 1_555 1_555
C12_23 N1_23 1_555 1_555
H3_23 C12_23 1_555 1_555
C13_23 O3_23 1_555 1_555
H4_23 C13_23 1_555 1_555
H6_23 C13_23 1_555 1_555
H7_23 C2_23 1_555 1_555
H8_23 C7_23 1_555 1_555
Cu7_2 O3_23 1_555 1_555
C1_23 C8_23 1_555 1_555
C5_23 C7_23 1_555 1_555
C11_23 C12_23 1_555 1_555
Cu5_5 N1_24 1_555 1_555
Cu7_4 N2_24 1_555 1_555
N1_24 N2_24 1_555 1_555
N2_24 C9_24 1_555 1_555
O3_24 Cu5_5 1_555 1_555
C9_24 H1_24 1_555 1_555
C11_24 C9_24 1_555 1_555
H2_24 C11_24 1_555 1_555
C12_24 N1_24 1_555 1_555
H3_24 C12_24 1_555 1_555
C13_24 O3_24 1_555 1_555
H4_24 C13_24 1_555 1_555
H6_24 C13_24 1_555 1_555
Cu7_4 O3_24 1_555 1_555
C11_24 C12_24 1_555 1_555
O10_3 C10_24 1_555 1_555
O11_8 C3_24 1_555 1_555
O12_12 C3_24 1_555 1_555
O6_24 C8_24 1_555 1_555
O7_24 C10_24 1_555 1_555
C1_24 C2_24 1_555 1_555
C2_24 C4_24 1_555 1_555
C3_24 C5_24 1_555 1_555
C4_24 C6_24 1_555 1_555
C5_24 C6_24 1_555 1_555
C6_24 H9_24 1_555 1_555
C7_24 C1_24 1_555 1_555
C8_24 O8_3 1_555 1_555
C10_24 C4_24 1_555 1_555
H7_24 C2_24 1_555 1_555
H8_24 C7_24 1_555 1_555
C1_24 C8_24 1_555 1_555
C5_24 C7_24 1_555 1_555
N3 C14 1_555 1_555
C14 H10 1_555 1_555
H11 C14 1_555 1_555
H12 C14 1_555 1_555
C15 N3 1_555 1_555
H13 C15 1_555 1_555
H14 C15 1_555 1_555
H15 C15 1_555 1_555
C16 N3 1_555 1_555
H16 C16 1_555 1_555
H17 C16 1_555 1_555
H18 C16 1_555 1_555
C17 N3 1_555 1_555
H19 C17 1_555 1_555
H20 C17 1_555 1_555
H21 C17 1_555 1_555
N3_2 C14_2 1_555 1_555
C14_2 H10_2 1_555 1_555
H11_2 C14_2 1_555 1_555
H12_2 C14_2 1_555 1_555
C15_2 N3_2 1_555 1_555
H13_2 C15_2 1_555 1_555
H14_2 C15_2 1_555 1_555
H15_2 C15_2 1_555 1_555
C16_2 N3_2 1_555 1_555
H16_2 C16_2 1_555 1_555
H17_2 C16_2 1_555 1_555
H18_2 C16_2 1_555 1_555
C17_2 N3_2 1_555 1_555
H19_2 C17_2 1_555 1_555
H20_2 C17_2 1_555 1_555
H21_2 C17_2 1_555 1_555
N3_3 C14_3 1_555 1_555
C14_3 H10_3 1_555 1_555
H11_3 C14_3 1_555 1_555
H12_3 C14_3 1_555 1_555
C15_3 N3_3 1_555 1_555
H13_3 C15_3 1_555 1_555
H14_3 C15_3 1_555 1_555
H15_3 C15_3 1_555 1_555
C16_3 N3_3 1_555 1_555
H16_3 C16_3 1_555 1_555
H17_3 C16_3 1_555 1_555
H18_3 C16_3 1_555 1_555
C17_3 N3_3 1_555 1_555
H19_3 C17_3 1_555 1_555
H20_3 C17_3 1_555 1_555
H21_3 C17_3 1_555 1_555
N3_4 C14_4 1_555 1_555
C14_4 H10_4 1_555 1_555
H11_4 C14_4 1_555 1_555
H12_4 C14_4 1_555 1_555
C15_4 N3_4 1_555 1_555
H13_4 C15_4 1_555 1_555
H14_4 C15_4 1_555 1_555
H15_4 C15_4 1_555 1_555
C16_4 N3_4 1_555 1_555
H16_4 C16_4 1_555 1_555
H17_4 C16_4 1_555 1_555
H18_4 C16_4 1_555 1_555
C17_4 N3_4 1_555 1_555
H19_4 C17_4 1_555 1_555
H20_4 C17_4 1_555 1_555
H21_4 C17_4 1_555 1_555
N3_5 C14_5 1_555 1_555
C14_5 H10_5 1_555 1_555
H11_5 C14_5 1_555 1_555
H12_5 C14_5 1_555 1_555
C15_5 N3_5 1_555 1_555
H13_5 C15_5 1_555 1_555
H14_5 C15_5 1_555 1_555
H15_5 C15_5 1_555 1_555
C16_5 N3_5 1_555 1_555
H16_5 C16_5 1_555 1_555
H17_5 C16_5 1_555 1_555
H18_5 C16_5 1_555 1_555
C17_5 N3_5 1_555 1_555
H19_5 C17_5 1_555 1_555
H20_5 C17_5 1_555 1_555
H21_5 C17_5 1_555 1_555
N3_6 C14_6 1_555 1_555
C14_6 H10_6 1_555 1_555
H11_6 C14_6 1_555 1_555
H12_6 C14_6 1_555 1_555
C15_6 N3_6 1_555 1_555
H13_6 C15_6 1_555 1_555
H14_6 C15_6 1_555 1_555
H15_6 C15_6 1_555 1_555
C16_6 N3_6 1_555 1_555
H16_6 C16_6 1_555 1_555
H17_6 C16_6 1_555 1_555
H18_6 C16_6 1_555 1_555
C17_6 N3_6 1_555 1_555
H19_6 C17_6 1_555 1_555
H20_6 C17_6 1_555 1_555
H21_6 C17_6 1_555 1_555
N3_7 C14_7 1_555 1_555
C14_7 H10_7 1_555 1_555
H11_7 C14_7 1_555 1_555
H12_7 C14_7 1_555 1_555
C15_7 N3_7 1_555 1_555
H13_7 C15_7 1_555 1_555
H14_7 C15_7 1_555 1_555
H15_7 C15_7 1_555 1_555
C16_7 N3_7 1_555 1_555
H16_7 C16_7 1_555 1_555
H17_7 C16_7 1_555 1_555
H18_7 C16_7 1_555 1_555
C17_7 N3_7 1_555 1_555
H19_7 C17_7 1_555 1_555
H20_7 C17_7 1_555 1_555
H21_7 C17_7 1_555 1_555
N3_8 C14_8 1_555 1_555
C14_8 H10_8 1_555 1_555
H11_8 C14_8 1_555 1_555
H12_8 C14_8 1_555 1_555
C15_8 N3_8 1_555 1_555
H13_8 C15_8 1_555 1_555
H14_8 C15_8 1_555 1_555
H15_8 C15_8 1_555 1_555
C16_8 N3_8 1_555 1_555
H16_8 C16_8 1_555 1_555
H17_8 C16_8 1_555 1_555
H18_8 C16_8 1_555 1_555
C17_8 N3_8 1_555 1_555
H19_8 C17_8 1_555 1_555
H20_8 C17_8 1_555 1_555
H21_8 C17_8 1_555 1_555
N3_9 C14_9 1_555 1_555
C14_9 H10_9 1_555 1_555
H11_9 C14_9 1_555 1_555
H12_9 C14_9 1_555 1_555
C15_9 N3_9 1_555 1_555
H13_9 C15_9 1_555 1_555
H14_9 C15_9 1_555 1_555
H15_9 C15_9 1_555 1_555
C16_9 N3_9 1_555 1_555
H16_9 C16_9 1_555 1_555
H17_9 C16_9 1_555 1_555
H18_9 C16_9 1_555 1_555
C17_9 N3_9 1_555 1_555
H19_9 C17_9 1_555 1_555
H20_9 C17_9 1_555 1_555
H21_9 C17_9 1_555 1_555
N3_10 C14_10 1_555 1_555
C14_10 H10_10 1_555 1_555
H11_10 C14_10 1_555 1_555
H12_10 C14_10 1_555 1_555
C15_10 N3_10 1_555 1_555
H13_10 C15_10 1_555 1_555
H14_10 C15_10 1_555 1_555
H15_10 C15_10 1_555 1_555
C16_10 N3_10 1_555 1_555
H16_10 C16_10 1_555 1_555
H17_10 C16_10 1_555 1_555
H18_10 C16_10 1_555 1_555
C17_10 N3_10 1_555 1_555
H19_10 C17_10 1_555 1_555
H20_10 C17_10 1_555 1_555
H21_10 C17_10 1_555 1_555
N3_11 C14_11 1_555 1_555
C14_11 H10_11 1_555 1_555
H11_11 C14_11 1_555 1_555
H12_11 C14_11 1_555 1_555
C15_11 N3_11 1_555 1_555
H13_11 C15_11 1_555 1_555
H14_11 C15_11 1_555 1_555
H15_11 C15_11 1_555 1_555
C16_11 N3_11 1_555 1_555
H16_11 C16_11 1_555 1_555
H17_11 C16_11 1_555 1_555
H18_11 C16_11 1_555 1_555
C17_11 N3_11 1_555 1_555
H19_11 C17_11 1_555 1_555
H20_11 C17_11 1_555 1_555
H21_11 C17_11 1_555 1_555
N3_12 C14_12 1_555 1_555
C14_12 H10_12 1_555 1_555
H11_12 C14_12 1_555 1_555
H12_12 C14_12 1_555 1_555
C15_12 N3_12 1_555 1_555
H13_12 C15_12 1_555 1_555
H14_12 C15_12 1_555 1_555
H15_12 C15_12 1_555 1_555
C16_12 N3_12 1_555 1_555
H16_12 C16_12 1_555 1_555
H17_12 C16_12 1_555 1_555
H18_12 C16_12 1_555 1_555
C17_12 N3_12 1_555 1_555
H19_12 C17_12 1_555 1_555
H20_12 C17_12 1_555 1_555
H21_12 C17_12 1_555 1_555
N3_13 C14_13 1_555 1_555
C14_13 H10_13 1_555 1_555
H11_13 C14_13 1_555 1_555
H12_13 C14_13 1_555 1_555
C15_13 N3_13 1_555 1_555
H13_13 C15_13 1_555 1_555
H14_13 C15_13 1_555 1_555
H15_13 C15_13 1_555 1_555
C16_13 N3_13 1_555 1_555
H16_13 C16_13 1_555 1_555
H17_13 C16_13 1_555 1_555
H18_13 C16_13 1_555 1_555
C17_13 N3_13 1_555 1_555
H19_13 C17_13 1_555 1_555
H20_13 C17_13 1_555 1_555
H21_13 C17_13 1_555 1_555
N3_14 C14_14 1_555 1_555
C14_14 H10_14 1_555 1_555
H11_14 C14_14 1_555 1_555
H12_14 C14_14 1_555 1_555
C15_14 N3_14 1_555 1_555
H13_14 C15_14 1_555 1_555
H14_14 C15_14 1_555 1_555
H15_14 C15_14 1_555 1_555
C16_14 N3_14 1_555 1_555
H16_14 C16_14 1_555 1_555
H17_14 C16_14 1_555 1_555
H18_14 C16_14 1_555 1_555
C17_14 N3_14 1_555 1_555
H19_14 C17_14 1_555 1_555
H20_14 C17_14 1_555 1_555
H21_14 C17_14 1_555 1_555
N3_15 C14_15 1_555 1_555
C14_15 H10_15 1_555 1_555
H11_15 C14_15 1_555 1_555
H12_15 C14_15 1_555 1_555
C15_15 N3_15 1_555 1_555
H13_15 C15_15 1_555 1_555
H14_15 C15_15 1_555 1_555
H15_15 C15_15 1_555 1_555
C16_15 N3_15 1_555 1_555
H16_15 C16_15 1_555 1_555
H17_15 C16_15 1_555 1_555
H18_15 C16_15 1_555 1_555
C17_15 N3_15 1_555 1_555
H19_15 C17_15 1_555 1_555
H20_15 C17_15 1_555 1_555
H21_15 C17_15 1_555 1_555
N3_16 C14_16 1_555 1_555
C14_16 H10_16 1_555 1_555
H11_16 C14_16 1_555 1_555
H12_16 C14_16 1_555 1_555
C15_16 N3_16 1_555 1_555
H13_16 C15_16 1_555 1_555
H14_16 C15_16 1_555 1_555
H15_16 C15_16 1_555 1_555
C16_16 N3_16 1_555 1_555
H16_16 C16_16 1_555 1_555
H17_16 C16_16 1_555 1_555
H18_16 C16_16 1_555 1_555
C17_16 N3_16 1_555 1_555
H19_16 C17_16 1_555 1_555
H20_16 C17_16 1_555 1_555
H21_16 C17_16 1_555 1_555
N3_17 C14_17 1_555 1_555
C14_17 H10_17 1_555 1_555
H11_17 C14_17 1_555 1_555
H12_17 C14_17 1_555 1_555
C15_17 N3_17 1_555 1_555
H13_17 C15_17 1_555 1_555
H14_17 C15_17 1_555 1_555
H15_17 C15_17 1_555 1_555
C16_17 N3_17 1_555 1_555
H16_17 C16_17 1_555 1_555
H17_17 C16_17 1_555 1_555
H18_17 C16_17 1_555 1_555
C17_17 N3_17 1_555 1_555
H19_17 C17_17 1_555 1_555
H20_17 C17_17 1_555 1_555
H21_17 C17_17 1_555 1_555
N3_18 C14_18 1_555 1_555
C14_18 H10_18 1_555 1_555
H11_18 C14_18 1_555 1_555
H12_18 C14_18 1_555 1_555
C15_18 N3_18 1_555 1_555
H13_18 C15_18 1_555 1_555
H14_18 C15_18 1_555 1_555
H15_18 C15_18 1_555 1_555
C16_18 N3_18 1_555 1_555
H16_18 C16_18 1_555 1_555
H17_18 C16_18 1_555 1_555
H18_18 C16_18 1_555 1_555
C17_18 N3_18 1_555 1_555
H19_18 C17_18 1_555 1_555
H20_18 C17_18 1_555 1_555
H21_18 C17_18 1_555 1_555
N3_19 C14_19 1_555 1_555
C14_19 H10_19 1_555 1_555
H11_19 C14_19 1_555 1_555
H12_19 C14_19 1_555 1_555
C15_19 N3_19 1_555 1_555
H13_19 C15_19 1_555 1_555
H14_19 C15_19 1_555 1_555
H15_19 C15_19 1_555 1_555
C16_19 N3_19 1_555 1_555
H16_19 C16_19 1_555 1_555
H17_19 C16_19 1_555 1_555
H18_19 C16_19 1_555 1_555
C17_19 N3_19 1_555 1_555
H19_19 C17_19 1_555 1_555
H20_19 C17_19 1_555 1_555
H21_19 C17_19 1_555 1_555
N3_20 C14_20 1_555 1_555
C14_20 H10_20 1_555 1_555
H11_20 C14_20 1_555 1_555
H12_20 C14_20 1_555 1_555
C15_20 N3_20 1_555 1_555
H13_20 C15_20 1_555 1_555
H14_20 C15_20 1_555 1_555
H15_20 C15_20 1_555 1_555
C16_20 N3_20 1_555 1_555
H16_20 C16_20 1_555 1_555
H17_20 C16_20 1_555 1_555
H18_20 C16_20 1_555 1_555
C17_20 N3_20 1_555 1_555
H19_20 C17_20 1_555 1_555
H20_20 C17_20 1_555 1_555
H21_20 C17_20 1_555 1_555
N3_21 C14_21 1_555 1_555
C14_21 H10_21 1_555 1_555
H11_21 C14_21 1_555 1_555
H12_21 C14_21 1_555 1_555
C15_21 N3_21 1_555 1_555
H13_21 C15_21 1_555 1_555
H14_21 C15_21 1_555 1_555
H15_21 C15_21 1_555 1_555
C16_21 N3_21 1_555 1_555
H16_21 C16_21 1_555 1_555
H17_21 C16_21 1_555 1_555
H18_21 C16_21 1_555 1_555
C17_21 N3_21 1_555 1_555
H19_21 C17_21 1_555 1_555
H20_21 C17_21 1_555 1_555
H21_21 C17_21 1_555 1_555
N3_22 C14_22 1_555 1_555
C14_22 H10_22 1_555 1_555
H11_22 C14_22 1_555 1_555
H12_22 C14_22 1_555 1_555
C15_22 N3_22 1_555 1_555
H13_22 C15_22 1_555 1_555
H14_22 C15_22 1_555 1_555
H15_22 C15_22 1_555 1_555
C16_22 N3_22 1_555 1_555
H16_22 C16_22 1_555 1_555
H17_22 C16_22 1_555 1_555
H18_22 C16_22 1_555 1_555
C17_22 N3_22 1_555 1_555
H19_22 C17_22 1_555 1_555
H20_22 C17_22 1_555 1_555
H21_22 C17_22 1_555 1_555
N3_23 C14_23 1_555 1_555
C14_23 H10_23 1_555 1_555
H11_23 C14_23 1_555 1_555
H12_23 C14_23 1_555 1_555
C15_23 N3_23 1_555 1_555
H13_23 C15_23 1_555 1_555
H14_23 C15_23 1_555 1_555
H15_23 C15_23 1_555 1_555
C16_23 N3_23 1_555 1_555
H16_23 C16_23 1_555 1_555
H17_23 C16_23 1_555 1_555
H18_23 C16_23 1_555 1_555
C17_23 N3_23 1_555 1_555
H19_23 C17_23 1_555 1_555
H20_23 C17_23 1_555 1_555
H21_23 C17_23 1_555 1_555
N3_24 C14_24 1_555 1_555
C14_24 H10_24 1_555 1_555
H11_24 C14_24 1_555 1_555
H12_24 C14_24 1_555 1_555
C15_24 N3_24 1_555 1_555
H13_24 C15_24 1_555 1_555
H14_24 C15_24 1_555 1_555
H15_24 C15_24 1_555 1_555
C16_24 N3_24 1_555 1_555
H16_24 C16_24 1_555 1_555
H17_24 C16_24 1_555 1_555
H18_24 C16_24 1_555 1_555
C17_24 N3_24 1_555 1_555
H19_24 C17_24 1_555 1_555
H20_24 C17_24 1_555 1_555
H21_24 C17_24 1_555 1_555

#END
