
###############################################################################
#
# This file contains modified crystal structure data generated from the
# MOF subset of the Cambridge Structural Database (CSD) v543 
# hosted by the Cambridge Crystallographic Data Centre (CCDC).
#
# This work is licensed under the Creative Commons
# Attribution-NonCommercial-ShareAlike 4.0 International License.
# To view a copy of this license, visit
# http://creativecommons.org/licenses/by-nc-sa/4.0/
# or send a letter to
# Creative Commons, PO Box 1866, Mountain View, CA 94042, USA.
#
# CIF created using the CSD Python API on 29 September 2022
# The structure has been converted into the P1 space group
# The structure has a 3D framework
# The original CSD entry FINFUG is in the cubic crystal system
# The framework has been calculated to contain at least 10.0% void space
# The void calculation uses a probe of radius 1.32A, grid spacing 0.4
# The framework is charged, counterions have been retained in the structure
#
###############################################################################

data_FINFUG
_chemical_formula_moiety         '(C504 H288 Dy31 O160 3-)n'
_symmetry_cell_setting           triclinic
_symmetry_space_group_name_H-M   'P 1'
_symmetry_Int_Tables_number      1
_space_group_name_Hall           'P 1'
loop_
_symmetry_equiv_pos_site_id
_symmetry_equiv_pos_as_xyz
1 x,y,z
_cell_length_a                   27.5659(2)
_cell_length_b                   27.5659(2)
_cell_length_c                   27.5659(2)
_cell_angle_alpha                90
_cell_angle_beta                 90
_cell_angle_gamma                90
_cell_volume                     20946.7
loop_
_atom_site_label
_atom_site_type_symbol
_atom_site_fract_x
_atom_site_fract_y
_atom_site_fract_z
Dy11 Dy 0.0000 0.5000 0.89999(3)
Dy9 Dy 0.5000 -0.0000 0.10001(3)
Dy10 Dy 0.5000 0.0000 0.89999(3)
Dy8 Dy 0.5000 0.89999(3) 0.0000
Dy12 Dy 0.89999(3) 0.5000 0.0000
Dy1 Dy 0.5000 0.60001(3) 0.5000
C1 C 0.5000 0.6204(4) 0.6204(4)
C2 C 0.5000 0.6593(4) 0.6593(4)
C3 C 0.5000 0.7069(6) 0.6472(5)
H1 H 0.5000 0.7158 0.6143
C4 C 0.5000 0.7428(6) 0.6828(6)
H2 H 0.5000 0.7757 0.6736
C5 C 0.5000 0.7307(4) 0.7307(4)
O1 O 0.5000 0.6359(3) 0.5761(2)
O2 O 0.45415(16) 0.54585(16) 0.45415(16)
C6 C 0.5000 0.6472(5) 0.7069(6)
H3 H 0.5000 0.6143 0.7158
C7 C 0.5000 0.6828(6) 0.7428(6)
H4 H 0.5000 0.6736 0.7757
O3 O 0.5000 0.5761(2) 0.6359(3)
C8 C 0.5000 0.8796(4) 0.8796(4)
C9 C 0.5000 0.8407(4) 0.8407(4)
C10 C 0.5000 0.7931(6) 0.8528(5)
H5 H 0.5000 0.7842 0.8857
C11 C 0.5000 0.7572(6) 0.8172(6)
H6 H 0.5000 0.7243 0.8264
C12 C 0.5000 0.7693(4) 0.7693(4)
O4 O 0.5000 0.8641(3) 0.9239(2)
C13 C 0.5000 0.8528(5) 0.7931(6)
H7 H 0.5000 0.8857 0.7842
C14 C 0.5000 0.8172(6) 0.7572(6)
H8 H 0.5000 0.8264 0.7243
O5 O 0.5000 0.9239(2) 0.8641(3)
C15 C 0.5000 0.6204(4) 0.3796(4)
C16 C 0.5000 0.6593(4) 0.3407(4)
C17 C 0.5000 0.7069(6) 0.3528(5)
H9 H 0.5000 0.7158 0.3857
C18 C 0.5000 0.7428(6) 0.3172(6)
H10 H 0.5000 0.7757 0.3264
C19 C 0.5000 0.7307(4) 0.2693(4)
O6 O 0.5000 0.6359(3) 0.4239(2)
O7 O 0.54585(16) 0.54585(16) 0.54585(16)
C20 C 0.5000 0.6472(5) 0.2931(6)
H11 H 0.5000 0.6143 0.2842
C21 C 0.5000 0.6828(6) 0.2572(6)
H12 H 0.5000 0.6736 0.2243
O8 O 0.5000 0.5761(2) 0.3641(3)
C22 C 0.5000 0.8796(4) 0.1204(4)
C23 C 0.5000 0.8407(4) 0.1593(4)
C24 C 0.5000 0.7931(6) 0.1472(5)
H13 H 0.5000 0.7842 0.1143
C25 C 0.5000 0.7572(6) 0.1828(6)
H14 H 0.5000 0.7243 0.1736
C26 C 0.5000 0.7693(4) 0.2307(4)
O9 O 0.5000 0.8641(3) 0.0761(2)
C27 C 0.5000 0.8528(5) 0.2069(6)
H15 H 0.5000 0.8857 0.2158
C28 C 0.5000 0.8172(6) 0.2428(6)
H16 H 0.5000 0.8264 0.2757
O10 O 0.5000 0.9239(2) 0.1359(3)
Dy2 Dy 0.5000 0.5000 0.60001(3)
C29 C 0.6204(4) 0.5000 0.6204(4)
C30 C 0.6593(4) 0.5000 0.6593(4)
C31 C 0.6472(5) 0.5000 0.7069(6)
H17 H 0.6143 0.5000 0.7158
C32 C 0.6828(6) 0.5000 0.7428(6)
H18 H 0.6736 0.5000 0.7757
C33 C 0.7307(4) 0.5000 0.7307(4)
O11 O 0.5761(2) 0.5000 0.6359(3)
O12 O 0.45415(16) 0.45415(16) 0.54585(16)
C34 C 0.7069(6) 0.5000 0.6472(5)
H19 H 0.7158 0.5000 0.6143
C35 C 0.7428(6) 0.5000 0.6828(6)
H20 H 0.7757 0.5000 0.6736
O13 O 0.6359(3) 0.5000 0.5761(2)
C36 C 0.8796(4) 0.5000 0.8796(4)
C37 C 0.8407(4) 0.5000 0.8407(4)
C38 C 0.8528(5) 0.5000 0.7931(6)
H21 H 0.8857 0.5000 0.7842
C39 C 0.8172(6) 0.5000 0.7572(6)
H22 H 0.8264 0.5000 0.7243
C40 C 0.7693(4) 0.5000 0.7693(4)
O14 O 0.9239(2) 0.5000 0.8641(3)
C41 C 0.7931(6) 0.5000 0.8528(5)
H23 H 0.7842 0.5000 0.8857
C42 C 0.7572(6) 0.5000 0.8172(6)
H24 H 0.7243 0.5000 0.8264
O15 O 0.8641(3) 0.5000 0.9239(2)
Dy3 Dy 0.5000 0.5000 0.39999(3)
O16 O 0.54585(16) 0.45415(16) 0.45415(16)
Dy4 Dy 0.5000 0.39999(3) 0.5000
Dy5 Dy 0.60001(3) 0.5000 0.5000
Dy6 Dy 0.39999(3) 0.5000 0.5000
Dy8_2 Dy 0.5000 0.89999(3) 1.0000
Dy9_2 Dy 0.5000 1.0000 0.10001(3)
Dy10_2 Dy 0.5000 1.0000 0.89999(3)
Dy11_2 Dy 1.0000 0.5000 0.89999(3)
Dy12_2 Dy 0.89999(3) 0.5000 1.0000
O17 O 0.5761(2) 0.5000 0.3641(3)
O18 O 0.4239(2) 0.5000 0.6359(3)
O19 O 0.4239(2) 0.5000 0.3641(3)
O20 O 0.5000 0.4239(2) 0.3641(3)
O21 O 0.5000 0.4239(2) 0.6359(3)
O22 O 0.5761(2) 0.6359(3) 0.5000
O23 O 0.4239(2) 0.6359(3) 0.5000
O24 O 0.54585(16) 0.45415(16) 0.54585(16)
O25 O 0.45415(16) 0.54585(16) 0.54585(16)
O26 O 0.54585(16) 0.54585(16) 0.45415(16)
O27 O 0.45415(16) 0.45415(16) 0.45415(16)
Dy8_3 Dy 0.5000 0.10001(3) 0.0000
Dy12_3 Dy 0.10001(3) 0.5000 0.0000
C1_2 C 0.5000 0.3796(4) 0.6204(4)
C2_2 C 0.5000 0.3407(4) 0.6593(4)
C3_2 C 0.5000 0.2931(6) 0.6472(5)
H1_2 H 0.5000 0.2842 0.6143
C4_2 C 0.5000 0.2572(6) 0.6828(6)
H2_2 H 0.5000 0.2243 0.6736
C5_2 C 0.5000 0.2693(4) 0.7307(4)
O1_2 O 0.5000 0.3641(3) 0.5761(2)
C6_2 C 0.5000 0.3528(5) 0.7069(6)
H3_2 H 0.5000 0.3857 0.7158
C7_2 C 0.5000 0.3172(6) 0.7428(6)
H4_2 H 0.5000 0.3264 0.7757
C8_2 C 0.5000 0.1204(4) 0.8796(4)
C9_2 C 0.5000 0.1593(4) 0.8407(4)
C10_2 C 0.5000 0.2069(6) 0.8528(5)
H5_2 H 0.5000 0.2158 0.8857
C11_2 C 0.5000 0.2428(6) 0.8172(6)
H6_2 H 0.5000 0.2757 0.8264
C12_2 C 0.5000 0.2307(4) 0.7693(4)
O4_2 O 0.5000 0.1359(3) 0.9239(2)
C13_2 C 0.5000 0.1472(5) 0.7931(6)
H7_2 H 0.5000 0.1143 0.7842
C14_2 C 0.5000 0.1828(6) 0.7572(6)
H8_2 H 0.5000 0.1736 0.7243
O5_2 O 0.5000 0.0761(2) 0.8641(3)
C15_2 C 0.5000 0.3796(4) 0.3796(4)
C16_2 C 0.5000 0.3407(4) 0.3407(4)
C17_2 C 0.5000 0.2931(6) 0.3528(5)
H9_2 H 0.5000 0.2842 0.3857
C18_2 C 0.5000 0.2572(6) 0.3172(6)
H10_2 H 0.5000 0.2243 0.3264
C19_2 C 0.5000 0.2693(4) 0.2693(4)
O6_2 O 0.5000 0.3641(3) 0.4239(2)
C20_2 C 0.5000 0.3528(5) 0.2931(6)
H11_2 H 0.5000 0.3857 0.2842
C21_2 C 0.5000 0.3172(6) 0.2572(6)
H12_2 H 0.5000 0.3264 0.2243
C22_2 C 0.5000 0.1204(4) 0.1204(4)
C23_2 C 0.5000 0.1593(4) 0.1593(4)
C24_2 C 0.5000 0.2069(6) 0.1472(5)
H13_2 H 0.5000 0.2158 0.1143
C25_2 C 0.5000 0.2428(6) 0.1828(6)
H14_2 H 0.5000 0.2757 0.1736
C26_2 C 0.5000 0.2307(4) 0.2307(4)
O9_2 O 0.5000 0.1359(3) 0.0761(2)
C27_2 C 0.5000 0.1472(5) 0.2069(6)
H15_2 H 0.5000 0.1143 0.2158
C28_2 C 0.5000 0.1828(6) 0.2428(6)
H16_2 H 0.5000 0.1736 0.2757
O10_2 O 0.5000 0.0761(2) 0.1359(3)
C29_2 C 0.3796(4) 0.5000 0.6204(4)
C30_2 C 0.3407(4) 0.5000 0.6593(4)
C31_2 C 0.3528(5) 0.5000 0.7069(6)
H17_2 H 0.3857 0.5000 0.7158
C32_2 C 0.3172(6) 0.5000 0.7428(6)
H18_2 H 0.3264 0.5000 0.7757
C33_2 C 0.2693(4) 0.5000 0.7307(4)
C34_2 C 0.2931(6) 0.5000 0.6472(5)
H19_2 H 0.2842 0.5000 0.6143
C35_2 C 0.2572(6) 0.5000 0.6828(6)
H20_2 H 0.2243 0.5000 0.6736
O13_2 O 0.3641(3) 0.5000 0.5761(2)
C36_2 C 0.1204(4) 0.5000 0.8796(4)
C37_2 C 0.1593(4) 0.5000 0.8407(4)
C38_2 C 0.1472(5) 0.5000 0.7931(6)
H21_2 H 0.1143 0.5000 0.7842
C39_2 C 0.1828(6) 0.5000 0.7572(6)
H22_2 H 0.1736 0.5000 0.7243
C40_2 C 0.2307(4) 0.5000 0.7693(4)
O14_2 O 0.0761(2) 0.5000 0.8641(3)
C41_2 C 0.2069(6) 0.5000 0.8528(5)
H23_2 H 0.2158 0.5000 0.8857
C42_2 C 0.2428(6) 0.5000 0.8172(6)
H24_2 H 0.2757 0.5000 0.8264
O15_2 O 0.1359(3) 0.5000 0.9239(2)
Dy8_4 Dy 0.5000 0.10001(3) 1.0000
Dy12_4 Dy 0.10001(3) 0.5000 1.0000
O22_2 O 0.4239(2) 0.3641(3) 0.5000
O23_2 O 0.5761(2) 0.3641(3) 0.5000
C29_3 C 0.3796(4) 0.5000 0.3796(4)
C30_3 C 0.3407(4) 0.5000 0.3407(4)
C31_3 C 0.3528(5) 0.5000 0.2931(6)
H17_3 H 0.3857 0.5000 0.2842
C32_3 C 0.3172(6) 0.5000 0.2572(6)
H18_3 H 0.3264 0.5000 0.2243
C33_3 C 0.2693(4) 0.5000 0.2693(4)
C34_3 C 0.2931(6) 0.5000 0.3528(5)
H19_3 H 0.2842 0.5000 0.3857
C35_3 C 0.2572(6) 0.5000 0.3172(6)
H20_3 H 0.2243 0.5000 0.3264
O13_3 O 0.3641(3) 0.5000 0.4239(2)
C36_3 C 0.1204(4) 0.5000 0.1204(4)
C37_3 C 0.1593(4) 0.5000 0.1593(4)
C38_3 C 0.1472(5) 0.5000 0.2069(6)
H21_3 H 0.1143 0.5000 0.2158
C39_3 C 0.1828(6) 0.5000 0.2428(6)
H22_3 H 0.1736 0.5000 0.2757
C40_3 C 0.2307(4) 0.5000 0.2307(4)
O14_3 O 0.0761(2) 0.5000 0.1359(3)
C41_3 C 0.2069(6) 0.5000 0.1472(5)
H23_3 H 0.2158 0.5000 0.1143
C42_3 C 0.2428(6) 0.5000 0.1828(6)
H24_3 H 0.2757 0.5000 0.1736
O15_3 O 0.1359(3) 0.5000 0.0761(2)
Dy11_3 Dy -0.0000 0.5000 0.10001(3)
Dy11_4 Dy 1.0000 0.5000 0.10001(3)
C29_4 C 0.6204(4) 0.5000 0.3796(4)
C30_4 C 0.6593(4) 0.5000 0.3407(4)
C31_4 C 0.6472(5) 0.5000 0.2931(6)
H17_4 H 0.6143 0.5000 0.2842
C32_4 C 0.6828(6) 0.5000 0.2572(6)
H18_4 H 0.6736 0.5000 0.2243
C33_4 C 0.7307(4) 0.5000 0.2693(4)
C34_4 C 0.7069(6) 0.5000 0.3528(5)
H19_4 H 0.7158 0.5000 0.3857
C35_4 C 0.7428(6) 0.5000 0.3172(6)
H20_4 H 0.7757 0.5000 0.3264
O13_4 O 0.6359(3) 0.5000 0.4239(2)
C36_4 C 0.8796(4) 0.5000 0.1204(4)
C37_4 C 0.8407(4) 0.5000 0.1593(4)
C38_4 C 0.8528(5) 0.5000 0.2069(6)
H21_4 H 0.8857 0.5000 0.2158
C39_4 C 0.8172(6) 0.5000 0.2428(6)
H22_4 H 0.8264 0.5000 0.2757
C40_4 C 0.7693(4) 0.5000 0.2307(4)
O14_4 O 0.9239(2) 0.5000 0.1359(3)
C41_4 C 0.7931(6) 0.5000 0.1472(5)
H23_4 H 0.7842 0.5000 0.1143
C42_4 C 0.7572(6) 0.5000 0.1828(6)
H24_4 H 0.7243 0.5000 0.1736
O15_4 O 0.8641(3) 0.5000 0.0761(2)
Dy12_5 Dy -0.0000 0.89999(3) 0.5000
Dy11_5 Dy 0.89999(3) -0.0000 0.5000
C29_5 C 0.6204(4) 0.6204(4) 0.5000
C30_5 C 0.6593(4) 0.6593(4) 0.5000
C31_5 C 0.7069(6) 0.6472(5) 0.5000
H17_5 H 0.7158 0.6143 0.5000
C32_5 C 0.7428(6) 0.6828(6) 0.5000
H18_5 H 0.7757 0.6736 0.5000
C33_5 C 0.7307(4) 0.7307(4) 0.5000
O11_2 O 0.6359(3) 0.5761(2) 0.5000
C34_5 C 0.6472(5) 0.7069(6) 0.5000
H19_5 H 0.6143 0.7158 0.5000
C35_5 C 0.6828(6) 0.7428(6) 0.5000
H20_5 H 0.6736 0.7757 0.5000
C36_5 C 0.8796(4) 0.8796(4) 0.5000
C37_5 C 0.8407(4) 0.8407(4) 0.5000
C38_5 C 0.7931(6) 0.8528(5) 0.5000
H21_5 H 0.7842 0.8857 0.5000
C39_5 C 0.7572(6) 0.8172(6) 0.5000
H22_5 H 0.7243 0.8264 0.5000
C40_5 C 0.7693(4) 0.7693(4) 0.5000
O14_5 O 0.8641(3) 0.9239(2) 0.5000
C41_5 C 0.8528(5) 0.7931(6) 0.5000
H23_5 H 0.8857 0.7842 0.5000
C42_5 C 0.8172(6) 0.7572(6) 0.5000
H24_5 H 0.8264 0.7243 0.5000
O15_5 O 0.9239(2) 0.8641(3) 0.5000
Dy11_6 Dy 0.89999(3) 1.0000 0.5000
Dy12_6 Dy 1.0000 0.89999(3) 0.5000
O17_2 O 0.3641(3) 0.5761(2) 0.5000
O18_2 O 0.6359(3) 0.4239(2) 0.5000
O19_2 O 0.3641(3) 0.4239(2) 0.5000
Dy12_7 Dy -0.0000 0.10001(3) 0.5000
C29_6 C 0.6204(4) 0.3796(4) 0.5000
C30_6 C 0.6593(4) 0.3407(4) 0.5000
C31_6 C 0.7069(6) 0.3528(5) 0.5000
H17_6 H 0.7158 0.3857 0.5000
C32_6 C 0.7428(6) 0.3172(6) 0.5000
H18_6 H 0.7757 0.3264 0.5000
C33_6 C 0.7307(4) 0.2693(4) 0.5000
C34_6 C 0.6472(5) 0.2931(6) 0.5000
H19_6 H 0.6143 0.2842 0.5000
C35_6 C 0.6828(6) 0.2572(6) 0.5000
H20_6 H 0.6736 0.2243 0.5000
C36_6 C 0.8796(4) 0.1204(4) 0.5000
C37_6 C 0.8407(4) 0.1593(4) 0.5000
C38_6 C 0.7931(6) 0.1472(5) 0.5000
H21_6 H 0.7842 0.1143 0.5000
C39_6 C 0.7572(6) 0.1828(6) 0.5000
H22_6 H 0.7243 0.1736 0.5000
C40_6 C 0.7693(4) 0.2307(4) 0.5000
O14_6 O 0.8641(3) 0.0761(2) 0.5000
C41_6 C 0.8528(5) 0.2069(6) 0.5000
H23_6 H 0.8857 0.2158 0.5000
C42_6 C 0.8172(6) 0.2428(6) 0.5000
H24_6 H 0.8264 0.2757 0.5000
O15_6 O 0.9239(2) 0.1359(3) 0.5000
Dy12_8 Dy 1.0000 0.10001(3) 0.5000
C29_7 C 0.3796(4) 0.3796(4) 0.5000
C30_7 C 0.3407(4) 0.3407(4) 0.5000
C31_7 C 0.2931(6) 0.3528(5) 0.5000
H17_7 H 0.2842 0.3857 0.5000
C32_7 C 0.2572(6) 0.3172(6) 0.5000
H18_7 H 0.2243 0.3264 0.5000
C33_7 C 0.2693(4) 0.2693(4) 0.5000
C34_7 C 0.3528(5) 0.2931(6) 0.5000
H19_7 H 0.3857 0.2842 0.5000
C35_7 C 0.3172(6) 0.2572(6) 0.5000
H20_7 H 0.3264 0.2243 0.5000
C36_7 C 0.1204(4) 0.1204(4) 0.5000
C37_7 C 0.1593(4) 0.1593(4) 0.5000
C38_7 C 0.2069(6) 0.1472(5) 0.5000
H21_7 H 0.2158 0.1143 0.5000
C39_7 C 0.2428(6) 0.1828(6) 0.5000
H22_7 H 0.2757 0.1736 0.5000
C40_7 C 0.2307(4) 0.2307(4) 0.5000
O14_7 O 0.1359(3) 0.0761(2) 0.5000
C41_7 C 0.1472(5) 0.2069(6) 0.5000
H23_7 H 0.1143 0.2158 0.5000
C42_7 C 0.1828(6) 0.2428(6) 0.5000
H24_7 H 0.1736 0.2757 0.5000
O15_7 O 0.0761(2) 0.1359(3) 0.5000
Dy11_7 Dy 0.10001(3) -0.0000 0.5000
Dy11_8 Dy 0.10001(3) 1.0000 0.5000
C29_8 C 0.3796(4) 0.6204(4) 0.5000
C30_8 C 0.3407(4) 0.6593(4) 0.5000
C31_8 C 0.2931(6) 0.6472(5) 0.5000
H17_8 H 0.2842 0.6143 0.5000
C32_8 C 0.2572(6) 0.6828(6) 0.5000
H18_8 H 0.2243 0.6736 0.5000
C33_8 C 0.2693(4) 0.7307(4) 0.5000
C34_8 C 0.3528(5) 0.7069(6) 0.5000
H19_8 H 0.3857 0.7158 0.5000
C35_8 C 0.3172(6) 0.7428(6) 0.5000
H20_8 H 0.3264 0.7757 0.5000
C36_8 C 0.1204(4) 0.8796(4) 0.5000
C37_8 C 0.1593(4) 0.8407(4) 0.5000
C38_8 C 0.2069(6) 0.8528(5) 0.5000
H21_8 H 0.2158 0.8857 0.5000
C39_8 C 0.2428(6) 0.8172(6) 0.5000
H22_8 H 0.2757 0.8264 0.5000
C40_8 C 0.2307(4) 0.7693(4) 0.5000
O14_8 O 0.1359(3) 0.9239(2) 0.5000
C41_8 C 0.1472(5) 0.7931(6) 0.5000
H23_8 H 0.1143 0.7842 0.5000
C42_8 C 0.1828(6) 0.7572(6) 0.5000
H24_8 H 0.1736 0.7243 0.5000
O15_8 O 0.0761(2) 0.8641(3) 0.5000
Dy11_9 Dy -0.0000 0.0000 0.39999(3)
Dy11_10 Dy -0.0000 1.0000 0.39999(3)
O7_2 O 0.54585(16) 0.04585(16) 0.04585(16)
C29_9 C 0.6204(4) 0.0000 0.1204(4)
C30_9 C 0.6593(4) 0.0000 0.1593(4)
C31_9 C 0.6472(5) 0.0000 0.2069(6)
H17_9 H 0.6143 0.0000 0.2158
C32_9 C 0.6828(6) 0.0000 0.2428(6)
H18_9 H 0.6736 0.0000 0.2757
C33_9 C 0.7307(4) 0.0000 0.2307(4)
O11_3 O 0.5761(2) 0.0000 0.1359(3)
C34_9 C 0.7069(6) 0.0000 0.1472(5)
H19_9 H 0.7158 0.0000 0.1143
C35_9 C 0.7428(6) 0.0000 0.1828(6)
H20_9 H 0.7757 0.0000 0.1736
O13_5 O 0.6359(3) 0.0000 0.0761(2)
C36_9 C 0.8796(4) 0.0000 0.3796(4)
C37_9 C 0.8407(4) 0.0000 0.3407(4)
C38_9 C 0.8528(5) 0.0000 0.2931(6)
H21_9 H 0.8857 0.0000 0.2842
C39_9 C 0.8172(6) 0.0000 0.2572(6)
H22_9 H 0.8264 0.0000 0.2243
C40_9 C 0.7693(4) 0.0000 0.2693(4)
O14_9 O 0.9239(2) 0.0000 0.3641(3)
C41_9 C 0.7931(6) 0.0000 0.3528(5)
H23_9 H 0.7842 0.0000 0.3857
C42_9 C 0.7572(6) 0.0000 0.3172(6)
H24_9 H 0.7243 0.0000 0.3264
O15_9 O 0.8641(3) -0.0000 0.4239(2)
Dy5_2 Dy 0.60001(3) -0.0000 0.0000
Dy6_2 Dy 0.39999(3) -0.0000 0.0000
Dy11_11 Dy 1.0000 0.0000 0.39999(3)
O18_3 O 0.4239(2) 0.0000 0.1359(3)
O22_3 O 0.5761(2) 0.1359(3) 0.0000
O23_3 O 0.4239(2) 0.1359(3) 0.0000
O25_2 O 0.45415(16) 0.04585(16) 0.04585(16)
O2_2 O 0.45415(16) 0.04585(16) 0.95415(16)
Dy5_3 Dy 0.60001(3) -0.0000 1.0000
Dy6_3 Dy 0.39999(3) -0.0000 1.0000
O17_3 O 0.5761(2) -0.0000 0.8641(3)
O19_3 O 0.4239(2) -0.0000 0.8641(3)
O22_4 O 0.5761(2) 0.1359(3) 1.0000
O23_4 O 0.4239(2) 0.1359(3) 1.0000
O26_2 O 0.54585(16) 0.04585(16) 0.95415(16)
C29_10 C 0.6204(4) 1.0000 0.1204(4)
C30_10 C 0.6593(4) 1.0000 0.1593(4)
C31_10 C 0.6472(5) 1.0000 0.2069(6)
H17_10 H 0.6143 1.0000 0.2158
C32_10 C 0.6828(6) 1.0000 0.2428(6)
H18_10 H 0.6736 1.0000 0.2757
C33_10 C 0.7307(4) 1.0000 0.2307(4)
O11_4 O 0.5761(2) 1.0000 0.1359(3)
O12_2 O 0.45415(16) 0.95415(16) 0.04585(16)
C34_10 C 0.7069(6) 1.0000 0.1472(5)
H19_10 H 0.7158 1.0000 0.1143
C35_10 C 0.7428(6) 1.0000 0.1828(6)
H20_10 H 0.7757 1.0000 0.1736
O13_6 O 0.6359(3) 1.0000 0.0761(2)
C36_10 C 0.8796(4) 1.0000 0.3796(4)
C37_10 C 0.8407(4) 1.0000 0.3407(4)
C38_10 C 0.8528(5) 1.0000 0.2931(6)
H21_10 H 0.8857 1.0000 0.2842
C39_10 C 0.8172(6) 1.0000 0.2572(6)
H22_10 H 0.8264 1.0000 0.2243
C40_10 C 0.7693(4) 1.0000 0.2693(4)
O14_10 O 0.9239(2) 1.0000 0.3641(3)
C41_10 C 0.7931(6) 1.0000 0.3528(5)
H23_10 H 0.7842 1.0000 0.3857
C42_10 C 0.7572(6) 1.0000 0.3172(6)
H24_10 H 0.7243 1.0000 0.3264
O15_10 O 0.8641(3) 1.0000 0.4239(2)
Dy5_4 Dy 0.60001(3) 1.0000 0.0000
Dy6_4 Dy 0.39999(3) 1.0000 0.0000
Dy11_12 Dy 1.0000 1.0000 0.39999(3)
O18_4 O 0.4239(2) 1.0000 0.1359(3)
O24_2 O 0.54585(16) 0.95415(16) 0.04585(16)
O16_2 O 0.54585(16) 0.95415(16) 0.95415(16)
Dy5_5 Dy 0.60001(3) 1.0000 1.0000
Dy6_5 Dy 0.39999(3) 1.0000 1.0000
O17_4 O 0.5761(2) 1.0000 0.8641(3)
O19_4 O 0.4239(2) 1.0000 0.8641(3)
O27_2 O 0.45415(16) 0.95415(16) 0.95415(16)
C29_11 C 0.3796(4) -0.0000 0.1204(4)
C30_11 C 0.3407(4) -0.0000 0.1593(4)
C31_11 C 0.3528(5) -0.0000 0.2069(6)
H17_11 H 0.3857 -0.0000 0.2158
C32_11 C 0.3172(6) -0.0000 0.2428(6)
H18_11 H 0.3264 -0.0000 0.2757
C33_11 C 0.2693(4) -0.0000 0.2307(4)
C34_11 C 0.2931(6) -0.0000 0.1472(5)
H19_11 H 0.2842 -0.0000 0.1143
C35_11 C 0.2572(6) -0.0000 0.1828(6)
H20_11 H 0.2243 -0.0000 0.1736
O13_7 O 0.3641(3) -0.0000 0.0761(2)
C36_11 C 0.1204(4) -0.0000 0.3796(4)
C37_11 C 0.1593(4) -0.0000 0.3407(4)
C38_11 C 0.1472(5) -0.0000 0.2931(6)
H21_11 H 0.1143 -0.0000 0.2842
C39_11 C 0.1828(6) -0.0000 0.2572(6)
H22_11 H 0.1736 -0.0000 0.2243
C40_11 C 0.2307(4) -0.0000 0.2693(4)
O14_11 O 0.0761(2) -0.0000 0.3641(3)
C41_11 C 0.2069(6) -0.0000 0.3528(5)
H23_11 H 0.2158 -0.0000 0.3857
C42_11 C 0.2428(6) -0.0000 0.3172(6)
H24_11 H 0.2757 -0.0000 0.3264
O15_11 O 0.1359(3) -0.0000 0.4239(2)
C29_12 C 0.3796(4) 1.0000 0.1204(4)
C30_12 C 0.3407(4) 1.0000 0.1593(4)
C31_12 C 0.3528(5) 1.0000 0.2069(6)
H17_12 H 0.3857 1.0000 0.2158
C32_12 C 0.3172(6) 1.0000 0.2428(6)
H18_12 H 0.3264 1.0000 0.2757
C33_12 C 0.2693(4) 1.0000 0.2307(4)
C34_12 C 0.2931(6) 1.0000 0.1472(5)
H19_12 H 0.2842 1.0000 0.1143
C35_12 C 0.2572(6) 1.0000 0.1828(6)
H20_12 H 0.2243 1.0000 0.1736
O13_8 O 0.3641(3) 1.0000 0.0761(2)
C36_12 C 0.1204(4) 1.0000 0.3796(4)
C37_12 C 0.1593(4) 1.0000 0.3407(4)
C38_12 C 0.1472(5) 1.0000 0.2931(6)
H21_12 H 0.1143 1.0000 0.2842
C39_12 C 0.1828(6) 1.0000 0.2572(6)
H22_12 H 0.1736 1.0000 0.2243
C40_12 C 0.2307(4) 1.0000 0.2693(4)
O14_12 O 0.0761(2) 1.0000 0.3641(3)
C41_12 C 0.2069(6) 1.0000 0.3528(5)
H23_12 H 0.2158 1.0000 0.3857
C42_12 C 0.2428(6) 1.0000 0.3172(6)
H24_12 H 0.2757 1.0000 0.3264
O15_12 O 0.1359(3) 1.0000 0.4239(2)
O22_5 O 0.4239(2) 0.8641(3) 0.0000
O23_5 O 0.5761(2) 0.8641(3) 0.0000
O22_6 O 0.4239(2) 0.8641(3) 1.0000
O23_6 O 0.5761(2) 0.8641(3) 1.0000
C29_13 C 0.3796(4) 0.0000 0.8796(4)
C30_13 C 0.3407(4) 0.0000 0.8407(4)
C31_13 C 0.3528(5) 0.0000 0.7931(6)
H17_13 H 0.3857 0.0000 0.7842
C32_13 C 0.3172(6) 0.0000 0.7572(6)
H18_13 H 0.3264 0.0000 0.7243
C33_13 C 0.2693(4) 0.0000 0.7693(4)
C34_13 C 0.2931(6) 0.0000 0.8528(5)
H19_13 H 0.2842 0.0000 0.8857
C35_13 C 0.2572(6) 0.0000 0.8172(6)
H20_13 H 0.2243 0.0000 0.8264
O13_9 O 0.3641(3) 0.0000 0.9239(2)
C36_13 C 0.1204(4) 0.0000 0.6204(4)
C37_13 C 0.1593(4) 0.0000 0.6593(4)
C38_13 C 0.1472(5) 0.0000 0.7069(6)
H21_13 H 0.1143 0.0000 0.7158
C39_13 C 0.1828(6) 0.0000 0.7428(6)
H22_13 H 0.1736 0.0000 0.7757
C40_13 C 0.2307(4) 0.0000 0.7307(4)
O14_13 O 0.0761(2) 0.0000 0.6359(3)
C41_13 C 0.2069(6) 0.0000 0.6472(5)
H23_13 H 0.2158 0.0000 0.6143
C42_13 C 0.2428(6) 0.0000 0.6828(6)
H24_13 H 0.2757 0.0000 0.6736
O15_13 O 0.1359(3) 0.0000 0.5761(2)
Dy11_13 Dy -0.0000 0.0000 0.60001(3)
C29_14 C 0.3796(4) 1.0000 0.8796(4)
C30_14 C 0.3407(4) 1.0000 0.8407(4)
C31_14 C 0.3528(5) 1.0000 0.7931(6)
H17_14 H 0.3857 1.0000 0.7842
C32_14 C 0.3172(6) 1.0000 0.7572(6)
H18_14 H 0.3264 1.0000 0.7243
C33_14 C 0.2693(4) 1.0000 0.7693(4)
C34_14 C 0.2931(6) 1.0000 0.8528(5)
H19_14 H 0.2842 1.0000 0.8857
C35_14 C 0.2572(6) 1.0000 0.8172(6)
H20_14 H 0.2243 1.0000 0.8264
O13_10 O 0.3641(3) 1.0000 0.9239(2)
C36_14 C 0.1204(4) 1.0000 0.6204(4)
C37_14 C 0.1593(4) 1.0000 0.6593(4)
C38_14 C 0.1472(5) 1.0000 0.7069(6)
H21_14 H 0.1143 1.0000 0.7158
C39_14 C 0.1828(6) 1.0000 0.7428(6)
H22_14 H 0.1736 1.0000 0.7757
C40_14 C 0.2307(4) 1.0000 0.7307(4)
O14_14 O 0.0761(2) 1.0000 0.6359(3)
C41_14 C 0.2069(6) 1.0000 0.6472(5)
H23_14 H 0.2158 1.0000 0.6143
C42_14 C 0.2428(6) 1.0000 0.6828(6)
H24_14 H 0.2757 1.0000 0.6736
O15_14 O 0.1359(3) 1.0000 0.5761(2)
Dy11_14 Dy -0.0000 1.0000 0.60001(3)
Dy11_15 Dy 1.0000 0.0000 0.60001(3)
Dy11_16 Dy 1.0000 1.0000 0.60001(3)
C29_15 C 0.6204(4) -0.0000 0.8796(4)
C30_15 C 0.6593(4) -0.0000 0.8407(4)
C31_15 C 0.6472(5) -0.0000 0.7931(6)
H17_15 H 0.6143 -0.0000 0.7842
C32_15 C 0.6828(6) -0.0000 0.7572(6)
H18_15 H 0.6736 -0.0000 0.7243
C33_15 C 0.7307(4) -0.0000 0.7693(4)
C34_15 C 0.7069(6) -0.0000 0.8528(5)
H19_15 H 0.7158 -0.0000 0.8857
C35_15 C 0.7428(6) -0.0000 0.8172(6)
H20_15 H 0.7757 -0.0000 0.8264
O13_11 O 0.6359(3) -0.0000 0.9239(2)
C36_15 C 0.8796(4) -0.0000 0.6204(4)
C37_15 C 0.8407(4) -0.0000 0.6593(4)
C38_15 C 0.8528(5) -0.0000 0.7069(6)
H21_15 H 0.8857 -0.0000 0.7158
C39_15 C 0.8172(6) -0.0000 0.7428(6)
H22_15 H 0.8264 -0.0000 0.7757
C40_15 C 0.7693(4) -0.0000 0.7307(4)
O14_15 O 0.9239(2) -0.0000 0.6359(3)
C41_15 C 0.7931(6) -0.0000 0.6472(5)
H23_15 H 0.7842 -0.0000 0.6143
C42_15 C 0.7572(6) -0.0000 0.6828(6)
H24_15 H 0.7243 -0.0000 0.6736
O15_15 O 0.8641(3) 0.0000 0.5761(2)
C29_16 C 0.6204(4) 1.0000 0.8796(4)
C30_16 C 0.6593(4) 1.0000 0.8407(4)
C31_16 C 0.6472(5) 1.0000 0.7931(6)
H17_16 H 0.6143 1.0000 0.7842
C32_16 C 0.6828(6) 1.0000 0.7572(6)
H18_16 H 0.6736 1.0000 0.7243
C33_16 C 0.7307(4) 1.0000 0.7693(4)
C34_16 C 0.7069(6) 1.0000 0.8528(5)
H19_16 H 0.7158 1.0000 0.8857
C35_16 C 0.7428(6) 1.0000 0.8172(6)
H20_16 H 0.7757 1.0000 0.8264
O13_12 O 0.6359(3) 1.0000 0.9239(2)
C36_16 C 0.8796(4) 1.0000 0.6204(4)
C37_16 C 0.8407(4) 1.0000 0.6593(4)
C38_16 C 0.8528(5) 1.0000 0.7069(6)
H21_16 H 0.8857 1.0000 0.7158
C39_16 C 0.8172(6) 1.0000 0.7428(6)
H22_16 H 0.8264 1.0000 0.7757
C40_16 C 0.7693(4) 1.0000 0.7307(4)
O14_16 O 0.9239(2) 1.0000 0.6359(3)
C41_16 C 0.7931(6) 1.0000 0.6472(5)
H23_16 H 0.7842 1.0000 0.6143
C42_16 C 0.7572(6) 1.0000 0.6828(6)
H24_16 H 0.7243 1.0000 0.6736
O15_16 O 0.8641(3) 1.0000 0.5761(2)
Dy12_9 Dy -0.0000 0.39999(3) 0.0000
Dy12_10 Dy -0.0000 0.39999(3) 1.0000
C29_17 C 0.6204(4) 0.1204(4) 0.0000
C30_17 C 0.6593(4) 0.1593(4) 0.0000
C31_17 C 0.7069(6) 0.1472(5) 0.0000
H17_17 H 0.7158 0.1143 0.0000
C32_17 C 0.7428(6) 0.1828(6) 0.0000
H18_17 H 0.7757 0.1736 0.0000
C33_17 C 0.7307(4) 0.2307(4) 0.0000
O11_5 O 0.6359(3) 0.0761(2) 0.0000
C34_17 C 0.6472(5) 0.2069(6) 0.0000
H19_17 H 0.6143 0.2158 0.0000
C35_17 C 0.6828(6) 0.2428(6) 0.0000
H20_17 H 0.6736 0.2757 0.0000
C36_17 C 0.8796(4) 0.3796(4) 0.0000
C37_17 C 0.8407(4) 0.3407(4) 0.0000
C38_17 C 0.7931(6) 0.3528(5) 0.0000
H21_17 H 0.7842 0.3857 0.0000
C39_17 C 0.7572(6) 0.3172(6) 0.0000
H22_17 H 0.7243 0.3264 0.0000
C40_17 C 0.7693(4) 0.2693(4) 0.0000
O14_17 O 0.8641(3) 0.4239(2) 0.0000
C41_17 C 0.8528(5) 0.2931(6) 0.0000
H23_17 H 0.8857 0.2842 0.0000
C42_17 C 0.8172(6) 0.2572(6) 0.0000
H24_17 H 0.8264 0.2243 0.0000
O15_17 O 0.9239(2) 0.3641(3) 0.0000
Dy12_11 Dy 1.0000 0.39999(3) 0.0000
O17_5 O 0.3641(3) 0.0761(2) 0.0000
C29_18 C 0.6204(4) 0.1204(4) 1.0000
C30_18 C 0.6593(4) 0.1593(4) 1.0000
C31_18 C 0.7069(6) 0.1472(5) 1.0000
H17_18 H 0.7158 0.1143 1.0000
C32_18 C 0.7428(6) 0.1828(6) 1.0000
H18_18 H 0.7757 0.1736 1.0000
C33_18 C 0.7307(4) 0.2307(4) 1.0000
O11_6 O 0.6359(3) 0.0761(2) 1.0000
C34_18 C 0.6472(5) 0.2069(6) 1.0000
H19_18 H 0.6143 0.2158 1.0000
C35_18 C 0.6828(6) 0.2428(6) 1.0000
H20_18 H 0.6736 0.2757 1.0000
C36_18 C 0.8796(4) 0.3796(4) 1.0000
C37_18 C 0.8407(4) 0.3407(4) 1.0000
C38_18 C 0.7931(6) 0.3528(5) 1.0000
H21_18 H 0.7842 0.3857 1.0000
C39_18 C 0.7572(6) 0.3172(6) 1.0000
H22_18 H 0.7243 0.3264 1.0000
C40_18 C 0.7693(4) 0.2693(4) 1.0000
O14_18 O 0.8641(3) 0.4239(2) 1.0000
C41_18 C 0.8528(5) 0.2931(6) 1.0000
H23_18 H 0.8857 0.2842 1.0000
C42_18 C 0.8172(6) 0.2572(6) 1.0000
H24_18 H 0.8264 0.2243 1.0000
O15_18 O 0.9239(2) 0.3641(3) 1.0000
Dy12_12 Dy 1.0000 0.39999(3) 1.0000
O17_6 O 0.3641(3) 0.0761(2) 1.0000
O18_5 O 0.6359(3) 0.9239(2) 0.0000
O19_5 O 0.3641(3) 0.9239(2) 0.0000
O18_6 O 0.6359(3) 0.9239(2) 1.0000
O19_6 O 0.3641(3) 0.9239(2) 1.0000
Dy12_13 Dy -0.0000 0.60001(3) 0.0000
Dy12_14 Dy -0.0000 0.60001(3) 1.0000
C29_19 C 0.6204(4) 0.8796(4) -0.0000
C30_19 C 0.6593(4) 0.8407(4) -0.0000
C31_19 C 0.7069(6) 0.8528(5) -0.0000
H17_19 H 0.7158 0.8857 -0.0000
C32_19 C 0.7428(6) 0.8172(6) -0.0000
H18_19 H 0.7757 0.8264 -0.0000
C33_19 C 0.7307(4) 0.7693(4) -0.0000
C34_19 C 0.6472(5) 0.7931(6) -0.0000
H19_19 H 0.6143 0.7842 -0.0000
C35_19 C 0.6828(6) 0.7572(6) -0.0000
H20_19 H 0.6736 0.7243 -0.0000
C36_19 C 0.8796(4) 0.6204(4) -0.0000
C37_19 C 0.8407(4) 0.6593(4) -0.0000
C38_19 C 0.7931(6) 0.6472(5) -0.0000
H21_19 H 0.7842 0.6143 -0.0000
C39_19 C 0.7572(6) 0.6828(6) -0.0000
H22_19 H 0.7243 0.6736 -0.0000
C40_19 C 0.7693(4) 0.7307(4) -0.0000
O14_19 O 0.8641(3) 0.5761(2) -0.0000
C41_19 C 0.8528(5) 0.7069(6) -0.0000
H23_19 H 0.8857 0.7158 -0.0000
C42_19 C 0.8172(6) 0.7428(6) -0.0000
H24_19 H 0.8264 0.7757 -0.0000
O15_19 O 0.9239(2) 0.6359(3) 0.0000
Dy12_15 Dy 1.0000 0.60001(3) 0.0000
C29_20 C 0.6204(4) 0.8796(4) 1.0000
C30_20 C 0.6593(4) 0.8407(4) 1.0000
C31_20 C 0.7069(6) 0.8528(5) 1.0000
H17_20 H 0.7158 0.8857 1.0000
C32_20 C 0.7428(6) 0.8172(6) 1.0000
H18_20 H 0.7757 0.8264 1.0000
C33_20 C 0.7307(4) 0.7693(4) 1.0000
C34_20 C 0.6472(5) 0.7931(6) 1.0000
H19_20 H 0.6143 0.7842 1.0000
C35_20 C 0.6828(6) 0.7572(6) 1.0000
H20_20 H 0.6736 0.7243 1.0000
C36_20 C 0.8796(4) 0.6204(4) 1.0000
C37_20 C 0.8407(4) 0.6593(4) 1.0000
C38_20 C 0.7931(6) 0.6472(5) 1.0000
H21_20 H 0.7842 0.6143 1.0000
C39_20 C 0.7572(6) 0.6828(6) 1.0000
H22_20 H 0.7243 0.6736 1.0000
C40_20 C 0.7693(4) 0.7307(4) 1.0000
O14_20 O 0.8641(3) 0.5761(2) 1.0000
C41_20 C 0.8528(5) 0.7069(6) 1.0000
H23_20 H 0.8857 0.7158 1.0000
C42_20 C 0.8172(6) 0.7428(6) 1.0000
H24_20 H 0.8264 0.7757 1.0000
O15_20 O 0.9239(2) 0.6359(3) 1.0000
Dy12_16 Dy 1.0000 0.60001(3) 1.0000
C29_21 C 0.3796(4) 0.8796(4) 0.0000
C30_21 C 0.3407(4) 0.8407(4) 0.0000
C31_21 C 0.2931(6) 0.8528(5) 0.0000
H17_21 H 0.2842 0.8857 0.0000
C32_21 C 0.2572(6) 0.8172(6) 0.0000
H18_21 H 0.2243 0.8264 0.0000
C33_21 C 0.2693(4) 0.7693(4) 0.0000
C34_21 C 0.3528(5) 0.7931(6) 0.0000
H19_21 H 0.3857 0.7842 0.0000
C35_21 C 0.3172(6) 0.7572(6) 0.0000
H20_21 H 0.3264 0.7243 0.0000
C36_21 C 0.1204(4) 0.6204(4) 0.0000
C37_21 C 0.1593(4) 0.6593(4) 0.0000
C38_21 C 0.2069(6) 0.6472(5) 0.0000
H21_21 H 0.2158 0.6143 0.0000
C39_21 C 0.2428(6) 0.6828(6) 0.0000
H22_21 H 0.2757 0.6736 0.0000
C40_21 C 0.2307(4) 0.7307(4) 0.0000
O14_21 O 0.1359(3) 0.5761(2) 0.0000
C41_21 C 0.1472(5) 0.7069(6) 0.0000
H23_21 H 0.1143 0.7158 0.0000
C42_21 C 0.1828(6) 0.7428(6) 0.0000
H24_21 H 0.1736 0.7757 0.0000
O15_21 O 0.0761(2) 0.6359(3) 0.0000
C29_22 C 0.3796(4) 0.8796(4) 1.0000
C30_22 C 0.3407(4) 0.8407(4) 1.0000
C31_22 C 0.2931(6) 0.8528(5) 1.0000
H17_22 H 0.2842 0.8857 1.0000
C32_22 C 0.2572(6) 0.8172(6) 1.0000
H18_22 H 0.2243 0.8264 1.0000
C33_22 C 0.2693(4) 0.7693(4) 1.0000
C34_22 C 0.3528(5) 0.7931(6) 1.0000
H19_22 H 0.3857 0.7842 1.0000
C35_22 C 0.3172(6) 0.7572(6) 1.0000
H20_22 H 0.3264 0.7243 1.0000
C36_22 C 0.1204(4) 0.6204(4) 1.0000
C37_22 C 0.1593(4) 0.6593(4) 1.0000
C38_22 C 0.2069(6) 0.6472(5) 1.0000
H21_22 H 0.2158 0.6143 1.0000
C39_22 C 0.2428(6) 0.6828(6) 1.0000
H22_22 H 0.2757 0.6736 1.0000
C40_22 C 0.2307(4) 0.7307(4) 1.0000
O14_22 O 0.1359(3) 0.5761(2) 1.0000
C41_22 C 0.1472(5) 0.7069(6) 1.0000
H23_22 H 0.1143 0.7158 1.0000
C42_22 C 0.1828(6) 0.7428(6) 1.0000
H24_22 H 0.1736 0.7757 1.0000
O15_22 O 0.0761(2) 0.6359(3) 1.0000
C29_23 C 0.3796(4) 0.1204(4) -0.0000
C30_23 C 0.3407(4) 0.1593(4) -0.0000
C31_23 C 0.2931(6) 0.1472(5) -0.0000
H17_23 H 0.2842 0.1143 -0.0000
C32_23 C 0.2572(6) 0.1828(6) -0.0000
H18_23 H 0.2243 0.1736 -0.0000
C33_23 C 0.2693(4) 0.2307(4) -0.0000
C34_23 C 0.3528(5) 0.2069(6) -0.0000
H19_23 H 0.3857 0.2158 -0.0000
C35_23 C 0.3172(6) 0.2428(6) -0.0000
H20_23 H 0.3264 0.2757 -0.0000
C36_23 C 0.1204(4) 0.3796(4) -0.0000
C37_23 C 0.1593(4) 0.3407(4) -0.0000
C38_23 C 0.2069(6) 0.3528(5) -0.0000
H21_23 H 0.2158 0.3857 -0.0000
C39_23 C 0.2428(6) 0.3172(6) -0.0000
H22_23 H 0.2757 0.3264 -0.0000
C40_23 C 0.2307(4) 0.2693(4) -0.0000
O14_23 O 0.1359(3) 0.4239(2) -0.0000
C41_23 C 0.1472(5) 0.2931(6) -0.0000
H23_23 H 0.1143 0.2842 -0.0000
C42_23 C 0.1828(6) 0.2572(6) -0.0000
H24_23 H 0.1736 0.2243 -0.0000
O15_23 O 0.0761(2) 0.3641(3) 0.0000
C29_24 C 0.3796(4) 0.1204(4) 1.0000
C30_24 C 0.3407(4) 0.1593(4) 1.0000
C31_24 C 0.2931(6) 0.1472(5) 1.0000
H17_24 H 0.2842 0.1143 1.0000
C32_24 C 0.2572(6) 0.1828(6) 1.0000
H18_24 H 0.2243 0.1736 1.0000
C33_24 C 0.2693(4) 0.2307(4) 1.0000
C34_24 C 0.3528(5) 0.2069(6) 1.0000
H19_24 H 0.3857 0.2158 1.0000
C35_24 C 0.3172(6) 0.2428(6) 1.0000
H20_24 H 0.3264 0.2757 1.0000
C36_24 C 0.1204(4) 0.3796(4) 1.0000
C37_24 C 0.1593(4) 0.3407(4) 1.0000
C38_24 C 0.2069(6) 0.3528(5) 1.0000
H21_24 H 0.2158 0.3857 1.0000
C39_24 C 0.2428(6) 0.3172(6) 1.0000
H22_24 H 0.2757 0.3264 1.0000
C40_24 C 0.2307(4) 0.2693(4) 1.0000
O14_24 O 0.1359(3) 0.4239(2) 1.0000
C41_24 C 0.1472(5) 0.2931(6) 1.0000
H23_24 H 0.1143 0.2842 1.0000
C42_24 C 0.1828(6) 0.2572(6) 1.0000
H24_24 H 0.1736 0.2243 1.0000
O15_24 O 0.0761(2) 0.3641(3) 1.0000
C1_3 C 0.0000 0.6204(4) 0.1204(4)
C2_3 C 0.0000 0.6593(4) 0.1593(4)
C3_3 C 0.0000 0.7069(6) 0.1472(5)
H1_3 H 0.0000 0.7158 0.1143
C4_3 C 0.0000 0.7428(6) 0.1828(6)
H2_3 H 0.0000 0.7757 0.1736
C5_3 C 0.0000 0.7307(4) 0.2307(4)
O1_3 O 0.0000 0.6359(3) 0.0761(2)
C6_3 C 0.0000 0.6472(5) 0.2069(6)
H3_3 H 0.0000 0.6143 0.2158
C7_3 C 0.0000 0.6828(6) 0.2428(6)
H4_3 H 0.0000 0.6736 0.2757
O3_2 O 0.0000 0.5761(2) 0.1359(3)
C8_3 C 0.0000 0.8796(4) 0.3796(4)
C9_3 C 0.0000 0.8407(4) 0.3407(4)
C10_3 C 0.0000 0.7931(6) 0.3528(5)
H5_3 H 0.0000 0.7842 0.3857
C11_3 C 0.0000 0.7572(6) 0.3172(6)
H6_3 H 0.0000 0.7243 0.3264
C12_3 C 0.0000 0.7693(4) 0.2693(4)
O4_3 O -0.0000 0.8641(3) 0.4239(2)
C13_3 C 0.0000 0.8528(5) 0.2931(6)
H7_3 H 0.0000 0.8857 0.2842
C14_3 C 0.0000 0.8172(6) 0.2572(6)
H8_3 H 0.0000 0.8264 0.2243
O5_3 O -0.0000 0.9239(2) 0.3641(3)
O7_3 O 0.04585(16) 0.54585(16) 0.04585(16)
O21_2 O 0.0000 0.4239(2) 0.1359(3)
O24_3 O 0.04585(16) 0.45415(16) 0.04585(16)
C15_3 C 0.0000 0.6204(4) 0.8796(4)
C16_3 C 0.0000 0.6593(4) 0.8407(4)
C17_3 C 0.0000 0.7069(6) 0.8528(5)
H9_3 H 0.0000 0.7158 0.8857
C18_3 C 0.0000 0.7428(6) 0.8172(6)
H10_3 H 0.0000 0.7757 0.8264
C19_3 C 0.0000 0.7307(4) 0.7693(4)
O6_3 O 0.0000 0.6359(3) 0.9239(2)
C20_3 C 0.0000 0.6472(5) 0.7931(6)
H11_3 H 0.0000 0.6143 0.7842
C21_3 C 0.0000 0.6828(6) 0.7572(6)
H12_3 H 0.0000 0.6736 0.7243
O8_2 O 0.0000 0.5761(2) 0.8641(3)
C22_3 C 0.0000 0.8796(4) 0.6204(4)
C23_3 C 0.0000 0.8407(4) 0.6593(4)
C24_3 C 0.0000 0.7931(6) 0.6472(5)
H13_3 H 0.0000 0.7842 0.6143
C25_3 C 0.0000 0.7572(6) 0.6828(6)
H14_3 H 0.0000 0.7243 0.6736
C26_3 C 0.0000 0.7693(4) 0.7307(4)
O9_3 O 0.0000 0.8641(3) 0.5761(2)
C27_3 C 0.0000 0.8528(5) 0.7069(6)
H15_3 H 0.0000 0.8857 0.7158
C28_3 C 0.0000 0.8172(6) 0.7428(6)
H16_3 H 0.0000 0.8264 0.7757
O10_3 O -0.0000 0.9239(2) 0.6359(3)
O16_3 O 0.04585(16) 0.45415(16) 0.95415(16)
O20_2 O -0.0000 0.4239(2) 0.8641(3)
O26_3 O 0.04585(16) 0.54585(16) 0.95415(16)
C1_4 C 1.0000 0.6204(4) 0.1204(4)
C2_4 C 1.0000 0.6593(4) 0.1593(4)
C3_4 C 1.0000 0.7069(6) 0.1472(5)
H1_4 H 1.0000 0.7158 0.1143
C4_4 C 1.0000 0.7428(6) 0.1828(6)
H2_4 H 1.0000 0.7757 0.1736
C5_4 C 1.0000 0.7307(4) 0.2307(4)
O1_4 O 1.0000 0.6359(3) 0.0761(2)
C6_4 C 1.0000 0.6472(5) 0.2069(6)
H3_4 H 1.0000 0.6143 0.2158
C7_4 C 1.0000 0.6828(6) 0.2428(6)
H4_4 H 1.0000 0.6736 0.2757
O3_3 O 1.0000 0.5761(2) 0.1359(3)
C8_4 C 1.0000 0.8796(4) 0.3796(4)
C9_4 C 1.0000 0.8407(4) 0.3407(4)
C10_4 C 1.0000 0.7931(6) 0.3528(5)
H5_4 H 1.0000 0.7842 0.3857
C11_4 C 1.0000 0.7572(6) 0.3172(6)
H6_4 H 1.0000 0.7243 0.3264
C12_4 C 1.0000 0.7693(4) 0.2693(4)
O4_4 O 1.0000 0.8641(3) 0.4239(2)
C13_4 C 1.0000 0.8528(5) 0.2931(6)
H7_4 H 1.0000 0.8857 0.2842
C14_4 C 1.0000 0.8172(6) 0.2572(6)
H8_4 H 1.0000 0.8264 0.2243
O5_4 O 1.0000 0.9239(2) 0.3641(3)
O12_3 O 0.95415(16) 0.45415(16) 0.04585(16)
O21_3 O 1.0000 0.4239(2) 0.1359(3)
O25_3 O 0.95415(16) 0.54585(16) 0.04585(16)
O2_3 O 0.95415(16) 0.54585(16) 0.95415(16)
C15_4 C 1.0000 0.6204(4) 0.8796(4)
C16_4 C 1.0000 0.6593(4) 0.8407(4)
C17_4 C 1.0000 0.7069(6) 0.8528(5)
H9_4 H 1.0000 0.7158 0.8857
C18_4 C 1.0000 0.7428(6) 0.8172(6)
H10_4 H 1.0000 0.7757 0.8264
C19_4 C 1.0000 0.7307(4) 0.7693(4)
O6_4 O 1.0000 0.6359(3) 0.9239(2)
C20_4 C 1.0000 0.6472(5) 0.7931(6)
H11_4 H 1.0000 0.6143 0.7842
C21_4 C 1.0000 0.6828(6) 0.7572(6)
H12_4 H 1.0000 0.6736 0.7243
O8_3 O 1.0000 0.5761(2) 0.8641(3)
C22_4 C 1.0000 0.8796(4) 0.6204(4)
C23_4 C 1.0000 0.8407(4) 0.6593(4)
C24_4 C 1.0000 0.7931(6) 0.6472(5)
H13_4 H 1.0000 0.7842 0.6143
C25_4 C 1.0000 0.7572(6) 0.6828(6)
H14_4 H 1.0000 0.7243 0.6736
C26_4 C 1.0000 0.7693(4) 0.7307(4)
O9_4 O 1.0000 0.8641(3) 0.5761(2)
C27_4 C 1.0000 0.8528(5) 0.7069(6)
H15_4 H 1.0000 0.8857 0.7158
C28_4 C 1.0000 0.8172(6) 0.7428(6)
H16_4 H 1.0000 0.8264 0.7757
O10_4 O 1.0000 0.9239(2) 0.6359(3)
O20_3 O 1.0000 0.4239(2) 0.8641(3)
O27_3 O 0.95415(16) 0.45415(16) 0.95415(16)
C1_5 C -0.0000 0.3796(4) 0.1204(4)
C2_5 C -0.0000 0.3407(4) 0.1593(4)
C3_5 C -0.0000 0.2931(6) 0.1472(5)
H1_5 H -0.0000 0.2842 0.1143
C4_5 C -0.0000 0.2572(6) 0.1828(6)
H2_5 H -0.0000 0.2243 0.1736
C5_5 C -0.0000 0.2693(4) 0.2307(4)
O1_5 O -0.0000 0.3641(3) 0.0761(2)
C6_5 C -0.0000 0.3528(5) 0.2069(6)
H3_5 H -0.0000 0.3857 0.2158
C7_5 C -0.0000 0.3172(6) 0.2428(6)
H4_5 H -0.0000 0.3264 0.2757
C8_5 C -0.0000 0.1204(4) 0.3796(4)
C9_5 C -0.0000 0.1593(4) 0.3407(4)
C10_5 C -0.0000 0.2069(6) 0.3528(5)
H5_5 H -0.0000 0.2158 0.3857
C11_5 C -0.0000 0.2428(6) 0.3172(6)
H6_5 H -0.0000 0.2757 0.3264
C12_5 C -0.0000 0.2307(4) 0.2693(4)
O4_5 O -0.0000 0.1359(3) 0.4239(2)
C13_5 C -0.0000 0.1472(5) 0.2931(6)
H7_5 H -0.0000 0.1143 0.2842
C14_5 C -0.0000 0.1828(6) 0.2572(6)
H8_5 H -0.0000 0.1736 0.2243
O5_5 O 0.0000 0.0761(2) 0.3641(3)
C15_5 C -0.0000 0.3796(4) 0.8796(4)
C16_5 C -0.0000 0.3407(4) 0.8407(4)
C17_5 C -0.0000 0.2931(6) 0.8528(5)
H9_5 H -0.0000 0.2842 0.8857
C18_5 C -0.0000 0.2572(6) 0.8172(6)
H10_5 H -0.0000 0.2243 0.8264
C19_5 C -0.0000 0.2693(4) 0.7693(4)
O6_5 O -0.0000 0.3641(3) 0.9239(2)
C20_5 C -0.0000 0.3528(5) 0.7931(6)
H11_5 H -0.0000 0.3857 0.7842
C21_5 C -0.0000 0.3172(6) 0.7572(6)
H12_5 H -0.0000 0.3264 0.7243
C22_5 C -0.0000 0.1204(4) 0.6204(4)
C23_5 C -0.0000 0.1593(4) 0.6593(4)
C24_5 C -0.0000 0.2069(6) 0.6472(5)
H13_5 H -0.0000 0.2158 0.6143
C25_5 C -0.0000 0.2428(6) 0.6828(6)
H14_5 H -0.0000 0.2757 0.6736
C26_5 C -0.0000 0.2307(4) 0.7307(4)
O9_5 O -0.0000 0.1359(3) 0.5761(2)
C27_5 C -0.0000 0.1472(5) 0.7069(6)
H15_5 H -0.0000 0.1143 0.7158
C28_5 C -0.0000 0.1828(6) 0.7428(6)
H16_5 H -0.0000 0.1736 0.7757
O10_5 O -0.0000 0.0761(2) 0.6359(3)
C1_6 C 1.0000 0.3796(4) 0.1204(4)
C2_6 C 1.0000 0.3407(4) 0.1593(4)
C3_6 C 1.0000 0.2931(6) 0.1472(5)
H1_6 H 1.0000 0.2842 0.1143
C4_6 C 1.0000 0.2572(6) 0.1828(6)
H2_6 H 1.0000 0.2243 0.1736
C5_6 C 1.0000 0.2693(4) 0.2307(4)
O1_6 O 1.0000 0.3641(3) 0.0761(2)
C6_6 C 1.0000 0.3528(5) 0.2069(6)
H3_6 H 1.0000 0.3857 0.2158
C7_6 C 1.0000 0.3172(6) 0.2428(6)
H4_6 H 1.0000 0.3264 0.2757
C8_6 C 1.0000 0.1204(4) 0.3796(4)
C9_6 C 1.0000 0.1593(4) 0.3407(4)
C10_6 C 1.0000 0.2069(6) 0.3528(5)
H5_6 H 1.0000 0.2158 0.3857
C11_6 C 1.0000 0.2428(6) 0.3172(6)
H6_6 H 1.0000 0.2757 0.3264
C12_6 C 1.0000 0.2307(4) 0.2693(4)
O4_6 O 1.0000 0.1359(3) 0.4239(2)
C13_6 C 1.0000 0.1472(5) 0.2931(6)
H7_6 H 1.0000 0.1143 0.2842
C14_6 C 1.0000 0.1828(6) 0.2572(6)
H8_6 H 1.0000 0.1736 0.2243
O5_6 O 1.0000 0.0761(2) 0.3641(3)
C15_6 C 1.0000 0.3796(4) 0.8796(4)
C16_6 C 1.0000 0.3407(4) 0.8407(4)
C17_6 C 1.0000 0.2931(6) 0.8528(5)
H9_6 H 1.0000 0.2842 0.8857
C18_6 C 1.0000 0.2572(6) 0.8172(6)
H10_6 H 1.0000 0.2243 0.8264
C19_6 C 1.0000 0.2693(4) 0.7693(4)
O6_6 O 1.0000 0.3641(3) 0.9239(2)
C20_6 C 1.0000 0.3528(5) 0.7931(6)
H11_6 H 1.0000 0.3857 0.7842
C21_6 C 1.0000 0.3172(6) 0.7572(6)
H12_6 H 1.0000 0.3264 0.7243
C22_6 C 1.0000 0.1204(4) 0.6204(4)
C23_6 C 1.0000 0.1593(4) 0.6593(4)
C24_6 C 1.0000 0.2069(6) 0.6472(5)
H13_6 H 1.0000 0.2158 0.6143
C25_6 C 1.0000 0.2428(6) 0.6828(6)
H14_6 H 1.0000 0.2757 0.6736
C26_6 C 1.0000 0.2307(4) 0.7307(4)
O9_6 O 1.0000 0.1359(3) 0.5761(2)
C27_6 C 1.0000 0.1472(5) 0.7069(6)
H15_6 H 1.0000 0.1143 0.7158
C28_6 C 1.0000 0.1828(6) 0.7428(6)
H16_6 H 1.0000 0.1736 0.7757
O10_6 O 1.0000 0.0761(2) 0.6359(3)
O7_4 O 0.04585(16) 0.04585(16) 0.54585(16)
O26_4 O 0.04585(16) 0.04585(16) 0.45415(16)
O16_4 O 0.04585(16) 0.95415(16) 0.45415(16)
O24_4 O 0.04585(16) 0.95415(16) 0.54585(16)
O2_4 O 0.95415(16) 0.04585(16) 0.45415(16)
O25_4 O 0.95415(16) 0.04585(16) 0.54585(16)
O12_4 O 0.95415(16) 0.95415(16) 0.54585(16)
O27_4 O 0.95415(16) 0.95415(16) 0.45415(16)
loop_
_geom_bond_atom_site_label_1
_geom_bond_atom_site_label_2
_geom_bond_site_symmetry_1
_geom_bond_site_symmetry_2
Dy1 O1 1_555 1_555
C1 C2 1_555 1_555
C2 C3 1_555 1_555
C3 H1 1_555 1_555
C4 C3 1_555 1_555
H2 C4 1_555 1_555
C5 C4 1_555 1_555
O1 C1 1_555 1_555
O2 Dy1 1_555 1_555
C6 C2 1_555 1_555
H3 C6 1_555 1_555
C7 C5 1_555 1_555
H4 C7 1_555 1_555
O3 C1 1_555 1_555
C8 C9 1_555 1_555
C9 C10 1_555 1_555
C10 H5 1_555 1_555
C11 C10 1_555 1_555
H6 C11 1_555 1_555
C12 C5 1_555 1_555
O4 C8 1_555 1_555
C13 C9 1_555 1_555
H7 C13 1_555 1_555
C14 C12 1_555 1_555
H8 C14 1_555 1_555
O5 C8 1_555 1_555
C15 C16 1_555 1_555
C16 C17 1_555 1_555
C17 H9 1_555 1_555
C18 C17 1_555 1_555
H10 C18 1_555 1_555
C19 C18 1_555 1_555
O6 Dy1 1_555 1_555
O7 Dy1 1_555 1_555
C20 C16 1_555 1_555
H11 C20 1_555 1_555
C21 C19 1_555 1_555
H12 C21 1_555 1_555
O8 C15 1_555 1_555
C22 C23 1_555 1_555
C23 C24 1_555 1_555
C24 H13 1_555 1_555
C25 C24 1_555 1_555
H14 C25 1_555 1_555
C26 C19 1_555 1_555
O9 C22 1_555 1_555
C27 C23 1_555 1_555
H15 C27 1_555 1_555
C28 C26 1_555 1_555
H16 C28 1_555 1_555
O10 C22 1_555 1_555
Dy2 O3 1_555 1_555
C29 C30 1_555 1_555
C30 C31 1_555 1_555
C31 H17 1_555 1_555
C32 C31 1_555 1_555
H18 C32 1_555 1_555
C33 C32 1_555 1_555
O11 Dy2 1_555 1_555
O12 Dy2 1_555 1_555
C34 C30 1_555 1_555
H19 C34 1_555 1_555
C35 C33 1_555 1_555
H20 C35 1_555 1_555
O13 C29 1_555 1_555
C36 C37 1_555 1_555
C37 C38 1_555 1_555
C38 H21 1_555 1_555
C39 C38 1_555 1_555
H22 C39 1_555 1_555
C40 C33 1_555 1_555
O14 C36 1_555 1_555
C41 C37 1_555 1_555
H23 C41 1_555 1_555
C42 C40 1_555 1_555
H24 C42 1_555 1_555
O15 C36 1_555 1_555
Dy3 O2 1_555 1_555
O16 Dy3 1_555 1_555
Dy4 O12 1_555 1_555
Dy5 O7 1_555 1_555
Dy6 O2 1_555 1_555
Dy8 O9 1_555 1_555
Dy8_2 O4 1_555 1_555
Dy9_2 O10 1_555 1_555
Dy10_2 O5 1_555 1_555
Dy11_2 O14 1_555 1_555
Dy12_2 O15 1_555 1_555
O17 Dy3 1_555 1_555
O18 Dy2 1_555 1_555
O19 Dy3 1_555 1_555
O20 Dy3 1_555 1_555
O21 Dy2 1_555 1_555
O22 Dy1 1_555 1_555
O23 Dy1 1_555 1_555
O24 Dy2 1_555 1_555
O25 Dy1 1_555 1_555
O26 Dy1 1_555 1_555
O27 Dy3 1_555 1_555
C6 C7 1_555 1_555
C11 C12 1_555 1_555
C13 C14 1_555 1_555
C15 O6 1_555 1_555
O7 Dy2 1_555 1_555
C20 C21 1_555 1_555
O8 Dy3 1_555 1_555
C25 C26 1_555 1_555
C27 C28 1_555 1_555
Dy2 O25 1_555 1_555
C29 O11 1_555 1_555
O12 Dy6 1_555 1_555
C34 C35 1_555 1_555
O13 Dy5 1_555 1_555
C39 C40 1_555 1_555
C41 C42 1_555 1_555
Dy3 O26 1_555 1_555
O16 Dy4 1_555 1_555
O16 Dy5 1_555 1_555
Dy4 O24 1_555 1_555
Dy4 O27 1_555 1_555
Dy5 O24 1_555 1_555
Dy5 O26 1_555 1_555
Dy6 O25 1_555 1_555
Dy6 O27 1_555 1_555
Dy4 O1_2 1_555 1_555
C1_2 C2_2 1_555 1_555
C2_2 C3_2 1_555 1_555
C3_2 H1_2 1_555 1_555
C4_2 C3_2 1_555 1_555
H2_2 C4_2 1_555 1_555
C5_2 C4_2 1_555 1_555
O1_2 C1_2 1_555 1_555
C6_2 C2_2 1_555 1_555
H3_2 C6_2 1_555 1_555
C7_2 C5_2 1_555 1_555
H4_2 C7_2 1_555 1_555
O21 C1_2 1_555 1_555
C8_2 C9_2 1_555 1_555
C9_2 C10_2 1_555 1_555
C10_2 H5_2 1_555 1_555
C11_2 C10_2 1_555 1_555
H6_2 C11_2 1_555 1_555
C12_2 C5_2 1_555 1_555
O4_2 C8_2 1_555 1_555
C13_2 C9_2 1_555 1_555
H7_2 C13_2 1_555 1_555
C14_2 C12_2 1_555 1_555
H8_2 C14_2 1_555 1_555
O5_2 C8_2 1_555 1_555
C15_2 C16_2 1_555 1_555
C16_2 C17_2 1_555 1_555
C17_2 H9_2 1_555 1_555
C18_2 C17_2 1_555 1_555
H10_2 C18_2 1_555 1_555
C19_2 C18_2 1_555 1_555
O6_2 Dy4 1_555 1_555
C20_2 C16_2 1_555 1_555
H11_2 C20_2 1_555 1_555
C21_2 C19_2 1_555 1_555
H12_2 C21_2 1_555 1_555
O20 C15_2 1_555 1_555
C22_2 C23_2 1_555 1_555
C23_2 C24_2 1_555 1_555
C24_2 H13_2 1_555 1_555
C25_2 C24_2 1_555 1_555
H14_2 C25_2 1_555 1_555
C26_2 C19_2 1_555 1_555
O9_2 C22_2 1_555 1_555
C27_2 C23_2 1_555 1_555
H15_2 C27_2 1_555 1_555
C28_2 C26_2 1_555 1_555
H16_2 C28_2 1_555 1_555
O10_2 C22_2 1_555 1_555
C29_2 C30_2 1_555 1_555
C30_2 C31_2 1_555 1_555
C31_2 H17_2 1_555 1_555
C32_2 C31_2 1_555 1_555
H18_2 C32_2 1_555 1_555
C33_2 C32_2 1_555 1_555
C34_2 C30_2 1_555 1_555
H19_2 C34_2 1_555 1_555
C35_2 C33_2 1_555 1_555
H20_2 C35_2 1_555 1_555
O13_2 C29_2 1_555 1_555
C36_2 C37_2 1_555 1_555
C37_2 C38_2 1_555 1_555
C38_2 H21_2 1_555 1_555
C39_2 C38_2 1_555 1_555
H22_2 C39_2 1_555 1_555
C40_2 C33_2 1_555 1_555
O14_2 C36_2 1_555 1_555
C41_2 C37_2 1_555 1_555
H23_2 C41_2 1_555 1_555
C42_2 C40_2 1_555 1_555
H24_2 C42_2 1_555 1_555
O15_2 C36_2 1_555 1_555
Dy8_3 O9_2 1_555 1_555
Dy8_4 O4_2 1_555 1_555
Dy9 O10_2 1_555 1_555
Dy10 O5_2 1_555 1_555
Dy11 O14_2 1_555 1_555
Dy12_4 O15_2 1_555 1_555
O22_2 Dy4 1_555 1_555
O23_2 Dy4 1_555 1_555
C6_2 C7_2 1_555 1_555
C11_2 C12_2 1_555 1_555
C13_2 C14_2 1_555 1_555
C15_2 O6_2 1_555 1_555
C20_2 C21_2 1_555 1_555
C25_2 C26_2 1_555 1_555
C27_2 C28_2 1_555 1_555
C29_2 O18 1_555 1_555
C34_2 C35_2 1_555 1_555
O13_2 Dy6 1_555 1_555
C39_2 C40_2 1_555 1_555
C41_2 C42_2 1_555 1_555
C29_3 C30_3 1_555 1_555
C30_3 C31_3 1_555 1_555
C31_3 H17_3 1_555 1_555
C32_3 C31_3 1_555 1_555
H18_3 C32_3 1_555 1_555
C33_3 C32_3 1_555 1_555
C34_3 C30_3 1_555 1_555
H19_3 C34_3 1_555 1_555
C35_3 C33_3 1_555 1_555
H20_3 C35_3 1_555 1_555
O13_3 C29_3 1_555 1_555
C36_3 C37_3 1_555 1_555
C37_3 C38_3 1_555 1_555
C38_3 H21_3 1_555 1_555
C39_3 C38_3 1_555 1_555
H22_3 C39_3 1_555 1_555
C40_3 C33_3 1_555 1_555
O14_3 C36_3 1_555 1_555
C41_3 C37_3 1_555 1_555
H23_3 C41_3 1_555 1_555
C42_3 C40_3 1_555 1_555
H24_3 C42_3 1_555 1_555
O15_3 C36_3 1_555 1_555
Dy11_3 O14_3 1_555 1_555
Dy12_3 O15_3 1_555 1_555
C29_3 O19 1_555 1_555
C34_3 C35_3 1_555 1_555
O13_3 Dy6 1_555 1_555
C39_3 C40_3 1_555 1_555
C41_3 C42_3 1_555 1_555
C29_4 C30_4 1_555 1_555
C30_4 C31_4 1_555 1_555
C31_4 H17_4 1_555 1_555
C32_4 C31_4 1_555 1_555
H18_4 C32_4 1_555 1_555
C33_4 C32_4 1_555 1_555
C34_4 C30_4 1_555 1_555
H19_4 C34_4 1_555 1_555
C35_4 C33_4 1_555 1_555
H20_4 C35_4 1_555 1_555
O13_4 C29_4 1_555 1_555
C36_4 C37_4 1_555 1_555
C37_4 C38_4 1_555 1_555
C38_4 H21_4 1_555 1_555
C39_4 C38_4 1_555 1_555
H22_4 C39_4 1_555 1_555
C40_4 C33_4 1_555 1_555
O14_4 C36_4 1_555 1_555
C41_4 C37_4 1_555 1_555
H23_4 C41_4 1_555 1_555
C42_4 C40_4 1_555 1_555
H24_4 C42_4 1_555 1_555
O15_4 C36_4 1_555 1_555
Dy11_4 O14_4 1_555 1_555
Dy12 O15_4 1_555 1_555
C29_4 O17 1_555 1_555
C34_4 C35_4 1_555 1_555
O13_4 Dy5 1_555 1_555
C39_4 C40_4 1_555 1_555
C41_4 C42_4 1_555 1_555
C29_5 C30_5 1_555 1_555
C30_5 C31_5 1_555 1_555
C31_5 H17_5 1_555 1_555
C32_5 C31_5 1_555 1_555
H18_5 C32_5 1_555 1_555
C33_5 C32_5 1_555 1_555
O11_2 Dy5 1_555 1_555
C34_5 C30_5 1_555 1_555
H19_5 C34_5 1_555 1_555
C35_5 C33_5 1_555 1_555
H20_5 C35_5 1_555 1_555
O22 C29_5 1_555 1_555
C36_5 C37_5 1_555 1_555
C37_5 C38_5 1_555 1_555
C38_5 H21_5 1_555 1_555
C39_5 C38_5 1_555 1_555
H22_5 C39_5 1_555 1_555
C40_5 C33_5 1_555 1_555
O14_5 C36_5 1_555 1_555
C41_5 C37_5 1_555 1_555
H23_5 C41_5 1_555 1_555
C42_5 C40_5 1_555 1_555
H24_5 C42_5 1_555 1_555
O15_5 C36_5 1_555 1_555
Dy11_6 O14_5 1_555 1_555
Dy12_6 O15_5 1_555 1_555
O17_2 Dy6 1_555 1_555
O18_2 Dy5 1_555 1_555
O19_2 Dy6 1_555 1_555
C29_5 O11_2 1_555 1_555
C34_5 C35_5 1_555 1_555
C39_5 C40_5 1_555 1_555
C41_5 C42_5 1_555 1_555
C29_6 C30_6 1_555 1_555
C30_6 C31_6 1_555 1_555
C31_6 H17_6 1_555 1_555
C32_6 C31_6 1_555 1_555
H18_6 C32_6 1_555 1_555
C33_6 C32_6 1_555 1_555
C34_6 C30_6 1_555 1_555
H19_6 C34_6 1_555 1_555
C35_6 C33_6 1_555 1_555
H20_6 C35_6 1_555 1_555
O23_2 C29_6 1_555 1_555
C36_6 C37_6 1_555 1_555
C37_6 C38_6 1_555 1_555
C38_6 H21_6 1_555 1_555
C39_6 C38_6 1_555 1_555
H22_6 C39_6 1_555 1_555
C40_6 C33_6 1_555 1_555
O14_6 C36_6 1_555 1_555
C41_6 C37_6 1_555 1_555
H23_6 C41_6 1_555 1_555
C42_6 C40_6 1_555 1_555
H24_6 C42_6 1_555 1_555
O15_6 C36_6 1_555 1_555
Dy11_5 O14_6 1_555 1_555
Dy12_8 O15_6 1_555 1_555
C29_6 O18_2 1_555 1_555
C34_6 C35_6 1_555 1_555
C39_6 C40_6 1_555 1_555
C41_6 C42_6 1_555 1_555
C29_7 C30_7 1_555 1_555
C30_7 C31_7 1_555 1_555
C31_7 H17_7 1_555 1_555
C32_7 C31_7 1_555 1_555
H18_7 C32_7 1_555 1_555
C33_7 C32_7 1_555 1_555
C34_7 C30_7 1_555 1_555
H19_7 C34_7 1_555 1_555
C35_7 C33_7 1_555 1_555
H20_7 C35_7 1_555 1_555
O22_2 C29_7 1_555 1_555
C36_7 C37_7 1_555 1_555
C37_7 C38_7 1_555 1_555
C38_7 H21_7 1_555 1_555
C39_7 C38_7 1_555 1_555
H22_7 C39_7 1_555 1_555
C40_7 C33_7 1_555 1_555
O14_7 C36_7 1_555 1_555
C41_7 C37_7 1_555 1_555
H23_7 C41_7 1_555 1_555
C42_7 C40_7 1_555 1_555
H24_7 C42_7 1_555 1_555
O15_7 C36_7 1_555 1_555
Dy11_7 O14_7 1_555 1_555
Dy12_7 O15_7 1_555 1_555
C29_7 O19_2 1_555 1_555
C34_7 C35_7 1_555 1_555
C39_7 C40_7 1_555 1_555
C41_7 C42_7 1_555 1_555
C29_8 C30_8 1_555 1_555
C30_8 C31_8 1_555 1_555
C31_8 H17_8 1_555 1_555
C32_8 C31_8 1_555 1_555
H18_8 C32_8 1_555 1_555
C33_8 C32_8 1_555 1_555
C34_8 C30_8 1_555 1_555
H19_8 C34_8 1_555 1_555
C35_8 C33_8 1_555 1_555
H20_8 C35_8 1_555 1_555
O23 C29_8 1_555 1_555
C36_8 C37_8 1_555 1_555
C37_8 C38_8 1_555 1_555
C38_8 H21_8 1_555 1_555
C39_8 C38_8 1_555 1_555
H22_8 C39_8 1_555 1_555
C40_8 C33_8 1_555 1_555
O14_8 C36_8 1_555 1_555
C41_8 C37_8 1_555 1_555
H23_8 C41_8 1_555 1_555
C42_8 C40_8 1_555 1_555
H24_8 C42_8 1_555 1_555
O15_8 C36_8 1_555 1_555
Dy11_8 O14_8 1_555 1_555
Dy12_5 O15_8 1_555 1_555
C29_8 O17_2 1_555 1_555
C34_8 C35_8 1_555 1_555
C39_8 C40_8 1_555 1_555
C41_8 C42_8 1_555 1_555
O7_2 Dy8_3 1_555 1_555
C29_9 C30_9 1_555 1_555
C30_9 C31_9 1_555 1_555
C31_9 H17_9 1_555 1_555
C32_9 C31_9 1_555 1_555
H18_9 C32_9 1_555 1_555
C33_9 C32_9 1_555 1_555
O11_3 Dy9 1_555 1_555
C34_9 C30_9 1_555 1_555
H19_9 C34_9 1_555 1_555
C35_9 C33_9 1_555 1_555
H20_9 C35_9 1_555 1_555
O13_5 C29_9 1_555 1_555
C36_9 C37_9 1_555 1_555
C37_9 C38_9 1_555 1_555
C38_9 H21_9 1_555 1_555
C39_9 C38_9 1_555 1_555
H22_9 C39_9 1_555 1_555
C40_9 C33_9 1_555 1_555
O14_9 C36_9 1_555 1_555
C41_9 C37_9 1_555 1_555
H23_9 C41_9 1_555 1_555
C42_9 C40_9 1_555 1_555
H24_9 C42_9 1_555 1_555
O15_9 C36_9 1_555 1_555
Dy5_2 O7_2 1_555 1_555
Dy11_11 O14_9 1_555 1_555
Dy11_5 O15_9 1_555 1_555
O18_3 Dy9 1_555 1_555
O22_3 Dy8_3 1_555 1_555
O23_3 Dy8_3 1_555 1_555
O25_2 Dy8_3 1_555 1_555
O7_2 Dy9 1_555 1_555
Dy9 O25_2 1_555 1_555
C29_9 O11_3 1_555 1_555
C34_9 C35_9 1_555 1_555
O13_5 Dy5_2 1_555 1_555
C39_9 C40_9 1_555 1_555
C41_9 C42_9 1_555 1_555
Dy6_2 O25_2 1_555 1_555
O2_2 Dy8_4 1_555 1_555
Dy10 O2_2 1_555 1_555
Dy6_3 O2_2 1_555 1_555
O17_3 Dy10 1_555 1_555
O19_3 Dy10 1_555 1_555
O22_4 Dy8_4 1_555 1_555
O23_4 Dy8_4 1_555 1_555
O26_2 Dy8_4 1_555 1_555
Dy10 O26_2 1_555 1_555
Dy5_3 O26_2 1_555 1_555
C29_10 C30_10 1_555 1_555
C30_10 C31_10 1_555 1_555
C31_10 H17_10 1_555 1_555
C32_10 C31_10 1_555 1_555
H18_10 C32_10 1_555 1_555
C33_10 C32_10 1_555 1_555
O11_4 Dy9_2 1_555 1_555
O12_2 Dy9_2 1_555 1_555
C34_10 C30_10 1_555 1_555
H19_10 C34_10 1_555 1_555
C35_10 C33_10 1_555 1_555
H20_10 C35_10 1_555 1_555
O13_6 C29_10 1_555 1_555
C36_10 C37_10 1_555 1_555
C37_10 C38_10 1_555 1_555
C38_10 H21_10 1_555 1_555
C39_10 C38_10 1_555 1_555
H22_10 C39_10 1_555 1_555
C40_10 C33_10 1_555 1_555
O14_10 C36_10 1_555 1_555
C41_10 C37_10 1_555 1_555
H23_10 C41_10 1_555 1_555
C42_10 C40_10 1_555 1_555
H24_10 C42_10 1_555 1_555
O15_10 C36_10 1_555 1_555
Dy8 O12_2 1_555 1_555
Dy11_12 O14_10 1_555 1_555
Dy11_6 O15_10 1_555 1_555
O18_4 Dy9_2 1_555 1_555
O24_2 Dy9_2 1_555 1_555
C29_10 O11_4 1_555 1_555
O12_2 Dy6_4 1_555 1_555
C34_10 C35_10 1_555 1_555
O13_6 Dy5_4 1_555 1_555
C39_10 C40_10 1_555 1_555
C41_10 C42_10 1_555 1_555
Dy8 O24_2 1_555 1_555
Dy5_4 O24_2 1_555 1_555
O16_2 Dy10_2 1_555 1_555
O17_4 Dy10_2 1_555 1_555
O19_4 Dy10_2 1_555 1_555
O27_2 Dy10_2 1_555 1_555
O16_2 Dy8_2 1_555 1_555
O16_2 Dy5_5 1_555 1_555
Dy8_2 O27_2 1_555 1_555
Dy6_5 O27_2 1_555 1_555
C29_11 C30_11 1_555 1_555
C30_11 C31_11 1_555 1_555
C31_11 H17_11 1_555 1_555
C32_11 C31_11 1_555 1_555
H18_11 C32_11 1_555 1_555
C33_11 C32_11 1_555 1_555
C34_11 C30_11 1_555 1_555
H19_11 C34_11 1_555 1_555
C35_11 C33_11 1_555 1_555
H20_11 C35_11 1_555 1_555
O13_7 C29_11 1_555 1_555
C36_11 C37_11 1_555 1_555
C37_11 C38_11 1_555 1_555
C38_11 H21_11 1_555 1_555
C39_11 C38_11 1_555 1_555
H22_11 C39_11 1_555 1_555
C40_11 C33_11 1_555 1_555
O14_11 C36_11 1_555 1_555
C41_11 C37_11 1_555 1_555
H23_11 C41_11 1_555 1_555
C42_11 C40_11 1_555 1_555
H24_11 C42_11 1_555 1_555
O15_11 C36_11 1_555 1_555
Dy11_9 O14_11 1_555 1_555
Dy11_7 O15_11 1_555 1_555
C29_11 O18_3 1_555 1_555
C34_11 C35_11 1_555 1_555
O13_7 Dy6_2 1_555 1_555
C39_11 C40_11 1_555 1_555
C41_11 C42_11 1_555 1_555
C29_12 C30_12 1_555 1_555
C30_12 C31_12 1_555 1_555
C31_12 H17_12 1_555 1_555
C32_12 C31_12 1_555 1_555
H18_12 C32_12 1_555 1_555
C33_12 C32_12 1_555 1_555
C34_12 C30_12 1_555 1_555
H19_12 C34_12 1_555 1_555
C35_12 C33_12 1_555 1_555
H20_12 C35_12 1_555 1_555
O13_8 C29_12 1_555 1_555
C36_12 C37_12 1_555 1_555
C37_12 C38_12 1_555 1_555
C38_12 H21_12 1_555 1_555
C39_12 C38_12 1_555 1_555
H22_12 C39_12 1_555 1_555
C40_12 C33_12 1_555 1_555
O14_12 C36_12 1_555 1_555
C41_12 C37_12 1_555 1_555
H23_12 C41_12 1_555 1_555
C42_12 C40_12 1_555 1_555
H24_12 C42_12 1_555 1_555
O15_12 C36_12 1_555 1_555
Dy11_10 O14_12 1_555 1_555
Dy11_8 O15_12 1_555 1_555
O22_5 Dy8 1_555 1_555
O23_5 Dy8 1_555 1_555
C29_12 O18_4 1_555 1_555
C34_12 C35_12 1_555 1_555
O13_8 Dy6_4 1_555 1_555
C39_12 C40_12 1_555 1_555
C41_12 C42_12 1_555 1_555
O22_6 Dy8_2 1_555 1_555
O23_6 Dy8_2 1_555 1_555
C29_13 C30_13 1_555 1_555
C30_13 C31_13 1_555 1_555
C31_13 H17_13 1_555 1_555
C32_13 C31_13 1_555 1_555
H18_13 C32_13 1_555 1_555
C33_13 C32_13 1_555 1_555
C34_13 C30_13 1_555 1_555
H19_13 C34_13 1_555 1_555
C35_13 C33_13 1_555 1_555
H20_13 C35_13 1_555 1_555
O13_9 C29_13 1_555 1_555
C36_13 C37_13 1_555 1_555
C37_13 C38_13 1_555 1_555
C38_13 H21_13 1_555 1_555
C39_13 C38_13 1_555 1_555
H22_13 C39_13 1_555 1_555
C40_13 C33_13 1_555 1_555
O14_13 C36_13 1_555 1_555
C41_13 C37_13 1_555 1_555
H23_13 C41_13 1_555 1_555
C42_13 C40_13 1_555 1_555
H24_13 C42_13 1_555 1_555
O15_13 C36_13 1_555 1_555
Dy11_13 O14_13 1_555 1_555
Dy11_7 O15_13 1_555 1_555
C29_13 O19_3 1_555 1_555
C34_13 C35_13 1_555 1_555
O13_9 Dy6_3 1_555 1_555
C39_13 C40_13 1_555 1_555
C41_13 C42_13 1_555 1_555
C29_14 C30_14 1_555 1_555
C30_14 C31_14 1_555 1_555
C31_14 H17_14 1_555 1_555
C32_14 C31_14 1_555 1_555
H18_14 C32_14 1_555 1_555
C33_14 C32_14 1_555 1_555
C34_14 C30_14 1_555 1_555
H19_14 C34_14 1_555 1_555
C35_14 C33_14 1_555 1_555
H20_14 C35_14 1_555 1_555
O13_10 C29_14 1_555 1_555
C36_14 C37_14 1_555 1_555
C37_14 C38_14 1_555 1_555
C38_14 H21_14 1_555 1_555
C39_14 C38_14 1_555 1_555
H22_14 C39_14 1_555 1_555
C40_14 C33_14 1_555 1_555
O14_14 C36_14 1_555 1_555
C41_14 C37_14 1_555 1_555
H23_14 C41_14 1_555 1_555
C42_14 C40_14 1_555 1_555
H24_14 C42_14 1_555 1_555
O15_14 C36_14 1_555 1_555
Dy11_14 O14_14 1_555 1_555
Dy11_8 O15_14 1_555 1_555
C29_14 O19_4 1_555 1_555
C34_14 C35_14 1_555 1_555
O13_10 Dy6_5 1_555 1_555
C39_14 C40_14 1_555 1_555
C41_14 C42_14 1_555 1_555
C29_15 C30_15 1_555 1_555
C30_15 C31_15 1_555 1_555
C31_15 H17_15 1_555 1_555
C32_15 C31_15 1_555 1_555
H18_15 C32_15 1_555 1_555
C33_15 C32_15 1_555 1_555
C34_15 C30_15 1_555 1_555
H19_15 C34_15 1_555 1_555
C35_15 C33_15 1_555 1_555
H20_15 C35_15 1_555 1_555
O13_11 C29_15 1_555 1_555
C36_15 C37_15 1_555 1_555
C37_15 C38_15 1_555 1_555
C38_15 H21_15 1_555 1_555
C39_15 C38_15 1_555 1_555
H22_15 C39_15 1_555 1_555
C40_15 C33_15 1_555 1_555
O14_15 C36_15 1_555 1_555
C41_15 C37_15 1_555 1_555
H23_15 C41_15 1_555 1_555
C42_15 C40_15 1_555 1_555
H24_15 C42_15 1_555 1_555
O15_15 C36_15 1_555 1_555
Dy11_15 O14_15 1_555 1_555
Dy11_5 O15_15 1_555 1_555
C29_15 O17_3 1_555 1_555
C34_15 C35_15 1_555 1_555
O13_11 Dy5_3 1_555 1_555
C39_15 C40_15 1_555 1_555
C41_15 C42_15 1_555 1_555
C29_16 C30_16 1_555 1_555
C30_16 C31_16 1_555 1_555
C31_16 H17_16 1_555 1_555
C32_16 C31_16 1_555 1_555
H18_16 C32_16 1_555 1_555
C33_16 C32_16 1_555 1_555
C34_16 C30_16 1_555 1_555
H19_16 C34_16 1_555 1_555
C35_16 C33_16 1_555 1_555
H20_16 C35_16 1_555 1_555
O13_12 C29_16 1_555 1_555
C36_16 C37_16 1_555 1_555
C37_16 C38_16 1_555 1_555
C38_16 H21_16 1_555 1_555
C39_16 C38_16 1_555 1_555
H22_16 C39_16 1_555 1_555
C40_16 C33_16 1_555 1_555
O14_16 C36_16 1_555 1_555
C41_16 C37_16 1_555 1_555
H23_16 C41_16 1_555 1_555
C42_16 C40_16 1_555 1_555
H24_16 C42_16 1_555 1_555
O15_16 C36_16 1_555 1_555
Dy11_16 O14_16 1_555 1_555
Dy11_6 O15_16 1_555 1_555
C29_16 O17_4 1_555 1_555
C34_16 C35_16 1_555 1_555
O13_12 Dy5_5 1_555 1_555
C39_16 C40_16 1_555 1_555
C41_16 C42_16 1_555 1_555
C29_17 C30_17 1_555 1_555
C30_17 C31_17 1_555 1_555
C31_17 H17_17 1_555 1_555
C32_17 C31_17 1_555 1_555
H18_17 C32_17 1_555 1_555
C33_17 C32_17 1_555 1_555
O11_5 Dy5_2 1_555 1_555
C34_17 C30_17 1_555 1_555
H19_17 C34_17 1_555 1_555
C35_17 C33_17 1_555 1_555
H20_17 C35_17 1_555 1_555
O22_3 C29_17 1_555 1_555
C36_17 C37_17 1_555 1_555
C37_17 C38_17 1_555 1_555
C38_17 H21_17 1_555 1_555
C39_17 C38_17 1_555 1_555
H22_17 C39_17 1_555 1_555
C40_17 C33_17 1_555 1_555
O14_17 C36_17 1_555 1_555
C41_17 C37_17 1_555 1_555
H23_17 C41_17 1_555 1_555
C42_17 C40_17 1_555 1_555
H24_17 C42_17 1_555 1_555
O15_17 C36_17 1_555 1_555
Dy12 O14_17 1_555 1_555
Dy12_11 O15_17 1_555 1_555
O17_5 Dy6_2 1_555 1_555
C29_17 O11_5 1_555 1_555
C34_17 C35_17 1_555 1_555
C39_17 C40_17 1_555 1_555
C41_17 C42_17 1_555 1_555
C29_18 C30_18 1_555 1_555
C30_18 C31_18 1_555 1_555
C31_18 H17_18 1_555 1_555
C32_18 C31_18 1_555 1_555
H18_18 C32_18 1_555 1_555
C33_18 C32_18 1_555 1_555
O11_6 Dy5_3 1_555 1_555
C34_18 C30_18 1_555 1_555
H19_18 C34_18 1_555 1_555
C35_18 C33_18 1_555 1_555
H20_18 C35_18 1_555 1_555
O22_4 C29_18 1_555 1_555
C36_18 C37_18 1_555 1_555
C37_18 C38_18 1_555 1_555
C38_18 H21_18 1_555 1_555
C39_18 C38_18 1_555 1_555
H22_18 C39_18 1_555 1_555
C40_18 C33_18 1_555 1_555
O14_18 C36_18 1_555 1_555
C41_18 C37_18 1_555 1_555
H23_18 C41_18 1_555 1_555
C42_18 C40_18 1_555 1_555
H24_18 C42_18 1_555 1_555
O15_18 C36_18 1_555 1_555
Dy12_2 O14_18 1_555 1_555
Dy12_12 O15_18 1_555 1_555
O17_6 Dy6_3 1_555 1_555
C29_18 O11_6 1_555 1_555
C34_18 C35_18 1_555 1_555
C39_18 C40_18 1_555 1_555
C41_18 C42_18 1_555 1_555
O18_5 Dy5_4 1_555 1_555
O19_5 Dy6_4 1_555 1_555
O18_6 Dy5_5 1_555 1_555
O19_6 Dy6_5 1_555 1_555
C29_19 C30_19 1_555 1_555
C30_19 C31_19 1_555 1_555
C31_19 H17_19 1_555 1_555
C32_19 C31_19 1_555 1_555
H18_19 C32_19 1_555 1_555
C33_19 C32_19 1_555 1_555
C34_19 C30_19 1_555 1_555
H19_19 C34_19 1_555 1_555
C35_19 C33_19 1_555 1_555
H20_19 C35_19 1_555 1_555
O23_5 C29_19 1_555 1_555
C36_19 C37_19 1_555 1_555
C37_19 C38_19 1_555 1_555
C38_19 H21_19 1_555 1_555
C39_19 C38_19 1_555 1_555
H22_19 C39_19 1_555 1_555
C40_19 C33_19 1_555 1_555
O14_19 C36_19 1_555 1_555
C41_19 C37_19 1_555 1_555
H23_19 C41_19 1_555 1_555
C42_19 C40_19 1_555 1_555
H24_19 C42_19 1_555 1_555
O15_19 C36_19 1_555 1_555
Dy12 O14_19 1_555 1_555
Dy12_15 O15_19 1_555 1_555
C29_19 O18_5 1_555 1_555
C34_19 C35_19 1_555 1_555
C39_19 C40_19 1_555 1_555
C41_19 C42_19 1_555 1_555
C29_20 C30_20 1_555 1_555
C30_20 C31_20 1_555 1_555
C31_20 H17_20 1_555 1_555
C32_20 C31_20 1_555 1_555
H18_20 C32_20 1_555 1_555
C33_20 C32_20 1_555 1_555
C34_20 C30_20 1_555 1_555
H19_20 C34_20 1_555 1_555
C35_20 C33_20 1_555 1_555
H20_20 C35_20 1_555 1_555
O23_6 C29_20 1_555 1_555
C36_20 C37_20 1_555 1_555
C37_20 C38_20 1_555 1_555
C38_20 H21_20 1_555 1_555
C39_20 C38_20 1_555 1_555
H22_20 C39_20 1_555 1_555
C40_20 C33_20 1_555 1_555
O14_20 C36_20 1_555 1_555
C41_20 C37_20 1_555 1_555
H23_20 C41_20 1_555 1_555
C42_20 C40_20 1_555 1_555
H24_20 C42_20 1_555 1_555
O15_20 C36_20 1_555 1_555
Dy12_2 O14_20 1_555 1_555
Dy12_16 O15_20 1_555 1_555
C29_20 O18_6 1_555 1_555
C34_20 C35_20 1_555 1_555
C39_20 C40_20 1_555 1_555
C41_20 C42_20 1_555 1_555
C29_21 C30_21 1_555 1_555
C30_21 C31_21 1_555 1_555
C31_21 H17_21 1_555 1_555
C32_21 C31_21 1_555 1_555
H18_21 C32_21 1_555 1_555
C33_21 C32_21 1_555 1_555
C34_21 C30_21 1_555 1_555
H19_21 C34_21 1_555 1_555
C35_21 C33_21 1_555 1_555
H20_21 C35_21 1_555 1_555
O22_5 C29_21 1_555 1_555
C36_21 C37_21 1_555 1_555
C37_21 C38_21 1_555 1_555
C38_21 H21_21 1_555 1_555
C39_21 C38_21 1_555 1_555
H22_21 C39_21 1_555 1_555
C40_21 C33_21 1_555 1_555
O14_21 C36_21 1_555 1_555
C41_21 C37_21 1_555 1_555
H23_21 C41_21 1_555 1_555
C42_21 C40_21 1_555 1_555
H24_21 C42_21 1_555 1_555
O15_21 C36_21 1_555 1_555
Dy12_3 O14_21 1_555 1_555
Dy12_13 O15_21 1_555 1_555
C29_21 O19_5 1_555 1_555
C34_21 C35_21 1_555 1_555
C39_21 C40_21 1_555 1_555
C41_21 C42_21 1_555 1_555
C29_22 C30_22 1_555 1_555
C30_22 C31_22 1_555 1_555
C31_22 H17_22 1_555 1_555
C32_22 C31_22 1_555 1_555
H18_22 C32_22 1_555 1_555
C33_22 C32_22 1_555 1_555
C34_22 C30_22 1_555 1_555
H19_22 C34_22 1_555 1_555
C35_22 C33_22 1_555 1_555
H20_22 C35_22 1_555 1_555
O22_6 C29_22 1_555 1_555
C36_22 C37_22 1_555 1_555
C37_22 C38_22 1_555 1_555
C38_22 H21_22 1_555 1_555
C39_22 C38_22 1_555 1_555
H22_22 C39_22 1_555 1_555
C40_22 C33_22 1_555 1_555
O14_22 C36_22 1_555 1_555
C41_22 C37_22 1_555 1_555
H23_22 C41_22 1_555 1_555
C42_22 C40_22 1_555 1_555
H24_22 C42_22 1_555 1_555
O15_22 C36_22 1_555 1_555
Dy12_4 O14_22 1_555 1_555
Dy12_14 O15_22 1_555 1_555
C29_22 O19_6 1_555 1_555
C34_22 C35_22 1_555 1_555
C39_22 C40_22 1_555 1_555
C41_22 C42_22 1_555 1_555
C29_23 C30_23 1_555 1_555
C30_23 C31_23 1_555 1_555
C31_23 H17_23 1_555 1_555
C32_23 C31_23 1_555 1_555
H18_23 C32_23 1_555 1_555
C33_23 C32_23 1_555 1_555
C34_23 C30_23 1_555 1_555
H19_23 C34_23 1_555 1_555
C35_23 C33_23 1_555 1_555
H20_23 C35_23 1_555 1_555
O23_3 C29_23 1_555 1_555
C36_23 C37_23 1_555 1_555
C37_23 C38_23 1_555 1_555
C38_23 H21_23 1_555 1_555
C39_23 C38_23 1_555 1_555
H22_23 C39_23 1_555 1_555
C40_23 C33_23 1_555 1_555
O14_23 C36_23 1_555 1_555
C41_23 C37_23 1_555 1_555
H23_23 C41_23 1_555 1_555
C42_23 C40_23 1_555 1_555
H24_23 C42_23 1_555 1_555
O15_23 C36_23 1_555 1_555
Dy12_3 O14_23 1_555 1_555
Dy12_9 O15_23 1_555 1_555
C29_23 O17_5 1_555 1_555
C34_23 C35_23 1_555 1_555
C39_23 C40_23 1_555 1_555
C41_23 C42_23 1_555 1_555
C29_24 C30_24 1_555 1_555
C30_24 C31_24 1_555 1_555
C31_24 H17_24 1_555 1_555
C32_24 C31_24 1_555 1_555
H18_24 C32_24 1_555 1_555
C33_24 C32_24 1_555 1_555
C34_24 C30_24 1_555 1_555
H19_24 C34_24 1_555 1_555
C35_24 C33_24 1_555 1_555
H20_24 C35_24 1_555 1_555
O23_4 C29_24 1_555 1_555
C36_24 C37_24 1_555 1_555
C37_24 C38_24 1_555 1_555
C38_24 H21_24 1_555 1_555
C39_24 C38_24 1_555 1_555
H22_24 C39_24 1_555 1_555
C40_24 C33_24 1_555 1_555
O14_24 C36_24 1_555 1_555
C41_24 C37_24 1_555 1_555
H23_24 C41_24 1_555 1_555
C42_24 C40_24 1_555 1_555
H24_24 C42_24 1_555 1_555
O15_24 C36_24 1_555 1_555
Dy12_4 O14_24 1_555 1_555
Dy12_10 O15_24 1_555 1_555
C29_24 O17_6 1_555 1_555
C34_24 C35_24 1_555 1_555
C39_24 C40_24 1_555 1_555
C41_24 C42_24 1_555 1_555
Dy12_13 O1_3 1_555 1_555
C1_3 C2_3 1_555 1_555
C2_3 C3_3 1_555 1_555
C3_3 H1_3 1_555 1_555
C4_3 C3_3 1_555 1_555
H2_3 C4_3 1_555 1_555
C5_3 C4_3 1_555 1_555
O1_3 C1_3 1_555 1_555
C6_3 C2_3 1_555 1_555
H3_3 C6_3 1_555 1_555
C7_3 C5_3 1_555 1_555
H4_3 C7_3 1_555 1_555
O3_2 C1_3 1_555 1_555
C8_3 C9_3 1_555 1_555
C9_3 C10_3 1_555 1_555
C10_3 H5_3 1_555 1_555
C11_3 C10_3 1_555 1_555
H6_3 C11_3 1_555 1_555
C12_3 C5_3 1_555 1_555
O4_3 C8_3 1_555 1_555
C13_3 C9_3 1_555 1_555
H7_3 C13_3 1_555 1_555
C14_3 C12_3 1_555 1_555
H8_3 C14_3 1_555 1_555
O5_3 C8_3 1_555 1_555
O7_3 Dy12_13 1_555 1_555
Dy11_3 O3_2 1_555 1_555
Dy12_3 O7_3 1_555 1_555
Dy12_5 O4_3 1_555 1_555
Dy11_10 O5_3 1_555 1_555
O21_2 Dy11_3 1_555 1_555
O24_3 Dy11_3 1_555 1_555
C6_3 C7_3 1_555 1_555
C11_3 C12_3 1_555 1_555
C13_3 C14_3 1_555 1_555
O7_3 Dy11_3 1_555 1_555
Dy12_9 O24_3 1_555 1_555
Dy12_3 O24_3 1_555 1_555
C15_3 C16_3 1_555 1_555
C16_3 C17_3 1_555 1_555
C17_3 H9_3 1_555 1_555
C18_3 C17_3 1_555 1_555
H10_3 C18_3 1_555 1_555
C19_3 C18_3 1_555 1_555
O6_3 Dy12_14 1_555 1_555
C20_3 C16_3 1_555 1_555
H11_3 C20_3 1_555 1_555
C21_3 C19_3 1_555 1_555
H12_3 C21_3 1_555 1_555
O8_2 C15_3 1_555 1_555
C22_3 C23_3 1_555 1_555
C23_3 C24_3 1_555 1_555
C24_3 H13_3 1_555 1_555
C25_3 C24_3 1_555 1_555
H14_3 C25_3 1_555 1_555
C26_3 C19_3 1_555 1_555
O9_3 C22_3 1_555 1_555
C27_3 C23_3 1_555 1_555
H15_3 C27_3 1_555 1_555
C28_3 C26_3 1_555 1_555
H16_3 C28_3 1_555 1_555
O10_3 C22_3 1_555 1_555
O16_3 Dy11 1_555 1_555
Dy12_5 O9_3 1_555 1_555
Dy11_14 O10_3 1_555 1_555
O20_2 Dy11 1_555 1_555
O26_3 Dy12_14 1_555 1_555
C15_3 O6_3 1_555 1_555
C20_3 C21_3 1_555 1_555
O8_2 Dy11 1_555 1_555
C25_3 C26_3 1_555 1_555
C27_3 C28_3 1_555 1_555
Dy11 O26_3 1_555 1_555
O16_3 Dy12_10 1_555 1_555
O16_3 Dy12_4 1_555 1_555
Dy12_4 O26_3 1_555 1_555
Dy12_15 O1_4 1_555 1_555
C1_4 C2_4 1_555 1_555
C2_4 C3_4 1_555 1_555
C3_4 H1_4 1_555 1_555
C4_4 C3_4 1_555 1_555
H2_4 C4_4 1_555 1_555
C5_4 C4_4 1_555 1_555
O1_4 C1_4 1_555 1_555
C6_4 C2_4 1_555 1_555
H3_4 C6_4 1_555 1_555
C7_4 C5_4 1_555 1_555
H4_4 C7_4 1_555 1_555
O3_3 C1_4 1_555 1_555
C8_4 C9_4 1_555 1_555
C9_4 C10_4 1_555 1_555
C10_4 H5_4 1_555 1_555
C11_4 C10_4 1_555 1_555
H6_4 C11_4 1_555 1_555
C12_4 C5_4 1_555 1_555
O4_4 C8_4 1_555 1_555
C13_4 C9_4 1_555 1_555
H7_4 C13_4 1_555 1_555
C14_4 C12_4 1_555 1_555
H8_4 C14_4 1_555 1_555
O5_4 C8_4 1_555 1_555
Dy11_4 O3_3 1_555 1_555
O12_3 Dy11_4 1_555 1_555
Dy12_11 O12_3 1_555 1_555
Dy12_6 O4_4 1_555 1_555
Dy11_12 O5_4 1_555 1_555
O21_3 Dy11_4 1_555 1_555
O25_3 Dy12_15 1_555 1_555
C6_4 C7_4 1_555 1_555
C11_4 C12_4 1_555 1_555
C13_4 C14_4 1_555 1_555
Dy11_4 O25_3 1_555 1_555
O12_3 Dy12 1_555 1_555
Dy12 O25_3 1_555 1_555
O2_3 Dy12_16 1_555 1_555
C15_4 C16_4 1_555 1_555
C16_4 C17_4 1_555 1_555
C17_4 H9_4 1_555 1_555
C18_4 C17_4 1_555 1_555
H10_4 C18_4 1_555 1_555
C19_4 C18_4 1_555 1_555
O6_4 Dy12_16 1_555 1_555
C20_4 C16_4 1_555 1_555
H11_4 C20_4 1_555 1_555
C21_4 C19_4 1_555 1_555
H12_4 C21_4 1_555 1_555
O8_3 C15_4 1_555 1_555
C22_4 C23_4 1_555 1_555
C23_4 C24_4 1_555 1_555
C24_4 H13_4 1_555 1_555
C25_4 C24_4 1_555 1_555
H14_4 C25_4 1_555 1_555
C26_4 C19_4 1_555 1_555
O9_4 C22_4 1_555 1_555
C27_4 C23_4 1_555 1_555
H15_4 C27_4 1_555 1_555
C28_4 C26_4 1_555 1_555
H16_4 C28_4 1_555 1_555
O10_4 C22_4 1_555 1_555
Dy11_2 O2_3 1_555 1_555
Dy12_2 O2_3 1_555 1_555
Dy12_6 O9_4 1_555 1_555
Dy11_16 O10_4 1_555 1_555
O20_3 Dy11_2 1_555 1_555
O27_3 Dy11_2 1_555 1_555
C15_4 O6_4 1_555 1_555
C20_4 C21_4 1_555 1_555
O8_3 Dy11_2 1_555 1_555
C25_4 C26_4 1_555 1_555
C27_4 C28_4 1_555 1_555
Dy12_12 O27_3 1_555 1_555
Dy12_2 O27_3 1_555 1_555
Dy12_9 O1_5 1_555 1_555
C1_5 C2_5 1_555 1_555
C2_5 C3_5 1_555 1_555
C3_5 H1_5 1_555 1_555
C4_5 C3_5 1_555 1_555
H2_5 C4_5 1_555 1_555
C5_5 C4_5 1_555 1_555
O1_5 C1_5 1_555 1_555
C6_5 C2_5 1_555 1_555
H3_5 C6_5 1_555 1_555
C7_5 C5_5 1_555 1_555
H4_5 C7_5 1_555 1_555
O21_2 C1_5 1_555 1_555
C8_5 C9_5 1_555 1_555
C9_5 C10_5 1_555 1_555
C10_5 H5_5 1_555 1_555
C11_5 C10_5 1_555 1_555
H6_5 C11_5 1_555 1_555
C12_5 C5_5 1_555 1_555
O4_5 C8_5 1_555 1_555
C13_5 C9_5 1_555 1_555
H7_5 C13_5 1_555 1_555
C14_5 C12_5 1_555 1_555
H8_5 C14_5 1_555 1_555
O5_5 C8_5 1_555 1_555
Dy12_7 O4_5 1_555 1_555
Dy11_9 O5_5 1_555 1_555
C6_5 C7_5 1_555 1_555
C11_5 C12_5 1_555 1_555
C13_5 C14_5 1_555 1_555
C15_5 C16_5 1_555 1_555
C16_5 C17_5 1_555 1_555
C17_5 H9_5 1_555 1_555
C18_5 C17_5 1_555 1_555
H10_5 C18_5 1_555 1_555
C19_5 C18_5 1_555 1_555
O6_5 Dy12_10 1_555 1_555
C20_5 C16_5 1_555 1_555
H11_5 C20_5 1_555 1_555
C21_5 C19_5 1_555 1_555
H12_5 C21_5 1_555 1_555
O20_2 C15_5 1_555 1_555
C22_5 C23_5 1_555 1_555
C23_5 C24_5 1_555 1_555
C24_5 H13_5 1_555 1_555
C25_5 C24_5 1_555 1_555
H14_5 C25_5 1_555 1_555
C26_5 C19_5 1_555 1_555
O9_5 C22_5 1_555 1_555
C27_5 C23_5 1_555 1_555
H15_5 C27_5 1_555 1_555
C28_5 C26_5 1_555 1_555
H16_5 C28_5 1_555 1_555
O10_5 C22_5 1_555 1_555
Dy12_7 O9_5 1_555 1_555
Dy11_13 O10_5 1_555 1_555
C15_5 O6_5 1_555 1_555
C20_5 C21_5 1_555 1_555
C25_5 C26_5 1_555 1_555
C27_5 C28_5 1_555 1_555
Dy12_11 O1_6 1_555 1_555
C1_6 C2_6 1_555 1_555
C2_6 C3_6 1_555 1_555
C3_6 H1_6 1_555 1_555
C4_6 C3_6 1_555 1_555
H2_6 C4_6 1_555 1_555
C5_6 C4_6 1_555 1_555
O1_6 C1_6 1_555 1_555
C6_6 C2_6 1_555 1_555
H3_6 C6_6 1_555 1_555
C7_6 C5_6 1_555 1_555
H4_6 C7_6 1_555 1_555
O21_3 C1_6 1_555 1_555
C8_6 C9_6 1_555 1_555
C9_6 C10_6 1_555 1_555
C10_6 H5_6 1_555 1_555
C11_6 C10_6 1_555 1_555
H6_6 C11_6 1_555 1_555
C12_6 C5_6 1_555 1_555
O4_6 C8_6 1_555 1_555
C13_6 C9_6 1_555 1_555
H7_6 C13_6 1_555 1_555
C14_6 C12_6 1_555 1_555
H8_6 C14_6 1_555 1_555
O5_6 C8_6 1_555 1_555
Dy12_8 O4_6 1_555 1_555
Dy11_11 O5_6 1_555 1_555
C6_6 C7_6 1_555 1_555
C11_6 C12_6 1_555 1_555
C13_6 C14_6 1_555 1_555
C15_6 C16_6 1_555 1_555
C16_6 C17_6 1_555 1_555
C17_6 H9_6 1_555 1_555
C18_6 C17_6 1_555 1_555
H10_6 C18_6 1_555 1_555
C19_6 C18_6 1_555 1_555
O6_6 Dy12_12 1_555 1_555
C20_6 C16_6 1_555 1_555
H11_6 C20_6 1_555 1_555
C21_6 C19_6 1_555 1_555
H12_6 C21_6 1_555 1_555
O20_3 C15_6 1_555 1_555
C22_6 C23_6 1_555 1_555
C23_6 C24_6 1_555 1_555
C24_6 H13_6 1_555 1_555
C25_6 C24_6 1_555 1_555
H14_6 C25_6 1_555 1_555
C26_6 C19_6 1_555 1_555
O9_6 C22_6 1_555 1_555
C27_6 C23_6 1_555 1_555
H15_6 C27_6 1_555 1_555
C28_6 C26_6 1_555 1_555
H16_6 C28_6 1_555 1_555
O10_6 C22_6 1_555 1_555
Dy12_8 O9_6 1_555 1_555
Dy11_15 O10_6 1_555 1_555
C15_6 O6_6 1_555 1_555
C20_6 C21_6 1_555 1_555
C25_6 C26_6 1_555 1_555
C27_6 C28_6 1_555 1_555
O7_4 Dy12_7 1_555 1_555
Dy11_7 O7_4 1_555 1_555
O26_4 Dy12_7 1_555 1_555
O7_4 Dy11_13 1_555 1_555
Dy11_9 O26_4 1_555 1_555
Dy11_7 O26_4 1_555 1_555
O16_4 Dy11_10 1_555 1_555
O24_4 Dy11_14 1_555 1_555
O16_4 Dy12_5 1_555 1_555
O16_4 Dy11_8 1_555 1_555
Dy12_5 O24_4 1_555 1_555
Dy11_8 O24_4 1_555 1_555
O2_4 Dy12_8 1_555 1_555
Dy11_11 O2_4 1_555 1_555
Dy11_5 O2_4 1_555 1_555
O25_4 Dy12_8 1_555 1_555
Dy11_15 O25_4 1_555 1_555
Dy11_5 O25_4 1_555 1_555
O12_4 Dy11_16 1_555 1_555
Dy12_6 O12_4 1_555 1_555
O27_4 Dy11_12 1_555 1_555
O12_4 Dy11_6 1_555 1_555
Dy12_6 O27_4 1_555 1_555
Dy11_6 O27_4 1_555 1_555

#END
