
###############################################################################
#
# This file contains modified crystal structure data generated from the
# MOF subset of the Cambridge Structural Database (CSD) v543 
# hosted by the Cambridge Crystallographic Data Centre (CCDC).
#
# This work is licensed under the Creative Commons
# Attribution-NonCommercial-ShareAlike 4.0 International License.
# To view a copy of this license, visit
# http://creativecommons.org/licenses/by-nc-sa/4.0/
# or send a letter to
# Creative Commons, PO Box 1866, Mountain View, CA 94042, USA.
#
# CIF created using the CSD Python API on 29 September 2022
# The structure has been converted into the P1 space group
# The structure has a 3D framework
# The original CSD entry FIPKOG is in the triclinic crystal system
# The framework has been calculated to contain at least 10.0% void space
# The void calculation uses a probe of radius 1.32A, grid spacing 0.4
# The framework is charged, counterions have been retained in the structure
#
###############################################################################

data_FIPKOG
_chemical_formula_moiety         '(C56 H56 N8 O20 4-)n'
_symmetry_cell_setting           triclinic
_symmetry_space_group_name_H-M   'P 1'
_symmetry_Int_Tables_number      1
_space_group_name_Hall           'P 1'
loop_
_symmetry_equiv_pos_site_id
_symmetry_equiv_pos_as_xyz
1 x,y,z
_cell_length_a                   10.217(2)
_cell_length_b                   10.362(2)
_cell_length_c                   18.118(4)
_cell_angle_alpha                102.53(3)
_cell_angle_beta                 99.35(3)
_cell_angle_gamma                93.79(3)
_cell_volume                     1837.31
loop_
_atom_site_label
_atom_site_type_symbol
_atom_site_fract_x
_atom_site_fract_y
_atom_site_fract_z
C9 C 0.4921(5) 0.2331(5) 0.0281(3)
C10 C 0.5428(5) 0.2679(5) 0.1133(3)
C11 C 0.6781(5) 0.2849(5) 0.1452(3)
H4 H 0.7416 0.2715 0.1137
C12 C 0.7170(6) 0.3221(5) 0.2245(3)
H5 H 0.8074 0.3339 0.2458
C13 C 0.6244(6) 0.3420(5) 0.2723(3)
C14 C 0.6657(6) 0.3920(6) 0.3573(3)
C15 C 0.4894(6) 0.3230(5) 0.2399(3)
H6 H 0.4263 0.3349 0.2718
C16 C 0.4479(5) 0.2867(5) 0.1614(3)
H7 H 0.3574 0.2748 0.1403
C17 C 0.8132(5) 0.3638(5) 0.4726(3)
C18 C 0.8358(5) 0.4956(5) 0.5135(3)
H8 H 0.8162 0.5635 0.4886
C19 C 0.8883(5) 0.5255(5) 0.5922(3)
C20 C 0.9115(5) 0.6708(5) 0.6352(3)
C21 C 0.9201(5) 0.4238(5) 0.6279(3)
H9 H 0.9561 0.4439 0.6801
C22 C 0.8994(5) 0.2918(5) 0.5871(3)
C23 C 0.9306(5) 0.1802(5) 0.6269(3)
C24 C 0.8454(5) 0.2629(5) 0.5087(3)
H10 H 0.8311 0.1751 0.4807
H11 H 0.6343 0.1299 0.0078
N2 N 0.7591(5) 0.3309(4) 0.3924(2)
H12 H 0.7895 0.2660 0.3642
O5 O 0.3908(4) 0.2776(5) 0.0014(2)
O6 O 0.6106(5) 0.4840(5) 0.3916(2)
O7 O 0.9043(4) 0.0632(3) 0.5871(2)
O8 O 0.9780(5) 0.2071(4) 0.6957(2)
O9 O 0.8919(4) 0.7572(3) 0.5963(2)
O10 O 0.9524(4) 0.7011(4) 0.7058(2)
Cd4 Cd 0.95185(3) 0.95298(3) 0.684183(19)
C2 C 0.3602(5) 0.0184(4) 0.7892(3)
C4 C 0.5945(5) 0.0239(5) 0.7821(3)
C6 C 0.6250(5) 0.0776(5) 0.8605(3)
H2 H 0.7139 0.0977 0.8846
C7 C 0.5252(5) 0.1019(5) 0.9038(3)
C8 C 0.3934(5) 0.0700(5) 0.8683(3)
H3 H 0.3263 0.0830 0.8974
N1 N 0.5619(4) 0.1527(4) 0.9849(2)
O1 O 0.1281(3) 0.0182(4) 0.7914(2)
O4 O 0.8215(4) 0.0032(4) 0.7723(2)
C1 C 0.2159(5) 0.9876(5) 0.7512(3)
C3 C 0.4616(5) 0.9954(5) 0.7462(3)
H1 H 0.4401 0.9610 0.6933
C5 C 0.7043(5) 0.9936(5) 0.7358(3)
O2 O 0.1869(3) 0.9352(3) 0.68055(19)
O3 O 0.6744(4) 0.9612(5) 0.6647(2)
Cd1 Cd 0.04815(3) 0.04702(3) 0.315817(19)
O11 O 0.3256(4) 0.0388(5) 0.3353(2)
O15 O 0.1081(4) 0.2428(3) 0.4037(2)
O16 O 0.0476(4) 0.2989(4) 0.2942(2)
O12 O 0.1785(4) 0.9968(4) 0.2277(2)
O13 O 0.0957(4) 0.9368(3) 0.4129(2)
O14 O 0.0220(5) 0.7929(4) 0.3043(2)
C1_2 C 0.7841(5) 0.0124(5) 0.2488(3)
C3_2 C 0.5384(5) 0.0046(5) 0.2538(3)
H1_2 H 0.5599 0.0390 0.3067
C5_2 C 0.2957(5) 0.0064(5) 0.2642(3)
O2_2 O 0.8131(3) 0.0648(3) 0.31945(19)
C2_2 C 0.6398(5) 0.9816(4) 0.2108(3)
C4_2 C 0.4055(5) 0.9761(5) 0.2179(3)
C6_2 C 0.3750(5) 0.9224(5) 0.1395(3)
H2_2 H 0.2861 0.9023 0.1154
C7_2 C 0.4748(5) 0.8981(5) 0.0962(3)
C8_2 C 0.6066(5) 0.9300(5) 0.1317(3)
H3_2 H 0.6737 0.9170 0.1026
N1_2 N 0.4381(4) 0.8473(4) 0.0151(2)
O1_2 O 0.8719(3) 0.9818(4) 0.2086(2)
C9_2 C 0.5079(5) 0.7669(5) 0.9719(3)
C10_2 C 0.4572(5) 0.7321(5) 0.8867(3)
C11_2 C 0.3219(5) 0.7151(5) 0.8548(3)
H4_2 H 0.2584 0.7285 0.8863
C12_2 C 0.2830(6) 0.6779(5) 0.7755(3)
H5_2 H 0.1926 0.6661 0.7542
C13_2 C 0.3756(6) 0.6580(5) 0.7277(3)
C14_2 C 0.3343(6) 0.6080(6) 0.6427(3)
C15_2 C 0.5106(6) 0.6770(5) 0.7601(3)
H6_2 H 0.5737 0.6651 0.7282
C16_2 C 0.5521(5) 0.7133(5) 0.8386(3)
H7_2 H 0.6426 0.7252 0.8597
C17_2 C 0.1868(5) 0.6362(5) 0.5274(3)
C18_2 C 0.1642(5) 0.5044(5) 0.4865(3)
H8_2 H 0.1838 0.4365 0.5114
C19_2 C 0.1117(5) 0.4745(5) 0.4078(3)
C20_2 C 0.0885(5) 0.3292(5) 0.3648(3)
C21_2 C 0.0799(5) 0.5762(5) 0.3721(3)
H9_2 H 0.0439 0.5561 0.3199
C22_2 C 0.1006(5) 0.7082(5) 0.4129(3)
C23_2 C 0.0694(5) 0.8198(5) 0.3731(3)
C24_2 C 0.1546(5) 0.7371(5) 0.4913(3)
H10_2 H 0.1689 0.8249 0.5193
H11_2 H 0.3657 0.8701 0.9922
N2_2 N 0.2409(5) 0.6691(4) 0.6076(2)
H12_2 H 0.2105 0.7340 0.6358
O5_2 O 0.6092(4) 0.7224(5) 0.9986(2)
O6_2 O 0.3894(5) 0.5160(5) 0.6084(2)
C25 C 0.1517(7) 0.3647(8) 0.8619(5)
H13 H 0.1402 0.4484 0.8941
H14 H 0.1437 0.3729 0.8097
H15 H 0.2384 0.3397 0.8787
C26 C 0.0423(8) 0.2540(8) 0.9462(4)
H16 H 0.1281 0.2387 0.9714
H18 H 0.0166 0.3356 0.9737
N3 N 0.0493(5) 0.2631(5) 0.8670(3)
H19 H 0.0657 0.1836 0.8404
H17 H 0.9777 0.1818 0.9452
H20 H 0.9694 0.2809 0.8446
H17_2 H 0.0223 0.8182 0.0548
H20_2 H 0.0306 0.7191 0.1554
C25_2 C 0.8483(7) 0.6353(8) 0.1381(5)
H13_2 H 0.8598 0.5516 0.1059
H14_2 H 0.8563 0.6271 0.1903
H15_2 H 0.7616 0.6603 0.1213
C26_2 C 0.9577(8) 0.7460(8) 0.0538(4)
H16_2 H 0.8719 0.7613 0.0286
H18_2 H 0.9834 0.6644 0.0263
N3_2 N 0.9507(5) 0.7369(5) 0.1330(3)
H19_2 H 0.9343 0.8164 0.1596
N4 N 0.6911(6) 0.8494(6) 0.5055(4)
H21 H 0.6788 0.9348 0.5237
H22 H 0.7547 0.8281 0.5400
C27 C 0.7437(10) 0.8417(10) 0.4346(6)
H23 H 0.7457 0.7502 0.4099
H24 H 0.8324 0.8866 0.4465
H25 H 0.6875 0.8834 0.4009
C28 C 0.5587(14) 0.7626(15) 0.5032(9)
H26 H 0.5030 0.7501 0.4536
H27 H 0.5129 0.8067 0.5421
H28 H 0.5790 0.6778 0.5125
N4_2 N 0.3089(6) 0.1506(6) 0.4945(4)
H21_2 H 0.3212 0.0652 0.4763
H22_2 H 0.2453 0.1719 0.4600
C27_2 C 0.2563(10) 0.1583(10) 0.5654(6)
H23_2 H 0.2543 0.2498 0.5901
H24_2 H 0.1676 0.1134 0.5535
H25_2 H 0.3125 0.1166 0.5991
C28_2 C 0.4413(14) 0.2374(15) 0.4968(9)
H26_2 H 0.4970 0.2499 0.5464
H27_2 H 0.4871 0.1933 0.4579
H28_2 H 0.4210 0.3222 0.4875
loop_
_geom_bond_atom_site_label_1
_geom_bond_atom_site_label_2
_geom_bond_site_symmetry_1
_geom_bond_site_symmetry_2
C9 C10 1_555 1_555
C10 C11 1_555 1_555
C11 H4 1_555 1_555
C12 C11 1_555 1_555
H5 C12 1_555 1_555
C13 C12 1_555 1_555
C14 C13 1_555 1_555
C15 C13 1_555 1_555
H6 C15 1_555 1_555
C16 C10 1_555 1_555
H7 C16 1_555 1_555
C17 C18 1_555 1_555
C18 H8 1_555 1_555
C19 C18 1_555 1_555
C20 C19 1_555 1_555
C21 C19 1_555 1_555
H9 C21 1_555 1_555
C22 C21 1_555 1_555
C23 C22 1_555 1_555
C24 C17 1_555 1_555
H10 C24 1_555 1_555
N2 C14 1_555 1_555
H12 N2 1_555 1_555
O5 C9 1_555 1_555
O6 C14 1_555 1_555
O7 C23 1_555 1_555
O8 C23 1_555 1_555
O9 C20 1_555 1_555
O10 C20 1_555 1_555
Cd4 O9 1_555 1_555
C15 C16 1_555 1_555
C17 N2 1_555 1_555
C22 C24 1_555 1_555
O10 Cd4 1_555 1_555
C6 C4 1_555 1_555
H2 C6 1_555 1_555
C7 C6 1_555 1_555
C8 C2 1_555 1_555
H3 C8 1_555 1_555
N1 C7 1_555 1_555
C7 C8 1_555 1_555
C3 H1 1_555 1_555
O2 C1 1_555 1_555
O3 C5 1_555 1_555
Cd4 O3 1_555 1_555
O11 Cd1 1_555 1_555
O15 Cd1 1_555 1_555
O16 Cd1 1_555 1_555
C3_2 H1_2 1_555 1_555
O2_2 C1_2 1_555 1_555
O11 C5_2 1_555 1_555
C6_2 C4_2 1_555 1_555
H2_2 C6_2 1_555 1_555
C7_2 C6_2 1_555 1_555
C8_2 C2_2 1_555 1_555
H3_2 C8_2 1_555 1_555
N1_2 C7_2 1_555 1_555
C7_2 C8_2 1_555 1_555
C9_2 C10_2 1_555 1_555
C10_2 C11_2 1_555 1_555
C11_2 H4_2 1_555 1_555
C12_2 C11_2 1_555 1_555
H5_2 C12_2 1_555 1_555
C13_2 C12_2 1_555 1_555
C14_2 C13_2 1_555 1_555
C15_2 C13_2 1_555 1_555
H6_2 C15_2 1_555 1_555
C16_2 C10_2 1_555 1_555
H7_2 C16_2 1_555 1_555
C17_2 C18_2 1_555 1_555
C18_2 H8_2 1_555 1_555
C19_2 C18_2 1_555 1_555
C20_2 C19_2 1_555 1_555
C21_2 C19_2 1_555 1_555
H9_2 C21_2 1_555 1_555
C22_2 C21_2 1_555 1_555
C23_2 C22_2 1_555 1_555
C24_2 C17_2 1_555 1_555
H10_2 C24_2 1_555 1_555
N2_2 C14_2 1_555 1_555
H12_2 N2_2 1_555 1_555
O5_2 C9_2 1_555 1_555
O6_2 C14_2 1_555 1_555
O13 C23_2 1_555 1_555
O14 C23_2 1_555 1_555
O15 C20_2 1_555 1_555
O16 C20_2 1_555 1_555
C15_2 C16_2 1_555 1_555
C17_2 N2_2 1_555 1_555
C22_2 C24_2 1_555 1_555
C25 H13 1_555 1_555
H14 C25 1_555 1_555
H15 C25 1_555 1_555
C26 H16 1_555 1_555
H18 C26 1_555 1_555
N3 C25 1_555 1_555
H19 N3 1_555 1_555
C26 N3 1_555 1_555
C25_2 H13_2 1_555 1_555
H14_2 C25_2 1_555 1_555
H15_2 C25_2 1_555 1_555
C26_2 H16_2 1_555 1_555
H18_2 C26_2 1_555 1_555
N3_2 C25_2 1_555 1_555
H19_2 N3_2 1_555 1_555
C26_2 N3_2 1_555 1_555
N4 H21 1_555 1_555
H22 N4 1_555 1_555
C27 N4 1_555 1_555
H23 C27 1_555 1_555
H24 C27 1_555 1_555
H25 C27 1_555 1_555
C28 N4 1_555 1_555
H26 C28 1_555 1_555
H27 C28 1_555 1_555
H28 C28 1_555 1_555
N4_2 H21_2 1_555 1_555
H22_2 N4_2 1_555 1_555
C27_2 N4_2 1_555 1_555
H23_2 C27_2 1_555 1_555
H24_2 C27_2 1_555 1_555
H25_2 C27_2 1_555 1_555
C28_2 N4_2 1_555 1_555
H26_2 C28_2 1_555 1_555
H27_2 C28_2 1_555 1_555
H28_2 C28_2 1_555 1_555

#END
