
###############################################################################
#
# This file contains modified crystal structure data generated from the
# MOF subset of the Cambridge Structural Database (CSD) v543 
# hosted by the Cambridge Crystallographic Data Centre (CCDC).
#
# This work is licensed under the Creative Commons
# Attribution-NonCommercial-ShareAlike 4.0 International License.
# To view a copy of this license, visit
# http://creativecommons.org/licenses/by-nc-sa/4.0/
# or send a letter to
# Creative Commons, PO Box 1866, Mountain View, CA 94042, USA.
#
# CIF created using the CSD Python API on 29 September 2022
# The structure has been converted into the P1 space group
# The structure has a 3D framework
# The original CSD entry FIPKOG01 is in the triclinic crystal system
# The framework has been calculated to contain at least 10.0% void space
# The void calculation uses a probe of radius 1.32A, grid spacing 0.4
#
###############################################################################

data_FIPKOG01
_chemical_formula_moiety         '(C56 H56 Cd2 N8 O20)n'
_symmetry_cell_setting           triclinic
_symmetry_space_group_name_H-M   'P 1'
_symmetry_Int_Tables_number      1
_space_group_name_Hall           'P 1'
loop_
_symmetry_equiv_pos_site_id
_symmetry_equiv_pos_as_xyz
1 x,y,z
_cell_length_a                   10.184(2)
_cell_length_b                   10.348(2)
_cell_length_c                   18.091(4)
_cell_angle_alpha                102.34(3)
_cell_angle_beta                 99.19(3)
_cell_angle_gamma                93.95(3)
_cell_volume                     1828.03
loop_
_atom_site_label
_atom_site_type_symbol
_atom_site_fract_x
_atom_site_fract_y
_atom_site_fract_z
Cd1 Cd 0.547258(16) 0.546827(18) 0.815568(10)
O1 O 0.31209(18) 0.5652(2) 0.81962(10)
O2 O 0.37106(17) 0.4816(2) 0.70866(11)
O5 O 0.1100(2) 0.2240(3) 0.49828(13)
C1 C 0.2832(2) 0.5121(2) 0.74889(14)
C2 C 0.1387(2) 0.4818(3) 0.71052(14)
C3 C 0.1069(2) 0.4299(3) 0.63174(14)
H3 H 0.1748 0.4157 0.6031
C7 C 0.0378(2) 0.5042(3) 0.75386(15)
H5 H 0.0594 0.5376 0.8068
C9 C 0.0080(3) 0.2670(3) 0.47180(15)
C14 C 0.0116(3) 0.1762(3) 0.25981(17)
H8 H 0.0752 0.1642 0.2280
C15 C 0.0515(3) 0.2125(3) 0.33808(17)
H9 H 0.1422 0.2238 0.3591
O11 O 0.8237(2) 0.5388(3) 0.83483(14)
O12 O 0.6769(2) 0.4956(2) 0.72659(13)
O13 O 0.6070(2) 0.74243(19) 0.90308(12)
O14 O 0.5477(2) 0.7997(2) 0.79355(12)
O15 O 0.5215(3) 0.2927(3) 0.80387(13)
O16 O 0.5945(2) 0.4367(2) 0.91254(13)
O6 O 0.8884(3) 0.0139(3) 0.10837(14)
N1 N 0.9380(2) 0.3480(3) 0.51504(12)
H1 H 0.8574(17) 0.367(3) 0.4951(17)
N2 N 0.7397(3) 0.1681(2) 0.10732(12)
H2 H 0.728(3) 0.2519(14) 0.1281(17)
C4 C 0.9741(2) 0.3989(3) 0.59552(14)
C5 C 0.8735(2) 0.4226(3) 0.63895(15)
H4 H 0.7844 0.4022 0.6150
C6 C 0.9044(2) 0.4764(3) 0.71756(15)
C8 C 0.7953(3) 0.5061(3) 0.76369(18)
C10 C 0.9573(3) 0.2327(3) 0.38652(15)
C11 C 0.8213(3) 0.2156(3) 0.35480(16)
H6 H 0.7576 0.2289 0.3865
C12 C 0.7817(3) 0.1783(3) 0.27470(16)
H7 H 0.6913 0.1677 0.2532
C13 C 0.8753(3) 0.1572(3) 0.22764(15)
C16 C 0.8352(3) 0.1072(3) 0.14253(16)
C17 C 0.6870(3) 0.1352(3) 0.02761(14)
H10 H 0.6671 0.3250 0.0192
C18 C 0.6538(3) 0.2372(3) 0.99125(15)
C19 C 0.6006(3) 0.2075(3) 0.91286(15)
C20 C 0.5797(3) 0.0755(3) 0.87099(15)
H11 H 0.5446 0.0558 0.8187
C22 C 0.6642(3) 0.0040(3) 0.98617(15)
C24 C 0.5691(3) 0.3192(3) 0.87311(17)
C21 C 0.6116(3) 0.9732(3) 0.90760(15)
C23 C 0.5878(3) 0.8296(3) 0.86465(16)
H12 H 0.6841 0.9359 0.0110
O7 O 0.3930(2) 0.25757(19) 0.09692(12)
O8 O 0.4523(2) 0.2003(2) 0.20645(12)
C21_2 C 0.3884(3) 0.0268(3) 0.09240(15)
C23_2 C 0.4122(3) 0.1704(3) 0.13535(16)
Cd2 Cd 0.452742(16) 0.453173(18) 0.184432(10)
O9 O 0.4785(3) 0.7073(3) 0.19613(13)
O10 O 0.4055(2) 0.5633(2) 0.08746(13)
C18_2 C 0.3462(3) 0.7628(3) 0.00875(15)
C19_2 C 0.3994(3) 0.7925(3) 0.08714(15)
C20_2 C 0.4203(3) 0.9245(3) 0.12901(15)
H11_2 H 0.4554 0.9442 0.1813
C22_2 C 0.3358(3) 0.9960(3) 0.01383(15)
C24_2 C 0.4309(3) 0.6808(3) 0.12689(17)
O3 O 0.1763(2) 0.4612(3) 0.16517(14)
O4 O 0.3231(2) 0.5044(2) 0.27341(13)
O6_2 O 0.1116(3) 0.9861(3) 0.89163(14)
N1_2 N 0.0620(2) 0.6520(3) 0.48496(12)
H1_2 H 0.1426(17) 0.633(3) 0.5049(17)
N2_2 N 0.2603(3) 0.8319(2) 0.89268(12)
H2_2 H 0.272(3) 0.7481(14) 0.8719(17)
C4_2 C 0.0259(2) 0.6011(3) 0.40448(14)
C5_2 C 0.1265(2) 0.5774(3) 0.36105(15)
H4_2 H 0.2156 0.5978 0.3850
C6_2 C 0.0956(2) 0.5236(3) 0.28244(15)
C8_2 C 0.2047(3) 0.4939(3) 0.23631(18)
C10_2 C 0.0427(3) 0.7673(3) 0.61348(15)
C11_2 C 0.1787(3) 0.7844(3) 0.64520(16)
H6_2 H 0.2424 0.7711 0.6135
C12_2 C 0.2183(3) 0.8217(3) 0.72530(16)
H7_2 H 0.3087 0.8323 0.7468
C13_2 C 0.1247(3) 0.8428(3) 0.77236(15)
C16_2 C 0.1648(3) 0.8928(3) 0.85747(16)
C17_2 C 0.3130(3) 0.8648(3) 0.97239(14)
H10_2 H 0.3329 0.6750 0.9808
O1_2 O 0.68791(18) 0.4348(2) 0.18038(10)
O2_2 O 0.62894(17) 0.5184(2) 0.29134(11)
O5_2 O 0.8900(2) 0.7760(3) 0.50172(13)
C1_2 C 0.7168(2) 0.4879(2) 0.25111(14)
C2_2 C 0.8613(2) 0.5182(3) 0.28948(14)
C3_2 C 0.8931(2) 0.5701(3) 0.36826(14)
H3_2 H 0.8252 0.5843 0.3969
C7_2 C 0.9622(2) 0.4958(3) 0.24614(15)
H5_2 H 0.9406 0.4624 0.1932
C9_2 C 0.9920(3) 0.7330(3) 0.52820(15)
C14_2 C 0.9884(3) 0.8238(3) 0.74019(17)
H8_2 H 0.9248 0.8358 0.7720
C15_2 C 0.9485(3) 0.7875(3) 0.66192(17)
H9_2 H 0.8578 0.7762 0.6409
H12_2 H 0.3159 0.0641 0.9890
C25 C 0.7585(7) 0.6572(7) 0.0658(3)
H15 H 0.8139 0.6109 0.0972
H16 H 0.6684 0.6151 0.0543
H17 H 0.7602 0.7480 0.0930
H20 H 0.9975 0.7441 0.0460
N3 N 0.8093(4) 0.6537(4) 0.9939(2)
H13 H 0.7459 0.6798 0.9612
H14 H 0.8185 0.5684 0.9733
C26 C 0.9412(7) 0.7365(9) 0.9971(5)
H18 H 0.9234 0.8236 0.9904
H19 H 0.9853 0.6939 0.9568
N3_2 N 0.1907(4) 0.3463(4) 0.0061(2)
H13_2 H 0.2541 0.3202 0.0388
H14_2 H 0.1815 0.4316 0.0267
C26_2 C 0.0588(7) 0.2635(9) 0.0029(5)
H18_2 H 0.0766 0.1764 0.0096
H19_2 H 0.0147 0.3061 0.0432
C25_2 C 0.2415(7) 0.3428(7) 0.9342(3)
H15_2 H 0.1861 0.3891 0.9028
H16_2 H 0.3316 0.3849 0.9457
H17_2 H 0.2398 0.2520 0.9070
H20_2 H 0.0025 0.2559 0.9540
N4 N 0.4501(3) 0.2365(3) 0.63318(17)
H21 H 0.4345 0.3163 0.6598
H22 H 0.5298 0.2179 0.6555
C27 C 0.4578(5) 0.2458(5) 0.5550(2)
H23 H 0.4932 0.1684 0.5293
H24 H 0.5153 0.3239 0.5560
H25 H 0.3700 0.2512 0.5279
C28 C 0.3469(4) 0.1364(5) 0.6387(3)
H26 H 0.2605 0.1600 0.6197
H27 H 0.3520 0.1314 0.6915
H28 H 0.3602 0.0515 0.6086
N4_2 N 0.5499(3) 0.7635(3) 0.36682(17)
H21_2 H 0.5655 0.6837 0.3402
H22_2 H 0.4702 0.7821 0.3445
C27_2 C 0.5422(5) 0.7542(5) 0.4450(2)
H23_2 H 0.5068 0.8316 0.4707
H24_2 H 0.4847 0.6761 0.4440
H25_2 H 0.6300 0.7488 0.4721
C28_2 C 0.6531(4) 0.8636(5) 0.3613(3)
H26_2 H 0.7395 0.8400 0.3803
H27_2 H 0.6480 0.8686 0.3085
H28_2 H 0.6398 0.9485 0.3914
loop_
_geom_bond_atom_site_label_1
_geom_bond_atom_site_label_2
_geom_bond_site_symmetry_1
_geom_bond_site_symmetry_2
Cd1 O1 1_555 1_555
O1 C1 1_555 1_555
O2 Cd1 1_555 1_555
O5 C9 1_555 1_555
C1 O2 1_555 1_555
C2 C1 1_555 1_555
C3 C2 1_555 1_555
H3 C3 1_555 1_555
C7 C2 1_555 1_555
H5 C7 1_555 1_555
H8 C14 1_555 1_555
H9 C15 1_555 1_555
O11 Cd1 1_555 1_555
O12 Cd1 1_555 1_555
O13 Cd1 1_555 1_555
O14 Cd1 1_555 1_555
O15 Cd1 1_555 1_555
O16 Cd1 1_555 1_555
C14 C15 1_555 1_555
O11 C8 1_555 1_555
O12 C8 1_555 1_555
O6 C16 1_555 1_555
N1 H1 1_555 1_555
N2 H2 1_555 1_555
C4 N1 1_555 1_555
C5 C4 1_555 1_555
H4 C5 1_555 1_555
C6 C5 1_555 1_555
C8 C6 1_555 1_555
C11 C10 1_555 1_555
H6 C11 1_555 1_555
C12 C11 1_555 1_555
H7 C12 1_555 1_555
C13 C12 1_555 1_555
C16 N2 1_555 1_555
C17 N2 1_555 1_555
C13 C16 1_555 1_555
O15 C24 1_555 1_555
O16 C24 1_555 1_555
C19 C18 1_555 1_555
C20 C19 1_555 1_555
H11 C20 1_555 1_555
C24 C19 1_555 1_555
O13 C23 1_555 1_555
O14 C23 1_555 1_555
C23 C21 1_555 1_555
O7 C23_2 1_555 1_555
O8 C23_2 1_555 1_555
C23_2 C21_2 1_555 1_555
Cd2 O7 1_555 1_555
O8 Cd2 1_555 1_555
O9 C24_2 1_555 1_555
O10 C24_2 1_555 1_555
C19_2 C18_2 1_555 1_555
C20_2 C19_2 1_555 1_555
H11_2 C20_2 1_555 1_555
C24_2 C19_2 1_555 1_555
Cd2 O9 1_555 1_555
O10 Cd2 1_555 1_555
O3 C8_2 1_555 1_555
O4 C8_2 1_555 1_555
O6_2 C16_2 1_555 1_555
N1_2 H1_2 1_555 1_555
N2_2 H2_2 1_555 1_555
C4_2 N1_2 1_555 1_555
C5_2 C4_2 1_555 1_555
H4_2 C5_2 1_555 1_555
C6_2 C5_2 1_555 1_555
C8_2 C6_2 1_555 1_555
C11_2 C10_2 1_555 1_555
H6_2 C11_2 1_555 1_555
C12_2 C11_2 1_555 1_555
H7_2 C12_2 1_555 1_555
C13_2 C12_2 1_555 1_555
C16_2 N2_2 1_555 1_555
C17_2 N2_2 1_555 1_555
Cd2 O3 1_555 1_555
O4 Cd2 1_555 1_555
C13_2 C16_2 1_555 1_555
Cd2 O1_2 1_555 1_555
O1_2 C1_2 1_555 1_555
O2_2 Cd2 1_555 1_555
O5_2 C9_2 1_555 1_555
C1_2 O2_2 1_555 1_555
C2_2 C1_2 1_555 1_555
C3_2 C2_2 1_555 1_555
H3_2 C3_2 1_555 1_555
C7_2 C2_2 1_555 1_555
H5_2 C7_2 1_555 1_555
H8_2 C14_2 1_555 1_555
H9_2 C15_2 1_555 1_555
C14_2 C15_2 1_555 1_555
H15 C25 1_555 1_555
H16 C25 1_555 1_555
H17 C25 1_555 1_555
N3 H13 1_555 1_555
H14 N3 1_555 1_555
C26 N3 1_555 1_555
H18 C26 1_555 1_555
H19 C26 1_555 1_555
N3_2 H13_2 1_555 1_555
H14_2 N3_2 1_555 1_555
C26_2 N3_2 1_555 1_555
H18_2 C26_2 1_555 1_555
H19_2 C26_2 1_555 1_555
H15_2 C25_2 1_555 1_555
H16_2 C25_2 1_555 1_555
H17_2 C25_2 1_555 1_555
N4 H21 1_555 1_555
H22 N4 1_555 1_555
C27 N4 1_555 1_555
H23 C27 1_555 1_555
H24 C27 1_555 1_555
H25 C27 1_555 1_555
C28 N4 1_555 1_555
H26 C28 1_555 1_555
H27 C28 1_555 1_555
H28 C28 1_555 1_555
N4_2 H21_2 1_555 1_555
H22_2 N4_2 1_555 1_555
C27_2 N4_2 1_555 1_555
H23_2 C27_2 1_555 1_555
H24_2 C27_2 1_555 1_555
H25_2 C27_2 1_555 1_555
C28_2 N4_2 1_555 1_555
H26_2 C28_2 1_555 1_555
H27_2 C28_2 1_555 1_555
H28_2 C28_2 1_555 1_555

#END
