
###############################################################################
#
# This file contains modified crystal structure data generated from the
# MOF subset of the Cambridge Structural Database (CSD) v543 
# hosted by the Cambridge Crystallographic Data Centre (CCDC).
#
# This work is licensed under the Creative Commons
# Attribution-NonCommercial-ShareAlike 4.0 International License.
# To view a copy of this license, visit
# http://creativecommons.org/licenses/by-nc-sa/4.0/
# or send a letter to
# Creative Commons, PO Box 1866, Mountain View, CA 94042, USA.
#
# CIF created using the CSD Python API on 29 September 2022
# The structure has been converted into the P1 space group
# The structure has a 3D framework
# The original CSD entry FIPKUM is in the triclinic crystal system
# The framework has been calculated to contain at least 10.0% void space
# The void calculation uses a probe of radius 1.32A, grid spacing 0.4
# The framework is charged, counterions have been retained in the structure
#
###############################################################################

data_FIPKUM
_chemical_formula_moiety         '(C56 H56 N8 O20 Zn2)n'
_symmetry_cell_setting           triclinic
_symmetry_space_group_name_H-M   'P 1'
_symmetry_Int_Tables_number      1
_space_group_name_Hall           'P 1'
loop_
_symmetry_equiv_pos_site_id
_symmetry_equiv_pos_as_xyz
1 x,y,z
_cell_length_a                   10.004(2)
_cell_length_b                   10.293(2)
_cell_length_c                   17.914(4)
_cell_angle_alpha                103.66(3)
_cell_angle_beta                 99.58(3)
_cell_angle_gamma                93.45(3)
_cell_volume                     1757.9
loop_
_atom_site_label
_atom_site_type_symbol
_atom_site_fract_x
_atom_site_fract_y
_atom_site_fract_z
O11 O 0.1612(3) 0.4341(3) 0.67511(16)
O12 O 0.1077(2) 0.5222(3) 0.78863(17)
C22 C 0.8881(3) 0.0355(3) 0.59987(19)
C23 C 0.9071(3) 0.1800(3) 0.6459(2)
C24 C 0.8403(4) 0.0009(3) 0.5200(2)
H10 H 0.8212 0.0680 0.4941
O9 O 0.9426(3) 0.2081(3) 0.71797(15)
O10 O 0.8871(2) 0.2703(2) 0.60817(14)
Zn4 Zn 0.94399(4) 0.45780(4) 0.67947(2)
C9 C 0.4958(4) 0.7344(4) 0.0251(2)
C10 C 0.5477(4) 0.7658(4) 0.1112(2)
C11 C 0.6859(4) 0.7823(4) 0.1441(2)
H4 H 0.7507 0.7686 0.1121
C12 C 0.7264(4) 0.8193(4) 0.2247(2)
H5 H 0.8187 0.8311 0.2466
C13 C 0.6312(4) 0.8386(4) 0.2727(2)
C14 C 0.4940(4) 0.8185(4) 0.2401(2)
H6 H 0.4294 0.8298 0.2723
C15 C 0.4523(4) 0.7816(4) 0.1599(2)
H7 H 0.3598 0.7673 0.1384
C16 C 0.6716(4) 0.8910(4) 0.3596(2)
C17 C 0.8205(4) 0.8676(3) 0.4782(2)
C18 C 0.8539(4) 0.7667(3) 0.5155(2)
H8 H 0.8424 0.6773 0.4873
C19 C 0.9046(4) 0.8006(3) 0.5955(2)
C20 C 0.9376(4) 0.6937(4) 0.6392(2)
C21 C 0.9216(4) 0.9343(3) 0.6374(2)
H9 H 0.9555 0.9566 0.6909
N1 N 0.7686(3) 0.8305(3) 0.39606(16)
H11 H 0.8017 0.7650 0.3679
H12 H 0.6377 0.6245 0.0001
O6 O 0.6159(4) 0.9841(4) 0.39305(17)
O7 O 0.9125(3) 0.5712(2) 0.60148(15)
O8 O 0.9865(4) 0.7296(3) 0.70941(17)
C1 C 0.6829(4) 0.4955(4) 0.7164(2)
C2 C 0.5796(3) 0.5241(3) 0.76927(19)
C3 C 0.4419(3) 0.4977(3) 0.7362(2)
H1 H 0.4152 0.4657 0.6823
C4 C 0.3440(3) 0.5189(3) 0.78291(19)
C5 C 0.1954(4) 0.4903(3) 0.7471(2)
C6 C 0.3837(3) 0.5688(3) 0.8631(2)
H2 H 0.3181 0.5820 0.8946
C7 C 0.5209(3) 0.5991(3) 0.89677(19)
C8 C 0.6186(3) 0.5764(3) 0.8491(2)
H3 H 0.7107 0.5966 0.8712
N2 N 0.5636(3) 0.6495(3) 0.97849(16)
O1 O 0.8064(2) 0.4956(3) 0.74891(15)
O2 O 0.6430(3) 0.4759(4) 0.64537(16)
O5 O 0.3947(3) 0.7837(3) 0.99959(16)
Zn2 Zn 0.05601(4) 0.54220(4) 0.32053(2)
C1_2 C 0.3171(4) 0.5045(4) 0.2836(2)
C2_2 C 0.4204(3) 0.4759(3) 0.23073(19)
C3_2 C 0.5581(3) 0.5023(3) 0.2638(2)
H1_2 H 0.5848 0.5343 0.3177
C4_2 C 0.6560(3) 0.4811(3) 0.21709(19)
C5_2 C 0.8046(4) 0.5097(3) 0.2529(2)
C6_2 C 0.6163(3) 0.4312(3) 0.1369(2)
H2_2 H 0.6819 0.4180 0.1054
C7_2 C 0.4791(3) 0.4009(3) 0.10323(19)
C8_2 C 0.3814(3) 0.4236(3) 0.1509(2)
H3_2 H 0.2893 0.4034 0.1288
N2_2 N 0.4364(3) 0.3505(3) 0.02151(16)
O1_2 O 0.1936(2) 0.5044(3) 0.25109(15)
O2_2 O 0.3570(3) 0.5241(4) 0.35463(16)
O3 O 0.8388(3) 0.5659(3) 0.32489(16)
O4 O 0.8923(2) 0.4778(3) 0.21137(17)
O5_2 O 0.6053(3) 0.2163(3) 0.00041(16)
O13 O 0.0875(3) 0.4288(2) 0.39852(15)
O14 O 0.1129(2) 0.7297(2) 0.39183(14)
C9_2 C 0.5042(4) 0.2656(4) 0.9749(2)
C10_2 C 0.4523(4) 0.2342(4) 0.8888(2)
C11_2 C 0.3141(4) 0.2177(4) 0.8559(2)
H4_2 H 0.2493 0.2314 0.8879
C12_2 C 0.2736(4) 0.1807(4) 0.7753(2)
H5_2 H 0.1813 0.1689 0.7534
C13_2 C 0.3688(4) 0.1614(4) 0.7273(2)
C14_2 C 0.5060(4) 0.1815(4) 0.7599(2)
H6_2 H 0.5706 0.1702 0.7277
C15_2 C 0.5477(4) 0.2184(4) 0.8401(2)
H7_2 H 0.6402 0.2327 0.8616
C16_2 C 0.3284(4) 0.1090(4) 0.6404(2)
C17_2 C 0.1795(4) 0.1324(3) 0.5218(2)
C18_2 C 0.1461(4) 0.2333(3) 0.4845(2)
H8_2 H 0.1576 0.3227 0.5127
C19_2 C 0.0954(4) 0.1994(3) 0.4045(2)
C20_2 C 0.0624(4) 0.3063(4) 0.3608(2)
C21_2 C 0.0784(4) 0.0657(3) 0.3626(2)
H9_2 H 0.0445 0.0434 0.3091
N1_2 N 0.2314(3) 0.1695(3) 0.60394(16)
H11_2 H 0.1983 0.2350 0.6321
H12_2 H 0.3623 0.3755 0.9999
O6_2 O 0.3841(4) 0.0159(4) 0.60695(17)
O8_2 O 0.0135(4) 0.2704(3) 0.29059(17)
C22_2 C 0.1119(3) 0.9645(3) 0.40013(19)
C23_2 C 0.0929(3) 0.8200(3) 0.3541(2)
C24_2 C 0.1597(4) 0.9991(3) 0.4800(2)
H10_2 H 0.1788 0.9320 0.5059
O9_2 O 0.0574(3) 0.7919(3) 0.28203(15)
C25 C 0.7447(8) 0.3507(7) 0.4382(3)
H13 H 0.7352 0.2664 0.3997
H14 H 0.8397 0.3804 0.4574
H15 H 0.7021 0.4163 0.4148
C26 C 0.5381(8) 0.2778(10) 0.4836(5)
H16 H 0.5104 0.2466 0.4279
H17 H 0.4823 0.3458 0.5033
H18 H 0.5279 0.2040 0.5071
N3 N 0.6801(5) 0.3340(5) 0.5024(2)
H19 H 0.6861 0.4150 0.5363
H20 H 0.7286 0.2810 0.5274
C25_2 C 0.2553(8) 0.6493(7) 0.5618(3)
H13_2 H 0.2648 0.7336 0.6003
H14_2 H 0.1603 0.6196 0.5426
H15_2 H 0.2979 0.5837 0.5852
C26_2 C 0.4619(8) 0.7222(10) 0.5164(5)
H16_2 H 0.4896 0.7534 0.5721
H17_2 H 0.5177 0.6542 0.4967
H18_2 H 0.4721 0.7960 0.4929
N3_2 N 0.3199(5) 0.6660(5) 0.4976(2)
H19_2 H 0.3139 0.5850 0.4637
H20_2 H 0.2714 0.7190 0.4726
C27 C 0.1510(5) 0.8808(6) 0.8754(3)
H21 H 0.1353 0.9653 0.9074
H22 H 0.1513 0.8890 0.8231
H23 H 0.2375 0.8557 0.8964
C28 C 0.0376(5) 0.7566(6) 0.9500(3)
H24 H 0.1241 0.7328 0.9720
H26 H 0.0171 0.8376 0.9835
N4 N 0.0431(4) 0.7779(4) 0.8741(2)
H28 H 0.0563 0.7000 0.8421
H25 H 0.9679 0.6853 0.9453
H27 H 0.9624 0.8021 0.8543
H25_2 H 0.0321 0.3147 0.0547
H27_2 H 0.0376 0.1979 0.1457
C27_2 C 0.8490(5) 0.1192(6) 0.1246(3)
H21_2 H 0.8647 0.0347 0.0926
H22_2 H 0.8487 0.1110 0.1769
H23_2 H 0.7625 0.1443 0.1036
C28_2 C 0.9624(5) 0.2434(6) 0.0500(3)
H24_2 H 0.8759 0.2672 0.0280
H26_2 H 0.9829 0.1624 0.0165
N4_2 N 0.9569(4) 0.2221(4) 0.1259(2)
H28_2 H 0.9437 0.3000 0.1579
loop_
_geom_bond_atom_site_label_1
_geom_bond_atom_site_label_2
_geom_bond_site_symmetry_1
_geom_bond_site_symmetry_2
C23 C22 1_555 1_555
H10 C24 1_555 1_555
O9 C23 1_555 1_555
O10 C23 1_555 1_555
Zn4 O10 1_555 1_555
C22 C24 1_555 1_555
C9 C10 1_555 1_555
C10 C11 1_555 1_555
C11 H4 1_555 1_555
C12 C11 1_555 1_555
H5 C12 1_555 1_555
C13 C12 1_555 1_555
C14 C13 1_555 1_555
H6 C14 1_555 1_555
C15 C10 1_555 1_555
H7 C15 1_555 1_555
C16 C13 1_555 1_555
C17 C18 1_555 1_555
C18 H8 1_555 1_555
C19 C18 1_555 1_555
C20 C19 1_555 1_555
C21 C19 1_555 1_555
H9 C21 1_555 1_555
N1 C16 1_555 1_555
H11 N1 1_555 1_555
O6 C16 1_555 1_555
O7 C20 1_555 1_555
O8 C20 1_555 1_555
Zn4 O7 1_555 1_555
C14 C15 1_555 1_555
C17 N1 1_555 1_555
C1 C2 1_555 1_555
C2 C3 1_555 1_555
C3 H1 1_555 1_555
C4 C3 1_555 1_555
C5 C4 1_555 1_555
C6 C4 1_555 1_555
H2 C6 1_555 1_555
C7 C6 1_555 1_555
C8 C2 1_555 1_555
H3 C8 1_555 1_555
N2 C7 1_555 1_555
O1 C1 1_555 1_555
O2 C1 1_555 1_555
O11 C5 1_555 1_555
O12 C5 1_555 1_555
Zn4 O1 1_555 1_555
C7 C8 1_555 1_555
C1_2 C2_2 1_555 1_555
C2_2 C3_2 1_555 1_555
C3_2 H1_2 1_555 1_555
C4_2 C3_2 1_555 1_555
C5_2 C4_2 1_555 1_555
C6_2 C4_2 1_555 1_555
H2_2 C6_2 1_555 1_555
C7_2 C6_2 1_555 1_555
C8_2 C2_2 1_555 1_555
H3_2 C8_2 1_555 1_555
N2_2 C7_2 1_555 1_555
O1_2 C1_2 1_555 1_555
O2_2 C1_2 1_555 1_555
O3 C5_2 1_555 1_555
O4 C5_2 1_555 1_555
Zn2 O1_2 1_555 1_555
O13 Zn2 1_555 1_555
O14 Zn2 1_555 1_555
C7_2 C8_2 1_555 1_555
C9_2 C10_2 1_555 1_555
C10_2 C11_2 1_555 1_555
C11_2 H4_2 1_555 1_555
C12_2 C11_2 1_555 1_555
H5_2 C12_2 1_555 1_555
C13_2 C12_2 1_555 1_555
C14_2 C13_2 1_555 1_555
H6_2 C14_2 1_555 1_555
C15_2 C10_2 1_555 1_555
H7_2 C15_2 1_555 1_555
C16_2 C13_2 1_555 1_555
C17_2 C18_2 1_555 1_555
C18_2 H8_2 1_555 1_555
C19_2 C18_2 1_555 1_555
C20_2 C19_2 1_555 1_555
C21_2 C19_2 1_555 1_555
H9_2 C21_2 1_555 1_555
N1_2 C16_2 1_555 1_555
H11_2 N1_2 1_555 1_555
O6_2 C16_2 1_555 1_555
O13 C20_2 1_555 1_555
O8_2 C20_2 1_555 1_555
C14_2 C15_2 1_555 1_555
C17_2 N1_2 1_555 1_555
C23_2 C22_2 1_555 1_555
H10_2 C24_2 1_555 1_555
O9_2 C23_2 1_555 1_555
O14 C23_2 1_555 1_555
C22_2 C24_2 1_555 1_555
C25 H13 1_555 1_555
H14 C25 1_555 1_555
H15 C25 1_555 1_555
C26 H16 1_555 1_555
H17 C26 1_555 1_555
H18 C26 1_555 1_555
N3 C25 1_555 1_555
H19 N3 1_555 1_555
H20 N3 1_555 1_555
C26 N3 1_555 1_555
C25_2 H13_2 1_555 1_555
H14_2 C25_2 1_555 1_555
H15_2 C25_2 1_555 1_555
C26_2 H16_2 1_555 1_555
H17_2 C26_2 1_555 1_555
H18_2 C26_2 1_555 1_555
N3_2 C25_2 1_555 1_555
H19_2 N3_2 1_555 1_555
H20_2 N3_2 1_555 1_555
C26_2 N3_2 1_555 1_555
C27 H21 1_555 1_555
H22 C27 1_555 1_555
H23 C27 1_555 1_555
C28 H24 1_555 1_555
H26 C28 1_555 1_555
N4 C27 1_555 1_555
H28 N4 1_555 1_555
C28 N4 1_555 1_555
C27_2 H21_2 1_555 1_555
H22_2 C27_2 1_555 1_555
H23_2 C27_2 1_555 1_555
C28_2 H24_2 1_555 1_555
H26_2 C28_2 1_555 1_555
N4_2 C27_2 1_555 1_555
H28_2 N4_2 1_555 1_555
C28_2 N4_2 1_555 1_555

#END
