
###############################################################################
#
# This file contains modified crystal structure data generated from the
# MOF subset of the Cambridge Structural Database (CSD) v543 
# hosted by the Cambridge Crystallographic Data Centre (CCDC).
#
# This work is licensed under the Creative Commons
# Attribution-NonCommercial-ShareAlike 4.0 International License.
# To view a copy of this license, visit
# http://creativecommons.org/licenses/by-nc-sa/4.0/
# or send a letter to
# Creative Commons, PO Box 1866, Mountain View, CA 94042, USA.
#
# CIF created using the CSD Python API on 29 September 2022
# The structure has been converted into the P1 space group
# The structure has a 3D framework
# The original CSD entry FIPWUY is in the monoclinic crystal system
# The original CSD entry FIPWUY is in a Sohncke space group
# The framework has been calculated to contain at least 10.0% void space
# The void calculation uses a probe of radius 1.32A, grid spacing 0.4
#
###############################################################################

data_FIPWUY
_chemical_formula_moiety         '(C18 H21 N6 O6)n'
_symmetry_cell_setting           triclinic
_symmetry_space_group_name_H-M   'P 1'
_symmetry_Int_Tables_number      1
_space_group_name_Hall           'P 1'
loop_
_symmetry_equiv_pos_site_id
_symmetry_equiv_pos_as_xyz
1 x,y,z
_cell_length_a                   9.198(3)
_cell_length_b                   9.330(3)
_cell_length_c                   9.636(3)
_cell_angle_alpha                90
_cell_angle_beta                 118.480(11)
_cell_angle_gamma                90
_cell_volume                     726.863
loop_
_atom_site_label
_atom_site_type_symbol
_atom_site_fract_x
_atom_site_fract_y
_atom_site_fract_z
N7 N 0.0712(12) 0.4341(10) 0.0236(10)
Zn1 Zn 0.08399(13) 0.55921(16) 0.86288(10)
C1 C 0.006(2) 0.3051(17) 0.0027(17)
N2 N 0.0050(11) 0.2501(9) 0.1282(9)
O2 O 0.0118(18) 0.2734(11) 0.6709(11)
C2 C 0.0977(15) 0.3525(13) 0.4089(13)
H4 H 0.1727 0.4285 0.4706
H5 H 0.1488 0.2620 0.4569
C3 C 0.1139(15) 0.4664(11) 0.1774(11)
H7 H 0.1620 0.5520 0.2276
C7 C 0.0767(14) 0.3576(11) 0.2446(10)
N5 N 0.3270(12) 0.5791(14) 0.9346(10)
H1 H 0.3649 0.4912 0.9300
H2 H 0.3369 0.6331 0.8622
H3 H 0.9648 0.2564 0.9071
O1 O 0.0067(10) 0.0064(7) 0.3566(8)
H6 H 0.1058 0.0679 0.6562
C8 C 0.383(2) 0.1346(17) 0.861(2)
H9 H 0.3307 0.2114 0.7854
H10 H 0.3634 0.1506 0.9497
C9 C 0.5636(19) 0.1366(17) 0.9159(16)
H11 H 0.5825 0.0859 0.8381
H12 H 0.5953 0.2356 0.9150
N3 N 0.1577(12) 0.9876(9) 0.6757(9)
C4 C 0.0631(14) 0.8684(10) 0.5825(11)
H8 H 0.1286 0.7809 0.6242
C5 C 0.0149(13) 0.8817(13) 0.4083(10)
O3 O 0.3867(13) 0.8727(13) 0.8304(15)
C6 C 0.3084(18) 0.9909(16) 0.7835(17)
O1_2 O 0.9933(10) 0.5064(7) 0.6434(8)
N3_2 N 0.8423(12) 0.4876(9) 0.3243(9)
H6_2 H 0.8942 0.5679 0.3438
C4_2 C 0.9369(14) 0.3684(10) 0.4175(11)
H8_2 H 0.8714 0.2809 0.3758
C5_2 C 0.9851(13) 0.3817(13) 0.5917(10)
O3_2 O 0.6133(13) 0.3727(13) 0.1696(15)
C6_2 C 0.6916(18) 0.4909(16) 0.2165(17)
C8_2 C 0.617(2) 0.6346(17) 0.139(2)
H9_2 H 0.6693 0.7114 0.2146
H10_2 H 0.6366 0.6506 0.0503
C9_2 C 0.4364(19) 0.6366(17) 0.0841(16)
H11_2 H 0.4175 0.5859 0.1619
H12_2 H 0.4047 0.7356 0.0850
Zn4 Zn 0.91601(13) 0.05921(16) 0.13712(10)
N6 N 0.9950(11) 0.7501(9) 0.8718(9)
N1 N 0.6730(12) 0.0791(14) 0.0654(10)
H2_2 H 0.6631 0.1331 0.1378
H7_2 H 0.8380 0.0520 0.7724
C1_2 C 0.994(2) 0.8051(17) 0.9973(17)
O2_2 O 0.9882(18) 0.7734(11) 0.3291(11)
C2_2 C 0.9023(15) 0.8525(13) 0.5911(13)
H4_2 H 0.8273 0.9285 0.5294
H5_2 H 0.8512 0.7620 0.5431
C3_2 C 0.8861(15) 0.9664(11) 0.8226(11)
N4 N 0.9288(12) 0.9341(10) 0.9764(10)
C7_2 C 0.9233(14) 0.8576(11) 0.7554(10)
H1_2 H 0.6351 0.9912 0.0700
H3_2 H 0.0352 0.7564 0.0929
loop_
_geom_bond_atom_site_label_1
_geom_bond_atom_site_label_2
_geom_bond_site_symmetry_1
_geom_bond_site_symmetry_2
N2 C1 1_555 1_555
C2 H4 1_555 1_555
H5 C2 1_555 1_555
C3 H7 1_555 1_555
N7 C1 1_555 1_555
C7 N2 1_555 1_555
N5 Zn1 1_555 1_555
C2 C7 1_555 1_555
C3 N7 1_555 1_555
C3 C7 1_555 1_555
N5 H1 1_555 1_555
H2 N5 1_555 1_555
H9 C8 1_555 1_555
H10 C8 1_555 1_555
H11 C9 1_555 1_555
H12 C9 1_555 1_555
C8 C9 1_555 1_555
H8 C4 1_555 1_555
C5 C4 1_555 1_555
O3 C6 1_555 1_555
C6 N3 1_555 1_555
N3 C4 1_555 1_555
O1_2 C5_2 1_555 1_555
N3_2 H6_2 1_555 1_555
H8_2 C4_2 1_555 1_555
C5_2 C4_2 1_555 1_555
O3_2 C6_2 1_555 1_555
C6_2 N3_2 1_555 1_555
C8_2 C6_2 1_555 1_555
H9_2 C8_2 1_555 1_555
H10_2 C8_2 1_555 1_555
H11_2 C9_2 1_555 1_555
H12_2 C9_2 1_555 1_555
N3_2 C4_2 1_555 1_555
C8_2 C9_2 1_555 1_555
H2_2 N1 1_555 1_555
Zn4 N1 1_555 1_555
N6 C1_2 1_555 1_555
C2_2 H4_2 1_555 1_555
H5_2 C2_2 1_555 1_555
N4 C1_2 1_555 1_555
C7_2 N6 1_555 1_555
C2_2 C7_2 1_555 1_555
C3_2 N4 1_555 1_555
C3_2 C7_2 1_555 1_555

#END
