
###############################################################################
#
# This file contains modified crystal structure data generated from the
# MOF subset of the Cambridge Structural Database (CSD) v543 
# hosted by the Cambridge Crystallographic Data Centre (CCDC).
#
# This work is licensed under the Creative Commons
# Attribution-NonCommercial-ShareAlike 4.0 International License.
# To view a copy of this license, visit
# http://creativecommons.org/licenses/by-nc-sa/4.0/
# or send a letter to
# Creative Commons, PO Box 1866, Mountain View, CA 94042, USA.
#
# CIF created using the CSD Python API on 29 September 2022
# The structure has been converted into the P1 space group
# The structure has a 3D framework
# The original CSD entry FIPXAF is in the monoclinic crystal system
# The original CSD entry FIPXAF is in a Sohncke space group
# The framework has been calculated to contain at least 10.0% void space
# The void calculation uses a probe of radius 1.32A, grid spacing 0.4
#
###############################################################################

data_FIPXAF
_chemical_formula_moiety         '(C18 H20 N6 O6 Zn2)n'
_symmetry_cell_setting           triclinic
_symmetry_space_group_name_H-M   'P 1'
_symmetry_Int_Tables_number      1
_space_group_name_Hall           'P 1'
loop_
_symmetry_equiv_pos_site_id
_symmetry_equiv_pos_as_xyz
1 x,y,z
_cell_length_a                   9.2522(8)
_cell_length_b                   9.2556(7)
_cell_length_c                   9.4781(8)
_cell_angle_alpha                90
_cell_angle_beta                 118.419(3)
_cell_angle_gamma                90
_cell_volume                     713.842
loop_
_atom_site_label
_atom_site_type_symbol
_atom_site_fract_x
_atom_site_fract_y
_atom_site_fract_z
N7 N 0.4545(5) 0.7491(5) 0.0253(6)
N2 N 0.6351(5) 0.9286(5) 0.1319(5)
C2 C 0.9825(6) 0.8144(6) 0.4122(6)
C4 C 0.6736(6) 0.8262(6) 0.2484(7)
N3 N 0.9769(5) 0.6881(5) 0.3204(5)
H5 H 0.9220 0.6125 0.3255
C5 C 0.5647(6) 0.7153(6) 0.1851(7)
H6 H 0.5637 0.6296 0.2399
C7 C 0.8171(6) 0.8323(7) 0.4128(7)
H9 H 0.8061 0.7549 0.4792
H10 H 0.8165 0.9261 0.4626
H11 H 0.9116 0.5320 0.0540
H8 H 0.8671 0.9242 0.9746
H12 H 0.9535 0.9573 0.7848
Zn1 Zn 0.27889(6) 0.62679(8) 0.86336(6)
O1 O 0.1674(5) 0.6777(4) 0.6369(4)
C1 C 0.1172(6) 0.8053(7) 0.5871(7)
O2 O 0.1628(5) 0.9142(5) 0.6701(5)
H3 H 0.0023 0.9015 0.3613
C6 C 0.1417(9) 0.5237(8) 0.0671(9)
H7 H 0.2564 0.5383 0.1522
H8_2 H 0.1329 0.4242 0.0254
C8 C 0.0479(8) 0.6788(7) 0.2302(9)
C9 C 0.0267(11) 0.5389(9) 0.1406(10)
H12_2 H 0.0465 0.4573 0.2152
O3 O 0.1260(8) 0.7801(6) 0.2112(8)
N5 N 0.1053(5) 0.6268(9) 0.9362(5)
N6 N 0.3649(5) 0.4286(5) 0.8681(5)
H1 H 0.0975 0.7182 0.9701
H2 H 0.0053 0.6040 0.8504
C3 C 0.5061(10) 0.8781(10) 0.9986(11)
H4 H 0.4573 0.9267 0.8982
C2_2 C 0.0175(6) 0.3144(6) 0.5878(6)
C4_2 C 0.3264(6) 0.3262(6) 0.7516(7)
N3_2 N 0.0231(5) 0.1881(5) 0.6796(5)
H5_2 H 0.0780 0.1125 0.6745
N4 N 0.5455(5) 0.2491(5) 0.9747(6)
C5_2 C 0.4353(6) 0.2153(6) 0.8149(7)
H6_2 H 0.4363 0.1296 0.7601
C7_2 C 0.1829(6) 0.3323(7) 0.5872(7)
H9_2 H 0.1939 0.2549 0.5208
H10_2 H 0.1835 0.4261 0.5374
H11_2 H 0.0884 0.0320 0.9460
Zn4 Zn 0.72111(6) 0.12679(8) 0.13664(6)
C3_2 C 0.4939(10) 0.3781(10) 0.0014(11)
H4_2 H 0.5427 0.4267 0.1018
N1 N 0.8947(5) 0.1268(9) 0.0638(5)
H1_2 H 0.9025 0.2182 0.0299
H2_2 H 0.9947 0.1040 0.1496
O1_2 O 0.8326(5) 0.1777(4) 0.3631(4)
C1_2 C 0.8828(6) 0.3053(7) 0.4129(7)
O2_2 O 0.8372(5) 0.4142(5) 0.3299(5)
H3_2 H 0.9977 0.4015 0.6387
C6_2 C 0.8583(9) 0.0237(8) 0.9329(9)
H7_2 H 0.7436 0.0383 0.8478
C8_2 C 0.9521(8) 0.1788(7) 0.7698(9)
C9_2 C 0.9733(11) 0.0389(9) 0.8594(10)
O3_2 O 0.8740(8) 0.2801(6) 0.7888(8)
loop_
_geom_bond_atom_site_label_1
_geom_bond_atom_site_label_2
_geom_bond_site_symmetry_1
_geom_bond_site_symmetry_2
C4 N2 1_555 1_555
N3 C2 1_555 1_555
H5 N3 1_555 1_555
C5 C4 1_555 1_555
H6 C5 1_555 1_555
C7 C2 1_555 1_555
H9 C7 1_555 1_555
H10 C7 1_555 1_555
C4 C7 1_555 1_555
N7 C5 1_555 1_555
Zn1 O1 1_555 1_555
O1 C1 1_555 1_555
C1 O2 1_555 1_555
H7 C6 1_555 1_555
H8_2 C6 1_555 1_555
C9 C6 1_555 1_555
H12_2 C9 1_555 1_555
O3 C8 1_555 1_555
N5 Zn1 1_555 1_555
N6 Zn1 1_555 1_555
C8 C9 1_555 1_555
N5 H1 1_555 1_555
H2 N5 1_555 1_555
C3 H4 1_555 1_555
C4_2 N6 1_555 1_555
N3_2 C2_2 1_555 1_555
H5_2 N3_2 1_555 1_555
C5_2 C4_2 1_555 1_555
H6_2 C5_2 1_555 1_555
C7_2 C2_2 1_555 1_555
H9_2 C7_2 1_555 1_555
H10_2 C7_2 1_555 1_555
C4_2 C7_2 1_555 1_555
N4 C5_2 1_555 1_555
C3_2 H4_2 1_555 1_555
N1 H1_2 1_555 1_555
H2_2 N1 1_555 1_555
Zn4 N1 1_555 1_555
Zn4 O1_2 1_555 1_555
O1_2 C1_2 1_555 1_555
C1_2 O2_2 1_555 1_555
H7_2 C6_2 1_555 1_555
C9_2 C6_2 1_555 1_555
O3_2 C8_2 1_555 1_555
C8_2 C9_2 1_555 1_555

#END
