
###############################################################################
#
# This file contains modified crystal structure data generated from the
# MOF subset of the Cambridge Structural Database (CSD) v543 
# hosted by the Cambridge Crystallographic Data Centre (CCDC).
#
# This work is licensed under the Creative Commons
# Attribution-NonCommercial-ShareAlike 4.0 International License.
# To view a copy of this license, visit
# http://creativecommons.org/licenses/by-nc-sa/4.0/
# or send a letter to
# Creative Commons, PO Box 1866, Mountain View, CA 94042, USA.
#
# CIF created using the CSD Python API on 29 September 2022
# The structure has been converted into the P1 space group
# The structure has a 3D framework
# The original CSD entry FIQDAN is in the triclinic crystal system
# The framework has been calculated to contain at least 10.0% void space
# The void calculation uses a probe of radius 1.32A, grid spacing 0.4
#
###############################################################################

data_FIQDAN
_chemical_formula_moiety         '(C50 H38 N2 O18 Zn4)n'
_symmetry_cell_setting           triclinic
_symmetry_space_group_name_H-M   'P 1'
_symmetry_Int_Tables_number      1
_space_group_name_Hall           'P 1'
loop_
_symmetry_equiv_pos_site_id
_symmetry_equiv_pos_as_xyz
1 x,y,z
_cell_length_a                   12.252(5)
_cell_length_b                   12.820(5)
_cell_length_c                   13.635(6)
_cell_angle_alpha                65.009(7)
_cell_angle_beta                 79.056(7)
_cell_angle_gamma                79.551(7)
_cell_volume                     1893.49
loop_
_atom_site_label
_atom_site_type_symbol
_atom_site_fract_x
_atom_site_fract_y
_atom_site_fract_z
N1 N 0.6625(15) 0.6148(16) 0.0208(16)
H2 H 0.5913 0.6499 0.0259
C1 C 0.706(3) 0.568(3) 0.126(3)
H3 H 0.7321 0.4850 0.1473
H4 H 0.6470 0.5776 0.1821
H5 H 0.7691 0.6088 0.1201
H7 H 0.5970 0.4748 0.0312
H8 H 0.7306 0.4568 0.0226
H1 H 0.7062 0.6671 0.9684
C2 C 0.6654(17) 0.5120(18) 0.996(2)
H6 H 0.6705 0.5366 0.9166
H1_2 H 0.2938 0.3329 0.0316
C2_2 C 0.3346(17) 0.4880(18) 0.004(2)
H6_2 H 0.3295 0.4634 0.0834
N1_2 N 0.3375(15) 0.3852(16) 0.9792(16)
H2_2 H 0.4087 0.3501 0.9741
C1_2 C 0.294(3) 0.432(3) 0.874(3)
H3_2 H 0.2679 0.5150 0.8527
H4_2 H 0.3530 0.4224 0.8179
H5_2 H 0.2309 0.3912 0.8799
H7_2 H 0.4030 0.5252 0.9688
H8_2 H 0.2694 0.5432 0.9774
O14 O 0.4773(3) 0.0833(4) 0.8873(3)
Zn2 Zn 0.08889(5) 0.53397(5) 0.53935(5)
O2 O 0.4417(4) 0.6880(4) 0.0581(5)
O3 O 0.1215(4) 0.6190(4) 0.3740(3)
O11 O 0.2081(5) 0.5793(5) 0.5855(5)
H9 H 0.2265 0.6236 0.5167
H10 H 0.2296 0.5055 0.6137
C3 C 0.3777(5) 0.7710(6) 0.0022(6)
C4 C 0.2534(5) 0.7710(5) 0.0430(5)
C6 C 0.0658(5) 0.8614(5) 0.0152(5)
C7 C 0.0273(4) 0.7945(4) 0.1218(4)
C8 C 0.1029(5) 0.7088(5) 0.1879(5)
C9 C 0.2149(5) 0.6993(5) 0.1462(5)
H13 H 0.2660 0.6416 0.1905
C10 C 0.0666(5) 0.6268(5) 0.3023(5)
O12 O 0.0112(4) 0.4287(4) 0.6849(4)
O17 O 0.1663(4) 0.3869(4) 0.5225(4)
H17 H 0.6442 0.0134 0.3576
H18 H 0.5914 0.0288 0.5262
Zn5 Zn 0.45884(5) 0.07454(6) 0.11370(5)
O5 O 0.3512(3) 0.1216(3) 0.0123(3)
O7 O 0.4110(4) 0.0247(4) 0.2725(4)
O8 O 0.3297(5) 0.2001(5) 0.1943(4)
O10 O 0.0351(4) 0.3352(4) 0.4634(4)
C11 C 0.0918(5) 0.1822(5) 0.8330(5)
C12 C 0.1774(5) 0.1623(5) 0.8955(5)
H14 H 0.1615 0.1686 0.9639
C13 C 0.2854(5) 0.1333(5) 0.8559(5)
C14 C 0.3099(5) 0.1257(5) 0.7560(5)
H15 H 0.3852 0.1066 0.7301
C15 C 0.2257(5) 0.1459(5) 0.6928(5)
C16 C 0.1168(5) 0.1713(5) 0.7352(5)
H16 H 0.0575 0.1815 0.6950
C17 C 0.3793(5) 0.1098(5) 0.9202(5)
C18 C 0.2513(5) 0.1341(5) 0.5875(5)
C19 C 0.3253(5) 0.0435(6) 0.5794(5)
C20 C 0.3566(5) 0.0340(5) 0.4787(5)
C21 C 0.3120(5) 0.1158(5) 0.3865(5)
C22 C 0.2332(6) 0.2053(6) 0.3959(5)
H19 H 0.1993 0.2594 0.3338
C23 C 0.2038(5) 0.2165(6) 0.4944(5)
C24 C 0.1300(6) 0.3211(6) 0.4941(5)
C25 C 0.3525(6) 0.1128(6) 0.2751(5)
O1 O 0.5958(3) 0.1444(4) 0.0813(4)
C5 C 0.8202(5) 0.1439(5) 0.0271(5)
H11 H 0.7940 0.0932 0.0988
H12 H 0.9867 0.0870 0.0315
Zn1 Zn 0.54116(5) 0.92546(6) 0.88630(5)
O1_2 O 0.4042(3) 0.8556(4) 0.9187(4)
C5_2 C 0.1798(5) 0.8561(5) 0.9729(5)
H11_2 H 0.2060 0.9068 0.9012
H12_2 H 0.0133 0.9130 0.9685
O13 O 0.6488(3) 0.8784(3) 0.9877(3)
O15 O 0.5890(4) 0.9753(4) 0.7275(4)
O16 O 0.6703(5) 0.7999(5) 0.8057(4)
O4 O 0.9888(4) 0.5713(4) 0.3151(4)
O6 O 0.5227(3) 0.9167(4) 0.1127(3)
O9 O 0.8337(4) 0.6131(4) 0.4775(4)
O10_2 O 0.9649(4) 0.6648(4) 0.5366(4)
C11_2 C 0.9082(5) 0.8178(5) 0.1670(5)
C12_2 C 0.8226(5) 0.8377(5) 0.1045(5)
H14_2 H 0.8385 0.8314 0.0361
C13_2 C 0.7146(5) 0.8667(5) 0.1441(5)
C14_2 C 0.6901(5) 0.8743(5) 0.2440(5)
H15_2 H 0.6148 0.8934 0.2699
C15_2 C 0.7743(5) 0.8541(5) 0.3072(5)
C16_2 C 0.8832(5) 0.8287(5) 0.2648(5)
H16_2 H 0.9425 0.8185 0.3050
C17_2 C 0.6207(5) 0.8902(5) 0.0798(5)
C18_2 C 0.7487(5) 0.8659(5) 0.4125(5)
C19_2 C 0.6747(5) 0.9565(6) 0.4206(5)
C20_2 C 0.6434(5) 0.9660(5) 0.5213(5)
C21_2 C 0.6880(5) 0.8842(5) 0.6135(5)
C22_2 C 0.7668(6) 0.7947(6) 0.6041(5)
H19_2 H 0.8007 0.7406 0.6662
C23_2 C 0.7962(5) 0.7835(6) 0.5056(5)
C24_2 C 0.8700(6) 0.6789(6) 0.5059(5)
C25_2 C 0.6475(6) 0.8872(6) 0.7249(5)
Zn6 Zn 0.91111(5) 0.46603(5) 0.46065(5)
H17_2 H 0.3558 0.9866 0.6424
H18_2 H 0.4086 0.9712 0.4738
O2_2 O 0.5583(4) 0.3120(4) 0.9419(5)
O3_2 O 0.8785(4) 0.3810(4) 0.6260(3)
O11_2 O 0.7919(5) 0.4207(5) 0.4145(5)
H9_2 H 0.7735 0.3764 0.4833
H10_2 H 0.7704 0.4945 0.3863
C3_2 C 0.6223(5) 0.2290(6) 0.9978(6)
C4_2 C 0.7466(5) 0.2290(5) 0.9570(5)
C6_2 C 0.9342(5) 0.1386(5) 0.9848(5)
C7_2 C 0.9727(4) 0.2055(4) 0.8782(4)
C8_2 C 0.8971(5) 0.2912(5) 0.8121(5)
C9_2 C 0.7851(5) 0.3007(5) 0.8538(5)
H13_2 H 0.7340 0.3584 0.8095
C10_2 C 0.9334(5) 0.3732(5) 0.6977(5)
loop_
_geom_bond_atom_site_label_1
_geom_bond_atom_site_label_2
_geom_bond_site_symmetry_1
_geom_bond_site_symmetry_2
H2 N1 1_555 1_555
C1 N1 1_555 1_555
H3 C1 1_555 1_555
H4 C1 1_555 1_555
H5 C1 1_555 1_555
H6 C2 1_555 1_555
H6_2 C2_2 1_555 1_555
H2_2 N1_2 1_555 1_555
C1_2 N1_2 1_555 1_555
H3_2 C1_2 1_555 1_555
H4_2 C1_2 1_555 1_555
H5_2 C1_2 1_555 1_555
Zn2 O3 1_555 1_555
O2 C3 1_555 1_555
O3 C10 1_555 1_555
O11 Zn2 1_555 1_555
H9 O11 1_555 1_555
H10 O11 1_555 1_555
C3 C4 1_555 1_555
C7 C6 1_555 1_555
C8 C7 1_555 1_555
C9 C4 1_555 1_555
H13 C9 1_555 1_555
C10 C8 1_555 1_555
O12 Zn2 1_555 1_555
O17 Zn2 1_555 1_555
C8 C9 1_555 1_555
Zn5 O5 1_555 1_555
O14 C17 1_555 1_555
O7 C25 1_555 1_555
O8 C25 1_555 1_555
O17 C24 1_555 1_555
C12 C11 1_555 1_555
H14 C12 1_555 1_555
C13 C12 1_555 1_555
C14 C13 1_555 1_555
H15 C14 1_555 1_555
C15 C14 1_555 1_555
C16 C11 1_555 1_555
H16 C16 1_555 1_555
C17 C13 1_555 1_555
C18 C15 1_555 1_555
C19 C18 1_555 1_555
C20 C19 1_555 1_555
C21 C20 1_555 1_555
C22 C21 1_555 1_555
H19 C22 1_555 1_555
C23 C18 1_555 1_555
C24 O10 1_555 1_555
C25 C21 1_555 1_555
Zn5 O7 1_555 1_555
O8 Zn5 1_555 1_555
C15 C16 1_555 1_555
C22 C23 1_555 1_555
C23 C24 1_555 1_555
Zn5 O1 1_555 1_555
C5 H11 1_555 1_555
Zn1 O1_2 1_555 1_555
C5_2 H11_2 1_555 1_555
O13 Zn1 1_555 1_555
O15 Zn1 1_555 1_555
O16 Zn1 1_555 1_555
O6 C17_2 1_555 1_555
O15 C25_2 1_555 1_555
O16 C25_2 1_555 1_555
O9 C24_2 1_555 1_555
C12_2 C11_2 1_555 1_555
H14_2 C12_2 1_555 1_555
C13_2 C12_2 1_555 1_555
C14_2 C13_2 1_555 1_555
H15_2 C14_2 1_555 1_555
C15_2 C14_2 1_555 1_555
C16_2 C11_2 1_555 1_555
H16_2 C16_2 1_555 1_555
C17_2 C13_2 1_555 1_555
C18_2 C15_2 1_555 1_555
C19_2 C18_2 1_555 1_555
C20_2 C19_2 1_555 1_555
C21_2 C20_2 1_555 1_555
C22_2 C21_2 1_555 1_555
H19_2 C22_2 1_555 1_555
C23_2 C18_2 1_555 1_555
C24_2 O10_2 1_555 1_555
C25_2 C21_2 1_555 1_555
Zn6 O4 1_555 1_555
O9 Zn6 1_555 1_555
C15_2 C16_2 1_555 1_555
C22_2 C23_2 1_555 1_555
C23_2 C24_2 1_555 1_555
Zn6 O3_2 1_555 1_555
O2_2 C3_2 1_555 1_555
O3_2 C10_2 1_555 1_555
O11_2 Zn6 1_555 1_555
H9_2 O11_2 1_555 1_555
H10_2 O11_2 1_555 1_555
C3_2 C4_2 1_555 1_555
C7_2 C6_2 1_555 1_555
C8_2 C7_2 1_555 1_555
C9_2 C4_2 1_555 1_555
H13_2 C9_2 1_555 1_555
C10_2 C8_2 1_555 1_555
C8_2 C9_2 1_555 1_555

#END
