
###############################################################################
#
# This file contains modified crystal structure data generated from the
# MOF subset of the Cambridge Structural Database (CSD) v543 
# hosted by the Cambridge Crystallographic Data Centre (CCDC).
#
# This work is licensed under the Creative Commons
# Attribution-NonCommercial-ShareAlike 4.0 International License.
# To view a copy of this license, visit
# http://creativecommons.org/licenses/by-nc-sa/4.0/
# or send a letter to
# Creative Commons, PO Box 1866, Mountain View, CA 94042, USA.
#
# CIF created using the CSD Python API on 29 September 2022
# The structure has been converted into the P1 space group
# The structure has a 3D framework
# The original CSD entry FIQWAG is in the tetragonal crystal system
# The framework has been calculated to contain at least 10.0% void space
# The void calculation uses a probe of radius 1.32A, grid spacing 0.4
#
###############################################################################

data_FIQWAG
_chemical_formula_moiety         '(C224 H144 Eu16 N16 O112)n'
_symmetry_cell_setting           triclinic
_symmetry_space_group_name_H-M   'P 1'
_symmetry_Int_Tables_number      1
_space_group_name_Hall           'P 1'
loop_
_symmetry_equiv_pos_site_id
_symmetry_equiv_pos_as_xyz
1 x,y,z
_cell_length_a                   20.164(3)
_cell_length_b                   20.164(3)
_cell_length_c                   15.013(3)
_cell_angle_alpha                90
_cell_angle_beta                 90
_cell_angle_gamma                90
_cell_volume                     6104.09
loop_
_atom_site_label
_atom_site_type_symbol
_atom_site_fract_x
_atom_site_fract_y
_atom_site_fract_z
Eu1 Eu 0.152825(14) 0.022072(14) 0.033985(17)
H8 H 0.172(4) 0.154(4) 0.111(3)
H9 H 0.129(4) 0.174(4) 0.048(6)
O7 O 0.1587(3) 0.1448(2) 0.0585(3)
O9 O 0.0424(2) 0.0748(2) 0.0068(3)
O15 O 0.0789(2) 0.0225(3) 0.1681(3)
O17 O 0.1823(2) 0.0504(2) 0.1954(2)
O19 O 0.2660(2) 0.0429(2) 0.0294(3)
O21 O 0.1512(2) 0.0646(2) 0.8882(3)
C2 C 0.1944(3) 0.8550(3) 0.0663(4)
C3 C 0.1969(3) 0.7899(3) 0.0956(4)
H1 H 0.2057 0.7556 0.0560
C4 C 0.1860(4) 0.7770(3) 0.1852(4)
H2 H 0.1865 0.7336 0.2062
C5 C 0.1744(3) 0.8292(3) 0.2434(3)
C6 C 0.1722(3) 0.8929(3) 0.2059(4)
H3 H 0.1642 0.9283 0.2441
C7 C 0.1629(3) 0.8205(3) 0.3407(4)
C8 C 0.1293(4) 0.7648(3) 0.3724(4)
H4 H 0.1144 0.7327 0.3327
C9 C 0.1179(4) 0.7571(3) 0.4629(4)
H5 H 0.0955 0.7198 0.4835
C10 C 0.1396(4) 0.8041(3) 0.5220(4)
H6 H 0.1316 0.7985 0.5826
C11 C 0.1733(3) 0.8599(3) 0.4926(4)
C12 C 0.1847(3) 0.8682(3) 0.4017(4)
H7 H 0.2070 0.9057 0.3814
C13 C 0.1990(3) 0.9099(3) 0.5581(4)
N1 N 0.1807(3) 0.9067(2) 0.1200(3)
O3 O 0.2340(2) 0.9571(2) 0.5294(3)
O4 O 0.1854(2) 0.9012(2) 0.6382(3)
Eu3 Eu 0.347175(14) 0.977928(14) 0.533985(17)
Eu5 Eu 0.227928(14) 0.902825(14) 0.783985(17)
C1 C 0.2075(3) 0.8722(3) 0.9701(4)
C14 C 0.0064(3) 0.9633(3) 0.9953(4)
O1 O 0.2275(3) 0.8289(2) 0.9181(3)
O2 O 0.1996(2) 0.9323(2) 0.9454(2)
O5 O 0.0663(2) 0.9452(2) 0.9895(3)
C15 C 0.9936(3) 0.0367(3) 0.0047(4)
O8 O 0.9337(2) 0.0548(2) 0.0105(3)
C16 C 0.7925(3) 0.1278(3) 0.0299(4)
O10 O 0.7725(3) 0.1711(2) 0.0819(3)
O11 O 0.8004(2) 0.0677(2) 0.0546(2)
Eu8 Eu 0.772072(14) 0.097175(14) 0.216015(17)
C17 C 0.8056(3) 0.1450(3) 0.9337(4)
C18 C 0.8031(3) 0.2101(3) 0.9044(4)
H10 H 0.7943 0.2444 0.9440
C19 C 0.8140(4) 0.2230(3) 0.8148(4)
H11 H 0.8135 0.2664 0.7938
C20 C 0.8256(3) 0.1708(3) 0.7566(3)
C21 C 0.8278(3) 0.1071(3) 0.7941(4)
H12 H 0.8358 0.0717 0.7559
C22 C 0.8371(3) 0.1795(3) 0.6593(4)
C23 C 0.8707(4) 0.2352(3) 0.6276(4)
H13 H 0.8856 0.2673 0.6673
C24 C 0.8821(4) 0.2429(3) 0.5371(4)
H14 H 0.9045 0.2802 0.5165
C25 C 0.8604(4) 0.1959(3) 0.4780(4)
H15 H 0.8684 0.2015 0.4174
C26 C 0.8267(3) 0.1401(3) 0.5074(4)
C27 C 0.8153(3) 0.1318(3) 0.5983(4)
H16 H 0.7930 0.0943 0.6186
C28 C 0.8010(3) 0.0901(3) 0.4419(4)
N2 N 0.8193(3) 0.0933(2) 0.8800(3)
O12 O 0.7660(2) 0.0429(2) 0.4706(3)
O13 O 0.8146(2) 0.0988(2) 0.3618(3)
Eu6 Eu 0.652825(14) 0.022072(14) 0.466015(17)
O22 O 0.8488(2) 0.9354(2) 0.1118(3)
O6 O 0.9576(2) 0.9252(2) 0.9932(3)
Eu2 Eu 0.847175(14) 0.977928(14) 0.966015(17)
H17 H 0.828(4) 0.846(4) 0.889(3)
H18 H 0.871(4) 0.826(4) 0.952(6)
O14 O 0.8413(3) 0.8552(2) 0.9415(3)
O16 O 0.9211(2) 0.9775(3) 0.8319(3)
O18 O 0.8177(2) 0.9496(2) 0.8046(2)
O20 O 0.7340(2) 0.9571(2) 0.9706(3)
C10_2 C 0.3604(4) 0.1959(3) 0.0220(4)
H6_2 H 0.3684 0.2015 0.0826
C13_2 C 0.3010(3) 0.0901(3) 0.0581(4)
O4_2 O 0.3146(2) 0.0988(2) 0.1382(3)
Eu5_2 Eu 0.272072(14) 0.097175(14) 0.283985(17)
C1_2 C 0.2925(3) 0.1278(3) 0.4701(4)
C2_2 C 0.3056(3) 0.1450(3) 0.5663(4)
C3_2 C 0.3031(3) 0.2101(3) 0.5956(4)
H1_2 H 0.2943 0.2444 0.5560
C4_2 C 0.3140(4) 0.2230(3) 0.6852(4)
H2_2 H 0.3135 0.2664 0.7062
C5_2 C 0.3256(3) 0.1708(3) 0.7434(3)
C6_2 C 0.3278(3) 0.1071(3) 0.7059(4)
H3_2 H 0.3358 0.0717 0.7441
C7_2 C 0.3371(3) 0.1795(3) 0.8407(4)
C8_2 C 0.3707(4) 0.2352(3) 0.8724(4)
H4_2 H 0.3856 0.2673 0.8327
C9_2 C 0.3821(4) 0.2429(3) 0.9629(4)
H5_2 H 0.4045 0.2802 0.9835
C11_2 C 0.3267(3) 0.1401(3) 0.9926(4)
C12_2 C 0.3153(3) 0.1318(3) 0.9017(4)
H7_2 H 0.2930 0.0943 0.8814
C14_2 C 0.4936(3) 0.0367(3) 0.4953(4)
N1_2 N 0.3193(3) 0.0933(2) 0.6200(3)
O1_2 O 0.2725(3) 0.1711(2) 0.4181(3)
O2_2 O 0.3004(2) 0.0677(2) 0.4454(2)
O5_2 O 0.4337(2) 0.0548(2) 0.4895(3)
O6_2 O 0.5424(2) 0.0748(2) 0.4932(3)
H17_2 H 0.672(4) 0.154(4) 0.389(3)
H18_2 H 0.629(4) 0.174(4) 0.452(6)
O14_2 O 0.6587(3) 0.1448(2) 0.4415(3)
O16_2 O 0.5789(2) 0.0225(3) 0.3319(3)
O18_2 O 0.6823(2) 0.0504(2) 0.3046(2)
O22_2 O 0.6512(2) 0.0646(2) 0.6118(3)
H8_2 H 0.328(4) 0.846(4) 0.611(3)
H9_2 H 0.371(4) 0.826(4) 0.548(6)
O7_2 O 0.3413(3) 0.8552(2) 0.5585(3)
C15_2 C 0.5064(3) 0.9633(3) 0.5047(4)
O8_2 O 0.5663(2) 0.9452(2) 0.5105(3)
O9_2 O 0.4576(2) 0.9252(2) 0.5068(3)
C16_2 C 0.7075(3) 0.8722(3) 0.5299(4)
C17_2 C 0.6944(3) 0.8550(3) 0.4337(4)
C18_2 C 0.6969(3) 0.7899(3) 0.4044(4)
H10_2 H 0.7057 0.7556 0.4440
C19_2 C 0.6860(4) 0.7770(3) 0.3148(4)
H11_2 H 0.6865 0.7336 0.2938
C20_2 C 0.6744(3) 0.8292(3) 0.2566(3)
C21_2 C 0.6722(3) 0.8929(3) 0.2941(4)
H12_2 H 0.6642 0.9283 0.2559
C22_2 C 0.6629(3) 0.8205(3) 0.1593(4)
C23_2 C 0.6293(4) 0.7648(3) 0.1276(4)
H13_2 H 0.6144 0.7327 0.1673
C24_2 C 0.6179(4) 0.7571(3) 0.0371(4)
H14_2 H 0.5955 0.7198 0.0165
C26_2 C 0.6733(3) 0.8599(3) 0.0074(4)
C27_2 C 0.6847(3) 0.8682(3) 0.0983(4)
H16_2 H 0.7070 0.9057 0.1186
N2_2 N 0.6807(3) 0.9067(2) 0.3800(3)
O10_2 O 0.7275(3) 0.8289(2) 0.5819(3)
O11_2 O 0.6996(2) 0.9323(2) 0.5546(2)
Eu8_2 Eu 0.727928(14) 0.902825(14) 0.716015(17)
O15_2 O 0.4211(2) 0.9775(3) 0.6681(3)
O17_2 O 0.3177(2) 0.9496(2) 0.6954(2)
O21_2 O 0.3488(2) 0.9354(2) 0.3882(3)
C25_2 C 0.6396(4) 0.8041(3) 0.9780(4)
H15_2 H 0.6316 0.7985 0.9174
C28_2 C 0.6990(3) 0.9099(3) 0.9419(4)
O13_2 O 0.6854(2) 0.9012(2) 0.8618(3)
Eu5_3 Eu 0.847175(14) 0.477928(14) 0.033985(17)
C1_3 C 0.8778(3) 0.4575(3) 0.2201(4)
C2_3 C 0.8950(3) 0.4444(3) 0.3163(4)
C3_3 C 0.9601(3) 0.4469(3) 0.3456(4)
H1_3 H 0.9944 0.4557 0.3060
C4_3 C 0.9730(3) 0.4360(4) 0.4352(4)
C5_3 C 0.9208(3) 0.4244(3) 0.4934(3)
C6_3 C 0.8571(3) 0.4222(3) 0.4559(4)
H3_3 H 0.8217 0.4142 0.4941
C7_3 C 0.9295(3) 0.4129(3) 0.5907(4)
C8_3 C 0.9852(3) 0.3793(4) 0.6224(4)
C9_3 C 0.9929(3) 0.3679(4) 0.7129(4)
C10_3 C 0.9459(3) 0.3896(4) 0.7720(4)
H6_3 H 0.9515 0.3816 0.8326
C11_3 C 0.8901(3) 0.4233(3) 0.7426(4)
C12_3 C 0.8818(3) 0.4347(3) 0.6517(4)
H7_3 H 0.8443 0.4570 0.6314
C13_3 C 0.8401(3) 0.4490(3) 0.8081(4)
C14_3 C 0.7867(3) 0.2564(3) 0.2453(4)
Eu1_2 Eu 0.727928(14) 0.402825(14) 0.283985(17)
H8_3 H 0.596(4) 0.422(4) 0.361(3)
H9_3 H 0.576(4) 0.379(4) 0.298(6)
N1_3 N 0.8433(2) 0.4307(3) 0.3700(3)
O1_3 O 0.9211(2) 0.4775(3) 0.1681(3)
O2_3 O 0.8177(2) 0.4496(2) 0.1954(2)
O3_2 O 0.7929(2) 0.4840(2) 0.7794(3)
O4_3 O 0.8488(2) 0.4354(2) 0.8882(3)
O5_3 O 0.8048(2) 0.3163(2) 0.2395(3)
O6_3 O 0.8248(2) 0.2076(2) 0.2432(3)
O7_3 O 0.6052(2) 0.4087(3) 0.3085(3)
C15_3 C 0.7133(3) 0.2436(3) 0.2547(4)
O8_3 O 0.6952(2) 0.1837(2) 0.2605(3)
O9_3 O 0.6752(2) 0.2924(2) 0.2568(3)
C16_3 C 0.6222(3) 0.0425(3) 0.2799(4)
C17_3 C 0.6050(3) 0.0556(3) 0.1837(4)
C18_3 C 0.5399(3) 0.0531(3) 0.1544(4)
H10_3 H 0.5056 0.0443 0.1940
C19_3 C 0.5270(3) 0.0640(4) 0.0648(4)
H11_3 H 0.4836 0.0635 0.0438
C20_3 C 0.5792(3) 0.0756(3) 0.0066(3)
C21_3 C 0.6429(3) 0.0778(3) 0.0441(4)
H12_3 H 0.6783 0.0858 0.0059
H17_3 H 0.904(4) 0.078(4) 0.139(3)
H18_3 H 0.924(4) 0.121(4) 0.202(6)
N2_3 N 0.6567(2) 0.0693(3) 0.1300(3)
O14_3 O 0.8948(2) 0.0913(3) 0.1915(3)
Eu3_2 Eu 0.772072(14) 0.597175(14) 0.783985(17)
O15_3 O 0.7275(3) 0.3289(2) 0.4181(3)
O17_3 O 0.6996(2) 0.4323(2) 0.4454(2)
O19_2 O 0.7071(2) 0.5160(2) 0.2794(3)
O21_3 O 0.6854(2) 0.4012(2) 0.1382(3)
C22_3 C 0.5705(3) 0.0871(3) 0.9093(4)
C23_3 C 0.5148(3) 0.1207(4) 0.8776(4)
H13_3 H 0.4827 0.1356 0.9173
C24_3 C 0.5071(3) 0.1321(4) 0.7871(4)
H14_3 H 0.4698 0.1545 0.7665
C25_3 C 0.5541(3) 0.1104(4) 0.7280(4)
H15_3 H 0.5485 0.1184 0.6674
C26_3 C 0.6099(3) 0.0767(3) 0.7574(4)
C27_3 C 0.6182(3) 0.0653(3) 0.8483(4)
H16_3 H 0.6557 0.0430 0.8686
C28_3 C 0.6599(3) 0.0510(3) 0.6919(4)
O12_2 O 0.7071(2) 0.0160(2) 0.7206(3)
O20_2 O 0.7929(2) 0.9840(2) 0.2206(3)
C7_4 C 0.5705(3) 0.5871(3) 0.0907(4)
C8_4 C 0.5148(3) 0.6207(4) 0.1224(4)
H4_3 H 0.4827 0.6356 0.0827
C9_4 C 0.5071(3) 0.6321(4) 0.2129(4)
H5_3 H 0.4698 0.6545 0.2335
C10_4 C 0.5541(3) 0.6104(4) 0.2720(4)
H6_4 H 0.5485 0.6184 0.3326
C11_4 C 0.6099(3) 0.5767(3) 0.2426(4)
C12_4 C 0.6182(3) 0.5653(3) 0.1517(4)
H7_4 H 0.6557 0.5430 0.1314
C13_4 C 0.6599(3) 0.5510(3) 0.3081(4)
O4_4 O 0.6512(2) 0.5646(2) 0.3882(3)
Eu5_4 Eu 0.652825(14) 0.522072(14) 0.533985(17)
C1_4 C 0.6222(3) 0.5425(3) 0.7201(4)
C2_4 C 0.6050(3) 0.5556(3) 0.8163(4)
C3_4 C 0.5399(3) 0.5531(3) 0.8456(4)
H1_4 H 0.5056 0.5443 0.8060
C4_4 C 0.5270(3) 0.5640(4) 0.9352(4)
H2_3 H 0.4836 0.5635 0.9562
C5_4 C 0.5792(3) 0.5756(3) 0.9934(3)
C6_4 C 0.6429(3) 0.5778(3) 0.9559(4)
H3_4 H 0.6783 0.5858 0.9941
C14_4 C 0.7133(3) 0.7436(3) 0.7453(4)
H8_4 H 0.904(4) 0.578(4) 0.861(3)
H9_4 H 0.924(4) 0.621(4) 0.798(6)
N1_4 N 0.6567(2) 0.5693(3) 0.8700(3)
O1_4 O 0.5789(2) 0.5225(3) 0.6681(3)
O2_4 O 0.6823(2) 0.5504(2) 0.6954(2)
O5_4 O 0.6952(2) 0.6837(2) 0.7395(3)
O6_4 O 0.6752(2) 0.7924(2) 0.7432(3)
O7_4 O 0.8948(2) 0.5913(3) 0.8085(3)
C15_4 C 0.7867(3) 0.7564(3) 0.7547(4)
O8_4 O 0.8048(2) 0.8163(2) 0.7605(3)
O9_4 O 0.8248(2) 0.7076(2) 0.7568(3)
C16_4 C 0.8778(3) 0.9575(3) 0.7799(4)
C17_4 C 0.8950(3) 0.9444(3) 0.6837(4)
C18_4 C 0.9601(3) 0.9469(3) 0.6544(4)
H10_4 H 0.9944 0.9557 0.6940
C19_4 C 0.9730(3) 0.9360(4) 0.5648(4)
C20_4 C 0.9208(3) 0.9244(3) 0.5066(3)
C21_4 C 0.8571(3) 0.9222(3) 0.5441(4)
H12_4 H 0.8217 0.9142 0.5059
C22_4 C 0.9295(3) 0.9129(3) 0.4093(4)
C23_4 C 0.9852(3) 0.8793(4) 0.3776(4)
C24_4 C 0.9929(3) 0.8679(4) 0.2871(4)
C25_4 C 0.9459(3) 0.8896(4) 0.2280(4)
H15_4 H 0.9515 0.8816 0.1674
C26_4 C 0.8901(3) 0.9233(3) 0.2574(4)
C27_4 C 0.8818(3) 0.9347(3) 0.3483(4)
H16_4 H 0.8443 0.9570 0.3686
C28_4 C 0.8401(3) 0.9490(3) 0.1919(4)
H17_4 H 0.596(4) 0.922(4) 0.639(3)
H18_4 H 0.576(4) 0.879(4) 0.702(6)
N2_4 N 0.8433(2) 0.9307(3) 0.6300(3)
O14_4 O 0.6052(2) 0.9087(3) 0.6915(3)
O15_4 O 0.7725(3) 0.6711(2) 0.9181(3)
O17_4 O 0.8004(2) 0.5677(2) 0.9454(2)
O21_4 O 0.8146(2) 0.5988(2) 0.6382(3)
C10_5 C 0.6396(4) 0.3041(3) 0.0220(4)
H6_5 H 0.6316 0.2985 0.0826
C13_5 C 0.6990(3) 0.4099(3) 0.0581(4)
O3_3 O 0.7340(2) 0.4571(2) 0.0294(3)
C1_5 C 0.7075(3) 0.3722(3) 0.4701(4)
C2_5 C 0.6944(3) 0.3550(3) 0.5663(4)
C3_5 C 0.6969(3) 0.2899(3) 0.5956(4)
H1_5 H 0.7057 0.2556 0.5560
C4_5 C 0.6860(4) 0.2770(3) 0.6852(4)
H2_4 H 0.6865 0.2336 0.7062
C5_5 C 0.6744(3) 0.3292(3) 0.7434(3)
C6_5 C 0.6722(3) 0.3929(3) 0.7059(4)
H3_5 H 0.6642 0.4283 0.7441
C7_5 C 0.6629(3) 0.3205(3) 0.8407(4)
C8_5 C 0.6293(4) 0.2648(3) 0.8724(4)
H4_4 H 0.6144 0.2327 0.8327
C9_5 C 0.6179(4) 0.2571(3) 0.9629(4)
H5_4 H 0.5955 0.2198 0.9835
C11_5 C 0.6733(3) 0.3599(3) 0.9926(4)
C12_5 C 0.6847(3) 0.3682(3) 0.9017(4)
H7_5 H 0.7070 0.4057 0.8814
C14_5 C 0.5064(3) 0.4633(3) 0.4953(4)
H8_5 H 0.672(4) 0.654(4) 0.611(3)
H9_5 H 0.629(4) 0.674(4) 0.548(6)
N1_5 N 0.6807(3) 0.4067(2) 0.6200(3)
O5_5 O 0.5663(2) 0.4452(2) 0.4895(3)
O6_5 O 0.4576(2) 0.4252(2) 0.4932(3)
O7_5 O 0.6587(3) 0.6448(2) 0.5585(3)
C15_5 C 0.4936(3) 0.5367(3) 0.5047(4)
O8_5 O 0.4337(2) 0.5548(2) 0.5105(3)
O9_5 O 0.5424(2) 0.5748(2) 0.5068(3)
C16_5 C 0.2925(3) 0.6278(3) 0.5299(4)
C17_5 C 0.3056(3) 0.6450(3) 0.4337(4)
C18_5 C 0.3031(3) 0.7101(3) 0.4044(4)
H10_5 H 0.2943 0.7444 0.4440
C19_5 C 0.3140(4) 0.7230(3) 0.3148(4)
H11_4 H 0.3135 0.7664 0.2938
C20_5 C 0.3256(3) 0.6708(3) 0.2566(3)
C21_5 C 0.3278(3) 0.6071(3) 0.2941(4)
H12_5 H 0.3358 0.5717 0.2559
C22_5 C 0.3371(3) 0.6795(3) 0.1593(4)
C23_5 C 0.3707(4) 0.7352(3) 0.1276(4)
H13_4 H 0.3856 0.7673 0.1673
C24_5 C 0.3821(4) 0.7429(3) 0.0371(4)
H14_4 H 0.4045 0.7802 0.0165
C26_5 C 0.3267(3) 0.6401(3) 0.0074(4)
C27_5 C 0.3153(3) 0.6318(3) 0.0983(4)
H16_5 H 0.2930 0.5943 0.1186
Eu2_2 Eu 0.347175(14) 0.477928(14) 0.466015(17)
H17_5 H 0.328(4) 0.346(4) 0.389(3)
H18_5 H 0.371(4) 0.326(4) 0.452(6)
N2_5 N 0.3193(3) 0.5933(2) 0.3800(3)
O10_3 O 0.2725(3) 0.6711(2) 0.5819(3)
O11_3 O 0.3004(2) 0.5677(2) 0.5546(2)
O14_5 O 0.3413(3) 0.3552(2) 0.4415(3)
Eu8_3 Eu 0.272072(14) 0.597175(14) 0.716015(17)
O16_3 O 0.4211(2) 0.4775(3) 0.3319(3)
O18_3 O 0.3177(2) 0.4496(2) 0.3046(2)
O19_3 O 0.7660(2) 0.5429(2) 0.5294(3)
O20_3 O 0.2340(2) 0.4571(2) 0.4706(3)
O22_3 O 0.3488(2) 0.4354(2) 0.6118(3)
C25_5 C 0.3604(4) 0.6959(3) 0.9780(4)
H15_5 H 0.3684 0.7015 0.9174
C28_5 C 0.3010(3) 0.5901(3) 0.9419(4)
O12_3 O 0.2660(2) 0.5429(2) 0.9706(3)
O13_3 O 0.3146(2) 0.5988(2) 0.8618(3)
Eu6_2 Eu 0.152825(14) 0.522072(14) 0.966015(17)
C15_6 C 0.0064(3) 0.4633(3) 0.0047(4)
O8_6 O 0.0663(2) 0.4452(2) 0.0105(3)
C16_6 C 0.2075(3) 0.3722(3) 0.0299(4)
O10_4 O 0.2275(3) 0.3289(2) 0.0819(3)
O11_4 O 0.1996(2) 0.4323(2) 0.0546(2)
Eu8_4 Eu 0.227928(14) 0.402825(14) 0.216015(17)
O22_4 O 0.1512(2) 0.5646(2) 0.1118(3)
O6_6 O 0.0424(2) 0.5748(2) 0.9932(3)
C17_6 C 0.1944(3) 0.3550(3) 0.9337(4)
C18_6 C 0.1969(3) 0.2899(3) 0.9044(4)
H10_6 H 0.2057 0.2556 0.9440
C19_6 C 0.1860(4) 0.2770(3) 0.8148(4)
H11_5 H 0.1865 0.2336 0.7938
C20_6 C 0.1744(3) 0.3292(3) 0.7566(3)
C21_6 C 0.1722(3) 0.3929(3) 0.7941(4)
H12_6 H 0.1642 0.4283 0.7559
C22_6 C 0.1629(3) 0.3205(3) 0.6593(4)
C23_6 C 0.1293(4) 0.2648(3) 0.6276(4)
H13_5 H 0.1144 0.2327 0.6673
C24_6 C 0.1179(4) 0.2571(3) 0.5371(4)
H14_5 H 0.0955 0.2198 0.5165
C25_6 C 0.1396(4) 0.3041(3) 0.4780(4)
H15_6 H 0.1316 0.2985 0.4174
C26_6 C 0.1733(3) 0.3599(3) 0.5074(4)
C27_6 C 0.1847(3) 0.3682(3) 0.5983(4)
H16_6 H 0.2070 0.4057 0.6186
C28_6 C 0.1990(3) 0.4099(3) 0.4419(4)
H17_6 H 0.172(4) 0.654(4) 0.889(3)
H18_6 H 0.129(4) 0.674(4) 0.952(6)
N2_6 N 0.1807(3) 0.4067(2) 0.8800(3)
O13_4 O 0.1854(2) 0.4012(2) 0.3618(3)
O14_6 O 0.1587(3) 0.6448(2) 0.9415(3)
O16_4 O 0.0789(2) 0.5225(3) 0.8319(3)
O18_4 O 0.1823(2) 0.5504(2) 0.8046(2)
C2_6 C 0.8056(3) 0.6450(3) 0.0663(4)
C3_6 C 0.8031(3) 0.7101(3) 0.0956(4)
H1_6 H 0.7943 0.7444 0.0560
C4_6 C 0.8140(4) 0.7230(3) 0.1852(4)
H2_5 H 0.8135 0.7664 0.2062
C5_6 C 0.8256(3) 0.6708(3) 0.2434(3)
C6_6 C 0.8278(3) 0.6071(3) 0.2059(4)
H3_6 H 0.8358 0.5717 0.2441
C7_6 C 0.8371(3) 0.6795(3) 0.3407(4)
C8_6 C 0.8707(4) 0.7352(3) 0.3724(4)
H4_5 H 0.8856 0.7673 0.3327
C9_6 C 0.8821(4) 0.7429(3) 0.4629(4)
H5_5 H 0.9045 0.7802 0.4835
C10_6 C 0.8604(4) 0.6959(3) 0.5220(4)
H6_6 H 0.8684 0.7015 0.5826
C11_6 C 0.8267(3) 0.6401(3) 0.4926(4)
C12_6 C 0.8153(3) 0.6318(3) 0.4017(4)
H7_6 H 0.7930 0.5943 0.3814
C13_6 C 0.8010(3) 0.5901(3) 0.5581(4)
H8_6 H 0.828(4) 0.346(4) 0.111(3)
H9_6 H 0.871(4) 0.326(4) 0.048(6)
N1_6 N 0.8193(3) 0.5933(2) 0.1200(3)
O7_6 O 0.8413(3) 0.3552(2) 0.0585(3)
O9_6 O 0.9576(2) 0.4252(2) 0.0068(3)
C1_6 C 0.7925(3) 0.6278(3) 0.9701(4)
C14_6 C 0.9936(3) 0.5367(3) 0.9953(4)
O5_6 O 0.9337(2) 0.5548(2) 0.9895(3)
O19_4 O 0.2071(2) 0.0160(2) 0.7794(3)
C7_7 C 0.4295(3) 0.9129(3) 0.0907(4)
C8_7 C 0.4852(3) 0.8793(4) 0.1224(4)
H4_6 H 0.5173 0.8644 0.0827
C9_7 C 0.4929(3) 0.8679(4) 0.2129(4)
H5_6 H 0.5302 0.8455 0.2335
C10_7 C 0.4459(3) 0.8896(4) 0.2720(4)
H6_7 H 0.4515 0.8816 0.3326
C11_7 C 0.3901(3) 0.9233(3) 0.2426(4)
C12_7 C 0.3818(3) 0.9347(3) 0.1517(4)
H7_7 H 0.3443 0.9570 0.1314
C13_7 C 0.3401(3) 0.9490(3) 0.3081(4)
O3_4 O 0.2929(2) 0.9840(2) 0.2794(3)
C1_7 C 0.3778(3) 0.9575(3) 0.7201(4)
C2_7 C 0.3950(3) 0.9444(3) 0.8163(4)
C3_7 C 0.4601(3) 0.9469(3) 0.8456(4)
H1_7 H 0.4944 0.9557 0.8060
C4_7 C 0.4730(3) 0.9360(4) 0.9352(4)
H2_6 H 0.5164 0.9365 0.9562
C5_7 C 0.4208(3) 0.9244(3) 0.9934(3)
C6_7 C 0.3571(3) 0.9222(3) 0.9559(4)
H3_7 H 0.3217 0.9142 0.9941
C14_7 C 0.2867(3) 0.7564(3) 0.7453(4)
H8_7 H 0.096(4) 0.922(4) 0.861(3)
H9_7 H 0.076(4) 0.879(4) 0.798(6)
N1_7 N 0.3433(2) 0.9307(3) 0.8700(3)
O5_7 O 0.3048(2) 0.8163(2) 0.7395(3)
O6_7 O 0.3248(2) 0.7076(2) 0.7432(3)
O7_7 O 0.1052(2) 0.9087(3) 0.8085(3)
C15_7 C 0.2133(3) 0.7436(3) 0.7547(4)
O8_7 O 0.1952(2) 0.6837(2) 0.7605(3)
O9_7 O 0.1752(2) 0.7924(2) 0.7568(3)
C16_7 C 0.1222(3) 0.5425(3) 0.7799(4)
C17_7 C 0.1050(3) 0.5556(3) 0.6837(4)
C18_7 C 0.0399(3) 0.5531(3) 0.6544(4)
H10_7 H 0.0056 0.5443 0.6940
C19_7 C 0.0270(3) 0.5640(4) 0.5648(4)
C20_7 C 0.0792(3) 0.5756(3) 0.5066(3)
C21_7 C 0.1429(3) 0.5778(3) 0.5441(4)
H12_7 H 0.1783 0.5858 0.5059
C22_7 C 0.0705(3) 0.5871(3) 0.4093(4)
C23_7 C 0.0148(3) 0.6207(4) 0.3776(4)
C24_7 C 0.0071(3) 0.6321(4) 0.2871(4)
C25_7 C 0.0541(3) 0.6104(4) 0.2280(4)
H15_7 H 0.0485 0.6184 0.1674
C26_7 C 0.1099(3) 0.5767(3) 0.2574(4)
C27_7 C 0.1182(3) 0.5653(3) 0.3483(4)
H16_7 H 0.1557 0.5430 0.3686
C28_7 C 0.1599(3) 0.5510(3) 0.1919(4)
H17_7 H 0.404(4) 0.578(4) 0.639(3)
H18_7 H 0.424(4) 0.621(4) 0.702(6)
N2_7 N 0.1567(2) 0.5693(3) 0.6300(3)
O12_4 O 0.2071(2) 0.5160(2) 0.2206(3)
O14_7 O 0.3948(2) 0.5913(3) 0.6915(3)
O20_4 O 0.2929(2) 0.4840(2) 0.7206(3)
C1_8 C 0.1222(3) 0.0425(3) 0.2201(4)
C2_8 C 0.1050(3) 0.0556(3) 0.3163(4)
C3_8 C 0.0399(3) 0.0531(3) 0.3456(4)
H1_8 H 0.0056 0.0443 0.3060
C4_8 C 0.0270(3) 0.0640(4) 0.4352(4)
C5_8 C 0.0792(3) 0.0756(3) 0.4934(3)
C6_8 C 0.1429(3) 0.0778(3) 0.4559(4)
H3_8 H 0.1783 0.0858 0.4941
C7_8 C 0.0705(3) 0.0871(3) 0.5907(4)
C8_8 C 0.0148(3) 0.1207(4) 0.6224(4)
C9_8 C 0.0071(3) 0.1321(4) 0.7129(4)
C10_8 C 0.0541(3) 0.1104(4) 0.7720(4)
H6_8 H 0.0485 0.1184 0.8326
C11_8 C 0.1099(3) 0.0767(3) 0.7426(4)
C12_8 C 0.1182(3) 0.0653(3) 0.6517(4)
H7_8 H 0.1557 0.0430 0.6314
C13_8 C 0.1599(3) 0.0510(3) 0.8081(4)
C14_8 C 0.2133(3) 0.2436(3) 0.2453(4)
H8_8 H 0.404(4) 0.078(4) 0.361(3)
H9_8 H 0.424(4) 0.121(4) 0.298(6)
N1_8 N 0.1567(2) 0.0693(3) 0.3700(3)
O5_8 O 0.1952(2) 0.1837(2) 0.2395(3)
O6_8 O 0.1752(2) 0.2924(2) 0.2432(3)
O7_8 O 0.3948(2) 0.0913(3) 0.3085(3)
C15_8 C 0.2867(3) 0.2564(3) 0.2547(4)
O8_8 O 0.3048(2) 0.3163(2) 0.2605(3)
O9_8 O 0.3248(2) 0.2076(2) 0.2568(3)
C16_8 C 0.3778(3) 0.4575(3) 0.2799(4)
C17_8 C 0.3950(3) 0.4444(3) 0.1837(4)
C18_8 C 0.4601(3) 0.4469(3) 0.1544(4)
H10_8 H 0.4944 0.4557 0.1940
C19_8 C 0.4730(3) 0.4360(4) 0.0648(4)
H11_6 H 0.5164 0.4365 0.0438
C20_8 C 0.4208(3) 0.4244(3) 0.0066(3)
C21_8 C 0.3571(3) 0.4222(3) 0.0441(4)
H12_8 H 0.3217 0.4142 0.0059
H17_8 H 0.096(4) 0.422(4) 0.139(3)
H18_8 H 0.076(4) 0.379(4) 0.202(6)
N2_8 N 0.3433(2) 0.4307(3) 0.1300(3)
O14_8 O 0.1052(2) 0.4087(3) 0.1915(3)
C22_8 C 0.4295(3) 0.4129(3) 0.9093(4)
C23_8 C 0.4852(3) 0.3793(4) 0.8776(4)
H13_6 H 0.5173 0.3644 0.9173
C24_8 C 0.4929(3) 0.3679(4) 0.7871(4)
H14_6 H 0.5302 0.3455 0.7665
C25_8 C 0.4459(3) 0.3896(4) 0.7280(4)
H15_8 H 0.4515 0.3816 0.6674
C26_8 C 0.3901(3) 0.4233(3) 0.7574(4)
C27_8 C 0.3818(3) 0.4347(3) 0.8483(4)
H16_8 H 0.3443 0.4570 0.8686
C28_8 C 0.3401(3) 0.4490(3) 0.6919(4)
H2_7 H 0.0164 0.4365 0.4562
H4_7 H 0.0173 0.3644 0.5827
H5_7 H 0.0302 0.3455 0.7335
H11_7 H 0.0164 0.9365 0.5438
H13_7 H 0.0173 0.8644 0.4173
H14_7 H 0.0302 0.8455 0.2665
H11_8 H 0.9836 0.5635 0.5438
H13_8 H 0.9827 0.6356 0.4173
H14_8 H 0.9698 0.6545 0.2665
H2_8 H 0.9836 0.0635 0.4562
H4_8 H 0.9827 0.1356 0.5827
H5_8 H 0.9698 0.1545 0.7335
loop_
_geom_bond_atom_site_label_1
_geom_bond_atom_site_label_2
_geom_bond_site_symmetry_1
_geom_bond_site_symmetry_2
H8 O7 1_555 1_555
H9 O7 1_555 1_555
O7 Eu1 1_555 1_555
O9 Eu1 1_555 1_555
O15 Eu1 1_555 1_555
O17 Eu1 1_555 1_555
O19 Eu1 1_555 1_555
C2 C3 1_555 1_555
C3 H1 1_555 1_555
C4 C3 1_555 1_555
H2 C4 1_555 1_555
C5 C4 1_555 1_555
C6 C5 1_555 1_555
H3 C6 1_555 1_555
C7 C5 1_555 1_555
C8 C7 1_555 1_555
H4 C8 1_555 1_555
C9 C8 1_555 1_555
H5 C9 1_555 1_555
C10 C9 1_555 1_555
H6 C10 1_555 1_555
C11 C10 1_555 1_555
C12 C7 1_555 1_555
H7 C12 1_555 1_555
C13 C11 1_555 1_555
N1 C2 1_555 1_555
O3 C13 1_555 1_555
O4 C13 1_555 1_555
Eu3 O3 1_555 1_555
Eu5 O4 1_555 1_555
C6 N1 1_555 1_555
C11 C12 1_555 1_555
C14 O5 1_555 1_555
O1 C1 1_555 1_555
O2 C1 1_555 1_555
Eu5 O1 1_555 1_555
O2 Eu5 1_555 1_555
O8 C15 1_555 1_555
O10 C16 1_555 1_555
O11 C16 1_555 1_555
Eu8 O10 1_555 1_555
O11 Eu8 1_555 1_555
C17 C18 1_555 1_555
C18 H10 1_555 1_555
C19 C18 1_555 1_555
H11 C19 1_555 1_555
C20 C19 1_555 1_555
C21 C20 1_555 1_555
H12 C21 1_555 1_555
C22 C20 1_555 1_555
C23 C22 1_555 1_555
H13 C23 1_555 1_555
C24 C23 1_555 1_555
H14 C24 1_555 1_555
C25 C24 1_555 1_555
H15 C25 1_555 1_555
C26 C25 1_555 1_555
C27 C22 1_555 1_555
H16 C27 1_555 1_555
C28 C26 1_555 1_555
N2 C17 1_555 1_555
O12 C28 1_555 1_555
O13 C28 1_555 1_555
Eu6 O12 1_555 1_555
Eu8 O13 1_555 1_555
C21 N2 1_555 1_555
C26 C27 1_555 1_555
Eu2 O6 1_555 1_555
H17 O14 1_555 1_555
H18 O14 1_555 1_555
O14 Eu2 1_555 1_555
O16 Eu2 1_555 1_555
O18 Eu2 1_555 1_555
O20 Eu2 1_555 1_555
H6_2 C10_2 1_555 1_555
O19 C13_2 1_555 1_555
O4_2 C13_2 1_555 1_555
Eu5_2 O4_2 1_555 1_555
C1_2 C2_2 1_555 1_555
C2_2 C3_2 1_555 1_555
C3_2 H1_2 1_555 1_555
C4_2 C3_2 1_555 1_555
H2_2 C4_2 1_555 1_555
C5_2 C4_2 1_555 1_555
C6_2 C5_2 1_555 1_555
H3_2 C6_2 1_555 1_555
C7_2 C5_2 1_555 1_555
C8_2 C7_2 1_555 1_555
H4_2 C8_2 1_555 1_555
C9_2 C8_2 1_555 1_555
H5_2 C9_2 1_555 1_555
C12_2 C7_2 1_555 1_555
H7_2 C12_2 1_555 1_555
C14_2 O5_2 1_555 1_555
N1_2 C2_2 1_555 1_555
O1_2 C1_2 1_555 1_555
O2_2 C1_2 1_555 1_555
O6_2 C14_2 1_555 1_555
Eu6 O6_2 1_555 1_555
H17_2 O14_2 1_555 1_555
H18_2 O14_2 1_555 1_555
O14_2 Eu6 1_555 1_555
Eu5_2 O1_2 1_555 1_555
O16_2 Eu6 1_555 1_555
O18_2 Eu6 1_555 1_555
O22_2 Eu6 1_555 1_555
C6_2 N1_2 1_555 1_555
C11_2 C12_2 1_555 1_555
O2_2 Eu5_2 1_555 1_555
H8_2 O7_2 1_555 1_555
H9_2 O7_2 1_555 1_555
O7_2 Eu3 1_555 1_555
O8_2 C15_2 1_555 1_555
O9_2 Eu3 1_555 1_555
C16_2 C17_2 1_555 1_555
C17_2 C18_2 1_555 1_555
C18_2 H10_2 1_555 1_555
C19_2 C18_2 1_555 1_555
H11_2 C19_2 1_555 1_555
C20_2 C19_2 1_555 1_555
C21_2 C20_2 1_555 1_555
H12_2 C21_2 1_555 1_555
C22_2 C20_2 1_555 1_555
C23_2 C22_2 1_555 1_555
H13_2 C23_2 1_555 1_555
C24_2 C23_2 1_555 1_555
H14_2 C24_2 1_555 1_555
C27_2 C22_2 1_555 1_555
H16_2 C27_2 1_555 1_555
N2_2 C17_2 1_555 1_555
O10_2 C16_2 1_555 1_555
O11_2 C16_2 1_555 1_555
Eu8_2 O10_2 1_555 1_555
O15_2 Eu3 1_555 1_555
O17_2 Eu3 1_555 1_555
O21_2 Eu3 1_555 1_555
C15_2 O9_2 1_555 1_555
C21_2 N2_2 1_555 1_555
C26_2 C27_2 1_555 1_555
O11_2 Eu8_2 1_555 1_555
H15_2 C25_2 1_555 1_555
O20 C28_2 1_555 1_555
O13_2 C28_2 1_555 1_555
Eu8_2 O13_2 1_555 1_555
C1_3 C2_3 1_555 1_555
C2_3 C3_3 1_555 1_555
C3_3 H1_3 1_555 1_555
C4_3 C3_3 1_555 1_555
C5_3 C4_3 1_555 1_555
C6_3 C5_3 1_555 1_555
H3_3 C6_3 1_555 1_555
C7_3 C5_3 1_555 1_555
C8_3 C7_3 1_555 1_555
C9_3 C8_3 1_555 1_555
C10_3 C9_3 1_555 1_555
H6_3 C10_3 1_555 1_555
C11_3 C10_3 1_555 1_555
C12_3 C7_3 1_555 1_555
H7_3 C12_3 1_555 1_555
C13_3 C11_3 1_555 1_555
C14_3 O5_3 1_555 1_555
Eu1_2 N1_3 1_555 1_555
H8_3 O7_3 1_555 1_555
H9_3 O7_3 1_555 1_555
N1_3 C2_3 1_555 1_555
O1_3 C1_3 1_555 1_555
O2_3 C1_3 1_555 1_555
O3_2 C13_3 1_555 1_555
O4_3 C13_3 1_555 1_555
O5_3 Eu1_2 1_555 1_555
O6_3 C14_3 1_555 1_555
O7_3 Eu1_2 1_555 1_555
C15_3 C14_3 1_555 1_555
O8_3 C15_3 1_555 1_555
O9_3 Eu1_2 1_555 1_555
C16_3 C17_3 1_555 1_555
C17_3 C18_3 1_555 1_555
C18_3 H10_3 1_555 1_555
C19_3 C18_3 1_555 1_555
H11_3 C19_3 1_555 1_555
C20_3 C19_3 1_555 1_555
C21_3 C20_3 1_555 1_555
H12_3 C21_3 1_555 1_555
Eu8 O6_3 1_555 1_555
H17_3 O14_3 1_555 1_555
H18_3 O14_3 1_555 1_555
N2_3 C17_3 1_555 1_555
O16_2 C16_3 1_555 1_555
O18_2 C16_3 1_555 1_555
O14_3 Eu8 1_555 1_555
Eu3_2 O3_2 1_555 1_555
Eu5_3 O1_3 1_555 1_555
O15_3 Eu1_2 1_555 1_555
O17_3 Eu1_2 1_555 1_555
O19_2 Eu1_2 1_555 1_555
O21_3 Eu1_2 1_555 1_555
C6_3 N1_3 1_555 1_555
C11_3 C12_3 1_555 1_555
Eu1_2 O2_3 1_555 1_555
O2_3 Eu5_3 1_555 1_555
C15_3 O9_3 1_555 1_555
O8_3 Eu8 1_555 1_555
C21_3 N2_3 1_555 1_555
Eu8 N2_3 1_555 1_555
Eu8 O18_2 1_555 1_555
C23_3 C22_3 1_555 1_555
H13_3 C23_3 1_555 1_555
C24_3 C23_3 1_555 1_555
H14_3 C24_3 1_555 1_555
C25_3 C24_3 1_555 1_555
H15_3 C25_3 1_555 1_555
C26_3 C25_3 1_555 1_555
C27_3 C22_3 1_555 1_555
H16_3 C27_3 1_555 1_555
C28_3 C26_3 1_555 1_555
O12_2 C28_3 1_555 1_555
O22_2 C28_3 1_555 1_555
C26_3 C27_3 1_555 1_555
C8_4 C7_4 1_555 1_555
H4_3 C8_4 1_555 1_555
C9_4 C8_4 1_555 1_555
H5_3 C9_4 1_555 1_555
C10_4 C9_4 1_555 1_555
H6_4 C10_4 1_555 1_555
C11_4 C10_4 1_555 1_555
C12_4 C7_4 1_555 1_555
H7_4 C12_4 1_555 1_555
C13_4 C11_4 1_555 1_555
O19_2 C13_4 1_555 1_555
O4_4 C13_4 1_555 1_555
Eu5_4 O4_4 1_555 1_555
C11_4 C12_4 1_555 1_555
C1_4 C2_4 1_555 1_555
C2_4 C3_4 1_555 1_555
C3_4 H1_4 1_555 1_555
C4_4 C3_4 1_555 1_555
H2_3 C4_4 1_555 1_555
C5_4 C4_4 1_555 1_555
C6_4 C5_4 1_555 1_555
H3_4 C6_4 1_555 1_555
C14_4 O5_4 1_555 1_555
Eu3_2 N1_4 1_555 1_555
H8_4 O7_4 1_555 1_555
H9_4 O7_4 1_555 1_555
N1_4 C2_4 1_555 1_555
O1_4 C1_4 1_555 1_555
O2_4 C1_4 1_555 1_555
O5_4 Eu3_2 1_555 1_555
O6_4 C14_4 1_555 1_555
O7_4 Eu3_2 1_555 1_555
C15_4 C14_4 1_555 1_555
O8_4 C15_4 1_555 1_555
O9_4 Eu3_2 1_555 1_555
C16_4 C17_4 1_555 1_555
C17_4 C18_4 1_555 1_555
C18_4 H10_4 1_555 1_555
C19_4 C18_4 1_555 1_555
C20_4 C19_4 1_555 1_555
C21_4 C20_4 1_555 1_555
H12_4 C21_4 1_555 1_555
C22_4 C20_4 1_555 1_555
C23_4 C22_4 1_555 1_555
C24_4 C23_4 1_555 1_555
C25_4 C24_4 1_555 1_555
H15_4 C25_4 1_555 1_555
C26_4 C25_4 1_555 1_555
C27_4 C22_4 1_555 1_555
H16_4 C27_4 1_555 1_555
C28_4 C26_4 1_555 1_555
Eu8_2 O6_4 1_555 1_555
H17_4 O14_4 1_555 1_555
H18_4 O14_4 1_555 1_555
N2_4 C17_4 1_555 1_555
O16 C16_4 1_555 1_555
O18 C16_4 1_555 1_555
O20_2 C28_4 1_555 1_555
O22 C28_4 1_555 1_555
O14_4 Eu8_2 1_555 1_555
Eu5_4 O1_4 1_555 1_555
O15_4 Eu3_2 1_555 1_555
O17_4 Eu3_2 1_555 1_555
O21_4 Eu3_2 1_555 1_555
C6_4 N1_4 1_555 1_555
Eu3_2 O2_4 1_555 1_555
O2_4 Eu5_4 1_555 1_555
C15_4 O9_4 1_555 1_555
O8_4 Eu8_2 1_555 1_555
C21_4 N2_4 1_555 1_555
C26_4 C27_4 1_555 1_555
Eu8_2 N2_4 1_555 1_555
Eu8_2 O18 1_555 1_555
H6_5 C10_5 1_555 1_555
O3_3 C13_5 1_555 1_555
O21_3 C13_5 1_555 1_555
Eu5_3 O3_3 1_555 1_555
C1_5 C2_5 1_555 1_555
C2_5 C3_5 1_555 1_555
C3_5 H1_5 1_555 1_555
C4_5 C3_5 1_555 1_555
H2_4 C4_5 1_555 1_555
C5_5 C4_5 1_555 1_555
C6_5 C5_5 1_555 1_555
H3_5 C6_5 1_555 1_555
C7_5 C5_5 1_555 1_555
C8_5 C7_5 1_555 1_555
H4_4 C8_5 1_555 1_555
C9_5 C8_5 1_555 1_555
H5_4 C9_5 1_555 1_555
C12_5 C7_5 1_555 1_555
H7_5 C12_5 1_555 1_555
C14_5 O5_5 1_555 1_555
Eu5_4 N1_5 1_555 1_555
H8_5 O7_5 1_555 1_555
H9_5 O7_5 1_555 1_555
N1_5 C2_5 1_555 1_555
O15_3 C1_5 1_555 1_555
O17_3 C1_5 1_555 1_555
O5_5 Eu5_4 1_555 1_555
O6_5 C14_5 1_555 1_555
O7_5 Eu5_4 1_555 1_555
C15_5 C14_5 1_555 1_555
O8_5 C15_5 1_555 1_555
O9_5 Eu5_4 1_555 1_555
C16_5 C17_5 1_555 1_555
C17_5 C18_5 1_555 1_555
C18_5 H10_5 1_555 1_555
C19_5 C18_5 1_555 1_555
H11_4 C19_5 1_555 1_555
C20_5 C19_5 1_555 1_555
C21_5 C20_5 1_555 1_555
H12_5 C21_5 1_555 1_555
C22_5 C20_5 1_555 1_555
C23_5 C22_5 1_555 1_555
H13_4 C23_5 1_555 1_555
C24_5 C23_5 1_555 1_555
H14_4 C24_5 1_555 1_555
C27_5 C22_5 1_555 1_555
H16_5 C27_5 1_555 1_555
Eu2_2 O6_5 1_555 1_555
H17_5 O14_5 1_555 1_555
H18_5 O14_5 1_555 1_555
N2_5 C17_5 1_555 1_555
O10_3 C16_5 1_555 1_555
O11_3 C16_5 1_555 1_555
O14_5 Eu2_2 1_555 1_555
Eu8_3 O10_3 1_555 1_555
O16_3 Eu2_2 1_555 1_555
O18_3 Eu2_2 1_555 1_555
O19_3 Eu5_4 1_555 1_555
O20_3 Eu2_2 1_555 1_555
O22_3 Eu2_2 1_555 1_555
C6_5 N1_5 1_555 1_555
C11_5 C12_5 1_555 1_555
Eu5_4 O17_3 1_555 1_555
C15_5 O9_5 1_555 1_555
O8_5 Eu2_2 1_555 1_555
C21_5 N2_5 1_555 1_555
C26_5 C27_5 1_555 1_555
Eu2_2 N2_5 1_555 1_555
Eu2_2 O11_3 1_555 1_555
O11_3 Eu8_3 1_555 1_555
H15_5 C25_5 1_555 1_555
O12_3 C28_5 1_555 1_555
O13_3 C28_5 1_555 1_555
Eu6_2 O12_3 1_555 1_555
Eu8_3 O13_3 1_555 1_555
O8_6 C15_6 1_555 1_555
O10_4 C16_6 1_555 1_555
O11_4 C16_6 1_555 1_555
Eu8_4 O10_4 1_555 1_555
O11_4 Eu8_4 1_555 1_555
C17_6 C18_6 1_555 1_555
C18_6 H10_6 1_555 1_555
C19_6 C18_6 1_555 1_555
H11_5 C19_6 1_555 1_555
C20_6 C19_6 1_555 1_555
C21_6 C20_6 1_555 1_555
H12_6 C21_6 1_555 1_555
C22_6 C20_6 1_555 1_555
C23_6 C22_6 1_555 1_555
H13_5 C23_6 1_555 1_555
C24_6 C23_6 1_555 1_555
H14_5 C24_6 1_555 1_555
C25_6 C24_6 1_555 1_555
H15_6 C25_6 1_555 1_555
C26_6 C25_6 1_555 1_555
C27_6 C22_6 1_555 1_555
H16_6 C27_6 1_555 1_555
C28_6 C26_6 1_555 1_555
Eu6_2 O6_6 1_555 1_555
H17_6 O14_6 1_555 1_555
H18_6 O14_6 1_555 1_555
N2_6 C17_6 1_555 1_555
O20_3 C28_6 1_555 1_555
O13_4 C28_6 1_555 1_555
O14_6 Eu6_2 1_555 1_555
Eu8_4 O13_4 1_555 1_555
O16_4 Eu6_2 1_555 1_555
O18_4 Eu6_2 1_555 1_555
C21_6 N2_6 1_555 1_555
C26_6 C27_6 1_555 1_555
Eu6_2 N2_6 1_555 1_555
C2_6 C3_6 1_555 1_555
C3_6 H1_6 1_555 1_555
C4_6 C3_6 1_555 1_555
H2_5 C4_6 1_555 1_555
C5_6 C4_6 1_555 1_555
C6_6 C5_6 1_555 1_555
H3_6 C6_6 1_555 1_555
C7_6 C5_6 1_555 1_555
C8_6 C7_6 1_555 1_555
H4_5 C8_6 1_555 1_555
C9_6 C8_6 1_555 1_555
H5_5 C9_6 1_555 1_555
C10_6 C9_6 1_555 1_555
H6_6 C10_6 1_555 1_555
C11_6 C10_6 1_555 1_555
C12_6 C7_6 1_555 1_555
H7_6 C12_6 1_555 1_555
C13_6 C11_6 1_555 1_555
Eu5_3 N1_6 1_555 1_555
H8_6 O7_6 1_555 1_555
H9_6 O7_6 1_555 1_555
N1_6 C2_6 1_555 1_555
O19_3 C13_6 1_555 1_555
O21_4 C13_6 1_555 1_555
O7_6 Eu5_3 1_555 1_555
O9_6 Eu5_3 1_555 1_555
C6_6 N1_6 1_555 1_555
C11_6 C12_6 1_555 1_555
C14_6 O5_6 1_555 1_555
O15_4 C1_6 1_555 1_555
O17_4 C1_6 1_555 1_555
C8_7 C7_7 1_555 1_555
H4_6 C8_7 1_555 1_555
C9_7 C8_7 1_555 1_555
H5_6 C9_7 1_555 1_555
C10_7 C9_7 1_555 1_555
H6_7 C10_7 1_555 1_555
C11_7 C10_7 1_555 1_555
C12_7 C7_7 1_555 1_555
H7_7 C12_7 1_555 1_555
C13_7 C11_7 1_555 1_555
O3_4 C13_7 1_555 1_555
O21_2 C13_7 1_555 1_555
C11_7 C12_7 1_555 1_555
C1_7 C2_7 1_555 1_555
C2_7 C3_7 1_555 1_555
C3_7 H1_7 1_555 1_555
C4_7 C3_7 1_555 1_555
H2_6 C4_7 1_555 1_555
C5_7 C4_7 1_555 1_555
C6_7 C5_7 1_555 1_555
H3_7 C6_7 1_555 1_555
C14_7 O5_7 1_555 1_555
Eu5 N1_7 1_555 1_555
H8_7 O7_7 1_555 1_555
H9_7 O7_7 1_555 1_555
N1_7 C2_7 1_555 1_555
O15_2 C1_7 1_555 1_555
O17_2 C1_7 1_555 1_555
O5_7 Eu5 1_555 1_555
O6_7 C14_7 1_555 1_555
O7_7 Eu5 1_555 1_555
C15_7 C14_7 1_555 1_555
O8_7 C15_7 1_555 1_555
O9_7 Eu5 1_555 1_555
C16_7 C17_7 1_555 1_555
C17_7 C18_7 1_555 1_555
C18_7 H10_7 1_555 1_555
C19_7 C18_7 1_555 1_555
C20_7 C19_7 1_555 1_555
C21_7 C20_7 1_555 1_555
H12_7 C21_7 1_555 1_555
C22_7 C20_7 1_555 1_555
C23_7 C22_7 1_555 1_555
C24_7 C23_7 1_555 1_555
C25_7 C24_7 1_555 1_555
H15_7 C25_7 1_555 1_555
C26_7 C25_7 1_555 1_555
C27_7 C22_7 1_555 1_555
H16_7 C27_7 1_555 1_555
C28_7 C26_7 1_555 1_555
Eu8_3 O6_7 1_555 1_555
H17_7 O14_7 1_555 1_555
H18_7 O14_7 1_555 1_555
N2_7 C17_7 1_555 1_555
O16_4 C16_7 1_555 1_555
O18_4 C16_7 1_555 1_555
O12_4 C28_7 1_555 1_555
O22_4 C28_7 1_555 1_555
O14_7 Eu8_3 1_555 1_555
Eu8_4 O12_4 1_555 1_555
O20_4 Eu8_3 1_555 1_555
C6_7 N1_7 1_555 1_555
Eu5 O17_2 1_555 1_555
C15_7 O9_7 1_555 1_555
O8_7 Eu8_3 1_555 1_555
C21_7 N2_7 1_555 1_555
C26_7 C27_7 1_555 1_555
Eu8_3 N2_7 1_555 1_555
Eu8_3 O18_4 1_555 1_555
C1_8 C2_8 1_555 1_555
C2_8 C3_8 1_555 1_555
C3_8 H1_8 1_555 1_555
C4_8 C3_8 1_555 1_555
C5_8 C4_8 1_555 1_555
C6_8 C5_8 1_555 1_555
H3_8 C6_8 1_555 1_555
C7_8 C5_8 1_555 1_555
C8_8 C7_8 1_555 1_555
C9_8 C8_8 1_555 1_555
C10_8 C9_8 1_555 1_555
H6_8 C10_8 1_555 1_555
C11_8 C10_8 1_555 1_555
C12_8 C7_8 1_555 1_555
H7_8 C12_8 1_555 1_555
C13_8 C11_8 1_555 1_555
C14_8 O5_8 1_555 1_555
Eu5_2 N1_8 1_555 1_555
H8_8 O7_8 1_555 1_555
H9_8 O7_8 1_555 1_555
N1_8 C2_8 1_555 1_555
O15 C1_8 1_555 1_555
O17 C1_8 1_555 1_555
O19_4 C13_8 1_555 1_555
O21 C13_8 1_555 1_555
O5_8 Eu5_2 1_555 1_555
O6_8 C14_8 1_555 1_555
O7_8 Eu5_2 1_555 1_555
C15_8 C14_8 1_555 1_555
O8_8 C15_8 1_555 1_555
O9_8 Eu5_2 1_555 1_555
C16_8 C17_8 1_555 1_555
C17_8 C18_8 1_555 1_555
C18_8 H10_8 1_555 1_555
C19_8 C18_8 1_555 1_555
H11_6 C19_8 1_555 1_555
C20_8 C19_8 1_555 1_555
C21_8 C20_8 1_555 1_555
H12_8 C21_8 1_555 1_555
Eu8_4 O6_8 1_555 1_555
H17_8 O14_8 1_555 1_555
H18_8 O14_8 1_555 1_555
N2_8 C17_8 1_555 1_555
O16_3 C16_8 1_555 1_555
O18_3 C16_8 1_555 1_555
O14_8 Eu8_4 1_555 1_555
C6_8 N1_8 1_555 1_555
C11_8 C12_8 1_555 1_555
Eu5_2 O17 1_555 1_555
C15_8 O9_8 1_555 1_555
O8_8 Eu8_4 1_555 1_555
C21_8 N2_8 1_555 1_555
Eu8_4 N2_8 1_555 1_555
Eu8_4 O18_3 1_555 1_555
C23_8 C22_8 1_555 1_555
H13_6 C23_8 1_555 1_555
C24_8 C23_8 1_555 1_555
H14_6 C24_8 1_555 1_555
C25_8 C24_8 1_555 1_555
H15_8 C25_8 1_555 1_555
C26_8 C25_8 1_555 1_555
C27_8 C22_8 1_555 1_555
H16_8 C27_8 1_555 1_555
C28_8 C26_8 1_555 1_555
O20_4 C28_8 1_555 1_555
O22_3 C28_8 1_555 1_555
C26_8 C27_8 1_555 1_555

#END
