
###############################################################################
#
# This file contains modified crystal structure data generated from the
# MOF subset of the Cambridge Structural Database (CSD) v543 
# hosted by the Cambridge Crystallographic Data Centre (CCDC).
#
# This work is licensed under the Creative Commons
# Attribution-NonCommercial-ShareAlike 4.0 International License.
# To view a copy of this license, visit
# http://creativecommons.org/licenses/by-nc-sa/4.0/
# or send a letter to
# Creative Commons, PO Box 1866, Mountain View, CA 94042, USA.
#
# CIF created using the CSD Python API on 29 September 2022
# The structure has been converted into the P1 space group
# The structure has a 3D framework
# The original CSD entry FIQWOU is in the tetragonal crystal system
# The framework has been calculated to contain at least 10.0% void space
# The void calculation uses a probe of radius 1.32A, grid spacing 0.4
#
###############################################################################

data_FIQWOU
_chemical_formula_moiety         '(C224 H144 N16 Nd16 O112)n'
_symmetry_cell_setting           triclinic
_symmetry_space_group_name_H-M   'P 1'
_symmetry_Int_Tables_number      1
_space_group_name_Hall           'P 1'
loop_
_symmetry_equiv_pos_site_id
_symmetry_equiv_pos_as_xyz
1 x,y,z
_cell_length_a                   20.2320(5)
_cell_length_b                   20.2320(5)
_cell_length_c                   15.0676(6)
_cell_angle_alpha                90
_cell_angle_beta                 90
_cell_angle_gamma                90
_cell_volume                     6167.68
loop_
_atom_site_label
_atom_site_type_symbol
_atom_site_fract_x
_atom_site_fract_y
_atom_site_fract_z
Nd3 Nd 0.346859(19) 0.52288(2) 0.03335(2)
C1 C 0.3783(4) 0.5420(4) 0.2201(5)
C2 C 0.3960(4) 0.5552(4) 0.3169(5)
C3 C 0.4600(4) 0.5536(4) 0.3454(5)
H1 H 0.4943 0.5452 0.3059
C4 C 0.4730(4) 0.5648(5) 0.4354(5)
H2 H 0.5162 0.5644 0.4565
C5 C 0.4209(4) 0.5765(4) 0.4926(5)
C6 C 0.3580(4) 0.5783(4) 0.4555(5)
H3 H 0.3228 0.5868 0.4935
C7 C 0.4292(4) 0.5871(4) 0.5890(5)
C8 C 0.4854(4) 0.6205(5) 0.6212(6)
H4 H 0.5177 0.6349 0.5818
C9 C 0.4928(4) 0.6318(5) 0.7103(6)
H5 H 0.5302 0.6540 0.7306
C10 C 0.4461(4) 0.6110(5) 0.7699(6)
H6 H 0.4517 0.6194 0.8301
C11 C 0.3908(4) 0.5777(4) 0.7411(5)
C12 C 0.3825(4) 0.5666(4) 0.6496(5)
H7 H 0.3447 0.5450 0.6296
C13 C 0.3409(4) 0.5524(4) 0.8064(5)
C14 C 0.5067(4) 0.5370(4) 0.0049(5)
N1 N 0.3442(3) 0.5689(3) 0.3705(4)
O1 O 0.3488(3) 0.5661(3) 0.8858(3)
O2 O 0.2937(3) 0.5175(3) 0.7775(4)
O3 O 0.4219(3) 0.5227(3) 0.1693(4)
O4 O 0.3190(3) 0.5500(3) 0.1962(3)
O5 O 0.4584(3) 0.5744(3) 0.0055(4)
O6 O 0.5665(3) 0.5543(3) 0.0112(4)
O7 O 0.3426(4) 0.6467(3) 0.0597(4)
H8 H 0.3375 0.6557 0.1173
H9 H 0.3087 0.6654 0.0309
N3 N 0.3189(3) 0.4058(3) 0.1205(4)
Nd4 Nd 0.22712(2) 0.596859(19) 0.28335(2)
Nd5 Nd 0.27288(2) 0.403141(19) 0.78335(2)
O16 O 0.6512(3) 0.4339(3) 0.1142(3)
O17 O 0.2325(3) 0.5437(3) 0.0275(4)
O20 O 0.7000(3) 0.5690(3) 0.0538(3)
C15 C 0.4933(4) 0.4630(4) 0.9951(5)
O8 O 0.5416(3) 0.4256(3) 0.9945(4)
O9 O 0.4335(3) 0.4457(3) 0.9888(4)
C16 C 0.6217(4) 0.4580(4) 0.7799(5)
C17 C 0.6040(4) 0.4448(4) 0.6831(5)
C18 C 0.5400(4) 0.4464(4) 0.6546(5)
H10 H 0.5057 0.4548 0.6941
C19 C 0.5270(4) 0.4352(5) 0.5646(5)
H11 H 0.4838 0.4356 0.5435
C20 C 0.5791(4) 0.4235(4) 0.5074(5)
C21 C 0.6420(4) 0.4217(4) 0.5445(5)
H12 H 0.6772 0.4132 0.5065
C22 C 0.5708(4) 0.4129(4) 0.4110(5)
C23 C 0.5146(4) 0.3795(5) 0.3788(6)
H13 H 0.4823 0.3651 0.4182
C24 C 0.5072(4) 0.3682(5) 0.2897(6)
H14 H 0.4698 0.3460 0.2694
C25 C 0.5539(4) 0.3890(5) 0.2301(6)
H15 H 0.5483 0.3806 0.1699
C26 C 0.6092(4) 0.4223(4) 0.2589(5)
C27 C 0.6175(4) 0.4334(4) 0.3504(5)
H16 H 0.6553 0.4550 0.3704
C28 C 0.6591(4) 0.4476(4) 0.1936(5)
N2 N 0.6558(3) 0.4311(3) 0.6295(4)
Nd2 Nd 0.653141(19) 0.47712(2) 0.96665(2)
O11 O 0.7063(3) 0.4825(3) 0.2225(4)
O12 O 0.5781(3) 0.4773(3) 0.8307(4)
O13 O 0.6810(3) 0.4500(3) 0.8038(3)
O14 O 0.6574(4) 0.3533(3) 0.9403(4)
H17 H 0.6625 0.3443 0.8827
H18 H 0.6913 0.3346 0.9691
N4 N 0.6811(3) 0.5942(3) 0.8795(4)
Nd7 Nd 0.77288(2) 0.403141(19) 0.71665(2)
Nd8 Nd 0.72712(2) 0.596859(19) 0.21665(2)
O18 O 0.7675(3) 0.4563(3) 0.9725(4)
O19 O 0.3000(3) 0.4310(3) 0.9462(3)
O18_2 O 0.2937(3) 0.0175(3) 0.2225(4)
Nd7_2 Nd 0.346859(19) 0.02288(2) 0.96665(2)
C10_2 C 0.1390(5) 0.6961(4) 0.0199(6)
H6_2 H 0.1306 0.7017 0.0801
C13_2 C 0.1976(4) 0.5909(4) 0.0564(5)
O1_2 O 0.1839(3) 0.5988(3) 0.1358(3)
C1_2 C 0.2080(4) 0.6283(4) 0.4701(5)
C2_2 C 0.1948(4) 0.6460(4) 0.5669(5)
C3_2 C 0.1964(4) 0.7100(4) 0.5954(5)
H1_2 H 0.2048 0.7443 0.5559
C4_2 C 0.1852(5) 0.7230(4) 0.6854(5)
H2_2 H 0.1856 0.7662 0.7065
C5_2 C 0.1735(4) 0.6709(4) 0.7426(5)
C6_2 C 0.1717(4) 0.6080(4) 0.7055(5)
H3_2 H 0.1632 0.5728 0.7435
C7_2 C 0.1629(4) 0.6792(4) 0.8390(5)
C8_2 C 0.1295(5) 0.7354(4) 0.8712(6)
H4_2 H 0.1151 0.7677 0.8318
C9_2 C 0.1182(5) 0.7428(4) 0.9603(6)
H5_2 H 0.0960 0.7802 0.9806
C11_2 C 0.1723(4) 0.6408(4) 0.9911(5)
C12_2 C 0.1834(4) 0.6325(4) 0.8996(5)
H7_2 H 0.2050 0.5947 0.8796
C14_2 C 0.2130(4) 0.7567(4) 0.2549(5)
N1_2 N 0.1811(3) 0.5942(3) 0.6205(4)
O3_2 O 0.2273(3) 0.6719(3) 0.4193(4)
O4_2 O 0.2000(3) 0.5690(3) 0.4462(3)
O5_2 O 0.1756(3) 0.7084(3) 0.2555(4)
O6_2 O 0.1957(3) 0.8165(3) 0.2612(4)
O7_2 O 0.1033(3) 0.5926(4) 0.3097(4)
H8_2 H 0.0943 0.5875 0.3673
H9_2 H 0.0846 0.5587 0.2809
C15_2 C 0.2870(4) 0.7433(4) 0.2451(5)
O8_2 O 0.3244(3) 0.7916(3) 0.2445(4)
O9_2 O 0.3043(3) 0.6835(3) 0.2388(4)
C16_2 C 0.2920(4) 0.8717(4) 0.0299(5)
Nd2_2 Nd 0.27288(2) 0.903141(19) 0.21665(2)
O12_2 O 0.2727(3) 0.8281(3) 0.0807(4)
O13_2 O 0.3000(3) 0.9310(3) 0.0538(3)
O14_2 O 0.3967(3) 0.9074(4) 0.1903(4)
H17_2 H 0.4057 0.9125 0.1327
H18_2 H 0.4154 0.9413 0.2191
N4_2 N 0.1558(3) 0.9311(3) 0.1295(4)
Nd4_2 Nd 0.153141(19) 0.47712(2) 0.53335(2)
O16_2 O 0.3161(3) 0.9012(3) 0.3642(3)
O17_2 O 0.2063(3) 0.4825(3) 0.2775(4)
O20_2 O 0.1810(3) 0.9500(3) 0.3038(3)
C17_2 C 0.3052(4) 0.8540(4) 0.9331(5)
C18_2 C 0.3036(4) 0.7900(4) 0.9046(5)
H10_2 H 0.2952 0.7557 0.9441
C19_2 C 0.3148(5) 0.7770(4) 0.8146(5)
H11_2 H 0.3144 0.7338 0.7935
C20_2 C 0.3265(4) 0.8291(4) 0.7574(5)
C21_2 C 0.3283(4) 0.8920(4) 0.7945(5)
H12_2 H 0.3368 0.9272 0.7565
C22_2 C 0.3371(4) 0.8208(4) 0.6610(5)
C23_2 C 0.3705(5) 0.7646(4) 0.6288(6)
H13_2 H 0.3849 0.7323 0.6682
C24_2 C 0.3818(5) 0.7572(4) 0.5397(6)
H14_2 H 0.4040 0.7198 0.5194
C25_2 C 0.3610(5) 0.8039(4) 0.4801(6)
H15_2 H 0.3694 0.7983 0.4199
C26_2 C 0.3277(4) 0.8592(4) 0.5089(5)
C27_2 C 0.3166(4) 0.8675(4) 0.6004(5)
H16_2 H 0.2950 0.9053 0.6204
C28_2 C 0.3024(4) 0.9091(4) 0.4436(5)
N2_2 N 0.3189(3) 0.9058(3) 0.8795(4)
O11_2 O 0.2675(3) 0.9563(3) 0.4725(4)
Nd8_2 Nd 0.153141(19) 0.97712(2) 0.46665(2)
N3_2 N 0.6811(3) 0.0942(3) 0.1205(4)
Nd5_2 Nd 0.72712(2) 0.096859(19) 0.78335(2)
O16_3 O 0.3488(3) 0.0661(3) 0.1142(3)
C15_3 C 0.5067(4) 0.0370(4) 0.9951(5)
O8_3 O 0.4584(3) 0.0744(3) 0.9945(4)
O9_3 O 0.5665(3) 0.0543(3) 0.9888(4)
C16_3 C 0.3783(4) 0.0420(4) 0.7799(5)
C17_3 C 0.3960(4) 0.0552(4) 0.6831(5)
C18_3 C 0.4600(4) 0.0536(4) 0.6546(5)
H10_3 H 0.4943 0.0452 0.6941
C19_3 C 0.4730(4) 0.0648(5) 0.5646(5)
H11_3 H 0.5162 0.0644 0.5435
C20_3 C 0.4209(4) 0.0765(4) 0.5074(5)
C21_3 C 0.3580(4) 0.0783(4) 0.5445(5)
H12_3 H 0.3228 0.0868 0.5065
C22_3 C 0.4292(4) 0.0871(4) 0.4110(5)
C23_3 C 0.4854(4) 0.1205(5) 0.3788(6)
H13_3 H 0.5177 0.1349 0.4182
C24_3 C 0.4928(4) 0.1318(5) 0.2897(6)
H14_3 H 0.5302 0.1540 0.2694
C25_3 C 0.4461(4) 0.1110(5) 0.2301(6)
H15_3 H 0.4517 0.1194 0.1699
C26_3 C 0.3908(4) 0.0777(4) 0.2589(5)
C27_3 C 0.3825(4) 0.0666(4) 0.3504(5)
H16_3 H 0.3447 0.0450 0.3704
C28_3 C 0.3409(4) 0.0524(4) 0.1936(5)
N2_3 N 0.3442(3) 0.0689(3) 0.6295(4)
O12_3 O 0.4219(3) 0.0227(3) 0.8307(4)
O13_3 O 0.3190(3) 0.0500(3) 0.8038(3)
O14_3 O 0.3426(4) 0.1467(3) 0.9403(4)
H17_3 H 0.3375 0.1557 0.8827
H18_3 H 0.3087 0.1654 0.9691
Nd7_3 Nd 0.22712(2) 0.096859(19) 0.71665(2)
O18_3 O 0.2325(3) 0.0437(3) 0.9725(4)
O19_2 O 0.7000(3) 0.0690(3) 0.9462(3)
Nd3_2 Nd 0.653141(19) 0.97712(2) 0.03335(2)
C1_3 C 0.6217(4) 0.9580(4) 0.2201(5)
C2_3 C 0.6040(4) 0.9448(4) 0.3169(5)
C3_3 C 0.5400(4) 0.9464(4) 0.3454(5)
H1_3 H 0.5057 0.9548 0.3059
C4_3 C 0.5270(4) 0.9352(5) 0.4354(5)
H2_3 H 0.4838 0.9356 0.4565
C5_3 C 0.5791(4) 0.9235(4) 0.4926(5)
C6_3 C 0.6420(4) 0.9217(4) 0.4555(5)
H3_3 H 0.6772 0.9132 0.4935
C7_3 C 0.5708(4) 0.9129(4) 0.5890(5)
C8_3 C 0.5146(4) 0.8795(5) 0.6212(6)
H4_3 H 0.4823 0.8651 0.5818
C9_3 C 0.5072(4) 0.8682(5) 0.7103(6)
H5_3 H 0.4698 0.8460 0.7306
C10_3 C 0.5539(4) 0.8890(5) 0.7699(6)
H6_3 H 0.5483 0.8806 0.8301
C11_3 C 0.6092(4) 0.9223(4) 0.7411(5)
C12_3 C 0.6175(4) 0.9334(4) 0.6496(5)
H7_3 H 0.6553 0.9550 0.6296
C13_3 C 0.6591(4) 0.9476(4) 0.8064(5)
C14_3 C 0.4933(4) 0.9630(4) 0.0049(5)
N1_3 N 0.6558(3) 0.9311(3) 0.3705(4)
O1_3 O 0.6512(3) 0.9339(3) 0.8858(3)
O2_2 O 0.7063(3) 0.9825(3) 0.7775(4)
O3_3 O 0.5781(3) 0.9773(3) 0.1693(4)
O4_3 O 0.6810(3) 0.9500(3) 0.1962(3)
O5_3 O 0.5416(3) 0.9256(3) 0.0055(4)
O6_3 O 0.4335(3) 0.9457(3) 0.0112(4)
O7_3 O 0.6574(4) 0.8533(3) 0.0597(4)
H8_3 H 0.6625 0.8443 0.1173
H9_3 H 0.6913 0.8346 0.0309
Nd4_3 Nd 0.77288(2) 0.903141(19) 0.28335(2)
O17_3 O 0.7675(3) 0.9563(3) 0.0275(4)
Nd4_4 Nd 0.846859(19) 0.02288(2) 0.53335(2)
O17_4 O 0.7937(3) 0.0175(3) 0.2775(4)
C10_4 C 0.8610(5) 0.8039(4) 0.0199(6)
H6_4 H 0.8694 0.7983 0.0801
C13_4 C 0.8024(4) 0.9091(4) 0.0564(5)
O1_4 O 0.8161(3) 0.9012(3) 0.1358(3)
C1_4 C 0.7920(4) 0.8717(4) 0.4701(5)
C2_4 C 0.8052(4) 0.8540(4) 0.5669(5)
C3_4 C 0.8036(4) 0.7900(4) 0.5954(5)
H1_4 H 0.7952 0.7557 0.5559
C4_4 C 0.8148(5) 0.7770(4) 0.6854(5)
H2_4 H 0.8144 0.7338 0.7065
C5_4 C 0.8265(4) 0.8291(4) 0.7426(5)
C6_4 C 0.8283(4) 0.8920(4) 0.7055(5)
H3_4 H 0.8368 0.9272 0.7435
C7_4 C 0.8371(4) 0.8208(4) 0.8390(5)
C8_4 C 0.8705(5) 0.7646(4) 0.8712(6)
H4_4 H 0.8849 0.7323 0.8318
C9_4 C 0.8818(5) 0.7572(4) 0.9603(6)
H5_4 H 0.9040 0.7198 0.9806
C11_4 C 0.8277(4) 0.8592(4) 0.9911(5)
C12_4 C 0.8166(4) 0.8675(4) 0.8996(5)
H7_4 H 0.7950 0.9053 0.8796
C14_4 C 0.7870(4) 0.7433(4) 0.2549(5)
N1_4 N 0.8189(3) 0.9058(3) 0.6205(4)
O3_4 O 0.7727(3) 0.8281(3) 0.4193(4)
O4_4 O 0.8000(3) 0.9310(3) 0.4462(3)
O5_4 O 0.8244(3) 0.7916(3) 0.2555(4)
O6_4 O 0.8043(3) 0.6835(3) 0.2612(4)
O7_4 O 0.8967(3) 0.9074(4) 0.3097(4)
H8_4 H 0.9057 0.9125 0.3673
H9_4 H 0.9154 0.9413 0.2809
C15_4 C 0.7130(4) 0.7567(4) 0.2451(5)
O8_4 O 0.6756(3) 0.7084(3) 0.2445(4)
O9_4 O 0.6957(3) 0.8165(3) 0.2388(4)
C16_4 C 0.7080(4) 0.6283(4) 0.0299(5)
O12_4 O 0.7273(3) 0.6719(3) 0.0807(4)
O14_4 O 0.6033(3) 0.5926(4) 0.1903(4)
H17_4 H 0.5943 0.5875 0.1327
H18_4 H 0.5846 0.5587 0.2191
N4_3 N 0.8442(3) 0.5689(3) 0.1295(4)
O16_4 O 0.6839(3) 0.5988(3) 0.3642(3)
O20_3 O 0.8190(3) 0.5500(3) 0.3038(3)
C17_4 C 0.6948(4) 0.6460(4) 0.9331(5)
C18_4 C 0.6964(4) 0.7100(4) 0.9046(5)
H10_4 H 0.7048 0.7443 0.9441
C19_4 C 0.6852(5) 0.7230(4) 0.8146(5)
H11_4 H 0.6856 0.7662 0.7935
C20_4 C 0.6735(4) 0.6709(4) 0.7574(5)
C21_4 C 0.6717(4) 0.6080(4) 0.7945(5)
H12_4 H 0.6632 0.5728 0.7565
C22_4 C 0.6629(4) 0.6792(4) 0.6610(5)
C23_4 C 0.6295(5) 0.7354(4) 0.6288(6)
H13_4 H 0.6151 0.7677 0.6682
C24_4 C 0.6182(5) 0.7428(4) 0.5397(6)
H14_4 H 0.5960 0.7802 0.5194
C25_4 C 0.6390(5) 0.6961(4) 0.4801(6)
H15_4 H 0.6306 0.7017 0.4199
C26_4 C 0.6723(4) 0.6408(4) 0.5089(5)
C27_4 C 0.6834(4) 0.6325(4) 0.6004(5)
H16_4 H 0.7050 0.5947 0.6204
C28_4 C 0.6976(4) 0.5909(4) 0.4436(5)
O11_3 O 0.7325(3) 0.5437(3) 0.4725(4)
Nd8_3 Nd 0.846859(19) 0.52288(2) 0.46665(2)
H2_5 H 0.0162 0.0644 0.9565
C14_5 C 0.0067(4) 0.0370(4) 0.5049(5)
O6_5 O 0.0665(3) 0.0543(3) 0.5112(4)
N4_4 N 0.1811(3) 0.0942(3) 0.3795(4)
O20_4 O 0.2000(3) 0.0690(3) 0.5538(3)
O8_5 O 0.0416(3) 0.9256(3) 0.4945(4)
C16_5 C 0.1217(4) 0.9580(4) 0.2799(5)
C17_5 C 0.1040(4) 0.9448(4) 0.1831(5)
C18_5 C 0.0400(4) 0.9464(4) 0.1546(5)
H10_5 H 0.0057 0.9548 0.1941
C19_5 C 0.0270(4) 0.9352(5) 0.0646(5)
C20_5 C 0.0791(4) 0.9235(4) 0.0074(5)
C21_5 C 0.1420(4) 0.9217(4) 0.0445(5)
H12_5 H 0.1772 0.9132 0.0065
O12_5 O 0.0781(3) 0.9773(3) 0.3307(4)
O14_5 O 0.1574(4) 0.8533(3) 0.4403(4)
H17_5 H 0.1625 0.8443 0.3827
H18_5 H 0.1913 0.8346 0.4691
O16_5 O 0.1512(3) 0.9339(3) 0.6142(3)
C22_5 C 0.0708(4) 0.9129(4) 0.9110(5)
C23_5 C 0.0146(4) 0.8795(5) 0.8788(6)
C24_5 C 0.0072(4) 0.8682(5) 0.7897(6)
C25_5 C 0.0539(4) 0.8890(5) 0.7301(6)
H15_5 H 0.0483 0.8806 0.6699
C26_5 C 0.1092(4) 0.9223(4) 0.7589(5)
C27_5 C 0.1175(4) 0.9334(4) 0.8504(5)
H16_5 H 0.1553 0.9550 0.8704
C28_5 C 0.1591(4) 0.9476(4) 0.6936(5)
O11_4 O 0.2063(3) 0.9825(3) 0.7225(4)
C7_5 C 0.9292(4) 0.0871(4) 0.0890(5)
C8_5 C 0.9854(4) 0.1205(5) 0.1212(6)
C9_5 C 0.9928(4) 0.1318(5) 0.2103(6)
C10_5 C 0.9461(4) 0.1110(5) 0.2699(6)
H6_5 H 0.9517 0.1194 0.3301
C11_5 C 0.8908(4) 0.0777(4) 0.2411(5)
C12_5 C 0.8825(4) 0.0666(4) 0.1496(5)
H7_5 H 0.8447 0.0450 0.1296
C13_5 C 0.8409(4) 0.0524(4) 0.3064(5)
O1_5 O 0.8488(3) 0.0661(3) 0.3858(3)
C1_5 C 0.8783(4) 0.0420(4) 0.7201(5)
C2_5 C 0.8960(4) 0.0552(4) 0.8169(5)
C3_5 C 0.9600(4) 0.0536(4) 0.8454(5)
H1_5 H 0.9943 0.0452 0.8059
C4_5 C 0.9730(4) 0.0648(5) 0.9354(5)
C5_5 C 0.9209(4) 0.0765(4) 0.9926(5)
C6_5 C 0.8580(4) 0.0783(4) 0.9555(5)
H3_5 H 0.8228 0.0868 0.9935
N1_5 N 0.8442(3) 0.0689(3) 0.8705(4)
O3_5 O 0.9219(3) 0.0227(3) 0.6693(4)
O4_5 O 0.8190(3) 0.0500(3) 0.6962(3)
O5_5 O 0.9584(3) 0.0744(3) 0.5055(4)
O7_5 O 0.8426(4) 0.1467(3) 0.5597(4)
H8_5 H 0.8375 0.1557 0.6173
H9_5 H 0.8087 0.1654 0.5309
O17_5 O 0.7325(3) 0.0437(3) 0.5275(4)
C15_5 C 0.9933(4) 0.9630(4) 0.4951(5)
O9_5 O 0.9335(3) 0.9457(3) 0.4888(4)
H11_5 H 0.9838 0.9356 0.0435
C2_6 C 0.6948(4) 0.1460(4) 0.0669(5)
C3_6 C 0.6964(4) 0.2100(4) 0.0954(5)
H1_6 H 0.7048 0.2443 0.0559
C4_6 C 0.6852(5) 0.2230(4) 0.1854(5)
H2_6 H 0.6856 0.2662 0.2065
C5_6 C 0.6735(4) 0.1709(4) 0.2426(5)
C6_6 C 0.6717(4) 0.1080(4) 0.2055(5)
H3_6 H 0.6632 0.0728 0.2435
C7_6 C 0.6629(4) 0.1792(4) 0.3390(5)
C8_6 C 0.6295(5) 0.2354(4) 0.3712(6)
H4_5 H 0.6151 0.2677 0.3318
C9_6 C 0.6182(5) 0.2428(4) 0.4603(6)
H5_5 H 0.5960 0.2802 0.4806
C10_6 C 0.6390(5) 0.1961(4) 0.5199(6)
H6_6 H 0.6306 0.2017 0.5801
C11_6 C 0.6723(4) 0.1408(4) 0.4911(5)
C12_6 C 0.6834(4) 0.1325(4) 0.3996(5)
H7_6 H 0.7050 0.0947 0.3796
C13_6 C 0.6976(4) 0.0909(4) 0.5564(5)
O1_6 O 0.6839(3) 0.0988(3) 0.6358(3)
C1_6 C 0.7080(4) 0.1283(4) 0.9701(5)
C14_6 C 0.7130(4) 0.2567(4) 0.7549(5)
O3_6 O 0.7273(3) 0.1719(3) 0.9193(4)
O5_6 O 0.6756(3) 0.2084(3) 0.7555(4)
O6_6 O 0.6957(3) 0.3165(3) 0.7612(4)
O7_6 O 0.6033(3) 0.0926(4) 0.8097(4)
H8_6 H 0.5943 0.0875 0.8673
H9_6 H 0.5846 0.0587 0.7809
C15_6 C 0.7870(4) 0.2433(4) 0.7451(5)
O8_6 O 0.8244(3) 0.2916(3) 0.7445(4)
O9_6 O 0.8043(3) 0.1835(3) 0.7388(4)
C16_6 C 0.7920(4) 0.3717(4) 0.5299(5)
C17_6 C 0.8052(4) 0.3540(4) 0.4331(5)
C18_6 C 0.8036(4) 0.2900(4) 0.4046(5)
H10_6 H 0.7952 0.2557 0.4441
C19_6 C 0.8148(5) 0.2770(4) 0.3146(5)
H11_6 H 0.8144 0.2338 0.2935
C20_6 C 0.8265(4) 0.3291(4) 0.2574(5)
C21_6 C 0.8283(4) 0.3920(4) 0.2945(5)
H12_6 H 0.8368 0.4272 0.2565
C22_6 C 0.8371(4) 0.3208(4) 0.1610(5)
C23_6 C 0.8705(5) 0.2646(4) 0.1288(6)
H13_5 H 0.8849 0.2323 0.1682
C24_6 C 0.8818(5) 0.2572(4) 0.0397(6)
H14_5 H 0.9040 0.2198 0.0194
C26_6 C 0.8277(4) 0.3592(4) 0.0089(5)
C27_6 C 0.8166(4) 0.3675(4) 0.1004(5)
H16_6 H 0.7950 0.4053 0.1204
N2_4 N 0.8189(3) 0.4058(3) 0.3795(4)
O12_6 O 0.7727(3) 0.3281(3) 0.5807(4)
O13_4 O 0.8000(3) 0.4310(3) 0.5538(3)
O14_6 O 0.8967(3) 0.4074(4) 0.6903(4)
H17_6 H 0.9057 0.4125 0.6327
H18_6 H 0.9154 0.4413 0.7191
O16_6 O 0.8161(3) 0.4012(3) 0.8642(3)
O18_4 O 0.7937(3) 0.5175(3) 0.7225(4)
C25_6 C 0.8610(5) 0.3039(4) 0.9801(6)
H15_6 H 0.8694 0.2983 0.9199
C28_6 C 0.8024(4) 0.4091(4) 0.9436(5)
C7_7 C 0.0708(4) 0.4129(4) 0.0890(5)
C8_7 C 0.0146(4) 0.3795(5) 0.1212(6)
C9_7 C 0.0072(4) 0.3682(5) 0.2103(6)
C10_7 C 0.0539(4) 0.3890(5) 0.2699(6)
H6_7 H 0.0483 0.3806 0.3301
C11_7 C 0.1092(4) 0.4223(4) 0.2411(5)
C12_7 C 0.1175(4) 0.4334(4) 0.1496(5)
H7_7 H 0.1553 0.4550 0.1296
C13_7 C 0.1591(4) 0.4476(4) 0.3064(5)
O1_7 O 0.1512(3) 0.4339(3) 0.3858(3)
C1_7 C 0.1217(4) 0.4580(4) 0.7201(5)
C2_7 C 0.1040(4) 0.4448(4) 0.8169(5)
C3_7 C 0.0400(4) 0.4464(4) 0.8454(5)
H1_7 H 0.0057 0.4548 0.8059
C4_7 C 0.0270(4) 0.4352(5) 0.9354(5)
C5_7 C 0.0791(4) 0.4235(4) 0.9926(5)
C6_7 C 0.1420(4) 0.4217(4) 0.9555(5)
H3_7 H 0.1772 0.4132 0.9935
N1_6 N 0.1558(3) 0.4311(3) 0.8705(4)
O3_7 O 0.0781(3) 0.4773(3) 0.6693(4)
O4_6 O 0.1810(3) 0.4500(3) 0.6962(3)
O5_7 O 0.0416(3) 0.4256(3) 0.5055(4)
O7_7 O 0.1574(4) 0.3533(3) 0.5597(4)
H8_7 H 0.1625 0.3443 0.6173
H9_7 H 0.1913 0.3346 0.5309
C15_7 C 0.0067(4) 0.5370(4) 0.4951(5)
O9_7 O 0.0665(3) 0.5543(3) 0.4888(4)
H11_7 H 0.0162 0.5644 0.0435
O17_6 O 0.2675(3) 0.4563(3) 0.5275(4)
H2_7 H 0.9838 0.4356 0.9565
C14_7 C 0.9933(4) 0.4630(4) 0.5049(5)
O6_7 O 0.9335(3) 0.4457(3) 0.5112(4)
O8_7 O 0.9584(3) 0.5744(3) 0.4945(4)
C16_7 C 0.8783(4) 0.5420(4) 0.2799(5)
C17_7 C 0.8960(4) 0.5552(4) 0.1831(5)
C18_7 C 0.9600(4) 0.5536(4) 0.1546(5)
H10_7 H 0.9943 0.5452 0.1941
C19_7 C 0.9730(4) 0.5648(5) 0.0646(5)
C20_7 C 0.9209(4) 0.5765(4) 0.0074(5)
C21_7 C 0.8580(4) 0.5783(4) 0.0445(5)
H12_7 H 0.8228 0.5868 0.0065
O12_7 O 0.9219(3) 0.5227(3) 0.3307(4)
O14_7 O 0.8426(4) 0.6467(3) 0.4403(4)
H17_7 H 0.8375 0.6557 0.3827
H18_7 H 0.8087 0.6654 0.4691
O16_7 O 0.8488(3) 0.5661(3) 0.6142(3)
C22_7 C 0.9292(4) 0.5871(4) 0.9110(5)
C23_7 C 0.9854(4) 0.6205(5) 0.8788(6)
C24_7 C 0.9928(4) 0.6318(5) 0.7897(6)
C25_7 C 0.9461(4) 0.6110(5) 0.7301(6)
H15_7 H 0.9517 0.6194 0.6699
C26_7 C 0.8908(4) 0.5777(4) 0.7589(5)
C27_7 C 0.8825(4) 0.5666(4) 0.8504(5)
H16_7 H 0.8447 0.5450 0.8704
C28_7 C 0.8409(4) 0.5524(4) 0.6936(5)
C2_8 C 0.3052(4) 0.3540(4) 0.0669(5)
C3_8 C 0.3036(4) 0.2900(4) 0.0954(5)
H1_8 H 0.2952 0.2557 0.0559
C4_8 C 0.3148(5) 0.2770(4) 0.1854(5)
H2_8 H 0.3144 0.2338 0.2065
C5_8 C 0.3265(4) 0.3291(4) 0.2426(5)
C6_8 C 0.3283(4) 0.3920(4) 0.2055(5)
H3_8 H 0.3368 0.4272 0.2435
C7_8 C 0.3371(4) 0.3208(4) 0.3390(5)
C8_8 C 0.3705(5) 0.2646(4) 0.3712(6)
H4_6 H 0.3849 0.2323 0.3318
C9_8 C 0.3818(5) 0.2572(4) 0.4603(6)
H5_6 H 0.4040 0.2198 0.4806
C10_8 C 0.3610(5) 0.3039(4) 0.5199(6)
H6_8 H 0.3694 0.2983 0.5801
C11_8 C 0.3277(4) 0.3592(4) 0.4911(5)
C12_8 C 0.3166(4) 0.3675(4) 0.3996(5)
H7_8 H 0.2950 0.4053 0.3796
C13_8 C 0.3024(4) 0.4091(4) 0.5564(5)
O1_8 O 0.3161(3) 0.4012(3) 0.6358(3)
C1_8 C 0.2920(4) 0.3717(4) 0.9701(5)
C14_8 C 0.2870(4) 0.2433(4) 0.7549(5)
O3_8 O 0.2727(3) 0.3281(3) 0.9193(4)
O5_8 O 0.3244(3) 0.2916(3) 0.7555(4)
O6_8 O 0.3043(3) 0.1835(3) 0.7612(4)
O7_8 O 0.3967(3) 0.4074(4) 0.8097(4)
H8_8 H 0.4057 0.4125 0.8673
H9_8 H 0.4154 0.4413 0.7809
C15_8 C 0.2130(4) 0.2567(4) 0.7451(5)
O8_8 O 0.1756(3) 0.2084(3) 0.7445(4)
O9_8 O 0.1957(3) 0.3165(3) 0.7388(4)
C16_8 C 0.2080(4) 0.1283(4) 0.5299(5)
C17_8 C 0.1948(4) 0.1460(4) 0.4331(5)
C18_8 C 0.1964(4) 0.2100(4) 0.4046(5)
H10_8 H 0.2048 0.2443 0.4441
C19_8 C 0.1852(5) 0.2230(4) 0.3146(5)
H11_8 H 0.1856 0.2662 0.2935
C20_8 C 0.1735(4) 0.1709(4) 0.2574(5)
C21_8 C 0.1717(4) 0.1080(4) 0.2945(5)
H12_8 H 0.1632 0.0728 0.2565
C22_8 C 0.1629(4) 0.1792(4) 0.1610(5)
C23_8 C 0.1295(5) 0.2354(4) 0.1288(6)
H13_6 H 0.1151 0.2677 0.1682
C24_8 C 0.1182(5) 0.2428(4) 0.0397(6)
H14_6 H 0.0960 0.2802 0.0194
C26_8 C 0.1723(4) 0.1408(4) 0.0089(5)
C27_8 C 0.1834(4) 0.1325(4) 0.1004(5)
H16_8 H 0.2050 0.0947 0.1204
O12_8 O 0.2273(3) 0.1719(3) 0.5807(4)
O14_8 O 0.1033(3) 0.0926(4) 0.6903(4)
H17_8 H 0.0943 0.0875 0.6327
H18_8 H 0.0846 0.0587 0.7191
O16_8 O 0.1839(3) 0.0988(3) 0.8642(3)
C25_8 C 0.1390(5) 0.1961(4) 0.9801(6)
H15_8 H 0.1306 0.2017 0.9199
C28_8 C 0.1976(4) 0.0909(4) 0.9436(5)
H4_7 H 0.0177 0.1349 0.0818
H5_7 H 0.0302 0.1540 0.2306
H13_7 H 0.9823 0.8651 0.9182
H14_7 H 0.9698 0.8460 0.7694
H13_8 H 0.0177 0.6349 0.9182
H14_8 H 0.0302 0.6540 0.7694
H4_8 H 0.9823 0.3651 0.0818
H5_8 H 0.9698 0.3460 0.2306
loop_
_geom_bond_atom_site_label_1
_geom_bond_atom_site_label_2
_geom_bond_site_symmetry_1
_geom_bond_site_symmetry_2
C1 C2 1_555 1_555
C2 C3 1_555 1_555
C3 H1 1_555 1_555
C4 C3 1_555 1_555
H2 C4 1_555 1_555
C5 C4 1_555 1_555
C6 C5 1_555 1_555
H3 C6 1_555 1_555
C7 C5 1_555 1_555
C8 C7 1_555 1_555
H4 C8 1_555 1_555
C9 C8 1_555 1_555
H5 C9 1_555 1_555
C10 C9 1_555 1_555
H6 C10 1_555 1_555
C11 C10 1_555 1_555
C12 C7 1_555 1_555
H7 C12 1_555 1_555
C13 C11 1_555 1_555
C14 O5 1_555 1_555
N1 C2 1_555 1_555
Nd3 O3 1_555 1_555
O1 C13 1_555 1_555
O2 C13 1_555 1_555
O3 C1 1_555 1_555
O4 C1 1_555 1_555
O5 Nd3 1_555 1_555
O6 C14 1_555 1_555
O7 Nd3 1_555 1_555
H8 O7 1_555 1_555
H9 O7 1_555 1_555
N3 Nd3 1_555 1_555
Nd4 N1 1_555 1_555
Nd5 O2 1_555 1_555
O17 Nd3 1_555 1_555
C6 N1 1_555 1_555
C11 C12 1_555 1_555
Nd3 O4 1_555 1_555
O4 Nd4 1_555 1_555
O8 C15 1_555 1_555
C16 C17 1_555 1_555
C17 C18 1_555 1_555
C18 H10 1_555 1_555
C19 C18 1_555 1_555
H11 C19 1_555 1_555
C20 C19 1_555 1_555
C21 C20 1_555 1_555
H12 C21 1_555 1_555
C22 C20 1_555 1_555
C23 C22 1_555 1_555
H13 C23 1_555 1_555
C24 C23 1_555 1_555
H14 C24 1_555 1_555
C25 C24 1_555 1_555
H15 C25 1_555 1_555
C26 C25 1_555 1_555
C27 C22 1_555 1_555
H16 C27 1_555 1_555
C28 C26 1_555 1_555
N2 C17 1_555 1_555
O16 C28 1_555 1_555
O11 C28 1_555 1_555
O12 C16 1_555 1_555
O13 C16 1_555 1_555
O14 Nd2 1_555 1_555
H17 O14 1_555 1_555
H18 O14 1_555 1_555
N4 Nd2 1_555 1_555
Nd7 N2 1_555 1_555
Nd8 O11 1_555 1_555
O18 Nd2 1_555 1_555
C15 O9 1_555 1_555
O8 Nd2 1_555 1_555
C21 N2 1_555 1_555
C26 C27 1_555 1_555
Nd2 O12 1_555 1_555
Nd2 O13 1_555 1_555
O13 Nd7 1_555 1_555
H6_2 C10_2 1_555 1_555
O1_2 C13_2 1_555 1_555
O17 C13_2 1_555 1_555
Nd4 O1_2 1_555 1_555
C1_2 C2_2 1_555 1_555
C2_2 C3_2 1_555 1_555
C3_2 H1_2 1_555 1_555
C4_2 C3_2 1_555 1_555
H2_2 C4_2 1_555 1_555
C5_2 C4_2 1_555 1_555
C6_2 C5_2 1_555 1_555
H3_2 C6_2 1_555 1_555
C7_2 C5_2 1_555 1_555
C8_2 C7_2 1_555 1_555
H4_2 C8_2 1_555 1_555
C9_2 C8_2 1_555 1_555
H5_2 C9_2 1_555 1_555
C12_2 C7_2 1_555 1_555
H7_2 C12_2 1_555 1_555
C14_2 O5_2 1_555 1_555
N1_2 C2_2 1_555 1_555
Nd4 O3_2 1_555 1_555
O3_2 C1_2 1_555 1_555
O4_2 C1_2 1_555 1_555
O5_2 Nd4 1_555 1_555
O6_2 C14_2 1_555 1_555
O7_2 Nd4 1_555 1_555
H8_2 O7_2 1_555 1_555
H9_2 O7_2 1_555 1_555
C15_2 C14_2 1_555 1_555
O8_2 C15_2 1_555 1_555
O9_2 Nd4 1_555 1_555
Nd2_2 O6_2 1_555 1_555
O12_2 C16_2 1_555 1_555
O13_2 C16_2 1_555 1_555
O14_2 Nd2_2 1_555 1_555
H17_2 O14_2 1_555 1_555
H18_2 O14_2 1_555 1_555
N4_2 Nd2_2 1_555 1_555
Nd4_2 N1_2 1_555 1_555
O16_2 Nd2_2 1_555 1_555
O17_2 Nd4 1_555 1_555
O20_2 Nd2_2 1_555 1_555
C6_2 N1_2 1_555 1_555
C11_2 C12_2 1_555 1_555
Nd4 O4_2 1_555 1_555
O4_2 Nd4_2 1_555 1_555
C15_2 O9_2 1_555 1_555
O8_2 Nd2_2 1_555 1_555
Nd2_2 O12_2 1_555 1_555
Nd2_2 O13_2 1_555 1_555
C17_2 C18_2 1_555 1_555
C18_2 H10_2 1_555 1_555
C19_2 C18_2 1_555 1_555
H11_2 C19_2 1_555 1_555
C20_2 C19_2 1_555 1_555
C21_2 C20_2 1_555 1_555
H12_2 C21_2 1_555 1_555
C22_2 C20_2 1_555 1_555
C23_2 C22_2 1_555 1_555
H13_2 C23_2 1_555 1_555
C24_2 C23_2 1_555 1_555
H14_2 C24_2 1_555 1_555
C25_2 C24_2 1_555 1_555
H15_2 C25_2 1_555 1_555
C26_2 C25_2 1_555 1_555
C27_2 C22_2 1_555 1_555
H16_2 C27_2 1_555 1_555
C28_2 C26_2 1_555 1_555
N2_2 C17_2 1_555 1_555
O16_2 C28_2 1_555 1_555
O11_2 C28_2 1_555 1_555
Nd8_2 O11_2 1_555 1_555
C21_2 N2_2 1_555 1_555
C26_2 C27_2 1_555 1_555
O8_3 C15_3 1_555 1_555
C16_3 C17_3 1_555 1_555
C17_3 C18_3 1_555 1_555
C18_3 H10_3 1_555 1_555
C19_3 C18_3 1_555 1_555
H11_3 C19_3 1_555 1_555
C20_3 C19_3 1_555 1_555
C21_3 C20_3 1_555 1_555
H12_3 C21_3 1_555 1_555
C22_3 C20_3 1_555 1_555
C23_3 C22_3 1_555 1_555
H13_3 C23_3 1_555 1_555
C24_3 C23_3 1_555 1_555
H14_3 C24_3 1_555 1_555
C25_3 C24_3 1_555 1_555
H15_3 C25_3 1_555 1_555
C26_3 C25_3 1_555 1_555
C27_3 C22_3 1_555 1_555
H16_3 C27_3 1_555 1_555
C28_3 C26_3 1_555 1_555
N2_3 C17_3 1_555 1_555
O16_3 C28_3 1_555 1_555
O18_2 C28_3 1_555 1_555
O12_3 C16_3 1_555 1_555
O13_3 C16_3 1_555 1_555
O14_3 Nd7_2 1_555 1_555
H17_3 O14_3 1_555 1_555
H18_3 O14_3 1_555 1_555
Nd7_3 N2_3 1_555 1_555
O18_3 Nd7_2 1_555 1_555
C15_3 O9_3 1_555 1_555
O8_3 Nd7_2 1_555 1_555
C21_3 N2_3 1_555 1_555
C26_3 C27_3 1_555 1_555
Nd7_2 O12_3 1_555 1_555
Nd7_2 O13_3 1_555 1_555
O13_3 Nd7_3 1_555 1_555
C1_3 C2_3 1_555 1_555
C2_3 C3_3 1_555 1_555
C3_3 H1_3 1_555 1_555
C4_3 C3_3 1_555 1_555
H2_3 C4_3 1_555 1_555
C5_3 C4_3 1_555 1_555
C6_3 C5_3 1_555 1_555
H3_3 C6_3 1_555 1_555
C7_3 C5_3 1_555 1_555
C8_3 C7_3 1_555 1_555
H4_3 C8_3 1_555 1_555
C9_3 C8_3 1_555 1_555
H5_3 C9_3 1_555 1_555
C10_3 C9_3 1_555 1_555
H6_3 C10_3 1_555 1_555
C11_3 C10_3 1_555 1_555
C12_3 C7_3 1_555 1_555
H7_3 C12_3 1_555 1_555
C13_3 C11_3 1_555 1_555
C14_3 O5_3 1_555 1_555
N1_3 C2_3 1_555 1_555
Nd3_2 O3_3 1_555 1_555
O1_3 C13_3 1_555 1_555
O2_2 C13_3 1_555 1_555
O3_3 C1_3 1_555 1_555
O4_3 C1_3 1_555 1_555
O5_3 Nd3_2 1_555 1_555
O6_3 C14_3 1_555 1_555
O7_3 Nd3_2 1_555 1_555
H8_3 O7_3 1_555 1_555
H9_3 O7_3 1_555 1_555
Nd4_3 N1_3 1_555 1_555
O17_3 Nd3_2 1_555 1_555
C6_3 N1_3 1_555 1_555
C11_3 C12_3 1_555 1_555
Nd3_2 O4_3 1_555 1_555
O4_3 Nd4_3 1_555 1_555
H6_4 C10_4 1_555 1_555
O1_4 C13_4 1_555 1_555
O17_3 C13_4 1_555 1_555
Nd4_3 O1_4 1_555 1_555
C1_4 C2_4 1_555 1_555
C2_4 C3_4 1_555 1_555
C3_4 H1_4 1_555 1_555
C4_4 C3_4 1_555 1_555
H2_4 C4_4 1_555 1_555
C5_4 C4_4 1_555 1_555
C6_4 C5_4 1_555 1_555
H3_4 C6_4 1_555 1_555
C7_4 C5_4 1_555 1_555
C8_4 C7_4 1_555 1_555
H4_4 C8_4 1_555 1_555
C9_4 C8_4 1_555 1_555
H5_4 C9_4 1_555 1_555
C12_4 C7_4 1_555 1_555
H7_4 C12_4 1_555 1_555
C14_4 O5_4 1_555 1_555
N1_4 C2_4 1_555 1_555
Nd4_3 O3_4 1_555 1_555
O3_4 C1_4 1_555 1_555
O4_4 C1_4 1_555 1_555
O5_4 Nd4_3 1_555 1_555
O6_4 C14_4 1_555 1_555
O7_4 Nd4_3 1_555 1_555
H8_4 O7_4 1_555 1_555
H9_4 O7_4 1_555 1_555
C15_4 C14_4 1_555 1_555
O8_4 C15_4 1_555 1_555
O9_4 Nd4_3 1_555 1_555
Nd8 O6_4 1_555 1_555
O12_4 C16_4 1_555 1_555
O20 C16_4 1_555 1_555
O14_4 Nd8 1_555 1_555
H17_4 O14_4 1_555 1_555
H18_4 O14_4 1_555 1_555
N4_3 Nd8 1_555 1_555
O16_4 Nd8 1_555 1_555
O20_3 Nd8 1_555 1_555
C6_4 N1_4 1_555 1_555
C11_4 C12_4 1_555 1_555
Nd4_3 O4_4 1_555 1_555
C15_4 O9_4 1_555 1_555
O8_4 Nd8 1_555 1_555
Nd8 O12_4 1_555 1_555
Nd8 O20 1_555 1_555
C17_4 C18_4 1_555 1_555
C18_4 H10_4 1_555 1_555
C19_4 C18_4 1_555 1_555
H11_4 C19_4 1_555 1_555
C20_4 C19_4 1_555 1_555
C21_4 C20_4 1_555 1_555
H12_4 C21_4 1_555 1_555
C22_4 C20_4 1_555 1_555
C23_4 C22_4 1_555 1_555
H13_4 C23_4 1_555 1_555
C24_4 C23_4 1_555 1_555
H14_4 C24_4 1_555 1_555
C25_4 C24_4 1_555 1_555
H15_4 C25_4 1_555 1_555
C26_4 C25_4 1_555 1_555
C27_4 C22_4 1_555 1_555
H16_4 C27_4 1_555 1_555
C28_4 C26_4 1_555 1_555
N4 C17_4 1_555 1_555
O16_4 C28_4 1_555 1_555
O11_3 C28_4 1_555 1_555
Nd8_3 O11_3 1_555 1_555
C21_4 N4 1_555 1_555
C26_4 C27_4 1_555 1_555
O6_5 C14_5 1_555 1_555
C16_5 C17_5 1_555 1_555
C17_5 C18_5 1_555 1_555
C18_5 H10_5 1_555 1_555
C19_5 C18_5 1_555 1_555
C20_5 C19_5 1_555 1_555
C21_5 C20_5 1_555 1_555
H12_5 C21_5 1_555 1_555
N4_2 C17_5 1_555 1_555
O12_5 C16_5 1_555 1_555
O20_2 C16_5 1_555 1_555
O14_5 Nd8_2 1_555 1_555
H17_5 O14_5 1_555 1_555
H18_5 O14_5 1_555 1_555
O16_5 Nd8_2 1_555 1_555
O8_5 Nd8_2 1_555 1_555
C21_5 N4_2 1_555 1_555
Nd8_2 O12_5 1_555 1_555
Nd8_2 O20_2 1_555 1_555
C23_5 C22_5 1_555 1_555
C24_5 C23_5 1_555 1_555
C25_5 C24_5 1_555 1_555
H15_5 C25_5 1_555 1_555
C26_5 C25_5 1_555 1_555
C27_5 C22_5 1_555 1_555
H16_5 C27_5 1_555 1_555
C28_5 C26_5 1_555 1_555
O16_5 C28_5 1_555 1_555
O11_4 C28_5 1_555 1_555
C26_5 C27_5 1_555 1_555
C8_5 C7_5 1_555 1_555
C9_5 C8_5 1_555 1_555
C10_5 C9_5 1_555 1_555
H6_5 C10_5 1_555 1_555
C11_5 C10_5 1_555 1_555
C12_5 C7_5 1_555 1_555
H7_5 C12_5 1_555 1_555
C13_5 C11_5 1_555 1_555
O1_5 C13_5 1_555 1_555
O17_4 C13_5 1_555 1_555
Nd4_4 O1_5 1_555 1_555
C11_5 C12_5 1_555 1_555
C1_5 C2_5 1_555 1_555
C2_5 C3_5 1_555 1_555
C3_5 H1_5 1_555 1_555
C4_5 C3_5 1_555 1_555
C5_5 C4_5 1_555 1_555
C6_5 C5_5 1_555 1_555
H3_5 C6_5 1_555 1_555
N1_5 C2_5 1_555 1_555
Nd4_4 O3_5 1_555 1_555
O3_5 C1_5 1_555 1_555
O4_5 C1_5 1_555 1_555
O5_5 Nd4_4 1_555 1_555
O7_5 Nd4_4 1_555 1_555
H8_5 O7_5 1_555 1_555
H9_5 O7_5 1_555 1_555
Nd5_2 N1_5 1_555 1_555
O17_5 Nd4_4 1_555 1_555
C6_5 N1_5 1_555 1_555
Nd4_4 O4_5 1_555 1_555
O4_5 Nd5_2 1_555 1_555
C15_5 O9_5 1_555 1_555
C2_6 C3_6 1_555 1_555
C3_6 H1_6 1_555 1_555
C4_6 C3_6 1_555 1_555
H2_6 C4_6 1_555 1_555
C5_6 C4_6 1_555 1_555
C6_6 C5_6 1_555 1_555
H3_6 C6_6 1_555 1_555
C7_6 C5_6 1_555 1_555
C8_6 C7_6 1_555 1_555
H4_5 C8_6 1_555 1_555
C9_6 C8_6 1_555 1_555
H5_5 C9_6 1_555 1_555
C10_6 C9_6 1_555 1_555
H6_6 C10_6 1_555 1_555
C11_6 C10_6 1_555 1_555
C12_6 C7_6 1_555 1_555
H7_6 C12_6 1_555 1_555
C13_6 C11_6 1_555 1_555
N3_2 C2_6 1_555 1_555
O1_6 C13_6 1_555 1_555
O17_5 C13_6 1_555 1_555
Nd5_2 O1_6 1_555 1_555
C6_6 N3_2 1_555 1_555
C11_6 C12_6 1_555 1_555
C14_6 O5_6 1_555 1_555
Nd5_2 O3_6 1_555 1_555
O3_6 C1_6 1_555 1_555
O19_2 C1_6 1_555 1_555
O5_6 Nd5_2 1_555 1_555
O6_6 C14_6 1_555 1_555
O7_6 Nd5_2 1_555 1_555
H8_6 O7_6 1_555 1_555
H9_6 O7_6 1_555 1_555
C15_6 C14_6 1_555 1_555
O8_6 C15_6 1_555 1_555
O9_6 Nd5_2 1_555 1_555
C16_6 C17_6 1_555 1_555
C17_6 C18_6 1_555 1_555
C18_6 H10_6 1_555 1_555
C19_6 C18_6 1_555 1_555
H11_6 C19_6 1_555 1_555
C20_6 C19_6 1_555 1_555
C21_6 C20_6 1_555 1_555
H12_6 C21_6 1_555 1_555
C22_6 C20_6 1_555 1_555
C23_6 C22_6 1_555 1_555
H13_5 C23_6 1_555 1_555
C24_6 C23_6 1_555 1_555
H14_5 C24_6 1_555 1_555
C27_6 C22_6 1_555 1_555
H16_6 C27_6 1_555 1_555
N2_4 C17_6 1_555 1_555
Nd7 O6_6 1_555 1_555
O12_6 C16_6 1_555 1_555
O13_4 C16_6 1_555 1_555
O14_6 Nd7 1_555 1_555
H17_6 O14_6 1_555 1_555
H18_6 O14_6 1_555 1_555
Nd8_3 N2_4 1_555 1_555
O16_6 Nd7 1_555 1_555
O18_4 Nd7 1_555 1_555
Nd5_2 O19_2 1_555 1_555
C15_6 O9_6 1_555 1_555
O8_6 Nd7 1_555 1_555
C21_6 N2_4 1_555 1_555
C26_6 C27_6 1_555 1_555
Nd7 O12_6 1_555 1_555
Nd7 O13_4 1_555 1_555
O13_4 Nd8_3 1_555 1_555
H15_6 C25_6 1_555 1_555
O16_6 C28_6 1_555 1_555
O18 C28_6 1_555 1_555
C8_7 C7_7 1_555 1_555
C9_7 C8_7 1_555 1_555
C10_7 C9_7 1_555 1_555
H6_7 C10_7 1_555 1_555
C11_7 C10_7 1_555 1_555
C12_7 C7_7 1_555 1_555
H7_7 C12_7 1_555 1_555
C13_7 C11_7 1_555 1_555
O1_7 C13_7 1_555 1_555
O17_2 C13_7 1_555 1_555
Nd4_2 O1_7 1_555 1_555
C11_7 C12_7 1_555 1_555
C1_7 C2_7 1_555 1_555
C2_7 C3_7 1_555 1_555
C3_7 H1_7 1_555 1_555
C4_7 C3_7 1_555 1_555
C5_7 C4_7 1_555 1_555
C6_7 C5_7 1_555 1_555
H3_7 C6_7 1_555 1_555
N1_6 C2_7 1_555 1_555
Nd4_2 O3_7 1_555 1_555
O3_7 C1_7 1_555 1_555
O4_6 C1_7 1_555 1_555
O5_7 Nd4_2 1_555 1_555
O7_7 Nd4_2 1_555 1_555
H8_7 O7_7 1_555 1_555
H9_7 O7_7 1_555 1_555
O9_7 Nd4_2 1_555 1_555
Nd5 N1_6 1_555 1_555
O17_6 Nd4_2 1_555 1_555
C6_7 N1_6 1_555 1_555
Nd4_2 O4_6 1_555 1_555
O4_6 Nd5 1_555 1_555
C15_7 O9_7 1_555 1_555
O6_7 C14_7 1_555 1_555
C16_7 C17_7 1_555 1_555
C17_7 C18_7 1_555 1_555
C18_7 H10_7 1_555 1_555
C19_7 C18_7 1_555 1_555
C20_7 C19_7 1_555 1_555
C21_7 C20_7 1_555 1_555
H12_7 C21_7 1_555 1_555
N4_3 C17_7 1_555 1_555
Nd8_3 O6_7 1_555 1_555
O12_7 C16_7 1_555 1_555
O20_3 C16_7 1_555 1_555
O14_7 Nd8_3 1_555 1_555
H17_7 O14_7 1_555 1_555
H18_7 O14_7 1_555 1_555
O16_7 Nd8_3 1_555 1_555
O8_7 Nd8_3 1_555 1_555
C21_7 N4_3 1_555 1_555
Nd8_3 O12_7 1_555 1_555
Nd8_3 O20_3 1_555 1_555
C23_7 C22_7 1_555 1_555
C24_7 C23_7 1_555 1_555
C25_7 C24_7 1_555 1_555
H15_7 C25_7 1_555 1_555
C26_7 C25_7 1_555 1_555
C27_7 C22_7 1_555 1_555
H16_7 C27_7 1_555 1_555
C28_7 C26_7 1_555 1_555
O16_7 C28_7 1_555 1_555
O18_4 C28_7 1_555 1_555
C26_7 C27_7 1_555 1_555
C2_8 C3_8 1_555 1_555
C3_8 H1_8 1_555 1_555
C4_8 C3_8 1_555 1_555
H2_8 C4_8 1_555 1_555
C5_8 C4_8 1_555 1_555
C6_8 C5_8 1_555 1_555
H3_8 C6_8 1_555 1_555
C7_8 C5_8 1_555 1_555
C8_8 C7_8 1_555 1_555
H4_6 C8_8 1_555 1_555
C9_8 C8_8 1_555 1_555
H5_6 C9_8 1_555 1_555
C10_8 C9_8 1_555 1_555
H6_8 C10_8 1_555 1_555
C11_8 C10_8 1_555 1_555
C12_8 C7_8 1_555 1_555
H7_8 C12_8 1_555 1_555
C13_8 C11_8 1_555 1_555
N3 C2_8 1_555 1_555
O1_8 C13_8 1_555 1_555
O17_6 C13_8 1_555 1_555
Nd5 O1_8 1_555 1_555
C6_8 N3 1_555 1_555
C11_8 C12_8 1_555 1_555
C14_8 O5_8 1_555 1_555
Nd5 O3_8 1_555 1_555
O3_8 C1_8 1_555 1_555
O19 C1_8 1_555 1_555
O5_8 Nd5 1_555 1_555
O6_8 C14_8 1_555 1_555
O7_8 Nd5 1_555 1_555
H8_8 O7_8 1_555 1_555
H9_8 O7_8 1_555 1_555
C15_8 C14_8 1_555 1_555
O8_8 C15_8 1_555 1_555
O9_8 Nd5 1_555 1_555
C16_8 C17_8 1_555 1_555
C17_8 C18_8 1_555 1_555
C18_8 H10_8 1_555 1_555
C19_8 C18_8 1_555 1_555
H11_8 C19_8 1_555 1_555
C20_8 C19_8 1_555 1_555
C21_8 C20_8 1_555 1_555
H12_8 C21_8 1_555 1_555
C22_8 C20_8 1_555 1_555
C23_8 C22_8 1_555 1_555
H13_6 C23_8 1_555 1_555
C24_8 C23_8 1_555 1_555
H14_6 C24_8 1_555 1_555
C27_8 C22_8 1_555 1_555
H16_8 C27_8 1_555 1_555
N4_4 C17_8 1_555 1_555
Nd7_3 O6_8 1_555 1_555
O12_8 C16_8 1_555 1_555
O20_4 C16_8 1_555 1_555
O14_8 Nd7_3 1_555 1_555
H17_8 O14_8 1_555 1_555
H18_8 O14_8 1_555 1_555
O16_8 Nd7_3 1_555 1_555
Nd5 O19 1_555 1_555
C15_8 O9_8 1_555 1_555
O8_8 Nd7_3 1_555 1_555
C21_8 N4_4 1_555 1_555
C26_8 C27_8 1_555 1_555
Nd7_3 O12_8 1_555 1_555
Nd7_3 O20_4 1_555 1_555
H15_8 C25_8 1_555 1_555
O16_8 C28_8 1_555 1_555
O18_3 C28_8 1_555 1_555

#END
