
###############################################################################
#
# This file contains modified crystal structure data generated from the
# MOF subset of the Cambridge Structural Database (CSD) v543 
# hosted by the Cambridge Crystallographic Data Centre (CCDC).
#
# This work is licensed under the Creative Commons
# Attribution-NonCommercial-ShareAlike 4.0 International License.
# To view a copy of this license, visit
# http://creativecommons.org/licenses/by-nc-sa/4.0/
# or send a letter to
# Creative Commons, PO Box 1866, Mountain View, CA 94042, USA.
#
# CIF created using the CSD Python API on 29 September 2022
# The structure has been converted into the P1 space group
# The structure has a 3D framework
# The original CSD entry FIQWIO is in the tetragonal crystal system
# The framework has been calculated to contain at least 10.0% void space
# The void calculation uses a probe of radius 1.32A, grid spacing 0.4
#
###############################################################################

data_FIQWIO
_chemical_formula_moiety         '(C224 H144 N16 O112 Pr16)n'
_symmetry_cell_setting           triclinic
_symmetry_space_group_name_H-M   'P 1'
_symmetry_Int_Tables_number      1
_space_group_name_Hall           'P 1'
loop_
_symmetry_equiv_pos_site_id
_symmetry_equiv_pos_as_xyz
1 x,y,z
_cell_length_a                   20.3321(3)
_cell_length_b                   20.3321(3)
_cell_length_c                   15.0989(3)
_cell_angle_alpha                90
_cell_angle_beta                 90
_cell_angle_gamma                90
_cell_volume                     6241.8
loop_
_atom_site_label
_atom_site_type_symbol
_atom_site_fract_x
_atom_site_fract_y
_atom_site_fract_z
O9 O 0.0414(3) 0.0742(4) 0.0055(5)
H10 H 0.164(5) 0.157(5) 0.114(2)
H11 H 0.130(4) 0.178(4) 0.056(7)
Pr2 Pr 0.15332(2) 0.02333(3) 0.03316(3)
O12 O 0.2679(3) 0.0442(3) 0.0268(4)
O13 O 0.1581(5) 0.1473(4) 0.0594(5)
O14 O 0.3173(4) 0.0987(4) 0.1346(4)
C25 C 0.3026(4) 0.0912(5) 0.0553(6)
C27 C 0.3609(6) 0.1963(5) 0.0189(6)
H17 H 0.3693 0.2016 0.0790
O18 O 0.1810(3) 0.0499(3) 0.1965(4)
O20 O 0.0777(3) 0.0230(4) 0.1700(4)
Pr8 Pr 0.27333(3) 0.09668(2) 0.28316(3)
O10 O 0.2999(3) 0.0690(3) 0.4465(4)
C16 C 0.2924(5) 0.1287(5) 0.4710(6)
N2 N 0.3192(4) 0.0945(4) 0.6203(5)
C17 C 0.3059(5) 0.1463(5) 0.5675(6)
C18 C 0.3036(5) 0.2102(5) 0.5958(6)
H12 H 0.2946 0.2443 0.5567
C19 C 0.3150(6) 0.2223(5) 0.6853(6)
H13 H 0.3156 0.2654 0.7061
C20 C 0.3255(5) 0.1716(5) 0.7424(6)
C21 C 0.3698(6) 0.2348(5) 0.8709(7)
H14 H 0.3837 0.2667 0.8310
O11 O 0.2730(4) 0.1723(3) 0.4200(4)
C22 C 0.3369(5) 0.1794(4) 0.8390(6)
C23 C 0.3274(5) 0.1416(5) 0.9905(6)
C24 C 0.3165(5) 0.1326(5) 0.8992(6)
H15 H 0.2954 0.0948 0.8794
C26 C 0.3822(6) 0.2435(5) 0.9600(7)
H16 H 0.4046 0.2805 0.9799
C28 C 0.3280(5) 0.1082(5) 0.7052(6)
H18 H 0.3365 0.0732 0.7432
O22 O 0.1513(4) 0.0673(4) 0.8846(4)
N4 N 0.1808(4) 0.9055(4) 0.1203(5)
C2 C 0.0072(5) 0.9632(5) 0.9952(6)
O2 O 0.0662(3) 0.9459(4) 0.9883(5)
O17 O 0.2001(3) 0.9310(3) 0.9465(4)
Pr6 Pr 0.34668(2) 0.97667(3) 0.53316(3)
C15 C 0.9928(5) 0.0368(5) 0.0048(6)
O8 O 0.9338(3) 0.0541(4) 0.0117(5)
O15 O 0.7999(3) 0.0690(3) 0.0535(4)
Pr3 Pr 0.65332(2) 0.02333(3) 0.46684(3)
N3 N 0.8192(4) 0.0945(4) 0.8797(5)
O1 O 0.7001(3) 0.9310(3) 0.5535(4)
C1 C 0.7076(5) 0.8713(5) 0.5290(6)
N1 N 0.6808(4) 0.9055(4) 0.3797(5)
C3 C 0.6941(5) 0.8537(5) 0.4325(6)
C4 C 0.6964(5) 0.7898(5) 0.4042(6)
H3 H 0.7054 0.7557 0.4433
C5 C 0.6850(6) 0.7777(5) 0.3147(6)
H4 H 0.6844 0.7346 0.2939
C6 C 0.6745(5) 0.8284(5) 0.2576(6)
C7 C 0.6302(6) 0.7652(5) 0.1291(7)
H5 H 0.6163 0.7333 0.1690
O3 O 0.7270(4) 0.8277(3) 0.5800(4)
C8 C 0.6631(5) 0.8206(4) 0.1610(6)
C9 C 0.6726(5) 0.8584(5) 0.0095(6)
C10 C 0.6835(5) 0.8674(5) 0.1008(6)
H6 H 0.7046 0.9052 0.1206
C12 C 0.6178(6) 0.7565(5) 0.0400(7)
H7 H 0.5954 0.7195 0.0201
C14 C 0.6720(5) 0.8918(5) 0.2948(6)
H9 H 0.6635 0.9268 0.2568
Pr5 Pr 0.72667(3) 0.90332(2) 0.71684(3)
O21 O 0.8487(4) 0.9327(4) 0.1154(4)
H1 H 0.836(5) 0.843(5) 0.886(2)
H2 H 0.870(4) 0.822(4) 0.944(7)
Pr1 Pr 0.84668(2) 0.97667(3) 0.96684(3)
O4 O 0.7321(3) 0.9558(3) 0.9732(4)
O5 O 0.9586(3) 0.9258(4) 0.9945(5)
O6 O 0.8419(5) 0.8527(4) 0.9406(5)
O7 O 0.6827(4) 0.9013(4) 0.8654(4)
C11 C 0.6974(4) 0.9088(5) 0.9447(6)
C13 C 0.6391(6) 0.8037(5) 0.9811(6)
H8 H 0.6307 0.7984 0.9210
O16 O 0.8190(3) 0.9501(3) 0.8035(4)
O19 O 0.9223(3) 0.9770(4) 0.8300(4)
C1_2 C 0.7924(5) 0.1287(5) 0.0290(6)
O3_2 O 0.7730(4) 0.1723(3) 0.0800(4)
Pr5_2 Pr 0.77333(3) 0.09668(2) 0.21684(3)
C2_2 C 0.4928(5) 0.0368(5) 0.4952(6)
H1_2 H 0.664(5) 0.157(5) 0.386(2)
H2_2 H 0.630(4) 0.178(4) 0.444(7)
C3_2 C 0.8059(5) 0.1463(5) 0.9325(6)
C4_2 C 0.8036(5) 0.2102(5) 0.9042(6)
H3_2 H 0.7946 0.2443 0.9433
C5_2 C 0.8150(6) 0.2223(5) 0.8147(6)
H4_2 H 0.8156 0.2654 0.7939
C6_2 C 0.8255(5) 0.1716(5) 0.7576(6)
O2_2 O 0.4338(3) 0.0541(4) 0.4883(5)
C7_2 C 0.8698(6) 0.2348(5) 0.6291(7)
H5_2 H 0.8837 0.2667 0.6690
O4_2 O 0.7679(3) 0.0442(3) 0.4732(4)
O5_2 O 0.5414(3) 0.0742(4) 0.4945(5)
O6_2 O 0.6581(5) 0.1473(4) 0.4406(5)
C8_2 C 0.8369(5) 0.1794(4) 0.6610(6)
C9_2 C 0.8274(5) 0.1416(5) 0.5095(6)
C10_2 C 0.8165(5) 0.1326(5) 0.6008(6)
H6_2 H 0.7954 0.0948 0.6206
O7_2 O 0.8173(4) 0.0987(4) 0.3654(4)
C11_2 C 0.8026(4) 0.0912(5) 0.4447(6)
C12_2 C 0.8822(6) 0.2435(5) 0.5400(7)
H7_2 H 0.9046 0.2805 0.5201
C13_2 C 0.8609(6) 0.1963(5) 0.4811(6)
H8_2 H 0.8693 0.2016 0.4210
C14_2 C 0.8280(5) 0.1082(5) 0.7948(6)
H9_2 H 0.8365 0.0732 0.7568
O16_2 O 0.6810(3) 0.0499(3) 0.3035(4)
O19_2 O 0.5777(3) 0.0230(4) 0.3300(4)
O21_2 O 0.6513(4) 0.0673(4) 0.6154(4)
C15_2 C 0.5072(5) 0.9632(5) 0.5048(6)
O8_2 O 0.5662(3) 0.9459(4) 0.5117(5)
O9_2 O 0.4586(3) 0.9258(4) 0.5055(5)
H10_2 H 0.336(5) 0.843(5) 0.614(2)
H11_2 H 0.370(4) 0.822(4) 0.556(7)
C17_2 C 0.1941(5) 0.8537(5) 0.0675(6)
C18_2 C 0.1964(5) 0.7898(5) 0.0958(6)
H12_2 H 0.2054 0.7557 0.0567
C19_2 C 0.1850(6) 0.7777(5) 0.1853(6)
H13_2 H 0.1844 0.7346 0.2061
C20_2 C 0.1745(5) 0.8284(5) 0.2424(6)
C21_2 C 0.1302(6) 0.7652(5) 0.3709(7)
H14_2 H 0.1163 0.7333 0.3310
O12_2 O 0.2321(3) 0.9558(3) 0.5268(4)
O13_2 O 0.3419(5) 0.8527(4) 0.5594(5)
C22_2 C 0.1631(5) 0.8206(4) 0.3390(6)
C23_2 C 0.1726(5) 0.8584(5) 0.4905(6)
C24_2 C 0.1835(5) 0.8674(5) 0.3992(6)
H15_2 H 0.2046 0.9052 0.3794
O14_2 O 0.1827(4) 0.9013(4) 0.6346(4)
C25_2 C 0.1974(4) 0.9088(5) 0.5553(6)
C26_2 C 0.1178(6) 0.7565(5) 0.4600(7)
H16_2 H 0.0954 0.7195 0.4799
C27_2 C 0.1391(6) 0.8037(5) 0.5189(6)
H17_2 H 0.1307 0.7984 0.5790
C28_2 C 0.1720(5) 0.8918(5) 0.2052(6)
H18_2 H 0.1635 0.9268 0.2432
O18_2 O 0.3190(3) 0.9501(3) 0.6965(4)
O20_2 O 0.4223(3) 0.9770(4) 0.6700(4)
Pr8_2 Pr 0.22667(3) 0.90332(2) 0.78316(3)
O22_2 O 0.3487(4) 0.9327(4) 0.3846(4)
C16_2 C 0.2076(5) 0.8713(5) 0.9710(6)
O11_2 O 0.2270(4) 0.8277(3) 0.9200(4)
C2_3 C 0.7868(5) 0.2572(5) 0.2452(6)
H1_3 H 0.907(5) 0.086(5) 0.136(2)
H2_3 H 0.928(4) 0.120(4) 0.194(7)
O2_3 O 0.8041(4) 0.3162(3) 0.2383(5)
O5_3 O 0.8242(4) 0.2086(3) 0.2445(5)
O6_3 O 0.8973(4) 0.0919(5) 0.1906(5)
C15_3 C 0.7132(5) 0.2428(5) 0.2548(6)
O8_3 O 0.6959(4) 0.1838(3) 0.2617(5)
O9_3 O 0.6758(4) 0.2914(3) 0.2555(5)
H10_3 H 0.593(5) 0.414(5) 0.364(2)
H11_3 H 0.572(4) 0.380(4) 0.306(7)
C21_3 C 0.5152(5) 0.6198(6) 0.1209(7)
H14_3 H 0.4833 0.6337 0.0810
Pr2_2 Pr 0.72667(3) 0.40332(2) 0.28316(3)
O12_3 O 0.7058(3) 0.5179(3) 0.2768(4)
O13_3 O 0.6027(4) 0.4081(5) 0.3094(5)
C22_3 C 0.5706(4) 0.5869(5) 0.0890(6)
C23_3 C 0.6084(5) 0.5774(5) 0.2405(6)
C24_3 C 0.6174(5) 0.5665(5) 0.1492(6)
H15_3 H 0.6552 0.5454 0.1294
O14_3 O 0.6513(4) 0.5673(4) 0.3846(4)
C25_3 C 0.6588(5) 0.5526(4) 0.3053(6)
C26_3 C 0.5065(5) 0.6322(6) 0.2100(7)
H16_3 H 0.4695 0.6546 0.2299
C27_3 C 0.5537(5) 0.6109(6) 0.2689(6)
H17_3 H 0.5484 0.6193 0.3290
O17_2 O 0.8190(3) 0.4501(3) 0.1965(4)
O18_3 O 0.7001(3) 0.4310(3) 0.4465(4)
N3_2 N 0.6555(4) 0.0692(4) 0.1297(5)
N4_2 N 0.8445(4) 0.4308(4) 0.3703(5)
O20_3 O 0.7270(4) 0.3277(3) 0.4200(4)
Pr8_3 Pr 0.65332(2) 0.52333(3) 0.53316(3)
O22_3 O 0.6827(4) 0.4013(4) 0.1346(4)
O10_2 O 0.6810(3) 0.5499(3) 0.6965(4)
C16_3 C 0.6213(5) 0.5424(5) 0.7210(6)
N2_2 N 0.6555(4) 0.5692(4) 0.8703(5)
C17_3 C 0.6037(5) 0.5559(5) 0.8175(6)
C18_3 C 0.5398(5) 0.5536(5) 0.8458(6)
H12_3 H 0.5057 0.5446 0.8067
C19_3 C 0.5277(5) 0.5650(6) 0.9353(6)
H13_3 H 0.4846 0.5656 0.9561
C20_3 C 0.5784(5) 0.5755(5) 0.9924(6)
O11_3 O 0.5777(3) 0.5230(4) 0.6700(4)
C28_3 C 0.6418(5) 0.5780(5) 0.9552(6)
H18_3 H 0.6768 0.5865 0.9932
Pr6_2 Pr 0.77333(3) 0.59668(2) 0.78316(3)
C1_3 C 0.8787(5) 0.9576(5) 0.7790(6)
N1_2 N 0.8445(4) 0.9308(4) 0.6297(5)
C3_3 C 0.8963(5) 0.9441(5) 0.6825(6)
C4_3 C 0.9602(5) 0.9464(5) 0.6542(6)
H3_3 H 0.9943 0.9554 0.6933
C5_3 C 0.9723(5) 0.9350(6) 0.5647(6)
C6_3 C 0.9216(5) 0.9245(5) 0.5076(6)
C7_3 C 0.9848(5) 0.8802(6) 0.3791(7)
O4_3 O 0.7942(3) 0.9821(3) 0.2232(4)
C8_3 C 0.9294(4) 0.9131(5) 0.4110(6)
C9_3 C 0.8916(5) 0.9226(5) 0.2595(6)
C10_3 C 0.8826(5) 0.9335(5) 0.3508(6)
H6_3 H 0.8448 0.9546 0.3706
C11_3 C 0.8412(5) 0.9474(4) 0.1947(6)
C12_3 C 0.9935(5) 0.8678(6) 0.2900(7)
C13_3 C 0.9463(5) 0.8891(6) 0.2311(6)
H8_3 H 0.9516 0.8807 0.1710
C14_3 C 0.8582(5) 0.9220(5) 0.5448(6)
H9_3 H 0.8232 0.9135 0.5068
C1_4 C 0.6213(5) 0.0424(5) 0.2790(6)
C3_4 C 0.6037(5) 0.0559(5) 0.1825(6)
C4_4 C 0.5398(5) 0.0536(5) 0.1542(6)
H3_4 H 0.5057 0.0446 0.1933
C5_4 C 0.5277(5) 0.0650(6) 0.0647(6)
H4_3 H 0.4846 0.0656 0.0439
C6_4 C 0.5784(5) 0.0755(5) 0.0076(6)
C14_4 C 0.6418(5) 0.0780(5) 0.0448(6)
H9_4 H 0.6768 0.0865 0.0068
C7_4 C 0.5152(5) 0.1198(6) 0.8791(7)
H5_3 H 0.4833 0.1337 0.9190
O4_4 O 0.7058(3) 0.0179(3) 0.7232(4)
C8_4 C 0.5706(4) 0.0869(5) 0.9110(6)
C9_4 C 0.6084(5) 0.0774(5) 0.7595(6)
C10_4 C 0.6174(5) 0.0665(5) 0.8508(6)
H6_4 H 0.6552 0.0454 0.8706
C11_4 C 0.6588(5) 0.0526(4) 0.6947(6)
C12_4 C 0.5065(5) 0.1322(6) 0.7900(7)
H7_3 H 0.4695 0.1546 0.7701
C13_4 C 0.5537(5) 0.1109(6) 0.7311(6)
H8_4 H 0.5484 0.1193 0.6710
Pr8_4 Pr 0.84668(2) 0.47667(3) 0.03316(3)
C2_4 C 0.7132(5) 0.7428(5) 0.7452(6)
H1_4 H 0.593(5) 0.914(5) 0.636(2)
H2_4 H 0.572(4) 0.880(4) 0.694(7)
O2_4 O 0.6959(4) 0.6838(3) 0.7383(5)
O5_4 O 0.6758(4) 0.7914(3) 0.7445(5)
O6_4 O 0.6027(4) 0.9081(5) 0.6906(5)
C15_4 C 0.7868(5) 0.7572(5) 0.7548(6)
O8_4 O 0.8041(4) 0.8162(3) 0.7617(5)
O9_4 O 0.8242(4) 0.7086(3) 0.7555(5)
C16_4 C 0.8787(5) 0.4576(5) 0.2210(6)
H10_4 H 0.907(5) 0.586(5) 0.864(2)
H11_4 H 0.928(4) 0.620(4) 0.806(7)
C17_4 C 0.8963(5) 0.4441(5) 0.3175(6)
C18_4 C 0.9602(5) 0.4464(5) 0.3458(6)
H12_4 H 0.9943 0.4554 0.3067
C19_4 C 0.9723(5) 0.4350(6) 0.4353(6)
C20_4 C 0.9216(5) 0.4245(5) 0.4924(6)
C21_4 C 0.9848(5) 0.3802(6) 0.6209(7)
O11_4 O 0.9223(3) 0.4770(4) 0.1700(4)
O12_4 O 0.7942(3) 0.4821(3) 0.7768(4)
O13_4 O 0.8973(4) 0.5919(5) 0.8094(5)
C22_4 C 0.9294(4) 0.4131(5) 0.5890(6)
C23_4 C 0.8916(5) 0.4226(5) 0.7405(6)
C24_4 C 0.8826(5) 0.4335(5) 0.6492(6)
H15_4 H 0.8448 0.4546 0.6294
O14_4 O 0.8487(4) 0.4327(4) 0.8846(4)
C25_4 C 0.8412(5) 0.4474(4) 0.8053(6)
C26_4 C 0.9935(5) 0.3678(6) 0.7100(7)
C27_4 C 0.9463(5) 0.3891(6) 0.7689(6)
H17_4 H 0.9516 0.3807 0.8290
C28_4 C 0.8582(5) 0.4220(5) 0.4552(6)
H18_4 H 0.8232 0.4135 0.4932
O18_4 O 0.7999(3) 0.5690(3) 0.9465(4)
O20_4 O 0.7730(4) 0.6723(3) 0.9200(4)
O22_4 O 0.8173(4) 0.5987(4) 0.6346(4)
O1_2 O 0.2001(3) 0.4310(3) 0.0535(4)
C1_5 C 0.2076(5) 0.3713(5) 0.0290(6)
O3_3 O 0.2270(4) 0.3277(3) 0.0800(4)
Pr5_3 Pr 0.22667(3) 0.40332(2) 0.21684(3)
C2_5 C 0.5072(5) 0.4632(5) 0.4952(6)
H1_5 H 0.336(5) 0.343(5) 0.386(2)
H2_5 H 0.370(4) 0.322(4) 0.444(7)
N1_3 N 0.1808(4) 0.4055(4) 0.8797(5)
C3_5 C 0.1941(5) 0.3537(5) 0.9325(6)
C4_5 C 0.1964(5) 0.2898(5) 0.9042(6)
H3_5 H 0.2054 0.2557 0.9433
C5_5 C 0.1850(6) 0.2777(5) 0.8147(6)
H4_4 H 0.1844 0.2346 0.7939
C6_5 C 0.1745(5) 0.3284(5) 0.7576(6)
O2_5 O 0.5662(3) 0.4459(4) 0.4883(5)
C7_5 C 0.1302(6) 0.2652(5) 0.6291(7)
H5_4 H 0.1163 0.2333 0.6690
Pr1_2 Pr 0.34668(2) 0.47667(3) 0.46684(3)
O4_5 O 0.2321(3) 0.4558(3) 0.4732(4)
O5_5 O 0.4586(3) 0.4258(4) 0.4945(5)
O6_5 O 0.3419(5) 0.3527(4) 0.4406(5)
C8_5 C 0.1631(5) 0.3206(4) 0.6610(6)
C9_5 C 0.1726(5) 0.3584(5) 0.5095(6)
C10_5 C 0.1835(5) 0.3674(5) 0.6008(6)
H6_5 H 0.2046 0.4052 0.6206
O7_3 O 0.1827(4) 0.4013(4) 0.3654(4)
C11_5 C 0.1974(4) 0.4088(5) 0.4447(6)
C12_5 C 0.1178(6) 0.2565(5) 0.5400(7)
H7_4 H 0.0954 0.2195 0.5201
C13_5 C 0.1391(6) 0.3037(5) 0.4811(6)
H8_5 H 0.1307 0.2984 0.4210
C14_5 C 0.1720(5) 0.3918(5) 0.7948(6)
H9_5 H 0.1635 0.4268 0.7568
C15_5 C 0.4928(5) 0.5368(5) 0.5048(6)
O8_5 O 0.4338(3) 0.5541(4) 0.5117(5)
O9_5 O 0.5414(3) 0.5742(4) 0.5055(5)
H10_5 H 0.664(5) 0.657(5) 0.614(2)
H11_5 H 0.630(4) 0.678(4) 0.556(7)
N2_3 N 0.8192(4) 0.5945(4) 0.1203(5)
C17_5 C 0.8059(5) 0.6463(5) 0.0675(6)
C18_5 C 0.8036(5) 0.7102(5) 0.0958(6)
H12_5 H 0.7946 0.7443 0.0567
C19_5 C 0.8150(6) 0.7223(5) 0.1853(6)
H13_4 H 0.8156 0.7654 0.2061
C20_5 C 0.8255(5) 0.6716(5) 0.2424(6)
C21_5 C 0.8698(6) 0.7348(5) 0.3709(7)
H14_4 H 0.8837 0.7667 0.3310
O12_5 O 0.7679(3) 0.5442(3) 0.5268(4)
O13_5 O 0.6581(5) 0.6473(4) 0.5594(5)
C22_5 C 0.8369(5) 0.6794(4) 0.3390(6)
C23_5 C 0.8274(5) 0.6416(5) 0.4905(6)
C24_5 C 0.8165(5) 0.6326(5) 0.3992(6)
H15_5 H 0.7954 0.5948 0.3794
C25_5 C 0.8026(4) 0.5912(5) 0.5553(6)
C26_5 C 0.8822(6) 0.7435(5) 0.4600(7)
H16_4 H 0.9046 0.7805 0.4799
C27_5 C 0.8609(6) 0.6963(5) 0.5189(6)
H17_5 H 0.8693 0.7016 0.5790
C28_5 C 0.8280(5) 0.6082(5) 0.2052(6)
H18_5 H 0.8365 0.5732 0.2432
O15_2 O 0.2999(3) 0.5690(3) 0.5535(4)
O16_3 O 0.3190(3) 0.4501(3) 0.3035(4)
N3_3 N 0.3192(4) 0.5945(4) 0.3797(5)
N4_3 N 0.6808(4) 0.4055(4) 0.6203(5)
O19_3 O 0.4223(3) 0.4770(4) 0.3300(4)
Pr3_2 Pr 0.15332(2) 0.52333(3) 0.96684(3)
O21_3 O 0.3487(4) 0.4327(4) 0.6154(4)
C16_5 C 0.7924(5) 0.6287(5) 0.9710(6)
C1_6 C 0.2924(5) 0.6287(5) 0.5290(6)
C3_6 C 0.3059(5) 0.6463(5) 0.4325(6)
C4_6 C 0.3036(5) 0.7102(5) 0.4042(6)
H3_6 H 0.2946 0.7443 0.4433
C5_6 C 0.3150(6) 0.7223(5) 0.3147(6)
H4_5 H 0.3156 0.7654 0.2939
C6_6 C 0.3255(5) 0.6716(5) 0.2576(6)
C7_6 C 0.3698(6) 0.7348(5) 0.1291(7)
H5_5 H 0.3837 0.7667 0.1690
O3_4 O 0.2730(4) 0.6723(3) 0.5800(4)
C8_6 C 0.3369(5) 0.6794(4) 0.1610(6)
C9_6 C 0.3274(5) 0.6416(5) 0.0095(6)
C10_6 C 0.3165(5) 0.6326(5) 0.1008(6)
H6_6 H 0.2954 0.5948 0.1206
C12_6 C 0.3822(6) 0.7435(5) 0.0400(7)
H7_5 H 0.4046 0.7805 0.0201
C14_6 C 0.3280(5) 0.6082(5) 0.2948(6)
H9_6 H 0.3365 0.5732 0.2568
C15_6 C 0.0072(5) 0.4632(5) 0.0048(6)
O8_6 O 0.0662(3) 0.4459(4) 0.0117(5)
Pr5_4 Pr 0.27333(3) 0.59668(2) 0.71684(3)
O21_4 O 0.1513(4) 0.5673(4) 0.1154(4)
H1_6 H 0.164(5) 0.657(5) 0.886(2)
H2_6 H 0.130(4) 0.678(4) 0.944(7)
O4_6 O 0.2679(3) 0.5442(3) 0.9732(4)
O5_6 O 0.0414(3) 0.5742(4) 0.9945(5)
O6_6 O 0.1581(5) 0.6473(4) 0.9406(5)
O7_4 O 0.3173(4) 0.5987(4) 0.8654(4)
C11_6 C 0.3026(4) 0.5912(5) 0.9447(6)
C13_6 C 0.3609(6) 0.6963(5) 0.9811(6)
H8_6 H 0.3693 0.7016 0.9210
O16_4 O 0.1810(3) 0.5499(3) 0.8035(4)
O19_4 O 0.0777(3) 0.5230(4) 0.8300(4)
O9_6 O 0.9586(3) 0.4258(4) 0.0055(5)
H10_6 H 0.836(5) 0.343(5) 0.114(2)
H11_6 H 0.870(4) 0.322(4) 0.056(7)
O12_6 O 0.7321(3) 0.4558(3) 0.0268(4)
O13_6 O 0.8419(5) 0.3527(4) 0.0594(5)
C25_6 C 0.6974(4) 0.4088(5) 0.0553(6)
C27_6 C 0.6391(6) 0.3037(5) 0.0189(6)
H17_6 H 0.6307 0.2984 0.0790
C2_6 C 0.9928(5) 0.5368(5) 0.9952(6)
O2_6 O 0.9338(3) 0.5541(4) 0.9883(5)
C16_6 C 0.7076(5) 0.3713(5) 0.4710(6)
C17_6 C 0.6941(5) 0.3537(5) 0.5675(6)
C18_6 C 0.6964(5) 0.2898(5) 0.5958(6)
H12_6 H 0.7054 0.2557 0.5567
C19_6 C 0.6850(6) 0.2777(5) 0.6853(6)
H13_5 H 0.6844 0.2346 0.7061
C20_6 C 0.6745(5) 0.3284(5) 0.7424(6)
C21_6 C 0.6302(6) 0.2652(5) 0.8709(7)
H14_5 H 0.6163 0.2333 0.8310
C22_6 C 0.6631(5) 0.3206(4) 0.8390(6)
C23_6 C 0.6726(5) 0.3584(5) 0.9905(6)
C24_6 C 0.6835(5) 0.3674(5) 0.8992(6)
H15_6 H 0.7046 0.4052 0.8794
C26_6 C 0.6178(6) 0.2565(5) 0.9600(7)
H16_5 H 0.5954 0.2195 0.9799
C28_6 C 0.6720(5) 0.3918(5) 0.7052(6)
H18_6 H 0.6635 0.4268 0.7432
C16_7 C 0.1213(5) 0.0424(5) 0.2210(6)
N2_4 N 0.1555(4) 0.0692(4) 0.3703(5)
C17_7 C 0.1037(5) 0.0559(5) 0.3175(6)
C18_7 C 0.0398(5) 0.0536(5) 0.3458(6)
H12_7 H 0.0057 0.0446 0.3067
C19_7 C 0.0277(5) 0.0650(6) 0.4353(6)
C20_7 C 0.0784(5) 0.0755(5) 0.4924(6)
C21_7 C 0.0152(5) 0.1198(6) 0.6209(7)
O12_7 O 0.2058(3) 0.0179(3) 0.7768(4)
C22_7 C 0.0706(4) 0.0869(5) 0.5890(6)
C23_7 C 0.1084(5) 0.0774(5) 0.7405(6)
C24_7 C 0.1174(5) 0.0665(5) 0.6492(6)
H15_7 H 0.1552 0.0454 0.6294
C25_7 C 0.1588(5) 0.0526(4) 0.8053(6)
C26_7 C 0.0065(5) 0.1322(6) 0.7100(7)
C27_7 C 0.0537(5) 0.1109(6) 0.7689(6)
H17_7 H 0.0484 0.1193 0.8290
C28_7 C 0.1418(5) 0.0780(5) 0.4552(6)
H18_7 H 0.1768 0.0865 0.4932
C1_7 C 0.3787(5) 0.4576(5) 0.2790(6)
N1_4 N 0.3445(4) 0.4308(4) 0.1297(5)
C3_7 C 0.3963(5) 0.4441(5) 0.1825(6)
C4_7 C 0.4602(5) 0.4464(5) 0.1542(6)
H3_7 H 0.4943 0.4554 0.1933
C5_7 C 0.4723(5) 0.4350(6) 0.0647(6)
H4_6 H 0.5154 0.4344 0.0439
C6_7 C 0.4216(5) 0.4245(5) 0.0076(6)
C14_7 C 0.3582(5) 0.4220(5) 0.0448(6)
H9_7 H 0.3232 0.4135 0.0068
C2_7 C 0.2868(5) 0.7572(5) 0.7452(6)
H1_7 H 0.407(5) 0.586(5) 0.636(2)
H2_7 H 0.428(4) 0.620(4) 0.694(7)
O2_7 O 0.3041(4) 0.8162(3) 0.7383(5)
C7_7 C 0.4848(5) 0.3802(6) 0.8791(7)
H5_6 H 0.5167 0.3663 0.9190
O4_7 O 0.2942(3) 0.4821(3) 0.7232(4)
O5_7 O 0.3242(4) 0.7086(3) 0.7445(5)
O6_7 O 0.3973(4) 0.5919(5) 0.6906(5)
C8_7 C 0.4294(4) 0.4131(5) 0.9110(6)
C9_7 C 0.3916(5) 0.4226(5) 0.7595(6)
C10_7 C 0.3826(5) 0.4335(5) 0.8508(6)
H6_7 H 0.3448 0.4546 0.8706
C11_7 C 0.3412(5) 0.4474(4) 0.6947(6)
C12_7 C 0.4935(5) 0.3678(6) 0.7900(7)
H7_6 H 0.5305 0.3454 0.7701
C13_7 C 0.4463(5) 0.3891(6) 0.7311(6)
H8_7 H 0.4516 0.3807 0.6710
C15_7 C 0.2132(5) 0.7428(5) 0.7548(6)
O8_7 O 0.1959(4) 0.6838(3) 0.7617(5)
O9_7 O 0.1758(4) 0.7914(3) 0.7555(5)
H10_7 H 0.093(5) 0.914(5) 0.864(2)
H11_7 H 0.072(4) 0.880(4) 0.806(7)
O13_7 O 0.1027(4) 0.9081(5) 0.8094(5)
N3_4 N 0.1555(4) 0.5692(4) 0.6297(5)
N4_4 N 0.3445(4) 0.9308(4) 0.8703(5)
C1_8 C 0.1213(5) 0.5424(5) 0.7790(6)
C2_8 C 0.2132(5) 0.2428(5) 0.2452(6)
H1_8 H 0.093(5) 0.414(5) 0.136(2)
H2_8 H 0.072(4) 0.380(4) 0.194(7)
C3_8 C 0.1037(5) 0.5559(5) 0.6825(6)
C4_8 C 0.0398(5) 0.5536(5) 0.6542(6)
H3_8 H 0.0057 0.5446 0.6933
C5_8 C 0.0277(5) 0.5650(6) 0.5647(6)
C6_8 C 0.0784(5) 0.5755(5) 0.5076(6)
O2_8 O 0.1959(4) 0.1838(3) 0.2383(5)
C7_8 C 0.0152(5) 0.6198(6) 0.3791(7)
O4_8 O 0.2058(3) 0.5179(3) 0.2232(4)
O5_8 O 0.1758(4) 0.2914(3) 0.2445(5)
O6_8 O 0.1027(4) 0.4081(5) 0.1906(5)
C8_8 C 0.0706(4) 0.5869(5) 0.4110(6)
C9_8 C 0.1084(5) 0.5774(5) 0.2595(6)
C10_8 C 0.1174(5) 0.5665(5) 0.3508(6)
H6_8 H 0.1552 0.5454 0.3706
C11_8 C 0.1588(5) 0.5526(4) 0.1947(6)
C12_8 C 0.0065(5) 0.6322(6) 0.2900(7)
C13_8 C 0.0537(5) 0.6109(6) 0.2311(6)
H8_8 H 0.0484 0.6193 0.1710
C14_8 C 0.1418(5) 0.5780(5) 0.5448(6)
H9_8 H 0.1768 0.5865 0.5068
C15_8 C 0.2868(5) 0.2572(5) 0.2548(6)
O8_8 O 0.3041(4) 0.3162(3) 0.2617(5)
O9_8 O 0.3242(4) 0.2086(3) 0.2555(5)
H10_8 H 0.407(5) 0.086(5) 0.364(2)
H11_8 H 0.428(4) 0.120(4) 0.306(7)
O13_8 O 0.3973(4) 0.0919(5) 0.3094(5)
C21_8 C 0.4848(5) 0.8802(6) 0.1209(7)
H14_6 H 0.5167 0.8663 0.0810
O12_8 O 0.2942(3) 0.9821(3) 0.2768(4)
C22_8 C 0.4294(4) 0.9131(5) 0.0890(6)
C23_8 C 0.3916(5) 0.9226(5) 0.2405(6)
C24_8 C 0.3826(5) 0.9335(5) 0.1492(6)
H15_8 H 0.3448 0.9546 0.1294
C25_8 C 0.3412(5) 0.9474(4) 0.3053(6)
C26_8 C 0.4935(5) 0.8678(6) 0.2100(7)
H16_6 H 0.5305 0.8454 0.2299
C27_8 C 0.4463(5) 0.8891(6) 0.2689(6)
H17_8 H 0.4516 0.8807 0.3290
C16_8 C 0.3787(5) 0.9576(5) 0.7210(6)
C17_8 C 0.3963(5) 0.9441(5) 0.8175(6)
C18_8 C 0.4602(5) 0.9464(5) 0.8458(6)
H12_8 H 0.4943 0.9554 0.8067
C19_8 C 0.4723(5) 0.9350(6) 0.9353(6)
H13_6 H 0.5154 0.9344 0.9561
C20_8 C 0.4216(5) 0.9245(5) 0.9924(6)
C28_8 C 0.3582(5) 0.9220(5) 0.9552(6)
H18_8 H 0.3232 0.9135 0.9932
H4_7 H 0.0154 0.9344 0.5439
H5_7 H 0.0167 0.8663 0.4190
H7_7 H 0.0305 0.8454 0.2701
H13_7 H 0.0154 0.4344 0.4561
H14_7 H 0.0167 0.3663 0.5810
H16_7 H 0.0305 0.3454 0.7299
H13_8 H 0.9846 0.0656 0.4561
H14_8 H 0.9833 0.1337 0.5810
H16_8 H 0.9695 0.1546 0.7299
H4_8 H 0.9846 0.5656 0.5439
H5_8 H 0.9833 0.6337 0.4190
H7_8 H 0.9695 0.6546 0.2701
loop_
_geom_bond_atom_site_label_1
_geom_bond_atom_site_label_2
_geom_bond_site_symmetry_1
_geom_bond_site_symmetry_2
H10 O13 1_555 1_555
H11 O13 1_555 1_555
Pr2 O9 1_555 1_555
O12 Pr2 1_555 1_555
O13 Pr2 1_555 1_555
O14 C25 1_555 1_555
C25 O12 1_555 1_555
H17 C27 1_555 1_555
O18 Pr2 1_555 1_555
O20 Pr2 1_555 1_555
Pr8 O14 1_555 1_555
O18 Pr8 1_555 1_555
O10 C16 1_555 1_555
C16 C17 1_555 1_555
N2 C17 1_555 1_555
C17 C18 1_555 1_555
C18 H12 1_555 1_555
C19 C18 1_555 1_555
H13 C19 1_555 1_555
C20 C19 1_555 1_555
C21 H14 1_555 1_555
O11 C16 1_555 1_555
C22 C20 1_555 1_555
C23 C24 1_555 1_555
C24 C22 1_555 1_555
H15 C24 1_555 1_555
C26 C21 1_555 1_555
H16 C26 1_555 1_555
C28 N2 1_555 1_555
H18 C28 1_555 1_555
Pr8 O10 1_555 1_555
C20 C28 1_555 1_555
C21 C22 1_555 1_555
O11 Pr8 1_555 1_555
C2 O2 1_555 1_555
C15 O8 1_555 1_555
O1 C1 1_555 1_555
C1 C3 1_555 1_555
N1 C3 1_555 1_555
C3 C4 1_555 1_555
C4 H3 1_555 1_555
C5 C4 1_555 1_555
H4 C5 1_555 1_555
C6 C5 1_555 1_555
C7 H5 1_555 1_555
O3 C1 1_555 1_555
C8 C6 1_555 1_555
C9 C10 1_555 1_555
C10 C8 1_555 1_555
H6 C10 1_555 1_555
C12 C7 1_555 1_555
H7 C12 1_555 1_555
C14 N1 1_555 1_555
H9 C14 1_555 1_555
Pr5 O1 1_555 1_555
C6 C14 1_555 1_555
C7 C8 1_555 1_555
O3 Pr5 1_555 1_555
H1 O6 1_555 1_555
H2 O6 1_555 1_555
Pr1 O4 1_555 1_555
O4 C11 1_555 1_555
O6 Pr1 1_555 1_555
O7 C11 1_555 1_555
H8 C13 1_555 1_555
O16 Pr1 1_555 1_555
O19 Pr1 1_555 1_555
Pr5 O7 1_555 1_555
Pr1 O5 1_555 1_555
O16 Pr5 1_555 1_555
O15 C1_2 1_555 1_555
O3_2 C1_2 1_555 1_555
Pr5_2 O15 1_555 1_555
O3_2 Pr5_2 1_555 1_555
C2_2 O2_2 1_555 1_555
H1_2 O6_2 1_555 1_555
H2_2 O6_2 1_555 1_555
N3 C3_2 1_555 1_555
C3_2 C4_2 1_555 1_555
C4_2 H3_2 1_555 1_555
C5_2 C4_2 1_555 1_555
H4_2 C5_2 1_555 1_555
C6_2 C5_2 1_555 1_555
C7_2 H5_2 1_555 1_555
Pr3 O4_2 1_555 1_555
O4_2 C11_2 1_555 1_555
O5_2 C2_2 1_555 1_555
O6_2 Pr3 1_555 1_555
C8_2 C6_2 1_555 1_555
C9_2 C10_2 1_555 1_555
C10_2 C8_2 1_555 1_555
H6_2 C10_2 1_555 1_555
O7_2 C11_2 1_555 1_555
C11_2 C9_2 1_555 1_555
C12_2 C7_2 1_555 1_555
H7_2 C12_2 1_555 1_555
C13_2 C9_2 1_555 1_555
H8_2 C13_2 1_555 1_555
C14_2 N3 1_555 1_555
H9_2 C14_2 1_555 1_555
O16_2 Pr3 1_555 1_555
O19_2 Pr3 1_555 1_555
Pr5_2 O7_2 1_555 1_555
O21_2 Pr3 1_555 1_555
C6_2 C14_2 1_555 1_555
C7_2 C8_2 1_555 1_555
Pr3 O5_2 1_555 1_555
C12_2 C13_2 1_555 1_555
O16_2 Pr5_2 1_555 1_555
O9_2 C15_2 1_555 1_555
H10_2 O13_2 1_555 1_555
H11_2 O13_2 1_555 1_555
N4 C17_2 1_555 1_555
C17_2 C18_2 1_555 1_555
C18_2 H12_2 1_555 1_555
C19_2 C18_2 1_555 1_555
H13_2 C19_2 1_555 1_555
C20_2 C19_2 1_555 1_555
C21_2 H14_2 1_555 1_555
Pr6 O9_2 1_555 1_555
O12_2 Pr6 1_555 1_555
O13_2 Pr6 1_555 1_555
C22_2 C20_2 1_555 1_555
C23_2 C24_2 1_555 1_555
C24_2 C22_2 1_555 1_555
H15_2 C24_2 1_555 1_555
O14_2 C25_2 1_555 1_555
C25_2 O12_2 1_555 1_555
C26_2 C21_2 1_555 1_555
H16_2 C26_2 1_555 1_555
C27_2 C23_2 1_555 1_555
H17_2 C27_2 1_555 1_555
C28_2 N4 1_555 1_555
H18_2 C28_2 1_555 1_555
O18_2 Pr6 1_555 1_555
O20_2 Pr6 1_555 1_555
Pr8_2 O14_2 1_555 1_555
O22_2 Pr6 1_555 1_555
C15_2 O8_2 1_555 1_555
C20_2 C28_2 1_555 1_555
C21_2 C22_2 1_555 1_555
C23_2 C25_2 1_555 1_555
C26_2 C27_2 1_555 1_555
O18_2 Pr8_2 1_555 1_555
O17 C16_2 1_555 1_555
O11_2 C16_2 1_555 1_555
Pr8_2 O17 1_555 1_555
O11_2 Pr8_2 1_555 1_555
C2_3 O2_3 1_555 1_555
H1_3 O6_3 1_555 1_555
H2_3 O6_3 1_555 1_555
O2_3 Pr2_2 1_555 1_555
O5_3 C2_3 1_555 1_555
O6_3 Pr5_2 1_555 1_555
C15_3 C2_3 1_555 1_555
O8_3 Pr5_2 1_555 1_555
O9_3 C15_3 1_555 1_555
H10_3 O13_3 1_555 1_555
H11_3 O13_3 1_555 1_555
C21_3 H14_3 1_555 1_555
Pr2_2 O9_3 1_555 1_555
O12_3 Pr2_2 1_555 1_555
O13_3 Pr2_2 1_555 1_555
C23_3 C24_3 1_555 1_555
C24_3 C22_3 1_555 1_555
H15_3 C24_3 1_555 1_555
O14_3 C25_3 1_555 1_555
C25_3 O12_3 1_555 1_555
C26_3 C21_3 1_555 1_555
H16_3 C26_3 1_555 1_555
C27_3 C23_3 1_555 1_555
H17_3 C27_3 1_555 1_555
O17_2 Pr2_2 1_555 1_555
O18_3 Pr2_2 1_555 1_555
N3_2 Pr5_2 1_555 1_555
N4_2 Pr2_2 1_555 1_555
O20_3 Pr2_2 1_555 1_555
Pr8_3 O14_3 1_555 1_555
O22_3 Pr2_2 1_555 1_555
Pr5_2 O5_3 1_555 1_555
C15_3 O8_3 1_555 1_555
C21_3 C22_3 1_555 1_555
C23_3 C25_3 1_555 1_555
C26_3 C27_3 1_555 1_555
O18_3 Pr8_3 1_555 1_555
O10_2 C16_3 1_555 1_555
C16_3 C17_3 1_555 1_555
N2_2 C17_3 1_555 1_555
C17_3 C18_3 1_555 1_555
C18_3 H12_3 1_555 1_555
C19_3 C18_3 1_555 1_555
H13_3 C19_3 1_555 1_555
C20_3 C19_3 1_555 1_555
O11_3 C16_3 1_555 1_555
C28_3 N2_2 1_555 1_555
H18_3 C28_3 1_555 1_555
Pr6_2 O10_2 1_555 1_555
Pr8_3 O10_2 1_555 1_555
N2_2 Pr6_2 1_555 1_555
C20_3 C28_3 1_555 1_555
O11_3 Pr8_3 1_555 1_555
O16 C1_3 1_555 1_555
C1_3 C3_3 1_555 1_555
N1_2 C3_3 1_555 1_555
C3_3 C4_3 1_555 1_555
C4_3 H3_3 1_555 1_555
C5_3 C4_3 1_555 1_555
C6_3 C5_3 1_555 1_555
O19 C1_3 1_555 1_555
O4_3 C11_3 1_555 1_555
C8_3 C6_3 1_555 1_555
C9_3 C10_3 1_555 1_555
C10_3 C8_3 1_555 1_555
H6_3 C10_3 1_555 1_555
O21 C11_3 1_555 1_555
C11_3 C9_3 1_555 1_555
C12_3 C7_3 1_555 1_555
C13_3 C9_3 1_555 1_555
H8_3 C13_3 1_555 1_555
C14_3 N1_2 1_555 1_555
H9_3 C14_3 1_555 1_555
N1_2 Pr5 1_555 1_555
C6_3 C14_3 1_555 1_555
C7_3 C8_3 1_555 1_555
C12_3 C13_3 1_555 1_555
O16_2 C1_4 1_555 1_555
C1_4 C3_4 1_555 1_555
N3_2 C3_4 1_555 1_555
C3_4 C4_4 1_555 1_555
C4_4 H3_4 1_555 1_555
C5_4 C4_4 1_555 1_555
H4_3 C5_4 1_555 1_555
C6_4 C5_4 1_555 1_555
O19_2 C1_4 1_555 1_555
C14_4 N3_2 1_555 1_555
H9_4 C14_4 1_555 1_555
C6_4 C14_4 1_555 1_555
C7_4 H5_3 1_555 1_555
O4_4 C11_4 1_555 1_555
C9_4 C10_4 1_555 1_555
C10_4 C8_4 1_555 1_555
H6_4 C10_4 1_555 1_555
O21_2 C11_4 1_555 1_555
C11_4 C9_4 1_555 1_555
C12_4 C7_4 1_555 1_555
H7_3 C12_4 1_555 1_555
C13_4 C9_4 1_555 1_555
H8_4 C13_4 1_555 1_555
C7_4 C8_4 1_555 1_555
C12_4 C13_4 1_555 1_555
C2_4 O2_4 1_555 1_555
H1_4 O6_4 1_555 1_555
H2_4 O6_4 1_555 1_555
O2_4 Pr6_2 1_555 1_555
O5_4 C2_4 1_555 1_555
O6_4 Pr5 1_555 1_555
C15_4 C2_4 1_555 1_555
O8_4 Pr5 1_555 1_555
O9_4 C15_4 1_555 1_555
O17_2 C16_4 1_555 1_555
C16_4 C17_4 1_555 1_555
H10_4 O13_4 1_555 1_555
H11_4 O13_4 1_555 1_555
N4_2 C17_4 1_555 1_555
C17_4 C18_4 1_555 1_555
C18_4 H12_4 1_555 1_555
C19_4 C18_4 1_555 1_555
C20_4 C19_4 1_555 1_555
O11_4 C16_4 1_555 1_555
Pr6_2 O9_4 1_555 1_555
O12_4 Pr6_2 1_555 1_555
O13_4 Pr6_2 1_555 1_555
C22_4 C20_4 1_555 1_555
C23_4 C24_4 1_555 1_555
C24_4 C22_4 1_555 1_555
H15_4 C24_4 1_555 1_555
O14_4 C25_4 1_555 1_555
C25_4 O12_4 1_555 1_555
C26_4 C21_4 1_555 1_555
C27_4 C23_4 1_555 1_555
H17_4 C27_4 1_555 1_555
C28_4 N4_2 1_555 1_555
H18_4 C28_4 1_555 1_555
O18_4 Pr6_2 1_555 1_555
O20_4 Pr6_2 1_555 1_555
Pr8_4 O17_2 1_555 1_555
O22_4 Pr6_2 1_555 1_555
Pr5 O5_4 1_555 1_555
C15_4 O8_4 1_555 1_555
C20_4 C28_4 1_555 1_555
C21_4 C22_4 1_555 1_555
O11_4 Pr8_4 1_555 1_555
C23_4 C25_4 1_555 1_555
C26_4 C27_4 1_555 1_555
O1_2 C1_5 1_555 1_555
O3_3 C1_5 1_555 1_555
Pr5_3 O1_2 1_555 1_555
O3_3 Pr5_3 1_555 1_555
C2_5 O2_5 1_555 1_555
H1_5 O6_5 1_555 1_555
H2_5 O6_5 1_555 1_555
N1_3 C3_5 1_555 1_555
C3_5 C4_5 1_555 1_555
C4_5 H3_5 1_555 1_555
C5_5 C4_5 1_555 1_555
H4_4 C5_5 1_555 1_555
C6_5 C5_5 1_555 1_555
O2_5 Pr8_3 1_555 1_555
C7_5 H5_4 1_555 1_555
Pr1_2 O4_5 1_555 1_555
O4_5 C11_5 1_555 1_555
O5_5 C2_5 1_555 1_555
O6_5 Pr1_2 1_555 1_555
C8_5 C6_5 1_555 1_555
C9_5 C10_5 1_555 1_555
C10_5 C8_5 1_555 1_555
H6_5 C10_5 1_555 1_555
O7_3 C11_5 1_555 1_555
C11_5 C9_5 1_555 1_555
C12_5 C7_5 1_555 1_555
H7_4 C12_5 1_555 1_555
C13_5 C9_5 1_555 1_555
H8_5 C13_5 1_555 1_555
C14_5 N1_3 1_555 1_555
H9_5 C14_5 1_555 1_555
C15_5 C2_5 1_555 1_555
O8_5 Pr1_2 1_555 1_555
O9_5 C15_5 1_555 1_555
H10_5 O13_5 1_555 1_555
H11_5 O13_5 1_555 1_555
N2_3 C17_5 1_555 1_555
C17_5 C18_5 1_555 1_555
C18_5 H12_5 1_555 1_555
C19_5 C18_5 1_555 1_555
H13_4 C19_5 1_555 1_555
C20_5 C19_5 1_555 1_555
C21_5 H14_4 1_555 1_555
Pr8_3 O9_5 1_555 1_555
O12_5 Pr8_3 1_555 1_555
O13_5 Pr8_3 1_555 1_555
C22_5 C20_5 1_555 1_555
C23_5 C24_5 1_555 1_555
C24_5 C22_5 1_555 1_555
H15_5 C24_5 1_555 1_555
O22_4 C25_5 1_555 1_555
C25_5 O12_5 1_555 1_555
C26_5 C21_5 1_555 1_555
H16_4 C26_5 1_555 1_555
C27_5 C23_5 1_555 1_555
H17_5 C27_5 1_555 1_555
C28_5 N2_3 1_555 1_555
H18_5 C28_5 1_555 1_555
O15_2 Pr1_2 1_555 1_555
O16_3 Pr1_2 1_555 1_555
N3_3 Pr1_2 1_555 1_555
N4_3 Pr8_3 1_555 1_555
O19_3 Pr1_2 1_555 1_555
Pr5_3 O7_3 1_555 1_555
O21_3 Pr1_2 1_555 1_555
N1_3 Pr3_2 1_555 1_555
C6_5 C14_5 1_555 1_555
C7_5 C8_5 1_555 1_555
Pr1_2 O5_5 1_555 1_555
C12_5 C13_5 1_555 1_555
C15_5 O8_5 1_555 1_555
N2_3 Pr8_4 1_555 1_555
C20_5 C28_5 1_555 1_555
C21_5 C22_5 1_555 1_555
C23_5 C25_5 1_555 1_555
C26_5 C27_5 1_555 1_555
O16_3 Pr5_3 1_555 1_555
O18_4 C16_5 1_555 1_555
O20_4 C16_5 1_555 1_555
O15_2 C1_6 1_555 1_555
C1_6 C3_6 1_555 1_555
N3_3 C3_6 1_555 1_555
C3_6 C4_6 1_555 1_555
C4_6 H3_6 1_555 1_555
C5_6 C4_6 1_555 1_555
H4_5 C5_6 1_555 1_555
C6_6 C5_6 1_555 1_555
C7_6 H5_5 1_555 1_555
O3_4 C1_6 1_555 1_555
C8_6 C6_6 1_555 1_555
C9_6 C10_6 1_555 1_555
C10_6 C8_6 1_555 1_555
H6_6 C10_6 1_555 1_555
C12_6 C7_6 1_555 1_555
H7_5 C12_6 1_555 1_555
C14_6 N3_3 1_555 1_555
H9_6 C14_6 1_555 1_555
Pr5_4 O15_2 1_555 1_555
C6_6 C14_6 1_555 1_555
C7_6 C8_6 1_555 1_555
O3_4 Pr5_4 1_555 1_555
C15_6 O8_6 1_555 1_555
H1_6 O6_6 1_555 1_555
H2_6 O6_6 1_555 1_555
Pr3_2 O4_6 1_555 1_555
O4_6 C11_6 1_555 1_555
O6_6 Pr3_2 1_555 1_555
O7_4 C11_6 1_555 1_555
H8_6 C13_6 1_555 1_555
O16_4 Pr3_2 1_555 1_555
O19_4 Pr3_2 1_555 1_555
Pr5_4 O7_4 1_555 1_555
Pr3_2 O5_6 1_555 1_555
O16_4 Pr5_4 1_555 1_555
H10_6 O13_6 1_555 1_555
H11_6 O13_6 1_555 1_555
Pr8_4 O9_6 1_555 1_555
O12_6 Pr8_4 1_555 1_555
O13_6 Pr8_4 1_555 1_555
O22_3 C25_6 1_555 1_555
C25_6 O12_6 1_555 1_555
H17_6 C27_6 1_555 1_555
C2_6 O2_6 1_555 1_555
O18_3 C16_6 1_555 1_555
C16_6 C17_6 1_555 1_555
N4_3 C17_6 1_555 1_555
C17_6 C18_6 1_555 1_555
C18_6 H12_6 1_555 1_555
C19_6 C18_6 1_555 1_555
H13_5 C19_6 1_555 1_555
C20_6 C19_6 1_555 1_555
C21_6 H14_5 1_555 1_555
O20_3 C16_6 1_555 1_555
C22_6 C20_6 1_555 1_555
C23_6 C24_6 1_555 1_555
C24_6 C22_6 1_555 1_555
H15_6 C24_6 1_555 1_555
C26_6 C21_6 1_555 1_555
H16_5 C26_6 1_555 1_555
C28_6 N4_3 1_555 1_555
H18_6 C28_6 1_555 1_555
C20_6 C28_6 1_555 1_555
C21_6 C22_6 1_555 1_555
O18 C16_7 1_555 1_555
C16_7 C17_7 1_555 1_555
N2_4 C17_7 1_555 1_555
C17_7 C18_7 1_555 1_555
C18_7 H12_7 1_555 1_555
C19_7 C18_7 1_555 1_555
C20_7 C19_7 1_555 1_555
O20 C16_7 1_555 1_555
C22_7 C20_7 1_555 1_555
C23_7 C24_7 1_555 1_555
C24_7 C22_7 1_555 1_555
H15_7 C24_7 1_555 1_555
O22 C25_7 1_555 1_555
C25_7 O12_7 1_555 1_555
C26_7 C21_7 1_555 1_555
C27_7 C23_7 1_555 1_555
H17_7 C27_7 1_555 1_555
C28_7 N2_4 1_555 1_555
H18_7 C28_7 1_555 1_555
N2_4 Pr8 1_555 1_555
C20_7 C28_7 1_555 1_555
C21_7 C22_7 1_555 1_555
C23_7 C25_7 1_555 1_555
C26_7 C27_7 1_555 1_555
O16_3 C1_7 1_555 1_555
C1_7 C3_7 1_555 1_555
N1_4 C3_7 1_555 1_555
C3_7 C4_7 1_555 1_555
C4_7 H3_7 1_555 1_555
C5_7 C4_7 1_555 1_555
H4_6 C5_7 1_555 1_555
C6_7 C5_7 1_555 1_555
O19_3 C1_7 1_555 1_555
C14_7 N1_4 1_555 1_555
H9_7 C14_7 1_555 1_555
N1_4 Pr5_3 1_555 1_555
C6_7 C14_7 1_555 1_555
C2_7 O2_7 1_555 1_555
H1_7 O6_7 1_555 1_555
H2_7 O6_7 1_555 1_555
O2_7 Pr8_2 1_555 1_555
C7_7 H5_6 1_555 1_555
Pr5_4 O4_7 1_555 1_555
O4_7 C11_7 1_555 1_555
O5_7 C2_7 1_555 1_555
O6_7 Pr5_4 1_555 1_555
C9_7 C10_7 1_555 1_555
C10_7 C8_7 1_555 1_555
H6_7 C10_7 1_555 1_555
O21_3 C11_7 1_555 1_555
C11_7 C9_7 1_555 1_555
C12_7 C7_7 1_555 1_555
H7_6 C12_7 1_555 1_555
C13_7 C9_7 1_555 1_555
H8_7 C13_7 1_555 1_555
C15_7 C2_7 1_555 1_555
O8_7 Pr5_4 1_555 1_555
O9_7 C15_7 1_555 1_555
H10_7 O13_7 1_555 1_555
H11_7 O13_7 1_555 1_555
Pr8_2 O9_7 1_555 1_555
O13_7 Pr8_2 1_555 1_555
N3_4 Pr5_4 1_555 1_555
N4_4 Pr8_2 1_555 1_555
C7_7 C8_7 1_555 1_555
Pr5_4 O5_7 1_555 1_555
C12_7 C13_7 1_555 1_555
C15_7 O8_7 1_555 1_555
O16_4 C1_8 1_555 1_555
C1_8 C3_8 1_555 1_555
C2_8 O2_8 1_555 1_555
H1_8 O6_8 1_555 1_555
H2_8 O6_8 1_555 1_555
N3_4 C3_8 1_555 1_555
C3_8 C4_8 1_555 1_555
C4_8 H3_8 1_555 1_555
C5_8 C4_8 1_555 1_555
C6_8 C5_8 1_555 1_555
O2_8 Pr8 1_555 1_555
O19_4 C1_8 1_555 1_555
Pr5_3 O4_8 1_555 1_555
O4_8 C11_8 1_555 1_555
O5_8 C2_8 1_555 1_555
O6_8 Pr5_3 1_555 1_555
C8_8 C6_8 1_555 1_555
C9_8 C10_8 1_555 1_555
C10_8 C8_8 1_555 1_555
H6_8 C10_8 1_555 1_555
O21_4 C11_8 1_555 1_555
C11_8 C9_8 1_555 1_555
C12_8 C7_8 1_555 1_555
C13_8 C9_8 1_555 1_555
H8_8 C13_8 1_555 1_555
C14_8 N3_4 1_555 1_555
H9_8 C14_8 1_555 1_555
C15_8 C2_8 1_555 1_555
O8_8 Pr5_3 1_555 1_555
O9_8 C15_8 1_555 1_555
H10_8 O13_8 1_555 1_555
H11_8 O13_8 1_555 1_555
Pr8 O9_8 1_555 1_555
O13_8 Pr8 1_555 1_555
C6_8 C14_8 1_555 1_555
C7_8 C8_8 1_555 1_555
Pr5_3 O5_8 1_555 1_555
C12_8 C13_8 1_555 1_555
C15_8 O8_8 1_555 1_555
C21_8 H14_6 1_555 1_555
C23_8 C24_8 1_555 1_555
C24_8 C22_8 1_555 1_555
H15_8 C24_8 1_555 1_555
O22_2 C25_8 1_555 1_555
C25_8 O12_8 1_555 1_555
C26_8 C21_8 1_555 1_555
H16_6 C26_8 1_555 1_555
C27_8 C23_8 1_555 1_555
H17_8 C27_8 1_555 1_555
C21_8 C22_8 1_555 1_555
C23_8 C25_8 1_555 1_555
C26_8 C27_8 1_555 1_555
O18_2 C16_8 1_555 1_555
C16_8 C17_8 1_555 1_555
N4_4 C17_8 1_555 1_555
C17_8 C18_8 1_555 1_555
C18_8 H12_8 1_555 1_555
C19_8 C18_8 1_555 1_555
H13_6 C19_8 1_555 1_555
C20_8 C19_8 1_555 1_555
O20_2 C16_8 1_555 1_555
C28_8 N4_4 1_555 1_555
H18_8 C28_8 1_555 1_555
C20_8 C28_8 1_555 1_555

#END
