
###############################################################################
#
# This file contains modified crystal structure data generated from the
# MOF subset of the Cambridge Structural Database (CSD) v543 
# hosted by the Cambridge Crystallographic Data Centre (CCDC).
#
# This work is licensed under the Creative Commons
# Attribution-NonCommercial-ShareAlike 4.0 International License.
# To view a copy of this license, visit
# http://creativecommons.org/licenses/by-nc-sa/4.0/
# or send a letter to
# Creative Commons, PO Box 1866, Mountain View, CA 94042, USA.
#
# CIF created using the CSD Python API on 29 September 2022
# The structure has been converted into the P1 space group
# The structure has a 3D framework
# The original CSD entry FIQYOV is in the monoclinic crystal system
# The framework has been calculated to contain at least 10.0% void space
# The void calculation uses a probe of radius 1.32A, grid spacing 0.4
#
###############################################################################

data_FIQYOV
_chemical_formula_moiety         '(C112 H88 N16 O32 S12 Zn4)n'
_symmetry_cell_setting           triclinic
_symmetry_space_group_name_H-M   'P 1'
_symmetry_Int_Tables_number      1
_space_group_name_Hall           'P 1'
loop_
_symmetry_equiv_pos_site_id
_symmetry_equiv_pos_as_xyz
1 x,y,z
_cell_length_a                   14.215(2)
_cell_length_b                   16.579(3)
_cell_length_c                   14.711(3)
_cell_angle_alpha                90
_cell_angle_beta                 90.823(6)
_cell_angle_gamma                90
_cell_volume                     3466.59
loop_
_atom_site_label
_atom_site_type_symbol
_atom_site_fract_x
_atom_site_fract_y
_atom_site_fract_z
Zn1 Zn 0.28823(3) 0.16402(3) 0.50346(3)
S1 S 0.0000 0.26639(10) 0.7500
S2 S -0.0000 0.24893(10) 0.2500
O1 O 0.1309(3) 0.2737(2) 0.4036(2)
C1 C 0.0616(3) 0.1779(3) 0.3092(3)
O2 O 0.1846(3) 0.1468(2) 0.4100(3)
O3 O 0.1308(3) 0.2894(2) 0.5971(2)
C3 C 0.0626(4) 0.1952(3) 0.6929(3)
C4 C 0.1318(3) 0.2009(3) 0.3801(3)
O4 O 0.1852(3) 0.1638(2) 0.5982(3)
N2 N 0.3482(3) 0.0564(2) 0.5290(3)
C7 C 0.1322(3) 0.2182(3) 0.6241(3)
C8 C 0.0352(6) 0.1200(4) 0.7170(5)
H3 H 0.0604 0.0733 0.6924
C9 C 0.0363(5) 0.1023(3) 0.2831(5)
H4 H 0.0639 0.0557 0.3063
C11 C 0.3863(5) 0.0368(3) 0.6124(4)
H6 H 0.3886 0.0709 0.6626
H9 H 0.3228 0.0382 0.3550
Zn5 Zn 0.21177(3) 0.33598(3) 0.49654(3)
O9 O 0.3691(3) 0.2263(2) 0.5964(2)
O11 O 0.3692(3) 0.2106(2) 0.4029(2)
N1 N 0.4018(3) 0.9330(2) 0.5220(4)
C2 C 0.3292(4) 0.7987(3) 0.4971(5)
C5 C 0.4172(4) 0.8499(3) 0.4930(5)
H1 H 0.4656 0.8259 0.5315
H2 H 0.4400 0.8501 0.4311
C6 C 0.3577(3) 0.9924(3) 0.4784(4)
C10 C 0.1783(8) 0.7658(6) 0.5509(10)
H5 H 0.1277 0.7815 0.5861
C12 C 0.4198(5) 0.9610(3) 0.6107(5)
H7 H 0.4487 0.9330 0.6582
C13 C 0.3265(6) 0.9854(4) 0.3817(5)
H8 H 0.3709 0.9534 0.3489
H10 H 0.2657 0.9603 0.3786
C14 C 0.2597(8) 0.8133(7) 0.5522(10)
H11 H 0.2645 0.8560 0.5929
N3 N 0.0982(3) 0.5670(2) 0.4780(4)
C21 C 0.1708(4) 0.7013(3) 0.5029(5)
C22 C 0.0828(4) 0.6501(3) 0.5070(5)
H14 H 0.0344 0.6741 0.4685
H15 H 0.0600 0.6499 0.5689
C23 C 0.1423(3) 0.5076(3) 0.5216(4)
N4 N 0.1518(3) 0.4436(2) 0.4710(3)
C24 C 0.3217(8) 0.7342(6) 0.4491(10)
H16 H 0.3723 0.7185 0.4139
C25 C 0.1137(5) 0.4632(3) 0.3876(4)
H17 H 0.1114 0.4291 0.3374
C26 C 0.0802(5) 0.5390(3) 0.3893(5)
H18 H 0.0513 0.5670 0.3418
C27 C 0.1735(6) 0.5146(4) 0.6183(5)
H19 H 0.1291 0.5466 0.6511
H20 H 0.1772 0.4618 0.6450
H21 H 0.2343 0.5397 0.6214
C28 C 0.2403(8) 0.6867(7) 0.4478(10)
H22 H 0.2355 0.6440 0.4071
Zn7 Zn 0.78823(3) 0.33598(3) 0.00346(3)
S1_2 S 1.0000 0.26639(10) 0.7500
S2_2 S 1.0000 0.24893(10) 0.2500
O5 O 0.8692(3) 0.2894(2) 0.9029(2)
C15 C 0.9374(4) 0.1952(3) 0.8071(3)
O6 O 0.8148(3) 0.1638(2) 0.9018(3)
C16 C 0.8678(3) 0.2182(3) 0.8759(3)
C17 C 0.9648(6) 0.1200(4) 0.7830(5)
H12 H 0.9396 0.0733 0.8076
O7 O 0.8691(3) 0.2737(2) 0.0964(2)
C18 C 0.9384(3) 0.1779(3) 0.1908(3)
O8 O 0.8154(3) 0.1468(2) 0.0900(3)
C19 C 0.8682(3) 0.2009(3) 0.1199(3)
C20 C 0.9637(5) 0.1023(3) 0.2169(5)
H13 H 0.9361 0.0557 0.1937
Zn3 Zn 0.71177(3) 0.16402(3) 0.99654(3)
O12 O 0.6308(3) 0.2106(2) 0.0971(2)
O10 O 0.6309(3) 0.2263(2) 0.9036(2)
N5 N 0.6518(3) 0.0564(2) 0.9710(3)
H9_2 H 0.6772 0.0382 0.1450
C11_2 C 0.6137(5) 0.0368(3) 0.8876(4)
H6_2 H 0.6114 0.0709 0.8374
C2_2 C 0.6708(4) 0.7987(3) 0.0029(5)
C5_2 C 0.5828(4) 0.8499(3) 0.0070(5)
H2_2 H 0.5600 0.8501 0.0689
C6_2 C 0.6423(3) 0.9924(3) 0.0216(4)
C13_2 C 0.6735(6) 0.9854(4) 0.1183(5)
H8_2 H 0.6291 0.9534 0.1511
H10_2 H 0.7343 0.9603 0.1214
N3_2 N 0.9018(3) 0.5670(2) 0.0220(4)
H14_2 H 0.9656 0.6741 0.0315
N4_2 N 0.8482(3) 0.4436(2) 0.0290(3)
C24_2 C 0.6783(8) 0.7342(6) 0.0509(10)
H16_2 H 0.6277 0.7185 0.0861
C25_2 C 0.8863(5) 0.4632(3) 0.1124(4)
H17_2 H 0.8886 0.4291 0.1626
C26_2 C 0.9198(5) 0.5390(3) 0.1107(5)
H18_2 H 0.9487 0.5670 0.1582
C28_2 C 0.7597(8) 0.6867(7) 0.0522(10)
H22_2 H 0.7645 0.6440 0.0929
N1_2 N 0.5982(3) 0.9330(2) 0.9780(4)
H1_2 H 0.5344 0.8259 0.9685
C10_2 C 0.8217(8) 0.7658(6) 0.9491(10)
H5_2 H 0.8723 0.7815 0.9139
C12_2 C 0.5802(5) 0.9610(3) 0.8893(5)
H7_2 H 0.5513 0.9330 0.8418
C14_2 C 0.7403(8) 0.8133(7) 0.9478(10)
H11_2 H 0.7355 0.8560 0.9071
C21_2 C 0.8292(4) 0.7013(3) 0.9971(5)
C22_2 C 0.9172(4) 0.6501(3) 0.9930(5)
H15_2 H 0.9400 0.6499 0.9311
C23_2 C 0.8577(3) 0.5076(3) 0.9784(4)
C27_2 C 0.8265(6) 0.5146(4) 0.8817(5)
H19_2 H 0.8709 0.5466 0.8489
H20_2 H 0.8228 0.4618 0.8550
H21_2 H 0.7657 0.5397 0.8786
O13 O 0.6852(3) 0.3362(2) 0.0982(3)
S1_3 S 0.5000 0.23361(10) 0.2500
S2_3 S 0.5000 0.25107(10) 0.7500
C1_2 C 0.4384(3) 0.3221(3) 0.6908(3)
O2_2 O 0.3154(3) 0.3532(2) 0.5900(3)
C3_2 C 0.4374(4) 0.3048(3) 0.3071(3)
C4_2 C 0.3682(3) 0.2991(3) 0.6199(3)
O4_2 O 0.3148(3) 0.3362(2) 0.4018(3)
C7_2 C 0.3678(3) 0.2818(3) 0.3759(3)
C8_2 C 0.4648(6) 0.3800(4) 0.2830(5)
H3_2 H 0.4396 0.4267 0.3076
C9_2 C 0.4637(5) 0.3977(3) 0.7169(5)
H4_2 H 0.4361 0.4443 0.6937
C15_2 C 0.5626(4) 0.3048(3) 0.1929(3)
C16_2 C 0.6322(3) 0.2818(3) 0.1241(3)
C17_2 C 0.5352(6) 0.3800(4) 0.2170(5)
H12_2 H 0.5604 0.4267 0.1924
C18_2 C 0.5616(3) 0.3221(3) 0.8092(3)
O8_2 O 0.6846(3) 0.3532(2) 0.9100(3)
C19_2 C 0.6318(3) 0.2991(3) 0.8801(3)
C20_2 C 0.5363(5) 0.3977(3) 0.7831(5)
H13_2 H 0.5639 0.4443 0.8063
Zn7_2 Zn 0.28823(3) 0.83598(3) 0.00346(3)
Zn1_2 Zn 0.78823(3) 0.66402(3) 0.50346(3)
S1_4 S 0.5000 0.76639(10) 0.7500
S2_4 S 0.5000 0.74893(10) 0.2500
O1_2 O 0.6309(3) 0.7737(2) 0.4036(2)
C1_3 C 0.5616(3) 0.6779(3) 0.3092(3)
O2_3 O 0.6846(3) 0.6468(2) 0.4100(3)
O3_2 O 0.6308(3) 0.7894(2) 0.5971(2)
N1_3 N 0.9018(3) 0.4330(2) 0.5220(4)
C2_3 C 0.8292(4) 0.2987(3) 0.4971(5)
C3_3 C 0.5626(4) 0.6952(3) 0.6929(3)
C4_3 C 0.6318(3) 0.7009(3) 0.3801(3)
O4_3 O 0.6852(3) 0.6638(2) 0.5982(3)
C5_3 C 0.9172(4) 0.3499(3) 0.4930(5)
H1_3 H 0.9656 0.3259 0.5315
H2_3 H 0.9400 0.3501 0.4311
C6_3 C 0.8577(3) 0.4924(3) 0.4784(4)
N2_2 N 0.8482(3) 0.5564(2) 0.5290(3)
C7_3 C 0.6322(3) 0.7182(3) 0.6241(3)
C8_3 C 0.5352(6) 0.6200(4) 0.7170(5)
H3_3 H 0.5604 0.5733 0.6924
C9_3 C 0.5363(5) 0.6023(3) 0.2831(5)
H4_3 H 0.5639 0.5557 0.3063
C10_3 C 0.6783(8) 0.2658(6) 0.5509(10)
H5_3 H 0.6277 0.2815 0.5861
C11_3 C 0.8863(5) 0.5368(3) 0.6124(4)
H6_3 H 0.8886 0.5709 0.6626
C12_3 C 0.9198(5) 0.4610(3) 0.6107(5)
H7_3 H 0.9487 0.4330 0.6582
C13_3 C 0.8265(6) 0.4854(4) 0.3817(5)
H8_3 H 0.8709 0.4534 0.3489
H9_3 H 0.8228 0.5382 0.3550
H10_3 H 0.7657 0.4603 0.3786
C14_3 C 0.7597(8) 0.3133(7) 0.5522(10)
H11_3 H 0.7645 0.3560 0.5929
O5_2 O 0.3692(3) 0.7894(2) 0.9029(2)
C15_3 C 0.4374(4) 0.6952(3) 0.8071(3)
O6_2 O 0.3148(3) 0.6638(2) 0.9018(3)
C16_3 C 0.3678(3) 0.7182(3) 0.8759(3)
C17_3 C 0.4648(6) 0.6200(4) 0.7830(5)
H12_3 H 0.4396 0.5733 0.8076
O7_2 O 0.3691(3) 0.7737(2) 0.0964(2)
C18_3 C 0.4384(3) 0.6779(3) 0.1908(3)
O8_3 O 0.3154(3) 0.6468(2) 0.0900(3)
C19_3 C 0.3682(3) 0.7009(3) 0.1199(3)
C20_3 C 0.4637(5) 0.6023(3) 0.2169(5)
H13_3 H 0.4361 0.5557 0.1937
N3_3 N 0.5982(3) 0.0670(2) 0.4780(4)
C21_3 C 0.6708(4) 0.2013(3) 0.5029(5)
C22_3 C 0.5828(4) 0.1501(3) 0.5070(5)
H14_3 H 0.5344 0.1741 0.4685
H15_3 H 0.5600 0.1499 0.5689
C23_3 C 0.6423(3) 0.0076(3) 0.5216(4)
C24_3 C 0.8217(8) 0.2342(6) 0.4491(10)
H16_3 H 0.8723 0.2185 0.4139
C26_3 C 0.5802(5) 0.0390(3) 0.3893(5)
H18_3 H 0.5513 0.0670 0.3418
C27_3 C 0.6735(6) 0.0146(4) 0.6183(5)
H19_3 H 0.6291 0.0466 0.6511
H21_3 H 0.7343 0.0397 0.6214
C28_3 C 0.7403(8) 0.1867(7) 0.4478(10)
H22_3 H 0.7355 0.1440 0.4071
Zn3_2 Zn 0.21177(3) 0.66402(3) 0.99654(3)
Zn5_2 Zn 0.71177(3) 0.83598(3) 0.49654(3)
O9_2 O 0.8691(3) 0.7263(2) 0.5964(2)
O11_2 O 0.8692(3) 0.7106(2) 0.4029(2)
O12_2 O 0.1308(3) 0.7106(2) 0.0971(2)
O10_2 O 0.1309(3) 0.7263(2) 0.9036(2)
N5_2 N 0.1518(3) 0.5564(2) 0.9710(3)
N4_3 N 0.6518(3) 0.9436(2) 0.4710(3)
C25_3 C 0.6137(5) 0.9632(3) 0.3876(4)
H17_3 H 0.6114 0.9291 0.3374
H20_3 H 0.6772 0.9618 0.6450
C2_4 C 0.1708(4) 0.2987(3) 0.0029(5)
C5_4 C 0.0828(4) 0.3499(3) 0.0070(5)
H2_4 H 0.0600 0.3501 0.0689
C6_4 C 0.1423(3) 0.4924(3) 0.0216(4)
C13_4 C 0.1735(6) 0.4854(4) 0.1183(5)
H8_4 H 0.1291 0.4534 0.1511
H9_4 H 0.1772 0.5382 0.1450
H10_4 H 0.2343 0.4603 0.1214
N3_4 N 0.4018(3) 0.0670(2) 0.0220(4)
H14_4 H 0.4656 0.1741 0.0315
C24_4 C 0.1783(8) 0.2342(6) 0.0509(10)
H16_4 H 0.1277 0.2185 0.0861
C26_4 C 0.4198(5) 0.0390(3) 0.1107(5)
H18_4 H 0.4487 0.0670 0.1582
C28_4 C 0.2597(8) 0.1867(7) 0.0522(10)
H22_4 H 0.2645 0.1440 0.0929
N1_4 N 0.0982(3) 0.4330(2) 0.9780(4)
H1_4 H 0.0344 0.3259 0.9685
C10_4 C 0.3217(8) 0.2658(6) 0.9491(10)
H5_4 H 0.3723 0.2815 0.9139
C11_4 C 0.1137(5) 0.5368(3) 0.8876(4)
H6_4 H 0.1114 0.5709 0.8374
C12_4 C 0.0802(5) 0.4610(3) 0.8893(5)
H7_4 H 0.0513 0.4330 0.8418
C14_4 C 0.2403(8) 0.3133(7) 0.9478(10)
H11_4 H 0.2355 0.3560 0.9071
C21_4 C 0.3292(4) 0.2013(3) 0.9971(5)
C22_4 C 0.4172(4) 0.1501(3) 0.9930(5)
H15_4 H 0.4400 0.1499 0.9311
C23_4 C 0.3577(3) 0.0076(3) 0.9784(4)
C27_4 C 0.3265(6) 0.0146(4) 0.8817(5)
H19_4 H 0.3709 0.0466 0.8489
H21_4 H 0.2657 0.0397 0.8786
N4_4 N 0.3482(3) 0.9436(2) 0.0290(3)
C25_4 C 0.3863(5) 0.9632(3) 0.1124(4)
H17_4 H 0.3886 0.9291 0.1626
H20_4 H 0.3228 0.9618 0.8550
O13_2 O 0.1852(3) 0.8362(2) 0.0982(3)
S1_5 S -0.0000 0.73361(10) 0.2500
S2_5 S 0.0000 0.75107(10) 0.7500
C15_4 C 0.0626(4) 0.8048(3) 0.1929(3)
C16_4 C 0.1322(3) 0.7818(3) 0.1241(3)
C17_4 C 0.0352(6) 0.8800(4) 0.2170(5)
H12_4 H 0.0604 0.9267 0.1924
C18_4 C 0.0616(3) 0.8221(3) 0.8092(3)
O8_4 O 0.1846(3) 0.8532(2) 0.9100(3)
C19_4 C 0.1318(3) 0.7991(3) 0.8801(3)
C20_4 C 0.0363(5) 0.8977(3) 0.7831(5)
H13_4 H 0.0639 0.9443 0.8063
S1_6 S 1.0000 0.73361(10) 0.2500
S2_6 S 1.0000 0.75107(10) 0.7500
C1_4 C 0.9384(3) 0.8221(3) 0.6908(3)
O2_4 O 0.8154(3) 0.8532(2) 0.5900(3)
C3_4 C 0.9374(4) 0.8048(3) 0.3071(3)
C4_4 C 0.8682(3) 0.7991(3) 0.6199(3)
O4_4 O 0.8148(3) 0.8362(2) 0.4018(3)
C7_4 C 0.8678(3) 0.7818(3) 0.3759(3)
C8_4 C 0.9648(6) 0.8800(4) 0.2830(5)
H3_4 H 0.9396 0.9267 0.3076
C9_4 C 0.9637(5) 0.8977(3) 0.7169(5)
H4_4 H 0.9361 0.9443 0.6937
loop_
_geom_bond_atom_site_label_1
_geom_bond_atom_site_label_2
_geom_bond_site_symmetry_1
_geom_bond_site_symmetry_2
Zn1 O2 1_555 1_555
S1 C3 1_555 1_555
S2 C1 1_555 1_555
O1 C4 1_555 1_555
C1 C4 1_555 1_555
O2 C4 1_555 1_555
O3 C7 1_555 1_555
C3 C7 1_555 1_555
O4 Zn1 1_555 1_555
N2 Zn1 1_555 1_555
C7 O4 1_555 1_555
C8 C3 1_555 1_555
H3 C8 1_555 1_555
C9 C1 1_555 1_555
H4 C9 1_555 1_555
C11 N2 1_555 1_555
H6 C11 1_555 1_555
Zn5 O1 1_555 1_555
O9 Zn1 1_555 1_555
O11 Zn1 1_555 1_555
O3 Zn5 1_555 1_555
N1 C5 1_555 1_555
C2 C5 1_555 1_555
C5 H1 1_555 1_555
H2 C5 1_555 1_555
C6 N1 1_555 1_555
C10 H5 1_555 1_555
C12 N1 1_555 1_555
H7 C12 1_555 1_555
C13 C6 1_555 1_555
H8 C13 1_555 1_555
H10 C13 1_555 1_555
C14 C2 1_555 1_555
H11 C14 1_555 1_555
N3 C22 1_555 1_555
C21 C10 1_555 1_555
C22 C21 1_555 1_555
H14 C22 1_555 1_555
H15 C22 1_555 1_555
C23 N3 1_555 1_555
N4 C23 1_555 1_555
C24 C2 1_555 1_555
H16 C24 1_555 1_555
C25 N4 1_555 1_555
H17 C25 1_555 1_555
C26 N3 1_555 1_555
H18 C26 1_555 1_555
C27 C23 1_555 1_555
H19 C27 1_555 1_555
H20 C27 1_555 1_555
H21 C27 1_555 1_555
C28 C21 1_555 1_555
H22 C28 1_555 1_555
Zn5 N4 1_555 1_555
C10 C14 1_555 1_555
C24 C28 1_555 1_555
C25 C26 1_555 1_555
O5 C16 1_555 1_555
C15 S1_2 1_555 1_555
O6 C16 1_555 1_555
C16 C15 1_555 1_555
H12 C17 1_555 1_555
O7 C19 1_555 1_555
C18 S2_2 1_555 1_555
O8 C19 1_555 1_555
C19 C18 1_555 1_555
H13 C20 1_555 1_555
Zn3 O6 1_555 1_555
Zn7 O7 1_555 1_555
C15 C17 1_555 1_555
C18 C20 1_555 1_555
O10 Zn3 1_555 1_555
N5 Zn3 1_555 1_555
C11_2 N5 1_555 1_555
H6_2 C11_2 1_555 1_555
C2_2 C5_2 1_555 1_555
H2_2 C5_2 1_555 1_555
C13_2 C6_2 1_555 1_555
H8_2 C13_2 1_555 1_555
H10_2 C13_2 1_555 1_555
C24_2 C2_2 1_555 1_555
H16_2 C24_2 1_555 1_555
C25_2 N4_2 1_555 1_555
H17_2 C25_2 1_555 1_555
C26_2 N3_2 1_555 1_555
H18_2 C26_2 1_555 1_555
H22_2 C28_2 1_555 1_555
Zn7 N4_2 1_555 1_555
C24_2 C28_2 1_555 1_555
C25_2 C26_2 1_555 1_555
C10_2 H5_2 1_555 1_555
C12_2 N1_2 1_555 1_555
H7_2 C12_2 1_555 1_555
H11_2 C14_2 1_555 1_555
C21_2 C10_2 1_555 1_555
C22_2 C21_2 1_555 1_555
H15_2 C22_2 1_555 1_555
C27_2 C23_2 1_555 1_555
H19_2 C27_2 1_555 1_555
H20_2 C27_2 1_555 1_555
H21_2 C27_2 1_555 1_555
C10_2 C14_2 1_555 1_555
O13 Zn7 1_555 1_555
Zn5 O2_2 1_555 1_555
S1_3 C3_2 1_555 1_555
S2_3 C1_2 1_555 1_555
O9 C4_2 1_555 1_555
C1_2 C4_2 1_555 1_555
O2_2 C4_2 1_555 1_555
O11 C7_2 1_555 1_555
C3_2 C7_2 1_555 1_555
O4_2 Zn5 1_555 1_555
C7_2 O4_2 1_555 1_555
C8_2 C3_2 1_555 1_555
H3_2 C8_2 1_555 1_555
C9_2 C1_2 1_555 1_555
H4_2 C9_2 1_555 1_555
O12 C16_2 1_555 1_555
C15_2 S1_3 1_555 1_555
O13 C16_2 1_555 1_555
C16_2 C15_2 1_555 1_555
C17_2 C8_2 1_555 1_555
H12_2 C17_2 1_555 1_555
O10 C19_2 1_555 1_555
C18_2 S2_3 1_555 1_555
O8_2 C19_2 1_555 1_555
C19_2 C18_2 1_555 1_555
C20_2 C9_2 1_555 1_555
H13_2 C20_2 1_555 1_555
C15_2 C17_2 1_555 1_555
C18_2 C20_2 1_555 1_555
Zn1_2 O2_3 1_555 1_555
S1_4 C3_3 1_555 1_555
S2_4 C1_3 1_555 1_555
O1_2 C4_3 1_555 1_555
C1_3 C4_3 1_555 1_555
O2_3 C4_3 1_555 1_555
O3_2 C7_3 1_555 1_555
N1_3 C5_3 1_555 1_555
C2_3 C5_3 1_555 1_555
C3_3 C7_3 1_555 1_555
O4_3 Zn1_2 1_555 1_555
C5_3 H1_3 1_555 1_555
H2_3 C5_3 1_555 1_555
C6_3 N1_3 1_555 1_555
N2_2 Zn1_2 1_555 1_555
C7_3 O4_3 1_555 1_555
C8_3 C3_3 1_555 1_555
H3_3 C8_3 1_555 1_555
C9_3 C1_3 1_555 1_555
H4_3 C9_3 1_555 1_555
C10_3 H5_3 1_555 1_555
C11_3 N2_2 1_555 1_555
H6_3 C11_3 1_555 1_555
C12_3 N1_3 1_555 1_555
H7_3 C12_3 1_555 1_555
C13_3 C6_3 1_555 1_555
H8_3 C13_3 1_555 1_555
H9_3 C13_3 1_555 1_555
H10_3 C13_3 1_555 1_555
C14_3 C2_3 1_555 1_555
H11_3 C14_3 1_555 1_555
O5_2 C16_3 1_555 1_555
C15_3 S1_4 1_555 1_555
O6_2 C16_3 1_555 1_555
C16_3 C15_3 1_555 1_555
C17_3 C8_3 1_555 1_555
H12_3 C17_3 1_555 1_555
O7_2 C19_3 1_555 1_555
C18_3 S2_4 1_555 1_555
O8_3 C19_3 1_555 1_555
C19_3 C18_3 1_555 1_555
C20_3 C9_3 1_555 1_555
H13_3 C20_3 1_555 1_555
N3_3 C22_3 1_555 1_555
C21_3 C10_3 1_555 1_555
C22_3 C21_3 1_555 1_555
H14_3 C22_3 1_555 1_555
H15_3 C22_3 1_555 1_555
C23_3 N3_3 1_555 1_555
C24_3 C2_3 1_555 1_555
H16_3 C24_3 1_555 1_555
C26_3 N3_3 1_555 1_555
H18_3 C26_3 1_555 1_555
C27_3 C23_3 1_555 1_555
H19_3 C27_3 1_555 1_555
H21_3 C27_3 1_555 1_555
C28_3 C21_3 1_555 1_555
H22_3 C28_3 1_555 1_555
Zn3_2 O6_2 1_555 1_555
Zn5_2 O1_2 1_555 1_555
Zn7_2 O7_2 1_555 1_555
O9_2 Zn1_2 1_555 1_555
O11_2 Zn1_2 1_555 1_555
O3_2 Zn5_2 1_555 1_555
C6_3 N2_2 1_555 1_555
C10_3 C14_3 1_555 1_555
C11_3 C12_3 1_555 1_555
C15_3 C17_3 1_555 1_555
C18_3 C20_3 1_555 1_555
C24_3 C28_3 1_555 1_555
O10_2 Zn3_2 1_555 1_555
N5_2 Zn3_2 1_555 1_555
C25_3 N4_3 1_555 1_555
H17_3 C25_3 1_555 1_555
Zn5_2 N4_3 1_555 1_555
C2_4 C5_4 1_555 1_555
H2_4 C5_4 1_555 1_555
C13_4 C6_4 1_555 1_555
H8_4 C13_4 1_555 1_555
H9_4 C13_4 1_555 1_555
H10_4 C13_4 1_555 1_555
C24_4 C2_4 1_555 1_555
H16_4 C24_4 1_555 1_555
C26_4 N3_4 1_555 1_555
H18_4 C26_4 1_555 1_555
H22_4 C28_4 1_555 1_555
C24_4 C28_4 1_555 1_555
C10_4 H5_4 1_555 1_555
C11_4 N5_2 1_555 1_555
H6_4 C11_4 1_555 1_555
C12_4 N1_4 1_555 1_555
H7_4 C12_4 1_555 1_555
H11_4 C14_4 1_555 1_555
C21_4 C10_4 1_555 1_555
C22_4 C21_4 1_555 1_555
H15_4 C22_4 1_555 1_555
C27_4 C23_4 1_555 1_555
H19_4 C27_4 1_555 1_555
H21_4 C27_4 1_555 1_555
C10_4 C14_4 1_555 1_555
C11_4 C12_4 1_555 1_555
C25_4 N4_4 1_555 1_555
H17_4 C25_4 1_555 1_555
Zn7_2 N4_4 1_555 1_555
O13_2 Zn7_2 1_555 1_555
O12_2 C16_4 1_555 1_555
C15_4 S1_5 1_555 1_555
O13_2 C16_4 1_555 1_555
C16_4 C15_4 1_555 1_555
H12_4 C17_4 1_555 1_555
O10_2 C19_4 1_555 1_555
C18_4 S2_5 1_555 1_555
O8_4 C19_4 1_555 1_555
C19_4 C18_4 1_555 1_555
H13_4 C20_4 1_555 1_555
C15_4 C17_4 1_555 1_555
C18_4 C20_4 1_555 1_555
Zn5_2 O2_4 1_555 1_555
S1_6 C3_4 1_555 1_555
S2_6 C1_4 1_555 1_555
O9_2 C4_4 1_555 1_555
C1_4 C4_4 1_555 1_555
O2_4 C4_4 1_555 1_555
O11_2 C7_4 1_555 1_555
C3_4 C7_4 1_555 1_555
O4_4 Zn5_2 1_555 1_555
C7_4 O4_4 1_555 1_555
C8_4 C3_4 1_555 1_555
H3_4 C8_4 1_555 1_555
C9_4 C1_4 1_555 1_555
H4_4 C9_4 1_555 1_555

#END
