
###############################################################################
#
# This file contains modified crystal structure data generated from the
# MOF subset of the Cambridge Structural Database (CSD) v543 
# hosted by the Cambridge Crystallographic Data Centre (CCDC).
#
# This work is licensed under the Creative Commons
# Attribution-NonCommercial-ShareAlike 4.0 International License.
# To view a copy of this license, visit
# http://creativecommons.org/licenses/by-nc-sa/4.0/
# or send a letter to
# Creative Commons, PO Box 1866, Mountain View, CA 94042, USA.
#
# CIF created using the CSD Python API on 29 September 2022
# The structure has been converted into the P1 space group
# The structure has a 3D framework
# The original CSD entry FIRMUQ is in the trigonal crystal system
# The original CSD entry FIRMUQ is in a Sohncke space group
# The framework has been calculated to contain at least 10.0% void space
# The void calculation uses a probe of radius 1.32A, grid spacing 0.4
# H atom positions have been added when not included in the experimental data
#
###############################################################################

data_FIRMUQ
_chemical_formula_moiety         '(C82 H48 F12 N22 Ni5 O17)n'
_symmetry_cell_setting           triclinic
_symmetry_space_group_name_H-M   'P 1'
_symmetry_Int_Tables_number      1
_space_group_name_Hall           'P 1'
loop_
_symmetry_equiv_pos_site_id
_symmetry_equiv_pos_as_xyz
1 x,y,z
_cell_length_a                   15.1738(9)
_cell_length_b                   15.1738(9)
_cell_length_c                   18.859(3)
_cell_angle_alpha                90
_cell_angle_beta                 90
_cell_angle_gamma                120
_cell_volume                     3760.43
loop_
_atom_site_label
_atom_site_type_symbol
_atom_site_fract_x
_atom_site_fract_y
_atom_site_fract_z
Ni1 Ni 0.164823(18) 0.164823(18) 0.5000
C1 C 0.21127(14) 0.02470(15) 0.41012(10)
C2 C 0.29019(19) 0.0122(2) 0.37006(12)
C3 C 0.3767(2) 0.0238(2) 0.40417(14)
C4 C 0.4478(2) 0.0099(3) 0.37067(17)
C5 C 0.08216(15) 0.14934(14) 0.35281(10)
H1 H 0.0776 0.0859 0.3547
C6 C 0.05100(18) 0.17527(14) 0.29229(10)
H2 H 0.0250 0.1300 0.2545
C7 C 0.05870(16) 0.26928(14) 0.28824(9)
C8 C 0.09668(16) 0.33529(14) 0.34593(10)
H3 H 0.1025 0.3992 0.3447
C9 C 0.12567(15) 0.30150(14) 0.40556(10)
H4 H 0.1510 0.3446 0.4446
C10 C 0.02808(17) 0.30327(14) 0.22320(10)
C11 C -0.0000 0.41719(17) 0.1667
C12 C 0.03127(21) 0.66802(15) 0.22304(10)
H5 H 0.0526 0.7098 0.2629
C13 C 0.03338(21) 0.57778(15) 0.22494(9)
H6 H 0.0570 0.5600 0.2649
C14 C -0.00000(23) 0.51528(16) 0.1667
F1 F 0.38856(14) 0.04261(18) 0.47430(9)
F2 F 0.53106(18) 0.0228(3) 0.40383(12)
N1 N 0.11894(12) 0.21005(11) 0.40959(7)
N2 N 0.0000 0.24089(13) 0.1667
N3 N 0.02710(15) 0.39064(11) 0.22646(8)
N4 N -0.00000(17) 0.69702(12) 0.1667
O1 O 0.23960(9) 0.10880(9) 0.43814(6)
O3 O 0.02734(11) 0.02734(11) 0.5000
O5 O 0.17463(16) 0.05133(11) 0.25522(8)
Ni4 Ni -0.000000(25) 0.835177(18) 0.1667
N7 N 0.21005(11) 0.11894(12) 0.59041(7)
N8 N 0.30298(12) 0.30298(21) 0.5000
O6 O 0.10880(9) 0.23960(9) 0.56186(6)
O2 O 0.12330(12) 0.94867(11) 0.41145(8)
C15 C 0.18657(21) 0.97530(15) 0.25655(10)
C16 C 0.27799(28) 0.9878(2) 0.29661(12)
C17 C 0.3529(3) 0.9762(2) 0.26250(14)
C18 C 0.4379(4) 0.9901(3) 0.29600(17)
F3 F 0.34595(23) 0.95739(18) 0.19237(9)
F4 F 0.50826(35) 0.9772(3) 0.26284(12)
O4 O 0.13080(13) 0.89120(9) 0.22853(6)
H13 H 0.0205376 0.990515 0.454981
H14 H 0.0259968 0.985055 0.540627
C11_2 C 1.0000 0.41719(17) 0.1667
C14_2 C 1.00000(23) 0.51528(16) 0.1667
N2_2 N 1.0000 0.24089(13) 0.1667
N4_2 N 1.00000(17) 0.69702(12) 0.1667
C20 C 0.94900(18) 0.12427(23) 0.04104(10)
H8 H 0.9750 0.1050 0.0788
C21 C 0.94130(16) 0.21058(21) 0.04509(9)
C24 C 0.97192(17) 0.27519(22) 0.11013(10)
N6 N 0.97290(15) 0.36354(19) 0.10687(8)
C25 C 0.96873(21) 0.63675(26) 0.11029(10)
H11 H 0.9474 0.6572 0.0704
C26 C 0.96662(21) 0.54440(26) 0.10839(9)
H12 H 0.9430 0.5030 0.0684
Ni4_2 Ni 1.000000(25) 0.835177(18) 0.1667
C19 C 0.91784(15) 0.06718(21) 0.98052(10)
H7 H 0.9224 0.0083 0.9786
C22 C 0.90332(16) 0.23861(21) 0.98740(10)
H9 H 0.8975 0.2967 0.9886
C23 C 0.87433(15) 0.17583(21) 0.92777(10)
H10 H 0.8490 0.1936 0.8887
N5 N 0.88106(12) 0.09111(16) 0.92374(7)
Ni2 Ni 0.835177(18) 0.000000(25) 0.8333
Ni2_2 Ni 0.835177(18) 1.000000(25) 0.8333
O2_2 O 0.05133(11) 0.17463(16) 0.74478(8)
C15_2 C 0.02470(15) 0.21127(26) 0.58988(10)
C16_2 C 0.0122(2) 0.29019(34) 0.62994(12)
C17_2 C 0.0238(2) 0.3767(4) 0.59583(14)
C18_2 C 0.0099(3) 0.4478(5) 0.62933(17)
F3_2 F 0.04261(18) 0.38856(29) 0.52570(9)
F4_2 F 0.0228(3) 0.53106(46) 0.59617(12)
H13_2 H 0.00948545 0.0300231 0.788314
H14_2 H 0.0149446 0.0409415 0.87396
C1_2 C 0.97530(15) 0.18657(21) 0.74345(10)
C2_2 C 0.9878(2) 0.27799(28) 0.70339(12)
C3_2 C 0.9762(2) 0.3529(3) 0.73750(14)
C4_2 C 0.9901(3) 0.4379(4) 0.70400(17)
F1_2 F 0.95739(18) 0.34595(23) 0.80763(9)
F2_2 F 0.9772(3) 0.50826(35) 0.73716(12)
O1_2 O 0.89120(9) 0.13080(13) 0.77147(6)
O3_2 O 0.97266(11) 0.00000(16) 0.8333
O5_2 O 0.94867(11) 0.12330(19) 0.58855(8)
N8_2 N 0.69702(21) -0.00000(24) 0.8334
C5_2 C 0.85066(14) 0.93282(21) 0.68614(10)
H1_2 H 0.9141 0.9917 0.6880
C6_2 C 0.82473(14) 0.87573(23) 0.62562(10)
H2_2 H 0.8700 0.8950 0.5878
C7_2 C 0.73072(14) 0.78942(21) 0.62157(9)
C8_2 C 0.66471(14) 0.76139(21) 0.67926(10)
H3_2 H 0.6008 0.7033 0.6780
C9_2 C 0.69850(14) 0.82417(21) 0.73889(10)
H4_2 H 0.6554 0.8064 0.7779
C10_2 C 0.69673(14) 0.72481(22) 0.55653(10)
C11_3 C 0.58281(17) 0.58281(17) 0.5000
C12_2 C 0.33198(15) 0.36325(26) 0.55637(10)
H5_2 H 0.2902 0.3428 0.5962
C13_2 C 0.42222(15) 0.45560(26) 0.55827(9)
H6_2 H 0.4400 0.4970 0.5982
C14_3 C 0.48472(16) 0.48472(28) 0.5000
N1_2 N 0.78995(11) 0.90889(16) 0.74292(7)
N2_3 N 0.75911(13) 0.75911(13) 0.5000
N3_2 N 0.60936(11) 0.63646(19) 0.55979(8)
O3_3 O 0.97266(11) 1.00000(16) 0.8333
C19_2 C 0.93282(21) 0.85066(26) 0.31386(10)
H7_2 H 0.9917 0.9141 0.3120
C20_2 C 0.87573(23) 0.82473(29) 0.37438(10)
H8_2 H 0.8950 0.8700 0.4122
C21_2 C 0.78942(21) 0.73072(26) 0.37843(9)
C22_2 C 0.76139(21) 0.66471(26) 0.32074(10)
H9_2 H 0.7033 0.6008 0.3220
C23_2 C 0.82417(21) 0.69850(26) 0.26111(10)
H10_2 H 0.8064 0.6554 0.2221
C24_2 C 0.72481(22) 0.69673(28) 0.44347(10)
N5_2 N 0.90889(16) 0.78995(20) 0.25708(7)
N6_2 N 0.63646(19) 0.60936(24) 0.44021(8)
C25_2 C 0.36325(26) 0.33198(33) 0.44363(10)
H11_2 H 0.3428 0.2902 0.4038
C26_2 C 0.45560(26) 0.42222(33) 0.44173(9)
H12_2 H 0.4970 0.4400 0.4018
N8_3 N 0.69702(21) 1.00000(24) 0.8334
O6_2 O 0.76040(9) 0.86920(13) 0.89519(6)
C11_4 C 0.41719(17) 0.0000 0.8334
C14_4 C 0.51528(28) 0.00000(23) 0.8334
N2_4 N 0.24089(13) -0.0000 0.8334
C19_3 C 0.14934(26) 0.08216(15) 0.64719(10)
H7_3 H 0.0859 0.0776 0.6453
C20_3 C 0.17527(29) 0.05100(18) 0.70771(10)
H8_3 H 0.1300 0.0250 0.7455
C21_3 C 0.26928(26) 0.05870(16) 0.71176(9)
C22_3 C 0.33529(26) 0.09668(16) 0.65407(10)
H9_3 H 0.3992 0.1025 0.6553
C23_3 C 0.30150(26) 0.12567(15) 0.59444(10)
H10_3 H 0.3446 0.1510 0.5554
C24_3 C 0.30327(28) 0.02808(17) 0.77680(10)
N6_3 N 0.39064(24) 0.02710(15) 0.77354(8)
C25_3 C 0.66802(33) 0.03127(21) 0.77696(10)
H11_3 H 0.7098 0.0526 0.7371
C26_3 C 0.57778(33) 0.03338(21) 0.77506(9)
H12_3 H 0.5600 0.0570 0.7351
C5_3 C 0.06718(21) 0.91784(15) 0.01948(10)
H1_3 H 0.0083 0.9224 0.0214
C8_3 C 0.23861(21) 0.90332(16) 0.01260(10)
H3_3 H 0.2967 0.8975 0.0114
C9_3 C 0.17583(21) 0.87433(15) 0.07223(10)
H4_3 H 0.1936 0.8490 0.1113
N1_3 N 0.09111(16) 0.88106(12) 0.07626(7)
O3_4 O 0.00000(16) 0.97266(11) 0.1667
C6_3 C 0.12427(23) 0.94900(18) 0.95896(10)
H2_3 H 0.1050 0.9750 0.9212
C7_3 C 0.21058(21) 0.94130(16) 0.95491(9)
C10_3 C 0.27519(22) 0.97192(17) 0.88987(10)
C11_5 C 0.41719(17) 1.0000 0.8334
C12_3 C 0.63675(26) 0.96873(21) 0.88971(10)
H5_3 H 0.6572 0.9474 0.9296
C13_3 C 0.54440(26) 0.96662(21) 0.89161(9)
H6_3 H 0.5030 0.9430 0.9316
C14_5 C 0.51528(28) 1.00000(23) 0.8334
N2_5 N 0.24089(13) 1.0000 0.8334
N3_3 N 0.36354(19) 0.97290(15) 0.89313(8)
C1_3 C 0.81343(21) 0.78873(14) 0.07679(10)
C2_3 C 0.72201(28) 0.70981(19) 0.03673(12)
C3_3 C 0.6471(3) 0.6233(2) 0.07084(14)
C4_3 C 0.5621(4) 0.5522(2) 0.03734(17)
F1_3 F 0.65405(23) 0.61144(14) 0.14097(9)
F2_3 F 0.49174(35) 0.46894(18) 0.07050(12)
O1_3 O 0.86920(13) 0.76040(9) 0.10481(6)
O2_3 O 0.82537(16) 0.87670(12) 0.07812(8)
O3_5 O 1.00000(16) 0.97266(11) 0.1667
H13_3 H 0.969977 0.979462 0.121647
H14_3 H 0.959059 0.974003 0.207294
C15_3 C 0.78873(26) 0.81343(21) 0.92321(10)
C16_3 C 0.70981(34) 0.72201(28) 0.96327(12)
C17_3 C 0.6233(4) 0.6471(3) 0.92916(14)
C18_3 C 0.5522(5) 0.5621(4) 0.96266(17)
F3_3 F 0.61144(29) 0.65405(23) 0.85903(9)
F4_3 F 0.46894(46) 0.49174(35) 0.92950(12)
O5_3 O 0.87670(19) 0.82537(16) 0.92188(8)
H13_4 H 0.990515 0.0205376 0.545019
H14_4 H 0.985055 0.0259968 0.459373
H13_5 H 0.979462 0.969977 0.878353
H14_5 H 0.974003 0.959059 0.792706
H13_6 H 0.0300231 0.00948545 0.211686
H14_6 H 0.0409415 0.0149446 0.12604
loop_
_geom_bond_atom_site_label_1
_geom_bond_atom_site_label_2
_geom_bond_site_symmetry_1
_geom_bond_site_symmetry_2
Ni1 N1 1_555 1_555
C1 C2 1_555 1_555
C2 C3 1_555 1_555
C3 C4 1_555 1_555
C4 F2 1_555 1_555
C5 H1 1_555 1_555
C6 C5 1_555 1_555
H2 C6 1_555 1_555
C7 C6 1_555 1_555
C8 C7 1_555 1_555
H3 C8 1_555 1_555
C9 C8 1_555 1_555
H4 C9 1_555 1_555
C10 C7 1_555 1_555
C11 C14 1_555 1_555
C12 H5 1_555 1_555
C13 C12 1_555 1_555
H6 C13 1_555 1_555
C14 C13 1_555 1_555
F1 C3 1_555 1_555
N1 C5 1_555 1_555
N2 C10 1_555 1_555
N3 C10 1_555 1_555
N4 C12 1_555 1_555
O1 Ni1 1_555 1_555
O3 Ni1 1_555 1_555
Ni4 N4 1_555 1_555
N7 Ni1 1_555 1_555
N8 Ni1 1_555 1_555
O6 Ni1 1_555 1_555
C1 O1 1_555 1_555
C9 N1 1_555 1_555
C11 N3 1_555 1_555
C15 C16 1_555 1_555
C17 C16 1_555 1_555
F3 C17 1_555 1_555
F4 C18 1_555 1_555
O4 C15 1_555 1_555
Ni4 O4 1_555 1_555
C17 C18 1_555 1_555
C11_2 C14_2 1_555 1_555
H8 C20 1_555 1_555
C21 C20 1_555 1_555
C24 N2_2 1_555 1_555
N6 C11_2 1_555 1_555
C25 N4_2 1_555 1_555
H11 C25 1_555 1_555
C26 C14_2 1_555 1_555
H12 C26 1_555 1_555
Ni4_2 N4_2 1_555 1_555
C21 C24 1_555 1_555
C24 N6 1_555 1_555
C25 C26 1_555 1_555
C19 H7 1_555 1_555
H9 C22 1_555 1_555
C23 C22 1_555 1_555
H10 C23 1_555 1_555
N5 C19 1_555 1_555
Ni2 N5 1_555 1_555
C23 N5 1_555 1_555
C15_2 C16_2 1_555 1_555
C17_2 C16_2 1_555 1_555
F3_2 C17_2 1_555 1_555
F4_2 C18_2 1_555 1_555
O6 C15_2 1_555 1_555
C17_2 C18_2 1_555 1_555
C1_2 C2_2 1_555 1_555
C2_2 C3_2 1_555 1_555
C3_2 C4_2 1_555 1_555
C4_2 F2_2 1_555 1_555
F1_2 C3_2 1_555 1_555
O1_2 Ni2 1_555 1_555
O3_2 Ni2 1_555 1_555
N8_2 Ni2 1_555 1_555
C1_2 O1_2 1_555 1_555
Ni2_2 N1_2 1_555 1_555
C5_2 H1_2 1_555 1_555
C6_2 C5_2 1_555 1_555
H2_2 C6_2 1_555 1_555
C7_2 C6_2 1_555 1_555
C8_2 C7_2 1_555 1_555
H3_2 C8_2 1_555 1_555
C9_2 C8_2 1_555 1_555
H4_2 C9_2 1_555 1_555
C10_2 C7_2 1_555 1_555
C11_3 C14_3 1_555 1_555
C12_2 H5_2 1_555 1_555
C13_2 C12_2 1_555 1_555
H6_2 C13_2 1_555 1_555
C14_3 C13_2 1_555 1_555
N1_2 C5_2 1_555 1_555
N2_3 C10_2 1_555 1_555
N3_2 C10_2 1_555 1_555
N8 C12_2 1_555 1_555
O3_3 Ni2_2 1_555 1_555
C19_2 H7_2 1_555 1_555
C20_2 C19_2 1_555 1_555
H8_2 C20_2 1_555 1_555
C21_2 C20_2 1_555 1_555
C22_2 C21_2 1_555 1_555
H9_2 C22_2 1_555 1_555
C23_2 C22_2 1_555 1_555
H10_2 C23_2 1_555 1_555
C24_2 N2_3 1_555 1_555
N5_2 C19_2 1_555 1_555
N6_2 C11_3 1_555 1_555
C25_2 N8 1_555 1_555
H11_2 C25_2 1_555 1_555
C26_2 C14_3 1_555 1_555
H12_2 C26_2 1_555 1_555
Ni4_2 N5_2 1_555 1_555
N8_3 Ni2_2 1_555 1_555
O6_2 Ni2_2 1_555 1_555
C9_2 N1_2 1_555 1_555
C11_3 N3_2 1_555 1_555
C21_2 C24_2 1_555 1_555
C23_2 N5_2 1_555 1_555
C24_2 N6_2 1_555 1_555
C25_2 C26_2 1_555 1_555
C11_4 C14_4 1_555 1_555
C19_3 H7_3 1_555 1_555
C20_3 C19_3 1_555 1_555
H8_3 C20_3 1_555 1_555
C21_3 C20_3 1_555 1_555
C22_3 C21_3 1_555 1_555
H9_3 C22_3 1_555 1_555
C23_3 C22_3 1_555 1_555
H10_3 C23_3 1_555 1_555
C24_3 N2_4 1_555 1_555
N7 C19_3 1_555 1_555
N6_3 C11_4 1_555 1_555
C25_3 N8_2 1_555 1_555
H11_3 C25_3 1_555 1_555
C26_3 C14_4 1_555 1_555
H12_3 C26_3 1_555 1_555
C21_3 C24_3 1_555 1_555
C23_3 N7 1_555 1_555
C24_3 N6_3 1_555 1_555
C25_3 C26_3 1_555 1_555
Ni4 N1_3 1_555 1_555
C5_3 H1_3 1_555 1_555
H3_3 C8_3 1_555 1_555
C9_3 C8_3 1_555 1_555
H4_3 C9_3 1_555 1_555
N1_3 C5_3 1_555 1_555
O3_4 Ni4 1_555 1_555
C9_3 N1_3 1_555 1_555
H2_3 C6_3 1_555 1_555
C7_3 C6_3 1_555 1_555
C10_3 C7_3 1_555 1_555
C11_5 C14_5 1_555 1_555
C12_3 H5_3 1_555 1_555
C13_3 C12_3 1_555 1_555
H6_3 C13_3 1_555 1_555
C14_5 C13_3 1_555 1_555
N2_5 C10_3 1_555 1_555
N3_3 C10_3 1_555 1_555
N8_3 C12_3 1_555 1_555
C11_5 N3_3 1_555 1_555
C1_3 C2_3 1_555 1_555
C2_3 C3_3 1_555 1_555
C3_3 C4_3 1_555 1_555
C4_3 F2_3 1_555 1_555
F1_3 C3_3 1_555 1_555
O1_3 Ni4_2 1_555 1_555
O2_3 C1_3 1_555 1_555
O3_5 Ni4_2 1_555 1_555
C1_3 O1_3 1_555 1_555
O3_5 H13_3 1_555 1_555
O3_5 H14_3 1_555 1_555
C15_3 C16_3 1_555 1_555
C17_3 C16_3 1_555 1_555
F3_3 C17_3 1_555 1_555
F4_3 C18_3 1_555 1_555
O6_2 C15_3 1_555 1_555
O5_3 C15_3 1_555 1_555
C17_3 C18_3 1_555 1_555
O3_3 H13_5 1_555 1_555
O3_3 H14_5 1_555 1_555

#END
