
###############################################################################
#
# This file contains modified crystal structure data generated from the
# MOF subset of the Cambridge Structural Database (CSD) v543 
# hosted by the Cambridge Crystallographic Data Centre (CCDC).
#
# This work is licensed under the Creative Commons
# Attribution-NonCommercial-ShareAlike 4.0 International License.
# To view a copy of this license, visit
# http://creativecommons.org/licenses/by-nc-sa/4.0/
# or send a letter to
# Creative Commons, PO Box 1866, Mountain View, CA 94042, USA.
#
# CIF created using the CSD Python API on 29 September 2022
# The structure has been converted into the P1 space group
# The structure has a 3D framework
# The original CSD entry FIRNIF is in the trigonal crystal system
# The original CSD entry FIRNIF is in a Sohncke space group
# The framework has been calculated to contain at least 10.0% void space
# The void calculation uses a probe of radius 1.32A, grid spacing 0.4
# H atom positions have been added when not included in the experimental data
#
###############################################################################

data_FIRNIF
_chemical_formula_moiety         '(C82 H54 F6 N22 Ni5 O17)n'
_symmetry_cell_setting           triclinic
_symmetry_space_group_name_H-M   'P 1'
_symmetry_Int_Tables_number      1
_space_group_name_Hall           'P 1'
loop_
_symmetry_equiv_pos_site_id
_symmetry_equiv_pos_as_xyz
1 x,y,z
_cell_length_a                   15.688(2)
_cell_length_b                   15.688(2)
_cell_length_c                   18.678(4)
_cell_angle_alpha                90
_cell_angle_beta                 90
_cell_angle_gamma                120
_cell_volume                     3981.04
loop_
_atom_site_label
_atom_site_type_symbol
_atom_site_fract_x
_atom_site_fract_y
_atom_site_fract_z
Ni1 Ni -0.0000 0.82365(3) 0.8333
O1 O -0.0000 0.9573(2) 0.8333
N7 N 0.0910(2) 0.8698(3) 0.92608(14)
N8 N -0.0000(3) 0.6898(2) 0.8333
O6 O 0.12538(17) 0.88082(24) 0.77020(11)
H16 H 0.0400409 0.998419 0.874093
Ni4 Ni 0.82365(3) -0.0000 0.1666
C23 C 0.7888(3) 0.8246(3) 0.0770(2)
C24 C 0.7142(3) 0.7359(3) 0.0347(3)
C25 C 0.6285(4) 0.6682(4) 0.0720(3)
H14 H 0.6155 0.6818 0.1179
C26 C 0.5641(6) 0.5803(6) 0.0375(5)
F2 F 0.4775(9) 0.5167(8) 0.0655(7)
O4 O 0.75544(17) 0.87462(17) 0.10353(11)
O5 O 0.8740(3) 0.8412(3) 0.0817(2)
Ni4_2 Ni 0.82365(3) 1.0000 0.1666
Ni1_2 Ni 1.0000 0.82365(3) 0.8333
C1 C 0.8238(3) 0.6958(3) 0.73960(19)
H1 H 0.8050 0.6564 0.7803
C2 C 0.7602(3) 0.6637(3) 0.68078(18)
H2 H 0.7009 0.6045 0.6820
C3 C 0.7882(3) 0.7228(3) 0.62104(17)
C4 C 0.8771(3) 0.8094(3) 0.6218(2)
H3 H 0.8974 0.8504 0.5819
C5 C 0.9357(3) 0.8350(3) 0.68204(18)
H4 H 0.9959 0.8933 0.6818
C6 C 0.7237(3) 0.6910(3) 0.55625(17)
C7 C 0.5839(3) 0.5839(3) 0.5000
C8 C 0.3731(3) 0.3372(5) 0.5538(2)
H5 H 0.3556 0.2945 0.5926
C9 C 0.4633(3) 0.4240(5) 0.5573(2)
H6 H 0.5048 0.4379 0.5965
C10 C 0.4897(3) 0.4897(3) 0.5000
C11 C 0.8246(3) 0.7888(3) 0.9230(2)
C12 C 0.7359(3) 0.7142(3) 0.9653(3)
C13 C 0.6682(4) 0.6285(4) 0.9280(3)
H7 H 0.6818 0.6155 0.8821
C14 C 0.5803(6) 0.5641(6) 0.9625(5)
F1 F 0.5167(8) 0.4775(9) 0.9345(7)
N1 N 0.9090(2) 0.7788(2) 0.74059(14)
N2 N 0.6388(2) 0.6054(2) 0.55917(15)
N3 N 0.7537(3) 0.7537(3) 0.5000
N4 N 0.3102(2) 0.3102(2) 0.5000
O1_2 O 1.0000 0.9573(2) 0.8333
O2 O 0.87462(17) 0.75544(17) 0.89647(11)
O3 O 0.8412(3) 0.8740(3) 0.9183(2)
C15 C 0.6958(3) 0.8238(3) 0.26040(19)
H8 H 0.6564 0.8050 0.2197
C16 C 0.6637(3) 0.7602(3) 0.31922(18)
H9 H 0.6045 0.7009 0.3180
C17 C 0.7228(3) 0.7882(3) 0.37896(17)
C18 C 0.8094(3) 0.8771(3) 0.3782(2)
H10 H 0.8504 0.8974 0.4181
C19 C 0.8350(3) 0.9357(3) 0.31796(18)
H11 H 0.8933 0.9959 0.3182
C20 C 0.6910(3) 0.7237(3) 0.44375(17)
N5 N 0.7788(2) 0.9090(2) 0.25941(14)
N6 N 0.6054(2) 0.6388(2) 0.44083(15)
C21 C 0.3372(5) 0.3731(3) 0.4462(2)
H12 H 0.2945 0.3556 0.4074
C22 C 0.4240(5) 0.4633(3) 0.4427(2)
H13 H 0.4379 0.5048 0.4035
Ni2 Ni 0.17635(3) 0.17635(3) 0.5000
N8_2 N 1.0000(3) 0.6898(2) 0.8333
H15 H 0.931411 0.944105 0.838127
C1_2 C 0.3042(3) 0.1280(4) 0.40627(19)
H1_2 H 0.3436 0.1486 0.4470
C2_2 C 0.3363(3) 0.0965(4) 0.34745(18)
H2_2 H 0.3955 0.0964 0.3487
C3_2 C 0.2772(3) 0.0654(4) 0.28771(17)
C4_2 C 0.1906(3) 0.0677(4) 0.2885(2)
H3_2 H 0.1496 0.0470 0.2486
C5_2 C 0.1650(3) 0.1007(4) 0.34871(18)
H4_2 H 0.1067 0.1026 0.3485
C6_2 C 0.3090(3) 0.0327(4) 0.22292(17)
C7_2 C 0.4161(3) 0.0000(4) 0.1667
C8_2 C 0.6628(5) 0.0359(6) 0.2205(2)
H5_2 H 0.7055 0.0611 0.2593
C9_2 C 0.5760(5) 0.0393(6) 0.2240(2)
H6_2 H 0.5621 0.0669 0.2632
C10_2 C 0.5103(3) -0.0000(4) 0.1667
C11_2 C 0.2112(3) 0.0358(4) 0.5897(2)
C12_2 C 0.2858(3) 0.0217(4) 0.6320(3)
C13_2 C 0.3715(4) 0.0397(6) 0.5947(3)
H7_2 H 0.3845 0.0663 0.5488
C14_2 C 0.4359(6) 0.0162(8) 0.6292(5)
F1_2 F 0.5225(9) 0.0392(12) 0.6012(7)
N1_2 N 0.2212(2) 0.1302(3) 0.40726(14)
N2_2 N 0.3946(2) 0.0334(3) 0.22584(15)
N3_2 N 0.2463(3) 0.0000(4) 0.1667
N4_2 N 0.6898(2) 0.0000(3) 0.1667
O1_3 O 0.0427(2) 0.0427(2) 0.5000
O2_2 O 0.24456(17) 0.11918(24) 0.56314(11)
O5_2 O 0.1588(3) 0.0328(4) 0.7484(2)
N7_2 N 0.1302(3) 0.2212(4) 0.59274(14)
O6_2 O 0.11918(24) 0.24456(29) 0.43686(11)
H16_2 H 0.00158063 0.0416215 0.54076
C7_3 C 0.4161(3) 1.0000(4) 0.1667
C10_3 C 0.5103(3) 1.0000(4) 0.1667
N3_3 N 0.2463(3) 1.0000(4) 0.1667
N4_3 N 0.6898(2) 1.0000(3) 0.1667
O3_2 O 0.1260(3) 0.9672(4) 0.5850(2)
C17_2 C 0.2118(3) 0.9346(4) 0.04563(17)
C18_2 C 0.1229(3) 0.9323(4) 0.0449(2)
H10_2 H 0.1026 0.9530 0.0848
C20_2 C 0.2763(3) 0.9673(4) 0.11042(17)
N6_2 N 0.3612(2) 0.9666(3) 0.10750(15)
C21_2 C 0.6269(3) 0.9641(6) 0.1129(2)
H12_2 H 0.6444 0.9389 0.0741
C22_2 C 0.5367(3) 0.9607(6) 0.1094(2)
H13_2 H 0.4952 0.9331 0.0702
C23_2 C 0.1754(3) 0.9642(4) 0.7437(2)
C24_2 C 0.2641(3) 0.9783(4) 0.7014(3)
C25_2 C 0.3318(4) 0.9603(6) 0.7387(3)
H14_2 H 0.3182 0.9337 0.7846
C26_2 C 0.4197(6) 0.9838(8) 0.7042(5)
F2_2 F 0.4833(8) 0.9608(12) 0.7322(7)
H15_2 H 0.0558954 0.987307 0.504793
C15_2 C 0.1762(3) 0.8720(4) 0.92707(19)
H8_2 H 0.1950 0.8514 0.8864
C16_2 C 0.2398(3) 0.9035(4) 0.98589(18)
H9_2 H 0.2991 0.9036 0.9847
C19_2 C 0.0643(3) 0.8993(4) 0.98463(18)
H11_2 H 0.0041 0.8974 0.9849
O3_3 O 0.0328(4) 0.1588(3) 0.2516(2)
C23_3 C 0.0358(4) 0.2112(3) 0.4103(2)
C24_3 C 0.0217(4) 0.2858(3) 0.3680(3)
C25_3 C 0.0397(6) 0.3715(4) 0.4053(3)
H14_3 H 0.0663 0.3845 0.4512
C26_3 C 0.0162(8) 0.4359(6) 0.3708(5)
F2_3 F 0.0392(12) 0.5225(9) 0.3988(7)
H15_3 H 0.0126932 0.0685886 0.17146
C7_4 C -0.0000(4) 0.4161(3) 0.8333
C10_4 C -0.0000(4) 0.5103(3) 0.8333
N3_4 N -0.0000(4) 0.2463(3) 0.8333
C15_3 C 0.1280(4) 0.3042(3) 0.59373(19)
H8_3 H 0.1486 0.3436 0.5530
C16_3 C 0.0965(4) 0.3363(3) 0.65255(18)
H9_3 H 0.0964 0.3955 0.6513
C17_3 C 0.0654(4) 0.2772(3) 0.71229(17)
C18_3 C 0.0677(4) 0.1906(3) 0.7115(2)
H10_3 H 0.0470 0.1496 0.7514
C19_3 C 0.1007(4) 0.1650(3) 0.65129(18)
H11_3 H 0.1026 0.1067 0.6515
C20_3 C 0.0327(4) 0.3090(3) 0.77708(17)
N6_3 N 0.0334(3) 0.3946(2) 0.77416(15)
C21_3 C 0.0359(6) 0.6628(5) 0.7795(2)
H12_3 H 0.0611 0.7055 0.7407
C22_3 C 0.0393(6) 0.5760(5) 0.7760(2)
H13_3 H 0.0669 0.5621 0.7368
C1_3 C 0.8720(4) 0.1762(3) 0.07293(19)
H1_3 H 0.8514 0.1950 0.1136
C2_3 C 0.9035(4) 0.2398(3) 0.01411(18)
H2_3 H 0.9036 0.2991 0.0153
C5_3 C 0.8993(4) 0.0643(3) 0.01537(18)
H4_3 H 0.8974 0.0041 0.0151
C11_3 C 0.9642(4) 0.1754(3) 0.2563(2)
C12_3 C 0.9783(4) 0.2641(3) 0.2986(3)
C13_3 C 0.9603(6) 0.3318(4) 0.2613(3)
H7_3 H 0.9337 0.3182 0.2154
C14_3 C 0.9838(8) 0.4197(6) 0.2958(5)
F1_3 F 0.9608(12) 0.4833(8) 0.2678(7)
N1_3 N 0.8698(3) 0.0910(2) 0.07392(14)
O1_4 O 0.9573(2) -0.0000 0.1666
O2_3 O 0.88082(24) 0.12538(17) 0.22980(11)
O5_3 O 0.9672(4) 0.1260(3) 0.4150(2)
C3_3 C 0.9346(4) 0.2118(3) 0.95437(17)
C4_3 C 0.9323(4) 0.1229(3) 0.9551(2)
H3_3 H 0.9530 0.1026 0.9152
C6_3 C 0.9673(4) 0.2763(3) 0.88958(17)
C7_5 C 1.0000(4) 0.4161(3) 0.8333
C8_3 C 0.9641(6) 0.6269(3) 0.8871(2)
H5_3 H 0.9389 0.6444 0.9259
C9_3 C 0.9607(6) 0.5367(3) 0.8906(2)
H6_3 H 0.9331 0.4952 0.9298
C10_5 C 1.0000(4) 0.5103(3) 0.8333
N2_3 N 0.9666(3) 0.3612(2) 0.89250(15)
N3_5 N 1.0000(4) 0.2463(3) 0.8333
O1_5 O 0.9573(2) 1.0000 0.1666
H16_3 H 0.958378 0.959959 0.207427
H16_4 H 0.998419 0.0400409 0.125907
H15_4 H 0.944105 0.931411 0.161873
H15_5 H 0.0685886 0.0126932 0.82854
H16_5 H 0.959959 0.958378 0.792573
H16_6 H 0.0416215 0.00158063 0.45924
H15_6 H 0.987307 0.0558954 0.495207
loop_
_geom_bond_atom_site_label_1
_geom_bond_atom_site_label_2
_geom_bond_site_symmetry_1
_geom_bond_site_symmetry_2
O1 Ni1 1_555 1_555
N7 Ni1 1_555 1_555
N8 Ni1 1_555 1_555
O6 Ni1 1_555 1_555
O1 H16 1_555 1_555
C23 C24 1_555 1_555
C25 C24 1_555 1_555
H14 C25 1_555 1_555
F2 C26 1_555 1_555
O4 C23 1_555 1_555
O5 C23 1_555 1_555
Ni4_2 O4 1_555 1_555
C25 C26 1_555 1_555
Ni1_2 N1 1_555 1_555
C1 H1 1_555 1_555
C2 C1 1_555 1_555
H2 C2 1_555 1_555
C3 C2 1_555 1_555
C4 C3 1_555 1_555
H3 C4 1_555 1_555
C5 C4 1_555 1_555
H4 C5 1_555 1_555
C6 C3 1_555 1_555
C7 C10 1_555 1_555
C8 H5 1_555 1_555
C9 C8 1_555 1_555
H6 C9 1_555 1_555
C10 C9 1_555 1_555
C11 C12 1_555 1_555
C12 C13 1_555 1_555
C13 H7 1_555 1_555
C14 C13 1_555 1_555
F1 C14 1_555 1_555
N1 C1 1_555 1_555
N2 C6 1_555 1_555
N3 C6 1_555 1_555
N4 C8 1_555 1_555
O1_2 Ni1_2 1_555 1_555
O2 Ni1_2 1_555 1_555
O3 C11 1_555 1_555
C15 H8 1_555 1_555
C16 C15 1_555 1_555
H9 C16 1_555 1_555
C17 C16 1_555 1_555
C18 C17 1_555 1_555
H10 C18 1_555 1_555
C19 C18 1_555 1_555
H11 C19 1_555 1_555
C20 N3 1_555 1_555
N5 C15 1_555 1_555
N6 C7 1_555 1_555
C21 N4 1_555 1_555
H12 C21 1_555 1_555
C22 C10 1_555 1_555
H13 C22 1_555 1_555
Ni2 N4 1_555 1_555
Ni4_2 N5 1_555 1_555
N8_2 Ni1_2 1_555 1_555
C5 N1 1_555 1_555
C7 N2 1_555 1_555
C11 O2 1_555 1_555
C17 C20 1_555 1_555
C19 N5 1_555 1_555
C20 N6 1_555 1_555
C21 C22 1_555 1_555
O1_2 H15 1_555 1_555
Ni2 N1_2 1_555 1_555
C1_2 H1_2 1_555 1_555
C2_2 C1_2 1_555 1_555
H2_2 C2_2 1_555 1_555
C3_2 C2_2 1_555 1_555
C4_2 C3_2 1_555 1_555
H3_2 C4_2 1_555 1_555
C5_2 C4_2 1_555 1_555
H4_2 C5_2 1_555 1_555
C6_2 C3_2 1_555 1_555
C7_2 C10_2 1_555 1_555
C8_2 H5_2 1_555 1_555
C9_2 C8_2 1_555 1_555
H6_2 C9_2 1_555 1_555
C10_2 C9_2 1_555 1_555
C11_2 C12_2 1_555 1_555
C12_2 C13_2 1_555 1_555
C13_2 H7_2 1_555 1_555
C14_2 C13_2 1_555 1_555
F1_2 C14_2 1_555 1_555
N1_2 C1_2 1_555 1_555
N2_2 C6_2 1_555 1_555
N3_2 C6_2 1_555 1_555
N4_2 C8_2 1_555 1_555
O1_3 Ni2 1_555 1_555
O2_2 Ni2 1_555 1_555
Ni4 N4_2 1_555 1_555
N7_2 Ni2 1_555 1_555
O6_2 Ni2 1_555 1_555
C5_2 N1_2 1_555 1_555
C7_2 N2_2 1_555 1_555
C11_2 O2_2 1_555 1_555
O1_3 H16_2 1_555 1_555
C7_3 C10_3 1_555 1_555
C18_2 C17_2 1_555 1_555
H10_2 C18_2 1_555 1_555
C20_2 N3_3 1_555 1_555
N6_2 C7_3 1_555 1_555
C21_2 N4_3 1_555 1_555
H12_2 C21_2 1_555 1_555
C22_2 C10_3 1_555 1_555
H13_2 C22_2 1_555 1_555
C23_2 C24_2 1_555 1_555
C25_2 C24_2 1_555 1_555
H14_2 C25_2 1_555 1_555
F2_2 C26_2 1_555 1_555
O6 C23_2 1_555 1_555
Ni4_2 N4_3 1_555 1_555
C17_2 C20_2 1_555 1_555
C20_2 N6_2 1_555 1_555
C21_2 C22_2 1_555 1_555
C25_2 C26_2 1_555 1_555
C15_2 H8_2 1_555 1_555
C16_2 C15_2 1_555 1_555
H9_2 C16_2 1_555 1_555
H11_2 C19_2 1_555 1_555
N7 C15_2 1_555 1_555
C19_2 N7 1_555 1_555
C23_3 C24_3 1_555 1_555
C25_3 C24_3 1_555 1_555
H14_3 C25_3 1_555 1_555
F2_3 C26_3 1_555 1_555
O6_2 C23_3 1_555 1_555
C25_3 C26_3 1_555 1_555
C7_4 C10_4 1_555 1_555
C15_3 H8_3 1_555 1_555
C16_3 C15_3 1_555 1_555
H9_3 C16_3 1_555 1_555
C17_3 C16_3 1_555 1_555
C18_3 C17_3 1_555 1_555
H10_3 C18_3 1_555 1_555
C19_3 C18_3 1_555 1_555
H11_3 C19_3 1_555 1_555
C20_3 N3_4 1_555 1_555
N7_2 C15_3 1_555 1_555
N6_3 C7_4 1_555 1_555
C21_3 N8 1_555 1_555
H12_3 C21_3 1_555 1_555
C22_3 C10_4 1_555 1_555
H13_3 C22_3 1_555 1_555
C17_3 C20_3 1_555 1_555
C19_3 N7_2 1_555 1_555
C20_3 N6_3 1_555 1_555
C21_3 C22_3 1_555 1_555
Ni4 N1_3 1_555 1_555
C1_3 H1_3 1_555 1_555
C2_3 C1_3 1_555 1_555
H2_3 C2_3 1_555 1_555
H4_3 C5_3 1_555 1_555
C11_3 C12_3 1_555 1_555
C12_3 C13_3 1_555 1_555
C13_3 H7_3 1_555 1_555
C14_3 C13_3 1_555 1_555
F1_3 C14_3 1_555 1_555
N1_3 C1_3 1_555 1_555
O1_4 Ni4 1_555 1_555
O2_3 Ni4 1_555 1_555
C5_3 N1_3 1_555 1_555
C11_3 O2_3 1_555 1_555
C4_3 C3_3 1_555 1_555
H3_3 C4_3 1_555 1_555
C6_3 C3_3 1_555 1_555
C7_5 C10_5 1_555 1_555
C8_3 H5_3 1_555 1_555
C9_3 C8_3 1_555 1_555
H6_3 C9_3 1_555 1_555
C10_5 C9_3 1_555 1_555
N2_3 C6_3 1_555 1_555
N3_5 C6_3 1_555 1_555
N8_2 C8_3 1_555 1_555
C7_5 N2_3 1_555 1_555
O1_5 Ni4_2 1_555 1_555
O1_5 H16_3 1_555 1_555
O1_4 H16_4 1_555 1_555
O1_5 H15_4 1_555 1_555
O1_2 H16_5 1_555 1_555
O1_3 H16_6 1_555 1_555

#END
