
###############################################################################
#
# This file contains modified crystal structure data generated from the
# MOF subset of the Cambridge Structural Database (CSD) v543 
# hosted by the Cambridge Crystallographic Data Centre (CCDC).
#
# This work is licensed under the Creative Commons
# Attribution-NonCommercial-ShareAlike 4.0 International License.
# To view a copy of this license, visit
# http://creativecommons.org/licenses/by-nc-sa/4.0/
# or send a letter to
# Creative Commons, PO Box 1866, Mountain View, CA 94042, USA.
#
# CIF created using the CSD Python API on 29 September 2022
# The structure has been converted into the P1 space group
# The structure has a 3D framework
# The original CSD entry FIRNAX01 is in the trigonal crystal system
# The original CSD entry FIRNAX01 is in a Sohncke space group
# The framework has been calculated to contain at least 10.0% void space
# The void calculation uses a probe of radius 1.32A, grid spacing 0.4
# H atom positions have been added when not included in the experimental data
#
###############################################################################

data_FIRNAX01
_chemical_formula_moiety         '(C82 H54 F6 N22 Ni5 O17)n'
_symmetry_cell_setting           triclinic
_symmetry_space_group_name_H-M   'P 1'
_symmetry_Int_Tables_number      1
_space_group_name_Hall           'P 1'
loop_
_symmetry_equiv_pos_site_id
_symmetry_equiv_pos_as_xyz
1 x,y,z
_cell_length_a                   15.698(2)
_cell_length_b                   15.698(2)
_cell_length_c                   18.557(4)
_cell_angle_alpha                90
_cell_angle_beta                 90
_cell_angle_gamma                120
_cell_volume                     3960.29
loop_
_atom_site_label
_atom_site_type_symbol
_atom_site_fract_x
_atom_site_fract_y
_atom_site_fract_z
O3 O 0.0301(2) 0.1557(2) 0.7482(2)
F2 F 0.0658(7) 0.3921(8) 0.5321(4)
O4 O 0.12049(14) 0.24403(20) 0.56372(9)
C15 C 0.0364(2) 0.2103(3) 0.58952(17)
C16 C 0.0183(3) 0.2834(4) 0.63186(19)
C17 C 0.0354(5) 0.3684(6) 0.5987(3)
C18 C 0.0218(7) 0.4402(9) 0.6320(4)
H8 H 0.0407 0.5001 0.6097
Ni4 Ni 0.17793(3) 0.17793(3) 0.5000
H15 H 0.00642599 0.062481 0.854514
Ni2 Ni -0.0000 0.82207(3) 0.1666
Ni1 Ni 0.82207(3) -0.0000 0.8333
F1 F 0.9342(7) 0.3263(4) 0.8012(4)
O1 O 0.95410(19) -0.0000 0.8333
O2 O 0.87951(14) 0.12354(14) 0.76961(9)
C11 C 0.9636(2) 0.1739(2) 0.74381(17)
C12 C 0.9817(3) 0.2651(3) 0.70147(19)
C13 C 0.9646(5) 0.3330(4) 0.7346(3)
C14 C 0.9782(7) 0.4184(5) 0.7013(4)
H7 H 0.9593 0.4594 0.7236
O5 O 0.9699(2) 0.1256(3) 0.5851(2)
N7 N 0.86699(23) 0.08994(16) 0.92649(11)
N8 N 0.6881(2) -0.0000(3) 0.8333
Ni1_2 Ni 0.82207(3) 1.0000 0.8333
O1_2 O 0.95410(19) 1.0000 0.8333
N1 N 0.77705(17) 0.91006(16) 0.74018(11)
N2 N 0.60452(16) 0.63956(18) 0.55820(12)
N3 N 0.7524(2) 0.7524(2) 0.5000
N4 N 0.3119(2) 0.3119(2) 0.5000
C1 C 0.6934(2) 0.8239(2) 0.73922(15)
H1 H 0.6544 0.8050 0.7804
C2 C 0.6614(2) 0.7613(2) 0.68086(15)
H2 H 0.6020 0.7023 0.6824
C3 C 0.7200(2) 0.7886(2) 0.61994(14)
C4 C 0.8078(2) 0.8762(2) 0.62075(16)
H3 H 0.8497 0.8954 0.5812
C5 C 0.8326(2) 0.9348(2) 0.68093(15)
H4 H 0.8911 0.9948 0.6804
C6 C 0.6893(2) 0.7226(2) 0.55524(15)
C7 C 0.3755(4) 0.3375(2) 0.44516(17)
H5 H 0.3592 0.2943 0.4065
C8 C 0.4625(4) 0.4235(2) 0.44330(17)
H6 H 0.5044 0.4385 0.4040
C9 C 0.4882(2) 0.4882(2) 0.5000
C10 C 0.5831(2) 0.5831(2) 0.5000
N5 N 0.91006(16) 0.77705(17) 0.25982(11)
N6 N 0.63956(18) 0.60452(16) 0.44180(12)
C19 C 0.8239(2) 0.6934(2) 0.26078(15)
H9 H 0.8050 0.6544 0.2196
C20 C 0.7613(2) 0.6614(2) 0.31914(15)
H10 H 0.7023 0.6020 0.3176
C21 C 0.7886(2) 0.7200(2) 0.38006(14)
C22 C 0.8762(2) 0.8078(2) 0.37925(16)
H11 H 0.8954 0.8497 0.4188
C23 C 0.9348(2) 0.8326(2) 0.31907(15)
H12 H 0.9948 0.8911 0.3196
C24 C 0.7226(2) 0.6893(2) 0.44476(15)
C25 C 0.3375(2) 0.3755(4) 0.55484(17)
H13 H 0.2943 0.3592 0.5935
C26 C 0.4235(2) 0.4625(4) 0.55670(17)
H14 H 0.4385 0.5044 0.5960
Ni2_2 Ni 1.0000 0.82207(3) 0.1666
O6 O 0.75597(20) 0.87646(14) 0.89706(9)
N8_2 N 0.6881(2) 1.0000(3) 0.8333
H16 H 0.947027 0.943682 0.862334
N3_2 N 0.2476(2) 0.0000(3) 0.8333
C7_2 C 0.6625(2) 0.0380(4) 0.77849(17)
H5_2 H 0.7057 0.0649 0.7398
C8_2 C 0.5765(2) 0.0390(4) 0.77663(17)
H6_2 H 0.5615 0.0659 0.7373
C9_2 C 0.5118(2) 0.0000(3) 0.8333
C10_2 C 0.4169(2) 0.0000(3) 0.8333
N5_2 N 0.22295(17) 0.13301(23) 0.59315(11)
N6_2 N 0.39548(16) 0.03504(24) 0.77513(12)
C19_2 C 0.3066(2) 0.1305(3) 0.59411(15)
H9_2 H 0.3456 0.1506 0.5529
C20_2 C 0.3386(2) 0.0999(3) 0.65247(15)
H10_2 H 0.3980 0.1003 0.6509
C21_2 C 0.2800(2) 0.0686(3) 0.71339(14)
C22_2 C 0.1922(2) 0.0684(3) 0.71258(16)
H11_2 H 0.1503 0.0457 0.7521
C23_2 C 0.1674(2) 0.1022(3) 0.65240(15)
H12_2 H 0.1089 0.1037 0.6529
C24_2 C 0.3107(2) 0.0333(3) 0.77809(15)
O1_3 O 0.0000 0.95410(19) 0.1666
N1_2 N 0.08994(16) 0.86699(23) 0.07351(11)
C1_2 C 0.1761(2) 0.8695(3) 0.07255(15)
H1_2 H 0.1950 0.8494 0.1137
C2_2 C 0.2387(2) 0.9001(3) 0.01419(15)
H2_2 H 0.2977 0.8997 0.0157
C5_2 C 0.0652(2) 0.8978(3) 0.01426(15)
H4_2 H 0.0052 0.8963 0.0137
O6_2 O 0.12354(14) 0.87951(24) 0.23039(9)
N8_3 N 0.0000(3) 0.6881(4) 0.1667
N2_2 N 0.36044(18) 0.96496(24) 0.89153(12)
N3_3 N 0.2476(2) 1.0000(3) 0.8333
C3_2 C 0.2114(2) 0.9314(3) 0.95327(14)
C4_2 C 0.1238(2) 0.9316(3) 0.95408(16)
H3_2 H 0.1046 0.9543 0.9145
C6_2 C 0.2774(2) 0.9667(3) 0.88857(15)
C9_3 C 0.5118(2) 1.0000(3) 0.8333
C10_3 C 0.4169(2) 1.0000(3) 0.8333
C25_2 C 0.6245(4) 0.9620(4) 0.88817(17)
H13_2 H 0.6408 0.9351 0.9268
C26_2 C 0.5375(4) 0.9610(4) 0.89003(17)
H14_2 H 0.4956 0.9341 0.9293
F1_2 F 0.6737(4) 0.6079(8) 0.1345(4)
O1_4 O 1.0000 0.95410(19) 0.1666
O2_2 O 0.87646(14) 0.75597(20) 0.10294(9)
O3_2 O 0.8443(2) 0.8744(3) 0.0815(2)
C11_2 C 0.8261(2) 0.7897(3) 0.07714(17)
C12_2 C 0.7349(3) 0.7166(4) 0.03480(19)
C13_2 C 0.6670(4) 0.6316(6) 0.0679(3)
C14_2 C 0.5816(5) 0.5598(9) 0.0346(4)
H7_2 H 0.5406 0.4999 0.0569
N8_4 N 1.0000(3) 0.6881(4) 0.1667
H15_2 H 0.937519 0.943945 0.187847
F2_2 F 0.6079(8) 0.6737(11) 0.8655(4)
O5_2 O 0.8744(3) 0.8443(4) 0.9185(2)
C15_2 C 0.7897(3) 0.8261(4) 0.92286(17)
C16_2 C 0.7166(4) 0.7349(5) 0.96520(19)
C17_2 C 0.6316(6) 0.6670(8) 0.9321(3)
C18_2 C 0.5598(9) 0.5816(11) 0.9654(4)
H8_2 H 0.4999 0.5406 0.9431
F1_3 F 0.3921(8) 0.0658(7) 0.4679(4)
O1_5 O 0.04590(19) 0.04590(19) 0.5000
O2_3 O 0.24403(20) 0.12049(14) 0.43628(9)
N1_3 N 0.13301(23) 0.22295(17) 0.40685(11)
N2_3 N 0.03504(24) 0.39548(16) 0.22487(12)
N3_4 N -0.0000(3) 0.2476(2) 0.1667
C1_3 C 0.1305(3) 0.3066(2) 0.40589(15)
H1_3 H 0.1506 0.3456 0.4471
C2_3 C 0.0999(3) 0.3386(2) 0.34753(15)
H2_3 H 0.1003 0.3980 0.3491
C3_3 C 0.0686(3) 0.2800(2) 0.28661(14)
C4_3 C 0.0684(3) 0.1922(2) 0.28742(16)
H3_3 H 0.0457 0.1503 0.2479
C5_3 C 0.1022(3) 0.1674(2) 0.34760(15)
H4_3 H 0.1037 0.1089 0.3471
C6_3 C 0.0333(3) 0.3107(2) 0.22191(15)
C9_4 C -0.0000(3) 0.5118(2) 0.1667
C10_4 C -0.0000(3) 0.4169(2) 0.1667
C11_3 C 0.2103(3) 0.0364(2) 0.41048(17)
C12_3 C 0.2834(4) 0.0183(3) 0.36814(19)
C13_3 C 0.3684(6) 0.0354(5) 0.4013(3)
C14_3 C 0.4402(9) 0.0218(7) 0.3680(4)
H7_3 H 0.5001 0.0407 0.3903
O5_3 O 0.1557(4) 0.0301(2) 0.2518(2)
C25_3 C 0.0380(4) 0.6625(2) 0.22151(17)
H13_3 H 0.0649 0.7057 0.2602
C26_3 C 0.0390(4) 0.5765(2) 0.22337(17)
H14_3 H 0.0659 0.5615 0.2627
O3_3 O 0.1256(3) 0.9699(2) 0.4149(2)
F2_3 F 0.3263(11) 0.9342(7) 0.1988(4)
C15_3 C 0.1739(4) 0.9636(2) 0.25619(17)
C16_3 C 0.2651(5) 0.9817(3) 0.29853(19)
C17_3 C 0.3330(8) 0.9646(5) 0.2654(3)
C18_3 C 0.4184(11) 0.9782(7) 0.2987(4)
H8_3 H 0.4594 0.9593 0.2764
H15_3 H 0.056055 0.993574 0.52118
N3_5 N 1.0000(3) 0.2476(2) 0.1667
C7_3 C 0.9620(4) 0.6245(4) 0.11183(17)
H5_3 H 0.9351 0.6408 0.0732
C8_3 C 0.9610(4) 0.5375(4) 0.10997(17)
H6_3 H 0.9341 0.4956 0.0707
C9_5 C 1.0000(3) 0.5118(2) 0.1667
C10_5 C 1.0000(3) 0.4169(2) 0.1667
N6_3 N 0.96496(24) 0.36044(18) 0.10847(12)
C21_3 C 0.9314(3) 0.2114(2) 0.04673(14)
C22_3 C 0.9316(3) 0.1238(2) 0.04592(16)
H11_3 H 0.9543 0.1046 0.0855
C24_3 C 0.9667(3) 0.2774(2) 0.11143(15)
H16_2 H 0.996656 0.0529735 0.529001
C19_3 C 0.8695(3) 0.1761(2) 0.92745(15)
H9_3 H 0.8494 0.1950 0.8863
C20_3 C 0.9001(3) 0.2387(2) 0.98581(15)
H10_3 H 0.8997 0.2977 0.9843
C23_3 C 0.8978(3) 0.0652(2) 0.98574(15)
H12_3 H 0.8963 0.0052 0.9863
H15_4 H 0.062481 0.00642599 0.145486
H16_3 H 0.943682 0.947027 0.137666
H16_4 H 0.0529735 0.996656 0.470999
H15_5 H 0.993574 0.056055 0.47882
H15_6 H 0.943945 0.937519 0.812153
H16_5 H 0.0563179 0.00334443 0.195668
H16_6 H 0.00334443 0.0563179 0.804332
loop_
_geom_bond_atom_site_label_1
_geom_bond_atom_site_label_2
_geom_bond_site_symmetry_1
_geom_bond_site_symmetry_2
F2 C17 1_555 1_555
O4 C15 1_555 1_555
C15 C16 1_555 1_555
C17 C16 1_555 1_555
H8 C18 1_555 1_555
Ni4 O4 1_555 1_555
C17 C18 1_555 1_555
Ni1 O1 1_555 1_555
F1 C13 1_555 1_555
O2 Ni1 1_555 1_555
C11 O2 1_555 1_555
C12 C11 1_555 1_555
C13 C12 1_555 1_555
C14 C13 1_555 1_555
H7 C14 1_555 1_555
N7 Ni1 1_555 1_555
N8 Ni1 1_555 1_555
Ni1_2 O1_2 1_555 1_555
N1 Ni1_2 1_555 1_555
N2 C6 1_555 1_555
N3 C6 1_555 1_555
N4 C7 1_555 1_555
C1 N1 1_555 1_555
H1 C1 1_555 1_555
C2 C1 1_555 1_555
H2 C2 1_555 1_555
C3 C2 1_555 1_555
C4 C3 1_555 1_555
H3 C4 1_555 1_555
C5 N1 1_555 1_555
H4 C5 1_555 1_555
C6 C3 1_555 1_555
C7 H5 1_555 1_555
C8 C7 1_555 1_555
H6 C8 1_555 1_555
C9 C8 1_555 1_555
C10 N2 1_555 1_555
N5 C19 1_555 1_555
N6 C10 1_555 1_555
C19 H9 1_555 1_555
C20 C19 1_555 1_555
H10 C20 1_555 1_555
C21 C20 1_555 1_555
C22 C21 1_555 1_555
H11 C22 1_555 1_555
C23 N5 1_555 1_555
H12 C23 1_555 1_555
C24 N3 1_555 1_555
C25 N4 1_555 1_555
H13 C25 1_555 1_555
C26 C9 1_555 1_555
H14 C26 1_555 1_555
Ni2_2 N5 1_555 1_555
Ni4 N4 1_555 1_555
O6 Ni1_2 1_555 1_555
N8_2 Ni1_2 1_555 1_555
C4 C5 1_555 1_555
C9 C10 1_555 1_555
N6 C24 1_555 1_555
C21 C24 1_555 1_555
C22 C23 1_555 1_555
C25 C26 1_555 1_555
O1_2 H16 1_555 1_555
N8 C7_2 1_555 1_555
C7_2 H5_2 1_555 1_555
C8_2 C7_2 1_555 1_555
H6_2 C8_2 1_555 1_555
C9_2 C8_2 1_555 1_555
N5_2 C19_2 1_555 1_555
N6_2 C10_2 1_555 1_555
C19_2 H9_2 1_555 1_555
C20_2 C19_2 1_555 1_555
H10_2 C20_2 1_555 1_555
C21_2 C20_2 1_555 1_555
C22_2 C21_2 1_555 1_555
H11_2 C22_2 1_555 1_555
C23_2 N5_2 1_555 1_555
H12_2 C23_2 1_555 1_555
C24_2 N3_2 1_555 1_555
Ni4 N5_2 1_555 1_555
C9_2 C10_2 1_555 1_555
N6_2 C24_2 1_555 1_555
C21_2 C24_2 1_555 1_555
C22_2 C23_2 1_555 1_555
Ni2 O1_3 1_555 1_555
N1_2 Ni2 1_555 1_555
C1_2 N1_2 1_555 1_555
H1_2 C1_2 1_555 1_555
C2_2 C1_2 1_555 1_555
H2_2 C2_2 1_555 1_555
C5_2 N1_2 1_555 1_555
H4_2 C5_2 1_555 1_555
O6_2 Ni2 1_555 1_555
N8_3 Ni2 1_555 1_555
N2_2 C6_2 1_555 1_555
N3_3 C6_2 1_555 1_555
C4_2 C3_2 1_555 1_555
H3_2 C4_2 1_555 1_555
C6_2 C3_2 1_555 1_555
C10_3 N2_2 1_555 1_555
C25_2 N8_2 1_555 1_555
H13_2 C25_2 1_555 1_555
C26_2 C9_3 1_555 1_555
H14_2 C26_2 1_555 1_555
C9_3 C10_3 1_555 1_555
C25_2 C26_2 1_555 1_555
Ni2_2 O1_4 1_555 1_555
F1_2 C13_2 1_555 1_555
O2_2 Ni2_2 1_555 1_555
O3_2 C11_2 1_555 1_555
C11_2 O2_2 1_555 1_555
C12_2 C11_2 1_555 1_555
C13_2 C12_2 1_555 1_555
C14_2 C13_2 1_555 1_555
H7_2 C14_2 1_555 1_555
N8_4 Ni2_2 1_555 1_555
O1_4 H15_2 1_555 1_555
F2_2 C17_2 1_555 1_555
O6 C15_2 1_555 1_555
O5_2 C15_2 1_555 1_555
C15_2 C16_2 1_555 1_555
C17_2 C16_2 1_555 1_555
H8_2 C18_2 1_555 1_555
C17_2 C18_2 1_555 1_555
Ni4 O1_5 1_555 1_555
F1_3 C13_3 1_555 1_555
O2_3 Ni4 1_555 1_555
N1_3 Ni4 1_555 1_555
N2_3 C6_3 1_555 1_555
N3_4 C6_3 1_555 1_555
C1_3 N1_3 1_555 1_555
H1_3 C1_3 1_555 1_555
C2_3 C1_3 1_555 1_555
H2_3 C2_3 1_555 1_555
C3_3 C2_3 1_555 1_555
C4_3 C3_3 1_555 1_555
H3_3 C4_3 1_555 1_555
C5_3 N1_3 1_555 1_555
H4_3 C5_3 1_555 1_555
C6_3 C3_3 1_555 1_555
C10_4 N2_3 1_555 1_555
C11_3 O2_3 1_555 1_555
C12_3 C11_3 1_555 1_555
C13_3 C12_3 1_555 1_555
C14_3 C13_3 1_555 1_555
H7_3 C14_3 1_555 1_555
C25_3 N8_3 1_555 1_555
H13_3 C25_3 1_555 1_555
C26_3 C9_4 1_555 1_555
H14_3 C26_3 1_555 1_555
C4_3 C5_3 1_555 1_555
C9_4 C10_4 1_555 1_555
C25_3 C26_3 1_555 1_555
F2_3 C17_3 1_555 1_555
O6_2 C15_3 1_555 1_555
C15_3 C16_3 1_555 1_555
C17_3 C16_3 1_555 1_555
H8_3 C18_3 1_555 1_555
C17_3 C18_3 1_555 1_555
N8_4 C7_3 1_555 1_555
C7_3 H5_3 1_555 1_555
C8_3 C7_3 1_555 1_555
H6_3 C8_3 1_555 1_555
C9_5 C8_3 1_555 1_555
N6_3 C10_5 1_555 1_555
C22_3 C21_3 1_555 1_555
H11_3 C22_3 1_555 1_555
C24_3 N3_5 1_555 1_555
C9_5 C10_5 1_555 1_555
N6_3 C24_3 1_555 1_555
C21_3 C24_3 1_555 1_555
N7 C19_3 1_555 1_555
C19_3 H9_3 1_555 1_555
C20_3 C19_3 1_555 1_555
H10_3 C20_3 1_555 1_555
C23_3 N7 1_555 1_555
H12_3 C23_3 1_555 1_555
O1_4 H16_3 1_555 1_555
O1_2 H15_6 1_555 1_555

#END
