
###############################################################################
#
# This file contains modified crystal structure data generated from the
# MOF subset of the Cambridge Structural Database (CSD) v543 
# hosted by the Cambridge Crystallographic Data Centre (CCDC).
#
# This work is licensed under the Creative Commons
# Attribution-NonCommercial-ShareAlike 4.0 International License.
# To view a copy of this license, visit
# http://creativecommons.org/licenses/by-nc-sa/4.0/
# or send a letter to
# Creative Commons, PO Box 1866, Mountain View, CA 94042, USA.
#
# CIF created using the CSD Python API on 29 September 2022
# The structure has been converted into the P1 space group
# The structure has a 3D framework
# The original CSD entry FIRNUR is in the trigonal crystal system
# The original CSD entry FIRNUR is in a Sohncke space group
# The framework has been calculated to contain at least 10.0% void space
# The void calculation uses a probe of radius 1.32A, grid spacing 0.4
# H atom positions have been added when not included in the experimental data
#
###############################################################################

data_FIRNUR
_chemical_formula_moiety         '(C82 H66 N28 Ni5 O17)n'
_symmetry_cell_setting           triclinic
_symmetry_space_group_name_H-M   'P 1'
_symmetry_Int_Tables_number      1
_space_group_name_Hall           'P 1'
loop_
_symmetry_equiv_pos_site_id
_symmetry_equiv_pos_as_xyz
1 x,y,z
_cell_length_a                   15.673(3)
_cell_length_b                   15.673(3)
_cell_length_c                   18.532(4)
_cell_angle_alpha                90
_cell_angle_beta                 90
_cell_angle_gamma                120
_cell_volume                     3942.37
loop_
_atom_site_label
_atom_site_type_symbol
_atom_site_fract_x
_atom_site_fract_y
_atom_site_fract_z
Ni3 Ni 0.17763(7) 0.00000(10) 0.1667
Ni4 Ni 0.00000(10) 0.17763(7) 0.8333
O2 O 0.0302(5) 0.8748(5) 0.4165(4)
O4 O 0.1197(3) 0.8745(5) 0.2299(2)
N6 N 0.037(3) 0.5197(34) 0.2607(19)
H10 H 0.0610 0.5277 0.2160
H11 H 0.0439 0.4748 0.2801
C15 C 0.0372(6) 0.8244(8) 0.2576(5)
C16 C 0.0201(7) 0.7361(10) 0.2981(5)
C17 C 0.0370(10) 0.6729(12) 0.2603(6)
H12 H 0.0614 0.6876 0.2135
C18 C 0.0175(14) 0.5871(18) 0.2925(9)
Ni3_2 Ni 0.17763(7) 1.00000(10) 0.1667
N1 N 0.3089(5) 0.0000 0.1667
N3 N 0.7524(5) 0.0000 0.1667
C3 C 0.4890(6) 0.0000 0.1667
C10 C 0.5862(6) 0.0000 0.1667
N8 N 0.6390(7) 0.0351(6) 0.1082(3)
C19 C 0.3734(9) 0.0371(7) 0.1155(4)
H13 H 0.3578 0.0665 0.0781
C20 C 0.4643(9) 0.0394(7) 0.1084(4)
H14 H 0.5044 0.0652 0.0679
C23 C 0.7885(9) 0.0695(7) 0.0461(4)
C24 C 0.8759(9) 0.0682(7) 0.0434(4)
H17 H 0.8942 0.0421 0.0815
C26 C 0.7221(9) 0.0338(7) 0.1097(4)
H20 H 0.949201 0.00603733 0.528622
N7 N 0.9103(6) 0.1321(5) 0.9265(3)
C21 C 0.8215(8) 0.1281(6) 0.9266(4)
H15 H 0.8005 0.1458 0.8852
C22 C 0.7622(8) 0.0984(6) 0.9863(4)
H16 H 0.7029 0.0983 0.9854
C25 C 0.9350(8) 0.1055(6) 0.9846(4)
H18 H 0.9974 0.1122 0.9866
Ni4_2 Ni 1.00000(10) 0.17763(7) 0.8333
Ni1 Ni 0.82237(7) 0.82237(7) 0.5000
O1 O 0.8803(3) 0.7548(4) 0.4368(2)
O3 O 0.9565(4) 0.9565(4) 0.5000
N1_2 N 0.3089(5) 1.0000 0.1667
N2 N 0.7782(4) 0.8679(5) 0.4068(3)
N3_2 N 0.7524(5) 1.0000 0.1667
N4 N 0.6039(4) 0.9649(6) 0.2251(3)
N5 N 0.963(3) 0.4827(17) 0.4060(19)
H1 H 0.9390 0.4667 0.4507
H2 H 0.9561 0.4309 0.3866
C1 C 0.3363(5) 0.9629(7) 0.2178(4)
H3 H 0.2913 0.9335 0.2552
C2 C 0.4249(5) 0.9606(7) 0.2249(4)
H4 H 0.4392 0.9348 0.2654
C3_2 C 0.4890(6) 1.0000 0.1667
C4 C 0.6934(6) 0.8719(6) 0.4067(4)
H5 H 0.6547 0.8542 0.4481
C5 C 0.6638(5) 0.9016(6) 0.3470(4)
H6 H 0.6046 0.9017 0.3479
C6 C 0.7190(6) 0.9305(7) 0.2872(4)
C7 C 0.8077(6) 0.9318(7) 0.2899(4)
H7 H 0.8521 0.9579 0.2518
C8 C 0.8295(6) 0.8945(6) 0.3487(4)
H8 H 0.8852 0.8878 0.3467
C9 C 0.6883(6) 0.9662(7) 0.2236(4)
C10_2 C 0.5862(6) 1.0000 0.1667
C11 C 0.9628(6) 0.7872(6) 0.4091(5)
C12 C 0.9799(7) 0.7160(7) 0.3686(5)
C13 C 0.9630(10) 0.6359(7) 0.4064(6)
H9 H 0.9386 0.6262 0.4532
C14 C 0.9825(14) 0.5696(11) 0.3742(9)
O5 O 0.9698(5) 0.8446(7) 0.2502(4)
O6 O 0.7548(4) 0.8803(3) 0.5632(2)
N9 N 0.6911(5) 0.6911(5) 0.5000
N10 N 0.8679(5) 0.7782(4) 0.5932(3)
H19 H 0.974907 0.980332 0.449638
O1_2 O 0.2452(4) 0.1255(5) 0.1035(2)
O2_2 O 0.1252(5) 0.1554(7) 0.0832(4)
O3_2 O 0.0435(4) -0.0000(6) 0.1667
N5_2 N 0.5173(17) 0.4803(34) 0.0727(19)
H1_2 H 0.5333 0.4723 0.1174
H2_2 H 0.5691 0.5252 0.0533
C11_2 C 0.2128(6) 0.1756(8) 0.0758(5)
C12_2 C 0.2840(7) 0.2639(10) 0.0353(5)
C13_2 C 0.3641(7) 0.3271(12) 0.0731(6)
H9_2 H 0.3738 0.3124 0.1199
C14_2 C 0.4304(11) 0.4129(18) 0.0409(9)
N10_2 N 0.2218(4) 0.0897(6) 0.2599(3)
O4_2 O 0.1255(5) 0.2452(6) 0.8965(2)
O5_2 O 0.1554(7) 0.1252(9) 0.9168(4)
N6_2 N 0.4803(34) 0.5173(45) 0.9273(19)
H10_2 H 0.4723 0.5333 0.8826
H11_2 H 0.5252 0.5691 0.9467
C15_2 C 0.1756(8) 0.2128(10) 0.9242(5)
C16_2 C 0.2639(10) 0.2840(12) 0.9647(5)
C17_2 C 0.3271(12) 0.3641(16) 0.9269(6)
H12_2 H 0.3124 0.3738 0.8801
C18_2 C 0.4129(18) 0.4304(23) 0.9591(9)
O3_3 O 0.0435(4) 1.0000(6) 0.1667
N2_2 N 0.1321(5) 0.9103(6) 0.0735(3)
C4_2 C 0.1281(6) 0.8215(8) 0.0734(4)
H5_2 H 0.1458 0.8005 0.1148
C5_2 C 0.0984(6) 0.7622(8) 0.0137(4)
H6_2 H 0.0983 0.7029 0.0146
C8_2 C 0.1055(6) 0.9350(8) 0.0154(4)
H8_2 H 0.1122 0.9974 0.0134
H19_2 H 0.0196684 0.994575 0.116305
N1_3 N -0.0000 0.3089(5) 0.8334
N3_3 N -0.0000 0.7524(5) 0.8334
N4_2 N 0.0351(6) 0.6390(7) 0.8918(3)
C1_2 C 0.0371(7) 0.3734(9) 0.8845(4)
H3_2 H 0.0665 0.3578 0.9219
C2_2 C 0.0394(7) 0.4643(9) 0.8916(4)
H4_2 H 0.0652 0.5044 0.9321
C3_3 C -0.0000 0.4890(6) 0.8334
C6_2 C 0.0695(7) 0.7885(9) 0.9539(4)
C7_2 C 0.0682(7) 0.8759(9) 0.9566(4)
H7_2 H 0.0421 0.8942 0.9185
C9_2 C 0.0338(7) 0.7221(9) 0.8903(4)
C10_3 C -0.0000 0.5862(6) 0.8334
N1_4 N 1.0000 0.3089(5) 0.8334
N3_4 N 1.0000 0.7524(5) 0.8334
C3_4 C 1.0000 0.4890(6) 0.8334
C10_4 C 1.0000 0.5862(6) 0.8334
N8_2 N 0.9649(6) 0.6039(9) 0.7749(3)
C19_2 C 0.9629(7) 0.3363(11) 0.7822(4)
H13_2 H 0.9335 0.2913 0.7448
C20_2 C 0.9606(7) 0.4249(11) 0.7751(4)
H14_2 H 0.9348 0.4392 0.7346
C21_2 C 0.8719(6) 0.6934(10) 0.5933(4)
H15_2 H 0.8542 0.6547 0.5519
C22_2 C 0.9016(6) 0.6638(10) 0.6530(4)
H16_2 H 0.9017 0.6046 0.6521
C23_2 C 0.9305(7) 0.7190(11) 0.7128(4)
C24_2 C 0.9318(7) 0.8077(11) 0.7101(4)
H17_2 H 0.9579 0.8521 0.7482
C25_2 C 0.8945(6) 0.8295(10) 0.6513(4)
H18_2 H 0.8878 0.8852 0.6533
C26_2 C 0.9662(7) 0.6883(11) 0.7764(4)
O3_4 O 0.0000(6) 0.0435(4) 0.8333
N2_3 N 0.0897(6) 0.2218(4) 0.7401(3)
N3_5 N 0.2476(5) 0.2476(5) 0.5000
N4_3 N 0.3610(7) 0.3961(4) 0.5584(3)
C1_3 C 0.6266(9) 0.6637(5) 0.5511(4)
H3_3 H 0.6422 0.7087 0.5885
C2_3 C 0.5357(9) 0.5751(5) 0.5582(4)
H4_3 H 0.4956 0.5608 0.5987
C3_5 C 0.5110(6) 0.5110(6) 0.5000
C4_3 C 0.1785(8) 0.3066(6) 0.7400(4)
H5_3 H 0.1995 0.3453 0.7814
C5_3 C 0.2378(8) 0.3362(5) 0.6803(4)
H6_3 H 0.2971 0.3954 0.6812
C6_3 C 0.2115(9) 0.2810(6) 0.6205(4)
C7_3 C 0.1241(9) 0.1923(6) 0.6232(4)
H7_3 H 0.1058 0.1479 0.5851
C8_3 C 0.0650(8) 0.1705(6) 0.6820(4)
H8_3 H 0.0026 0.1148 0.6800
C9_3 C 0.2779(9) 0.3117(6) 0.5569(4)
C10_5 C 0.4138(6) 0.4138(6) 0.5000
N8_3 N 0.3961(9) 0.3610(7) 0.4416(3)
C19_3 C 0.6637(11) 0.6266(9) 0.4489(4)
H13_3 H 0.7087 0.6422 0.4115
C20_3 C 0.5751(11) 0.5357(9) 0.4418(4)
H14_3 H 0.5608 0.4956 0.4013
C21_3 C 0.3066(10) 0.1785(8) 0.2600(4)
H15_3 H 0.3453 0.1995 0.2186
C22_3 C 0.3362(10) 0.2378(8) 0.3197(4)
H16_3 H 0.3954 0.2971 0.3188
C23_3 C 0.2810(11) 0.2115(9) 0.3795(4)
C24_3 C 0.1923(11) 0.1241(9) 0.3768(4)
H17_3 H 0.1479 0.1058 0.4149
C25_3 C 0.1705(10) 0.0650(8) 0.3180(4)
H18_3 H 0.1148 0.0026 0.3200
C26_3 C 0.3117(11) 0.2779(9) 0.4431(4)
H19_3 H 0.0054249 0.0250933 0.782971
H20_2 H 0.0568364 0.0507991 0.861955
O1_3 O 0.8745(5) 0.1197(3) 0.7701(2)
O3_5 O 1.0000(6) 0.0435(4) 0.8333
N5_3 N 0.5197(34) 0.037(3) 0.7393(19)
H1_3 H 0.5277 0.0610 0.7840
H2_3 H 0.4748 0.0439 0.7199
C11_3 C 0.8244(8) 0.0372(6) 0.7424(5)
C12_3 C 0.7361(10) 0.0201(7) 0.7019(5)
C13_3 C 0.6729(12) 0.0370(10) 0.7397(6)
H9_3 H 0.6876 0.0614 0.7865
C14_3 C 0.5871(18) 0.0175(14) 0.7075(9)
O5_3 O 0.8748(9) 0.0302(5) 0.5835(4)
O2_3 O 0.8446(7) 0.9698(5) 0.7498(4)
N6_3 N 0.4827(45) 0.963(3) 0.5940(19)
H10_3 H 0.4667 0.9390 0.5493
H11_3 H 0.4309 0.9561 0.6134
C15_3 C 0.7872(10) 0.9628(6) 0.5909(5)
C16_3 C 0.7160(12) 0.9799(7) 0.6314(5)
C17_3 C 0.6359(16) 0.9630(10) 0.5936(6)
H12_3 H 0.6262 0.9386 0.5468
C18_3 C 0.5696(23) 0.9825(14) 0.6258(9)
H20_3 H 0.00603733 0.949201 0.471378
H19_4 H 0.980332 0.974907 0.550362
H19_5 H 0.0250933 0.0054249 0.217029
H20_4 H 0.0507991 0.0568364 0.138045
H19_6 H 0.994575 0.0196684 0.883695
H20_5 H 0.993963 0.943164 0.195289
H20_6 H 0.943164 0.993963 0.804711
loop_
_geom_bond_atom_site_label_1
_geom_bond_atom_site_label_2
_geom_bond_site_symmetry_1
_geom_bond_site_symmetry_2
O4 C15 1_555 1_555
N6 H10 1_555 1_555
H11 N6 1_555 1_555
C15 C16 1_555 1_555
C17 C16 1_555 1_555
H12 C17 1_555 1_555
Ni3_2 O4 1_555 1_555
N6 C18 1_555 1_555
C17 C18 1_555 1_555
N8 C10 1_555 1_555
C19 N1 1_555 1_555
H13 C19 1_555 1_555
C20 C3 1_555 1_555
H14 C20 1_555 1_555
C24 C23 1_555 1_555
H17 C24 1_555 1_555
C26 N3 1_555 1_555
Ni3 N1 1_555 1_555
C3 C10 1_555 1_555
N8 C26 1_555 1_555
C19 C20 1_555 1_555
C23 C26 1_555 1_555
N7 C21 1_555 1_555
C21 H15 1_555 1_555
C22 C21 1_555 1_555
H16 C22 1_555 1_555
C25 N7 1_555 1_555
H18 C25 1_555 1_555
Ni4_2 N7 1_555 1_555
Ni1 O1 1_555 1_555
O1 C11 1_555 1_555
O3 Ni1 1_555 1_555
N1_2 C1 1_555 1_555
N2 Ni1 1_555 1_555
N3_2 C9 1_555 1_555
N4 C9 1_555 1_555
N5 H1 1_555 1_555
H2 N5 1_555 1_555
C1 H3 1_555 1_555
C2 C1 1_555 1_555
H4 C2 1_555 1_555
C3_2 C2 1_555 1_555
C4 N2 1_555 1_555
H5 C4 1_555 1_555
C5 C4 1_555 1_555
H6 C5 1_555 1_555
C6 C5 1_555 1_555
C7 C6 1_555 1_555
H7 C7 1_555 1_555
C8 N2 1_555 1_555
H8 C8 1_555 1_555
C9 C6 1_555 1_555
C10_2 N4 1_555 1_555
C11 C12 1_555 1_555
C12 C13 1_555 1_555
C13 H9 1_555 1_555
C14 N5 1_555 1_555
Ni3_2 N1_2 1_555 1_555
O6 Ni1 1_555 1_555
N9 Ni1 1_555 1_555
N10 Ni1 1_555 1_555
C3_2 C10_2 1_555 1_555
C7 C8 1_555 1_555
C13 C14 1_555 1_555
O3 H19 1_555 1_555
Ni3 O1_2 1_555 1_555
O1_2 C11_2 1_555 1_555
O2_2 C11_2 1_555 1_555
O3_2 Ni3 1_555 1_555
N5_2 H1_2 1_555 1_555
H2_2 N5_2 1_555 1_555
C11_2 C12_2 1_555 1_555
C12_2 C13_2 1_555 1_555
C13_2 H9_2 1_555 1_555
C14_2 N5_2 1_555 1_555
N10_2 Ni3 1_555 1_555
C13_2 C14_2 1_555 1_555
O4_2 C15_2 1_555 1_555
O5_2 C15_2 1_555 1_555
N6_2 H10_2 1_555 1_555
H11_2 N6_2 1_555 1_555
C15_2 C16_2 1_555 1_555
C17_2 C16_2 1_555 1_555
H12_2 C17_2 1_555 1_555
Ni4 O4_2 1_555 1_555
N6_2 C18_2 1_555 1_555
C17_2 C18_2 1_555 1_555
O3_3 Ni3_2 1_555 1_555
N2_2 Ni3_2 1_555 1_555
C4_2 N2_2 1_555 1_555
H5_2 C4_2 1_555 1_555
C5_2 C4_2 1_555 1_555
H6_2 C5_2 1_555 1_555
C8_2 N2_2 1_555 1_555
H8_2 C8_2 1_555 1_555
O3_3 H19_2 1_555 1_555
N1_3 C1_2 1_555 1_555
N3_3 C9_2 1_555 1_555
N4_2 C9_2 1_555 1_555
C1_2 H3_2 1_555 1_555
C2_2 C1_2 1_555 1_555
H4_2 C2_2 1_555 1_555
C3_3 C2_2 1_555 1_555
C7_2 C6_2 1_555 1_555
H7_2 C7_2 1_555 1_555
C9_2 C6_2 1_555 1_555
C10_3 N4_2 1_555 1_555
Ni4 N1_3 1_555 1_555
C3_3 C10_3 1_555 1_555
N10 C21_2 1_555 1_555
N8_2 C10_4 1_555 1_555
C19_2 N1_4 1_555 1_555
H13_2 C19_2 1_555 1_555
C20_2 C3_4 1_555 1_555
H14_2 C20_2 1_555 1_555
C21_2 H15_2 1_555 1_555
C22_2 C21_2 1_555 1_555
H16_2 C22_2 1_555 1_555
C23_2 C22_2 1_555 1_555
C24_2 C23_2 1_555 1_555
H17_2 C24_2 1_555 1_555
C25_2 N10 1_555 1_555
H18_2 C25_2 1_555 1_555
C26_2 N3_4 1_555 1_555
Ni4_2 N1_4 1_555 1_555
C3_4 C10_4 1_555 1_555
N8_2 C26_2 1_555 1_555
C19_2 C20_2 1_555 1_555
C23_2 C26_2 1_555 1_555
C24_2 C25_2 1_555 1_555
O3_4 Ni4 1_555 1_555
N9 C1_3 1_555 1_555
N2_3 Ni4 1_555 1_555
N3_5 C9_3 1_555 1_555
N4_3 C9_3 1_555 1_555
C1_3 H3_3 1_555 1_555
C2_3 C1_3 1_555 1_555
H4_3 C2_3 1_555 1_555
C3_5 C2_3 1_555 1_555
C4_3 N2_3 1_555 1_555
H5_3 C4_3 1_555 1_555
C5_3 C4_3 1_555 1_555
H6_3 C5_3 1_555 1_555
C6_3 C5_3 1_555 1_555
C7_3 C6_3 1_555 1_555
H7_3 C7_3 1_555 1_555
C8_3 N2_3 1_555 1_555
H8_3 C8_3 1_555 1_555
C9_3 C6_3 1_555 1_555
C10_5 N4_3 1_555 1_555
N10_2 C21_3 1_555 1_555
N8_3 C10_5 1_555 1_555
C19_3 N9 1_555 1_555
H13_3 C19_3 1_555 1_555
C20_3 C3_5 1_555 1_555
H14_3 C20_3 1_555 1_555
C21_3 H15_3 1_555 1_555
C22_3 C21_3 1_555 1_555
H16_3 C22_3 1_555 1_555
C23_3 C22_3 1_555 1_555
C24_3 C23_3 1_555 1_555
H17_3 C24_3 1_555 1_555
C25_3 N10_2 1_555 1_555
H18_3 C25_3 1_555 1_555
C26_3 N3_5 1_555 1_555
C3_5 C10_5 1_555 1_555
C7_3 C8_3 1_555 1_555
N8_3 C26_3 1_555 1_555
C19_3 C20_3 1_555 1_555
C23_3 C26_3 1_555 1_555
C24_3 C25_3 1_555 1_555
O3_4 H19_3 1_555 1_555
O3_4 H20_2 1_555 1_555
Ni4_2 O1_3 1_555 1_555
O1_3 C11_3 1_555 1_555
O3_5 Ni4_2 1_555 1_555
N5_3 H1_3 1_555 1_555
H2_3 N5_3 1_555 1_555
C11_3 C12_3 1_555 1_555
C12_3 C13_3 1_555 1_555
C13_3 H9_3 1_555 1_555
C14_3 N5_3 1_555 1_555
C13_3 C14_3 1_555 1_555
O6 C15_3 1_555 1_555
N6_3 H10_3 1_555 1_555
H11_3 N6_3 1_555 1_555
C15_3 C16_3 1_555 1_555
C17_3 C16_3 1_555 1_555
H12_3 C17_3 1_555 1_555
N6_3 C18_3 1_555 1_555
C17_3 C18_3 1_555 1_555
O3 H19_4 1_555 1_555
O3_2 H19_5 1_555 1_555
O3_2 H20_4 1_555 1_555
O3_5 H19_6 1_555 1_555

#END
