
###############################################################################
#
# This file contains modified crystal structure data generated from the
# MOF subset of the Cambridge Structural Database (CSD) v543 
# hosted by the Cambridge Crystallographic Data Centre (CCDC).
#
# This work is licensed under the Creative Commons
# Attribution-NonCommercial-ShareAlike 4.0 International License.
# To view a copy of this license, visit
# http://creativecommons.org/licenses/by-nc-sa/4.0/
# or send a letter to
# Creative Commons, PO Box 1866, Mountain View, CA 94042, USA.
#
# CIF created using the CSD Python API on 29 September 2022
# The structure has been converted into the P1 space group
# The structure has a 3D framework
# The original CSD entry FIRNOL is in the trigonal crystal system
# The original CSD entry FIRNOL is in a Sohncke space group
# The framework has been calculated to contain at least 10.0% void space
# The void calculation uses a probe of radius 1.32A, grid spacing 0.4
# H atom positions have been added when not included in the experimental data
#
###############################################################################

data_FIRNOL
_chemical_formula_moiety         '(C82 H54 N28 Ni5 O29)n'
_symmetry_cell_setting           triclinic
_symmetry_space_group_name_H-M   'P 1'
_symmetry_Int_Tables_number      1
_space_group_name_Hall           'P 1'
loop_
_symmetry_equiv_pos_site_id
_symmetry_equiv_pos_as_xyz
1 x,y,z
_cell_length_a                   15.638(2)
_cell_length_b                   15.638(2)
_cell_length_c                   18.499(4)
_cell_angle_alpha                90
_cell_angle_beta                 90
_cell_angle_gamma                120
_cell_volume                     3917.79
loop_
_atom_site_label
_atom_site_type_symbol
_atom_site_fract_x
_atom_site_fract_y
_atom_site_fract_z
H16 H 0.0565994 0.00676608 0.804243
Ni1 Ni -0.0000 0.82381(5) 0.8333
O3 O -0.0000 0.9573(3) 0.8333
O10 O 0.1248(3) 0.8810(4) 0.76930(17)
N9 N 0.0918(3) 0.8704(4) 0.92566(19)
N10 N 0.0000(6) 0.6896(4) 0.8333
H15 H 0.00607342 0.981503 0.883713
Ni4 Ni 0.82381(5) -0.0000 0.1666
O6 O 0.7562(3) 0.8752(3) 0.10263(17)
O7 O 0.8741(4) 0.8424(4) 0.0805(3)
O8 O 0.454(3) 0.528(3) 0.1363(17)
O9 O 0.4037(19) 0.461(2) 0.0310(15)
N6 N 0.4634(16) 0.526(2) 0.0708(17)
C15 C 0.7892(5) 0.8261(5) 0.0761(3)
C16 C 0.7153(5) 0.7366(5) 0.0346(4)
C17 C 0.6310(7) 0.6712(7) 0.0722(6)
H8 H 0.6214 0.6833 0.1199
C18 C 0.5609(9) 0.5862(8) 0.0359(8)
Ni4_2 Ni 0.82381(5) 1.0000 0.1666
Ni1_2 Ni 1.0000 0.82381(5) 0.8333
O1 O 0.8752(3) 0.7562(3) 0.89737(17)
O2 O 0.8424(4) 0.8741(4) 0.9195(3)
O3_2 O 1.0000 0.9573(3) 0.8333
O4 O 0.528(3) 0.454(3) 0.8637(17)
O5 O 0.461(2) 0.4037(19) 0.9690(15)
N1 N 0.9082(3) 0.7786(3) 0.74101(19)
N2 N 0.7516(4) 0.7516(4) 0.5000
N3 N 0.6373(3) 0.6044(3) 0.5588(2)
N4 N 0.3104(4) 0.3104(4) 0.5000
N5 N 0.526(2) 0.4634(16) 0.9292(17)
C1 C 0.8242(4) 0.6945(4) 0.7396(3)
H1 H 0.8055 0.6544 0.7804
C2 C 0.7631(4) 0.6634(4) 0.6804(3)
H2 H 0.7053 0.6024 0.6812
C3 C 0.7867(4) 0.7216(4) 0.6206(2)
C4 C 0.8744(4) 0.8097(4) 0.6227(3)
H3 H 0.8947 0.8513 0.5827
C5 C 0.9313(4) 0.8360(4) 0.6830(3)
H4 H 0.9891 0.8969 0.6838
C6 C 0.7220(4) 0.6898(4) 0.5569(2)
C7 C 0.5829(5) 0.5829(5) 0.5000
C8 C 0.3380(4) 0.3729(6) 0.4450(3)
H5 H 0.2954 0.3561 0.4058
C9 C 0.4240(4) 0.4594(6) 0.4421(3)
H6 H 0.4399 0.4995 0.4014
C10 C 0.4882(4) 0.4882(4) 0.5000
C11 C 0.8261(5) 0.7892(5) 0.9239(3)
C12 C 0.7366(5) 0.7153(5) 0.9654(4)
C13 C 0.6712(7) 0.6310(7) 0.9278(6)
H7 H 0.6833 0.6214 0.8801
C14 C 0.5862(8) 0.5609(9) 0.9641(8)
N7 N 0.7786(3) 0.9082(3) 0.25899(19)
N8 N 0.6044(3) 0.6373(3) 0.4412(2)
C19 C 0.6945(4) 0.8242(4) 0.2604(3)
H9 H 0.6544 0.8055 0.2196
C20 C 0.6634(4) 0.7631(4) 0.3196(3)
H10 H 0.6024 0.7053 0.3188
C21 C 0.7216(4) 0.7867(4) 0.3794(2)
C22 C 0.8097(4) 0.8744(4) 0.3773(3)
H11 H 0.8513 0.8947 0.4173
C23 C 0.8360(4) 0.9313(4) 0.3170(3)
H12 H 0.8969 0.9891 0.3162
C24 C 0.6898(4) 0.7220(4) 0.4431(2)
C25 C 0.3729(6) 0.3380(4) 0.5550(3)
H13 H 0.3561 0.2954 0.5942
C26 C 0.4594(6) 0.4240(4) 0.5579(3)
H14 H 0.4995 0.4399 0.5986
Ni2 Ni 0.17619(5) 0.17619(5) 0.5000
N10_2 N 1.0000(6) 0.6896(4) 0.8333
O1_2 O 0.2438(3) 0.1190(4) 0.56404(17)
O3_3 O 0.0427(3) 0.0427(3) 0.5000
O4_2 O 0.546(3) 0.074(4) 0.5304(17)
O5_2 O 0.5963(19) 0.0573(28) 0.6357(15)
N1_2 N 0.2214(3) 0.1296(4) 0.40768(19)
N2_2 N 0.2484(4) 0.0000(6) 0.1667
N3_2 N 0.3956(3) 0.0329(4) 0.2255(2)
N4_2 N 0.6896(4) 0.0000(6) 0.1667
N5_2 N 0.5366(16) 0.0626(26) 0.5959(17)
C1_2 C 0.3055(4) 0.1297(6) 0.4063(3)
H1_2 H 0.3456 0.1511 0.4471
C2_2 C 0.3366(4) 0.0997(6) 0.3471(3)
H2_2 H 0.3976 0.1029 0.3479
C3_2 C 0.2784(4) 0.0651(6) 0.2873(2)
C4_2 C 0.1903(4) 0.0647(6) 0.2894(3)
H3_2 H 0.1487 0.0434 0.2494
C5_2 C 0.1640(4) 0.0953(6) 0.3497(3)
H4_2 H 0.1031 0.0922 0.3505
C6_2 C 0.3102(4) 0.0322(6) 0.2236(2)
C7_2 C 0.4171(5) 0.0000(7) 0.1667
C10_2 C 0.5118(4) 0.0000(6) 0.1667
C11_2 C 0.2108(5) 0.0369(7) 0.5906(3)
C12_2 C 0.2847(5) 0.0213(7) 0.6321(4)
C13_2 C 0.3690(7) 0.0402(10) 0.5945(6)
H7_2 H 0.3786 0.0619 0.5468
C14_2 C 0.4391(9) 0.0253(12) 0.6308(8)
O7_2 O 0.1576(4) 0.0317(6) 0.7472(3)
C25_2 C 0.6620(4) 0.0349(7) 0.2217(3)
H13_2 H 0.7046 0.0607 0.2609
C26_2 C 0.5760(4) 0.0354(7) 0.2246(3)
H14_2 H 0.5601 0.0596 0.2653
O10_2 O 0.1190(4) 0.2438(5) 0.43596(17)
N9_2 N 0.1296(4) 0.2214(5) 0.59232(19)
H15_2 H 0.0184969 0.0245703 0.55038
O2_2 O 0.1259(4) 0.9683(6) 0.5862(3)
N2_3 N 0.2484(4) 1.0000(6) 0.1667
N4_3 N 0.6896(4) 1.0000(6) 0.1667
C7_3 C 0.4171(5) 1.0000(7) 0.1667
C8_2 C 0.6271(6) 0.9651(7) 0.1117(3)
H5_2 H 0.6439 0.9393 0.0725
C9_2 C 0.5406(6) 0.9646(7) 0.1088(3)
H6_2 H 0.5005 0.9404 0.0681
C10_3 C 0.5118(4) 1.0000(6) 0.1667
O8_2 O 0.472(3) 0.926(4) 0.8030(17)
O9_2 O 0.539(2) 0.9427(28) 0.6977(15)
N6_2 N 0.474(2) 0.9374(26) 0.7375(17)
C15_2 C 0.1739(5) 0.9631(7) 0.7428(3)
C16_2 C 0.2634(5) 0.9787(7) 0.7013(4)
C17_2 C 0.3288(7) 0.9598(10) 0.7389(6)
H8_2 H 0.3167 0.9381 0.7866
C18_2 C 0.4138(8) 0.9747(12) 0.7026(8)
N8_2 N 0.3627(3) 0.9671(4) 0.1079(2)
C21_2 C 0.2133(4) 0.9349(6) 0.0461(2)
C22_2 C 0.1256(4) 0.9353(6) 0.0440(3)
H11_2 H 0.1053 0.9566 0.0840
C24_2 C 0.2780(4) 0.9678(6) 0.1098(2)
C19_2 C 0.1758(4) 0.8703(6) 0.9271(3)
H9_2 H 0.1945 0.8489 0.8863
C20_2 C 0.2369(4) 0.9003(6) 0.9863(3)
H10_2 H 0.2947 0.8971 0.9855
C23_2 C 0.0687(4) 0.9047(6) 0.9837(3)
H12_2 H 0.0109 0.9078 0.9829
O2_3 O 0.0317(6) 0.1576(4) 0.2528(3)
O8_3 O 0.074(4) 0.546(3) 0.4696(17)
O9_3 O 0.0573(28) 0.5963(19) 0.3643(15)
N6_3 N 0.0626(26) 0.5366(16) 0.4041(17)
C15_3 C 0.0369(7) 0.2108(5) 0.4094(3)
C16_3 C 0.0213(7) 0.2847(5) 0.3679(4)
C17_3 C 0.0402(10) 0.3690(7) 0.4055(6)
H8_3 H 0.0619 0.3786 0.4532
C18_3 C 0.0253(12) 0.4391(9) 0.3692(8)
N2_4 N -0.0000(6) 0.2484(4) 0.8333
C7_4 C -0.0000(7) 0.4171(5) 0.8333
C8_3 C 0.0349(7) 0.6620(4) 0.7783(3)
H5_3 H 0.0607 0.7046 0.7391
C9_3 C 0.0354(7) 0.5760(4) 0.7754(3)
H6_3 H 0.0596 0.5601 0.7347
C10_4 C -0.0000(6) 0.5118(4) 0.8333
N8_3 N 0.0329(4) 0.3956(3) 0.7745(2)
C19_3 C 0.1297(6) 0.3055(4) 0.5937(3)
H9_3 H 0.1511 0.3456 0.5529
C20_3 C 0.0997(6) 0.3366(4) 0.6529(3)
H10_3 H 0.1029 0.3976 0.6521
C21_3 C 0.0651(6) 0.2784(4) 0.7127(2)
C22_3 C 0.0647(6) 0.1903(4) 0.7106(3)
H11_3 H 0.0434 0.1487 0.7506
C23_3 C 0.0953(6) 0.1640(4) 0.6503(3)
H12_3 H 0.0922 0.1031 0.6495
C24_3 C 0.0322(6) 0.3102(4) 0.7764(2)
O1_3 O 0.8810(4) 0.1248(3) 0.23070(17)
O3_4 O 0.9573(3) 0.0000 0.1666
O4_3 O 0.926(4) 0.472(3) 0.1970(17)
O5_3 O 0.9427(28) 0.539(2) 0.3023(15)
N1_3 N 0.8704(4) 0.0918(3) 0.07434(19)
N5_3 N 0.9374(26) 0.474(2) 0.2625(17)
C1_3 C 0.8703(6) 0.1758(4) 0.0729(3)
H1_3 H 0.8489 0.1945 0.1137
C2_3 C 0.9003(6) 0.2369(4) 0.0137(3)
H2_3 H 0.8971 0.2947 0.0145
C5_3 C 0.9047(6) 0.0687(4) 0.0163(3)
H4_3 H 0.9078 0.0109 0.0171
C11_3 C 0.9631(7) 0.1739(5) 0.2572(3)
C12_3 C 0.9787(7) 0.2634(5) 0.2987(4)
C13_3 C 0.9598(10) 0.3288(7) 0.2611(6)
H7_3 H 0.9381 0.3167 0.2134
C14_3 C 0.9747(12) 0.4138(8) 0.2974(8)
O7_3 O 0.9683(6) 0.1259(4) 0.4138(3)
N2_5 N 1.0000(6) 0.2484(4) 0.8333
N3_3 N 0.9671(4) 0.3627(3) 0.8921(2)
C3_3 C 0.9349(6) 0.2133(4) 0.9539(2)
C4_3 C 0.9353(6) 0.1256(4) 0.9560(3)
H3_3 H 0.9566 0.1053 0.9160
C6_3 C 0.9678(6) 0.2780(4) 0.8902(2)
C7_5 C 1.0000(7) 0.4171(5) 0.8333
C10_5 C 1.0000(6) 0.5118(4) 0.8333
C25_3 C 0.9651(7) 0.6271(6) 0.8883(3)
H13_3 H 0.9393 0.6439 0.9275
C26_3 C 0.9646(7) 0.5406(6) 0.8912(3)
H14_3 H 0.9404 0.5005 0.9319
O3_5 O 0.9573(3) 1.0000 0.1666
H15_3 H 0.97543 0.993927 0.217046
H16_2 H 0.950167 0.943401 0.137576
H15_4 H 0.981503 0.00607342 0.116287
H15_5 H 0.993927 0.97543 0.782954
H16_3 H 0.943401 0.950167 0.862424
H15_6 H 0.0245703 0.0184969 0.44962
H16_4 H 0.993234 0.0498333 0.47091
H16_5 H 0.00676608 0.0565994 0.195757
H16_6 H 0.0498333 0.993234 0.52909
loop_
_geom_bond_atom_site_label_1
_geom_bond_atom_site_label_2
_geom_bond_site_symmetry_1
_geom_bond_site_symmetry_2
O3 Ni1 1_555 1_555
O10 Ni1 1_555 1_555
N9 Ni1 1_555 1_555
N10 Ni1 1_555 1_555
O3 H15 1_555 1_555
O6 C15 1_555 1_555
O7 C15 1_555 1_555
O8 N6 1_555 1_555
O9 N6 1_555 1_555
N6 C18 1_555 1_555
C15 C16 1_555 1_555
C17 C16 1_555 1_555
H8 C17 1_555 1_555
Ni4_2 O6 1_555 1_555
C17 C18 1_555 1_555
Ni1_2 O1 1_555 1_555
O1 C11 1_555 1_555
O2 C11 1_555 1_555
O3_2 Ni1_2 1_555 1_555
O4 N5 1_555 1_555
O5 N5 1_555 1_555
N1 Ni1_2 1_555 1_555
N2 C6 1_555 1_555
N3 C6 1_555 1_555
N4 C8 1_555 1_555
N5 C14 1_555 1_555
C1 N1 1_555 1_555
H1 C1 1_555 1_555
C2 C1 1_555 1_555
H2 C2 1_555 1_555
C3 C2 1_555 1_555
C4 C3 1_555 1_555
H3 C4 1_555 1_555
C5 N1 1_555 1_555
H4 C5 1_555 1_555
C6 C3 1_555 1_555
C7 N3 1_555 1_555
C8 H5 1_555 1_555
C9 C8 1_555 1_555
H6 C9 1_555 1_555
C10 C7 1_555 1_555
C11 C12 1_555 1_555
C12 C13 1_555 1_555
C13 H7 1_555 1_555
C14 C13 1_555 1_555
N7 C19 1_555 1_555
N8 C7 1_555 1_555
C19 H9 1_555 1_555
C20 C19 1_555 1_555
H10 C20 1_555 1_555
C21 C20 1_555 1_555
C22 C21 1_555 1_555
H11 C22 1_555 1_555
C23 N7 1_555 1_555
H12 C23 1_555 1_555
C24 N2 1_555 1_555
C25 N4 1_555 1_555
H13 C25 1_555 1_555
C26 C10 1_555 1_555
H14 C26 1_555 1_555
Ni2 N4 1_555 1_555
Ni4_2 N7 1_555 1_555
N10_2 Ni1_2 1_555 1_555
C4 C5 1_555 1_555
C9 C10 1_555 1_555
N8 C24 1_555 1_555
C21 C24 1_555 1_555
C22 C23 1_555 1_555
C25 C26 1_555 1_555
Ni2 O1_2 1_555 1_555
O1_2 C11_2 1_555 1_555
O3_3 Ni2 1_555 1_555
O4_2 N5_2 1_555 1_555
O5_2 N5_2 1_555 1_555
N1_2 Ni2 1_555 1_555
N2_2 C6_2 1_555 1_555
N3_2 C6_2 1_555 1_555
N5_2 C14_2 1_555 1_555
C1_2 N1_2 1_555 1_555
H1_2 C1_2 1_555 1_555
C2_2 C1_2 1_555 1_555
H2_2 C2_2 1_555 1_555
C3_2 C2_2 1_555 1_555
C4_2 C3_2 1_555 1_555
H3_2 C4_2 1_555 1_555
C5_2 N1_2 1_555 1_555
H4_2 C5_2 1_555 1_555
C6_2 C3_2 1_555 1_555
C7_2 N3_2 1_555 1_555
C10_2 C7_2 1_555 1_555
C11_2 C12_2 1_555 1_555
C12_2 C13_2 1_555 1_555
C13_2 H7_2 1_555 1_555
C14_2 C13_2 1_555 1_555
C25_2 N4_2 1_555 1_555
H13_2 C25_2 1_555 1_555
C26_2 C10_2 1_555 1_555
H14_2 C26_2 1_555 1_555
Ni4 N4_2 1_555 1_555
O10_2 Ni2 1_555 1_555
N9_2 Ni2 1_555 1_555
C4_2 C5_2 1_555 1_555
C25_2 C26_2 1_555 1_555
O3_3 H15_2 1_555 1_555
N4_3 C8_2 1_555 1_555
C8_2 H5_2 1_555 1_555
C9_2 C8_2 1_555 1_555
H6_2 C9_2 1_555 1_555
C10_3 C7_3 1_555 1_555
O10 C15_2 1_555 1_555
O8_2 N6_2 1_555 1_555
O9_2 N6_2 1_555 1_555
N6_2 C18_2 1_555 1_555
C15_2 C16_2 1_555 1_555
C17_2 C16_2 1_555 1_555
H8_2 C17_2 1_555 1_555
N8_2 C7_3 1_555 1_555
C22_2 C21_2 1_555 1_555
H11_2 C22_2 1_555 1_555
C24_2 N2_3 1_555 1_555
Ni4_2 N4_3 1_555 1_555
C9_2 C10_3 1_555 1_555
C17_2 C18_2 1_555 1_555
N8_2 C24_2 1_555 1_555
C21_2 C24_2 1_555 1_555
N9 C19_2 1_555 1_555
C19_2 H9_2 1_555 1_555
C20_2 C19_2 1_555 1_555
H10_2 C20_2 1_555 1_555
C23_2 N9 1_555 1_555
H12_2 C23_2 1_555 1_555
O10_2 C15_3 1_555 1_555
O8_3 N6_3 1_555 1_555
O9_3 N6_3 1_555 1_555
N6_3 C18_3 1_555 1_555
C15_3 C16_3 1_555 1_555
C17_3 C16_3 1_555 1_555
H8_3 C17_3 1_555 1_555
C17_3 C18_3 1_555 1_555
N10 C8_3 1_555 1_555
C8_3 H5_3 1_555 1_555
C9_3 C8_3 1_555 1_555
H6_3 C9_3 1_555 1_555
C10_4 C7_4 1_555 1_555
N9_2 C19_3 1_555 1_555
N8_3 C7_4 1_555 1_555
C19_3 H9_3 1_555 1_555
C20_3 C19_3 1_555 1_555
H10_3 C20_3 1_555 1_555
C21_3 C20_3 1_555 1_555
C22_3 C21_3 1_555 1_555
H11_3 C22_3 1_555 1_555
C23_3 N9_2 1_555 1_555
H12_3 C23_3 1_555 1_555
C24_3 N2_4 1_555 1_555
C9_3 C10_4 1_555 1_555
N8_3 C24_3 1_555 1_555
C21_3 C24_3 1_555 1_555
C22_3 C23_3 1_555 1_555
Ni4 O1_3 1_555 1_555
O1_3 C11_3 1_555 1_555
O3_4 Ni4 1_555 1_555
O4_3 N5_3 1_555 1_555
O5_3 N5_3 1_555 1_555
N1_3 Ni4 1_555 1_555
N5_3 C14_3 1_555 1_555
C1_3 N1_3 1_555 1_555
H1_3 C1_3 1_555 1_555
C2_3 C1_3 1_555 1_555
H2_3 C2_3 1_555 1_555
C5_3 N1_3 1_555 1_555
H4_3 C5_3 1_555 1_555
C11_3 C12_3 1_555 1_555
C12_3 C13_3 1_555 1_555
C13_3 H7_3 1_555 1_555
C14_3 C13_3 1_555 1_555
N2_5 C6_3 1_555 1_555
N3_3 C6_3 1_555 1_555
C4_3 C3_3 1_555 1_555
H3_3 C4_3 1_555 1_555
C6_3 C3_3 1_555 1_555
C7_5 N3_3 1_555 1_555
C10_5 C7_5 1_555 1_555
C25_3 N10_2 1_555 1_555
H13_3 C25_3 1_555 1_555
C26_3 C10_5 1_555 1_555
H14_3 C26_3 1_555 1_555
C25_3 C26_3 1_555 1_555
O3_5 Ni4_2 1_555 1_555
O3_5 H15_3 1_555 1_555
O3_5 H16_2 1_555 1_555
O3_4 H15_4 1_555 1_555
O3_2 H15_5 1_555 1_555
O3_2 H16_3 1_555 1_555
O3_3 H15_6 1_555 1_555

#END
