
###############################################################################
#
# This file contains modified crystal structure data generated from the
# MOF subset of the Cambridge Structural Database (CSD) v543 
# hosted by the Cambridge Crystallographic Data Centre (CCDC).
#
# This work is licensed under the Creative Commons
# Attribution-NonCommercial-ShareAlike 4.0 International License.
# To view a copy of this license, visit
# http://creativecommons.org/licenses/by-nc-sa/4.0/
# or send a letter to
# Creative Commons, PO Box 1866, Mountain View, CA 94042, USA.
#
# CIF created using the CSD Python API on 29 September 2022
# The structure has been converted into the P1 space group
# The structure has a 3D framework
# The original CSD entry FIRPAZ is in the trigonal crystal system
# The original CSD entry FIRPAZ is in a Sohncke space group
# The framework has been calculated to contain at least 10.0% void space
# The void calculation uses a probe of radius 1.32A, grid spacing 0.4
# H atom positions have been added when not included in the experimental data
#
###############################################################################

data_FIRPAZ
_chemical_formula_moiety         '(C84 H60 N24 Ni6 O18)n'
_symmetry_cell_setting           triclinic
_symmetry_space_group_name_H-M   'P 1'
_symmetry_Int_Tables_number      1
_space_group_name_Hall           'P 1'
loop_
_symmetry_equiv_pos_site_id
_symmetry_equiv_pos_as_xyz
1 x,y,z
_cell_length_a                   15.695(2)
_cell_length_b                   15.695(2)
_cell_length_c                   18.546(4)
_cell_angle_alpha                90
_cell_angle_beta                 90
_cell_angle_gamma                120
_cell_volume                     3956.43
loop_
_atom_site_label
_atom_site_type_symbol
_atom_site_fract_x
_atom_site_fract_y
_atom_site_fract_z
Ni1 Ni 0.17757(4) 0.17757(4) 0.0000
C1 C 0.1308(4) 0.3057(4) 0.0933(2)
H1 H 0.1526 0.3455 0.0525
C2 C 0.1001(4) 0.3383(4) 0.1530(2)
H2 H 0.1019 0.3984 0.1519
C3 C 0.0676(4) 0.2800(3) 0.2125(2)
C4 C 0.0636(5) 0.1900(4) 0.2104(2)
H3 H 0.0385 0.1470 0.2493
C5 C 0.0974(4) 0.1647(3) 0.1501(2)
H4 H 0.0972 0.1054 0.1500
C6 C 0.0300(4) 0.3077(3) 0.2764(2)
C7 C 0.0000 0.4148(4) 0.3333
C8 C 0.0364(5) 0.6621(3) 0.2789(3)
H5 H 0.0620 0.7044 0.2397
C9 C 0.0387(6) 0.5757(4) 0.2771(2)
H6 H 0.0661 0.5610 0.2379
C10 C -0.0000(6) 0.5117(4) 0.3333
N1 N 0.1302(3) 0.2215(3) 0.09212(17)
N2 N 0.0345(4) 0.3953(3) 0.27440(19)
N3 N -0.0000 0.2466(3) 0.3333
N4 N -0.0000(4) 0.6888(3) 0.3333
O1 O 0.0433(3) 0.0433(3) 0.0000
Ni4 Ni -0.00000(6) 0.82243(4) 0.3333
N8 N 0.3112(3) 0.3112(5) -0.0000
O6 O 0.2449(2) 0.1197(2) 0.06374(14)
Ni1_2 Ni 0.17757(4) 0.17757(4) 1.0000
C11 C 0.0351(4) 0.2106(4) 0.9093(3)
C12 C 0.0228(5) 0.2856(4) 0.8679(3)
C13 C 0.0423(6) 0.3698(6) 0.9057(5)
H7 H 0.0687 0.3808 0.9519
C14 C 0.0218(12) 0.4369(12) 0.8733(7)
H8 H 0.0333 0.4935 0.8975
O1_2 O 0.0433(3) 0.0433(3) 1.0000
O2 O 0.1197(2) 0.2449(2) 0.93626(14)
O5 O 0.0305(3) 0.1578(4) 0.7534(3)
N7 N 0.2215(3) 0.1302(3) 0.90788(17)
N8_2 N 0.3112(3) 0.3112(5) 1.0000
H18 H 0.0424501 0.00197085 0.959157
C7_2 C 1.0000 0.4148(4) 0.3333
C10_2 C 1.0000(6) 0.5117(4) 0.3333
N3_2 N 1.0000 0.2466(3) 0.3333
N4_2 N 1.0000(4) 0.6888(3) 0.3333
C15 C 0.8692(4) 0.1749(6) 0.5734(2)
H9 H 0.8474 0.1929 0.6142
C16 C 0.8999(4) 0.2382(6) 0.5137(2)
H10 H 0.8981 0.2965 0.5148
C17 C 0.9324(4) 0.2124(5) 0.4542(2)
C18 C 0.9364(5) 0.1264(6) 0.4563(2)
H11 H 0.9615 0.1085 0.4174
C19 C 0.9026(4) 0.0673(5) 0.5166(2)
H12 H 0.9028 0.0082 0.5167
C20 C 0.9700(4) 0.2777(5) 0.3903(2)
N5 N 0.8698(3) 0.0913(4) 0.57455(17)
N6 N 0.9655(4) 0.3608(5) 0.39227(19)
C21 C 0.9636(5) 0.6257(6) 0.3878(3)
H13 H 0.9380 0.6424 0.4270
C22 C 0.9613(6) 0.5370(7) 0.3896(2)
H14 H 0.9339 0.4949 0.4288
Ni3 Ni 0.82243(4) 0.00000(6) 0.6667
Ni4_2 Ni 1.00000(6) 0.82243(4) 0.3333
O3 O 0.9695(3) 0.1273(3) 0.9133(3)
C23 C 0.9649(4) 0.1755(6) 0.7574(3)
C24 C 0.9772(5) 0.2628(6) 0.7988(3)
C25 C 0.9577(6) 0.3275(8) 0.7610(5)
H15 H 0.9313 0.3121 0.7148
C26 C 0.9782(12) 0.4151(17) 0.7934(7)
H16 H 0.9667 0.4602 0.7692
O4 O 0.8803(2) 0.1252(3) 0.73041(14)
H17 H 0.98796 0.0564613 0.994729
Ni3_2 Ni 0.82243(4) 1.00000(6) 0.6667
O1_3 O 0.9567(3) 0.0000(4) 0.6667
N8_3 N 0.6888(5) 0.0000(6) 0.6666
H18_2 H 0.998029 0.0404793 0.625824
C7_3 C 0.5852(4) 0.5852(4) -0.0000
C10_3 C 0.4883(4) 0.4883(7) -0.0000
N3_3 N 0.7534(3) 0.7534(3) -0.0000
C15_2 C 0.8251(6) 0.6943(7) 0.2400(2)
H9_2 H 0.8071 0.6545 0.2808
C16_2 C 0.7618(6) 0.6617(7) 0.1803(2)
H10_2 H 0.7035 0.6016 0.1814
C17_2 C 0.7876(5) 0.7200(6) 0.1208(2)
C18_2 C 0.8736(6) 0.8100(8) 0.1229(2)
H11_2 H 0.8915 0.8530 0.0840
C19_2 C 0.9327(5) 0.8353(6) 0.1832(2)
H12_2 H 0.9918 0.8946 0.1833
C20_2 C 0.7223(5) 0.6923(6) 0.0569(2)
N5_2 N 0.9087(4) 0.7785(5) 0.24121(17)
N6_2 N 0.6392(5) 0.6047(6) 0.05893(19)
C21_2 C 0.3743(6) 0.3379(8) 0.0544(3)
H13_2 H 0.3576 0.2956 0.0936
C22_2 C 0.4630(7) 0.4243(9) 0.0562(2)
H14_2 H 0.5051 0.4390 0.0954
C1_2 C 0.6943(4) 0.8251(6) 0.7600(2)
H1_2 H 0.6545 0.8071 0.7192
C2_2 C 0.6617(4) 0.7618(6) 0.8197(2)
H2_2 H 0.6016 0.7035 0.8186
C3_2 C 0.7200(3) 0.7876(5) 0.8792(2)
C4_2 C 0.8100(4) 0.8736(6) 0.8771(2)
H3_2 H 0.8530 0.8915 0.9160
C5_2 C 0.8353(3) 0.9327(5) 0.8168(2)
H4_2 H 0.8946 0.9918 0.8167
C6_2 C 0.6923(3) 0.7223(5) 0.9431(2)
C7_4 C 0.5852(4) 0.5852(4) 1.0000
C8_2 C 0.3379(3) 0.3743(6) 0.9456(3)
H5_2 H 0.2956 0.3576 0.9064
C9_2 C 0.4243(4) 0.4630(7) 0.9438(2)
H6_2 H 0.4390 0.5051 0.9046
C10_4 C 0.4883(4) 0.4883(7) 1.0000
C11_2 C 0.7894(4) 0.8245(6) 0.5760(3)
C12_2 C 0.7144(4) 0.7372(6) 0.5346(3)
C13_2 C 0.6302(6) 0.6725(8) 0.5724(5)
H7_2 H 0.6192 0.6879 0.6186
C14_2 C 0.5631(12) 0.5849(17) 0.5400(7)
H8_2 H 0.5065 0.5398 0.5642
N1_2 N 0.7785(3) 0.9087(4) 0.75879(17)
N2_2 N 0.6047(3) 0.6392(5) 0.94107(19)
N3_4 N 0.7534(3) 0.7534(3) 1.0000
O1_4 O 0.9567(3) 1.0000(4) 0.6667
O2_2 O 0.7551(2) 0.8748(3) 0.60293(14)
O3_2 O 0.8727(3) 0.8422(4) 0.5800(3)
C23_2 C 0.8245(6) 0.7894(7) 0.4240(3)
C24_2 C 0.7372(6) 0.7144(8) 0.4654(3)
C25_2 C 0.6725(8) 0.6302(10) 0.4276(5)
H15_2 H 0.6879 0.6192 0.3814
C26_2 C 0.5849(17) 0.5631(21) 0.4600(7)
H16_2 H 0.5398 0.5065 0.4358
O4_2 O 0.8748(3) 0.7551(4) 0.39707(14)
O5_2 O 0.8422(4) 0.8727(5) 0.4200(3)
N8_4 N 0.6888(5) 1.0000(6) 0.6666
H17_2 H 0.943539 0.931498 0.661396
C7_5 C 0.4148(4) -0.0000 0.6666
C10_5 C 0.5117(7) -0.0000(6) 0.6666
N3_5 N 0.2466(3) 0.0000 0.6666
O3_3 O 0.1578(4) 0.0305(3) 0.2466(3)
C15_3 C 0.3057(7) 0.1308(4) 0.9067(2)
H9_3 H 0.3455 0.1526 0.9475
C16_3 C 0.3383(7) 0.1001(4) 0.8470(2)
H10_3 H 0.3984 0.1019 0.8481
C17_3 C 0.2800(6) 0.0676(4) 0.7875(2)
C18_3 C 0.1900(8) 0.0636(5) 0.7896(2)
H11_3 H 0.1470 0.0385 0.7507
C19_3 C 0.1647(6) 0.0974(4) 0.8499(2)
H12_3 H 0.1054 0.0972 0.8500
C20_3 C 0.3077(6) 0.0300(4) 0.7236(2)
N6_3 N 0.3953(6) 0.0345(4) 0.72560(19)
C21_3 C 0.6621(8) 0.0364(5) 0.7211(3)
H13_3 H 0.7044 0.0620 0.7603
C22_3 C 0.5757(9) 0.0387(6) 0.7229(2)
H14_3 H 0.5610 0.0661 0.7621
C23_3 C 0.2106(7) 0.0351(4) 0.0907(3)
C24_3 C 0.2856(8) 0.0228(5) 0.1321(3)
C25_3 C 0.3698(10) 0.0423(6) 0.0943(5)
H15_3 H 0.3808 0.0687 0.0481
C26_3 C 0.4369(21) 0.0218(12) 0.1267(7)
H16_3 H 0.4935 0.0333 0.1025
H17_3 H 0.0685016 0.0120403 0.328062
C1_3 C 0.1749(6) 0.8692(4) 0.4266(2)
H1_3 H 0.1929 0.8474 0.3858
C2_3 C 0.2382(6) 0.8999(4) 0.4863(2)
H2_3 H 0.2965 0.8981 0.4852
C3_3 C 0.2124(5) 0.9324(4) 0.5458(2)
C4_3 C 0.1264(6) 0.9364(5) 0.5437(2)
H3_3 H 0.1085 0.9615 0.5826
C5_3 C 0.0673(5) 0.9026(4) 0.4834(2)
H4_3 H 0.0082 0.9028 0.4833
C6_3 C 0.2777(5) 0.9700(4) 0.6097(2)
C7_6 C 0.4148(4) 1.0000 0.6666
C8_3 C 0.6257(6) 0.9636(5) 0.6122(3)
H5_3 H 0.6424 0.9380 0.5730
C9_3 C 0.5370(7) 0.9613(6) 0.6104(2)
H6_3 H 0.4949 0.9339 0.5712
C10_6 C 0.5117(7) 1.0000(6) 0.6666
C11_3 C 0.1755(6) 0.9649(4) 0.2426(3)
C12_3 C 0.2628(6) 0.9772(5) 0.2012(3)
C13_3 C 0.3275(8) 0.9577(6) 0.2390(5)
H7_3 H 0.3121 0.9313 0.2852
C14_3 C 0.4151(17) 0.9782(12) 0.2066(7)
H8_3 H 0.4602 0.9667 0.2308
N1_3 N 0.0913(4) 0.8698(3) 0.42545(17)
N2_3 N 0.3608(5) 0.9655(4) 0.60773(19)
N3_6 N 0.2466(3) 1.0000 0.6666
O1_5 O -0.0000(4) 0.9567(3) 0.3333
O2_3 O 0.1252(3) 0.8803(2) 0.26959(14)
O5_3 O 0.1273(5) 0.9695(3) 0.0867(3)
O1_6 O 1.0000(4) 0.9567(3) 0.3333
H18_3 H 0.959521 0.95755 0.292491
H18_4 H 0.00197085 0.0424501 0.0408428
H17_4 H 0.0564613 0.98796 0.005271
H17_5 H 0.0120403 0.0685016 0.671938
H18_5 H 0.95755 0.959521 0.707509
H18_6 H 0.0404793 0.998029 0.374176
H17_6 H 0.931498 0.943539 0.338604
loop_
_geom_bond_atom_site_label_1
_geom_bond_atom_site_label_2
_geom_bond_site_symmetry_1
_geom_bond_site_symmetry_2
Ni1 N1 1_555 1_555
C1 H1 1_555 1_555
C2 C1 1_555 1_555
H2 C2 1_555 1_555
C3 C2 1_555 1_555
C4 C3 1_555 1_555
H3 C4 1_555 1_555
C5 C4 1_555 1_555
H4 C5 1_555 1_555
C6 C3 1_555 1_555
C7 C10 1_555 1_555
C8 H5 1_555 1_555
C9 C8 1_555 1_555
H6 C9 1_555 1_555
C10 C9 1_555 1_555
N1 C1 1_555 1_555
N2 C6 1_555 1_555
N3 C6 1_555 1_555
N4 C8 1_555 1_555
O1 Ni1 1_555 1_555
Ni4 N4 1_555 1_555
N8 Ni1 1_555 1_555
O6 Ni1 1_555 1_555
C5 N1 1_555 1_555
C7 N2 1_555 1_555
C11 C12 1_555 1_555
C12 C13 1_555 1_555
C13 H7 1_555 1_555
C14 C13 1_555 1_555
H8 C14 1_555 1_555
O1_2 Ni1_2 1_555 1_555
O2 Ni1_2 1_555 1_555
N7 Ni1_2 1_555 1_555
N8_2 Ni1_2 1_555 1_555
C11 O2 1_555 1_555
O1_2 H18 1_555 1_555
C7_2 C10_2 1_555 1_555
C15 H9 1_555 1_555
C16 C15 1_555 1_555
H10 C16 1_555 1_555
C17 C16 1_555 1_555
C18 C17 1_555 1_555
H11 C18 1_555 1_555
C19 C18 1_555 1_555
H12 C19 1_555 1_555
C20 N3_2 1_555 1_555
N5 C15 1_555 1_555
N6 C7_2 1_555 1_555
C21 N4_2 1_555 1_555
H13 C21 1_555 1_555
C22 C10_2 1_555 1_555
H14 C22 1_555 1_555
Ni3 N5 1_555 1_555
Ni4_2 N4_2 1_555 1_555
C17 C20 1_555 1_555
C19 N5 1_555 1_555
C20 N6 1_555 1_555
C21 C22 1_555 1_555
C23 C24 1_555 1_555
C25 C24 1_555 1_555
H15 C25 1_555 1_555
H16 C26 1_555 1_555
O4 C23 1_555 1_555
Ni3 O4 1_555 1_555
C25 C26 1_555 1_555
O1_3 Ni3 1_555 1_555
N8_3 Ni3 1_555 1_555
O1_3 H18_2 1_555 1_555
C7_3 C10_3 1_555 1_555
C15_2 H9_2 1_555 1_555
C16_2 C15_2 1_555 1_555
H10_2 C16_2 1_555 1_555
C17_2 C16_2 1_555 1_555
C18_2 C17_2 1_555 1_555
H11_2 C18_2 1_555 1_555
C19_2 C18_2 1_555 1_555
H12_2 C19_2 1_555 1_555
C20_2 N3_3 1_555 1_555
N5_2 C15_2 1_555 1_555
N6_2 C7_3 1_555 1_555
C21_2 N8 1_555 1_555
H13_2 C21_2 1_555 1_555
C22_2 C10_3 1_555 1_555
H14_2 C22_2 1_555 1_555
Ni4_2 N5_2 1_555 1_555
C17_2 C20_2 1_555 1_555
C19_2 N5_2 1_555 1_555
C20_2 N6_2 1_555 1_555
C21_2 C22_2 1_555 1_555
Ni3_2 N1_2 1_555 1_555
C1_2 H1_2 1_555 1_555
C2_2 C1_2 1_555 1_555
H2_2 C2_2 1_555 1_555
C3_2 C2_2 1_555 1_555
C4_2 C3_2 1_555 1_555
H3_2 C4_2 1_555 1_555
C5_2 C4_2 1_555 1_555
H4_2 C5_2 1_555 1_555
C6_2 C3_2 1_555 1_555
C7_4 C10_4 1_555 1_555
C8_2 H5_2 1_555 1_555
C9_2 C8_2 1_555 1_555
H6_2 C9_2 1_555 1_555
C10_4 C9_2 1_555 1_555
C11_2 C12_2 1_555 1_555
C12_2 C13_2 1_555 1_555
C13_2 H7_2 1_555 1_555
C14_2 C13_2 1_555 1_555
H8_2 C14_2 1_555 1_555
N1_2 C1_2 1_555 1_555
N2_2 C6_2 1_555 1_555
N3_4 C6_2 1_555 1_555
N8_2 C8_2 1_555 1_555
O1_4 Ni3_2 1_555 1_555
O2_2 Ni3_2 1_555 1_555
O3_2 C11_2 1_555 1_555
C23_2 C24_2 1_555 1_555
C24_2 C12_2 1_555 1_555
C25_2 C24_2 1_555 1_555
H15_2 C25_2 1_555 1_555
C26_2 C14_2 1_555 1_555
H16_2 C26_2 1_555 1_555
O4_2 C23_2 1_555 1_555
O5_2 C23_2 1_555 1_555
Ni4_2 O4_2 1_555 1_555
N8_4 Ni3_2 1_555 1_555
C5_2 N1_2 1_555 1_555
C7_4 N2_2 1_555 1_555
C11_2 O2_2 1_555 1_555
C25_2 C26_2 1_555 1_555
O1_4 H17_2 1_555 1_555
C7_5 C10_5 1_555 1_555
C15_3 H9_3 1_555 1_555
C16_3 C15_3 1_555 1_555
H10_3 C16_3 1_555 1_555
C17_3 C16_3 1_555 1_555
C18_3 C17_3 1_555 1_555
H11_3 C18_3 1_555 1_555
C19_3 C18_3 1_555 1_555
H12_3 C19_3 1_555 1_555
C20_3 N3_5 1_555 1_555
N7 C15_3 1_555 1_555
N6_3 C7_5 1_555 1_555
C21_3 N8_3 1_555 1_555
H13_3 C21_3 1_555 1_555
C22_3 C10_5 1_555 1_555
H14_3 C22_3 1_555 1_555
C23_3 C24_3 1_555 1_555
C25_3 C24_3 1_555 1_555
H15_3 C25_3 1_555 1_555
H16_3 C26_3 1_555 1_555
O6 C23_3 1_555 1_555
C17_3 C20_3 1_555 1_555
C19_3 N7 1_555 1_555
C20_3 N6_3 1_555 1_555
C21_3 C22_3 1_555 1_555
C25_3 C26_3 1_555 1_555
Ni4 N1_3 1_555 1_555
C1_3 H1_3 1_555 1_555
C2_3 C1_3 1_555 1_555
H2_3 C2_3 1_555 1_555
C3_3 C2_3 1_555 1_555
C4_3 C3_3 1_555 1_555
H3_3 C4_3 1_555 1_555
C5_3 C4_3 1_555 1_555
H4_3 C5_3 1_555 1_555
C6_3 C3_3 1_555 1_555
C7_6 C10_6 1_555 1_555
C8_3 H5_3 1_555 1_555
C9_3 C8_3 1_555 1_555
H6_3 C9_3 1_555 1_555
C10_6 C9_3 1_555 1_555
C11_3 C12_3 1_555 1_555
C12_3 C13_3 1_555 1_555
C13_3 H7_3 1_555 1_555
C14_3 C13_3 1_555 1_555
H8_3 C14_3 1_555 1_555
N1_3 C1_3 1_555 1_555
N2_3 C6_3 1_555 1_555
N3_6 C6_3 1_555 1_555
N8_4 C8_3 1_555 1_555
O1_5 Ni4 1_555 1_555
O2_3 Ni4 1_555 1_555
C5_3 N1_3 1_555 1_555
C7_6 N2_3 1_555 1_555
C11_3 O2_3 1_555 1_555
O1_6 Ni4_2 1_555 1_555
O1_6 H18_3 1_555 1_555
O1 H18_4 1_555 1_555
O1_4 H18_5 1_555 1_555
O1_5 H18_6 1_555 1_555
O1_6 H17_6 1_555 1_555

#END
