
###############################################################################
#
# This file contains modified crystal structure data generated from the
# MOF subset of the Cambridge Structural Database (CSD) v543 
# hosted by the Cambridge Crystallographic Data Centre (CCDC).
#
# This work is licensed under the Creative Commons
# Attribution-NonCommercial-ShareAlike 4.0 International License.
# To view a copy of this license, visit
# http://creativecommons.org/licenses/by-nc-sa/4.0/
# or send a letter to
# Creative Commons, PO Box 1866, Mountain View, CA 94042, USA.
#
# CIF created using the CSD Python API on 29 September 2022
# The structure has been converted into the P1 space group
# The structure has a 3D framework
# The original CSD entry FISCUI is in the cubic crystal system
# The framework has been calculated to contain at least 10.0% void space
# The void calculation uses a probe of radius 1.32A, grid spacing 0.4
# H atom positions have been added when not included in the experimental data
#
###############################################################################

data_FISCUI
_chemical_formula_moiety         '(C96 H48 Hf19 O115)n'
_symmetry_cell_setting           triclinic
_symmetry_space_group_name_H-M   'P 1'
_symmetry_Int_Tables_number      1
_space_group_name_Hall           'P 1'
loop_
_symmetry_equiv_pos_site_id
_symmetry_equiv_pos_as_xyz
1 x,y,z
_cell_length_a                   17.87978(14)
_cell_length_b                   17.87978(14)
_cell_length_c                   17.87978(14)
_cell_angle_alpha                90
_cell_angle_beta                 90
_cell_angle_gamma                90
_cell_volume                     5715.92
loop_
_atom_site_label
_atom_site_type_symbol
_atom_site_fract_x
_atom_site_fract_y
_atom_site_fract_z
_atom_site_U_iso_or_equiv
_atom_site_thermal_displace_type
Hf19 Hf 0.0099(3) 0.5080(3) 0.63808(10) 0.0063 Uiso
Hf17 Hf 0.0099(3) 0.9920(3) 0.86192(10) 0.0063 Uiso
Hf1 Hf 0.36192(10) 0.5099(3) 0.0080(3) 0.0063 Uiso
O1 O 0.435(2) 0.573(3) 0.086(2) 0.0063 Uiso
O2 O 0.427(3) 0.427(3) 0.073(3) 0.0063 Uiso
O3 O 0.306(3) 0.620(4) 0.023(3) 0.0063 Uiso
O4 O 0.402(4) 0.701(3) 0.014(3) 0.0063 Uiso
C1 C 0.333(8) 0.684(7) 0.015(3) 0.0063 Uiso
C2 C 0.287(4) 0.755(5) 0.022(3) 0.0063 Uiso
O7 O 0.194(3) 0.880(4) 0.023(3) 0.0063 Uiso
O8 O 0.098(4) 0.799(3) 0.014(3) 0.0063 Uiso
C5 C 0.167(8) 0.816(7) 0.015(3) 0.0063 Uiso
C6 C 0.213(4) 0.745(5) 0.022(3) 0.0063 Uiso
O12 O 0.073(3) 0.073(3) 0.073(3) 0.0063 Uiso
Hf8 Hf 0.13808(10) 0.9901(3) 0.0080(3) 0.0063 Uiso
Hf13 Hf 0.5080(3) 0.63808(10) 0.0099(3) 0.0063 Uiso
Hf15 Hf 0.5099(3) 0.4920(3) 0.13808(10) 0.0063 Uiso
O36 O 0.573(3) 0.414(2) 0.065(2) 0.0063 Uiso
O49 O 0.514(3) 0.299(3) 0.095(4) 0.0063 Uiso
O54 O 0.310(3) 0.520(3) 0.119(4) 0.0063 Uiso
H11 H 0.312507 0.81011 0.0266835 . .
H12 H 0.187493 0.68989 0.0266835 . .
O5 O 0.299(3) 0.405(4) 0.986(3) 0.0063 Uiso
O6 O 0.381(4) 0.310(3) 0.980(3) 0.0063 Uiso
C3 C 0.316(7) 0.337(8) 0.982(5) 0.0063 Uiso
C4 C 0.247(5) 0.287(4) 0.984(3) 0.0063 Uiso
O9 O 0.201(3) 0.095(4) 0.986(3) 0.0063 Uiso
O10 O 0.119(4) 0.190(3) 0.980(3) 0.0063 Uiso
C7 C 0.184(7) 0.163(8) 0.982(5) 0.0063 Uiso
C8 C 0.253(5) 0.213(4) 0.984(3) 0.0063 Uiso
O16 O 0.595(4) 0.014(3) 0.701(3) 0.0063 Uiso
O17 O 0.690(3) 0.020(3) 0.619(4) 0.0063 Uiso
C11 C 0.663(8) 0.018(5) 0.684(7) 0.0063 Uiso
C12 C 0.713(4) 0.016(3) 0.753(5) 0.0063 Uiso
O20 O 0.905(4) 0.014(3) 0.799(3) 0.0063 Uiso
O21 O 0.810(3) 0.020(3) 0.881(4) 0.0063 Uiso
C15 C 0.837(8) 0.018(5) 0.816(7) 0.0063 Uiso
C16 C 0.787(4) 0.016(3) 0.747(5) 0.0063 Uiso
Hf4 Hf 0.4901(3) 0.5080(3) 0.86192(10) 0.0063 Uiso
O22 O 0.427(3) 0.586(2) 0.935(2) 0.0063 Uiso
O23 O 0.380(4) 0.523(3) 0.806(3) 0.0063 Uiso
O24 O 0.299(3) 0.514(3) 0.902(4) 0.0063 Uiso
C17 C 0.316(7) 0.515(3) 0.833(8) 0.0063 Uiso
C18 C 0.245(5) 0.522(3) 0.787(4) 0.0063 Uiso
O25 O 0.595(4) 0.486(3) 0.799(3) 0.0063 Uiso
O26 O 0.690(3) 0.480(3) 0.881(4) 0.0063 Uiso
C19 C 0.663(8) 0.482(5) 0.816(7) 0.0063 Uiso
C20 C 0.713(4) 0.484(3) 0.747(5) 0.0063 Uiso
O27 O 0.120(4) 0.523(3) 0.694(3) 0.0063 Uiso
O28 O 0.201(3) 0.514(3) 0.598(4) 0.0063 Uiso
C21 C 0.184(7) 0.515(3) 0.667(8) 0.0063 Uiso
C22 C 0.255(5) 0.522(3) 0.713(4) 0.0063 Uiso
O29 O 0.905(4) 0.486(3) 0.701(3) 0.0063 Uiso
O30 O 0.810(3) 0.480(3) 0.619(4) 0.0063 Uiso
C23 C 0.837(8) 0.482(5) 0.684(7) 0.0063 Uiso
C24 C 0.787(4) 0.484(3) 0.753(5) 0.0063 Uiso
Hf5 Hf 0.4920(3) 0.36192(10) 0.9901(3) 0.0063 Uiso
O31 O 0.414(2) 0.435(2) 0.927(3) 0.0063 Uiso
Hf6 Hf 0.0080(3) 0.13808(10) 0.9901(3) 0.0063 Uiso
O32 O 0.086(2) 0.065(2) 0.927(3) 0.0063 Uiso
Hf7 Hf 0.63808(10) 0.0099(3) 0.5080(3) 0.0063 Uiso
Hf9 Hf 0.13808(10) 0.5099(3) 0.4920(3) 0.0063 Uiso
Hf21 Hf 0.63808(10) 0.4901(3) 0.9920(3) 0.0063 Uiso
Hf22 Hf 0.86192(10) 0.4901(3) 0.5080(3) 0.0063 Uiso
Hf23 Hf 0.86192(10) 0.0099(3) 0.9920(3) 0.0063 Uiso
O33 O 0.565(2) 0.073(3) 0.586(2) 0.0063 Uiso
O35 O 0.414(2) 0.065(2) 0.573(3) 0.0063 Uiso
O38 O 0.565(2) 0.427(3) 0.914(2) 0.0063 Uiso
O41 O 0.573(3) 0.573(3) 0.927(3) 0.0063 Uiso
O43 O 0.477(3) 0.306(3) 0.880(4) 0.0063 Uiso
O44 O 0.023(3) 0.194(3) 0.880(4) 0.0063 Uiso
O45 O 0.486(3) 0.098(4) 0.701(3) 0.0063 Uiso
O46 O 0.486(3) 0.402(4) 0.799(3) 0.0063 Uiso
O47 O 0.598(4) 0.299(3) 0.986(3) 0.0063 Uiso
O52 O 0.480(3) 0.619(4) 0.810(3) 0.0063 Uiso
H1 H 0.308304 0.187525 0.985458 . .
H2 H 0.812475 0.0145425 0.691696 . .
H4 H 0.687525 0.485458 0.691696 . .
H6 H 0.687525 0.0145425 0.808304 . .
H7 H 0.18989 0.526683 0.812507 . .
H8 H 0.31011 0.526683 0.687493 . .
H9 H 0.812475 0.485458 0.808304 . .
H10 H 0.191696 0.312475 0.985458 . .
O11 O 0.065(2) 0.927(3) 0.086(2) 0.0063 Uiso
O51 O 0.190(3) 0.980(3) 0.119(4) 0.0063 Uiso
Hf3 Hf 0.4901(3) 0.9920(3) 0.63808(10) 0.0063 Uiso
O13 O 0.427(3) 0.914(2) 0.565(2) 0.0063 Uiso
O14 O 0.380(4) 0.977(3) 0.694(3) 0.0063 Uiso
O15 O 0.299(3) 0.986(3) 0.598(4) 0.0063 Uiso
C9 C 0.316(7) 0.985(3) 0.667(8) 0.0063 Uiso
C10 C 0.245(5) 0.978(3) 0.713(4) 0.0063 Uiso
O18 O 0.120(4) 0.977(3) 0.806(3) 0.0063 Uiso
O19 O 0.201(3) 0.986(3) 0.902(4) 0.0063 Uiso
C13 C 0.184(7) 0.985(3) 0.833(8) 0.0063 Uiso
C14 C 0.255(5) 0.978(3) 0.787(4) 0.0063 Uiso
Hf14 Hf 0.5080(3) 0.86192(10) 0.4901(3) 0.0063 Uiso
Hf20 Hf 0.36192(10) 0.9901(3) 0.4920(3) 0.0063 Uiso
O37 O 0.073(3) 0.914(2) 0.935(2) 0.0063 Uiso
O40 O 0.573(3) 0.927(3) 0.573(3) 0.0063 Uiso
O53 O 0.480(3) 0.881(4) 0.690(3) 0.0063 Uiso
H3 H 0.31011 0.973317 0.812507 . .
H5 H 0.18989 0.973317 0.687493 . .
Hf10 Hf 0.9901(3) 0.0080(3) 0.13808(10) 0.0063 Uiso
Hf12 Hf 0.9920(3) 0.86192(10) 0.0099(3) 0.0063 Uiso
O34 O 0.927(3) 0.086(2) 0.065(2) 0.0063 Uiso
O50 O 0.986(3) 0.201(3) 0.095(4) 0.0063 Uiso
O39 O 0.935(2) 0.073(3) 0.914(2) 0.0063 Uiso
O48 O 0.902(4) 0.201(3) 0.986(3) 0.0063 Uiso
O13_2 O 0.073(3) 0.586(2) 0.565(2) 0.0063 Uiso
O35_2 O 0.086(2) 0.435(2) 0.573(3) 0.0063 Uiso
O45_2 O 0.014(3) 0.402(4) 0.701(3) 0.0063 Uiso
O46_2 O 0.014(3) 0.098(4) 0.799(3) 0.0063 Uiso
O53_2 O 0.020(3) 0.619(4) 0.690(3) 0.0063 Uiso
O52_2 O 0.020(3) 0.881(4) 0.810(3) 0.0063 Uiso
Hf14_2 Hf 0.9920(3) 0.63808(10) 0.4901(3) 0.0063 Uiso
O33_2 O 0.935(2) 0.427(3) 0.586(2) 0.0063 Uiso
O40_2 O 0.927(3) 0.573(3) 0.573(3) 0.0063 Uiso
O41_2 O 0.927(3) 0.927(3) 0.927(3) 0.0063 Uiso
O1_2 O 0.065(2) 0.573(3) 0.414(2) 0.0063 Uiso
O2_2 O 0.073(3) 0.427(3) 0.427(3) 0.0063 Uiso
O3_2 O 0.194(3) 0.620(4) 0.477(3) 0.0063 Uiso
O4_2 O 0.098(4) 0.701(3) 0.486(3) 0.0063 Uiso
C1_2 C 0.167(8) 0.684(7) 0.485(3) 0.0063 Uiso
C2_2 C 0.213(4) 0.755(5) 0.478(3) 0.0063 Uiso
O5_2 O 0.201(3) 0.405(4) 0.514(3) 0.0063 Uiso
O6_2 O 0.119(4) 0.310(3) 0.520(3) 0.0063 Uiso
C3_2 C 0.184(7) 0.337(8) 0.518(5) 0.0063 Uiso
C4_2 C 0.253(5) 0.287(4) 0.516(3) 0.0063 Uiso
O7_2 O 0.306(3) 0.880(4) 0.477(3) 0.0063 Uiso
O8_2 O 0.402(4) 0.799(3) 0.486(3) 0.0063 Uiso
C5_2 C 0.333(8) 0.816(7) 0.485(3) 0.0063 Uiso
C6_2 C 0.287(4) 0.745(5) 0.478(3) 0.0063 Uiso
O9_2 O 0.299(3) 0.095(4) 0.514(3) 0.0063 Uiso
O10_2 O 0.381(4) 0.190(3) 0.520(3) 0.0063 Uiso
C7_2 C 0.316(7) 0.163(8) 0.518(5) 0.0063 Uiso
C8_2 C 0.247(5) 0.213(4) 0.516(3) 0.0063 Uiso
O12_2 O 0.427(3) 0.073(3) 0.427(3) 0.0063 Uiso
Hf5_2 Hf 0.0080(3) 0.36192(10) 0.5099(3) 0.0063 Uiso
Hf6_2 Hf 0.4920(3) 0.13808(10) 0.5099(3) 0.0063 Uiso
Hf10_2 Hf 0.5099(3) 0.0080(3) 0.36192(10) 0.0063 Uiso
O34_2 O 0.573(3) 0.086(2) 0.435(2) 0.0063 Uiso
O43_2 O 0.023(3) 0.306(3) 0.620(4) 0.0063 Uiso
O44_2 O 0.477(3) 0.194(3) 0.620(4) 0.0063 Uiso
O48_2 O 0.598(4) 0.201(3) 0.514(3) 0.0063 Uiso
O50_2 O 0.514(3) 0.201(3) 0.405(4) 0.0063 Uiso
O54_2 O 0.190(3) 0.520(3) 0.381(4) 0.0063 Uiso
H1_2 H 0.191696 0.187525 0.514542 . .
H10_2 H 0.308304 0.312475 0.514542 . .
H11_2 H 0.187493 0.81011 0.473317 . .
H12_2 H 0.312507 0.68989 0.473317 . .
O11_2 O 0.435(2) 0.927(3) 0.414(2) 0.0063 Uiso
O51_2 O 0.310(3) 0.980(3) 0.381(4) 0.0063 Uiso
Hf15_2 Hf 0.9901(3) 0.4920(3) 0.36192(10) 0.0063 Uiso
O36_2 O 0.927(3) 0.414(2) 0.435(2) 0.0063 Uiso
O47_2 O 0.902(4) 0.299(3) 0.514(3) 0.0063 Uiso
O49_2 O 0.986(3) 0.299(3) 0.405(4) 0.0063 Uiso
O5_3 O 0.095(4) 0.514(3) 0.299(3) 0.0063 Uiso
C3_3 C 0.163(8) 0.518(5) 0.316(7) 0.0063 Uiso
C4_3 C 0.213(4) 0.516(3) 0.247(5) 0.0063 Uiso
O9_3 O 0.405(4) 0.514(3) 0.201(3) 0.0063 Uiso
C7_3 C 0.337(8) 0.518(5) 0.184(7) 0.0063 Uiso
C8_3 C 0.287(4) 0.516(3) 0.253(5) 0.0063 Uiso
O13_3 O 0.586(2) 0.935(2) 0.427(3) 0.0063 Uiso
O14_2 O 0.523(3) 0.806(3) 0.380(4) 0.0063 Uiso
O15_2 O 0.514(3) 0.902(4) 0.299(3) 0.0063 Uiso
C9_2 C 0.515(3) 0.833(8) 0.316(7) 0.0063 Uiso
C10_2 C 0.522(3) 0.787(4) 0.245(5) 0.0063 Uiso
O16_2 O 0.486(3) 0.799(3) 0.595(4) 0.0063 Uiso
C11_2 C 0.482(5) 0.816(7) 0.663(8) 0.0063 Uiso
C12_2 C 0.484(3) 0.747(5) 0.713(4) 0.0063 Uiso
O18_2 O 0.523(3) 0.694(3) 0.120(4) 0.0063 Uiso
O19_2 O 0.514(3) 0.598(4) 0.201(3) 0.0063 Uiso
C13_2 C 0.515(3) 0.667(8) 0.184(7) 0.0063 Uiso
C14_2 C 0.522(3) 0.713(4) 0.255(5) 0.0063 Uiso
O20_2 O 0.486(3) 0.701(3) 0.905(4) 0.0063 Uiso
C15_2 C 0.482(5) 0.684(7) 0.837(8) 0.0063 Uiso
C16_2 C 0.484(3) 0.753(5) 0.787(4) 0.0063 Uiso
O25_2 O 0.014(3) 0.701(3) 0.595(4) 0.0063 Uiso
C19_2 C 0.018(5) 0.684(7) 0.663(8) 0.0063 Uiso
C20_2 C 0.016(3) 0.753(5) 0.713(4) 0.0063 Uiso
O29_2 O 0.014(3) 0.799(3) 0.905(4) 0.0063 Uiso
C23_2 C 0.018(5) 0.816(7) 0.837(8) 0.0063 Uiso
C24_2 C 0.016(3) 0.747(5) 0.787(4) 0.0063 Uiso
O37_2 O 0.586(2) 0.565(2) 0.073(3) 0.0063 Uiso
O42 O 0.620(4) 0.477(3) 0.194(3) 0.0063 Uiso
O51_3 O 0.520(3) 0.381(4) 0.190(3) 0.0063 Uiso
O53_3 O 0.619(4) 0.810(3) 0.480(3) 0.0063 Uiso
H1_3 H 0.312475 0.514542 0.308304 . .
H2_2 H 0.485458 0.808304 0.812475 . .
H3_2 H 0.526683 0.687493 0.31011 . .
H4_2 H 0.0145425 0.808304 0.687525 . .
H5_2 H 0.526683 0.812507 0.18989 . .
H6_2 H 0.485458 0.691696 0.687525 . .
H9_2 H 0.0145425 0.691696 0.812475 . .
H10_3 H 0.187525 0.514542 0.191696 . .
O3_3 O 0.880(4) 0.477(3) 0.306(3) 0.0063 Uiso
O4_3 O 0.799(3) 0.486(3) 0.402(4) 0.0063 Uiso
C1_3 C 0.816(7) 0.485(3) 0.333(8) 0.0063 Uiso
C2_3 C 0.745(5) 0.478(3) 0.287(4) 0.0063 Uiso
O8_3 O 0.701(3) 0.486(3) 0.098(4) 0.0063 Uiso
C5_3 C 0.684(7) 0.485(3) 0.167(8) 0.0063 Uiso
C6_3 C 0.755(5) 0.478(3) 0.213(4) 0.0063 Uiso
O22_2 O 0.914(2) 0.565(2) 0.427(3) 0.0063 Uiso
O23_2 O 0.977(3) 0.694(3) 0.380(4) 0.0063 Uiso
O24_2 O 0.986(3) 0.598(4) 0.299(3) 0.0063 Uiso
C17_2 C 0.985(3) 0.667(8) 0.316(7) 0.0063 Uiso
C18_2 C 0.978(3) 0.713(4) 0.245(5) 0.0063 Uiso
O27_2 O 0.977(3) 0.806(3) 0.120(4) 0.0063 Uiso
O28_2 O 0.986(3) 0.902(4) 0.201(3) 0.0063 Uiso
C21_2 C 0.985(3) 0.833(8) 0.184(7) 0.0063 Uiso
C22_2 C 0.978(3) 0.787(4) 0.255(5) 0.0063 Uiso
O52_3 O 0.881(4) 0.690(3) 0.480(3) 0.0063 Uiso
O54_3 O 0.980(3) 0.381(4) 0.310(3) 0.0063 Uiso
H7_2 H 0.973317 0.687493 0.18989 . .
H8_2 H 0.973317 0.812507 0.31011 . .
H11_3 H 0.68989 0.473317 0.312507 . .
H12_3 H 0.81011 0.473317 0.187493 . .
O42_2 O 0.620(4) 0.023(3) 0.306(3) 0.0063 Uiso
O51_4 O 0.520(3) 0.119(4) 0.310(3) 0.0063 Uiso
O5_4 O 0.095(4) 0.986(3) 0.201(3) 0.0063 Uiso
C3_4 C 0.163(8) 0.982(5) 0.184(7) 0.0063 Uiso
C4_4 C 0.213(4) 0.984(3) 0.253(5) 0.0063 Uiso
O9_4 O 0.405(4) 0.986(3) 0.299(3) 0.0063 Uiso
C7_4 C 0.337(8) 0.982(5) 0.316(7) 0.0063 Uiso
C8_4 C 0.287(4) 0.984(3) 0.247(5) 0.0063 Uiso
O53_4 O 0.619(4) 0.690(3) 0.020(3) 0.0063 Uiso
H1_4 H 0.312475 0.985458 0.191696 . .
H10_4 H 0.187525 0.985458 0.308304 . .
O3_4 O 0.880(4) 0.023(3) 0.194(3) 0.0063 Uiso
O4_4 O 0.799(3) 0.014(3) 0.098(4) 0.0063 Uiso
C1_4 C 0.816(7) 0.015(3) 0.167(8) 0.0063 Uiso
C2_4 C 0.745(5) 0.022(3) 0.213(4) 0.0063 Uiso
O8_4 O 0.701(3) 0.014(3) 0.402(4) 0.0063 Uiso
C5_4 C 0.684(7) 0.015(3) 0.333(8) 0.0063 Uiso
C6_4 C 0.755(5) 0.022(3) 0.287(4) 0.0063 Uiso
O54_4 O 0.980(3) 0.119(4) 0.190(3) 0.0063 Uiso
H11_4 H 0.68989 0.0266835 0.187493 . .
H12_4 H 0.81011 0.0266835 0.312507 . .
O22_3 O 0.914(2) 0.935(2) 0.073(3) 0.0063 Uiso
O52_4 O 0.881(4) 0.810(3) 0.020(3) 0.0063 Uiso
C1_5 C 0.485(3) 0.167(8) 0.684(7) 0.0063 Uiso
C2_5 C 0.478(3) 0.213(4) 0.755(5) 0.0063 Uiso
C3_5 C 0.518(5) 0.184(7) 0.337(8) 0.0063 Uiso
C4_5 C 0.516(3) 0.253(5) 0.287(4) 0.0063 Uiso
C5_5 C 0.485(3) 0.333(8) 0.816(7) 0.0063 Uiso
C6_5 C 0.478(3) 0.287(4) 0.745(5) 0.0063 Uiso
C7_5 C 0.518(5) 0.316(7) 0.163(8) 0.0063 Uiso
C8_5 C 0.516(3) 0.247(5) 0.213(4) 0.0063 Uiso
O23_3 O 0.694(3) 0.120(4) 0.523(3) 0.0063 Uiso
C17_3 C 0.667(8) 0.184(7) 0.515(3) 0.0063 Uiso
C18_3 C 0.713(4) 0.255(5) 0.522(3) 0.0063 Uiso
O27_3 O 0.806(3) 0.380(4) 0.523(3) 0.0063 Uiso
C21_3 C 0.833(8) 0.316(7) 0.515(3) 0.0063 Uiso
C22_3 C 0.787(4) 0.245(5) 0.522(3) 0.0063 Uiso
H1_5 H 0.514542 0.191696 0.187525 . .
H7_3 H 0.687493 0.31011 0.526683 . .
H8_3 H 0.812507 0.18989 0.526683 . .
H10_5 H 0.514542 0.308304 0.312475 . .
H11_5 H 0.473317 0.187493 0.81011 . .
H12_5 H 0.473317 0.312507 0.68989 . .
O14_3 O 0.806(3) 0.120(4) 0.977(3) 0.0063 Uiso
C9_3 C 0.833(8) 0.184(7) 0.985(3) 0.0063 Uiso
C10_3 C 0.787(4) 0.255(5) 0.978(3) 0.0063 Uiso
O18_3 O 0.694(3) 0.380(4) 0.977(3) 0.0063 Uiso
C13_3 C 0.667(8) 0.316(7) 0.985(3) 0.0063 Uiso
C14_3 C 0.713(4) 0.245(5) 0.978(3) 0.0063 Uiso
H3_3 H 0.687493 0.18989 0.973317 . .
H5_3 H 0.812507 0.31011 0.973317 . .
O16_3 O 0.799(3) 0.905(4) 0.014(3) 0.0063 Uiso
C11_3 C 0.816(7) 0.837(8) 0.018(5) 0.0063 Uiso
C12_3 C 0.747(5) 0.787(4) 0.016(3) 0.0063 Uiso
O20_3 O 0.701(3) 0.595(4) 0.014(3) 0.0063 Uiso
C15_3 C 0.684(7) 0.663(8) 0.018(5) 0.0063 Uiso
C16_3 C 0.753(5) 0.713(4) 0.016(3) 0.0063 Uiso
O25_3 O 0.701(3) 0.905(4) 0.486(3) 0.0063 Uiso
C19_3 C 0.684(7) 0.837(8) 0.482(5) 0.0063 Uiso
C20_3 C 0.753(5) 0.787(4) 0.484(3) 0.0063 Uiso
O29_3 O 0.799(3) 0.595(4) 0.486(3) 0.0063 Uiso
C23_3 C 0.816(7) 0.663(8) 0.482(5) 0.0063 Uiso
C24_3 C 0.747(5) 0.713(4) 0.484(3) 0.0063 Uiso
H2_3 H 0.808304 0.687525 0.0145425 . .
H4_3 H 0.808304 0.812475 0.485458 . .
H6_3 H 0.691696 0.812475 0.0145425 . .
H9_3 H 0.691696 0.687525 0.485458 . .
C1_6 C 0.015(3) 0.167(8) 0.816(7) 0.0063 Uiso
C2_6 C 0.022(3) 0.213(4) 0.745(5) 0.0063 Uiso
C5_6 C 0.015(3) 0.333(8) 0.684(7) 0.0063 Uiso
C6_6 C 0.022(3) 0.287(4) 0.755(5) 0.0063 Uiso
H11_6 H 0.0266835 0.187493 0.68989 . .
H12_6 H 0.0266835 0.312507 0.81011 . .
C3_6 C 0.982(5) 0.184(7) 0.163(8) 0.0063 Uiso
C4_6 C 0.984(3) 0.253(5) 0.213(4) 0.0063 Uiso
C7_6 C 0.982(5) 0.316(7) 0.337(8) 0.0063 Uiso
C8_6 C 0.984(3) 0.247(5) 0.287(4) 0.0063 Uiso
H1_6 H 0.985458 0.191696 0.312475 . .
H10_6 H 0.985458 0.308304 0.187525 . .
loop_
_geom_bond_atom_site_label_1
_geom_bond_atom_site_label_2
_geom_bond_site_symmetry_1
_geom_bond_site_symmetry_2
Hf1 O1 1_555 1_555
O1 Hf13 1_555 1_555
O2 Hf1 1_555 1_555
O3 Hf1 1_555 1_555
O4 C1 1_555 1_555
C1 O3 1_555 1_555
C2 C1 1_555 1_555
O7 C5 1_555 1_555
O8 C5 1_555 1_555
C5 C6 1_555 1_555
C6 C2 1_555 1_555
Hf8 O7 1_555 1_555
Hf13 O4 1_555 1_555
Hf15 O1 1_555 1_555
O54 Hf1 1_555 1_555
O2 Hf15 1_555 1_555
Hf15 O36 1_555 1_555
C2 H11 1_555 1_555
C6 H12 1_555 1_555
O6 C3 1_555 1_555
C3 O5 1_555 1_555
C4 C3 1_555 1_555
O9 C7 1_555 1_555
O10 C7 1_555 1_555
C7 C8 1_555 1_555
C8 C4 1_555 1_555
O17 C11 1_555 1_555
C11 O16 1_555 1_555
C12 C11 1_555 1_555
O20 C15 1_555 1_555
O21 C15 1_555 1_555
C15 C16 1_555 1_555
C16 C12 1_555 1_555
Hf4 O22 1_555 1_555
O23 Hf4 1_555 1_555
C17 O23 1_555 1_555
C18 C17 1_555 1_555
O25 Hf4 1_555 1_555
O26 C19 1_555 1_555
C19 O25 1_555 1_555
C20 C19 1_555 1_555
O27 C21 1_555 1_555
O28 C21 1_555 1_555
C21 C22 1_555 1_555
C22 C18 1_555 1_555
O29 C23 1_555 1_555
O30 C23 1_555 1_555
C23 C24 1_555 1_555
C24 C20 1_555 1_555
Hf6 O10 1_555 1_555
Hf7 O17 1_555 1_555
Hf9 O28 1_555 1_555
Hf19 O27 1_555 1_555
Hf21 O26 1_555 1_555
Hf22 O30 1_555 1_555
Hf23 O21 1_555 1_555
O38 Hf4 1_555 1_555
O41 Hf4 1_555 1_555
O43 Hf5 1_555 1_555
O44 Hf6 1_555 1_555
O46 Hf4 1_555 1_555
O47 Hf5 1_555 1_555
O52 Hf4 1_555 1_555
O6 Hf5 1_555 1_555
Hf4 O31 1_555 1_555
O24 C17 1_555 1_555
Hf5 O31 1_555 1_555
Hf5 O38 1_555 1_555
Hf6 O32 1_555 1_555
Hf7 O33 1_555 1_555
Hf21 O38 1_555 1_555
Hf21 O41 1_555 1_555
C8 H1 1_555 1_555
C16 H2 1_555 1_555
C20 H4 1_555 1_555
C12 H6 1_555 1_555
C18 H7 1_555 1_555
C22 H8 1_555 1_555
C24 H9 1_555 1_555
C4 H10 1_555 1_555
O11 Hf8 1_555 1_555
O51 Hf8 1_555 1_555
Hf3 O13 1_555 1_555
O13 Hf14 1_555 1_555
O14 Hf3 1_555 1_555
O15 C9 1_555 1_555
C9 O14 1_555 1_555
C10 C9 1_555 1_555
O18 C13 1_555 1_555
C13 O19 1_555 1_555
C14 C10 1_555 1_555
Hf14 O40 1_555 1_555
Hf17 O18 1_555 1_555
Hf20 O13 1_555 1_555
O40 Hf3 1_555 1_555
O53 Hf3 1_555 1_555
O15 Hf20 1_555 1_555
C13 C14 1_555 1_555
Hf17 O37 1_555 1_555
C14 H3 1_555 1_555
C10 H5 1_555 1_555
Hf10 O34 1_555 1_555
Hf19 O13_2 1_555 1_555
Hf9 O13_2 1_555 1_555
O35_2 Hf19 1_555 1_555
O45_2 Hf19 1_555 1_555
O53_2 Hf19 1_555 1_555
Hf9 O35_2 1_555 1_555
O52_2 Hf17 1_555 1_555
Hf14_2 O40_2 1_555 1_555
Hf22 O33_2 1_555 1_555
Hf22 O40_2 1_555 1_555
Hf23 O39 1_555 1_555
Hf9 O1_2 1_555 1_555
O2_2 Hf9 1_555 1_555
O3_2 Hf9 1_555 1_555
O4_2 C1_2 1_555 1_555
C1_2 O3_2 1_555 1_555
C2_2 C1_2 1_555 1_555
O5_2 Hf9 1_555 1_555
O6_2 C3_2 1_555 1_555
C3_2 O5_2 1_555 1_555
C4_2 C3_2 1_555 1_555
O7_2 C5_2 1_555 1_555
O8_2 C5_2 1_555 1_555
C5_2 C6_2 1_555 1_555
C6_2 C2_2 1_555 1_555
O9_2 C7_2 1_555 1_555
O10_2 C7_2 1_555 1_555
C7_2 C8_2 1_555 1_555
C8_2 C4_2 1_555 1_555
Hf5_2 O2_2 1_555 1_555
Hf6_2 O10_2 1_555 1_555
Hf20 O7_2 1_555 1_555
Hf14 O8_2 1_555 1_555
O34_2 Hf6_2 1_555 1_555
O33 Hf6_2 1_555 1_555
O43_2 Hf5_2 1_555 1_555
O44_2 Hf6_2 1_555 1_555
O48_2 Hf6_2 1_555 1_555
O50_2 Hf6_2 1_555 1_555
O54_2 Hf9 1_555 1_555
O6_2 Hf5_2 1_555 1_555
O12_2 Hf6_2 1_555 1_555
O12_2 Hf10_2 1_555 1_555
Hf5_2 O35_2 1_555 1_555
Hf6_2 O35 1_555 1_555
Hf10_2 O34_2 1_555 1_555
C8_2 H1_2 1_555 1_555
C4_2 H10_2 1_555 1_555
C2_2 H11_2 1_555 1_555
C6_2 H12_2 1_555 1_555
O11_2 Hf20 1_555 1_555
Hf14 O11_2 1_555 1_555
O51_2 Hf20 1_555 1_555
Hf15_2 O36_2 1_555 1_555
Hf22 O36_2 1_555 1_555
O54_2 C3_3 1_555 1_555
C3_3 O5_3 1_555 1_555
C4_3 C3_3 1_555 1_555
O9_3 C7_3 1_555 1_555
O54 C7_3 1_555 1_555
C7_3 C8_3 1_555 1_555
C8_3 C4_3 1_555 1_555
Hf15 O9_3 1_555 1_555
Hf14 O13_3 1_555 1_555
O14_2 Hf14 1_555 1_555
O15_2 C9_2 1_555 1_555
C9_2 O14_2 1_555 1_555
C10_2 C9_2 1_555 1_555
O16_2 Hf14 1_555 1_555
O53 C11_2 1_555 1_555
C11_2 O16_2 1_555 1_555
C12_2 C11_2 1_555 1_555
O18_2 C13_2 1_555 1_555
O19_2 Hf15 1_555 1_555
C13_2 O19_2 1_555 1_555
C14_2 C10_2 1_555 1_555
O20_2 C15_2 1_555 1_555
O52 C15_2 1_555 1_555
C15_2 C16_2 1_555 1_555
C16_2 C12_2 1_555 1_555
O53_2 C19_2 1_555 1_555
C19_2 O25_2 1_555 1_555
C20_2 C19_2 1_555 1_555
O29_2 C23_2 1_555 1_555
O52_2 C23_2 1_555 1_555
C23_2 C24_2 1_555 1_555
C24_2 C20_2 1_555 1_555
Hf13 O18_2 1_555 1_555
O37_2 Hf15 1_555 1_555
O42 Hf15 1_555 1_555
O51_3 Hf15 1_555 1_555
O53_3 Hf14 1_555 1_555
C13_2 C14_2 1_555 1_555
Hf13 O37_2 1_555 1_555
C8_3 H1_3 1_555 1_555
C16_2 H2_2 1_555 1_555
C14_2 H3_2 1_555 1_555
C20_2 H4_2 1_555 1_555
C10_2 H5_2 1_555 1_555
C12_2 H6_2 1_555 1_555
C24_2 H9_2 1_555 1_555
C4_3 H10_3 1_555 1_555
O3_3 Hf15_2 1_555 1_555
O4_3 C1_3 1_555 1_555
C1_3 O3_3 1_555 1_555
C2_3 C1_3 1_555 1_555
O42 C5_3 1_555 1_555
O8_3 C5_3 1_555 1_555
C5_3 C6_3 1_555 1_555
C6_3 C2_3 1_555 1_555
Hf14_2 O22_2 1_555 1_555
O22_2 Hf15_2 1_555 1_555
O23_2 Hf14_2 1_555 1_555
O24_2 Hf15_2 1_555 1_555
C17_2 O23_2 1_555 1_555
C18_2 C17_2 1_555 1_555
O27_2 C21_2 1_555 1_555
O28_2 C21_2 1_555 1_555
C21_2 C22_2 1_555 1_555
C22_2 C18_2 1_555 1_555
Hf22 O4_3 1_555 1_555
Hf12 O27_2 1_555 1_555
O52_3 Hf14_2 1_555 1_555
O54_3 Hf15_2 1_555 1_555
O22_2 Hf22 1_555 1_555
O24_2 C17_2 1_555 1_555
C18_2 H7_2 1_555 1_555
C22_2 H8_2 1_555 1_555
C2_3 H11_3 1_555 1_555
C6_3 H12_3 1_555 1_555
Hf7 O34_2 1_555 1_555
O42_2 Hf10_2 1_555 1_555
O51_4 Hf10_2 1_555 1_555
O51 C3_4 1_555 1_555
C3_4 O5_4 1_555 1_555
C4_4 C3_4 1_555 1_555
O9_4 C7_4 1_555 1_555
O51_2 C7_4 1_555 1_555
C7_4 C8_4 1_555 1_555
C8_4 C4_4 1_555 1_555
O53_4 Hf13 1_555 1_555
C8_4 H1_4 1_555 1_555
C4_4 H10_4 1_555 1_555
O3_4 Hf10 1_555 1_555
O4_4 C1_4 1_555 1_555
C1_4 O3_4 1_555 1_555
C2_4 C1_4 1_555 1_555
O42_2 C5_4 1_555 1_555
O8_4 C5_4 1_555 1_555
C5_4 C6_4 1_555 1_555
C6_4 C2_4 1_555 1_555
Hf7 O8_4 1_555 1_555
O54_4 Hf10 1_555 1_555
C2_4 H11_4 1_555 1_555
C6_4 H12_4 1_555 1_555
Hf12 O22_3 1_555 1_555
O52_4 Hf12 1_555 1_555
O45 C1_5 1_555 1_555
C1_5 O44_2 1_555 1_555
C2_5 C1_5 1_555 1_555
O51_4 C3_5 1_555 1_555
C3_5 O50_2 1_555 1_555
C4_5 C3_5 1_555 1_555
O43 C5_5 1_555 1_555
O46 C5_5 1_555 1_555
C5_5 C6_5 1_555 1_555
C6_5 C2_5 1_555 1_555
O49 C7_5 1_555 1_555
O51_3 C7_5 1_555 1_555
C7_5 C8_5 1_555 1_555
C8_5 C4_5 1_555 1_555
O23_3 Hf7 1_555 1_555
C17_3 O23_3 1_555 1_555
C18_3 C17_3 1_555 1_555
O27_3 C21_3 1_555 1_555
O47_2 C21_3 1_555 1_555
C21_3 C22_3 1_555 1_555
C22_3 C18_3 1_555 1_555
Hf22 O27_3 1_555 1_555
O48_2 C17_3 1_555 1_555
C8_5 H1_5 1_555 1_555
C18_3 H7_3 1_555 1_555
C22_3 H8_3 1_555 1_555
C4_5 H10_5 1_555 1_555
C2_5 H11_5 1_555 1_555
C6_5 H12_5 1_555 1_555
O14_3 Hf23 1_555 1_555
O48 C9_3 1_555 1_555
C9_3 O14_3 1_555 1_555
C10_3 C9_3 1_555 1_555
O18_3 C13_3 1_555 1_555
C13_3 O47 1_555 1_555
C14_3 C10_3 1_555 1_555
Hf21 O18_3 1_555 1_555
C13_3 C14_3 1_555 1_555
C14_3 H3_3 1_555 1_555
C10_3 H5_3 1_555 1_555
O52_4 C11_3 1_555 1_555
C11_3 O16_3 1_555 1_555
C12_3 C11_3 1_555 1_555
O20_3 C15_3 1_555 1_555
O53_4 C15_3 1_555 1_555
C15_3 C16_3 1_555 1_555
C16_3 C12_3 1_555 1_555
O53_3 C19_3 1_555 1_555
C19_3 O25_3 1_555 1_555
C20_3 C19_3 1_555 1_555
O29_3 C23_3 1_555 1_555
O52_3 C23_3 1_555 1_555
C23_3 C24_3 1_555 1_555
C24_3 C20_3 1_555 1_555
Hf22 O29_3 1_555 1_555
C16_3 H2_3 1_555 1_555
C20_3 H4_3 1_555 1_555
C12_3 H6_3 1_555 1_555
C24_3 H9_3 1_555 1_555
O46_2 C1_6 1_555 1_555
C1_6 O44 1_555 1_555
C2_6 C1_6 1_555 1_555
O43_2 C5_6 1_555 1_555
O45_2 C5_6 1_555 1_555
C5_6 C6_6 1_555 1_555
C6_6 C2_6 1_555 1_555
C2_6 H11_6 1_555 1_555
C6_6 H12_6 1_555 1_555
O54_4 C3_6 1_555 1_555
C3_6 O50 1_555 1_555
C4_6 C3_6 1_555 1_555
O49_2 C7_6 1_555 1_555
O54_3 C7_6 1_555 1_555
C7_6 C8_6 1_555 1_555
C8_6 C4_6 1_555 1_555
C8_6 H1_6 1_555 1_555
C4_6 H10_6 1_555 1_555

#END
