
###############################################################################
#
# This file contains modified crystal structure data generated from the
# MOF subset of the Cambridge Structural Database (CSD) v543 
# hosted by the Cambridge Crystallographic Data Centre (CCDC).
#
# This work is licensed under the Creative Commons
# Attribution-NonCommercial-ShareAlike 4.0 International License.
# To view a copy of this license, visit
# http://creativecommons.org/licenses/by-nc-sa/4.0/
# or send a letter to
# Creative Commons, PO Box 1866, Mountain View, CA 94042, USA.
#
# CIF created using the CSD Python API on 29 September 2022
# The structure has been converted into the P1 space group
# The structure has a 3D framework
# The original CSD entry FISGOF is in the rhombohedral crystal system
# The framework has been calculated to contain at least 10.0% void space
# The void calculation uses a probe of radius 1.32A, grid spacing 0.4
# H atom positions have been added when not included in the experimental data
# Generated hydrogen atom positions removed from atoms on special positions
#
###############################################################################

data_FISGOF
_chemical_formula_moiety         '(C270 H189 Cu18 O81)n'
_symmetry_cell_setting           triclinic
_symmetry_space_group_name_H-M   'P 1'
_symmetry_Int_Tables_number      1
_space_group_name_Hall           'P 1'
loop_
_symmetry_equiv_pos_site_id
_symmetry_equiv_pos_as_xyz
1 x,y,z
_cell_length_a                   26.2119(14)
_cell_length_b                   26.2119(14)
_cell_length_c                   36.423(3)
_cell_angle_alpha                90
_cell_angle_beta                 90
_cell_angle_gamma                120
_cell_volume                     21672.2
loop_
_atom_site_label
_atom_site_type_symbol
_atom_site_fract_x
_atom_site_fract_y
_atom_site_fract_z
Cu1 Cu 0.19773(3) 0.39545(5) 0.03009(3)
O2 O 0.2738(2) 0.4481(2) 0.04740(17)
O3 O 0.8188(2) 0.7385(2) 0.28687(14)
O4 O 0.7900(2) 0.6833(2) 0.33838(15)
O6 O 0.17423(17) 0.3485(3) 0.0810(2)
C1 C 0.3096(4) 0.4897(4) 0.0297(2)
C2 C 0.4098(2) 0.5902(2) 0.0252(3)
H1 H 0.4017 0.5983 0.0017
C3 C 0.3714(3) 0.5372(3) 0.0463(2)
C4 C 0.3847(3) 0.5233(3) 0.0812(2)
H2 H 0.3579 0.4891 0.0934
C5 C 0.4383(3) 0.5617(3) 0.0967(3)
C6 C 0.4515(4) 0.5485(4) 0.1285(4)
C7 C 0.4633(4) 0.5367(4) 0.1545(5)
C8 C 0.4811(4) 0.5189(4) 0.1900(4)
C9 C 0.5344(5) 0.5535(4) 0.2079(3)
H3 H 0.5606 0.5888 0.1965
C10 C 0.5530(4) 0.5410(4) 0.2412(3)
C11 C 0.5130(3) 0.4870(3) 0.2588(3)
H4 H 0.5220 0.4780 0.2817
C12 C 0.6135(5) 0.5833(5) 0.2600(3)
C13 C 0.6579(6) 0.6269(5) 0.2401(3)
H5 H 0.6510 0.6304 0.2154
C14 C 0.7123(5) 0.6661(5) 0.2543(3)
H6 H 0.7413 0.6972 0.2409
C15 C 0.7195(4) 0.6553(4) 0.2891(2)
C16 C 0.6791(5) 0.6131(5) 0.3094(3)
H7 H 0.6887 0.6058 0.3327
C17 C 0.6190(5) 0.5776(5) 0.2954(3)
H8 H 0.5873 0.5530 0.3103
C18 C 0.7809(3) 0.6931(3) 0.3060(2)
O8 O 0.5519(2) 0.7262(2) 0.04740(17)
O9 O 0.2615(2) 0.1812(2) 0.28687(14)
O10 O 0.3167(2) 0.2100(2) 0.33838(15)
C19 C 0.5103(4) 0.6904(4) 0.0297(2)
C20 C 0.4628(3) 0.6286(3) 0.0463(2)
C21 C 0.4767(3) 0.6153(3) 0.0812(2)
H9 H 0.5109 0.6421 0.0934
C22 C 0.4465(4) 0.4656(5) 0.2079(3)
H10 H 0.4112 0.4394 0.1965
C23 C 0.4590(4) 0.4470(4) 0.2412(3)
C24 C 0.4167(5) 0.3865(5) 0.2600(3)
C25 C 0.3731(5) 0.3421(6) 0.2401(3)
H11 H 0.3696 0.3490 0.2154
C26 C 0.3339(5) 0.2877(5) 0.2543(3)
H12 H 0.3028 0.2587 0.2409
C27 C 0.3447(4) 0.2805(4) 0.2891(2)
C28 C 0.3869(5) 0.3209(5) 0.3094(3)
H13 H 0.3942 0.3113 0.3327
C29 C 0.4224(5) 0.3810(5) 0.2954(3)
H14 H 0.4470 0.4127 0.3103
C30 C 0.3069(3) 0.2191(3) 0.3060(2)
Cu3 Cu 0.60455(5) 0.80228(6) 0.03009(3)
Cu4 Cu 0.86440(3) 0.72878(5) 0.36342(3)
Cu5 Cu 0.27122(5) 0.13561(6) 0.36342(3)
Cu7 Cu 0.89650(3) 0.79300(5) 0.30325(3)
Cu8 Cu 0.20700(5) 0.10349(6) 0.30325(3)
O12 O 0.1743(3) 0.4481(2) 0.04740(17)
O15 O 0.1233(2) 0.3500(2) 0.00505(15)
O16 O 0.2266(3) 0.3500(2) 0.00505(15)
Cu2 Cu 0.22983(3) 0.45967(5) 0.96992(3)
O1 O 0.3048(3) 0.5056(2) 0.99464(16)
O5 O 0.2567(2) 0.5133(5) 0.9185(2)
O7 O 0.4944(2) 0.6952(3) 0.99464(16)
Cu6 Cu 0.54033(5) 0.77016(6) 0.96992(3)
O11 O 0.2008(4) 0.5056(2) 0.99464(16)
O13 O 0.1521(2) 0.4052(2) 0.95354(14)
O14 O 0.2530(3) 0.4052(2) 0.95354(14)
O3_2 O 0.2615(2) 0.0803(3) 0.28687(14)
O4_2 O 0.3167(2) 0.1067(3) 0.33838(15)
C10_2 C 0.4590(4) 0.0120(6) 0.2412(3)
C11_2 C 0.5130(3) 0.0260(4) 0.2588(3)
H4_2 H 0.5220 0.0440 0.2817
C12_2 C 0.4167(5) 0.0302(7) 0.2600(3)
C13_2 C 0.3731(5) 0.0310(8) 0.2401(3)
H5_2 H 0.3696 0.0206 0.2154
C14_2 C 0.3339(5) 0.0462(7) 0.2543(3)
H6_2 H 0.3028 0.0441 0.2409
C15_2 C 0.3447(4) 0.0642(6) 0.2891(2)
C16_2 C 0.3869(5) 0.0660(7) 0.3094(3)
H7_2 H 0.3942 0.0829 0.3327
C17_2 C 0.4224(5) 0.0414(7) 0.2954(3)
H8_2 H 0.4470 0.0343 0.3103
C18_2 C 0.3069(3) 0.0878(4) 0.3060(2)
O9_2 O 0.8188(2) 0.0803(3) 0.28687(14)
O10_2 O 0.7900(2) 0.1067(3) 0.33838(15)
C23_2 C 0.5530(4) 0.0120(6) 0.2412(3)
C24_2 C 0.6135(5) 0.0302(7) 0.2600(3)
C25_2 C 0.6579(6) 0.0310(8) 0.2401(3)
H11_2 H 0.6510 0.0206 0.2154
C26_2 C 0.7123(5) 0.0462(7) 0.2543(3)
H12_2 H 0.7413 0.0441 0.2409
C27_2 C 0.7195(4) 0.0642(6) 0.2891(2)
C28_2 C 0.6791(5) 0.0660(7) 0.3094(3)
H13_2 H 0.6887 0.0829 0.3327
C29_2 C 0.6190(5) 0.0414(7) 0.2954(3)
H14_2 H 0.5873 0.0343 0.3103
C30_2 C 0.7809(3) 0.0878(4) 0.3060(2)
Cu5_2 Cu 0.86439(6) 0.13560(8) 0.36342(3)
Cu8_2 Cu 0.89651(6) 0.10350(8) 0.30325(3)
O2_2 O 0.5519(2) 0.8257(3) 0.04740(17)
O6_2 O 0.6515(3) 0.82573(34) 0.0810(2)
C1_2 C 0.5103(4) 0.8199(6) 0.0297(2)
C2_2 C 0.4098(2) 0.8196(3) 0.0252(3)
H1_2 H 0.4017 0.8034 0.0017
C3_2 C 0.4628(3) 0.8342(4) 0.0463(2)
C4_2 C 0.4767(3) 0.8614(4) 0.0812(2)
H2_2 H 0.5109 0.8688 0.0934
C5_2 C 0.4383(3) 0.8766(4) 0.0967(3)
C6_2 C 0.4515(4) 0.9030(6) 0.1285(4)
C7_2 C 0.4633(4) 0.9266(6) 0.1545(5)
C8_2 C 0.4811(4) 0.9622(6) 0.1900(4)
C9_2 C 0.4465(4) 0.9809(6) 0.2079(3)
H3_2 H 0.4112 0.9718 0.1965
O8_2 O 0.2738(2) 0.8257(3) 0.04740(17)
C19_2 C 0.3096(4) 0.8199(6) 0.0297(2)
C20_2 C 0.3714(3) 0.8342(4) 0.0463(2)
C21_2 C 0.3847(3) 0.8614(4) 0.0812(2)
H9_2 H 0.3579 0.8688 0.0934
C22_2 C 0.5344(5) 0.9809(6) 0.2079(3)
H10_2 H 0.5606 0.9718 0.1965
Cu3_2 Cu 0.19772(6) 0.80227(8) 0.03009(3)
O15_2 O 0.6500(2) 0.7734(3) 0.00505(15)
O16_2 O 0.6500(2) 0.8767(4) 0.00505(15)
O1_2 O 0.4944(2) 0.7992(4) 0.99464(16)
O5_2 O 0.4867(5) 0.7434(5) 0.9185(2)
O7_2 O 0.3048(3) 0.7992(4) 0.99464(16)
Cu6_2 Cu 0.22984(6) 0.77017(8) 0.96992(3)
O13_2 O 0.5948(2) 0.7470(3) 0.95354(14)
O14_2 O 0.5948(2) 0.8479(4) 0.95354(14)
O2_3 O 0.1743(3) 0.7262(2) 0.04740(17)
O6_3 O 0.17427(34) 0.82577(17) 0.0810(2)
C1_3 C 0.1801(6) 0.6904(4) 0.0297(2)
C2_3 C 0.1804(3) 0.5902(2) 0.0252(3)
H1_3 H 0.1966 0.5983 0.0017
C3_3 C 0.1658(4) 0.6286(3) 0.0463(2)
C4_3 C 0.1386(4) 0.6153(3) 0.0812(2)
H2_3 H 0.1312 0.6421 0.0934
C5_3 C 0.1234(4) 0.5617(3) 0.0967(3)
C6_3 C 0.0970(6) 0.5485(4) 0.1285(4)
C7_3 C 0.0734(6) 0.5367(4) 0.1545(5)
C8_3 C 0.0378(6) 0.5189(4) 0.1900(4)
C9_3 C 0.0191(6) 0.4656(5) 0.2079(3)
H3_3 H 0.0282 0.4394 0.1965
C19_3 C 0.1801(6) 0.4897(4) 0.0297(2)
C20_3 C 0.1658(4) 0.5372(3) 0.0463(2)
C21_3 C 0.1386(4) 0.5233(3) 0.0812(2)
H9_3 H 0.1312 0.4891 0.0934
C22_3 C 0.0191(6) 0.5535(4) 0.2079(3)
H10_3 H 0.0282 0.5888 0.1965
O15_3 O 0.2266(3) 0.8767(2) 0.00505(15)
O16_3 O 0.1233(4) 0.7734(3) 0.00505(15)
O1_3 O 0.2008(4) 0.6952(3) 0.99464(16)
O5_3 O 0.2566(5) 0.7433(2) 0.9185(2)
O13_3 O 0.2530(3) 0.8479(2) 0.95354(14)
O14_3 O 0.1521(4) 0.7470(3) 0.95354(14)
O3_3 O 0.9197(3) 0.1812(2) 0.28687(14)
O4_3 O 0.8933(3) 0.2100(2) 0.33838(15)
C10_3 C 0.9880(6) 0.4470(4) 0.2412(3)
C11_3 C 0.9740(4) 0.4870(3) 0.2588(3)
H4_3 H 0.9560 0.4780 0.2817
C12_3 C 0.9698(7) 0.3865(5) 0.2600(3)
C13_3 C 0.9690(8) 0.3421(6) 0.2401(3)
H5_3 H 0.9794 0.3490 0.2154
C14_3 C 0.9538(7) 0.2877(5) 0.2543(3)
H6_3 H 0.9559 0.2587 0.2409
C15_3 C 0.9358(6) 0.2805(4) 0.2891(2)
C16_3 C 0.9340(7) 0.3209(5) 0.3094(3)
H7_3 H 0.9171 0.3113 0.3327
C17_3 C 0.9586(7) 0.3810(5) 0.2954(3)
H8_3 H 0.9657 0.4127 0.3103
C18_3 C 0.9122(4) 0.2191(3) 0.3060(2)
O9_3 O 0.9197(3) 0.7385(2) 0.28687(14)
O10_3 O 0.8933(3) 0.6833(2) 0.33838(15)
C23_3 C 0.9880(6) 0.5410(4) 0.2412(3)
C24_3 C 0.9698(7) 0.5833(5) 0.2600(3)
C25_3 C 0.9690(8) 0.6269(5) 0.2401(3)
H11_3 H 0.9794 0.6304 0.2154
C26_3 C 0.9538(7) 0.6661(5) 0.2543(3)
H12_3 H 0.9559 0.6972 0.2409
C27_3 C 0.9358(6) 0.6553(4) 0.2891(2)
C28_3 C 0.9340(7) 0.6131(5) 0.3094(3)
H13_3 H 0.9171 0.6058 0.3327
C29_3 C 0.9586(7) 0.5776(5) 0.2954(3)
H14_3 H 0.9657 0.5530 0.3103
C30_3 C 0.9122(4) 0.6931(3) 0.3060(2)
O3_4 O 0.4855(2) 0.0718(2) 0.62020(14)
O4_4 O 0.4567(2) 0.0166(2) 0.67171(15)
H6_4 H 0.4080 0.0305 0.5742
C18_4 C 0.4476(3) 0.0264(3) 0.6393(2)
O7_3 O 0.1611(2) 0.0285(3) 0.32797(16)
O8_3 O 0.2186(2) 0.0595(2) 0.38073(17)
C19_4 C 0.1770(4) 0.0237(4) 0.3630(2)
Cu4_2 Cu 0.53106(3) 0.06212(5) 0.69676(3)
Cu7_2 Cu 0.56316(3) 0.12634(5) 0.63659(3)
O1_4 O 0.9715(3) 0.8389(2) 0.32797(16)
O2_4 O 0.9405(2) 0.7814(2) 0.38073(17)
O5_4 O 0.9234(2) 0.8466(5) 0.2518(2)
O6_4 O 0.84090(17) 0.6818(3) 0.4143(2)
C1_4 C 0.9763(4) 0.8230(4) 0.3630(2)
O9_4 O 0.9282(2) 0.5145(2) 0.62020(14)
O10_4 O 0.9834(2) 0.5433(2) 0.67171(15)
H12_4 H 0.9695 0.5920 0.5742
C30_4 C 0.9736(3) 0.5524(3) 0.6393(2)
Cu5_3 Cu 0.93788(5) 0.46895(6) 0.69676(3)
Cu8_3 Cu 0.87366(5) 0.43683(6) 0.63659(3)
O11_2 O 0.8675(4) 0.8389(2) 0.32797(16)
O12_2 O 0.8410(3) 0.7814(2) 0.38073(17)
O1_5 O 0.1611(2) 0.1325(4) 0.32797(16)
O2_5 O 0.2186(2) 0.1590(3) 0.38073(17)
O5_5 O 0.1534(5) 0.0767(5) 0.2518(2)
O6_5 O 0.3182(3) 0.15906(34) 0.4143(2)
C1_5 C 0.1770(4) 0.1532(6) 0.3630(2)
C2_4 C 0.0765(2) 0.1529(3) 0.3585(3)
H1_4 H 0.0684 0.1367 0.3350
C3_4 C 0.1295(3) 0.1675(4) 0.3796(2)
C4_4 C 0.1434(3) 0.1947(4) 0.4145(2)
H2_4 H 0.1776 0.2021 0.4267
C5_4 C 0.1050(3) 0.2099(4) 0.4300(3)
C6_4 C 0.1182(4) 0.2363(6) 0.4618(4)
C7_4 C 0.1300(4) 0.2599(6) 0.4878(5)
C8_4 C 0.1478(4) 0.2955(6) 0.5233(4)
C9_4 C 0.1132(4) 0.3142(6) 0.5412(3)
H3_4 H 0.0779 0.3051 0.5298
C10_4 C 0.1257(4) 0.3453(6) 0.5745(3)
C11_4 C 0.1797(3) 0.3593(4) 0.5921(3)
H4_4 H 0.1887 0.3773 0.6150
C12_4 C 0.0834(5) 0.3635(7) 0.5933(3)
C13_4 C 0.0398(5) 0.3643(8) 0.5734(3)
H5_4 H 0.0363 0.3539 0.5487
C14_4 C 0.0006(5) 0.3795(7) 0.5876(3)
C15_4 C 0.0114(4) 0.3975(6) 0.6224(2)
C16_4 C 0.0536(5) 0.3993(7) 0.6427(3)
H7_4 H 0.0609 0.4162 0.6660
C17_4 C 0.0891(5) 0.3747(7) 0.6287(3)
H8_4 H 0.1137 0.3676 0.6436
O9_5 O 0.4855(2) 0.4136(3) 0.62020(14)
O10_5 O 0.4567(2) 0.4400(3) 0.67171(15)
C20_4 C 0.0381(3) 0.1675(4) 0.3796(2)
C21_4 C 0.0514(3) 0.1947(4) 0.4145(2)
H9_4 H 0.0246 0.2021 0.4267
C22_4 C 0.2011(5) 0.3142(6) 0.5412(3)
H10_4 H 0.2273 0.3051 0.5298
C23_4 C 0.2197(4) 0.3453(6) 0.5745(3)
C24_4 C 0.2802(5) 0.3635(7) 0.5933(3)
C25_4 C 0.3246(6) 0.3643(8) 0.5734(3)
H11_4 H 0.3177 0.3539 0.5487
C26_4 C 0.3790(5) 0.3795(7) 0.5876(3)
H12_5 H 0.4080 0.3774 0.5742
C27_4 C 0.3862(4) 0.3975(6) 0.6224(2)
C28_4 C 0.3458(5) 0.3993(7) 0.6427(3)
H13_4 H 0.3554 0.4162 0.6660
C29_4 C 0.2857(5) 0.3747(7) 0.6287(3)
H14_4 H 0.2540 0.3676 0.6436
C30_5 C 0.4476(3) 0.4211(4) 0.6393(2)
Cu5_4 Cu 0.53105(6) 0.46894(8) 0.69676(3)
Cu8_4 Cu 0.56317(6) 0.43684(8) 0.63659(3)
O3_5 O 0.9282(2) 0.4136(3) 0.62020(14)
O4_5 O 0.9834(2) 0.4400(3) 0.67171(15)
H6_5 H 0.9695 0.3774 0.5742
C18_5 C 0.9736(3) 0.4211(4) 0.6393(2)
O7_4 O 0.9715(3) 0.1325(4) 0.32797(16)
O8_4 O 0.9405(2) 0.1590(3) 0.38073(17)
C19_5 C 0.9763(4) 0.1532(6) 0.3630(2)
O1_6 O 0.8675(4) 0.0285(3) 0.32797(16)
O2_6 O 0.8410(3) 0.0595(2) 0.38073(17)
O5_6 O 0.9233(5) 0.0766(2) 0.2518(2)
O6_6 O 0.84094(34) 0.15910(17) 0.4143(2)
C1_6 C 0.8468(6) 0.0237(4) 0.3630(2)
O9_6 O 0.5864(3) 0.0718(2) 0.62020(14)
O10_6 O 0.5600(3) 0.0166(2) 0.67171(15)
H12_6 H 0.6226 0.0305 0.5742
C30_6 C 0.5789(4) 0.0264(3) 0.6393(2)
O3_6 O 0.5864(3) 0.5145(2) 0.62020(14)
O4_6 O 0.5600(3) 0.5433(2) 0.67171(15)
C2_5 C 0.8471(3) 0.9235(2) 0.3585(3)
H1_5 H 0.8633 0.9316 0.3350
C3_5 C 0.8325(4) 0.9619(3) 0.3796(2)
C4_5 C 0.8053(4) 0.9486(3) 0.4145(2)
H2_5 H 0.7979 0.9754 0.4267
C5_5 C 0.7901(4) 0.8950(3) 0.4300(3)
C6_5 C 0.7637(6) 0.8818(4) 0.4618(4)
C7_5 C 0.7401(6) 0.8700(4) 0.4878(5)
C8_5 C 0.7045(6) 0.8522(4) 0.5233(4)
C9_5 C 0.6858(6) 0.7989(5) 0.5412(3)
H3_5 H 0.6949 0.7727 0.5298
C10_5 C 0.6547(6) 0.7803(4) 0.5745(3)
C11_5 C 0.6407(4) 0.8203(3) 0.5921(3)
H4_5 H 0.6227 0.8113 0.6150
C12_5 C 0.6365(7) 0.7198(5) 0.5933(3)
C13_5 C 0.6357(8) 0.6754(6) 0.5734(3)
H5_5 H 0.6461 0.6823 0.5487
C14_5 C 0.6205(7) 0.6210(5) 0.5876(3)
H6_6 H 0.6226 0.5920 0.5742
C15_5 C 0.6025(6) 0.6138(4) 0.6224(2)
C16_5 C 0.6007(7) 0.6542(5) 0.6427(3)
H7_5 H 0.5838 0.6446 0.6660
C17_5 C 0.6253(7) 0.7143(5) 0.6287(3)
H8_5 H 0.6324 0.7460 0.6436
C18_6 C 0.5789(4) 0.5524(3) 0.6393(2)
C19_6 C 0.8468(6) 0.8230(4) 0.3630(2)
C20_5 C 0.8325(4) 0.8705(3) 0.3796(2)
C21_5 C 0.8053(4) 0.8566(3) 0.4145(2)
H9_5 H 0.7979 0.8224 0.4267
C22_5 C 0.6858(6) 0.8868(4) 0.5412(3)
H10_5 H 0.6949 0.9221 0.5298
C23_5 C 0.6547(6) 0.8743(4) 0.5745(3)
C24_5 C 0.6365(7) 0.9166(5) 0.5933(3)
C25_5 C 0.6357(8) 0.9602(5) 0.5734(3)
H11_5 H 0.6461 0.9637 0.5487
C26_5 C 0.6205(7) 0.9994(5) 0.5876(3)
C27_5 C 0.6025(6) 0.9886(4) 0.6224(2)
C28_5 C 0.6007(7) 0.9464(5) 0.6427(3)
H13_5 H 0.5838 0.9391 0.6660
C29_5 C 0.6253(7) 0.9109(5) 0.6287(3)
H14_5 H 0.6324 0.8863 0.6436
C14_6 C 0.0456(5) 0.3328(5) 0.9210(3)
H6_7 H 0.0746 0.3639 0.9076
C15_6 C 0.0528(4) 0.3220(4) 0.9558(2)
C16_6 C 0.0124(5) 0.2798(5) 0.9761(3)
H7_6 H 0.0220 0.2725 0.9994
C18_7 C 0.1142(3) 0.3598(3) 0.9727(2)
O1_7 O 0.6381(3) 0.1723(2) 0.66131(16)
O2_7 O 0.6071(2) 0.1148(2) 0.71407(17)
O5_7 O 0.5900(2) 0.1800(5) 0.5852(2)
O6_7 O 0.50756(17) 0.0152(3) 0.7477(2)
C1_7 C 0.6429(4) 0.1564(4) 0.6964(2)
C2_6 C 0.7431(2) 0.2569(2) 0.6919(3)
H1_6 H 0.7350 0.2650 0.6684
C3_6 C 0.7047(3) 0.2039(3) 0.7130(2)
C4_6 C 0.7180(3) 0.1900(3) 0.7479(2)
H2_6 H 0.6912 0.1558 0.7601
C5_6 C 0.7716(3) 0.2284(3) 0.7634(3)
C6_6 C 0.7848(4) 0.2152(4) 0.7952(4)
C7_6 C 0.7966(4) 0.2034(4) 0.8212(5)
C8_6 C 0.8144(4) 0.1856(4) 0.8567(4)
C9_6 C 0.8677(5) 0.2202(4) 0.8746(3)
H3_6 H 0.8939 0.2555 0.8632
C10_6 C 0.8863(4) 0.2077(4) 0.9079(3)
C11_6 C 0.8463(3) 0.1537(3) 0.9255(3)
H4_6 H 0.8553 0.1447 0.9484
C12_6 C 0.9468(5) 0.2500(5) 0.9267(3)
C13_6 C 0.9912(6) 0.2936(5) 0.9068(3)
H5_6 H 0.9843 0.2971 0.8821
C17_6 C 0.9523(5) 0.2443(5) 0.9621(3)
H8_6 H 0.9206 0.2197 0.9770
O7_5 O 0.8277(2) 0.3619(3) 0.66131(16)
O8_5 O 0.8852(2) 0.3929(2) 0.71407(17)
C19_7 C 0.8436(4) 0.3571(4) 0.6964(2)
C20_6 C 0.7961(3) 0.2953(3) 0.7130(2)
C21_6 C 0.8100(3) 0.2820(3) 0.7479(2)
H9_6 H 0.8442 0.3088 0.7601
C22_6 C 0.7798(4) 0.1323(5) 0.8746(3)
H10_6 H 0.7445 0.1061 0.8632
C23_6 C 0.7923(4) 0.1137(4) 0.9079(3)
C24_6 C 0.7500(5) 0.0532(5) 0.9267(3)
C25_6 C 0.7064(5) 0.0088(6) 0.9068(3)
H11_6 H 0.7029 0.0157 0.8821
C29_6 C 0.7557(5) 0.0477(5) 0.9621(3)
H14_6 H 0.7803 0.0794 0.9770
O11_3 O 0.5341(4) 0.1723(2) 0.66131(16)
O12_3 O 0.5076(3) 0.1148(2) 0.71407(17)
H17 H 0.48173 0.0255919 0.761875
C26_6 C 0.6672(5) 0.9544(5) 0.9210(3)
H12_7 H 0.6361 0.9254 0.9076
C27_6 C 0.6780(4) 0.9472(4) 0.9558(2)
C28_6 C 0.7202(5) 0.9876(5) 0.9761(3)
H13_6 H 0.7275 0.9780 0.9994
C30_7 C 0.6402(3) 0.8858(3) 0.9727(2)
H18 H 0.48627 0.972144 0.742737
C26_7 C 0.0456(5) 0.7129(7) 0.9210(3)
H12_8 H 0.0746 0.7108 0.9076
C27_7 C 0.0528(4) 0.7309(6) 0.9558(2)
C28_7 C 0.0124(5) 0.7327(7) 0.9761(3)
H13_7 H 0.0220 0.7496 0.9994
C30_8 C 0.1142(3) 0.7545(4) 0.9727(2)
H18_2 H 0.0278558 0.514126 0.742737
O1_8 O 0.8277(2) 0.4659(4) 0.66131(16)
O2_8 O 0.8852(2) 0.4924(3) 0.71407(17)
O5_8 O 0.8200(5) 0.4101(5) 0.5852(2)
O6_8 O 0.9848(3) 0.49240(34) 0.7477(2)
C1_8 C 0.8436(4) 0.4866(6) 0.6964(2)
C2_7 C 0.7431(2) 0.4863(3) 0.6919(3)
H1_7 H 0.7350 0.4701 0.6684
C3_7 C 0.7961(3) 0.5009(4) 0.7130(2)
C4_7 C 0.8100(3) 0.5281(4) 0.7479(2)
H2_7 H 0.8442 0.5355 0.7601
C5_7 C 0.7716(3) 0.5433(4) 0.7634(3)
C6_7 C 0.7848(4) 0.5697(6) 0.7952(4)
C7_7 C 0.7966(4) 0.5933(6) 0.8212(5)
C8_7 C 0.8144(4) 0.6289(6) 0.8567(4)
C9_7 C 0.7798(4) 0.6476(6) 0.8746(3)
H3_7 H 0.7445 0.6385 0.8632
C10_7 C 0.7923(4) 0.6787(6) 0.9079(3)
C11_7 C 0.8463(3) 0.6927(4) 0.9255(3)
H4_7 H 0.8553 0.7107 0.9484
C12_7 C 0.7500(5) 0.6969(7) 0.9267(3)
C13_7 C 0.7064(5) 0.6977(8) 0.9068(3)
H5_7 H 0.7029 0.6873 0.8821
C14_7 C 0.6672(5) 0.7129(7) 0.9210(3)
H6_8 H 0.6361 0.7108 0.9076
C15_7 C 0.6780(4) 0.7309(6) 0.9558(2)
C16_7 C 0.7202(5) 0.7327(7) 0.9761(3)
H7_7 H 0.7275 0.7496 0.9994
C17_7 C 0.7557(5) 0.7081(7) 0.9621(3)
H8_7 H 0.7803 0.7010 0.9770
C18_8 C 0.6402(3) 0.7545(4) 0.9727(2)
O7_6 O 0.6381(3) 0.4659(4) 0.66131(16)
O8_6 O 0.6071(2) 0.4924(3) 0.71407(17)
C19_8 C 0.6429(4) 0.4866(6) 0.6964(2)
C20_7 C 0.7047(3) 0.5009(4) 0.7130(2)
C21_7 C 0.7180(3) 0.5281(4) 0.7479(2)
H9_7 H 0.6912 0.5355 0.7601
C22_7 C 0.8677(5) 0.6476(6) 0.8746(3)
H10_7 H 0.8939 0.6385 0.8632
C23_7 C 0.8863(4) 0.6787(6) 0.9079(3)
C24_7 C 0.9468(5) 0.6969(7) 0.9267(3)
C25_7 C 0.9912(6) 0.6977(8) 0.9068(3)
H11_7 H 0.9843 0.6873 0.8821
C29_7 C 0.9523(5) 0.7081(7) 0.9621(3)
H14_7 H 0.9206 0.7010 0.9770
H17_2 H 0.974408 0.456138 0.761875
O1_9 O 0.5341(4) 0.3619(3) 0.66131(16)
O2_9 O 0.5076(3) 0.3929(2) 0.71407(17)
O5_9 O 0.5899(5) 0.4100(2) 0.5852(2)
O6_9 O 0.50760(34) 0.49244(17) 0.7477(2)
C1_9 C 0.5134(6) 0.3571(4) 0.6964(2)
C2_8 C 0.5137(3) 0.2569(2) 0.6919(3)
H1_8 H 0.5299 0.2650 0.6684
C3_8 C 0.4991(4) 0.2953(3) 0.7130(2)
C4_8 C 0.4719(4) 0.2820(3) 0.7479(2)
H2_8 H 0.4645 0.3088 0.7601
C5_8 C 0.4567(4) 0.2284(3) 0.7634(3)
C6_8 C 0.4303(6) 0.2152(4) 0.7952(4)
C7_8 C 0.4067(6) 0.2034(4) 0.8212(5)
C8_8 C 0.3711(6) 0.1856(4) 0.8567(4)
C9_8 C 0.3524(6) 0.1323(5) 0.8746(3)
H3_8 H 0.3615 0.1061 0.8632
C10_8 C 0.3213(6) 0.1137(4) 0.9079(3)
C11_8 C 0.3073(4) 0.1537(3) 0.9255(3)
H4_8 H 0.2893 0.1447 0.9484
C12_8 C 0.3031(7) 0.0532(5) 0.9267(3)
C13_8 C 0.3023(8) 0.0088(6) 0.9068(3)
H5_8 H 0.3127 0.0157 0.8821
C17_8 C 0.2919(7) 0.0477(5) 0.9621(3)
H8_8 H 0.2990 0.0794 0.9770
C19_9 C 0.5134(6) 0.1564(4) 0.6964(2)
C20_8 C 0.4991(4) 0.2039(3) 0.7130(2)
C21_8 C 0.4719(4) 0.1900(3) 0.7479(2)
H9_8 H 0.4645 0.1558 0.7601
C22_8 C 0.3524(6) 0.2202(4) 0.8746(3)
H10_8 H 0.3615 0.2555 0.8632
C23_8 C 0.3213(6) 0.2077(4) 0.9079(3)
C24_8 C 0.3031(7) 0.2500(5) 0.9267(3)
C25_8 C 0.3023(8) 0.2936(5) 0.9068(3)
H11_8 H 0.3127 0.2971 0.8821
C26_8 C 0.2871(7) 0.3328(5) 0.9210(3)
H12_9 H 0.2892 0.3639 0.9076
C27_8 C 0.2691(6) 0.3220(4) 0.9558(2)
C28_8 C 0.2673(7) 0.2798(5) 0.9761(3)
H13_8 H 0.2504 0.2725 0.9994
C29_8 C 0.2919(7) 0.2443(5) 0.9621(3)
H14_8 H 0.2990 0.2197 0.9770
C30_9 C 0.2455(4) 0.3598(3) 0.9727(2)
C14_8 C 0.2871(7) 0.9544(5) 0.9210(3)
H6_9 H 0.2892 0.9254 0.9076
C15_8 C 0.2691(6) 0.9472(4) 0.9558(2)
C16_8 C 0.2673(7) 0.9876(5) 0.9761(3)
H7_8 H 0.2504 0.9780 0.9994
C18_9 C 0.2455(4) 0.8858(3) 0.9727(2)
H17_3 H 0.974408 0.51827 0.761875
H17_4 H 0.543862 0.0255919 0.761875
C2_9 C 0.0765(2) 0.9235(2) 0.3585(3)
H1_9 H 0.0684 0.9316 0.3350
C3_9 C 0.0381(3) 0.8705(3) 0.3796(2)
C4_9 C 0.0514(3) 0.8566(3) 0.4145(2)
H2_9 H 0.0246 0.8224 0.4267
C5_9 C 0.1050(3) 0.8950(3) 0.4300(3)
C6_9 C 0.1182(4) 0.8818(4) 0.4618(4)
C7_9 C 0.1300(4) 0.8700(4) 0.4878(5)
C8_9 C 0.1478(4) 0.8522(4) 0.5233(4)
C9_9 C 0.2011(5) 0.8868(4) 0.5412(3)
H3_9 H 0.2273 0.9221 0.5298
C10_9 C 0.2197(4) 0.8743(4) 0.5745(3)
C11_9 C 0.1797(3) 0.8203(3) 0.5921(3)
H4_9 H 0.1887 0.8113 0.6150
C12_9 C 0.2802(5) 0.9166(5) 0.5933(3)
C13_9 C 0.3246(6) 0.9602(5) 0.5734(3)
H5_9 H 0.3177 0.9637 0.5487
C14_9 C 0.3790(5) 0.9994(5) 0.5876(3)
C15_9 C 0.3862(4) 0.9886(4) 0.6224(2)
C16_9 C 0.3458(5) 0.9464(5) 0.6427(3)
H7_9 H 0.3554 0.9391 0.6660
C17_9 C 0.2857(5) 0.9109(5) 0.6287(3)
H8_9 H 0.2540 0.8863 0.6436
C20_9 C 0.1295(3) 0.9619(3) 0.3796(2)
C21_9 C 0.1434(3) 0.9486(3) 0.4145(2)
H9_9 H 0.1776 0.9754 0.4267
C22_9 C 0.1132(4) 0.7989(5) 0.5412(3)
H10_9 H 0.0779 0.7727 0.5298
C23_9 C 0.1257(4) 0.7803(4) 0.5745(3)
C24_9 C 0.0834(5) 0.7198(5) 0.5933(3)
C25_9 C 0.0398(5) 0.6754(6) 0.5734(3)
H11_9 H 0.0363 0.6823 0.5487
C26_9 C 0.0006(5) 0.6210(5) 0.5876(3)
C27_9 C 0.0114(4) 0.6138(4) 0.6224(2)
C28_9 C 0.0536(5) 0.6542(5) 0.6427(3)
H13_9 H 0.0609 0.6446 0.6660
C29_9 C 0.0891(5) 0.7143(5) 0.6287(3)
H14_9 H 0.1137 0.7460 0.6436
loop_
_geom_bond_atom_site_label_1
_geom_bond_atom_site_label_2
_geom_bond_site_symmetry_1
_geom_bond_site_symmetry_2
O2 Cu1 1_555 1_555
O3 C18 1_555 1_555
O4 C18 1_555 1_555
O6 Cu1 1_555 1_555
C1 O2 1_555 1_555
C2 H1 1_555 1_555
C3 C1 1_555 1_555
C4 C3 1_555 1_555
H2 C4 1_555 1_555
C5 C4 1_555 1_555
C6 C5 1_555 1_555
C7 C6 1_555 1_555
C8 C7 1_555 1_555
C9 C8 1_555 1_555
H3 C9 1_555 1_555
C10 C9 1_555 1_555
C11 C10 1_555 1_555
H4 C11 1_555 1_555
C12 C10 1_555 1_555
C13 C12 1_555 1_555
H5 C13 1_555 1_555
C14 C13 1_555 1_555
H6 C14 1_555 1_555
C15 C14 1_555 1_555
C16 C15 1_555 1_555
H7 C16 1_555 1_555
C17 C12 1_555 1_555
H8 C17 1_555 1_555
C18 C15 1_555 1_555
O8 C19 1_555 1_555
O9 C30 1_555 1_555
O10 C30 1_555 1_555
C19 C20 1_555 1_555
C20 C2 1_555 1_555
C21 C5 1_555 1_555
H9 C21 1_555 1_555
C22 C8 1_555 1_555
H10 C22 1_555 1_555
C23 C11 1_555 1_555
C24 C23 1_555 1_555
C25 C24 1_555 1_555
H11 C25 1_555 1_555
C26 C25 1_555 1_555
H12 C26 1_555 1_555
C27 C26 1_555 1_555
C28 C27 1_555 1_555
H13 C28 1_555 1_555
C29 C24 1_555 1_555
H14 C29 1_555 1_555
C30 C27 1_555 1_555
Cu3 O8 1_555 1_555
Cu4 O4 1_555 1_555
Cu5 O10 1_555 1_555
Cu7 O3 1_555 1_555
Cu8 O9 1_555 1_555
O12 Cu1 1_555 1_555
O15 Cu1 1_555 1_555
O16 Cu1 1_555 1_555
C2 C3 1_555 1_555
C16 C17 1_555 1_555
C20 C21 1_555 1_555
C22 C23 1_555 1_555
C28 C29 1_555 1_555
Cu4 Cu7 1_555 1_555
Cu5 Cu8 1_555 1_555
Cu2 O1 1_555 1_555
O5 Cu2 1_555 1_555
Cu6 O7 1_555 1_555
O11 Cu2 1_555 1_555
O13 Cu2 1_555 1_555
O14 Cu2 1_555 1_555
O3_2 C18_2 1_555 1_555
O4_2 C18_2 1_555 1_555
C11_2 C10_2 1_555 1_555
H4_2 C11_2 1_555 1_555
C12_2 C10_2 1_555 1_555
C13_2 C12_2 1_555 1_555
H5_2 C13_2 1_555 1_555
C14_2 C13_2 1_555 1_555
H6_2 C14_2 1_555 1_555
C15_2 C14_2 1_555 1_555
C16_2 C15_2 1_555 1_555
H7_2 C16_2 1_555 1_555
C17_2 C12_2 1_555 1_555
H8_2 C17_2 1_555 1_555
C18_2 C15_2 1_555 1_555
O9_2 C30_2 1_555 1_555
O10_2 C30_2 1_555 1_555
C23_2 C11_2 1_555 1_555
C24_2 C23_2 1_555 1_555
C25_2 C24_2 1_555 1_555
H11_2 C25_2 1_555 1_555
C26_2 C25_2 1_555 1_555
H12_2 C26_2 1_555 1_555
C27_2 C26_2 1_555 1_555
C28_2 C27_2 1_555 1_555
H13_2 C28_2 1_555 1_555
C29_2 C24_2 1_555 1_555
H14_2 C29_2 1_555 1_555
C30_2 C27_2 1_555 1_555
Cu5 O4_2 1_555 1_555
Cu5_2 O10_2 1_555 1_555
Cu8 O3_2 1_555 1_555
Cu8_2 O9_2 1_555 1_555
C16_2 C17_2 1_555 1_555
C28_2 C29_2 1_555 1_555
Cu5_2 Cu8_2 1_555 1_555
O2_2 Cu3 1_555 1_555
O6_2 Cu3 1_555 1_555
C1_2 O2_2 1_555 1_555
C2_2 H1_2 1_555 1_555
C3_2 C1_2 1_555 1_555
C4_2 C3_2 1_555 1_555
H2_2 C4_2 1_555 1_555
C5_2 C4_2 1_555 1_555
C6_2 C5_2 1_555 1_555
C7_2 C6_2 1_555 1_555
C8_2 C7_2 1_555 1_555
C9_2 C8_2 1_555 1_555
H3_2 C9_2 1_555 1_555
O8_2 C19_2 1_555 1_555
C19_2 C20_2 1_555 1_555
C20_2 C2_2 1_555 1_555
C21_2 C5_2 1_555 1_555
H9_2 C21_2 1_555 1_555
C22_2 C8_2 1_555 1_555
H10_2 C22_2 1_555 1_555
Cu3_2 O8_2 1_555 1_555
O15_2 Cu3 1_555 1_555
O16_2 Cu3 1_555 1_555
C2_2 C3_2 1_555 1_555
C20_2 C21_2 1_555 1_555
Cu6 O1_2 1_555 1_555
O5_2 Cu6 1_555 1_555
Cu6_2 O7_2 1_555 1_555
O13_2 Cu6 1_555 1_555
O14_2 Cu6 1_555 1_555
O2_3 Cu3_2 1_555 1_555
O6_3 Cu3_2 1_555 1_555
C1_3 O2_3 1_555 1_555
C2_3 H1_3 1_555 1_555
C3_3 C1_3 1_555 1_555
C4_3 C3_3 1_555 1_555
H2_3 C4_3 1_555 1_555
C5_3 C4_3 1_555 1_555
C6_3 C5_3 1_555 1_555
C7_3 C6_3 1_555 1_555
C8_3 C7_3 1_555 1_555
C9_3 C8_3 1_555 1_555
H3_3 C9_3 1_555 1_555
O12 C19_3 1_555 1_555
C19_3 C20_3 1_555 1_555
C20_3 C2_3 1_555 1_555
C21_3 C5_3 1_555 1_555
H9_3 C21_3 1_555 1_555
C22_3 C8_3 1_555 1_555
H10_3 C22_3 1_555 1_555
O15_3 Cu3_2 1_555 1_555
O16_3 Cu3_2 1_555 1_555
C2_3 C3_3 1_555 1_555
C20_3 C21_3 1_555 1_555
Cu6_2 O1_3 1_555 1_555
O5_3 Cu6_2 1_555 1_555
O13_3 Cu6_2 1_555 1_555
O14_3 Cu6_2 1_555 1_555
O3_3 C18_3 1_555 1_555
O4_3 C18_3 1_555 1_555
C11_3 C10_3 1_555 1_555
H4_3 C11_3 1_555 1_555
C12_3 C10_3 1_555 1_555
C13_3 C12_3 1_555 1_555
H5_3 C13_3 1_555 1_555
C14_3 C13_3 1_555 1_555
H6_3 C14_3 1_555 1_555
C15_3 C14_3 1_555 1_555
C16_3 C15_3 1_555 1_555
H7_3 C16_3 1_555 1_555
C17_3 C12_3 1_555 1_555
H8_3 C17_3 1_555 1_555
C18_3 C15_3 1_555 1_555
O9_3 C30_3 1_555 1_555
O10_3 C30_3 1_555 1_555
C23_3 C11_3 1_555 1_555
C24_3 C23_3 1_555 1_555
C25_3 C24_3 1_555 1_555
H11_3 C25_3 1_555 1_555
C26_3 C25_3 1_555 1_555
H12_3 C26_3 1_555 1_555
C27_3 C26_3 1_555 1_555
C28_3 C27_3 1_555 1_555
H13_3 C28_3 1_555 1_555
C29_3 C24_3 1_555 1_555
H14_3 C29_3 1_555 1_555
C30_3 C27_3 1_555 1_555
Cu5_2 O4_3 1_555 1_555
Cu4 O10_3 1_555 1_555
Cu8_2 O3_3 1_555 1_555
Cu7 O9_3 1_555 1_555
C16_3 C17_3 1_555 1_555
C28_3 C29_3 1_555 1_555
O3_4 C18_4 1_555 1_555
O4_4 C18_4 1_555 1_555
O7_3 C19_4 1_555 1_555
O8_3 C19_4 1_555 1_555
Cu5 O8_3 1_555 1_555
Cu4_2 O4_4 1_555 1_555
Cu8 O7_3 1_555 1_555
Cu7_2 O3_4 1_555 1_555
Cu4_2 Cu7_2 1_555 1_555
Cu7 O1_4 1_555 1_555
O1_4 C1_4 1_555 1_555
O2_4 Cu4 1_555 1_555
O5_4 Cu7 1_555 1_555
O6_4 Cu4 1_555 1_555
C1_4 O2_4 1_555 1_555
O9_4 C30_4 1_555 1_555
O10_4 C30_4 1_555 1_555
Cu5_3 O10_4 1_555 1_555
Cu8_3 O9_4 1_555 1_555
O11_2 Cu7 1_555 1_555
O12_2 Cu4 1_555 1_555
Cu5_3 Cu8_3 1_555 1_555
Cu8 O1_5 1_555 1_555
O1_5 C1_5 1_555 1_555
O2_5 Cu5 1_555 1_555
O5_5 Cu8 1_555 1_555
O6_5 Cu5 1_555 1_555
C1_5 O2_5 1_555 1_555
C2_4 H1_4 1_555 1_555
C3_4 C1_5 1_555 1_555
C4_4 C3_4 1_555 1_555
H2_4 C4_4 1_555 1_555
C5_4 C4_4 1_555 1_555
C6_4 C5_4 1_555 1_555
C7_4 C6_4 1_555 1_555
C8_4 C7_4 1_555 1_555
C9_4 C8_4 1_555 1_555
H3_4 C9_4 1_555 1_555
C10_4 C9_4 1_555 1_555
C11_4 C10_4 1_555 1_555
H4_4 C11_4 1_555 1_555
C12_4 C10_4 1_555 1_555
C13_4 C12_4 1_555 1_555
H5_4 C13_4 1_555 1_555
C14_4 C13_4 1_555 1_555
C15_4 C14_4 1_555 1_555
C16_4 C15_4 1_555 1_555
H7_4 C16_4 1_555 1_555
C17_4 C12_4 1_555 1_555
H8_4 C17_4 1_555 1_555
O9_5 C30_5 1_555 1_555
O10_5 C30_5 1_555 1_555
C20_4 C2_4 1_555 1_555
C21_4 C5_4 1_555 1_555
H9_4 C21_4 1_555 1_555
C22_4 C8_4 1_555 1_555
H10_4 C22_4 1_555 1_555
C23_4 C11_4 1_555 1_555
C24_4 C23_4 1_555 1_555
C25_4 C24_4 1_555 1_555
H11_4 C25_4 1_555 1_555
C26_4 C25_4 1_555 1_555
H12_5 C26_4 1_555 1_555
C27_4 C26_4 1_555 1_555
C28_4 C27_4 1_555 1_555
H13_4 C28_4 1_555 1_555
C29_4 C24_4 1_555 1_555
H14_4 C29_4 1_555 1_555
C30_5 C27_4 1_555 1_555
Cu5_4 O10_5 1_555 1_555
Cu8_4 O9_5 1_555 1_555
C2_4 C3_4 1_555 1_555
C16_4 C17_4 1_555 1_555
C20_4 C21_4 1_555 1_555
C22_4 C23_4 1_555 1_555
C28_4 C29_4 1_555 1_555
Cu5_4 Cu8_4 1_555 1_555
O3_5 C18_5 1_555 1_555
O4_5 C18_5 1_555 1_555
O7_4 C19_5 1_555 1_555
O8_4 C19_5 1_555 1_555
Cu5_2 O8_4 1_555 1_555
Cu5_3 O4_5 1_555 1_555
Cu8_2 O7_4 1_555 1_555
Cu8_3 O3_5 1_555 1_555
Cu8_2 O1_6 1_555 1_555
O1_6 C1_6 1_555 1_555
O2_6 Cu5_2 1_555 1_555
O5_6 Cu8_2 1_555 1_555
O6_6 Cu5_2 1_555 1_555
C1_6 O2_6 1_555 1_555
O9_6 C30_6 1_555 1_555
O10_6 C30_6 1_555 1_555
Cu4_2 O10_6 1_555 1_555
Cu7_2 O9_6 1_555 1_555
O3_6 C18_6 1_555 1_555
O4_6 C18_6 1_555 1_555
C2_5 H1_5 1_555 1_555
C4_5 C3_5 1_555 1_555
H2_5 C4_5 1_555 1_555
C5_5 C4_5 1_555 1_555
C6_5 C5_5 1_555 1_555
C7_5 C6_5 1_555 1_555
C8_5 C7_5 1_555 1_555
C9_5 C8_5 1_555 1_555
H3_5 C9_5 1_555 1_555
C10_5 C9_5 1_555 1_555
C11_5 C10_5 1_555 1_555
H4_5 C11_5 1_555 1_555
C12_5 C10_5 1_555 1_555
C13_5 C12_5 1_555 1_555
H5_5 C13_5 1_555 1_555
C14_5 C13_5 1_555 1_555
H6_6 C14_5 1_555 1_555
C15_5 C14_5 1_555 1_555
C16_5 C15_5 1_555 1_555
H7_5 C16_5 1_555 1_555
C17_5 C12_5 1_555 1_555
H8_5 C17_5 1_555 1_555
C18_6 C15_5 1_555 1_555
O11_2 C19_6 1_555 1_555
O12_2 C19_6 1_555 1_555
C19_6 C20_5 1_555 1_555
C20_5 C2_5 1_555 1_555
C21_5 C5_5 1_555 1_555
H9_5 C21_5 1_555 1_555
C22_5 C8_5 1_555 1_555
H10_5 C22_5 1_555 1_555
C23_5 C11_5 1_555 1_555
C24_5 C23_5 1_555 1_555
C25_5 C24_5 1_555 1_555
H11_5 C25_5 1_555 1_555
C26_5 C25_5 1_555 1_555
C27_5 C26_5 1_555 1_555
C28_5 C27_5 1_555 1_555
H13_5 C28_5 1_555 1_555
C29_5 C24_5 1_555 1_555
H14_5 C29_5 1_555 1_555
Cu5_4 O4_6 1_555 1_555
Cu8_4 O3_6 1_555 1_555
C2_5 C3_5 1_555 1_555
C16_5 C17_5 1_555 1_555
C20_5 C21_5 1_555 1_555
C22_5 C23_5 1_555 1_555
C28_5 C29_5 1_555 1_555
O13 C18_7 1_555 1_555
H6_7 C14_6 1_555 1_555
C15_6 C14_6 1_555 1_555
C16_6 C15_6 1_555 1_555
H7_6 C16_6 1_555 1_555
C18_7 C15_6 1_555 1_555
Cu7_2 O1_7 1_555 1_555
O1_7 C1_7 1_555 1_555
O2_7 Cu4_2 1_555 1_555
O5_7 Cu7_2 1_555 1_555
O6_7 Cu4_2 1_555 1_555
C1_7 O2_7 1_555 1_555
C2_6 H1_6 1_555 1_555
C3_6 C1_7 1_555 1_555
C4_6 C3_6 1_555 1_555
H2_6 C4_6 1_555 1_555
C5_6 C4_6 1_555 1_555
C6_6 C5_6 1_555 1_555
C7_6 C6_6 1_555 1_555
C8_6 C7_6 1_555 1_555
C9_6 C8_6 1_555 1_555
H3_6 C9_6 1_555 1_555
C10_6 C9_6 1_555 1_555
C11_6 C10_6 1_555 1_555
H4_6 C11_6 1_555 1_555
C12_6 C10_6 1_555 1_555
C13_6 C12_6 1_555 1_555
H5_6 C13_6 1_555 1_555
C17_6 C12_6 1_555 1_555
H8_6 C17_6 1_555 1_555
O7_5 C19_7 1_555 1_555
O8_5 C19_7 1_555 1_555
C19_7 C20_6 1_555 1_555
C20_6 C2_6 1_555 1_555
C21_6 C5_6 1_555 1_555
H9_6 C21_6 1_555 1_555
C22_6 C8_6 1_555 1_555
H10_6 C22_6 1_555 1_555
C23_6 C11_6 1_555 1_555
C24_6 C23_6 1_555 1_555
C25_6 C24_6 1_555 1_555
H11_6 C25_6 1_555 1_555
C29_6 C24_6 1_555 1_555
H14_6 C29_6 1_555 1_555
Cu5_3 O8_5 1_555 1_555
Cu8_3 O7_5 1_555 1_555
O11_3 Cu7_2 1_555 1_555
O12_3 Cu4_2 1_555 1_555
C2_6 C3_6 1_555 1_555
C20_6 C21_6 1_555 1_555
C22_6 C23_6 1_555 1_555
O6_7 H17 1_555 1_555
O14_2 C30_7 1_555 1_555
H12_7 C26_6 1_555 1_555
C27_6 C26_6 1_555 1_555
C28_6 C27_6 1_555 1_555
H13_6 C28_6 1_555 1_555
C30_7 C27_6 1_555 1_555
O14_3 C30_8 1_555 1_555
H12_8 C26_7 1_555 1_555
C27_7 C26_7 1_555 1_555
C28_7 C27_7 1_555 1_555
H13_7 C28_7 1_555 1_555
C30_8 C27_7 1_555 1_555
Cu8_3 O1_8 1_555 1_555
O1_8 C1_8 1_555 1_555
O2_8 Cu5_3 1_555 1_555
O13_2 C18_8 1_555 1_555
O5_8 Cu8_3 1_555 1_555
O6_8 Cu5_3 1_555 1_555
C1_8 O2_8 1_555 1_555
C2_7 H1_7 1_555 1_555
C3_7 C1_8 1_555 1_555
C4_7 C3_7 1_555 1_555
H2_7 C4_7 1_555 1_555
C5_7 C4_7 1_555 1_555
C6_7 C5_7 1_555 1_555
C7_7 C6_7 1_555 1_555
C8_7 C7_7 1_555 1_555
C9_7 C8_7 1_555 1_555
H3_7 C9_7 1_555 1_555
C10_7 C9_7 1_555 1_555
C11_7 C10_7 1_555 1_555
H4_7 C11_7 1_555 1_555
C12_7 C10_7 1_555 1_555
C13_7 C12_7 1_555 1_555
H5_7 C13_7 1_555 1_555
C14_7 C13_7 1_555 1_555
H6_8 C14_7 1_555 1_555
C15_7 C14_7 1_555 1_555
C16_7 C15_7 1_555 1_555
H7_7 C16_7 1_555 1_555
C17_7 C12_7 1_555 1_555
H8_7 C17_7 1_555 1_555
C18_8 C15_7 1_555 1_555
O7_6 C19_8 1_555 1_555
O8_6 C19_8 1_555 1_555
C19_8 C20_7 1_555 1_555
C20_7 C2_7 1_555 1_555
C21_7 C5_7 1_555 1_555
H9_7 C21_7 1_555 1_555
C22_7 C8_7 1_555 1_555
H10_7 C22_7 1_555 1_555
C23_7 C11_7 1_555 1_555
C24_7 C23_7 1_555 1_555
C25_7 C24_7 1_555 1_555
H11_7 C25_7 1_555 1_555
C29_7 C24_7 1_555 1_555
H14_7 C29_7 1_555 1_555
Cu5_4 O8_6 1_555 1_555
Cu8_4 O7_6 1_555 1_555
C2_7 C3_7 1_555 1_555
C16_7 C17_7 1_555 1_555
C20_7 C21_7 1_555 1_555
C22_7 C23_7 1_555 1_555
O6_8 H17_2 1_555 1_555
Cu8_4 O1_9 1_555 1_555
O1_9 C1_9 1_555 1_555
O2_9 Cu5_4 1_555 1_555
O5_9 Cu8_4 1_555 1_555
O6_9 Cu5_4 1_555 1_555
C1_9 O2_9 1_555 1_555
C2_8 H1_8 1_555 1_555
C3_8 C1_9 1_555 1_555
C4_8 C3_8 1_555 1_555
H2_8 C4_8 1_555 1_555
C5_8 C4_8 1_555 1_555
C6_8 C5_8 1_555 1_555
C7_8 C6_8 1_555 1_555
C8_8 C7_8 1_555 1_555
C9_8 C8_8 1_555 1_555
H3_8 C9_8 1_555 1_555
C10_8 C9_8 1_555 1_555
C11_8 C10_8 1_555 1_555
H4_8 C11_8 1_555 1_555
C12_8 C10_8 1_555 1_555
C13_8 C12_8 1_555 1_555
H5_8 C13_8 1_555 1_555
C17_8 C12_8 1_555 1_555
H8_8 C17_8 1_555 1_555
O11_3 C19_9 1_555 1_555
O12_3 C19_9 1_555 1_555
O14 C30_9 1_555 1_555
C19_9 C20_8 1_555 1_555
C20_8 C2_8 1_555 1_555
C21_8 C5_8 1_555 1_555
H9_8 C21_8 1_555 1_555
C22_8 C8_8 1_555 1_555
H10_8 C22_8 1_555 1_555
C23_8 C11_8 1_555 1_555
C24_8 C23_8 1_555 1_555
C25_8 C24_8 1_555 1_555
H11_8 C25_8 1_555 1_555
C26_8 C25_8 1_555 1_555
H12_9 C26_8 1_555 1_555
C27_8 C26_8 1_555 1_555
C28_8 C27_8 1_555 1_555
H13_8 C28_8 1_555 1_555
C29_8 C24_8 1_555 1_555
H14_8 C29_8 1_555 1_555
C30_9 C27_8 1_555 1_555
C2_8 C3_8 1_555 1_555
C20_8 C21_8 1_555 1_555
C22_8 C23_8 1_555 1_555
C28_8 C29_8 1_555 1_555
O13_3 C18_9 1_555 1_555
H6_9 C14_8 1_555 1_555
C15_8 C14_8 1_555 1_555
C16_8 C15_8 1_555 1_555
H7_8 C16_8 1_555 1_555
C18_9 C15_8 1_555 1_555
O6_8 H17_3 1_555 1_555
O6_7 H17_4 1_555 1_555
C2_9 H1_9 1_555 1_555
C4_9 C3_9 1_555 1_555
H2_9 C4_9 1_555 1_555
C5_9 C4_9 1_555 1_555
C6_9 C5_9 1_555 1_555
C7_9 C6_9 1_555 1_555
C8_9 C7_9 1_555 1_555
C9_9 C8_9 1_555 1_555
H3_9 C9_9 1_555 1_555
C10_9 C9_9 1_555 1_555
C11_9 C10_9 1_555 1_555
H4_9 C11_9 1_555 1_555
C12_9 C10_9 1_555 1_555
C13_9 C12_9 1_555 1_555
H5_9 C13_9 1_555 1_555
C14_9 C13_9 1_555 1_555
C15_9 C14_9 1_555 1_555
C16_9 C15_9 1_555 1_555
H7_9 C16_9 1_555 1_555
C17_9 C12_9 1_555 1_555
H8_9 C17_9 1_555 1_555
C20_9 C2_9 1_555 1_555
C21_9 C5_9 1_555 1_555
H9_9 C21_9 1_555 1_555
C22_9 C8_9 1_555 1_555
H10_9 C22_9 1_555 1_555
C23_9 C11_9 1_555 1_555
C24_9 C23_9 1_555 1_555
C25_9 C24_9 1_555 1_555
H11_9 C25_9 1_555 1_555
C26_9 C25_9 1_555 1_555
C27_9 C26_9 1_555 1_555
C28_9 C27_9 1_555 1_555
H13_9 C28_9 1_555 1_555
C29_9 C24_9 1_555 1_555
H14_9 C29_9 1_555 1_555
C2_9 C3_9 1_555 1_555
C16_9 C17_9 1_555 1_555
C20_9 C21_9 1_555 1_555
C22_9 C23_9 1_555 1_555
C28_9 C29_9 1_555 1_555

#END
