
###############################################################################
#
# This file contains modified crystal structure data generated from the
# MOF subset of the Cambridge Structural Database (CSD) v543 
# hosted by the Cambridge Crystallographic Data Centre (CCDC).
#
# This work is licensed under the Creative Commons
# Attribution-NonCommercial-ShareAlike 4.0 International License.
# To view a copy of this license, visit
# http://creativecommons.org/licenses/by-nc-sa/4.0/
# or send a letter to
# Creative Commons, PO Box 1866, Mountain View, CA 94042, USA.
#
# CIF created using the CSD Python API on 29 September 2022
# The structure has been converted into the P1 space group
# The structure has a 3D framework
# The original CSD entry FISMUS is in the orthorhombic crystal system
# The framework has been calculated to contain at least 10.0% void space
# The void calculation uses a probe of radius 1.32A, grid spacing 0.4
#
###############################################################################

data_FISMUS
_chemical_formula_moiety         '(C1732 H1156 Co96 N288 O490)n'
_symmetry_cell_setting           triclinic
_symmetry_space_group_name_H-M   'P 1'
_symmetry_Int_Tables_number      1
_space_group_name_Hall           'P 1'
loop_
_symmetry_equiv_pos_site_id
_symmetry_equiv_pos_as_xyz
1 x,y,z
_cell_length_a                   39.377
_cell_length_b                   43.654
_cell_length_c                   38.551
_cell_angle_alpha                90
_cell_angle_beta                 90
_cell_angle_gamma                90
_cell_volume                     66267.8
loop_
_atom_site_label
_atom_site_type_symbol
_atom_site_fract_x
_atom_site_fract_y
_atom_site_fract_z
C66 C 0.0429(2) 0.65706(18) 0.2656(2)
H41 H 0.0466 0.6743 0.2793
C68 C 0.0584(2) 0.60976(18) 0.2468(2)
H42 H 0.0727 0.5929 0.2484
N11 N 0.06356(12) 0.63257(11) 0.26932(13)
C69 C 0.0346(2) 0.60909(17) 0.2226(2)
C71 C 0.01653(19) 0.65734(16) 0.2421(2)
H43 H 0.0012 0.6735 0.2414
H44 H 0.0323 0.5925 0.2077
C72 C 0.01362(16) 0.63377(15) 0.22038(16)
Co12 Co 0.10177(2) 0.63150(2) 0.30541(2)
Co2 Co 0.64979(2) 0.12014(2) 0.35654(2)
C1 C 0.65711(17) 0.08636(16) 0.29203(19)
C2 C 0.67413(17) 0.06368(19) 0.2684(2)
C3 C 0.7029(2) 0.0483(2) 0.2774(3)
H1 H 0.7127 0.0519 0.2990
C4 C 0.7175(3) 0.0281(3) 0.2558(4)
H2 H 0.7370 0.0175 0.2623
C5 C 0.7026(2) 0.0231(3) 0.2232(4)
C6 C 0.6746(3) 0.0380(3) 0.2139(3)
H3 H 0.6645 0.0339 0.1926
C7 C 0.6604(2) 0.0594(3) 0.2357(3)
H4 H 0.6418 0.0710 0.2285
O1 O 0.63145(11) 0.10001(11) 0.28117(11)
O2 O 0.67094(13) 0.09078(11) 0.32199(13)
O3 O 0.72115(17) 0.0053(2) 0.1989(3)
Co3 Co 0.60177(2) 0.13150(2) 0.30541(2)
Co5 Co 0.35177(2) 0.11850(2) 0.05541(2)
Co7 Co 0.39979(2) 0.12986(2) 0.10654(2)
C51 C 0.4777(2) 0.0182(2) 0.0003(2)
C59 C 0.43306(16) 0.05887(15) 0.03256(17)
C60 C 0.46437(18) 0.05289(18) 0.0470(2)
C61 C 0.48718(19) 0.03285(18) 0.0311(2)
H37 H 0.5084 0.0293 0.0408
O19 O 0.41966(12) 0.09495(11) 0.07561(13)
C62 C 0.40969(16) 0.08057(14) 0.04854(17)
O21 O 0.38073(12) 0.08501(11) 0.03484(12)
C63 C 0.4258(2) 0.0454(2) 0.0017(2)
H40 H 0.4704 0.0624 0.0677
O10 O 0.5000 0.0000 0.9825(2)
H38 H 0.4055 0.0503 0.9908
C64 C 0.4473(2) 0.0246(2) 0.9858(2)
H39 H 0.4408 0.0151 0.9653
Co1 Co 0.39823(2) 0.86850(2) 0.30541(2)
C8 C 0.7027(2) 0.9848(3) 0.1811(4)
C9 C 0.7134(3) 0.9798(3) 0.1481(4)
H5 H 0.7302 0.9919 0.1383
C10 C 0.6983(2) 0.9560(2) 0.1293(3)
H6 H 0.7064 0.9519 0.1070
C11 C 0.67233(17) 0.93830(19) 0.1421(2)
C12 C 0.6629(2) 0.9430(3) 0.1763(2)
H7 H 0.6468 0.9303 0.1865
C13 C 0.6778(3) 0.9670(4) 0.1960(3)
H8 H 0.6708 0.9707 0.2186
C14 C 0.65527(15) 0.91553(14) 0.12006(17)
O4 O 0.62951(12) 0.90246(11) 0.13156(12)
O5 O 0.66816(11) 0.91014(10) 0.09127(12)
N1 N 0.43644(12) 0.86743(11) 0.26932(13)
N2 N 0.56248(13) 0.86756(12) 0.14393(13)
O6 O 0.63269(13) 0.83763(11) 0.12345(14)
O7 O 0.67117(12) 0.84618(11) 0.08144(12)
O8 O 0.61927(12) 0.91499(11) 0.03484(12)
O9 O 0.58034(12) 0.90505(11) 0.07561(13)
C15 C 0.66049(17) 0.83266(14) 0.10883(19)
C16 C 0.68456(19) 0.80967(16) 0.12378(19)
C17 C 0.6732(3) 0.79230(19) 0.1541(2)
C18 C 0.7164(2) 0.80518(19) 0.1119(2)
H9 H 0.7241 0.8167 0.0933
C19 C 0.53563(18) 0.94711(18) 0.0470(2)
H10 H 0.5296 0.9376 0.0677
C20 C 0.5343(2) 0.8843(2) 0.1421(2)
C22 C 0.56694(16) 0.94113(15) 0.03256(17)
C23 C 0.5742(2) 0.9546(2) 0.0017(2)
N3 N 0.5250(4) 0.8998(4) 0.1145(3)
C24 C 0.51359(16) 0.86641(15) 0.19333(17)
C25 C 0.48638(16) 0.86623(15) 0.22038(16)
C26 C 0.59031(16) 0.91943(14) 0.04854(17)
N4 N 0.50855(17) 0.88383(17) 0.16585(17)
C27 C 0.7373(3) 0.7846(3) 0.1262(3)
C28 C 0.7268(4) 0.7681(3) 0.1560(3)
C29 C 0.5223(2) 0.9818(2) 0.0003(2)
C30 C 0.51282(19) 0.96715(18) 0.0311(2)
C31 C 0.56463(17) 0.84997(17) 0.17309(17)
N5 N 0.5928(2) 0.8337(3) 0.1788(3)
C32 C 0.6974(4) 0.7715(2) 0.1683(2)
H13 H 0.6912 0.7599 0.1875
N6 N 0.54111(15) 0.84857(15) 0.19876(17)
C33 C 0.4654(2) 0.89091(17) 0.2226(2)
H14 H 0.4916 0.9707 0.0408
O11 O 0.7500 0.7500 0.1722(4)
H15 H 0.6516 0.7947 0.1635
H16 H 0.7587 0.7812 0.1167
C34 C 0.4571(2) 0.84294(18) 0.2656(2)
C35 C 0.48347(19) 0.84266(16) 0.2421(2)
C36 C 0.4416(2) 0.89024(18) 0.2468(2)
H17 H 0.4677 0.9075 0.2077
H18 H 0.4988 0.8265 0.2414
H19 H 0.4273 0.9071 0.2484
H20 H 0.5950 0.8233 0.1976
H21 H 0.4534 0.8257 0.2793
H22 H 0.5374 0.8995 0.0962
H23 H 0.6088 0.8335 0.1636
H24 H 0.5065 0.9102 0.1148
Co4 Co 0.64823(2) 0.88150(2) 0.05541(2)
Co6 Co 0.60021(2) 0.87014(2) 0.10654(2)
N7 N 0.68644(12) 0.88257(11) 0.01932(13)
C37 C 0.59289(17) 0.83636(16) 0.04203(19)
C38 C 0.57587(17) 0.81368(19) 0.0184(2)
O12 O 0.57906(13) 0.84078(11) 0.07199(13)
O13 O 0.61855(11) 0.85001(11) 0.03117(11)
C43 C 0.5325(3) 0.7781(3) 0.0058(4)
H28 H 0.5130 0.7675 0.0123
C50 C 0.5471(2) 0.7983(2) 0.0274(3)
H32 H 0.5373 0.8019 0.0490
C52 C 0.7627(3) 0.7154(3) 0.1262(3)
H33 H 0.7413 0.7188 0.1167
C53 C 0.7732(4) 0.7319(3) 0.1560(3)
C54 C 0.83951(17) 0.66734(14) 0.10883(19)
O17 O 0.82883(12) 0.65382(11) 0.08144(12)
C55 C 0.81544(19) 0.69033(16) 0.12378(19)
C56 C 0.7836(2) 0.69482(19) 0.1119(2)
C57 C 0.8268(3) 0.70770(19) 0.1541(2)
H34 H 0.7759 0.6833 0.0933
C58 C 0.8026(4) 0.7285(2) 0.1683(2)
H35 H 0.8088 0.7401 0.1875
O18 O 0.86731(13) 0.66237(11) 0.12345(14)
H36 H 0.8484 0.7053 0.1635
Co10 Co 0.85177(2) 0.61850(2) 0.05541(2)
Co11 Co 0.89979(2) 0.62986(2) 0.10654(2)
O20 O 0.92094(13) 0.65922(11) 0.07199(13)
O22 O 0.88145(11) 0.64999(11) 0.03117(11)
O23 O 0.83184(11) 0.58986(10) 0.09127(12)
N8 N 0.81356(12) 0.61743(11) 0.01932(13)
O24 O 0.87049(12) 0.59754(11) 0.13156(12)
O25 O 0.91966(12) 0.59495(11) 0.07561(13)
N9 N 0.93752(13) 0.63244(12) 0.14393(13)
O26 O 0.88073(12) 0.58501(11) 0.03484(12)
C65 C 0.98641(16) 0.63359(15) 0.19333(17)
N10 N 0.99145(17) 0.61617(17) 0.16585(17)
C67 C 0.9657(2) 0.6157(2) 0.1421(2)
N12 N 0.9750(4) 0.6002(4) 0.1145(3)
N13 N 0.95889(15) 0.65143(15) 0.19876(17)
C70 C 0.93537(17) 0.65003(17) 0.17309(17)
H45 H 0.9626 0.6005 0.0962
H46 H 0.9935 0.5898 0.1148
N14 N 0.9072(2) 0.6663(3) 0.1788(3)
H47 H 0.9050 0.6767 0.1976
H48 H 0.8912 0.6665 0.1636
C21 C 0.5527(2) 0.9754(2) 0.9858(2)
H11 H 0.5592 0.9849 0.9653
H12 H 0.5945 0.9497 0.9908
O10_2 O 0.5000 1.0000 0.9825(2)
C39 C 0.5366(3) 0.7298(3) 0.8981(4)
H25 H 0.5198 0.7419 0.8883
C40 C 0.5896(2) 0.8094(3) 0.9857(3)
H26 H 0.6082 0.8210 0.9785
C41 C 0.5722(3) 0.7170(4) 0.9460(3)
H27 H 0.5792 0.7207 0.9686
C42 C 0.5474(2) 0.7731(3) 0.9732(4)
O14 O 0.52885(17) 0.7553(2) 0.9489(3)
C44 C 0.5517(2) 0.7060(2) 0.8793(3)
H29 H 0.5436 0.7019 0.8570
C45 C 0.5473(2) 0.7348(3) 0.9311(4)
C46 C 0.57767(17) 0.68830(19) 0.8921(2)
C47 C 0.59473(15) 0.66553(14) 0.87006(17)
O15 O 0.58184(11) 0.66014(10) 0.84127(12)
C48 C 0.5754(3) 0.7880(3) 0.9639(3)
H30 H 0.5855 0.7839 0.9426
O16 O 0.62049(12) 0.65246(11) 0.88156(12)
C49 C 0.5871(2) 0.6930(3) 0.9263(2)
H31 H 0.6032 0.6803 0.9365
Co8 Co 0.60177(2) 0.63150(2) 0.80541(2)
Co9 Co 0.64979(2) 0.62014(2) 0.85654(2)
C8_2 C 0.2973(2) 0.0152(3) 0.1811(4)
C9_2 C 0.2866(3) 0.0202(3) 0.1481(4)
H5_2 H 0.2698 0.0081 0.1383
C10_2 C 0.3017(2) 0.0440(2) 0.1293(3)
H6_2 H 0.2936 0.0481 0.1070
C11_2 C 0.32767(17) 0.06170(19) 0.1421(2)
C12_2 C 0.3371(2) 0.0570(3) 0.1763(2)
H7_2 H 0.3532 0.0697 0.1865
C13_2 C 0.3222(3) 0.0330(4) 0.1960(3)
H8_2 H 0.3292 0.0293 0.2186
C14_2 C 0.34473(15) 0.08447(14) 0.12006(17)
O4_2 O 0.37049(12) 0.09754(11) 0.13156(12)
O5_2 O 0.33184(11) 0.08986(10) 0.09127(12)
N1_2 N 0.56356(12) 0.13257(11) 0.26932(13)
N2_2 N 0.43752(13) 0.13244(12) 0.14393(13)
O6_2 O 0.36731(13) 0.16237(11) 0.12345(14)
O7_2 O 0.32883(12) 0.15382(11) 0.08144(12)
C15_2 C 0.33951(17) 0.16734(14) 0.10883(19)
C16_2 C 0.31544(19) 0.19033(16) 0.12378(19)
C17_2 C 0.3268(3) 0.20770(19) 0.1541(2)
C18_2 C 0.2836(2) 0.19482(19) 0.1119(2)
H9_2 H 0.2759 0.1833 0.0933
C20_2 C 0.4657(2) 0.1157(2) 0.1421(2)
N3_2 N 0.4750(4) 0.1002(4) 0.1145(3)
C24_2 C 0.48641(16) 0.13359(15) 0.19333(17)
C25_2 C 0.51362(16) 0.13377(15) 0.22038(16)
N4_2 N 0.49145(17) 0.11617(17) 0.16585(17)
C27_2 C 0.2627(3) 0.2154(3) 0.1262(3)
C28_2 C 0.2732(4) 0.2319(3) 0.1560(3)
C31_2 C 0.43537(17) 0.15003(17) 0.17309(17)
N5_2 N 0.4072(2) 0.1663(3) 0.1788(3)
C32_2 C 0.3026(4) 0.2285(2) 0.1683(2)
H13_2 H 0.3088 0.2401 0.1875
N6_2 N 0.45889(15) 0.15143(15) 0.19876(17)
C33_2 C 0.5346(2) 0.10909(17) 0.2226(2)
O11_2 O 0.2500 0.2500 0.1722(4)
H15_2 H 0.3484 0.2053 0.1635
H16_2 H 0.2413 0.2188 0.1167
C34_2 C 0.5429(2) 0.15706(18) 0.2656(2)
C35_2 C 0.51653(19) 0.15734(16) 0.2421(2)
C36_2 C 0.5584(2) 0.10976(18) 0.2468(2)
H17_2 H 0.5323 0.0925 0.2077
H18_2 H 0.5012 0.1735 0.2414
H19_2 H 0.5727 0.0929 0.2484
H20_2 H 0.4050 0.1767 0.1976
H21_2 H 0.5466 0.1743 0.2793
H22_2 H 0.4626 0.1005 0.0962
H23_2 H 0.3912 0.1665 0.1636
H24_2 H 0.4935 0.0898 0.1148
N7_2 N 0.31356(12) 0.11743(11) 0.01932(13)
C37_2 C 0.40711(17) 0.16364(16) 0.04203(19)
C38_2 C 0.42413(17) 0.18632(19) 0.0184(2)
O12_2 O 0.42094(13) 0.15922(11) 0.07199(13)
O13_2 O 0.38145(11) 0.14999(11) 0.03117(11)
C43_2 C 0.4675(3) 0.2219(3) 0.0058(4)
H28_2 H 0.4870 0.2325 0.0123
C50_2 C 0.4529(2) 0.2017(2) 0.0274(3)
H32_2 H 0.4627 0.1981 0.0490
C52_2 C 0.2373(3) 0.2846(3) 0.1262(3)
H33_2 H 0.2587 0.2812 0.1167
C53_2 C 0.2268(4) 0.2681(3) 0.1560(3)
C54_2 C 0.16049(17) 0.33266(14) 0.10883(19)
O17_2 O 0.17117(12) 0.34618(11) 0.08144(12)
C55_2 C 0.18456(19) 0.30967(16) 0.12378(19)
C56_2 C 0.2164(2) 0.30518(19) 0.1119(2)
C57_2 C 0.1732(3) 0.29230(19) 0.1541(2)
H34_2 H 0.2241 0.3167 0.0933
C58_2 C 0.1974(4) 0.2715(2) 0.1683(2)
H35_2 H 0.1912 0.2599 0.1875
O18_2 O 0.13269(13) 0.33763(11) 0.12345(14)
H36_2 H 0.1516 0.2947 0.1635
Co10_2 Co 0.14823(2) 0.38150(2) 0.05541(2)
Co11_2 Co 0.10021(2) 0.37014(2) 0.10654(2)
O20_2 O 0.07906(13) 0.34078(11) 0.07199(13)
O22_2 O 0.11855(11) 0.35001(11) 0.03117(11)
O23_2 O 0.16816(11) 0.41014(10) 0.09127(12)
N8_2 N 0.18644(12) 0.38257(11) 0.01932(13)
O24_2 O 0.12951(12) 0.40246(11) 0.13156(12)
O25_2 O 0.08034(12) 0.40505(11) 0.07561(13)
N9_2 N 0.06248(13) 0.36756(12) 0.14393(13)
O26_2 O 0.11927(12) 0.41499(11) 0.03484(12)
C65_2 C 0.01359(16) 0.36641(15) 0.19333(17)
N10_2 N 0.00855(17) 0.38383(17) 0.16585(17)
C67_2 C 0.0343(2) 0.3843(2) 0.1421(2)
N12_2 N 0.0250(4) 0.3998(4) 0.1145(3)
N13_2 N 0.04111(15) 0.34857(15) 0.19876(17)
C70_2 C 0.06463(17) 0.34997(17) 0.17309(17)
H45_2 H 0.0374 0.3995 0.0962
H46_2 H 0.0065 0.4102 0.1148
N14_2 N 0.0928(2) 0.3337(3) 0.1788(3)
H47_2 H 0.0950 0.3233 0.1976
H48_2 H 0.1088 0.3335 0.1636
C39_2 C 0.4634(3) 0.2702(3) 0.8981(4)
H25_2 H 0.4802 0.2581 0.8883
C40_2 C 0.4104(2) 0.1906(3) 0.9857(3)
H26_2 H 0.3918 0.1790 0.9785
C41_2 C 0.4278(3) 0.2830(4) 0.9460(3)
H27_2 H 0.4208 0.2793 0.9686
C42_2 C 0.4526(2) 0.2269(3) 0.9732(4)
O14_2 O 0.47115(17) 0.2447(2) 0.9489(3)
C44_2 C 0.4483(2) 0.2940(2) 0.8793(3)
H29_2 H 0.4564 0.2981 0.8570
C45_2 C 0.4527(2) 0.2652(3) 0.9311(4)
C46_2 C 0.42233(17) 0.31170(19) 0.8921(2)
C47_2 C 0.40527(15) 0.33447(14) 0.87006(17)
O15_2 O 0.41816(11) 0.33986(10) 0.84127(12)
C48_2 C 0.4246(3) 0.2120(3) 0.9639(3)
H30_2 H 0.4145 0.2161 0.9426
O16_2 O 0.37951(12) 0.34754(11) 0.88156(12)
C49_2 C 0.4129(2) 0.3070(3) 0.9263(2)
H31_2 H 0.3968 0.3197 0.9365
Co8_2 Co 0.39823(2) 0.36850(2) 0.80541(2)
Co9_2 Co 0.35021(2) 0.37986(2) 0.85654(2)
Co2_2 Co 0.35021(2) 0.87986(2) 0.35654(2)
C1_2 C 0.34289(17) 0.91364(16) 0.29203(19)
C2_2 C 0.32587(17) 0.93632(19) 0.2684(2)
C3_2 C 0.2971(2) 0.9517(2) 0.2774(3)
H1_2 H 0.2873 0.9481 0.2990
C4_2 C 0.2825(3) 0.9719(3) 0.2558(4)
H2_2 H 0.2630 0.9825 0.2623
C5_2 C 0.2974(2) 0.9769(3) 0.2232(4)
C6_2 C 0.3254(3) 0.9620(3) 0.2139(3)
H3_2 H 0.3355 0.9661 0.1926
C7_2 C 0.3396(2) 0.9406(3) 0.2357(3)
H4_2 H 0.3582 0.9290 0.2285
O1_2 O 0.36855(11) 0.89999(11) 0.28117(11)
O2_2 O 0.32906(13) 0.90922(11) 0.32199(13)
O3_2 O 0.27885(17) 0.9947(2) 0.1989(3)
C66_2 C 0.9571(2) 0.34294(18) 0.2656(2)
H41_2 H 0.9534 0.3257 0.2793
C68_2 C 0.9416(2) 0.39024(18) 0.2468(2)
H42_2 H 0.9273 0.4071 0.2484
N11_2 N 0.93644(12) 0.36743(11) 0.26932(13)
C69_2 C 0.9654(2) 0.39091(17) 0.2226(2)
C71_2 C 0.98347(19) 0.34266(16) 0.2421(2)
H43_2 H 0.9988 0.3265 0.2414
H44_2 H 0.9677 0.4075 0.2077
C72_2 C 0.98638(16) 0.36623(15) 0.22038(16)
Co12_2 Co 0.89823(2) 0.36850(2) 0.30541(2)
Co1_2 Co 0.85177(2) 0.11850(2) 0.55541(2)
Co2_3 Co 0.60021(2) 0.37014(2) 0.60654(2)
C1_3 C 0.59289(17) 0.33636(16) 0.54203(19)
C2_3 C 0.57587(17) 0.31368(19) 0.5184(2)
C3_3 C 0.5471(2) 0.2983(2) 0.5274(3)
H1_3 H 0.5373 0.3019 0.5490
C4_3 C 0.5325(3) 0.2781(3) 0.5058(4)
H2_3 H 0.5130 0.2675 0.5123
C5_3 C 0.5474(2) 0.2731(3) 0.4732(4)
C6_3 C 0.5754(3) 0.2880(3) 0.4639(3)
H3_3 H 0.5855 0.2839 0.4426
C7_3 C 0.5896(2) 0.3094(3) 0.4857(3)
H4_3 H 0.6082 0.3210 0.4785
C8_3 C 0.5473(2) 0.2348(3) 0.4311(4)
C9_3 C 0.5366(3) 0.2298(3) 0.3981(4)
H5_3 H 0.5198 0.2419 0.3883
C10_3 C 0.5517(2) 0.2060(2) 0.3793(3)
H6_3 H 0.5436 0.2019 0.3570
C11_3 C 0.57767(17) 0.18830(19) 0.3921(2)
C12_3 C 0.5871(2) 0.1930(3) 0.4263(2)
H7_3 H 0.6032 0.1803 0.4365
C13_3 C 0.5722(3) 0.2170(4) 0.4460(3)
H8_3 H 0.5792 0.2207 0.4686
C14_3 C 0.59473(15) 0.16553(14) 0.37006(17)
O1_3 O 0.61855(11) 0.35001(11) 0.53117(11)
O2_3 O 0.57906(13) 0.34078(11) 0.57199(13)
O3_3 O 0.52885(17) 0.2553(2) 0.4489(3)
O4_3 O 0.62049(12) 0.15246(11) 0.38156(12)
O5_3 O 0.58184(11) 0.16014(10) 0.34127(12)
N1_3 N 0.81356(12) 0.11743(11) 0.51932(13)
N2_3 N 0.68752(13) 0.11756(12) 0.39393(13)
O6_3 O 0.61731(13) 0.08763(11) 0.37345(14)
O7_3 O 0.57883(12) 0.09618(11) 0.33144(12)
O8_2 O 0.63073(12) 0.16499(11) 0.28484(12)
O9_2 O 0.66966(12) 0.15505(11) 0.32561(13)
C15_3 C 0.58951(17) 0.08266(14) 0.35883(19)
C16_3 C 0.56544(19) 0.05967(16) 0.37378(19)
C17_3 C 0.5768(3) 0.04230(19) 0.4041(2)
C18_3 C 0.5336(2) 0.05518(19) 0.3619(2)
H9_3 H 0.5259 0.0667 0.3433
C19_2 C 0.71437(18) 0.19711(18) 0.2970(2)
H10_2 H 0.7204 0.1876 0.3177
C20_3 C 0.7157(2) 0.1343(2) 0.3921(2)
C21_2 C 0.6973(2) 0.2254(2) 0.2358(2)
H11_2 H 0.6908 0.2349 0.2153
C22_2 C 0.68306(16) 0.19113(15) 0.28256(17)
C23_2 C 0.6758(2) 0.2046(2) 0.2517(2)
N3_3 N 0.7250(4) 0.1498(4) 0.3645(3)
H12_2 H 0.6555 0.1997 0.2408
C24_3 C 0.73641(16) 0.11641(15) 0.44333(17)
C25_3 C 0.76362(16) 0.11623(15) 0.47038(16)
C26_2 C 0.65969(16) 0.16943(14) 0.29854(17)
N4_3 N 0.74145(17) 0.13383(17) 0.41585(17)
C27_3 C 0.5127(3) 0.0346(3) 0.3762(3)
C28_3 C 0.5232(4) 0.0181(3) 0.4060(3)
C29_2 C 0.7277(2) 0.2318(2) 0.2503(2)
C30_2 C 0.73718(19) 0.21715(18) 0.2811(2)
C31_3 C 0.68537(17) 0.09997(17) 0.42309(17)
N5_3 N 0.6572(2) 0.0837(3) 0.4288(3)
C32_3 C 0.5526(4) 0.0215(2) 0.4183(2)
H13_3 H 0.5588 0.0099 0.4375
N6_3 N 0.70889(15) 0.09857(15) 0.44876(17)
O10_3 O 0.7500 0.2500 0.2325(2)
C33_3 C 0.7846(2) 0.14091(17) 0.4726(2)
H14_2 H 0.7584 0.2207 0.2908
O11_3 O 0.5000 0.0000 0.4222(4)
H15_3 H 0.5984 0.0447 0.4135
H16_3 H 0.4913 0.0312 0.3667
C34_3 C 0.7929(2) 0.09294(18) 0.5156(2)
C35_3 C 0.76653(19) 0.09266(16) 0.4921(2)
C36_3 C 0.8084(2) 0.14024(18) 0.4968(2)
H17_3 H 0.7823 0.1575 0.4577
H18_3 H 0.7512 0.0765 0.4914
H19_3 H 0.8227 0.1571 0.4984
H20_3 H 0.6550 0.0733 0.4476
H21_3 H 0.7966 0.0757 0.5293
H22_3 H 0.7126 0.1495 0.3462
H23_3 H 0.6412 0.0835 0.4136
H24_3 H 0.7435 0.1602 0.3648
Co3_2 Co 0.64823(2) 0.38150(2) 0.55541(2)
Co7_2 Co 0.85021(2) 0.37986(2) 0.35654(2)
C51_2 C 0.7723(2) 0.2682(2) 0.2503(2)
C59_2 C 0.81694(16) 0.30887(15) 0.28256(17)
C60_2 C 0.78563(18) 0.30289(18) 0.2970(2)
C61_2 C 0.76282(19) 0.28285(18) 0.2811(2)
H37_2 H 0.7416 0.2793 0.2908
O19_2 O 0.83034(12) 0.34495(11) 0.32561(13)
C62_2 C 0.84031(16) 0.33057(14) 0.29854(17)
O21_2 O 0.86927(12) 0.33501(11) 0.28484(12)
C63_2 C 0.8242(2) 0.2954(2) 0.2517(2)
H38_2 H 0.8445 0.3003 0.2408
C64_2 C 0.8027(2) 0.2746(2) 0.2358(2)
H39_2 H 0.8092 0.2651 0.2153
H40_2 H 0.7796 0.3124 0.3177
O11_4 O 0.5000 1.0000 0.4222(4)
C52_3 C 0.4873(3) 0.9654(3) 0.3762(3)
H33_3 H 0.5087 0.9688 0.3667
C53_3 C 0.4768(4) 0.9819(3) 0.4060(3)
C54_3 C 0.41049(17) 0.91734(14) 0.35883(19)
O17_3 O 0.42117(12) 0.90382(11) 0.33144(12)
C55_3 C 0.43456(19) 0.94033(16) 0.37378(19)
C56_3 C 0.4664(2) 0.94482(19) 0.3619(2)
C57_3 C 0.4232(3) 0.95770(19) 0.4041(2)
H34_3 H 0.4741 0.9333 0.3433
C58_3 C 0.4474(4) 0.9785(2) 0.4183(2)
H35_3 H 0.4412 0.9901 0.4375
O18_3 O 0.38269(13) 0.91237(11) 0.37345(14)
H36_3 H 0.4016 0.9553 0.4135
O23_3 O 0.41816(11) 0.83986(10) 0.34127(12)
O24_3 O 0.37951(12) 0.84754(11) 0.38156(12)
O25_3 O 0.33034(12) 0.84495(11) 0.32561(13)
N9_3 N 0.31248(13) 0.88244(12) 0.39393(13)
O26_3 O 0.36927(12) 0.83501(11) 0.28484(12)
C65_3 C 0.26359(16) 0.88359(15) 0.44333(17)
N10_3 N 0.25855(17) 0.86617(17) 0.41585(17)
C66_3 C 0.2071(2) 0.90706(18) 0.5156(2)
H41_3 H 0.2034 0.9243 0.5293
C67_3 C 0.2843(2) 0.8657(2) 0.3921(2)
C68_3 C 0.1916(2) 0.85976(18) 0.4968(2)
H42_3 H 0.1773 0.8429 0.4984
N11_3 N 0.18644(12) 0.88257(11) 0.51932(13)
N12_3 N 0.2750(4) 0.8502(4) 0.3645(3)
N13_3 N 0.29111(15) 0.90143(15) 0.44876(17)
C69_3 C 0.2154(2) 0.85909(17) 0.4726(2)
C70_3 C 0.31463(17) 0.90003(17) 0.42309(17)
C71_3 C 0.23347(19) 0.90734(16) 0.4921(2)
H43_3 H 0.2488 0.9235 0.4914
H44_3 H 0.2177 0.8425 0.4577
H45_3 H 0.2874 0.8505 0.3462
C72_3 C 0.23638(16) 0.88377(15) 0.47038(16)
H46_3 H 0.2565 0.8398 0.3648
N14_3 N 0.3428(2) 0.9163(3) 0.4288(3)
H47_3 H 0.3450 0.9267 0.4476
H48_3 H 0.3588 0.9165 0.4136
Co12_3 Co 0.14823(2) 0.88150(2) 0.55541(2)
O11_5 O -0.0000 0.5000 0.4222(4)
H16_4 H 0.0087 0.4688 0.3667
C52_4 C 0.0127(3) 0.5346(3) 0.3762(3)
C53_4 C 0.0232(4) 0.5181(3) 0.4060(3)
C54_4 C 0.08951(17) 0.58266(14) 0.35883(19)
O17_4 O 0.07883(12) 0.59618(11) 0.33144(12)
C55_4 C 0.06544(19) 0.55967(16) 0.37378(19)
C56_4 C 0.0336(2) 0.55518(19) 0.3619(2)
C57_4 C 0.0768(3) 0.54230(19) 0.4041(2)
H34_4 H 0.0259 0.5667 0.3433
C58_4 C 0.0526(4) 0.5215(2) 0.4183(2)
H35_4 H 0.0588 0.5099 0.4375
O18_4 O 0.11731(13) 0.58763(11) 0.37345(14)
H36_4 H 0.0984 0.5447 0.4135
Co11_3 Co 0.14979(2) 0.62014(2) 0.35654(2)
O20_3 O 0.17094(13) 0.59078(11) 0.32199(13)
O22_3 O 0.13145(11) 0.60001(11) 0.28117(11)
O23_4 O 0.08184(11) 0.66014(10) 0.34127(12)
O24_4 O 0.12049(12) 0.65246(11) 0.38156(12)
O25_4 O 0.16966(12) 0.65505(11) 0.32561(13)
N9_4 N 0.18752(13) 0.61756(12) 0.39393(13)
O26_4 O 0.13073(12) 0.66499(11) 0.28484(12)
C65_4 C 0.23641(16) 0.61641(15) 0.44333(17)
N10_4 N 0.24145(17) 0.63383(17) 0.41585(17)
C66_4 C 0.2929(2) 0.59294(18) 0.5156(2)
H41_4 H 0.2966 0.5757 0.5293
C67_4 C 0.2157(2) 0.6343(2) 0.3921(2)
C68_4 C 0.3084(2) 0.64024(18) 0.4968(2)
H42_4 H 0.3227 0.6571 0.4984
N11_4 N 0.31356(12) 0.61743(11) 0.51932(13)
N12_4 N 0.2250(4) 0.6498(4) 0.3645(3)
N13_4 N 0.20889(15) 0.59857(15) 0.44876(17)
C69_4 C 0.2846(2) 0.64091(17) 0.4726(2)
C70_4 C 0.18537(17) 0.59997(17) 0.42309(17)
C71_4 C 0.26653(19) 0.59266(16) 0.4921(2)
H43_4 H 0.2512 0.5765 0.4914
H44_4 H 0.2823 0.6575 0.4577
H45_4 H 0.2126 0.6495 0.3462
C72_4 C 0.26362(16) 0.61623(15) 0.47038(16)
H46_4 H 0.2435 0.6602 0.3648
N14_4 N 0.1572(2) 0.5837(3) 0.4288(3)
H47_4 H 0.1550 0.5733 0.4476
H48_4 H 0.1412 0.5835 0.4136
Co12_4 Co 0.35177(2) 0.61850(2) 0.55541(2)
Co2_4 Co 0.89979(2) 0.12986(2) 0.60654(2)
C1_4 C 0.90711(17) 0.16364(16) 0.54203(19)
C2_4 C 0.92413(17) 0.18632(19) 0.5184(2)
C3_4 C 0.9529(2) 0.2017(2) 0.5274(3)
H1_4 H 0.9627 0.1981 0.5490
C4_4 C 0.9675(3) 0.2219(3) 0.5058(4)
H2_4 H 0.9870 0.2325 0.5123
C5_4 C 0.9526(2) 0.2269(3) 0.4732(4)
C6_4 C 0.9246(3) 0.2120(3) 0.4639(3)
H3_4 H 0.9145 0.2161 0.4426
C7_4 C 0.9104(2) 0.1906(3) 0.4857(3)
H4_4 H 0.8918 0.1790 0.4785
C8_4 C 0.9527(2) 0.2652(3) 0.4311(4)
C9_4 C 0.9634(3) 0.2702(3) 0.3981(4)
H5_4 H 0.9802 0.2581 0.3883
C10_4 C 0.9483(2) 0.2940(2) 0.3793(3)
H6_4 H 0.9564 0.2981 0.3570
C11_4 C 0.92233(17) 0.31170(19) 0.3921(2)
C12_4 C 0.9129(2) 0.3070(3) 0.4263(2)
H7_4 H 0.8968 0.3197 0.4365
C13_4 C 0.9278(3) 0.2830(4) 0.4460(3)
H8_4 H 0.9208 0.2793 0.4686
C14_4 C 0.90527(15) 0.33447(14) 0.37006(17)
O1_4 O 0.88145(11) 0.14999(11) 0.53117(11)
O2_4 O 0.92094(13) 0.15922(11) 0.57199(13)
O3_4 O 0.97115(17) 0.2447(2) 0.4489(3)
O4_4 O 0.87951(12) 0.34754(11) 0.38156(12)
O5_4 O 0.91816(11) 0.33986(10) 0.34127(12)
N1_4 N 0.68644(12) 0.38257(11) 0.51932(13)
N2_4 N 0.81248(13) 0.38244(12) 0.39393(13)
O6_4 O 0.88269(13) 0.41237(11) 0.37345(14)
O7_4 O 0.92117(12) 0.40382(11) 0.33144(12)
C15_4 C 0.91049(17) 0.41734(14) 0.35883(19)
C16_4 C 0.93456(19) 0.44033(16) 0.37378(19)
C17_4 C 0.9232(3) 0.45770(19) 0.4041(2)
C18_4 C 0.9664(2) 0.44482(19) 0.3619(2)
H9_4 H 0.9741 0.4333 0.3433
C20_4 C 0.7843(2) 0.3657(2) 0.3921(2)
N3_4 N 0.7750(4) 0.3502(4) 0.3645(3)
C24_4 C 0.76359(16) 0.38359(15) 0.44333(17)
C25_4 C 0.73638(16) 0.38377(15) 0.47038(16)
N4_4 N 0.75855(17) 0.36617(17) 0.41585(17)
C27_4 C 0.9873(3) 0.4654(3) 0.3762(3)
C28_4 C 0.9768(4) 0.4819(3) 0.4060(3)
C31_4 C 0.81463(17) 0.40003(17) 0.42309(17)
N5_4 N 0.8428(2) 0.4163(3) 0.4288(3)
C32_4 C 0.9474(4) 0.4785(2) 0.4183(2)
H13_4 H 0.9412 0.4901 0.4375
N6_4 N 0.79111(15) 0.40143(15) 0.44876(17)
C33_4 C 0.7154(2) 0.35909(17) 0.4726(2)
O11_6 O 1.0000 0.5000 0.4222(4)
H15_4 H 0.9016 0.4553 0.4135
C34_4 C 0.7071(2) 0.40706(18) 0.5156(2)
C35_4 C 0.73347(19) 0.40734(16) 0.4921(2)
C36_4 C 0.6916(2) 0.35976(18) 0.4968(2)
H17_4 H 0.7177 0.3425 0.4577
H18_4 H 0.7488 0.4235 0.4914
H19_4 H 0.6773 0.3429 0.4984
H20_4 H 0.8450 0.4267 0.4476
H21_4 H 0.7034 0.4243 0.5293
H22_4 H 0.7874 0.3505 0.3462
H23_4 H 0.8588 0.4165 0.4136
H24_4 H 0.7565 0.3398 0.3648
C37_3 C 0.84289(17) 0.41364(16) 0.29203(19)
C38_3 C 0.82587(17) 0.43632(19) 0.2684(2)
O12_3 O 0.82906(13) 0.40922(11) 0.32199(13)
O13_3 O 0.86855(11) 0.39999(11) 0.28117(11)
C39_3 C 0.7866(3) 0.5202(3) 0.1481(4)
H25_3 H 0.7698 0.5081 0.1383
C40_3 C 0.8396(2) 0.4406(3) 0.2357(3)
H26_3 H 0.8582 0.4290 0.2285
C41_3 C 0.8222(3) 0.5330(4) 0.1960(3)
H27_3 H 0.8292 0.5293 0.2186
C42_3 C 0.7974(2) 0.4769(3) 0.2232(4)
O14_3 O 0.77885(17) 0.4947(2) 0.1989(3)
C43_3 C 0.7825(3) 0.4719(3) 0.2558(4)
H28_3 H 0.7630 0.4825 0.2623
C44_3 C 0.8017(2) 0.5440(2) 0.1293(3)
H29_3 H 0.7936 0.5481 0.1070
C45_3 C 0.7973(2) 0.5152(3) 0.1811(4)
C46_3 C 0.82767(17) 0.56170(19) 0.1421(2)
C47_3 C 0.84473(15) 0.58447(14) 0.12006(17)
C48_3 C 0.8254(3) 0.4620(3) 0.2139(3)
H30_3 H 0.8355 0.4661 0.1926
C49_3 C 0.8371(2) 0.5570(3) 0.1763(2)
C50_3 C 0.7971(2) 0.4517(2) 0.2774(3)
H31_3 H 0.8532 0.5697 0.1865
H32_3 H 0.7873 0.4481 0.2990
H33_4 H 0.9913 0.5312 0.3667
C66_5 C 0.0429(2) 0.15706(18) 0.7656(2)
H41_5 H 0.0466 0.1743 0.7793
C68_5 C 0.0584(2) 0.10976(18) 0.7468(2)
H42_5 H 0.0727 0.0929 0.7484
N11_5 N 0.06356(12) 0.13257(11) 0.76932(13)
C69_5 C 0.0346(2) 0.10909(17) 0.7226(2)
C71_5 C 0.01653(19) 0.15734(16) 0.7421(2)
H43_5 H 0.0012 0.1735 0.7414
H44_5 H 0.0323 0.0925 0.7077
C72_5 C 0.01362(16) 0.13377(15) 0.72038(16)
Co12_5 Co 0.10177(2) 0.13150(2) 0.80541(2)
C1_5 C 0.65711(17) 0.58636(16) 0.79203(19)
C2_5 C 0.67413(17) 0.56368(19) 0.7684(2)
C3_5 C 0.7029(2) 0.5483(2) 0.7774(3)
H1_5 H 0.7127 0.5519 0.7990
C4_5 C 0.7175(3) 0.5281(3) 0.7558(4)
H2_5 H 0.7370 0.5175 0.7623
C5_5 C 0.7026(2) 0.5231(3) 0.7232(4)
C6_5 C 0.6746(3) 0.5380(3) 0.7139(3)
H3_5 H 0.6645 0.5339 0.6926
C7_5 C 0.6604(2) 0.5594(3) 0.7357(3)
H4_5 H 0.6418 0.5710 0.7285
C8_5 C 0.7027(2) 0.4848(3) 0.6811(4)
C9_5 C 0.7134(3) 0.4798(3) 0.6481(4)
H5_5 H 0.7302 0.4919 0.6383
C10_5 C 0.6983(2) 0.4560(2) 0.6293(3)
H6_5 H 0.7064 0.4519 0.6070
C11_5 C 0.67233(17) 0.43830(19) 0.6421(2)
C12_5 C 0.6629(2) 0.4430(3) 0.6763(2)
H7_5 H 0.6468 0.4303 0.6865
C13_5 C 0.6778(3) 0.4670(4) 0.6960(3)
H8_5 H 0.6708 0.4707 0.7186
C14_5 C 0.65527(15) 0.41553(14) 0.62006(17)
O1_5 O 0.63145(11) 0.60001(11) 0.78117(11)
O2_5 O 0.67094(13) 0.59078(11) 0.82199(13)
O3_5 O 0.72115(17) 0.5053(2) 0.6989(3)
O4_5 O 0.62951(12) 0.40246(11) 0.63156(12)
O5_5 O 0.66816(11) 0.41014(10) 0.59127(12)
N1_5 N 0.43644(12) 0.36743(11) 0.76932(13)
N2_5 N 0.56248(13) 0.36756(12) 0.64393(13)
O6_5 O 0.63269(13) 0.33763(11) 0.62345(14)
O7_5 O 0.67117(12) 0.34618(11) 0.58144(12)
O8_3 O 0.61927(12) 0.41499(11) 0.53484(12)
O9_3 O 0.58034(12) 0.40505(11) 0.57561(13)
C15_5 C 0.66049(17) 0.33266(14) 0.60883(19)
C16_5 C 0.68456(19) 0.30967(16) 0.62378(19)
C17_5 C 0.6732(3) 0.29230(19) 0.6541(2)
C18_5 C 0.7164(2) 0.30518(19) 0.6119(2)
H9_5 H 0.7241 0.3167 0.5933
C19_3 C 0.53563(18) 0.44711(18) 0.5470(2)
H10_3 H 0.5296 0.4376 0.5677
C20_5 C 0.5343(2) 0.3843(2) 0.6421(2)
C21_3 C 0.5527(2) 0.4754(2) 0.4858(2)
H11_3 H 0.5592 0.4849 0.4653
C22_3 C 0.56694(16) 0.44113(15) 0.53256(17)
C23_3 C 0.5742(2) 0.4546(2) 0.5017(2)
N3_5 N 0.5250(4) 0.3998(4) 0.6145(3)
H12_3 H 0.5945 0.4497 0.4908
C24_5 C 0.51359(16) 0.36641(15) 0.69333(17)
C25_5 C 0.48638(16) 0.36623(15) 0.72038(16)
C26_3 C 0.59031(16) 0.41943(14) 0.54854(17)
N4_5 N 0.50855(17) 0.38383(17) 0.66585(17)
C27_5 C 0.7373(3) 0.2846(3) 0.6262(3)
C28_5 C 0.7268(4) 0.2681(3) 0.6560(3)
C29_3 C 0.5223(2) 0.4818(2) 0.5003(2)
C30_3 C 0.51282(19) 0.46715(18) 0.5311(2)
C31_5 C 0.56463(17) 0.34997(17) 0.67309(17)
N5_5 N 0.5928(2) 0.3337(3) 0.6788(3)
C32_5 C 0.6974(4) 0.2715(2) 0.6683(2)
H13_5 H 0.6912 0.2599 0.6875
N6_5 N 0.54111(15) 0.34857(15) 0.69876(17)
O10_4 O 0.5000 0.5000 0.4825(2)
C33_5 C 0.4654(2) 0.39091(17) 0.7226(2)
H14_3 H 0.4916 0.4707 0.5408
O11_7 O 0.7500 0.2500 0.6722(4)
H15_5 H 0.6516 0.2947 0.6635
H16_5 H 0.7587 0.2812 0.6167
C34_5 C 0.4571(2) 0.34294(18) 0.7656(2)
C35_5 C 0.48347(19) 0.34266(16) 0.7421(2)
C36_5 C 0.4416(2) 0.39024(18) 0.7468(2)
H17_5 H 0.4677 0.4075 0.7077
H18_5 H 0.4988 0.3265 0.7414
H19_5 H 0.4273 0.4071 0.7484
H20_5 H 0.5950 0.3233 0.6976
H21_5 H 0.4534 0.3257 0.7793
H22_5 H 0.5374 0.3995 0.5962
H23_5 H 0.6088 0.3335 0.6636
H24_5 H 0.5065 0.4102 0.6148
Co7_3 Co 0.39979(2) 0.62986(2) 0.60654(2)
C51_3 C 0.4777(2) 0.5182(2) 0.5003(2)
C52_5 C 0.7627(3) 0.2154(3) 0.6262(3)
H33_5 H 0.7413 0.2188 0.6167
C53_5 C 0.7732(4) 0.2319(3) 0.6560(3)
C54_5 C 0.83951(17) 0.16734(14) 0.60883(19)
O17_5 O 0.82883(12) 0.15382(11) 0.58144(12)
C55_5 C 0.81544(19) 0.19033(16) 0.62378(19)
C56_5 C 0.7836(2) 0.19482(19) 0.6119(2)
C57_5 C 0.8268(3) 0.20770(19) 0.6541(2)
H34_5 H 0.7759 0.1833 0.5933
C58_5 C 0.8026(4) 0.2285(2) 0.6683(2)
H35_5 H 0.8088 0.2401 0.6875
O18_5 O 0.86731(13) 0.16237(11) 0.62345(14)
H36_5 H 0.8484 0.2053 0.6635
C59_3 C 0.43306(16) 0.55887(15) 0.53256(17)
C60_3 C 0.46437(18) 0.55289(18) 0.5470(2)
C61_3 C 0.48718(19) 0.53285(18) 0.5311(2)
H37_3 H 0.5084 0.5293 0.5408
O19_3 O 0.41966(12) 0.59495(11) 0.57561(13)
C62_3 C 0.40969(16) 0.58057(14) 0.54854(17)
O21_3 O 0.38073(12) 0.58501(11) 0.53484(12)
C63_3 C 0.4258(2) 0.5454(2) 0.5017(2)
O23_5 O 0.83184(11) 0.08986(10) 0.59127(12)
H38_3 H 0.4055 0.5503 0.4908
C64_3 C 0.4473(2) 0.5246(2) 0.4858(2)
H39_3 H 0.4408 0.5151 0.4653
H40_3 H 0.4704 0.5624 0.5677
O24_5 O 0.87049(12) 0.09754(11) 0.63156(12)
O25_5 O 0.91966(12) 0.09495(11) 0.57561(13)
N9_5 N 0.93752(13) 0.13244(12) 0.64393(13)
O26_5 O 0.88073(12) 0.08501(11) 0.53484(12)
C65_5 C 0.98641(16) 0.13359(15) 0.69333(17)
N10_5 N 0.99145(17) 0.11617(17) 0.66585(17)
C67_5 C 0.9657(2) 0.1157(2) 0.6421(2)
N12_5 N 0.9750(4) 0.1002(4) 0.6145(3)
N13_5 N 0.95889(15) 0.15143(15) 0.69876(17)
C70_5 C 0.93537(17) 0.15003(17) 0.67309(17)
H45_5 H 0.9626 0.1005 0.5962
H46_5 H 0.9935 0.0898 0.6148
N14_5 N 0.9072(2) 0.1663(3) 0.6788(3)
H47_5 H 0.9050 0.1767 0.6976
H48_5 H 0.8912 0.1665 0.6636
C1_6 C 0.34289(17) 0.41364(16) 0.79203(19)
C2_6 C 0.32587(17) 0.43632(19) 0.7684(2)
C3_6 C 0.2971(2) 0.4517(2) 0.7774(3)
H1_6 H 0.2873 0.4481 0.7990
C4_6 C 0.2825(3) 0.4719(3) 0.7558(4)
H2_6 H 0.2630 0.4825 0.7623
C5_6 C 0.2974(2) 0.4769(3) 0.7232(4)
C6_6 C 0.3254(3) 0.4620(3) 0.7139(3)
H3_6 H 0.3355 0.4661 0.6926
C7_6 C 0.3396(2) 0.4406(3) 0.7357(3)
H4_6 H 0.3582 0.4290 0.7285
C8_6 C 0.2973(2) 0.5152(3) 0.6811(4)
C9_6 C 0.2866(3) 0.5202(3) 0.6481(4)
H5_6 H 0.2698 0.5081 0.6383
C10_6 C 0.3017(2) 0.5440(2) 0.6293(3)
H6_6 H 0.2936 0.5481 0.6070
C11_6 C 0.32767(17) 0.56170(19) 0.6421(2)
C12_6 C 0.3371(2) 0.5570(3) 0.6763(2)
H7_6 H 0.3532 0.5697 0.6865
C13_6 C 0.3222(3) 0.5330(4) 0.6960(3)
H8_6 H 0.3292 0.5293 0.7186
C14_6 C 0.34473(15) 0.58447(14) 0.62006(17)
O1_6 O 0.36855(11) 0.39999(11) 0.78117(11)
O2_6 O 0.32906(13) 0.40922(11) 0.82199(13)
O3_6 O 0.27885(17) 0.4947(2) 0.6989(3)
O4_6 O 0.37049(12) 0.59754(11) 0.63156(12)
O5_6 O 0.33184(11) 0.58986(10) 0.59127(12)
N1_6 N 0.56356(12) 0.63257(11) 0.76932(13)
N2_6 N 0.43752(13) 0.63244(12) 0.64393(13)
O6_6 O 0.36731(13) 0.66237(11) 0.62345(14)
O7_6 O 0.32883(12) 0.65382(11) 0.58144(12)
C15_6 C 0.33951(17) 0.66734(14) 0.60883(19)
C16_6 C 0.31544(19) 0.69033(16) 0.62378(19)
C17_6 C 0.3268(3) 0.70770(19) 0.6541(2)
C18_6 C 0.2836(2) 0.69482(19) 0.6119(2)
H9_6 H 0.2759 0.6833 0.5933
C20_6 C 0.4657(2) 0.6157(2) 0.6421(2)
N3_6 N 0.4750(4) 0.6002(4) 0.6145(3)
C24_6 C 0.48641(16) 0.63359(15) 0.69333(17)
C25_6 C 0.51362(16) 0.63377(15) 0.72038(16)
N4_6 N 0.49145(17) 0.61617(17) 0.66585(17)
C27_6 C 0.2627(3) 0.7154(3) 0.6262(3)
C28_6 C 0.2732(4) 0.7319(3) 0.6560(3)
C31_6 C 0.43537(17) 0.65003(17) 0.67309(17)
N5_6 N 0.4072(2) 0.6663(3) 0.6788(3)
C32_6 C 0.3026(4) 0.7285(2) 0.6683(2)
H13_6 H 0.3088 0.7401 0.6875
N6_6 N 0.45889(15) 0.65143(15) 0.69876(17)
C33_6 C 0.5346(2) 0.60909(17) 0.7226(2)
O11_8 O 0.2500 0.7500 0.6722(4)
H15_6 H 0.3484 0.7053 0.6635
H16_6 H 0.2413 0.7188 0.6167
C34_6 C 0.5429(2) 0.65706(18) 0.7656(2)
C35_6 C 0.51653(19) 0.65734(16) 0.7421(2)
C36_6 C 0.5584(2) 0.60976(18) 0.7468(2)
H17_6 H 0.5323 0.5925 0.7077
H18_6 H 0.5012 0.6735 0.7414
H19_6 H 0.5727 0.5929 0.7484
H20_6 H 0.4050 0.6767 0.6976
H21_6 H 0.5466 0.6743 0.7793
H22_6 H 0.4626 0.6005 0.5962
H23_6 H 0.3912 0.6665 0.6636
H24_6 H 0.4935 0.5898 0.6148
C37_4 C 0.40711(17) 0.66364(16) 0.54203(19)
C38_4 C 0.42413(17) 0.68632(19) 0.5184(2)
O12_4 O 0.42094(13) 0.65922(11) 0.57199(13)
O13_4 O 0.38145(11) 0.64999(11) 0.53117(11)
C39_4 C 0.4634(3) 0.7702(3) 0.3981(4)
H25_4 H 0.4802 0.7581 0.3883
C40_4 C 0.4104(2) 0.6906(3) 0.4857(3)
H26_4 H 0.3918 0.6790 0.4785
C41_4 C 0.4278(3) 0.7830(4) 0.4460(3)
H27_4 H 0.4208 0.7793 0.4686
C42_4 C 0.4526(2) 0.7269(3) 0.4732(4)
O14_4 O 0.47115(17) 0.7447(2) 0.4489(3)
C43_4 C 0.4675(3) 0.7219(3) 0.5058(4)
H28_4 H 0.4870 0.7325 0.5123
C44_4 C 0.4483(2) 0.7940(2) 0.3793(3)
H29_4 H 0.4564 0.7981 0.3570
C45_4 C 0.4527(2) 0.7652(3) 0.4311(4)
C46_4 C 0.42233(17) 0.81170(19) 0.3921(2)
C47_4 C 0.40527(15) 0.83447(14) 0.37006(17)
C48_4 C 0.4246(3) 0.7120(3) 0.4639(3)
H30_4 H 0.4145 0.7161 0.4426
C49_4 C 0.4129(2) 0.8070(3) 0.4263(2)
C50_4 C 0.4529(2) 0.7017(2) 0.5274(3)
H31_4 H 0.3968 0.8197 0.4365
H32_4 H 0.4627 0.6981 0.5490
C52_6 C 0.2373(3) 0.7846(3) 0.6262(3)
H33_6 H 0.2587 0.7812 0.6167
C53_6 C 0.2268(4) 0.7681(3) 0.6560(3)
C54_6 C 0.16049(17) 0.83266(14) 0.60883(19)
O17_6 O 0.17117(12) 0.84618(11) 0.58144(12)
C55_6 C 0.18456(19) 0.80967(16) 0.62378(19)
C56_6 C 0.2164(2) 0.80518(19) 0.6119(2)
C57_6 C 0.1732(3) 0.79230(19) 0.6541(2)
H34_6 H 0.2241 0.8167 0.5933
C58_6 C 0.1974(4) 0.7715(2) 0.6683(2)
H35_6 H 0.1912 0.7599 0.6875
O18_6 O 0.13269(13) 0.83763(11) 0.62345(14)
H36_6 H 0.1516 0.7947 0.6635
Co11_4 Co 0.10021(2) 0.87014(2) 0.60654(2)
O20_4 O 0.07906(13) 0.84078(11) 0.57199(13)
O22_4 O 0.11855(11) 0.85001(11) 0.53117(11)
O23_6 O 0.16816(11) 0.91014(10) 0.59127(12)
O24_6 O 0.12951(12) 0.90246(11) 0.63156(12)
O25_6 O 0.08034(12) 0.90505(11) 0.57561(13)
N9_6 N 0.06248(13) 0.86756(12) 0.64393(13)
O26_6 O 0.11927(12) 0.91499(11) 0.53484(12)
C65_6 C 0.01359(16) 0.86641(15) 0.69333(17)
N10_6 N 0.00855(17) 0.88383(17) 0.66585(17)
C67_6 C 0.0343(2) 0.8843(2) 0.6421(2)
N12_6 N 0.0250(4) 0.8998(4) 0.6145(3)
N13_6 N 0.04111(15) 0.84857(15) 0.69876(17)
C70_6 C 0.06463(17) 0.84997(17) 0.67309(17)
H45_6 H 0.0374 0.8995 0.5962
H46_6 H 0.0065 0.9102 0.6148
N14_6 N 0.0928(2) 0.8337(3) 0.6788(3)
H47_6 H 0.0950 0.8233 0.6976
H48_6 H 0.1088 0.8335 0.6636
C66_6 C 0.9571(2) 0.84294(18) 0.7656(2)
H41_6 H 0.9534 0.8257 0.7793
C68_6 C 0.9416(2) 0.89024(18) 0.7468(2)
H42_6 H 0.9273 0.9071 0.7484
N11_6 N 0.93644(12) 0.86743(11) 0.76932(13)
C69_6 C 0.9654(2) 0.89091(17) 0.7226(2)
C71_6 C 0.98347(19) 0.84266(16) 0.7421(2)
H43_6 H 0.9988 0.8265 0.7414
H44_6 H 0.9677 0.9075 0.7077
C72_6 C 0.98638(16) 0.86623(15) 0.72038(16)
Co12_6 Co 0.89823(2) 0.86850(2) 0.80541(2)
C34_7 C 0.7929(2) 0.59294(18) 0.0156(2)
H21_7 H 0.7966 0.5757 0.0293
C66_7 C 0.2071(2) 0.40706(18) 0.0156(2)
H41_7 H 0.2034 0.4243 0.0293
N2_7 N 0.68752(13) 0.61756(12) 0.89393(13)
O6_7 O 0.61731(13) 0.58763(11) 0.87345(14)
O7_7 O 0.57883(12) 0.59618(11) 0.83144(12)
O8_4 O 0.63073(12) 0.66499(11) 0.78484(12)
O9_4 O 0.66966(12) 0.65505(11) 0.82561(13)
C15_7 C 0.58951(17) 0.58266(14) 0.85883(19)
C16_7 C 0.56544(19) 0.55967(16) 0.87378(19)
C17_7 C 0.5768(3) 0.54230(19) 0.9041(2)
C18_7 C 0.5336(2) 0.55518(19) 0.8619(2)
H9_7 H 0.5259 0.5667 0.8433
C19_4 C 0.71437(18) 0.69711(18) 0.7970(2)
H10_4 H 0.7204 0.6876 0.8177
C20_7 C 0.7157(2) 0.6343(2) 0.8921(2)
C21_4 C 0.6973(2) 0.7254(2) 0.7358(2)
H11_4 H 0.6908 0.7349 0.7153
C22_4 C 0.68306(16) 0.69113(15) 0.78256(17)
C23_4 C 0.6758(2) 0.7046(2) 0.7517(2)
N3_7 N 0.7250(4) 0.6498(4) 0.8645(3)
H12_4 H 0.6555 0.6997 0.7408
C24_7 C 0.73641(16) 0.61641(15) 0.94333(17)
C25_7 C 0.76362(16) 0.61623(15) 0.97038(16)
C26_4 C 0.65969(16) 0.66943(14) 0.79854(17)
N4_7 N 0.74145(17) 0.63383(17) 0.91585(17)
C27_7 C 0.5127(3) 0.5346(3) 0.8762(3)
C28_7 C 0.5232(4) 0.5181(3) 0.9060(3)
C29_4 C 0.7277(2) 0.7318(2) 0.7503(2)
C30_4 C 0.73718(19) 0.71715(18) 0.7811(2)
C31_7 C 0.68537(17) 0.59997(17) 0.92309(17)
N5_7 N 0.6572(2) 0.5837(3) 0.9288(3)
C32_7 C 0.5526(4) 0.5215(2) 0.9183(2)
H13_7 H 0.5588 0.5099 0.9375
N6_7 N 0.70889(15) 0.59857(15) 0.94876(17)
O10_5 O 0.7500 0.7500 0.7325(2)
C33_7 C 0.7846(2) 0.64091(17) 0.9726(2)
H14_4 H 0.7584 0.7207 0.7908
O11_9 O 0.5000 0.5000 0.9222(4)
H15_7 H 0.5984 0.5447 0.9135
H16_7 H 0.4913 0.5312 0.8667
C35_7 C 0.76653(19) 0.59266(16) 0.9921(2)
C36_7 C 0.8084(2) 0.64024(18) 0.9968(2)
H17_7 H 0.7823 0.6575 0.9577
H18_7 H 0.7512 0.5765 0.9914
H19_7 H 0.8227 0.6571 0.9984
H20_7 H 0.6550 0.5733 0.9476
H22_7 H 0.7126 0.6495 0.8462
H23_7 H 0.6412 0.5835 0.9136
H24_7 H 0.7435 0.6602 0.8648
Co7_4 Co 0.85021(2) 0.87986(2) 0.85654(2)
C51_4 C 0.7723(2) 0.7682(2) 0.7503(2)
C52_7 C 0.4873(3) 0.4654(3) 0.8762(3)
H33_7 H 0.5087 0.4688 0.8667
C53_7 C 0.4768(4) 0.4819(3) 0.9060(3)
C54_7 C 0.41049(17) 0.41734(14) 0.85883(19)
O17_7 O 0.42117(12) 0.40382(11) 0.83144(12)
C55_7 C 0.43456(19) 0.44033(16) 0.87378(19)
C56_7 C 0.4664(2) 0.44482(19) 0.8619(2)
C57_7 C 0.4232(3) 0.45770(19) 0.9041(2)
H34_7 H 0.4741 0.4333 0.8433
C58_7 C 0.4474(4) 0.4785(2) 0.9183(2)
H35_7 H 0.4412 0.4901 0.9375
O18_7 O 0.38269(13) 0.41237(11) 0.87345(14)
H36_7 H 0.4016 0.4553 0.9135
C59_4 C 0.81694(16) 0.80887(15) 0.78256(17)
C60_4 C 0.78563(18) 0.80289(18) 0.7970(2)
C61_4 C 0.76282(19) 0.78285(18) 0.7811(2)
H37_4 H 0.7416 0.7793 0.7908
O19_4 O 0.83034(12) 0.84495(11) 0.82561(13)
C62_4 C 0.84031(16) 0.83057(14) 0.79854(17)
O21_4 O 0.86927(12) 0.83501(11) 0.78484(12)
C63_4 C 0.8242(2) 0.7954(2) 0.7517(2)
H38_4 H 0.8445 0.8003 0.7408
C64_4 C 0.8027(2) 0.7746(2) 0.7358(2)
H39_4 H 0.8092 0.7651 0.7153
H40_4 H 0.7796 0.8124 0.8177
O25_7 O 0.33034(12) 0.34495(11) 0.82561(13)
N9_7 N 0.31248(13) 0.38244(12) 0.89393(13)
O26_7 O 0.36927(12) 0.33501(11) 0.78484(12)
C65_7 C 0.26359(16) 0.38359(15) 0.94333(17)
N10_7 N 0.25855(17) 0.36617(17) 0.91585(17)
C67_7 C 0.2843(2) 0.3657(2) 0.8921(2)
C68_7 C 0.1916(2) 0.35976(18) 0.9968(2)
H42_7 H 0.1773 0.3429 0.9984
N12_7 N 0.2750(4) 0.3502(4) 0.8645(3)
N13_7 N 0.29111(15) 0.40143(15) 0.94876(17)
C69_7 C 0.2154(2) 0.35909(17) 0.9726(2)
C70_7 C 0.31463(17) 0.40003(17) 0.92309(17)
C71_7 C 0.23347(19) 0.40734(16) 0.9921(2)
H43_7 H 0.2488 0.4235 0.9914
H44_7 H 0.2177 0.3425 0.9577
H45_7 H 0.2874 0.3505 0.8462
C72_7 C 0.23638(16) 0.38377(15) 0.97038(16)
H46_7 H 0.2565 0.3398 0.8648
N14_7 N 0.3428(2) 0.4163(3) 0.9288(3)
H47_7 H 0.3450 0.4267 0.9476
H48_7 H 0.3588 0.4165 0.9136
C66_8 C 0.2929(2) 0.09294(18) 0.0156(2)
H41_8 H 0.2966 0.0757 0.0293
O11_10 O 0.0000 -0.0000 0.9222(4)
C52_8 C 0.0127(3) 0.0346(3) 0.8762(3)
C53_8 C 0.0232(4) 0.0181(3) 0.9060(3)
C54_8 C 0.08951(17) 0.08266(14) 0.85883(19)
O17_8 O 0.07883(12) 0.09618(11) 0.83144(12)
C55_8 C 0.06544(19) 0.05967(16) 0.87378(19)
C56_8 C 0.0336(2) 0.05518(19) 0.8619(2)
C57_8 C 0.0768(3) 0.04230(19) 0.9041(2)
H34_8 H 0.0259 0.0667 0.8433
C58_8 C 0.0526(4) 0.0215(2) 0.9183(2)
H35_8 H 0.0588 0.0099 0.9375
O18_8 O 0.11731(13) 0.08763(11) 0.87345(14)
H36_8 H 0.0984 0.0447 0.9135
Co11_5 Co 0.14979(2) 0.12014(2) 0.85654(2)
O20_5 O 0.17094(13) 0.09078(11) 0.82199(13)
O22_5 O 0.13145(11) 0.10001(11) 0.78117(11)
O23_7 O 0.08184(11) 0.16014(10) 0.84127(12)
O24_7 O 0.12049(12) 0.15246(11) 0.88156(12)
O25_8 O 0.16966(12) 0.15505(11) 0.82561(13)
N9_8 N 0.18752(13) 0.11756(12) 0.89393(13)
O26_8 O 0.13073(12) 0.16499(11) 0.78484(12)
C65_8 C 0.23641(16) 0.11641(15) 0.94333(17)
N10_8 N 0.24145(17) 0.13383(17) 0.91585(17)
C67_8 C 0.2157(2) 0.1343(2) 0.8921(2)
C68_8 C 0.3084(2) 0.14024(18) 0.9968(2)
H42_8 H 0.3227 0.1571 0.9984
N12_8 N 0.2250(4) 0.1498(4) 0.8645(3)
N13_8 N 0.20889(15) 0.09857(15) 0.94876(17)
C69_8 C 0.2846(2) 0.14091(17) 0.9726(2)
C70_8 C 0.18537(17) 0.09997(17) 0.92309(17)
C71_8 C 0.26653(19) 0.09266(16) 0.9921(2)
H43_8 H 0.2512 0.0765 0.9914
H44_8 H 0.2823 0.1575 0.9577
H45_8 H 0.2126 0.1495 0.8462
C72_8 C 0.26362(16) 0.11623(15) 0.97038(16)
H46_8 H 0.2435 0.1602 0.8648
N14_8 N 0.1572(2) 0.0837(3) 0.9288(3)
H47_8 H 0.1550 0.0733 0.9476
H48_8 H 0.1412 0.0835 0.9136
O11_11 O -0.0000 1.0000 0.9222(4)
H16_8 H 0.0087 0.9688 0.8667
O11_12 O 1.0000 -0.0000 0.9222(4)
C39_5 C 0.7866(3) 0.0202(3) 0.6481(4)
H25_5 H 0.7698 0.0081 0.6383
C41_5 C 0.8222(3) 0.0330(4) 0.6960(3)
H27_5 H 0.8292 0.0293 0.7186
C44_5 C 0.8017(2) 0.0440(2) 0.6293(3)
H29_5 H 0.7936 0.0481 0.6070
C45_5 C 0.7973(2) 0.0152(3) 0.6811(4)
C46_5 C 0.82767(17) 0.06170(19) 0.6421(2)
C47_5 C 0.84473(15) 0.08447(14) 0.62006(17)
C49_5 C 0.8371(2) 0.0570(3) 0.6763(2)
H31_5 H 0.8532 0.0697 0.6865
H33_8 H 0.9913 0.0312 0.8667
C1_7 C 0.90711(17) 0.66364(16) 0.04203(19)
C2_7 C 0.92413(17) 0.68632(19) 0.0184(2)
C3_7 C 0.9529(2) 0.7017(2) 0.0274(3)
H1_7 H 0.9627 0.6981 0.0490
C4_7 C 0.9675(3) 0.7219(3) 0.0058(4)
H2_7 H 0.9870 0.7325 0.0123
C34_8 C 0.7071(2) 0.90706(18) 0.0156(2)
H21_8 H 0.7034 0.9243 0.0293
C5_7 C 0.9526(2) 0.7269(3) 0.9732(4)
C6_7 C 0.9246(3) 0.7120(3) 0.9639(3)
H3_7 H 0.9145 0.7161 0.9426
C7_7 C 0.9104(2) 0.6906(3) 0.9857(3)
H4_7 H 0.8918 0.6790 0.9785
C8_7 C 0.9527(2) 0.7652(3) 0.9311(4)
C9_7 C 0.9634(3) 0.7702(3) 0.8981(4)
H5_7 H 0.9802 0.7581 0.8883
C10_7 C 0.9483(2) 0.7940(2) 0.8793(3)
H6_7 H 0.9564 0.7981 0.8570
C11_7 C 0.92233(17) 0.81170(19) 0.8921(2)
C12_7 C 0.9129(2) 0.8070(3) 0.9263(2)
H7_7 H 0.8968 0.8197 0.9365
C13_7 C 0.9278(3) 0.7830(4) 0.9460(3)
H8_7 H 0.9208 0.7793 0.9686
C14_7 C 0.90527(15) 0.83447(14) 0.87006(17)
O3_7 O 0.97115(17) 0.7447(2) 0.9489(3)
O4_7 O 0.87951(12) 0.84754(11) 0.88156(12)
O5_7 O 0.91816(11) 0.83986(10) 0.84127(12)
N2_8 N 0.81248(13) 0.88244(12) 0.89393(13)
O6_8 O 0.88269(13) 0.91237(11) 0.87345(14)
O7_8 O 0.92117(12) 0.90382(11) 0.83144(12)
C15_8 C 0.91049(17) 0.91734(14) 0.85883(19)
C16_8 C 0.93456(19) 0.94033(16) 0.87378(19)
C17_8 C 0.9232(3) 0.95770(19) 0.9041(2)
C18_8 C 0.9664(2) 0.94482(19) 0.8619(2)
H9_8 H 0.9741 0.9333 0.8433
C20_8 C 0.7843(2) 0.8657(2) 0.8921(2)
N3_8 N 0.7750(4) 0.8502(4) 0.8645(3)
C24_8 C 0.76359(16) 0.88359(15) 0.94333(17)
C25_8 C 0.73638(16) 0.88377(15) 0.97038(16)
N4_8 N 0.75855(17) 0.86617(17) 0.91585(17)
C27_8 C 0.9873(3) 0.9654(3) 0.8762(3)
C28_8 C 0.9768(4) 0.9819(3) 0.9060(3)
C31_8 C 0.81463(17) 0.90003(17) 0.92309(17)
N5_8 N 0.8428(2) 0.9163(3) 0.9288(3)
C32_8 C 0.9474(4) 0.9785(2) 0.9183(2)
H13_8 H 0.9412 0.9901 0.9375
N6_8 N 0.79111(15) 0.90143(15) 0.94876(17)
C33_8 C 0.7154(2) 0.85909(17) 0.9726(2)
O11_13 O 1.0000 1.0000 0.9222(4)
H15_8 H 0.9016 0.9553 0.9135
C35_8 C 0.73347(19) 0.90734(16) 0.9921(2)
C36_8 C 0.6916(2) 0.85976(18) 0.9968(2)
H17_8 H 0.7177 0.8425 0.9577
H18_8 H 0.7488 0.9235 0.9914
H19_8 H 0.6773 0.8429 0.9984
H20_8 H 0.8450 0.9267 0.9476
H22_8 H 0.7874 0.8505 0.8462
H23_8 H 0.8588 0.9165 0.9136
H24_8 H 0.7565 0.8398 0.8648
C37_5 C 0.84289(17) 0.91364(16) 0.79203(19)
C38_5 C 0.82587(17) 0.93632(19) 0.7684(2)
O12_5 O 0.82906(13) 0.90922(11) 0.82199(13)
O13_5 O 0.86855(11) 0.89999(11) 0.78117(11)
C40_5 C 0.8396(2) 0.9406(3) 0.7357(3)
H26_5 H 0.8582 0.9290 0.7285
C42_5 C 0.7974(2) 0.9769(3) 0.7232(4)
O14_5 O 0.77885(17) 0.9947(2) 0.6989(3)
C43_5 C 0.7825(3) 0.9719(3) 0.7558(4)
H28_5 H 0.7630 0.9825 0.7623
C48_5 C 0.8254(3) 0.9620(3) 0.7139(3)
H30_5 H 0.8355 0.9661 0.6926
C50_5 C 0.7971(2) 0.9517(2) 0.7774(3)
H32_5 H 0.7873 0.9481 0.7990
C1_8 C 0.15711(17) 0.08636(16) 0.79203(19)
C2_8 C 0.17413(17) 0.06368(19) 0.7684(2)
C3_8 C 0.2029(2) 0.0483(2) 0.7774(3)
H1_8 H 0.2127 0.0519 0.7990
C4_8 C 0.2175(3) 0.0281(3) 0.7558(4)
H2_8 H 0.2370 0.0175 0.7623
C5_8 C 0.2026(2) 0.0231(3) 0.7232(4)
C6_8 C 0.1746(3) 0.0380(3) 0.7139(3)
H3_8 H 0.1645 0.0339 0.6926
C7_8 C 0.1604(2) 0.0594(3) 0.7357(3)
H4_8 H 0.1418 0.0710 0.7285
O3_8 O 0.22115(17) 0.0053(2) 0.6989(3)
O10_6 O 0.0000 0.0000 0.4825(2)
H37_5 H 0.0084 0.0293 0.5408
C8_8 C 0.2027(2) 0.9848(3) 0.6811(4)
C9_8 C 0.2134(3) 0.9798(3) 0.6481(4)
H5_8 H 0.2302 0.9919 0.6383
C10_8 C 0.1983(2) 0.9560(2) 0.6293(3)
H6_8 H 0.2064 0.9519 0.6070
C11_8 C 0.17233(17) 0.93830(19) 0.6421(2)
C12_8 C 0.1629(2) 0.9430(3) 0.6763(2)
H7_8 H 0.1468 0.9303 0.6865
C13_8 C 0.1778(3) 0.9670(4) 0.6960(3)
H8_8 H 0.1708 0.9707 0.7186
C14_8 C 0.15527(15) 0.91553(14) 0.62006(17)
C19_5 C 0.03563(18) 0.94711(18) 0.5470(2)
H10_5 H 0.0296 0.9376 0.5677
C21_5 C 0.0527(2) 0.9754(2) 0.4858(2)
H11_5 H 0.0592 0.9849 0.4653
C22_5 C 0.06694(16) 0.94113(15) 0.53256(17)
C23_5 C 0.0742(2) 0.9546(2) 0.5017(2)
H12_5 H 0.0945 0.9497 0.4908
C26_5 C 0.09031(16) 0.91943(14) 0.54854(17)
C29_5 C 0.0223(2) 0.9818(2) 0.5003(2)
C30_5 C 0.01282(19) 0.96715(18) 0.5311(2)
O10_7 O 0.0000 1.0000 0.4825(2)
C37_6 C 0.09289(17) 0.83636(16) 0.54203(19)
C38_6 C 0.07587(17) 0.81368(19) 0.5184(2)
C39_6 C 0.0366(3) 0.7298(3) 0.3981(4)
H25_6 H 0.0198 0.7419 0.3883
C40_6 C 0.0896(2) 0.8094(3) 0.4857(3)
H26_6 H 0.1082 0.8210 0.4785
C41_6 C 0.0722(3) 0.7170(4) 0.4460(3)
H27_6 H 0.0792 0.7207 0.4686
C42_6 C 0.0474(2) 0.7731(3) 0.4732(4)
O14_6 O 0.02885(17) 0.7553(2) 0.4489(3)
C43_6 C 0.0325(3) 0.7781(3) 0.5058(4)
H28_6 H 0.0130 0.7675 0.5123
C44_6 C 0.0517(2) 0.7060(2) 0.3793(3)
H29_6 H 0.0436 0.7019 0.3570
C45_6 C 0.0473(2) 0.7348(3) 0.4311(4)
C46_6 C 0.07767(17) 0.68830(19) 0.3921(2)
C47_6 C 0.09473(15) 0.66553(14) 0.37006(17)
C48_6 C 0.0754(3) 0.7880(3) 0.4639(3)
H30_6 H 0.0855 0.7839 0.4426
C49_6 C 0.0871(2) 0.6930(3) 0.4263(2)
C50_6 C 0.0471(2) 0.7983(2) 0.5274(3)
H31_6 H 0.1032 0.6803 0.4365
H32_6 H 0.0373 0.8019 0.5490
O10_8 O 1.0000 0.0000 0.4825(2)
C51_5 C 0.9777(2) 0.0182(2) 0.5003(2)
C59_5 C 0.93306(16) 0.05887(15) 0.53256(17)
C60_5 C 0.96437(18) 0.05289(18) 0.5470(2)
C61_5 C 0.98718(19) 0.03285(18) 0.5311(2)
C62_5 C 0.90969(16) 0.08057(14) 0.54854(17)
C63_5 C 0.9258(2) 0.0454(2) 0.5017(2)
H38_5 H 0.9055 0.0503 0.4908
C64_5 C 0.9473(2) 0.0246(2) 0.4858(2)
H39_5 H 0.9408 0.0151 0.4653
H40_5 H 0.9704 0.0624 0.5677
O10_9 O 1.0000 1.0000 0.4825(2)
H14_5 H 0.9916 0.9707 0.5408
C1_9 C 0.09289(17) 0.33636(16) 0.04203(19)
C2_9 C 0.07587(17) 0.31368(19) 0.0184(2)
C3_9 C 0.0471(2) 0.2983(2) 0.0274(3)
H1_9 H 0.0373 0.3019 0.0490
C4_9 C 0.0325(3) 0.2781(3) 0.0058(4)
H2_9 H 0.0130 0.2675 0.0123
C5_9 C 0.0474(2) 0.2731(3) 0.9732(4)
C6_9 C 0.0754(3) 0.2880(3) 0.9639(3)
H3_9 H 0.0855 0.2839 0.9426
C7_9 C 0.0896(2) 0.3094(3) 0.9857(3)
H4_9 H 0.1082 0.3210 0.9785
C8_9 C 0.0473(2) 0.2348(3) 0.9311(4)
C9_9 C 0.0366(3) 0.2298(3) 0.8981(4)
H5_9 H 0.0198 0.2419 0.8883
C10_9 C 0.0517(2) 0.2060(2) 0.8793(3)
H6_9 H 0.0436 0.2019 0.8570
C11_9 C 0.07767(17) 0.18830(19) 0.8921(2)
C12_9 C 0.0871(2) 0.1930(3) 0.9263(2)
H7_9 H 0.1032 0.1803 0.9365
C13_9 C 0.0722(3) 0.2170(4) 0.9460(3)
H8_9 H 0.0792 0.2207 0.9686
C14_9 C 0.09473(15) 0.16553(14) 0.87006(17)
O3_9 O 0.02885(17) 0.2553(2) 0.9489(3)
C19_6 C 0.21437(18) 0.19711(18) 0.7970(2)
H10_6 H 0.2204 0.1876 0.8177
C21_6 C 0.1973(2) 0.2254(2) 0.7358(2)
H11_6 H 0.1908 0.2349 0.7153
C22_6 C 0.18306(16) 0.19113(15) 0.78256(17)
C23_6 C 0.1758(2) 0.2046(2) 0.7517(2)
H12_6 H 0.1555 0.1997 0.7408
C26_6 C 0.15969(16) 0.16943(14) 0.79854(17)
C29_6 C 0.2277(2) 0.2318(2) 0.7503(2)
C30_6 C 0.23718(19) 0.21715(18) 0.7811(2)
O10_10 O 0.2500 0.2500 0.7325(2)
H14_6 H 0.2584 0.2207 0.7908
C51_6 C 0.2723(2) 0.2682(2) 0.7503(2)
C59_6 C 0.31694(16) 0.30887(15) 0.78256(17)
C60_6 C 0.28563(18) 0.30289(18) 0.7970(2)
C61_6 C 0.26282(19) 0.28285(18) 0.7811(2)
H37_6 H 0.2416 0.2793 0.7908
C62_6 C 0.34031(16) 0.33057(14) 0.79854(17)
C63_6 C 0.3242(2) 0.2954(2) 0.7517(2)
H38_6 H 0.3445 0.3003 0.7408
C64_6 C 0.3027(2) 0.2746(2) 0.7358(2)
H39_6 H 0.3092 0.2651 0.7153
H40_6 H 0.2796 0.3124 0.8177
C1_10 C 0.15711(17) 0.58636(16) 0.29203(19)
C2_10 C 0.17413(17) 0.56368(19) 0.2684(2)
C3_10 C 0.2029(2) 0.5483(2) 0.2774(3)
H1_10 H 0.2127 0.5519 0.2990
C4_10 C 0.2175(3) 0.5281(3) 0.2558(4)
H2_10 H 0.2370 0.5175 0.2623
C5_10 C 0.2026(2) 0.5231(3) 0.2232(4)
C6_10 C 0.1746(3) 0.5380(3) 0.2139(3)
H3_10 H 0.1645 0.5339 0.1926
C7_10 C 0.1604(2) 0.5594(3) 0.2357(3)
H4_10 H 0.1418 0.5710 0.2285
C8_10 C 0.2027(2) 0.4848(3) 0.1811(4)
C9_10 C 0.2134(3) 0.4798(3) 0.1481(4)
H5_10 H 0.2302 0.4919 0.1383
C10_10 C 0.1983(2) 0.4560(2) 0.1293(3)
H6_10 H 0.2064 0.4519 0.1070
C11_10 C 0.17233(17) 0.43830(19) 0.1421(2)
C12_10 C 0.1629(2) 0.4430(3) 0.1763(2)
H7_10 H 0.1468 0.4303 0.1865
C13_10 C 0.1778(3) 0.4670(4) 0.1960(3)
H8_10 H 0.1708 0.4707 0.2186
C14_10 C 0.15527(15) 0.41553(14) 0.12006(17)
O3_10 O 0.22115(17) 0.5053(2) 0.1989(3)
C19_7 C 0.03563(18) 0.44711(18) 0.0470(2)
H10_7 H 0.0296 0.4376 0.0677
C22_7 C 0.06694(16) 0.44113(15) 0.03256(17)
C23_7 C 0.0742(2) 0.4546(2) 0.0017(2)
C26_7 C 0.09031(16) 0.41943(14) 0.04854(17)
C29_7 C 0.0223(2) 0.4818(2) 0.0003(2)
C30_7 C 0.01282(19) 0.46715(18) 0.0311(2)
H37_7 H 0.0084 0.5293 0.0408
C21_7 C 0.0527(2) 0.4754(2) 0.9858(2)
H11_7 H 0.0592 0.4849 0.9653
H12_7 H 0.0945 0.4497 0.9908
O10_11 O 0.0000 0.5000 0.9825(2)
H14_7 H 0.9916 0.4707 0.0408
C51_7 C 0.9777(2) 0.5182(2) 0.0003(2)
C59_7 C 0.93306(16) 0.55887(15) 0.03256(17)
C60_7 C 0.96437(18) 0.55289(18) 0.0470(2)
C61_7 C 0.98718(19) 0.53285(18) 0.0311(2)
C62_7 C 0.90969(16) 0.58057(14) 0.04854(17)
C63_7 C 0.9258(2) 0.5454(2) 0.0017(2)
H40_7 H 0.9704 0.5624 0.0677
O10_12 O 1.0000 0.5000 0.9825(2)
H38_7 H 0.9055 0.5503 0.9908
C64_7 C 0.9473(2) 0.5246(2) 0.9858(2)
H39_7 H 0.9408 0.5151 0.9653
C19_8 C 0.21437(18) 0.69711(18) 0.2970(2)
H10_8 H 0.2204 0.6876 0.3177
C21_8 C 0.1973(2) 0.7254(2) 0.2358(2)
H11_8 H 0.1908 0.7349 0.2153
C22_8 C 0.18306(16) 0.69113(15) 0.28256(17)
C23_8 C 0.1758(2) 0.7046(2) 0.2517(2)
H12_8 H 0.1555 0.6997 0.2408
C26_8 C 0.15969(16) 0.66943(14) 0.29854(17)
C29_8 C 0.2277(2) 0.7318(2) 0.2503(2)
C30_8 C 0.23718(19) 0.71715(18) 0.2811(2)
O10_13 O 0.2500 0.7500 0.2325(2)
H14_8 H 0.2584 0.7207 0.2908
C51_8 C 0.2723(2) 0.7682(2) 0.2503(2)
C59_8 C 0.31694(16) 0.80887(15) 0.28256(17)
C60_8 C 0.28563(18) 0.80289(18) 0.2970(2)
C61_8 C 0.26282(19) 0.78285(18) 0.2811(2)
H37_8 H 0.2416 0.7793 0.2908
C62_8 C 0.34031(16) 0.83057(14) 0.29854(17)
C63_8 C 0.3242(2) 0.7954(2) 0.2517(2)
H38_8 H 0.3445 0.8003 0.2408
C64_8 C 0.3027(2) 0.7746(2) 0.2358(2)
H39_8 H 0.3092 0.7651 0.2153
H40_8 H 0.2796 0.8124 0.3177
C96 C 0.0689(3) 0.0025(3) 0.2937(3)
H63 H 0.1154 0.0035 0.2260
C102 C 0.0798(3) 0.0111(3) 0.2617(3)
H64 H 0.0522 0.0140 0.3049
O38 O 0.0649(2) 0.0373(2) 0.2483(2)
C106 C 0.3132(2) 0.0092(2) 0.4058(2)
C107 C 0.0789(2) 0.0490(2) 0.21744(18)
C113 C 0.3468(2) 0.0148(2) 0.4159(2)
C114 C 0.2978(2) 0.0260(2) 0.3791(3)
C115 C 0.1085(2) 0.0663(2) 0.21886(15)
C116 C 0.06182(18) 0.04545(18) 0.1861(2)
H73 H 0.3570 0.0037 0.4337
C123 C 0.36420(19) 0.03787(19) 0.3979(2)
C124 C 0.3151(2) 0.0495(2) 0.3612(3)
H74 H 0.2755 0.0215 0.3730
H75 H 0.1199 0.0687 0.2398
C125 C 0.12096(17) 0.08014(18) 0.18897(19)
C126 C 0.07432(19) 0.05924(19) 0.15625(17)
H76 H 0.0420 0.0338 0.1852
H83 H 0.3868 0.0416 0.4036
C131 C 0.34921(17) 0.05551(17) 0.3716(2)
H84 H 0.3048 0.0605 0.3435
H85 H 0.1407 0.0917 0.1899
C132 C 0.10389(17) 0.07659(16) 0.15767(15)
H86 H 0.0629 0.0569 0.1353
C135 C 0.36733(17) 0.08102(17) 0.35397(18)
C136 C 0.1187(3) 0.09104(18) 0.1254(2)
O43 O 0.35148(13) 0.09701(12) 0.33280(14)
O44 O 0.39857(11) 0.08433(11) 0.36218(12)
O45 O 0.14559(18) 0.10365(15) 0.12690(17)
O46 O 0.09947(16) 0.09013(13) 0.09877(15)
Co20 Co 0.37071(2) 0.13524(2) 0.31024(2)
Co21 Co 0.42997(2) 0.11917(2) 0.34800(2)
Co22 Co 0.17997(2) 0.13083(2) 0.09800(2)
Co23 Co 0.12071(2) 0.11476(2) 0.06024(2)
Co13 Co 0.16307(2) 0.87898(2) 0.31144(2)
O27 O 0.12442(13) 0.85481(13) 0.29057(16)
O28 O 0.17471(16) 0.84325(12) 0.34168(14)
O29 O 0.19198(13) 0.90515(11) 0.34521(13)
O30 O 0.14430(15) 0.91810(12) 0.29318(14)
N15 N 0.20250(14) 0.87085(13) 0.27594(14)
C73 C 0.09915(19) 0.85168(17) 0.3096(2)
C74 C 0.16455(19) 0.83518(15) 0.3711(2)
C75 C 0.18783(16) 0.91712(15) 0.37413(19)
C76 C 0.1219(2) 0.93191(17) 0.3097(2)
C77 C 0.0693(2) 0.83313(16) 0.2946(2)
O31 O 0.09568(13) 0.86210(12) 0.33932(14)
C78 C 0.17814(18) 0.80497(16) 0.38357(18)
O32 O 0.14623(14) 0.85086(11) 0.39049(13)
C79 C 0.21592(16) 0.93645(15) 0.38791(18)
O33 O 0.16114(11) 0.91472(10) 0.39256(12)
C80 C 0.1073(2) 0.96072(19) 0.2938(2)
O34 O 0.10996(13) 0.92525(11) 0.33978(12)
C81 C 0.0700(2) 0.8240(2) 0.2602(2)
C82 C 0.0424(2) 0.8262(2) 0.3155(2)
Co14 Co 0.12361(2) 0.88914(2) 0.37208(2)
C83 C 0.1961(2) 0.78581(17) 0.3611(2)
C84 C 0.1721(2) 0.79443(16) 0.41714(19)
C85 C 0.21339(19) 0.95263(16) 0.41874(19)
C86 C 0.24617(18) 0.93829(18) 0.3690(2)
C87 C 0.1180(2) 0.9694(2) 0.2618(2)
C88 C 0.0821(3) 0.9773(2) 0.3095(3)
H49 H 0.0876 0.8302 0.2458
C89 C 0.0442(3) 0.8057(3) 0.2474(2)
C90 C 0.0156(2) 0.8082(2) 0.3017(3)
H50 H 0.0417 0.8331 0.3383
N16 N 0.08428(13) 0.89557(12) 0.40878(13)
H51 H 0.2005 0.7923 0.3385
C91 C 0.2071(2) 0.75868(19) 0.3713(2)
C92 C 0.1851(2) 0.76614(17) 0.4282(2)
H52 H 0.1593 0.8063 0.4323
H53 H 0.1935 0.9515 0.4316
C93 C 0.2405(2) 0.97077(19) 0.4309(2)
C94 C 0.2733(2) 0.9572(2) 0.3815(2)
H54 H 0.2487 0.9273 0.3485
H55 H 0.1336 0.9574 0.2500
C95 C 0.1058(3) 0.9962(3) 0.2464(3)
H56 H 0.0739 0.9713 0.3311
H57 H 0.0453 0.7980 0.2249
C97 C 0.0162(2) 0.7987(2) 0.2690(2)
C98 C 0.05171(18) 0.9011(2) 0.40029(17)
C99 C 0.08925(18) 0.8902(2) 0.44315(17)
H59 H 0.2181 0.7460 0.3555
C100 C 0.2026(2) 0.74859(17) 0.4050(2)
H60 H 0.1819 0.7595 0.4509
H61 H 0.2388 0.9814 0.4517
C101 C 0.2689(2) 0.97228(19) 0.4115(2)
H62 H 0.2934 0.9589 0.3692
N17 N 0.04475(19) 0.9093(3) 0.36759(18)
N18 N 0.02552(14) 0.90016(17) 0.42213(15)
N19 N 0.12041(16) 0.8875(3) 0.45489(17)
N20 N 0.06464(14) 0.88735(16) 0.46672(15)
O36 O 0.21750(17) 0.72136(14) 0.41302(16)
O37 O 0.29559(18) 0.98897(17) 0.42619(16)
H65 H 0.0242 0.9136 0.3617
H66 H 0.0608 0.9103 0.3525
C104 C 0.03365(16) 0.89192(16) 0.45457(16)
H67 H 0.1239 0.8842 0.4766
H68 H 0.1373 0.8892 0.4409
C105 C 0.2082(2) 0.70677(17) 0.4443(2)
C110 C 0.00510(17) 0.88878(15) 0.47981(16)
C111 C 0.2296(2) 0.70580(19) 0.4712(3)
C112 C 0.1801(2) 0.6909(2) 0.4445(3)
H70 H 0.0153 0.7440 0.2968
C120 C 0.01094(18) 0.8766(2) 0.51204(18)
H71 H 0.2501 0.7163 0.4699
C121 C 0.22200(19) 0.68939(16) 0.5014(2)
C122 C 0.1711(2) 0.6749(2) 0.4752(2)
H72 H 0.1662 0.6902 0.4250
H80 H 0.0328 0.8710 0.5186
H81 H 0.2371 0.6890 0.5200
C130 C 0.19214(16) 0.67407(14) 0.50311(16)
H82 H 0.1504 0.6648 0.4762
C134 C 0.18169(18) 0.65586(15) 0.53432(18)
O41 O 0.15422(13) 0.64272(12) 0.53350(14)
O42 O 0.20239(12) 0.65516(11) 0.55977(12)
N21 N 0.08621(13) 0.61276(13) 0.51969(14)
N22 N 0.21731(13) 0.63447(13) 0.63723(14)
C137 C 0.25012(16) 0.62693(16) 0.63199(17)
C138 C 0.21026(19) 0.6438(3) 0.6701(2)
N23 N 0.25949(14) 0.61712(18) 0.60089(15)
N24 N 0.27490(13) 0.62771(14) 0.65607(14)
N25 N 0.17849(19) 0.6535(3) 0.6780(2)
N26 N 0.23292(16) 0.6448(2) 0.69608(16)
H89 H 0.2802 0.6118 0.5972
H90 H 0.2448 0.6161 0.5844
C139 C 0.26409(17) 0.63615(18) 0.68730(17)
H91 H 0.1739 0.6598 0.6986
H92 H 0.1629 0.6534 0.6624
C140 C 0.28921(17) 0.6365(2) 0.71579(17)
C141 C 0.32332(17) 0.63642(18) 0.70983(19)
C142 C 0.2789(2) 0.6351(4) 0.7495(2)
H93 H 0.3315 0.6355 0.6872
C143 C 0.34548(18) 0.63768(17) 0.73702(18)
C144 C 0.30312(19) 0.6371(3) 0.7761(2)
H94 H 0.2560 0.6327 0.7548
H95 H 0.3686 0.6389 0.7321
H96 H 0.2957 0.6384 0.7990
Co18 Co 0.12071(2) 0.61476(2) 0.56024(2)
Co19 Co 0.17997(2) 0.63083(2) 0.59800(2)
O47 O 0.14970(12) 0.57944(11) 0.54449(13)
O48 O 0.10148(13) 0.65299(12) 0.58280(14)
O49 O 0.09947(16) 0.59013(13) 0.59877(15)
O50 O 0.19518(11) 0.59075(11) 0.57617(14)
O51 O 0.14857(11) 0.66567(11) 0.61218(12)
O52 O 0.14559(18) 0.60365(15) 0.62690(17)
N28 N 0.33621(13) 0.63724(13) 0.76969(14)
Co24 Co 0.37071(2) 0.63524(2) 0.81024(2)
H58 H 0.9973 0.8030 0.3158
O35 O 0.98987(19) 0.78401(16) 0.25378(18)
C103 C 0.9764(2) 0.7570(2) 0.2693(2)
C108 C 0.9444(2) 0.75002(19) 0.2572(2)
C109 C 0.9932(2) 0.73912(19) 0.2905(3)
H69 H 0.9332 0.7628 0.2416
C117 C 0.9291(2) 0.72265(18) 0.2695(2)
C118 C 0.97770(19) 0.71225(18) 0.3037(3)
C119 C 0.9728(2) 0.8974(3) 0.4715(2)
H77 H 0.9076 0.7171 0.2619
C127 C 0.94612(17) 0.70452(15) 0.29232(18)
H78 H 0.9889 0.7001 0.3199
H79 H 0.9678 0.9060 0.4500
C128 C 0.9472(2) 0.8928(2) 0.4969(2)
C129 C 0.98436(19) 0.8728(2) 0.5345(2)
C133 C 0.92930(16) 0.67586(14) 0.30537(18)
H87 H 0.9254 0.9001 0.4924
H88 H 0.9888 0.8654 0.5567
O39 O 0.89970(12) 0.67056(11) 0.29449(13)
O40 O 0.94518(11) 0.65925(11) 0.32617(14)
Co15 Co 0.87071(2) 0.63524(2) 0.31024(2)
Co16 Co 0.92997(2) 0.61917(2) 0.34800(2)
N27 N 0.95250(14) 0.87915(13) 0.52594(14)
Co17 Co 0.91307(2) 0.87102(2) 0.56144(2)
C144_2 C 0.55312(19) 0.6129(3) 0.0261(2)
H94_2 H 0.5060 0.6173 0.0048
H96_2 H 0.5457 0.6116 0.0490
N28_2 N 0.58621(13) 0.61276(13) 0.01969(14)
Co24_2 Co 0.62071(2) 0.61476(2) 0.06024(2)
Co13_2 Co 0.41307(2) 0.37102(2) 0.56144(2)
O27_2 O 0.37442(13) 0.39519(13) 0.54057(16)
O28_2 O 0.42471(16) 0.40675(12) 0.59168(14)
O29_2 O 0.44198(13) 0.34485(11) 0.59521(13)
O30_2 O 0.39430(15) 0.33190(12) 0.54318(14)
N15_2 N 0.45250(14) 0.37915(13) 0.52594(14)
C73_2 C 0.34915(19) 0.39832(17) 0.5596(2)
C74_2 C 0.41455(19) 0.41482(15) 0.6211(2)
C75_2 C 0.43783(16) 0.33288(15) 0.62413(19)
C76_2 C 0.3719(2) 0.31809(17) 0.5597(2)
C77_2 C 0.3193(2) 0.41687(16) 0.5446(2)
O31_2 O 0.34568(13) 0.38790(12) 0.58932(14)
C78_2 C 0.42814(18) 0.44503(16) 0.63357(18)
O32_2 O 0.39623(14) 0.39914(11) 0.64049(13)
C79_2 C 0.46592(16) 0.31355(15) 0.63791(18)
O33_2 O 0.41114(11) 0.33528(10) 0.64256(12)
C80_2 C 0.3573(2) 0.28928(19) 0.5438(2)
O34_2 O 0.35996(13) 0.32475(11) 0.58978(12)
C81_2 C 0.3200(2) 0.4260(2) 0.5102(2)
C82_2 C 0.2924(2) 0.4238(2) 0.5655(2)
Co14_2 Co 0.37361(2) 0.36086(2) 0.62208(2)
C83_2 C 0.4461(2) 0.46419(17) 0.6111(2)
C84_2 C 0.4221(2) 0.45557(16) 0.66714(19)
C85_2 C 0.46339(19) 0.29737(16) 0.66874(19)
C86_2 C 0.49617(18) 0.31171(18) 0.6190(2)
C87_2 C 0.3680(2) 0.2806(2) 0.5118(2)
C88_2 C 0.3321(3) 0.2727(2) 0.5595(3)
H49_2 H 0.3376 0.4198 0.4958
C89_2 C 0.2942(3) 0.4443(3) 0.4974(2)
C90_2 C 0.2656(2) 0.4418(2) 0.5517(3)
H50_2 H 0.2917 0.4169 0.5883
N16_2 N 0.33428(13) 0.35443(12) 0.65878(13)
H51_2 H 0.4505 0.4577 0.5885
C91_2 C 0.4571(2) 0.49132(19) 0.6213(2)
C92_2 C 0.4351(2) 0.48386(17) 0.6782(2)
H52_2 H 0.4093 0.4437 0.6823
H53_2 H 0.4435 0.2985 0.6816
C93_2 C 0.4905(2) 0.27923(19) 0.6809(2)
C94_2 C 0.5233(2) 0.2928(2) 0.6315(2)
H54_2 H 0.4987 0.3227 0.5985
H55_2 H 0.3836 0.2926 0.5000
C95_2 C 0.3558(3) 0.2538(3) 0.4964(3)
C96_2 C 0.3189(3) 0.2475(3) 0.5437(3)
H56_2 H 0.3239 0.2787 0.5811
H57_2 H 0.2953 0.4520 0.4749
C97_2 C 0.2662(2) 0.4513(2) 0.5190(2)
H58_2 H 0.2473 0.4470 0.5658
C98_2 C 0.30171(18) 0.3489(2) 0.65029(17)
C99_2 C 0.33925(18) 0.3598(2) 0.69315(17)
H59_2 H 0.4681 0.5040 0.6055
C100_2 C 0.4526(2) 0.50141(17) 0.6550(2)
H60_2 H 0.4319 0.4905 0.7009
H61_2 H 0.4888 0.2686 0.7017
C101_2 C 0.5189(2) 0.27772(19) 0.6615(2)
H62_2 H 0.5434 0.2911 0.6192
H63_2 H 0.3654 0.2465 0.4760
C102_2 C 0.3298(3) 0.2389(3) 0.5117(3)
H64_2 H 0.3022 0.2360 0.5549
O35_2 O 0.23987(19) 0.46599(16) 0.50378(18)
N17_2 N 0.29475(19) 0.3407(3) 0.61759(18)
N18_2 N 0.27552(14) 0.34984(17) 0.67213(15)
N19_2 N 0.37041(16) 0.3625(3) 0.70489(17)
N20_2 N 0.31464(14) 0.36265(16) 0.71672(15)
O36_2 O 0.46750(17) 0.52864(14) 0.66302(16)
O37_2 O 0.54559(18) 0.26103(17) 0.67619(16)
O38_2 O 0.3149(2) 0.2127(2) 0.4983(2)
C103_2 C 0.2264(2) 0.4930(2) 0.5193(2)
H65_2 H 0.2742 0.3364 0.6117
H66_2 H 0.3108 0.3397 0.6025
C104_2 C 0.28365(16) 0.35808(16) 0.70457(16)
H67_2 H 0.3739 0.3658 0.7266
H68_2 H 0.3873 0.3608 0.6909
C105_2 C 0.4582(2) 0.54323(17) 0.6943(2)
C106_2 C 0.5632(2) 0.2408(2) 0.6558(2)
C107_2 C 0.3289(2) 0.2010(2) 0.46744(18)
C108_2 C 0.1944(2) 0.49998(19) 0.5072(2)
C109_2 C 0.2432(2) 0.51088(19) 0.5405(3)
C110_2 C 0.25510(17) 0.36122(15) 0.72981(16)
C111_2 C 0.4796(2) 0.54420(19) 0.7212(3)
C112_2 C 0.4301(2) 0.5591(2) 0.6945(3)
C113_2 C 0.5968(2) 0.2352(2) 0.6659(2)
C114_2 C 0.5478(2) 0.2240(2) 0.6291(3)
C115_2 C 0.3585(2) 0.1837(2) 0.46886(15)
C116_2 C 0.31182(18) 0.20455(18) 0.4361(2)
H69_2 H 0.1832 0.4872 0.4916
C117_2 C 0.1791(2) 0.52735(18) 0.5195(2)
C118_2 C 0.22770(19) 0.53775(18) 0.5537(3)
H70_2 H 0.2653 0.5060 0.5468
C119_2 C 0.2228(2) 0.3526(3) 0.7215(2)
C120_2 C 0.26094(18) 0.3734(2) 0.76204(18)
H71_2 H 0.5001 0.5337 0.7199
C121_2 C 0.47200(19) 0.56061(16) 0.7514(2)
C122_2 C 0.4211(2) 0.5751(2) 0.7252(2)
H72_2 H 0.4162 0.5598 0.6750
H73_2 H 0.6070 0.2463 0.6837
C123_2 C 0.61420(19) 0.21213(19) 0.6479(2)
C124_2 C 0.5651(2) 0.2005(2) 0.6112(3)
H74_2 H 0.5255 0.2285 0.6230
H75_2 H 0.3699 0.1813 0.4898
C125_2 C 0.37096(17) 0.16986(18) 0.43897(19)
C126_2 C 0.32432(19) 0.19076(19) 0.40625(17)
H76_2 H 0.2920 0.2162 0.4352
H77_2 H 0.1576 0.5329 0.5119
C127_2 C 0.19612(17) 0.54548(15) 0.54232(18)
H78_2 H 0.2389 0.5499 0.5699
H79_2 H 0.2178 0.3440 0.7000
C128_2 C 0.1972(2) 0.3572(2) 0.7469(2)
H80_2 H 0.2828 0.3790 0.7686
C129_2 C 0.23436(19) 0.3772(2) 0.7845(2)
H81_2 H 0.4871 0.5610 0.7700
C130_2 C 0.44214(16) 0.57593(14) 0.75311(16)
H82_2 H 0.4004 0.5852 0.7262
H83_2 H 0.6368 0.2084 0.6536
C131_2 C 0.59921(17) 0.19449(17) 0.6216(2)
H84_2 H 0.5548 0.1895 0.5935
H85_2 H 0.3907 0.1583 0.4399
C132_2 C 0.35389(17) 0.17341(16) 0.40767(15)
H86_2 H 0.3129 0.1931 0.3853
C133_2 C 0.17930(16) 0.57414(14) 0.55537(18)
H87_2 H 0.1754 0.3499 0.7424
H88_2 H 0.2388 0.3846 0.8067
C134_2 C 0.43169(18) 0.59414(15) 0.78432(18)
C135_2 C 0.61733(17) 0.16898(17) 0.60397(18)
C136_2 C 0.3687(3) 0.15896(18) 0.3754(2)
O41_2 O 0.40422(13) 0.60728(12) 0.78350(14)
O42_2 O 0.45239(12) 0.59484(11) 0.80977(12)
O43_2 O 0.60148(13) 0.15299(12) 0.58280(14)
O44_2 O 0.64857(11) 0.16567(11) 0.61218(12)
O45_2 O 0.39559(18) 0.14635(15) 0.37690(17)
O46_2 O 0.34947(16) 0.15987(13) 0.34877(15)
N22_2 N 0.46731(13) 0.61553(13) 0.88723(14)
C137_2 C 0.50012(16) 0.62307(16) 0.88199(17)
C138_2 C 0.46026(19) 0.6062(3) 0.9201(2)
N23_2 N 0.50949(14) 0.63288(18) 0.85089(15)
N24_2 N 0.52490(13) 0.62229(14) 0.90607(14)
N25_2 N 0.42849(19) 0.5965(3) 0.9280(2)
N26_2 N 0.48292(16) 0.6052(2) 0.94608(16)
H89_2 H 0.5302 0.6382 0.8472
H90_2 H 0.4948 0.6339 0.8344
C139_2 C 0.51409(17) 0.61385(18) 0.93730(17)
H91_2 H 0.4239 0.5902 0.9486
H92_2 H 0.4129 0.5966 0.9124
C140_2 C 0.53921(17) 0.6135(2) 0.96579(17)
C141_2 C 0.57332(17) 0.61358(18) 0.95983(19)
C142_2 C 0.5289(2) 0.6149(4) 0.9995(2)
H93_2 H 0.5815 0.6145 0.9372
C143_2 C 0.59548(18) 0.61232(17) 0.98702(18)
H95_2 H 0.6186 0.6111 0.9821
N27_2 N 0.20250(14) 0.37085(13) 0.77594(14)
Co17_2 Co 0.16307(2) 0.37898(2) 0.81144(2)
Co19_2 Co 0.42997(2) 0.61917(2) 0.84800(2)
Co20_2 Co 0.62071(2) 0.11476(2) 0.56024(2)
Co21_2 Co 0.67997(2) 0.13083(2) 0.59800(2)
O47_2 O 0.39970(12) 0.67056(11) 0.79449(13)
O48_2 O 0.35148(13) 0.59701(12) 0.83280(14)
O49_2 O 0.34947(16) 0.65987(13) 0.84877(15)
O50_2 O 0.44518(11) 0.65925(11) 0.82617(14)
O51_2 O 0.39857(11) 0.58433(11) 0.86218(12)
O52_2 O 0.39559(18) 0.64635(15) 0.87690(17)
C120_3 C 0.01094(18) 0.3766(2) 0.01204(18)
C121_3 C 0.22200(19) 0.18939(16) 0.0014(2)
H80_3 H 0.0328 0.3710 0.0186
H81_3 H 0.2371 0.1890 0.0200
C130_3 C 0.19214(16) 0.17407(14) 0.00311(16)
C134_3 C 0.18169(18) 0.15586(15) 0.03432(18)
O41_3 O 0.15422(13) 0.14272(12) 0.03350(14)
O42_3 O 0.20239(12) 0.15516(11) 0.05977(12)
N21_2 N 0.08621(13) 0.11276(13) 0.01969(14)
N22_3 N 0.21731(13) 0.13447(13) 0.13723(14)
C137_3 C 0.25012(16) 0.12693(16) 0.13199(17)
C138_3 C 0.21026(19) 0.1438(3) 0.1701(2)
N23_3 N 0.25949(14) 0.11712(18) 0.10089(15)
N24_3 N 0.27490(13) 0.12771(14) 0.15607(14)
N25_3 N 0.17849(19) 0.1535(3) 0.1780(2)
N26_3 N 0.23292(16) 0.1448(2) 0.19608(16)
H89_3 H 0.2802 0.1118 0.0972
H90_3 H 0.2448 0.1161 0.0844
C139_3 C 0.26409(17) 0.13615(18) 0.18730(17)
H91_3 H 0.1739 0.1598 0.1986
H92_3 H 0.1629 0.1534 0.1624
C140_3 C 0.28921(17) 0.1365(2) 0.21579(17)
C141_3 C 0.32332(17) 0.13642(18) 0.20983(19)
C142_3 C 0.2789(2) 0.1351(4) 0.2495(2)
H93_3 H 0.3315 0.1355 0.1872
C143_3 C 0.34548(18) 0.13768(17) 0.23702(18)
C144_3 C 0.30312(19) 0.1371(3) 0.2761(2)
H94_3 H 0.2560 0.1327 0.2548
H95_3 H 0.3686 0.1389 0.2321
H96_3 H 0.2957 0.1384 0.2990
O47_3 O 0.14970(12) 0.07944(11) 0.04449(13)
O48_3 O 0.10148(13) 0.15299(12) 0.08280(14)
O50_3 O 0.19518(11) 0.09075(11) 0.07617(14)
O51_3 O 0.14857(11) 0.16567(11) 0.11218(12)
N28_3 N 0.33621(13) 0.13724(13) 0.26969(14)
O27_3 O 0.12442(13) 0.35481(13) 0.79057(16)
O28_3 O 0.17471(16) 0.34325(12) 0.84168(14)
O29_3 O 0.19198(13) 0.40515(11) 0.84521(13)
O30_3 O 0.14430(15) 0.41810(12) 0.79318(14)
C73_3 C 0.09915(19) 0.35168(17) 0.8096(2)
C74_3 C 0.16455(19) 0.33518(15) 0.8711(2)
C75_3 C 0.18783(16) 0.41712(15) 0.87413(19)
C76_3 C 0.1219(2) 0.43191(17) 0.8097(2)
C77_3 C 0.0693(2) 0.33313(16) 0.7946(2)
O31_3 O 0.09568(13) 0.36210(12) 0.83932(14)
C78_3 C 0.17814(18) 0.30497(16) 0.88357(18)
O32_3 O 0.14623(14) 0.35086(11) 0.89049(13)
C79_3 C 0.21592(16) 0.43645(15) 0.88791(18)
O33_3 O 0.16114(11) 0.41472(10) 0.89256(12)
C80_3 C 0.1073(2) 0.46072(19) 0.7938(2)
O34_3 O 0.10996(13) 0.42525(11) 0.83978(12)
C81_3 C 0.0700(2) 0.3240(2) 0.7602(2)
C82_3 C 0.0424(2) 0.3262(2) 0.8155(2)
Co14_3 Co 0.12361(2) 0.38914(2) 0.87208(2)
C83_3 C 0.1961(2) 0.28581(17) 0.8611(2)
C84_3 C 0.1721(2) 0.29443(16) 0.91714(19)
C85_3 C 0.21339(19) 0.45263(16) 0.91874(19)
C86_3 C 0.24617(18) 0.43829(18) 0.8690(2)
C87_3 C 0.1180(2) 0.4694(2) 0.7618(2)
C88_3 C 0.0821(3) 0.4773(2) 0.8095(3)
H49_3 H 0.0876 0.3302 0.7458
C89_3 C 0.0442(3) 0.3057(3) 0.7474(2)
C90_3 C 0.0156(2) 0.3082(2) 0.8017(3)
H50_3 H 0.0417 0.3331 0.8383
N16_3 N 0.08428(13) 0.39557(12) 0.90878(13)
H51_3 H 0.2005 0.2923 0.8385
C91_3 C 0.2071(2) 0.25868(19) 0.8713(2)
C92_3 C 0.1851(2) 0.26614(17) 0.9282(2)
H52_3 H 0.1593 0.3063 0.9323
H53_3 H 0.1935 0.4515 0.9316
C93_3 C 0.2405(2) 0.47077(19) 0.9309(2)
C94_3 C 0.2733(2) 0.4572(2) 0.8815(2)
H54_3 H 0.2487 0.4273 0.8485
H55_3 H 0.1336 0.4574 0.7500
C95_3 C 0.1058(3) 0.4962(3) 0.7464(3)
C96_3 C 0.0689(3) 0.5025(3) 0.7937(3)
H56_3 H 0.0739 0.4713 0.8311
H57_3 H 0.0453 0.2980 0.7249
C97_3 C 0.0162(2) 0.2987(2) 0.7690(2)
C98_3 C 0.05171(18) 0.4011(2) 0.90029(17)
C99_3 C 0.08925(18) 0.3902(2) 0.94315(17)
H59_3 H 0.2181 0.2460 0.8555
C100_3 C 0.2026(2) 0.24859(17) 0.9050(2)
H60_3 H 0.1819 0.2595 0.9509
H61_3 H 0.2388 0.4814 0.9517
C101_3 C 0.2689(2) 0.47228(19) 0.9115(2)
H62_3 H 0.2934 0.4589 0.8692
H63_3 H 0.1154 0.5035 0.7260
C102_3 C 0.0798(3) 0.5111(3) 0.7617(3)
H64_3 H 0.0522 0.5140 0.8049
N17_3 N 0.04475(19) 0.4093(3) 0.86759(18)
N18_3 N 0.02552(14) 0.40016(17) 0.92213(15)
N19_3 N 0.12041(16) 0.3875(3) 0.95489(17)
N20_3 N 0.06464(14) 0.38735(16) 0.96672(15)
O36_3 O 0.21750(17) 0.22136(14) 0.91302(16)
O37_3 O 0.29559(18) 0.48897(17) 0.92619(16)
O38_3 O 0.0649(2) 0.5373(2) 0.7483(2)
H65_3 H 0.0242 0.4136 0.8617
H66_3 H 0.0608 0.4103 0.8525
C104_3 C 0.03365(16) 0.39192(16) 0.95457(16)
H67_3 H 0.1239 0.3842 0.9766
H68_3 H 0.1373 0.3892 0.9409
C105_3 C 0.2082(2) 0.20677(17) 0.9443(2)
C106_3 C 0.3132(2) 0.5092(2) 0.9058(2)
C107_3 C 0.0789(2) 0.5490(2) 0.71744(18)
C110_3 C 0.00510(17) 0.38878(15) 0.97981(16)
C111_3 C 0.2296(2) 0.20580(19) 0.9712(3)
C112_3 C 0.1801(2) 0.1909(2) 0.9445(3)
C113_3 C 0.3468(2) 0.5148(2) 0.9159(2)
C114_3 C 0.2978(2) 0.5260(2) 0.8791(3)
C115_3 C 0.1085(2) 0.5663(2) 0.71886(15)
C116_3 C 0.06182(18) 0.54545(18) 0.6861(2)
H70_3 H 0.0153 0.2440 0.7968
H71_3 H 0.2501 0.2163 0.9699
C122_3 C 0.1711(2) 0.1749(2) 0.9752(2)
H72_3 H 0.1662 0.1902 0.9250
H73_3 H 0.3570 0.5037 0.9337
C123_3 C 0.36420(19) 0.53787(19) 0.8979(2)
C124_3 C 0.3151(2) 0.5495(2) 0.8612(3)
H74_3 H 0.2755 0.5215 0.8730
H75_3 H 0.1199 0.5687 0.7398
C125_3 C 0.12096(17) 0.58014(18) 0.68897(19)
C126_3 C 0.07432(19) 0.55924(19) 0.65625(17)
H76_3 H 0.0420 0.5338 0.6852
H82_3 H 0.1504 0.1648 0.9762
H83_3 H 0.3868 0.5416 0.9036
C131_3 C 0.34921(17) 0.55551(17) 0.8716(2)
H84_3 H 0.3048 0.5605 0.8435
H85_3 H 0.1407 0.5917 0.6899
C132_3 C 0.10389(17) 0.57659(16) 0.65767(15)
H86_3 H 0.0629 0.5569 0.6353
C135_3 C 0.36733(17) 0.58102(17) 0.85397(18)
C136_3 C 0.1187(3) 0.59104(18) 0.6254(2)
C129_3 C 0.98436(19) 0.3728(2) 0.0345(2)
H88_3 H 0.9888 0.3654 0.0567
N27_3 N 0.95250(14) 0.37915(13) 0.02594(14)
Co17_3 Co 0.91307(2) 0.37102(2) 0.06144(2)
H58_3 H 0.9973 0.3030 0.8158
O35_3 O 0.98987(19) 0.28401(16) 0.75378(18)
C103_3 C 0.9764(2) 0.2570(2) 0.7693(2)
C108_3 C 0.9444(2) 0.25002(19) 0.7572(2)
C109_3 C 0.9932(2) 0.23912(19) 0.7905(3)
H69_3 H 0.9332 0.2628 0.7416
C117_3 C 0.9291(2) 0.22265(18) 0.7695(2)
C118_3 C 0.97770(19) 0.21225(18) 0.8037(3)
C119_3 C 0.9728(2) 0.3974(3) 0.9715(2)
H77_3 H 0.9076 0.2171 0.7619
C127_3 C 0.94612(17) 0.20452(15) 0.79232(18)
H78_3 H 0.9889 0.2001 0.8199
H79_3 H 0.9678 0.4060 0.9500
C128_3 C 0.9472(2) 0.3928(2) 0.9969(2)
C133_3 C 0.92930(16) 0.17586(14) 0.80537(18)
H87_3 H 0.9254 0.4001 0.9924
O39_2 O 0.89970(12) 0.17056(11) 0.79449(13)
O40_2 O 0.94518(11) 0.15925(11) 0.82617(14)
Co15_2 Co 0.87071(2) 0.13524(2) 0.81024(2)
Co16_2 Co 0.92997(2) 0.11917(2) 0.84800(2)
H59_4 H 0.4681 0.0040 0.1055
C100_4 C 0.4526(2) 0.00141(17) 0.1550(2)
O36_4 O 0.46750(17) 0.02864(14) 0.16302(16)
C105_4 C 0.4582(2) 0.04323(17) 0.1943(2)
C108_4 C 0.1944(2) -0.00002(19) 0.0072(2)
C109_4 C 0.2432(2) 0.01088(19) 0.0405(3)
C111_4 C 0.4796(2) 0.04420(19) 0.2212(3)
C112_4 C 0.4301(2) 0.0591(2) 0.1945(3)
C117_4 C 0.1791(2) 0.02735(18) 0.0195(2)
C118_4 C 0.22770(19) 0.03775(18) 0.0537(3)
H70_4 H 0.2653 0.0060 0.0468
H71_4 H 0.5001 0.0337 0.2199
C121_4 C 0.47200(19) 0.06061(16) 0.2514(2)
C122_4 C 0.4211(2) 0.0751(2) 0.2252(2)
H72_4 H 0.4162 0.0598 0.1750
H77_4 H 0.1576 0.0329 0.0119
C127_4 C 0.19612(17) 0.04548(15) 0.04232(18)
H78_4 H 0.2389 0.0499 0.0699
H81_4 H 0.4871 0.0610 0.2700
C130_4 C 0.44214(16) 0.07593(14) 0.25311(16)
H82_4 H 0.4004 0.0852 0.2262
C133_4 C 0.17930(16) 0.07414(14) 0.05537(18)
C134_4 C 0.43169(18) 0.09414(15) 0.28432(18)
O41_4 O 0.40422(13) 0.10728(12) 0.28350(14)
O42_4 O 0.45239(12) 0.09484(11) 0.30977(12)
N22_4 N 0.46731(13) 0.11553(13) 0.38723(14)
C137_4 C 0.50012(16) 0.12307(16) 0.38199(17)
C138_4 C 0.46026(19) 0.1062(3) 0.4201(2)
N23_4 N 0.50949(14) 0.13288(18) 0.35089(15)
N24_4 N 0.52490(13) 0.12229(14) 0.40607(14)
N25_4 N 0.42849(19) 0.0965(3) 0.4280(2)
N26_4 N 0.48292(16) 0.1052(2) 0.44608(16)
H89_4 H 0.5302 0.1382 0.3472
H90_4 H 0.4948 0.1339 0.3344
C139_4 C 0.51409(17) 0.11385(18) 0.43730(17)
H91_4 H 0.4239 0.0902 0.4486
H92_4 H 0.4129 0.0966 0.4124
C140_4 C 0.53921(17) 0.1135(2) 0.46579(17)
C141_4 C 0.57332(17) 0.11358(18) 0.45983(19)
C142_4 C 0.5289(2) 0.1149(4) 0.4995(2)
H93_4 H 0.5815 0.1145 0.4372
C143_4 C 0.59548(18) 0.11232(17) 0.48702(18)
C144_4 C 0.55312(19) 0.1129(3) 0.5261(2)
H94_4 H 0.5060 0.1173 0.5048
H95_4 H 0.6186 0.1111 0.4821
H96_4 H 0.5457 0.1116 0.5490
O47_4 O 0.39970(12) 0.17056(11) 0.29449(13)
O50_4 O 0.44518(11) 0.15925(11) 0.32617(14)
N28_4 N 0.58621(13) 0.11276(13) 0.51969(14)
Co13_3 Co 0.41307(2) 0.87102(2) 0.06144(2)
O27_4 O 0.37442(13) 0.89519(13) 0.04057(16)
O28_4 O 0.42471(16) 0.90675(12) 0.09168(14)
O29_4 O 0.44198(13) 0.84485(11) 0.09521(13)
O30_4 O 0.39430(15) 0.83190(12) 0.04318(14)
N15_3 N 0.45250(14) 0.87915(13) 0.02594(14)
C73_4 C 0.34915(19) 0.89832(17) 0.0596(2)
C74_4 C 0.41455(19) 0.91482(15) 0.1211(2)
C75_4 C 0.43783(16) 0.83288(15) 0.12413(19)
C76_4 C 0.3719(2) 0.81809(17) 0.0597(2)
C77_4 C 0.3193(2) 0.91687(16) 0.0446(2)
O31_4 O 0.34568(13) 0.88790(12) 0.08932(14)
C78_4 C 0.42814(18) 0.94503(16) 0.13357(18)
O32_4 O 0.39623(14) 0.89914(11) 0.14049(13)
C79_4 C 0.46592(16) 0.81355(15) 0.13791(18)
O33_4 O 0.41114(11) 0.83528(10) 0.14256(12)
C80_4 C 0.3573(2) 0.78928(19) 0.0438(2)
O34_4 O 0.35996(13) 0.82475(11) 0.08978(12)
C81_4 C 0.3200(2) 0.9260(2) 0.0102(2)
C82_4 C 0.2924(2) 0.9238(2) 0.0655(2)
Co14_4 Co 0.37361(2) 0.86086(2) 0.12208(2)
C83_4 C 0.4461(2) 0.96419(17) 0.1111(2)
C84_4 C 0.4221(2) 0.95557(16) 0.16714(19)
C85_4 C 0.46339(19) 0.79737(16) 0.16874(19)
C86_4 C 0.49617(18) 0.81171(18) 0.1190(2)
C87_4 C 0.3680(2) 0.7806(2) 0.0118(2)
C88_4 C 0.3321(3) 0.7727(2) 0.0595(3)
C90_4 C 0.2656(2) 0.9418(2) 0.0517(3)
H50_4 H 0.2917 0.9169 0.0883
N16_4 N 0.33428(13) 0.85443(12) 0.15878(13)
H51_4 H 0.4505 0.9577 0.0885
C91_4 C 0.4571(2) 0.99132(19) 0.1213(2)
C92_4 C 0.4351(2) 0.98386(17) 0.1782(2)
H52_4 H 0.4093 0.9437 0.1823
H53_4 H 0.4435 0.7985 0.1816
C93_4 C 0.4905(2) 0.77923(19) 0.1809(2)
C94_4 C 0.5233(2) 0.7928(2) 0.1315(2)
H54_4 H 0.4987 0.8227 0.0985
H55_4 H 0.3836 0.7926 -0.0000
C96_4 C 0.3189(3) 0.7475(3) 0.0437(3)
H56_4 H 0.3239 0.7787 0.0811
C97_4 C 0.2662(2) 0.9513(2) 0.0190(2)
H58_4 H 0.2473 0.9470 0.0658
C98_4 C 0.30171(18) 0.8489(2) 0.15029(17)
C99_4 C 0.33925(18) 0.8598(2) 0.19315(17)
H60_4 H 0.4319 0.9905 0.2009
H61_4 H 0.4888 0.7686 0.2017
C101_4 C 0.5189(2) 0.77772(19) 0.1615(2)
H62_4 H 0.5434 0.7911 0.1192
C102_4 C 0.3298(3) 0.7389(3) 0.0117(3)
H64_4 H 0.3022 0.7360 0.0549
O35_4 O 0.23987(19) 0.96599(16) 0.00378(18)
N17_4 N 0.29475(19) 0.8407(3) 0.11759(18)
N18_4 N 0.27552(14) 0.84984(17) 0.17213(15)
N19_4 N 0.37041(16) 0.8625(3) 0.20489(17)
N20_4 N 0.31464(14) 0.86265(16) 0.21672(15)
O37_4 O 0.54559(18) 0.76103(17) 0.17619(16)
C103_4 C 0.2264(2) 0.9930(2) 0.0193(2)
H65_4 H 0.2742 0.8364 0.1117
H66_4 H 0.3108 0.8397 0.1025
C104_4 C 0.28365(16) 0.85808(16) 0.20457(16)
H67_4 H 0.3739 0.8658 0.2266
H68_4 H 0.3873 0.8608 0.1909
C106_4 C 0.5632(2) 0.7408(2) 0.1558(2)
C108_5 C 0.1944(2) 0.99998(19) 0.0072(2)
C110_4 C 0.25510(17) 0.86122(15) 0.22981(16)
C113_4 C 0.5968(2) 0.7352(2) 0.1659(2)
C114_4 C 0.5478(2) 0.7240(2) 0.1291(3)
C119_4 C 0.2228(2) 0.8526(3) 0.2215(2)
C120_4 C 0.26094(18) 0.8734(2) 0.26204(18)
H73_4 H 0.6070 0.7463 0.1837
C123_4 C 0.61420(19) 0.71213(19) 0.1479(2)
C124_4 C 0.5651(2) 0.7005(2) 0.1112(3)
H74_4 H 0.5255 0.7285 0.1230
H79_4 H 0.2178 0.8440 0.2000
C128_4 C 0.1972(2) 0.8572(2) 0.2469(2)
H80_4 H 0.2828 0.8790 0.2686
C129_4 C 0.23436(19) 0.8772(2) 0.2845(2)
H83_4 H 0.6368 0.7084 0.1536
C131_4 C 0.59921(17) 0.69449(17) 0.1216(2)
H84_4 H 0.5548 0.6895 0.0935
H87_4 H 0.1754 0.8499 0.2424
H88_4 H 0.2388 0.8846 0.3067
C135_4 C 0.61733(17) 0.66898(17) 0.10397(18)
O43_3 O 0.60148(13) 0.65299(12) 0.08280(14)
O44_3 O 0.64857(11) 0.66567(11) 0.11218(12)
Co21_3 Co 0.67997(2) 0.63083(2) 0.09800(2)
H49_4 H 0.3376 0.9198 0.9958
C89_4 C 0.2942(3) 0.9443(3) 0.9974(2)
H55_5 H 0.3836 0.7926 1.0000
C95_4 C 0.3558(3) 0.7538(3) 0.9964(3)
H57_4 H 0.2953 0.9520 0.9749
H63_4 H 0.3654 0.7465 0.9760
O38_4 O 0.3149(2) 0.7127(2) 0.9983(2)
C107_4 C 0.3289(2) 0.7010(2) 0.96744(18)
C115_4 C 0.3585(2) 0.6837(2) 0.96886(15)
C116_4 C 0.31182(18) 0.70455(18) 0.9361(2)
H69_4 H 0.1832 0.9872 0.9916
H75_4 H 0.3699 0.6813 0.9898
C125_4 C 0.37096(17) 0.66986(18) 0.93897(19)
C126_4 C 0.32432(19) 0.69076(19) 0.90625(17)
H76_4 H 0.2920 0.7162 0.9352
H85_4 H 0.3907 0.6583 0.9399
C132_4 C 0.35389(17) 0.67341(16) 0.90767(15)
H86_4 H 0.3129 0.6931 0.8853
C136_4 C 0.3687(3) 0.65896(18) 0.8754(2)
C96_5 C 0.5689(3) 0.0025(3) 0.7937(3)
H63_5 H 0.6154 0.0035 0.7260
C102_5 C 0.5798(3) 0.0111(3) 0.7617(3)
H64_5 H 0.5522 0.0140 0.8049
O38_5 O 0.5649(2) 0.0373(2) 0.7483(2)
C106_5 C 0.8132(2) 0.0092(2) 0.9058(2)
C107_5 C 0.5789(2) 0.0490(2) 0.71744(18)
C113_5 C 0.8468(2) 0.0148(2) 0.9159(2)
C114_5 C 0.7978(2) 0.0260(2) 0.8791(3)
C115_5 C 0.6085(2) 0.0663(2) 0.71886(15)
C116_5 C 0.56182(18) 0.04545(18) 0.6861(2)
H73_5 H 0.8570 0.0037 0.9337
C123_5 C 0.86420(19) 0.03787(19) 0.8979(2)
C124_5 C 0.8151(2) 0.0495(2) 0.8612(3)
H74_5 H 0.7755 0.0215 0.8730
H75_5 H 0.6199 0.0687 0.7398
C125_5 C 0.62096(17) 0.08014(18) 0.68897(19)
C126_5 C 0.57432(19) 0.05924(19) 0.65625(17)
H76_5 H 0.5420 0.0338 0.6852
H83_5 H 0.8868 0.0416 0.9036
C131_5 C 0.84921(17) 0.05551(17) 0.8716(2)
H84_5 H 0.8048 0.0605 0.8435
H85_5 H 0.6407 0.0917 0.6899
C132_5 C 0.60389(17) 0.07659(16) 0.65767(15)
H86_5 H 0.5629 0.0569 0.6353
C135_5 C 0.86733(17) 0.08102(17) 0.85397(18)
C136_5 C 0.6187(3) 0.09104(18) 0.6254(2)
O43_4 O 0.85148(13) 0.09701(12) 0.83280(14)
O44_4 O 0.89857(11) 0.08433(11) 0.86218(12)
O45_3 O 0.64559(18) 0.10365(15) 0.62690(17)
O46_3 O 0.59947(16) 0.09013(13) 0.59877(15)
C120_5 C 0.51094(18) 0.8766(2) 0.01204(18)
C121_5 C 0.72200(19) 0.68939(16) 0.0014(2)
H80_5 H 0.5328 0.8710 0.0186
C129_5 C 0.48436(19) 0.8728(2) 0.0345(2)
H81_5 H 0.7371 0.6890 0.0200
C130_5 C 0.69214(16) 0.67407(14) 0.00311(16)
H88_5 H 0.4888 0.8654 0.0567
C134_5 C 0.68169(18) 0.65586(15) 0.03432(18)
O41_5 O 0.65422(13) 0.64272(12) 0.03350(14)
O42_5 O 0.70239(12) 0.65516(11) 0.05977(12)
N22_5 N 0.71731(13) 0.63447(13) 0.13723(14)
C137_5 C 0.75012(16) 0.62693(16) 0.13199(17)
C138_5 C 0.71026(19) 0.6438(3) 0.1701(2)
N23_5 N 0.75949(14) 0.61712(18) 0.10089(15)
N24_5 N 0.77490(13) 0.62771(14) 0.15607(14)
N25_5 N 0.67849(19) 0.6535(3) 0.1780(2)
N26_5 N 0.73292(16) 0.6448(2) 0.19608(16)
H89_5 H 0.7802 0.6118 0.0972
H90_5 H 0.7448 0.6161 0.0844
C139_5 C 0.76409(17) 0.63615(18) 0.18730(17)
H91_5 H 0.6739 0.6598 0.1986
H92_5 H 0.6629 0.6534 0.1624
C140_5 C 0.78921(17) 0.6365(2) 0.21579(17)
C141_5 C 0.82332(17) 0.63642(18) 0.20983(19)
C142_5 C 0.7789(2) 0.6351(4) 0.2495(2)
H93_5 H 0.8315 0.6355 0.1872
C143_5 C 0.84548(18) 0.63768(17) 0.23702(18)
C144_5 C 0.80312(19) 0.6371(3) 0.2761(2)
H94_5 H 0.7560 0.6327 0.2548
H95_5 H 0.8686 0.6389 0.2321
H96_5 H 0.7957 0.6384 0.2990
O47_5 O 0.64970(12) 0.57944(11) 0.04449(13)
O49_3 O 0.59947(16) 0.59013(13) 0.09877(15)
O50_5 O 0.69518(11) 0.59075(11) 0.07617(14)
O52_3 O 0.64559(18) 0.60365(15) 0.12690(17)
N28_5 N 0.83621(13) 0.63724(13) 0.26969(14)
Co13_4 Co 0.66307(2) 0.87898(2) 0.81144(2)
O27_5 O 0.62442(13) 0.85481(13) 0.79057(16)
O28_5 O 0.67471(16) 0.84325(12) 0.84168(14)
O29_5 O 0.69198(13) 0.90515(11) 0.84521(13)
O30_5 O 0.64430(15) 0.91810(12) 0.79318(14)
N15_4 N 0.70250(14) 0.87085(13) 0.77594(14)
C73_5 C 0.59915(19) 0.85168(17) 0.8096(2)
C74_5 C 0.66455(19) 0.83518(15) 0.8711(2)
C75_5 C 0.68783(16) 0.91712(15) 0.87413(19)
C76_5 C 0.6219(2) 0.93191(17) 0.8097(2)
C77_5 C 0.5693(2) 0.83313(16) 0.7946(2)
O31_5 O 0.59568(13) 0.86210(12) 0.83932(14)
C78_5 C 0.67814(18) 0.80497(16) 0.88357(18)
O32_5 O 0.64623(14) 0.85086(11) 0.89049(13)
C79_5 C 0.71592(16) 0.93645(15) 0.88791(18)
O33_5 O 0.66114(11) 0.91472(10) 0.89256(12)
C80_5 C 0.6073(2) 0.96072(19) 0.7938(2)
O34_5 O 0.60996(13) 0.92525(11) 0.83978(12)
C81_5 C 0.5700(2) 0.8240(2) 0.7602(2)
C82_5 C 0.5424(2) 0.8262(2) 0.8155(2)
Co14_5 Co 0.62361(2) 0.88914(2) 0.87208(2)
C83_5 C 0.6961(2) 0.78581(17) 0.8611(2)
C84_5 C 0.6721(2) 0.79443(16) 0.91714(19)
C85_5 C 0.71339(19) 0.95263(16) 0.91874(19)
C86_5 C 0.74617(18) 0.93829(18) 0.8690(2)
C87_5 C 0.6180(2) 0.9694(2) 0.7618(2)
C88_5 C 0.5821(3) 0.9773(2) 0.8095(3)
H49_5 H 0.5876 0.8302 0.7458
C89_5 C 0.5442(3) 0.8057(3) 0.7474(2)
C90_5 C 0.5156(2) 0.8082(2) 0.8017(3)
H50_5 H 0.5417 0.8331 0.8383
N16_5 N 0.58428(13) 0.89557(12) 0.90878(13)
H51_5 H 0.7005 0.7923 0.8385
C91_5 C 0.7071(2) 0.75868(19) 0.8713(2)
C92_5 C 0.6851(2) 0.76614(17) 0.9282(2)
H52_5 H 0.6593 0.8063 0.9323
H53_5 H 0.6935 0.9515 0.9316
C93_5 C 0.7405(2) 0.97077(19) 0.9309(2)
C94_5 C 0.7733(2) 0.9572(2) 0.8815(2)
H54_5 H 0.7487 0.9273 0.8485
H55_6 H 0.6336 0.9574 0.7500
C95_5 C 0.6058(3) 0.9962(3) 0.7464(3)
H56_5 H 0.5739 0.9713 0.8311
H57_5 H 0.5453 0.7980 0.7249
C97_5 C 0.5162(2) 0.7987(2) 0.7690(2)
H58_5 H 0.4973 0.8030 0.8158
C98_5 C 0.55171(18) 0.9011(2) 0.90029(17)
C99_5 C 0.58925(18) 0.8902(2) 0.94315(17)
H59_5 H 0.7181 0.7460 0.8555
C100_5 C 0.7026(2) 0.74859(17) 0.9050(2)
H60_5 H 0.6819 0.7595 0.9509
H61_5 H 0.7388 0.9814 0.9517
C101_5 C 0.7689(2) 0.97228(19) 0.9115(2)
H62_5 H 0.7934 0.9589 0.8692
O35_5 O 0.48987(19) 0.78401(16) 0.75378(18)
N17_5 N 0.54475(19) 0.9093(3) 0.86759(18)
N18_5 N 0.52552(14) 0.90016(17) 0.92213(15)
N19_5 N 0.62041(16) 0.8875(3) 0.95489(17)
N20_5 N 0.56464(14) 0.88735(16) 0.96672(15)
O36_5 O 0.71750(17) 0.72136(14) 0.91302(16)
O37_5 O 0.79559(18) 0.98897(17) 0.92619(16)
C103_5 C 0.4764(2) 0.7570(2) 0.7693(2)
H65_5 H 0.5242 0.9136 0.8617
H66_5 H 0.5608 0.9103 0.8525
C104_5 C 0.53365(16) 0.89192(16) 0.95457(16)
H67_5 H 0.6239 0.8842 0.9766
H68_5 H 0.6373 0.8892 0.9409
C105_5 C 0.7082(2) 0.70677(17) 0.9443(2)
C108_6 C 0.4444(2) 0.75002(19) 0.7572(2)
C109_5 C 0.4932(2) 0.73912(19) 0.7905(3)
C110_5 C 0.50510(17) 0.88878(15) 0.97981(16)
C111_5 C 0.7296(2) 0.70580(19) 0.9712(3)
C112_5 C 0.6801(2) 0.6909(2) 0.9445(3)
H69_5 H 0.4332 0.7628 0.7416
C117_5 C 0.4291(2) 0.72265(18) 0.7695(2)
C118_5 C 0.47770(19) 0.71225(18) 0.8037(3)
H70_5 H 0.5153 0.7440 0.7968
C119_5 C 0.4728(2) 0.8974(3) 0.9715(2)
H71_5 H 0.7501 0.7163 0.9699
C122_5 C 0.6711(2) 0.6749(2) 0.9752(2)
H72_5 H 0.6662 0.6902 0.9250
H77_5 H 0.4076 0.7171 0.7619
C127_5 C 0.44612(17) 0.70452(15) 0.79232(18)
H78_5 H 0.4889 0.7001 0.8199
H79_5 H 0.4678 0.9060 0.9500
C128_5 C 0.4472(2) 0.8928(2) 0.9969(2)
H82_5 H 0.6504 0.6648 0.9762
C133_5 C 0.42930(16) 0.67586(14) 0.80537(18)
H87_5 H 0.4254 0.9001 0.9924
C94_6 C 0.0233(2) 0.2928(2) 0.1315(2)
C101_6 C 0.0189(2) 0.27772(19) 0.1615(2)
H62_6 H 0.0434 0.2911 0.1192
O37_6 O 0.04559(18) 0.26103(17) 0.17619(16)
C106_6 C 0.0632(2) 0.2408(2) 0.1558(2)
C113_6 C 0.0968(2) 0.2352(2) 0.1659(2)
C114_6 C 0.0478(2) 0.2240(2) 0.1291(3)
H71_6 H 0.0001 0.5337 0.2199
H73_6 H 0.1070 0.2463 0.1837
C123_6 C 0.11420(19) 0.21213(19) 0.1479(2)
C124_6 C 0.0651(2) 0.2005(2) 0.1112(3)
H74_6 H 0.0255 0.2285 0.1230
H83_6 H 0.1368 0.2084 0.1536
C131_6 C 0.09921(17) 0.19449(17) 0.1216(2)
H84_6 H 0.0548 0.1895 0.0935
C135_6 C 0.11733(17) 0.16898(17) 0.10397(18)
C137_6 C 0.00012(16) 0.62307(16) 0.38199(17)
N23_6 N 0.00949(14) 0.63288(18) 0.35089(15)
N24_6 N 0.02490(13) 0.62229(14) 0.40607(14)
H89_6 H 0.0302 0.6382 0.3472
C139_6 C 0.01409(17) 0.61385(18) 0.43730(17)
C140_6 C 0.03921(17) 0.6135(2) 0.46579(17)
C141_6 C 0.07332(17) 0.61358(18) 0.45983(19)
C142_6 C 0.0289(2) 0.6149(4) 0.4995(2)
H93_6 H 0.0815 0.6145 0.4372
C143_6 C 0.09548(18) 0.61232(17) 0.48702(18)
C144_6 C 0.05312(19) 0.6129(3) 0.5261(2)
H94_6 H 0.0060 0.6173 0.5048
H95_6 H 0.1186 0.6111 0.4821
H96_6 H 0.0457 0.6116 0.5490
O27_6 O 0.87442(13) 0.39519(13) 0.04057(16)
O28_6 O 0.92471(16) 0.40675(12) 0.09168(14)
O29_6 O 0.94198(13) 0.34485(11) 0.09521(13)
O30_6 O 0.89430(15) 0.33190(12) 0.04318(14)
C73_6 C 0.84915(19) 0.39832(17) 0.0596(2)
C74_6 C 0.91455(19) 0.41482(15) 0.1211(2)
C75_6 C 0.93783(16) 0.33288(15) 0.12413(19)
C76_6 C 0.8719(2) 0.31809(17) 0.0597(2)
C77_6 C 0.8193(2) 0.41687(16) 0.0446(2)
O31_6 O 0.84568(13) 0.38790(12) 0.08932(14)
C78_6 C 0.92814(18) 0.44503(16) 0.13357(18)
O32_6 O 0.89623(14) 0.39914(11) 0.14049(13)
C79_6 C 0.96592(16) 0.31355(15) 0.13791(18)
O33_6 O 0.91114(11) 0.33528(10) 0.14256(12)
C80_6 C 0.8573(2) 0.28928(19) 0.0438(2)
O34_6 O 0.85996(13) 0.32475(11) 0.08978(12)
C81_6 C 0.8200(2) 0.4260(2) 0.0102(2)
C82_6 C 0.7924(2) 0.4238(2) 0.0655(2)
Co14_6 Co 0.87361(2) 0.36086(2) 0.12208(2)
C83_6 C 0.9461(2) 0.46419(17) 0.1111(2)
C84_6 C 0.9221(2) 0.45557(16) 0.16714(19)
C85_6 C 0.96339(19) 0.29737(16) 0.16874(19)
C86_6 C 0.99617(18) 0.31171(18) 0.1190(2)
C87_6 C 0.8680(2) 0.2806(2) 0.0118(2)
C88_6 C 0.8321(3) 0.2727(2) 0.0595(3)
C90_6 C 0.7656(2) 0.4418(2) 0.0517(3)
H50_6 H 0.7917 0.4169 0.0883
N16_6 N 0.83428(13) 0.35443(12) 0.15878(13)
H51_6 H 0.9505 0.4577 0.0885
C91_6 C 0.9571(2) 0.49132(19) 0.1213(2)
C92_6 C 0.9351(2) 0.48386(17) 0.1782(2)
H52_6 H 0.9093 0.4437 0.1823
H53_6 H 0.9435 0.2985 0.1816
C93_6 C 0.9905(2) 0.27923(19) 0.1809(2)
H54_6 H 0.9987 0.3227 0.0985
H55_7 H 0.8836 0.2926 -0.0000
C96_6 C 0.8189(3) 0.2475(3) 0.0437(3)
H56_6 H 0.8239 0.2787 0.0811
C97_6 C 0.7662(2) 0.4513(2) 0.0190(2)
H58_6 H 0.7473 0.4470 0.0658
C98_6 C 0.80171(18) 0.3489(2) 0.15029(17)
C99_6 C 0.83925(18) 0.3598(2) 0.19315(17)
H59_6 H 0.9681 0.5040 0.1055
C100_6 C 0.9526(2) 0.50141(17) 0.1550(2)
H60_6 H 0.9319 0.4905 0.2009
H61_6 H 0.9888 0.2686 0.2017
C102_6 C 0.8298(3) 0.2389(3) 0.0117(3)
H64_6 H 0.8022 0.2360 0.0549
O35_6 O 0.73987(19) 0.46599(16) 0.00378(18)
N17_6 N 0.79475(19) 0.3407(3) 0.11759(18)
N18_6 N 0.77552(14) 0.34984(17) 0.17213(15)
N19_6 N 0.87041(16) 0.3625(3) 0.20489(17)
N20_6 N 0.81464(14) 0.36265(16) 0.21672(15)
O36_6 O 0.96750(17) 0.52864(14) 0.16302(16)
C103_6 C 0.7264(2) 0.4930(2) 0.0193(2)
H65_6 H 0.7742 0.3364 0.1117
H66_6 H 0.8108 0.3397 0.1025
C104_6 C 0.78365(16) 0.35808(16) 0.20457(16)
H67_6 H 0.8739 0.3658 0.2266
H68_6 H 0.8873 0.3608 0.1909
C105_6 C 0.9582(2) 0.54323(17) 0.1943(2)
C108_7 C 0.6944(2) 0.49998(19) 0.0072(2)
C109_6 C 0.7432(2) 0.51088(19) 0.0405(3)
C110_6 C 0.75510(17) 0.36122(15) 0.22981(16)
C111_6 C 0.9796(2) 0.54420(19) 0.2212(3)
C112_6 C 0.9301(2) 0.5591(2) 0.1945(3)
C117_6 C 0.6791(2) 0.52735(18) 0.0195(2)
C118_6 C 0.72770(19) 0.53775(18) 0.0537(3)
H70_6 H 0.7653 0.5060 0.0468
C119_6 C 0.7228(2) 0.3526(3) 0.2215(2)
C120_6 C 0.76094(18) 0.3734(2) 0.26204(18)
C121_6 C 0.97200(19) 0.56061(16) 0.2514(2)
C122_6 C 0.9211(2) 0.5751(2) 0.2252(2)
H72_6 H 0.9162 0.5598 0.1750
H77_6 H 0.6576 0.5329 0.0119
C127_6 C 0.69612(17) 0.54548(15) 0.04232(18)
H78_6 H 0.7389 0.5499 0.0699
H79_6 H 0.7178 0.3440 0.2000
C128_6 C 0.6972(2) 0.3572(2) 0.2469(2)
H80_6 H 0.7828 0.3790 0.2686
C129_6 C 0.73436(19) 0.3772(2) 0.2845(2)
H81_6 H 0.9871 0.5610 0.2700
C130_6 C 0.94214(16) 0.57593(14) 0.25311(16)
H82_6 H 0.9004 0.5852 0.2262
C133_6 C 0.67930(16) 0.57414(14) 0.05537(18)
H87_6 H 0.6754 0.3499 0.2424
H88_6 H 0.7388 0.3846 0.3067
C134_6 C 0.93169(18) 0.59414(15) 0.28432(18)
O41_6 O 0.90422(13) 0.60728(12) 0.28350(14)
O42_6 O 0.95239(12) 0.59484(11) 0.30977(12)
N22_6 N 0.96731(13) 0.61553(13) 0.38723(14)
C138_6 C 0.96026(19) 0.6062(3) 0.4201(2)
N25_6 N 0.92849(19) 0.5965(3) 0.4280(2)
N26_6 N 0.98292(16) 0.6052(2) 0.44608(16)
H90_6 H 0.9948 0.6339 0.3344
H91_6 H 0.9239 0.5902 0.4486
H92_6 H 0.9129 0.5966 0.4124
N27_4 N 0.70250(14) 0.37085(13) 0.27594(14)
Co17_4 Co 0.66307(2) 0.37898(2) 0.31144(2)
O48_4 O 0.85148(13) 0.59701(12) 0.33280(14)
O49_4 O 0.84947(16) 0.65987(13) 0.34877(15)
O51_4 O 0.89857(11) 0.58433(11) 0.36218(12)
O52_4 O 0.89559(18) 0.64635(15) 0.37690(17)
H49_6 H 0.8376 0.4198 0.9958
C89_6 C 0.7942(3) 0.4443(3) 0.9974(2)
H55_8 H 0.8836 0.2926 1.0000
C95_6 C 0.8558(3) 0.2538(3) 0.9964(3)
H57_6 H 0.7953 0.4520 0.9749
H63_6 H 0.8654 0.2465 0.9760
O38_6 O 0.8149(2) 0.2127(2) 0.9983(2)
C107_6 C 0.8289(2) 0.2010(2) 0.96744(18)
C115_6 C 0.8585(2) 0.1837(2) 0.96886(15)
C116_6 C 0.81182(18) 0.20455(18) 0.9361(2)
H69_6 H 0.6832 0.4872 0.9916
H75_6 H 0.8699 0.1813 0.9898
C125_6 C 0.87096(17) 0.16986(18) 0.93897(19)
C126_6 C 0.82432(19) 0.19076(19) 0.90625(17)
H76_6 H 0.7920 0.2162 0.9352
H85_6 H 0.8907 0.1583 0.9399
C132_6 C 0.85389(17) 0.17341(16) 0.90767(15)
H86_6 H 0.8129 0.1931 0.8853
C136_6 C 0.8687(3) 0.15896(18) 0.8754(2)
O45_4 O 0.89559(18) 0.14635(15) 0.87690(17)
O46_4 O 0.84947(16) 0.15987(13) 0.84877(15)
O27_7 O 0.62442(13) 0.35481(13) 0.29057(16)
O28_7 O 0.67471(16) 0.34325(12) 0.34168(14)
O29_7 O 0.69198(13) 0.40515(11) 0.34521(13)
O30_7 O 0.64430(15) 0.41810(12) 0.29318(14)
C73_7 C 0.59915(19) 0.35168(17) 0.3096(2)
C74_7 C 0.66455(19) 0.33518(15) 0.3711(2)
C75_7 C 0.68783(16) 0.41712(15) 0.37413(19)
C76_7 C 0.6219(2) 0.43191(17) 0.3097(2)
C77_7 C 0.5693(2) 0.33313(16) 0.2946(2)
O31_7 O 0.59568(13) 0.36210(12) 0.33932(14)
C78_7 C 0.67814(18) 0.30497(16) 0.38357(18)
O32_7 O 0.64623(14) 0.35086(11) 0.39049(13)
C79_7 C 0.71592(16) 0.43645(15) 0.38791(18)
O33_7 O 0.66114(11) 0.41472(10) 0.39256(12)
C80_7 C 0.6073(2) 0.46072(19) 0.2938(2)
O34_7 O 0.60996(13) 0.42525(11) 0.33978(12)
C81_7 C 0.5700(2) 0.3240(2) 0.2602(2)
C82_7 C 0.5424(2) 0.3262(2) 0.3155(2)
Co14_7 Co 0.62361(2) 0.38914(2) 0.37208(2)
C83_7 C 0.6961(2) 0.28581(17) 0.3611(2)
C84_7 C 0.6721(2) 0.29443(16) 0.41714(19)
C85_7 C 0.71339(19) 0.45263(16) 0.41874(19)
C86_7 C 0.74617(18) 0.43829(18) 0.3690(2)
C87_7 C 0.6180(2) 0.4694(2) 0.2618(2)
C88_7 C 0.5821(3) 0.4773(2) 0.3095(3)
H49_7 H 0.5876 0.3302 0.2458
C89_7 C 0.5442(3) 0.3057(3) 0.2474(2)
C90_7 C 0.5156(2) 0.3082(2) 0.3017(3)
H50_7 H 0.5417 0.3331 0.3383
N16_7 N 0.58428(13) 0.39557(12) 0.40878(13)
H51_7 H 0.7005 0.2923 0.3385
C91_7 C 0.7071(2) 0.25868(19) 0.3713(2)
C92_7 C 0.6851(2) 0.26614(17) 0.4282(2)
H52_7 H 0.6593 0.3063 0.4323
H53_7 H 0.6935 0.4515 0.4316
C93_7 C 0.7405(2) 0.47077(19) 0.4309(2)
C94_7 C 0.7733(2) 0.4572(2) 0.3815(2)
H54_7 H 0.7487 0.4273 0.3485
H55_9 H 0.6336 0.4574 0.2500
C95_7 C 0.6058(3) 0.4962(3) 0.2464(3)
C96_7 C 0.5689(3) 0.5025(3) 0.2937(3)
H56_7 H 0.5739 0.4713 0.3311
H57_7 H 0.5453 0.2980 0.2249
C97_7 C 0.5162(2) 0.2987(2) 0.2690(2)
H58_7 H 0.4973 0.3030 0.3158
C98_7 C 0.55171(18) 0.4011(2) 0.40029(17)
C99_7 C 0.58925(18) 0.3902(2) 0.44315(17)
H59_7 H 0.7181 0.2460 0.3555
C100_7 C 0.7026(2) 0.24859(17) 0.4050(2)
H60_7 H 0.6819 0.2595 0.4509
H61_7 H 0.7388 0.4814 0.4517
C101_7 C 0.7689(2) 0.47228(19) 0.4115(2)
H62_7 H 0.7934 0.4589 0.3692
H63_7 H 0.6154 0.5035 0.2260
C102_7 C 0.5798(3) 0.5111(3) 0.2617(3)
H64_7 H 0.5522 0.5140 0.3049
O35_7 O 0.48987(19) 0.28401(16) 0.25378(18)
N17_7 N 0.54475(19) 0.4093(3) 0.36759(18)
N18_7 N 0.52552(14) 0.40016(17) 0.42213(15)
N19_7 N 0.62041(16) 0.3875(3) 0.45489(17)
N20_7 N 0.56464(14) 0.38735(16) 0.46672(15)
O36_7 O 0.71750(17) 0.22136(14) 0.41302(16)
O37_7 O 0.79559(18) 0.48897(17) 0.42619(16)
O38_7 O 0.5649(2) 0.5373(2) 0.2483(2)
C103_7 C 0.4764(2) 0.2570(2) 0.2693(2)
H65_7 H 0.5242 0.4136 0.3617
H66_7 H 0.5608 0.4103 0.3525
C104_7 C 0.53365(16) 0.39192(16) 0.45457(16)
H67_7 H 0.6239 0.3842 0.4766
H68_7 H 0.6373 0.3892 0.4409
C105_7 C 0.7082(2) 0.20677(17) 0.4443(2)
C106_7 C 0.8132(2) 0.5092(2) 0.4058(2)
C107_7 C 0.5789(2) 0.5490(2) 0.21744(18)
C108_8 C 0.4444(2) 0.25002(19) 0.2572(2)
C109_7 C 0.4932(2) 0.23912(19) 0.2905(3)
C110_7 C 0.50510(17) 0.38878(15) 0.47981(16)
C111_7 C 0.7296(2) 0.20580(19) 0.4712(3)
C112_7 C 0.6801(2) 0.1909(2) 0.4445(3)
C113_7 C 0.8468(2) 0.5148(2) 0.4159(2)
C114_7 C 0.7978(2) 0.5260(2) 0.3791(3)
C115_7 C 0.6085(2) 0.5663(2) 0.21886(15)
C116_7 C 0.56182(18) 0.54545(18) 0.1861(2)
H69_7 H 0.4332 0.2628 0.2416
C117_7 C 0.4291(2) 0.22265(18) 0.2695(2)
C118_7 C 0.47770(19) 0.21225(18) 0.3037(3)
H70_7 H 0.5153 0.2440 0.2968
C119_7 C 0.4728(2) 0.3974(3) 0.4715(2)
C120_7 C 0.51094(18) 0.3766(2) 0.51204(18)
H71_7 H 0.7501 0.2163 0.4699
C121_7 C 0.72200(19) 0.18939(16) 0.5014(2)
C122_7 C 0.6711(2) 0.1749(2) 0.4752(2)
H72_7 H 0.6662 0.1902 0.4250
H73_7 H 0.8570 0.5037 0.4337
C123_7 C 0.86420(19) 0.53787(19) 0.3979(2)
C124_7 C 0.8151(2) 0.5495(2) 0.3612(3)
H74_7 H 0.7755 0.5215 0.3730
H75_7 H 0.6199 0.5687 0.2398
C125_7 C 0.62096(17) 0.58014(18) 0.18897(19)
C126_7 C 0.57432(19) 0.55924(19) 0.15625(17)
H76_7 H 0.5420 0.5338 0.1852
H77_7 H 0.4076 0.2171 0.2619
C127_7 C 0.44612(17) 0.20452(15) 0.29232(18)
H78_7 H 0.4889 0.2001 0.3199
H79_7 H 0.4678 0.4060 0.4500
C128_7 C 0.4472(2) 0.3928(2) 0.4969(2)
H80_7 H 0.5328 0.3710 0.5186
C129_7 C 0.48436(19) 0.3728(2) 0.5345(2)
H81_7 H 0.7371 0.1890 0.5200
C130_7 C 0.69214(16) 0.17407(14) 0.50311(16)
H82_7 H 0.6504 0.1648 0.4762
H83_7 H 0.8868 0.5416 0.4036
C131_7 C 0.84921(17) 0.55551(17) 0.3716(2)
H84_7 H 0.8048 0.5605 0.3435
H85_7 H 0.6407 0.5917 0.1899
C132_7 C 0.60389(17) 0.57659(16) 0.15767(15)
H86_7 H 0.5629 0.5569 0.1353
C133_7 C 0.42930(16) 0.17586(14) 0.30537(18)
H87_7 H 0.4254 0.4001 0.4924
H88_7 H 0.4888 0.3654 0.5567
C134_7 C 0.68169(18) 0.15586(15) 0.53432(18)
C135_7 C 0.86733(17) 0.58102(17) 0.35397(18)
C136_7 C 0.6187(3) 0.59104(18) 0.1254(2)
O41_7 O 0.65422(13) 0.14272(12) 0.53350(14)
O42_7 O 0.70239(12) 0.15516(11) 0.55977(12)
N22_7 N 0.71731(13) 0.13447(13) 0.63723(14)
C137_7 C 0.75012(16) 0.12693(16) 0.63199(17)
C138_7 C 0.71026(19) 0.1438(3) 0.6701(2)
N23_7 N 0.75949(14) 0.11712(18) 0.60089(15)
N24_7 N 0.77490(13) 0.12771(14) 0.65607(14)
N25_7 N 0.67849(19) 0.1535(3) 0.6780(2)
N26_7 N 0.73292(16) 0.1448(2) 0.69608(16)
H89_7 H 0.7802 0.1118 0.5972
H90_7 H 0.7448 0.1161 0.5844
C139_7 C 0.76409(17) 0.13615(18) 0.68730(17)
H91_7 H 0.6739 0.1598 0.6986
H92_7 H 0.6629 0.1534 0.6624
C140_7 C 0.78921(17) 0.1365(2) 0.71579(17)
C141_7 C 0.82332(17) 0.13642(18) 0.70983(19)
C142_7 C 0.7789(2) 0.1351(4) 0.7495(2)
H93_7 H 0.8315 0.1355 0.6872
C143_7 C 0.84548(18) 0.13768(17) 0.73702(18)
C144_7 C 0.80312(19) 0.1371(3) 0.7761(2)
H94_7 H 0.7560 0.1327 0.7548
H95_7 H 0.8686 0.1389 0.7321
H96_7 H 0.7957 0.1384 0.7990
O47_6 O 0.64970(12) 0.07944(11) 0.54449(13)
O50_6 O 0.69518(11) 0.09075(11) 0.57617(14)
N28_6 N 0.83621(13) 0.13724(13) 0.76969(14)
C144_8 C 0.05312(19) 0.1129(3) 0.0261(2)
H94_8 H 0.0060 0.1173 0.0048
H96_8 H 0.0457 0.1116 0.0490
C94_8 C 0.0233(2) 0.7928(2) 0.6315(2)
C101_8 C 0.0189(2) 0.77772(19) 0.6615(2)
H62_8 H 0.0434 0.7911 0.6192
O37_8 O 0.04559(18) 0.76103(17) 0.67619(16)
C106_8 C 0.0632(2) 0.7408(2) 0.6558(2)
C113_8 C 0.0968(2) 0.7352(2) 0.6659(2)
C114_8 C 0.0478(2) 0.7240(2) 0.6291(3)
H73_8 H 0.1070 0.7463 0.6837
C123_8 C 0.11420(19) 0.71213(19) 0.6479(2)
C124_8 C 0.0651(2) 0.7005(2) 0.6112(3)
H74_8 H 0.0255 0.7285 0.6230
H83_8 H 0.1368 0.7084 0.6536
C131_8 C 0.09921(17) 0.69449(17) 0.6216(2)
H84_8 H 0.0548 0.6895 0.5935
C135_8 C 0.11733(17) 0.66898(17) 0.60397(18)
H59_8 H 0.9681 0.0040 0.6055
C100_8 C 0.9526(2) 0.00141(17) 0.6550(2)
O36_8 O 0.96750(17) 0.02864(14) 0.66302(16)
C105_8 C 0.9582(2) 0.04323(17) 0.6943(2)
C108_9 C 0.6944(2) -0.00002(19) 0.5072(2)
C109_8 C 0.7432(2) 0.01088(19) 0.5405(3)
C111_8 C 0.9796(2) 0.04420(19) 0.7212(3)
C112_8 C 0.9301(2) 0.0591(2) 0.6945(3)
C117_8 C 0.6791(2) 0.02735(18) 0.5195(2)
C118_8 C 0.72770(19) 0.03775(18) 0.5537(3)
H70_8 H 0.7653 0.0060 0.5468
C121_8 C 0.97200(19) 0.06061(16) 0.7514(2)
C122_8 C 0.9211(2) 0.0751(2) 0.7252(2)
H72_8 H 0.9162 0.0598 0.6750
H77_8 H 0.6576 0.0329 0.5119
C127_8 C 0.69612(17) 0.04548(15) 0.54232(18)
H78_8 H 0.7389 0.0499 0.5699
H81_8 H 0.9871 0.0610 0.7700
C130_8 C 0.94214(16) 0.07593(14) 0.75311(16)
H82_8 H 0.9004 0.0852 0.7262
C133_8 C 0.67930(16) 0.07414(14) 0.55537(18)
C134_8 C 0.93169(18) 0.09414(15) 0.78432(18)
O41_8 O 0.90422(13) 0.10728(12) 0.78350(14)
O42_8 O 0.95239(12) 0.09484(11) 0.80977(12)
N22_8 N 0.96731(13) 0.11553(13) 0.88723(14)
C138_8 C 0.96026(19) 0.1062(3) 0.9201(2)
N25_8 N 0.92849(19) 0.0965(3) 0.9280(2)
N26_8 N 0.98292(16) 0.1052(2) 0.94608(16)
H90_8 H 0.9948 0.1339 0.8344
H91_8 H 0.9239 0.0902 0.9486
H92_8 H 0.9129 0.0966 0.9124
O27_8 O 0.87442(13) 0.89519(13) 0.54057(16)
O28_8 O 0.92471(16) 0.90675(12) 0.59168(14)
O29_8 O 0.94198(13) 0.84485(11) 0.59521(13)
O30_8 O 0.89430(15) 0.83190(12) 0.54318(14)
C73_8 C 0.84915(19) 0.89832(17) 0.5596(2)
C74_8 C 0.91455(19) 0.91482(15) 0.6211(2)
C75_8 C 0.93783(16) 0.83288(15) 0.62413(19)
C76_8 C 0.8719(2) 0.81809(17) 0.5597(2)
C77_8 C 0.8193(2) 0.91687(16) 0.5446(2)
O31_8 O 0.84568(13) 0.88790(12) 0.58932(14)
C78_8 C 0.92814(18) 0.94503(16) 0.63357(18)
O32_8 O 0.89623(14) 0.89914(11) 0.64049(13)
C79_8 C 0.96592(16) 0.81355(15) 0.63791(18)
O33_8 O 0.91114(11) 0.83528(10) 0.64256(12)
C80_8 C 0.8573(2) 0.78928(19) 0.5438(2)
O34_8 O 0.85996(13) 0.82475(11) 0.58978(12)
C81_8 C 0.8200(2) 0.9260(2) 0.5102(2)
C82_8 C 0.7924(2) 0.9238(2) 0.5655(2)
Co14_8 Co 0.87361(2) 0.86086(2) 0.62208(2)
C83_8 C 0.9461(2) 0.96419(17) 0.6111(2)
C84_8 C 0.9221(2) 0.95557(16) 0.66714(19)
C85_8 C 0.96339(19) 0.79737(16) 0.66874(19)
C86_8 C 0.99617(18) 0.81171(18) 0.6190(2)
C87_8 C 0.8680(2) 0.7806(2) 0.5118(2)
C88_8 C 0.8321(3) 0.7727(2) 0.5595(3)
H49_8 H 0.8376 0.9198 0.4958
C89_8 C 0.7942(3) 0.9443(3) 0.4974(2)
C90_8 C 0.7656(2) 0.9418(2) 0.5517(3)
H50_8 H 0.7917 0.9169 0.5883
N16_8 N 0.83428(13) 0.85443(12) 0.65878(13)
H51_8 H 0.9505 0.9577 0.5885
C91_8 C 0.9571(2) 0.99132(19) 0.6213(2)
C92_8 C 0.9351(2) 0.98386(17) 0.6782(2)
H52_8 H 0.9093 0.9437 0.6823
H53_8 H 0.9435 0.7985 0.6816
C93_8 C 0.9905(2) 0.77923(19) 0.6809(2)
H54_8 H 0.9987 0.8227 0.5985
H55_10 H 0.8836 0.7926 0.5000
C95_8 C 0.8558(3) 0.7538(3) 0.4964(3)
C96_8 C 0.8189(3) 0.7475(3) 0.5437(3)
H56_8 H 0.8239 0.7787 0.5811
H57_8 H 0.7953 0.9520 0.4749
C97_8 C 0.7662(2) 0.9513(2) 0.5190(2)
H58_8 H 0.7473 0.9470 0.5658
C98_8 C 0.80171(18) 0.8489(2) 0.65029(17)
C99_8 C 0.83925(18) 0.8598(2) 0.69315(17)
H60_8 H 0.9319 0.9905 0.7009
H61_8 H 0.9888 0.7686 0.7017
H63_8 H 0.8654 0.7465 0.4760
C102_8 C 0.8298(3) 0.7389(3) 0.5117(3)
H64_8 H 0.8022 0.7360 0.5549
O35_8 O 0.73987(19) 0.96599(16) 0.50378(18)
N17_8 N 0.79475(19) 0.8407(3) 0.61759(18)
N18_8 N 0.77552(14) 0.84984(17) 0.67213(15)
N19_8 N 0.87041(16) 0.8625(3) 0.70489(17)
N20_8 N 0.81464(14) 0.86265(16) 0.71672(15)
O38_8 O 0.8149(2) 0.7127(2) 0.4983(2)
C103_8 C 0.7264(2) 0.9930(2) 0.5193(2)
H65_8 H 0.7742 0.8364 0.6117
H66_8 H 0.8108 0.8397 0.6025
C104_8 C 0.78365(16) 0.85808(16) 0.70457(16)
H67_8 H 0.8739 0.8658 0.7266
H68_8 H 0.8873 0.8608 0.6909
C107_8 C 0.8289(2) 0.7010(2) 0.46744(18)
C108_10 C 0.6944(2) 0.99998(19) 0.5072(2)
C110_8 C 0.75510(17) 0.86122(15) 0.72981(16)
C115_8 C 0.8585(2) 0.6837(2) 0.46886(15)
C116_8 C 0.81182(18) 0.70455(18) 0.4361(2)
H69_8 H 0.6832 0.9872 0.4916
C119_8 C 0.7228(2) 0.8526(3) 0.7215(2)
C120_8 C 0.76094(18) 0.8734(2) 0.76204(18)
H75_8 H 0.8699 0.6813 0.4898
C125_8 C 0.87096(17) 0.66986(18) 0.43897(19)
C126_8 C 0.82432(19) 0.69076(19) 0.40625(17)
H76_8 H 0.7920 0.7162 0.4352
H79_8 H 0.7178 0.8440 0.7000
C128_8 C 0.6972(2) 0.8572(2) 0.7469(2)
H80_8 H 0.7828 0.8790 0.7686
C129_8 C 0.73436(19) 0.8772(2) 0.7845(2)
H85_8 H 0.8907 0.6583 0.4399
C132_8 C 0.85389(17) 0.67341(16) 0.40767(15)
H86_8 H 0.8129 0.6931 0.3853
H87_8 H 0.6754 0.8499 0.7424
H88_8 H 0.7388 0.8846 0.8067
C136_8 C 0.8687(3) 0.65896(18) 0.3754(2)
H58_9 H 0.0027 0.1970 0.3158
O35_9 O 0.01013(19) 0.21599(16) 0.25378(18)
C103_9 C 0.0236(2) 0.2430(2) 0.2693(2)
C108_11 C 0.0556(2) 0.24998(19) 0.2572(2)
C109_9 C 0.0068(2) 0.26088(19) 0.2905(3)
H69_9 H 0.0668 0.2372 0.2416
C117_9 C 0.0709(2) 0.27735(18) 0.2695(2)
C118_9 C 0.02230(19) 0.28775(18) 0.3037(3)
C119_9 C 0.0272(2) 0.1026(3) 0.4715(2)
H77_9 H 0.0924 0.2829 0.2619
C127_9 C 0.05388(17) 0.29548(15) 0.29232(18)
H78_9 H 0.0111 0.2999 0.3199
H79_9 H 0.0322 0.0940 0.4500
C128_9 C 0.0528(2) 0.1072(2) 0.4969(2)
C129_9 C 0.01564(19) 0.1272(2) 0.5345(2)
C133_9 C 0.07070(16) 0.32414(14) 0.30537(18)
H87_9 H 0.0746 0.0999 0.4924
H88_9 H 0.0112 0.1346 0.5567
O39_3 O 0.10030(12) 0.32944(11) 0.29449(13)
O40_3 O 0.05482(11) 0.34075(11) 0.32617(14)
Co15_3 Co 0.12929(2) 0.36476(2) 0.31024(2)
Co16_3 Co 0.07003(2) 0.38083(2) 0.34800(2)
N27_5 N 0.04750(14) 0.12085(13) 0.52594(14)
Co17_5 Co 0.08693(2) 0.12898(2) 0.56144(2)
Co13_5 Co 0.83693(2) 0.12102(2) 0.31144(2)
O27_9 O 0.87558(13) 0.14519(13) 0.29057(16)
O28_9 O 0.82529(16) 0.15675(12) 0.34168(14)
O29_9 O 0.80802(13) 0.09485(11) 0.34521(13)
O30_9 O 0.85570(15) 0.08190(12) 0.29318(14)
N15_5 N 0.79750(14) 0.12915(13) 0.27594(14)
C73_9 C 0.90085(19) 0.14832(17) 0.3096(2)
C74_9 C 0.83545(19) 0.16482(15) 0.3711(2)
C75_9 C 0.81217(16) 0.08288(15) 0.37413(19)
C76_9 C 0.8781(2) 0.06809(17) 0.3097(2)
C77_9 C 0.9307(2) 0.16687(16) 0.2946(2)
O31_9 O 0.90432(13) 0.13790(12) 0.33932(14)
C78_9 C 0.82186(18) 0.19503(16) 0.38357(18)
O32_9 O 0.85377(14) 0.14914(11) 0.39049(13)
C79_9 C 0.78408(16) 0.06355(15) 0.38791(18)
O33_9 O 0.83886(11) 0.08528(10) 0.39256(12)
C80_9 C 0.8927(2) 0.03928(19) 0.2938(2)
O34_9 O 0.89004(13) 0.07475(11) 0.33978(12)
C81_9 C 0.9300(2) 0.1760(2) 0.2602(2)
C82_9 C 0.9576(2) 0.1738(2) 0.3155(2)
Co14_9 Co 0.87639(2) 0.11086(2) 0.37208(2)
C83_9 C 0.8039(2) 0.21419(17) 0.3611(2)
C84_9 C 0.8279(2) 0.20557(16) 0.41714(19)
C85_9 C 0.78661(19) 0.04737(16) 0.41874(19)
C86_9 C 0.75383(18) 0.06171(18) 0.3690(2)
C87_9 C 0.8820(2) 0.0306(2) 0.2618(2)
C88_9 C 0.9179(3) 0.0227(2) 0.3095(3)
H49_9 H 0.9124 0.1698 0.2458
C89_9 C 0.9558(3) 0.1943(3) 0.2474(2)
C90_9 C 0.9844(2) 0.1918(2) 0.3017(3)
H50_9 H 0.9583 0.1669 0.3383
N16_9 N 0.91572(13) 0.10443(12) 0.40878(13)
H51_9 H 0.7995 0.2077 0.3385
C91_9 C 0.7929(2) 0.24132(19) 0.3713(2)
C92_9 C 0.8149(2) 0.23386(17) 0.4282(2)
H52_9 H 0.8407 0.1937 0.4323
H53_9 H 0.8065 0.0485 0.4316
C93_9 C 0.7595(2) 0.02923(19) 0.4309(2)
C94_9 C 0.7267(2) 0.0428(2) 0.3815(2)
H54_9 H 0.7513 0.0727 0.3485
H55_11 H 0.8664 0.0426 0.2500
C95_9 C 0.8942(3) 0.0038(3) 0.2464(3)
H56_9 H 0.9261 0.0287 0.3311
H57_9 H 0.9547 0.2020 0.2249
C97_9 C 0.9838(2) 0.2013(2) 0.2690(2)
C98_9 C 0.94829(18) 0.0989(2) 0.40029(17)
C99_9 C 0.91075(18) 0.1098(2) 0.44315(17)
H59_9 H 0.7819 0.2540 0.3555
C100_9 C 0.7974(2) 0.25141(17) 0.4050(2)
H60_9 H 0.8181 0.2405 0.4509
H61_9 H 0.7612 0.0186 0.4517
C101_9 C 0.7311(2) 0.02772(19) 0.4115(2)
H62_9 H 0.7066 0.0411 0.3692
N17_9 N 0.95525(19) 0.0907(3) 0.36759(18)
N18_9 N 0.97448(14) 0.09984(17) 0.42213(15)
N19_9 N 0.87959(16) 0.1125(3) 0.45489(17)
N20_9 N 0.93536(14) 0.11265(16) 0.46672(15)
O36_9 O 0.78250(17) 0.27864(14) 0.41302(16)
O37_9 O 0.70441(18) 0.01103(17) 0.42619(16)
H65_9 H 0.9758 0.0864 0.3617
H66_9 H 0.9392 0.0897 0.3525
C104_9 C 0.96635(16) 0.10808(16) 0.45457(16)
H67_9 H 0.8761 0.1158 0.4766
H68_9 H 0.8627 0.1108 0.4409
C105_9 C 0.7918(2) 0.29323(17) 0.4443(2)
C110_9 C 0.99490(17) 0.11122(15) 0.47981(16)
C111_9 C 0.7704(2) 0.29420(19) 0.4712(3)
C112_9 C 0.8199(2) 0.3091(2) 0.4445(3)
H70_9 H 0.9847 0.2560 0.2968
C120_9 C 0.98906(18) 0.1234(2) 0.51204(18)
H71_8 H 0.7499 0.2837 0.4699
C121_9 C 0.77800(19) 0.31061(16) 0.5014(2)
C122_9 C 0.8289(2) 0.3251(2) 0.4752(2)
H72_9 H 0.8338 0.3098 0.4250
H80_9 H 0.9672 0.1290 0.5186
H81_9 H 0.7629 0.3110 0.5200
C130_9 C 0.80786(16) 0.32593(14) 0.50311(16)
H82_9 H 0.8496 0.3352 0.4762
C134_9 C 0.81831(18) 0.34414(15) 0.53432(18)
O41_9 O 0.84578(13) 0.35728(12) 0.53350(14)
O42_9 O 0.79761(12) 0.34484(11) 0.55977(12)
N21_3 N 0.91379(13) 0.38724(13) 0.51969(14)
N22_9 N 0.78269(13) 0.36553(13) 0.63723(14)
C137_8 C 0.74988(16) 0.37307(16) 0.63199(17)
C138_9 C 0.78974(19) 0.3562(3) 0.6701(2)
N23_8 N 0.74051(14) 0.38288(18) 0.60089(15)
N24_8 N 0.72510(13) 0.37229(14) 0.65607(14)
N25_9 N 0.82151(19) 0.3465(3) 0.6780(2)
N26_9 N 0.76708(16) 0.3552(2) 0.69608(16)
H89_8 H 0.7198 0.3882 0.5972
H90_9 H 0.7552 0.3839 0.5844
C139_8 C 0.73591(17) 0.36385(18) 0.68730(17)
H91_9 H 0.8261 0.3402 0.6986
H92_9 H 0.8371 0.3466 0.6624
C140_8 C 0.71079(17) 0.3635(2) 0.71579(17)
C141_8 C 0.67668(17) 0.36358(18) 0.70983(19)
C142_8 C 0.7211(2) 0.3649(4) 0.7495(2)
H93_8 H 0.6685 0.3645 0.6872
C143_8 C 0.65452(18) 0.36232(17) 0.73702(18)
C144_9 C 0.69688(19) 0.3629(3) 0.7761(2)
H94_9 H 0.7440 0.3673 0.7548
H95_8 H 0.6314 0.3611 0.7321
H96_9 H 0.7043 0.3616 0.7990
Co18_2 Co 0.87929(2) 0.38524(2) 0.56024(2)
Co19_3 Co 0.82003(2) 0.36917(2) 0.59800(2)
O47_7 O 0.85030(12) 0.42056(11) 0.54449(13)
O48_5 O 0.89852(13) 0.34701(12) 0.58280(14)
O49_5 O 0.90053(16) 0.40987(13) 0.59877(15)
O50_7 O 0.80482(11) 0.40925(11) 0.57617(14)
O51_5 O 0.85143(11) 0.33433(11) 0.61218(12)
O52_5 O 0.85441(18) 0.39635(15) 0.62690(17)
N28_7 N 0.66379(13) 0.36276(13) 0.76969(14)
Co24_3 Co 0.62929(2) 0.36476(2) 0.81024(2)
C96_9 C 0.9311(3) 0.9975(3) 0.2937(3)
H63_9 H 0.8846 0.9965 0.2260
C102_9 C 0.9202(3) 0.9889(3) 0.2617(3)
H64_9 H 0.9478 0.9860 0.3049
O38_9 O 0.9351(2) 0.9627(2) 0.2483(2)
C106_9 C 0.6868(2) 0.9908(2) 0.4058(2)
C107_9 C 0.9211(2) 0.9510(2) 0.21744(18)
C113_9 C 0.6532(2) 0.9852(2) 0.4159(2)
C114_9 C 0.7022(2) 0.9740(2) 0.3791(3)
C115_9 C 0.8915(2) 0.9337(2) 0.21886(15)
C116_9 C 0.93818(18) 0.95455(18) 0.1861(2)
H73_9 H 0.6430 0.9963 0.4337
C123_9 C 0.63580(19) 0.96213(19) 0.3979(2)
C124_9 C 0.6849(2) 0.9505(2) 0.3612(3)
H74_9 H 0.7245 0.9785 0.3730
H75_9 H 0.8801 0.9313 0.2398
C125_9 C 0.87904(17) 0.91986(18) 0.18897(19)
C126_9 C 0.92568(19) 0.94076(19) 0.15625(17)
H76_9 H 0.9580 0.9662 0.1852
H83_9 H 0.6132 0.9584 0.4036
C131_9 C 0.65079(17) 0.94449(17) 0.3716(2)
H84_9 H 0.6952 0.9395 0.3435
H85_9 H 0.8593 0.9083 0.1899
C132_9 C 0.89611(17) 0.92341(16) 0.15767(15)
H86_9 H 0.9371 0.9431 0.1353
C135_9 C 0.63267(17) 0.91898(17) 0.35397(18)
C136_9 C 0.8813(3) 0.90896(18) 0.1254(2)
O43_5 O 0.64852(13) 0.90299(12) 0.33280(14)
O44_5 O 0.60143(11) 0.91567(11) 0.36218(12)
O45_5 O 0.85441(18) 0.89635(15) 0.12690(17)
O46_5 O 0.90053(16) 0.90987(13) 0.09877(15)
Co20_3 Co 0.62929(2) 0.86476(2) 0.31024(2)
Co21_4 Co 0.57003(2) 0.88083(2) 0.34800(2)
Co22_2 Co 0.82003(2) 0.86917(2) 0.09800(2)
Co23_2 Co 0.87929(2) 0.88524(2) 0.06024(2)
O27_10 O 0.12558(13) 0.10481(13) 0.54057(16)
O28_10 O 0.07529(16) 0.09325(12) 0.59168(14)
O29_10 O 0.05802(13) 0.15515(11) 0.59521(13)
O30_10 O 0.10570(15) 0.16810(12) 0.54318(14)
C73_10 C 0.15085(19) 0.10168(17) 0.5596(2)
C74_10 C 0.08545(19) 0.08518(15) 0.6211(2)
C75_10 C 0.06217(16) 0.16712(15) 0.62413(19)
C76_10 C 0.1281(2) 0.18191(17) 0.5597(2)
C77_10 C 0.1807(2) 0.08313(16) 0.5446(2)
O31_10 O 0.15432(13) 0.11210(12) 0.58932(14)
C78_10 C 0.07186(18) 0.05497(16) 0.63357(18)
O32_10 O 0.10377(14) 0.10086(11) 0.64049(13)
C79_10 C 0.03408(16) 0.18645(15) 0.63791(18)
O33_10 O 0.08886(11) 0.16472(10) 0.64256(12)
C80_10 C 0.1427(2) 0.21072(19) 0.5438(2)
O34_10 O 0.14004(13) 0.17525(11) 0.58978(12)
C81_10 C 0.1800(2) 0.0740(2) 0.5102(2)
C82_10 C 0.2076(2) 0.0762(2) 0.5655(2)
Co14_10 Co 0.12639(2) 0.13914(2) 0.62208(2)
C83_10 C 0.0539(2) 0.03581(17) 0.6111(2)
C84_10 C 0.0779(2) 0.04443(16) 0.66714(19)
C85_10 C 0.03661(19) 0.20263(16) 0.66874(19)
C86_10 C 0.00383(18) 0.18829(18) 0.6190(2)
C87_10 C 0.1320(2) 0.2194(2) 0.5118(2)
C88_10 C 0.1679(3) 0.2273(2) 0.5595(3)
H49_10 H 0.1624 0.0802 0.4958
C89_10 C 0.2058(3) 0.0557(3) 0.4974(2)
C90_10 C 0.2344(2) 0.0582(2) 0.5517(3)
H50_10 H 0.2083 0.0831 0.5883
N16_10 N 0.16572(13) 0.14557(12) 0.65878(13)
H51_10 H 0.0495 0.0423 0.5885
C91_10 C 0.0429(2) 0.00868(19) 0.6213(2)
C92_10 C 0.0649(2) 0.01614(17) 0.6782(2)
H52_10 H 0.0907 0.0563 0.6823
H53_10 H 0.0565 0.2015 0.6816
C93_10 C 0.0095(2) 0.22077(19) 0.6809(2)
H54_10 H 0.0013 0.1773 0.5985
H55_12 H 0.1164 0.2074 0.5000
C95_10 C 0.1442(3) 0.2462(3) 0.4964(3)
C96_10 C 0.1811(3) 0.2525(3) 0.5437(3)
H56_10 H 0.1761 0.2213 0.5811
H57_10 H 0.2047 0.0480 0.4749
C97_10 C 0.2338(2) 0.0487(2) 0.5190(2)
H58_10 H 0.2527 0.0530 0.5658
C98_10 C 0.19829(18) 0.1511(2) 0.65029(17)
C99_10 C 0.16075(18) 0.1402(2) 0.69315(17)
H60_10 H 0.0681 0.0095 0.7009
H61_10 H 0.0112 0.2314 0.7017
H63_10 H 0.1346 0.2535 0.4760
C102_10 C 0.1702(3) 0.2611(3) 0.5117(3)
H64_10 H 0.1978 0.2640 0.5549
O35_10 O 0.26013(19) 0.03401(16) 0.50378(18)
N17_10 N 0.20525(19) 0.1593(3) 0.61759(18)
N18_10 N 0.22448(14) 0.15016(17) 0.67213(15)
N19_10 N 0.12959(16) 0.1375(3) 0.70489(17)
N20_10 N 0.18536(14) 0.13735(16) 0.71672(15)
O38_10 O 0.1851(2) 0.2873(2) 0.4983(2)
C103_10 C 0.2736(2) 0.0070(2) 0.5193(2)
H65_10 H 0.2258 0.1636 0.6117
H66_10 H 0.1892 0.1603 0.6025
C104_10 C 0.21635(16) 0.14192(16) 0.70457(16)
H67_10 H 0.1261 0.1342 0.7266
H68_10 H 0.1127 0.1392 0.6909
C107_10 C 0.1711(2) 0.2990(2) 0.46744(18)
C108_12 C 0.3056(2) 0.00002(19) 0.5072(2)
C110_10 C 0.24490(17) 0.13878(15) 0.72981(16)
C115_10 C 0.1415(2) 0.3163(2) 0.46886(15)
C116_10 C 0.18818(18) 0.29545(18) 0.4361(2)
H69_10 H 0.3168 0.0128 0.4916
C119_10 C 0.2772(2) 0.1474(3) 0.7215(2)
C120_10 C 0.23906(18) 0.1266(2) 0.76204(18)
H75_10 H 0.1301 0.3187 0.4898
C125_10 C 0.12904(17) 0.33014(18) 0.43897(19)
C126_10 C 0.17568(19) 0.30924(19) 0.40625(17)
H76_10 H 0.2080 0.2838 0.4352
H79_10 H 0.2822 0.1560 0.7000
C128_10 C 0.3028(2) 0.1428(2) 0.7469(2)
H80_10 H 0.2172 0.1210 0.7686
C129_10 C 0.26564(19) 0.1228(2) 0.7845(2)
H85_10 H 0.1093 0.3417 0.4399
C132_10 C 0.14611(17) 0.32659(16) 0.40767(15)
H86_10 H 0.1871 0.3069 0.3853
H87_10 H 0.3246 0.1501 0.7424
H88_10 H 0.2612 0.1154 0.8067
C136_10 C 0.1313(3) 0.34104(18) 0.3754(2)
O45_6 O 0.10441(18) 0.35365(15) 0.37690(17)
O46_6 O 0.15053(16) 0.34013(13) 0.34877(15)
N27_6 N 0.29750(14) 0.12915(13) 0.77594(14)
Co17_6 Co 0.33693(2) 0.12102(2) 0.81144(2)
H59_10 H 0.0319 0.9960 0.6055
C100_10 C 0.0474(2) 0.99859(17) 0.6550(2)
O36_10 O 0.03250(17) 0.97136(14) 0.66302(16)
C105_10 C 0.0418(2) 0.95677(17) 0.6943(2)
C108_13 C 0.3056(2) 1.00002(19) 0.5072(2)
C109_10 C 0.2568(2) 0.98912(19) 0.5405(3)
C111_10 C 0.0204(2) 0.95580(19) 0.7212(3)
C112_10 C 0.0699(2) 0.9409(2) 0.6945(3)
C117_10 C 0.3209(2) 0.97265(18) 0.5195(2)
C118_10 C 0.27230(19) 0.96225(18) 0.5537(3)
H70_10 H 0.2347 0.9940 0.5468
C121_10 C 0.02800(19) 0.93939(16) 0.7514(2)
C122_10 C 0.0789(2) 0.9249(2) 0.7252(2)
H72_10 H 0.0838 0.9402 0.6750
H77_10 H 0.3424 0.9671 0.5119
C127_10 C 0.30388(17) 0.95452(15) 0.54232(18)
H78_10 H 0.2611 0.9501 0.5699
H81_10 H 0.0129 0.9390 0.7700
C130_10 C 0.05786(16) 0.92407(14) 0.75311(16)
H82_10 H 0.0996 0.9148 0.7262
C133_10 C 0.32070(16) 0.92586(14) 0.55537(18)
C134_10 C 0.06831(18) 0.90586(15) 0.78432(18)
O39_4 O 0.35030(12) 0.92056(11) 0.54449(13)
O40_4 O 0.30482(11) 0.90925(11) 0.57617(14)
O41_10 O 0.09578(13) 0.89272(12) 0.78350(14)
O42_10 O 0.04761(12) 0.90516(11) 0.80977(12)
Co15_4 Co 0.37929(2) 0.88524(2) 0.56024(2)
Co16_4 Co 0.32003(2) 0.86917(2) 0.59800(2)
N21_4 N 0.16379(13) 0.86276(13) 0.76969(14)
N22_10 N 0.03269(13) 0.88447(13) 0.88723(14)
C138_10 C 0.03974(19) 0.8938(3) 0.9201(2)
N25_10 N 0.07151(19) 0.9035(3) 0.9280(2)
N26_10 N 0.01708(16) 0.8948(2) 0.94608(16)
H90_10 H 0.0052 0.8661 0.8344
H91_10 H 0.0761 0.9098 0.9486
H92_10 H 0.0871 0.9034 0.9124
Co18_3 Co 0.12929(2) 0.86476(2) 0.81024(2)
Co19_4 Co 0.07003(2) 0.88083(2) 0.84800(2)
O47_8 O 0.10030(12) 0.82944(11) 0.79449(13)
O48_6 O 0.14852(13) 0.90299(12) 0.83280(14)
O49_6 O 0.15053(16) 0.84013(13) 0.84877(15)
O50_8 O 0.05482(11) 0.84075(11) 0.82617(14)
O51_6 O 0.10143(11) 0.91567(11) 0.86218(12)
O52_6 O 0.10441(18) 0.85365(15) 0.87690(17)
C94_10 C 0.9767(2) 0.2072(2) 0.6315(2)
C101_10 C 0.9811(2) 0.22228(19) 0.6615(2)
H62_10 H 0.9566 0.2089 0.6192
O37_10 O 0.95441(18) 0.23897(17) 0.67619(16)
C106_10 C 0.9368(2) 0.2592(2) 0.6558(2)
C113_10 C 0.9032(2) 0.2648(2) 0.6659(2)
C114_10 C 0.9522(2) 0.2760(2) 0.6291(3)
H73_10 H 0.8930 0.2537 0.6837
C123_10 C 0.88580(19) 0.28787(19) 0.6479(2)
C124_10 C 0.9349(2) 0.2995(2) 0.6112(3)
H74_10 H 0.9745 0.2715 0.6230
H83_10 H 0.8632 0.2916 0.6536
C131_10 C 0.90079(17) 0.30551(17) 0.6216(2)
H84_10 H 0.9452 0.3105 0.5935
C135_10 C 0.88267(17) 0.33102(17) 0.60397(18)
C144_10 C 0.94688(19) 0.8871(3) 0.0261(2)
H94_10 H 0.9940 0.8827 0.0048
H96_10 H 0.9543 0.8884 0.0490
N28_8 N 0.91379(13) 0.88724(13) 0.01969(14)
C129_11 C 0.01564(19) 0.6272(2) 0.0345(2)
H88_11 H 0.0112 0.6346 0.0567
N27_7 N 0.04750(14) 0.62085(13) 0.02594(14)
Co17_7 Co 0.08693(2) 0.62898(2) 0.06144(2)
H58_11 H 0.0027 0.6970 0.8158
O35_11 O 0.01013(19) 0.71599(16) 0.75378(18)
C103_11 C 0.0236(2) 0.7430(2) 0.7693(2)
C108_14 C 0.0556(2) 0.74998(19) 0.7572(2)
C109_11 C 0.0068(2) 0.76088(19) 0.7905(3)
H69_11 H 0.0668 0.7372 0.7416
C117_11 C 0.0709(2) 0.77735(18) 0.7695(2)
C118_11 C 0.02230(19) 0.78775(18) 0.8037(3)
C119_11 C 0.0272(2) 0.6026(3) 0.9715(2)
H77_11 H 0.0924 0.7829 0.7619
C127_11 C 0.05388(17) 0.79548(15) 0.79232(18)
H78_11 H 0.0111 0.7999 0.8199
H79_11 H 0.0322 0.5940 0.9500
C128_11 C 0.0528(2) 0.6072(2) 0.9969(2)
C133_11 C 0.07070(16) 0.82414(14) 0.80537(18)
H87_11 H 0.0746 0.5999 0.9924
C120_11 C 0.98906(18) 0.6234(2) 0.01204(18)
C121_11 C 0.77800(19) 0.81061(16) 0.0014(2)
H80_11 H 0.9672 0.6290 0.0186
H81_11 H 0.7629 0.8110 0.0200
C130_11 C 0.80786(16) 0.82593(14) 0.00311(16)
C134_11 C 0.81831(18) 0.84414(15) 0.03432(18)
O41_11 O 0.84578(13) 0.85728(12) 0.03350(14)
O42_11 O 0.79761(12) 0.84484(11) 0.05977(12)
N22_11 N 0.78269(13) 0.86553(13) 0.13723(14)
C137_9 C 0.74988(16) 0.87307(16) 0.13199(17)
C138_11 C 0.78974(19) 0.8562(3) 0.1701(2)
N23_9 N 0.74051(14) 0.88288(18) 0.10089(15)
N24_9 N 0.72510(13) 0.87229(14) 0.15607(14)
N25_11 N 0.82151(19) 0.8465(3) 0.1780(2)
N26_11 N 0.76708(16) 0.8552(2) 0.19608(16)
H89_9 H 0.7198 0.8882 0.0972
H90_11 H 0.7552 0.8839 0.0844
C139_9 C 0.73591(17) 0.86385(18) 0.18730(17)
H91_11 H 0.8261 0.8402 0.1986
H92_11 H 0.8371 0.8466 0.1624
C140_9 C 0.71079(17) 0.8635(2) 0.21579(17)
C141_9 C 0.67668(17) 0.86358(18) 0.20983(19)
C142_9 C 0.7211(2) 0.8649(4) 0.2495(2)
H93_9 H 0.6685 0.8645 0.1872
C143_9 C 0.65452(18) 0.86232(17) 0.23702(18)
C144_11 C 0.69688(19) 0.8629(3) 0.2761(2)
H94_11 H 0.7440 0.8673 0.2548
H95_9 H 0.6314 0.8611 0.2321
H96_11 H 0.7043 0.8616 0.2990
O47_9 O 0.85030(12) 0.92056(11) 0.04449(13)
O48_7 O 0.89852(13) 0.84701(12) 0.08280(14)
O50_9 O 0.80482(11) 0.90925(11) 0.07617(14)
O51_7 O 0.85143(11) 0.83433(11) 0.11218(12)
N28_9 N 0.66379(13) 0.86276(13) 0.26969(14)
Co13_6 Co 0.83693(2) 0.62102(2) 0.81144(2)
O27_11 O 0.87558(13) 0.64519(13) 0.79057(16)
O28_11 O 0.82529(16) 0.65675(12) 0.84168(14)
O29_11 O 0.80802(13) 0.59485(11) 0.84521(13)
O30_11 O 0.85570(15) 0.58190(12) 0.79318(14)
N15_6 N 0.79750(14) 0.62915(13) 0.77594(14)
C73_11 C 0.90085(19) 0.64832(17) 0.8096(2)
C74_11 C 0.83545(19) 0.66482(15) 0.8711(2)
C75_11 C 0.81217(16) 0.58288(15) 0.87413(19)
C76_11 C 0.8781(2) 0.56809(17) 0.8097(2)
C77_11 C 0.9307(2) 0.66687(16) 0.7946(2)
O31_11 O 0.90432(13) 0.63790(12) 0.83932(14)
C78_11 C 0.82186(18) 0.69503(16) 0.88357(18)
O32_11 O 0.85377(14) 0.64914(11) 0.89049(13)
C79_11 C 0.78408(16) 0.56355(15) 0.88791(18)
O33_11 O 0.83886(11) 0.58528(10) 0.89256(12)
C80_11 C 0.8927(2) 0.53928(19) 0.7938(2)
O34_11 O 0.89004(13) 0.57475(11) 0.83978(12)
C81_11 C 0.9300(2) 0.6760(2) 0.7602(2)
C82_11 C 0.9576(2) 0.6738(2) 0.8155(2)
Co14_11 Co 0.87639(2) 0.61086(2) 0.87208(2)
C83_11 C 0.8039(2) 0.71419(17) 0.8611(2)
C84_11 C 0.8279(2) 0.70557(16) 0.91714(19)
C85_11 C 0.78661(19) 0.54737(16) 0.91874(19)
C86_11 C 0.75383(18) 0.56171(18) 0.8690(2)
C87_11 C 0.8820(2) 0.5306(2) 0.7618(2)
C88_11 C 0.9179(3) 0.5227(2) 0.8095(3)
H49_11 H 0.9124 0.6698 0.7458
C89_11 C 0.9558(3) 0.6943(3) 0.7474(2)
C90_11 C 0.9844(2) 0.6918(2) 0.8017(3)
H50_11 H 0.9583 0.6669 0.8383
N16_11 N 0.91572(13) 0.60443(12) 0.90878(13)
H51_11 H 0.7995 0.7077 0.8385
C91_11 C 0.7929(2) 0.74132(19) 0.8713(2)
C92_11 C 0.8149(2) 0.73386(17) 0.9282(2)
H52_11 H 0.8407 0.6937 0.9323
H53_11 H 0.8065 0.5485 0.9316
C93_11 C 0.7595(2) 0.52923(19) 0.9309(2)
C94_11 C 0.7267(2) 0.5428(2) 0.8815(2)
H54_11 H 0.7513 0.5727 0.8485
H55_13 H 0.8664 0.5426 0.7500
C95_11 C 0.8942(3) 0.5038(3) 0.7464(3)
C96_11 C 0.9311(3) 0.4975(3) 0.7937(3)
H56_11 H 0.9261 0.5287 0.8311
H57_11 H 0.9547 0.7020 0.7249
C97_11 C 0.9838(2) 0.7013(2) 0.7690(2)
C98_11 C 0.94829(18) 0.5989(2) 0.90029(17)
C99_11 C 0.91075(18) 0.6098(2) 0.94315(17)
H59_11 H 0.7819 0.7540 0.8555
C100_11 C 0.7974(2) 0.75141(17) 0.9050(2)
H60_11 H 0.8181 0.7405 0.9509
H61_11 H 0.7612 0.5186 0.9517
C101_11 C 0.7311(2) 0.52772(19) 0.9115(2)
H62_11 H 0.7066 0.5411 0.8692
H63_11 H 0.8846 0.4965 0.7260
C102_11 C 0.9202(3) 0.4889(3) 0.7617(3)
H64_11 H 0.9478 0.4860 0.8049
N17_11 N 0.95525(19) 0.5907(3) 0.86759(18)
N18_11 N 0.97448(14) 0.59984(17) 0.92213(15)
N19_11 N 0.87959(16) 0.6125(3) 0.95489(17)
N20_11 N 0.93536(14) 0.61265(16) 0.96672(15)
O36_11 O 0.78250(17) 0.77864(14) 0.91302(16)
O37_11 O 0.70441(18) 0.51103(17) 0.92619(16)
O38_11 O 0.9351(2) 0.4627(2) 0.7483(2)
H65_11 H 0.9758 0.5864 0.8617
H66_11 H 0.9392 0.5897 0.8525
C104_11 C 0.96635(16) 0.60808(16) 0.95457(16)
H67_11 H 0.8761 0.6158 0.9766
H68_11 H 0.8627 0.6108 0.9409
C105_11 C 0.7918(2) 0.79323(17) 0.9443(2)
C106_11 C 0.6868(2) 0.4908(2) 0.9058(2)
C107_11 C 0.9211(2) 0.4510(2) 0.71744(18)
C110_11 C 0.99490(17) 0.61122(15) 0.97981(16)
C111_11 C 0.7704(2) 0.79420(19) 0.9712(3)
C112_11 C 0.8199(2) 0.8091(2) 0.9445(3)
C113_11 C 0.6532(2) 0.4852(2) 0.9159(2)
C114_11 C 0.7022(2) 0.4740(2) 0.8791(3)
C115_11 C 0.8915(2) 0.4337(2) 0.71886(15)
C116_11 C 0.93818(18) 0.45455(18) 0.6861(2)
H70_11 H 0.9847 0.7560 0.7968
H71_9 H 0.7499 0.7837 0.9699
C122_11 C 0.8289(2) 0.8251(2) 0.9752(2)
H72_11 H 0.8338 0.8098 0.9250
H73_11 H 0.6430 0.4963 0.9337
C123_11 C 0.63580(19) 0.46213(19) 0.8979(2)
C124_11 C 0.6849(2) 0.4505(2) 0.8612(3)
H74_11 H 0.7245 0.4785 0.8730
H75_11 H 0.8801 0.4313 0.7398
C125_11 C 0.87904(17) 0.41986(18) 0.68897(19)
C126_11 C 0.92568(19) 0.44076(19) 0.65625(17)
H76_11 H 0.9580 0.4662 0.6852
H82_11 H 0.8496 0.8352 0.9762
H83_11 H 0.6132 0.4584 0.9036
C131_11 C 0.65079(17) 0.44449(17) 0.8716(2)
H84_11 H 0.6952 0.4395 0.8435
H85_11 H 0.8593 0.4083 0.6899
C132_11 C 0.89611(17) 0.42341(16) 0.65767(15)
H86_11 H 0.9371 0.4431 0.6353
C135_11 C 0.63267(17) 0.41898(17) 0.85397(18)
C136_11 C 0.8813(3) 0.40896(18) 0.6254(2)
O43_6 O 0.64852(13) 0.40299(12) 0.83280(14)
O44_6 O 0.60143(11) 0.41567(11) 0.86218(12)
Co21_5 Co 0.57003(2) 0.38083(2) 0.84800(2)
O27_12 O 0.12558(13) 0.60481(13) 0.04057(16)
O28_12 O 0.07529(16) 0.59325(12) 0.09168(14)
O29_12 O 0.05802(13) 0.65515(11) 0.09521(13)
O30_12 O 0.10570(15) 0.66810(12) 0.04318(14)
C73_12 C 0.15085(19) 0.60168(17) 0.0596(2)
C74_12 C 0.08545(19) 0.58518(15) 0.1211(2)
C75_12 C 0.06217(16) 0.66712(15) 0.12413(19)
C76_12 C 0.1281(2) 0.68191(17) 0.0597(2)
C77_12 C 0.1807(2) 0.58313(16) 0.0446(2)
O31_12 O 0.15432(13) 0.61210(12) 0.08932(14)
C78_12 C 0.07186(18) 0.55497(16) 0.13357(18)
O32_12 O 0.10377(14) 0.60086(11) 0.14049(13)
C79_12 C 0.03408(16) 0.68645(15) 0.13791(18)
O33_12 O 0.08886(11) 0.66472(10) 0.14256(12)
C80_12 C 0.1427(2) 0.71072(19) 0.0438(2)
O34_12 O 0.14004(13) 0.67525(11) 0.08978(12)
C81_12 C 0.1800(2) 0.5740(2) 0.0102(2)
C82_12 C 0.2076(2) 0.5762(2) 0.0655(2)
Co14_12 Co 0.12639(2) 0.63914(2) 0.12208(2)
C83_12 C 0.0539(2) 0.53581(17) 0.1111(2)
C84_12 C 0.0779(2) 0.54443(16) 0.16714(19)
C85_12 C 0.03661(19) 0.70263(16) 0.16874(19)
C86_12 C 0.00383(18) 0.68829(18) 0.1190(2)
C87_12 C 0.1320(2) 0.7194(2) 0.0118(2)
C88_12 C 0.1679(3) 0.7273(2) 0.0595(3)
C90_12 C 0.2344(2) 0.5582(2) 0.0517(3)
H50_12 H 0.2083 0.5831 0.0883
N16_12 N 0.16572(13) 0.64557(12) 0.15878(13)
H51_12 H 0.0495 0.5423 0.0885
C91_12 C 0.0429(2) 0.50868(19) 0.1213(2)
C92_12 C 0.0649(2) 0.51614(17) 0.1782(2)
H52_12 H 0.0907 0.5563 0.1823
H53_12 H 0.0565 0.7015 0.1816
C93_12 C 0.0095(2) 0.72077(19) 0.1809(2)
H54_12 H 0.0013 0.6773 0.0985
H55_14 H 0.1164 0.7074 -0.0000
C96_12 C 0.1811(3) 0.7525(3) 0.0437(3)
H56_12 H 0.1761 0.7213 0.0811
C97_12 C 0.2338(2) 0.5487(2) 0.0190(2)
H58_12 H 0.2527 0.5530 0.0658
C98_12 C 0.19829(18) 0.6511(2) 0.15029(17)
C99_12 C 0.16075(18) 0.6402(2) 0.19315(17)
H59_12 H 0.0319 0.4960 0.1055
C100_12 C 0.0474(2) 0.49859(17) 0.1550(2)
H60_12 H 0.0681 0.5095 0.2009
H61_12 H 0.0112 0.7314 0.2017
C102_12 C 0.1702(3) 0.7611(3) 0.0117(3)
H64_12 H 0.1978 0.7640 0.0549
O35_12 O 0.26013(19) 0.53401(16) 0.00378(18)
N17_12 N 0.20525(19) 0.6593(3) 0.11759(18)
N18_12 N 0.22448(14) 0.65016(17) 0.17213(15)
N19_12 N 0.12959(16) 0.6375(3) 0.20489(17)
N20_12 N 0.18536(14) 0.63735(16) 0.21672(15)
O36_12 O 0.03250(17) 0.47136(14) 0.16302(16)
C103_12 C 0.2736(2) 0.5070(2) 0.0193(2)
H65_12 H 0.2258 0.6636 0.1117
H66_12 H 0.1892 0.6603 0.1025
C104_12 C 0.21635(16) 0.64192(16) 0.20457(16)
H67_12 H 0.1261 0.6342 0.2266
H68_12 H 0.1127 0.6392 0.1909
C105_12 C 0.0418(2) 0.45677(17) 0.1943(2)
C108_15 C 0.3056(2) 0.50002(19) 0.0072(2)
C109_12 C 0.2568(2) 0.48912(19) 0.0405(3)
C110_12 C 0.24490(17) 0.63878(15) 0.22981(16)
C111_12 C 0.0204(2) 0.45580(19) 0.2212(3)
C112_12 C 0.0699(2) 0.4409(2) 0.1945(3)
C117_12 C 0.3209(2) 0.47265(18) 0.0195(2)
C118_12 C 0.27230(19) 0.46225(18) 0.0537(3)
H70_12 H 0.2347 0.4940 0.0468
C119_12 C 0.2772(2) 0.6474(3) 0.2215(2)
C120_12 C 0.23906(18) 0.6266(2) 0.26204(18)
C121_12 C 0.02800(19) 0.43939(16) 0.2514(2)
C122_12 C 0.0789(2) 0.4249(2) 0.2252(2)
H72_12 H 0.0838 0.4402 0.1750
H77_12 H 0.3424 0.4671 0.0119
C127_12 C 0.30388(17) 0.45452(15) 0.04232(18)
H78_12 H 0.2611 0.4501 0.0699
H79_12 H 0.2822 0.6560 0.2000
C128_12 C 0.3028(2) 0.6428(2) 0.2469(2)
H80_12 H 0.2172 0.6210 0.2686
C129_12 C 0.26564(19) 0.6228(2) 0.2845(2)
H81_12 H 0.0129 0.4390 0.2700
C130_12 C 0.05786(16) 0.42407(14) 0.25311(16)
H82_12 H 0.0996 0.4148 0.2262
C133_12 C 0.32070(16) 0.42586(14) 0.05537(18)
H87_12 H 0.3246 0.6501 0.2424
H88_12 H 0.2612 0.6154 0.3067
C134_12 C 0.06831(18) 0.40586(15) 0.28432(18)
O39_5 O 0.35030(12) 0.42056(11) 0.04449(13)
O40_5 O 0.30482(11) 0.40925(11) 0.07617(14)
O41_12 O 0.09578(13) 0.39272(12) 0.28350(14)
O42_12 O 0.04761(12) 0.40516(11) 0.30977(12)
Co15_5 Co 0.37929(2) 0.38524(2) 0.06024(2)
Co16_5 Co 0.32003(2) 0.36917(2) 0.09800(2)
N21_5 N 0.16379(13) 0.36276(13) 0.26969(14)
N22_12 N 0.03269(13) 0.38447(13) 0.38723(14)
C138_12 C 0.03974(19) 0.3938(3) 0.4201(2)
N25_12 N 0.07151(19) 0.4035(3) 0.4280(2)
N26_12 N 0.01708(16) 0.3948(2) 0.44608(16)
H90_12 H 0.0052 0.3661 0.3344
H91_12 H 0.0761 0.4098 0.4486
H92_12 H 0.0871 0.4034 0.4124
N27_8 N 0.29750(14) 0.62915(13) 0.27594(14)
Co17_8 Co 0.33693(2) 0.62102(2) 0.31144(2)
O48_8 O 0.14852(13) 0.40299(12) 0.33280(14)
O51_8 O 0.10143(11) 0.41567(11) 0.36218(12)
H49_12 H 0.1624 0.5802 0.9958
C89_12 C 0.2058(3) 0.5557(3) 0.9974(2)
H55_15 H 0.1164 0.7074 1.0000
C95_12 C 0.1442(3) 0.7462(3) 0.9964(3)
H57_12 H 0.2047 0.5480 0.9749
H63_12 H 0.1346 0.7535 0.9760
O38_12 O 0.1851(2) 0.7873(2) 0.9983(2)
C107_12 C 0.1711(2) 0.7990(2) 0.96744(18)
C115_12 C 0.1415(2) 0.8163(2) 0.96886(15)
C116_12 C 0.18818(18) 0.79545(18) 0.9361(2)
H69_12 H 0.3168 0.5128 0.9916
H75_12 H 0.1301 0.8187 0.9898
C125_12 C 0.12904(17) 0.83014(18) 0.93897(19)
C126_12 C 0.17568(19) 0.80924(19) 0.90625(17)
H76_12 H 0.2080 0.7838 0.9352
H85_12 H 0.1093 0.8417 0.9399
C132_12 C 0.14611(17) 0.82659(16) 0.90767(15)
H86_12 H 0.1871 0.8069 0.8853
C136_12 C 0.1313(3) 0.84104(18) 0.8754(2)
C94_12 C 0.9767(2) 0.7072(2) 0.1315(2)
C101_12 C 0.9811(2) 0.72228(19) 0.1615(2)
H62_12 H 0.9566 0.7089 0.1192
O37_12 O 0.95441(18) 0.73897(17) 0.17619(16)
C106_12 C 0.9368(2) 0.7592(2) 0.1558(2)
C113_12 C 0.9032(2) 0.7648(2) 0.1659(2)
C114_12 C 0.9522(2) 0.7760(2) 0.1291(3)
H71_10 H 0.9999 0.4663 0.2199
H73_12 H 0.8930 0.7537 0.1837
C123_12 C 0.88580(19) 0.78787(19) 0.1479(2)
C124_12 C 0.9349(2) 0.7995(2) 0.1112(3)
H74_12 H 0.9745 0.7715 0.1230
H83_12 H 0.8632 0.7916 0.1536
C131_12 C 0.90079(17) 0.80551(17) 0.1216(2)
H84_12 H 0.9452 0.8105 0.0935
C135_12 C 0.88267(17) 0.83102(17) 0.10397(18)
C137_10 C 0.99988(16) 0.37693(16) 0.38199(17)
N23_10 N 0.99051(14) 0.36712(18) 0.35089(15)
N24_10 N 0.97510(13) 0.37771(14) 0.40607(14)
H89_10 H 0.9698 0.3618 0.3472
C139_10 C 0.98591(17) 0.38615(18) 0.43730(17)
C140_10 C 0.96079(17) 0.3865(2) 0.46579(17)
C141_10 C 0.92668(17) 0.38642(18) 0.45983(19)
C142_10 C 0.9711(2) 0.3851(4) 0.4995(2)
H93_10 H 0.9185 0.3855 0.4372
C143_10 C 0.90452(18) 0.38768(17) 0.48702(18)
C144_12 C 0.94688(19) 0.3871(3) 0.5261(2)
H94_12 H 0.9940 0.3827 0.5048
H95_10 H 0.8814 0.3889 0.4821
H96_12 H 0.9543 0.3884 0.5490
C120_13 C 0.48906(18) 0.1234(2) 0.01204(18)
C121_13 C 0.27800(19) 0.31061(16) 0.0014(2)
H80_13 H 0.4672 0.1290 0.0186
C129_13 C 0.51564(19) 0.1272(2) 0.0345(2)
H81_13 H 0.2629 0.3110 0.0200
C130_13 C 0.30786(16) 0.32593(14) 0.00311(16)
H88_13 H 0.5112 0.1346 0.0567
C134_13 C 0.31831(18) 0.34414(15) 0.03432(18)
O41_13 O 0.34578(13) 0.35728(12) 0.03350(14)
O42_13 O 0.29761(12) 0.34484(11) 0.05977(12)
N21_6 N 0.41379(13) 0.38724(13) 0.01969(14)
N22_13 N 0.28269(13) 0.36553(13) 0.13723(14)
C137_11 C 0.24988(16) 0.37307(16) 0.13199(17)
C138_13 C 0.28974(19) 0.3562(3) 0.1701(2)
N23_11 N 0.24051(14) 0.38288(18) 0.10089(15)
N24_11 N 0.22510(13) 0.37229(14) 0.15607(14)
N25_13 N 0.32151(19) 0.3465(3) 0.1780(2)
N26_13 N 0.26708(16) 0.3552(2) 0.19608(16)
H89_11 H 0.2198 0.3882 0.0972
H90_13 H 0.2552 0.3839 0.0844
C139_11 C 0.23591(17) 0.36385(18) 0.18730(17)
H91_13 H 0.3261 0.3402 0.1986
H92_13 H 0.3371 0.3466 0.1624
C140_11 C 0.21079(17) 0.3635(2) 0.21579(17)
C141_11 C 0.17668(17) 0.36358(18) 0.20983(19)
C142_11 C 0.2211(2) 0.3649(4) 0.2495(2)
H93_11 H 0.1685 0.3645 0.1872
C143_11 C 0.15452(18) 0.36232(17) 0.23702(18)
C144_13 C 0.19688(19) 0.3629(3) 0.2761(2)
H94_13 H 0.2440 0.3673 0.2548
H95_11 H 0.1314 0.3611 0.2321
H96_13 H 0.2043 0.3616 0.2990
N27_9 N 0.54750(14) 0.12085(13) 0.02594(14)
Co17_9 Co 0.58693(2) 0.12898(2) 0.06144(2)
O48_9 O 0.39852(13) 0.34701(12) 0.08280(14)
O49_7 O 0.40053(16) 0.40987(13) 0.09877(15)
O51_9 O 0.35143(11) 0.33433(11) 0.11218(12)
O52_7 O 0.35441(18) 0.39635(15) 0.12690(17)
O27_13 O 0.37558(13) 0.14519(13) 0.79057(16)
O28_13 O 0.32529(16) 0.15675(12) 0.84168(14)
O29_13 O 0.30802(13) 0.09485(11) 0.84521(13)
O30_13 O 0.35570(15) 0.08190(12) 0.79318(14)
C73_13 C 0.40085(19) 0.14832(17) 0.8096(2)
C74_13 C 0.33545(19) 0.16482(15) 0.8711(2)
C75_13 C 0.31217(16) 0.08288(15) 0.87413(19)
C76_13 C 0.3781(2) 0.06809(17) 0.8097(2)
C77_13 C 0.4307(2) 0.16687(16) 0.7946(2)
O31_13 O 0.40432(13) 0.13790(12) 0.83932(14)
C78_13 C 0.32186(18) 0.19503(16) 0.88357(18)
O32_13 O 0.35377(14) 0.14914(11) 0.89049(13)
C79_13 C 0.28408(16) 0.06355(15) 0.88791(18)
O33_13 O 0.33886(11) 0.08528(10) 0.89256(12)
C80_13 C 0.3927(2) 0.03928(19) 0.7938(2)
O34_13 O 0.39004(13) 0.07475(11) 0.83978(12)
C81_13 C 0.4300(2) 0.1760(2) 0.7602(2)
C82_13 C 0.4576(2) 0.1738(2) 0.8155(2)
Co14_13 Co 0.37639(2) 0.11086(2) 0.87208(2)
C83_13 C 0.3039(2) 0.21419(17) 0.8611(2)
C84_13 C 0.3279(2) 0.20557(16) 0.91714(19)
C85_13 C 0.28661(19) 0.04737(16) 0.91874(19)
C86_13 C 0.25383(18) 0.06171(18) 0.8690(2)
C87_13 C 0.3820(2) 0.0306(2) 0.7618(2)
C88_13 C 0.4179(3) 0.0227(2) 0.8095(3)
H49_13 H 0.4124 0.1698 0.7458
C89_13 C 0.4558(3) 0.1943(3) 0.7474(2)
C90_13 C 0.4844(2) 0.1918(2) 0.8017(3)
H50_13 H 0.4583 0.1669 0.8383
N16_13 N 0.41572(13) 0.10443(12) 0.90878(13)
H51_13 H 0.2995 0.2077 0.8385
C91_13 C 0.2929(2) 0.24132(19) 0.8713(2)
C92_13 C 0.3149(2) 0.23386(17) 0.9282(2)
H52_13 H 0.3407 0.1937 0.9323
H53_13 H 0.3065 0.0485 0.9316
C93_13 C 0.2595(2) 0.02923(19) 0.9309(2)
C94_13 C 0.2267(2) 0.0428(2) 0.8815(2)
H54_13 H 0.2513 0.0727 0.8485
H55_16 H 0.3664 0.0426 0.7500
C95_13 C 0.3942(3) 0.0038(3) 0.7464(3)
H56_13 H 0.4261 0.0287 0.8311
H57_13 H 0.4547 0.2020 0.7249
C97_13 C 0.4838(2) 0.2013(2) 0.7690(2)
H58_13 H 0.5027 0.1970 0.8158
C98_13 C 0.44829(18) 0.0989(2) 0.90029(17)
C99_13 C 0.41075(18) 0.1098(2) 0.94315(17)
H59_13 H 0.2819 0.2540 0.8555
C100_13 C 0.2974(2) 0.25141(17) 0.9050(2)
H60_13 H 0.3181 0.2405 0.9509
H61_13 H 0.2612 0.0186 0.9517
C101_13 C 0.2311(2) 0.02772(19) 0.9115(2)
H62_13 H 0.2066 0.0411 0.8692
O35_13 O 0.51013(19) 0.21599(16) 0.75378(18)
N17_13 N 0.45525(19) 0.0907(3) 0.86759(18)
N18_13 N 0.47448(14) 0.09984(17) 0.92213(15)
N19_13 N 0.37959(16) 0.1125(3) 0.95489(17)
N20_13 N 0.43536(14) 0.11265(16) 0.96672(15)
O36_13 O 0.28250(17) 0.27864(14) 0.91302(16)
O37_13 O 0.20441(18) 0.01103(17) 0.92619(16)
C103_13 C 0.5236(2) 0.2430(2) 0.7693(2)
H65_13 H 0.4758 0.0864 0.8617
H66_13 H 0.4392 0.0897 0.8525
C104_13 C 0.46635(16) 0.10808(16) 0.95457(16)
H67_13 H 0.3761 0.1158 0.9766
H68_13 H 0.3627 0.1108 0.9409
C105_13 C 0.2918(2) 0.29323(17) 0.9443(2)
C108_16 C 0.5556(2) 0.24998(19) 0.7572(2)
C109_13 C 0.5068(2) 0.26088(19) 0.7905(3)
C110_13 C 0.49490(17) 0.11122(15) 0.97981(16)
C111_13 C 0.2704(2) 0.29420(19) 0.9712(3)
C112_13 C 0.3199(2) 0.3091(2) 0.9445(3)
H69_13 H 0.5668 0.2372 0.7416
C117_13 C 0.5709(2) 0.27735(18) 0.7695(2)
C118_13 C 0.52230(19) 0.28775(18) 0.8037(3)
H70_13 H 0.4847 0.2560 0.7968
C119_13 C 0.5272(2) 0.1026(3) 0.9715(2)
H71_11 H 0.2499 0.2837 0.9699
C122_13 C 0.3289(2) 0.3251(2) 0.9752(2)
H72_13 H 0.3338 0.3098 0.9250
H77_13 H 0.5924 0.2829 0.7619
C127_13 C 0.55388(17) 0.29548(15) 0.79232(18)
H78_13 H 0.5111 0.2999 0.8199
H79_13 H 0.5322 0.0940 0.9500
C128_13 C 0.5528(2) 0.1072(2) 0.9969(2)
H82_13 H 0.3496 0.3352 0.9762
C133_13 C 0.57070(16) 0.32414(14) 0.80537(18)
H87_13 H 0.5746 0.0999 0.9924
O39_6 O 0.60030(12) 0.32944(11) 0.79449(13)
O40_6 O 0.55482(11) 0.34075(11) 0.82617(14)
C96_13 C 0.4311(3) 0.9975(3) 0.7937(3)
H63_13 H 0.3846 0.9965 0.7260
C102_13 C 0.4202(3) 0.9889(3) 0.7617(3)
H64_13 H 0.4478 0.9860 0.8049
O38_13 O 0.4351(2) 0.9627(2) 0.7483(2)
C106_13 C 0.1868(2) 0.9908(2) 0.9058(2)
C107_13 C 0.4211(2) 0.9510(2) 0.71744(18)
C113_13 C 0.1532(2) 0.9852(2) 0.9159(2)
C114_13 C 0.2022(2) 0.9740(2) 0.8791(3)
C115_13 C 0.3915(2) 0.9337(2) 0.71886(15)
C116_13 C 0.43818(18) 0.95455(18) 0.6861(2)
H73_13 H 0.1430 0.9963 0.9337
C123_13 C 0.13580(19) 0.96213(19) 0.8979(2)
C124_13 C 0.1849(2) 0.9505(2) 0.8612(3)
H74_13 H 0.2245 0.9785 0.8730
H75_13 H 0.3801 0.9313 0.7398
C125_13 C 0.37904(17) 0.91986(18) 0.68897(19)
C126_13 C 0.42568(19) 0.94076(19) 0.65625(17)
H76_13 H 0.4580 0.9662 0.6852
H83_13 H 0.1132 0.9584 0.9036
C131_13 C 0.15079(17) 0.94449(17) 0.8716(2)
H84_13 H 0.1952 0.9395 0.8435
H85_13 H 0.3593 0.9083 0.6899
C132_13 C 0.39611(17) 0.92341(16) 0.65767(15)
H86_13 H 0.4371 0.9431 0.6353
C135_13 C 0.13267(17) 0.91898(17) 0.85397(18)
C136_13 C 0.3813(3) 0.90896(18) 0.6254(2)
O45_7 O 0.35441(18) 0.89635(15) 0.62690(17)
O46_7 O 0.40053(16) 0.90987(13) 0.59877(15)
O27_14 O 0.62558(13) 0.10481(13) 0.04057(16)
O28_14 O 0.57529(16) 0.09325(12) 0.09168(14)
O29_14 O 0.55802(13) 0.15515(11) 0.09521(13)
O30_14 O 0.60570(15) 0.16810(12) 0.04318(14)
C73_14 C 0.65085(19) 0.10168(17) 0.0596(2)
C74_14 C 0.58545(19) 0.08518(15) 0.1211(2)
C75_14 C 0.56217(16) 0.16712(15) 0.12413(19)
C76_14 C 0.6281(2) 0.18191(17) 0.0597(2)
C77_14 C 0.6807(2) 0.08313(16) 0.0446(2)
O31_14 O 0.65432(13) 0.11210(12) 0.08932(14)
C78_14 C 0.57186(18) 0.05497(16) 0.13357(18)
O32_14 O 0.60377(14) 0.10086(11) 0.14049(13)
C79_14 C 0.53408(16) 0.18645(15) 0.13791(18)
O33_14 O 0.58886(11) 0.16472(10) 0.14256(12)
C80_14 C 0.6427(2) 0.21072(19) 0.0438(2)
O34_14 O 0.64004(13) 0.17525(11) 0.08978(12)
C81_14 C 0.6800(2) 0.0740(2) 0.0102(2)
C82_14 C 0.7076(2) 0.0762(2) 0.0655(2)
Co14_14 Co 0.62639(2) 0.13914(2) 0.12208(2)
C83_14 C 0.5539(2) 0.03581(17) 0.1111(2)
C84_14 C 0.5779(2) 0.04443(16) 0.16714(19)
C85_14 C 0.53661(19) 0.20263(16) 0.16874(19)
C86_14 C 0.50383(18) 0.18829(18) 0.1190(2)
C87_14 C 0.6320(2) 0.2194(2) 0.0118(2)
C88_14 C 0.6679(3) 0.2273(2) 0.0595(3)
C90_14 C 0.7344(2) 0.0582(2) 0.0517(3)
H50_14 H 0.7083 0.0831 0.0883
N16_14 N 0.66572(13) 0.14557(12) 0.15878(13)
H51_14 H 0.5495 0.0423 0.0885
C91_14 C 0.5429(2) 0.00868(19) 0.1213(2)
C92_14 C 0.5649(2) 0.01614(17) 0.1782(2)
H52_14 H 0.5907 0.0563 0.1823
H53_14 H 0.5565 0.2015 0.1816
C93_14 C 0.5095(2) 0.22077(19) 0.1809(2)
C94_14 C 0.4767(2) 0.2072(2) 0.1315(2)
H54_14 H 0.5013 0.1773 0.0985
H55_17 H 0.6164 0.2074 -0.0000
C96_14 C 0.6811(3) 0.2525(3) 0.0437(3)
H56_14 H 0.6761 0.2213 0.0811
C97_14 C 0.7338(2) 0.0487(2) 0.0190(2)
H58_14 H 0.7527 0.0530 0.0658
C98_14 C 0.69829(18) 0.1511(2) 0.15029(17)
C99_14 C 0.66075(18) 0.1402(2) 0.19315(17)
H60_14 H 0.5681 0.0095 0.2009
H61_14 H 0.5112 0.2314 0.2017
C101_14 C 0.4811(2) 0.22228(19) 0.1615(2)
H62_14 H 0.4566 0.2089 0.1192
C102_14 C 0.6702(3) 0.2611(3) 0.0117(3)
H64_14 H 0.6978 0.2640 0.0549
O35_14 O 0.76013(19) 0.03401(16) 0.00378(18)
N17_14 N 0.70525(19) 0.1593(3) 0.11759(18)
N18_14 N 0.72448(14) 0.15016(17) 0.17213(15)
N19_14 N 0.62959(16) 0.1375(3) 0.20489(17)
N20_14 N 0.68536(14) 0.13735(16) 0.21672(15)
O37_14 O 0.45441(18) 0.23897(17) 0.17619(16)
C103_14 C 0.7736(2) 0.0070(2) 0.0193(2)
H65_14 H 0.7258 0.1636 0.1117
H66_14 H 0.6892 0.1603 0.1025
C104_14 C 0.71635(16) 0.14192(16) 0.20457(16)
H67_14 H 0.6261 0.1342 0.2266
H68_14 H 0.6127 0.1392 0.1909
C106_14 C 0.4368(2) 0.2592(2) 0.1558(2)
C108_17 C 0.8056(2) 0.00002(19) 0.0072(2)
C110_14 C 0.74490(17) 0.13878(15) 0.22981(16)
C113_14 C 0.4032(2) 0.2648(2) 0.1659(2)
C114_14 C 0.4522(2) 0.2760(2) 0.1291(3)
C119_14 C 0.7772(2) 0.1474(3) 0.2215(2)
C120_14 C 0.73906(18) 0.1266(2) 0.26204(18)
H73_14 H 0.3930 0.2537 0.1837
C123_14 C 0.38580(19) 0.28787(19) 0.1479(2)
C124_14 C 0.4349(2) 0.2995(2) 0.1112(3)
H74_14 H 0.4745 0.2715 0.1230
H79_14 H 0.7822 0.1560 0.2000
C128_14 C 0.8028(2) 0.1428(2) 0.2469(2)
H80_14 H 0.7172 0.1210 0.2686
C129_14 C 0.76564(19) 0.1228(2) 0.2845(2)
H83_14 H 0.3632 0.2916 0.1536
C131_14 C 0.40079(17) 0.30551(17) 0.1216(2)
H84_14 H 0.4452 0.3105 0.0935
H87_14 H 0.8246 0.1501 0.2424
H88_14 H 0.7612 0.1154 0.3067
C135_14 C 0.38267(17) 0.33102(17) 0.10397(18)
H49_14 H 0.6624 0.0802 0.9958
C89_14 C 0.7058(3) 0.0557(3) 0.9974(2)
H55_18 H 0.6164 0.2074 1.0000
C95_14 C 0.6442(3) 0.2462(3) 0.9964(3)
H57_14 H 0.7047 0.0480 0.9749
H63_14 H 0.6346 0.2535 0.9760
O38_14 O 0.6851(2) 0.2873(2) 0.9983(2)
C107_14 C 0.6711(2) 0.2990(2) 0.96744(18)
C115_14 C 0.6415(2) 0.3163(2) 0.96886(15)
C116_14 C 0.68818(18) 0.29545(18) 0.9361(2)
H69_14 H 0.8168 0.0128 0.9916
H75_14 H 0.6301 0.3187 0.9898
C125_14 C 0.62904(17) 0.33014(18) 0.93897(19)
C126_14 C 0.67568(19) 0.30924(19) 0.90625(17)
H76_14 H 0.7080 0.2838 0.9352
H85_14 H 0.6093 0.3417 0.9399
C132_14 C 0.64611(17) 0.32659(16) 0.90767(15)
H86_14 H 0.6871 0.3069 0.8853
C136_14 C 0.6313(3) 0.34104(18) 0.8754(2)
O45_8 O 0.60441(18) 0.35365(15) 0.87690(17)
O46_8 O 0.65053(16) 0.34013(13) 0.84877(15)
H59_14 H 0.5319 0.9960 0.1055
C100_14 C 0.5474(2) 0.99859(17) 0.1550(2)
O36_14 O 0.53250(17) 0.97136(14) 0.16302(16)
C105_14 C 0.5418(2) 0.95677(17) 0.1943(2)
C108_18 C 0.8056(2) 1.00002(19) 0.0072(2)
C109_14 C 0.7568(2) 0.98912(19) 0.0405(3)
C111_14 C 0.5204(2) 0.95580(19) 0.2212(3)
C112_14 C 0.5699(2) 0.9409(2) 0.1945(3)
C117_14 C 0.8209(2) 0.97265(18) 0.0195(2)
C118_14 C 0.77230(19) 0.96225(18) 0.0537(3)
H70_14 H 0.7347 0.9940 0.0468
H71_12 H 0.4999 0.9663 0.2199
C121_14 C 0.52800(19) 0.93939(16) 0.2514(2)
C122_14 C 0.5789(2) 0.9249(2) 0.2252(2)
H72_14 H 0.5838 0.9402 0.1750
H77_14 H 0.8424 0.9671 0.0119
C127_14 C 0.80388(17) 0.95452(15) 0.04232(18)
H78_14 H 0.7611 0.9501 0.0699
H81_14 H 0.5129 0.9390 0.2700
C130_14 C 0.55786(16) 0.92407(14) 0.25311(16)
H82_14 H 0.5996 0.9148 0.2262
C133_14 C 0.82070(16) 0.92586(14) 0.05537(18)
C134_14 C 0.56831(18) 0.90586(15) 0.28432(18)
O41_14 O 0.59578(13) 0.89272(12) 0.28350(14)
O42_14 O 0.54761(12) 0.90516(11) 0.30977(12)
N22_14 N 0.53269(13) 0.88447(13) 0.38723(14)
C137_12 C 0.49988(16) 0.87693(16) 0.38199(17)
C138_14 C 0.53974(19) 0.8938(3) 0.4201(2)
N23_12 N 0.49051(14) 0.86712(18) 0.35089(15)
N24_12 N 0.47510(13) 0.87771(14) 0.40607(14)
N25_14 N 0.57151(19) 0.9035(3) 0.4280(2)
N26_14 N 0.51708(16) 0.8948(2) 0.44608(16)
H89_12 H 0.4698 0.8618 0.3472
H90_14 H 0.5052 0.8661 0.3344
C139_12 C 0.48591(17) 0.88615(18) 0.43730(17)
H91_14 H 0.5761 0.9098 0.4486
H92_14 H 0.5871 0.9034 0.4124
C140_12 C 0.46079(17) 0.8865(2) 0.46579(17)
C141_12 C 0.42668(17) 0.88642(18) 0.45983(19)
C142_12 C 0.4711(2) 0.8851(4) 0.4995(2)
H93_12 H 0.4185 0.8855 0.4372
C143_12 C 0.40452(18) 0.88768(17) 0.48702(18)
C144_14 C 0.44688(19) 0.8871(3) 0.5261(2)
H94_14 H 0.4940 0.8827 0.5048
H95_12 H 0.3814 0.8889 0.4821
H96_14 H 0.4543 0.8884 0.5490
O47_10 O 0.60030(12) 0.82944(11) 0.29449(13)
O49_8 O 0.65053(16) 0.84013(13) 0.34877(15)
O50_10 O 0.55482(11) 0.84075(11) 0.32617(14)
O52_8 O 0.60441(18) 0.85365(15) 0.37690(17)
N28_10 N 0.41379(13) 0.88724(13) 0.51969(14)
O27_15 O 0.37558(13) 0.64519(13) 0.29057(16)
O28_15 O 0.32529(16) 0.65675(12) 0.34168(14)
O29_15 O 0.30802(13) 0.59485(11) 0.34521(13)
O30_15 O 0.35570(15) 0.58190(12) 0.29318(14)
C73_15 C 0.40085(19) 0.64832(17) 0.3096(2)
C74_15 C 0.33545(19) 0.66482(15) 0.3711(2)
C75_15 C 0.31217(16) 0.58288(15) 0.37413(19)
C76_15 C 0.3781(2) 0.56809(17) 0.3097(2)
C77_15 C 0.4307(2) 0.66687(16) 0.2946(2)
O31_15 O 0.40432(13) 0.63790(12) 0.33932(14)
C78_15 C 0.32186(18) 0.69503(16) 0.38357(18)
O32_15 O 0.35377(14) 0.64914(11) 0.39049(13)
C79_15 C 0.28408(16) 0.56355(15) 0.38791(18)
O33_15 O 0.33886(11) 0.58528(10) 0.39256(12)
C80_15 C 0.3927(2) 0.53928(19) 0.2938(2)
O34_15 O 0.39004(13) 0.57475(11) 0.33978(12)
C81_15 C 0.4300(2) 0.6760(2) 0.2602(2)
C82_15 C 0.4576(2) 0.6738(2) 0.3155(2)
Co14_15 Co 0.37639(2) 0.61086(2) 0.37208(2)
C83_15 C 0.3039(2) 0.71419(17) 0.3611(2)
C84_15 C 0.3279(2) 0.70557(16) 0.41714(19)
C85_15 C 0.28661(19) 0.54737(16) 0.41874(19)
C86_15 C 0.25383(18) 0.56171(18) 0.3690(2)
C87_15 C 0.3820(2) 0.5306(2) 0.2618(2)
C88_15 C 0.4179(3) 0.5227(2) 0.3095(3)
H49_15 H 0.4124 0.6698 0.2458
C89_15 C 0.4558(3) 0.6943(3) 0.2474(2)
C90_15 C 0.4844(2) 0.6918(2) 0.3017(3)
H50_15 H 0.4583 0.6669 0.3383
N16_15 N 0.41572(13) 0.60443(12) 0.40878(13)
H51_15 H 0.2995 0.7077 0.3385
C91_15 C 0.2929(2) 0.74132(19) 0.3713(2)
C92_15 C 0.3149(2) 0.73386(17) 0.4282(2)
H52_15 H 0.3407 0.6937 0.4323
H53_15 H 0.3065 0.5485 0.4316
C93_15 C 0.2595(2) 0.52923(19) 0.4309(2)
C94_15 C 0.2267(2) 0.5428(2) 0.3815(2)
H54_15 H 0.2513 0.5727 0.3485
H55_19 H 0.3664 0.5426 0.2500
C95_15 C 0.3942(3) 0.5038(3) 0.2464(3)
C96_15 C 0.4311(3) 0.4975(3) 0.2937(3)
H56_15 H 0.4261 0.5287 0.3311
H57_15 H 0.4547 0.7020 0.2249
C97_15 C 0.4838(2) 0.7013(2) 0.2690(2)
H58_15 H 0.5027 0.6970 0.3158
C98_15 C 0.44829(18) 0.5989(2) 0.40029(17)
C99_15 C 0.41075(18) 0.6098(2) 0.44315(17)
H59_15 H 0.2819 0.7540 0.3555
C100_15 C 0.2974(2) 0.75141(17) 0.4050(2)
H60_15 H 0.3181 0.7405 0.4509
H61_15 H 0.2612 0.5186 0.4517
C101_15 C 0.2311(2) 0.52772(19) 0.4115(2)
H62_15 H 0.2066 0.5411 0.3692
H63_15 H 0.3846 0.4965 0.2260
C102_15 C 0.4202(3) 0.4889(3) 0.2617(3)
H64_15 H 0.4478 0.4860 0.3049
O35_15 O 0.51013(19) 0.71599(16) 0.25378(18)
N17_15 N 0.45525(19) 0.5907(3) 0.36759(18)
N18_15 N 0.47448(14) 0.59984(17) 0.42213(15)
N19_15 N 0.37959(16) 0.6125(3) 0.45489(17)
N20_15 N 0.43536(14) 0.61265(16) 0.46672(15)
O36_15 O 0.28250(17) 0.77864(14) 0.41302(16)
O37_15 O 0.20441(18) 0.51103(17) 0.42619(16)
O38_15 O 0.4351(2) 0.4627(2) 0.2483(2)
C103_15 C 0.5236(2) 0.7430(2) 0.2693(2)
H65_15 H 0.4758 0.5864 0.3617
H66_15 H 0.4392 0.5897 0.3525
C104_15 C 0.46635(16) 0.60808(16) 0.45457(16)
H67_15 H 0.3761 0.6158 0.4766
H68_15 H 0.3627 0.6108 0.4409
C105_15 C 0.2918(2) 0.79323(17) 0.4443(2)
C106_15 C 0.1868(2) 0.4908(2) 0.4058(2)
C107_15 C 0.4211(2) 0.4510(2) 0.21744(18)
C108_19 C 0.5556(2) 0.74998(19) 0.2572(2)
C109_15 C 0.5068(2) 0.76088(19) 0.2905(3)
C110_15 C 0.49490(17) 0.61122(15) 0.47981(16)
C111_15 C 0.2704(2) 0.79420(19) 0.4712(3)
C112_15 C 0.3199(2) 0.8091(2) 0.4445(3)
C113_15 C 0.1532(2) 0.4852(2) 0.4159(2)
C114_15 C 0.2022(2) 0.4740(2) 0.3791(3)
C115_15 C 0.3915(2) 0.4337(2) 0.21886(15)
C116_15 C 0.43818(18) 0.45455(18) 0.1861(2)
H69_15 H 0.5668 0.7372 0.2416
C117_15 C 0.5709(2) 0.77735(18) 0.2695(2)
C118_15 C 0.52230(19) 0.78775(18) 0.3037(3)
H70_15 H 0.4847 0.7560 0.2968
C119_15 C 0.5272(2) 0.6026(3) 0.4715(2)
C120_15 C 0.48906(18) 0.6234(2) 0.51204(18)
H71_13 H 0.2499 0.7837 0.4699
C121_15 C 0.27800(19) 0.81061(16) 0.5014(2)
C122_15 C 0.3289(2) 0.8251(2) 0.4752(2)
H72_15 H 0.3338 0.8098 0.4250
H73_15 H 0.1430 0.4963 0.4337
C123_15 C 0.13580(19) 0.46213(19) 0.3979(2)
C124_15 C 0.1849(2) 0.4505(2) 0.3612(3)
H74_15 H 0.2245 0.4785 0.3730
H75_15 H 0.3801 0.4313 0.2398
C125_15 C 0.37904(17) 0.41986(18) 0.18897(19)
C126_15 C 0.42568(19) 0.44076(19) 0.15625(17)
H76_15 H 0.4580 0.4662 0.1852
H77_15 H 0.5924 0.7829 0.2619
C127_15 C 0.55388(17) 0.79548(15) 0.29232(18)
H78_15 H 0.5111 0.7999 0.3199
H79_15 H 0.5322 0.5940 0.4500
C128_15 C 0.5528(2) 0.6072(2) 0.4969(2)
H80_15 H 0.4672 0.6290 0.5186
C129_15 C 0.51564(19) 0.6272(2) 0.5345(2)
H81_15 H 0.2629 0.8110 0.5200
C130_15 C 0.30786(16) 0.82593(14) 0.50311(16)
H82_15 H 0.3496 0.8352 0.4762
H83_15 H 0.1132 0.4584 0.4036
C131_15 C 0.15079(17) 0.44449(17) 0.3716(2)
H84_15 H 0.1952 0.4395 0.3435
H85_15 H 0.3593 0.4083 0.1899
C132_15 C 0.39611(17) 0.42341(16) 0.15767(15)
H86_15 H 0.4371 0.4431 0.1353
C133_15 C 0.57070(16) 0.82414(14) 0.30537(18)
H87_15 H 0.5746 0.5999 0.4924
H88_15 H 0.5112 0.6346 0.5567
C134_15 C 0.31831(18) 0.84414(15) 0.53432(18)
C135_15 C 0.13267(17) 0.41898(17) 0.35397(18)
C136_15 C 0.3813(3) 0.40896(18) 0.1254(2)
O41_15 O 0.34578(13) 0.85728(12) 0.53350(14)
O42_15 O 0.29761(12) 0.84484(11) 0.55977(12)
N22_15 N 0.28269(13) 0.86553(13) 0.63723(14)
C137_13 C 0.24988(16) 0.87307(16) 0.63199(17)
C138_15 C 0.28974(19) 0.8562(3) 0.6701(2)
N23_13 N 0.24051(14) 0.88288(18) 0.60089(15)
N24_13 N 0.22510(13) 0.87229(14) 0.65607(14)
N25_15 N 0.32151(19) 0.8465(3) 0.6780(2)
N26_15 N 0.26708(16) 0.8552(2) 0.69608(16)
H89_13 H 0.2198 0.8882 0.5972
H90_15 H 0.2552 0.8839 0.5844
C139_13 C 0.23591(17) 0.86385(18) 0.68730(17)
H91_15 H 0.3261 0.8402 0.6986
H92_15 H 0.3371 0.8466 0.6624
C140_13 C 0.21079(17) 0.8635(2) 0.71579(17)
C141_13 C 0.17668(17) 0.86358(18) 0.70983(19)
C142_13 C 0.2211(2) 0.8649(4) 0.7495(2)
H93_13 H 0.1685 0.8645 0.6872
C143_13 C 0.15452(18) 0.86232(17) 0.73702(18)
C144_15 C 0.19688(19) 0.8629(3) 0.7761(2)
H94_15 H 0.2440 0.8673 0.7548
H95_13 H 0.1314 0.8611 0.7321
H96_15 H 0.2043 0.8616 0.7990
N27_10 N 0.54750(14) 0.62085(13) 0.52594(14)
Co17_10 Co 0.58693(2) 0.62898(2) 0.56144(2)
O48_10 O 0.39852(13) 0.84701(12) 0.58280(14)
O51_10 O 0.35143(11) 0.83433(11) 0.61218(12)
C144_16 C 0.44688(19) 0.3871(3) 0.0261(2)
H94_16 H 0.4940 0.3827 0.0048
H96_16 H 0.4543 0.3884 0.0490
O27_16 O 0.62558(13) 0.60481(13) 0.54057(16)
O28_16 O 0.57529(16) 0.59325(12) 0.59168(14)
O29_16 O 0.55802(13) 0.65515(11) 0.59521(13)
O30_16 O 0.60570(15) 0.66810(12) 0.54318(14)
C73_16 C 0.65085(19) 0.60168(17) 0.5596(2)
C74_16 C 0.58545(19) 0.58518(15) 0.6211(2)
C75_16 C 0.56217(16) 0.66712(15) 0.62413(19)
C76_16 C 0.6281(2) 0.68191(17) 0.5597(2)
C77_16 C 0.6807(2) 0.58313(16) 0.5446(2)
O31_16 O 0.65432(13) 0.61210(12) 0.58932(14)
C78_16 C 0.57186(18) 0.55497(16) 0.63357(18)
O32_16 O 0.60377(14) 0.60086(11) 0.64049(13)
C79_16 C 0.53408(16) 0.68645(15) 0.63791(18)
O33_16 O 0.58886(11) 0.66472(10) 0.64256(12)
C80_16 C 0.6427(2) 0.71072(19) 0.5438(2)
O34_16 O 0.64004(13) 0.67525(11) 0.58978(12)
C81_16 C 0.6800(2) 0.5740(2) 0.5102(2)
C82_16 C 0.7076(2) 0.5762(2) 0.5655(2)
Co14_16 Co 0.62639(2) 0.63914(2) 0.62208(2)
C83_16 C 0.5539(2) 0.53581(17) 0.6111(2)
C84_16 C 0.5779(2) 0.54443(16) 0.66714(19)
C85_16 C 0.53661(19) 0.70263(16) 0.66874(19)
C86_16 C 0.50383(18) 0.68829(18) 0.6190(2)
C87_16 C 0.6320(2) 0.7194(2) 0.5118(2)
C88_16 C 0.6679(3) 0.7273(2) 0.5595(3)
H49_16 H 0.6624 0.5802 0.4958
C89_16 C 0.7058(3) 0.5557(3) 0.4974(2)
C90_16 C 0.7344(2) 0.5582(2) 0.5517(3)
H50_16 H 0.7083 0.5831 0.5883
N16_16 N 0.66572(13) 0.64557(12) 0.65878(13)
H51_16 H 0.5495 0.5423 0.5885
C91_16 C 0.5429(2) 0.50868(19) 0.6213(2)
C92_16 C 0.5649(2) 0.51614(17) 0.6782(2)
H52_16 H 0.5907 0.5563 0.6823
H53_16 H 0.5565 0.7015 0.6816
C93_16 C 0.5095(2) 0.72077(19) 0.6809(2)
C94_16 C 0.4767(2) 0.7072(2) 0.6315(2)
H54_16 H 0.5013 0.6773 0.5985
H55_20 H 0.6164 0.7074 0.5000
C95_16 C 0.6442(3) 0.7462(3) 0.4964(3)
C96_16 C 0.6811(3) 0.7525(3) 0.5437(3)
H56_16 H 0.6761 0.7213 0.5811
H57_16 H 0.7047 0.5480 0.4749
C97_16 C 0.7338(2) 0.5487(2) 0.5190(2)
H58_16 H 0.7527 0.5530 0.5658
C98_16 C 0.69829(18) 0.6511(2) 0.65029(17)
C99_16 C 0.66075(18) 0.6402(2) 0.69315(17)
H59_16 H 0.5319 0.4960 0.6055
C100_16 C 0.5474(2) 0.49859(17) 0.6550(2)
H60_16 H 0.5681 0.5095 0.7009
H61_16 H 0.5112 0.7314 0.7017
C101_16 C 0.4811(2) 0.72228(19) 0.6615(2)
H62_16 H 0.4566 0.7089 0.6192
H63_16 H 0.6346 0.7535 0.4760
C102_16 C 0.6702(3) 0.7611(3) 0.5117(3)
H64_16 H 0.6978 0.7640 0.5549
O35_16 O 0.76013(19) 0.53401(16) 0.50378(18)
N17_16 N 0.70525(19) 0.6593(3) 0.61759(18)
N18_16 N 0.72448(14) 0.65016(17) 0.67213(15)
N19_16 N 0.62959(16) 0.6375(3) 0.70489(17)
N20_16 N 0.68536(14) 0.63735(16) 0.71672(15)
O36_16 O 0.53250(17) 0.47136(14) 0.66302(16)
O37_16 O 0.45441(18) 0.73897(17) 0.67619(16)
O38_16 O 0.6851(2) 0.7873(2) 0.4983(2)
C103_16 C 0.7736(2) 0.5070(2) 0.5193(2)
H65_16 H 0.7258 0.6636 0.6117
H66_16 H 0.6892 0.6603 0.6025
C104_16 C 0.71635(16) 0.64192(16) 0.70457(16)
H67_16 H 0.6261 0.6342 0.7266
H68_16 H 0.6127 0.6392 0.6909
C105_16 C 0.5418(2) 0.45677(17) 0.6943(2)
C106_16 C 0.4368(2) 0.7592(2) 0.6558(2)
C107_16 C 0.6711(2) 0.7990(2) 0.46744(18)
C108_20 C 0.8056(2) 0.50002(19) 0.5072(2)
C109_16 C 0.7568(2) 0.48912(19) 0.5405(3)
C110_16 C 0.74490(17) 0.63878(15) 0.72981(16)
C111_16 C 0.5204(2) 0.45580(19) 0.7212(3)
C112_16 C 0.5699(2) 0.4409(2) 0.6945(3)
C113_16 C 0.4032(2) 0.7648(2) 0.6659(2)
C114_16 C 0.4522(2) 0.7760(2) 0.6291(3)
C115_16 C 0.6415(2) 0.8163(2) 0.46886(15)
C116_16 C 0.68818(18) 0.79545(18) 0.4361(2)
H69_16 H 0.8168 0.5128 0.4916
C117_16 C 0.8209(2) 0.47265(18) 0.5195(2)
C118_16 C 0.77230(19) 0.46225(18) 0.5537(3)
H70_16 H 0.7347 0.4940 0.5468
C119_16 C 0.7772(2) 0.6474(3) 0.7215(2)
C120_16 C 0.73906(18) 0.6266(2) 0.76204(18)
H71_14 H 0.4999 0.4663 0.7199
C121_16 C 0.52800(19) 0.43939(16) 0.7514(2)
C122_16 C 0.5789(2) 0.4249(2) 0.7252(2)
H72_16 H 0.5838 0.4402 0.6750
H73_16 H 0.3930 0.7537 0.6837
C123_16 C 0.38580(19) 0.78787(19) 0.6479(2)
C124_16 C 0.4349(2) 0.7995(2) 0.6112(3)
H74_16 H 0.4745 0.7715 0.6230
H75_16 H 0.6301 0.8187 0.4898
C125_16 C 0.62904(17) 0.83014(18) 0.43897(19)
C126_16 C 0.67568(19) 0.80924(19) 0.40625(17)
H76_16 H 0.7080 0.7838 0.4352
H77_16 H 0.8424 0.4671 0.5119
C127_16 C 0.80388(17) 0.45452(15) 0.54232(18)
H78_16 H 0.7611 0.4501 0.5699
H79_16 H 0.7822 0.6560 0.7000
C128_16 C 0.8028(2) 0.6428(2) 0.7469(2)
H80_16 H 0.7172 0.6210 0.7686
C129_16 C 0.76564(19) 0.6228(2) 0.7845(2)
H81_16 H 0.5129 0.4390 0.7700
C130_16 C 0.55786(16) 0.42407(14) 0.75311(16)
H82_16 H 0.5996 0.4148 0.7262
H83_16 H 0.3632 0.7916 0.6536
C131_16 C 0.40079(17) 0.80551(17) 0.6216(2)
H84_16 H 0.4452 0.8105 0.5935
H85_16 H 0.6093 0.8417 0.4399
C132_16 C 0.64611(17) 0.82659(16) 0.40767(15)
H86_16 H 0.6871 0.8069 0.3853
C133_16 C 0.82070(16) 0.42586(14) 0.55537(18)
H87_16 H 0.8246 0.6501 0.7424
H88_16 H 0.7612 0.6154 0.8067
C134_16 C 0.56831(18) 0.40586(15) 0.78432(18)
C135_16 C 0.38267(17) 0.83102(17) 0.60397(18)
C136_16 C 0.6313(3) 0.84104(18) 0.3754(2)
O41_16 O 0.59578(13) 0.39272(12) 0.78350(14)
O42_16 O 0.54761(12) 0.40516(11) 0.80977(12)
N22_16 N 0.53269(13) 0.38447(13) 0.88723(14)
C137_14 C 0.49988(16) 0.37693(16) 0.88199(17)
C138_16 C 0.53974(19) 0.3938(3) 0.9201(2)
N23_14 N 0.49051(14) 0.36712(18) 0.85089(15)
N24_14 N 0.47510(13) 0.37771(14) 0.90607(14)
N25_16 N 0.57151(19) 0.4035(3) 0.9280(2)
N26_16 N 0.51708(16) 0.3948(2) 0.94608(16)
H89_14 H 0.4698 0.3618 0.8472
H90_16 H 0.5052 0.3661 0.8344
C139_14 C 0.48591(17) 0.38615(18) 0.93730(17)
H91_16 H 0.5761 0.4098 0.9486
H92_16 H 0.5871 0.4034 0.9124
C140_14 C 0.46079(17) 0.3865(2) 0.96579(17)
C141_14 C 0.42668(17) 0.38642(18) 0.95983(19)
C142_14 C 0.4711(2) 0.3851(4) 0.9995(2)
H93_14 H 0.4185 0.3855 0.9372
C143_14 C 0.40452(18) 0.38768(17) 0.98702(18)
H95_14 H 0.3814 0.3889 0.9821
H71_15 H 0.9999 0.9663 0.7199
C137_15 C 0.99988(16) 0.87693(16) 0.88199(17)
N23_15 N 0.99051(14) 0.86712(18) 0.85089(15)
N24_15 N 0.97510(13) 0.87771(14) 0.90607(14)
H89_15 H 0.9698 0.8618 0.8472
C139_15 C 0.98591(17) 0.88615(18) 0.93730(17)
C140_15 C 0.96079(17) 0.8865(2) 0.96579(17)
C141_15 C 0.92668(17) 0.88642(18) 0.95983(19)
C142_15 C 0.9711(2) 0.8851(4) 0.9995(2)
H93_15 H 0.9185 0.8855 0.9372
C143_15 C 0.90452(18) 0.88768(17) 0.98702(18)
H95_15 H 0.8814 0.8889 0.9821
H71_16 H 0.0001 0.0337 0.7199
C137_16 C 0.00012(16) 0.12307(16) 0.88199(17)
N23_16 N 0.00949(14) 0.13288(18) 0.85089(15)
N24_16 N 0.02490(13) 0.12229(14) 0.90607(14)
H89_16 H 0.0302 0.1382 0.8472
C139_16 C 0.01409(17) 0.11385(18) 0.93730(17)
C140_16 C 0.03921(17) 0.1135(2) 0.96579(17)
C141_16 C 0.07332(17) 0.11358(18) 0.95983(19)
C142_16 C 0.0289(2) 0.1149(4) 0.9995(2)
H93_16 H 0.0815 0.1145 0.9372
C143_16 C 0.09548(18) 0.11232(17) 0.98702(18)
H95_16 H 0.1186 0.1111 0.9821
loop_
_geom_bond_atom_site_label_1
_geom_bond_atom_site_label_2
_geom_bond_site_symmetry_1
_geom_bond_site_symmetry_2
C66 H41 1_555 1_555
C68 H42 1_555 1_555
N11 C66 1_555 1_555
C69 C68 1_555 1_555
C71 C66 1_555 1_555
H43 C71 1_555 1_555
H44 C69 1_555 1_555
Co12 N11 1_555 1_555
C68 N11 1_555 1_555
C69 C72 1_555 1_555
C71 C72 1_555 1_555
Co2 O2 1_555 1_555
C1 C2 1_555 1_555
C2 C3 1_555 1_555
C3 H1 1_555 1_555
C4 C3 1_555 1_555
H2 C4 1_555 1_555
C5 C4 1_555 1_555
C6 C5 1_555 1_555
H3 C6 1_555 1_555
C7 C2 1_555 1_555
H4 C7 1_555 1_555
O1 C1 1_555 1_555
O2 C1 1_555 1_555
O3 C5 1_555 1_555
Co3 O1 1_555 1_555
Co5 O21 1_555 1_555
Co7 O19 1_555 1_555
C59 C60 1_555 1_555
C60 C61 1_555 1_555
C61 C51 1_555 1_555
H37 C61 1_555 1_555
O19 C62 1_555 1_555
C62 C59 1_555 1_555
O21 C62 1_555 1_555
C63 C59 1_555 1_555
H40 C60 1_555 1_555
C6 C7 1_555 1_555
H39 C64 1_555 1_555
Co1 N1 1_555 1_555
C8 C9 1_555 1_555
C9 H5 1_555 1_555
C10 C9 1_555 1_555
H6 C10 1_555 1_555
C11 C10 1_555 1_555
C12 C11 1_555 1_555
H7 C12 1_555 1_555
C13 C8 1_555 1_555
H8 C13 1_555 1_555
C14 C11 1_555 1_555
O4 C14 1_555 1_555
O5 C14 1_555 1_555
N1 C34 1_555 1_555
N2 C20 1_555 1_555
O6 C15 1_555 1_555
O7 C15 1_555 1_555
O8 C26 1_555 1_555
O9 C26 1_555 1_555
C15 C16 1_555 1_555
C16 C17 1_555 1_555
C17 C32 1_555 1_555
C18 C16 1_555 1_555
H9 C18 1_555 1_555
C19 H10 1_555 1_555
C20 N3 1_555 1_555
C22 C19 1_555 1_555
N3 H22 1_555 1_555
C24 C25 1_555 1_555
C25 C33 1_555 1_555
C26 C22 1_555 1_555
N4 C20 1_555 1_555
C27 C18 1_555 1_555
C28 C27 1_555 1_555
C30 C19 1_555 1_555
C31 N2 1_555 1_555
N5 C31 1_555 1_555
C32 C28 1_555 1_555
H13 C32 1_555 1_555
N6 C24 1_555 1_555
C33 C36 1_555 1_555
H14 C30 1_555 1_555
O11 C28 1_555 1_555
H15 C17 1_555 1_555
H16 C27 1_555 1_555
C34 C35 1_555 1_555
C35 C25 1_555 1_555
C36 N1 1_555 1_555
H17 C33 1_555 1_555
H18 C35 1_555 1_555
H19 C36 1_555 1_555
H20 N5 1_555 1_555
H21 C34 1_555 1_555
H23 N5 1_555 1_555
H24 N3 1_555 1_555
Co4 O5 1_555 1_555
Co6 O4 1_555 1_555
N7 Co4 1_555 1_555
C37 C38 1_555 1_555
O12 Co6 1_555 1_555
O13 Co4 1_555 1_555
H28 C43 1_555 1_555
C50 C38 1_555 1_555
H32 C50 1_555 1_555
C52 H33 1_555 1_555
C53 O11 1_555 1_555
C54 O17 1_555 1_555
O17 Co10 1_555 1_555
C55 C54 1_555 1_555
C56 C52 1_555 1_555
C57 C55 1_555 1_555
H34 C56 1_555 1_555
C58 C53 1_555 1_555
H35 C58 1_555 1_555
O18 C54 1_555 1_555
H36 C57 1_555 1_555
Co10 O22 1_555 1_555
Co11 O18 1_555 1_555
O20 Co11 1_555 1_555
O23 Co10 1_555 1_555
N8 Co10 1_555 1_555
O24 Co11 1_555 1_555
O25 Co11 1_555 1_555
N9 Co11 1_555 1_555
O26 Co10 1_555 1_555
C65 N10 1_555 1_555
N10 C67 1_555 1_555
C67 N9 1_555 1_555
N12 C67 1_555 1_555
N13 C65 1_555 1_555
C70 N9 1_555 1_555
H45 N12 1_555 1_555
H46 N12 1_555 1_555
N14 C70 1_555 1_555
H47 N14 1_555 1_555
H48 N14 1_555 1_555
C12 C13 1_555 1_555
N2 Co6 1_555 1_555
O6 Co6 1_555 1_555
O7 Co4 1_555 1_555
O8 Co4 1_555 1_555
O9 Co6 1_555 1_555
C22 C23 1_555 1_555
C24 N4 1_555 1_555
C29 C30 1_555 1_555
C31 N6 1_555 1_555
C37 O12 1_555 1_555
C37 O13 1_555 1_555
C43 C50 1_555 1_555
C52 C53 1_555 1_555
C55 C56 1_555 1_555
C57 C58 1_555 1_555
N13 C70 1_555 1_555
C21 H11 1_555 1_555
C39 H25 1_555 1_555
C40 H26 1_555 1_555
C41 H27 1_555 1_555
C42 O14 1_555 1_555
O14 C45 1_555 1_555
C44 C39 1_555 1_555
H29 C44 1_555 1_555
C45 C39 1_555 1_555
C46 C44 1_555 1_555
C47 C46 1_555 1_555
O15 C47 1_555 1_555
C48 C40 1_555 1_555
H30 C48 1_555 1_555
O16 C47 1_555 1_555
C49 C41 1_555 1_555
H31 C49 1_555 1_555
Co8 O15 1_555 1_555
Co9 O16 1_555 1_555
C41 C45 1_555 1_555
C42 C48 1_555 1_555
C46 C49 1_555 1_555
Co3 N1_2 1_555 1_555
C8_2 C9_2 1_555 1_555
C9_2 H5_2 1_555 1_555
C10_2 C9_2 1_555 1_555
H6_2 C10_2 1_555 1_555
C11_2 C10_2 1_555 1_555
C12_2 C11_2 1_555 1_555
H7_2 C12_2 1_555 1_555
C13_2 C8_2 1_555 1_555
H8_2 C13_2 1_555 1_555
C14_2 C11_2 1_555 1_555
O4_2 C14_2 1_555 1_555
O5_2 C14_2 1_555 1_555
N1_2 C34_2 1_555 1_555
N2_2 C20_2 1_555 1_555
O6_2 C15_2 1_555 1_555
O7_2 C15_2 1_555 1_555
C15_2 C16_2 1_555 1_555
C16_2 C17_2 1_555 1_555
C17_2 C32_2 1_555 1_555
C18_2 C16_2 1_555 1_555
H9_2 C18_2 1_555 1_555
C20_2 N3_2 1_555 1_555
N3_2 H22_2 1_555 1_555
C24_2 C25_2 1_555 1_555
C25_2 C33_2 1_555 1_555
N4_2 C20_2 1_555 1_555
C27_2 C18_2 1_555 1_555
C28_2 C27_2 1_555 1_555
C31_2 N2_2 1_555 1_555
N5_2 C31_2 1_555 1_555
C32_2 C28_2 1_555 1_555
H13_2 C32_2 1_555 1_555
N6_2 C24_2 1_555 1_555
C33_2 C36_2 1_555 1_555
O11_2 C28_2 1_555 1_555
H15_2 C17_2 1_555 1_555
H16_2 C27_2 1_555 1_555
C34_2 C35_2 1_555 1_555
C35_2 C25_2 1_555 1_555
C36_2 N1_2 1_555 1_555
H17_2 C33_2 1_555 1_555
H18_2 C35_2 1_555 1_555
H19_2 C36_2 1_555 1_555
H20_2 N5_2 1_555 1_555
H21_2 C34_2 1_555 1_555
H23_2 N5_2 1_555 1_555
H24_2 N3_2 1_555 1_555
Co5 O5_2 1_555 1_555
Co7 O4_2 1_555 1_555
N7_2 Co5 1_555 1_555
C37_2 C38_2 1_555 1_555
O12_2 Co7 1_555 1_555
O13_2 Co5 1_555 1_555
H28_2 C43_2 1_555 1_555
C50_2 C38_2 1_555 1_555
H32_2 C50_2 1_555 1_555
C52_2 H33_2 1_555 1_555
C53_2 O11_2 1_555 1_555
C54_2 O17_2 1_555 1_555
O17_2 Co10_2 1_555 1_555
C55_2 C54_2 1_555 1_555
C56_2 C52_2 1_555 1_555
C57_2 C55_2 1_555 1_555
H34_2 C56_2 1_555 1_555
C58_2 C53_2 1_555 1_555
H35_2 C58_2 1_555 1_555
O18_2 C54_2 1_555 1_555
H36_2 C57_2 1_555 1_555
Co10_2 O22_2 1_555 1_555
Co11_2 O18_2 1_555 1_555
O20_2 Co11_2 1_555 1_555
O23_2 Co10_2 1_555 1_555
N8_2 Co10_2 1_555 1_555
O24_2 Co11_2 1_555 1_555
O25_2 Co11_2 1_555 1_555
N9_2 Co11_2 1_555 1_555
O26_2 Co10_2 1_555 1_555
C65_2 N10_2 1_555 1_555
N10_2 C67_2 1_555 1_555
C67_2 N9_2 1_555 1_555
N12_2 C67_2 1_555 1_555
N13_2 C65_2 1_555 1_555
C70_2 N9_2 1_555 1_555
H45_2 N12_2 1_555 1_555
H46_2 N12_2 1_555 1_555
N14_2 C70_2 1_555 1_555
H47_2 N14_2 1_555 1_555
H48_2 N14_2 1_555 1_555
C12_2 C13_2 1_555 1_555
N2_2 Co7 1_555 1_555
O6_2 Co7 1_555 1_555
O7_2 Co5 1_555 1_555
C24_2 N4_2 1_555 1_555
C31_2 N6_2 1_555 1_555
C37_2 O12_2 1_555 1_555
C37_2 O13_2 1_555 1_555
C43_2 C50_2 1_555 1_555
C52_2 C53_2 1_555 1_555
C55_2 C56_2 1_555 1_555
C57_2 C58_2 1_555 1_555
N13_2 C70_2 1_555 1_555
C39_2 H25_2 1_555 1_555
C40_2 H26_2 1_555 1_555
C41_2 H27_2 1_555 1_555
C42_2 O14_2 1_555 1_555
O14_2 C45_2 1_555 1_555
C44_2 C39_2 1_555 1_555
H29_2 C44_2 1_555 1_555
C45_2 C39_2 1_555 1_555
C46_2 C44_2 1_555 1_555
C47_2 C46_2 1_555 1_555
O15_2 C47_2 1_555 1_555
C48_2 C40_2 1_555 1_555
H30_2 C48_2 1_555 1_555
O16_2 C47_2 1_555 1_555
C49_2 C41_2 1_555 1_555
H31_2 C49_2 1_555 1_555
Co8_2 O15_2 1_555 1_555
Co9_2 O16_2 1_555 1_555
C41_2 C45_2 1_555 1_555
C42_2 C48_2 1_555 1_555
C46_2 C49_2 1_555 1_555
Co2_2 O2_2 1_555 1_555
C1_2 C2_2 1_555 1_555
C2_2 C3_2 1_555 1_555
C3_2 H1_2 1_555 1_555
C4_2 C3_2 1_555 1_555
H2_2 C4_2 1_555 1_555
C5_2 C4_2 1_555 1_555
C6_2 C5_2 1_555 1_555
H3_2 C6_2 1_555 1_555
C7_2 C2_2 1_555 1_555
H4_2 C7_2 1_555 1_555
O1_2 C1_2 1_555 1_555
O2_2 C1_2 1_555 1_555
O3_2 C5_2 1_555 1_555
Co1 O1_2 1_555 1_555
C6_2 C7_2 1_555 1_555
C66_2 H41_2 1_555 1_555
C68_2 H42_2 1_555 1_555
N11_2 C66_2 1_555 1_555
C69_2 C68_2 1_555 1_555
C71_2 C66_2 1_555 1_555
H43_2 C71_2 1_555 1_555
H44_2 C69_2 1_555 1_555
Co12_2 N11_2 1_555 1_555
C68_2 N11_2 1_555 1_555
C69_2 C72_2 1_555 1_555
C71_2 C72_2 1_555 1_555
Co1_2 N1_3 1_555 1_555
Co2_3 O2_3 1_555 1_555
C1_3 C2_3 1_555 1_555
C2_3 C3_3 1_555 1_555
C3_3 H1_3 1_555 1_555
C4_3 C3_3 1_555 1_555
H2_3 C4_3 1_555 1_555
C5_3 C4_3 1_555 1_555
C6_3 C5_3 1_555 1_555
H3_3 C6_3 1_555 1_555
C7_3 C2_3 1_555 1_555
H4_3 C7_3 1_555 1_555
C8_3 C9_3 1_555 1_555
C9_3 H5_3 1_555 1_555
C10_3 C9_3 1_555 1_555
H6_3 C10_3 1_555 1_555
C11_3 C10_3 1_555 1_555
C12_3 C11_3 1_555 1_555
H7_3 C12_3 1_555 1_555
C13_3 C8_3 1_555 1_555
H8_3 C13_3 1_555 1_555
C14_3 C11_3 1_555 1_555
O1_3 C1_3 1_555 1_555
O2_3 C1_3 1_555 1_555
O3_3 C5_3 1_555 1_555
O4_3 C14_3 1_555 1_555
O5_3 C14_3 1_555 1_555
N1_3 C34_3 1_555 1_555
N2_3 C20_3 1_555 1_555
O6_3 C15_3 1_555 1_555
O7_3 C15_3 1_555 1_555
O8_2 C26_2 1_555 1_555
O9_2 C26_2 1_555 1_555
C15_3 C16_3 1_555 1_555
C16_3 C17_3 1_555 1_555
C17_3 C32_3 1_555 1_555
C18_3 C16_3 1_555 1_555
H9_3 C18_3 1_555 1_555
C19_2 H10_2 1_555 1_555
C20_3 N3_3 1_555 1_555
C21_2 H11_2 1_555 1_555
C22_2 C19_2 1_555 1_555
C23_2 C21_2 1_555 1_555
N3_3 H22_3 1_555 1_555
H12_2 C23_2 1_555 1_555
C24_3 C25_3 1_555 1_555
C25_3 C33_3 1_555 1_555
C26_2 C22_2 1_555 1_555
N4_3 C20_3 1_555 1_555
C27_3 C18_3 1_555 1_555
C28_3 C27_3 1_555 1_555
C29_2 C21_2 1_555 1_555
C30_2 C19_2 1_555 1_555
C31_3 N2_3 1_555 1_555
N5_3 C31_3 1_555 1_555
C32_3 C28_3 1_555 1_555
H13_3 C32_3 1_555 1_555
N6_3 C24_3 1_555 1_555
O10_3 C29_2 1_555 1_555
C33_3 C36_3 1_555 1_555
H14_2 C30_2 1_555 1_555
O11_3 C28_3 1_555 1_555
H15_3 C17_3 1_555 1_555
H16_3 C27_3 1_555 1_555
C34_3 C35_3 1_555 1_555
C35_3 C25_3 1_555 1_555
C36_3 N1_3 1_555 1_555
H17_3 C33_3 1_555 1_555
H18_3 C35_3 1_555 1_555
H19_3 C36_3 1_555 1_555
H20_3 N5_3 1_555 1_555
H21_3 C34_3 1_555 1_555
H23_3 N5_3 1_555 1_555
H24_3 N3_3 1_555 1_555
Co3_2 O1_3 1_555 1_555
Co3 O5_3 1_555 1_555
Co12_2 O21_2 1_555 1_555
Co2 O4_3 1_555 1_555
Co7_2 O19_2 1_555 1_555
C51_2 O10_3 1_555 1_555
C59_2 C60_2 1_555 1_555
C60_2 C61_2 1_555 1_555
C61_2 C51_2 1_555 1_555
H37_2 C61_2 1_555 1_555
O19_2 C62_2 1_555 1_555
C62_2 C59_2 1_555 1_555
O21_2 C62_2 1_555 1_555
C63_2 C59_2 1_555 1_555
H38_2 C63_2 1_555 1_555
C64_2 C51_2 1_555 1_555
H39_2 C64_2 1_555 1_555
H40_2 C60_2 1_555 1_555
C6_3 C7_3 1_555 1_555
C8_3 O3_3 1_555 1_555
C12_3 C13_3 1_555 1_555
N2_3 Co2 1_555 1_555
O6_3 Co2 1_555 1_555
O7_3 Co3 1_555 1_555
O8_2 Co3 1_555 1_555
O9_2 Co2 1_555 1_555
C22_2 C23_2 1_555 1_555
C24_3 N4_3 1_555 1_555
C29_2 C30_2 1_555 1_555
C31_3 N6_3 1_555 1_555
C63_2 C64_2 1_555 1_555
C52_3 H33_3 1_555 1_555
C53_3 O11_4 1_555 1_555
C54_3 O17_3 1_555 1_555
O17_3 Co1 1_555 1_555
C55_3 C54_3 1_555 1_555
C56_3 C52_3 1_555 1_555
C57_3 C55_3 1_555 1_555
H34_3 C56_3 1_555 1_555
C58_3 C53_3 1_555 1_555
H35_3 C58_3 1_555 1_555
O18_3 C54_3 1_555 1_555
H36_3 C57_3 1_555 1_555
Co2_2 O18_3 1_555 1_555
O23_3 Co1 1_555 1_555
O24_3 Co2_2 1_555 1_555
O25_3 Co2_2 1_555 1_555
N9_3 Co2_2 1_555 1_555
O26_3 Co1 1_555 1_555
C65_3 N10_3 1_555 1_555
N10_3 C67_3 1_555 1_555
C66_3 H41_3 1_555 1_555
C67_3 N9_3 1_555 1_555
C68_3 H42_3 1_555 1_555
N11_3 C66_3 1_555 1_555
N12_3 C67_3 1_555 1_555
N13_3 C65_3 1_555 1_555
C69_3 C68_3 1_555 1_555
C70_3 N9_3 1_555 1_555
C71_3 C66_3 1_555 1_555
H43_3 C71_3 1_555 1_555
H44_3 C69_3 1_555 1_555
H45_3 N12_3 1_555 1_555
C72_3 C65_3 1_555 1_555
H46_3 N12_3 1_555 1_555
N14_3 C70_3 1_555 1_555
H47_3 N14_3 1_555 1_555
H48_3 N14_3 1_555 1_555
Co12_3 N11_3 1_555 1_555
C52_3 C53_3 1_555 1_555
C55_3 C56_3 1_555 1_555
C57_3 C58_3 1_555 1_555
C68_3 N11_3 1_555 1_555
N13_3 C70_3 1_555 1_555
C69_3 C72_3 1_555 1_555
C71_3 C72_3 1_555 1_555
C53_4 O11_5 1_555 1_555
C54_4 O17_4 1_555 1_555
O17_4 Co12 1_555 1_555
C55_4 C54_4 1_555 1_555
C56_4 C52_4 1_555 1_555
C57_4 C55_4 1_555 1_555
H34_4 C56_4 1_555 1_555
C58_4 C53_4 1_555 1_555
H35_4 C58_4 1_555 1_555
O18_4 C54_4 1_555 1_555
H36_4 C57_4 1_555 1_555
Co12 O22_3 1_555 1_555
Co11_3 O18_4 1_555 1_555
O20_3 Co11_3 1_555 1_555
O23_4 Co12 1_555 1_555
O24_4 Co11_3 1_555 1_555
O25_4 Co11_3 1_555 1_555
N9_4 Co11_3 1_555 1_555
O26_4 Co12 1_555 1_555
C65_4 N10_4 1_555 1_555
N10_4 C67_4 1_555 1_555
C66_4 H41_4 1_555 1_555
C67_4 N9_4 1_555 1_555
C68_4 H42_4 1_555 1_555
N11_4 C66_4 1_555 1_555
N12_4 C67_4 1_555 1_555
N13_4 C65_4 1_555 1_555
C69_4 C68_4 1_555 1_555
C70_4 N9_4 1_555 1_555
C71_4 C66_4 1_555 1_555
H43_4 C71_4 1_555 1_555
H44_4 C69_4 1_555 1_555
H45_4 N12_4 1_555 1_555
C72_4 C65_4 1_555 1_555
H46_4 N12_4 1_555 1_555
N14_4 C70_4 1_555 1_555
H47_4 N14_4 1_555 1_555
H48_4 N14_4 1_555 1_555
Co12_4 N11_4 1_555 1_555
C52_4 C53_4 1_555 1_555
C55_4 C56_4 1_555 1_555
C57_4 C58_4 1_555 1_555
C68_4 N11_4 1_555 1_555
N13_4 C70_4 1_555 1_555
C69_4 C72_4 1_555 1_555
C71_4 C72_4 1_555 1_555
Co3_2 N1_4 1_555 1_555
Co2_4 O2_4 1_555 1_555
C1_4 C2_4 1_555 1_555
C2_4 C3_4 1_555 1_555
C3_4 H1_4 1_555 1_555
C4_4 C3_4 1_555 1_555
H2_4 C4_4 1_555 1_555
C5_4 C4_4 1_555 1_555
C6_4 C5_4 1_555 1_555
H3_4 C6_4 1_555 1_555
C7_4 C2_4 1_555 1_555
H4_4 C7_4 1_555 1_555
C8_4 C9_4 1_555 1_555
C9_4 H5_4 1_555 1_555
C10_4 C9_4 1_555 1_555
H6_4 C10_4 1_555 1_555
C11_4 C10_4 1_555 1_555
C12_4 C11_4 1_555 1_555
H7_4 C12_4 1_555 1_555
C13_4 C8_4 1_555 1_555
H8_4 C13_4 1_555 1_555
C14_4 C11_4 1_555 1_555
O1_4 C1_4 1_555 1_555
O2_4 C1_4 1_555 1_555
O3_4 C5_4 1_555 1_555
O4_4 C14_4 1_555 1_555
O5_4 C14_4 1_555 1_555
N1_4 C34_4 1_555 1_555
N2_4 C20_4 1_555 1_555
O6_4 C15_4 1_555 1_555
O7_4 C15_4 1_555 1_555
C15_4 C16_4 1_555 1_555
C16_4 C17_4 1_555 1_555
C17_4 C32_4 1_555 1_555
C18_4 C16_4 1_555 1_555
H9_4 C18_4 1_555 1_555
C20_4 N3_4 1_555 1_555
N3_4 H22_4 1_555 1_555
C24_4 C25_4 1_555 1_555
C25_4 C33_4 1_555 1_555
N4_4 C20_4 1_555 1_555
C27_4 C18_4 1_555 1_555
C28_4 C27_4 1_555 1_555
C31_4 N2_4 1_555 1_555
N5_4 C31_4 1_555 1_555
C32_4 C28_4 1_555 1_555
H13_4 C32_4 1_555 1_555
N6_4 C24_4 1_555 1_555
C33_4 C36_4 1_555 1_555
O11_6 C28_4 1_555 1_555
H15_4 C17_4 1_555 1_555
C34_4 C35_4 1_555 1_555
C35_4 C25_4 1_555 1_555
C36_4 N1_4 1_555 1_555
H17_4 C33_4 1_555 1_555
H18_4 C35_4 1_555 1_555
H19_4 C36_4 1_555 1_555
H20_4 N5_4 1_555 1_555
H21_4 C34_4 1_555 1_555
H23_4 N5_4 1_555 1_555
H24_4 N3_4 1_555 1_555
Co1_2 O1_4 1_555 1_555
Co12_2 O5_4 1_555 1_555
Co7_2 O4_4 1_555 1_555
C37_3 C38_3 1_555 1_555
C38_3 C40_3 1_555 1_555
O12_3 Co7_2 1_555 1_555
O13_3 Co12_2 1_555 1_555
C39_3 H25_3 1_555 1_555
C40_3 H26_3 1_555 1_555
C41_3 H27_3 1_555 1_555
C42_3 O14_3 1_555 1_555
O14_3 C45_3 1_555 1_555
C43_3 C42_3 1_555 1_555
H28_3 C43_3 1_555 1_555
C44_3 C39_3 1_555 1_555
H29_3 C44_3 1_555 1_555
C45_3 C39_3 1_555 1_555
C46_3 C44_3 1_555 1_555
C47_3 C46_3 1_555 1_555
O23 C47_3 1_555 1_555
C48_3 C40_3 1_555 1_555
H30_3 C48_3 1_555 1_555
O24 C47_3 1_555 1_555
C49_3 C41_3 1_555 1_555
C50_3 C38_3 1_555 1_555
H31_3 C49_3 1_555 1_555
H32_3 C50_3 1_555 1_555
C6_4 C7_4 1_555 1_555
C8_4 O3_4 1_555 1_555
C12_4 C13_4 1_555 1_555
N2_4 Co7_2 1_555 1_555
O6_4 Co7_2 1_555 1_555
O7_4 Co12_2 1_555 1_555
C24_4 N4_4 1_555 1_555
C31_4 N6_4 1_555 1_555
C37_3 O12_3 1_555 1_555
C37_3 O13_3 1_555 1_555
C41_3 C45_3 1_555 1_555
C42_3 C48_3 1_555 1_555
C43_3 C50_3 1_555 1_555
C46_3 C49_3 1_555 1_555
C66_5 H41_5 1_555 1_555
C68_5 H42_5 1_555 1_555
N11_5 C66_5 1_555 1_555
C69_5 C68_5 1_555 1_555
C71_5 C66_5 1_555 1_555
H43_5 C71_5 1_555 1_555
H44_5 C69_5 1_555 1_555
Co12_5 N11_5 1_555 1_555
C68_5 N11_5 1_555 1_555
C69_5 C72_5 1_555 1_555
C71_5 C72_5 1_555 1_555
Co8_2 N1_5 1_555 1_555
Co9 O2_5 1_555 1_555
C1_5 C2_5 1_555 1_555
C2_5 C3_5 1_555 1_555
C3_5 H1_5 1_555 1_555
C4_5 C3_5 1_555 1_555
H2_5 C4_5 1_555 1_555
C5_5 C4_5 1_555 1_555
C6_5 C5_5 1_555 1_555
H3_5 C6_5 1_555 1_555
C7_5 C2_5 1_555 1_555
H4_5 C7_5 1_555 1_555
C8_5 C9_5 1_555 1_555
C9_5 H5_5 1_555 1_555
C10_5 C9_5 1_555 1_555
H6_5 C10_5 1_555 1_555
C11_5 C10_5 1_555 1_555
C12_5 C11_5 1_555 1_555
H7_5 C12_5 1_555 1_555
C13_5 C8_5 1_555 1_555
H8_5 C13_5 1_555 1_555
C14_5 C11_5 1_555 1_555
O1_5 C1_5 1_555 1_555
O2_5 C1_5 1_555 1_555
O3_5 C5_5 1_555 1_555
O4_5 C14_5 1_555 1_555
O5_5 C14_5 1_555 1_555
N1_5 C34_5 1_555 1_555
N2_5 C20_5 1_555 1_555
O6_5 C15_5 1_555 1_555
O7_5 C15_5 1_555 1_555
O8_3 C26_3 1_555 1_555
O9_3 C26_3 1_555 1_555
C15_5 C16_5 1_555 1_555
C16_5 C17_5 1_555 1_555
C17_5 C32_5 1_555 1_555
C18_5 C16_5 1_555 1_555
H9_5 C18_5 1_555 1_555
C19_3 H10_3 1_555 1_555
C20_5 N3_5 1_555 1_555
C21_3 H11_3 1_555 1_555
C22_3 C19_3 1_555 1_555
C23_3 C21_3 1_555 1_555
N3_5 H22_5 1_555 1_555
H12_3 C23_3 1_555 1_555
C24_5 C25_5 1_555 1_555
C25_5 C33_5 1_555 1_555
C26_3 C22_3 1_555 1_555
N4_5 C20_5 1_555 1_555
C27_5 C18_5 1_555 1_555
C28_5 C27_5 1_555 1_555
C29_3 C21_3 1_555 1_555
C30_3 C19_3 1_555 1_555
C31_5 N2_5 1_555 1_555
N5_5 C31_5 1_555 1_555
C32_5 C28_5 1_555 1_555
H13_5 C32_5 1_555 1_555
N6_5 C24_5 1_555 1_555
O10_4 C29_3 1_555 1_555
C33_5 C36_5 1_555 1_555
H14_3 C30_3 1_555 1_555
O11_7 C28_5 1_555 1_555
H15_5 C17_5 1_555 1_555
H16_5 C27_5 1_555 1_555
C34_5 C35_5 1_555 1_555
C35_5 C25_5 1_555 1_555
C36_5 N1_5 1_555 1_555
H17_5 C33_5 1_555 1_555
H18_5 C35_5 1_555 1_555
H19_5 C36_5 1_555 1_555
H20_5 N5_5 1_555 1_555
H21_5 C34_5 1_555 1_555
H23_5 N5_5 1_555 1_555
H24_5 N3_5 1_555 1_555
Co8 O1_5 1_555 1_555
Co3_2 O5_5 1_555 1_555
Co12_4 O21_3 1_555 1_555
Co2_3 O4_5 1_555 1_555
Co7_3 O19_3 1_555 1_555
C51_3 O10_4 1_555 1_555
C52_5 H33_5 1_555 1_555
C53_5 O11_7 1_555 1_555
C54_5 O17_5 1_555 1_555
O17_5 Co1_2 1_555 1_555
C55_5 C54_5 1_555 1_555
C56_5 C52_5 1_555 1_555
C57_5 C55_5 1_555 1_555
H34_5 C56_5 1_555 1_555
C58_5 C53_5 1_555 1_555
H35_5 C58_5 1_555 1_555
O18_5 C54_5 1_555 1_555
H36_5 C57_5 1_555 1_555
C59_3 C60_3 1_555 1_555
C60_3 C61_3 1_555 1_555
C61_3 C51_3 1_555 1_555
H37_3 C61_3 1_555 1_555
O19_3 C62_3 1_555 1_555
Co2_4 O18_5 1_555 1_555
C62_3 C59_3 1_555 1_555
O21_3 C62_3 1_555 1_555
C63_3 C59_3 1_555 1_555
O23_5 Co1_2 1_555 1_555
H38_3 C63_3 1_555 1_555
C64_3 C51_3 1_555 1_555
H39_3 C64_3 1_555 1_555
H40_3 C60_3 1_555 1_555
O24_5 Co2_4 1_555 1_555
O25_5 Co2_4 1_555 1_555
N9_5 Co2_4 1_555 1_555
O26_5 Co1_2 1_555 1_555
C65_5 N10_5 1_555 1_555
N10_5 C67_5 1_555 1_555
C67_5 N9_5 1_555 1_555
N12_5 C67_5 1_555 1_555
N13_5 C65_5 1_555 1_555
C70_5 N9_5 1_555 1_555
H45_5 N12_5 1_555 1_555
H46_5 N12_5 1_555 1_555
N14_5 C70_5 1_555 1_555
H47_5 N14_5 1_555 1_555
H48_5 N14_5 1_555 1_555
C6_5 C7_5 1_555 1_555
C8_5 O3_5 1_555 1_555
C12_5 C13_5 1_555 1_555
N2_5 Co2_3 1_555 1_555
O6_5 Co2_3 1_555 1_555
O7_5 Co3_2 1_555 1_555
O8_3 Co3_2 1_555 1_555
O9_3 Co2_3 1_555 1_555
C22_3 C23_3 1_555 1_555
C24_5 N4_5 1_555 1_555
C29_3 C30_3 1_555 1_555
C31_5 N6_5 1_555 1_555
C52_5 C53_5 1_555 1_555
C55_5 C56_5 1_555 1_555
C57_5 C58_5 1_555 1_555
C63_3 C64_3 1_555 1_555
N13_5 C70_5 1_555 1_555
Co8 N1_6 1_555 1_555
Co9_2 O2_6 1_555 1_555
C1_6 C2_6 1_555 1_555
C2_6 C3_6 1_555 1_555
C3_6 H1_6 1_555 1_555
C4_6 C3_6 1_555 1_555
H2_6 C4_6 1_555 1_555
C5_6 C4_6 1_555 1_555
C6_6 C5_6 1_555 1_555
H3_6 C6_6 1_555 1_555
C7_6 C2_6 1_555 1_555
H4_6 C7_6 1_555 1_555
C8_6 C9_6 1_555 1_555
C9_6 H5_6 1_555 1_555
C10_6 C9_6 1_555 1_555
H6_6 C10_6 1_555 1_555
C11_6 C10_6 1_555 1_555
C12_6 C11_6 1_555 1_555
H7_6 C12_6 1_555 1_555
C13_6 C8_6 1_555 1_555
H8_6 C13_6 1_555 1_555
C14_6 C11_6 1_555 1_555
O1_6 C1_6 1_555 1_555
O2_6 C1_6 1_555 1_555
O3_6 C5_6 1_555 1_555
O4_6 C14_6 1_555 1_555
O5_6 C14_6 1_555 1_555
N1_6 C34_6 1_555 1_555
N2_6 C20_6 1_555 1_555
O6_6 C15_6 1_555 1_555
O7_6 C15_6 1_555 1_555
C15_6 C16_6 1_555 1_555
C16_6 C17_6 1_555 1_555
C17_6 C32_6 1_555 1_555
C18_6 C16_6 1_555 1_555
H9_6 C18_6 1_555 1_555
C20_6 N3_6 1_555 1_555
N3_6 H22_6 1_555 1_555
C24_6 C25_6 1_555 1_555
C25_6 C33_6 1_555 1_555
N4_6 C20_6 1_555 1_555
C27_6 C18_6 1_555 1_555
C28_6 C27_6 1_555 1_555
C31_6 N2_6 1_555 1_555
N5_6 C31_6 1_555 1_555
C32_6 C28_6 1_555 1_555
H13_6 C32_6 1_555 1_555
N6_6 C24_6 1_555 1_555
C33_6 C36_6 1_555 1_555
O11_8 C28_6 1_555 1_555
H15_6 C17_6 1_555 1_555
H16_6 C27_6 1_555 1_555
C34_6 C35_6 1_555 1_555
C35_6 C25_6 1_555 1_555
C36_6 N1_6 1_555 1_555
H17_6 C33_6 1_555 1_555
H18_6 C35_6 1_555 1_555
H19_6 C36_6 1_555 1_555
H20_6 N5_6 1_555 1_555
H21_6 C34_6 1_555 1_555
H23_6 N5_6 1_555 1_555
H24_6 N3_6 1_555 1_555
Co8_2 O1_6 1_555 1_555
Co12_4 O5_6 1_555 1_555
Co7_3 O4_6 1_555 1_555
C37_4 C38_4 1_555 1_555
C38_4 C40_4 1_555 1_555
O12_4 Co7_3 1_555 1_555
O13_4 Co12_4 1_555 1_555
C39_4 H25_4 1_555 1_555
C40_4 H26_4 1_555 1_555
C41_4 H27_4 1_555 1_555
C42_4 O14_4 1_555 1_555
O14_4 C45_4 1_555 1_555
C43_4 C42_4 1_555 1_555
H28_4 C43_4 1_555 1_555
C44_4 C39_4 1_555 1_555
H29_4 C44_4 1_555 1_555
C45_4 C39_4 1_555 1_555
C46_4 C44_4 1_555 1_555
C47_4 C46_4 1_555 1_555
O23_3 C47_4 1_555 1_555
C48_4 C40_4 1_555 1_555
H30_4 C48_4 1_555 1_555
O24_3 C47_4 1_555 1_555
C49_4 C41_4 1_555 1_555
C50_4 C38_4 1_555 1_555
H31_4 C49_4 1_555 1_555
H32_4 C50_4 1_555 1_555
C52_6 H33_6 1_555 1_555
C53_6 O11_8 1_555 1_555
C54_6 O17_6 1_555 1_555
O17_6 Co12_3 1_555 1_555
C55_6 C54_6 1_555 1_555
C56_6 C52_6 1_555 1_555
C57_6 C55_6 1_555 1_555
H34_6 C56_6 1_555 1_555
C58_6 C53_6 1_555 1_555
H35_6 C58_6 1_555 1_555
O18_6 C54_6 1_555 1_555
H36_6 C57_6 1_555 1_555
Co12_3 O22_4 1_555 1_555
Co11_4 O18_6 1_555 1_555
O20_4 Co11_4 1_555 1_555
O23_6 Co12_3 1_555 1_555
O24_6 Co11_4 1_555 1_555
O25_6 Co11_4 1_555 1_555
N9_6 Co11_4 1_555 1_555
O26_6 Co12_3 1_555 1_555
C65_6 N10_6 1_555 1_555
N10_6 C67_6 1_555 1_555
C67_6 N9_6 1_555 1_555
N12_6 C67_6 1_555 1_555
N13_6 C65_6 1_555 1_555
C70_6 N9_6 1_555 1_555
H45_6 N12_6 1_555 1_555
H46_6 N12_6 1_555 1_555
N14_6 C70_6 1_555 1_555
H47_6 N14_6 1_555 1_555
H48_6 N14_6 1_555 1_555
C6_6 C7_6 1_555 1_555
C8_6 O3_6 1_555 1_555
C12_6 C13_6 1_555 1_555
N2_6 Co7_3 1_555 1_555
O6_6 Co7_3 1_555 1_555
O7_6 Co12_4 1_555 1_555
C24_6 N4_6 1_555 1_555
C31_6 N6_6 1_555 1_555
C37_4 O12_4 1_555 1_555
C37_4 O13_4 1_555 1_555
C41_4 C45_4 1_555 1_555
C42_4 C48_4 1_555 1_555
C43_4 C50_4 1_555 1_555
C46_4 C49_4 1_555 1_555
C52_6 C53_6 1_555 1_555
C55_6 C56_6 1_555 1_555
C57_6 C58_6 1_555 1_555
N13_6 C70_6 1_555 1_555
C66_6 H41_6 1_555 1_555
C68_6 H42_6 1_555 1_555
N11_6 C66_6 1_555 1_555
C69_6 C68_6 1_555 1_555
C71_6 C66_6 1_555 1_555
H43_6 C71_6 1_555 1_555
H44_6 C69_6 1_555 1_555
Co12_6 N11_6 1_555 1_555
C68_6 N11_6 1_555 1_555
C69_6 C72_6 1_555 1_555
C71_6 C72_6 1_555 1_555
N8 C34_7 1_555 1_555
H21_7 C34_7 1_555 1_555
C66_7 H41_7 1_555 1_555
N8_2 C66_7 1_555 1_555
N2_7 C20_7 1_555 1_555
O6_7 C15_7 1_555 1_555
O7_7 C15_7 1_555 1_555
O8_4 C26_4 1_555 1_555
O9_4 C26_4 1_555 1_555
C15_7 C16_7 1_555 1_555
C16_7 C17_7 1_555 1_555
C17_7 C32_7 1_555 1_555
C18_7 C16_7 1_555 1_555
H9_7 C18_7 1_555 1_555
C19_4 H10_4 1_555 1_555
C20_7 N3_7 1_555 1_555
C21_4 H11_4 1_555 1_555
C22_4 C19_4 1_555 1_555
C23_4 C21_4 1_555 1_555
N3_7 H22_7 1_555 1_555
H12_4 C23_4 1_555 1_555
C24_7 C25_7 1_555 1_555
C25_7 C33_7 1_555 1_555
C26_4 C22_4 1_555 1_555
N4_7 C20_7 1_555 1_555
C27_7 C18_7 1_555 1_555
C28_7 C27_7 1_555 1_555
C29_4 C21_4 1_555 1_555
C30_4 C19_4 1_555 1_555
C31_7 N2_7 1_555 1_555
N5_7 C31_7 1_555 1_555
C32_7 C28_7 1_555 1_555
H13_7 C32_7 1_555 1_555
N6_7 C24_7 1_555 1_555
O10_5 C29_4 1_555 1_555
C33_7 C36_7 1_555 1_555
H14_4 C30_4 1_555 1_555
O11_9 C28_7 1_555 1_555
H15_7 C17_7 1_555 1_555
H16_7 C27_7 1_555 1_555
C35_7 C25_7 1_555 1_555
H17_7 C33_7 1_555 1_555
H18_7 C35_7 1_555 1_555
H19_7 C36_7 1_555 1_555
H20_7 N5_7 1_555 1_555
H23_7 N5_7 1_555 1_555
H24_7 N3_7 1_555 1_555
Co12_6 O21_4 1_555 1_555
Co7_4 O19_4 1_555 1_555
C51_4 O10_5 1_555 1_555
C52_7 H33_7 1_555 1_555
C53_7 O11_9 1_555 1_555
C54_7 O17_7 1_555 1_555
O17_7 Co8_2 1_555 1_555
C55_7 C54_7 1_555 1_555
C56_7 C52_7 1_555 1_555
C57_7 C55_7 1_555 1_555
H34_7 C56_7 1_555 1_555
C58_7 C53_7 1_555 1_555
H35_7 C58_7 1_555 1_555
O18_7 C54_7 1_555 1_555
H36_7 C57_7 1_555 1_555
C59_4 C60_4 1_555 1_555
C60_4 C61_4 1_555 1_555
C61_4 C51_4 1_555 1_555
H37_4 C61_4 1_555 1_555
O19_4 C62_4 1_555 1_555
Co9_2 O18_7 1_555 1_555
C62_4 C59_4 1_555 1_555
O21_4 C62_4 1_555 1_555
C63_4 C59_4 1_555 1_555
H38_4 C63_4 1_555 1_555
C64_4 C51_4 1_555 1_555
H39_4 C64_4 1_555 1_555
H40_4 C60_4 1_555 1_555
O25_7 Co9_2 1_555 1_555
N9_7 Co9_2 1_555 1_555
O26_7 Co8_2 1_555 1_555
C65_7 N10_7 1_555 1_555
N10_7 C67_7 1_555 1_555
C67_7 N9_7 1_555 1_555
C68_7 H42_7 1_555 1_555
N12_7 C67_7 1_555 1_555
N13_7 C65_7 1_555 1_555
C69_7 C68_7 1_555 1_555
C70_7 N9_7 1_555 1_555
H43_7 C71_7 1_555 1_555
H44_7 C69_7 1_555 1_555
H45_7 N12_7 1_555 1_555
C72_7 C65_7 1_555 1_555
H46_7 N12_7 1_555 1_555
N14_7 C70_7 1_555 1_555
H47_7 N14_7 1_555 1_555
H48_7 N14_7 1_555 1_555
N2_7 Co9 1_555 1_555
O6_7 Co9 1_555 1_555
O7_7 Co8 1_555 1_555
O8_4 Co8 1_555 1_555
O9_4 Co9 1_555 1_555
C22_4 C23_4 1_555 1_555
C24_7 N4_7 1_555 1_555
C29_4 C30_4 1_555 1_555
C31_7 N6_7 1_555 1_555
C52_7 C53_7 1_555 1_555
C55_7 C56_7 1_555 1_555
C57_7 C58_7 1_555 1_555
C63_4 C64_4 1_555 1_555
N13_7 C70_7 1_555 1_555
C69_7 C72_7 1_555 1_555
C71_7 C72_7 1_555 1_555
C66_8 H41_8 1_555 1_555
N7_2 C66_8 1_555 1_555
C53_8 O11_10 1_555 1_555
C54_8 O17_8 1_555 1_555
O17_8 Co12_5 1_555 1_555
C55_8 C54_8 1_555 1_555
C56_8 C52_8 1_555 1_555
C57_8 C55_8 1_555 1_555
H34_8 C56_8 1_555 1_555
C58_8 C53_8 1_555 1_555
H35_8 C58_8 1_555 1_555
O18_8 C54_8 1_555 1_555
H36_8 C57_8 1_555 1_555
Co12_5 O22_5 1_555 1_555
Co11_5 O18_8 1_555 1_555
O20_5 Co11_5 1_555 1_555
O23_7 Co12_5 1_555 1_555
O24_7 Co11_5 1_555 1_555
O25_8 Co11_5 1_555 1_555
N9_8 Co11_5 1_555 1_555
O26_8 Co12_5 1_555 1_555
C65_8 N10_8 1_555 1_555
N10_8 C67_8 1_555 1_555
C67_8 N9_8 1_555 1_555
C68_8 H42_8 1_555 1_555
N12_8 C67_8 1_555 1_555
N13_8 C65_8 1_555 1_555
C69_8 C68_8 1_555 1_555
C70_8 N9_8 1_555 1_555
H43_8 C71_8 1_555 1_555
H44_8 C69_8 1_555 1_555
H45_8 N12_8 1_555 1_555
C72_8 C65_8 1_555 1_555
H46_8 N12_8 1_555 1_555
N14_8 C70_8 1_555 1_555
H47_8 N14_8 1_555 1_555
H48_8 N14_8 1_555 1_555
C52_8 C53_8 1_555 1_555
C55_8 C56_8 1_555 1_555
C57_8 C58_8 1_555 1_555
N13_8 C70_8 1_555 1_555
C69_8 C72_8 1_555 1_555
C71_8 C72_8 1_555 1_555
C39_5 H25_5 1_555 1_555
C41_5 H27_5 1_555 1_555
C44_5 C39_5 1_555 1_555
H29_5 C44_5 1_555 1_555
C45_5 C39_5 1_555 1_555
C46_5 C44_5 1_555 1_555
C47_5 C46_5 1_555 1_555
O23_5 C47_5 1_555 1_555
O24_5 C47_5 1_555 1_555
C49_5 C41_5 1_555 1_555
H31_5 C49_5 1_555 1_555
C41_5 C45_5 1_555 1_555
C46_5 C49_5 1_555 1_555
C1_7 C2_7 1_555 1_555
C2_7 C3_7 1_555 1_555
C3_7 H1_7 1_555 1_555
C4_7 C3_7 1_555 1_555
H2_7 C4_7 1_555 1_555
O22 C1_7 1_555 1_555
O20 C1_7 1_555 1_555
N7 C34_8 1_555 1_555
H21_8 C34_8 1_555 1_555
C6_7 C5_7 1_555 1_555
H3_7 C6_7 1_555 1_555
H4_7 C7_7 1_555 1_555
C8_7 C9_7 1_555 1_555
C9_7 H5_7 1_555 1_555
C10_7 C9_7 1_555 1_555
H6_7 C10_7 1_555 1_555
C11_7 C10_7 1_555 1_555
C12_7 C11_7 1_555 1_555
H7_7 C12_7 1_555 1_555
C13_7 C8_7 1_555 1_555
H8_7 C13_7 1_555 1_555
C14_7 C11_7 1_555 1_555
O3_7 C5_7 1_555 1_555
O4_7 C14_7 1_555 1_555
O5_7 C14_7 1_555 1_555
N2_8 C20_8 1_555 1_555
O6_8 C15_8 1_555 1_555
O7_8 C15_8 1_555 1_555
C15_8 C16_8 1_555 1_555
C16_8 C17_8 1_555 1_555
C17_8 C32_8 1_555 1_555
C18_8 C16_8 1_555 1_555
H9_8 C18_8 1_555 1_555
C20_8 N3_8 1_555 1_555
N3_8 H22_8 1_555 1_555
C24_8 C25_8 1_555 1_555
C25_8 C33_8 1_555 1_555
N4_8 C20_8 1_555 1_555
C27_8 C18_8 1_555 1_555
C28_8 C27_8 1_555 1_555
C31_8 N2_8 1_555 1_555
N5_8 C31_8 1_555 1_555
C32_8 C28_8 1_555 1_555
H13_8 C32_8 1_555 1_555
N6_8 C24_8 1_555 1_555
C33_8 C36_8 1_555 1_555
O11_13 C28_8 1_555 1_555
H15_8 C17_8 1_555 1_555
C35_8 C25_8 1_555 1_555
H17_8 C33_8 1_555 1_555
H18_8 C35_8 1_555 1_555
H19_8 C36_8 1_555 1_555
H20_8 N5_8 1_555 1_555
H23_8 N5_8 1_555 1_555
H24_8 N3_8 1_555 1_555
Co12_6 O5_7 1_555 1_555
Co7_4 O4_7 1_555 1_555
C37_5 C38_5 1_555 1_555
C38_5 C40_5 1_555 1_555
O12_5 Co7_4 1_555 1_555
O13_5 Co12_6 1_555 1_555
C40_5 H26_5 1_555 1_555
C42_5 O14_5 1_555 1_555
C43_5 C42_5 1_555 1_555
H28_5 C43_5 1_555 1_555
C48_5 C40_5 1_555 1_555
H30_5 C48_5 1_555 1_555
C50_5 C38_5 1_555 1_555
H32_5 C50_5 1_555 1_555
C6_7 C7_7 1_555 1_555
C8_7 O3_7 1_555 1_555
C12_7 C13_7 1_555 1_555
N2_8 Co7_4 1_555 1_555
O6_8 Co7_4 1_555 1_555
O7_8 Co12_6 1_555 1_555
C24_8 N4_8 1_555 1_555
C31_8 N6_8 1_555 1_555
C37_5 O12_5 1_555 1_555
C37_5 O13_5 1_555 1_555
C42_5 C48_5 1_555 1_555
C43_5 C50_5 1_555 1_555
C1_8 C2_8 1_555 1_555
C2_8 C3_8 1_555 1_555
C3_8 H1_8 1_555 1_555
C4_8 C3_8 1_555 1_555
H2_8 C4_8 1_555 1_555
C5_8 C4_8 1_555 1_555
C6_8 C5_8 1_555 1_555
H3_8 C6_8 1_555 1_555
C7_8 C2_8 1_555 1_555
H4_8 C7_8 1_555 1_555
O22_5 C1_8 1_555 1_555
O20_5 C1_8 1_555 1_555
O3_8 C5_8 1_555 1_555
C6_8 C7_8 1_555 1_555
C8_8 C9_8 1_555 1_555
C9_8 H5_8 1_555 1_555
C10_8 C9_8 1_555 1_555
H6_8 C10_8 1_555 1_555
C11_8 C10_8 1_555 1_555
C12_8 C11_8 1_555 1_555
H7_8 C12_8 1_555 1_555
C13_8 C8_8 1_555 1_555
H8_8 C13_8 1_555 1_555
C14_8 C11_8 1_555 1_555
O24_6 C14_8 1_555 1_555
O23_6 C14_8 1_555 1_555
O26_6 C26_5 1_555 1_555
O25_6 C26_5 1_555 1_555
C19_5 H10_5 1_555 1_555
C21_5 H11_5 1_555 1_555
C22_5 C19_5 1_555 1_555
C23_5 C21_5 1_555 1_555
H12_5 C23_5 1_555 1_555
C26_5 C22_5 1_555 1_555
C29_5 C21_5 1_555 1_555
C30_5 C19_5 1_555 1_555
O10_7 C29_5 1_555 1_555
C37_6 C38_6 1_555 1_555
C38_6 C40_6 1_555 1_555
C39_6 H25_6 1_555 1_555
C40_6 H26_6 1_555 1_555
C41_6 H27_6 1_555 1_555
C42_6 O14_6 1_555 1_555
O14_6 C45_6 1_555 1_555
C43_6 C42_6 1_555 1_555
H28_6 C43_6 1_555 1_555
C44_6 C39_6 1_555 1_555
H29_6 C44_6 1_555 1_555
C45_6 C39_6 1_555 1_555
C46_6 C44_6 1_555 1_555
C47_6 C46_6 1_555 1_555
O23_4 C47_6 1_555 1_555
C48_6 C40_6 1_555 1_555
H30_6 C48_6 1_555 1_555
O24_4 C47_6 1_555 1_555
C49_6 C41_6 1_555 1_555
C50_6 C38_6 1_555 1_555
H31_6 C49_6 1_555 1_555
H32_6 C50_6 1_555 1_555
C12_8 C13_8 1_555 1_555
C22_5 C23_5 1_555 1_555
C29_5 C30_5 1_555 1_555
C37_6 O20_4 1_555 1_555
C37_6 O22_4 1_555 1_555
C41_6 C45_6 1_555 1_555
C42_6 C48_6 1_555 1_555
C43_6 C50_6 1_555 1_555
C46_6 C49_6 1_555 1_555
C51_5 O10_8 1_555 1_555
C59_5 C60_5 1_555 1_555
C60_5 C61_5 1_555 1_555
C61_5 C51_5 1_555 1_555
O25_5 C62_5 1_555 1_555
C62_5 C59_5 1_555 1_555
O26_5 C62_5 1_555 1_555
C63_5 C59_5 1_555 1_555
H38_5 C63_5 1_555 1_555
C64_5 C51_5 1_555 1_555
H39_5 C64_5 1_555 1_555
H40_5 C60_5 1_555 1_555
C63_5 C64_5 1_555 1_555
C1_9 C2_9 1_555 1_555
C2_9 C3_9 1_555 1_555
C3_9 H1_9 1_555 1_555
C4_9 C3_9 1_555 1_555
H2_9 C4_9 1_555 1_555
O22_2 C1_9 1_555 1_555
O20_2 C1_9 1_555 1_555
C6_9 C5_9 1_555 1_555
H3_9 C6_9 1_555 1_555
H4_9 C7_9 1_555 1_555
C8_9 C9_9 1_555 1_555
C9_9 H5_9 1_555 1_555
C10_9 C9_9 1_555 1_555
H6_9 C10_9 1_555 1_555
C11_9 C10_9 1_555 1_555
C12_9 C11_9 1_555 1_555
H7_9 C12_9 1_555 1_555
C13_9 C8_9 1_555 1_555
H8_9 C13_9 1_555 1_555
C14_9 C11_9 1_555 1_555
O3_9 C5_9 1_555 1_555
O24_7 C14_9 1_555 1_555
O23_7 C14_9 1_555 1_555
O26_8 C26_6 1_555 1_555
O25_8 C26_6 1_555 1_555
C19_6 H10_6 1_555 1_555
C21_6 H11_6 1_555 1_555
C22_6 C19_6 1_555 1_555
C23_6 C21_6 1_555 1_555
H12_6 C23_6 1_555 1_555
C26_6 C22_6 1_555 1_555
C29_6 C21_6 1_555 1_555
C30_6 C19_6 1_555 1_555
O10_10 C29_6 1_555 1_555
H14_6 C30_6 1_555 1_555
C51_6 O10_10 1_555 1_555
C59_6 C60_6 1_555 1_555
C60_6 C61_6 1_555 1_555
C61_6 C51_6 1_555 1_555
H37_6 C61_6 1_555 1_555
O25_7 C62_6 1_555 1_555
C62_6 C59_6 1_555 1_555
O26_7 C62_6 1_555 1_555
C63_6 C59_6 1_555 1_555
H38_6 C63_6 1_555 1_555
C64_6 C51_6 1_555 1_555
H39_6 C64_6 1_555 1_555
H40_6 C60_6 1_555 1_555
C6_9 C7_9 1_555 1_555
C8_9 O3_9 1_555 1_555
C12_9 C13_9 1_555 1_555
C22_6 C23_6 1_555 1_555
C29_6 C30_6 1_555 1_555
C63_6 C64_6 1_555 1_555
C1_10 C2_10 1_555 1_555
C2_10 C3_10 1_555 1_555
C3_10 H1_10 1_555 1_555
C4_10 C3_10 1_555 1_555
H2_10 C4_10 1_555 1_555
C5_10 C4_10 1_555 1_555
C6_10 C5_10 1_555 1_555
H3_10 C6_10 1_555 1_555
C7_10 C2_10 1_555 1_555
H4_10 C7_10 1_555 1_555
C8_10 C9_10 1_555 1_555
C9_10 H5_10 1_555 1_555
C10_10 C9_10 1_555 1_555
H6_10 C10_10 1_555 1_555
C11_10 C10_10 1_555 1_555
C12_10 C11_10 1_555 1_555
H7_10 C12_10 1_555 1_555
C13_10 C8_10 1_555 1_555
H8_10 C13_10 1_555 1_555
C14_10 C11_10 1_555 1_555
O22_3 C1_10 1_555 1_555
O20_3 C1_10 1_555 1_555
O3_10 C5_10 1_555 1_555
O24_2 C14_10 1_555 1_555
O23_2 C14_10 1_555 1_555
O26_2 C26_7 1_555 1_555
O25_2 C26_7 1_555 1_555
C19_7 H10_7 1_555 1_555
C22_7 C19_7 1_555 1_555
C26_7 C22_7 1_555 1_555
C30_7 C19_7 1_555 1_555
C6_10 C7_10 1_555 1_555
C8_10 O3_10 1_555 1_555
C12_10 C13_10 1_555 1_555
C22_7 C23_7 1_555 1_555
C29_7 C30_7 1_555 1_555
C21_7 H11_7 1_555 1_555
C59_7 C60_7 1_555 1_555
C60_7 C61_7 1_555 1_555
C61_7 C51_7 1_555 1_555
O25 C62_7 1_555 1_555
C62_7 C59_7 1_555 1_555
O26 C62_7 1_555 1_555
C63_7 C59_7 1_555 1_555
H40_7 C60_7 1_555 1_555
H39_7 C64_7 1_555 1_555
O26_4 C26_8 1_555 1_555
O25_4 C26_8 1_555 1_555
C19_8 H10_8 1_555 1_555
C21_8 H11_8 1_555 1_555
C22_8 C19_8 1_555 1_555
C23_8 C21_8 1_555 1_555
H12_8 C23_8 1_555 1_555
C26_8 C22_8 1_555 1_555
C29_8 C21_8 1_555 1_555
C30_8 C19_8 1_555 1_555
O10_13 C29_8 1_555 1_555
H14_8 C30_8 1_555 1_555
C51_8 O10_13 1_555 1_555
C59_8 C60_8 1_555 1_555
C60_8 C61_8 1_555 1_555
C61_8 C51_8 1_555 1_555
H37_8 C61_8 1_555 1_555
O25_3 C62_8 1_555 1_555
C62_8 C59_8 1_555 1_555
O26_3 C62_8 1_555 1_555
C63_8 C59_8 1_555 1_555
H38_8 C63_8 1_555 1_555
C64_8 C51_8 1_555 1_555
H39_8 C64_8 1_555 1_555
H40_8 C60_8 1_555 1_555
C22_8 C23_8 1_555 1_555
C29_8 C30_8 1_555 1_555
C63_8 C64_8 1_555 1_555
H64 C96 1_555 1_555
O38 C102 1_555 1_555
C107 O38 1_555 1_555
C113 C106 1_555 1_555
C114 C106 1_555 1_555
C115 C107 1_555 1_555
C116 C107 1_555 1_555
H73 C113 1_555 1_555
C123 C113 1_555 1_555
C124 C114 1_555 1_555
H74 C114 1_555 1_555
H75 C115 1_555 1_555
C125 C115 1_555 1_555
C126 C116 1_555 1_555
H76 C116 1_555 1_555
H83 C123 1_555 1_555
C131 C123 1_555 1_555
H84 C124 1_555 1_555
H85 C125 1_555 1_555
C132 C125 1_555 1_555
H86 C126 1_555 1_555
C135 C131 1_555 1_555
C136 C132 1_555 1_555
O43 C135 1_555 1_555
O44 C135 1_555 1_555
O45 C136 1_555 1_555
O46 C136 1_555 1_555
Co20 O43 1_555 1_555
Co21 O44 1_555 1_555
Co22 O45 1_555 1_555
Co23 O46 1_555 1_555
C96 C102 1_555 1_555
C124 C131 1_555 1_555
C126 C132 1_555 1_555
Co13 O27 1_555 1_555
O27 C73 1_555 1_555
O28 Co13 1_555 1_555
O29 Co13 1_555 1_555
O30 Co13 1_555 1_555
N15 Co13 1_555 1_555
C73 C77 1_555 1_555
C74 O28 1_555 1_555
C75 O29 1_555 1_555
C76 O30 1_555 1_555
C77 C81 1_555 1_555
O31 C73 1_555 1_555
C78 C74 1_555 1_555
O32 C74 1_555 1_555
C79 C75 1_555 1_555
O33 C75 1_555 1_555
C80 C76 1_555 1_555
O34 C76 1_555 1_555
C81 H49 1_555 1_555
C82 C77 1_555 1_555
Co14 O31 1_555 1_555
C83 C78 1_555 1_555
C84 C78 1_555 1_555
C85 C79 1_555 1_555
C86 C79 1_555 1_555
C87 C80 1_555 1_555
C88 C80 1_555 1_555
C89 C81 1_555 1_555
C90 C82 1_555 1_555
H50 C82 1_555 1_555
N16 Co14 1_555 1_555
H51 C83 1_555 1_555
C91 C83 1_555 1_555
C92 C84 1_555 1_555
H52 C84 1_555 1_555
H53 C85 1_555 1_555
C93 C85 1_555 1_555
C94 C86 1_555 1_555
H54 C86 1_555 1_555
H55 C87 1_555 1_555
C95 C87 1_555 1_555
H56 C88 1_555 1_555
H57 C89 1_555 1_555
C97 C89 1_555 1_555
C98 N16 1_555 1_555
C99 N16 1_555 1_555
H59 C91 1_555 1_555
C100 C91 1_555 1_555
H60 C92 1_555 1_555
H61 C93 1_555 1_555
C101 C93 1_555 1_555
H62 C94 1_555 1_555
N17 C98 1_555 1_555
N18 C98 1_555 1_555
N19 C99 1_555 1_555
N20 C99 1_555 1_555
O36 C100 1_555 1_555
O37 C101 1_555 1_555
H65 N17 1_555 1_555
H66 N17 1_555 1_555
C104 N18 1_555 1_555
H67 N19 1_555 1_555
H68 N19 1_555 1_555
C105 O36 1_555 1_555
C110 C104 1_555 1_555
C111 C105 1_555 1_555
C112 C105 1_555 1_555
C120 C110 1_555 1_555
H71 C111 1_555 1_555
C121 C111 1_555 1_555
C122 C112 1_555 1_555
H72 C112 1_555 1_555
H80 C120 1_555 1_555
H81 C121 1_555 1_555
C130 C121 1_555 1_555
H82 C122 1_555 1_555
C134 C130 1_555 1_555
O41 C134 1_555 1_555
O42 C134 1_555 1_555
N21 Co18 1_555 1_555
N22 C137 1_555 1_555
C137 N23 1_555 1_555
C138 N22 1_555 1_555
N23 H89 1_555 1_555
N24 C137 1_555 1_555
N25 C138 1_555 1_555
N26 C138 1_555 1_555
H90 N23 1_555 1_555
C139 N24 1_555 1_555
H91 N25 1_555 1_555
H92 N25 1_555 1_555
C140 C139 1_555 1_555
C141 C140 1_555 1_555
C142 C140 1_555 1_555
H93 C141 1_555 1_555
C143 C141 1_555 1_555
C144 C142 1_555 1_555
H94 C142 1_555 1_555
H95 C143 1_555 1_555
H96 C144 1_555 1_555
Co18 O41 1_555 1_555
Co19 O42 1_555 1_555
O47 Co18 1_555 1_555
O48 Co18 1_555 1_555
O49 Co18 1_555 1_555
O50 Co19 1_555 1_555
O51 Co19 1_555 1_555
O52 Co19 1_555 1_555
N28 C143 1_555 1_555
Co24 N28 1_555 1_555
O32 Co14 1_555 1_555
O33 Co14 1_555 1_555
O34 Co14 1_555 1_555
C90 C97 1_555 1_555
C92 C100 1_555 1_555
C94 C101 1_555 1_555
N20 C104 1_555 1_555
C122 C130 1_555 1_555
N22 Co19 1_555 1_555
N26 C139 1_555 1_555
C144 N28 1_555 1_555
C103 O35 1_555 1_555
C108 C103 1_555 1_555
C109 C103 1_555 1_555
H69 C108 1_555 1_555
C117 C108 1_555 1_555
C118 C109 1_555 1_555
H77 C117 1_555 1_555
C127 C117 1_555 1_555
H78 C118 1_555 1_555
H79 C119 1_555 1_555
C128 C119 1_555 1_555
C133 C127 1_555 1_555
H87 C128 1_555 1_555
H88 C129 1_555 1_555
O39 C133 1_555 1_555
O40 C133 1_555 1_555
Co15 O39 1_555 1_555
Co16 O40 1_555 1_555
N27 C128 1_555 1_555
Co17 N27 1_555 1_555
C118 C127 1_555 1_555
C129 N27 1_555 1_555
H96_2 C144_2 1_555 1_555
Co24_2 N28_2 1_555 1_555
C144_2 N28_2 1_555 1_555
Co13_2 O27_2 1_555 1_555
O27_2 C73_2 1_555 1_555
O28_2 Co13_2 1_555 1_555
O29_2 Co13_2 1_555 1_555
O30_2 Co13_2 1_555 1_555
N15_2 Co13_2 1_555 1_555
C73_2 C77_2 1_555 1_555
C74_2 O28_2 1_555 1_555
C75_2 O29_2 1_555 1_555
C76_2 O30_2 1_555 1_555
C77_2 C81_2 1_555 1_555
O31_2 C73_2 1_555 1_555
C78_2 C74_2 1_555 1_555
O32_2 C74_2 1_555 1_555
C79_2 C75_2 1_555 1_555
O33_2 C75_2 1_555 1_555
C80_2 C76_2 1_555 1_555
O34_2 C76_2 1_555 1_555
C81_2 H49_2 1_555 1_555
C82_2 C77_2 1_555 1_555
Co14_2 O31_2 1_555 1_555
C83_2 C78_2 1_555 1_555
C84_2 C78_2 1_555 1_555
C85_2 C79_2 1_555 1_555
C86_2 C79_2 1_555 1_555
C87_2 C80_2 1_555 1_555
C88_2 C80_2 1_555 1_555
C89_2 C81_2 1_555 1_555
C90_2 C82_2 1_555 1_555
H50_2 C82_2 1_555 1_555
N16_2 Co14_2 1_555 1_555
H51_2 C83_2 1_555 1_555
C91_2 C83_2 1_555 1_555
C92_2 C84_2 1_555 1_555
H52_2 C84_2 1_555 1_555
H53_2 C85_2 1_555 1_555
C93_2 C85_2 1_555 1_555
C94_2 C86_2 1_555 1_555
H54_2 C86_2 1_555 1_555
H55_2 C87_2 1_555 1_555
C95_2 C87_2 1_555 1_555
C96_2 C88_2 1_555 1_555
H56_2 C88_2 1_555 1_555
H57_2 C89_2 1_555 1_555
C97_2 C89_2 1_555 1_555
H58_2 C90_2 1_555 1_555
C98_2 N16_2 1_555 1_555
C99_2 N16_2 1_555 1_555
H59_2 C91_2 1_555 1_555
C100_2 C91_2 1_555 1_555
H60_2 C92_2 1_555 1_555
H61_2 C93_2 1_555 1_555
C101_2 C93_2 1_555 1_555
H62_2 C94_2 1_555 1_555
H63_2 C95_2 1_555 1_555
C102_2 C95_2 1_555 1_555
H64_2 C96_2 1_555 1_555
O35_2 C97_2 1_555 1_555
N17_2 C98_2 1_555 1_555
N18_2 C98_2 1_555 1_555
N19_2 C99_2 1_555 1_555
N20_2 C99_2 1_555 1_555
O36_2 C100_2 1_555 1_555
O37_2 C101_2 1_555 1_555
O38_2 C102_2 1_555 1_555
C103_2 O35_2 1_555 1_555
H65_2 N17_2 1_555 1_555
H66_2 N17_2 1_555 1_555
C104_2 N18_2 1_555 1_555
H67_2 N19_2 1_555 1_555
H68_2 N19_2 1_555 1_555
C105_2 O36_2 1_555 1_555
C106_2 O37_2 1_555 1_555
C107_2 O38_2 1_555 1_555
C108_2 C103_2 1_555 1_555
C109_2 C103_2 1_555 1_555
C110_2 C104_2 1_555 1_555
C111_2 C105_2 1_555 1_555
C112_2 C105_2 1_555 1_555
C113_2 C106_2 1_555 1_555
C114_2 C106_2 1_555 1_555
C115_2 C107_2 1_555 1_555
C116_2 C107_2 1_555 1_555
H69_2 C108_2 1_555 1_555
C117_2 C108_2 1_555 1_555
C118_2 C109_2 1_555 1_555
H70_2 C109_2 1_555 1_555
C119_2 C110_2 1_555 1_555
C120_2 C110_2 1_555 1_555
H71_2 C111_2 1_555 1_555
C121_2 C111_2 1_555 1_555
C122_2 C112_2 1_555 1_555
H72_2 C112_2 1_555 1_555
H73_2 C113_2 1_555 1_555
C123_2 C113_2 1_555 1_555
C124_2 C114_2 1_555 1_555
H74_2 C114_2 1_555 1_555
H75_2 C115_2 1_555 1_555
C125_2 C115_2 1_555 1_555
C126_2 C116_2 1_555 1_555
H76_2 C116_2 1_555 1_555
H77_2 C117_2 1_555 1_555
C127_2 C117_2 1_555 1_555
H78_2 C118_2 1_555 1_555
H79_2 C119_2 1_555 1_555
C128_2 C119_2 1_555 1_555
H80_2 C120_2 1_555 1_555
C129_2 C120_2 1_555 1_555
H81_2 C121_2 1_555 1_555
C130_2 C121_2 1_555 1_555
H82_2 C122_2 1_555 1_555
H83_2 C123_2 1_555 1_555
C131_2 C123_2 1_555 1_555
H84_2 C124_2 1_555 1_555
H85_2 C125_2 1_555 1_555
C132_2 C125_2 1_555 1_555
H86_2 C126_2 1_555 1_555
C133_2 C127_2 1_555 1_555
H87_2 C128_2 1_555 1_555
H88_2 C129_2 1_555 1_555
C134_2 C130_2 1_555 1_555
C135_2 C131_2 1_555 1_555
C136_2 C132_2 1_555 1_555
O47 C133_2 1_555 1_555
O50 C133_2 1_555 1_555
O41_2 C134_2 1_555 1_555
O42_2 C134_2 1_555 1_555
O43_2 C135_2 1_555 1_555
O44_2 C135_2 1_555 1_555
O45_2 C136_2 1_555 1_555
O46_2 C136_2 1_555 1_555
N22_2 C137_2 1_555 1_555
C137_2 N23_2 1_555 1_555
C138_2 N22_2 1_555 1_555
N23_2 H89_2 1_555 1_555
N24_2 C137_2 1_555 1_555
N25_2 C138_2 1_555 1_555
N26_2 C138_2 1_555 1_555
H90_2 N23_2 1_555 1_555
C139_2 N24_2 1_555 1_555
H91_2 N25_2 1_555 1_555
H92_2 N25_2 1_555 1_555
C140_2 C139_2 1_555 1_555
C141_2 C140_2 1_555 1_555
C142_2 C140_2 1_555 1_555
H93_2 C141_2 1_555 1_555
C143_2 C141_2 1_555 1_555
H95_2 C143_2 1_555 1_555
N27_2 C128_2 1_555 1_555
Co17_2 N27_2 1_555 1_555
Co24 O41_2 1_555 1_555
Co19_2 O42_2 1_555 1_555
Co20_2 O43_2 1_555 1_555
Co21_2 O44_2 1_555 1_555
Co21 O45_2 1_555 1_555
Co20 O46_2 1_555 1_555
O47_2 Co24 1_555 1_555
O48_2 Co24 1_555 1_555
O49_2 Co24 1_555 1_555
O50_2 Co19_2 1_555 1_555
O51_2 Co19_2 1_555 1_555
O52_2 Co19_2 1_555 1_555
O32_2 Co14_2 1_555 1_555
O33_2 Co14_2 1_555 1_555
O34_2 Co14_2 1_555 1_555
C90_2 C97_2 1_555 1_555
C92_2 C100_2 1_555 1_555
C94_2 C101_2 1_555 1_555
C96_2 C102_2 1_555 1_555
N20_2 C104_2 1_555 1_555
C118_2 C127_2 1_555 1_555
C122_2 C130_2 1_555 1_555
C124_2 C131_2 1_555 1_555
C126_2 C132_2 1_555 1_555
C129_2 N27_2 1_555 1_555
N22_2 Co19_2 1_555 1_555
N26_2 C139_2 1_555 1_555
H80_3 C120_3 1_555 1_555
H81_3 C121_3 1_555 1_555
C130_3 C121_3 1_555 1_555
C134_3 C130_3 1_555 1_555
O41_3 C134_3 1_555 1_555
O42_3 C134_3 1_555 1_555
N21_2 Co23 1_555 1_555
N22_3 C137_3 1_555 1_555
C137_3 N23_3 1_555 1_555
C138_3 N22_3 1_555 1_555
N23_3 H89_3 1_555 1_555
N24_3 C137_3 1_555 1_555
N25_3 C138_3 1_555 1_555
N26_3 C138_3 1_555 1_555
H90_3 N23_3 1_555 1_555
C139_3 N24_3 1_555 1_555
H91_3 N25_3 1_555 1_555
H92_3 N25_3 1_555 1_555
C140_3 C139_3 1_555 1_555
C141_3 C140_3 1_555 1_555
C142_3 C140_3 1_555 1_555
H93_3 C141_3 1_555 1_555
C143_3 C141_3 1_555 1_555
C144_3 C142_3 1_555 1_555
H94_3 C142_3 1_555 1_555
H95_3 C143_3 1_555 1_555
H96_3 C144_3 1_555 1_555
Co23 O41_3 1_555 1_555
Co22 O42_3 1_555 1_555
O47_3 Co23 1_555 1_555
O48_3 Co23 1_555 1_555
O50_3 Co22 1_555 1_555
O51_3 Co22 1_555 1_555
N28_3 C143_3 1_555 1_555
Co20 N28_3 1_555 1_555
N22_3 Co22 1_555 1_555
N26_3 C139_3 1_555 1_555
C144_3 N28_3 1_555 1_555
Co17_2 O27_3 1_555 1_555
O27_3 C73_3 1_555 1_555
O28_3 Co17_2 1_555 1_555
O29_3 Co17_2 1_555 1_555
O30_3 Co17_2 1_555 1_555
C73_3 C77_3 1_555 1_555
C74_3 O28_3 1_555 1_555
C75_3 O29_3 1_555 1_555
C76_3 O30_3 1_555 1_555
C77_3 C81_3 1_555 1_555
O31_3 C73_3 1_555 1_555
C78_3 C74_3 1_555 1_555
O32_3 C74_3 1_555 1_555
C79_3 C75_3 1_555 1_555
O33_3 C75_3 1_555 1_555
C80_3 C76_3 1_555 1_555
O34_3 C76_3 1_555 1_555
C81_3 H49_3 1_555 1_555
C82_3 C77_3 1_555 1_555
Co14_3 O31_3 1_555 1_555
C83_3 C78_3 1_555 1_555
C84_3 C78_3 1_555 1_555
C85_3 C79_3 1_555 1_555
C86_3 C79_3 1_555 1_555
C87_3 C80_3 1_555 1_555
C88_3 C80_3 1_555 1_555
C89_3 C81_3 1_555 1_555
C90_3 C82_3 1_555 1_555
H50_3 C82_3 1_555 1_555
N16_3 Co14_3 1_555 1_555
H51_3 C83_3 1_555 1_555
C91_3 C83_3 1_555 1_555
C92_3 C84_3 1_555 1_555
H52_3 C84_3 1_555 1_555
H53_3 C85_3 1_555 1_555
C93_3 C85_3 1_555 1_555
C94_3 C86_3 1_555 1_555
H54_3 C86_3 1_555 1_555
H55_3 C87_3 1_555 1_555
C95_3 C87_3 1_555 1_555
C96_3 C88_3 1_555 1_555
H56_3 C88_3 1_555 1_555
H57_3 C89_3 1_555 1_555
C97_3 C89_3 1_555 1_555
C98_3 N16_3 1_555 1_555
C99_3 N16_3 1_555 1_555
H59_3 C91_3 1_555 1_555
C100_3 C91_3 1_555 1_555
H60_3 C92_3 1_555 1_555
H61_3 C93_3 1_555 1_555
C101_3 C93_3 1_555 1_555
H62_3 C94_3 1_555 1_555
H63_3 C95_3 1_555 1_555
C102_3 C95_3 1_555 1_555
H64_3 C96_3 1_555 1_555
N17_3 C98_3 1_555 1_555
N18_3 C98_3 1_555 1_555
N19_3 C99_3 1_555 1_555
N20_3 C99_3 1_555 1_555
O36_3 C100_3 1_555 1_555
O37_3 C101_3 1_555 1_555
O38_3 C102_3 1_555 1_555
H65_3 N17_3 1_555 1_555
H66_3 N17_3 1_555 1_555
C104_3 N18_3 1_555 1_555
H67_3 N19_3 1_555 1_555
H68_3 N19_3 1_555 1_555
C105_3 O36_3 1_555 1_555
C106_3 O37_3 1_555 1_555
C107_3 O38_3 1_555 1_555
C110_3 C104_3 1_555 1_555
C111_3 C105_3 1_555 1_555
C112_3 C105_3 1_555 1_555
C113_3 C106_3 1_555 1_555
C114_3 C106_3 1_555 1_555
C115_3 C107_3 1_555 1_555
C116_3 C107_3 1_555 1_555
H71_3 C111_3 1_555 1_555
C122_3 C112_3 1_555 1_555
H72_3 C112_3 1_555 1_555
H73_3 C113_3 1_555 1_555
C123_3 C113_3 1_555 1_555
C124_3 C114_3 1_555 1_555
H74_3 C114_3 1_555 1_555
H75_3 C115_3 1_555 1_555
C125_3 C115_3 1_555 1_555
C126_3 C116_3 1_555 1_555
H76_3 C116_3 1_555 1_555
H82_3 C122_3 1_555 1_555
H83_3 C123_3 1_555 1_555
C131_3 C123_3 1_555 1_555
H84_3 C124_3 1_555 1_555
H85_3 C125_3 1_555 1_555
C132_3 C125_3 1_555 1_555
H86_3 C126_3 1_555 1_555
C135_3 C131_3 1_555 1_555
C136_3 C132_3 1_555 1_555
O48_2 C135_3 1_555 1_555
O51_2 C135_3 1_555 1_555
O52 C136_3 1_555 1_555
O49 C136_3 1_555 1_555
O32_3 Co14_3 1_555 1_555
O33_3 Co14_3 1_555 1_555
O34_3 Co14_3 1_555 1_555
C90_3 C97_3 1_555 1_555
C92_3 C100_3 1_555 1_555
C94_3 C101_3 1_555 1_555
C96_3 C102_3 1_555 1_555
N20_3 C104_3 1_555 1_555
C124_3 C131_3 1_555 1_555
C126_3 C132_3 1_555 1_555
H88_3 C129_3 1_555 1_555
Co17_3 N27_3 1_555 1_555
C129_3 N27_3 1_555 1_555
C103_3 O35_3 1_555 1_555
C108_3 C103_3 1_555 1_555
C109_3 C103_3 1_555 1_555
H69_3 C108_3 1_555 1_555
C117_3 C108_3 1_555 1_555
C118_3 C109_3 1_555 1_555
H77_3 C117_3 1_555 1_555
C127_3 C117_3 1_555 1_555
H78_3 C118_3 1_555 1_555
H79_3 C119_3 1_555 1_555
C128_3 C119_3 1_555 1_555
C133_3 C127_3 1_555 1_555
H87_3 C128_3 1_555 1_555
O39_2 C133_3 1_555 1_555
O40_2 C133_3 1_555 1_555
Co15_2 O39_2 1_555 1_555
Co16_2 O40_2 1_555 1_555
C118_3 C127_3 1_555 1_555
O36_4 C100_4 1_555 1_555
C105_4 O36_4 1_555 1_555
C111_4 C105_4 1_555 1_555
C112_4 C105_4 1_555 1_555
C117_4 C108_4 1_555 1_555
C118_4 C109_4 1_555 1_555
H70_4 C109_4 1_555 1_555
H71_4 C111_4 1_555 1_555
C121_4 C111_4 1_555 1_555
C122_4 C112_4 1_555 1_555
H72_4 C112_4 1_555 1_555
H77_4 C117_4 1_555 1_555
C127_4 C117_4 1_555 1_555
H78_4 C118_4 1_555 1_555
H81_4 C121_4 1_555 1_555
C130_4 C121_4 1_555 1_555
H82_4 C122_4 1_555 1_555
C133_4 C127_4 1_555 1_555
C134_4 C130_4 1_555 1_555
O47_3 C133_4 1_555 1_555
O50_3 C133_4 1_555 1_555
O41_4 C134_4 1_555 1_555
O42_4 C134_4 1_555 1_555
N22_4 C137_4 1_555 1_555
C137_4 N23_4 1_555 1_555
C138_4 N22_4 1_555 1_555
N23_4 H89_4 1_555 1_555
N24_4 C137_4 1_555 1_555
N25_4 C138_4 1_555 1_555
N26_4 C138_4 1_555 1_555
H90_4 N23_4 1_555 1_555
C139_4 N24_4 1_555 1_555
H91_4 N25_4 1_555 1_555
H92_4 N25_4 1_555 1_555
C140_4 C139_4 1_555 1_555
C141_4 C140_4 1_555 1_555
C142_4 C140_4 1_555 1_555
H93_4 C141_4 1_555 1_555
C143_4 C141_4 1_555 1_555
C144_4 C142_4 1_555 1_555
H94_4 C142_4 1_555 1_555
H95_4 C143_4 1_555 1_555
H96_4 C144_4 1_555 1_555
Co20 O41_4 1_555 1_555
Co21 O42_4 1_555 1_555
O47_4 Co20 1_555 1_555
O50_4 Co21 1_555 1_555
N28_4 C143_4 1_555 1_555
Co20_2 N28_4 1_555 1_555
C118_4 C127_4 1_555 1_555
C122_4 C130_4 1_555 1_555
N22_4 Co21 1_555 1_555
N26_4 C139_4 1_555 1_555
C144_4 N28_4 1_555 1_555
Co13_3 O27_4 1_555 1_555
O27_4 C73_4 1_555 1_555
O28_4 Co13_3 1_555 1_555
O29_4 Co13_3 1_555 1_555
O30_4 Co13_3 1_555 1_555
N15_3 Co13_3 1_555 1_555
C73_4 C77_4 1_555 1_555
C74_4 O28_4 1_555 1_555
C75_4 O29_4 1_555 1_555
C76_4 O30_4 1_555 1_555
C77_4 C81_4 1_555 1_555
O31_4 C73_4 1_555 1_555
C78_4 C74_4 1_555 1_555
O32_4 C74_4 1_555 1_555
C79_4 C75_4 1_555 1_555
O33_4 C75_4 1_555 1_555
C80_4 C76_4 1_555 1_555
O34_4 C76_4 1_555 1_555
C82_4 C77_4 1_555 1_555
Co14_4 O31_4 1_555 1_555
C83_4 C78_4 1_555 1_555
C84_4 C78_4 1_555 1_555
C85_4 C79_4 1_555 1_555
C86_4 C79_4 1_555 1_555
C87_4 C80_4 1_555 1_555
C88_4 C80_4 1_555 1_555
C90_4 C82_4 1_555 1_555
H50_4 C82_4 1_555 1_555
N16_4 Co14_4 1_555 1_555
H51_4 C83_4 1_555 1_555
C91_4 C83_4 1_555 1_555
C92_4 C84_4 1_555 1_555
H52_4 C84_4 1_555 1_555
H53_4 C85_4 1_555 1_555
C93_4 C85_4 1_555 1_555
C94_4 C86_4 1_555 1_555
H54_4 C86_4 1_555 1_555
H55_4 C87_4 1_555 1_555
C96_4 C88_4 1_555 1_555
H56_4 C88_4 1_555 1_555
H58_4 C90_4 1_555 1_555
C98_4 N16_4 1_555 1_555
C99_4 N16_4 1_555 1_555
H60_4 C92_4 1_555 1_555
H61_4 C93_4 1_555 1_555
C101_4 C93_4 1_555 1_555
H62_4 C94_4 1_555 1_555
H64_4 C96_4 1_555 1_555
O35_4 C97_4 1_555 1_555
N17_4 C98_4 1_555 1_555
N18_4 C98_4 1_555 1_555
N19_4 C99_4 1_555 1_555
N20_4 C99_4 1_555 1_555
O37_4 C101_4 1_555 1_555
C103_4 O35_4 1_555 1_555
H65_4 N17_4 1_555 1_555
H66_4 N17_4 1_555 1_555
C104_4 N18_4 1_555 1_555
H67_4 N19_4 1_555 1_555
H68_4 N19_4 1_555 1_555
C106_4 O37_4 1_555 1_555
C108_5 C103_4 1_555 1_555
C110_4 C104_4 1_555 1_555
C113_4 C106_4 1_555 1_555
C114_4 C106_4 1_555 1_555
C119_4 C110_4 1_555 1_555
C120_4 C110_4 1_555 1_555
H73_4 C113_4 1_555 1_555
C123_4 C113_4 1_555 1_555
C124_4 C114_4 1_555 1_555
H74_4 C114_4 1_555 1_555
H79_4 C119_4 1_555 1_555
C128_4 C119_4 1_555 1_555
H80_4 C120_4 1_555 1_555
C129_4 C120_4 1_555 1_555
H83_4 C123_4 1_555 1_555
C131_4 C123_4 1_555 1_555
H84_4 C124_4 1_555 1_555
H87_4 C128_4 1_555 1_555
H88_4 C129_4 1_555 1_555
C135_4 C131_4 1_555 1_555
O43_3 C135_4 1_555 1_555
O44_3 C135_4 1_555 1_555
N15 C128_4 1_555 1_555
Co24_2 O43_3 1_555 1_555
Co21_3 O44_3 1_555 1_555
O32_4 Co14_4 1_555 1_555
O33_4 Co14_4 1_555 1_555
O34_4 Co14_4 1_555 1_555
C90_4 C97_4 1_555 1_555
C94_4 C101_4 1_555 1_555
C96_4 C102_4 1_555 1_555
N20_4 C104_4 1_555 1_555
C124_4 C131_4 1_555 1_555
C129_4 N15 1_555 1_555
H57_4 C89_4 1_555 1_555
H63_4 C95_4 1_555 1_555
C107_4 O38_4 1_555 1_555
C115_4 C107_4 1_555 1_555
C116_4 C107_4 1_555 1_555
H75_4 C115_4 1_555 1_555
C125_4 C115_4 1_555 1_555
C126_4 C116_4 1_555 1_555
H76_4 C116_4 1_555 1_555
H85_4 C125_4 1_555 1_555
C132_4 C125_4 1_555 1_555
H86_4 C126_4 1_555 1_555
C136_4 C132_4 1_555 1_555
O52_2 C136_4 1_555 1_555
O49_2 C136_4 1_555 1_555
C126_4 C132_4 1_555 1_555
H64_5 C96_5 1_555 1_555
O38_5 C102_5 1_555 1_555
C107_5 O38_5 1_555 1_555
C113_5 C106_5 1_555 1_555
C114_5 C106_5 1_555 1_555
C115_5 C107_5 1_555 1_555
C116_5 C107_5 1_555 1_555
H73_5 C113_5 1_555 1_555
C123_5 C113_5 1_555 1_555
C124_5 C114_5 1_555 1_555
H74_5 C114_5 1_555 1_555
H75_5 C115_5 1_555 1_555
C125_5 C115_5 1_555 1_555
C126_5 C116_5 1_555 1_555
H76_5 C116_5 1_555 1_555
H83_5 C123_5 1_555 1_555
C131_5 C123_5 1_555 1_555
H84_5 C124_5 1_555 1_555
H85_5 C125_5 1_555 1_555
C132_5 C125_5 1_555 1_555
H86_5 C126_5 1_555 1_555
C135_5 C131_5 1_555 1_555
C136_5 C132_5 1_555 1_555
O43_4 C135_5 1_555 1_555
O44_4 C135_5 1_555 1_555
O45_3 C136_5 1_555 1_555
O46_3 C136_5 1_555 1_555
Co15_2 O43_4 1_555 1_555
Co16_2 O44_4 1_555 1_555
Co21_2 O45_3 1_555 1_555
Co20_2 O46_3 1_555 1_555
C96_5 C102_5 1_555 1_555
C124_5 C131_5 1_555 1_555
C126_5 C132_5 1_555 1_555
H80_5 C120_5 1_555 1_555
C129_5 C120_5 1_555 1_555
H81_5 C121_5 1_555 1_555
C130_5 C121_5 1_555 1_555
H88_5 C129_5 1_555 1_555
C134_5 C130_5 1_555 1_555
O41_5 C134_5 1_555 1_555
O42_5 C134_5 1_555 1_555
N22_5 C137_5 1_555 1_555
C137_5 N23_5 1_555 1_555
C138_5 N22_5 1_555 1_555
N23_5 H89_5 1_555 1_555
N24_5 C137_5 1_555 1_555
N25_5 C138_5 1_555 1_555
N26_5 C138_5 1_555 1_555
H90_5 N23_5 1_555 1_555
C139_5 N24_5 1_555 1_555
H91_5 N25_5 1_555 1_555
H92_5 N25_5 1_555 1_555
C140_5 C139_5 1_555 1_555
C141_5 C140_5 1_555 1_555
C142_5 C140_5 1_555 1_555
H93_5 C141_5 1_555 1_555
C143_5 C141_5 1_555 1_555
C144_5 C142_5 1_555 1_555
H94_5 C142_5 1_555 1_555
H95_5 C143_5 1_555 1_555
H96_5 C144_5 1_555 1_555
Co24_2 O41_5 1_555 1_555
Co21_3 O42_5 1_555 1_555
O47_5 Co24_2 1_555 1_555
O49_3 Co24_2 1_555 1_555
O50_5 Co21_3 1_555 1_555
O52_3 Co21_3 1_555 1_555
N28_5 C143_5 1_555 1_555
Co15 N28_5 1_555 1_555
C129_5 N15_3 1_555 1_555
N22_5 Co21_3 1_555 1_555
N26_5 C139_5 1_555 1_555
C144_5 N28_5 1_555 1_555
Co13_4 O27_5 1_555 1_555
O27_5 C73_5 1_555 1_555
O28_5 Co13_4 1_555 1_555
O29_5 Co13_4 1_555 1_555
O30_5 Co13_4 1_555 1_555
N15_4 Co13_4 1_555 1_555
C73_5 C77_5 1_555 1_555
C74_5 O28_5 1_555 1_555
C75_5 O29_5 1_555 1_555
C76_5 O30_5 1_555 1_555
C77_5 C81_5 1_555 1_555
O31_5 C73_5 1_555 1_555
C78_5 C74_5 1_555 1_555
O32_5 C74_5 1_555 1_555
C79_5 C75_5 1_555 1_555
O33_5 C75_5 1_555 1_555
C80_5 C76_5 1_555 1_555
O34_5 C76_5 1_555 1_555
C81_5 H49_5 1_555 1_555
C82_5 C77_5 1_555 1_555
Co14_5 O31_5 1_555 1_555
C83_5 C78_5 1_555 1_555
C84_5 C78_5 1_555 1_555
C85_5 C79_5 1_555 1_555
C86_5 C79_5 1_555 1_555
C87_5 C80_5 1_555 1_555
C88_5 C80_5 1_555 1_555
C89_5 C81_5 1_555 1_555
C90_5 C82_5 1_555 1_555
H50_5 C82_5 1_555 1_555
N16_5 Co14_5 1_555 1_555
H51_5 C83_5 1_555 1_555
C91_5 C83_5 1_555 1_555
C92_5 C84_5 1_555 1_555
H52_5 C84_5 1_555 1_555
H53_5 C85_5 1_555 1_555
C93_5 C85_5 1_555 1_555
C94_5 C86_5 1_555 1_555
H54_5 C86_5 1_555 1_555
H55_6 C87_5 1_555 1_555
C95_5 C87_5 1_555 1_555
H56_5 C88_5 1_555 1_555
H57_5 C89_5 1_555 1_555
C97_5 C89_5 1_555 1_555
H58_5 C90_5 1_555 1_555
C98_5 N16_5 1_555 1_555
C99_5 N16_5 1_555 1_555
H59_5 C91_5 1_555 1_555
C100_5 C91_5 1_555 1_555
H60_5 C92_5 1_555 1_555
H61_5 C93_5 1_555 1_555
C101_5 C93_5 1_555 1_555
H62_5 C94_5 1_555 1_555
O35_5 C97_5 1_555 1_555
N17_5 C98_5 1_555 1_555
N18_5 C98_5 1_555 1_555
N19_5 C99_5 1_555 1_555
N20_5 C99_5 1_555 1_555
O36_5 C100_5 1_555 1_555
O37_5 C101_5 1_555 1_555
C103_5 O35_5 1_555 1_555
H65_5 N17_5 1_555 1_555
H66_5 N17_5 1_555 1_555
C104_5 N18_5 1_555 1_555
H67_5 N19_5 1_555 1_555
H68_5 N19_5 1_555 1_555
C105_5 O36_5 1_555 1_555
C108_6 C103_5 1_555 1_555
C109_5 C103_5 1_555 1_555
C110_5 C104_5 1_555 1_555
C111_5 C105_5 1_555 1_555
C112_5 C105_5 1_555 1_555
H69_5 C108_6 1_555 1_555
C117_5 C108_6 1_555 1_555
C118_5 C109_5 1_555 1_555
H70_5 C109_5 1_555 1_555
C119_5 C110_5 1_555 1_555
H71_5 C111_5 1_555 1_555
C122_5 C112_5 1_555 1_555
H72_5 C112_5 1_555 1_555
H77_5 C117_5 1_555 1_555
C127_5 C117_5 1_555 1_555
H78_5 C118_5 1_555 1_555
H79_5 C119_5 1_555 1_555
C128_5 C119_5 1_555 1_555
H82_5 C122_5 1_555 1_555
C133_5 C127_5 1_555 1_555
H87_5 C128_5 1_555 1_555
O47_2 C133_5 1_555 1_555
O50_2 C133_5 1_555 1_555
O32_5 Co14_5 1_555 1_555
O33_5 Co14_5 1_555 1_555
O34_5 Co14_5 1_555 1_555
C90_5 C97_5 1_555 1_555
C92_5 C100_5 1_555 1_555
C94_5 C101_5 1_555 1_555
N20_5 C104_5 1_555 1_555
C118_5 C127_5 1_555 1_555
H62_6 C94_6 1_555 1_555
O37_6 C101_6 1_555 1_555
C106_6 O37_6 1_555 1_555
C113_6 C106_6 1_555 1_555
C114_6 C106_6 1_555 1_555
H73_6 C113_6 1_555 1_555
C123_6 C113_6 1_555 1_555
C124_6 C114_6 1_555 1_555
H74_6 C114_6 1_555 1_555
H83_6 C123_6 1_555 1_555
C131_6 C123_6 1_555 1_555
H84_6 C124_6 1_555 1_555
C135_6 C131_6 1_555 1_555
O48_3 C135_6 1_555 1_555
O51_3 C135_6 1_555 1_555
C137_6 N23_6 1_555 1_555
N23_6 H89_6 1_555 1_555
N24_6 C137_6 1_555 1_555
C139_6 N24_6 1_555 1_555
C140_6 C139_6 1_555 1_555
C141_6 C140_6 1_555 1_555
C142_6 C140_6 1_555 1_555
H93_6 C141_6 1_555 1_555
C143_6 C141_6 1_555 1_555
C144_6 C142_6 1_555 1_555
H94_6 C142_6 1_555 1_555
H95_6 C143_6 1_555 1_555
H96_6 C144_6 1_555 1_555
N21 C143_6 1_555 1_555
C94_6 C101_6 1_555 1_555
C124_6 C131_6 1_555 1_555
C144_6 N21 1_555 1_555
Co17_3 O27_6 1_555 1_555
O27_6 C73_6 1_555 1_555
O28_6 Co17_3 1_555 1_555
O29_6 Co17_3 1_555 1_555
O30_6 Co17_3 1_555 1_555
C73_6 C77_6 1_555 1_555
C74_6 O28_6 1_555 1_555
C75_6 O29_6 1_555 1_555
C76_6 O30_6 1_555 1_555
C77_6 C81_6 1_555 1_555
O31_6 C73_6 1_555 1_555
C78_6 C74_6 1_555 1_555
O32_6 C74_6 1_555 1_555
C79_6 C75_6 1_555 1_555
O33_6 C75_6 1_555 1_555
C80_6 C76_6 1_555 1_555
O34_6 C76_6 1_555 1_555
C82_6 C77_6 1_555 1_555
Co14_6 O31_6 1_555 1_555
C83_6 C78_6 1_555 1_555
C84_6 C78_6 1_555 1_555
C85_6 C79_6 1_555 1_555
C86_6 C79_6 1_555 1_555
C87_6 C80_6 1_555 1_555
C88_6 C80_6 1_555 1_555
C90_6 C82_6 1_555 1_555
H50_6 C82_6 1_555 1_555
N16_6 Co14_6 1_555 1_555
H51_6 C83_6 1_555 1_555
C91_6 C83_6 1_555 1_555
C92_6 C84_6 1_555 1_555
H52_6 C84_6 1_555 1_555
H53_6 C85_6 1_555 1_555
C93_6 C85_6 1_555 1_555
H54_6 C86_6 1_555 1_555
H55_7 C87_6 1_555 1_555
C96_6 C88_6 1_555 1_555
H56_6 C88_6 1_555 1_555
H58_6 C90_6 1_555 1_555
C98_6 N16_6 1_555 1_555
C99_6 N16_6 1_555 1_555
H59_6 C91_6 1_555 1_555
C100_6 C91_6 1_555 1_555
H60_6 C92_6 1_555 1_555
H61_6 C93_6 1_555 1_555
H64_6 C96_6 1_555 1_555
O35_6 C97_6 1_555 1_555
N17_6 C98_6 1_555 1_555
N18_6 C98_6 1_555 1_555
N19_6 C99_6 1_555 1_555
N20_6 C99_6 1_555 1_555
O36_6 C100_6 1_555 1_555
C103_6 O35_6 1_555 1_555
H65_6 N17_6 1_555 1_555
H66_6 N17_6 1_555 1_555
C104_6 N18_6 1_555 1_555
H67_6 N19_6 1_555 1_555
H68_6 N19_6 1_555 1_555
C105_6 O36_6 1_555 1_555
C108_7 C103_6 1_555 1_555
C109_6 C103_6 1_555 1_555
C110_6 C104_6 1_555 1_555
C111_6 C105_6 1_555 1_555
C112_6 C105_6 1_555 1_555
C117_6 C108_7 1_555 1_555
C118_6 C109_6 1_555 1_555
H70_6 C109_6 1_555 1_555
C119_6 C110_6 1_555 1_555
C120_6 C110_6 1_555 1_555
C121_6 C111_6 1_555 1_555
C122_6 C112_6 1_555 1_555
H72_6 C112_6 1_555 1_555
H77_6 C117_6 1_555 1_555
C127_6 C117_6 1_555 1_555
H78_6 C118_6 1_555 1_555
H79_6 C119_6 1_555 1_555
C128_6 C119_6 1_555 1_555
H80_6 C120_6 1_555 1_555
C129_6 C120_6 1_555 1_555
H81_6 C121_6 1_555 1_555
C130_6 C121_6 1_555 1_555
H82_6 C122_6 1_555 1_555
C133_6 C127_6 1_555 1_555
H87_6 C128_6 1_555 1_555
H88_6 C129_6 1_555 1_555
C134_6 C130_6 1_555 1_555
O47_5 C133_6 1_555 1_555
O50_5 C133_6 1_555 1_555
O41_6 C134_6 1_555 1_555
O42_6 C134_6 1_555 1_555
C138_6 N22_6 1_555 1_555
N25_6 C138_6 1_555 1_555
N26_6 C138_6 1_555 1_555
H91_6 N25_6 1_555 1_555
H92_6 N25_6 1_555 1_555
N27_4 C128_6 1_555 1_555
Co17_4 N27_4 1_555 1_555
Co15 O41_6 1_555 1_555
Co16 O42_6 1_555 1_555
O48_4 Co15 1_555 1_555
O49_4 Co15 1_555 1_555
O51_4 Co16 1_555 1_555
O52_4 Co16 1_555 1_555
O32_6 Co14_6 1_555 1_555
O33_6 Co14_6 1_555 1_555
O34_6 Co14_6 1_555 1_555
C90_6 C97_6 1_555 1_555
C92_6 C100_6 1_555 1_555
C96_6 C102_6 1_555 1_555
N20_6 C104_6 1_555 1_555
C118_6 C127_6 1_555 1_555
C122_6 C130_6 1_555 1_555
C129_6 N27_4 1_555 1_555
N22_6 Co16 1_555 1_555
H57_6 C89_6 1_555 1_555
H63_6 C95_6 1_555 1_555
C107_6 O38_6 1_555 1_555
C115_6 C107_6 1_555 1_555
C116_6 C107_6 1_555 1_555
H75_6 C115_6 1_555 1_555
C125_6 C115_6 1_555 1_555
C126_6 C116_6 1_555 1_555
H76_6 C116_6 1_555 1_555
H85_6 C125_6 1_555 1_555
C132_6 C125_6 1_555 1_555
H86_6 C126_6 1_555 1_555
C136_6 C132_6 1_555 1_555
O45_4 C136_6 1_555 1_555
O46_4 C136_6 1_555 1_555
Co16_2 O45_4 1_555 1_555
Co15_2 O46_4 1_555 1_555
C126_6 C132_6 1_555 1_555
Co17_4 O27_7 1_555 1_555
O27_7 C73_7 1_555 1_555
O28_7 Co17_4 1_555 1_555
O29_7 Co17_4 1_555 1_555
O30_7 Co17_4 1_555 1_555
C73_7 C77_7 1_555 1_555
C74_7 O28_7 1_555 1_555
C75_7 O29_7 1_555 1_555
C76_7 O30_7 1_555 1_555
C77_7 C81_7 1_555 1_555
O31_7 C73_7 1_555 1_555
C78_7 C74_7 1_555 1_555
O32_7 C74_7 1_555 1_555
C79_7 C75_7 1_555 1_555
O33_7 C75_7 1_555 1_555
C80_7 C76_7 1_555 1_555
O34_7 C76_7 1_555 1_555
C81_7 H49_7 1_555 1_555
C82_7 C77_7 1_555 1_555
Co14_7 O31_7 1_555 1_555
C83_7 C78_7 1_555 1_555
C84_7 C78_7 1_555 1_555
C85_7 C79_7 1_555 1_555
C86_7 C79_7 1_555 1_555
C87_7 C80_7 1_555 1_555
C88_7 C80_7 1_555 1_555
C89_7 C81_7 1_555 1_555
C90_7 C82_7 1_555 1_555
H50_7 C82_7 1_555 1_555
N16_7 Co14_7 1_555 1_555
H51_7 C83_7 1_555 1_555
C91_7 C83_7 1_555 1_555
C92_7 C84_7 1_555 1_555
H52_7 C84_7 1_555 1_555
H53_7 C85_7 1_555 1_555
C93_7 C85_7 1_555 1_555
C94_7 C86_7 1_555 1_555
H54_7 C86_7 1_555 1_555
H55_9 C87_7 1_555 1_555
C95_7 C87_7 1_555 1_555
C96_7 C88_7 1_555 1_555
H56_7 C88_7 1_555 1_555
H57_7 C89_7 1_555 1_555
C97_7 C89_7 1_555 1_555
H58_7 C90_7 1_555 1_555
C98_7 N16_7 1_555 1_555
C99_7 N16_7 1_555 1_555
H59_7 C91_7 1_555 1_555
C100_7 C91_7 1_555 1_555
H60_7 C92_7 1_555 1_555
H61_7 C93_7 1_555 1_555
C101_7 C93_7 1_555 1_555
H62_7 C94_7 1_555 1_555
H63_7 C95_7 1_555 1_555
C102_7 C95_7 1_555 1_555
H64_7 C96_7 1_555 1_555
O35_7 C97_7 1_555 1_555
N17_7 C98_7 1_555 1_555
N18_7 C98_7 1_555 1_555
N19_7 C99_7 1_555 1_555
N20_7 C99_7 1_555 1_555
O36_7 C100_7 1_555 1_555
O37_7 C101_7 1_555 1_555
O38_7 C102_7 1_555 1_555
C103_7 O35_7 1_555 1_555
H65_7 N17_7 1_555 1_555
H66_7 N17_7 1_555 1_555
C104_7 N18_7 1_555 1_555
H67_7 N19_7 1_555 1_555
H68_7 N19_7 1_555 1_555
C105_7 O36_7 1_555 1_555
C106_7 O37_7 1_555 1_555
C107_7 O38_7 1_555 1_555
C108_8 C103_7 1_555 1_555
C109_7 C103_7 1_555 1_555
C110_7 C104_7 1_555 1_555
C111_7 C105_7 1_555 1_555
C112_7 C105_7 1_555 1_555
C113_7 C106_7 1_555 1_555
C114_7 C106_7 1_555 1_555
C115_7 C107_7 1_555 1_555
C116_7 C107_7 1_555 1_555
H69_7 C108_8 1_555 1_555
C117_7 C108_8 1_555 1_555
C118_7 C109_7 1_555 1_555
H70_7 C109_7 1_555 1_555
C119_7 C110_7 1_555 1_555
C120_7 C110_7 1_555 1_555
H71_7 C111_7 1_555 1_555
C121_7 C111_7 1_555 1_555
C122_7 C112_7 1_555 1_555
H72_7 C112_7 1_555 1_555
H73_7 C113_7 1_555 1_555
C123_7 C113_7 1_555 1_555
C124_7 C114_7 1_555 1_555
H74_7 C114_7 1_555 1_555
H75_7 C115_7 1_555 1_555
C125_7 C115_7 1_555 1_555
C126_7 C116_7 1_555 1_555
H76_7 C116_7 1_555 1_555
H77_7 C117_7 1_555 1_555
C127_7 C117_7 1_555 1_555
H78_7 C118_7 1_555 1_555
H79_7 C119_7 1_555 1_555
C128_7 C119_7 1_555 1_555
H80_7 C120_7 1_555 1_555
C129_7 C120_7 1_555 1_555
H81_7 C121_7 1_555 1_555
C130_7 C121_7 1_555 1_555
H82_7 C122_7 1_555 1_555
H83_7 C123_7 1_555 1_555
C131_7 C123_7 1_555 1_555
H84_7 C124_7 1_555 1_555
H85_7 C125_7 1_555 1_555
C132_7 C125_7 1_555 1_555
H86_7 C126_7 1_555 1_555
C133_7 C127_7 1_555 1_555
H87_7 C128_7 1_555 1_555
H88_7 C129_7 1_555 1_555
C134_7 C130_7 1_555 1_555
C135_7 C131_7 1_555 1_555
C136_7 C132_7 1_555 1_555
O47_4 C133_7 1_555 1_555
O50_4 C133_7 1_555 1_555
O41_7 C134_7 1_555 1_555
O42_7 C134_7 1_555 1_555
O48_4 C135_7 1_555 1_555
O51_4 C135_7 1_555 1_555
O52_3 C136_7 1_555 1_555
O49_3 C136_7 1_555 1_555
N22_7 C137_7 1_555 1_555
C137_7 N23_7 1_555 1_555
C138_7 N22_7 1_555 1_555
N23_7 H89_7 1_555 1_555
N24_7 C137_7 1_555 1_555
N25_7 C138_7 1_555 1_555
N26_7 C138_7 1_555 1_555
H90_7 N23_7 1_555 1_555
C139_7 N24_7 1_555 1_555
H91_7 N25_7 1_555 1_555
H92_7 N25_7 1_555 1_555
C140_7 C139_7 1_555 1_555
C141_7 C140_7 1_555 1_555
C142_7 C140_7 1_555 1_555
H93_7 C141_7 1_555 1_555
C143_7 C141_7 1_555 1_555
C144_7 C142_7 1_555 1_555
H94_7 C142_7 1_555 1_555
H95_7 C143_7 1_555 1_555
H96_7 C144_7 1_555 1_555
N15_2 C128_7 1_555 1_555
Co20_2 O41_7 1_555 1_555
Co21_2 O42_7 1_555 1_555
O47_6 Co20_2 1_555 1_555
O50_6 Co21_2 1_555 1_555
N28_6 C143_7 1_555 1_555
Co15_2 N28_6 1_555 1_555
O32_7 Co14_7 1_555 1_555
O33_7 Co14_7 1_555 1_555
O34_7 Co14_7 1_555 1_555
C90_7 C97_7 1_555 1_555
C92_7 C100_7 1_555 1_555
C94_7 C101_7 1_555 1_555
C96_7 C102_7 1_555 1_555
N20_7 C104_7 1_555 1_555
C118_7 C127_7 1_555 1_555
C122_7 C130_7 1_555 1_555
C124_7 C131_7 1_555 1_555
C126_7 C132_7 1_555 1_555
C129_7 N15_2 1_555 1_555
N22_7 Co21_2 1_555 1_555
N26_7 C139_7 1_555 1_555
C144_7 N28_6 1_555 1_555
H96_8 C144_8 1_555 1_555
C144_8 N21_2 1_555 1_555
H62_8 C94_8 1_555 1_555
O37_8 C101_8 1_555 1_555
C106_8 O37_8 1_555 1_555
C113_8 C106_8 1_555 1_555
C114_8 C106_8 1_555 1_555
H73_8 C113_8 1_555 1_555
C123_8 C113_8 1_555 1_555
C124_8 C114_8 1_555 1_555
H74_8 C114_8 1_555 1_555
H83_8 C123_8 1_555 1_555
C131_8 C123_8 1_555 1_555
H84_8 C124_8 1_555 1_555
C135_8 C131_8 1_555 1_555
O48 C135_8 1_555 1_555
O51 C135_8 1_555 1_555
C94_8 C101_8 1_555 1_555
C124_8 C131_8 1_555 1_555
O36_8 C100_8 1_555 1_555
C105_8 O36_8 1_555 1_555
C111_8 C105_8 1_555 1_555
C112_8 C105_8 1_555 1_555
C117_8 C108_9 1_555 1_555
C118_8 C109_8 1_555 1_555
H70_8 C109_8 1_555 1_555
C121_8 C111_8 1_555 1_555
C122_8 C112_8 1_555 1_555
H72_8 C112_8 1_555 1_555
H77_8 C117_8 1_555 1_555
C127_8 C117_8 1_555 1_555
H78_8 C118_8 1_555 1_555
H81_8 C121_8 1_555 1_555
C130_8 C121_8 1_555 1_555
H82_8 C122_8 1_555 1_555
C133_8 C127_8 1_555 1_555
C134_8 C130_8 1_555 1_555
O47_6 C133_8 1_555 1_555
O50_6 C133_8 1_555 1_555
O41_8 C134_8 1_555 1_555
O42_8 C134_8 1_555 1_555
C138_8 N22_8 1_555 1_555
N25_8 C138_8 1_555 1_555
N26_8 C138_8 1_555 1_555
H91_8 N25_8 1_555 1_555
H92_8 N25_8 1_555 1_555
Co15_2 O41_8 1_555 1_555
Co16_2 O42_8 1_555 1_555
C118_8 C127_8 1_555 1_555
C122_8 C130_8 1_555 1_555
N22_8 Co16_2 1_555 1_555
Co17 O27_8 1_555 1_555
O27_8 C73_8 1_555 1_555
O28_8 Co17 1_555 1_555
O29_8 Co17 1_555 1_555
O30_8 Co17 1_555 1_555
C73_8 C77_8 1_555 1_555
C74_8 O28_8 1_555 1_555
C75_8 O29_8 1_555 1_555
C76_8 O30_8 1_555 1_555
C77_8 C81_8 1_555 1_555
O31_8 C73_8 1_555 1_555
C78_8 C74_8 1_555 1_555
O32_8 C74_8 1_555 1_555
C79_8 C75_8 1_555 1_555
O33_8 C75_8 1_555 1_555
C80_8 C76_8 1_555 1_555
O34_8 C76_8 1_555 1_555
C81_8 H49_8 1_555 1_555
C82_8 C77_8 1_555 1_555
Co14_8 O31_8 1_555 1_555
C83_8 C78_8 1_555 1_555
C84_8 C78_8 1_555 1_555
C85_8 C79_8 1_555 1_555
C86_8 C79_8 1_555 1_555
C87_8 C80_8 1_555 1_555
C88_8 C80_8 1_555 1_555
C89_8 C81_8 1_555 1_555
C90_8 C82_8 1_555 1_555
H50_8 C82_8 1_555 1_555
N16_8 Co14_8 1_555 1_555
H51_8 C83_8 1_555 1_555
C91_8 C83_8 1_555 1_555
C92_8 C84_8 1_555 1_555
H52_8 C84_8 1_555 1_555
H53_8 C85_8 1_555 1_555
C93_8 C85_8 1_555 1_555
H54_8 C86_8 1_555 1_555
H55_10 C87_8 1_555 1_555
C95_8 C87_8 1_555 1_555
C96_8 C88_8 1_555 1_555
H56_8 C88_8 1_555 1_555
H57_8 C89_8 1_555 1_555
C97_8 C89_8 1_555 1_555
H58_8 C90_8 1_555 1_555
C98_8 N16_8 1_555 1_555
C99_8 N16_8 1_555 1_555
H60_8 C92_8 1_555 1_555
H61_8 C93_8 1_555 1_555
H63_8 C95_8 1_555 1_555
C102_8 C95_8 1_555 1_555
H64_8 C96_8 1_555 1_555
O35_8 C97_8 1_555 1_555
N17_8 C98_8 1_555 1_555
N18_8 C98_8 1_555 1_555
N19_8 C99_8 1_555 1_555
N20_8 C99_8 1_555 1_555
O38_8 C102_8 1_555 1_555
C103_8 O35_8 1_555 1_555
H65_8 N17_8 1_555 1_555
H66_8 N17_8 1_555 1_555
C104_8 N18_8 1_555 1_555
H67_8 N19_8 1_555 1_555
H68_8 N19_8 1_555 1_555
C107_8 O38_8 1_555 1_555
C108_10 C103_8 1_555 1_555
C110_8 C104_8 1_555 1_555
C115_8 C107_8 1_555 1_555
C116_8 C107_8 1_555 1_555
H69_8 C108_10 1_555 1_555
C119_8 C110_8 1_555 1_555
C120_8 C110_8 1_555 1_555
H75_8 C115_8 1_555 1_555
C125_8 C115_8 1_555 1_555
C126_8 C116_8 1_555 1_555
H76_8 C116_8 1_555 1_555
H79_8 C119_8 1_555 1_555
C128_8 C119_8 1_555 1_555
H80_8 C120_8 1_555 1_555
C129_8 C120_8 1_555 1_555
H85_8 C125_8 1_555 1_555
C132_8 C125_8 1_555 1_555
H86_8 C126_8 1_555 1_555
H87_8 C128_8 1_555 1_555
H88_8 C129_8 1_555 1_555
C136_8 C132_8 1_555 1_555
O52_4 C136_8 1_555 1_555
O49_4 C136_8 1_555 1_555
N15_4 C128_8 1_555 1_555
O32_8 Co14_8 1_555 1_555
O33_8 Co14_8 1_555 1_555
O34_8 Co14_8 1_555 1_555
C90_8 C97_8 1_555 1_555
C96_8 C102_8 1_555 1_555
N20_8 C104_8 1_555 1_555
C126_8 C132_8 1_555 1_555
C129_8 N15_4 1_555 1_555
C103_9 O35_9 1_555 1_555
C108_11 C103_9 1_555 1_555
C109_9 C103_9 1_555 1_555
H69_9 C108_11 1_555 1_555
C117_9 C108_11 1_555 1_555
C118_9 C109_9 1_555 1_555
H77_9 C117_9 1_555 1_555
C127_9 C117_9 1_555 1_555
H78_9 C118_9 1_555 1_555
H79_9 C119_9 1_555 1_555
C128_9 C119_9 1_555 1_555
C133_9 C127_9 1_555 1_555
H87_9 C128_9 1_555 1_555
H88_9 C129_9 1_555 1_555
O39_3 C133_9 1_555 1_555
O40_3 C133_9 1_555 1_555
Co15_3 O39_3 1_555 1_555
Co16_3 O40_3 1_555 1_555
N27_5 C128_9 1_555 1_555
Co17_5 N27_5 1_555 1_555
C118_9 C127_9 1_555 1_555
C129_9 N27_5 1_555 1_555
Co13_5 O27_9 1_555 1_555
O27_9 C73_9 1_555 1_555
O28_9 Co13_5 1_555 1_555
O29_9 Co13_5 1_555 1_555
O30_9 Co13_5 1_555 1_555
N15_5 Co13_5 1_555 1_555
C73_9 C77_9 1_555 1_555
C74_9 O28_9 1_555 1_555
C75_9 O29_9 1_555 1_555
C76_9 O30_9 1_555 1_555
C77_9 C81_9 1_555 1_555
O31_9 C73_9 1_555 1_555
C78_9 C74_9 1_555 1_555
O32_9 C74_9 1_555 1_555
C79_9 C75_9 1_555 1_555
O33_9 C75_9 1_555 1_555
C80_9 C76_9 1_555 1_555
O34_9 C76_9 1_555 1_555
C81_9 H49_9 1_555 1_555
C82_9 C77_9 1_555 1_555
Co14_9 O31_9 1_555 1_555
C83_9 C78_9 1_555 1_555
C84_9 C78_9 1_555 1_555
C85_9 C79_9 1_555 1_555
C86_9 C79_9 1_555 1_555
C87_9 C80_9 1_555 1_555
C88_9 C80_9 1_555 1_555
C89_9 C81_9 1_555 1_555
C90_9 C82_9 1_555 1_555
H50_9 C82_9 1_555 1_555
N16_9 Co14_9 1_555 1_555
H51_9 C83_9 1_555 1_555
C91_9 C83_9 1_555 1_555
C92_9 C84_9 1_555 1_555
H52_9 C84_9 1_555 1_555
H53_9 C85_9 1_555 1_555
C93_9 C85_9 1_555 1_555
C94_9 C86_9 1_555 1_555
H54_9 C86_9 1_555 1_555
H55_11 C87_9 1_555 1_555
C95_9 C87_9 1_555 1_555
H56_9 C88_9 1_555 1_555
H57_9 C89_9 1_555 1_555
C97_9 C89_9 1_555 1_555
C98_9 N16_9 1_555 1_555
C99_9 N16_9 1_555 1_555
H59_9 C91_9 1_555 1_555
C100_9 C91_9 1_555 1_555
H60_9 C92_9 1_555 1_555
H61_9 C93_9 1_555 1_555
C101_9 C93_9 1_555 1_555
H62_9 C94_9 1_555 1_555
N17_9 C98_9 1_555 1_555
N18_9 C98_9 1_555 1_555
N19_9 C99_9 1_555 1_555
N20_9 C99_9 1_555 1_555
O36_9 C100_9 1_555 1_555
O37_9 C101_9 1_555 1_555
H65_9 N17_9 1_555 1_555
H66_9 N17_9 1_555 1_555
C104_9 N18_9 1_555 1_555
H67_9 N19_9 1_555 1_555
H68_9 N19_9 1_555 1_555
C105_9 O36_9 1_555 1_555
C110_9 C104_9 1_555 1_555
C111_9 C105_9 1_555 1_555
C112_9 C105_9 1_555 1_555
C120_9 C110_9 1_555 1_555
H71_8 C111_9 1_555 1_555
C121_9 C111_9 1_555 1_555
C122_9 C112_9 1_555 1_555
H72_9 C112_9 1_555 1_555
H80_9 C120_9 1_555 1_555
H81_9 C121_9 1_555 1_555
C130_9 C121_9 1_555 1_555
H82_9 C122_9 1_555 1_555
C134_9 C130_9 1_555 1_555
O41_9 C134_9 1_555 1_555
O42_9 C134_9 1_555 1_555
N21_3 Co18_2 1_555 1_555
N22_9 C137_8 1_555 1_555
C137_8 N23_8 1_555 1_555
C138_9 N22_9 1_555 1_555
N23_8 H89_8 1_555 1_555
N24_8 C137_8 1_555 1_555
N25_9 C138_9 1_555 1_555
N26_9 C138_9 1_555 1_555
H90_9 N23_8 1_555 1_555
C139_8 N24_8 1_555 1_555
H91_9 N25_9 1_555 1_555
H92_9 N25_9 1_555 1_555
C140_8 C139_8 1_555 1_555
C141_8 C140_8 1_555 1_555
C142_8 C140_8 1_555 1_555
H93_8 C141_8 1_555 1_555
C143_8 C141_8 1_555 1_555
C144_9 C142_8 1_555 1_555
H94_9 C142_8 1_555 1_555
H95_8 C143_8 1_555 1_555
H96_9 C144_9 1_555 1_555
Co18_2 O41_9 1_555 1_555
Co19_3 O42_9 1_555 1_555
O47_7 Co18_2 1_555 1_555
O48_5 Co18_2 1_555 1_555
O49_5 Co18_2 1_555 1_555
O50_7 Co19_3 1_555 1_555
O51_5 Co19_3 1_555 1_555
O52_5 Co19_3 1_555 1_555
N28_7 C143_8 1_555 1_555
Co24_3 N28_7 1_555 1_555
O32_9 Co14_9 1_555 1_555
O33_9 Co14_9 1_555 1_555
O34_9 Co14_9 1_555 1_555
C90_9 C97_9 1_555 1_555
C92_9 C100_9 1_555 1_555
C94_9 C101_9 1_555 1_555
N20_9 C104_9 1_555 1_555
C122_9 C130_9 1_555 1_555
N22_9 Co19_3 1_555 1_555
N26_9 C139_8 1_555 1_555
C144_9 N28_7 1_555 1_555
H64_9 C96_9 1_555 1_555
O38_9 C102_9 1_555 1_555
C107_9 O38_9 1_555 1_555
C113_9 C106_9 1_555 1_555
C114_9 C106_9 1_555 1_555
C115_9 C107_9 1_555 1_555
C116_9 C107_9 1_555 1_555
H73_9 C113_9 1_555 1_555
C123_9 C113_9 1_555 1_555
C124_9 C114_9 1_555 1_555
H74_9 C114_9 1_555 1_555
H75_9 C115_9 1_555 1_555
C125_9 C115_9 1_555 1_555
C126_9 C116_9 1_555 1_555
H76_9 C116_9 1_555 1_555
H83_9 C123_9 1_555 1_555
C131_9 C123_9 1_555 1_555
H84_9 C124_9 1_555 1_555
H85_9 C125_9 1_555 1_555
C132_9 C125_9 1_555 1_555
H86_9 C126_9 1_555 1_555
C135_9 C131_9 1_555 1_555
C136_9 C132_9 1_555 1_555
O43_5 C135_9 1_555 1_555
O44_5 C135_9 1_555 1_555
O45_5 C136_9 1_555 1_555
O46_5 C136_9 1_555 1_555
Co20_3 O43_5 1_555 1_555
Co21_4 O44_5 1_555 1_555
Co22_2 O45_5 1_555 1_555
Co23_2 O46_5 1_555 1_555
C96_9 C102_9 1_555 1_555
C124_9 C131_9 1_555 1_555
C126_9 C132_9 1_555 1_555
Co17_5 O27_10 1_555 1_555
O27_10 C73_10 1_555 1_555
O28_10 Co17_5 1_555 1_555
O29_10 Co17_5 1_555 1_555
O30_10 Co17_5 1_555 1_555
C73_10 C77_10 1_555 1_555
C74_10 O28_10 1_555 1_555
C75_10 O29_10 1_555 1_555
C76_10 O30_10 1_555 1_555
C77_10 C81_10 1_555 1_555
O31_10 C73_10 1_555 1_555
C78_10 C74_10 1_555 1_555
O32_10 C74_10 1_555 1_555
C79_10 C75_10 1_555 1_555
O33_10 C75_10 1_555 1_555
C80_10 C76_10 1_555 1_555
O34_10 C76_10 1_555 1_555
C81_10 H49_10 1_555 1_555
C82_10 C77_10 1_555 1_555
Co14_10 O31_10 1_555 1_555
C83_10 C78_10 1_555 1_555
C84_10 C78_10 1_555 1_555
C85_10 C79_10 1_555 1_555
C86_10 C79_10 1_555 1_555
C87_10 C80_10 1_555 1_555
C88_10 C80_10 1_555 1_555
C89_10 C81_10 1_555 1_555
C90_10 C82_10 1_555 1_555
H50_10 C82_10 1_555 1_555
N16_10 Co14_10 1_555 1_555
H51_10 C83_10 1_555 1_555
C91_10 C83_10 1_555 1_555
C92_10 C84_10 1_555 1_555
H52_10 C84_10 1_555 1_555
H53_10 C85_10 1_555 1_555
C93_10 C85_10 1_555 1_555
H54_10 C86_10 1_555 1_555
H55_12 C87_10 1_555 1_555
C95_10 C87_10 1_555 1_555
C96_10 C88_10 1_555 1_555
H56_10 C88_10 1_555 1_555
H57_10 C89_10 1_555 1_555
C97_10 C89_10 1_555 1_555
H58_10 C90_10 1_555 1_555
C98_10 N16_10 1_555 1_555
C99_10 N16_10 1_555 1_555
H60_10 C92_10 1_555 1_555
H61_10 C93_10 1_555 1_555
H63_10 C95_10 1_555 1_555
C102_10 C95_10 1_555 1_555
H64_10 C96_10 1_555 1_555
O35_10 C97_10 1_555 1_555
N17_10 C98_10 1_555 1_555
N18_10 C98_10 1_555 1_555
N19_10 C99_10 1_555 1_555
N20_10 C99_10 1_555 1_555
O38_10 C102_10 1_555 1_555
C103_10 O35_10 1_555 1_555
H65_10 N17_10 1_555 1_555
H66_10 N17_10 1_555 1_555
C104_10 N18_10 1_555 1_555
H67_10 N19_10 1_555 1_555
H68_10 N19_10 1_555 1_555
C107_10 O38_10 1_555 1_555
C108_12 C103_10 1_555 1_555
C110_10 C104_10 1_555 1_555
C115_10 C107_10 1_555 1_555
C116_10 C107_10 1_555 1_555
H69_10 C108_12 1_555 1_555
C119_10 C110_10 1_555 1_555
C120_10 C110_10 1_555 1_555
H75_10 C115_10 1_555 1_555
C125_10 C115_10 1_555 1_555
C126_10 C116_10 1_555 1_555
H76_10 C116_10 1_555 1_555
H79_10 C119_10 1_555 1_555
C128_10 C119_10 1_555 1_555
H80_10 C120_10 1_555 1_555
C129_10 C120_10 1_555 1_555
H85_10 C125_10 1_555 1_555
C132_10 C125_10 1_555 1_555
H86_10 C126_10 1_555 1_555
H87_10 C128_10 1_555 1_555
H88_10 C129_10 1_555 1_555
C136_10 C132_10 1_555 1_555
O45_6 C136_10 1_555 1_555
O46_6 C136_10 1_555 1_555
N27_6 C128_10 1_555 1_555
Co17_6 N27_6 1_555 1_555
Co16_3 O45_6 1_555 1_555
Co15_3 O46_6 1_555 1_555
O32_10 Co14_10 1_555 1_555
O33_10 Co14_10 1_555 1_555
O34_10 Co14_10 1_555 1_555
C90_10 C97_10 1_555 1_555
C96_10 C102_10 1_555 1_555
N20_10 C104_10 1_555 1_555
C126_10 C132_10 1_555 1_555
C129_10 N27_6 1_555 1_555
O36_10 C100_10 1_555 1_555
C105_10 O36_10 1_555 1_555
C111_10 C105_10 1_555 1_555
C112_10 C105_10 1_555 1_555
C117_10 C108_13 1_555 1_555
C118_10 C109_10 1_555 1_555
H70_10 C109_10 1_555 1_555
C121_10 C111_10 1_555 1_555
C122_10 C112_10 1_555 1_555
H72_10 C112_10 1_555 1_555
H77_10 C117_10 1_555 1_555
C127_10 C117_10 1_555 1_555
H78_10 C118_10 1_555 1_555
H81_10 C121_10 1_555 1_555
C130_10 C121_10 1_555 1_555
H82_10 C122_10 1_555 1_555
C133_10 C127_10 1_555 1_555
C134_10 C130_10 1_555 1_555
O39_4 C133_10 1_555 1_555
O40_4 C133_10 1_555 1_555
O41_10 C134_10 1_555 1_555
O42_10 C134_10 1_555 1_555
Co15_4 O39_4 1_555 1_555
Co16_4 O40_4 1_555 1_555
N21_4 Co18_3 1_555 1_555
C138_10 N22_10 1_555 1_555
N25_10 C138_10 1_555 1_555
N26_10 C138_10 1_555 1_555
H91_10 N25_10 1_555 1_555
H92_10 N25_10 1_555 1_555
Co18_3 O41_10 1_555 1_555
Co19_4 O42_10 1_555 1_555
O47_8 Co18_3 1_555 1_555
O48_6 Co18_3 1_555 1_555
O49_6 Co18_3 1_555 1_555
O50_8 Co19_4 1_555 1_555
O51_6 Co19_4 1_555 1_555
O52_6 Co19_4 1_555 1_555
C118_10 C127_10 1_555 1_555
C122_10 C130_10 1_555 1_555
N22_10 Co19_4 1_555 1_555
H62_10 C94_10 1_555 1_555
O37_10 C101_10 1_555 1_555
C106_10 O37_10 1_555 1_555
C113_10 C106_10 1_555 1_555
C114_10 C106_10 1_555 1_555
H73_10 C113_10 1_555 1_555
C123_10 C113_10 1_555 1_555
C124_10 C114_10 1_555 1_555
H74_10 C114_10 1_555 1_555
H83_10 C123_10 1_555 1_555
C131_10 C123_10 1_555 1_555
H84_10 C124_10 1_555 1_555
C135_10 C131_10 1_555 1_555
O48_5 C135_10 1_555 1_555
O51_5 C135_10 1_555 1_555
C94_10 C101_10 1_555 1_555
C124_10 C131_10 1_555 1_555
H96_10 C144_10 1_555 1_555
Co23_2 N28_8 1_555 1_555
C144_10 N28_8 1_555 1_555
H88_11 C129_11 1_555 1_555
Co17_7 N27_7 1_555 1_555
C129_11 N27_7 1_555 1_555
C103_11 O35_11 1_555 1_555
C108_14 C103_11 1_555 1_555
C109_11 C103_11 1_555 1_555
H69_11 C108_14 1_555 1_555
C117_11 C108_14 1_555 1_555
C118_11 C109_11 1_555 1_555
H77_11 C117_11 1_555 1_555
C127_11 C117_11 1_555 1_555
H78_11 C118_11 1_555 1_555
H79_11 C119_11 1_555 1_555
C128_11 C119_11 1_555 1_555
C133_11 C127_11 1_555 1_555
H87_11 C128_11 1_555 1_555
O47_8 C133_11 1_555 1_555
O50_8 C133_11 1_555 1_555
C118_11 C127_11 1_555 1_555
H80_11 C120_11 1_555 1_555
H81_11 C121_11 1_555 1_555
C130_11 C121_11 1_555 1_555
C134_11 C130_11 1_555 1_555
O41_11 C134_11 1_555 1_555
O42_11 C134_11 1_555 1_555
N22_11 C137_9 1_555 1_555
C137_9 N23_9 1_555 1_555
C138_11 N22_11 1_555 1_555
N23_9 H89_9 1_555 1_555
N24_9 C137_9 1_555 1_555
N25_11 C138_11 1_555 1_555
N26_11 C138_11 1_555 1_555
H90_11 N23_9 1_555 1_555
C139_9 N24_9 1_555 1_555
H91_11 N25_11 1_555 1_555
H92_11 N25_11 1_555 1_555
C140_9 C139_9 1_555 1_555
C141_9 C140_9 1_555 1_555
C142_9 C140_9 1_555 1_555
H93_9 C141_9 1_555 1_555
C143_9 C141_9 1_555 1_555
C144_11 C142_9 1_555 1_555
H94_11 C142_9 1_555 1_555
H95_9 C143_9 1_555 1_555
H96_11 C144_11 1_555 1_555
Co23_2 O41_11 1_555 1_555
Co22_2 O42_11 1_555 1_555
O47_9 Co23_2 1_555 1_555
O48_7 Co23_2 1_555 1_555
O50_9 Co22_2 1_555 1_555
O51_7 Co22_2 1_555 1_555
N28_9 C143_9 1_555 1_555
Co20_3 N28_9 1_555 1_555
N22_11 Co22_2 1_555 1_555
N26_11 C139_9 1_555 1_555
C144_11 N28_9 1_555 1_555
Co13_6 O27_11 1_555 1_555
O27_11 C73_11 1_555 1_555
O28_11 Co13_6 1_555 1_555
O29_11 Co13_6 1_555 1_555
O30_11 Co13_6 1_555 1_555
N15_6 Co13_6 1_555 1_555
C73_11 C77_11 1_555 1_555
C74_11 O28_11 1_555 1_555
C75_11 O29_11 1_555 1_555
C76_11 O30_11 1_555 1_555
C77_11 C81_11 1_555 1_555
O31_11 C73_11 1_555 1_555
C78_11 C74_11 1_555 1_555
O32_11 C74_11 1_555 1_555
C79_11 C75_11 1_555 1_555
O33_11 C75_11 1_555 1_555
C80_11 C76_11 1_555 1_555
O34_11 C76_11 1_555 1_555
C81_11 H49_11 1_555 1_555
C82_11 C77_11 1_555 1_555
Co14_11 O31_11 1_555 1_555
C83_11 C78_11 1_555 1_555
C84_11 C78_11 1_555 1_555
C85_11 C79_11 1_555 1_555
C86_11 C79_11 1_555 1_555
C87_11 C80_11 1_555 1_555
C88_11 C80_11 1_555 1_555
C89_11 C81_11 1_555 1_555
C90_11 C82_11 1_555 1_555
H50_11 C82_11 1_555 1_555
N16_11 Co14_11 1_555 1_555
H51_11 C83_11 1_555 1_555
C91_11 C83_11 1_555 1_555
C92_11 C84_11 1_555 1_555
H52_11 C84_11 1_555 1_555
H53_11 C85_11 1_555 1_555
C93_11 C85_11 1_555 1_555
C94_11 C86_11 1_555 1_555
H54_11 C86_11 1_555 1_555
H55_13 C87_11 1_555 1_555
C95_11 C87_11 1_555 1_555
C96_11 C88_11 1_555 1_555
H56_11 C88_11 1_555 1_555
H57_11 C89_11 1_555 1_555
C97_11 C89_11 1_555 1_555
C98_11 N16_11 1_555 1_555
C99_11 N16_11 1_555 1_555
H59_11 C91_11 1_555 1_555
C100_11 C91_11 1_555 1_555
H60_11 C92_11 1_555 1_555
H61_11 C93_11 1_555 1_555
C101_11 C93_11 1_555 1_555
H62_11 C94_11 1_555 1_555
H63_11 C95_11 1_555 1_555
C102_11 C95_11 1_555 1_555
H64_11 C96_11 1_555 1_555
N17_11 C98_11 1_555 1_555
N18_11 C98_11 1_555 1_555
N19_11 C99_11 1_555 1_555
N20_11 C99_11 1_555 1_555
O36_11 C100_11 1_555 1_555
O37_11 C101_11 1_555 1_555
O38_11 C102_11 1_555 1_555
H65_11 N17_11 1_555 1_555
H66_11 N17_11 1_555 1_555
C104_11 N18_11 1_555 1_555
H67_11 N19_11 1_555 1_555
H68_11 N19_11 1_555 1_555
C105_11 O36_11 1_555 1_555
C106_11 O37_11 1_555 1_555
C107_11 O38_11 1_555 1_555
C110_11 C104_11 1_555 1_555
C111_11 C105_11 1_555 1_555
C112_11 C105_11 1_555 1_555
C113_11 C106_11 1_555 1_555
C114_11 C106_11 1_555 1_555
C115_11 C107_11 1_555 1_555
C116_11 C107_11 1_555 1_555
H71_9 C111_11 1_555 1_555
C122_11 C112_11 1_555 1_555
H72_11 C112_11 1_555 1_555
H73_11 C113_11 1_555 1_555
C123_11 C113_11 1_555 1_555
C124_11 C114_11 1_555 1_555
H74_11 C114_11 1_555 1_555
H75_11 C115_11 1_555 1_555
C125_11 C115_11 1_555 1_555
C126_11 C116_11 1_555 1_555
H76_11 C116_11 1_555 1_555
H82_11 C122_11 1_555 1_555
H83_11 C123_11 1_555 1_555
C131_11 C123_11 1_555 1_555
H84_11 C124_11 1_555 1_555
H85_11 C125_11 1_555 1_555
C132_11 C125_11 1_555 1_555
H86_11 C126_11 1_555 1_555
C135_11 C131_11 1_555 1_555
C136_11 C132_11 1_555 1_555
O43_6 C135_11 1_555 1_555
O44_6 C135_11 1_555 1_555
O52_5 C136_11 1_555 1_555
O49_5 C136_11 1_555 1_555
Co24_3 O43_6 1_555 1_555
Co21_5 O44_6 1_555 1_555
O32_11 Co14_11 1_555 1_555
O33_11 Co14_11 1_555 1_555
O34_11 Co14_11 1_555 1_555
C90_11 C97_11 1_555 1_555
C92_11 C100_11 1_555 1_555
C94_11 C101_11 1_555 1_555
C96_11 C102_11 1_555 1_555
N20_11 C104_11 1_555 1_555
C124_11 C131_11 1_555 1_555
C126_11 C132_11 1_555 1_555
Co17_7 O27_12 1_555 1_555
O27_12 C73_12 1_555 1_555
O28_12 Co17_7 1_555 1_555
O29_12 Co17_7 1_555 1_555
O30_12 Co17_7 1_555 1_555
C73_12 C77_12 1_555 1_555
C74_12 O28_12 1_555 1_555
C75_12 O29_12 1_555 1_555
C76_12 O30_12 1_555 1_555
C77_12 C81_12 1_555 1_555
O31_12 C73_12 1_555 1_555
C78_12 C74_12 1_555 1_555
O32_12 C74_12 1_555 1_555
C79_12 C75_12 1_555 1_555
O33_12 C75_12 1_555 1_555
C80_12 C76_12 1_555 1_555
O34_12 C76_12 1_555 1_555
C82_12 C77_12 1_555 1_555
Co14_12 O31_12 1_555 1_555
C83_12 C78_12 1_555 1_555
C84_12 C78_12 1_555 1_555
C85_12 C79_12 1_555 1_555
C86_12 C79_12 1_555 1_555
C87_12 C80_12 1_555 1_555
C88_12 C80_12 1_555 1_555
C90_12 C82_12 1_555 1_555
H50_12 C82_12 1_555 1_555
N16_12 Co14_12 1_555 1_555
H51_12 C83_12 1_555 1_555
C91_12 C83_12 1_555 1_555
C92_12 C84_12 1_555 1_555
H52_12 C84_12 1_555 1_555
H53_12 C85_12 1_555 1_555
C93_12 C85_12 1_555 1_555
H54_12 C86_12 1_555 1_555
H55_14 C87_12 1_555 1_555
C96_12 C88_12 1_555 1_555
H56_12 C88_12 1_555 1_555
H58_12 C90_12 1_555 1_555
C98_12 N16_12 1_555 1_555
C99_12 N16_12 1_555 1_555
H59_12 C91_12 1_555 1_555
C100_12 C91_12 1_555 1_555
H60_12 C92_12 1_555 1_555
H61_12 C93_12 1_555 1_555
H64_12 C96_12 1_555 1_555
O35_12 C97_12 1_555 1_555
N17_12 C98_12 1_555 1_555
N18_12 C98_12 1_555 1_555
N19_12 C99_12 1_555 1_555
N20_12 C99_12 1_555 1_555
O36_12 C100_12 1_555 1_555
C103_12 O35_12 1_555 1_555
H65_12 N17_12 1_555 1_555
H66_12 N17_12 1_555 1_555
C104_12 N18_12 1_555 1_555
H67_12 N19_12 1_555 1_555
H68_12 N19_12 1_555 1_555
C105_12 O36_12 1_555 1_555
C108_15 C103_12 1_555 1_555
C109_12 C103_12 1_555 1_555
C110_12 C104_12 1_555 1_555
C111_12 C105_12 1_555 1_555
C112_12 C105_12 1_555 1_555
C117_12 C108_15 1_555 1_555
C118_12 C109_12 1_555 1_555
H70_12 C109_12 1_555 1_555
C119_12 C110_12 1_555 1_555
C120_12 C110_12 1_555 1_555
C121_12 C111_12 1_555 1_555
C122_12 C112_12 1_555 1_555
H72_12 C112_12 1_555 1_555
H77_12 C117_12 1_555 1_555
C127_12 C117_12 1_555 1_555
H78_12 C118_12 1_555 1_555
H79_12 C119_12 1_555 1_555
C128_12 C119_12 1_555 1_555
H80_12 C120_12 1_555 1_555
C129_12 C120_12 1_555 1_555
H81_12 C121_12 1_555 1_555
C130_12 C121_12 1_555 1_555
H82_12 C122_12 1_555 1_555
C133_12 C127_12 1_555 1_555
H87_12 C128_12 1_555 1_555
H88_12 C129_12 1_555 1_555
C134_12 C130_12 1_555 1_555
O39_5 C133_12 1_555 1_555
O40_5 C133_12 1_555 1_555
O41_12 C134_12 1_555 1_555
O42_12 C134_12 1_555 1_555
Co15_5 O39_5 1_555 1_555
Co16_5 O40_5 1_555 1_555
N21_5 Co15_3 1_555 1_555
C138_12 N22_12 1_555 1_555
N25_12 C138_12 1_555 1_555
N26_12 C138_12 1_555 1_555
H91_12 N25_12 1_555 1_555
H92_12 N25_12 1_555 1_555
N27_8 C128_12 1_555 1_555
Co17_8 N27_8 1_555 1_555
Co15_3 O41_12 1_555 1_555
Co16_3 O42_12 1_555 1_555
O48_8 Co15_3 1_555 1_555
O51_8 Co16_3 1_555 1_555
O32_12 Co14_12 1_555 1_555
O33_12 Co14_12 1_555 1_555
O34_12 Co14_12 1_555 1_555
C90_12 C97_12 1_555 1_555
C92_12 C100_12 1_555 1_555
C96_12 C102_12 1_555 1_555
N20_12 C104_12 1_555 1_555
C118_12 C127_12 1_555 1_555
C122_12 C130_12 1_555 1_555
C129_12 N27_8 1_555 1_555
N22_12 Co16_3 1_555 1_555
H57_12 C89_12 1_555 1_555
H63_12 C95_12 1_555 1_555
C107_12 O38_12 1_555 1_555
C115_12 C107_12 1_555 1_555
C116_12 C107_12 1_555 1_555
H75_12 C115_12 1_555 1_555
C125_12 C115_12 1_555 1_555
C126_12 C116_12 1_555 1_555
H76_12 C116_12 1_555 1_555
H85_12 C125_12 1_555 1_555
C132_12 C125_12 1_555 1_555
H86_12 C126_12 1_555 1_555
C136_12 C132_12 1_555 1_555
O52_6 C136_12 1_555 1_555
O49_6 C136_12 1_555 1_555
C126_12 C132_12 1_555 1_555
H62_12 C94_12 1_555 1_555
O37_12 C101_12 1_555 1_555
C106_12 O37_12 1_555 1_555
C113_12 C106_12 1_555 1_555
C114_12 C106_12 1_555 1_555
H73_12 C113_12 1_555 1_555
C123_12 C113_12 1_555 1_555
C124_12 C114_12 1_555 1_555
H74_12 C114_12 1_555 1_555
H83_12 C123_12 1_555 1_555
C131_12 C123_12 1_555 1_555
H84_12 C124_12 1_555 1_555
C135_12 C131_12 1_555 1_555
O48_7 C135_12 1_555 1_555
O51_7 C135_12 1_555 1_555
C137_10 N23_10 1_555 1_555
N23_10 H89_10 1_555 1_555
N24_10 C137_10 1_555 1_555
C139_10 N24_10 1_555 1_555
C140_10 C139_10 1_555 1_555
C141_10 C140_10 1_555 1_555
C142_10 C140_10 1_555 1_555
H93_10 C141_10 1_555 1_555
C143_10 C141_10 1_555 1_555
C144_12 C142_10 1_555 1_555
H94_12 C142_10 1_555 1_555
H95_10 C143_10 1_555 1_555
H96_12 C144_12 1_555 1_555
N21_3 C143_10 1_555 1_555
C94_12 C101_12 1_555 1_555
C124_12 C131_12 1_555 1_555
C144_12 N21_3 1_555 1_555
H80_13 C120_13 1_555 1_555
C129_13 C120_13 1_555 1_555
H81_13 C121_13 1_555 1_555
C130_13 C121_13 1_555 1_555
H88_13 C129_13 1_555 1_555
C134_13 C130_13 1_555 1_555
O41_13 C134_13 1_555 1_555
O42_13 C134_13 1_555 1_555
N21_6 Co15_5 1_555 1_555
N22_13 C137_11 1_555 1_555
C137_11 N23_11 1_555 1_555
C138_13 N22_13 1_555 1_555
N23_11 H89_11 1_555 1_555
N24_11 C137_11 1_555 1_555
N25_13 C138_13 1_555 1_555
N26_13 C138_13 1_555 1_555
H90_13 N23_11 1_555 1_555
C139_11 N24_11 1_555 1_555
H91_13 N25_13 1_555 1_555
H92_13 N25_13 1_555 1_555
C140_11 C139_11 1_555 1_555
C141_11 C140_11 1_555 1_555
C142_11 C140_11 1_555 1_555
H93_11 C141_11 1_555 1_555
C143_11 C141_11 1_555 1_555
C144_13 C142_11 1_555 1_555
H94_13 C142_11 1_555 1_555
H95_11 C143_11 1_555 1_555
H96_13 C144_13 1_555 1_555
Co17_9 N27_9 1_555 1_555
Co15_5 O41_13 1_555 1_555
Co16_5 O42_13 1_555 1_555
O48_9 Co15_5 1_555 1_555
O49_7 Co15_5 1_555 1_555
O51_9 Co16_5 1_555 1_555
O52_7 Co16_5 1_555 1_555
N21_5 C143_11 1_555 1_555
C129_13 N27_9 1_555 1_555
N22_13 Co16_5 1_555 1_555
N26_13 C139_11 1_555 1_555
C144_13 N21_5 1_555 1_555
Co17_6 O27_13 1_555 1_555
O27_13 C73_13 1_555 1_555
O28_13 Co17_6 1_555 1_555
O29_13 Co17_6 1_555 1_555
O30_13 Co17_6 1_555 1_555
C73_13 C77_13 1_555 1_555
C74_13 O28_13 1_555 1_555
C75_13 O29_13 1_555 1_555
C76_13 O30_13 1_555 1_555
C77_13 C81_13 1_555 1_555
O31_13 C73_13 1_555 1_555
C78_13 C74_13 1_555 1_555
O32_13 C74_13 1_555 1_555
C79_13 C75_13 1_555 1_555
O33_13 C75_13 1_555 1_555
C80_13 C76_13 1_555 1_555
O34_13 C76_13 1_555 1_555
C81_13 H49_13 1_555 1_555
C82_13 C77_13 1_555 1_555
Co14_13 O31_13 1_555 1_555
C83_13 C78_13 1_555 1_555
C84_13 C78_13 1_555 1_555
C85_13 C79_13 1_555 1_555
C86_13 C79_13 1_555 1_555
C87_13 C80_13 1_555 1_555
C88_13 C80_13 1_555 1_555
C89_13 C81_13 1_555 1_555
C90_13 C82_13 1_555 1_555
H50_13 C82_13 1_555 1_555
N16_13 Co14_13 1_555 1_555
H51_13 C83_13 1_555 1_555
C91_13 C83_13 1_555 1_555
C92_13 C84_13 1_555 1_555
H52_13 C84_13 1_555 1_555
H53_13 C85_13 1_555 1_555
C93_13 C85_13 1_555 1_555
C94_13 C86_13 1_555 1_555
H54_13 C86_13 1_555 1_555
H55_16 C87_13 1_555 1_555
C95_13 C87_13 1_555 1_555
H56_13 C88_13 1_555 1_555
H57_13 C89_13 1_555 1_555
C97_13 C89_13 1_555 1_555
H58_13 C90_13 1_555 1_555
C98_13 N16_13 1_555 1_555
C99_13 N16_13 1_555 1_555
H59_13 C91_13 1_555 1_555
C100_13 C91_13 1_555 1_555
H60_13 C92_13 1_555 1_555
H61_13 C93_13 1_555 1_555
C101_13 C93_13 1_555 1_555
H62_13 C94_13 1_555 1_555
O35_13 C97_13 1_555 1_555
N17_13 C98_13 1_555 1_555
N18_13 C98_13 1_555 1_555
N19_13 C99_13 1_555 1_555
N20_13 C99_13 1_555 1_555
O36_13 C100_13 1_555 1_555
O37_13 C101_13 1_555 1_555
C103_13 O35_13 1_555 1_555
H65_13 N17_13 1_555 1_555
H66_13 N17_13 1_555 1_555
C104_13 N18_13 1_555 1_555
H67_13 N19_13 1_555 1_555
H68_13 N19_13 1_555 1_555
C105_13 O36_13 1_555 1_555
C108_16 C103_13 1_555 1_555
C109_13 C103_13 1_555 1_555
C110_13 C104_13 1_555 1_555
C111_13 C105_13 1_555 1_555
C112_13 C105_13 1_555 1_555
H69_13 C108_16 1_555 1_555
C117_13 C108_16 1_555 1_555
C118_13 C109_13 1_555 1_555
H70_13 C109_13 1_555 1_555
C119_13 C110_13 1_555 1_555
H71_11 C111_13 1_555 1_555
C122_13 C112_13 1_555 1_555
H72_13 C112_13 1_555 1_555
H77_13 C117_13 1_555 1_555
C127_13 C117_13 1_555 1_555
H78_13 C118_13 1_555 1_555
H79_13 C119_13 1_555 1_555
C128_13 C119_13 1_555 1_555
H82_13 C122_13 1_555 1_555
C133_13 C127_13 1_555 1_555
H87_13 C128_13 1_555 1_555
O39_6 C133_13 1_555 1_555
O40_6 C133_13 1_555 1_555
Co24_3 O39_6 1_555 1_555
Co21_5 O40_6 1_555 1_555
O32_13 Co14_13 1_555 1_555
O33_13 Co14_13 1_555 1_555
O34_13 Co14_13 1_555 1_555
C90_13 C97_13 1_555 1_555
C92_13 C100_13 1_555 1_555
C94_13 C101_13 1_555 1_555
N20_13 C104_13 1_555 1_555
C118_13 C127_13 1_555 1_555
H64_13 C96_13 1_555 1_555
O38_13 C102_13 1_555 1_555
C107_13 O38_13 1_555 1_555
C113_13 C106_13 1_555 1_555
C114_13 C106_13 1_555 1_555
C115_13 C107_13 1_555 1_555
C116_13 C107_13 1_555 1_555
H73_13 C113_13 1_555 1_555
C123_13 C113_13 1_555 1_555
C124_13 C114_13 1_555 1_555
H74_13 C114_13 1_555 1_555
H75_13 C115_13 1_555 1_555
C125_13 C115_13 1_555 1_555
C126_13 C116_13 1_555 1_555
H76_13 C116_13 1_555 1_555
H83_13 C123_13 1_555 1_555
C131_13 C123_13 1_555 1_555
H84_13 C124_13 1_555 1_555
H85_13 C125_13 1_555 1_555
C132_13 C125_13 1_555 1_555
H86_13 C126_13 1_555 1_555
C135_13 C131_13 1_555 1_555
C136_13 C132_13 1_555 1_555
O48_6 C135_13 1_555 1_555
O51_6 C135_13 1_555 1_555
O45_7 C136_13 1_555 1_555
O46_7 C136_13 1_555 1_555
Co16_4 O45_7 1_555 1_555
Co15_4 O46_7 1_555 1_555
C96_13 C102_13 1_555 1_555
C124_13 C131_13 1_555 1_555
C126_13 C132_13 1_555 1_555
Co17_9 O27_14 1_555 1_555
O27_14 C73_14 1_555 1_555
O28_14 Co17_9 1_555 1_555
O29_14 Co17_9 1_555 1_555
O30_14 Co17_9 1_555 1_555
C73_14 C77_14 1_555 1_555
C74_14 O28_14 1_555 1_555
C75_14 O29_14 1_555 1_555
C76_14 O30_14 1_555 1_555
C77_14 C81_14 1_555 1_555
O31_14 C73_14 1_555 1_555
C78_14 C74_14 1_555 1_555
O32_14 C74_14 1_555 1_555
C79_14 C75_14 1_555 1_555
O33_14 C75_14 1_555 1_555
C80_14 C76_14 1_555 1_555
O34_14 C76_14 1_555 1_555
C82_14 C77_14 1_555 1_555
Co14_14 O31_14 1_555 1_555
C83_14 C78_14 1_555 1_555
C84_14 C78_14 1_555 1_555
C85_14 C79_14 1_555 1_555
C86_14 C79_14 1_555 1_555
C87_14 C80_14 1_555 1_555
C88_14 C80_14 1_555 1_555
C90_14 C82_14 1_555 1_555
H50_14 C82_14 1_555 1_555
N16_14 Co14_14 1_555 1_555
H51_14 C83_14 1_555 1_555
C91_14 C83_14 1_555 1_555
C92_14 C84_14 1_555 1_555
H52_14 C84_14 1_555 1_555
H53_14 C85_14 1_555 1_555
C93_14 C85_14 1_555 1_555
C94_14 C86_14 1_555 1_555
H54_14 C86_14 1_555 1_555
H55_17 C87_14 1_555 1_555
C96_14 C88_14 1_555 1_555
H56_14 C88_14 1_555 1_555
H58_14 C90_14 1_555 1_555
C98_14 N16_14 1_555 1_555
C99_14 N16_14 1_555 1_555
H60_14 C92_14 1_555 1_555
H61_14 C93_14 1_555 1_555
C101_14 C93_14 1_555 1_555
H62_14 C94_14 1_555 1_555
H64_14 C96_14 1_555 1_555
O35_14 C97_14 1_555 1_555
N17_14 C98_14 1_555 1_555
N18_14 C98_14 1_555 1_555
N19_14 C99_14 1_555 1_555
N20_14 C99_14 1_555 1_555
O37_14 C101_14 1_555 1_555
C103_14 O35_14 1_555 1_555
H65_14 N17_14 1_555 1_555
H66_14 N17_14 1_555 1_555
C104_14 N18_14 1_555 1_555
H67_14 N19_14 1_555 1_555
H68_14 N19_14 1_555 1_555
C106_14 O37_14 1_555 1_555
C108_17 C103_14 1_555 1_555
C110_14 C104_14 1_555 1_555
C113_14 C106_14 1_555 1_555
C114_14 C106_14 1_555 1_555
C119_14 C110_14 1_555 1_555
C120_14 C110_14 1_555 1_555
H73_14 C113_14 1_555 1_555
C123_14 C113_14 1_555 1_555
C124_14 C114_14 1_555 1_555
H74_14 C114_14 1_555 1_555
H79_14 C119_14 1_555 1_555
C128_14 C119_14 1_555 1_555
H80_14 C120_14 1_555 1_555
C129_14 C120_14 1_555 1_555
H83_14 C123_14 1_555 1_555
C131_14 C123_14 1_555 1_555
H84_14 C124_14 1_555 1_555
H87_14 C128_14 1_555 1_555
H88_14 C129_14 1_555 1_555
C135_14 C131_14 1_555 1_555
O48_9 C135_14 1_555 1_555
O51_9 C135_14 1_555 1_555
N15_5 C128_14 1_555 1_555
O32_14 Co14_14 1_555 1_555
O33_14 Co14_14 1_555 1_555
O34_14 Co14_14 1_555 1_555
C90_14 C97_14 1_555 1_555
C94_14 C101_14 1_555 1_555
C96_14 C102_14 1_555 1_555
N20_14 C104_14 1_555 1_555
C124_14 C131_14 1_555 1_555
C129_14 N15_5 1_555 1_555
H57_14 C89_14 1_555 1_555
H63_14 C95_14 1_555 1_555
C107_14 O38_14 1_555 1_555
C115_14 C107_14 1_555 1_555
C116_14 C107_14 1_555 1_555
H75_14 C115_14 1_555 1_555
C125_14 C115_14 1_555 1_555
C126_14 C116_14 1_555 1_555
H76_14 C116_14 1_555 1_555
H85_14 C125_14 1_555 1_555
C132_14 C125_14 1_555 1_555
H86_14 C126_14 1_555 1_555
C136_14 C132_14 1_555 1_555
O45_8 C136_14 1_555 1_555
O46_8 C136_14 1_555 1_555
Co21_5 O45_8 1_555 1_555
Co24_3 O46_8 1_555 1_555
C126_14 C132_14 1_555 1_555
O36_14 C100_14 1_555 1_555
C105_14 O36_14 1_555 1_555
C111_14 C105_14 1_555 1_555
C112_14 C105_14 1_555 1_555
C117_14 C108_18 1_555 1_555
C118_14 C109_14 1_555 1_555
H70_14 C109_14 1_555 1_555
H71_12 C111_14 1_555 1_555
C121_14 C111_14 1_555 1_555
C122_14 C112_14 1_555 1_555
H72_14 C112_14 1_555 1_555
H77_14 C117_14 1_555 1_555
C127_14 C117_14 1_555 1_555
H78_14 C118_14 1_555 1_555
H81_14 C121_14 1_555 1_555
C130_14 C121_14 1_555 1_555
H82_14 C122_14 1_555 1_555
C133_14 C127_14 1_555 1_555
C134_14 C130_14 1_555 1_555
O47_9 C133_14 1_555 1_555
O50_9 C133_14 1_555 1_555
O41_14 C134_14 1_555 1_555
O42_14 C134_14 1_555 1_555
N22_14 C137_12 1_555 1_555
C137_12 N23_12 1_555 1_555
C138_14 N22_14 1_555 1_555
N23_12 H89_12 1_555 1_555
N24_12 C137_12 1_555 1_555
N25_14 C138_14 1_555 1_555
N26_14 C138_14 1_555 1_555
H90_14 N23_12 1_555 1_555
C139_12 N24_12 1_555 1_555
H91_14 N25_14 1_555 1_555
H92_14 N25_14 1_555 1_555
C140_12 C139_12 1_555 1_555
C141_12 C140_12 1_555 1_555
C142_12 C140_12 1_555 1_555
H93_12 C141_12 1_555 1_555
C143_12 C141_12 1_555 1_555
C144_14 C142_12 1_555 1_555
H94_14 C142_12 1_555 1_555
H95_12 C143_12 1_555 1_555
H96_14 C144_14 1_555 1_555
Co20_3 O41_14 1_555 1_555
Co21_4 O42_14 1_555 1_555
O47_10 Co20_3 1_555 1_555
O49_8 Co20_3 1_555 1_555
O50_10 Co21_4 1_555 1_555
O52_8 Co21_4 1_555 1_555
N28_10 C143_12 1_555 1_555
Co15_4 N28_10 1_555 1_555
C118_14 C127_14 1_555 1_555
C122_14 C130_14 1_555 1_555
N22_14 Co21_4 1_555 1_555
N26_14 C139_12 1_555 1_555
C144_14 N28_10 1_555 1_555
Co17_8 O27_15 1_555 1_555
O27_15 C73_15 1_555 1_555
O28_15 Co17_8 1_555 1_555
O29_15 Co17_8 1_555 1_555
O30_15 Co17_8 1_555 1_555
C73_15 C77_15 1_555 1_555
C74_15 O28_15 1_555 1_555
C75_15 O29_15 1_555 1_555
C76_15 O30_15 1_555 1_555
C77_15 C81_15 1_555 1_555
O31_15 C73_15 1_555 1_555
C78_15 C74_15 1_555 1_555
O32_15 C74_15 1_555 1_555
C79_15 C75_15 1_555 1_555
O33_15 C75_15 1_555 1_555
C80_15 C76_15 1_555 1_555
O34_15 C76_15 1_555 1_555
C81_15 H49_15 1_555 1_555
C82_15 C77_15 1_555 1_555
Co14_15 O31_15 1_555 1_555
C83_15 C78_15 1_555 1_555
C84_15 C78_15 1_555 1_555
C85_15 C79_15 1_555 1_555
C86_15 C79_15 1_555 1_555
C87_15 C80_15 1_555 1_555
C88_15 C80_15 1_555 1_555
C89_15 C81_15 1_555 1_555
C90_15 C82_15 1_555 1_555
H50_15 C82_15 1_555 1_555
N16_15 Co14_15 1_555 1_555
H51_15 C83_15 1_555 1_555
C91_15 C83_15 1_555 1_555
C92_15 C84_15 1_555 1_555
H52_15 C84_15 1_555 1_555
H53_15 C85_15 1_555 1_555
C93_15 C85_15 1_555 1_555
C94_15 C86_15 1_555 1_555
H54_15 C86_15 1_555 1_555
H55_19 C87_15 1_555 1_555
C95_15 C87_15 1_555 1_555
C96_15 C88_15 1_555 1_555
H56_15 C88_15 1_555 1_555
H57_15 C89_15 1_555 1_555
C97_15 C89_15 1_555 1_555
H58_15 C90_15 1_555 1_555
C98_15 N16_15 1_555 1_555
C99_15 N16_15 1_555 1_555
H59_15 C91_15 1_555 1_555
C100_15 C91_15 1_555 1_555
H60_15 C92_15 1_555 1_555
H61_15 C93_15 1_555 1_555
C101_15 C93_15 1_555 1_555
H62_15 C94_15 1_555 1_555
H63_15 C95_15 1_555 1_555
C102_15 C95_15 1_555 1_555
H64_15 C96_15 1_555 1_555
O35_15 C97_15 1_555 1_555
N17_15 C98_15 1_555 1_555
N18_15 C98_15 1_555 1_555
N19_15 C99_15 1_555 1_555
N20_15 C99_15 1_555 1_555
O36_15 C100_15 1_555 1_555
O37_15 C101_15 1_555 1_555
O38_15 C102_15 1_555 1_555
C103_15 O35_15 1_555 1_555
H65_15 N17_15 1_555 1_555
H66_15 N17_15 1_555 1_555
C104_15 N18_15 1_555 1_555
H67_15 N19_15 1_555 1_555
H68_15 N19_15 1_555 1_555
C105_15 O36_15 1_555 1_555
C106_15 O37_15 1_555 1_555
C107_15 O38_15 1_555 1_555
C108_19 C103_15 1_555 1_555
C109_15 C103_15 1_555 1_555
C110_15 C104_15 1_555 1_555
C111_15 C105_15 1_555 1_555
C112_15 C105_15 1_555 1_555
C113_15 C106_15 1_555 1_555
C114_15 C106_15 1_555 1_555
C115_15 C107_15 1_555 1_555
C116_15 C107_15 1_555 1_555
H69_15 C108_19 1_555 1_555
C117_15 C108_19 1_555 1_555
C118_15 C109_15 1_555 1_555
H70_15 C109_15 1_555 1_555
C119_15 C110_15 1_555 1_555
C120_15 C110_15 1_555 1_555
H71_13 C111_15 1_555 1_555
C121_15 C111_15 1_555 1_555
C122_15 C112_15 1_555 1_555
H72_15 C112_15 1_555 1_555
H73_15 C113_15 1_555 1_555
C123_15 C113_15 1_555 1_555
C124_15 C114_15 1_555 1_555
H74_15 C114_15 1_555 1_555
H75_15 C115_15 1_555 1_555
C125_15 C115_15 1_555 1_555
C126_15 C116_15 1_555 1_555
H76_15 C116_15 1_555 1_555
H77_15 C117_15 1_555 1_555
C127_15 C117_15 1_555 1_555
H78_15 C118_15 1_555 1_555
H79_15 C119_15 1_555 1_555
C128_15 C119_15 1_555 1_555
H80_15 C120_15 1_555 1_555
C129_15 C120_15 1_555 1_555
H81_15 C121_15 1_555 1_555
C130_15 C121_15 1_555 1_555
H82_15 C122_15 1_555 1_555
H83_15 C123_15 1_555 1_555
C131_15 C123_15 1_555 1_555
H84_15 C124_15 1_555 1_555
H85_15 C125_15 1_555 1_555
C132_15 C125_15 1_555 1_555
H86_15 C126_15 1_555 1_555
C133_15 C127_15 1_555 1_555
H87_15 C128_15 1_555 1_555
H88_15 C129_15 1_555 1_555
C134_15 C130_15 1_555 1_555
C135_15 C131_15 1_555 1_555
C136_15 C132_15 1_555 1_555
O47_10 C133_15 1_555 1_555
O50_10 C133_15 1_555 1_555
O41_15 C134_15 1_555 1_555
O42_15 C134_15 1_555 1_555
O48_8 C135_15 1_555 1_555
O51_8 C135_15 1_555 1_555
O52_7 C136_15 1_555 1_555
O49_7 C136_15 1_555 1_555
N22_15 C137_13 1_555 1_555
C137_13 N23_13 1_555 1_555
C138_15 N22_15 1_555 1_555
N23_13 H89_13 1_555 1_555
N24_13 C137_13 1_555 1_555
N25_15 C138_15 1_555 1_555
N26_15 C138_15 1_555 1_555
H90_15 N23_13 1_555 1_555
C139_13 N24_13 1_555 1_555
H91_15 N25_15 1_555 1_555
H92_15 N25_15 1_555 1_555
C140_13 C139_13 1_555 1_555
C141_13 C140_13 1_555 1_555
C142_13 C140_13 1_555 1_555
H93_13 C141_13 1_555 1_555
C143_13 C141_13 1_555 1_555
C144_15 C142_13 1_555 1_555
H94_15 C142_13 1_555 1_555
H95_13 C143_13 1_555 1_555
H96_15 C144_15 1_555 1_555
N27_10 C128_15 1_555 1_555
Co17_10 N27_10 1_555 1_555
Co15_4 O41_15 1_555 1_555
Co16_4 O42_15 1_555 1_555
O48_10 Co15_4 1_555 1_555
O51_10 Co16_4 1_555 1_555
N21_4 C143_13 1_555 1_555
O32_15 Co14_15 1_555 1_555
O33_15 Co14_15 1_555 1_555
O34_15 Co14_15 1_555 1_555
C90_15 C97_15 1_555 1_555
C92_15 C100_15 1_555 1_555
C94_15 C101_15 1_555 1_555
C96_15 C102_15 1_555 1_555
N20_15 C104_15 1_555 1_555
C118_15 C127_15 1_555 1_555
C122_15 C130_15 1_555 1_555
C124_15 C131_15 1_555 1_555
C126_15 C132_15 1_555 1_555
C129_15 N27_10 1_555 1_555
N22_15 Co16_4 1_555 1_555
N26_15 C139_13 1_555 1_555
C144_15 N21_4 1_555 1_555
H96_16 C144_16 1_555 1_555
C144_16 N21_6 1_555 1_555
Co17_10 O27_16 1_555 1_555
O27_16 C73_16 1_555 1_555
O28_16 Co17_10 1_555 1_555
O29_16 Co17_10 1_555 1_555
O30_16 Co17_10 1_555 1_555
C73_16 C77_16 1_555 1_555
C74_16 O28_16 1_555 1_555
C75_16 O29_16 1_555 1_555
C76_16 O30_16 1_555 1_555
C77_16 C81_16 1_555 1_555
O31_16 C73_16 1_555 1_555
C78_16 C74_16 1_555 1_555
O32_16 C74_16 1_555 1_555
C79_16 C75_16 1_555 1_555
O33_16 C75_16 1_555 1_555
C80_16 C76_16 1_555 1_555
O34_16 C76_16 1_555 1_555
C81_16 H49_16 1_555 1_555
C82_16 C77_16 1_555 1_555
Co14_16 O31_16 1_555 1_555
C83_16 C78_16 1_555 1_555
C84_16 C78_16 1_555 1_555
C85_16 C79_16 1_555 1_555
C86_16 C79_16 1_555 1_555
C87_16 C80_16 1_555 1_555
C88_16 C80_16 1_555 1_555
C89_16 C81_16 1_555 1_555
C90_16 C82_16 1_555 1_555
H50_16 C82_16 1_555 1_555
N16_16 Co14_16 1_555 1_555
H51_16 C83_16 1_555 1_555
C91_16 C83_16 1_555 1_555
C92_16 C84_16 1_555 1_555
H52_16 C84_16 1_555 1_555
H53_16 C85_16 1_555 1_555
C93_16 C85_16 1_555 1_555
C94_16 C86_16 1_555 1_555
H54_16 C86_16 1_555 1_555
H55_20 C87_16 1_555 1_555
C95_16 C87_16 1_555 1_555
C96_16 C88_16 1_555 1_555
H56_16 C88_16 1_555 1_555
H57_16 C89_16 1_555 1_555
C97_16 C89_16 1_555 1_555
H58_16 C90_16 1_555 1_555
C98_16 N16_16 1_555 1_555
C99_16 N16_16 1_555 1_555
H59_16 C91_16 1_555 1_555
C100_16 C91_16 1_555 1_555
H60_16 C92_16 1_555 1_555
H61_16 C93_16 1_555 1_555
C101_16 C93_16 1_555 1_555
H62_16 C94_16 1_555 1_555
H63_16 C95_16 1_555 1_555
C102_16 C95_16 1_555 1_555
H64_16 C96_16 1_555 1_555
O35_16 C97_16 1_555 1_555
N17_16 C98_16 1_555 1_555
N18_16 C98_16 1_555 1_555
N19_16 C99_16 1_555 1_555
N20_16 C99_16 1_555 1_555
O36_16 C100_16 1_555 1_555
O37_16 C101_16 1_555 1_555
O38_16 C102_16 1_555 1_555
C103_16 O35_16 1_555 1_555
H65_16 N17_16 1_555 1_555
H66_16 N17_16 1_555 1_555
C104_16 N18_16 1_555 1_555
H67_16 N19_16 1_555 1_555
H68_16 N19_16 1_555 1_555
C105_16 O36_16 1_555 1_555
C106_16 O37_16 1_555 1_555
C107_16 O38_16 1_555 1_555
C108_20 C103_16 1_555 1_555
C109_16 C103_16 1_555 1_555
C110_16 C104_16 1_555 1_555
C111_16 C105_16 1_555 1_555
C112_16 C105_16 1_555 1_555
C113_16 C106_16 1_555 1_555
C114_16 C106_16 1_555 1_555
C115_16 C107_16 1_555 1_555
C116_16 C107_16 1_555 1_555
H69_16 C108_20 1_555 1_555
C117_16 C108_20 1_555 1_555
C118_16 C109_16 1_555 1_555
H70_16 C109_16 1_555 1_555
C119_16 C110_16 1_555 1_555
C120_16 C110_16 1_555 1_555
H71_14 C111_16 1_555 1_555
C121_16 C111_16 1_555 1_555
C122_16 C112_16 1_555 1_555
H72_16 C112_16 1_555 1_555
H73_16 C113_16 1_555 1_555
C123_16 C113_16 1_555 1_555
C124_16 C114_16 1_555 1_555
H74_16 C114_16 1_555 1_555
H75_16 C115_16 1_555 1_555
C125_16 C115_16 1_555 1_555
C126_16 C116_16 1_555 1_555
H76_16 C116_16 1_555 1_555
H77_16 C117_16 1_555 1_555
C127_16 C117_16 1_555 1_555
H78_16 C118_16 1_555 1_555
H79_16 C119_16 1_555 1_555
C128_16 C119_16 1_555 1_555
H80_16 C120_16 1_555 1_555
C129_16 C120_16 1_555 1_555
H81_16 C121_16 1_555 1_555
C130_16 C121_16 1_555 1_555
H82_16 C122_16 1_555 1_555
H83_16 C123_16 1_555 1_555
C131_16 C123_16 1_555 1_555
H84_16 C124_16 1_555 1_555
H85_16 C125_16 1_555 1_555
C132_16 C125_16 1_555 1_555
H86_16 C126_16 1_555 1_555
C133_16 C127_16 1_555 1_555
H87_16 C128_16 1_555 1_555
H88_16 C129_16 1_555 1_555
C134_16 C130_16 1_555 1_555
C135_16 C131_16 1_555 1_555
C136_16 C132_16 1_555 1_555
O47_7 C133_16 1_555 1_555
O50_7 C133_16 1_555 1_555
O41_16 C134_16 1_555 1_555
O42_16 C134_16 1_555 1_555
O48_10 C135_16 1_555 1_555
O51_10 C135_16 1_555 1_555
O52_8 C136_16 1_555 1_555
O49_8 C136_16 1_555 1_555
N22_16 C137_14 1_555 1_555
C137_14 N23_14 1_555 1_555
C138_16 N22_16 1_555 1_555
N23_14 H89_14 1_555 1_555
N24_14 C137_14 1_555 1_555
N25_16 C138_16 1_555 1_555
N26_16 C138_16 1_555 1_555
H90_16 N23_14 1_555 1_555
C139_14 N24_14 1_555 1_555
H91_16 N25_16 1_555 1_555
H92_16 N25_16 1_555 1_555
C140_14 C139_14 1_555 1_555
C141_14 C140_14 1_555 1_555
C142_14 C140_14 1_555 1_555
H93_14 C141_14 1_555 1_555
C143_14 C141_14 1_555 1_555
H95_14 C143_14 1_555 1_555
N15_6 C128_16 1_555 1_555
Co24_3 O41_16 1_555 1_555
Co21_5 O42_16 1_555 1_555
O32_16 Co14_16 1_555 1_555
O33_16 Co14_16 1_555 1_555
O34_16 Co14_16 1_555 1_555
C90_16 C97_16 1_555 1_555
C92_16 C100_16 1_555 1_555
C94_16 C101_16 1_555 1_555
C96_16 C102_16 1_555 1_555
N20_16 C104_16 1_555 1_555
C118_16 C127_16 1_555 1_555
C122_16 C130_16 1_555 1_555
C124_16 C131_16 1_555 1_555
C126_16 C132_16 1_555 1_555
C129_16 N15_6 1_555 1_555
N22_16 Co21_5 1_555 1_555
N26_16 C139_14 1_555 1_555
C137_15 N23_15 1_555 1_555
N23_15 H89_15 1_555 1_555
N24_15 C137_15 1_555 1_555
C139_15 N24_15 1_555 1_555
C140_15 C139_15 1_555 1_555
C141_15 C140_15 1_555 1_555
C142_15 C140_15 1_555 1_555
H93_15 C141_15 1_555 1_555
C143_15 C141_15 1_555 1_555
H95_15 C143_15 1_555 1_555
C137_16 N23_16 1_555 1_555
N23_16 H89_16 1_555 1_555
N24_16 C137_16 1_555 1_555
C139_16 N24_16 1_555 1_555
C140_16 C139_16 1_555 1_555
C141_16 C140_16 1_555 1_555
C142_16 C140_16 1_555 1_555
H93_16 C141_16 1_555 1_555
C143_16 C141_16 1_555 1_555
H95_16 C143_16 1_555 1_555

#END
