
###############################################################################
#
# This file contains modified crystal structure data generated from the
# MOF subset of the Cambridge Structural Database (CSD) v543 
# hosted by the Cambridge Crystallographic Data Centre (CCDC).
#
# This work is licensed under the Creative Commons
# Attribution-NonCommercial-ShareAlike 4.0 International License.
# To view a copy of this license, visit
# http://creativecommons.org/licenses/by-nc-sa/4.0/
# or send a letter to
# Creative Commons, PO Box 1866, Mountain View, CA 94042, USA.
#
# CIF created using the CSD Python API on 29 September 2022
# The structure has been converted into the P1 space group
# The structure has a 3D framework
# The original CSD entry FISPIH is in the monoclinic crystal system
# The framework has been calculated to contain at least 10.0% void space
# The void calculation uses a probe of radius 1.32A, grid spacing 0.4
# H atom positions have been added when not included in the experimental data
#
###############################################################################

data_FISPIH
_chemical_formula_moiety         '(C848 H1152 N128 Ni32 O188)n'
_symmetry_cell_setting           triclinic
_symmetry_space_group_name_H-M   'P 1'
_symmetry_Int_Tables_number      1
_space_group_name_Hall           'P 1'
loop_
_symmetry_equiv_pos_site_id
_symmetry_equiv_pos_as_xyz
1 x,y,z
_cell_length_a                   33.5933(17)
_cell_length_b                   24.5773(13)
_cell_length_c                   33.6567(18)
_cell_angle_alpha                90
_cell_angle_beta                 97.7110(10)
_cell_angle_gamma                90
_cell_volume                     27536.8
loop_
_atom_site_label
_atom_site_type_symbol
_atom_site_fract_x
_atom_site_fract_y
_atom_site_fract_z
N14 N 0.0317(3) 0.6407(4) 0.6201(3)
N15 N 0.0076(3) 0.6738(4) 0.6942(3)
C97 C 0.0190(4) 0.7326(6) 0.5546(4)
H109 H 0.0404 0.7579 0.5640
H110 H 0.0081 0.7431 0.5275
C98 C 0.0362(4) 0.6764(6) 0.5537(4)
H111 H 0.0144 0.6517 0.5444
H112 H 0.0546 0.6760 0.5339
C99 C 0.0572(4) 0.6548(5) 0.5907(3)
H113 H 0.0719 0.6226 0.5846
H114 H 0.0766 0.6815 0.6022
C100 C 0.0495(4) 0.6191(6) 0.6591(4)
H115 H 0.0598 0.5830 0.6549
H116 H 0.0723 0.6419 0.6691
C101 C 0.0239(4) 0.6156(5) 0.6894(4)
H117 H 0.0388 0.6031 0.7144
H118 H 0.0020 0.5905 0.6814
O25 O 0.0483(2) 0.7597(3) 0.6503(2)
H286 H 0.0120407 0.612285 0.607425
H288 H 0.0300186 0.69579 0.709849
Ni1 Ni 0.74007(5) 0.19722(7) 0.88236(5)
Ni2 Ni 0.48561(5) 0.77071(8) 0.64323(5)
Ni3 Ni 0.99765(4) 0.70571(7) 0.63688(4)
O2 O 0.18703(19) 0.9359(3) 0.67663(18)
O3 O 0.2654(2) 0.9389(3) 0.6119(2)
O7 O 0.0717(2) 0.7423(3) 0.7133(2)
O9 O 0.4305(2) 0.8141(4) 0.6283(2)
O10 O 0.4172(3) 0.8169(5) 0.5633(2)
O13 O 0.6898(2) 0.5716(3) 0.68590(19)
O14 O 0.69905(18) 0.4284(3) 0.6936(2)
O15 O 0.79760(19) 0.5079(3) 0.6576(2)
O16 O 0.7361(2) 0.4974(3) 0.5894(2)
O17 O 0.5392(2) 0.7289(3) 0.6582(2)
O18 O 0.5623(3) 0.7478(4) 0.7210(3)
O19 O 0.6680(3) 0.2310(4) 0.8044(2)
O20 O 0.7273(2) 0.2520(3) 0.8340(2)
O21 O 0.9436(3) 0.6611(3) 0.6279(3)
O22 O 0.9568(3) 0.5844(5) 0.5953(4)
O23 O 0.7869(4) 0.4193(5) 0.4246(3)
O24 O 0.7517(2) 0.3490(4) 0.4358(2)
C3 C 0.1881(3) 0.9689(4) 0.6414(3)
H3 H 0.1654 0.9935 0.6382
H4 H 0.1862 0.9457 0.6178
C4 C 0.2618(3) 0.9650(4) 0.6491(3)
H5 H 0.2855 0.9867 0.6575
H6 H 0.2596 0.9377 0.6696
C13 C 0.1585(3) 0.8962(4) 0.6754(3)
C14 C 0.1586(3) 0.8645(5) 0.7096(3)
H13 H 0.1778 0.8704 0.7318
C15 C 0.1288(3) 0.8224(5) 0.7105(3)
H14 H 0.1287 0.8012 0.7334
C16 C 0.1014(3) 0.8136(4) 0.6787(3)
C17 C 0.1023(3) 0.8432(4) 0.6458(3)
H15 H 0.0839 0.8350 0.6233
C18 C 0.1287(3) 0.8849(4) 0.6430(3)
H16 H 0.1269 0.9057 0.6197
C19 C 0.0725(3) 0.7678(5) 0.6815(4)
C20 C 0.3004(3) 0.9097(5) 0.6120(3)
C21 C 0.3248(3) 0.8944(5) 0.6439(4)
H17 H 0.3191 0.9038 0.6693
C22 C 0.3586(3) 0.8646(5) 0.6398(3)
H18 H 0.3747 0.8521 0.6626
C23 C 0.3692(4) 0.8532(5) 0.6038(4)
C24 C 0.3448(4) 0.8773(7) 0.5682(4)
H19 H 0.3524 0.8749 0.5426
C25 C 0.3109(3) 0.9033(5) 0.5753(4)
H20 H 0.2940 0.9173 0.5536
C26 C 0.4082(4) 0.8250(6) 0.5975(4)
C34 C 0.7275(3) 0.4999(4) 0.6586(3)
C35 C 0.6886(3) 0.5345(4) 0.6531(3)
H25 H 0.6865 0.5545 0.6281
H26 H 0.6653 0.5110 0.6523
C36 C 0.7312(3) 0.4680(4) 0.6956(3)
H27 H 0.7569 0.4495 0.6994
H28 H 0.7300 0.4920 0.7183
C37 C 0.7646(2) 0.5384(4) 0.6640(3)
H29 H 0.7607 0.5681 0.6449
H30 H 0.7684 0.5536 0.6908
C38 C 0.7268(3) 0.4632(4) 0.6223(3)
H31 H 0.7467 0.4345 0.6276
H32 H 0.7006 0.4466 0.6157
C39 C 0.6585(3) 0.6061(4) 0.6848(3)
C40 C 0.6277(3) 0.6110(4) 0.6543(3)
H33 H 0.6270 0.5883 0.6321
C41 C 0.5978(3) 0.6486(4) 0.6553(3)
H34 H 0.5776 0.6508 0.6336
C42 C 0.5965(3) 0.6826(4) 0.6868(4)
C43 C 0.6291(3) 0.6780(4) 0.7198(3)
H35 H 0.6291 0.6993 0.7426
C44 C 0.6589(3) 0.6426(4) 0.7171(3)
H36 H 0.6808 0.6421 0.7372
C45 C 0.5641(3) 0.7225(5) 0.6904(4)
C46 C 0.6989(3) 0.3889(4) 0.7223(3)
C47 C 0.6676(3) 0.3570(5) 0.7199(3)
H37 H 0.6459 0.3638 0.7003
C48 C 0.6658(3) 0.3131(4) 0.7459(3)
H38 H 0.6440 0.2894 0.7419
C49 C 0.6977(3) 0.3036(5) 0.7794(3)
C50 C 0.7286(3) 0.3395(4) 0.7816(3)
H39 H 0.7496 0.3358 0.8024
C51 C 0.7304(3) 0.3835(4) 0.7532(3)
H40 H 0.7520 0.4074 0.7556
C52 C 0.6979(4) 0.2594(5) 0.8070(3)
C53 C 0.8291(4) 0.5351(5) 0.6459(4)
C54 C 0.8404(3) 0.5867(5) 0.6574(4)
H41 H 0.8241 0.6058 0.6728
C55 C 0.8755(3) 0.6136(5) 0.6475(3)
H42 H 0.8821 0.6487 0.6563
C56 C 0.8984(3) 0.5857(5) 0.6249(3)
C57 C 0.8873(4) 0.5340(6) 0.6144(4)
H43 H 0.9041 0.5140 0.6001
C58 C 0.8544(4) 0.5100(6) 0.6230(4)
H44 H 0.8482 0.4752 0.6133
C59 C 0.9372(4) 0.6195(8) 0.6144(4)
C60 C 0.7431(4) 0.4682(5) 0.5553(4)
C61 C 0.7658(4) 0.4956(6) 0.5315(4)
H45 H 0.7753 0.5302 0.5389
C62 C 0.7750(4) 0.4729(5) 0.4963(4)
H46 H 0.7895 0.4922 0.4794
C63 C 0.7611(4) 0.4172(6) 0.4865(4)
C64 C 0.7374(4) 0.3916(4) 0.5101(3)
H47 H 0.7260 0.3582 0.5022
C65 C 0.7300(3) 0.4149(6) 0.5465(4)
H48 H 0.7166 0.3953 0.5644
C66 C 0.7681(4) 0.3933(7) 0.4493(5)
N1 N 0.4583(4) 0.6965(5) 0.6600(4)
N2 N 0.4925(5) 0.7496(6) 0.5825(4)
N3 N 0.5101(4) 0.8411(5) 0.6296(4)
N4 N 0.4818(5) 0.7896(6) 0.7021(4)
C67 C 0.4495(4) 0.6688(8) 0.6251(4)
H49 H 0.4228 0.6807 0.6140
H50 H 0.4467 0.6311 0.6328
C68 C 0.4720(5) 0.6672(6) 0.5916(5)
H51 H 0.4986 0.6566 0.6040
H52 H 0.4612 0.6352 0.5770
C69 C 0.4803(9) 0.7030(8) 0.5603(6)
H53 H 0.5016 0.6890 0.5463
H54 H 0.4566 0.7098 0.5412
C70 C 0.5191(5) 0.7952(8) 0.5682(5)
H55 H 0.5029 0.8167 0.5479
H56 H 0.5406 0.7787 0.5559
C71 C 0.5376(6) 0.8335(9) 0.6023(6)
H57 H 0.5622 0.8177 0.6160
H58 H 0.5442 0.8683 0.5912
C72 C 0.5286(7) 0.8759(11) 0.6635(6)
H59 H 0.5540 0.8606 0.6754
H60 H 0.5334 0.9123 0.6540
C73 C 0.5006(6) 0.8781(8) 0.6932(7)
H61 H 0.5147 0.9001 0.7146
H62 H 0.4791 0.9011 0.6806
C74 C 0.4804(8) 0.8391(8) 0.7139(7)
H63 H 0.4915 0.8404 0.7421
H64 H 0.4524 0.8497 0.7120
C75 C 0.4487(5) 0.7540(10) 0.7218(6)
H65 H 0.4603 0.7381 0.7471
H66 H 0.4257 0.7760 0.7260
C76 C 0.4373(6) 0.7106(9) 0.6906(6)
H67 H 0.4344 0.6773 0.7054
H68 H 0.4105 0.7201 0.6779
N9 N 0.7138(3) 0.2543(5) 0.9153(3)
N10 N 0.6883(3) 0.1560(4) 0.8681(3)
N11 N 0.7650(3) 0.1389(5) 0.8490(3)
N12 N 0.7940(3) 0.2387(5) 0.8987(3)
C87 C 0.6856(4) 0.2345(6) 0.9410(4)
H89 H 0.6738 0.2648 0.9538
H90 H 0.6992 0.2111 0.9618
C88 C 0.6543(4) 0.2040(6) 0.9157(4)
H91 H 0.6323 0.1986 0.9313
H92 H 0.6443 0.2274 0.8934
C89 C 0.6630(4) 0.1522(6) 0.8993(4)
H93 H 0.6380 0.1348 0.8886
H94 H 0.6761 0.1294 0.9207
C90 C 0.6984(4) 0.1051(6) 0.8492(4)
H95 H 0.7082 0.0789 0.8698
H96 H 0.6744 0.0901 0.8338
C91 C 0.7284(4) 0.1136(7) 0.8233(4)
H97 H 0.7183 0.1379 0.8016
H98 H 0.7356 0.0794 0.8120
C92 C 0.7942(5) 0.1593(7) 0.8234(5)
H99 H 0.7809 0.1837 0.8032
H100 H 0.8052 0.1291 0.8099
C93 C 0.8272(5) 0.1888(7) 0.8487(5)
H101 H 0.8382 0.1638 0.8696
H102 H 0.8482 0.1951 0.8320
C94 C 0.8207(5) 0.2392(6) 0.8678(5)
H103 H 0.8100 0.2649 0.8473
H104 H 0.8466 0.2530 0.8798
C95 C 0.7812(4) 0.2922(6) 0.9172(4)
H105 H 0.8035 0.3066 0.9355
H106 H 0.7741 0.3188 0.8962
C96 C 0.7473(5) 0.2834(7) 0.9386(5)
H107 H 0.7376 0.3184 0.9467
H108 H 0.7562 0.2629 0.9628
N13 N 0.9879(3) 0.7364(5) 0.5800(3)
N16 N 0.9641(3) 0.7724(4) 0.6530(3)
C102 C 0.9722(3) 0.6772(5) 0.7163(3)
H119 H 0.9517 0.6523 0.7042
H120 H 0.9801 0.6657 0.7438
C103 C 0.9549(3) 0.7326(5) 0.7164(3)
H121 H 0.9357 0.7322 0.7354
H122 H 0.9765 0.7567 0.7273
C104 C 0.9357(3) 0.7577(5) 0.6813(4)
H123 H 0.9221 0.7904 0.6886
H124 H 0.9155 0.7332 0.6681
C105 C 0.9443(4) 0.7959(6) 0.6133(4)
H125 H 0.9201 0.7757 0.6038
H126 H 0.9370 0.8337 0.6168
C106 C 0.9729(4) 0.7920(5) 0.5846(4)
H127 H 0.9955 0.8157 0.5931
H128 H 0.9602 0.8048 0.5587
Ni5 Ni 0.74007(5) 0.30278(7) 0.38236(5)
O27 O 0.7517(2) 0.1510(4) 0.9358(2)
H273 H 0.481989 0.675462 0.67433
H274 H 0.466936 0.769659 0.571621
H275 H 0.487304 0.863399 0.614888
H276 H 0.50832 0.775985 0.716724
H281 H 0.69899 0.281205 0.895741
H282 H 0.672269 0.177907 0.8459
H283 H 0.778478 0.110079 0.867799
H284 H 0.808804 0.217244 0.921886
H285 H 0.964272 0.715169 0.565748
H287 H 0.98354 0.800546 0.666435
O14_2 O 0.69905(18) 0.0716(3) 0.1936(2)
O16_2 O 0.7361(2) 0.0026(3) 0.0894(2)
O19_2 O 0.6680(3) 0.2690(4) 0.3044(2)
O20_2 O 0.7273(2) 0.2480(3) 0.3340(2)
C34_2 C 0.7275(3) 0.0001(4) 0.1586(3)
C36_2 C 0.7312(3) 0.0320(4) 0.1956(3)
H27_2 H 0.7569 0.0505 0.1994
H28_2 H 0.7300 0.0080 0.2183
C38_2 C 0.7268(3) 0.0368(4) 0.1223(3)
H31_2 H 0.7467 0.0655 0.1276
H32_2 H 0.7006 0.0534 0.1157
C46_2 C 0.6989(3) 0.1111(4) 0.2223(3)
C47_2 C 0.6676(3) 0.1430(5) 0.2199(3)
H37_2 H 0.6459 0.1362 0.2003
C48_2 C 0.6658(3) 0.1869(4) 0.2459(3)
H38_2 H 0.6440 0.2106 0.2419
C49_2 C 0.6977(3) 0.1964(5) 0.2794(3)
C50_2 C 0.7286(3) 0.1605(4) 0.2816(3)
H39_2 H 0.7496 0.1642 0.3024
C51_2 C 0.7304(3) 0.1165(4) 0.2532(3)
H40_2 H 0.7520 0.0926 0.2556
C52_2 C 0.6979(4) 0.2406(5) 0.3070(3)
H44_2 H 0.8482 0.0248 0.1133
C60_2 C 0.7431(4) 0.0318(5) 0.0553(4)
C61_2 C 0.7658(4) 0.0044(6) 0.0315(4)
C64_2 C 0.7374(4) 0.1084(4) 0.0101(3)
H47_2 H 0.7260 0.1418 0.0022
C65_2 C 0.7300(3) 0.0851(6) 0.0465(4)
H48_2 H 0.7166 0.1047 0.0644
N9_2 N 0.7138(3) 0.2457(5) 0.4153(3)
N10_2 N 0.6883(3) 0.3440(4) 0.3681(3)
N11_2 N 0.7650(3) 0.3611(5) 0.3490(3)
N12_2 N 0.7940(3) 0.2613(5) 0.3987(3)
C87_2 C 0.6856(4) 0.2655(6) 0.4410(4)
H89_2 H 0.6738 0.2352 0.4538
H90_2 H 0.6992 0.2889 0.4618
C88_2 C 0.6543(4) 0.2960(6) 0.4157(4)
H91_2 H 0.6323 0.3014 0.4313
H92_2 H 0.6443 0.2726 0.3934
C89_2 C 0.6630(4) 0.3478(6) 0.3993(4)
H93_2 H 0.6380 0.3652 0.3886
H94_2 H 0.6761 0.3706 0.4207
C90_2 C 0.6984(4) 0.3949(6) 0.3492(4)
H95_2 H 0.7082 0.4211 0.3698
H96_2 H 0.6744 0.4099 0.3338
C91_2 C 0.7284(4) 0.3864(7) 0.3233(4)
H97_2 H 0.7183 0.3621 0.3016
H98_2 H 0.7356 0.4206 0.3120
C92_2 C 0.7942(5) 0.3407(7) 0.3234(5)
H99_2 H 0.7809 0.3163 0.3032
H100_2 H 0.8052 0.3709 0.3099
C93_2 C 0.8272(5) 0.3112(7) 0.3487(5)
H101_2 H 0.8382 0.3362 0.3696
H102_2 H 0.8482 0.3049 0.3320
C94_2 C 0.8207(5) 0.2608(6) 0.3678(5)
H103_2 H 0.8100 0.2351 0.3473
H104_2 H 0.8466 0.2470 0.3798
C95_2 C 0.7812(4) 0.2078(6) 0.4172(4)
H105_2 H 0.8035 0.1934 0.4355
H106_2 H 0.7741 0.1812 0.3962
C96_2 C 0.7473(5) 0.2166(7) 0.4386(5)
H107_2 H 0.7376 0.1816 0.4467
H108_2 H 0.7562 0.2371 0.4628
H281_2 H 0.69899 0.218795 0.395741
H282_2 H 0.672269 0.322093 0.3459
H283_2 H 0.778478 0.389921 0.367799
H284_2 H 0.808804 0.282756 0.421886
O23_2 O 0.7869(4) 0.0807(5) 0.9246(3)
C62_2 C 0.7750(4) 0.0271(5) 0.9963(4)
H46_2 H 0.7895 0.0078 0.9794
C63_2 C 0.7611(4) 0.0828(6) 0.9865(4)
C66_2 C 0.7681(4) 0.1067(7) 0.9493(5)
Ni4 Ni 0.23602(5) 0.28936(9) 0.87545(5)
O1 O 0.1951(2) 0.0713(3) 0.68167(19)
O4 O 0.2583(2) 0.0589(3) 0.6018(2)
O5 O 0.1588(3) 0.2554(4) 0.8020(2)
O6 O 0.2237(2) 0.2399(4) 0.8245(2)
O11 O 0.3144(3) 0.1559(5) 0.4443(3)
O12 O 0.2476(3) 0.1673(4) 0.4281(2)
C1 C 0.2257(3) 0.0003(4) 0.6449(3)
C2 C 0.2308(3) 0.0383(4) 0.6823(3)
H1 H 0.2348 0.0167 0.7066
H2 H 0.2541 0.0615 0.6818
C5 C 0.2207(3) 0.0361(4) 0.6050(3)
H7 H 0.2120 0.0135 0.5818
H8 H 0.2010 0.0645 0.6065
C6 C 0.1953(3) 0.1090(4) 0.7105(3)
C7 C 0.2296(3) 0.1169(5) 0.7405(3)
H9 H 0.2523 0.0951 0.7415
C8 C 0.2271(3) 0.1579(4) 0.7676(3)
H10 H 0.2499 0.1659 0.7855
C9 C 0.1939(3) 0.1871(5) 0.7697(3)
C10 C 0.1592(3) 0.1786(5) 0.7408(3)
H11 H 0.1360 0.1994 0.7411
C11 C 0.1613(3) 0.1389(4) 0.7129(3)
H12 H 0.1386 0.1318 0.6946
C12 C 0.1906(4) 0.2320(5) 0.8018(3)
C27 C 0.2634(3) 0.0802(4) 0.5652(3)
C28 C 0.2987(3) 0.0794(5) 0.5535(3)
H21 H 0.3200 0.0621 0.5691
C29 C 0.3047(4) 0.1043(5) 0.5180(4)
H22 H 0.3305 0.1048 0.5108
C30 C 0.2736(3) 0.1286(6) 0.4924(3)
C31 C 0.2357(3) 0.1237(5) 0.5024(3)
H23 H 0.2135 0.1347 0.4847
C32 C 0.2308(4) 0.1025(5) 0.5391(3)
H24 H 0.2054 0.1026 0.5471
C33 C 0.2791(4) 0.1506(6) 0.4520(4)
N5 N 0.2943(3) 0.2929(6) 0.8654(3)
N6 N 0.2406(3) 0.2223(5) 0.9097(3)
N7 N 0.1772(3) 0.2953(5) 0.8832(3)
N8 N 0.2310(4) 0.3605(5) 0.8410(3)
C77 C 0.3153(4) 0.2431(6) 0.8626(5)
H69 H 0.3439 0.2506 0.8654
H70 H 0.3075 0.2276 0.8362
C78 C 0.3078(4) 0.2026(6) 0.8930(5)
H71 H 0.3238 0.1710 0.8883
H72 H 0.3195 0.2175 0.9186
C79 C 0.2684(5) 0.1820(6) 0.8987(5)
H73 H 0.2565 0.1646 0.8741
H74 H 0.2718 0.1543 0.9195
C80 C 0.1967(4) 0.2096(6) 0.9109(5)
H75 H 0.1943 0.1857 0.9333
H76 H 0.1860 0.1907 0.8865
C81 C 0.1716(4) 0.2619(6) 0.9150(4)
H77 H 0.1434 0.2529 0.9141
H78 H 0.1806 0.2800 0.9402
C82 C 0.1612(4) 0.3510(6) 0.8901(5)
H79 H 0.1324 0.3491 0.8908
H80 H 0.1738 0.3651 0.9157
C83 C 0.1698(5) 0.3877(6) 0.8571(5)
H81 H 0.1578 0.3708 0.8323
H82 H 0.1549 0.4210 0.8599
C84 C 0.2102(5) 0.4039(7) 0.8510(6)
H83 H 0.2088 0.4309 0.8298
H84 H 0.2238 0.4201 0.8754
C85 C 0.2723(6) 0.3777(8) 0.8297(6)
H85 H 0.2696 0.3928 0.8028
H86 H 0.2853 0.4042 0.8485
C86 C 0.2946(5) 0.3256(7) 0.8321(5)
H87 H 0.2842 0.3042 0.8087
H88 H 0.3224 0.3339 0.8297
Ni7 Ni 0.23602(5) 0.21064(9) 0.37545(5)
O26 O 0.2476(3) 0.3327(4) 0.9281(2)
H277 H 0.309359 0.313584 0.888853
H278 H 0.251723 0.234799 0.937744
H279 H 0.215577 0.348292 0.814495
H280 H 0.160657 0.27986 0.858299
N14_2 N 0.0317(3) 0.8593(4) 0.1201(3)
N15_2 N 0.0076(3) 0.8262(4) 0.1942(3)
C97_2 C 0.0190(4) 0.7674(6) 0.0546(4)
H109_2 H 0.0404 0.7421 0.0640
H110_2 H 0.0081 0.7569 0.0275
C98_2 C 0.0362(4) 0.8236(6) 0.0537(4)
H111_2 H 0.0144 0.8483 0.0444
H112_2 H 0.0546 0.8240 0.0339
C99_2 C 0.0572(4) 0.8452(5) 0.0907(3)
H113_2 H 0.0719 0.8774 0.0846
H114_2 H 0.0766 0.8185 0.1022
C100_2 C 0.0495(4) 0.8809(6) 0.1591(4)
H115_2 H 0.0598 0.9170 0.1549
H116_2 H 0.0723 0.8581 0.1691
C101_2 C 0.0239(4) 0.8844(5) 0.1894(4)
H117_2 H 0.0388 0.8969 0.2144
H118_2 H 0.0020 0.9095 0.1814
O25_2 O 0.0483(2) 0.7403(3) 0.1503(2)
H286_2 H 0.0120407 0.887715 0.107425
H288_2 H 0.0300186 0.80421 0.209849
Ni2_2 Ni 0.48561(5) 0.72929(8) 0.14323(5)
Ni3_2 Ni 0.99765(4) 0.79429(7) 0.13688(4)
O1_2 O 0.1951(2) 0.4287(3) 0.18167(19)
O2_2 O 0.18703(19) 0.5641(3) 0.17663(18)
O3_2 O 0.2654(2) 0.5611(3) 0.1119(2)
O4_2 O 0.2583(2) 0.4411(3) 0.1018(2)
O5_2 O 0.1588(3) 0.2446(4) 0.3020(2)
O6_2 O 0.2237(2) 0.2601(4) 0.3245(2)
O7_2 O 0.0717(2) 0.7577(3) 0.2133(2)
O9_2 O 0.4305(2) 0.6859(4) 0.1283(2)
O10_2 O 0.4172(3) 0.6831(5) 0.0633(2)
O13_2 O 0.6898(2) 0.9284(3) 0.18590(19)
O15_2 O 0.79760(19) 0.9921(3) 0.1576(2)
O17_2 O 0.5392(2) 0.7711(3) 0.1582(2)
O18_2 O 0.5623(3) 0.7522(4) 0.2210(3)
O21_2 O 0.9436(3) 0.8389(3) 0.1279(3)
O22_2 O 0.9568(3) 0.9156(5) 0.0953(4)
C1_2 C 0.2257(3) 0.4997(4) 0.1449(3)
C2_2 C 0.2308(3) 0.4617(4) 0.1823(3)
H1_2 H 0.2348 0.4833 0.2066
H2_2 H 0.2541 0.4385 0.1818
C3_2 C 0.1881(3) 0.5311(4) 0.1414(3)
H3_2 H 0.1654 0.5065 0.1382
H4_2 H 0.1862 0.5543 0.1178
C4_2 C 0.2618(3) 0.5350(4) 0.1491(3)
H5_2 H 0.2855 0.5133 0.1575
H6_2 H 0.2596 0.5623 0.1696
C5_2 C 0.2207(3) 0.4639(4) 0.1050(3)
H7_2 H 0.2120 0.4865 0.0818
H8_2 H 0.2010 0.4355 0.1065
C6_2 C 0.1953(3) 0.3910(4) 0.2105(3)
C7_2 C 0.2296(3) 0.3831(5) 0.2405(3)
H9_2 H 0.2523 0.4049 0.2415
C8_2 C 0.2271(3) 0.3421(4) 0.2676(3)
H10_2 H 0.2499 0.3341 0.2855
C9_2 C 0.1939(3) 0.3129(5) 0.2697(3)
C10_2 C 0.1592(3) 0.3214(5) 0.2408(3)
H11_2 H 0.1360 0.3006 0.2411
C11_2 C 0.1613(3) 0.3611(4) 0.2129(3)
H12_2 H 0.1386 0.3682 0.1946
C12_2 C 0.1906(4) 0.2680(5) 0.3018(3)
C13_2 C 0.1585(3) 0.6038(4) 0.1754(3)
C14_2 C 0.1586(3) 0.6355(5) 0.2096(3)
H13_2 H 0.1778 0.6296 0.2318
C15_2 C 0.1288(3) 0.6776(5) 0.2105(3)
H14_2 H 0.1287 0.6988 0.2334
C16_2 C 0.1014(3) 0.6864(4) 0.1787(3)
C17_2 C 0.1023(3) 0.6568(4) 0.1458(3)
H15_2 H 0.0839 0.6650 0.1233
C18_2 C 0.1287(3) 0.6151(4) 0.1430(3)
H16_2 H 0.1269 0.5943 0.1197
C19_2 C 0.0725(3) 0.7322(5) 0.1815(4)
C20_2 C 0.3004(3) 0.5903(5) 0.1120(3)
C21_2 C 0.3248(3) 0.6056(5) 0.1439(4)
H17_2 H 0.3191 0.5962 0.1693
C22_2 C 0.3586(3) 0.6354(5) 0.1398(3)
H18_2 H 0.3747 0.6479 0.1626
C23_2 C 0.3692(4) 0.6468(5) 0.1038(4)
C24_2 C 0.3448(4) 0.6227(7) 0.0682(4)
H19_2 H 0.3524 0.6251 0.0426
C25_2 C 0.3109(3) 0.5967(5) 0.0753(4)
H20_2 H 0.2940 0.5827 0.0536
C26_2 C 0.4082(4) 0.6750(6) 0.0975(4)
C27_2 C 0.2634(3) 0.4198(4) 0.0652(3)
C28_2 C 0.2987(3) 0.4206(5) 0.0535(3)
H21_2 H 0.3200 0.4379 0.0691
C29_2 C 0.3047(4) 0.3957(5) 0.0180(4)
H22_2 H 0.3305 0.3952 0.0108
C31_2 C 0.2357(3) 0.3763(5) 0.0024(3)
C32_2 C 0.2308(4) 0.3975(5) 0.0391(3)
H24_2 H 0.2054 0.3974 0.0471
C35_2 C 0.6886(3) 0.9655(4) 0.1531(3)
H25_2 H 0.6865 0.9455 0.1281
H26_2 H 0.6653 0.9890 0.1523
C37_2 C 0.7646(2) 0.9616(4) 0.1640(3)
H29_2 H 0.7607 0.9319 0.1449
H30_2 H 0.7684 0.9464 0.1908
C39_2 C 0.6585(3) 0.8939(4) 0.1848(3)
C40_2 C 0.6277(3) 0.8890(4) 0.1543(3)
H33_2 H 0.6270 0.9117 0.1321
C41_2 C 0.5978(3) 0.8514(4) 0.1553(3)
H34_2 H 0.5776 0.8492 0.1336
C42_2 C 0.5965(3) 0.8174(4) 0.1868(4)
C43_2 C 0.6291(3) 0.8220(4) 0.2198(3)
H35_2 H 0.6291 0.8007 0.2426
C44_2 C 0.6589(3) 0.8574(4) 0.2171(3)
H36_2 H 0.6808 0.8579 0.2372
C45_2 C 0.5641(3) 0.7775(5) 0.1904(4)
C53_2 C 0.8291(4) 0.9649(5) 0.1459(4)
C54_2 C 0.8404(3) 0.9133(5) 0.1574(4)
H41_2 H 0.8241 0.8942 0.1728
C55_2 C 0.8755(3) 0.8864(5) 0.1475(3)
H42_2 H 0.8821 0.8513 0.1563
C56_2 C 0.8984(3) 0.9143(5) 0.1249(3)
C57_2 C 0.8873(4) 0.9660(6) 0.1144(4)
H43_2 H 0.9041 0.9860 0.1001
C58_2 C 0.8544(4) 0.9900(6) 0.1230(4)
C59_2 C 0.9372(4) 0.8805(8) 0.1144(4)
H45_2 H 0.7753 0.9698 0.0389
N1_2 N 0.4583(4) 0.8035(5) 0.1600(4)
N2_2 N 0.4925(5) 0.7504(6) 0.0825(4)
N3_2 N 0.5101(4) 0.6589(5) 0.1296(4)
N4_2 N 0.4818(5) 0.7104(6) 0.2021(4)
C67_2 C 0.4495(4) 0.8312(8) 0.1251(4)
H49_2 H 0.4228 0.8193 0.1140
H50_2 H 0.4467 0.8689 0.1328
C68_2 C 0.4720(5) 0.8328(6) 0.0916(5)
H51_2 H 0.4986 0.8434 0.1040
H52_2 H 0.4612 0.8648 0.0770
C69_2 C 0.4803(9) 0.7970(8) 0.0603(6)
H53_2 H 0.5016 0.8110 0.0463
H54_2 H 0.4566 0.7902 0.0412
C70_2 C 0.5191(5) 0.7048(8) 0.0682(5)
H55_2 H 0.5029 0.6833 0.0479
H56_2 H 0.5406 0.7213 0.0559
C71_2 C 0.5376(6) 0.6665(9) 0.1023(6)
H57_2 H 0.5622 0.6823 0.1160
H58_2 H 0.5442 0.6317 0.0912
C72_2 C 0.5286(7) 0.6241(11) 0.1635(6)
H59_2 H 0.5540 0.6394 0.1754
H60_2 H 0.5334 0.5877 0.1540
C73_2 C 0.5006(6) 0.6219(8) 0.1932(7)
H61_2 H 0.5147 0.5999 0.2146
H62_2 H 0.4791 0.5989 0.1806
C74_2 C 0.4804(8) 0.6609(8) 0.2139(7)
H63_2 H 0.4915 0.6596 0.2421
H64_2 H 0.4524 0.6503 0.2120
C75_2 C 0.4487(5) 0.7460(10) 0.2218(6)
H65_2 H 0.4603 0.7619 0.2471
H66_2 H 0.4257 0.7240 0.2260
C76_2 C 0.4373(6) 0.7894(9) 0.1906(6)
H67_2 H 0.4344 0.8227 0.2054
H68_2 H 0.4105 0.7799 0.1779
N5_2 N 0.2943(3) 0.2071(6) 0.3654(3)
N6_2 N 0.2406(3) 0.2777(5) 0.4097(3)
N7_2 N 0.1772(3) 0.2047(5) 0.3832(3)
N8_2 N 0.2310(4) 0.1395(5) 0.3410(3)
C77_2 C 0.3153(4) 0.2569(6) 0.3626(5)
H69_2 H 0.3439 0.2494 0.3654
H70_2 H 0.3075 0.2724 0.3362
C78_2 C 0.3078(4) 0.2974(6) 0.3930(5)
H71_2 H 0.3238 0.3290 0.3883
H72_2 H 0.3195 0.2825 0.4186
C79_2 C 0.2684(5) 0.3180(6) 0.3987(5)
H73_2 H 0.2565 0.3354 0.3741
H74_2 H 0.2718 0.3457 0.4195
C80_2 C 0.1967(4) 0.2904(6) 0.4109(5)
H75_2 H 0.1943 0.3143 0.4333
H76_2 H 0.1860 0.3093 0.3865
C81_2 C 0.1716(4) 0.2381(6) 0.4150(4)
H77_2 H 0.1434 0.2471 0.4141
H78_2 H 0.1806 0.2200 0.4402
C82_2 C 0.1612(4) 0.1490(6) 0.3901(5)
H79_2 H 0.1324 0.1509 0.3908
H80_2 H 0.1738 0.1349 0.4157
C83_2 C 0.1698(5) 0.1123(6) 0.3571(5)
H81_2 H 0.1578 0.1292 0.3323
H82_2 H 0.1549 0.0790 0.3599
C84_2 C 0.2102(5) 0.0961(7) 0.3510(6)
H83_2 H 0.2088 0.0691 0.3298
H84_2 H 0.2238 0.0799 0.3754
C85_2 C 0.2723(6) 0.1223(8) 0.3297(6)
H85_2 H 0.2696 0.1072 0.3028
H86_2 H 0.2853 0.0958 0.3485
C86_2 C 0.2946(5) 0.1744(7) 0.3321(5)
H87_2 H 0.2842 0.1958 0.3087
H88_2 H 0.3224 0.1661 0.3297
N13_2 N 0.9879(3) 0.7636(5) 0.0800(3)
N16_2 N 0.9641(3) 0.7276(4) 0.1530(3)
C102_2 C 0.9722(3) 0.8228(5) 0.2163(3)
H119_2 H 0.9517 0.8477 0.2042
H120_2 H 0.9801 0.8343 0.2438
C103_2 C 0.9549(3) 0.7674(5) 0.2164(3)
H121_2 H 0.9357 0.7678 0.2354
H122_2 H 0.9765 0.7433 0.2273
C104_2 C 0.9357(3) 0.7423(5) 0.1813(4)
H123_2 H 0.9221 0.7096 0.1886
H124_2 H 0.9155 0.7668 0.1681
C105_2 C 0.9443(4) 0.7041(6) 0.1133(4)
H125_2 H 0.9201 0.7243 0.1038
H126_2 H 0.9370 0.6663 0.1168
C106_2 C 0.9729(4) 0.7080(5) 0.0846(4)
H127_2 H 0.9955 0.6843 0.0931
H128_2 H 0.9602 0.6952 0.0587
H273_2 H 0.481989 0.824538 0.17433
H274_2 H 0.466936 0.730341 0.071621
H275_2 H 0.487304 0.636601 0.114888
H276_2 H 0.50832 0.724015 0.216724
H277_2 H 0.309359 0.186416 0.388853
H278_2 H 0.251723 0.265201 0.437744
H279_2 H 0.215577 0.151708 0.314495
H280_2 H 0.160657 0.22014 0.358299
H285_2 H 0.964272 0.784831 0.0657481
H287_2 H 0.98354 0.699454 0.166435
O11_2 O 0.3144(3) 0.3441(5) 0.9443(3)
C30_2 C 0.2736(3) 0.3714(6) 0.9924(3)
H23_2 H 0.2135 0.3653 0.9847
C33_2 C 0.2791(4) 0.3494(6) 0.9520(4)
Ni6 Ni 0.00235(4) 0.20571(7) 0.86312(4)
O11_3 O 0.6856(3) 0.6559(5) 0.0557(3)
O12_2 O 0.7524(3) 0.6673(4) 0.0719(2)
C30_3 C 0.7264(3) 0.6286(6) 0.0076(3)
H23_3 H 0.7865 0.6347 0.0153
C33_3 C 0.7209(4) 0.6506(6) 0.0480(4)
Ni7_2 Ni 0.76398(5) 0.71064(9) 0.12455(5)
Ni2_3 Ni 0.51439(5) 0.27071(8) 0.85677(5)
Ni4_2 Ni 0.76398(5) 0.78936(9) 0.62455(5)
O1_3 O 0.8049(2) 0.5713(3) 0.81833(19)
O2_3 O 0.81297(19) 0.4359(3) 0.82337(18)
O3_3 O 0.7346(2) 0.4389(3) 0.8881(2)
O4_3 O 0.7417(2) 0.5589(3) 0.8982(2)
O5_3 O 0.8412(3) 0.7554(4) 0.6980(2)
O6_3 O 0.7763(2) 0.7399(4) 0.6755(2)
O7_3 O 0.9283(2) 0.2423(3) 0.7867(2)
O8 O 0.9517(2) 0.2597(3) 0.8497(2)
O9_3 O 0.5695(2) 0.3141(4) 0.8717(2)
O10_3 O 0.5828(3) 0.3169(5) 0.9367(2)
O13_3 O 0.3102(2) 0.0716(3) 0.81410(19)
O15_3 O 0.20240(19) 0.0079(3) 0.8424(2)
O17_3 O 0.4608(2) 0.2289(3) 0.8418(2)
O18_3 O 0.4377(3) 0.2478(4) 0.7790(3)
O21_3 O 0.0564(3) 0.1611(3) 0.8721(3)
O22_3 O 0.0432(3) 0.0844(5) 0.9047(4)
C1_3 C 0.7743(3) 0.5003(4) 0.8551(3)
C2_3 C 0.7692(3) 0.5383(4) 0.8177(3)
H1_3 H 0.7652 0.5167 0.7934
H2_3 H 0.7459 0.5615 0.8182
C3_3 C 0.8119(3) 0.4689(4) 0.8586(3)
H3_3 H 0.8346 0.4935 0.8618
H4_3 H 0.8138 0.4457 0.8822
C4_3 C 0.7382(3) 0.4650(4) 0.8509(3)
H5_3 H 0.7145 0.4867 0.8425
H6_3 H 0.7404 0.4377 0.8304
C5_3 C 0.7793(3) 0.5361(4) 0.8950(3)
H7_3 H 0.7880 0.5135 0.9182
H8_3 H 0.7990 0.5645 0.8935
C6_3 C 0.8047(3) 0.6090(4) 0.7895(3)
C7_3 C 0.7704(3) 0.6169(5) 0.7595(3)
H9_3 H 0.7477 0.5951 0.7585
C8_3 C 0.7729(3) 0.6579(4) 0.7324(3)
H10_3 H 0.7501 0.6659 0.7145
C9_3 C 0.8061(3) 0.6871(5) 0.7303(3)
C10_3 C 0.8408(3) 0.6786(5) 0.7592(3)
H11_3 H 0.8640 0.6994 0.7589
C11_3 C 0.8387(3) 0.6389(4) 0.7871(3)
H12_3 H 0.8614 0.6318 0.8054
C12_3 C 0.8094(4) 0.7320(5) 0.6982(3)
C13_3 C 0.8415(3) 0.3962(4) 0.8246(3)
C14_3 C 0.8414(3) 0.3645(5) 0.7904(3)
H13_3 H 0.8222 0.3704 0.7682
C15_3 C 0.8712(3) 0.3224(5) 0.7895(3)
H14_3 H 0.8713 0.3012 0.7666
C16_3 C 0.8986(3) 0.3136(4) 0.8213(3)
C17_3 C 0.8977(3) 0.3432(4) 0.8542(3)
H15_3 H 0.9161 0.3350 0.8767
C18_3 C 0.8713(3) 0.3849(4) 0.8570(3)
H16_3 H 0.8731 0.4057 0.8803
C19_3 C 0.9275(3) 0.2678(5) 0.8185(4)
C20_3 C 0.6996(3) 0.4097(5) 0.8880(3)
C21_3 C 0.6752(3) 0.3944(5) 0.8561(4)
H17_3 H 0.6809 0.4038 0.8307
C22_3 C 0.6414(3) 0.3646(5) 0.8602(3)
H18_3 H 0.6253 0.3521 0.8374
C23_3 C 0.6308(4) 0.3532(5) 0.8962(4)
C24_3 C 0.6552(4) 0.3773(7) 0.9318(4)
H19_3 H 0.6476 0.3749 0.9574
C25_3 C 0.6891(3) 0.4033(5) 0.9247(4)
H20_3 H 0.7060 0.4173 0.9464
C26_3 C 0.5918(4) 0.3250(6) 0.9025(4)
C27_3 C 0.7366(3) 0.5802(4) 0.9348(3)
C28_3 C 0.7013(3) 0.5794(5) 0.9465(3)
H21_3 H 0.6800 0.5621 0.9309
C29_3 C 0.6953(4) 0.6043(5) 0.9820(4)
H22_3 H 0.6695 0.6048 0.9892
C31_3 C 0.7643(3) 0.6237(5) 0.9976(3)
C32_3 C 0.7692(4) 0.6025(5) 0.9609(3)
H24_3 H 0.7946 0.6026 0.9529
C35_3 C 0.3114(3) 0.0345(4) 0.8469(3)
H25_3 H 0.3135 0.0545 0.8719
H26_3 H 0.3347 0.0110 0.8477
C37_3 C 0.2354(2) 0.0384(4) 0.8360(3)
H29_3 H 0.2393 0.0681 0.8551
H30_3 H 0.2316 0.0536 0.8092
C39_3 C 0.3415(3) 0.1061(4) 0.8152(3)
C40_3 C 0.3723(3) 0.1110(4) 0.8457(3)
H33_3 H 0.3730 0.0883 0.8679
C41_3 C 0.4022(3) 0.1486(4) 0.8447(3)
H34_3 H 0.4224 0.1508 0.8664
C42_3 C 0.4035(3) 0.1826(4) 0.8132(4)
C43_3 C 0.3709(3) 0.1780(4) 0.7802(3)
H35_3 H 0.3709 0.1993 0.7574
C44_3 C 0.3411(3) 0.1426(4) 0.7829(3)
H36_3 H 0.3192 0.1421 0.7628
C45_3 C 0.4359(3) 0.2225(5) 0.8096(4)
C53_3 C 0.1709(4) 0.0351(5) 0.8541(4)
C54_3 C 0.1596(3) 0.0867(5) 0.8426(4)
H41_3 H 0.1759 0.1058 0.8272
C55_3 C 0.1245(3) 0.1136(5) 0.8525(3)
H42_3 H 0.1179 0.1487 0.8437
C56_3 C 0.1016(3) 0.0857(5) 0.8751(3)
C57_3 C 0.1127(4) 0.0340(6) 0.8856(4)
H43_3 H 0.0959 0.0140 0.8999
C58_3 C 0.1456(4) 0.0100(6) 0.8770(4)
C59_3 C 0.0628(4) 0.1195(8) 0.8856(4)
H45_3 H 0.2247 0.0302 0.9611
N1_3 N 0.5417(4) 0.1965(5) 0.8400(4)
N2_3 N 0.5075(5) 0.2496(6) 0.9175(4)
N3_3 N 0.4899(4) 0.3411(5) 0.8704(4)
N4_3 N 0.5182(5) 0.2896(6) 0.7979(4)
C67_3 C 0.5505(4) 0.1688(8) 0.8749(4)
H49_3 H 0.5772 0.1807 0.8860
H50_3 H 0.5533 0.1311 0.8672
C68_3 C 0.5280(5) 0.1672(6) 0.9084(5)
H51_3 H 0.5014 0.1566 0.8960
H52_3 H 0.5388 0.1352 0.9230
C69_3 C 0.5197(9) 0.2030(8) 0.9397(6)
H53_3 H 0.4984 0.1890 0.9537
H54_3 H 0.5434 0.2098 0.9588
C70_3 C 0.4809(5) 0.2952(8) 0.9318(5)
H55_3 H 0.4971 0.3167 0.9521
H56_3 H 0.4594 0.2787 0.9441
C71_3 C 0.4624(6) 0.3335(9) 0.8977(6)
H57_3 H 0.4378 0.3177 0.8840
H58_3 H 0.4558 0.3683 0.9088
C72_3 C 0.4714(7) 0.3759(11) 0.8365(6)
H59_3 H 0.4460 0.3606 0.8246
H60_3 H 0.4666 0.4123 0.8460
C73_3 C 0.4994(6) 0.3781(8) 0.8068(7)
H61_3 H 0.4853 0.4001 0.7854
H62_3 H 0.5209 0.4011 0.8194
C74_3 C 0.5196(8) 0.3391(8) 0.7861(7)
H63_3 H 0.5085 0.3404 0.7579
H64_3 H 0.5476 0.3497 0.7880
C75_3 C 0.5513(5) 0.2540(10) 0.7782(6)
H65_3 H 0.5397 0.2381 0.7529
H66_3 H 0.5743 0.2760 0.7740
C76_3 C 0.5627(6) 0.2106(9) 0.8094(6)
H67_3 H 0.5656 0.1773 0.7946
H68_3 H 0.5895 0.2201 0.8221
N5_3 N 0.7057(3) 0.7929(6) 0.6346(3)
N6_3 N 0.7594(3) 0.7223(5) 0.5903(3)
N7_3 N 0.8228(3) 0.7953(5) 0.6168(3)
N8_3 N 0.7690(4) 0.8605(5) 0.6590(3)
C77_3 C 0.6847(4) 0.7431(6) 0.6374(5)
H69_3 H 0.6561 0.7506 0.6346
H70_3 H 0.6925 0.7276 0.6638
C78_3 C 0.6922(4) 0.7026(6) 0.6070(5)
H71_3 H 0.6762 0.6710 0.6117
H72_3 H 0.6805 0.7175 0.5814
C79_3 C 0.7316(5) 0.6820(6) 0.6013(5)
H73_3 H 0.7435 0.6646 0.6259
H74_3 H 0.7282 0.6543 0.5805
C80_3 C 0.8033(4) 0.7096(6) 0.5891(5)
H75_3 H 0.8057 0.6857 0.5667
H76_3 H 0.8140 0.6907 0.6135
C81_3 C 0.8284(4) 0.7619(6) 0.5850(4)
H77_3 H 0.8566 0.7529 0.5859
H78_3 H 0.8194 0.7800 0.5598
C82_3 C 0.8388(4) 0.8510(6) 0.6099(5)
H79_3 H 0.8676 0.8491 0.6092
H80_3 H 0.8262 0.8651 0.5843
C83_3 C 0.8302(5) 0.8877(6) 0.6429(5)
H81_3 H 0.8422 0.8708 0.6677
H82_3 H 0.8451 0.9210 0.6401
C84_3 C 0.7898(5) 0.9039(7) 0.6490(6)
H83_3 H 0.7912 0.9309 0.6702
H84_3 H 0.7762 0.9201 0.6246
C85_3 C 0.7277(6) 0.8777(8) 0.6703(6)
H85_3 H 0.7304 0.8928 0.6972
H86_3 H 0.7147 0.9042 0.6515
C86_3 C 0.7054(5) 0.8256(7) 0.6679(5)
H87_3 H 0.7158 0.8042 0.6913
H88_3 H 0.6776 0.8339 0.6703
N13_3 N 0.0121(3) 0.2364(5) 0.9200(3)
N16_3 N 0.0359(3) 0.2724(4) 0.8470(3)
C102_3 C 0.0278(3) 0.1772(5) 0.7837(3)
H119_3 H 0.0483 0.1523 0.7958
H120_3 H 0.0199 0.1657 0.7562
C103_3 C 0.0451(3) 0.2326(5) 0.7836(3)
H121_3 H 0.0643 0.2322 0.7646
H122_3 H 0.0235 0.2567 0.7727
C104_3 C 0.0643(3) 0.2577(5) 0.8187(4)
H123_3 H 0.0779 0.2904 0.8114
H124_3 H 0.0845 0.2332 0.8319
C105_3 C 0.0557(4) 0.2959(6) 0.8867(4)
H125_3 H 0.0799 0.2757 0.8962
H126_3 H 0.0630 0.3337 0.8832
C106_3 C 0.0271(4) 0.2920(5) 0.9154(4)
H127_3 H 0.0045 0.3157 0.9069
H128_3 H 0.0398 0.3048 0.9413
O26_2 O 0.7524(3) 0.8327(4) 0.5719(2)
H273_3 H 0.518011 0.175462 0.82567
H274_3 H 0.533064 0.269659 0.928379
H275_3 H 0.512696 0.363399 0.885112
H276_3 H 0.49168 0.275985 0.783276
H277_3 H 0.690641 0.813584 0.611147
H278_3 H 0.748277 0.734799 0.562256
H279_3 H 0.784423 0.848292 0.685505
H280_3 H 0.839343 0.77986 0.641701
H285_3 H 0.0357283 0.215169 0.934252
H287_3 H 0.0164602 0.300546 0.833565
N14_3 N 0.9683(3) 0.1407(4) 0.8799(3)
N15_3 N 0.9924(3) 0.1738(4) 0.8058(3)
C97_3 C 0.9810(4) 0.2326(6) 0.9454(4)
H109_3 H 0.9596 0.2579 0.9360
H110_3 H 0.9919 0.2431 0.9725
C98_3 C 0.9638(4) 0.1764(6) 0.9463(4)
H111_3 H 0.9856 0.1517 0.9556
H112_3 H 0.9454 0.1760 0.9661
C99_3 C 0.9428(4) 0.1548(5) 0.9093(3)
H113_3 H 0.9281 0.1226 0.9154
H114_3 H 0.9234 0.1815 0.8978
C100_3 C 0.9505(4) 0.1191(6) 0.8409(4)
H115_3 H 0.9402 0.0830 0.8451
H116_3 H 0.9277 0.1419 0.8309
C101_3 C 0.9761(4) 0.1156(5) 0.8106(4)
H117_3 H 0.9612 0.1031 0.7856
H118_3 H 0.9980 0.0905 0.8186
H286_3 H 0.987959 0.112285 0.892575
H288_3 H 0.969981 0.19579 0.790151
O1_4 O 0.8049(2) 0.9287(3) 0.31833(19)
O4_4 O 0.7417(2) 0.9411(3) 0.3982(2)
O5_4 O 0.8412(3) 0.7446(4) 0.1980(2)
O6_4 O 0.7763(2) 0.7601(4) 0.1755(2)
O11_4 O 0.6856(3) 0.8441(5) 0.5557(3)
C1_4 C 0.7743(3) 0.9997(4) 0.3551(3)
C2_4 C 0.7692(3) 0.9617(4) 0.3177(3)
H1_4 H 0.7652 0.9833 0.2934
H2_4 H 0.7459 0.9385 0.3182
C5_4 C 0.7793(3) 0.9639(4) 0.3950(3)
H7_4 H 0.7880 0.9865 0.4182
H8_4 H 0.7990 0.9355 0.3935
C6_4 C 0.8047(3) 0.8910(4) 0.2895(3)
C7_4 C 0.7704(3) 0.8831(5) 0.2595(3)
H9_4 H 0.7477 0.9049 0.2585
C8_4 C 0.7729(3) 0.8421(4) 0.2324(3)
H10_4 H 0.7501 0.8341 0.2145
C9_4 C 0.8061(3) 0.8129(5) 0.2303(3)
C10_4 C 0.8408(3) 0.8214(5) 0.2592(3)
H11_4 H 0.8640 0.8006 0.2589
C11_4 C 0.8387(3) 0.8611(4) 0.2871(3)
H12_4 H 0.8614 0.8682 0.3054
C12_4 C 0.8094(4) 0.7680(5) 0.1982(3)
C27_4 C 0.7366(3) 0.9198(4) 0.4348(3)
C28_4 C 0.7013(3) 0.9206(5) 0.4465(3)
H21_4 H 0.6800 0.9379 0.4309
C29_4 C 0.6953(4) 0.8957(5) 0.4820(4)
H22_4 H 0.6695 0.8952 0.4892
C30_4 C 0.7264(3) 0.8714(6) 0.5076(3)
C31_4 C 0.7643(3) 0.8763(5) 0.4976(3)
H23_4 H 0.7865 0.8653 0.5153
C32_4 C 0.7692(4) 0.8975(5) 0.4609(3)
H24_4 H 0.7946 0.8974 0.4529
C33_4 C 0.7209(4) 0.8494(6) 0.5480(4)
N5_4 N 0.7057(3) 0.7071(6) 0.1346(3)
N6_4 N 0.7594(3) 0.7777(5) 0.0903(3)
N7_4 N 0.8228(3) 0.7047(5) 0.1168(3)
N8_4 N 0.7690(4) 0.6395(5) 0.1590(3)
C77_4 C 0.6847(4) 0.7569(6) 0.1374(5)
H69_4 H 0.6561 0.7494 0.1346
H70_4 H 0.6925 0.7724 0.1638
C78_4 C 0.6922(4) 0.7974(6) 0.1070(5)
H71_4 H 0.6762 0.8290 0.1117
H72_4 H 0.6805 0.7825 0.0814
C79_4 C 0.7316(5) 0.8180(6) 0.1013(5)
H73_4 H 0.7435 0.8354 0.1259
H74_4 H 0.7282 0.8457 0.0805
C80_4 C 0.8033(4) 0.7904(6) 0.0891(5)
H75_4 H 0.8057 0.8143 0.0667
H76_4 H 0.8140 0.8093 0.1135
C81_4 C 0.8284(4) 0.7381(6) 0.0850(4)
H77_4 H 0.8566 0.7471 0.0859
H78_4 H 0.8194 0.7200 0.0598
C82_4 C 0.8388(4) 0.6490(6) 0.1099(5)
H79_4 H 0.8676 0.6509 0.1092
H80_4 H 0.8262 0.6349 0.0843
C83_4 C 0.8302(5) 0.6123(6) 0.1429(5)
H81_4 H 0.8422 0.6292 0.1677
H82_4 H 0.8451 0.5790 0.1401
C84_4 C 0.7898(5) 0.5961(7) 0.1490(6)
H83_4 H 0.7912 0.5691 0.1702
H84_4 H 0.7762 0.5799 0.1246
C85_4 C 0.7277(6) 0.6223(8) 0.1703(6)
H85_4 H 0.7304 0.6072 0.1972
H86_4 H 0.7147 0.5958 0.1515
C86_4 C 0.7054(5) 0.6744(7) 0.1679(5)
H87_4 H 0.7158 0.6958 0.1913
H88_4 H 0.6776 0.6661 0.1703
H277_4 H 0.690641 0.686416 0.111147
H278_4 H 0.748277 0.765201 0.062256
H279_4 H 0.784423 0.651708 0.185505
H280_4 H 0.839343 0.72014 0.141701
O23_3 O 0.2131(4) 0.9193(5) 0.0754(3)
O24_2 O 0.2483(2) 0.8490(4) 0.0642(2)
C62_3 C 0.2250(4) 0.9729(5) 0.0037(4)
H46_3 H 0.2105 0.9922 0.0206
C63_3 C 0.2389(4) 0.9172(6) 0.0135(4)
C66_3 C 0.2319(4) 0.8933(7) 0.0507(5)
Ni5_2 Ni 0.25993(5) 0.80278(7) 0.11764(5)
Ni1_2 Ni 0.25993(5) 0.69722(7) 0.61764(5)
O14_3 O 0.30095(18) 0.9284(3) 0.8064(2)
O16_3 O 0.2639(2) 0.9974(3) 0.9106(2)
O19_3 O 0.3320(3) 0.7310(4) 0.6956(2)
O20_3 O 0.2727(2) 0.7520(3) 0.6660(2)
C34_3 C 0.2725(3) 0.9999(4) 0.8414(3)
C36_3 C 0.2688(3) 0.9680(4) 0.8044(3)
H27_3 H 0.2431 0.9495 0.8006
H28_3 H 0.2700 0.9920 0.7817
C38_3 C 0.2732(3) 0.9632(4) 0.8777(3)
H31_3 H 0.2533 0.9345 0.8724
H32_3 H 0.2994 0.9466 0.8843
C46_3 C 0.3011(3) 0.8889(4) 0.7777(3)
C47_3 C 0.3324(3) 0.8570(5) 0.7801(3)
H37_3 H 0.3541 0.8638 0.7997
C48_3 C 0.3342(3) 0.8131(4) 0.7541(3)
H38_3 H 0.3560 0.7894 0.7581
C49_3 C 0.3023(3) 0.8036(5) 0.7206(3)
C50_3 C 0.2714(3) 0.8395(4) 0.7184(3)
H39_3 H 0.2504 0.8358 0.6976
C51_3 C 0.2696(3) 0.8835(4) 0.7468(3)
H40_3 H 0.2480 0.9074 0.7444
C52_3 C 0.3021(4) 0.7594(5) 0.6930(3)
H44_3 H 0.1518 0.9752 0.8867
C60_3 C 0.2569(4) 0.9682(5) 0.9447(4)
C61_3 C 0.2342(4) 0.9956(6) 0.9685(4)
C64_3 C 0.2626(4) 0.8916(4) 0.9899(3)
H47_3 H 0.2740 0.8582 0.9978
C65_3 C 0.2700(3) 0.9149(6) 0.9535(4)
H48_3 H 0.2834 0.8953 0.9356
N9_3 N 0.2862(3) 0.7543(5) 0.5847(3)
N10_3 N 0.3117(3) 0.6560(4) 0.6319(3)
N11_3 N 0.2350(3) 0.6389(5) 0.6510(3)
N12_3 N 0.2060(3) 0.7387(5) 0.6013(3)
C87_3 C 0.3144(4) 0.7345(6) 0.5590(4)
H89_3 H 0.3262 0.7648 0.5462
H90_3 H 0.3008 0.7111 0.5382
C88_3 C 0.3457(4) 0.7040(6) 0.5843(4)
H91_3 H 0.3677 0.6986 0.5687
H92_3 H 0.3557 0.7274 0.6066
C89_3 C 0.3370(4) 0.6522(6) 0.6007(4)
H93_3 H 0.3620 0.6348 0.6114
H94_3 H 0.3239 0.6294 0.5793
C90_3 C 0.3016(4) 0.6051(6) 0.6508(4)
H95_3 H 0.2918 0.5789 0.6302
H96_3 H 0.3256 0.5901 0.6662
C91_3 C 0.2716(4) 0.6136(7) 0.6767(4)
H97_3 H 0.2817 0.6379 0.6984
H98_3 H 0.2644 0.5794 0.6880
C92_3 C 0.2058(5) 0.6593(7) 0.6766(5)
H99_3 H 0.2191 0.6837 0.6968
H100_3 H 0.1948 0.6291 0.6901
C93_3 C 0.1728(5) 0.6888(7) 0.6513(5)
H101_3 H 0.1618 0.6638 0.6304
H102_3 H 0.1518 0.6951 0.6680
C94_3 C 0.1793(5) 0.7392(6) 0.6322(5)
H103_3 H 0.1900 0.7649 0.6527
H104_3 H 0.1534 0.7530 0.6202
C95_3 C 0.2188(4) 0.7922(6) 0.5828(4)
H105_3 H 0.1965 0.8066 0.5645
H106_3 H 0.2259 0.8188 0.6038
C96_3 C 0.2527(5) 0.7834(7) 0.5614(5)
H107_3 H 0.2624 0.8184 0.5533
H108_3 H 0.2438 0.7629 0.5372
O27_2 O 0.2483(2) 0.6510(4) 0.5642(2)
H281_3 H 0.30101 0.781205 0.604259
H282_3 H 0.327731 0.677907 0.6541
H283_3 H 0.221522 0.610079 0.632201
H284_3 H 0.191196 0.717244 0.578114
Ni6_2 Ni 0.00235(4) 0.29429(7) 0.36312(4)
Ni2_4 Ni 0.51439(5) 0.22929(8) 0.35677(5)
O2_4 O 0.81297(19) 0.0641(3) 0.32337(18)
O3_4 O 0.7346(2) 0.0611(3) 0.3881(2)
O7_4 O 0.9283(2) 0.2577(3) 0.2867(2)
O8_2 O 0.9517(2) 0.2403(3) 0.3497(2)
O9_4 O 0.5695(2) 0.1859(4) 0.3717(2)
O10_4 O 0.5828(3) 0.1831(5) 0.4367(2)
O13_4 O 0.3102(2) 0.4284(3) 0.31410(19)
O14_4 O 0.30095(18) 0.5716(3) 0.3064(2)
O15_4 O 0.20240(19) 0.4921(3) 0.3424(2)
O16_4 O 0.2639(2) 0.5026(3) 0.4106(2)
O17_4 O 0.4608(2) 0.2711(3) 0.3418(2)
O18_4 O 0.4377(3) 0.2522(4) 0.2790(3)
O19_4 O 0.3320(3) 0.7690(4) 0.1956(2)
O20_4 O 0.2727(2) 0.7480(3) 0.1660(2)
O21_4 O 0.0564(3) 0.3389(3) 0.3721(3)
O22_4 O 0.0432(3) 0.4156(5) 0.4047(4)
O23_4 O 0.2131(4) 0.5807(5) 0.5754(3)
C3_4 C 0.8119(3) 0.0311(4) 0.3586(3)
H3_4 H 0.8346 0.0065 0.3618
H4_4 H 0.8138 0.0543 0.3822
C4_4 C 0.7382(3) 0.0350(4) 0.3509(3)
H5_4 H 0.7145 0.0133 0.3425
H6_4 H 0.7404 0.0623 0.3304
C13_4 C 0.8415(3) 0.1038(4) 0.3246(3)
C14_4 C 0.8414(3) 0.1355(5) 0.2904(3)
H13_4 H 0.8222 0.1296 0.2682
C15_4 C 0.8712(3) 0.1776(5) 0.2895(3)
H14_4 H 0.8713 0.1988 0.2666
C16_4 C 0.8986(3) 0.1864(4) 0.3213(3)
C17_4 C 0.8977(3) 0.1568(4) 0.3542(3)
H15_4 H 0.9161 0.1650 0.3767
C18_4 C 0.8713(3) 0.1151(4) 0.3570(3)
H16_4 H 0.8731 0.0943 0.3803
C19_4 C 0.9275(3) 0.2322(5) 0.3185(4)
C20_4 C 0.6996(3) 0.0903(5) 0.3880(3)
C21_4 C 0.6752(3) 0.1056(5) 0.3561(4)
H17_4 H 0.6809 0.0962 0.3307
C22_4 C 0.6414(3) 0.1354(5) 0.3602(3)
H18_4 H 0.6253 0.1479 0.3374
C23_4 C 0.6308(4) 0.1468(5) 0.3962(4)
C24_4 C 0.6552(4) 0.1227(7) 0.4318(4)
H19_4 H 0.6476 0.1251 0.4574
C25_4 C 0.6891(3) 0.0967(5) 0.4247(4)
H20_4 H 0.7060 0.0827 0.4464
C26_4 C 0.5918(4) 0.1750(6) 0.4025(4)
C34_4 C 0.2725(3) 0.5001(4) 0.3414(3)
C35_4 C 0.3114(3) 0.4655(4) 0.3469(3)
H25_4 H 0.3135 0.4455 0.3719
H26_4 H 0.3347 0.4890 0.3477
C36_4 C 0.2688(3) 0.5320(4) 0.3044(3)
H27_4 H 0.2431 0.5505 0.3006
H28_4 H 0.2700 0.5080 0.2817
C37_4 C 0.2354(2) 0.4616(4) 0.3360(3)
H29_4 H 0.2393 0.4319 0.3551
H30_4 H 0.2316 0.4464 0.3092
C38_4 C 0.2732(3) 0.5368(4) 0.3777(3)
H31_4 H 0.2533 0.5655 0.3724
H32_4 H 0.2994 0.5534 0.3843
C39_4 C 0.3415(3) 0.3939(4) 0.3152(3)
C40_4 C 0.3723(3) 0.3890(4) 0.3457(3)
H33_4 H 0.3730 0.4117 0.3679
C41_4 C 0.4022(3) 0.3514(4) 0.3447(3)
H34_4 H 0.4224 0.3492 0.3664
C42_4 C 0.4035(3) 0.3174(4) 0.3132(4)
C43_4 C 0.3709(3) 0.3220(4) 0.2802(3)
H35_4 H 0.3709 0.3007 0.2574
C44_4 C 0.3411(3) 0.3574(4) 0.2829(3)
H36_4 H 0.3192 0.3579 0.2628
C45_4 C 0.4359(3) 0.2775(5) 0.3096(4)
C46_4 C 0.3011(3) 0.6111(4) 0.2777(3)
C47_4 C 0.3324(3) 0.6430(5) 0.2801(3)
H37_4 H 0.3541 0.6362 0.2997
C48_4 C 0.3342(3) 0.6869(4) 0.2541(3)
H38_4 H 0.3560 0.7106 0.2581
C49_4 C 0.3023(3) 0.6964(5) 0.2206(3)
C50_4 C 0.2714(3) 0.6605(4) 0.2184(3)
H39_4 H 0.2504 0.6642 0.1976
C51_4 C 0.2696(3) 0.6165(4) 0.2468(3)
H40_4 H 0.2480 0.5926 0.2444
C52_4 C 0.3021(4) 0.7406(5) 0.1930(3)
C53_4 C 0.1709(4) 0.4649(5) 0.3541(4)
C54_4 C 0.1596(3) 0.4133(5) 0.3426(4)
H41_4 H 0.1759 0.3942 0.3272
C55_4 C 0.1245(3) 0.3864(5) 0.3525(3)
H42_4 H 0.1179 0.3513 0.3437
C56_4 C 0.1016(3) 0.4143(5) 0.3751(3)
C57_4 C 0.1127(4) 0.4660(6) 0.3856(4)
H43_4 H 0.0959 0.4860 0.3999
C58_4 C 0.1456(4) 0.4900(6) 0.3770(4)
H44_4 H 0.1518 0.5248 0.3867
C59_4 C 0.0628(4) 0.3805(8) 0.3856(4)
C60_4 C 0.2569(4) 0.5318(5) 0.4447(4)
C61_4 C 0.2342(4) 0.5044(6) 0.4685(4)
H45_4 H 0.2247 0.4698 0.4611
C62_4 C 0.2250(4) 0.5271(5) 0.5037(4)
H46_4 H 0.2105 0.5078 0.5206
C63_4 C 0.2389(4) 0.5828(6) 0.5135(4)
C64_4 C 0.2626(4) 0.6084(4) 0.4899(3)
H47_4 H 0.2740 0.6418 0.4978
C65_4 C 0.2700(3) 0.5851(6) 0.4535(4)
H48_4 H 0.2834 0.6047 0.4356
C66_4 C 0.2319(4) 0.6067(7) 0.5507(5)
N1_4 N 0.5417(4) 0.3035(5) 0.3400(4)
N2_4 N 0.5075(5) 0.2504(6) 0.4175(4)
N3_4 N 0.4899(4) 0.1589(5) 0.3704(4)
N4_4 N 0.5182(5) 0.2104(6) 0.2979(4)
C67_4 C 0.5505(4) 0.3312(8) 0.3749(4)
H49_4 H 0.5772 0.3193 0.3860
H50_4 H 0.5533 0.3689 0.3672
C68_4 C 0.5280(5) 0.3328(6) 0.4084(5)
H51_4 H 0.5014 0.3434 0.3960
H52_4 H 0.5388 0.3648 0.4230
C69_4 C 0.5197(9) 0.2970(8) 0.4397(6)
H53_4 H 0.4984 0.3110 0.4537
H54_4 H 0.5434 0.2902 0.4588
C70_4 C 0.4809(5) 0.2048(8) 0.4318(5)
H55_4 H 0.4971 0.1833 0.4521
H56_4 H 0.4594 0.2213 0.4441
C71_4 C 0.4624(6) 0.1665(9) 0.3977(6)
H57_4 H 0.4378 0.1823 0.3840
H58_4 H 0.4558 0.1317 0.4088
C72_4 C 0.4714(7) 0.1241(11) 0.3365(6)
H59_4 H 0.4460 0.1394 0.3246
H60_4 H 0.4666 0.0877 0.3460
C73_4 C 0.4994(6) 0.1219(8) 0.3068(7)
H61_4 H 0.4853 0.0999 0.2854
H62_4 H 0.5209 0.0989 0.3194
C74_4 C 0.5196(8) 0.1609(8) 0.2861(7)
H63_4 H 0.5085 0.1596 0.2579
H64_4 H 0.5476 0.1503 0.2880
C75_4 C 0.5513(5) 0.2460(10) 0.2782(6)
H65_4 H 0.5397 0.2619 0.2529
H66_4 H 0.5743 0.2240 0.2740
C76_4 C 0.5627(6) 0.2894(9) 0.3094(6)
H67_4 H 0.5656 0.3227 0.2946
H68_4 H 0.5895 0.2799 0.3221
N9_4 N 0.2862(3) 0.7457(5) 0.0847(3)
N10_4 N 0.3117(3) 0.8440(4) 0.1319(3)
N11_4 N 0.2350(3) 0.8611(5) 0.1510(3)
N12_4 N 0.2060(3) 0.7613(5) 0.1013(3)
C87_4 C 0.3144(4) 0.7655(6) 0.0590(4)
H89_4 H 0.3262 0.7352 0.0462
H90_4 H 0.3008 0.7889 0.0382
C88_4 C 0.3457(4) 0.7960(6) 0.0843(4)
H91_4 H 0.3677 0.8014 0.0687
H92_4 H 0.3557 0.7726 0.1066
C89_4 C 0.3370(4) 0.8478(6) 0.1007(4)
H93_4 H 0.3620 0.8652 0.1114
H94_4 H 0.3239 0.8706 0.0793
C90_4 C 0.3016(4) 0.8949(6) 0.1508(4)
H95_4 H 0.2918 0.9211 0.1302
H96_4 H 0.3256 0.9099 0.1662
C91_4 C 0.2716(4) 0.8864(7) 0.1767(4)
H97_4 H 0.2817 0.8621 0.1984
H98_4 H 0.2644 0.9206 0.1880
C92_4 C 0.2058(5) 0.8407(7) 0.1766(5)
H99_4 H 0.2191 0.8163 0.1968
H100_4 H 0.1948 0.8709 0.1901
C93_4 C 0.1728(5) 0.8112(7) 0.1513(5)
H101_4 H 0.1618 0.8362 0.1304
H102_4 H 0.1518 0.8049 0.1680
C94_4 C 0.1793(5) 0.7608(6) 0.1322(5)
H103_4 H 0.1900 0.7351 0.1527
H104_4 H 0.1534 0.7470 0.1202
C95_4 C 0.2188(4) 0.7078(6) 0.0828(4)
H105_4 H 0.1965 0.6934 0.0645
H106_4 H 0.2259 0.6812 0.1038
C96_4 C 0.2527(5) 0.7166(7) 0.0614(5)
H107_4 H 0.2624 0.6816 0.0533
H108_4 H 0.2438 0.7371 0.0372
N13_4 N 0.0121(3) 0.2636(5) 0.4200(3)
N16_4 N 0.0359(3) 0.2276(4) 0.3470(3)
C102_4 C 0.0278(3) 0.3228(5) 0.2837(3)
H119_4 H 0.0483 0.3477 0.2958
H120_4 H 0.0199 0.3343 0.2562
C103_4 C 0.0451(3) 0.2674(5) 0.2836(3)
H121_4 H 0.0643 0.2678 0.2646
H122_4 H 0.0235 0.2433 0.2727
C104_4 C 0.0643(3) 0.2423(5) 0.3187(4)
H123_4 H 0.0779 0.2096 0.3114
H124_4 H 0.0845 0.2668 0.3319
C105_4 C 0.0557(4) 0.2041(6) 0.3867(4)
H125_4 H 0.0799 0.2243 0.3962
H126_4 H 0.0630 0.1663 0.3832
C106_4 C 0.0271(4) 0.2080(5) 0.4154(4)
H127_4 H 0.0045 0.1843 0.4069
H128_4 H 0.0398 0.1952 0.4413
H273_4 H 0.518011 0.324538 0.32567
H274_4 H 0.533064 0.230341 0.428379
H275_4 H 0.512696 0.136601 0.385112
H276_4 H 0.49168 0.224015 0.283276
H281_4 H 0.30101 0.718795 0.104259
H282_4 H 0.327731 0.822093 0.1541
H283_4 H 0.221522 0.889921 0.132201
H284_4 H 0.191196 0.782756 0.0781143
H285_4 H 0.0357283 0.284831 0.434252
H287_4 H 0.0164602 0.199454 0.333565
N14_4 N 0.9683(3) 0.3593(4) 0.3799(3)
N15_4 N 0.9924(3) 0.3262(4) 0.3058(3)
C97_4 C 0.9810(4) 0.2674(6) 0.4454(4)
H109_4 H 0.9596 0.2421 0.4360
H110_4 H 0.9919 0.2569 0.4725
C98_4 C 0.9638(4) 0.3236(6) 0.4463(4)
H111_4 H 0.9856 0.3483 0.4556
H112_4 H 0.9454 0.3240 0.4661
C99_4 C 0.9428(4) 0.3452(5) 0.4093(3)
H113_4 H 0.9281 0.3774 0.4154
H114_4 H 0.9234 0.3185 0.3978
C100_4 C 0.9505(4) 0.3809(6) 0.3409(4)
H115_4 H 0.9402 0.4170 0.3451
H116_4 H 0.9277 0.3581 0.3309
C101_4 C 0.9761(4) 0.3844(5) 0.3106(4)
H117_4 H 0.9612 0.3969 0.2856
H118_4 H 0.9980 0.4095 0.3186
H286_4 H 0.987959 0.387715 0.392575
H288_4 H 0.969981 0.30421 0.290151
O29 O 0.00928(19) 0.0633(3) 0.3612(2)
O34 O 0.0642(2) 0.1589(4) 0.2001(3)
H130 H 0.0034 0.0626 0.4422
H140 H 0.0003 0.1024 0.4989
C119 C 0.0115(3) 0.0877(4) 0.3222(3)
C122 C 0.0225(3) 0.1256(5) 0.2486(4)
C123 C 0.0568(4) 0.1036(6) 0.2751(4)
H143 H 0.0823 0.1030 0.2672
C124 C 0.0506(3) 0.0841(5) 0.3114(3)
H144 H 0.0715 0.0688 0.3287
C125 C 0.0278(4) 0.1513(6) 0.2079(3)
N19 N 0.0411(3) 0.2671(5) 0.6332(3)
C176 C 0.0106(4) 0.2003(7) 0.6732(4)
H183 H 0.0067 0.1621 0.6788
H184 H 0.0218 0.2178 0.6981
C177 C 0.0399(4) 0.2053(6) 0.6435(4)
H185 H 0.0310 0.1842 0.6196
H186 H 0.0663 0.1926 0.6550
C178 C 0.0624(4) 0.2739(6) 0.5970(4)
H187 H 0.0895 0.2598 0.6026
H188 H 0.0484 0.2538 0.5746
C179 C 0.0634(4) 0.3304(7) 0.5872(5)
H189 H 0.0822 0.3347 0.5679
H190 H 0.0746 0.3497 0.6112
C180 C 0.0236(5) 0.3597(8) 0.5698(5)
H191 H 0.0296 0.3959 0.5608
H192 H 0.0106 0.3396 0.5469
H256 H 0.0088231 0.389421 0.622802
H259 H 0.0578046 0.286033 0.65654
Ni10 Ni 0.23977(5) 0.78546(8) 0.38701(5)
O30 O 0.0175(2) 0.9452(3) 0.3695(2)
O36 O 0.1877(2) 0.8365(4) 0.3749(2)
O37 O 0.1742(3) 0.8494(5) 0.3105(3)
C110 C 0.0149(3) 0.9711(4) 0.4070(3)
H133 H 0.0379 0.9948 0.4140
H134 H 0.0148 0.9440 0.4279
C126 C 0.0536(3) 0.9250(5) 0.3661(3)
C127 C 0.0626(3) 0.9245(6) 0.3270(4)
H145 H 0.0449 0.9383 0.3058
C128 C 0.0960(5) 0.9044(7) 0.3216(4)
H146 H 0.1017 0.9055 0.2953
C129 C 0.1263(4) 0.8801(6) 0.3500(4)
C130 C 0.1140(3) 0.8773(5) 0.3883(4)
H147 H 0.1302 0.8596 0.4088
C131 C 0.0786(3) 0.9002(5) 0.3959(4)
H148 H 0.0716 0.8988 0.4217
C132 C 0.1657(4) 0.8520(6) 0.3455(5)
N25 N 0.2794(3) 0.8516(5) 0.3885(3)
N26 N 0.2337(3) 0.7941(4) 0.4471(3)
N27 N 0.2014(3) 0.7241(5) 0.3826(3)
N28 N 0.2458(4) 0.7844(5) 0.3267(3)
C193 C 0.2683(5) 0.8944(6) 0.4126(4)
H217 H 0.2425 0.9083 0.4004
H218 H 0.2878 0.9236 0.4120
C194 C 0.2652(5) 0.8811(6) 0.4560(4)
H219 H 0.2893 0.8619 0.4673
H220 H 0.2642 0.9150 0.4707
C195 C 0.2309(4) 0.8488(5) 0.4621(4)
H221 H 0.2068 0.8659 0.4486
H222 H 0.2287 0.8473 0.4905
C196 C 0.1978(4) 0.7557(6) 0.4508(4)
H223 H 0.2001 0.7416 0.4779
H224 H 0.1730 0.7764 0.4459
C197 C 0.1956(5) 0.7078(7) 0.4211(5)
H225 H 0.2160 0.6812 0.4308
H226 H 0.1696 0.6903 0.4200
C198 C 0.2040(5) 0.6763(7) 0.3552(5)
H227 H 0.2252 0.6517 0.3664
H228 H 0.1788 0.6565 0.3514
C199 C 0.2131(5) 0.6988(6) 0.3159(4)
H229 H 0.2166 0.6673 0.2994
H230 H 0.1885 0.7162 0.3039
C200 C 0.2453(5) 0.7363(7) 0.3091(5)
H231 H 0.2708 0.7185 0.3180
H232 H 0.2439 0.7421 0.2805
C201 C 0.2846(4) 0.8192(7) 0.3222(5)
H233 H 0.3089 0.7991 0.3315
H234 H 0.2851 0.8302 0.2946
C202 C 0.2802(6) 0.8670(7) 0.3481(5)
H235 H 0.3023 0.8918 0.3467
H236 H 0.2554 0.8859 0.3384
O54 O 0.2877(2) 0.7295(4) 0.3982(2)
H264 H 0.307258 0.838648 0.400028
H265 H 0.258315 0.776861 0.462976
H266 H 0.222088 0.805483 0.312462
H267 H 0.174859 0.741766 0.371702
Ni9 Ni 0.75591(5) 0.70502(7) 0.40305(5)
Ni11 Ni 0.47843(5) 0.28618(7) 0.12520(5)
O31 O 0.9395(2) 0.9387(3) 0.4370(2)
O38 O 0.8299(2) 0.7451(3) 0.4817(3)
O39 O 0.8031(2) 0.7606(3) 0.4182(2)
O40 O 0.5484(2) 0.5111(3) 0.3897(2)
O41 O 0.44847(19) 0.4339(3) 0.43038(19)
O42 O 0.44060(19) 0.5763(3) 0.42085(18)
O43 O 0.4823(2) 0.4950(3) 0.3242(2)
O44 O 0.7039(2) 0.6597(3) 0.3885(3)
O45 O 0.7181(3) 0.5876(5) 0.3521(4)
O46 O 0.5353(3) 0.4024(4) 0.1621(3)
O47 O 0.4913(2) 0.3354(4) 0.1758(2)
O48 O 0.4051(2) 0.2513(3) 0.5503(2)
O49 O 0.4661(2) 0.2758(3) 0.5813(2)
O51 O 0.3143(2) 0.7525(4) 0.4601(2)
C111 C 0.9393(3) 0.9680(4) 0.3996(3)
H135 H 0.9150 0.9895 0.3941
H136 H 0.9401 0.9425 0.3777
C133 C 0.9105(3) 0.8982(4) 0.4375(3)
C134 C 0.9104(3) 0.8705(5) 0.4727(4)
H149 H 0.9285 0.8809 0.4947
C135 C 0.8855(3) 0.8294(4) 0.4767(3)
H150 H 0.8865 0.8109 0.5009
C136 C 0.8577(3) 0.8145(5) 0.4433(4)
C137 C 0.8562(3) 0.8451(4) 0.4096(3)
H151 H 0.8359 0.8384 0.3885
C138 C 0.8835(3) 0.8859(4) 0.4054(3)
H152 H 0.8833 0.9043 0.3813
C139 C 0.8284(3) 0.7702(6) 0.4479(5)
C140 C 0.4766(3) 0.5060(5) 0.3932(3)
C141 C 0.5140(3) 0.5432(4) 0.3948(3)
H153 H 0.5096 0.5703 0.3737
H154 H 0.5184 0.5620 0.4203
C142 C 0.4743(3) 0.4650(4) 0.3576(3)
H155 H 0.4940 0.4363 0.3635
H156 H 0.4478 0.4487 0.3525
C143 C 0.4809(3) 0.4703(4) 0.4309(3)
H157 H 0.5058 0.4499 0.4327
H158 H 0.4822 0.4934 0.4545
C144 C 0.4391(2) 0.5386(4) 0.3878(3)
H159 H 0.4368 0.5583 0.3627
H160 H 0.4159 0.5149 0.3874
C145 C 0.5831(3) 0.5421(5) 0.3855(3)
C146 C 0.5923(4) 0.5924(4) 0.3997(4)
H161 H 0.5747 0.6122 0.4131
C147 C 0.6279(3) 0.6127(5) 0.3936(4)
H162 H 0.6339 0.6476 0.4033
C148 C 0.6554(4) 0.5884(6) 0.3753(4)
C149 C 0.6472(4) 0.5354(6) 0.3612(4)
H163 H 0.6670 0.5166 0.3500
C150 C 0.6106(3) 0.5097(6) 0.3634(4)
H164 H 0.6040 0.4758 0.3521
C151 C 0.6952(4) 0.6169(6) 0.3746(4)
C152 C 0.4869(4) 0.4622(5) 0.2902(4)
C153 C 0.5189(5) 0.4837(8) 0.2670(5)
H165 H 0.5352 0.5130 0.2760
C154 C 0.5224(4) 0.4580(8) 0.2326(5)
H166 H 0.5381 0.4736 0.2148
C155 C 0.5034(4) 0.4083(6) 0.2224(4)
C156 C 0.4788(4) 0.3890(5) 0.2461(3)
H167 H 0.4678 0.3547 0.2405
C157 C 0.4685(4) 0.4159(4) 0.2782(3)
H168 H 0.4484 0.4021 0.2919
C158 C 0.5081(5) 0.3767(8) 0.1827(4)
C159 C 0.4479(3) 0.3982(4) 0.4620(3)
C160 C 0.4138(3) 0.3667(5) 0.4596(3)
H169 H 0.3932 0.3712 0.4385
C161 C 0.4105(3) 0.3281(4) 0.4891(3)
H170 H 0.3877 0.3063 0.4873
C162 C 0.4401(3) 0.3216(4) 0.5205(3)
C163 C 0.4742(3) 0.3544(4) 0.5235(3)
H171 H 0.4944 0.3514 0.5451
C164 C 0.4770(3) 0.3912(4) 0.4933(3)
H172 H 0.5001 0.4124 0.4945
C165 C 0.4385(3) 0.2807(5) 0.5547(3)
C166 C 0.4087(3) 0.6091(5) 0.4203(3)
C167 C 0.4090(3) 0.6427(4) 0.4552(3)
H173 H 0.4302 0.6401 0.4759
C168 C 0.3781(3) 0.6788(5) 0.4584(3)
H174 H 0.3778 0.6989 0.4818
C169 C 0.3471(3) 0.6852(4) 0.4264(3)
C170 C 0.3471(3) 0.6518(4) 0.3931(3)
H175 H 0.3264 0.6556 0.3720
C171 C 0.3764(3) 0.6131(4) 0.3896(3)
H176 H 0.3745 0.5902 0.3675
C172 C 0.3136(3) 0.7242(5) 0.4292(3)
N21 N 0.7193(3) 0.7702(4) 0.4194(3)
N22 N 0.7624(4) 0.6709(5) 0.4617(3)
N23 N 0.7928(3) 0.6461(5) 0.3861(4)
N24 N 0.7465(3) 0.7396(5) 0.3488(3)
C183 C 0.6923(5) 0.7560(7) 0.4460(5)
H197 H 0.6707 0.7352 0.4313
H198 H 0.6807 0.7892 0.4549
C184 C 0.7087(5) 0.7239(7) 0.4825(5)
H199 H 0.7296 0.7460 0.4973
H200 H 0.6873 0.7209 0.4990
C185 C 0.7255(5) 0.6691(7) 0.4798(5)
H201 H 0.7310 0.6535 0.5064
H202 H 0.7061 0.6461 0.4638
C186 C 0.7848(6) 0.6190(7) 0.4511(5)
H203 H 0.7991 0.6042 0.4757
H204 H 0.7651 0.5922 0.4403
C187 C 0.8150(6) 0.6267(9) 0.4209(6)
H205 H 0.8357 0.6526 0.4311
H206 H 0.8277 0.5924 0.4159
C188 C 0.8218(5) 0.6603(7) 0.3563(5)
H207 H 0.8440 0.6819 0.3692
H208 H 0.8324 0.6275 0.3457
C189 C 0.7979(5) 0.6919(8) 0.3237(5)
H209 H 0.8164 0.6997 0.3046
H210 H 0.7785 0.6663 0.3104
C190 C 0.7756(5) 0.7421(7) 0.3271(5)
H211 H 0.7944 0.7699 0.3383
H212 H 0.7646 0.7538 0.3003
C191 C 0.7251(5) 0.7965(6) 0.3503(5)
H213 H 0.7443 0.8255 0.3576
H214 H 0.7091 0.8052 0.3249
C192 C 0.7002(5) 0.7866(7) 0.3816(4)
H215 H 0.6853 0.8197 0.3852
H216 H 0.6807 0.7588 0.3720
N29 N 0.4664(4) 0.3449(5) 0.0828(3)
N30 N 0.4189(3) 0.2865(5) 0.1378(3)
N31 N 0.4849(4) 0.2240(5) 0.1674(3)
N32 N 0.5352(4) 0.2872(6) 0.1125(4)
C203 C 0.4409(5) 0.3894(7) 0.0910(6)
H237 H 0.4332 0.4092 0.0663
H238 H 0.4565 0.4140 0.1095
C204 C 0.4048(5) 0.3751(7) 0.1076(5)
H239 H 0.3810 0.3904 0.0953
C205 C 0.4016(5) 0.3397(6) 0.1410(5)
H240 H 0.3734 0.3354 0.1438
H241 H 0.4146 0.3570 0.1652
C206 C 0.4164(4) 0.2541(6) 0.1737(4)
H242 H 0.4209 0.2779 0.1968
H243 H 0.3894 0.2398 0.1724
C207 C 0.4441(5) 0.2095(7) 0.1799(6)
H244 H 0.4331 0.1783 0.1646
H245 H 0.4477 0.1995 0.2081
C208 C 0.5161(5) 0.1855(7) 0.1652(6)
H246 H 0.5063 0.1579 0.1457
H247 H 0.5220 0.1677 0.1910
C209 C 0.5534(5) 0.2079(7) 0.1542(5)
H248 H 0.5637 0.2325 0.1757
H249 H 0.5721 0.1778 0.1553
C210 C 0.5565(5) 0.2353(6) 0.1188(5)
H250 H 0.5468 0.2113 0.0967
H251 H 0.5848 0.2419 0.1175
C211 C 0.5345(5) 0.3132(7) 0.0699(5)
H252 H 0.5605 0.3282 0.0665
H253 H 0.5268 0.2866 0.0490
C212 C 0.5050(5) 0.3550(7) 0.0692(6)
H254 H 0.4996 0.3678 0.0417
H255 H 0.5174 0.3850 0.0850
Ni14 Ni 0.47843(5) 0.21382(7) 0.62520(5)
O53 O 0.4661(2) 0.2242(3) 0.0813(2)
H260 H 0.737264 0.800776 0.431564
H261 H 0.782311 0.694321 0.479503
H262 H 0.775127 0.615161 0.374064
H263 H 0.725622 0.715507 0.332832
H268 H 0.409251 0.409726 0.127899
H269 H 0.496929 0.245319 0.191936
H270 H 0.450317 0.325254 0.0594185
H271 H 0.402064 0.267238 0.114705
H272 H 0.550301 0.313832 0.132077
O48_2 O 0.4051(2) 0.2487(3) 0.0503(2)
C162_2 C 0.4401(3) 0.1784(4) 0.0205(3)
C163_2 C 0.4742(3) 0.1456(4) 0.0235(3)
H171_2 H 0.4944 0.1486 0.0451
C165_2 C 0.4385(3) 0.2193(5) 0.0547(3)
O41_2 O 0.44847(19) 0.0661(3) 0.93038(19)
O43_2 O 0.4823(2) 0.0050(3) 0.8242(2)
O46_2 O 0.5353(3) 0.0976(4) 0.6621(3)
O47_2 O 0.4913(2) 0.1646(4) 0.6758(2)
C142_2 C 0.4743(3) 0.0350(4) 0.8576(3)
H155_2 H 0.4940 0.0637 0.8635
H156_2 H 0.4478 0.0513 0.8525
C143_2 C 0.4809(3) 0.0297(4) 0.9309(3)
H157_2 H 0.5058 0.0501 0.9327
H158_2 H 0.4822 0.0066 0.9545
H164_2 H 0.6040 0.0242 0.8521
C152_2 C 0.4869(4) 0.0378(5) 0.7902(4)
C153_2 C 0.5189(5) 0.0163(8) 0.7670(5)
C154_2 C 0.5224(4) 0.0420(8) 0.7326(5)
H166_2 H 0.5381 0.0264 0.7148
C155_2 C 0.5034(4) 0.0917(6) 0.7224(4)
C156_2 C 0.4788(4) 0.1110(5) 0.7461(3)
H167_2 H 0.4678 0.1453 0.7405
C157_2 C 0.4685(4) 0.0841(4) 0.7782(3)
H168_2 H 0.4484 0.0979 0.7919
C158_2 C 0.5081(5) 0.1233(8) 0.6827(4)
C159_2 C 0.4479(3) 0.1018(4) 0.9620(3)
C160_2 C 0.4138(3) 0.1333(5) 0.9596(3)
H169_2 H 0.3932 0.1288 0.9385
C161_2 C 0.4105(3) 0.1719(4) 0.9891(3)
H170_2 H 0.3877 0.1937 0.9873
C164_2 C 0.4770(3) 0.1088(4) 0.9933(3)
H172_2 H 0.5001 0.0876 0.9945
N29_2 N 0.4664(4) 0.1551(5) 0.5828(3)
N30_2 N 0.4189(3) 0.2135(5) 0.6378(3)
N31_2 N 0.4849(4) 0.2760(5) 0.6674(3)
N32_2 N 0.5352(4) 0.2128(6) 0.6125(4)
C203_2 C 0.4409(5) 0.1106(7) 0.5910(6)
H237_2 H 0.4332 0.0908 0.5663
H238_2 H 0.4565 0.0860 0.6095
C204_2 C 0.4048(5) 0.1249(7) 0.6076(5)
H239_2 H 0.3810 0.1096 0.5953
C205_2 C 0.4016(5) 0.1603(6) 0.6410(5)
H240_2 H 0.3734 0.1646 0.6438
H241_2 H 0.4146 0.1430 0.6652
C206_2 C 0.4164(4) 0.2459(6) 0.6737(4)
H242_2 H 0.4209 0.2221 0.6968
H243_2 H 0.3894 0.2602 0.6724
C207_2 C 0.4441(5) 0.2905(7) 0.6799(6)
H244_2 H 0.4331 0.3217 0.6646
H245_2 H 0.4477 0.3005 0.7081
C208_2 C 0.5161(5) 0.3145(7) 0.6652(6)
H246_2 H 0.5063 0.3421 0.6457
H247_2 H 0.5220 0.3323 0.6910
C209_2 C 0.5534(5) 0.2921(7) 0.6542(5)
H248_2 H 0.5637 0.2675 0.6757
H249_2 H 0.5721 0.3222 0.6553
C210_2 C 0.5565(5) 0.2647(6) 0.6188(5)
H250_2 H 0.5468 0.2887 0.5967
H251_2 H 0.5848 0.2581 0.6175
C211_2 C 0.5345(5) 0.1868(7) 0.5699(5)
H252_2 H 0.5605 0.1718 0.5665
H253_2 H 0.5268 0.2134 0.5490
C212_2 C 0.5050(5) 0.1450(7) 0.5692(6)
H254_2 H 0.4996 0.1322 0.5417
H255_2 H 0.5174 0.1150 0.5850
H268_2 H 0.409251 0.0902738 0.627899
H269_2 H 0.496929 0.254681 0.691936
H270_2 H 0.450317 0.174746 0.559418
H271_2 H 0.402064 0.232762 0.614705
H272_2 H 0.550301 0.186168 0.632077
Ni8 Ni 0.98466(5) 0.29509(8) 0.63018(5)
O28 O 0.94327(19) 0.0711(3) 0.44084(19)
O32 O 0.9695(2) 0.2498(3) 0.5794(2)
O33 O 0.9043(3) 0.2629(4) 0.5547(2)
O35 O 0.9977(2) 0.1639(4) 0.1861(2)
C107 C 0.9756(3) 0.0047(4) 0.4031(3)
C108 C 0.9803(3) 0.0388(4) 0.4413(3)
H129 H 0.9841 0.0154 0.4648
C109 C 0.9725(3) 0.0387(4) 0.3653(3)
H131 H 0.9642 0.0157 0.3422
H132 H 0.9521 0.0665 0.3661
C112 C 0.9442(3) 0.1114(4) 0.4697(3)
C113 C 0.9095(3) 0.1415(4) 0.4692(3)
H137 H 0.8881 0.1352 0.4492
C114 C 0.9059(3) 0.1799(5) 0.4969(3)
H138 H 0.8817 0.1981 0.4973
C115 C 0.9384(3) 0.1917(4) 0.5247(3)
C116 C 0.9723(3) 0.1628(4) 0.5254(3)
H139 H 0.9937 0.1704 0.5451
C117 C 0.9765(3) 0.1220(4) 0.4981(3)
C118 C 0.9381(4) 0.2409(5) 0.5557(4)
C120 C 0.9808(3) 0.1063(5) 0.2973(3)
H141 H 0.9550 0.1049 0.3044
C121 C 0.9865(3) 0.1267(5) 0.2628(3)
H142 H 0.9648 0.1429 0.2470
N17 N 0.9266(3) 0.3245(4) 0.6273(3)
N18 N 0.9719(3) 0.2251(5) 0.6586(3)
N20 N 0.9954(4) 0.3637(5) 0.6015(3)
C173 C 0.9053(4) 0.3191(7) 0.6628(4)
H177 H 0.8773 0.3294 0.6563
H178 H 0.9177 0.3420 0.6845
C174 C 0.9094(4) 0.2547(7) 0.6753(4)
H179 H 0.8908 0.2486 0.6946
H180 H 0.8991 0.2342 0.6515
C175 C 0.9453(4) 0.2298(6) 0.6910(4)
H181 H 0.9400 0.1939 0.7011
H182 H 0.9587 0.2512 0.7131
C181 C 0.9550(5) 0.3885(6) 0.5867(5)
H193 H 0.9439 0.3709 0.5619
H194 H 0.9585 0.4268 0.5812
C182 C 0.9243(4) 0.3820(6) 0.6192(4)
H195 H 0.9329 0.4031 0.6431
H196 H 0.8973 0.3928 0.6081
Ni12 Ni 0.98466(5) 0.20491(8) 0.13018(5)
O52 O 0.9977(2) 0.3361(4) 0.6861(2)
H257 H 0.909761 0.305381 0.604137
H258 H 0.957812 0.199856 0.637335
Ni10_2 Ni 0.23977(5) 0.71454(8) 0.88701(5)
O29_2 O 0.00928(19) 0.4367(3) 0.8612(2)
O30_2 O 0.0175(2) 0.5548(3) 0.8695(2)
O34_2 O 0.0642(2) 0.3411(4) 0.7001(3)
O36_2 O 0.1877(2) 0.6635(4) 0.8749(2)
O37_2 O 0.1742(3) 0.6506(5) 0.8105(3)
H130_2 H 0.0034 0.4374 0.9422
C110_2 C 0.0149(3) 0.5289(4) 0.9070(3)
H133_2 H 0.0379 0.5052 0.9140
H134_2 H 0.0148 0.5560 0.9279
H140_2 H 0.0003 0.3976 0.9989
C119_2 C 0.0115(3) 0.4123(4) 0.8222(3)
C122_2 C 0.0225(3) 0.3744(5) 0.7486(4)
C123_2 C 0.0568(4) 0.3964(6) 0.7751(4)
H143_2 H 0.0823 0.3970 0.7672
C124_2 C 0.0506(3) 0.4159(5) 0.8114(3)
H144_2 H 0.0715 0.4312 0.8287
C125_2 C 0.0278(4) 0.3487(6) 0.7079(3)
C126_2 C 0.0536(3) 0.5750(5) 0.8661(3)
C127_2 C 0.0626(3) 0.5755(6) 0.8270(4)
H145_2 H 0.0449 0.5617 0.8058
C128_2 C 0.0960(5) 0.5956(7) 0.8216(4)
H146_2 H 0.1017 0.5945 0.7953
C129_2 C 0.1263(4) 0.6199(6) 0.8500(4)
C130_2 C 0.1140(3) 0.6227(5) 0.8883(4)
H147_2 H 0.1302 0.6404 0.9088
C131_2 C 0.0786(3) 0.5998(5) 0.8959(4)
H148_2 H 0.0716 0.6012 0.9217
C132_2 C 0.1657(4) 0.6480(6) 0.8455(5)
N25_2 N 0.2794(3) 0.6484(5) 0.8885(3)
N26_2 N 0.2337(3) 0.7059(4) 0.9471(3)
N27_2 N 0.2014(3) 0.7759(5) 0.8826(3)
N28_2 N 0.2458(4) 0.7156(5) 0.8267(3)
C193_2 C 0.2683(5) 0.6056(6) 0.9126(4)
H217_2 H 0.2425 0.5917 0.9004
H218_2 H 0.2878 0.5764 0.9120
C194_2 C 0.2652(5) 0.6189(6) 0.9560(4)
H219_2 H 0.2893 0.6381 0.9673
H220_2 H 0.2642 0.5850 0.9707
C195_2 C 0.2309(4) 0.6512(5) 0.9621(4)
H221_2 H 0.2068 0.6341 0.9486
H222_2 H 0.2287 0.6527 0.9905
C196_2 C 0.1978(4) 0.7443(6) 0.9508(4)
H223_2 H 0.2001 0.7584 0.9779
H224_2 H 0.1730 0.7236 0.9459
C197_2 C 0.1956(5) 0.7922(7) 0.9211(5)
H225_2 H 0.2160 0.8188 0.9308
H226_2 H 0.1696 0.8097 0.9200
C198_2 C 0.2040(5) 0.8237(7) 0.8552(5)
H227_2 H 0.2252 0.8483 0.8664
H228_2 H 0.1788 0.8435 0.8514
C199_2 C 0.2131(5) 0.8012(6) 0.8159(4)
H229_2 H 0.2166 0.8327 0.7994
H230_2 H 0.1885 0.7838 0.8039
C200_2 C 0.2453(5) 0.7637(7) 0.8091(5)
H231_2 H 0.2708 0.7815 0.8180
H232_2 H 0.2439 0.7579 0.7805
C201_2 C 0.2846(4) 0.6808(7) 0.8222(5)
H233_2 H 0.3089 0.7009 0.8315
H234_2 H 0.2851 0.6698 0.7946
C202_2 C 0.2802(6) 0.6330(7) 0.8481(5)
H235_2 H 0.3023 0.6082 0.8467
H236_2 H 0.2554 0.6141 0.8384
O54_2 O 0.2877(2) 0.7705(4) 0.8982(2)
H264_2 H 0.307258 0.661352 0.900028
H265_2 H 0.258315 0.723139 0.962976
H266_2 H 0.222088 0.694517 0.812462
H267_2 H 0.174859 0.758234 0.871702
O32_2 O 0.9695(2) 0.2502(3) 0.0794(2)
O33_2 O 0.9043(3) 0.2371(4) 0.0547(2)
C115_2 C 0.9384(3) 0.3083(4) 0.0247(3)
C116_2 C 0.9723(3) 0.3372(4) 0.0254(3)
H139_2 H 0.9937 0.3296 0.0451
C118_2 C 0.9381(4) 0.2591(5) 0.0557(4)
H150_2 H 0.8865 0.6891 0.0009
N17_2 N 0.9266(3) 0.1755(4) 0.1273(3)
N18_2 N 0.9719(3) 0.2749(5) 0.1586(3)
N20_2 N 0.9954(4) 0.1363(5) 0.1015(3)
C173_2 C 0.9053(4) 0.1809(7) 0.1628(4)
H177_2 H 0.8773 0.1706 0.1563
H178_2 H 0.9177 0.1580 0.1845
C174_2 C 0.9094(4) 0.2453(7) 0.1753(4)
H179_2 H 0.8908 0.2514 0.1946
H180_2 H 0.8991 0.2658 0.1515
C175_2 C 0.9453(4) 0.2702(6) 0.1910(4)
H181_2 H 0.9400 0.3061 0.2011
H182_2 H 0.9587 0.2488 0.2131
C181_2 C 0.9550(5) 0.1115(6) 0.0867(5)
H193_2 H 0.9439 0.1291 0.0619
H194_2 H 0.9585 0.0732 0.0812
C182_2 C 0.9243(4) 0.1180(6) 0.1192(4)
H195_2 H 0.9329 0.0969 0.1431
H196_2 H 0.8973 0.1072 0.1081
H201_2 H 0.7310 0.8465 0.0064
H257_2 H 0.909761 0.194619 0.104137
H258_2 H 0.957812 0.300144 0.137335
Ni9_2 Ni 0.75591(5) 0.79498(7) 0.90305(5)
O28_2 O 0.94327(19) 0.4289(3) 0.94084(19)
O31_2 O 0.9395(2) 0.5613(3) 0.9370(2)
O38_2 O 0.8299(2) 0.7549(3) 0.9817(3)
O39_2 O 0.8031(2) 0.7394(3) 0.9182(2)
O40_2 O 0.5484(2) 0.9889(3) 0.8897(2)
O42_2 O 0.44060(19) 0.9237(3) 0.92085(18)
O44_2 O 0.7039(2) 0.8403(3) 0.8885(3)
O45_2 O 0.7181(3) 0.9124(5) 0.8521(4)
O51_2 O 0.3143(2) 0.7475(4) 0.9601(2)
C107_2 C 0.9756(3) 0.4953(4) 0.9031(3)
C108_2 C 0.9803(3) 0.4612(4) 0.9413(3)
H129_2 H 0.9841 0.4846 0.9648
C109_2 C 0.9725(3) 0.4613(4) 0.8653(3)
H131_2 H 0.9642 0.4843 0.8422
H132_2 H 0.9521 0.4335 0.8661
C111_2 C 0.9393(3) 0.5320(4) 0.8996(3)
H135_2 H 0.9150 0.5105 0.8941
H136_2 H 0.9401 0.5575 0.8777
C112_2 C 0.9442(3) 0.3886(4) 0.9697(3)
C113_2 C 0.9095(3) 0.3585(4) 0.9692(3)
H137_2 H 0.8881 0.3648 0.9492
C114_2 C 0.9059(3) 0.3201(5) 0.9969(3)
H138_2 H 0.8817 0.3019 0.9973
C117_2 C 0.9765(3) 0.3780(4) 0.9981(3)
C120_2 C 0.9808(3) 0.3937(5) 0.7973(3)
H141_2 H 0.9550 0.3951 0.8044
C121_2 C 0.9865(3) 0.3733(5) 0.7628(3)
H142_2 H 0.9648 0.3571 0.7470
C133_2 C 0.9105(3) 0.6018(4) 0.9375(3)
C134_2 C 0.9104(3) 0.6295(5) 0.9727(4)
H149_2 H 0.9285 0.6191 0.9947
C135_2 C 0.8855(3) 0.6706(4) 0.9767(3)
C136_2 C 0.8577(3) 0.6855(5) 0.9433(4)
C137_2 C 0.8562(3) 0.6549(4) 0.9096(3)
H151_2 H 0.8359 0.6616 0.8885
C138_2 C 0.8835(3) 0.6141(4) 0.9054(3)
H152_2 H 0.8833 0.5957 0.8813
C139_2 C 0.8284(3) 0.7298(6) 0.9479(5)
C140_2 C 0.4766(3) 0.9940(5) 0.8932(3)
C141_2 C 0.5140(3) 0.9568(4) 0.8948(3)
H153_2 H 0.5096 0.9297 0.8737
H154_2 H 0.5184 0.9380 0.9203
C144_2 C 0.4391(2) 0.9614(4) 0.8878(3)
H159_2 H 0.4368 0.9417 0.8627
H160_2 H 0.4159 0.9851 0.8874
C145_2 C 0.5831(3) 0.9579(5) 0.8855(3)
C146_2 C 0.5923(4) 0.9076(4) 0.8997(4)
H161_2 H 0.5747 0.8878 0.9131
C147_2 C 0.6279(3) 0.8873(5) 0.8936(4)
H162_2 H 0.6339 0.8524 0.9033
C148_2 C 0.6554(4) 0.9116(6) 0.8753(4)
C149_2 C 0.6472(4) 0.9646(6) 0.8612(4)
H163_2 H 0.6670 0.9834 0.8500
C150_2 C 0.6106(3) 0.9903(6) 0.8634(4)
C151_2 C 0.6952(4) 0.8831(6) 0.8746(4)
H165_2 H 0.5352 0.9870 0.7760
C166_2 C 0.4087(3) 0.8909(5) 0.9203(3)
C167_2 C 0.4090(3) 0.8573(4) 0.9552(3)
H173_2 H 0.4302 0.8599 0.9759
C168_2 C 0.3781(3) 0.8212(5) 0.9584(3)
H174_2 H 0.3778 0.8011 0.9818
C169_2 C 0.3471(3) 0.8148(4) 0.9264(3)
C170_2 C 0.3471(3) 0.8482(4) 0.8931(3)
H175_2 H 0.3264 0.8444 0.8720
C171_2 C 0.3764(3) 0.8869(4) 0.8896(3)
H176_2 H 0.3745 0.9098 0.8675
C172_2 C 0.3136(3) 0.7758(5) 0.9292(3)
N21_2 N 0.7193(3) 0.7298(4) 0.9194(3)
N22_2 N 0.7624(4) 0.8291(5) 0.9617(3)
N23_2 N 0.7928(3) 0.8539(5) 0.8861(4)
N24_2 N 0.7465(3) 0.7604(5) 0.8488(3)
C183_2 C 0.6923(5) 0.7440(7) 0.9460(5)
H197_2 H 0.6707 0.7648 0.9313
H198_2 H 0.6807 0.7108 0.9549
C184_2 C 0.7087(5) 0.7761(7) 0.9825(5)
H199_2 H 0.7296 0.7540 0.9973
H200_2 H 0.6873 0.7791 0.9990
C185_2 C 0.7255(5) 0.8309(7) 0.9798(5)
H202_2 H 0.7061 0.8539 0.9638
C186_2 C 0.7848(6) 0.8810(7) 0.9511(5)
H203_2 H 0.7991 0.8958 0.9757
H204_2 H 0.7651 0.9078 0.9403
C187_2 C 0.8150(6) 0.8733(9) 0.9209(6)
H205_2 H 0.8357 0.8474 0.9311
H206_2 H 0.8277 0.9076 0.9159
C188_2 C 0.8218(5) 0.8397(7) 0.8563(5)
H207_2 H 0.8440 0.8181 0.8692
H208_2 H 0.8324 0.8725 0.8457
C189_2 C 0.7979(5) 0.8081(8) 0.8237(5)
H209_2 H 0.8164 0.8003 0.8046
H210_2 H 0.7785 0.8337 0.8104
C190_2 C 0.7756(5) 0.7579(7) 0.8271(5)
H211_2 H 0.7944 0.7301 0.8383
H212_2 H 0.7646 0.7462 0.8003
C191_2 C 0.7251(5) 0.7035(6) 0.8503(5)
H213_2 H 0.7443 0.6745 0.8576
H214_2 H 0.7091 0.6948 0.8249
C192_2 C 0.7002(5) 0.7134(7) 0.8816(4)
H215_2 H 0.6853 0.6803 0.8852
H216_2 H 0.6807 0.7412 0.8720
H260_2 H 0.737264 0.699224 0.931564
H261_2 H 0.782311 0.805679 0.979503
H262_2 H 0.775127 0.884839 0.874064
H263_2 H 0.725622 0.784493 0.832832
Ni9_3 Ni 0.24409(5) 0.20502(7) 0.09695(5)
O28_3 O 0.05673(19) 0.5711(3) 0.05916(19)
O31_3 O 0.0605(2) 0.4387(3) 0.0630(2)
O35_2 O 0.0023(2) 0.6639(4) 0.3139(2)
O38_3 O 0.1701(2) 0.2451(3) 0.0183(3)
O39_3 O 0.1969(2) 0.2606(3) 0.0818(2)
O40_3 O 0.4516(2) 0.0111(3) 0.1103(2)
O42_3 O 0.55940(19) 0.0763(3) 0.07915(18)
O44_3 O 0.2961(2) 0.1597(3) 0.1115(3)
O45_3 O 0.2819(3) 0.0876(5) 0.1479(4)
O50 O 0.7123(2) 0.2295(4) 0.1018(2)
O51_3 O 0.6857(2) 0.2525(4) 0.0399(2)
C107_3 C 0.0244(3) 0.5047(4) 0.0969(3)
C108_3 C 0.0197(3) 0.5388(4) 0.0587(3)
H129_3 H 0.0159 0.5154 0.0352
C109_3 C 0.0275(3) 0.5387(4) 0.1347(3)
H131_3 H 0.0358 0.5157 0.1578
H132_3 H 0.0479 0.5665 0.1339
C111_3 C 0.0607(3) 0.4680(4) 0.1004(3)
H135_3 H 0.0850 0.4895 0.1059
H136_3 H 0.0599 0.4425 0.1223
C112_3 C 0.0558(3) 0.6114(4) 0.0303(3)
C113_3 C 0.0905(3) 0.6415(4) 0.0308(3)
H137_3 H 0.1119 0.6352 0.0508
C114_3 C 0.0941(3) 0.6799(5) 0.0031(3)
H138_3 H 0.1183 0.6981 0.0027
C117_3 C 0.0235(3) 0.6220(4) 0.0019(3)
C120_3 C 0.0192(3) 0.6063(5) 0.2027(3)
H141_3 H 0.0450 0.6049 0.1956
C121_3 C 0.0135(3) 0.6267(5) 0.2372(3)
H142_3 H 0.0352 0.6429 0.2530
C133_3 C 0.0895(3) 0.3982(4) 0.0625(3)
C134_3 C 0.0896(3) 0.3705(5) 0.0273(4)
H149_3 H 0.0715 0.3809 0.0053
C135_3 C 0.1145(3) 0.3294(4) 0.0233(3)
C136_3 C 0.1423(3) 0.3145(5) 0.0567(4)
C137_3 C 0.1438(3) 0.3451(4) 0.0904(3)
H151_3 H 0.1641 0.3384 0.1115
C138_3 C 0.1165(3) 0.3859(4) 0.0946(3)
H152_3 H 0.1167 0.4043 0.1187
C139_3 C 0.1716(3) 0.2702(6) 0.0521(5)
C140_3 C 0.5234(3) 0.0060(5) 0.1068(3)
C141_3 C 0.4860(3) 0.0432(4) 0.1052(3)
H153_3 H 0.4904 0.0703 0.1263
H154_3 H 0.4816 0.0620 0.0797
C144_3 C 0.5609(2) 0.0386(4) 0.1122(3)
H159_3 H 0.5632 0.0583 0.1373
H160_3 H 0.5841 0.0149 0.1126
C145_3 C 0.4169(3) 0.0421(5) 0.1145(3)
C146_3 C 0.4077(4) 0.0924(4) 0.1003(4)
H161_3 H 0.4253 0.1122 0.0869
C147_3 C 0.3721(3) 0.1127(5) 0.1064(4)
H162_3 H 0.3661 0.1476 0.0967
C148_3 C 0.3446(4) 0.0884(6) 0.1247(4)
C149_3 C 0.3528(4) 0.0354(6) 0.1388(4)
H163_3 H 0.3330 0.0166 0.1500
C150_3 C 0.3894(3) 0.0097(6) 0.1366(4)
C151_3 C 0.3048(4) 0.1169(6) 0.1254(4)
H165_3 H 0.4648 0.0130 0.2240
C166_3 C 0.5913(3) 0.1091(5) 0.0797(3)
C167_3 C 0.5910(3) 0.1427(4) 0.0448(3)
H173_3 H 0.5698 0.1401 0.0241
C168_3 C 0.6219(3) 0.1788(5) 0.0416(3)
H174_3 H 0.6222 0.1989 0.0182
C169_3 C 0.6529(3) 0.1852(4) 0.0736(3)
C170_3 C 0.6529(3) 0.1518(4) 0.1069(3)
H175_3 H 0.6736 0.1556 0.1280
C171_3 C 0.6236(3) 0.1131(4) 0.1104(3)
H176_3 H 0.6255 0.0902 0.1325
C172_3 C 0.6864(3) 0.2242(5) 0.0708(3)
N21_3 N 0.2807(3) 0.2702(4) 0.0806(3)
N22_3 N 0.2376(4) 0.1709(5) 0.0383(3)
N23_3 N 0.2072(3) 0.1461(5) 0.1139(4)
N24_3 N 0.2535(3) 0.2396(5) 0.1512(3)
C183_3 C 0.3077(5) 0.2560(7) 0.0540(5)
H197_3 H 0.3293 0.2352 0.0687
H198_3 H 0.3193 0.2892 0.0451
C184_3 C 0.2913(5) 0.2239(7) 0.0175(5)
H199_3 H 0.2704 0.2460 0.0027
H200_3 H 0.3127 0.2209 0.0010
C185_3 C 0.2745(5) 0.1691(7) 0.0202(5)
H202_3 H 0.2939 0.1461 0.0362
C186_3 C 0.2152(6) 0.1190(7) 0.0489(5)
H203_3 H 0.2009 0.1042 0.0243
H204_3 H 0.2349 0.0922 0.0597
C187_3 C 0.1850(6) 0.1267(9) 0.0791(6)
H205_3 H 0.1643 0.1526 0.0689
H206_3 H 0.1723 0.0924 0.0841
C188_3 C 0.1782(5) 0.1603(7) 0.1437(5)
H207_3 H 0.1560 0.1819 0.1308
H208_3 H 0.1676 0.1275 0.1543
C189_3 C 0.2021(5) 0.1919(8) 0.1763(5)
H209_3 H 0.1836 0.1997 0.1954
H210_3 H 0.2215 0.1663 0.1896
C190_3 C 0.2244(5) 0.2421(7) 0.1729(5)
H211_3 H 0.2056 0.2699 0.1617
H212_3 H 0.2354 0.2538 0.1997
C191_3 C 0.2749(5) 0.2965(6) 0.1497(5)
H213_3 H 0.2557 0.3255 0.1424
H214_3 H 0.2909 0.3052 0.1751
C192_3 C 0.2998(5) 0.2866(7) 0.1184(4)
H215_3 H 0.3147 0.3197 0.1148
H216_3 H 0.3193 0.2588 0.1280
Ni12_2 Ni 0.01534(5) 0.70491(8) 0.36982(5)
Ni13 Ni 0.76023(5) 0.28546(8) 0.11299(5)
H260_3 H 0.262736 0.300776 0.0684356
H261_3 H 0.217689 0.194321 0.020497
H262_3 H 0.224873 0.115161 0.125936
H263_3 H 0.274378 0.215507 0.167168
Ni8_2 Ni 0.01534(5) 0.79509(8) 0.86982(5)
O32_3 O 0.0305(2) 0.7498(3) 0.9206(2)
O33_3 O 0.0957(3) 0.7629(4) 0.9453(2)
C115_3 C 0.0616(3) 0.6917(4) 0.9753(3)
C116_3 C 0.0277(3) 0.6628(4) 0.9746(3)
H139_3 H 0.0063 0.6704 0.9549
C118_3 C 0.0619(4) 0.7409(5) 0.9443(4)
H150_3 H 0.1135 0.3109 0.9991
N17_3 N 0.0734(3) 0.8245(4) 0.8727(3)
N18_3 N 0.0281(3) 0.7251(5) 0.8414(3)
N20_3 N 0.0046(4) 0.8637(5) 0.8985(3)
C173_3 C 0.0947(4) 0.8191(7) 0.8372(4)
H177_3 H 0.1227 0.8294 0.8437
H178_3 H 0.0823 0.8420 0.8155
C174_3 C 0.0906(4) 0.7547(7) 0.8247(4)
H179_3 H 0.1092 0.7486 0.8054
H180_3 H 0.1009 0.7342 0.8485
C175_3 C 0.0547(4) 0.7298(6) 0.8090(4)
H181_3 H 0.0600 0.6939 0.7989
H182_3 H 0.0413 0.7512 0.7869
C181_3 C 0.0450(5) 0.8885(6) 0.9133(5)
H193_3 H 0.0561 0.8709 0.9381
H194_3 H 0.0415 0.9268 0.9188
C182_3 C 0.0757(4) 0.8820(6) 0.8808(4)
H195_3 H 0.0671 0.9031 0.8569
H196_3 H 0.1027 0.8928 0.8919
H201_3 H 0.2690 0.1535 0.9936
O52_2 O 0.0023(2) 0.8361(4) 0.8139(2)
H257_3 H 0.0902393 0.805381 0.895863
H258_3 H 0.0421875 0.699856 0.862665
O29_3 O 0.99072(19) 0.5633(3) 0.1388(2)
O30_3 O 0.9825(2) 0.4452(3) 0.1305(2)
O34_3 O 0.9358(2) 0.6589(4) 0.2999(3)
O36_3 O 0.8123(2) 0.3365(4) 0.1251(2)
O37_3 O 0.8258(3) 0.3494(5) 0.1895(3)
H130_3 H 0.9966 0.5626 0.0578
C110_3 C 0.9851(3) 0.4711(4) 0.0930(3)
H133_3 H 0.9621 0.4948 0.0860
H134_3 H 0.9852 0.4440 0.0721
H140_3 H 0.9997 0.6024 0.0011
C119_3 C 0.9885(3) 0.5877(4) 0.1778(3)
C122_3 C 0.9775(3) 0.6256(5) 0.2514(4)
C123_3 C 0.9432(4) 0.6036(6) 0.2249(4)
H143_3 H 0.9177 0.6030 0.2328
C124_3 C 0.9494(3) 0.5841(5) 0.1886(3)
H144_3 H 0.9285 0.5688 0.1713
C125_3 C 0.9722(4) 0.6513(6) 0.2921(3)
C126_3 C 0.9464(3) 0.4250(5) 0.1339(3)
C127_3 C 0.9374(3) 0.4245(6) 0.1730(4)
H145_3 H 0.9551 0.4383 0.1942
C128_3 C 0.9040(5) 0.4044(7) 0.1784(4)
H146_3 H 0.8983 0.4055 0.2047
C129_3 C 0.8737(4) 0.3801(6) 0.1500(4)
C130_3 C 0.8860(3) 0.3773(5) 0.1117(4)
H147_3 H 0.8698 0.3596 0.0912
C131_3 C 0.9214(3) 0.4002(5) 0.1041(4)
H148_3 H 0.9284 0.3988 0.0783
C132_3 C 0.8343(4) 0.3520(6) 0.1545(5)
N25_3 N 0.7206(3) 0.3516(5) 0.1115(3)
N26_3 N 0.7663(3) 0.2941(4) 0.0529(3)
N27_3 N 0.7986(3) 0.2241(5) 0.1174(3)
N28_3 N 0.7542(4) 0.2844(5) 0.1733(3)
C193_3 C 0.7317(5) 0.3944(6) 0.0874(4)
H217_3 H 0.7575 0.4083 0.0996
H218_3 H 0.7122 0.4236 0.0880
C194_3 C 0.7348(5) 0.3811(6) 0.0440(4)
H219_3 H 0.7107 0.3619 0.0327
H220_3 H 0.7358 0.4150 0.0293
C195_3 C 0.7691(4) 0.3488(5) 0.0379(4)
H221_3 H 0.7932 0.3659 0.0514
H222_3 H 0.7713 0.3473 0.0095
C196_3 C 0.8022(4) 0.2557(6) 0.0492(4)
H223_3 H 0.7999 0.2416 0.0221
H224_3 H 0.8270 0.2764 0.0541
C197_3 C 0.8044(5) 0.2078(7) 0.0789(5)
H225_3 H 0.7840 0.1812 0.0692
H226_3 H 0.8304 0.1903 0.0800
C198_3 C 0.7960(5) 0.1763(7) 0.1448(5)
H227_3 H 0.7748 0.1517 0.1336
H228_3 H 0.8212 0.1565 0.1486
C199_3 C 0.7869(5) 0.1988(6) 0.1841(4)
H229_3 H 0.7834 0.1673 0.2006
H230_3 H 0.8115 0.2162 0.1961
C200_3 C 0.7547(5) 0.2363(7) 0.1909(5)
H231_3 H 0.7292 0.2185 0.1820
H232_3 H 0.7561 0.2421 0.2195
C201_3 C 0.7154(4) 0.3192(7) 0.1778(5)
H233_3 H 0.6911 0.2991 0.1685
H234_3 H 0.7149 0.3302 0.2054
C202_3 C 0.7198(6) 0.3670(7) 0.1519(5)
H235_3 H 0.6977 0.3918 0.1533
H236_3 H 0.7446 0.3859 0.1616
H264_3 H 0.692742 0.338648 0.0999718
H265_3 H 0.741685 0.276861 0.0370238
H266_3 H 0.777912 0.305483 0.187538
H267_3 H 0.825141 0.241766 0.128298
O28_4 O 0.05673(19) 0.9289(3) 0.55916(19)
O32_4 O 0.0305(2) 0.7502(3) 0.4206(2)
O33_4 O 0.0957(3) 0.7371(4) 0.4453(2)
C107_4 C 0.0244(3) 0.9953(4) 0.5969(3)
C108_4 C 0.0197(3) 0.9612(4) 0.5587(3)
H129_4 H 0.0159 0.9846 0.5352
C109_4 C 0.0275(3) 0.9613(4) 0.6347(3)
H131_4 H 0.0358 0.9843 0.6578
H132_4 H 0.0479 0.9335 0.6339
C112_4 C 0.0558(3) 0.8886(4) 0.5303(3)
C113_4 C 0.0905(3) 0.8585(4) 0.5308(3)
H137_4 H 0.1119 0.8648 0.5508
C114_4 C 0.0941(3) 0.8201(5) 0.5031(3)
H138_4 H 0.1183 0.8019 0.5027
C115_4 C 0.0616(3) 0.8083(4) 0.4753(3)
C116_4 C 0.0277(3) 0.8372(4) 0.4746(3)
H139_4 H 0.0063 0.8296 0.4549
C117_4 C 0.0235(3) 0.8780(4) 0.5019(3)
C118_4 C 0.0619(4) 0.7591(5) 0.4443(4)
C120_4 C 0.0192(3) 0.8937(5) 0.7027(3)
H141_4 H 0.0450 0.8951 0.6956
C121_4 C 0.0135(3) 0.8733(5) 0.7372(3)
H142_4 H 0.0352 0.8571 0.7530
N17_4 N 0.0734(3) 0.6755(4) 0.3727(3)
N18_4 N 0.0281(3) 0.7749(5) 0.3414(3)
N20_4 N 0.0046(4) 0.6363(5) 0.3985(3)
C173_4 C 0.0947(4) 0.6809(7) 0.3372(4)
H177_4 H 0.1227 0.6706 0.3437
H178_4 H 0.0823 0.6580 0.3155
C174_4 C 0.0906(4) 0.7453(7) 0.3247(4)
H179_4 H 0.1092 0.7514 0.3054
H180_4 H 0.1009 0.7658 0.3485
C175_4 C 0.0547(4) 0.7702(6) 0.3090(4)
H181_4 H 0.0600 0.8061 0.2989
H182_4 H 0.0413 0.7488 0.2869
C181_4 C 0.0450(5) 0.6115(6) 0.4133(5)
H193_4 H 0.0561 0.6291 0.4381
H194_4 H 0.0415 0.5732 0.4188
C182_4 C 0.0757(4) 0.6180(6) 0.3808(4)
H195_4 H 0.0671 0.5969 0.3569
H196_4 H 0.1027 0.6072 0.3919
H257_4 H 0.0902393 0.694619 0.395863
H258_4 H 0.0421875 0.800144 0.362665
Ni11_2 Ni 0.52157(5) 0.78618(7) 0.37480(5)
O41_3 O 0.55153(19) 0.9339(3) 0.06962(19)
O43_3 O 0.5177(2) 0.9950(3) 0.1758(2)
O46_3 O 0.4647(3) 0.9024(4) 0.3379(3)
O47_3 O 0.5087(2) 0.8354(4) 0.3242(2)
C142_3 C 0.5257(3) 0.9650(4) 0.1424(3)
H155_3 H 0.5060 0.9363 0.1365
H156_3 H 0.5522 0.9487 0.1475
C143_3 C 0.5191(3) 0.9703(4) 0.0691(3)
H157_3 H 0.4942 0.9499 0.0673
H158_3 H 0.5178 0.9934 0.0455
H164_3 H 0.3960 0.9758 0.1479
C152_3 C 0.5131(4) 0.9622(5) 0.2098(4)
C153_3 C 0.4811(5) 0.9837(8) 0.2330(5)
C154_3 C 0.4776(4) 0.9580(8) 0.2674(5)
H166_3 H 0.4619 0.9736 0.2852
C155_3 C 0.4966(4) 0.9083(6) 0.2776(4)
C156_3 C 0.5212(4) 0.8890(5) 0.2539(3)
H167_3 H 0.5322 0.8547 0.2595
C157_3 C 0.5315(4) 0.9159(4) 0.2218(3)
H168_3 H 0.5516 0.9021 0.2081
C158_3 C 0.4919(5) 0.8767(8) 0.3173(4)
C159_3 C 0.5521(3) 0.8982(4) 0.0380(3)
C160_3 C 0.5862(3) 0.8667(5) 0.0404(3)
H169_3 H 0.6068 0.8712 0.0615
C161_3 C 0.5895(3) 0.8281(4) 0.0109(3)
H170_3 H 0.6123 0.8063 0.0127
C164_3 C 0.5230(3) 0.8912(4) 0.0067(3)
H172_3 H 0.4999 0.9124 0.0055
N29_3 N 0.5336(4) 0.8449(5) 0.4172(3)
N30_3 N 0.5811(3) 0.7865(5) 0.3622(3)
N31_3 N 0.5151(4) 0.7240(5) 0.3326(3)
N32_3 N 0.4648(4) 0.7872(6) 0.3875(4)
C203_3 C 0.5591(5) 0.8894(7) 0.4090(6)
H237_3 H 0.5668 0.9092 0.4337
H238_3 H 0.5435 0.9140 0.3905
C204_3 C 0.5952(5) 0.8751(7) 0.3924(5)
H239_3 H 0.6190 0.8904 0.4047
C205_3 C 0.5984(5) 0.8397(6) 0.3590(5)
H240_3 H 0.6266 0.8354 0.3562
H241_3 H 0.5854 0.8570 0.3348
C206_3 C 0.5836(4) 0.7541(6) 0.3263(4)
H242_3 H 0.5791 0.7779 0.3032
H243_3 H 0.6106 0.7398 0.3276
C207_3 C 0.5559(5) 0.7095(7) 0.3201(6)
H244_3 H 0.5669 0.6783 0.3354
H245_3 H 0.5523 0.6995 0.2919
C208_3 C 0.4839(5) 0.6855(7) 0.3348(6)
H246_3 H 0.4937 0.6579 0.3543
H247_3 H 0.4780 0.6677 0.3090
C209_3 C 0.4466(5) 0.7079(7) 0.3458(5)
H248_3 H 0.4363 0.7325 0.3243
H249_3 H 0.4279 0.6778 0.3447
C210_3 C 0.4435(5) 0.7353(6) 0.3812(5)
H250_3 H 0.4532 0.7113 0.4033
H251_3 H 0.4152 0.7419 0.3825
C211_3 C 0.4655(5) 0.8132(7) 0.4301(5)
H252_3 H 0.4395 0.8282 0.4335
H253_3 H 0.4732 0.7866 0.4510
C212_3 C 0.4950(5) 0.8550(7) 0.4308(6)
H254_3 H 0.5004 0.8678 0.4583
H255_3 H 0.4826 0.8850 0.4150
O53_2 O 0.5339(2) 0.7242(3) 0.4187(2)
H268_3 H 0.590749 0.909726 0.372101
H269_3 H 0.503071 0.745319 0.308064
H270_3 H 0.549683 0.825254 0.440582
H271_3 H 0.597936 0.767238 0.385295
H272_3 H 0.449699 0.813832 0.367923
O48_3 O 0.5949(2) 0.7513(3) 0.9497(2)
O49_2 O 0.5339(2) 0.7758(3) 0.9187(2)
C162_3 C 0.5599(3) 0.8216(4) 0.9795(3)
C163_3 C 0.5258(3) 0.8544(4) 0.9765(3)
H171_3 H 0.5056 0.8514 0.9549
C165_3 C 0.5615(3) 0.7807(5) 0.9453(3)
Ni14_2 Ni 0.52157(5) 0.71382(7) 0.87480(5)
Ni9_4 Ni 0.24409(5) 0.29498(7) 0.59695(5)
O31_4 O 0.0605(2) 0.0613(3) 0.5630(2)
O38_4 O 0.1701(2) 0.2549(3) 0.5183(3)
O39_4 O 0.1969(2) 0.2394(3) 0.5818(2)
O40_4 O 0.4516(2) 0.4889(3) 0.6103(2)
O41_4 O 0.55153(19) 0.5661(3) 0.56962(19)
O42_4 O 0.55940(19) 0.4237(3) 0.57915(18)
O43_4 O 0.5177(2) 0.5050(3) 0.6758(2)
O44_4 O 0.2961(2) 0.3403(3) 0.6115(3)
O45_4 O 0.2819(3) 0.4124(5) 0.6479(4)
O46_4 O 0.4647(3) 0.5976(4) 0.8379(3)
O47_4 O 0.5087(2) 0.6646(4) 0.8242(2)
O48_4 O 0.5949(2) 0.7487(3) 0.4497(2)
O50_2 O 0.7123(2) 0.2705(4) 0.6018(2)
O51_4 O 0.6857(2) 0.2475(4) 0.5399(2)
C111_4 C 0.0607(3) 0.0320(4) 0.6004(3)
H135_4 H 0.0850 0.0105 0.6059
H136_4 H 0.0599 0.0575 0.6223
C133_4 C 0.0895(3) 0.1018(4) 0.5625(3)
C134_4 C 0.0896(3) 0.1295(5) 0.5273(4)
H149_4 H 0.0715 0.1191 0.5053
C135_4 C 0.1145(3) 0.1706(4) 0.5233(3)
H150_4 H 0.1135 0.1891 0.4991
C136_4 C 0.1423(3) 0.1855(5) 0.5567(4)
C137_4 C 0.1438(3) 0.1549(4) 0.5904(3)
H151_4 H 0.1641 0.1616 0.6115
C138_4 C 0.1165(3) 0.1141(4) 0.5946(3)
H152_4 H 0.1167 0.0957 0.6187
C139_4 C 0.1716(3) 0.2298(6) 0.5521(5)
C140_4 C 0.5234(3) 0.4940(5) 0.6068(3)
C141_4 C 0.4860(3) 0.4568(4) 0.6052(3)
H153_4 H 0.4904 0.4297 0.6263
H154_4 H 0.4816 0.4380 0.5797
C142_4 C 0.5257(3) 0.5350(4) 0.6424(3)
H155_4 H 0.5060 0.5637 0.6365
H156_4 H 0.5522 0.5513 0.6475
C143_4 C 0.5191(3) 0.5297(4) 0.5691(3)
H157_4 H 0.4942 0.5501 0.5673
H158_4 H 0.5178 0.5066 0.5455
C144_4 C 0.5609(2) 0.4614(4) 0.6122(3)
H159_4 H 0.5632 0.4417 0.6373
H160_4 H 0.5841 0.4851 0.6126
C145_4 C 0.4169(3) 0.4579(5) 0.6145(3)
C146_4 C 0.4077(4) 0.4076(4) 0.6003(4)
H161_4 H 0.4253 0.3878 0.5869
C147_4 C 0.3721(3) 0.3873(5) 0.6064(4)
H162_4 H 0.3661 0.3524 0.5967
C148_4 C 0.3446(4) 0.4116(6) 0.6247(4)
C149_4 C 0.3528(4) 0.4646(6) 0.6388(4)
H163_4 H 0.3330 0.4834 0.6500
C150_4 C 0.3894(3) 0.4903(6) 0.6366(4)
H164_4 H 0.3960 0.5242 0.6479
C151_4 C 0.3048(4) 0.3831(6) 0.6254(4)
C152_4 C 0.5131(4) 0.5378(5) 0.7098(4)
C153_4 C 0.4811(5) 0.5163(8) 0.7330(5)
H165_4 H 0.4648 0.4870 0.7240
C154_4 C 0.4776(4) 0.5420(8) 0.7674(5)
H166_4 H 0.4619 0.5264 0.7852
C155_4 C 0.4966(4) 0.5917(6) 0.7776(4)
C156_4 C 0.5212(4) 0.6110(5) 0.7539(3)
H167_4 H 0.5322 0.6453 0.7595
C157_4 C 0.5315(4) 0.5841(4) 0.7218(3)
H168_4 H 0.5516 0.5979 0.7081
C158_4 C 0.4919(5) 0.6233(8) 0.8173(4)
C159_4 C 0.5521(3) 0.6018(4) 0.5380(3)
C160_4 C 0.5862(3) 0.6333(5) 0.5404(3)
H169_4 H 0.6068 0.6288 0.5615
C161_4 C 0.5895(3) 0.6719(4) 0.5109(3)
H170_4 H 0.6123 0.6937 0.5127
C162_4 C 0.5599(3) 0.6784(4) 0.4795(3)
C163_4 C 0.5258(3) 0.6456(4) 0.4765(3)
H171_4 H 0.5056 0.6486 0.4549
C164_4 C 0.5230(3) 0.6088(4) 0.5067(3)
H172_4 H 0.4999 0.5876 0.5055
C165_4 C 0.5615(3) 0.7193(5) 0.4453(3)
C166_4 C 0.5913(3) 0.3909(5) 0.5797(3)
C167_4 C 0.5910(3) 0.3573(4) 0.5448(3)
H173_4 H 0.5698 0.3599 0.5241
C168_4 C 0.6219(3) 0.3212(5) 0.5416(3)
H174_4 H 0.6222 0.3011 0.5182
C169_4 C 0.6529(3) 0.3148(4) 0.5736(3)
C170_4 C 0.6529(3) 0.3482(4) 0.6069(3)
H175_4 H 0.6736 0.3444 0.6280
C171_4 C 0.6236(3) 0.3869(4) 0.6104(3)
H176_4 H 0.6255 0.4098 0.6325
C172_4 C 0.6864(3) 0.2758(5) 0.5708(3)
N21_4 N 0.2807(3) 0.2298(4) 0.5806(3)
N22_4 N 0.2376(4) 0.3291(5) 0.5383(3)
N23_4 N 0.2072(3) 0.3539(5) 0.6139(4)
N24_4 N 0.2535(3) 0.2604(5) 0.6512(3)
C183_4 C 0.3077(5) 0.2440(7) 0.5540(5)
H197_4 H 0.3293 0.2648 0.5687
H198_4 H 0.3193 0.2108 0.5451
C184_4 C 0.2913(5) 0.2761(7) 0.5175(5)
H199_4 H 0.2704 0.2540 0.5027
H200_4 H 0.3127 0.2791 0.5010
C185_4 C 0.2745(5) 0.3309(7) 0.5202(5)
H201_4 H 0.2690 0.3465 0.4936
H202_4 H 0.2939 0.3539 0.5362
C186_4 C 0.2152(6) 0.3810(7) 0.5489(5)
H203_4 H 0.2009 0.3958 0.5243
H204_4 H 0.2349 0.4078 0.5597
C187_4 C 0.1850(6) 0.3733(9) 0.5791(6)
H205_4 H 0.1643 0.3474 0.5689
H206_4 H 0.1723 0.4076 0.5841
C188_4 C 0.1782(5) 0.3397(7) 0.6437(5)
H207_4 H 0.1560 0.3181 0.6308
H208_4 H 0.1676 0.3725 0.6543
C189_4 C 0.2021(5) 0.3081(8) 0.6763(5)
H209_4 H 0.1836 0.3003 0.6954
H210_4 H 0.2215 0.3337 0.6896
C190_4 C 0.2244(5) 0.2579(7) 0.6729(5)
H211_4 H 0.2056 0.2301 0.6617
H212_4 H 0.2354 0.2462 0.6997
C191_4 C 0.2749(5) 0.2035(6) 0.6497(5)
H213_4 H 0.2557 0.1745 0.6424
H214_4 H 0.2909 0.1948 0.6751
C192_4 C 0.2998(5) 0.2134(7) 0.6184(4)
H215_4 H 0.3147 0.1803 0.6148
H216_4 H 0.3193 0.2412 0.6280
N29_4 N 0.5336(4) 0.6551(5) 0.9172(3)
N30_4 N 0.5811(3) 0.7135(5) 0.8622(3)
N31_4 N 0.5151(4) 0.7760(5) 0.8326(3)
N32_4 N 0.4648(4) 0.7128(6) 0.8875(4)
C203_4 C 0.5591(5) 0.6106(7) 0.9090(6)
H237_4 H 0.5668 0.5908 0.9337
H238_4 H 0.5435 0.5860 0.8905
C204_4 C 0.5952(5) 0.6249(7) 0.8924(5)
H239_4 H 0.6190 0.6096 0.9047
C205_4 C 0.5984(5) 0.6603(6) 0.8590(5)
H240_4 H 0.6266 0.6646 0.8562
H241_4 H 0.5854 0.6430 0.8348
C206_4 C 0.5836(4) 0.7459(6) 0.8263(4)
H242_4 H 0.5791 0.7221 0.8032
H243_4 H 0.6106 0.7602 0.8276
C207_4 C 0.5559(5) 0.7905(7) 0.8201(6)
H244_4 H 0.5669 0.8217 0.8354
H245_4 H 0.5523 0.8005 0.7919
C208_4 C 0.4839(5) 0.8145(7) 0.8348(6)
H246_4 H 0.4937 0.8421 0.8543
H247_4 H 0.4780 0.8323 0.8090
C209_4 C 0.4466(5) 0.7921(7) 0.8458(5)
H248_4 H 0.4363 0.7675 0.8243
H249_4 H 0.4279 0.8222 0.8447
C210_4 C 0.4435(5) 0.7647(6) 0.8812(5)
H250_4 H 0.4532 0.7887 0.9033
H251_4 H 0.4152 0.7581 0.8825
C211_4 C 0.4655(5) 0.6868(7) 0.9301(5)
H252_4 H 0.4395 0.6718 0.9335
H253_4 H 0.4732 0.7134 0.9510
C212_4 C 0.4950(5) 0.6450(7) 0.9308(6)
H254_4 H 0.5004 0.6322 0.9583
H255_4 H 0.4826 0.6150 0.9150
Ni13_2 Ni 0.76023(5) 0.21454(8) 0.61299(5)
H260_4 H 0.262736 0.199224 0.568436
H261_4 H 0.217689 0.305679 0.520497
H262_4 H 0.224873 0.384839 0.625936
H263_4 H 0.274378 0.284493 0.667168
H268_4 H 0.590749 0.590274 0.872101
H269_4 H 0.503071 0.754681 0.808064
H270_4 H 0.549683 0.674746 0.940582
H271_4 H 0.597936 0.732762 0.885295
H272_4 H 0.449699 0.686168 0.867923
O30_4 O 0.9825(2) 0.0548(3) 0.6305(2)
O36_4 O 0.8123(2) 0.1635(4) 0.6251(2)
O37_4 O 0.8258(3) 0.1506(5) 0.6895(3)
C110_4 C 0.9851(3) 0.0289(4) 0.5930(3)
H133_4 H 0.9621 0.0052 0.5860
H134_4 H 0.9852 0.0560 0.5721
C126_4 C 0.9464(3) 0.0750(5) 0.6339(3)
C127_4 C 0.9374(3) 0.0755(6) 0.6730(4)
H145_4 H 0.9551 0.0617 0.6942
C128_4 C 0.9040(5) 0.0956(7) 0.6784(4)
H146_4 H 0.8983 0.0945 0.7047
C129_4 C 0.8737(4) 0.1199(6) 0.6500(4)
C130_4 C 0.8860(3) 0.1227(5) 0.6117(4)
H147_4 H 0.8698 0.1404 0.5912
C131_4 C 0.9214(3) 0.0998(5) 0.6041(4)
H148_4 H 0.9284 0.1012 0.5783
C132_4 C 0.8343(4) 0.1480(6) 0.6545(5)
N25_4 N 0.7206(3) 0.1484(5) 0.6115(3)
N26_4 N 0.7663(3) 0.2059(4) 0.5529(3)
N27_4 N 0.7986(3) 0.2759(5) 0.6174(3)
N28_4 N 0.7542(4) 0.2156(5) 0.6733(3)
C193_4 C 0.7317(5) 0.1056(6) 0.5874(4)
H217_4 H 0.7575 0.0917 0.5996
H218_4 H 0.7122 0.0764 0.5880
C194_4 C 0.7348(5) 0.1189(6) 0.5440(4)
H219_4 H 0.7107 0.1381 0.5327
H220_4 H 0.7358 0.0850 0.5293
C195_4 C 0.7691(4) 0.1512(5) 0.5379(4)
H221_4 H 0.7932 0.1341 0.5514
H222_4 H 0.7713 0.1527 0.5095
C196_4 C 0.8022(4) 0.2443(6) 0.5492(4)
H223_4 H 0.7999 0.2584 0.5221
H224_4 H 0.8270 0.2236 0.5541
C197_4 C 0.8044(5) 0.2922(7) 0.5789(5)
H225_4 H 0.7840 0.3188 0.5692
H226_4 H 0.8304 0.3097 0.5800
C198_4 C 0.7960(5) 0.3237(7) 0.6448(5)
H227_4 H 0.7748 0.3483 0.6336
H228_4 H 0.8212 0.3435 0.6486
C199_4 C 0.7869(5) 0.3012(6) 0.6841(4)
H229_4 H 0.7834 0.3327 0.7006
H230_4 H 0.8115 0.2838 0.6961
C200_4 C 0.7547(5) 0.2637(7) 0.6909(5)
H231_4 H 0.7292 0.2815 0.6820
H232_4 H 0.7561 0.2579 0.7195
C201_4 C 0.7154(4) 0.1808(7) 0.6778(5)
H233_4 H 0.6911 0.2009 0.6685
H234_4 H 0.7149 0.1698 0.7054
C202_4 C 0.7198(6) 0.1330(7) 0.6519(5)
H235_4 H 0.6977 0.1082 0.6533
H236_4 H 0.7446 0.1141 0.6616
H264_4 H 0.692742 0.161352 0.599972
H265_4 H 0.741685 0.223139 0.537024
H266_4 H 0.777912 0.194517 0.687538
H267_4 H 0.825141 0.258234 0.628298
N19_2 N 0.9589(3) 0.7671(5) 0.8668(3)
C176_2 C 0.9894(4) 0.7003(7) 0.8268(4)
H183_2 H 0.9933 0.6621 0.8212
H184_2 H 0.9782 0.7178 0.8019
C177_2 C 0.9601(4) 0.7053(6) 0.8565(4)
H185_2 H 0.9690 0.6842 0.8804
H186_2 H 0.9337 0.6926 0.8450
C178_2 C 0.9376(4) 0.7739(6) 0.9030(4)
H187_2 H 0.9105 0.7598 0.8974
H188_2 H 0.9516 0.7538 0.9254
C179_2 C 0.9366(4) 0.8304(7) 0.9128(5)
H189_2 H 0.9178 0.8347 0.9321
H190_2 H 0.9254 0.8497 0.8888
C180_2 C 0.9764(5) 0.8597(8) 0.9302(5)
H191_2 H 0.9704 0.8959 0.9392
H192_2 H 0.9894 0.8396 0.9531
H256_2 H 0.991177 0.889421 0.877198
H259_2 H 0.942195 0.786033 0.84346
O29_4 O 0.99072(19) 0.9367(3) 0.6388(2)
O34_4 O 0.9358(2) 0.8411(4) 0.7999(3)
H130_4 H 0.9966 0.9374 0.5578
H140_4 H 0.9997 0.8976 0.5011
C119_4 C 0.9885(3) 0.9123(4) 0.6778(3)
C122_4 C 0.9775(3) 0.8744(5) 0.7514(4)
C123_4 C 0.9432(4) 0.8964(6) 0.7249(4)
H143_4 H 0.9177 0.8970 0.7328
C124_4 C 0.9494(3) 0.9159(5) 0.6886(3)
H144_4 H 0.9285 0.9312 0.6713
C125_4 C 0.9722(4) 0.8487(6) 0.7921(3)
N19_3 N 0.9589(3) 0.7329(5) 0.3668(3)
C176_3 C 0.9894(4) 0.7997(7) 0.3268(4)
H183_3 H 0.9933 0.8379 0.3212
H184_3 H 0.9782 0.7822 0.3019
C177_3 C 0.9601(4) 0.7947(6) 0.3565(4)
H185_3 H 0.9690 0.8158 0.3804
H186_3 H 0.9337 0.8074 0.3450
C178_3 C 0.9376(4) 0.7261(6) 0.4030(4)
H187_3 H 0.9105 0.7402 0.3974
H188_3 H 0.9516 0.7462 0.4254
C179_3 C 0.9366(4) 0.6696(7) 0.4128(5)
H189_3 H 0.9178 0.6653 0.4321
H190_3 H 0.9254 0.6503 0.3888
C180_3 C 0.9764(5) 0.6403(8) 0.4302(5)
H191_3 H 0.9704 0.6041 0.4392
H192_3 H 0.9894 0.6604 0.4531
H256_3 H 0.991177 0.610579 0.377198
H259_3 H 0.942195 0.713967 0.34346
N19_4 N 0.0411(3) 0.2329(5) 0.1332(3)
C176_4 C 0.0106(4) 0.2997(7) 0.1732(4)
H183_4 H 0.0067 0.3379 0.1788
H184_4 H 0.0218 0.2822 0.1981
C177_4 C 0.0399(4) 0.2947(6) 0.1435(4)
H185_4 H 0.0310 0.3158 0.1196
H186_4 H 0.0663 0.3074 0.1550
C178_4 C 0.0624(4) 0.2261(6) 0.0970(4)
H187_4 H 0.0895 0.2402 0.1026
H188_4 H 0.0484 0.2462 0.0746
C179_4 C 0.0634(4) 0.1696(7) 0.0872(5)
H189_4 H 0.0822 0.1653 0.0679
H190_4 H 0.0746 0.1503 0.1112
C180_4 C 0.0236(5) 0.1403(8) 0.0698(5)
H191_4 H 0.0296 0.1041 0.0608
H192_4 H 0.0106 0.1604 0.0469
H256_4 H 0.0088231 0.110579 0.122802
H259_4 H 0.0578046 0.213967 0.15654
loop_
_geom_bond_atom_site_label_1
_geom_bond_atom_site_label_2
_geom_bond_site_symmetry_1
_geom_bond_site_symmetry_2
H109 C97 1_555 1_555
H110 C97 1_555 1_555
C98 C97 1_555 1_555
H111 C98 1_555 1_555
H112 C98 1_555 1_555
C99 N14 1_555 1_555
H113 C99 1_555 1_555
H114 C99 1_555 1_555
C100 N14 1_555 1_555
H115 C100 1_555 1_555
H116 C100 1_555 1_555
C101 N15 1_555 1_555
H117 C101 1_555 1_555
H118 C101 1_555 1_555
C98 C99 1_555 1_555
C100 C101 1_555 1_555
N14 H286 1_555 1_555
N15 H288 1_555 1_555
Ni1 O20 1_555 1_555
Ni2 O9 1_555 1_555
Ni3 O21 1_555 1_555
O2 C3 1_555 1_555
O3 C4 1_555 1_555
O7 C19 1_555 1_555
O25 C19 1_555 1_555
O9 C26 1_555 1_555
O10 C26 1_555 1_555
O13 C35 1_555 1_555
O14 C36 1_555 1_555
O15 C37 1_555 1_555
O16 C38 1_555 1_555
O17 Ni2 1_555 1_555
O18 C45 1_555 1_555
O19 C52 1_555 1_555
O20 C52 1_555 1_555
O21 C59 1_555 1_555
O22 C59 1_555 1_555
O23 C66 1_555 1_555
O24 C66 1_555 1_555
H3 C3 1_555 1_555
H4 C3 1_555 1_555
H5 C4 1_555 1_555
H6 C4 1_555 1_555
C13 O2 1_555 1_555
C14 C13 1_555 1_555
H13 C14 1_555 1_555
C15 C14 1_555 1_555
H14 C15 1_555 1_555
C16 C15 1_555 1_555
C17 C16 1_555 1_555
H15 C17 1_555 1_555
C18 C13 1_555 1_555
H16 C18 1_555 1_555
C19 C16 1_555 1_555
C20 O3 1_555 1_555
C21 C20 1_555 1_555
H17 C21 1_555 1_555
C22 C21 1_555 1_555
H18 C22 1_555 1_555
C23 C22 1_555 1_555
C24 C23 1_555 1_555
H19 C24 1_555 1_555
C25 C20 1_555 1_555
H20 C25 1_555 1_555
C26 C23 1_555 1_555
C34 C35 1_555 1_555
C35 H25 1_555 1_555
H26 C35 1_555 1_555
C36 C34 1_555 1_555
H27 C36 1_555 1_555
H28 C36 1_555 1_555
C37 C34 1_555 1_555
H29 C37 1_555 1_555
H30 C37 1_555 1_555
C38 C34 1_555 1_555
H31 C38 1_555 1_555
H32 C38 1_555 1_555
C39 O13 1_555 1_555
C40 C39 1_555 1_555
H33 C40 1_555 1_555
C41 C40 1_555 1_555
H34 C41 1_555 1_555
C42 C41 1_555 1_555
C43 C42 1_555 1_555
H35 C43 1_555 1_555
C44 C39 1_555 1_555
H36 C44 1_555 1_555
C45 O17 1_555 1_555
C46 O14 1_555 1_555
C47 C46 1_555 1_555
H37 C47 1_555 1_555
C48 C47 1_555 1_555
H38 C48 1_555 1_555
C49 C48 1_555 1_555
C50 C49 1_555 1_555
H39 C50 1_555 1_555
C51 C46 1_555 1_555
H40 C51 1_555 1_555
C52 C49 1_555 1_555
C53 O15 1_555 1_555
C54 C53 1_555 1_555
H41 C54 1_555 1_555
C55 C54 1_555 1_555
H42 C55 1_555 1_555
C56 C55 1_555 1_555
C57 C56 1_555 1_555
H43 C57 1_555 1_555
C58 C53 1_555 1_555
H44 C58 1_555 1_555
C59 C56 1_555 1_555
C60 O16 1_555 1_555
C61 C60 1_555 1_555
H45 C61 1_555 1_555
C62 C61 1_555 1_555
H46 C62 1_555 1_555
C63 C62 1_555 1_555
C64 C63 1_555 1_555
H47 C64 1_555 1_555
C65 C60 1_555 1_555
H48 C65 1_555 1_555
C66 C63 1_555 1_555
N1 Ni2 1_555 1_555
N2 Ni2 1_555 1_555
N3 Ni2 1_555 1_555
N4 Ni2 1_555 1_555
C67 N1 1_555 1_555
H49 C67 1_555 1_555
H50 C67 1_555 1_555
C68 C67 1_555 1_555
H51 C68 1_555 1_555
H52 C68 1_555 1_555
C69 N2 1_555 1_555
H53 C69 1_555 1_555
H54 C69 1_555 1_555
C70 N2 1_555 1_555
H55 C70 1_555 1_555
H56 C70 1_555 1_555
C71 N3 1_555 1_555
H57 C71 1_555 1_555
H58 C71 1_555 1_555
C72 N3 1_555 1_555
H59 C72 1_555 1_555
H60 C72 1_555 1_555
C73 C72 1_555 1_555
H61 C73 1_555 1_555
H62 C73 1_555 1_555
C74 N4 1_555 1_555
H63 C74 1_555 1_555
H64 C74 1_555 1_555
C75 N4 1_555 1_555
H65 C75 1_555 1_555
H66 C75 1_555 1_555
C76 N1 1_555 1_555
H67 C76 1_555 1_555
H68 C76 1_555 1_555
N9 Ni1 1_555 1_555
N10 Ni1 1_555 1_555
N11 Ni1 1_555 1_555
N12 Ni1 1_555 1_555
C87 N9 1_555 1_555
H89 C87 1_555 1_555
H90 C87 1_555 1_555
C88 C87 1_555 1_555
H91 C88 1_555 1_555
H92 C88 1_555 1_555
C89 N10 1_555 1_555
H93 C89 1_555 1_555
H94 C89 1_555 1_555
C90 N10 1_555 1_555
H95 C90 1_555 1_555
H96 C90 1_555 1_555
C91 N11 1_555 1_555
H97 C91 1_555 1_555
H98 C91 1_555 1_555
C92 N11 1_555 1_555
H99 C92 1_555 1_555
H100 C92 1_555 1_555
C93 C92 1_555 1_555
H101 C93 1_555 1_555
H102 C93 1_555 1_555
C94 N12 1_555 1_555
H103 C94 1_555 1_555
H104 C94 1_555 1_555
C95 N12 1_555 1_555
H105 C95 1_555 1_555
H106 C95 1_555 1_555
C96 N9 1_555 1_555
H107 C96 1_555 1_555
H108 C96 1_555 1_555
N13 Ni3 1_555 1_555
N16 Ni3 1_555 1_555
H119 C102 1_555 1_555
H120 C102 1_555 1_555
C103 C102 1_555 1_555
H121 C103 1_555 1_555
H122 C103 1_555 1_555
C104 N16 1_555 1_555
H123 C104 1_555 1_555
H124 C104 1_555 1_555
C105 N16 1_555 1_555
H125 C105 1_555 1_555
H126 C105 1_555 1_555
C106 N13 1_555 1_555
H127 C106 1_555 1_555
H128 C106 1_555 1_555
Ni5 O24 1_555 1_555
O27 Ni1 1_555 1_555
C17 C18 1_555 1_555
C24 C25 1_555 1_555
C42 C45 1_555 1_555
C43 C44 1_555 1_555
C50 C51 1_555 1_555
C57 C58 1_555 1_555
C64 C65 1_555 1_555
C68 C69 1_555 1_555
C70 C71 1_555 1_555
C73 C74 1_555 1_555
C75 C76 1_555 1_555
C88 C89 1_555 1_555
C90 C91 1_555 1_555
C93 C94 1_555 1_555
C95 C96 1_555 1_555
C103 C104 1_555 1_555
C105 C106 1_555 1_555
N1 H273 1_555 1_555
N2 H274 1_555 1_555
N3 H275 1_555 1_555
N4 H276 1_555 1_555
N9 H281 1_555 1_555
N10 H282 1_555 1_555
N11 H283 1_555 1_555
N12 H284 1_555 1_555
N13 H285 1_555 1_555
N16 H287 1_555 1_555
Ni5 O20_2 1_555 1_555
O14_2 C36_2 1_555 1_555
O16_2 C38_2 1_555 1_555
O19_2 C52_2 1_555 1_555
O20_2 C52_2 1_555 1_555
C36_2 C34_2 1_555 1_555
H27_2 C36_2 1_555 1_555
H28_2 C36_2 1_555 1_555
C38_2 C34_2 1_555 1_555
H31_2 C38_2 1_555 1_555
H32_2 C38_2 1_555 1_555
C46_2 O14_2 1_555 1_555
C47_2 C46_2 1_555 1_555
H37_2 C47_2 1_555 1_555
C48_2 C47_2 1_555 1_555
H38_2 C48_2 1_555 1_555
C49_2 C48_2 1_555 1_555
C50_2 C49_2 1_555 1_555
H39_2 C50_2 1_555 1_555
C51_2 C46_2 1_555 1_555
H40_2 C51_2 1_555 1_555
C52_2 C49_2 1_555 1_555
C60_2 O16_2 1_555 1_555
C61_2 C60_2 1_555 1_555
H47_2 C64_2 1_555 1_555
C65_2 C60_2 1_555 1_555
H48_2 C65_2 1_555 1_555
N9_2 Ni5 1_555 1_555
N10_2 Ni5 1_555 1_555
N11_2 Ni5 1_555 1_555
N12_2 Ni5 1_555 1_555
C87_2 N9_2 1_555 1_555
H89_2 C87_2 1_555 1_555
H90_2 C87_2 1_555 1_555
C88_2 C87_2 1_555 1_555
H91_2 C88_2 1_555 1_555
H92_2 C88_2 1_555 1_555
C89_2 N10_2 1_555 1_555
H93_2 C89_2 1_555 1_555
H94_2 C89_2 1_555 1_555
C90_2 N10_2 1_555 1_555
H95_2 C90_2 1_555 1_555
H96_2 C90_2 1_555 1_555
C91_2 N11_2 1_555 1_555
H97_2 C91_2 1_555 1_555
H98_2 C91_2 1_555 1_555
C92_2 N11_2 1_555 1_555
H99_2 C92_2 1_555 1_555
H100_2 C92_2 1_555 1_555
C93_2 C92_2 1_555 1_555
H101_2 C93_2 1_555 1_555
H102_2 C93_2 1_555 1_555
C94_2 N12_2 1_555 1_555
H103_2 C94_2 1_555 1_555
H104_2 C94_2 1_555 1_555
C95_2 N12_2 1_555 1_555
H105_2 C95_2 1_555 1_555
H106_2 C95_2 1_555 1_555
C96_2 N9_2 1_555 1_555
H107_2 C96_2 1_555 1_555
H108_2 C96_2 1_555 1_555
C50_2 C51_2 1_555 1_555
C64_2 C65_2 1_555 1_555
C88_2 C89_2 1_555 1_555
C90_2 C91_2 1_555 1_555
C93_2 C94_2 1_555 1_555
C95_2 C96_2 1_555 1_555
N9_2 H281_2 1_555 1_555
N10_2 H282_2 1_555 1_555
N11_2 H283_2 1_555 1_555
N12_2 H284_2 1_555 1_555
O23_2 C66_2 1_555 1_555
O27 C66_2 1_555 1_555
H46_2 C62_2 1_555 1_555
C63_2 C62_2 1_555 1_555
C66_2 C63_2 1_555 1_555
Ni4 O6 1_555 1_555
O1 C2 1_555 1_555
O4 C5 1_555 1_555
O5 C12 1_555 1_555
O6 C12 1_555 1_555
O11 C33 1_555 1_555
O12 C33 1_555 1_555
C1 C2 1_555 1_555
C2 H1 1_555 1_555
H2 C2 1_555 1_555
C5 C1 1_555 1_555
H7 C5 1_555 1_555
H8 C5 1_555 1_555
C6 O1 1_555 1_555
C7 C6 1_555 1_555
H9 C7 1_555 1_555
C8 C7 1_555 1_555
H10 C8 1_555 1_555
C9 C8 1_555 1_555
C10 C9 1_555 1_555
H11 C10 1_555 1_555
C11 C6 1_555 1_555
H12 C11 1_555 1_555
C12 C9 1_555 1_555
C27 O4 1_555 1_555
C28 C27 1_555 1_555
H21 C28 1_555 1_555
C29 C28 1_555 1_555
H22 C29 1_555 1_555
C30 C29 1_555 1_555
C31 C30 1_555 1_555
H23 C31 1_555 1_555
C32 C27 1_555 1_555
H24 C32 1_555 1_555
C33 C30 1_555 1_555
N5 Ni4 1_555 1_555
N6 Ni4 1_555 1_555
N7 Ni4 1_555 1_555
N8 Ni4 1_555 1_555
C77 N5 1_555 1_555
H69 C77 1_555 1_555
H70 C77 1_555 1_555
C78 C77 1_555 1_555
H71 C78 1_555 1_555
H72 C78 1_555 1_555
C79 N6 1_555 1_555
H73 C79 1_555 1_555
H74 C79 1_555 1_555
C80 N6 1_555 1_555
H75 C80 1_555 1_555
H76 C80 1_555 1_555
C81 N7 1_555 1_555
H77 C81 1_555 1_555
H78 C81 1_555 1_555
C82 N7 1_555 1_555
H79 C82 1_555 1_555
H80 C82 1_555 1_555
C83 C82 1_555 1_555
H81 C83 1_555 1_555
H82 C83 1_555 1_555
C84 N8 1_555 1_555
H83 C84 1_555 1_555
H84 C84 1_555 1_555
C85 N8 1_555 1_555
H85 C85 1_555 1_555
H86 C85 1_555 1_555
C86 N5 1_555 1_555
H87 C86 1_555 1_555
H88 C86 1_555 1_555
Ni7 O12 1_555 1_555
O26 Ni4 1_555 1_555
C10 C11 1_555 1_555
C31 C32 1_555 1_555
C78 C79 1_555 1_555
C80 C81 1_555 1_555
C83 C84 1_555 1_555
C85 C86 1_555 1_555
N5 H277 1_555 1_555
N6 H278 1_555 1_555
N8 H279 1_555 1_555
N7 H280 1_555 1_555
H109_2 C97_2 1_555 1_555
H110_2 C97_2 1_555 1_555
C98_2 C97_2 1_555 1_555
H111_2 C98_2 1_555 1_555
H112_2 C98_2 1_555 1_555
C99_2 N14_2 1_555 1_555
H113_2 C99_2 1_555 1_555
H114_2 C99_2 1_555 1_555
C100_2 N14_2 1_555 1_555
H115_2 C100_2 1_555 1_555
H116_2 C100_2 1_555 1_555
C101_2 N15_2 1_555 1_555
H117_2 C101_2 1_555 1_555
H118_2 C101_2 1_555 1_555
C98_2 C99_2 1_555 1_555
C100_2 C101_2 1_555 1_555
N14_2 H286_2 1_555 1_555
N15_2 H288_2 1_555 1_555
Ni2_2 O9_2 1_555 1_555
Ni3_2 O21_2 1_555 1_555
Ni7 O6_2 1_555 1_555
O1_2 C2_2 1_555 1_555
O2_2 C3_2 1_555 1_555
O3_2 C4_2 1_555 1_555
O4_2 C5_2 1_555 1_555
O5_2 C12_2 1_555 1_555
O6_2 C12_2 1_555 1_555
O7_2 C19_2 1_555 1_555
O25_2 C19_2 1_555 1_555
O9_2 C26_2 1_555 1_555
O10_2 C26_2 1_555 1_555
O13_2 C35_2 1_555 1_555
O15_2 C37_2 1_555 1_555
O17_2 Ni2_2 1_555 1_555
O18_2 C45_2 1_555 1_555
O21_2 C59_2 1_555 1_555
O22_2 C59_2 1_555 1_555
C1_2 C2_2 1_555 1_555
C2_2 H1_2 1_555 1_555
H2_2 C2_2 1_555 1_555
C3_2 C1_2 1_555 1_555
H3_2 C3_2 1_555 1_555
H4_2 C3_2 1_555 1_555
C4_2 C1_2 1_555 1_555
H5_2 C4_2 1_555 1_555
H6_2 C4_2 1_555 1_555
C5_2 C1_2 1_555 1_555
H7_2 C5_2 1_555 1_555
H8_2 C5_2 1_555 1_555
C6_2 O1_2 1_555 1_555
C7_2 C6_2 1_555 1_555
H9_2 C7_2 1_555 1_555
C8_2 C7_2 1_555 1_555
H10_2 C8_2 1_555 1_555
C9_2 C8_2 1_555 1_555
C10_2 C9_2 1_555 1_555
H11_2 C10_2 1_555 1_555
C11_2 C6_2 1_555 1_555
H12_2 C11_2 1_555 1_555
C12_2 C9_2 1_555 1_555
C13_2 O2_2 1_555 1_555
C14_2 C13_2 1_555 1_555
H13_2 C14_2 1_555 1_555
C15_2 C14_2 1_555 1_555
H14_2 C15_2 1_555 1_555
C16_2 C15_2 1_555 1_555
C17_2 C16_2 1_555 1_555
H15_2 C17_2 1_555 1_555
C18_2 C13_2 1_555 1_555
H16_2 C18_2 1_555 1_555
C19_2 C16_2 1_555 1_555
C20_2 O3_2 1_555 1_555
C21_2 C20_2 1_555 1_555
H17_2 C21_2 1_555 1_555
C22_2 C21_2 1_555 1_555
H18_2 C22_2 1_555 1_555
C23_2 C22_2 1_555 1_555
C24_2 C23_2 1_555 1_555
H19_2 C24_2 1_555 1_555
C25_2 C20_2 1_555 1_555
H20_2 C25_2 1_555 1_555
C26_2 C23_2 1_555 1_555
C27_2 O4_2 1_555 1_555
C28_2 C27_2 1_555 1_555
H21_2 C28_2 1_555 1_555
C29_2 C28_2 1_555 1_555
H22_2 C29_2 1_555 1_555
C32_2 C27_2 1_555 1_555
H24_2 C32_2 1_555 1_555
C35_2 H25_2 1_555 1_555
H26_2 C35_2 1_555 1_555
H29_2 C37_2 1_555 1_555
H30_2 C37_2 1_555 1_555
C39_2 O13_2 1_555 1_555
C40_2 C39_2 1_555 1_555
H33_2 C40_2 1_555 1_555
C41_2 C40_2 1_555 1_555
H34_2 C41_2 1_555 1_555
C42_2 C41_2 1_555 1_555
C43_2 C42_2 1_555 1_555
H35_2 C43_2 1_555 1_555
C44_2 C39_2 1_555 1_555
H36_2 C44_2 1_555 1_555
C45_2 O17_2 1_555 1_555
C53_2 O15_2 1_555 1_555
C54_2 C53_2 1_555 1_555
H41_2 C54_2 1_555 1_555
C55_2 C54_2 1_555 1_555
H42_2 C55_2 1_555 1_555
C56_2 C55_2 1_555 1_555
C57_2 C56_2 1_555 1_555
H43_2 C57_2 1_555 1_555
C58_2 C53_2 1_555 1_555
C59_2 C56_2 1_555 1_555
N1_2 Ni2_2 1_555 1_555
N2_2 Ni2_2 1_555 1_555
N3_2 Ni2_2 1_555 1_555
N4_2 Ni2_2 1_555 1_555
C67_2 N1_2 1_555 1_555
H49_2 C67_2 1_555 1_555
H50_2 C67_2 1_555 1_555
C68_2 C67_2 1_555 1_555
H51_2 C68_2 1_555 1_555
H52_2 C68_2 1_555 1_555
C69_2 N2_2 1_555 1_555
H53_2 C69_2 1_555 1_555
H54_2 C69_2 1_555 1_555
C70_2 N2_2 1_555 1_555
H55_2 C70_2 1_555 1_555
H56_2 C70_2 1_555 1_555
C71_2 N3_2 1_555 1_555
H57_2 C71_2 1_555 1_555
H58_2 C71_2 1_555 1_555
C72_2 N3_2 1_555 1_555
H59_2 C72_2 1_555 1_555
H60_2 C72_2 1_555 1_555
C73_2 C72_2 1_555 1_555
H61_2 C73_2 1_555 1_555
H62_2 C73_2 1_555 1_555
C74_2 N4_2 1_555 1_555
H63_2 C74_2 1_555 1_555
H64_2 C74_2 1_555 1_555
C75_2 N4_2 1_555 1_555
H65_2 C75_2 1_555 1_555
H66_2 C75_2 1_555 1_555
C76_2 N1_2 1_555 1_555
H67_2 C76_2 1_555 1_555
H68_2 C76_2 1_555 1_555
N5_2 Ni7 1_555 1_555
N6_2 Ni7 1_555 1_555
N7_2 Ni7 1_555 1_555
N8_2 Ni7 1_555 1_555
C77_2 N5_2 1_555 1_555
H69_2 C77_2 1_555 1_555
H70_2 C77_2 1_555 1_555
C78_2 C77_2 1_555 1_555
H71_2 C78_2 1_555 1_555
H72_2 C78_2 1_555 1_555
C79_2 N6_2 1_555 1_555
H73_2 C79_2 1_555 1_555
H74_2 C79_2 1_555 1_555
C80_2 N6_2 1_555 1_555
H75_2 C80_2 1_555 1_555
H76_2 C80_2 1_555 1_555
C81_2 N7_2 1_555 1_555
H77_2 C81_2 1_555 1_555
H78_2 C81_2 1_555 1_555
C82_2 N7_2 1_555 1_555
H79_2 C82_2 1_555 1_555
H80_2 C82_2 1_555 1_555
C83_2 C82_2 1_555 1_555
H81_2 C83_2 1_555 1_555
H82_2 C83_2 1_555 1_555
C84_2 N8_2 1_555 1_555
H83_2 C84_2 1_555 1_555
H84_2 C84_2 1_555 1_555
C85_2 N8_2 1_555 1_555
H85_2 C85_2 1_555 1_555
H86_2 C85_2 1_555 1_555
C86_2 N5_2 1_555 1_555
H87_2 C86_2 1_555 1_555
H88_2 C86_2 1_555 1_555
N13_2 Ni3_2 1_555 1_555
N16_2 Ni3_2 1_555 1_555
H119_2 C102_2 1_555 1_555
H120_2 C102_2 1_555 1_555
C103_2 C102_2 1_555 1_555
H121_2 C103_2 1_555 1_555
H122_2 C103_2 1_555 1_555
C104_2 N16_2 1_555 1_555
H123_2 C104_2 1_555 1_555
H124_2 C104_2 1_555 1_555
C105_2 N16_2 1_555 1_555
H125_2 C105_2 1_555 1_555
H126_2 C105_2 1_555 1_555
C106_2 N13_2 1_555 1_555
H127_2 C106_2 1_555 1_555
H128_2 C106_2 1_555 1_555
C10_2 C11_2 1_555 1_555
C17_2 C18_2 1_555 1_555
C24_2 C25_2 1_555 1_555
C31_2 C32_2 1_555 1_555
C42_2 C45_2 1_555 1_555
C43_2 C44_2 1_555 1_555
C57_2 C58_2 1_555 1_555
C68_2 C69_2 1_555 1_555
C70_2 C71_2 1_555 1_555
C73_2 C74_2 1_555 1_555
C75_2 C76_2 1_555 1_555
C78_2 C79_2 1_555 1_555
C80_2 C81_2 1_555 1_555
C83_2 C84_2 1_555 1_555
C85_2 C86_2 1_555 1_555
C103_2 C104_2 1_555 1_555
C105_2 C106_2 1_555 1_555
N1_2 H273_2 1_555 1_555
N2_2 H274_2 1_555 1_555
N3_2 H275_2 1_555 1_555
N4_2 H276_2 1_555 1_555
N5_2 H277_2 1_555 1_555
N6_2 H278_2 1_555 1_555
N8_2 H279_2 1_555 1_555
N7_2 H280_2 1_555 1_555
N13_2 H285_2 1_555 1_555
N16_2 H287_2 1_555 1_555
O11_2 C33_2 1_555 1_555
O26 C33_2 1_555 1_555
C33_2 C30_2 1_555 1_555
O11_3 C33_3 1_555 1_555
O12_2 C33_3 1_555 1_555
C33_3 C30_3 1_555 1_555
Ni7_2 O12_2 1_555 1_555
Ni2_3 O9_3 1_555 1_555
Ni6 O21_3 1_555 1_555
Ni4_2 O6_3 1_555 1_555
O1_3 C2_3 1_555 1_555
O2_3 C3_3 1_555 1_555
O3_3 C4_3 1_555 1_555
O4_3 C5_3 1_555 1_555
O5_3 C12_3 1_555 1_555
O6_3 C12_3 1_555 1_555
O7_3 C19_3 1_555 1_555
O8 C19_3 1_555 1_555
O9_3 C26_3 1_555 1_555
O10_3 C26_3 1_555 1_555
O13_3 C35_3 1_555 1_555
O15_3 C37_3 1_555 1_555
O17_3 Ni2_3 1_555 1_555
O18_3 C45_3 1_555 1_555
O21_3 C59_3 1_555 1_555
O22_3 C59_3 1_555 1_555
C1_3 C2_3 1_555 1_555
C2_3 H1_3 1_555 1_555
H2_3 C2_3 1_555 1_555
C3_3 C1_3 1_555 1_555
H3_3 C3_3 1_555 1_555
H4_3 C3_3 1_555 1_555
C4_3 C1_3 1_555 1_555
H5_3 C4_3 1_555 1_555
H6_3 C4_3 1_555 1_555
C5_3 C1_3 1_555 1_555
H7_3 C5_3 1_555 1_555
H8_3 C5_3 1_555 1_555
C6_3 O1_3 1_555 1_555
C7_3 C6_3 1_555 1_555
H9_3 C7_3 1_555 1_555
C8_3 C7_3 1_555 1_555
H10_3 C8_3 1_555 1_555
C9_3 C8_3 1_555 1_555
C10_3 C9_3 1_555 1_555
H11_3 C10_3 1_555 1_555
C11_3 C6_3 1_555 1_555
H12_3 C11_3 1_555 1_555
C12_3 C9_3 1_555 1_555
C13_3 O2_3 1_555 1_555
C14_3 C13_3 1_555 1_555
H13_3 C14_3 1_555 1_555
C15_3 C14_3 1_555 1_555
H14_3 C15_3 1_555 1_555
C16_3 C15_3 1_555 1_555
C17_3 C16_3 1_555 1_555
H15_3 C17_3 1_555 1_555
C18_3 C13_3 1_555 1_555
H16_3 C18_3 1_555 1_555
C19_3 C16_3 1_555 1_555
C20_3 O3_3 1_555 1_555
C21_3 C20_3 1_555 1_555
H17_3 C21_3 1_555 1_555
C22_3 C21_3 1_555 1_555
H18_3 C22_3 1_555 1_555
C23_3 C22_3 1_555 1_555
C24_3 C23_3 1_555 1_555
H19_3 C24_3 1_555 1_555
C25_3 C20_3 1_555 1_555
H20_3 C25_3 1_555 1_555
C26_3 C23_3 1_555 1_555
C27_3 O4_3 1_555 1_555
C28_3 C27_3 1_555 1_555
H21_3 C28_3 1_555 1_555
C29_3 C28_3 1_555 1_555
H22_3 C29_3 1_555 1_555
C32_3 C27_3 1_555 1_555
H24_3 C32_3 1_555 1_555
C35_3 H25_3 1_555 1_555
H26_3 C35_3 1_555 1_555
H29_3 C37_3 1_555 1_555
H30_3 C37_3 1_555 1_555
C39_3 O13_3 1_555 1_555
C40_3 C39_3 1_555 1_555
H33_3 C40_3 1_555 1_555
C41_3 C40_3 1_555 1_555
H34_3 C41_3 1_555 1_555
C42_3 C41_3 1_555 1_555
C43_3 C42_3 1_555 1_555
H35_3 C43_3 1_555 1_555
C44_3 C39_3 1_555 1_555
H36_3 C44_3 1_555 1_555
C45_3 O17_3 1_555 1_555
C53_3 O15_3 1_555 1_555
C54_3 C53_3 1_555 1_555
H41_3 C54_3 1_555 1_555
C55_3 C54_3 1_555 1_555
H42_3 C55_3 1_555 1_555
C56_3 C55_3 1_555 1_555
C57_3 C56_3 1_555 1_555
H43_3 C57_3 1_555 1_555
C58_3 C53_3 1_555 1_555
C59_3 C56_3 1_555 1_555
N1_3 Ni2_3 1_555 1_555
N2_3 Ni2_3 1_555 1_555
N3_3 Ni2_3 1_555 1_555
N4_3 Ni2_3 1_555 1_555
C67_3 N1_3 1_555 1_555
H49_3 C67_3 1_555 1_555
H50_3 C67_3 1_555 1_555
C68_3 C67_3 1_555 1_555
H51_3 C68_3 1_555 1_555
H52_3 C68_3 1_555 1_555
C69_3 N2_3 1_555 1_555
H53_3 C69_3 1_555 1_555
H54_3 C69_3 1_555 1_555
C70_3 N2_3 1_555 1_555
H55_3 C70_3 1_555 1_555
H56_3 C70_3 1_555 1_555
C71_3 N3_3 1_555 1_555
H57_3 C71_3 1_555 1_555
H58_3 C71_3 1_555 1_555
C72_3 N3_3 1_555 1_555
H59_3 C72_3 1_555 1_555
H60_3 C72_3 1_555 1_555
C73_3 C72_3 1_555 1_555
H61_3 C73_3 1_555 1_555
H62_3 C73_3 1_555 1_555
C74_3 N4_3 1_555 1_555
H63_3 C74_3 1_555 1_555
H64_3 C74_3 1_555 1_555
C75_3 N4_3 1_555 1_555
H65_3 C75_3 1_555 1_555
H66_3 C75_3 1_555 1_555
C76_3 N1_3 1_555 1_555
H67_3 C76_3 1_555 1_555
H68_3 C76_3 1_555 1_555
N5_3 Ni4_2 1_555 1_555
N6_3 Ni4_2 1_555 1_555
N7_3 Ni4_2 1_555 1_555
N8_3 Ni4_2 1_555 1_555
C77_3 N5_3 1_555 1_555
H69_3 C77_3 1_555 1_555
H70_3 C77_3 1_555 1_555
C78_3 C77_3 1_555 1_555
H71_3 C78_3 1_555 1_555
H72_3 C78_3 1_555 1_555
C79_3 N6_3 1_555 1_555
H73_3 C79_3 1_555 1_555
H74_3 C79_3 1_555 1_555
C80_3 N6_3 1_555 1_555
H75_3 C80_3 1_555 1_555
H76_3 C80_3 1_555 1_555
C81_3 N7_3 1_555 1_555
H77_3 C81_3 1_555 1_555
H78_3 C81_3 1_555 1_555
C82_3 N7_3 1_555 1_555
H79_3 C82_3 1_555 1_555
H80_3 C82_3 1_555 1_555
C83_3 C82_3 1_555 1_555
H81_3 C83_3 1_555 1_555
H82_3 C83_3 1_555 1_555
C84_3 N8_3 1_555 1_555
H83_3 C84_3 1_555 1_555
H84_3 C84_3 1_555 1_555
C85_3 N8_3 1_555 1_555
H85_3 C85_3 1_555 1_555
H86_3 C85_3 1_555 1_555
C86_3 N5_3 1_555 1_555
H87_3 C86_3 1_555 1_555
H88_3 C86_3 1_555 1_555
N13_3 Ni6 1_555 1_555
N16_3 Ni6 1_555 1_555
H119_3 C102_3 1_555 1_555
H120_3 C102_3 1_555 1_555
C103_3 C102_3 1_555 1_555
H121_3 C103_3 1_555 1_555
H122_3 C103_3 1_555 1_555
C104_3 N16_3 1_555 1_555
H123_3 C104_3 1_555 1_555
H124_3 C104_3 1_555 1_555
C105_3 N16_3 1_555 1_555
H125_3 C105_3 1_555 1_555
H126_3 C105_3 1_555 1_555
C106_3 N13_3 1_555 1_555
H127_3 C106_3 1_555 1_555
H128_3 C106_3 1_555 1_555
O26_2 Ni4_2 1_555 1_555
C10_3 C11_3 1_555 1_555
C17_3 C18_3 1_555 1_555
C24_3 C25_3 1_555 1_555
C31_3 C32_3 1_555 1_555
C42_3 C45_3 1_555 1_555
C43_3 C44_3 1_555 1_555
C57_3 C58_3 1_555 1_555
C68_3 C69_3 1_555 1_555
C70_3 C71_3 1_555 1_555
C73_3 C74_3 1_555 1_555
C75_3 C76_3 1_555 1_555
C78_3 C79_3 1_555 1_555
C80_3 C81_3 1_555 1_555
C83_3 C84_3 1_555 1_555
C85_3 C86_3 1_555 1_555
C103_3 C104_3 1_555 1_555
C105_3 C106_3 1_555 1_555
N1_3 H273_3 1_555 1_555
N2_3 H274_3 1_555 1_555
N3_3 H275_3 1_555 1_555
N4_3 H276_3 1_555 1_555
N5_3 H277_3 1_555 1_555
N6_3 H278_3 1_555 1_555
N8_3 H279_3 1_555 1_555
N7_3 H280_3 1_555 1_555
N13_3 H285_3 1_555 1_555
N16_3 H287_3 1_555 1_555
H109_3 C97_3 1_555 1_555
H110_3 C97_3 1_555 1_555
C98_3 C97_3 1_555 1_555
H111_3 C98_3 1_555 1_555
H112_3 C98_3 1_555 1_555
C99_3 N14_3 1_555 1_555
H113_3 C99_3 1_555 1_555
H114_3 C99_3 1_555 1_555
C100_3 N14_3 1_555 1_555
H115_3 C100_3 1_555 1_555
H116_3 C100_3 1_555 1_555
C101_3 N15_3 1_555 1_555
H117_3 C101_3 1_555 1_555
H118_3 C101_3 1_555 1_555
C98_3 C99_3 1_555 1_555
C100_3 C101_3 1_555 1_555
N14_3 H286_3 1_555 1_555
N15_3 H288_3 1_555 1_555
Ni7_2 O6_4 1_555 1_555
O1_4 C2_4 1_555 1_555
O4_4 C5_4 1_555 1_555
O5_4 C12_4 1_555 1_555
O6_4 C12_4 1_555 1_555
O11_4 C33_4 1_555 1_555
O26_2 C33_4 1_555 1_555
C1_4 C2_4 1_555 1_555
C2_4 H1_4 1_555 1_555
H2_4 C2_4 1_555 1_555
C5_4 C1_4 1_555 1_555
H7_4 C5_4 1_555 1_555
H8_4 C5_4 1_555 1_555
C6_4 O1_4 1_555 1_555
C7_4 C6_4 1_555 1_555
H9_4 C7_4 1_555 1_555
C8_4 C7_4 1_555 1_555
H10_4 C8_4 1_555 1_555
C9_4 C8_4 1_555 1_555
C10_4 C9_4 1_555 1_555
H11_4 C10_4 1_555 1_555
C11_4 C6_4 1_555 1_555
H12_4 C11_4 1_555 1_555
C12_4 C9_4 1_555 1_555
C27_4 O4_4 1_555 1_555
C28_4 C27_4 1_555 1_555
H21_4 C28_4 1_555 1_555
C29_4 C28_4 1_555 1_555
H22_4 C29_4 1_555 1_555
C30_4 C29_4 1_555 1_555
C31_4 C30_4 1_555 1_555
H23_4 C31_4 1_555 1_555
C32_4 C27_4 1_555 1_555
H24_4 C32_4 1_555 1_555
C33_4 C30_4 1_555 1_555
N5_4 Ni7_2 1_555 1_555
N6_4 Ni7_2 1_555 1_555
N7_4 Ni7_2 1_555 1_555
N8_4 Ni7_2 1_555 1_555
C77_4 N5_4 1_555 1_555
H69_4 C77_4 1_555 1_555
H70_4 C77_4 1_555 1_555
C78_4 C77_4 1_555 1_555
H71_4 C78_4 1_555 1_555
H72_4 C78_4 1_555 1_555
C79_4 N6_4 1_555 1_555
H73_4 C79_4 1_555 1_555
H74_4 C79_4 1_555 1_555
C80_4 N6_4 1_555 1_555
H75_4 C80_4 1_555 1_555
H76_4 C80_4 1_555 1_555
C81_4 N7_4 1_555 1_555
H77_4 C81_4 1_555 1_555
H78_4 C81_4 1_555 1_555
C82_4 N7_4 1_555 1_555
H79_4 C82_4 1_555 1_555
H80_4 C82_4 1_555 1_555
C83_4 C82_4 1_555 1_555
H81_4 C83_4 1_555 1_555
H82_4 C83_4 1_555 1_555
C84_4 N8_4 1_555 1_555
H83_4 C84_4 1_555 1_555
H84_4 C84_4 1_555 1_555
C85_4 N8_4 1_555 1_555
H85_4 C85_4 1_555 1_555
H86_4 C85_4 1_555 1_555
C86_4 N5_4 1_555 1_555
H87_4 C86_4 1_555 1_555
H88_4 C86_4 1_555 1_555
C10_4 C11_4 1_555 1_555
C31_4 C32_4 1_555 1_555
C78_4 C79_4 1_555 1_555
C80_4 C81_4 1_555 1_555
C83_4 C84_4 1_555 1_555
C85_4 C86_4 1_555 1_555
N5_4 H277_4 1_555 1_555
N6_4 H278_4 1_555 1_555
N8_4 H279_4 1_555 1_555
N7_4 H280_4 1_555 1_555
O23_3 C66_3 1_555 1_555
O24_2 C66_3 1_555 1_555
H46_3 C62_3 1_555 1_555
C63_3 C62_3 1_555 1_555
C66_3 C63_3 1_555 1_555
Ni5_2 O24_2 1_555 1_555
Ni1_2 O20_3 1_555 1_555
O14_3 C36_3 1_555 1_555
O16_3 C38_3 1_555 1_555
O19_3 C52_3 1_555 1_555
O20_3 C52_3 1_555 1_555
C36_3 C34_3 1_555 1_555
H27_3 C36_3 1_555 1_555
H28_3 C36_3 1_555 1_555
C38_3 C34_3 1_555 1_555
H31_3 C38_3 1_555 1_555
H32_3 C38_3 1_555 1_555
C46_3 O14_3 1_555 1_555
C47_3 C46_3 1_555 1_555
H37_3 C47_3 1_555 1_555
C48_3 C47_3 1_555 1_555
H38_3 C48_3 1_555 1_555
C49_3 C48_3 1_555 1_555
C50_3 C49_3 1_555 1_555
H39_3 C50_3 1_555 1_555
C51_3 C46_3 1_555 1_555
H40_3 C51_3 1_555 1_555
C52_3 C49_3 1_555 1_555
C60_3 O16_3 1_555 1_555
C61_3 C60_3 1_555 1_555
H47_3 C64_3 1_555 1_555
C65_3 C60_3 1_555 1_555
H48_3 C65_3 1_555 1_555
N9_3 Ni1_2 1_555 1_555
N10_3 Ni1_2 1_555 1_555
N11_3 Ni1_2 1_555 1_555
N12_3 Ni1_2 1_555 1_555
C87_3 N9_3 1_555 1_555
H89_3 C87_3 1_555 1_555
H90_3 C87_3 1_555 1_555
C88_3 C87_3 1_555 1_555
H91_3 C88_3 1_555 1_555
H92_3 C88_3 1_555 1_555
C89_3 N10_3 1_555 1_555
H93_3 C89_3 1_555 1_555
H94_3 C89_3 1_555 1_555
C90_3 N10_3 1_555 1_555
H95_3 C90_3 1_555 1_555
H96_3 C90_3 1_555 1_555
C91_3 N11_3 1_555 1_555
H97_3 C91_3 1_555 1_555
H98_3 C91_3 1_555 1_555
C92_3 N11_3 1_555 1_555
H99_3 C92_3 1_555 1_555
H100_3 C92_3 1_555 1_555
C93_3 C92_3 1_555 1_555
H101_3 C93_3 1_555 1_555
H102_3 C93_3 1_555 1_555
C94_3 N12_3 1_555 1_555
H103_3 C94_3 1_555 1_555
H104_3 C94_3 1_555 1_555
C95_3 N12_3 1_555 1_555
H105_3 C95_3 1_555 1_555
H106_3 C95_3 1_555 1_555
C96_3 N9_3 1_555 1_555
H107_3 C96_3 1_555 1_555
H108_3 C96_3 1_555 1_555
O27_2 Ni1_2 1_555 1_555
C50_3 C51_3 1_555 1_555
C64_3 C65_3 1_555 1_555
C88_3 C89_3 1_555 1_555
C90_3 C91_3 1_555 1_555
C93_3 C94_3 1_555 1_555
C95_3 C96_3 1_555 1_555
N9_3 H281_3 1_555 1_555
N10_3 H282_3 1_555 1_555
N11_3 H283_3 1_555 1_555
N12_3 H284_3 1_555 1_555
Ni5_2 O20_4 1_555 1_555
Ni2_4 O9_4 1_555 1_555
Ni6_2 O21_4 1_555 1_555
O2_4 C3_4 1_555 1_555
O3_4 C4_4 1_555 1_555
O7_4 C19_4 1_555 1_555
O8_2 C19_4 1_555 1_555
O9_4 C26_4 1_555 1_555
O10_4 C26_4 1_555 1_555
O13_4 C35_4 1_555 1_555
O14_4 C36_4 1_555 1_555
O15_4 C37_4 1_555 1_555
O16_4 C38_4 1_555 1_555
O17_4 Ni2_4 1_555 1_555
O18_4 C45_4 1_555 1_555
O19_4 C52_4 1_555 1_555
O20_4 C52_4 1_555 1_555
O21_4 C59_4 1_555 1_555
O22_4 C59_4 1_555 1_555
O23_4 C66_4 1_555 1_555
O27_2 C66_4 1_555 1_555
H3_4 C3_4 1_555 1_555
H4_4 C3_4 1_555 1_555
H5_4 C4_4 1_555 1_555
H6_4 C4_4 1_555 1_555
C13_4 O2_4 1_555 1_555
C14_4 C13_4 1_555 1_555
H13_4 C14_4 1_555 1_555
C15_4 C14_4 1_555 1_555
H14_4 C15_4 1_555 1_555
C16_4 C15_4 1_555 1_555
C17_4 C16_4 1_555 1_555
H15_4 C17_4 1_555 1_555
C18_4 C13_4 1_555 1_555
H16_4 C18_4 1_555 1_555
C19_4 C16_4 1_555 1_555
C20_4 O3_4 1_555 1_555
C21_4 C20_4 1_555 1_555
H17_4 C21_4 1_555 1_555
C22_4 C21_4 1_555 1_555
H18_4 C22_4 1_555 1_555
C23_4 C22_4 1_555 1_555
C24_4 C23_4 1_555 1_555
H19_4 C24_4 1_555 1_555
C25_4 C20_4 1_555 1_555
H20_4 C25_4 1_555 1_555
C26_4 C23_4 1_555 1_555
C34_4 C35_4 1_555 1_555
C35_4 H25_4 1_555 1_555
H26_4 C35_4 1_555 1_555
C36_4 C34_4 1_555 1_555
H27_4 C36_4 1_555 1_555
H28_4 C36_4 1_555 1_555
C37_4 C34_4 1_555 1_555
H29_4 C37_4 1_555 1_555
H30_4 C37_4 1_555 1_555
C38_4 C34_4 1_555 1_555
H31_4 C38_4 1_555 1_555
H32_4 C38_4 1_555 1_555
C39_4 O13_4 1_555 1_555
C40_4 C39_4 1_555 1_555
H33_4 C40_4 1_555 1_555
C41_4 C40_4 1_555 1_555
H34_4 C41_4 1_555 1_555
C42_4 C41_4 1_555 1_555
C43_4 C42_4 1_555 1_555
H35_4 C43_4 1_555 1_555
C44_4 C39_4 1_555 1_555
H36_4 C44_4 1_555 1_555
C45_4 O17_4 1_555 1_555
C46_4 O14_4 1_555 1_555
C47_4 C46_4 1_555 1_555
H37_4 C47_4 1_555 1_555
C48_4 C47_4 1_555 1_555
H38_4 C48_4 1_555 1_555
C49_4 C48_4 1_555 1_555
C50_4 C49_4 1_555 1_555
H39_4 C50_4 1_555 1_555
C51_4 C46_4 1_555 1_555
H40_4 C51_4 1_555 1_555
C52_4 C49_4 1_555 1_555
C53_4 O15_4 1_555 1_555
C54_4 C53_4 1_555 1_555
H41_4 C54_4 1_555 1_555
C55_4 C54_4 1_555 1_555
H42_4 C55_4 1_555 1_555
C56_4 C55_4 1_555 1_555
C57_4 C56_4 1_555 1_555
H43_4 C57_4 1_555 1_555
C58_4 C53_4 1_555 1_555
H44_4 C58_4 1_555 1_555
C59_4 C56_4 1_555 1_555
C60_4 O16_4 1_555 1_555
C61_4 C60_4 1_555 1_555
H45_4 C61_4 1_555 1_555
C62_4 C61_4 1_555 1_555
H46_4 C62_4 1_555 1_555
C63_4 C62_4 1_555 1_555
C64_4 C63_4 1_555 1_555
H47_4 C64_4 1_555 1_555
C65_4 C60_4 1_555 1_555
H48_4 C65_4 1_555 1_555
C66_4 C63_4 1_555 1_555
N1_4 Ni2_4 1_555 1_555
N2_4 Ni2_4 1_555 1_555
N3_4 Ni2_4 1_555 1_555
N4_4 Ni2_4 1_555 1_555
C67_4 N1_4 1_555 1_555
H49_4 C67_4 1_555 1_555
H50_4 C67_4 1_555 1_555
C68_4 C67_4 1_555 1_555
H51_4 C68_4 1_555 1_555
H52_4 C68_4 1_555 1_555
C69_4 N2_4 1_555 1_555
H53_4 C69_4 1_555 1_555
H54_4 C69_4 1_555 1_555
C70_4 N2_4 1_555 1_555
H55_4 C70_4 1_555 1_555
H56_4 C70_4 1_555 1_555
C71_4 N3_4 1_555 1_555
H57_4 C71_4 1_555 1_555
H58_4 C71_4 1_555 1_555
C72_4 N3_4 1_555 1_555
H59_4 C72_4 1_555 1_555
H60_4 C72_4 1_555 1_555
C73_4 C72_4 1_555 1_555
H61_4 C73_4 1_555 1_555
H62_4 C73_4 1_555 1_555
C74_4 N4_4 1_555 1_555
H63_4 C74_4 1_555 1_555
H64_4 C74_4 1_555 1_555
C75_4 N4_4 1_555 1_555
H65_4 C75_4 1_555 1_555
H66_4 C75_4 1_555 1_555
C76_4 N1_4 1_555 1_555
H67_4 C76_4 1_555 1_555
H68_4 C76_4 1_555 1_555
N9_4 Ni5_2 1_555 1_555
N10_4 Ni5_2 1_555 1_555
N11_4 Ni5_2 1_555 1_555
N12_4 Ni5_2 1_555 1_555
C87_4 N9_4 1_555 1_555
H89_4 C87_4 1_555 1_555
H90_4 C87_4 1_555 1_555
C88_4 C87_4 1_555 1_555
H91_4 C88_4 1_555 1_555
H92_4 C88_4 1_555 1_555
C89_4 N10_4 1_555 1_555
H93_4 C89_4 1_555 1_555
H94_4 C89_4 1_555 1_555
C90_4 N10_4 1_555 1_555
H95_4 C90_4 1_555 1_555
H96_4 C90_4 1_555 1_555
C91_4 N11_4 1_555 1_555
H97_4 C91_4 1_555 1_555
H98_4 C91_4 1_555 1_555
C92_4 N11_4 1_555 1_555
H99_4 C92_4 1_555 1_555
H100_4 C92_4 1_555 1_555
C93_4 C92_4 1_555 1_555
H101_4 C93_4 1_555 1_555
H102_4 C93_4 1_555 1_555
C94_4 N12_4 1_555 1_555
H103_4 C94_4 1_555 1_555
H104_4 C94_4 1_555 1_555
C95_4 N12_4 1_555 1_555
H105_4 C95_4 1_555 1_555
H106_4 C95_4 1_555 1_555
C96_4 N9_4 1_555 1_555
H107_4 C96_4 1_555 1_555
H108_4 C96_4 1_555 1_555
N13_4 Ni6_2 1_555 1_555
N16_4 Ni6_2 1_555 1_555
H119_4 C102_4 1_555 1_555
H120_4 C102_4 1_555 1_555
C103_4 C102_4 1_555 1_555
H121_4 C103_4 1_555 1_555
H122_4 C103_4 1_555 1_555
C104_4 N16_4 1_555 1_555
H123_4 C104_4 1_555 1_555
H124_4 C104_4 1_555 1_555
C105_4 N16_4 1_555 1_555
H125_4 C105_4 1_555 1_555
H126_4 C105_4 1_555 1_555
C106_4 N13_4 1_555 1_555
H127_4 C106_4 1_555 1_555
H128_4 C106_4 1_555 1_555
C17_4 C18_4 1_555 1_555
C24_4 C25_4 1_555 1_555
C42_4 C45_4 1_555 1_555
C43_4 C44_4 1_555 1_555
C50_4 C51_4 1_555 1_555
C57_4 C58_4 1_555 1_555
C64_4 C65_4 1_555 1_555
C68_4 C69_4 1_555 1_555
C70_4 C71_4 1_555 1_555
C73_4 C74_4 1_555 1_555
C75_4 C76_4 1_555 1_555
C88_4 C89_4 1_555 1_555
C90_4 C91_4 1_555 1_555
C93_4 C94_4 1_555 1_555
C95_4 C96_4 1_555 1_555
C103_4 C104_4 1_555 1_555
C105_4 C106_4 1_555 1_555
N1_4 H273_4 1_555 1_555
N2_4 H274_4 1_555 1_555
N3_4 H275_4 1_555 1_555
N4_4 H276_4 1_555 1_555
N9_4 H281_4 1_555 1_555
N10_4 H282_4 1_555 1_555
N11_4 H283_4 1_555 1_555
N12_4 H284_4 1_555 1_555
N13_4 H285_4 1_555 1_555
N16_4 H287_4 1_555 1_555
H109_4 C97_4 1_555 1_555
H110_4 C97_4 1_555 1_555
C98_4 C97_4 1_555 1_555
H111_4 C98_4 1_555 1_555
H112_4 C98_4 1_555 1_555
C99_4 N14_4 1_555 1_555
H113_4 C99_4 1_555 1_555
H114_4 C99_4 1_555 1_555
C100_4 N14_4 1_555 1_555
H115_4 C100_4 1_555 1_555
H116_4 C100_4 1_555 1_555
C101_4 N15_4 1_555 1_555
H117_4 C101_4 1_555 1_555
H118_4 C101_4 1_555 1_555
C98_4 C99_4 1_555 1_555
C100_4 C101_4 1_555 1_555
N14_4 H286_4 1_555 1_555
N15_4 H288_4 1_555 1_555
O34 C125 1_555 1_555
C119 O29 1_555 1_555
C123 C122 1_555 1_555
H143 C123 1_555 1_555
C124 C119 1_555 1_555
H144 C124 1_555 1_555
C125 C122 1_555 1_555
H183 C176 1_555 1_555
H184 C176 1_555 1_555
C177 N19 1_555 1_555
H185 C177 1_555 1_555
H186 C177 1_555 1_555
C178 N19 1_555 1_555
H187 C178 1_555 1_555
H188 C178 1_555 1_555
C179 C178 1_555 1_555
H189 C179 1_555 1_555
H190 C179 1_555 1_555
H191 C180 1_555 1_555
H192 C180 1_555 1_555
C123 C124 1_555 1_555
C176 C177 1_555 1_555
C179 C180 1_555 1_555
N19 H259 1_555 1_555
Ni10 O36 1_555 1_555
O30 C110 1_555 1_555
O36 C132 1_555 1_555
O37 C132 1_555 1_555
H133 C110 1_555 1_555
H134 C110 1_555 1_555
C126 O30 1_555 1_555
C127 C126 1_555 1_555
H145 C127 1_555 1_555
C128 C127 1_555 1_555
H146 C128 1_555 1_555
C129 C128 1_555 1_555
C130 C129 1_555 1_555
H147 C130 1_555 1_555
C131 C126 1_555 1_555
H148 C131 1_555 1_555
C132 C129 1_555 1_555
N25 Ni10 1_555 1_555
N26 Ni10 1_555 1_555
N27 Ni10 1_555 1_555
N28 Ni10 1_555 1_555
C193 N25 1_555 1_555
H217 C193 1_555 1_555
H218 C193 1_555 1_555
C194 C193 1_555 1_555
H219 C194 1_555 1_555
H220 C194 1_555 1_555
C195 N26 1_555 1_555
H221 C195 1_555 1_555
H222 C195 1_555 1_555
C196 N26 1_555 1_555
H223 C196 1_555 1_555
H224 C196 1_555 1_555
C197 N27 1_555 1_555
H225 C197 1_555 1_555
H226 C197 1_555 1_555
C198 N27 1_555 1_555
H227 C198 1_555 1_555
H228 C198 1_555 1_555
C199 C198 1_555 1_555
H229 C199 1_555 1_555
H230 C199 1_555 1_555
C200 N28 1_555 1_555
H231 C200 1_555 1_555
H232 C200 1_555 1_555
C201 N28 1_555 1_555
H233 C201 1_555 1_555
H234 C201 1_555 1_555
C202 N25 1_555 1_555
H235 C202 1_555 1_555
H236 C202 1_555 1_555
O54 Ni10 1_555 1_555
C130 C131 1_555 1_555
C194 C195 1_555 1_555
C196 C197 1_555 1_555
C199 C200 1_555 1_555
C201 C202 1_555 1_555
N25 H264 1_555 1_555
N26 H265 1_555 1_555
N28 H266 1_555 1_555
N27 H267 1_555 1_555
Ni9 O39 1_555 1_555
Ni11 O47 1_555 1_555
O31 C111 1_555 1_555
O38 C139 1_555 1_555
O39 C139 1_555 1_555
O40 C141 1_555 1_555
O41 C143 1_555 1_555
O42 C144 1_555 1_555
O43 C142 1_555 1_555
O44 Ni9 1_555 1_555
O45 C151 1_555 1_555
O46 C158 1_555 1_555
O47 C158 1_555 1_555
O48 C165 1_555 1_555
O49 C165 1_555 1_555
O54 C172 1_555 1_555
O51 C172 1_555 1_555
H135 C111 1_555 1_555
H136 C111 1_555 1_555
C133 O31 1_555 1_555
C134 C133 1_555 1_555
H149 C134 1_555 1_555
C135 C134 1_555 1_555
H150 C135 1_555 1_555
C136 C135 1_555 1_555
C137 C136 1_555 1_555
H151 C137 1_555 1_555
C138 C133 1_555 1_555
H152 C138 1_555 1_555
C139 C136 1_555 1_555
C140 C141 1_555 1_555
C141 H153 1_555 1_555
H154 C141 1_555 1_555
C142 C140 1_555 1_555
H155 C142 1_555 1_555
H156 C142 1_555 1_555
C143 C140 1_555 1_555
H157 C143 1_555 1_555
H158 C143 1_555 1_555
C144 C140 1_555 1_555
H159 C144 1_555 1_555
H160 C144 1_555 1_555
C145 O40 1_555 1_555
C146 C145 1_555 1_555
H161 C146 1_555 1_555
C147 C146 1_555 1_555
H162 C147 1_555 1_555
C148 C147 1_555 1_555
C149 C148 1_555 1_555
H163 C149 1_555 1_555
C150 C145 1_555 1_555
H164 C150 1_555 1_555
C151 O44 1_555 1_555
C152 O43 1_555 1_555
C153 C152 1_555 1_555
H165 C153 1_555 1_555
C154 C153 1_555 1_555
H166 C154 1_555 1_555
C155 C154 1_555 1_555
C156 C155 1_555 1_555
H167 C156 1_555 1_555
C157 C152 1_555 1_555
H168 C157 1_555 1_555
C158 C155 1_555 1_555
C159 O41 1_555 1_555
C160 C159 1_555 1_555
H169 C160 1_555 1_555
C161 C160 1_555 1_555
H170 C161 1_555 1_555
C162 C161 1_555 1_555
C163 C162 1_555 1_555
H171 C163 1_555 1_555
C164 C159 1_555 1_555
H172 C164 1_555 1_555
C165 C162 1_555 1_555
C166 O42 1_555 1_555
C167 C166 1_555 1_555
H173 C167 1_555 1_555
C168 C167 1_555 1_555
H174 C168 1_555 1_555
C169 C168 1_555 1_555
C170 C169 1_555 1_555
H175 C170 1_555 1_555
C171 C166 1_555 1_555
H176 C171 1_555 1_555
C172 C169 1_555 1_555
N21 Ni9 1_555 1_555
N22 Ni9 1_555 1_555
N23 Ni9 1_555 1_555
N24 Ni9 1_555 1_555
C183 N21 1_555 1_555
H197 C183 1_555 1_555
H198 C183 1_555 1_555
C184 C183 1_555 1_555
H199 C184 1_555 1_555
H200 C184 1_555 1_555
C185 N22 1_555 1_555
H201 C185 1_555 1_555
H202 C185 1_555 1_555
C186 N22 1_555 1_555
H203 C186 1_555 1_555
H204 C186 1_555 1_555
C187 N23 1_555 1_555
H205 C187 1_555 1_555
H206 C187 1_555 1_555
C188 N23 1_555 1_555
H207 C188 1_555 1_555
H208 C188 1_555 1_555
C189 C188 1_555 1_555
H209 C189 1_555 1_555
H210 C189 1_555 1_555
C190 N24 1_555 1_555
H211 C190 1_555 1_555
H212 C190 1_555 1_555
C191 N24 1_555 1_555
H213 C191 1_555 1_555
H214 C191 1_555 1_555
C192 N21 1_555 1_555
H215 C192 1_555 1_555
H216 C192 1_555 1_555
N29 Ni11 1_555 1_555
N30 Ni11 1_555 1_555
N31 Ni11 1_555 1_555
N32 Ni11 1_555 1_555
C203 N29 1_555 1_555
H237 C203 1_555 1_555
H238 C203 1_555 1_555
C204 C203 1_555 1_555
H239 C204 1_555 1_555
C205 N30 1_555 1_555
H240 C205 1_555 1_555
H241 C205 1_555 1_555
C206 N30 1_555 1_555
H242 C206 1_555 1_555
H243 C206 1_555 1_555
C207 N31 1_555 1_555
H244 C207 1_555 1_555
H245 C207 1_555 1_555
C208 N31 1_555 1_555
H246 C208 1_555 1_555
H247 C208 1_555 1_555
C209 C208 1_555 1_555
H248 C209 1_555 1_555
H249 C209 1_555 1_555
C210 N32 1_555 1_555
H250 C210 1_555 1_555
H251 C210 1_555 1_555
C211 N32 1_555 1_555
H252 C211 1_555 1_555
H253 C211 1_555 1_555
C212 N29 1_555 1_555
H254 C212 1_555 1_555
H255 C212 1_555 1_555
Ni14 O49 1_555 1_555
O53 Ni11 1_555 1_555
C137 C138 1_555 1_555
C148 C151 1_555 1_555
C149 C150 1_555 1_555
C156 C157 1_555 1_555
C163 C164 1_555 1_555
C170 C171 1_555 1_555
C184 C185 1_555 1_555
C186 C187 1_555 1_555
C189 C190 1_555 1_555
C191 C192 1_555 1_555
C204 C205 1_555 1_555
C206 C207 1_555 1_555
C209 C210 1_555 1_555
C211 C212 1_555 1_555
N21 H260 1_555 1_555
N22 H261 1_555 1_555
N23 H262 1_555 1_555
N24 H263 1_555 1_555
C204 H268 1_555 1_555
N31 H269 1_555 1_555
N29 H270 1_555 1_555
N30 H271 1_555 1_555
N32 H272 1_555 1_555
O48_2 C165_2 1_555 1_555
O53 C165_2 1_555 1_555
C163_2 C162_2 1_555 1_555
H171_2 C163_2 1_555 1_555
C165_2 C162_2 1_555 1_555
Ni14 O47_2 1_555 1_555
O41_2 C143_2 1_555 1_555
O43_2 C142_2 1_555 1_555
O46_2 C158_2 1_555 1_555
O47_2 C158_2 1_555 1_555
H155_2 C142_2 1_555 1_555
H156_2 C142_2 1_555 1_555
H157_2 C143_2 1_555 1_555
H158_2 C143_2 1_555 1_555
C152_2 O43_2 1_555 1_555
C153_2 C152_2 1_555 1_555
C154_2 C153_2 1_555 1_555
H166_2 C154_2 1_555 1_555
C155_2 C154_2 1_555 1_555
C156_2 C155_2 1_555 1_555
H167_2 C156_2 1_555 1_555
C157_2 C152_2 1_555 1_555
H168_2 C157_2 1_555 1_555
C158_2 C155_2 1_555 1_555
C159_2 O41_2 1_555 1_555
C160_2 C159_2 1_555 1_555
H169_2 C160_2 1_555 1_555
C161_2 C160_2 1_555 1_555
H170_2 C161_2 1_555 1_555
C164_2 C159_2 1_555 1_555
H172_2 C164_2 1_555 1_555
N29_2 Ni14 1_555 1_555
N30_2 Ni14 1_555 1_555
N31_2 Ni14 1_555 1_555
N32_2 Ni14 1_555 1_555
C203_2 N29_2 1_555 1_555
H237_2 C203_2 1_555 1_555
H238_2 C203_2 1_555 1_555
C204_2 C203_2 1_555 1_555
H239_2 C204_2 1_555 1_555
C205_2 N30_2 1_555 1_555
H240_2 C205_2 1_555 1_555
H241_2 C205_2 1_555 1_555
C206_2 N30_2 1_555 1_555
H242_2 C206_2 1_555 1_555
H243_2 C206_2 1_555 1_555
C207_2 N31_2 1_555 1_555
H244_2 C207_2 1_555 1_555
H245_2 C207_2 1_555 1_555
C208_2 N31_2 1_555 1_555
H246_2 C208_2 1_555 1_555
H247_2 C208_2 1_555 1_555
C209_2 C208_2 1_555 1_555
H248_2 C209_2 1_555 1_555
H249_2 C209_2 1_555 1_555
C210_2 N32_2 1_555 1_555
H250_2 C210_2 1_555 1_555
H251_2 C210_2 1_555 1_555
C211_2 N32_2 1_555 1_555
H252_2 C211_2 1_555 1_555
H253_2 C211_2 1_555 1_555
C212_2 N29_2 1_555 1_555
H254_2 C212_2 1_555 1_555
H255_2 C212_2 1_555 1_555
C156_2 C157_2 1_555 1_555
C204_2 C205_2 1_555 1_555
C206_2 C207_2 1_555 1_555
C209_2 C210_2 1_555 1_555
C211_2 C212_2 1_555 1_555
C204_2 H268_2 1_555 1_555
N31_2 H269_2 1_555 1_555
N29_2 H270_2 1_555 1_555
N30_2 H271_2 1_555 1_555
N32_2 H272_2 1_555 1_555
Ni8 O32 1_555 1_555
O28 C108 1_555 1_555
O32 C118 1_555 1_555
O33 C118 1_555 1_555
C107 C108 1_555 1_555
C108 H129 1_555 1_555
C109 C107 1_555 1_555
H131 C109 1_555 1_555
H132 C109 1_555 1_555
C112 O28 1_555 1_555
C113 C112 1_555 1_555
H137 C113 1_555 1_555
C114 C113 1_555 1_555
H138 C114 1_555 1_555
C115 C114 1_555 1_555
C116 C115 1_555 1_555
H139 C116 1_555 1_555
C117 C112 1_555 1_555
C118 C115 1_555 1_555
H141 C120 1_555 1_555
C121 C120 1_555 1_555
H142 C121 1_555 1_555
N17 Ni8 1_555 1_555
N18 Ni8 1_555 1_555
N20 Ni8 1_555 1_555
C173 N17 1_555 1_555
H177 C173 1_555 1_555
H178 C173 1_555 1_555
C174 C173 1_555 1_555
H179 C174 1_555 1_555
H180 C174 1_555 1_555
C175 N18 1_555 1_555
H181 C175 1_555 1_555
H182 C175 1_555 1_555
C181 N20 1_555 1_555
H193 C181 1_555 1_555
H194 C181 1_555 1_555
C182 N17 1_555 1_555
H195 C182 1_555 1_555
H196 C182 1_555 1_555
Ni12 O35 1_555 1_555
O52 Ni8 1_555 1_555
C116 C117 1_555 1_555
C174 C175 1_555 1_555
C181 C182 1_555 1_555
N17 H257 1_555 1_555
N18 H258 1_555 1_555
Ni10_2 O36_2 1_555 1_555
O30_2 C110_2 1_555 1_555
O34_2 C125_2 1_555 1_555
O36_2 C132_2 1_555 1_555
O37_2 C132_2 1_555 1_555
H133_2 C110_2 1_555 1_555
H134_2 C110_2 1_555 1_555
C119_2 O29_2 1_555 1_555
C123_2 C122_2 1_555 1_555
H143_2 C123_2 1_555 1_555
C124_2 C119_2 1_555 1_555
H144_2 C124_2 1_555 1_555
C125_2 C122_2 1_555 1_555
C126_2 O30_2 1_555 1_555
C127_2 C126_2 1_555 1_555
H145_2 C127_2 1_555 1_555
C128_2 C127_2 1_555 1_555
H146_2 C128_2 1_555 1_555
C129_2 C128_2 1_555 1_555
C130_2 C129_2 1_555 1_555
H147_2 C130_2 1_555 1_555
C131_2 C126_2 1_555 1_555
H148_2 C131_2 1_555 1_555
C132_2 C129_2 1_555 1_555
N25_2 Ni10_2 1_555 1_555
N26_2 Ni10_2 1_555 1_555
N27_2 Ni10_2 1_555 1_555
N28_2 Ni10_2 1_555 1_555
C193_2 N25_2 1_555 1_555
H217_2 C193_2 1_555 1_555
H218_2 C193_2 1_555 1_555
C194_2 C193_2 1_555 1_555
H219_2 C194_2 1_555 1_555
H220_2 C194_2 1_555 1_555
C195_2 N26_2 1_555 1_555
H221_2 C195_2 1_555 1_555
H222_2 C195_2 1_555 1_555
C196_2 N26_2 1_555 1_555
H223_2 C196_2 1_555 1_555
H224_2 C196_2 1_555 1_555
C197_2 N27_2 1_555 1_555
H225_2 C197_2 1_555 1_555
H226_2 C197_2 1_555 1_555
C198_2 N27_2 1_555 1_555
H227_2 C198_2 1_555 1_555
H228_2 C198_2 1_555 1_555
C199_2 C198_2 1_555 1_555
H229_2 C199_2 1_555 1_555
H230_2 C199_2 1_555 1_555
C200_2 N28_2 1_555 1_555
H231_2 C200_2 1_555 1_555
H232_2 C200_2 1_555 1_555
C201_2 N28_2 1_555 1_555
H233_2 C201_2 1_555 1_555
H234_2 C201_2 1_555 1_555
C202_2 N25_2 1_555 1_555
H235_2 C202_2 1_555 1_555
H236_2 C202_2 1_555 1_555
O54_2 Ni10_2 1_555 1_555
C123_2 C124_2 1_555 1_555
C130_2 C131_2 1_555 1_555
C194_2 C195_2 1_555 1_555
C196_2 C197_2 1_555 1_555
C199_2 C200_2 1_555 1_555
C201_2 C202_2 1_555 1_555
N25_2 H264_2 1_555 1_555
N26_2 H265_2 1_555 1_555
N28_2 H266_2 1_555 1_555
N27_2 H267_2 1_555 1_555
Ni12 O32_2 1_555 1_555
O32_2 C118_2 1_555 1_555
O33_2 C118_2 1_555 1_555
C116_2 C115_2 1_555 1_555
H139_2 C116_2 1_555 1_555
C118_2 C115_2 1_555 1_555
N17_2 Ni12 1_555 1_555
N18_2 Ni12 1_555 1_555
N20_2 Ni12 1_555 1_555
C173_2 N17_2 1_555 1_555
H177_2 C173_2 1_555 1_555
H178_2 C173_2 1_555 1_555
C174_2 C173_2 1_555 1_555
H179_2 C174_2 1_555 1_555
H180_2 C174_2 1_555 1_555
C175_2 N18_2 1_555 1_555
H181_2 C175_2 1_555 1_555
H182_2 C175_2 1_555 1_555
C181_2 N20_2 1_555 1_555
H193_2 C181_2 1_555 1_555
H194_2 C181_2 1_555 1_555
C182_2 N17_2 1_555 1_555
H195_2 C182_2 1_555 1_555
H196_2 C182_2 1_555 1_555
C174_2 C175_2 1_555 1_555
C181_2 C182_2 1_555 1_555
N17_2 H257_2 1_555 1_555
N18_2 H258_2 1_555 1_555
Ni9_2 O39_2 1_555 1_555
O28_2 C108_2 1_555 1_555
O31_2 C111_2 1_555 1_555
O38_2 C139_2 1_555 1_555
O39_2 C139_2 1_555 1_555
O40_2 C141_2 1_555 1_555
O42_2 C144_2 1_555 1_555
O44_2 Ni9_2 1_555 1_555
O45_2 C151_2 1_555 1_555
O54_2 C172_2 1_555 1_555
O51_2 C172_2 1_555 1_555
C107_2 C108_2 1_555 1_555
C108_2 H129_2 1_555 1_555
C109_2 C107_2 1_555 1_555
H131_2 C109_2 1_555 1_555
H132_2 C109_2 1_555 1_555
C111_2 C107_2 1_555 1_555
H135_2 C111_2 1_555 1_555
H136_2 C111_2 1_555 1_555
C112_2 O28_2 1_555 1_555
C113_2 C112_2 1_555 1_555
H137_2 C113_2 1_555 1_555
C114_2 C113_2 1_555 1_555
H138_2 C114_2 1_555 1_555
C117_2 C112_2 1_555 1_555
H141_2 C120_2 1_555 1_555
C121_2 C120_2 1_555 1_555
H142_2 C121_2 1_555 1_555
C133_2 O31_2 1_555 1_555
C134_2 C133_2 1_555 1_555
H149_2 C134_2 1_555 1_555
C135_2 C134_2 1_555 1_555
C136_2 C135_2 1_555 1_555
C137_2 C136_2 1_555 1_555
H151_2 C137_2 1_555 1_555
C138_2 C133_2 1_555 1_555
H152_2 C138_2 1_555 1_555
C139_2 C136_2 1_555 1_555
C140_2 C141_2 1_555 1_555
C141_2 H153_2 1_555 1_555
H154_2 C141_2 1_555 1_555
C144_2 C140_2 1_555 1_555
H159_2 C144_2 1_555 1_555
H160_2 C144_2 1_555 1_555
C145_2 O40_2 1_555 1_555
C146_2 C145_2 1_555 1_555
H161_2 C146_2 1_555 1_555
C147_2 C146_2 1_555 1_555
H162_2 C147_2 1_555 1_555
C148_2 C147_2 1_555 1_555
C149_2 C148_2 1_555 1_555
H163_2 C149_2 1_555 1_555
C150_2 C145_2 1_555 1_555
C151_2 O44_2 1_555 1_555
C166_2 O42_2 1_555 1_555
C167_2 C166_2 1_555 1_555
H173_2 C167_2 1_555 1_555
C168_2 C167_2 1_555 1_555
H174_2 C168_2 1_555 1_555
C169_2 C168_2 1_555 1_555
C170_2 C169_2 1_555 1_555
H175_2 C170_2 1_555 1_555
C171_2 C166_2 1_555 1_555
H176_2 C171_2 1_555 1_555
C172_2 C169_2 1_555 1_555
N21_2 Ni9_2 1_555 1_555
N22_2 Ni9_2 1_555 1_555
N23_2 Ni9_2 1_555 1_555
N24_2 Ni9_2 1_555 1_555
C183_2 N21_2 1_555 1_555
H197_2 C183_2 1_555 1_555
H198_2 C183_2 1_555 1_555
C184_2 C183_2 1_555 1_555
H199_2 C184_2 1_555 1_555
H200_2 C184_2 1_555 1_555
C185_2 N22_2 1_555 1_555
H202_2 C185_2 1_555 1_555
C186_2 N22_2 1_555 1_555
H203_2 C186_2 1_555 1_555
H204_2 C186_2 1_555 1_555
C187_2 N23_2 1_555 1_555
H205_2 C187_2 1_555 1_555
H206_2 C187_2 1_555 1_555
C188_2 N23_2 1_555 1_555
H207_2 C188_2 1_555 1_555
H208_2 C188_2 1_555 1_555
C189_2 C188_2 1_555 1_555
H209_2 C189_2 1_555 1_555
H210_2 C189_2 1_555 1_555
C190_2 N24_2 1_555 1_555
H211_2 C190_2 1_555 1_555
H212_2 C190_2 1_555 1_555
C191_2 N24_2 1_555 1_555
H213_2 C191_2 1_555 1_555
H214_2 C191_2 1_555 1_555
C192_2 N21_2 1_555 1_555
H215_2 C192_2 1_555 1_555
H216_2 C192_2 1_555 1_555
C137_2 C138_2 1_555 1_555
C148_2 C151_2 1_555 1_555
C149_2 C150_2 1_555 1_555
C170_2 C171_2 1_555 1_555
C184_2 C185_2 1_555 1_555
C186_2 C187_2 1_555 1_555
C189_2 C190_2 1_555 1_555
C191_2 C192_2 1_555 1_555
N21_2 H260_2 1_555 1_555
N22_2 H261_2 1_555 1_555
N23_2 H262_2 1_555 1_555
N24_2 H263_2 1_555 1_555
Ni9_3 O39_3 1_555 1_555
O28_3 C108_3 1_555 1_555
O31_3 C111_3 1_555 1_555
O38_3 C139_3 1_555 1_555
O39_3 C139_3 1_555 1_555
O40_3 C141_3 1_555 1_555
O42_3 C144_3 1_555 1_555
O44_3 Ni9_3 1_555 1_555
O45_3 C151_3 1_555 1_555
O50 C172_3 1_555 1_555
O51_3 C172_3 1_555 1_555
C107_3 C108_3 1_555 1_555
C108_3 H129_3 1_555 1_555
C109_3 C107_3 1_555 1_555
H131_3 C109_3 1_555 1_555
H132_3 C109_3 1_555 1_555
C111_3 C107_3 1_555 1_555
H135_3 C111_3 1_555 1_555
H136_3 C111_3 1_555 1_555
C112_3 O28_3 1_555 1_555
C113_3 C112_3 1_555 1_555
H137_3 C113_3 1_555 1_555
C114_3 C113_3 1_555 1_555
H138_3 C114_3 1_555 1_555
C117_3 C112_3 1_555 1_555
H141_3 C120_3 1_555 1_555
C121_3 C120_3 1_555 1_555
H142_3 C121_3 1_555 1_555
C133_3 O31_3 1_555 1_555
C134_3 C133_3 1_555 1_555
H149_3 C134_3 1_555 1_555
C135_3 C134_3 1_555 1_555
C136_3 C135_3 1_555 1_555
C137_3 C136_3 1_555 1_555
H151_3 C137_3 1_555 1_555
C138_3 C133_3 1_555 1_555
H152_3 C138_3 1_555 1_555
C139_3 C136_3 1_555 1_555
C140_3 C141_3 1_555 1_555
C141_3 H153_3 1_555 1_555
H154_3 C141_3 1_555 1_555
C144_3 C140_3 1_555 1_555
H159_3 C144_3 1_555 1_555
H160_3 C144_3 1_555 1_555
C145_3 O40_3 1_555 1_555
C146_3 C145_3 1_555 1_555
H161_3 C146_3 1_555 1_555
C147_3 C146_3 1_555 1_555
H162_3 C147_3 1_555 1_555
C148_3 C147_3 1_555 1_555
C149_3 C148_3 1_555 1_555
H163_3 C149_3 1_555 1_555
C150_3 C145_3 1_555 1_555
C151_3 O44_3 1_555 1_555
C166_3 O42_3 1_555 1_555
C167_3 C166_3 1_555 1_555
H173_3 C167_3 1_555 1_555
C168_3 C167_3 1_555 1_555
H174_3 C168_3 1_555 1_555
C169_3 C168_3 1_555 1_555
C170_3 C169_3 1_555 1_555
H175_3 C170_3 1_555 1_555
C171_3 C166_3 1_555 1_555
H176_3 C171_3 1_555 1_555
C172_3 C169_3 1_555 1_555
N21_3 Ni9_3 1_555 1_555
N22_3 Ni9_3 1_555 1_555
N23_3 Ni9_3 1_555 1_555
N24_3 Ni9_3 1_555 1_555
C183_3 N21_3 1_555 1_555
H197_3 C183_3 1_555 1_555
H198_3 C183_3 1_555 1_555
C184_3 C183_3 1_555 1_555
H199_3 C184_3 1_555 1_555
H200_3 C184_3 1_555 1_555
C185_3 N22_3 1_555 1_555
H202_3 C185_3 1_555 1_555
C186_3 N22_3 1_555 1_555
H203_3 C186_3 1_555 1_555
H204_3 C186_3 1_555 1_555
C187_3 N23_3 1_555 1_555
H205_3 C187_3 1_555 1_555
H206_3 C187_3 1_555 1_555
C188_3 N23_3 1_555 1_555
H207_3 C188_3 1_555 1_555
H208_3 C188_3 1_555 1_555
C189_3 C188_3 1_555 1_555
H209_3 C189_3 1_555 1_555
H210_3 C189_3 1_555 1_555
C190_3 N24_3 1_555 1_555
H211_3 C190_3 1_555 1_555
H212_3 C190_3 1_555 1_555
C191_3 N24_3 1_555 1_555
H213_3 C191_3 1_555 1_555
H214_3 C191_3 1_555 1_555
C192_3 N21_3 1_555 1_555
H215_3 C192_3 1_555 1_555
H216_3 C192_3 1_555 1_555
Ni12_2 O35_2 1_555 1_555
Ni13 O50 1_555 1_555
C137_3 C138_3 1_555 1_555
C148_3 C151_3 1_555 1_555
C149_3 C150_3 1_555 1_555
C170_3 C171_3 1_555 1_555
C184_3 C185_3 1_555 1_555
C186_3 C187_3 1_555 1_555
C189_3 C190_3 1_555 1_555
C191_3 C192_3 1_555 1_555
N21_3 H260_3 1_555 1_555
N22_3 H261_3 1_555 1_555
N23_3 H262_3 1_555 1_555
N24_3 H263_3 1_555 1_555
Ni8_2 O32_3 1_555 1_555
O32_3 C118_3 1_555 1_555
O33_3 C118_3 1_555 1_555
C116_3 C115_3 1_555 1_555
H139_3 C116_3 1_555 1_555
C118_3 C115_3 1_555 1_555
N17_3 Ni8_2 1_555 1_555
N18_3 Ni8_2 1_555 1_555
N20_3 Ni8_2 1_555 1_555
C173_3 N17_3 1_555 1_555
H177_3 C173_3 1_555 1_555
H178_3 C173_3 1_555 1_555
C174_3 C173_3 1_555 1_555
H179_3 C174_3 1_555 1_555
H180_3 C174_3 1_555 1_555
C175_3 N18_3 1_555 1_555
H181_3 C175_3 1_555 1_555
H182_3 C175_3 1_555 1_555
C181_3 N20_3 1_555 1_555
H193_3 C181_3 1_555 1_555
H194_3 C181_3 1_555 1_555
C182_3 N17_3 1_555 1_555
H195_3 C182_3 1_555 1_555
H196_3 C182_3 1_555 1_555
O52_2 Ni8_2 1_555 1_555
C174_3 C175_3 1_555 1_555
C181_3 C182_3 1_555 1_555
N17_3 H257_3 1_555 1_555
N18_3 H258_3 1_555 1_555
Ni13 O36_3 1_555 1_555
O30_3 C110_3 1_555 1_555
O34_3 C125_3 1_555 1_555
O36_3 C132_3 1_555 1_555
O37_3 C132_3 1_555 1_555
H133_3 C110_3 1_555 1_555
H134_3 C110_3 1_555 1_555
C119_3 O29_3 1_555 1_555
C123_3 C122_3 1_555 1_555
H143_3 C123_3 1_555 1_555
C124_3 C119_3 1_555 1_555
H144_3 C124_3 1_555 1_555
C125_3 C122_3 1_555 1_555
C126_3 O30_3 1_555 1_555
C127_3 C126_3 1_555 1_555
H145_3 C127_3 1_555 1_555
C128_3 C127_3 1_555 1_555
H146_3 C128_3 1_555 1_555
C129_3 C128_3 1_555 1_555
C130_3 C129_3 1_555 1_555
H147_3 C130_3 1_555 1_555
C131_3 C126_3 1_555 1_555
H148_3 C131_3 1_555 1_555
C132_3 C129_3 1_555 1_555
N25_3 Ni13 1_555 1_555
N26_3 Ni13 1_555 1_555
N27_3 Ni13 1_555 1_555
N28_3 Ni13 1_555 1_555
C193_3 N25_3 1_555 1_555
H217_3 C193_3 1_555 1_555
H218_3 C193_3 1_555 1_555
C194_3 C193_3 1_555 1_555
H219_3 C194_3 1_555 1_555
H220_3 C194_3 1_555 1_555
C195_3 N26_3 1_555 1_555
H221_3 C195_3 1_555 1_555
H222_3 C195_3 1_555 1_555
C196_3 N26_3 1_555 1_555
H223_3 C196_3 1_555 1_555
H224_3 C196_3 1_555 1_555
C197_3 N27_3 1_555 1_555
H225_3 C197_3 1_555 1_555
H226_3 C197_3 1_555 1_555
C198_3 N27_3 1_555 1_555
H227_3 C198_3 1_555 1_555
H228_3 C198_3 1_555 1_555
C199_3 C198_3 1_555 1_555
H229_3 C199_3 1_555 1_555
H230_3 C199_3 1_555 1_555
C200_3 N28_3 1_555 1_555
H231_3 C200_3 1_555 1_555
H232_3 C200_3 1_555 1_555
C201_3 N28_3 1_555 1_555
H233_3 C201_3 1_555 1_555
H234_3 C201_3 1_555 1_555
C202_3 N25_3 1_555 1_555
H235_3 C202_3 1_555 1_555
H236_3 C202_3 1_555 1_555
C123_3 C124_3 1_555 1_555
C130_3 C131_3 1_555 1_555
C194_3 C195_3 1_555 1_555
C196_3 C197_3 1_555 1_555
C199_3 C200_3 1_555 1_555
C201_3 C202_3 1_555 1_555
N25_3 H264_3 1_555 1_555
N26_3 H265_3 1_555 1_555
N28_3 H266_3 1_555 1_555
N27_3 H267_3 1_555 1_555
Ni12_2 O32_4 1_555 1_555
O28_4 C108_4 1_555 1_555
O32_4 C118_4 1_555 1_555
O33_4 C118_4 1_555 1_555
C107_4 C108_4 1_555 1_555
C108_4 H129_4 1_555 1_555
C109_4 C107_4 1_555 1_555
H131_4 C109_4 1_555 1_555
H132_4 C109_4 1_555 1_555
C112_4 O28_4 1_555 1_555
C113_4 C112_4 1_555 1_555
H137_4 C113_4 1_555 1_555
C114_4 C113_4 1_555 1_555
H138_4 C114_4 1_555 1_555
C115_4 C114_4 1_555 1_555
C116_4 C115_4 1_555 1_555
H139_4 C116_4 1_555 1_555
C117_4 C112_4 1_555 1_555
C118_4 C115_4 1_555 1_555
H141_4 C120_4 1_555 1_555
C121_4 C120_4 1_555 1_555
H142_4 C121_4 1_555 1_555
N17_4 Ni12_2 1_555 1_555
N18_4 Ni12_2 1_555 1_555
N20_4 Ni12_2 1_555 1_555
C173_4 N17_4 1_555 1_555
H177_4 C173_4 1_555 1_555
H178_4 C173_4 1_555 1_555
C174_4 C173_4 1_555 1_555
H179_4 C174_4 1_555 1_555
H180_4 C174_4 1_555 1_555
C175_4 N18_4 1_555 1_555
H181_4 C175_4 1_555 1_555
H182_4 C175_4 1_555 1_555
C181_4 N20_4 1_555 1_555
H193_4 C181_4 1_555 1_555
H194_4 C181_4 1_555 1_555
C182_4 N17_4 1_555 1_555
H195_4 C182_4 1_555 1_555
H196_4 C182_4 1_555 1_555
C116_4 C117_4 1_555 1_555
C174_4 C175_4 1_555 1_555
C181_4 C182_4 1_555 1_555
N17_4 H257_4 1_555 1_555
N18_4 H258_4 1_555 1_555
Ni11_2 O47_3 1_555 1_555
O41_3 C143_3 1_555 1_555
O43_3 C142_3 1_555 1_555
O46_3 C158_3 1_555 1_555
O47_3 C158_3 1_555 1_555
H155_3 C142_3 1_555 1_555
H156_3 C142_3 1_555 1_555
H157_3 C143_3 1_555 1_555
H158_3 C143_3 1_555 1_555
C152_3 O43_3 1_555 1_555
C153_3 C152_3 1_555 1_555
C154_3 C153_3 1_555 1_555
H166_3 C154_3 1_555 1_555
C155_3 C154_3 1_555 1_555
C156_3 C155_3 1_555 1_555
H167_3 C156_3 1_555 1_555
C157_3 C152_3 1_555 1_555
H168_3 C157_3 1_555 1_555
C158_3 C155_3 1_555 1_555
C159_3 O41_3 1_555 1_555
C160_3 C159_3 1_555 1_555
H169_3 C160_3 1_555 1_555
C161_3 C160_3 1_555 1_555
H170_3 C161_3 1_555 1_555
C164_3 C159_3 1_555 1_555
H172_3 C164_3 1_555 1_555
N29_3 Ni11_2 1_555 1_555
N30_3 Ni11_2 1_555 1_555
N31_3 Ni11_2 1_555 1_555
N32_3 Ni11_2 1_555 1_555
C203_3 N29_3 1_555 1_555
H237_3 C203_3 1_555 1_555
H238_3 C203_3 1_555 1_555
C204_3 C203_3 1_555 1_555
H239_3 C204_3 1_555 1_555
C205_3 N30_3 1_555 1_555
H240_3 C205_3 1_555 1_555
H241_3 C205_3 1_555 1_555
C206_3 N30_3 1_555 1_555
H242_3 C206_3 1_555 1_555
H243_3 C206_3 1_555 1_555
C207_3 N31_3 1_555 1_555
H244_3 C207_3 1_555 1_555
H245_3 C207_3 1_555 1_555
C208_3 N31_3 1_555 1_555
H246_3 C208_3 1_555 1_555
H247_3 C208_3 1_555 1_555
C209_3 C208_3 1_555 1_555
H248_3 C209_3 1_555 1_555
H249_3 C209_3 1_555 1_555
C210_3 N32_3 1_555 1_555
H250_3 C210_3 1_555 1_555
H251_3 C210_3 1_555 1_555
C211_3 N32_3 1_555 1_555
H252_3 C211_3 1_555 1_555
H253_3 C211_3 1_555 1_555
C212_3 N29_3 1_555 1_555
H254_3 C212_3 1_555 1_555
H255_3 C212_3 1_555 1_555
O53_2 Ni11_2 1_555 1_555
C156_3 C157_3 1_555 1_555
C204_3 C205_3 1_555 1_555
C206_3 C207_3 1_555 1_555
C209_3 C210_3 1_555 1_555
C211_3 C212_3 1_555 1_555
C204_3 H268_3 1_555 1_555
N31_3 H269_3 1_555 1_555
N29_3 H270_3 1_555 1_555
N30_3 H271_3 1_555 1_555
N32_3 H272_3 1_555 1_555
O48_3 C165_3 1_555 1_555
O49_2 C165_3 1_555 1_555
C163_3 C162_3 1_555 1_555
H171_3 C163_3 1_555 1_555
C165_3 C162_3 1_555 1_555
Ni14_2 O49_2 1_555 1_555
Ni9_4 O39_4 1_555 1_555
Ni14_2 O47_4 1_555 1_555
O31_4 C111_4 1_555 1_555
O38_4 C139_4 1_555 1_555
O39_4 C139_4 1_555 1_555
O40_4 C141_4 1_555 1_555
O41_4 C143_4 1_555 1_555
O42_4 C144_4 1_555 1_555
O43_4 C142_4 1_555 1_555
O44_4 Ni9_4 1_555 1_555
O45_4 C151_4 1_555 1_555
O46_4 C158_4 1_555 1_555
O47_4 C158_4 1_555 1_555
O48_4 C165_4 1_555 1_555
O53_2 C165_4 1_555 1_555
O50_2 C172_4 1_555 1_555
O51_4 C172_4 1_555 1_555
H135_4 C111_4 1_555 1_555
H136_4 C111_4 1_555 1_555
C133_4 O31_4 1_555 1_555
C134_4 C133_4 1_555 1_555
H149_4 C134_4 1_555 1_555
C135_4 C134_4 1_555 1_555
H150_4 C135_4 1_555 1_555
C136_4 C135_4 1_555 1_555
C137_4 C136_4 1_555 1_555
H151_4 C137_4 1_555 1_555
C138_4 C133_4 1_555 1_555
H152_4 C138_4 1_555 1_555
C139_4 C136_4 1_555 1_555
C140_4 C141_4 1_555 1_555
C141_4 H153_4 1_555 1_555
H154_4 C141_4 1_555 1_555
C142_4 C140_4 1_555 1_555
H155_4 C142_4 1_555 1_555
H156_4 C142_4 1_555 1_555
C143_4 C140_4 1_555 1_555
H157_4 C143_4 1_555 1_555
H158_4 C143_4 1_555 1_555
C144_4 C140_4 1_555 1_555
H159_4 C144_4 1_555 1_555
H160_4 C144_4 1_555 1_555
C145_4 O40_4 1_555 1_555
C146_4 C145_4 1_555 1_555
H161_4 C146_4 1_555 1_555
C147_4 C146_4 1_555 1_555
H162_4 C147_4 1_555 1_555
C148_4 C147_4 1_555 1_555
C149_4 C148_4 1_555 1_555
H163_4 C149_4 1_555 1_555
C150_4 C145_4 1_555 1_555
H164_4 C150_4 1_555 1_555
C151_4 O44_4 1_555 1_555
C152_4 O43_4 1_555 1_555
C153_4 C152_4 1_555 1_555
H165_4 C153_4 1_555 1_555
C154_4 C153_4 1_555 1_555
H166_4 C154_4 1_555 1_555
C155_4 C154_4 1_555 1_555
C156_4 C155_4 1_555 1_555
H167_4 C156_4 1_555 1_555
C157_4 C152_4 1_555 1_555
H168_4 C157_4 1_555 1_555
C158_4 C155_4 1_555 1_555
C159_4 O41_4 1_555 1_555
C160_4 C159_4 1_555 1_555
H169_4 C160_4 1_555 1_555
C161_4 C160_4 1_555 1_555
H170_4 C161_4 1_555 1_555
C162_4 C161_4 1_555 1_555
C163_4 C162_4 1_555 1_555
H171_4 C163_4 1_555 1_555
C164_4 C159_4 1_555 1_555
H172_4 C164_4 1_555 1_555
C165_4 C162_4 1_555 1_555
C166_4 O42_4 1_555 1_555
C167_4 C166_4 1_555 1_555
H173_4 C167_4 1_555 1_555
C168_4 C167_4 1_555 1_555
H174_4 C168_4 1_555 1_555
C169_4 C168_4 1_555 1_555
C170_4 C169_4 1_555 1_555
H175_4 C170_4 1_555 1_555
C171_4 C166_4 1_555 1_555
H176_4 C171_4 1_555 1_555
C172_4 C169_4 1_555 1_555
N21_4 Ni9_4 1_555 1_555
N22_4 Ni9_4 1_555 1_555
N23_4 Ni9_4 1_555 1_555
N24_4 Ni9_4 1_555 1_555
C183_4 N21_4 1_555 1_555
H197_4 C183_4 1_555 1_555
H198_4 C183_4 1_555 1_555
C184_4 C183_4 1_555 1_555
H199_4 C184_4 1_555 1_555
H200_4 C184_4 1_555 1_555
C185_4 N22_4 1_555 1_555
H201_4 C185_4 1_555 1_555
H202_4 C185_4 1_555 1_555
C186_4 N22_4 1_555 1_555
H203_4 C186_4 1_555 1_555
H204_4 C186_4 1_555 1_555
C187_4 N23_4 1_555 1_555
H205_4 C187_4 1_555 1_555
H206_4 C187_4 1_555 1_555
C188_4 N23_4 1_555 1_555
H207_4 C188_4 1_555 1_555
H208_4 C188_4 1_555 1_555
C189_4 C188_4 1_555 1_555
H209_4 C189_4 1_555 1_555
H210_4 C189_4 1_555 1_555
C190_4 N24_4 1_555 1_555
H211_4 C190_4 1_555 1_555
H212_4 C190_4 1_555 1_555
C191_4 N24_4 1_555 1_555
H213_4 C191_4 1_555 1_555
H214_4 C191_4 1_555 1_555
C192_4 N21_4 1_555 1_555
H215_4 C192_4 1_555 1_555
H216_4 C192_4 1_555 1_555
N29_4 Ni14_2 1_555 1_555
N30_4 Ni14_2 1_555 1_555
N31_4 Ni14_2 1_555 1_555
N32_4 Ni14_2 1_555 1_555
C203_4 N29_4 1_555 1_555
H237_4 C203_4 1_555 1_555
H238_4 C203_4 1_555 1_555
C204_4 C203_4 1_555 1_555
H239_4 C204_4 1_555 1_555
C205_4 N30_4 1_555 1_555
H240_4 C205_4 1_555 1_555
H241_4 C205_4 1_555 1_555
C206_4 N30_4 1_555 1_555
H242_4 C206_4 1_555 1_555
H243_4 C206_4 1_555 1_555
C207_4 N31_4 1_555 1_555
H244_4 C207_4 1_555 1_555
H245_4 C207_4 1_555 1_555
C208_4 N31_4 1_555 1_555
H246_4 C208_4 1_555 1_555
H247_4 C208_4 1_555 1_555
C209_4 C208_4 1_555 1_555
H248_4 C209_4 1_555 1_555
H249_4 C209_4 1_555 1_555
C210_4 N32_4 1_555 1_555
H250_4 C210_4 1_555 1_555
H251_4 C210_4 1_555 1_555
C211_4 N32_4 1_555 1_555
H252_4 C211_4 1_555 1_555
H253_4 C211_4 1_555 1_555
C212_4 N29_4 1_555 1_555
H254_4 C212_4 1_555 1_555
H255_4 C212_4 1_555 1_555
Ni13_2 O50_2 1_555 1_555
C137_4 C138_4 1_555 1_555
C148_4 C151_4 1_555 1_555
C149_4 C150_4 1_555 1_555
C156_4 C157_4 1_555 1_555
C163_4 C164_4 1_555 1_555
C170_4 C171_4 1_555 1_555
C184_4 C185_4 1_555 1_555
C186_4 C187_4 1_555 1_555
C189_4 C190_4 1_555 1_555
C191_4 C192_4 1_555 1_555
C204_4 C205_4 1_555 1_555
C206_4 C207_4 1_555 1_555
C209_4 C210_4 1_555 1_555
C211_4 C212_4 1_555 1_555
N21_4 H260_4 1_555 1_555
N22_4 H261_4 1_555 1_555
N23_4 H262_4 1_555 1_555
N24_4 H263_4 1_555 1_555
C204_4 H268_4 1_555 1_555
N31_4 H269_4 1_555 1_555
N29_4 H270_4 1_555 1_555
N30_4 H271_4 1_555 1_555
N32_4 H272_4 1_555 1_555
Ni13_2 O36_4 1_555 1_555
O30_4 C110_4 1_555 1_555
O36_4 C132_4 1_555 1_555
O37_4 C132_4 1_555 1_555
H133_4 C110_4 1_555 1_555
H134_4 C110_4 1_555 1_555
C126_4 O30_4 1_555 1_555
C127_4 C126_4 1_555 1_555
H145_4 C127_4 1_555 1_555
C128_4 C127_4 1_555 1_555
H146_4 C128_4 1_555 1_555
C129_4 C128_4 1_555 1_555
C130_4 C129_4 1_555 1_555
H147_4 C130_4 1_555 1_555
C131_4 C126_4 1_555 1_555
H148_4 C131_4 1_555 1_555
C132_4 C129_4 1_555 1_555
N25_4 Ni13_2 1_555 1_555
N26_4 Ni13_2 1_555 1_555
N27_4 Ni13_2 1_555 1_555
N28_4 Ni13_2 1_555 1_555
C193_4 N25_4 1_555 1_555
H217_4 C193_4 1_555 1_555
H218_4 C193_4 1_555 1_555
C194_4 C193_4 1_555 1_555
H219_4 C194_4 1_555 1_555
H220_4 C194_4 1_555 1_555
C195_4 N26_4 1_555 1_555
H221_4 C195_4 1_555 1_555
H222_4 C195_4 1_555 1_555
C196_4 N26_4 1_555 1_555
H223_4 C196_4 1_555 1_555
H224_4 C196_4 1_555 1_555
C197_4 N27_4 1_555 1_555
H225_4 C197_4 1_555 1_555
H226_4 C197_4 1_555 1_555
C198_4 N27_4 1_555 1_555
H227_4 C198_4 1_555 1_555
H228_4 C198_4 1_555 1_555
C199_4 C198_4 1_555 1_555
H229_4 C199_4 1_555 1_555
H230_4 C199_4 1_555 1_555
C200_4 N28_4 1_555 1_555
H231_4 C200_4 1_555 1_555
H232_4 C200_4 1_555 1_555
C201_4 N28_4 1_555 1_555
H233_4 C201_4 1_555 1_555
H234_4 C201_4 1_555 1_555
C202_4 N25_4 1_555 1_555
H235_4 C202_4 1_555 1_555
H236_4 C202_4 1_555 1_555
C130_4 C131_4 1_555 1_555
C194_4 C195_4 1_555 1_555
C196_4 C197_4 1_555 1_555
C199_4 C200_4 1_555 1_555
C201_4 C202_4 1_555 1_555
N25_4 H264_4 1_555 1_555
N26_4 H265_4 1_555 1_555
N28_4 H266_4 1_555 1_555
N27_4 H267_4 1_555 1_555
H183_2 C176_2 1_555 1_555
H184_2 C176_2 1_555 1_555
C177_2 N19_2 1_555 1_555
H185_2 C177_2 1_555 1_555
H186_2 C177_2 1_555 1_555
C178_2 N19_2 1_555 1_555
H187_2 C178_2 1_555 1_555
H188_2 C178_2 1_555 1_555
C179_2 C178_2 1_555 1_555
H189_2 C179_2 1_555 1_555
H190_2 C179_2 1_555 1_555
H191_2 C180_2 1_555 1_555
H192_2 C180_2 1_555 1_555
C176_2 C177_2 1_555 1_555
C179_2 C180_2 1_555 1_555
N19_2 H259_2 1_555 1_555
O34_4 C125_4 1_555 1_555
C119_4 O29_4 1_555 1_555
C123_4 C122_4 1_555 1_555
H143_4 C123_4 1_555 1_555
C124_4 C119_4 1_555 1_555
H144_4 C124_4 1_555 1_555
C125_4 C122_4 1_555 1_555
H183_3 C176_3 1_555 1_555
H184_3 C176_3 1_555 1_555
C177_3 N19_3 1_555 1_555
H185_3 C177_3 1_555 1_555
H186_3 C177_3 1_555 1_555
C178_3 N19_3 1_555 1_555
H187_3 C178_3 1_555 1_555
H188_3 C178_3 1_555 1_555
C179_3 C178_3 1_555 1_555
H189_3 C179_3 1_555 1_555
H190_3 C179_3 1_555 1_555
H191_3 C180_3 1_555 1_555
H192_3 C180_3 1_555 1_555
C123_4 C124_4 1_555 1_555
C176_3 C177_3 1_555 1_555
C179_3 C180_3 1_555 1_555
N19_3 H259_3 1_555 1_555
H183_4 C176_4 1_555 1_555
H184_4 C176_4 1_555 1_555
C177_4 N19_4 1_555 1_555
H185_4 C177_4 1_555 1_555
H186_4 C177_4 1_555 1_555
C178_4 N19_4 1_555 1_555
H187_4 C178_4 1_555 1_555
H188_4 C178_4 1_555 1_555
C179_4 C178_4 1_555 1_555
H189_4 C179_4 1_555 1_555
H190_4 C179_4 1_555 1_555
H191_4 C180_4 1_555 1_555
H192_4 C180_4 1_555 1_555
C176_4 C177_4 1_555 1_555
C179_4 C180_4 1_555 1_555
N19_4 H259_4 1_555 1_555

#END
