
###############################################################################
#
# This file contains modified crystal structure data generated from the
# MOF subset of the Cambridge Structural Database (CSD) v543 
# hosted by the Cambridge Crystallographic Data Centre (CCDC).
#
# This work is licensed under the Creative Commons
# Attribution-NonCommercial-ShareAlike 4.0 International License.
# To view a copy of this license, visit
# http://creativecommons.org/licenses/by-nc-sa/4.0/
# or send a letter to
# Creative Commons, PO Box 1866, Mountain View, CA 94042, USA.
#
# CIF created using the CSD Python API on 29 September 2022
# The structure has been converted into the P1 space group
# The structure has a 3D framework
# The original CSD entry FITCUJ is in the monoclinic crystal system
# The original CSD entry FITCUJ is in a Sohncke space group
# The framework has been calculated to contain at least 10.0% void space
# The void calculation uses a probe of radius 1.32A, grid spacing 0.4
#
###############################################################################

data_FITCUJ
_chemical_formula_moiety         '(C20 H26 N10 O8 Zn2)n'
_symmetry_cell_setting           triclinic
_symmetry_space_group_name_H-M   'P 1'
_symmetry_Int_Tables_number      1
_space_group_name_Hall           'P 1'
loop_
_symmetry_equiv_pos_site_id
_symmetry_equiv_pos_as_xyz
1 x,y,z
_cell_length_a                   9.6861(4)
_cell_length_b                   8.9799(3)
_cell_length_c                   11.4935(6)
_cell_angle_alpha                90
_cell_angle_beta                 106.106(5)
_cell_angle_gamma                90
_cell_volume                     960.469
loop_
_atom_site_label
_atom_site_type_symbol
_atom_site_fract_x
_atom_site_fract_y
_atom_site_fract_z
Zn1 Zn 0.20222(5) 0.40833(7) 0.07537(5)
N4 N 0.0358(5) 0.2800(5) 0.0712(4)
C3 C 0.0052(8) 0.1502(9) 0.0139(8)
N6 N 0.3118(5) 0.4759(6) 0.2454(5)
H6 H 0.0704 0.0974 0.9806
O5 O 0.3460(4) 0.3474(5) 0.9947(4)
N7 N 0.1290(5) 0.6014(6) 0.9919(5)
O4 O 0.3590(4) 0.1140(5) 0.0634(4)
N3 N 0.8710(5) 0.1014(6) 0.0081(5)
C1 C 0.9134(6) 0.3176(6) 0.1043(5)
H5 H 0.9013 0.4049 0.1471
C4 C 0.4023(6) 0.2181(6) 0.0128(5)
C5 C 0.6675(6) 0.2040(7) 0.0873(6)
H7 H 0.6567 0.2921 0.1359
H8 H 0.6625 0.1143 0.1361
C7 C 0.8136(6) 0.2096(6) 0.0657(5)
O2 O 0.4295(5) 0.1761(5) 0.7262(4)
O3 O 0.3861(5) 0.5860(5) 0.4746(4)
N1 N 0.5537(5) 0.3119(5) 0.8855(4)
H1 H 0.6036 0.3933 0.9105
H2 H 0.3817 0.5388 0.2362
H3 H 0.2494 0.5322 0.2730
N5 N 0.4749(5) 0.3691(5) 0.5625(5)
H4 H 0.4998 0.2774 0.5505
C2 C 0.4152(6) 0.4534(7) 0.4673(6)
C6 C 0.5007(6) 0.4222(10) 0.6857(5)
H9 H 0.4283 0.4987 0.6894
H10 H 0.5971 0.4685 0.7128
C8 C 0.5401(6) 0.2004(7) 0.9718(6)
H11 H 0.5379 0.1003 0.9332
C9 C 0.3808(7) 0.3754(7) 0.3439(6)
H12 H 0.4709 0.3368 0.3304
H13 H 0.3166 0.2897 0.3440
C10 C 0.4914(6) 0.2921(7) 0.7692(6)
Zn4 Zn 0.79778(5) 0.90833(7) 0.92463(5)
O1 O 0.6540(4) 0.8474(5) 0.0053(4)
O2_2 O 0.5705(5) 0.6761(5) 0.2738(4)
N1_2 N 0.4463(5) 0.8119(5) 0.1145(4)
H1_2 H 0.3964 0.8933 0.0895
N2 N 0.6882(5) 0.9759(6) 0.7546(5)
N5_2 N 0.5251(5) 0.8691(5) 0.4375(5)
H4_2 H 0.5002 0.7774 0.4495
C2_2 C 0.5848(6) 0.9534(7) 0.5327(6)
C6_2 C 0.4993(6) 0.9222(10) 0.3143(5)
H9_2 H 0.5717 0.9987 0.3106
H10_2 H 0.4029 0.9685 0.2872
C8_2 C 0.4599(6) 0.7004(7) 0.0282(6)
H11_2 H 0.4621 0.6003 0.0668
C9_2 C 0.6192(7) 0.8754(7) 0.6561(6)
H12_2 H 0.5291 0.8368 0.6696
H13_2 H 0.6834 0.7897 0.6560
C10_2 C 0.5086(6) 0.7921(7) 0.2308(6)
O4_2 O 0.6410(4) 0.6140(5) 0.9366(4)
C1_2 C 0.0866(6) 0.8176(6) 0.8957(5)
H5_2 H 0.0987 0.9049 0.8529
C4_2 C 0.5977(6) 0.7181(6) 0.9872(5)
C5_2 C 0.3325(6) 0.7040(7) 0.9127(6)
H7_2 H 0.3433 0.7921 0.8641
H8_2 H 0.3375 0.6143 0.8639
C7_2 C 0.1864(6) 0.7096(6) 0.9343(5)
H6_2 H 0.9296 0.5974 0.0194
N4_2 N 0.9642(5) 0.7800(5) 0.9288(4)
C3_2 C 0.9948(8) 0.6502(9) 0.9861(8)
O3_2 O 0.6139(5) 0.0860(5) 0.5254(4)
H2_2 H 0.6183 0.0388 0.7638
H3_2 H 0.7506 0.0322 0.7270
loop_
_geom_bond_atom_site_label_1
_geom_bond_atom_site_label_2
_geom_bond_site_symmetry_1
_geom_bond_site_symmetry_2
Zn1 N4 1_555 1_555
C3 N4 1_555 1_555
N6 Zn1 1_555 1_555
O4 C4 1_555 1_555
C1 H5 1_555 1_555
C5 H7 1_555 1_555
H8 C5 1_555 1_555
C7 N3 1_555 1_555
C1 C7 1_555 1_555
C5 C7 1_555 1_555
O2 C10 1_555 1_555
O3 C2 1_555 1_555
N1 H1 1_555 1_555
N6 H2 1_555 1_555
H3 N6 1_555 1_555
N5 H4 1_555 1_555
C2 N5 1_555 1_555
C6 N5 1_555 1_555
H9 C6 1_555 1_555
H10 C6 1_555 1_555
C8 N1 1_555 1_555
H11 C8 1_555 1_555
C9 N6 1_555 1_555
H12 C9 1_555 1_555
H13 C9 1_555 1_555
C10 N1 1_555 1_555
C2 C9 1_555 1_555
C6 C10 1_555 1_555
O2_2 C10_2 1_555 1_555
N1_2 H1_2 1_555 1_555
N5_2 H4_2 1_555 1_555
C2_2 N5_2 1_555 1_555
C6_2 N5_2 1_555 1_555
H9_2 C6_2 1_555 1_555
H10_2 C6_2 1_555 1_555
C8_2 N1_2 1_555 1_555
H11_2 C8_2 1_555 1_555
C9_2 N2 1_555 1_555
H12_2 C9_2 1_555 1_555
H13_2 C9_2 1_555 1_555
C10_2 N1_2 1_555 1_555
Zn4 N2 1_555 1_555
C2_2 C9_2 1_555 1_555
C6_2 C10_2 1_555 1_555
O4_2 C4_2 1_555 1_555
C1_2 H5_2 1_555 1_555
C5_2 H7_2 1_555 1_555
H8_2 C5_2 1_555 1_555
C7_2 N7 1_555 1_555
C1_2 C7_2 1_555 1_555
C5_2 C7_2 1_555 1_555
Zn4 N4_2 1_555 1_555
C3_2 N4_2 1_555 1_555

#END
