
###############################################################################
#
# This file contains modified crystal structure data generated from the
# MOF subset of the Cambridge Structural Database (CSD) v543 
# hosted by the Cambridge Crystallographic Data Centre (CCDC).
#
# This work is licensed under the Creative Commons
# Attribution-NonCommercial-ShareAlike 4.0 International License.
# To view a copy of this license, visit
# http://creativecommons.org/licenses/by-nc-sa/4.0/
# or send a letter to
# Creative Commons, PO Box 1866, Mountain View, CA 94042, USA.
#
# CIF created using the CSD Python API on 29 September 2022
# The structure has been converted into the P1 space group
# The structure has a 3D framework
# The original CSD entry FITDAQ is in the monoclinic crystal system
# The original CSD entry FITDAQ is in a Sohncke space group
# The framework has been calculated to contain at least 10.0% void space
# The void calculation uses a probe of radius 1.32A, grid spacing 0.4
#
###############################################################################

data_FITDAQ
_chemical_formula_moiety         '(C20 H26 N10 O8 Zn2)n'
_symmetry_cell_setting           triclinic
_symmetry_space_group_name_H-M   'P 1'
_symmetry_Int_Tables_number      1
_space_group_name_Hall           'P 1'
loop_
_symmetry_equiv_pos_site_id
_symmetry_equiv_pos_as_xyz
1 x,y,z
_cell_length_a                   9.6261(6)
_cell_length_b                   9.0444(5)
_cell_length_c                   11.6284(10)
_cell_angle_alpha                90
_cell_angle_beta                 112.735(8)
_cell_angle_gamma                90
_cell_volume                     933.734
loop_
_atom_site_label
_atom_site_type_symbol
_atom_site_fract_x
_atom_site_fract_y
_atom_site_fract_z
H4 H 0.0797 0.7343 0.0177
N4 N 0.0792(8) 0.3597(7) 0.7462(6)
H5 H 0.1608 0.3228 0.7383
H6 H 0.0135 0.2860 0.7323
C10 C 0.0147(13) 0.4680(9) 0.6494(8)
H11 H 0.0912 0.5397 0.6529
Zn3 Zn 0.13890(5) 0.42591(9) 0.92570(5)
O1 O 0.3456(4) 0.4913(5) 0.9920(5)
O2 O 0.3014(5) 0.7253(6) 0.9381(7)
N1 N 0.8587(5) 0.7388(5) 0.9818(5)
C1 C 0.3864(5) 0.6222(6) 0.9801(6)
C2 C 0.7512(5) 0.6355(6) 0.9202(6)
C3 C 0.8221(6) 0.5209(7) 0.8858(6)
H2 H 0.7763 0.4356 0.8434
N3 N 0.9746(5) 0.5559(6) 0.9257(6)
C5 C 0.9883(8) 0.6850(9) 0.9816(8)
C7 C 0.5883(6) 0.6432(8) 0.8984(6)
H7 H 0.5374 0.5590 0.8482
H8 H 0.5458 0.7318 0.8509
N2 N 0.3539(5) 0.0330(5) 0.8941(5)
O3 O 0.3191(8) 0.1723(6) 0.7269(6)
C4 C 0.4440(5) 0.1447(6) 0.9830(6)
H3 H 0.4168 0.2423 0.9440
C6 C 0.3009(8) 0.0565(7) 0.7760(7)
H12 H 0.0654 0.0202 0.3366
H13 H 0.1458 0.0729 0.5546
H1 H 0.3361 0.9498 0.9216
O4 O 0.0246(14) 0.7678(9) 0.4986(7)
C8 C 0.2061(12) 0.9291(14) 0.6975(7)
H9 H 0.2699 0.8451 0.7003
H10 H 0.1312 0.8985 0.7295
C9 C 0.0490(10) 0.8959(9) 0.4806(8)
N5 N 0.1333(11) 0.9823(9) 0.5709(7)
N2_2 N 0.6461(5) 0.5330(5) 0.1059(5)
H1_2 H 0.6639 0.4498 0.0784
O3_2 O 0.6809(8) 0.6723(6) 0.2731(6)
C4_2 C 0.5560(5) 0.6447(6) 0.0170(6)
H3_2 H 0.5832 0.7423 0.0560
C6_2 C 0.6991(8) 0.5565(7) 0.2240(7)
O4_2 O 0.9754(14) 0.2678(9) 0.5014(7)
C8_2 C 0.7939(12) 0.4291(14) 0.3025(7)
H9_2 H 0.7301 0.3451 0.2997
H10_2 H 0.8688 0.3985 0.2705
C9_2 C 0.9510(10) 0.3959(9) 0.5194(8)
H12_2 H 0.9346 0.5202 0.6634
N5_2 N 0.8667(11) 0.4823(9) 0.4291(7)
H13_2 H 0.8542 0.5729 0.4454
Zn4 Zn 0.86110(5) 0.92591(9) 0.07430(5)
N6 N 0.1413(5) 0.2388(5) 0.0182(5)
N7 N 0.0254(5) 0.0559(6) 0.0743(6)
O2_2 O 0.6986(5) 0.2253(6) 0.0619(7)
C1_2 C 0.6136(5) 0.1222(6) 0.0199(6)
C2_2 C 0.2488(5) 0.1355(6) 0.0798(6)
C3_2 C 0.1779(6) 0.0209(7) 0.1142(6)
C5_2 C 0.0117(8) 0.1850(9) 0.0184(8)
C7_2 C 0.4117(6) 0.1432(8) 0.1016(6)
H7_2 H 0.4626 0.0590 0.1518
H8_2 H 0.4542 0.2318 0.1491
O1_2 O 0.6544(4) 0.9913(5) 0.0080(5)
H2_2 H 0.2237 0.9356 0.1566
N8 N 0.9208(8) 0.8597(7) 0.2538(6)
H5_2 H 0.8392 0.8228 0.2617
H6_2 H 0.9865 0.7860 0.2677
C10_2 C 0.9853(13) 0.9680(9) 0.3506(8)
H4_2 H 0.9203 0.2343 0.9823
H11_2 H 0.9088 0.0397 0.3471
loop_
_geom_bond_atom_site_label_1
_geom_bond_atom_site_label_2
_geom_bond_site_symmetry_1
_geom_bond_site_symmetry_2
N4 H5 1_555 1_555
H6 N4 1_555 1_555
C10 N4 1_555 1_555
H11 C10 1_555 1_555
Zn3 N4 1_555 1_555
Zn3 O1 1_555 1_555
O1 C1 1_555 1_555
O2 C1 1_555 1_555
N1 C2 1_555 1_555
C2 C3 1_555 1_555
C3 H2 1_555 1_555
N3 C3 1_555 1_555
C5 N1 1_555 1_555
C7 C2 1_555 1_555
H7 C7 1_555 1_555
H8 C7 1_555 1_555
N3 C5 1_555 1_555
O3 C6 1_555 1_555
C4 N2 1_555 1_555
H3 C4 1_555 1_555
C6 N2 1_555 1_555
O4 C9 1_555 1_555
H9 C8 1_555 1_555
H10 C8 1_555 1_555
N5 C8 1_555 1_555
C9 N5 1_555 1_555
N2_2 H1_2 1_555 1_555
O3_2 C6_2 1_555 1_555
C4_2 N2_2 1_555 1_555
H3_2 C4_2 1_555 1_555
C6_2 N2_2 1_555 1_555
O4_2 C9_2 1_555 1_555
C8_2 C6_2 1_555 1_555
H9_2 C8_2 1_555 1_555
H10_2 C8_2 1_555 1_555
N5_2 C8_2 1_555 1_555
H13_2 N5_2 1_555 1_555
C9_2 N5_2 1_555 1_555
O2_2 C1_2 1_555 1_555
N6 C2_2 1_555 1_555
C2_2 C3_2 1_555 1_555
N7 C3_2 1_555 1_555
C5_2 N6 1_555 1_555
C7_2 C2_2 1_555 1_555
H7_2 C7_2 1_555 1_555
H8_2 C7_2 1_555 1_555
N7 C5_2 1_555 1_555
Zn4 O1_2 1_555 1_555
N8 Zn4 1_555 1_555
N8 H5_2 1_555 1_555
H6_2 N8 1_555 1_555
C10_2 N8 1_555 1_555

#END
