
###############################################################################
#
# This file contains modified crystal structure data generated from the
# MOF subset of the Cambridge Structural Database (CSD) v543 
# hosted by the Cambridge Crystallographic Data Centre (CCDC).
#
# This work is licensed under the Creative Commons
# Attribution-NonCommercial-ShareAlike 4.0 International License.
# To view a copy of this license, visit
# http://creativecommons.org/licenses/by-nc-sa/4.0/
# or send a letter to
# Creative Commons, PO Box 1866, Mountain View, CA 94042, USA.
#
# CIF created using the CSD Python API on 29 September 2022
# The structure has been converted into the P1 space group
# The structure has a 3D framework
# The original CSD entry FITFIA01 is in the monoclinic crystal system
# The original CSD entry FITFIA01 is in a Sohncke space group
# The framework has been calculated to contain at least 10.0% void space
# The void calculation uses a probe of radius 1.32A, grid spacing 0.4
#
###############################################################################

data_FITFIA01
_chemical_formula_moiety         '(C20 H26 N10 O8 Zn2)n'
_symmetry_cell_setting           triclinic
_symmetry_space_group_name_H-M   'P 1'
_symmetry_Int_Tables_number      1
_space_group_name_Hall           'P 1'
loop_
_symmetry_equiv_pos_site_id
_symmetry_equiv_pos_as_xyz
1 x,y,z
_cell_length_a                   9.5615(10)
_cell_length_b                   9.0515(13)
_cell_length_c                   10.4586(15)
_cell_angle_alpha                90
_cell_angle_beta                 105.318(14)
_cell_angle_gamma                90
_cell_volume                     872.993
loop_
_atom_site_label
_atom_site_type_symbol
_atom_site_fract_x
_atom_site_fract_y
_atom_site_fract_z
O3 O 0.0999(10) 0.5417(19) 0.4458(10)
H4 H 0.0883 0.8322 0.0351
N4 N 0.1429(12) 0.4970(14) 0.7156(11)
H5 H 0.1795 0.5789 0.6856
H6 H 0.2019 0.4200 0.7092
C5 C 0.0050(15) 0.4688(19) 0.6297(15)
C8 C 0.0004(16) 0.4817(15) 0.4804(17)
Zn3 Zn 0.15498(12) 0.52859(17) 0.91281(13)
O1 O 0.3616(8) 0.5752(9) 0.9791(10)
N2 N 0.8715(10) 0.8397(11) 0.9980(11)
N3 N 0.9941(10) 0.6623(11) 0.9221(10)
C1 C 0.6097(14) 0.7459(16) 0.9081(13)
H2 H 0.5596 0.6704 0.8437
H3 H 0.5729 0.8442 0.8735
C3 C 0.9993(19) 0.786(2) 0.9921(18)
C6 C 0.8478(13) 0.6323(14) 0.8790(13)
H12 H 0.8063 0.5498 0.8265
C7 C 0.7731(13) 0.7380(14) 0.9227(13)
O2 O 0.6595(9) 0.3110(10) 0.9684(11)
N1 N 0.3481(11) 0.0873(13) 0.8940(11)
H1 H 0.3676 0.0018 0.9349
O4 O 0.2327(10) 0.1977(11) 0.7001(9)
C2 C 0.5885(12) 0.2033(15) 0.9832(14)
H10 H 0.0655 0.0393 0.3504
C9 C 0.2502(15) 0.0915(16) 0.7750(14)
C10 C 0.4236(12) 0.2196(14) 0.9581(13)
H13 H 0.3902 0.3070 0.8995
N5 N 0.1188(13) 0.9269(15) 0.6031(13)
H7 H 0.1776 0.8717 0.5713
C4 C 0.1533(16) 0.9547(17) 0.7398(16)
H8 H 0.2041 0.8680 0.7885
H9 H 0.0630 0.9702 0.7673
H11 H 0.0257 0.8680 0.3530
Zn4 Zn 0.84502(12) 0.02859(17) 0.08719(13)
O2_2 O 0.3405(9) 0.8110(10) 0.0316(11)
N1_2 N 0.6519(11) 0.5873(13) 0.1060(11)
H1_2 H 0.6324 0.5018 0.0651
O4_2 O 0.7673(10) 0.6977(11) 0.2999(9)
C2_2 C 0.4115(12) 0.7033(15) 0.0168(14)
N5_2 N 0.8812(13) 0.4269(15) 0.3969(13)
H7_2 H 0.8224 0.3717 0.4287
C4_2 C 0.8467(16) 0.4547(17) 0.2602(16)
H8_2 H 0.7959 0.3680 0.2115
H9_2 H 0.9370 0.4702 0.2327
H10_2 H 0.9345 0.5393 0.6496
H11_2 H 0.9743 0.3680 0.6470
C9_2 C 0.7498(15) 0.5915(16) 0.2250(14)
C10_2 C 0.5764(12) 0.7196(14) 0.0419(13)
H13_2 H 0.6098 0.8070 0.1005
N6 N 0.1285(10) 0.3397(11) 0.0020(11)
N7 N 0.0059(10) 0.1623(11) 0.0779(10)
O1_2 O 0.6384(8) 0.0752(9) 0.0209(10)
C1_2 C 0.3903(14) 0.2459(16) 0.0919(13)
H2_2 H 0.4404 0.1704 0.1563
H3_2 H 0.4271 0.3442 0.1265
C3_2 C 0.0007(19) 0.286(2) 0.0079(18)
C6_2 C 0.1522(13) 0.1323(14) 0.1210(13)
H12_2 H 0.1937 0.0498 0.1735
C7_2 C 0.2269(13) 0.2380(14) 0.0773(13)
O3_2 O 0.9001(10) 0.0417(19) 0.5542(10)
H4_2 H 0.9117 0.3322 0.9649
H5_2 H 0.8205 0.0789 0.3144
N8 N 0.8571(12) 0.9970(14) 0.2844(11)
H6_2 H 0.7981 0.9200 0.2908
C5_2 C 0.9950(15) 0.9688(19) 0.3703(15)
C8_2 C 0.9996(16) 0.9817(15) 0.5196(17)
loop_
_geom_bond_atom_site_label_1
_geom_bond_atom_site_label_2
_geom_bond_site_symmetry_1
_geom_bond_site_symmetry_2
O3 C8 1_555 1_555
N4 H5 1_555 1_555
H6 N4 1_555 1_555
C5 N4 1_555 1_555
Zn3 N4 1_555 1_555
C5 C8 1_555 1_555
Zn3 O1 1_555 1_555
N2 C3 1_555 1_555
N3 C3 1_555 1_555
C1 H2 1_555 1_555
H3 C1 1_555 1_555
C6 N3 1_555 1_555
H12 C6 1_555 1_555
C7 N2 1_555 1_555
C1 C7 1_555 1_555
C6 C7 1_555 1_555
O2 C2 1_555 1_555
N1 H1 1_555 1_555
O4 C9 1_555 1_555
C2 C10 1_555 1_555
C9 N1 1_555 1_555
C10 N1 1_555 1_555
H13 C10 1_555 1_555
N5 H7 1_555 1_555
C4 N5 1_555 1_555
H8 C4 1_555 1_555
H9 C4 1_555 1_555
O2_2 C2_2 1_555 1_555
N1_2 H1_2 1_555 1_555
O4_2 C9_2 1_555 1_555
C2_2 C10_2 1_555 1_555
N5_2 H7_2 1_555 1_555
C4_2 N5_2 1_555 1_555
H8_2 C4_2 1_555 1_555
H9_2 C4_2 1_555 1_555
C9_2 N1_2 1_555 1_555
C10_2 N1_2 1_555 1_555
H13_2 C10_2 1_555 1_555
C4_2 C9_2 1_555 1_555
Zn4 O1_2 1_555 1_555
N6 C3_2 1_555 1_555
N7 C3_2 1_555 1_555
C1_2 H2_2 1_555 1_555
H3_2 C1_2 1_555 1_555
C6_2 N7 1_555 1_555
H12_2 C6_2 1_555 1_555
C7_2 N6 1_555 1_555
C1_2 C7_2 1_555 1_555
C6_2 C7_2 1_555 1_555
H6_2 N8 1_555 1_555
C5_2 N8 1_555 1_555
C5_2 C8_2 1_555 1_555

#END
