
###############################################################################
#
# This file contains modified crystal structure data generated from the
# MOF subset of the Cambridge Structural Database (CSD) v543 
# hosted by the Cambridge Crystallographic Data Centre (CCDC).
#
# This work is licensed under the Creative Commons
# Attribution-NonCommercial-ShareAlike 4.0 International License.
# To view a copy of this license, visit
# http://creativecommons.org/licenses/by-nc-sa/4.0/
# or send a letter to
# Creative Commons, PO Box 1866, Mountain View, CA 94042, USA.
#
# CIF created using the CSD Python API on 29 September 2022
# The structure has been converted into the P1 space group
# The structure has a 3D framework
# The original CSD entry FITGEW is in the rhombohedral crystal system
# The framework has been calculated to contain at least 10.0% void space
# The void calculation uses a probe of radius 1.32A, grid spacing 0.4
#
###############################################################################

data_FITGEW
_chemical_formula_moiety         '(C648 H612 N72 Ni36 O198)n'
_symmetry_cell_setting           triclinic
_symmetry_space_group_name_H-M   'P 1'
_symmetry_Int_Tables_number      1
_space_group_name_Hall           'P 1'
loop_
_symmetry_equiv_pos_site_id
_symmetry_equiv_pos_as_xyz
1 x,y,z
_cell_length_a                   37.4822(8)
_cell_length_b                   37.4822(8)
_cell_length_c                   17.2024(6)
_cell_angle_alpha                90
_cell_angle_beta                 90
_cell_angle_gamma                120
_cell_volume                     20930
loop_
_atom_site_label
_atom_site_type_symbol
_atom_site_fract_x
_atom_site_fract_y
_atom_site_fract_z
Ni1 Ni 0.50708(2) 0.30913(2) 0.81054(4)
Ni2 Ni 0.43149(2) 0.43934(2) 0.51966(4)
O1 O 0.52342(9) 0.34607(9) 0.71266(17)
O2 O 0.53769(13) 0.31242(10) 0.6227(2)
O3 O 0.61591(10) 0.39328(9) 0.72227(18)
O4 O 0.61005(9) 0.44807(9) 0.75486(17)
O5 O 0.59982(10) 0.52678(9) 0.46543(18)
O6 O 0.54657(9) 0.50484(9) 0.54239(17)
O7 O 0.51327(10) 0.44710(10) 0.39996(18)
O8 O 0.47090(10) 0.41776(10) 0.50098(18)
O9 O 0.51597(10) 0.26669(9) 0.74957(18)
H1 H 0.5325 0.2593 0.7672
H2 H 0.5265 0.2812 0.7090
O10 O 0.56953(9) 0.34262(9) 0.84129(18)
H3 H 0.5884 0.3539 0.8073
H4 H 0.5727 0.3247 0.8658
O11 O 0.47171(10) 0.47509(10) 0.61162(17)
H5 H 0.4718 0.4978 0.6124
H6 H 0.4941 0.4793 0.5908
N1 N 0.44548(12) 0.27355(11) 0.7769(2)
N2 N 0.19003(11) 0.16971(12) 0.5344(2)
N3 N 0.39483(12) 0.40882(12) 0.4255(2)
C1 C 0.55461(14) 0.38144(13) 0.5940(2)
H7 H 0.5641 0.3741 0.5453
C2 C 0.59163(14) 0.42211(13) 0.6259(2)
H8 H 0.6155 0.4287 0.5909
C3 C 0.51947(14) 0.39022(14) 0.5708(3)
H9 H 0.4939 0.3641 0.5565
C4 C 0.53571(14) 0.41984(13) 0.5007(2)
H10 H 0.5442 0.4065 0.4600
C5 C 0.57549(14) 0.46051(14) 0.5265(2)
H11 H 0.5996 0.4624 0.4979
C6 C 0.58207(14) 0.45739(14) 0.6155(3)
H12 H 0.6054 0.4839 0.6353
C7 C 0.51109(14) 0.41153(14) 0.6364(2)
H13 H 0.4847 0.4006 0.6599
C8 C 0.54311(14) 0.44648(14) 0.6588(2)
H14 H 0.5417 0.4633 0.6986
C9 C 0.53800(14) 0.34404(13) 0.6484(3)
C10 C 0.60600(13) 0.42039(13) 0.7082(3)
C11 C 0.50394(14) 0.42897(13) 0.4640(3)
C12 C 0.57360(14) 0.49921(14) 0.5106(2)
C13 C 0.43618(14) 0.26351(15) 0.7017(3)
H15 H 0.4581 0.2729 0.6652
C14 C 0.39634(14) 0.24016(15) 0.6751(3)
H16 H 0.3913 0.2342 0.6212
C15 C 0.36326(14) 0.22515(14) 0.7269(3)
C16 C 0.37286(15) 0.23328(15) 0.8058(3)
H17 H 0.3516 0.2222 0.8438
C17 C 0.41373(15) 0.25774(15) 0.8284(3)
H18 H 0.4197 0.2637 0.8821
C18 C 0.31994(15) 0.20474(15) 0.7019(3)
H19 H 0.2993 0.1945 0.7411
C19 C 0.30750(16) 0.19953(16) 0.6279(3)
H20 H 0.3280 0.2053 0.5897
C20 C 0.26575(15) 0.18586(14) 0.5986(3)
C21 C 0.26062(16) 0.18874(18) 0.5189(3)
H21 H 0.2831 0.1961 0.4845
C22 C 0.22317(15) 0.18102(17) 0.4899(3)
H22 H 0.2208 0.1839 0.4356
C23 C 0.19402(15) 0.16515(15) 0.6106(3)
H23 H 0.1705 0.1563 0.6429
C24 C 0.23072(16) 0.17271(15) 0.6447(3)
H24 H 0.2320 0.1689 0.6990
C25 C 0.35525(15) 0.39819(15) 0.4227(3)
H25 H 0.3426 0.4008 0.4685
C26 C 0.33172(15) 0.38346(15) 0.3558(3)
H26 H 0.3035 0.3761 0.3563
C27 C 0.34956(15) 0.37940(14) 0.2878(3)
C28 C 0.39117(16) 0.39021(16) 0.2916(3)
H27 H 0.4046 0.3875 0.2470
C29 C 0.41252(16) 0.40486(16) 0.3609(3)
H28 H 0.4408 0.4124 0.3627
C30 C 0.32581(16) 0.36499(15) 0.2162(3)
H29 H 0.2970 0.3469 0.2205
C31 C 0.34177(16) 0.37546(14) 0.1446(3)
H30 H 0.3707 0.3929 0.1401
C32 C 0.31758(15) 0.36179(15) 0.0729(3)
C33 C 0.33033(15) 0.38713(15) 0.0064(3)
H31 H 0.3554 0.4127 0.0071
C36 C 0.28176(14) 0.32387(15) 0.0671(3)
H34 H 0.2725 0.3054 0.1100
Ni3 Ni 0.13538(3) 0.15959(2) 0.47721(4)
Ni4 Ni 0.64246(2) 0.46872(3) 0.85613(4)
Ni6 Ni 0.56851(2) 0.56066(2) 0.48034(4)
O12 O 0.49531(13) 0.27672(9) 0.91181(17)
O13 O 0.40018(10) 0.47322(9) 0.53457(18)
O14 O 0.45343(9) 0.49516(9) 0.45761(17)
N5 N 0.49696(12) 0.35365(16) 0.8677(2)
N6 N 0.40059(17) 0.39549(12) 0.6029(2)
N4 N 0.27118(12) 0.33844(12) 0.9362(2)
C34 C 0.30631(14) 0.37459(15) 0.9404(3)
H32 H 0.3150 0.3922 0.8963
C35 C 0.25981(15) 0.31323(15) 0.9986(3)
H33 H 0.2356 0.2870 0.9950
Ni5 Ni 0.22733(2) 0.32548(3) 0.85299(4)
Ni1_2 Ni 0.69087(2) 0.19795(3) 0.81054(4)
O1_2 O 0.65393(9) 0.17735(13) 0.71266(17)
O2_2 O 0.68758(10) 0.22527(16) 0.6227(2)
O3_2 O 0.60672(9) 0.22263(13) 0.72227(18)
O4_2 O 0.55193(9) 0.16198(13) 0.75486(17)
O5_2 O 0.47322(9) 0.07304(13) 0.46543(18)
O6_2 O 0.49516(9) 0.04173(13) 0.54239(17)
O7_2 O 0.55290(10) 0.06617(14) 0.39996(18)
O8_2 O 0.58224(10) 0.05314(14) 0.50098(18)
O9_2 O 0.73331(9) 0.24928(13) 0.74957(18)
H1_2 H 0.7407 0.2732 0.7672
H2_2 H 0.7188 0.2453 0.7090
O10_2 O 0.65738(9) 0.22691(13) 0.84129(18)
H3_2 H 0.6461 0.2345 0.8073
H4_2 H 0.6753 0.2480 0.8658
H6_2 H 0.5207 0.0148 0.5908
N1_2 N 0.72645(11) 0.17193(16) 0.7769(2)
N2_2 N 0.83029(12) 0.02032(16) 0.5344(2)
C1_2 C 0.61856(13) 0.17317(19) 0.5940(2)
H7_2 H 0.6259 0.1900 0.5453
C2_2 C 0.57789(13) 0.16952(19) 0.6259(2)
H8_2 H 0.5713 0.1868 0.5909
C3_2 C 0.60978(14) 0.12925(20) 0.5708(3)
H9_2 H 0.6359 0.1298 0.5565
C4_2 C 0.58016(13) 0.11587(19) 0.5007(2)
H10_2 H 0.5935 0.1377 0.4600
C5_2 C 0.53949(14) 0.11498(20) 0.5265(2)
H11_2 H 0.5376 0.1372 0.4979
C6_2 C 0.54261(14) 0.12468(20) 0.6155(3)
H12_2 H 0.5161 0.1215 0.6353
C7_2 C 0.58847(14) 0.09956(20) 0.6364(2)
H13_2 H 0.5994 0.0841 0.6599
C8_2 C 0.55352(14) 0.09663(20) 0.6588(2)
H14_2 H 0.5367 0.0784 0.6986
C9_2 C 0.65596(13) 0.19396(19) 0.6484(3)
C10_2 C 0.57961(13) 0.18561(18) 0.7082(3)
C11_2 C 0.57103(13) 0.07497(19) 0.4640(3)
C12_2 C 0.50079(14) 0.07439(20) 0.5106(2)
C13_2 C 0.73649(15) 0.17267(21) 0.7017(3)
H15_2 H 0.7271 0.1852 0.6652
C14_2 C 0.75984(15) 0.15618(21) 0.6751(3)
H16_2 H 0.7658 0.1571 0.6212
C15_2 C 0.77485(14) 0.13811(20) 0.7269(3)
C16_2 C 0.76672(15) 0.13958(21) 0.8058(3)
H17_2 H 0.7778 0.1294 0.8438
C17_2 C 0.74226(15) 0.15599(21) 0.8284(3)
H18_2 H 0.7363 0.1560 0.8821
C18_2 C 0.79526(15) 0.11520(21) 0.7019(3)
H19_2 H 0.8055 0.1048 0.7411
C19_2 C 0.80047(16) 0.10797(23) 0.6279(3)
H20_2 H 0.7947 0.1227 0.5897
C20_2 C 0.81414(14) 0.07989(21) 0.5986(3)
C21_2 C 0.81126(18) 0.07188(24) 0.5189(3)
H21_2 H 0.8039 0.0870 0.4845
C22_2 C 0.81898(17) 0.04215(23) 0.4899(3)
H22_2 H 0.8161 0.0369 0.4356
C23_2 C 0.83485(15) 0.02887(21) 0.6106(3)
H23_2 H 0.8437 0.0142 0.6429
C24_2 C 0.82729(15) 0.05801(22) 0.6447(3)
H24_2 H 0.8311 0.0631 0.6990
C28_2 C 0.60979(16) 0.00096(23) 0.2916(3)
H27_2 H 0.6125 0.0171 0.2470
C29_2 C 0.59514(16) 0.00766(23) 0.3609(3)
H28_2 H 0.5876 0.0284 0.3627
Ni4_2 Ni 0.53128(3) 0.17375(4) 0.85613(4)
Ni6_2 Ni 0.43934(2) 0.00785(3) 0.48034(4)
O12_2 O 0.72328(9) 0.21860(16) 0.91181(17)
N5_2 N 0.64635(16) 0.14330(20) 0.8677(2)
N6_2 N 0.60451(12) 0.00511(21) 0.6029(2)
Ni2_2 Ni 0.56066(2) 0.99215(3) 0.51966(4)
O11_2 O 0.52491(10) 0.99662(14) 0.61162(17)
H5_2 H 0.5022 0.9740 0.6124
N3_2 N 0.59118(12) 0.98601(17) 0.4255(2)
C25_2 C 0.60181(15) 0.95706(21) 0.4227(3)
H25_2 H 0.5992 0.9418 0.4685
C26_2 C 0.61654(15) 0.94826(21) 0.3558(3)
H26_2 H 0.6239 0.9274 0.3563
C27_2 C 0.62060(14) 0.97016(21) 0.2878(3)
C30_2 C 0.63501(15) 0.96082(22) 0.2162(3)
H29_2 H 0.6531 0.9501 0.2205
C31_2 C 0.62454(14) 0.96631(21) 0.1446(3)
H30_2 H 0.6071 0.9778 0.1401
C32_2 C 0.63821(15) 0.95579(21) 0.0729(3)
C33_2 C 0.61287(15) 0.94320(21) 0.0064(3)
H31_2 H 0.5873 0.9427 0.0071
C36_2 C 0.67613(15) 0.95789(21) 0.0671(3)
H34_2 H 0.6946 0.9671 0.1100
Ni3_2 Ni 0.84041(2) 0.97580(4) 0.47721(4)
O13_2 O 0.52678(9) 0.92696(13) 0.53457(18)
O14_2 O 0.50484(9) 0.95827(13) 0.45761(17)
N4_2 N 0.66156(12) 0.93274(17) 0.9362(2)
C34_2 C 0.62541(15) 0.93172(21) 0.9404(3)
H32_2 H 0.6078 0.9228 0.8963
C35_2 C 0.68677(15) 0.94658(21) 0.9986(3)
H33_2 H 0.7130 0.9486 0.9950
Ni5_2 Ni 0.67452(3) 0.90184(4) 0.85299(4)
Ni2_3 Ni 0.00785(3) 0.56851(2) 0.51966(4)
O11_3 O 0.00338(14) 0.52829(10) 0.61162(17)
H5_3 H 0.0260 0.5282 0.6124
N3_3 N 0.01399(17) 0.60517(12) 0.4255(2)
C25_3 C 0.04294(21) 0.64475(15) 0.4227(3)
H25_3 H 0.0582 0.6574 0.4685
C26_3 C 0.05174(21) 0.66828(15) 0.3558(3)
H26_3 H 0.0726 0.6965 0.3563
C27_3 C 0.02984(21) 0.65044(15) 0.2878(3)
C30_3 C 0.03918(22) 0.67419(16) 0.2162(3)
H29_3 H 0.0499 0.7030 0.2205
C31_3 C 0.03369(21) 0.65823(16) 0.1446(3)
H30_3 H 0.0222 0.6293 0.1401
C32_3 C 0.04421(21) 0.68242(15) 0.0729(3)
C33_3 C 0.05680(21) 0.66967(15) 0.0064(3)
H31_3 H 0.0573 0.6446 0.0071
C36_3 C 0.04211(21) 0.71824(14) 0.0671(3)
H34_3 H 0.0329 0.7275 0.1100
Ni3_3 Ni 0.02420(4) 0.86462(3) 0.47721(4)
O13_3 O 0.07304(13) 0.59982(10) 0.53457(18)
O14_3 O 0.04173(13) 0.54657(9) 0.45761(17)
N4_3 N 0.06726(17) 0.72882(12) 0.9362(2)
C34_3 C 0.06828(21) 0.69369(14) 0.9404(3)
H32_3 H 0.0772 0.6850 0.8963
C35_3 C 0.05342(21) 0.74019(15) 0.9986(3)
H33_3 H 0.0514 0.7644 0.9950
Ni5_3 Ni 0.09816(4) 0.77267(2) 0.85299(4)
Ni1_3 Ni 0.80205(3) 0.49292(2) 0.81054(4)
O1_3 O 0.82265(13) 0.47658(9) 0.71266(17)
O2_3 O 0.77473(16) 0.46231(13) 0.6227(2)
O3_3 O 0.77737(13) 0.38409(10) 0.72227(18)
O4_3 O 0.83802(13) 0.38995(9) 0.75486(17)
O5_3 O 0.92696(13) 0.40018(10) 0.46543(18)
O6_3 O 0.95827(13) 0.45343(9) 0.54239(17)
O7_3 O 0.93383(14) 0.48673(10) 0.39996(18)
O8_3 O 0.94686(14) 0.52910(10) 0.50098(18)
O9_3 O 0.75072(13) 0.48403(10) 0.74957(18)
H1_3 H 0.7268 0.4675 0.7672
H2_3 H 0.7547 0.4735 0.7090
O10_3 O 0.77309(13) 0.43047(9) 0.84129(18)
H3_3 H 0.7655 0.4116 0.8073
H4_3 H 0.7520 0.4273 0.8658
H6_3 H 0.9852 0.5059 0.5908
N1_3 N 0.82807(16) 0.55452(12) 0.7769(2)
N2_3 N 0.97968(16) 0.80997(11) 0.5344(2)
C1_3 C 0.82683(19) 0.44539(14) 0.5940(2)
H7_3 H 0.8100 0.4359 0.5453
C2_3 C 0.83048(19) 0.40837(14) 0.6259(2)
H8_3 H 0.8132 0.3845 0.5909
C3_3 C 0.87075(20) 0.48053(14) 0.5708(3)
H9_3 H 0.8702 0.5061 0.5565
C4_3 C 0.88413(19) 0.46429(14) 0.5007(2)
H10_3 H 0.8623 0.4558 0.4600
C5_3 C 0.88502(20) 0.42451(14) 0.5265(2)
H11_3 H 0.8628 0.4004 0.4979
C6_3 C 0.87532(20) 0.41793(14) 0.6155(3)
H12_3 H 0.8785 0.3946 0.6353
C7_3 C 0.90044(20) 0.48891(14) 0.6364(2)
H13_3 H 0.9159 0.5153 0.6599
C8_3 C 0.90337(20) 0.45689(14) 0.6588(2)
H14_3 H 0.9216 0.4583 0.6986
C9_3 C 0.80604(19) 0.46200(14) 0.6484(3)
C10_3 C 0.81439(18) 0.39400(13) 0.7082(3)
C11_3 C 0.92503(19) 0.49606(14) 0.4640(3)
C12_3 C 0.92561(20) 0.42640(14) 0.5106(2)
C13_3 C 0.82733(21) 0.56382(14) 0.7017(3)
H15_3 H 0.8148 0.5419 0.6652
C14_3 C 0.84382(21) 0.60366(14) 0.6751(3)
H16_3 H 0.8429 0.6087 0.6212
C15_3 C 0.86189(20) 0.63674(14) 0.7269(3)
C16_3 C 0.86042(21) 0.62714(15) 0.8058(3)
H17_3 H 0.8706 0.6484 0.8438
C17_3 C 0.84401(21) 0.58627(15) 0.8284(3)
H18_3 H 0.8440 0.5803 0.8821
C18_3 C 0.88480(21) 0.68006(15) 0.7019(3)
H19_3 H 0.8952 0.7007 0.7411
C19_3 C 0.89203(23) 0.69250(16) 0.6279(3)
H20_3 H 0.8773 0.6720 0.5897
C20_3 C 0.92011(21) 0.73425(15) 0.5986(3)
C21_3 C 0.92812(24) 0.73938(16) 0.5189(3)
H21_3 H 0.9130 0.7169 0.4845
C22_3 C 0.95785(23) 0.77683(15) 0.4899(3)
H22_3 H 0.9631 0.7792 0.4356
C23_3 C 0.97113(21) 0.80598(15) 0.6106(3)
H23_3 H 0.9858 0.8295 0.6429
C24_3 C 0.94199(22) 0.76928(16) 0.6447(3)
H24_3 H 0.9369 0.7680 0.6990
C28_3 C 0.99904(23) 0.60883(16) 0.2916(3)
H27_3 H 0.9829 0.5954 0.2470
C29_3 C 0.99234(23) 0.58748(16) 0.3609(3)
H28_3 H 0.9716 0.5592 0.3627
Ni4_3 Ni 0.82625(4) 0.35754(2) 0.85613(4)
Ni6_3 Ni 0.99215(3) 0.43149(2) 0.48034(4)
O12_3 O 0.78140(16) 0.50469(13) 0.91181(17)
N5_3 N 0.85670(20) 0.50304(12) 0.8677(2)
N6_3 N 0.99489(21) 0.59941(17) 0.6029(2)
Ni1_4 Ni 0.17375(2) 0.64246(2) 0.14387(4)
O1_4 O 0.19009(9) 0.67940(9) 0.04599(17)
O3_4 O 0.28258(10) 0.72661(9) 0.05560(18)
O4_4 O 0.27672(9) 0.78140(9) 0.08819(17)
O9_4 O 0.18264(10) 0.60002(9) 0.08290(18)
H1_4 H 0.1992 0.5926 0.1005
H2_4 H 0.1932 0.6145 0.0423
O10_4 O 0.23620(9) 0.67595(9) 0.17462(18)
H3_4 H 0.2551 0.6872 0.1406
H4_4 H 0.2394 0.6580 0.1991
N1_4 N 0.11215(12) 0.60688(11) 0.1102(2)
H14_4 H 0.2084 0.7966 0.0319
C10_4 C 0.27267(13) 0.75372(13) 0.0415(3)
C13_4 C 0.10285(14) 0.59684(15) 0.0350(3)
C14_4 C 0.06301(14) 0.57349(15) 0.0084(3)
C15_4 C 0.02993(14) 0.55848(14) 0.0602(3)
C16_4 C 0.03953(15) 0.56661(15) 0.1391(3)
H17_4 H 0.0183 0.5555 0.1771
C17_4 C 0.08040(15) 0.59107(15) 0.1617(3)
H18_4 H 0.0864 0.5970 0.2154
Ni4_4 Ni 0.30913(2) 0.80205(3) 0.18946(4)
O12_4 O 0.16198(13) 0.61005(9) 0.24514(17)
N5_4 N 0.16362(12) 0.68699(16) 0.2011(2)
O2_4 O 0.20436(13) 0.64575(10) 0.9560(2)
O5_4 O 0.26649(10) 0.86011(9) 0.79876(18)
O6_4 O 0.21324(9) 0.83817(9) 0.87572(17)
O7_4 O 0.17994(10) 0.78043(10) 0.73329(18)
O8_4 O 0.13757(10) 0.75109(10) 0.83431(18)
O11_4 O 0.13838(10) 0.80842(10) 0.94495(17)
H5_4 H 0.1385 0.8311 0.9457
H6_4 H 0.1608 0.8126 0.9241
N3_4 N 0.06150(12) 0.74215(12) 0.7588(2)
C1_4 C 0.22128(14) 0.71477(13) 0.9273(2)
H7_4 H 0.2308 0.7074 0.8786
C2_4 C 0.25830(14) 0.75544(13) 0.9592(2)
H8_4 H 0.2822 0.7620 0.9242
C3_4 C 0.18614(14) 0.72355(14) 0.9041(3)
H9_4 H 0.1606 0.6974 0.8898
C4_4 C 0.20238(14) 0.75317(13) 0.8340(2)
H10_4 H 0.2109 0.7398 0.7933
C5_4 C 0.24216(14) 0.79384(14) 0.8598(2)
H11_4 H 0.2663 0.7957 0.8312
C6_4 C 0.24874(14) 0.79072(14) 0.9488(3)
H12_4 H 0.2721 0.8172 0.9686
C7_4 C 0.17776(14) 0.74486(14) 0.9697(2)
H13_4 H 0.1514 0.7339 0.9932
C8_4 C 0.20978(14) 0.77981(14) 0.9921(2)
C9_4 C 0.20467(14) 0.67737(13) 0.9817(3)
C11_4 C 0.17061(14) 0.76230(13) 0.7973(3)
C12_4 C 0.24027(14) 0.83254(14) 0.8439(2)
H15_4 H 0.1248 0.6062 0.9985
H16_4 H 0.0580 0.5675 0.9545
C25_4 C 0.02192(15) 0.73152(15) 0.7560(3)
H25_4 H 0.0093 0.7341 0.8018
C27_4 C 0.01623(15) 0.71273(14) 0.6211(3)
C28_4 C 0.05784(16) 0.72354(16) 0.6249(3)
H27_4 H 0.0713 0.7208 0.5803
C29_4 C 0.07919(16) 0.73819(16) 0.6942(3)
H28_4 H 0.1075 0.7457 0.6960
C31_4 C 0.00844(16) 0.70879(14) 0.4779(3)
H30_4 H 0.0374 0.7262 0.4734
H31_4 H 0.0221 0.7460 0.3404
Ni6_4 Ni 0.23518(2) 0.89399(2) 0.81367(4)
O13_4 O 0.06685(10) 0.80655(9) 0.86790(18)
O14_4 O 0.12010(9) 0.82849(9) 0.79094(17)
N4_4 N 0.93785(12) 0.67177(12) 0.2695(2)
C19_4 C 0.97417(16) 0.53286(16) 0.9612(3)
H20_4 H 0.9947 0.5386 0.9230
C20_4 C 0.93242(15) 0.51919(14) 0.9319(3)
C21_4 C 0.92729(16) 0.52207(18) 0.8522(3)
H21_4 H 0.9498 0.5294 0.8178
C22_4 C 0.88984(15) 0.51435(17) 0.8232(3)
H22_4 H 0.8875 0.5172 0.7689
C23_4 C 0.86069(15) 0.49848(15) 0.9439(3)
H23_4 H 0.8372 0.4896 0.9762
C24_4 C 0.89739(16) 0.50604(15) 0.9780(3)
C26_4 C 0.99839(15) 0.71679(15) 0.6891(3)
H26_4 H 0.9702 0.7094 0.6896
C30_4 C 0.99248(16) 0.69832(15) 0.5495(3)
H29_4 H 0.9637 0.6802 0.5538
C32_4 C 0.98425(15) 0.69512(15) 0.4062(3)
C33_4 C 0.99700(15) 0.72046(15) 0.3397(3)
C34_4 C 0.97298(14) 0.70792(15) 0.2737(3)
H32_4 H 0.9817 0.7255 0.2296
C35_4 C 0.92648(15) 0.64656(15) 0.3319(3)
H33_4 H 0.9023 0.6203 0.3283
C36_4 C 0.94843(14) 0.65720(15) 0.4004(3)
H34_4 H 0.9392 0.6387 0.4433
Ni5_4 Ni 0.89399(2) 0.65882(3) 0.18633(4)
Ni1_5 Ni 0.35754(2) 0.53128(3) 0.14387(4)
O1_5 O 0.32060(9) 0.51068(13) 0.04599(17)
O3_5 O 0.27339(9) 0.55596(13) 0.05560(18)
O4_5 O 0.21860(9) 0.49531(13) 0.08819(17)
O9_5 O 0.39998(9) 0.58261(13) 0.08290(18)
H1_5 H 0.4074 0.6065 0.1005
H2_5 H 0.3855 0.5786 0.0423
O10_5 O 0.32405(9) 0.56024(13) 0.17462(18)
H3_5 H 0.3128 0.5678 0.1406
H4_5 H 0.3420 0.5813 0.1991
N1_5 N 0.39312(11) 0.50526(16) 0.1102(2)
H14_5 H 0.2034 0.4117 0.0319
C10_5 C 0.24628(13) 0.51894(18) 0.0415(3)
C13_5 C 0.40316(15) 0.50600(21) 0.0350(3)
C14_5 C 0.42651(15) 0.48951(21) 0.0084(3)
C15_5 C 0.44152(14) 0.47144(20) 0.0602(3)
C16_5 C 0.43339(15) 0.47291(21) 0.1391(3)
H17_5 H 0.4445 0.4627 0.1771
C17_5 C 0.40893(15) 0.48932(21) 0.1617(3)
H18_5 H 0.4030 0.4893 0.2154
C18_4 C 0.46193(15) 0.44853(21) 0.0352(3)
H19_4 H 0.4722 0.4381 0.0744
H24_4 H 0.4978 0.3964 0.0323
Ni4_5 Ni 0.19795(3) 0.50708(4) 0.18946(4)
O12_5 O 0.38995(9) 0.55193(16) 0.24514(17)
N5_5 N 0.31301(16) 0.47664(20) 0.2011(2)
O2_5 O 0.35425(10) 0.55860(16) 0.9560(2)
O5_5 O 0.13989(9) 0.40637(13) 0.79876(18)
O6_5 O 0.16183(9) 0.37506(13) 0.87572(17)
O7_5 O 0.21957(10) 0.39950(14) 0.73329(18)
O8_5 O 0.24891(10) 0.38647(14) 0.83431(18)
O11_5 O 0.19158(10) 0.32995(14) 0.94495(17)
H5_5 H 0.1689 0.3073 0.9457
H6_5 H 0.1874 0.3481 0.9241
N3_5 N 0.25785(12) 0.31934(17) 0.7588(2)
N4_5 N 0.32823(12) 0.26607(17) 0.2695(2)
C1_5 C 0.28523(13) 0.50650(19) 0.9273(2)
H7_5 H 0.2926 0.5233 0.8786
C2_5 C 0.24456(13) 0.50285(19) 0.9592(2)
H8_5 H 0.2380 0.5201 0.9242
C3_5 C 0.27645(14) 0.46258(20) 0.9041(3)
H9_5 H 0.3026 0.4631 0.8898
C4_5 C 0.24683(13) 0.44920(19) 0.8340(2)
H10_5 H 0.2602 0.4710 0.7933
C5_5 C 0.20616(14) 0.44831(20) 0.8598(2)
H11_5 H 0.2043 0.4705 0.8312
C6_5 C 0.20928(14) 0.45801(20) 0.9488(3)
H12_5 H 0.1828 0.4548 0.9686
C7_5 C 0.25514(14) 0.43289(20) 0.9697(2)
H13_5 H 0.2661 0.4174 0.9932
C8_5 C 0.22019(14) 0.42996(20) 0.9921(2)
C9_5 C 0.32263(13) 0.52729(19) 0.9817(3)
C11_5 C 0.23770(13) 0.40830(19) 0.7973(3)
C12_5 C 0.16746(14) 0.40772(20) 0.8439(2)
H15_5 H 0.3938 0.5185 0.9985
H16_5 H 0.4325 0.4904 0.9545
C19_5 C 0.46714(16) 0.44130(23) 0.9612(3)
H20_5 H 0.4614 0.4560 0.9230
C20_5 C 0.48081(14) 0.41322(21) 0.9319(3)
C21_5 C 0.47793(18) 0.40521(24) 0.8522(3)
H21_5 H 0.4706 0.4203 0.8178
C22_5 C 0.48565(17) 0.37548(23) 0.8232(3)
H22_5 H 0.4828 0.3702 0.7689
C23_5 C 0.50152(15) 0.36220(21) 0.9439(3)
H23_5 H 0.5104 0.3475 0.9762
C24_5 C 0.49396(15) 0.39134(22) 0.9780(3)
C25_5 C 0.26848(15) 0.29039(21) 0.7560(3)
H25_5 H 0.2659 0.2751 0.8018
C26_5 C 0.28321(15) 0.28159(21) 0.6891(3)
H26_5 H 0.2906 0.2607 0.6896
C27_5 C 0.28727(14) 0.30349(21) 0.6211(3)
C28_5 C 0.27646(16) 0.33429(23) 0.6249(3)
H27_5 H 0.2792 0.3504 0.5803
C29_5 C 0.26181(16) 0.34099(23) 0.6942(3)
H28_5 H 0.2543 0.3617 0.6960
C30_5 C 0.30168(15) 0.29415(22) 0.5495(3)
H29_5 H 0.3198 0.2834 0.5538
C31_5 C 0.29121(14) 0.29964(21) 0.4779(3)
H30_5 H 0.2738 0.3111 0.4734
C32_5 C 0.30488(15) 0.28912(21) 0.4062(3)
C33_5 C 0.27954(15) 0.27653(21) 0.3397(3)
H31_5 H 0.2540 0.2760 0.3404
C34_5 C 0.29208(15) 0.26505(21) 0.2737(3)
H32_5 H 0.2745 0.2561 0.2296
C35_5 C 0.35344(15) 0.27991(21) 0.3319(3)
H33_5 H 0.3797 0.2819 0.3283
C36_5 C 0.34280(15) 0.29122(21) 0.4004(3)
H34_5 H 0.3613 0.3004 0.4433
Ni5_5 Ni 0.34118(3) 0.23518(4) 0.18633(4)
Ni6_5 Ni 0.10601(2) 0.34118(3) 0.81367(4)
O13_5 O 0.19345(9) 0.26029(13) 0.86790(18)
O14_5 O 0.17151(9) 0.29160(13) 0.79094(17)
N4_6 N 0.73393(17) 0.06215(12) 0.2695(2)
C19_6 C 0.55870(23) 0.02583(16) 0.9612(3)
H20_6 H 0.5440 0.0053 0.9230
C20_6 C 0.58678(21) 0.06758(15) 0.9319(3)
C21_6 C 0.59479(24) 0.07271(16) 0.8522(3)
H21_6 H 0.5797 0.0502 0.8178
C22_6 C 0.62452(23) 0.11016(15) 0.8232(3)
H22_6 H 0.6298 0.1125 0.7689
C23_6 C 0.63780(21) 0.13931(15) 0.9439(3)
H23_6 H 0.6525 0.1628 0.9762
C24_6 C 0.60866(22) 0.10261(16) 0.9780(3)
C26_6 C 0.71841(21) 0.00161(15) 0.6891(3)
H26_6 H 0.7393 0.0298 0.6896
C30_6 C 0.70585(22) 0.00752(16) 0.5495(3)
H29_6 H 0.7166 0.0363 0.5538
C32_6 C 0.71088(21) 0.01575(15) 0.4062(3)
C33_6 C 0.72347(21) 0.00300(15) 0.3397(3)
C34_6 C 0.73495(21) 0.02702(14) 0.2737(3)
H32_6 H 0.7439 0.0183 0.2296
C35_6 C 0.72009(21) 0.07352(15) 0.3319(3)
H33_6 H 0.7181 0.0977 0.3283
C36_6 C 0.70878(21) 0.05157(14) 0.4004(3)
H34_6 H 0.6996 0.0608 0.4433
Ni5_6 Ni 0.76482(4) 0.10601(2) 0.18633(4)
Ni1_6 Ni 0.46872(3) 0.82625(2) 0.14387(4)
O1_6 O 0.48932(13) 0.80991(9) 0.04599(17)
O3_6 O 0.44404(13) 0.71742(10) 0.05560(18)
O4_6 O 0.50469(13) 0.72328(9) 0.08819(17)
O9_6 O 0.41739(13) 0.81736(10) 0.08290(18)
H1_6 H 0.3935 0.8008 0.1005
H2_6 H 0.4214 0.8068 0.0423
O10_6 O 0.43976(13) 0.76380(9) 0.17462(18)
H3_6 H 0.4322 0.7449 0.1406
H4_6 H 0.4187 0.7606 0.1991
N1_6 N 0.49474(16) 0.88785(12) 0.1102(2)
H14_6 H 0.5883 0.7916 0.0319
C10_6 C 0.48106(18) 0.72733(13) 0.0415(3)
C13_6 C 0.49400(21) 0.89715(14) 0.0350(3)
C14_6 C 0.51049(21) 0.93699(14) 0.0084(3)
C15_6 C 0.52856(20) 0.97007(14) 0.0602(3)
C16_6 C 0.52709(21) 0.96047(15) 0.1391(3)
H17_6 H 0.5373 0.9817 0.1771
C17_6 C 0.51068(21) 0.91960(15) 0.1617(3)
H18_6 H 0.5107 0.9136 0.2154
Ni4_6 Ni 0.49292(4) 0.69087(2) 0.18946(4)
O12_6 O 0.44807(16) 0.83802(13) 0.24514(17)
N5_6 N 0.52336(20) 0.83638(12) 0.2011(2)
O2_6 O 0.44140(16) 0.79564(13) 0.9560(2)
O5_6 O 0.59363(13) 0.73351(10) 0.79876(18)
O6_6 O 0.62494(13) 0.78676(9) 0.87572(17)
O7_6 O 0.60050(14) 0.82006(10) 0.73329(18)
O8_6 O 0.61353(14) 0.86243(10) 0.83431(18)
O11_6 O 0.67005(14) 0.86162(10) 0.94495(17)
H5_6 H 0.6927 0.8615 0.9457
H6_6 H 0.6519 0.8392 0.9241
N3_6 N 0.68066(17) 0.93850(12) 0.7588(2)
C1_6 C 0.49350(19) 0.77872(14) 0.9273(2)
H7_6 H 0.4767 0.7692 0.8786
C2_6 C 0.49715(19) 0.74170(14) 0.9592(2)
H8_6 H 0.4799 0.7178 0.9242
C3_6 C 0.53742(20) 0.81386(14) 0.9041(3)
H9_6 H 0.5369 0.8394 0.8898
C4_6 C 0.55080(19) 0.79762(14) 0.8340(2)
H10_6 H 0.5290 0.7891 0.7933
C5_6 C 0.55169(20) 0.75784(14) 0.8598(2)
H11_6 H 0.5295 0.7337 0.8312
C6_6 C 0.54199(20) 0.75126(14) 0.9488(3)
H12_6 H 0.5452 0.7279 0.9686
C7_6 C 0.56711(20) 0.82224(14) 0.9697(2)
H13_6 H 0.5826 0.8486 0.9932
C8_6 C 0.57004(20) 0.79022(14) 0.9921(2)
C9_6 C 0.47271(19) 0.79533(14) 0.9817(3)
C11_6 C 0.59170(19) 0.82939(14) 0.7973(3)
C12_6 C 0.59228(20) 0.75973(14) 0.8439(2)
H15_6 H 0.4815 0.8752 0.9985
H16_6 H 0.5096 0.9420 0.9545
C25_6 C 0.70961(21) 0.97808(15) 0.7560(3)
H25_6 H 0.7249 0.9907 0.8018
C27_6 C 0.69651(21) 0.98377(15) 0.6211(3)
C28_6 C 0.66571(23) 0.94216(16) 0.6249(3)
H27_6 H 0.6496 0.9287 0.5803
C29_6 C 0.65901(23) 0.92081(16) 0.6942(3)
H28_6 H 0.6383 0.8925 0.6960
C31_6 C 0.70036(21) 0.99156(16) 0.4779(3)
H30_6 H 0.6889 0.9626 0.4734
H31_6 H 0.7240 0.9779 0.3404
Ni6_6 Ni 0.65882(3) 0.76482(2) 0.81367(4)
O13_6 O 0.73971(13) 0.93315(10) 0.86790(18)
O14_6 O 0.70840(13) 0.87990(9) 0.79094(17)
O1_7 O 0.85675(9) 0.01274(9) 0.37933(17)
O3_7 O 0.94924(10) 0.05995(9) 0.38894(18)
O4_7 O 0.94338(9) 0.11474(9) 0.42153(17)
O5_7 O 0.93315(10) 0.19345(9) 0.13210(18)
O6_7 O 0.87990(9) 0.17151(9) 0.20906(17)
O7_7 O 0.84660(10) 0.11377(10) 0.06663(18)
O8_7 O 0.80423(10) 0.08443(10) 0.16765(18)
O10_7 O 0.90286(9) 0.00929(9) 0.50796(18)
H3_7 H 0.9217 0.0206 0.4740
O11_7 O 0.80504(10) 0.14176(10) 0.27829(17)
H5_7 H 0.8051 0.1645 0.2791
H6_7 H 0.8274 0.1460 0.2575
N3_7 N 0.72816(12) 0.07549(12) 0.0922(2)
C1_7 C 0.88794(14) 0.04811(13) 0.2607(2)
H7_7 H 0.8974 0.0408 0.2120
C2_7 C 0.92496(14) 0.08878(13) 0.2926(2)
H8_7 H 0.9488 0.0954 0.2576
C3_7 C 0.85280(14) 0.05689(14) 0.2375(3)
H9_7 H 0.8272 0.0308 0.2232
C4_7 C 0.86904(14) 0.08651(13) 0.1674(2)
H10_7 H 0.8775 0.0732 0.1267
C5_7 C 0.90882(14) 0.12718(14) 0.1932(2)
H11_7 H 0.9329 0.1291 0.1646
C6_7 C 0.91540(14) 0.12406(14) 0.2822(3)
H12_7 H 0.9387 0.1506 0.3020
C7_7 C 0.84442(14) 0.07820(14) 0.3031(2)
H13_7 H 0.8180 0.0673 0.3266
C8_7 C 0.87644(14) 0.11315(14) 0.3255(2)
H14_7 H 0.8750 0.1300 0.3653
C9_7 C 0.87133(14) 0.01071(13) 0.3151(3)
C10_7 C 0.93933(13) 0.08706(13) 0.3749(3)
C11_7 C 0.83727(14) 0.09564(13) 0.1307(3)
C12_7 C 0.90693(14) 0.16588(14) 0.1773(2)
C25_7 C 0.68858(15) 0.06486(15) 0.0894(3)
H25_7 H 0.6759 0.0675 0.1352
C26_7 C 0.66505(15) 0.05013(15) 0.0225(3)
H26_7 H 0.6368 0.0428 0.0230
C29_7 C 0.74585(16) 0.07153(16) 0.0276(3)
H28_7 H 0.7741 0.0791 0.0294
Ni4_7 Ni 0.97580(2) 0.13538(3) 0.52279(4)
Ni6_7 Ni 0.90184(2) 0.22733(2) 0.14701(4)
O13_7 O 0.73351(10) 0.13989(9) 0.20124(18)
O14_7 O 0.78676(9) 0.16183(9) 0.12428(17)
C27_7 C 0.68289(15) 0.04607(14) 0.9545(3)
C28_7 C 0.72450(16) 0.05688(16) 0.9583(3)
H27_7 H 0.7379 0.0542 0.9137
C30_7 C 0.65914(16) 0.03166(15) 0.8829(3)
H29_7 H 0.6303 0.0136 0.8872
C31_7 C 0.67510(16) 0.04213(14) 0.8113(3)
H30_7 H 0.7040 0.0596 0.8068
C32_7 C 0.65091(15) 0.02846(15) 0.7396(3)
C33_7 C 0.66366(15) 0.05380(15) 0.6731(3)
H31_7 H 0.6887 0.0794 0.6738
C34_7 C 0.63964(14) 0.04126(15) 0.6071(3)
H32_7 H 0.6483 0.0589 0.5630
O2_7 O 0.87102(13) 0.97909(10) 0.2894(2)
O9_7 O 0.84930(10) 0.93336(9) 0.41624(18)
H1_7 H 0.8658 0.9260 0.4339
H2_7 H 0.8598 0.9479 0.3757
H4_7 H 0.9060 0.9914 0.5325
N1_7 N 0.77881(12) 0.94022(11) 0.4436(2)
C13_7 C 0.76951(14) 0.93018(15) 0.3684(3)
H15_7 H 0.7914 0.9396 0.3319
C14_7 C 0.72967(14) 0.90683(15) 0.3418(3)
H16_7 H 0.7246 0.9009 0.2879
C15_7 C 0.69659(14) 0.89182(14) 0.3936(3)
C16_7 C 0.70619(15) 0.89995(15) 0.4725(3)
H17_7 H 0.6849 0.8889 0.5105
C17_7 C 0.74706(15) 0.92441(15) 0.4951(3)
H18_7 H 0.7530 0.9304 0.5488
C18_5 C 0.65327(15) 0.87141(15) 0.3686(3)
H19_5 H 0.6326 0.8612 0.4078
C19_7 C 0.64083(16) 0.86620(16) 0.2946(3)
H20_7 H 0.6613 0.8720 0.2564
C20_7 C 0.59908(15) 0.85253(14) 0.2653(3)
C21_7 C 0.59395(16) 0.85541(18) 0.1856(3)
H21_7 H 0.6164 0.8628 0.1512
C22_7 C 0.55650(15) 0.84769(17) 0.1566(3)
H22_7 H 0.5541 0.8506 0.1023
C23_7 C 0.52735(15) 0.83182(15) 0.2773(3)
H23_7 H 0.5038 0.8230 0.3096
C24_7 C 0.56405(16) 0.83938(15) 0.3114(3)
H24_5 H 0.5653 0.8356 0.3657
O12_7 O 0.82865(13) 0.94338(9) 0.57847(17)
C35_7 C 0.59314(15) 0.97990(15) 0.6653(3)
H33_7 H 0.5689 0.9537 0.6617
C36_7 C 0.61509(14) 0.99054(15) 0.7338(3)
H34_7 H 0.6058 0.9721 0.7767
O2_8 O 0.02091(10) 0.89194(16) 0.2894(2)
O9_8 O 0.06664(9) 0.91595(13) 0.41624(18)
H1_8 H 0.0740 0.9399 0.4339
H2_8 H 0.0521 0.9120 0.3757
H4_8 H 0.0086 0.9147 0.5325
N1_8 N 0.05978(11) 0.83860(16) 0.4436(2)
C13_8 C 0.06982(15) 0.83934(21) 0.3684(3)
H15_8 H 0.0604 0.8519 0.3319
C14_8 C 0.09317(15) 0.82285(21) 0.3418(3)
H16_8 H 0.0991 0.8238 0.2879
C15_8 C 0.10818(14) 0.80478(20) 0.3936(3)
C16_8 C 0.10005(15) 0.80625(21) 0.4725(3)
H17_8 H 0.1111 0.7961 0.5105
C17_8 C 0.07559(15) 0.82266(21) 0.4951(3)
H18_8 H 0.0696 0.8227 0.5488
C18_6 C 0.12859(15) 0.78187(21) 0.3686(3)
H19_6 H 0.1388 0.7715 0.4078
C19_8 C 0.13380(16) 0.77464(23) 0.2946(3)
H20_8 H 0.1280 0.7894 0.2564
C20_8 C 0.14747(14) 0.74656(21) 0.2653(3)
C21_8 C 0.14459(18) 0.73855(24) 0.1856(3)
H21_8 H 0.1372 0.7537 0.1512
C22_8 C 0.15231(17) 0.70882(23) 0.1566(3)
H22_8 H 0.1494 0.7036 0.1023
C23_8 C 0.16818(15) 0.69554(21) 0.2773(3)
H23_8 H 0.1770 0.6809 0.3096
C24_8 C 0.16062(15) 0.72468(22) 0.3114(3)
H24_6 H 0.1644 0.7298 0.3657
O12_8 O 0.05662(9) 0.88526(16) 0.57847(17)
C35_8 C 0.02010(15) 0.61325(21) 0.6653(3)
H33_8 H 0.0463 0.6153 0.6617
C36_8 C 0.00946(15) 0.62456(21) 0.7338(3)
H34_8 H 0.0279 0.6338 0.7767
O1_8 O 0.98726(9) 0.84402(13) 0.37933(17)
O3_8 O 0.94005(9) 0.88930(13) 0.38894(18)
O4_8 O 0.88526(9) 0.82865(13) 0.42153(17)
O5_8 O 0.80655(9) 0.73971(13) 0.13210(18)
O6_8 O 0.82849(9) 0.70840(13) 0.20906(17)
O7_8 O 0.88623(10) 0.73284(14) 0.06663(18)
O8_8 O 0.91557(10) 0.71981(14) 0.16765(18)
O10_8 O 0.99071(9) 0.89358(13) 0.50796(18)
H3_8 H 0.9794 0.9012 0.4740
O11_8 O 0.85824(10) 0.66329(14) 0.27829(17)
H5_8 H 0.8355 0.6407 0.2791
H6_8 H 0.8540 0.6815 0.2575
N3_8 N 0.92451(12) 0.65268(17) 0.0922(2)
C1_8 C 0.95189(13) 0.83984(19) 0.2607(2)
H7_8 H 0.9592 0.8567 0.2120
C2_8 C 0.91122(13) 0.83619(19) 0.2926(2)
H8_8 H 0.9046 0.8535 0.2576
C3_8 C 0.94311(14) 0.79592(20) 0.2375(3)
H9_8 H 0.9692 0.7965 0.2232
C4_8 C 0.91349(13) 0.78254(19) 0.1674(2)
H10_8 H 0.9268 0.8044 0.1267
C5_8 C 0.87282(14) 0.78165(20) 0.1932(2)
H11_8 H 0.8709 0.8039 0.1646
C6_8 C 0.87594(14) 0.79135(20) 0.2822(3)
H12_8 H 0.8494 0.7882 0.3020
C7_8 C 0.92180(14) 0.76623(20) 0.3031(2)
H13_8 H 0.9327 0.7508 0.3266
C8_8 C 0.88685(14) 0.76330(20) 0.3255(2)
H14_8 H 0.8700 0.7451 0.3653
C9_8 C 0.98929(13) 0.86063(19) 0.3151(3)
C10_8 C 0.91294(13) 0.85228(18) 0.3749(3)
C11_8 C 0.90436(13) 0.74164(19) 0.1307(3)
C12_8 C 0.83412(14) 0.74106(20) 0.1773(2)
C25_8 C 0.93514(15) 0.62373(21) 0.0894(3)
H25_8 H 0.9325 0.6085 0.1352
C26_8 C 0.94987(15) 0.61493(21) 0.0225(3)
H26_8 H 0.9572 0.5941 0.0230
C29_8 C 0.92847(16) 0.67433(23) 0.0276(3)
H28_8 H 0.9209 0.6951 0.0294
Ni4_8 Ni 0.86462(3) 0.84041(4) 0.52279(4)
Ni6_8 Ni 0.77267(2) 0.67452(3) 0.14701(4)
O13_8 O 0.86011(9) 0.59363(13) 0.20124(18)
O14_8 O 0.83817(9) 0.62494(13) 0.12428(17)
C27_8 C 0.95393(14) 0.63683(21) 0.9545(3)
C28_8 C 0.94312(16) 0.66763(23) 0.9583(3)
H27_8 H 0.9458 0.6838 0.9137
C30_8 C 0.96834(15) 0.62749(22) 0.8829(3)
H29_8 H 0.9864 0.6168 0.8872
C31_8 C 0.95787(14) 0.63298(21) 0.8113(3)
H30_8 H 0.9404 0.6445 0.8068
C32_8 C 0.97154(15) 0.62246(21) 0.7396(3)
C33_8 C 0.94620(15) 0.60987(21) 0.6731(3)
H31_8 H 0.9206 0.6094 0.6738
C34_8 C 0.95874(15) 0.59839(21) 0.6071(3)
H32_8 H 0.9411 0.5895 0.5630
O1_9 O 0.15598(13) 0.14325(9) 0.37933(17)
O2_9 O 0.10806(16) 0.12898(13) 0.2894(2)
O3_9 O 0.11070(13) 0.05076(10) 0.38894(18)
O4_9 O 0.17135(13) 0.05662(9) 0.42153(17)
O5_9 O 0.26029(13) 0.06685(10) 0.13210(18)
O6_9 O 0.29160(13) 0.12010(9) 0.20906(17)
O7_9 O 0.26716(14) 0.15340(10) 0.06663(18)
O8_9 O 0.28019(14) 0.19577(10) 0.16765(18)
O9_9 O 0.08405(13) 0.15070(10) 0.41624(18)
H1_9 H 0.0601 0.1342 0.4339
H2_9 H 0.0880 0.1402 0.3757
O10_9 O 0.10642(13) 0.09714(9) 0.50796(18)
H3_9 H 0.0988 0.0783 0.4740
H4_9 H 0.0853 0.0940 0.5325
O11_9 O 0.33671(14) 0.19496(10) 0.27829(17)
H5_9 H 0.3593 0.1949 0.2791
H6_9 H 0.3185 0.1726 0.2575
N1_9 N 0.16140(16) 0.22119(12) 0.4436(2)
N3_9 N 0.34732(17) 0.27184(12) 0.0922(2)
C1_9 C 0.16016(19) 0.11206(14) 0.2607(2)
H7_9 H 0.1433 0.1026 0.2120
C2_9 C 0.16381(19) 0.07504(14) 0.2926(2)
H8_9 H 0.1465 0.0512 0.2576
C3_9 C 0.20408(20) 0.14720(14) 0.2375(3)
H9_9 H 0.2035 0.1728 0.2232
C4_9 C 0.21746(19) 0.13096(14) 0.1674(2)
H10_9 H 0.1956 0.1225 0.1267
C5_9 C 0.21835(20) 0.09118(14) 0.1932(2)
H11_9 H 0.1961 0.0671 0.1646
C6_9 C 0.20865(20) 0.08460(14) 0.2822(3)
H12_9 H 0.2118 0.0613 0.3020
C7_9 C 0.23377(20) 0.15558(14) 0.3031(2)
H13_9 H 0.2492 0.1820 0.3266
C8_9 C 0.23670(20) 0.12356(14) 0.3255(2)
H14_9 H 0.2549 0.1250 0.3653
C9_9 C 0.13937(19) 0.12867(14) 0.3151(3)
C10_9 C 0.14772(18) 0.06067(13) 0.3749(3)
C11_9 C 0.25836(19) 0.16273(14) 0.1307(3)
C12_9 C 0.25894(20) 0.09307(14) 0.1773(2)
C13_9 C 0.16066(21) 0.23049(14) 0.3684(3)
H15_9 H 0.1481 0.2086 0.3319
C14_9 C 0.17715(21) 0.27033(14) 0.3418(3)
H16_9 H 0.1762 0.2754 0.2879
C15_9 C 0.19522(20) 0.30341(14) 0.3936(3)
C16_9 C 0.19375(21) 0.29381(15) 0.4725(3)
H17_9 H 0.2039 0.3151 0.5105
C17_9 C 0.17734(21) 0.25294(15) 0.4951(3)
H18_9 H 0.1773 0.2470 0.5488
C18_7 C 0.21813(21) 0.34673(15) 0.3686(3)
H19_7 H 0.2285 0.3674 0.4078
C19_9 C 0.22536(23) 0.35917(16) 0.2946(3)
H20_9 H 0.2106 0.3387 0.2564
C20_9 C 0.25344(21) 0.40092(15) 0.2653(3)
C21_9 C 0.26145(24) 0.40605(16) 0.1856(3)
H21_9 H 0.2463 0.3836 0.1512
C22_9 C 0.29118(23) 0.44350(15) 0.1566(3)
H22_9 H 0.2964 0.4459 0.1023
C23_9 C 0.30446(21) 0.47265(15) 0.2773(3)
H23_9 H 0.3191 0.4962 0.3096
C24_9 C 0.27532(22) 0.43595(16) 0.3114(3)
H24_7 H 0.2702 0.4347 0.3657
C25_9 C 0.37627(21) 0.31142(15) 0.0894(3)
H25_9 H 0.3915 0.3241 0.1352
C26_9 C 0.38507(21) 0.33495(15) 0.0225(3)
H26_9 H 0.4059 0.3632 0.0230
C29_9 C 0.32567(23) 0.25415(16) 0.0276(3)
H28_9 H 0.3049 0.2259 0.0294
Ni4_9 Ni 0.15959(4) 0.02420(2) 0.52279(4)
Ni6_9 Ni 0.32548(3) 0.09816(2) 0.14701(4)
O12_9 O 0.11474(16) 0.17135(13) 0.57847(17)
O13_9 O 0.40637(13) 0.26649(10) 0.20124(18)
O14_9 O 0.37506(13) 0.21324(9) 0.12428(17)
C27_9 C 0.36317(21) 0.31711(15) 0.9545(3)
C28_9 C 0.33237(23) 0.27550(16) 0.9583(3)
H27_9 H 0.3162 0.2621 0.9137
C30_9 C 0.37251(22) 0.34086(16) 0.8829(3)
H29_9 H 0.3832 0.3697 0.8872
C31_9 C 0.36702(21) 0.32490(16) 0.8113(3)
H30_9 H 0.3555 0.2960 0.8068
C32_9 C 0.37754(21) 0.34909(15) 0.7396(3)
C33_9 C 0.39013(21) 0.33634(15) 0.6731(3)
H31_9 H 0.3906 0.3113 0.6738
C34_9 C 0.40161(21) 0.36036(14) 0.6071(3)
H32_9 H 0.4105 0.3517 0.5630
C35_9 C 0.38675(21) 0.40686(15) 0.6653(3)
H33_9 H 0.3847 0.4311 0.6617
C36_9 C 0.37544(21) 0.38491(14) 0.7338(3)
H34_9 H 0.3662 0.3942 0.7767
N4_7 N 0.72882(12) 0.66156(12) 0.0638(2)
C34_10 C 0.69369(14) 0.62541(15) 0.0596(3)
H32_10 H 0.6850 0.6078 0.1037
C35_10 C 0.74019(15) 0.68677(15) 0.0014(3)
H33_10 H 0.7644 0.7130 0.0050
O1_10 O 0.47658(9) 0.65393(9) 0.28734(17)
O2_10 O 0.46231(13) 0.68758(10) 0.3773(2)
O3_10 O 0.38409(10) 0.60672(9) 0.27773(18)
O7_10 O 0.48673(10) 0.55290(10) 0.60004(18)
O8_10 O 0.52910(10) 0.58224(10) 0.49902(18)
O9_10 O 0.48403(10) 0.73331(9) 0.25043(18)
H1_10 H 0.4675 0.7407 0.2328
H2_10 H 0.4735 0.7188 0.2910
O10_10 O 0.43047(9) 0.65738(9) 0.15871(18)
H3_10 H 0.4116 0.6461 0.1927
H4_10 H 0.4273 0.6753 0.1342
O11_10 O 0.52829(10) 0.52491(10) 0.38838(17)
H5_10 H 0.5282 0.5022 0.3876
H6_10 H 0.5059 0.5207 0.4092
N1_10 N 0.55452(12) 0.72645(11) 0.2231(2)
N2_4 N 0.80997(11) 0.83029(12) 0.4656(2)
N3_10 N 0.60517(12) 0.59118(12) 0.5745(2)
C1_10 C 0.44539(14) 0.61856(13) 0.4060(2)
H7_10 H 0.4359 0.6259 0.4547
C2_10 C 0.40837(14) 0.57789(13) 0.3741(2)
H8_10 H 0.3845 0.5713 0.4091
C3_10 C 0.48053(14) 0.60978(14) 0.4292(3)
H9_10 H 0.5061 0.6359 0.4435
C4_10 C 0.46429(14) 0.58016(13) 0.4993(2)
H10_10 H 0.4558 0.5935 0.5400
C5_10 C 0.42451(14) 0.53949(14) 0.4735(2)
H11_10 H 0.4004 0.5376 0.5021
C6_10 C 0.41793(14) 0.54261(14) 0.3845(3)
H12_10 H 0.3946 0.5161 0.3647
C7_10 C 0.48891(14) 0.58847(14) 0.3636(2)
H13_10 H 0.5153 0.5994 0.3401
C8_10 C 0.45689(14) 0.55352(14) 0.3412(2)
H14_10 H 0.4583 0.5367 0.3014
C9_10 C 0.46200(14) 0.65596(13) 0.3516(3)
C10_10 C 0.39400(13) 0.57961(13) 0.2918(3)
C11_10 C 0.49606(14) 0.57103(13) 0.5360(3)
C12_10 C 0.42640(14) 0.50079(14) 0.4894(2)
C13_10 C 0.56382(14) 0.73649(15) 0.2983(3)
H15_10 H 0.5419 0.7271 0.3348
C14_10 C 0.60366(14) 0.75984(15) 0.3249(3)
H16_10 H 0.6087 0.7658 0.3788
C15_10 C 0.63674(14) 0.77485(14) 0.2731(3)
C16_10 C 0.62714(15) 0.76672(15) 0.1942(3)
H17_10 H 0.6484 0.7778 0.1562
C17_10 C 0.58627(15) 0.74226(15) 0.1716(3)
H18_10 H 0.5803 0.7363 0.1179
C18_8 C 0.68006(15) 0.79526(15) 0.2981(3)
H19_8 H 0.7007 0.8055 0.2589
C19_10 C 0.69250(16) 0.80047(16) 0.3721(3)
H20_10 H 0.6720 0.7947 0.4103
C20_10 C 0.73425(15) 0.81414(14) 0.4014(3)
C21_10 C 0.73938(16) 0.81126(18) 0.4811(3)
H21_10 H 0.7169 0.8039 0.5155
C22_10 C 0.77683(15) 0.81898(17) 0.5101(3)
H22_10 H 0.7792 0.8161 0.5644
C23_10 C 0.80598(15) 0.83485(15) 0.3894(3)
H23_10 H 0.8295 0.8437 0.3571
C24_10 C 0.76928(16) 0.82729(15) 0.3553(3)
H24_8 H 0.7680 0.8311 0.3010
C25_10 C 0.64475(15) 0.60181(15) 0.5773(3)
H25_10 H 0.6574 0.5992 0.5315
C26_10 C 0.66828(15) 0.61654(15) 0.6442(3)
H26_10 H 0.6965 0.6239 0.6437
C27_10 C 0.65044(15) 0.62060(14) 0.7122(3)
C28_10 C 0.60883(16) 0.60979(16) 0.7084(3)
H27_10 H 0.5954 0.6125 0.7530
C29_10 C 0.58748(16) 0.59514(16) 0.6391(3)
H28_10 H 0.5592 0.5876 0.6373
C30_10 C 0.67419(16) 0.63501(15) 0.7838(3)
H29_10 H 0.7030 0.6531 0.7795
C31_10 C 0.65823(16) 0.62454(14) 0.8554(3)
H30_10 H 0.6293 0.6071 0.8599
C32_10 C 0.68242(15) 0.63821(15) 0.9271(3)
C33_10 C 0.66967(15) 0.61287(15) 0.9936(3)
H31_10 H 0.6446 0.5873 0.9929
C36_10 C 0.71824(14) 0.67613(15) 0.9329(3)
H34_10 H 0.7275 0.6946 0.8900
N5_7 N 0.50304(12) 0.64635(16) 0.1323(2)
N6_4 N 0.59941(17) 0.60451(12) 0.3971(2)
N4_8 N 0.33844(12) 0.06726(17) 0.0638(2)
C34_11 C 0.37459(15) 0.06828(21) 0.0596(3)
H32_11 H 0.3922 0.0772 0.1037
C35_11 C 0.31323(15) 0.05342(21) 0.0014(3)
H33_11 H 0.2870 0.0514 0.0050
O11_11 O 0.47509(10) 0.00338(14) 0.38838(17)
H5_11 H 0.4978 0.0260 0.3876
N3_11 N 0.40882(12) 0.01399(17) 0.5745(2)
C25_11 C 0.39819(15) 0.04294(21) 0.5773(3)
H25_11 H 0.4008 0.0582 0.5315
C26_11 C 0.38346(15) 0.05174(21) 0.6442(3)
H26_11 H 0.3761 0.0726 0.6437
C27_11 C 0.37940(14) 0.02984(21) 0.7122(3)
C30_11 C 0.36499(15) 0.03918(22) 0.7838(3)
H29_11 H 0.3469 0.0499 0.7795
C31_11 C 0.37546(14) 0.03369(21) 0.8554(3)
H30_11 H 0.3929 0.0222 0.8599
C32_11 C 0.36179(15) 0.04421(21) 0.9271(3)
C33_11 C 0.38713(15) 0.05680(21) 0.9936(3)
H31_11 H 0.4127 0.0573 0.9929
C36_11 C 0.32387(15) 0.04211(21) 0.9329(3)
H34_11 H 0.3054 0.0329 0.8900
O1_11 O 0.34607(9) 0.82265(13) 0.28734(17)
O2_11 O 0.31242(10) 0.77473(16) 0.3773(2)
O3_11 O 0.39328(9) 0.77737(13) 0.27773(18)
O7_11 O 0.44710(10) 0.93383(14) 0.60004(18)
O8_11 O 0.41776(10) 0.94686(14) 0.49902(18)
O9_11 O 0.26669(9) 0.75072(13) 0.25043(18)
H1_11 H 0.2593 0.7268 0.2328
H2_11 H 0.2812 0.7547 0.2910
O10_11 O 0.34262(9) 0.77309(13) 0.15871(18)
H3_11 H 0.3539 0.7655 0.1927
H4_11 H 0.3247 0.7520 0.1342
H6_11 H 0.4793 0.9852 0.4092
N1_11 N 0.27355(11) 0.82807(16) 0.2231(2)
N2_5 N 0.16971(12) 0.97968(16) 0.4656(2)
C1_11 C 0.38144(13) 0.82683(19) 0.4060(2)
H7_11 H 0.3741 0.8100 0.4547
C2_11 C 0.42211(13) 0.83048(19) 0.3741(2)
H8_11 H 0.4287 0.8132 0.4091
C3_11 C 0.39022(14) 0.87075(20) 0.4292(3)
H9_11 H 0.3641 0.8702 0.4435
C4_11 C 0.41984(13) 0.88413(19) 0.4993(2)
H10_11 H 0.4065 0.8623 0.5400
C5_11 C 0.46051(14) 0.88502(20) 0.4735(2)
H11_11 H 0.4624 0.8628 0.5021
C6_11 C 0.45739(14) 0.87532(20) 0.3845(3)
H12_11 H 0.4839 0.8785 0.3647
C7_11 C 0.41153(14) 0.90044(20) 0.3636(2)
H13_11 H 0.4006 0.9159 0.3401
C8_11 C 0.44648(14) 0.90337(20) 0.3412(2)
H14_11 H 0.4633 0.9216 0.3014
C9_11 C 0.34404(13) 0.80604(19) 0.3516(3)
C10_11 C 0.42039(13) 0.81439(18) 0.2918(3)
C11_11 C 0.42897(13) 0.92503(19) 0.5360(3)
C12_11 C 0.49921(14) 0.92561(20) 0.4894(2)
C13_11 C 0.26351(15) 0.82733(21) 0.2983(3)
H15_11 H 0.2729 0.8148 0.3348
C14_11 C 0.24016(15) 0.84382(21) 0.3249(3)
H16_11 H 0.2342 0.8429 0.3788
C15_11 C 0.22515(14) 0.86189(20) 0.2731(3)
C16_11 C 0.23328(15) 0.86042(21) 0.1942(3)
H17_11 H 0.2222 0.8706 0.1562
C17_11 C 0.25774(15) 0.84401(21) 0.1716(3)
H18_11 H 0.2637 0.8440 0.1179
C18_9 C 0.20474(15) 0.88480(21) 0.2981(3)
H19_9 H 0.1945 0.8952 0.2589
C19_11 C 0.19953(16) 0.89203(23) 0.3721(3)
H20_11 H 0.2053 0.8773 0.4103
C20_11 C 0.18586(14) 0.92011(21) 0.4014(3)
C21_11 C 0.18874(18) 0.92812(24) 0.4811(3)
H21_11 H 0.1961 0.9130 0.5155
C22_11 C 0.18102(17) 0.95785(23) 0.5101(3)
H22_11 H 0.1839 0.9631 0.5644
C23_11 C 0.16515(15) 0.97113(21) 0.3894(3)
H23_11 H 0.1563 0.9858 0.3571
C24_11 C 0.17271(15) 0.94199(22) 0.3553(3)
H24_9 H 0.1689 0.9369 0.3010
C28_11 C 0.39021(16) 0.99904(23) 0.7084(3)
H27_11 H 0.3875 0.9829 0.7530
C29_11 C 0.40486(16) 0.99234(23) 0.6391(3)
H28_11 H 0.4124 0.9716 0.6373
N5_8 N 0.35365(16) 0.85670(20) 0.1323(2)
N6_5 N 0.39549(12) 0.99489(21) 0.3971(2)
O1_12 O 0.17735(13) 0.52342(9) 0.28734(17)
O2_12 O 0.22527(16) 0.53769(13) 0.3773(2)
O3_12 O 0.22263(13) 0.61591(10) 0.27773(18)
O7_12 O 0.06617(14) 0.51327(10) 0.60004(18)
O8_12 O 0.05314(14) 0.47090(10) 0.49902(18)
O9_12 O 0.24928(13) 0.51597(10) 0.25043(18)
H1_12 H 0.2732 0.5325 0.2328
H2_12 H 0.2453 0.5265 0.2910
O10_12 O 0.22691(13) 0.56953(9) 0.15871(18)
H3_12 H 0.2345 0.5884 0.1927
H4_12 H 0.2480 0.5727 0.1342
H6_12 H 0.0148 0.4941 0.4092
N1_12 N 0.17193(16) 0.44548(12) 0.2231(2)
N2_6 N 0.02032(16) 0.19003(11) 0.4656(2)
C1_12 C 0.17317(19) 0.55461(14) 0.4060(2)
H7_12 H 0.1900 0.5641 0.4547
C2_12 C 0.16952(19) 0.59163(14) 0.3741(2)
H8_12 H 0.1868 0.6155 0.4091
C3_12 C 0.12925(20) 0.51947(14) 0.4292(3)
H9_12 H 0.1298 0.4939 0.4435
C4_12 C 0.11587(19) 0.53571(14) 0.4993(2)
H10_12 H 0.1377 0.5442 0.5400
C5_12 C 0.11498(20) 0.57549(14) 0.4735(2)
H11_12 H 0.1372 0.5996 0.5021
C6_12 C 0.12468(20) 0.58207(14) 0.3845(3)
H12_12 H 0.1215 0.6054 0.3647
C7_12 C 0.09956(20) 0.51109(14) 0.3636(2)
H13_12 H 0.0841 0.4847 0.3401
C8_12 C 0.09663(20) 0.54311(14) 0.3412(2)
H14_12 H 0.0784 0.5417 0.3014
C9_12 C 0.19396(19) 0.53800(14) 0.3516(3)
C10_12 C 0.18561(18) 0.60600(13) 0.2918(3)
C11_12 C 0.07497(19) 0.50394(14) 0.5360(3)
C12_12 C 0.07439(20) 0.57360(14) 0.4894(2)
C13_12 C 0.17267(21) 0.43618(14) 0.2983(3)
H15_12 H 0.1852 0.4581 0.3348
C14_12 C 0.15618(21) 0.39634(14) 0.3249(3)
H16_12 H 0.1571 0.3913 0.3788
C15_12 C 0.13811(20) 0.36326(14) 0.2731(3)
C16_12 C 0.13958(21) 0.37286(15) 0.1942(3)
H17_12 H 0.1294 0.3516 0.1562
C17_12 C 0.15599(21) 0.41373(15) 0.1716(3)
H18_12 H 0.1560 0.4197 0.1179
C18_10 C 0.11520(21) 0.31994(15) 0.2981(3)
H19_10 H 0.1048 0.2993 0.2589
C19_12 C 0.10797(23) 0.30750(16) 0.3721(3)
H20_12 H 0.1227 0.3280 0.4103
C20_12 C 0.07989(21) 0.26575(15) 0.4014(3)
C21_12 C 0.07188(24) 0.26062(16) 0.4811(3)
H21_12 H 0.0870 0.2831 0.5155
C22_12 C 0.04215(23) 0.22317(15) 0.5101(3)
H22_12 H 0.0369 0.2208 0.5644
C23_12 C 0.02887(21) 0.19402(15) 0.3894(3)
H23_12 H 0.0142 0.1705 0.3571
C24_12 C 0.05801(22) 0.23072(16) 0.3553(3)
H24_10 H 0.0631 0.2320 0.3010
C28_12 C 0.00096(23) 0.39117(16) 0.7084(3)
H27_12 H 0.0171 0.4046 0.7530
C29_12 C 0.00766(23) 0.41252(16) 0.6391(3)
H28_12 H 0.0284 0.4408 0.6373
N5_9 N 0.14330(20) 0.49696(12) 0.1323(2)
N6_6 N 0.00511(21) 0.40059(17) 0.3971(2)
N4_9 N 0.93274(17) 0.27118(12) 0.0638(2)
C34_12 C 0.93172(21) 0.30631(14) 0.0596(3)
H32_12 H 0.9228 0.3150 0.1037
C35_12 C 0.94658(21) 0.25981(15) 0.0014(3)
H33_12 H 0.9486 0.2356 0.0050
O11_12 O 0.99662(14) 0.47171(10) 0.38838(17)
H5_12 H 0.9740 0.4718 0.3876
N3_12 N 0.98601(17) 0.39483(12) 0.5745(2)
C25_12 C 0.95706(21) 0.35525(15) 0.5773(3)
H25_12 H 0.9418 0.3426 0.5315
C26_12 C 0.94826(21) 0.33172(15) 0.6442(3)
H26_12 H 0.9274 0.3035 0.6437
C27_12 C 0.97016(21) 0.34956(15) 0.7122(3)
C30_12 C 0.96082(22) 0.32581(16) 0.7838(3)
H29_12 H 0.9501 0.2970 0.7795
C31_12 C 0.96631(21) 0.34177(16) 0.8554(3)
H30_12 H 0.9778 0.3707 0.8599
C32_12 C 0.95579(21) 0.31758(15) 0.9271(3)
C33_12 C 0.94320(21) 0.33033(15) 0.9936(3)
H31_12 H 0.9427 0.3554 0.9929
C36_12 C 0.95789(21) 0.28176(14) 0.9329(3)
H34_12 H 0.9671 0.2725 0.8900
N4_10 N 0.06215(12) 0.32823(12) 0.7305(2)
C19_13 C 0.02583(16) 0.46714(16) 0.0388(3)
H20_13 H 0.0053 0.4614 0.0770
C20_13 C 0.06758(15) 0.48081(14) 0.0681(3)
C21_13 C 0.07271(16) 0.47793(18) 0.1478(3)
H21_13 H 0.0502 0.4706 0.1822
C22_13 C 0.11016(15) 0.48565(17) 0.1768(3)
H22_13 H 0.1125 0.4828 0.2311
C23_13 C 0.13931(15) 0.50152(15) 0.0561(3)
H23_13 H 0.1628 0.5104 0.0238
C24_13 C 0.10261(16) 0.49396(15) 0.0220(3)
C26_13 C 0.00161(15) 0.28321(15) 0.3109(3)
H26_13 H 0.0298 0.2906 0.3104
C30_13 C 0.00752(16) 0.30168(15) 0.4505(3)
H29_13 H 0.0363 0.3198 0.4462
C32_13 C 0.01575(15) 0.30488(15) 0.5938(3)
C33_13 C 0.00300(15) 0.27954(15) 0.6603(3)
C34_13 C 0.02702(14) 0.29208(15) 0.7263(3)
H32_13 H 0.0183 0.2745 0.7704
C35_13 C 0.07352(15) 0.35344(15) 0.6681(3)
H33_13 H 0.0977 0.3797 0.6717
C36_13 C 0.05157(14) 0.34280(15) 0.5996(3)
H34_13 H 0.0608 0.3613 0.5567
O2_13 O 0.79564(13) 0.35425(10) 0.0440(2)
O7_13 O 0.82006(10) 0.21957(10) 0.26671(18)
O8_13 O 0.86243(10) 0.24891(10) 0.16569(18)
O11_13 O 0.86162(10) 0.19158(10) 0.05505(17)
H5_13 H 0.8615 0.1689 0.0543
H6_13 H 0.8392 0.1874 0.0759
N3_13 N 0.93850(12) 0.25785(12) 0.2412(2)
C1_13 C 0.77872(14) 0.28523(13) 0.0727(2)
H7_13 H 0.7692 0.2926 0.1214
C2_13 C 0.74170(14) 0.24456(13) 0.0408(2)
H8_13 H 0.7178 0.2380 0.0758
C3_13 C 0.81386(14) 0.27645(14) 0.0959(3)
H9_13 H 0.8394 0.3026 0.1102
C4_13 C 0.79762(14) 0.24683(13) 0.1660(2)
H10_13 H 0.7891 0.2602 0.2067
C5_13 C 0.75784(14) 0.20616(14) 0.1402(2)
H11_13 H 0.7337 0.2043 0.1688
C6_13 C 0.75126(14) 0.20928(14) 0.0512(3)
H12_13 H 0.7279 0.1828 0.0314
C7_13 C 0.82224(14) 0.25514(14) 0.0303(2)
H13_13 H 0.8486 0.2661 0.0068
C8_13 C 0.79022(14) 0.22019(14) 0.0079(2)
C9_13 C 0.79533(14) 0.32263(13) 0.0183(3)
C11_13 C 0.82939(14) 0.23770(13) 0.2027(3)
C12_13 C 0.75973(14) 0.16746(14) 0.1561(2)
H15_13 H 0.8752 0.3938 0.0015
H16_13 H 0.9420 0.4325 0.0455
C25_13 C 0.97808(15) 0.26848(15) 0.2440(3)
H25_13 H 0.9907 0.2659 0.1982
C27_13 C 0.98377(15) 0.28727(14) 0.3789(3)
C28_13 C 0.94216(16) 0.27646(16) 0.3751(3)
H27_13 H 0.9287 0.2792 0.4197
C29_13 C 0.92081(16) 0.26181(16) 0.3058(3)
H28_13 H 0.8925 0.2543 0.3040
C31_13 C 0.99156(16) 0.29121(14) 0.5221(3)
H30_13 H 0.9626 0.2738 0.5266
H31_13 H 0.9779 0.2540 0.6596
O1_13 O 0.80991(9) 0.32060(9) 0.95401(17)
O3_13 O 0.71742(10) 0.27339(9) 0.94440(18)
O9_13 O 0.81736(10) 0.39998(9) 0.91710(18)
H1_13 H 0.8008 0.4074 0.8995
H2_13 H 0.8068 0.3855 0.9577
O10_13 O 0.76380(9) 0.32405(9) 0.82538(18)
H3_13 H 0.7449 0.3128 0.8594
H4_13 H 0.7606 0.3420 0.8009
N1_13 N 0.88785(12) 0.39312(11) 0.8898(2)
H14_13 H 0.7916 0.2034 0.9681
C10_13 C 0.72733(13) 0.24628(13) 0.9585(3)
C13_13 C 0.89715(14) 0.40316(15) 0.9650(3)
C14_13 C 0.93699(14) 0.42651(15) 0.9916(3)
C15_13 C 0.97007(14) 0.44152(14) 0.9398(3)
C16_13 C 0.96047(15) 0.43339(15) 0.8609(3)
H17_13 H 0.9817 0.4445 0.8229
C17_13 C 0.91960(15) 0.40893(15) 0.8383(3)
H18_13 H 0.9136 0.4030 0.7846
N5_10 N 0.83638(12) 0.31301(16) 0.7989(2)
O2_14 O 0.64575(10) 0.44140(16) 0.0440(2)
O7_14 O 0.78043(10) 0.60050(14) 0.26671(18)
O8_14 O 0.75109(10) 0.61353(14) 0.16569(18)
O11_14 O 0.80842(10) 0.67005(14) 0.05505(17)
H5_14 H 0.8311 0.6927 0.0543
H6_14 H 0.8126 0.6519 0.0759
N3_14 N 0.74215(12) 0.68066(17) 0.2412(2)
N4_11 N 0.67177(12) 0.73393(17) 0.7305(2)
C1_14 C 0.71477(13) 0.49350(19) 0.0727(2)
H7_14 H 0.7074 0.4767 0.1214
C2_14 C 0.75544(13) 0.49715(19) 0.0408(2)
H8_14 H 0.7620 0.4799 0.0758
C3_14 C 0.72355(14) 0.53742(20) 0.0959(3)
H9_14 H 0.6974 0.5369 0.1102
C4_14 C 0.75317(13) 0.55080(19) 0.1660(2)
H10_14 H 0.7398 0.5290 0.2067
C5_14 C 0.79384(14) 0.55169(20) 0.1402(2)
H11_14 H 0.7957 0.5295 0.1688
C6_14 C 0.79072(14) 0.54199(20) 0.0512(3)
H12_14 H 0.8172 0.5452 0.0314
C7_14 C 0.74486(14) 0.56711(20) 0.0303(2)
H13_14 H 0.7339 0.5826 0.0068
C8_14 C 0.77981(14) 0.57004(20) 0.0079(2)
C9_14 C 0.67737(13) 0.47271(19) 0.0183(3)
C11_14 C 0.76230(13) 0.59170(19) 0.2027(3)
C12_14 C 0.83254(14) 0.59228(20) 0.1561(2)
H15_14 H 0.6062 0.4815 0.0015
H16_14 H 0.5675 0.5096 0.0455
C19_14 C 0.53286(16) 0.55870(23) 0.0388(3)
H20_14 H 0.5386 0.5440 0.0770
C20_14 C 0.51919(14) 0.58678(21) 0.0681(3)
C21_14 C 0.52207(18) 0.59479(24) 0.1478(3)
H21_14 H 0.5294 0.5797 0.1822
C22_14 C 0.51435(17) 0.62452(23) 0.1768(3)
H22_14 H 0.5172 0.6298 0.2311
C23_14 C 0.49848(15) 0.63780(21) 0.0561(3)
H23_14 H 0.4896 0.6525 0.0238
C24_14 C 0.50604(15) 0.60866(22) 0.0220(3)
C25_14 C 0.73152(15) 0.70961(21) 0.2440(3)
H25_14 H 0.7341 0.7249 0.1982
C26_14 C 0.71679(15) 0.71841(21) 0.3109(3)
H26_14 H 0.7094 0.7393 0.3104
C27_14 C 0.71273(14) 0.69651(21) 0.3789(3)
C28_14 C 0.72354(16) 0.66571(23) 0.3751(3)
H27_14 H 0.7208 0.6496 0.4197
C29_14 C 0.73819(16) 0.65901(23) 0.3058(3)
H28_14 H 0.7457 0.6383 0.3040
C30_14 C 0.69832(15) 0.70585(22) 0.4505(3)
H29_14 H 0.6802 0.7166 0.4462
C31_14 C 0.70879(14) 0.70036(21) 0.5221(3)
H30_14 H 0.7262 0.6889 0.5266
C32_14 C 0.69512(15) 0.71088(21) 0.5938(3)
C33_14 C 0.72046(15) 0.72347(21) 0.6603(3)
H31_14 H 0.7460 0.7240 0.6596
C34_14 C 0.70792(15) 0.73495(21) 0.7263(3)
H32_14 H 0.7255 0.7439 0.7704
C35_14 C 0.64656(15) 0.72009(21) 0.6681(3)
H33_14 H 0.6203 0.7181 0.6717
C36_14 C 0.65720(15) 0.70878(21) 0.5996(3)
H34_14 H 0.6387 0.6996 0.5567
O1_14 O 0.67940(9) 0.48932(13) 0.95401(17)
O3_14 O 0.72661(9) 0.44404(13) 0.94440(18)
O9_14 O 0.60002(9) 0.41739(13) 0.91710(18)
H1_14 H 0.5926 0.3935 0.8995
H2_14 H 0.6145 0.4214 0.9577
O10_14 O 0.67595(9) 0.43976(13) 0.82538(18)
H3_14 H 0.6872 0.4322 0.8594
H4_14 H 0.6580 0.4187 0.8009
N1_14 N 0.60688(11) 0.49474(16) 0.8898(2)
H14_14 H 0.7966 0.5883 0.9681
C10_14 C 0.75372(13) 0.48106(18) 0.9585(3)
C13_14 C 0.59684(15) 0.49400(21) 0.9650(3)
C14_14 C 0.57349(15) 0.51049(21) 0.9916(3)
C15_14 C 0.55848(14) 0.52856(20) 0.9398(3)
C16_14 C 0.56661(15) 0.52709(21) 0.8609(3)
H17_14 H 0.5555 0.5373 0.8229
C17_14 C 0.59107(15) 0.51068(21) 0.8383(3)
H18_14 H 0.5970 0.5107 0.7846
C18_11 C 0.53807(15) 0.55147(21) 0.9648(3)
H19_11 H 0.5278 0.5619 0.9256
H24_11 H 0.5022 0.6036 0.9677
N5_11 N 0.68699(16) 0.52336(20) 0.7989(2)
O2_15 O 0.55860(16) 0.20436(13) 0.0440(2)
O7_15 O 0.39950(14) 0.17994(10) 0.26671(18)
O8_15 O 0.38647(14) 0.13757(10) 0.16569(18)
O11_15 O 0.32995(14) 0.13838(10) 0.05505(17)
H5_15 H 0.3073 0.1385 0.0543
H6_15 H 0.3481 0.1608 0.0759
N3_15 N 0.31934(17) 0.06150(12) 0.2412(2)
C1_15 C 0.50650(19) 0.22128(14) 0.0727(2)
H7_15 H 0.5233 0.2308 0.1214
C2_15 C 0.50285(19) 0.25830(14) 0.0408(2)
H8_15 H 0.5201 0.2822 0.0758
C3_15 C 0.46258(20) 0.18614(14) 0.0959(3)
H9_15 H 0.4631 0.1606 0.1102
C4_15 C 0.44920(19) 0.20238(14) 0.1660(2)
H10_15 H 0.4710 0.2109 0.2067
C5_15 C 0.44831(20) 0.24216(14) 0.1402(2)
H11_15 H 0.4705 0.2663 0.1688
C6_15 C 0.45801(20) 0.24874(14) 0.0512(3)
H12_15 H 0.4548 0.2721 0.0314
C7_15 C 0.43289(20) 0.17776(14) 0.0303(2)
H13_15 H 0.4174 0.1514 0.0068
C8_15 C 0.42996(20) 0.20978(14) 0.0079(2)
C9_15 C 0.52729(19) 0.20467(14) 0.0183(3)
C11_15 C 0.40830(19) 0.17061(14) 0.2027(3)
C12_15 C 0.40772(20) 0.24027(14) 0.1561(2)
H15_15 H 0.5185 0.1248 0.0015
H16_15 H 0.4904 0.0580 0.0455
C25_15 C 0.29039(21) 0.02192(15) 0.2440(3)
H25_15 H 0.2751 0.0093 0.1982
C27_15 C 0.30349(21) 0.01623(15) 0.3789(3)
C28_15 C 0.33429(23) 0.05784(16) 0.3751(3)
H27_15 H 0.3504 0.0713 0.4197
C29_15 C 0.34099(23) 0.07919(16) 0.3058(3)
H28_15 H 0.3617 0.1075 0.3040
C31_15 C 0.29964(21) 0.00844(16) 0.5221(3)
H30_15 H 0.3111 0.0374 0.5266
H31_15 H 0.2760 0.0221 0.6596
O1_15 O 0.51068(13) 0.19009(9) 0.95401(17)
O3_15 O 0.55596(13) 0.28258(10) 0.94440(18)
O9_15 O 0.58261(13) 0.18264(10) 0.91710(18)
H1_15 H 0.6065 0.1992 0.8995
H2_15 H 0.5786 0.1932 0.9577
O10_15 O 0.56024(13) 0.23620(9) 0.82538(18)
H3_15 H 0.5678 0.2551 0.8594
H4_15 H 0.5813 0.2394 0.8009
N1_15 N 0.50526(16) 0.11215(12) 0.8898(2)
H14_15 H 0.4117 0.2084 0.9681
C10_15 C 0.51894(18) 0.27267(13) 0.9585(3)
C13_15 C 0.50600(21) 0.10285(14) 0.9650(3)
C14_15 C 0.48951(21) 0.06301(14) 0.9916(3)
C15_15 C 0.47144(20) 0.02993(14) 0.9398(3)
C16_15 C 0.47291(21) 0.03953(15) 0.8609(3)
H17_15 H 0.4627 0.0183 0.8229
C17_15 C 0.48932(21) 0.08040(15) 0.8383(3)
H18_15 H 0.4893 0.0864 0.7846
N5_12 N 0.47664(20) 0.16362(12) 0.7989(2)
N4_12 N 0.26607(17) 0.93785(12) 0.7305(2)
C19_15 C 0.44130(23) 0.97417(16) 0.0388(3)
H20_15 H 0.4560 0.9947 0.0770
C20_15 C 0.41322(21) 0.93242(15) 0.0681(3)
C21_15 C 0.40521(24) 0.92729(16) 0.1478(3)
H21_15 H 0.4203 0.9498 0.1822
C22_15 C 0.37548(23) 0.88984(15) 0.1768(3)
H22_15 H 0.3702 0.8875 0.2311
C23_15 C 0.36220(21) 0.86069(15) 0.0561(3)
H23_15 H 0.3475 0.8372 0.0238
C24_15 C 0.39134(22) 0.89739(16) 0.0220(3)
C26_15 C 0.28159(21) 0.99839(15) 0.3109(3)
H26_15 H 0.2607 0.9702 0.3104
C30_15 C 0.29415(22) 0.99248(16) 0.4505(3)
H29_15 H 0.2834 0.9637 0.4462
C32_15 C 0.28912(21) 0.98425(15) 0.5938(3)
C33_15 C 0.27653(21) 0.99700(15) 0.6603(3)
C34_15 C 0.26505(21) 0.97298(14) 0.7263(3)
H32_15 H 0.2561 0.9817 0.7704
C35_15 C 0.27991(21) 0.92648(15) 0.6681(3)
H33_15 H 0.2819 0.9023 0.6717
C36_15 C 0.29122(21) 0.94843(14) 0.5996(3)
H34_15 H 0.3004 0.9392 0.5567
C35_16 C 0.40686(15) 0.02010(15) 0.3347(3)
H33_16 H 0.4311 0.0463 0.3383
C36_16 C 0.38491(14) 0.00946(15) 0.2662(3)
H34_16 H 0.3942 0.0279 0.2233
O2_16 O 0.12898(13) 0.02091(10) 0.7106(2)
O9_16 O 0.15070(10) 0.06664(9) 0.58376(18)
H1_16 H 0.1342 0.0740 0.5661
H2_16 H 0.1402 0.0521 0.6243
H4_16 H 0.0940 0.0086 0.4675
N1_16 N 0.22119(12) 0.05978(11) 0.5564(2)
C13_16 C 0.23049(14) 0.06982(15) 0.6316(3)
H15_16 H 0.2086 0.0604 0.6681
C14_16 C 0.27033(14) 0.09317(15) 0.6582(3)
H16_16 H 0.2754 0.0991 0.7121
C15_16 C 0.30341(14) 0.10818(14) 0.6064(3)
C16_16 C 0.29381(15) 0.10005(15) 0.5275(3)
H17_16 H 0.3151 0.1111 0.4895
C17_16 C 0.25294(15) 0.07559(15) 0.5049(3)
H18_16 H 0.2470 0.0696 0.4512
C18_12 C 0.34673(15) 0.12859(15) 0.6314(3)
H19_12 H 0.3674 0.1388 0.5922
C19_16 C 0.35917(16) 0.13380(16) 0.7054(3)
H20_16 H 0.3387 0.1280 0.7436
C20_16 C 0.40092(15) 0.14747(14) 0.7347(3)
C21_16 C 0.40605(16) 0.14459(18) 0.8144(3)
H21_16 H 0.3836 0.1372 0.8488
C22_16 C 0.44350(15) 0.15231(17) 0.8434(3)
H22_16 H 0.4459 0.1494 0.8977
C23_16 C 0.47265(15) 0.16818(15) 0.7227(3)
H23_16 H 0.4962 0.1770 0.6904
C24_16 C 0.43595(16) 0.16062(15) 0.6886(3)
H24_12 H 0.4347 0.1644 0.6343
C27_16 C 0.31711(15) 0.95393(14) 0.0455(3)
C28_16 C 0.27550(16) 0.94312(16) 0.0417(3)
H27_16 H 0.2621 0.9458 0.0863
C30_16 C 0.34086(16) 0.96834(15) 0.1171(3)
H29_16 H 0.3697 0.9864 0.1128
C31_16 C 0.32490(16) 0.95787(14) 0.1887(3)
H30_16 H 0.2960 0.9404 0.1932
C32_16 C 0.34909(15) 0.97154(15) 0.2604(3)
C33_16 C 0.33634(15) 0.94620(15) 0.3269(3)
H31_16 H 0.3113 0.9206 0.3262
C34_16 C 0.36036(14) 0.95874(15) 0.3929(3)
H32_16 H 0.3517 0.9411 0.4370
O1_16 O 0.14325(9) 0.98726(9) 0.62067(17)
O3_16 O 0.05076(10) 0.94005(9) 0.61106(18)
O7_16 O 0.15340(10) 0.88623(10) 0.93337(18)
O8_16 O 0.19577(10) 0.91557(10) 0.83235(18)
O10_16 O 0.09714(9) 0.99071(9) 0.49204(18)
H3_16 H 0.0783 0.9794 0.5260
O11_16 O 0.19496(10) 0.85824(10) 0.72171(17)
H5_16 H 0.1949 0.8355 0.7209
H6_16 H 0.1726 0.8540 0.7425
N3_16 N 0.27184(12) 0.92451(12) 0.9078(2)
C1_16 C 0.11206(14) 0.95189(13) 0.7393(2)
H7_16 H 0.1026 0.9592 0.7880
C2_16 C 0.07504(14) 0.91122(13) 0.7074(2)
H8_16 H 0.0512 0.9046 0.7424
C3_16 C 0.14720(14) 0.94311(14) 0.7625(3)
H9_16 H 0.1728 0.9692 0.7768
C4_16 C 0.13096(14) 0.91349(13) 0.8326(2)
H10_16 H 0.1225 0.9268 0.8733
C5_16 C 0.09118(14) 0.87282(14) 0.8068(2)
H11_16 H 0.0671 0.8709 0.8354
C6_16 C 0.08460(14) 0.87594(14) 0.7178(3)
H12_16 H 0.0613 0.8494 0.6980
C7_16 C 0.15558(14) 0.92180(14) 0.6969(2)
H13_16 H 0.1820 0.9327 0.6734
C8_16 C 0.12356(14) 0.88685(14) 0.6745(2)
H14_16 H 0.1250 0.8700 0.6347
C9_16 C 0.12867(14) 0.98929(13) 0.6849(3)
C10_16 C 0.06067(13) 0.91294(13) 0.6251(3)
C11_16 C 0.16273(14) 0.90436(13) 0.8693(3)
C12_16 C 0.09307(14) 0.83412(14) 0.8227(2)
C25_16 C 0.31142(15) 0.93514(15) 0.9106(3)
H25_16 H 0.3241 0.9325 0.8648
C26_16 C 0.33495(15) 0.94987(15) 0.9775(3)
H26_16 H 0.3632 0.9572 0.9770
C29_16 C 0.25415(16) 0.92847(16) 0.9724(3)
H28_16 H 0.2259 0.9209 0.9706
C27_17 C 0.04607(14) 0.36317(21) 0.0455(3)
C28_17 C 0.05688(16) 0.33237(23) 0.0417(3)
H27_17 H 0.0542 0.3162 0.0863
C30_17 C 0.03166(15) 0.37251(22) 0.1171(3)
H29_17 H 0.0136 0.3832 0.1128
C31_17 C 0.04213(14) 0.36702(21) 0.1887(3)
H30_17 H 0.0596 0.3555 0.1932
C32_17 C 0.02846(15) 0.37754(21) 0.2604(3)
C33_17 C 0.05380(15) 0.39013(21) 0.3269(3)
H31_17 H 0.0794 0.3906 0.3262
C34_17 C 0.04126(15) 0.40161(21) 0.3929(3)
H32_17 H 0.0589 0.4105 0.4370
O1_17 O 0.01274(9) 0.15598(13) 0.62067(17)
O3_17 O 0.05995(9) 0.11070(13) 0.61106(18)
O7_17 O 0.11377(10) 0.26716(14) 0.93337(18)
O8_17 O 0.08443(10) 0.28019(14) 0.83235(18)
O10_17 O 0.00929(9) 0.10642(13) 0.49204(18)
H3_17 H 0.0206 0.0988 0.5260
O11_17 O 0.14176(10) 0.33671(14) 0.72171(17)
H5_17 H 0.1645 0.3593 0.7209
H6_17 H 0.1460 0.3185 0.7425
N3_17 N 0.07549(12) 0.34732(17) 0.9078(2)
C1_17 C 0.04811(13) 0.16016(19) 0.7393(2)
H7_17 H 0.0408 0.1433 0.7880
C2_17 C 0.08878(13) 0.16381(19) 0.7074(2)
H8_17 H 0.0954 0.1465 0.7424
C3_17 C 0.05689(14) 0.20408(20) 0.7625(3)
H9_17 H 0.0308 0.2035 0.7768
C4_17 C 0.08651(13) 0.21746(19) 0.8326(2)
H10_17 H 0.0732 0.1956 0.8733
C5_17 C 0.12718(14) 0.21835(20) 0.8068(2)
H11_17 H 0.1291 0.1961 0.8354
C6_17 C 0.12406(14) 0.20865(20) 0.7178(3)
H12_17 H 0.1506 0.2118 0.6980
C7_17 C 0.07820(14) 0.23377(20) 0.6969(2)
H13_17 H 0.0673 0.2492 0.6734
C8_17 C 0.11315(14) 0.23670(20) 0.6745(2)
H14_17 H 0.1300 0.2549 0.6347
C9_17 C 0.01071(13) 0.13937(19) 0.6849(3)
C10_17 C 0.08706(13) 0.14772(18) 0.6251(3)
C11_17 C 0.09564(13) 0.25836(19) 0.8693(3)
C12_17 C 0.16588(14) 0.25894(20) 0.8227(2)
C25_17 C 0.06486(15) 0.37627(21) 0.9106(3)
H25_17 H 0.0675 0.3915 0.8648
C26_17 C 0.05013(15) 0.38507(21) 0.9775(3)
H26_17 H 0.0428 0.4059 0.9770
C29_17 C 0.07153(16) 0.32567(23) 0.9724(3)
H28_17 H 0.0791 0.3049 0.9706
C35_17 C 0.97990(15) 0.38675(21) 0.3347(3)
H33_17 H 0.9537 0.3847 0.3383
C36_17 C 0.99054(15) 0.37544(21) 0.2662(3)
H34_17 H 0.9721 0.3662 0.2233
O2_17 O 0.97909(10) 0.10806(16) 0.7106(2)
O9_17 O 0.93336(9) 0.08405(13) 0.58376(18)
H1_17 H 0.9260 0.0601 0.5661
H2_17 H 0.9479 0.0880 0.6243
H4_17 H 0.9914 0.0853 0.4675
N1_17 N 0.94022(11) 0.16140(16) 0.5564(2)
C13_17 C 0.93018(15) 0.16066(21) 0.6316(3)
H15_17 H 0.9396 0.1481 0.6681
C14_17 C 0.90683(15) 0.17715(21) 0.6582(3)
H16_17 H 0.9009 0.1762 0.7121
C15_17 C 0.89182(14) 0.19522(20) 0.6064(3)
C16_17 C 0.89995(15) 0.19375(21) 0.5275(3)
H17_17 H 0.8889 0.2039 0.4895
C17_17 C 0.92441(15) 0.17734(21) 0.5049(3)
H18_17 H 0.9304 0.1773 0.4512
C18_13 C 0.87141(15) 0.21813(21) 0.6314(3)
H19_13 H 0.8612 0.2285 0.5922
C19_17 C 0.86620(16) 0.22536(23) 0.7054(3)
H20_17 H 0.8720 0.2106 0.7436
C20_17 C 0.85253(14) 0.25344(21) 0.7347(3)
C21_17 C 0.85541(18) 0.26145(24) 0.8144(3)
H21_17 H 0.8628 0.2463 0.8488
C22_17 C 0.84769(17) 0.29118(23) 0.8434(3)
H22_17 H 0.8506 0.2964 0.8977
C23_17 C 0.83182(15) 0.30446(21) 0.7227(3)
H23_17 H 0.8230 0.3191 0.6904
C24_17 C 0.83938(15) 0.27532(22) 0.6886(3)
H24_13 H 0.8356 0.2702 0.6343
C27_18 C 0.63683(21) 0.68289(15) 0.0455(3)
C28_18 C 0.66763(23) 0.72450(16) 0.0417(3)
H27_18 H 0.6838 0.7379 0.0863
C30_18 C 0.62749(22) 0.65914(16) 0.1171(3)
H29_18 H 0.6168 0.6303 0.1128
C31_18 C 0.63298(21) 0.67510(16) 0.1887(3)
H30_18 H 0.6445 0.7040 0.1932
C32_18 C 0.62246(21) 0.65091(15) 0.2604(3)
C33_18 C 0.60987(21) 0.66366(15) 0.3269(3)
H31_18 H 0.6094 0.6887 0.3262
C34_18 C 0.59839(21) 0.63964(14) 0.3929(3)
H32_18 H 0.5895 0.6483 0.4370
C35_18 C 0.61325(21) 0.59314(15) 0.3347(3)
H33_18 H 0.6153 0.5689 0.3383
C36_18 C 0.62456(21) 0.61509(14) 0.2662(3)
H34_18 H 0.6338 0.6058 0.2233
O1_18 O 0.84402(13) 0.85675(9) 0.62067(17)
O2_18 O 0.89194(16) 0.87102(13) 0.7106(2)
O3_18 O 0.88930(13) 0.94924(10) 0.61106(18)
O7_18 O 0.73284(14) 0.84660(10) 0.93337(18)
O8_18 O 0.71981(14) 0.80423(10) 0.83235(18)
O9_18 O 0.91595(13) 0.84930(10) 0.58376(18)
H1_18 H 0.9399 0.8658 0.5661
H2_18 H 0.9120 0.8598 0.6243
O10_18 O 0.89358(13) 0.90286(9) 0.49204(18)
H3_18 H 0.9012 0.9217 0.5260
H4_18 H 0.9147 0.9060 0.4675
O11_18 O 0.66329(14) 0.80504(10) 0.72171(17)
H5_18 H 0.6407 0.8051 0.7209
H6_18 H 0.6815 0.8274 0.7425
N1_18 N 0.83860(16) 0.77881(12) 0.5564(2)
N3_18 N 0.65268(17) 0.72816(12) 0.9078(2)
C1_18 C 0.83984(19) 0.88794(14) 0.7393(2)
H7_18 H 0.8567 0.8974 0.7880
C2_18 C 0.83619(19) 0.92496(14) 0.7074(2)
H8_18 H 0.8535 0.9488 0.7424
C3_18 C 0.79592(20) 0.85280(14) 0.7625(3)
H9_18 H 0.7965 0.8272 0.7768
C4_18 C 0.78254(19) 0.86904(14) 0.8326(2)
H10_18 H 0.8044 0.8775 0.8733
C5_18 C 0.78165(20) 0.90882(14) 0.8068(2)
H11_18 H 0.8039 0.9329 0.8354
C6_18 C 0.79135(20) 0.91540(14) 0.7178(3)
H12_18 H 0.7882 0.9387 0.6980
C7_18 C 0.76623(20) 0.84442(14) 0.6969(2)
H13_18 H 0.7508 0.8180 0.6734
C8_18 C 0.76330(20) 0.87644(14) 0.6745(2)
H14_18 H 0.7451 0.8750 0.6347
C9_18 C 0.86063(19) 0.87133(14) 0.6849(3)
C10_18 C 0.85228(18) 0.93933(13) 0.6251(3)
C11_18 C 0.74164(19) 0.83727(14) 0.8693(3)
C12_18 C 0.74106(20) 0.90693(14) 0.8227(2)
C13_18 C 0.83934(21) 0.76951(14) 0.6316(3)
H15_18 H 0.8519 0.7914 0.6681
C14_18 C 0.82285(21) 0.72967(14) 0.6582(3)
H16_18 H 0.8238 0.7246 0.7121
C15_18 C 0.80478(20) 0.69659(14) 0.6064(3)
C16_18 C 0.80625(21) 0.70619(15) 0.5275(3)
H17_18 H 0.7961 0.6849 0.4895
C17_18 C 0.82266(21) 0.74706(15) 0.5049(3)
H18_18 H 0.8227 0.7530 0.4512
C18_14 C 0.78187(21) 0.65327(15) 0.6314(3)
H19_14 H 0.7715 0.6326 0.5922
C19_18 C 0.77464(23) 0.64083(16) 0.7054(3)
H20_18 H 0.7894 0.6613 0.7436
C20_18 C 0.74656(21) 0.59908(15) 0.7347(3)
C21_18 C 0.73855(24) 0.59395(16) 0.8144(3)
H21_18 H 0.7537 0.6164 0.8488
C22_18 C 0.70882(23) 0.55650(15) 0.8434(3)
H22_18 H 0.7036 0.5541 0.8977
C23_18 C 0.69554(21) 0.52735(15) 0.7227(3)
H23_18 H 0.6809 0.5038 0.6904
C24_18 C 0.72468(22) 0.56405(16) 0.6886(3)
H24_14 H 0.7298 0.5653 0.6343
C25_18 C 0.62373(21) 0.68858(15) 0.9106(3)
H25_18 H 0.6085 0.6759 0.8648
C26_18 C 0.61493(21) 0.66505(15) 0.9775(3)
H26_18 H 0.5941 0.6368 0.9770
C29_18 C 0.67433(23) 0.74585(16) 0.9724(3)
H28_18 H 0.6951 0.7741 0.9706
C18_15 C 0.98661(15) 0.53807(15) 0.0352(3)
H19_15 H 0.9660 0.5278 0.0744
H24_15 H 0.8987 0.5022 0.0323
C18_16 C 0.55147(21) 0.01339(15) 0.0352(3)
H19_16 H 0.5619 0.0340 0.0744
H24_16 H 0.6036 0.1013 0.0323
C18_17 C 0.01339(15) 0.46193(15) 0.9648(3)
H19_17 H 0.0340 0.4722 0.9256
H24_17 H 0.1013 0.4978 0.9677
C18_18 C 0.44853(21) 0.98661(15) 0.9648(3)
H19_18 H 0.4381 0.9660 0.9256
H24_18 H 0.3964 0.8987 0.9677
loop_
_geom_bond_atom_site_label_1
_geom_bond_atom_site_label_2
_geom_bond_site_symmetry_1
_geom_bond_site_symmetry_2
Ni1 O1 1_555 1_555
Ni2 O8 1_555 1_555
O1 C9 1_555 1_555
O2 C9 1_555 1_555
O3 C10 1_555 1_555
O4 C10 1_555 1_555
O5 C12 1_555 1_555
O6 C12 1_555 1_555
O7 C11 1_555 1_555
O8 C11 1_555 1_555
O9 Ni1 1_555 1_555
H1 O9 1_555 1_555
H2 O9 1_555 1_555
O10 Ni1 1_555 1_555
H3 O10 1_555 1_555
H4 O10 1_555 1_555
O11 Ni2 1_555 1_555
H5 O11 1_555 1_555
H6 O11 1_555 1_555
N1 Ni1 1_555 1_555
N2 C22 1_555 1_555
N3 Ni2 1_555 1_555
C1 H7 1_555 1_555
C2 C1 1_555 1_555
H8 C2 1_555 1_555
C3 C1 1_555 1_555
H9 C3 1_555 1_555
C4 C3 1_555 1_555
H10 C4 1_555 1_555
C5 C4 1_555 1_555
H11 C5 1_555 1_555
C6 C2 1_555 1_555
H12 C6 1_555 1_555
C7 C3 1_555 1_555
H13 C7 1_555 1_555
C8 C6 1_555 1_555
H14 C8 1_555 1_555
C9 C1 1_555 1_555
C10 C2 1_555 1_555
C11 C4 1_555 1_555
C12 C5 1_555 1_555
C13 N1 1_555 1_555
H15 C13 1_555 1_555
C14 C13 1_555 1_555
H16 C14 1_555 1_555
C15 C14 1_555 1_555
C16 C15 1_555 1_555
H17 C16 1_555 1_555
C17 N1 1_555 1_555
H18 C17 1_555 1_555
C18 C15 1_555 1_555
H19 C18 1_555 1_555
C19 C18 1_555 1_555
H20 C19 1_555 1_555
C20 C19 1_555 1_555
C21 C20 1_555 1_555
H21 C21 1_555 1_555
C22 C21 1_555 1_555
H22 C22 1_555 1_555
C23 N2 1_555 1_555
H23 C23 1_555 1_555
C24 C20 1_555 1_555
H24 C24 1_555 1_555
C25 N3 1_555 1_555
H25 C25 1_555 1_555
C26 C25 1_555 1_555
H26 C26 1_555 1_555
C27 C26 1_555 1_555
C28 C27 1_555 1_555
H27 C28 1_555 1_555
C29 N3 1_555 1_555
H28 C29 1_555 1_555
C30 C27 1_555 1_555
H29 C30 1_555 1_555
C31 C30 1_555 1_555
H30 C31 1_555 1_555
C32 C31 1_555 1_555
C33 C32 1_555 1_555
H31 C33 1_555 1_555
C36 C32 1_555 1_555
H34 C36 1_555 1_555
Ni3 N2 1_555 1_555
Ni4 O4 1_555 1_555
Ni6 O5 1_555 1_555
O12 Ni1 1_555 1_555
O13 Ni2 1_555 1_555
O14 Ni2 1_555 1_555
N5 Ni1 1_555 1_555
N6 Ni2 1_555 1_555
O6 Ni6 1_555 1_555
C5 C6 1_555 1_555
C7 C8 1_555 1_555
C16 C17 1_555 1_555
C23 C24 1_555 1_555
C28 C29 1_555 1_555
N4 C34 1_555 1_555
H32 C34 1_555 1_555
C35 N4 1_555 1_555
H33 C35 1_555 1_555
Ni5 N4 1_555 1_555
Ni1_2 O1_2 1_555 1_555
O1_2 C9_2 1_555 1_555
O2_2 C9_2 1_555 1_555
O3_2 C10_2 1_555 1_555
O4_2 C10_2 1_555 1_555
O5_2 C12_2 1_555 1_555
O6_2 C12_2 1_555 1_555
O7_2 C11_2 1_555 1_555
O8_2 C11_2 1_555 1_555
O9_2 Ni1_2 1_555 1_555
H1_2 O9_2 1_555 1_555
H2_2 O9_2 1_555 1_555
O10_2 Ni1_2 1_555 1_555
H3_2 O10_2 1_555 1_555
H4_2 O10_2 1_555 1_555
N1_2 Ni1_2 1_555 1_555
N2_2 C22_2 1_555 1_555
C1_2 H7_2 1_555 1_555
C2_2 C1_2 1_555 1_555
H8_2 C2_2 1_555 1_555
C3_2 C1_2 1_555 1_555
H9_2 C3_2 1_555 1_555
C4_2 C3_2 1_555 1_555
H10_2 C4_2 1_555 1_555
C5_2 C4_2 1_555 1_555
H11_2 C5_2 1_555 1_555
C6_2 C2_2 1_555 1_555
H12_2 C6_2 1_555 1_555
C7_2 C3_2 1_555 1_555
H13_2 C7_2 1_555 1_555
C8_2 C6_2 1_555 1_555
H14_2 C8_2 1_555 1_555
C9_2 C1_2 1_555 1_555
C10_2 C2_2 1_555 1_555
C11_2 C4_2 1_555 1_555
C12_2 C5_2 1_555 1_555
C13_2 N1_2 1_555 1_555
H15_2 C13_2 1_555 1_555
C14_2 C13_2 1_555 1_555
H16_2 C14_2 1_555 1_555
C15_2 C14_2 1_555 1_555
C16_2 C15_2 1_555 1_555
H17_2 C16_2 1_555 1_555
C17_2 N1_2 1_555 1_555
H18_2 C17_2 1_555 1_555
C18_2 C15_2 1_555 1_555
H19_2 C18_2 1_555 1_555
C19_2 C18_2 1_555 1_555
H20_2 C19_2 1_555 1_555
C20_2 C19_2 1_555 1_555
C21_2 C20_2 1_555 1_555
H21_2 C21_2 1_555 1_555
C22_2 C21_2 1_555 1_555
H22_2 C22_2 1_555 1_555
C23_2 N2_2 1_555 1_555
H23_2 C23_2 1_555 1_555
C24_2 C20_2 1_555 1_555
H24_2 C24_2 1_555 1_555
H27_2 C28_2 1_555 1_555
H28_2 C29_2 1_555 1_555
Ni4_2 O4_2 1_555 1_555
Ni6_2 O5_2 1_555 1_555
O12_2 Ni1_2 1_555 1_555
N5_2 Ni1_2 1_555 1_555
O6_2 Ni6_2 1_555 1_555
C5_2 C6_2 1_555 1_555
C7_2 C8_2 1_555 1_555
C16_2 C17_2 1_555 1_555
C23_2 C24_2 1_555 1_555
C28_2 C29_2 1_555 1_555
O11_2 Ni2_2 1_555 1_555
H5_2 O11_2 1_555 1_555
N3_2 Ni2_2 1_555 1_555
C25_2 N3_2 1_555 1_555
H25_2 C25_2 1_555 1_555
C26_2 C25_2 1_555 1_555
H26_2 C26_2 1_555 1_555
C27_2 C26_2 1_555 1_555
C30_2 C27_2 1_555 1_555
H29_2 C30_2 1_555 1_555
C31_2 C30_2 1_555 1_555
H30_2 C31_2 1_555 1_555
C32_2 C31_2 1_555 1_555
C33_2 C32_2 1_555 1_555
H31_2 C33_2 1_555 1_555
C36_2 C32_2 1_555 1_555
H34_2 C36_2 1_555 1_555
O13_2 Ni2_2 1_555 1_555
O14_2 Ni2_2 1_555 1_555
N4_2 C34_2 1_555 1_555
H32_2 C34_2 1_555 1_555
C35_2 N4_2 1_555 1_555
H33_2 C35_2 1_555 1_555
Ni5_2 N4_2 1_555 1_555
O11_3 Ni2_3 1_555 1_555
H5_3 O11_3 1_555 1_555
N3_3 Ni2_3 1_555 1_555
C25_3 N3_3 1_555 1_555
H25_3 C25_3 1_555 1_555
C26_3 C25_3 1_555 1_555
H26_3 C26_3 1_555 1_555
C27_3 C26_3 1_555 1_555
C30_3 C27_3 1_555 1_555
H29_3 C30_3 1_555 1_555
C31_3 C30_3 1_555 1_555
H30_3 C31_3 1_555 1_555
C32_3 C31_3 1_555 1_555
C33_3 C32_3 1_555 1_555
H31_3 C33_3 1_555 1_555
C36_3 C32_3 1_555 1_555
H34_3 C36_3 1_555 1_555
O13_3 Ni2_3 1_555 1_555
O14_3 Ni2_3 1_555 1_555
N4_3 C34_3 1_555 1_555
H32_3 C34_3 1_555 1_555
C35_3 N4_3 1_555 1_555
H33_3 C35_3 1_555 1_555
Ni5_3 N4_3 1_555 1_555
Ni1_3 O1_3 1_555 1_555
O1_3 C9_3 1_555 1_555
O2_3 C9_3 1_555 1_555
O3_3 C10_3 1_555 1_555
O4_3 C10_3 1_555 1_555
O5_3 C12_3 1_555 1_555
O6_3 C12_3 1_555 1_555
O7_3 C11_3 1_555 1_555
O8_3 C11_3 1_555 1_555
O9_3 Ni1_3 1_555 1_555
H1_3 O9_3 1_555 1_555
H2_3 O9_3 1_555 1_555
O10_3 Ni1_3 1_555 1_555
H3_3 O10_3 1_555 1_555
H4_3 O10_3 1_555 1_555
N1_3 Ni1_3 1_555 1_555
N2_3 C22_3 1_555 1_555
C1_3 H7_3 1_555 1_555
C2_3 C1_3 1_555 1_555
H8_3 C2_3 1_555 1_555
C3_3 C1_3 1_555 1_555
H9_3 C3_3 1_555 1_555
C4_3 C3_3 1_555 1_555
H10_3 C4_3 1_555 1_555
C5_3 C4_3 1_555 1_555
H11_3 C5_3 1_555 1_555
C6_3 C2_3 1_555 1_555
H12_3 C6_3 1_555 1_555
C7_3 C3_3 1_555 1_555
H13_3 C7_3 1_555 1_555
C8_3 C6_3 1_555 1_555
H14_3 C8_3 1_555 1_555
C9_3 C1_3 1_555 1_555
C10_3 C2_3 1_555 1_555
C11_3 C4_3 1_555 1_555
C12_3 C5_3 1_555 1_555
C13_3 N1_3 1_555 1_555
H15_3 C13_3 1_555 1_555
C14_3 C13_3 1_555 1_555
H16_3 C14_3 1_555 1_555
C15_3 C14_3 1_555 1_555
C16_3 C15_3 1_555 1_555
H17_3 C16_3 1_555 1_555
C17_3 N1_3 1_555 1_555
H18_3 C17_3 1_555 1_555
C18_3 C15_3 1_555 1_555
H19_3 C18_3 1_555 1_555
C19_3 C18_3 1_555 1_555
H20_3 C19_3 1_555 1_555
C20_3 C19_3 1_555 1_555
C21_3 C20_3 1_555 1_555
H21_3 C21_3 1_555 1_555
C22_3 C21_3 1_555 1_555
H22_3 C22_3 1_555 1_555
C23_3 N2_3 1_555 1_555
H23_3 C23_3 1_555 1_555
C24_3 C20_3 1_555 1_555
H24_3 C24_3 1_555 1_555
H27_3 C28_3 1_555 1_555
H28_3 C29_3 1_555 1_555
Ni4_3 O4_3 1_555 1_555
Ni6_3 O5_3 1_555 1_555
O12_3 Ni1_3 1_555 1_555
N5_3 Ni1_3 1_555 1_555
O6_3 Ni6_3 1_555 1_555
C5_3 C6_3 1_555 1_555
C7_3 C8_3 1_555 1_555
C16_3 C17_3 1_555 1_555
C23_3 C24_3 1_555 1_555
C28_3 C29_3 1_555 1_555
Ni1_4 O1_4 1_555 1_555
O3_4 C10_4 1_555 1_555
O4_4 C10_4 1_555 1_555
O9_4 Ni1_4 1_555 1_555
H1_4 O9_4 1_555 1_555
H2_4 O9_4 1_555 1_555
O10_4 Ni1_4 1_555 1_555
H3_4 O10_4 1_555 1_555
H4_4 O10_4 1_555 1_555
N1_4 Ni1_4 1_555 1_555
C13_4 N1_4 1_555 1_555
C14_4 C13_4 1_555 1_555
C15_4 C14_4 1_555 1_555
C16_4 C15_4 1_555 1_555
H17_4 C16_4 1_555 1_555
C17_4 N1_4 1_555 1_555
H18_4 C17_4 1_555 1_555
Ni4_4 O4_4 1_555 1_555
O12_4 Ni1_4 1_555 1_555
N5_4 Ni1_4 1_555 1_555
C16_4 C17_4 1_555 1_555
Ni5_3 O8_4 1_555 1_555
O2_4 C9_4 1_555 1_555
O5_4 C12_4 1_555 1_555
O6_4 C12_4 1_555 1_555
O7_4 C11_4 1_555 1_555
O8_4 C11_4 1_555 1_555
O11_4 Ni5_3 1_555 1_555
H5_4 O11_4 1_555 1_555
H6_4 O11_4 1_555 1_555
N3_4 Ni5_3 1_555 1_555
C1_4 H7_4 1_555 1_555
C2_4 C1_4 1_555 1_555
H8_4 C2_4 1_555 1_555
C3_4 C1_4 1_555 1_555
H9_4 C3_4 1_555 1_555
C4_4 C3_4 1_555 1_555
H10_4 C4_4 1_555 1_555
C5_4 C4_4 1_555 1_555
H11_4 C5_4 1_555 1_555
C6_4 C2_4 1_555 1_555
H12_4 C6_4 1_555 1_555
C7_4 C3_4 1_555 1_555
H13_4 C7_4 1_555 1_555
C8_4 C6_4 1_555 1_555
C9_4 C1_4 1_555 1_555
C11_4 C4_4 1_555 1_555
C12_4 C5_4 1_555 1_555
C25_4 N3_4 1_555 1_555
H25_4 C25_4 1_555 1_555
C28_4 C27_4 1_555 1_555
H27_4 C28_4 1_555 1_555
C29_4 N3_4 1_555 1_555
H28_4 C29_4 1_555 1_555
H30_4 C31_4 1_555 1_555
Ni6_4 O5_4 1_555 1_555
O13_4 Ni5_3 1_555 1_555
O14_4 Ni5_3 1_555 1_555
O6_4 Ni6_4 1_555 1_555
C5_4 C6_4 1_555 1_555
C7_4 C8_4 1_555 1_555
C28_4 C29_4 1_555 1_555
N5_3 C22_4 1_555 1_555
N4_4 C34_4 1_555 1_555
H20_4 C19_4 1_555 1_555
C20_4 C19_4 1_555 1_555
C21_4 C20_4 1_555 1_555
H21_4 C21_4 1_555 1_555
C22_4 C21_4 1_555 1_555
H22_4 C22_4 1_555 1_555
C23_4 N5_3 1_555 1_555
H23_4 C23_4 1_555 1_555
C24_4 C20_4 1_555 1_555
H26_4 C26_4 1_555 1_555
H29_4 C30_4 1_555 1_555
C33_4 C32_4 1_555 1_555
C34_4 C33_4 1_555 1_555
H32_4 C34_4 1_555 1_555
C35_4 N4_4 1_555 1_555
H33_4 C35_4 1_555 1_555
C36_4 C32_4 1_555 1_555
H34_4 C36_4 1_555 1_555
Ni5_4 N4_4 1_555 1_555
C23_4 C24_4 1_555 1_555
C35_4 C36_4 1_555 1_555
Ni1_5 O1_5 1_555 1_555
O3_5 C10_5 1_555 1_555
O4_5 C10_5 1_555 1_555
O9_5 Ni1_5 1_555 1_555
H1_5 O9_5 1_555 1_555
H2_5 O9_5 1_555 1_555
O10_5 Ni1_5 1_555 1_555
H3_5 O10_5 1_555 1_555
H4_5 O10_5 1_555 1_555
N1_5 Ni1_5 1_555 1_555
C13_5 N1_5 1_555 1_555
C14_5 C13_5 1_555 1_555
C15_5 C14_5 1_555 1_555
C16_5 C15_5 1_555 1_555
H17_5 C16_5 1_555 1_555
C17_5 N1_5 1_555 1_555
H18_5 C17_5 1_555 1_555
C18_4 C15_5 1_555 1_555
H19_4 C18_4 1_555 1_555
Ni4_5 O4_5 1_555 1_555
O12_5 Ni1_5 1_555 1_555
N5_5 Ni1_5 1_555 1_555
C16_5 C17_5 1_555 1_555
Ni5 O8_5 1_555 1_555
O2_5 C9_5 1_555 1_555
O5_5 C12_5 1_555 1_555
O6_5 C12_5 1_555 1_555
O7_5 C11_5 1_555 1_555
O8_5 C11_5 1_555 1_555
O11_5 Ni5 1_555 1_555
H5_5 O11_5 1_555 1_555
H6_5 O11_5 1_555 1_555
N5 C22_5 1_555 1_555
N3_5 Ni5 1_555 1_555
N4_5 C34_5 1_555 1_555
C1_5 H7_5 1_555 1_555
C2_5 C1_5 1_555 1_555
H8_5 C2_5 1_555 1_555
C3_5 C1_5 1_555 1_555
H9_5 C3_5 1_555 1_555
C4_5 C3_5 1_555 1_555
H10_5 C4_5 1_555 1_555
C5_5 C4_5 1_555 1_555
H11_5 C5_5 1_555 1_555
C6_5 C2_5 1_555 1_555
H12_5 C6_5 1_555 1_555
C7_5 C3_5 1_555 1_555
H13_5 C7_5 1_555 1_555
C8_5 C6_5 1_555 1_555
C9_5 C1_5 1_555 1_555
C11_5 C4_5 1_555 1_555
C12_5 C5_5 1_555 1_555
H20_5 C19_5 1_555 1_555
C20_5 C19_5 1_555 1_555
C21_5 C20_5 1_555 1_555
H21_5 C21_5 1_555 1_555
C22_5 C21_5 1_555 1_555
H22_5 C22_5 1_555 1_555
C23_5 N5 1_555 1_555
H23_5 C23_5 1_555 1_555
C24_5 C20_5 1_555 1_555
C25_5 N3_5 1_555 1_555
H25_5 C25_5 1_555 1_555
C26_5 C25_5 1_555 1_555
H26_5 C26_5 1_555 1_555
C27_5 C26_5 1_555 1_555
C28_5 C27_5 1_555 1_555
H27_5 C28_5 1_555 1_555
C29_5 N3_5 1_555 1_555
H28_5 C29_5 1_555 1_555
C30_5 C27_5 1_555 1_555
H29_5 C30_5 1_555 1_555
C31_5 C30_5 1_555 1_555
H30_5 C31_5 1_555 1_555
C32_5 C31_5 1_555 1_555
C33_5 C32_5 1_555 1_555
H31_5 C33_5 1_555 1_555
C34_5 C33_5 1_555 1_555
H32_5 C34_5 1_555 1_555
C35_5 N4_5 1_555 1_555
H33_5 C35_5 1_555 1_555
C36_5 C32_5 1_555 1_555
H34_5 C36_5 1_555 1_555
Ni5_5 N4_5 1_555 1_555
Ni6_5 O5_5 1_555 1_555
O13_5 Ni5 1_555 1_555
O14_5 Ni5 1_555 1_555
O6_5 Ni6_5 1_555 1_555
C5_5 C6_5 1_555 1_555
C7_5 C8_5 1_555 1_555
C23_5 C24_5 1_555 1_555
C28_5 C29_5 1_555 1_555
C35_5 C36_5 1_555 1_555
N5_2 C22_6 1_555 1_555
N4_6 C34_6 1_555 1_555
H20_6 C19_6 1_555 1_555
C20_6 C19_6 1_555 1_555
C21_6 C20_6 1_555 1_555
H21_6 C21_6 1_555 1_555
C22_6 C21_6 1_555 1_555
H22_6 C22_6 1_555 1_555
C23_6 N5_2 1_555 1_555
H23_6 C23_6 1_555 1_555
C24_6 C20_6 1_555 1_555
H26_6 C26_6 1_555 1_555
H29_6 C30_6 1_555 1_555
C33_6 C32_6 1_555 1_555
C34_6 C33_6 1_555 1_555
H32_6 C34_6 1_555 1_555
C35_6 N4_6 1_555 1_555
H33_6 C35_6 1_555 1_555
C36_6 C32_6 1_555 1_555
H34_6 C36_6 1_555 1_555
Ni5_6 N4_6 1_555 1_555
C23_6 C24_6 1_555 1_555
C35_6 C36_6 1_555 1_555
Ni1_6 O1_6 1_555 1_555
O3_6 C10_6 1_555 1_555
O4_6 C10_6 1_555 1_555
O9_6 Ni1_6 1_555 1_555
H1_6 O9_6 1_555 1_555
H2_6 O9_6 1_555 1_555
O10_6 Ni1_6 1_555 1_555
H3_6 O10_6 1_555 1_555
H4_6 O10_6 1_555 1_555
N1_6 Ni1_6 1_555 1_555
C13_6 N1_6 1_555 1_555
C14_6 C13_6 1_555 1_555
C15_6 C14_6 1_555 1_555
C16_6 C15_6 1_555 1_555
H17_6 C16_6 1_555 1_555
C17_6 N1_6 1_555 1_555
H18_6 C17_6 1_555 1_555
Ni4_6 O4_6 1_555 1_555
O12_6 Ni1_6 1_555 1_555
N5_6 Ni1_6 1_555 1_555
C16_6 C17_6 1_555 1_555
Ni5_2 O8_6 1_555 1_555
O2_6 C9_6 1_555 1_555
O5_6 C12_6 1_555 1_555
O6_6 C12_6 1_555 1_555
O7_6 C11_6 1_555 1_555
O8_6 C11_6 1_555 1_555
O11_6 Ni5_2 1_555 1_555
H5_6 O11_6 1_555 1_555
H6_6 O11_6 1_555 1_555
N3_6 Ni5_2 1_555 1_555
C1_6 H7_6 1_555 1_555
C2_6 C1_6 1_555 1_555
H8_6 C2_6 1_555 1_555
C3_6 C1_6 1_555 1_555
H9_6 C3_6 1_555 1_555
C4_6 C3_6 1_555 1_555
H10_6 C4_6 1_555 1_555
C5_6 C4_6 1_555 1_555
H11_6 C5_6 1_555 1_555
C6_6 C2_6 1_555 1_555
H12_6 C6_6 1_555 1_555
C7_6 C3_6 1_555 1_555
H13_6 C7_6 1_555 1_555
C8_6 C6_6 1_555 1_555
C9_6 C1_6 1_555 1_555
C11_6 C4_6 1_555 1_555
C12_6 C5_6 1_555 1_555
C25_6 N3_6 1_555 1_555
H25_6 C25_6 1_555 1_555
C28_6 C27_6 1_555 1_555
H27_6 C28_6 1_555 1_555
C29_6 N3_6 1_555 1_555
H28_6 C29_6 1_555 1_555
H30_6 C31_6 1_555 1_555
Ni6_6 O5_6 1_555 1_555
O13_6 Ni5_2 1_555 1_555
O14_6 Ni5_2 1_555 1_555
O6_6 Ni6_6 1_555 1_555
C5_6 C6_6 1_555 1_555
C7_6 C8_6 1_555 1_555
C28_6 C29_6 1_555 1_555
Ni5_6 O8_7 1_555 1_555
O1_7 C9_7 1_555 1_555
O3_7 C10_7 1_555 1_555
O4_7 C10_7 1_555 1_555
O5_7 C12_7 1_555 1_555
O6_7 C12_7 1_555 1_555
O7_7 C11_7 1_555 1_555
O8_7 C11_7 1_555 1_555
H3_7 O10_7 1_555 1_555
O11_7 Ni5_6 1_555 1_555
H5_7 O11_7 1_555 1_555
H6_7 O11_7 1_555 1_555
N3_7 Ni5_6 1_555 1_555
C1_7 H7_7 1_555 1_555
C2_7 C1_7 1_555 1_555
H8_7 C2_7 1_555 1_555
C3_7 C1_7 1_555 1_555
H9_7 C3_7 1_555 1_555
C4_7 C3_7 1_555 1_555
H10_7 C4_7 1_555 1_555
C5_7 C4_7 1_555 1_555
H11_7 C5_7 1_555 1_555
C6_7 C2_7 1_555 1_555
H12_7 C6_7 1_555 1_555
C7_7 C3_7 1_555 1_555
H13_7 C7_7 1_555 1_555
C8_7 C6_7 1_555 1_555
H14_7 C8_7 1_555 1_555
C9_7 C1_7 1_555 1_555
C10_7 C2_7 1_555 1_555
C11_7 C4_7 1_555 1_555
C12_7 C5_7 1_555 1_555
C25_7 N3_7 1_555 1_555
H25_7 C25_7 1_555 1_555
C26_7 C25_7 1_555 1_555
H26_7 C26_7 1_555 1_555
C29_7 N3_7 1_555 1_555
H28_7 C29_7 1_555 1_555
Ni4_7 O4_7 1_555 1_555
Ni6_7 O5_7 1_555 1_555
O13_7 Ni5_6 1_555 1_555
O14_7 Ni5_6 1_555 1_555
O6_7 Ni6_7 1_555 1_555
C5_7 C6_7 1_555 1_555
C7_7 C8_7 1_555 1_555
N6_2 C34_7 1_555 1_555
C28_7 C27_7 1_555 1_555
H27_7 C28_7 1_555 1_555
C30_7 C27_7 1_555 1_555
H29_7 C30_7 1_555 1_555
C31_7 C30_7 1_555 1_555
H30_7 C31_7 1_555 1_555
C32_7 C31_7 1_555 1_555
C33_7 C32_7 1_555 1_555
H31_7 C33_7 1_555 1_555
C34_7 C33_7 1_555 1_555
H32_7 C34_7 1_555 1_555
O9_7 Ni3_2 1_555 1_555
H1_7 O9_7 1_555 1_555
H2_7 O9_7 1_555 1_555
N1_7 Ni3_2 1_555 1_555
N5_6 C22_7 1_555 1_555
C13_7 N1_7 1_555 1_555
H15_7 C13_7 1_555 1_555
C14_7 C13_7 1_555 1_555
H16_7 C14_7 1_555 1_555
C15_7 C14_7 1_555 1_555
C16_7 C15_7 1_555 1_555
H17_7 C16_7 1_555 1_555
C17_7 N1_7 1_555 1_555
H18_7 C17_7 1_555 1_555
C18_5 C15_7 1_555 1_555
H19_5 C18_5 1_555 1_555
C19_7 C18_5 1_555 1_555
H20_7 C19_7 1_555 1_555
C20_7 C19_7 1_555 1_555
C21_7 C20_7 1_555 1_555
H21_7 C21_7 1_555 1_555
C22_7 C21_7 1_555 1_555
H22_7 C22_7 1_555 1_555
C23_7 N5_6 1_555 1_555
H23_7 C23_7 1_555 1_555
C24_7 C20_7 1_555 1_555
H24_5 C24_7 1_555 1_555
O12_7 Ni3_2 1_555 1_555
C16_7 C17_7 1_555 1_555
C23_7 C24_7 1_555 1_555
H33_7 C35_7 1_555 1_555
H34_7 C36_7 1_555 1_555
C35_7 C36_7 1_555 1_555
O9_8 Ni3_3 1_555 1_555
H1_8 O9_8 1_555 1_555
H2_8 O9_8 1_555 1_555
N1_8 Ni3_3 1_555 1_555
N5_4 C22_8 1_555 1_555
C13_8 N1_8 1_555 1_555
H15_8 C13_8 1_555 1_555
C14_8 C13_8 1_555 1_555
H16_8 C14_8 1_555 1_555
C15_8 C14_8 1_555 1_555
C16_8 C15_8 1_555 1_555
H17_8 C16_8 1_555 1_555
C17_8 N1_8 1_555 1_555
H18_8 C17_8 1_555 1_555
C18_6 C15_8 1_555 1_555
H19_6 C18_6 1_555 1_555
C19_8 C18_6 1_555 1_555
H20_8 C19_8 1_555 1_555
C20_8 C19_8 1_555 1_555
C21_8 C20_8 1_555 1_555
H21_8 C21_8 1_555 1_555
C22_8 C21_8 1_555 1_555
H22_8 C22_8 1_555 1_555
C23_8 N5_4 1_555 1_555
H23_8 C23_8 1_555 1_555
C24_8 C20_8 1_555 1_555
H24_6 C24_8 1_555 1_555
O12_8 Ni3_3 1_555 1_555
C16_8 C17_8 1_555 1_555
C23_8 C24_8 1_555 1_555
H33_8 C35_8 1_555 1_555
H34_8 C36_8 1_555 1_555
C35_8 C36_8 1_555 1_555
Ni5_4 O8_8 1_555 1_555
O1_8 C9_8 1_555 1_555
O3_8 C10_8 1_555 1_555
O4_8 C10_8 1_555 1_555
O5_8 C12_8 1_555 1_555
O6_8 C12_8 1_555 1_555
O7_8 C11_8 1_555 1_555
O8_8 C11_8 1_555 1_555
H3_8 O10_8 1_555 1_555
O11_8 Ni5_4 1_555 1_555
H5_8 O11_8 1_555 1_555
H6_8 O11_8 1_555 1_555
N3_8 Ni5_4 1_555 1_555
C1_8 H7_8 1_555 1_555
C2_8 C1_8 1_555 1_555
H8_8 C2_8 1_555 1_555
C3_8 C1_8 1_555 1_555
H9_8 C3_8 1_555 1_555
C4_8 C3_8 1_555 1_555
H10_8 C4_8 1_555 1_555
C5_8 C4_8 1_555 1_555
H11_8 C5_8 1_555 1_555
C6_8 C2_8 1_555 1_555
H12_8 C6_8 1_555 1_555
C7_8 C3_8 1_555 1_555
H13_8 C7_8 1_555 1_555
C8_8 C6_8 1_555 1_555
H14_8 C8_8 1_555 1_555
C9_8 C1_8 1_555 1_555
C10_8 C2_8 1_555 1_555
C11_8 C4_8 1_555 1_555
C12_8 C5_8 1_555 1_555
C25_8 N3_8 1_555 1_555
H25_8 C25_8 1_555 1_555
C26_8 C25_8 1_555 1_555
H26_8 C26_8 1_555 1_555
C29_8 N3_8 1_555 1_555
H28_8 C29_8 1_555 1_555
Ni4_8 O4_8 1_555 1_555
Ni6_8 O5_8 1_555 1_555
O13_8 Ni5_4 1_555 1_555
O14_8 Ni5_4 1_555 1_555
O6_8 Ni6_8 1_555 1_555
C5_8 C6_8 1_555 1_555
C7_8 C8_8 1_555 1_555
N6_3 C34_8 1_555 1_555
C28_8 C27_8 1_555 1_555
H27_8 C28_8 1_555 1_555
C30_8 C27_8 1_555 1_555
H29_8 C30_8 1_555 1_555
C31_8 C30_8 1_555 1_555
H30_8 C31_8 1_555 1_555
C32_8 C31_8 1_555 1_555
C33_8 C32_8 1_555 1_555
H31_8 C33_8 1_555 1_555
C34_8 C33_8 1_555 1_555
H32_8 C34_8 1_555 1_555
Ni3 O1_9 1_555 1_555
Ni5_5 O8_9 1_555 1_555
O1_9 C9_9 1_555 1_555
O2_9 C9_9 1_555 1_555
O3_9 C10_9 1_555 1_555
O4_9 C10_9 1_555 1_555
O5_9 C12_9 1_555 1_555
O6_9 C12_9 1_555 1_555
O7_9 C11_9 1_555 1_555
O8_9 C11_9 1_555 1_555
O9_9 Ni3 1_555 1_555
H1_9 O9_9 1_555 1_555
H2_9 O9_9 1_555 1_555
O10_9 Ni3 1_555 1_555
H3_9 O10_9 1_555 1_555
H4_9 O10_9 1_555 1_555
O11_9 Ni5_5 1_555 1_555
H5_9 O11_9 1_555 1_555
H6_9 O11_9 1_555 1_555
N1_9 Ni3 1_555 1_555
N5_5 C22_9 1_555 1_555
N3_9 Ni5_5 1_555 1_555
C1_9 H7_9 1_555 1_555
C2_9 C1_9 1_555 1_555
H8_9 C2_9 1_555 1_555
C3_9 C1_9 1_555 1_555
H9_9 C3_9 1_555 1_555
C4_9 C3_9 1_555 1_555
H10_9 C4_9 1_555 1_555
C5_9 C4_9 1_555 1_555
H11_9 C5_9 1_555 1_555
C6_9 C2_9 1_555 1_555
H12_9 C6_9 1_555 1_555
C7_9 C3_9 1_555 1_555
H13_9 C7_9 1_555 1_555
C8_9 C6_9 1_555 1_555
H14_9 C8_9 1_555 1_555
C9_9 C1_9 1_555 1_555
C10_9 C2_9 1_555 1_555
C11_9 C4_9 1_555 1_555
C12_9 C5_9 1_555 1_555
C13_9 N1_9 1_555 1_555
H15_9 C13_9 1_555 1_555
C14_9 C13_9 1_555 1_555
H16_9 C14_9 1_555 1_555
C15_9 C14_9 1_555 1_555
C16_9 C15_9 1_555 1_555
H17_9 C16_9 1_555 1_555
C17_9 N1_9 1_555 1_555
H18_9 C17_9 1_555 1_555
C18_7 C15_9 1_555 1_555
H19_7 C18_7 1_555 1_555
C19_9 C18_7 1_555 1_555
H20_9 C19_9 1_555 1_555
C20_9 C19_9 1_555 1_555
C21_9 C20_9 1_555 1_555
H21_9 C21_9 1_555 1_555
C22_9 C21_9 1_555 1_555
H22_9 C22_9 1_555 1_555
C23_9 N5_5 1_555 1_555
H23_9 C23_9 1_555 1_555
C24_9 C20_9 1_555 1_555
H24_7 C24_9 1_555 1_555
C25_9 N3_9 1_555 1_555
H25_9 C25_9 1_555 1_555
C26_9 C25_9 1_555 1_555
H26_9 C26_9 1_555 1_555
C29_9 N3_9 1_555 1_555
H28_9 C29_9 1_555 1_555
Ni4_9 O4_9 1_555 1_555
Ni6_9 O5_9 1_555 1_555
O12_9 Ni3 1_555 1_555
O13_9 Ni5_5 1_555 1_555
O14_9 Ni5_5 1_555 1_555
O6_9 Ni6_9 1_555 1_555
C5_9 C6_9 1_555 1_555
C7_9 C8_9 1_555 1_555
C16_9 C17_9 1_555 1_555
C23_9 C24_9 1_555 1_555
N6 C34_9 1_555 1_555
C28_9 C27_9 1_555 1_555
H27_9 C28_9 1_555 1_555
C30_9 C27_9 1_555 1_555
H29_9 C30_9 1_555 1_555
C31_9 C30_9 1_555 1_555
H30_9 C31_9 1_555 1_555
C32_9 C31_9 1_555 1_555
C33_9 C32_9 1_555 1_555
H31_9 C33_9 1_555 1_555
C34_9 C33_9 1_555 1_555
H32_9 C34_9 1_555 1_555
C35_9 N6 1_555 1_555
H33_9 C35_9 1_555 1_555
C36_9 C32_9 1_555 1_555
H34_9 C36_9 1_555 1_555
C35_9 C36_9 1_555 1_555
N4_7 C34_10 1_555 1_555
H32_10 C34_10 1_555 1_555
C35_10 N4_7 1_555 1_555
H33_10 C35_10 1_555 1_555
Ni6_8 N4_7 1_555 1_555
Ni4_6 O1_10 1_555 1_555
Ni6 O8_10 1_555 1_555
O1_10 C9_10 1_555 1_555
O2_10 C9_10 1_555 1_555
O3_10 C10_10 1_555 1_555
O12_5 C10_10 1_555 1_555
O13 C12_10 1_555 1_555
O14 C12_10 1_555 1_555
O7_10 C11_10 1_555 1_555
O8_10 C11_10 1_555 1_555
O9_10 Ni4_6 1_555 1_555
H1_10 O9_10 1_555 1_555
H2_10 O9_10 1_555 1_555
O10_10 Ni4_6 1_555 1_555
H3_10 O10_10 1_555 1_555
H4_10 O10_10 1_555 1_555
O11_10 Ni6 1_555 1_555
H5_10 O11_10 1_555 1_555
H6_10 O11_10 1_555 1_555
N1_10 Ni4_6 1_555 1_555
N2_4 C22_10 1_555 1_555
N3_10 Ni6 1_555 1_555
C1_10 H7_10 1_555 1_555
C2_10 C1_10 1_555 1_555
H8_10 C2_10 1_555 1_555
C3_10 C1_10 1_555 1_555
H9_10 C3_10 1_555 1_555
C4_10 C3_10 1_555 1_555
H10_10 C4_10 1_555 1_555
C5_10 C4_10 1_555 1_555
H11_10 C5_10 1_555 1_555
C6_10 C2_10 1_555 1_555
H12_10 C6_10 1_555 1_555
C7_10 C3_10 1_555 1_555
H13_10 C7_10 1_555 1_555
C8_10 C6_10 1_555 1_555
H14_10 C8_10 1_555 1_555
C9_10 C1_10 1_555 1_555
C10_10 C2_10 1_555 1_555
C11_10 C4_10 1_555 1_555
C12_10 C5_10 1_555 1_555
C13_10 N1_10 1_555 1_555
H15_10 C13_10 1_555 1_555
C14_10 C13_10 1_555 1_555
H16_10 C14_10 1_555 1_555
C15_10 C14_10 1_555 1_555
C16_10 C15_10 1_555 1_555
H17_10 C16_10 1_555 1_555
C17_10 N1_10 1_555 1_555
H18_10 C17_10 1_555 1_555
C18_8 C15_10 1_555 1_555
H19_8 C18_8 1_555 1_555
C19_10 C18_8 1_555 1_555
H20_10 C19_10 1_555 1_555
C20_10 C19_10 1_555 1_555
C21_10 C20_10 1_555 1_555
H21_10 C21_10 1_555 1_555
C22_10 C21_10 1_555 1_555
H22_10 C22_10 1_555 1_555
C23_10 N2_4 1_555 1_555
H23_10 C23_10 1_555 1_555
C24_10 C20_10 1_555 1_555
H24_8 C24_10 1_555 1_555
C25_10 N3_10 1_555 1_555
H25_10 C25_10 1_555 1_555
C26_10 C25_10 1_555 1_555
H26_10 C26_10 1_555 1_555
C27_10 C26_10 1_555 1_555
C28_10 C27_10 1_555 1_555
H27_10 C28_10 1_555 1_555
C29_10 N3_10 1_555 1_555
H28_10 C29_10 1_555 1_555
C30_10 C27_10 1_555 1_555
H29_10 C30_10 1_555 1_555
C31_10 C30_10 1_555 1_555
H30_10 C31_10 1_555 1_555
C32_10 C31_10 1_555 1_555
C33_10 C32_10 1_555 1_555
H31_10 C33_10 1_555 1_555
C36_10 C32_10 1_555 1_555
H34_10 C36_10 1_555 1_555
Ni4_8 N2_4 1_555 1_555
N5_7 Ni4_6 1_555 1_555
N6_4 Ni6 1_555 1_555
C5_10 C6_10 1_555 1_555
C7_10 C8_10 1_555 1_555
C16_10 C17_10 1_555 1_555
C23_10 C24_10 1_555 1_555
C28_10 C29_10 1_555 1_555
N4_8 C34_11 1_555 1_555
H32_11 C34_11 1_555 1_555
C35_11 N4_8 1_555 1_555
H33_11 C35_11 1_555 1_555
Ni6_9 N4_8 1_555 1_555
O11_11 Ni6_2 1_555 1_555
H5_11 O11_11 1_555 1_555
N3_11 Ni6_2 1_555 1_555
C25_11 N3_11 1_555 1_555
H25_11 C25_11 1_555 1_555
C26_11 C25_11 1_555 1_555
H26_11 C26_11 1_555 1_555
C27_11 C26_11 1_555 1_555
C30_11 C27_11 1_555 1_555
H29_11 C30_11 1_555 1_555
C31_11 C30_11 1_555 1_555
H30_11 C31_11 1_555 1_555
C32_11 C31_11 1_555 1_555
C33_11 C32_11 1_555 1_555
H31_11 C33_11 1_555 1_555
C36_11 C32_11 1_555 1_555
H34_11 C36_11 1_555 1_555
Ni4_4 O1_11 1_555 1_555
O1_11 C9_11 1_555 1_555
O2_11 C9_11 1_555 1_555
O3_11 C10_11 1_555 1_555
O12_6 C10_11 1_555 1_555
O13_2 C12_11 1_555 1_555
O14_2 C12_11 1_555 1_555
O7_11 C11_11 1_555 1_555
O8_11 C11_11 1_555 1_555
O9_11 Ni4_4 1_555 1_555
H1_11 O9_11 1_555 1_555
H2_11 O9_11 1_555 1_555
O10_11 Ni4_4 1_555 1_555
H3_11 O10_11 1_555 1_555
H4_11 O10_11 1_555 1_555
N1_11 Ni4_4 1_555 1_555
N2_5 C22_11 1_555 1_555
C1_11 H7_11 1_555 1_555
C2_11 C1_11 1_555 1_555
H8_11 C2_11 1_555 1_555
C3_11 C1_11 1_555 1_555
H9_11 C3_11 1_555 1_555
C4_11 C3_11 1_555 1_555
H10_11 C4_11 1_555 1_555
C5_11 C4_11 1_555 1_555
H11_11 C5_11 1_555 1_555
C6_11 C2_11 1_555 1_555
H12_11 C6_11 1_555 1_555
C7_11 C3_11 1_555 1_555
H13_11 C7_11 1_555 1_555
C8_11 C6_11 1_555 1_555
H14_11 C8_11 1_555 1_555
C9_11 C1_11 1_555 1_555
C10_11 C2_11 1_555 1_555
C11_11 C4_11 1_555 1_555
C12_11 C5_11 1_555 1_555
C13_11 N1_11 1_555 1_555
H15_11 C13_11 1_555 1_555
C14_11 C13_11 1_555 1_555
H16_11 C14_11 1_555 1_555
C15_11 C14_11 1_555 1_555
C16_11 C15_11 1_555 1_555
H17_11 C16_11 1_555 1_555
C17_11 N1_11 1_555 1_555
H18_11 C17_11 1_555 1_555
C18_9 C15_11 1_555 1_555
H19_9 C18_9 1_555 1_555
C19_11 C18_9 1_555 1_555
H20_11 C19_11 1_555 1_555
C20_11 C19_11 1_555 1_555
C21_11 C20_11 1_555 1_555
H21_11 C21_11 1_555 1_555
C22_11 C21_11 1_555 1_555
H22_11 C22_11 1_555 1_555
C23_11 N2_5 1_555 1_555
H23_11 C23_11 1_555 1_555
C24_11 C20_11 1_555 1_555
H24_9 C24_11 1_555 1_555
H27_11 C28_11 1_555 1_555
H28_11 C29_11 1_555 1_555
N5_8 Ni4_4 1_555 1_555
C5_11 C6_11 1_555 1_555
C7_11 C8_11 1_555 1_555
C16_11 C17_11 1_555 1_555
C23_11 C24_11 1_555 1_555
C28_11 C29_11 1_555 1_555
Ni4_5 O1_12 1_555 1_555
O1_12 C9_12 1_555 1_555
O2_12 C9_12 1_555 1_555
O3_12 C10_12 1_555 1_555
O12_4 C10_12 1_555 1_555
O13_3 C12_12 1_555 1_555
O14_3 C12_12 1_555 1_555
O7_12 C11_12 1_555 1_555
O8_12 C11_12 1_555 1_555
O9_12 Ni4_5 1_555 1_555
H1_12 O9_12 1_555 1_555
H2_12 O9_12 1_555 1_555
O10_12 Ni4_5 1_555 1_555
H3_12 O10_12 1_555 1_555
H4_12 O10_12 1_555 1_555
N1_12 Ni4_5 1_555 1_555
N2_6 C22_12 1_555 1_555
C1_12 H7_12 1_555 1_555
C2_12 C1_12 1_555 1_555
H8_12 C2_12 1_555 1_555
C3_12 C1_12 1_555 1_555
H9_12 C3_12 1_555 1_555
C4_12 C3_12 1_555 1_555
H10_12 C4_12 1_555 1_555
C5_12 C4_12 1_555 1_555
H11_12 C5_12 1_555 1_555
C6_12 C2_12 1_555 1_555
H12_12 C6_12 1_555 1_555
C7_12 C3_12 1_555 1_555
H13_12 C7_12 1_555 1_555
C8_12 C6_12 1_555 1_555
H14_12 C8_12 1_555 1_555
C9_12 C1_12 1_555 1_555
C10_12 C2_12 1_555 1_555
C11_12 C4_12 1_555 1_555
C12_12 C5_12 1_555 1_555
C13_12 N1_12 1_555 1_555
H15_12 C13_12 1_555 1_555
C14_12 C13_12 1_555 1_555
H16_12 C14_12 1_555 1_555
C15_12 C14_12 1_555 1_555
C16_12 C15_12 1_555 1_555
H17_12 C16_12 1_555 1_555
C17_12 N1_12 1_555 1_555
H18_12 C17_12 1_555 1_555
C18_10 C15_12 1_555 1_555
H19_10 C18_10 1_555 1_555
C19_12 C18_10 1_555 1_555
H20_12 C19_12 1_555 1_555
C20_12 C19_12 1_555 1_555
C21_12 C20_12 1_555 1_555
H21_12 C21_12 1_555 1_555
C22_12 C21_12 1_555 1_555
H22_12 C22_12 1_555 1_555
C23_12 N2_6 1_555 1_555
H23_12 C23_12 1_555 1_555
C24_12 C20_12 1_555 1_555
H24_10 C24_12 1_555 1_555
H27_12 C28_12 1_555 1_555
H28_12 C29_12 1_555 1_555
N5_9 Ni4_5 1_555 1_555
C5_12 C6_12 1_555 1_555
C7_12 C8_12 1_555 1_555
C16_12 C17_12 1_555 1_555
C23_12 C24_12 1_555 1_555
C28_12 C29_12 1_555 1_555
N4_9 C34_12 1_555 1_555
H32_12 C34_12 1_555 1_555
C35_12 N4_9 1_555 1_555
H33_12 C35_12 1_555 1_555
Ni6_7 N4_9 1_555 1_555
O11_12 Ni6_3 1_555 1_555
H5_12 O11_12 1_555 1_555
N3_12 Ni6_3 1_555 1_555
C25_12 N3_12 1_555 1_555
H25_12 C25_12 1_555 1_555
C26_12 C25_12 1_555 1_555
H26_12 C26_12 1_555 1_555
C27_12 C26_12 1_555 1_555
C30_12 C27_12 1_555 1_555
H29_12 C30_12 1_555 1_555
C31_12 C30_12 1_555 1_555
H30_12 C31_12 1_555 1_555
C32_12 C31_12 1_555 1_555
C33_12 C32_12 1_555 1_555
H31_12 C33_12 1_555 1_555
C36_12 C32_12 1_555 1_555
H34_12 C36_12 1_555 1_555
N5_9 C22_13 1_555 1_555
N4_10 C34_13 1_555 1_555
H20_13 C19_13 1_555 1_555
C20_13 C19_13 1_555 1_555
C21_13 C20_13 1_555 1_555
H21_13 C21_13 1_555 1_555
C22_13 C21_13 1_555 1_555
H22_13 C22_13 1_555 1_555
C23_13 N5_9 1_555 1_555
H23_13 C23_13 1_555 1_555
C24_13 C20_13 1_555 1_555
H26_13 C26_13 1_555 1_555
H29_13 C30_13 1_555 1_555
C33_13 C32_13 1_555 1_555
C34_13 C33_13 1_555 1_555
H32_13 C34_13 1_555 1_555
C35_13 N4_10 1_555 1_555
H33_13 C35_13 1_555 1_555
C36_13 C32_13 1_555 1_555
H34_13 C36_13 1_555 1_555
Ni6_5 N4_10 1_555 1_555
C23_13 C24_13 1_555 1_555
C35_13 C36_13 1_555 1_555
Ni6_7 O8_13 1_555 1_555
O2_13 C9_13 1_555 1_555
O13_7 C12_13 1_555 1_555
O14_7 C12_13 1_555 1_555
O7_13 C11_13 1_555 1_555
O8_13 C11_13 1_555 1_555
O11_13 Ni6_7 1_555 1_555
H5_13 O11_13 1_555 1_555
H6_13 O11_13 1_555 1_555
N3_13 Ni6_7 1_555 1_555
C1_13 H7_13 1_555 1_555
C2_13 C1_13 1_555 1_555
H8_13 C2_13 1_555 1_555
C3_13 C1_13 1_555 1_555
H9_13 C3_13 1_555 1_555
C4_13 C3_13 1_555 1_555
H10_13 C4_13 1_555 1_555
C5_13 C4_13 1_555 1_555
H11_13 C5_13 1_555 1_555
C6_13 C2_13 1_555 1_555
H12_13 C6_13 1_555 1_555
C7_13 C3_13 1_555 1_555
H13_13 C7_13 1_555 1_555
C8_13 C6_13 1_555 1_555
C9_13 C1_13 1_555 1_555
C11_13 C4_13 1_555 1_555
C12_13 C5_13 1_555 1_555
C25_13 N3_13 1_555 1_555
H25_13 C25_13 1_555 1_555
C28_13 C27_13 1_555 1_555
H27_13 C28_13 1_555 1_555
C29_13 N3_13 1_555 1_555
H28_13 C29_13 1_555 1_555
H30_13 C31_13 1_555 1_555
C5_13 C6_13 1_555 1_555
C7_13 C8_13 1_555 1_555
C28_13 C29_13 1_555 1_555
Ni4_3 O1_13 1_555 1_555
O3_13 C10_13 1_555 1_555
O12_2 C10_13 1_555 1_555
O9_13 Ni4_3 1_555 1_555
H1_13 O9_13 1_555 1_555
H2_13 O9_13 1_555 1_555
O10_13 Ni4_3 1_555 1_555
H3_13 O10_13 1_555 1_555
H4_13 O10_13 1_555 1_555
N1_13 Ni4_3 1_555 1_555
C13_13 N1_13 1_555 1_555
C14_13 C13_13 1_555 1_555
C15_13 C14_13 1_555 1_555
C16_13 C15_13 1_555 1_555
H17_13 C16_13 1_555 1_555
C17_13 N1_13 1_555 1_555
H18_13 C17_13 1_555 1_555
N5_10 Ni4_3 1_555 1_555
C16_13 C17_13 1_555 1_555
Ni6_8 O8_14 1_555 1_555
O2_14 C9_14 1_555 1_555
O13_8 C12_14 1_555 1_555
O14_8 C12_14 1_555 1_555
O7_14 C11_14 1_555 1_555
O8_14 C11_14 1_555 1_555
O11_14 Ni6_8 1_555 1_555
H5_14 O11_14 1_555 1_555
H6_14 O11_14 1_555 1_555
N5_7 C22_14 1_555 1_555
N3_14 Ni6_8 1_555 1_555
N4_11 C34_14 1_555 1_555
C1_14 H7_14 1_555 1_555
C2_14 C1_14 1_555 1_555
H8_14 C2_14 1_555 1_555
C3_14 C1_14 1_555 1_555
H9_14 C3_14 1_555 1_555
C4_14 C3_14 1_555 1_555
H10_14 C4_14 1_555 1_555
C5_14 C4_14 1_555 1_555
H11_14 C5_14 1_555 1_555
C6_14 C2_14 1_555 1_555
H12_14 C6_14 1_555 1_555
C7_14 C3_14 1_555 1_555
H13_14 C7_14 1_555 1_555
C8_14 C6_14 1_555 1_555
C9_14 C1_14 1_555 1_555
C11_14 C4_14 1_555 1_555
C12_14 C5_14 1_555 1_555
H20_14 C19_14 1_555 1_555
C20_14 C19_14 1_555 1_555
C21_14 C20_14 1_555 1_555
H21_14 C21_14 1_555 1_555
C22_14 C21_14 1_555 1_555
H22_14 C22_14 1_555 1_555
C23_14 N5_7 1_555 1_555
H23_14 C23_14 1_555 1_555
C24_14 C20_14 1_555 1_555
C25_14 N3_14 1_555 1_555
H25_14 C25_14 1_555 1_555
C26_14 C25_14 1_555 1_555
H26_14 C26_14 1_555 1_555
C27_14 C26_14 1_555 1_555
C28_14 C27_14 1_555 1_555
H27_14 C28_14 1_555 1_555
C29_14 N3_14 1_555 1_555
H28_14 C29_14 1_555 1_555
C30_14 C27_14 1_555 1_555
H29_14 C30_14 1_555 1_555
C31_14 C30_14 1_555 1_555
H30_14 C31_14 1_555 1_555
C32_14 C31_14 1_555 1_555
C33_14 C32_14 1_555 1_555
H31_14 C33_14 1_555 1_555
C34_14 C33_14 1_555 1_555
H32_14 C34_14 1_555 1_555
C35_14 N4_11 1_555 1_555
H33_14 C35_14 1_555 1_555
C36_14 C32_14 1_555 1_555
H34_14 C36_14 1_555 1_555
Ni6_6 N4_11 1_555 1_555
C5_14 C6_14 1_555 1_555
C7_14 C8_14 1_555 1_555
C23_14 C24_14 1_555 1_555
C28_14 C29_14 1_555 1_555
C35_14 C36_14 1_555 1_555
Ni4 O1_14 1_555 1_555
O3_14 C10_14 1_555 1_555
O12_3 C10_14 1_555 1_555
O9_14 Ni4 1_555 1_555
H1_14 O9_14 1_555 1_555
H2_14 O9_14 1_555 1_555
O10_14 Ni4 1_555 1_555
H3_14 O10_14 1_555 1_555
H4_14 O10_14 1_555 1_555
N1_14 Ni4 1_555 1_555
C13_14 N1_14 1_555 1_555
C14_14 C13_14 1_555 1_555
C15_14 C14_14 1_555 1_555
C16_14 C15_14 1_555 1_555
H17_14 C16_14 1_555 1_555
C17_14 N1_14 1_555 1_555
H18_14 C17_14 1_555 1_555
C18_11 C15_14 1_555 1_555
H19_11 C18_11 1_555 1_555
N5_11 Ni4 1_555 1_555
C16_14 C17_14 1_555 1_555
Ni6_9 O8_15 1_555 1_555
O2_15 C9_15 1_555 1_555
O13_9 C12_15 1_555 1_555
O14_9 C12_15 1_555 1_555
O7_15 C11_15 1_555 1_555
O8_15 C11_15 1_555 1_555
O11_15 Ni6_9 1_555 1_555
H5_15 O11_15 1_555 1_555
H6_15 O11_15 1_555 1_555
N3_15 Ni6_9 1_555 1_555
C1_15 H7_15 1_555 1_555
C2_15 C1_15 1_555 1_555
H8_15 C2_15 1_555 1_555
C3_15 C1_15 1_555 1_555
H9_15 C3_15 1_555 1_555
C4_15 C3_15 1_555 1_555
H10_15 C4_15 1_555 1_555
C5_15 C4_15 1_555 1_555
H11_15 C5_15 1_555 1_555
C6_15 C2_15 1_555 1_555
H12_15 C6_15 1_555 1_555
C7_15 C3_15 1_555 1_555
H13_15 C7_15 1_555 1_555
C8_15 C6_15 1_555 1_555
C9_15 C1_15 1_555 1_555
C11_15 C4_15 1_555 1_555
C12_15 C5_15 1_555 1_555
C25_15 N3_15 1_555 1_555
H25_15 C25_15 1_555 1_555
C28_15 C27_15 1_555 1_555
H27_15 C28_15 1_555 1_555
C29_15 N3_15 1_555 1_555
H28_15 C29_15 1_555 1_555
H30_15 C31_15 1_555 1_555
C5_15 C6_15 1_555 1_555
C7_15 C8_15 1_555 1_555
C28_15 C29_15 1_555 1_555
Ni4_2 O1_15 1_555 1_555
O3_15 C10_15 1_555 1_555
O12 C10_15 1_555 1_555
O9_15 Ni4_2 1_555 1_555
H1_15 O9_15 1_555 1_555
H2_15 O9_15 1_555 1_555
O10_15 Ni4_2 1_555 1_555
H3_15 O10_15 1_555 1_555
H4_15 O10_15 1_555 1_555
N1_15 Ni4_2 1_555 1_555
C13_15 N1_15 1_555 1_555
C14_15 C13_15 1_555 1_555
C15_15 C14_15 1_555 1_555
C16_15 C15_15 1_555 1_555
H17_15 C16_15 1_555 1_555
C17_15 N1_15 1_555 1_555
H18_15 C17_15 1_555 1_555
N5_12 Ni4_2 1_555 1_555
C16_15 C17_15 1_555 1_555
N5_8 C22_15 1_555 1_555
N4_12 C34_15 1_555 1_555
H20_15 C19_15 1_555 1_555
C20_15 C19_15 1_555 1_555
C21_15 C20_15 1_555 1_555
H21_15 C21_15 1_555 1_555
C22_15 C21_15 1_555 1_555
H22_15 C22_15 1_555 1_555
C23_15 N5_8 1_555 1_555
H23_15 C23_15 1_555 1_555
C24_15 C20_15 1_555 1_555
H26_15 C26_15 1_555 1_555
H29_15 C30_15 1_555 1_555
C33_15 C32_15 1_555 1_555
C34_15 C33_15 1_555 1_555
H32_15 C34_15 1_555 1_555
C35_15 N4_12 1_555 1_555
H33_15 C35_15 1_555 1_555
C36_15 C32_15 1_555 1_555
H34_15 C36_15 1_555 1_555
Ni6_4 N4_12 1_555 1_555
C23_15 C24_15 1_555 1_555
C35_15 C36_15 1_555 1_555
H33_16 C35_16 1_555 1_555
H34_16 C36_16 1_555 1_555
C35_16 C36_16 1_555 1_555
O9_16 Ni4_9 1_555 1_555
H1_16 O9_16 1_555 1_555
H2_16 O9_16 1_555 1_555
N1_16 Ni4_9 1_555 1_555
N5_12 C22_16 1_555 1_555
C13_16 N1_16 1_555 1_555
H15_16 C13_16 1_555 1_555
C14_16 C13_16 1_555 1_555
H16_16 C14_16 1_555 1_555
C15_16 C14_16 1_555 1_555
C16_16 C15_16 1_555 1_555
H17_16 C16_16 1_555 1_555
C17_16 N1_16 1_555 1_555
H18_16 C17_16 1_555 1_555
C18_12 C15_16 1_555 1_555
H19_12 C18_12 1_555 1_555
C19_16 C18_12 1_555 1_555
H20_16 C19_16 1_555 1_555
C20_16 C19_16 1_555 1_555
C21_16 C20_16 1_555 1_555
H21_16 C21_16 1_555 1_555
C22_16 C21_16 1_555 1_555
H22_16 C22_16 1_555 1_555
C23_16 N5_12 1_555 1_555
H23_16 C23_16 1_555 1_555
C24_16 C20_16 1_555 1_555
H24_12 C24_16 1_555 1_555
C16_16 C17_16 1_555 1_555
C23_16 C24_16 1_555 1_555
N6_5 C34_16 1_555 1_555
C28_16 C27_16 1_555 1_555
H27_16 C28_16 1_555 1_555
C30_16 C27_16 1_555 1_555
H29_16 C30_16 1_555 1_555
C31_16 C30_16 1_555 1_555
H30_16 C31_16 1_555 1_555
C32_16 C31_16 1_555 1_555
C33_16 C32_16 1_555 1_555
H31_16 C33_16 1_555 1_555
C34_16 C33_16 1_555 1_555
H32_16 C34_16 1_555 1_555
Ni6_4 O8_16 1_555 1_555
O1_16 C9_16 1_555 1_555
O3_16 C10_16 1_555 1_555
O12_8 C10_16 1_555 1_555
O13_4 C12_16 1_555 1_555
O14_4 C12_16 1_555 1_555
O7_16 C11_16 1_555 1_555
O8_16 C11_16 1_555 1_555
H3_16 O10_16 1_555 1_555
O11_16 Ni6_4 1_555 1_555
H5_16 O11_16 1_555 1_555
H6_16 O11_16 1_555 1_555
N3_16 Ni6_4 1_555 1_555
C1_16 H7_16 1_555 1_555
C2_16 C1_16 1_555 1_555
H8_16 C2_16 1_555 1_555
C3_16 C1_16 1_555 1_555
H9_16 C3_16 1_555 1_555
C4_16 C3_16 1_555 1_555
H10_16 C4_16 1_555 1_555
C5_16 C4_16 1_555 1_555
H11_16 C5_16 1_555 1_555
C6_16 C2_16 1_555 1_555
H12_16 C6_16 1_555 1_555
C7_16 C3_16 1_555 1_555
H13_16 C7_16 1_555 1_555
C8_16 C6_16 1_555 1_555
H14_16 C8_16 1_555 1_555
C9_16 C1_16 1_555 1_555
C10_16 C2_16 1_555 1_555
C11_16 C4_16 1_555 1_555
C12_16 C5_16 1_555 1_555
C25_16 N3_16 1_555 1_555
H25_16 C25_16 1_555 1_555
C26_16 C25_16 1_555 1_555
H26_16 C26_16 1_555 1_555
C29_16 N3_16 1_555 1_555
H28_16 C29_16 1_555 1_555
C5_16 C6_16 1_555 1_555
C7_16 C8_16 1_555 1_555
N6_6 C34_17 1_555 1_555
C28_17 C27_17 1_555 1_555
H27_17 C28_17 1_555 1_555
C30_17 C27_17 1_555 1_555
H29_17 C30_17 1_555 1_555
C31_17 C30_17 1_555 1_555
H30_17 C31_17 1_555 1_555
C32_17 C31_17 1_555 1_555
C33_17 C32_17 1_555 1_555
H31_17 C33_17 1_555 1_555
C34_17 C33_17 1_555 1_555
H32_17 C34_17 1_555 1_555
Ni6_5 O8_17 1_555 1_555
O1_17 C9_17 1_555 1_555
O3_17 C10_17 1_555 1_555
O12_9 C10_17 1_555 1_555
O13_5 C12_17 1_555 1_555
O14_5 C12_17 1_555 1_555
O7_17 C11_17 1_555 1_555
O8_17 C11_17 1_555 1_555
H3_17 O10_17 1_555 1_555
O11_17 Ni6_5 1_555 1_555
H5_17 O11_17 1_555 1_555
H6_17 O11_17 1_555 1_555
N3_17 Ni6_5 1_555 1_555
C1_17 H7_17 1_555 1_555
C2_17 C1_17 1_555 1_555
H8_17 C2_17 1_555 1_555
C3_17 C1_17 1_555 1_555
H9_17 C3_17 1_555 1_555
C4_17 C3_17 1_555 1_555
H10_17 C4_17 1_555 1_555
C5_17 C4_17 1_555 1_555
H11_17 C5_17 1_555 1_555
C6_17 C2_17 1_555 1_555
H12_17 C6_17 1_555 1_555
C7_17 C3_17 1_555 1_555
H13_17 C7_17 1_555 1_555
C8_17 C6_17 1_555 1_555
H14_17 C8_17 1_555 1_555
C9_17 C1_17 1_555 1_555
C10_17 C2_17 1_555 1_555
C11_17 C4_17 1_555 1_555
C12_17 C5_17 1_555 1_555
C25_17 N3_17 1_555 1_555
H25_17 C25_17 1_555 1_555
C26_17 C25_17 1_555 1_555
H26_17 C26_17 1_555 1_555
C29_17 N3_17 1_555 1_555
H28_17 C29_17 1_555 1_555
C5_17 C6_17 1_555 1_555
C7_17 C8_17 1_555 1_555
H33_17 C35_17 1_555 1_555
H34_17 C36_17 1_555 1_555
C35_17 C36_17 1_555 1_555
O9_17 Ni4_7 1_555 1_555
H1_17 O9_17 1_555 1_555
H2_17 O9_17 1_555 1_555
N1_17 Ni4_7 1_555 1_555
N5_10 C22_17 1_555 1_555
C13_17 N1_17 1_555 1_555
H15_17 C13_17 1_555 1_555
C14_17 C13_17 1_555 1_555
H16_17 C14_17 1_555 1_555
C15_17 C14_17 1_555 1_555
C16_17 C15_17 1_555 1_555
H17_17 C16_17 1_555 1_555
C17_17 N1_17 1_555 1_555
H18_17 C17_17 1_555 1_555
C18_13 C15_17 1_555 1_555
H19_13 C18_13 1_555 1_555
C19_17 C18_13 1_555 1_555
H20_17 C19_17 1_555 1_555
C20_17 C19_17 1_555 1_555
C21_17 C20_17 1_555 1_555
H21_17 C21_17 1_555 1_555
C22_17 C21_17 1_555 1_555
H22_17 C22_17 1_555 1_555
C23_17 N5_10 1_555 1_555
H23_17 C23_17 1_555 1_555
C24_17 C20_17 1_555 1_555
H24_13 C24_17 1_555 1_555
C16_17 C17_17 1_555 1_555
C23_17 C24_17 1_555 1_555
N6_4 C34_18 1_555 1_555
C28_18 C27_18 1_555 1_555
H27_18 C28_18 1_555 1_555
C30_18 C27_18 1_555 1_555
H29_18 C30_18 1_555 1_555
C31_18 C30_18 1_555 1_555
H30_18 C31_18 1_555 1_555
C32_18 C31_18 1_555 1_555
C33_18 C32_18 1_555 1_555
H31_18 C33_18 1_555 1_555
C34_18 C33_18 1_555 1_555
H32_18 C34_18 1_555 1_555
C35_18 N6_4 1_555 1_555
H33_18 C35_18 1_555 1_555
C36_18 C32_18 1_555 1_555
H34_18 C36_18 1_555 1_555
C35_18 C36_18 1_555 1_555
Ni4_8 O1_18 1_555 1_555
Ni6_6 O8_18 1_555 1_555
O1_18 C9_18 1_555 1_555
O2_18 C9_18 1_555 1_555
O3_18 C10_18 1_555 1_555
O12_7 C10_18 1_555 1_555
O13_6 C12_18 1_555 1_555
O14_6 C12_18 1_555 1_555
O7_18 C11_18 1_555 1_555
O8_18 C11_18 1_555 1_555
O9_18 Ni4_8 1_555 1_555
H1_18 O9_18 1_555 1_555
H2_18 O9_18 1_555 1_555
O10_18 Ni4_8 1_555 1_555
H3_18 O10_18 1_555 1_555
H4_18 O10_18 1_555 1_555
O11_18 Ni6_6 1_555 1_555
H5_18 O11_18 1_555 1_555
H6_18 O11_18 1_555 1_555
N1_18 Ni4_8 1_555 1_555
N5_11 C22_18 1_555 1_555
N3_18 Ni6_6 1_555 1_555
C1_18 H7_18 1_555 1_555
C2_18 C1_18 1_555 1_555
H8_18 C2_18 1_555 1_555
C3_18 C1_18 1_555 1_555
H9_18 C3_18 1_555 1_555
C4_18 C3_18 1_555 1_555
H10_18 C4_18 1_555 1_555
C5_18 C4_18 1_555 1_555
H11_18 C5_18 1_555 1_555
C6_18 C2_18 1_555 1_555
H12_18 C6_18 1_555 1_555
C7_18 C3_18 1_555 1_555
H13_18 C7_18 1_555 1_555
C8_18 C6_18 1_555 1_555
H14_18 C8_18 1_555 1_555
C9_18 C1_18 1_555 1_555
C10_18 C2_18 1_555 1_555
C11_18 C4_18 1_555 1_555
C12_18 C5_18 1_555 1_555
C13_18 N1_18 1_555 1_555
H15_18 C13_18 1_555 1_555
C14_18 C13_18 1_555 1_555
H16_18 C14_18 1_555 1_555
C15_18 C14_18 1_555 1_555
C16_18 C15_18 1_555 1_555
H17_18 C16_18 1_555 1_555
C17_18 N1_18 1_555 1_555
H18_18 C17_18 1_555 1_555
C18_14 C15_18 1_555 1_555
H19_14 C18_14 1_555 1_555
C19_18 C18_14 1_555 1_555
H20_18 C19_18 1_555 1_555
C20_18 C19_18 1_555 1_555
C21_18 C20_18 1_555 1_555
H21_18 C21_18 1_555 1_555
C22_18 C21_18 1_555 1_555
H22_18 C22_18 1_555 1_555
C23_18 N5_11 1_555 1_555
H23_18 C23_18 1_555 1_555
C24_18 C20_18 1_555 1_555
H24_14 C24_18 1_555 1_555
C25_18 N3_18 1_555 1_555
H25_18 C25_18 1_555 1_555
C26_18 C25_18 1_555 1_555
H26_18 C26_18 1_555 1_555
C29_18 N3_18 1_555 1_555
H28_18 C29_18 1_555 1_555
C5_18 C6_18 1_555 1_555
C7_18 C8_18 1_555 1_555
C16_18 C17_18 1_555 1_555
C23_18 C24_18 1_555 1_555
H19_15 C18_15 1_555 1_555
H19_16 C18_16 1_555 1_555
H19_17 C18_17 1_555 1_555
H19_18 C18_18 1_555 1_555

#END
