
###############################################################################
#
# This file contains modified crystal structure data generated from the
# MOF subset of the Cambridge Structural Database (CSD) v543 
# hosted by the Cambridge Crystallographic Data Centre (CCDC).
#
# This work is licensed under the Creative Commons
# Attribution-NonCommercial-ShareAlike 4.0 International License.
# To view a copy of this license, visit
# http://creativecommons.org/licenses/by-nc-sa/4.0/
# or send a letter to
# Creative Commons, PO Box 1866, Mountain View, CA 94042, USA.
#
# CIF created using the CSD Python API on 29 September 2022
# The structure has been converted into the P1 space group
# The structure has a 3D framework
# The original CSD entry FITHAS is in the monoclinic crystal system
# The framework has been calculated to contain at least 10.0% void space
# The void calculation uses a probe of radius 1.32A, grid spacing 0.4
# The framework is charged, counterions have been retained in the structure
#
###############################################################################

data_FITHAS
_chemical_formula_moiety         '(C132 H96 F36 N24 O60 S12 Sc4)n'
_symmetry_cell_setting           triclinic
_symmetry_space_group_name_H-M   'P 1'
_symmetry_Int_Tables_number      1
_space_group_name_Hall           'P 1'
loop_
_symmetry_equiv_pos_site_id
_symmetry_equiv_pos_as_xyz
1 x,y,z
_cell_length_a                   20.7872(7)
_cell_length_b                   12.8061(6)
_cell_length_c                   21.6247(12)
_cell_angle_alpha                90
_cell_angle_beta                 103.246(3)
_cell_angle_gamma                90
_cell_volume                     5603.41
loop_
_atom_site_label
_atom_site_type_symbol
_atom_site_fract_x
_atom_site_fract_y
_atom_site_fract_z
H23 H 0.0438 0.3418 0.0033
C56 C 0.0050(7) 0.5106(9) 0.1432(5)
H45 H 0.0167 0.4711 0.1814
C57 C 0.0138(7) 0.4683(9) 0.0875(5)
H46 H 0.0322 0.4004 0.0879
Sc1 Sc 0.00076(8) 0.21405(13) 0.75775(8)
O1 O 0.0819(3) 0.2122(5) 0.7191(3)
O5 O 0.4499(3) 0.6291(5) 0.6619(3)
O6 O 0.0273(3) 0.3585(5) 0.8003(3)
N1 N 0.1296(3) 0.2720(6) 0.7074(3)
C1 C 0.1825(4) 0.2256(7) 0.6961(4)
H1 H 0.1847 0.1515 0.6960
C2 C 0.2343(4) 0.2828(7) 0.6846(5)
H2 H 0.2721 0.2482 0.6769
C3 C 0.2317(4) 0.3905(7) 0.6842(4)
C4 C 0.1751(4) 0.4367(8) 0.6968(4)
H3 H 0.1718 0.5106 0.6982
C5 C 0.1241(4) 0.3754(7) 0.7071(4)
H4 H 0.0851 0.4071 0.7141
C11 C 0.0414(5) 0.0137(7) 0.6450(4)
H9 H 0.0779 0.0037 0.6800
N5 N 0.3965(3) 0.5705(6) 0.6656(3)
C21 C 0.4053(5) 0.4689(7) 0.6832(4)
H17 H 0.4480 0.4380 0.6910
C22 C 0.3522(4) 0.4127(8) 0.6892(4)
H18 H 0.3582 0.3421 0.7029
C23 C 0.2890(4) 0.4550(7) 0.6761(4)
C24 C 0.2833(4) 0.5591(7) 0.6576(5)
H19 H 0.2409 0.5910 0.6483
C25 C 0.3362(4) 0.6158(8) 0.6523(4)
H20 H 0.3312 0.6869 0.6394
N6 N 0.0193(3) 0.3952(6) 0.8555(3)
C28 C 0.0037(4) 0.4776(7) 0.9693(4)
C29 C 0.0296(5) 0.3817(8) 0.9656(5)
C30 C 0.0360(5) 0.3409(8) 0.9093(5)
H24 H 0.0528 0.2721 0.9083
Sc4 Sc 0.49924(8) 0.71405(13) 0.74225(8)
O14 O 0.0501(3) 0.1291(5) 0.8381(3)
H27 H 0.3282 0.0106 0.8018
N11 N 0.1035(3) 0.0705(6) 0.8344(3)
C54 C 0.2167(4) 0.0591(7) 0.8424(5)
H43 H 0.2591 0.0910 0.8517
C55 C 0.1638(4) 0.1158(8) 0.8477(4)
H44 H 0.1688 0.1869 0.8606
C12 C 0.0484(4) 0.9950(7) 0.5842(4)
H10 H 0.0899 0.9724 0.5777
O7 O 0.4181(3) 0.7122(5) 0.7809(3)
O9 O 0.5782(3) 0.7256(5) 0.6994(3)
O10 O 0.0218(3) 0.9325(5) 0.2854(3)
O11 O 0.5218(3) 0.5675(5) 0.7854(3)
O13 O 0.5513(3) 0.7873(5) 0.8255(3)
O17 O 0.4727(3) 0.8585(5) 0.6997(3)
N7 N 0.3704(3) 0.7720(6) 0.7926(3)
C31 C 0.3175(4) 0.7256(7) 0.8039(4)
H25 H 0.3153 0.6515 0.8040
C32 C 0.2657(4) 0.7828(7) 0.8154(5)
H26 H 0.2279 0.7482 0.8231
C33 C 0.2683(4) 0.8905(7) 0.8158(4)
C34 C 0.3249(4) 0.9367(8) 0.8032(4)
C35 C 0.3759(4) 0.8754(7) 0.7929(4)
H28 H 0.4149 0.9071 0.7859
N9 N 0.0166(3) 0.9540(5) 0.3448(3)
C43 C 0.0031(4) 0.9917(7) 0.4663(4)
C44 C 0.0632(5) 0.9596(8) 0.4548(5)
H35 H 0.1003 0.9501 0.4894
C45 C 0.0694(4) 0.9414(8) 0.3929(4)
H36 H 0.1106 0.9203 0.3850
C51 C 0.0947(5) 0.9689(7) 0.8168(4)
H41 H 0.0520 0.9380 0.8090
C52 C 0.1478(4) 0.9127(8) 0.8108(4)
H42 H 0.1418 0.8421 0.7971
C53 C 0.2110(4) 0.9550(7) 0.8239(4)
Sc6 Sc 0.99924(8) 0.78595(13) 0.24225(8)
O16 O 0.9727(3) 0.6415(5) 0.1997(3)
N12 N 0.9807(3) 0.6048(6) 0.1445(3)
C58 C 0.9963(4) 0.5224(7) 0.0307(4)
C59 C 0.9704(5) 0.6183(8) 0.0344(5)
C60 C 0.9640(5) 0.6591(8) 0.0907(5)
H48 H 0.9472 0.7279 0.0917
O2 O 0.9218(3) 0.2256(5) 0.8006(3)
O3 O 0.9782(3) 0.0675(5) 0.7146(3)
N2 N 0.8736(3) 0.1636(6) 0.8118(3)
C6 C 0.8824(5) 0.0611(8) 0.8180(5)
H5 H 0.9237 0.0312 0.8161
C8 C 0.7708(4) 0.0411(8) 0.8299(4)
C9 C 0.7651(5) 0.1502(7) 0.8242(5)
H7 H 0.7246 0.1828 0.8261
C10 C 0.8167(4) 0.2100(8) 0.8158(5)
H8 H 0.8125 0.2838 0.8128
N3 N 0.9834(3) 0.0460(5) 0.6552(3)
C13 C 0.9969(4) 0.0083(7) 0.5337(4)
C14 C 0.9368(5) 0.0404(8) 0.5452(5)
H11 H 0.8997 0.0499 0.5106
C15 C 0.9306(4) 0.0586(8) 0.6071(4)
H12 H 0.8894 0.0797 0.6150
C17 C 0.6501(4) 0.0165(8) 0.8257(5)
H14 H 0.6436 0.0900 0.8229
C26 C 0.9950(7) 0.4894(9) 0.8568(5)
H21 H 0.9833 0.5289 0.8186
C27 C 0.9862(7) 0.5317(9) 0.9125(5)
H22 H 0.9678 0.5996 0.9121
O12 O 0.9487(3) 0.2873(5) 0.6745(3)
N8 N 0.6264(3) 0.6636(6) 0.6882(3)
C36 C 0.6176(5) 0.5611(8) 0.6820(5)
H29 H 0.5763 0.5312 0.6839
C37 C 0.6681(5) 0.4981(8) 0.6730(5)
H30 H 0.6615 0.4248 0.6687
C38 C 0.7292(4) 0.5411(8) 0.6701(4)
C39 C 0.7349(5) 0.6502(7) 0.6758(5)
H31 H 0.7754 0.6828 0.6739
C40 C 0.6833(4) 0.7100(8) 0.6842(5)
H32 H 0.6875 0.7838 0.6872
C42 C 0.9516(4) 0.0050(7) 0.4158(4)
H34 H 0.9101 0.0276 0.4223
N10 N 0.8949(4) 0.3493(6) 0.6716(3)
C46 C 0.9033(4) 0.4517(7) 0.6764(5)
H37 H 0.9462 0.4806 0.6814
C47 C 0.8499(4) 0.5165(8) 0.6743(5)
H38 H 0.8564 0.5900 0.6771
C48 C 0.7866(4) 0.4762(7) 0.6682(4)
C49 C 0.7816(5) 0.3670(8) 0.6630(5)
H39 H 0.7395 0.3349 0.6583
C50 C 0.8360(5) 0.3058(8) 0.6647(5)
H40 H 0.8314 0.2321 0.6608
H47 H 0.9562 0.6582 0.9967
C7 C 0.8319(5) 0.9981(8) 0.8270(5)
H6 H 0.8385 0.9248 0.8313
N4 N 0.6051(4) 0.8493(6) 0.8284(3)
C16 C 0.5967(4) 0.9517(7) 0.8236(5)
H13 H 0.5538 0.9806 0.8186
C18 C 0.7134(4) 0.9762(7) 0.8318(4)
C19 C 0.7184(5) 0.8670(8) 0.8370(5)
H15 H 0.7605 0.8349 0.8417
C20 C 0.6640(5) 0.8058(8) 0.8353(5)
H16 H 0.6686 0.7321 0.8392
C41 C 0.9586(5) 0.9863(7) 0.3550(4)
H33 H 0.9221 0.9963 0.3200
H21_2 H 0.5167 0.0289 0.6814
C27_2 C 0.5138(7) 0.0317(9) 0.5875(5)
H22_2 H 0.5322 0.0996 0.5879
Sc6_2 Sc 0.50076(8) 0.28595(13) 0.25775(8)
O16_2 O 0.5273(3) 0.1415(5) 0.3003(3)
N12_2 N 0.5193(3) 0.1048(6) 0.3555(3)
C56_2 C 0.4950(7) 0.0106(9) 0.3568(5)
C58_2 C 0.5037(4) 0.0224(7) 0.4693(4)
C59_2 C 0.5296(5) 0.1183(8) 0.4656(5)
H47_2 H 0.5438 0.1582 0.5033
C60_2 C 0.5360(5) 0.1591(8) 0.4093(5)
H48_2 H 0.5528 0.2279 0.4083
O10_2 O 0.4782(3) 0.4325(5) 0.2146(3)
N9_2 N 0.4834(3) 0.4540(5) 0.1552(3)
C41_2 C 0.5414(5) 0.4863(7) 0.1450(4)
H33_2 H 0.5779 0.4963 0.1800
C42_2 C 0.5484(4) 0.5050(7) 0.0842(4)
H34_2 H 0.5899 0.5276 0.0777
C43_2 C 0.4969(4) 0.4917(7) 0.0337(4)
C44_2 C 0.4368(5) 0.4596(8) 0.0452(5)
H35_2 H 0.3997 0.4501 0.0106
C45_2 C 0.4306(4) 0.4414(8) 0.1071(4)
H36_2 H 0.3894 0.4203 0.1150
N3_2 N 0.5166(3) 0.5460(5) 0.8448(3)
C11_2 C 0.4586(5) 0.5137(7) 0.8550(4)
H9_2 H 0.4221 0.5037 0.8200
C12_2 C 0.4516(4) 0.4950(7) 0.9158(4)
H10_2 H 0.4101 0.4724 0.9223
C13_2 C 0.5031(4) 0.5083(7) 0.9663(4)
C14_2 C 0.5632(5) 0.5404(8) 0.9548(5)
H11_2 H 0.6003 0.5499 0.9894
C15_2 C 0.5694(4) 0.5586(8) 0.8929(4)
H12_2 H 0.6106 0.5797 0.8850
N6_2 N 0.4807(3) 0.8952(6) 0.6445(3)
C26_2 C 0.5050(7) 0.9894(9) 0.6432(5)
C28_2 C 0.4963(4) 0.9776(7) 0.5307(4)
C29_2 C 0.4704(5) 0.8817(8) 0.5344(5)
H23_2 H 0.4562 0.8418 0.4967
C30_2 C 0.4640(5) 0.8409(8) 0.5907(5)
H24_2 H 0.4472 0.7721 0.5917
H45_2 H 0.4833 0.9711 0.3186
C57_2 C 0.4862(7) 0.9683(9) 0.4125(5)
H46_2 H 0.4678 0.9004 0.4121
O4 O 0.4487(3) 0.2127(5) 0.1745(3)
C7_2 C 0.1681(5) 0.0019(8) 0.1730(5)
H6_2 H 0.1615 0.0752 0.1687
N4_2 N 0.3949(4) 0.1507(6) 0.1716(3)
C16_2 C 0.4033(4) 0.0483(7) 0.1764(5)
H13_2 H 0.4462 0.0194 0.1814
C18_2 C 0.2866(4) 0.0238(7) 0.1682(4)
C19_2 C 0.2816(5) 0.1330(8) 0.1630(5)
H15_2 H 0.2395 0.1651 0.1583
C20_2 C 0.3360(5) 0.1942(8) 0.1647(5)
H16_2 H 0.3314 0.2679 0.1608
O2_2 O 0.0782(3) 0.7744(5) 0.1994(3)
N2_2 N 0.1264(3) 0.8364(6) 0.1882(3)
C6_2 C 0.1176(5) 0.9389(8) 0.1820(5)
H5_2 H 0.0763 0.9688 0.1839
C8_2 C 0.2292(4) 0.9589(8) 0.1701(4)
C9_2 C 0.2349(5) 0.8498(7) 0.1758(5)
H7_2 H 0.2754 0.8172 0.1739
C10_2 C 0.1833(4) 0.7900(8) 0.1842(5)
H8_2 H 0.1875 0.7162 0.1872
C17_2 C 0.3499(4) 0.9835(8) 0.1743(5)
H14_2 H 0.3564 0.9100 0.1771
O8 O 0.4218(3) 0.2744(5) 0.3006(3)
O12_2 O 0.0513(3) 0.7127(5) 0.3255(3)
N8_2 N 0.3736(3) 0.3364(6) 0.3118(3)
C36_2 C 0.3824(5) 0.4389(8) 0.3180(5)
H29_2 H 0.4237 0.4688 0.3161
C37_2 C 0.3319(5) 0.5019(8) 0.3270(5)
H30_2 H 0.3385 0.5752 0.3313
C38_2 C 0.2708(4) 0.4589(8) 0.3299(4)
C39_2 C 0.2651(5) 0.3498(7) 0.3242(5)
H31_2 H 0.2246 0.3172 0.3261
C40_2 C 0.3167(4) 0.2900(8) 0.3158(5)
H32_2 H 0.3125 0.2162 0.3128
N10_2 N 0.1051(4) 0.6507(6) 0.3284(3)
C46_2 C 0.0967(4) 0.5483(7) 0.3236(5)
H37_2 H 0.0538 0.5194 0.3186
C47_2 C 0.1501(4) 0.4835(8) 0.3257(5)
H38_2 H 0.1436 0.4100 0.3229
C48_2 C 0.2134(4) 0.5238(7) 0.3318(4)
C49_2 C 0.2184(5) 0.6330(8) 0.3370(5)
H39_2 H 0.2605 0.6651 0.3417
C50_2 C 0.1640(5) 0.6942(8) 0.3353(5)
H40_2 H 0.1686 0.7679 0.3392
O7_2 O 0.5819(3) 0.2878(5) 0.2191(3)
O15 O 0.5501(3) 0.3709(5) 0.3381(3)
N7_2 N 0.6296(3) 0.2280(6) 0.2074(3)
C31_2 C 0.6825(4) 0.2744(7) 0.1961(4)
H25_2 H 0.6847 0.3485 0.1960
C32_2 C 0.7343(4) 0.2172(7) 0.1846(5)
H26_2 H 0.7721 0.2518 0.1769
C33_2 C 0.7317(4) 0.1095(7) 0.1842(4)
C34_2 C 0.6751(4) 0.0633(8) 0.1968(4)
C35_2 C 0.6241(4) 0.1246(7) 0.2071(4)
H28_2 H 0.5851 0.0929 0.2141
C51_2 C 0.9053(5) 0.0311(7) 0.1832(4)
H41_2 H 0.9480 0.0620 0.1910
C52_2 C 0.8522(4) 0.0873(8) 0.1892(4)
H42_2 H 0.8582 0.1579 0.2029
C53_2 C 0.7890(4) 0.0450(7) 0.1761(4)
O1_2 O 0.9181(3) 0.7878(5) 0.2809(3)
N1_2 N 0.8704(3) 0.7280(6) 0.2926(3)
C1_2 C 0.8175(4) 0.7744(7) 0.3039(4)
H1_2 H 0.8153 0.8485 0.3040
C2_2 C 0.7657(4) 0.7172(7) 0.3154(5)
H2_2 H 0.7279 0.7518 0.3231
C3_2 C 0.7683(4) 0.6095(7) 0.3158(4)
C4_2 C 0.8249(4) 0.5633(8) 0.3032(4)
H3_2 H 0.8282 0.4894 0.3018
C5_2 C 0.8759(4) 0.6246(7) 0.2929(4)
H4_2 H 0.9149 0.5929 0.2859
N5_2 N 0.6035(3) 0.4295(6) 0.3344(3)
C21_2 C 0.5947(5) 0.5311(7) 0.3168(4)
H17_2 H 0.5520 0.5620 0.3090
C22_2 C 0.6478(4) 0.5873(8) 0.3108(4)
H18_2 H 0.6418 0.6579 0.2971
C23_2 C 0.7110(4) 0.5450(7) 0.3239(4)
C24_2 C 0.7167(4) 0.4409(7) 0.3424(5)
H19_2 H 0.7591 0.4090 0.3517
C25_2 C 0.6638(4) 0.3842(8) 0.3477(4)
H20_2 H 0.6688 0.3131 0.3606
O14_2 O 0.9499(3) 0.8709(5) 0.1619(3)
H27_2 H 0.6718 0.9894 0.1982
N11_2 N 0.8965(3) 0.9295(6) 0.1656(3)
C54_2 C 0.7833(4) 0.9409(7) 0.1576(5)
H43_2 H 0.7409 0.9090 0.1483
C55_2 C 0.8362(4) 0.8842(8) 0.1523(4)
H44_2 H 0.8312 0.8131 0.1394
S1 S 0.75251(15) 0.4951(3) 0.84188(14)
O18 O 0.7230(6) 0.3924(8) 0.8280(6)
O19 O 0.8096(4) 0.5006(9) 0.8187(4)
O20 O 0.7046(4) 0.5765(6) 0.8290(4)
C61 C 0.7812(7) 0.4964(14) 0.9268(6)
F1 F 0.8131(5) 0.5862(10) 0.9438(5)
F2 F 0.7318(4) 0.4889(10) 0.9548(4)
F3 F 0.8254(5) 0.4244(10) 0.9479(4)
O19_2 O 0.6904(4) 0.0006(9) 0.6813(4)
O20_2 O 0.7954(4) 0.0765(6) 0.6710(4)
F1_2 F 0.6869(5) 0.0862(10) 0.5562(5)
S1_2 S 0.74749(15) 0.9951(3) 0.65812(14)
O18_2 O 0.7770(6) 0.8924(8) 0.6720(6)
C61_2 C 0.7188(7) 0.9964(14) 0.5732(6)
F2_2 F 0.7682(4) 0.9889(10) 0.5452(4)
F3_2 F 0.6746(5) 0.9244(10) 0.5521(4)
S1_3 S 0.24749(15) 0.5049(3) 0.15812(14)
O18_3 O 0.2770(6) 0.6076(8) 0.1720(6)
O19_3 O 0.1904(4) 0.4994(9) 0.1813(4)
O20_3 O 0.2954(4) 0.4235(6) 0.1710(4)
C61_3 C 0.2188(7) 0.5036(14) 0.0732(6)
F1_3 F 0.1869(5) 0.4138(10) 0.0562(5)
F2_3 F 0.2682(4) 0.5111(10) 0.0452(4)
F3_3 F 0.1746(5) 0.5756(10) 0.0521(4)
S1_4 S 0.25251(15) 0.0049(3) 0.34188(14)
O18_4 O 0.2230(6) 0.1076(8) 0.3280(6)
C61_4 C 0.2812(7) 0.0036(14) 0.4268(6)
F2_4 F 0.2318(4) 0.0111(10) 0.4548(4)
F3_4 F 0.3254(5) 0.0756(10) 0.4479(4)
O19_4 O 0.3096(4) 0.9994(9) 0.3187(4)
O20_4 O 0.2046(4) 0.9235(6) 0.3290(4)
F1_4 F 0.3131(5) 0.9138(10) 0.4438(5)
S2 S 0.26640(13) 0.4153(2) 0.86693(12)
O21 O 0.2278(4) 0.3267(6) 0.8386(3)
O22 O 0.3064(3) 0.3965(6) 0.9295(3)
O23 O 0.2988(3) 0.4738(5) 0.8257(3)
C62 C 0.2036(6) 0.5045(11) 0.8827(6)
F4 F 0.1628(4) 0.5337(7) 0.8289(3)
F5 F 0.2315(4) 0.5914(6) 0.9116(3)
F6 F 0.1686(3) 0.4617(7) 0.9196(3)
C62_2 C 0.2964(6) 0.0045(11) 0.6173(6)
F4_2 F 0.3372(4) 0.0337(7) 0.6711(3)
F5_2 F 0.2685(4) 0.0914(6) 0.5884(3)
S2_2 S 0.23360(13) 0.9153(2) 0.63307(12)
O21_2 O 0.2722(4) 0.8267(6) 0.6614(3)
O22_2 O 0.1936(3) 0.8965(6) 0.5705(3)
O23_2 O 0.2012(3) 0.9738(5) 0.6743(3)
F6_2 F 0.3314(3) 0.9617(7) 0.5804(3)
S2_3 S 0.73360(13) 0.5847(2) 0.13307(12)
O21_3 O 0.7722(4) 0.6733(6) 0.1614(3)
O22_3 O 0.6936(3) 0.6035(6) 0.0705(3)
O23_3 O 0.7012(3) 0.5262(5) 0.1743(3)
C62_3 C 0.7964(6) 0.4955(11) 0.1173(6)
F4_3 F 0.8372(4) 0.4663(7) 0.1711(3)
F5_3 F 0.7685(4) 0.4086(6) 0.0884(3)
F6_3 F 0.8314(3) 0.5383(7) 0.0804(3)
S2_4 S 0.76640(13) 0.0847(2) 0.36693(12)
O21_4 O 0.7278(4) 0.1733(6) 0.3386(3)
O22_4 O 0.8064(3) 0.1035(6) 0.4295(3)
O23_4 O 0.7988(3) 0.0262(5) 0.3257(3)
F6_4 F 0.6686(3) 0.0383(7) 0.4196(3)
C62_4 C 0.7036(6) 0.9955(11) 0.3827(6)
F4_4 F 0.6628(4) 0.9663(7) 0.3289(3)
F5_4 F 0.7315(4) 0.9086(6) 0.4116(3)
S3 S 0.0511(2) 0.6868(3) 0.70441(18)
O24 O 0.1248(5) 0.6917(8) 0.7178(7)
O25 O 0.0271(5) 0.5965(9) 0.7246(5)
O26 O 0.0226(5) 0.7865(8) 0.7156(5)
C63 C 0.0347(11) 0.6725(14) 0.6226(9)
F7 F 0.0617(7) 0.5849(8) 0.6040(5)
F9 F 0.0536(8) 0.7520(8) 0.5908(6)
F8 F 0.9652(7) 0.6704(11) 0.5994(6)
S3_2 S 0.4489(2) 0.1868(3) 0.79559(18)
O24_2 O 0.3752(5) 0.1917(8) 0.7822(7)
O25_2 O 0.4729(5) 0.0965(9) 0.7754(5)
O26_2 O 0.4774(5) 0.2865(8) 0.7844(5)
C63_2 C 0.4653(11) 0.1725(14) 0.8774(9)
F7_2 F 0.4383(7) 0.0849(8) 0.8960(5)
F8_2 F 0.5348(7) 0.1704(11) 0.9006(6)
F9_2 F 0.4464(8) 0.2520(8) 0.9092(6)
F8_3 F 0.0348(7) 0.3296(11) 0.4006(6)
S3_3 S 0.9489(2) 0.3132(3) 0.29559(18)
O24_3 O 0.8752(5) 0.3083(8) 0.2822(7)
O25_3 O 0.9729(5) 0.4035(9) 0.2754(5)
O26_3 O 0.9774(5) 0.2135(8) 0.2844(5)
C63_3 C 0.9653(11) 0.3275(14) 0.3774(9)
F7_3 F 0.9383(7) 0.4151(8) 0.3960(5)
F9_3 F 0.9464(8) 0.2480(8) 0.4092(6)
S3_4 S 0.5511(2) 0.8132(3) 0.20441(18)
O24_4 O 0.6248(5) 0.8083(8) 0.2178(7)
O25_4 O 0.5271(5) 0.9035(9) 0.2246(5)
O26_4 O 0.5226(5) 0.7135(8) 0.2156(5)
C63_4 C 0.5347(11) 0.8275(14) 0.1226(9)
F7_4 F 0.5617(7) 0.9151(8) 0.1040(5)
F8_4 F 0.4652(7) 0.8296(11) 0.0994(6)
F9_4 F 0.5536(8) 0.7480(8) 0.0908(6)
loop_
_geom_bond_atom_site_label_1
_geom_bond_atom_site_label_2
_geom_bond_site_symmetry_1
_geom_bond_site_symmetry_2
C56 H45 1_555 1_555
C57 C56 1_555 1_555
H46 C57 1_555 1_555
Sc1 O1 1_555 1_555
O1 N1 1_555 1_555
O5 N5 1_555 1_555
O6 Sc1 1_555 1_555
N1 C1 1_555 1_555
C1 H1 1_555 1_555
C2 C1 1_555 1_555
H2 C2 1_555 1_555
C3 C2 1_555 1_555
C4 C3 1_555 1_555
H3 C4 1_555 1_555
C5 N1 1_555 1_555
H4 C5 1_555 1_555
H9 C11 1_555 1_555
N5 C21 1_555 1_555
C21 H17 1_555 1_555
C22 C21 1_555 1_555
H18 C22 1_555 1_555
C23 C3 1_555 1_555
C24 C23 1_555 1_555
H19 C24 1_555 1_555
C25 N5 1_555 1_555
H20 C25 1_555 1_555
N6 O6 1_555 1_555
C29 C28 1_555 1_555
C30 N6 1_555 1_555
H24 C30 1_555 1_555
Sc4 O5 1_555 1_555
O14 Sc1 1_555 1_555
N11 O14 1_555 1_555
H43 C54 1_555 1_555
C55 N11 1_555 1_555
H44 C55 1_555 1_555
C4 C5 1_555 1_555
C22 C23 1_555 1_555
C24 C25 1_555 1_555
C29 C30 1_555 1_555
C54 C55 1_555 1_555
H10 C12 1_555 1_555
Sc4 O7 1_555 1_555
O7 N7 1_555 1_555
O9 Sc4 1_555 1_555
O10 N9 1_555 1_555
O11 Sc4 1_555 1_555
O13 Sc4 1_555 1_555
O17 Sc4 1_555 1_555
N7 C31 1_555 1_555
C31 H25 1_555 1_555
C32 C31 1_555 1_555
H26 C32 1_555 1_555
C33 C32 1_555 1_555
C34 C33 1_555 1_555
C35 N7 1_555 1_555
H28 C35 1_555 1_555
C44 C43 1_555 1_555
H35 C44 1_555 1_555
C45 N9 1_555 1_555
H36 C45 1_555 1_555
H41 C51 1_555 1_555
C52 C51 1_555 1_555
H42 C52 1_555 1_555
C53 C33 1_555 1_555
C34 C35 1_555 1_555
C44 C45 1_555 1_555
C52 C53 1_555 1_555
Sc6 O16 1_555 1_555
O16 N12 1_555 1_555
C59 C58 1_555 1_555
C60 N12 1_555 1_555
H48 C60 1_555 1_555
C59 C60 1_555 1_555
N2 O2 1_555 1_555
C6 N2 1_555 1_555
H5 C6 1_555 1_555
C9 C8 1_555 1_555
H7 C9 1_555 1_555
C10 N2 1_555 1_555
H8 C10 1_555 1_555
N3 O3 1_555 1_555
C14 C13 1_555 1_555
H11 C14 1_555 1_555
C15 N3 1_555 1_555
H12 C15 1_555 1_555
H14 C17 1_555 1_555
H21 C26 1_555 1_555
C27 C26 1_555 1_555
H22 C27 1_555 1_555
O9 N8 1_555 1_555
N8 C36 1_555 1_555
C36 H29 1_555 1_555
C37 C36 1_555 1_555
H30 C37 1_555 1_555
C38 C37 1_555 1_555
C39 C38 1_555 1_555
H31 C39 1_555 1_555
C40 N8 1_555 1_555
H32 C40 1_555 1_555
H34 C42 1_555 1_555
N10 O12 1_555 1_555
C46 N10 1_555 1_555
H37 C46 1_555 1_555
C47 C46 1_555 1_555
H38 C47 1_555 1_555
C48 C38 1_555 1_555
C49 C48 1_555 1_555
H39 C49 1_555 1_555
C50 N10 1_555 1_555
H40 C50 1_555 1_555
C9 C10 1_555 1_555
C14 C15 1_555 1_555
C39 C40 1_555 1_555
C47 C48 1_555 1_555
C49 C50 1_555 1_555
O13 N4 1_555 1_555
H6 C7 1_555 1_555
N4 C16 1_555 1_555
C16 H13 1_555 1_555
C19 C18 1_555 1_555
H15 C19 1_555 1_555
C20 N4 1_555 1_555
H16 C20 1_555 1_555
C41 H33 1_555 1_555
C19 C20 1_555 1_555
H22_2 C27_2 1_555 1_555
Sc6_2 O16_2 1_555 1_555
O16_2 N12_2 1_555 1_555
N12_2 C56_2 1_555 1_555
C59_2 C58_2 1_555 1_555
H47_2 C59_2 1_555 1_555
C60_2 N12_2 1_555 1_555
H48_2 C60_2 1_555 1_555
C59_2 C60_2 1_555 1_555
Sc6_2 O10_2 1_555 1_555
O10_2 N9_2 1_555 1_555
N9_2 C41_2 1_555 1_555
C41_2 H33_2 1_555 1_555
C42_2 C41_2 1_555 1_555
H34_2 C42_2 1_555 1_555
C44_2 C43_2 1_555 1_555
H35_2 C44_2 1_555 1_555
C45_2 N9_2 1_555 1_555
H36_2 C45_2 1_555 1_555
C42_2 C43_2 1_555 1_555
C44_2 C45_2 1_555 1_555
N3_2 O11 1_555 1_555
C11_2 N3_2 1_555 1_555
H9_2 C11_2 1_555 1_555
C12_2 C11_2 1_555 1_555
H10_2 C12_2 1_555 1_555
C13_2 C12_2 1_555 1_555
C14_2 C13_2 1_555 1_555
H11_2 C14_2 1_555 1_555
C15_2 N3_2 1_555 1_555
H12_2 C15_2 1_555 1_555
N6_2 O17 1_555 1_555
C26_2 N6_2 1_555 1_555
C29_2 C28_2 1_555 1_555
H23_2 C29_2 1_555 1_555
C30_2 N6_2 1_555 1_555
H24_2 C30_2 1_555 1_555
H46_2 C57_2 1_555 1_555
C14_2 C15_2 1_555 1_555
C29_2 C30_2 1_555 1_555
O4 N4_2 1_555 1_555
H6_2 C7_2 1_555 1_555
N4_2 C16_2 1_555 1_555
C16_2 H13_2 1_555 1_555
C19_2 C18_2 1_555 1_555
H15_2 C19_2 1_555 1_555
C20_2 N4_2 1_555 1_555
H16_2 C20_2 1_555 1_555
Sc6_2 O4 1_555 1_555
C19_2 C20_2 1_555 1_555
N2_2 O2_2 1_555 1_555
C6_2 N2_2 1_555 1_555
H5_2 C6_2 1_555 1_555
C9_2 C8_2 1_555 1_555
H7_2 C9_2 1_555 1_555
C10_2 N2_2 1_555 1_555
H8_2 C10_2 1_555 1_555
H14_2 C17_2 1_555 1_555
Sc6_2 O8 1_555 1_555
O8 N8_2 1_555 1_555
N8_2 C36_2 1_555 1_555
C36_2 H29_2 1_555 1_555
C37_2 C36_2 1_555 1_555
H30_2 C37_2 1_555 1_555
C38_2 C37_2 1_555 1_555
C39_2 C38_2 1_555 1_555
H31_2 C39_2 1_555 1_555
C40_2 N8_2 1_555 1_555
H32_2 C40_2 1_555 1_555
N10_2 O12_2 1_555 1_555
C46_2 N10_2 1_555 1_555
H37_2 C46_2 1_555 1_555
C47_2 C46_2 1_555 1_555
H38_2 C47_2 1_555 1_555
C48_2 C38_2 1_555 1_555
C49_2 C48_2 1_555 1_555
H39_2 C49_2 1_555 1_555
C50_2 N10_2 1_555 1_555
H40_2 C50_2 1_555 1_555
C9_2 C10_2 1_555 1_555
C39_2 C40_2 1_555 1_555
C47_2 C48_2 1_555 1_555
C49_2 C50_2 1_555 1_555
Sc6_2 O7_2 1_555 1_555
O7_2 N7_2 1_555 1_555
O15 Sc6_2 1_555 1_555
N7_2 C31_2 1_555 1_555
C31_2 H25_2 1_555 1_555
C32_2 C31_2 1_555 1_555
H26_2 C32_2 1_555 1_555
C33_2 C32_2 1_555 1_555
C34_2 C33_2 1_555 1_555
C35_2 N7_2 1_555 1_555
H28_2 C35_2 1_555 1_555
H41_2 C51_2 1_555 1_555
C52_2 C51_2 1_555 1_555
H42_2 C52_2 1_555 1_555
C53_2 C33_2 1_555 1_555
C34_2 C35_2 1_555 1_555
C52_2 C53_2 1_555 1_555
Sc6 O1_2 1_555 1_555
O1_2 N1_2 1_555 1_555
O15 N5_2 1_555 1_555
N1_2 C1_2 1_555 1_555
C1_2 H1_2 1_555 1_555
C2_2 C1_2 1_555 1_555
H2_2 C2_2 1_555 1_555
C3_2 C2_2 1_555 1_555
C4_2 C3_2 1_555 1_555
H3_2 C4_2 1_555 1_555
C5_2 N1_2 1_555 1_555
H4_2 C5_2 1_555 1_555
N5_2 C21_2 1_555 1_555
C21_2 H17_2 1_555 1_555
C22_2 C21_2 1_555 1_555
H18_2 C22_2 1_555 1_555
C23_2 C3_2 1_555 1_555
C24_2 C23_2 1_555 1_555
H19_2 C24_2 1_555 1_555
C25_2 N5_2 1_555 1_555
H20_2 C25_2 1_555 1_555
O14_2 Sc6 1_555 1_555
N11_2 O14_2 1_555 1_555
H43_2 C54_2 1_555 1_555
C55_2 N11_2 1_555 1_555
H44_2 C55_2 1_555 1_555
C4_2 C5_2 1_555 1_555
C22_2 C23_2 1_555 1_555
C24_2 C25_2 1_555 1_555
C54_2 C55_2 1_555 1_555
S1 O18 1_555 1_555
O19 S1 1_555 1_555
O20 S1 1_555 1_555
C61 S1 1_555 1_555
F1 C61 1_555 1_555
F2 C61 1_555 1_555
F3 C61 1_555 1_555
S1_2 O18_2 1_555 1_555
C61_2 S1_2 1_555 1_555
F2_2 C61_2 1_555 1_555
F3_2 C61_2 1_555 1_555
S1_3 O18_3 1_555 1_555
O19_3 S1_3 1_555 1_555
O20_3 S1_3 1_555 1_555
C61_3 S1_3 1_555 1_555
F1_3 C61_3 1_555 1_555
F2_3 C61_3 1_555 1_555
F3_3 C61_3 1_555 1_555
S1_4 O18_4 1_555 1_555
C61_4 S1_4 1_555 1_555
F2_4 C61_4 1_555 1_555
F3_4 C61_4 1_555 1_555
S2 O21 1_555 1_555
O22 S2 1_555 1_555
O23 S2 1_555 1_555
C62 S2 1_555 1_555
F4 C62 1_555 1_555
F5 C62 1_555 1_555
F6 C62 1_555 1_555
F4_2 C62_2 1_555 1_555
F5_2 C62_2 1_555 1_555
S2_2 O21_2 1_555 1_555
O22_2 S2_2 1_555 1_555
O23_2 S2_2 1_555 1_555
S2_3 O21_3 1_555 1_555
O22_3 S2_3 1_555 1_555
O23_3 S2_3 1_555 1_555
C62_3 S2_3 1_555 1_555
F4_3 C62_3 1_555 1_555
F5_3 C62_3 1_555 1_555
F6_3 C62_3 1_555 1_555
S2_4 O21_4 1_555 1_555
O22_4 S2_4 1_555 1_555
O23_4 S2_4 1_555 1_555
F4_4 C62_4 1_555 1_555
F5_4 C62_4 1_555 1_555
S3 O24 1_555 1_555
O25 S3 1_555 1_555
O26 S3 1_555 1_555
C63 S3 1_555 1_555
F7 C63 1_555 1_555
F9 C63 1_555 1_555
S3_2 O24_2 1_555 1_555
O25_2 S3_2 1_555 1_555
O26_2 S3_2 1_555 1_555
C63_2 S3_2 1_555 1_555
F7_2 C63_2 1_555 1_555
F8_2 C63_2 1_555 1_555
F9_2 C63_2 1_555 1_555
S3_3 O24_3 1_555 1_555
O25_3 S3_3 1_555 1_555
O26_3 S3_3 1_555 1_555
C63_3 S3_3 1_555 1_555
F7_3 C63_3 1_555 1_555
F9_3 C63_3 1_555 1_555
S3_4 O24_4 1_555 1_555
O25_4 S3_4 1_555 1_555
O26_4 S3_4 1_555 1_555
C63_4 S3_4 1_555 1_555
F7_4 C63_4 1_555 1_555
F8_4 C63_4 1_555 1_555
F9_4 C63_4 1_555 1_555

#END
