
###############################################################################
#
# This file contains modified crystal structure data generated from the
# MOF subset of the Cambridge Structural Database (CSD) v543 
# hosted by the Cambridge Crystallographic Data Centre (CCDC).
#
# This work is licensed under the Creative Commons
# Attribution-NonCommercial-ShareAlike 4.0 International License.
# To view a copy of this license, visit
# http://creativecommons.org/licenses/by-nc-sa/4.0/
# or send a letter to
# Creative Commons, PO Box 1866, Mountain View, CA 94042, USA.
#
# CIF created using the CSD Python API on 29 September 2022
# The structure has been converted into the P1 space group
# The structure has a 3D framework
# The original CSD entry FITJAU is in the monoclinic crystal system
# The framework has been calculated to contain at least 10.0% void space
# The void calculation uses a probe of radius 1.32A, grid spacing 0.4
# The framework is charged, counterions have been retained in the structure
# H atom positions have been added when not included in the experimental data
# Generated hydrogen atom positions removed from atoms on special positions
#
###############################################################################

data_FITJAU
_chemical_formula_moiety         '(C44 H116 Gd12 N4 O94 P4 2+)n'
_symmetry_cell_setting           triclinic
_symmetry_space_group_name_H-M   'P 1'
_symmetry_Int_Tables_number      1
_space_group_name_Hall           'P 1'
loop_
_symmetry_equiv_pos_site_id
_symmetry_equiv_pos_as_xyz
1 x,y,z
_cell_length_a                   10.2481(2)
_cell_length_b                   22.3910(3)
_cell_length_c                   15.0697(3)
_cell_angle_alpha                90
_cell_angle_beta                 108.02
_cell_angle_gamma                90
_cell_volume                     3288.35
loop_
_atom_site_label
_atom_site_type_symbol
_atom_site_fract_x
_atom_site_fract_y
_atom_site_fract_z
O14 O 0.0706(7) 0.0505(3) 0.5914(4)
Gd4 Gd 0.03392(5) 0.14153(2) 0.50113(3)
Gd9 Gd 0.42225(5) 0.15503(2) 0.25061(3)
Gd11 Gd 0.24278(5) 0.01341(2) 0.90998(3)
C12 C 0.2253(10) 0.1802(4) 0.3744(6)
C13 C 0.2478(10) 0.1123(4) 0.3860(6)
O26 O 0.2830(7) 0.2070(3) 0.3249(5)
O28 O 0.1489(7) 0.2030(3) 0.4164(5)
O29 O 0.1929(7) 0.0862(3) 0.4386(5)
O30 O 0.3205(7) 0.0894(3) 0.3415(5)
O34 O 0.0213(7) 0.1687(3) 0.6555(5)
O48 O 0.0721(8) 0.0646(3) 0.9676(6)
O62 O 0.2633(8) 0.1684(4) 0.6060(5)
C3 C 0.0182(10) 0.7799(5) 0.3324(6)
C4 C 0.0416(9) 0.7357(4) 0.4156(6)
C5 C 0.2483(11) 0.8374(4) 0.6665(7)
C6 C 0.2931(11) 0.8494(5) 0.5785(7)
C7 C 0.0427(10) 0.9997(4) 0.5526(6)
C8 C 0.0067(11) 0.9653(5) 0.9984(7)
O5 O 0.0424(8) 0.7614(3) 0.2613(5)
O7 O 0.0774(7) 0.6838(3) 0.4021(5)
O8 O 0.0187(8) 0.7542(3) 0.4867(5)
O9 O 0.4234(7) 0.8474(3) 0.5945(5)
O10 O 0.2046(7) 0.8585(3) 0.5041(5)
O11 O 0.3395(7) 0.8336(4) 0.7440(5)
O12 O 0.1202(7) 0.8323(3) 0.6526(5)
O13 O 0.0761(8) 0.9508(3) 0.5896(5)
O16 O 0.0898(8) 0.9452(3) 0.9616(5)
Gd7 Gd 0.07775(5) 0.65503(2) 0.24939(3)
Gd8 Gd 0.57775(5) 0.84497(2) 0.74939(3)
Gd10 Gd 0.25722(5) 0.51341(2) 0.59002(3)
P2 P 0.0454(3) 0.50694(12) 0.34208(17)
N2 N 0.1294(14) 0.4695(5) 0.1921(8)
H10 H 0.1413 0.5095 0.1871
C20 C 0.1361(18) 0.4564(6) 0.2861(10)
H11 H 0.2319 0.4558 0.3235
H12 H 0.1001 0.4165 0.2875
C22 C 0.218(3) 0.4386(7) 0.1501(15)
H16 H 0.3122 0.4478 0.1836
H17 H 0.1982 0.4509 0.0863
H18 H 0.2040 0.3963 0.1525
O27 O 0.2170(7) 0.7070(3) 0.1751(5)
O31 O 0.1795(7) 0.5894(3) 0.1585(5)
O49 O 0.4279(8) 0.5646(3) 0.5324(6)
O51 O 0.4102(8) 0.4452(3) 0.5384(5)
O52 O 0.1423(11) 0.5153(5) 0.4372(6)
O55 O 0.0897(9) 0.5196(4) 0.6601(6)
O56 O 0.0281(9) 0.5635(3) 0.2853(6)
O57 O 0.1525(9) 0.4133(4) 0.5683(7)
O58 O 0.3939(11) 0.4519(4) 0.7194(6)
O59 O 0.3095(9) 0.6400(5) 0.3543(6)
O60 O 0.1813(10) 0.6179(4) 0.5654(6)
O61 O 0.3844(9) 0.5741(4) 0.7219(5)
O20 O 0.6525(9) 0.0867(4) 0.0683(7)
O21 O 0.8939(11) 0.0481(4) 0.2194(6)
C19 C 0.9933(11) 0.0347(5) 0.0016(7)
O50 O 0.9102(8) 0.0548(3) 0.0384(5)
N1 N 0.6294(14) 0.0305(5) 0.6921(8)
C9 C 0.6361(18) 0.0436(6) 0.7861(10)
H2 H 0.7319 0.0442 0.8235
H3 H 0.6001 0.0835 0.7875
C10 C 0.480(2) 0.0467(10) 0.6349(14)
H4 H 0.4172 0.0265 0.6606
H5 H 0.4670 0.0890 0.6373
H6 H 0.4628 0.0345 0.5712
C11 C 0.718(3) 0.0614(7) 0.6501(15)
H7 H 0.8122 0.0522 0.6836
H8 H 0.6982 0.0491 0.5863
H9 H 0.7040 0.1037 0.6525
O18 O 0.4103(9) 0.0196(4) 0.8399(6)
C18 C 0.9573(10) 0.0003(4) 0.4474(6)
O37 O 0.9813(8) 0.2458(3) 0.5133(5)
O41 O 0.7954(7) 0.1415(3) 0.4959(5)
O45 O 0.8798(7) 0.1677(3) 0.3474(5)
O46 O 0.9239(8) 0.0492(3) 0.4104(5)
Gd3 Gd 0.75722(5) 0.98659(2) 0.09002(3)
O15 O 0.9279(8) 0.9354(3) 0.0324(6)
O23 O 0.6813(10) 0.8821(4) 0.0654(6)
O24 O 0.8844(9) 0.9259(4) 0.2219(5)
O54 O 0.5897(9) 0.9804(4) 0.1601(6)
H29 H 0.753762 0.855678 0.105238
H30 H 0.595582 0.877066 0.0821987
Gd1 Gd 0.96608(5) 0.85847(2) 0.49887(3)
P1 P 0.5454(3) 0.99306(12) 0.84208(17)
H1 H 0.6413 0.9905 0.6871
C1 C 0.7747(10) 0.8198(4) 0.6256(6)
C2 C 0.7522(10) 0.8877(4) 0.6140(6)
O1 O 0.7170(7) 0.7930(3) 0.6751(5)
O2 O 0.8511(7) 0.7970(3) 0.5836(5)
O3 O 0.8071(7) 0.9138(3) 0.5614(5)
O4 O 0.6795(7) 0.9106(3) 0.6585(5)
O6 O 0.9787(7) 0.8313(3) 0.3445(5)
O17 O 0.6423(11) 0.9847(5) 0.9372(6)
O19 O 0.5281(9) 0.9365(3) 0.7853(6)
O22 O 0.8095(9) 0.8600(5) 0.8543(6)
O25 O 0.7367(8) 0.8316(4) 0.3940(5)
Gd5 Gd 0.46608(5) 0.64153(2) 0.99887(3)
Gd13 Gd 0.74278(5) 0.48659(2) 0.40998(3)
C14 C 0.5182(10) 0.7201(5) 0.8324(6)
C15 C 0.5416(9) 0.7643(4) 0.9156(6)
C21 C 0.980(2) 0.4533(10) 0.1349(14)
H13 H 0.9172 0.4735 0.1606
H14 H 0.9670 0.4110 0.1373
H15 H 0.9628 0.4655 0.0712
O32 O 0.5424(8) 0.7386(3) 0.7613(5)
O33 O 0.4787(7) 0.6687(3) 0.8445(5)
O35 O 0.5774(7) 0.8162(3) 0.9021(5)
O36 O 0.5187(8) 0.7458(3) 0.9867(5)
O39 O 0.9234(7) 0.6526(3) 0.0945(5)
O43 O 0.8395(7) 0.6664(4) 0.2440(5)
O47 O 0.9294(7) 0.9495(3) 0.4086(4)
O53 O 0.9103(9) 0.4804(4) 0.3399(6)
Gd6 Gd 0.53392(5) 0.35847(2) 0.00113(3)
C10_2 C 0.020(2) 0.5467(10) 0.8651(14)
H4_2 H 0.0828 0.5265 0.8394
H5_2 H 0.0330 0.5890 0.8627
H6_2 H 0.0372 0.5345 0.9288
C16 C 0.2517(11) 0.3374(4) 0.8335(7)
C17 C 0.2069(11) 0.3494(5) 0.9215(7)
O38 O 0.0766(7) 0.3474(3) 0.9055(5)
O40 O 0.2954(7) 0.3585(3) 0.9959(5)
O42 O 0.1605(7) 0.3336(4) 0.7560(5)
O44 O 0.3798(7) 0.3323(3) 0.8474(5)
C3_2 C 0.4818(10) 0.2799(5) 0.1676(6)
C4_2 C 0.4584(9) 0.2357(4) 0.0844(6)
O5_2 O 0.4576(8) 0.2614(3) 0.2387(5)
O6_2 O 0.5213(7) 0.3313(3) 0.1555(5)
O7_2 O 0.4226(7) 0.1838(3) 0.0979(5)
O8_2 O 0.4813(8) 0.2542(3) 0.0133(5)
O25_2 O 0.7633(8) 0.3316(4) 0.1060(5)
P2_2 P 0.4546(3) 0.00694(12) 0.15792(17)
H10_2 H 0.3587 0.0095 0.3129
C12_2 C 0.2747(10) 0.6802(4) 0.1256(6)
C13_2 C 0.2522(10) 0.6123(4) 0.1140(6)
C18_2 C 0.5427(10) 0.5003(4) 0.0526(6)
O28_2 O 0.3511(7) 0.7030(3) 0.0836(5)
O29_2 O 0.3071(7) 0.5862(3) 0.0614(5)
O39_2 O 0.5766(7) 0.1526(3) 0.4055(5)
O41_2 O 0.7046(7) 0.6415(3) 0.0041(5)
O43_2 O 0.6605(7) 0.1664(4) 0.2560(5)
O45_2 O 0.6202(7) 0.6677(3) 0.1526(5)
O46_2 O 0.5761(8) 0.5492(3) 0.0896(5)
O47_2 O 0.5706(7) 0.4495(3) 0.0914(4)
O52_2 O 0.3577(11) 0.0153(5) 0.0628(6)
O56_2 O 0.4719(9) 0.0635(3) 0.2147(6)
O59_2 O 0.1905(9) 0.1400(5) 0.1457(6)
H41 H 0.336124 0.128669 0.00118605
Gd2 Gd 0.92225(5) 0.34497(2) 0.75061(3)
P1_2 P 0.9546(3) 0.49306(12) 0.65792(17)
N1_2 N 0.8706(14) 0.5305(5) 0.8079(8)
H1_2 H 0.8587 0.4905 0.8129
C1_2 C 0.7253(10) 0.3198(4) 0.8744(6)
C2_2 C 0.7478(10) 0.3877(4) 0.8860(6)
C7_2 C 0.4573(10) 0.4997(4) 0.9474(6)
C8_2 C 0.4933(11) 0.4653(5) 0.5016(7)
C9_2 C 0.8639(18) 0.5436(6) 0.7139(10)
H2_2 H 0.7681 0.5442 0.6765
H3_2 H 0.8999 0.5835 0.7125
C11_2 C 0.782(3) 0.5614(7) 0.8499(15)
H7_2 H 0.6878 0.5522 0.8164
H8_2 H 0.8018 0.5491 0.9137
H9_2 H 0.7960 0.6037 0.8475
O1_2 O 0.7830(7) 0.2930(3) 0.8249(5)
O2_2 O 0.6489(7) 0.2970(3) 0.9164(5)
O3_2 O 0.6929(7) 0.4138(3) 0.9386(5)
O4_2 O 0.8205(7) 0.4106(3) 0.8415(5)
O13_2 O 0.4239(8) 0.4508(3) 0.9104(5)
O14_2 O 0.4294(7) 0.5505(3) 0.9086(4)
O15_2 O 0.5721(8) 0.4354(3) 0.4676(6)
O17_2 O 0.8577(11) 0.4847(5) 0.5628(6)
O19_2 O 0.9719(9) 0.4365(3) 0.7147(6)
O20_2 O 0.8475(9) 0.5867(4) 0.4317(7)
O21_2 O 0.6061(11) 0.5481(4) 0.2806(6)
O22_2 O 0.6905(9) 0.3600(5) 0.6457(6)
O23_2 O 0.8187(10) 0.3821(4) 0.4346(6)
O24_2 O 0.6156(9) 0.4259(4) 0.2781(5)
C14_2 C 0.9818(10) 0.2201(5) 0.6676(6)
C15_2 C 0.9584(9) 0.2643(4) 0.5844(6)
C19_2 C 0.5067(11) 0.5347(5) 0.4984(7)
O32_2 O 0.9576(8) 0.2386(3) 0.7387(5)
O35_2 O 0.9226(7) 0.3162(3) 0.5979(5)
O50_2 O 0.5898(8) 0.5548(3) 0.4616(5)
O60_2 O 0.3187(10) 0.1179(4) 0.9346(6)
O61_2 O 0.1156(9) 0.0741(4) 0.7781(5)
O62_2 O 0.2367(8) 0.6684(4) 0.8940(5)
H42 H 0.404418 0.122934 0.917801
N2_2 N 0.3706(14) 0.9695(5) 0.3079(8)
C20_2 C 0.3639(18) 0.9564(6) 0.2139(10)
H11_2 H 0.2681 0.9558 0.1765
H12_2 H 0.3999 0.9165 0.2125
C21_2 C 0.520(2) 0.9533(10) 0.3651(14)
H13_2 H 0.5828 0.9735 0.3394
H14_2 H 0.5330 0.9110 0.3627
H15_2 H 0.5372 0.9655 0.4288
C22_2 C 0.282(3) 0.9386(7) 0.3499(15)
H16_2 H 0.1878 0.9478 0.3164
H17_2 H 0.3018 0.9509 0.4137
H18_2 H 0.2960 0.8963 0.3475
O57_2 O 0.3475(9) 0.9133(4) 0.9317(7)
O58_2 O 0.1061(11) 0.9519(4) 0.7806(6)
C16_2 C 0.7517(11) 0.1626(4) 0.3335(7)
C17_2 C 0.7069(11) 0.1506(5) 0.4215(7)
H29_2 H 0.246238 0.144322 0.894762
C5_2 C 0.7483(11) 0.6626(4) 0.1665(7)
C6_2 C 0.7931(11) 0.6506(5) 0.0785(7)
H41_2 H 0.663876 0.871331 0.998814
loop_
_geom_bond_atom_site_label_1
_geom_bond_atom_site_label_2
_geom_bond_site_symmetry_1
_geom_bond_site_symmetry_2
Gd4 O14 1_555 1_555
Gd9 O26 1_555 1_555
C12 C13 1_555 1_555
C13 O29 1_555 1_555
O26 C12 1_555 1_555
O28 Gd4 1_555 1_555
O29 Gd4 1_555 1_555
O30 Gd9 1_555 1_555
O34 Gd4 1_555 1_555
O48 Gd11 1_555 1_555
O62 Gd4 1_555 1_555
C12 O28 1_555 1_555
C13 O30 1_555 1_555
C3 C4 1_555 1_555
C4 O7 1_555 1_555
C5 C6 1_555 1_555
C6 O9 1_555 1_555
C7 O13 1_555 1_555
O5 C3 1_555 1_555
O7 Gd7 1_555 1_555
O9 Gd8 1_555 1_555
O11 C5 1_555 1_555
O16 C8 1_555 1_555
Gd7 O5 1_555 1_555
Gd8 O11 1_555 1_555
Gd10 O49 1_555 1_555
P2 C20 1_555 1_555
N2 H10 1_555 1_555
C20 N2 1_555 1_555
H11 C20 1_555 1_555
H12 C20 1_555 1_555
C22 N2 1_555 1_555
H16 C22 1_555 1_555
H17 C22 1_555 1_555
H18 C22 1_555 1_555
O27 Gd7 1_555 1_555
O31 Gd7 1_555 1_555
O51 Gd10 1_555 1_555
O52 Gd10 1_555 1_555
O55 Gd10 1_555 1_555
O56 Gd7 1_555 1_555
O57 Gd10 1_555 1_555
O58 Gd10 1_555 1_555
O59 Gd7 1_555 1_555
O60 Gd10 1_555 1_555
O61 Gd10 1_555 1_555
C4 O8 1_555 1_555
C5 O12 1_555 1_555
C6 O10 1_555 1_555
P2 O52 1_555 1_555
P2 O56 1_555 1_555
C19 O50 1_555 1_555
C9 N1 1_555 1_555
H2 C9 1_555 1_555
H3 C9 1_555 1_555
C10 N1 1_555 1_555
H4 C10 1_555 1_555
H5 C10 1_555 1_555
H6 C10 1_555 1_555
C11 N1 1_555 1_555
H7 C11 1_555 1_555
H8 C11 1_555 1_555
H9 C11 1_555 1_555
Gd11 O18 1_555 1_555
C18 O46 1_555 1_555
Gd3 O15 1_555 1_555
O23 Gd3 1_555 1_555
O24 Gd3 1_555 1_555
O54 Gd3 1_555 1_555
O23 H29 1_555 1_555
O23 H30 1_555 1_555
Gd1 O2 1_555 1_555
Gd8 O1 1_555 1_555
C1 C2 1_555 1_555
C2 O3 1_555 1_555
O1 C1 1_555 1_555
O2 C1 1_555 1_555
O3 Gd1 1_555 1_555
O4 Gd8 1_555 1_555
O6 Gd1 1_555 1_555
O19 Gd8 1_555 1_555
O22 Gd8 1_555 1_555
O25 Gd1 1_555 1_555
Gd5 O33 1_555 1_555
Gd13 O53 1_555 1_555
C14 C15 1_555 1_555
C15 O35 1_555 1_555
H13 C21 1_555 1_555
H14 C21 1_555 1_555
H15 C21 1_555 1_555
O32 Gd8 1_555 1_555
O33 C14 1_555 1_555
O35 Gd8 1_555 1_555
O36 Gd5 1_555 1_555
O47 Gd1 1_555 1_555
P1 O17 1_555 1_555
P1 O19 1_555 1_555
C2 O4 1_555 1_555
C14 O32 1_555 1_555
C15 O36 1_555 1_555
H4_2 C10_2 1_555 1_555
H5_2 C10_2 1_555 1_555
H6_2 C10_2 1_555 1_555
C16 C17 1_555 1_555
C17 O38 1_555 1_555
O40 C17 1_555 1_555
C16 O42 1_555 1_555
C16 O44 1_555 1_555
C3_2 C4_2 1_555 1_555
C4_2 O7_2 1_555 1_555
O5_2 C3_2 1_555 1_555
O6_2 Gd6 1_555 1_555
O7_2 Gd9 1_555 1_555
O8_2 Gd6 1_555 1_555
O25_2 Gd6 1_555 1_555
Gd9 O5_2 1_555 1_555
C12_2 C13_2 1_555 1_555
C13_2 O29_2 1_555 1_555
O27 C12_2 1_555 1_555
O39_2 Gd9 1_555 1_555
O43_2 Gd9 1_555 1_555
O47_2 Gd6 1_555 1_555
O56_2 Gd9 1_555 1_555
O59_2 Gd9 1_555 1_555
C3_2 O6_2 1_555 1_555
C4_2 O8_2 1_555 1_555
P2_2 O52_2 1_555 1_555
P2_2 O56_2 1_555 1_555
C12_2 O28_2 1_555 1_555
C13_2 O31 1_555 1_555
C18_2 O46_2 1_555 1_555
C18_2 O47_2 1_555 1_555
Gd2 O1_2 1_555 1_555
Gd13 O15_2 1_555 1_555
P1_2 C9_2 1_555 1_555
N1_2 H1_2 1_555 1_555
C1_2 C2_2 1_555 1_555
C2_2 O3_2 1_555 1_555
C7_2 O13_2 1_555 1_555
C8_2 O15_2 1_555 1_555
C9_2 N1_2 1_555 1_555
H2_2 C9_2 1_555 1_555
H3_2 C9_2 1_555 1_555
C11_2 N1_2 1_555 1_555
H7_2 C11_2 1_555 1_555
H8_2 C11_2 1_555 1_555
H9_2 C11_2 1_555 1_555
O1_2 C1_2 1_555 1_555
O2_2 C1_2 1_555 1_555
O4_2 Gd2 1_555 1_555
O14_2 C7_2 1_555 1_555
O51 C8_2 1_555 1_555
O17_2 Gd13 1_555 1_555
O19_2 Gd2 1_555 1_555
O20_2 Gd13 1_555 1_555
O21_2 Gd13 1_555 1_555
O22_2 Gd2 1_555 1_555
O23_2 Gd13 1_555 1_555
O24_2 Gd13 1_555 1_555
Gd5 O14_2 1_555 1_555
C14_2 C15_2 1_555 1_555
C15_2 O35_2 1_555 1_555
C19_2 C8_2 1_555 1_555
O32_2 Gd2 1_555 1_555
O35_2 Gd2 1_555 1_555
O50_2 Gd13 1_555 1_555
O60_2 Gd11 1_555 1_555
O61_2 Gd11 1_555 1_555
O62_2 Gd5 1_555 1_555
P1_2 O17_2 1_555 1_555
P1_2 O19_2 1_555 1_555
C2_2 O4_2 1_555 1_555
C14_2 O32_2 1_555 1_555
C15_2 O37 1_555 1_555
C19_2 O49 1_555 1_555
C19_2 O50_2 1_555 1_555
O60_2 H42 1_555 1_555
C20_2 N2_2 1_555 1_555
H11_2 C20_2 1_555 1_555
H12_2 C20_2 1_555 1_555
C21_2 N2_2 1_555 1_555
H13_2 C21_2 1_555 1_555
H14_2 C21_2 1_555 1_555
H15_2 C21_2 1_555 1_555
C22_2 N2_2 1_555 1_555
H16_2 C22_2 1_555 1_555
H17_2 C22_2 1_555 1_555
H18_2 C22_2 1_555 1_555
C16_2 C17_2 1_555 1_555
C17_2 O39_2 1_555 1_555
O41 C17_2 1_555 1_555
C16_2 O43_2 1_555 1_555
C16_2 O45 1_555 1_555
O60_2 H29_2 1_555 1_555
C5_2 C6_2 1_555 1_555
C6_2 O39 1_555 1_555
O43 C5_2 1_555 1_555
C5_2 O45_2 1_555 1_555
C6_2 O41_2 1_555 1_555

#END
