
###############################################################################
#
# This file contains modified crystal structure data generated from the
# MOF subset of the Cambridge Structural Database (CSD) v543 
# hosted by the Cambridge Crystallographic Data Centre (CCDC).
#
# This work is licensed under the Creative Commons
# Attribution-NonCommercial-ShareAlike 4.0 International License.
# To view a copy of this license, visit
# http://creativecommons.org/licenses/by-nc-sa/4.0/
# or send a letter to
# Creative Commons, PO Box 1866, Mountain View, CA 94042, USA.
#
# CIF created using the CSD Python API on 29 September 2022
# The structure has been converted into the P1 space group
# The structure has a 3D framework
# The original CSD entry FIVNAZ is in the monoclinic crystal system
# The framework has been calculated to contain at least 10.0% void space
# The void calculation uses a probe of radius 1.32A, grid spacing 0.4
#
###############################################################################

data_FIVNAZ
_chemical_formula_moiety         '(C8 H16 F7 Ho4 O22)n'
_symmetry_cell_setting           triclinic
_symmetry_space_group_name_H-M   'P 1'
_symmetry_Int_Tables_number      1
_space_group_name_Hall           'P 1'
loop_
_symmetry_equiv_pos_site_id
_symmetry_equiv_pos_as_xyz
1 x,y,z
_cell_length_a                   12.034(4)
_cell_length_b                   11.186(3)
_cell_length_c                   8.165(3)
_cell_angle_alpha                90
_cell_angle_beta                 129.32(2)
_cell_angle_gamma                90
_cell_volume                     850.292
loop_
_atom_site_label
_atom_site_type_symbol
_atom_site_fract_x
_atom_site_fract_y
_atom_site_fract_z
Ho1 Ho 0.00000 0.06649(1) 0.25000
F1 F 0.00000 0.00000 0.00000
F2 F 0.00000 0.00000 0.50000
O4 O 0.20536(22) 0.15094(19) 0.30270(32)
O5 O 0.10566(22) 0.22707(18) 0.49693(34)
F1_2 F 0.00000 0.00000 1.00000
F1_3 F 0.00000 1.00000 0.00000
F2_2 F 0.00000 1.00000 0.50000
O6 O 0.18318(29) 0.92243(25) 0.44924(44)
H3 H 0.2697 0.91032 0.47043
H4 H 0.18838 0.89064 0.54664
F1_4 F 0.00000 1.00000 1.00000
Ho2 Ho -0.00000 0.93351(1) 0.75000
Ho1_2 Ho 1.00000 0.06649(1) 0.25000
F1_5 F 1.00000 0.00000 0.00000
O1 O 0.79464(22) 0.15094(19) 0.19730(32)
O2 O 0.89434(22) 0.22707(18) 0.00307(34)
C1 C 0.72104(28) 0.22799(23) 0.05642(41)
F2_3 F 1.00000 0.00000 0.50000
F1_6 F 1.00000 0.00000 1.00000
O7 O 0.60566(22) 0.27293(18) 0.99693(34)
C2 C 0.77896(28) 0.27201(23) 0.94358(41)
Ho3 Ho 0.50000 0.43351(1) 0.75000
O8 O 0.70536(22) 0.34906(19) 0.80270(32)
F1_7 F 1.00000 1.00000 0.00000
O3 O 0.81682(29) 0.92243(25) 0.05076(44)
H1 H 0.7303 0.91032 0.02957
F2_4 F 1.00000 1.00000 0.50000
F1_8 F 1.00000 1.00000 1.00000
H2 H 0.81162 0.89064 0.95336
Ho2_2 Ho 1.00000 0.93351(1) 0.75000
Ho1_3 Ho 0.50000 0.56649(1) 0.25000
F1_9 F 0.50000 0.50000 0.00000
O1_2 O 0.29464(22) 0.65094(19) 0.19730(32)
O2_2 O 0.39434(22) 0.72707(18) 0.00307(34)
O3_2 O 0.31682(29) 0.42243(25) 0.05076(44)
C1_2 C 0.22104(28) 0.72799(23) 0.05642(41)
H1_2 H 0.2303 0.41032 0.02957
F2_5 F 0.50000 0.50000 0.50000
O4_2 O 0.70536(22) 0.65094(19) 0.30270(32)
O5_2 O 0.60566(22) 0.72707(18) 0.49693(34)
O6_2 O 0.68318(29) 0.42243(25) 0.44924(44)
H3_2 H 0.7697 0.41032 0.47043
H4_2 H 0.68838 0.39064 0.54664
F1_10 F 0.50000 0.50000 1.00000
H2_2 H 0.31162 0.39064 0.95336
O7_2 O 0.10566(22) 0.77293(18) 0.99693(34)
C2_2 C 0.27896(28) 0.77201(23) 0.94358(41)
O8_2 O 0.20536(22) 0.84906(19) 0.80270(32)
C1_3 C 0.27896(28) 0.22799(23) 0.44358(41)
O7_3 O 0.39434(22) 0.27293(18) 0.50307(34)
C2_3 C 0.22104(28) 0.27201(23) 0.55642(41)
O8_3 O 0.29464(22) 0.34906(19) 0.69730(32)
C1_4 C 0.77896(28) 0.72799(23) 0.44358(41)
O7_4 O 0.89434(22) 0.77293(18) 0.50307(34)
C2_4 C 0.72104(28) 0.77201(23) 0.55642(41)
O8_4 O 0.79464(22) 0.84906(19) 0.69730(32)
H2_3 H 0.18838 0.10936 0.04664
O3_3 O 0.18318(29) 0.07757(25) 0.94924(44)
H1_3 H 0.2697 0.08968 0.97043
O6_3 O 0.81682(29) 0.07757(25) 0.55076(44)
H3_3 H 0.7303 0.08968 0.52957
H4_3 H 0.81162 0.10936 0.45336
H2_4 H 0.68838 0.60936 0.04664
O3_4 O 0.68318(29) 0.57757(25) 0.94924(44)
H1_4 H 0.7697 0.58968 0.97043
O6_4 O 0.31682(29) 0.57757(25) 0.55076(44)
H3_4 H 0.2303 0.58968 0.52957
H4_4 H 0.31162 0.60936 0.45336
loop_
_geom_bond_atom_site_label_1
_geom_bond_atom_site_label_2
_geom_bond_site_symmetry_1
_geom_bond_site_symmetry_2
Ho1 F1 1_555 1_555
F2 Ho1 1_555 1_555
O4 Ho1 1_555 1_555
O5 Ho1 1_555 1_555
H3 O6 1_555 1_555
H4 O6 1_555 1_555
F1_4 Ho2 1_555 1_555
Ho1_2 F1_5 1_555 1_555
O1 Ho1_2 1_555 1_555
O2 Ho1_2 1_555 1_555
C1 O1 1_555 1_555
F2_3 Ho1_2 1_555 1_555
Ho3 O7 1_555 1_555
O8 C2 1_555 1_555
Ho3 O8 1_555 1_555
H1 O3 1_555 1_555
F1_8 Ho2_2 1_555 1_555
Ho1_3 F1_9 1_555 1_555
O1_2 Ho1_3 1_555 1_555
O2_2 Ho1_3 1_555 1_555
O3_2 Ho1_3 1_555 1_555
C1_2 O1_2 1_555 1_555
H1_2 O3_2 1_555 1_555
F2_5 Ho1_3 1_555 1_555
O4_2 Ho1_3 1_555 1_555
O5_2 Ho1_3 1_555 1_555
O6_2 Ho1_3 1_555 1_555
H3_2 O6_2 1_555 1_555
H4_2 O6_2 1_555 1_555
F1_10 Ho3 1_555 1_555
Ho2 O7_2 1_555 1_555
O8_2 C2_2 1_555 1_555
Ho2 O8_2 1_555 1_555
C1_3 O4 1_555 1_555
O7_3 C1_3 1_555 1_555
C2_3 O5 1_555 1_555
Ho3 O7_3 1_555 1_555
O8_3 C2_3 1_555 1_555
C1_3 C2_3 1_555 1_555
Ho3 O8_3 1_555 1_555
F2_2 Ho2 1_555 1_555
F2_4 Ho2_2 1_555 1_555
F2_5 Ho3 1_555 1_555
C1_4 O4_2 1_555 1_555
O7_4 C1_4 1_555 1_555
C2_4 O5_2 1_555 1_555
Ho2_2 O7_4 1_555 1_555
O8_4 C2_4 1_555 1_555
C1_4 C2_4 1_555 1_555
Ho2_2 O8_4 1_555 1_555
H1_3 O3_3 1_555 1_555
H3_3 O6_3 1_555 1_555
H4_3 O6_3 1_555 1_555
O3_4 Ho3 1_555 1_555
H1_4 O3_4 1_555 1_555
O6_4 Ho3 1_555 1_555
H3_4 O6_4 1_555 1_555
H4_4 O6_4 1_555 1_555

#END
