
###############################################################################
#
# This file contains modified crystal structure data generated from the
# MOF subset of the Cambridge Structural Database (CSD) v543 
# hosted by the Cambridge Crystallographic Data Centre (CCDC).
#
# This work is licensed under the Creative Commons
# Attribution-NonCommercial-ShareAlike 4.0 International License.
# To view a copy of this license, visit
# http://creativecommons.org/licenses/by-nc-sa/4.0/
# or send a letter to
# Creative Commons, PO Box 1866, Mountain View, CA 94042, USA.
#
# CIF created using the CSD Python API on 29 September 2022
# The structure has been converted into the P1 space group
# The structure has a 3D framework
# The original CSD entry FIVSAH is in the triclinic crystal system
# The framework has been calculated to contain at least 10.0% void space
# The void calculation uses a probe of radius 1.32A, grid spacing 0.4
# The framework is charged, counterions have been retained in the structure
#
###############################################################################

data_FIVSAH
_chemical_formula_moiety         '(C70 H38 Cd3 N8 O18 2-)n'
_symmetry_cell_setting           triclinic
_symmetry_space_group_name_H-M   'P 1'
_symmetry_Int_Tables_number      1
_space_group_name_Hall           'P 1'
loop_
_symmetry_equiv_pos_site_id
_symmetry_equiv_pos_as_xyz
1 x,y,z
_cell_length_a                   10.6211(6)
_cell_length_b                   13.3279(7)
_cell_length_c                   17.1934(8)
_cell_angle_alpha                73.796(3)
_cell_angle_beta                 84.894(3)
_cell_angle_gamma                71.376(3)
_cell_volume                     2214.77
loop_
_atom_site_label
_atom_site_type_symbol
_atom_site_fract_x
_atom_site_fract_y
_atom_site_fract_z
_atom_site_U_iso_or_equiv
_atom_site_thermal_displace_type
Cd1 Cd 0.35044(6) 0.05034(5) 0.24753(3) 0.0366 Uani
N3 N 0.4199(7) 0.1494(5) 0.1359(4) 0.0418 Uani
N4 N 0.4717(7) 0.2894(6) 0.0559(4) 0.0415 Uani
C30 C 0.4147(8) 0.2520(6) 0.1268(5) 0.0389 Uani
H15 H 0.376430 0.293608 0.164532 0.0460 Uiso
C31 C 0.4862(8) 0.3976(6) 0.0266(5) 0.0383 Uani
C32 C 0.3848(9) 0.4872(7) 0.0405(5) 0.0442 Uani
H16 H 0.305998 0.477816 0.067924 0.0530 Uiso
C34 C 0.5132(10) 0.2066(7) 0.0187(6) 0.0534 Uani
C35 C 0.4820(10) 0.1197(8) 0.0692(5) 0.0533 Uani
H19 H 0.500306 0.049581 0.059578 0.0630 Uiso
C45 C 0.4009(8) 0.5888(7) 0.0140(5) 0.0438 Uani
H27 H 0.333231 0.650645 0.023717 0.0520 Uiso
H28 H 0.444294 0.790742 0.032509 0.0640 Uiso
O21 O 0.2028(6) 0.2032(4) 0.2712(3) 0.0446 Uani
O24 O 0.5393(6) 0.0221(5) 0.3210(3) 0.0445 Uani
C33 C 0.5991(8) 0.4112(7) 0.9860(5) 0.0438 Uani
H17 H 0.666769 0.349355 0.976283 0.0520 Uiso
H18 H 0.555706 0.209258 0.967491 0.0640 Uiso
N7 N 0.5801(7) 0.8506(5) 0.8641(4) 0.0418 Uani
N8 N 0.5283(7) 0.7106(6) 0.9441(4) 0.0415 Uani
C42 C 0.5853(8) 0.7480(6) 0.8732(5) 0.0389 Uani
H25 H 0.623570 0.706392 0.835468 0.0460 Uiso
C43 C 0.5138(8) 0.6024(6) 0.9734(5) 0.0383 Uani
C44 C 0.6152(9) 0.5128(7) 0.9595(5) 0.0442 Uani
H26 H 0.694002 0.522184 0.932076 0.0530 Uiso
C46 C 0.4868(10) 0.7934(7) 0.9813(6) 0.0534 Uani
C47 C 0.5180(10) 0.8803(8) 0.9308(5) 0.0533 Uani
H29 H 0.499694 0.950419 0.940422 0.0630 Uiso
Cd9 Cd 0.64956(6) 0.94966(5) 0.75247(3) 0.0366 Uani
O1 O 0.1998(6) 0.9781(4) 0.2170(4) 0.0441 Uani
O2 O 0.4073(6) 0.8796(5) 0.2025(4) 0.0521 Uani
O4 O 0.0577(5) 0.3108(5) 0.3357(3) 0.0452 Uani
O6 O 0.6000(6) 0.0670(5) 0.6221(3) 0.0457 Uani
O7 O 0.7635(5) 0.4278(4) 0.2159(4) 0.0452 Uani
O8 O 0.8079(5) 0.2484(5) 0.2613(4) 0.0488 Uani
O9 O 0.1456(5) 0.4649(4) 0.1660(3) 0.0375 Uani
N1 N 0.0217(6) 0.3024(5) 0.1047(4) 0.0371 Uani
N2 N 0.0406(7) 0.1777(6) 0.0397(4) 0.0391 Uani
C1 C 0.2861(9) 0.8925(7) 0.2060(4) 0.0375 Uani
C2 C 0.2344(8) 0.7999(6) 0.2003(4) 0.0348 Uani
C3 C 0.3176(8) 0.6913(6) 0.2229(4) 0.0348 Uani
H1 H 0.407250 0.676626 0.237336 0.0420 Uiso
C4 C 0.2703(8) 0.6042(6) 0.2244(4) 0.0331 Uani
C5 C 0.1387(7) 0.6285(6) 0.1995(4) 0.0288 Uani
C6 C 0.0785(8) 0.5419(6) 0.1959(5) 0.0354 Uani
C7 C 0.1663(8) 0.2378(6) 0.3333(5) 0.0367 Uani
C8 C 0.2515(8) 0.1939(6) 0.4065(5) 0.0346 Uani
C9 C 0.3658(8) 0.2224(6) 0.4129(5) 0.0336 Uani
C10 C 0.4401(7) 0.1742(6) 0.4825(4) 0.0330 Uani
H2 H 0.515477 0.195760 0.487413 0.0400 Uiso
C11 C 0.4092(7) 0.0956(5) 0.5455(4) 0.0307 Uani
C12 C 0.4945(8) 0.0434(6) 0.6207(5) 0.0372 Uani
C13 C 0.2968(8) 0.0648(7) 0.5412(5) 0.0369 Uani
H3 H 0.274341 0.011145 0.584449 0.0440 Uiso
C14 C 0.2183(8) 0.1148(6) 0.4719(5) 0.0366 Uani
H4 H 0.140666 0.095424 0.468410 0.0440 Uiso
C15 C 0.4070(7) 0.3065(6) 0.3460(5) 0.0350 Uani
C16 C 0.5404(7) 0.2831(6) 0.3219(5) 0.0334 Uani
H5 H 0.601468 0.212503 0.343638 0.0400 Uiso
C17 C 0.5835(7) 0.3639(6) 0.2656(4) 0.0327 Uani
C18 C 0.7279(8) 0.3436(7) 0.2453(5) 0.0375 Uani
C19 C 0.4945(7) 0.4647(6) 0.2338(5) 0.0312 Uani
H6 H 0.524231 0.519208 0.195591 0.0370 Uiso
C20 C 0.3611(7) 0.4892(6) 0.2561(4) 0.0312 Uani
C21 C 0.3174(7) 0.4107(6) 0.3126(4) 0.0303 Uani
H7 H 0.226813 0.427232 0.328768 0.0370 Uiso
C23 C 0.0212(8) 0.0858(6) 0.0195(4) 0.0360 Uani
C27 C 0.1053(8) 0.3158(7) 0.0402(5) 0.0435 Uani
H12 H 0.148327 0.370856 0.026591 0.0530 Uiso
C28 C 0.0571(8) 0.7377(6) 0.1782(5) 0.0389 Uani
C29 C 0.1038(8) 0.8247(7) 0.1786(5) 0.0402 Uani
H14 H 0.047226 0.898483 0.164304 0.0480 Uiso
Cd10 Cd 0.98361(6) 0.37435(5) 0.20795(3) 0.0331 Uani
O26 O 0.4000(6) 0.9330(5) 0.3779(3) 0.0457 Uani
O5 O 0.4607(6) 0.9779(5) 0.6790(3) 0.0445 Uani
C36 C 0.0157(8) 0.7812(7) 0.8973(5) 0.0388 Uani
H20 H 0.074795 0.809509 0.859393 0.0460 Uiso
C39 C 0.1001(8) 0.9331(7) 0.9634(5) 0.0378 Uani
H22 H 0.168903 0.886163 0.938860 0.0460 Uiso
Cd4 Cd 0.01639(6) 0.62565(5) 0.79205(3) 0.0331 Uani
O20 O 0.0377(5) 0.4476(5) 0.7799(4) 0.0456 Uani
H37 H 0.032426 0.246749 0.836879 0.0460 Uiso
O28 O 0.2365(5) 0.5722(4) 0.7841(4) 0.0452 Uani
O10 O 0.9623(5) 0.5524(5) 0.2201(4) 0.0456 Uani
C22 C 0.9843(8) 0.2188(7) 0.1027(5) 0.0388 Uani
H8 H 0.925205 0.190491 0.140607 0.0460 Uiso
C25 C 0.8999(8) 0.0669(7) 0.0366(5) 0.0378 Uani
H10 H 0.831097 0.113837 0.061140 0.0460 Uiso
H13 H 0.967574 0.753251 0.163121 0.0460 Uiso
N5 N 0.9783(6) 0.6976(5) 0.8953(4) 0.0371 Uani
N6 N 0.9594(7) 0.8223(6) 0.9603(4) 0.0391 Uani
C37 C 0.9788(8) 0.9142(6) 0.9805(4) 0.0360 Uani
C41 C 0.8947(8) 0.6842(7) 0.9598(5) 0.0435 Uani
H24 H 0.851673 0.629144 0.973409 0.0530 Uiso
O11 O 0.8002(6) 0.0219(4) 0.7830(4) 0.0441 Uani
O12 O 0.5927(6) 0.1204(5) 0.7975(4) 0.0521 Uani
O13 O 0.7972(6) 0.7968(4) 0.7288(3) 0.0446 Uani
O14 O 0.9423(5) 0.6892(5) 0.6643(3) 0.0452 Uani
O18 O 0.1921(5) 0.7516(5) 0.7387(4) 0.0488 Uani
O19 O 0.8544(5) 0.5351(4) 0.8340(3) 0.0375 Uani
C48 C 0.7139(9) 0.1075(7) 0.7940(4) 0.0375 Uani
C49 C 0.7656(8) 0.2001(6) 0.7997(4) 0.0348 Uani
C50 C 0.6824(8) 0.3087(6) 0.7771(4) 0.0348 Uani
H30 H 0.592750 0.323374 0.762664 0.0420 Uiso
C51 C 0.7297(8) 0.3958(6) 0.7756(4) 0.0331 Uani
C52 C 0.8613(7) 0.3715(6) 0.8005(4) 0.0288 Uani
C53 C 0.9215(8) 0.4581(6) 0.8041(5) 0.0354 Uani
C54 C 0.8337(8) 0.7622(6) 0.6667(5) 0.0367 Uani
C55 C 0.7485(8) 0.8061(6) 0.5935(5) 0.0346 Uani
C56 C 0.6342(8) 0.7776(6) 0.5871(5) 0.0336 Uani
C57 C 0.5599(7) 0.8258(6) 0.5175(4) 0.0330 Uani
H31 H 0.484523 0.804240 0.512587 0.0400 Uiso
C58 C 0.5908(7) 0.9044(5) 0.4545(4) 0.0307 Uani
C59 C 0.5055(8) 0.9566(6) 0.3793(5) 0.0372 Uani
C60 C 0.7032(8) 0.9352(7) 0.4588(5) 0.0369 Uani
H32 H 0.725659 0.988855 0.415551 0.0440 Uiso
C61 C 0.7817(8) 0.8852(6) 0.5281(5) 0.0366 Uani
H33 H 0.859334 0.904576 0.531590 0.0440 Uiso
C62 C 0.5930(7) 0.6935(6) 0.6540(5) 0.0350 Uani
C63 C 0.4596(7) 0.7169(6) 0.6781(5) 0.0334 Uani
H34 H 0.398532 0.787497 0.656362 0.0400 Uiso
C64 C 0.4165(7) 0.6361(6) 0.7344(4) 0.0327 Uani
C65 C 0.2721(8) 0.6564(7) 0.7547(5) 0.0375 Uani
C66 C 0.5055(7) 0.5353(6) 0.7662(5) 0.0312 Uani
H35 H 0.475769 0.480792 0.804409 0.0370 Uiso
C67 C 0.6389(7) 0.5108(6) 0.7439(4) 0.0312 Uani
C68 C 0.6826(7) 0.5893(6) 0.6874(4) 0.0303 Uani
H36 H 0.773187 0.572768 0.671232 0.0370 Uiso
C69 C 0.9429(8) 0.2623(6) 0.8218(5) 0.0389 Uani
C70 C 0.8962(8) 0.1753(7) 0.8214(5) 0.0402 Uani
H38 H 0.952774 0.101517 0.835696 0.0480 Uiso
C24 C 0.1204(8) 0.0208(6) 0.9823(4) 0.0352 Uani
H9 H 0.202460 0.035932 0.969707 0.0420 Uiso
C26 C 0.1191(9) 0.2421(7) 0.9986(5) 0.0452 Uani
H11 H 0.170987 0.235070 0.951318 0.0550 Uiso
C38 C 0.8796(8) 0.9792(6) 0.0177(4) 0.0352 Uani
H21 H 0.797540 0.964068 0.030293 0.0420 Uiso
C40 C 0.8809(9) 0.7579(7) 0.0014(5) 0.0452 Uani
H23 H 0.829013 0.764930 0.048682 0.0550 Uiso
loop_
_atom_site_aniso_label
_atom_site_aniso_U_11
_atom_site_aniso_U_22
_atom_site_aniso_U_33
_atom_site_aniso_U_23
_atom_site_aniso_U_13
_atom_site_aniso_U_12
Cd1 0.0436 0.0288 0.0386 -0.0023 -0.0048 -0.0173
N3 0.056 0.035 0.037 -0.001 -0.003 -0.024
N4 0.046 0.038 0.04 -0.001 -0.001 -0.02
C30 0.044 0.035 0.034 -0.001 -0.009 -0.012
C31 0.044 0.029 0.033 0.011 -0.006 -0.014
C32 0.04 0.032 0.05 0.006 -0.001 -0.011
C34 0.064 0.041 0.049 -0.009 0.017 -0.015
C35 0.07 0.051 0.04 -0.012 0.007 -0.022
C45 0.034 0.044 0.048 -0.006 0.007 -0.012
O21 0.051 0.034 0.044 -0.004 -0.008 -0.01
O24 0.045 0.039 0.045 0.005 -0.007 -0.019
C33 0.034 0.044 0.048 -0.006 0.007 -0.012
N7 0.056 0.035 0.037 -0.001 -0.003 -0.024
N8 0.046 0.038 0.04 -0.001 -0.001 -0.02
C42 0.044 0.035 0.034 -0.001 -0.009 -0.012
C43 0.044 0.029 0.033 0.011 -0.006 -0.014
C44 0.04 0.032 0.05 0.006 -0.001 -0.011
C46 0.064 0.041 0.049 -0.009 0.017 -0.015
C47 0.07 0.051 0.04 -0.012 0.007 -0.022
Cd9 0.0436 0.0288 0.0386 -0.0023 -0.0048 -0.0173
O1 0.047 0.026 0.063 -0.016 -0.003 -0.012
O2 0.039 0.041 0.082 -0.015 0.007 -0.023
O4 0.032 0.047 0.05 -0.006 -0.005 -0.008
O6 0.046 0.043 0.046 0 -0.011 -0.018
O7 0.027 0.035 0.073 -0.004 -0.003 -0.017
O8 0.03 0.033 0.069 0.008 -0.007 -0.007
O9 0.039 0.03 0.047 -0.01 0.002 -0.016
N1 0.031 0.045 0.042 -0.018 -0.005 -0.014
N2 0.037 0.041 0.04 -0.011 -0.006 -0.011
C1 0.05 0.035 0.03 -0.002 -0.001 -0.022
C2 0.038 0.036 0.032 -0.001 0.002 -0.021
C3 0.039 0.029 0.035 0.001 -0.01 -0.014
C4 0.041 0.023 0.034 -0.002 0 -0.013
C5 0.029 0.03 0.027 -0.003 -0.005 -0.011
C6 0.031 0.028 0.048 -0.007 -0.007 -0.011
C7 0.027 0.024 0.054 0.006 -0.007 -0.013
C8 0.035 0.022 0.038 -0.002 -0.008 0
C9 0.037 0.025 0.039 -0.01 0.002 -0.009
C10 0.028 0.031 0.041 -0.012 0.003 -0.009
C11 0.032 0.014 0.038 -0.004 0.001 0.001
C12 0.047 0.024 0.04 -0.01 -0.003 -0.008
C13 0.033 0.037 0.038 -0.009 0.004 -0.009
C14 0.037 0.026 0.043 -0.001 -0.002 -0.011
C15 0.031 0.036 0.041 -0.007 -0.008 -0.015
C16 0.027 0.024 0.047 -0.004 -0.006 -0.008
C17 0.028 0.028 0.038 -0.002 -0.003 -0.008
C18 0.033 0.04 0.042 -0.007 -0.003 -0.017
C19 0.026 0.021 0.046 -0.003 -0.005 -0.01
C20 0.032 0.027 0.038 -0.011 -0.002 -0.011
C21 0.027 0.023 0.038 -0.003 -0.004 -0.007
C23 0.047 0.034 0.027 -0.007 -0.009 -0.011
C27 0.039 0.053 0.05 -0.017 0 -0.027
C28 0.037 0.035 0.042 -0.004 -0.011 -0.01
C29 0.038 0.037 0.043 -0.003 -0.003 -0.014
Cd10 0.0294 0.0311 0.0424 -0.0122 -0.0025 -0.0115
O26 0.046 0.043 0.046 0 -0.011 -0.018
O5 0.045 0.039 0.045 0.005 -0.007 -0.019
C36 0.034 0.043 0.041 -0.016 0.005 -0.011
C39 0.037 0.042 0.041 -0.017 0.004 -0.017
Cd4 0.0294 0.0311 0.0424 -0.0122 -0.0025 -0.0115
O20 0.028 0.044 0.072 -0.023 0.003 -0.015
O28 0.027 0.035 0.073 -0.004 -0.003 -0.017
O10 0.028 0.044 0.072 -0.023 0.003 -0.015
C22 0.034 0.043 0.041 -0.016 0.005 -0.011
C25 0.037 0.042 0.041 -0.017 0.004 -0.017
N5 0.031 0.045 0.042 -0.018 -0.005 -0.014
N6 0.037 0.041 0.04 -0.011 -0.006 -0.011
C37 0.047 0.034 0.027 -0.007 -0.009 -0.011
C41 0.039 0.053 0.05 -0.017 0 -0.027
O11 0.047 0.026 0.063 -0.016 -0.003 -0.012
O12 0.039 0.041 0.082 -0.015 0.007 -0.023
O13 0.051 0.034 0.044 -0.004 -0.008 -0.01
O14 0.032 0.047 0.05 -0.006 -0.005 -0.008
O18 0.03 0.033 0.069 0.008 -0.007 -0.007
O19 0.039 0.03 0.047 -0.01 0.002 -0.016
C48 0.05 0.035 0.03 -0.002 -0.001 -0.022
C49 0.038 0.036 0.032 -0.001 0.002 -0.021
C50 0.039 0.029 0.035 0.001 -0.01 -0.014
C51 0.041 0.023 0.034 -0.002 0 -0.013
C52 0.029 0.03 0.027 -0.003 -0.005 -0.011
C53 0.031 0.028 0.048 -0.007 -0.007 -0.011
C54 0.027 0.024 0.054 0.006 -0.007 -0.013
C55 0.035 0.022 0.038 -0.002 -0.008 0
C56 0.037 0.025 0.039 -0.01 0.002 -0.009
C57 0.028 0.031 0.041 -0.012 0.003 -0.009
C58 0.032 0.014 0.038 -0.004 0.001 0.001
C59 0.047 0.024 0.04 -0.01 -0.003 -0.008
C60 0.033 0.037 0.038 -0.009 0.004 -0.009
C61 0.037 0.026 0.043 -0.001 -0.002 -0.011
C62 0.031 0.036 0.041 -0.007 -0.008 -0.015
C63 0.027 0.024 0.047 -0.004 -0.006 -0.008
C64 0.028 0.028 0.038 -0.002 -0.003 -0.008
C65 0.033 0.04 0.042 -0.007 -0.003 -0.017
C66 0.026 0.021 0.046 -0.003 -0.005 -0.01
C67 0.032 0.027 0.038 -0.011 -0.002 -0.011
C68 0.027 0.023 0.038 -0.003 -0.004 -0.007
C69 0.037 0.035 0.042 -0.004 -0.011 -0.01
C70 0.038 0.037 0.043 -0.003 -0.003 -0.014
C24 0.031 0.043 0.034 -0.011 -0.003 -0.013
C26 0.049 0.052 0.041 -0.008 -0.003 -0.027
C38 0.031 0.043 0.034 -0.011 -0.003 -0.013
C40 0.049 0.052 0.041 -0.008 -0.003 -0.027
loop_
_geom_bond_atom_site_label_1
_geom_bond_atom_site_label_2
_geom_bond_site_symmetry_1
_geom_bond_site_symmetry_2
N3 Cd1 1_555 1_555
N4 C30 1_555 1_555
C30 N3 1_555 1_555
H15 C30 1_555 1_555
C31 N4 1_555 1_555
C32 C31 1_555 1_555
H16 C32 1_555 1_555
C34 N4 1_555 1_555
C35 N3 1_555 1_555
H19 C35 1_555 1_555
C45 C32 1_555 1_555
H27 C45 1_555 1_555
O21 Cd1 1_555 1_555
O24 Cd1 1_555 1_555
C34 C35 1_555 1_555
H17 C33 1_555 1_555
N7 C42 1_555 1_555
N8 C42 1_555 1_555
C42 H25 1_555 1_555
C43 N8 1_555 1_555
C44 C33 1_555 1_555
H26 C44 1_555 1_555
C46 N8 1_555 1_555
C47 N7 1_555 1_555
H29 C47 1_555 1_555
Cd9 N7 1_555 1_555
C43 C44 1_555 1_555
C46 C47 1_555 1_555
O1 C1 1_555 1_555
O21 C7 1_555 1_555
O6 C12 1_555 1_555
O7 C18 1_555 1_555
O8 C18 1_555 1_555
C1 O2 1_555 1_555
C2 C1 1_555 1_555
C3 C2 1_555 1_555
H1 C3 1_555 1_555
C4 C3 1_555 1_555
C5 C4 1_555 1_555
C6 O9 1_555 1_555
C7 O4 1_555 1_555
C8 C7 1_555 1_555
C9 C8 1_555 1_555
C10 C9 1_555 1_555
H2 C10 1_555 1_555
C11 C10 1_555 1_555
C12 C11 1_555 1_555
C13 C11 1_555 1_555
H3 C13 1_555 1_555
C14 C8 1_555 1_555
H4 C14 1_555 1_555
C15 C9 1_555 1_555
C16 C15 1_555 1_555
H5 C16 1_555 1_555
C17 C16 1_555 1_555
C18 C17 1_555 1_555
C19 C17 1_555 1_555
H6 C19 1_555 1_555
C20 C4 1_555 1_555
C21 C15 1_555 1_555
H7 C21 1_555 1_555
C23 N2 1_555 1_555
C27 N1 1_555 1_555
H12 C27 1_555 1_555
C28 C5 1_555 1_555
C29 C2 1_555 1_555
H14 C29 1_555 1_555
Cd10 O7 1_555 1_555
C5 C6 1_555 1_555
C13 C14 1_555 1_555
C19 C20 1_555 1_555
C20 C21 1_555 1_555
C28 C29 1_555 1_555
Cd9 O5 1_555 1_555
C36 H20 1_555 1_555
H22 C39 1_555 1_555
O20 Cd4 1_555 1_555
O28 Cd4 1_555 1_555
O10 Cd10 1_555 1_555
H8 C22 1_555 1_555
H10 C25 1_555 1_555
C37 N6 1_555 1_555
C41 N5 1_555 1_555
H24 C41 1_555 1_555
O11 C48 1_555 1_555
O26 C59 1_555 1_555
O28 C65 1_555 1_555
O18 C65 1_555 1_555
C48 O12 1_555 1_555
C49 C48 1_555 1_555
C50 C49 1_555 1_555
H30 C50 1_555 1_555
C51 C50 1_555 1_555
C52 C51 1_555 1_555
C53 O19 1_555 1_555
C54 O13 1_555 1_555
C55 C54 1_555 1_555
C56 C55 1_555 1_555
C57 C56 1_555 1_555
H31 C57 1_555 1_555
C58 C57 1_555 1_555
C59 C58 1_555 1_555
C60 C58 1_555 1_555
H32 C60 1_555 1_555
C61 C55 1_555 1_555
H33 C61 1_555 1_555
C62 C56 1_555 1_555
C63 C62 1_555 1_555
H34 C63 1_555 1_555
C64 C63 1_555 1_555
C65 C64 1_555 1_555
C66 C64 1_555 1_555
H35 C66 1_555 1_555
C67 C51 1_555 1_555
C68 C62 1_555 1_555
H36 C68 1_555 1_555
C69 C52 1_555 1_555
C70 C49 1_555 1_555
H38 C70 1_555 1_555
Cd9 O13 1_555 1_555
O14 C54 1_555 1_555
C52 C53 1_555 1_555
C60 C61 1_555 1_555
C66 C67 1_555 1_555
C67 C68 1_555 1_555
C69 C70 1_555 1_555
H9 C24 1_555 1_555
H11 C26 1_555 1_555
H21 C38 1_555 1_555
H23 C40 1_555 1_555

#END
