
###############################################################################
#
# This file contains modified crystal structure data generated from the
# MOF subset of the Cambridge Structural Database (CSD) v543 
# hosted by the Cambridge Crystallographic Data Centre (CCDC).
#
# This work is licensed under the Creative Commons
# Attribution-NonCommercial-ShareAlike 4.0 International License.
# To view a copy of this license, visit
# http://creativecommons.org/licenses/by-nc-sa/4.0/
# or send a letter to
# Creative Commons, PO Box 1866, Mountain View, CA 94042, USA.
#
# CIF created using the CSD Python API on 29 September 2022
# The structure has been converted into the P1 space group
# The structure has a 3D framework
# The original CSD entry FIVTUC is in the cubic crystal system
# The framework has been calculated to contain at least 10.0% void space
# The void calculation uses a probe of radius 1.32A, grid spacing 0.4
# The framework is charged, counterions have been retained in the structure
#
###############################################################################

data_FIVTUC
_chemical_formula_moiety         '(C448 H336 Gd24 N64 O276 8-)n'
_symmetry_cell_setting           triclinic
_symmetry_space_group_name_H-M   'P 1'
_symmetry_Int_Tables_number      1
_space_group_name_Hall           'P 1'
loop_
_symmetry_equiv_pos_site_id
_symmetry_equiv_pos_as_xyz
1 x,y,z
_cell_length_a                   24.9640(3)
_cell_length_b                   24.9640(3)
_cell_length_c                   24.9640(3)
_cell_angle_alpha                90
_cell_angle_beta                 90
_cell_angle_gamma                90
_cell_volume                     15557.6
loop_
_atom_site_label
_atom_site_type_symbol
_atom_site_fract_x
_atom_site_fract_y
_atom_site_fract_z
C1 C 0.3759(3) 0.0604(3) 0.8660(4)
H1 H 0.3535 0.0836 0.8437
H2 H 0.4015 0.0412 0.8433
H3 H 0.3533 0.0346 0.8850
N1 N 0.4060(3) 0.0940(3) 0.9060(3)
C2 C 0.4404(4) 0.0596(4) 0.9404(4)
H4 H 0.4180 0.0338 0.9597
H5 H 0.4662 0.0403 0.9180
H6 H 0.4597 0.0820 0.9662
C3 C 0.3660(4) 0.1241(3) 0.9396(3)
H7 H 0.3437 0.1465 0.9164
H8 H 0.3433 0.0985 0.9588
H9 H 0.3850 0.1467 0.9654
C4 C 0.4396(3) 0.1340(4) 0.8759(3)
H10 H 0.4164 0.1563 0.8535
H11 H 0.4588 0.1567 0.9015
H12 H 0.4654 0.1150 0.8533
C1_2 C 0.1241(3) 0.9396(3) 0.3660(4)
H1_2 H 0.1465 0.9164 0.3437
H2_2 H 0.0985 0.9588 0.3433
H3_2 H 0.1467 0.9654 0.3850
N1_2 N 0.0940(3) 0.9060(3) 0.4060(3)
C2_2 C 0.0596(4) 0.9404(4) 0.4404(4)
H4_2 H 0.0820 0.9662 0.4597
H5_2 H 0.0338 0.9597 0.4180
H6_2 H 0.0403 0.9180 0.4662
C3_2 C 0.1340(4) 0.8759(3) 0.4396(3)
H7_2 H 0.1563 0.8535 0.4164
H8_2 H 0.1567 0.9015 0.4588
H9_2 H 0.1150 0.8533 0.4654
C4_2 C 0.0604(3) 0.8660(4) 0.3759(3)
H10_2 H 0.0836 0.8437 0.3535
H11_2 H 0.0412 0.8433 0.4015
H12_2 H 0.0346 0.8850 0.3533
C1_3 C 0.6241(3) 0.5604(3) 0.6340(4)
H1_3 H 0.6465 0.5836 0.6563
H2_3 H 0.5985 0.5412 0.6567
H3_3 H 0.6467 0.5346 0.6150
N1_3 N 0.5940(3) 0.5940(3) 0.5940(3)
C2_3 C 0.5596(4) 0.5596(4) 0.5596(4)
H4_3 H 0.5820 0.5338 0.5403
H5_3 H 0.5338 0.5403 0.5820
H6_3 H 0.5403 0.5820 0.5338
C3_3 C 0.6340(4) 0.6241(3) 0.5604(3)
H7_3 H 0.6563 0.6465 0.5836
H8_3 H 0.6567 0.5985 0.5412
H9_3 H 0.6150 0.6467 0.5346
C4_3 C 0.5604(3) 0.6340(4) 0.6241(3)
H10_3 H 0.5836 0.6563 0.6465
H11_3 H 0.5412 0.6567 0.5985
H12_3 H 0.5346 0.6150 0.6467
C1_4 C 0.8759(3) 0.4396(3) 0.1340(4)
H1_4 H 0.8535 0.4164 0.1563
H2_4 H 0.9015 0.4588 0.1567
H3_4 H 0.8533 0.4654 0.1150
N1_4 N 0.9060(3) 0.4060(3) 0.0940(3)
C2_4 C 0.9404(4) 0.4404(4) 0.0596(4)
H4_4 H 0.9180 0.4662 0.0403
H5_4 H 0.9662 0.4597 0.0820
H6_4 H 0.9597 0.4180 0.0338
C3_4 C 0.8660(4) 0.3759(3) 0.0604(3)
H7_4 H 0.8437 0.3535 0.0836
H8_4 H 0.8433 0.4015 0.0412
H9_4 H 0.8850 0.3533 0.0346
C4_4 C 0.9396(3) 0.3660(4) 0.1241(3)
H10_4 H 0.9164 0.3437 0.1465
H11_4 H 0.9588 0.3433 0.0985
H12_4 H 0.9654 0.3850 0.1467
C1_5 C 0.3104(3) 0.6259(3) 0.1160(4)
H1_5 H 0.3336 0.6035 0.0937
H2_5 H 0.2912 0.6515 0.0933
H3_5 H 0.2846 0.6033 0.1350
N1_5 N 0.3440(3) 0.6560(3) 0.1560(3)
C2_5 C 0.3096(4) 0.6904(4) 0.1904(4)
H4_5 H 0.2838 0.6680 0.2097
H5_5 H 0.2903 0.7162 0.1680
H6_5 H 0.3320 0.7097 0.2162
C3_5 C 0.3741(3) 0.6160(4) 0.1896(3)
H7_5 H 0.3965 0.5937 0.1664
H8_5 H 0.3485 0.5933 0.2088
H9_5 H 0.3967 0.6350 0.2154
C4_5 C 0.3840(4) 0.6896(3) 0.1259(3)
H10_5 H 0.4063 0.6664 0.1035
H11_5 H 0.4067 0.7088 0.1515
H12_5 H 0.3650 0.7154 0.1033
C1_6 C 0.1896(3) 0.3741(3) 0.6160(4)
H1_6 H 0.1664 0.3965 0.5937
H2_6 H 0.2088 0.3485 0.5933
H3_6 H 0.2154 0.3967 0.6350
N1_6 N 0.1560(3) 0.3440(3) 0.6560(3)
C2_6 C 0.1904(4) 0.3096(4) 0.6904(4)
H4_6 H 0.2162 0.3320 0.7097
H5_6 H 0.2097 0.2838 0.6680
H6_6 H 0.1680 0.2903 0.7162
C3_6 C 0.1259(3) 0.3840(4) 0.6896(3)
H7_6 H 0.1035 0.4063 0.6664
H8_6 H 0.1515 0.4067 0.7088
H9_6 H 0.1033 0.3650 0.7154
C4_6 C 0.1160(4) 0.3104(3) 0.6259(3)
H10_6 H 0.0937 0.3336 0.6035
H11_6 H 0.0933 0.2912 0.6515
H12_6 H 0.1350 0.2846 0.6033
C1_7 C 0.8104(3) 0.8741(3) 0.8840(4)
H1_7 H 0.8336 0.8965 0.9063
H2_7 H 0.7912 0.8485 0.9067
H3_7 H 0.7846 0.8967 0.8650
N1_7 N 0.8440(3) 0.8440(3) 0.8440(3)
C2_7 C 0.8096(4) 0.8096(4) 0.8096(4)
H4_7 H 0.7838 0.8320 0.7903
H5_7 H 0.7903 0.7838 0.8320
H6_7 H 0.8320 0.7903 0.7838
C3_7 C 0.8741(3) 0.8840(4) 0.8104(3)
H7_7 H 0.8965 0.9063 0.8336
H8_7 H 0.8485 0.9067 0.7912
H9_7 H 0.8967 0.8650 0.7846
C4_7 C 0.8840(4) 0.8104(3) 0.8741(3)
H10_7 H 0.9063 0.8336 0.8965
H11_7 H 0.9067 0.7912 0.8485
H12_7 H 0.8650 0.7846 0.8967
C1_8 C 0.6896(3) 0.1259(3) 0.3840(4)
H1_8 H 0.6664 0.1035 0.4063
H2_8 H 0.7088 0.1515 0.4067
H3_8 H 0.7154 0.1033 0.3650
N1_8 N 0.6560(3) 0.1560(3) 0.3440(3)
C2_8 C 0.6904(4) 0.1904(4) 0.3096(4)
H4_8 H 0.7162 0.1680 0.2903
H5_8 H 0.7097 0.2162 0.3320
H6_8 H 0.6680 0.2097 0.2838
C3_8 C 0.6259(3) 0.1160(4) 0.3104(3)
H7_8 H 0.6035 0.0937 0.3336
H8_8 H 0.6515 0.0933 0.2912
H9_8 H 0.6033 0.1350 0.2846
C4_8 C 0.6160(4) 0.1896(3) 0.3741(3)
H10_8 H 0.5937 0.1664 0.3965
H11_8 H 0.5933 0.2088 0.3485
H12_8 H 0.6350 0.2154 0.3967
C1_9 C 0.8759(3) 0.5604(3) 0.3660(4)
H1_9 H 0.8535 0.5836 0.3437
H2_9 H 0.9015 0.5412 0.3433
H3_9 H 0.8533 0.5346 0.3850
N1_9 N 0.9060(3) 0.5940(3) 0.4060(3)
C2_9 C 0.9404(4) 0.5596(4) 0.4404(4)
H4_9 H 0.9180 0.5338 0.4597
H5_9 H 0.9662 0.5403 0.4180
H6_9 H 0.9597 0.5820 0.4662
C3_9 C 0.8660(4) 0.6241(3) 0.4396(3)
H7_9 H 0.8437 0.6465 0.4164
H8_9 H 0.8433 0.5985 0.4588
H9_9 H 0.8850 0.6467 0.4654
C4_9 C 0.9396(3) 0.6340(4) 0.3759(3)
H10_9 H 0.9164 0.6563 0.3535
H11_9 H 0.9588 0.6567 0.4015
H12_9 H 0.9654 0.6150 0.3533
C1_10 C 0.6241(3) 0.4396(3) 0.8660(4)
H1_10 H 0.6465 0.4164 0.8437
H2_10 H 0.5985 0.4588 0.8433
H3_10 H 0.6467 0.4654 0.8850
N1_10 N 0.5940(3) 0.4060(3) 0.9060(3)
C2_10 C 0.5596(4) 0.4404(4) 0.9404(4)
H4_10 H 0.5820 0.4662 0.9597
H5_10 H 0.5338 0.4597 0.9180
H6_10 H 0.5403 0.4180 0.9662
C3_10 C 0.6340(4) 0.3759(3) 0.9396(3)
H7_10 H 0.6563 0.3535 0.9164
H8_10 H 0.6567 0.4015 0.9588
H9_10 H 0.6150 0.3533 0.9654
C4_10 C 0.5604(3) 0.3660(4) 0.8759(3)
H10_10 H 0.5836 0.3437 0.8535
H11_10 H 0.5412 0.3433 0.9015
H12_10 H 0.5346 0.3850 0.8533
C1_11 C 0.1241(3) 0.0604(3) 0.1340(4)
H1_11 H 0.1465 0.0836 0.1563
H2_11 H 0.0985 0.0412 0.1567
H3_11 H 0.1467 0.0346 0.1150
N1_11 N 0.0940(3) 0.0940(3) 0.0940(3)
C2_11 C 0.0596(4) 0.0596(4) 0.0596(4)
H4_11 H 0.0820 0.0338 0.0403
H5_11 H 0.0338 0.0403 0.0820
H6_11 H 0.0403 0.0820 0.0338
C3_11 C 0.1340(4) 0.1241(3) 0.0604(3)
H7_11 H 0.1563 0.1465 0.0836
H8_11 H 0.1567 0.0985 0.0412
H9_11 H 0.1150 0.1467 0.0346
C4_11 C 0.0604(3) 0.1340(4) 0.1241(3)
H10_11 H 0.0836 0.1563 0.1465
H11_11 H 0.0412 0.1567 0.0985
H12_11 H 0.0346 0.1150 0.1467
C1_12 C 0.3759(3) 0.9396(3) 0.6340(4)
H1_12 H 0.3535 0.9164 0.6563
H2_12 H 0.4015 0.9588 0.6567
H3_12 H 0.3533 0.9654 0.6150
N1_12 N 0.4060(3) 0.9060(3) 0.5940(3)
C2_12 C 0.4404(4) 0.9404(4) 0.5596(4)
H4_12 H 0.4180 0.9662 0.5403
H5_12 H 0.4662 0.9597 0.5820
H6_12 H 0.4597 0.9180 0.5338
C3_12 C 0.3660(4) 0.8759(3) 0.5604(3)
H7_12 H 0.3437 0.8535 0.5836
H8_12 H 0.3433 0.9015 0.5412
H9_12 H 0.3850 0.8533 0.5346
C4_12 C 0.4396(3) 0.8660(4) 0.6241(3)
H10_12 H 0.4164 0.8437 0.6465
H11_12 H 0.4588 0.8433 0.5985
H12_12 H 0.4654 0.8850 0.6467
C1_13 C 0.8104(3) 0.1259(3) 0.6160(4)
H1_13 H 0.8336 0.1035 0.5937
H2_13 H 0.7912 0.1515 0.5933
H3_13 H 0.7846 0.1033 0.6350
N1_13 N 0.8440(3) 0.1560(3) 0.6560(3)
C2_13 C 0.8096(4) 0.1904(4) 0.6904(4)
H4_13 H 0.7838 0.1680 0.7097
H5_13 H 0.7903 0.2162 0.6680
H6_13 H 0.8320 0.2097 0.7162
C3_13 C 0.8741(3) 0.1160(4) 0.6896(3)
H7_13 H 0.8965 0.0937 0.6664
H8_13 H 0.8485 0.0933 0.7088
H9_13 H 0.8967 0.1350 0.7154
C4_13 C 0.8840(4) 0.1896(3) 0.6259(3)
H10_13 H 0.9063 0.1664 0.6035
H11_13 H 0.9067 0.2088 0.6515
H12_13 H 0.8650 0.2154 0.6033
C1_14 C 0.6896(3) 0.8741(3) 0.1160(4)
H1_14 H 0.6664 0.8965 0.0937
H2_14 H 0.7088 0.8485 0.0933
H3_14 H 0.7154 0.8967 0.1350
N1_14 N 0.6560(3) 0.8440(3) 0.1560(3)
C2_14 C 0.6904(4) 0.8096(4) 0.1904(4)
H4_14 H 0.7162 0.8320 0.2097
H5_14 H 0.7097 0.7838 0.1680
H6_14 H 0.6680 0.7903 0.2162
C3_14 C 0.6259(3) 0.8840(4) 0.1896(3)
H7_14 H 0.6035 0.9063 0.1664
H8_14 H 0.6515 0.9067 0.2088
H9_14 H 0.6033 0.8650 0.2154
C4_14 C 0.6160(4) 0.8104(3) 0.1259(3)
H10_14 H 0.5937 0.8336 0.1035
H11_14 H 0.5933 0.7912 0.1515
H12_14 H 0.6350 0.7846 0.1033
C1_15 C 0.3104(3) 0.3741(3) 0.3840(4)
H1_15 H 0.3336 0.3965 0.4063
H2_15 H 0.2912 0.3485 0.4067
H3_15 H 0.2846 0.3967 0.3650
N1_15 N 0.3440(3) 0.3440(3) 0.3440(3)
C2_15 C 0.3096(4) 0.3096(4) 0.3096(4)
H4_15 H 0.2838 0.3320 0.2903
H5_15 H 0.2903 0.2838 0.3320
H6_15 H 0.3320 0.2903 0.2838
C3_15 C 0.3741(3) 0.3840(4) 0.3104(3)
H7_15 H 0.3965 0.4063 0.3336
H8_15 H 0.3485 0.4067 0.2912
H9_15 H 0.3967 0.3650 0.2846
C4_15 C 0.3840(4) 0.3104(3) 0.3741(3)
H10_15 H 0.4063 0.3336 0.3965
H11_15 H 0.4067 0.2912 0.3485
H12_15 H 0.3650 0.2846 0.3967
C1_16 C 0.1896(3) 0.6259(3) 0.8840(4)
H1_16 H 0.1664 0.6035 0.9063
H2_16 H 0.2088 0.6515 0.9067
H3_16 H 0.2154 0.6033 0.8650
N1_16 N 0.1560(3) 0.6560(3) 0.8440(3)
C2_16 C 0.1904(4) 0.6904(4) 0.8096(4)
H4_16 H 0.2162 0.6680 0.7903
H5_16 H 0.2097 0.7162 0.8320
H6_16 H 0.1680 0.7097 0.7838
C3_16 C 0.1259(3) 0.6160(4) 0.8104(3)
H7_16 H 0.1035 0.5937 0.8336
H8_16 H 0.1515 0.5933 0.7912
H9_16 H 0.1033 0.6350 0.7846
C4_16 C 0.1160(4) 0.6896(3) 0.8741(3)
H10_16 H 0.0937 0.6664 0.8965
H11_16 H 0.0933 0.7088 0.8485
H12_16 H 0.1350 0.7154 0.8967
Gd1 Gd 0.5000 0.2500 0.03779(2)
C5 C 0.3954(3) 0.3678(2) 0.1213(3)
O1 O 0.42359(15) 0.29965(16) 0.18085(16)
N2 N 0.4036(3) 0.4772(3) 0.0196(3)
C6 C 0.3568(3) 0.3878(3) 0.1558(2)
H13 H 0.3462 0.3678 0.1864
O2 O 0.43754(16) 0.28811(17) 0.09295(16)
C7 C 0.3333(3) 0.4382(3) 0.1451(2)
O3 O 0.27814(16) 0.43336(16) 0.22351(16)
C8 C 0.3489(3) 0.4668(3) 0.1003(3)
H14 H 0.3334 0.5008 0.0928
O4 O 0.27115(18) 0.5047(2) 0.17130(18)
C9 C 0.3871(3) 0.4453(3) 0.0667(3)
O5 O 0.3859(4) 0.5218(3) 0.0155(3)
C10 C 0.4107(3) 0.3963(3) 0.0754(3)
H15 H 0.4364 0.3822 0.0511
C11 C 0.4200(2) 0.3133(2) 0.1325(2)
C12 C 0.2914(2) 0.4593(2) 0.1818(2)
C13 C 0.3822(2) 0.1454(3) 0.1287(3)
O7 O 0.45035(16) 0.17359(15) 0.06915(16)
N3 N 0.2728(3) 0.1536(3) 0.2304(3)
C14 C 0.3622(3) 0.1068(3) 0.0942(2)
H16 H 0.3822 0.0962 0.0636
O8 O 0.46189(17) 0.18754(16) 0.15705(16)
C15 C 0.3118(3) 0.0833(3) 0.1049(2)
O9 O 0.31664(16) 0.02814(16) 0.02649(16)
C16 C 0.2832(3) 0.0989(3) 0.1497(3)
H17 H 0.2492 0.0834 0.1572
O10 O 0.2453(2) 0.02115(18) 0.07870(18)
C17 C 0.3047(3) 0.1371(3) 0.1833(3)
O11 O 0.2282(3) 0.1359(4) 0.2345(3)
C18 C 0.3537(3) 0.1607(3) 0.1746(3)
H18 H 0.3678 0.1864 0.1989
O12 O 0.2938(3) 0.1846(3) 0.2623(2)
C19 C 0.4367(2) 0.1700(2) 0.1175(2)
C20 C 0.2907(2) 0.0414(2) 0.0682(2)
Gd3 Gd 0.5000 0.2500 0.21221(2)
Gd4 Gd 0.21221(2) 0.5000 0.2500
O13 O 0.54965(16) 0.32641(15) 0.06915(16)
O14 O 0.56246(16) 0.21189(17) 0.09295(16)
O6 O 0.4346(3) 0.4562(3) 0.9877(2)
O15 O 0.52649(16) 0.18336(16) 0.97186(16)
O16 O 0.47351(16) 0.31664(16) 0.97186(16)
O17 O 0.57870(18) 0.2547(2) 0.97885(18)
O18 O 0.42130(18) 0.2453(2) 0.97885(18)
Gd2 Gd 0.2500 0.96221(2) 0.0000
Gd2_2 Gd 0.2500 0.96221(2) 1.0000
Gd2_3 Gd 0.2500 0.03779(2) 0.5000
Gd1_2 Gd -0.0000 0.7500 0.53779(2)
C5_2 C 0.1046(3) 0.6322(2) 0.6213(3)
O1_2 O 0.07641(15) 0.70035(16) 0.68085(16)
N2_2 N 0.0964(3) 0.5228(3) 0.5196(3)
C6_2 C 0.1432(3) 0.6122(3) 0.6558(2)
H13_2 H 0.1538 0.6322 0.6864
O2_2 O 0.06246(16) 0.71189(17) 0.59295(16)
C7_2 C 0.1667(3) 0.5618(3) 0.6451(2)
O3_2 O 0.22186(16) 0.56664(16) 0.72351(16)
C8_2 C 0.1511(3) 0.5332(3) 0.6003(3)
H14_2 H 0.1666 0.4992 0.5928
O4_2 O 0.22885(18) 0.4953(2) 0.67130(18)
C9_2 C 0.1129(3) 0.5547(3) 0.5667(3)
O5_2 O 0.1141(4) 0.4782(3) 0.5155(3)
C10_2 C 0.0893(3) 0.6037(3) 0.5754(3)
H15_2 H 0.0636 0.6178 0.5511
O6_2 O 0.0654(3) 0.5438(3) 0.4877(2)
C11_2 C 0.0800(2) 0.6867(2) 0.6325(2)
C12_2 C 0.2086(2) 0.5407(2) 0.6818(2)
C13_2 C 0.1178(2) 0.8546(3) 0.6287(3)
O7_2 O 0.04965(16) 0.82641(15) 0.56915(16)
N3_2 N 0.2272(3) 0.8464(3) 0.7304(3)
C14_2 C 0.1378(3) 0.8932(3) 0.5942(2)
H16_2 H 0.1178 0.9038 0.5636
O8_2 O 0.03811(17) 0.81246(16) 0.65705(16)
C15_2 C 0.1882(3) 0.9167(3) 0.6049(2)
O9_2 O 0.18336(16) 0.97186(16) 0.52649(16)
C16_2 C 0.2168(3) 0.9011(3) 0.6497(3)
H17_2 H 0.2508 0.9166 0.6572
O10_2 O 0.2547(2) 0.97885(18) 0.57870(18)
C17_2 C 0.1953(3) 0.8629(3) 0.6833(3)
O11_2 O 0.2718(3) 0.8641(4) 0.7345(3)
C18_2 C 0.1463(3) 0.8393(3) 0.6746(3)
H18_2 H 0.1322 0.8136 0.6989
O12_2 O 0.2062(3) 0.8154(3) 0.7623(2)
C19_2 C 0.0633(2) 0.8300(2) 0.6175(2)
C20_2 C 0.2093(2) 0.9586(2) 0.5682(2)
Gd3_2 Gd -0.0000 0.7500 0.71221(2)
Gd4_2 Gd 0.28779(2) 0.5000 0.7500
O16_2 O 0.02649(16) 0.68336(16) 0.47186(16)
O18_2 O 0.07870(18) 0.7547(2) 0.47885(18)
Gd1_3 Gd 1.0000 0.7500 0.53779(2)
Gd3_3 Gd 1.0000 0.7500 0.71221(2)
O13_2 O 0.95035(16) 0.67359(15) 0.56915(16)
O14_2 O 0.93754(16) 0.78811(17) 0.59295(16)
O15_2 O 0.97351(16) 0.81664(16) 0.47186(16)
O17_2 O 0.92130(18) 0.7453(2) 0.47885(18)
H14_3 H 0.6666 0.0008 0.4072
O4_3 O 0.72885(18) 0.0047(2) 0.32870(18)
O5_3 O 0.6141(4) 0.0218(3) 0.4845(3)
Gd4_3 Gd 0.78779(2) -0.0000 0.2500
Gd1_4 Gd 0.5000 0.7500 0.46221(2)
C5_3 C 0.6046(3) 0.8678(2) 0.3787(3)
O1_3 O 0.57641(15) 0.79965(16) 0.31915(16)
N2_3 N 0.5964(3) 0.9772(3) 0.4804(3)
C6_3 C 0.6432(3) 0.8878(3) 0.3442(2)
H13_3 H 0.6538 0.8678 0.3136
O2_3 O 0.56246(16) 0.78811(17) 0.40705(16)
C7_3 C 0.6667(3) 0.9382(3) 0.3549(2)
O3_3 O 0.72186(16) 0.93336(16) 0.27649(16)
C8_3 C 0.6511(3) 0.9668(3) 0.3997(3)
C9_3 C 0.6129(3) 0.9453(3) 0.4333(3)
C10_3 C 0.5893(3) 0.8963(3) 0.4246(3)
H15_3 H 0.5636 0.8822 0.4489
O6_3 O 0.5654(3) 0.9562(3) 0.5123(2)
C11_3 C 0.5800(2) 0.8133(2) 0.3675(2)
C12_3 C 0.7086(2) 0.9593(2) 0.3182(2)
C13_3 C 0.6178(2) 0.6454(3) 0.3713(3)
O7_3 O 0.54965(16) 0.67359(15) 0.43085(16)
N3_3 N 0.7272(3) 0.6536(3) 0.2696(3)
C14_3 C 0.6378(3) 0.6068(3) 0.4058(2)
H16_3 H 0.6178 0.5962 0.4364
O8_3 O 0.53811(17) 0.68754(16) 0.34295(16)
C15_3 C 0.6882(3) 0.5833(3) 0.3951(2)
O9_3 O 0.68336(16) 0.52814(16) 0.47351(16)
C16_3 C 0.7168(3) 0.5989(3) 0.3503(3)
H17_3 H 0.7508 0.5834 0.3428
O10_3 O 0.7547(2) 0.52115(18) 0.42130(18)
C17_3 C 0.6953(3) 0.6371(3) 0.3167(3)
O11_3 O 0.7718(3) 0.6359(4) 0.2655(3)
C18_3 C 0.6463(3) 0.6607(3) 0.3254(3)
H18_3 H 0.6322 0.6864 0.3011
O12_3 O 0.7062(3) 0.6846(3) 0.2377(2)
C19_3 C 0.5633(2) 0.6700(2) 0.3825(2)
C20_3 C 0.7093(2) 0.5414(2) 0.4318(2)
Gd2_4 Gd 0.7500 0.46221(2) 0.5000
Gd3_4 Gd 0.5000 0.7500 0.28779(2)
Gd4_4 Gd 0.78779(2) 1.0000 0.2500
O13_3 O 0.45035(16) 0.82641(15) 0.43085(16)
O14_3 O 0.43754(16) 0.71189(17) 0.40705(16)
O15_3 O 0.47351(16) 0.68336(16) 0.52814(16)
O16_3 O 0.52649(16) 0.81664(16) 0.52814(16)
O17_3 O 0.42130(18) 0.7547(2) 0.52115(18)
O18_3 O 0.57870(18) 0.7453(2) 0.52115(18)
O15_4 O 0.02649(16) 0.31664(16) 0.02814(16)
O17_4 O 0.07870(18) 0.2453(2) 0.02115(18)
Gd1_5 Gd -0.0000 0.2500 0.96221(2)
Gd3_5 Gd -0.0000 0.2500 0.78779(2)
O13_4 O 0.04965(16) 0.17359(15) 0.93085(16)
O14_4 O 0.06246(16) 0.28811(17) 0.90705(16)
O6_4 O 0.9346(3) 0.0438(3) 0.0123(2)
Gd2_5 Gd 0.7500 0.53779(2) 0.0000
O16_4 O 0.97351(16) 0.18336(16) 0.02814(16)
O18_4 O 0.92130(18) 0.2547(2) 0.02115(18)
Gd1_6 Gd 1.0000 0.2500 0.96221(2)
C5_4 C 0.8954(3) 0.1322(2) 0.8787(3)
O1_4 O 0.92359(15) 0.20035(16) 0.81915(16)
N2_4 N 0.9036(3) 0.0228(3) 0.9804(3)
C6_4 C 0.8568(3) 0.1122(3) 0.8442(2)
H13_4 H 0.8462 0.1322 0.8136
O2_4 O 0.93754(16) 0.21189(17) 0.90705(16)
C7_4 C 0.8333(3) 0.0618(3) 0.8549(2)
O3_4 O 0.77814(16) 0.06664(16) 0.77649(16)
C8_4 C 0.8489(3) 0.0332(3) 0.8997(3)
C9_4 C 0.8871(3) 0.0547(3) 0.9333(3)
C10_4 C 0.9107(3) 0.1037(3) 0.9246(3)
H15_4 H 0.9364 0.1178 0.9489
C11_4 C 0.9200(2) 0.1867(2) 0.8675(2)
C12_4 C 0.7914(2) 0.0407(2) 0.8182(2)
C13_4 C 0.8822(2) 0.3546(3) 0.8713(3)
O7_4 O 0.95035(16) 0.32641(15) 0.93085(16)
N3_4 N 0.7728(3) 0.3464(3) 0.7696(3)
C14_4 C 0.8622(3) 0.3932(3) 0.9058(2)
H16_4 H 0.8822 0.4038 0.9364
O8_4 O 0.96189(17) 0.31246(16) 0.84295(16)
C15_4 C 0.8118(3) 0.4167(3) 0.8951(2)
O9_4 O 0.81664(16) 0.47186(16) 0.97351(16)
C16_4 C 0.7832(3) 0.4011(3) 0.8503(3)
H17_4 H 0.7492 0.4166 0.8428
O10_4 O 0.7453(2) 0.47885(18) 0.92130(18)
C17_4 C 0.8047(3) 0.3629(3) 0.8167(3)
O11_4 O 0.7282(3) 0.3641(4) 0.7655(3)
C18_4 C 0.8537(3) 0.3393(3) 0.8254(3)
H18_4 H 0.8678 0.3136 0.8011
O12_4 O 0.7938(3) 0.3154(3) 0.7377(2)
C19_4 C 0.9367(2) 0.3300(2) 0.8825(2)
C20_4 C 0.7907(2) 0.4586(2) 0.9318(2)
Gd2_6 Gd 0.7500 0.53779(2) 1.0000
Gd3_6 Gd 1.0000 0.2500 0.78779(2)
Gd4_5 Gd 0.71221(2) -0.0000 0.7500
H14_4 H 0.8334 0.9992 0.9072
O4_4 O 0.77115(18) 0.9953(2) 0.82870(18)
O5_4 O 0.8859(4) 0.9782(3) 0.9845(3)
Gd4_6 Gd 0.71221(2) 1.0000 0.7500
Gd1_7 Gd 0.03779(2) 0.5000 0.2500
C5_5 C 0.1213(3) 0.3954(3) 0.3678(2)
O1_5 O 0.18085(16) 0.42359(15) 0.29965(16)
N2_5 N 0.0196(3) 0.4036(3) 0.4772(3)
C6_5 C 0.1558(2) 0.3568(3) 0.3878(3)
H13_5 H 0.1864 0.3462 0.3678
O2_5 O 0.09295(16) 0.43754(16) 0.28811(17)
C7_5 C 0.1451(2) 0.3333(3) 0.4382(3)
O3_5 O 0.22351(16) 0.27814(16) 0.43336(16)
C8_5 C 0.1003(3) 0.3489(3) 0.4668(3)
H14_5 H 0.0928 0.3334 0.5008
O4_5 O 0.17130(18) 0.27115(18) 0.5047(2)
C9_5 C 0.0667(3) 0.3871(3) 0.4453(3)
O5_5 O 0.0155(3) 0.3859(4) 0.5218(3)
C10_5 C 0.0754(3) 0.4107(3) 0.3963(3)
H15_5 H 0.0511 0.4364 0.3822
C11_5 C 0.1325(2) 0.4200(2) 0.3133(2)
C12_5 C 0.1818(2) 0.2914(2) 0.4593(2)
C13_5 C 0.1287(3) 0.3822(2) 0.1454(3)
O7_5 O 0.06915(16) 0.45035(16) 0.17359(15)
N3_5 N 0.2304(3) 0.2728(3) 0.1536(3)
C14_5 C 0.0942(2) 0.3622(3) 0.1068(3)
H16_5 H 0.0636 0.3822 0.0962
O8_5 O 0.15705(16) 0.46189(17) 0.18754(16)
C15_5 C 0.1049(2) 0.3118(3) 0.0833(3)
C16_5 C 0.1497(3) 0.2832(3) 0.0989(3)
H17_5 H 0.1572 0.2492 0.0834
C17_5 C 0.1833(3) 0.3047(3) 0.1371(3)
O11_5 O 0.2345(3) 0.2282(3) 0.1359(4)
C18_5 C 0.1746(3) 0.3537(3) 0.1607(3)
H18_5 H 0.1989 0.3678 0.1864
O12_5 O 0.2623(2) 0.2938(3) 0.1846(3)
C19_5 C 0.1175(2) 0.4367(2) 0.1700(2)
C20_5 C 0.0682(2) 0.2907(2) 0.0414(2)
Gd4_7 Gd 0.2500 0.21221(2) 0.5000
O13_5 O 0.06915(16) 0.54965(16) 0.32641(15)
O14_5 O 0.09295(16) 0.56246(16) 0.21189(17)
O6_5 O 0.9877(2) 0.4346(3) 0.4562(3)
O15_5 O 0.97186(16) 0.52649(16) 0.18336(16)
O16_5 O 0.97186(16) 0.47351(16) 0.31664(16)
O17_5 O 0.97885(18) 0.57870(18) 0.2547(2)
O18_5 O 0.97885(18) 0.42130(18) 0.2453(2)
Gd1_8 Gd 0.53779(2) -0.0000 0.7500
C5_6 C 0.6213(3) 0.1046(3) 0.6322(2)
O1_6 O 0.68085(16) 0.07641(15) 0.70035(16)
N2_6 N 0.5196(3) 0.0964(3) 0.5228(3)
C6_6 C 0.6558(2) 0.1432(3) 0.6122(3)
H13_6 H 0.6864 0.1538 0.6322
O2_6 O 0.59295(16) 0.06246(16) 0.71189(17)
C7_6 C 0.6451(2) 0.1667(3) 0.5618(3)
O3_6 O 0.72351(16) 0.22186(16) 0.56664(16)
C8_6 C 0.6003(3) 0.1511(3) 0.5332(3)
H14_6 H 0.5928 0.1666 0.4992
O4_6 O 0.67130(18) 0.22885(18) 0.4953(2)
C9_6 C 0.5667(3) 0.1129(3) 0.5547(3)
O5_6 O 0.5155(3) 0.1141(4) 0.4782(3)
C10_6 C 0.5754(3) 0.0893(3) 0.6037(3)
H15_6 H 0.5511 0.0636 0.6178
O6_6 O 0.4877(2) 0.0654(3) 0.5438(3)
C11_6 C 0.6325(2) 0.0800(2) 0.6867(2)
C12_6 C 0.6818(2) 0.2086(2) 0.5407(2)
C13_6 C 0.6287(3) 0.1178(2) 0.8546(3)
O7_6 O 0.56915(16) 0.04965(16) 0.82641(15)
N3_6 N 0.7304(3) 0.2272(3) 0.8464(3)
C14_6 C 0.5942(2) 0.1378(3) 0.8932(3)
H16_6 H 0.5636 0.1178 0.9038
O8_6 O 0.65705(16) 0.03811(17) 0.81246(16)
C15_6 C 0.6049(2) 0.1882(3) 0.9167(3)
C16_6 C 0.6497(3) 0.2168(3) 0.9011(3)
H17_6 H 0.6572 0.2508 0.9166
C17_6 C 0.6833(3) 0.1953(3) 0.8629(3)
O11_6 O 0.7345(3) 0.2718(3) 0.8641(4)
C18_6 C 0.6746(3) 0.1463(3) 0.8393(3)
H18_6 H 0.6989 0.1322 0.8136
O12_6 O 0.7623(2) 0.2062(3) 0.8154(3)
C19_6 C 0.6175(2) 0.0633(2) 0.8300(2)
C20_6 C 0.5682(2) 0.2093(2) 0.9586(2)
Gd4_8 Gd 0.7500 0.28779(2) 0.5000
O16_6 O 0.47186(16) 0.02649(16) 0.68336(16)
O18_6 O 0.47885(18) 0.07870(18) 0.7547(2)
Gd1_9 Gd 0.53779(2) 1.0000 0.7500
O13_6 O 0.56915(16) 0.95035(16) 0.67359(15)
O14_6 O 0.59295(16) 0.93754(16) 0.78811(17)
O15_6 O 0.47186(16) 0.97351(16) 0.81664(16)
O17_6 O 0.47885(18) 0.92130(18) 0.7453(2)
H14_7 H 0.4072 0.6666 0.0008
O4_7 O 0.32870(18) 0.72885(18) 0.0047(2)
O5_7 O 0.4845(3) 0.6141(4) 0.0218(3)
Gd4_9 Gd 0.2500 0.78779(2) 0.0000
Gd1_10 Gd 0.46221(2) 0.5000 0.7500
C5_7 C 0.3787(3) 0.6046(3) 0.8678(2)
O1_7 O 0.31915(16) 0.57641(15) 0.79965(16)
N2_7 N 0.4804(3) 0.5964(3) 0.9772(3)
C6_7 C 0.3442(2) 0.6432(3) 0.8878(3)
H13_7 H 0.3136 0.6538 0.8678
O2_7 O 0.40705(16) 0.56246(16) 0.78811(17)
C7_7 C 0.3549(2) 0.6667(3) 0.9382(3)
O3_7 O 0.27649(16) 0.72186(16) 0.93336(16)
C8_7 C 0.3997(3) 0.6511(3) 0.9668(3)
C9_7 C 0.4333(3) 0.6129(3) 0.9453(3)
C10_7 C 0.4246(3) 0.5893(3) 0.8963(3)
H15_7 H 0.4489 0.5636 0.8822
O6_7 O 0.5123(2) 0.5654(3) 0.9562(3)
C11_7 C 0.3675(2) 0.5800(2) 0.8133(2)
C12_7 C 0.3182(2) 0.7086(2) 0.9593(2)
C13_7 C 0.3713(3) 0.6178(2) 0.6454(3)
O7_7 O 0.43085(16) 0.54965(16) 0.67359(15)
N3_7 N 0.2696(3) 0.7272(3) 0.6536(3)
C14_7 C 0.4058(2) 0.6378(3) 0.6068(3)
H16_7 H 0.4364 0.6178 0.5962
O8_7 O 0.34295(16) 0.53811(17) 0.68754(16)
C15_7 C 0.3951(2) 0.6882(3) 0.5833(3)
C16_7 C 0.3503(3) 0.7168(3) 0.5989(3)
H17_7 H 0.3428 0.7508 0.5834
C17_7 C 0.3167(3) 0.6953(3) 0.6371(3)
O11_7 O 0.2655(3) 0.7718(3) 0.6359(4)
C18_7 C 0.3254(3) 0.6463(3) 0.6607(3)
H18_7 H 0.3011 0.6322 0.6864
O12_7 O 0.2377(2) 0.7062(3) 0.6846(3)
C19_7 C 0.3825(2) 0.5633(2) 0.6700(2)
C20_7 C 0.4318(2) 0.7093(2) 0.5414(2)
Gd4_10 Gd 0.2500 0.78779(2) 1.0000
O13_7 O 0.43085(16) 0.45035(16) 0.82641(15)
O14_7 O 0.40705(16) 0.43754(16) 0.71189(17)
O15_7 O 0.52814(16) 0.47351(16) 0.68336(16)
O16_7 O 0.52814(16) 0.52649(16) 0.81664(16)
O17_7 O 0.52115(18) 0.42130(18) 0.7547(2)
O18_7 O 0.52115(18) 0.57870(18) 0.7453(2)
O15_8 O 0.02814(16) 0.02649(16) 0.31664(16)
O17_8 O 0.02115(18) 0.07870(18) 0.2453(2)
O6_8 O 0.0123(2) 0.9346(3) 0.0438(3)
O16_8 O 0.02814(16) 0.97351(16) 0.18336(16)
O18_8 O 0.02115(18) 0.92130(18) 0.2547(2)
Gd1_11 Gd 0.96221(2) -0.0000 0.2500
O13_8 O 0.93085(16) 0.04965(16) 0.17359(15)
O14_8 O 0.90705(16) 0.06246(16) 0.28811(17)
Gd1_12 Gd 0.96221(2) 1.0000 0.2500
C5_8 C 0.8787(3) 0.8954(3) 0.1322(2)
O1_8 O 0.81915(16) 0.92359(15) 0.20035(16)
N2_8 N 0.9804(3) 0.9036(3) 0.0228(3)
C6_8 C 0.8442(2) 0.8568(3) 0.1122(3)
H13_8 H 0.8136 0.8462 0.1322
O2_8 O 0.90705(16) 0.93754(16) 0.21189(17)
C7_8 C 0.8549(2) 0.8333(3) 0.0618(3)
O3_8 O 0.77649(16) 0.77814(16) 0.06664(16)
C8_8 C 0.8997(3) 0.8489(3) 0.0332(3)
C9_8 C 0.9333(3) 0.8871(3) 0.0547(3)
C10_8 C 0.9246(3) 0.9107(3) 0.1037(3)
H15_8 H 0.9489 0.9364 0.1178
C11_8 C 0.8675(2) 0.9200(2) 0.1867(2)
C12_8 C 0.8182(2) 0.7914(2) 0.0407(2)
C13_8 C 0.8713(3) 0.8822(2) 0.3546(3)
O7_8 O 0.93085(16) 0.95035(16) 0.32641(15)
N3_8 N 0.7696(3) 0.7728(3) 0.3464(3)
C14_8 C 0.9058(2) 0.8622(3) 0.3932(3)
H16_8 H 0.9364 0.8822 0.4038
O8_8 O 0.84295(16) 0.96189(17) 0.31246(16)
C15_8 C 0.8951(2) 0.8118(3) 0.4167(3)
C16_8 C 0.8503(3) 0.7832(3) 0.4011(3)
H17_8 H 0.8428 0.7492 0.4166
C17_8 C 0.8167(3) 0.8047(3) 0.3629(3)
O11_8 O 0.7655(3) 0.7282(3) 0.3641(4)
C18_8 C 0.8254(3) 0.8537(3) 0.3393(3)
H18_8 H 0.8011 0.8678 0.3136
O12_8 O 0.7377(2) 0.7938(3) 0.3154(3)
C19_8 C 0.8825(2) 0.9367(2) 0.3300(2)
C20_8 C 0.9318(2) 0.7907(2) 0.4586(2)
Gd4_11 Gd 0.7500 0.71221(2) 0.0000
H14_8 H 0.9072 0.8334 0.9992
O4_8 O 0.82870(18) 0.77115(18) 0.9953(2)
O5_8 O 0.9845(3) 0.8859(4) 0.9782(3)
Gd4_12 Gd 0.7500 0.71221(2) 1.0000
C5_9 C 0.3678(2) 0.1213(3) 0.3954(3)
O1_9 O 0.29965(16) 0.18085(16) 0.42359(15)
N2_9 N 0.4772(3) 0.0196(3) 0.4036(3)
C6_9 C 0.3878(3) 0.1558(2) 0.3568(3)
H13_9 H 0.3678 0.1864 0.3462
O2_9 O 0.28811(17) 0.09295(16) 0.43754(16)
C7_9 C 0.4382(3) 0.1451(2) 0.3333(3)
O3_9 O 0.43336(16) 0.22351(16) 0.27814(16)
C8_9 C 0.4668(3) 0.1003(3) 0.3489(3)
H14_9 H 0.5008 0.0928 0.3334
O4_9 O 0.5047(2) 0.17130(18) 0.27115(18)
C9_9 C 0.4453(3) 0.0667(3) 0.3871(3)
O5_9 O 0.5218(3) 0.0155(3) 0.3859(4)
C10_9 C 0.3963(3) 0.0754(3) 0.4107(3)
H15_9 H 0.3822 0.0511 0.4364
C11_9 C 0.3133(2) 0.1325(2) 0.4200(2)
C12_9 C 0.4593(2) 0.1818(2) 0.2914(2)
C13_9 C 0.1454(3) 0.1287(3) 0.3822(2)
O7_9 O 0.17359(15) 0.06915(16) 0.45035(16)
N3_9 N 0.1536(3) 0.2304(3) 0.2728(3)
C14_9 C 0.1068(3) 0.0942(2) 0.3622(3)
H16_9 H 0.0962 0.0636 0.3822
O8_9 O 0.18754(16) 0.15705(16) 0.46189(17)
C15_9 C 0.0833(3) 0.1049(2) 0.3118(3)
C16_9 C 0.0989(3) 0.1497(3) 0.2832(3)
H17_9 H 0.0834 0.1572 0.2492
C17_9 C 0.1371(3) 0.1833(3) 0.3047(3)
O11_9 O 0.1359(4) 0.2345(3) 0.2282(3)
C18_9 C 0.1607(3) 0.1746(3) 0.3537(3)
H18_9 H 0.1864 0.1989 0.3678
O12_9 O 0.1846(3) 0.2623(2) 0.2938(3)
C19_9 C 0.1700(2) 0.1175(2) 0.4367(2)
C20_9 C 0.0414(2) 0.0682(2) 0.2907(2)
O13_9 O 0.32641(15) 0.06915(16) 0.54965(16)
O14_9 O 0.21189(17) 0.09295(16) 0.56246(16)
O6_9 O 0.4562(3) 0.9877(2) 0.4346(3)
O16_9 O 0.31664(16) 0.97186(16) 0.47351(16)
O18_9 O 0.2453(2) 0.97885(18) 0.42130(18)
C5_10 C 0.6322(2) 0.6213(3) 0.1046(3)
O1_10 O 0.70035(16) 0.68085(16) 0.07641(15)
N2_10 N 0.5228(3) 0.5196(3) 0.0964(3)
C6_10 C 0.6122(3) 0.6558(2) 0.1432(3)
H13_10 H 0.6322 0.6864 0.1538
O2_10 O 0.71189(17) 0.59295(16) 0.06246(16)
C7_10 C 0.5618(3) 0.6451(2) 0.1667(3)
O3_10 O 0.56664(16) 0.72351(16) 0.22186(16)
C8_10 C 0.5332(3) 0.6003(3) 0.1511(3)
H14_10 H 0.4992 0.5928 0.1666
O4_10 O 0.4953(2) 0.67130(18) 0.22885(18)
C9_10 C 0.5547(3) 0.5667(3) 0.1129(3)
O5_10 O 0.4782(3) 0.5155(3) 0.1141(4)
C10_10 C 0.6037(3) 0.5754(3) 0.0893(3)
H15_10 H 0.6178 0.5511 0.0636
O6_10 O 0.5438(3) 0.4877(2) 0.0654(3)
C11_10 C 0.6867(2) 0.6325(2) 0.0800(2)
C12_10 C 0.5407(2) 0.6818(2) 0.2086(2)
C13_10 C 0.8546(3) 0.6287(3) 0.1178(2)
O7_10 O 0.82641(15) 0.56915(16) 0.04965(16)
N3_10 N 0.8464(3) 0.7304(3) 0.2272(3)
C14_10 C 0.8932(3) 0.5942(2) 0.1378(3)
H16_10 H 0.9038 0.5636 0.1178
O8_10 O 0.81246(16) 0.65705(16) 0.03811(17)
C15_10 C 0.9167(3) 0.6049(2) 0.1882(3)
C16_10 C 0.9011(3) 0.6497(3) 0.2168(3)
H17_10 H 0.9166 0.6572 0.2508
C17_10 C 0.8629(3) 0.6833(3) 0.1953(3)
O11_10 O 0.8641(4) 0.7345(3) 0.2718(3)
C18_10 C 0.8393(3) 0.6746(3) 0.1463(3)
H18_10 H 0.8136 0.6989 0.1322
O12_10 O 0.8154(3) 0.7623(2) 0.2062(3)
C19_10 C 0.8300(2) 0.6175(2) 0.0633(2)
C20_10 C 0.9586(2) 0.5682(2) 0.2093(2)
O16_10 O 0.68336(16) 0.47186(16) 0.02649(16)
O18_10 O 0.7547(2) 0.47885(18) 0.07870(18)
O13_10 O 0.67359(15) 0.56915(16) 0.95035(16)
O14_10 O 0.78811(17) 0.59295(16) 0.93754(16)
H14_11 H 0.0008 0.4072 0.6666
O4_11 O 0.0047(2) 0.32870(18) 0.72885(18)
O5_11 O 0.0218(3) 0.4845(3) 0.6141(4)
C5_11 C 0.8678(2) 0.3787(3) 0.6046(3)
O1_11 O 0.79965(16) 0.31915(16) 0.57641(15)
N2_11 N 0.9772(3) 0.4804(3) 0.5964(3)
C6_11 C 0.8878(3) 0.3442(2) 0.6432(3)
H13_11 H 0.8678 0.3136 0.6538
O2_11 O 0.78811(17) 0.40705(16) 0.56246(16)
C7_11 C 0.9382(3) 0.3549(2) 0.6667(3)
O3_11 O 0.93336(16) 0.27649(16) 0.72186(16)
C8_11 C 0.9668(3) 0.3997(3) 0.6511(3)
C9_11 C 0.9453(3) 0.4333(3) 0.6129(3)
C10_11 C 0.8963(3) 0.4246(3) 0.5893(3)
H15_11 H 0.8822 0.4489 0.5636
O6_11 O 0.9562(3) 0.5123(2) 0.5654(3)
C11_11 C 0.8133(2) 0.3675(2) 0.5800(2)
C12_11 C 0.9593(2) 0.3182(2) 0.7086(2)
C13_11 C 0.6454(3) 0.3713(3) 0.6178(2)
O7_11 O 0.67359(15) 0.43085(16) 0.54965(16)
N3_11 N 0.6536(3) 0.2696(3) 0.7272(3)
C14_11 C 0.6068(3) 0.4058(2) 0.6378(3)
H16_11 H 0.5962 0.4364 0.6178
O8_11 O 0.68754(16) 0.34295(16) 0.53811(17)
C15_11 C 0.5833(3) 0.3951(2) 0.6882(3)
C16_11 C 0.5989(3) 0.3503(3) 0.7168(3)
H17_11 H 0.5834 0.3428 0.7508
C17_11 C 0.6371(3) 0.3167(3) 0.6953(3)
O11_11 O 0.6359(4) 0.2655(3) 0.7718(3)
C18_11 C 0.6607(3) 0.3254(3) 0.6463(3)
H18_11 H 0.6864 0.3011 0.6322
O12_11 O 0.6846(3) 0.2377(2) 0.7062(3)
C19_11 C 0.6700(2) 0.3825(2) 0.5633(2)
C20_11 C 0.5414(2) 0.4318(2) 0.7093(2)
O13_11 O 0.82641(15) 0.43085(16) 0.45035(16)
O14_11 O 0.71189(17) 0.40705(16) 0.43754(16)
O16_11 O 0.81664(16) 0.52814(16) 0.52649(16)
O18_11 O 0.7453(2) 0.52115(18) 0.57870(18)
O6_12 O 0.0438(3) 0.0123(2) 0.9346(3)
O16_12 O 0.18336(16) 0.02814(16) 0.97351(16)
O18_12 O 0.2547(2) 0.02115(18) 0.92130(18)
O13_12 O 0.17359(15) 0.93085(16) 0.04965(16)
O14_12 O 0.28811(17) 0.90705(16) 0.06246(16)
C5_12 C 0.1322(2) 0.8787(3) 0.8954(3)
O1_12 O 0.20035(16) 0.81915(16) 0.92359(15)
N2_12 N 0.0228(3) 0.9804(3) 0.9036(3)
C6_12 C 0.1122(3) 0.8442(2) 0.8568(3)
H13_12 H 0.1322 0.8136 0.8462
O2_12 O 0.21189(17) 0.90705(16) 0.93754(16)
C7_12 C 0.0618(3) 0.8549(2) 0.8333(3)
O3_12 O 0.06664(16) 0.77649(16) 0.77814(16)
C8_12 C 0.0332(3) 0.8997(3) 0.8489(3)
C9_12 C 0.0547(3) 0.9333(3) 0.8871(3)
C10_12 C 0.1037(3) 0.9246(3) 0.9107(3)
H15_12 H 0.1178 0.9489 0.9364
C11_12 C 0.1867(2) 0.8675(2) 0.9200(2)
C12_12 C 0.0407(2) 0.8182(2) 0.7914(2)
C13_12 C 0.3546(3) 0.8713(3) 0.8822(2)
O7_12 O 0.32641(15) 0.93085(16) 0.95035(16)
N3_12 N 0.3464(3) 0.7696(3) 0.7728(3)
C14_12 C 0.3932(3) 0.9058(2) 0.8622(3)
H16_12 H 0.4038 0.9364 0.8822
O8_12 O 0.31246(16) 0.84295(16) 0.96189(17)
C15_12 C 0.4167(3) 0.8951(2) 0.8118(3)
C16_12 C 0.4011(3) 0.8503(3) 0.7832(3)
H17_12 H 0.4166 0.8428 0.7492
C17_12 C 0.3629(3) 0.8167(3) 0.8047(3)
O11_12 O 0.3641(4) 0.7655(3) 0.7282(3)
C18_12 C 0.3393(3) 0.8254(3) 0.8537(3)
H18_12 H 0.3136 0.8011 0.8678
O12_12 O 0.3154(3) 0.7377(2) 0.7938(3)
C19_12 C 0.3300(2) 0.8825(2) 0.9367(2)
C20_12 C 0.4586(2) 0.9318(2) 0.7907(2)
H14_12 H 0.9992 0.9072 0.8334
O4_12 O 0.9953(2) 0.82870(18) 0.77115(18)
O5_12 O 0.9782(3) 0.9845(3) 0.8859(4)
C13_13 C 0.3954(3) 0.6322(2) 0.3787(3)
O7_13 O 0.42359(15) 0.70035(16) 0.31915(16)
N3_13 N 0.4036(3) 0.5228(3) 0.4804(3)
C14_13 C 0.3568(3) 0.6122(3) 0.3442(2)
H16_13 H 0.3462 0.6322 0.3136
C15_13 C 0.3333(3) 0.5618(3) 0.3549(2)
O9_5 O 0.27814(16) 0.56664(16) 0.27649(16)
C16_13 C 0.3489(3) 0.5332(3) 0.3997(3)
H17_13 H 0.3334 0.4992 0.4072
O10_5 O 0.27115(18) 0.4953(2) 0.32870(18)
C17_13 C 0.3871(3) 0.5547(3) 0.4333(3)
O11_13 O 0.3859(4) 0.4782(3) 0.4845(3)
C18_13 C 0.4107(3) 0.6037(3) 0.4246(3)
H18_13 H 0.4364 0.6178 0.4489
O12_13 O 0.4346(3) 0.5438(3) 0.5123(2)
C19_13 C 0.4200(2) 0.6867(2) 0.3675(2)
C20_13 C 0.2914(2) 0.5407(2) 0.3182(2)
O14_13 O 0.46189(17) 0.81246(16) 0.34295(16)
O15_9 O 0.43336(16) 0.77649(16) 0.22186(16)
O17_9 O 0.5047(2) 0.82870(18) 0.22885(18)
O12_14 O 0.0654(3) 0.4562(3) 0.0123(2)
C13_14 C 0.1046(3) 0.3678(2) 0.8787(3)
O7_14 O 0.07641(15) 0.29965(16) 0.81915(16)
N3_14 N 0.0964(3) 0.4772(3) 0.9804(3)
C14_14 C 0.1432(3) 0.3878(3) 0.8442(2)
H16_14 H 0.1538 0.3678 0.8136
C15_14 C 0.1667(3) 0.4382(3) 0.8549(2)
O9_6 O 0.22186(16) 0.43336(16) 0.77649(16)
C16_14 C 0.1511(3) 0.4668(3) 0.8997(3)
H17_14 H 0.1666 0.5008 0.9072
O10_6 O 0.22885(18) 0.5047(2) 0.82870(18)
C17_14 C 0.1129(3) 0.4453(3) 0.9333(3)
O11_14 O 0.1141(4) 0.5218(3) 0.9845(3)
C18_14 C 0.0893(3) 0.3963(3) 0.9246(3)
H18_14 H 0.0636 0.3822 0.9489
C19_14 C 0.0800(2) 0.3133(2) 0.8675(2)
C20_14 C 0.2086(2) 0.4593(2) 0.8182(2)
O14_14 O 0.03811(17) 0.18754(16) 0.84295(16)
O15_10 O 0.06664(16) 0.22351(16) 0.72186(16)
O17_10 O 0.9953(2) 0.17130(18) 0.72885(18)
O17_11 O 0.0047(2) 0.67130(18) 0.77115(18)
H17_15 H 0.8334 0.0008 0.5928
O10_7 O 0.77115(18) 0.0047(2) 0.67130(18)
O11_15 O 0.8859(4) 0.0218(3) 0.5155(3)
C13_15 C 0.8954(3) 0.8678(2) 0.6213(3)
O7_15 O 0.92359(15) 0.79965(16) 0.68085(16)
N3_15 N 0.9036(3) 0.9772(3) 0.5196(3)
C14_15 C 0.8568(3) 0.8878(3) 0.6558(2)
H16_15 H 0.8462 0.8678 0.6864
C15_15 C 0.8333(3) 0.9382(3) 0.6451(2)
O9_7 O 0.77814(16) 0.93336(16) 0.72351(16)
C16_15 C 0.8489(3) 0.9668(3) 0.6003(3)
C17_15 C 0.8871(3) 0.9453(3) 0.5667(3)
C18_15 C 0.9107(3) 0.8963(3) 0.5754(3)
H18_15 H 0.9364 0.8822 0.5511
O12_15 O 0.9346(3) 0.9562(3) 0.4877(2)
C19_15 C 0.9200(2) 0.8133(2) 0.6325(2)
C20_15 C 0.7914(2) 0.9593(2) 0.6818(2)
O14_15 O 0.96189(17) 0.68754(16) 0.65705(16)
O15_11 O 0.93336(16) 0.72351(16) 0.77814(16)
C13_16 C 0.6046(3) 0.1322(2) 0.1213(3)
O7_16 O 0.57641(15) 0.20035(16) 0.18085(16)
N3_16 N 0.5964(3) 0.0228(3) 0.0196(3)
C14_16 C 0.6432(3) 0.1122(3) 0.1558(2)
H16_16 H 0.6538 0.1322 0.1864
C15_16 C 0.6667(3) 0.0618(3) 0.1451(2)
O9_8 O 0.72186(16) 0.06664(16) 0.22351(16)
C16_16 C 0.6511(3) 0.0332(3) 0.1003(3)
C17_16 C 0.6129(3) 0.0547(3) 0.0667(3)
C18_16 C 0.5893(3) 0.1037(3) 0.0754(3)
H18_16 H 0.5636 0.1178 0.0511
C19_16 C 0.5800(2) 0.1867(2) 0.1325(2)
C20_16 C 0.7086(2) 0.0407(2) 0.1818(2)
O14_16 O 0.53811(17) 0.31246(16) 0.15705(16)
O15_12 O 0.56664(16) 0.27649(16) 0.27814(16)
O17_12 O 0.4953(2) 0.32870(18) 0.27115(18)
O12_16 O 0.5654(3) 0.0438(3) 0.9877(2)
H17_16 H 0.6666 0.9992 0.0928
O10_8 O 0.72885(18) 0.9953(2) 0.17130(18)
O11_16 O 0.6141(4) 0.9782(3) 0.0155(3)
C13_17 C 0.6322(2) 0.3787(3) 0.3954(3)
O7_17 O 0.70035(16) 0.31915(16) 0.42359(15)
N3_17 N 0.5228(3) 0.4804(3) 0.4036(3)
C14_17 C 0.6122(3) 0.3442(2) 0.3568(3)
H16_17 H 0.6322 0.3136 0.3462
C15_17 C 0.5618(3) 0.3549(2) 0.3333(3)
C16_17 C 0.5332(3) 0.3997(3) 0.3489(3)
H17_17 H 0.4992 0.4072 0.3334
C17_17 C 0.5547(3) 0.4333(3) 0.3871(3)
O11_17 O 0.4782(3) 0.4845(3) 0.3859(4)
C18_17 C 0.6037(3) 0.4246(3) 0.4107(3)
H18_17 H 0.6178 0.4489 0.4364
O12_17 O 0.5438(3) 0.5123(2) 0.4346(3)
C19_17 C 0.6867(2) 0.3675(2) 0.4200(2)
C20_17 C 0.5407(2) 0.3182(2) 0.2914(2)
O14_17 O 0.81246(16) 0.34295(16) 0.46189(17)
O15_13 O 0.77649(16) 0.22186(16) 0.43336(16)
O17_13 O 0.82870(18) 0.22885(18) 0.5047(2)
O12_18 O 0.4562(3) 0.0123(2) 0.0654(3)
C13_18 C 0.3678(2) 0.8787(3) 0.1046(3)
O7_18 O 0.29965(16) 0.81915(16) 0.07641(15)
N3_18 N 0.4772(3) 0.9804(3) 0.0964(3)
C14_18 C 0.3878(3) 0.8442(2) 0.1432(3)
H16_18 H 0.3678 0.8136 0.1538
C15_18 C 0.4382(3) 0.8549(2) 0.1667(3)
C16_18 C 0.4668(3) 0.8997(3) 0.1511(3)
H17_18 H 0.5008 0.9072 0.1666
C17_18 C 0.4453(3) 0.9333(3) 0.1129(3)
O11_18 O 0.5218(3) 0.9845(3) 0.1141(4)
C18_18 C 0.3963(3) 0.9246(3) 0.0893(3)
H18_18 H 0.3822 0.9489 0.0636
C19_18 C 0.3133(2) 0.8675(2) 0.0800(2)
C20_18 C 0.4593(2) 0.8182(2) 0.2086(2)
O14_18 O 0.18754(16) 0.84295(16) 0.03811(17)
O15_14 O 0.22351(16) 0.72186(16) 0.06664(16)
O17_14 O 0.17130(18) 0.72885(18) 0.9953(2)
H17_19 H 0.0008 0.5928 0.8334
O11_19 O 0.0218(3) 0.5155(3) 0.8859(4)
O17_15 O 0.67130(18) 0.77115(18) 0.0047(2)
C13_19 C 0.8678(2) 0.6213(3) 0.8954(3)
O7_19 O 0.79965(16) 0.68085(16) 0.92359(15)
N3_19 N 0.9772(3) 0.5196(3) 0.9036(3)
C14_19 C 0.8878(3) 0.6558(2) 0.8568(3)
H16_19 H 0.8678 0.6864 0.8462
C15_19 C 0.9382(3) 0.6451(2) 0.8333(3)
C16_19 C 0.9668(3) 0.6003(3) 0.8489(3)
C17_19 C 0.9453(3) 0.5667(3) 0.8871(3)
C18_19 C 0.8963(3) 0.5754(3) 0.9107(3)
H18_19 H 0.8822 0.5511 0.9364
O12_19 O 0.9562(3) 0.4877(2) 0.9346(3)
C19_19 C 0.8133(2) 0.6325(2) 0.9200(2)
C20_19 C 0.9593(2) 0.6818(2) 0.7914(2)
O14_19 O 0.68754(16) 0.65705(16) 0.96189(17)
O15_15 O 0.72351(16) 0.77814(16) 0.93336(16)
C13_20 C 0.1322(2) 0.1213(3) 0.6046(3)
O7_20 O 0.20035(16) 0.18085(16) 0.57641(15)
N3_20 N 0.0228(3) 0.0196(3) 0.5964(3)
C14_20 C 0.1122(3) 0.1558(2) 0.6432(3)
H16_20 H 0.1322 0.1864 0.6538
C15_20 C 0.0618(3) 0.1451(2) 0.6667(3)
C16_20 C 0.0332(3) 0.1003(3) 0.6511(3)
C17_20 C 0.0547(3) 0.0667(3) 0.6129(3)
C18_20 C 0.1037(3) 0.0754(3) 0.5893(3)
H18_20 H 0.1178 0.0511 0.5636
C19_20 C 0.1867(2) 0.1325(2) 0.5800(2)
C20_20 C 0.0407(2) 0.1818(2) 0.7086(2)
O14_20 O 0.31246(16) 0.15705(16) 0.53811(17)
O15_16 O 0.27649(16) 0.27814(16) 0.56664(16)
O17_16 O 0.32870(18) 0.27115(18) 0.4953(2)
O12_20 O 0.0438(3) 0.9877(2) 0.5654(3)
H17_20 H 0.9992 0.0928 0.6666
O11_20 O 0.9782(3) 0.0155(3) 0.6141(4)
C13_21 C 0.3787(3) 0.3954(3) 0.6322(2)
O7_21 O 0.31915(16) 0.42359(15) 0.70035(16)
N3_21 N 0.4804(3) 0.4036(3) 0.5228(3)
C14_21 C 0.3442(2) 0.3568(3) 0.6122(3)
H16_21 H 0.3136 0.3462 0.6322
C15_21 C 0.3549(2) 0.3333(3) 0.5618(3)
C16_21 C 0.3997(3) 0.3489(3) 0.5332(3)
H17_21 H 0.4072 0.3334 0.4992
C17_21 C 0.4333(3) 0.3871(3) 0.5547(3)
O11_21 O 0.4845(3) 0.3859(4) 0.4782(3)
C18_21 C 0.4246(3) 0.4107(3) 0.6037(3)
H18_21 H 0.4489 0.4364 0.6178
O12_21 O 0.5123(2) 0.4346(3) 0.5438(3)
C19_21 C 0.3675(2) 0.4200(2) 0.6867(2)
C20_21 C 0.3182(2) 0.2914(2) 0.5407(2)
O14_21 O 0.34295(16) 0.46189(17) 0.81246(16)
O12_22 O 0.0123(2) 0.0654(3) 0.4562(3)
C13_22 C 0.8787(3) 0.1046(3) 0.3678(2)
O7_22 O 0.81915(16) 0.07641(15) 0.29965(16)
N3_22 N 0.9804(3) 0.0964(3) 0.4772(3)
C14_22 C 0.8442(2) 0.1432(3) 0.3878(3)
H16_22 H 0.8136 0.1538 0.3678
C15_22 C 0.8549(2) 0.1667(3) 0.4382(3)
C16_22 C 0.8997(3) 0.1511(3) 0.4668(3)
H17_22 H 0.9072 0.1666 0.5008
C17_22 C 0.9333(3) 0.1129(3) 0.4453(3)
O11_22 O 0.9845(3) 0.1141(4) 0.5218(3)
C18_22 C 0.9246(3) 0.0893(3) 0.3963(3)
H18_22 H 0.9489 0.0636 0.3822
C19_22 C 0.8675(2) 0.0800(2) 0.3133(2)
C20_22 C 0.8182(2) 0.2086(2) 0.4593(2)
O14_22 O 0.84295(16) 0.03811(17) 0.18754(16)
H17_23 H 0.5928 0.8334 0.0008
O11_23 O 0.5155(3) 0.8859(4) 0.0218(3)
C13_23 C 0.6213(3) 0.8954(3) 0.8678(2)
O7_23 O 0.68085(16) 0.92359(15) 0.79965(16)
N3_23 N 0.5196(3) 0.9036(3) 0.9772(3)
C14_23 C 0.6558(2) 0.8568(3) 0.8878(3)
H16_23 H 0.6864 0.8462 0.8678
C15_23 C 0.6451(2) 0.8333(3) 0.9382(3)
C16_23 C 0.6003(3) 0.8489(3) 0.9668(3)
C17_23 C 0.5667(3) 0.8871(3) 0.9453(3)
C18_23 C 0.5754(3) 0.9107(3) 0.8963(3)
H18_23 H 0.5511 0.9364 0.8822
O12_23 O 0.4877(2) 0.9346(3) 0.9562(3)
C19_23 C 0.6325(2) 0.9200(2) 0.8133(2)
C20_23 C 0.6818(2) 0.7914(2) 0.9593(2)
O14_23 O 0.65705(16) 0.96189(17) 0.68754(16)
C13_24 C 0.1213(3) 0.6046(3) 0.1322(2)
O7_24 O 0.18085(16) 0.57641(15) 0.20035(16)
N3_24 N 0.0196(3) 0.5964(3) 0.0228(3)
C14_24 C 0.1558(2) 0.6432(3) 0.1122(3)
H16_24 H 0.1864 0.6538 0.1322
C15_24 C 0.1451(2) 0.6667(3) 0.0618(3)
C16_24 C 0.1003(3) 0.6511(3) 0.0332(3)
C17_24 C 0.0667(3) 0.6129(3) 0.0547(3)
C18_24 C 0.0754(3) 0.5893(3) 0.1037(3)
H18_24 H 0.0511 0.5636 0.1178
C19_24 C 0.1325(2) 0.5800(2) 0.1867(2)
C20_24 C 0.1818(2) 0.7086(2) 0.0407(2)
O14_24 O 0.15705(16) 0.53811(17) 0.31246(16)
H17_24 H 0.0928 0.6666 0.9992
O11_24 O 0.0155(3) 0.6141(4) 0.9782(3)
O12_24 O 0.9877(2) 0.5654(3) 0.0438(3)
C13_25 C 0.8822(2) 0.6454(3) 0.6287(3)
N3_25 N 0.7728(3) 0.6536(3) 0.7304(3)
C14_25 C 0.8622(3) 0.6068(3) 0.5942(2)
H16_25 H 0.8822 0.5962 0.5636
C15_25 C 0.8118(3) 0.5833(3) 0.6049(2)
C16_25 C 0.7832(3) 0.5989(3) 0.6497(3)
H17_25 H 0.7492 0.5834 0.6572
C17_25 C 0.8047(3) 0.6371(3) 0.6833(3)
O11_25 O 0.7282(3) 0.6359(4) 0.7345(3)
C18_25 C 0.8537(3) 0.6607(3) 0.6746(3)
H18_25 H 0.8678 0.6864 0.6989
O12_25 O 0.7938(3) 0.6846(3) 0.7623(2)
C19_25 C 0.9367(2) 0.6700(2) 0.6175(2)
C20_25 C 0.7907(2) 0.5414(2) 0.5682(2)
C13_26 C 0.6178(2) 0.3546(3) 0.1287(3)
N3_26 N 0.7272(3) 0.3464(3) 0.2304(3)
C14_26 C 0.6378(3) 0.3932(3) 0.0942(2)
H16_26 H 0.6178 0.4038 0.0636
C15_26 C 0.6882(3) 0.4167(3) 0.1049(2)
C16_26 C 0.7168(3) 0.4011(3) 0.1497(3)
H17_26 H 0.7508 0.4166 0.1572
C17_26 C 0.6953(3) 0.3629(3) 0.1833(3)
O11_26 O 0.7718(3) 0.3641(4) 0.2345(3)
C18_26 C 0.6463(3) 0.3393(3) 0.1746(3)
H18_26 H 0.6322 0.3136 0.1989
O12_26 O 0.7062(3) 0.3154(3) 0.2623(2)
C19_26 C 0.5633(2) 0.3300(2) 0.1175(2)
C20_26 C 0.7093(2) 0.4586(2) 0.0682(2)
C13_27 C 0.1178(2) 0.1454(3) 0.8713(3)
N3_27 N 0.2272(3) 0.1536(3) 0.7696(3)
C14_27 C 0.1378(3) 0.1068(3) 0.9058(2)
H16_27 H 0.1178 0.0962 0.9364
C15_27 C 0.1882(3) 0.0833(3) 0.8951(2)
C16_27 C 0.2168(3) 0.0989(3) 0.8503(3)
H17_27 H 0.2508 0.0834 0.8428
C17_27 C 0.1953(3) 0.1371(3) 0.8167(3)
O11_27 O 0.2718(3) 0.1359(4) 0.7655(3)
C18_27 C 0.1463(3) 0.1607(3) 0.8254(3)
H18_27 H 0.1322 0.1864 0.8011
O12_27 O 0.2062(3) 0.1846(3) 0.7377(2)
C19_27 C 0.0633(2) 0.1700(2) 0.8825(2)
C20_27 C 0.2093(2) 0.0414(2) 0.9318(2)
C13_28 C 0.3822(2) 0.8546(3) 0.3713(3)
N3_28 N 0.2728(3) 0.8464(3) 0.2696(3)
C14_28 C 0.3622(3) 0.8932(3) 0.4058(2)
H16_28 H 0.3822 0.9038 0.4364
C15_28 C 0.3118(3) 0.9167(3) 0.3951(2)
C16_28 C 0.2832(3) 0.9011(3) 0.3503(3)
H17_28 H 0.2492 0.9166 0.3428
C17_28 C 0.3047(3) 0.8629(3) 0.3167(3)
O11_28 O 0.2282(3) 0.8641(4) 0.2655(3)
C18_28 C 0.3537(3) 0.8393(3) 0.3254(3)
H18_28 H 0.3678 0.8136 0.3011
O12_28 O 0.2938(3) 0.8154(3) 0.2377(2)
C19_28 C 0.4367(2) 0.8300(2) 0.3825(2)
C20_28 C 0.2907(2) 0.9586(2) 0.4318(2)
C13_29 C 0.6287(3) 0.8822(2) 0.6454(3)
N3_29 N 0.7304(3) 0.7728(3) 0.6536(3)
C14_29 C 0.5942(2) 0.8622(3) 0.6068(3)
H16_29 H 0.5636 0.8822 0.5962
C15_29 C 0.6049(2) 0.8118(3) 0.5833(3)
C16_29 C 0.6497(3) 0.7832(3) 0.5989(3)
H17_29 H 0.6572 0.7492 0.5834
C17_29 C 0.6833(3) 0.8047(3) 0.6371(3)
O11_29 O 0.7345(3) 0.7282(3) 0.6359(4)
C18_29 C 0.6746(3) 0.8537(3) 0.6607(3)
H18_29 H 0.6989 0.8678 0.6864
O12_29 O 0.7623(2) 0.7938(3) 0.6846(3)
C19_29 C 0.6175(2) 0.9367(2) 0.6700(2)
C20_29 C 0.5682(2) 0.7907(2) 0.5414(2)
C13_30 C 0.1287(3) 0.6178(2) 0.3546(3)
N3_30 N 0.2304(3) 0.7272(3) 0.3464(3)
C14_30 C 0.0942(2) 0.6378(3) 0.3932(3)
H16_30 H 0.0636 0.6178 0.4038
C15_30 C 0.1049(2) 0.6882(3) 0.4167(3)
C16_30 C 0.1497(3) 0.7168(3) 0.4011(3)
H17_30 H 0.1572 0.7508 0.4166
C17_30 C 0.1833(3) 0.6953(3) 0.3629(3)
O11_30 O 0.2345(3) 0.7718(3) 0.3641(4)
C18_30 C 0.1746(3) 0.6463(3) 0.3393(3)
H18_30 H 0.1989 0.6322 0.3136
O12_30 O 0.2623(2) 0.7062(3) 0.3154(3)
C19_30 C 0.1175(2) 0.5633(2) 0.3300(2)
C20_30 C 0.0682(2) 0.7093(2) 0.4586(2)
C13_31 C 0.8713(3) 0.1178(2) 0.1454(3)
N3_31 N 0.7696(3) 0.2272(3) 0.1536(3)
C14_31 C 0.9058(2) 0.1378(3) 0.1068(3)
H16_31 H 0.9364 0.1178 0.0962
C15_31 C 0.8951(2) 0.1882(3) 0.0833(3)
C16_31 C 0.8503(3) 0.2168(3) 0.0989(3)
H17_31 H 0.8428 0.2508 0.0834
C17_31 C 0.8167(3) 0.1953(3) 0.1371(3)
O11_31 O 0.7655(3) 0.2718(3) 0.1359(4)
C18_31 C 0.8254(3) 0.1463(3) 0.1607(3)
H18_31 H 0.8011 0.1322 0.1864
O12_31 O 0.7377(2) 0.2062(3) 0.1846(3)
C19_31 C 0.8825(2) 0.0633(2) 0.1700(2)
C20_31 C 0.9318(2) 0.2093(2) 0.0414(2)
C13_32 C 0.3713(3) 0.3822(2) 0.8546(3)
N3_32 N 0.2696(3) 0.2728(3) 0.8464(3)
C14_32 C 0.4058(2) 0.3622(3) 0.8932(3)
H16_32 H 0.4364 0.3822 0.9038
C15_32 C 0.3951(2) 0.3118(3) 0.9167(3)
C16_32 C 0.3503(3) 0.2832(3) 0.9011(3)
H17_32 H 0.3428 0.2492 0.9166
C17_32 C 0.3167(3) 0.3047(3) 0.8629(3)
O11_32 O 0.2655(3) 0.2282(3) 0.8641(4)
C18_32 C 0.3254(3) 0.3537(3) 0.8393(3)
H18_32 H 0.3011 0.3678 0.8136
O12_32 O 0.2377(2) 0.2938(3) 0.8154(3)
C19_32 C 0.3825(2) 0.4367(2) 0.8300(2)
C20_32 C 0.4318(2) 0.2907(2) 0.9586(2)
C13_33 C 0.6454(3) 0.6287(3) 0.8822(2)
N3_33 N 0.6536(3) 0.7304(3) 0.7728(3)
C14_33 C 0.6068(3) 0.5942(2) 0.8622(3)
H16_33 H 0.5962 0.5636 0.8822
C15_33 C 0.5833(3) 0.6049(2) 0.8118(3)
C16_33 C 0.5989(3) 0.6497(3) 0.7832(3)
H17_33 H 0.5834 0.6572 0.7492
C17_33 C 0.6371(3) 0.6833(3) 0.8047(3)
O11_33 O 0.6359(4) 0.7345(3) 0.7282(3)
C18_33 C 0.6607(3) 0.6746(3) 0.8537(3)
H18_33 H 0.6864 0.6989 0.8678
O12_33 O 0.6846(3) 0.7623(2) 0.7938(3)
C19_33 C 0.6700(2) 0.6175(2) 0.9367(2)
C20_33 C 0.5414(2) 0.5682(2) 0.7907(2)
C13_34 C 0.3546(3) 0.1287(3) 0.6178(2)
N3_34 N 0.3464(3) 0.2304(3) 0.7272(3)
C14_34 C 0.3932(3) 0.0942(2) 0.6378(3)
H16_34 H 0.4038 0.0636 0.6178
C15_34 C 0.4167(3) 0.1049(2) 0.6882(3)
C16_34 C 0.4011(3) 0.1497(3) 0.7168(3)
H17_34 H 0.4166 0.1572 0.7508
C17_34 C 0.3629(3) 0.1833(3) 0.6953(3)
O11_34 O 0.3641(4) 0.2345(3) 0.7718(3)
C18_34 C 0.3393(3) 0.1746(3) 0.6463(3)
H18_34 H 0.3136 0.1989 0.6322
O12_34 O 0.3154(3) 0.2623(2) 0.7062(3)
C19_34 C 0.3300(2) 0.1175(2) 0.5633(2)
C20_34 C 0.4586(2) 0.0682(2) 0.7093(2)
C13_35 C 0.1454(3) 0.8713(3) 0.1178(2)
N3_35 N 0.1536(3) 0.7696(3) 0.2272(3)
C14_35 C 0.1068(3) 0.9058(2) 0.1378(3)
H16_35 H 0.0962 0.9364 0.1178
C15_35 C 0.0833(3) 0.8951(2) 0.1882(3)
C16_35 C 0.0989(3) 0.8503(3) 0.2168(3)
H17_35 H 0.0834 0.8428 0.2508
C17_35 C 0.1371(3) 0.8167(3) 0.1953(3)
O11_35 O 0.1359(4) 0.7655(3) 0.2718(3)
C18_35 C 0.1607(3) 0.8254(3) 0.1463(3)
H18_35 H 0.1864 0.8011 0.1322
O12_35 O 0.1846(3) 0.7377(2) 0.2062(3)
C19_35 C 0.1700(2) 0.8825(2) 0.0633(2)
C20_35 C 0.0414(2) 0.9318(2) 0.2093(2)
C13_36 C 0.8546(3) 0.3713(3) 0.3822(2)
N3_36 N 0.8464(3) 0.2696(3) 0.2728(3)
C14_36 C 0.8932(3) 0.4058(2) 0.3622(3)
H16_36 H 0.9038 0.4364 0.3822
C15_36 C 0.9167(3) 0.3951(2) 0.3118(3)
C16_36 C 0.9011(3) 0.3503(3) 0.2832(3)
H17_36 H 0.9166 0.3428 0.2492
C17_36 C 0.8629(3) 0.3167(3) 0.3047(3)
O11_36 O 0.8641(4) 0.2655(3) 0.2282(3)
C18_36 C 0.8393(3) 0.3254(3) 0.3537(3)
H18_36 H 0.8136 0.3011 0.3678
O12_36 O 0.8154(3) 0.2377(2) 0.2938(3)
C19_36 C 0.8300(2) 0.3825(2) 0.4367(2)
C20_36 C 0.9586(2) 0.4318(2) 0.2907(2)
loop_
_geom_bond_atom_site_label_1
_geom_bond_atom_site_label_2
_geom_bond_site_symmetry_1
_geom_bond_site_symmetry_2
C1 H1 1_555 1_555
H2 C1 1_555 1_555
H3 C1 1_555 1_555
N1 C1 1_555 1_555
C2 N1 1_555 1_555
H4 C2 1_555 1_555
H5 C2 1_555 1_555
H6 C2 1_555 1_555
C3 N1 1_555 1_555
H7 C3 1_555 1_555
H8 C3 1_555 1_555
H9 C3 1_555 1_555
C4 N1 1_555 1_555
H10 C4 1_555 1_555
H11 C4 1_555 1_555
H12 C4 1_555 1_555
C1_2 H1_2 1_555 1_555
H2_2 C1_2 1_555 1_555
H3_2 C1_2 1_555 1_555
N1_2 C1_2 1_555 1_555
C2_2 N1_2 1_555 1_555
H4_2 C2_2 1_555 1_555
H5_2 C2_2 1_555 1_555
H6_2 C2_2 1_555 1_555
C3_2 N1_2 1_555 1_555
H7_2 C3_2 1_555 1_555
H8_2 C3_2 1_555 1_555
H9_2 C3_2 1_555 1_555
C4_2 N1_2 1_555 1_555
H10_2 C4_2 1_555 1_555
H11_2 C4_2 1_555 1_555
H12_2 C4_2 1_555 1_555
C1_3 H1_3 1_555 1_555
H2_3 C1_3 1_555 1_555
H3_3 C1_3 1_555 1_555
N1_3 C1_3 1_555 1_555
C2_3 N1_3 1_555 1_555
H4_3 C2_3 1_555 1_555
H5_3 C2_3 1_555 1_555
H6_3 C2_3 1_555 1_555
C3_3 N1_3 1_555 1_555
H7_3 C3_3 1_555 1_555
H8_3 C3_3 1_555 1_555
H9_3 C3_3 1_555 1_555
C4_3 N1_3 1_555 1_555
H10_3 C4_3 1_555 1_555
H11_3 C4_3 1_555 1_555
H12_3 C4_3 1_555 1_555
C1_4 H1_4 1_555 1_555
H2_4 C1_4 1_555 1_555
H3_4 C1_4 1_555 1_555
N1_4 C1_4 1_555 1_555
C2_4 N1_4 1_555 1_555
H4_4 C2_4 1_555 1_555
H5_4 C2_4 1_555 1_555
H6_4 C2_4 1_555 1_555
C3_4 N1_4 1_555 1_555
H7_4 C3_4 1_555 1_555
H8_4 C3_4 1_555 1_555
H9_4 C3_4 1_555 1_555
C4_4 N1_4 1_555 1_555
H10_4 C4_4 1_555 1_555
H11_4 C4_4 1_555 1_555
H12_4 C4_4 1_555 1_555
C1_5 H1_5 1_555 1_555
H2_5 C1_5 1_555 1_555
H3_5 C1_5 1_555 1_555
N1_5 C1_5 1_555 1_555
C2_5 N1_5 1_555 1_555
H4_5 C2_5 1_555 1_555
H5_5 C2_5 1_555 1_555
H6_5 C2_5 1_555 1_555
C3_5 N1_5 1_555 1_555
H7_5 C3_5 1_555 1_555
H8_5 C3_5 1_555 1_555
H9_5 C3_5 1_555 1_555
C4_5 N1_5 1_555 1_555
H10_5 C4_5 1_555 1_555
H11_5 C4_5 1_555 1_555
H12_5 C4_5 1_555 1_555
C1_6 H1_6 1_555 1_555
H2_6 C1_6 1_555 1_555
H3_6 C1_6 1_555 1_555
N1_6 C1_6 1_555 1_555
C2_6 N1_6 1_555 1_555
H4_6 C2_6 1_555 1_555
H5_6 C2_6 1_555 1_555
H6_6 C2_6 1_555 1_555
C3_6 N1_6 1_555 1_555
H7_6 C3_6 1_555 1_555
H8_6 C3_6 1_555 1_555
H9_6 C3_6 1_555 1_555
C4_6 N1_6 1_555 1_555
H10_6 C4_6 1_555 1_555
H11_6 C4_6 1_555 1_555
H12_6 C4_6 1_555 1_555
C1_7 H1_7 1_555 1_555
H2_7 C1_7 1_555 1_555
H3_7 C1_7 1_555 1_555
N1_7 C1_7 1_555 1_555
C2_7 N1_7 1_555 1_555
H4_7 C2_7 1_555 1_555
H5_7 C2_7 1_555 1_555
H6_7 C2_7 1_555 1_555
C3_7 N1_7 1_555 1_555
H7_7 C3_7 1_555 1_555
H8_7 C3_7 1_555 1_555
H9_7 C3_7 1_555 1_555
C4_7 N1_7 1_555 1_555
H10_7 C4_7 1_555 1_555
H11_7 C4_7 1_555 1_555
H12_7 C4_7 1_555 1_555
C1_8 H1_8 1_555 1_555
H2_8 C1_8 1_555 1_555
H3_8 C1_8 1_555 1_555
N1_8 C1_8 1_555 1_555
C2_8 N1_8 1_555 1_555
H4_8 C2_8 1_555 1_555
H5_8 C2_8 1_555 1_555
H6_8 C2_8 1_555 1_555
C3_8 N1_8 1_555 1_555
H7_8 C3_8 1_555 1_555
H8_8 C3_8 1_555 1_555
H9_8 C3_8 1_555 1_555
C4_8 N1_8 1_555 1_555
H10_8 C4_8 1_555 1_555
H11_8 C4_8 1_555 1_555
H12_8 C4_8 1_555 1_555
C1_9 H1_9 1_555 1_555
H2_9 C1_9 1_555 1_555
H3_9 C1_9 1_555 1_555
N1_9 C1_9 1_555 1_555
C2_9 N1_9 1_555 1_555
H4_9 C2_9 1_555 1_555
H5_9 C2_9 1_555 1_555
H6_9 C2_9 1_555 1_555
C3_9 N1_9 1_555 1_555
H7_9 C3_9 1_555 1_555
H8_9 C3_9 1_555 1_555
H9_9 C3_9 1_555 1_555
C4_9 N1_9 1_555 1_555
H10_9 C4_9 1_555 1_555
H11_9 C4_9 1_555 1_555
H12_9 C4_9 1_555 1_555
C1_10 H1_10 1_555 1_555
H2_10 C1_10 1_555 1_555
H3_10 C1_10 1_555 1_555
N1_10 C1_10 1_555 1_555
C2_10 N1_10 1_555 1_555
H4_10 C2_10 1_555 1_555
H5_10 C2_10 1_555 1_555
H6_10 C2_10 1_555 1_555
C3_10 N1_10 1_555 1_555
H7_10 C3_10 1_555 1_555
H8_10 C3_10 1_555 1_555
H9_10 C3_10 1_555 1_555
C4_10 N1_10 1_555 1_555
H10_10 C4_10 1_555 1_555
H11_10 C4_10 1_555 1_555
H12_10 C4_10 1_555 1_555
C1_11 H1_11 1_555 1_555
H2_11 C1_11 1_555 1_555
H3_11 C1_11 1_555 1_555
N1_11 C1_11 1_555 1_555
C2_11 N1_11 1_555 1_555
H4_11 C2_11 1_555 1_555
H5_11 C2_11 1_555 1_555
H6_11 C2_11 1_555 1_555
C3_11 N1_11 1_555 1_555
H7_11 C3_11 1_555 1_555
H8_11 C3_11 1_555 1_555
H9_11 C3_11 1_555 1_555
C4_11 N1_11 1_555 1_555
H10_11 C4_11 1_555 1_555
H11_11 C4_11 1_555 1_555
H12_11 C4_11 1_555 1_555
C1_12 H1_12 1_555 1_555
H2_12 C1_12 1_555 1_555
H3_12 C1_12 1_555 1_555
N1_12 C1_12 1_555 1_555
C2_12 N1_12 1_555 1_555
H4_12 C2_12 1_555 1_555
H5_12 C2_12 1_555 1_555
H6_12 C2_12 1_555 1_555
C3_12 N1_12 1_555 1_555
H7_12 C3_12 1_555 1_555
H8_12 C3_12 1_555 1_555
H9_12 C3_12 1_555 1_555
C4_12 N1_12 1_555 1_555
H10_12 C4_12 1_555 1_555
H11_12 C4_12 1_555 1_555
H12_12 C4_12 1_555 1_555
C1_13 H1_13 1_555 1_555
H2_13 C1_13 1_555 1_555
H3_13 C1_13 1_555 1_555
N1_13 C1_13 1_555 1_555
C2_13 N1_13 1_555 1_555
H4_13 C2_13 1_555 1_555
H5_13 C2_13 1_555 1_555
H6_13 C2_13 1_555 1_555
C3_13 N1_13 1_555 1_555
H7_13 C3_13 1_555 1_555
H8_13 C3_13 1_555 1_555
H9_13 C3_13 1_555 1_555
C4_13 N1_13 1_555 1_555
H10_13 C4_13 1_555 1_555
H11_13 C4_13 1_555 1_555
H12_13 C4_13 1_555 1_555
C1_14 H1_14 1_555 1_555
H2_14 C1_14 1_555 1_555
H3_14 C1_14 1_555 1_555
N1_14 C1_14 1_555 1_555
C2_14 N1_14 1_555 1_555
H4_14 C2_14 1_555 1_555
H5_14 C2_14 1_555 1_555
H6_14 C2_14 1_555 1_555
C3_14 N1_14 1_555 1_555
H7_14 C3_14 1_555 1_555
H8_14 C3_14 1_555 1_555
H9_14 C3_14 1_555 1_555
C4_14 N1_14 1_555 1_555
H10_14 C4_14 1_555 1_555
H11_14 C4_14 1_555 1_555
H12_14 C4_14 1_555 1_555
C1_15 H1_15 1_555 1_555
H2_15 C1_15 1_555 1_555
H3_15 C1_15 1_555 1_555
N1_15 C1_15 1_555 1_555
C2_15 N1_15 1_555 1_555
H4_15 C2_15 1_555 1_555
H5_15 C2_15 1_555 1_555
H6_15 C2_15 1_555 1_555
C3_15 N1_15 1_555 1_555
H7_15 C3_15 1_555 1_555
H8_15 C3_15 1_555 1_555
H9_15 C3_15 1_555 1_555
C4_15 N1_15 1_555 1_555
H10_15 C4_15 1_555 1_555
H11_15 C4_15 1_555 1_555
H12_15 C4_15 1_555 1_555
C1_16 H1_16 1_555 1_555
H2_16 C1_16 1_555 1_555
H3_16 C1_16 1_555 1_555
N1_16 C1_16 1_555 1_555
C2_16 N1_16 1_555 1_555
H4_16 C2_16 1_555 1_555
H5_16 C2_16 1_555 1_555
H6_16 C2_16 1_555 1_555
C3_16 N1_16 1_555 1_555
H7_16 C3_16 1_555 1_555
H8_16 C3_16 1_555 1_555
H9_16 C3_16 1_555 1_555
C4_16 N1_16 1_555 1_555
H10_16 C4_16 1_555 1_555
H11_16 C4_16 1_555 1_555
H12_16 C4_16 1_555 1_555
Gd1 O2 1_555 1_555
C5 C6 1_555 1_555
O1 C11 1_555 1_555
N2 C9 1_555 1_555
C6 H13 1_555 1_555
O2 C11 1_555 1_555
C7 C6 1_555 1_555
O3 C12 1_555 1_555
C8 C7 1_555 1_555
H14 C8 1_555 1_555
O4 C12 1_555 1_555
C9 C8 1_555 1_555
O5 N2 1_555 1_555
C10 C5 1_555 1_555
H15 C10 1_555 1_555
C11 C5 1_555 1_555
C12 C7 1_555 1_555
C13 C14 1_555 1_555
O7 Gd1 1_555 1_555
N3 C17 1_555 1_555
C14 H16 1_555 1_555
O8 C19 1_555 1_555
C15 C14 1_555 1_555
O9 C20 1_555 1_555
C16 C15 1_555 1_555
H17 C16 1_555 1_555
O10 C20 1_555 1_555
C17 C16 1_555 1_555
O11 N3 1_555 1_555
C18 C13 1_555 1_555
H18 C18 1_555 1_555
O12 N3 1_555 1_555
C19 C13 1_555 1_555
C20 C15 1_555 1_555
Gd3 O1 1_555 1_555
Gd4 O3 1_555 1_555
O13 Gd1 1_555 1_555
O14 Gd1 1_555 1_555
O4 Gd4 1_555 1_555
C9 C10 1_555 1_555
O7 C19 1_555 1_555
O8 Gd3 1_555 1_555
C17 C18 1_555 1_555
Gd1_2 O2_2 1_555 1_555
C5_2 C6_2 1_555 1_555
O1_2 C11_2 1_555 1_555
N2_2 C9_2 1_555 1_555
C6_2 H13_2 1_555 1_555
O2_2 C11_2 1_555 1_555
C7_2 C6_2 1_555 1_555
O3_2 C12_2 1_555 1_555
C8_2 C7_2 1_555 1_555
H14_2 C8_2 1_555 1_555
O4_2 C12_2 1_555 1_555
C9_2 C8_2 1_555 1_555
O5_2 N2_2 1_555 1_555
C10_2 C5_2 1_555 1_555
H15_2 C10_2 1_555 1_555
O6_2 N2_2 1_555 1_555
C11_2 C5_2 1_555 1_555
C12_2 C7_2 1_555 1_555
C13_2 C14_2 1_555 1_555
O7_2 Gd1_2 1_555 1_555
N3_2 C17_2 1_555 1_555
C14_2 H16_2 1_555 1_555
O8_2 C19_2 1_555 1_555
C15_2 C14_2 1_555 1_555
O9_2 C20_2 1_555 1_555
C16_2 C15_2 1_555 1_555
H17_2 C16_2 1_555 1_555
O10_2 C20_2 1_555 1_555
C17_2 C16_2 1_555 1_555
O11_2 N3_2 1_555 1_555
C18_2 C13_2 1_555 1_555
H18_2 C18_2 1_555 1_555
O12_2 N3_2 1_555 1_555
C19_2 C13_2 1_555 1_555
C20_2 C15_2 1_555 1_555
Gd3_2 O1_2 1_555 1_555
Gd4_2 O3_2 1_555 1_555
O16_2 Gd1_2 1_555 1_555
O18_2 Gd1_2 1_555 1_555
O4_2 Gd4_2 1_555 1_555
C9_2 C10_2 1_555 1_555
O7_2 C19_2 1_555 1_555
O8_2 Gd3_2 1_555 1_555
C17_2 C18_2 1_555 1_555
O13_2 Gd1_3 1_555 1_555
O14_2 Gd1_3 1_555 1_555
O15_2 Gd1_3 1_555 1_555
O17_2 Gd1_3 1_555 1_555
O4_3 Gd4_3 1_555 1_555
Gd1_4 O2_3 1_555 1_555
C5_3 C6_3 1_555 1_555
O1_3 C11_3 1_555 1_555
N2_3 C9_3 1_555 1_555
C6_3 H13_3 1_555 1_555
O2_3 C11_3 1_555 1_555
C7_3 C6_3 1_555 1_555
O3_3 C12_3 1_555 1_555
C8_3 C7_3 1_555 1_555
C9_3 C8_3 1_555 1_555
C10_3 C5_3 1_555 1_555
H15_3 C10_3 1_555 1_555
O6_3 N2_3 1_555 1_555
C11_3 C5_3 1_555 1_555
C12_3 C7_3 1_555 1_555
C13_3 C14_3 1_555 1_555
O7_3 Gd1_4 1_555 1_555
N3_3 C17_3 1_555 1_555
C14_3 H16_3 1_555 1_555
O8_3 C19_3 1_555 1_555
C15_3 C14_3 1_555 1_555
O9_3 C20_3 1_555 1_555
C16_3 C15_3 1_555 1_555
H17_3 C16_3 1_555 1_555
O10_3 C20_3 1_555 1_555
C17_3 C16_3 1_555 1_555
O11_3 N3_3 1_555 1_555
C18_3 C13_3 1_555 1_555
H18_3 C18_3 1_555 1_555
O12_3 N3_3 1_555 1_555
C19_3 C13_3 1_555 1_555
C20_3 C15_3 1_555 1_555
Gd2_4 O9_3 1_555 1_555
Gd3_4 O1_3 1_555 1_555
Gd4_4 O3_3 1_555 1_555
O13_3 Gd1_4 1_555 1_555
O14_3 Gd1_4 1_555 1_555
O15_3 Gd1_4 1_555 1_555
O16_3 Gd1_4 1_555 1_555
O17_3 Gd1_4 1_555 1_555
O18_3 Gd1_4 1_555 1_555
C9_3 C10_3 1_555 1_555
O7_3 C19_3 1_555 1_555
O8_3 Gd3_4 1_555 1_555
O10_3 Gd2_4 1_555 1_555
C17_3 C18_3 1_555 1_555
O13_4 Gd1_5 1_555 1_555
O14_4 Gd1_5 1_555 1_555
Gd1_6 O2_4 1_555 1_555
C5_4 C6_4 1_555 1_555
O1_4 C11_4 1_555 1_555
N2_4 C9_4 1_555 1_555
C6_4 H13_4 1_555 1_555
O2_4 C11_4 1_555 1_555
C7_4 C6_4 1_555 1_555
O3_4 C12_4 1_555 1_555
C8_4 C7_4 1_555 1_555
C9_4 C8_4 1_555 1_555
C10_4 C5_4 1_555 1_555
H15_4 C10_4 1_555 1_555
C11_4 C5_4 1_555 1_555
C12_4 C7_4 1_555 1_555
C13_4 C14_4 1_555 1_555
O7_4 Gd1_6 1_555 1_555
N3_4 C17_4 1_555 1_555
C14_4 H16_4 1_555 1_555
O8_4 C19_4 1_555 1_555
C15_4 C14_4 1_555 1_555
O9_4 C20_4 1_555 1_555
C16_4 C15_4 1_555 1_555
H17_4 C16_4 1_555 1_555
O10_4 C20_4 1_555 1_555
C17_4 C16_4 1_555 1_555
O11_4 N3_4 1_555 1_555
C18_4 C13_4 1_555 1_555
H18_4 C18_4 1_555 1_555
O12_4 N3_4 1_555 1_555
C19_4 C13_4 1_555 1_555
C20_4 C15_4 1_555 1_555
Gd2_6 O9_4 1_555 1_555
Gd3_6 O1_4 1_555 1_555
Gd4_5 O3_4 1_555 1_555
C9_4 C10_4 1_555 1_555
O7_4 C19_4 1_555 1_555
O8_4 Gd3_6 1_555 1_555
O10_4 Gd2_6 1_555 1_555
C17_4 C18_4 1_555 1_555
O4_4 Gd4_6 1_555 1_555
Gd1_7 O2_5 1_555 1_555
C5_5 C6_5 1_555 1_555
O1_5 C11_5 1_555 1_555
N2_5 C9_5 1_555 1_555
C6_5 H13_5 1_555 1_555
O2_5 C11_5 1_555 1_555
C7_5 C6_5 1_555 1_555
O3_5 C12_5 1_555 1_555
C8_5 C7_5 1_555 1_555
H14_5 C8_5 1_555 1_555
O4_5 C12_5 1_555 1_555
C9_5 C8_5 1_555 1_555
O5_5 N2_5 1_555 1_555
C10_5 C5_5 1_555 1_555
H15_5 C10_5 1_555 1_555
C11_5 C5_5 1_555 1_555
C12_5 C7_5 1_555 1_555
C13_5 C14_5 1_555 1_555
O7_5 Gd1_7 1_555 1_555
N3_5 C17_5 1_555 1_555
C14_5 H16_5 1_555 1_555
O8_5 C19_5 1_555 1_555
C15_5 C14_5 1_555 1_555
O15_4 C20_5 1_555 1_555
C16_5 C15_5 1_555 1_555
H17_5 C16_5 1_555 1_555
O17_4 C20_5 1_555 1_555
C17_5 C16_5 1_555 1_555
O11_5 N3_5 1_555 1_555
C18_5 C13_5 1_555 1_555
H18_5 C18_5 1_555 1_555
O12_5 N3_5 1_555 1_555
C19_5 C13_5 1_555 1_555
C20_5 C15_5 1_555 1_555
Gd4 O1_5 1_555 1_555
Gd4_7 O3_5 1_555 1_555
O13_5 Gd1_7 1_555 1_555
O14_5 Gd1_7 1_555 1_555
O4_5 Gd4_7 1_555 1_555
C9_5 C10_5 1_555 1_555
O7_5 C19_5 1_555 1_555
O8_5 Gd4 1_555 1_555
C17_5 C18_5 1_555 1_555
Gd1_8 O2_6 1_555 1_555
C5_6 C6_6 1_555 1_555
O1_6 C11_6 1_555 1_555
N2_6 C9_6 1_555 1_555
C6_6 H13_6 1_555 1_555
O2_6 C11_6 1_555 1_555
C7_6 C6_6 1_555 1_555
O3_6 C12_6 1_555 1_555
C8_6 C7_6 1_555 1_555
H14_6 C8_6 1_555 1_555
O4_6 C12_6 1_555 1_555
C9_6 C8_6 1_555 1_555
O5_6 N2_6 1_555 1_555
C10_6 C5_6 1_555 1_555
H15_6 C10_6 1_555 1_555
O6_6 N2_6 1_555 1_555
C11_6 C5_6 1_555 1_555
C12_6 C7_6 1_555 1_555
C13_6 C14_6 1_555 1_555
O7_6 Gd1_8 1_555 1_555
N3_6 C17_6 1_555 1_555
C14_6 H16_6 1_555 1_555
O8_6 C19_6 1_555 1_555
C15_6 C14_6 1_555 1_555
O15 C20_6 1_555 1_555
C16_6 C15_6 1_555 1_555
H17_6 C16_6 1_555 1_555
O17 C20_6 1_555 1_555
C17_6 C16_6 1_555 1_555
O11_6 N3_6 1_555 1_555
C18_6 C13_6 1_555 1_555
H18_6 C18_6 1_555 1_555
O12_6 N3_6 1_555 1_555
C19_6 C13_6 1_555 1_555
C20_6 C15_6 1_555 1_555
Gd4_5 O1_6 1_555 1_555
Gd4_8 O3_6 1_555 1_555
O16_6 Gd1_8 1_555 1_555
O18_6 Gd1_8 1_555 1_555
O4_6 Gd4_8 1_555 1_555
C9_6 C10_6 1_555 1_555
O7_6 C19_6 1_555 1_555
O8_6 Gd4_5 1_555 1_555
C17_6 C18_6 1_555 1_555
O13_6 Gd1_9 1_555 1_555
O14_6 Gd1_9 1_555 1_555
O15_6 Gd1_9 1_555 1_555
O17_6 Gd1_9 1_555 1_555
O4_7 Gd4_9 1_555 1_555
Gd1_10 O2_7 1_555 1_555
C5_7 C6_7 1_555 1_555
O1_7 C11_7 1_555 1_555
N2_7 C9_7 1_555 1_555
C6_7 H13_7 1_555 1_555
O2_7 C11_7 1_555 1_555
C7_7 C6_7 1_555 1_555
O3_7 C12_7 1_555 1_555
C8_7 C7_7 1_555 1_555
C9_7 C8_7 1_555 1_555
C10_7 C5_7 1_555 1_555
H15_7 C10_7 1_555 1_555
O6_7 N2_7 1_555 1_555
C11_7 C5_7 1_555 1_555
C12_7 C7_7 1_555 1_555
C13_7 C14_7 1_555 1_555
O7_7 Gd1_10 1_555 1_555
N3_7 C17_7 1_555 1_555
C14_7 H16_7 1_555 1_555
O8_7 C19_7 1_555 1_555
C15_7 C14_7 1_555 1_555
O15_3 C20_7 1_555 1_555
C16_7 C15_7 1_555 1_555
H17_7 C16_7 1_555 1_555
O17_3 C20_7 1_555 1_555
C17_7 C16_7 1_555 1_555
O11_7 N3_7 1_555 1_555
C18_7 C13_7 1_555 1_555
H18_7 C18_7 1_555 1_555
O12_7 N3_7 1_555 1_555
C19_7 C13_7 1_555 1_555
C20_7 C15_7 1_555 1_555
Gd4_2 O1_7 1_555 1_555
Gd4_10 O3_7 1_555 1_555
O13_7 Gd1_10 1_555 1_555
O14_7 Gd1_10 1_555 1_555
O15_7 Gd1_10 1_555 1_555
O16_7 Gd1_10 1_555 1_555
O17_7 Gd1_10 1_555 1_555
O18_7 Gd1_10 1_555 1_555
C9_7 C10_7 1_555 1_555
O7_7 C19_7 1_555 1_555
O8_7 Gd4_2 1_555 1_555
C17_7 C18_7 1_555 1_555
O13_8 Gd1_11 1_555 1_555
O14_8 Gd1_11 1_555 1_555
Gd1_12 O2_8 1_555 1_555
C5_8 C6_8 1_555 1_555
O1_8 C11_8 1_555 1_555
N2_8 C9_8 1_555 1_555
C6_8 H13_8 1_555 1_555
O2_8 C11_8 1_555 1_555
C7_8 C6_8 1_555 1_555
O3_8 C12_8 1_555 1_555
C8_8 C7_8 1_555 1_555
C9_8 C8_8 1_555 1_555
C10_8 C5_8 1_555 1_555
H15_8 C10_8 1_555 1_555
C11_8 C5_8 1_555 1_555
C12_8 C7_8 1_555 1_555
C13_8 C14_8 1_555 1_555
O7_8 Gd1_12 1_555 1_555
N3_8 C17_8 1_555 1_555
C14_8 H16_8 1_555 1_555
O8_8 C19_8 1_555 1_555
C15_8 C14_8 1_555 1_555
O15_2 C20_8 1_555 1_555
C16_8 C15_8 1_555 1_555
H17_8 C16_8 1_555 1_555
O17_2 C20_8 1_555 1_555
C17_8 C16_8 1_555 1_555
O11_8 N3_8 1_555 1_555
C18_8 C13_8 1_555 1_555
H18_8 C18_8 1_555 1_555
O12_8 N3_8 1_555 1_555
C19_8 C13_8 1_555 1_555
C20_8 C15_8 1_555 1_555
Gd4_4 O1_8 1_555 1_555
Gd4_11 O3_8 1_555 1_555
C9_8 C10_8 1_555 1_555
O7_8 C19_8 1_555 1_555
O8_8 Gd4_4 1_555 1_555
C17_8 C18_8 1_555 1_555
O4_8 Gd4_12 1_555 1_555
Gd2_3 O2_9 1_555 1_555
C5_9 C6_9 1_555 1_555
O1_9 C11_9 1_555 1_555
N2_9 C9_9 1_555 1_555
C6_9 H13_9 1_555 1_555
O2_9 C11_9 1_555 1_555
C7_9 C6_9 1_555 1_555
O3_9 C12_9 1_555 1_555
C8_9 C7_9 1_555 1_555
H14_9 C8_9 1_555 1_555
O4_9 C12_9 1_555 1_555
C9_9 C8_9 1_555 1_555
O5_9 N2_9 1_555 1_555
C10_9 C5_9 1_555 1_555
H15_9 C10_9 1_555 1_555
C11_9 C5_9 1_555 1_555
C12_9 C7_9 1_555 1_555
C13_9 C14_9 1_555 1_555
O7_9 Gd2_3 1_555 1_555
N3_9 C17_9 1_555 1_555
C14_9 H16_9 1_555 1_555
O8_9 C19_9 1_555 1_555
C15_9 C14_9 1_555 1_555
O15_8 C20_9 1_555 1_555
C16_9 C15_9 1_555 1_555
H17_9 C16_9 1_555 1_555
O17_8 C20_9 1_555 1_555
C17_9 C16_9 1_555 1_555
O11_9 N3_9 1_555 1_555
C18_9 C13_9 1_555 1_555
H18_9 C18_9 1_555 1_555
O12_9 N3_9 1_555 1_555
C19_9 C13_9 1_555 1_555
C20_9 C15_9 1_555 1_555
Gd4_7 O1_9 1_555 1_555
Gd3 O3_9 1_555 1_555
O13_9 Gd2_3 1_555 1_555
O14_9 Gd2_3 1_555 1_555
O4_9 Gd3 1_555 1_555
C9_9 C10_9 1_555 1_555
O7_9 C19_9 1_555 1_555
O8_9 Gd4_7 1_555 1_555
C17_9 C18_9 1_555 1_555
Gd2_5 O2_10 1_555 1_555
C5_10 C6_10 1_555 1_555
O1_10 C11_10 1_555 1_555
N2_10 C9_10 1_555 1_555
C6_10 H13_10 1_555 1_555
O2_10 C11_10 1_555 1_555
C7_10 C6_10 1_555 1_555
O3_10 C12_10 1_555 1_555
C8_10 C7_10 1_555 1_555
H14_10 C8_10 1_555 1_555
O4_10 C12_10 1_555 1_555
C9_10 C8_10 1_555 1_555
O5_10 N2_10 1_555 1_555
C10_10 C5_10 1_555 1_555
H15_10 C10_10 1_555 1_555
O6_10 N2_10 1_555 1_555
C11_10 C5_10 1_555 1_555
C12_10 C7_10 1_555 1_555
C13_10 C14_10 1_555 1_555
O7_10 Gd2_5 1_555 1_555
N3_10 C17_10 1_555 1_555
C14_10 H16_10 1_555 1_555
O8_10 C19_10 1_555 1_555
C15_10 C14_10 1_555 1_555
O15_5 C20_10 1_555 1_555
C16_10 C15_10 1_555 1_555
H17_10 C16_10 1_555 1_555
O17_5 C20_10 1_555 1_555
C17_10 C16_10 1_555 1_555
O11_10 N3_10 1_555 1_555
C18_10 C13_10 1_555 1_555
H18_10 C18_10 1_555 1_555
O12_10 N3_10 1_555 1_555
C19_10 C13_10 1_555 1_555
C20_10 C15_10 1_555 1_555
Gd4_11 O1_10 1_555 1_555
Gd3_4 O3_10 1_555 1_555
O16_10 Gd2_5 1_555 1_555
O18_10 Gd2_5 1_555 1_555
O4_10 Gd3_4 1_555 1_555
C9_10 C10_10 1_555 1_555
O7_10 C19_10 1_555 1_555
O8_10 Gd4_11 1_555 1_555
C17_10 C18_10 1_555 1_555
O13_10 Gd2_6 1_555 1_555
O14_10 Gd2_6 1_555 1_555
O4_11 Gd3_5 1_555 1_555
Gd2_4 O2_11 1_555 1_555
C5_11 C6_11 1_555 1_555
O1_11 C11_11 1_555 1_555
N2_11 C9_11 1_555 1_555
C6_11 H13_11 1_555 1_555
O2_11 C11_11 1_555 1_555
C7_11 C6_11 1_555 1_555
O3_11 C12_11 1_555 1_555
C8_11 C7_11 1_555 1_555
C9_11 C8_11 1_555 1_555
C10_11 C5_11 1_555 1_555
H15_11 C10_11 1_555 1_555
O6_11 N2_11 1_555 1_555
C11_11 C5_11 1_555 1_555
C12_11 C7_11 1_555 1_555
C13_11 C14_11 1_555 1_555
O7_11 Gd2_4 1_555 1_555
N3_11 C17_11 1_555 1_555
C14_11 H16_11 1_555 1_555
O8_11 C19_11 1_555 1_555
C15_11 C14_11 1_555 1_555
O15_7 C20_11 1_555 1_555
C16_11 C15_11 1_555 1_555
H17_11 C16_11 1_555 1_555
O17_7 C20_11 1_555 1_555
C17_11 C16_11 1_555 1_555
O11_11 N3_11 1_555 1_555
C18_11 C13_11 1_555 1_555
H18_11 C18_11 1_555 1_555
O12_11 N3_11 1_555 1_555
C19_11 C13_11 1_555 1_555
C20_11 C15_11 1_555 1_555
Gd4_8 O1_11 1_555 1_555
Gd3_6 O3_11 1_555 1_555
O13_11 Gd2_4 1_555 1_555
O14_11 Gd2_4 1_555 1_555
O16_11 Gd2_4 1_555 1_555
O18_11 Gd2_4 1_555 1_555
C9_11 C10_11 1_555 1_555
O7_11 C19_11 1_555 1_555
O8_11 Gd4_8 1_555 1_555
C17_11 C18_11 1_555 1_555
O13_12 Gd2 1_555 1_555
O14_12 Gd2 1_555 1_555
Gd2_2 O2_12 1_555 1_555
C5_12 C6_12 1_555 1_555
O1_12 C11_12 1_555 1_555
N2_12 C9_12 1_555 1_555
C6_12 H13_12 1_555 1_555
O2_12 C11_12 1_555 1_555
C7_12 C6_12 1_555 1_555
O3_12 C12_12 1_555 1_555
C8_12 C7_12 1_555 1_555
C9_12 C8_12 1_555 1_555
C10_12 C5_12 1_555 1_555
H15_12 C10_12 1_555 1_555
C11_12 C5_12 1_555 1_555
C12_12 C7_12 1_555 1_555
C13_12 C14_12 1_555 1_555
O7_12 Gd2_2 1_555 1_555
N3_12 C17_12 1_555 1_555
C14_12 H16_12 1_555 1_555
O8_12 C19_12 1_555 1_555
C15_12 C14_12 1_555 1_555
O15_6 C20_12 1_555 1_555
C16_12 C15_12 1_555 1_555
H17_12 C16_12 1_555 1_555
O17_6 C20_12 1_555 1_555
C17_12 C16_12 1_555 1_555
O11_12 N3_12 1_555 1_555
C18_12 C13_12 1_555 1_555
H18_12 C18_12 1_555 1_555
O12_12 N3_12 1_555 1_555
C19_12 C13_12 1_555 1_555
C20_12 C15_12 1_555 1_555
Gd4_10 O1_12 1_555 1_555
Gd3_2 O3_12 1_555 1_555
C9_12 C10_12 1_555 1_555
O7_12 C19_12 1_555 1_555
O8_12 Gd4_10 1_555 1_555
C17_12 C18_12 1_555 1_555
O4_12 Gd3_3 1_555 1_555
C13_13 C14_13 1_555 1_555
O7_13 Gd3_4 1_555 1_555
N3_13 C17_13 1_555 1_555
C14_13 H16_13 1_555 1_555
O14_3 C19_13 1_555 1_555
C15_13 C14_13 1_555 1_555
O9_5 C20_13 1_555 1_555
C16_13 C15_13 1_555 1_555
H17_13 C16_13 1_555 1_555
O10_5 C20_13 1_555 1_555
C17_13 C16_13 1_555 1_555
O11_13 N3_13 1_555 1_555
C18_13 C13_13 1_555 1_555
H18_13 C18_13 1_555 1_555
O12_13 N3_13 1_555 1_555
C19_13 C13_13 1_555 1_555
C20_13 C15_13 1_555 1_555
Gd4 O9_5 1_555 1_555
O14_13 Gd3_4 1_555 1_555
O15_9 Gd3_4 1_555 1_555
O17_9 Gd3_4 1_555 1_555
O7_13 C19_13 1_555 1_555
O10_5 Gd4 1_555 1_555
C17_13 C18_13 1_555 1_555
C13_14 C14_14 1_555 1_555
O7_14 Gd3_5 1_555 1_555
N3_14 C17_14 1_555 1_555
C14_14 H16_14 1_555 1_555
O14_4 C19_14 1_555 1_555
C15_14 C14_14 1_555 1_555
O9_6 C20_14 1_555 1_555
C16_14 C15_14 1_555 1_555
H17_14 C16_14 1_555 1_555
O10_6 C20_14 1_555 1_555
C17_14 C16_14 1_555 1_555
O11_14 N3_14 1_555 1_555
C18_14 C13_14 1_555 1_555
H18_14 C18_14 1_555 1_555
C19_14 C13_14 1_555 1_555
C20_14 C15_14 1_555 1_555
Gd4_2 O9_6 1_555 1_555
O14_14 Gd3_5 1_555 1_555
O15_10 Gd3_5 1_555 1_555
O7_14 C19_14 1_555 1_555
O10_6 Gd4_2 1_555 1_555
C17_14 C18_14 1_555 1_555
O17_10 Gd3_6 1_555 1_555
O17_11 Gd3_2 1_555 1_555
O10_7 Gd4_5 1_555 1_555
C13_15 C14_15 1_555 1_555
O7_15 Gd3_3 1_555 1_555
N3_15 C17_15 1_555 1_555
C14_15 H16_15 1_555 1_555
O14_2 C19_15 1_555 1_555
C15_15 C14_15 1_555 1_555
O9_7 C20_15 1_555 1_555
C16_15 C15_15 1_555 1_555
C17_15 C16_15 1_555 1_555
C18_15 C13_15 1_555 1_555
H18_15 C18_15 1_555 1_555
O12_15 N3_15 1_555 1_555
C19_15 C13_15 1_555 1_555
C20_15 C15_15 1_555 1_555
Gd4_6 O9_7 1_555 1_555
O14_15 Gd3_3 1_555 1_555
O15_11 Gd3_3 1_555 1_555
O7_15 C19_15 1_555 1_555
C17_15 C18_15 1_555 1_555
C13_16 C14_16 1_555 1_555
O7_16 Gd3 1_555 1_555
N3_16 C17_16 1_555 1_555
C14_16 H16_16 1_555 1_555
O14 C19_16 1_555 1_555
C15_16 C14_16 1_555 1_555
O9_8 C20_16 1_555 1_555
C16_16 C15_16 1_555 1_555
C17_16 C16_16 1_555 1_555
C18_16 C13_16 1_555 1_555
H18_16 C18_16 1_555 1_555
C19_16 C13_16 1_555 1_555
C20_16 C15_16 1_555 1_555
Gd4_3 O9_8 1_555 1_555
O14_16 Gd3 1_555 1_555
O15_12 Gd3 1_555 1_555
O17_12 Gd3 1_555 1_555
O7_16 C19_16 1_555 1_555
C17_16 C18_16 1_555 1_555
O10_8 Gd4_4 1_555 1_555
C13_17 C14_17 1_555 1_555
O7_17 Gd4_8 1_555 1_555
N3_17 C17_17 1_555 1_555
C14_17 H16_17 1_555 1_555
O14_11 C19_17 1_555 1_555
C15_17 C14_17 1_555 1_555
O15_12 C20_17 1_555 1_555
C16_17 C15_17 1_555 1_555
H17_17 C16_17 1_555 1_555
O17_12 C20_17 1_555 1_555
C17_17 C16_17 1_555 1_555
O11_17 N3_17 1_555 1_555
C18_17 C13_17 1_555 1_555
H18_17 C18_17 1_555 1_555
O12_17 N3_17 1_555 1_555
C19_17 C13_17 1_555 1_555
C20_17 C15_17 1_555 1_555
O14_17 Gd4_8 1_555 1_555
O15_13 Gd4_8 1_555 1_555
O17_13 Gd4_8 1_555 1_555
O7_17 C19_17 1_555 1_555
C17_17 C18_17 1_555 1_555
C13_18 C14_18 1_555 1_555
O7_18 Gd4_9 1_555 1_555
N3_18 C17_18 1_555 1_555
C14_18 H16_18 1_555 1_555
O14_12 C19_18 1_555 1_555
C15_18 C14_18 1_555 1_555
O15_9 C20_18 1_555 1_555
C16_18 C15_18 1_555 1_555
H17_18 C16_18 1_555 1_555
O17_9 C20_18 1_555 1_555
C17_18 C16_18 1_555 1_555
O11_18 N3_18 1_555 1_555
C18_18 C13_18 1_555 1_555
H18_18 C18_18 1_555 1_555
C19_18 C13_18 1_555 1_555
C20_18 C15_18 1_555 1_555
O14_18 Gd4_9 1_555 1_555
O15_14 Gd4_9 1_555 1_555
O7_18 C19_18 1_555 1_555
C17_18 C18_18 1_555 1_555
O17_14 Gd4_10 1_555 1_555
O17_15 Gd4_11 1_555 1_555
C13_19 C14_19 1_555 1_555
O7_19 Gd4_12 1_555 1_555
N3_19 C17_19 1_555 1_555
C14_19 H16_19 1_555 1_555
O14_10 C19_19 1_555 1_555
C15_19 C14_19 1_555 1_555
O15_11 C20_19 1_555 1_555
C16_19 C15_19 1_555 1_555
C17_19 C16_19 1_555 1_555
C18_19 C13_19 1_555 1_555
H18_19 C18_19 1_555 1_555
O12_19 N3_19 1_555 1_555
C19_19 C13_19 1_555 1_555
C20_19 C15_19 1_555 1_555
O14_19 Gd4_12 1_555 1_555
O15_15 Gd4_12 1_555 1_555
O7_19 C19_19 1_555 1_555
C17_19 C18_19 1_555 1_555
C13_20 C14_20 1_555 1_555
O7_20 Gd4_7 1_555 1_555
N3_20 C17_20 1_555 1_555
C14_20 H16_20 1_555 1_555
O14_9 C19_20 1_555 1_555
C15_20 C14_20 1_555 1_555
O15_10 C20_20 1_555 1_555
C16_20 C15_20 1_555 1_555
C17_20 C16_20 1_555 1_555
C18_20 C13_20 1_555 1_555
H18_20 C18_20 1_555 1_555
C19_20 C13_20 1_555 1_555
C20_20 C15_20 1_555 1_555
O14_20 Gd4_7 1_555 1_555
O15_16 Gd4_7 1_555 1_555
O17_16 Gd4_7 1_555 1_555
O7_20 C19_20 1_555 1_555
C17_20 C18_20 1_555 1_555
C13_21 C14_21 1_555 1_555
O7_21 Gd4_2 1_555 1_555
N3_21 C17_21 1_555 1_555
C14_21 H16_21 1_555 1_555
O14_7 C19_21 1_555 1_555
C15_21 C14_21 1_555 1_555
O15_16 C20_21 1_555 1_555
C16_21 C15_21 1_555 1_555
H17_21 C16_21 1_555 1_555
O17_16 C20_21 1_555 1_555
C17_21 C16_21 1_555 1_555
O11_21 N3_21 1_555 1_555
C18_21 C13_21 1_555 1_555
H18_21 C18_21 1_555 1_555
O12_21 N3_21 1_555 1_555
C19_21 C13_21 1_555 1_555
C20_21 C15_21 1_555 1_555
O14_21 Gd4_2 1_555 1_555
O7_21 C19_21 1_555 1_555
C17_21 C18_21 1_555 1_555
C13_22 C14_22 1_555 1_555
O7_22 Gd4_3 1_555 1_555
N3_22 C17_22 1_555 1_555
C14_22 H16_22 1_555 1_555
O14_8 C19_22 1_555 1_555
C15_22 C14_22 1_555 1_555
O15_13 C20_22 1_555 1_555
C16_22 C15_22 1_555 1_555
H17_22 C16_22 1_555 1_555
O17_13 C20_22 1_555 1_555
C17_22 C16_22 1_555 1_555
O11_22 N3_22 1_555 1_555
C18_22 C13_22 1_555 1_555
H18_22 C18_22 1_555 1_555
C19_22 C13_22 1_555 1_555
C20_22 C15_22 1_555 1_555
O14_22 Gd4_3 1_555 1_555
O7_22 C19_22 1_555 1_555
C17_22 C18_22 1_555 1_555
C13_23 C14_23 1_555 1_555
O7_23 Gd4_6 1_555 1_555
N3_23 C17_23 1_555 1_555
C14_23 H16_23 1_555 1_555
O14_6 C19_23 1_555 1_555
C15_23 C14_23 1_555 1_555
O15_15 C20_23 1_555 1_555
C16_23 C15_23 1_555 1_555
C17_23 C16_23 1_555 1_555
C18_23 C13_23 1_555 1_555
H18_23 C18_23 1_555 1_555
O12_23 N3_23 1_555 1_555
C19_23 C13_23 1_555 1_555
C20_23 C15_23 1_555 1_555
O14_23 Gd4_6 1_555 1_555
O7_23 C19_23 1_555 1_555
C17_23 C18_23 1_555 1_555
C13_24 C14_24 1_555 1_555
O7_24 Gd4 1_555 1_555
N3_24 C17_24 1_555 1_555
C14_24 H16_24 1_555 1_555
O14_5 C19_24 1_555 1_555
C15_24 C14_24 1_555 1_555
O15_14 C20_24 1_555 1_555
C16_24 C15_24 1_555 1_555
C17_24 C16_24 1_555 1_555
C18_24 C13_24 1_555 1_555
H18_24 C18_24 1_555 1_555
C19_24 C13_24 1_555 1_555
C20_24 C15_24 1_555 1_555
O14_24 Gd4 1_555 1_555
O7_24 C19_24 1_555 1_555
C17_24 C18_24 1_555 1_555
C13_25 C14_25 1_555 1_555
N3_25 C17_25 1_555 1_555
C14_25 H16_25 1_555 1_555
O14_15 C19_25 1_555 1_555
C15_25 C14_25 1_555 1_555
O16_11 C20_25 1_555 1_555
C16_25 C15_25 1_555 1_555
H17_25 C16_25 1_555 1_555
O18_11 C20_25 1_555 1_555
C17_25 C16_25 1_555 1_555
O11_25 N3_25 1_555 1_555
C18_25 C13_25 1_555 1_555
H18_25 C18_25 1_555 1_555
O12_25 N3_25 1_555 1_555
C19_25 C13_25 1_555 1_555
C20_25 C15_25 1_555 1_555
O13_2 C19_25 1_555 1_555
C17_25 C18_25 1_555 1_555
C13_26 C14_26 1_555 1_555
N3_26 C17_26 1_555 1_555
C14_26 H16_26 1_555 1_555
O14_16 C19_26 1_555 1_555
C15_26 C14_26 1_555 1_555
O16_10 C20_26 1_555 1_555
C16_26 C15_26 1_555 1_555
H17_26 C16_26 1_555 1_555
O18_10 C20_26 1_555 1_555
C17_26 C16_26 1_555 1_555
O11_26 N3_26 1_555 1_555
C18_26 C13_26 1_555 1_555
H18_26 C18_26 1_555 1_555
O12_26 N3_26 1_555 1_555
C19_26 C13_26 1_555 1_555
C20_26 C15_26 1_555 1_555
O13 C19_26 1_555 1_555
C17_26 C18_26 1_555 1_555
C13_27 C14_27 1_555 1_555
N3_27 C17_27 1_555 1_555
C14_27 H16_27 1_555 1_555
O14_14 C19_27 1_555 1_555
C15_27 C14_27 1_555 1_555
O16_12 C20_27 1_555 1_555
C16_27 C15_27 1_555 1_555
H17_27 C16_27 1_555 1_555
O18_12 C20_27 1_555 1_555
C17_27 C16_27 1_555 1_555
O11_27 N3_27 1_555 1_555
C18_27 C13_27 1_555 1_555
H18_27 C18_27 1_555 1_555
O12_27 N3_27 1_555 1_555
C19_27 C13_27 1_555 1_555
C20_27 C15_27 1_555 1_555
O13_4 C19_27 1_555 1_555
C17_27 C18_27 1_555 1_555
C13_28 C14_28 1_555 1_555
N3_28 C17_28 1_555 1_555
C14_28 H16_28 1_555 1_555
O14_13 C19_28 1_555 1_555
C15_28 C14_28 1_555 1_555
O16_9 C20_28 1_555 1_555
C16_28 C15_28 1_555 1_555
H17_28 C16_28 1_555 1_555
O18_9 C20_28 1_555 1_555
C17_28 C16_28 1_555 1_555
O11_28 N3_28 1_555 1_555
C18_28 C13_28 1_555 1_555
H18_28 C18_28 1_555 1_555
O12_28 N3_28 1_555 1_555
C19_28 C13_28 1_555 1_555
C20_28 C15_28 1_555 1_555
O13_3 C19_28 1_555 1_555
C17_28 C18_28 1_555 1_555
C13_29 C14_29 1_555 1_555
N3_29 C17_29 1_555 1_555
C14_29 H16_29 1_555 1_555
O14_23 C19_29 1_555 1_555
C15_29 C14_29 1_555 1_555
O16_3 C20_29 1_555 1_555
C16_29 C15_29 1_555 1_555
H17_29 C16_29 1_555 1_555
O18_3 C20_29 1_555 1_555
C17_29 C16_29 1_555 1_555
O11_29 N3_29 1_555 1_555
C18_29 C13_29 1_555 1_555
H18_29 C18_29 1_555 1_555
O12_29 N3_29 1_555 1_555
C19_29 C13_29 1_555 1_555
C20_29 C15_29 1_555 1_555
O13_6 C19_29 1_555 1_555
C17_29 C18_29 1_555 1_555
C13_30 C14_30 1_555 1_555
N3_30 C17_30 1_555 1_555
C14_30 H16_30 1_555 1_555
O14_24 C19_30 1_555 1_555
C15_30 C14_30 1_555 1_555
O16_2 C20_30 1_555 1_555
C16_30 C15_30 1_555 1_555
H17_30 C16_30 1_555 1_555
O18_2 C20_30 1_555 1_555
C17_30 C16_30 1_555 1_555
O11_30 N3_30 1_555 1_555
C18_30 C13_30 1_555 1_555
H18_30 C18_30 1_555 1_555
O12_30 N3_30 1_555 1_555
C19_30 C13_30 1_555 1_555
C20_30 C15_30 1_555 1_555
O13_5 C19_30 1_555 1_555
C17_30 C18_30 1_555 1_555
C13_31 C14_31 1_555 1_555
N3_31 C17_31 1_555 1_555
C14_31 H16_31 1_555 1_555
O14_22 C19_31 1_555 1_555
C15_31 C14_31 1_555 1_555
O16_4 C20_31 1_555 1_555
C16_31 C15_31 1_555 1_555
H17_31 C16_31 1_555 1_555
O18_4 C20_31 1_555 1_555
C17_31 C16_31 1_555 1_555
O11_31 N3_31 1_555 1_555
C18_31 C13_31 1_555 1_555
H18_31 C18_31 1_555 1_555
O12_31 N3_31 1_555 1_555
C19_31 C13_31 1_555 1_555
C20_31 C15_31 1_555 1_555
O13_8 C19_31 1_555 1_555
C17_31 C18_31 1_555 1_555
C13_32 C14_32 1_555 1_555
N3_32 C17_32 1_555 1_555
C14_32 H16_32 1_555 1_555
O14_21 C19_32 1_555 1_555
C15_32 C14_32 1_555 1_555
O16 C20_32 1_555 1_555
C16_32 C15_32 1_555 1_555
H17_32 C16_32 1_555 1_555
O18 C20_32 1_555 1_555
C17_32 C16_32 1_555 1_555
O11_32 N3_32 1_555 1_555
C18_32 C13_32 1_555 1_555
H18_32 C18_32 1_555 1_555
O12_32 N3_32 1_555 1_555
C19_32 C13_32 1_555 1_555
C20_32 C15_32 1_555 1_555
O13_7 C19_32 1_555 1_555
C17_32 C18_32 1_555 1_555
C13_33 C14_33 1_555 1_555
N3_33 C17_33 1_555 1_555
C14_33 H16_33 1_555 1_555
O14_19 C19_33 1_555 1_555
C15_33 C14_33 1_555 1_555
O16_7 C20_33 1_555 1_555
C16_33 C15_33 1_555 1_555
H17_33 C16_33 1_555 1_555
O18_7 C20_33 1_555 1_555
C17_33 C16_33 1_555 1_555
O11_33 N3_33 1_555 1_555
C18_33 C13_33 1_555 1_555
H18_33 C18_33 1_555 1_555
O12_33 N3_33 1_555 1_555
C19_33 C13_33 1_555 1_555
C20_33 C15_33 1_555 1_555
O13_10 C19_33 1_555 1_555
C17_33 C18_33 1_555 1_555
C13_34 C14_34 1_555 1_555
N3_34 C17_34 1_555 1_555
C14_34 H16_34 1_555 1_555
O14_20 C19_34 1_555 1_555
C15_34 C14_34 1_555 1_555
O16_6 C20_34 1_555 1_555
C16_34 C15_34 1_555 1_555
H17_34 C16_34 1_555 1_555
O18_6 C20_34 1_555 1_555
C17_34 C16_34 1_555 1_555
O11_34 N3_34 1_555 1_555
C18_34 C13_34 1_555 1_555
H18_34 C18_34 1_555 1_555
O12_34 N3_34 1_555 1_555
C19_34 C13_34 1_555 1_555
C20_34 C15_34 1_555 1_555
O13_9 C19_34 1_555 1_555
C17_34 C18_34 1_555 1_555
C13_35 C14_35 1_555 1_555
N3_35 C17_35 1_555 1_555
C14_35 H16_35 1_555 1_555
O14_18 C19_35 1_555 1_555
C15_35 C14_35 1_555 1_555
O16_8 C20_35 1_555 1_555
C16_35 C15_35 1_555 1_555
H17_35 C16_35 1_555 1_555
O18_8 C20_35 1_555 1_555
C17_35 C16_35 1_555 1_555
O11_35 N3_35 1_555 1_555
C18_35 C13_35 1_555 1_555
H18_35 C18_35 1_555 1_555
O12_35 N3_35 1_555 1_555
C19_35 C13_35 1_555 1_555
C20_35 C15_35 1_555 1_555
O13_12 C19_35 1_555 1_555
C17_35 C18_35 1_555 1_555
C13_36 C14_36 1_555 1_555
N3_36 C17_36 1_555 1_555
C14_36 H16_36 1_555 1_555
O14_17 C19_36 1_555 1_555
C15_36 C14_36 1_555 1_555
O16_5 C20_36 1_555 1_555
C16_36 C15_36 1_555 1_555
H17_36 C16_36 1_555 1_555
O18_5 C20_36 1_555 1_555
C17_36 C16_36 1_555 1_555
O11_36 N3_36 1_555 1_555
C18_36 C13_36 1_555 1_555
H18_36 C18_36 1_555 1_555
O12_36 N3_36 1_555 1_555
C19_36 C13_36 1_555 1_555
C20_36 C15_36 1_555 1_555
O13_11 C19_36 1_555 1_555
C17_36 C18_36 1_555 1_555

#END
