
###############################################################################
#
# This file contains modified crystal structure data generated from the
# MOF subset of the Cambridge Structural Database (CSD) v543 
# hosted by the Cambridge Crystallographic Data Centre (CCDC).
#
# This work is licensed under the Creative Commons
# Attribution-NonCommercial-ShareAlike 4.0 International License.
# To view a copy of this license, visit
# http://creativecommons.org/licenses/by-nc-sa/4.0/
# or send a letter to
# Creative Commons, PO Box 1866, Mountain View, CA 94042, USA.
#
# CIF created using the CSD Python API on 29 September 2022
# The structure has been converted into the P1 space group
# The structure has a 3D framework
# The original CSD entry FIVYEP is in the monoclinic crystal system
# The framework has been calculated to contain at least 10.0% void space
# The void calculation uses a probe of radius 1.32A, grid spacing 0.4
#
###############################################################################

data_FIVYEP
_chemical_formula_moiety         '(C64 H16 K12 Mg8 O113 U8)n'
_symmetry_cell_setting           triclinic
_symmetry_space_group_name_H-M   'P 1'
_symmetry_Int_Tables_number      1
_space_group_name_Hall           'P 1'
loop_
_symmetry_equiv_pos_site_id
_symmetry_equiv_pos_as_xyz
1 x,y,z
_cell_length_a                   20.437(3)
_cell_length_b                   12.841(4)
_cell_length_c                   14.614(5)
_cell_angle_alpha                90
_cell_angle_beta                 94.52(6)
_cell_angle_gamma                90
_cell_volume                     3823.25
loop_
_atom_site_label
_atom_site_type_symbol
_atom_site_fract_x
_atom_site_fract_y
_atom_site_fract_z
O30 O 0.0398(8) 0.3924(14) 0.5990(19)
H3 H 0.024(6) 0.420(12) 0.650(6)
H4 H 0.082(4) 0.370(18) 0.610(10)
O33 O 0.0589(5) 0.1163(13) 0.5717(8)
K3 K 0.06128(16) -0.0000 0.4090(2)
K4 K 0.21228(19) -0.0000 0.5650(2)
C4 C 0.0860(5) 0.8595(10) 0.6471(8)
C5 C 0.0448(5) 0.8222(9) 0.7239(8)
O2 O 0.0589(5) 0.8837(13) 0.5717(8)
O11 O 0.0773(4) 0.7761(7) 0.7896(6)
O14 O 0.1474(4) 0.8613(7) 0.6699(5)
O15 O 0.0398(8) 0.6076(14) 0.5990(19)
H1 H 0.024(6) 0.580(12) 0.650(6)
H2 H 0.082(4) 0.630(18) 0.610(10)
O22 O 0.0149(4) 0.8383(10) 0.2827(8)
K3_2 K 0.06128(16) 1.0000 0.4090(2)
K4_2 K 0.21228(19) 1.0000 0.5650(2)
U6 U 0.194710(13) 0.75111(2) 0.789040(19)
K1 K 0.93872(16) 0.0000 0.5910(2)
K2 K 0.78772(19) 0.0000 0.4350(2)
C7 C 0.6540(6) 0.0000 0.8138(9)
C8 C 0.7292(7) 0.0000 0.8262(9)
O18 O 0.6265(3) 0.0875(6) 0.8098(6)
O19 O 0.7566(3) 0.0868(5) 0.8305(6)
C13 C 0.7834(5) 0.1690(8) 0.6284(7)
C14 C 0.7121(5) 0.1472(8) 0.5906(7)
O26 O 0.6988(4) 0.1258(9) 0.5089(6)
O27 O 0.8299(4) 0.1332(7) 0.5891(6)
U2 U 0.694710(13) 0.25111(2) 0.789040(19)
O28 O 0.7873(4) 0.2249(7) 0.7001(5)
O29 O 0.6714(4) 0.1544(7) 0.6521(6)
Mg2 Mg 0.9219(3) 0.2909(5) 0.5668(5)
O31 O 0.9851(4) 0.1617(10) 0.7173(8)
O32 O 0.9411(5) 0.1163(13) 0.4283(8)
O34 O 0.6726(3) 0.2161(6) 0.9502(5)
O35 O 0.7899(4) 0.2798(7) 0.9021(5)
O36 O 0.7388(4) 0.0868(5) 0.2412(5)
O38 O 0.7612(4) 0.4132(5) 0.7588(5)
O39 O 0.5773(4) 0.2761(7) 0.7896(6)
O41 O 0.6679(4) 0.4129(6) 0.8753(5)
O42 O 0.6474(4) 0.3613(7) 0.6699(5)
O43 O 0.8526(4) 0.1387(7) 0.3301(5)
C1 C 0.7160(4) 0.7683(7) 0.0139(6)
O7 O 0.7101(4) 0.7798(7) 0.0979(5)
O16 O 0.8274(3) 0.7161(6) 0.0498(5)
U4 U 0.805290(13) 0.75111(2) 0.210960(19)
C2 C 0.7834(5) 0.8310(8) 0.6284(7)
C3 C 0.7121(5) 0.8528(8) 0.5906(7)
O1 O 0.9851(4) 0.8383(10) 0.7173(8)
K1_2 K 0.93872(16) 1.0000 0.5910(2)
O3 O 0.6988(4) 0.8742(9) 0.5089(6)
O4 O 0.8299(4) 0.8668(7) 0.5891(6)
K2_2 K 0.78772(19) 1.0000 0.4350(2)
U1 U 0.694710(13) 0.74889(2) 0.789040(19)
O5 O 0.6265(3) 0.9125(6) 0.8098(6)
O6 O 0.6726(3) 0.7839(6) 0.9502(5)
O8 O 0.7612(4) 0.5868(5) 0.7588(5)
C6 C 0.6881(6) 0.5000 0.8513(9)
O9 O 0.7566(3) 0.9132(5) 0.8305(6)
O10 O 0.7873(4) 0.7751(7) 0.7001(5)
C7_2 C 0.6540(6) 1.0000 0.8138(9)
C8_2 C 0.7292(7) 1.0000 0.8262(9)
O12 O 0.6714(4) 0.8456(7) 0.6521(6)
C9 C 0.7419(6) 0.5000 0.7841(9)
O13 O 0.6679(4) 0.5871(6) 0.8753(5)
Mg1 Mg 0.9219(3) 0.7091(5) 0.5668(5)
C10 C 0.7840(4) 0.7317(7) 0.9861(6)
O17 O 0.7899(4) 0.7202(7) 0.9021(5)
C11 C 0.9140(5) 0.8595(10) 0.3529(8)
C12 C 0.9552(5) 0.8222(9) 0.2761(8)
O23 O 0.9411(5) 0.8837(13) 0.4283(8)
O24 O 0.9227(4) 0.7761(7) 0.2104(6)
O25 O 0.8526(4) 0.8613(7) 0.3301(5)
K5 K 0.71228(19) 0.5000 0.5650(2)
O37 O 0.7388(4) 0.9132(5) 0.2412(5)
O40 O 0.5773(4) 0.7239(7) 0.7896(6)
O44 O 0.6474(4) 0.6387(7) 0.6699(5)
C1_2 C 0.2160(4) 0.2683(7) 0.0139(6)
O7_2 O 0.2101(4) 0.2798(7) 0.0979(5)
O16_2 O 0.3274(3) 0.2161(6) 0.0498(5)
U4_2 U 0.305290(13) 0.25111(2) 0.210960(19)
C2_2 C 0.2834(5) 0.3310(8) 0.6284(7)
C3_2 C 0.2121(5) 0.3528(8) 0.5906(7)
C4_2 C 0.5860(5) 0.3595(10) 0.6471(8)
C5_2 C 0.5448(5) 0.3222(9) 0.7239(8)
O1_2 O 0.4851(4) 0.3383(10) 0.7173(8)
O2_2 O 0.5589(5) 0.3837(13) 0.5717(8)
K1_3 K 0.43872(16) 0.5000 0.5910(2)
O3_2 O 0.1988(4) 0.3742(9) 0.5089(6)
O4_2 O 0.3299(4) 0.3668(7) 0.5891(6)
K2_3 K 0.28772(19) 0.5000 0.4350(2)
U1_2 U 0.194710(13) 0.24889(2) 0.789040(19)
O5_2 O 0.1265(3) 0.4125(6) 0.8098(6)
O6_2 O 0.1726(3) 0.2839(6) 0.9502(5)
O8_2 O 0.2612(4) 0.0868(5) 0.7588(5)
C6_2 C 0.1881(6) 0.0000 0.8513(9)
O9_2 O 0.2566(3) 0.4132(5) 0.8305(6)
O10_2 O 0.2873(4) 0.2751(7) 0.7001(5)
C7_3 C 0.1540(6) 0.5000 0.8138(9)
C8_3 C 0.2292(7) 0.5000 0.8262(9)
O12_2 O 0.1714(4) 0.3456(7) 0.6521(6)
C9_2 C 0.2419(6) 0.0000 0.7841(9)
O13_2 O 0.1679(4) 0.0871(6) 0.8753(5)
Mg1_2 Mg 0.4219(3) 0.2091(5) 0.5668(5)
O15_2 O 0.5398(8) 0.1076(14) 0.5990(19)
H1_2 H 0.524(6) 0.080(12) 0.650(6)
H2_2 H 0.582(4) 0.130(18) 0.610(10)
C10_2 C 0.2840(4) 0.2317(7) 0.9861(6)
O17_2 O 0.2899(4) 0.2202(7) 0.9021(5)
O18_2 O 0.1265(3) 0.5875(6) 0.8098(6)
O19_2 O 0.2566(3) 0.5868(5) 0.8305(6)
C11_2 C 0.4140(5) 0.3595(10) 0.3529(8)
C12_2 C 0.4552(5) 0.3222(9) 0.2761(8)
O22_2 O 0.5149(4) 0.3383(10) 0.2827(8)
O23_2 O 0.4411(5) 0.3837(13) 0.4283(8)
O24_2 O 0.4227(4) 0.2761(7) 0.2104(6)
O25_2 O 0.3526(4) 0.3613(7) 0.3301(5)
C13_2 C 0.2834(5) 0.6690(8) 0.6284(7)
C14_2 C 0.2121(5) 0.6472(8) 0.5906(7)
O26_2 O 0.1988(4) 0.6258(9) 0.5089(6)
O27_2 O 0.3299(4) 0.6332(7) 0.5891(6)
O28_2 O 0.2873(4) 0.7249(7) 0.7001(5)
O29_2 O 0.1714(4) 0.6544(7) 0.6521(6)
Mg2_2 Mg 0.4219(3) 0.7909(5) 0.5668(5)
O30_2 O 0.5398(8) 0.8924(14) 0.5990(19)
H3_2 H 0.524(6) 0.920(12) 0.650(6)
H4_2 H 0.582(4) 0.870(18) 0.610(10)
O31_2 O 0.4851(4) 0.6617(10) 0.7173(8)
O32_2 O 0.4411(5) 0.6163(13) 0.4283(8)
O33_2 O 0.5589(5) 0.6163(13) 0.5717(8)
K3_3 K 0.56128(16) 0.5000 0.4090(2)
O34_2 O 0.1726(3) 0.7161(6) 0.9502(5)
O35_2 O 0.2899(4) 0.7798(7) 0.9021(5)
O36_2 O 0.2388(4) 0.5868(5) 0.2412(5)
O37_2 O 0.2388(4) 0.4132(5) 0.2412(5)
O38_2 O 0.2612(4) 0.9132(5) 0.7588(5)
O40_2 O 0.0773(4) 0.2239(7) 0.7896(6)
O41_2 O 0.1679(4) 0.9129(6) 0.8753(5)
O43_2 O 0.3526(4) 0.6387(7) 0.3301(5)
O44_2 O 0.1474(4) 0.1387(7) 0.6699(5)
C6_3 C 0.1881(6) 1.0000 0.8513(9)
C9_3 C 0.2419(6) 1.0000 0.7841(9)
C7_4 C 0.3460(6) 0.0000 0.1862(9)
C8_4 C 0.2708(7) -0.0000 0.1738(9)
O18_3 O 0.3735(3) 0.0875(6) 0.1902(6)
O19_3 O 0.2434(3) 0.0868(5) 0.1695(6)
C13_3 C 0.2166(5) 0.1690(8) 0.3716(7)
C14_3 C 0.2879(5) 0.1472(8) 0.4094(7)
O26_3 O 0.3012(4) 0.1258(9) 0.4911(6)
O27_3 O 0.1701(4) 0.1332(7) 0.4109(6)
O28_3 O 0.2127(4) 0.2249(7) 0.2999(5)
O29_3 O 0.3286(4) 0.1544(7) 0.3479(6)
Mg2_3 Mg 0.0781(3) 0.2909(5) 0.4332(5)
O31_3 O 0.0149(4) 0.1617(10) 0.2827(8)
O41_3 O 0.3321(4) 0.4129(6) 0.1247(5)
C2_3 C 0.2166(5) 0.8310(8) 0.3716(7)
C3_3 C 0.2879(5) 0.8528(8) 0.4094(7)
O3_3 O 0.3012(4) 0.8742(9) 0.4911(6)
O4_3 O 0.1701(4) 0.8668(7) 0.4109(6)
U1_3 U 0.305290(13) 0.74889(2) 0.210960(19)
O5_3 O 0.3735(3) 0.9125(6) 0.1902(6)
O6_3 O 0.3274(3) 0.7839(6) 0.0498(5)
C6_4 C 0.3119(6) 0.5000 0.1487(9)
O9_3 O 0.2434(3) 0.9132(5) 0.1695(6)
O10_3 O 0.2127(4) 0.7751(7) 0.2999(5)
C7_5 C 0.3460(6) 1.0000 0.1862(9)
C8_5 C 0.2708(7) 1.0000 0.1738(9)
O12_3 O 0.3286(4) 0.8456(7) 0.3479(6)
C9_4 C 0.2581(6) 0.5000 0.2159(9)
O13_3 O 0.3321(4) 0.5871(6) 0.1247(5)
Mg1_3 Mg 0.0781(3) 0.7091(5) 0.4332(5)
C10_3 C 0.2160(4) 0.7317(7) 0.0139(6)
O17_3 O 0.2101(4) 0.7202(7) 0.0979(5)
O40_3 O 0.4227(4) 0.7239(7) 0.2104(6)
C1_3 C 0.2840(4) 0.7683(7) 0.9861(6)
O30_3 O 0.9602(8) 0.3924(14) 0.4010(19)
H3_3 H 0.976(6) 0.420(12) 0.350(6)
H4_3 H 0.918(4) 0.370(18) 0.390(10)
O15_3 O 0.9602(8) 0.6076(14) 0.4010(19)
H1_3 H 0.976(6) 0.580(12) 0.350(6)
H2_3 H 0.918(4) 0.630(18) 0.390(10)
C2_4 C 0.7166(5) 0.3310(8) 0.3716(7)
C3_4 C 0.7879(5) 0.3528(8) 0.4094(7)
O3_4 O 0.8012(4) 0.3742(9) 0.4911(6)
O4_4 O 0.6701(4) 0.3668(7) 0.4109(6)
U1_4 U 0.805290(13) 0.24889(2) 0.210960(19)
O5_4 O 0.8735(3) 0.4125(6) 0.1902(6)
O6_4 O 0.8274(3) 0.2839(6) 0.0498(5)
C6_5 C 0.8119(6) 0.0000 0.1487(9)
O9_4 O 0.7434(3) 0.4132(5) 0.1695(6)
O10_4 O 0.7127(4) 0.2751(7) 0.2999(5)
C7_6 C 0.8460(6) 0.5000 0.1862(9)
C8_6 C 0.7708(7) 0.5000 0.1738(9)
O12_4 O 0.8286(4) 0.3456(7) 0.3479(6)
C9_5 C 0.7581(6) 0.0000 0.2159(9)
O13_4 O 0.8321(4) 0.0871(6) 0.1247(5)
Mg1_4 Mg 0.5781(3) 0.2091(5) 0.4332(5)
O15_4 O 0.4602(8) 0.1076(14) 0.4010(19)
H1_4 H 0.476(6) 0.080(12) 0.350(6)
H2_4 H 0.418(4) 0.130(18) 0.390(10)
C10_4 C 0.7160(4) 0.2317(7) 0.0139(6)
O17_4 O 0.7101(4) 0.2202(7) 0.0979(5)
O18_4 O 0.8735(3) 0.5875(6) 0.1902(6)
O19_4 O 0.7434(3) 0.5868(5) 0.1695(6)
C13_4 C 0.7166(5) 0.6690(8) 0.3716(7)
C14_4 C 0.7879(5) 0.6472(8) 0.4094(7)
O26_4 O 0.8012(4) 0.6258(9) 0.4911(6)
O27_4 O 0.6701(4) 0.6332(7) 0.4109(6)
O28_4 O 0.7127(4) 0.7249(7) 0.2999(5)
O29_4 O 0.8286(4) 0.6544(7) 0.3479(6)
Mg2_4 Mg 0.5781(3) 0.7909(5) 0.4332(5)
O30_4 O 0.4602(8) 0.8924(14) 0.4010(19)
H3_4 H 0.476(6) 0.920(12) 0.350(6)
H4_4 H 0.418(4) 0.870(18) 0.390(10)
O31_4 O 0.5149(4) 0.6617(10) 0.2827(8)
O40_4 O 0.9227(4) 0.2239(7) 0.2104(6)
O41_4 O 0.8321(4) 0.9129(6) 0.1247(5)
C1_4 C 0.7840(4) 0.2683(7) 0.9861(6)
C6_6 C 0.8119(6) 1.0000 0.1487(9)
C9_6 C 0.7581(6) 1.0000 0.2159(9)
C11_3 C 0.0860(5) 0.1405(10) 0.6471(8)
C12_3 C 0.0448(5) 0.1778(9) 0.7239(8)
C4_3 C 0.9140(5) 0.1405(10) 0.3529(8)
C5_3 C 0.9552(5) 0.1778(9) 0.2761(8)
C4_4 C 0.4140(5) 0.6405(10) 0.3529(8)
C5_4 C 0.4552(5) 0.6778(9) 0.2761(8)
C11_4 C 0.5860(5) 0.6405(10) 0.6471(8)
C12_4 C 0.5448(5) 0.6778(9) 0.7239(8)
loop_
_geom_bond_atom_site_label_1
_geom_bond_atom_site_label_2
_geom_bond_site_symmetry_1
_geom_bond_site_symmetry_2
H3 O30 1_555 1_555
H4 O30 1_555 1_555
O33 K3 1_555 1_555
C4 C5 1_555 1_555
O2 C4 1_555 1_555
O11 C5 1_555 1_555
O14 C4 1_555 1_555
H1 O15 1_555 1_555
H2 O15 1_555 1_555
O22 K3_2 1_555 1_555
K3_2 O2 1_555 1_555
K4_2 O14 1_555 1_555
U6 O11 1_555 1_555
O14 U6 1_555 1_555
C7 C8 1_555 1_555
O18 C7 1_555 1_555
O19 C8 1_555 1_555
C13 C14 1_555 1_555
C14 O26 1_555 1_555
O26 K2 1_555 1_555
O27 K1 1_555 1_555
U2 O18 1_555 1_555
O28 C13 1_555 1_555
O29 C14 1_555 1_555
Mg2 O27 1_555 1_555
O31 K1 1_555 1_555
O32 K1 1_555 1_555
O34 U2 1_555 1_555
O35 U2 1_555 1_555
O36 K2 1_555 1_555
O38 U2 1_555 1_555
O39 U2 1_555 1_555
O41 U2 1_555 1_555
O42 U2 1_555 1_555
O43 K2 1_555 1_555
K2 O27 1_555 1_555
O19 U2 1_555 1_555
C13 O27 1_555 1_555
U2 O28 1_555 1_555
U2 O29 1_555 1_555
O7 C1 1_555 1_555
U4 O7 1_555 1_555
O16 U4 1_555 1_555
C2 C3 1_555 1_555
C3 O3 1_555 1_555
O1 K1_2 1_555 1_555
O3 K2_2 1_555 1_555
O4 C2 1_555 1_555
K2_2 O4 1_555 1_555
U1 O5 1_555 1_555
O5 C7_2 1_555 1_555
O6 U1 1_555 1_555
O8 U1 1_555 1_555
C6 C9 1_555 1_555
O9 U1 1_555 1_555
O10 C2 1_555 1_555
C7_2 C8_2 1_555 1_555
C8_2 O9 1_555 1_555
O12 C3 1_555 1_555
C9 O8 1_555 1_555
O13 U1 1_555 1_555
Mg1 O4 1_555 1_555
O17 U1 1_555 1_555
O38 C9 1_555 1_555
O41 C6 1_555 1_555
C11 C12 1_555 1_555
O23 K1_2 1_555 1_555
O24 C12 1_555 1_555
O25 K2_2 1_555 1_555
K5 O8 1_555 1_555
U4 O24 1_555 1_555
O37 K2_2 1_555 1_555
O40 U1 1_555 1_555
O44 U1 1_555 1_555
K1_2 O4 1_555 1_555
U1 O10 1_555 1_555
U1 O12 1_555 1_555
C6 O13 1_555 1_555
C10 O17 1_555 1_555
O38 K5 1_555 1_555
C11 O23 1_555 1_555
C11 O25 1_555 1_555
O25 U4 1_555 1_555
K5 O44 1_555 1_555
U4 O37 1_555 1_555
O7_2 C1_2 1_555 1_555
U4_2 O7_2 1_555 1_555
O16_2 U4_2 1_555 1_555
C2_2 C3_2 1_555 1_555
C3_2 O3_2 1_555 1_555
C4_2 C5_2 1_555 1_555
C5_2 O1_2 1_555 1_555
O1_2 K1_3 1_555 1_555
O2_2 C4_2 1_555 1_555
K1_3 O2_2 1_555 1_555
O3_2 K2_3 1_555 1_555
O4_2 C2_2 1_555 1_555
K2_3 O4_2 1_555 1_555
U1_2 O5_2 1_555 1_555
O5_2 C7_3 1_555 1_555
O6_2 U1_2 1_555 1_555
O8_2 U1_2 1_555 1_555
C6_2 C9_2 1_555 1_555
O9_2 U1_2 1_555 1_555
O10_2 C2_2 1_555 1_555
C7_3 C8_3 1_555 1_555
O39 C5_2 1_555 1_555
C8_3 O9_2 1_555 1_555
O12_2 C3_2 1_555 1_555
C9_2 O8_2 1_555 1_555
O13_2 U1_2 1_555 1_555
O42 C4_2 1_555 1_555
Mg1_2 O4_2 1_555 1_555
O15_2 Mg1_2 1_555 1_555
H1_2 O15_2 1_555 1_555
H2_2 O15_2 1_555 1_555
O17_2 U1_2 1_555 1_555
O18_2 C7_3 1_555 1_555
O19_2 C8_3 1_555 1_555
C11_2 C12_2 1_555 1_555
C12_2 O22_2 1_555 1_555
O22_2 K3_3 1_555 1_555
O23_2 K1_3 1_555 1_555
O24_2 C12_2 1_555 1_555
O25_2 K2_3 1_555 1_555
C13_2 C14_2 1_555 1_555
C14_2 O26_2 1_555 1_555
O26_2 K2_3 1_555 1_555
O27_2 K1_3 1_555 1_555
U6 O18_2 1_555 1_555
O28_2 C13_2 1_555 1_555
O29_2 C14_2 1_555 1_555
Mg2_2 O27_2 1_555 1_555
O30_2 Mg2_2 1_555 1_555
H3_2 O30_2 1_555 1_555
H4_2 O30_2 1_555 1_555
O31_2 K1_3 1_555 1_555
O32_2 K1_3 1_555 1_555
O33_2 K1_3 1_555 1_555
K3_3 O2_2 1_555 1_555
K5 O42 1_555 1_555
K4 O8_2 1_555 1_555
U4_2 O24_2 1_555 1_555
O34_2 U6 1_555 1_555
O35_2 U6 1_555 1_555
O36_2 K2_3 1_555 1_555
O37_2 K2_3 1_555 1_555
O38_2 U6 1_555 1_555
O40_2 U1_2 1_555 1_555
O41_2 U6 1_555 1_555
O43_2 K2_3 1_555 1_555
O44_2 U1_2 1_555 1_555
K1_3 O4_2 1_555 1_555
K2_3 O27_2 1_555 1_555
U1_2 O10_2 1_555 1_555
U1_2 O12_2 1_555 1_555
C6_2 O13_2 1_555 1_555
C10_2 O17_2 1_555 1_555
O19_2 U6 1_555 1_555
C11_2 O23_2 1_555 1_555
C11_2 O25_2 1_555 1_555
O23_2 K3_3 1_555 1_555
O25_2 U4_2 1_555 1_555
C13_2 O27_2 1_555 1_555
U6 O28_2 1_555 1_555
U6 O29_2 1_555 1_555
O32_2 K3_3 1_555 1_555
O33_2 K3_3 1_555 1_555
K4 O44_2 1_555 1_555
U4_2 O37_2 1_555 1_555
C6_3 C9_3 1_555 1_555
O38_2 C9_3 1_555 1_555
O41_2 C6_3 1_555 1_555
O38_2 K4_2 1_555 1_555
C7_4 C8_4 1_555 1_555
O18_3 C7_4 1_555 1_555
O19_3 C8_4 1_555 1_555
C13_3 C14_3 1_555 1_555
C14_3 O26_3 1_555 1_555
O26_3 K4 1_555 1_555
O27_3 K3 1_555 1_555
U4_2 O18_3 1_555 1_555
O28_3 C13_3 1_555 1_555
O29_3 C14_3 1_555 1_555
Mg2_3 O27_3 1_555 1_555
O31_3 K3 1_555 1_555
O41_3 U4_2 1_555 1_555
K4 O27_3 1_555 1_555
O19_3 U4_2 1_555 1_555
C13_3 O27_3 1_555 1_555
U4_2 O28_3 1_555 1_555
U4_2 O29_3 1_555 1_555
C2_3 C3_3 1_555 1_555
C3_3 O3_3 1_555 1_555
O3_3 K4_2 1_555 1_555
O4_3 C2_3 1_555 1_555
K4_2 O4_3 1_555 1_555
U1_3 O5_3 1_555 1_555
O5_3 C7_5 1_555 1_555
O6_3 U1_3 1_555 1_555
O36_2 U1_3 1_555 1_555
C6_4 C9_4 1_555 1_555
O9_3 U1_3 1_555 1_555
O10_3 C2_3 1_555 1_555
C7_5 C8_5 1_555 1_555
C8_5 O9_3 1_555 1_555
O12_3 C3_3 1_555 1_555
C9_4 O36_2 1_555 1_555
O13_3 U1_3 1_555 1_555
Mg1_3 O4_3 1_555 1_555
O17_3 U1_3 1_555 1_555
O37_2 C9_4 1_555 1_555
O41_3 C6_4 1_555 1_555
O40_3 U1_3 1_555 1_555
O43_2 U1_3 1_555 1_555
K3_2 O4_3 1_555 1_555
U1_3 O10_3 1_555 1_555
U1_3 O12_3 1_555 1_555
C6_4 O13_3 1_555 1_555
C10_3 O17_3 1_555 1_555
O35_2 C1_3 1_555 1_555
H3_3 O30_3 1_555 1_555
H4_3 O30_3 1_555 1_555
H1_3 O15_3 1_555 1_555
H2_3 O15_3 1_555 1_555
C2_4 C3_4 1_555 1_555
C3_4 O3_4 1_555 1_555
O3_4 K5 1_555 1_555
O4_4 C2_4 1_555 1_555
K5 O4_4 1_555 1_555
U1_4 O5_4 1_555 1_555
O5_4 C7_6 1_555 1_555
O6_4 U1_4 1_555 1_555
O36 U1_4 1_555 1_555
C6_5 C9_5 1_555 1_555
O9_4 U1_4 1_555 1_555
O10_4 C2_4 1_555 1_555
C7_6 C8_6 1_555 1_555
C8_6 O9_4 1_555 1_555
O12_4 C3_4 1_555 1_555
C9_5 O36 1_555 1_555
O13_4 U1_4 1_555 1_555
Mg1_4 O4_4 1_555 1_555
O15_4 Mg1_4 1_555 1_555
H1_4 O15_4 1_555 1_555
H2_4 O15_4 1_555 1_555
O17_4 U1_4 1_555 1_555
O18_4 C7_6 1_555 1_555
O19_4 C8_6 1_555 1_555
C13_4 C14_4 1_555 1_555
C14_4 O26_4 1_555 1_555
O26_4 K5 1_555 1_555
O27_4 K3_3 1_555 1_555
U4 O18_4 1_555 1_555
O28_4 C13_4 1_555 1_555
O29_4 C14_4 1_555 1_555
Mg2_4 O27_4 1_555 1_555
O30_4 Mg2_4 1_555 1_555
H3_4 O30_4 1_555 1_555
H4_4 O30_4 1_555 1_555
O31_4 K3_3 1_555 1_555
O40_4 U1_4 1_555 1_555
O41_4 U4 1_555 1_555
O43 U1_4 1_555 1_555
K3_3 O4_4 1_555 1_555
K5 O27_4 1_555 1_555
U1_4 O10_4 1_555 1_555
U1_4 O12_4 1_555 1_555
C6_5 O13_4 1_555 1_555
C10_4 O17_4 1_555 1_555
O19_4 U4 1_555 1_555
C13_4 O27_4 1_555 1_555
U4 O28_4 1_555 1_555
U4 O29_4 1_555 1_555
O35 C1_4 1_555 1_555
C6_6 C9_6 1_555 1_555
O37 C9_6 1_555 1_555
O41_4 C6_6 1_555 1_555
C11_3 C12_3 1_555 1_555
O40_2 C12_3 1_555 1_555
C11_3 O33 1_555 1_555
C11_3 O44_2 1_555 1_555
C4_3 C5_3 1_555 1_555
O32 C4_3 1_555 1_555
O40_4 C5_3 1_555 1_555
O43 C4_3 1_555 1_555
C4_4 C5_4 1_555 1_555
C5_4 O31_4 1_555 1_555
O32_2 C4_4 1_555 1_555
O40_3 C5_4 1_555 1_555
O43_2 C4_4 1_555 1_555
C11_4 C12_4 1_555 1_555
C12_4 O31_2 1_555 1_555
O40 C12_4 1_555 1_555
C11_4 O33_2 1_555 1_555
C11_4 O44 1_555 1_555

#END
