
###############################################################################
#
# This file contains modified crystal structure data generated from the
# MOF subset of the Cambridge Structural Database (CSD) v543 
# hosted by the Cambridge Crystallographic Data Centre (CCDC).
#
# This work is licensed under the Creative Commons
# Attribution-NonCommercial-ShareAlike 4.0 International License.
# To view a copy of this license, visit
# http://creativecommons.org/licenses/by-nc-sa/4.0/
# or send a letter to
# Creative Commons, PO Box 1866, Mountain View, CA 94042, USA.
#
# CIF created using the CSD Python API on 29 September 2022
# The structure has been converted into the P1 space group
# The structure has a 3D framework
# The original CSD entry FIVYUF is in the monoclinic crystal system
# The framework has been calculated to contain at least 10.0% void space
# The void calculation uses a probe of radius 1.32A, grid spacing 0.4
#
###############################################################################

data_FIVYUF
_chemical_formula_moiety         '(C180 H252 N11 O45 Sn12)n'
_symmetry_cell_setting           triclinic
_symmetry_space_group_name_H-M   'P 1'
_symmetry_Int_Tables_number      1
_space_group_name_Hall           'P 1'
loop_
_symmetry_equiv_pos_site_id
_symmetry_equiv_pos_as_xyz
1 x,y,z
_cell_length_a                   26.594(4)
_cell_length_b                   9.5792(14)
_cell_length_c                   24.200(4)
_cell_angle_alpha                90
_cell_angle_beta                 114.730(3)
_cell_angle_gamma                90
_cell_volume                     5599.54
loop_
_atom_site_label
_atom_site_type_symbol
_atom_site_fract_x
_atom_site_fract_y
_atom_site_fract_z
H22 H 0.7427 0.0401 0.0076
C42 C 0.4003(6) 0.1217(15) 0.0241(7)
H55 H 0.4326 0.0671 0.0261
H56 H 0.4089 0.1568 0.0656
C43 C 0.3504(7) 0.0247(17) 0.0050(8)
H57 H 0.3212 0.0706 0.0139
Sn4 Sn 0.62842(4) 0.22341(11) 0.00482(4)
N5 N 0.4508(4) 0.4427(12) 0.0480(5)
Sn1 Sn 0.45041(4) 0.16473(9) 0.76583(4)
N1 N 0.3526(5) 0.1882(12) 0.7416(5)
O1 O 0.4326(4) 0.0798(9) 0.8421(4)
O2 O 0.3819(4) 0.1202(10) 0.8957(4)
O3 O 0.1632(4) 0.2173(10) 0.6091(4)
O4 O 0.2208(4) 0.3202(10) 0.5790(4)
C1 C 0.3113(5) 0.2259(14) 0.6883(6)
H1 H 0.3195 0.2497 0.6548
C2 C 0.2572(5) 0.2302(14) 0.6818(6)
C3 C 0.2447(5) 0.1985(15) 0.7306(6)
H2 H 0.2074 0.1942 0.7259
C4 C 0.2881(6) 0.1734(16) 0.7860(6)
H3 H 0.2816 0.1662 0.8216
C5 C 0.3411(5) 0.1587(14) 0.7898(6)
C6 C 0.3887(6) 0.1157(14) 0.8460(6)
C7 C 0.2107(6) 0.2596(15) 0.6197(6)
C8 C 0.4629(6) 0.3604(15) 0.8129(6)
H4 H 0.4265 0.4075 0.7993
H5 H 0.4759 0.3406 0.8568
C9 C 0.5030(6) 0.4614(15) 0.8050(7)
H6 H 0.4892 0.4905 0.7619
H7 H 0.5395 0.4161 0.8168
C10 C 0.5089(6) 0.5917(16) 0.8464(7)
H8 H 0.4718 0.6326 0.8358
H9 H 0.5239 0.5616 0.8894
C11 C 0.5465(7) 0.7021(17) 0.8392(8)
H10 H 0.5809 0.6584 0.8422
H11 H 0.5551 0.7723 0.8713
H12 H 0.5279 0.7471 0.7994
H13 H 0.4141 0.0035 0.6708
Sn2 Sn 0.12842(4) 0.27659(11) 0.50482(4)
N2 N 0.6643(5) 0.0769(12) 0.9477(5)
O5 O 0.5661(4) 0.2043(9) 0.9084(4)
O6 O 0.5346(4) 0.0826(10) 0.8203(4)
C16 C 0.7159(6) 0.0192(14) 0.9678(6)
C20 C 0.6267(5) 0.0463(14) 0.8916(6)
C21 C 0.5716(6) 0.1155(14) 0.8734(6)
C23 C 0.0986(6) 0.4556(15) 0.5328(6)
H25 H 0.0883 0.4273 0.5660
H26 H 0.1296 0.5227 0.5503
C24 C 0.0488(6) 0.5336(15) 0.4844(7)
H27 H 0.0189 0.4661 0.4623
H28 H 0.0603 0.5779 0.4545
C25 C 0.0267(6) 0.6471(17) 0.5143(7)
H29 H 0.0173 0.6039 0.5459
H30 H 0.0557 0.7182 0.5341
C27 C 0.1572(6) 0.0925(14) 0.4812(7)
H34 H 0.1259 0.0470 0.4475
H35 H 0.1851 0.1175 0.4656
H36 H 0.2166 0.0292 0.5655
Sn3 Sn 0.38919(3) 0.29486(9) 0.96560(4)
N3 N 0.4508(4) 0.5573(12) 0.5480(5)
O9 O 0.4776(4) 0.7292(10) 0.4764(4)
O10 O 0.5632(4) 0.6391(10) 0.5121(4)
O11 O 0.4998(4) 0.2341(10) 0.7112(4)
O12 O 0.4134(4) 0.3076(10) 0.6693(4)
C31 C 0.4370(6) 0.4739(14) 0.5840(6)
H43 H 0.3996 0.4708 0.5789
C32 C 0.4764(5) 0.3919(14) 0.6287(6)
C33 C 0.5302(5) 0.3906(15) 0.6324(6)
H44 H 0.5574 0.3327 0.6616
C34 C 0.5441(6) 0.4697(15) 0.5953(6)
H45 H 0.5809 0.4703 0.5983
C35 C 0.5025(6) 0.5519(14) 0.5516(6)
C36 C 0.5151(6) 0.6476(14) 0.5102(6)
C37 C 0.4620(6) 0.3067(14) 0.6719(6)
C38 C 0.3817(6) 0.4519(14) 0.8996(6)
H46 H 0.4192 0.4896 0.9093
H47 H 0.3689 0.4061 0.8593
C39 C 0.3427(6) 0.5770(15) 0.8936(7)
H48 H 0.3054 0.5420 0.8864
H49 H 0.3572 0.6314 0.9319
C40 C 0.3385(6) 0.6724(16) 0.8401(7)
H50 H 0.3758 0.7063 0.8468
H51 H 0.3233 0.6188 0.8016
C41 C 0.3004(7) 0.7978(16) 0.8356(8)
H52 H 0.2621 0.7652 0.8215
H53 H 0.3027 0.8661 0.8066
H54 H 0.3121 0.8414 0.8757
H58 H 0.3353 0.0097 0.9605
Sn5 Sn 0.62842(4) 0.77659(11) 0.50482(4)
N4 N 0.1643(5) 0.4231(12) 0.4477(5)
O13 O 0.0661(4) 0.2957(9) 0.4084(4)
O14 O 0.2933(4) 0.2768(10) 0.9176(4)
O15 O 0.3263(4) 0.4106(10) 0.9985(4)
Sn7 Sn 0.38919(3) 0.70514(9) 0.46560(4)
O16 O 0.4776(4) 0.2708(10) 0.9764(4)
O17 O 0.0632(4) 0.1391(10) 0.5121(4)
C12 C 0.4328(6) 0.9770(14) 0.7142(7)
H14 H 0.4687 0.9347 0.7204
C13 C 0.3984(7) 0.8635(16) 0.7249(8)
H15 H 0.3621 0.9027 0.7190
H16 H 0.4172 0.8310 0.7676
C14 C 0.3892(7) 0.7403(16) 0.6828(8)
H17 H 0.3694 0.7734 0.6403
H18 H 0.4258 0.7049 0.6875
C15 C 0.3570(8) 0.6206(18) 0.6924(8)
H19 H 0.3690 0.6052 0.7362
H20 H 0.3638 0.5359 0.6738
H21 H 0.3174 0.6427 0.6737
O7 O 0.7933(4) 0.7768(10) 0.9176(4)
O8 O 0.8263(4) 0.9106(10) 0.9985(4)
C17 C 0.7298(5) 0.9303(14) 0.9309(6)
C18 C 0.6891(5) 0.8981(16) 0.8723(6)
H23 H 0.6972 0.8365 0.8464
C19 C 0.6378(6) 0.9571(15) 0.8534(6)
H24 H 0.6099 0.9368 0.8141
C22 C 0.7864(6) 0.8660(15) 0.9513(6)
C28 C 0.1835(7) 0.9856(17) 0.5334(8)
H37 H 0.1567 0.9675 0.5512
C29 C 0.2001(7) 0.8507(15) 0.5174(7)
H38 H 0.2249 0.8675 0.4970
H39 H 0.1667 0.8018 0.4883
C30 C 0.2291(8) 0.7589(17) 0.5717(8)
H40 H 0.2648 0.8006 0.5980
H41 H 0.2352 0.6667 0.5581
H42 H 0.2062 0.7494 0.5944
H63 H 0.2990 0.7687 0.9750
Sn6 Sn 0.88919(3) 0.79486(9) 0.96560(4)
C12_2 C 0.4328(6) 0.0230(14) 0.2142(7)
H14_2 H 0.4687 0.0653 0.2204
C13_2 C 0.3984(7) 0.1365(16) 0.2249(8)
H15_2 H 0.3621 0.0973 0.2190
H16_2 H 0.4172 0.1690 0.2676
C14_2 C 0.3892(7) 0.2597(16) 0.1828(8)
H17_2 H 0.3694 0.2266 0.1403
H18_2 H 0.4258 0.2951 0.1875
C15_2 C 0.3570(8) 0.3794(18) 0.1924(8)
H19_2 H 0.3690 0.3948 0.2362
H20_2 H 0.3638 0.4641 0.1738
H21_2 H 0.3174 0.3573 0.1737
O7_2 O 0.7933(4) 0.2232(10) 0.4176(4)
O8_2 O 0.8263(4) 0.0894(10) 0.4985(4)
C17_2 C 0.7298(5) 0.0697(14) 0.4309(6)
C18_2 C 0.6891(5) 0.1019(16) 0.3723(6)
H23_2 H 0.6972 0.1635 0.3464
C19_2 C 0.6378(6) 0.0429(15) 0.3534(6)
H24_2 H 0.6099 0.0632 0.3141
C22_2 C 0.7864(6) 0.1340(15) 0.4513(6)
C28_2 C 0.1835(7) 0.0144(17) 0.0334(8)
H37_2 H 0.1567 0.0325 0.0512
C29_2 C 0.2001(7) 0.1493(15) 0.0174(7)
C30_2 C 0.2291(8) 0.2411(17) 0.0717(8)
H40_2 H 0.2648 0.1994 0.0980
H41_2 H 0.2352 0.3333 0.0581
H42_2 H 0.2062 0.2506 0.0944
C44 C 0.3637(7) 0.1132(16) 0.5362(7)
H59 H 0.3797 0.0977 0.5807
H60 H 0.3923 0.1596 0.5265
C45 C 0.3139(8) 0.2108(18) 0.5186(8)
H61 H 0.2852 0.1657 0.5279
H62 H 0.3254 0.2980 0.5417
H63_2 H 0.2990 0.2313 0.4750
Sn6_2 Sn 0.88919(3) 0.20514(9) 0.46560(4)
Sn1_2 Sn 0.45041(4) 0.83527(9) 0.26583(4)
N1_2 N 0.3526(5) 0.8118(12) 0.2416(5)
O1_2 O 0.4326(4) 0.9202(9) 0.3421(4)
O2_2 O 0.3819(4) 0.8798(10) 0.3957(4)
O3_2 O 0.1632(4) 0.7827(10) 0.1091(4)
O4_2 O 0.2208(4) 0.6798(10) 0.0790(4)
C1_2 C 0.3113(5) 0.7741(14) 0.1883(6)
H1_2 H 0.3195 0.7503 0.1548
C2_2 C 0.2572(5) 0.7698(14) 0.1818(6)
C3_2 C 0.2447(5) 0.8015(15) 0.2306(6)
H2_2 H 0.2074 0.8058 0.2259
C4_2 C 0.2881(6) 0.8266(16) 0.2860(6)
H3_2 H 0.2816 0.8338 0.3216
C5_2 C 0.3411(5) 0.8413(14) 0.2898(6)
C6_2 C 0.3887(6) 0.8843(14) 0.3460(6)
C7_2 C 0.2107(6) 0.7404(15) 0.1197(6)
C8_2 C 0.4629(6) 0.6396(15) 0.3129(6)
H4_2 H 0.4265 0.5925 0.2993
H5_2 H 0.4759 0.6594 0.3568
C9_2 C 0.5030(6) 0.5386(15) 0.3050(7)
H6_2 H 0.4892 0.5095 0.2619
H7_2 H 0.5395 0.5839 0.3168
C10_2 C 0.5089(6) 0.4083(16) 0.3464(7)
H8_2 H 0.4718 0.3674 0.3358
H9_2 H 0.5239 0.4384 0.3894
C11_2 C 0.5465(7) 0.2979(17) 0.3392(8)
H10_2 H 0.5809 0.3416 0.3422
H11_2 H 0.5551 0.2277 0.3713
H12_2 H 0.5279 0.2529 0.2994
H13_2 H 0.4141 0.9965 0.1708
Sn2_2 Sn 0.12842(4) 0.72341(11) 0.00482(4)
N2_2 N 0.6643(5) 0.9231(12) 0.4477(5)
O5_2 O 0.5661(4) 0.7957(9) 0.4084(4)
O6_2 O 0.5346(4) 0.9174(10) 0.3203(4)
C16_2 C 0.7159(6) 0.9808(14) 0.4678(6)
H22_2 H 0.7427 0.9599 0.5076
C20_2 C 0.6267(5) 0.9537(14) 0.3916(6)
C21_2 C 0.5716(6) 0.8845(14) 0.3734(6)
C23_2 C 0.0986(6) 0.5444(15) 0.0328(6)
H25_2 H 0.0883 0.5727 0.0660
H26_2 H 0.1296 0.4773 0.0503
C25_2 C 0.0267(6) 0.3529(17) 0.0143(7)
H29_2 H 0.0173 0.3961 0.0459
H30_2 H 0.0557 0.2818 0.0341
H36_2 H 0.2166 0.9708 0.0655
O10_2 O 0.5632(4) 0.3609(10) 0.0121(4)
O11_2 O 0.4998(4) 0.7659(10) 0.2112(4)
O12_2 O 0.4134(4) 0.6924(10) 0.1693(4)
C31_2 C 0.4370(6) 0.5261(14) 0.0840(6)
H43_2 H 0.3996 0.5292 0.0789
C32_2 C 0.4764(5) 0.6081(14) 0.1287(6)
C33_2 C 0.5302(5) 0.6094(15) 0.1324(6)
H44_2 H 0.5574 0.6673 0.1616
C34_2 C 0.5441(6) 0.5303(15) 0.0953(6)
H45_2 H 0.5809 0.5297 0.0983
C35_2 C 0.5025(6) 0.4481(14) 0.0516(6)
C36_2 C 0.5151(6) 0.3524(14) 0.0102(6)
C37_2 C 0.4620(6) 0.6933(14) 0.1719(6)
C38_2 C 0.3817(6) 0.5481(14) 0.3996(6)
H46_2 H 0.4192 0.5104 0.4093
H47_2 H 0.3689 0.5939 0.3593
C39_2 C 0.3427(6) 0.4230(15) 0.3936(7)
H48_2 H 0.3054 0.4580 0.3864
H49_2 H 0.3572 0.3686 0.4319
C40_2 C 0.3385(6) 0.3276(16) 0.3401(7)
H50_2 H 0.3758 0.2937 0.3468
H51_2 H 0.3233 0.3812 0.3016
C41_2 C 0.3004(7) 0.2022(16) 0.3356(8)
H52_2 H 0.2621 0.2348 0.3215
H53_2 H 0.3027 0.1339 0.3066
H54_2 H 0.3121 0.1586 0.3757
C42_2 C 0.4003(6) 0.8783(15) 0.5241(7)
H55_2 H 0.4326 0.9329 0.5261
H56_2 H 0.4089 0.8432 0.5656
C43_2 C 0.3504(7) 0.9753(17) 0.5050(8)
H57_2 H 0.3212 0.9294 0.5139
H58_2 H 0.3353 0.9903 0.4605
O14_2 O 0.2933(4) 0.7232(10) 0.4176(4)
O15_2 O 0.3263(4) 0.5894(10) 0.4985(4)
O17_2 O 0.0632(4) 0.8609(10) 0.0121(4)
C24_2 C 0.0488(6) 0.4664(15) 0.9844(7)
H27_2 H 0.0189 0.5339 0.9623
H28_2 H 0.0603 0.4221 0.9545
C27_2 C 0.1572(6) 0.9075(14) 0.9812(7)
H34_2 H 0.1259 0.9530 0.9475
H35_2 H 0.1851 0.8825 0.9656
N4_2 N 0.1643(5) 0.5769(12) 0.9477(5)
O13_2 O 0.0661(4) 0.7043(9) 0.9084(4)
C10_3 C 0.0089(6) 0.0917(16) 0.8464(7)
H9_3 H 0.0239 0.0616 0.8894
C11_3 C 0.0465(7) 0.2021(17) 0.8392(8)
H10_3 H 0.0809 0.1584 0.8422
H11_3 H 0.0551 0.2723 0.8713
H12_3 H 0.0279 0.2471 0.7994
C35_3 C 0.0025(6) 0.0519(14) 0.5516(6)
C36_3 C 0.0151(6) 0.1476(14) 0.5102(6)
H22_3 H 0.2427 0.5401 0.0076
C9_3 C 0.0030(6) 0.9614(15) 0.8050(7)
H7_3 H 0.0395 0.9161 0.8168
O6_3 O 0.0346(4) 0.5826(10) 0.8203(4)
C16_3 C 0.2159(6) 0.5192(14) 0.9678(6)
C17_3 C 0.2298(5) 0.4303(14) 0.9309(6)
C18_3 C 0.1891(5) 0.3981(16) 0.8723(6)
H23_3 H 0.1972 0.3365 0.8464
C19_3 C 0.1378(6) 0.4571(15) 0.8534(6)
H24_3 H 0.1099 0.4368 0.8141
C20_3 C 0.1267(5) 0.5463(14) 0.8916(6)
C21_3 C 0.0716(6) 0.6155(14) 0.8734(6)
C22_3 C 0.2864(6) 0.3660(15) 0.9513(6)
C33_3 C 0.0302(5) 0.8906(15) 0.6324(6)
H44_3 H 0.0574 0.8327 0.6616
C34_3 C 0.0441(6) 0.9697(15) 0.5953(6)
H45_3 H 0.0809 0.9703 0.5983
H8_3 H 0.9718 0.1326 0.8358
H26_3 H 0.6296 0.0227 0.5503
C24_3 C 0.5488(6) 0.0336(15) 0.4844(7)
H28_3 H 0.5603 0.0779 0.4545
C25_3 C 0.5267(6) 0.1471(17) 0.5143(7)
H29_3 H 0.5173 0.1039 0.5459
H30_3 H 0.5557 0.2182 0.5341
C26 C 0.4757(7) 0.2164(17) 0.4667(7)
H31 H 0.4832 0.2445 0.4319
H32 H 0.4662 0.2990 0.4843
H33 H 0.4447 0.1505 0.4530
N3_2 N 0.9508(4) 0.0573(12) 0.5480(5)
O9_2 O 0.9776(4) 0.2292(10) 0.4764(4)
C39_3 C 0.8427(6) 0.0770(15) 0.8936(7)
H48_3 H 0.8054 0.0420 0.8864
H49_3 H 0.8572 0.1314 0.9319
C40_3 C 0.8385(6) 0.1724(16) 0.8401(7)
H50_3 H 0.8758 0.2063 0.8468
H51_3 H 0.8233 0.1188 0.8016
C41_3 C 0.8004(7) 0.2978(16) 0.8356(8)
H52_3 H 0.7621 0.2652 0.8215
H53_3 H 0.8027 0.3661 0.8066
H54_3 H 0.8121 0.3414 0.8757
Sn1_3 Sn 0.95041(4) 0.66473(9) 0.76583(4)
N1_3 N 0.8526(5) 0.6882(12) 0.7416(5)
O1_3 O 0.9326(4) 0.5798(9) 0.8421(4)
O2_3 O 0.8819(4) 0.6202(10) 0.8957(4)
O3_3 O 0.6632(4) 0.7173(10) 0.6091(4)
O4_3 O 0.7208(4) 0.8202(10) 0.5790(4)
C1_3 C 0.8113(5) 0.7259(14) 0.6883(6)
H1_3 H 0.8195 0.7497 0.6548
C2_3 C 0.7572(5) 0.7302(14) 0.6818(6)
C3_3 C 0.7447(5) 0.6985(15) 0.7306(6)
H2_3 H 0.7074 0.6942 0.7259
C4_3 C 0.7881(6) 0.6734(16) 0.7860(6)
H3_3 H 0.7816 0.6662 0.8216
C5_3 C 0.8411(5) 0.6587(14) 0.7898(6)
C6_3 C 0.8887(6) 0.6157(14) 0.8460(6)
C7_3 C 0.7107(6) 0.7596(15) 0.6197(6)
C8_3 C 0.9629(6) 0.8604(15) 0.8129(6)
H4_3 H 0.9265 0.9075 0.7993
H5_3 H 0.9759 0.8406 0.8568
H6_3 H 0.9892 0.9905 0.7619
C12_3 C 0.9328(6) 0.4770(14) 0.7142(7)
H13_3 H 0.9141 0.5035 0.6708
H14_3 H 0.9687 0.4347 0.7204
C13_3 C 0.8984(7) 0.3635(16) 0.7249(8)
H15_3 H 0.8621 0.4027 0.7190
H16_3 H 0.9172 0.3310 0.7676
C14_3 C 0.8892(7) 0.2403(16) 0.6828(8)
H17_3 H 0.8694 0.2734 0.6403
H18_3 H 0.9258 0.2049 0.6875
C15_3 C 0.8570(8) 0.1206(18) 0.6924(8)
H19_3 H 0.8690 0.1052 0.7362
H20_3 H 0.8638 0.0359 0.6738
H21_3 H 0.8174 0.1427 0.6737
C23_3 C 0.5986(6) 0.9556(15) 0.5328(6)
H25_3 H 0.5883 0.9273 0.5660
H27_3 H 0.5189 0.9661 0.4623
C27_3 C 0.6572(6) 0.5925(14) 0.4812(7)
H34_3 H 0.6259 0.5470 0.4475
H35_3 H 0.6851 0.6175 0.4656
C28_3 C 0.6835(7) 0.4856(17) 0.5334(8)
H36_3 H 0.7166 0.5292 0.5655
H37_3 H 0.6567 0.4675 0.5512
C29_3 C 0.7001(7) 0.3507(15) 0.5174(7)
H38_2 H 0.7249 0.3675 0.4970
H39_2 H 0.6667 0.3018 0.4883
C30_3 C 0.7291(8) 0.2589(17) 0.5717(8)
H40_3 H 0.7648 0.3006 0.5980
H41_3 H 0.7352 0.1667 0.5581
H42_3 H 0.7062 0.2494 0.5944
O11_3 O 0.9998(4) 0.7341(10) 0.7112(4)
O12_3 O 0.9134(4) 0.8076(10) 0.6693(4)
C31_3 C 0.9370(6) 0.9739(14) 0.5840(6)
H43_3 H 0.8996 0.9708 0.5789
C32_3 C 0.9764(5) 0.8919(14) 0.6287(6)
C37_3 C 0.9620(6) 0.8067(14) 0.6719(6)
C38_3 C 0.8817(6) 0.9519(14) 0.8996(6)
H46_3 H 0.9192 0.9896 0.9093
H47_3 H 0.8689 0.9061 0.8593
H58_3 H 0.8353 0.5097 0.9605
H63_3 H 0.7990 0.2687 0.9750
O16_2 O 0.9776(4) 0.7708(10) 0.9764(4)
C9_4 C 0.0030(6) 0.0386(15) 0.3050(7)
H7_4 H 0.0395 0.0839 0.3168
O6_4 O 0.0346(4) 0.4174(10) 0.3203(4)
C16_4 C 0.2159(6) 0.4808(14) 0.4678(6)
H22_4 H 0.2427 0.4599 0.5076
C17_4 C 0.2298(5) 0.5697(14) 0.4309(6)
C18_4 C 0.1891(5) 0.6019(16) 0.3723(6)
H23_4 H 0.1972 0.6635 0.3464
C19_4 C 0.1378(6) 0.5429(15) 0.3534(6)
H24_4 H 0.1099 0.5632 0.3141
C20_4 C 0.1267(5) 0.4537(14) 0.3916(6)
C21_4 C 0.0716(6) 0.3845(14) 0.3734(6)
C22_4 C 0.2864(6) 0.6340(15) 0.4513(6)
C33_4 C 0.0302(5) 0.1094(15) 0.1324(6)
H44_4 H 0.0574 0.1673 0.1616
C34_4 C 0.0441(6) 0.0303(15) 0.0953(6)
H45_4 H 0.0809 0.0297 0.0983
C10_4 C 0.0089(6) 0.9083(16) 0.3464(7)
H9_4 H 0.0239 0.9384 0.3894
C11_4 C 0.0465(7) 0.7979(17) 0.3392(8)
H10_4 H 0.0809 0.8416 0.3422
H11_4 H 0.0551 0.7277 0.3713
H12_4 H 0.0279 0.7529 0.2994
C35_4 C 0.0025(6) 0.9481(14) 0.0516(6)
C36_4 C 0.0151(6) 0.8524(14) 0.0102(6)
Sn1_4 Sn 0.95041(4) 0.33527(9) 0.26583(4)
N1_4 N 0.8526(5) 0.3118(12) 0.2416(5)
O1_4 O 0.9326(4) 0.4202(9) 0.3421(4)
O2_4 O 0.8819(4) 0.3798(10) 0.3957(4)
O3_4 O 0.6632(4) 0.2827(10) 0.1091(4)
O4_4 O 0.7208(4) 0.1798(10) 0.0790(4)
C1_4 C 0.8113(5) 0.2741(14) 0.1883(6)
H1_4 H 0.8195 0.2503 0.1548
C2_4 C 0.7572(5) 0.2698(14) 0.1818(6)
C3_4 C 0.7447(5) 0.3015(15) 0.2306(6)
H2_4 H 0.7074 0.3058 0.2259
C4_4 C 0.7881(6) 0.3266(16) 0.2860(6)
H3_4 H 0.7816 0.3338 0.3216
C5_4 C 0.8411(5) 0.3413(14) 0.2898(6)
C6_4 C 0.8887(6) 0.3843(14) 0.3460(6)
C7_4 C 0.7107(6) 0.2404(15) 0.1197(6)
C8_4 C 0.9629(6) 0.1396(15) 0.3129(6)
H4_4 H 0.9265 0.0925 0.2993
H5_4 H 0.9759 0.1594 0.3568
H6_4 H 0.9892 0.0095 0.2619
C12_4 C 0.9328(6) 0.5230(14) 0.2142(7)
H13_4 H 0.9141 0.4965 0.1708
H14_4 H 0.9687 0.5653 0.2204
C13_4 C 0.8984(7) 0.6365(16) 0.2249(8)
H15_4 H 0.8621 0.5973 0.2190
H16_4 H 0.9172 0.6690 0.2676
C14_4 C 0.8892(7) 0.7597(16) 0.1828(8)
H17_4 H 0.8694 0.7266 0.1403
H18_4 H 0.9258 0.7951 0.1875
C15_4 C 0.8570(8) 0.8794(18) 0.1924(8)
H19_4 H 0.8690 0.8948 0.2362
H20_4 H 0.8638 0.9641 0.1738
H21_4 H 0.8174 0.8573 0.1737
C23_4 C 0.5986(6) 0.0444(15) 0.0328(6)
H25_4 H 0.5883 0.0727 0.0660
C28_4 C 0.6835(7) 0.5144(17) 0.0334(8)
H36_4 H 0.7166 0.4708 0.0655
H37_4 H 0.6567 0.5325 0.0512
C29_4 C 0.7001(7) 0.6493(15) 0.0174(7)
C30_4 C 0.7291(8) 0.7411(17) 0.0717(8)
H40_4 H 0.7648 0.6994 0.0980
H41_4 H 0.7352 0.8333 0.0581
H42_4 H 0.7062 0.7506 0.0944
O11_4 O 0.9998(4) 0.2659(10) 0.2112(4)
O12_4 O 0.9134(4) 0.1924(10) 0.1693(4)
C31_4 C 0.9370(6) 0.0261(14) 0.0840(6)
H43_4 H 0.8996 0.0292 0.0789
C32_4 C 0.9764(5) 0.1081(14) 0.1287(6)
C37_4 C 0.9620(6) 0.1933(14) 0.1719(6)
C38_4 C 0.8817(6) 0.0481(14) 0.3996(6)
H46_4 H 0.9192 0.0104 0.4093
H47_4 H 0.8689 0.0939 0.3593
C42_3 C 0.9003(6) 0.3783(15) 0.5241(7)
H55_3 H 0.9326 0.4329 0.5261
H56_3 H 0.9089 0.3432 0.5656
C43_3 C 0.8504(7) 0.4753(17) 0.5050(8)
H57_3 H 0.8212 0.4294 0.5139
H58_4 H 0.8353 0.4903 0.4605
C44_2 C 0.8637(7) 0.6132(16) 0.5362(7)
H59_2 H 0.8797 0.5977 0.5807
H60_2 H 0.8923 0.6596 0.5265
C45_2 C 0.8139(8) 0.7108(18) 0.5186(8)
H61_2 H 0.7852 0.6657 0.5279
H62_2 H 0.8254 0.7980 0.5417
H63_4 H 0.7990 0.7313 0.4750
H27_4 H 0.5189 0.0339 0.9623
C27_4 C 0.6572(6) 0.4075(14) 0.9812(7)
H34_4 H 0.6259 0.4530 0.9475
H35_4 H 0.6851 0.3825 0.9656
H38_3 H 0.7249 0.6325 0.9970
H39_3 H 0.6667 0.6982 0.9883
C24_4 C 0.5488(6) 0.9664(15) 0.9844(7)
H28_4 H 0.5603 0.9221 0.9545
C26_2 C 0.4757(7) 0.7836(17) 0.9667(7)
H31_2 H 0.4832 0.7555 0.9319
H32_2 H 0.4662 0.7010 0.9843
H33_2 H 0.4447 0.8495 0.9530
C44_3 C 0.3637(7) 0.8868(16) 0.0362(7)
H59_3 H 0.3797 0.9023 0.0807
H60_3 H 0.3923 0.8404 0.0265
C45_3 C 0.3139(8) 0.7892(18) 0.0186(8)
H61_3 H 0.2852 0.8343 0.0279
H62_3 H 0.3254 0.7020 0.0417
C26_3 C 0.9757(7) 0.7164(17) 0.4667(7)
H31_3 H 0.9832 0.7445 0.4319
H32_3 H 0.9662 0.7990 0.4843
H33_3 H 0.9447 0.6505 0.4530
H38_4 H 0.2249 0.1325 0.9970
H39_4 H 0.1667 0.1982 0.9883
C26_4 C 0.9757(7) 0.2836(17) 0.9667(7)
H31_4 H 0.9832 0.2555 0.9319
H32_4 H 0.9662 0.2010 0.9843
H33_4 H 0.9447 0.3495 0.9530
C42_4 C 0.9003(6) 0.6217(15) 0.0241(7)
H55_4 H 0.9326 0.5671 0.0261
H56_4 H 0.9089 0.6568 0.0656
C43_4 C 0.8504(7) 0.5247(17) 0.0050(8)
H57_4 H 0.8212 0.5706 0.0139
C44_4 C 0.8637(7) 0.3868(16) 0.0362(7)
H59_4 H 0.8797 0.4023 0.0807
H60_4 H 0.8923 0.3404 0.0265
C45_4 C 0.8139(8) 0.2892(18) 0.0186(8)
H61_4 H 0.7852 0.3343 0.0279
H62_4 H 0.8254 0.2020 0.0417
N5_2 N 0.9508(4) 0.9427(12) 0.0480(5)
H8_4 H 0.9718 0.8674 0.3358
H26_4 H 0.6296 0.9773 0.0503
C25_4 C 0.5267(6) 0.8529(17) 0.0143(7)
H29_4 H 0.5173 0.8961 0.0459
H30_4 H 0.5557 0.7818 0.0341
C39_4 C 0.8427(6) 0.9230(15) 0.3936(7)
H48_4 H 0.8054 0.9580 0.3864
H49_4 H 0.8572 0.8686 0.4319
C40_4 C 0.8385(6) 0.8276(16) 0.3401(7)
H50_4 H 0.8758 0.7937 0.3468
H51_4 H 0.8233 0.8812 0.3016
C41_4 C 0.8004(7) 0.7022(16) 0.3356(8)
H52_4 H 0.7621 0.7348 0.3215
H53_4 H 0.8027 0.6339 0.3066
H54_4 H 0.8121 0.6586 0.3757
loop_
_geom_bond_atom_site_label_1
_geom_bond_atom_site_label_2
_geom_bond_site_symmetry_1
_geom_bond_site_symmetry_2
H55 C42 1_555 1_555
H56 C42 1_555 1_555
C43 C42 1_555 1_555
H57 C43 1_555 1_555
Sn1 N1 1_555 1_555
N1 C1 1_555 1_555
O1 Sn1 1_555 1_555
O2 C6 1_555 1_555
O3 C7 1_555 1_555
O4 C7 1_555 1_555
C1 H1 1_555 1_555
C2 C1 1_555 1_555
C3 C2 1_555 1_555
H2 C3 1_555 1_555
C4 C3 1_555 1_555
H3 C4 1_555 1_555
C5 N1 1_555 1_555
C6 O1 1_555 1_555
C7 C2 1_555 1_555
C8 Sn1 1_555 1_555
H4 C8 1_555 1_555
H5 C8 1_555 1_555
C9 C8 1_555 1_555
H6 C9 1_555 1_555
H7 C9 1_555 1_555
C10 C9 1_555 1_555
H8 C10 1_555 1_555
H9 C10 1_555 1_555
C11 C10 1_555 1_555
H10 C11 1_555 1_555
H11 C11 1_555 1_555
H12 C11 1_555 1_555
Sn2 O3 1_555 1_555
N2 C16 1_555 1_555
O5 C21 1_555 1_555
O6 Sn1 1_555 1_555
C20 N2 1_555 1_555
C21 O6 1_555 1_555
C23 Sn2 1_555 1_555
H25 C23 1_555 1_555
H26 C23 1_555 1_555
C24 C23 1_555 1_555
H27 C24 1_555 1_555
H28 C24 1_555 1_555
C25 C24 1_555 1_555
H29 C25 1_555 1_555
H30 C25 1_555 1_555
C27 Sn2 1_555 1_555
H34 C27 1_555 1_555
H35 C27 1_555 1_555
Sn3 O2 1_555 1_555
N3 C31 1_555 1_555
O9 C36 1_555 1_555
O10 C36 1_555 1_555
O11 Sn1 1_555 1_555
O12 Sn1 1_555 1_555
C31 H43 1_555 1_555
C32 C31 1_555 1_555
C33 C32 1_555 1_555
H44 C33 1_555 1_555
C34 C33 1_555 1_555
H45 C34 1_555 1_555
C35 N3 1_555 1_555
C36 C35 1_555 1_555
C37 O11 1_555 1_555
C38 Sn3 1_555 1_555
H46 C38 1_555 1_555
H47 C38 1_555 1_555
C39 C38 1_555 1_555
H48 C39 1_555 1_555
H49 C39 1_555 1_555
C40 C39 1_555 1_555
H50 C40 1_555 1_555
H51 C40 1_555 1_555
C41 C40 1_555 1_555
H52 C41 1_555 1_555
H53 C41 1_555 1_555
H54 C41 1_555 1_555
Sn5 O10 1_555 1_555
N4 Sn2 1_555 1_555
O13 Sn2 1_555 1_555
O14 Sn3 1_555 1_555
O15 Sn3 1_555 1_555
Sn7 N3 1_555 1_555
O16 Sn3 1_555 1_555
O17 Sn2 1_555 1_555
O4 Sn2 1_555 1_555
C4 C5 1_555 1_555
C5 C6 1_555 1_555
C20 C21 1_555 1_555
O9 Sn7 1_555 1_555
O12 C37 1_555 1_555
C32 C37 1_555 1_555
C34 C35 1_555 1_555
H14 C12 1_555 1_555
C13 C12 1_555 1_555
H15 C13 1_555 1_555
H16 C13 1_555 1_555
C14 C13 1_555 1_555
H17 C14 1_555 1_555
H18 C14 1_555 1_555
C15 C14 1_555 1_555
H19 C15 1_555 1_555
H20 C15 1_555 1_555
H21 C15 1_555 1_555
O7 C22 1_555 1_555
O8 C22 1_555 1_555
C18 C17 1_555 1_555
H23 C18 1_555 1_555
C19 C18 1_555 1_555
H24 C19 1_555 1_555
C22 C17 1_555 1_555
H37 C28 1_555 1_555
C29 C28 1_555 1_555
H38 C29 1_555 1_555
H39 C29 1_555 1_555
C30 C29 1_555 1_555
H40 C30 1_555 1_555
H41 C30 1_555 1_555
H42 C30 1_555 1_555
Sn6 O7 1_555 1_555
O8 Sn6 1_555 1_555
H14_2 C12_2 1_555 1_555
C13_2 C12_2 1_555 1_555
H15_2 C13_2 1_555 1_555
H16_2 C13_2 1_555 1_555
C14_2 C13_2 1_555 1_555
H17_2 C14_2 1_555 1_555
H18_2 C14_2 1_555 1_555
C15_2 C14_2 1_555 1_555
H19_2 C15_2 1_555 1_555
H20_2 C15_2 1_555 1_555
H21_2 C15_2 1_555 1_555
O7_2 C22_2 1_555 1_555
O8_2 C22_2 1_555 1_555
C18_2 C17_2 1_555 1_555
H23_2 C18_2 1_555 1_555
C19_2 C18_2 1_555 1_555
H24_2 C19_2 1_555 1_555
C22_2 C17_2 1_555 1_555
H37_2 C28_2 1_555 1_555
C29_2 C28_2 1_555 1_555
C30_2 C29_2 1_555 1_555
H40_2 C30_2 1_555 1_555
H41_2 C30_2 1_555 1_555
H42_2 C30_2 1_555 1_555
H59 C44 1_555 1_555
H60 C44 1_555 1_555
C45 C44 1_555 1_555
H61 C45 1_555 1_555
H62 C45 1_555 1_555
H63_2 C45 1_555 1_555
Sn6_2 O7_2 1_555 1_555
O8_2 Sn6_2 1_555 1_555
Sn1_2 N1_2 1_555 1_555
N1_2 C1_2 1_555 1_555
O1_2 Sn1_2 1_555 1_555
O2_2 C6_2 1_555 1_555
O3_2 C7_2 1_555 1_555
O4_2 C7_2 1_555 1_555
C1_2 H1_2 1_555 1_555
C2_2 C1_2 1_555 1_555
C3_2 C2_2 1_555 1_555
H2_2 C3_2 1_555 1_555
C4_2 C3_2 1_555 1_555
H3_2 C4_2 1_555 1_555
C5_2 N1_2 1_555 1_555
C6_2 O1_2 1_555 1_555
C7_2 C2_2 1_555 1_555
C8_2 Sn1_2 1_555 1_555
H4_2 C8_2 1_555 1_555
H5_2 C8_2 1_555 1_555
C9_2 C8_2 1_555 1_555
H6_2 C9_2 1_555 1_555
H7_2 C9_2 1_555 1_555
C10_2 C9_2 1_555 1_555
H8_2 C10_2 1_555 1_555
H9_2 C10_2 1_555 1_555
C11_2 C10_2 1_555 1_555
H10_2 C11_2 1_555 1_555
H11_2 C11_2 1_555 1_555
H12_2 C11_2 1_555 1_555
Sn2_2 O3_2 1_555 1_555
N2_2 C16_2 1_555 1_555
O5_2 C21_2 1_555 1_555
O6_2 Sn1_2 1_555 1_555
C16_2 H22_2 1_555 1_555
C20_2 N2_2 1_555 1_555
C21_2 O6_2 1_555 1_555
C23_2 Sn2_2 1_555 1_555
H25_2 C23_2 1_555 1_555
H26_2 C23_2 1_555 1_555
H29_2 C25_2 1_555 1_555
H30_2 C25_2 1_555 1_555
Sn7 O2_2 1_555 1_555
N5 C31_2 1_555 1_555
O10_2 C36_2 1_555 1_555
O11_2 Sn1_2 1_555 1_555
O12_2 Sn1_2 1_555 1_555
C31_2 H43_2 1_555 1_555
C32_2 C31_2 1_555 1_555
C33_2 C32_2 1_555 1_555
H44_2 C33_2 1_555 1_555
C34_2 C33_2 1_555 1_555
H45_2 C34_2 1_555 1_555
C35_2 N5 1_555 1_555
C36_2 C35_2 1_555 1_555
C37_2 O11_2 1_555 1_555
C38_2 Sn7 1_555 1_555
H46_2 C38_2 1_555 1_555
H47_2 C38_2 1_555 1_555
C39_2 C38_2 1_555 1_555
H48_2 C39_2 1_555 1_555
H49_2 C39_2 1_555 1_555
C40_2 C39_2 1_555 1_555
H50_2 C40_2 1_555 1_555
H51_2 C40_2 1_555 1_555
C41_2 C40_2 1_555 1_555
H52_2 C41_2 1_555 1_555
H53_2 C41_2 1_555 1_555
H54_2 C41_2 1_555 1_555
C42_2 Sn7 1_555 1_555
H55_2 C42_2 1_555 1_555
H56_2 C42_2 1_555 1_555
C43_2 C42_2 1_555 1_555
H57_2 C43_2 1_555 1_555
H58_2 C43_2 1_555 1_555
Sn5 N2_2 1_555 1_555
Sn4 O10_2 1_555 1_555
O14_2 Sn7 1_555 1_555
O15_2 Sn7 1_555 1_555
O17_2 Sn2_2 1_555 1_555
O4_2 Sn2_2 1_555 1_555
C4_2 C5_2 1_555 1_555
C5_2 C6_2 1_555 1_555
O5_2 Sn5 1_555 1_555
C20_2 C21_2 1_555 1_555
O12_2 C37_2 1_555 1_555
C32_2 C37_2 1_555 1_555
C34_2 C35_2 1_555 1_555
H27_2 C24_2 1_555 1_555
H28_2 C24_2 1_555 1_555
H34_2 C27_2 1_555 1_555
H35_2 C27_2 1_555 1_555
H9_3 C10_3 1_555 1_555
C11_3 C10_3 1_555 1_555
H10_3 C11_3 1_555 1_555
H11_3 C11_3 1_555 1_555
H12_3 C11_3 1_555 1_555
O17 C36_3 1_555 1_555
C36_3 C35_3 1_555 1_555
H7_3 C9_3 1_555 1_555
N4_2 C16_3 1_555 1_555
O13_2 C21_3 1_555 1_555
O14 C22_3 1_555 1_555
O15 C22_3 1_555 1_555
C17_3 C16_3 1_555 1_555
C18_3 C17_3 1_555 1_555
H23_3 C18_3 1_555 1_555
C19_3 C18_3 1_555 1_555
H24_3 C19_3 1_555 1_555
C20_3 N4_2 1_555 1_555
C21_3 O6_3 1_555 1_555
C22_3 C17_3 1_555 1_555
H44_3 C33_3 1_555 1_555
C34_3 C33_3 1_555 1_555
H45_3 C34_3 1_555 1_555
C19_3 C20_3 1_555 1_555
C20_3 C21_3 1_555 1_555
H28_3 C24_3 1_555 1_555
C25_3 C24_3 1_555 1_555
H29_3 C25_3 1_555 1_555
H30_3 C25_3 1_555 1_555
C26 C25_3 1_555 1_555
H31 C26 1_555 1_555
H32 C26 1_555 1_555
H33 C26 1_555 1_555
H48_3 C39_3 1_555 1_555
H49_3 C39_3 1_555 1_555
C40_3 C39_3 1_555 1_555
H50_3 C40_3 1_555 1_555
H51_3 C40_3 1_555 1_555
C41_3 C40_3 1_555 1_555
H52_3 C41_3 1_555 1_555
H53_3 C41_3 1_555 1_555
H54_3 C41_3 1_555 1_555
Sn6_2 N3_2 1_555 1_555
O9_2 Sn6_2 1_555 1_555
Sn1_3 N1_3 1_555 1_555
N1_3 C1_3 1_555 1_555
O1_3 Sn1_3 1_555 1_555
O2_3 C6_3 1_555 1_555
O3_3 C7_3 1_555 1_555
O4_3 C7_3 1_555 1_555
C1_3 H1_3 1_555 1_555
C2_3 C1_3 1_555 1_555
C3_3 C2_3 1_555 1_555
H2_3 C3_3 1_555 1_555
C4_3 C3_3 1_555 1_555
H3_3 C4_3 1_555 1_555
C5_3 N1_3 1_555 1_555
C6_3 O1_3 1_555 1_555
C7_3 C2_3 1_555 1_555
C8_3 Sn1_3 1_555 1_555
H4_3 C8_3 1_555 1_555
H5_3 C8_3 1_555 1_555
C12_3 Sn1_3 1_555 1_555
H13_3 C12_3 1_555 1_555
H14_3 C12_3 1_555 1_555
C13_3 C12_3 1_555 1_555
H15_3 C13_3 1_555 1_555
H16_3 C13_3 1_555 1_555
C14_3 C13_3 1_555 1_555
H17_3 C14_3 1_555 1_555
H18_3 C14_3 1_555 1_555
C15_3 C14_3 1_555 1_555
H19_3 C15_3 1_555 1_555
H20_3 C15_3 1_555 1_555
H21_3 C15_3 1_555 1_555
Sn5 O3_3 1_555 1_555
C23_3 Sn5 1_555 1_555
H25_3 C23_3 1_555 1_555
C27_3 Sn5 1_555 1_555
H34_3 C27_3 1_555 1_555
H35_3 C27_3 1_555 1_555
C28_3 C27_3 1_555 1_555
H36_3 C28_3 1_555 1_555
H37_3 C28_3 1_555 1_555
C29_3 C28_3 1_555 1_555
H38_2 C29_3 1_555 1_555
H39_2 C29_3 1_555 1_555
C30_3 C29_3 1_555 1_555
H40_3 C30_3 1_555 1_555
H41_3 C30_3 1_555 1_555
H42_3 C30_3 1_555 1_555
Sn6 O2_3 1_555 1_555
O11_3 Sn1_3 1_555 1_555
O12_3 Sn1_3 1_555 1_555
C31_3 H43_3 1_555 1_555
C32_3 C31_3 1_555 1_555
C37_3 O11_3 1_555 1_555
C38_3 Sn6 1_555 1_555
H46_3 C38_3 1_555 1_555
H47_3 C38_3 1_555 1_555
O16_2 Sn6 1_555 1_555
O4_3 Sn5 1_555 1_555
C4_3 C5_3 1_555 1_555
C5_3 C6_3 1_555 1_555
O12_3 C37_3 1_555 1_555
C32_3 C37_3 1_555 1_555
H7_4 C9_4 1_555 1_555
N4 C16_4 1_555 1_555
O13 C21_4 1_555 1_555
O14_2 C22_4 1_555 1_555
O15_2 C22_4 1_555 1_555
C16_4 H22_4 1_555 1_555
C17_4 C16_4 1_555 1_555
C18_4 C17_4 1_555 1_555
H23_4 C18_4 1_555 1_555
C19_4 C18_4 1_555 1_555
H24_4 C19_4 1_555 1_555
C20_4 N4 1_555 1_555
C21_4 O6_4 1_555 1_555
C22_4 C17_4 1_555 1_555
H44_4 C33_4 1_555 1_555
C34_4 C33_4 1_555 1_555
H45_4 C34_4 1_555 1_555
C19_4 C20_4 1_555 1_555
C20_4 C21_4 1_555 1_555
H9_4 C10_4 1_555 1_555
C11_4 C10_4 1_555 1_555
H10_4 C11_4 1_555 1_555
H11_4 C11_4 1_555 1_555
H12_4 C11_4 1_555 1_555
O17_2 C36_4 1_555 1_555
C36_4 C35_4 1_555 1_555
Sn1_4 N1_4 1_555 1_555
N1_4 C1_4 1_555 1_555
O1_4 Sn1_4 1_555 1_555
O2_4 C6_4 1_555 1_555
O3_4 C7_4 1_555 1_555
O4_4 C7_4 1_555 1_555
C1_4 H1_4 1_555 1_555
C2_4 C1_4 1_555 1_555
C3_4 C2_4 1_555 1_555
H2_4 C3_4 1_555 1_555
C4_4 C3_4 1_555 1_555
H3_4 C4_4 1_555 1_555
C5_4 N1_4 1_555 1_555
C6_4 O1_4 1_555 1_555
C7_4 C2_4 1_555 1_555
C8_4 Sn1_4 1_555 1_555
H4_4 C8_4 1_555 1_555
H5_4 C8_4 1_555 1_555
C12_4 Sn1_4 1_555 1_555
H13_4 C12_4 1_555 1_555
H14_4 C12_4 1_555 1_555
C13_4 C12_4 1_555 1_555
H15_4 C13_4 1_555 1_555
H16_4 C13_4 1_555 1_555
C14_4 C13_4 1_555 1_555
H17_4 C14_4 1_555 1_555
H18_4 C14_4 1_555 1_555
C15_4 C14_4 1_555 1_555
H19_4 C15_4 1_555 1_555
H20_4 C15_4 1_555 1_555
H21_4 C15_4 1_555 1_555
Sn4 O3_4 1_555 1_555
C23_4 Sn4 1_555 1_555
H25_4 C23_4 1_555 1_555
H36_4 C28_4 1_555 1_555
H37_4 C28_4 1_555 1_555
C29_4 C28_4 1_555 1_555
C30_4 C29_4 1_555 1_555
H40_4 C30_4 1_555 1_555
H41_4 C30_4 1_555 1_555
H42_4 C30_4 1_555 1_555
Sn6_2 O2_4 1_555 1_555
O11_4 Sn1_4 1_555 1_555
O12_4 Sn1_4 1_555 1_555
C31_4 H43_4 1_555 1_555
C32_4 C31_4 1_555 1_555
C37_4 O11_4 1_555 1_555
C38_4 Sn6_2 1_555 1_555
H46_4 C38_4 1_555 1_555
H47_4 C38_4 1_555 1_555
C42_3 Sn6_2 1_555 1_555
H55_3 C42_3 1_555 1_555
H56_3 C42_3 1_555 1_555
C43_3 C42_3 1_555 1_555
H57_3 C43_3 1_555 1_555
H58_4 C43_3 1_555 1_555
C44_2 C43_3 1_555 1_555
H59_2 C44_2 1_555 1_555
H60_2 C44_2 1_555 1_555
C45_2 C44_2 1_555 1_555
H61_2 C45_2 1_555 1_555
H62_2 C45_2 1_555 1_555
H63_4 C45_2 1_555 1_555
O4_4 Sn4 1_555 1_555
C4_4 C5_4 1_555 1_555
C5_4 C6_4 1_555 1_555
O12_4 C37_4 1_555 1_555
C32_4 C37_4 1_555 1_555
H34_4 C27_4 1_555 1_555
H35_4 C27_4 1_555 1_555
H28_4 C24_4 1_555 1_555
H31_2 C26_2 1_555 1_555
H32_2 C26_2 1_555 1_555
H33_2 C26_2 1_555 1_555
H59_3 C44_3 1_555 1_555
H60_3 C44_3 1_555 1_555
C45_3 C44_3 1_555 1_555
H61_3 C45_3 1_555 1_555
H62_3 C45_3 1_555 1_555
H31_3 C26_3 1_555 1_555
H32_3 C26_3 1_555 1_555
H33_3 C26_3 1_555 1_555
H31_4 C26_4 1_555 1_555
H32_4 C26_4 1_555 1_555
H33_4 C26_4 1_555 1_555
H55_4 C42_4 1_555 1_555
H56_4 C42_4 1_555 1_555
C43_4 C42_4 1_555 1_555
H57_4 C43_4 1_555 1_555
C44_4 C43_4 1_555 1_555
H59_4 C44_4 1_555 1_555
H60_4 C44_4 1_555 1_555
C45_4 C44_4 1_555 1_555
H61_4 C45_4 1_555 1_555
H62_4 C45_4 1_555 1_555
H29_4 C25_4 1_555 1_555
H30_4 C25_4 1_555 1_555
H48_4 C39_4 1_555 1_555
H49_4 C39_4 1_555 1_555
C40_4 C39_4 1_555 1_555
H50_4 C40_4 1_555 1_555
H51_4 C40_4 1_555 1_555
C41_4 C40_4 1_555 1_555
H52_4 C41_4 1_555 1_555
H53_4 C41_4 1_555 1_555
H54_4 C41_4 1_555 1_555

#END
