
###############################################################################
#
# This file contains modified crystal structure data generated from the
# MOF subset of the Cambridge Structural Database (CSD) v543 
# hosted by the Cambridge Crystallographic Data Centre (CCDC).
#
# This work is licensed under the Creative Commons
# Attribution-NonCommercial-ShareAlike 4.0 International License.
# To view a copy of this license, visit
# http://creativecommons.org/licenses/by-nc-sa/4.0/
# or send a letter to
# Creative Commons, PO Box 1866, Mountain View, CA 94042, USA.
#
# CIF created using the CSD Python API on 29 September 2022
# The structure has been converted into the P1 space group
# The structure has a 3D framework
# The original CSD entry FIVYER is in the triclinic crystal system
# The framework has been calculated to contain at least 10.0% void space
# The void calculation uses a probe of radius 1.32A, grid spacing 0.4
#
###############################################################################

data_FIVYER
_chemical_formula_moiety         '(C180 H116 N16 Ni4 O36)n'
_symmetry_cell_setting           triclinic
_symmetry_space_group_name_H-M   'P 1'
_symmetry_Int_Tables_number      1
_space_group_name_Hall           'P 1'
loop_
_symmetry_equiv_pos_site_id
_symmetry_equiv_pos_as_xyz
1 x,y,z
_cell_length_a                   15.9013(7)
_cell_length_b                   16.2186(7)
_cell_length_c                   23.7513(11)
_cell_angle_alpha                96.8020(10)
_cell_angle_beta                 92.5680(10)
_cell_angle_gamma                112.5000(10)
_cell_volume                     5592.1
loop_
_atom_site_label
_atom_site_type_symbol
_atom_site_fract_x
_atom_site_fract_y
_atom_site_fract_z
Ni11 Ni 0.83455(3) 0.03453(3) 0.35120(2)
O9 O 0.26416(16) 0.18806(17) 0.17433(13)
O10 O 0.33766(16) 0.48269(17) 0.12644(14)
O11 O 0.66929(16) 0.86138(15) 0.18046(10)
O12 O 0.60698(15) 0.87691(15) 0.09755(10)
O13 O 0.56054(17) 0.35515(18) 0.12214(14)
O14 O 0.72836(16) 0.06148(15) 0.08771(10)
O15 O 0.71060(15) 0.06036(15) 0.18105(10)
C31 C 0.0244(2) 0.0450(2) 0.16840(16)
C32 C 0.1156(2) 0.0948(2) 0.18799(17)
H18 H 0.137855 0.093415 0.224604
C33 C 0.1726(2) 0.1462(2) 0.15220(18)
C34 C 0.3231(2) 0.2643(2) 0.15514(16)
C35 C 0.3003(2) 0.3370(3) 0.14983(17)
H19 H 0.242102 0.334396 0.156059
C36 C 0.3657(2) 0.4138(2) 0.13510(17)
C37 C 0.4049(3) 0.5704(3) 0.1308(2)
C38 C 0.4574(3) 0.6116(3) 0.1801(2)
H20 H 0.450006 0.581358 0.211570
C39 C 0.5222(3) 0.6984(2) 0.18400(18)
H21 H 0.558634 0.726301 0.218038
C40 C 0.5331(2) 0.7439(2) 0.13765(16)
C41 C 0.6084(2) 0.8356(2) 0.13912(16)
C42 C 0.4770(3) 0.7013(3) 0.08819(19)
H22 H 0.482258 0.731649 0.056834
C43 C 0.4123(3) 0.6131(3) 0.0845(2)
H23 H 0.374934 0.584267 0.050944
C44 C 0.4530(2) 0.4191(2) 0.12705(17)
H24 H 0.497315 0.471495 0.117827
C45 C 0.4727(2) 0.3448(2) 0.13306(17)
C46 C 0.5922(3) 0.2866(3) 0.1268(2)
C47 C 0.5950(2) 0.2538(3) 0.1770(2)
H25 H 0.572241 0.274152 0.208689
C48 C 0.6324(2) 0.1895(2) 0.17999(17)
H26 H 0.634986 0.166963 0.213971
C49 C 0.6659(2) 0.1586(2) 0.13236(16)
C50 C 0.7056(2) 0.0878(2) 0.13404(17)
C51 C 0.6627(3) 0.1940(3) 0.08258(19)
H27 H 0.685189 0.174305 0.050487
C52 C 0.6261(3) 0.2583(3) 0.0803(2)
H28 H 0.624703 0.282390 0.046762
C53 C 0.4081(2) 0.2665(2) 0.14667(16)
H29 H 0.422094 0.216565 0.149994
C54 C 0.1415(2) 0.1488(3) 0.09819(18)
H30 H 0.181257 0.183177 0.074434
C55 C 0.0511(2) 0.1003(3) 0.07934(17)
H31 H 0.029549 0.101686 0.042555
Ni8 Ni 0.77838(3) 0.98190(3) 0.20683(2)
Ni13 Ni 0.72739(3) 0.93608(3) 0.06317(2)
O3 O 0.21712(18) 0.48044(18) 0.25724(17)
O4 O 0.29457(18) 0.78971(19) 0.24288(17)
O5 O 0.72636(14) 0.99395(15) 0.28565(9)
O6 O 0.69627(17) 0.95953(17) 0.37083(11)
C2 C 0.0224(2) 0.2256(2) 0.26791(17)
C3 C 0.0267(3) 0.2621(3) 0.21797(19)
C4 C 0.0909(3) 0.3466(3) 0.2141(2)
H2 H 0.093729 0.370484 0.180205
C5 C 0.1502(3) 0.3947(3) 0.2605(3)
C6 C 0.1896(3) 0.5523(3) 0.2604(2)
C7 C 0.2570(3) 0.6335(3) 0.2519(2)
H3 H 0.314994 0.637439 0.243890
C8 C 0.2353(3) 0.7073(3) 0.2558(2)
C9 C 0.3869(3) 0.8248(3) 0.2633(2)
C10 C 0.4440(3) 0.8800(2) 0.2296(2)
H4 H 0.421239 0.887572 0.194664
C11 C 0.5362(2) 0.9242(2) 0.24817(18)
H5 H 0.575406 0.963019 0.226164
C12 C 0.5701(2) 0.9107(2) 0.29946(17)
C13 C 0.6690(2) 0.9564(2) 0.31969(17)
H7 H 0.036597 0.137014 0.539033
H8 H 0.034084 0.124871 0.435709
C77 C 0.5102(3) 0.8541(3) 0.3328(2)
H49 H 0.532706 0.845827 0.367540
C78 C 0.4177(3) 0.8099(3) 0.3148(2)
H50 H 0.377771 0.771641 0.336803
C79 C 0.1500(3) 0.7032(3) 0.2676(2)
H51 H 0.136923 0.754703 0.270758
C80 C 0.0849(3) 0.6215(3) 0.2744(2)
C88 C 0.1031(3) 0.5450(3) 0.2710(2)
H56 H 0.058252 0.489882 0.275854
C89 C 0.1491(3) 0.3607(3) 0.3105(3)
H57 H 0.191084 0.393870 0.341547
C90 C 0.0844(3) 0.2759(3) 0.3141(2)
H58 H 0.082491 0.252253 0.348024
C29 C 0.8927(2) 0.0022(2) 0.09509(16)
C30 C 0.9914(2) 0.0491(2) 0.11477(15)
H17 H 0.985428 0.008720 0.191675
O1 O 0.88569(15) 0.10279(15) 0.23222(10)
O2 O 0.95263(16) 0.10262(16) 0.31766(11)
O16 O 0.99706(18) 0.60833(18) 0.28654(17)
O17 O 0.84741(17) 0.91495(16) 0.33144(11)
O18 O 0.84512(15) 0.90524(15) 0.23614(10)
N1 N 0.8953(2) 0.05540(19) 0.43160(12)
N2 N 0.8973(2) 0.0660(2) 0.52483(13)
C1 C 0.9486(2) 0.1363(2) 0.27304(17)
H1 H 0.985760 0.229099 0.186483
C14 C 0.8461(3) 0.0349(3) 0.47512(16)
H6 H 0.783081 0.002471 0.471455
C15 C 0.9852(3) 0.1086(3) 0.51284(19)
C16 C 0.9833(3) 0.1017(3) 0.45575(18)
C17 C 0.8637(3) 0.0570(3) 0.57973(16)
C18 C 0.7805(3) 0.0624(3) 0.58812(17)
H9 H 0.747409 0.072661 0.558378
C19 C 0.7464(3) 0.0528(3) 0.63997(17)
H10 H 0.689330 0.054560 0.644687
C20 C 0.7958(3) 0.0403(2) 0.68560(15)
C21 C 0.8807(3) 0.0382(3) 0.67721(16)
H11 H 0.915581 0.031465 0.707467
C22 C 0.9143(3) 0.0459(3) 0.62454(16)
H12 H 0.971070 0.043613 0.619408
C23 C 0.7586(3) 0.0283(2) 0.74189(16)
C75 C 0.7816(3) 0.0562(2) 0.84425(16)
H47 H 0.819454 0.085666 0.877588
C76 C 0.8143(3) 0.0709(3) 0.79213(16)
H48 H 0.874620 0.109896 0.790526
C81 C 0.9648(3) 0.6766(3) 0.2831(3)
C82 C 0.9641(3) 0.7140(3) 0.2344(2)
H52 H 0.987764 0.696240 0.202201
C83 C 0.9273(2) 0.7793(3) 0.2342(2)
H53 H 0.926332 0.805037 0.201321
C84 C 0.8920(2) 0.8067(2) 0.28187(17)
C85 C 0.8578(2) 0.8811(2) 0.28266(18)
C86 C 0.8925(3) 0.7658(3) 0.32952(19)
H54 H 0.868858 0.782952 0.361903
C87 C 0.9273(3) 0.6999(3) 0.3300(2)
H55 H 0.925406 0.671561 0.362021
N9 N 0.8188(2) 0.1585(2) 0.36394(14)
O7 O 0.83438(14) 0.96595(14) 0.12930(9)
O8 O 0.86451(15) 0.99868(15) 0.04380(10)
N5 N 0.72792(19) 0.80685(18) 0.04705(12)
N6 N 0.7272(2) 0.6807(2) 0.07348(13)
N7 N 0.8136(3) 0.2816(2) 0.33686(15)
C56 C 0.7534(2) 0.7704(2) 0.08709(16)
H32 H 0.786233 0.802975 0.121403
C57 C 0.6814(3) 0.6588(3) 0.02013(18)
C58 C 0.6829(3) 0.7364(3) 0.00482(18)
C59 C 0.7387(3) 0.6220(2) 0.11092(18)
C60 C 0.7219(3) 0.6328(3) 0.16608(19)
H35 H 0.701172 0.677354 0.179238
C61 C 0.7352(3) 0.5783(3) 0.2029(2)
H36 H 0.723109 0.586463 0.240656
C62 C 0.7660(3) 0.5121(2) 0.18502(19)
C63 C 0.7805(3) 0.5008(3) 0.1287(2)
H37 H 0.799488 0.455290 0.115071
C64 C 0.7676(3) 0.5554(3) 0.0917(2)
H38 H 0.778474 0.546885 0.053727
C65 C 0.7813(3) 0.4540(2) 0.22556(19)
C66 C 0.8282(3) 0.3988(3) 0.2113(2)
H39 H 0.852746 0.399403 0.176506
C67 C 0.8388(3) 0.3429(3) 0.2486(2)
H40 H 0.869747 0.305813 0.238338
C68 C 0.8044(3) 0.3419(3) 0.30009(19)
C69 C 0.7989(2) 0.1946(2) 0.32146(17)
H41 H 0.777140 0.163466 0.284871
C70 C 0.8463(4) 0.2257(3) 0.4098(2)
H42 H 0.862880 0.219319 0.446566
C71 C 0.8457(5) 0.3025(4) 0.3937(2)
H43 H 0.863370 0.358339 0.416394
C72 C 0.7592(4) 0.3968(3) 0.3152(2)
H44 H 0.737117 0.397909 0.350791
C73 C 0.7464(4) 0.4512(3) 0.2771(2)
H45 H 0.713354 0.486298 0.286999
N3 N 0.66284(19) 0.97701(19) 0.90153(12)
N4 N 0.66689(19) 0.93824(18) 0.98694(12)
C24 C 0.6681(3) 0.9732(3) 0.74585(17)
H13 H 0.628802 0.946370 0.712736
C25 C 0.6352(3) 0.9576(3) 0.79827(15)
H14 H 0.574638 0.919960 0.800377
C26 C 0.6930(2) 0.9981(2) 0.84698(15)
C27 C 0.5781(3) 0.9598(3) 0.91980(17)
H15 H 0.528213 0.963574 0.900010
C28 C 0.5814(3) 0.9362(3) 0.97226(17)
H16 H 0.533126 0.920902 0.995002
H33 H 0.654631 0.601662 0.998768
H34 H 0.656854 0.741493 0.970226
C74 C 0.7133(3) 0.9626(2) 0.94321(15)
H46 H 0.773736 0.969120 0.941296
Ni1 Ni 0.22162(3) 0.01810(3) 0.79317(2)
N3_2 N 0.33716(19) 0.02299(19) 0.09847(12)
N4_2 N 0.33311(19) 0.06176(18) 0.01306(12)
C24_2 C 0.3319(3) 0.0268(3) 0.25415(17)
H13_2 H 0.371198 0.053630 0.287264
C25_2 C 0.3648(3) 0.0424(3) 0.20173(15)
H14_2 H 0.425362 0.080040 0.199623
C26_2 C 0.3070(2) 0.0019(2) 0.15302(15)
C27_2 C 0.4219(3) 0.0402(3) 0.08020(17)
H15_2 H 0.471787 0.036426 0.099990
C28_2 C 0.4186(3) 0.0638(3) 0.02774(17)
H16_2 H 0.466874 0.079098 0.004998
H33_2 H 0.345369 0.398338 0.001232
H34_2 H 0.343146 0.258507 0.029774
C74_2 C 0.2867(3) 0.0374(2) 0.05679(15)
H46_2 H 0.226264 0.030880 0.058704
O19 O 0.27364(14) 0.00605(15) 0.71435(9)
O20 O 0.30373(17) 0.04047(17) 0.62917(11)
O21 O 0.16562(14) 0.03405(14) 0.87070(9)
O22 O 0.33071(16) 0.13862(15) 0.81954(10)
O26 O 0.15259(17) 0.08505(16) 0.66856(11)
O27 O 0.15488(15) 0.09476(15) 0.76386(10)
Ni3 Ni 0.27261(3) 0.06392(3) 0.93683(2)
O8_2 O 0.13549(15) 0.00132(15) 0.95620(10)
N5_2 N 0.27208(19) 0.19315(18) 0.95295(12)
N6_2 N 0.2728(2) 0.3193(2) 0.92652(13)
N7_2 N 0.1864(3) 0.7184(2) 0.66314(15)
N8 N 0.1812(2) 0.8415(2) 0.63606(14)
C56_2 C 0.2466(2) 0.2296(2) 0.91291(16)
H32_2 H 0.213767 0.197025 0.878597
C57_2 C 0.3186(3) 0.3412(3) 0.97987(18)
C58_2 C 0.3171(3) 0.2636(3) 0.99518(18)
C59_2 C 0.2613(3) 0.3780(2) 0.88908(18)
C60_2 C 0.2781(3) 0.3672(3) 0.83392(19)
H35_2 H 0.298828 0.322646 0.820762
C61_2 C 0.2648(3) 0.4217(3) 0.7971(2)
H36_2 H 0.276891 0.413537 0.759344
C62_2 C 0.2340(3) 0.4879(2) 0.81498(19)
C63_2 C 0.2195(3) 0.4992(3) 0.8713(2)
H37_2 H 0.200512 0.544710 0.884929
C64_2 C 0.2324(3) 0.4446(3) 0.9083(2)
H38_2 H 0.221526 0.453115 0.946273
C65_2 C 0.2187(3) 0.5460(2) 0.77444(19)
C66_2 C 0.1718(3) 0.6012(3) 0.7887(2)
H39_2 H 0.147254 0.600597 0.823494
C67_2 C 0.1612(3) 0.6571(3) 0.7514(2)
H40_2 H 0.130253 0.694187 0.761662
C68_2 C 0.1956(3) 0.6581(3) 0.69991(19)
C69_2 C 0.2011(2) 0.8054(2) 0.67854(17)
H41_2 H 0.222860 0.836534 0.715129
C70_2 C 0.1537(4) 0.7743(3) 0.5902(2)
H42_2 H 0.137120 0.780681 0.553434
C71_2 C 0.1543(5) 0.6975(4) 0.6063(2)
H43_2 H 0.136630 0.641661 0.583606
C72_2 C 0.2408(4) 0.6032(3) 0.6848(2)
H44_2 H 0.262883 0.602091 0.649209
C73_2 C 0.2536(4) 0.5488(3) 0.7229(2)
H45_2 H 0.286646 0.513702 0.713001
Ni9 Ni 0.16545(3) 0.96547(3) 0.64880(2)
O23 O 0.39302(15) 0.12309(15) 0.90245(10)
O1_2 O 0.11431(15) 0.89721(15) 0.76778(10)
O2_2 O 0.04737(16) 0.89738(16) 0.68234(11)
O16_2 O 0.00294(18) 0.39167(18) 0.71346(17)
N1_2 N 0.1047(2) 0.94460(19) 0.56840(12)
N2_2 N 0.1027(2) 0.9340(2) 0.47517(13)
C1_2 C 0.0514(2) 0.8637(2) 0.72696(17)
H1_2 H 0.014240 0.770901 0.813517
C14_2 C 0.1539(3) 0.9651(3) 0.52488(16)
H6_2 H 0.216919 0.997529 0.528545
C15_2 C 0.0148(3) 0.8914(3) 0.48716(19)
C16_2 C 0.0167(3) 0.8983(3) 0.54425(18)
C17_2 C 0.1363(3) 0.9430(3) 0.42027(16)
C18_2 C 0.2195(3) 0.9376(3) 0.41188(17)
H9_2 H 0.252591 0.927339 0.441622
C19_2 C 0.2536(3) 0.9472(3) 0.36003(17)
H10_2 H 0.310670 0.945440 0.355313
C20_2 C 0.2042(3) 0.9597(2) 0.31440(15)
C21_2 C 0.1193(3) 0.9618(3) 0.32279(16)
H11_2 H 0.084419 0.968535 0.292533
C22_2 C 0.0857(3) 0.9541(3) 0.37546(16)
H12_2 H 0.028930 0.956387 0.380592
C23_2 C 0.2414(3) 0.9717(2) 0.25811(16)
C75_2 C 0.2184(3) 0.9438(2) 0.15575(16)
H47_2 H 0.180546 0.914334 0.122412
C76_2 C 0.1857(3) 0.9291(3) 0.20787(16)
H48_2 H 0.125380 0.890104 0.209474
C81_2 C 0.0352(3) 0.3234(3) 0.7169(3)
C82_2 C 0.0359(3) 0.2860(3) 0.7656(2)
H52_2 H 0.012236 0.303760 0.797799
C83_2 C 0.0727(2) 0.2207(3) 0.7658(2)
H53_2 H 0.073668 0.194963 0.798679
C84_2 C 0.1080(2) 0.1933(2) 0.71813(17)
C85_2 C 0.1422(2) 0.1189(2) 0.71734(18)
C86_2 C 0.1075(3) 0.2342(3) 0.67048(19)
H54_2 H 0.131142 0.217048 0.638097
C87_2 C 0.0727(3) 0.3001(3) 0.6700(2)
H55_2 H 0.074594 0.328439 0.637979
O25 O 0.28940(15) 0.93964(15) 0.81895(10)
C29_2 C 0.1073(2) 0.9978(2) 0.90491(16)
C30_2 C 0.0086(2) 0.9509(2) 0.88523(15)
H17_2 H 0.014572 0.991280 0.808325
O24 O 0.27164(16) 0.93852(15) 0.91229(10)
O3_2 O 0.78288(18) 0.51956(18) 0.74276(17)
O4_2 O 0.70543(18) 0.21029(19) 0.75712(17)
C2_2 C 0.9776(2) 0.7744(2) 0.73209(17)
C3_2 C 0.9733(3) 0.7379(3) 0.78203(19)
C4_2 C 0.9091(3) 0.6534(3) 0.7859(2)
H2_2 H 0.906271 0.629516 0.819795
C5_2 C 0.8498(3) 0.6053(3) 0.7395(3)
C6_2 C 0.8104(3) 0.4477(3) 0.7396(2)
C7_2 C 0.7430(3) 0.3665(3) 0.7481(2)
H3_2 H 0.685006 0.362561 0.756110
C8_2 C 0.7647(3) 0.2927(3) 0.7442(2)
C9_2 C 0.6131(3) 0.1752(3) 0.7367(2)
C10_2 C 0.5560(3) 0.1200(2) 0.7704(2)
H4_2 H 0.578761 0.112428 0.805336
C11_2 C 0.4638(2) 0.0758(2) 0.75183(18)
H5_2 H 0.424594 0.036981 0.773836
C12_2 C 0.4299(2) 0.0893(2) 0.70054(17)
C13_2 C 0.3310(2) 0.0436(2) 0.68031(17)
H7_2 H 0.963403 0.862986 0.460967
H8_2 H 0.965916 0.875129 0.564291
C77_2 C 0.4898(3) 0.1459(3) 0.6672(2)
H49_2 H 0.467294 0.154173 0.632460
C78_2 C 0.5823(3) 0.1901(3) 0.6852(2)
H50_2 H 0.622229 0.228359 0.663197
C79_2 C 0.8500(3) 0.2968(3) 0.7324(2)
H51_2 H 0.863077 0.245297 0.729242
C80_2 C 0.9151(3) 0.3785(3) 0.7256(2)
C88_2 C 0.8969(3) 0.4550(3) 0.7290(2)
H56_2 H 0.941748 0.510118 0.724146
C89_2 C 0.8509(3) 0.6393(3) 0.6895(3)
H57_2 H 0.808916 0.606130 0.658453
C90_2 C 0.9156(3) 0.7241(3) 0.6859(2)
H58_2 H 0.917509 0.747747 0.651976
O9_2 O 0.73584(16) 0.81194(17) 0.82567(13)
O10_2 O 0.66234(16) 0.51731(17) 0.87356(14)
O13_2 O 0.43946(17) 0.64485(18) 0.87786(14)
C31_2 C 0.9756(2) 0.9550(2) 0.83160(16)
C32_2 C 0.8844(2) 0.9052(2) 0.81201(17)
H18_2 H 0.862145 0.906585 0.775396
C33_2 C 0.8274(2) 0.8538(2) 0.84780(18)
C34_2 C 0.6769(2) 0.7357(2) 0.84486(16)
C35_2 C 0.6997(2) 0.6630(3) 0.85017(17)
H19_2 H 0.757898 0.665604 0.843941
C36_2 C 0.6343(2) 0.5862(2) 0.86490(17)
C37_2 C 0.5951(3) 0.4296(3) 0.8692(2)
C38_2 C 0.5426(3) 0.3884(3) 0.8199(2)
H20_2 H 0.549994 0.418642 0.788430
C39_2 C 0.4778(3) 0.3016(2) 0.81600(18)
H21_2 H 0.441366 0.273699 0.781962
C40_2 C 0.4669(2) 0.2561(2) 0.86235(16)
C41_2 C 0.3916(2) 0.1644(2) 0.86088(16)
C42_2 C 0.5230(3) 0.2987(3) 0.91181(19)
H22_2 H 0.517742 0.268351 0.943166
C43_2 C 0.5877(3) 0.3869(3) 0.9155(2)
H23_2 H 0.625066 0.415733 0.949056
C44_2 C 0.5470(2) 0.5809(2) 0.87295(17)
H24_2 H 0.502685 0.528505 0.882173
C45_2 C 0.5273(2) 0.6552(2) 0.86694(17)
C46_2 C 0.4078(3) 0.7134(3) 0.8732(2)
C47_2 C 0.4050(2) 0.7462(3) 0.8230(2)
H25_2 H 0.427759 0.725848 0.791311
C48_2 C 0.3676(2) 0.8105(2) 0.82001(17)
H26_2 H 0.365014 0.833037 0.786029
C49_2 C 0.3341(2) 0.8414(2) 0.86764(16)
C50_2 C 0.2944(2) 0.9122(2) 0.86596(17)
C51_2 C 0.3373(3) 0.8060(3) 0.91742(19)
H27_2 H 0.314811 0.825695 0.949513
C52_2 C 0.3739(3) 0.7417(3) 0.9197(2)
H28_2 H 0.375297 0.717610 0.953238
C53_2 C 0.5919(2) 0.7335(2) 0.85333(16)
H29_2 H 0.577906 0.783435 0.850006
C54_2 C 0.8585(2) 0.8512(3) 0.90181(18)
H30_2 H 0.818743 0.816823 0.925566
C55_2 C 0.9489(2) 0.8997(3) 0.92066(17)
H31_2 H 0.970451 0.898314 0.957445
loop_
_geom_bond_atom_site_label_1
_geom_bond_atom_site_label_2
_geom_bond_site_symmetry_1
_geom_bond_site_symmetry_2
O9 C33 1_555 1_555
O10 C36 1_555 1_555
O11 C41 1_555 1_555
O12 C41 1_555 1_555
O13 C45 1_555 1_555
O14 C50 1_555 1_555
O15 C50 1_555 1_555
C32 C31 1_555 1_555
H18 C32 1_555 1_555
C33 C32 1_555 1_555
C34 O9 1_555 1_555
C35 C34 1_555 1_555
H19 C35 1_555 1_555
C36 C35 1_555 1_555
C37 O10 1_555 1_555
C38 C37 1_555 1_555
H20 C38 1_555 1_555
C39 C38 1_555 1_555
H21 C39 1_555 1_555
C40 C39 1_555 1_555
C41 C40 1_555 1_555
C42 C40 1_555 1_555
H22 C42 1_555 1_555
C43 C37 1_555 1_555
H23 C43 1_555 1_555
C44 C36 1_555 1_555
H24 C44 1_555 1_555
C45 C44 1_555 1_555
C46 O13 1_555 1_555
C47 C46 1_555 1_555
H25 C47 1_555 1_555
C48 C47 1_555 1_555
H26 C48 1_555 1_555
C49 C48 1_555 1_555
C50 C49 1_555 1_555
C51 C49 1_555 1_555
H27 C51 1_555 1_555
C52 C46 1_555 1_555
H28 C52 1_555 1_555
C53 C34 1_555 1_555
H29 C53 1_555 1_555
C54 C33 1_555 1_555
H30 C54 1_555 1_555
H31 C55 1_555 1_555
Ni8 O11 1_555 1_555
Ni13 O12 1_555 1_555
C42 C43 1_555 1_555
C45 C53 1_555 1_555
C51 C52 1_555 1_555
C54 C55 1_555 1_555
O3 C5 1_555 1_555
O4 C8 1_555 1_555
O5 C13 1_555 1_555
O6 C13 1_555 1_555
C2 C3 1_555 1_555
C4 C3 1_555 1_555
H2 C4 1_555 1_555
C5 C4 1_555 1_555
C6 O3 1_555 1_555
C7 C6 1_555 1_555
H3 C7 1_555 1_555
C8 C7 1_555 1_555
C9 O4 1_555 1_555
C10 C9 1_555 1_555
H4 C10 1_555 1_555
C11 C10 1_555 1_555
H5 C11 1_555 1_555
C12 C11 1_555 1_555
C13 C12 1_555 1_555
C77 C12 1_555 1_555
H49 C77 1_555 1_555
C78 C9 1_555 1_555
H50 C78 1_555 1_555
C79 C8 1_555 1_555
H51 C79 1_555 1_555
C80 C79 1_555 1_555
C88 C6 1_555 1_555
H56 C88 1_555 1_555
C89 C5 1_555 1_555
H57 C89 1_555 1_555
C90 C2 1_555 1_555
H58 C90 1_555 1_555
Ni8 O5 1_555 1_555
C77 C78 1_555 1_555
C80 C88 1_555 1_555
C89 C90 1_555 1_555
C30 C29 1_555 1_555
Ni11 O2 1_555 1_555
O1 C1 1_555 1_555
O2 C1 1_555 1_555
O17 C85 1_555 1_555
O18 C85 1_555 1_555
N1 Ni11 1_555 1_555
N2 C14 1_555 1_555
C14 N1 1_555 1_555
H6 C14 1_555 1_555
C15 N2 1_555 1_555
C16 N1 1_555 1_555
C17 N2 1_555 1_555
C18 C17 1_555 1_555
H9 C18 1_555 1_555
C19 C18 1_555 1_555
H10 C19 1_555 1_555
C20 C19 1_555 1_555
C21 C20 1_555 1_555
H11 C21 1_555 1_555
C22 C17 1_555 1_555
H12 C22 1_555 1_555
C23 C20 1_555 1_555
H47 C75 1_555 1_555
C76 C23 1_555 1_555
H48 C76 1_555 1_555
C81 O16 1_555 1_555
C82 C81 1_555 1_555
H52 C82 1_555 1_555
C83 C82 1_555 1_555
H53 C83 1_555 1_555
C84 C83 1_555 1_555
C85 C84 1_555 1_555
C86 C84 1_555 1_555
H54 C86 1_555 1_555
C87 C81 1_555 1_555
H55 C87 1_555 1_555
Ni8 O18 1_555 1_555
N9 Ni11 1_555 1_555
C15 C16 1_555 1_555
C21 C22 1_555 1_555
C75 C76 1_555 1_555
C86 C87 1_555 1_555
Ni13 O7 1_555 1_555
O8 Ni13 1_555 1_555
N5 Ni13 1_555 1_555
N6 C56 1_555 1_555
N7 C68 1_555 1_555
N9 C69 1_555 1_555
C56 N5 1_555 1_555
H32 C56 1_555 1_555
C57 N6 1_555 1_555
C58 N5 1_555 1_555
C59 N6 1_555 1_555
C60 C59 1_555 1_555
H35 C60 1_555 1_555
C61 C60 1_555 1_555
H36 C61 1_555 1_555
C62 C61 1_555 1_555
C63 C62 1_555 1_555
H37 C63 1_555 1_555
C64 C59 1_555 1_555
H38 C64 1_555 1_555
C65 C62 1_555 1_555
C66 C65 1_555 1_555
H39 C66 1_555 1_555
C67 C66 1_555 1_555
H40 C67 1_555 1_555
C68 C67 1_555 1_555
C69 N7 1_555 1_555
H41 C69 1_555 1_555
C70 N9 1_555 1_555
H42 C70 1_555 1_555
C71 N7 1_555 1_555
H43 C71 1_555 1_555
C72 C68 1_555 1_555
H44 C72 1_555 1_555
C73 C65 1_555 1_555
H45 C73 1_555 1_555
Ni8 O7 1_555 1_555
C57 C58 1_555 1_555
C63 C64 1_555 1_555
C70 C71 1_555 1_555
C72 C73 1_555 1_555
N3 C26 1_555 1_555
H13 C24 1_555 1_555
C25 C24 1_555 1_555
H14 C25 1_555 1_555
C26 C25 1_555 1_555
C27 N3 1_555 1_555
H15 C27 1_555 1_555
C28 N4 1_555 1_555
H16 C28 1_555 1_555
C74 N3 1_555 1_555
H46 C74 1_555 1_555
N4 C74 1_555 1_555
C27 C28 1_555 1_555
N3_2 C26_2 1_555 1_555
H13_2 C24_2 1_555 1_555
C25_2 C24_2 1_555 1_555
H14_2 C25_2 1_555 1_555
C26_2 C25_2 1_555 1_555
C27_2 N3_2 1_555 1_555
H15_2 C27_2 1_555 1_555
C28_2 N4_2 1_555 1_555
H16_2 C28_2 1_555 1_555
C74_2 N3_2 1_555 1_555
H46_2 C74_2 1_555 1_555
O19 Ni1 1_555 1_555
O21 Ni1 1_555 1_555
O22 Ni1 1_555 1_555
O27 Ni1 1_555 1_555
N4_2 C74_2 1_555 1_555
C27_2 C28_2 1_555 1_555
Ni3 O21 1_555 1_555
O8_2 Ni3 1_555 1_555
N5_2 Ni3 1_555 1_555
N6_2 C56_2 1_555 1_555
N7_2 C68_2 1_555 1_555
N8 C69_2 1_555 1_555
C56_2 N5_2 1_555 1_555
H32_2 C56_2 1_555 1_555
C57_2 N6_2 1_555 1_555
C58_2 N5_2 1_555 1_555
C59_2 N6_2 1_555 1_555
C60_2 C59_2 1_555 1_555
H35_2 C60_2 1_555 1_555
C61_2 C60_2 1_555 1_555
H36_2 C61_2 1_555 1_555
C62_2 C61_2 1_555 1_555
C63_2 C62_2 1_555 1_555
H37_2 C63_2 1_555 1_555
C64_2 C59_2 1_555 1_555
H38_2 C64_2 1_555 1_555
C65_2 C62_2 1_555 1_555
C66_2 C65_2 1_555 1_555
H39_2 C66_2 1_555 1_555
C67_2 C66_2 1_555 1_555
H40_2 C67_2 1_555 1_555
C68_2 C67_2 1_555 1_555
C69_2 N7_2 1_555 1_555
H41_2 C69_2 1_555 1_555
C70_2 N8 1_555 1_555
H42_2 C70_2 1_555 1_555
C71_2 N7_2 1_555 1_555
H43_2 C71_2 1_555 1_555
C72_2 C68_2 1_555 1_555
H44_2 C72_2 1_555 1_555
C73_2 C65_2 1_555 1_555
H45_2 C73_2 1_555 1_555
Ni9 N8 1_555 1_555
O23 Ni3 1_555 1_555
C57_2 C58_2 1_555 1_555
C63_2 C64_2 1_555 1_555
C70_2 C71_2 1_555 1_555
C72_2 C73_2 1_555 1_555
Ni9 O2_2 1_555 1_555
O1_2 C1_2 1_555 1_555
O2_2 C1_2 1_555 1_555
O26 C85_2 1_555 1_555
O27 C85_2 1_555 1_555
N1_2 Ni9 1_555 1_555
N2_2 C14_2 1_555 1_555
C14_2 N1_2 1_555 1_555
H6_2 C14_2 1_555 1_555
C15_2 N2_2 1_555 1_555
C16_2 N1_2 1_555 1_555
C17_2 N2_2 1_555 1_555
C18_2 C17_2 1_555 1_555
H9_2 C18_2 1_555 1_555
C19_2 C18_2 1_555 1_555
H10_2 C19_2 1_555 1_555
C20_2 C19_2 1_555 1_555
C21_2 C20_2 1_555 1_555
H11_2 C21_2 1_555 1_555
C22_2 C17_2 1_555 1_555
H12_2 C22_2 1_555 1_555
C23_2 C20_2 1_555 1_555
H47_2 C75_2 1_555 1_555
C76_2 C23_2 1_555 1_555
H48_2 C76_2 1_555 1_555
C81_2 O16_2 1_555 1_555
C82_2 C81_2 1_555 1_555
H52_2 C82_2 1_555 1_555
C83_2 C82_2 1_555 1_555
H53_2 C83_2 1_555 1_555
C84_2 C83_2 1_555 1_555
C85_2 C84_2 1_555 1_555
C86_2 C84_2 1_555 1_555
H54_2 C86_2 1_555 1_555
C87_2 C81_2 1_555 1_555
H55_2 C87_2 1_555 1_555
C15_2 C16_2 1_555 1_555
C21_2 C22_2 1_555 1_555
C75_2 C76_2 1_555 1_555
C86_2 C87_2 1_555 1_555
C30_2 C29_2 1_555 1_555
O3_2 C5_2 1_555 1_555
O4_2 C8_2 1_555 1_555
O19 C13_2 1_555 1_555
O20 C13_2 1_555 1_555
C2_2 C3_2 1_555 1_555
C4_2 C3_2 1_555 1_555
H2_2 C4_2 1_555 1_555
C5_2 C4_2 1_555 1_555
C6_2 O3_2 1_555 1_555
C7_2 C6_2 1_555 1_555
H3_2 C7_2 1_555 1_555
C8_2 C7_2 1_555 1_555
C9_2 O4_2 1_555 1_555
C10_2 C9_2 1_555 1_555
H4_2 C10_2 1_555 1_555
C11_2 C10_2 1_555 1_555
H5_2 C11_2 1_555 1_555
C12_2 C11_2 1_555 1_555
C13_2 C12_2 1_555 1_555
C77_2 C12_2 1_555 1_555
H49_2 C77_2 1_555 1_555
C78_2 C9_2 1_555 1_555
H50_2 C78_2 1_555 1_555
C79_2 C8_2 1_555 1_555
H51_2 C79_2 1_555 1_555
C80_2 C79_2 1_555 1_555
C88_2 C6_2 1_555 1_555
H56_2 C88_2 1_555 1_555
C89_2 C5_2 1_555 1_555
H57_2 C89_2 1_555 1_555
C90_2 C2_2 1_555 1_555
H58_2 C90_2 1_555 1_555
C77_2 C78_2 1_555 1_555
C80_2 C88_2 1_555 1_555
C89_2 C90_2 1_555 1_555
O9_2 C33_2 1_555 1_555
O10_2 C36_2 1_555 1_555
O22 C41_2 1_555 1_555
O23 C41_2 1_555 1_555
O13_2 C45_2 1_555 1_555
O24 C50_2 1_555 1_555
O25 C50_2 1_555 1_555
C32_2 C31_2 1_555 1_555
H18_2 C32_2 1_555 1_555
C33_2 C32_2 1_555 1_555
C34_2 O9_2 1_555 1_555
C35_2 C34_2 1_555 1_555
H19_2 C35_2 1_555 1_555
C36_2 C35_2 1_555 1_555
C37_2 O10_2 1_555 1_555
C38_2 C37_2 1_555 1_555
H20_2 C38_2 1_555 1_555
C39_2 C38_2 1_555 1_555
H21_2 C39_2 1_555 1_555
C40_2 C39_2 1_555 1_555
C41_2 C40_2 1_555 1_555
C42_2 C40_2 1_555 1_555
H22_2 C42_2 1_555 1_555
C43_2 C37_2 1_555 1_555
H23_2 C43_2 1_555 1_555
C44_2 C36_2 1_555 1_555
H24_2 C44_2 1_555 1_555
C45_2 C44_2 1_555 1_555
C46_2 O13_2 1_555 1_555
C47_2 C46_2 1_555 1_555
H25_2 C47_2 1_555 1_555
C48_2 C47_2 1_555 1_555
H26_2 C48_2 1_555 1_555
C49_2 C48_2 1_555 1_555
C50_2 C49_2 1_555 1_555
C51_2 C49_2 1_555 1_555
H27_2 C51_2 1_555 1_555
C52_2 C46_2 1_555 1_555
H28_2 C52_2 1_555 1_555
C53_2 C34_2 1_555 1_555
H29_2 C53_2 1_555 1_555
C54_2 C33_2 1_555 1_555
H30_2 C54_2 1_555 1_555
H31_2 C55_2 1_555 1_555
C42_2 C43_2 1_555 1_555
C45_2 C53_2 1_555 1_555
C51_2 C52_2 1_555 1_555
C54_2 C55_2 1_555 1_555

#END
