
###############################################################################
#
# This file contains modified crystal structure data generated from the
# MOF subset of the Cambridge Structural Database (CSD) v543 
# hosted by the Cambridge Crystallographic Data Centre (CCDC).
#
# This work is licensed under the Creative Commons
# Attribution-NonCommercial-ShareAlike 4.0 International License.
# To view a copy of this license, visit
# http://creativecommons.org/licenses/by-nc-sa/4.0/
# or send a letter to
# Creative Commons, PO Box 1866, Mountain View, CA 94042, USA.
#
# CIF created using the CSD Python API on 29 September 2022
# The structure has been converted into the P1 space group
# The structure has a 3D framework
# The original CSD entry FIWGEA01 is in the triclinic crystal system
# The framework has been calculated to contain at least 10.0% void space
# The void calculation uses a probe of radius 1.32A, grid spacing 0.4
#
###############################################################################

data_FIWGEA01
_chemical_formula_moiety         '(C74 H46 Cd3 N4 O12 S2)n'
_symmetry_cell_setting           triclinic
_symmetry_space_group_name_H-M   'P 1'
_symmetry_Int_Tables_number      1
_space_group_name_Hall           'P 1'
loop_
_symmetry_equiv_pos_site_id
_symmetry_equiv_pos_as_xyz
1 x,y,z
_cell_length_a                   11.9148(16)
_cell_length_b                   14.1227(19)
_cell_length_c                   14.199(2)
_cell_angle_alpha                69.589(2)
_cell_angle_beta                 79.334(2)
_cell_angle_gamma                85.700(3)
_cell_volume                     2200.42
loop_
_atom_site_label
_atom_site_type_symbol
_atom_site_fract_x
_atom_site_fract_y
_atom_site_fract_z
_atom_site_U_iso_or_equiv
_atom_site_thermal_displace_type
O3 O 0.4926(6) 0.7682(6) 0.7038(6) 0.0792 Uani
O4 O 0.4185(6) 0.6210(5) 0.7880(5) 0.0658 Uani
C19 C 0.1044(8) 0.8478(7) 0.8725(7) 0.0521 Uani
C20 C 0.1196(8) 0.7466(7) 0.9038(7) 0.0559 Uani
H14 H 0.0608 0.7040 0.9503 0.0670 Uiso
C21 C 0.2210(9) 0.7038(7) 0.8684(8) 0.0578 Uani
H15 H 0.2314 0.6325 0.8929 0.0690 Uiso
C22 C 0.3039(8) 0.7620(7) 0.8003(7) 0.0501 Uani
C23 C 0.2943(9) 0.8669(8) 0.7673(7) 0.0670 Uani
H16 H 0.3548 0.9083 0.7223 0.0800 Uiso
C24 C 0.1917(9) 0.9098(8) 0.8030(7) 0.0651 Uani
H17 H 0.1816 0.9811 0.7799 0.0780 Uiso
C25 C 0.4121(8) 0.7141(8) 0.7616(7) 0.0509 Uani
Cd5 Cd 0.58755(6) 0.62011(6) 0.68494(5) 0.0600 Uani
O5 O 0.6135(7) 0.4549(5) 0.7226(6) 0.0801 Uani
O6 O 0.6269(7) 0.4051(6) 0.5905(6) 0.0874 Uani
C26 C 0.8087(8) 0.1243(7) 0.8397(7) 0.0562 Uani
C27 C 0.7920(9) 0.1400(8) 0.7418(7) 0.0651 Uani
H18 H 0.8155 0.0904 0.7108 0.0780 Uiso
C28 C 0.7401(9) 0.2301(8) 0.6890(7) 0.0661 Uani
H19 H 0.7276 0.2412 0.6217 0.0790 Uiso
C29 C 0.7072(8) 0.3018(7) 0.7316(7) 0.0508 Uani
C30 C 0.7261(9) 0.2863(7) 0.8304(8) 0.0599 Uani
H20 H 0.7040 0.3365 0.8608 0.0720 Uiso
C31 C 0.7766(8) 0.1979(8) 0.8828(7) 0.0558 Uani
H21 H 0.7898 0.1873 0.9497 0.0670 Uiso
C32 C 0.6457(9) 0.3972(9) 0.6768(9) 0.0719 Uani
H23 H 0.9878 0.0169 0.7878 0.0690 Uiso
C37 C 0.8576(8) 0.0266(7) 0.9009(7) 0.0555 Uani
Cd11 Cd 0.5000 0.5000 0.5000 0.0571 Uani
S1 S 0.8977(3) 0.5510(3) 0.0725(3) 0.0970 Uani
N1 N 0.6345(8) 0.5105(7) 0.3596(7) 0.0700 Uani
H2 H 0.6605 0.5191 0.0589 0.1070 Uiso
C6 C 0.7925(13) 0.5379(11) 0.1833(11) 0.0888 Uani
C7 C 0.7116(12) 0.6064(10) 0.1826(9) 0.0825 Uani
H5 H 0.7077 0.6651 0.1244 0.0990 Uiso
C8 C 0.6320(10) 0.5883(9) 0.2715(8) 0.0704 Uani
H6 H 0.5701 0.6350 0.2703 0.0840 Uiso
C9 C 0.7190(10) 0.4440(10) 0.3585(10) 0.0775 Uani
H7 H 0.7229 0.3865 0.4178 0.0930 Uiso
C10 C 0.8017(11) 0.4568(11) 0.2725(11) 0.0950 Uani
H8 H 0.8643 0.4107 0.2743 0.1140 Uiso
C72 C 0.0014(8) 0.1069(7) 0.0836(7) 0.0504 Uani
C73 C 0.0464(8) 0.0156(8) 0.1432(7) 0.0574 Uani
O1 O 0.5679(7) 0.6547(5) 0.5085(5) 0.0710 Uani
O2 O 0.7250(7) 0.6849(6) 0.5490(6) 0.0831 Uani
N2 N 0.6983(7) 0.6087(6) 0.8102(5) 0.0822 Uani
C1 C 0.6416(5) 0.5657(6) 0.9097(6) 0.0912 Uani
H1 H 0.5634 0.5482 0.9223 0.1090 Uiso
C2 C 0.6993(7) 0.5484(7) 0.9909(4) 0.0897 Uani
C3 C 0.8136(7) 0.5741(7) 0.9725(5) 0.0860 Uani
C4 C 0.8703(5) 0.6170(7) 0.8730(6) 0.1069 Uani
H3 H 0.9485 0.6345 0.8604 0.1280 Uiso
C5 C 0.8126(7) 0.6343(7) 0.7918(5) 0.1081 Uani
H4 H 0.8514 0.6636 0.7237 0.1300 Uiso
C11 C 0.6684(11) 0.6932(8) 0.4841(9) 0.0696 Uani
C12 C 0.7129(9) 0.7432(7) 0.3729(7) 0.0586 Uani
C13 C 0.8264(9) 0.7418(7) 0.3401(7) 0.0568 Uani
H9 H 0.8753 0.7077 0.3876 0.0680 Uiso
C14 C 0.8732(8) 0.7887(7) 0.2391(7) 0.0509 Uani
H10 H 0.9535 0.7862 0.2179 0.0610 Uiso
C15 C 0.8056(8) 0.8382(7) 0.1697(6) 0.0480 Uani
C16 C 0.6882(9) 0.8419(8) 0.2021(8) 0.0633 Uani
H11 H 0.6396 0.8768 0.1545 0.0760 Uiso
C17 C 0.8101(8) 0.9795(7) 0.0015(7) 0.0519 Uani
C18 C 0.6413(9) 0.7935(8) 0.3063(8) 0.0616 Uani
H13 H 0.5614 0.7961 0.3293 0.0740 Uiso
C33 C 0.8541(8) 0.8903(7) 0.0594(7) 0.0541 Uani
C34 C 0.9483(8) 0.8471(7) 0.0160(7) 0.0492 Uani
H22 H 0.9786 0.7848 0.0557 0.0590 Uiso
Cd3 Cd 0.41245(6) 0.37989(6) 0.31506(5) 0.0600 Uani
O7 O 0.4321(7) 0.3453(5) 0.4915(5) 0.0710 Uani
O8 O 0.2750(7) 0.3151(6) 0.4510(6) 0.0831 Uani
N4 N 0.3017(7) 0.3913(6) 0.1898(5) 0.0822 Uani
C38 C 0.3584(5) 0.4343(6) 0.0903(6) 0.0912 Uani
H24 H 0.4366 0.4518 0.0777 0.1090 Uiso
C39 C 0.3007(7) 0.4516(7) 0.0091(4) 0.0897 Uani
C40 C 0.1864(7) 0.4259(7) 0.0275(5) 0.0860 Uani
C41 C 0.1297(5) 0.3830(7) 0.1270(6) 0.1069 Uani
H26 H 0.0515 0.3655 0.1396 0.1280 Uiso
C42 C 0.1874(7) 0.3657(7) 0.2082(5) 0.1081 Uani
H27 H 0.1486 0.3364 0.2763 0.1300 Uiso
C48 C 0.3316(11) 0.3068(8) 0.5159(9) 0.0696 Uani
C49 C 0.2871(9) 0.2568(7) 0.6271(7) 0.0586 Uani
C50 C 0.1736(9) 0.2582(7) 0.6599(7) 0.0568 Uani
H32 H 0.1247 0.2923 0.6124 0.0680 Uiso
C51 C 0.1268(8) 0.2113(7) 0.7609(7) 0.0509 Uani
H33 H 0.0465 0.2138 0.7821 0.0610 Uiso
C52 C 0.1944(8) 0.1618(7) 0.8303(6) 0.0480 Uani
C53 C 0.3118(9) 0.1581(8) 0.7979(8) 0.0633 Uani
H34 H 0.3604 0.1232 0.8455 0.0760 Uiso
C54 C 0.1899(8) 0.0205(7) 0.9985(7) 0.0519 Uani
C55 C 0.3587(9) 0.2065(8) 0.6937(8) 0.0616 Uani
H36 H 0.4386 0.2039 0.6707 0.0740 Uiso
C70 C 0.1459(8) 0.1097(7) 0.9406(7) 0.0541 Uani
C71 C 0.0517(8) 0.1529(7) 0.9840(7) 0.0492 Uani
H45 H 0.0214 0.2152 0.9443 0.0590 Uiso
O14 O 0.5074(6) 0.2318(6) 0.2962(6) 0.0792 Uani
O16 O 0.5815(6) 0.3790(5) 0.2120(5) 0.0658 Uani
O18 O 0.3865(7) 0.5451(5) 0.2774(6) 0.0801 Uani
O20 O 0.3731(7) 0.5949(6) 0.4095(6) 0.0874 Uani
N6 N 0.3655(8) 0.4895(7) 0.6404(7) 0.0700 Uani
C35 C 0.9986(8) 0.8931(7) 0.9164(7) 0.0504 Uani
C36 C 0.9536(8) 0.9844(8) 0.8568(7) 0.0574 Uani
S2 S 0.1023(3) 0.4490(3) 0.9275(3) 0.0970 Uani
H25 H 0.3395 0.4809 0.9411 0.1070 Uiso
C43 C 0.2075(13) 0.4621(11) 0.8167(11) 0.0888 Uani
C44 C 0.2884(12) 0.3936(10) 0.8174(9) 0.0825 Uani
H28 H 0.2923 0.3349 0.8756 0.0990 Uiso
C45 C 0.3680(10) 0.4117(9) 0.7285(8) 0.0704 Uani
H29 H 0.4299 0.3650 0.7297 0.0840 Uiso
C46 C 0.2810(10) 0.5560(10) 0.6415(10) 0.0775 Uani
H30 H 0.2771 0.6135 0.5822 0.0930 Uiso
C47 C 0.1983(11) 0.5432(11) 0.7275(11) 0.0950 Uani
H31 H 0.1357 0.5893 0.7257 0.1140 Uiso
C63 C 0.1913(8) 0.8757(7) 0.1603(7) 0.0562 Uani
C64 C 0.2080(9) 0.8600(8) 0.2582(7) 0.0651 Uani
H41 H 0.1845 0.9096 0.2892 0.0780 Uiso
C65 C 0.2599(9) 0.7699(8) 0.3110(7) 0.0661 Uani
H42 H 0.2724 0.7588 0.3783 0.0790 Uiso
C66 C 0.2928(8) 0.6982(7) 0.2684(7) 0.0508 Uani
C67 C 0.2739(9) 0.7137(7) 0.1696(8) 0.0599 Uani
H43 H 0.2960 0.6635 0.1392 0.0720 Uiso
C68 C 0.2234(8) 0.8021(8) 0.1172(7) 0.0558 Uani
H44 H 0.2102 0.8127 0.0503 0.0670 Uiso
C69 C 0.3543(9) 0.6028(9) 0.3232(9) 0.0719 Uani
H46 H 0.0122 0.9831 0.2122 0.0690 Uiso
C74 C 0.1424(8) 0.9734(7) 0.0991(7) 0.0555 Uani
C56 C 0.8956(8) 0.1522(7) 0.1275(7) 0.0521 Uani
C57 C 0.8804(8) 0.2534(7) 0.0962(7) 0.0559 Uani
H37 H 0.9392 0.2960 0.0497 0.0670 Uiso
C58 C 0.7790(9) 0.2962(7) 0.1316(8) 0.0578 Uani
H38 H 0.7686 0.3675 0.1071 0.0690 Uiso
C59 C 0.6961(8) 0.2380(7) 0.1997(7) 0.0501 Uani
C60 C 0.7057(9) 0.1331(8) 0.2327(7) 0.0670 Uani
H39 H 0.6452 0.0917 0.2777 0.0800 Uiso
C61 C 0.8083(9) 0.0902(8) 0.1970(7) 0.0651 Uani
H40 H 0.8184 0.0189 0.2201 0.0780 Uiso
C62 C 0.5879(8) 0.2859(8) 0.2384(7) 0.0509 Uani
H12 H 0.7457 0.0095 0.0312 0.0630 Uiso
H35 H 0.2543 0.9905 0.9688 0.0630 Uiso
loop_
_atom_site_aniso_label
_atom_site_aniso_U_11
_atom_site_aniso_U_22
_atom_site_aniso_U_33
_atom_site_aniso_U_23
_atom_site_aniso_U_13
_atom_site_aniso_U_12
O3 0.06 0.063 0.084 -0.013 0.03 0.022
O4 0.051 0.054 0.067 -0.011 0.024 0.023
C19 0.046 0.057 0.038 -0.009 0.004 0.03
C20 0.048 0.053 0.047 -0.004 0.008 0.015
C21 0.057 0.042 0.061 -0.013 0.007 0.017
C22 0.044 0.053 0.043 -0.012 -0.001 0.025
C23 0.068 0.067 0.037 -0.001 0.017 0.029
C24 0.069 0.05 0.046 0.003 0.013 0.033
C25 0.038 0.059 0.046 -0.013 -0.001 0.019
Cd5 0.0527 0.0599 0.0418 -0.0019 0.0105 0.0328
O5 0.092 0.058 0.058 -0.001 0.01 0.047
O6 0.084 0.089 0.055 0 -0.001 0.061
C26 0.043 0.052 0.052 -0.003 0.006 0.024
C27 0.069 0.065 0.043 -0.007 -0.004 0.041
C28 0.07 0.07 0.039 0 -0.013 0.035
C29 0.04 0.05 0.044 -0.002 0.002 0.02
C30 0.058 0.048 0.061 -0.016 0.005 0.027
C31 0.047 0.075 0.041 -0.021 -0.003 0.021
C32 0.06 0.069 0.053 0.005 0.008 0.034
C37 0.052 0.054 0.044 -0.008 0.003 0.03
Cd11 0.0531 0.0575 0.0358 0 0.0085 0.0327
S1 0.093 0.087 0.086 -0.0291 0.043 0.0053
N1 0.061 0.067 0.059 -0.012 0.018 0.022
C6 0.096 0.077 0.08 -0.032 0.029 -0.004
C7 0.107 0.069 0.06 -0.029 0.029 -0.005
C8 0.077 0.085 0.045 -0.026 0.005 0.006
C9 0.058 0.084 0.078 -0.028 0.011 0.021
C10 0.064 0.106 0.11 -0.052 0.009 0.045
C72 0.04 0.046 0.047 -0.004 0.005 0.021
C73 0.042 0.062 0.048 -0.009 0.011 0.028
O1 0.068 0.052 0.06 0 0.022 0.024
O2 0.075 0.09 0.046 0.005 0.013 0.037
N2 0.091 0.072 0.072 -0.026 0.009 0.02
C1 0.094 0.094 0.059 -0.008 0 0.04
C2 0.078 0.092 0.07 -0.005 0.003 0.026
C3 0.079 0.086 0.071 -0.012 -0.004 0.038
C4 0.063 0.148 0.067 -0.002 0.006 0.047
C5 0.102 0.117 0.087 -0.023 -0.003 0.019
C11 0.07 0.05 0.058 -0.003 0.023 0.028
C12 0.068 0.046 0.038 -0.003 0.017 0.024
C13 0.059 0.054 0.046 -0.011 -0.004 0.027
C14 0.046 0.045 0.041 -0.001 0.009 0.017
C15 0.05 0.049 0.034 -0.011 0.007 0.016
C16 0.052 0.063 0.054 -0.01 0.011 0.028
C17 0.042 0.051 0.048 -0.009 0.003 0.023
C18 0.051 0.058 0.064 -0.02 0.012 0.014
C33 0.048 0.057 0.039 -0.002 -0.003 0.03
C34 0.042 0.046 0.046 -0.008 0.002 0.021
Cd3 0.0527 0.0599 0.0418 -0.0019 0.0105 0.0328
O7 0.068 0.052 0.06 0 0.022 0.024
O8 0.075 0.09 0.046 0.005 0.013 0.037
N4 0.091 0.072 0.072 -0.026 0.009 0.02
C38 0.094 0.094 0.059 -0.008 0 0.04
C39 0.078 0.092 0.07 -0.005 0.003 0.026
C40 0.079 0.086 0.071 -0.012 -0.004 0.038
C41 0.063 0.148 0.067 -0.002 0.006 0.047
C42 0.102 0.117 0.087 -0.023 -0.003 0.019
C48 0.07 0.05 0.058 -0.003 0.023 0.028
C49 0.068 0.046 0.038 -0.003 0.017 0.024
C50 0.059 0.054 0.046 -0.011 -0.004 0.027
C51 0.046 0.045 0.041 -0.001 0.009 0.017
C52 0.05 0.049 0.034 -0.011 0.007 0.016
C53 0.052 0.063 0.054 -0.01 0.011 0.028
C54 0.042 0.051 0.048 -0.009 0.003 0.023
C55 0.051 0.058 0.064 -0.02 0.012 0.014
C70 0.048 0.057 0.039 -0.002 -0.003 0.03
C71 0.042 0.046 0.046 -0.008 0.002 0.021
O14 0.06 0.063 0.084 -0.013 0.03 0.022
O16 0.051 0.054 0.067 -0.011 0.024 0.023
O18 0.092 0.058 0.058 -0.001 0.01 0.047
O20 0.084 0.089 0.055 0 -0.001 0.061
N6 0.061 0.067 0.059 -0.012 0.018 0.022
C35 0.04 0.046 0.047 -0.004 0.005 0.021
C36 0.042 0.062 0.048 -0.009 0.011 0.028
S2 0.093 0.087 0.086 -0.0291 0.043 0.0053
C43 0.096 0.077 0.08 -0.032 0.029 -0.004
C44 0.107 0.069 0.06 -0.029 0.029 -0.005
C45 0.077 0.085 0.045 -0.026 0.005 0.006
C46 0.058 0.084 0.078 -0.028 0.011 0.021
C47 0.064 0.106 0.11 -0.052 0.009 0.045
C63 0.043 0.052 0.052 -0.003 0.006 0.024
C64 0.069 0.065 0.043 -0.007 -0.004 0.041
C65 0.07 0.07 0.039 0 -0.013 0.035
C66 0.04 0.05 0.044 -0.002 0.002 0.02
C67 0.058 0.048 0.061 -0.016 0.005 0.027
C68 0.047 0.075 0.041 -0.021 -0.003 0.021
C69 0.06 0.069 0.053 0.005 0.008 0.034
C74 0.052 0.054 0.044 -0.008 0.003 0.03
C56 0.046 0.057 0.038 -0.009 0.004 0.03
C57 0.048 0.053 0.047 -0.004 0.008 0.015
C58 0.057 0.042 0.061 -0.013 0.007 0.017
C59 0.044 0.053 0.043 -0.012 -0.001 0.025
C60 0.068 0.067 0.037 -0.001 0.017 0.029
C61 0.069 0.05 0.046 0.003 0.013 0.033
C62 0.038 0.059 0.046 -0.013 -0.001 0.019
loop_
_geom_bond_atom_site_label_1
_geom_bond_atom_site_label_2
_geom_bond_site_symmetry_1
_geom_bond_site_symmetry_2
O3 C25 1_555 1_555
O4 C25 1_555 1_555
C19 C20 1_555 1_555
C20 H14 1_555 1_555
C21 C20 1_555 1_555
H15 C21 1_555 1_555
C22 C21 1_555 1_555
C23 C22 1_555 1_555
H16 C23 1_555 1_555
C24 C19 1_555 1_555
H17 C24 1_555 1_555
C25 C22 1_555 1_555
Cd5 O3 1_555 1_555
O4 Cd5 1_555 1_555
C23 C24 1_555 1_555
O5 C32 1_555 1_555
O6 C32 1_555 1_555
C26 C27 1_555 1_555
C27 H18 1_555 1_555
C28 C27 1_555 1_555
H19 C28 1_555 1_555
C29 C28 1_555 1_555
C30 C29 1_555 1_555
H20 C30 1_555 1_555
C31 C26 1_555 1_555
H21 C31 1_555 1_555
C32 C29 1_555 1_555
Cd5 O5 1_555 1_555
Cd11 O6 1_555 1_555
C26 C37 1_555 1_555
C30 C31 1_555 1_555
N1 C8 1_555 1_555
C6 S1 1_555 1_555
C7 C6 1_555 1_555
H5 C7 1_555 1_555
C8 C7 1_555 1_555
H6 C8 1_555 1_555
C9 N1 1_555 1_555
H7 C9 1_555 1_555
C10 C6 1_555 1_555
H8 C10 1_555 1_555
C73 C72 1_555 1_555
Cd11 N1 1_555 1_555
C9 C10 1_555 1_555
Cd5 O1 1_555 1_555
Cd11 O1 1_555 1_555
O1 C11 1_555 1_555
O2 Cd5 1_555 1_555
N2 Cd5 1_555 1_555
C1 N2 1_555 1_555
H1 C1 1_555 1_555
C2 C1 1_555 1_555
C3 C2 1_555 1_555
C4 C3 1_555 1_555
H3 C4 1_555 1_555
C5 N2 1_555 1_555
H4 C5 1_555 1_555
C11 O2 1_555 1_555
C12 C11 1_555 1_555
C13 C12 1_555 1_555
H9 C13 1_555 1_555
C14 C13 1_555 1_555
H10 C14 1_555 1_555
C15 C14 1_555 1_555
C16 C15 1_555 1_555
H11 C16 1_555 1_555
C18 C12 1_555 1_555
H13 C18 1_555 1_555
C33 C15 1_555 1_555
C34 C33 1_555 1_555
H22 C34 1_555 1_555
Cd3 O7 1_555 1_555
O7 Cd11 1_555 1_555
O8 Cd3 1_555 1_555
N4 Cd3 1_555 1_555
C38 N4 1_555 1_555
H24 C38 1_555 1_555
C39 C38 1_555 1_555
C40 C39 1_555 1_555
C41 C40 1_555 1_555
H26 C41 1_555 1_555
C42 N4 1_555 1_555
H27 C42 1_555 1_555
C48 O7 1_555 1_555
C49 C48 1_555 1_555
C50 C49 1_555 1_555
H32 C50 1_555 1_555
C51 C50 1_555 1_555
H33 C51 1_555 1_555
C52 C51 1_555 1_555
C53 C52 1_555 1_555
H34 C53 1_555 1_555
C55 C49 1_555 1_555
H36 C55 1_555 1_555
C70 C52 1_555 1_555
C71 C70 1_555 1_555
H45 C71 1_555 1_555
O14 Cd3 1_555 1_555
O16 Cd3 1_555 1_555
O18 Cd3 1_555 1_555
O20 Cd11 1_555 1_555
N6 Cd11 1_555 1_555
C4 C5 1_555 1_555
C16 C18 1_555 1_555
C17 C33 1_555 1_555
O8 C48 1_555 1_555
C41 C42 1_555 1_555
C53 C55 1_555 1_555
C54 C70 1_555 1_555
C36 C35 1_555 1_555
N6 C45 1_555 1_555
C43 S2 1_555 1_555
C44 C43 1_555 1_555
H28 C44 1_555 1_555
C45 C44 1_555 1_555
H29 C45 1_555 1_555
C46 N6 1_555 1_555
H30 C46 1_555 1_555
C47 C43 1_555 1_555
H31 C47 1_555 1_555
C46 C47 1_555 1_555
O18 C69 1_555 1_555
O20 C69 1_555 1_555
C63 C64 1_555 1_555
C64 H41 1_555 1_555
C65 C64 1_555 1_555
H42 C65 1_555 1_555
C66 C65 1_555 1_555
C67 C66 1_555 1_555
H43 C67 1_555 1_555
C68 C63 1_555 1_555
H44 C68 1_555 1_555
C69 C66 1_555 1_555
C63 C74 1_555 1_555
C67 C68 1_555 1_555
O14 C62 1_555 1_555
O16 C62 1_555 1_555
C56 C57 1_555 1_555
C57 H37 1_555 1_555
C58 C57 1_555 1_555
H38 C58 1_555 1_555
C59 C58 1_555 1_555
C60 C59 1_555 1_555
H39 C60 1_555 1_555
C61 C56 1_555 1_555
H40 C61 1_555 1_555
C62 C59 1_555 1_555
C60 C61 1_555 1_555

#END
