
###############################################################################
#
# This file contains modified crystal structure data generated from the
# MOF subset of the Cambridge Structural Database (CSD) v543 
# hosted by the Cambridge Crystallographic Data Centre (CCDC).
#
# This work is licensed under the Creative Commons
# Attribution-NonCommercial-ShareAlike 4.0 International License.
# To view a copy of this license, visit
# http://creativecommons.org/licenses/by-nc-sa/4.0/
# or send a letter to
# Creative Commons, PO Box 1866, Mountain View, CA 94042, USA.
#
# CIF created using the CSD Python API on 29 September 2022
# The structure has been converted into the P1 space group
# The structure has a 3D framework
# The original CSD entry FIXVUE is in the cubic crystal system
# The original CSD entry FIXVUE is in a Sohncke space group
# The framework has been calculated to contain at least 10.0% void space
# The void calculation uses a probe of radius 1.32A, grid spacing 0.4
# H atom positions have been added when not included in the experimental data
#
###############################################################################

data_FIXVUE
_chemical_formula_moiety         '(C480 H952 Ag62 Au42 Cl20 Cu48 N96 O236 S96)n'
_symmetry_cell_setting           triclinic
_symmetry_space_group_name_H-M   'P 1'
_symmetry_Int_Tables_number      1
_space_group_name_Hall           'P 1'
loop_
_symmetry_equiv_pos_site_id
_symmetry_equiv_pos_as_xyz
1 x,y,z
_cell_length_a                   32.749(2)
_cell_length_b                   32.749(2)
_cell_length_c                   32.749(2)
_cell_angle_alpha                90
_cell_angle_beta                 90
_cell_angle_gamma                90
_cell_volume                     35123.2
loop_
_atom_site_label
_atom_site_type_symbol
_atom_site_fract_x
_atom_site_fract_y
_atom_site_fract_z
Au2 Au 0.41875(2) 0.06230(2) 0.57131(2)
Au3 Au 0.05554(2) 0.00613(2) 0.59969(2)
Au4 Au 0.04397(2) 0.11043(2) 0.57455(2)
Ag1 Ag 0.33264(5) 0.08223(5) 0.54810(5)
Ag2 Ag 0.42204(5) 0.00949(5) 0.47605(5)
Ag4 Ag 0.10963(7) 0.07415(9) 0.62699(7)
Ag6 Ag 0.05701(7) 0.05794(6) 0.50362(5)
Cu1 Cu 0.38951(8) 0.13320(7) 0.44933(7)
Cu2 Cu 0.28245(7) 0.02532(8) 0.64517(7)
Cu3 Cu 0.02664(7) 0.10928(7) 0.71995(6)
Cu4 Cu 0.17744(6) 0.03124(7) 0.53469(7)
Cl1 Cl 0.2824(2) 0.1358(2) 0.5499(2)
S1 S 0.35836(12) 0.05291(13) 0.48036(13)
S3 S 0.36326(13) 0.05341(14) 0.61381(14)
S4 S 0.47224(13) 0.06138(12) 0.52600(14)
S5 S 0.04575(14) 0.04305(14) 0.65864(12)
S7 S 0.10665(14) 0.08794(15) 0.5513(2)
O1 O 0.3918(4) 0.1081(4) 0.3990(4)
O2 O 0.3523(6) 0.0763(6) 0.3516(5)
O3 O 0.3899(4) 0.1525(3) 0.5054(4)
O4 O 0.4288(4) 0.1710(3) 0.5575(3)
O5 O 0.2658(4) 0.0290(3) 0.5908(4)
O7 O 0.3096(5) 0.0188(5) 0.6979(5)
O8 O 0.3438(7) 0.0592(8) 0.7430(5)
O11 O 0.0620(4) 0.1414(4) 0.6865(3)
O12 O 0.0650(5) 0.1938(6) 0.6435(6)
O13 O 0.1633(3) 0.0092(3) 0.5878(3)
O15 O 0.1796(3) 0.0579(4) 0.4813(4)
O16 O 0.1858(4) 0.1185(4) 0.4494(4)
O17 O 0.1768(6) 0.0901(10) 0.6457(7)
O18 O 0.4036(5) 0.2033(4) 0.4260(4)
O19 O 0.2124(5) 0.0161(7) 0.6665(6)
O20 O 0.0251(5) 0.1534(4) 0.7746(4)
N1 N 0.3296(5) 0.1296(4) 0.4430(5)
N2 N 0.4491(5) 0.1238(4) 0.4574(5)
N4 N 0.2884(5) 0.0861(6) 0.6532(6)
N5 N 0.0692(4) 0.0725(4) 0.7424(4)
N8 N 0.1970(4) 0.0860(4) 0.5549(5)
C1 C 0.3586(6) 0.0940(6) 0.3865(5)
C2 C 0.3208(5) 0.0943(4) 0.4156(5)
C3 C 0.3172(4) 0.0554(5) 0.4405(5)
C4 C 0.2752(5) 0.0544(6) 0.4626(7)
C5 C 0.3205(6) 0.0160(5) 0.4135(5)
C6 C 0.4244(4) 0.1543(5) 0.5227(4)
C7 C 0.4631(5) 0.1403(5) 0.4979(5)
C8 C 0.4940(4) 0.1125(4) 0.5191(4)
C9 C 0.5305(5) 0.1083(6) 0.4900(6)
C10 C 0.5063(6) 0.1312(6) 0.5608(6)
C16 C 0.3241(7) 0.0528(7) 0.7096(5)
C17 C 0.3267(5) 0.0888(7) 0.6780(6)
C18 C 0.3655(5) 0.0950(5) 0.6527(5)
C19 C 0.3672(6) 0.1363(5) 0.6299(6)
C20 C 0.4050(6) 0.0912(8) 0.6782(7)
C21 C 0.0053(4) 0.0355(5) 0.7517(5)
C22 C 0.0513(4) 0.0302(4) 0.7406(4)
C23 C 0.0611(4) 0.0092(5) 0.7003(4)
C24 C 0.1075(5) 0.0024(6) 0.6979(7)
C26 C 0.0451(5) 0.1680(5) 0.6642(5)
C36 C 0.1823(5) 0.0967(4) 0.4808(5)
C37 C 0.1813(5) 0.1168(5) 0.5241(5)
C38 C 0.1389(5) 0.1310(6) 0.5364(5)
C39 C 0.1417(7) 0.1582(8) 0.5748(7)
C40 C 0.1190(5) 0.1569(6) 0.5019(6)
Au6 Au 0.00343(2) 0.02165(2) 0.15203(2)
Ag11 Ag 0.50949(5) 0.02395(5) 0.57796(5)
Ag15 Ag 0.01232(5) 0.11674(6) 0.09570(5)
Ag16 Ag 0.09570(5) 0.01232(5) 0.11674(6)
Cu6 Cu 0.63320(7) 0.05067(7) 0.61049(8)
S9 S 0.55291(13) 0.01964(13) 0.64164(12)
S13 S 0.05793(13) 0.06534(13) 0.15327(12)
S23 S 0.02756(14) 0.03888(14) 0.43754(14)
O21 O 0.6081(4) 0.1010(4) 0.6082(4)
O24 O 0.5763(6) 0.1484(5) 0.6477(6)
O33 O 0.0086(3) 0.0381(3) 0.2619(3)
O50 O 0.0520(5) 0.1194(4) 0.3436(4)
O51 O 0.5579(4) 0.0187(4) 0.8204(3)
O53 O 0.6185(4) 0.0506(4) 0.8142(4)
O58 O 0.7033(4) 0.0740(4) 0.5964(5)
N9 N 0.6296(4) 0.0570(5) 0.6704(5)
N13 N 0.6238(4) 0.0426(5) 0.5509(5)
N15 N 0.0335(5) 0.1360(4) 0.2120(5)
N24 N 0.0172(4) 0.0135(4) 0.3484(4)
C41 C 0.5940(6) 0.1135(5) 0.6414(6)
C43 C 0.5943(4) 0.0844(5) 0.6792(5)
C45 C 0.5554(5) 0.0595(5) 0.6828(4)
C47 C 0.5544(6) 0.0374(7) 0.7248(5)
C49 C 0.5160(5) 0.0865(5) 0.6795(6)
C54 C 0.6403(5) 0.0021(5) 0.5369(5)
C57 C 0.5100(6) 0.0305(5) 0.3917(6)
C58 C 0.6083(6) 0.0100(6) 0.4695(5)
C59 C 0.4392(6) 0.0063(6) 0.3688(6)
C62 C 0.0045(4) 0.0724(4) 0.2425(4)
C64 C 0.0451(4) 0.0950(4) 0.2306(5)
C66 C 0.0770(5) 0.0720(4) 0.2060(5)
C68 C 0.1150(6) 0.1008(7) 0.2027(6)
C70 C 0.0887(6) 0.0295(5) 0.2243(5)
C102 C 0.0278(4) 0.0887(4) 0.3455(5)
C104 C 0.0477(5) 0.0472(4) 0.3560(4)
C106 C 0.0684(5) 0.0443(5) 0.3982(4)
C108 C 0.0946(6) 0.0831(7) 0.4101(6)
C110 C 0.0936(7) 0.0039(6) 0.4017(7)
C111 C 0.5967(4) 0.0192(5) 0.8177(5)
H1 H 0.382168 0.211914 0.406357
H2 H 0.403615 0.222067 0.449816
H4 H 0.211337 0.0130143 0.696645
H5 H 0.195452 0.0839847 0.62259
H6 H 0.178633 0.119558 0.652646
H7 H 0.0348683 0.139045 0.799458
H8 H 0.0430738 0.177151 0.768925
H9 H 0.318705 0.155739 0.430406
H10 H 0.316295 0.125117 0.470631
H11 H 0.46475 0.138 0.434728
H12 H 0.454775 0.0933483 0.456367
H16 H 0.340014 0.139684 0.611053
H17 H 0.368527 0.161114 0.651997
H18 H 0.394257 0.137195 0.61059
H20 H 0.296928 0.0166235 0.390054
H21 H 0.350446 0.0149177 0.399084
H27 H 0.431415 0.093571 0.65814
H28 H 0.406005 0.11559 0.700781
H29 H 0.405426 0.0617604 0.693656
H30 H 0.528968 0.11175 0.575416
H31 H 0.519129 0.161502 0.556007
H32 H 0.479445 0.133487 0.580276
H34 H 0.123145 0.0316046 0.700745
H40 H 0.520117 0.0960107 0.460898
H41 H 0.54429 0.138165 0.485134
H42 H 0.552989 0.0877446 0.503322
H47 H 0.227962 0.086686 0.556104
H48 H 0.185433 0.091938 0.583034
H49 H 0.0757891 0.0802078 0.771688
H50 H 0.0949729 0.0740656 0.725257
H51 H 0.323498 0.116541 0.696054
H52 H 0.0654211 0.0123509 0.764844
H53 H 0.292891 0.0996682 0.398337
H54 H 0.272857 0.08045 0.483134
H55 H 0.250783 0.0558142 0.44007
H56 H 0.272539 0.0262353 0.480076
H57 H 0.264189 0.097835 0.668585
H58 H 0.291505 0.100777 0.626079
H59 H 0.479691 0.168239 0.490837
H60 H 0.0898349 0.168887 0.512458
H61 H 0.139141 0.182142 0.493969
H62 H 0.114095 0.137799 0.475126
H67 H 0.201679 0.143077 0.524059
H75 H 0.155237 0.140836 0.59972
H76 H 0.16062 0.184744 0.568226
H77 H 0.111217 0.168207 0.583542
H80 H 0.0248548 0.198096 0.584845
H87 H 0.711914 0.0936434 0.617832
H88 H 0.722067 0.0501844 0.596385
H99 H 0.655739 0.0695943 0.681295
H100 H 0.625117 0.0293693 0.683705
H101 H 0.00876379 0.153388 0.298969
H103 H 0.638 0.0652721 0.53525
H104 H 0.593348 0.0436327 0.545225
H115 H 0.0488269 0.158607 0.226649
H116 H 0.0411083 0.136147 0.181955
H117 H 0.469967 0.00786917 0.829981
H128 H 0.596011 0.039102 0.479883
H129 H 0.638165 0.0148661 0.45571
H132 H 0.599668 0.101663 0.707109
H133 H 0.059871 0.102318 0.259479
H134 H 0.668239 0.00916333 0.520309
H135 H 0.539102 0.0201172 0.403989
H136 H 0.514866 0.0442901 0.361835
H137 H 0.496678 0.052989 0.412255
H138 H 0.424584 0.0289682 0.38825
H139 H 0.443993 0.0191294 0.338498
H141 H 0.105752 0.129885 0.189498
H142 H 0.127693 0.10592 0.233006
H143 H 0.137994 0.0866331 0.1833
H149 H 0.489094 0.067391 0.683582
H150 H 0.516623 0.109946 0.703072
H151 H 0.514918 0.100916 0.649554
H159 H 0.58045 0.0168655 0.727143
H160 H 0.555814 0.0599297 0.749217
H161 H 0.526235 0.0199236 0.727461
H163 H 0.00944425 0.000510887 0.37545
H166 H 0.112439 0.0155568 0.20565
H167 H 0.099918 0.0335082 0.255346
H168 H 0.0618947 0.00982493 0.224654
H182 H 0.0719184 0.0427879 0.333645
H213 H 0.426216 0.0220907 0.895572
H218 H 0.682142 0.00603144 0.860859
H219 H 0.637799 0.0248741 0.885905
H221 H 0.118425 0.00436941 0.379581
H222 H 0.106143 0.00128309 0.432385
H229 H 0.107905 0.0786685 0.440251
H230 H 0.118884 0.0873463 0.387784
H231 H 0.0750467 0.109994 0.410456
Ag22 Ag 0.53763(6) 0.87372(7) 0.02374(5)
Ag23 Ag 0.62628(7) 0.97626(5) 0.03763(6)
Ag27 Ag 0.44299(7) 0.94206(6) 0.00362(5)
S29 S 0.62202(14) 0.90302(14) 0.02139(13)
O40 O 0.5696(3) 0.7558(3) 0.0113(3)
O42 O 0.5044(4) 0.7337(4) 0.0125(4)
N22 N 0.6365(4) 0.8089(4) 0.0172(4)
C94 C 0.6720(5) 0.8353(5) 0.0030(5)
C96 C 0.6741(5) 0.8773(4) 0.0232(4)
C98 C 0.7058(6) 0.9072(6) 0.0065(7)
C100 C 0.6815(7) 0.8689(8) 0.0696(5)
H107 H 0.6473 0.788036 0.0374148
H108 H 0.615761 0.827139 0.0312648
H178 H 0.657439 0.84913 0.0812607
H179 H 0.710975 0.854037 0.0736109
H180 H 0.681242 0.897681 0.0862538
H183 H 0.706013 0.934708 0.025182
H184 H 0.735879 0.893042 0.00727304
H186 H 0.700089 0.819172 0.0105277
Au1 Au 0.34797(2) 0.99657(2) 0.52165(2)
Ag3 Ag 0.40430(5) 0.98768(5) 0.61674(6)
Cl2 Cl 0.45419(13) 0.95419(13) 0.54581(13)
S2 S 0.34673(12) 0.94207(13) 0.56534(13)
S6 S 0.06246(14) 0.97244(14) 0.53888(14)
O6 O 0.2381(3) 0.9914(3) 0.5381(3)
O14 O 0.1564(4) 0.9480(5) 0.6194(4)
N3 N 0.2880(5) 0.9665(5) 0.6360(4)
N7 N 0.1516(4) 0.9828(4) 0.5135(4)
C11 C 0.2575(4) 0.9955(4) 0.5724(4)
C12 C 0.2694(5) 0.9549(4) 0.5950(4)
C13 C 0.2940(5) 0.9230(5) 0.5720(4)
C14 C 0.2973(6) 0.8850(6) 0.6008(7)
C15 C 0.2757(5) 0.9113(6) 0.5295(5)
C25 C 0.0374(8) 0.9683(5) 0.6977(6)
C31 C 0.1545(5) 0.9722(4) 0.5887(4)
C32 C 0.1440(4) 0.9523(5) 0.5472(4)
C33 C 0.1018(4) 0.9316(5) 0.5443(5)
C34 C 0.0899(6) 0.9054(6) 0.5831(7)
C35 C 0.0983(7) 0.9064(7) 0.5039(6)
Au5 Au 0.49657(2) 0.97835(2) 0.65203(2)
Au7 Au 0.47835(2) 0.84797(2) 0.50343(2)
Au8 Au 0.42869(2) 0.91875(2) 0.43770(2)
Au9 Au 0.56230(2) 0.92869(2) 0.58125(2)
Au10 Au 0.50613(2) 0.90031(2) 0.94446(2)
Au13 Au 0.61043(2) 0.92545(2) 0.95603(2)
Ag7 Ag 0.45190(5) 0.83264(5) 0.41777(5)
Ag8 Ag 0.58223(5) 0.95190(5) 0.66736(5)
Ag10 Ag 0.52395(5) 0.92204(5) 0.49051(5)
Ag13 Ag 0.38326(6) 0.90430(5) 0.51232(5)
Ag14 Ag 0.48768(5) 0.88326(6) 0.59570(5)
Ag17 Ag 0.57415(9) 0.87301(7) 0.89037(7)
Ag26 Ag 0.55794(6) 0.99638(5) 0.94299(7)
Cu5 Cu 0.55067(7) 0.88951(8) 0.36680(7)
Cu8 Cu 0.52532(8) 0.85483(7) 0.71755(7)
Cu10 Cu 0.35483(7) 0.78245(7) 0.47468(8)
Cu12 Cu 0.60928(7) 0.78005(6) 0.97336(7)
Cu13 Cu 0.53124(7) 0.96531(7) 0.82256(6)
Cl4 Cl 0.4501(2) 0.7824(2) 0.3642(2)
Cl5 Cl 0.6358(2) 0.9501(2) 0.7176(2)
S11 S 0.51964(13) 0.85836(12) 0.44709(13)
S12 S 0.44207(13) 0.93466(13) 0.65327(12)
S14 S 0.43466(13) 0.84673(12) 0.55793(13)
S15 S 0.38619(14) 0.86326(13) 0.44659(14)
S16 S 0.55341(14) 0.88619(14) 0.63674(13)
S17 S 0.47400(14) 0.97224(13) 0.43862(12)
S18 S 0.56138(12) 0.97400(14) 0.52776(13)
S20 S 0.54305(14) 0.84136(12) 0.95425(14)
S22 S 0.47244(14) 0.96112(14) 0.93754(14)
S25 S 0.58794(15) 0.9487(2) 0.89335(14)
O23 O 0.6010(4) 0.8918(4) 0.3919(4)
O26 O 0.4946(4) 0.8899(4) 0.3475(3)
O27 O 0.6525(3) 0.9946(4) 0.6101(4)
O28 O 0.4425(3) 0.9288(4) 0.3290(3)
O29 O 0.6710(3) 0.9425(3) 0.5712(4)
O30 O 0.5290(3) 0.9092(4) 0.7342(4)
O32 O 0.4914(3) 0.9619(3) 0.7619(3)
O34 O 0.3021(5) 0.8096(5) 0.4812(5)
O35 O 0.5188(5) 0.8021(5) 0.6904(5)
O37 O 0.2570(5) 0.8438(7) 0.4408(8)
O38 O 0.5592(8) 0.7570(5) 0.6562(7)
O44 O 0.6414(4) 0.8135(3) 0.9380(4)
O46 O 0.6938(6) 0.8565(6) 0.9350(5)
O47 O 0.5092(3) 0.9122(3) 0.8367(3)
O49 O 0.4480(5) 0.8806(4) 0.8436(4)
O55 O 0.5901(10) 0.8543(7) 0.8232(6)
O57 O 0.5740(4) 0.9036(5) 0.2967(4)
O59 O 0.5161(7) 0.8335(6) 0.7876(5)
O62 O 0.6534(4) 0.7254(4) 0.9749(5)
N11 N 0.5570(5) 0.8296(5) 0.3704(4)
N12 N 0.5426(5) 0.9491(5) 0.3762(4)
N14 N 0.4665(5) 0.8640(4) 0.7120(5)
N16 N 0.3468(6) 0.7884(5) 0.4139(6)
N17 N 0.5861(6) 0.8468(6) 0.7116(5)
N20 N 0.5725(4) 0.7576(4) 0.9308(4)
N23 N 0.4828(4) 0.9865(4) 0.8484(4)
N25 N 0.5860(4) 0.9451(5) 0.8030(4)
C51 C 0.4773(4) 0.9244(4) 0.3457(5)
C52 C 0.6543(5) 0.9773(4) 0.5756(4)
C53 C 0.5021(5) 0.9631(5) 0.3597(5)
C55 C 0.4809(4) 0.9940(4) 0.3875(4)
C56 C 0.6125(4) 0.9809(4) 0.5060(4)
C60 C 0.6312(6) 0.9392(6) 0.4937(6)
C61 C 0.4955(4) 0.9276(4) 0.7425(4)
C63 C 0.4549(4) 0.9050(4) 0.7306(5)
C65 C 0.4230(5) 0.9280(4) 0.7060(5)
C67 C 0.3850(6) 0.8992(7) 0.7027(6)
C69 C 0.4113(6) 0.9705(5) 0.7243(5)
C71 C 0.2904(5) 0.8241(7) 0.4472(7)
C72 C 0.5528(7) 0.7904(5) 0.6759(7)
C73 C 0.3220(6) 0.8267(5) 0.4112(7)
C74 C 0.5888(7) 0.8220(6) 0.6733(5)
C75 C 0.3473(5) 0.8655(5) 0.4050(5)
C76 C 0.5950(5) 0.8473(5) 0.6345(5)
C77 C 0.3701(6) 0.8672(6) 0.3637(5)
C78 C 0.6363(5) 0.8701(6) 0.6328(6)
C79 C 0.3218(7) 0.9050(6) 0.4088(8)
C80 C 0.5912(8) 0.8218(7) 0.5950(6)
C82 C 0.5355(5) 0.7483(5) 0.9947(4)
C84 C 0.5302(4) 0.7594(4) 0.9487(4)
C86 C 0.5092(5) 0.7997(4) 0.9389(4)
C88 C 0.5024(6) 0.8021(7) 0.8925(5)
C90 C 0.4683(5) 0.8023(6) 0.9626(8)
C92 C 0.6680(5) 0.8358(5) 0.9549(5)
C101 C 0.4722(4) 0.9113(4) 0.8455(5)
C103 C 0.4523(5) 0.9528(4) 0.8560(4)
C105 C 0.4316(5) 0.9557(5) 0.8982(4)
C107 C 0.4054(6) 0.9169(7) 0.9101(6)
C109 C 0.4064(7) 0.9961(6) 0.9017(7)
C113 C 0.6168(5) 0.9759(5) 0.8187(5)
C115 C 0.6310(6) 0.9636(5) 0.8611(5)
C117 C 0.6582(8) 0.9252(7) 0.8583(7)
C119 C 0.6569(6) 0.9981(6) 0.8810(5)
H3 H 0.201031 0.991236 0.653388
H13 H 0.310502 0.894248 0.629885
H14 H 0.266994 0.872307 0.60592
H15 H 0.3167 0.862006 0.586633
H19 H 0.316418 0.989094 0.432609
H22 H 0.29435 0.887561 0.515557
H23 H 0.244654 0.900082 0.533508
H24 H 0.275346 0.938105 0.509825
H25 H 0.170019 0.969967 0.492131
H26 H 0.12455 0.990556 0.500511
H33 H 0.240521 0.940129 0.602318
H35 H 0.117043 0.982263 0.722581
H36 H 0.115171 0.988517 0.668674
H37 H 0.0439853 0.9535 0.668659
H38 H 0.0468076 0.948432 0.722651
H39 H 0.00476022 0.974239 0.699964
H45 H 0.273351 0.951173 0.658607
H46 H 0.318045 0.958892 0.636147
H68 H 0.166355 0.928082 0.542788
H69 H 0.104428 0.926216 0.477909
H70 H 0.120419 0.881575 0.504369
H71 H 0.0676148 0.893857 0.501283
H72 H 0.0597486 0.892095 0.578668
H73 H 0.112216 0.881116 0.587346
H74 H 0.0895436 0.924953 0.609994
H81 H 0.639045 0.700542 0.965132
H82 H 0.677151 0.731075 0.956926
H85 H 0.583985 0.87741 0.804548
H86 H 0.619558 0.847354 0.821367
H91 H 0.451173 0.841393 0.726649
H92 H 0.458892 0.863853 0.681955
H93 H 0.491236 0.846612 0.798969
H94 H 0.513014 0.803355 0.788663
H95 H 0.565272 0.96475 0.362
H96 H 0.543633 0.954775 0.406652
H105 H 0.580208 0.728312 0.924211
H106 H 0.574066 0.774743 0.905027
H113 H 0.331415 0.764189 0.402165
H114 H 0.373921 0.791505 0.399223
H118 H 0.490556 0.999489 0.87545
H119 H 0.597835 0.831415 0.735811
H120 H 0.600777 0.873921 0.708495
H121 H 0.394248 0.870115 0.689498
H122 H 0.372307 0.89408 0.733006
H123 H 0.362006 0.913367 0.6833
H124 H 0.440129 0.897682 0.759479
H125 H 0.61175 0.924584 0.471032
H126 H 0.661502 0.943993 0.480871
H127 H 0.633487 0.919724 0.520555
H130 H 0.587745 0.996678 0.447011
H131 H 0.509163 0.979691 0.331761
H140 H 0.419724 0.979445 0.366513
H144 H 0.387561 0.984443 0.70565
H145 H 0.400082 0.966492 0.755346
H146 H 0.438105 0.990175 0.724654
H152 H 0.0109061 0.932609 0.183582
H162 H 0.0300335 0.992131 0.329981
H164 H 0.586686 0.943896 0.772038
H165 H 0.591938 0.916966 0.814567
H169 H 0.303946 0.823498 0.383459
H170 H 0.616541 0.803946 0.676502
H174 H 0.428082 0.957212 0.833645
H185 H 0.698096 0.915155 0.975145
H187 H 0.593571 0.84186 0.568585
H188 H 0.61559 0.799219 0.593995
H189 H 0.56176 0.806344 0.594574
H190 H 0.388947 0.840014 0.360316
H191 H 0.348003 0.868527 0.338886
H192 H 0.38941 0.894257 0.362805
H193 H 0.531605 0.799255 0.876855
H194 H 0.482263 0.777419 0.882957
H195 H 0.488517 0.831326 0.884829
H199 H 0.639684 0.888947 0.659986
H200 H 0.661114 0.848003 0.631473
H201 H 0.637195 0.88941 0.605743
H205 H 0.4535 0.831341 0.956015
H206 H 0.448432 0.777349 0.953192
H207 H 0.474239 0.800036 0.99524
H208 H 0.34186 0.931415 0.406429
H209 H 0.299219 0.906005 0.38441
H210 H 0.306344 0.905426 0.43824
H212 H 0.512351 0.735156 0.934579
H214 H 0.381575 0.995631 0.879581
H215 H 0.393857 0.998717 0.932385
H217 H 0.668887 0.987542 0.910165
H220 H 0.0737837 0.977909 0.395572
H223 H 0.640836 0.90028 0.844763
H224 H 0.684744 0.931774 0.83938
H225 H 0.668207 0.916458 0.888783
H232 H 0.392095 0.921332 0.940251
H233 H 0.381116 0.912654 0.887784
H234 H 0.424953 0.890006 0.910456
H235 H 0.643077 0.975941 0.798321
Ag5 Ag 0.97626(5) 0.03763(6) 0.62628(7)
Cl3 Cl 0.96764(13) 0.03236(13) 0.53236(13)
S8 S 0.97861(13) 0.12202(14) 0.59698(14)
O9 O 0.9887(3) 0.0696(3) 0.7442(3)
O10 O 0.9875(4) 0.0044(4) 0.7663(4)
N6 N 0.9828(4) 0.1365(4) 0.6911(4)
C27 C 0.9970(5) 0.1720(5) 0.6647(5)
C28 C 0.9768(4) 0.1741(5) 0.6227(4)
C29 C 0.9935(7) 0.2058(6) 0.5928(6)
C30 C 0.9304(5) 0.1815(7) 0.6311(8)
Au11 Au 0.99387(2) 0.09969(2) 0.44446(2)
Au14 Au 0.88957(2) 0.07455(2) 0.45603(2)
Ag9 Ag 0.91777(5) 0.04810(5) 0.16736(5)
Ag18 Ag 0.92585(9) 0.12699(7) 0.39037(7)
Ag20 Ag 0.87372(7) 0.02374(5) 0.53763(6)
Ag21 Ag 0.96237(6) 0.12628(7) 0.52374(5)
Ag25 Ag 0.94206(6) 0.00362(5) 0.44299(7)
Cu9 Cu 0.97468(8) 0.14517(7) 0.21755(7)
Cu14 Cu 0.96876(7) 0.03469(7) 0.32256(6)
S21 S 0.95695(14) 0.15864(12) 0.45425(14)
S26 S 0.91206(15) 0.0513(2) 0.39335(14)
S28 S 0.90302(14) 0.02139(13) 0.62202(14)
S30 S 0.87798(14) 0.09698(14) 0.52139(13)
O31 O 0.9710(3) 0.0908(4) 0.2342(4)
O36 O 0.9812(5) 0.1979(5) 0.1904(5)
O39 O 0.7558(3) 0.0113(3) 0.5696(3)
O41 O 0.7337(4) 0.0125(4) 0.5044(4)
O48 O 0.9908(3) 0.0878(3) 0.3367(3)
O56 O 0.9099(10) 0.1457(7) 0.3232(6)
O60 O 0.9839(7) 0.1665(6) 0.2876(5)
N18 N 0.9139(6) 0.1532(6) 0.2116(5)
N21 N 0.8089(4) 0.0172(4) 0.6365(4)
N26 N 0.9140(4) 0.0549(5) 0.3030(4)
C93 C 0.8353(5) 0.0030(5) 0.6720(5)
C95 C 0.8773(4) 0.0232(4) 0.6741(5)
C97 C 0.9072(6) 0.0065(7) 0.7058(6)
C99 C 0.8689(8) 0.0696(5) 0.6815(7)
C114 C 0.8832(5) 0.0241(5) 0.3187(5)
C116 C 0.8690(6) 0.0364(5) 0.3611(5)
C118 C 0.8418(8) 0.0748(7) 0.3583(7)
C120 C 0.8431(6) 0.0019(6) 0.3810(5)
H43 H 0.962585 0.1473 0.711964
H44 H 0.968735 0.115761 0.672861
H63 H 0.989472 0.200089 0.680828
H64 H 0.918739 0.157439 0.65087
H65 H 0.926389 0.210975 0.645963
H66 H 0.913746 0.181242 0.602319
H78 H 0.974818 0.206013 0.565292
H79 H 0.992727 0.235879 0.606958
H97 H 0.916015 0.12259 0.304548
H98 H 0.880442 0.152646 0.321367
H102 H 0.986986 0.196645 0.288663
H111 H 0.788036 0.0374148 0.6473
H112 H 0.827139 0.0312648 0.615761
H147 H 0.913314 0.0561036 0.272038
H148 H 0.908062 0.0830343 0.314567
H171 H 0.934708 0.025182 0.706013
H172 H 0.893042 0.00727304 0.735879
H181 H 0.819172 0.0105277 0.700089
H196 H 0.84913 0.0812607 0.657439
H197 H 0.854037 0.0736109 0.710975
H198 H 0.897681 0.0862538 0.681242
H216 H 0.856923 0.0240586 0.298321
H226 H 0.831113 0.0124578 0.410165
H236 H 0.859164 0.0997196 0.344763
H237 H 0.815256 0.068226 0.33938
H238 H 0.831793 0.0835416 0.388783
Au12 Au 0.90031(2) 0.94446(2) 0.50613(2)
Au15 Au 0.92545(2) 0.95603(2) 0.61043(2)
Ag12 Ag 0.99051(5) 0.97605(5) 0.07796(5)
Ag19 Ag 0.87301(7) 0.89037(7) 0.57415(9)
Ag24 Ag 0.99638(5) 0.94299(7) 0.55794(6)
Cu7 Cu 0.86680(7) 0.94933(7) 0.11049(8)
Cu11 Cu 0.78005(6) 0.97336(7) 0.60928(7)
S10 S 0.94709(13) 0.98036(13) 0.14164(12)
S19 S 0.84136(12) 0.95425(14) 0.54305(14)
S24 S 0.96112(14) 0.93754(14) 0.47244(14)
S27 S 0.9487(2) 0.89335(14) 0.58794(15)
O22 O 0.8919(4) 0.8990(4) 0.1082(4)
O25 O 0.9237(6) 0.8516(5) 0.1477(6)
O43 O 0.8135(3) 0.9380(4) 0.6414(4)
O45 O 0.8565(6) 0.9350(5) 0.6938(6)
O52 O 0.9421(4) 0.9813(4) 0.3204(3)
O54 O 0.8815(4) 0.9494(4) 0.3142(4)
O61 O 0.7254(4) 0.9749(5) 0.6534(4)
N10 N 0.8704(4) 0.9430(5) 0.1704(5)
N19 N 0.7576(4) 0.9308(4) 0.5725(4)
C42 C 0.9060(6) 0.8865(5) 0.1414(6)
C44 C 0.9057(4) 0.9156(5) 0.1792(5)
C46 C 0.9446(5) 0.9405(5) 0.1828(4)
C48 C 0.9456(6) 0.9626(7) 0.2248(5)
C50 C 0.9840(5) 0.9135(5) 0.1795(6)
C81 C 0.7483(5) 0.9947(4) 0.5355(5)
C83 C 0.7594(4) 0.9487(4) 0.5302(4)
C85 C 0.7997(4) 0.9389(4) 0.5092(5)
C87 C 0.8021(7) 0.8925(5) 0.5024(6)
C89 C 0.8023(6) 0.9626(8) 0.4683(5)
C91 C 0.8358(5) 0.9549(5) 0.6680(5)
C112 C 0.9033(4) 0.9808(5) 0.3177(5)
H83 H 0.844261 0.930406 0.181295
H84 H 0.874883 0.970631 0.183705
H89 H 0.700542 0.965132 0.639045
H90 H 0.731075 0.956926 0.677151
H109 H 0.728312 0.924211 0.580208
H110 H 0.774743 0.905027 0.574066
H153 H 0.983377 0.890054 0.203072
H154 H 0.985082 0.899084 0.149554
H155 H 0.900332 0.898337 0.207109
H156 H 0.91955 0.983134 0.227143
H157 H 0.944186 0.94007 0.249217
H158 H 0.973765 0.980076 0.227461
H173 H 0.915155 0.975145 0.698096
H175 H 0.831341 0.956015 0.4535
H176 H 0.777349 0.953192 0.448432
H177 H 0.800036 0.99524 0.474239
H202 H 0.799255 0.876855 0.531605
H203 H 0.777419 0.882957 0.482263
H204 H 0.831326 0.884829 0.488517
H211 H 0.735156 0.934579 0.512351
H227 H 0.817858 0.993969 0.360859
H228 H 0.862201 0.975126 0.385905
Ag22_2 Ag 0.02374(5) 0.53763(6) 0.87372(7)
Ag23_2 Ag 0.03763(6) 0.62628(7) 0.97626(5)
Ag27_2 Ag 0.00362(5) 0.44299(7) 0.94206(6)
S29_2 S 0.02139(13) 0.62202(14) 0.90302(14)
O40_2 O 0.0113(3) 0.5696(3) 0.7558(3)
O42_2 O 0.0125(4) 0.5044(4) 0.7337(4)
N22_2 N 0.0172(4) 0.6365(4) 0.8089(4)
C94_2 C 0.0030(5) 0.6720(5) 0.8353(5)
C96_2 C 0.0232(4) 0.6741(5) 0.8773(4)
C98_2 C 0.0065(7) 0.7058(6) 0.9072(6)
C100_2 C 0.0696(5) 0.6815(7) 0.8689(8)
H107_2 H 0.0374148 0.6473 0.788036
H108_2 H 0.0312648 0.615761 0.827139
H178_2 H 0.0812607 0.657439 0.84913
H179_2 H 0.0736109 0.710975 0.854037
H180_2 H 0.0862538 0.681242 0.897681
H183_2 H 0.025182 0.706013 0.934708
H184_2 H 0.00727304 0.735879 0.893042
H186_2 H 0.0105277 0.700089 0.819172
Au2_2 Au 0.57131(2) 0.41875(2) 0.06230(2)
Au3_2 Au 0.59969(2) 0.05554(2) 0.00613(2)
Au4_2 Au 0.57455(2) 0.04397(2) 0.11043(2)
Ag1_2 Ag 0.54810(5) 0.33264(5) 0.08223(5)
Ag2_2 Ag 0.47605(5) 0.42204(5) 0.00949(5)
Ag4_2 Ag 0.62699(7) 0.10963(7) 0.07415(9)
Ag6_2 Ag 0.50362(5) 0.05701(7) 0.05794(6)
Cu1_2 Cu 0.44933(7) 0.38951(8) 0.13320(7)
Cu2_2 Cu 0.64517(7) 0.28245(7) 0.02532(8)
Cu3_2 Cu 0.71995(6) 0.02664(7) 0.10928(7)
Cu4_2 Cu 0.53469(7) 0.17744(6) 0.03124(7)
Cl1_2 Cl 0.5499(2) 0.2824(2) 0.1358(2)
S1_2 S 0.48036(13) 0.35836(12) 0.05291(13)
S3_2 S 0.61381(14) 0.36326(13) 0.05341(14)
S4_2 S 0.52600(14) 0.47224(13) 0.06138(12)
S5_2 S 0.65864(12) 0.04575(14) 0.04305(14)
S7_2 S 0.5513(2) 0.10665(14) 0.08794(15)
O1_2 O 0.3990(4) 0.3918(4) 0.1081(4)
O2_2 O 0.3516(5) 0.3523(6) 0.0763(6)
O3_2 O 0.5054(4) 0.3899(4) 0.1525(3)
O4_2 O 0.5575(3) 0.4288(4) 0.1710(3)
O5_2 O 0.5908(4) 0.2658(4) 0.0290(3)
O7_2 O 0.6979(5) 0.3096(5) 0.0188(5)
O8_2 O 0.7430(5) 0.3438(7) 0.0592(8)
O11_2 O 0.6865(3) 0.0620(4) 0.1414(4)
O12_2 O 0.6435(6) 0.0650(5) 0.1938(6)
O13_2 O 0.5878(3) 0.1633(3) 0.0092(3)
O15_2 O 0.4813(4) 0.1796(3) 0.0579(4)
O16_2 O 0.4494(4) 0.1858(4) 0.1185(4)
O17_2 O 0.6457(7) 0.1768(6) 0.0901(10)
O18_2 O 0.4260(4) 0.4036(5) 0.2033(4)
O19_2 O 0.6665(6) 0.2124(5) 0.0161(7)
O20_2 O 0.7746(4) 0.0251(5) 0.1534(4)
N1_2 N 0.4430(5) 0.3296(5) 0.1296(4)
N2_2 N 0.4574(5) 0.4491(5) 0.1238(4)
N4_2 N 0.6532(6) 0.2884(5) 0.0861(6)
N5_2 N 0.7424(4) 0.0692(4) 0.0725(4)
N8_2 N 0.5549(5) 0.1970(4) 0.0860(4)
C1_2 C 0.3865(5) 0.3586(6) 0.0940(6)
C2_2 C 0.4156(5) 0.3208(5) 0.0943(4)
C3_2 C 0.4405(5) 0.3172(4) 0.0554(5)
C4_2 C 0.4626(7) 0.2752(5) 0.0544(6)
C5_2 C 0.4135(5) 0.3205(6) 0.0160(5)
C6_2 C 0.5227(4) 0.4244(4) 0.1543(5)
C7_2 C 0.4979(5) 0.4631(5) 0.1403(5)
C8_2 C 0.5191(4) 0.4940(4) 0.1125(4)
C9_2 C 0.4900(6) 0.5305(5) 0.1083(6)
C10_2 C 0.5608(6) 0.5063(6) 0.1312(6)
C16_2 C 0.7096(5) 0.3241(7) 0.0528(7)
C17_2 C 0.6780(6) 0.3267(5) 0.0888(7)
C18_2 C 0.6527(5) 0.3655(5) 0.0950(5)
C19_2 C 0.6299(6) 0.3672(6) 0.1363(5)
C20_2 C 0.6782(7) 0.4050(6) 0.0912(8)
C21_2 C 0.7517(5) 0.0053(4) 0.0355(5)
C22_2 C 0.7406(4) 0.0513(4) 0.0302(4)
C23_2 C 0.7003(4) 0.0611(4) 0.0092(5)
C24_2 C 0.6979(7) 0.1075(5) 0.0024(6)
C26_2 C 0.6642(5) 0.0451(5) 0.1680(5)
C36_2 C 0.4808(5) 0.1823(5) 0.0967(4)
C37_2 C 0.5241(5) 0.1813(5) 0.1168(5)
C38_2 C 0.5364(5) 0.1389(5) 0.1310(6)
C39_2 C 0.5748(7) 0.1417(7) 0.1582(8)
C40_2 C 0.5019(6) 0.1190(5) 0.1569(6)
Au6_2 Au 0.15203(2) 0.00343(2) 0.02165(2)
Ag11_2 Ag 0.57796(5) 0.50949(5) 0.02395(5)
Ag16_2 Ag 0.11674(6) 0.09570(5) 0.01232(5)
Cu6_2 Cu 0.61049(8) 0.63320(7) 0.05067(7)
S9_2 S 0.64164(12) 0.55291(13) 0.01964(13)
S13_2 S 0.15327(12) 0.05793(13) 0.06534(13)
S23_2 S 0.43754(14) 0.02756(14) 0.03888(14)
O21_2 O 0.6082(4) 0.6081(4) 0.1010(4)
O24_2 O 0.6477(6) 0.5763(6) 0.1484(5)
O33_2 O 0.2619(3) 0.0086(3) 0.0381(3)
O50_2 O 0.3436(4) 0.0520(5) 0.1194(4)
O51_2 O 0.8204(3) 0.5579(4) 0.0187(4)
O53_2 O 0.8142(4) 0.6185(4) 0.0506(4)
O58_2 O 0.5964(5) 0.7033(4) 0.0740(4)
N9_2 N 0.6704(5) 0.6296(4) 0.0570(5)
N13_2 N 0.5509(5) 0.6238(4) 0.0426(5)
N15_2 N 0.2120(5) 0.0335(5) 0.1360(4)
N24_2 N 0.3484(4) 0.0172(4) 0.0135(4)
C41_2 C 0.6414(6) 0.5940(6) 0.1135(5)
C43_2 C 0.6792(5) 0.5943(4) 0.0844(5)
C45_2 C 0.6828(4) 0.5554(5) 0.0595(5)
C47_2 C 0.7248(5) 0.5544(6) 0.0374(7)
C49_2 C 0.6795(6) 0.5160(5) 0.0865(5)
C54_2 C 0.5369(5) 0.6403(5) 0.0021(5)
C57_2 C 0.3917(6) 0.5100(6) 0.0305(5)
C58_2 C 0.4695(5) 0.6083(6) 0.0100(6)
C59_2 C 0.3688(6) 0.4392(6) 0.0063(6)
C62_2 C 0.2425(4) 0.0045(4) 0.0724(4)
C64_2 C 0.2306(5) 0.0451(4) 0.0950(4)
C66_2 C 0.2060(5) 0.0770(5) 0.0720(4)
C68_2 C 0.2027(6) 0.1150(6) 0.1008(7)
C70_2 C 0.2243(5) 0.0887(6) 0.0295(5)
C102_2 C 0.3455(5) 0.0278(4) 0.0887(4)
C104_2 C 0.3560(4) 0.0477(5) 0.0472(4)
C106_2 C 0.3982(4) 0.0684(5) 0.0443(5)
C108_2 C 0.4101(6) 0.0946(6) 0.0831(7)
C110_2 C 0.4017(7) 0.0936(7) 0.0039(6)
C111_2 C 0.8177(5) 0.5967(4) 0.0192(5)
H1_2 H 0.406357 0.382168 0.211914
H2_2 H 0.449816 0.403615 0.222067
H4_2 H 0.696645 0.211337 0.0130143
H5_2 H 0.62259 0.195452 0.0839847
H6_2 H 0.652646 0.178633 0.119558
H7_2 H 0.799458 0.0348683 0.139045
H8_2 H 0.768925 0.0430738 0.177151
H9_2 H 0.430406 0.318705 0.155739
H10_2 H 0.470631 0.316295 0.125117
H11_2 H 0.434728 0.46475 0.138
H12_2 H 0.456367 0.454775 0.0933483
H16_2 H 0.611053 0.340014 0.139684
H17_2 H 0.651997 0.368527 0.161114
H18_2 H 0.61059 0.394257 0.137195
H20_2 H 0.390054 0.296928 0.0166235
H21_2 H 0.399084 0.350446 0.0149177
H27_2 H 0.65814 0.431415 0.093571
H28_2 H 0.700781 0.406005 0.11559
H29_2 H 0.693656 0.405426 0.0617604
H30_2 H 0.575416 0.528968 0.11175
H31_2 H 0.556007 0.519129 0.161502
H32_2 H 0.580276 0.479445 0.133487
H34_2 H 0.700745 0.123145 0.0316046
H40_2 H 0.460898 0.520117 0.0960107
H41_2 H 0.485134 0.54429 0.138165
H42_2 H 0.503322 0.552989 0.0877446
H47_2 H 0.556104 0.227962 0.086686
H48_2 H 0.583034 0.185433 0.091938
H49_2 H 0.771688 0.0757891 0.0802078
H50_2 H 0.725257 0.0949729 0.0740656
H51_2 H 0.696054 0.323498 0.116541
H52_2 H 0.764844 0.0654211 0.0123509
H53_2 H 0.398337 0.292891 0.0996682
H54_2 H 0.483134 0.272857 0.08045
H55_2 H 0.44007 0.250783 0.0558142
H56_2 H 0.480076 0.272539 0.0262353
H57_2 H 0.668585 0.264189 0.097835
H58_2 H 0.626079 0.291505 0.100777
H59_2 H 0.490837 0.479691 0.168239
H60_2 H 0.512458 0.0898349 0.168887
H61_2 H 0.493969 0.139141 0.182142
H62_2 H 0.475126 0.114095 0.137799
H67_2 H 0.524059 0.201679 0.143077
H75_2 H 0.59972 0.155237 0.140836
H76_2 H 0.568226 0.16062 0.184744
H77_2 H 0.583542 0.111217 0.168207
H80_2 H 0.584845 0.0248548 0.198096
H87_2 H 0.617832 0.711914 0.0936434
H88_2 H 0.596385 0.722067 0.0501844
H99_2 H 0.681295 0.655739 0.0695943
H100_2 H 0.683705 0.625117 0.0293693
H101_2 H 0.298969 0.00876379 0.153388
H103_2 H 0.53525 0.638 0.0652721
H104_2 H 0.545225 0.593348 0.0436327
H115_2 H 0.226649 0.0488269 0.158607
H116_2 H 0.181955 0.0411083 0.136147
H117_2 H 0.829981 0.469967 0.00786917
H128_2 H 0.479883 0.596011 0.039102
H129_2 H 0.45571 0.638165 0.0148661
H132_2 H 0.707109 0.599668 0.101663
H133_2 H 0.259479 0.059871 0.102318
H134_2 H 0.520309 0.668239 0.00916333
H135_2 H 0.403989 0.539102 0.0201172
H136_2 H 0.361835 0.514866 0.0442901
H137_2 H 0.412255 0.496678 0.052989
H138_2 H 0.38825 0.424584 0.0289682
H139_2 H 0.338498 0.443993 0.0191294
H141_2 H 0.189498 0.105752 0.129885
H142_2 H 0.233006 0.127693 0.10592
H143_2 H 0.1833 0.137994 0.0866331
H149_2 H 0.683582 0.489094 0.067391
H150_2 H 0.703072 0.516623 0.109946
H151_2 H 0.649554 0.514918 0.100916
H159_2 H 0.727143 0.58045 0.0168655
H160_2 H 0.749217 0.555814 0.0599297
H161_2 H 0.727461 0.526235 0.0199236
H163_2 H 0.37545 0.00944425 0.000510887
H166_2 H 0.20565 0.112439 0.0155568
H167_2 H 0.255346 0.099918 0.0335082
H168_2 H 0.224654 0.0618947 0.00982493
H182_2 H 0.333645 0.0719184 0.0427879
H213_2 H 0.895572 0.426216 0.0220907
H218_2 H 0.860859 0.682142 0.00603144
H219_2 H 0.885905 0.637799 0.0248741
H221_2 H 0.379581 0.118425 0.00436941
H222_2 H 0.432385 0.106143 0.00128309
H229_2 H 0.440251 0.107905 0.0786685
H230_2 H 0.387784 0.118884 0.0873463
H231_2 H 0.410456 0.0750467 0.109994
Au1_2 Au 0.52165(2) 0.34797(2) 0.99657(2)
Ag3_2 Ag 0.61674(6) 0.40430(5) 0.98768(5)
Cl2_2 Cl 0.54581(13) 0.45419(13) 0.95419(13)
S2_2 S 0.56534(13) 0.34673(12) 0.94207(13)
S6_2 S 0.53888(14) 0.06246(14) 0.97244(14)
O6_2 O 0.5381(3) 0.2381(3) 0.9914(3)
O14_2 O 0.6194(4) 0.1564(4) 0.9480(5)
N3_2 N 0.6360(4) 0.2880(5) 0.9665(5)
N7_2 N 0.5135(4) 0.1516(4) 0.9828(4)
C11_2 C 0.5724(4) 0.2575(4) 0.9955(4)
C12_2 C 0.5950(4) 0.2694(5) 0.9549(4)
C13_2 C 0.5720(4) 0.2940(5) 0.9230(5)
C14_2 C 0.6008(7) 0.2973(6) 0.8850(6)
C15_2 C 0.5295(5) 0.2757(5) 0.9113(6)
C25_2 C 0.6977(6) 0.0374(8) 0.9683(5)
C31_2 C 0.5887(4) 0.1545(5) 0.9722(4)
C32_2 C 0.5472(4) 0.1440(4) 0.9523(5)
C33_2 C 0.5443(5) 0.1018(4) 0.9316(5)
C34_2 C 0.5831(7) 0.0899(6) 0.9054(6)
C35_2 C 0.5039(6) 0.0983(7) 0.9064(7)
Au5_2 Au 0.65203(2) 0.49657(2) 0.97835(2)
Au7_2 Au 0.50343(2) 0.47835(2) 0.84797(2)
Au8_2 Au 0.43770(2) 0.42869(2) 0.91875(2)
Au9_2 Au 0.58125(2) 0.56230(2) 0.92869(2)
Au10_2 Au 0.94446(2) 0.50613(2) 0.90031(2)
Au13_2 Au 0.95603(2) 0.61043(2) 0.92545(2)
Ag7_2 Ag 0.41777(5) 0.45190(5) 0.83264(5)
Ag8_2 Ag 0.66736(5) 0.58223(5) 0.95190(5)
Ag10_2 Ag 0.49051(5) 0.52395(5) 0.92204(5)
Ag13_2 Ag 0.51232(5) 0.38326(6) 0.90430(5)
Ag14_2 Ag 0.59570(5) 0.48768(5) 0.88326(6)
Ag17_2 Ag 0.89037(7) 0.57415(9) 0.87301(7)
Ag26_2 Ag 0.94299(7) 0.55794(6) 0.99638(5)
Cu5_2 Cu 0.36680(7) 0.55067(7) 0.88951(8)
Cu8_2 Cu 0.71755(7) 0.52532(8) 0.85483(7)
Cu10_2 Cu 0.47468(8) 0.35483(7) 0.78245(7)
Cu12_2 Cu 0.97336(7) 0.60928(7) 0.78005(6)
Cu13_2 Cu 0.82256(6) 0.53124(7) 0.96531(7)
Cl4_2 Cl 0.3642(2) 0.4501(2) 0.7824(2)
Cl5_2 Cl 0.7176(2) 0.6358(2) 0.9501(2)
S11_2 S 0.44709(13) 0.51964(13) 0.85836(12)
S12_2 S 0.65327(12) 0.44207(13) 0.93466(13)
S14_2 S 0.55793(13) 0.43466(13) 0.84673(12)
S15_2 S 0.44659(14) 0.38619(14) 0.86326(13)
S16_2 S 0.63674(13) 0.55341(14) 0.88619(14)
S17_2 S 0.43862(12) 0.47400(14) 0.97224(13)
S18_2 S 0.52776(13) 0.56138(12) 0.97400(14)
S20_2 S 0.95425(14) 0.54305(14) 0.84136(12)
S22_2 S 0.93754(14) 0.47244(14) 0.96112(14)
S25_2 S 0.89335(14) 0.58794(15) 0.9487(2)
O23_2 O 0.3919(4) 0.6010(4) 0.8918(4)
O26_2 O 0.3475(3) 0.4946(4) 0.8899(4)
O27_2 O 0.6101(4) 0.6525(3) 0.9946(4)
O28_2 O 0.3290(3) 0.4425(3) 0.9288(4)
O29_2 O 0.5712(4) 0.6710(3) 0.9425(3)
O30_2 O 0.7342(4) 0.5290(3) 0.9092(4)
O32_2 O 0.7619(3) 0.4914(3) 0.9619(3)
O34_2 O 0.4812(5) 0.3021(5) 0.8096(5)
O35_2 O 0.6904(5) 0.5188(5) 0.8021(5)
O37_2 O 0.4408(8) 0.2570(5) 0.8438(7)
O38_2 O 0.6562(7) 0.5592(8) 0.7570(5)
O44_2 O 0.9380(4) 0.6414(4) 0.8135(3)
O46_2 O 0.9350(5) 0.6938(6) 0.8565(6)
O47_2 O 0.8367(3) 0.5092(3) 0.9122(3)
O49_2 O 0.8436(4) 0.4480(5) 0.8806(4)
O55_2 O 0.8232(6) 0.5901(10) 0.8543(7)
O57_2 O 0.2967(4) 0.5740(4) 0.9036(5)
O59_2 O 0.7876(5) 0.5161(7) 0.8335(6)
O62_2 O 0.9749(5) 0.6534(4) 0.7254(4)
N11_2 N 0.3704(4) 0.5570(5) 0.8296(5)
N12_2 N 0.3762(4) 0.5426(5) 0.9491(5)
N14_2 N 0.7120(5) 0.4665(5) 0.8640(4)
N16_2 N 0.4139(6) 0.3468(6) 0.7884(5)
N17_2 N 0.7116(5) 0.5861(6) 0.8468(6)
N20_2 N 0.9308(4) 0.5725(4) 0.7576(4)
N23_2 N 0.8484(4) 0.4828(4) 0.9865(4)
N25_2 N 0.8030(4) 0.5860(4) 0.9451(5)
C51_2 C 0.3457(5) 0.4773(4) 0.9244(4)
C52_2 C 0.5756(4) 0.6543(5) 0.9773(4)
C53_2 C 0.3597(5) 0.5021(5) 0.9631(5)
C55_2 C 0.3875(4) 0.4809(4) 0.9940(4)
C56_2 C 0.5060(4) 0.6125(4) 0.9809(4)
C60_2 C 0.4937(6) 0.6312(6) 0.9392(6)
C61_2 C 0.7425(4) 0.4955(4) 0.9276(4)
C63_2 C 0.7306(5) 0.4549(4) 0.9050(4)
C65_2 C 0.7060(5) 0.4230(5) 0.9280(4)
C67_2 C 0.7027(6) 0.3850(6) 0.8992(7)
C69_2 C 0.7243(5) 0.4113(6) 0.9705(5)
C71_2 C 0.4472(7) 0.2904(5) 0.8241(7)
C72_2 C 0.6759(7) 0.5528(7) 0.7904(5)
C73_2 C 0.4112(7) 0.3220(6) 0.8267(5)
C74_2 C 0.6733(5) 0.5888(7) 0.8220(6)
C75_2 C 0.4050(5) 0.3473(5) 0.8655(5)
C76_2 C 0.6345(5) 0.5950(5) 0.8473(5)
C77_2 C 0.3637(5) 0.3701(6) 0.8672(6)
C78_2 C 0.6328(6) 0.6363(5) 0.8701(6)
C79_2 C 0.4088(8) 0.3218(7) 0.9050(6)
C80_2 C 0.5950(6) 0.5912(8) 0.8218(7)
C82_2 C 0.9947(4) 0.5355(5) 0.7483(5)
C84_2 C 0.9487(4) 0.5302(4) 0.7594(4)
C86_2 C 0.9389(4) 0.5092(5) 0.7997(4)
C88_2 C 0.8925(5) 0.5024(6) 0.8021(7)
C90_2 C 0.9626(8) 0.4683(5) 0.8023(6)
C92_2 C 0.9549(5) 0.6680(5) 0.8358(5)
C101_2 C 0.8455(5) 0.4722(4) 0.9113(4)
C103_2 C 0.8560(4) 0.4523(5) 0.9528(4)
C105_2 C 0.8982(4) 0.4316(5) 0.9557(5)
C107_2 C 0.9101(6) 0.4054(6) 0.9169(7)
C109_2 C 0.9017(7) 0.4064(7) 0.9961(6)
C113_2 C 0.8187(5) 0.6168(5) 0.9759(5)
C115_2 C 0.8611(5) 0.6310(6) 0.9636(5)
C117_2 C 0.8583(7) 0.6582(8) 0.9252(7)
C119_2 C 0.8810(5) 0.6569(6) 0.9981(6)
H3_2 H 0.653388 0.201031 0.991236
H13_2 H 0.629885 0.310502 0.894248
H14_2 H 0.60592 0.266994 0.872307
H15_2 H 0.586633 0.3167 0.862006
H19_2 H 0.432609 0.316418 0.989094
H22_2 H 0.515557 0.29435 0.887561
H23_2 H 0.533508 0.244654 0.900082
H24_2 H 0.509825 0.275346 0.938105
H25_2 H 0.492131 0.170019 0.969967
H26_2 H 0.500511 0.12455 0.990556
H33_2 H 0.602318 0.240521 0.940129
H35_2 H 0.722581 0.117043 0.982263
H36_2 H 0.668674 0.115171 0.988517
H37_2 H 0.668659 0.0439853 0.9535
H38_2 H 0.722651 0.0468076 0.948432
H39_2 H 0.699964 0.00476022 0.974239
H45_2 H 0.658607 0.273351 0.951173
H46_2 H 0.636147 0.318045 0.958892
H68_2 H 0.542788 0.166355 0.928082
H69_2 H 0.477909 0.104428 0.926216
H70_2 H 0.504369 0.120419 0.881575
H71_2 H 0.501283 0.0676148 0.893857
H72_2 H 0.578668 0.0597486 0.892095
H73_2 H 0.587346 0.112216 0.881116
H74_2 H 0.609994 0.0895436 0.924953
H81_2 H 0.965132 0.639045 0.700542
H82_2 H 0.956926 0.677151 0.731075
H85_2 H 0.804548 0.583985 0.87741
H86_2 H 0.821367 0.619558 0.847354
H91_2 H 0.726649 0.451173 0.841393
H92_2 H 0.681955 0.458892 0.863853
H93_2 H 0.798969 0.491236 0.846612
H94_2 H 0.788663 0.513014 0.803355
H95_2 H 0.362 0.565272 0.96475
H96_2 H 0.406652 0.543633 0.954775
H105_2 H 0.924211 0.580208 0.728312
H106_2 H 0.905027 0.574066 0.774743
H113_2 H 0.402165 0.331415 0.764189
H114_2 H 0.399223 0.373921 0.791505
H118_2 H 0.87545 0.490556 0.999489
H119_2 H 0.735811 0.597835 0.831415
H120_2 H 0.708495 0.600777 0.873921
H121_2 H 0.689498 0.394248 0.870115
H122_2 H 0.733006 0.372307 0.89408
H123_2 H 0.6833 0.362006 0.913367
H124_2 H 0.759479 0.440129 0.897682
H125_2 H 0.471032 0.61175 0.924584
H126_2 H 0.480871 0.661502 0.943993
H127_2 H 0.520555 0.633487 0.919724
H130_2 H 0.447011 0.587745 0.996678
H131_2 H 0.331761 0.509163 0.979691
H140_2 H 0.366513 0.419724 0.979445
H144_2 H 0.70565 0.387561 0.984443
H145_2 H 0.755346 0.400082 0.966492
H146_2 H 0.724654 0.438105 0.990175
H152_2 H 0.183582 0.0109061 0.932609
H162_2 H 0.329981 0.0300335 0.992131
H164_2 H 0.772038 0.586686 0.943896
H165_2 H 0.814567 0.591938 0.916966
H169_2 H 0.383459 0.303946 0.823498
H170_2 H 0.676502 0.616541 0.803946
H174_2 H 0.833645 0.428082 0.957212
H185_2 H 0.975145 0.698096 0.915155
H187_2 H 0.568585 0.593571 0.84186
H188_2 H 0.593995 0.61559 0.799219
H189_2 H 0.594574 0.56176 0.806344
H190_2 H 0.360316 0.388947 0.840014
H191_2 H 0.338886 0.348003 0.868527
H192_2 H 0.362805 0.38941 0.894257
H193_2 H 0.876855 0.531605 0.799255
H194_2 H 0.882957 0.482263 0.777419
H195_2 H 0.884829 0.488517 0.831326
H199_2 H 0.659986 0.639684 0.888947
H200_2 H 0.631473 0.661114 0.848003
H201_2 H 0.605743 0.637195 0.88941
H205_2 H 0.956015 0.4535 0.831341
H206_2 H 0.953192 0.448432 0.777349
H207_2 H 0.99524 0.474239 0.800036
H208_2 H 0.406429 0.34186 0.931415
H209_2 H 0.38441 0.299219 0.906005
H210_2 H 0.43824 0.306344 0.905426
H212_2 H 0.934579 0.512351 0.735156
H214_2 H 0.879581 0.381575 0.995631
H215_2 H 0.932385 0.393857 0.998717
H217_2 H 0.910165 0.668887 0.987542
H220_2 H 0.395572 0.0737837 0.977909
H223_2 H 0.844763 0.640836 0.90028
H224_2 H 0.83938 0.684744 0.931774
H225_2 H 0.888783 0.668207 0.916458
H232_2 H 0.940251 0.392095 0.921332
H233_2 H 0.887784 0.381116 0.912654
H234_2 H 0.910456 0.424953 0.890006
H235_2 H 0.798321 0.643077 0.975941
Cl3_2 Cl 0.53236(13) 0.96764(13) 0.03236(13)
S8_2 S 0.59698(14) 0.97861(13) 0.12202(14)
O9_2 O 0.7442(3) 0.9887(3) 0.0696(3)
O10_2 O 0.7663(4) 0.9875(4) 0.0044(4)
N6_2 N 0.6911(4) 0.9828(4) 0.1365(4)
C27_2 C 0.6647(5) 0.9970(5) 0.1720(5)
C28_2 C 0.6227(4) 0.9768(4) 0.1741(5)
C29_2 C 0.5928(6) 0.9935(7) 0.2058(6)
C30_2 C 0.6311(8) 0.9304(5) 0.1815(7)
Au11_2 Au 0.44446(2) 0.99387(2) 0.09969(2)
Au14_2 Au 0.45603(2) 0.88957(2) 0.07455(2)
Ag9_2 Ag 0.16736(5) 0.91777(5) 0.04810(5)
Ag18_2 Ag 0.39037(7) 0.92585(9) 0.12699(7)
Ag21_2 Ag 0.52374(5) 0.96237(6) 0.12628(7)
Cu9_2 Cu 0.21755(7) 0.97468(8) 0.14517(7)
Cu14_2 Cu 0.32256(6) 0.96876(7) 0.03469(7)
S21_2 S 0.45425(14) 0.95695(14) 0.15864(12)
S26_2 S 0.39335(14) 0.91206(15) 0.0513(2)
S30_2 S 0.52139(13) 0.87798(14) 0.09698(14)
O31_2 O 0.2342(4) 0.9710(3) 0.0908(4)
O36_2 O 0.1904(5) 0.9812(5) 0.1979(5)
O48_2 O 0.3367(3) 0.9908(3) 0.0878(3)
O56_2 O 0.3232(6) 0.9099(10) 0.1457(7)
O60_2 O 0.2876(5) 0.9839(7) 0.1665(6)
N18_2 N 0.2116(5) 0.9139(6) 0.1532(6)
N26_2 N 0.3030(4) 0.9140(4) 0.0549(5)
C114_2 C 0.3187(5) 0.8832(5) 0.0241(5)
C116_2 C 0.3611(5) 0.8690(6) 0.0364(5)
C118_2 C 0.3583(7) 0.8418(8) 0.0748(7)
C120_2 C 0.3810(5) 0.8431(6) 0.0019(6)
H43_2 H 0.711964 0.962585 0.1473
H44_2 H 0.672861 0.968735 0.115761
H63_2 H 0.680828 0.989472 0.200089
H64_2 H 0.65087 0.918739 0.157439
H65_2 H 0.645963 0.926389 0.210975
H66_2 H 0.602319 0.913746 0.181242
H78_2 H 0.565292 0.974818 0.206013
H79_2 H 0.606958 0.992727 0.235879
H97_2 H 0.304548 0.916015 0.12259
H98_2 H 0.321367 0.880442 0.152646
H102_2 H 0.288663 0.986986 0.196645
H147_2 H 0.272038 0.913314 0.0561036
H148_2 H 0.314567 0.908062 0.0830343
H216_2 H 0.298321 0.856923 0.0240586
H226_2 H 0.410165 0.831113 0.0124578
H236_2 H 0.344763 0.859164 0.0997196
H237_2 H 0.33938 0.815256 0.068226
H238_2 H 0.388783 0.831793 0.0835416
Ag12_2 Ag 0.07796(5) 0.99051(5) 0.97605(5)
Cu7_2 Cu 0.11049(8) 0.86680(7) 0.94933(7)
S10_2 S 0.14164(12) 0.94709(13) 0.98036(13)
O22_2 O 0.1082(4) 0.8919(4) 0.8990(4)
O25_2 O 0.1477(6) 0.9237(6) 0.8516(5)
O52_2 O 0.3204(3) 0.9421(4) 0.9813(4)
O54_2 O 0.3142(4) 0.8815(4) 0.9494(4)
N10_2 N 0.1704(5) 0.8704(4) 0.9430(5)
C42_2 C 0.1414(6) 0.9060(6) 0.8865(5)
C44_2 C 0.1792(5) 0.9057(4) 0.9156(5)
C46_2 C 0.1828(4) 0.9446(5) 0.9405(5)
C48_2 C 0.2248(5) 0.9456(6) 0.9626(7)
C50_2 C 0.1795(6) 0.9840(5) 0.9135(5)
C112_2 C 0.3177(5) 0.9033(4) 0.9808(5)
H83_2 H 0.181295 0.844261 0.930406
H84_2 H 0.183705 0.874883 0.970631
H153_2 H 0.203072 0.983377 0.890054
H154_2 H 0.149554 0.985082 0.899084
H155_2 H 0.207109 0.900332 0.898337
H156_2 H 0.227143 0.91955 0.983134
H157_2 H 0.249217 0.944186 0.94007
H158_2 H 0.227461 0.973765 0.980076
H227_2 H 0.360859 0.817858 0.993969
H228_2 H 0.385905 0.862201 0.975126
Au2_3 Au 0.06230(2) 0.57131(2) 0.41875(2)
Au3_3 Au 0.00613(2) 0.59969(2) 0.05554(2)
Au4_3 Au 0.11043(2) 0.57455(2) 0.04397(2)
Ag1_3 Ag 0.08223(5) 0.54810(5) 0.33264(5)
Ag2_3 Ag 0.00949(5) 0.47605(5) 0.42204(5)
Ag4_3 Ag 0.07415(9) 0.62699(7) 0.10963(7)
Ag6_3 Ag 0.05794(6) 0.50362(5) 0.05701(7)
Cu1_3 Cu 0.13320(7) 0.44933(7) 0.38951(8)
Cu2_3 Cu 0.02532(8) 0.64517(7) 0.28245(7)
Cu3_3 Cu 0.10928(7) 0.71995(6) 0.02664(7)
Cu4_3 Cu 0.03124(7) 0.53469(7) 0.17744(6)
Cl1_3 Cl 0.1358(2) 0.5499(2) 0.2824(2)
S1_3 S 0.05291(13) 0.48036(13) 0.35836(12)
S3_3 S 0.05341(14) 0.61381(14) 0.36326(13)
S4_3 S 0.06138(12) 0.52600(14) 0.47224(13)
S5_3 S 0.04305(14) 0.65864(12) 0.04575(14)
S7_3 S 0.08794(15) 0.5513(2) 0.10665(14)
O1_3 O 0.1081(4) 0.3990(4) 0.3918(4)
O2_3 O 0.0763(6) 0.3516(5) 0.3523(6)
O3_3 O 0.1525(3) 0.5054(4) 0.3899(4)
O4_3 O 0.1710(3) 0.5575(3) 0.4288(4)
O5_3 O 0.0290(3) 0.5908(4) 0.2658(4)
O7_3 O 0.0188(5) 0.6979(5) 0.3096(5)
O8_3 O 0.0592(8) 0.7430(5) 0.3438(7)
O11_3 O 0.1414(4) 0.6865(3) 0.0620(4)
O12_3 O 0.1938(6) 0.6435(6) 0.0650(5)
O13_3 O 0.0092(3) 0.5878(3) 0.1633(3)
O15_3 O 0.0579(4) 0.4813(4) 0.1796(3)
O16_3 O 0.1185(4) 0.4494(4) 0.1858(4)
O17_3 O 0.0901(10) 0.6457(7) 0.1768(6)
O18_3 O 0.2033(4) 0.4260(4) 0.4036(5)
O19_3 O 0.0161(7) 0.6665(6) 0.2124(5)
O20_3 O 0.1534(4) 0.7746(4) 0.0251(5)
N1_3 N 0.1296(4) 0.4430(5) 0.3296(5)
N2_3 N 0.1238(4) 0.4574(5) 0.4491(5)
N4_3 N 0.0861(6) 0.6532(6) 0.2884(5)
N5_3 N 0.0725(4) 0.7424(4) 0.0692(4)
N8_3 N 0.0860(4) 0.5549(5) 0.1970(4)
C1_3 C 0.0940(6) 0.3865(5) 0.3586(6)
C2_3 C 0.0943(4) 0.4156(5) 0.3208(5)
C3_3 C 0.0554(5) 0.4405(5) 0.3172(4)
C4_3 C 0.0544(6) 0.4626(7) 0.2752(5)
C5_3 C 0.0160(5) 0.4135(5) 0.3205(6)
C6_3 C 0.1543(5) 0.5227(4) 0.4244(4)
C7_3 C 0.1403(5) 0.4979(5) 0.4631(5)
C8_3 C 0.1125(4) 0.5191(4) 0.4940(4)
C9_3 C 0.1083(6) 0.4900(6) 0.5305(5)
C10_3 C 0.1312(6) 0.5608(6) 0.5063(6)
C16_3 C 0.0528(7) 0.7096(5) 0.3241(7)
C17_3 C 0.0888(7) 0.6780(6) 0.3267(5)
C18_3 C 0.0950(5) 0.6527(5) 0.3655(5)
C19_3 C 0.1363(5) 0.6299(6) 0.3672(6)
C20_3 C 0.0912(8) 0.6782(7) 0.4050(6)
C21_3 C 0.0355(5) 0.7517(5) 0.0053(4)
C22_3 C 0.0302(4) 0.7406(4) 0.0513(4)
C23_3 C 0.0092(5) 0.7003(4) 0.0611(4)
C24_3 C 0.0024(6) 0.6979(7) 0.1075(5)
C26_3 C 0.1680(5) 0.6642(5) 0.0451(5)
C36_3 C 0.0967(4) 0.4808(5) 0.1823(5)
C37_3 C 0.1168(5) 0.5241(5) 0.1813(5)
C38_3 C 0.1310(6) 0.5364(5) 0.1389(5)
C39_3 C 0.1582(8) 0.5748(7) 0.1417(7)
C40_3 C 0.1569(6) 0.5019(6) 0.1190(5)
Au6_3 Au 0.02165(2) 0.15203(2) 0.00343(2)
Ag11_3 Ag 0.02395(5) 0.57796(5) 0.50949(5)
Cu6_3 Cu 0.05067(7) 0.61049(8) 0.63320(7)
S9_3 S 0.01964(13) 0.64164(12) 0.55291(13)
S13_3 S 0.06534(13) 0.15327(12) 0.05793(13)
S23_3 S 0.03888(14) 0.43754(14) 0.02756(14)
O21_3 O 0.1010(4) 0.6082(4) 0.6081(4)
O24_3 O 0.1484(5) 0.6477(6) 0.5763(6)
O33_3 O 0.0381(3) 0.2619(3) 0.0086(3)
O50_3 O 0.1194(4) 0.3436(4) 0.0520(5)
O51_3 O 0.0187(4) 0.8204(3) 0.5579(4)
O53_3 O 0.0506(4) 0.8142(4) 0.6185(4)
O58_3 O 0.0740(4) 0.5964(5) 0.7033(4)
N9_3 N 0.0570(5) 0.6704(5) 0.6296(4)
N13_3 N 0.0426(5) 0.5509(5) 0.6238(4)
N15_3 N 0.1360(4) 0.2120(5) 0.0335(5)
N24_3 N 0.0135(4) 0.3484(4) 0.0172(4)
C41_3 C 0.1135(5) 0.6414(6) 0.5940(6)
C43_3 C 0.0844(5) 0.6792(5) 0.5943(4)
C45_3 C 0.0595(5) 0.6828(4) 0.5554(5)
C47_3 C 0.0374(7) 0.7248(5) 0.5544(6)
C49_3 C 0.0865(5) 0.6795(6) 0.5160(5)
C54_3 C 0.0021(5) 0.5369(5) 0.6403(5)
C57_3 C 0.0305(5) 0.3917(6) 0.5100(6)
C58_3 C 0.0100(6) 0.4695(5) 0.6083(6)
C59_3 C 0.0063(6) 0.3688(6) 0.4392(6)
C62_3 C 0.0724(4) 0.2425(4) 0.0045(4)
C64_3 C 0.0950(4) 0.2306(5) 0.0451(4)
C66_3 C 0.0720(4) 0.2060(5) 0.0770(5)
C68_3 C 0.1008(7) 0.2027(6) 0.1150(6)
C70_3 C 0.0295(5) 0.2243(5) 0.0887(6)
C102_3 C 0.0887(4) 0.3455(5) 0.0278(4)
C104_3 C 0.0472(4) 0.3560(4) 0.0477(5)
C106_3 C 0.0443(5) 0.3982(4) 0.0684(5)
C108_3 C 0.0831(7) 0.4101(6) 0.0946(6)
C110_3 C 0.0039(6) 0.4017(7) 0.0936(7)
C111_3 C 0.0192(5) 0.8177(5) 0.5967(4)
H1_3 H 0.211914 0.406357 0.382168
H2_3 H 0.222067 0.449816 0.403615
H4_3 H 0.0130143 0.696645 0.211337
H5_3 H 0.0839847 0.62259 0.195452
H6_3 H 0.119558 0.652646 0.178633
H7_3 H 0.139045 0.799458 0.0348683
H8_3 H 0.177151 0.768925 0.0430738
H9_3 H 0.155739 0.430406 0.318705
H10_3 H 0.125117 0.470631 0.316295
H11_3 H 0.138 0.434728 0.46475
H12_3 H 0.0933483 0.456367 0.454775
H16_3 H 0.139684 0.611053 0.340014
H17_3 H 0.161114 0.651997 0.368527
H18_3 H 0.137195 0.61059 0.394257
H20_3 H 0.0166235 0.390054 0.296928
H21_3 H 0.0149177 0.399084 0.350446
H27_3 H 0.093571 0.65814 0.431415
H28_3 H 0.11559 0.700781 0.406005
H29_3 H 0.0617604 0.693656 0.405426
H30_3 H 0.11175 0.575416 0.528968
H31_3 H 0.161502 0.556007 0.519129
H32_3 H 0.133487 0.580276 0.479445
H34_3 H 0.0316046 0.700745 0.123145
H40_3 H 0.0960107 0.460898 0.520117
H41_3 H 0.138165 0.485134 0.54429
H42_3 H 0.0877446 0.503322 0.552989
H47_3 H 0.086686 0.556104 0.227962
H48_3 H 0.091938 0.583034 0.185433
H49_3 H 0.0802078 0.771688 0.0757891
H50_3 H 0.0740656 0.725257 0.0949729
H51_3 H 0.116541 0.696054 0.323498
H52_3 H 0.0123509 0.764844 0.0654211
H53_3 H 0.0996682 0.398337 0.292891
H54_3 H 0.08045 0.483134 0.272857
H55_3 H 0.0558142 0.44007 0.250783
H56_3 H 0.0262353 0.480076 0.272539
H57_3 H 0.097835 0.668585 0.264189
H58_3 H 0.100777 0.626079 0.291505
H59_3 H 0.168239 0.490837 0.479691
H60_3 H 0.168887 0.512458 0.0898349
H61_3 H 0.182142 0.493969 0.139141
H62_3 H 0.137799 0.475126 0.114095
H67_3 H 0.143077 0.524059 0.201679
H75_3 H 0.140836 0.59972 0.155237
H76_3 H 0.184744 0.568226 0.16062
H77_3 H 0.168207 0.583542 0.111217
H80_3 H 0.198096 0.584845 0.0248548
H87_3 H 0.0936434 0.617832 0.711914
H88_3 H 0.0501844 0.596385 0.722067
H99_3 H 0.0695943 0.681295 0.655739
H100_3 H 0.0293693 0.683705 0.625117
H101_3 H 0.153388 0.298969 0.00876379
H103_3 H 0.0652721 0.53525 0.638
H104_3 H 0.0436327 0.545225 0.593348
H115_3 H 0.158607 0.226649 0.0488269
H116_3 H 0.136147 0.181955 0.0411083
H117_3 H 0.00786917 0.829981 0.469967
H128_3 H 0.039102 0.479883 0.596011
H129_3 H 0.0148661 0.45571 0.638165
H132_3 H 0.101663 0.707109 0.599668
H133_3 H 0.102318 0.259479 0.059871
H134_3 H 0.00916333 0.520309 0.668239
H135_3 H 0.0201172 0.403989 0.539102
H136_3 H 0.0442901 0.361835 0.514866
H137_3 H 0.052989 0.412255 0.496678
H138_3 H 0.0289682 0.38825 0.424584
H139_3 H 0.0191294 0.338498 0.443993
H141_3 H 0.129885 0.189498 0.105752
H142_3 H 0.10592 0.233006 0.127693
H143_3 H 0.0866331 0.1833 0.137994
H149_3 H 0.067391 0.683582 0.489094
H150_3 H 0.109946 0.703072 0.516623
H151_3 H 0.100916 0.649554 0.514918
H159_3 H 0.0168655 0.727143 0.58045
H160_3 H 0.0599297 0.749217 0.555814
H161_3 H 0.0199236 0.727461 0.526235
H163_3 H 0.000510887 0.37545 0.00944425
H166_3 H 0.0155568 0.20565 0.112439
H167_3 H 0.0335082 0.255346 0.099918
H168_3 H 0.00982493 0.224654 0.0618947
H182_3 H 0.0427879 0.333645 0.0719184
H213_3 H 0.0220907 0.895572 0.426216
H218_3 H 0.00603144 0.860859 0.682142
H219_3 H 0.0248741 0.885905 0.637799
H221_3 H 0.00436941 0.379581 0.118425
H222_3 H 0.00128309 0.432385 0.106143
H229_3 H 0.0786685 0.440251 0.107905
H230_3 H 0.0873463 0.387784 0.118884
H231_3 H 0.109994 0.410456 0.0750467
Cl3_3 Cl 0.03236(13) 0.53236(13) 0.96764(13)
S8_3 S 0.12202(14) 0.59698(14) 0.97861(13)
O9_3 O 0.0696(3) 0.7442(3) 0.9887(3)
O10_3 O 0.0044(4) 0.7663(4) 0.9875(4)
N6_3 N 0.1365(4) 0.6911(4) 0.9828(4)
C27_3 C 0.1720(5) 0.6647(5) 0.9970(5)
C28_3 C 0.1741(5) 0.6227(4) 0.9768(4)
C29_3 C 0.2058(6) 0.5928(6) 0.9935(7)
C30_3 C 0.1815(7) 0.6311(8) 0.9304(5)
Au11_3 Au 0.09969(2) 0.44446(2) 0.99387(2)
Au14_3 Au 0.07455(2) 0.45603(2) 0.88957(2)
Ag9_3 Ag 0.04810(5) 0.16736(5) 0.91777(5)
Ag18_3 Ag 0.12699(7) 0.39037(7) 0.92585(9)
Ag21_3 Ag 0.12628(7) 0.52374(5) 0.96237(6)
Cu9_3 Cu 0.14517(7) 0.21755(7) 0.97468(8)
Cu14_3 Cu 0.03469(7) 0.32256(6) 0.96876(7)
S21_3 S 0.15864(12) 0.45425(14) 0.95695(14)
S26_3 S 0.0513(2) 0.39335(14) 0.91206(15)
S30_3 S 0.09698(14) 0.52139(13) 0.87798(14)
O31_3 O 0.0908(4) 0.2342(4) 0.9710(3)
O36_3 O 0.1979(5) 0.1904(5) 0.9812(5)
O48_3 O 0.0878(3) 0.3367(3) 0.9908(3)
O56_3 O 0.1457(7) 0.3232(6) 0.9099(10)
O60_3 O 0.1665(6) 0.2876(5) 0.9839(7)
N18_3 N 0.1532(6) 0.2116(5) 0.9139(6)
N26_3 N 0.0549(5) 0.3030(4) 0.9140(4)
C114_3 C 0.0241(5) 0.3187(5) 0.8832(5)
C116_3 C 0.0364(5) 0.3611(5) 0.8690(6)
C118_3 C 0.0748(7) 0.3583(7) 0.8418(8)
C120_3 C 0.0019(6) 0.3810(5) 0.8431(6)
H43_3 H 0.1473 0.711964 0.962585
H44_3 H 0.115761 0.672861 0.968735
H63_3 H 0.200089 0.680828 0.989472
H64_3 H 0.157439 0.65087 0.918739
H65_3 H 0.210975 0.645963 0.926389
H66_3 H 0.181242 0.602319 0.913746
H78_3 H 0.206013 0.565292 0.974818
H79_3 H 0.235879 0.606958 0.992727
H97_3 H 0.12259 0.304548 0.916015
H98_3 H 0.152646 0.321367 0.880442
H102_3 H 0.196645 0.288663 0.986986
H147_3 H 0.0561036 0.272038 0.913314
H148_3 H 0.0830343 0.314567 0.908062
H216_3 H 0.0240586 0.298321 0.856923
H226_3 H 0.0124578 0.410165 0.831113
H236_3 H 0.0997196 0.344763 0.859164
H237_3 H 0.068226 0.33938 0.815256
H238_3 H 0.0835416 0.388783 0.831793
Au1_3 Au 0.99657(2) 0.52165(2) 0.34797(2)
Ag3_3 Ag 0.98768(5) 0.61674(6) 0.40430(5)
Cl2_3 Cl 0.95419(13) 0.54581(13) 0.45419(13)
S2_3 S 0.94207(13) 0.56534(13) 0.34673(12)
S6_3 S 0.97244(14) 0.53888(14) 0.06246(14)
O6_3 O 0.9914(3) 0.5381(3) 0.2381(3)
O14_3 O 0.9480(5) 0.6194(4) 0.1564(4)
N3_3 N 0.9665(5) 0.6360(4) 0.2880(5)
N7_3 N 0.9828(4) 0.5135(4) 0.1516(4)
C11_3 C 0.9955(4) 0.5724(4) 0.2575(4)
C12_3 C 0.9549(4) 0.5950(4) 0.2694(5)
C13_3 C 0.9230(5) 0.5720(4) 0.2940(5)
C14_3 C 0.8850(6) 0.6008(7) 0.2973(6)
C15_3 C 0.9113(6) 0.5295(5) 0.2757(5)
C25_3 C 0.9683(5) 0.6977(6) 0.0374(8)
C31_3 C 0.9722(4) 0.5887(4) 0.1545(5)
C32_3 C 0.9523(5) 0.5472(4) 0.1440(4)
C33_3 C 0.9316(5) 0.5443(5) 0.1018(4)
C34_3 C 0.9054(6) 0.5831(7) 0.0899(6)
C35_3 C 0.9064(7) 0.5039(6) 0.0983(7)
Au5_3 Au 0.97835(2) 0.65203(2) 0.49657(2)
Au7_3 Au 0.84797(2) 0.50343(2) 0.47835(2)
Au8_3 Au 0.91875(2) 0.43770(2) 0.42869(2)
Au9_3 Au 0.92869(2) 0.58125(2) 0.56230(2)
Ag7_3 Ag 0.83264(5) 0.41777(5) 0.45190(5)
Ag8_3 Ag 0.95190(5) 0.66736(5) 0.58223(5)
Ag10_3 Ag 0.92204(5) 0.49051(5) 0.52395(5)
Ag13_3 Ag 0.90430(5) 0.51232(5) 0.38326(6)
Ag14_3 Ag 0.88326(6) 0.59570(5) 0.48768(5)
Cu5_3 Cu 0.88951(8) 0.36680(7) 0.55067(7)
Cu8_3 Cu 0.85483(7) 0.71755(7) 0.52532(8)
Cu10_3 Cu 0.78245(7) 0.47468(8) 0.35483(7)
Cu13_3 Cu 0.96531(7) 0.82256(6) 0.53124(7)
Cl4_3 Cl 0.7824(2) 0.3642(2) 0.4501(2)
Cl5_3 Cl 0.9501(2) 0.7176(2) 0.6358(2)
S11_3 S 0.85836(12) 0.44709(13) 0.51964(13)
S12_3 S 0.93466(13) 0.65327(12) 0.44207(13)
S14_3 S 0.84673(12) 0.55793(13) 0.43466(13)
S15_3 S 0.86326(13) 0.44659(14) 0.38619(14)
S16_3 S 0.88619(14) 0.63674(13) 0.55341(14)
S17_3 S 0.97224(13) 0.43862(12) 0.47400(14)
S18_3 S 0.97400(14) 0.52776(13) 0.56138(12)
O23_3 O 0.8918(4) 0.3919(4) 0.6010(4)
O26_3 O 0.8899(4) 0.3475(3) 0.4946(4)
O27_3 O 0.9946(4) 0.6101(4) 0.6525(3)
O28_3 O 0.9288(4) 0.3290(3) 0.4425(3)
O29_3 O 0.9425(3) 0.5712(4) 0.6710(3)
O30_3 O 0.9092(4) 0.7342(4) 0.5290(3)
O32_3 O 0.9619(3) 0.7619(3) 0.4914(3)
O34_3 O 0.8096(5) 0.4812(5) 0.3021(5)
O35_3 O 0.8021(5) 0.6904(5) 0.5188(5)
O37_3 O 0.8438(7) 0.4408(8) 0.2570(5)
O38_3 O 0.7570(5) 0.6562(7) 0.5592(8)
O47_3 O 0.9122(3) 0.8367(3) 0.5092(3)
O49_3 O 0.8806(4) 0.8436(4) 0.4480(5)
O55_3 O 0.8543(7) 0.8232(6) 0.5901(10)
O57_3 O 0.9036(5) 0.2967(4) 0.5740(4)
O59_3 O 0.8335(6) 0.7876(5) 0.5161(7)
N11_3 N 0.8296(5) 0.3704(4) 0.5570(5)
N12_3 N 0.9491(5) 0.3762(4) 0.5426(5)
N14_3 N 0.8640(4) 0.7120(5) 0.4665(5)
N16_3 N 0.7884(5) 0.4139(6) 0.3468(6)
N17_3 N 0.8468(6) 0.7116(5) 0.5861(6)
N23_3 N 0.9865(4) 0.8484(4) 0.4828(4)
N25_3 N 0.9451(5) 0.8030(4) 0.5860(4)
C51_3 C 0.9244(4) 0.3457(5) 0.4773(4)
C52_3 C 0.9773(4) 0.5756(4) 0.6543(5)
C53_3 C 0.9631(5) 0.3597(5) 0.5021(5)
C55_3 C 0.9940(4) 0.3875(4) 0.4809(4)
C56_3 C 0.9809(4) 0.5060(4) 0.6125(4)
C60_3 C 0.9392(6) 0.4937(6) 0.6312(6)
C61_3 C 0.9276(4) 0.7425(4) 0.4955(4)
C63_3 C 0.9050(4) 0.7306(5) 0.4549(4)
C65_3 C 0.9280(4) 0.7060(5) 0.4230(5)
C67_3 C 0.8992(7) 0.7027(6) 0.3850(6)
C69_3 C 0.9705(5) 0.7243(5) 0.4113(6)
C71_3 C 0.8241(7) 0.4472(7) 0.2904(5)
C72_3 C 0.7904(5) 0.6759(7) 0.5528(7)
C73_3 C 0.8267(5) 0.4112(7) 0.3220(6)
C74_3 C 0.8220(6) 0.6733(5) 0.5888(7)
C75_3 C 0.8655(5) 0.4050(5) 0.3473(5)
C76_3 C 0.8473(5) 0.6345(5) 0.5950(5)
C77_3 C 0.8672(6) 0.3637(5) 0.3701(6)
C78_3 C 0.8701(6) 0.6328(6) 0.6363(5)
C79_3 C 0.9050(6) 0.4088(8) 0.3218(7)
C80_3 C 0.8218(7) 0.5950(6) 0.5912(8)
C101_3 C 0.9113(4) 0.8455(5) 0.4722(4)
C103_3 C 0.9528(4) 0.8560(4) 0.4523(5)
C105_3 C 0.9557(5) 0.8982(4) 0.4316(5)
C107_3 C 0.9169(7) 0.9101(6) 0.4054(6)
C109_3 C 0.9961(6) 0.9017(7) 0.4064(7)
C113_3 C 0.9759(5) 0.8187(5) 0.6168(5)
C115_3 C 0.9636(5) 0.8611(5) 0.6310(6)
C117_3 C 0.9252(7) 0.8583(7) 0.6582(8)
C119_3 C 0.9981(6) 0.8810(5) 0.6569(6)
H3_3 H 0.991236 0.653388 0.201031
H13_3 H 0.894248 0.629885 0.310502
H14_3 H 0.872307 0.60592 0.266994
H15_3 H 0.862006 0.586633 0.3167
H19_3 H 0.989094 0.432609 0.316418
H22_3 H 0.887561 0.515557 0.29435
H23_3 H 0.900082 0.533508 0.244654
H24_3 H 0.938105 0.509825 0.275346
H25_3 H 0.969967 0.492131 0.170019
H26_3 H 0.990556 0.500511 0.12455
H33_3 H 0.940129 0.602318 0.240521
H35_3 H 0.982263 0.722581 0.117043
H36_3 H 0.988517 0.668674 0.115171
H37_3 H 0.9535 0.668659 0.0439853
H38_3 H 0.948432 0.722651 0.0468076
H39_3 H 0.974239 0.699964 0.00476022
H45_3 H 0.951173 0.658607 0.273351
H46_3 H 0.958892 0.636147 0.318045
H68_3 H 0.928082 0.542788 0.166355
H69_3 H 0.926216 0.477909 0.104428
H70_3 H 0.881575 0.504369 0.120419
H71_3 H 0.893857 0.501283 0.0676148
H72_3 H 0.892095 0.578668 0.0597486
H73_3 H 0.881116 0.587346 0.112216
H74_3 H 0.924953 0.609994 0.0895436
H85_3 H 0.87741 0.804548 0.583985
H86_3 H 0.847354 0.821367 0.619558
H91_3 H 0.841393 0.726649 0.451173
H92_3 H 0.863853 0.681955 0.458892
H93_3 H 0.846612 0.798969 0.491236
H94_3 H 0.803355 0.788663 0.513014
H95_3 H 0.96475 0.362 0.565272
H96_3 H 0.954775 0.406652 0.543633
H113_3 H 0.764189 0.402165 0.331415
H114_3 H 0.791505 0.399223 0.373921
H118_3 H 0.999489 0.87545 0.490556
H119_3 H 0.831415 0.735811 0.597835
H120_3 H 0.873921 0.708495 0.600777
H121_3 H 0.870115 0.689498 0.394248
H122_3 H 0.89408 0.733006 0.372307
H123_3 H 0.913367 0.6833 0.362006
H124_3 H 0.897682 0.759479 0.440129
H125_3 H 0.924584 0.471032 0.61175
H126_3 H 0.943993 0.480871 0.661502
H127_3 H 0.919724 0.520555 0.633487
H130_3 H 0.996678 0.447011 0.587745
H131_3 H 0.979691 0.331761 0.509163
H140_3 H 0.979445 0.366513 0.419724
H144_3 H 0.984443 0.70565 0.387561
H145_3 H 0.966492 0.755346 0.400082
H146_3 H 0.990175 0.724654 0.438105
H152_3 H 0.932609 0.183582 0.0109061
H162_3 H 0.992131 0.329981 0.0300335
H164_3 H 0.943896 0.772038 0.586686
H165_3 H 0.916966 0.814567 0.591938
H169_3 H 0.823498 0.383459 0.303946
H170_3 H 0.803946 0.676502 0.616541
H174_3 H 0.957212 0.833645 0.428082
H187_3 H 0.84186 0.568585 0.593571
H188_3 H 0.799219 0.593995 0.61559
H189_3 H 0.806344 0.594574 0.56176
H190_3 H 0.840014 0.360316 0.388947
H191_3 H 0.868527 0.338886 0.348003
H192_3 H 0.894257 0.362805 0.38941
H199_3 H 0.888947 0.659986 0.639684
H200_3 H 0.848003 0.631473 0.661114
H201_3 H 0.88941 0.605743 0.637195
H208_3 H 0.931415 0.406429 0.34186
H209_3 H 0.906005 0.38441 0.299219
H210_3 H 0.905426 0.43824 0.306344
H214_3 H 0.995631 0.879581 0.381575
H215_3 H 0.998717 0.932385 0.393857
H217_3 H 0.987542 0.910165 0.668887
H220_3 H 0.977909 0.395572 0.0737837
H223_3 H 0.90028 0.844763 0.640836
H224_3 H 0.931774 0.83938 0.684744
H225_3 H 0.916458 0.888783 0.668207
H232_3 H 0.921332 0.940251 0.392095
H233_3 H 0.912654 0.887784 0.381116
H234_3 H 0.890006 0.910456 0.424953
H235_3 H 0.975941 0.798321 0.643077
Ag12_3 Ag 0.97605(5) 0.07796(5) 0.99051(5)
Cu7_3 Cu 0.94933(7) 0.11049(8) 0.86680(7)
S10_3 S 0.98036(13) 0.14164(12) 0.94709(13)
O22_3 O 0.8990(4) 0.1082(4) 0.8919(4)
O25_3 O 0.8516(5) 0.1477(6) 0.9237(6)
O52_3 O 0.9813(4) 0.3204(3) 0.9421(4)
O54_3 O 0.9494(4) 0.3142(4) 0.8815(4)
N10_3 N 0.9430(5) 0.1704(5) 0.8704(4)
C42_3 C 0.8865(5) 0.1414(6) 0.9060(6)
C44_3 C 0.9156(5) 0.1792(5) 0.9057(4)
C46_3 C 0.9405(5) 0.1828(4) 0.9446(5)
C48_3 C 0.9626(7) 0.2248(5) 0.9456(6)
C50_3 C 0.9135(5) 0.1795(6) 0.9840(5)
C112_3 C 0.9808(5) 0.3177(5) 0.9033(4)
H83_3 H 0.930406 0.181295 0.844261
H84_3 H 0.970631 0.183705 0.874883
H153_3 H 0.890054 0.203072 0.983377
H154_3 H 0.899084 0.149554 0.985082
H155_3 H 0.898337 0.207109 0.900332
H156_3 H 0.983134 0.227143 0.91955
H157_3 H 0.94007 0.249217 0.944186
H158_3 H 0.980076 0.227461 0.973765
H227_3 H 0.993969 0.360859 0.817858
H228_3 H 0.975126 0.385905 0.862201
Au3_4 Au 0.55554(2) 0.49387(2) 0.40031(2)
Au4_4 Au 0.54397(2) 0.38957(2) 0.42545(2)
Ag4_4 Ag 0.60963(7) 0.42585(9) 0.37301(7)
Ag5_2 Ag 0.47626(5) 0.46237(6) 0.37372(7)
Ag6_4 Ag 0.55701(7) 0.44206(6) 0.49638(5)
Cu3_4 Cu 0.52664(7) 0.39072(7) 0.28005(6)
Cu4_4 Cu 0.67744(6) 0.46876(7) 0.46531(7)
Cl3_4 Cl 0.46764(13) 0.46764(13) 0.46764(13)
S5_4 S 0.54575(14) 0.45695(14) 0.34136(12)
S6_4 S 0.56246(14) 0.52756(14) 0.46112(14)
S7_4 S 0.60665(14) 0.41206(15) 0.4487(2)
S8_4 S 0.47861(13) 0.37798(14) 0.40302(14)
O2_4 O 0.8523(6) 0.4237(6) 0.6484(5)
O5_4 O 0.7658(4) 0.4710(3) 0.4092(4)
O6_4 O 0.7381(3) 0.5086(3) 0.4619(3)
O9_4 O 0.4887(3) 0.4304(3) 0.2558(3)
O10_4 O 0.4875(4) 0.4956(4) 0.2337(4)
O11_4 O 0.5620(4) 0.3586(4) 0.3135(3)
O12_4 O 0.5650(5) 0.3062(6) 0.3565(6)
O13_4 O 0.6633(3) 0.4908(3) 0.4122(3)
O14_4 O 0.6564(4) 0.5520(5) 0.3806(4)
O15_4 O 0.6796(3) 0.4421(4) 0.5187(4)
O16_4 O 0.6858(4) 0.3815(4) 0.5506(4)
O17_4 O 0.6768(6) 0.4099(10) 0.3543(7)
O19_4 O 0.7124(5) 0.4839(7) 0.3335(6)
O20_4 O 0.5251(5) 0.3466(4) 0.2254(4)
N3_4 N 0.7880(5) 0.5335(5) 0.3640(4)
N5_4 N 0.5692(4) 0.4275(4) 0.2576(4)
N6_4 N 0.4828(4) 0.3635(4) 0.3089(4)
N7_4 N 0.6516(4) 0.5172(4) 0.4865(4)
N8_4 N 0.6970(4) 0.4140(4) 0.4451(5)
C1_4 C 0.8586(6) 0.4060(6) 0.6135(5)
C2_4 C 0.8208(5) 0.4057(4) 0.5844(5)
C3_4 C 0.8172(4) 0.4446(5) 0.5595(5)
C4_4 C 0.7752(5) 0.4456(6) 0.5374(7)
C5_4 C 0.8205(6) 0.4840(5) 0.5865(5)
C11_4 C 0.7575(4) 0.5045(4) 0.4276(4)
C12_4 C 0.7694(5) 0.5451(4) 0.4050(4)
C13_4 C 0.7940(5) 0.5770(5) 0.4280(4)
C14_4 C 0.7973(6) 0.6150(6) 0.3992(7)
C15_4 C 0.7757(5) 0.5887(6) 0.4705(5)
C21_4 C 0.5053(4) 0.4645(5) 0.2483(5)
C22_4 C 0.5513(4) 0.4698(4) 0.2594(4)
C23_4 C 0.5611(4) 0.4908(5) 0.2997(4)
C24_4 C 0.6075(5) 0.4976(6) 0.3021(7)
C25_4 C 0.5374(8) 0.5317(5) 0.3023(6)
C26_4 C 0.5451(5) 0.3320(5) 0.3358(5)
C27_4 C 0.4970(5) 0.3280(5) 0.3353(5)
C28_4 C 0.4768(4) 0.3259(5) 0.3773(4)
C29_4 C 0.4935(7) 0.2942(6) 0.4072(6)
C30_4 C 0.4304(5) 0.3185(7) 0.3689(8)
C31_4 C 0.6545(5) 0.5278(4) 0.4113(4)
C32_4 C 0.6440(4) 0.5477(5) 0.4528(4)
C33_4 C 0.6018(4) 0.5684(5) 0.4557(5)
C34_4 C 0.5899(6) 0.5946(6) 0.4169(7)
C35_4 C 0.5983(7) 0.5936(7) 0.4961(6)
C36_4 C 0.6823(5) 0.4033(4) 0.5192(5)
C37_4 C 0.6813(5) 0.3832(5) 0.4759(5)
C38_4 C 0.6389(5) 0.3690(6) 0.4636(5)
C39_4 C 0.6417(7) 0.3418(8) 0.4252(7)
C40_4 C 0.6190(5) 0.3431(6) 0.4981(6)
Au11_4 Au 0.49387(2) 0.40031(2) 0.55554(2)
Au12_2 Au 0.40031(2) 0.55554(2) 0.49387(2)
Au14_4 Au 0.38957(2) 0.42545(2) 0.54397(2)
Au15_2 Au 0.42545(2) 0.54397(2) 0.38957(2)
Ag18_4 Ag 0.42585(9) 0.37301(7) 0.60963(7)
Ag19_2 Ag 0.37301(7) 0.60963(7) 0.42585(9)
Ag20_2 Ag 0.37372(7) 0.47626(5) 0.46237(6)
Ag21_4 Ag 0.46237(6) 0.37372(7) 0.47626(5)
Ag24_2 Ag 0.49638(5) 0.55701(7) 0.44206(6)
Ag25_2 Ag 0.44206(6) 0.49638(5) 0.55701(7)
Cu11_2 Cu 0.28005(6) 0.52664(7) 0.39072(7)
Cu14_4 Cu 0.46876(7) 0.46531(7) 0.67744(6)
S19_2 S 0.34136(12) 0.54575(14) 0.45695(14)
S21_4 S 0.45695(14) 0.34136(12) 0.54575(14)
S23_4 S 0.52756(14) 0.46112(14) 0.56246(14)
S24_2 S 0.46112(14) 0.56246(14) 0.52756(14)
S26_4 S 0.41206(15) 0.4487(2) 0.60665(14)
S27_2 S 0.4487(2) 0.60665(14) 0.41206(15)
S28_2 S 0.40302(14) 0.47861(13) 0.37798(14)
S30_4 S 0.37798(14) 0.40302(14) 0.47861(13)
O25_4 O 0.4237(6) 0.6484(5) 0.8523(6)
O31_4 O 0.4710(3) 0.4092(4) 0.7658(4)
O33_4 O 0.5086(3) 0.4619(3) 0.7381(3)
O39_2 O 0.2558(3) 0.4887(3) 0.4304(3)
O41_2 O 0.2337(4) 0.4875(4) 0.4956(4)
O43_2 O 0.3135(3) 0.5620(4) 0.3586(4)
O45_2 O 0.3565(6) 0.5650(5) 0.3062(6)
O48_4 O 0.4908(3) 0.4122(3) 0.6633(3)
O50_4 O 0.5520(5) 0.3806(4) 0.6564(4)
O52_4 O 0.4421(4) 0.5187(4) 0.6796(3)
O54_4 O 0.3815(4) 0.5506(4) 0.6858(4)
O56_4 O 0.4099(10) 0.3543(7) 0.6768(6)
O60_4 O 0.4839(7) 0.3335(6) 0.7124(5)
O61_2 O 0.2254(4) 0.5251(5) 0.3466(4)
N15_4 N 0.5335(5) 0.3640(4) 0.7880(5)
N19_2 N 0.2576(4) 0.5692(4) 0.4275(4)
N21_2 N 0.3089(4) 0.4828(4) 0.3635(4)
N24_4 N 0.5172(4) 0.4865(4) 0.6516(4)
N26_4 N 0.4140(4) 0.4451(5) 0.6970(4)
C42_4 C 0.4060(6) 0.6135(5) 0.8586(6)
C44_4 C 0.4057(4) 0.5844(5) 0.8208(5)
C46_4 C 0.4446(5) 0.5595(5) 0.8172(4)
C48_4 C 0.4456(6) 0.5374(7) 0.7752(5)
C50_4 C 0.4840(5) 0.5865(5) 0.8205(6)
C62_4 C 0.5045(4) 0.4276(4) 0.7575(4)
C64_4 C 0.5451(4) 0.4050(4) 0.7694(5)
C66_4 C 0.5770(5) 0.4280(4) 0.7940(5)
C68_4 C 0.6150(6) 0.3992(7) 0.7973(6)
C70_4 C 0.5887(6) 0.4705(5) 0.7757(5)
C81_2 C 0.2483(5) 0.5053(4) 0.4645(5)
C83_2 C 0.2594(4) 0.5513(4) 0.4698(4)
C85_2 C 0.2997(4) 0.5611(4) 0.4908(5)
C87_2 C 0.3021(7) 0.6075(5) 0.4976(6)
C89_2 C 0.3023(6) 0.5374(8) 0.5317(5)
C91_2 C 0.3358(5) 0.5451(5) 0.3320(5)
C93_2 C 0.3353(5) 0.4970(5) 0.3280(5)
C95_2 C 0.3773(4) 0.4768(4) 0.3259(5)
C97_2 C 0.4072(6) 0.4935(7) 0.2942(6)
C99_2 C 0.3689(8) 0.4304(5) 0.3185(7)
C102_4 C 0.5278(4) 0.4113(4) 0.6545(5)
C104_4 C 0.5477(5) 0.4528(4) 0.6440(4)
C106_4 C 0.5684(5) 0.4557(5) 0.6018(4)
C108_4 C 0.5946(6) 0.4169(7) 0.5899(6)
C110_4 C 0.5936(7) 0.4961(6) 0.5983(7)
C112_4 C 0.4033(4) 0.5192(5) 0.6823(5)
C114_4 C 0.3832(5) 0.4759(5) 0.6813(5)
C116_4 C 0.3690(6) 0.4636(5) 0.6389(5)
C118_4 C 0.3418(8) 0.4252(7) 0.6417(7)
C120_4 C 0.3431(6) 0.4981(6) 0.6190(5)
H1_4 H 0.882168 0.288086 0.593643
H2_4 H 0.903615 0.277933 0.550184
H3_4 H 0.701031 0.508764 0.346612
H4_4 H 0.711337 0.486986 0.303355
H5_4 H 0.695452 0.416015 0.37741
H6_4 H 0.678633 0.380442 0.347354
H7_4 H 0.534868 0.360955 0.200542
H8_4 H 0.543074 0.322849 0.231075
H9_4 H 0.818705 0.344261 0.569594
H10_4 H 0.816295 0.374883 0.529369
H13_4 H 0.810502 0.605752 0.370115
H14_4 H 0.766994 0.627693 0.39408
H15_4 H 0.8167 0.637994 0.413367
H19_4 H 0.816418 0.510906 0.567391
H20_4 H 0.796928 0.483377 0.609946
H21_4 H 0.850446 0.485082 0.600916
H22_4 H 0.79435 0.612439 0.484443
H23_4 H 0.744654 0.599918 0.466492
H24_4 H 0.775346 0.561895 0.490175
H25_4 H 0.670019 0.530033 0.507869
H26_4 H 0.62455 0.509444 0.499489
H33_4 H 0.740521 0.559871 0.397682
H34_4 H 0.623145 0.468395 0.299255
H35_4 H 0.617043 0.517737 0.277419
H36_4 H 0.615171 0.511483 0.331326
H37_4 H 0.543985 0.5465 0.331341
H38_4 H 0.546808 0.551568 0.277349
H39_4 H 0.50476 0.525761 0.300036
H43_4 H 0.462585 0.3527 0.288036
H44_4 H 0.468735 0.384239 0.327139
H45_4 H 0.773351 0.548827 0.341393
H46_4 H 0.818045 0.541108 0.363853
H47_4 H 0.727962 0.413314 0.443896
H48_4 H 0.685433 0.408062 0.416966
H49_4 H 0.575789 0.419792 0.228312
H50_4 H 0.594973 0.425934 0.274743
H52_4 H 0.565421 0.487649 0.235156
H53_4 H 0.792891 0.400332 0.601663
H54_4 H 0.772857 0.41955 0.516866
H55_4 H 0.750783 0.444186 0.55993
H56_4 H 0.772539 0.473765 0.519924
H60_4 H 0.589835 0.331113 0.487542
H61_4 H 0.639141 0.317858 0.506031
H62_4 H 0.614095 0.362201 0.524874
H63_4 H 0.489472 0.299911 0.319172
H64_4 H 0.418739 0.342561 0.34913
H65_4 H 0.426389 0.289025 0.354037
H66_4 H 0.413746 0.318758 0.397681
H67_4 H 0.701679 0.356923 0.475941
H68_4 H 0.666355 0.571918 0.457212
H69_4 H 0.604428 0.573784 0.522091
H70_4 H 0.620419 0.618425 0.495631
H71_4 H 0.567615 0.606143 0.498717
H72_4 H 0.559749 0.607905 0.421332
H73_4 H 0.612216 0.618884 0.412654
H74_4 H 0.589544 0.575047 0.390006
H75_4 H 0.655237 0.359164 0.40028
H76_4 H 0.66062 0.315256 0.431774
H77_4 H 0.611217 0.331793 0.416458
H78_4 H 0.474818 0.293987 0.434708
H79_4 H 0.492727 0.264121 0.393042
H80_4 H 0.524855 0.301904 0.415155
H83_4 H 0.344261 0.569594 0.818705
H84_4 H 0.374883 0.529369 0.816295
H89_2 H 0.200542 0.534868 0.360955
H90_2 H 0.231075 0.543074 0.322849
H97_4 H 0.416015 0.37741 0.695452
H98_4 H 0.380442 0.347354 0.678633
H101_4 H 0.508764 0.346612 0.701031
H102_4 H 0.486986 0.303355 0.711337
H109_2 H 0.228312 0.575789 0.419792
H110_2 H 0.274743 0.594973 0.425934
H111_2 H 0.288036 0.462585 0.3527
H112_2 H 0.327139 0.468735 0.384239
H115_4 H 0.548827 0.341393 0.773351
H116_4 H 0.541108 0.363853 0.818045
H133_4 H 0.559871 0.397682 0.740521
H141_4 H 0.605752 0.370115 0.810502
H142_4 H 0.627693 0.39408 0.766994
H143_4 H 0.637994 0.413367 0.8167
H147_4 H 0.413314 0.443896 0.727962
H148_4 H 0.408062 0.416966 0.685433
H152_4 H 0.510906 0.567391 0.816418
H153_4 H 0.483377 0.609946 0.796928
H154_4 H 0.485082 0.600916 0.850446
H155_4 H 0.400332 0.601663 0.792891
H156_4 H 0.41955 0.516866 0.772857
H157_4 H 0.444186 0.55993 0.750783
H158_4 H 0.473765 0.519924 0.772539
H162_4 H 0.530033 0.507869 0.670019
H163_4 H 0.509444 0.499489 0.62455
H166_4 H 0.612439 0.484443 0.79435
H167_4 H 0.599918 0.466492 0.744654
H168_4 H 0.561895 0.490175 0.775346
H171_2 H 0.434708 0.474818 0.293987
H172_2 H 0.393042 0.492727 0.264121
H173_2 H 0.415155 0.524855 0.301904
H175_2 H 0.331341 0.543985 0.5465
H176_2 H 0.277349 0.546808 0.551568
H177_2 H 0.300036 0.50476 0.525761
H181_2 H 0.319172 0.489472 0.299911
H182_4 H 0.571918 0.457212 0.666355
H196_2 H 0.34913 0.418739 0.342561
H197_2 H 0.354037 0.426389 0.289025
H198_2 H 0.397681 0.413746 0.318758
H202_2 H 0.299255 0.623145 0.468395
H203_2 H 0.277419 0.617043 0.517737
H204_2 H 0.331326 0.615171 0.511483
H211_2 H 0.235156 0.565421 0.487649
H216_4 H 0.356923 0.475941 0.701679
H220_4 H 0.573784 0.522091 0.604428
H221_4 H 0.618425 0.495631 0.620419
H222_4 H 0.606143 0.498717 0.567615
H226_4 H 0.331113 0.487542 0.589835
H227_4 H 0.317858 0.506031 0.639141
H228_4 H 0.362201 0.524874 0.614095
H229_4 H 0.607905 0.421332 0.559749
H230_4 H 0.618884 0.412654 0.612216
H231_4 H 0.575047 0.390006 0.589544
H236_4 H 0.359164 0.40028 0.655237
H237_4 H 0.315256 0.431774 0.66062
H238_4 H 0.331793 0.416458 0.611217
Cl2_4 Cl 0.04581(13) 0.04581(13) 0.04581(13)
C25_5 C 0.1977(6) 0.4626(8) 0.0317(5)
C90_3 C 0.4626(8) 0.0317(5) 0.1977(6)
H35_5 H 0.222581 0.382957 0.0177375
H36_5 H 0.168674 0.384829 0.0114826
H37_5 H 0.168659 0.456015 0.0465
H38_5 H 0.222651 0.453192 0.0515676
H39_5 H 0.199964 0.49524 0.0257605
H194_3 H 0.382957 0.0177375 0.222581
H195_3 H 0.384829 0.0114826 0.168674
H205_3 H 0.456015 0.0465 0.168659
H206_3 H 0.453192 0.0515676 0.222651
H207_3 H 0.49524 0.0257605 0.199964
Au2_4 Au 0.07131(2) 0.08125(2) 0.93770(2)
Cu3_5 Cu 0.21995(6) 0.47336(7) 0.89072(7)
Cl1_4 Cl 0.0499(2) 0.2176(2) 0.8642(2)
S3_4 S 0.11381(14) 0.13674(13) 0.94659(14)
S4_4 S 0.02600(14) 0.02776(13) 0.93862(12)
O3_4 O 0.0054(4) 0.1101(4) 0.8475(3)
O4_4 O 0.0575(3) 0.0712(4) 0.8290(3)
O8_4 O 0.2430(5) 0.1562(7) 0.9408(8)
O9_5 O 0.2442(3) 0.5113(3) 0.9304(3)
O10_5 O 0.2663(4) 0.5125(4) 0.9956(4)
O11_5 O 0.1865(3) 0.4380(4) 0.8586(4)
O12_5 O 0.1435(6) 0.4350(5) 0.8062(6)
O20_5 O 0.2746(4) 0.4749(5) 0.8466(4)
N5_5 N 0.2424(4) 0.4308(4) 0.9275(4)
N6_5 N 0.1911(4) 0.5172(4) 0.8635(4)
C6_4 C 0.0227(4) 0.0756(4) 0.8457(5)
C8_4 C 0.0191(4) 0.0060(4) 0.8875(4)
C16_4 C 0.2096(5) 0.1759(7) 0.9472(7)
C17_4 C 0.1780(6) 0.1733(5) 0.9112(7)
C18_4 C 0.1527(5) 0.1345(5) 0.9050(5)
C19_4 C 0.1299(6) 0.1328(6) 0.8637(5)
C20_4 C 0.1782(7) 0.0950(6) 0.9088(8)
C21_5 C 0.2517(5) 0.4947(4) 0.9645(5)
C22_5 C 0.2406(4) 0.4487(4) 0.9698(4)
C23_5 C 0.2003(4) 0.4389(4) 0.9908(5)
C24_5 C 0.1979(7) 0.3925(5) 0.9976(6)
C26_5 C 0.1642(5) 0.4549(5) 0.8320(5)
C27_5 C 0.1647(5) 0.5030(5) 0.8280(5)
C28_5 C 0.1227(4) 0.5232(4) 0.8259(5)
C29_5 C 0.0928(6) 0.5065(7) 0.7942(6)
C30_5 C 0.1311(8) 0.5696(5) 0.8185(7)
H7_5 H 0.299458 0.465132 0.860955
H8_5 H 0.268925 0.456926 0.822849
H16_4 H 0.111053 0.159986 0.860316
H17_4 H 0.151997 0.131473 0.838886
H18_4 H 0.11059 0.105743 0.862805
H27_4 H 0.15814 0.0685854 0.906429
H28_4 H 0.200781 0.0939947 0.88441
H29_4 H 0.193656 0.0945736 0.93824
H32_4 H 0.080276 0.0205554 0.866513
H34_5 H 0.200745 0.376855 0.968395
H43_5 H 0.211964 0.537415 0.8527
H44_5 H 0.172861 0.531265 0.884239
H49_5 H 0.271688 0.424211 0.919792
H50_5 H 0.225257 0.405027 0.925934
H51_4 H 0.196054 0.176502 0.883459
H52_5 H 0.264844 0.434579 0.987649
H57_4 H 0.168585 0.235811 0.902165
H58_4 H 0.126079 0.208495 0.899223
H63_5 H 0.180828 0.510528 0.799911
H64_5 H 0.15087 0.581261 0.842561
H65_5 H 0.145963 0.573611 0.789025
H66_5 H 0.102319 0.586254 0.818758
H78_5 H 0.0652919 0.525182 0.793987
H79_5 H 0.106958 0.507273 0.764121
H80_5 H 0.0848449 0.475145 0.801904
Au9_4 Au 0.08125(2) 0.93770(2) 0.07131(2)
Cu12_3 Cu 0.47336(7) 0.89072(7) 0.21995(6)
Cl5_4 Cl 0.2176(2) 0.8642(2) 0.0499(2)
S16_4 S 0.13674(13) 0.94659(14) 0.11381(14)
S18_4 S 0.02776(13) 0.93862(12) 0.02600(14)
O27_4 O 0.1101(4) 0.8475(3) 0.0054(4)
O29_4 O 0.0712(4) 0.8290(3) 0.0575(3)
O38_4 O 0.1562(7) 0.9408(8) 0.2430(5)
O40_3 O 0.5113(3) 0.9304(3) 0.2442(3)
O42_3 O 0.5125(4) 0.9956(4) 0.2663(4)
O44_3 O 0.4380(4) 0.8586(4) 0.1865(3)
O46_3 O 0.4350(5) 0.8062(6) 0.1435(6)
O62_3 O 0.4749(5) 0.8466(4) 0.2746(4)
N20_3 N 0.4308(4) 0.9275(4) 0.2424(4)
N22_3 N 0.5172(4) 0.8635(4) 0.1911(4)
C52_4 C 0.0756(4) 0.8457(5) 0.0227(4)
C56_4 C 0.0060(4) 0.8875(4) 0.0191(4)
C72_4 C 0.1759(7) 0.9472(7) 0.2096(5)
C74_4 C 0.1733(5) 0.9112(7) 0.1780(6)
C76_4 C 0.1345(5) 0.9050(5) 0.1527(5)
C78_4 C 0.1328(6) 0.8637(5) 0.1299(6)
C80_4 C 0.0950(6) 0.9088(8) 0.1782(7)
C82_3 C 0.4947(4) 0.9645(5) 0.2517(5)
C84_3 C 0.4487(4) 0.9698(4) 0.2406(4)
C86_3 C 0.4389(4) 0.9908(5) 0.2003(4)
C88_3 C 0.3925(5) 0.9976(6) 0.1979(7)
C92_3 C 0.4549(5) 0.8320(5) 0.1642(5)
C94_3 C 0.5030(5) 0.8280(5) 0.1647(5)
C96_3 C 0.5232(4) 0.8259(5) 0.1227(4)
C98_3 C 0.5065(7) 0.7942(6) 0.0928(6)
C100_3 C 0.5696(5) 0.8185(7) 0.1311(8)
H81_3 H 0.465132 0.860955 0.299458
H82_3 H 0.456926 0.822849 0.268925
H105_3 H 0.424211 0.919792 0.271688
H106_3 H 0.405027 0.925934 0.225257
H107_3 H 0.537415 0.8527 0.211964
H108_3 H 0.531265 0.884239 0.172861
H119_4 H 0.235811 0.902165 0.168585
H120_4 H 0.208495 0.899223 0.126079
H127_4 H 0.0205554 0.866513 0.080276
H170_4 H 0.176502 0.883459 0.196054
H178_3 H 0.581261 0.842561 0.15087
H179_3 H 0.573611 0.789025 0.145963
H180_3 H 0.586254 0.818758 0.102319
H183_3 H 0.525182 0.793987 0.0652919
H184_3 H 0.507273 0.764121 0.106958
H185_3 H 0.475145 0.801904 0.0848449
H186_3 H 0.510528 0.799911 0.180828
H187_4 H 0.0685854 0.906429 0.15814
H188_4 H 0.0939947 0.88441 0.200781
H189_4 H 0.0945736 0.93824 0.193656
H193_3 H 0.376855 0.968395 0.200745
H199_4 H 0.159986 0.860316 0.111053
H200_4 H 0.131473 0.838886 0.151997
H201_4 H 0.105743 0.862805 0.11059
H212_3 H 0.434579 0.987649 0.264844
C10_4 C 0.0608(6) 0.9937(6) 0.8688(6)
O58_4 O 0.0964(5) 0.7967(4) 0.9260(4)
N13_4 N 0.0509(5) 0.8762(4) 0.9574(5)
C54_4 C 0.0369(5) 0.8597(5) 0.9979(5)
H30_4 H 0.0754158 0.971032 0.88825
H31_4 H 0.0560073 0.980871 0.838498
H42_4 H 0.00332203 0.947011 0.912255
H87_4 H 0.117832 0.788086 0.906357
H88_4 H 0.0963853 0.777933 0.949816
H103_4 H 0.0352504 0.862 0.934728
H104_4 H 0.0452246 0.906652 0.956367
H134_4 H 0.0203087 0.831761 0.990837
Au8_4 Au 0.93770(2) 0.07131(2) 0.08125(2)
Cl4_4 Cl 0.8642(2) 0.0499(2) 0.2176(2)
S15_4 S 0.94659(14) 0.11381(14) 0.13674(13)
S17_4 S 0.93862(12) 0.02600(14) 0.02776(13)
O26_4 O 0.8475(3) 0.0054(4) 0.1101(4)
O28_4 O 0.8290(3) 0.0575(3) 0.0712(4)
O37_4 O 0.9408(8) 0.2430(5) 0.1562(7)
C51_4 C 0.8457(5) 0.0227(4) 0.0756(4)
C55_4 C 0.8875(4) 0.0191(4) 0.0060(4)
C71_4 C 0.9472(7) 0.2096(5) 0.1759(7)
C73_4 C 0.9112(7) 0.1780(6) 0.1733(5)
C75_4 C 0.9050(5) 0.1527(5) 0.1345(5)
C77_4 C 0.8637(5) 0.1299(6) 0.1328(6)
C79_4 C 0.9088(8) 0.1782(7) 0.0950(6)
H113_4 H 0.902165 0.168585 0.235811
H114_4 H 0.899223 0.126079 0.208495
H140_4 H 0.866513 0.080276 0.0205554
H169_4 H 0.883459 0.196054 0.176502
H190_4 H 0.860316 0.111053 0.159986
H191_4 H 0.838886 0.151997 0.131473
H192_4 H 0.862805 0.11059 0.105743
H208_4 H 0.906429 0.15814 0.0685854
H209_4 H 0.88441 0.200781 0.0939947
H210_4 H 0.93824 0.193656 0.0945736
O18_4 O 0.9260(4) 0.0964(5) 0.7967(4)
N2_4 N 0.9574(5) 0.0509(5) 0.8762(4)
C7_4 C 0.9979(5) 0.0369(5) 0.8597(5)
C59_4 C 0.8688(6) 0.0608(6) 0.9937(6)
H1_5 H 0.906357 0.117832 0.788086
H2_5 H 0.949816 0.0963853 0.777933
H11_4 H 0.934728 0.0352504 0.862
H12_4 H 0.956367 0.0452246 0.906652
H59_4 H 0.990837 0.0203087 0.831761
H137_4 H 0.912255 0.00332203 0.947011
H138_4 H 0.88825 0.0754158 0.971032
H139_4 H 0.838498 0.0560073 0.980871
O57_4 O 0.7967(4) 0.9260(4) 0.0964(5)
N12_4 N 0.8762(4) 0.9574(5) 0.0509(5)
C53_4 C 0.8597(5) 0.9979(5) 0.0369(5)
C60_4 C 0.9937(6) 0.8688(6) 0.0608(6)
H95_4 H 0.862 0.934728 0.0352504
H96_4 H 0.906652 0.956367 0.0452246
H125_4 H 0.971032 0.88825 0.0754158
H126_4 H 0.980871 0.838498 0.0560073
H130_4 H 0.947011 0.912255 0.00332203
H131_4 H 0.831761 0.990837 0.0203087
Cu13_4 Cu 0.46531(7) 0.67744(6) 0.46876(7)
O24_4 O 0.6484(5) 0.8523(6) 0.4237(6)
O30_4 O 0.4092(4) 0.7658(4) 0.4710(3)
O32_4 O 0.4619(3) 0.7381(3) 0.5086(3)
O47_4 O 0.4122(3) 0.6633(3) 0.4908(3)
O49_4 O 0.3806(4) 0.6564(4) 0.5520(5)
O51_4 O 0.5187(4) 0.6796(3) 0.4421(4)
O53_4 O 0.5506(4) 0.6858(4) 0.3815(4)
O55_4 O 0.3543(7) 0.6768(6) 0.4099(10)
O59_4 O 0.3335(6) 0.7124(5) 0.4839(7)
N14_4 N 0.3640(4) 0.7880(5) 0.5335(5)
N23_4 N 0.4865(4) 0.6516(4) 0.5172(4)
N25_4 N 0.4451(5) 0.6970(4) 0.4140(4)
C41_4 C 0.6135(5) 0.8586(6) 0.4060(6)
C43_4 C 0.5844(5) 0.8208(5) 0.4057(4)
C45_4 C 0.5595(5) 0.8172(4) 0.4446(5)
C47_4 C 0.5374(7) 0.7752(5) 0.4456(6)
C49_4 C 0.5865(5) 0.8205(6) 0.4840(5)
C61_4 C 0.4276(4) 0.7575(4) 0.5045(4)
C63_4 C 0.4050(4) 0.7694(5) 0.5451(4)
C65_4 C 0.4280(4) 0.7940(5) 0.5770(5)
C67_4 C 0.3992(7) 0.7973(6) 0.6150(6)
C69_4 C 0.4705(5) 0.7757(5) 0.5887(6)
C101_4 C 0.4113(4) 0.6545(5) 0.5278(4)
C103_4 C 0.4528(4) 0.6440(4) 0.5477(5)
C105_4 C 0.4557(5) 0.6018(4) 0.5684(5)
C107_4 C 0.4169(7) 0.5899(6) 0.5946(6)
C109_4 C 0.4961(6) 0.5983(7) 0.5936(7)
C111_4 C 0.5192(5) 0.6823(5) 0.4033(4)
C113_4 C 0.4759(5) 0.6813(5) 0.3832(5)
C115_4 C 0.4636(5) 0.6389(5) 0.3690(6)
C117_4 C 0.4252(7) 0.6417(7) 0.3418(8)
C119_4 C 0.4981(6) 0.6190(5) 0.3431(6)
H85_4 H 0.37741 0.695452 0.416015
H86_4 H 0.347354 0.678633 0.380442
H87_5 H 0.593643 0.882168 0.288086
H88_5 H 0.550184 0.903615 0.277933
H91_4 H 0.341393 0.773351 0.548827
H92_4 H 0.363853 0.818045 0.541108
H93_4 H 0.346612 0.701031 0.508764
H94_4 H 0.303355 0.711337 0.486986
H99_4 H 0.569594 0.818705 0.344261
H100_4 H 0.529369 0.816295 0.374883
H117_4 H 0.507869 0.670019 0.530033
H118_4 H 0.499489 0.62455 0.509444
H121_4 H 0.370115 0.810502 0.605752
H122_4 H 0.39408 0.766994 0.627693
H123_4 H 0.413367 0.8167 0.637994
H124_4 H 0.397682 0.740521 0.559871
H132_4 H 0.601663 0.792891 0.400332
H144_4 H 0.484443 0.79435 0.612439
H145_4 H 0.466492 0.744654 0.599918
H146_4 H 0.490175 0.775346 0.561895
H149_4 H 0.567391 0.816418 0.510906
H150_4 H 0.609946 0.796928 0.483377
H151_4 H 0.600916 0.850446 0.485082
H159_4 H 0.516866 0.772857 0.41955
H160_4 H 0.55993 0.750783 0.444186
H161_4 H 0.519924 0.772539 0.473765
H164_4 H 0.443896 0.727962 0.413314
H165_4 H 0.416966 0.685433 0.408062
H174_4 H 0.457212 0.666355 0.571918
H213_4 H 0.522091 0.604428 0.573784
H214_4 H 0.495631 0.620419 0.618425
H215_4 H 0.498717 0.567615 0.606143
H217_4 H 0.487542 0.589835 0.331113
H218_4 H 0.506031 0.639141 0.317858
H219_4 H 0.524874 0.614095 0.362201
H223_4 H 0.40028 0.655237 0.359164
H224_4 H 0.431774 0.66062 0.315256
H225_4 H 0.416458 0.611217 0.331793
H232_4 H 0.421332 0.559749 0.607905
H233_4 H 0.412654 0.612216 0.618884
H234_4 H 0.390006 0.589544 0.575047
H235_4 H 0.475941 0.701679 0.356923
Cu12_4 Cu 0.39072(7) 0.28005(6) 0.52664(7)
O40_4 O 0.4304(3) 0.2558(3) 0.4887(3)
O42_4 O 0.4956(4) 0.2337(4) 0.4875(4)
O44_4 O 0.3586(4) 0.3135(3) 0.5620(4)
O46_4 O 0.3062(6) 0.3565(6) 0.5650(5)
O62_4 O 0.3466(4) 0.2254(4) 0.5251(5)
N20_4 N 0.4275(4) 0.2576(4) 0.5692(4)
N22_4 N 0.3635(4) 0.3089(4) 0.4828(4)
C82_4 C 0.4645(5) 0.2483(5) 0.5053(4)
C84_4 C 0.4698(4) 0.2594(4) 0.5513(4)
C86_4 C 0.4908(5) 0.2997(4) 0.5611(4)
C88_4 C 0.4976(6) 0.3021(7) 0.6075(5)
C90_4 C 0.5317(5) 0.3023(6) 0.5374(8)
C92_4 C 0.3320(5) 0.3358(5) 0.5451(5)
C94_4 C 0.3280(5) 0.3353(5) 0.4970(5)
C96_4 C 0.3259(5) 0.3773(4) 0.4768(4)
C98_4 C 0.2942(6) 0.4072(6) 0.4935(7)
C100_4 C 0.3185(7) 0.3689(8) 0.4304(5)
H81_4 H 0.360955 0.200542 0.534868
H82_4 H 0.322849 0.231075 0.543074
H87_6 H 0.288086 0.593643 0.882168
H88_6 H 0.277933 0.550184 0.903615
H105_4 H 0.419792 0.228312 0.575789
H106_4 H 0.425934 0.274743 0.594973
H107_4 H 0.3527 0.288036 0.462585
H108_4 H 0.384239 0.327139 0.468735
H178_4 H 0.342561 0.34913 0.418739
H179_4 H 0.289025 0.354037 0.426389
H180_4 H 0.318758 0.397681 0.413746
H183_4 H 0.293987 0.434708 0.474818
H184_4 H 0.264121 0.393042 0.492727
H185_4 H 0.301904 0.415155 0.524855
H186_4 H 0.299911 0.319172 0.489472
H193_4 H 0.468395 0.299255 0.623145
H194_4 H 0.517737 0.277419 0.617043
H195_4 H 0.511483 0.331326 0.615171
H205_4 H 0.5465 0.331341 0.543985
H206_4 H 0.551568 0.277349 0.546808
H207_4 H 0.525761 0.300036 0.50476
H212_4 H 0.487649 0.235156 0.565421
C25_6 C 0.0317(5) 0.1977(6) 0.4626(8)
H35_6 H 0.0177375 0.222581 0.382957
H36_6 H 0.0114826 0.168674 0.384829
H37_6 H 0.0465 0.168659 0.456015
H38_6 H 0.0515676 0.222651 0.453192
H39_6 H 0.0257605 0.199964 0.49524
Cu3_6 Cu 0.89072(7) 0.21995(6) 0.47336(7)
O9_6 O 0.9304(3) 0.2442(3) 0.5113(3)
O10_6 O 0.9956(4) 0.2663(4) 0.5125(4)
O11_6 O 0.8586(4) 0.1865(3) 0.4380(4)
O12_6 O 0.8062(6) 0.1435(6) 0.4350(5)
O20_6 O 0.8466(4) 0.2746(4) 0.4749(5)
N5_6 N 0.9275(4) 0.2424(4) 0.4308(4)
N6_6 N 0.8635(4) 0.1911(4) 0.5172(4)
C21_6 C 0.9645(5) 0.2517(5) 0.4947(4)
C22_6 C 0.9698(4) 0.2406(4) 0.4487(4)
C23_6 C 0.9908(5) 0.2003(4) 0.4389(4)
C24_6 C 0.9976(6) 0.1979(7) 0.3925(5)
C26_6 C 0.8320(5) 0.1642(5) 0.4549(5)
C27_6 C 0.8280(5) 0.1647(5) 0.5030(5)
C28_6 C 0.8259(5) 0.1227(4) 0.5232(4)
C29_6 C 0.7942(6) 0.0928(6) 0.5065(7)
C30_6 C 0.8185(7) 0.1311(8) 0.5696(5)
H7_6 H 0.860955 0.299458 0.465132
H8_6 H 0.822849 0.268925 0.456926
H34_6 H 0.968395 0.200745 0.376855
H43_6 H 0.8527 0.211964 0.537415
H44_6 H 0.884239 0.172861 0.531265
H49_6 H 0.919792 0.271688 0.424211
H50_6 H 0.925934 0.225257 0.405027
H52_6 H 0.987649 0.264844 0.434579
H63_6 H 0.799911 0.180828 0.510528
H64_6 H 0.842561 0.15087 0.581261
H65_6 H 0.789025 0.145963 0.573611
H66_6 H 0.818758 0.102319 0.586254
H78_6 H 0.793987 0.0652919 0.525182
H79_6 H 0.764121 0.106958 0.507273
H80_6 H 0.801904 0.0848449 0.475145
H1_6 H 0.788086 0.906357 0.117832
H2_6 H 0.777933 0.949816 0.0963853
C9_4 C 0.9900(6) 0.9695(5) 0.8917(6)
C57_4 C 0.8917(6) 0.9900(6) 0.9695(5)
C58_4 C 0.9695(5) 0.8917(6) 0.9900(6)
H40_4 H 0.960898 0.979883 0.903989
H41_4 H 0.985134 0.95571 0.861835
H128_4 H 0.979883 0.903989 0.960898
H129_4 H 0.95571 0.861835 0.985134
H135_4 H 0.903989 0.960898 0.979883
H136_4 H 0.861835 0.985134 0.95571
loop_
_geom_bond_atom_site_label_1
_geom_bond_atom_site_label_2
_geom_bond_site_symmetry_1
_geom_bond_site_symmetry_2
Au2 Ag1 1_555 1_555
Au3 Ag4 1_555 1_555
Au4 Ag4 1_555 1_555
Ag1 Cl1 1_555 1_555
Ag4 S5 1_555 1_555
Ag6 Au4 1_555 1_555
Cu1 O1 1_555 1_555
Cu2 O5 1_555 1_555
S3 Au2 1_555 1_555
S4 Au2 1_555 1_555
S5 Au3 1_555 1_555
S7 Au4 1_555 1_555
O1 C1 1_555 1_555
O2 C1 1_555 1_555
O3 Cu1 1_555 1_555
O4 C6 1_555 1_555
O7 Cu2 1_555 1_555
O8 C16 1_555 1_555
O11 Cu3 1_555 1_555
O12 C26 1_555 1_555
O13 Cu4 1_555 1_555
O15 Cu4 1_555 1_555
O16 C36 1_555 1_555
O17 Ag4 1_555 1_555
O18 Cu1 1_555 1_555
O19 Cu2 1_555 1_555
O20 Cu3 1_555 1_555
N1 Cu1 1_555 1_555
N2 Cu1 1_555 1_555
N4 Cu2 1_555 1_555
N5 Cu3 1_555 1_555
N8 Cu4 1_555 1_555
C1 C2 1_555 1_555
C2 N1 1_555 1_555
C3 S1 1_555 1_555
C4 C3 1_555 1_555
C5 C3 1_555 1_555
C6 O3 1_555 1_555
C7 N2 1_555 1_555
C8 S4 1_555 1_555
C9 C8 1_555 1_555
C10 C8 1_555 1_555
C16 O7 1_555 1_555
C17 N4 1_555 1_555
C18 S3 1_555 1_555
C19 C18 1_555 1_555
C20 C18 1_555 1_555
C21 C22 1_555 1_555
C22 N5 1_555 1_555
C23 S5 1_555 1_555
C24 C23 1_555 1_555
C26 O11 1_555 1_555
C36 O15 1_555 1_555
C37 N8 1_555 1_555
C38 S7 1_555 1_555
C39 C38 1_555 1_555
C40 C38 1_555 1_555
Ag11 Au2 1_555 1_555
Ag15 S13 1_555 1_555
Ag16 Au6 1_555 1_555
Cu6 O21 1_555 1_555
S13 Au6 1_555 1_555
S23 Ag6 1_555 1_555
O21 C41 1_555 1_555
O24 C41 1_555 1_555
O33 C62 1_555 1_555
O50 C102 1_555 1_555
O53 C111 1_555 1_555
O58 Cu6 1_555 1_555
N9 Cu6 1_555 1_555
N13 Cu6 1_555 1_555
C41 C43 1_555 1_555
C43 N9 1_555 1_555
C45 S9 1_555 1_555
C47 C45 1_555 1_555
C49 C45 1_555 1_555
C54 N13 1_555 1_555
C62 C64 1_555 1_555
C64 N15 1_555 1_555
C66 S13 1_555 1_555
C68 C66 1_555 1_555
C70 C66 1_555 1_555
C104 N24 1_555 1_555
C106 S23 1_555 1_555
C108 C106 1_555 1_555
C110 C106 1_555 1_555
C111 O51 1_555 1_555
Ag1 S1 1_555 1_555
Ag1 S3 1_555 1_555
Ag2 S1 1_555 1_555
Ag2 S4 1_555 1_555
Ag4 S7 1_555 1_555
Ag6 S7 1_555 1_555
S4 Ag11 1_555 1_555
C2 C3 1_555 1_555
C6 C7 1_555 1_555
C7 C8 1_555 1_555
C16 C17 1_555 1_555
C17 C18 1_555 1_555
C22 C23 1_555 1_555
C36 C37 1_555 1_555
C37 C38 1_555 1_555
Ag11 S9 1_555 1_555
Ag16 S13 1_555 1_555
C43 C45 1_555 1_555
C64 C66 1_555 1_555
C102 C104 1_555 1_555
C104 C106 1_555 1_555
O18 H1 1_555 1_555
O18 H2 1_555 1_555
O19 H4 1_555 1_555
O17 H5 1_555 1_555
O17 H6 1_555 1_555
O20 H7 1_555 1_555
O20 H8 1_555 1_555
N1 H9 1_555 1_555
N1 H10 1_555 1_555
N2 H11 1_555 1_555
N2 H12 1_555 1_555
C19 H16 1_555 1_555
C19 H17 1_555 1_555
C19 H18 1_555 1_555
C5 H20 1_555 1_555
C5 H21 1_555 1_555
C20 H27 1_555 1_555
C20 H28 1_555 1_555
C20 H29 1_555 1_555
C10 H30 1_555 1_555
C10 H31 1_555 1_555
C10 H32 1_555 1_555
C24 H34 1_555 1_555
C9 H40 1_555 1_555
C9 H41 1_555 1_555
C9 H42 1_555 1_555
N8 H47 1_555 1_555
N8 H48 1_555 1_555
N5 H49 1_555 1_555
N5 H50 1_555 1_555
C17 H51 1_555 1_555
C22 H52 1_555 1_555
C2 H53 1_555 1_555
C4 H54 1_555 1_555
C4 H55 1_555 1_555
C4 H56 1_555 1_555
N4 H57 1_555 1_555
N4 H58 1_555 1_555
C7 H59 1_555 1_555
C40 H60 1_555 1_555
C40 H61 1_555 1_555
C40 H62 1_555 1_555
C37 H67 1_555 1_555
C39 H75 1_555 1_555
C39 H76 1_555 1_555
C39 H77 1_555 1_555
O58 H87 1_555 1_555
O58 H88 1_555 1_555
N9 H99 1_555 1_555
N9 H100 1_555 1_555
N13 H103 1_555 1_555
N13 H104 1_555 1_555
N15 H115 1_555 1_555
N15 H116 1_555 1_555
C58 H128 1_555 1_555
C58 H129 1_555 1_555
C43 H132 1_555 1_555
C64 H133 1_555 1_555
C54 H134 1_555 1_555
C57 H135 1_555 1_555
C57 H136 1_555 1_555
C57 H137 1_555 1_555
C59 H138 1_555 1_555
C59 H139 1_555 1_555
C68 H141 1_555 1_555
C68 H142 1_555 1_555
C68 H143 1_555 1_555
C49 H149 1_555 1_555
C49 H150 1_555 1_555
C49 H151 1_555 1_555
C47 H159 1_555 1_555
C47 H160 1_555 1_555
C47 H161 1_555 1_555
N24 H163 1_555 1_555
C70 H166 1_555 1_555
C70 H167 1_555 1_555
C70 H168 1_555 1_555
C104 H182 1_555 1_555
C110 H221 1_555 1_555
C110 H222 1_555 1_555
C108 H229 1_555 1_555
C108 H230 1_555 1_555
C108 H231 1_555 1_555
C94 N22 1_555 1_555
C96 S29 1_555 1_555
C98 C96 1_555 1_555
C100 C96 1_555 1_555
Ag22 S29 1_555 1_555
Ag23 S29 1_555 1_555
C94 C96 1_555 1_555
N22 H107 1_555 1_555
N22 H108 1_555 1_555
C100 H178 1_555 1_555
C100 H179 1_555 1_555
C100 H180 1_555 1_555
C98 H183 1_555 1_555
C98 H184 1_555 1_555
C94 H186 1_555 1_555
S2 Au1 1_555 1_555
O6 C11 1_555 1_555
O14 C31 1_555 1_555
C11 C12 1_555 1_555
C12 N3 1_555 1_555
C13 S2 1_555 1_555
C14 C13 1_555 1_555
C15 C13 1_555 1_555
C32 N7 1_555 1_555
C33 S6 1_555 1_555
C34 C33 1_555 1_555
C35 C33 1_555 1_555
Au5 Ag3 1_555 1_555
Au7 Ag7 1_555 1_555
Au9 Ag8 1_555 1_555
Au10 Ag17 1_555 1_555
Au13 Ag17 1_555 1_555
Ag7 Au8 1_555 1_555
Ag8 Au5 1_555 1_555
Ag10 Cl2 1_555 1_555
Ag13 Au1 1_555 1_555
Ag14 Cl2 1_555 1_555
Ag17 S20 1_555 1_555
Ag26 Au13 1_555 1_555
Cu5 O23 1_555 1_555
Cu8 O30 1_555 1_555
Cu10 O34 1_555 1_555
Cu13 O32 1_555 1_555
Cl4 Ag7 1_555 1_555
Cl5 Ag8 1_555 1_555
S11 Au7 1_555 1_555
S12 Ag3 1_555 1_555
S14 Au7 1_555 1_555
S15 Au8 1_555 1_555
S16 Au9 1_555 1_555
S18 Au9 1_555 1_555
S20 Au10 1_555 1_555
S22 Au10 1_555 1_555
S25 Au13 1_555 1_555
O26 Cu5 1_555 1_555
O28 C51 1_555 1_555
O29 C52 1_555 1_555
O30 C61 1_555 1_555
O32 C61 1_555 1_555
O34 C71 1_555 1_555
O35 Cu8 1_555 1_555
O37 C71 1_555 1_555
O38 C72 1_555 1_555
O44 Cu12 1_555 1_555
O46 C92 1_555 1_555
O47 Cu13 1_555 1_555
O49 C101 1_555 1_555
O55 Ag17 1_555 1_555
O57 Cu5 1_555 1_555
O59 Cu8 1_555 1_555
O62 Cu12 1_555 1_555
N11 Cu5 1_555 1_555
N12 Cu5 1_555 1_555
N14 Cu8 1_555 1_555
N16 Cu10 1_555 1_555
N17 Cu8 1_555 1_555
N20 Cu12 1_555 1_555
N23 Cu13 1_555 1_555
N25 Cu13 1_555 1_555
C51 O26 1_555 1_555
C52 O27 1_555 1_555
C53 N12 1_555 1_555
C55 S17 1_555 1_555
C56 S18 1_555 1_555
C60 C56 1_555 1_555
C61 C63 1_555 1_555
C63 N14 1_555 1_555
C65 S12 1_555 1_555
C67 C65 1_555 1_555
C69 C65 1_555 1_555
C71 C73 1_555 1_555
C72 O35 1_555 1_555
C73 N16 1_555 1_555
C74 N17 1_555 1_555
C75 S15 1_555 1_555
C76 S16 1_555 1_555
C77 C75 1_555 1_555
C78 C76 1_555 1_555
C79 C75 1_555 1_555
C80 C76 1_555 1_555
C82 C84 1_555 1_555
C84 N20 1_555 1_555
C86 S20 1_555 1_555
C88 C86 1_555 1_555
C90 C86 1_555 1_555
C92 O44 1_555 1_555
C101 O47 1_555 1_555
C103 N23 1_555 1_555
C105 S22 1_555 1_555
C107 C105 1_555 1_555
C109 C105 1_555 1_555
C113 N25 1_555 1_555
C115 S25 1_555 1_555
C117 C115 1_555 1_555
C119 C115 1_555 1_555
Ag3 Cl2 1_555 1_555
Ag3 S2 1_555 1_555
Cl2 Ag13 1_555 1_555
S2 Ag13 1_555 1_555
C12 C13 1_555 1_555
C31 C32 1_555 1_555
C32 C33 1_555 1_555
Au5 S12 1_555 1_555
Au7 Ag10 1_555 1_555
Au7 Ag14 1_555 1_555
Au8 Ag13 1_555 1_555
Au8 S17 1_555 1_555
Au9 Ag10 1_555 1_555
Au9 Ag14 1_555 1_555
Ag7 S11 1_555 1_555
Ag7 S15 1_555 1_555
Ag8 S16 1_555 1_555
Ag10 S11 1_555 1_555
Ag10 S17 1_555 1_555
Ag10 S18 1_555 1_555
Ag13 S14 1_555 1_555
Ag13 S15 1_555 1_555
Ag14 S12 1_555 1_555
Ag14 S14 1_555 1_555
Ag14 S16 1_555 1_555
Ag17 S25 1_555 1_555
Ag26 S22 1_555 1_555
Ag26 S25 1_555 1_555
C51 C53 1_555 1_555
C53 C55 1_555 1_555
C63 C65 1_555 1_555
C72 C74 1_555 1_555
C73 C75 1_555 1_555
C74 C76 1_555 1_555
C84 C86 1_555 1_555
C101 C103 1_555 1_555
C103 C105 1_555 1_555
C113 C115 1_555 1_555
C14 H13 1_555 1_555
C14 H14 1_555 1_555
C14 H15 1_555 1_555
C15 H22 1_555 1_555
C15 H23 1_555 1_555
C15 H24 1_555 1_555
N7 H25 1_555 1_555
N7 H26 1_555 1_555
C12 H33 1_555 1_555
C25 H37 1_555 1_555
C25 H38 1_555 1_555
C25 H39 1_555 1_555
N3 H45 1_555 1_555
N3 H46 1_555 1_555
C32 H68 1_555 1_555
C35 H69 1_555 1_555
C35 H70 1_555 1_555
C35 H71 1_555 1_555
C34 H72 1_555 1_555
C34 H73 1_555 1_555
C34 H74 1_555 1_555
O62 H81 1_555 1_555
O62 H82 1_555 1_555
O55 H85 1_555 1_555
O55 H86 1_555 1_555
N14 H91 1_555 1_555
N14 H92 1_555 1_555
O59 H93 1_555 1_555
O59 H94 1_555 1_555
N12 H95 1_555 1_555
N12 H96 1_555 1_555
N20 H105 1_555 1_555
N20 H106 1_555 1_555
N16 H113 1_555 1_555
N16 H114 1_555 1_555
N23 H118 1_555 1_555
N17 H119 1_555 1_555
N17 H120 1_555 1_555
C67 H121 1_555 1_555
C67 H122 1_555 1_555
C67 H123 1_555 1_555
C63 H124 1_555 1_555
C60 H125 1_555 1_555
C60 H126 1_555 1_555
C60 H127 1_555 1_555
C53 H131 1_555 1_555
C69 H144 1_555 1_555
C69 H145 1_555 1_555
C69 H146 1_555 1_555
N25 H164 1_555 1_555
N25 H165 1_555 1_555
C73 H169 1_555 1_555
C74 H170 1_555 1_555
C103 H174 1_555 1_555
C80 H187 1_555 1_555
C80 H188 1_555 1_555
C80 H189 1_555 1_555
C77 H190 1_555 1_555
C77 H191 1_555 1_555
C77 H192 1_555 1_555
C88 H193 1_555 1_555
C88 H194 1_555 1_555
C88 H195 1_555 1_555
C78 H199 1_555 1_555
C78 H200 1_555 1_555
C78 H201 1_555 1_555
C90 H205 1_555 1_555
C90 H206 1_555 1_555
C90 H207 1_555 1_555
C79 H208 1_555 1_555
C79 H209 1_555 1_555
C79 H210 1_555 1_555
C84 H212 1_555 1_555
C109 H214 1_555 1_555
C109 H215 1_555 1_555
C119 H217 1_555 1_555
C117 H223 1_555 1_555
C117 H224 1_555 1_555
C117 H225 1_555 1_555
C107 H232 1_555 1_555
C107 H233 1_555 1_555
C107 H234 1_555 1_555
C113 H235 1_555 1_555
Cl3 Ag5 1_555 1_555
C27 N6 1_555 1_555
C28 S8 1_555 1_555
C29 C28 1_555 1_555
C30 C28 1_555 1_555
Au14 Ag18 1_555 1_555
Ag18 Au11 1_555 1_555
Ag20 Cl3 1_555 1_555
Ag25 Cl3 1_555 1_555
Cu9 O31 1_555 1_555
S21 Au11 1_555 1_555
S26 Au14 1_555 1_555
S28 Ag5 1_555 1_555
S30 Au14 1_555 1_555
O36 Cu9 1_555 1_555
O48 Cu14 1_555 1_555
O56 Ag18 1_555 1_555
O60 Cu9 1_555 1_555
N18 Cu9 1_555 1_555
N26 Cu14 1_555 1_555
C93 N21 1_555 1_555
C95 S28 1_555 1_555
C97 C95 1_555 1_555
C99 C95 1_555 1_555
C114 N26 1_555 1_555
C116 S26 1_555 1_555
C118 C116 1_555 1_555
C120 C116 1_555 1_555
Ag5 S8 1_555 1_555
Cl3 Ag21 1_555 1_555
S8 Ag21 1_555 1_555
C27 C28 1_555 1_555
Au11 Ag21 1_555 1_555
Au14 Ag20 1_555 1_555
Au14 Ag25 1_555 1_555
Ag18 S21 1_555 1_555
Ag18 S26 1_555 1_555
Ag20 S28 1_555 1_555
Ag20 S30 1_555 1_555
Ag21 S21 1_555 1_555
Ag21 S30 1_555 1_555
Ag25 S26 1_555 1_555
C93 C95 1_555 1_555
C114 C116 1_555 1_555
N6 H43 1_555 1_555
N6 H44 1_555 1_555
C27 H63 1_555 1_555
C30 H64 1_555 1_555
C30 H65 1_555 1_555
C30 H66 1_555 1_555
C29 H78 1_555 1_555
C29 H79 1_555 1_555
O56 H97 1_555 1_555
O56 H98 1_555 1_555
O60 H102 1_555 1_555
N21 H111 1_555 1_555
N21 H112 1_555 1_555
N26 H147 1_555 1_555
N26 H148 1_555 1_555
C97 H171 1_555 1_555
C97 H172 1_555 1_555
C93 H181 1_555 1_555
C99 H196 1_555 1_555
C99 H197 1_555 1_555
C99 H198 1_555 1_555
C114 H216 1_555 1_555
C120 H226 1_555 1_555
C118 H236 1_555 1_555
C118 H237 1_555 1_555
C118 H238 1_555 1_555
Au12 Ag19 1_555 1_555
Ag19 Au15 1_555 1_555
Cu7 O22 1_555 1_555
S19 Au12 1_555 1_555
S24 Au12 1_555 1_555
S27 Au15 1_555 1_555
O22 C42 1_555 1_555
O25 C42 1_555 1_555
O43 Cu11 1_555 1_555
O45 C91 1_555 1_555
O54 C112 1_555 1_555
O61 Cu11 1_555 1_555
N10 Cu7 1_555 1_555
N19 Cu11 1_555 1_555
C42 C44 1_555 1_555
C44 N10 1_555 1_555
C46 S10 1_555 1_555
C48 C46 1_555 1_555
C50 C46 1_555 1_555
C81 C83 1_555 1_555
C83 N19 1_555 1_555
C85 S19 1_555 1_555
C87 C85 1_555 1_555
C89 C85 1_555 1_555
C91 O43 1_555 1_555
C112 O52 1_555 1_555
Au15 Ag24 1_555 1_555
Ag12 S10 1_555 1_555
Ag19 S19 1_555 1_555
Ag19 S27 1_555 1_555
Ag24 S24 1_555 1_555
Ag24 S27 1_555 1_555
C44 C46 1_555 1_555
C83 C85 1_555 1_555
N10 H83 1_555 1_555
N10 H84 1_555 1_555
O61 H89 1_555 1_555
O61 H90 1_555 1_555
N19 H109 1_555 1_555
N19 H110 1_555 1_555
C50 H153 1_555 1_555
C50 H154 1_555 1_555
C44 H155 1_555 1_555
C48 H156 1_555 1_555
C48 H157 1_555 1_555
C48 H158 1_555 1_555
C89 H175 1_555 1_555
C89 H176 1_555 1_555
C89 H177 1_555 1_555
C87 H202 1_555 1_555
C87 H203 1_555 1_555
C87 H204 1_555 1_555
C83 H211 1_555 1_555
C94_2 N22_2 1_555 1_555
C96_2 S29_2 1_555 1_555
C98_2 C96_2 1_555 1_555
C100_2 C96_2 1_555 1_555
Ag22_2 S29_2 1_555 1_555
Ag23_2 S29_2 1_555 1_555
C94_2 C96_2 1_555 1_555
N22_2 H107_2 1_555 1_555
N22_2 H108_2 1_555 1_555
C100_2 H178_2 1_555 1_555
C100_2 H179_2 1_555 1_555
C100_2 H180_2 1_555 1_555
C98_2 H183_2 1_555 1_555
C98_2 H184_2 1_555 1_555
C94_2 H186_2 1_555 1_555
Au2_2 Ag1_2 1_555 1_555
Au3_2 Ag4_2 1_555 1_555
Au4_2 Ag4_2 1_555 1_555
Ag1_2 Cl1_2 1_555 1_555
Ag4_2 S5_2 1_555 1_555
Ag6_2 Au4_2 1_555 1_555
Cu1_2 O1_2 1_555 1_555
Cu2_2 O5_2 1_555 1_555
S3_2 Au2_2 1_555 1_555
S4_2 Au2_2 1_555 1_555
S5_2 Au3_2 1_555 1_555
S7_2 Au4_2 1_555 1_555
O1_2 C1_2 1_555 1_555
O2_2 C1_2 1_555 1_555
O3_2 Cu1_2 1_555 1_555
O4_2 C6_2 1_555 1_555
O7_2 Cu2_2 1_555 1_555
O8_2 C16_2 1_555 1_555
O11_2 Cu3_2 1_555 1_555
O12_2 C26_2 1_555 1_555
O13_2 Cu4_2 1_555 1_555
O15_2 Cu4_2 1_555 1_555
O16_2 C36_2 1_555 1_555
O17_2 Ag4_2 1_555 1_555
O18_2 Cu1_2 1_555 1_555
O19_2 Cu2_2 1_555 1_555
O20_2 Cu3_2 1_555 1_555
N1_2 Cu1_2 1_555 1_555
N2_2 Cu1_2 1_555 1_555
N4_2 Cu2_2 1_555 1_555
N5_2 Cu3_2 1_555 1_555
N8_2 Cu4_2 1_555 1_555
C1_2 C2_2 1_555 1_555
C2_2 N1_2 1_555 1_555
C3_2 S1_2 1_555 1_555
C4_2 C3_2 1_555 1_555
C5_2 C3_2 1_555 1_555
C6_2 O3_2 1_555 1_555
C7_2 N2_2 1_555 1_555
C8_2 S4_2 1_555 1_555
C9_2 C8_2 1_555 1_555
C10_2 C8_2 1_555 1_555
C16_2 O7_2 1_555 1_555
C17_2 N4_2 1_555 1_555
C18_2 S3_2 1_555 1_555
C19_2 C18_2 1_555 1_555
C20_2 C18_2 1_555 1_555
C21_2 C22_2 1_555 1_555
C22_2 N5_2 1_555 1_555
C23_2 S5_2 1_555 1_555
C24_2 C23_2 1_555 1_555
C26_2 O11_2 1_555 1_555
C36_2 O15_2 1_555 1_555
C37_2 N8_2 1_555 1_555
C38_2 S7_2 1_555 1_555
C39_2 C38_2 1_555 1_555
C40_2 C38_2 1_555 1_555
Ag11_2 Au2_2 1_555 1_555
Ag16 S13_2 1_555 1_555
Ag16_2 Au6_2 1_555 1_555
Cu6_2 O21_2 1_555 1_555
S13_2 Au6_2 1_555 1_555
S23_2 Ag6_2 1_555 1_555
O21_2 C41_2 1_555 1_555
O24_2 C41_2 1_555 1_555
O33_2 C62_2 1_555 1_555
O50_2 C102_2 1_555 1_555
O53_2 C111_2 1_555 1_555
O58_2 Cu6_2 1_555 1_555
N9_2 Cu6_2 1_555 1_555
N13_2 Cu6_2 1_555 1_555
C41_2 C43_2 1_555 1_555
C43_2 N9_2 1_555 1_555
C45_2 S9_2 1_555 1_555
C47_2 C45_2 1_555 1_555
C49_2 C45_2 1_555 1_555
C54_2 N13_2 1_555 1_555
C62_2 C64_2 1_555 1_555
C64_2 N15_2 1_555 1_555
C66_2 S13_2 1_555 1_555
C68_2 C66_2 1_555 1_555
C70_2 C66_2 1_555 1_555
C104_2 N24_2 1_555 1_555
C106_2 S23_2 1_555 1_555
C108_2 C106_2 1_555 1_555
C110_2 C106_2 1_555 1_555
C111_2 O51_2 1_555 1_555
Ag1_2 S1_2 1_555 1_555
Ag1_2 S3_2 1_555 1_555
Ag2_2 S1_2 1_555 1_555
Ag2_2 S4_2 1_555 1_555
Ag4_2 S7_2 1_555 1_555
Ag6_2 S7_2 1_555 1_555
S4_2 Ag11_2 1_555 1_555
C2_2 C3_2 1_555 1_555
C6_2 C7_2 1_555 1_555
C7_2 C8_2 1_555 1_555
C16_2 C17_2 1_555 1_555
C17_2 C18_2 1_555 1_555
C22_2 C23_2 1_555 1_555
C36_2 C37_2 1_555 1_555
C37_2 C38_2 1_555 1_555
Ag11_2 S9_2 1_555 1_555
Ag16_2 S13_2 1_555 1_555
C43_2 C45_2 1_555 1_555
C64_2 C66_2 1_555 1_555
C102_2 C104_2 1_555 1_555
C104_2 C106_2 1_555 1_555
O18_2 H1_2 1_555 1_555
O18_2 H2_2 1_555 1_555
O19_2 H4_2 1_555 1_555
O17_2 H5_2 1_555 1_555
O17_2 H6_2 1_555 1_555
O20_2 H7_2 1_555 1_555
O20_2 H8_2 1_555 1_555
N1_2 H9_2 1_555 1_555
N1_2 H10_2 1_555 1_555
N2_2 H11_2 1_555 1_555
N2_2 H12_2 1_555 1_555
C19_2 H16_2 1_555 1_555
C19_2 H17_2 1_555 1_555
C19_2 H18_2 1_555 1_555
C5_2 H20_2 1_555 1_555
C5_2 H21_2 1_555 1_555
C20_2 H27_2 1_555 1_555
C20_2 H28_2 1_555 1_555
C20_2 H29_2 1_555 1_555
C10_2 H30_2 1_555 1_555
C10_2 H31_2 1_555 1_555
C10_2 H32_2 1_555 1_555
C24_2 H34_2 1_555 1_555
C9_2 H40_2 1_555 1_555
C9_2 H41_2 1_555 1_555
C9_2 H42_2 1_555 1_555
N8_2 H47_2 1_555 1_555
N8_2 H48_2 1_555 1_555
N5_2 H49_2 1_555 1_555
N5_2 H50_2 1_555 1_555
C17_2 H51_2 1_555 1_555
C22_2 H52_2 1_555 1_555
C2_2 H53_2 1_555 1_555
C4_2 H54_2 1_555 1_555
C4_2 H55_2 1_555 1_555
C4_2 H56_2 1_555 1_555
N4_2 H57_2 1_555 1_555
N4_2 H58_2 1_555 1_555
C7_2 H59_2 1_555 1_555
C40_2 H60_2 1_555 1_555
C40_2 H61_2 1_555 1_555
C40_2 H62_2 1_555 1_555
C37_2 H67_2 1_555 1_555
C39_2 H75_2 1_555 1_555
C39_2 H76_2 1_555 1_555
C39_2 H77_2 1_555 1_555
O58_2 H87_2 1_555 1_555
O58_2 H88_2 1_555 1_555
N9_2 H99_2 1_555 1_555
N9_2 H100_2 1_555 1_555
N13_2 H103_2 1_555 1_555
N13_2 H104_2 1_555 1_555
N15_2 H115_2 1_555 1_555
N15_2 H116_2 1_555 1_555
C58_2 H128_2 1_555 1_555
C58_2 H129_2 1_555 1_555
C43_2 H132_2 1_555 1_555
C64_2 H133_2 1_555 1_555
C54_2 H134_2 1_555 1_555
C57_2 H135_2 1_555 1_555
C57_2 H136_2 1_555 1_555
C57_2 H137_2 1_555 1_555
C59_2 H138_2 1_555 1_555
C59_2 H139_2 1_555 1_555
C68_2 H141_2 1_555 1_555
C68_2 H142_2 1_555 1_555
C68_2 H143_2 1_555 1_555
C49_2 H149_2 1_555 1_555
C49_2 H150_2 1_555 1_555
C49_2 H151_2 1_555 1_555
C47_2 H159_2 1_555 1_555
C47_2 H160_2 1_555 1_555
C47_2 H161_2 1_555 1_555
N24_2 H163_2 1_555 1_555
C70_2 H166_2 1_555 1_555
C70_2 H167_2 1_555 1_555
C70_2 H168_2 1_555 1_555
C104_2 H182_2 1_555 1_555
C110_2 H221_2 1_555 1_555
C110_2 H222_2 1_555 1_555
C108_2 H229_2 1_555 1_555
C108_2 H230_2 1_555 1_555
C108_2 H231_2 1_555 1_555
S2_2 Au1_2 1_555 1_555
O6_2 C11_2 1_555 1_555
O14_2 C31_2 1_555 1_555
C11_2 C12_2 1_555 1_555
C12_2 N3_2 1_555 1_555
C13_2 S2_2 1_555 1_555
C14_2 C13_2 1_555 1_555
C15_2 C13_2 1_555 1_555
C32_2 N7_2 1_555 1_555
C33_2 S6_2 1_555 1_555
C34_2 C33_2 1_555 1_555
C35_2 C33_2 1_555 1_555
Au5_2 Ag3_2 1_555 1_555
Au7_2 Ag7_2 1_555 1_555
Au9_2 Ag8_2 1_555 1_555
Au10_2 Ag17_2 1_555 1_555
Au13_2 Ag17_2 1_555 1_555
Ag7_2 Au8_2 1_555 1_555
Ag8_2 Au5_2 1_555 1_555
Ag10_2 Cl2_2 1_555 1_555
Ag13_2 Au1_2 1_555 1_555
Ag14_2 Cl2_2 1_555 1_555
Ag17_2 S20_2 1_555 1_555
Ag26_2 Au13_2 1_555 1_555
Cu5_2 O23_2 1_555 1_555
Cu8_2 O30_2 1_555 1_555
Cu10_2 O34_2 1_555 1_555
Cu13_2 O32_2 1_555 1_555
Cl4_2 Ag7_2 1_555 1_555
Cl5_2 Ag8_2 1_555 1_555
S11_2 Au7_2 1_555 1_555
S12_2 Ag3_2 1_555 1_555
S14_2 Au7_2 1_555 1_555
S15_2 Au8_2 1_555 1_555
S16_2 Au9_2 1_555 1_555
S18_2 Au9_2 1_555 1_555
S20_2 Au10_2 1_555 1_555
S22_2 Au10_2 1_555 1_555
S25_2 Au13_2 1_555 1_555
O26_2 Cu5_2 1_555 1_555
O28_2 C51_2 1_555 1_555
O29_2 C52_2 1_555 1_555
O30_2 C61_2 1_555 1_555
O32_2 C61_2 1_555 1_555
O34_2 C71_2 1_555 1_555
O35_2 Cu8_2 1_555 1_555
O37_2 C71_2 1_555 1_555
O38_2 C72_2 1_555 1_555
O44_2 Cu12_2 1_555 1_555
O46_2 C92_2 1_555 1_555
O47_2 Cu13_2 1_555 1_555
O49_2 C101_2 1_555 1_555
O55_2 Ag17_2 1_555 1_555
O57_2 Cu5_2 1_555 1_555
O59_2 Cu8_2 1_555 1_555
O62_2 Cu12_2 1_555 1_555
N11_2 Cu5_2 1_555 1_555
N12_2 Cu5_2 1_555 1_555
N14_2 Cu8_2 1_555 1_555
N16_2 Cu10_2 1_555 1_555
N17_2 Cu8_2 1_555 1_555
N20_2 Cu12_2 1_555 1_555
N23_2 Cu13_2 1_555 1_555
N25_2 Cu13_2 1_555 1_555
C51_2 O26_2 1_555 1_555
C52_2 O27_2 1_555 1_555
C53_2 N12_2 1_555 1_555
C55_2 S17_2 1_555 1_555
C56_2 S18_2 1_555 1_555
C60_2 C56_2 1_555 1_555
C61_2 C63_2 1_555 1_555
C63_2 N14_2 1_555 1_555
C65_2 S12_2 1_555 1_555
C67_2 C65_2 1_555 1_555
C69_2 C65_2 1_555 1_555
C71_2 C73_2 1_555 1_555
C72_2 O35_2 1_555 1_555
C73_2 N16_2 1_555 1_555
C74_2 N17_2 1_555 1_555
C75_2 S15_2 1_555 1_555
C76_2 S16_2 1_555 1_555
C77_2 C75_2 1_555 1_555
C78_2 C76_2 1_555 1_555
C79_2 C75_2 1_555 1_555
C80_2 C76_2 1_555 1_555
C82_2 C84_2 1_555 1_555
C84_2 N20_2 1_555 1_555
C86_2 S20_2 1_555 1_555
C88_2 C86_2 1_555 1_555
C90_2 C86_2 1_555 1_555
C92_2 O44_2 1_555 1_555
C101_2 O47_2 1_555 1_555
C103_2 N23_2 1_555 1_555
C105_2 S22_2 1_555 1_555
C107_2 C105_2 1_555 1_555
C109_2 C105_2 1_555 1_555
C113_2 N25_2 1_555 1_555
C115_2 S25_2 1_555 1_555
C117_2 C115_2 1_555 1_555
C119_2 C115_2 1_555 1_555
Ag3_2 Cl2_2 1_555 1_555
Ag3_2 S2_2 1_555 1_555
Cl2_2 Ag13_2 1_555 1_555
S2_2 Ag13_2 1_555 1_555
C12_2 C13_2 1_555 1_555
C31_2 C32_2 1_555 1_555
C32_2 C33_2 1_555 1_555
Au5_2 S12_2 1_555 1_555
Au7_2 Ag10_2 1_555 1_555
Au7_2 Ag14_2 1_555 1_555
Au8_2 Ag13_2 1_555 1_555
Au8_2 S17_2 1_555 1_555
Au9_2 Ag10_2 1_555 1_555
Au9_2 Ag14_2 1_555 1_555
Ag7_2 S11_2 1_555 1_555
Ag7_2 S15_2 1_555 1_555
Ag8_2 S16_2 1_555 1_555
Ag10_2 S11_2 1_555 1_555
Ag10_2 S17_2 1_555 1_555
Ag10_2 S18_2 1_555 1_555
Ag13_2 S14_2 1_555 1_555
Ag13_2 S15_2 1_555 1_555
Ag14_2 S12_2 1_555 1_555
Ag14_2 S14_2 1_555 1_555
Ag14_2 S16_2 1_555 1_555
Ag17_2 S25_2 1_555 1_555
Ag26_2 S22_2 1_555 1_555
Ag26_2 S25_2 1_555 1_555
C51_2 C53_2 1_555 1_555
C53_2 C55_2 1_555 1_555
C63_2 C65_2 1_555 1_555
C72_2 C74_2 1_555 1_555
C73_2 C75_2 1_555 1_555
C74_2 C76_2 1_555 1_555
C84_2 C86_2 1_555 1_555
C101_2 C103_2 1_555 1_555
C103_2 C105_2 1_555 1_555
C113_2 C115_2 1_555 1_555
C14_2 H13_2 1_555 1_555
C14_2 H14_2 1_555 1_555
C14_2 H15_2 1_555 1_555
C15_2 H22_2 1_555 1_555
C15_2 H23_2 1_555 1_555
C15_2 H24_2 1_555 1_555
N7_2 H25_2 1_555 1_555
N7_2 H26_2 1_555 1_555
C12_2 H33_2 1_555 1_555
C25_2 H37_2 1_555 1_555
C25_2 H38_2 1_555 1_555
C25_2 H39_2 1_555 1_555
N3_2 H45_2 1_555 1_555
N3_2 H46_2 1_555 1_555
C32_2 H68_2 1_555 1_555
C35_2 H69_2 1_555 1_555
C35_2 H70_2 1_555 1_555
C35_2 H71_2 1_555 1_555
C34_2 H72_2 1_555 1_555
C34_2 H73_2 1_555 1_555
C34_2 H74_2 1_555 1_555
O62_2 H81_2 1_555 1_555
O62_2 H82_2 1_555 1_555
O55_2 H85_2 1_555 1_555
O55_2 H86_2 1_555 1_555
N14_2 H91_2 1_555 1_555
N14_2 H92_2 1_555 1_555
O59_2 H93_2 1_555 1_555
O59_2 H94_2 1_555 1_555
N12_2 H95_2 1_555 1_555
N12_2 H96_2 1_555 1_555
N20_2 H105_2 1_555 1_555
N20_2 H106_2 1_555 1_555
N16_2 H113_2 1_555 1_555
N16_2 H114_2 1_555 1_555
N23_2 H118_2 1_555 1_555
N17_2 H119_2 1_555 1_555
N17_2 H120_2 1_555 1_555
C67_2 H121_2 1_555 1_555
C67_2 H122_2 1_555 1_555
C67_2 H123_2 1_555 1_555
C63_2 H124_2 1_555 1_555
C60_2 H125_2 1_555 1_555
C60_2 H126_2 1_555 1_555
C60_2 H127_2 1_555 1_555
C53_2 H131_2 1_555 1_555
C69_2 H144_2 1_555 1_555
C69_2 H145_2 1_555 1_555
C69_2 H146_2 1_555 1_555
N25_2 H164_2 1_555 1_555
N25_2 H165_2 1_555 1_555
C73_2 H169_2 1_555 1_555
C74_2 H170_2 1_555 1_555
C103_2 H174_2 1_555 1_555
C80_2 H187_2 1_555 1_555
C80_2 H188_2 1_555 1_555
C80_2 H189_2 1_555 1_555
C77_2 H190_2 1_555 1_555
C77_2 H191_2 1_555 1_555
C77_2 H192_2 1_555 1_555
C88_2 H193_2 1_555 1_555
C88_2 H194_2 1_555 1_555
C88_2 H195_2 1_555 1_555
C78_2 H199_2 1_555 1_555
C78_2 H200_2 1_555 1_555
C78_2 H201_2 1_555 1_555
C90_2 H205_2 1_555 1_555
C90_2 H206_2 1_555 1_555
C90_2 H207_2 1_555 1_555
C79_2 H208_2 1_555 1_555
C79_2 H209_2 1_555 1_555
C79_2 H210_2 1_555 1_555
C84_2 H212_2 1_555 1_555
C109_2 H214_2 1_555 1_555
C109_2 H215_2 1_555 1_555
C119_2 H217_2 1_555 1_555
C117_2 H223_2 1_555 1_555
C117_2 H224_2 1_555 1_555
C117_2 H225_2 1_555 1_555
C107_2 H232_2 1_555 1_555
C107_2 H233_2 1_555 1_555
C107_2 H234_2 1_555 1_555
C113_2 H235_2 1_555 1_555
Cl3_2 Ag23 1_555 1_555
C27_2 N6_2 1_555 1_555
C28_2 S8_2 1_555 1_555
C29_2 C28_2 1_555 1_555
C30_2 C28_2 1_555 1_555
Au14_2 Ag18_2 1_555 1_555
Ag18_2 Au11_2 1_555 1_555
Ag22 Cl3_2 1_555 1_555
Ag27 Cl3_2 1_555 1_555
Cu9_2 O31_2 1_555 1_555
S21_2 Au11_2 1_555 1_555
S26_2 Au14_2 1_555 1_555
S30_2 Au14_2 1_555 1_555
O36_2 Cu9_2 1_555 1_555
O48_2 Cu14_2 1_555 1_555
O56_2 Ag18_2 1_555 1_555
O60_2 Cu9_2 1_555 1_555
N18_2 Cu9_2 1_555 1_555
N26_2 Cu14_2 1_555 1_555
C114_2 N26_2 1_555 1_555
C116_2 S26_2 1_555 1_555
C118_2 C116_2 1_555 1_555
C120_2 C116_2 1_555 1_555
Ag23 S8_2 1_555 1_555
Cl3_2 Ag21_2 1_555 1_555
S8_2 Ag21_2 1_555 1_555
C27_2 C28_2 1_555 1_555
Au11_2 Ag21_2 1_555 1_555
Au14_2 Ag22 1_555 1_555
Au14_2 Ag27 1_555 1_555
Ag18_2 S21_2 1_555 1_555
Ag18_2 S26_2 1_555 1_555
Ag22 S30_2 1_555 1_555
Ag21_2 S21_2 1_555 1_555
Ag21_2 S30_2 1_555 1_555
Ag27 S26_2 1_555 1_555
C114_2 C116_2 1_555 1_555
N6_2 H43_2 1_555 1_555
N6_2 H44_2 1_555 1_555
C27_2 H63_2 1_555 1_555
C30_2 H64_2 1_555 1_555
C30_2 H65_2 1_555 1_555
C30_2 H66_2 1_555 1_555
C29_2 H78_2 1_555 1_555
C29_2 H79_2 1_555 1_555
O56_2 H97_2 1_555 1_555
O56_2 H98_2 1_555 1_555
O60_2 H102_2 1_555 1_555
N26_2 H147_2 1_555 1_555
N26_2 H148_2 1_555 1_555
C114_2 H216_2 1_555 1_555
C120_2 H226_2 1_555 1_555
C118_2 H236_2 1_555 1_555
C118_2 H237_2 1_555 1_555
C118_2 H238_2 1_555 1_555
Cu7_2 O22_2 1_555 1_555
O22_2 C42_2 1_555 1_555
O25_2 C42_2 1_555 1_555
O54_2 C112_2 1_555 1_555
N10_2 Cu7_2 1_555 1_555
C42_2 C44_2 1_555 1_555
C44_2 N10_2 1_555 1_555
C46_2 S10_2 1_555 1_555
C48_2 C46_2 1_555 1_555
C50_2 C46_2 1_555 1_555
C112_2 O52_2 1_555 1_555
Ag12_2 S10_2 1_555 1_555
C44_2 C46_2 1_555 1_555
N10_2 H83_2 1_555 1_555
N10_2 H84_2 1_555 1_555
C50_2 H153_2 1_555 1_555
C50_2 H154_2 1_555 1_555
C44_2 H155_2 1_555 1_555
C48_2 H156_2 1_555 1_555
C48_2 H157_2 1_555 1_555
C48_2 H158_2 1_555 1_555
Au2_3 Ag1_3 1_555 1_555
Au3_3 Ag4_3 1_555 1_555
Au4_3 Ag4_3 1_555 1_555
Ag1_3 Cl1_3 1_555 1_555
Ag4_3 S5_3 1_555 1_555
Ag6_3 Au4_3 1_555 1_555
Cu1_3 O1_3 1_555 1_555
Cu2_3 O5_3 1_555 1_555
S3_3 Au2_3 1_555 1_555
S4_3 Au2_3 1_555 1_555
S5_3 Au3_3 1_555 1_555
S7_3 Au4_3 1_555 1_555
O1_3 C1_3 1_555 1_555
O2_3 C1_3 1_555 1_555
O3_3 Cu1_3 1_555 1_555
O4_3 C6_3 1_555 1_555
O7_3 Cu2_3 1_555 1_555
O8_3 C16_3 1_555 1_555
O11_3 Cu3_3 1_555 1_555
O12_3 C26_3 1_555 1_555
O13_3 Cu4_3 1_555 1_555
O15_3 Cu4_3 1_555 1_555
O16_3 C36_3 1_555 1_555
O17_3 Ag4_3 1_555 1_555
O18_3 Cu1_3 1_555 1_555
O19_3 Cu2_3 1_555 1_555
O20_3 Cu3_3 1_555 1_555
N1_3 Cu1_3 1_555 1_555
N2_3 Cu1_3 1_555 1_555
N4_3 Cu2_3 1_555 1_555
N5_3 Cu3_3 1_555 1_555
N8_3 Cu4_3 1_555 1_555
C1_3 C2_3 1_555 1_555
C2_3 N1_3 1_555 1_555
C3_3 S1_3 1_555 1_555
C4_3 C3_3 1_555 1_555
C5_3 C3_3 1_555 1_555
C6_3 O3_3 1_555 1_555
C7_3 N2_3 1_555 1_555
C8_3 S4_3 1_555 1_555
C9_3 C8_3 1_555 1_555
C10_3 C8_3 1_555 1_555
C16_3 O7_3 1_555 1_555
C17_3 N4_3 1_555 1_555
C18_3 S3_3 1_555 1_555
C19_3 C18_3 1_555 1_555
C20_3 C18_3 1_555 1_555
C21_3 C22_3 1_555 1_555
C22_3 N5_3 1_555 1_555
C23_3 S5_3 1_555 1_555
C24_3 C23_3 1_555 1_555
C26_3 O11_3 1_555 1_555
C36_3 O15_3 1_555 1_555
C37_3 N8_3 1_555 1_555
C38_3 S7_3 1_555 1_555
C39_3 C38_3 1_555 1_555
C40_3 C38_3 1_555 1_555
Ag11_3 Au2_3 1_555 1_555
Ag16_2 S13_3 1_555 1_555
Ag15 Au6_3 1_555 1_555
Cu6_3 O21_3 1_555 1_555
S13_3 Au6_3 1_555 1_555
S23_3 Ag6_3 1_555 1_555
O21_3 C41_3 1_555 1_555
O24_3 C41_3 1_555 1_555
O33_3 C62_3 1_555 1_555
O50_3 C102_3 1_555 1_555
O53_3 C111_3 1_555 1_555
O58_3 Cu6_3 1_555 1_555
N9_3 Cu6_3 1_555 1_555
N13_3 Cu6_3 1_555 1_555
C41_3 C43_3 1_555 1_555
C43_3 N9_3 1_555 1_555
C45_3 S9_3 1_555 1_555
C47_3 C45_3 1_555 1_555
C49_3 C45_3 1_555 1_555
C54_3 N13_3 1_555 1_555
C62_3 C64_3 1_555 1_555
C64_3 N15_3 1_555 1_555
C66_3 S13_3 1_555 1_555
C68_3 C66_3 1_555 1_555
C70_3 C66_3 1_555 1_555
C104_3 N24_3 1_555 1_555
C106_3 S23_3 1_555 1_555
C108_3 C106_3 1_555 1_555
C110_3 C106_3 1_555 1_555
C111_3 O51_3 1_555 1_555
Ag1_3 S1_3 1_555 1_555
Ag1_3 S3_3 1_555 1_555
Ag2_3 S1_3 1_555 1_555
Ag2_3 S4_3 1_555 1_555
Ag4_3 S7_3 1_555 1_555
Ag6_3 S7_3 1_555 1_555
S4_3 Ag11_3 1_555 1_555
C2_3 C3_3 1_555 1_555
C6_3 C7_3 1_555 1_555
C7_3 C8_3 1_555 1_555
C16_3 C17_3 1_555 1_555
C17_3 C18_3 1_555 1_555
C22_3 C23_3 1_555 1_555
C36_3 C37_3 1_555 1_555
C37_3 C38_3 1_555 1_555
Ag11_3 S9_3 1_555 1_555
Ag15 S13_3 1_555 1_555
C43_3 C45_3 1_555 1_555
C64_3 C66_3 1_555 1_555
C102_3 C104_3 1_555 1_555
C104_3 C106_3 1_555 1_555
O18_3 H1_3 1_555 1_555
O18_3 H2_3 1_555 1_555
O19_3 H4_3 1_555 1_555
O17_3 H5_3 1_555 1_555
O17_3 H6_3 1_555 1_555
O20_3 H7_3 1_555 1_555
O20_3 H8_3 1_555 1_555
N1_3 H9_3 1_555 1_555
N1_3 H10_3 1_555 1_555
N2_3 H11_3 1_555 1_555
N2_3 H12_3 1_555 1_555
C19_3 H16_3 1_555 1_555
C19_3 H17_3 1_555 1_555
C19_3 H18_3 1_555 1_555
C5_3 H20_3 1_555 1_555
C5_3 H21_3 1_555 1_555
C20_3 H27_3 1_555 1_555
C20_3 H28_3 1_555 1_555
C20_3 H29_3 1_555 1_555
C10_3 H30_3 1_555 1_555
C10_3 H31_3 1_555 1_555
C10_3 H32_3 1_555 1_555
C24_3 H34_3 1_555 1_555
C9_3 H40_3 1_555 1_555
C9_3 H41_3 1_555 1_555
C9_3 H42_3 1_555 1_555
N8_3 H47_3 1_555 1_555
N8_3 H48_3 1_555 1_555
N5_3 H49_3 1_555 1_555
N5_3 H50_3 1_555 1_555
C17_3 H51_3 1_555 1_555
C22_3 H52_3 1_555 1_555
C2_3 H53_3 1_555 1_555
C4_3 H54_3 1_555 1_555
C4_3 H55_3 1_555 1_555
C4_3 H56_3 1_555 1_555
N4_3 H57_3 1_555 1_555
N4_3 H58_3 1_555 1_555
C7_3 H59_3 1_555 1_555
C40_3 H60_3 1_555 1_555
C40_3 H61_3 1_555 1_555
C40_3 H62_3 1_555 1_555
C37_3 H67_3 1_555 1_555
C39_3 H75_3 1_555 1_555
C39_3 H76_3 1_555 1_555
C39_3 H77_3 1_555 1_555
O58_3 H87_3 1_555 1_555
O58_3 H88_3 1_555 1_555
N9_3 H99_3 1_555 1_555
N9_3 H100_3 1_555 1_555
N13_3 H103_3 1_555 1_555
N13_3 H104_3 1_555 1_555
N15_3 H115_3 1_555 1_555
N15_3 H116_3 1_555 1_555
C58_3 H128_3 1_555 1_555
C58_3 H129_3 1_555 1_555
C43_3 H132_3 1_555 1_555
C64_3 H133_3 1_555 1_555
C54_3 H134_3 1_555 1_555
C57_3 H135_3 1_555 1_555
C57_3 H136_3 1_555 1_555
C57_3 H137_3 1_555 1_555
C59_3 H138_3 1_555 1_555
C59_3 H139_3 1_555 1_555
C68_3 H141_3 1_555 1_555
C68_3 H142_3 1_555 1_555
C68_3 H143_3 1_555 1_555
C49_3 H149_3 1_555 1_555
C49_3 H150_3 1_555 1_555
C49_3 H151_3 1_555 1_555
C47_3 H159_3 1_555 1_555
C47_3 H160_3 1_555 1_555
C47_3 H161_3 1_555 1_555
N24_3 H163_3 1_555 1_555
C70_3 H166_3 1_555 1_555
C70_3 H167_3 1_555 1_555
C70_3 H168_3 1_555 1_555
C104_3 H182_3 1_555 1_555
C110_3 H221_3 1_555 1_555
C110_3 H222_3 1_555 1_555
C108_3 H229_3 1_555 1_555
C108_3 H230_3 1_555 1_555
C108_3 H231_3 1_555 1_555
Cl3_3 Ag23_2 1_555 1_555
C27_3 N6_3 1_555 1_555
C28_3 S8_3 1_555 1_555
C29_3 C28_3 1_555 1_555
C30_3 C28_3 1_555 1_555
Au14_3 Ag18_3 1_555 1_555
Ag18_3 Au11_3 1_555 1_555
Ag22_2 Cl3_3 1_555 1_555
Ag27_2 Cl3_3 1_555 1_555
Cu9_3 O31_3 1_555 1_555
S21_3 Au11_3 1_555 1_555
S26_3 Au14_3 1_555 1_555
S30_3 Au14_3 1_555 1_555
O36_3 Cu9_3 1_555 1_555
O48_3 Cu14_3 1_555 1_555
O56_3 Ag18_3 1_555 1_555
O60_3 Cu9_3 1_555 1_555
N18_3 Cu9_3 1_555 1_555
N26_3 Cu14_3 1_555 1_555
C114_3 N26_3 1_555 1_555
C116_3 S26_3 1_555 1_555
C118_3 C116_3 1_555 1_555
C120_3 C116_3 1_555 1_555
Ag23_2 S8_3 1_555 1_555
Cl3_3 Ag21_3 1_555 1_555
S8_3 Ag21_3 1_555 1_555
C27_3 C28_3 1_555 1_555
Au11_3 Ag21_3 1_555 1_555
Au14_3 Ag22_2 1_555 1_555
Au14_3 Ag27_2 1_555 1_555
Ag18_3 S21_3 1_555 1_555
Ag18_3 S26_3 1_555 1_555
Ag22_2 S30_3 1_555 1_555
Ag21_3 S21_3 1_555 1_555
Ag21_3 S30_3 1_555 1_555
Ag27_2 S26_3 1_555 1_555
C114_3 C116_3 1_555 1_555
N6_3 H43_3 1_555 1_555
N6_3 H44_3 1_555 1_555
C27_3 H63_3 1_555 1_555
C30_3 H64_3 1_555 1_555
C30_3 H65_3 1_555 1_555
C30_3 H66_3 1_555 1_555
C29_3 H78_3 1_555 1_555
C29_3 H79_3 1_555 1_555
O56_3 H97_3 1_555 1_555
O56_3 H98_3 1_555 1_555
O60_3 H102_3 1_555 1_555
N26_3 H147_3 1_555 1_555
N26_3 H148_3 1_555 1_555
C114_3 H216_3 1_555 1_555
C120_3 H226_3 1_555 1_555
C118_3 H236_3 1_555 1_555
C118_3 H237_3 1_555 1_555
C118_3 H238_3 1_555 1_555
S2_3 Au1_3 1_555 1_555
O6_3 C11_3 1_555 1_555
O14_3 C31_3 1_555 1_555
C11_3 C12_3 1_555 1_555
C12_3 N3_3 1_555 1_555
C13_3 S2_3 1_555 1_555
C14_3 C13_3 1_555 1_555
C15_3 C13_3 1_555 1_555
C32_3 N7_3 1_555 1_555
C33_3 S6_3 1_555 1_555
C34_3 C33_3 1_555 1_555
C35_3 C33_3 1_555 1_555
Au5_3 Ag3_3 1_555 1_555
Au7_3 Ag7_3 1_555 1_555
Au9_3 Ag8_3 1_555 1_555
Ag7_3 Au8_3 1_555 1_555
Ag8_3 Au5_3 1_555 1_555
Ag10_3 Cl2_3 1_555 1_555
Ag13_3 Au1_3 1_555 1_555
Ag14_3 Cl2_3 1_555 1_555
Cu5_3 O23_3 1_555 1_555
Cu8_3 O30_3 1_555 1_555
Cu10_3 O34_3 1_555 1_555
Cu13_3 O32_3 1_555 1_555
Cl4_3 Ag7_3 1_555 1_555
Cl5_3 Ag8_3 1_555 1_555
S11_3 Au7_3 1_555 1_555
S12_3 Ag3_3 1_555 1_555
S14_3 Au7_3 1_555 1_555
S15_3 Au8_3 1_555 1_555
S16_3 Au9_3 1_555 1_555
S18_3 Au9_3 1_555 1_555
O26_3 Cu5_3 1_555 1_555
O28_3 C51_3 1_555 1_555
O29_3 C52_3 1_555 1_555
O30_3 C61_3 1_555 1_555
O32_3 C61_3 1_555 1_555
O34_3 C71_3 1_555 1_555
O35_3 Cu8_3 1_555 1_555
O37_3 C71_3 1_555 1_555
O38_3 C72_3 1_555 1_555
O47_3 Cu13_3 1_555 1_555
O49_3 C101_3 1_555 1_555
O55_3 Ag19 1_555 1_555
O57_3 Cu5_3 1_555 1_555
O59_3 Cu8_3 1_555 1_555
N11_3 Cu5_3 1_555 1_555
N12_3 Cu5_3 1_555 1_555
N14_3 Cu8_3 1_555 1_555
N16_3 Cu10_3 1_555 1_555
N17_3 Cu8_3 1_555 1_555
N23_3 Cu13_3 1_555 1_555
N25_3 Cu13_3 1_555 1_555
C51_3 O26_3 1_555 1_555
C52_3 O27_3 1_555 1_555
C53_3 N12_3 1_555 1_555
C55_3 S17_3 1_555 1_555
C56_3 S18_3 1_555 1_555
C60_3 C56_3 1_555 1_555
C61_3 C63_3 1_555 1_555
C63_3 N14_3 1_555 1_555
C65_3 S12_3 1_555 1_555
C67_3 C65_3 1_555 1_555
C69_3 C65_3 1_555 1_555
C71_3 C73_3 1_555 1_555
C72_3 O35_3 1_555 1_555
C73_3 N16_3 1_555 1_555
C74_3 N17_3 1_555 1_555
C75_3 S15_3 1_555 1_555
C76_3 S16_3 1_555 1_555
C77_3 C75_3 1_555 1_555
C78_3 C76_3 1_555 1_555
C79_3 C75_3 1_555 1_555
C80_3 C76_3 1_555 1_555
C101_3 O47_3 1_555 1_555
C103_3 N23_3 1_555 1_555
C105_3 S24 1_555 1_555
C107_3 C105_3 1_555 1_555
C109_3 C105_3 1_555 1_555
C113_3 N25_3 1_555 1_555
C115_3 S27 1_555 1_555
C117_3 C115_3 1_555 1_555
C119_3 C115_3 1_555 1_555
Ag3_3 Cl2_3 1_555 1_555
Ag3_3 S2_3 1_555 1_555
Cl2_3 Ag13_3 1_555 1_555
S2_3 Ag13_3 1_555 1_555
C12_3 C13_3 1_555 1_555
C31_3 C32_3 1_555 1_555
C32_3 C33_3 1_555 1_555
Au5_3 S12_3 1_555 1_555
Au7_3 Ag10_3 1_555 1_555
Au7_3 Ag14_3 1_555 1_555
Au8_3 Ag13_3 1_555 1_555
Au8_3 S17_3 1_555 1_555
Au9_3 Ag10_3 1_555 1_555
Au9_3 Ag14_3 1_555 1_555
Ag7_3 S11_3 1_555 1_555
Ag7_3 S15_3 1_555 1_555
Ag8_3 S16_3 1_555 1_555
Ag10_3 S11_3 1_555 1_555
Ag10_3 S17_3 1_555 1_555
Ag10_3 S18_3 1_555 1_555
Ag13_3 S14_3 1_555 1_555
Ag13_3 S15_3 1_555 1_555
Ag14_3 S12_3 1_555 1_555
Ag14_3 S14_3 1_555 1_555
Ag14_3 S16_3 1_555 1_555
C51_3 C53_3 1_555 1_555
C53_3 C55_3 1_555 1_555
C63_3 C65_3 1_555 1_555
C72_3 C74_3 1_555 1_555
C73_3 C75_3 1_555 1_555
C74_3 C76_3 1_555 1_555
C101_3 C103_3 1_555 1_555
C103_3 C105_3 1_555 1_555
C113_3 C115_3 1_555 1_555
C14_3 H13_3 1_555 1_555
C14_3 H14_3 1_555 1_555
C14_3 H15_3 1_555 1_555
C15_3 H22_3 1_555 1_555
C15_3 H23_3 1_555 1_555
C15_3 H24_3 1_555 1_555
N7_3 H25_3 1_555 1_555
N7_3 H26_3 1_555 1_555
C12_3 H33_3 1_555 1_555
C25_3 H37_3 1_555 1_555
C25_3 H38_3 1_555 1_555
C25_3 H39_3 1_555 1_555
N3_3 H45_3 1_555 1_555
N3_3 H46_3 1_555 1_555
C32_3 H68_3 1_555 1_555
C35_3 H69_3 1_555 1_555
C35_3 H70_3 1_555 1_555
C35_3 H71_3 1_555 1_555
C34_3 H72_3 1_555 1_555
C34_3 H73_3 1_555 1_555
C34_3 H74_3 1_555 1_555
O55_3 H85_3 1_555 1_555
O55_3 H86_3 1_555 1_555
N14_3 H91_3 1_555 1_555
N14_3 H92_3 1_555 1_555
O59_3 H93_3 1_555 1_555
O59_3 H94_3 1_555 1_555
N12_3 H95_3 1_555 1_555
N12_3 H96_3 1_555 1_555
N16_3 H113_3 1_555 1_555
N16_3 H114_3 1_555 1_555
N23_3 H118_3 1_555 1_555
N17_3 H119_3 1_555 1_555
N17_3 H120_3 1_555 1_555
C67_3 H121_3 1_555 1_555
C67_3 H122_3 1_555 1_555
C67_3 H123_3 1_555 1_555
C63_3 H124_3 1_555 1_555
C60_3 H125_3 1_555 1_555
C60_3 H126_3 1_555 1_555
C60_3 H127_3 1_555 1_555
C53_3 H131_3 1_555 1_555
C69_3 H144_3 1_555 1_555
C69_3 H145_3 1_555 1_555
C69_3 H146_3 1_555 1_555
N25_3 H164_3 1_555 1_555
N25_3 H165_3 1_555 1_555
C73_3 H169_3 1_555 1_555
C74_3 H170_3 1_555 1_555
C103_3 H174_3 1_555 1_555
C80_3 H187_3 1_555 1_555
C80_3 H188_3 1_555 1_555
C80_3 H189_3 1_555 1_555
C77_3 H190_3 1_555 1_555
C77_3 H191_3 1_555 1_555
C77_3 H192_3 1_555 1_555
C78_3 H199_3 1_555 1_555
C78_3 H200_3 1_555 1_555
C78_3 H201_3 1_555 1_555
C79_3 H208_3 1_555 1_555
C79_3 H209_3 1_555 1_555
C79_3 H210_3 1_555 1_555
C109_3 H214_3 1_555 1_555
C109_3 H215_3 1_555 1_555
C119_3 H217_3 1_555 1_555
C117_3 H223_3 1_555 1_555
C117_3 H224_3 1_555 1_555
C117_3 H225_3 1_555 1_555
C107_3 H232_3 1_555 1_555
C107_3 H233_3 1_555 1_555
C107_3 H234_3 1_555 1_555
C113_3 H235_3 1_555 1_555
Cu7_3 O22_3 1_555 1_555
O22_3 C42_3 1_555 1_555
O25_3 C42_3 1_555 1_555
O54_3 C112_3 1_555 1_555
N10_3 Cu7_3 1_555 1_555
C42_3 C44_3 1_555 1_555
C44_3 N10_3 1_555 1_555
C46_3 S10_3 1_555 1_555
C48_3 C46_3 1_555 1_555
C50_3 C46_3 1_555 1_555
C112_3 O52_3 1_555 1_555
Ag12_3 S10_3 1_555 1_555
C44_3 C46_3 1_555 1_555
N10_3 H83_3 1_555 1_555
N10_3 H84_3 1_555 1_555
C50_3 H153_3 1_555 1_555
C50_3 H154_3 1_555 1_555
C44_3 H155_3 1_555 1_555
C48_3 H156_3 1_555 1_555
C48_3 H157_3 1_555 1_555
C48_3 H158_3 1_555 1_555
Au3_4 Ag4_4 1_555 1_555
Au4_4 Ag4_4 1_555 1_555
Ag4_4 S5_4 1_555 1_555
Ag5_2 Au3_4 1_555 1_555
Ag6_4 Au4_4 1_555 1_555
Cu10_3 O5_4 1_555 1_555
Cu3_4 O9_4 1_555 1_555
Cu4_4 O6_4 1_555 1_555
Cl3_4 Ag5_2 1_555 1_555
S5_4 Au3_4 1_555 1_555
S6_4 Au3_4 1_555 1_555
S7_4 Au4_4 1_555 1_555
S8_4 Au4_4 1_555 1_555
O23_3 C1_4 1_555 1_555
O2_4 C1_4 1_555 1_555
O5_4 C11_4 1_555 1_555
O6_4 C11_4 1_555 1_555
O9_4 C21_4 1_555 1_555
O10_4 C21_4 1_555 1_555
O11_4 Cu3_4 1_555 1_555
O12_4 C26_4 1_555 1_555
O13_4 Cu4_4 1_555 1_555
O14_4 C31_4 1_555 1_555
O15_4 Cu4_4 1_555 1_555
O16_4 C36_4 1_555 1_555
O17_4 Ag4_4 1_555 1_555
O19_4 Cu10_3 1_555 1_555
O20_4 Cu3_4 1_555 1_555
N3_4 Cu10_3 1_555 1_555
N5_4 Cu3_4 1_555 1_555
N6_4 Cu3_4 1_555 1_555
N7_4 Cu4_4 1_555 1_555
N8_4 Cu4_4 1_555 1_555
C1_4 C2_4 1_555 1_555
C2_4 N11_3 1_555 1_555
C3_4 S11_3 1_555 1_555
C4_4 C3_4 1_555 1_555
C5_4 C3_4 1_555 1_555
C11_4 C12_4 1_555 1_555
C12_4 N3_4 1_555 1_555
C13_4 S14_3 1_555 1_555
C14_4 C13_4 1_555 1_555
C15_4 C13_4 1_555 1_555
C21_4 C22_4 1_555 1_555
C22_4 N5_4 1_555 1_555
C23_4 S5_4 1_555 1_555
C24_4 C23_4 1_555 1_555
C25_4 C23_4 1_555 1_555
C26_4 O11_4 1_555 1_555
C27_4 N6_4 1_555 1_555
C28_4 S8_4 1_555 1_555
C29_4 C28_4 1_555 1_555
C30_4 C28_4 1_555 1_555
C31_4 O13_4 1_555 1_555
C32_4 N7_4 1_555 1_555
C33_4 S6_4 1_555 1_555
C34_4 C33_4 1_555 1_555
C35_4 C33_4 1_555 1_555
C36_4 O15_4 1_555 1_555
C37_4 N8_4 1_555 1_555
C38_4 S7_4 1_555 1_555
C39_4 C38_4 1_555 1_555
C40_4 C38_4 1_555 1_555
Au11_4 Ag6_4 1_555 1_555
Au12_2 Ag19_2 1_555 1_555
Au14_4 Ag18_4 1_555 1_555
Au15_2 Ag5_2 1_555 1_555
Ag18_4 Au11_4 1_555 1_555
Ag19_2 Au15_2 1_555 1_555
Ag20_2 Cl3_4 1_555 1_555
Ag21_4 Au4_4 1_555 1_555
Ag24_2 Au3_4 1_555 1_555
Ag25_2 Cl3_4 1_555 1_555
Cu10_2 O31_4 1_555 1_555
Cu11_2 O39_2 1_555 1_555
Cu14_4 O33_4 1_555 1_555
S19_2 Au12_2 1_555 1_555
S21_4 Au11_4 1_555 1_555
S23_4 Ag6_4 1_555 1_555
S24_2 Au12_2 1_555 1_555
S26_4 Au14_4 1_555 1_555
S27_2 Au15_2 1_555 1_555
S28_2 Ag5_2 1_555 1_555
S30_4 Au14_4 1_555 1_555
O23_2 C42_4 1_555 1_555
O25_4 C42_4 1_555 1_555
O31_4 C62_4 1_555 1_555
O33_4 C62_4 1_555 1_555
O39_2 C81_2 1_555 1_555
O41_2 C81_2 1_555 1_555
O43_2 Cu11_2 1_555 1_555
O45_2 C91_2 1_555 1_555
O48_4 Cu14_4 1_555 1_555
O50_4 C102_4 1_555 1_555
O52_4 Cu14_4 1_555 1_555
O54_4 C112_4 1_555 1_555
O56_4 Ag18_4 1_555 1_555
O60_4 Cu10_2 1_555 1_555
O61_2 Cu11_2 1_555 1_555
N15_4 Cu10_2 1_555 1_555
N19_2 Cu11_2 1_555 1_555
N21_2 Cu11_2 1_555 1_555
N24_4 Cu14_4 1_555 1_555
N26_4 Cu14_4 1_555 1_555
C42_4 C44_4 1_555 1_555
C44_4 N11_2 1_555 1_555
C46_4 S11_2 1_555 1_555
C48_4 C46_4 1_555 1_555
C50_4 C46_4 1_555 1_555
C62_4 C64_4 1_555 1_555
C64_4 N15_4 1_555 1_555
C66_4 S14_2 1_555 1_555
C68_4 C66_4 1_555 1_555
C70_4 C66_4 1_555 1_555
C81_2 C83_2 1_555 1_555
C83_2 N19_2 1_555 1_555
C85_2 S19_2 1_555 1_555
C87_2 C85_2 1_555 1_555
C89_2 C85_2 1_555 1_555
C91_2 O43_2 1_555 1_555
C93_2 N21_2 1_555 1_555
C95_2 S28_2 1_555 1_555
C97_2 C95_2 1_555 1_555
C99_2 C95_2 1_555 1_555
C102_4 O48_4 1_555 1_555
C104_4 N24_4 1_555 1_555
C106_4 S23_4 1_555 1_555
C108_4 C106_4 1_555 1_555
C110_4 C106_4 1_555 1_555
C112_4 O52_4 1_555 1_555
C114_4 N26_4 1_555 1_555
C116_4 S26_4 1_555 1_555
C118_4 C116_4 1_555 1_555
C120_4 C116_4 1_555 1_555
Ag4_4 S7_4 1_555 1_555
Ag5_2 S5_4 1_555 1_555
Ag5_2 S8_4 1_555 1_555
Ag6_4 Cl3_4 1_555 1_555
Ag6_4 S6_4 1_555 1_555
Ag6_4 S7_4 1_555 1_555
Cl3_4 Ag21_4 1_555 1_555
Cl3_4 Ag24_2 1_555 1_555
S6_4 Ag24_2 1_555 1_555
S8_4 Ag21_4 1_555 1_555
C2_4 C3_4 1_555 1_555
C12_4 C13_4 1_555 1_555
C22_4 C23_4 1_555 1_555
C26_4 C27_4 1_555 1_555
C27_4 C28_4 1_555 1_555
C31_4 C32_4 1_555 1_555
C32_4 C33_4 1_555 1_555
C36_4 C37_4 1_555 1_555
C37_4 C38_4 1_555 1_555
Au11_4 Ag21_4 1_555 1_555
Au11_4 S23_4 1_555 1_555
Au12_2 Ag20_2 1_555 1_555
Au12_2 Ag25_2 1_555 1_555
Au14_4 Ag20_2 1_555 1_555
Au14_4 Ag25_2 1_555 1_555
Au15_2 Ag24_2 1_555 1_555
Au15_2 S28_2 1_555 1_555
Ag18_4 S21_4 1_555 1_555
Ag18_4 S26_4 1_555 1_555
Ag19_2 S19_2 1_555 1_555
Ag19_2 S27_2 1_555 1_555
Ag20_2 S19_2 1_555 1_555
Ag20_2 S28_2 1_555 1_555
Ag20_2 S30_4 1_555 1_555
Ag21_4 S21_4 1_555 1_555
Ag21_4 S30_4 1_555 1_555
Ag24_2 S24_2 1_555 1_555
Ag24_2 S27_2 1_555 1_555
Ag25_2 S23_4 1_555 1_555
Ag25_2 S24_2 1_555 1_555
Ag25_2 S26_4 1_555 1_555
C44_4 C46_4 1_555 1_555
C64_4 C66_4 1_555 1_555
C83_2 C85_2 1_555 1_555
C91_2 C93_2 1_555 1_555
C93_2 C95_2 1_555 1_555
C102_4 C104_4 1_555 1_555
C104_4 C106_4 1_555 1_555
C112_4 C114_4 1_555 1_555
C114_4 C116_4 1_555 1_555
O57_3 H1_4 1_555 1_555
O57_3 H2_4 1_555 1_555
O19_4 H3_4 1_555 1_555
O19_4 H4_4 1_555 1_555
O17_4 H5_4 1_555 1_555
O17_4 H6_4 1_555 1_555
O20_4 H7_4 1_555 1_555
O20_4 H8_4 1_555 1_555
N11_3 H9_4 1_555 1_555
N11_3 H10_4 1_555 1_555
C14_4 H13_4 1_555 1_555
C14_4 H14_4 1_555 1_555
C14_4 H15_4 1_555 1_555
C5_4 H19_4 1_555 1_555
C5_4 H20_4 1_555 1_555
C5_4 H21_4 1_555 1_555
C15_4 H22_4 1_555 1_555
C15_4 H23_4 1_555 1_555
C15_4 H24_4 1_555 1_555
N7_4 H25_4 1_555 1_555
N7_4 H26_4 1_555 1_555
C12_4 H33_4 1_555 1_555
C24_4 H34_4 1_555 1_555
C24_4 H35_4 1_555 1_555
C24_4 H36_4 1_555 1_555
C25_4 H37_4 1_555 1_555
C25_4 H38_4 1_555 1_555
C25_4 H39_4 1_555 1_555
N6_4 H43_4 1_555 1_555
N6_4 H44_4 1_555 1_555
N3_4 H45_4 1_555 1_555
N3_4 H46_4 1_555 1_555
N8_4 H47_4 1_555 1_555
N8_4 H48_4 1_555 1_555
N5_4 H49_4 1_555 1_555
N5_4 H50_4 1_555 1_555
C22_4 H52_4 1_555 1_555
C2_4 H53_4 1_555 1_555
C4_4 H54_4 1_555 1_555
C4_4 H55_4 1_555 1_555
C4_4 H56_4 1_555 1_555
C40_4 H60_4 1_555 1_555
C40_4 H61_4 1_555 1_555
C40_4 H62_4 1_555 1_555
C27_4 H63_4 1_555 1_555
C30_4 H64_4 1_555 1_555
C30_4 H65_4 1_555 1_555
C30_4 H66_4 1_555 1_555
C37_4 H67_4 1_555 1_555
C32_4 H68_4 1_555 1_555
C35_4 H69_4 1_555 1_555
C35_4 H70_4 1_555 1_555
C35_4 H71_4 1_555 1_555
C34_4 H72_4 1_555 1_555
C34_4 H73_4 1_555 1_555
C34_4 H74_4 1_555 1_555
C39_4 H75_4 1_555 1_555
C39_4 H76_4 1_555 1_555
C39_4 H77_4 1_555 1_555
C29_4 H78_4 1_555 1_555
C29_4 H79_4 1_555 1_555
C29_4 H80_4 1_555 1_555
N11_2 H83_4 1_555 1_555
N11_2 H84_4 1_555 1_555
O61_2 H89_2 1_555 1_555
O61_2 H90_2 1_555 1_555
O56_4 H97_4 1_555 1_555
O56_4 H98_4 1_555 1_555
O60_4 H101_4 1_555 1_555
O60_4 H102_4 1_555 1_555
N19_2 H109_2 1_555 1_555
N19_2 H110_2 1_555 1_555
N21_2 H111_2 1_555 1_555
N21_2 H112_2 1_555 1_555
N15_4 H115_4 1_555 1_555
N15_4 H116_4 1_555 1_555
C64_4 H133_4 1_555 1_555
C68_4 H141_4 1_555 1_555
C68_4 H142_4 1_555 1_555
C68_4 H143_4 1_555 1_555
N26_4 H147_4 1_555 1_555
N26_4 H148_4 1_555 1_555
C50_4 H152_4 1_555 1_555
C50_4 H153_4 1_555 1_555
C50_4 H154_4 1_555 1_555
C44_4 H155_4 1_555 1_555
C48_4 H156_4 1_555 1_555
C48_4 H157_4 1_555 1_555
C48_4 H158_4 1_555 1_555
N24_4 H162_4 1_555 1_555
N24_4 H163_4 1_555 1_555
C70_4 H166_4 1_555 1_555
C70_4 H167_4 1_555 1_555
C70_4 H168_4 1_555 1_555
C97_2 H171_2 1_555 1_555
C97_2 H172_2 1_555 1_555
C97_2 H173_2 1_555 1_555
C89_2 H175_2 1_555 1_555
C89_2 H176_2 1_555 1_555
C89_2 H177_2 1_555 1_555
C93_2 H181_2 1_555 1_555
C104_4 H182_4 1_555 1_555
C99_2 H196_2 1_555 1_555
C99_2 H197_2 1_555 1_555
C99_2 H198_2 1_555 1_555
C87_2 H202_2 1_555 1_555
C87_2 H203_2 1_555 1_555
C87_2 H204_2 1_555 1_555
C83_2 H211_2 1_555 1_555
C114_4 H216_4 1_555 1_555
C110_4 H220_4 1_555 1_555
C110_4 H221_4 1_555 1_555
C110_4 H222_4 1_555 1_555
C120_4 H226_4 1_555 1_555
C120_4 H227_4 1_555 1_555
C120_4 H228_4 1_555 1_555
C108_4 H229_4 1_555 1_555
C108_4 H230_4 1_555 1_555
C108_4 H231_4 1_555 1_555
C118_4 H236_4 1_555 1_555
C118_4 H237_4 1_555 1_555
C118_4 H238_4 1_555 1_555
Ag16 Cl2_4 1_555 1_555
Ag16_2 Cl2_4 1_555 1_555
Cl2_4 Ag15 1_555 1_555
C25_5 H37_5 1_555 1_555
C25_5 H38_5 1_555 1_555
C25_5 H39_5 1_555 1_555
C90_3 H205_3 1_555 1_555
C90_3 H206_3 1_555 1_555
C90_3 H207_3 1_555 1_555
Au2_4 Ag9_3 1_555 1_555
Ag9_3 Cl1_4 1_555 1_555
Cu3_5 O9_5 1_555 1_555
S3_4 Au2_4 1_555 1_555
S4_4 Au2_4 1_555 1_555
O4_4 C6_4 1_555 1_555
O8_4 C16_4 1_555 1_555
O9_5 C21_5 1_555 1_555
O10_5 C21_5 1_555 1_555
O11_5 Cu3_5 1_555 1_555
O12_5 C26_5 1_555 1_555
O20_5 Cu3_5 1_555 1_555
N5_5 Cu3_5 1_555 1_555
N6_5 Cu3_5 1_555 1_555
C6_4 O3_4 1_555 1_555
C8_4 S4_4 1_555 1_555
C16_4 O36_3 1_555 1_555
C17_4 N18_3 1_555 1_555
C18_4 S3_4 1_555 1_555
C19_4 C18_4 1_555 1_555
C20_4 C18_4 1_555 1_555
C21_5 C22_5 1_555 1_555
C22_5 N5_5 1_555 1_555
C23_5 S21_3 1_555 1_555
C24_5 C23_5 1_555 1_555
C26_5 O11_5 1_555 1_555
C27_5 N6_5 1_555 1_555
C28_5 S30_3 1_555 1_555
C29_5 C28_5 1_555 1_555
C30_5 C28_5 1_555 1_555
Ag9_3 S3_4 1_555 1_555
C16_4 C17_4 1_555 1_555
C17_4 C18_4 1_555 1_555
C22_5 C23_5 1_555 1_555
C26_5 C27_5 1_555 1_555
C27_5 C28_5 1_555 1_555
O20_5 H7_5 1_555 1_555
O20_5 H8_5 1_555 1_555
C19_4 H16_4 1_555 1_555
C19_4 H17_4 1_555 1_555
C19_4 H18_4 1_555 1_555
C20_4 H27_4 1_555 1_555
C20_4 H28_4 1_555 1_555
C20_4 H29_4 1_555 1_555
C24_5 H34_5 1_555 1_555
N6_5 H43_5 1_555 1_555
N6_5 H44_5 1_555 1_555
N5_5 H49_5 1_555 1_555
N5_5 H50_5 1_555 1_555
C17_4 H51_4 1_555 1_555
C22_5 H52_5 1_555 1_555
N18_3 H57_4 1_555 1_555
N18_3 H58_4 1_555 1_555
C27_5 H63_5 1_555 1_555
C30_5 H64_5 1_555 1_555
C30_5 H65_5 1_555 1_555
C30_5 H66_5 1_555 1_555
C29_5 H78_5 1_555 1_555
C29_5 H79_5 1_555 1_555
C29_5 H80_5 1_555 1_555
Au9_4 Ag9_2 1_555 1_555
Cu12_3 O40_3 1_555 1_555
Cl5_4 Ag9_2 1_555 1_555
S16_4 Au9_4 1_555 1_555
S18_4 Au9_4 1_555 1_555
O29_4 C52_4 1_555 1_555
O38_4 C72_4 1_555 1_555
O40_3 C82_3 1_555 1_555
O42_3 C82_3 1_555 1_555
O44_3 Cu12_3 1_555 1_555
O46_3 C92_3 1_555 1_555
O62_3 Cu12_3 1_555 1_555
N20_3 Cu12_3 1_555 1_555
N22_3 Cu12_3 1_555 1_555
C52_4 O27_4 1_555 1_555
C56_4 S18_4 1_555 1_555
C72_4 O36_2 1_555 1_555
C74_4 N18_2 1_555 1_555
C76_4 S16_4 1_555 1_555
C78_4 C76_4 1_555 1_555
C80_4 C76_4 1_555 1_555
C82_3 C84_3 1_555 1_555
C84_3 N20_3 1_555 1_555
C86_3 S21_2 1_555 1_555
C88_3 C86_3 1_555 1_555
C92_3 O44_3 1_555 1_555
C94_3 N22_3 1_555 1_555
C96_3 S30_2 1_555 1_555
C98_3 C96_3 1_555 1_555
C100_3 C96_3 1_555 1_555
Ag9_2 S16_4 1_555 1_555
C72_4 C74_4 1_555 1_555
C74_4 C76_4 1_555 1_555
C84_3 C86_3 1_555 1_555
C92_3 C94_3 1_555 1_555
C94_3 C96_3 1_555 1_555
O62_3 H81_3 1_555 1_555
O62_3 H82_3 1_555 1_555
N20_3 H105_3 1_555 1_555
N20_3 H106_3 1_555 1_555
N22_3 H107_3 1_555 1_555
N22_3 H108_3 1_555 1_555
N18_2 H119_4 1_555 1_555
N18_2 H120_4 1_555 1_555
C74_4 H170_4 1_555 1_555
C100_3 H178_3 1_555 1_555
C100_3 H179_3 1_555 1_555
C100_3 H180_3 1_555 1_555
C98_3 H183_3 1_555 1_555
C98_3 H184_3 1_555 1_555
C98_3 H185_3 1_555 1_555
C94_3 H186_3 1_555 1_555
C80_4 H187_4 1_555 1_555
C80_4 H188_4 1_555 1_555
C80_4 H189_4 1_555 1_555
C88_3 H193_3 1_555 1_555
C78_4 H199_4 1_555 1_555
C78_4 H200_4 1_555 1_555
C78_4 H201_4 1_555 1_555
C84_3 H212_3 1_555 1_555
O58_4 Cu7_2 1_555 1_555
N13_4 Cu7_2 1_555 1_555
C54_4 N13_4 1_555 1_555
C10_4 H30_4 1_555 1_555
C10_4 H31_4 1_555 1_555
O58_4 H87_4 1_555 1_555
O58_4 H88_4 1_555 1_555
N13_4 H103_4 1_555 1_555
N13_4 H104_4 1_555 1_555
C54_4 H134_4 1_555 1_555
Ag9 Au8_4 1_555 1_555
Cl4_4 Ag9 1_555 1_555
S15_4 Au8_4 1_555 1_555
O28_4 C51_4 1_555 1_555
O36 C71_4 1_555 1_555
O37_4 C71_4 1_555 1_555
C51_4 O26_4 1_555 1_555
C55_4 S17_4 1_555 1_555
C71_4 C73_4 1_555 1_555
C73_4 N18 1_555 1_555
C75_4 S15_4 1_555 1_555
C77_4 C75_4 1_555 1_555
C79_4 C75_4 1_555 1_555
Au8_4 S17_4 1_555 1_555
Ag9 S15_4 1_555 1_555
C73_4 C75_4 1_555 1_555
N18 H113_4 1_555 1_555
N18 H114_4 1_555 1_555
C73_4 H169_4 1_555 1_555
C77_4 H190_4 1_555 1_555
C77_4 H191_4 1_555 1_555
C77_4 H192_4 1_555 1_555
C79_4 H208_4 1_555 1_555
C79_4 H209_4 1_555 1_555
C79_4 H210_4 1_555 1_555
O18_4 Cu7_3 1_555 1_555
N2_4 Cu7_3 1_555 1_555
C7_4 N2_4 1_555 1_555
O18_4 H1_5 1_555 1_555
O18_4 H2_5 1_555 1_555
N2_4 H11_4 1_555 1_555
N2_4 H12_4 1_555 1_555
C7_4 H59_4 1_555 1_555
C59_4 H138_4 1_555 1_555
C59_4 H139_4 1_555 1_555
O57_4 Cu7 1_555 1_555
N12_4 Cu7 1_555 1_555
C53_4 N12_4 1_555 1_555
N12_4 H95_4 1_555 1_555
N12_4 H96_4 1_555 1_555
C60_4 H125_4 1_555 1_555
C60_4 H126_4 1_555 1_555
C53_4 H131_4 1_555 1_555
Cu10 O30_4 1_555 1_555
Cu13_4 O32_4 1_555 1_555
O23 C41_4 1_555 1_555
O24_4 C41_4 1_555 1_555
O30_4 C61_4 1_555 1_555
O32_4 C61_4 1_555 1_555
O47_4 Cu13_4 1_555 1_555
O49_4 C101_4 1_555 1_555
O51_4 Cu13_4 1_555 1_555
O53_4 C111_4 1_555 1_555
O55_4 Ag19_2 1_555 1_555
O59_4 Cu10 1_555 1_555
N14_4 Cu10 1_555 1_555
N23_4 Cu13_4 1_555 1_555
N25_4 Cu13_4 1_555 1_555
C41_4 C43_4 1_555 1_555
C43_4 N11 1_555 1_555
C45_4 S11 1_555 1_555
C47_4 C45_4 1_555 1_555
C49_4 C45_4 1_555 1_555
C61_4 C63_4 1_555 1_555
C63_4 N14_4 1_555 1_555
C65_4 S14 1_555 1_555
C67_4 C65_4 1_555 1_555
C69_4 C65_4 1_555 1_555
C101_4 O47_4 1_555 1_555
C103_4 N23_4 1_555 1_555
C105_4 S24_2 1_555 1_555
C107_4 C105_4 1_555 1_555
C109_4 C105_4 1_555 1_555
C111_4 O51_4 1_555 1_555
C113_4 N25_4 1_555 1_555
C115_4 S27_2 1_555 1_555
C117_4 C115_4 1_555 1_555
C119_4 C115_4 1_555 1_555
C43_4 C45_4 1_555 1_555
C63_4 C65_4 1_555 1_555
C101_4 C103_4 1_555 1_555
C103_4 C105_4 1_555 1_555
C111_4 C113_4 1_555 1_555
C113_4 C115_4 1_555 1_555
O55_4 H85_4 1_555 1_555
O55_4 H86_4 1_555 1_555
O57 H87_5 1_555 1_555
O57 H88_5 1_555 1_555
N14_4 H91_4 1_555 1_555
N14_4 H92_4 1_555 1_555
O59_4 H93_4 1_555 1_555
O59_4 H94_4 1_555 1_555
N11 H99_4 1_555 1_555
N11 H100_4 1_555 1_555
N23_4 H117_4 1_555 1_555
N23_4 H118_4 1_555 1_555
C67_4 H121_4 1_555 1_555
C67_4 H122_4 1_555 1_555
C67_4 H123_4 1_555 1_555
C63_4 H124_4 1_555 1_555
C43_4 H132_4 1_555 1_555
C69_4 H144_4 1_555 1_555
C69_4 H145_4 1_555 1_555
C69_4 H146_4 1_555 1_555
C49_4 H149_4 1_555 1_555
C49_4 H150_4 1_555 1_555
C49_4 H151_4 1_555 1_555
C47_4 H159_4 1_555 1_555
C47_4 H160_4 1_555 1_555
C47_4 H161_4 1_555 1_555
N25_4 H164_4 1_555 1_555
N25_4 H165_4 1_555 1_555
C103_4 H174_4 1_555 1_555
C109_4 H213_4 1_555 1_555
C109_4 H214_4 1_555 1_555
C109_4 H215_4 1_555 1_555
C119_4 H217_4 1_555 1_555
C119_4 H218_4 1_555 1_555
C119_4 H219_4 1_555 1_555
C117_4 H223_4 1_555 1_555
C117_4 H224_4 1_555 1_555
C117_4 H225_4 1_555 1_555
C107_4 H232_4 1_555 1_555
C107_4 H233_4 1_555 1_555
C107_4 H234_4 1_555 1_555
C113_4 H235_4 1_555 1_555
Cu12_4 O40_4 1_555 1_555
O40_4 C82_4 1_555 1_555
O42_4 C82_4 1_555 1_555
O44_4 Cu12_4 1_555 1_555
O46_4 C92_4 1_555 1_555
O62_4 Cu12_4 1_555 1_555
N20_4 Cu12_4 1_555 1_555
N22_4 Cu12_4 1_555 1_555
C82_4 C84_4 1_555 1_555
C84_4 N20_4 1_555 1_555
C86_4 S21_4 1_555 1_555
C88_4 C86_4 1_555 1_555
C90_4 C86_4 1_555 1_555
C92_4 O44_4 1_555 1_555
C94_4 N22_4 1_555 1_555
C96_4 S30_4 1_555 1_555
C98_4 C96_4 1_555 1_555
C100_4 C96_4 1_555 1_555
C84_4 C86_4 1_555 1_555
C92_4 C94_4 1_555 1_555
C94_4 C96_4 1_555 1_555
O62_4 H81_4 1_555 1_555
O62_4 H82_4 1_555 1_555
O57_2 H87_6 1_555 1_555
O57_2 H88_6 1_555 1_555
N20_4 H105_4 1_555 1_555
N20_4 H106_4 1_555 1_555
N22_4 H107_4 1_555 1_555
N22_4 H108_4 1_555 1_555
C100_4 H178_4 1_555 1_555
C100_4 H179_4 1_555 1_555
C100_4 H180_4 1_555 1_555
C98_4 H183_4 1_555 1_555
C98_4 H184_4 1_555 1_555
C98_4 H185_4 1_555 1_555
C94_4 H186_4 1_555 1_555
C88_4 H193_4 1_555 1_555
C88_4 H194_4 1_555 1_555
C88_4 H195_4 1_555 1_555
C90_4 H205_4 1_555 1_555
C90_4 H206_4 1_555 1_555
C90_4 H207_4 1_555 1_555
C84_4 H212_4 1_555 1_555
C25_6 H37_6 1_555 1_555
C25_6 H38_6 1_555 1_555
C25_6 H39_6 1_555 1_555
Cu3_6 O9_6 1_555 1_555
O9_6 C21_6 1_555 1_555
O10_6 C21_6 1_555 1_555
O11_6 Cu3_6 1_555 1_555
O12_6 C26_6 1_555 1_555
O20_6 Cu3_6 1_555 1_555
N5_6 Cu3_6 1_555 1_555
N6_6 Cu3_6 1_555 1_555
C21_6 C22_6 1_555 1_555
C22_6 N5_6 1_555 1_555
C23_6 S21 1_555 1_555
C24_6 C23_6 1_555 1_555
C26_6 O11_6 1_555 1_555
C27_6 N6_6 1_555 1_555
C28_6 S30 1_555 1_555
C29_6 C28_6 1_555 1_555
C30_6 C28_6 1_555 1_555
C22_6 C23_6 1_555 1_555
C26_6 C27_6 1_555 1_555
C27_6 C28_6 1_555 1_555
O20_6 H7_6 1_555 1_555
O20_6 H8_6 1_555 1_555
C24_6 H34_6 1_555 1_555
N6_6 H43_6 1_555 1_555
N6_6 H44_6 1_555 1_555
N5_6 H49_6 1_555 1_555
N5_6 H50_6 1_555 1_555
C22_6 H52_6 1_555 1_555
C27_6 H63_6 1_555 1_555
C30_6 H64_6 1_555 1_555
C30_6 H65_6 1_555 1_555
C30_6 H66_6 1_555 1_555
C29_6 H78_6 1_555 1_555
C29_6 H79_6 1_555 1_555
C29_6 H80_6 1_555 1_555
O57_4 H1_6 1_555 1_555
O57_4 H2_6 1_555 1_555
C9_4 H40_4 1_555 1_555
C9_4 H41_4 1_555 1_555
C58_4 H128_4 1_555 1_555
C58_4 H129_4 1_555 1_555
C57_4 H135_4 1_555 1_555
C57_4 H136_4 1_555 1_555

#END
