
###############################################################################
#
# This file contains modified crystal structure data generated from the
# MOF subset of the Cambridge Structural Database (CSD) v543 
# hosted by the Cambridge Crystallographic Data Centre (CCDC).
#
# This work is licensed under the Creative Commons
# Attribution-NonCommercial-ShareAlike 4.0 International License.
# To view a copy of this license, visit
# http://creativecommons.org/licenses/by-nc-sa/4.0/
# or send a letter to
# Creative Commons, PO Box 1866, Mountain View, CA 94042, USA.
#
# CIF created using the CSD Python API on 29 September 2022
# The structure has been converted into the P1 space group
# The structure has a 3D framework
# The original CSD entry FIYDOH is in the monoclinic crystal system
# The framework has been calculated to contain at least 10.0% void space
# The void calculation uses a probe of radius 1.32A, grid spacing 0.4
# H atom positions have been added when not included in the experimental data
# Generated hydrogen atom positions removed from atoms on special positions
#
###############################################################################

data_FIYDOH
_chemical_formula_moiety         '(C120 H128 Co18 N24 O52 V16)n'
_symmetry_cell_setting           triclinic
_symmetry_space_group_name_H-M   'P 1'
_symmetry_Int_Tables_number      1
_space_group_name_Hall           'P 1'
loop_
_symmetry_equiv_pos_site_id
_symmetry_equiv_pos_as_xyz
1 x,y,z
_cell_length_a                   30.4457(13)
_cell_length_b                   11.3540(5)
_cell_length_c                   11.5836(5)
_cell_angle_alpha                90
_cell_angle_beta                 106.5390(10)
_cell_angle_gamma                90
_cell_volume                     3838.55
loop_
_atom_site_label
_atom_site_type_symbol
_atom_site_fract_x
_atom_site_fract_y
_atom_site_fract_z
Co2 Co 0.5000 -0.0000 0.0000
O18 O 0.47313(9) 0.0836(3) 0.1320(3)
N8 N 0.54263(9) 0.1509(3) 0.0059(3)
Co2_2 Co 0.5000 -0.0000 1.0000
O6 O 0.44908(8) 0.0709(2) 0.8629(2)
V6 V 0.392386(17) 0.08915(4) 0.81860(4)
Co3 Co 0.2500 0.2500 -0.0000
Co2_3 Co 0.5000 1.0000 0.0000
V1 V 0.355188(17) 0.09031(5) 0.06062(4)
O1 O 0.29969(7) 0.1266(2) 0.02713(19)
O3 O 0.38764(10) 0.2043(3) 0.1051(2)
N2 N 0.26095(9) 0.2686(2) 0.2006(2)
C1 C 0.30818(11) 0.4767(3) 0.0784(3)
H1 H 0.2919 0.4784 0.1352
C2 C 0.33958(12) 0.5659(3) 0.0806(3)
H2 H 0.3444 0.6248 0.1387
C6 C 0.23717(10) 0.3482(3) 0.2441(3)
H5 H 0.2229 0.4091 0.1935
C7 C 0.23253(10) 0.3454(3) 0.3600(3)
H6 H 0.2158 0.4035 0.3852
C8 C 0.25309(11) 0.2549(3) 0.4384(3)
C9 C 0.27941(12) 0.1755(3) 0.3951(3)
H7 H 0.2951 0.1157 0.4449
C10 C 0.28255(12) 0.1848(3) 0.2780(3)
H8 H 0.3005 0.1303 0.2520
C14 C 0.42269(15) 0.7134(4) 0.0995(3)
H11 H 0.4206 0.6851 0.1731
C15 C 0.45144(14) 0.8067(4) 0.0961(3)
H12 H 0.4674 0.8418 0.1684
Co3_2 Co 0.2500 0.2500 1.0000
V7 V 0.607614(17) 0.91085(4) 0.18140(4)
V8 V 0.107614(17) 0.41085(4) 0.18140(4)
O12 O 0.13337(8) 0.4694(2) 0.0716(2)
O15 O 0.55092(8) 0.9291(2) 0.1371(2)
N4 N 0.19996(9) 0.1122(2) 0.0020(2)
N5 N 0.23905(9) 0.2314(2) 0.7994(2)
C19 C 0.14420(12) 0.0261(3) 0.0875(3)
H15 H 0.1286 0.0300 0.1458
C20 C 0.17572(11) 0.1124(3) 0.0818(3)
H16 H 0.1803 0.1741 0.1367
C21 C 0.26283(10) 0.1518(3) 0.7559(3)
H17 H 0.2771 0.0909 0.8065
C22 C 0.26747(10) 0.1546(3) 0.6400(3)
H18 H 0.2842 0.0965 0.6148
C23 C 0.24691(11) 0.2451(3) 0.5616(3)
C24 C 0.22059(12) 0.3245(3) 0.6049(3)
H19 H 0.2049 0.3843 0.5551
C25 C 0.21745(12) 0.3152(3) 0.7220(3)
H20 H 0.1995 0.3697 0.7480
Co2_4 Co 0.5000 1.0000 1.0000
O5 O 0.36663(8) 0.0306(2) 0.9284(2)
O7 O 0.52687(9) 0.9164(3) 0.8680(3)
N1 N 0.30004(9) 0.3878(2) 0.9980(2)
N3 N 0.45737(9) 0.8491(3) 0.9941(3)
C3 C 0.36392(11) 0.5665(3) 0.9948(3)
C4 C 0.35580(12) 0.4739(3) 0.9125(3)
H3 H 0.3714 0.4700 0.8542
C5 C 0.32428(11) 0.3876(3) 0.9182(3)
H4 H 0.3197 0.3259 0.8633
C11 C 0.43306(11) 0.7986(3) 0.8914(3)
H9 H 0.4367 0.8272 0.8194
C12 C 0.40277(11) 0.7059(3) 0.8861(3)
H10 H 0.3867 0.6738 0.8123
C13 C 0.39690(11) 0.6618(3) 0.9929(3)
V3 V 0.144812(17) 0.40969(5) 0.93938(4)
V4 V 0.107614(17) 0.58915(4) 0.68140(4)
O8 O 0.20031(7) 0.3734(2) 0.97287(19)
O9 O 0.13303(9) 0.5184(2) 0.8235(2)
O10 O 0.11236(10) 0.2957(3) 0.8949(2)
O11 O 0.11877(11) 0.7284(2) 0.6971(2)
O14 O 0.13337(8) 0.5306(2) 0.5716(2)
O17 O 0.05092(8) 0.5709(2) 0.6371(2)
C16 C 0.19182(11) 0.0233(3) 0.9216(3)
H13 H 0.2081 0.0216 0.8648
V2 V 0.392386(17) 0.91085(4) 0.31860(4)
O2 O 0.36697(9) 0.9816(2) 0.1765(2)
O4 O 0.38123(11) 0.7716(2) 0.3029(2)
Co4 Co 0.0000 0.5000 0.0000
O13 O 0.36663(8) 0.9694(2) 0.4284(2)
O16 O 0.44908(8) 0.9291(2) 0.3629(2)
N7 N 0.04263(9) 0.6509(3) 0.0059(3)
C18 C 0.13608(11) 0.9335(3) 0.0052(3)
C26 C 0.06694(11) 0.7014(3) 0.1086(3)
H21 H 0.0633 0.6728 0.1806
C27 C 0.09723(11) 0.7941(3) 0.1139(3)
H22 H 0.1133 0.8262 0.1877
C28 C 0.10310(11) 0.8382(3) 0.0071(3)
Co4_2 Co 1.0000 0.5000 1.0000
O15_2 O 0.05092(8) 0.4291(2) 0.1371(2)
O6_2 O 0.94908(8) 0.5709(2) 0.8629(2)
N3_2 N 0.95737(9) 0.3491(3) 0.9941(3)
C3_2 C 0.86392(11) 0.0665(3) 0.9948(3)
C11_2 C 0.93306(11) 0.2986(3) 0.8914(3)
H9_2 H 0.9367 0.3272 0.8194
C12_2 C 0.90277(11) 0.2059(3) 0.8861(3)
H10_2 H 0.8867 0.1738 0.8123
C13_2 C 0.89690(11) 0.1618(3) 0.9929(3)
V4_2 V 0.607614(17) 0.08915(4) 0.68140(4)
V6_2 V 0.892386(17) 0.58915(4) 0.81860(4)
O9_2 O 0.63303(9) 0.0184(2) 0.8235(2)
O11_2 O 0.61877(11) 0.2284(2) 0.6971(2)
O14_2 O 0.63337(8) 0.0306(2) 0.5716(2)
O17_2 O 0.55092(8) 0.0709(2) 0.6371(2)
Co3_3 Co 0.7500 0.7500 -0.0000
V1_2 V 0.855188(17) 0.59031(5) 0.06062(4)
V2_2 V 0.892386(17) 0.41085(4) 0.31860(4)
O1_2 O 0.79969(7) 0.6266(2) 0.02713(19)
O2_2 O 0.86697(9) 0.4816(2) 0.1765(2)
O3_2 O 0.88764(10) 0.7043(3) 0.1051(2)
O4_2 O 0.88123(11) 0.2716(2) 0.3029(2)
N2_2 N 0.76095(9) 0.7686(2) 0.2006(2)
C1_2 C 0.80818(11) 0.9767(3) 0.0784(3)
H1_2 H 0.7919 0.9784 0.1352
C6_2 C 0.73717(10) 0.8482(3) 0.2441(3)
H5_2 H 0.7229 0.9091 0.1935
C7_2 C 0.73253(10) 0.8454(3) 0.3600(3)
H6_2 H 0.7158 0.9035 0.3852
C8_2 C 0.75309(11) 0.7549(3) 0.4384(3)
C9_2 C 0.77941(12) 0.6755(3) 0.3951(3)
H7_2 H 0.7951 0.6157 0.4449
C10_2 C 0.78255(12) 0.6848(3) 0.2780(3)
H8_2 H 0.8005 0.6303 0.2520
Co3_4 Co 0.7500 0.7500 1.0000
O12_2 O 0.63337(8) 0.9694(2) 0.0716(2)
O13_2 O 0.86663(8) 0.4694(2) 0.4284(2)
O16_2 O 0.94908(8) 0.4291(2) 0.3629(2)
N4_2 N 0.69996(9) 0.6122(2) 0.0020(2)
N5_2 N 0.73905(9) 0.7314(2) 0.7994(2)
C18_2 C 0.63608(11) 0.4335(3) 0.0052(3)
C19_2 C 0.64420(12) 0.5261(3) 0.0875(3)
H15_2 H 0.6286 0.5300 0.1458
C20_2 C 0.67572(11) 0.6124(3) 0.0818(3)
H16_2 H 0.6803 0.6741 0.1367
C21_2 C 0.76283(10) 0.6518(3) 0.7559(3)
H17_2 H 0.7771 0.5909 0.8065
C22_2 C 0.76747(10) 0.6546(3) 0.6400(3)
H18_2 H 0.7842 0.5965 0.6148
C23_2 C 0.74691(11) 0.7451(3) 0.5616(3)
C24_2 C 0.72059(12) 0.8245(3) 0.6049(3)
H19_2 H 0.7049 0.8843 0.5551
C25_2 C 0.71745(12) 0.8152(3) 0.7220(3)
H20_2 H 0.6995 0.8697 0.7480
C26_2 C 0.56694(11) 0.2014(3) 0.1086(3)
H21_2 H 0.5633 0.1728 0.1806
C27_2 C 0.59723(11) 0.2941(3) 0.1139(3)
H22_2 H 0.6133 0.3262 0.1877
C28_2 C 0.60310(11) 0.3382(3) 0.0071(3)
O5_2 O 0.86663(8) 0.5306(2) 0.9284(2)
N1_2 N 0.80004(9) 0.8878(2) 0.9980(2)
C4_2 C 0.85580(12) 0.9739(3) 0.9125(3)
H3_2 H 0.8714 0.9700 0.8542
C5_2 C 0.82428(11) 0.8876(3) 0.9182(3)
H4_2 H 0.8197 0.8259 0.8633
V3_2 V 0.644812(17) 0.90969(5) 0.93938(4)
O8_2 O 0.70031(7) 0.8734(2) 0.97287(19)
O10_2 O 0.61236(10) 0.7957(3) 0.8949(2)
C16_2 C 0.69182(11) 0.5233(3) 0.9216(3)
H13_2 H 0.7081 0.5216 0.8648
C17 C 0.66042(12) 0.4341(3) 0.9194(3)
H14 H 0.6556 0.3752 0.8613
C29 C 0.57731(15) 0.2866(4) 0.9005(3)
H23 H 0.5794 0.3149 0.8269
C30 C 0.54856(14) 0.1933(4) 0.9039(3)
H24 H 0.5326 0.1582 0.8316
Co4_3 Co 0.0000 0.5000 0.5000
Co2_5 Co 0.5000 -0.0000 0.5000
O18_2 O 0.52687(9) 0.0836(3) 0.3680(3)
N8_2 N 0.45737(9) 0.1509(3) 0.4941(3)
Co1 Co 0.7500 0.2500 0.5000
Co2_6 Co 0.5000 1.0000 0.5000
V1_3 V 0.644812(17) 0.09031(5) 0.43938(4)
O1_3 O 0.70031(7) 0.1266(2) 0.47287(19)
O3_3 O 0.61236(10) 0.2043(3) 0.3949(2)
O7_2 O 0.47313(9) 0.9164(3) 0.6320(3)
N1_3 N 0.69996(9) 0.3878(2) 0.5020(2)
N2_3 N 0.73905(9) 0.2686(2) 0.2994(2)
N3_3 N 0.54263(9) 0.8491(3) 0.5059(3)
C1_3 C 0.69182(11) 0.4767(3) 0.4216(3)
H1_3 H 0.7081 0.4784 0.3648
C2_2 C 0.66042(12) 0.5659(3) 0.4194(3)
H2_2 H 0.6556 0.6248 0.3613
C3_3 C 0.63608(11) 0.5665(3) 0.5052(3)
C4_3 C 0.64420(12) 0.4739(3) 0.5875(3)
H3_3 H 0.6286 0.4700 0.6458
C5_3 C 0.67572(11) 0.3876(3) 0.5818(3)
H4_3 H 0.6803 0.3259 0.6367
C6_3 C 0.76283(10) 0.3482(3) 0.2559(3)
H5_3 H 0.7771 0.4091 0.3065
C7_3 C 0.76747(10) 0.3454(3) 0.1400(3)
H6_3 H 0.7842 0.4035 0.1148
C8_3 C 0.74691(11) 0.2549(3) 0.0616(3)
C9_3 C 0.72059(12) 0.1755(3) 0.1049(3)
H7_3 H 0.7049 0.1157 0.0551
C10_3 C 0.71745(12) 0.1848(3) 0.2220(3)
H8_3 H 0.6995 0.1303 0.2480
C11_3 C 0.56694(11) 0.7986(3) 0.6086(3)
H9_3 H 0.5633 0.8272 0.6806
C12_3 C 0.59723(11) 0.7059(3) 0.6139(3)
H10_3 H 0.6133 0.6738 0.6877
C13_3 C 0.60310(11) 0.6618(3) 0.5071(3)
C14_2 C 0.57731(15) 0.7134(4) 0.4005(3)
H11_2 H 0.5794 0.6851 0.3269
C15_2 C 0.54856(14) 0.8067(4) 0.4039(3)
H12_2 H 0.5326 0.8418 0.3316
V3_3 V 0.855188(17) 0.40969(5) 0.56062(4)
O8_3 O 0.79969(7) 0.3734(2) 0.52713(19)
O9_3 O 0.86697(9) 0.5184(2) 0.6765(2)
O10_3 O 0.88764(10) 0.2957(3) 0.6051(2)
O11_3 O 0.88123(11) 0.7284(2) 0.8029(2)
N4_3 N 0.80004(9) 0.1122(2) 0.4980(2)
N6 N 0.76095(9) 0.2314(2) 0.7006(2)
C16_3 C 0.80818(11) 0.0233(3) 0.5784(3)
H13_3 H 0.7919 0.0216 0.6352
C19_3 C 0.85580(12) 0.0261(3) 0.4125(3)
H15_3 H 0.8714 0.0300 0.3542
C20_3 C 0.82428(11) 0.1124(3) 0.4182(3)
H16_3 H 0.8197 0.1741 0.3633
C21_3 C 0.73717(10) 0.1518(3) 0.7441(3)
H17_3 H 0.7229 0.0909 0.6935
C22_3 C 0.73253(10) 0.1546(3) 0.8600(3)
H18_3 H 0.7158 0.0965 0.8852
C23_3 C 0.75309(11) 0.2451(3) 0.9384(3)
C24_3 C 0.77941(12) 0.3245(3) 0.8951(3)
H19_3 H 0.7951 0.3843 0.9449
C25_3 C 0.78255(12) 0.3152(3) 0.7780(3)
H20_3 H 0.8005 0.3697 0.7520
O2_3 O 0.63303(9) 0.9816(2) 0.3235(2)
O4_3 O 0.61877(11) 0.7716(2) 0.1971(2)
Co4_4 Co 1.0000 0.5000 0.5000
N7_2 N 0.95737(9) 0.6509(3) 0.4941(3)
C17_2 C 0.83958(12) 0.9341(3) 0.5806(3)
H14_2 H 0.8444 0.8752 0.6387
C18_3 C 0.86392(11) 0.9335(3) 0.4948(3)
C26_3 C 0.93306(11) 0.7014(3) 0.3914(3)
H21_3 H 0.9367 0.6728 0.3194
C27_3 C 0.90277(11) 0.7941(3) 0.3861(3)
H22_3 H 0.8867 0.8262 0.3123
C28_3 C 0.89690(11) 0.8382(3) 0.4929(3)
C29_2 C 0.92269(15) 0.7866(4) 0.5995(3)
H23_2 H 0.9206 0.8149 0.6731
C30_2 C 0.95144(14) 0.6933(4) 0.5961(3)
H24_2 H 0.9674 0.6582 0.6684
N3_4 N 0.04263(9) 0.3491(3) 0.5059(3)
C2_3 C 0.16042(12) 0.0659(3) 0.4194(3)
H2_3 H 0.1556 0.1248 0.3613
C3_4 C 0.13608(11) 0.0665(3) 0.5052(3)
C11_4 C 0.06694(11) 0.2986(3) 0.6086(3)
H9_4 H 0.0633 0.3272 0.6806
C12_4 C 0.09723(11) 0.2059(3) 0.6139(3)
H10_4 H 0.1133 0.1738 0.6877
C13_4 C 0.10310(11) 0.1618(3) 0.5071(3)
C14_3 C 0.07731(15) 0.2134(4) 0.4005(3)
H11_3 H 0.0794 0.1851 0.3269
C15_3 C 0.04856(14) 0.3067(4) 0.4039(3)
H12_3 H 0.0326 0.3418 0.3316
O9_4 O 0.36697(9) 0.0184(2) 0.6765(2)
O11_4 O 0.38123(11) 0.2284(2) 0.8029(2)
O18_3 O 0.02687(9) 0.5836(3) 0.3680(3)
Co1_2 Co 0.2500 0.7500 0.5000
V1_4 V 0.144812(17) 0.59031(5) 0.43938(4)
O1_4 O 0.20031(7) 0.6266(2) 0.47287(19)
O2_4 O 0.13303(9) 0.4816(2) 0.3235(2)
O3_4 O 0.11236(10) 0.7043(3) 0.3949(2)
O4_4 O 0.11877(11) 0.2716(2) 0.1971(2)
N1_4 N 0.19996(9) 0.8878(2) 0.5020(2)
N2_4 N 0.23905(9) 0.7686(2) 0.2994(2)
C1_4 C 0.19182(11) 0.9767(3) 0.4216(3)
H1_4 H 0.2081 0.9784 0.3648
C4_4 C 0.14420(12) 0.9739(3) 0.5875(3)
H3_4 H 0.1286 0.9700 0.6458
C5_4 C 0.17572(11) 0.8876(3) 0.5818(3)
H4_4 H 0.1803 0.8259 0.6367
C6_4 C 0.26283(10) 0.8482(3) 0.2559(3)
H5_4 H 0.2771 0.9091 0.3065
C7_4 C 0.26747(10) 0.8454(3) 0.1400(3)
H6_4 H 0.2842 0.9035 0.1148
C8_4 C 0.24691(11) 0.7549(3) 0.0616(3)
C9_4 C 0.22059(12) 0.6755(3) 0.1049(3)
H7_4 H 0.2049 0.6157 0.0551
C10_4 C 0.21745(12) 0.6848(3) 0.2220(3)
H8_4 H 0.1995 0.6303 0.2480
V3_4 V 0.355188(17) 0.90969(5) 0.56062(4)
O8_4 O 0.29969(7) 0.8734(2) 0.52713(19)
O10_4 O 0.38764(10) 0.7957(3) 0.6051(2)
N4_4 N 0.30004(9) 0.6122(2) 0.4980(2)
N6_2 N 0.26095(9) 0.7314(2) 0.7006(2)
C16_4 C 0.30818(11) 0.5233(3) 0.5784(3)
H13_4 H 0.2919 0.5216 0.6352
C17_3 C 0.33958(12) 0.4341(3) 0.5806(3)
H14_3 H 0.3444 0.3752 0.6387
C18_4 C 0.36392(11) 0.4335(3) 0.4948(3)
C19_4 C 0.35580(12) 0.5261(3) 0.4125(3)
H15_4 H 0.3714 0.5300 0.3542
C20_4 C 0.32428(11) 0.6124(3) 0.4182(3)
H16_4 H 0.3197 0.6741 0.3633
C26_4 C 0.43306(11) 0.2014(3) 0.3914(3)
H21_4 H 0.4367 0.1728 0.3194
C27_4 C 0.40277(11) 0.2941(3) 0.3861(3)
H22_4 H 0.3867 0.3262 0.3123
C28_4 C 0.39690(11) 0.3382(3) 0.4929(3)
C29_3 C 0.42269(15) 0.2866(4) 0.5995(3)
H23_3 H 0.4206 0.3149 0.6731
C30_3 C 0.45144(14) 0.1933(4) 0.5961(3)
H24_3 H 0.4674 0.1582 0.6684
C21_4 C 0.23717(10) 0.6518(3) 0.7441(3)
H17_4 H 0.2229 0.5909 0.6935
C22_4 C 0.23253(10) 0.6546(3) 0.8600(3)
H18_4 H 0.2158 0.5965 0.8852
C23_4 C 0.25309(11) 0.7451(3) 0.9384(3)
C24_4 C 0.27941(12) 0.8245(3) 0.8951(3)
H19_4 H 0.2951 0.8843 0.9449
C25_4 C 0.28255(12) 0.8152(3) 0.7780(3)
H20_4 H 0.3005 0.8697 0.7520
O7_3 O 0.97313(9) 0.4164(3) 0.6320(3)
Co4_5 Co 0.0000 0.5000 1.0000
C17_4 C 0.16042(12) 0.9341(3) 0.9194(3)
H14_4 H 0.1556 0.8752 0.8613
C29_4 C 0.07731(15) 0.7866(4) 0.9005(3)
H23_4 H 0.0794 0.8149 0.8269
C30_4 C 0.04856(14) 0.6933(4) 0.9039(3)
H24_4 H 0.0326 0.6582 0.8316
O7_4 O 0.02687(9) 0.4164(3) 0.8680(3)
Co4_6 Co 1.0000 0.5000 0.0000
C2_4 C 0.83958(12) 0.0659(3) 0.0806(3)
H2_4 H 0.8444 0.1248 0.1387
C14_4 C 0.92269(15) 0.2134(4) 0.0995(3)
H11_4 H 0.9206 0.1851 0.1731
C15_4 C 0.95144(14) 0.3067(4) 0.0961(3)
H12_4 H 0.9674 0.3418 0.1684
O18_4 O 0.97313(9) 0.5836(3) 0.1320(3)
loop_
_geom_bond_atom_site_label_1
_geom_bond_atom_site_label_2
_geom_bond_site_symmetry_1
_geom_bond_site_symmetry_2
O18 Co2 1_555 1_555
N8 Co2 1_555 1_555
Co2_2 O6 1_555 1_555
O6 V6 1_555 1_555
Co3 O1 1_555 1_555
V1 O1 1_555 1_555
O3 V1 1_555 1_555
N2 Co3 1_555 1_555
H1 C1 1_555 1_555
C2 C1 1_555 1_555
H2 C2 1_555 1_555
C6 N2 1_555 1_555
H5 C6 1_555 1_555
C7 C6 1_555 1_555
H6 C7 1_555 1_555
C8 C7 1_555 1_555
C9 C8 1_555 1_555
H7 C9 1_555 1_555
C10 N2 1_555 1_555
H8 C10 1_555 1_555
H11 C14 1_555 1_555
H12 C15 1_555 1_555
Co3_2 N5 1_555 1_555
V7 O15 1_555 1_555
V8 O12 1_555 1_555
O15 Co2_3 1_555 1_555
N4 Co3 1_555 1_555
N5 C21 1_555 1_555
H15 C19 1_555 1_555
C20 N4 1_555 1_555
H16 C20 1_555 1_555
C21 H17 1_555 1_555
C22 C21 1_555 1_555
H18 C22 1_555 1_555
C23 C8 1_555 1_555
C24 C23 1_555 1_555
H19 C24 1_555 1_555
C25 N5 1_555 1_555
H20 C25 1_555 1_555
C9 C10 1_555 1_555
C14 C15 1_555 1_555
C19 C20 1_555 1_555
C22 C23 1_555 1_555
C24 C25 1_555 1_555
O7 Co2_4 1_555 1_555
N1 Co3_2 1_555 1_555
N3 Co2_4 1_555 1_555
C4 C3 1_555 1_555
H3 C4 1_555 1_555
C5 N1 1_555 1_555
H4 C5 1_555 1_555
C11 N3 1_555 1_555
H9 C11 1_555 1_555
C12 C11 1_555 1_555
H10 C12 1_555 1_555
C13 C3 1_555 1_555
V3 O8 1_555 1_555
V4 O9 1_555 1_555
V6 O5 1_555 1_555
O8 Co3_2 1_555 1_555
O9 V3 1_555 1_555
O10 V3 1_555 1_555
O11 V4 1_555 1_555
O14 V4 1_555 1_555
O17 V4 1_555 1_555
H13 C16 1_555 1_555
C4 C5 1_555 1_555
C12 C13 1_555 1_555
V2 O2 1_555 1_555
O4 V2 1_555 1_555
Co4 N7 1_555 1_555
O13 V2 1_555 1_555
O16 V2 1_555 1_555
N7 C26 1_555 1_555
C26 H21 1_555 1_555
C27 C26 1_555 1_555
H22 C27 1_555 1_555
C28 C18 1_555 1_555
C27 C28 1_555 1_555
V8 O15_2 1_555 1_555
O15_2 Co4 1_555 1_555
Co4_2 O6_2 1_555 1_555
O6_2 V6_2 1_555 1_555
N3_2 Co4_2 1_555 1_555
C11_2 N3_2 1_555 1_555
H9_2 C11_2 1_555 1_555
C12_2 C11_2 1_555 1_555
H10_2 C12_2 1_555 1_555
C13_2 C3_2 1_555 1_555
V4_2 O9_2 1_555 1_555
O11_2 V4_2 1_555 1_555
O14_2 V4_2 1_555 1_555
O17_2 V4_2 1_555 1_555
C12_2 C13_2 1_555 1_555
Co3_3 O1_2 1_555 1_555
V1_2 O1_2 1_555 1_555
V2_2 O2_2 1_555 1_555
O2_2 V1_2 1_555 1_555
O3_2 V1_2 1_555 1_555
O4_2 V2_2 1_555 1_555
N2_2 Co3_3 1_555 1_555
H1_2 C1_2 1_555 1_555
C6_2 N2_2 1_555 1_555
H5_2 C6_2 1_555 1_555
C7_2 C6_2 1_555 1_555
H6_2 C7_2 1_555 1_555
C8_2 C7_2 1_555 1_555
C9_2 C8_2 1_555 1_555
H7_2 C9_2 1_555 1_555
C10_2 N2_2 1_555 1_555
H8_2 C10_2 1_555 1_555
Co3_4 N5_2 1_555 1_555
V7 O12_2 1_555 1_555
O13_2 V2_2 1_555 1_555
O16_2 V2_2 1_555 1_555
N4_2 Co3_3 1_555 1_555
N5_2 C21_2 1_555 1_555
N8 C26_2 1_555 1_555
C19_2 C18_2 1_555 1_555
H15_2 C19_2 1_555 1_555
C20_2 N4_2 1_555 1_555
H16_2 C20_2 1_555 1_555
C21_2 H17_2 1_555 1_555
C22_2 C21_2 1_555 1_555
H18_2 C22_2 1_555 1_555
C23_2 C8_2 1_555 1_555
C24_2 C23_2 1_555 1_555
H19_2 C24_2 1_555 1_555
C25_2 N5_2 1_555 1_555
H20_2 C25_2 1_555 1_555
C26_2 H21_2 1_555 1_555
C27_2 C26_2 1_555 1_555
H22_2 C27_2 1_555 1_555
C28_2 C18_2 1_555 1_555
C9_2 C10_2 1_555 1_555
C19_2 C20_2 1_555 1_555
C22_2 C23_2 1_555 1_555
C24_2 C25_2 1_555 1_555
C27_2 C28_2 1_555 1_555
N1_2 Co3_4 1_555 1_555
H3_2 C4_2 1_555 1_555
C5_2 N1_2 1_555 1_555
H4_2 C5_2 1_555 1_555
V3_2 O8_2 1_555 1_555
V6_2 O5_2 1_555 1_555
O8_2 Co3_4 1_555 1_555
O10_2 V3_2 1_555 1_555
H13_2 C16_2 1_555 1_555
C17 C16_2 1_555 1_555
H14 C17 1_555 1_555
H23 C29 1_555 1_555
H24 C30 1_555 1_555
C4_2 C5_2 1_555 1_555
C29 C30 1_555 1_555
Co2_5 O17_2 1_555 1_555
O18_2 Co2_5 1_555 1_555
N8_2 Co2_5 1_555 1_555
Co1 O1_3 1_555 1_555
V1_3 O1_3 1_555 1_555
O3_3 V1_3 1_555 1_555
O14_2 V1_3 1_555 1_555
O7_2 Co2_6 1_555 1_555
N1_3 Co1 1_555 1_555
N2_3 Co1 1_555 1_555
N3_3 Co2_6 1_555 1_555
C1_3 N1_3 1_555 1_555
H1_3 C1_3 1_555 1_555
C2_2 C1_3 1_555 1_555
H2_2 C2_2 1_555 1_555
C3_3 C2_2 1_555 1_555
C4_3 C3_3 1_555 1_555
H3_3 C4_3 1_555 1_555
C5_3 N1_3 1_555 1_555
H4_3 C5_3 1_555 1_555
C6_3 N2_3 1_555 1_555
H5_3 C6_3 1_555 1_555
C7_3 C6_3 1_555 1_555
H6_3 C7_3 1_555 1_555
C8_3 C7_3 1_555 1_555
C9_3 C8_3 1_555 1_555
H7_3 C9_3 1_555 1_555
C10_3 N2_3 1_555 1_555
H8_3 C10_3 1_555 1_555
C11_3 N3_3 1_555 1_555
H9_3 C11_3 1_555 1_555
C12_3 C11_3 1_555 1_555
H10_3 C12_3 1_555 1_555
C13_3 C3_3 1_555 1_555
C14_2 C13_3 1_555 1_555
H11_2 C14_2 1_555 1_555
C15_2 N3_3 1_555 1_555
H12_2 C15_2 1_555 1_555
V3_3 O8_3 1_555 1_555
V6_2 O9_3 1_555 1_555
O8_3 Co1 1_555 1_555
O9_3 V3_3 1_555 1_555
O10_3 V3_3 1_555 1_555
O11_3 V6_2 1_555 1_555
O13_2 V3_3 1_555 1_555
O16 Co2_6 1_555 1_555
N4_3 Co1 1_555 1_555
N6 Co1 1_555 1_555
C16_3 N4_3 1_555 1_555
H13_3 C16_3 1_555 1_555
H15_3 C19_3 1_555 1_555
C20_3 N4_3 1_555 1_555
H16_3 C20_3 1_555 1_555
C4_3 C5_3 1_555 1_555
C9_3 C10_3 1_555 1_555
C12_3 C13_3 1_555 1_555
C14_2 C15_2 1_555 1_555
C19_3 C20_3 1_555 1_555
N6 C21_3 1_555 1_555
C21_3 H17_3 1_555 1_555
C22_3 C21_3 1_555 1_555
H18_3 C22_3 1_555 1_555
C24_3 C23_3 1_555 1_555
H19_3 C24_3 1_555 1_555
C25_3 N6 1_555 1_555
H20_3 C25_3 1_555 1_555
C22_3 C23_3 1_555 1_555
C24_3 C25_3 1_555 1_555
V7 O2_3 1_555 1_555
O4_3 V7 1_555 1_555
Co4_4 N7_2 1_555 1_555
N7_2 C26_3 1_555 1_555
H14_2 C17_2 1_555 1_555
C18_3 C17_2 1_555 1_555
C26_3 H21_3 1_555 1_555
C27_3 C26_3 1_555 1_555
H22_3 C27_3 1_555 1_555
C28_3 C18_3 1_555 1_555
C29_2 C28_3 1_555 1_555
H23_2 C29_2 1_555 1_555
C30_2 N7_2 1_555 1_555
H24_2 C30_2 1_555 1_555
C27_3 C28_3 1_555 1_555
C29_2 C30_2 1_555 1_555
Co4_3 O17 1_555 1_555
N3_4 Co4_3 1_555 1_555
H2_3 C2_3 1_555 1_555
C3_4 C2_3 1_555 1_555
C11_4 N3_4 1_555 1_555
H9_4 C11_4 1_555 1_555
C12_4 C11_4 1_555 1_555
H10_4 C12_4 1_555 1_555
C13_4 C3_4 1_555 1_555
C14_3 C13_4 1_555 1_555
H11_3 C14_3 1_555 1_555
C15_3 N3_4 1_555 1_555
H12_3 C15_3 1_555 1_555
V6 O9_4 1_555 1_555
O11_4 V6 1_555 1_555
O18_3 Co4_3 1_555 1_555
C12_4 C13_4 1_555 1_555
C14_3 C15_3 1_555 1_555
Co1_2 O1_4 1_555 1_555
V1_4 O1_4 1_555 1_555
V8 O2_4 1_555 1_555
O2_4 V1_4 1_555 1_555
O3_4 V1_4 1_555 1_555
O4_4 V8 1_555 1_555
O14 V1_4 1_555 1_555
N1_4 Co1_2 1_555 1_555
N2_4 Co1_2 1_555 1_555
C1_4 N1_4 1_555 1_555
H1_4 C1_4 1_555 1_555
H3_4 C4_4 1_555 1_555
C5_4 N1_4 1_555 1_555
H4_4 C5_4 1_555 1_555
C6_4 N2_4 1_555 1_555
H5_4 C6_4 1_555 1_555
C7_4 C6_4 1_555 1_555
H6_4 C7_4 1_555 1_555
C8_4 C7_4 1_555 1_555
C9_4 C8_4 1_555 1_555
H7_4 C9_4 1_555 1_555
C10_4 N2_4 1_555 1_555
H8_4 C10_4 1_555 1_555
V3_4 O8_4 1_555 1_555
O8_4 Co1_2 1_555 1_555
O10_4 V3_4 1_555 1_555
O13 V3_4 1_555 1_555
N4_4 Co1_2 1_555 1_555
N6_2 Co1_2 1_555 1_555
N8_2 C26_4 1_555 1_555
C16_4 N4_4 1_555 1_555
H13_4 C16_4 1_555 1_555
C17_3 C16_4 1_555 1_555
H14_3 C17_3 1_555 1_555
C18_4 C17_3 1_555 1_555
C19_4 C18_4 1_555 1_555
H15_4 C19_4 1_555 1_555
C20_4 N4_4 1_555 1_555
H16_4 C20_4 1_555 1_555
C26_4 H21_4 1_555 1_555
C27_4 C26_4 1_555 1_555
H22_4 C27_4 1_555 1_555
C28_4 C18_4 1_555 1_555
C29_3 C28_4 1_555 1_555
H23_3 C29_3 1_555 1_555
C30_3 N8_2 1_555 1_555
H24_3 C30_3 1_555 1_555
C4_4 C5_4 1_555 1_555
C9_4 C10_4 1_555 1_555
C19_4 C20_4 1_555 1_555
C27_4 C28_4 1_555 1_555
C29_3 C30_3 1_555 1_555
N6_2 C21_4 1_555 1_555
C21_4 H17_4 1_555 1_555
C22_4 C21_4 1_555 1_555
H18_4 C22_4 1_555 1_555
C24_4 C23_4 1_555 1_555
H19_4 C24_4 1_555 1_555
C25_4 N6_2 1_555 1_555
H20_4 C25_4 1_555 1_555
C22_4 C23_4 1_555 1_555
C24_4 C25_4 1_555 1_555
O7_3 Co4_4 1_555 1_555
O16_2 Co4_4 1_555 1_555
H14_4 C17_4 1_555 1_555
H23_4 C29_4 1_555 1_555
H24_4 C30_4 1_555 1_555
C29_4 C30_4 1_555 1_555
O7_4 Co4_5 1_555 1_555
H2_4 C2_4 1_555 1_555
H11_4 C14_4 1_555 1_555
H12_4 C15_4 1_555 1_555
O18_4 Co4_6 1_555 1_555
C14_4 C15_4 1_555 1_555

#END
