
###############################################################################
#
# This file contains modified crystal structure data generated from the
# MOF subset of the Cambridge Structural Database (CSD) v543 
# hosted by the Cambridge Crystallographic Data Centre (CCDC).
#
# This work is licensed under the Creative Commons
# Attribution-NonCommercial-ShareAlike 4.0 International License.
# To view a copy of this license, visit
# http://creativecommons.org/licenses/by-nc-sa/4.0/
# or send a letter to
# Creative Commons, PO Box 1866, Mountain View, CA 94042, USA.
#
# CIF created using the CSD Python API on 29 September 2022
# The structure has been converted into the P1 space group
# The structure has a 3D framework
# The original CSD entry FIYSAK is in the tetragonal crystal system
# The framework has been calculated to contain at least 10.0% void space
# The void calculation uses a probe of radius 1.32A, grid spacing 0.4
# H atom positions have been added when not included in the experimental data
#
###############################################################################

data_FIYSAK
_chemical_formula_moiety         '(C120 H56 Al16 N24 O71)n'
_symmetry_cell_setting           triclinic
_symmetry_space_group_name_H-M   'P 1'
_symmetry_Int_Tables_number      1
_space_group_name_Hall           'P 1'
loop_
_symmetry_equiv_pos_site_id
_symmetry_equiv_pos_as_xyz
1 x,y,z
_cell_length_a                   21.4002(3)
_cell_length_b                   21.4002(3)
_cell_length_c                   10.67754(17)
_cell_angle_alpha                90
_cell_angle_beta                 90
_cell_angle_gamma                90
_cell_volume                     4889.98
loop_
_atom_site_label
_atom_site_type_symbol
_atom_site_fract_x
_atom_site_fract_y
_atom_site_fract_z
_atom_site_U_iso_or_equiv
_atom_site_thermal_displace_type
Al1 Al 0.2447(4) 0.6869(3) 0.17039 0.0084 Uiso
O1 O 0.2549(9) 0.7439(8) 0.293(3) 0.0084 Uiso
O2 O 0.2472(8) 0.6157(9) 0.299(2) 0.0084 Uiso
O3 O 0.3088(9) 0.6563(7) 0.447(2) 0.0084 Uiso
O4 O 0.2326(8) 0.6188(9) 0.050(2) 0.0084 Uiso
N1 N 0.2879(12) 0.500 0.663(3) 0.0084 Uiso
C1 C 0.2631(13) 0.6200(12) 0.415(3) 0.0084 Uiso
C2 C 0.2717(11) 0.5564(12) 0.471(3) 0.0084 Uiso
C3 C 0.2802(12) 0.5569(12) 0.601(2) 0.0084 Uiso
C4 C 0.2660(15) 0.500 0.405(4) 0.0084 Uiso
O6 O 0.2472(8) 0.3843(9) 0.299(2) 0.0084 Uiso
O7 O 0.3088(9) 0.3437(7) 0.447(2) 0.0084 Uiso
C9 C 0.2631(13) 0.3800(12) 0.415(3) 0.0084 Uiso
C10 C 0.2717(11) 0.4436(12) 0.471(3) 0.0084 Uiso
C11 C 0.2802(12) 0.4431(12) 0.601(2) 0.0084 Uiso
O8 O 0.2326(8) 0.3812(9) 0.050(2) 0.0084 Uiso
Al2 Al 0.2447(4) 0.3131(3) 0.17039 0.0084 Uiso
O10 O 0.2549(9) 0.2561(8) 0.293(3) 0.0084 Uiso
Al3 Al 0.3131(3) 0.7447(4) 0.42039 0.0084 Uiso
Al5 Al 0.3131(3) 0.2553(4) 0.42039 0.0084 Uiso
O11 O 0.2439(8) 0.7451(9) 0.043(3) 0.0084 Uiso
O12 O 0.2439(8) 0.2549(9) 0.043(3) 0.0084 Uiso
O13 O 0.1563(7) 0.6912(9) 0.197(2) 0.0084 Uiso
O14 O 0.1563(7) 0.3088(9) 0.197(2) 0.0084 Uiso
O15 O 0.3327(7) 0.6802(8) 0.148(2) 0.0084 Uiso
O16 O 0.3327(7) 0.3198(8) 0.148(2) 0.0084 Uiso
H2 H 0.228587 0.5 0.0345458 . .
H3 H 0.280792 0.600769 0.652671 . .
H4 H 0.257321 0.5 0.304505 . .
H6 H 0.280792 0.399231 0.652671 . .
O5 O 0.1802(8) 0.6673(7) 0.898(2) 0.0084 Uiso
N2 N 0.1121(13) 0.500 0.754(3) 0.0084 Uiso
C5 C 0.1977(10) 0.6156(13) 0.951(3) 0.0084 Uiso
C6 C 0.1777(12) 0.5550(12) 0.894(3) 0.0084 Uiso
C7 C 0.1420(9) 0.5562(11) 0.785(3) 0.0084 Uiso
C8 C 0.1987(17) 0.500 0.952(3) 0.0084 Uiso
O9 O 0.1802(8) 0.3327(7) 0.898(2) 0.0084 Uiso
C12 C 0.1977(10) 0.3844(13) 0.951(3) 0.0084 Uiso
C13 C 0.1777(12) 0.4450(12) 0.894(3) 0.0084 Uiso
C14 C 0.1420(9) 0.4438(11) 0.785(3) 0.0084 Uiso
Al4 Al 0.1869(3) 0.7553(4) 0.92039 0.0084 Uiso
Al6 Al 0.1869(3) 0.2447(4) 0.92039 0.0084 Uiso
H1 H 0.137596 0.401963 0.727614 . .
H5 H 0.137596 0.598037 0.727614 . .
Al1_2 Al 0.2553(4) 0.1869(3) 0.67039 0.0084 Uiso
O1_2 O 0.2451(9) 0.2439(8) 0.793(3) 0.0084 Uiso
O2_2 O 0.2528(8) 0.1157(9) 0.799(2) 0.0084 Uiso
O3_2 O 0.1912(9) 0.1563(7) 0.947(2) 0.0084 Uiso
O4_2 O 0.2674(8) 0.1188(9) 0.550(2) 0.0084 Uiso
O5_2 O 0.3198(8) 0.1673(7) 0.398(2) 0.0084 Uiso
N2_2 N 0.3879(13) -0.000 0.254(3) 0.0084 Uiso
C1_2 C 0.2369(13) 0.1200(12) 0.915(3) 0.0084 Uiso
C2_2 C 0.2283(11) 0.0564(12) 0.971(3) 0.0084 Uiso
C4_2 C 0.2340(15) -0.000 0.905(4) 0.0084 Uiso
C5_2 C 0.3023(10) 0.1156(13) 0.451(3) 0.0084 Uiso
C6_2 C 0.3223(12) 0.0550(12) 0.394(3) 0.0084 Uiso
C7_2 C 0.3580(9) 0.0562(11) 0.285(3) 0.0084 Uiso
C8_2 C 0.3013(17) -0.000 0.452(3) 0.0084 Uiso
O11_2 O 0.2561(8) 0.2451(9) 0.543(3) 0.0084 Uiso
O13_2 O 0.3437(7) 0.1912(9) 0.697(2) 0.0084 Uiso
O15_2 O 0.1673(7) 0.1802(8) 0.648(2) 0.0084 Uiso
H2_2 H 0.271413 -5.55112e-17 0.534546 . .
H4_2 H 0.242679 -5.55112e-17 0.804505 . .
H5_2 H 0.362404 0.0980368 0.227614 . .
N2_3 N 0.3879(13) 1.000 0.254(3) 0.0084 Uiso
C4_3 C 0.2340(15) 1.000 0.905(4) 0.0084 Uiso
C8_3 C 0.3013(17) 1.000 0.452(3) 0.0084 Uiso
O6_2 O 0.2528(8) 0.8843(9) 0.799(2) 0.0084 Uiso
O7_2 O 0.1912(9) 0.8437(7) 0.947(2) 0.0084 Uiso
C9_2 C 0.2369(13) 0.8800(12) 0.915(3) 0.0084 Uiso
C10_2 C 0.2283(11) 0.9436(12) 0.971(3) 0.0084 Uiso
O8_2 O 0.2674(8) 0.8812(9) 0.550(2) 0.0084 Uiso
O9_2 O 0.3198(8) 0.8327(7) 0.398(2) 0.0084 Uiso
C12_2 C 0.3023(10) 0.8844(13) 0.451(3) 0.0084 Uiso
C13_2 C 0.3223(12) 0.9450(12) 0.394(3) 0.0084 Uiso
C14_2 C 0.3580(9) 0.9438(11) 0.285(3) 0.0084 Uiso
Al2_2 Al 0.2553(4) 0.8131(3) 0.67039 0.0084 Uiso
O10_2 O 0.2451(9) 0.7561(8) 0.793(3) 0.0084 Uiso
O12_2 O 0.2561(8) 0.7549(9) 0.543(3) 0.0084 Uiso
O14_2 O 0.3437(7) 0.8088(9) 0.697(2) 0.0084 Uiso
O16_2 O 0.1673(7) 0.8198(8) 0.648(2) 0.0084 Uiso
H1_2 H 0.362404 0.901963 0.227614 . .
H2_3 H 0.271413 1 0.534546 . .
H4_3 H 0.242679 1 0.804505 . .
O2_3 O 0.3843(9) 0.7472(8) 0.549(2) 0.0084 Uiso
O4_3 O 0.3812(9) 0.7326(8) 0.300(2) 0.0084 Uiso
N1_2 N 0.500 0.7879(12) 0.913(3) 0.0084 Uiso
N2_4 N 0.500 0.6121(13) 0.004(3) 0.0084 Uiso
C1_3 C 0.3800(12) 0.7631(13) 0.665(3) 0.0084 Uiso
C2_3 C 0.4436(12) 0.7717(11) 0.721(3) 0.0084 Uiso
C3_2 C 0.4431(12) 0.7802(12) 0.851(2) 0.0084 Uiso
C4_4 C 0.500 0.7660(15) 0.655(4) 0.0084 Uiso
C5_3 C 0.3844(13) 0.6977(10) 0.201(3) 0.0084 Uiso
C6_3 C 0.4450(12) 0.6777(12) 0.144(3) 0.0084 Uiso
C7_3 C 0.4438(11) 0.6420(9) 0.035(3) 0.0084 Uiso
C8_4 C 0.500 0.6987(17) 0.202(3) 0.0084 Uiso
O6_3 O 0.6157(9) 0.7472(8) 0.549(2) 0.0084 Uiso
O7_3 O 0.6563(7) 0.8088(9) 0.697(2) 0.0084 Uiso
C9_3 C 0.6200(12) 0.7631(13) 0.665(3) 0.0084 Uiso
C10_3 C 0.5564(12) 0.7717(11) 0.721(3) 0.0084 Uiso
C11_2 C 0.5569(12) 0.7802(12) 0.851(2) 0.0084 Uiso
O8_3 O 0.6188(9) 0.7326(8) 0.300(2) 0.0084 Uiso
O9_3 O 0.6673(7) 0.6802(8) 0.148(2) 0.0084 Uiso
C12_3 C 0.6156(13) 0.6977(10) 0.201(3) 0.0084 Uiso
C13_3 C 0.5550(12) 0.6777(12) 0.144(3) 0.0084 Uiso
C14_3 C 0.5562(11) 0.6420(9) 0.035(3) 0.0084 Uiso
Al2_3 Al 0.6869(3) 0.7447(4) 0.42039 0.0084 Uiso
O10_3 O 0.7439(8) 0.7549(9) 0.543(3) 0.0084 Uiso
Al5_2 Al 0.7447(4) 0.8131(3) 0.67039 0.0084 Uiso
Al6_2 Al 0.7553(4) 0.6869(3) 0.17039 0.0084 Uiso
O12_3 O 0.7451(9) 0.7439(8) 0.293(3) 0.0084 Uiso
O14_3 O 0.6912(9) 0.6563(7) 0.447(2) 0.0084 Uiso
O16_3 O 0.6802(8) 0.8327(7) 0.398(2) 0.0084 Uiso
H2_4 H 0.5 0.728587 0.284546 . .
H3_2 H 0.399231 0.780792 0.902671 . .
H4_4 H 0.5 0.757321 0.554505 . .
H6_2 H 0.600769 0.780792 0.902671 . .
N1_3 N 0.000 0.7121(12) 0.413(3) 0.0084 Uiso
C4_5 C 0.000 0.7340(15) 0.155(4) 0.0084 Uiso
O6_4 O 0.1157(9) 0.7528(8) 0.049(2) 0.0084 Uiso
C9_4 C 0.1200(12) 0.7369(13) 0.165(3) 0.0084 Uiso
C10_4 C 0.0564(12) 0.7283(11) 0.221(3) 0.0084 Uiso
C11_3 C 0.0569(12) 0.7198(12) 0.351(2) 0.0084 Uiso
H4_5 H 5.55112e-17 0.742679 0.0545046 . .
H6_3 H 0.100769 0.719208 0.402671 . .
N2_5 N 0.000 0.8879(13) 0.504(3) 0.0084 Uiso
C8_5 C 0.000 0.8013(17) 0.702(3) 0.0084 Uiso
O8_4 O 0.1188(9) 0.7674(8) 0.800(2) 0.0084 Uiso
C12_4 C 0.1156(13) 0.8023(10) 0.701(3) 0.0084 Uiso
C13_4 C 0.0550(12) 0.8223(12) 0.644(3) 0.0084 Uiso
C14_4 C 0.0562(11) 0.8580(9) 0.535(3) 0.0084 Uiso
H1_3 H 0.0980368 0.862404 0.477614 . .
H2_5 H 5.55112e-17 0.771413 0.784546 . .
O1_3 O 0.7561(8) 0.7451(9) 0.043(3) 0.0084 Uiso
O2_4 O 0.8843(9) 0.7528(8) 0.049(2) 0.0084 Uiso
O3_3 O 0.8437(7) 0.6912(9) 0.197(2) 0.0084 Uiso
N1_4 N 1.000 0.7121(12) 0.413(3) 0.0084 Uiso
C1_4 C 0.8800(12) 0.7369(13) 0.165(3) 0.0084 Uiso
C2_4 C 0.9436(12) 0.7283(11) 0.221(3) 0.0084 Uiso
C3_3 C 0.9431(12) 0.7198(12) 0.351(2) 0.0084 Uiso
C4_6 C 1.000 0.7340(15) 0.155(4) 0.0084 Uiso
H3_3 H 0.899231 0.719208 0.402671 . .
H4_6 H 1 0.742679 0.0545046 . .
Al1_3 Al 0.8131(3) 0.7553(4) 0.92039 0.0084 Uiso
O4_4 O 0.8812(9) 0.7674(8) 0.800(2) 0.0084 Uiso
O5_3 O 0.8327(7) 0.8198(8) 0.648(2) 0.0084 Uiso
N2_6 N 1.000 0.8879(13) 0.504(3) 0.0084 Uiso
C5_4 C 0.8844(13) 0.8023(10) 0.701(3) 0.0084 Uiso
C6_4 C 0.9450(12) 0.8223(12) 0.644(3) 0.0084 Uiso
C7_4 C 0.9438(11) 0.8580(9) 0.535(3) 0.0084 Uiso
C8_6 C 1.000 0.8013(17) 0.702(3) 0.0084 Uiso
O11_3 O 0.7549(9) 0.7561(8) 0.793(3) 0.0084 Uiso
O13_3 O 0.8088(9) 0.8437(7) 0.947(2) 0.0084 Uiso
O15_3 O 0.8198(8) 0.6673(7) 0.898(2) 0.0084 Uiso
H2_6 H 1 0.771413 0.784546 . .
H5_3 H 0.901963 0.862404 0.477614 . .
Al1_4 Al 0.7447(4) 0.1869(3) 0.67039 0.0084 Uiso
O1_4 O 0.7549(9) 0.2439(8) 0.793(3) 0.0084 Uiso
O2_5 O 0.7472(8) 0.1157(9) 0.799(2) 0.0084 Uiso
O3_4 O 0.8088(9) 0.1563(7) 0.947(2) 0.0084 Uiso
O4_5 O 0.7326(8) 0.1188(9) 0.550(2) 0.0084 Uiso
O5_4 O 0.6802(8) 0.1673(7) 0.398(2) 0.0084 Uiso
N2_7 N 0.6121(13) -0.000 0.254(3) 0.0084 Uiso
C1_5 C 0.7631(13) 0.1200(12) 0.915(3) 0.0084 Uiso
C2_5 C 0.7717(11) 0.0564(12) 0.971(3) 0.0084 Uiso
C4_7 C 0.7660(15) -0.000 0.905(4) 0.0084 Uiso
C5_5 C 0.6977(10) 0.1156(13) 0.451(3) 0.0084 Uiso
C6_5 C 0.6777(12) 0.0550(12) 0.394(3) 0.0084 Uiso
C7_5 C 0.6420(9) 0.0562(11) 0.285(3) 0.0084 Uiso
C8_7 C 0.6987(17) -0.000 0.452(3) 0.0084 Uiso
Al3_2 Al 0.8131(3) 0.2447(4) 0.92039 0.0084 Uiso
Al4_2 Al 0.6869(3) 0.2553(4) 0.42039 0.0084 Uiso
O11_4 O 0.7439(8) 0.2451(9) 0.543(3) 0.0084 Uiso
O13_4 O 0.6563(7) 0.1912(9) 0.697(2) 0.0084 Uiso
O15_4 O 0.8327(7) 0.1802(8) 0.648(2) 0.0084 Uiso
H2_7 H 0.728587 -5.55112e-17 0.534546 . .
H4_7 H 0.757321 -5.55112e-17 0.804505 . .
H5_4 H 0.637596 0.0980368 0.227614 . .
N2_8 N 0.6121(13) 1.000 0.254(3) 0.0084 Uiso
C4_8 C 0.7660(15) 1.000 0.905(4) 0.0084 Uiso
C8_8 C 0.6987(17) 1.000 0.452(3) 0.0084 Uiso
O6_5 O 0.7472(8) 0.8843(9) 0.799(2) 0.0084 Uiso
C9_5 C 0.7631(13) 0.8800(12) 0.915(3) 0.0084 Uiso
C10_5 C 0.7717(11) 0.9436(12) 0.971(3) 0.0084 Uiso
O8_5 O 0.7326(8) 0.8812(9) 0.550(2) 0.0084 Uiso
C12_5 C 0.6977(10) 0.8844(13) 0.451(3) 0.0084 Uiso
C13_5 C 0.6777(12) 0.9450(12) 0.394(3) 0.0084 Uiso
C14_5 C 0.6420(9) 0.9438(11) 0.285(3) 0.0084 Uiso
H1_4 H 0.637596 0.901963 0.227614 . .
H2_8 H 0.728587 1 0.534546 . .
H4_8 H 0.757321 1 0.804505 . .
O2_6 O 0.7528(8) 0.6157(9) 0.299(2) 0.0084 Uiso
O4_6 O 0.7674(8) 0.6188(9) 0.050(2) 0.0084 Uiso
N1_5 N 0.7121(12) 0.500 0.663(3) 0.0084 Uiso
C1_6 C 0.7369(13) 0.6200(12) 0.415(3) 0.0084 Uiso
C2_6 C 0.7283(11) 0.5564(12) 0.471(3) 0.0084 Uiso
C3_4 C 0.7198(12) 0.5569(12) 0.601(2) 0.0084 Uiso
C4_9 C 0.7340(15) 0.500 0.405(4) 0.0084 Uiso
O6_6 O 0.7528(8) 0.3843(9) 0.299(2) 0.0084 Uiso
O7_4 O 0.6912(9) 0.3437(7) 0.447(2) 0.0084 Uiso
C9_6 C 0.7369(13) 0.3800(12) 0.415(3) 0.0084 Uiso
C10_6 C 0.7283(11) 0.4436(12) 0.471(3) 0.0084 Uiso
C11_4 C 0.7198(12) 0.4431(12) 0.601(2) 0.0084 Uiso
O8_6 O 0.7674(8) 0.3812(9) 0.050(2) 0.0084 Uiso
Al2_4 Al 0.7553(4) 0.3131(3) 0.17039 0.0084 Uiso
O10_4 O 0.7451(9) 0.2561(8) 0.293(3) 0.0084 Uiso
O12_4 O 0.7561(8) 0.2549(9) 0.043(3) 0.0084 Uiso
O14_4 O 0.8437(7) 0.3088(9) 0.197(2) 0.0084 Uiso
O16_4 O 0.6673(7) 0.3198(8) 0.148(2) 0.0084 Uiso
H2_9 H 0.771413 0.5 0.0345458 . .
H3_4 H 0.719208 0.600769 0.652671 . .
H4_9 H 0.742679 0.5 0.304505 . .
H6_4 H 0.719208 0.399231 0.652671 . .
N2_9 N 0.8879(13) 0.500 0.754(3) 0.0084 Uiso
C5_6 C 0.8023(10) 0.6156(13) 0.951(3) 0.0084 Uiso
C6_6 C 0.8223(12) 0.5550(12) 0.894(3) 0.0084 Uiso
C7_6 C 0.8580(9) 0.5562(11) 0.785(3) 0.0084 Uiso
C8_9 C 0.8013(17) 0.500 0.952(3) 0.0084 Uiso
O9_4 O 0.8198(8) 0.3327(7) 0.898(2) 0.0084 Uiso
C12_6 C 0.8023(10) 0.3844(13) 0.951(3) 0.0084 Uiso
C13_6 C 0.8223(12) 0.4450(12) 0.894(3) 0.0084 Uiso
C14_6 C 0.8580(9) 0.4438(11) 0.785(3) 0.0084 Uiso
H1_5 H 0.862404 0.401963 0.727614 . .
H5_5 H 0.862404 0.598037 0.727614 . .
N1_6 N 0.000 0.2879(12) 0.413(3) 0.0084 Uiso
C4_10 C 0.000 0.2660(15) 0.155(4) 0.0084 Uiso
O6_7 O 0.1157(9) 0.2472(8) 0.049(2) 0.0084 Uiso
C9_7 C 0.1200(12) 0.2631(13) 0.165(3) 0.0084 Uiso
C10_7 C 0.0564(12) 0.2717(11) 0.221(3) 0.0084 Uiso
C11_5 C 0.0569(12) 0.2802(12) 0.351(2) 0.0084 Uiso
H4_10 H 5.55112e-17 0.257321 0.0545046 . .
H6_5 H 0.100769 0.280792 0.402671 . .
N2_10 N 0.000 0.1121(13) 0.504(3) 0.0084 Uiso
C8_10 C 0.000 0.1987(17) 0.702(3) 0.0084 Uiso
O8_7 O 0.1188(9) 0.2326(8) 0.800(2) 0.0084 Uiso
C12_7 C 0.1156(13) 0.1977(10) 0.701(3) 0.0084 Uiso
C13_7 C 0.0550(12) 0.1777(12) 0.644(3) 0.0084 Uiso
C14_7 C 0.0562(11) 0.1420(9) 0.535(3) 0.0084 Uiso
H1_6 H 0.0980368 0.137596 0.477614 . .
H2_10 H 5.55112e-17 0.228587 0.784546 . .
O2_7 O 0.8843(9) 0.2472(8) 0.049(2) 0.0084 Uiso
N1_7 N 1.000 0.2879(12) 0.413(3) 0.0084 Uiso
C1_7 C 0.8800(12) 0.2631(13) 0.165(3) 0.0084 Uiso
C2_7 C 0.9436(12) 0.2717(11) 0.221(3) 0.0084 Uiso
C3_5 C 0.9431(12) 0.2802(12) 0.351(2) 0.0084 Uiso
C4_11 C 1.000 0.2660(15) 0.155(4) 0.0084 Uiso
H3_5 H 0.899231 0.280792 0.402671 . .
H4_11 H 1 0.257321 0.0545046 . .
O4_7 O 0.8812(9) 0.2326(8) 0.800(2) 0.0084 Uiso
N2_11 N 1.000 0.1121(13) 0.504(3) 0.0084 Uiso
C5_7 C 0.8844(13) 0.1977(10) 0.701(3) 0.0084 Uiso
C6_7 C 0.9450(12) 0.1777(12) 0.644(3) 0.0084 Uiso
C7_7 C 0.9438(11) 0.1420(9) 0.535(3) 0.0084 Uiso
C8_11 C 1.000 0.1987(17) 0.702(3) 0.0084 Uiso
H2_11 H 1 0.228587 0.784546 . .
H5_6 H 0.901963 0.137596 0.477614 . .
O2_8 O 0.3843(9) 0.2528(8) 0.549(2) 0.0084 Uiso
O4_8 O 0.3812(9) 0.2674(8) 0.300(2) 0.0084 Uiso
N1_8 N 0.500 0.2121(12) 0.913(3) 0.0084 Uiso
N2_12 N 0.500 0.3879(13) 0.004(3) 0.0084 Uiso
C1_8 C 0.3800(12) 0.2369(13) 0.665(3) 0.0084 Uiso
C2_8 C 0.4436(12) 0.2283(11) 0.721(3) 0.0084 Uiso
C3_6 C 0.4431(12) 0.2198(12) 0.851(2) 0.0084 Uiso
C4_12 C 0.500 0.2340(15) 0.655(4) 0.0084 Uiso
C5_8 C 0.3844(13) 0.3023(10) 0.201(3) 0.0084 Uiso
C6_8 C 0.4450(12) 0.3223(12) 0.144(3) 0.0084 Uiso
C7_8 C 0.4438(11) 0.3580(9) 0.035(3) 0.0084 Uiso
C8_12 C 0.500 0.3013(17) 0.202(3) 0.0084 Uiso
O6_8 O 0.6157(9) 0.2528(8) 0.549(2) 0.0084 Uiso
C9_8 C 0.6200(12) 0.2369(13) 0.665(3) 0.0084 Uiso
C10_8 C 0.5564(12) 0.2283(11) 0.721(3) 0.0084 Uiso
C11_6 C 0.5569(12) 0.2198(12) 0.851(2) 0.0084 Uiso
O8_8 O 0.6188(9) 0.2674(8) 0.300(2) 0.0084 Uiso
C12_8 C 0.6156(13) 0.3023(10) 0.201(3) 0.0084 Uiso
C13_8 C 0.5550(12) 0.3223(12) 0.144(3) 0.0084 Uiso
C14_8 C 0.5562(11) 0.3580(9) 0.035(3) 0.0084 Uiso
H2_12 H 0.5 0.271413 0.284546 . .
H3_6 H 0.399231 0.219208 0.902671 . .
H4_12 H 0.5 0.242679 0.554505 . .
H6_6 H 0.600769 0.219208 0.902671 . .
N1_9 N 0.2121(12) -0.000 0.163(3) 0.0084 Uiso
C3_7 C 0.2198(12) 0.0569(12) 0.101(2) 0.0084 Uiso
H3_7 H 0.219208 0.100769 0.152671 . .
N1_10 N 0.2121(12) 1.000 0.163(3) 0.0084 Uiso
C11_7 C 0.2198(12) 0.9431(12) 0.101(2) 0.0084 Uiso
H6_7 H 0.219208 0.899231 0.152671 . .
H1_7 H 0.598037 0.637596 0.977614 . .
H5_7 H 0.401963 0.637596 0.977614 . .
N1_11 N 0.7879(12) -0.000 0.163(3) 0.0084 Uiso
C3_8 C 0.7802(12) 0.0569(12) 0.101(2) 0.0084 Uiso
H3_8 H 0.780792 0.100769 0.152671 . .
N1_12 N 0.7879(12) 1.000 0.163(3) 0.0084 Uiso
C11_8 C 0.7802(12) 0.9431(12) 0.101(2) 0.0084 Uiso
H6_8 H 0.780792 0.899231 0.152671 . .
H1_8 H 0.598037 0.362404 0.977614 . .
H5_8 H 0.401963 0.362404 0.977614 . .
loop_
_geom_bond_atom_site_label_1
_geom_bond_atom_site_label_2
_geom_bond_site_symmetry_1
_geom_bond_site_symmetry_2
Al1 O1 1_555 1_555
O1 Al3 1_555 1_555
O2 Al1 1_555 1_555
O3 C1 1_555 1_555
O4 Al1 1_555 1_555
N1 C3 1_555 1_555
C1 O2 1_555 1_555
C2 C1 1_555 1_555
C3 C2 1_555 1_555
C4 C2 1_555 1_555
O6 C9 1_555 1_555
O7 C9 1_555 1_555
C9 C10 1_555 1_555
C10 C4 1_555 1_555
C11 N1 1_555 1_555
Al2 O6 1_555 1_555
O10 Al2 1_555 1_555
Al3 O3 1_555 1_555
Al5 O7 1_555 1_555
O11 Al1 1_555 1_555
O12 Al2 1_555 1_555
O13 Al1 1_555 1_555
O14 Al2 1_555 1_555
O15 Al1 1_555 1_555
O16 Al2 1_555 1_555
C10 C11 1_555 1_555
O8 Al2 1_555 1_555
O10 Al5 1_555 1_555
C3 H3 1_555 1_555
C4 H4 1_555 1_555
C11 H6 1_555 1_555
O5 C5 1_555 1_555
N2 C7 1_555 1_555
C6 C5 1_555 1_555
C7 C6 1_555 1_555
C8 C6 1_555 1_555
O9 C12 1_555 1_555
C12 C13 1_555 1_555
C13 C8 1_555 1_555
C14 N2 1_555 1_555
Al4 O5 1_555 1_555
Al6 O9 1_555 1_555
C13 C14 1_555 1_555
C14 H1 1_555 1_555
C7 H5 1_555 1_555
Al1_2 O1_2 1_555 1_555
O1_2 Al6 1_555 1_555
O2_2 Al1_2 1_555 1_555
O3_2 C1_2 1_555 1_555
O4_2 Al1_2 1_555 1_555
O5_2 C5_2 1_555 1_555
N2_2 C7_2 1_555 1_555
C1_2 O2_2 1_555 1_555
C2_2 C1_2 1_555 1_555
C4_2 C2_2 1_555 1_555
C5_2 O4_2 1_555 1_555
C6_2 C5_2 1_555 1_555
C7_2 C6_2 1_555 1_555
C8_2 C6_2 1_555 1_555
Al6 O3_2 1_555 1_555
Al5 O5_2 1_555 1_555
O11_2 Al1_2 1_555 1_555
O13_2 Al1_2 1_555 1_555
O15_2 Al1_2 1_555 1_555
Al5 O11_2 1_555 1_555
C8_2 H2_2 1_555 1_555
C4_2 H4_2 1_555 1_555
C7_2 H5_2 1_555 1_555
O6_2 C9_2 1_555 1_555
O7_2 C9_2 1_555 1_555
C9_2 C10_2 1_555 1_555
C10_2 C4_3 1_555 1_555
O8_2 C12_2 1_555 1_555
O9_2 C12_2 1_555 1_555
C12_2 C13_2 1_555 1_555
C13_2 C8_3 1_555 1_555
C14_2 N2_3 1_555 1_555
Al2_2 O6_2 1_555 1_555
O10_2 Al2_2 1_555 1_555
Al4 O7_2 1_555 1_555
Al3 O9_2 1_555 1_555
O12_2 Al2_2 1_555 1_555
O14_2 Al2_2 1_555 1_555
O16_2 Al2_2 1_555 1_555
O8_2 Al2_2 1_555 1_555
C13_2 C14_2 1_555 1_555
O10_2 Al4 1_555 1_555
Al3 O12_2 1_555 1_555
C14_2 H1_2 1_555 1_555
C8_3 H2_3 1_555 1_555
C4_3 H4_3 1_555 1_555
O2_3 Al3 1_555 1_555
O14_2 C1_3 1_555 1_555
O4_3 Al3 1_555 1_555
O15 C5_3 1_555 1_555
N1_2 C3_2 1_555 1_555
N2_4 C7_3 1_555 1_555
C1_3 O2_3 1_555 1_555
C2_3 C1_3 1_555 1_555
C3_2 C2_3 1_555 1_555
C4_4 C2_3 1_555 1_555
C5_3 O4_3 1_555 1_555
C6_3 C5_3 1_555 1_555
C7_3 C6_3 1_555 1_555
C8_4 C6_3 1_555 1_555
O6_3 C9_3 1_555 1_555
O7_3 C9_3 1_555 1_555
C9_3 C10_3 1_555 1_555
C10_3 C4_4 1_555 1_555
C11_2 N1_2 1_555 1_555
O8_3 C12_3 1_555 1_555
O9_3 C12_3 1_555 1_555
C12_3 C13_3 1_555 1_555
C13_3 C8_4 1_555 1_555
C14_3 N2_4 1_555 1_555
Al2_3 O6_3 1_555 1_555
O10_3 Al2_3 1_555 1_555
Al5_2 O7_3 1_555 1_555
Al6_2 O9_3 1_555 1_555
O12_3 Al2_3 1_555 1_555
O14_3 Al2_3 1_555 1_555
O16_3 Al2_3 1_555 1_555
C10_3 C11_2 1_555 1_555
O8_3 Al2_3 1_555 1_555
C13_3 C14_3 1_555 1_555
O10_3 Al5_2 1_555 1_555
Al6_2 O12_3 1_555 1_555
C8_4 H2_4 1_555 1_555
C3_2 H3_2 1_555 1_555
C4_4 H4_4 1_555 1_555
C11_2 H6_2 1_555 1_555
O6_4 C9_4 1_555 1_555
O13 C9_4 1_555 1_555
C9_4 C10_4 1_555 1_555
C10_4 C4_5 1_555 1_555
C11_3 N1_3 1_555 1_555
C10_4 C11_3 1_555 1_555
C4_5 H4_5 1_555 1_555
C11_3 H6_3 1_555 1_555
O8_4 C12_4 1_555 1_555
O16_2 C12_4 1_555 1_555
C12_4 C13_4 1_555 1_555
C13_4 C8_5 1_555 1_555
C14_4 N2_5 1_555 1_555
O8_4 Al4 1_555 1_555
C13_4 C14_4 1_555 1_555
C14_4 H1_3 1_555 1_555
C8_5 H2_5 1_555 1_555
O1_3 Al6_2 1_555 1_555
O3_3 C1_4 1_555 1_555
N1_4 C3_3 1_555 1_555
C1_4 O2_4 1_555 1_555
C2_4 C1_4 1_555 1_555
C3_3 C2_4 1_555 1_555
C4_6 C2_4 1_555 1_555
Al6_2 O3_3 1_555 1_555
C3_3 H3_3 1_555 1_555
C4_6 H4_6 1_555 1_555
O4_4 Al1_3 1_555 1_555
O5_3 C5_4 1_555 1_555
N2_6 C7_4 1_555 1_555
C5_4 O4_4 1_555 1_555
C6_4 C5_4 1_555 1_555
C7_4 C6_4 1_555 1_555
C8_6 C6_4 1_555 1_555
Al5_2 O5_3 1_555 1_555
O11_3 Al1_3 1_555 1_555
O13_3 Al1_3 1_555 1_555
O15_3 Al1_3 1_555 1_555
Al5_2 O11_3 1_555 1_555
C8_6 H2_6 1_555 1_555
C7_4 H5_3 1_555 1_555
Al1_4 O1_4 1_555 1_555
O1_4 Al3_2 1_555 1_555
O2_5 Al1_4 1_555 1_555
O3_4 C1_5 1_555 1_555
O4_5 Al1_4 1_555 1_555
O5_4 C5_5 1_555 1_555
N2_7 C7_5 1_555 1_555
C1_5 O2_5 1_555 1_555
C2_5 C1_5 1_555 1_555
C4_7 C2_5 1_555 1_555
C5_5 O4_5 1_555 1_555
C6_5 C5_5 1_555 1_555
C7_5 C6_5 1_555 1_555
C8_7 C6_5 1_555 1_555
Al3_2 O3_4 1_555 1_555
Al4_2 O5_4 1_555 1_555
O11_4 Al1_4 1_555 1_555
O13_4 Al1_4 1_555 1_555
O15_4 Al1_4 1_555 1_555
Al4_2 O11_4 1_555 1_555
C8_7 H2_7 1_555 1_555
C4_7 H4_7 1_555 1_555
C7_5 H5_4 1_555 1_555
O6_5 C9_5 1_555 1_555
O13_3 C9_5 1_555 1_555
C9_5 C10_5 1_555 1_555
C10_5 C4_8 1_555 1_555
O8_5 C12_5 1_555 1_555
O16_3 C12_5 1_555 1_555
C12_5 C13_5 1_555 1_555
C13_5 C8_8 1_555 1_555
C14_5 N2_8 1_555 1_555
Al5_2 O6_5 1_555 1_555
O8_5 Al5_2 1_555 1_555
C13_5 C14_5 1_555 1_555
C14_5 H1_4 1_555 1_555
C8_8 H2_8 1_555 1_555
C4_8 H4_8 1_555 1_555
O2_6 Al6_2 1_555 1_555
O14_3 C1_6 1_555 1_555
O4_6 Al6_2 1_555 1_555
N1_5 C3_4 1_555 1_555
C1_6 O2_6 1_555 1_555
C2_6 C1_6 1_555 1_555
C3_4 C2_6 1_555 1_555
C4_9 C2_6 1_555 1_555
O6_6 C9_6 1_555 1_555
O7_4 C9_6 1_555 1_555
C9_6 C10_6 1_555 1_555
C10_6 C4_9 1_555 1_555
C11_4 N1_5 1_555 1_555
Al2_4 O6_6 1_555 1_555
O10_4 Al2_4 1_555 1_555
Al4_2 O7_4 1_555 1_555
O12_4 Al2_4 1_555 1_555
O14_4 Al2_4 1_555 1_555
O16_4 Al2_4 1_555 1_555
C10_6 C11_4 1_555 1_555
O8_6 Al2_4 1_555 1_555
O10_4 Al4_2 1_555 1_555
C3_4 H3_4 1_555 1_555
C4_9 H4_9 1_555 1_555
C11_4 H6_4 1_555 1_555
O15_3 C5_6 1_555 1_555
N2_9 C7_6 1_555 1_555
C6_6 C5_6 1_555 1_555
C7_6 C6_6 1_555 1_555
C8_9 C6_6 1_555 1_555
O9_4 C12_6 1_555 1_555
C12_6 C13_6 1_555 1_555
C13_6 C8_9 1_555 1_555
C14_6 N2_9 1_555 1_555
Al3_2 O9_4 1_555 1_555
C13_6 C14_6 1_555 1_555
C14_6 H1_5 1_555 1_555
C7_6 H5_5 1_555 1_555
O6_7 C9_7 1_555 1_555
O14 C9_7 1_555 1_555
C9_7 C10_7 1_555 1_555
C10_7 C4_10 1_555 1_555
C11_5 N1_6 1_555 1_555
C10_7 C11_5 1_555 1_555
C4_10 H4_10 1_555 1_555
C11_5 H6_5 1_555 1_555
O8_7 C12_7 1_555 1_555
O15_2 C12_7 1_555 1_555
C12_7 C13_7 1_555 1_555
C13_7 C8_10 1_555 1_555
C14_7 N2_10 1_555 1_555
O8_7 Al6 1_555 1_555
C13_7 C14_7 1_555 1_555
C14_7 H1_6 1_555 1_555
C8_10 H2_10 1_555 1_555
O14_4 C1_7 1_555 1_555
N1_7 C3_5 1_555 1_555
C1_7 O2_7 1_555 1_555
C2_7 C1_7 1_555 1_555
C3_5 C2_7 1_555 1_555
C4_11 C2_7 1_555 1_555
C3_5 H3_5 1_555 1_555
C4_11 H4_11 1_555 1_555
O4_7 Al3_2 1_555 1_555
O15_4 C5_7 1_555 1_555
N2_11 C7_7 1_555 1_555
C5_7 O4_7 1_555 1_555
C6_7 C5_7 1_555 1_555
C7_7 C6_7 1_555 1_555
C8_11 C6_7 1_555 1_555
C8_11 H2_11 1_555 1_555
C7_7 H5_6 1_555 1_555
O2_8 Al5 1_555 1_555
O13_2 C1_8 1_555 1_555
O4_8 Al5 1_555 1_555
O16 C5_8 1_555 1_555
N1_8 C3_6 1_555 1_555
N2_12 C7_8 1_555 1_555
C1_8 O2_8 1_555 1_555
C2_8 C1_8 1_555 1_555
C3_6 C2_8 1_555 1_555
C4_12 C2_8 1_555 1_555
C5_8 O4_8 1_555 1_555
C6_8 C5_8 1_555 1_555
C7_8 C6_8 1_555 1_555
C8_12 C6_8 1_555 1_555
O6_8 C9_8 1_555 1_555
O13_4 C9_8 1_555 1_555
C9_8 C10_8 1_555 1_555
C10_8 C4_12 1_555 1_555
C11_6 N1_8 1_555 1_555
O8_8 C12_8 1_555 1_555
O16_4 C12_8 1_555 1_555
C12_8 C13_8 1_555 1_555
C13_8 C8_12 1_555 1_555
C14_8 N2_12 1_555 1_555
Al4_2 O6_8 1_555 1_555
C10_8 C11_6 1_555 1_555
O8_8 Al4_2 1_555 1_555
C13_8 C14_8 1_555 1_555
C8_12 H2_12 1_555 1_555
C3_6 H3_6 1_555 1_555
C4_12 H4_12 1_555 1_555
C11_6 H6_6 1_555 1_555
N1_9 C3_7 1_555 1_555
C3_7 H3_7 1_555 1_555
C11_7 N1_10 1_555 1_555
C11_7 H6_7 1_555 1_555
N1_11 C3_8 1_555 1_555
C3_8 H3_8 1_555 1_555
C11_8 N1_12 1_555 1_555
C11_8 H6_8 1_555 1_555

#END
