
###############################################################################
#
# This file contains modified crystal structure data generated from the
# MOF subset of the Cambridge Structural Database (CSD) v543 
# hosted by the Cambridge Crystallographic Data Centre (CCDC).
#
# This work is licensed under the Creative Commons
# Attribution-NonCommercial-ShareAlike 4.0 International License.
# To view a copy of this license, visit
# http://creativecommons.org/licenses/by-nc-sa/4.0/
# or send a letter to
# Creative Commons, PO Box 1866, Mountain View, CA 94042, USA.
#
# CIF created using the CSD Python API on 29 September 2022
# The structure has been converted into the P1 space group
# The structure has a 3D framework
# The original CSD entry FIZGUT is in the tetragonal crystal system
# The framework has been calculated to contain at least 10.0% void space
# The void calculation uses a probe of radius 1.32A, grid spacing 0.4
#
###############################################################################

data_FIZGUT
_chemical_formula_moiety         '(C176 H80 N16 O60 Zn12)n'
_symmetry_cell_setting           triclinic
_symmetry_space_group_name_H-M   'P 1'
_symmetry_Int_Tables_number      1
_space_group_name_Hall           'P 1'
loop_
_symmetry_equiv_pos_site_id
_symmetry_equiv_pos_as_xyz
1 x,y,z
_cell_length_a                   19.9088(3)
_cell_length_b                   19.9088(3)
_cell_length_c                   12.1905(3)
_cell_angle_alpha                90
_cell_angle_beta                 90
_cell_angle_gamma                90
_cell_volume                     4831.83
loop_
_atom_site_label
_atom_site_type_symbol
_atom_site_fract_x
_atom_site_fract_y
_atom_site_fract_z
Zn1 Zn 0.70169(2) 0.04492(2) 0.16736(2)
O1 O 0.67055(9) 0.40767(8) 0.90342(13)
O2 O 0.68988(7) 0.46065(7) 0.74637(12)
O3 O 0.70592(10) 0.05504(8) 0.42531(14)
O4 O 0.69928(9) 0.11902(8) 0.27448(13)
C1 C 0.67733(11) 0.34270(11) 0.74045(18)
C2 C 0.66284(14) 0.28219(12) 0.7940(2)
H1 H 0.653139 0.281551 0.868618
C3 C 0.66324(15) 0.22417(12) 0.7344(2)
H2 H 0.653614 0.183363 0.768043
C4 C 0.67832(13) 0.22649(11) 0.62154(19)
C5 C 0.68220(13) 0.16782(12) 0.5562(2)
H3 H 0.674845 0.125968 0.587947
C6 C 0.69676(12) 0.17231(11) 0.44650(19)
C7 C 0.70665(13) 0.23592(11) 0.3987(2)
H4 H 0.714661 0.238959 0.323665
C8 C 0.70475(13) 0.29286(11) 0.45967(19)
H5 H 0.712427 0.334211 0.426479
C9 C 0.69121(11) 0.28977(10) 0.57309(18)
N1 N 0.69035(9) 0.34743(8) 0.63394(14)
C10 C 0.67854(11) 0.40748(11) 0.80433(18)
C11 C 0.70164(12) 0.10974(11) 0.3773(2)
Zn3 Zn 0.70169(2) 0.54492(2) 0.83264(2)
Zn4 Zn 0.70508(2) 0.45169(2) 0.58264(2)
O5 O 0.71065(7) 0.06012(7) 0.00363(12)
O7 O 0.80504(8) 0.04408(10) 0.17531(14)
N2 N 0.59743(8) 0.05965(9) 0.11606(14)
Zn2 Zn 0.70508(2) 0.95169(2) 0.41736(2)
O6 O 0.68988(7) 0.96065(7) 0.25363(12)
O1_2 O 0.82945(9) 0.59233(8) 0.40342(13)
O2_2 O 0.81012(7) 0.53935(7) 0.24637(12)
C1_2 C 0.82267(11) 0.65730(11) 0.24045(18)
C2_2 C 0.83716(14) 0.71781(12) 0.2940(2)
H1_2 H 0.846861 0.718449 0.368618
C3_2 C 0.83676(15) 0.77583(12) 0.2344(2)
H2_2 H 0.846386 0.816637 0.268043
C4_2 C 0.82168(13) 0.77351(11) 0.12154(19)
C5_2 C 0.81780(13) 0.83218(12) 0.0562(2)
H3_2 H 0.825155 0.874032 0.087947
C9_2 C 0.80879(11) 0.71023(10) 0.07309(18)
N1_2 N 0.80965(9) 0.65257(8) 0.13394(14)
C10_2 C 0.82146(11) 0.59252(11) 0.30433(18)
Zn3_2 Zn 0.79831(2) 0.45508(2) 0.33264(2)
Zn4_2 Zn 0.79492(2) 0.54831(2) 0.08264(2)
Zn1_2 Zn 0.79831(2) 0.95508(2) 0.66736(2)
O3_2 O 0.79408(10) 0.94496(8) 0.92531(14)
O4_2 O 0.80072(9) 0.88098(8) 0.77448(13)
C6_2 C 0.80324(12) 0.82769(11) 0.94650(19)
C7_2 C 0.79335(13) 0.76408(11) 0.8987(2)
H4_2 H 0.785339 0.761041 0.823665
C8_2 C 0.79525(13) 0.70714(11) 0.95967(19)
H5_2 H 0.787573 0.665789 0.926479
C11_2 C 0.79836(12) 0.89026(11) 0.8773(2)
O5_2 O 0.78935(7) 0.93988(7) 0.50363(12)
O7_2 O 0.69496(8) 0.95592(10) 0.67531(14)
N2_2 N 0.90257(8) 0.94035(9) 0.61606(14)
O2_3 O 0.28935(7) 0.93988(7) 0.99637(12)
O4_3 O 0.63098(8) 0.94928(9) 0.52448(13)
C1_3 C 0.40730(11) 0.92733(11) 0.99045(18)
C3_3 C 0.52583(12) 0.91324(15) 0.9844(2)
C4_3 C 0.52351(11) 0.92832(13) 0.87154(19)
C5_3 C 0.58218(12) 0.93220(13) 0.8062(2)
H3_3 H 0.624032 0.924845 0.837947
C6_3 C 0.57769(11) 0.94676(12) 0.69650(19)
C7_3 C 0.51408(11) 0.95665(13) 0.6487(2)
H4_3 H 0.511041 0.964661 0.573665
C8_3 C 0.45714(11) 0.95475(13) 0.70967(19)
H5_3 H 0.415789 0.962427 0.676479
C9_3 C 0.46023(10) 0.94121(11) 0.82309(18)
N1_3 N 0.40257(8) 0.94035(9) 0.88394(14)
C11_3 C 0.64026(11) 0.95164(12) 0.6273(2)
Zn4_3 Zn 0.29831(2) 0.95508(2) 0.83264(2)
N2_3 N 0.69035(9) 0.84743(8) 0.36606(14)
O1_3 O 0.15767(8) 0.07945(9) 0.65342(13)
O2_4 O 0.21065(7) 0.06012(7) 0.49637(12)
C1_4 C 0.09270(11) 0.07267(11) 0.49045(18)
C2_3 C 0.03219(12) 0.08716(14) 0.5440(2)
H1_3 H 0.031551 0.096861 0.618618
C8_4 C 0.04286(11) 0.04525(13) 0.20967(19)
H5_4 H 0.084211 0.037573 0.176479
C9_4 C 0.03977(10) 0.05879(11) 0.32309(18)
N1_4 N 0.09743(8) 0.05965(9) 0.38394(14)
C10_3 C 0.15748(11) 0.07146(11) 0.55433(18)
Zn3_3 Zn 0.29492(2) 0.04831(2) 0.58264(2)
Zn4_4 Zn 0.20169(2) 0.04492(2) 0.33264(2)
O4_4 O 0.86902(8) 0.05072(9) 0.02448(13)
C3_4 C 0.97417(12) 0.08676(15) 0.4844(2)
H2_3 H 0.933363 0.096386 0.518043
C4_4 C 0.97649(11) 0.07168(13) 0.37154(19)
C5_4 C 0.91782(12) 0.06780(13) 0.3062(2)
H3_4 H 0.875968 0.075155 0.337947
C6_4 C 0.92231(11) 0.05324(12) 0.19650(19)
C7_4 C 0.98592(11) 0.04335(13) 0.1487(2)
H4_4 H 0.988959 0.035339 0.073665
C11_4 C 0.85974(11) 0.04836(12) 0.1273(2)
Zn1_3 Zn 0.20169(2) 0.54492(2) 0.66736(2)
O3_3 O 0.20592(10) 0.55504(8) 0.92531(14)
O4_5 O 0.19928(9) 0.61902(8) 0.77448(13)
C6_5 C 0.19676(12) 0.67231(11) 0.94650(19)
C7_5 C 0.20665(13) 0.73592(11) 0.8987(2)
H4_5 H 0.214661 0.738959 0.823665
C8_5 C 0.20475(13) 0.79286(11) 0.95967(19)
H5_5 H 0.212427 0.834211 0.926479
C11_5 C 0.20164(12) 0.60974(11) 0.8773(2)
Zn2_2 Zn 0.20508(2) 0.45169(2) 0.91736(2)
O5_3 O 0.21065(7) 0.56012(7) 0.50363(12)
O6_2 O 0.18988(7) 0.46065(7) 0.75363(12)
O7_3 O 0.30504(8) 0.54408(10) 0.67531(14)
N2_4 N 0.09743(8) 0.55965(9) 0.61606(14)
Zn1_4 Zn 0.29831(2) 0.45508(2) 0.16736(2)
O1_4 O 0.32945(9) 0.09233(8) 0.90342(13)
O2_5 O 0.31012(7) 0.03935(7) 0.74637(12)
O3_4 O 0.29408(10) 0.44496(8) 0.42531(14)
O4_6 O 0.30072(9) 0.38098(8) 0.27448(13)
C1_5 C 0.32267(11) 0.15730(11) 0.74045(18)
C2_4 C 0.33716(14) 0.21781(12) 0.7940(2)
H1_4 H 0.346861 0.218449 0.868618
C3_5 C 0.33676(15) 0.27583(12) 0.7344(2)
H2_4 H 0.346386 0.316637 0.768043
C4_5 C 0.32168(13) 0.27351(11) 0.62154(19)
C5_5 C 0.31780(13) 0.33218(12) 0.5562(2)
H3_5 H 0.325155 0.374032 0.587947
C6_6 C 0.30324(12) 0.32769(11) 0.44650(19)
C7_6 C 0.29335(13) 0.26408(11) 0.3987(2)
H4_6 H 0.285339 0.261041 0.323665
C8_6 C 0.29525(13) 0.20714(11) 0.45967(19)
H5_6 H 0.287573 0.165789 0.426479
C9_5 C 0.30879(11) 0.21023(10) 0.57309(18)
N1_5 N 0.30965(9) 0.15257(8) 0.63394(14)
C10_4 C 0.32146(11) 0.09252(11) 0.80433(18)
C11_6 C 0.29836(12) 0.39026(11) 0.3773(2)
Zn2_3 Zn 0.29492(2) 0.54831(2) 0.41736(2)
O5_4 O 0.28935(7) 0.43988(7) 0.00363(12)
O6_3 O 0.31012(7) 0.53935(7) 0.25363(12)
O7_4 O 0.19496(8) 0.45592(10) 0.17531(14)
N2_5 N 0.40257(8) 0.44035(9) 0.11606(14)
O4_7 O 0.13098(8) 0.44928(9) 0.02448(13)
C3_6 C 0.02583(12) 0.41324(15) 0.4844(2)
H2_5 H 0.066637 0.403614 0.518043
C4_6 C 0.02351(11) 0.42832(13) 0.37154(19)
C5_6 C 0.08218(12) 0.43220(13) 0.3062(2)
H3_6 H 0.124032 0.424845 0.337947
C6_7 C 0.07769(11) 0.44676(12) 0.19650(19)
C7_7 C 0.01408(11) 0.45665(13) 0.1487(2)
H4_7 H 0.011041 0.464661 0.073665
C11_7 C 0.14026(11) 0.45164(12) 0.1273(2)
N2_6 N 0.19035(9) 0.34743(8) 0.86606(14)
O1_5 O 0.84233(8) 0.42055(9) 0.65342(13)
O2_6 O 0.78935(7) 0.43988(7) 0.49637(12)
C1_6 C 0.90730(11) 0.42733(11) 0.49045(18)
C2_5 C 0.96781(12) 0.41284(14) 0.5440(2)
H1_5 H 0.968449 0.403139 0.618618
C8_7 C 0.95714(11) 0.45475(13) 0.20967(19)
H5_7 H 0.915789 0.462427 0.176479
C9_6 C 0.96023(10) 0.44121(11) 0.32309(18)
N1_6 N 0.90257(8) 0.44035(9) 0.38394(14)
C10_5 C 0.84252(11) 0.42854(11) 0.55433(18)
O1_6 O 0.65767(8) 0.57945(9) 0.15342(13)
C2_6 C 0.53219(12) 0.58716(14) 0.0440(2)
H1_6 H 0.531551 0.596861 0.118618
H2_6 H 0.433363 0.596386 0.018043
C10_6 C 0.65748(11) 0.57146(11) 0.05433(18)
O2_7 O 0.71065(7) 0.56012(7) 0.99637(12)
O4_8 O 0.36902(8) 0.55072(9) 0.52448(13)
C1_7 C 0.59270(11) 0.57267(11) 0.99045(18)
C3_7 C 0.47417(12) 0.58676(15) 0.9844(2)
C4_7 C 0.47649(11) 0.57168(13) 0.87154(19)
C5_7 C 0.41782(12) 0.56780(13) 0.8062(2)
H3_7 H 0.375968 0.575155 0.837947
C6_8 C 0.42231(11) 0.55324(12) 0.69650(19)
C7_8 C 0.48592(11) 0.54335(13) 0.6487(2)
H4_8 H 0.488959 0.535339 0.573665
C8_8 C 0.54286(11) 0.54525(13) 0.70967(19)
H5_8 H 0.584211 0.537573 0.676479
C9_7 C 0.53977(10) 0.55879(11) 0.82309(18)
N1_7 N 0.59743(8) 0.55965(9) 0.88394(14)
C11_8 C 0.35974(11) 0.54836(12) 0.6273(2)
N2_7 N 0.30965(9) 0.65257(8) 0.36606(14)
O1_7 O 0.32945(9) 0.59233(8) 0.09658(13)
O3_5 O 0.29408(10) 0.94496(8) 0.57469(14)
O4_9 O 0.30072(9) 0.88098(8) 0.72552(13)
C1_8 C 0.32267(11) 0.65730(11) 0.25955(18)
C2_7 C 0.33716(14) 0.71781(12) 0.2060(2)
H1_7 H 0.346861 0.718449 0.131382
C3_8 C 0.33676(15) 0.77583(12) 0.2656(2)
H2_7 H 0.346386 0.816637 0.231957
C4_8 C 0.32168(13) 0.77351(11) 0.37846(19)
C5_8 C 0.31780(13) 0.83218(12) 0.4438(2)
H3_8 H 0.325155 0.874032 0.412053
C6_9 C 0.30324(12) 0.82769(11) 0.55350(19)
C7_9 C 0.29335(13) 0.76408(11) 0.6013(2)
H4_9 H 0.285339 0.761041 0.676335
C8_9 C 0.29525(13) 0.70714(11) 0.54033(19)
H5_9 H 0.287573 0.665789 0.573521
C9_8 C 0.30879(11) 0.71023(10) 0.42691(18)
C10_7 C 0.32146(11) 0.59252(11) 0.19567(18)
C11_9 C 0.29836(12) 0.89026(11) 0.6227(2)
O7_5 O 0.19496(8) 0.95592(10) 0.82469(14)
O3_6 O 0.20592(10) 0.05504(8) 0.07469(14)
O4_10 O 0.19928(9) 0.11902(8) 0.22552(13)
C6_10 C 0.19676(12) 0.17231(11) 0.05350(19)
C7_10 C 0.20665(13) 0.23592(11) 0.1013(2)
H4_10 H 0.214661 0.238959 0.176335
C8_10 C 0.20475(13) 0.29286(11) 0.04033(19)
H5_10 H 0.212427 0.334211 0.073521
C11_10 C 0.20164(12) 0.10974(11) 0.1227(2)
O7_6 O 0.30504(8) 0.04408(10) 0.32469(14)
O1_8 O 0.17055(9) 0.40767(8) 0.59658(13)
C1_9 C 0.17733(11) 0.34270(11) 0.75955(18)
C2_8 C 0.16284(14) 0.28219(12) 0.7060(2)
H1_8 H 0.153139 0.281551 0.631382
C3_9 C 0.16324(15) 0.22417(12) 0.7656(2)
H2_8 H 0.153614 0.183363 0.731957
C4_9 C 0.17832(13) 0.22649(11) 0.87846(19)
C5_9 C 0.18220(13) 0.16782(12) 0.9438(2)
H3_9 H 0.174845 0.125968 0.912053
C9_9 C 0.19121(11) 0.28977(10) 0.92691(18)
C10_8 C 0.17854(11) 0.40748(11) 0.69567(18)
O4_11 O 0.36902(8) 0.05072(9) 0.47552(13)
C1_10 C 0.59270(11) 0.07267(11) 0.00955(18)
C3_10 C 0.47417(12) 0.08676(15) 0.0156(2)
C4_10 C 0.47649(11) 0.07168(13) 0.12846(19)
C5_10 C 0.41782(12) 0.06780(13) 0.1938(2)
H3_10 H 0.375968 0.075155 0.162053
C6_11 C 0.42231(11) 0.05324(12) 0.30350(19)
C7_11 C 0.48592(11) 0.04335(13) 0.3513(2)
H4_11 H 0.488959 0.035339 0.426335
C8_11 C 0.54286(11) 0.04525(13) 0.29033(19)
H5_11 H 0.584211 0.037573 0.323521
C9_10 C 0.53977(10) 0.05879(11) 0.17691(18)
C11_11 C 0.35974(11) 0.04836(12) 0.3727(2)
O4_12 O 0.13098(8) 0.94928(9) 0.97552(13)
C3_11 C 0.02583(12) 0.91324(15) 0.5156(2)
H2_9 H 0.066637 0.903614 0.481957
C4_11 C 0.02351(11) 0.92832(13) 0.62846(19)
C5_11 C 0.08218(12) 0.93220(13) 0.6938(2)
H3_11 H 0.124032 0.924845 0.662053
C6_12 C 0.07769(11) 0.94676(12) 0.80350(19)
C7_12 C 0.01408(11) 0.95665(13) 0.8513(2)
H4_12 H 0.011041 0.964661 0.926335
C11_12 C 0.14026(11) 0.95164(12) 0.8727(2)
O1_9 O 0.84233(8) 0.92055(9) 0.34658(13)
C1_11 C 0.90730(11) 0.92733(11) 0.50955(18)
C2_9 C 0.96781(12) 0.91284(14) 0.4560(2)
H1_9 H 0.968449 0.903139 0.381382
C8_12 C 0.95714(11) 0.95475(13) 0.79033(19)
H5_12 H 0.915789 0.962427 0.823521
C9_11 C 0.96023(10) 0.94121(11) 0.67691(18)
C10_9 C 0.84252(11) 0.92854(11) 0.44567(18)
O3_7 O 0.79408(10) 0.44496(8) 0.07469(14)
O4_13 O 0.80072(9) 0.38098(8) 0.22552(13)
C6_13 C 0.80324(12) 0.32769(11) 0.05350(19)
C7_13 C 0.79335(13) 0.26408(11) 0.1013(2)
H4_13 H 0.785339 0.261041 0.176335
C8_13 C 0.79525(13) 0.20714(11) 0.04033(19)
H5_13 H 0.787573 0.165789 0.073521
C11_13 C 0.79836(12) 0.39026(11) 0.1227(2)
O7_7 O 0.69496(8) 0.45592(10) 0.32469(14)
O1_10 O 0.67055(9) 0.90767(8) 0.09658(13)
O3_8 O 0.70592(10) 0.55504(8) 0.57469(14)
O4_14 O 0.69928(9) 0.61902(8) 0.72552(13)
C1_12 C 0.67733(11) 0.84270(11) 0.25955(18)
C2_10 C 0.66284(14) 0.78219(12) 0.2060(2)
H1_10 H 0.653139 0.781551 0.131382
C3_12 C 0.66324(15) 0.72417(12) 0.2656(2)
H2_10 H 0.653614 0.683363 0.231957
C4_12 C 0.67832(13) 0.72649(11) 0.37846(19)
C5_12 C 0.68220(13) 0.66782(12) 0.4438(2)
H3_12 H 0.674845 0.625968 0.412053
C6_14 C 0.69676(12) 0.67231(11) 0.55350(19)
C7_14 C 0.70665(13) 0.73592(11) 0.6013(2)
H4_14 H 0.714661 0.738959 0.676335
C8_14 C 0.70475(13) 0.79286(11) 0.54033(19)
H5_14 H 0.712427 0.834211 0.573521
C9_12 C 0.69121(11) 0.78977(10) 0.42691(18)
C10_10 C 0.67854(11) 0.90748(11) 0.19567(18)
C11_14 C 0.70164(12) 0.60974(11) 0.6227(2)
O7_8 O 0.80504(8) 0.54408(10) 0.82469(14)
O1_11 O 0.15767(8) 0.57945(9) 0.34658(13)
C1_13 C 0.09270(11) 0.57267(11) 0.50955(18)
C2_11 C 0.03219(12) 0.58716(14) 0.4560(2)
H1_11 H 0.031551 0.596861 0.381382
C8_15 C 0.04286(11) 0.54525(13) 0.79033(19)
H5_15 H 0.084211 0.537573 0.823521
C9_13 C 0.03977(10) 0.55879(11) 0.67691(18)
C10_11 C 0.15748(11) 0.57146(11) 0.44567(18)
O4_15 O 0.86902(8) 0.55072(9) 0.97552(13)
C3_13 C 0.97417(12) 0.58676(15) 0.5156(2)
H2_11 H 0.933363 0.596386 0.481957
C4_13 C 0.97649(11) 0.57168(13) 0.62846(19)
C5_13 C 0.91782(12) 0.56780(13) 0.6938(2)
H3_13 H 0.875968 0.575155 0.662053
C6_15 C 0.92231(11) 0.55324(12) 0.80350(19)
C7_15 C 0.98592(11) 0.54335(13) 0.8513(2)
H4_15 H 0.988959 0.535339 0.926335
C11_15 C 0.85974(11) 0.54836(12) 0.8727(2)
O4_16 O 0.63098(8) 0.44928(9) 0.47552(13)
C1_14 C 0.40730(11) 0.42733(11) 0.00955(18)
C3_14 C 0.52583(12) 0.41324(15) 0.0156(2)
C4_14 C 0.52351(11) 0.42832(13) 0.12846(19)
C5_14 C 0.58218(12) 0.43220(13) 0.1938(2)
H3_14 H 0.624032 0.424845 0.162053
C6_16 C 0.57769(11) 0.44676(12) 0.30350(19)
C7_16 C 0.51408(11) 0.45665(13) 0.3513(2)
H4_16 H 0.511041 0.464661 0.426335
C8_16 C 0.45714(11) 0.45475(13) 0.29033(19)
H5_16 H 0.415789 0.462427 0.323521
C9_14 C 0.46023(10) 0.44121(11) 0.17691(18)
C11_16 C 0.64026(11) 0.45164(12) 0.3727(2)
O1_12 O 0.34233(8) 0.42055(9) 0.84658(13)
C2_12 C 0.46781(12) 0.41284(14) 0.9560(2)
H1_12 H 0.468449 0.403139 0.881382
H2_12 H 0.566637 0.403614 0.981957
C10_12 C 0.34252(11) 0.42854(11) 0.94567(18)
Zn2_4 Zn 0.79492(2) 0.04831(2) 0.91736(2)
O6_4 O 0.81012(7) 0.03935(7) 0.75363(12)
N2_8 N 0.80965(9) 0.15257(8) 0.86606(14)
O1_13 O 0.65767(8) 0.07945(9) 0.84658(13)
C2_13 C 0.53219(12) 0.08716(14) 0.9560(2)
H1_13 H 0.531551 0.096861 0.881382
H2_13 H 0.433363 0.096386 0.981957
C10_13 C 0.65748(11) 0.07146(11) 0.94567(18)
O1_14 O 0.82945(9) 0.09233(8) 0.59658(13)
C1_15 C 0.82267(11) 0.15730(11) 0.75955(18)
C2_14 C 0.83716(14) 0.21781(12) 0.7060(2)
H1_14 H 0.846861 0.218449 0.631382
C3_15 C 0.83676(15) 0.27583(12) 0.7656(2)
H2_14 H 0.846386 0.316637 0.731957
C4_15 C 0.82168(13) 0.27351(11) 0.87846(19)
C5_15 C 0.81780(13) 0.33218(12) 0.9438(2)
H3_15 H 0.825155 0.374032 0.912053
C9_15 C 0.80879(11) 0.21023(10) 0.92691(18)
C10_14 C 0.82146(11) 0.09252(11) 0.69567(18)
O1_15 O 0.34233(8) 0.92055(9) 0.15342(13)
C2_15 C 0.46781(12) 0.91284(14) 0.0440(2)
H1_15 H 0.468449 0.903139 0.118618
H2_15 H 0.566637 0.903614 0.018043
C10_15 C 0.34252(11) 0.92854(11) 0.05433(18)
Zn3_4 Zn 0.20508(2) 0.95169(2) 0.08264(2)
O1_16 O 0.17055(9) 0.90767(8) 0.40342(13)
O2_8 O 0.18988(7) 0.96065(7) 0.24637(12)
C1_16 C 0.17733(11) 0.84270(11) 0.24045(18)
C2_16 C 0.16284(14) 0.78219(12) 0.2940(2)
H1_16 H 0.153139 0.781551 0.368618
C3_16 C 0.16324(15) 0.72417(12) 0.2344(2)
H2_16 H 0.153614 0.683363 0.268043
C4_16 C 0.17832(13) 0.72649(11) 0.12154(19)
C5_16 C 0.18220(13) 0.66782(12) 0.0562(2)
H3_16 H 0.174845 0.625968 0.087947
C9_16 C 0.19121(11) 0.78977(10) 0.07309(18)
N1_8 N 0.19035(9) 0.84743(8) 0.13394(14)
C10_16 C 0.17854(11) 0.90748(11) 0.30433(18)
loop_
_geom_bond_atom_site_label_1
_geom_bond_atom_site_label_2
_geom_bond_site_symmetry_1
_geom_bond_site_symmetry_2
Zn1 O4 1_555 1_555
O1 C10 1_555 1_555
O2 C10 1_555 1_555
O3 C11 1_555 1_555
O4 C11 1_555 1_555
C1 C2 1_555 1_555
C2 H1 1_555 1_555
C3 C2 1_555 1_555
H2 C3 1_555 1_555
C4 C3 1_555 1_555
C5 C4 1_555 1_555
H3 C5 1_555 1_555
C6 C5 1_555 1_555
C7 C6 1_555 1_555
H4 C7 1_555 1_555
C8 C7 1_555 1_555
H5 C8 1_555 1_555
C9 C4 1_555 1_555
N1 C1 1_555 1_555
C10 C1 1_555 1_555
C11 C6 1_555 1_555
Zn3 O2 1_555 1_555
Zn4 O2 1_555 1_555
O5 Zn1 1_555 1_555
O7 Zn1 1_555 1_555
N2 Zn1 1_555 1_555
C8 C9 1_555 1_555
C9 N1 1_555 1_555
N1 Zn4 1_555 1_555
Zn2 O6 1_555 1_555
O1_2 C10_2 1_555 1_555
O2_2 C10_2 1_555 1_555
C1_2 C2_2 1_555 1_555
C2_2 H1_2 1_555 1_555
C3_2 C2_2 1_555 1_555
H2_2 C3_2 1_555 1_555
C4_2 C3_2 1_555 1_555
C5_2 C4_2 1_555 1_555
H3_2 C5_2 1_555 1_555
C9_2 C4_2 1_555 1_555
N1_2 C1_2 1_555 1_555
C10_2 C1_2 1_555 1_555
Zn3_2 O2_2 1_555 1_555
Zn4_2 O2_2 1_555 1_555
C9_2 N1_2 1_555 1_555
N1_2 Zn4_2 1_555 1_555
Zn1_2 O4_2 1_555 1_555
O3_2 C11_2 1_555 1_555
O4_2 C11_2 1_555 1_555
C7_2 C6_2 1_555 1_555
H4_2 C7_2 1_555 1_555
C8_2 C7_2 1_555 1_555
H5_2 C8_2 1_555 1_555
C11_2 C6_2 1_555 1_555
O5_2 Zn1_2 1_555 1_555
O7_2 Zn1_2 1_555 1_555
N2_2 Zn1_2 1_555 1_555
Zn2 O4_3 1_555 1_555
O7_2 C11_3 1_555 1_555
O4_3 C11_3 1_555 1_555
C4_3 C3_3 1_555 1_555
C5_3 C4_3 1_555 1_555
H3_3 C5_3 1_555 1_555
C6_3 C5_3 1_555 1_555
C7_3 C6_3 1_555 1_555
H4_3 C7_3 1_555 1_555
C8_3 C7_3 1_555 1_555
H5_3 C8_3 1_555 1_555
C9_3 C4_3 1_555 1_555
N1_3 C1_3 1_555 1_555
C11_3 C6_3 1_555 1_555
Zn4_3 O2_3 1_555 1_555
O5_2 Zn2 1_555 1_555
N2_3 Zn2 1_555 1_555
C8_3 C9_3 1_555 1_555
C9_3 N1_3 1_555 1_555
N1_3 Zn4_3 1_555 1_555
O1_3 C10_3 1_555 1_555
O2_4 C10_3 1_555 1_555
C1_4 C2_3 1_555 1_555
C2_3 H1_3 1_555 1_555
H5_4 C8_4 1_555 1_555
N1_4 C1_4 1_555 1_555
C10_3 C1_4 1_555 1_555
Zn3_3 O2_4 1_555 1_555
Zn4_4 O2_4 1_555 1_555
C8_4 C9_4 1_555 1_555
C9_4 N1_4 1_555 1_555
N1_4 Zn4_4 1_555 1_555
O7 C11_4 1_555 1_555
O4_4 C11_4 1_555 1_555
H2_3 C3_4 1_555 1_555
C4_4 C3_4 1_555 1_555
C5_4 C4_4 1_555 1_555
H3_4 C5_4 1_555 1_555
C6_4 C5_4 1_555 1_555
C7_4 C6_4 1_555 1_555
H4_4 C7_4 1_555 1_555
C11_4 C6_4 1_555 1_555
Zn1_3 O4_5 1_555 1_555
O3_3 C11_5 1_555 1_555
O4_5 C11_5 1_555 1_555
C7_5 C6_5 1_555 1_555
H4_5 C7_5 1_555 1_555
C8_5 C7_5 1_555 1_555
H5_5 C8_5 1_555 1_555
C11_5 C6_5 1_555 1_555
Zn2_2 O3_3 1_555 1_555
O5_3 Zn1_3 1_555 1_555
O6_2 Zn1_3 1_555 1_555
O7_3 Zn1_3 1_555 1_555
N2_4 Zn1_3 1_555 1_555
Zn2_2 O6_2 1_555 1_555
Zn1_4 O4_6 1_555 1_555
O1_4 C10_4 1_555 1_555
O2_5 C10_4 1_555 1_555
O3_4 C11_6 1_555 1_555
O4_6 C11_6 1_555 1_555
C1_5 C2_4 1_555 1_555
C2_4 H1_4 1_555 1_555
C3_5 C2_4 1_555 1_555
H2_4 C3_5 1_555 1_555
C4_5 C3_5 1_555 1_555
C5_5 C4_5 1_555 1_555
H3_5 C5_5 1_555 1_555
C6_6 C5_5 1_555 1_555
C7_6 C6_6 1_555 1_555
H4_6 C7_6 1_555 1_555
C8_6 C7_6 1_555 1_555
H5_6 C8_6 1_555 1_555
C9_5 C4_5 1_555 1_555
N1_5 C1_5 1_555 1_555
C10_4 C1_5 1_555 1_555
C11_6 C6_6 1_555 1_555
Zn2_3 O3_4 1_555 1_555
Zn3_3 O2_5 1_555 1_555
O5_4 Zn1_4 1_555 1_555
O6_3 Zn1_4 1_555 1_555
O7_4 Zn1_4 1_555 1_555
N2_5 Zn1_4 1_555 1_555
C8_6 C9_5 1_555 1_555
C9_5 N1_5 1_555 1_555
N1_5 Zn3_3 1_555 1_555
Zn2_3 O6_3 1_555 1_555
O7_4 C11_7 1_555 1_555
O4_7 C11_7 1_555 1_555
H2_5 C3_6 1_555 1_555
C4_6 C3_6 1_555 1_555
C5_6 C4_6 1_555 1_555
H3_6 C5_6 1_555 1_555
C6_7 C5_6 1_555 1_555
C7_7 C6_7 1_555 1_555
H4_7 C7_7 1_555 1_555
C11_7 C6_7 1_555 1_555
N2_6 Zn2_2 1_555 1_555
O1_5 C10_5 1_555 1_555
O2_6 C10_5 1_555 1_555
C1_6 C2_5 1_555 1_555
C2_5 H1_5 1_555 1_555
H5_7 C8_7 1_555 1_555
N1_6 C1_6 1_555 1_555
C10_5 C1_6 1_555 1_555
Zn4 O2_6 1_555 1_555
Zn3_2 O2_6 1_555 1_555
C8_7 C9_6 1_555 1_555
C9_6 N1_6 1_555 1_555
N1_6 Zn3_2 1_555 1_555
O1_6 C10_6 1_555 1_555
C2_6 H1_6 1_555 1_555
Zn2_3 O4_8 1_555 1_555
O7_3 C11_8 1_555 1_555
O4_8 C11_8 1_555 1_555
C4_7 C3_7 1_555 1_555
C5_7 C4_7 1_555 1_555
H3_7 C5_7 1_555 1_555
C6_8 C5_7 1_555 1_555
C7_8 C6_8 1_555 1_555
H4_8 C7_8 1_555 1_555
C8_8 C7_8 1_555 1_555
H5_8 C8_8 1_555 1_555
C9_7 C4_7 1_555 1_555
N1_7 C1_7 1_555 1_555
C11_8 C6_8 1_555 1_555
Zn3 O2_7 1_555 1_555
O5_3 Zn2_3 1_555 1_555
N2_7 Zn2_3 1_555 1_555
C8_8 C9_7 1_555 1_555
C9_7 N1_7 1_555 1_555
N1_7 Zn3 1_555 1_555
Zn4_3 O4_9 1_555 1_555
O1_7 C10_7 1_555 1_555
O6_3 C10_7 1_555 1_555
O3_5 C11_9 1_555 1_555
O4_9 C11_9 1_555 1_555
C1_8 C2_7 1_555 1_555
C2_7 H1_7 1_555 1_555
C3_8 C2_7 1_555 1_555
H2_7 C3_8 1_555 1_555
C4_8 C3_8 1_555 1_555
C5_8 C4_8 1_555 1_555
H3_8 C5_8 1_555 1_555
C6_9 C5_8 1_555 1_555
C7_9 C6_9 1_555 1_555
H4_9 C7_9 1_555 1_555
C8_9 C7_9 1_555 1_555
H5_9 C8_9 1_555 1_555
C9_8 C4_8 1_555 1_555
N2_7 C1_8 1_555 1_555
C10_7 C1_8 1_555 1_555
C11_9 C6_9 1_555 1_555
O7_5 Zn4_3 1_555 1_555
C8_9 C9_8 1_555 1_555
C9_8 N2_7 1_555 1_555
Zn4_4 O4_10 1_555 1_555
O3_6 C11_10 1_555 1_555
O4_10 C11_10 1_555 1_555
C7_10 C6_10 1_555 1_555
H4_10 C7_10 1_555 1_555
C8_10 C7_10 1_555 1_555
H5_10 C8_10 1_555 1_555
C11_10 C6_10 1_555 1_555
O7_6 Zn4_4 1_555 1_555
O1_8 C10_8 1_555 1_555
O6_2 C10_8 1_555 1_555
C1_9 C2_8 1_555 1_555
C2_8 H1_8 1_555 1_555
C3_9 C2_8 1_555 1_555
H2_8 C3_9 1_555 1_555
C4_9 C3_9 1_555 1_555
C5_9 C4_9 1_555 1_555
H3_9 C5_9 1_555 1_555
C9_9 C4_9 1_555 1_555
N2_6 C1_9 1_555 1_555
C10_8 C1_9 1_555 1_555
C9_9 N2_6 1_555 1_555
Zn3_3 O4_11 1_555 1_555
O7_6 C11_11 1_555 1_555
O4_11 C11_11 1_555 1_555
C4_10 C3_10 1_555 1_555
C5_10 C4_10 1_555 1_555
H3_10 C5_10 1_555 1_555
C6_11 C5_10 1_555 1_555
C7_11 C6_11 1_555 1_555
H4_11 C7_11 1_555 1_555
C8_11 C7_11 1_555 1_555
H5_11 C8_11 1_555 1_555
C9_10 C4_10 1_555 1_555
N2 C1_10 1_555 1_555
C11_11 C6_11 1_555 1_555
C8_11 C9_10 1_555 1_555
C9_10 N2 1_555 1_555
O7_5 C11_12 1_555 1_555
O4_12 C11_12 1_555 1_555
H2_9 C3_11 1_555 1_555
C4_11 C3_11 1_555 1_555
C5_11 C4_11 1_555 1_555
H3_11 C5_11 1_555 1_555
C6_12 C5_11 1_555 1_555
C7_12 C6_12 1_555 1_555
H4_12 C7_12 1_555 1_555
C11_12 C6_12 1_555 1_555
O1_9 C10_9 1_555 1_555
O5_2 C10_9 1_555 1_555
C1_11 C2_9 1_555 1_555
C2_9 H1_9 1_555 1_555
H5_12 C8_12 1_555 1_555
N2_2 C1_11 1_555 1_555
C10_9 C1_11 1_555 1_555
C8_12 C9_11 1_555 1_555
C9_11 N2_2 1_555 1_555
Zn3_2 O4_13 1_555 1_555
O3_7 C11_13 1_555 1_555
O4_13 C11_13 1_555 1_555
C7_13 C6_13 1_555 1_555
H4_13 C7_13 1_555 1_555
C8_13 C7_13 1_555 1_555
H5_13 C8_13 1_555 1_555
C11_13 C6_13 1_555 1_555
Zn4_2 O3_7 1_555 1_555
O7_7 Zn3_2 1_555 1_555
Zn3 O4_14 1_555 1_555
O1_10 C10_10 1_555 1_555
O6 C10_10 1_555 1_555
O3_8 C11_14 1_555 1_555
O4_14 C11_14 1_555 1_555
C1_12 C2_10 1_555 1_555
C2_10 H1_10 1_555 1_555
C3_12 C2_10 1_555 1_555
H2_10 C3_12 1_555 1_555
C4_12 C3_12 1_555 1_555
C5_12 C4_12 1_555 1_555
H3_12 C5_12 1_555 1_555
C6_14 C5_12 1_555 1_555
C7_14 C6_14 1_555 1_555
H4_14 C7_14 1_555 1_555
C8_14 C7_14 1_555 1_555
H5_14 C8_14 1_555 1_555
C9_12 C4_12 1_555 1_555
N2_3 C1_12 1_555 1_555
C10_10 C1_12 1_555 1_555
C11_14 C6_14 1_555 1_555
Zn4 O3_8 1_555 1_555
O7_8 Zn3 1_555 1_555
C8_14 C9_12 1_555 1_555
C9_12 N2_3 1_555 1_555
O1_11 C10_11 1_555 1_555
O5_3 C10_11 1_555 1_555
C1_13 C2_11 1_555 1_555
C2_11 H1_11 1_555 1_555
H5_15 C8_15 1_555 1_555
N2_4 C1_13 1_555 1_555
C10_11 C1_13 1_555 1_555
C8_15 C9_13 1_555 1_555
C9_13 N2_4 1_555 1_555
O7_8 C11_15 1_555 1_555
O4_15 C11_15 1_555 1_555
H2_11 C3_13 1_555 1_555
C4_13 C3_13 1_555 1_555
C5_13 C4_13 1_555 1_555
H3_13 C5_13 1_555 1_555
C6_15 C5_13 1_555 1_555
C7_15 C6_15 1_555 1_555
H4_15 C7_15 1_555 1_555
C11_15 C6_15 1_555 1_555
Zn4 O4_16 1_555 1_555
O7_7 C11_16 1_555 1_555
O4_16 C11_16 1_555 1_555
C4_14 C3_14 1_555 1_555
C5_14 C4_14 1_555 1_555
H3_14 C5_14 1_555 1_555
C6_16 C5_14 1_555 1_555
C7_16 C6_16 1_555 1_555
H4_16 C7_16 1_555 1_555
C8_16 C7_16 1_555 1_555
H5_16 C8_16 1_555 1_555
C9_14 C4_14 1_555 1_555
N2_5 C1_14 1_555 1_555
C11_16 C6_16 1_555 1_555
C8_16 C9_14 1_555 1_555
C9_14 N2_5 1_555 1_555
O1_12 C10_12 1_555 1_555
C2_12 H1_12 1_555 1_555
Zn2_4 O6_4 1_555 1_555
N2_8 Zn2_4 1_555 1_555
O1_13 C10_13 1_555 1_555
C2_13 H1_13 1_555 1_555
O1_14 C10_14 1_555 1_555
O6_4 C10_14 1_555 1_555
C1_15 C2_14 1_555 1_555
C2_14 H1_14 1_555 1_555
C3_15 C2_14 1_555 1_555
H2_14 C3_15 1_555 1_555
C4_15 C3_15 1_555 1_555
C5_15 C4_15 1_555 1_555
H3_15 C5_15 1_555 1_555
C9_15 C4_15 1_555 1_555
N2_8 C1_15 1_555 1_555
C10_14 C1_15 1_555 1_555
C9_15 N2_8 1_555 1_555
O1_15 C10_15 1_555 1_555
C2_15 H1_15 1_555 1_555
O1_16 C10_16 1_555 1_555
O2_8 C10_16 1_555 1_555
C1_16 C2_16 1_555 1_555
C2_16 H1_16 1_555 1_555
C3_16 C2_16 1_555 1_555
H2_16 C3_16 1_555 1_555
C4_16 C3_16 1_555 1_555
C5_16 C4_16 1_555 1_555
H3_16 C5_16 1_555 1_555
C9_16 C4_16 1_555 1_555
N1_8 C1_16 1_555 1_555
C10_16 C1_16 1_555 1_555
Zn3_4 O2_8 1_555 1_555
C9_16 N1_8 1_555 1_555
N1_8 Zn3_4 1_555 1_555

#END
