
###############################################################################
#
# This file contains modified crystal structure data generated from the
# MOF subset of the Cambridge Structural Database (CSD) v543 
# hosted by the Cambridge Crystallographic Data Centre (CCDC).
#
# This work is licensed under the Creative Commons
# Attribution-NonCommercial-ShareAlike 4.0 International License.
# To view a copy of this license, visit
# http://creativecommons.org/licenses/by-nc-sa/4.0/
# or send a letter to
# Creative Commons, PO Box 1866, Mountain View, CA 94042, USA.
#
# CIF created using the CSD Python API on 29 September 2022
# The structure has been converted into the P1 space group
# The structure has a 3D framework
# The original CSD entry FIZPOV is in the monoclinic crystal system
# The framework has been calculated to contain at least 10.0% void space
# The void calculation uses a probe of radius 1.32A, grid spacing 0.4
# H atom positions have been added when not included in the experimental data
# Generated hydrogen atom positions removed from atoms on special positions
#
###############################################################################

data_FIZPOV
_chemical_formula_moiety         '(C104 H92 O44 S4 Zn4)n'
_symmetry_cell_setting           triclinic
_symmetry_space_group_name_H-M   'P 1'
_symmetry_Int_Tables_number      1
_space_group_name_Hall           'P 1'
loop_
_symmetry_equiv_pos_site_id
_symmetry_equiv_pos_as_xyz
1 x,y,z
_cell_length_a                   11.078(5)
_cell_length_b                   16.012(6)
_cell_length_c                   23.804(9)
_cell_angle_alpha                90
_cell_angle_beta                 95.333(9)
_cell_angle_gamma                90
_cell_volume                     4204.1
loop_
_atom_site_label
_atom_site_type_symbol
_atom_site_fract_x
_atom_site_fract_y
_atom_site_fract_z
Zn3 Zn 0.04730(6) 0.51772(3) 0.84704(2)
Zn7 Zn 0.04730(6) 0.98228(3) 0.34704(2)
Zn14 Zn 0.15349(9) 0.15789(5) 0.74084(3)
O28 O 0.0364(4) 0.6536(2) 0.76529(17)
O30 O 0.1500(4) 0.6140(2) 0.84180(19)
O32 O 0.1314(4) 0.4479(2) 0.90342(16)
Zn10 Zn 0.95270(6) 0.01772(3) 0.65296(2)
Zn2 Zn 0.15349(9) 0.34211(5) 0.24084(3)
S1 S 0.4296(5) 0.2949(4) 0.2909(3)
O1 O 0.3434(9) 0.3316(6) 0.2472(4)
O2 O 0.1561(6) 0.3316(4) 0.3308(2)
O3 O 0.1733(7) 0.2100(5) 0.2465(3)
O4 O 0.1526(5) 0.1686(3) 0.65738(18)
O5 O 0.0752(4) 0.0616(3) 0.60483(17)
O6 O 0.0364(4) 0.8464(2) 0.26529(17)
O7 O 0.1500(4) 0.8860(2) 0.34180(19)
O8 O 0.1801(4) 0.4671(2) 0.24693(18)
O9 O 0.0381(4) 0.5519(2) 0.20811(15)
O10 O 0.1314(4) 0.0521(2) 0.40342(16)
O11 O 0.1999(7) 0.1604(4) 0.3622(2)
C1 C 0.3010(5) 0.4932(3) 0.4381(2)
H1 H 0.2311 0.5049 0.4147
C2 C 0.3080(5) 0.4216(3) 0.4657(2)
H2 H 0.2442 0.3840 0.4600
C3 C 0.4103(5) 0.3998(3) 0.5041(2)
C4 C 0.4974(5) 0.5393(3) 0.4841(2)
C5 C 0.3986(5) 0.5547(3) 0.44289(19)
C6 C 0.3959(5) 0.6294(3) 0.4121(2)
C7 C 0.4874(5) 0.6866(3) 0.4249(2)
H3 H 0.4859 0.7359 0.4041
C8 C 0.4180(5) 0.3248(3) 0.5329(2)
C9 C 0.3294(5) 0.2562(3) 0.5232(2)
C10 C 0.2975(5) 0.2237(3) 0.4702(2)
H4 H 0.3289 0.2472 0.4389
C11 C 0.2180(6) 0.1555(3) 0.4630(2)
C12 C 0.1663(5) 0.1237(3) 0.5094(2)
H5 H 0.1116 0.0796 0.5048
C13 C 0.1954(5) 0.1568(3) 0.5615(2)
C14 C 0.2770(5) 0.2232(3) 0.5683(2)
H6 H 0.2963 0.2456 0.6041
C15 C 0.3000(5) 0.6476(3) 0.3648(2)
C16 C 0.2525(5) 0.7268(3) 0.3580(2)
H7 H 0.2762 0.7682 0.3841
C17 C 0.1678(5) 0.7456(3) 0.3116(2)
C18 C 0.1294(5) 0.6847(3) 0.2755(2)
H8 H 0.0698 0.6964 0.2464
C19 C 0.1765(5) 0.6050(3) 0.2807(2)
C20 C 0.2660(5) 0.5872(3) 0.3248(2)
H9 H 0.3026 0.5349 0.3271
C21 C 0.1289(5) 0.5349(3) 0.2422(2)
C22 C 0.1361(6) 0.1278(4) 0.6118(3)
C23 C 0.1148(6) 0.8320(3) 0.3054(2)
C24 C 0.1844(7) 0.1205(4) 0.4044(3)
C25 C 0.5525(16) 0.2648(13) 0.2628(9)
H10 H 0.5317 0.2226 0.2349
H11 H 0.6097 0.2424 0.2917
H12 H 0.5880 0.3117 0.2454
C26 C 0.499(2) 0.362(2) 0.3391(10)
H13 H 0.4395 0.3883 0.3601
H14 H 0.5412 0.4045 0.3198
H15 H 0.5561 0.3323 0.3644
O12 O 0.8474(5) 0.8314(3) 0.34262(18)
O13 O 0.9248(4) 0.9384(3) 0.39517(17)
O14 O 0.9636(4) 0.1536(2) 0.73471(17)
O15 O 0.8500(4) 0.1140(2) 0.65820(19)
O16 O 0.8199(4) 0.5329(2) 0.75307(18)
O17 O 0.9619(4) 0.4481(2) 0.79189(15)
O18 O 0.8686(4) 0.9479(2) 0.59658(16)
O19 O 0.8001(7) 0.8396(4) 0.6378(2)
C27 C 0.6990(5) 0.5068(3) 0.5619(2)
H16 H 0.7689 0.4951 0.5853
C28 C 0.6920(5) 0.5784(3) 0.5343(2)
H17 H 0.7558 0.6160 0.5400
C29 C 0.5897(5) 0.6002(3) 0.4959(2)
C30 C 0.5026(5) 0.4607(3) 0.5159(2)
C31 C 0.6014(5) 0.4453(3) 0.55711(19)
C32 C 0.6041(5) 0.3706(3) 0.5879(2)
C33 C 0.5126(5) 0.3134(3) 0.5751(2)
H18 H 0.5141 0.2641 0.5959
C34 C 0.5820(5) 0.6752(3) 0.4671(2)
C35 C 0.6706(5) 0.7438(3) 0.4768(2)
C36 C 0.7025(5) 0.7763(3) 0.5298(2)
H19 H 0.6711 0.7528 0.5611
C37 C 0.7820(6) 0.8445(3) 0.5370(2)
C38 C 0.8337(5) 0.8763(3) 0.4906(2)
H20 H 0.8884 0.9204 0.4952
C39 C 0.8046(5) 0.8432(3) 0.4385(2)
C40 C 0.7230(5) 0.7768(3) 0.4317(2)
H21 H 0.7037 0.7544 0.3959
C41 C 0.7000(5) 0.3524(3) 0.6352(2)
C42 C 0.7475(5) 0.2732(3) 0.6420(2)
H22 H 0.7238 0.2318 0.6159
C43 C 0.8322(5) 0.2544(3) 0.6884(2)
C44 C 0.8706(5) 0.3153(3) 0.7245(2)
H23 H 0.9302 0.3036 0.7536
C45 C 0.8235(5) 0.3950(3) 0.7193(2)
C46 C 0.7340(5) 0.4128(3) 0.6752(2)
H24 H 0.6974 0.4651 0.6729
C47 C 0.8711(5) 0.4651(3) 0.7578(2)
C48 C 0.8639(6) 0.8722(4) 0.3882(3)
C49 C 0.8852(6) 0.1680(3) 0.6946(2)
C50 C 0.8156(7) 0.8795(4) 0.5956(3)
Zn4 Zn 0.84651(9) 0.65789(5) 0.75916(3)
S2 S 0.5704(5) 0.7051(4) 0.7091(3)
O20 O 0.6566(9) 0.6684(6) 0.7528(4)
O21 O 0.8439(6) 0.6684(4) 0.6692(2)
O22 O 0.8267(7) 0.7900(5) 0.7535(3)
C51 C 0.4475(16) 0.7352(13) 0.7372(9)
H25 H 0.4683 0.7774 0.7651
H26 H 0.3903 0.7576 0.7083
H27 H 0.4120 0.6883 0.7546
C52 C 0.501(2) 0.638(2) 0.6609(10)
H28 H 0.5605 0.6117 0.6399
H29 H 0.4588 0.5955 0.6802
H30 H 0.4439 0.6677 0.6356
Zn12 Zn 0.84651(9) 0.84211(5) 0.25916(3)
O23 O 0.8474(5) 0.6686(3) 0.84262(18)
O24 O 0.1526(5) 0.3314(3) 0.15738(18)
O25 O 0.9248(4) 0.5616(3) 0.89517(17)
O26 O 0.0752(4) 0.4384(3) 0.10483(17)
Zn1 Zn 0.95270(6) 0.48228(3) 0.15296(2)
O27 O 0.9636(4) 0.3464(2) 0.23471(17)
O29 O 0.8500(4) 0.3860(2) 0.15820(19)
O31 O 0.8686(4) 0.5521(2) 0.09658(16)
O9_2 O 0.9619(4) 0.0519(2) 0.29189(15)
H1_2 H 0.7689 0.0049 0.0853
C4_2 C 0.5026(5) 0.0393(3) 0.0159(2)
C5_2 C 0.6014(5) 0.0547(3) 0.05711(19)
C6_2 C 0.6041(5) 0.1294(3) 0.0879(2)
C7_2 C 0.5126(5) 0.1866(3) 0.0751(2)
H3_2 H 0.5141 0.2359 0.0959
C15_2 C 0.7000(5) 0.1476(3) 0.1352(2)
C16_2 C 0.7475(5) 0.2268(3) 0.1420(2)
H7_2 H 0.7238 0.2682 0.1159
C17_2 C 0.8322(5) 0.2456(3) 0.1884(2)
C18_2 C 0.8706(5) 0.1847(3) 0.2245(2)
H8_2 H 0.9302 0.1964 0.2536
C19_2 C 0.8235(5) 0.1050(3) 0.2193(2)
C20_2 C 0.7340(5) 0.0872(3) 0.1752(2)
H9_2 H 0.6974 0.0349 0.1729
C21_2 C 0.8711(5) 0.0349(3) 0.2578(2)
C23_2 C 0.8852(6) 0.3320(3) 0.1946(2)
C29_2 C 0.4103(5) 0.1002(3) 0.0041(2)
C34_2 C 0.4180(5) 0.1752(3) 0.0329(2)
C35_2 C 0.3294(5) 0.2438(3) 0.0232(2)
C38_2 C 0.1663(5) 0.3763(3) 0.0094(2)
H20_2 H 0.1116 0.4204 0.0048
C39_2 C 0.1954(5) 0.3432(3) 0.0615(2)
C40_2 C 0.2770(5) 0.2768(3) 0.0683(2)
H21_2 H 0.2963 0.2544 0.1041
C48_2 C 0.1361(6) 0.3722(4) 0.1118(3)
O16_2 O 0.1801(4) 0.0329(2) 0.74693(18)
O19_2 O 0.1999(7) 0.3396(4) 0.8622(2)
C27_2 C 0.3010(5) 0.0068(3) 0.9381(2)
C28_2 C 0.3080(5) 0.0784(3) 0.9657(2)
H17_2 H 0.2442 0.1160 0.9600
C36_2 C 0.2975(5) 0.2763(3) 0.9702(2)
H19_2 H 0.3289 0.2528 0.9389
C37_2 C 0.2180(6) 0.3445(3) 0.9630(2)
C50_2 C 0.1844(7) 0.3795(4) 0.9044(3)
S2_2 S 0.4296(5) 0.2051(4) 0.7909(3)
O20_2 O 0.3434(9) 0.1684(6) 0.7472(4)
O21_2 O 0.1561(6) 0.1684(4) 0.8308(2)
O22_2 O 0.1733(7) 0.2900(5) 0.7465(3)
C51_2 C 0.5525(16) 0.2352(13) 0.7628(9)
H25_2 H 0.5317 0.2774 0.7349
H26_2 H 0.6097 0.2576 0.7917
H27_2 H 0.5880 0.1883 0.7454
C52_2 C 0.499(2) 0.138(2) 0.8391(10)
H28_2 H 0.4395 0.1117 0.8601
H29_2 H 0.5412 0.0955 0.8198
H30_2 H 0.5561 0.1677 0.8644
S1_2 S 0.5704(5) 0.7949(4) 0.2091(3)
O1_2 O 0.6566(9) 0.8316(6) 0.2528(4)
O2_2 O 0.8439(6) 0.8316(4) 0.1692(2)
O3_2 O 0.8267(7) 0.7100(5) 0.2535(3)
O8_2 O 0.8199(4) 0.9671(2) 0.25307(18)
O11_2 O 0.8001(7) 0.6604(4) 0.1378(2)
C1_2 C 0.6990(5) 0.9932(3) 0.0619(2)
C2_2 C 0.6920(5) 0.9216(3) 0.0343(2)
H2_2 H 0.7558 0.8840 0.0400
C10_2 C 0.7025(5) 0.7237(3) 0.0298(2)
H4_2 H 0.6711 0.7472 0.0611
C11_2 C 0.7820(6) 0.6555(3) 0.0370(2)
C24_2 C 0.8156(7) 0.6205(4) 0.0956(3)
C25_2 C 0.4475(16) 0.7648(13) 0.2372(9)
H10_2 H 0.4683 0.7226 0.2651
H11_2 H 0.3903 0.7424 0.2083
H12_2 H 0.4120 0.8117 0.2546
C26_2 C 0.501(2) 0.862(2) 0.1609(10)
H13_2 H 0.5605 0.8883 0.1399
H14_2 H 0.4588 0.9045 0.1802
H15_2 H 0.4439 0.8323 0.1356
C3_2 C 0.5897(5) 0.8998(3) 0.9959(2)
C8_2 C 0.5820(5) 0.8248(3) 0.9671(2)
C9_2 C 0.6706(5) 0.7562(3) 0.9768(2)
C12_2 C 0.8337(5) 0.6237(3) 0.9906(2)
H5_2 H 0.8884 0.5796 0.9952
C13_2 C 0.8046(5) 0.6568(3) 0.9385(2)
C14_2 C 0.7230(5) 0.7232(3) 0.9317(2)
H6_2 H 0.7037 0.7456 0.8959
C22_2 C 0.8639(6) 0.6278(4) 0.8882(3)
O17_2 O 0.0381(4) 0.9481(2) 0.70811(15)
H16_2 H 0.2311 0.9951 0.9147
C30_2 C 0.4974(5) 0.9607(3) 0.9841(2)
C31_2 C 0.3986(5) 0.9453(3) 0.94289(19)
C32_2 C 0.3959(5) 0.8706(3) 0.9121(2)
C33_2 C 0.4874(5) 0.8134(3) 0.9249(2)
H18_2 H 0.4859 0.7641 0.9041
C41_2 C 0.3000(5) 0.8524(3) 0.8648(2)
C42_2 C 0.2525(5) 0.7732(3) 0.8580(2)
H22_2 H 0.2762 0.7318 0.8841
C43_2 C 0.1678(5) 0.7544(3) 0.8116(2)
C44_2 C 0.1294(5) 0.8153(3) 0.7755(2)
H23_2 H 0.0698 0.8036 0.7464
C45_2 C 0.1765(5) 0.8950(3) 0.7807(2)
C46_2 C 0.2660(5) 0.9128(3) 0.8248(2)
H24_2 H 0.3026 0.9651 0.8271
C47_2 C 0.1289(5) 0.9651(3) 0.7422(2)
C49_2 C 0.1148(6) 0.6680(3) 0.8054(2)
loop_
_geom_bond_atom_site_label_1
_geom_bond_atom_site_label_2
_geom_bond_site_symmetry_1
_geom_bond_site_symmetry_2
O30 Zn3 1_555 1_555
O32 Zn3 1_555 1_555
Zn2 O1 1_555 1_555
S1 O1 1_555 1_555
O2 Zn2 1_555 1_555
O3 Zn2 1_555 1_555
O4 C22 1_555 1_555
O5 C22 1_555 1_555
O6 C23 1_555 1_555
O7 C23 1_555 1_555
O8 Zn2 1_555 1_555
O9 C21 1_555 1_555
O10 C24 1_555 1_555
O11 C24 1_555 1_555
C1 H1 1_555 1_555
C2 C1 1_555 1_555
H2 C2 1_555 1_555
C3 C2 1_555 1_555
C4 C5 1_555 1_555
C5 C1 1_555 1_555
C6 C5 1_555 1_555
C7 C6 1_555 1_555
H3 C7 1_555 1_555
C8 C3 1_555 1_555
C9 C8 1_555 1_555
C10 C9 1_555 1_555
H4 C10 1_555 1_555
C11 C10 1_555 1_555
C12 C11 1_555 1_555
H5 C12 1_555 1_555
C13 C12 1_555 1_555
C14 C9 1_555 1_555
H6 C14 1_555 1_555
C15 C6 1_555 1_555
C16 C15 1_555 1_555
H7 C16 1_555 1_555
C17 C16 1_555 1_555
C18 C17 1_555 1_555
H8 C18 1_555 1_555
C19 C18 1_555 1_555
C20 C15 1_555 1_555
H9 C20 1_555 1_555
C21 O8 1_555 1_555
C22 C13 1_555 1_555
C23 C17 1_555 1_555
C24 C11 1_555 1_555
C25 S1 1_555 1_555
H10 C25 1_555 1_555
H11 C25 1_555 1_555
H12 C25 1_555 1_555
C26 S1 1_555 1_555
H13 C26 1_555 1_555
H14 C26 1_555 1_555
H15 C26 1_555 1_555
O12 C48 1_555 1_555
O13 C48 1_555 1_555
O14 C49 1_555 1_555
O15 C49 1_555 1_555
O16 C47 1_555 1_555
O17 C47 1_555 1_555
O18 C50 1_555 1_555
O19 C50 1_555 1_555
C27 H16 1_555 1_555
C28 C27 1_555 1_555
H17 C28 1_555 1_555
C29 C4 1_555 1_555
C30 C3 1_555 1_555
C31 C27 1_555 1_555
C32 C31 1_555 1_555
C33 C8 1_555 1_555
H18 C33 1_555 1_555
C34 C7 1_555 1_555
C35 C34 1_555 1_555
C36 C35 1_555 1_555
H19 C36 1_555 1_555
C37 C36 1_555 1_555
C38 C37 1_555 1_555
H20 C38 1_555 1_555
C39 C38 1_555 1_555
C40 C35 1_555 1_555
H21 C40 1_555 1_555
C41 C32 1_555 1_555
C42 C41 1_555 1_555
H22 C42 1_555 1_555
C43 C42 1_555 1_555
C44 C43 1_555 1_555
H23 C44 1_555 1_555
C45 C44 1_555 1_555
C46 C41 1_555 1_555
H24 C46 1_555 1_555
C47 C45 1_555 1_555
C48 C39 1_555 1_555
C49 C43 1_555 1_555
C50 C37 1_555 1_555
Zn4 O16 1_555 1_555
S2 O20 1_555 1_555
O20 Zn4 1_555 1_555
O21 Zn4 1_555 1_555
O22 Zn4 1_555 1_555
C51 S2 1_555 1_555
H25 C51 1_555 1_555
H26 C51 1_555 1_555
H27 C51 1_555 1_555
C52 S2 1_555 1_555
H28 C52 1_555 1_555
H29 C52 1_555 1_555
H30 C52 1_555 1_555
Zn7 O7 1_555 1_555
Zn10 O15 1_555 1_555
Zn12 O12 1_555 1_555
Zn14 O4 1_555 1_555
O23 Zn4 1_555 1_555
O24 Zn2 1_555 1_555
C4 C30 1_555 1_555
C13 C14 1_555 1_555
C19 C20 1_555 1_555
C19 C21 1_555 1_555
C28 C29 1_555 1_555
C29 C34 1_555 1_555
C30 C31 1_555 1_555
C32 C33 1_555 1_555
C39 C40 1_555 1_555
C45 C46 1_555 1_555
O29 Zn1 1_555 1_555
O31 Zn1 1_555 1_555
O27 C23_2 1_555 1_555
O29 C23_2 1_555 1_555
O9_2 C21_2 1_555 1_555
C4_2 C5_2 1_555 1_555
C6_2 C5_2 1_555 1_555
C7_2 C6_2 1_555 1_555
H3_2 C7_2 1_555 1_555
C15_2 C6_2 1_555 1_555
C16_2 C15_2 1_555 1_555
H7_2 C16_2 1_555 1_555
C17_2 C16_2 1_555 1_555
C18_2 C17_2 1_555 1_555
H8_2 C18_2 1_555 1_555
C19_2 C18_2 1_555 1_555
C20_2 C15_2 1_555 1_555
H9_2 C20_2 1_555 1_555
C23_2 C17_2 1_555 1_555
O24 C48_2 1_555 1_555
O26 C48_2 1_555 1_555
C29_2 C4_2 1_555 1_555
C34_2 C7_2 1_555 1_555
C35_2 C34_2 1_555 1_555
H20_2 C38_2 1_555 1_555
C39_2 C38_2 1_555 1_555
C40_2 C35_2 1_555 1_555
H21_2 C40_2 1_555 1_555
C48_2 C39_2 1_555 1_555
C19_2 C20_2 1_555 1_555
C19_2 C21_2 1_555 1_555
C29_2 C34_2 1_555 1_555
C39_2 C40_2 1_555 1_555
O32 C50_2 1_555 1_555
O19_2 C50_2 1_555 1_555
C28_2 C27_2 1_555 1_555
H17_2 C28_2 1_555 1_555
H19_2 C36_2 1_555 1_555
C37_2 C36_2 1_555 1_555
C50_2 C37_2 1_555 1_555
Zn14 O16_2 1_555 1_555
S2_2 O20_2 1_555 1_555
O20_2 Zn14 1_555 1_555
O21_2 Zn14 1_555 1_555
O22_2 Zn14 1_555 1_555
C51_2 S2_2 1_555 1_555
H25_2 C51_2 1_555 1_555
H26_2 C51_2 1_555 1_555
H27_2 C51_2 1_555 1_555
C52_2 S2_2 1_555 1_555
H28_2 C52_2 1_555 1_555
H29_2 C52_2 1_555 1_555
H30_2 C52_2 1_555 1_555
Zn12 O1_2 1_555 1_555
S1_2 O1_2 1_555 1_555
O2_2 Zn12 1_555 1_555
O3_2 Zn12 1_555 1_555
O8_2 Zn12 1_555 1_555
O31 C24_2 1_555 1_555
O11_2 C24_2 1_555 1_555
C2_2 C1_2 1_555 1_555
H2_2 C2_2 1_555 1_555
H4_2 C10_2 1_555 1_555
C11_2 C10_2 1_555 1_555
C24_2 C11_2 1_555 1_555
C25_2 S1_2 1_555 1_555
H10_2 C25_2 1_555 1_555
H11_2 C25_2 1_555 1_555
H12_2 C25_2 1_555 1_555
C26_2 S1_2 1_555 1_555
H13_2 C26_2 1_555 1_555
H14_2 C26_2 1_555 1_555
H15_2 C26_2 1_555 1_555
O23 C22_2 1_555 1_555
O25 C22_2 1_555 1_555
C8_2 C3_2 1_555 1_555
C9_2 C8_2 1_555 1_555
H5_2 C12_2 1_555 1_555
C13_2 C12_2 1_555 1_555
C14_2 C9_2 1_555 1_555
H6_2 C14_2 1_555 1_555
C22_2 C13_2 1_555 1_555
O28 C49_2 1_555 1_555
O30 C49_2 1_555 1_555
O17_2 C47_2 1_555 1_555
C30_2 C3_2 1_555 1_555
C32_2 C31_2 1_555 1_555
C33_2 C8_2 1_555 1_555
H18_2 C33_2 1_555 1_555
C41_2 C32_2 1_555 1_555
C42_2 C41_2 1_555 1_555
H22_2 C42_2 1_555 1_555
C43_2 C42_2 1_555 1_555
C44_2 C43_2 1_555 1_555
H23_2 C44_2 1_555 1_555
C45_2 C44_2 1_555 1_555
C46_2 C41_2 1_555 1_555
H24_2 C46_2 1_555 1_555
C47_2 C45_2 1_555 1_555
C49_2 C43_2 1_555 1_555
C13_2 C14_2 1_555 1_555
C30_2 C31_2 1_555 1_555
C32_2 C33_2 1_555 1_555
C45_2 C46_2 1_555 1_555

#END
