
###############################################################################
#
# This file contains modified crystal structure data generated from the
# MOF subset of the Cambridge Structural Database (CSD) v543 
# hosted by the Cambridge Crystallographic Data Centre (CCDC).
#
# This work is licensed under the Creative Commons
# Attribution-NonCommercial-ShareAlike 4.0 International License.
# To view a copy of this license, visit
# http://creativecommons.org/licenses/by-nc-sa/4.0/
# or send a letter to
# Creative Commons, PO Box 1866, Mountain View, CA 94042, USA.
#
# CIF created using the CSD Python API on 29 September 2022
# The structure has been converted into the P1 space group
# The structure has a 3D framework
# The original CSD entry FIZPUB is in the monoclinic crystal system
# The framework has been calculated to contain at least 10.0% void space
# The void calculation uses a probe of radius 1.32A, grid spacing 0.4
# H atom positions have been added when not included in the experimental data
# Generated hydrogen atom positions removed from atoms on special positions
#
###############################################################################

data_FIZPUB
_chemical_formula_moiety         '(C96 H64 O42 Zn4)n'
_symmetry_cell_setting           triclinic
_symmetry_space_group_name_H-M   'P 1'
_symmetry_Int_Tables_number      1
_space_group_name_Hall           'P 1'
loop_
_symmetry_equiv_pos_site_id
_symmetry_equiv_pos_as_xyz
1 x,y,z
_cell_length_a                   12.314(4)
_cell_length_b                   14.986(6)
_cell_length_c                   27.116(9)
_cell_angle_alpha                90
_cell_angle_beta                 106.765(13)
_cell_angle_gamma                90
_cell_volume                     4791.23
loop_
_atom_site_label
_atom_site_type_symbol
_atom_site_fract_x
_atom_site_fract_y
_atom_site_fract_z
Zn3 Zn 0.00562(4) 0.02293(3) 0.137781(15)
O18 O 0.0492(3) 0.1822(2) 0.21399(12)
O25 O 0.2214(3) 0.1704(2) 0.15192(11)
O26 O 0.1249(3) 0.05892(19) 0.10648(11)
Zn9 Zn 0.21679(5) 0.15676(4) 0.22398(2)
O29 O 0.2079(3) 0.0268(2) 0.23881(12)
O30 O 0.4004(5) 0.1399(5) 0.2474(3)
O31 O 0.2430(7) 0.2988(6) 0.2306(4)
O32 O 0.2353(8) 0.1818(5) 0.3093(3)
H19 H 0.218513 0.321531 0.260101
H20 H 0.324702 0.312167 0.236363
O28 O 0.0524(2) 0.95019(17) 0.19971(10)
O13 O 0.0828(3) 0.04190(19) 0.92157(10)
C6 C 0.7855(3) 0.8633(2) 0.02430(14)
C8 C 0.7038(4) 0.7956(2) 0.01834(14)
C9 C 0.8347(4) 0.9064(3) 0.07472(15)
H3 H 0.6802 0.7787 0.0466
O3 O 0.7959(4) 0.8910(3) 0.11087(15)
O4 O 0.9172(3) 0.95810(19) 0.07843(10)
C13 C 0.6845(3) 0.5847(2) 0.03448(15)
H5 H 0.7443 0.6250 0.0409
C16 C 0.6971(3) 0.5111(2) 0.06377(14)
H6 H 0.7657 0.5009 0.0887
C25 C 0.5057(3) 0.4612(2) 0.01602(13)
C27 C 0.6066(3) 0.4478(2) 0.05721(13)
C28 C 0.4155(3) 0.3959(2) 0.00587(13)
C30 C 0.6167(3) 0.3705(2) 0.08860(13)
C31 C 0.4312(3) 0.3180(2) 0.03701(13)
C32 C 0.7177(3) 0.3556(2) 0.13435(13)
C33 C 0.5310(3) 0.3084(2) 0.07728(13)
C34 C 0.3430(3) 0.2472(2) 0.02899(13)
C35 C 0.7864(3) 0.2797(2) 0.13694(13)
C36 C 0.7445(3) 0.4154(2) 0.17546(14)
H12 H 0.5399 0.2573 0.0975
C37 C 0.3064(3) 0.2204(2) 0.07087(14)
C39 C 0.8801(4) 0.2667(2) 0.17891(14)
H13 H 0.7686 0.2382 0.1103
C40 C 0.8374(3) 0.4002(2) 0.21858(13)
H14 H 0.7000 0.4660 0.1742
H15 H 0.3365 0.2479 0.1026
C41 C 0.2251(3) 0.1527(2) 0.06615(13)
C43 C 0.9576(4) 0.1872(3) 0.17968(16)
C44 C 0.9060(3) 0.3258(2) 0.21996(13)
C45 C 0.8608(4) 0.4649(3) 0.26304(14)
C46 C 0.1867(4) 0.1253(3) 0.11240(15)
C47 C 0.1794(4) 0.1126(2) 0.01878(14)
O17 O 0.9218(3) 0.13004(18) 0.14438(11)
H17 H 0.9686 0.3158 0.2482
O19 O 0.9476(2) 0.45019(17) 0.30029(10)
O20 O 0.7921(3) 0.5268(2) 0.26119(12)
H18 H 0.1243 0.0687 0.0154
Zn10 Zn 0.99438(4) 0.52293(3) 0.362219(15)
Zn11 Zn 0.78321(5) 0.65676(4) 0.27602(2)
Zn1 Zn 0.99438(4) 0.97707(3) 0.862219(15)
O1 O 0.8751(3) 0.94108(19) 0.89352(11)
C1 C 0.8133(4) 0.8747(3) 0.88760(15)
O2 O 0.7786(3) 0.8296(2) 0.84808(11)
C2 C 0.7749(3) 0.8473(2) 0.93385(13)
Zn2 Zn 0.78321(5) 0.84324(4) 0.77602(2)
C3 C 0.6936(3) 0.7796(2) 0.92913(14)
C4 C 0.8206(4) 0.8874(2) 0.98122(14)
C5 C 0.6570(3) 0.7528(2) 0.97101(13)
H1 H 0.6635 0.7521 0.8974
H2 H 0.8757 0.9313 0.9846
C7 C 0.5688(3) 0.6820(2) 0.96299(13)
C10 C 0.5845(3) 0.6041(2) 0.99413(13)
C11 C 0.4690(3) 0.6916(2) 0.92272(13)
C12 C 0.4943(3) 0.5388(2) 0.98398(13)
C14 C 0.3833(3) 0.6295(2) 0.91140(13)
H4 H 0.4601 0.7427 0.9025
C15 C 0.3934(3) 0.5522(2) 0.94279(13)
C17 C 0.2823(3) 0.6444(2) 0.86565(13)
C18 C 0.2136(3) 0.7203(2) 0.86306(13)
C19 C 0.2555(3) 0.5846(2) 0.82454(14)
C20 C 0.1199(4) 0.7333(2) 0.82109(14)
H7 H 0.2314 0.7618 0.8897
C21 C 0.1626(3) 0.5998(2) 0.78142(13)
H8 H 0.3000 0.5340 0.8258
C22 C 0.0424(4) 0.8128(3) 0.82032(16)
C23 C 0.0940(3) 0.6742(2) 0.78004(13)
C24 C 0.1392(4) 0.5351(3) 0.73696(14)
O5 O 0.0782(3) 0.86996(18) 0.85562(11)
H9 H 0.0314 0.6842 0.7518
O7 O 0.0524(2) 0.54981(17) 0.69971(10)
O8 O 0.2079(3) 0.4732(2) 0.73881(12)
C26 C 0.3029(3) 0.4889(2) 0.93623(14)
H10 H 0.2343 0.4991 0.9113
C29 C 0.3155(3) 0.4153(2) 0.96552(15)
H11 H 0.2557 0.3750 0.9591
C38 C 0.2962(4) 0.2044(2) 0.98166(14)
C42 C 0.2145(3) 0.1367(2) 0.97570(14)
H16 H 0.3198 0.2213 0.9534
Zn6 Zn 0.00562(4) 0.47707(3) 0.637781(15)
Zn7 Zn 0.21679(5) 0.34324(4) 0.72398(2)
C48 C 0.1653(4) 0.0936(3) 0.92528(15)
O23 O 0.2041(4) 0.1090(3) 0.88913(15)
O14 O 0.9476(2) 0.04981(17) 0.80029(10)
O6 O 0.9508(3) 0.8178(2) 0.78601(12)
O9 O 0.7570(7) 0.7012(6) 0.7694(4)
O10 O 0.7647(8) 0.8182(5) 0.6907(3)
O11 O 0.5996(5) 0.8601(5) 0.7526(3)
O16 O 0.7921(3) 0.9732(2) 0.76119(12)
H23 H 0.562492 0.800775 0.745344
H24 H 0.576289 0.889677 0.780709
O6_2 O 0.0492(3) 0.3178(2) 0.71399(12)
O9_2 O 0.2430(7) 0.2012(6) 0.7306(4)
O10_2 O 0.2353(8) 0.3182(5) 0.8093(3)
O11_2 O 0.4004(5) 0.3601(5) 0.7474(3)
O12 O 0.1249(3) 0.44108(19) 0.60648(11)
O15 O 0.2214(3) 0.3296(2) 0.65192(11)
H23_2 H 0.437508 0.300775 0.754656
H24_2 H 0.423711 0.389677 0.719291
C1_2 C 0.1867(4) 0.3747(3) 0.61240(15)
C2_2 C 0.2251(3) 0.3473(2) 0.56615(13)
C3_2 C 0.3064(3) 0.2796(2) 0.57087(14)
C4_2 C 0.1794(4) 0.3874(2) 0.51878(14)
C5_2 C 0.3430(3) 0.2528(2) 0.52899(13)
H1_2 H 0.3365 0.2521 0.6026
H2_2 H 0.1243 0.4313 0.5154
C6_2 C 0.2145(3) 0.3633(2) 0.47570(14)
C7_2 C 0.4312(3) 0.1820(2) 0.53701(13)
C8_2 C 0.2962(4) 0.2956(2) 0.48166(14)
C9_2 C 0.1653(4) 0.4064(3) 0.42528(15)
C10_2 C 0.4155(3) 0.1041(2) 0.50587(13)
C11_2 C 0.5310(3) 0.1916(2) 0.57728(13)
H3_2 H 0.3198 0.2787 0.4534
O3_2 O 0.2041(4) 0.3910(3) 0.38913(15)
O4_2 O 0.0828(3) 0.45810(19) 0.42157(10)
C12_2 C 0.5057(3) 0.0388(2) 0.51602(13)
C13_2 C 0.3155(3) 0.0847(2) 0.46552(15)
C14_2 C 0.6167(3) 0.1295(2) 0.58860(13)
H4_2 H 0.5399 0.2427 0.5975
C15_2 C 0.6066(3) 0.0522(2) 0.55721(13)
H5_2 H 0.2557 0.1250 0.4591
C16_2 C 0.3029(3) 0.0111(2) 0.43623(14)
C17_2 C 0.7177(3) 0.1444(2) 0.63435(13)
H6_2 H 0.2343 0.0009 0.4113
C18_2 C 0.7864(3) 0.2203(2) 0.63694(13)
C19_2 C 0.7445(3) 0.0846(2) 0.67546(14)
C20_2 C 0.8801(4) 0.2333(2) 0.67891(14)
H7_2 H 0.7686 0.2618 0.6103
C21_2 C 0.8374(3) 0.0998(2) 0.71858(13)
H8_2 H 0.7000 0.0340 0.6742
C22_2 C 0.9576(4) 0.3128(3) 0.67968(16)
C23_2 C 0.9060(3) 0.1742(2) 0.71996(13)
C24_2 C 0.8608(4) 0.0351(3) 0.76304(14)
O5_2 O 0.9218(3) 0.36996(18) 0.64438(11)
H9_2 H 0.9686 0.1842 0.7482
O13_2 O 0.9172(3) 0.54190(19) 0.57843(10)
C25_2 C 0.4943(3) 0.9612(2) 0.48398(13)
C26_2 C 0.6971(3) 0.9889(2) 0.56377(14)
C27_2 C 0.3934(3) 0.9478(2) 0.44279(13)
C28_2 C 0.5845(3) 0.8959(2) 0.49413(13)
H10_2 H 0.7657 0.9991 0.5887
C29_2 C 0.6845(3) 0.9153(2) 0.53448(15)
C30_2 C 0.3833(3) 0.8705(2) 0.41140(13)
C31_2 C 0.5688(3) 0.8180(2) 0.46299(13)
H11_2 H 0.7443 0.8750 0.5409
C32_2 C 0.2823(3) 0.8556(2) 0.36565(13)
C33_2 C 0.4690(3) 0.8084(2) 0.42272(13)
C34_2 C 0.6570(3) 0.7472(2) 0.47101(13)
C35_2 C 0.2136(3) 0.7797(2) 0.36306(13)
C36_2 C 0.2555(3) 0.9154(2) 0.32454(14)
H12_2 H 0.4601 0.7573 0.4025
C37_2 C 0.6936(3) 0.7204(2) 0.42913(14)
C38_2 C 0.7038(4) 0.7044(2) 0.51834(14)
C39_2 C 0.1199(4) 0.7667(2) 0.32109(14)
H13_2 H 0.2314 0.7382 0.3897
C40_2 C 0.1626(3) 0.9002(2) 0.28142(13)
H14_2 H 0.3000 0.9660 0.3258
H15_2 H 0.6635 0.7479 0.3974
C41_2 C 0.7749(3) 0.6527(2) 0.43385(13)
C42_2 C 0.7855(3) 0.6367(2) 0.52430(14)
H16_2 H 0.6802 0.7213 0.5466
C43_2 C 0.0424(4) 0.6872(3) 0.32032(16)
C44_2 C 0.0940(3) 0.8258(2) 0.28004(13)
C45_2 C 0.1392(4) 0.9649(3) 0.23696(14)
C46_2 C 0.8133(4) 0.6253(3) 0.38760(15)
C47_2 C 0.8206(4) 0.6126(2) 0.48122(14)
C48_2 C 0.8347(4) 0.5936(3) 0.57472(15)
O17_2 O 0.0782(3) 0.63004(18) 0.35562(11)
H17_2 H 0.0314 0.8158 0.2518
O21 O 0.8751(3) 0.55892(19) 0.39352(11)
O22 O 0.7786(3) 0.6704(2) 0.34808(11)
H18_2 H 0.8757 0.5687 0.4846
O23_2 O 0.7959(4) 0.6090(3) 0.61087(15)
O18_2 O 0.9508(3) 0.6822(2) 0.28601(12)
O30_2 O 0.5996(5) 0.6399(5) 0.2526(3)
O31_2 O 0.7570(7) 0.7988(6) 0.2694(4)
O32_2 O 0.7647(8) 0.6818(5) 0.1907(3)
H19_2 H 0.781487 0.821531 0.239899
H20_2 H 0.675298 0.812167 0.263637
H23_3 H 0.437508 0.199225 0.254656
H24_3 H 0.423711 0.110323 0.219291
H19_3 H 0.781487 0.678469 0.739899
H20_3 H 0.675298 0.687833 0.763637
H19_4 H 0.218513 0.178469 0.760101
H20_4 H 0.324702 0.187833 0.736363
H23_4 H 0.562492 0.699225 0.245344
H24_4 H 0.576289 0.610323 0.280709
loop_
_geom_bond_atom_site_label_1
_geom_bond_atom_site_label_2
_geom_bond_site_symmetry_1
_geom_bond_site_symmetry_2
O25 Zn9 1_555 1_555
O26 Zn3 1_555 1_555
Zn9 O18 1_555 1_555
O29 Zn9 1_555 1_555
O30 Zn9 1_555 1_555
O31 Zn9 1_555 1_555
O32 Zn9 1_555 1_555
O31 H19 1_555 1_555
O31 H20 1_555 1_555
C9 C6 1_555 1_555
H3 C8 1_555 1_555
O3 C9 1_555 1_555
O4 C9 1_555 1_555
H5 C13 1_555 1_555
C16 C13 1_555 1_555
H6 C16 1_555 1_555
C27 C16 1_555 1_555
C28 C25 1_555 1_555
C30 C27 1_555 1_555
C31 C28 1_555 1_555
C32 C30 1_555 1_555
C33 C30 1_555 1_555
C34 C31 1_555 1_555
C35 C32 1_555 1_555
C36 C32 1_555 1_555
H12 C33 1_555 1_555
C37 C34 1_555 1_555
C39 C35 1_555 1_555
H13 C35 1_555 1_555
C40 C36 1_555 1_555
H14 C36 1_555 1_555
H15 C37 1_555 1_555
C41 C37 1_555 1_555
C43 C39 1_555 1_555
C44 C39 1_555 1_555
C45 C40 1_555 1_555
C46 C41 1_555 1_555
C47 C41 1_555 1_555
O17 C43 1_555 1_555
H17 C44 1_555 1_555
O19 C45 1_555 1_555
O20 C45 1_555 1_555
O26 C46 1_555 1_555
O25 C46 1_555 1_555
H18 C47 1_555 1_555
Zn10 O19 1_555 1_555
Zn11 O20 1_555 1_555
C6 C8 1_555 1_555
C25 C27 1_555 1_555
C31 C33 1_555 1_555
C40 C44 1_555 1_555
Zn1 O1 1_555 1_555
O1 C1 1_555 1_555
C1 O2 1_555 1_555
O2 Zn2 1_555 1_555
C2 C1 1_555 1_555
C3 C2 1_555 1_555
C4 C2 1_555 1_555
C5 C3 1_555 1_555
H1 C3 1_555 1_555
H2 C4 1_555 1_555
C7 C5 1_555 1_555
C10 C7 1_555 1_555
C11 C7 1_555 1_555
C12 C10 1_555 1_555
C14 C11 1_555 1_555
H4 C11 1_555 1_555
C15 C12 1_555 1_555
C17 C14 1_555 1_555
C18 C17 1_555 1_555
C19 C17 1_555 1_555
C20 C18 1_555 1_555
H7 C18 1_555 1_555
C21 C19 1_555 1_555
H8 C19 1_555 1_555
C22 C20 1_555 1_555
C23 C20 1_555 1_555
C24 C21 1_555 1_555
O5 C22 1_555 1_555
H9 C23 1_555 1_555
O7 C24 1_555 1_555
O8 C24 1_555 1_555
C26 C15 1_555 1_555
H10 C26 1_555 1_555
C29 C26 1_555 1_555
H11 C29 1_555 1_555
C42 C38 1_555 1_555
H16 C38 1_555 1_555
Zn6 O7 1_555 1_555
Zn7 O8 1_555 1_555
C48 C42 1_555 1_555
O23 C48 1_555 1_555
O13 C48 1_555 1_555
C14 C15 1_555 1_555
C21 C23 1_555 1_555
O9 Zn2 1_555 1_555
O10 Zn2 1_555 1_555
O11 Zn2 1_555 1_555
Zn2 O6 1_555 1_555
O16 Zn2 1_555 1_555
O11 H23 1_555 1_555
O11 H24 1_555 1_555
O9_2 Zn7 1_555 1_555
O10_2 Zn7 1_555 1_555
O11_2 Zn7 1_555 1_555
Zn7 O6_2 1_555 1_555
O12 Zn6 1_555 1_555
O15 Zn7 1_555 1_555
O11_2 H23_2 1_555 1_555
O11_2 H24_2 1_555 1_555
O12 C1_2 1_555 1_555
C1_2 O15 1_555 1_555
C2_2 C1_2 1_555 1_555
C3_2 C2_2 1_555 1_555
C4_2 C2_2 1_555 1_555
C5_2 C3_2 1_555 1_555
H1_2 C3_2 1_555 1_555
H2_2 C4_2 1_555 1_555
C6_2 C4_2 1_555 1_555
C7_2 C5_2 1_555 1_555
C8_2 C5_2 1_555 1_555
C9_2 C6_2 1_555 1_555
C10_2 C7_2 1_555 1_555
C11_2 C7_2 1_555 1_555
H3_2 C8_2 1_555 1_555
O3_2 C9_2 1_555 1_555
O4_2 C9_2 1_555 1_555
C12_2 C10_2 1_555 1_555
C13_2 C10_2 1_555 1_555
C14_2 C11_2 1_555 1_555
H4_2 C11_2 1_555 1_555
C15_2 C12_2 1_555 1_555
H5_2 C13_2 1_555 1_555
C16_2 C13_2 1_555 1_555
C17_2 C14_2 1_555 1_555
H6_2 C16_2 1_555 1_555
C18_2 C17_2 1_555 1_555
C19_2 C17_2 1_555 1_555
C20_2 C18_2 1_555 1_555
H7_2 C18_2 1_555 1_555
C21_2 C19_2 1_555 1_555
H8_2 C19_2 1_555 1_555
C22_2 C20_2 1_555 1_555
C23_2 C20_2 1_555 1_555
C24_2 C21_2 1_555 1_555
O5_2 C22_2 1_555 1_555
H9_2 C23_2 1_555 1_555
O14 C24_2 1_555 1_555
C6_2 C8_2 1_555 1_555
C14_2 C15_2 1_555 1_555
C21_2 C23_2 1_555 1_555
C28_2 C25_2 1_555 1_555
H10_2 C26_2 1_555 1_555
C29_2 C26_2 1_555 1_555
C30_2 C27_2 1_555 1_555
C31_2 C28_2 1_555 1_555
H11_2 C29_2 1_555 1_555
C32_2 C30_2 1_555 1_555
C33_2 C30_2 1_555 1_555
C34_2 C31_2 1_555 1_555
C35_2 C32_2 1_555 1_555
C36_2 C32_2 1_555 1_555
H12_2 C33_2 1_555 1_555
C37_2 C34_2 1_555 1_555
C38_2 C34_2 1_555 1_555
C39_2 C35_2 1_555 1_555
H13_2 C35_2 1_555 1_555
C40_2 C36_2 1_555 1_555
H14_2 C36_2 1_555 1_555
H15_2 C37_2 1_555 1_555
C41_2 C37_2 1_555 1_555
C42_2 C38_2 1_555 1_555
H16_2 C38_2 1_555 1_555
C43_2 C39_2 1_555 1_555
C44_2 C39_2 1_555 1_555
C45_2 C40_2 1_555 1_555
C46_2 C41_2 1_555 1_555
C47_2 C41_2 1_555 1_555
C48_2 C42_2 1_555 1_555
O17_2 C43_2 1_555 1_555
H17_2 C44_2 1_555 1_555
O28 C45_2 1_555 1_555
O21 C46_2 1_555 1_555
O22 C46_2 1_555 1_555
H18_2 C47_2 1_555 1_555
O23_2 C48_2 1_555 1_555
O13_2 C48_2 1_555 1_555
Zn10 O21 1_555 1_555
Zn11 O22 1_555 1_555
C25_2 C27_2 1_555 1_555
C28_2 C29_2 1_555 1_555
C31_2 C33_2 1_555 1_555
C40_2 C44_2 1_555 1_555
C42_2 C47_2 1_555 1_555
Zn11 O18_2 1_555 1_555
O30_2 Zn11 1_555 1_555
O31_2 Zn11 1_555 1_555
O32_2 Zn11 1_555 1_555
O31_2 H19_2 1_555 1_555
O31_2 H20_2 1_555 1_555
O30 H23_3 1_555 1_555
O30 H24_3 1_555 1_555
O9 H19_3 1_555 1_555
O9 H20_3 1_555 1_555
O9_2 H19_4 1_555 1_555
O9_2 H20_4 1_555 1_555
O30_2 H23_4 1_555 1_555
O30_2 H24_4 1_555 1_555

#END
