
###############################################################################
#
# This file contains modified crystal structure data generated from the
# MOF subset of the Cambridge Structural Database (CSD) v543 
# hosted by the Cambridge Crystallographic Data Centre (CCDC).
#
# This work is licensed under the Creative Commons
# Attribution-NonCommercial-ShareAlike 4.0 International License.
# To view a copy of this license, visit
# http://creativecommons.org/licenses/by-nc-sa/4.0/
# or send a letter to
# Creative Commons, PO Box 1866, Mountain View, CA 94042, USA.
#
# CIF created using the CSD Python API on 29 September 2022
# The structure has been converted into the P1 space group
# The structure has a 3D framework
# The original CSD entry FIZWAP is in the tetragonal crystal system
# The original CSD entry FIZWAP is in a Sohncke space group
# The framework has been calculated to contain at least 10.0% void space
# The void calculation uses a probe of radius 1.32A, grid spacing 0.4
#
###############################################################################

data_FIZWAP
_chemical_formula_moiety         '(C192 H128 N16 Ni8 O32)n'
_symmetry_cell_setting           triclinic
_symmetry_space_group_name_H-M   'P 1'
_symmetry_Int_Tables_number      1
_space_group_name_Hall           'P 1'
loop_
_symmetry_equiv_pos_site_id
_symmetry_equiv_pos_as_xyz
1 x,y,z
_cell_length_a                   22.4890(2)
_cell_length_b                   22.4890(2)
_cell_length_c                   12.7672(2)
_cell_angle_alpha                90
_cell_angle_beta                 90
_cell_angle_gamma                90
_cell_volume                     6457.08
loop_
_atom_site_label
_atom_site_type_symbol
_atom_site_fract_x
_atom_site_fract_y
_atom_site_fract_z
N2 N 0.26146(14) 0.31019(13) 0.1665(2)
H9 H 0.306472 0.611710 0.021041
C16 C 0.2980(2) 0.52287(18) 0.0383(3)
H10 H 0.307740 0.522475 0.109066
C20 C 0.2790(2) 0.41404(18) 0.0497(3)
C21 C 0.3069(2) 0.4047(2) 0.1448(4)
H13 H 0.332236 0.433714 0.171349
C22 C 0.2979(2) 0.3531(2) 0.2010(3)
H14 H 0.317537 0.347928 0.264390
C23 C 0.2351(2) 0.31759(19) 0.0739(3)
H15 H 0.210460 0.287653 0.048692
C24 C 0.2431(2) 0.36805(19) 0.0142(3)
Ni2 Ni 0.24894(2) 0.23261(2) 0.24812(4)
N1 N 0.16918(14) 0.25412(17) 0.3156(3)
C4 C 0.0011(2) 0.3033(3) 0.5717(4)
H2 H 0.033883 0.324917 0.594866
C5 C 0.0047(2) 0.2720(3) 0.4806(3)
C8 C 0.06215(19) 0.2683(3) 0.4210(3)
C9 C 0.1149(2) 0.2728(3) 0.4714(4)
H5 H 0.116156 0.280890 0.542790
C10 C 0.16701(18) 0.2651(2) 0.4154(4)
H6 H 0.202797 0.267995 0.451553
C11 C 0.1182(2) 0.2521(4) 0.2666(4)
H7 H 0.118424 0.244508 0.194959
C12 C 0.0641(2) 0.2605(4) 0.3153(4)
H8 H 0.029172 0.260797 0.276260
Ni1 Ni 0.74894(2) 0.26739(2) 0.75188(4)
O1 O 0.79858(11) 0.24690(14) 0.6222(2)
O2 O 0.84443(11) 0.29032(14) 0.7527(2)
O3 O 0.71900(13) 0.31650(11) 0.8765(2)
O4 O 0.73432(16) 0.36270(13) 0.7287(2)
C1 C 0.84465(17) 0.27034(18) 0.6619(3)
C2 C 0.90014(18) 0.2735(2) 0.5968(3)
C3 C 0.94933(19) 0.3034(2) 0.6302(4)
H1 H 0.948062 0.324188 0.693148
C6 C 0.9543(2) 0.2431(4) 0.4435(4)
H3 H 0.955279 0.223731 0.379098
C7 C 0.9027(2) 0.2430(3) 0.5022(4)
H4 H 0.869477 0.222512 0.478236
C13 C 0.72304(19) 0.36370(17) 0.8238(3)
C14 C 0.7163(2) 0.42183(17) 0.8809(3)
C15 C 0.7025(2) 0.42330(18) 0.9856(3)
C17 C 0.7153(2) 0.53000(18) 0.9896(3)
C18 C 0.7269(3) 0.5283(2) 0.8833(4)
H11 H 0.734557 0.563434 0.847463
C19 C 0.7271(3) 0.4744(2) 0.8293(4)
H12 H 0.734633 0.473954 0.757703
H16 H 0.775686 0.628690 0.949638
N3 N 0.66918(14) 0.24588(17) 0.6844(3)
N4 N 0.76146(14) 0.18981(13) 0.8335(2)
O1_2 O 0.29858(11) 0.25310(14) 0.3778(2)
O2_2 O 0.34443(11) 0.20968(14) 0.2473(2)
O3_2 O 0.21900(13) 0.18350(11) 0.1235(2)
O4_2 O 0.23432(16) 0.13730(13) 0.2713(2)
C1_2 C 0.34465(17) 0.22966(18) 0.3381(3)
C2_2 C 0.40014(18) 0.2265(2) 0.4032(3)
C3_2 C 0.44933(19) 0.1966(2) 0.3698(4)
H1_2 H 0.448062 0.175812 0.306852
C4_2 C 0.5011(2) 0.1967(3) 0.4283(4)
H2_2 H 0.533883 0.175083 0.405134
C5_2 C 0.5047(2) 0.2280(3) 0.5194(3)
C6_2 C 0.4543(2) 0.2569(4) 0.5565(4)
H3_2 H 0.455279 0.276269 0.620902
C7_2 C 0.4027(2) 0.2570(3) 0.4978(4)
H4_2 H 0.369477 0.277488 0.521764
C8_2 C 0.56215(19) 0.2317(3) 0.5790(3)
C9_2 C 0.6149(2) 0.2272(3) 0.5286(4)
H5_2 H 0.616156 0.219110 0.457210
C10_2 C 0.66701(18) 0.2349(2) 0.5846(4)
H6_2 H 0.702797 0.232005 0.548447
C11_2 C 0.6182(2) 0.2479(4) 0.7334(4)
H7_2 H 0.618424 0.255492 0.805041
C12_2 C 0.5641(2) 0.2395(4) 0.6847(4)
H8_2 H 0.529172 0.239203 0.723740
C13_2 C 0.22304(19) 0.13630(17) 0.1762(3)
C14_2 C 0.2163(2) 0.07817(17) 0.1191(3)
C15_2 C 0.2025(2) 0.07670(18) 0.0144(3)
C19_2 C 0.2271(3) 0.0256(2) 0.1707(4)
H12_2 H 0.234633 0.026046 0.242297
C20_2 C 0.7790(2) 0.08596(18) 0.9503(3)
C21_2 C 0.8069(2) 0.0953(2) 0.8552(4)
H13_2 H 0.832236 0.066286 0.828651
C22_2 C 0.7979(2) 0.1469(2) 0.7990(3)
H14_2 H 0.817537 0.152072 0.735610
C23_2 C 0.7351(2) 0.18241(19) 0.9261(3)
H15_2 H 0.710460 0.212347 0.951308
C24_2 C 0.7431(2) 0.13195(19) 0.9858(3)
Ni1_2 Ni 0.25106(2) 0.73261(2) 0.75188(4)
O1_3 O 0.20142(11) 0.75310(14) 0.6222(2)
O2_3 O 0.15557(11) 0.70968(14) 0.7527(2)
O3_3 O 0.28100(13) 0.68350(11) 0.8765(2)
O4_3 O 0.26568(16) 0.63730(13) 0.7287(2)
C1_3 C 0.15535(17) 0.72966(18) 0.6619(3)
C2_3 C 0.09986(18) 0.7265(2) 0.5968(3)
C3_3 C 0.05067(19) 0.6966(2) 0.6302(4)
H1_3 H 0.051938 0.675812 0.693148
C6_3 C 0.0457(2) 0.7569(4) 0.4435(4)
H3_3 H 0.044721 0.776269 0.379098
C7_3 C 0.0973(2) 0.7570(3) 0.5022(4)
H4_3 H 0.130523 0.777488 0.478236
C13_3 C 0.27696(19) 0.63630(17) 0.8238(3)
C14_3 C 0.2837(2) 0.57817(17) 0.8809(3)
C15_3 C 0.2975(2) 0.57670(18) 0.9856(3)
C17_2 C 0.2847(2) 0.47000(18) 0.9896(3)
C18_2 C 0.2731(3) 0.4717(2) 0.8833(4)
H11_2 H 0.265443 0.436566 0.847463
C19_3 C 0.2729(3) 0.5256(2) 0.8293(4)
H12_3 H 0.265367 0.526046 0.757703
H16_2 H 0.224314 0.371310 0.949638
N3_2 N 0.33082(14) 0.75412(17) 0.6844(3)
N4_2 N 0.23854(14) 0.81019(13) 0.8335(2)
N1_2 N 0.83082(14) 0.74588(17) 0.3156(3)
C4_3 C 0.9989(2) 0.6967(3) 0.5717(4)
H2_3 H 0.966117 0.675083 0.594866
C5_3 C 0.9953(2) 0.7280(3) 0.4806(3)
C8_3 C 0.93785(19) 0.7317(3) 0.4210(3)
C9_3 C 0.8851(2) 0.7272(3) 0.4714(4)
H5_3 H 0.883844 0.719110 0.542790
C10_3 C 0.83299(18) 0.7349(2) 0.4154(4)
H6_3 H 0.797203 0.732005 0.451553
C11_3 C 0.8818(2) 0.7479(4) 0.2666(4)
H7_3 H 0.881576 0.755492 0.194959
C12_3 C 0.9359(2) 0.7395(4) 0.3153(4)
H8_3 H 0.970828 0.739203 0.276260
Ni3 Ni 0.75106(2) 0.76739(2) 0.24812(4)
N2_2 N 0.73854(14) 0.68981(13) 0.1665(2)
H9_2 H 0.693528 0.388290 0.021041
C16_2 C 0.7020(2) 0.47713(18) 0.0383(3)
H10_2 H 0.692260 0.477525 0.109066
C20_3 C 0.7210(2) 0.58596(18) 0.0497(3)
C21_3 C 0.6931(2) 0.5953(2) 0.1448(4)
H13_3 H 0.667764 0.566286 0.171349
C22_3 C 0.7021(2) 0.6469(2) 0.2010(3)
H14_3 H 0.682463 0.652072 0.264390
C23_3 C 0.7649(2) 0.68241(19) 0.0739(3)
H15_3 H 0.789540 0.712347 0.048692
C24_3 C 0.7569(2) 0.63195(19) 0.0142(3)
C20_4 C 0.2210(2) 0.91404(18) 0.9503(3)
C21_4 C 0.1931(2) 0.9047(2) 0.8552(4)
H13_4 H 0.167764 0.933714 0.828651
C22_4 C 0.2021(2) 0.8531(2) 0.7990(3)
H14_4 H 0.182463 0.847928 0.735610
C23_4 C 0.2649(2) 0.81759(19) 0.9261(3)
H15_4 H 0.289540 0.787653 0.951308
C24_4 C 0.2569(2) 0.86805(19) 0.9858(3)
O1_4 O 0.70142(11) 0.74690(14) 0.3778(2)
O2_4 O 0.65557(11) 0.79032(14) 0.2473(2)
O3_4 O 0.78100(13) 0.81650(11) 0.1235(2)
O4_4 O 0.76568(16) 0.86270(13) 0.2713(2)
C1_4 C 0.65535(17) 0.77034(18) 0.3381(3)
C2_4 C 0.59986(18) 0.7735(2) 0.4032(3)
C3_4 C 0.55067(19) 0.8034(2) 0.3698(4)
H1_4 H 0.551938 0.824188 0.306852
C4_4 C 0.4989(2) 0.8033(3) 0.4283(4)
H2_4 H 0.466117 0.824917 0.405134
C5_4 C 0.4953(2) 0.7720(3) 0.5194(3)
C6_4 C 0.5457(2) 0.7431(4) 0.5565(4)
H3_4 H 0.544721 0.723731 0.620902
C7_4 C 0.5973(2) 0.7430(3) 0.4978(4)
H4_4 H 0.630523 0.722512 0.521764
C8_4 C 0.43785(19) 0.7683(3) 0.5790(3)
C9_4 C 0.3851(2) 0.7728(3) 0.5286(4)
H5_4 H 0.383844 0.780890 0.457210
C10_4 C 0.33299(18) 0.7651(2) 0.5846(4)
H6_4 H 0.297203 0.767995 0.548447
C11_4 C 0.3818(2) 0.7521(4) 0.7334(4)
H7_4 H 0.381576 0.744508 0.805041
C12_4 C 0.4359(2) 0.7605(4) 0.6847(4)
H8_4 H 0.470828 0.760797 0.723740
C13_4 C 0.77696(19) 0.86370(17) 0.1762(3)
C14_4 C 0.7837(2) 0.92183(17) 0.1191(3)
C15_4 C 0.7975(2) 0.92330(18) 0.0144(3)
C19_4 C 0.7729(3) 0.9744(2) 0.1707(4)
H12_4 H 0.765367 0.973954 0.242297
N2_3 N 0.18981(13) 0.76146(14) 0.1665(2)
C20_5 C 0.08596(18) 0.7790(2) 0.0497(3)
C21_5 C 0.0953(2) 0.8069(2) 0.1448(4)
H13_5 H 0.066286 0.832236 0.171349
C22_5 C 0.1469(2) 0.7979(2) 0.2010(3)
H14_5 H 0.152072 0.817537 0.264390
C23_5 C 0.18241(19) 0.7351(2) 0.0739(3)
H15_5 H 0.212347 0.710460 0.048692
C24_5 C 0.13195(19) 0.7431(2) 0.0142(3)
Ni2_2 Ni 0.26739(2) 0.74894(2) 0.24812(4)
Ni1_3 Ni 0.23261(2) 0.24894(2) 0.75188(4)
O1_5 O 0.25310(14) 0.29858(11) 0.6222(2)
O2_5 O 0.20968(14) 0.34443(11) 0.7527(2)
O3_5 O 0.18350(11) 0.21900(13) 0.8765(2)
O4_5 O 0.13730(13) 0.23432(16) 0.7287(2)
N1_3 N 0.24588(17) 0.66918(14) 0.3156(3)
C1_5 C 0.22966(18) 0.34465(17) 0.6619(3)
C2_5 C 0.2265(2) 0.40014(18) 0.5968(3)
C3_5 C 0.1966(2) 0.44933(19) 0.6302(4)
H1_5 H 0.175812 0.448062 0.693148
C4_5 C 0.1967(3) 0.5011(2) 0.5717(4)
H2_5 H 0.175083 0.533883 0.594866
C5_5 C 0.2280(3) 0.5047(2) 0.4806(3)
C6_5 C 0.2569(4) 0.4543(2) 0.4435(4)
H3_5 H 0.276269 0.455279 0.379098
C7_5 C 0.2570(3) 0.4027(2) 0.5022(4)
H4_5 H 0.277488 0.369477 0.478236
C8_5 C 0.2317(3) 0.56215(19) 0.4210(3)
C9_5 C 0.2272(3) 0.6149(2) 0.4714(4)
H5_5 H 0.219110 0.616156 0.542790
C10_5 C 0.2349(2) 0.66701(18) 0.4154(4)
H6_5 H 0.232005 0.702797 0.451553
C11_5 C 0.2479(4) 0.6182(2) 0.2666(4)
H7_5 H 0.255492 0.618424 0.194959
C12_5 C 0.2395(4) 0.5641(2) 0.3153(4)
H8_5 H 0.239203 0.529172 0.276260
C13_5 C 0.13630(17) 0.22304(19) 0.8238(3)
C14_5 C 0.07817(17) 0.2163(2) 0.8809(3)
C15_5 C 0.07670(18) 0.2025(2) 0.9856(3)
C19_5 C 0.0256(2) 0.2271(3) 0.8293(4)
H12_5 H 0.026046 0.234633 0.757703
N3_3 N 0.25412(17) 0.16918(14) 0.6844(3)
N4_3 N 0.31019(13) 0.26146(14) 0.8335(2)
H9_3 H 0.611710 0.306472 0.978959
C16_3 C 0.52287(18) 0.2980(2) 0.9617(3)
H10_3 H 0.522475 0.307740 0.890934
C20_6 C 0.41404(18) 0.2790(2) 0.9503(3)
C21_6 C 0.4047(2) 0.3069(2) 0.8552(4)
H13_6 H 0.433714 0.332236 0.828651
C22_6 C 0.3531(2) 0.2979(2) 0.7990(3)
H14_6 H 0.347928 0.317537 0.735610
C23_6 C 0.31759(19) 0.2351(2) 0.9261(3)
H15_6 H 0.287653 0.210460 0.951308
C24_6 C 0.36805(19) 0.2431(2) 0.9858(3)
C4_6 C 0.3033(3) 0.0011(2) 0.4283(4)
H2_6 H 0.324917 0.033883 0.405134
C5_6 C 0.2720(3) 0.0047(2) 0.5194(3)
C8_6 C 0.2683(3) 0.06215(19) 0.5790(3)
C9_6 C 0.2728(3) 0.1149(2) 0.5286(4)
H5_6 H 0.280890 0.116156 0.457210
C10_6 C 0.2651(2) 0.16701(18) 0.5846(4)
H6_6 H 0.267995 0.202797 0.548447
C11_6 C 0.2521(4) 0.1182(2) 0.7334(4)
H7_6 H 0.244508 0.118424 0.805041
C12_6 C 0.2605(4) 0.0641(2) 0.6847(4)
H8_6 H 0.260797 0.029172 0.723740
O1_6 O 0.24690(14) 0.79858(11) 0.3778(2)
O2_6 O 0.29032(14) 0.84443(11) 0.2473(2)
O3_6 O 0.31650(11) 0.71900(13) 0.1235(2)
O4_6 O 0.36270(13) 0.73432(16) 0.2713(2)
C1_6 C 0.27034(18) 0.84465(17) 0.3381(3)
C2_6 C 0.2735(2) 0.90014(18) 0.4032(3)
C3_6 C 0.3034(2) 0.94933(19) 0.3698(4)
H1_6 H 0.324188 0.948062 0.306852
C6_6 C 0.2431(4) 0.9543(2) 0.5565(4)
H3_6 H 0.223731 0.955279 0.620902
C7_6 C 0.2430(3) 0.9027(2) 0.4978(4)
H4_6 H 0.222512 0.869477 0.521764
C13_6 C 0.36370(17) 0.72304(19) 0.1762(3)
C14_6 C 0.42183(17) 0.7163(2) 0.1191(3)
C15_6 C 0.42330(18) 0.7025(2) 0.0144(3)
C17_3 C 0.53000(18) 0.7153(2) 0.0104(3)
C18_3 C 0.5283(2) 0.7269(3) 0.1167(4)
H11_3 H 0.563434 0.734557 0.152537
C19_6 C 0.4744(2) 0.7271(3) 0.1707(4)
H12_6 H 0.473954 0.734633 0.242297
H16_3 H 0.628690 0.775686 0.050362
C17_4 C 0.03000(18) 0.7847(2) 0.9896(3)
C18_4 C 0.0283(2) 0.7731(3) 0.8833(4)
H11_4 H 0.063434 0.765443 0.847463
H16_4 H 0.128690 0.724314 0.949638
H9_4 H 0.888290 0.806472 0.021041
C16_4 C 0.97713(18) 0.7980(2) 0.0383(3)
H10_4 H 0.977525 0.807740 0.109066
Ni1_4 Ni 0.76739(2) 0.75106(2) 0.75188(4)
O1_7 O 0.74690(14) 0.70142(11) 0.6222(2)
O2_7 O 0.79032(14) 0.65557(11) 0.7527(2)
O3_7 O 0.81650(11) 0.78100(13) 0.8765(2)
O4_7 O 0.86270(13) 0.76568(16) 0.7287(2)
N1_4 N 0.75412(17) 0.33082(14) 0.3156(3)
C1_7 C 0.77034(18) 0.65535(17) 0.6619(3)
C2_7 C 0.7735(2) 0.59986(18) 0.5968(3)
C3_7 C 0.8034(2) 0.55067(19) 0.6302(4)
H1_7 H 0.824188 0.551938 0.693148
C4_7 C 0.8033(3) 0.4989(2) 0.5717(4)
H2_7 H 0.824917 0.466117 0.594866
C5_7 C 0.7720(3) 0.4953(2) 0.4806(3)
C6_7 C 0.7431(4) 0.5457(2) 0.4435(4)
H3_7 H 0.723731 0.544721 0.379098
C7_7 C 0.7430(3) 0.5973(2) 0.5022(4)
H4_7 H 0.722512 0.630523 0.478236
C8_7 C 0.7683(3) 0.43785(19) 0.4210(3)
C9_7 C 0.7728(3) 0.3851(2) 0.4714(4)
H5_7 H 0.780890 0.383844 0.542790
C10_7 C 0.7651(2) 0.33299(18) 0.4154(4)
H6_7 H 0.767995 0.297203 0.451553
C11_7 C 0.7521(4) 0.3818(2) 0.2666(4)
H7_7 H 0.744508 0.381576 0.194959
C12_7 C 0.7605(4) 0.4359(2) 0.3153(4)
H8_7 H 0.760797 0.470828 0.276260
C13_7 C 0.86370(17) 0.77696(19) 0.8238(3)
C14_7 C 0.92183(17) 0.7837(2) 0.8809(3)
C15_7 C 0.92330(18) 0.7975(2) 0.9856(3)
C19_7 C 0.9744(2) 0.7729(3) 0.8293(4)
H12_7 H 0.973954 0.765367 0.757703
Ni3_2 Ni 0.73261(2) 0.25106(2) 0.24812(4)
N3_4 N 0.74588(17) 0.83082(14) 0.6844(3)
N4_4 N 0.68981(13) 0.73854(14) 0.8335(2)
N2_4 N 0.81019(13) 0.23854(14) 0.1665(2)
C20_7 C 0.91404(18) 0.2210(2) 0.0497(3)
C21_7 C 0.9047(2) 0.1931(2) 0.1448(4)
H13_7 H 0.933714 0.167764 0.171349
C22_7 C 0.8531(2) 0.2021(2) 0.2010(3)
H14_7 H 0.847928 0.182463 0.264390
C23_7 C 0.81759(19) 0.2649(2) 0.0739(3)
H15_7 H 0.787653 0.289540 0.048692
C24_7 C 0.86805(19) 0.2569(2) 0.0142(3)
O1_8 O 0.75310(14) 0.20142(11) 0.3778(2)
O2_8 O 0.70968(14) 0.15557(11) 0.2473(2)
O3_8 O 0.68350(11) 0.28100(13) 0.1235(2)
O4_8 O 0.63730(13) 0.26568(16) 0.2713(2)
C1_8 C 0.72966(18) 0.15535(17) 0.3381(3)
C2_8 C 0.7265(2) 0.09986(18) 0.4032(3)
C3_8 C 0.6966(2) 0.05067(19) 0.3698(4)
H1_8 H 0.675812 0.051938 0.306852
C6_8 C 0.7569(4) 0.0457(2) 0.5565(4)
H3_8 H 0.776269 0.044721 0.620902
C7_8 C 0.7570(3) 0.0973(2) 0.4978(4)
H4_8 H 0.777488 0.130523 0.521764
C13_8 C 0.63630(17) 0.27696(19) 0.1762(3)
C14_8 C 0.57817(17) 0.2837(2) 0.1191(3)
C15_8 C 0.57670(18) 0.2975(2) 0.0144(3)
C17_5 C 0.47000(18) 0.2847(2) 0.0104(3)
C18_5 C 0.4717(2) 0.2731(3) 0.1167(4)
H11_5 H 0.436566 0.265443 0.152537
C19_8 C 0.5256(2) 0.2729(3) 0.1707(4)
H12_8 H 0.526046 0.265367 0.242297
H16_5 H 0.371310 0.224314 0.050362
C4_8 C 0.6967(3) 0.9989(2) 0.4283(4)
H2_8 H 0.675083 0.966117 0.405134
C5_8 C 0.7280(3) 0.9953(2) 0.5194(3)
C8_8 C 0.7317(3) 0.93785(19) 0.5790(3)
C9_8 C 0.7272(3) 0.8851(2) 0.5286(4)
H5_8 H 0.719110 0.883844 0.457210
C10_8 C 0.7349(2) 0.83299(18) 0.5846(4)
H6_8 H 0.732005 0.797203 0.548447
C11_8 C 0.7479(4) 0.8818(2) 0.7334(4)
H7_8 H 0.755492 0.881576 0.805041
C12_8 C 0.7395(4) 0.9359(2) 0.6847(4)
H8_8 H 0.739203 0.970828 0.723740
H9_5 H 0.388290 0.693528 0.978959
C16_5 C 0.47713(18) 0.7020(2) 0.9617(3)
H10_5 H 0.477525 0.692260 0.890934
C20_8 C 0.58596(18) 0.7210(2) 0.9503(3)
C21_8 C 0.5953(2) 0.6931(2) 0.8552(4)
H13_8 H 0.566286 0.667764 0.828651
C22_8 C 0.6469(2) 0.7021(2) 0.7990(3)
H14_8 H 0.652072 0.682463 0.735610
C23_8 C 0.68241(19) 0.7649(2) 0.9261(3)
H15_8 H 0.712347 0.789540 0.951308
C24_8 C 0.63195(19) 0.7569(2) 0.9858(3)
H9_6 H 0.111710 0.193528 0.021041
C16_6 C 0.02287(18) 0.2020(2) 0.0383(3)
H10_6 H 0.022475 0.192260 0.109066
C17_6 C 0.97000(18) 0.2153(2) 0.9896(3)
C18_6 C 0.9717(2) 0.2269(3) 0.8833(4)
H11_6 H 0.936566 0.234557 0.847463
H16_6 H 0.871310 0.275686 0.949638
H9_7 H 0.193528 0.111710 0.978959
C16_7 C 0.2020(2) 0.02287(18) 0.9617(3)
H10_7 H 0.192260 0.022475 0.890934
C17_7 C 0.2153(2) 0.97000(18) 0.0104(3)
C18_7 C 0.2269(3) 0.9717(2) 0.1167(4)
H11_7 H 0.234557 0.936566 0.152537
H16_7 H 0.275686 0.871310 0.050362
C17_8 C 0.7847(2) 0.03000(18) 0.0104(3)
C18_8 C 0.7731(3) 0.0283(2) 0.1167(4)
H11_8 H 0.765443 0.063434 0.152537
H16_8 H 0.724314 0.128690 0.050362
H9_8 H 0.806472 0.888290 0.978959
C16_8 C 0.7980(2) 0.97713(18) 0.9617(3)
H10_8 H 0.807740 0.977525 0.890934
loop_
_geom_bond_atom_site_label_1
_geom_bond_atom_site_label_2
_geom_bond_site_symmetry_1
_geom_bond_site_symmetry_2
N2 C22 1_555 1_555
H10 C16 1_555 1_555
C21 C20 1_555 1_555
H13 C21 1_555 1_555
C22 C21 1_555 1_555
H14 C22 1_555 1_555
C23 N2 1_555 1_555
H15 C23 1_555 1_555
C24 C20 1_555 1_555
Ni2 N2 1_555 1_555
C23 C24 1_555 1_555
N1 C10 1_555 1_555
H2 C4 1_555 1_555
C5 C4 1_555 1_555
C8 C5 1_555 1_555
C9 C8 1_555 1_555
H5 C9 1_555 1_555
C10 C9 1_555 1_555
H6 C10 1_555 1_555
C11 N1 1_555 1_555
H7 C11 1_555 1_555
C12 C8 1_555 1_555
H8 C12 1_555 1_555
Ni2 N1 1_555 1_555
C11 C12 1_555 1_555
Ni1 O1 1_555 1_555
O1 C1 1_555 1_555
O2 Ni1 1_555 1_555
O3 Ni1 1_555 1_555
O4 Ni1 1_555 1_555
C1 O2 1_555 1_555
C2 C1 1_555 1_555
C3 C2 1_555 1_555
H1 C3 1_555 1_555
H3 C6 1_555 1_555
C7 C2 1_555 1_555
H4 C7 1_555 1_555
C13 O3 1_555 1_555
C14 C13 1_555 1_555
C15 C14 1_555 1_555
C18 C17 1_555 1_555
H11 C18 1_555 1_555
C19 C14 1_555 1_555
H12 C19 1_555 1_555
N3 Ni1 1_555 1_555
N4 Ni1 1_555 1_555
O4 C13 1_555 1_555
C6 C7 1_555 1_555
C18 C19 1_555 1_555
Ni2 O1_2 1_555 1_555
O1_2 C1_2 1_555 1_555
O2_2 Ni2 1_555 1_555
O3_2 Ni2 1_555 1_555
O4_2 Ni2 1_555 1_555
N3 C10_2 1_555 1_555
C1_2 O2_2 1_555 1_555
C2_2 C1_2 1_555 1_555
C3_2 C2_2 1_555 1_555
H1_2 C3_2 1_555 1_555
C4_2 C3_2 1_555 1_555
H2_2 C4_2 1_555 1_555
C5_2 C4_2 1_555 1_555
C6_2 C5_2 1_555 1_555
H3_2 C6_2 1_555 1_555
C7_2 C2_2 1_555 1_555
H4_2 C7_2 1_555 1_555
C8_2 C5_2 1_555 1_555
C9_2 C8_2 1_555 1_555
H5_2 C9_2 1_555 1_555
C10_2 C9_2 1_555 1_555
H6_2 C10_2 1_555 1_555
C11_2 N3 1_555 1_555
H7_2 C11_2 1_555 1_555
C12_2 C8_2 1_555 1_555
H8_2 C12_2 1_555 1_555
C13_2 O3_2 1_555 1_555
C14_2 C13_2 1_555 1_555
C15_2 C14_2 1_555 1_555
C19_2 C14_2 1_555 1_555
H12_2 C19_2 1_555 1_555
O4_2 C13_2 1_555 1_555
C6_2 C7_2 1_555 1_555
C11_2 C12_2 1_555 1_555
N4 C22_2 1_555 1_555
C21_2 C20_2 1_555 1_555
H13_2 C21_2 1_555 1_555
C22_2 C21_2 1_555 1_555
H14_2 C22_2 1_555 1_555
C23_2 N4 1_555 1_555
H15_2 C23_2 1_555 1_555
C24_2 C20_2 1_555 1_555
C23_2 C24_2 1_555 1_555
Ni1_2 O1_3 1_555 1_555
O1_3 C1_3 1_555 1_555
O2_3 Ni1_2 1_555 1_555
O3_3 Ni1_2 1_555 1_555
O4_3 Ni1_2 1_555 1_555
C1_3 O2_3 1_555 1_555
C2_3 C1_3 1_555 1_555
C3_3 C2_3 1_555 1_555
H1_3 C3_3 1_555 1_555
H3_3 C6_3 1_555 1_555
C7_3 C2_3 1_555 1_555
H4_3 C7_3 1_555 1_555
C13_3 O3_3 1_555 1_555
C14_3 C13_3 1_555 1_555
C15_3 C14_3 1_555 1_555
C18_2 C17_2 1_555 1_555
H11_2 C18_2 1_555 1_555
C19_3 C14_3 1_555 1_555
H12_3 C19_3 1_555 1_555
N3_2 Ni1_2 1_555 1_555
N4_2 Ni1_2 1_555 1_555
O4_3 C13_3 1_555 1_555
C6_3 C7_3 1_555 1_555
C18_2 C19_3 1_555 1_555
N1_2 C10_3 1_555 1_555
H2_3 C4_3 1_555 1_555
C5_3 C4_3 1_555 1_555
C8_3 C5_3 1_555 1_555
C9_3 C8_3 1_555 1_555
H5_3 C9_3 1_555 1_555
C10_3 C9_3 1_555 1_555
H6_3 C10_3 1_555 1_555
C11_3 N1_2 1_555 1_555
H7_3 C11_3 1_555 1_555
C12_3 C8_3 1_555 1_555
H8_3 C12_3 1_555 1_555
Ni3 N1_2 1_555 1_555
C11_3 C12_3 1_555 1_555
N2_2 C22_3 1_555 1_555
H10_2 C16_2 1_555 1_555
C21_3 C20_3 1_555 1_555
H13_3 C21_3 1_555 1_555
C22_3 C21_3 1_555 1_555
H14_3 C22_3 1_555 1_555
C23_3 N2_2 1_555 1_555
H15_3 C23_3 1_555 1_555
C24_3 C20_3 1_555 1_555
Ni3 N2_2 1_555 1_555
C23_3 C24_3 1_555 1_555
N4_2 C22_4 1_555 1_555
C21_4 C20_4 1_555 1_555
H13_4 C21_4 1_555 1_555
C22_4 C21_4 1_555 1_555
H14_4 C22_4 1_555 1_555
C23_4 N4_2 1_555 1_555
H15_4 C23_4 1_555 1_555
C24_4 C20_4 1_555 1_555
C23_4 C24_4 1_555 1_555
Ni3 O1_4 1_555 1_555
O1_4 C1_4 1_555 1_555
O2_4 Ni3 1_555 1_555
O3_4 Ni3 1_555 1_555
O4_4 Ni3 1_555 1_555
N3_2 C10_4 1_555 1_555
C1_4 O2_4 1_555 1_555
C2_4 C1_4 1_555 1_555
C3_4 C2_4 1_555 1_555
H1_4 C3_4 1_555 1_555
C4_4 C3_4 1_555 1_555
H2_4 C4_4 1_555 1_555
C5_4 C4_4 1_555 1_555
C6_4 C5_4 1_555 1_555
H3_4 C6_4 1_555 1_555
C7_4 C2_4 1_555 1_555
H4_4 C7_4 1_555 1_555
C8_4 C5_4 1_555 1_555
C9_4 C8_4 1_555 1_555
H5_4 C9_4 1_555 1_555
C10_4 C9_4 1_555 1_555
H6_4 C10_4 1_555 1_555
C11_4 N3_2 1_555 1_555
H7_4 C11_4 1_555 1_555
C12_4 C8_4 1_555 1_555
H8_4 C12_4 1_555 1_555
C13_4 O3_4 1_555 1_555
C14_4 C13_4 1_555 1_555
C15_4 C14_4 1_555 1_555
C19_4 C14_4 1_555 1_555
H12_4 C19_4 1_555 1_555
O4_4 C13_4 1_555 1_555
C6_4 C7_4 1_555 1_555
C11_4 C12_4 1_555 1_555
N2_3 C22_5 1_555 1_555
C21_5 C20_5 1_555 1_555
H13_5 C21_5 1_555 1_555
C22_5 C21_5 1_555 1_555
H14_5 C22_5 1_555 1_555
C23_5 N2_3 1_555 1_555
H15_5 C23_5 1_555 1_555
C24_5 C20_5 1_555 1_555
Ni2_2 N2_3 1_555 1_555
C23_5 C24_5 1_555 1_555
Ni1_3 O1_5 1_555 1_555
O1_5 C1_5 1_555 1_555
O2_5 Ni1_3 1_555 1_555
O3_5 Ni1_3 1_555 1_555
O4_5 Ni1_3 1_555 1_555
N1_3 C10_5 1_555 1_555
C1_5 O2_5 1_555 1_555
C2_5 C1_5 1_555 1_555
C3_5 C2_5 1_555 1_555
H1_5 C3_5 1_555 1_555
C4_5 C3_5 1_555 1_555
H2_5 C4_5 1_555 1_555
C5_5 C4_5 1_555 1_555
C6_5 C5_5 1_555 1_555
H3_5 C6_5 1_555 1_555
C7_5 C2_5 1_555 1_555
H4_5 C7_5 1_555 1_555
C8_5 C5_5 1_555 1_555
C9_5 C8_5 1_555 1_555
H5_5 C9_5 1_555 1_555
C10_5 C9_5 1_555 1_555
H6_5 C10_5 1_555 1_555
C11_5 N1_3 1_555 1_555
H7_5 C11_5 1_555 1_555
C12_5 C8_5 1_555 1_555
H8_5 C12_5 1_555 1_555
C13_5 O3_5 1_555 1_555
C14_5 C13_5 1_555 1_555
C15_5 C14_5 1_555 1_555
C19_5 C14_5 1_555 1_555
H12_5 C19_5 1_555 1_555
Ni2_2 N1_3 1_555 1_555
N3_3 Ni1_3 1_555 1_555
N4_3 Ni1_3 1_555 1_555
O4_5 C13_5 1_555 1_555
C6_5 C7_5 1_555 1_555
C11_5 C12_5 1_555 1_555
N4_3 C22_6 1_555 1_555
H10_3 C16_3 1_555 1_555
C21_6 C20_6 1_555 1_555
H13_6 C21_6 1_555 1_555
C22_6 C21_6 1_555 1_555
H14_6 C22_6 1_555 1_555
C23_6 N4_3 1_555 1_555
H15_6 C23_6 1_555 1_555
C24_6 C20_6 1_555 1_555
C23_6 C24_6 1_555 1_555
N3_3 C10_6 1_555 1_555
H2_6 C4_6 1_555 1_555
C5_6 C4_6 1_555 1_555
C8_6 C5_6 1_555 1_555
C9_6 C8_6 1_555 1_555
H5_6 C9_6 1_555 1_555
C10_6 C9_6 1_555 1_555
H6_6 C10_6 1_555 1_555
C11_6 N3_3 1_555 1_555
H7_6 C11_6 1_555 1_555
C12_6 C8_6 1_555 1_555
H8_6 C12_6 1_555 1_555
C11_6 C12_6 1_555 1_555
Ni2_2 O1_6 1_555 1_555
O1_6 C1_6 1_555 1_555
O2_6 Ni2_2 1_555 1_555
O3_6 Ni2_2 1_555 1_555
O4_6 Ni2_2 1_555 1_555
C1_6 O2_6 1_555 1_555
C2_6 C1_6 1_555 1_555
C3_6 C2_6 1_555 1_555
H1_6 C3_6 1_555 1_555
H3_6 C6_6 1_555 1_555
C7_6 C2_6 1_555 1_555
H4_6 C7_6 1_555 1_555
C13_6 O3_6 1_555 1_555
C14_6 C13_6 1_555 1_555
C15_6 C14_6 1_555 1_555
C18_3 C17_3 1_555 1_555
H11_3 C18_3 1_555 1_555
C19_6 C14_6 1_555 1_555
H12_6 C19_6 1_555 1_555
O4_6 C13_6 1_555 1_555
C6_6 C7_6 1_555 1_555
C18_3 C19_6 1_555 1_555
C18_4 C17_4 1_555 1_555
H11_4 C18_4 1_555 1_555
H10_4 C16_4 1_555 1_555
Ni1_4 O1_7 1_555 1_555
O1_7 C1_7 1_555 1_555
O2_7 Ni1_4 1_555 1_555
O3_7 Ni1_4 1_555 1_555
O4_7 Ni1_4 1_555 1_555
N1_4 C10_7 1_555 1_555
C1_7 O2_7 1_555 1_555
C2_7 C1_7 1_555 1_555
C3_7 C2_7 1_555 1_555
H1_7 C3_7 1_555 1_555
C4_7 C3_7 1_555 1_555
H2_7 C4_7 1_555 1_555
C5_7 C4_7 1_555 1_555
C6_7 C5_7 1_555 1_555
H3_7 C6_7 1_555 1_555
C7_7 C2_7 1_555 1_555
H4_7 C7_7 1_555 1_555
C8_7 C5_7 1_555 1_555
C9_7 C8_7 1_555 1_555
H5_7 C9_7 1_555 1_555
C10_7 C9_7 1_555 1_555
H6_7 C10_7 1_555 1_555
C11_7 N1_4 1_555 1_555
H7_7 C11_7 1_555 1_555
C12_7 C8_7 1_555 1_555
H8_7 C12_7 1_555 1_555
C13_7 O3_7 1_555 1_555
C14_7 C13_7 1_555 1_555
C15_7 C14_7 1_555 1_555
C19_7 C14_7 1_555 1_555
H12_7 C19_7 1_555 1_555
Ni3_2 N1_4 1_555 1_555
N3_4 Ni1_4 1_555 1_555
N4_4 Ni1_4 1_555 1_555
O4_7 C13_7 1_555 1_555
C6_7 C7_7 1_555 1_555
C11_7 C12_7 1_555 1_555
N2_4 C22_7 1_555 1_555
C21_7 C20_7 1_555 1_555
H13_7 C21_7 1_555 1_555
C22_7 C21_7 1_555 1_555
H14_7 C22_7 1_555 1_555
C23_7 N2_4 1_555 1_555
H15_7 C23_7 1_555 1_555
C24_7 C20_7 1_555 1_555
Ni3_2 N2_4 1_555 1_555
C23_7 C24_7 1_555 1_555
Ni3_2 O1_8 1_555 1_555
O1_8 C1_8 1_555 1_555
O2_8 Ni3_2 1_555 1_555
O3_8 Ni3_2 1_555 1_555
O4_8 Ni3_2 1_555 1_555
C1_8 O2_8 1_555 1_555
C2_8 C1_8 1_555 1_555
C3_8 C2_8 1_555 1_555
H1_8 C3_8 1_555 1_555
H3_8 C6_8 1_555 1_555
C7_8 C2_8 1_555 1_555
H4_8 C7_8 1_555 1_555
C13_8 O3_8 1_555 1_555
C14_8 C13_8 1_555 1_555
C15_8 C14_8 1_555 1_555
C18_5 C17_5 1_555 1_555
H11_5 C18_5 1_555 1_555
C19_8 C14_8 1_555 1_555
H12_8 C19_8 1_555 1_555
O4_8 C13_8 1_555 1_555
C6_8 C7_8 1_555 1_555
C18_5 C19_8 1_555 1_555
N3_4 C10_8 1_555 1_555
H2_8 C4_8 1_555 1_555
C5_8 C4_8 1_555 1_555
C8_8 C5_8 1_555 1_555
C9_8 C8_8 1_555 1_555
H5_8 C9_8 1_555 1_555
C10_8 C9_8 1_555 1_555
H6_8 C10_8 1_555 1_555
C11_8 N3_4 1_555 1_555
H7_8 C11_8 1_555 1_555
C12_8 C8_8 1_555 1_555
H8_8 C12_8 1_555 1_555
C11_8 C12_8 1_555 1_555
N4_4 C22_8 1_555 1_555
H10_5 C16_5 1_555 1_555
C21_8 C20_8 1_555 1_555
H13_8 C21_8 1_555 1_555
C22_8 C21_8 1_555 1_555
H14_8 C22_8 1_555 1_555
C23_8 N4_4 1_555 1_555
H15_8 C23_8 1_555 1_555
C24_8 C20_8 1_555 1_555
C23_8 C24_8 1_555 1_555
H10_6 C16_6 1_555 1_555
C18_6 C17_6 1_555 1_555
H11_6 C18_6 1_555 1_555
H10_7 C16_7 1_555 1_555
C18_7 C17_7 1_555 1_555
H11_7 C18_7 1_555 1_555
C18_8 C17_8 1_555 1_555
H11_8 C18_8 1_555 1_555
H10_8 C16_8 1_555 1_555

#END
