
###############################################################################
#
# This file contains modified crystal structure data generated from the
# MOF subset of the Cambridge Structural Database (CSD) v543 
# hosted by the Cambridge Crystallographic Data Centre (CCDC).
#
# This work is licensed under the Creative Commons
# Attribution-NonCommercial-ShareAlike 4.0 International License.
# To view a copy of this license, visit
# http://creativecommons.org/licenses/by-nc-sa/4.0/
# or send a letter to
# Creative Commons, PO Box 1866, Mountain View, CA 94042, USA.
#
# CIF created using the CSD Python API on 29 September 2022
# The structure has been converted into the P1 space group
# The structure has a 3D framework
# The original CSD entry FIZWIX is in the orthorhombic crystal system
# The framework has been calculated to contain at least 10.0% void space
# The void calculation uses a probe of radius 1.32A, grid spacing 0.4
#
###############################################################################

data_FIZWIX
_chemical_formula_moiety         '(C192 H128 Cd8 N16 O32)n'
_symmetry_cell_setting           triclinic
_symmetry_space_group_name_H-M   'P 1'
_symmetry_Int_Tables_number      1
_space_group_name_Hall           'P 1'
loop_
_symmetry_equiv_pos_site_id
_symmetry_equiv_pos_as_xyz
1 x,y,z
_cell_length_a                   16.46451(16)
_cell_length_b                   14.81492(14)
_cell_length_c                   21.8029(2)
_cell_angle_alpha                90
_cell_angle_beta                 90
_cell_angle_gamma                90
_cell_volume                     5318.17
loop_
_atom_site_label
_atom_site_type_symbol
_atom_site_fract_x
_atom_site_fract_y
_atom_site_fract_z
Cd3 Cd 0.52152(4) 0.47597(3) 0.03375(3)
N2 N 0.4353(6) 0.4815(5) 0.9451(4)
O5 O 0.1047(6) 0.4650(5) 0.5875(4)
C2 C 0.1658(6) 0.4973(9) 0.7995(5)
H1 H 0.144097 0.500178 0.838826
C4 C 0.2912(7) 0.4917(8) 0.7275(5)
H3 H 0.346824 0.489774 0.720285
C7 C 0.2339(6) 0.4935(10) 0.6795(6)
H5 H 0.253787 0.492168 0.639584
C14 C 0.2562(8) 0.4932(7) 0.7910(6)
O8 O 0.0005(7) 0.5273(5) 0.6419(5)
C15 C 0.0779(7) 0.4960(7) 0.6367(5)
C33 C 0.3990(6) 0.4415(7) 0.8434(4)
H20 H 0.414100 0.411906 0.807588
C35 C 0.3625(10) 0.5256(7) 0.9449(7)
H21 H 0.349803 0.556947 0.980621
C37 C 0.3188(6) 0.4899(7) 0.8439(5)
C40 C 0.4528(6) 0.4380(6) 0.8935(5)
H25 H 0.500745 0.405084 0.890477
C45 C 0.1422(6) 0.4976(7) 0.6877(5)
C46 C 0.3018(7) 0.5302(8) 0.8961(6)
H30 H 0.252964 0.560531 0.901781
C48 C 0.1142(8) 0.4969(13) 0.7488(7)
H32 H 0.058405 0.496095 0.755619
N5 N 0.0647(6) 0.4815(5) 0.4451(4)
O5_2 O 0.3953(6) 0.4650(5) 0.0875(4)
C2_2 C 0.3342(6) 0.4973(9) 0.2995(5)
H1_2 H 0.355903 0.500178 0.338826
C4_2 C 0.2088(7) 0.4917(8) 0.2275(5)
H3_2 H 0.153176 0.489774 0.220285
C5 C 0.9098(6) 0.7297(6) 0.0337(7)
H4 H 0.900514 0.697287 0.069516
C7_2 C 0.2661(6) 0.4935(10) 0.1795(6)
H5_2 H 0.246213 0.492168 0.139584
C9 C 0.7433(5) 0.3205(5) 0.0164(5)
N4 N 0.6023(5) 0.5943(5) 0.0134(4)
O7 O 0.6367(5) 0.3974(5) 0.0723(4)
C14_2 C 0.2438(8) 0.4932(7) 0.2910(6)
O8_2 O 0.4995(7) 0.5273(5) 0.1419(5)
C15_2 C 0.4221(7) 0.4960(7) 0.1367(5)
C16 C 0.9061(5) 0.2336(6) 0.0049(5)
C17 C 0.9901(6) 0.7710(5) 0.0282(6)
C18 C 0.8872(6) 0.2798(6) 0.0582(5)
H11 H 0.924707 0.283580 0.089930
C23 C 0.6625(5) 0.3711(5) 0.0222(5)
C32 C 0.8084(6) 0.3224(6) 0.0639(5)
H19 H 0.797559 0.353266 0.100122
C33_2 C 0.1010(6) 0.4415(7) 0.3434(4)
H20_2 H 0.085900 0.411906 0.307588
C35_2 C 0.1375(10) 0.5256(7) 0.4449(7)
H21_2 H 0.150197 0.556947 0.480621
C37_2 C 0.1812(6) 0.4899(7) 0.3439(5)
C40_2 C 0.0472(6) 0.4380(6) 0.3935(5)
C42 C 0.6488(6) 0.6220(7) 0.0612(5)
H27 H 0.630251 0.609739 0.100615
C43 C 0.7252(7) 0.6695(7) 0.0550(5)
H28 H 0.753402 0.687668 0.089832
C45_2 C 0.3578(6) 0.4976(7) 0.1877(5)
C46_2 C 0.1982(7) 0.5302(8) 0.3961(6)
H30_2 H 0.247036 0.560531 0.401781
C48_2 C 0.3858(8) 0.4969(13) 0.2488(7)
H32_2 H 0.441595 0.496095 0.255619
O3 O 0.6195(4) 0.3907(4) 0.9767(4)
H7 H 0.998430 0.193360 0.903475
C11 C 0.7564(6) 0.6879(5) 0.9974(5)
C13 C 0.7599(6) 0.2754(5) 0.9674(6)
H9 H 0.721110 0.271706 0.936447
C20 C 0.8565(6) 0.7781(6) 0.9394(5)
H12 H 0.816770 0.783853 0.909333
C21 C 0.9390(6) 0.8208(6) 0.9305(5)
H13 H 0.949042 0.850787 0.893837
C22 C 0.8413(5) 0.7327(5) 0.9899(5)
C31 C 0.6297(6) 0.6145(6) 0.9605(7)
H18 H 0.598366 0.598089 0.926763
C34 C 0.9894(6) 0.1873(6) 0.9952(5)
C38 C 0.8381(5) 0.2299(6) 0.9591(5)
H23 H 0.846131 0.196801 0.923334
C41 C 0.7056(6) 0.6611(6) 0.9484(5)
H26 H 0.720960 0.673402 0.908157
Cd1 Cd 0.97848(4) 0.47597(3) 0.53375(3)
O1 O 0.3846(5) 0.8933(5) 0.4194(4)
O2 O 0.3711(5) 0.8885(6) 0.5224(4)
O3_2 O 0.8805(4) 0.3907(4) 0.4767(4)
N1 N 0.3566(5) 0.0862(5) 0.4778(4)
O6 O 0.2476(7) 0.0186(5) 0.3524(6)
C5_2 C 0.5902(6) 0.7297(6) 0.5337(7)
H4_2 H 0.599486 0.697287 0.569516
C8 C 0.3973(6) 0.1223(7) 0.4296(6)
H6 H 0.376085 0.116084 0.390313
C9_2 C 0.7567(5) 0.3205(5) 0.5164(5)
N4_2 N 0.8977(5) 0.5943(5) 0.5134(4)
C10 C 0.4751(7) 0.1717(7) 0.4382(6)
H7_2 H 0.501570 0.193360 0.403475
C11_2 C 0.7436(6) 0.6879(5) 0.4974(5)
O7_2 O 0.8633(5) 0.3974(5) 0.5723(4)
C13_2 C 0.7401(6) 0.2754(5) 0.4674(6)
H9_2 H 0.778890 0.271706 0.436447
C16_2 C 0.5939(5) 0.2336(6) 0.5049(5)
C17_2 C 0.5099(6) 0.7710(5) 0.5282(6)
H10 H 0.470822 0.765093 0.558748
C18_2 C 0.6128(6) 0.2798(6) 0.5582(5)
H11_2 H 0.575293 0.283580 0.589930
C20_2 C 0.6435(6) 0.7781(6) 0.4394(5)
H12_2 H 0.683230 0.783853 0.409333
C21_2 C 0.5610(6) 0.8208(6) 0.4305(5)
H13_2 H 0.550958 0.850787 0.393837
C22_2 C 0.6587(5) 0.7327(5) 0.4899(5)
C23_2 C 0.8375(5) 0.3711(5) 0.5222(5)
C24 C 0.4955(5) 0.8179(6) 0.4764(5)
C27 C 0.4110(5) 0.8705(6) 0.4714(5)
C28 C 0.3893(7) 0.1034(9) 0.5349(6)
H16 H 0.361678 0.081859 0.569120
C31_2 C 0.8703(6) 0.6145(6) 0.4605(7)
H18_2 H 0.901634 0.598089 0.426763
C32_2 C 0.6916(6) 0.3224(6) 0.5639(5)
H19_2 H 0.702441 0.353266 0.600122
C34_2 C 0.5106(6) 0.1873(6) 0.4952(5)
C36 C 0.4642(7) 0.1531(7) 0.5447(5)
H22 H 0.482167 0.162687 0.584611
C38_2 C 0.6619(5) 0.2299(6) 0.4591(5)
H23_2 H 0.653869 0.196801 0.423334
C41_2 C 0.7944(6) 0.6611(6) 0.4484(5)
H26_2 H 0.779040 0.673402 0.408157
C42_2 C 0.8512(6) 0.6220(7) 0.5612(5)
H27_2 H 0.869749 0.609739 0.600615
C43_2 C 0.7748(7) 0.6695(7) 0.5550(5)
H28_2 H 0.746598 0.687668 0.589832
Cd4 Cd 0.27212(4) 0.97385(3) 0.46303(3)
C1 C 0.1084(6) 0.9925(7) 0.3056(4)
O4 O 0.1434(6) 0.9655(5) 0.4097(4)
C3 C 0.1438(6) 0.9933(8) 0.2469(5)
H2 H 0.199263 0.994517 0.238863
C29 C 0.1697(7) 0.9922(7) 0.3576(5)
C39 C 0.0155(7) 0.9998(9) 0.3132(6)
C47 C 0.0786(8) 0.9918(11) 0.1998(7)
H31 H 0.096759 0.985833 0.159594
N6 N 0.1875(6) 0.9804(5) 0.5513(5)
C6 C 0.0764(6) 0.9960(8) 0.6557(5)
C12 C 0.1492(6) 0.9454(7) 0.6538(5)
H8 H 0.162609 0.913026 0.688942
C30 C 0.2042(5) 0.9389(6) 0.6033(5)
H17 H 0.251735 0.905405 0.607031
H24 H 0.004447 0.997383 0.853063
C44 C 0.0448(7) 0.9975(10) 0.7631(6)
H29 H 0.100188 0.993221 0.770741
H25_2 H 0.999255 0.405084 0.390477
N3 N 0.8125(6) 0.0196(5) 0.0513(5)
C6_2 C 0.9236(6) 0.0040(8) 0.1557(5)
C12_2 C 0.8508(6) 0.0546(7) 0.1538(5)
H8_2 H 0.837391 0.086974 0.188942
C30_2 C 0.7958(5) 0.0611(6) 0.1033(5)
H17_2 H 0.748265 0.094595 0.107031
H24_2 H 0.995553 0.002617 0.353063
C44_2 C 0.9552(7) 0.0025(10) 0.2631(6)
H29_2 H 0.899812 0.006779 0.270741
O10 O 0.6289(5) 0.1115(6) 0.0224(4)
Cd1_2 Cd 0.02152(4) 0.52403(3) 0.03375(3)
C5_3 C 0.4098(6) 0.2703(6) 0.0337(7)
H4_3 H 0.400514 0.302713 0.069516
C9_3 C 0.2433(5) 0.6795(5) 0.0164(5)
N4_3 N 0.1023(5) 0.4057(5) 0.0134(4)
O7_3 O 0.1367(5) 0.6026(5) 0.0723(4)
C16_3 C 0.4061(5) 0.7664(6) 0.0049(5)
C17_3 C 0.4901(6) 0.2290(5) 0.0282(6)
H10_2 H 0.529178 0.234907 0.058748
C18_3 C 0.3872(6) 0.7202(6) 0.0582(5)
H11_3 H 0.424707 0.716420 0.089930
C23_3 C 0.1625(5) 0.6289(5) 0.0222(5)
C28_2 C 0.6107(7) 0.8966(9) 0.0349(6)
H16_2 H 0.638322 0.918141 0.069120
C32_3 C 0.3084(6) 0.6776(6) 0.0639(5)
H19_3 H 0.297559 0.646734 0.100122
C36_2 C 0.5358(7) 0.8469(7) 0.0447(5)
H22_2 H 0.517833 0.837313 0.084611
C42_3 C 0.1488(6) 0.3780(7) 0.0612(5)
H27_3 H 0.130251 0.390261 0.100615
C43_3 C 0.2252(7) 0.3305(7) 0.0550(5)
H28_3 H 0.253402 0.312332 0.089832
Cd5 Cd 0.72788(4) 0.02615(3) 0.96303(3)
C1_2 C 0.8916(6) 0.0075(7) 0.8056(4)
O4_2 O 0.8566(6) 0.0345(5) 0.9097(4)
C3_2 C 0.8562(6) 0.0067(8) 0.7469(5)
H2_2 H 0.800737 0.005483 0.738863
C29_2 C 0.8303(7) 0.0078(7) 0.8576(5)
C39_2 C 0.9845(7) 0.0002(9) 0.8132(6)
C47_2 C 0.9214(8) 0.0082(11) 0.6998(7)
H31_2 H 0.903241 0.014167 0.659594
O9 O 0.6154(5) 0.1067(5) 0.9194(4)
O3_3 O 0.1195(4) 0.6093(4) 0.9767(4)
N1_2 N 0.6434(5) 0.9138(5) 0.9778(4)
O6_2 O 0.7524(7) 0.9814(5) 0.8524(6)
C8_2 C 0.6027(6) 0.8777(7) 0.9296(6)
H6_2 H 0.623915 0.883916 0.890313
C10_2 C 0.5249(7) 0.8283(7) 0.9382(6)
H7_3 H 0.498430 0.806640 0.903475
C11_3 C 0.2564(6) 0.3121(5) 0.9974(5)
C13_3 C 0.2599(6) 0.7246(5) 0.9674(6)
H9_3 H 0.221110 0.728294 0.936447
C20_3 C 0.3565(6) 0.2219(6) 0.9394(5)
H12_3 H 0.316770 0.216147 0.909333
C21_3 C 0.4390(6) 0.1792(6) 0.9305(5)
H13_3 H 0.449042 0.149213 0.893837
C22_3 C 0.3413(5) 0.2673(5) 0.9899(5)
C24_2 C 0.5045(5) 0.1821(6) 0.9764(5)
C27_2 C 0.5890(5) 0.1295(6) 0.9714(5)
C31_3 C 0.1297(6) 0.3855(6) 0.9605(7)
H18_3 H 0.098366 0.401911 0.926763
C34_3 C 0.4894(6) 0.8127(6) 0.9952(5)
C38_3 C 0.3381(5) 0.7701(6) 0.9591(5)
H23_3 H 0.346131 0.803199 0.923334
C41_3 C 0.2056(6) 0.3389(6) 0.9484(5)
H26_3 H 0.220960 0.326598 0.908157
C19 C 0.9842(6) 0.9987(7) 0.2072(5)
C25 C 0.9400(8) 0.9606(8) 0.1001(7)
H14 H 0.986455 0.925508 0.095604
C26 C 0.8851(7) 0.9710(7) 0.0512(6)
H15 H 0.898724 0.942310 0.014709
C19_2 C 0.0158(6) 0.0013(7) 0.7072(5)
C25_2 C 0.0600(8) 0.0394(8) 0.6001(7)
H14_2 H 0.013545 0.074492 0.595604
C26_2 C 0.1149(7) 0.0290(7) 0.5512(6)
H15_2 H 0.101276 0.057690 0.514709
N2_2 N 0.5647(6) 0.5185(5) 0.4451(4)
O5_3 O 0.8953(6) 0.5350(5) 0.0875(4)
C2_3 C 0.8342(6) 0.5027(9) 0.2995(5)
H1_3 H 0.855903 0.499822 0.338826
C4_3 C 0.7088(7) 0.5083(8) 0.2275(5)
H3_3 H 0.653176 0.510226 0.220285
C7_3 C 0.7661(6) 0.5065(10) 0.1795(6)
H5_3 H 0.746213 0.507832 0.139584
C14_3 C 0.7438(8) 0.5068(7) 0.2910(6)
O8_3 O 0.9995(7) 0.4727(5) 0.1419(5)
C15_3 C 0.9221(7) 0.5040(7) 0.1367(5)
C33_3 C 0.6010(6) 0.5585(7) 0.3434(4)
H20_3 H 0.585900 0.588094 0.307588
C35_3 C 0.6375(10) 0.4744(7) 0.4449(7)
H21_3 H 0.650197 0.443053 0.480621
C37_3 C 0.6812(6) 0.5101(7) 0.3439(5)
C40_3 C 0.5472(6) 0.5620(6) 0.3935(5)
H25_3 H 0.499255 0.594916 0.390477
C45_3 C 0.8578(6) 0.5024(7) 0.1877(5)
C46_3 C 0.6982(7) 0.4698(8) 0.3961(6)
H30_3 H 0.747036 0.439469 0.401781
C48_3 C 0.8858(8) 0.5031(13) 0.2488(7)
H32_3 H 0.941595 0.503905 0.255619
Cd3_2 Cd 0.47848(4) 0.52403(3) 0.53375(3)
N5_2 N 0.9353(6) 0.5185(5) 0.9451(4)
O3_4 O 0.3805(4) 0.6093(4) 0.4767(4)
O5_4 O 0.6047(6) 0.5350(5) 0.5875(4)
C2_4 C 0.6658(6) 0.5027(9) 0.7995(5)
H1_4 H 0.644097 0.499822 0.838826
C4_4 C 0.7912(7) 0.5083(8) 0.7275(5)
H3_4 H 0.846824 0.510226 0.720285
C5_4 C 0.0902(6) 0.2703(6) 0.5337(7)
H4_4 H 0.099486 0.302713 0.569516
C7_4 C 0.7339(6) 0.5065(10) 0.6795(6)
H5_4 H 0.753787 0.507832 0.639584
C9_4 C 0.2567(5) 0.6795(5) 0.5164(5)
N4_4 N 0.3977(5) 0.4057(5) 0.5134(4)
H7_4 H 0.001570 0.806640 0.403475
C11_4 C 0.2436(6) 0.3121(5) 0.4974(5)
O7_4 O 0.3633(5) 0.6026(5) 0.5723(4)
C13_4 C 0.2401(6) 0.7246(5) 0.4674(6)
H9_4 H 0.278890 0.728294 0.436447
C14_4 C 0.7562(8) 0.5068(7) 0.7910(6)
O8_4 O 0.5005(7) 0.4727(5) 0.6419(5)
C15_4 C 0.5779(7) 0.5040(7) 0.6367(5)
C16_4 C 0.0939(5) 0.7664(6) 0.5049(5)
C17_4 C 0.0099(6) 0.2290(5) 0.5282(6)
C18_4 C 0.1128(6) 0.7202(6) 0.5582(5)
H11_4 H 0.075293 0.716420 0.589930
C20_4 C 0.1435(6) 0.2219(6) 0.4394(5)
H12_4 H 0.183230 0.216147 0.409333
C21_4 C 0.0610(6) 0.1792(6) 0.4305(5)
H13_4 H 0.050958 0.149213 0.393837
C22_4 C 0.1587(5) 0.2673(5) 0.4899(5)
C23_4 C 0.3375(5) 0.6289(5) 0.5222(5)
C31_4 C 0.3703(6) 0.3855(6) 0.4605(7)
H18_4 H 0.401634 0.401911 0.426763
C32_4 C 0.1916(6) 0.6776(6) 0.5639(5)
H19_4 H 0.202441 0.646734 0.600122
C33_4 C 0.8990(6) 0.5585(7) 0.8434(4)
H20_4 H 0.914100 0.588094 0.807588
C34_4 C 0.0106(6) 0.8127(6) 0.4952(5)
C35_4 C 0.8625(10) 0.4744(7) 0.9449(7)
H21_4 H 0.849803 0.443053 0.980621
C37_4 C 0.8188(6) 0.5101(7) 0.8439(5)
C38_4 C 0.1619(5) 0.7701(6) 0.4591(5)
H23_4 H 0.153869 0.803199 0.423334
C40_4 C 0.9528(6) 0.5620(6) 0.8935(5)
C41_4 C 0.2944(6) 0.3389(6) 0.4484(5)
H26_4 H 0.279040 0.326598 0.408157
C42_4 C 0.3512(6) 0.3780(7) 0.5612(5)
H27_4 H 0.369749 0.390261 0.600615
C43_4 C 0.2748(7) 0.3305(7) 0.5550(5)
H28_4 H 0.246598 0.312332 0.589832
C45_4 C 0.6422(6) 0.5024(7) 0.6877(5)
C46_4 C 0.8018(7) 0.4698(8) 0.8961(6)
H30_4 H 0.752964 0.439469 0.901781
C48_4 C 0.6142(8) 0.5031(13) 0.7488(7)
H32_4 H 0.558405 0.503905 0.755619
H25_4 H 0.000745 0.594916 0.890477
Cd2 Cd 0.77212(4) 0.02615(3) 0.46303(3)
C1_3 C 0.6084(6) 0.0075(7) 0.3056(4)
O4_3 O 0.6434(6) 0.0345(5) 0.4097(4)
C3_3 C 0.6438(6) 0.0067(8) 0.2469(5)
H2_3 H 0.699263 0.005483 0.238863
C19_3 C 0.4842(6) 0.0013(7) 0.2072(5)
C25_3 C 0.4400(8) 0.0394(8) 0.1001(7)
H14_3 H 0.486455 0.074492 0.095604
C26_3 C 0.3851(7) 0.0290(7) 0.0512(6)
H15_3 H 0.398724 0.057690 0.014709
C29_3 C 0.6697(7) 0.0078(7) 0.3576(5)
C39_3 C 0.5155(7) 0.0002(9) 0.3132(6)
C47_3 C 0.5786(8) 0.0082(11) 0.1998(7)
H31_3 H 0.596759 0.014167 0.159594
O9_2 O 0.8846(5) 0.1067(5) 0.4194(4)
O10_2 O 0.8711(5) 0.1115(6) 0.5224(4)
N6_2 N 0.6875(6) 0.0196(5) 0.5513(5)
N1_3 N 0.8566(5) 0.9138(5) 0.4778(4)
O6_3 O 0.7476(7) 0.9814(5) 0.3524(6)
N3_2 N 0.3125(6) 0.9804(5) 0.0513(5)
C6_3 C 0.4236(6) 0.9960(8) 0.1557(5)
C8_3 C 0.8973(6) 0.8777(7) 0.4296(6)
H6_3 H 0.876085 0.883916 0.390313
C10_3 C 0.9751(7) 0.8283(7) 0.4382(6)
C12_3 C 0.3508(6) 0.9454(7) 0.1538(5)
H8_3 H 0.337391 0.913026 0.188942
H10_3 H 0.970822 0.234907 0.558748
C24_3 C 0.9955(5) 0.1821(6) 0.4764(5)
C27_3 C 0.9110(5) 0.1295(6) 0.4714(5)
C28_3 C 0.8893(7) 0.8966(9) 0.5349(6)
H16_3 H 0.861678 0.918141 0.569120
C30_3 C 0.2958(5) 0.9389(6) 0.1033(5)
H17_3 H 0.248265 0.905405 0.107031
C36_3 C 0.9642(7) 0.8469(7) 0.5447(5)
H22_3 H 0.982167 0.837313 0.584611
H24_3 H 0.495553 0.997383 0.353063
C44_3 C 0.4552(7) 0.9975(10) 0.2631(6)
H29_3 H 0.399812 0.993221 0.270741
Cd5_2 Cd 0.22788(4) 0.97385(3) 0.96303(3)
O2_2 O 0.1289(5) 0.8885(6) 0.0224(4)
H10_4 H 0.029178 0.765093 0.058748
C28_4 C 0.1107(7) 0.1034(9) 0.0349(6)
H16_4 H 0.138322 0.081859 0.069120
C36_4 C 0.0358(7) 0.1531(7) 0.0447(5)
H22_4 H 0.017833 0.162687 0.084611
O1_2 O 0.1154(5) 0.8933(5) 0.9194(4)
N1_4 N 0.1434(5) 0.0862(5) 0.9778(4)
O6_4 O 0.2524(7) 0.0186(5) 0.8524(6)
C6_4 C 0.5764(6) 0.0040(8) 0.6557(5)
C8_4 C 0.1027(6) 0.1223(7) 0.9296(6)
H6_4 H 0.123915 0.116084 0.890313
C10_4 C 0.0249(7) 0.1717(7) 0.9382(6)
C12_4 C 0.6492(6) 0.0546(7) 0.6538(5)
H8_4 H 0.662609 0.086974 0.688942
C24_4 C 0.0045(5) 0.8179(6) 0.9764(5)
C27_4 C 0.0890(5) 0.8705(6) 0.9714(5)
C30_4 C 0.7042(5) 0.0611(6) 0.6033(5)
H17_4 H 0.751735 0.094595 0.607031
H24_4 H 0.504447 0.002617 0.853063
C44_4 C 0.5448(7) 0.0025(10) 0.7631(6)
H29_4 H 0.600188 0.006779 0.770741
C1_4 C 0.3916(6) 0.9925(7) 0.8056(4)
O4_4 O 0.3566(6) 0.9655(5) 0.9097(4)
C3_4 C 0.3562(6) 0.9933(8) 0.7469(5)
H2_4 H 0.300737 0.994517 0.738863
C19_4 C 0.5158(6) 0.9987(7) 0.7072(5)
C25_4 C 0.5600(8) 0.9606(8) 0.6001(7)
H14_4 H 0.513545 0.925508 0.595604
C26_4 C 0.6149(7) 0.9710(7) 0.5512(6)
H15_4 H 0.601276 0.942310 0.514709
C29_4 C 0.3303(7) 0.9922(7) 0.8576(5)
C39_4 C 0.4845(7) 0.9998(9) 0.8132(6)
C47_4 C 0.4214(8) 0.9918(11) 0.6998(7)
H31_4 H 0.403241 0.985833 0.659594
loop_
_geom_bond_atom_site_label_1
_geom_bond_atom_site_label_2
_geom_bond_site_symmetry_1
_geom_bond_site_symmetry_2
N2 C35 1_555 1_555
C2 H1 1_555 1_555
C4 H3 1_555 1_555
C7 C4 1_555 1_555
H5 C7 1_555 1_555
C14 C2 1_555 1_555
C15 O5 1_555 1_555
C33 H20 1_555 1_555
C35 H21 1_555 1_555
C37 C14 1_555 1_555
C40 N2 1_555 1_555
H25 C40 1_555 1_555
C45 C7 1_555 1_555
C46 C35 1_555 1_555
H30 C46 1_555 1_555
C48 C2 1_555 1_555
H32 C48 1_555 1_555
C4 C14 1_555 1_555
O8 C15 1_555 1_555
C15 C45 1_555 1_555
C33 C37 1_555 1_555
C33 C40 1_555 1_555
C37 C46 1_555 1_555
C45 C48 1_555 1_555
N5 C35_2 1_555 1_555
O5_2 Cd3 1_555 1_555
C2_2 H1_2 1_555 1_555
C4_2 H3_2 1_555 1_555
C5 H4 1_555 1_555
C7_2 C4_2 1_555 1_555
H5_2 C7_2 1_555 1_555
N4 Cd3 1_555 1_555
O7 Cd3 1_555 1_555
C14_2 C2_2 1_555 1_555
O8_2 Cd3 1_555 1_555
C15_2 O5_2 1_555 1_555
C16 C18 1_555 1_555
C17 C5 1_555 1_555
C18 H11 1_555 1_555
C23 C9 1_555 1_555
C32 C9 1_555 1_555
H19 C32 1_555 1_555
C33_2 H20_2 1_555 1_555
C35_2 H21_2 1_555 1_555
C37_2 C14_2 1_555 1_555
C40_2 N5 1_555 1_555
C42 N4 1_555 1_555
H27 C42 1_555 1_555
H28 C43 1_555 1_555
C45_2 C7_2 1_555 1_555
C46_2 C35_2 1_555 1_555
H30_2 C46_2 1_555 1_555
C48_2 C2_2 1_555 1_555
H32_2 C48_2 1_555 1_555
C4_2 C14_2 1_555 1_555
O7 C23 1_555 1_555
O8_2 C15_2 1_555 1_555
C15_2 C45_2 1_555 1_555
C18 C32 1_555 1_555
C33_2 C37_2 1_555 1_555
C33_2 C40_2 1_555 1_555
C37_2 C46_2 1_555 1_555
C42 C43 1_555 1_555
C45_2 C48_2 1_555 1_555
C11 C22 1_555 1_555
C13 H9 1_555 1_555
C20 H12 1_555 1_555
C21 C20 1_555 1_555
H13 C21 1_555 1_555
H18 C31 1_555 1_555
C38 C13 1_555 1_555
H23 C38 1_555 1_555
C41 C11 1_555 1_555
H26 C41 1_555 1_555
C20 C22 1_555 1_555
C31 C41 1_555 1_555
Cd1 O3_2 1_555 1_555
O1 C27 1_555 1_555
O2 C27 1_555 1_555
O3_2 C23_2 1_555 1_555
N1 C8 1_555 1_555
C5_2 H4_2 1_555 1_555
C8 H6 1_555 1_555
C9_2 C13_2 1_555 1_555
N4_2 Cd1 1_555 1_555
C10 C8 1_555 1_555
H7_2 C10 1_555 1_555
C11_2 C22_2 1_555 1_555
O7_2 Cd1 1_555 1_555
C13_2 H9_2 1_555 1_555
C16_2 C18_2 1_555 1_555
C17_2 C5_2 1_555 1_555
H10 C17_2 1_555 1_555
C18_2 H11_2 1_555 1_555
C20_2 H12_2 1_555 1_555
C21_2 C20_2 1_555 1_555
H13_2 C21_2 1_555 1_555
C22_2 C5_2 1_555 1_555
C23_2 C9_2 1_555 1_555
C24 C17_2 1_555 1_555
C27 C24 1_555 1_555
C28 N1 1_555 1_555
H16 C28 1_555 1_555
C31_2 N4_2 1_555 1_555
H18_2 C31_2 1_555 1_555
C32_2 C9_2 1_555 1_555
H19_2 C32_2 1_555 1_555
C34_2 C10 1_555 1_555
C36 C28 1_555 1_555
H22 C36 1_555 1_555
C38_2 C13_2 1_555 1_555
H23_2 C38_2 1_555 1_555
C41_2 C11_2 1_555 1_555
H26_2 C41_2 1_555 1_555
C42_2 N4_2 1_555 1_555
H27_2 C42_2 1_555 1_555
C43_2 C11_2 1_555 1_555
H28_2 C43_2 1_555 1_555
Cd4 O1 1_555 1_555
O2 Cd4 1_555 1_555
O7_2 C23_2 1_555 1_555
C16_2 C34_2 1_555 1_555
C16_2 C38_2 1_555 1_555
C18_2 C32_2 1_555 1_555
C20_2 C22_2 1_555 1_555
C21_2 C24 1_555 1_555
C31_2 C41_2 1_555 1_555
C34_2 C36 1_555 1_555
C42_2 C43_2 1_555 1_555
C1 C3 1_555 1_555
O4 Cd4 1_555 1_555
C3 H2 1_555 1_555
C29 C1 1_555 1_555
C39 C1 1_555 1_555
C47 C3 1_555 1_555
H31 C47 1_555 1_555
N6 Cd4 1_555 1_555
O4 C29 1_555 1_555
C6 C12 1_555 1_555
C12 H8 1_555 1_555
C30 N6 1_555 1_555
H17 C30 1_555 1_555
H29 C44 1_555 1_555
C12 C30 1_555 1_555
C6_2 C12_2 1_555 1_555
C12_2 H8_2 1_555 1_555
C30_2 N3 1_555 1_555
H17_2 C30_2 1_555 1_555
H29_2 C44_2 1_555 1_555
C12_2 C30_2 1_555 1_555
C5_3 H4_3 1_555 1_555
N4_3 Cd1_2 1_555 1_555
O7_3 Cd1_2 1_555 1_555
C16_3 C18_3 1_555 1_555
C17_3 C5_3 1_555 1_555
H10_2 C17_3 1_555 1_555
C18_3 H11_3 1_555 1_555
C23_3 C9_3 1_555 1_555
H16_2 C28_2 1_555 1_555
C32_3 C9_3 1_555 1_555
H19_3 C32_3 1_555 1_555
C36_2 C28_2 1_555 1_555
H22_2 C36_2 1_555 1_555
C42_3 N4_3 1_555 1_555
H27_3 C42_3 1_555 1_555
H28_3 C43_3 1_555 1_555
O7_3 C23_3 1_555 1_555
C18_3 C32_3 1_555 1_555
C42_3 C43_3 1_555 1_555
C1_2 C3_2 1_555 1_555
O4_2 Cd5 1_555 1_555
C3_2 H2_2 1_555 1_555
C29_2 C1_2 1_555 1_555
C39_2 C1_2 1_555 1_555
C47_2 C3_2 1_555 1_555
H31_2 C47_2 1_555 1_555
O9 Cd5 1_555 1_555
O4_2 C29_2 1_555 1_555
O9 C27_2 1_555 1_555
N1_2 C8_2 1_555 1_555
C8_2 H6_2 1_555 1_555
C10_2 C8_2 1_555 1_555
H7_3 C10_2 1_555 1_555
C11_3 C22_3 1_555 1_555
C13_3 H9_3 1_555 1_555
C20_3 H12_3 1_555 1_555
C21_3 C20_3 1_555 1_555
H13_3 C21_3 1_555 1_555
C27_2 C24_2 1_555 1_555
H18_3 C31_3 1_555 1_555
C34_3 C10_2 1_555 1_555
C38_3 C13_3 1_555 1_555
H23_3 C38_3 1_555 1_555
C41_3 C11_3 1_555 1_555
H26_3 C41_3 1_555 1_555
C20_3 C22_3 1_555 1_555
C21_3 C24_2 1_555 1_555
C31_3 C41_3 1_555 1_555
H14 C25 1_555 1_555
C26 C25 1_555 1_555
H15 C26 1_555 1_555
H14_2 C25_2 1_555 1_555
C26_2 C25_2 1_555 1_555
H15_2 C26_2 1_555 1_555
N2_2 C35_3 1_555 1_555
C2_3 H1_3 1_555 1_555
C4_3 H3_3 1_555 1_555
C7_3 C4_3 1_555 1_555
H5_3 C7_3 1_555 1_555
C14_3 C2_3 1_555 1_555
C15_3 O5_3 1_555 1_555
C33_3 H20_3 1_555 1_555
C35_3 H21_3 1_555 1_555
C37_3 C14_3 1_555 1_555
C40_3 N2_2 1_555 1_555
H25_3 C40_3 1_555 1_555
C45_3 C7_3 1_555 1_555
C46_3 C35_3 1_555 1_555
H30_3 C46_3 1_555 1_555
C48_3 C2_3 1_555 1_555
H32_3 C48_3 1_555 1_555
Cd3_2 N2_2 1_555 1_555
C4_3 C14_3 1_555 1_555
O8_3 C15_3 1_555 1_555
C15_3 C45_3 1_555 1_555
C33_3 C37_3 1_555 1_555
C33_3 C40_3 1_555 1_555
C37_3 C46_3 1_555 1_555
C45_3 C48_3 1_555 1_555
Cd3_2 O3_4 1_555 1_555
O3_4 C23_4 1_555 1_555
N5_2 C35_4 1_555 1_555
O5_4 Cd3_2 1_555 1_555
C2_4 H1_4 1_555 1_555
C4_4 H3_4 1_555 1_555
C5_4 H4_4 1_555 1_555
C7_4 C4_4 1_555 1_555
H5_4 C7_4 1_555 1_555
C9_4 C13_4 1_555 1_555
N4_4 Cd3_2 1_555 1_555
C11_4 C22_4 1_555 1_555
O7_4 Cd3_2 1_555 1_555
C13_4 H9_4 1_555 1_555
C14_4 C2_4 1_555 1_555
O8_4 Cd3_2 1_555 1_555
C15_4 O5_4 1_555 1_555
C16_4 C18_4 1_555 1_555
C17_4 C5_4 1_555 1_555
C18_4 H11_4 1_555 1_555
C20_4 H12_4 1_555 1_555
C21_4 C20_4 1_555 1_555
H13_4 C21_4 1_555 1_555
C22_4 C5_4 1_555 1_555
C23_4 C9_4 1_555 1_555
C31_4 N4_4 1_555 1_555
H18_4 C31_4 1_555 1_555
C32_4 C9_4 1_555 1_555
H19_4 C32_4 1_555 1_555
C33_4 H20_4 1_555 1_555
C35_4 H21_4 1_555 1_555
C37_4 C14_4 1_555 1_555
C38_4 C13_4 1_555 1_555
H23_4 C38_4 1_555 1_555
C40_4 N5_2 1_555 1_555
C41_4 C11_4 1_555 1_555
H26_4 C41_4 1_555 1_555
C42_4 N4_4 1_555 1_555
H27_4 C42_4 1_555 1_555
C43_4 C11_4 1_555 1_555
H28_4 C43_4 1_555 1_555
C45_4 C7_4 1_555 1_555
C46_4 C35_4 1_555 1_555
H30_4 C46_4 1_555 1_555
C48_4 C2_4 1_555 1_555
H32_4 C48_4 1_555 1_555
C4_4 C14_4 1_555 1_555
O7_4 C23_4 1_555 1_555
O8_4 C15_4 1_555 1_555
C15_4 C45_4 1_555 1_555
C16_4 C34_4 1_555 1_555
C16_4 C38_4 1_555 1_555
C18_4 C32_4 1_555 1_555
C20_4 C22_4 1_555 1_555
C31_4 C41_4 1_555 1_555
C33_4 C37_4 1_555 1_555
C33_4 C40_4 1_555 1_555
C37_4 C46_4 1_555 1_555
C42_4 C43_4 1_555 1_555
C45_4 C48_4 1_555 1_555
C1_3 C3_3 1_555 1_555
O4_3 Cd2 1_555 1_555
C3_3 H2_3 1_555 1_555
H14_3 C25_3 1_555 1_555
C26_3 C25_3 1_555 1_555
H15_3 C26_3 1_555 1_555
C29_3 C1_3 1_555 1_555
C39_3 C1_3 1_555 1_555
C47_3 C3_3 1_555 1_555
H31_3 C47_3 1_555 1_555
O9_2 Cd2 1_555 1_555
O10_2 Cd2 1_555 1_555
N6_2 Cd2 1_555 1_555
O4_3 C29_3 1_555 1_555
C19_3 C47_3 1_555 1_555
O9_2 C27_3 1_555 1_555
O10_2 C27_3 1_555 1_555
N1_3 C8_3 1_555 1_555
C6_3 C12_3 1_555 1_555
C8_3 H6_3 1_555 1_555
C10_3 C8_3 1_555 1_555
C12_3 H8_3 1_555 1_555
C27_3 C24_3 1_555 1_555
C28_3 N1_3 1_555 1_555
H16_3 C28_3 1_555 1_555
C30_3 N3_2 1_555 1_555
H17_3 C30_3 1_555 1_555
C36_3 C28_3 1_555 1_555
H22_3 C36_3 1_555 1_555
H29_3 C44_3 1_555 1_555
C12_3 C30_3 1_555 1_555
H16_4 C28_4 1_555 1_555
C36_4 C28_4 1_555 1_555
H22_4 C36_4 1_555 1_555
O1_2 C27_4 1_555 1_555
N1_4 C8_4 1_555 1_555
C6_4 C12_4 1_555 1_555
C8_4 H6_4 1_555 1_555
C10_4 C8_4 1_555 1_555
C12_4 H8_4 1_555 1_555
C27_4 C24_4 1_555 1_555
C30_4 N6_2 1_555 1_555
H17_4 C30_4 1_555 1_555
H29_4 C44_4 1_555 1_555
Cd5_2 O1_2 1_555 1_555
C12_4 C30_4 1_555 1_555
C1_4 C3_4 1_555 1_555
O4_4 Cd5_2 1_555 1_555
C3_4 H2_4 1_555 1_555
H14_4 C25_4 1_555 1_555
C26_4 C25_4 1_555 1_555
H15_4 C26_4 1_555 1_555
C29_4 C1_4 1_555 1_555
C39_4 C1_4 1_555 1_555
C47_4 C3_4 1_555 1_555
H31_4 C47_4 1_555 1_555
O4_4 C29_4 1_555 1_555
C19_4 C47_4 1_555 1_555

#END
