
###############################################################################
#
# This file contains modified crystal structure data generated from the
# MOF subset of the Cambridge Structural Database (CSD) v543 
# hosted by the Cambridge Crystallographic Data Centre (CCDC).
#
# This work is licensed under the Creative Commons
# Attribution-NonCommercial-ShareAlike 4.0 International License.
# To view a copy of this license, visit
# http://creativecommons.org/licenses/by-nc-sa/4.0/
# or send a letter to
# Creative Commons, PO Box 1866, Mountain View, CA 94042, USA.
#
# CIF created using the CSD Python API on 29 September 2022
# The structure has been converted into the P1 space group
# The structure has a 3D framework
# The original CSD entry FIZWET is in the tetragonal crystal system
# The original CSD entry FIZWET is in a Sohncke space group
# The framework has been calculated to contain at least 10.0% void space
# The void calculation uses a probe of radius 1.32A, grid spacing 0.4
#
###############################################################################

data_FIZWET
_chemical_formula_moiety         '(C192 H128 N16 O32 Zn8)n'
_symmetry_cell_setting           triclinic
_symmetry_space_group_name_H-M   'P 1'
_symmetry_Int_Tables_number      1
_space_group_name_Hall           'P 1'
loop_
_symmetry_equiv_pos_site_id
_symmetry_equiv_pos_as_xyz
1 x,y,z
_cell_length_a                   22.6028(5)
_cell_length_b                   22.6028(5)
_cell_length_c                   12.9338(3)
_cell_angle_alpha                90
_cell_angle_beta                 90
_cell_angle_gamma                90
_cell_volume                     6607.7
loop_
_atom_site_label
_atom_site_type_symbol
_atom_site_fract_x
_atom_site_fract_y
_atom_site_fract_z
N1 N 0.1598(2) 0.2542(2) 0.6778(3)
H2 H 0.029052 0.319922 0.395608
C8 C 0.0531(2) 0.2665(3) 0.5709(5)
C9 C 0.1066(3) 0.2668(4) 0.5220(5)
H5 H 0.108117 0.270335 0.450436
C10 C 0.1593(3) 0.2621(3) 0.5785(4)
H6 H 0.195145 0.264606 0.543459
C11 C 0.1099(2) 0.2574(4) 0.7271(5)
H7 H 0.110318 0.256090 0.799006
C12 C 0.0546(3) 0.2628(5) 0.6760(5)
H8 H 0.019703 0.263775 0.713927
Zn3 Zn 0.23771(3) 0.23448(3) 0.75225(4)
Zn1 Zn 0.73771(3) 0.26552(3) 0.24775(4)
O1 O 0.79323(17) 0.2541(2) 0.3684(3)
O2 O 0.84056(19) 0.2970(3) 0.2431(3)
O3 O 0.7156(2) 0.32146(16) 0.1323(3)
O4 O 0.7212(3) 0.3712(2) 0.2755(3)
C1 C 0.8377(3) 0.2770(3) 0.3318(4)
C2 C 0.8938(2) 0.2784(3) 0.3976(4)
C3 C 0.9445(3) 0.3069(4) 0.3656(5)
H1 H 0.944026 0.329580 0.305616
C4 C 0.9950(3) 0.3020(4) 0.4210(4)
C5 C 0.9982(2) 0.2725(3) 0.5114(4)
C6 C 0.9470(2) 0.2446(4) 0.5455(5)
H3 H 0.947876 0.223223 0.606993
C7 C 0.8936(3) 0.2478(4) 0.4890(5)
H4 H 0.859293 0.229773 0.513216
C13 C 0.7174(2) 0.3683(3) 0.1833(4)
C14 C 0.7147(3) 0.4267(2) 0.1217(4)
C15 C 0.7056(3) 0.4276(2) 0.0190(4)
C17 C 0.7182(3) 0.5332(3) 0.0136(4)
C18 C 0.7276(5) 0.5313(3) 0.1190(5)
H11 H 0.738542 0.565490 0.154228
C19 C 0.7206(5) 0.4778(3) 0.1735(5)
H12 H 0.720143 0.477857 0.245445
H16 H 0.778880 0.628331 0.055461
N3 N 0.6598(2) 0.2458(2) 0.3222(3)
N4 N 0.7528(2) 0.19062(19) 0.1591(3)
N2 N 0.2528(2) 0.30938(19) 0.8409(3)
H9 H 0.301090 0.607657 0.983834
C16 C 0.2938(4) 0.5188(3) 0.9640(4)
H10 H 0.301557 0.518751 0.893435
C20 C 0.2744(3) 0.4111(2) 0.9540(4)
C21 C 0.3010(3) 0.4043(3) 0.8592(5)
H13 H 0.326382 0.432904 0.832961
C22 C 0.2885(3) 0.3531(2) 0.8042(5)
H14 H 0.305360 0.348503 0.739040
C23 C 0.2301(3) 0.3170(2) 0.9338(4)
H15 H 0.206976 0.287016 0.961700
C24 C 0.2392(3) 0.3675(3) 0.9912(4)
C20_2 C 0.7744(3) 0.0889(2) 0.0460(4)
C21_2 C 0.8010(3) 0.0957(3) 0.1408(5)
H13_2 H 0.826382 0.067096 0.167039
C22_2 C 0.7885(3) 0.1469(2) 0.1958(5)
H14_2 H 0.805360 0.151497 0.260960
C23_2 C 0.7301(3) 0.1830(2) 0.0662(4)
H15_2 H 0.706976 0.212984 0.038300
C24_2 C 0.7392(3) 0.1325(3) 0.0088(4)
O1_2 O 0.29323(17) 0.2459(2) 0.6316(3)
O2_2 O 0.34056(19) 0.2030(3) 0.7569(3)
O3_2 O 0.2156(2) 0.17854(16) 0.8677(3)
O4_2 O 0.2212(3) 0.1288(2) 0.7245(3)
C1_2 C 0.3377(3) 0.2230(3) 0.6682(4)
C2_2 C 0.3938(2) 0.2216(3) 0.6024(4)
C3_2 C 0.4445(3) 0.1931(4) 0.6344(5)
H1_2 H 0.444026 0.170420 0.694384
C4_2 C 0.4950(3) 0.1980(4) 0.5790(4)
H2_2 H 0.529052 0.180078 0.604392
C5_2 C 0.4982(2) 0.2275(3) 0.4886(4)
C6_2 C 0.4470(2) 0.2554(4) 0.4545(5)
H3_2 H 0.447876 0.276777 0.393007
C7_2 C 0.3936(3) 0.2522(4) 0.5110(5)
H4_2 H 0.359293 0.270227 0.486784
C8_2 C 0.5531(2) 0.2335(3) 0.4291(5)
C9_2 C 0.6066(3) 0.2332(4) 0.4780(5)
H5_2 H 0.608117 0.229665 0.549564
C10_2 C 0.6593(3) 0.2379(3) 0.4215(4)
H6_2 H 0.695145 0.235394 0.456541
C11_2 C 0.6099(2) 0.2426(4) 0.2729(5)
H7_2 H 0.610318 0.243910 0.200994
C12_2 C 0.5546(3) 0.2372(5) 0.3240(5)
H8_2 H 0.519703 0.236225 0.286073
C13_2 C 0.2174(2) 0.1317(3) 0.8167(4)
C14_2 C 0.2147(3) 0.0733(2) 0.8783(4)
C15_2 C 0.2056(3) 0.0724(2) 0.9810(4)
C19_2 C 0.2206(5) 0.0222(3) 0.8265(5)
H12_2 H 0.220143 0.022143 0.754555
N2_2 N 0.7472(2) 0.69062(19) 0.8409(3)
H9_2 H 0.698910 0.392343 0.983834
C16_2 C 0.7062(4) 0.4812(3) 0.9640(4)
H10_2 H 0.698443 0.481249 0.893435
C20_3 C 0.7256(3) 0.5889(2) 0.9540(4)
C21_3 C 0.6990(3) 0.5957(3) 0.8592(5)
H13_3 H 0.673618 0.567096 0.832961
C22_3 C 0.7115(3) 0.6469(2) 0.8042(5)
H14_3 H 0.694640 0.651497 0.739040
C23_3 C 0.7699(3) 0.6830(2) 0.9338(4)
H15_3 H 0.793024 0.712984 0.961700
C24_3 C 0.7608(3) 0.6325(3) 0.9912(4)
Zn2 Zn 0.76229(3) 0.76552(3) 0.75225(4)
Zn1_2 Zn 0.26229(3) 0.73448(3) 0.24775(4)
O1_3 O 0.20677(17) 0.7459(2) 0.3684(3)
O2_3 O 0.15944(19) 0.7030(3) 0.2431(3)
O3_3 O 0.2844(2) 0.67854(16) 0.1323(3)
O4_3 O 0.2788(3) 0.6288(2) 0.2755(3)
C1_3 C 0.1623(3) 0.7230(3) 0.3318(4)
C2_3 C 0.1062(2) 0.7216(3) 0.3976(4)
C3_3 C 0.0555(3) 0.6931(4) 0.3656(5)
H1_3 H 0.055974 0.670420 0.305616
C4_3 C 0.0050(3) 0.6980(4) 0.4210(4)
C5_3 C 0.0018(2) 0.7275(3) 0.5114(4)
C6_3 C 0.0530(2) 0.7554(4) 0.5455(5)
H3_3 H 0.052124 0.776777 0.606993
C7_3 C 0.1064(3) 0.7522(4) 0.4890(5)
H4_3 H 0.140707 0.770227 0.513216
C13_3 C 0.2826(2) 0.6317(3) 0.1833(4)
C14_3 C 0.2853(3) 0.5733(2) 0.1217(4)
C15_3 C 0.2944(3) 0.5724(2) 0.0190(4)
C17_2 C 0.2818(3) 0.4668(3) 0.0136(4)
C18_2 C 0.2724(5) 0.4687(3) 0.1190(5)
H11_2 H 0.261458 0.434510 0.154228
C19_3 C 0.2794(5) 0.5222(3) 0.1735(5)
H12_3 H 0.279857 0.522143 0.245445
H16_2 H 0.221120 0.371669 0.055461
N3_2 N 0.3402(2) 0.7542(2) 0.3222(3)
N4_2 N 0.2472(2) 0.80938(19) 0.1591(3)
N1_2 N 0.8402(2) 0.7458(2) 0.6778(3)
H2_3 H 0.970948 0.680078 0.395608
C8_3 C 0.9469(2) 0.7335(3) 0.5709(5)
C9_3 C 0.8934(3) 0.7332(4) 0.5220(5)
H5_3 H 0.891883 0.729665 0.450436
C10_3 C 0.8407(3) 0.7379(3) 0.5785(4)
H6_3 H 0.804855 0.735394 0.543459
C11_3 C 0.8901(2) 0.7426(4) 0.7271(5)
H7_3 H 0.889682 0.743910 0.799006
C12_3 C 0.9454(3) 0.7372(5) 0.6760(5)
H8_3 H 0.980297 0.736225 0.713927
O1_4 O 0.70677(17) 0.7541(2) 0.6316(3)
O2_4 O 0.65944(19) 0.7970(3) 0.7569(3)
O3_4 O 0.7844(2) 0.82146(16) 0.8677(3)
O4_4 O 0.7788(3) 0.8712(2) 0.7245(3)
C1_4 C 0.6623(3) 0.7770(3) 0.6682(4)
C2_4 C 0.6062(2) 0.7784(3) 0.6024(4)
C3_4 C 0.5555(3) 0.8069(4) 0.6344(5)
H1_4 H 0.555974 0.829580 0.694384
C4_4 C 0.5050(3) 0.8020(4) 0.5790(4)
H2_4 H 0.470948 0.819922 0.604392
C5_4 C 0.5018(2) 0.7725(3) 0.4886(4)
C6_4 C 0.5530(2) 0.7446(4) 0.4545(5)
H3_4 H 0.552124 0.723223 0.393007
C7_4 C 0.6064(3) 0.7478(4) 0.5110(5)
H4_4 H 0.640707 0.729773 0.486784
C8_4 C 0.4469(2) 0.7665(3) 0.4291(5)
C9_4 C 0.3934(3) 0.7668(4) 0.4780(5)
H5_4 H 0.391883 0.770335 0.549564
C10_4 C 0.3407(3) 0.7621(3) 0.4215(4)
H6_4 H 0.304855 0.764606 0.456541
C11_4 C 0.3901(2) 0.7574(4) 0.2729(5)
H7_4 H 0.389682 0.756090 0.200994
C12_4 C 0.4454(3) 0.7628(5) 0.3240(5)
H8_4 H 0.480297 0.763775 0.286073
C13_4 C 0.7826(2) 0.8683(3) 0.8167(4)
C14_4 C 0.7853(3) 0.9267(2) 0.8783(4)
C15_4 C 0.7944(3) 0.9276(2) 0.9810(4)
C19_4 C 0.7794(5) 0.9778(3) 0.8265(5)
H12_4 H 0.779857 0.977857 0.754555
C20_4 C 0.2256(3) 0.9111(2) 0.0460(4)
C21_4 C 0.1990(3) 0.9043(3) 0.1408(5)
H13_4 H 0.173618 0.932904 0.167039
C22_4 C 0.2115(3) 0.8531(2) 0.1958(5)
H14_4 H 0.194640 0.848503 0.260960
C23_4 C 0.2699(3) 0.8170(2) 0.0662(4)
H15_4 H 0.293024 0.787016 0.038300
C24_4 C 0.2608(3) 0.8675(3) 0.0088(4)
Zn1_3 Zn 0.23448(3) 0.23771(3) 0.24775(4)
O1_5 O 0.2459(2) 0.29323(17) 0.3684(3)
O2_5 O 0.2030(3) 0.34056(19) 0.2431(3)
O3_5 O 0.17854(16) 0.2156(2) 0.1323(3)
O4_5 O 0.1288(2) 0.2212(3) 0.2755(3)
N1_3 N 0.2458(2) 0.6598(2) 0.6778(3)
C1_5 C 0.2230(3) 0.3377(3) 0.3318(4)
C2_5 C 0.2216(3) 0.3938(2) 0.3976(4)
C3_5 C 0.1931(4) 0.4445(3) 0.3656(5)
H1_5 H 0.170420 0.444026 0.305616
C4_5 C 0.1980(4) 0.4950(3) 0.4210(4)
H2_5 H 0.180078 0.529052 0.395608
C5_5 C 0.2275(3) 0.4982(2) 0.5114(4)
C6_5 C 0.2554(4) 0.4470(2) 0.5455(5)
H3_5 H 0.276777 0.447876 0.606993
C7_5 C 0.2522(4) 0.3936(3) 0.4890(5)
H4_5 H 0.270227 0.359293 0.513216
C8_5 C 0.2335(3) 0.5531(2) 0.5709(5)
C9_5 C 0.2332(4) 0.6066(3) 0.5220(5)
H5_5 H 0.229665 0.608117 0.450436
C10_5 C 0.2379(3) 0.6593(3) 0.5785(4)
H6_5 H 0.235394 0.695145 0.543459
C11_5 C 0.2426(4) 0.6099(2) 0.7271(5)
H7_5 H 0.243910 0.610318 0.799006
C12_5 C 0.2372(5) 0.5546(3) 0.6760(5)
H8_5 H 0.236225 0.519703 0.713927
C13_5 C 0.1317(3) 0.2174(2) 0.1833(4)
C14_5 C 0.0733(2) 0.2147(3) 0.1217(4)
C15_5 C 0.0724(2) 0.2056(3) 0.0190(4)
C19_5 C 0.0222(3) 0.2206(5) 0.1735(5)
H12_5 H 0.022143 0.220143 0.245445
Zn3_2 Zn 0.26552(3) 0.73771(3) 0.75225(4)
N3_3 N 0.2542(2) 0.1598(2) 0.3222(3)
N4_3 N 0.30938(19) 0.2528(2) 0.1591(3)
N2_3 N 0.19062(19) 0.7528(2) 0.8409(3)
C20_5 C 0.0889(2) 0.7744(3) 0.9540(4)
C21_5 C 0.0957(3) 0.8010(3) 0.8592(5)
H13_5 H 0.067096 0.826382 0.832961
C22_5 C 0.1469(2) 0.7885(3) 0.8042(5)
H14_5 H 0.151497 0.805360 0.739040
C23_5 C 0.1830(2) 0.7301(3) 0.9338(4)
H15_5 H 0.212984 0.706976 0.961700
C24_5 C 0.1325(3) 0.7392(3) 0.9912(4)
H2_6 H 0.319922 0.029052 0.604392
C8_6 C 0.2665(3) 0.0531(2) 0.4291(5)
C9_6 C 0.2668(4) 0.1066(3) 0.4780(5)
H5_6 H 0.270335 0.108117 0.549564
C10_6 C 0.2621(3) 0.1593(3) 0.4215(4)
H6_6 H 0.264606 0.195145 0.456541
C11_6 C 0.2574(4) 0.1099(2) 0.2729(5)
H7_6 H 0.256090 0.110318 0.200994
C12_6 C 0.2628(5) 0.0546(3) 0.3240(5)
H8_6 H 0.263775 0.019703 0.286073
O1_6 O 0.2541(2) 0.79323(17) 0.6316(3)
O2_6 O 0.2970(3) 0.84056(19) 0.7569(3)
O3_6 O 0.32146(16) 0.7156(2) 0.8677(3)
O4_6 O 0.3712(2) 0.7212(3) 0.7245(3)
C1_6 C 0.2770(3) 0.8377(3) 0.6682(4)
C2_6 C 0.2784(3) 0.8938(2) 0.6024(4)
C3_6 C 0.3069(4) 0.9445(3) 0.6344(5)
H1_6 H 0.329580 0.944026 0.694384
C4_6 C 0.3020(4) 0.9950(3) 0.5790(4)
C5_6 C 0.2725(3) 0.9982(2) 0.4886(4)
C6_6 C 0.2446(4) 0.9470(2) 0.4545(5)
H3_6 H 0.223223 0.947876 0.393007
C7_6 C 0.2478(4) 0.8936(3) 0.5110(5)
H4_6 H 0.229773 0.859293 0.486784
C13_6 C 0.3683(3) 0.7174(2) 0.8167(4)
C14_6 C 0.4267(2) 0.7147(3) 0.8783(4)
C15_6 C 0.4276(2) 0.7056(3) 0.9810(4)
C17_3 C 0.5332(3) 0.7182(3) 0.9864(4)
C18_3 C 0.5313(3) 0.7276(5) 0.8810(5)
H11_3 H 0.565490 0.738542 0.845772
C19_6 C 0.4778(3) 0.7206(5) 0.8265(5)
H12_6 H 0.477857 0.720143 0.754555
H16_3 H 0.628331 0.778880 0.944539
H9_3 H 0.607657 0.301090 0.016166
C16_3 C 0.5188(3) 0.2938(4) 0.0360(4)
H10_3 H 0.518751 0.301557 0.106565
C20_6 C 0.4111(2) 0.2744(3) 0.0460(4)
C21_6 C 0.4043(3) 0.3010(3) 0.1408(5)
H13_6 H 0.432904 0.326382 0.167039
C22_6 C 0.3531(2) 0.2885(3) 0.1958(5)
H14_6 H 0.348503 0.305360 0.260960
C23_6 C 0.3170(2) 0.2301(3) 0.0662(4)
H15_6 H 0.287016 0.206976 0.038300
C24_6 C 0.3675(3) 0.2392(3) 0.0088(4)
H9_4 H 0.107657 0.198910 0.983834
C16_4 C 0.0188(3) 0.2062(4) 0.9640(4)
H10_4 H 0.018751 0.198443 0.893435
C17_4 C 0.9668(3) 0.2182(3) 0.0136(4)
C18_4 C 0.9687(3) 0.2276(5) 0.1190(5)
H11_4 H 0.934510 0.238542 0.154228
H16_4 H 0.871669 0.278880 0.055461
N2_4 N 0.80938(19) 0.2472(2) 0.8409(3)
C20_7 C 0.9111(2) 0.2256(3) 0.9540(4)
C21_7 C 0.9043(3) 0.1990(3) 0.8592(5)
H13_7 H 0.932904 0.173618 0.832961
C22_7 C 0.8531(2) 0.2115(3) 0.8042(5)
H14_7 H 0.848503 0.194640 0.739040
C23_7 C 0.8170(2) 0.2699(3) 0.9338(4)
H15_7 H 0.787016 0.293024 0.961700
C24_7 C 0.8675(3) 0.2608(3) 0.9912(4)
Zn2_2 Zn 0.73448(3) 0.26229(3) 0.75225(4)
Zn1_4 Zn 0.76552(3) 0.76229(3) 0.24775(4)
O1_7 O 0.7541(2) 0.70677(17) 0.3684(3)
O2_7 O 0.7970(3) 0.65944(19) 0.2431(3)
O3_7 O 0.82146(16) 0.7844(2) 0.1323(3)
O4_7 O 0.8712(2) 0.7788(3) 0.2755(3)
N1_4 N 0.7542(2) 0.3402(2) 0.6778(3)
C1_7 C 0.7770(3) 0.6623(3) 0.3318(4)
C2_7 C 0.7784(3) 0.6062(2) 0.3976(4)
C3_7 C 0.8069(4) 0.5555(3) 0.3656(5)
H1_7 H 0.829580 0.555974 0.305616
C4_7 C 0.8020(4) 0.5050(3) 0.4210(4)
H2_7 H 0.819922 0.470948 0.395608
C5_7 C 0.7725(3) 0.5018(2) 0.5114(4)
C6_7 C 0.7446(4) 0.5530(2) 0.5455(5)
H3_7 H 0.723223 0.552124 0.606993
C7_7 C 0.7478(4) 0.6064(3) 0.4890(5)
H4_7 H 0.729773 0.640707 0.513216
C8_7 C 0.7665(3) 0.4469(2) 0.5709(5)
C9_7 C 0.7668(4) 0.3934(3) 0.5220(5)
H5_7 H 0.770335 0.391883 0.450436
C10_7 C 0.7621(3) 0.3407(3) 0.5785(4)
H6_7 H 0.764606 0.304855 0.543459
C11_7 C 0.7574(4) 0.3901(2) 0.7271(5)
H7_7 H 0.756090 0.389682 0.799006
C12_7 C 0.7628(5) 0.4454(3) 0.6760(5)
H8_7 H 0.763775 0.480297 0.713927
C13_7 C 0.8683(3) 0.7826(2) 0.1833(4)
C14_7 C 0.9267(2) 0.7853(3) 0.1217(4)
C15_7 C 0.9276(2) 0.7944(3) 0.0190(4)
C19_7 C 0.9778(3) 0.7794(5) 0.1735(5)
H12_7 H 0.977857 0.779857 0.245445
N3_4 N 0.7458(2) 0.8402(2) 0.3222(3)
N4_4 N 0.69062(19) 0.7472(2) 0.1591(3)
H9_5 H 0.392343 0.698910 0.016166
C16_5 C 0.4812(3) 0.7062(4) 0.0360(4)
H10_5 H 0.481249 0.698443 0.106565
C20_8 C 0.5889(2) 0.7256(3) 0.0460(4)
C21_8 C 0.5957(3) 0.6990(3) 0.1408(5)
H13_8 H 0.567096 0.673618 0.167039
C22_8 C 0.6469(2) 0.7115(3) 0.1958(5)
H14_8 H 0.651497 0.694640 0.260960
C23_8 C 0.6830(2) 0.7699(3) 0.0662(4)
H15_8 H 0.712984 0.793024 0.038300
C24_8 C 0.6325(3) 0.7608(3) 0.0088(4)
O1_8 O 0.7459(2) 0.20677(17) 0.6316(3)
O2_8 O 0.7030(3) 0.15944(19) 0.7569(3)
O3_8 O 0.67854(16) 0.2844(2) 0.8677(3)
O4_8 O 0.6288(2) 0.2788(3) 0.7245(3)
C1_8 C 0.7230(3) 0.1623(3) 0.6682(4)
C2_8 C 0.7216(3) 0.1062(2) 0.6024(4)
C3_8 C 0.6931(4) 0.0555(3) 0.6344(5)
H1_8 H 0.670420 0.055974 0.694384
C4_8 C 0.6980(4) 0.0050(3) 0.5790(4)
C5_8 C 0.7275(3) 0.0018(2) 0.4886(4)
C6_8 C 0.7554(4) 0.0530(2) 0.4545(5)
H3_8 H 0.776777 0.052124 0.393007
C7_8 C 0.7522(4) 0.1064(3) 0.5110(5)
H4_8 H 0.770227 0.140707 0.486784
C13_8 C 0.6317(3) 0.2826(2) 0.8167(4)
C14_8 C 0.5733(2) 0.2853(3) 0.8783(4)
C15_8 C 0.5724(2) 0.2944(3) 0.9810(4)
C17_5 C 0.4668(3) 0.2818(3) 0.9864(4)
C18_5 C 0.4687(3) 0.2724(5) 0.8810(5)
H11_5 H 0.434510 0.261458 0.845772
C19_8 C 0.5222(3) 0.2794(5) 0.8265(5)
H12_8 H 0.522143 0.279857 0.754555
H16_5 H 0.371669 0.221120 0.944539
H2_8 H 0.680078 0.970948 0.604392
C8_8 C 0.7335(3) 0.9469(2) 0.4291(5)
C9_8 C 0.7332(4) 0.8934(3) 0.4780(5)
H5_8 H 0.729665 0.891883 0.549564
C10_8 C 0.7379(3) 0.8407(3) 0.4215(4)
H6_8 H 0.735394 0.804855 0.456541
C11_8 C 0.7426(4) 0.8901(2) 0.2729(5)
H7_8 H 0.743910 0.889682 0.200994
C12_8 C 0.7372(5) 0.9454(3) 0.3240(5)
H8_8 H 0.736225 0.980297 0.286073
C17_6 C 0.0332(3) 0.7818(3) 0.0136(4)
C18_6 C 0.0313(3) 0.7724(5) 0.1190(5)
H11_6 H 0.065490 0.761458 0.154228
H16_6 H 0.128331 0.721120 0.055461
H9_6 H 0.892343 0.801090 0.983834
C16_6 C 0.9812(3) 0.7938(4) 0.9640(4)
H10_6 H 0.981249 0.801557 0.893435
C17_7 C 0.7818(3) 0.0332(3) 0.9864(4)
C18_7 C 0.7724(5) 0.0313(3) 0.8810(5)
H11_7 H 0.761458 0.065490 0.845772
H16_7 H 0.721120 0.128331 0.944539
H9_7 H 0.801090 0.892343 0.016166
C16_7 C 0.7938(4) 0.9812(3) 0.0360(4)
H10_7 H 0.801557 0.981249 0.106565
H9_8 H 0.198910 0.107657 0.016166
C16_8 C 0.2062(4) 0.0188(3) 0.0360(4)
H10_8 H 0.198443 0.018751 0.106565
C17_8 C 0.2182(3) 0.9668(3) 0.9864(4)
C18_8 C 0.2276(5) 0.9687(3) 0.8810(5)
H11_8 H 0.238542 0.934510 0.845772
H16_8 H 0.278880 0.871669 0.944539
loop_
_geom_bond_atom_site_label_1
_geom_bond_atom_site_label_2
_geom_bond_site_symmetry_1
_geom_bond_site_symmetry_2
N1 C10 1_555 1_555
C9 C8 1_555 1_555
H5 C9 1_555 1_555
C10 C9 1_555 1_555
H6 C10 1_555 1_555
C11 N1 1_555 1_555
H7 C11 1_555 1_555
C12 C8 1_555 1_555
H8 C12 1_555 1_555
Zn3 N1 1_555 1_555
C11 C12 1_555 1_555
Zn1 O1 1_555 1_555
O1 C1 1_555 1_555
O2 Zn1 1_555 1_555
O3 Zn1 1_555 1_555
O4 Zn1 1_555 1_555
C1 O2 1_555 1_555
C2 C1 1_555 1_555
C3 C2 1_555 1_555
H1 C3 1_555 1_555
C4 C3 1_555 1_555
C5 C4 1_555 1_555
C6 C5 1_555 1_555
H3 C6 1_555 1_555
C7 C2 1_555 1_555
H4 C7 1_555 1_555
C13 O3 1_555 1_555
C14 C13 1_555 1_555
C15 C14 1_555 1_555
C18 C17 1_555 1_555
H11 C18 1_555 1_555
C19 C14 1_555 1_555
H12 C19 1_555 1_555
N3 Zn1 1_555 1_555
N4 Zn1 1_555 1_555
O4 C13 1_555 1_555
C6 C7 1_555 1_555
C18 C19 1_555 1_555
N2 C22 1_555 1_555
H10 C16 1_555 1_555
C21 C20 1_555 1_555
H13 C21 1_555 1_555
C22 C21 1_555 1_555
H14 C22 1_555 1_555
C23 N2 1_555 1_555
H15 C23 1_555 1_555
C24 C20 1_555 1_555
Zn3 N2 1_555 1_555
C23 C24 1_555 1_555
N4 C22_2 1_555 1_555
C21_2 C20_2 1_555 1_555
H13_2 C21_2 1_555 1_555
C22_2 C21_2 1_555 1_555
H14_2 C22_2 1_555 1_555
C23_2 N4 1_555 1_555
H15_2 C23_2 1_555 1_555
C24_2 C20_2 1_555 1_555
C23_2 C24_2 1_555 1_555
Zn3 O1_2 1_555 1_555
O1_2 C1_2 1_555 1_555
O2_2 Zn3 1_555 1_555
O3_2 Zn3 1_555 1_555
O4_2 Zn3 1_555 1_555
N3 C10_2 1_555 1_555
C1_2 O2_2 1_555 1_555
C2_2 C1_2 1_555 1_555
C3_2 C2_2 1_555 1_555
H1_2 C3_2 1_555 1_555
C4_2 C3_2 1_555 1_555
H2_2 C4_2 1_555 1_555
C5_2 C4_2 1_555 1_555
C6_2 C5_2 1_555 1_555
H3_2 C6_2 1_555 1_555
C7_2 C2_2 1_555 1_555
H4_2 C7_2 1_555 1_555
C8_2 C5_2 1_555 1_555
C9_2 C8_2 1_555 1_555
H5_2 C9_2 1_555 1_555
C10_2 C9_2 1_555 1_555
H6_2 C10_2 1_555 1_555
C11_2 N3 1_555 1_555
H7_2 C11_2 1_555 1_555
C12_2 C8_2 1_555 1_555
H8_2 C12_2 1_555 1_555
C13_2 O3_2 1_555 1_555
C14_2 C13_2 1_555 1_555
C15_2 C14_2 1_555 1_555
C19_2 C14_2 1_555 1_555
H12_2 C19_2 1_555 1_555
O4_2 C13_2 1_555 1_555
C6_2 C7_2 1_555 1_555
C11_2 C12_2 1_555 1_555
N2_2 C22_3 1_555 1_555
H10_2 C16_2 1_555 1_555
C21_3 C20_3 1_555 1_555
H13_3 C21_3 1_555 1_555
C22_3 C21_3 1_555 1_555
H14_3 C22_3 1_555 1_555
C23_3 N2_2 1_555 1_555
H15_3 C23_3 1_555 1_555
C24_3 C20_3 1_555 1_555
Zn2 N2_2 1_555 1_555
C23_3 C24_3 1_555 1_555
Zn1_2 O1_3 1_555 1_555
O1_3 C1_3 1_555 1_555
O2_3 Zn1_2 1_555 1_555
O3_3 Zn1_2 1_555 1_555
O4_3 Zn1_2 1_555 1_555
C1_3 O2_3 1_555 1_555
C2_3 C1_3 1_555 1_555
C3_3 C2_3 1_555 1_555
H1_3 C3_3 1_555 1_555
C4_3 C3_3 1_555 1_555
C5_3 C4_3 1_555 1_555
C6_3 C5_3 1_555 1_555
H3_3 C6_3 1_555 1_555
C7_3 C2_3 1_555 1_555
H4_3 C7_3 1_555 1_555
C13_3 O3_3 1_555 1_555
C14_3 C13_3 1_555 1_555
C15_3 C14_3 1_555 1_555
C18_2 C17_2 1_555 1_555
H11_2 C18_2 1_555 1_555
C19_3 C14_3 1_555 1_555
H12_3 C19_3 1_555 1_555
N3_2 Zn1_2 1_555 1_555
N4_2 Zn1_2 1_555 1_555
O4_3 C13_3 1_555 1_555
C6_3 C7_3 1_555 1_555
C18_2 C19_3 1_555 1_555
N1_2 C10_3 1_555 1_555
C9_3 C8_3 1_555 1_555
H5_3 C9_3 1_555 1_555
C10_3 C9_3 1_555 1_555
H6_3 C10_3 1_555 1_555
C11_3 N1_2 1_555 1_555
H7_3 C11_3 1_555 1_555
C12_3 C8_3 1_555 1_555
H8_3 C12_3 1_555 1_555
Zn2 N1_2 1_555 1_555
C11_3 C12_3 1_555 1_555
Zn2 O1_4 1_555 1_555
O1_4 C1_4 1_555 1_555
O2_4 Zn2 1_555 1_555
O3_4 Zn2 1_555 1_555
O4_4 Zn2 1_555 1_555
N3_2 C10_4 1_555 1_555
C1_4 O2_4 1_555 1_555
C2_4 C1_4 1_555 1_555
C3_4 C2_4 1_555 1_555
H1_4 C3_4 1_555 1_555
C4_4 C3_4 1_555 1_555
H2_4 C4_4 1_555 1_555
C5_4 C4_4 1_555 1_555
C6_4 C5_4 1_555 1_555
H3_4 C6_4 1_555 1_555
C7_4 C2_4 1_555 1_555
H4_4 C7_4 1_555 1_555
C8_4 C5_4 1_555 1_555
C9_4 C8_4 1_555 1_555
H5_4 C9_4 1_555 1_555
C10_4 C9_4 1_555 1_555
H6_4 C10_4 1_555 1_555
C11_4 N3_2 1_555 1_555
H7_4 C11_4 1_555 1_555
C12_4 C8_4 1_555 1_555
H8_4 C12_4 1_555 1_555
C13_4 O3_4 1_555 1_555
C14_4 C13_4 1_555 1_555
C15_4 C14_4 1_555 1_555
C19_4 C14_4 1_555 1_555
H12_4 C19_4 1_555 1_555
O4_4 C13_4 1_555 1_555
C6_4 C7_4 1_555 1_555
C11_4 C12_4 1_555 1_555
N4_2 C22_4 1_555 1_555
C21_4 C20_4 1_555 1_555
H13_4 C21_4 1_555 1_555
C22_4 C21_4 1_555 1_555
H14_4 C22_4 1_555 1_555
C23_4 N4_2 1_555 1_555
H15_4 C23_4 1_555 1_555
C24_4 C20_4 1_555 1_555
C23_4 C24_4 1_555 1_555
Zn1_3 O1_5 1_555 1_555
O1_5 C1_5 1_555 1_555
O2_5 Zn1_3 1_555 1_555
O3_5 Zn1_3 1_555 1_555
O4_5 Zn1_3 1_555 1_555
N1_3 C10_5 1_555 1_555
C1_5 O2_5 1_555 1_555
C2_5 C1_5 1_555 1_555
C3_5 C2_5 1_555 1_555
H1_5 C3_5 1_555 1_555
C4_5 C3_5 1_555 1_555
H2_5 C4_5 1_555 1_555
C5_5 C4_5 1_555 1_555
C6_5 C5_5 1_555 1_555
H3_5 C6_5 1_555 1_555
C7_5 C2_5 1_555 1_555
H4_5 C7_5 1_555 1_555
C8_5 C5_5 1_555 1_555
C9_5 C8_5 1_555 1_555
H5_5 C9_5 1_555 1_555
C10_5 C9_5 1_555 1_555
H6_5 C10_5 1_555 1_555
C11_5 N1_3 1_555 1_555
H7_5 C11_5 1_555 1_555
C12_5 C8_5 1_555 1_555
H8_5 C12_5 1_555 1_555
C13_5 O3_5 1_555 1_555
C14_5 C13_5 1_555 1_555
C15_5 C14_5 1_555 1_555
C19_5 C14_5 1_555 1_555
H12_5 C19_5 1_555 1_555
Zn3_2 N1_3 1_555 1_555
N3_3 Zn1_3 1_555 1_555
N4_3 Zn1_3 1_555 1_555
O4_5 C13_5 1_555 1_555
C6_5 C7_5 1_555 1_555
C11_5 C12_5 1_555 1_555
N2_3 C22_5 1_555 1_555
C21_5 C20_5 1_555 1_555
H13_5 C21_5 1_555 1_555
C22_5 C21_5 1_555 1_555
H14_5 C22_5 1_555 1_555
C23_5 N2_3 1_555 1_555
H15_5 C23_5 1_555 1_555
C24_5 C20_5 1_555 1_555
Zn3_2 N2_3 1_555 1_555
C23_5 C24_5 1_555 1_555
N3_3 C10_6 1_555 1_555
C9_6 C8_6 1_555 1_555
H5_6 C9_6 1_555 1_555
C10_6 C9_6 1_555 1_555
H6_6 C10_6 1_555 1_555
C11_6 N3_3 1_555 1_555
H7_6 C11_6 1_555 1_555
C12_6 C8_6 1_555 1_555
H8_6 C12_6 1_555 1_555
C11_6 C12_6 1_555 1_555
Zn3_2 O1_6 1_555 1_555
O1_6 C1_6 1_555 1_555
O2_6 Zn3_2 1_555 1_555
O3_6 Zn3_2 1_555 1_555
O4_6 Zn3_2 1_555 1_555
C1_6 O2_6 1_555 1_555
C2_6 C1_6 1_555 1_555
C3_6 C2_6 1_555 1_555
H1_6 C3_6 1_555 1_555
C4_6 C3_6 1_555 1_555
C5_6 C4_6 1_555 1_555
C6_6 C5_6 1_555 1_555
H3_6 C6_6 1_555 1_555
C7_6 C2_6 1_555 1_555
H4_6 C7_6 1_555 1_555
C13_6 O3_6 1_555 1_555
C14_6 C13_6 1_555 1_555
C15_6 C14_6 1_555 1_555
C18_3 C17_3 1_555 1_555
H11_3 C18_3 1_555 1_555
C19_6 C14_6 1_555 1_555
H12_6 C19_6 1_555 1_555
O4_6 C13_6 1_555 1_555
C6_6 C7_6 1_555 1_555
C18_3 C19_6 1_555 1_555
N4_3 C22_6 1_555 1_555
H10_3 C16_3 1_555 1_555
C21_6 C20_6 1_555 1_555
H13_6 C21_6 1_555 1_555
C22_6 C21_6 1_555 1_555
H14_6 C22_6 1_555 1_555
C23_6 N4_3 1_555 1_555
H15_6 C23_6 1_555 1_555
C24_6 C20_6 1_555 1_555
C23_6 C24_6 1_555 1_555
H10_4 C16_4 1_555 1_555
C18_4 C17_4 1_555 1_555
H11_4 C18_4 1_555 1_555
N2_4 C22_7 1_555 1_555
C21_7 C20_7 1_555 1_555
H13_7 C21_7 1_555 1_555
C22_7 C21_7 1_555 1_555
H14_7 C22_7 1_555 1_555
C23_7 N2_4 1_555 1_555
H15_7 C23_7 1_555 1_555
C24_7 C20_7 1_555 1_555
Zn2_2 N2_4 1_555 1_555
C23_7 C24_7 1_555 1_555
Zn1_4 O1_7 1_555 1_555
O1_7 C1_7 1_555 1_555
O2_7 Zn1_4 1_555 1_555
O3_7 Zn1_4 1_555 1_555
O4_7 Zn1_4 1_555 1_555
N1_4 C10_7 1_555 1_555
C1_7 O2_7 1_555 1_555
C2_7 C1_7 1_555 1_555
C3_7 C2_7 1_555 1_555
H1_7 C3_7 1_555 1_555
C4_7 C3_7 1_555 1_555
H2_7 C4_7 1_555 1_555
C5_7 C4_7 1_555 1_555
C6_7 C5_7 1_555 1_555
H3_7 C6_7 1_555 1_555
C7_7 C2_7 1_555 1_555
H4_7 C7_7 1_555 1_555
C8_7 C5_7 1_555 1_555
C9_7 C8_7 1_555 1_555
H5_7 C9_7 1_555 1_555
C10_7 C9_7 1_555 1_555
H6_7 C10_7 1_555 1_555
C11_7 N1_4 1_555 1_555
H7_7 C11_7 1_555 1_555
C12_7 C8_7 1_555 1_555
H8_7 C12_7 1_555 1_555
C13_7 O3_7 1_555 1_555
C14_7 C13_7 1_555 1_555
C15_7 C14_7 1_555 1_555
C19_7 C14_7 1_555 1_555
H12_7 C19_7 1_555 1_555
Zn2_2 N1_4 1_555 1_555
N3_4 Zn1_4 1_555 1_555
N4_4 Zn1_4 1_555 1_555
O4_7 C13_7 1_555 1_555
C6_7 C7_7 1_555 1_555
C11_7 C12_7 1_555 1_555
N4_4 C22_8 1_555 1_555
H10_5 C16_5 1_555 1_555
C21_8 C20_8 1_555 1_555
H13_8 C21_8 1_555 1_555
C22_8 C21_8 1_555 1_555
H14_8 C22_8 1_555 1_555
C23_8 N4_4 1_555 1_555
H15_8 C23_8 1_555 1_555
C24_8 C20_8 1_555 1_555
C23_8 C24_8 1_555 1_555
Zn2_2 O1_8 1_555 1_555
O1_8 C1_8 1_555 1_555
O2_8 Zn2_2 1_555 1_555
O3_8 Zn2_2 1_555 1_555
O4_8 Zn2_2 1_555 1_555
C1_8 O2_8 1_555 1_555
C2_8 C1_8 1_555 1_555
C3_8 C2_8 1_555 1_555
H1_8 C3_8 1_555 1_555
C4_8 C3_8 1_555 1_555
C5_8 C4_8 1_555 1_555
C6_8 C5_8 1_555 1_555
H3_8 C6_8 1_555 1_555
C7_8 C2_8 1_555 1_555
H4_8 C7_8 1_555 1_555
C13_8 O3_8 1_555 1_555
C14_8 C13_8 1_555 1_555
C15_8 C14_8 1_555 1_555
C18_5 C17_5 1_555 1_555
H11_5 C18_5 1_555 1_555
C19_8 C14_8 1_555 1_555
H12_8 C19_8 1_555 1_555
O4_8 C13_8 1_555 1_555
C6_8 C7_8 1_555 1_555
C18_5 C19_8 1_555 1_555
N3_4 C10_8 1_555 1_555
C9_8 C8_8 1_555 1_555
H5_8 C9_8 1_555 1_555
C10_8 C9_8 1_555 1_555
H6_8 C10_8 1_555 1_555
C11_8 N3_4 1_555 1_555
H7_8 C11_8 1_555 1_555
C12_8 C8_8 1_555 1_555
H8_8 C12_8 1_555 1_555
C11_8 C12_8 1_555 1_555
C18_6 C17_6 1_555 1_555
H11_6 C18_6 1_555 1_555
H10_6 C16_6 1_555 1_555
C18_7 C17_7 1_555 1_555
H11_7 C18_7 1_555 1_555
H10_7 C16_7 1_555 1_555
H10_8 C16_8 1_555 1_555
C18_8 C17_8 1_555 1_555
H11_8 C18_8 1_555 1_555

#END
