
###############################################################################
#
# This file contains modified crystal structure data generated from the
# MOF subset of the Cambridge Structural Database (CSD) v543 
# hosted by the Cambridge Crystallographic Data Centre (CCDC).
#
# This work is licensed under the Creative Commons
# Attribution-NonCommercial-ShareAlike 4.0 International License.
# To view a copy of this license, visit
# http://creativecommons.org/licenses/by-nc-sa/4.0/
# or send a letter to
# Creative Commons, PO Box 1866, Mountain View, CA 94042, USA.
#
# CIF created using the CSD Python API on 29 September 2022
# The structure has been converted into the P1 space group
# The structure has a 3D framework
# The original CSD entry FIZXIY is in the tetragonal crystal system
# The framework has been calculated to contain at least 10.0% void space
# The void calculation uses a probe of radius 1.32A, grid spacing 0.4
#
###############################################################################

data_FIZXIY
_chemical_formula_moiety         '(C288 H192 Co18 N14 O32)n'
_symmetry_cell_setting           triclinic
_symmetry_space_group_name_H-M   'P 1'
_symmetry_Int_Tables_number      1
_space_group_name_Hall           'P 1'
loop_
_symmetry_equiv_pos_site_id
_symmetry_equiv_pos_as_xyz
1 x,y,z
_cell_length_a                   24.8996(3)
_cell_length_b                   24.8996(3)
_cell_length_c                   16.0757(3)
_cell_angle_alpha                90
_cell_angle_beta                 90
_cell_angle_gamma                90
_cell_volume                     9966.77
loop_
_atom_site_label
_atom_site_type_symbol
_atom_site_fract_x
_atom_site_fract_y
_atom_site_fract_z
Co1 Co -0.000000 0.500000 0.86708(13)
O3 O 0.07573(10) 0.51839(11) 0.81972(15)
O4 O 0.03491(11) 0.44863(11) 0.76417(17)
N2 N 0.43834(12) 0.49122(12) 0.20259(17)
C19 C 0.07293(14) 0.48249(14) 0.76426(19)
C20 C 0.11310(14) 0.48209(14) 0.69584(18)
C21 C 0.15371(16) 0.51935(19) 0.6932(2)
H13 H 0.155248 0.545181 0.734952
C22 C 0.19143(17) 0.5203(2) 0.6332(3)
H14 H 0.218896 0.545593 0.635308
C23 C 0.18943(16) 0.48346(19) 0.5677(2)
C24 C 0.14880(16) 0.44524(19) 0.5680(2)
H15 H 0.146770 0.419667 0.525953
C25 C 0.11100(15) 0.44569(18) 0.6323(2)
H16 H 0.083530 0.420383 0.631832
C26 C 0.23159(16) 0.4825(2) 0.5015(2)
C27 C 0.28387(16) 0.4940(2) 0.5229(3)
H17 H 0.292273 0.501717 0.577936
C28 C 0.32490(19) 0.4940(3) 0.4623(3)
H18 H 0.360197 0.501428 0.477325
C29 C 0.31230(16) 0.4831(2) 0.3815(3)
C30 C 0.25864(15) 0.4741(2) 0.3588(2)
H19 H 0.249896 0.468073 0.303359
C31 C 0.21883(17) 0.4740(2) 0.4184(2)
H20 H 0.183311 0.468230 0.402910
C32 C 0.35511(15) 0.48476(18) 0.3166(2)
C33 C 0.40370(17) 0.4595(2) 0.3298(3)
H21 H 0.408806 0.439298 0.377838
C34 C 0.44433(16) 0.46387(19) 0.2734(2)
H22 H 0.477058 0.447355 0.284447
C35 C 0.39224(15) 0.5162(2) 0.1884(2)
H23 H 0.387665 0.535491 0.139413
C36 C 0.35109(17) 0.5139(2) 0.2454(3)
H24 H 0.319634 0.532900 0.234896
Co3 Co 0.500000 0.500000 0.11708(13)
N3 N 0.00878(12) 0.43834(12) 0.95259(17)
Co1_2 Co 1.000000 0.500000 0.86708(13)
O1 O 0.92427(10) 0.48161(11) 0.81972(15)
O2 O 0.96509(11) 0.55137(11) 0.76417(17)
N1 N 0.56166(12) 0.50878(12) 0.20259(17)
C1 C 0.92707(14) 0.51751(14) 0.76426(19)
C2 C 0.88690(14) 0.51791(14) 0.69584(18)
C3 C 0.84629(16) 0.48065(19) 0.6932(2)
H1 H 0.844752 0.454819 0.734952
C4 C 0.80857(17) 0.4797(2) 0.6332(3)
H2 H 0.781104 0.454407 0.635308
C5 C 0.81057(16) 0.51654(19) 0.5677(2)
C6 C 0.85120(16) 0.55476(19) 0.5680(2)
H3 H 0.853230 0.580333 0.525953
C7 C 0.88900(15) 0.55431(18) 0.6323(2)
H4 H 0.916470 0.579617 0.631832
C8 C 0.76841(16) 0.5175(2) 0.5015(2)
C9 C 0.71613(16) 0.5060(2) 0.5229(3)
H5 H 0.707727 0.498283 0.577936
C10 C 0.67510(19) 0.5060(3) 0.4623(3)
H6 H 0.639803 0.498572 0.477325
C11 C 0.68770(16) 0.5169(2) 0.3815(3)
C12 C 0.74136(15) 0.5259(2) 0.3588(2)
H7 H 0.750104 0.531927 0.303359
C13 C 0.78117(17) 0.5260(2) 0.4184(2)
H8 H 0.816689 0.531770 0.402910
C14 C 0.64489(15) 0.51524(18) 0.3166(2)
C15 C 0.59630(17) 0.5405(2) 0.3298(3)
H9 H 0.591194 0.560702 0.377838
C16 C 0.55567(16) 0.53613(19) 0.2734(2)
H10 H 0.522942 0.552645 0.284447
C17 C 0.60776(15) 0.4838(2) 0.1884(2)
H11 H 0.612335 0.464509 0.139413
C18 C 0.64891(17) 0.4861(2) 0.2454(3)
H12 H 0.680366 0.467100 0.234896
N4 N 0.99122(12) 0.56166(12) 0.95259(17)
O1_2 O 0.51839(11) 0.42427(10) 0.06972(15)
O2_2 O 0.44863(11) 0.46509(11) 0.01417(17)
C1_2 C 0.48249(14) 0.42707(14) 0.01426(19)
O3_2 O 0.48161(11) 0.57573(10) 0.06972(15)
O4_2 O 0.55137(11) 0.53491(11) 0.01417(17)
C19_2 C 0.51751(14) 0.57293(14) 0.01426(19)
C35_2 C 0.0162(2) 0.60776(15) 0.9384(2)
H23_2 H 0.035491 0.612335 0.889413
C36_2 C 0.0139(2) 0.64891(17) 0.9954(3)
H24_2 H 0.032900 0.680366 0.984896
C17_2 C 0.9838(2) 0.39224(15) 0.9384(2)
H11_2 H 0.964509 0.387665 0.889413
C18_2 C 0.9861(2) 0.35109(17) 0.9954(3)
H12_2 H 0.967100 0.319634 0.984896
Co2 Co 0.000000 0.000000 0.61708(13)
H6_2 H 0.860197 0.001428 0.977325
C17_3 C 0.89224(15) 0.0162(2) 0.6884(2)
H11_3 H 0.887665 0.035491 0.639413
C18_3 C 0.85109(17) 0.0139(2) 0.7454(3)
H12_3 H 0.819634 0.032900 0.734896
N2_2 N 0.06166(12) 0.00878(12) 0.70259(17)
C28_2 C 0.17510(19) 0.0060(3) 0.9623(3)
C29_2 C 0.18770(16) 0.0169(2) 0.8815(3)
C30_2 C 0.24136(15) 0.0259(2) 0.8588(2)
H19_2 H 0.250104 0.031927 0.803359
C31_2 C 0.28117(17) 0.0260(2) 0.9184(2)
H20_2 H 0.316689 0.031770 0.902910
C32_2 C 0.14489(15) 0.01524(18) 0.8166(2)
C33_2 C 0.09630(17) 0.0405(2) 0.8298(3)
H21_2 H 0.091194 0.060702 0.877838
C34_2 C 0.05567(16) 0.03613(19) 0.7734(2)
H22_2 H 0.022942 0.052645 0.784447
Co2_2 Co 1.000000 0.000000 0.61708(13)
O2_3 O 0.05137(11) 0.03491(11) 0.51417(17)
C1_3 C 0.01751(14) 0.07293(14) 0.51426(19)
C2_2 C 0.01791(14) 0.11310(14) 0.44584(18)
C5_2 C 0.01654(19) 0.18943(16) 0.3177(2)
C6_2 C 0.05476(19) 0.14880(16) 0.3180(2)
H3_2 H 0.080333 0.146770 0.275953
C7_2 C 0.05431(18) 0.11100(15) 0.3823(2)
H4_2 H 0.079617 0.083530 0.381832
C8_2 C 0.0175(2) 0.23159(16) 0.2515(2)
C9_2 C 0.0060(2) 0.28387(16) 0.2729(3)
C10_2 C 0.0060(3) 0.32490(19) 0.2123(3)
C11_2 C 0.0169(2) 0.31230(16) 0.1315(3)
C12_2 C 0.0259(2) 0.25864(15) 0.1088(2)
H7_2 H 0.031927 0.249896 0.053359
C13_2 C 0.0260(2) 0.21883(17) 0.1684(2)
H8_2 H 0.031770 0.183311 0.152910
C14_2 C 0.01524(18) 0.35511(15) 0.0666(2)
C15_2 C 0.0405(2) 0.40370(17) 0.0798(3)
H9_2 H 0.060702 0.408806 0.127838
C16_2 C 0.03613(19) 0.44433(16) 0.0234(2)
H10_2 H 0.052645 0.477058 0.034447
O1_3 O 0.98161(11) 0.07573(10) 0.56972(15)
C3_2 C 0.98065(19) 0.15371(16) 0.4432(2)
H1_2 H 0.954819 0.155248 0.484952
C4_2 C 0.9797(2) 0.19143(17) 0.3832(3)
H2_2 H 0.954407 0.218896 0.385308
H5_2 H 0.998283 0.292273 0.327936
H6_3 H 0.998572 0.360197 0.227325
Co2_3 Co 0.000000 1.000000 0.61708(13)
N1_2 N 0.93834(12) 0.99122(12) 0.70259(17)
C10_3 C 0.82490(19) 0.9940(3) 0.9623(3)
C11_3 C 0.81230(16) 0.9831(2) 0.8815(3)
C12_3 C 0.75864(15) 0.9741(2) 0.8588(2)
H7_3 H 0.749896 0.968073 0.803359
C13_3 C 0.71883(17) 0.9740(2) 0.9184(2)
H8_3 H 0.683311 0.968230 0.902910
C14_3 C 0.85511(15) 0.98476(18) 0.8166(2)
C15_3 C 0.90370(17) 0.9595(2) 0.8298(3)
H9_3 H 0.908806 0.939298 0.877838
C16_3 C 0.94433(16) 0.96387(19) 0.7734(2)
H10_3 H 0.977058 0.947355 0.784447
H18_2 H 0.139803 0.998572 0.977325
C35_3 C 0.10776(15) 0.9838(2) 0.6884(2)
H23_3 H 0.112335 0.964509 0.639413
C36_3 C 0.14891(17) 0.9861(2) 0.7454(3)
H24_3 H 0.180366 0.967100 0.734896
Co2_4 Co 1.000000 1.000000 0.61708(13)
O3_3 O 0.01839(11) 0.92427(10) 0.56972(15)
C21_2 C 0.01935(19) 0.84629(16) 0.4432(2)
H13_2 H 0.045181 0.844752 0.484952
C22_2 C 0.0203(2) 0.80857(17) 0.3832(3)
H14_2 H 0.045593 0.781104 0.385308
H17_2 H 0.001717 0.707727 0.327936
H18_3 H 0.001428 0.639803 0.227325
O4_3 O 0.94863(11) 0.96509(11) 0.51417(17)
C19_3 C 0.98249(14) 0.92707(14) 0.51426(19)
C20_2 C 0.98209(14) 0.88690(14) 0.44584(18)
C23_2 C 0.98346(19) 0.81057(16) 0.3177(2)
C24_2 C 0.94524(19) 0.85120(16) 0.3180(2)
H15_2 H 0.919667 0.853230 0.275953
C25_2 C 0.94569(18) 0.88900(15) 0.3823(2)
H16_2 H 0.920383 0.916470 0.381832
C26_2 C 0.9825(2) 0.76841(16) 0.2515(2)
C27_2 C 0.9940(2) 0.71613(16) 0.2729(3)
C28_3 C 0.9940(3) 0.67510(19) 0.2123(3)
C29_3 C 0.9831(2) 0.68770(16) 0.1315(3)
C30_3 C 0.9741(2) 0.74136(15) 0.1088(2)
H19_3 H 0.968073 0.750104 0.053359
C31_3 C 0.9740(2) 0.78117(17) 0.1684(2)
H20_3 H 0.968230 0.816689 0.152910
C32_3 C 0.98476(18) 0.64489(15) 0.0666(2)
C33_3 C 0.9595(2) 0.59630(17) 0.0798(3)
H21_3 H 0.939298 0.591194 0.127838
C34_3 C 0.96387(19) 0.55567(16) 0.0234(2)
H22_3 H 0.947355 0.522942 0.034447
Co1_3 Co 0.500000 0.000000 0.36708(13)
O1_4 O 0.57573(10) 0.01839(11) 0.31972(15)
C3_3 C 0.65371(16) 0.01935(19) 0.1932(2)
H1_3 H 0.655248 0.045181 0.234952
C4_3 C 0.69143(17) 0.0203(2) 0.1332(3)
H2_3 H 0.718896 0.045593 0.135308
H5_3 H 0.792273 0.001717 0.077936
O4_4 O 0.46509(11) 0.05137(11) 0.26417(17)
C19_4 C 0.42707(14) 0.01751(14) 0.26426(19)
C20_3 C 0.38690(14) 0.01791(14) 0.19584(18)
C23_3 C 0.31057(16) 0.01654(19) 0.0677(2)
C24_3 C 0.35120(16) 0.05476(19) 0.0680(2)
H15_3 H 0.353230 0.080333 0.025953
C25_3 C 0.38900(15) 0.05431(18) 0.1323(2)
H16_3 H 0.416470 0.079617 0.131832
C26_3 C 0.26841(16) 0.0175(2) 0.0015(2)
C27_3 C 0.21613(16) 0.0060(2) 0.0229(3)
N3_2 N 0.49122(12) 0.06166(12) 0.45259(17)
Co1_4 Co 0.500000 1.000000 0.36708(13)
O2_4 O 0.53491(11) 0.94863(11) 0.26417(17)
C1_4 C 0.57293(14) 0.98249(14) 0.26426(19)
C2_3 C 0.61310(14) 0.98209(14) 0.19584(18)
C5_3 C 0.68943(16) 0.98346(19) 0.0677(2)
C6_3 C 0.64880(16) 0.94524(19) 0.0680(2)
H3_3 H 0.646770 0.919667 0.025953
C7_3 C 0.61100(15) 0.94569(18) 0.1323(2)
H4_3 H 0.583530 0.920383 0.131832
C8_3 C 0.73159(16) 0.9825(2) 0.0015(2)
C9_3 C 0.78387(16) 0.9940(2) 0.0229(3)
O3_4 O 0.42427(10) 0.98161(11) 0.31972(15)
C21_3 C 0.34629(16) 0.98065(19) 0.1932(2)
H13_3 H 0.344752 0.954819 0.234952
C22_3 C 0.30857(17) 0.9797(2) 0.1332(3)
H14_3 H 0.281104 0.954407 0.135308
H17_3 H 0.207727 0.998283 0.077936
N4_2 N 0.50878(12) 0.93834(12) 0.45259(17)
C2_4 C 0.48209(14) 0.38690(14) 0.94584(18)
C3_4 C 0.51935(19) 0.34629(16) 0.9432(2)
H1_4 H 0.545181 0.344752 0.984952
C4_4 C 0.5203(2) 0.30857(17) 0.8832(3)
H2_4 H 0.545593 0.281104 0.885308
C5_4 C 0.48346(19) 0.31057(16) 0.8177(2)
C6_4 C 0.44524(19) 0.35120(16) 0.8180(2)
H3_4 H 0.419667 0.353230 0.775953
C7_4 C 0.44569(18) 0.38900(15) 0.8823(2)
H4_4 H 0.420383 0.416470 0.881832
C8_4 C 0.4825(2) 0.26841(16) 0.7515(2)
C9_4 C 0.4940(2) 0.21613(16) 0.7729(3)
H5_4 H 0.501717 0.207727 0.827936
C10_4 C 0.4940(3) 0.17510(19) 0.7123(3)
H6_4 H 0.501428 0.139803 0.727325
C11_4 C 0.4831(2) 0.18770(16) 0.6315(3)
C12_4 C 0.4741(2) 0.24136(15) 0.6088(2)
H7_4 H 0.468073 0.250104 0.553359
C13_4 C 0.4740(2) 0.28117(17) 0.6684(2)
H8_4 H 0.468230 0.316689 0.652910
C14_4 C 0.48476(18) 0.14489(15) 0.5666(2)
C15_4 C 0.4595(2) 0.09630(17) 0.5798(3)
H9_4 H 0.439298 0.091194 0.627838
C16_4 C 0.46387(19) 0.05567(16) 0.5234(2)
H10_4 H 0.447355 0.022942 0.534447
C17_4 C 0.5162(2) 0.10776(15) 0.4384(2)
H11_4 H 0.535491 0.112335 0.389413
C18_4 C 0.5139(2) 0.14891(17) 0.4954(3)
H12_4 H 0.532900 0.180366 0.484896
C20_4 C 0.51791(14) 0.61310(14) 0.94584(18)
C21_4 C 0.48065(19) 0.65371(16) 0.9432(2)
H13_4 H 0.454819 0.655248 0.984952
C22_4 C 0.4797(2) 0.69143(17) 0.8832(3)
H14_4 H 0.454407 0.718896 0.885308
C23_4 C 0.51654(19) 0.68943(16) 0.8177(2)
C24_4 C 0.55476(19) 0.64880(16) 0.8180(2)
H15_4 H 0.580333 0.646770 0.775953
C25_4 C 0.55431(18) 0.61100(15) 0.8823(2)
H16_4 H 0.579617 0.583530 0.881832
C26_4 C 0.5175(2) 0.73159(16) 0.7515(2)
C27_4 C 0.5060(2) 0.78387(16) 0.7729(3)
H17_4 H 0.498283 0.792273 0.827936
C28_4 C 0.5060(3) 0.82490(19) 0.7123(3)
H18_4 H 0.498572 0.860197 0.727325
C29_4 C 0.5169(2) 0.81230(16) 0.6315(3)
C30_4 C 0.5259(2) 0.75864(15) 0.6088(2)
H19_4 H 0.531927 0.749896 0.553359
C31_4 C 0.5260(2) 0.71883(17) 0.6684(2)
H20_4 H 0.531770 0.683311 0.652910
C32_4 C 0.51524(18) 0.85511(15) 0.5666(2)
C33_4 C 0.5405(2) 0.90370(17) 0.5798(3)
H21_4 H 0.560702 0.908806 0.627838
C34_4 C 0.53613(19) 0.94433(16) 0.5234(2)
H22_4 H 0.552645 0.977058 0.534447
C35_4 C 0.4838(2) 0.89224(15) 0.4384(2)
H23_4 H 0.464509 0.887665 0.389413
C36_4 C 0.4861(2) 0.85109(17) 0.4954(3)
H24_4 H 0.467100 0.819634 0.484896
Co1_5 Co -0.000000 0.500000 0.36708(13)
O3_5 O 0.07573(10) 0.48161(11) 0.31972(15)
O4_5 O 0.03491(11) 0.55137(11) 0.26417(17)
C19_5 C 0.07293(14) 0.51751(14) 0.26426(19)
C20_5 C 0.11310(14) 0.51791(14) 0.19584(18)
C21_5 C 0.15371(16) 0.48065(19) 0.1932(2)
H13_5 H 0.155248 0.454819 0.234952
C22_5 C 0.19143(17) 0.4797(2) 0.1332(3)
H14_5 H 0.218896 0.454407 0.135308
C23_5 C 0.18943(16) 0.51654(19) 0.0677(2)
C24_5 C 0.14880(16) 0.55476(19) 0.0680(2)
H15_5 H 0.146770 0.580333 0.025953
C25_5 C 0.11100(15) 0.55431(18) 0.1323(2)
H16_5 H 0.083530 0.579617 0.131832
C26_5 C 0.23159(16) 0.5175(2) 0.0015(2)
C27_5 C 0.28387(16) 0.5060(2) 0.0229(3)
H17_5 H 0.292273 0.498283 0.077936
N3_3 N 0.00878(12) 0.56166(12) 0.45259(17)
C21_6 C 0.01935(19) 0.15371(16) 0.9432(2)
H13_6 H 0.045181 0.155248 0.984952
C22_6 C 0.0203(2) 0.19143(17) 0.8832(3)
H14_6 H 0.045593 0.218896 0.885308
H17_6 H 0.001717 0.292273 0.827936
H18_5 H 0.001428 0.360197 0.727325
C35_5 C 0.0162(2) 0.39224(15) 0.4384(2)
H23_5 H 0.035491 0.387665 0.389413
C36_5 C 0.0139(2) 0.35109(17) 0.4954(3)
H24_5 H 0.032900 0.319634 0.484896
C2_5 C 0.01791(14) 0.88690(14) 0.94584(18)
C5_5 C 0.01654(19) 0.81057(16) 0.8177(2)
C6_5 C 0.05476(19) 0.85120(16) 0.8180(2)
H3_5 H 0.080333 0.853230 0.775953
C7_5 C 0.05431(18) 0.88900(15) 0.8823(2)
H4_5 H 0.079617 0.916470 0.881832
C8_5 C 0.0175(2) 0.76841(16) 0.7515(2)
C9_5 C 0.0060(2) 0.71613(16) 0.7729(3)
C10_5 C 0.0060(3) 0.67510(19) 0.7123(3)
C11_5 C 0.0169(2) 0.68770(16) 0.6315(3)
C12_5 C 0.0259(2) 0.74136(15) 0.6088(2)
H7_5 H 0.031927 0.750104 0.553359
C13_5 C 0.0260(2) 0.78117(17) 0.6684(2)
H8_5 H 0.031770 0.816689 0.652910
C14_5 C 0.01524(18) 0.64489(15) 0.5666(2)
C15_5 C 0.0405(2) 0.59630(17) 0.5798(3)
H9_5 H 0.060702 0.591194 0.627838
C16_5 C 0.03613(19) 0.55567(16) 0.5234(2)
H10_5 H 0.052645 0.522942 0.534447
N2_3 N 0.43834(12) 0.50878(12) 0.70259(17)
C28_5 C 0.32490(19) 0.5060(3) 0.9623(3)
H18_6 H 0.360197 0.498572 0.977325
C29_5 C 0.31230(16) 0.5169(2) 0.8815(3)
C30_5 C 0.25864(15) 0.5259(2) 0.8588(2)
H19_5 H 0.249896 0.531927 0.803359
C31_5 C 0.21883(17) 0.5260(2) 0.9184(2)
H20_5 H 0.183311 0.531770 0.902910
C32_5 C 0.35511(15) 0.51524(18) 0.8166(2)
C33_5 C 0.40370(17) 0.5405(2) 0.8298(3)
H21_5 H 0.408806 0.560702 0.877838
C34_5 C 0.44433(16) 0.53613(19) 0.7734(2)
H22_5 H 0.477058 0.552645 0.784447
C35_6 C 0.39224(15) 0.4838(2) 0.6884(2)
H23_6 H 0.387665 0.464509 0.639413
C36_6 C 0.35109(17) 0.4861(2) 0.7454(3)
H24_6 H 0.319634 0.467100 0.734896
Co3_2 Co 0.500000 0.500000 0.61708(13)
N1_3 N 0.56166(12) 0.49122(12) 0.70259(17)
C10_6 C 0.67510(19) 0.4940(3) 0.9623(3)
H6_5 H 0.639803 0.501428 0.977325
C11_6 C 0.68770(16) 0.4831(2) 0.8815(3)
C12_6 C 0.74136(15) 0.4741(2) 0.8588(2)
H7_6 H 0.750104 0.468073 0.803359
C13_6 C 0.78117(17) 0.4740(2) 0.9184(2)
H8_6 H 0.816689 0.468230 0.902910
C14_6 C 0.64489(15) 0.48476(18) 0.8166(2)
C15_6 C 0.59630(17) 0.4595(2) 0.8298(3)
H9_6 H 0.591194 0.439298 0.877838
C16_6 C 0.55567(16) 0.46387(19) 0.7734(2)
H10_6 H 0.522942 0.447355 0.784447
C17_5 C 0.60776(15) 0.5162(2) 0.6884(2)
H11_5 H 0.612335 0.535491 0.639413
C18_5 C 0.64891(17) 0.5139(2) 0.7454(3)
H12_5 H 0.680366 0.532900 0.734896
O1_5 O 0.51839(11) 0.57573(10) 0.56972(15)
O2_5 O 0.44863(11) 0.53491(11) 0.51417(17)
C1_5 C 0.48249(14) 0.57293(14) 0.51426(19)
C2_6 C 0.48209(14) 0.61310(14) 0.44584(18)
C3_5 C 0.51935(19) 0.65371(16) 0.4432(2)
H1_5 H 0.545181 0.655248 0.484952
C4_5 C 0.5203(2) 0.69143(17) 0.3832(3)
H2_5 H 0.545593 0.718896 0.385308
C5_6 C 0.48346(19) 0.68943(16) 0.3177(2)
C6_6 C 0.44524(19) 0.64880(16) 0.3180(2)
H3_6 H 0.419667 0.646770 0.275953
C7_6 C 0.44569(18) 0.61100(15) 0.3823(2)
H4_6 H 0.420383 0.583530 0.381832
C8_6 C 0.4825(2) 0.73159(16) 0.2515(2)
C9_6 C 0.4940(2) 0.78387(16) 0.2729(3)
H5_5 H 0.501717 0.792273 0.327936
C10_7 C 0.4940(3) 0.82490(19) 0.2123(3)
H6_6 H 0.501428 0.860197 0.227325
C11_7 C 0.4831(2) 0.81230(16) 0.1315(3)
C12_7 C 0.4741(2) 0.75864(15) 0.1088(2)
H7_7 H 0.468073 0.749896 0.053359
C13_7 C 0.4740(2) 0.71883(17) 0.1684(2)
H8_7 H 0.468230 0.683311 0.152910
C14_7 C 0.48476(18) 0.85511(15) 0.0666(2)
C15_7 C 0.4595(2) 0.90370(17) 0.0798(3)
H9_7 H 0.439298 0.908806 0.127838
C16_7 C 0.46387(19) 0.94433(16) 0.0234(2)
H10_7 H 0.447355 0.977058 0.034447
O3_6 O 0.48161(11) 0.42427(10) 0.56972(15)
O4_6 O 0.55137(11) 0.46509(11) 0.51417(17)
C19_6 C 0.51751(14) 0.42707(14) 0.51426(19)
C20_6 C 0.51791(14) 0.38690(14) 0.44584(18)
C21_7 C 0.48065(19) 0.34629(16) 0.4432(2)
H13_7 H 0.454819 0.344752 0.484952
C22_7 C 0.4797(2) 0.30857(17) 0.3832(3)
H14_7 H 0.454407 0.281104 0.385308
C23_6 C 0.51654(19) 0.31057(16) 0.3177(2)
C24_6 C 0.55476(19) 0.35120(16) 0.3180(2)
H15_6 H 0.580333 0.353230 0.275953
C25_6 C 0.55431(18) 0.38900(15) 0.3823(2)
H16_6 H 0.579617 0.416470 0.381832
C26_6 C 0.5175(2) 0.26841(16) 0.2515(2)
C27_6 C 0.5060(2) 0.21613(16) 0.2729(3)
H17_7 H 0.498283 0.207727 0.327936
C28_6 C 0.5060(3) 0.17510(19) 0.2123(3)
H18_7 H 0.498572 0.139803 0.227325
C29_6 C 0.5169(2) 0.18770(16) 0.1315(3)
C30_6 C 0.5259(2) 0.24136(15) 0.1088(2)
H19_6 H 0.531927 0.250104 0.053359
C31_6 C 0.5260(2) 0.28117(17) 0.1684(2)
H20_6 H 0.531770 0.316689 0.152910
C32_6 C 0.51524(18) 0.14489(15) 0.0666(2)
C33_6 C 0.5405(2) 0.09630(17) 0.0798(3)
H21_6 H 0.560702 0.091194 0.127838
C34_6 C 0.53613(19) 0.05567(16) 0.0234(2)
H22_6 H 0.552645 0.022942 0.034447
Co1_6 Co 1.000000 0.500000 0.36708(13)
O1_6 O 0.92427(10) 0.51839(11) 0.31972(15)
O2_6 O 0.96509(11) 0.44863(11) 0.26417(17)
C1_6 C 0.92707(14) 0.48249(14) 0.26426(19)
C2_7 C 0.88690(14) 0.48209(14) 0.19584(18)
C3_6 C 0.84629(16) 0.51935(19) 0.1932(2)
H1_6 H 0.844752 0.545181 0.234952
C4_6 C 0.80857(17) 0.5203(2) 0.1332(3)
H2_6 H 0.781104 0.545593 0.135308
C5_7 C 0.81057(16) 0.48346(19) 0.0677(2)
C6_7 C 0.85120(16) 0.44524(19) 0.0680(2)
H3_7 H 0.853230 0.419667 0.025953
C7_7 C 0.88900(15) 0.44569(18) 0.1323(2)
H4_7 H 0.916470 0.420383 0.131832
C8_7 C 0.76841(16) 0.4825(2) 0.0015(2)
C9_7 C 0.71613(16) 0.4940(2) 0.0229(3)
H5_6 H 0.707727 0.501717 0.077936
N4_3 N 0.99122(12) 0.43834(12) 0.45259(17)
C20_7 C 0.98209(14) 0.11310(14) 0.94584(18)
C23_7 C 0.98346(19) 0.18943(16) 0.8177(2)
C24_7 C 0.94524(19) 0.14880(16) 0.8180(2)
H15_7 H 0.919667 0.146770 0.775953
C25_7 C 0.94569(18) 0.11100(15) 0.8823(2)
H16_7 H 0.920383 0.083530 0.881832
C26_7 C 0.9825(2) 0.23159(16) 0.7515(2)
C27_7 C 0.9940(2) 0.28387(16) 0.7729(3)
C28_7 C 0.9940(3) 0.32490(19) 0.7123(3)
C29_7 C 0.9831(2) 0.31230(16) 0.6315(3)
C30_7 C 0.9741(2) 0.25864(15) 0.6088(2)
H19_7 H 0.968073 0.249896 0.553359
C31_7 C 0.9740(2) 0.21883(17) 0.6684(2)
H20_7 H 0.968230 0.183311 0.652910
C32_7 C 0.98476(18) 0.35511(15) 0.5666(2)
C33_7 C 0.9595(2) 0.40370(17) 0.5798(3)
H21_7 H 0.939298 0.408806 0.627838
C34_7 C 0.96387(19) 0.44433(16) 0.5234(2)
H22_7 H 0.947355 0.477058 0.534447
C3_7 C 0.98065(19) 0.84629(16) 0.9432(2)
H1_7 H 0.954819 0.844752 0.984952
C4_7 C 0.9797(2) 0.80857(17) 0.8832(3)
H2_7 H 0.954407 0.781104 0.885308
H5_7 H 0.998283 0.707727 0.827936
H6_7 H 0.998572 0.639803 0.727325
C17_6 C 0.9838(2) 0.60776(15) 0.4384(2)
H11_6 H 0.964509 0.612335 0.389413
C18_6 C 0.9861(2) 0.64891(17) 0.4954(3)
H12_6 H 0.967100 0.680366 0.484896
Co2_5 Co 0.000000 -0.000000 0.11708(13)
Co2_6 Co 0.000000 1.000000 0.11708(13)
Co1_7 Co 0.500000 -0.000000 0.86708(13)
O2_7 O 0.53491(11) 0.05137(11) 0.76417(17)
N1_4 N 0.93834(12) 0.00878(12) 0.20259(17)
C1_7 C 0.57293(14) 0.01751(14) 0.76426(19)
C2_8 C 0.61310(14) 0.01791(14) 0.69584(18)
C5_8 C 0.68943(16) 0.01654(19) 0.5677(2)
C6_8 C 0.64880(16) 0.05476(19) 0.5680(2)
H3_8 H 0.646770 0.080333 0.525953
C7_8 C 0.61100(15) 0.05431(18) 0.6323(2)
H4_8 H 0.583530 0.079617 0.631832
C8_8 C 0.73159(16) 0.0175(2) 0.5015(2)
C9_8 C 0.78387(16) 0.0060(2) 0.5229(3)
C10_8 C 0.82490(19) 0.0060(3) 0.4623(3)
C11_8 C 0.81230(16) 0.0169(2) 0.3815(3)
C12_8 C 0.75864(15) 0.0259(2) 0.3588(2)
H7_8 H 0.749896 0.031927 0.303359
C13_8 C 0.71883(17) 0.0260(2) 0.4184(2)
H8_8 H 0.683311 0.031770 0.402910
C14_8 C 0.85511(15) 0.01524(18) 0.3166(2)
C15_8 C 0.90370(17) 0.0405(2) 0.3298(3)
H9_8 H 0.908806 0.060702 0.377838
C16_8 C 0.94433(16) 0.03613(19) 0.2734(2)
H10_8 H 0.977058 0.052645 0.284447
O3_7 O 0.42427(10) 0.01839(11) 0.81972(15)
C21_8 C 0.34629(16) 0.01935(19) 0.6932(2)
H13_8 H 0.344752 0.045181 0.734952
C22_8 C 0.30857(17) 0.0203(2) 0.6332(3)
H14_8 H 0.281104 0.045593 0.635308
H17_8 H 0.207727 0.001717 0.577936
H18_8 H 0.139803 0.001428 0.477325
C35_7 C 0.10776(15) 0.0162(2) 0.1884(2)
H23_7 H 0.112335 0.035491 0.139413
C36_7 C 0.14891(17) 0.0139(2) 0.2454(3)
H24_7 H 0.180366 0.032900 0.234896
Co2_7 Co 1.000000 -0.000000 0.11708(13)
N4_4 N 0.50878(12) 0.06166(12) 0.95259(17)
Co1_8 Co 0.500000 1.000000 0.86708(13)
O1_7 O 0.57573(10) 0.98161(11) 0.81972(15)
C3_8 C 0.65371(16) 0.98065(19) 0.6932(2)
H1_8 H 0.655248 0.954819 0.734952
C4_8 C 0.69143(17) 0.9797(2) 0.6332(3)
H2_8 H 0.718896 0.954407 0.635308
H5_8 H 0.792273 0.998283 0.577936
H6_8 H 0.860197 0.998572 0.477325
C17_7 C 0.89224(15) 0.9838(2) 0.1884(2)
H11_7 H 0.887665 0.964509 0.139413
C18_7 C 0.85109(17) 0.9861(2) 0.2454(3)
H12_7 H 0.819634 0.967100 0.234896
O4_7 O 0.46509(11) 0.94863(11) 0.76417(17)
N2_4 N 0.06166(12) 0.99122(12) 0.20259(17)
C19_7 C 0.42707(14) 0.98249(14) 0.76426(19)
C20_8 C 0.38690(14) 0.98209(14) 0.69584(18)
C23_8 C 0.31057(16) 0.98346(19) 0.5677(2)
C24_8 C 0.35120(16) 0.94524(19) 0.5680(2)
H15_8 H 0.353230 0.919667 0.525953
C25_8 C 0.38900(15) 0.94569(18) 0.6323(2)
H16_8 H 0.416470 0.920383 0.631832
C26_8 C 0.26841(16) 0.9825(2) 0.5015(2)
C27_8 C 0.21613(16) 0.9940(2) 0.5229(3)
C28_8 C 0.17510(19) 0.9940(3) 0.4623(3)
C29_8 C 0.18770(16) 0.9831(2) 0.3815(3)
C30_8 C 0.24136(15) 0.9741(2) 0.3588(2)
H19_8 H 0.250104 0.968073 0.303359
C31_8 C 0.28117(17) 0.9740(2) 0.4184(2)
H20_8 H 0.316689 0.968230 0.402910
C32_8 C 0.14489(15) 0.98476(18) 0.3166(2)
C33_8 C 0.09630(17) 0.9595(2) 0.3298(3)
H21_8 H 0.091194 0.939298 0.377838
C34_8 C 0.05567(16) 0.96387(19) 0.2734(2)
H22_8 H 0.022942 0.947355 0.284447
Co2_8 Co 1.000000 1.000000 0.11708(13)
N3_4 N 0.49122(12) 0.93834(12) 0.95259(17)
C17_8 C 0.5162(2) 0.89224(15) 0.9384(2)
H11_8 H 0.535491 0.887665 0.889413
C18_8 C 0.5139(2) 0.85109(17) 0.9954(3)
H12_8 H 0.532900 0.819634 0.984896
C35_8 C 0.4838(2) 0.10776(15) 0.9384(2)
H23_8 H 0.464509 0.112335 0.889413
C36_8 C 0.4861(2) 0.14891(17) 0.9954(3)
H24_8 H 0.467100 0.180366 0.984896
O3_8 O 0.01839(11) 0.07573(10) 0.06972(15)
O2_8 O 0.05137(11) 0.96509(11) 0.01417(17)
C1_8 C 0.01751(14) 0.92707(14) 0.01426(19)
O4_8 O 0.94863(11) 0.03491(11) 0.01417(17)
C19_8 C 0.98249(14) 0.07293(14) 0.01426(19)
O1_8 O 0.98161(11) 0.92427(10) 0.06972(15)
loop_
_geom_bond_atom_site_label_1
_geom_bond_atom_site_label_2
_geom_bond_site_symmetry_1
_geom_bond_site_symmetry_2
O3 Co1 1_555 1_555
O4 Co1 1_555 1_555
N2 C34 1_555 1_555
C19 O3 1_555 1_555
C20 C19 1_555 1_555
C21 C20 1_555 1_555
H13 C21 1_555 1_555
C22 C21 1_555 1_555
H14 C22 1_555 1_555
C23 C22 1_555 1_555
C24 C23 1_555 1_555
H15 C24 1_555 1_555
C25 C20 1_555 1_555
H16 C25 1_555 1_555
C26 C23 1_555 1_555
C27 C26 1_555 1_555
H17 C27 1_555 1_555
C28 C27 1_555 1_555
H18 C28 1_555 1_555
C29 C28 1_555 1_555
C30 C29 1_555 1_555
H19 C30 1_555 1_555
C31 C26 1_555 1_555
H20 C31 1_555 1_555
C32 C29 1_555 1_555
C33 C32 1_555 1_555
H21 C33 1_555 1_555
C34 C33 1_555 1_555
H22 C34 1_555 1_555
C35 N2 1_555 1_555
H23 C35 1_555 1_555
C36 C32 1_555 1_555
H24 C36 1_555 1_555
Co3 N2 1_555 1_555
N3 Co1 1_555 1_555
O4 C19 1_555 1_555
C24 C25 1_555 1_555
C30 C31 1_555 1_555
C35 C36 1_555 1_555
Co1_2 O1 1_555 1_555
O1 C1 1_555 1_555
O2 Co1_2 1_555 1_555
N1 C16 1_555 1_555
C1 O2 1_555 1_555
C2 C1 1_555 1_555
C3 C2 1_555 1_555
H1 C3 1_555 1_555
C4 C3 1_555 1_555
H2 C4 1_555 1_555
C5 C4 1_555 1_555
C6 C5 1_555 1_555
H3 C6 1_555 1_555
C7 C2 1_555 1_555
H4 C7 1_555 1_555
C8 C5 1_555 1_555
C9 C8 1_555 1_555
H5 C9 1_555 1_555
C10 C9 1_555 1_555
H6 C10 1_555 1_555
C11 C10 1_555 1_555
C12 C11 1_555 1_555
H7 C12 1_555 1_555
C13 C8 1_555 1_555
H8 C13 1_555 1_555
C14 C11 1_555 1_555
C15 C14 1_555 1_555
H9 C15 1_555 1_555
C16 C15 1_555 1_555
H10 C16 1_555 1_555
C17 N1 1_555 1_555
H11 C17 1_555 1_555
C18 C14 1_555 1_555
H12 C18 1_555 1_555
Co3 N1 1_555 1_555
N4 Co1_2 1_555 1_555
C6 C7 1_555 1_555
C12 C13 1_555 1_555
C17 C18 1_555 1_555
Co3 O1_2 1_555 1_555
O1_2 C1_2 1_555 1_555
O2_2 Co3 1_555 1_555
C1_2 O2_2 1_555 1_555
O3_2 Co3 1_555 1_555
O4_2 Co3 1_555 1_555
C19_2 O3_2 1_555 1_555
O4_2 C19_2 1_555 1_555
H23_2 C35_2 1_555 1_555
H24_2 C36_2 1_555 1_555
C35_2 C36_2 1_555 1_555
H11_2 C17_2 1_555 1_555
H12_2 C18_2 1_555 1_555
C17_2 C18_2 1_555 1_555
H11_3 C17_3 1_555 1_555
H12_3 C18_3 1_555 1_555
N2_2 C34_2 1_555 1_555
C29_2 C28_2 1_555 1_555
C30_2 C29_2 1_555 1_555
H19_2 C30_2 1_555 1_555
H20_2 C31_2 1_555 1_555
C32_2 C29_2 1_555 1_555
C33_2 C32_2 1_555 1_555
H21_2 C33_2 1_555 1_555
C34_2 C33_2 1_555 1_555
H22_2 C34_2 1_555 1_555
Co2 N2_2 1_555 1_555
C17_3 C18_3 1_555 1_555
C30_2 C31_2 1_555 1_555
O2_3 Co2 1_555 1_555
C1_3 O2_3 1_555 1_555
C2_2 C1_3 1_555 1_555
C6_2 C5_2 1_555 1_555
H3_2 C6_2 1_555 1_555
C7_2 C2_2 1_555 1_555
H4_2 C7_2 1_555 1_555
C8_2 C5_2 1_555 1_555
C9_2 C8_2 1_555 1_555
C10_2 C9_2 1_555 1_555
C11_2 C10_2 1_555 1_555
C12_2 C11_2 1_555 1_555
H7_2 C12_2 1_555 1_555
C13_2 C8_2 1_555 1_555
H8_2 C13_2 1_555 1_555
C14_2 C11_2 1_555 1_555
C15_2 C14_2 1_555 1_555
H9_2 C15_2 1_555 1_555
C16_2 C15_2 1_555 1_555
H10_2 C16_2 1_555 1_555
C6_2 C7_2 1_555 1_555
C12_2 C13_2 1_555 1_555
Co2_2 O1_3 1_555 1_555
H1_2 C3_2 1_555 1_555
C4_2 C3_2 1_555 1_555
H2_2 C4_2 1_555 1_555
N1_2 C16_3 1_555 1_555
C11_3 C10_3 1_555 1_555
C12_3 C11_3 1_555 1_555
H7_3 C12_3 1_555 1_555
H8_3 C13_3 1_555 1_555
C14_3 C11_3 1_555 1_555
C15_3 C14_3 1_555 1_555
H9_3 C15_3 1_555 1_555
C16_3 C15_3 1_555 1_555
H10_3 C16_3 1_555 1_555
H23_3 C35_3 1_555 1_555
H24_3 C36_3 1_555 1_555
Co2_4 N1_2 1_555 1_555
C12_3 C13_3 1_555 1_555
C35_3 C36_3 1_555 1_555
O3_3 Co2_3 1_555 1_555
H13_2 C21_2 1_555 1_555
C22_2 C21_2 1_555 1_555
H14_2 C22_2 1_555 1_555
O4_3 Co2_4 1_555 1_555
C20_2 C19_3 1_555 1_555
C24_2 C23_2 1_555 1_555
H15_2 C24_2 1_555 1_555
C25_2 C20_2 1_555 1_555
H16_2 C25_2 1_555 1_555
C26_2 C23_2 1_555 1_555
C27_2 C26_2 1_555 1_555
C28_3 C27_2 1_555 1_555
C29_3 C28_3 1_555 1_555
C30_3 C29_3 1_555 1_555
H19_3 C30_3 1_555 1_555
C31_3 C26_2 1_555 1_555
H20_3 C31_3 1_555 1_555
C32_3 C29_3 1_555 1_555
C33_3 C32_3 1_555 1_555
H21_3 C33_3 1_555 1_555
C34_3 C33_3 1_555 1_555
H22_3 C34_3 1_555 1_555
O4_3 C19_3 1_555 1_555
C24_2 C25_2 1_555 1_555
C30_3 C31_3 1_555 1_555
Co1_3 O1_4 1_555 1_555
H1_3 C3_3 1_555 1_555
C4_3 C3_3 1_555 1_555
H2_3 C4_3 1_555 1_555
O4_4 Co1_3 1_555 1_555
C20_3 C19_4 1_555 1_555
C24_3 C23_3 1_555 1_555
H15_3 C24_3 1_555 1_555
C25_3 C20_3 1_555 1_555
H16_3 C25_3 1_555 1_555
C26_3 C23_3 1_555 1_555
C27_3 C26_3 1_555 1_555
N3_2 Co1_3 1_555 1_555
O4_4 C19_4 1_555 1_555
C24_3 C25_3 1_555 1_555
O2_4 Co1_4 1_555 1_555
C1_4 O2_4 1_555 1_555
C2_3 C1_4 1_555 1_555
C6_3 C5_3 1_555 1_555
H3_3 C6_3 1_555 1_555
C7_3 C2_3 1_555 1_555
H4_3 C7_3 1_555 1_555
C8_3 C5_3 1_555 1_555
C9_3 C8_3 1_555 1_555
O3_4 Co1_4 1_555 1_555
H13_3 C21_3 1_555 1_555
C22_3 C21_3 1_555 1_555
H14_3 C22_3 1_555 1_555
N4_2 Co1_4 1_555 1_555
C6_3 C7_3 1_555 1_555
N3_2 C16_4 1_555 1_555
C3_4 C2_4 1_555 1_555
H1_4 C3_4 1_555 1_555
C4_4 C3_4 1_555 1_555
H2_4 C4_4 1_555 1_555
C5_4 C4_4 1_555 1_555
C6_4 C5_4 1_555 1_555
H3_4 C6_4 1_555 1_555
C7_4 C2_4 1_555 1_555
H4_4 C7_4 1_555 1_555
C8_4 C5_4 1_555 1_555
C9_4 C8_4 1_555 1_555
H5_4 C9_4 1_555 1_555
C10_4 C9_4 1_555 1_555
H6_4 C10_4 1_555 1_555
C11_4 C10_4 1_555 1_555
C12_4 C11_4 1_555 1_555
H7_4 C12_4 1_555 1_555
C13_4 C8_4 1_555 1_555
H8_4 C13_4 1_555 1_555
C14_4 C11_4 1_555 1_555
C15_4 C14_4 1_555 1_555
H9_4 C15_4 1_555 1_555
C16_4 C15_4 1_555 1_555
H10_4 C16_4 1_555 1_555
C17_4 N3_2 1_555 1_555
H11_4 C17_4 1_555 1_555
C18_4 C14_4 1_555 1_555
H12_4 C18_4 1_555 1_555
N4_2 C34_4 1_555 1_555
C21_4 C20_4 1_555 1_555
H13_4 C21_4 1_555 1_555
C22_4 C21_4 1_555 1_555
H14_4 C22_4 1_555 1_555
C23_4 C22_4 1_555 1_555
C24_4 C23_4 1_555 1_555
H15_4 C24_4 1_555 1_555
C25_4 C20_4 1_555 1_555
H16_4 C25_4 1_555 1_555
C26_4 C23_4 1_555 1_555
C27_4 C26_4 1_555 1_555
H17_4 C27_4 1_555 1_555
C28_4 C27_4 1_555 1_555
H18_4 C28_4 1_555 1_555
C29_4 C28_4 1_555 1_555
C30_4 C29_4 1_555 1_555
H19_4 C30_4 1_555 1_555
C31_4 C26_4 1_555 1_555
H20_4 C31_4 1_555 1_555
C32_4 C29_4 1_555 1_555
C33_4 C32_4 1_555 1_555
H21_4 C33_4 1_555 1_555
C34_4 C33_4 1_555 1_555
H22_4 C34_4 1_555 1_555
C35_4 N4_2 1_555 1_555
H23_4 C35_4 1_555 1_555
C36_4 C32_4 1_555 1_555
H24_4 C36_4 1_555 1_555
C6_4 C7_4 1_555 1_555
C12_4 C13_4 1_555 1_555
C17_4 C18_4 1_555 1_555
C24_4 C25_4 1_555 1_555
C30_4 C31_4 1_555 1_555
C35_4 C36_4 1_555 1_555
O3_5 Co1_5 1_555 1_555
O4_5 Co1_5 1_555 1_555
C19_5 O3_5 1_555 1_555
C20_5 C19_5 1_555 1_555
C21_5 C20_5 1_555 1_555
H13_5 C21_5 1_555 1_555
C22_5 C21_5 1_555 1_555
H14_5 C22_5 1_555 1_555
C23_5 C22_5 1_555 1_555
C24_5 C23_5 1_555 1_555
H15_5 C24_5 1_555 1_555
C25_5 C20_5 1_555 1_555
H16_5 C25_5 1_555 1_555
C26_5 C23_5 1_555 1_555
C27_5 C26_5 1_555 1_555
H17_5 C27_5 1_555 1_555
N3_3 Co1_5 1_555 1_555
O4_5 C19_5 1_555 1_555
C24_5 C25_5 1_555 1_555
H13_6 C21_6 1_555 1_555
C22_6 C21_6 1_555 1_555
H14_6 C22_6 1_555 1_555
H23_5 C35_5 1_555 1_555
H24_5 C36_5 1_555 1_555
C35_5 C36_5 1_555 1_555
N3_3 C16_5 1_555 1_555
C6_5 C5_5 1_555 1_555
H3_5 C6_5 1_555 1_555
C7_5 C2_5 1_555 1_555
H4_5 C7_5 1_555 1_555
C8_5 C5_5 1_555 1_555
C9_5 C8_5 1_555 1_555
C10_5 C9_5 1_555 1_555
C11_5 C10_5 1_555 1_555
C12_5 C11_5 1_555 1_555
H7_5 C12_5 1_555 1_555
C13_5 C8_5 1_555 1_555
H8_5 C13_5 1_555 1_555
C14_5 C11_5 1_555 1_555
C15_5 C14_5 1_555 1_555
H9_5 C15_5 1_555 1_555
C16_5 C15_5 1_555 1_555
H10_5 C16_5 1_555 1_555
C6_5 C7_5 1_555 1_555
C12_5 C13_5 1_555 1_555
N2_3 C34_5 1_555 1_555
H18_6 C28_5 1_555 1_555
C29_5 C28_5 1_555 1_555
C30_5 C29_5 1_555 1_555
H19_5 C30_5 1_555 1_555
H20_5 C31_5 1_555 1_555
C32_5 C29_5 1_555 1_555
C33_5 C32_5 1_555 1_555
H21_5 C33_5 1_555 1_555
C34_5 C33_5 1_555 1_555
H22_5 C34_5 1_555 1_555
C35_6 N2_3 1_555 1_555
H23_6 C35_6 1_555 1_555
C36_6 C32_5 1_555 1_555
H24_6 C36_6 1_555 1_555
Co3_2 N2_3 1_555 1_555
C30_5 C31_5 1_555 1_555
C35_6 C36_6 1_555 1_555
N1_3 C16_6 1_555 1_555
H6_5 C10_6 1_555 1_555
C11_6 C10_6 1_555 1_555
C12_6 C11_6 1_555 1_555
H7_6 C12_6 1_555 1_555
H8_6 C13_6 1_555 1_555
C14_6 C11_6 1_555 1_555
C15_6 C14_6 1_555 1_555
H9_6 C15_6 1_555 1_555
C16_6 C15_6 1_555 1_555
H10_6 C16_6 1_555 1_555
C17_5 N1_3 1_555 1_555
H11_5 C17_5 1_555 1_555
C18_5 C14_6 1_555 1_555
H12_5 C18_5 1_555 1_555
Co3_2 N1_3 1_555 1_555
C12_6 C13_6 1_555 1_555
C17_5 C18_5 1_555 1_555
Co3_2 O1_5 1_555 1_555
O1_5 C1_5 1_555 1_555
O2_5 Co3_2 1_555 1_555
C1_5 O2_5 1_555 1_555
C2_6 C1_5 1_555 1_555
C3_5 C2_6 1_555 1_555
H1_5 C3_5 1_555 1_555
C4_5 C3_5 1_555 1_555
H2_5 C4_5 1_555 1_555
C5_6 C4_5 1_555 1_555
C6_6 C5_6 1_555 1_555
H3_6 C6_6 1_555 1_555
C7_6 C2_6 1_555 1_555
H4_6 C7_6 1_555 1_555
C8_6 C5_6 1_555 1_555
C9_6 C8_6 1_555 1_555
H5_5 C9_6 1_555 1_555
C10_7 C9_6 1_555 1_555
H6_6 C10_7 1_555 1_555
C11_7 C10_7 1_555 1_555
C12_7 C11_7 1_555 1_555
H7_7 C12_7 1_555 1_555
C13_7 C8_6 1_555 1_555
H8_7 C13_7 1_555 1_555
C14_7 C11_7 1_555 1_555
C15_7 C14_7 1_555 1_555
H9_7 C15_7 1_555 1_555
C16_7 C15_7 1_555 1_555
H10_7 C16_7 1_555 1_555
O3_6 Co3_2 1_555 1_555
O4_6 Co3_2 1_555 1_555
C19_6 O3_6 1_555 1_555
C20_6 C19_6 1_555 1_555
C21_7 C20_6 1_555 1_555
H13_7 C21_7 1_555 1_555
C22_7 C21_7 1_555 1_555
H14_7 C22_7 1_555 1_555
C23_6 C22_7 1_555 1_555
C24_6 C23_6 1_555 1_555
H15_6 C24_6 1_555 1_555
C25_6 C20_6 1_555 1_555
H16_6 C25_6 1_555 1_555
C26_6 C23_6 1_555 1_555
C27_6 C26_6 1_555 1_555
H17_7 C27_6 1_555 1_555
C28_6 C27_6 1_555 1_555
H18_7 C28_6 1_555 1_555
C29_6 C28_6 1_555 1_555
C30_6 C29_6 1_555 1_555
H19_6 C30_6 1_555 1_555
C31_6 C26_6 1_555 1_555
H20_6 C31_6 1_555 1_555
C32_6 C29_6 1_555 1_555
C33_6 C32_6 1_555 1_555
H21_6 C33_6 1_555 1_555
C34_6 C33_6 1_555 1_555
H22_6 C34_6 1_555 1_555
C6_6 C7_6 1_555 1_555
C12_7 C13_7 1_555 1_555
O4_6 C19_6 1_555 1_555
C24_6 C25_6 1_555 1_555
C30_6 C31_6 1_555 1_555
Co1_6 O1_6 1_555 1_555
O1_6 C1_6 1_555 1_555
O2_6 Co1_6 1_555 1_555
C1_6 O2_6 1_555 1_555
C2_7 C1_6 1_555 1_555
C3_6 C2_7 1_555 1_555
H1_6 C3_6 1_555 1_555
C4_6 C3_6 1_555 1_555
H2_6 C4_6 1_555 1_555
C5_7 C4_6 1_555 1_555
C6_7 C5_7 1_555 1_555
H3_7 C6_7 1_555 1_555
C7_7 C2_7 1_555 1_555
H4_7 C7_7 1_555 1_555
C8_7 C5_7 1_555 1_555
C9_7 C8_7 1_555 1_555
H5_6 C9_7 1_555 1_555
N4_3 Co1_6 1_555 1_555
C6_7 C7_7 1_555 1_555
N4_3 C34_7 1_555 1_555
C24_7 C23_7 1_555 1_555
H15_7 C24_7 1_555 1_555
C25_7 C20_7 1_555 1_555
H16_7 C25_7 1_555 1_555
C26_7 C23_7 1_555 1_555
C27_7 C26_7 1_555 1_555
C28_7 C27_7 1_555 1_555
C29_7 C28_7 1_555 1_555
C30_7 C29_7 1_555 1_555
H19_7 C30_7 1_555 1_555
C31_7 C26_7 1_555 1_555
H20_7 C31_7 1_555 1_555
C32_7 C29_7 1_555 1_555
C33_7 C32_7 1_555 1_555
H21_7 C33_7 1_555 1_555
C34_7 C33_7 1_555 1_555
H22_7 C34_7 1_555 1_555
C24_7 C25_7 1_555 1_555
C30_7 C31_7 1_555 1_555
H1_7 C3_7 1_555 1_555
C4_7 C3_7 1_555 1_555
H2_7 C4_7 1_555 1_555
H11_6 C17_6 1_555 1_555
H12_6 C18_6 1_555 1_555
C17_6 C18_6 1_555 1_555
O2_7 Co1_7 1_555 1_555
N1_4 C16_8 1_555 1_555
C1_7 O2_7 1_555 1_555
C2_8 C1_7 1_555 1_555
C6_8 C5_8 1_555 1_555
H3_8 C6_8 1_555 1_555
C7_8 C2_8 1_555 1_555
H4_8 C7_8 1_555 1_555
C8_8 C5_8 1_555 1_555
C9_8 C8_8 1_555 1_555
C10_8 C9_8 1_555 1_555
C11_8 C10_8 1_555 1_555
C12_8 C11_8 1_555 1_555
H7_8 C12_8 1_555 1_555
C13_8 C8_8 1_555 1_555
H8_8 C13_8 1_555 1_555
C14_8 C11_8 1_555 1_555
C15_8 C14_8 1_555 1_555
H9_8 C15_8 1_555 1_555
C16_8 C15_8 1_555 1_555
H10_8 C16_8 1_555 1_555
O3_7 Co1_7 1_555 1_555
H13_8 C21_8 1_555 1_555
C22_8 C21_8 1_555 1_555
H14_8 C22_8 1_555 1_555
H23_7 C35_7 1_555 1_555
H24_7 C36_7 1_555 1_555
Co2_7 N1_4 1_555 1_555
N4_4 Co1_7 1_555 1_555
C6_8 C7_8 1_555 1_555
C12_8 C13_8 1_555 1_555
C35_7 C36_7 1_555 1_555
Co1_8 O1_7 1_555 1_555
H1_8 C3_8 1_555 1_555
C4_8 C3_8 1_555 1_555
H2_8 C4_8 1_555 1_555
H11_7 C17_7 1_555 1_555
H12_7 C18_7 1_555 1_555
O4_7 Co1_8 1_555 1_555
N2_4 C34_8 1_555 1_555
C20_8 C19_7 1_555 1_555
C24_8 C23_8 1_555 1_555
H15_8 C24_8 1_555 1_555
C25_8 C20_8 1_555 1_555
H16_8 C25_8 1_555 1_555
C26_8 C23_8 1_555 1_555
C27_8 C26_8 1_555 1_555
C28_8 C27_8 1_555 1_555
C29_8 C28_8 1_555 1_555
C30_8 C29_8 1_555 1_555
H19_8 C30_8 1_555 1_555
C31_8 C26_8 1_555 1_555
H20_8 C31_8 1_555 1_555
C32_8 C29_8 1_555 1_555
C33_8 C32_8 1_555 1_555
H21_8 C33_8 1_555 1_555
C34_8 C33_8 1_555 1_555
H22_8 C34_8 1_555 1_555
Co2_6 N2_4 1_555 1_555
N3_4 Co1_8 1_555 1_555
C17_7 C18_7 1_555 1_555
O4_7 C19_7 1_555 1_555
C24_8 C25_8 1_555 1_555
C30_8 C31_8 1_555 1_555
C17_8 N3_4 1_555 1_555
H11_8 C17_8 1_555 1_555
H12_8 C18_8 1_555 1_555
C35_8 N4_4 1_555 1_555
H23_8 C35_8 1_555 1_555
H24_8 C36_8 1_555 1_555
C17_8 C18_8 1_555 1_555
C35_8 C36_8 1_555 1_555
O3_8 Co2_5 1_555 1_555
O2_8 Co2_6 1_555 1_555
C1_8 O2_8 1_555 1_555
O4_8 Co2_7 1_555 1_555
O4_8 C19_8 1_555 1_555
Co2_8 O1_8 1_555 1_555

#END
