
###############################################################################
#
# This file contains modified crystal structure data generated from the
# MOF subset of the Cambridge Structural Database (CSD) v543 
# hosted by the Cambridge Crystallographic Data Centre (CCDC).
#
# This work is licensed under the Creative Commons
# Attribution-NonCommercial-ShareAlike 4.0 International License.
# To view a copy of this license, visit
# http://creativecommons.org/licenses/by-nc-sa/4.0/
# or send a letter to
# Creative Commons, PO Box 1866, Mountain View, CA 94042, USA.
#
# CIF created using the CSD Python API on 29 September 2022
# The structure has been converted into the P1 space group
# The structure has a 3D framework
# The original CSD entry FIZXOE is in the tetragonal crystal system
# The framework has been calculated to contain at least 10.0% void space
# The void calculation uses a probe of radius 1.32A, grid spacing 0.4
#
###############################################################################

data_FIZXOE
_chemical_formula_moiety         '(C288 H192 N16 Ni14 O24)n'
_symmetry_cell_setting           triclinic
_symmetry_space_group_name_H-M   'P 1'
_symmetry_Int_Tables_number      1
_space_group_name_Hall           'P 1'
loop_
_symmetry_equiv_pos_site_id
_symmetry_equiv_pos_as_xyz
1 x,y,z
_cell_length_a                   24.8668(3)
_cell_length_b                   24.8668(3)
_cell_length_c                   15.9335(3)
_cell_angle_alpha                90
_cell_angle_beta                 90
_cell_angle_gamma                90
_cell_volume                     9852.6
loop_
_atom_site_label
_atom_site_type_symbol
_atom_site_fract_x
_atom_site_fract_y
_atom_site_fract_z
Ni3 Ni 0.500000 -0.000000 0.10910(16)
Ni1 Ni 0.500000 0.500000 0.85910(16)
O1 O 0.45290(12) 0.03433(11) 0.20673(17)
O2 O 0.51723(13) 0.07900(10) 0.14331(17)
N1 N 0.48976(14) 0.44067(12) 0.77121(18)
C1 C 0.48348(16) 0.07437(14) 0.2021(2)
C2 C 0.48181(17) 0.11630(15) 0.2695(2)
C3 C 0.5180(2) 0.15792(19) 0.2693(3)
H1 H 0.542961 0.160384 0.225976
C4 C 0.5184(3) 0.1965(2) 0.3325(3)
H2 H 0.543117 0.224464 0.331115
C5 C 0.4813(2) 0.19284(17) 0.3977(2)
C6 C 0.4455(2) 0.15057(17) 0.3982(3)
H3 H 0.421141 0.147516 0.442168
C7 C 0.44500(19) 0.11273(16) 0.3351(2)
H4 H 0.420087 0.084852 0.336272
C8 C 0.4812(3) 0.23490(17) 0.4642(3)
C9 C 0.4902(4) 0.2886(2) 0.4433(3)
H5 H 0.496696 0.297567 0.387514
C10 C 0.4898(4) 0.3287(2) 0.5031(4)
H6 H 0.494531 0.364329 0.487011
C11 C 0.4823(3) 0.31623(18) 0.5867(2)
C12 C 0.4746(3) 0.26254(19) 0.6089(3)
H7 H 0.469944 0.253328 0.665018
C13 C 0.4739(3) 0.22246(18) 0.5473(3)
H8 H 0.468456 0.186846 0.562887
C14 C 0.4844(2) 0.35902(16) 0.6517(2)
C15 C 0.4566(2) 0.40672(19) 0.6417(3)
H9 H 0.435491 0.412117 0.594222
C16 C 0.4601(2) 0.44628(19) 0.7021(3)
H10 H 0.441053 0.478079 0.694299
C17 C 0.5183(2) 0.39557(17) 0.7796(2)
H11 H 0.540469 0.391834 0.826240
C18 C 0.5161(3) 0.3542(2) 0.7220(3)
H12 H 0.536106 0.323122 0.730769
O3 O 0.54710(12) 0.96567(11) 0.20673(17)
O4 O 0.48277(13) 0.92100(10) 0.14331(17)
N2 N 0.51024(14) 0.55933(12) 0.77121(18)
C19 C 0.51652(16) 0.92563(14) 0.2021(2)
C20 C 0.51819(17) 0.88370(15) 0.2695(2)
C21 C 0.4820(2) 0.84208(19) 0.2693(3)
H13 H 0.457039 0.839616 0.225976
C22 C 0.4816(3) 0.8035(2) 0.3325(3)
H14 H 0.456883 0.775536 0.331115
C23 C 0.5187(2) 0.80716(17) 0.3977(2)
C24 C 0.5545(2) 0.84943(17) 0.3982(3)
H15 H 0.578859 0.852484 0.442168
C25 C 0.55500(19) 0.88727(16) 0.3351(2)
H16 H 0.579913 0.915148 0.336272
C26 C 0.5188(3) 0.76510(17) 0.4642(3)
C27 C 0.5098(4) 0.7114(2) 0.4433(3)
H17 H 0.503304 0.702433 0.387514
C28 C 0.5102(4) 0.6713(2) 0.5031(4)
H18 H 0.505469 0.635671 0.487011
C29 C 0.5177(3) 0.68377(18) 0.5867(2)
C30 C 0.5254(3) 0.73746(19) 0.6089(3)
H19 H 0.530056 0.746672 0.665018
C31 C 0.5261(3) 0.77754(18) 0.5473(3)
H20 H 0.531544 0.813154 0.562887
C32 C 0.5156(2) 0.64098(16) 0.6517(2)
C33 C 0.5434(2) 0.59328(19) 0.6417(3)
H21 H 0.564509 0.587883 0.594222
C34 C 0.5399(2) 0.55372(19) 0.7021(3)
H22 H 0.558947 0.521921 0.694299
C35 C 0.4817(2) 0.60443(17) 0.7796(2)
H23 H 0.459531 0.608166 0.826240
C36 C 0.4839(3) 0.6458(2) 0.7220(3)
H24 H 0.463894 0.676878 0.730769
Ni3_2 Ni 0.500000 1.000000 0.10910(16)
O5 O 0.53433(11) 0.54710(12) 0.95673(17)
O6 O 0.46567(11) 0.45290(12) 0.95673(17)
O7 O 0.57900(10) 0.48277(13) 0.89331(17)
O8 O 0.42100(10) 0.51723(13) 0.89331(17)
C17_2 C 0.60443(17) 0.0183(2) 0.0296(2)
H11_2 H 0.608166 0.040469 0.076240
N2_2 N 0.44067(12) 0.01024(14) 0.02121(18)
N1_2 N 0.55933(12) 0.98976(14) 0.02121(18)
C35_2 C 0.39557(17) 0.9817(2) 0.0296(2)
H23_2 H 0.391834 0.959531 0.076240
C19_2 C 0.42563(14) 0.48348(16) 0.9521(2)
H13_2 H 0.339616 0.542961 0.975976
C1_2 C 0.57437(14) 0.51652(16) 0.9521(2)
H1_2 H 0.660384 0.457039 0.975976
Ni1_2 Ni 0.000000 0.000000 0.35910(16)
N1_3 N 0.01024(14) 0.05933(12) 0.27121(18)
C10_2 C 0.0102(4) 0.1713(2) 0.0031(4)
C11_2 C 0.0177(3) 0.18377(18) 0.0867(2)
C12_2 C 0.0254(3) 0.23746(19) 0.1089(3)
H7_2 H 0.030056 0.246672 0.165018
C13_2 C 0.0261(3) 0.27754(18) 0.0473(3)
H8_2 H 0.031544 0.313154 0.062887
C14_2 C 0.0156(2) 0.14098(16) 0.1517(2)
C15_2 C 0.0434(2) 0.09328(19) 0.1417(3)
H9_2 H 0.064509 0.087883 0.094222
C16_2 C 0.0399(2) 0.05372(19) 0.2021(3)
H10_2 H 0.058947 0.021921 0.194299
O6_2 O 0.03433(11) 0.04710(12) 0.45673(17)
Ni1_3 Ni 1.000000 0.000000 0.35910(16)
C17_3 C 0.9817(2) 0.10443(17) 0.2796(2)
H11_3 H 0.959531 0.108166 0.326240
C18_2 C 0.9839(3) 0.1458(2) 0.2220(3)
H12_2 H 0.963894 0.176878 0.230769
O7_2 O 0.92100(10) 0.01723(13) 0.39331(17)
C3_2 C 0.84208(19) 0.0180(2) 0.5193(3)
H1_3 H 0.839616 0.042961 0.475976
C4_2 C 0.8035(2) 0.0184(3) 0.5825(3)
H2_2 H 0.775536 0.043117 0.581115
C18_3 C 0.6458(2) 0.0161(3) 0.9720(3)
H12_3 H 0.676878 0.036106 0.980769
C19_3 C 0.07437(14) 0.01652(16) 0.4521(2)
C20_2 C 0.11630(15) 0.01819(17) 0.5195(2)
C23_2 C 0.19284(17) 0.0187(2) 0.6477(2)
C24_2 C 0.15057(17) 0.0545(2) 0.6482(3)
H15_2 H 0.147516 0.078859 0.692168
C25_2 C 0.11273(16) 0.05500(19) 0.5851(2)
H16_2 H 0.084852 0.079913 0.586272
C26_2 C 0.23490(17) 0.0188(3) 0.7142(3)
C27_2 C 0.2886(2) 0.0098(4) 0.6933(3)
H17_2 H 0.297567 0.003304 0.637514
C28_2 C 0.3287(2) 0.0102(4) 0.7531(4)
H18_2 H 0.364329 0.005469 0.737011
C29_2 C 0.31623(18) 0.0177(3) 0.8367(2)
C30_2 C 0.26254(19) 0.0254(3) 0.8589(3)
H19_2 H 0.253328 0.030056 0.915018
C31_2 C 0.22246(18) 0.0261(3) 0.7973(3)
H20_2 H 0.186846 0.031544 0.812887
C32_2 C 0.35902(16) 0.0156(2) 0.9017(2)
C33_2 C 0.40672(19) 0.0434(2) 0.8917(3)
H21_2 H 0.412117 0.064509 0.844222
C34_2 C 0.44628(19) 0.0399(2) 0.9521(3)
H22_2 H 0.478079 0.058947 0.944299
O1_2 O 0.04710(12) 0.46567(11) 0.70673(17)
C1_3 C 0.01652(16) 0.42563(14) 0.7021(2)
C2_2 C 0.01819(17) 0.38370(15) 0.7695(2)
C5_2 C 0.0187(2) 0.30716(17) 0.8977(2)
C6_2 C 0.0545(2) 0.34943(17) 0.8982(3)
H3_2 H 0.078859 0.352484 0.942168
C7_2 C 0.05500(19) 0.38727(16) 0.8351(2)
H4_2 H 0.079913 0.415148 0.836272
C8_2 C 0.0188(3) 0.26510(17) 0.9642(3)
C9_2 C 0.0098(4) 0.2114(2) 0.9433(3)
H5_2 H 0.003304 0.202433 0.887514
H6_2 H 0.005469 0.135671 0.987011
Ni2 Ni 0.000000 0.500000 0.60910(16)
O4_2 O 0.01723(13) 0.57900(10) 0.64331(17)
C21_2 C 0.0180(2) 0.65792(19) 0.7693(3)
H13_3 H 0.042961 0.660384 0.725976
C22_2 C 0.0184(3) 0.6965(2) 0.8325(3)
H14_2 H 0.043117 0.724464 0.831115
N2_3 N 0.05933(12) 0.48976(14) 0.52121(18)
C20_3 C 0.38370(15) 0.48181(17) 0.0195(2)
C21_3 C 0.34208(19) 0.5180(2) 0.0193(3)
C22_3 C 0.3035(2) 0.5184(3) 0.0825(3)
H14_3 H 0.275536 0.543117 0.081115
C23_3 C 0.30716(17) 0.4813(2) 0.1477(2)
C24_3 C 0.34943(17) 0.4455(2) 0.1482(3)
H15_3 H 0.352484 0.421141 0.192168
C25_3 C 0.38727(16) 0.44500(19) 0.0851(2)
H16_3 H 0.415148 0.420087 0.086272
C26_3 C 0.26510(17) 0.4812(3) 0.2142(3)
C27_3 C 0.2114(2) 0.4902(4) 0.1933(3)
H17_3 H 0.202433 0.496696 0.137514
C28_3 C 0.1713(2) 0.4898(4) 0.2531(4)
H18_3 H 0.135671 0.494531 0.237011
C29_3 C 0.18377(18) 0.4823(3) 0.3367(2)
C30_3 C 0.23746(19) 0.4746(3) 0.3589(3)
H19_3 H 0.246672 0.469944 0.415018
C31_3 C 0.27754(18) 0.4739(3) 0.2973(3)
H20_3 H 0.313154 0.468456 0.312887
C32_3 C 0.14098(16) 0.4844(2) 0.4017(2)
C33_3 C 0.09328(19) 0.4566(2) 0.3917(3)
H21_3 H 0.087883 0.435491 0.344222
C34_3 C 0.05372(19) 0.4601(2) 0.4521(3)
H22_3 H 0.021921 0.441053 0.444299
C35_3 C 0.10443(17) 0.5183(2) 0.5296(2)
H23_3 H 0.108166 0.540469 0.576240
C36_2 C 0.1458(2) 0.5161(3) 0.4720(3)
H24_2 H 0.176878 0.536106 0.480769
Ni1_4 Ni 0.000000 1.000000 0.35910(16)
C35_4 C 0.0183(2) 0.89557(17) 0.2796(2)
H23_4 H 0.040469 0.891834 0.326240
C36_3 C 0.0161(3) 0.8542(2) 0.2220(3)
H24_3 H 0.036106 0.823122 0.230769
O8_2 O 0.07900(10) 0.98277(13) 0.39331(17)
Ni1_5 Ni 1.000000 1.000000 0.35910(16)
N2_4 N 0.98976(14) 0.94067(12) 0.27121(18)
C28_4 C 0.9898(4) 0.8287(2) 0.0031(4)
C29_4 C 0.9823(3) 0.81623(18) 0.0867(2)
C30_4 C 0.9746(3) 0.76254(19) 0.1089(3)
H19_4 H 0.969944 0.753328 0.165018
C31_4 C 0.9739(3) 0.72246(18) 0.0473(3)
H20_4 H 0.968456 0.686846 0.062887
C32_4 C 0.9844(2) 0.85902(16) 0.1517(2)
C33_4 C 0.9566(2) 0.90672(19) 0.1417(3)
H21_4 H 0.935491 0.912117 0.094222
C34_4 C 0.9601(2) 0.94628(19) 0.2021(3)
H22_4 H 0.941053 0.978079 0.194299
O5_2 O 0.96567(11) 0.95290(12) 0.45673(17)
C1_4 C 0.92563(14) 0.98348(16) 0.4521(2)
C2_3 C 0.88370(15) 0.98181(17) 0.5195(2)
C5_3 C 0.80716(17) 0.9813(2) 0.6477(2)
C6_3 C 0.84943(17) 0.9455(2) 0.6482(3)
H3_3 H 0.852484 0.921141 0.692168
C7_3 C 0.88727(16) 0.94500(19) 0.5851(2)
H4_3 H 0.915148 0.920087 0.586272
C8_3 C 0.76510(17) 0.9812(3) 0.7142(3)
C9_3 C 0.7114(2) 0.9902(4) 0.6933(3)
H5_3 H 0.702433 0.996696 0.637514
C10_3 C 0.6713(2) 0.9898(4) 0.7531(4)
H6_3 H 0.635671 0.994531 0.737011
C11_3 C 0.68377(18) 0.9823(3) 0.8367(2)
C12_3 C 0.73746(19) 0.9746(3) 0.8589(3)
H7_3 H 0.746672 0.969944 0.915018
C13_3 C 0.77754(18) 0.9739(3) 0.7973(3)
H8_3 H 0.813154 0.968456 0.812887
C14_3 C 0.64098(16) 0.9844(2) 0.9017(2)
C15_3 C 0.59328(19) 0.9566(2) 0.8917(3)
H9_3 H 0.587883 0.935491 0.844222
C16_3 C 0.55372(19) 0.9601(2) 0.9521(3)
H10_3 H 0.521921 0.941053 0.944299
C21_4 C 0.15792(19) 0.9820(2) 0.5193(3)
H13_4 H 0.160384 0.957039 0.475976
C22_4 C 0.1965(2) 0.9816(3) 0.5825(3)
H14_4 H 0.224464 0.956883 0.581115
C36_4 C 0.3542(2) 0.9839(3) 0.9720(3)
H24_4 H 0.323122 0.963894 0.980769
O2_2 O 0.98277(13) 0.42100(10) 0.64331(17)
C3_3 C 0.9820(2) 0.34208(19) 0.7693(3)
H1_4 H 0.957039 0.339616 0.725976
C4_3 C 0.9816(3) 0.3035(2) 0.8325(3)
H2_3 H 0.956883 0.275536 0.831115
Ni2_2 Ni 1.000000 0.500000 0.60910(16)
O3_2 O 0.95290(12) 0.53433(11) 0.70673(17)
C19_4 C 0.98348(16) 0.57437(14) 0.7021(2)
C20_4 C 0.98181(17) 0.61630(15) 0.7695(2)
C23_4 C 0.9813(2) 0.69284(17) 0.8977(2)
C24_4 C 0.9455(2) 0.65057(17) 0.8982(3)
H15_4 H 0.921141 0.647516 0.942168
C25_4 C 0.94500(19) 0.61273(16) 0.8351(2)
H16_4 H 0.920087 0.584852 0.836272
C26_4 C 0.9812(3) 0.73490(17) 0.9642(3)
C27_4 C 0.9902(4) 0.7886(2) 0.9433(3)
H17_4 H 0.996696 0.797567 0.887514
H18_4 H 0.994531 0.864329 0.987011
N1_4 N 0.94067(12) 0.51024(14) 0.52121(18)
C2_4 C 0.61630(15) 0.51819(17) 0.0195(2)
C3_4 C 0.65792(19) 0.4820(2) 0.0193(3)
C4_4 C 0.6965(2) 0.4816(3) 0.0825(3)
H2_4 H 0.724464 0.456883 0.081115
C5_4 C 0.69284(17) 0.5187(2) 0.1477(2)
C6_4 C 0.65057(17) 0.5545(2) 0.1482(3)
H3_4 H 0.647516 0.578859 0.192168
C7_4 C 0.61273(16) 0.55500(19) 0.0851(2)
H4_4 H 0.584852 0.579913 0.086272
C8_4 C 0.73490(17) 0.5188(3) 0.2142(3)
C9_4 C 0.7886(2) 0.5098(4) 0.1933(3)
H5_4 H 0.797567 0.503304 0.137514
C10_4 C 0.8287(2) 0.5102(4) 0.2531(4)
H6_4 H 0.864329 0.505469 0.237011
C11_4 C 0.81623(18) 0.5177(3) 0.3367(2)
C12_4 C 0.76254(19) 0.5254(3) 0.3589(3)
H7_4 H 0.753328 0.530056 0.415018
C13_4 C 0.72246(18) 0.5261(3) 0.2973(3)
H8_4 H 0.686846 0.531544 0.312887
C14_4 C 0.85902(16) 0.5156(2) 0.4017(2)
C15_4 C 0.90672(19) 0.5434(2) 0.3917(3)
H9_4 H 0.912117 0.564509 0.344222
C16_4 C 0.94628(19) 0.5399(2) 0.4521(3)
H10_4 H 0.978079 0.558947 0.444299
C17_4 C 0.89557(17) 0.4817(2) 0.5296(2)
H11_4 H 0.891834 0.459531 0.576240
C18_4 C 0.8542(2) 0.4839(3) 0.4720(3)
H12_4 H 0.823122 0.463894 0.480769
Ni2_3 Ni 0.500000 0.000000 0.60910(16)
O1_3 O 0.45290(12) 0.96567(11) 0.70673(17)
O2_3 O 0.51723(13) 0.92100(10) 0.64331(17)
C1_5 C 0.48348(16) 0.92563(14) 0.7021(2)
C2_5 C 0.48181(17) 0.88370(15) 0.7695(2)
C3_5 C 0.5180(2) 0.84208(19) 0.7693(3)
H1_5 H 0.542961 0.839616 0.725976
C4_5 C 0.5184(3) 0.8035(2) 0.8325(3)
H2_5 H 0.543117 0.775536 0.831115
C5_5 C 0.4813(2) 0.80716(17) 0.8977(2)
C6_5 C 0.4455(2) 0.84943(17) 0.8982(3)
H3_5 H 0.421141 0.852484 0.942168
C7_5 C 0.44500(19) 0.88727(16) 0.8351(2)
H4_5 H 0.420087 0.915148 0.836272
C8_5 C 0.4812(3) 0.76510(17) 0.9642(3)
C9_5 C 0.4902(4) 0.7114(2) 0.9433(3)
H5_5 H 0.496696 0.702433 0.887514
H6_5 H 0.494531 0.635671 0.987011
O3_3 O 0.54710(12) 0.03433(11) 0.70673(17)
O4_3 O 0.48277(13) 0.07900(10) 0.64331(17)
C19_5 C 0.51652(16) 0.07437(14) 0.7021(2)
C20_5 C 0.51819(17) 0.11630(15) 0.7695(2)
C21_5 C 0.4820(2) 0.15792(19) 0.7693(3)
H13_5 H 0.457039 0.160384 0.725976
C22_5 C 0.4816(3) 0.1965(2) 0.8325(3)
H14_5 H 0.456883 0.224464 0.831115
C23_5 C 0.5187(2) 0.19284(17) 0.8977(2)
C24_5 C 0.5545(2) 0.15057(17) 0.8982(3)
H15_5 H 0.578859 0.147516 0.942168
C25_5 C 0.55500(19) 0.11273(16) 0.8351(2)
H16_5 H 0.579913 0.084852 0.836272
C26_5 C 0.5188(3) 0.23490(17) 0.9642(3)
C27_5 C 0.5098(4) 0.2886(2) 0.9433(3)
H17_5 H 0.503304 0.297567 0.887514
H18_5 H 0.505469 0.364329 0.987011
Ni2_4 Ni 0.500000 1.000000 0.60910(16)
N1_5 N 0.55933(12) 0.01024(14) 0.52121(18)
C2_6 C 0.88370(15) 0.01819(17) 0.0195(2)
C5_6 C 0.80716(17) 0.0187(2) 0.1477(2)
C6_6 C 0.84943(17) 0.0545(2) 0.1482(3)
H3_6 H 0.852484 0.078859 0.192168
C7_6 C 0.88727(16) 0.05500(19) 0.0851(2)
H4_6 H 0.915148 0.079913 0.086272
C8_6 C 0.76510(17) 0.0188(3) 0.2142(3)
C9_6 C 0.7114(2) 0.0098(4) 0.1933(3)
H5_6 H 0.702433 0.003304 0.137514
C10_5 C 0.6713(2) 0.0102(4) 0.2531(4)
H6_6 H 0.635671 0.005469 0.237011
C11_5 C 0.68377(18) 0.0177(3) 0.3367(2)
C12_5 C 0.73746(19) 0.0254(3) 0.3589(3)
H7_5 H 0.746672 0.030056 0.415018
C13_5 C 0.77754(18) 0.0261(3) 0.2973(3)
H8_5 H 0.813154 0.031544 0.312887
C14_5 C 0.64098(16) 0.0156(2) 0.4017(2)
C15_5 C 0.59328(19) 0.0434(2) 0.3917(3)
H9_5 H 0.587883 0.064509 0.344222
C16_5 C 0.55372(19) 0.0399(2) 0.4521(3)
H10_5 H 0.521921 0.058947 0.444299
C21_6 C 0.15792(19) 0.0180(2) 0.0193(3)
C22_6 C 0.1965(2) 0.0184(3) 0.0825(3)
H14_6 H 0.224464 0.043117 0.081115
C35_5 C 0.39557(17) 0.0183(2) 0.5296(2)
H23_5 H 0.391834 0.040469 0.576240
C36_5 C 0.3542(2) 0.0161(3) 0.4720(3)
H24_5 H 0.323122 0.036106 0.480769
C3_6 C 0.84208(19) 0.9820(2) 0.0193(3)
C4_6 C 0.8035(2) 0.9816(3) 0.0825(3)
H2_6 H 0.775536 0.956883 0.081115
C17_5 C 0.60443(17) 0.9817(2) 0.5296(2)
H11_5 H 0.608166 0.959531 0.576240
C18_5 C 0.6458(2) 0.9839(3) 0.4720(3)
H12_5 H 0.676878 0.963894 0.480769
N2_5 N 0.44067(12) 0.98976(14) 0.52121(18)
C20_6 C 0.11630(15) 0.98181(17) 0.0195(2)
C23_6 C 0.19284(17) 0.9813(2) 0.1477(2)
C24_6 C 0.15057(17) 0.9455(2) 0.1482(3)
H15_6 H 0.147516 0.921141 0.192168
C25_6 C 0.11273(16) 0.94500(19) 0.0851(2)
H16_6 H 0.084852 0.920087 0.086272
C26_6 C 0.23490(17) 0.9812(3) 0.2142(3)
C27_6 C 0.2886(2) 0.9902(4) 0.1933(3)
H17_6 H 0.297567 0.996696 0.137514
C28_5 C 0.3287(2) 0.9898(4) 0.2531(4)
H18_6 H 0.364329 0.994531 0.237011
C29_5 C 0.31623(18) 0.9823(3) 0.3367(2)
C30_5 C 0.26254(19) 0.9746(3) 0.3589(3)
H19_5 H 0.253328 0.969944 0.415018
C31_5 C 0.22246(18) 0.9739(3) 0.2973(3)
H20_5 H 0.186846 0.968456 0.312887
C32_5 C 0.35902(16) 0.9844(2) 0.4017(2)
C33_5 C 0.40672(19) 0.9566(2) 0.3917(3)
H21_5 H 0.412117 0.935491 0.344222
C34_5 C 0.44628(19) 0.9601(2) 0.4521(3)
H22_5 H 0.478079 0.941053 0.444299
Ni1_6 Ni 0.500000 0.500000 0.35910(16)
N1_6 N 0.48976(14) 0.55933(12) 0.27121(18)
C10_6 C 0.4898(4) 0.6713(2) 0.0031(4)
C11_6 C 0.4823(3) 0.68377(18) 0.0867(2)
C12_6 C 0.4746(3) 0.73746(19) 0.1089(3)
H7_6 H 0.469944 0.746672 0.165018
C13_6 C 0.4739(3) 0.77754(18) 0.0473(3)
H8_6 H 0.468456 0.813154 0.062887
C14_6 C 0.4844(2) 0.64098(16) 0.1517(2)
C15_6 C 0.4566(2) 0.59328(19) 0.1417(3)
H9_6 H 0.435491 0.587883 0.094222
C16_6 C 0.4601(2) 0.55372(19) 0.2021(3)
H10_6 H 0.441053 0.521921 0.194299
C17_6 C 0.5183(2) 0.60443(17) 0.2796(2)
H11_6 H 0.540469 0.608166 0.326240
C18_6 C 0.5161(3) 0.6458(2) 0.2220(3)
H12_6 H 0.536106 0.676878 0.230769
N2_6 N 0.51024(14) 0.44067(12) 0.27121(18)
C28_6 C 0.5102(4) 0.3287(2) 0.0031(4)
C29_6 C 0.5177(3) 0.31623(18) 0.0867(2)
C30_6 C 0.5254(3) 0.26254(19) 0.1089(3)
H19_6 H 0.530056 0.253328 0.165018
C31_6 C 0.5261(3) 0.22246(18) 0.0473(3)
H20_6 H 0.531544 0.186846 0.062887
C32_6 C 0.5156(2) 0.35902(16) 0.1517(2)
C33_6 C 0.5434(2) 0.40672(19) 0.1417(3)
H21_6 H 0.564509 0.412117 0.094222
C34_6 C 0.5399(2) 0.44628(19) 0.2021(3)
H22_6 H 0.558947 0.478079 0.194299
C35_6 C 0.4817(2) 0.39557(17) 0.2796(2)
H23_6 H 0.459531 0.391834 0.326240
C36_6 C 0.4839(3) 0.3542(2) 0.2220(3)
H24_6 H 0.463894 0.323122 0.230769
O5_3 O 0.53433(11) 0.45290(12) 0.45673(17)
O6_3 O 0.46567(11) 0.54710(12) 0.45673(17)
O7_3 O 0.57900(10) 0.51723(13) 0.39331(17)
O8_3 O 0.42100(10) 0.48277(13) 0.39331(17)
C19_6 C 0.42563(14) 0.51652(16) 0.4521(2)
C20_7 C 0.38370(15) 0.51819(17) 0.5195(2)
C21_7 C 0.34208(19) 0.4820(2) 0.5193(3)
H13_6 H 0.339616 0.457039 0.475976
C22_7 C 0.3035(2) 0.4816(3) 0.5825(3)
H14_7 H 0.275536 0.456883 0.581115
C23_7 C 0.30716(17) 0.5187(2) 0.6477(2)
C24_7 C 0.34943(17) 0.5545(2) 0.6482(3)
H15_7 H 0.352484 0.578859 0.692168
C25_7 C 0.38727(16) 0.55500(19) 0.5851(2)
H16_7 H 0.415148 0.579913 0.586272
C26_7 C 0.26510(17) 0.5188(3) 0.7142(3)
C27_7 C 0.2114(2) 0.5098(4) 0.6933(3)
H17_7 H 0.202433 0.503304 0.637514
C28_7 C 0.1713(2) 0.5102(4) 0.7531(4)
H18_7 H 0.135671 0.505469 0.737011
C29_7 C 0.18377(18) 0.5177(3) 0.8367(2)
C30_7 C 0.23746(19) 0.5254(3) 0.8589(3)
H19_7 H 0.246672 0.530056 0.915018
C31_7 C 0.27754(18) 0.5261(3) 0.7973(3)
H20_7 H 0.313154 0.531544 0.812887
C32_7 C 0.14098(16) 0.5156(2) 0.9017(2)
C33_7 C 0.09328(19) 0.5434(2) 0.8917(3)
H21_7 H 0.087883 0.564509 0.844222
C34_7 C 0.05372(19) 0.5399(2) 0.9521(3)
H22_7 H 0.021921 0.558947 0.944299
C36_7 C 0.1458(2) 0.4839(3) 0.9720(3)
H24_7 H 0.176878 0.463894 0.980769
C1_6 C 0.57437(14) 0.48348(16) 0.4521(2)
C2_7 C 0.61630(15) 0.48181(17) 0.5195(2)
C3_7 C 0.65792(19) 0.5180(2) 0.5193(3)
H1_6 H 0.660384 0.542961 0.475976
C4_7 C 0.6965(2) 0.5184(3) 0.5825(3)
H2_7 H 0.724464 0.543117 0.581115
C5_7 C 0.69284(17) 0.4813(2) 0.6477(2)
C6_7 C 0.65057(17) 0.4455(2) 0.6482(3)
H3_7 H 0.647516 0.421141 0.692168
C7_7 C 0.61273(16) 0.44500(19) 0.5851(2)
H4_7 H 0.584852 0.420087 0.586272
C8_7 C 0.73490(17) 0.4812(3) 0.7142(3)
C9_7 C 0.7886(2) 0.4902(4) 0.6933(3)
H5_7 H 0.797567 0.496696 0.637514
C10_7 C 0.8287(2) 0.4898(4) 0.7531(4)
H6_7 H 0.864329 0.494531 0.737011
C11_7 C 0.81623(18) 0.4823(3) 0.8367(2)
C12_7 C 0.76254(19) 0.4746(3) 0.8589(3)
H7_7 H 0.753328 0.469944 0.915018
C13_7 C 0.72246(18) 0.4739(3) 0.7973(3)
H8_7 H 0.686846 0.468456 0.812887
C14_7 C 0.85902(16) 0.4844(2) 0.9017(2)
C15_7 C 0.90672(19) 0.4566(2) 0.8917(3)
H9_7 H 0.912117 0.435491 0.844222
C16_7 C 0.94628(19) 0.4601(2) 0.9521(3)
H10_7 H 0.978079 0.441053 0.944299
C18_7 C 0.8542(2) 0.5161(3) 0.9720(3)
H12_7 H 0.823122 0.536106 0.980769
Ni1_7 Ni 0.000000 -0.000000 0.85910(16)
O4_4 O 0.01723(13) 0.42100(10) 0.14331(17)
C21_8 C 0.0180(2) 0.34208(19) 0.2693(3)
H13_7 H 0.042961 0.339616 0.225976
C22_8 C 0.0184(3) 0.3035(2) 0.3325(3)
H14_8 H 0.043117 0.275536 0.331115
C35_7 C 0.0183(2) 0.10443(17) 0.7796(2)
H23_7 H 0.040469 0.108166 0.826240
C36_8 C 0.0161(3) 0.1458(2) 0.7220(3)
H24_8 H 0.036106 0.176878 0.730769
Ni3_3 Ni 0.000000 0.500000 0.10910(16)
O8_4 O 0.07900(10) 0.01723(13) 0.89331(17)
Ni1_8 Ni 0.000000 1.000000 0.85910(16)
O1_4 O 0.04710(12) 0.53433(11) 0.20673(17)
N1_7 N 0.01024(14) 0.94067(12) 0.77121(18)
C1_7 C 0.01652(16) 0.57437(14) 0.2021(2)
C2_8 C 0.01819(17) 0.61630(15) 0.2695(2)
C5_8 C 0.0187(2) 0.69284(17) 0.3977(2)
C6_8 C 0.0545(2) 0.65057(17) 0.3982(3)
H3_8 H 0.078859 0.647516 0.442168
C7_8 C 0.05500(19) 0.61273(16) 0.3351(2)
H4_8 H 0.079913 0.584852 0.336272
C8_8 C 0.0188(3) 0.73490(17) 0.4642(3)
C9_8 C 0.0098(4) 0.7886(2) 0.4433(3)
H5_8 H 0.003304 0.797567 0.387514
C10_8 C 0.0102(4) 0.8287(2) 0.5031(4)
H6_8 H 0.005469 0.864329 0.487011
C11_8 C 0.0177(3) 0.81623(18) 0.5867(2)
C12_8 C 0.0254(3) 0.76254(19) 0.6089(3)
H7_8 H 0.030056 0.753328 0.665018
C13_8 C 0.0261(3) 0.72246(18) 0.5473(3)
H8_8 H 0.031544 0.686846 0.562887
C14_8 C 0.0156(2) 0.85902(16) 0.6517(2)
C15_8 C 0.0434(2) 0.90672(19) 0.6417(3)
H9_8 H 0.064509 0.912117 0.594222
C16_8 C 0.0399(2) 0.94628(19) 0.7021(3)
H10_8 H 0.058947 0.978079 0.694299
O6_4 O 0.03433(11) 0.95290(12) 0.95673(17)
Ni1_9 Ni 1.000000 -0.000000 0.85910(16)
O3_4 O 0.95290(12) 0.46567(11) 0.20673(17)
N2_7 N 0.98976(14) 0.05933(12) 0.77121(18)
C19_7 C 0.98348(16) 0.42563(14) 0.2021(2)
C20_8 C 0.98181(17) 0.38370(15) 0.2695(2)
C23_8 C 0.9813(2) 0.30716(17) 0.3977(2)
C24_8 C 0.9455(2) 0.34943(17) 0.3982(3)
H15_8 H 0.921141 0.352484 0.442168
C25_8 C 0.94500(19) 0.38727(16) 0.3351(2)
H16_8 H 0.920087 0.415148 0.336272
C26_8 C 0.9812(3) 0.26510(17) 0.4642(3)
C27_8 C 0.9902(4) 0.2114(2) 0.4433(3)
H17_8 H 0.996696 0.202433 0.387514
C28_8 C 0.9898(4) 0.1713(2) 0.5031(4)
H18_8 H 0.994531 0.135671 0.487011
C29_8 C 0.9823(3) 0.18377(18) 0.5867(2)
C30_8 C 0.9746(3) 0.23746(19) 0.6089(3)
H19_8 H 0.969944 0.246672 0.665018
C31_8 C 0.9739(3) 0.27754(18) 0.5473(3)
H20_8 H 0.968456 0.313154 0.562887
C32_8 C 0.9844(2) 0.14098(16) 0.6517(2)
C33_8 C 0.9566(2) 0.09328(19) 0.6417(3)
H21_8 H 0.935491 0.087883 0.594222
C34_8 C 0.9601(2) 0.05372(19) 0.7021(3)
H22_8 H 0.941053 0.021921 0.694299
Ni3_4 Ni 1.000000 0.500000 0.10910(16)
O5_4 O 0.96567(11) 0.04710(12) 0.95673(17)
Ni1_10 Ni 1.000000 1.000000 0.85910(16)
O2_4 O 0.98277(13) 0.57900(10) 0.14331(17)
C3_8 C 0.9820(2) 0.65792(19) 0.2693(3)
H1_7 H 0.957039 0.660384 0.225976
C4_8 C 0.9816(3) 0.6965(2) 0.3325(3)
H2_8 H 0.956883 0.724464 0.331115
C17_7 C 0.9817(2) 0.89557(17) 0.7796(2)
H11_7 H 0.959531 0.891834 0.826240
C18_8 C 0.9839(3) 0.8542(2) 0.7220(3)
H12_8 H 0.963894 0.823122 0.730769
O7_4 O 0.92100(10) 0.98277(13) 0.89331(17)
C1_8 C 0.92563(14) 0.01652(16) 0.9521(2)
H13_8 H 0.160384 0.042961 0.975976
H1_8 H 0.839616 0.957039 0.975976
C19_8 C 0.07437(14) 0.98348(16) 0.9521(2)
N2_8 N 0.05933(12) 0.51024(14) 0.02121(18)
C35_8 C 0.10443(17) 0.4817(2) 0.0296(2)
H23_8 H 0.108166 0.459531 0.076240
N1_8 N 0.94067(12) 0.48976(14) 0.02121(18)
C17_8 C 0.89557(17) 0.5183(2) 0.0296(2)
H11_8 H 0.891834 0.540469 0.076240
loop_
_geom_bond_atom_site_label_1
_geom_bond_atom_site_label_2
_geom_bond_site_symmetry_1
_geom_bond_site_symmetry_2
Ni1 N1 1_555 1_555
O1 C1 1_555 1_555
O2 C1 1_555 1_555
N1 C16 1_555 1_555
C1 C2 1_555 1_555
C2 C3 1_555 1_555
C3 H1 1_555 1_555
C4 C3 1_555 1_555
H2 C4 1_555 1_555
C5 C4 1_555 1_555
C6 C5 1_555 1_555
H3 C6 1_555 1_555
C7 C2 1_555 1_555
H4 C7 1_555 1_555
C8 C5 1_555 1_555
C9 C8 1_555 1_555
H5 C9 1_555 1_555
C10 C9 1_555 1_555
H6 C10 1_555 1_555
C11 C10 1_555 1_555
C12 C11 1_555 1_555
H7 C12 1_555 1_555
C13 C8 1_555 1_555
H8 C13 1_555 1_555
C14 C11 1_555 1_555
C15 C14 1_555 1_555
H9 C15 1_555 1_555
C16 C15 1_555 1_555
H10 C16 1_555 1_555
C17 N1 1_555 1_555
H11 C17 1_555 1_555
C18 C14 1_555 1_555
H12 C18 1_555 1_555
O3 C19 1_555 1_555
O4 C19 1_555 1_555
N2 Ni1 1_555 1_555
C19 C20 1_555 1_555
C20 C21 1_555 1_555
C21 H13 1_555 1_555
C22 C21 1_555 1_555
H14 C22 1_555 1_555
C23 C22 1_555 1_555
C24 C23 1_555 1_555
H15 C24 1_555 1_555
C25 C20 1_555 1_555
H16 C25 1_555 1_555
C26 C23 1_555 1_555
C27 C26 1_555 1_555
H17 C27 1_555 1_555
C28 C27 1_555 1_555
H18 C28 1_555 1_555
C29 C28 1_555 1_555
C30 C29 1_555 1_555
H19 C30 1_555 1_555
C31 C26 1_555 1_555
H20 C31 1_555 1_555
C32 C29 1_555 1_555
C33 C32 1_555 1_555
H21 C33 1_555 1_555
C34 N2 1_555 1_555
H22 C34 1_555 1_555
C35 N2 1_555 1_555
H23 C35 1_555 1_555
C36 C32 1_555 1_555
H24 C36 1_555 1_555
Ni3 O1 1_555 1_555
Ni3_2 O3 1_555 1_555
O5 Ni1 1_555 1_555
O6 Ni1 1_555 1_555
O7 Ni1 1_555 1_555
O8 Ni1 1_555 1_555
O2 Ni3 1_555 1_555
C6 C7 1_555 1_555
C12 C13 1_555 1_555
C17 C18 1_555 1_555
O4 Ni3_2 1_555 1_555
C24 C25 1_555 1_555
C30 C31 1_555 1_555
C33 C34 1_555 1_555
C35 C36 1_555 1_555
H11_2 C17_2 1_555 1_555
N2_2 Ni3 1_555 1_555
Ni3_2 N1_2 1_555 1_555
H23_2 C35_2 1_555 1_555
O6 C19_2 1_555 1_555
O8 C19_2 1_555 1_555
O5 C1_2 1_555 1_555
O7 C1_2 1_555 1_555
Ni1_2 N1_3 1_555 1_555
N1_3 C16_2 1_555 1_555
C11_2 C10_2 1_555 1_555
C12_2 C11_2 1_555 1_555
H7_2 C12_2 1_555 1_555
H8_2 C13_2 1_555 1_555
C14_2 C11_2 1_555 1_555
C15_2 C14_2 1_555 1_555
H9_2 C15_2 1_555 1_555
C16_2 C15_2 1_555 1_555
H10_2 C16_2 1_555 1_555
O6_2 Ni1_2 1_555 1_555
C12_2 C13_2 1_555 1_555
H11_3 C17_3 1_555 1_555
H12_2 C18_2 1_555 1_555
O7_2 Ni1_3 1_555 1_555
C17_3 C18_2 1_555 1_555
C3_2 H1_3 1_555 1_555
C4_2 C3_2 1_555 1_555
H2_2 C4_2 1_555 1_555
H12_3 C18_3 1_555 1_555
O6_2 C19_3 1_555 1_555
C19_3 C20_2 1_555 1_555
C24_2 C23_2 1_555 1_555
H15_2 C24_2 1_555 1_555
C25_2 C20_2 1_555 1_555
H16_2 C25_2 1_555 1_555
C26_2 C23_2 1_555 1_555
C27_2 C26_2 1_555 1_555
H17_2 C27_2 1_555 1_555
C28_2 C27_2 1_555 1_555
H18_2 C28_2 1_555 1_555
C29_2 C28_2 1_555 1_555
C30_2 C29_2 1_555 1_555
H19_2 C30_2 1_555 1_555
C31_2 C26_2 1_555 1_555
H20_2 C31_2 1_555 1_555
C32_2 C29_2 1_555 1_555
C33_2 C32_2 1_555 1_555
H21_2 C33_2 1_555 1_555
H22_2 C34_2 1_555 1_555
C24_2 C25_2 1_555 1_555
C30_2 C31_2 1_555 1_555
C33_2 C34_2 1_555 1_555
O1_2 C1_3 1_555 1_555
C1_3 C2_2 1_555 1_555
C6_2 C5_2 1_555 1_555
H3_2 C6_2 1_555 1_555
C7_2 C2_2 1_555 1_555
H4_2 C7_2 1_555 1_555
C8_2 C5_2 1_555 1_555
C9_2 C8_2 1_555 1_555
H5_2 C9_2 1_555 1_555
Ni2 O1_2 1_555 1_555
C6_2 C7_2 1_555 1_555
C21_2 H13_3 1_555 1_555
C22_2 C21_2 1_555 1_555
H14_2 C22_2 1_555 1_555
O4_2 Ni2 1_555 1_555
N2_3 Ni2 1_555 1_555
C20_3 C21_3 1_555 1_555
C22_3 C21_3 1_555 1_555
H14_3 C22_3 1_555 1_555
C23_3 C22_3 1_555 1_555
C24_3 C23_3 1_555 1_555
H15_3 C24_3 1_555 1_555
C25_3 C20_3 1_555 1_555
H16_3 C25_3 1_555 1_555
C26_3 C23_3 1_555 1_555
C27_3 C26_3 1_555 1_555
H17_3 C27_3 1_555 1_555
C28_3 C27_3 1_555 1_555
H18_3 C28_3 1_555 1_555
C29_3 C28_3 1_555 1_555
C30_3 C29_3 1_555 1_555
H19_3 C30_3 1_555 1_555
C31_3 C26_3 1_555 1_555
H20_3 C31_3 1_555 1_555
C32_3 C29_3 1_555 1_555
C33_3 C32_3 1_555 1_555
H21_3 C33_3 1_555 1_555
C34_3 N2_3 1_555 1_555
H22_3 C34_3 1_555 1_555
C35_3 N2_3 1_555 1_555
H23_3 C35_3 1_555 1_555
C36_2 C32_3 1_555 1_555
H24_2 C36_2 1_555 1_555
C24_3 C25_3 1_555 1_555
C30_3 C31_3 1_555 1_555
C33_3 C34_3 1_555 1_555
C35_3 C36_2 1_555 1_555
H23_4 C35_4 1_555 1_555
H24_3 C36_3 1_555 1_555
O8_2 Ni1_4 1_555 1_555
C35_4 C36_3 1_555 1_555
N2_4 Ni1_5 1_555 1_555
C29_4 C28_4 1_555 1_555
C30_4 C29_4 1_555 1_555
H19_4 C30_4 1_555 1_555
H20_4 C31_4 1_555 1_555
C32_4 C29_4 1_555 1_555
C33_4 C32_4 1_555 1_555
H21_4 C33_4 1_555 1_555
C34_4 N2_4 1_555 1_555
H22_4 C34_4 1_555 1_555
O5_2 Ni1_5 1_555 1_555
C30_4 C31_4 1_555 1_555
C33_4 C34_4 1_555 1_555
O5_2 C1_4 1_555 1_555
C1_4 C2_3 1_555 1_555
C6_3 C5_3 1_555 1_555
H3_3 C6_3 1_555 1_555
C7_3 C2_3 1_555 1_555
H4_3 C7_3 1_555 1_555
C8_3 C5_3 1_555 1_555
C9_3 C8_3 1_555 1_555
H5_3 C9_3 1_555 1_555
C10_3 C9_3 1_555 1_555
H6_3 C10_3 1_555 1_555
C11_3 C10_3 1_555 1_555
C12_3 C11_3 1_555 1_555
H7_3 C12_3 1_555 1_555
C13_3 C8_3 1_555 1_555
H8_3 C13_3 1_555 1_555
C14_3 C11_3 1_555 1_555
C15_3 C14_3 1_555 1_555
H9_3 C15_3 1_555 1_555
C16_3 C15_3 1_555 1_555
H10_3 C16_3 1_555 1_555
C21_4 H13_4 1_555 1_555
C22_4 C21_4 1_555 1_555
H14_4 C22_4 1_555 1_555
H24_4 C36_4 1_555 1_555
C6_3 C7_3 1_555 1_555
C12_3 C13_3 1_555 1_555
C3_3 H1_4 1_555 1_555
C4_3 C3_3 1_555 1_555
H2_3 C4_3 1_555 1_555
O2_2 Ni2_2 1_555 1_555
O3_2 C19_4 1_555 1_555
C19_4 C20_4 1_555 1_555
C24_4 C23_4 1_555 1_555
H15_4 C24_4 1_555 1_555
C25_4 C20_4 1_555 1_555
H16_4 C25_4 1_555 1_555
C26_4 C23_4 1_555 1_555
C27_4 C26_4 1_555 1_555
H17_4 C27_4 1_555 1_555
Ni2_2 O3_2 1_555 1_555
C24_4 C25_4 1_555 1_555
Ni2_2 N1_4 1_555 1_555
N1_4 C16_4 1_555 1_555
C2_4 C3_4 1_555 1_555
C4_4 C3_4 1_555 1_555
H2_4 C4_4 1_555 1_555
C5_4 C4_4 1_555 1_555
C6_4 C5_4 1_555 1_555
H3_4 C6_4 1_555 1_555
C7_4 C2_4 1_555 1_555
H4_4 C7_4 1_555 1_555
C8_4 C5_4 1_555 1_555
C9_4 C8_4 1_555 1_555
H5_4 C9_4 1_555 1_555
C10_4 C9_4 1_555 1_555
H6_4 C10_4 1_555 1_555
C11_4 C10_4 1_555 1_555
C12_4 C11_4 1_555 1_555
H7_4 C12_4 1_555 1_555
C13_4 C8_4 1_555 1_555
H8_4 C13_4 1_555 1_555
C14_4 C11_4 1_555 1_555
C15_4 C14_4 1_555 1_555
H9_4 C15_4 1_555 1_555
C16_4 C15_4 1_555 1_555
H10_4 C16_4 1_555 1_555
C17_4 N1_4 1_555 1_555
H11_4 C17_4 1_555 1_555
C18_4 C14_4 1_555 1_555
H12_4 C18_4 1_555 1_555
C6_4 C7_4 1_555 1_555
C12_4 C13_4 1_555 1_555
C17_4 C18_4 1_555 1_555
O1_3 C1_5 1_555 1_555
O2_3 C1_5 1_555 1_555
C1_5 C2_5 1_555 1_555
C2_5 C3_5 1_555 1_555
C3_5 H1_5 1_555 1_555
C4_5 C3_5 1_555 1_555
H2_5 C4_5 1_555 1_555
C5_5 C4_5 1_555 1_555
C6_5 C5_5 1_555 1_555
H3_5 C6_5 1_555 1_555
C7_5 C2_5 1_555 1_555
H4_5 C7_5 1_555 1_555
C8_5 C5_5 1_555 1_555
C9_5 C8_5 1_555 1_555
H5_5 C9_5 1_555 1_555
O3_3 C19_5 1_555 1_555
O4_3 C19_5 1_555 1_555
C19_5 C20_5 1_555 1_555
C20_5 C21_5 1_555 1_555
C21_5 H13_5 1_555 1_555
C22_5 C21_5 1_555 1_555
H14_5 C22_5 1_555 1_555
C23_5 C22_5 1_555 1_555
C24_5 C23_5 1_555 1_555
H15_5 C24_5 1_555 1_555
C25_5 C20_5 1_555 1_555
H16_5 C25_5 1_555 1_555
C26_5 C23_5 1_555 1_555
C27_5 C26_5 1_555 1_555
H17_5 C27_5 1_555 1_555
Ni2_4 O1_3 1_555 1_555
Ni2_3 O3_3 1_555 1_555
O2_3 Ni2_4 1_555 1_555
C6_5 C7_5 1_555 1_555
O4_3 Ni2_3 1_555 1_555
C24_5 C25_5 1_555 1_555
Ni2_3 N1_5 1_555 1_555
N1_5 C16_5 1_555 1_555
C6_6 C5_6 1_555 1_555
H3_6 C6_6 1_555 1_555
C7_6 C2_6 1_555 1_555
H4_6 C7_6 1_555 1_555
C8_6 C5_6 1_555 1_555
C9_6 C8_6 1_555 1_555
H5_6 C9_6 1_555 1_555
C10_5 C9_6 1_555 1_555
H6_6 C10_5 1_555 1_555
C11_5 C10_5 1_555 1_555
C12_5 C11_5 1_555 1_555
H7_5 C12_5 1_555 1_555
C13_5 C8_6 1_555 1_555
H8_5 C13_5 1_555 1_555
C14_5 C11_5 1_555 1_555
C15_5 C14_5 1_555 1_555
H9_5 C15_5 1_555 1_555
C16_5 C15_5 1_555 1_555
H10_5 C16_5 1_555 1_555
C22_6 C21_6 1_555 1_555
H14_6 C22_6 1_555 1_555
H23_5 C35_5 1_555 1_555
H24_5 C36_5 1_555 1_555
C6_6 C7_6 1_555 1_555
C12_5 C13_5 1_555 1_555
C35_5 C36_5 1_555 1_555
C4_6 C3_6 1_555 1_555
H2_6 C4_6 1_555 1_555
H11_5 C17_5 1_555 1_555
H12_5 C18_5 1_555 1_555
N2_5 Ni2_4 1_555 1_555
C24_6 C23_6 1_555 1_555
H15_6 C24_6 1_555 1_555
C25_6 C20_6 1_555 1_555
H16_6 C25_6 1_555 1_555
C26_6 C23_6 1_555 1_555
C27_6 C26_6 1_555 1_555
H17_6 C27_6 1_555 1_555
C28_5 C27_6 1_555 1_555
H18_6 C28_5 1_555 1_555
C29_5 C28_5 1_555 1_555
C30_5 C29_5 1_555 1_555
H19_5 C30_5 1_555 1_555
C31_5 C26_6 1_555 1_555
H20_5 C31_5 1_555 1_555
C32_5 C29_5 1_555 1_555
C33_5 C32_5 1_555 1_555
H21_5 C33_5 1_555 1_555
C34_5 N2_5 1_555 1_555
H22_5 C34_5 1_555 1_555
C17_5 C18_5 1_555 1_555
C24_6 C25_6 1_555 1_555
C30_5 C31_5 1_555 1_555
C33_5 C34_5 1_555 1_555
Ni1_6 N1_6 1_555 1_555
N1_6 C16_6 1_555 1_555
C11_6 C10_6 1_555 1_555
C12_6 C11_6 1_555 1_555
H7_6 C12_6 1_555 1_555
H8_6 C13_6 1_555 1_555
C14_6 C11_6 1_555 1_555
C15_6 C14_6 1_555 1_555
H9_6 C15_6 1_555 1_555
C16_6 C15_6 1_555 1_555
H10_6 C16_6 1_555 1_555
C17_6 N1_6 1_555 1_555
H11_6 C17_6 1_555 1_555
C18_6 C14_6 1_555 1_555
H12_6 C18_6 1_555 1_555
N2_6 Ni1_6 1_555 1_555
C29_6 C28_6 1_555 1_555
C30_6 C29_6 1_555 1_555
H19_6 C30_6 1_555 1_555
H20_6 C31_6 1_555 1_555
C32_6 C29_6 1_555 1_555
C33_6 C32_6 1_555 1_555
H21_6 C33_6 1_555 1_555
C34_6 N2_6 1_555 1_555
H22_6 C34_6 1_555 1_555
C35_6 N2_6 1_555 1_555
H23_6 C35_6 1_555 1_555
C36_6 C32_6 1_555 1_555
H24_6 C36_6 1_555 1_555
O5_3 Ni1_6 1_555 1_555
O6_3 Ni1_6 1_555 1_555
O7_3 Ni1_6 1_555 1_555
O8_3 Ni1_6 1_555 1_555
C12_6 C13_6 1_555 1_555
C17_6 C18_6 1_555 1_555
C30_6 C31_6 1_555 1_555
C33_6 C34_6 1_555 1_555
C35_6 C36_6 1_555 1_555
O6_3 C19_6 1_555 1_555
O8_3 C19_6 1_555 1_555
C19_6 C20_7 1_555 1_555
C20_7 C21_7 1_555 1_555
C21_7 H13_6 1_555 1_555
C22_7 C21_7 1_555 1_555
H14_7 C22_7 1_555 1_555
C23_7 C22_7 1_555 1_555
C24_7 C23_7 1_555 1_555
H15_7 C24_7 1_555 1_555
C25_7 C20_7 1_555 1_555
H16_7 C25_7 1_555 1_555
C26_7 C23_7 1_555 1_555
C27_7 C26_7 1_555 1_555
H17_7 C27_7 1_555 1_555
C28_7 C27_7 1_555 1_555
H18_7 C28_7 1_555 1_555
C29_7 C28_7 1_555 1_555
C30_7 C29_7 1_555 1_555
H19_7 C30_7 1_555 1_555
C31_7 C26_7 1_555 1_555
H20_7 C31_7 1_555 1_555
C32_7 C29_7 1_555 1_555
C33_7 C32_7 1_555 1_555
H21_7 C33_7 1_555 1_555
H22_7 C34_7 1_555 1_555
C36_7 C32_7 1_555 1_555
H24_7 C36_7 1_555 1_555
C24_7 C25_7 1_555 1_555
C30_7 C31_7 1_555 1_555
C33_7 C34_7 1_555 1_555
O5_3 C1_6 1_555 1_555
O7_3 C1_6 1_555 1_555
C1_6 C2_7 1_555 1_555
C2_7 C3_7 1_555 1_555
C3_7 H1_6 1_555 1_555
C4_7 C3_7 1_555 1_555
H2_7 C4_7 1_555 1_555
C5_7 C4_7 1_555 1_555
C6_7 C5_7 1_555 1_555
H3_7 C6_7 1_555 1_555
C7_7 C2_7 1_555 1_555
H4_7 C7_7 1_555 1_555
C8_7 C5_7 1_555 1_555
C9_7 C8_7 1_555 1_555
H5_7 C9_7 1_555 1_555
C10_7 C9_7 1_555 1_555
H6_7 C10_7 1_555 1_555
C11_7 C10_7 1_555 1_555
C12_7 C11_7 1_555 1_555
H7_7 C12_7 1_555 1_555
C13_7 C8_7 1_555 1_555
H8_7 C13_7 1_555 1_555
C14_7 C11_7 1_555 1_555
C15_7 C14_7 1_555 1_555
H9_7 C15_7 1_555 1_555
C16_7 C15_7 1_555 1_555
H10_7 C16_7 1_555 1_555
C18_7 C14_7 1_555 1_555
H12_7 C18_7 1_555 1_555
C6_7 C7_7 1_555 1_555
C12_7 C13_7 1_555 1_555
C21_8 H13_7 1_555 1_555
C22_8 C21_8 1_555 1_555
H14_8 C22_8 1_555 1_555
H23_7 C35_7 1_555 1_555
H24_8 C36_8 1_555 1_555
O8_4 Ni1_7 1_555 1_555
O4_4 Ni3_3 1_555 1_555
C35_7 C36_8 1_555 1_555
Ni1_8 N1_7 1_555 1_555
O1_4 C1_7 1_555 1_555
N1_7 C16_8 1_555 1_555
C1_7 C2_8 1_555 1_555
C6_8 C5_8 1_555 1_555
H3_8 C6_8 1_555 1_555
C7_8 C2_8 1_555 1_555
H4_8 C7_8 1_555 1_555
C8_8 C5_8 1_555 1_555
C9_8 C8_8 1_555 1_555
H5_8 C9_8 1_555 1_555
C10_8 C9_8 1_555 1_555
H6_8 C10_8 1_555 1_555
C11_8 C10_8 1_555 1_555
C12_8 C11_8 1_555 1_555
H7_8 C12_8 1_555 1_555
C13_8 C8_8 1_555 1_555
H8_8 C13_8 1_555 1_555
C14_8 C11_8 1_555 1_555
C15_8 C14_8 1_555 1_555
H9_8 C15_8 1_555 1_555
C16_8 C15_8 1_555 1_555
H10_8 C16_8 1_555 1_555
Ni3_3 O1_4 1_555 1_555
O6_4 Ni1_8 1_555 1_555
C6_8 C7_8 1_555 1_555
C12_8 C13_8 1_555 1_555
O3_4 C19_7 1_555 1_555
N2_7 Ni1_9 1_555 1_555
C19_7 C20_8 1_555 1_555
C24_8 C23_8 1_555 1_555
H15_8 C24_8 1_555 1_555
C25_8 C20_8 1_555 1_555
H16_8 C25_8 1_555 1_555
C26_8 C23_8 1_555 1_555
C27_8 C26_8 1_555 1_555
H17_8 C27_8 1_555 1_555
C28_8 C27_8 1_555 1_555
H18_8 C28_8 1_555 1_555
C29_8 C28_8 1_555 1_555
C30_8 C29_8 1_555 1_555
H19_8 C30_8 1_555 1_555
C31_8 C26_8 1_555 1_555
H20_8 C31_8 1_555 1_555
C32_8 C29_8 1_555 1_555
C33_8 C32_8 1_555 1_555
H21_8 C33_8 1_555 1_555
C34_8 N2_7 1_555 1_555
H22_8 C34_8 1_555 1_555
Ni3_4 O3_4 1_555 1_555
O5_4 Ni1_9 1_555 1_555
C24_8 C25_8 1_555 1_555
C30_8 C31_8 1_555 1_555
C33_8 C34_8 1_555 1_555
C3_8 H1_7 1_555 1_555
C4_8 C3_8 1_555 1_555
H2_8 C4_8 1_555 1_555
H11_7 C17_7 1_555 1_555
H12_8 C18_8 1_555 1_555
O7_4 Ni1_10 1_555 1_555
O2_4 Ni3_4 1_555 1_555
C17_7 C18_8 1_555 1_555
O5_4 C1_8 1_555 1_555
O6_4 C19_8 1_555 1_555
N2_8 Ni3_3 1_555 1_555
C35_8 N2_8 1_555 1_555
H23_8 C35_8 1_555 1_555
Ni3_4 N1_8 1_555 1_555
C17_8 N1_8 1_555 1_555
H11_8 C17_8 1_555 1_555

#END
