
###############################################################################
#
# This file contains modified crystal structure data generated from the
# MOF subset of the Cambridge Structural Database (CSD) v543 
# hosted by the Cambridge Crystallographic Data Centre (CCDC).
#
# This work is licensed under the Creative Commons
# Attribution-NonCommercial-ShareAlike 4.0 International License.
# To view a copy of this license, visit
# http://creativecommons.org/licenses/by-nc-sa/4.0/
# or send a letter to
# Creative Commons, PO Box 1866, Mountain View, CA 94042, USA.
#
# CIF created using the CSD Python API on 29 September 2022
# The structure has been converted into the P1 space group
# The structure has a 3D framework
# The original CSD entry FIZXUK is in the tetragonal crystal system
# The framework has been calculated to contain at least 10.0% void space
# The void calculation uses a probe of radius 1.32A, grid spacing 0.4
#
###############################################################################

data_FIZXUK
_chemical_formula_moiety         '(C288 H192 N16 O32 Zn8)n'
_symmetry_cell_setting           triclinic
_symmetry_space_group_name_H-M   'P 1'
_symmetry_Int_Tables_number      1
_space_group_name_Hall           'P 1'
loop_
_symmetry_equiv_pos_site_id
_symmetry_equiv_pos_as_xyz
1 x,y,z
_cell_length_a                   20.11390(10)
_cell_length_b                   20.11390(10)
_cell_length_c                   20.3022(2)
_cell_angle_alpha                90
_cell_angle_beta                 90
_cell_angle_gamma                90
_cell_volume                     8213.64
loop_
_atom_site_label
_atom_site_type_symbol
_atom_site_fract_x
_atom_site_fract_y
_atom_site_fract_z
Zn1 Zn 0.71649(2) 0.08483(2) 0.24686(2)
O1 O 0.72162(17) 0.16724(18) 0.15624(17)
O2 O 0.63733(15) 0.13225(14) 0.21135(15)
O3 O 0.68306(11) 0.03451(10) 0.32434(11)
C1 C 0.6621(2) 0.16690(17) 0.16666(18)
C2 C 0.6171(2) 0.21194(18) 0.12758(17)
C3 C 0.5507(3) 0.2173(3) 0.1405(3)
H1 H 0.531960 0.192132 0.174209
C4 C 0.5114(3) 0.2592(3) 0.1046(3)
H2 H 0.466393 0.262866 0.114479
C5 C 0.5382(2) 0.2968(2) 0.0530(2)
C6 C 0.6041(2) 0.2908(2) 0.0417(2)
H3 H 0.623593 0.315713 0.008292
C7 C 0.6428(2) 0.2490(2) 0.0784(2)
H4 H 0.688016 0.246098 0.069252
C8 C 0.4955(3) 0.3418(3) 0.0133(2)
C9 C 0.4515(4) 0.3876(4) 0.0417(3)
H5 H 0.449003 0.391007 0.087313
C10 C 0.4120(4) 0.4276(4) 0.0034(3)
H6 H 0.384057 0.458669 0.022993
H16 H 0.627016 0.005593 0.432408
N3 N 0.78114(14) 0.03218(15) 0.18819(14)
N4 N 0.77840(12) 0.14666(11) 0.30243(11)
C15 C 0.8550(3) 0.0266(3) 0.0951(3)
H9 H 0.874475 0.047784 0.059194
C16 C 0.8129(3) 0.0609(2) 0.1361(3)
H10 H 0.805646 0.105820 0.127912
H2_2 H 0.966393 0.762866 0.885521
C8_2 C 0.9955(3) 0.8418(3) 0.9867(2)
C9_2 C 0.9515(4) 0.8876(4) 0.9583(3)
H5_2 H 0.949003 0.891007 0.912687
C10_2 C 0.9120(4) 0.9276(4) 0.9966(3)
H6_2 H 0.884057 0.958669 0.977007
C26 C 0.99544(15) 0.33479(14) 0.50567(14)
C27 C 0.98930(19) 0.26578(15) 0.51089(17)
C28 C 0.94764(19) 0.23075(15) 0.47047(17)
H18 H 0.944276 0.184915 0.475474
C29 C 0.91024(15) 0.26224(14) 0.42206(14)
C30 C 0.91702(16) 0.33094(15) 0.41618(16)
H19 H 0.892760 0.353503 0.384223
C31 C 0.95887(16) 0.36575(14) 0.45676(16)
H20 H 0.962811 0.411484 0.451281
C32 C 0.86413(14) 0.22366(14) 0.38007(14)
C33 C 0.82525(18) 0.17277(16) 0.40660(15)
H21 H 0.827281 0.163551 0.451445
C34 C 0.78412(16) 0.13640(15) 0.36668(14)
H22 H 0.758877 0.102724 0.385650
C35 C 0.81488(16) 0.19633(16) 0.27684(15)
H23 H 0.811317 0.205040 0.231987
C36 C 0.85698(16) 0.23465(16) 0.31362(15)
H24 H 0.881025 0.268506 0.293480
N1 N 0.28114(14) 0.53218(15) 0.81181(14)
C11 C 0.4140(3) 0.4215(3) 0.9343(2)
C12 C 0.4639(4) 0.3866(4) 0.9097(2)
H7 H 0.471294 0.387335 0.864540
C13 C 0.5053(4) 0.3490(4) 0.9491(2)
H8 H 0.541579 0.327830 0.929916
C14 C 0.3681(2) 0.4605(2) 0.8923(2)
C15_2 C 0.3550(3) 0.5266(3) 0.9049(3)
H9_2 H 0.374475 0.547784 0.940806
C16_2 C 0.3129(3) 0.5609(2) 0.8639(3)
H10_2 H 0.305646 0.605820 0.872088
C17 C 0.2894(3) 0.4675(2) 0.8041(2)
H11 H 0.264603 0.445821 0.771887
C18 C 0.3331(3) 0.4305(3) 0.8418(2)
H12 H 0.339019 0.385443 0.833097
Zn3 Zn 0.21649(2) 0.58483(2) 0.75314(2)
O4 O 0.6441(2) 0.96998(19) 0.24650(11)
N2 N 0.27840(12) 0.64666(11) 0.69757(11)
C19 C 0.64867(18) 0.98515(17) 0.30477(16)
C20 C 0.61132(17) 0.94619(16) 0.35528(15)
C21 C 0.5792(3) 0.8879(2) 0.33725(18)
H13 H 0.581889 0.873132 0.293938
C22 C 0.5435(3) 0.8519(2) 0.38210(19)
H14 H 0.523238 0.812581 0.368957
C23 C 0.53705(16) 0.87299(14) 0.44703(15)
C24 C 0.56884(15) 0.93117(14) 0.46478(14)
H15 H 0.565471 0.946588 0.507833
C25 C 0.60566(14) 0.96680(13) 0.41923(14)
C26_2 C 0.49544(15) 0.83479(14) 0.49433(14)
C27_2 C 0.48930(19) 0.76578(15) 0.48911(17)
H17 H 0.514040 0.743217 0.457519
C28_2 C 0.44764(19) 0.73075(15) 0.52953(17)
H18_2 H 0.444276 0.684915 0.524526
C29_2 C 0.41024(15) 0.76224(14) 0.57794(14)
C30_2 C 0.41702(16) 0.83094(15) 0.58382(16)
H19_2 H 0.392760 0.853503 0.615777
C31_2 C 0.45887(16) 0.86575(14) 0.54324(16)
H20_2 H 0.462811 0.911484 0.548719
C32_2 C 0.36413(14) 0.72366(14) 0.61993(14)
C33_2 C 0.32525(18) 0.67277(16) 0.59340(15)
H21_2 H 0.327281 0.663551 0.548555
C34_2 C 0.28412(16) 0.63640(15) 0.63332(14)
H22_2 H 0.258877 0.602724 0.614350
C35_2 C 0.31488(16) 0.69633(16) 0.72316(15)
H23_2 H 0.311317 0.705040 0.768013
C36_2 C 0.35698(16) 0.73465(16) 0.68638(15)
H24_2 H 0.381025 0.768506 0.706520
O1_2 O 0.22162(17) 0.66724(18) 0.84376(17)
O2_2 O 0.13733(15) 0.63225(14) 0.78865(15)
O3_2 O 0.18306(11) 0.53451(10) 0.67566(11)
O4_2 O 0.1441(2) 0.46998(19) 0.75350(11)
C1_2 C 0.1621(2) 0.66690(17) 0.83334(18)
C2_2 C 0.1171(2) 0.71194(18) 0.87242(17)
C3_2 C 0.0507(3) 0.7173(3) 0.8595(3)
H1_2 H 0.031960 0.692132 0.825791
C4_2 C 0.0114(3) 0.7592(3) 0.8954(3)
C5_2 C 0.0382(2) 0.7968(2) 0.9470(2)
C6_2 C 0.1041(2) 0.7908(2) 0.9583(2)
H3_2 H 0.123593 0.815713 0.991708
C7_2 C 0.1428(2) 0.7490(2) 0.9216(2)
H4_2 H 0.188016 0.746098 0.930748
C19_2 C 0.14867(18) 0.48515(17) 0.69523(16)
C20_2 C 0.11132(17) 0.44619(16) 0.64472(15)
C21_2 C 0.0792(3) 0.3879(2) 0.66275(18)
H13_2 H 0.081889 0.373132 0.706062
C22_2 C 0.0435(3) 0.3519(2) 0.61790(19)
H14_2 H 0.023238 0.312581 0.631043
C23_2 C 0.03705(16) 0.37299(14) 0.55297(15)
C24_2 C 0.06884(15) 0.43117(14) 0.53522(14)
H15_2 H 0.065471 0.446588 0.492167
C25_2 C 0.10566(14) 0.46680(13) 0.58077(14)
H16_2 H 0.127016 0.505593 0.567592
H17_2 H 0.014040 0.243217 0.542481
N2_2 N 0.22160(12) 0.85334(11) 0.69757(11)
H2_3 H 0.033607 0.237134 0.114479
C8_3 C 0.0045(3) 0.1582(3) 0.0133(2)
C9_3 C 0.0485(4) 0.1124(4) 0.0417(3)
H5_3 H 0.050997 0.108993 0.087313
C10_3 C 0.0880(4) 0.0724(4) 0.0034(3)
H6_3 H 0.115943 0.041331 0.022993
C26_3 C 0.00456(15) 0.66521(14) 0.49433(14)
C27_3 C 0.01070(19) 0.73422(15) 0.48911(17)
C28_3 C 0.05236(19) 0.76925(15) 0.52953(17)
H18_3 H 0.055724 0.815085 0.524526
C29_3 C 0.08976(15) 0.73776(14) 0.57794(14)
C30_3 C 0.08298(16) 0.66906(15) 0.58382(16)
H19_3 H 0.107240 0.646497 0.615777
C31_3 C 0.04113(16) 0.63425(14) 0.54324(16)
H20_3 H 0.037189 0.588516 0.548719
C32_3 C 0.13587(14) 0.77634(14) 0.61993(14)
C33_3 C 0.17475(18) 0.82723(16) 0.59340(15)
H21_3 H 0.172719 0.836449 0.548555
C34_3 C 0.21588(16) 0.86360(15) 0.63332(14)
H22_3 H 0.241123 0.897276 0.614350
C35_3 C 0.18512(16) 0.80367(16) 0.72316(15)
H23_3 H 0.188683 0.794960 0.768013
C36_3 C 0.14302(16) 0.76535(16) 0.68638(15)
H24_3 H 0.118975 0.731494 0.706520
Zn2 Zn 0.28351(2) 0.91517(2) 0.75314(2)
N1_2 N 0.21886(14) 0.96782(15) 0.81181(14)
C15_3 C 0.1450(3) 0.9734(3) 0.9049(3)
H9_3 H 0.125525 0.952216 0.940806
C16_3 C 0.1871(3) 0.9391(2) 0.8639(3)
H10_3 H 0.194354 0.894180 0.872088
O1_3 O 0.27838(17) 0.83276(18) 0.84376(17)
O2_3 O 0.36267(15) 0.86775(14) 0.78865(15)
O3_3 O 0.31694(11) 0.96549(10) 0.67566(11)
C1_3 C 0.3379(2) 0.83310(17) 0.83334(18)
C2_3 C 0.3829(2) 0.78806(18) 0.87242(17)
C3_3 C 0.4493(3) 0.7827(3) 0.8595(3)
H1_3 H 0.468040 0.807868 0.825791
C4_3 C 0.4886(3) 0.7408(3) 0.8954(3)
H2_4 H 0.533607 0.737134 0.885521
C5_3 C 0.4618(2) 0.7032(2) 0.9470(2)
C6_3 C 0.3959(2) 0.7092(2) 0.9583(2)
H3_3 H 0.376407 0.684287 0.991708
C7_3 C 0.3572(2) 0.7510(2) 0.9216(2)
H4_3 H 0.311984 0.753902 0.930748
C8_4 C 0.5045(3) 0.6582(3) 0.9867(2)
C9_4 C 0.5485(4) 0.6124(4) 0.9583(3)
H5_4 H 0.550997 0.608993 0.912687
C10_4 C 0.5880(4) 0.5724(4) 0.9966(3)
H6_4 H 0.615943 0.541331 0.977007
H16_3 H 0.372984 0.994407 0.567592
C11_2 C 0.0860(3) 0.0785(3) 0.9343(2)
C12_2 C 0.0361(4) 0.1134(4) 0.9097(2)
H7_2 H 0.028706 0.112665 0.864540
C14_2 C 0.1319(2) 0.0395(2) 0.8923(2)
C17_2 C 0.2106(3) 0.0325(2) 0.8041(2)
H11_2 H 0.235397 0.054179 0.771887
C18_2 C 0.1669(3) 0.0695(3) 0.8418(2)
H12_2 H 0.160981 0.114557 0.833097
Zn1_2 Zn 0.78351(2) 0.41517(2) 0.24686(2)
O1_4 O 0.77838(17) 0.33276(18) 0.15624(17)
O2_4 O 0.86267(15) 0.36775(14) 0.21135(15)
O3_4 O 0.81694(11) 0.46549(10) 0.32434(11)
O4_3 O 0.8559(2) 0.53002(19) 0.24650(11)
C1_4 C 0.8379(2) 0.33310(17) 0.16666(18)
C2_4 C 0.8829(2) 0.28806(18) 0.12758(17)
C3_4 C 0.9493(3) 0.2827(3) 0.1405(3)
H1_4 H 0.968040 0.307868 0.174209
C4_4 C 0.9886(3) 0.2408(3) 0.1046(3)
C5_4 C 0.9618(2) 0.2032(2) 0.0530(2)
C6_4 C 0.8959(2) 0.2092(2) 0.0417(2)
H3_4 H 0.876407 0.184287 0.008292
C7_4 C 0.8572(2) 0.2510(2) 0.0784(2)
H4_4 H 0.811984 0.253902 0.069252
C19_3 C 0.85133(18) 0.51485(17) 0.30477(16)
C20_3 C 0.88868(17) 0.55381(16) 0.35528(15)
C21_3 C 0.9208(3) 0.6121(2) 0.33725(18)
H13_3 H 0.918111 0.626868 0.293938
C22_3 C 0.9565(3) 0.6481(2) 0.38210(19)
H14_3 H 0.976762 0.687419 0.368957
C23_3 C 0.96295(16) 0.62701(14) 0.44703(15)
C24_3 C 0.93116(15) 0.56883(14) 0.46478(14)
H15_3 H 0.934529 0.553412 0.507833
C25_3 C 0.89434(14) 0.53320(13) 0.41923(14)
H16_4 H 0.872984 0.494407 0.432408
H17_3 H 0.985960 0.756783 0.457519
N3_2 N 0.71886(14) 0.46782(15) 0.18819(14)
N4_2 N 0.72160(12) 0.35334(11) 0.30243(11)
O4_4 O 0.3559(2) 0.03002(19) 0.75350(11)
C19_4 C 0.35133(18) 0.01485(17) 0.69523(16)
C20_4 C 0.38868(17) 0.05381(16) 0.64472(15)
C21_4 C 0.4208(3) 0.1121(2) 0.66275(18)
H13_4 H 0.418111 0.126868 0.706062
C22_4 C 0.4565(3) 0.1481(2) 0.61790(19)
H14_4 H 0.476762 0.187419 0.631043
C23_4 C 0.46295(16) 0.12701(14) 0.55297(15)
C24_4 C 0.43116(15) 0.06883(14) 0.53522(14)
H15_4 H 0.434529 0.053412 0.492167
C25_4 C 0.39434(14) 0.03320(13) 0.58077(14)
C26_4 C 0.50456(15) 0.16521(14) 0.50567(14)
C27_4 C 0.51070(19) 0.23422(15) 0.51089(17)
H17_4 H 0.485960 0.256783 0.542481
C28_4 C 0.55236(19) 0.26925(15) 0.47047(17)
H18_4 H 0.555724 0.315085 0.475474
C29_4 C 0.58976(15) 0.23776(14) 0.42206(14)
C30_4 C 0.58298(16) 0.16906(15) 0.41618(16)
H19_4 H 0.607240 0.146497 0.384223
C31_4 C 0.54113(16) 0.13425(14) 0.45676(16)
H20_4 H 0.537189 0.088516 0.451281
C32_4 C 0.63587(14) 0.27634(14) 0.38007(14)
C33_4 C 0.67475(18) 0.32723(16) 0.40660(15)
H21_4 H 0.672719 0.336449 0.451445
C34_4 C 0.71588(16) 0.36360(15) 0.36668(14)
H22_4 H 0.741123 0.397276 0.385650
C35_4 C 0.68512(16) 0.30367(16) 0.27684(15)
H23_4 H 0.688683 0.294960 0.231987
C36_4 C 0.64302(16) 0.26535(16) 0.31362(15)
H24_4 H 0.618975 0.231494 0.293480
C11_3 C 0.5860(3) 0.5785(3) 0.0657(2)
C12_3 C 0.5361(4) 0.6134(4) 0.0903(2)
H7_3 H 0.528706 0.612665 0.135460
C13_2 C 0.4947(4) 0.6510(4) 0.0509(2)
H8_2 H 0.458421 0.672170 0.070084
C14_3 C 0.6319(2) 0.5395(2) 0.1077(2)
C15_4 C 0.6450(3) 0.4734(3) 0.0951(3)
H9_4 H 0.625525 0.452216 0.059194
C16_4 C 0.6871(3) 0.4391(2) 0.1361(3)
H10_4 H 0.694354 0.394180 0.127912
C17_3 C 0.7106(3) 0.5325(2) 0.1959(2)
H11_3 H 0.735397 0.554179 0.228113
C18_3 C 0.6669(3) 0.5695(3) 0.1582(2)
H12_3 H 0.660981 0.614557 0.166903
C13_3 C 0.9947(4) 0.1510(4) 0.9491(2)
H8_3 H 0.958421 0.172170 0.929916
Zn1_3 Zn 0.41517(2) 0.71649(2) 0.24686(2)
O1_5 O 0.33276(18) 0.72162(17) 0.15624(17)
O2_5 O 0.36775(14) 0.63733(15) 0.21135(15)
O3_5 O 0.46549(10) 0.68306(11) 0.32434(11)
O4_5 O 0.53002(19) 0.6441(2) 0.24650(11)
N2_3 N 0.85334(11) 0.27840(12) 0.69757(11)
C1_5 C 0.33310(17) 0.6621(2) 0.16666(18)
C2_5 C 0.28806(18) 0.6171(2) 0.12758(17)
C3_5 C 0.2827(3) 0.5507(3) 0.1405(3)
H1_5 H 0.307868 0.531960 0.174209
C4_5 C 0.2408(3) 0.5114(3) 0.1046(3)
H2_5 H 0.237134 0.466393 0.114479
C5_5 C 0.2032(2) 0.5382(2) 0.0530(2)
C6_5 C 0.2092(2) 0.6041(2) 0.0417(2)
H3_5 H 0.184287 0.623593 0.008292
C7_5 C 0.2510(2) 0.6428(2) 0.0784(2)
H4_5 H 0.253902 0.688016 0.069252
C8_5 C 0.1582(3) 0.4955(3) 0.0133(2)
C9_5 C 0.1124(4) 0.4515(4) 0.0417(3)
H5_5 H 0.108993 0.449003 0.087313
C10_5 C 0.0724(4) 0.4120(4) 0.0034(3)
H6_5 H 0.041331 0.384057 0.022993
C19_5 C 0.51485(17) 0.64867(18) 0.30477(16)
C20_5 C 0.55381(16) 0.61132(17) 0.35528(15)
C21_5 C 0.6121(2) 0.5792(3) 0.33725(18)
H13_5 H 0.626868 0.581889 0.293938
C22_5 C 0.6481(2) 0.5435(3) 0.38210(19)
H14_5 H 0.687419 0.523238 0.368957
C23_5 C 0.62701(14) 0.53705(16) 0.44703(15)
C24_5 C 0.56883(14) 0.56884(15) 0.46478(14)
H15_5 H 0.553412 0.565471 0.507833
C25_5 C 0.53320(13) 0.60566(14) 0.41923(14)
H16_5 H 0.494407 0.627016 0.432408
C26_5 C 0.66521(14) 0.49544(15) 0.49433(14)
C27_5 C 0.73422(15) 0.48930(19) 0.48911(17)
H17_5 H 0.756783 0.514040 0.457519
C28_5 C 0.76925(15) 0.44764(19) 0.52953(17)
H18_5 H 0.815085 0.444276 0.524526
C29_5 C 0.73776(14) 0.41024(15) 0.57794(14)
C30_5 C 0.66906(15) 0.41702(16) 0.58382(16)
H19_5 H 0.646497 0.392760 0.615777
C31_5 C 0.63425(14) 0.45887(16) 0.54324(16)
H20_5 H 0.588516 0.462811 0.548719
C32_5 C 0.77634(14) 0.36413(14) 0.61993(14)
C33_5 C 0.82723(16) 0.32525(18) 0.59340(15)
H21_5 H 0.836449 0.327281 0.548555
C34_5 C 0.86360(15) 0.28412(16) 0.63332(14)
H22_5 H 0.897276 0.258877 0.614350
C35_5 C 0.80367(16) 0.31488(16) 0.72316(15)
H23_5 H 0.794960 0.311317 0.768013
C36_5 C 0.76535(16) 0.35698(16) 0.68638(15)
H24_5 H 0.731494 0.381025 0.706520
Zn2_2 Zn 0.91517(2) 0.21649(2) 0.75314(2)
N3_3 N 0.46782(15) 0.78114(14) 0.18819(14)
N4_3 N 0.35334(11) 0.77840(12) 0.30243(11)
N1_3 N 0.96782(15) 0.28114(14) 0.81181(14)
C15_5 C 0.9734(3) 0.3550(3) 0.9049(3)
H9_5 H 0.952216 0.374475 0.940806
C16_5 C 0.9391(2) 0.3129(3) 0.8639(3)
H10_5 H 0.894180 0.305646 0.872088
C26_6 C 0.16521(14) 0.99544(15) 0.50567(14)
C27_6 C 0.23422(15) 0.98930(19) 0.51089(17)
C28_6 C 0.26925(15) 0.94764(19) 0.47047(17)
H18_6 H 0.315085 0.944276 0.475474
C29_6 C 0.23776(14) 0.91024(15) 0.42206(14)
C30_6 C 0.16906(15) 0.91702(16) 0.41618(16)
H19_6 H 0.146497 0.892760 0.384223
C31_6 C 0.13425(14) 0.95887(16) 0.45676(16)
H20_6 H 0.088516 0.962811 0.451281
C32_6 C 0.27634(14) 0.86413(14) 0.38007(14)
C33_6 C 0.32723(16) 0.82525(18) 0.40660(15)
H21_6 H 0.336449 0.827281 0.451445
C34_6 C 0.36360(15) 0.78412(16) 0.36668(14)
H22_6 H 0.397276 0.758877 0.385650
C35_6 C 0.30367(16) 0.81488(16) 0.27684(15)
H23_6 H 0.294960 0.811317 0.231987
C36_6 C 0.26535(16) 0.85698(16) 0.31362(15)
H24_6 H 0.231494 0.881025 0.293480
O1_6 O 0.83276(18) 0.22162(17) 0.84376(17)
O2_6 O 0.86775(14) 0.13733(15) 0.78865(15)
O3_6 O 0.96549(10) 0.18306(11) 0.67566(11)
C1_6 C 0.83310(17) 0.1621(2) 0.83334(18)
C2_6 C 0.78806(18) 0.1171(2) 0.87242(17)
C3_6 C 0.7827(3) 0.0507(3) 0.8595(3)
H1_6 H 0.807868 0.031960 0.825791
C4_6 C 0.7408(3) 0.0114(3) 0.8954(3)
C5_6 C 0.7032(2) 0.0382(2) 0.9470(2)
C6_6 C 0.7092(2) 0.1041(2) 0.9583(2)
H3_6 H 0.684287 0.123593 0.991708
C7_6 C 0.7510(2) 0.1428(2) 0.9216(2)
H4_6 H 0.753902 0.188016 0.930748
H16_6 H 0.994407 0.127016 0.567592
C11_4 C 0.5785(3) 0.9140(3) 0.0657(2)
C12_4 C 0.6134(4) 0.9639(4) 0.0903(2)
H7_4 H 0.612665 0.971294 0.135460
C14_4 C 0.5395(2) 0.8681(2) 0.1077(2)
C15_6 C 0.4734(3) 0.8550(3) 0.0951(3)
H9_6 H 0.452216 0.874475 0.059194
C16_6 C 0.4391(2) 0.8129(3) 0.1361(3)
H10_6 H 0.394180 0.805646 0.127912
C17_4 C 0.5325(2) 0.7894(3) 0.1959(2)
H11_4 H 0.554179 0.764603 0.228113
C18_4 C 0.5695(3) 0.8331(3) 0.1582(2)
H12_4 H 0.614557 0.839019 0.166903
C11_5 C 0.0785(3) 0.4140(3) 0.9343(2)
C12_5 C 0.1134(4) 0.4639(4) 0.9097(2)
H7_5 H 0.112665 0.471294 0.864540
C13_4 C 0.1510(4) 0.5053(4) 0.9491(2)
H8_4 H 0.172170 0.541579 0.929916
C14_5 C 0.0395(2) 0.3681(2) 0.8923(2)
C17_5 C 0.0325(2) 0.2894(3) 0.8041(2)
H11_5 H 0.054179 0.264603 0.771887
C18_5 C 0.0695(3) 0.3331(3) 0.8418(2)
H12_5 H 0.114557 0.339019 0.833097
H2_6 H 0.262866 0.033607 0.114479
C8_6 C 0.3418(3) 0.0045(3) 0.0133(2)
C9_6 C 0.3876(4) 0.0485(4) 0.0417(3)
H5_6 H 0.391007 0.050997 0.087313
C10_6 C 0.4276(4) 0.0880(4) 0.0034(3)
H6_6 H 0.458669 0.115943 0.022993
N1_4 N 0.53218(15) 0.21886(14) 0.81181(14)
C11_6 C 0.4215(3) 0.0860(3) 0.9343(2)
C12_6 C 0.3866(4) 0.0361(4) 0.9097(2)
H7_6 H 0.387335 0.028706 0.864540
C14_6 C 0.4605(2) 0.1319(2) 0.8923(2)
C15_7 C 0.5266(3) 0.1450(3) 0.9049(3)
H9_7 H 0.547784 0.125525 0.940806
C16_7 C 0.5609(2) 0.1871(3) 0.8639(3)
H10_7 H 0.605820 0.194354 0.872088
C17_6 C 0.4675(2) 0.2106(3) 0.8041(2)
H11_6 H 0.445821 0.235397 0.771887
C18_6 C 0.4305(3) 0.1669(3) 0.8418(2)
H12_6 H 0.385443 0.160981 0.833097
Zn3_2 Zn 0.58483(2) 0.28351(2) 0.75314(2)
Zn1_4 Zn 0.08483(2) 0.78351(2) 0.24686(2)
O1_7 O 0.16724(18) 0.77838(17) 0.15624(17)
O2_7 O 0.13225(14) 0.86267(15) 0.21135(15)
O3_7 O 0.03451(10) 0.81694(11) 0.32434(11)
C1_7 C 0.16690(17) 0.8379(2) 0.16666(18)
C2_7 C 0.21194(18) 0.8829(2) 0.12758(17)
C3_7 C 0.2173(3) 0.9493(3) 0.1405(3)
H1_7 H 0.192132 0.968040 0.174209
C4_7 C 0.2592(3) 0.9886(3) 0.1046(3)
C5_7 C 0.2968(2) 0.9618(2) 0.0530(2)
C6_7 C 0.2908(2) 0.8959(2) 0.0417(2)
H3_7 H 0.315713 0.876407 0.008292
C7_7 C 0.2490(2) 0.8572(2) 0.0784(2)
H4_7 H 0.246098 0.811984 0.069252
H16_7 H 0.005593 0.872984 0.432408
N3_4 N 0.03218(15) 0.71886(14) 0.18819(14)
N4_4 N 0.14666(11) 0.72160(12) 0.30243(11)
N2_4 N 0.64666(11) 0.22160(12) 0.69757(11)
C26_7 C 0.83479(14) 0.00456(15) 0.49433(14)
C27_7 C 0.76578(15) 0.01070(19) 0.48911(17)
C28_7 C 0.73075(15) 0.05236(19) 0.52953(17)
H18_7 H 0.684915 0.055724 0.524526
C29_7 C 0.76224(14) 0.08976(15) 0.57794(14)
C30_7 C 0.83094(15) 0.08298(16) 0.58382(16)
H19_7 H 0.853503 0.107240 0.615777
C31_7 C 0.86575(14) 0.04113(16) 0.54324(16)
H20_7 H 0.911484 0.037189 0.548719
C32_7 C 0.72366(14) 0.13587(14) 0.61993(14)
C33_7 C 0.67277(16) 0.17475(18) 0.59340(15)
H21_7 H 0.663551 0.172719 0.548555
C34_7 C 0.63640(15) 0.21588(16) 0.63332(14)
H22_7 H 0.602724 0.241123 0.614350
C35_7 C 0.69633(16) 0.18512(16) 0.72316(15)
H23_7 H 0.705040 0.188683 0.768013
C36_7 C 0.73465(16) 0.14302(16) 0.68638(15)
H24_7 H 0.768506 0.118975 0.706520
C15_8 C 0.0266(3) 0.6450(3) 0.0951(3)
H9_8 H 0.047784 0.625525 0.059194
C16_8 C 0.0609(2) 0.6871(3) 0.1361(3)
H10_8 H 0.105820 0.694354 0.127912
O1_8 O 0.66724(18) 0.27838(17) 0.84376(17)
O2_8 O 0.63225(14) 0.36267(15) 0.78865(15)
O3_8 O 0.53451(10) 0.31694(11) 0.67566(11)
O4_6 O 0.46998(19) 0.3559(2) 0.75350(11)
C1_8 C 0.66690(17) 0.3379(2) 0.83334(18)
C2_8 C 0.71194(18) 0.3829(2) 0.87242(17)
C3_8 C 0.7173(3) 0.4493(3) 0.8595(3)
H1_8 H 0.692132 0.468040 0.825791
C4_8 C 0.7592(3) 0.4886(3) 0.8954(3)
H2_7 H 0.762866 0.533607 0.885521
C5_8 C 0.7968(2) 0.4618(2) 0.9470(2)
C6_8 C 0.7908(2) 0.3959(2) 0.9583(2)
H3_8 H 0.815713 0.376407 0.991708
C7_8 C 0.7490(2) 0.3572(2) 0.9216(2)
H4_8 H 0.746098 0.311984 0.930748
C8_7 C 0.8418(3) 0.5045(3) 0.9867(2)
C9_7 C 0.8876(4) 0.5485(4) 0.9583(3)
H5_7 H 0.891007 0.550997 0.912687
C10_7 C 0.9276(4) 0.5880(4) 0.9966(3)
H6_7 H 0.958669 0.615943 0.977007
C19_6 C 0.48515(17) 0.35133(18) 0.69523(16)
C20_6 C 0.44619(16) 0.38868(17) 0.64472(15)
C21_6 C 0.3879(2) 0.4208(3) 0.66275(18)
H13_6 H 0.373132 0.418111 0.706062
C22_6 C 0.3519(2) 0.4565(3) 0.61790(19)
H14_6 H 0.312581 0.476762 0.631043
C23_6 C 0.37299(14) 0.46295(16) 0.55297(15)
C24_6 C 0.43117(14) 0.43116(15) 0.53522(14)
H15_6 H 0.446588 0.434529 0.492167
C25_6 C 0.46680(13) 0.39434(14) 0.58077(14)
H16_8 H 0.505593 0.372984 0.567592
C26_8 C 0.33479(14) 0.50456(15) 0.50567(14)
C27_8 C 0.26578(15) 0.51070(19) 0.51089(17)
H17_6 H 0.243217 0.485960 0.542481
C28_8 C 0.23075(15) 0.55236(19) 0.47047(17)
H18_8 H 0.184915 0.555724 0.475474
C29_8 C 0.26224(14) 0.58976(15) 0.42206(14)
C30_8 C 0.33094(15) 0.58298(16) 0.41618(16)
H19_8 H 0.353503 0.607240 0.384223
C31_8 C 0.36575(14) 0.54113(16) 0.45676(16)
H20_8 H 0.411484 0.537189 0.451281
C32_8 C 0.22366(14) 0.63587(14) 0.38007(14)
C33_8 C 0.17277(16) 0.67475(18) 0.40660(15)
H21_8 H 0.163551 0.672719 0.451445
C34_8 C 0.13640(15) 0.71588(16) 0.36668(14)
H22_8 H 0.102724 0.741123 0.385650
C35_8 C 0.19633(16) 0.68512(16) 0.27684(15)
H23_8 H 0.205040 0.688683 0.231987
C36_8 C 0.23465(16) 0.64302(16) 0.31362(15)
H24_8 H 0.268506 0.618975 0.293480
C13_5 C 0.3490(4) 0.9947(4) 0.9491(2)
H8_5 H 0.327830 0.958421 0.929916
O4_7 O 0.96998(19) 0.8559(2) 0.24650(11)
C19_7 C 0.98515(17) 0.85133(18) 0.30477(16)
C20_7 C 0.94619(16) 0.88868(17) 0.35528(15)
C21_7 C 0.8879(2) 0.9208(3) 0.33725(18)
H13_7 H 0.873132 0.918111 0.293938
C22_7 C 0.8519(2) 0.9565(3) 0.38210(19)
H14_7 H 0.812581 0.976762 0.368957
C23_7 C 0.87299(14) 0.96295(16) 0.44703(15)
C24_7 C 0.93117(14) 0.93116(15) 0.46478(14)
H15_7 H 0.946588 0.934529 0.507833
C25_7 C 0.96680(13) 0.89434(14) 0.41923(14)
H17_7 H 0.743217 0.985960 0.457519
C13_6 C 0.0053(4) 0.8490(4) 0.0509(2)
H8_6 H 0.041579 0.827830 0.070084
C11_7 C 0.9140(3) 0.9215(3) 0.0657(2)
C12_7 C 0.9639(4) 0.8866(4) 0.0903(2)
H7_7 H 0.971294 0.887335 0.135460
C14_7 C 0.8681(2) 0.9605(2) 0.1077(2)
C17_7 C 0.7894(3) 0.9675(2) 0.1959(2)
H11_7 H 0.764603 0.945821 0.228113
C18_7 C 0.8331(3) 0.9305(3) 0.1582(2)
H12_7 H 0.839019 0.885443 0.166903
C11_8 C 0.9215(3) 0.5860(3) 0.0657(2)
C12_8 C 0.8866(4) 0.5361(4) 0.0903(2)
H7_8 H 0.887335 0.528706 0.135460
C13_7 C 0.8490(4) 0.4947(4) 0.0509(2)
H8_7 H 0.827830 0.458421 0.070084
C14_8 C 0.9605(2) 0.6319(2) 0.1077(2)
C17_8 C 0.9675(2) 0.7106(3) 0.1959(2)
H11_8 H 0.945821 0.735397 0.228113
C18_8 C 0.9305(3) 0.6669(3) 0.1582(2)
H12_8 H 0.885443 0.660981 0.166903
O4_8 O 0.03002(19) 0.1441(2) 0.75350(11)
C19_8 C 0.01485(17) 0.14867(18) 0.69523(16)
C20_8 C 0.05381(16) 0.11132(17) 0.64472(15)
C21_8 C 0.1121(2) 0.0792(3) 0.66275(18)
H13_8 H 0.126868 0.081889 0.706062
C22_8 C 0.1481(2) 0.0435(3) 0.61790(19)
H14_8 H 0.187419 0.023238 0.631043
C23_8 C 0.12701(14) 0.03705(16) 0.55297(15)
C24_8 C 0.06883(14) 0.06884(15) 0.53522(14)
H15_8 H 0.053412 0.065471 0.492167
C25_8 C 0.03320(13) 0.10566(14) 0.58077(14)
H17_8 H 0.256783 0.014040 0.542481
C13_8 C 0.6510(4) 0.0053(4) 0.0509(2)
H8_8 H 0.672170 0.041579 0.070084
H2_8 H 0.737134 0.966393 0.885521
C8_8 C 0.6582(3) 0.9955(3) 0.9867(2)
C9_8 C 0.6124(4) 0.9515(4) 0.9583(3)
H5_8 H 0.608993 0.949003 0.912687
C10_8 C 0.5724(4) 0.9120(4) 0.9966(3)
H6_8 H 0.541331 0.884057 0.977007
loop_
_geom_bond_atom_site_label_1
_geom_bond_atom_site_label_2
_geom_bond_site_symmetry_1
_geom_bond_site_symmetry_2
Zn1 O1 1_555 1_555
O1 C1 1_555 1_555
O2 Zn1 1_555 1_555
O3 Zn1 1_555 1_555
C1 O2 1_555 1_555
C2 C1 1_555 1_555
C3 C2 1_555 1_555
H1 C3 1_555 1_555
C4 C3 1_555 1_555
H2 C4 1_555 1_555
C5 C4 1_555 1_555
C6 C5 1_555 1_555
H3 C6 1_555 1_555
C7 C2 1_555 1_555
H4 C7 1_555 1_555
C8 C5 1_555 1_555
C9 C8 1_555 1_555
H5 C9 1_555 1_555
C10 C9 1_555 1_555
H6 C10 1_555 1_555
N3 Zn1 1_555 1_555
N4 Zn1 1_555 1_555
C6 C7 1_555 1_555
N3 C16 1_555 1_555
H9 C15 1_555 1_555
C16 C15 1_555 1_555
H10 C16 1_555 1_555
N4 C34 1_555 1_555
C9_2 C8_2 1_555 1_555
H5_2 C9_2 1_555 1_555
C10_2 C9_2 1_555 1_555
H6_2 C10_2 1_555 1_555
C27 C26 1_555 1_555
C28 C27 1_555 1_555
H18 C28 1_555 1_555
C29 C28 1_555 1_555
C30 C29 1_555 1_555
H19 C30 1_555 1_555
C31 C26 1_555 1_555
H20 C31 1_555 1_555
C32 C29 1_555 1_555
C33 C32 1_555 1_555
H21 C33 1_555 1_555
C34 C33 1_555 1_555
H22 C34 1_555 1_555
C35 N4 1_555 1_555
H23 C35 1_555 1_555
C36 C32 1_555 1_555
H24 C36 1_555 1_555
C30 C31 1_555 1_555
C35 C36 1_555 1_555
N1 C16_2 1_555 1_555
C12 C11 1_555 1_555
H7 C12 1_555 1_555
H8 C13 1_555 1_555
C14 C11 1_555 1_555
C15_2 C14 1_555 1_555
H9_2 C15_2 1_555 1_555
C16_2 C15_2 1_555 1_555
H10_2 C16_2 1_555 1_555
C17 N1 1_555 1_555
H11 C17 1_555 1_555
C18 C14 1_555 1_555
H12 C18 1_555 1_555
Zn3 N1 1_555 1_555
C12 C13 1_555 1_555
C17 C18 1_555 1_555
O4 C19 1_555 1_555
N2 C34_2 1_555 1_555
C20 C19 1_555 1_555
C21 C20 1_555 1_555
H13 C21 1_555 1_555
C22 C21 1_555 1_555
H14 C22 1_555 1_555
C23 C22 1_555 1_555
C24 C23 1_555 1_555
H15 C24 1_555 1_555
C25 C20 1_555 1_555
C26_2 C23 1_555 1_555
C27_2 C26_2 1_555 1_555
H17 C27_2 1_555 1_555
C28_2 C27_2 1_555 1_555
H18_2 C28_2 1_555 1_555
C29_2 C28_2 1_555 1_555
C30_2 C29_2 1_555 1_555
H19_2 C30_2 1_555 1_555
C31_2 C26_2 1_555 1_555
H20_2 C31_2 1_555 1_555
C32_2 C29_2 1_555 1_555
C33_2 C32_2 1_555 1_555
H21_2 C33_2 1_555 1_555
C34_2 C33_2 1_555 1_555
H22_2 C34_2 1_555 1_555
C35_2 N2 1_555 1_555
H23_2 C35_2 1_555 1_555
C36_2 C32_2 1_555 1_555
H24_2 C36_2 1_555 1_555
Zn3 N2 1_555 1_555
C24 C25 1_555 1_555
C30_2 C31_2 1_555 1_555
C35_2 C36_2 1_555 1_555
Zn3 O1_2 1_555 1_555
O1_2 C1_2 1_555 1_555
O2_2 Zn3 1_555 1_555
O3_2 Zn3 1_555 1_555
O4_2 C19_2 1_555 1_555
C1_2 O2_2 1_555 1_555
C2_2 C1_2 1_555 1_555
C3_2 C2_2 1_555 1_555
H1_2 C3_2 1_555 1_555
C4_2 C3_2 1_555 1_555
C5_2 C4_2 1_555 1_555
C6_2 C5_2 1_555 1_555
H3_2 C6_2 1_555 1_555
C7_2 C2_2 1_555 1_555
H4_2 C7_2 1_555 1_555
C19_2 O3_2 1_555 1_555
C20_2 C19_2 1_555 1_555
C21_2 C20_2 1_555 1_555
H13_2 C21_2 1_555 1_555
C22_2 C21_2 1_555 1_555
H14_2 C22_2 1_555 1_555
C23_2 C22_2 1_555 1_555
C24_2 C23_2 1_555 1_555
H15_2 C24_2 1_555 1_555
C25_2 C20_2 1_555 1_555
H16_2 C25_2 1_555 1_555
C6_2 C7_2 1_555 1_555
C24_2 C25_2 1_555 1_555
N2_2 C34_3 1_555 1_555
C9_3 C8_3 1_555 1_555
H5_3 C9_3 1_555 1_555
C10_3 C9_3 1_555 1_555
H6_3 C10_3 1_555 1_555
C27_3 C26_3 1_555 1_555
C28_3 C27_3 1_555 1_555
H18_3 C28_3 1_555 1_555
C29_3 C28_3 1_555 1_555
C30_3 C29_3 1_555 1_555
H19_3 C30_3 1_555 1_555
C31_3 C26_3 1_555 1_555
H20_3 C31_3 1_555 1_555
C32_3 C29_3 1_555 1_555
C33_3 C32_3 1_555 1_555
H21_3 C33_3 1_555 1_555
C34_3 C33_3 1_555 1_555
H22_3 C34_3 1_555 1_555
C35_3 N2_2 1_555 1_555
H23_3 C35_3 1_555 1_555
C36_3 C32_3 1_555 1_555
H24_3 C36_3 1_555 1_555
Zn2 N2_2 1_555 1_555
C30_3 C31_3 1_555 1_555
C35_3 C36_3 1_555 1_555
N1_2 C16_3 1_555 1_555
H9_3 C15_3 1_555 1_555
C16_3 C15_3 1_555 1_555
H10_3 C16_3 1_555 1_555
Zn2 N1_2 1_555 1_555
Zn2 O1_3 1_555 1_555
O1_3 C1_3 1_555 1_555
O2_3 Zn2 1_555 1_555
O3_3 Zn2 1_555 1_555
C1_3 O2_3 1_555 1_555
C2_3 C1_3 1_555 1_555
C3_3 C2_3 1_555 1_555
H1_3 C3_3 1_555 1_555
C4_3 C3_3 1_555 1_555
H2_4 C4_3 1_555 1_555
C5_3 C4_3 1_555 1_555
C6_3 C5_3 1_555 1_555
H3_3 C6_3 1_555 1_555
C7_3 C2_3 1_555 1_555
H4_3 C7_3 1_555 1_555
C8_4 C5_3 1_555 1_555
C9_4 C8_4 1_555 1_555
H5_4 C9_4 1_555 1_555
C10_4 C9_4 1_555 1_555
H6_4 C10_4 1_555 1_555
C6_3 C7_3 1_555 1_555
C12_2 C11_2 1_555 1_555
H7_2 C12_2 1_555 1_555
C14_2 C11_2 1_555 1_555
H11_2 C17_2 1_555 1_555
C18_2 C14_2 1_555 1_555
H12_2 C18_2 1_555 1_555
C17_2 C18_2 1_555 1_555
Zn1_2 O1_4 1_555 1_555
O1_4 C1_4 1_555 1_555
O2_4 Zn1_2 1_555 1_555
O3_4 Zn1_2 1_555 1_555
O4_3 C19_3 1_555 1_555
C1_4 O2_4 1_555 1_555
C2_4 C1_4 1_555 1_555
C3_4 C2_4 1_555 1_555
H1_4 C3_4 1_555 1_555
C4_4 C3_4 1_555 1_555
C5_4 C4_4 1_555 1_555
C6_4 C5_4 1_555 1_555
H3_4 C6_4 1_555 1_555
C7_4 C2_4 1_555 1_555
H4_4 C7_4 1_555 1_555
C19_3 O3_4 1_555 1_555
C20_3 C19_3 1_555 1_555
C21_3 C20_3 1_555 1_555
H13_3 C21_3 1_555 1_555
C22_3 C21_3 1_555 1_555
H14_3 C22_3 1_555 1_555
C23_3 C22_3 1_555 1_555
C24_3 C23_3 1_555 1_555
H15_3 C24_3 1_555 1_555
C25_3 C20_3 1_555 1_555
H16_4 C25_3 1_555 1_555
N3_2 Zn1_2 1_555 1_555
N4_2 Zn1_2 1_555 1_555
C6_4 C7_4 1_555 1_555
C24_3 C25_3 1_555 1_555
O4_4 C19_4 1_555 1_555
N4_2 C34_4 1_555 1_555
C20_4 C19_4 1_555 1_555
C21_4 C20_4 1_555 1_555
H13_4 C21_4 1_555 1_555
C22_4 C21_4 1_555 1_555
H14_4 C22_4 1_555 1_555
C23_4 C22_4 1_555 1_555
C24_4 C23_4 1_555 1_555
H15_4 C24_4 1_555 1_555
C25_4 C20_4 1_555 1_555
C26_4 C23_4 1_555 1_555
C27_4 C26_4 1_555 1_555
H17_4 C27_4 1_555 1_555
C28_4 C27_4 1_555 1_555
H18_4 C28_4 1_555 1_555
C29_4 C28_4 1_555 1_555
C30_4 C29_4 1_555 1_555
H19_4 C30_4 1_555 1_555
C31_4 C26_4 1_555 1_555
H20_4 C31_4 1_555 1_555
C32_4 C29_4 1_555 1_555
C33_4 C32_4 1_555 1_555
H21_4 C33_4 1_555 1_555
C34_4 C33_4 1_555 1_555
H22_4 C34_4 1_555 1_555
C35_4 N4_2 1_555 1_555
H23_4 C35_4 1_555 1_555
C36_4 C32_4 1_555 1_555
H24_4 C36_4 1_555 1_555
C24_4 C25_4 1_555 1_555
C30_4 C31_4 1_555 1_555
C35_4 C36_4 1_555 1_555
N3_2 C16_4 1_555 1_555
C12_3 C11_3 1_555 1_555
H7_3 C12_3 1_555 1_555
H8_2 C13_2 1_555 1_555
C14_3 C11_3 1_555 1_555
C15_4 C14_3 1_555 1_555
H9_4 C15_4 1_555 1_555
C16_4 C15_4 1_555 1_555
H10_4 C16_4 1_555 1_555
C17_3 N3_2 1_555 1_555
H11_3 C17_3 1_555 1_555
C18_3 C14_3 1_555 1_555
H12_3 C18_3 1_555 1_555
C12_3 C13_2 1_555 1_555
C17_3 C18_3 1_555 1_555
H8_3 C13_3 1_555 1_555
Zn1_3 O1_5 1_555 1_555
O1_5 C1_5 1_555 1_555
O2_5 Zn1_3 1_555 1_555
O3_5 Zn1_3 1_555 1_555
O4_5 C19_5 1_555 1_555
N2_3 C34_5 1_555 1_555
C1_5 O2_5 1_555 1_555
C2_5 C1_5 1_555 1_555
C3_5 C2_5 1_555 1_555
H1_5 C3_5 1_555 1_555
C4_5 C3_5 1_555 1_555
H2_5 C4_5 1_555 1_555
C5_5 C4_5 1_555 1_555
C6_5 C5_5 1_555 1_555
H3_5 C6_5 1_555 1_555
C7_5 C2_5 1_555 1_555
H4_5 C7_5 1_555 1_555
C8_5 C5_5 1_555 1_555
C9_5 C8_5 1_555 1_555
H5_5 C9_5 1_555 1_555
C10_5 C9_5 1_555 1_555
H6_5 C10_5 1_555 1_555
C19_5 O3_5 1_555 1_555
C20_5 C19_5 1_555 1_555
C21_5 C20_5 1_555 1_555
H13_5 C21_5 1_555 1_555
C22_5 C21_5 1_555 1_555
H14_5 C22_5 1_555 1_555
C23_5 C22_5 1_555 1_555
C24_5 C23_5 1_555 1_555
H15_5 C24_5 1_555 1_555
C25_5 C20_5 1_555 1_555
H16_5 C25_5 1_555 1_555
C26_5 C23_5 1_555 1_555
C27_5 C26_5 1_555 1_555
H17_5 C27_5 1_555 1_555
C28_5 C27_5 1_555 1_555
H18_5 C28_5 1_555 1_555
C29_5 C28_5 1_555 1_555
C30_5 C29_5 1_555 1_555
H19_5 C30_5 1_555 1_555
C31_5 C26_5 1_555 1_555
H20_5 C31_5 1_555 1_555
C32_5 C29_5 1_555 1_555
C33_5 C32_5 1_555 1_555
H21_5 C33_5 1_555 1_555
C34_5 C33_5 1_555 1_555
H22_5 C34_5 1_555 1_555
C35_5 N2_3 1_555 1_555
H23_5 C35_5 1_555 1_555
C36_5 C32_5 1_555 1_555
H24_5 C36_5 1_555 1_555
Zn2_2 N2_3 1_555 1_555
N3_3 Zn1_3 1_555 1_555
N4_3 Zn1_3 1_555 1_555
C6_5 C7_5 1_555 1_555
C24_5 C25_5 1_555 1_555
C30_5 C31_5 1_555 1_555
C35_5 C36_5 1_555 1_555
N1_3 C16_5 1_555 1_555
H9_5 C15_5 1_555 1_555
C16_5 C15_5 1_555 1_555
H10_5 C16_5 1_555 1_555
Zn2_2 N1_3 1_555 1_555
N4_3 C34_6 1_555 1_555
C27_6 C26_6 1_555 1_555
C28_6 C27_6 1_555 1_555
H18_6 C28_6 1_555 1_555
C29_6 C28_6 1_555 1_555
C30_6 C29_6 1_555 1_555
H19_6 C30_6 1_555 1_555
C31_6 C26_6 1_555 1_555
H20_6 C31_6 1_555 1_555
C32_6 C29_6 1_555 1_555
C33_6 C32_6 1_555 1_555
H21_6 C33_6 1_555 1_555
C34_6 C33_6 1_555 1_555
H22_6 C34_6 1_555 1_555
C35_6 N4_3 1_555 1_555
H23_6 C35_6 1_555 1_555
C36_6 C32_6 1_555 1_555
H24_6 C36_6 1_555 1_555
C30_6 C31_6 1_555 1_555
C35_6 C36_6 1_555 1_555
Zn2_2 O1_6 1_555 1_555
O1_6 C1_6 1_555 1_555
O2_6 Zn2_2 1_555 1_555
O3_6 Zn2_2 1_555 1_555
C1_6 O2_6 1_555 1_555
C2_6 C1_6 1_555 1_555
C3_6 C2_6 1_555 1_555
H1_6 C3_6 1_555 1_555
C4_6 C3_6 1_555 1_555
C5_6 C4_6 1_555 1_555
C6_6 C5_6 1_555 1_555
H3_6 C6_6 1_555 1_555
C7_6 C2_6 1_555 1_555
H4_6 C7_6 1_555 1_555
C6_6 C7_6 1_555 1_555
N3_3 C16_6 1_555 1_555
C12_4 C11_4 1_555 1_555
H7_4 C12_4 1_555 1_555
C14_4 C11_4 1_555 1_555
C15_6 C14_4 1_555 1_555
H9_6 C15_6 1_555 1_555
C16_6 C15_6 1_555 1_555
H10_6 C16_6 1_555 1_555
C17_4 N3_3 1_555 1_555
H11_4 C17_4 1_555 1_555
C18_4 C14_4 1_555 1_555
H12_4 C18_4 1_555 1_555
C17_4 C18_4 1_555 1_555
C12_5 C11_5 1_555 1_555
H7_5 C12_5 1_555 1_555
H8_4 C13_4 1_555 1_555
C14_5 C11_5 1_555 1_555
H11_5 C17_5 1_555 1_555
C18_5 C14_5 1_555 1_555
H12_5 C18_5 1_555 1_555
C12_5 C13_4 1_555 1_555
C17_5 C18_5 1_555 1_555
C9_6 C8_6 1_555 1_555
H5_6 C9_6 1_555 1_555
C10_6 C9_6 1_555 1_555
H6_6 C10_6 1_555 1_555
N1_4 C16_7 1_555 1_555
C12_6 C11_6 1_555 1_555
H7_6 C12_6 1_555 1_555
C14_6 C11_6 1_555 1_555
C15_7 C14_6 1_555 1_555
H9_7 C15_7 1_555 1_555
C16_7 C15_7 1_555 1_555
H10_7 C16_7 1_555 1_555
C17_6 N1_4 1_555 1_555
H11_6 C17_6 1_555 1_555
C18_6 C14_6 1_555 1_555
H12_6 C18_6 1_555 1_555
Zn3_2 N1_4 1_555 1_555
C17_6 C18_6 1_555 1_555
Zn1_4 O1_7 1_555 1_555
O1_7 C1_7 1_555 1_555
O2_7 Zn1_4 1_555 1_555
O3_7 Zn1_4 1_555 1_555
C1_7 O2_7 1_555 1_555
C2_7 C1_7 1_555 1_555
C3_7 C2_7 1_555 1_555
H1_7 C3_7 1_555 1_555
C4_7 C3_7 1_555 1_555
C5_7 C4_7 1_555 1_555
C6_7 C5_7 1_555 1_555
H3_7 C6_7 1_555 1_555
C7_7 C2_7 1_555 1_555
H4_7 C7_7 1_555 1_555
N3_4 Zn1_4 1_555 1_555
N4_4 Zn1_4 1_555 1_555
C6_7 C7_7 1_555 1_555
N2_4 C34_7 1_555 1_555
C27_7 C26_7 1_555 1_555
C28_7 C27_7 1_555 1_555
H18_7 C28_7 1_555 1_555
C29_7 C28_7 1_555 1_555
C30_7 C29_7 1_555 1_555
H19_7 C30_7 1_555 1_555
C31_7 C26_7 1_555 1_555
H20_7 C31_7 1_555 1_555
C32_7 C29_7 1_555 1_555
C33_7 C32_7 1_555 1_555
H21_7 C33_7 1_555 1_555
C34_7 C33_7 1_555 1_555
H22_7 C34_7 1_555 1_555
C35_7 N2_4 1_555 1_555
H23_7 C35_7 1_555 1_555
C36_7 C32_7 1_555 1_555
H24_7 C36_7 1_555 1_555
Zn3_2 N2_4 1_555 1_555
C30_7 C31_7 1_555 1_555
C35_7 C36_7 1_555 1_555
N3_4 C16_8 1_555 1_555
H9_8 C15_8 1_555 1_555
C16_8 C15_8 1_555 1_555
H10_8 C16_8 1_555 1_555
Zn3_2 O1_8 1_555 1_555
O1_8 C1_8 1_555 1_555
O2_8 Zn3_2 1_555 1_555
O3_8 Zn3_2 1_555 1_555
O4_6 C19_6 1_555 1_555
N4_4 C34_8 1_555 1_555
C1_8 O2_8 1_555 1_555
C2_8 C1_8 1_555 1_555
C3_8 C2_8 1_555 1_555
H1_8 C3_8 1_555 1_555
C4_8 C3_8 1_555 1_555
H2_7 C4_8 1_555 1_555
C5_8 C4_8 1_555 1_555
C6_8 C5_8 1_555 1_555
H3_8 C6_8 1_555 1_555
C7_8 C2_8 1_555 1_555
H4_8 C7_8 1_555 1_555
C8_7 C5_8 1_555 1_555
C9_7 C8_7 1_555 1_555
H5_7 C9_7 1_555 1_555
C10_7 C9_7 1_555 1_555
H6_7 C10_7 1_555 1_555
C19_6 O3_8 1_555 1_555
C20_6 C19_6 1_555 1_555
C21_6 C20_6 1_555 1_555
H13_6 C21_6 1_555 1_555
C22_6 C21_6 1_555 1_555
H14_6 C22_6 1_555 1_555
C23_6 C22_6 1_555 1_555
C24_6 C23_6 1_555 1_555
H15_6 C24_6 1_555 1_555
C25_6 C20_6 1_555 1_555
H16_8 C25_6 1_555 1_555
C26_8 C23_6 1_555 1_555
C27_8 C26_8 1_555 1_555
H17_6 C27_8 1_555 1_555
C28_8 C27_8 1_555 1_555
H18_8 C28_8 1_555 1_555
C29_8 C28_8 1_555 1_555
C30_8 C29_8 1_555 1_555
H19_8 C30_8 1_555 1_555
C31_8 C26_8 1_555 1_555
H20_8 C31_8 1_555 1_555
C32_8 C29_8 1_555 1_555
C33_8 C32_8 1_555 1_555
H21_8 C33_8 1_555 1_555
C34_8 C33_8 1_555 1_555
H22_8 C34_8 1_555 1_555
C35_8 N4_4 1_555 1_555
H23_8 C35_8 1_555 1_555
C36_8 C32_8 1_555 1_555
H24_8 C36_8 1_555 1_555
C6_8 C7_8 1_555 1_555
C24_6 C25_6 1_555 1_555
C30_8 C31_8 1_555 1_555
C35_8 C36_8 1_555 1_555
H8_5 C13_5 1_555 1_555
O4_7 C19_7 1_555 1_555
C20_7 C19_7 1_555 1_555
C21_7 C20_7 1_555 1_555
H13_7 C21_7 1_555 1_555
C22_7 C21_7 1_555 1_555
H14_7 C22_7 1_555 1_555
C23_7 C22_7 1_555 1_555
C24_7 C23_7 1_555 1_555
H15_7 C24_7 1_555 1_555
C25_7 C20_7 1_555 1_555
C24_7 C25_7 1_555 1_555
H8_6 C13_6 1_555 1_555
C12_7 C11_7 1_555 1_555
H7_7 C12_7 1_555 1_555
C14_7 C11_7 1_555 1_555
H11_7 C17_7 1_555 1_555
C18_7 C14_7 1_555 1_555
H12_7 C18_7 1_555 1_555
C17_7 C18_7 1_555 1_555
C12_8 C11_8 1_555 1_555
H7_8 C12_8 1_555 1_555
H8_7 C13_7 1_555 1_555
C14_8 C11_8 1_555 1_555
H11_8 C17_8 1_555 1_555
C18_8 C14_8 1_555 1_555
H12_8 C18_8 1_555 1_555
C12_8 C13_7 1_555 1_555
C17_8 C18_8 1_555 1_555
O4_8 C19_8 1_555 1_555
C20_8 C19_8 1_555 1_555
C21_8 C20_8 1_555 1_555
H13_8 C21_8 1_555 1_555
C22_8 C21_8 1_555 1_555
H14_8 C22_8 1_555 1_555
C23_8 C22_8 1_555 1_555
C24_8 C23_8 1_555 1_555
H15_8 C24_8 1_555 1_555
C25_8 C20_8 1_555 1_555
C24_8 C25_8 1_555 1_555
H8_8 C13_8 1_555 1_555
C9_8 C8_8 1_555 1_555
H5_8 C9_8 1_555 1_555
C10_8 C9_8 1_555 1_555
H6_8 C10_8 1_555 1_555

#END
