
###############################################################################
#
# This file contains modified crystal structure data generated from the
# MOF subset of the Cambridge Structural Database (CSD) v543 
# hosted by the Cambridge Crystallographic Data Centre (CCDC).
#
# This work is licensed under the Creative Commons
# Attribution-NonCommercial-ShareAlike 4.0 International License.
# To view a copy of this license, visit
# http://creativecommons.org/licenses/by-nc-sa/4.0/
# or send a letter to
# Creative Commons, PO Box 1866, Mountain View, CA 94042, USA.
#
# CIF created using the CSD Python API on 29 September 2022
# The structure has been converted into the P1 space group
# The structure has a 3D framework
# The original CSD entry FIZYAR is in the tetragonal crystal system
# The framework has been calculated to contain at least 10.0% void space
# The void calculation uses a probe of radius 1.32A, grid spacing 0.4
#
###############################################################################

data_FIZYAR
_chemical_formula_moiety         '(C288 H192 Cd8 N16 O28)n'
_symmetry_cell_setting           triclinic
_symmetry_space_group_name_H-M   'P 1'
_symmetry_Int_Tables_number      1
_space_group_name_Hall           'P 1'
loop_
_symmetry_equiv_pos_site_id
_symmetry_equiv_pos_as_xyz
1 x,y,z
_cell_length_a                   20.7262(9)
_cell_length_b                   20.7262(9)
_cell_length_c                   20.0378(14)
_cell_angle_alpha                90
_cell_angle_beta                 90
_cell_angle_gamma                90
_cell_volume                     8607.75
loop_
_atom_site_label
_atom_site_type_symbol
_atom_site_fract_x
_atom_site_fract_y
_atom_site_fract_z
O1 O 0.67405(16) 0.04113(16) 0.65309(15)
H3 H 0.622746 0.000672 0.548741
Cd3 Cd 0.70838(2) 0.08015(2) 0.75369(2)
O2 O 0.62355(16) 0.13765(17) 0.78843(17)
O3 O 0.70929(18) 0.15834(17) 0.84645(16)
C1 C 0.6512(3) 0.1673(2) 0.8342(2)
C8 C 0.6145(2) 0.2146(2) 0.8749(2)
C16 C 0.6435(2) 0.2501(3) 0.9253(2)
H8 H 0.687371 0.245109 0.933752
C20 C 0.6083(3) 0.2922(2) 0.9623(3)
H12 H 0.628521 0.314345 0.996797
C21 C 0.5447(3) 0.3033(3) 0.9508(3)
C24 C 0.5057(3) 0.3493(3) 0.9916(3)
C32 C 0.5506(3) 0.2267(4) 0.8601(3)
H20 H 0.530991 0.206264 0.824090
C34 C 0.5160(3) 0.2692(4) 0.8988(3)
H22 H 0.472338 0.275275 0.890011
C35 C 0.4223(4) 0.4324(3) 0.9992(3)
H23 H 0.393592 0.460804 0.978981
C36 C 0.4633(4) 0.3935(4) 0.9598(3)
H24 H 0.462559 0.396772 0.913551
N1 N 0.77611(16) 0.14791(17) 0.69537(16)
N2 N 0.7839(2) 0.0277(2) 0.8148(2)
C2 C 0.8612(2) 0.22365(19) 0.6198(2)
C3 C 0.8546(2) 0.2318(2) 0.6875(2)
H1 H 0.878942 0.262941 0.709617
C4 C 0.8119(2) 0.1938(2) 0.7227(2)
H2 H 0.807953 0.200793 0.768323
C6 C 0.9070(2) 0.2613(2) 0.5797(2)
C9 C 0.9915(2) 0.3352(2) 0.4989(2)
C12 C 0.8227(2) 0.1767(2) 0.5915(2)
H4 H 0.824750 0.169290 0.545779
C13 C 0.9820(2) 0.2692(2) 0.4893(2)
C15 C 0.9154(3) 0.3277(2) 0.5898(2)
H7 H 0.892766 0.348311 0.623752
C17 C 0.7818(2) 0.1410(2) 0.6300(2)
H9 H 0.756443 0.110008 0.609064
C18 C 0.9414(2) 0.2342(2) 0.5288(2)
H10 H 0.937026 0.190239 0.520774
C19 C 0.9573(2) 0.3633(2) 0.5498(2)
H11 H 0.962096 0.407263 0.557684
C23 C 0.8136(3) 0.0555(3) 0.8670(3)
H13 H 0.802678 0.097811 0.877634
C25 C 0.8591(3) 0.0251(3) 0.9054(3)
H14 H 0.877828 0.046141 0.941556
Cd1 Cd 0.20838(2) 0.58015(2) 0.24631(2)
N1_2 N 0.27611(16) 0.64791(17) 0.30463(16)
O4 O 0.6514(2) 0.97871(19) 0.73776(18)
N2_2 N 0.2839(2) 0.5277(2) 0.1852(2)
C2_2 C 0.3612(2) 0.72365(19) 0.3802(2)
C3_2 C 0.3546(2) 0.7318(2) 0.3125(2)
H1_2 H 0.378942 0.762941 0.290383
C4_2 C 0.3119(2) 0.6938(2) 0.2773(2)
H2_2 H 0.307953 0.700793 0.231677
C5 C 0.6481(2) 0.9925(2) 0.6770(2)
C6_2 C 0.4070(2) 0.7613(2) 0.4203(2)
C7 C 0.6093(2) 0.9499(2) 0.6307(2)
C9_2 C 0.4915(2) 0.8352(2) 0.5011(2)
C10 C 0.5327(2) 0.8742(2) 0.5453(2)
C11 C 0.6019(2) 0.9645(2) 0.5656(2)
C12_2 C 0.3227(2) 0.6767(2) 0.4085(2)
H4_2 H 0.324750 0.669290 0.454221
C13_2 C 0.4820(2) 0.7692(2) 0.5107(2)
H5 H 0.503955 0.748492 0.545089
C14 C 0.5646(2) 0.9280(2) 0.5232(2)
H6 H 0.560938 0.940047 0.478635
C15_2 C 0.4154(3) 0.8277(2) 0.4102(2)
H7_2 H 0.392766 0.848311 0.376248
C17_2 C 0.2818(2) 0.6410(2) 0.3700(2)
H9_2 H 0.256443 0.610008 0.390936
C18_2 C 0.4414(2) 0.7342(2) 0.4712(2)
H10_2 H 0.437026 0.690239 0.479226
C19_2 C 0.4573(2) 0.8633(2) 0.4502(2)
H11_2 H 0.462096 0.907263 0.442316
C22 C 0.3763(3) 0.4635(3) 0.1104(3)
C23_2 C 0.3136(3) 0.5555(3) 0.1330(3)
H13_2 H 0.302678 0.597811 0.122366
C25_2 C 0.3591(3) 0.5251(3) 0.0946(3)
H14_2 H 0.377828 0.546141 0.058444
C26 C 0.5779(3) 0.8956(3) 0.6541(3)
H15 H 0.582301 0.883443 0.698512
C27 C 0.4252(3) 0.4278(3) 0.0692(3)
C28 C 0.5401(3) 0.8596(3) 0.6119(3)
H16 H 0.518665 0.823780 0.629039
C29 C 0.2984(3) 0.4672(3) 0.1976(3)
H17 H 0.275577 0.445507 0.230716
C30 C 0.5111(3) 0.3526(3) 0.0564(3)
H18 H 0.542961 0.328249 0.077288
C31 C 0.4708(4) 0.3913(3) 0.0959(3)
H19 H 0.476209 0.391285 0.141953
C33 C 0.3468(4) 0.4338(3) 0.1630(3)
H21 H 0.358683 0.392327 0.175671
O5 O 0.17405(16) 0.54113(16) 0.34691(15)
O6 O 0.12355(16) 0.63765(17) 0.21157(17)
O7 O 0.20929(18) 0.65834(17) 0.15355(16)
O8 O 0.1514(2) 0.47871(19) 0.26224(18)
C5_2 C 0.1481(2) 0.4925(2) 0.3230(2)
C7_2 C 0.1093(2) 0.4499(2) 0.3693(2)
C10_2 C 0.0327(2) 0.3742(2) 0.4547(2)
C11_2 C 0.1019(2) 0.4645(2) 0.4344(2)
H3_2 H 0.122746 0.500672 0.451259
H5_2 H 0.003955 0.248492 0.454911
C14_2 C 0.0646(2) 0.4280(2) 0.4768(2)
H6_2 H 0.060938 0.440047 0.521365
C26_2 C 0.0779(3) 0.3956(3) 0.3459(3)
H15_2 H 0.082301 0.383443 0.301488
C28_2 C 0.0401(3) 0.3596(3) 0.3881(3)
H16_2 H 0.018665 0.323780 0.370961
C1_2 C 0.1512(3) 0.6673(2) 0.1658(2)
C8_2 C 0.1145(2) 0.7146(2) 0.1251(2)
C16_2 C 0.1435(2) 0.7501(3) 0.0747(2)
H8_2 H 0.187371 0.745109 0.066248
C20_2 C 0.1083(3) 0.7922(2) 0.0377(3)
H12_2 H 0.128521 0.814345 0.003203
C21_2 C 0.0447(3) 0.8033(3) 0.0492(3)
C24_2 C 0.0057(3) 0.8493(3) 0.0084(3)
C32_2 C 0.0506(3) 0.7267(4) 0.1399(3)
H20_2 H 0.030991 0.706264 0.175910
C34_2 C 0.0160(3) 0.7692(4) 0.1012(3)
C22_2 C 0.8763(3) 0.9635(3) 0.8896(3)
C27_2 C 0.9252(3) 0.9278(3) 0.9308(3)
C29_2 C 0.7984(3) 0.9672(3) 0.8024(3)
H17_2 H 0.775577 0.945507 0.769284
C31_2 C 0.9708(4) 0.8913(3) 0.9041(3)
H19_2 H 0.976209 0.891285 0.858047
C33_2 C 0.8468(4) 0.9338(3) 0.8370(3)
H21_2 H 0.858683 0.892327 0.824329
C22_3 C 0.1237(3) 0.0365(3) 0.1104(3)
C27_3 C 0.0748(3) 0.0722(3) 0.0692(3)
C29_3 C 0.2016(3) 0.0328(3) 0.1976(3)
H17_3 H 0.224423 0.054493 0.230716
C31_3 C 0.0292(4) 0.1087(3) 0.0959(3)
H19_3 H 0.023791 0.108715 0.141953
C33_3 C 0.1532(4) 0.0662(3) 0.1630(3)
H21_3 H 0.141317 0.107673 0.175671
O8_2 O 0.3486(2) 0.02129(19) 0.26224(18)
O2_2 O 0.87645(16) 0.36235(17) 0.78843(17)
O3_2 O 0.79071(18) 0.34166(17) 0.84645(16)
C1_3 C 0.8488(3) 0.3327(2) 0.8342(2)
C8_3 C 0.8855(2) 0.2854(2) 0.8749(2)
C16_3 C 0.8565(2) 0.2499(3) 0.9253(2)
H8_3 H 0.812629 0.254891 0.933752
C20_3 C 0.8917(3) 0.2078(2) 0.9623(3)
H12_3 H 0.871479 0.185655 0.996797
C21_3 C 0.9553(3) 0.1967(3) 0.9508(3)
C24_3 C 0.9943(3) 0.1507(3) 0.9916(3)
C32_3 C 0.9494(3) 0.2733(4) 0.8601(3)
H20_3 H 0.969009 0.293736 0.824090
C34_3 C 0.9840(3) 0.2308(4) 0.8988(3)
Cd2 Cd 0.79162(2) 0.41985(2) 0.75369(2)
O1_2 O 0.82595(16) 0.45887(16) 0.65309(15)
O4_2 O 0.8486(2) 0.52129(19) 0.73776(18)
C5_3 C 0.8519(2) 0.5075(2) 0.6770(2)
C7_3 C 0.8907(2) 0.5501(2) 0.6307(2)
C10_3 C 0.9673(2) 0.6258(2) 0.5453(2)
C11_3 C 0.8981(2) 0.5355(2) 0.5656(2)
H3_3 H 0.877254 0.499328 0.548741
H5_3 H 0.996045 0.751508 0.545089
C14_3 C 0.9354(2) 0.5720(2) 0.5232(2)
H6_3 H 0.939062 0.559953 0.478635
C26_3 C 0.9221(3) 0.6044(3) 0.6541(3)
H15_3 H 0.917699 0.616557 0.698512
C28_3 C 0.9599(3) 0.6404(3) 0.6119(3)
H16_3 H 0.981335 0.676220 0.629039
N1_3 N 0.72389(16) 0.35209(17) 0.69537(16)
N2_3 N 0.7161(2) 0.4723(2) 0.8148(2)
C2_3 C 0.6388(2) 0.27635(19) 0.6198(2)
C3_3 C 0.6454(2) 0.2682(2) 0.6875(2)
H1_3 H 0.621058 0.237059 0.709617
C4_3 C 0.6881(2) 0.3062(2) 0.7227(2)
H2_3 H 0.692047 0.299207 0.768323
C5_4 C 0.3519(2) 0.0075(2) 0.3230(2)
C6_3 C 0.5930(2) 0.2387(2) 0.5797(2)
C7_4 C 0.3907(2) 0.0501(2) 0.3693(2)
C9_3 C 0.5085(2) 0.1648(2) 0.4989(2)
C10_4 C 0.4673(2) 0.1258(2) 0.4547(2)
C11_4 C 0.3981(2) 0.0355(2) 0.4344(2)
C12_3 C 0.6773(2) 0.3233(2) 0.5915(2)
H4_3 H 0.675250 0.330710 0.545779
C13_3 C 0.5180(2) 0.2308(2) 0.4893(2)
H5_4 H 0.496045 0.251508 0.454911
C14_4 C 0.4354(2) 0.0720(2) 0.4768(2)
H6_4 H 0.439062 0.059953 0.521365
C15_3 C 0.5846(3) 0.1723(2) 0.5898(2)
H7_3 H 0.607234 0.151689 0.623752
C17_3 C 0.7182(2) 0.3590(2) 0.6300(2)
H9_3 H 0.743557 0.389992 0.609064
C18_3 C 0.5586(2) 0.2658(2) 0.5288(2)
H10_3 H 0.562974 0.309761 0.520774
C19_3 C 0.5427(2) 0.1367(2) 0.5498(2)
H11_3 H 0.537904 0.092737 0.557684
C22_4 C 0.6237(3) 0.5365(3) 0.8896(3)
C23_3 C 0.6864(3) 0.4445(3) 0.8670(3)
H13_3 H 0.697322 0.402189 0.877634
C25_3 C 0.6409(3) 0.4749(3) 0.9054(3)
H14_3 H 0.622172 0.453859 0.941556
C26_4 C 0.4221(3) 0.1044(3) 0.3459(3)
H15_4 H 0.417699 0.116557 0.301488
C27_4 C 0.5748(3) 0.5722(3) 0.9308(3)
C28_4 C 0.4599(3) 0.1404(3) 0.3881(3)
H16_4 H 0.481335 0.176220 0.370961
C29_4 C 0.7016(3) 0.5328(3) 0.8024(3)
H17_4 H 0.724423 0.554493 0.769284
C30_2 C 0.4889(3) 0.6474(3) 0.9436(3)
H18_2 H 0.457039 0.671751 0.922712
C31_4 C 0.5292(4) 0.6087(3) 0.9041(3)
H19_4 H 0.523791 0.608715 0.858047
C33_4 C 0.6532(4) 0.5662(3) 0.8370(3)
H21_4 H 0.641317 0.607673 0.824329
H22_2 H 0.027662 0.224725 0.890011
C35_2 C 0.0777(4) 0.0676(3) 0.9992(3)
H23_2 H 0.106408 0.039196 0.978981
C36_2 C 0.0367(4) 0.1065(4) 0.9598(3)
H24_2 H 0.037441 0.103228 0.913551
Cd1_2 Cd 0.29162(2) 0.91985(2) 0.24631(2)
N1_4 N 0.22389(16) 0.85209(17) 0.30463(16)
N2_4 N 0.2161(2) 0.9723(2) 0.1852(2)
C2_4 C 0.1388(2) 0.77635(19) 0.3802(2)
C3_4 C 0.1454(2) 0.7682(2) 0.3125(2)
H1_4 H 0.121058 0.737059 0.290383
C4_4 C 0.1881(2) 0.8062(2) 0.2773(2)
H2_4 H 0.192047 0.799207 0.231677
C6_4 C 0.0930(2) 0.7387(2) 0.4203(2)
C9_4 C 0.0085(2) 0.6648(2) 0.5011(2)
C12_4 C 0.1773(2) 0.8233(2) 0.4085(2)
H4_4 H 0.175250 0.830710 0.454221
C13_4 C 0.0180(2) 0.7308(2) 0.5107(2)
C15_4 C 0.0846(3) 0.6723(2) 0.4102(2)
H7_4 H 0.107234 0.651689 0.376248
C17_4 C 0.2182(2) 0.8590(2) 0.3700(2)
H9_4 H 0.243557 0.889992 0.390936
C18_4 C 0.0586(2) 0.7658(2) 0.4712(2)
H10_4 H 0.062974 0.809761 0.479226
C19_4 C 0.0427(2) 0.6367(2) 0.4502(2)
H11_4 H 0.037904 0.592737 0.442316
C23_4 C 0.1864(3) 0.9445(3) 0.1330(3)
H13_4 H 0.197322 0.902189 0.122366
C25_4 C 0.1409(3) 0.9749(3) 0.0946(3)
H14_4 H 0.122172 0.953859 0.058444
O5_2 O 0.32595(16) 0.95887(16) 0.34691(15)
O6_2 O 0.37645(16) 0.86235(17) 0.21157(17)
O7_2 O 0.29071(18) 0.84166(17) 0.15355(16)
C1_4 C 0.3488(3) 0.8327(2) 0.1658(2)
C8_4 C 0.3855(2) 0.7854(2) 0.1251(2)
C16_4 C 0.3565(2) 0.7499(3) 0.0747(2)
H8_4 H 0.312629 0.754891 0.066248
C20_4 C 0.3917(3) 0.7078(2) 0.0377(3)
H12_4 H 0.371479 0.685655 0.003203
C21_4 C 0.4553(3) 0.6967(3) 0.0492(3)
C24_4 C 0.4943(3) 0.6507(3) 0.0084(3)
C32_4 C 0.4494(3) 0.7733(4) 0.1399(3)
H20_4 H 0.469009 0.793736 0.175910
C34_4 C 0.4840(3) 0.7308(4) 0.1012(3)
H22_3 H 0.527662 0.724725 0.109989
C35_3 C 0.5777(4) 0.5676(3) 0.0008(3)
H23_3 H 0.606408 0.539196 0.021019
C36_3 C 0.5367(4) 0.6065(4) 0.0402(3)
H24_3 H 0.537441 0.603228 0.086449
H3_4 H 0.377254 0.999328 0.451259
C30_3 C 0.9889(3) 0.1474(3) 0.0564(3)
H18_3 H 0.957039 0.171751 0.077288
C22_5 C 0.0365(3) 0.3763(3) 0.1104(3)
C27_5 C 0.0722(3) 0.4252(3) 0.0692(3)
C29_5 C 0.0328(3) 0.2984(3) 0.1976(3)
H17_5 H 0.054493 0.275577 0.230716
C30_4 C 0.1474(3) 0.5111(3) 0.0564(3)
H18_4 H 0.171751 0.542961 0.077288
C31_5 C 0.1087(3) 0.4708(4) 0.0959(3)
H19_5 H 0.108715 0.476209 0.141953
C33_5 C 0.0662(3) 0.3468(4) 0.1630(3)
H21_5 H 0.107673 0.358683 0.175671
O8_3 O 0.02129(19) 0.1514(2) 0.26224(18)
C5_5 C 0.0075(2) 0.1481(2) 0.3230(2)
C7_5 C 0.0501(2) 0.1093(2) 0.3693(2)
C10_5 C 0.1258(2) 0.0327(2) 0.4547(2)
C11_5 C 0.0355(2) 0.1019(2) 0.4344(2)
H5_5 H 0.251508 0.003955 0.454911
C14_5 C 0.0720(2) 0.0646(2) 0.4768(2)
H6_5 H 0.059953 0.060938 0.521365
C26_5 C 0.1044(3) 0.0779(3) 0.3459(3)
H15_5 H 0.116557 0.082301 0.301488
C28_5 C 0.1404(3) 0.0401(3) 0.3881(3)
H16_5 H 0.176220 0.018665 0.370961
C30_5 C 0.6474(3) 0.0111(3) 0.9436(3)
H18_5 H 0.671751 0.042961 0.922712
O2_3 O 0.36235(17) 0.62355(16) 0.78843(17)
O3_3 O 0.34166(17) 0.70929(18) 0.84645(16)
C1_5 C 0.3327(2) 0.6512(3) 0.8342(2)
C8_5 C 0.2854(2) 0.6145(2) 0.8749(2)
C16_5 C 0.2499(3) 0.6435(2) 0.9253(2)
H8_5 H 0.254891 0.687371 0.933752
C20_5 C 0.2078(2) 0.6083(3) 0.9623(3)
H12_5 H 0.185655 0.628521 0.996797
C21_5 C 0.1967(3) 0.5447(3) 0.9508(3)
C24_5 C 0.1507(3) 0.5057(3) 0.9916(3)
C32_5 C 0.2733(4) 0.5506(3) 0.8601(3)
H20_5 H 0.293736 0.530991 0.824090
C34_5 C 0.2308(4) 0.5160(3) 0.8988(3)
H22_4 H 0.224725 0.472338 0.890011
C35_4 C 0.0676(3) 0.4223(4) 0.9992(3)
H23_4 H 0.039196 0.393592 0.978981
C36_4 C 0.1065(4) 0.4633(4) 0.9598(3)
H24_4 H 0.103228 0.462559 0.913551
Cd2_2 Cd 0.41985(2) 0.70838(2) 0.75369(2)
Cd1_3 Cd 0.91985(2) 0.20838(2) 0.24631(2)
O1_3 O 0.45887(16) 0.67405(16) 0.65309(15)
N1_5 N 0.85209(17) 0.27611(16) 0.30463(16)
O4_3 O 0.52129(19) 0.6514(2) 0.73776(18)
N2_5 N 0.9723(2) 0.2839(2) 0.1852(2)
C2_5 C 0.77635(19) 0.3612(2) 0.3802(2)
C3_5 C 0.7682(2) 0.3546(2) 0.3125(2)
H1_5 H 0.737059 0.378942 0.290383
C4_5 C 0.8062(2) 0.3119(2) 0.2773(2)
H2_5 H 0.799207 0.307953 0.231677
C5_6 C 0.5075(2) 0.6481(2) 0.6770(2)
C6_5 C 0.7387(2) 0.4070(2) 0.4203(2)
C7_6 C 0.5501(2) 0.6093(2) 0.6307(2)
C9_5 C 0.6648(2) 0.4915(2) 0.5011(2)
C10_6 C 0.6258(2) 0.5327(2) 0.5453(2)
C11_6 C 0.5355(2) 0.6019(2) 0.5656(2)
H3_5 H 0.499328 0.622746 0.548741
C12_5 C 0.8233(2) 0.3227(2) 0.4085(2)
H4_5 H 0.830710 0.324750 0.454221
C13_5 C 0.7308(2) 0.4820(2) 0.5107(2)
H5_6 H 0.751508 0.503955 0.545089
C14_6 C 0.5720(2) 0.5646(2) 0.5232(2)
H6_6 H 0.559953 0.560938 0.478635
C15_5 C 0.6723(2) 0.4154(3) 0.4102(2)
H7_5 H 0.651689 0.392766 0.376248
C17_5 C 0.8590(2) 0.2818(2) 0.3700(2)
H9_5 H 0.889992 0.256443 0.390936
C18_5 C 0.7658(2) 0.4414(2) 0.4712(2)
H10_5 H 0.809761 0.437026 0.479226
C19_5 C 0.6367(2) 0.4573(2) 0.4502(2)
H11_5 H 0.592737 0.462096 0.442316
C23_5 C 0.9445(3) 0.3136(3) 0.1330(3)
H13_5 H 0.902189 0.302678 0.122366
C25_5 C 0.9749(3) 0.3591(3) 0.0946(3)
H14_5 H 0.953859 0.377828 0.058444
C26_6 C 0.6044(3) 0.5779(3) 0.6541(3)
H15_6 H 0.616557 0.582301 0.698512
C28_6 C 0.6404(3) 0.5401(3) 0.6119(3)
H16_6 H 0.676220 0.518665 0.629039
O5_3 O 0.95887(16) 0.17405(16) 0.34691(15)
O6_3 O 0.86235(17) 0.12355(16) 0.21157(17)
O7_3 O 0.84166(17) 0.20929(18) 0.15355(16)
C1_6 C 0.8327(2) 0.1512(3) 0.1658(2)
C8_6 C 0.7854(2) 0.1145(2) 0.1251(2)
C16_6 C 0.7499(3) 0.1435(2) 0.0747(2)
H8_6 H 0.754891 0.187371 0.066248
C20_6 C 0.7078(2) 0.1083(3) 0.0377(3)
H12_6 H 0.685655 0.128521 0.003203
C21_6 C 0.6967(3) 0.0447(3) 0.0492(3)
C24_6 C 0.6507(3) 0.0057(3) 0.0084(3)
C32_6 C 0.7733(4) 0.0506(3) 0.1399(3)
H20_6 H 0.793736 0.030991 0.175910
C34_6 C 0.7308(4) 0.0160(3) 0.1012(3)
N1_6 N 0.35209(17) 0.77611(16) 0.69537(16)
N2_6 N 0.4723(2) 0.7839(2) 0.8148(2)
C2_6 C 0.27635(19) 0.8612(2) 0.6198(2)
C3_6 C 0.2682(2) 0.8546(2) 0.6875(2)
H1_6 H 0.237059 0.878942 0.709617
C4_6 C 0.3062(2) 0.8119(2) 0.7227(2)
H2_6 H 0.299207 0.807953 0.768323
C6_6 C 0.2387(2) 0.9070(2) 0.5797(2)
C9_6 C 0.1648(2) 0.9915(2) 0.4989(2)
C12_6 C 0.3233(2) 0.8227(2) 0.5915(2)
H4_6 H 0.330710 0.824750 0.545779
C13_6 C 0.2308(2) 0.9820(2) 0.4893(2)
C15_6 C 0.1723(2) 0.9154(3) 0.5898(2)
H7_6 H 0.151689 0.892766 0.623752
C17_6 C 0.3590(2) 0.7818(2) 0.6300(2)
H9_6 H 0.389992 0.756443 0.609064
C18_6 C 0.2658(2) 0.9414(2) 0.5288(2)
H10_6 H 0.309761 0.937026 0.520774
C19_6 C 0.1367(2) 0.9573(2) 0.5498(2)
H11_6 H 0.092737 0.962096 0.557684
C22_6 C 0.5365(3) 0.8763(3) 0.8896(3)
C23_6 C 0.4445(3) 0.8136(3) 0.8670(3)
H13_6 H 0.402189 0.802678 0.877634
C25_6 C 0.4749(3) 0.8591(3) 0.9054(3)
H14_6 H 0.453859 0.877828 0.941556
C27_6 C 0.5722(3) 0.9252(3) 0.9308(3)
C29_6 C 0.5328(3) 0.7984(3) 0.8024(3)
H17_6 H 0.554493 0.775577 0.769284
C31_6 C 0.6087(3) 0.9708(4) 0.9041(3)
H19_6 H 0.608715 0.976209 0.858047
C33_6 C 0.5662(3) 0.8468(4) 0.8370(3)
H21_6 H 0.607673 0.858683 0.824329
H3_6 H 0.999328 0.122746 0.451259
O1_4 O 0.04113(16) 0.82595(16) 0.65309(15)
H3_7 H 0.000672 0.877254 0.548741
Cd3_2 Cd 0.08015(2) 0.79162(2) 0.75369(2)
Cd1_4 Cd 0.58015(2) 0.29162(2) 0.24631(2)
N1_7 N 0.64791(17) 0.22389(16) 0.30463(16)
N2_7 N 0.5277(2) 0.2161(2) 0.1852(2)
C2_7 C 0.72365(19) 0.1388(2) 0.3802(2)
C3_7 C 0.7318(2) 0.1454(2) 0.3125(2)
H1_7 H 0.762941 0.121058 0.290383
C4_7 C 0.6938(2) 0.1881(2) 0.2773(2)
H2_7 H 0.700793 0.192047 0.231677
C6_7 C 0.7613(2) 0.0930(2) 0.4203(2)
C9_7 C 0.8352(2) 0.0085(2) 0.5011(2)
C12_7 C 0.6767(2) 0.1773(2) 0.4085(2)
H4_7 H 0.669290 0.175250 0.454221
C13_7 C 0.7692(2) 0.0180(2) 0.5107(2)
C15_7 C 0.8277(2) 0.0846(3) 0.4102(2)
H7_7 H 0.848311 0.107234 0.376248
C17_7 C 0.6410(2) 0.2182(2) 0.3700(2)
H9_7 H 0.610008 0.243557 0.390936
C18_7 C 0.7342(2) 0.0586(2) 0.4712(2)
H10_7 H 0.690239 0.062974 0.479226
C19_7 C 0.8633(2) 0.0427(2) 0.4502(2)
H11_7 H 0.907263 0.037904 0.442316
C22_7 C 0.4635(3) 0.1237(3) 0.1104(3)
C23_7 C 0.5555(3) 0.1864(3) 0.1330(3)
H13_7 H 0.597811 0.197322 0.122366
C25_7 C 0.5251(3) 0.1409(3) 0.0946(3)
H14_7 H 0.546141 0.122172 0.058444
C27_7 C 0.4278(3) 0.0748(3) 0.0692(3)
C29_7 C 0.4672(3) 0.2016(3) 0.1976(3)
H17_7 H 0.445507 0.224423 0.230716
C31_7 C 0.3913(3) 0.0292(4) 0.0959(3)
H19_7 H 0.391285 0.023791 0.141953
C33_7 C 0.4338(3) 0.1532(4) 0.1630(3)
H21_7 H 0.392327 0.141317 0.175671
O5_4 O 0.54113(16) 0.32595(16) 0.34691(15)
O6_4 O 0.63765(17) 0.37645(16) 0.21157(17)
O7_4 O 0.65834(17) 0.29071(18) 0.15355(16)
O8_4 O 0.47871(19) 0.3486(2) 0.26224(18)
O2_4 O 0.13765(17) 0.87645(16) 0.78843(17)
O3_4 O 0.15834(17) 0.79071(18) 0.84645(16)
C1_7 C 0.1673(2) 0.8488(3) 0.8342(2)
C8_7 C 0.2146(2) 0.8855(2) 0.8749(2)
C16_7 C 0.2501(3) 0.8565(2) 0.9253(2)
H8_7 H 0.245109 0.812629 0.933752
C20_7 C 0.2922(2) 0.8917(3) 0.9623(3)
H12_7 H 0.314345 0.871479 0.996797
C21_7 C 0.3033(3) 0.9553(3) 0.9508(3)
C24_7 C 0.3493(3) 0.9943(3) 0.9916(3)
C32_7 C 0.2267(4) 0.9494(3) 0.8601(3)
H20_7 H 0.206264 0.969009 0.824090
C34_7 C 0.2692(4) 0.9840(3) 0.8988(3)
N1_8 N 0.14791(17) 0.72389(16) 0.69537(16)
N2_8 N 0.0277(2) 0.7161(2) 0.8148(2)
C2_8 C 0.22365(19) 0.6388(2) 0.6198(2)
C3_8 C 0.2318(2) 0.6454(2) 0.6875(2)
H1_8 H 0.262941 0.621058 0.709617
C4_8 C 0.1938(2) 0.6881(2) 0.7227(2)
H2_8 H 0.200793 0.692047 0.768323
C5_7 C 0.4925(2) 0.3519(2) 0.3230(2)
C6_8 C 0.2613(2) 0.5930(2) 0.5797(2)
C7_7 C 0.4499(2) 0.3907(2) 0.3693(2)
C9_8 C 0.3352(2) 0.5085(2) 0.4989(2)
C10_7 C 0.3742(2) 0.4673(2) 0.4547(2)
C11_7 C 0.4645(2) 0.3981(2) 0.4344(2)
H3_8 H 0.500672 0.377254 0.451259
C12_8 C 0.1767(2) 0.6773(2) 0.5915(2)
H4_8 H 0.169290 0.675250 0.545779
C13_8 C 0.2692(2) 0.5180(2) 0.4893(2)
H5_7 H 0.248492 0.496045 0.454911
C14_7 C 0.4280(2) 0.4354(2) 0.4768(2)
H6_7 H 0.440047 0.439062 0.521365
C15_8 C 0.3277(2) 0.5846(3) 0.5898(2)
H7_8 H 0.348311 0.607234 0.623752
C17_8 C 0.1410(2) 0.7182(2) 0.6300(2)
H9_8 H 0.110008 0.743557 0.609064
C18_8 C 0.2342(2) 0.5586(2) 0.5288(2)
H10_8 H 0.190239 0.562974 0.520774
C19_8 C 0.3633(2) 0.5427(2) 0.5498(2)
H11_8 H 0.407263 0.537904 0.557684
C23_8 C 0.0555(3) 0.6864(3) 0.8670(3)
H13_8 H 0.097811 0.697322 0.877634
C25_8 C 0.0251(3) 0.6409(3) 0.9054(3)
H14_8 H 0.046141 0.622172 0.941556
C26_7 C 0.3956(3) 0.4221(3) 0.3459(3)
H15_7 H 0.383443 0.417699 0.301488
C28_7 C 0.3596(3) 0.4599(3) 0.3881(3)
H16_7 H 0.323780 0.481335 0.370961
C1_8 C 0.6673(2) 0.3488(3) 0.1658(2)
C8_8 C 0.7146(2) 0.3855(2) 0.1251(2)
C16_8 C 0.7501(3) 0.3565(2) 0.0747(2)
H8_8 H 0.745109 0.312629 0.066248
C20_8 C 0.7922(2) 0.3917(3) 0.0377(3)
H12_8 H 0.814345 0.371479 0.003203
C21_8 C 0.8033(3) 0.4553(3) 0.0492(3)
C24_8 C 0.8493(3) 0.4943(3) 0.0084(3)
C32_8 C 0.7267(4) 0.4494(3) 0.1399(3)
H20_8 H 0.706264 0.469009 0.175910
C34_8 C 0.7692(4) 0.4840(3) 0.1012(3)
H22_5 H 0.775275 0.527662 0.109989
C35_5 C 0.9324(3) 0.5777(4) 0.0008(3)
H23_5 H 0.960804 0.606408 0.021019
C36_5 C 0.8935(4) 0.5367(4) 0.0402(3)
H24_5 H 0.896772 0.537441 0.086449
H22_6 H 0.275275 0.027662 0.890011
C35_6 C 0.4324(3) 0.0777(4) 0.9992(3)
H23_6 H 0.460804 0.106408 0.978981
C36_6 C 0.3935(4) 0.0367(4) 0.9598(3)
H24_6 H 0.396772 0.037441 0.913551
O4_4 O 0.97871(19) 0.8486(2) 0.73776(18)
C5_8 C 0.9925(2) 0.8519(2) 0.6770(2)
C7_8 C 0.9499(2) 0.8907(2) 0.6307(2)
C10_8 C 0.8742(2) 0.9673(2) 0.5453(2)
C11_8 C 0.9645(2) 0.8981(2) 0.5656(2)
H5_8 H 0.748492 0.996045 0.545089
C14_8 C 0.9280(2) 0.9354(2) 0.5232(2)
H6_8 H 0.940047 0.939062 0.478635
C26_8 C 0.8956(3) 0.9221(3) 0.6541(3)
H15_8 H 0.883443 0.917699 0.698512
C28_8 C 0.8596(3) 0.9599(3) 0.6119(3)
H16_8 H 0.823780 0.981335 0.629039
C30_6 C 0.3526(3) 0.9889(3) 0.0564(3)
H18_6 H 0.328249 0.957039 0.077288
C22_8 C 0.9635(3) 0.6237(3) 0.8896(3)
C27_8 C 0.9278(3) 0.5748(3) 0.9308(3)
C29_8 C 0.9672(3) 0.7016(3) 0.8024(3)
H17_8 H 0.945507 0.724423 0.769284
C30_7 C 0.8526(3) 0.4889(3) 0.9436(3)
H18_7 H 0.828249 0.457039 0.922712
C31_8 C 0.8913(3) 0.5292(4) 0.9041(3)
H19_8 H 0.891285 0.523791 0.858047
C33_8 C 0.9338(3) 0.6532(4) 0.8370(3)
H21_8 H 0.892327 0.641317 0.824329
C30_8 C 0.0111(3) 0.8526(3) 0.9436(3)
H18_8 H 0.042961 0.828249 0.922712
H22_7 H 0.972338 0.775275 0.109989
C35_7 C 0.9223(4) 0.9324(3) 0.0008(3)
H23_7 H 0.893592 0.960804 0.021019
C36_7 C 0.9633(4) 0.8935(4) 0.0402(3)
H24_7 H 0.962559 0.896772 0.086449
H22_8 H 0.724725 0.972338 0.109989
C35_8 C 0.5676(3) 0.9223(4) 0.0008(3)
H23_8 H 0.539196 0.893592 0.021019
C36_8 C 0.6065(4) 0.9633(4) 0.0402(3)
H24_8 H 0.603228 0.962559 0.086449
loop_
_geom_bond_atom_site_label_1
_geom_bond_atom_site_label_2
_geom_bond_site_symmetry_1
_geom_bond_site_symmetry_2
Cd3 O1 1_555 1_555
O2 C1 1_555 1_555
O3 C1 1_555 1_555
C1 C8 1_555 1_555
C8 C16 1_555 1_555
C16 H8 1_555 1_555
C20 C16 1_555 1_555
H12 C20 1_555 1_555
C21 C20 1_555 1_555
C24 C21 1_555 1_555
C32 C8 1_555 1_555
H20 C32 1_555 1_555
C34 C21 1_555 1_555
H22 C34 1_555 1_555
H23 C35 1_555 1_555
C36 C24 1_555 1_555
H24 C36 1_555 1_555
Cd3 O2 1_555 1_555
O3 Cd3 1_555 1_555
C32 C34 1_555 1_555
C35 C36 1_555 1_555
Cd3 N1 1_555 1_555
N1 C4 1_555 1_555
N2 Cd3 1_555 1_555
C2 C3 1_555 1_555
C3 H1 1_555 1_555
C4 C3 1_555 1_555
H2 C4 1_555 1_555
C6 C2 1_555 1_555
C12 C2 1_555 1_555
H4 C12 1_555 1_555
C13 C9 1_555 1_555
C15 C6 1_555 1_555
H7 C15 1_555 1_555
C17 N1 1_555 1_555
H9 C17 1_555 1_555
C18 C6 1_555 1_555
H10 C18 1_555 1_555
C19 C9 1_555 1_555
H11 C19 1_555 1_555
C23 N2 1_555 1_555
H13 C23 1_555 1_555
C25 C23 1_555 1_555
H14 C25 1_555 1_555
C12 C17 1_555 1_555
C13 C18 1_555 1_555
C15 C19 1_555 1_555
Cd1 N1_2 1_555 1_555
N1_2 C4_2 1_555 1_555
O4 C5 1_555 1_555
N2_2 Cd1 1_555 1_555
C2_2 C3_2 1_555 1_555
C3_2 H1_2 1_555 1_555
C4_2 C3_2 1_555 1_555
H2_2 C4_2 1_555 1_555
C5 C7 1_555 1_555
C6_2 C2_2 1_555 1_555
C7 C11 1_555 1_555
C9_2 C10 1_555 1_555
C10 C14 1_555 1_555
C12_2 C2_2 1_555 1_555
H4_2 C12_2 1_555 1_555
C13_2 C9_2 1_555 1_555
H5 C13_2 1_555 1_555
C14 C11 1_555 1_555
H6 C14 1_555 1_555
C15_2 C6_2 1_555 1_555
H7_2 C15_2 1_555 1_555
C17_2 N1_2 1_555 1_555
H9_2 C17_2 1_555 1_555
C18_2 C6_2 1_555 1_555
H10_2 C18_2 1_555 1_555
C19_2 C9_2 1_555 1_555
H11_2 C19_2 1_555 1_555
C22 C25_2 1_555 1_555
C23_2 N2_2 1_555 1_555
H13_2 C23_2 1_555 1_555
C25_2 C23_2 1_555 1_555
H14_2 C25_2 1_555 1_555
C26 C7 1_555 1_555
H15 C26 1_555 1_555
C27 C22 1_555 1_555
C28 C10 1_555 1_555
H16 C28 1_555 1_555
C29 N2_2 1_555 1_555
H17 C29 1_555 1_555
H18 C30 1_555 1_555
C31 C27 1_555 1_555
H19 C31 1_555 1_555
C33 C22 1_555 1_555
H21 C33 1_555 1_555
O5 Cd1 1_555 1_555
O6 Cd1 1_555 1_555
O7 Cd1 1_555 1_555
O8 Cd1 1_555 1_555
C12_2 C17_2 1_555 1_555
C13_2 C18_2 1_555 1_555
C15_2 C19_2 1_555 1_555
C26 C28 1_555 1_555
C29 C33 1_555 1_555
C30 C31 1_555 1_555
O5 C5_2 1_555 1_555
O8 C5_2 1_555 1_555
C5_2 C7_2 1_555 1_555
C7_2 C11_2 1_555 1_555
C10_2 C14_2 1_555 1_555
C11_2 H3_2 1_555 1_555
C14_2 C11_2 1_555 1_555
H6_2 C14_2 1_555 1_555
C26_2 C7_2 1_555 1_555
H15_2 C26_2 1_555 1_555
C28_2 C10_2 1_555 1_555
H16_2 C28_2 1_555 1_555
C26_2 C28_2 1_555 1_555
O6 C1_2 1_555 1_555
O7 C1_2 1_555 1_555
C1_2 C8_2 1_555 1_555
C8_2 C16_2 1_555 1_555
C16_2 H8_2 1_555 1_555
C20_2 C16_2 1_555 1_555
H12_2 C20_2 1_555 1_555
C21_2 C20_2 1_555 1_555
C24_2 C21_2 1_555 1_555
C32_2 C8_2 1_555 1_555
H20_2 C32_2 1_555 1_555
C34_2 C21_2 1_555 1_555
C32_2 C34_2 1_555 1_555
C27_2 C22_2 1_555 1_555
H17_2 C29_2 1_555 1_555
C31_2 C27_2 1_555 1_555
H19_2 C31_2 1_555 1_555
C33_2 C22_2 1_555 1_555
H21_2 C33_2 1_555 1_555
C29_2 C33_2 1_555 1_555
C27_3 C22_3 1_555 1_555
H17_3 C29_3 1_555 1_555
C31_3 C27_3 1_555 1_555
H19_3 C31_3 1_555 1_555
C33_3 C22_3 1_555 1_555
H21_3 C33_3 1_555 1_555
C29_3 C33_3 1_555 1_555
O2_2 C1_3 1_555 1_555
O3_2 C1_3 1_555 1_555
C1_3 C8_3 1_555 1_555
C8_3 C16_3 1_555 1_555
C16_3 H8_3 1_555 1_555
C20_3 C16_3 1_555 1_555
H12_3 C20_3 1_555 1_555
C21_3 C20_3 1_555 1_555
C24_3 C21_3 1_555 1_555
C32_3 C8_3 1_555 1_555
H20_3 C32_3 1_555 1_555
C34_3 C21_3 1_555 1_555
Cd2 O2_2 1_555 1_555
O3_2 Cd2 1_555 1_555
C32_3 C34_3 1_555 1_555
O1_2 C5_3 1_555 1_555
O4_2 C5_3 1_555 1_555
C5_3 C7_3 1_555 1_555
C7_3 C11_3 1_555 1_555
C10_3 C14_3 1_555 1_555
C11_3 H3_3 1_555 1_555
C14_3 C11_3 1_555 1_555
H6_3 C14_3 1_555 1_555
C26_3 C7_3 1_555 1_555
H15_3 C26_3 1_555 1_555
C28_3 C10_3 1_555 1_555
H16_3 C28_3 1_555 1_555
Cd2 O1_2 1_555 1_555
O4_2 Cd2 1_555 1_555
C26_3 C28_3 1_555 1_555
Cd2 N1_3 1_555 1_555
N1_3 C4_3 1_555 1_555
O8_2 C5_4 1_555 1_555
N2_3 Cd2 1_555 1_555
C2_3 C3_3 1_555 1_555
C3_3 H1_3 1_555 1_555
C4_3 C3_3 1_555 1_555
H2_3 C4_3 1_555 1_555
C5_4 C7_4 1_555 1_555
C6_3 C2_3 1_555 1_555
C7_4 C11_4 1_555 1_555
C9_3 C10_4 1_555 1_555
C10_4 C14_4 1_555 1_555
C12_3 C2_3 1_555 1_555
H4_3 C12_3 1_555 1_555
C13_3 C9_3 1_555 1_555
H5_4 C13_3 1_555 1_555
C14_4 C11_4 1_555 1_555
H6_4 C14_4 1_555 1_555
C15_3 C6_3 1_555 1_555
H7_3 C15_3 1_555 1_555
C17_3 N1_3 1_555 1_555
H9_3 C17_3 1_555 1_555
C18_3 C6_3 1_555 1_555
H10_3 C18_3 1_555 1_555
C19_3 C9_3 1_555 1_555
H11_3 C19_3 1_555 1_555
C22_4 C25_3 1_555 1_555
C23_3 N2_3 1_555 1_555
H13_3 C23_3 1_555 1_555
C25_3 C23_3 1_555 1_555
H14_3 C25_3 1_555 1_555
C26_4 C7_4 1_555 1_555
H15_4 C26_4 1_555 1_555
C27_4 C22_4 1_555 1_555
C28_4 C10_4 1_555 1_555
H16_4 C28_4 1_555 1_555
C29_4 N2_3 1_555 1_555
H17_4 C29_4 1_555 1_555
H18_2 C30_2 1_555 1_555
C31_4 C27_4 1_555 1_555
H19_4 C31_4 1_555 1_555
C33_4 C22_4 1_555 1_555
H21_4 C33_4 1_555 1_555
C12_3 C17_3 1_555 1_555
C13_3 C18_3 1_555 1_555
C15_3 C19_3 1_555 1_555
C26_4 C28_4 1_555 1_555
C29_4 C33_4 1_555 1_555
C30_2 C31_4 1_555 1_555
H23_2 C35_2 1_555 1_555
H24_2 C36_2 1_555 1_555
C35_2 C36_2 1_555 1_555
Cd1_2 N1_4 1_555 1_555
N1_4 C4_4 1_555 1_555
N2_4 Cd1_2 1_555 1_555
C2_4 C3_4 1_555 1_555
C3_4 H1_4 1_555 1_555
C4_4 C3_4 1_555 1_555
H2_4 C4_4 1_555 1_555
C6_4 C2_4 1_555 1_555
C12_4 C2_4 1_555 1_555
H4_4 C12_4 1_555 1_555
C13_4 C9_4 1_555 1_555
C15_4 C6_4 1_555 1_555
H7_4 C15_4 1_555 1_555
C17_4 N1_4 1_555 1_555
H9_4 C17_4 1_555 1_555
C18_4 C6_4 1_555 1_555
H10_4 C18_4 1_555 1_555
C19_4 C9_4 1_555 1_555
H11_4 C19_4 1_555 1_555
C23_4 N2_4 1_555 1_555
H13_4 C23_4 1_555 1_555
C25_4 C23_4 1_555 1_555
H14_4 C25_4 1_555 1_555
O5_2 Cd1_2 1_555 1_555
O6_2 Cd1_2 1_555 1_555
O7_2 Cd1_2 1_555 1_555
C12_4 C17_4 1_555 1_555
C13_4 C18_4 1_555 1_555
C15_4 C19_4 1_555 1_555
O6_2 C1_4 1_555 1_555
O7_2 C1_4 1_555 1_555
C1_4 C8_4 1_555 1_555
C8_4 C16_4 1_555 1_555
C16_4 H8_4 1_555 1_555
C20_4 C16_4 1_555 1_555
H12_4 C20_4 1_555 1_555
C21_4 C20_4 1_555 1_555
C24_4 C21_4 1_555 1_555
C32_4 C8_4 1_555 1_555
H20_4 C32_4 1_555 1_555
C34_4 C21_4 1_555 1_555
H22_3 C34_4 1_555 1_555
H23_3 C35_3 1_555 1_555
C36_3 C24_4 1_555 1_555
H24_3 C36_3 1_555 1_555
C32_4 C34_4 1_555 1_555
C35_3 C36_3 1_555 1_555
H18_3 C30_3 1_555 1_555
C27_5 C22_5 1_555 1_555
H17_5 C29_5 1_555 1_555
H18_4 C30_4 1_555 1_555
C31_5 C27_5 1_555 1_555
H19_5 C31_5 1_555 1_555
C33_5 C22_5 1_555 1_555
H21_5 C33_5 1_555 1_555
C29_5 C33_5 1_555 1_555
C30_4 C31_5 1_555 1_555
O8_3 C5_5 1_555 1_555
C5_5 C7_5 1_555 1_555
C7_5 C11_5 1_555 1_555
C10_5 C14_5 1_555 1_555
C14_5 C11_5 1_555 1_555
H6_5 C14_5 1_555 1_555
C26_5 C7_5 1_555 1_555
H15_5 C26_5 1_555 1_555
C28_5 C10_5 1_555 1_555
H16_5 C28_5 1_555 1_555
H18_5 C30_5 1_555 1_555
C26_5 C28_5 1_555 1_555
O2_3 C1_5 1_555 1_555
O3_3 C1_5 1_555 1_555
C1_5 C8_5 1_555 1_555
C8_5 C16_5 1_555 1_555
C16_5 H8_5 1_555 1_555
C20_5 C16_5 1_555 1_555
H12_5 C20_5 1_555 1_555
C21_5 C20_5 1_555 1_555
C24_5 C21_5 1_555 1_555
C32_5 C8_5 1_555 1_555
H20_5 C32_5 1_555 1_555
C34_5 C21_5 1_555 1_555
H22_4 C34_5 1_555 1_555
H23_4 C35_4 1_555 1_555
C36_4 C24_5 1_555 1_555
H24_4 C36_4 1_555 1_555
Cd2_2 O2_3 1_555 1_555
O3_3 Cd2_2 1_555 1_555
C32_5 C34_5 1_555 1_555
C35_4 C36_4 1_555 1_555
Cd1_3 N1_5 1_555 1_555
O1_3 C5_6 1_555 1_555
N1_5 C4_5 1_555 1_555
O4_3 C5_6 1_555 1_555
N2_5 Cd1_3 1_555 1_555
C2_5 C3_5 1_555 1_555
C3_5 H1_5 1_555 1_555
C4_5 C3_5 1_555 1_555
H2_5 C4_5 1_555 1_555
C5_6 C7_6 1_555 1_555
C6_5 C2_5 1_555 1_555
C7_6 C11_6 1_555 1_555
C9_5 C10_6 1_555 1_555
C10_6 C14_6 1_555 1_555
C11_6 H3_5 1_555 1_555
C12_5 C2_5 1_555 1_555
H4_5 C12_5 1_555 1_555
C13_5 C9_5 1_555 1_555
H5_6 C13_5 1_555 1_555
C14_6 C11_6 1_555 1_555
H6_6 C14_6 1_555 1_555
C15_5 C6_5 1_555 1_555
H7_5 C15_5 1_555 1_555
C17_5 N1_5 1_555 1_555
H9_5 C17_5 1_555 1_555
C18_5 C6_5 1_555 1_555
H10_5 C18_5 1_555 1_555
C19_5 C9_5 1_555 1_555
H11_5 C19_5 1_555 1_555
C23_5 N2_5 1_555 1_555
H13_5 C23_5 1_555 1_555
C25_5 C23_5 1_555 1_555
H14_5 C25_5 1_555 1_555
C26_6 C7_6 1_555 1_555
H15_6 C26_6 1_555 1_555
C28_6 C10_6 1_555 1_555
H16_6 C28_6 1_555 1_555
Cd2_2 O1_3 1_555 1_555
O5_3 Cd1_3 1_555 1_555
O6_3 Cd1_3 1_555 1_555
O7_3 Cd1_3 1_555 1_555
O4_3 Cd2_2 1_555 1_555
C12_5 C17_5 1_555 1_555
C13_5 C18_5 1_555 1_555
C15_5 C19_5 1_555 1_555
C26_6 C28_6 1_555 1_555
O6_3 C1_6 1_555 1_555
O7_3 C1_6 1_555 1_555
C1_6 C8_6 1_555 1_555
C8_6 C16_6 1_555 1_555
C16_6 H8_6 1_555 1_555
C20_6 C16_6 1_555 1_555
H12_6 C20_6 1_555 1_555
C21_6 C20_6 1_555 1_555
C24_6 C21_6 1_555 1_555
C32_6 C8_6 1_555 1_555
H20_6 C32_6 1_555 1_555
C34_6 C21_6 1_555 1_555
C32_6 C34_6 1_555 1_555
Cd2_2 N1_6 1_555 1_555
N1_6 C4_6 1_555 1_555
N2_6 Cd2_2 1_555 1_555
C2_6 C3_6 1_555 1_555
C3_6 H1_6 1_555 1_555
C4_6 C3_6 1_555 1_555
H2_6 C4_6 1_555 1_555
C6_6 C2_6 1_555 1_555
C12_6 C2_6 1_555 1_555
H4_6 C12_6 1_555 1_555
C13_6 C9_6 1_555 1_555
C15_6 C6_6 1_555 1_555
H7_6 C15_6 1_555 1_555
C17_6 N1_6 1_555 1_555
H9_6 C17_6 1_555 1_555
C18_6 C6_6 1_555 1_555
H10_6 C18_6 1_555 1_555
C19_6 C9_6 1_555 1_555
H11_6 C19_6 1_555 1_555
C22_6 C25_6 1_555 1_555
C23_6 N2_6 1_555 1_555
H13_6 C23_6 1_555 1_555
C25_6 C23_6 1_555 1_555
H14_6 C25_6 1_555 1_555
C27_6 C22_6 1_555 1_555
C29_6 N2_6 1_555 1_555
H17_6 C29_6 1_555 1_555
C31_6 C27_6 1_555 1_555
H19_6 C31_6 1_555 1_555
C33_6 C22_6 1_555 1_555
H21_6 C33_6 1_555 1_555
C12_6 C17_6 1_555 1_555
C13_6 C18_6 1_555 1_555
C15_6 C19_6 1_555 1_555
C29_6 C33_6 1_555 1_555
Cd3_2 O1_4 1_555 1_555
Cd1_4 N1_7 1_555 1_555
N1_7 C4_7 1_555 1_555
N2_7 Cd1_4 1_555 1_555
C2_7 C3_7 1_555 1_555
C3_7 H1_7 1_555 1_555
C4_7 C3_7 1_555 1_555
H2_7 C4_7 1_555 1_555
C6_7 C2_7 1_555 1_555
C12_7 C2_7 1_555 1_555
H4_7 C12_7 1_555 1_555
C13_7 C9_7 1_555 1_555
C15_7 C6_7 1_555 1_555
H7_7 C15_7 1_555 1_555
C17_7 N1_7 1_555 1_555
H9_7 C17_7 1_555 1_555
C18_7 C6_7 1_555 1_555
H10_7 C18_7 1_555 1_555
C19_7 C9_7 1_555 1_555
H11_7 C19_7 1_555 1_555
C22_7 C25_7 1_555 1_555
C23_7 N2_7 1_555 1_555
H13_7 C23_7 1_555 1_555
C25_7 C23_7 1_555 1_555
H14_7 C25_7 1_555 1_555
C27_7 C22_7 1_555 1_555
C29_7 N2_7 1_555 1_555
H17_7 C29_7 1_555 1_555
C31_7 C27_7 1_555 1_555
H19_7 C31_7 1_555 1_555
C33_7 C22_7 1_555 1_555
H21_7 C33_7 1_555 1_555
O5_4 Cd1_4 1_555 1_555
O6_4 Cd1_4 1_555 1_555
O7_4 Cd1_4 1_555 1_555
O8_4 Cd1_4 1_555 1_555
C12_7 C17_7 1_555 1_555
C13_7 C18_7 1_555 1_555
C15_7 C19_7 1_555 1_555
C29_7 C33_7 1_555 1_555
O2_4 C1_7 1_555 1_555
O3_4 C1_7 1_555 1_555
C1_7 C8_7 1_555 1_555
C8_7 C16_7 1_555 1_555
C16_7 H8_7 1_555 1_555
C20_7 C16_7 1_555 1_555
H12_7 C20_7 1_555 1_555
C21_7 C20_7 1_555 1_555
C24_7 C21_7 1_555 1_555
C32_7 C8_7 1_555 1_555
H20_7 C32_7 1_555 1_555
C34_7 C21_7 1_555 1_555
Cd3_2 O2_4 1_555 1_555
O3_4 Cd3_2 1_555 1_555
C32_7 C34_7 1_555 1_555
Cd3_2 N1_8 1_555 1_555
O5_4 C5_7 1_555 1_555
N1_8 C4_8 1_555 1_555
O8_4 C5_7 1_555 1_555
N2_8 Cd3_2 1_555 1_555
C2_8 C3_8 1_555 1_555
C3_8 H1_8 1_555 1_555
C4_8 C3_8 1_555 1_555
H2_8 C4_8 1_555 1_555
C5_7 C7_7 1_555 1_555
C6_8 C2_8 1_555 1_555
C7_7 C11_7 1_555 1_555
C9_8 C10_7 1_555 1_555
C10_7 C14_7 1_555 1_555
C11_7 H3_8 1_555 1_555
C12_8 C2_8 1_555 1_555
H4_8 C12_8 1_555 1_555
C13_8 C9_8 1_555 1_555
H5_7 C13_8 1_555 1_555
C14_7 C11_7 1_555 1_555
H6_7 C14_7 1_555 1_555
C15_8 C6_8 1_555 1_555
H7_8 C15_8 1_555 1_555
C17_8 N1_8 1_555 1_555
H9_8 C17_8 1_555 1_555
C18_8 C6_8 1_555 1_555
H10_8 C18_8 1_555 1_555
C19_8 C9_8 1_555 1_555
H11_8 C19_8 1_555 1_555
C23_8 N2_8 1_555 1_555
H13_8 C23_8 1_555 1_555
C25_8 C23_8 1_555 1_555
H14_8 C25_8 1_555 1_555
C26_7 C7_7 1_555 1_555
H15_7 C26_7 1_555 1_555
C28_7 C10_7 1_555 1_555
H16_7 C28_7 1_555 1_555
C12_8 C17_8 1_555 1_555
C13_8 C18_8 1_555 1_555
C15_8 C19_8 1_555 1_555
C26_7 C28_7 1_555 1_555
O6_4 C1_8 1_555 1_555
O7_4 C1_8 1_555 1_555
C1_8 C8_8 1_555 1_555
C8_8 C16_8 1_555 1_555
C16_8 H8_8 1_555 1_555
C20_8 C16_8 1_555 1_555
H12_8 C20_8 1_555 1_555
C21_8 C20_8 1_555 1_555
C24_8 C21_8 1_555 1_555
C32_8 C8_8 1_555 1_555
H20_8 C32_8 1_555 1_555
C34_8 C21_8 1_555 1_555
H22_5 C34_8 1_555 1_555
H23_5 C35_5 1_555 1_555
C36_5 C24_8 1_555 1_555
H24_5 C36_5 1_555 1_555
C32_8 C34_8 1_555 1_555
C35_5 C36_5 1_555 1_555
H23_6 C35_6 1_555 1_555
H24_6 C36_6 1_555 1_555
C35_6 C36_6 1_555 1_555
O4_4 C5_8 1_555 1_555
C5_8 C7_8 1_555 1_555
C7_8 C11_8 1_555 1_555
C10_8 C14_8 1_555 1_555
C14_8 C11_8 1_555 1_555
H6_8 C14_8 1_555 1_555
C26_8 C7_8 1_555 1_555
H15_8 C26_8 1_555 1_555
C28_8 C10_8 1_555 1_555
H16_8 C28_8 1_555 1_555
H18_6 C30_6 1_555 1_555
C26_8 C28_8 1_555 1_555
C27_8 C22_8 1_555 1_555
H17_8 C29_8 1_555 1_555
H18_7 C30_7 1_555 1_555
C31_8 C27_8 1_555 1_555
H19_8 C31_8 1_555 1_555
C33_8 C22_8 1_555 1_555
H21_8 C33_8 1_555 1_555
C29_8 C33_8 1_555 1_555
C30_7 C31_8 1_555 1_555
H18_8 C30_8 1_555 1_555
H23_7 C35_7 1_555 1_555
H24_7 C36_7 1_555 1_555
C35_7 C36_7 1_555 1_555
H23_8 C35_8 1_555 1_555
H24_8 C36_8 1_555 1_555
C35_8 C36_8 1_555 1_555

#END
