
###############################################################################
#
# This file contains modified crystal structure data generated from the
# MOF subset of the Cambridge Structural Database (CSD) v543 
# hosted by the Cambridge Crystallographic Data Centre (CCDC).
#
# This work is licensed under the Creative Commons
# Attribution-NonCommercial-ShareAlike 4.0 International License.
# To view a copy of this license, visit
# http://creativecommons.org/licenses/by-nc-sa/4.0/
# or send a letter to
# Creative Commons, PO Box 1866, Mountain View, CA 94042, USA.
#
# CIF created using the CSD Python API on 29 September 2022
# The structure has been converted into the P1 space group
# The structure has a 3D framework
# The original CSD entry FOBCEG is in the monoclinic crystal system
# The framework has been calculated to contain at least 10.0% void space
# The void calculation uses a probe of radius 1.32A, grid spacing 0.4
#
###############################################################################

data_FOBCEG
_chemical_formula_moiety         '(C80 H64 Cu10 N32 O16 S14)n'
_symmetry_cell_setting           triclinic
_symmetry_space_group_name_H-M   'P 1'
_symmetry_Int_Tables_number      1
_space_group_name_Hall           'P 1'
loop_
_symmetry_equiv_pos_site_id
_symmetry_equiv_pos_as_xyz
1 x,y,z
_cell_length_a                   17.537(4)
_cell_length_b                   12.938(3)
_cell_length_c                   13.328(3)
_cell_angle_alpha                90
_cell_angle_beta                 93.78(3)
_cell_angle_gamma                90
_cell_volume                     3017.46
loop_
_atom_site_label
_atom_site_type_symbol
_atom_site_fract_x
_atom_site_fract_y
_atom_site_fract_z
Cu1 Cu 0.0000 0.0000 0.0000
S1 S 0.23060(5) 0.31566(8) 0.27952(7)
N1 N 0.04939(16) 0.1303(2) 0.0626(2)
N2 N 0.10612(16) 0.2365(2) 0.1714(2)
N3 N 0.39338(16) 0.4479(2) 0.5123(2)
N4 N 0.27863(16) 0.3908(2) 0.4637(2)
C1 C 0.07282(19) 0.1432(3) 0.1572(3)
H1 H 0.0672 0.0947 0.2077
C2 C 0.0695(2) 0.2176(3) 0.0128(3)
C3 C 0.1034(2) 0.2845(3) 0.0787(3)
H3 H 0.1215 0.3501 0.0647
C4 C 0.1358(2) 0.2785(3) 0.2645(3)
C5 C 0.0990(2) 0.2889(3) 0.3488(3)
H4 H 0.0478 0.2723 0.3534
C6 C 0.1468(2) 0.3280(3) 0.4308(3)
H5 H 0.1309 0.3396 0.4950
C7 C 0.2179(2) 0.3459(3) 0.4030(3)
C8 C 0.35183(19) 0.3981(3) 0.4398(3)
H6 H 0.3708 0.3721 0.3813
C9 C 0.3435(2) 0.4731(3) 0.5846(3)
H7 H 0.3564 0.5094 0.6435
C10 C 0.2724(2) 0.4365(3) 0.5562(3)
H8 H 0.2287 0.4414 0.5919
Cu2 Cu 0.0000 0.0000 0.5000
Cu4 Cu 0.5000 0.5000 0.5000
Cu1_2 Cu 0.0000 0.0000 1.0000
H2 H 0.0611 0.2289 0.9441
O5 O 0.00065(14) 0.06580(19) 0.83939(19)
Cu1_3 Cu -0.0000 1.0000 0.0000
S2 S 0.0000 0.86862(10) 0.2500
O3 O 0.00065(14) 0.93420(19) 0.33939(19)
O4 O 0.06973(19) 0.8049(2) 0.2547(2)
Cu2_2 Cu 0.0000 1.0000 0.5000
Cu1_4 Cu 0.0000 1.0000 1.0000
N9 N 0.10662(16) 0.9479(2) 0.9877(2)
Cu1_5 Cu 1.0000 0.0000 0.0000
Cu2_3 Cu 1.0000 0.0000 0.5000
N10 N 0.89338(16) 0.0521(2) 0.0123(2)
Cu1_6 Cu 1.0000 0.0000 1.0000
Cu1_7 Cu 1.0000 1.0000 0.0000
S2_2 S 1.0000 0.86862(10) 0.2500
O1 O 0.99935(14) 0.93420(19) 0.16061(19)
O2 O 0.93027(19) 0.8049(2) 0.2453(2)
H10 H 0.9389 0.7711 0.0559
Cu2_4 Cu 1.0000 1.0000 0.5000
Cu1_8 Cu 1.0000 1.0000 1.0000
S3 S 0.76940(5) 0.68434(8) 0.72048(7)
N5 N 0.95061(16) 0.8697(2) 0.9374(2)
N6 N 0.89388(16) 0.7635(2) 0.8286(2)
N7 N 0.60662(16) 0.5521(2) 0.4877(2)
N8 N 0.72137(16) 0.6092(2) 0.5363(2)
C11 C 0.92718(19) 0.8568(3) 0.8428(3)
H9 H 0.9328 0.9053 0.7923
C12 C 0.9305(2) 0.7824(3) 0.9872(3)
C13 C 0.8966(2) 0.7155(3) 0.9213(3)
H11 H 0.8785 0.6499 0.9353
C14 C 0.8642(2) 0.7215(3) 0.7355(3)
C15 C 0.9010(2) 0.7111(3) 0.6512(3)
H12 H 0.9522 0.7277 0.6466
C16 C 0.8532(2) 0.6720(3) 0.5692(3)
H13 H 0.8691 0.6604 0.5050
C17 C 0.7821(2) 0.6541(3) 0.5970(3)
C18 C 0.64817(19) 0.6019(3) 0.5602(3)
H14 H 0.6292 0.6279 0.6187
C19 C 0.6565(2) 0.5269(3) 0.4154(3)
H15 H 0.6436 0.4906 0.3565
C20 C 0.7276(2) 0.5635(3) 0.4438(3)
H16 H 0.7713 0.5586 0.4081
N10_2 N 0.10662(16) 0.0521(2) 0.4877(2)
N7_2 N 0.39338(16) 0.5521(2) 0.0123(2)
C19_2 C 0.3435(2) 0.5269(3) 0.0846(3)
H15_2 H 0.3564 0.4906 0.1435
C20_2 C 0.2724(2) 0.5635(3) 0.0562(3)
H16_2 H 0.2287 0.5586 0.0919
Cu3 Cu 0.5000 0.5000 0.0000
S3_2 S 0.23060(5) 0.68434(8) 0.77952(7)
N5_2 N 0.04939(16) 0.8697(2) 0.5626(2)
N6_2 N 0.10612(16) 0.7635(2) 0.6714(2)
N8_2 N 0.27863(16) 0.6092(2) 0.9637(2)
C11_2 C 0.07282(19) 0.8568(3) 0.6572(3)
H9_2 H 0.0672 0.9053 0.7077
C12_2 C 0.0695(2) 0.7824(3) 0.5128(3)
H10_2 H 0.0611 0.7711 0.4441
C13_2 C 0.1034(2) 0.7155(3) 0.5787(3)
H11_2 H 0.1215 0.6499 0.5647
C14_2 C 0.1358(2) 0.7215(3) 0.7645(3)
C15_2 C 0.0990(2) 0.7111(3) 0.8488(3)
H12_2 H 0.0478 0.7277 0.8534
C16_2 C 0.1468(2) 0.6720(3) 0.9308(3)
H13_2 H 0.1309 0.6604 0.9950
C17_2 C 0.2179(2) 0.6541(3) 0.9030(3)
C18_2 C 0.35183(19) 0.6019(3) 0.9398(3)
H14_2 H 0.3708 0.6279 0.8813
Cu3_2 Cu 0.5000 0.5000 1.0000
S1_2 S 0.76940(5) 0.31566(8) 0.22048(7)
N1_2 N 0.95061(16) 0.1303(2) 0.4374(2)
N2_2 N 0.89388(16) 0.2365(2) 0.3286(2)
N4_2 N 0.72137(16) 0.3908(2) 0.0363(2)
C1_2 C 0.92718(19) 0.1432(3) 0.3428(3)
H1_2 H 0.9328 0.0947 0.2923
C2_2 C 0.9305(2) 0.2176(3) 0.4872(3)
H2_2 H 0.9389 0.2289 0.5559
C3_2 C 0.8966(2) 0.2845(3) 0.4213(3)
H3_2 H 0.8785 0.3501 0.4353
C4_2 C 0.8642(2) 0.2785(3) 0.2355(3)
C5_2 C 0.9010(2) 0.2889(3) 0.1512(3)
H4_2 H 0.9522 0.2723 0.1466
C6_2 C 0.8532(2) 0.3280(3) 0.0692(3)
H5_2 H 0.8691 0.3396 0.0050
C7_2 C 0.7821(2) 0.3459(3) 0.0970(3)
C8_2 C 0.64817(19) 0.3981(3) 0.0602(3)
H6_2 H 0.6292 0.3721 0.1187
O5_2 O 0.99935(14) 0.06580(19) 0.66061(19)
N3_2 N 0.60662(16) 0.4479(2) 0.9877(2)
C9_2 C 0.6565(2) 0.4731(3) 0.9154(3)
H7_2 H 0.6436 0.5094 0.8565
C10_2 C 0.7276(2) 0.4365(3) 0.9438(3)
H8_2 H 0.7713 0.4414 0.9081
N9_2 N 0.89338(16) 0.9479(2) 0.5123(2)
H7_3 H 0.8564 0.0094 0.6435
S1_3 S 0.73060(5) 0.81566(8) 0.27952(7)
S2_3 S 0.5000 0.36862(10) 0.2500
O1_2 O 0.49935(14) 0.43420(19) 0.16061(19)
O2_2 O 0.43027(19) 0.3049(2) 0.2453(2)
N1_3 N 0.54939(16) 0.6303(2) 0.0626(2)
N2_3 N 0.60612(16) 0.7365(2) 0.1714(2)
N4_3 N 0.77863(16) 0.8908(2) 0.4637(2)
C1_3 C 0.57282(19) 0.6432(3) 0.1572(3)
H1_3 H 0.5672 0.5947 0.2077
C2_3 C 0.5695(2) 0.7176(3) 0.0128(3)
C3_3 C 0.6034(2) 0.7845(3) 0.0787(3)
H3_3 H 0.6215 0.8501 0.0647
C4_3 C 0.6358(2) 0.7785(3) 0.2645(3)
C5_3 C 0.5990(2) 0.7889(3) 0.3488(3)
H4_3 H 0.5478 0.7723 0.3534
C6_3 C 0.6468(2) 0.8280(3) 0.4308(3)
H5_3 H 0.6309 0.8396 0.4950
C7_3 C 0.7179(2) 0.8459(3) 0.4030(3)
C8_3 C 0.85183(19) 0.8981(3) 0.4398(3)
H6_3 H 0.8708 0.8721 0.3813
C9_3 C 0.8435(2) 0.9731(3) 0.5846(3)
C10_3 C 0.7724(2) 0.9365(3) 0.5562(3)
H8_3 H 0.7287 0.9414 0.5919
O3_2 O 0.50065(14) 0.43420(19) 0.33939(19)
O4_2 O 0.56973(19) 0.3049(2) 0.2547(2)
H10_3 H 0.4389 0.2711 0.0559
H2_3 H 0.5611 0.7289 0.9441
S3_3 S 0.26940(5) 0.18434(8) 0.72048(7)
N5_3 N 0.45061(16) 0.3697(2) 0.9374(2)
N6_3 N 0.39388(16) 0.2635(2) 0.8286(2)
N8_3 N 0.22137(16) 0.1092(2) 0.5363(2)
C11_3 C 0.42718(19) 0.3568(3) 0.8428(3)
H9_3 H 0.4328 0.4053 0.7923
C12_3 C 0.4305(2) 0.2824(3) 0.9872(3)
C13_3 C 0.3966(2) 0.2155(3) 0.9213(3)
H11_3 H 0.3785 0.1499 0.9353
C14_3 C 0.3642(2) 0.2215(3) 0.7355(3)
C15_3 C 0.4010(2) 0.2111(3) 0.6512(3)
H12_3 H 0.4522 0.2277 0.6466
C16_3 C 0.3532(2) 0.1720(3) 0.5692(3)
H13_3 H 0.3691 0.1604 0.5050
C17_3 C 0.2821(2) 0.1541(3) 0.5970(3)
C18_3 C 0.14817(19) 0.1019(3) 0.5602(3)
H14_3 H 0.1292 0.1279 0.6187
C19_3 C 0.1565(2) 0.0269(3) 0.4154(3)
C20_3 C 0.2276(2) 0.0635(3) 0.4438(3)
H16_3 H 0.2713 0.0586 0.4081
O5_3 O 0.50065(14) 0.56580(19) 0.83939(19)
H15_3 H 0.1436 0.9906 0.3565
H7_4 H 0.1436 0.0094 0.8565
C19_4 C 0.8435(2) 0.0269(3) 0.0846(3)
C20_4 C 0.7724(2) 0.0635(3) 0.0562(3)
H16_4 H 0.7287 0.0586 0.0919
S1_4 S 0.26940(5) 0.81566(8) 0.22048(7)
N1_4 N 0.45061(16) 0.6303(2) 0.4374(2)
N2_4 N 0.39388(16) 0.7365(2) 0.3286(2)
N4_4 N 0.22137(16) 0.8908(2) 0.0363(2)
C1_4 C 0.42718(19) 0.6432(3) 0.3428(3)
H1_4 H 0.4328 0.5947 0.2923
C2_4 C 0.4305(2) 0.7176(3) 0.4872(3)
H2_4 H 0.4389 0.7289 0.5559
C3_4 C 0.3966(2) 0.7845(3) 0.4213(3)
H3_4 H 0.3785 0.8501 0.4353
C4_4 C 0.3642(2) 0.7785(3) 0.2355(3)
C5_4 C 0.4010(2) 0.7889(3) 0.1512(3)
H4_4 H 0.4522 0.7723 0.1466
C6_4 C 0.3532(2) 0.8280(3) 0.0692(3)
H5_4 H 0.3691 0.8396 0.0050
C7_4 C 0.2821(2) 0.8459(3) 0.0970(3)
C8_4 C 0.14817(19) 0.8981(3) 0.0602(3)
H6_4 H 0.1292 0.8721 0.1187
S3_4 S 0.73060(5) 0.18434(8) 0.77952(7)
N5_4 N 0.54939(16) 0.3697(2) 0.5626(2)
N6_4 N 0.60612(16) 0.2635(2) 0.6714(2)
N8_4 N 0.77863(16) 0.1092(2) 0.9637(2)
C11_4 C 0.57282(19) 0.3568(3) 0.6572(3)
H9_4 H 0.5672 0.4053 0.7077
C12_4 C 0.5695(2) 0.2824(3) 0.5128(3)
H10_4 H 0.5611 0.2711 0.4441
C13_4 C 0.6034(2) 0.2155(3) 0.5787(3)
H11_4 H 0.6215 0.1499 0.5647
C14_4 C 0.6358(2) 0.2215(3) 0.7645(3)
C15_4 C 0.5990(2) 0.2111(3) 0.8488(3)
H12_4 H 0.5478 0.2277 0.8534
C16_4 C 0.6468(2) 0.1720(3) 0.9308(3)
H13_4 H 0.6309 0.1604 0.9950
C17_4 C 0.7179(2) 0.1541(3) 0.9030(3)
C18_4 C 0.85183(19) 0.1019(3) 0.9398(3)
H14_4 H 0.8708 0.1279 0.8813
O5_4 O 0.49935(14) 0.56580(19) 0.66061(19)
C9_4 C 0.1565(2) 0.9731(3) 0.9154(3)
C10_4 C 0.2276(2) 0.9365(3) 0.9438(3)
H8_4 H 0.2713 0.9414 0.9081
H15_4 H 0.8564 0.9906 0.1435
S2_4 S 0.0000 0.13138(10) 0.7500
O2_3 O 0.06973(19) 0.1951(2) 0.7547(2)
S2_5 S 1.0000 0.13138(10) 0.7500
O4_3 O 0.93027(19) 0.1951(2) 0.7453(2)
S2_6 S 0.5000 0.63138(10) 0.7500
O2_4 O 0.56973(19) 0.6951(2) 0.7547(2)
O4_4 O 0.43027(19) 0.6951(2) 0.7453(2)
loop_
_geom_bond_atom_site_label_1
_geom_bond_atom_site_label_2
_geom_bond_site_symmetry_1
_geom_bond_site_symmetry_2
S1 C4 1_555 1_555
N1 Cu1 1_555 1_555
N2 C1 1_555 1_555
N3 C8 1_555 1_555
N4 C7 1_555 1_555
C1 N1 1_555 1_555
H1 C1 1_555 1_555
C2 N1 1_555 1_555
C3 N2 1_555 1_555
H3 C3 1_555 1_555
C4 N2 1_555 1_555
C5 C4 1_555 1_555
H4 C5 1_555 1_555
C6 C5 1_555 1_555
H5 C6 1_555 1_555
C7 S1 1_555 1_555
C8 N4 1_555 1_555
H6 C8 1_555 1_555
C9 N3 1_555 1_555
H7 C9 1_555 1_555
C10 N4 1_555 1_555
H8 C10 1_555 1_555
Cu4 N3 1_555 1_555
C2 C3 1_555 1_555
C6 C7 1_555 1_555
C9 C10 1_555 1_555
O5 Cu1_2 1_555 1_555
O3 S2 1_555 1_555
O4 S2 1_555 1_555
Cu2_2 O3 1_555 1_555
N9 Cu1_4 1_555 1_555
N10 Cu1_5 1_555 1_555
Cu1_7 O1 1_555 1_555
S2_2 O1 1_555 1_555
O2 S2_2 1_555 1_555
S3 C14 1_555 1_555
N5 Cu1_8 1_555 1_555
N6 C11 1_555 1_555
N7 C18 1_555 1_555
N8 C17 1_555 1_555
C11 N5 1_555 1_555
H9 C11 1_555 1_555
C12 N5 1_555 1_555
C13 N6 1_555 1_555
H11 C13 1_555 1_555
C14 N6 1_555 1_555
C15 C14 1_555 1_555
H12 C15 1_555 1_555
C16 C15 1_555 1_555
H13 C16 1_555 1_555
C17 S3 1_555 1_555
C18 N8 1_555 1_555
H14 C18 1_555 1_555
C19 N7 1_555 1_555
H15 C19 1_555 1_555
C20 N8 1_555 1_555
H16 C20 1_555 1_555
Cu4 N7 1_555 1_555
C12 C13 1_555 1_555
C16 C17 1_555 1_555
C19 C20 1_555 1_555
N10_2 Cu2 1_555 1_555
C19_2 N7_2 1_555 1_555
H15_2 C19_2 1_555 1_555
H16_2 C20_2 1_555 1_555
Cu3 N7_2 1_555 1_555
C19_2 C20_2 1_555 1_555
S3_2 C14_2 1_555 1_555
N5_2 Cu2_2 1_555 1_555
N6_2 C11_2 1_555 1_555
N8_2 C17_2 1_555 1_555
C11_2 N5_2 1_555 1_555
H9_2 C11_2 1_555 1_555
C12_2 N5_2 1_555 1_555
H10_2 C12_2 1_555 1_555
C13_2 N6_2 1_555 1_555
H11_2 C13_2 1_555 1_555
C14_2 N6_2 1_555 1_555
C15_2 C14_2 1_555 1_555
H12_2 C15_2 1_555 1_555
C16_2 C15_2 1_555 1_555
H13_2 C16_2 1_555 1_555
C17_2 S3_2 1_555 1_555
C18_2 N8_2 1_555 1_555
H14_2 C18_2 1_555 1_555
C12_2 C13_2 1_555 1_555
C16_2 C17_2 1_555 1_555
S1_2 C4_2 1_555 1_555
N1_2 Cu2_3 1_555 1_555
N2_2 C1_2 1_555 1_555
N4_2 C7_2 1_555 1_555
C1_2 N1_2 1_555 1_555
H1_2 C1_2 1_555 1_555
C2_2 N1_2 1_555 1_555
H2_2 C2_2 1_555 1_555
C3_2 N2_2 1_555 1_555
H3_2 C3_2 1_555 1_555
C4_2 N2_2 1_555 1_555
C5_2 C4_2 1_555 1_555
H4_2 C5_2 1_555 1_555
C6_2 C5_2 1_555 1_555
H5_2 C6_2 1_555 1_555
C7_2 S1_2 1_555 1_555
C8_2 N4_2 1_555 1_555
H6_2 C8_2 1_555 1_555
O5_2 Cu2_3 1_555 1_555
C2_2 C3_2 1_555 1_555
C6_2 C7_2 1_555 1_555
C9_2 N3_2 1_555 1_555
H7_2 C9_2 1_555 1_555
H8_2 C10_2 1_555 1_555
Cu3_2 N3_2 1_555 1_555
C9_2 C10_2 1_555 1_555
N9_2 Cu2_4 1_555 1_555
Cu3 O1_2 1_555 1_555
S1_3 C4_3 1_555 1_555
S2_3 O1_2 1_555 1_555
O2_2 S2_3 1_555 1_555
N1_3 Cu3 1_555 1_555
N2_3 C1_3 1_555 1_555
N9_2 C8_3 1_555 1_555
N4_3 C7_3 1_555 1_555
C1_3 N1_3 1_555 1_555
H1_3 C1_3 1_555 1_555
C2_3 N1_3 1_555 1_555
C3_3 N2_3 1_555 1_555
H3_3 C3_3 1_555 1_555
C4_3 N2_3 1_555 1_555
C5_3 C4_3 1_555 1_555
H4_3 C5_3 1_555 1_555
C6_3 C5_3 1_555 1_555
H5_3 C6_3 1_555 1_555
C7_3 S1_3 1_555 1_555
C8_3 N4_3 1_555 1_555
H6_3 C8_3 1_555 1_555
C9_3 N9_2 1_555 1_555
C10_3 N4_3 1_555 1_555
H8_3 C10_3 1_555 1_555
O3_2 S2_3 1_555 1_555
O4_2 S2_3 1_555 1_555
Cu4 O3_2 1_555 1_555
C2_3 C3_3 1_555 1_555
C6_3 C7_3 1_555 1_555
C9_3 C10_3 1_555 1_555
S3_3 C14_3 1_555 1_555
N5_3 Cu3_2 1_555 1_555
N6_3 C11_3 1_555 1_555
N10_2 C18_3 1_555 1_555
N8_3 C17_3 1_555 1_555
C11_3 N5_3 1_555 1_555
H9_3 C11_3 1_555 1_555
C12_3 N5_3 1_555 1_555
C13_3 N6_3 1_555 1_555
H11_3 C13_3 1_555 1_555
C14_3 N6_3 1_555 1_555
C15_3 C14_3 1_555 1_555
H12_3 C15_3 1_555 1_555
C16_3 C15_3 1_555 1_555
H13_3 C16_3 1_555 1_555
C17_3 S3_3 1_555 1_555
C18_3 N8_3 1_555 1_555
H14_3 C18_3 1_555 1_555
C19_3 N10_2 1_555 1_555
C20_3 N8_3 1_555 1_555
H16_3 C20_3 1_555 1_555
O5_3 Cu3_2 1_555 1_555
C12_3 C13_3 1_555 1_555
C16_3 C17_3 1_555 1_555
C19_3 C20_3 1_555 1_555
C19_4 N10 1_555 1_555
H16_4 C20_4 1_555 1_555
C19_4 C20_4 1_555 1_555
S1_4 C4_4 1_555 1_555
N1_4 Cu4 1_555 1_555
N2_4 C1_4 1_555 1_555
N4_4 C7_4 1_555 1_555
C1_4 N1_4 1_555 1_555
H1_4 C1_4 1_555 1_555
C2_4 N1_4 1_555 1_555
H2_4 C2_4 1_555 1_555
C3_4 N2_4 1_555 1_555
H3_4 C3_4 1_555 1_555
C4_4 N2_4 1_555 1_555
C5_4 C4_4 1_555 1_555
H4_4 C5_4 1_555 1_555
C6_4 C5_4 1_555 1_555
H5_4 C6_4 1_555 1_555
C7_4 S1_4 1_555 1_555
C8_4 N4_4 1_555 1_555
H6_4 C8_4 1_555 1_555
S3_4 C14_4 1_555 1_555
N5_4 Cu4 1_555 1_555
N6_4 C11_4 1_555 1_555
N8_4 C17_4 1_555 1_555
C11_4 N5_4 1_555 1_555
H9_4 C11_4 1_555 1_555
C12_4 N5_4 1_555 1_555
H10_4 C12_4 1_555 1_555
C13_4 N6_4 1_555 1_555
H11_4 C13_4 1_555 1_555
C14_4 N6_4 1_555 1_555
C15_4 C14_4 1_555 1_555
H12_4 C15_4 1_555 1_555
C16_4 C15_4 1_555 1_555
H13_4 C16_4 1_555 1_555
C17_4 S3_4 1_555 1_555
C18_4 N8_4 1_555 1_555
H14_4 C18_4 1_555 1_555
O5_4 Cu4 1_555 1_555
C2_4 C3_4 1_555 1_555
C6_4 C7_4 1_555 1_555
C12_4 C13_4 1_555 1_555
C16_4 C17_4 1_555 1_555
C9_4 N9 1_555 1_555
H8_4 C10_4 1_555 1_555
C9_4 C10_4 1_555 1_555
S2_4 O5 1_555 1_555
O2_3 S2_4 1_555 1_555
O5_2 S2_5 1_555 1_555
O4_3 S2_5 1_555 1_555
S2_6 O5_3 1_555 1_555
O2_4 S2_6 1_555 1_555
O5_4 S2_6 1_555 1_555
O4_4 S2_6 1_555 1_555

#END
