
###############################################################################
#
# This file contains modified crystal structure data generated from the
# MOF subset of the Cambridge Structural Database (CSD) v543 
# hosted by the Cambridge Crystallographic Data Centre (CCDC).
#
# This work is licensed under the Creative Commons
# Attribution-NonCommercial-ShareAlike 4.0 International License.
# To view a copy of this license, visit
# http://creativecommons.org/licenses/by-nc-sa/4.0/
# or send a letter to
# Creative Commons, PO Box 1866, Mountain View, CA 94042, USA.
#
# CIF created using the CSD Python API on 29 September 2022
# The structure has been converted into the P1 space group
# The structure has a 3D framework
# The original CSD entry FOBNAN is in the monoclinic crystal system
# The framework has been calculated to contain at least 10.0% void space
# The void calculation uses a probe of radius 1.32A, grid spacing 0.4
# H atom positions have been added when not included in the experimental data
#
###############################################################################

data_FOBNAN
_chemical_formula_moiety         '(C302 H240 Dy8 N8 O88)n'
_symmetry_cell_setting           triclinic
_symmetry_space_group_name_H-M   'P 1'
_symmetry_Int_Tables_number      1
_space_group_name_Hall           'P 1'
loop_
_symmetry_equiv_pos_site_id
_symmetry_equiv_pos_as_xyz
1 x,y,z
_cell_length_a                   31.28(3)
_cell_length_b                   14.735(13)
_cell_length_c                   28.51(5)
_cell_angle_alpha                90
_cell_angle_beta                 120.13(5)
_cell_angle_gamma                90
_cell_volume                     11365.1
loop_
_atom_site_label
_atom_site_type_symbol
_atom_site_fract_x
_atom_site_fract_y
_atom_site_fract_z
C1 C 0.1912(3) 0.0287(7) 0.1278(4)
C2 C 0.2266(3) 0.0398(7) 0.1844(4)
C5 C 0.2161(4) 0.0120(7) 0.2238(4)
O1 O 0.2709(3) 0.0769(6) 0.1996(3)
H5 H 0.2696 0.1041 0.1738
C31 C 0.2549(4) 0.0217(7) 0.2826(3)
H18 H 0.2411 0.0571 0.3005
H19 H 0.2823 0.0561 0.2847
C33 C 0.2053(3) 0.0507(6) 0.0866(3)
O5 O 0.2488(2) 0.0782(6) 0.1017(3)
O6 O 0.1738(3) 0.0464(5) 0.0365(3)
C35 C 0.1940(9) 0.0859(15) 0.4664(10)
H21 H 0.1956 0.0938 0.4997
C36 C 0.1800(18) 0.150(3) 0.3833(14)
H22 H 0.1704 0.0889 0.3706
H23 H 0.2108 0.1637 0.3852
H24 H 0.1550 0.1912 0.3587
N1 N 0.1856(13) 0.1592(16) 0.4369(12)
O11 O 0.1997(3) 0.0118(5) 0.4558(3)
C38 C 0.1786(19) 0.2515(18) 0.466(2)
H26 H 0.1985 0.2461 0.5045
H27 H 0.1445 0.2579 0.4556
H28 H 0.1889 0.3038 0.4540
Dy4 Dy 0.231937(14) 0.11783(3) 0.012459(14)
H57 H 0.282391 0.0514327 0.541404
Dy1 Dy 0.231937(14) 0.88217(3) 0.512459(14)
C3 C 0.1680(4) 0.9816(7) 0.2077(4)
C4 C 0.1456(4) 0.9959(7) 0.1130(4)
H1 H 0.1228 0.9880 0.0763
C6 C 0.1318(4) 0.9739(8) 0.1513(4)
C7 C 0.1522(5) 0.9596(9) 0.2458(5)
H2 H 0.1742 0.9656 0.2828
C8 C 0.1050(5) 0.9299(11) 0.2279(6)
H3 H 0.0959 0.9143 0.2533
C9 C 0.0703(5) 0.9223(12) 0.1732(6)
H4 H 0.0384 0.9024 0.1623
C10 C 0.0825(3) 0.7926(6) 0.3297(3)
C11 C 0.0000 0.8283(10) 0.2500
C12 C 0.1647(3) 0.7623(7) 0.4141(3)
C13 C 0.0567(3) 0.7068(8) 0.2481(4)
C14 C 0.0474(3) 0.7736(7) 0.2763(3)
C15 C 0.1264(3) 0.7400(6) 0.3571(3)
C16 C 0.1339(3) 0.6705(8) 0.3316(4)
H7 H 0.1616 0.6338 0.3505
C17 C 0.0998(4) 0.6523(9) 0.2760(4)
C18 C 0.0254(4) 0.6902(10) 0.1919(4)
C19 C 0.0355(5) 0.6234(13) 0.1661(5)
H9 H 0.0148 0.6148 0.1291
C20 C 0.0776(5) 0.5660(16) 0.1954(7)
H10 H 0.0834 0.5185 0.1779
O2 O 0.0733(3) 0.8607(6) 0.3549(3)
H11 H 0.0996 0.8821 0.3786
C21 C 0.3030(4) 0.8711(7) 0.3019(4)
C22 C 0.3143(5) 0.8864(9) 0.2602(4)
H12 H 0.3040 0.9396 0.2399
C23 C 0.3562(6) 0.7435(10) 0.2778(6)
H13 H 0.3730 0.7008 0.2690
C24 C 0.3206(4) 0.7896(8) 0.3316(4)
C25 C 0.3473(5) 0.7270(9) 0.3189(5)
H14 H 0.3589 0.6737 0.3389
C26 C 0.3409(5) 0.8216(10) 0.2497(5)
H15 H 0.3483 0.8327 0.2224
C27 C 0.2882(3) 0.8347(7) 0.3893(3)
C28 C 0.2698(4) 0.9155(7) 0.3587(3)
C29 C 0.2753(4) 0.9334(7) 0.3141(4)
C30 C 0.3127(4) 0.7737(7) 0.3754(4)
H16 H 0.3245 0.7204 0.3953
O3 O 0.1591(2) 0.8350(5) 0.4341(2)
O4 O 0.2453(3) 0.9775(5) 0.3718(3)
H17 H 0.2384 0.9551 0.3935
C32 C 0.2811(3) 0.8140(6) 0.4361(3)
O7 O 0.2594(2) 0.8717(5) 0.4491(2)
O8 O 0.2964(3) 0.9894(6) 0.5462(3)
O9 O 0.2969(2) 0.7393(5) 0.4594(2)
O10 O 0.2008(2) 0.7113(5) 0.4388(2)
C34 C 0.0831(5) 0.9441(10) 0.1361(5)
H20 H 0.0596 0.9397 0.0994
C37 C 0.1085(5) 0.5810(13) 0.2479(6)
H25 H 0.1362 0.5443 0.2667
H29 H 0.0001 0.8673 0.2226
H31 H 0.0026 0.7258 0.3277
Dy5 Dy 0.268063(14) 0.61783(3) 0.487541(14)
O24 O 0.2488(2) 0.9218(6) 0.6017(3)
O26 O 0.1738(3) 0.9536(5) 0.5365(3)
O27 O 0.2031(2) 0.7607(5) 0.5406(2)
O29 O 0.2992(2) 0.7887(5) 0.5612(2)
H58 H 0.319414 0.977853 0.585343
C50 C 0.8088(3) 0.0287(7) 0.3722(4)
C51 C 0.7734(3) 0.0398(7) 0.3156(4)
C54 C 0.7839(4) 0.0120(7) 0.2762(4)
O15 O 0.7291(3) 0.0769(6) 0.3004(3)
H40 H 0.7304 0.1041 0.3262
C69 C 0.7451(4) 0.0217(7) 0.2174(3)
H47 H 0.7589 0.0571 0.1995
H48 H 0.7177 0.0561 0.2153
C71 C 0.7947(3) 0.0507(6) 0.4134(3)
O17 O 0.7512(2) 0.0782(6) 0.3983(3)
O18 O 0.8262(3) 0.0464(5) 0.4635(3)
C73 C 0.8060(9) 0.0859(15) 0.0336(10)
H50 H 0.8044 0.0938 0.0003
C74 C 0.8200(18) 0.150(3) 0.1167(14)
H51 H 0.8296 0.0889 0.1294
H52 H 0.7892 0.1637 0.1148
H53 H 0.8450 0.1912 0.1413
N2 N 0.8144(13) 0.1592(16) 0.0631(12)
O22 O 0.8003(3) 0.0118(5) 0.0442(3)
C75 C 0.8214(19) 0.2515(18) 0.034(2)
H55 H 0.8555 0.2579 0.0444
H56 H 0.8111 0.3038 0.0460
Dy3 Dy 0.768063(14) 0.11783(3) 0.487541(14)
C11_2 C 1.0000 0.8283(10) 0.2500
H6 H 0.9999 0.8673 0.2774
H8 H 0.9974 0.7258 0.1723
C39 C 0.9175(3) 0.7926(6) 0.1703(3)
C40 C 0.8353(3) 0.7623(7) 0.0859(3)
C41 C 0.9433(3) 0.7068(8) 0.2519(4)
C42 C 0.9526(3) 0.7736(7) 0.2237(3)
C43 C 0.8736(3) 0.7400(6) 0.1429(3)
C44 C 0.8661(3) 0.6705(8) 0.1684(4)
H30 H 0.8384 0.6338 0.1495
C45 C 0.9002(4) 0.6523(9) 0.2240(4)
C46 C 0.9746(4) 0.6902(10) 0.3081(4)
C47 C 0.9645(5) 0.6234(13) 0.3339(5)
H32 H 0.9852 0.6148 0.3709
C48 C 0.9224(5) 0.5660(16) 0.3046(7)
H33 H 0.9166 0.5185 0.3221
O12 O 0.9267(3) 0.8607(6) 0.1451(3)
H34 H 0.9004 0.8821 0.1214
O13 O 0.8409(2) 0.8350(5) 0.0659(2)
O14 O 0.7992(2) 0.7113(5) 0.0612(2)
C49 C 0.8915(5) 0.5810(13) 0.2521(6)
H35 H 0.8638 0.5443 0.2333
C52 C 0.8320(4) 0.9816(7) 0.2923(4)
C53 C 0.8544(4) 0.9959(7) 0.3870(4)
H36 H 0.8772 0.9880 0.4237
C55 C 0.8682(4) 0.9739(8) 0.3487(4)
C56 C 0.8478(5) 0.9596(9) 0.2542(5)
H37 H 0.8258 0.9656 0.2172
C57 C 0.8950(5) 0.9299(11) 0.2721(6)
H38 H 0.9041 0.9143 0.2467
C58 C 0.9297(5) 0.9223(12) 0.3268(6)
H39 H 0.9616 0.9024 0.3377
C59 C 0.6970(4) 0.8711(7) 0.1981(4)
C60 C 0.6857(5) 0.8864(9) 0.2398(4)
H41 H 0.6960 0.9396 0.2601
C61 C 0.6438(6) 0.7435(10) 0.2222(6)
H42 H 0.6270 0.7008 0.2310
C62 C 0.6794(4) 0.7896(8) 0.1684(4)
C63 C 0.6527(5) 0.7270(9) 0.1811(5)
H43 H 0.6411 0.6737 0.1611
C64 C 0.6591(5) 0.8216(10) 0.2503(5)
H44 H 0.6517 0.8327 0.2776
C65 C 0.7118(3) 0.8347(7) 0.1107(3)
C66 C 0.7302(4) 0.9155(7) 0.1413(3)
C67 C 0.7247(4) 0.9334(7) 0.1859(4)
C68 C 0.6873(4) 0.7737(7) 0.1246(4)
H45 H 0.6755 0.7204 0.1047
O16 O 0.7547(3) 0.9775(5) 0.1282(3)
H46 H 0.7616 0.9551 0.1065
C70 C 0.7189(3) 0.8140(6) 0.0639(3)
O19 O 0.7406(2) 0.8717(5) 0.0509(2)
O21 O 0.7031(2) 0.7393(5) 0.0406(2)
C72 C 0.9169(5) 0.9441(10) 0.3639(5)
H49 H 0.9404 0.9397 0.4006
Dy6 Dy 0.731937(14) 0.61783(3) 0.012459(14)
Dy2 Dy 0.768063(14) 0.88217(3) 0.987541(14)
O20 O 0.7036(3) 0.9894(6) 0.9538(3)
O23 O 0.7512(2) 0.9218(6) 0.8983(3)
O25 O 0.8262(3) 0.9536(5) 0.9635(3)
O28 O 0.7969(2) 0.7607(5) 0.9594(2)
O30 O 0.7008(2) 0.7887(5) 0.9388(2)
H60 H 0.680586 0.977853 0.914657
Dy1_2 Dy 0.731937(14) 0.38217(3) 0.512459(14)
C1_2 C 0.6912(3) 0.5287(7) 0.1278(4)
C2_2 C 0.7266(3) 0.5398(7) 0.1844(4)
C3_2 C 0.6680(4) 0.4816(7) 0.2077(4)
C4_2 C 0.6456(4) 0.4959(7) 0.1130(4)
H1_2 H 0.6228 0.4880 0.0763
C5_2 C 0.7161(4) 0.5120(7) 0.2238(4)
C6_2 C 0.6318(4) 0.4739(8) 0.1513(4)
C7_2 C 0.6522(5) 0.4596(9) 0.2458(5)
H2_2 H 0.6742 0.4656 0.2828
C8_2 C 0.6050(5) 0.4299(11) 0.2279(6)
H3_2 H 0.5959 0.4143 0.2533
C9_2 C 0.5703(5) 0.4223(12) 0.1732(6)
H4_2 H 0.5384 0.4024 0.1623
O1_2 O 0.7709(3) 0.5769(6) 0.1996(3)
H5_2 H 0.7696 0.6041 0.1738
C10_2 C 0.5825(3) 0.2926(6) 0.3297(3)
C11_3 C 0.5000 0.3283(10) 0.2500
H6_2 H 0.4999 0.3673 0.2774
C12_2 C 0.6647(3) 0.2623(7) 0.4141(3)
C13_2 C 0.5567(3) 0.2068(8) 0.2481(4)
C14_2 C 0.5474(3) 0.2736(7) 0.2763(3)
C15_2 C 0.6264(3) 0.2400(6) 0.3571(3)
C16_2 C 0.6339(3) 0.1705(8) 0.3316(4)
H7_2 H 0.6616 0.1338 0.3505
C17_2 C 0.5998(4) 0.1523(9) 0.2760(4)
C18_2 C 0.5254(4) 0.1902(10) 0.1919(4)
H8_2 H 0.4974 0.2258 0.1723
C19_2 C 0.5355(5) 0.1234(13) 0.1661(5)
H9_2 H 0.5148 0.1148 0.1291
C20_2 C 0.5776(5) 0.0660(16) 0.1954(7)
H10_2 H 0.5834 0.0185 0.1779
O2_2 O 0.5733(3) 0.3607(6) 0.3549(3)
H11_2 H 0.5996 0.3821 0.3786
C21_2 C 0.8030(4) 0.3711(7) 0.3019(4)
C22_2 C 0.8143(5) 0.3864(9) 0.2602(4)
H12_2 H 0.8040 0.4396 0.2399
C23_2 C 0.8562(6) 0.2435(10) 0.2778(6)
H13_2 H 0.8730 0.2008 0.2690
C24_2 C 0.8206(4) 0.2896(8) 0.3316(4)
C25_2 C 0.8473(5) 0.2270(9) 0.3189(5)
H14_2 H 0.8589 0.1737 0.3389
C26_2 C 0.8409(5) 0.3216(10) 0.2497(5)
H15_2 H 0.8483 0.3327 0.2224
C27_2 C 0.7882(3) 0.3347(7) 0.3893(3)
C28_2 C 0.7698(4) 0.4155(7) 0.3587(3)
C29_2 C 0.7753(4) 0.4334(7) 0.3141(4)
C30_2 C 0.8127(4) 0.2737(7) 0.3754(4)
H16_2 H 0.8245 0.2204 0.3953
O3_2 O 0.6591(2) 0.3350(5) 0.4341(2)
O4_2 O 0.7453(3) 0.4775(5) 0.3718(3)
H17_2 H 0.7384 0.4551 0.3935
C31_2 C 0.7549(4) 0.5217(7) 0.2826(3)
H18_2 H 0.7411 0.5571 0.3005
H19_2 H 0.7823 0.5561 0.2847
C32_2 C 0.7811(3) 0.3140(6) 0.4361(3)
C33_2 C 0.7053(3) 0.5507(6) 0.0866(3)
O5_2 O 0.7488(2) 0.5782(6) 0.1017(3)
O6_2 O 0.6738(3) 0.5464(5) 0.0365(3)
O7_2 O 0.7594(2) 0.3717(5) 0.4491(2)
O8_2 O 0.7964(3) 0.4894(6) 0.5462(3)
O9_2 O 0.7969(2) 0.2393(5) 0.4594(2)
O10_2 O 0.7008(2) 0.2113(5) 0.4388(2)
C34_2 C 0.5831(5) 0.4441(10) 0.1361(5)
H20_2 H 0.5596 0.4397 0.0994
C35_2 C 0.6940(9) 0.5859(15) 0.4664(10)
H21_2 H 0.6956 0.5938 0.4997
C36_2 C 0.6800(18) 0.650(3) 0.3833(14)
H22_2 H 0.6704 0.5889 0.3706
H23_2 H 0.7108 0.6637 0.3852
H24_2 H 0.6550 0.6912 0.3587
N1_2 N 0.6856(13) 0.6592(16) 0.4369(12)
O11_2 O 0.6997(3) 0.5118(5) 0.4558(3)
C37_2 C 0.6085(5) 0.0810(13) 0.2479(6)
H25_2 H 0.6362 0.0443 0.2667
C38_2 C 0.6786(19) 0.7515(18) 0.466(2)
H26_2 H 0.6985 0.7461 0.5045
H27_2 H 0.6445 0.7579 0.4556
H28_2 H 0.6889 0.8038 0.4540
C39_2 C 0.4175(3) 0.2926(6) 0.1703(3)
H29_2 H 0.5001 0.3673 0.2226
C40_2 C 0.3353(3) 0.2623(7) 0.0859(3)
C41_2 C 0.4433(3) 0.2068(8) 0.2519(4)
C42_2 C 0.4526(3) 0.2736(7) 0.2237(3)
C43_2 C 0.3736(3) 0.2400(6) 0.1429(3)
C44_2 C 0.3661(3) 0.1705(8) 0.1684(4)
H30_2 H 0.3384 0.1338 0.1495
C45_2 C 0.4002(4) 0.1523(9) 0.2240(4)
C46_2 C 0.4746(4) 0.1902(10) 0.3081(4)
H31_2 H 0.5026 0.2258 0.3277
C47_2 C 0.4645(5) 0.1234(13) 0.3339(5)
H32_2 H 0.4852 0.1148 0.3709
C48_2 C 0.4224(5) 0.0660(16) 0.3046(7)
H33_2 H 0.4166 0.0185 0.3221
O12_2 O 0.4267(3) 0.3607(6) 0.1451(3)
H34_2 H 0.4004 0.3821 0.1214
O13_2 O 0.3409(2) 0.3350(5) 0.0659(2)
O14_2 O 0.2992(2) 0.2113(5) 0.0612(2)
C49_2 C 0.3915(5) 0.0810(13) 0.2521(6)
H35_2 H 0.3638 0.0443 0.2333
C50_2 C 0.3088(3) 0.5287(7) 0.3722(4)
C51_2 C 0.2734(3) 0.5398(7) 0.3156(4)
C52_2 C 0.3320(4) 0.4816(7) 0.2923(4)
C53_2 C 0.3544(4) 0.4959(7) 0.3870(4)
H36_2 H 0.3772 0.4880 0.4237
C54_2 C 0.2839(4) 0.5120(7) 0.2762(4)
C55_2 C 0.3682(4) 0.4739(8) 0.3487(4)
C56_2 C 0.3478(5) 0.4596(9) 0.2542(5)
H37_2 H 0.3258 0.4656 0.2172
C57_2 C 0.3950(5) 0.4299(11) 0.2721(6)
H38_2 H 0.4041 0.4143 0.2467
C58_2 C 0.4297(5) 0.4223(12) 0.3268(6)
H39_2 H 0.4616 0.4024 0.3377
O15_2 O 0.2291(3) 0.5769(6) 0.3004(3)
H40_2 H 0.2304 0.6041 0.3262
C59_2 C 0.1970(4) 0.3711(7) 0.1981(4)
C60_2 C 0.1857(5) 0.3864(9) 0.2398(4)
H41_2 H 0.1960 0.4396 0.2601
C61_2 C 0.1438(6) 0.2435(10) 0.2222(6)
H42_2 H 0.1270 0.2008 0.2310
C62_2 C 0.1794(4) 0.2896(8) 0.1684(4)
C63_2 C 0.1527(5) 0.2270(9) 0.1811(5)
H43_2 H 0.1411 0.1737 0.1611
C64_2 C 0.1591(5) 0.3216(10) 0.2503(5)
H44_2 H 0.1517 0.3327 0.2776
C65_2 C 0.2118(3) 0.3347(7) 0.1107(3)
C66_2 C 0.2302(4) 0.4155(7) 0.1413(3)
C67_2 C 0.2247(4) 0.4334(7) 0.1859(4)
C68_2 C 0.1873(4) 0.2737(7) 0.1246(4)
H45_2 H 0.1755 0.2204 0.1047
O16_2 O 0.2547(3) 0.4775(5) 0.1282(3)
H46_2 H 0.2616 0.4551 0.1065
C69_2 C 0.2451(4) 0.5217(7) 0.2174(3)
H47_2 H 0.2589 0.5571 0.1995
H48_2 H 0.2177 0.5561 0.2153
C70_2 C 0.2189(3) 0.3140(6) 0.0639(3)
C71_2 C 0.2947(3) 0.5507(6) 0.4134(3)
O17_2 O 0.2512(2) 0.5782(6) 0.3983(3)
O18_2 O 0.3262(3) 0.5464(5) 0.4635(3)
O19_2 O 0.2406(2) 0.3717(5) 0.0509(2)
O21_2 O 0.2031(2) 0.2393(5) 0.0406(2)
C72_2 C 0.4169(5) 0.4441(10) 0.3639(5)
H49_2 H 0.4404 0.4397 0.4006
C73_2 C 0.3060(9) 0.5859(15) 0.0336(10)
H50_2 H 0.3044 0.5938 0.0003
C74_2 C 0.3200(18) 0.650(3) 0.1167(14)
H51_2 H 0.3296 0.5889 0.1294
H52_2 H 0.2892 0.6637 0.1148
H53_2 H 0.3450 0.6912 0.1413
N2_2 N 0.3144(13) 0.6592(16) 0.0631(12)
O22_2 O 0.3003(3) 0.5118(5) 0.0442(3)
C75_2 C 0.3214(19) 0.7515(18) 0.034(2)
H55_2 H 0.3555 0.7579 0.0444
H56_2 H 0.3111 0.8038 0.0460
O24_2 O 0.7488(2) 0.4218(6) 0.6017(3)
O26_2 O 0.6738(3) 0.4536(5) 0.5365(3)
O27_2 O 0.7031(2) 0.2607(5) 0.5406(2)
O29_2 O 0.7992(2) 0.2887(5) 0.5612(2)
H57_2 H 0.782391 0.551433 0.541404
H58_2 H 0.819414 0.477853 0.585343
Dy2_2 Dy 0.268063(14) 0.38217(3) 0.987541(14)
O20_2 O 0.2036(3) 0.4894(6) 0.9538(3)
H54 H 0.3015 0.7461 0.9955
O23_2 O 0.2512(2) 0.4218(6) 0.8983(3)
O25_2 O 0.3262(3) 0.4536(5) 0.9635(3)
O28_2 O 0.2969(2) 0.2607(5) 0.9594(2)
O30_2 O 0.2008(2) 0.2887(5) 0.9388(2)
H59 H 0.217609 0.551433 0.958596
H60_2 H 0.180586 0.477853 0.914657
O20_3 O 0.2964(3) 0.0106(6) 0.0462(3)
H60_3 H 0.319414 0.022147 0.0853431
C11_4 C 0.0000 0.1717(10) 0.7500
H6_3 H 0.0001 0.1327 0.7226
H8_3 H 0.0026 0.2742 0.8277
C39_3 C 0.0825(3) 0.2074(6) 0.8297(3)
C40_3 C 0.1647(3) 0.2377(7) 0.9141(3)
C41_3 C 0.0567(3) 0.2932(8) 0.7481(4)
C42_3 C 0.0474(3) 0.2264(7) 0.7763(3)
C43_3 C 0.1264(3) 0.2600(6) 0.8571(3)
C44_3 C 0.1339(3) 0.3295(8) 0.8316(4)
H30_3 H 0.1616 0.3662 0.8505
C45_3 C 0.0998(4) 0.3477(9) 0.7760(4)
C46_3 C 0.0254(4) 0.3098(10) 0.6919(4)
C47_3 C 0.0355(5) 0.3766(13) 0.6661(5)
H32_3 H 0.0148 0.3852 0.6291
C48_3 C 0.0776(5) 0.4340(16) 0.6954(7)
H33_3 H 0.0834 0.4815 0.6779
O12_3 O 0.0733(3) 0.1393(6) 0.8549(3)
H34_3 H 0.0996 0.1179 0.8786
O13_3 O 0.1591(2) 0.1650(5) 0.9341(2)
C49_3 C 0.1085(5) 0.4190(13) 0.7479(6)
H35_3 H 0.1362 0.4557 0.7667
C52_3 C 0.1680(4) 0.0184(7) 0.7077(4)
C53_3 C 0.1456(4) 0.0041(7) 0.6130(4)
H36_3 H 0.1228 0.0120 0.5763
C55_3 C 0.1318(4) 0.0261(8) 0.6513(4)
C56_3 C 0.1522(5) 0.0404(9) 0.7458(5)
H37_3 H 0.1742 0.0344 0.7828
C57_3 C 0.1050(5) 0.0701(11) 0.7279(6)
H38_3 H 0.0959 0.0857 0.7533
C58_3 C 0.0703(5) 0.0777(12) 0.6732(6)
H39_3 H 0.0384 0.0976 0.6623
C59_3 C 0.3030(4) 0.1289(7) 0.8019(4)
C60_3 C 0.3143(5) 0.1136(9) 0.7602(4)
H41_3 H 0.3040 0.0604 0.7399
C61_3 C 0.3562(6) 0.2565(10) 0.7778(6)
H42_3 H 0.3730 0.2992 0.7690
C62_3 C 0.3206(4) 0.2104(8) 0.8316(4)
C63_3 C 0.3473(5) 0.2730(9) 0.8189(5)
H43_3 H 0.3589 0.3263 0.8389
C64_3 C 0.3409(5) 0.1784(10) 0.7497(5)
H44_3 H 0.3483 0.1673 0.7224
C65_3 C 0.2882(3) 0.1653(7) 0.8893(3)
C66_3 C 0.2698(4) 0.0845(7) 0.8587(3)
C67_3 C 0.2753(4) 0.0666(7) 0.8141(4)
C68_3 C 0.3127(4) 0.2263(7) 0.8754(4)
H45_3 H 0.3245 0.2796 0.8953
O16_3 O 0.2453(3) 0.0225(5) 0.8718(3)
H46_3 H 0.2384 0.0449 0.8935
C70_3 C 0.2811(3) 0.1860(6) 0.9361(3)
O19_3 O 0.2594(2) 0.1283(5) 0.9491(2)
C72_3 C 0.0831(5) 0.0559(10) 0.6361(5)
H49_3 H 0.0596 0.0603 0.5994
C50_3 C 0.1912(3) 0.9713(7) 0.6278(4)
C51_3 C 0.2266(3) 0.9602(7) 0.6844(4)
C54_3 C 0.2161(4) 0.9880(7) 0.7238(4)
O15_3 O 0.2709(3) 0.9231(6) 0.6996(3)
H40_3 H 0.2696 0.8959 0.6738
C69_3 C 0.2549(4) 0.9783(7) 0.7826(3)
H47_3 H 0.2411 0.9429 0.8005
H48_3 H 0.2823 0.9439 0.7847
C71_3 C 0.2053(3) 0.9493(6) 0.5866(3)
C73_3 C 0.1940(9) 0.9141(15) 0.9664(10)
H50_3 H 0.1956 0.9062 0.9997
C74_3 C 0.1800(18) 0.850(3) 0.8833(14)
H51_3 H 0.1704 0.9111 0.8706
H52_3 H 0.2108 0.8363 0.8852
H53_3 H 0.1550 0.8088 0.8587
N2_3 N 0.1856(13) 0.8408(16) 0.9369(12)
O22_3 O 0.1997(3) 0.9882(5) 0.9558(3)
C75_3 C 0.1786(19) 0.7485(18) 0.966(2)
H55_3 H 0.1445 0.7421 0.9556
H56_3 H 0.1889 0.6962 0.9540
C3_3 C 0.8320(4) 0.0184(7) 0.7923(4)
C4_3 C 0.8544(4) 0.0041(7) 0.8870(4)
H1_3 H 0.8772 0.0120 0.9237
C6_3 C 0.8682(4) 0.0261(8) 0.8487(4)
C7_3 C 0.8478(5) 0.0404(9) 0.7542(5)
H2_3 H 0.8258 0.0344 0.7172
C8_3 C 0.8950(5) 0.0701(11) 0.7721(6)
H3_3 H 0.9041 0.0857 0.7467
C9_3 C 0.9297(5) 0.0777(12) 0.8268(6)
H4_3 H 0.9616 0.0976 0.8377
C10_3 C 0.9175(3) 0.2074(6) 0.6703(3)
C11_5 C 1.0000 0.1717(10) 0.7500
C12_3 C 0.8353(3) 0.2377(7) 0.5859(3)
C13_3 C 0.9433(3) 0.2932(8) 0.7519(4)
C14_3 C 0.9526(3) 0.2264(7) 0.7237(3)
C15_3 C 0.8736(3) 0.2600(6) 0.6429(3)
C16_3 C 0.8661(3) 0.3295(8) 0.6684(4)
H7_3 H 0.8384 0.3662 0.6495
C17_3 C 0.9002(4) 0.3477(9) 0.7240(4)
C18_3 C 0.9746(4) 0.3098(10) 0.8081(4)
C19_3 C 0.9645(5) 0.3766(13) 0.8339(5)
H9_3 H 0.9852 0.3852 0.8709
C20_3 C 0.9224(5) 0.4340(16) 0.8046(7)
H10_3 H 0.9166 0.4815 0.8221
O2_3 O 0.9267(3) 0.1393(6) 0.6451(3)
H11_3 H 0.9004 0.1179 0.6214
C21_3 C 0.6970(4) 0.1289(7) 0.6981(4)
C22_3 C 0.6857(5) 0.1136(9) 0.7398(4)
H12_3 H 0.6960 0.0604 0.7601
C23_3 C 0.6438(6) 0.2565(10) 0.7222(6)
H13_3 H 0.6270 0.2992 0.7310
C24_3 C 0.6794(4) 0.2104(8) 0.6684(4)
C25_3 C 0.6527(5) 0.2730(9) 0.6811(5)
H14_3 H 0.6411 0.3263 0.6611
C26_3 C 0.6591(5) 0.1784(10) 0.7503(5)
H15_3 H 0.6517 0.1673 0.7776
C27_3 C 0.7118(3) 0.1653(7) 0.6107(3)
C28_3 C 0.7302(4) 0.0845(7) 0.6413(3)
C29_3 C 0.7247(4) 0.0666(7) 0.6859(4)
C30_3 C 0.6873(4) 0.2263(7) 0.6246(4)
H16_3 H 0.6755 0.2796 0.6047
O3_3 O 0.8409(2) 0.1650(5) 0.5659(2)
O4_3 O 0.7547(3) 0.0225(5) 0.6282(3)
H17_3 H 0.7616 0.0449 0.6065
C32_3 C 0.7189(3) 0.1860(6) 0.5639(3)
O7_3 O 0.7406(2) 0.1283(5) 0.5509(2)
O8_3 O 0.7036(3) 0.0106(6) 0.4538(3)
C34_3 C 0.9169(5) 0.0559(10) 0.8639(5)
H20_3 H 0.9404 0.0603 0.9006
C37_3 C 0.8915(5) 0.4190(13) 0.7521(6)
H25_3 H 0.8638 0.4557 0.7333
H29_3 H 0.9999 0.1327 0.7774
H31_3 H 0.9974 0.2742 0.6723
H58_3 H 0.680586 0.022147 0.414657
C1_3 C 0.8088(3) 0.9713(7) 0.8722(4)
C2_3 C 0.7734(3) 0.9602(7) 0.8156(4)
C5_3 C 0.7839(4) 0.9880(7) 0.7762(4)
O1_3 O 0.7291(3) 0.9231(6) 0.8004(3)
H5_3 H 0.7304 0.8959 0.8262
C31_3 C 0.7451(4) 0.9783(7) 0.7174(3)
H18_3 H 0.7589 0.9429 0.6995
H19_3 H 0.7177 0.9439 0.7153
C33_3 C 0.7947(3) 0.9493(6) 0.9134(3)
C35_3 C 0.8060(9) 0.9141(15) 0.5336(10)
H21_3 H 0.8044 0.9062 0.5003
C36_3 C 0.8200(18) 0.850(3) 0.6167(14)
H22_3 H 0.8296 0.9111 0.6294
H23_3 H 0.7892 0.8363 0.6148
H24_3 H 0.8450 0.8088 0.6413
N1_3 N 0.8144(13) 0.8408(16) 0.5631(12)
O11_3 O 0.8003(3) 0.9882(5) 0.5442(3)
C38_3 C 0.8214(19) 0.7485(18) 0.534(2)
H26_3 H 0.8015 0.7539 0.4955
H27_3 H 0.8555 0.7421 0.5444
H28_3 H 0.8111 0.6962 0.5460
H57_3 H 0.717609 0.948567 0.458596
O20_4 O 0.7964(3) 0.5106(6) 0.0462(3)
H54_2 H 0.6985 0.2539 0.0045
H59_2 H 0.782391 0.448567 0.0414042
H60_4 H 0.819414 0.522147 0.0853431
C1_4 C 0.3088(3) 0.4713(7) 0.8722(4)
C2_4 C 0.2734(3) 0.4602(7) 0.8156(4)
C3_4 C 0.3320(4) 0.5184(7) 0.7923(4)
C4_4 C 0.3544(4) 0.5041(7) 0.8870(4)
H1_4 H 0.3772 0.5120 0.9237
C5_4 C 0.2839(4) 0.4880(7) 0.7762(4)
C6_4 C 0.3682(4) 0.5261(8) 0.8487(4)
C7_4 C 0.3478(5) 0.5404(9) 0.7542(5)
H2_4 H 0.3258 0.5344 0.7172
C8_4 C 0.3950(5) 0.5701(11) 0.7721(6)
H3_4 H 0.4041 0.5857 0.7467
C9_4 C 0.4297(5) 0.5777(12) 0.8268(6)
H4_4 H 0.4616 0.5976 0.8377
O1_4 O 0.2291(3) 0.4231(6) 0.8004(3)
H5_4 H 0.2304 0.3959 0.8262
C10_4 C 0.4175(3) 0.7074(6) 0.6703(3)
C11_6 C 0.5000 0.6717(10) 0.7500
H6_4 H 0.5001 0.6327 0.7226
C12_4 C 0.3353(3) 0.7377(7) 0.5859(3)
C13_4 C 0.4433(3) 0.7932(8) 0.7519(4)
C14_4 C 0.4526(3) 0.7264(7) 0.7237(3)
C15_4 C 0.3736(3) 0.7600(6) 0.6429(3)
C16_4 C 0.3661(3) 0.8295(8) 0.6684(4)
H7_4 H 0.3384 0.8662 0.6495
C17_4 C 0.4002(4) 0.8477(9) 0.7240(4)
C18_4 C 0.4746(4) 0.8098(10) 0.8081(4)
H8_4 H 0.5026 0.7742 0.8277
C19_4 C 0.4645(5) 0.8766(13) 0.8339(5)
H9_4 H 0.4852 0.8852 0.8709
C20_4 C 0.4224(5) 0.9340(16) 0.8046(7)
H10_4 H 0.4166 0.9815 0.8221
O2_4 O 0.4267(3) 0.6393(6) 0.6451(3)
H11_4 H 0.4004 0.6179 0.6214
C21_4 C 0.1970(4) 0.6289(7) 0.6981(4)
C22_4 C 0.1857(5) 0.6136(9) 0.7398(4)
H12_4 H 0.1960 0.5604 0.7601
C23_4 C 0.1438(6) 0.7565(10) 0.7222(6)
H13_4 H 0.1270 0.7992 0.7310
C24_4 C 0.1794(4) 0.7104(8) 0.6684(4)
C25_4 C 0.1527(5) 0.7730(9) 0.6811(5)
H14_4 H 0.1411 0.8263 0.6611
C26_4 C 0.1591(5) 0.6784(10) 0.7503(5)
H15_4 H 0.1517 0.6673 0.7776
C27_4 C 0.2118(3) 0.6653(7) 0.6107(3)
C28_4 C 0.2302(4) 0.5845(7) 0.6413(3)
C29_4 C 0.2247(4) 0.5666(7) 0.6859(4)
C30_4 C 0.1873(4) 0.7263(7) 0.6246(4)
H16_4 H 0.1755 0.7796 0.6047
O3_4 O 0.3409(2) 0.6650(5) 0.5659(2)
O4_4 O 0.2547(3) 0.5225(5) 0.6282(3)
H17_4 H 0.2616 0.5449 0.6065
C31_4 C 0.2451(4) 0.4783(7) 0.7174(3)
H18_4 H 0.2589 0.4429 0.6995
H19_4 H 0.2177 0.4439 0.7153
C32_4 C 0.2189(3) 0.6860(6) 0.5639(3)
C33_4 C 0.2947(3) 0.4493(6) 0.9134(3)
O7_4 O 0.2406(2) 0.6283(5) 0.5509(2)
O8_4 O 0.2036(3) 0.5106(6) 0.4538(3)
C34_4 C 0.4169(5) 0.5559(10) 0.8639(5)
H20_4 H 0.4404 0.5603 0.9006
C35_4 C 0.3060(9) 0.4141(15) 0.5336(10)
H21_4 H 0.3044 0.4062 0.5003
C36_4 C 0.3200(18) 0.350(3) 0.6167(14)
H22_4 H 0.3296 0.4111 0.6294
H23_4 H 0.2892 0.3363 0.6148
H24_4 H 0.3450 0.3088 0.6413
N1_4 N 0.3144(13) 0.3408(16) 0.5631(12)
O11_4 O 0.3003(3) 0.4882(5) 0.5442(3)
C37_4 C 0.3915(5) 0.9190(13) 0.7521(6)
H25_4 H 0.3638 0.9557 0.7333
C38_4 C 0.3214(19) 0.2485(18) 0.534(2)
H26_4 H 0.3015 0.2539 0.4955
H27_4 H 0.3555 0.2421 0.5444
H28_4 H 0.3111 0.1962 0.5460
C39_4 C 0.5825(3) 0.7074(6) 0.8297(3)
H29_4 H 0.4999 0.6327 0.7774
C40_4 C 0.6647(3) 0.7377(7) 0.9141(3)
C41_4 C 0.5567(3) 0.7932(8) 0.7481(4)
C42_4 C 0.5474(3) 0.7264(7) 0.7763(3)
C43_4 C 0.6264(3) 0.7600(6) 0.8571(3)
C44_4 C 0.6339(3) 0.8295(8) 0.8316(4)
H30_4 H 0.6616 0.8662 0.8505
C45_4 C 0.5998(4) 0.8477(9) 0.7760(4)
C46_4 C 0.5254(4) 0.8098(10) 0.6919(4)
H31_4 H 0.4974 0.7742 0.6723
C47_4 C 0.5355(5) 0.8766(13) 0.6661(5)
H32_4 H 0.5148 0.8852 0.6291
C48_4 C 0.5776(5) 0.9340(16) 0.6954(7)
H33_4 H 0.5834 0.9815 0.6779
O12_4 O 0.5733(3) 0.6393(6) 0.8549(3)
H34_4 H 0.5996 0.6179 0.8786
O13_4 O 0.6591(2) 0.6650(5) 0.9341(2)
C49_4 C 0.6085(5) 0.9190(13) 0.7479(6)
H35_4 H 0.6362 0.9557 0.7667
C50_4 C 0.6912(3) 0.4713(7) 0.6278(4)
C51_4 C 0.7266(3) 0.4602(7) 0.6844(4)
C52_4 C 0.6680(4) 0.5184(7) 0.7077(4)
C53_4 C 0.6456(4) 0.5041(7) 0.6130(4)
H36_4 H 0.6228 0.5120 0.5763
C54_4 C 0.7161(4) 0.4880(7) 0.7238(4)
C55_4 C 0.6318(4) 0.5261(8) 0.6513(4)
C56_4 C 0.6522(5) 0.5404(9) 0.7458(5)
H37_4 H 0.6742 0.5344 0.7828
C57_4 C 0.6050(5) 0.5701(11) 0.7279(6)
H38_4 H 0.5959 0.5857 0.7533
C58_4 C 0.5703(5) 0.5777(12) 0.6732(6)
H39_4 H 0.5384 0.5976 0.6623
O15_4 O 0.7709(3) 0.4231(6) 0.6996(3)
H40_4 H 0.7696 0.3959 0.6738
C59_4 C 0.8030(4) 0.6289(7) 0.8019(4)
C60_4 C 0.8143(5) 0.6136(9) 0.7602(4)
H41_4 H 0.8040 0.5604 0.7399
C61_4 C 0.8562(6) 0.7565(10) 0.7778(6)
H42_4 H 0.8730 0.7992 0.7690
C62_4 C 0.8206(4) 0.7104(8) 0.8316(4)
C63_4 C 0.8473(5) 0.7730(9) 0.8189(5)
H43_4 H 0.8589 0.8263 0.8389
C64_4 C 0.8409(5) 0.6784(10) 0.7497(5)
H44_4 H 0.8483 0.6673 0.7224
C65_4 C 0.7882(3) 0.6653(7) 0.8893(3)
C66_4 C 0.7698(4) 0.5845(7) 0.8587(3)
C67_4 C 0.7753(4) 0.5666(7) 0.8141(4)
C68_4 C 0.8127(4) 0.7263(7) 0.8754(4)
H45_4 H 0.8245 0.7796 0.8953
O16_4 O 0.7453(3) 0.5225(5) 0.8718(3)
H46_4 H 0.7384 0.5449 0.8935
C69_4 C 0.7549(4) 0.4783(7) 0.7826(3)
H47_4 H 0.7411 0.4429 0.8005
H48_4 H 0.7823 0.4439 0.7847
C70_4 C 0.7811(3) 0.6860(6) 0.9361(3)
C71_4 C 0.7053(3) 0.4493(6) 0.5866(3)
O19_4 O 0.7594(2) 0.6283(5) 0.9491(2)
C72_4 C 0.5831(5) 0.5559(10) 0.6361(5)
H49_4 H 0.5596 0.5603 0.5994
C73_4 C 0.6940(9) 0.4141(15) 0.9664(10)
H50_4 H 0.6956 0.4062 0.9997
C74_4 C 0.6800(18) 0.350(3) 0.8833(14)
H51_4 H 0.6704 0.4111 0.8706
H52_4 H 0.7108 0.3363 0.8852
H53_4 H 0.6550 0.3088 0.8587
N2_4 N 0.6856(13) 0.3408(16) 0.9369(12)
O22_4 O 0.6997(3) 0.4882(5) 0.9558(3)
C75_4 C 0.6786(19) 0.2485(18) 0.966(2)
H55_4 H 0.6445 0.2421 0.9556
H56_4 H 0.6889 0.1962 0.9540
H57_4 H 0.217609 0.448567 0.458596
H58_4 H 0.180586 0.522147 0.414657
H54_3 H 0.8015 0.2461 0.9955
H59_3 H 0.717609 0.0514327 0.958596
H54_4 H 0.1985 0.7539 0.0045
H59_4 H 0.282391 0.948567 0.0414042
loop_
_geom_bond_atom_site_label_1
_geom_bond_atom_site_label_2
_geom_bond_site_symmetry_1
_geom_bond_site_symmetry_2
C1 C2 1_555 1_555
C2 C5 1_555 1_555
C5 C31 1_555 1_555
O1 C2 1_555 1_555
H5 O1 1_555 1_555
H18 C31 1_555 1_555
H19 C31 1_555 1_555
C33 C1 1_555 1_555
O5 C33 1_555 1_555
O6 C33 1_555 1_555
C35 H21 1_555 1_555
C36 H22 1_555 1_555
H23 C36 1_555 1_555
H24 C36 1_555 1_555
N1 C35 1_555 1_555
C38 N1 1_555 1_555
H26 C38 1_555 1_555
H27 C38 1_555 1_555
H28 C38 1_555 1_555
Dy4 O5 1_555 1_555
O6 Dy4 1_555 1_555
C35 O11 1_555 1_555
C36 N1 1_555 1_555
Dy1 O3 1_555 1_555
H1 C4 1_555 1_555
C6 C3 1_555 1_555
C7 C3 1_555 1_555
H2 C7 1_555 1_555
C8 C7 1_555 1_555
H3 C8 1_555 1_555
C9 C8 1_555 1_555
H4 C9 1_555 1_555
C10 C14 1_555 1_555
C12 C15 1_555 1_555
C13 C14 1_555 1_555
C14 C11 1_555 1_555
C15 C10 1_555 1_555
C16 C15 1_555 1_555
H7 C16 1_555 1_555
C17 C13 1_555 1_555
C18 C13 1_555 1_555
C19 C18 1_555 1_555
H9 C19 1_555 1_555
C20 C19 1_555 1_555
H10 C20 1_555 1_555
O2 C10 1_555 1_555
H11 O2 1_555 1_555
C21 C22 1_555 1_555
C22 H12 1_555 1_555
C23 H13 1_555 1_555
C24 C21 1_555 1_555
C25 C23 1_555 1_555
H14 C25 1_555 1_555
C26 C22 1_555 1_555
H15 C26 1_555 1_555
C27 C28 1_555 1_555
C28 C29 1_555 1_555
C29 C21 1_555 1_555
C30 C24 1_555 1_555
H16 C30 1_555 1_555
O3 C12 1_555 1_555
O4 C28 1_555 1_555
H17 O4 1_555 1_555
C32 C27 1_555 1_555
O7 Dy1 1_555 1_555
O8 Dy1 1_555 1_555
O9 C32 1_555 1_555
O10 C12 1_555 1_555
C34 C6 1_555 1_555
H20 C34 1_555 1_555
C37 C17 1_555 1_555
H25 C37 1_555 1_555
H29 C11 1_555 1_555
Dy5 O9 1_555 1_555
O24 Dy1 1_555 1_555
O26 Dy1 1_555 1_555
O27 Dy1 1_555 1_555
O29 Dy1 1_555 1_555
C4 C6 1_555 1_555
C9 C34 1_555 1_555
C16 C17 1_555 1_555
C20 C37 1_555 1_555
C23 C26 1_555 1_555
C24 C25 1_555 1_555
C27 C30 1_555 1_555
C32 O7 1_555 1_555
O10 Dy5 1_555 1_555
O8 H58 1_555 1_555
C50 C51 1_555 1_555
C51 C54 1_555 1_555
C54 C69 1_555 1_555
O15 C51 1_555 1_555
H40 O15 1_555 1_555
H47 C69 1_555 1_555
H48 C69 1_555 1_555
C71 C50 1_555 1_555
O17 C71 1_555 1_555
O18 C71 1_555 1_555
C73 H50 1_555 1_555
C74 H51 1_555 1_555
H52 C74 1_555 1_555
H53 C74 1_555 1_555
N2 C73 1_555 1_555
C75 N2 1_555 1_555
H55 C75 1_555 1_555
H56 C75 1_555 1_555
Dy3 O17 1_555 1_555
O18 Dy3 1_555 1_555
C73 O22 1_555 1_555
C74 N2 1_555 1_555
C11_2 H6 1_555 1_555
C39 C42 1_555 1_555
C40 C43 1_555 1_555
C41 C42 1_555 1_555
C42 C11_2 1_555 1_555
C43 C39 1_555 1_555
C44 C43 1_555 1_555
H30 C44 1_555 1_555
C45 C41 1_555 1_555
C46 C41 1_555 1_555
C47 C46 1_555 1_555
H32 C47 1_555 1_555
C48 C47 1_555 1_555
H33 C48 1_555 1_555
O12 C39 1_555 1_555
H34 O12 1_555 1_555
O13 C40 1_555 1_555
O14 C40 1_555 1_555
C49 C45 1_555 1_555
H35 C49 1_555 1_555
H36 C53 1_555 1_555
C55 C52 1_555 1_555
C56 C52 1_555 1_555
H37 C56 1_555 1_555
C57 C56 1_555 1_555
H38 C57 1_555 1_555
C58 C57 1_555 1_555
H39 C58 1_555 1_555
C59 C60 1_555 1_555
C60 H41 1_555 1_555
C61 H42 1_555 1_555
C62 C59 1_555 1_555
C63 C61 1_555 1_555
H43 C63 1_555 1_555
C64 C60 1_555 1_555
H44 C64 1_555 1_555
C65 C66 1_555 1_555
C66 C67 1_555 1_555
C67 C59 1_555 1_555
C68 C62 1_555 1_555
H45 C68 1_555 1_555
O16 C66 1_555 1_555
H46 O16 1_555 1_555
C70 C65 1_555 1_555
O21 C70 1_555 1_555
C72 C55 1_555 1_555
H49 C72 1_555 1_555
Dy6 O14 1_555 1_555
C44 C45 1_555 1_555
C48 C49 1_555 1_555
C53 C55 1_555 1_555
C58 C72 1_555 1_555
C61 C64 1_555 1_555
C62 C63 1_555 1_555
C65 C68 1_555 1_555
C70 O19 1_555 1_555
O21 Dy6 1_555 1_555
O20 Dy2 1_555 1_555
O23 Dy2 1_555 1_555
O25 Dy2 1_555 1_555
O28 Dy2 1_555 1_555
O30 Dy2 1_555 1_555
O20 H60 1_555 1_555
Dy1_2 O3_2 1_555 1_555
C1_2 C2_2 1_555 1_555
C2_2 C5_2 1_555 1_555
C3_2 C5_2 1_555 1_555
C4_2 C1_2 1_555 1_555
H1_2 C4_2 1_555 1_555
C5_2 C31_2 1_555 1_555
C6_2 C3_2 1_555 1_555
C7_2 C3_2 1_555 1_555
H2_2 C7_2 1_555 1_555
C8_2 C7_2 1_555 1_555
H3_2 C8_2 1_555 1_555
C9_2 C8_2 1_555 1_555
H4_2 C9_2 1_555 1_555
O1_2 C2_2 1_555 1_555
H5_2 O1_2 1_555 1_555
C10_2 C14_2 1_555 1_555
C11_3 H6_2 1_555 1_555
C12_2 C15_2 1_555 1_555
C13_2 C14_2 1_555 1_555
C14_2 C11_3 1_555 1_555
C15_2 C10_2 1_555 1_555
C16_2 C15_2 1_555 1_555
H7_2 C16_2 1_555 1_555
C17_2 C13_2 1_555 1_555
C18_2 C13_2 1_555 1_555
H8_2 C18_2 1_555 1_555
C19_2 C18_2 1_555 1_555
H9_2 C19_2 1_555 1_555
C20_2 C19_2 1_555 1_555
H10_2 C20_2 1_555 1_555
O2_2 C10_2 1_555 1_555
H11_2 O2_2 1_555 1_555
C21_2 C22_2 1_555 1_555
C22_2 H12_2 1_555 1_555
C23_2 H13_2 1_555 1_555
C24_2 C21_2 1_555 1_555
C25_2 C23_2 1_555 1_555
H14_2 C25_2 1_555 1_555
C26_2 C22_2 1_555 1_555
H15_2 C26_2 1_555 1_555
C27_2 C28_2 1_555 1_555
C28_2 C29_2 1_555 1_555
C29_2 C21_2 1_555 1_555
C30_2 C24_2 1_555 1_555
H16_2 C30_2 1_555 1_555
O3_2 C12_2 1_555 1_555
O4_2 C28_2 1_555 1_555
H17_2 O4_2 1_555 1_555
C31_2 C29_2 1_555 1_555
H18_2 C31_2 1_555 1_555
H19_2 C31_2 1_555 1_555
C32_2 C27_2 1_555 1_555
C33_2 C1_2 1_555 1_555
O5_2 C33_2 1_555 1_555
O6_2 C33_2 1_555 1_555
O7_2 Dy1_2 1_555 1_555
O8_2 Dy1_2 1_555 1_555
O9_2 C32_2 1_555 1_555
O10_2 C12_2 1_555 1_555
C34_2 C6_2 1_555 1_555
H20_2 C34_2 1_555 1_555
C35_2 H21_2 1_555 1_555
C36_2 H22_2 1_555 1_555
H23_2 C36_2 1_555 1_555
H24_2 C36_2 1_555 1_555
N1_2 C35_2 1_555 1_555
O11_2 Dy1_2 1_555 1_555
C37_2 C17_2 1_555 1_555
H25_2 C37_2 1_555 1_555
C38_2 N1_2 1_555 1_555
H26_2 C38_2 1_555 1_555
H27_2 C38_2 1_555 1_555
H28_2 C38_2 1_555 1_555
C39_2 C42_2 1_555 1_555
H29_2 C11_3 1_555 1_555
C40_2 C43_2 1_555 1_555
C41_2 C42_2 1_555 1_555
C42_2 C11_3 1_555 1_555
C43_2 C39_2 1_555 1_555
C44_2 C43_2 1_555 1_555
H30_2 C44_2 1_555 1_555
C45_2 C41_2 1_555 1_555
C46_2 C41_2 1_555 1_555
H31_2 C46_2 1_555 1_555
C47_2 C46_2 1_555 1_555
H32_2 C47_2 1_555 1_555
C48_2 C47_2 1_555 1_555
H33_2 C48_2 1_555 1_555
O12_2 C39_2 1_555 1_555
H34_2 O12_2 1_555 1_555
O13_2 C40_2 1_555 1_555
O14_2 C40_2 1_555 1_555
C49_2 C45_2 1_555 1_555
H35_2 C49_2 1_555 1_555
C50_2 C51_2 1_555 1_555
C51_2 C54_2 1_555 1_555
C52_2 C54_2 1_555 1_555
C53_2 C50_2 1_555 1_555
H36_2 C53_2 1_555 1_555
C54_2 C69_2 1_555 1_555
C55_2 C52_2 1_555 1_555
C56_2 C52_2 1_555 1_555
H37_2 C56_2 1_555 1_555
C57_2 C56_2 1_555 1_555
H38_2 C57_2 1_555 1_555
C58_2 C57_2 1_555 1_555
H39_2 C58_2 1_555 1_555
O15_2 C51_2 1_555 1_555
H40_2 O15_2 1_555 1_555
C59_2 C60_2 1_555 1_555
C60_2 H41_2 1_555 1_555
C61_2 H42_2 1_555 1_555
C62_2 C59_2 1_555 1_555
C63_2 C61_2 1_555 1_555
H43_2 C63_2 1_555 1_555
C64_2 C60_2 1_555 1_555
H44_2 C64_2 1_555 1_555
C65_2 C66_2 1_555 1_555
C66_2 C67_2 1_555 1_555
C67_2 C59_2 1_555 1_555
C68_2 C62_2 1_555 1_555
H45_2 C68_2 1_555 1_555
O16_2 C66_2 1_555 1_555
H46_2 O16_2 1_555 1_555
C69_2 C67_2 1_555 1_555
H47_2 C69_2 1_555 1_555
H48_2 C69_2 1_555 1_555
C70_2 C65_2 1_555 1_555
C71_2 C50_2 1_555 1_555
O17_2 C71_2 1_555 1_555
O18_2 C71_2 1_555 1_555
O21_2 C70_2 1_555 1_555
C72_2 C55_2 1_555 1_555
H49_2 C72_2 1_555 1_555
C73_2 H50_2 1_555 1_555
C74_2 H51_2 1_555 1_555
H52_2 C74_2 1_555 1_555
H53_2 C74_2 1_555 1_555
N2_2 C73_2 1_555 1_555
C75_2 N2_2 1_555 1_555
H55_2 C75_2 1_555 1_555
H56_2 C75_2 1_555 1_555
Dy5 O17_2 1_555 1_555
Dy6 O5_2 1_555 1_555
Dy3 O9_2 1_555 1_555
Dy4 O14_2 1_555 1_555
O24_2 Dy1_2 1_555 1_555
O26_2 Dy1_2 1_555 1_555
O27_2 Dy1_2 1_555 1_555
O29_2 Dy1_2 1_555 1_555
C4_2 C6_2 1_555 1_555
C9_2 C34_2 1_555 1_555
C16_2 C17_2 1_555 1_555
C20_2 C37_2 1_555 1_555
C23_2 C26_2 1_555 1_555
C24_2 C25_2 1_555 1_555
C27_2 C30_2 1_555 1_555
C32_2 O7_2 1_555 1_555
O6_2 Dy6 1_555 1_555
O10_2 Dy3 1_555 1_555
C35_2 O11_2 1_555 1_555
C36_2 N1_2 1_555 1_555
C44_2 C45_2 1_555 1_555
C48_2 C49_2 1_555 1_555
C53_2 C55_2 1_555 1_555
C58_2 C72_2 1_555 1_555
C61_2 C64_2 1_555 1_555
C62_2 C63_2 1_555 1_555
C65_2 C68_2 1_555 1_555
C70_2 O19_2 1_555 1_555
O18_2 Dy5 1_555 1_555
O21_2 Dy4 1_555 1_555
C73_2 O22_2 1_555 1_555
C74_2 N2_2 1_555 1_555
O8_2 H57_2 1_555 1_555
O8_2 H58_2 1_555 1_555
O20_2 Dy2_2 1_555 1_555
O23_2 Dy2_2 1_555 1_555
O25_2 Dy2_2 1_555 1_555
O28_2 Dy2_2 1_555 1_555
O30_2 Dy2_2 1_555 1_555
O20_2 H59 1_555 1_555
O20_2 H60_2 1_555 1_555
O20_3 Dy4 1_555 1_555
O20_3 H60_3 1_555 1_555
C11_4 H6_3 1_555 1_555
C39_3 C42_3 1_555 1_555
C40_3 C43_3 1_555 1_555
C41_3 C42_3 1_555 1_555
C42_3 C11_4 1_555 1_555
C43_3 C39_3 1_555 1_555
C44_3 C43_3 1_555 1_555
H30_3 C44_3 1_555 1_555
C45_3 C41_3 1_555 1_555
C46_3 C41_3 1_555 1_555
C47_3 C46_3 1_555 1_555
H32_3 C47_3 1_555 1_555
C48_3 C47_3 1_555 1_555
H33_3 C48_3 1_555 1_555
O12_3 C39_3 1_555 1_555
H34_3 O12_3 1_555 1_555
O13_3 C40_3 1_555 1_555
O30_2 C40_3 1_555 1_555
C49_3 C45_3 1_555 1_555
H35_3 C49_3 1_555 1_555
H36_3 C53_3 1_555 1_555
C55_3 C52_3 1_555 1_555
C56_3 C52_3 1_555 1_555
H37_3 C56_3 1_555 1_555
C57_3 C56_3 1_555 1_555
H38_3 C57_3 1_555 1_555
C58_3 C57_3 1_555 1_555
H39_3 C58_3 1_555 1_555
C59_3 C60_3 1_555 1_555
C60_3 H41_3 1_555 1_555
C61_3 H42_3 1_555 1_555
C62_3 C59_3 1_555 1_555
C63_3 C61_3 1_555 1_555
H43_3 C63_3 1_555 1_555
C64_3 C60_3 1_555 1_555
H44_3 C64_3 1_555 1_555
C65_3 C66_3 1_555 1_555
C66_3 C67_3 1_555 1_555
C67_3 C59_3 1_555 1_555
C68_3 C62_3 1_555 1_555
H45_3 C68_3 1_555 1_555
O16_3 C66_3 1_555 1_555
H46_3 O16_3 1_555 1_555
C70_3 C65_3 1_555 1_555
O28_2 C70_3 1_555 1_555
C72_3 C55_3 1_555 1_555
H49_3 C72_3 1_555 1_555
C44_3 C45_3 1_555 1_555
C48_3 C49_3 1_555 1_555
C53_3 C55_3 1_555 1_555
C58_3 C72_3 1_555 1_555
C61_3 C64_3 1_555 1_555
C62_3 C63_3 1_555 1_555
C65_3 C68_3 1_555 1_555
C70_3 O19_3 1_555 1_555
C50_3 C51_3 1_555 1_555
C51_3 C54_3 1_555 1_555
C54_3 C69_3 1_555 1_555
O15_3 C51_3 1_555 1_555
H40_3 O15_3 1_555 1_555
H47_3 C69_3 1_555 1_555
H48_3 C69_3 1_555 1_555
C71_3 C50_3 1_555 1_555
O24 C71_3 1_555 1_555
O26 C71_3 1_555 1_555
C73_3 H50_3 1_555 1_555
C74_3 H51_3 1_555 1_555
H52_3 C74_3 1_555 1_555
H53_3 C74_3 1_555 1_555
N2_3 C73_3 1_555 1_555
C75_3 N2_3 1_555 1_555
H55_3 C75_3 1_555 1_555
H56_3 C75_3 1_555 1_555
C73_3 O22_3 1_555 1_555
C74_3 N2_3 1_555 1_555
Dy3 O3_3 1_555 1_555
H1_3 C4_3 1_555 1_555
C6_3 C3_3 1_555 1_555
C7_3 C3_3 1_555 1_555
H2_3 C7_3 1_555 1_555
C8_3 C7_3 1_555 1_555
H3_3 C8_3 1_555 1_555
C9_3 C8_3 1_555 1_555
H4_3 C9_3 1_555 1_555
C10_3 C14_3 1_555 1_555
C12_3 C15_3 1_555 1_555
C13_3 C14_3 1_555 1_555
C14_3 C11_5 1_555 1_555
C15_3 C10_3 1_555 1_555
C16_3 C15_3 1_555 1_555
H7_3 C16_3 1_555 1_555
C17_3 C13_3 1_555 1_555
C18_3 C13_3 1_555 1_555
C19_3 C18_3 1_555 1_555
H9_3 C19_3 1_555 1_555
C20_3 C19_3 1_555 1_555
H10_3 C20_3 1_555 1_555
O2_3 C10_3 1_555 1_555
H11_3 O2_3 1_555 1_555
C21_3 C22_3 1_555 1_555
C22_3 H12_3 1_555 1_555
C23_3 H13_3 1_555 1_555
C24_3 C21_3 1_555 1_555
C25_3 C23_3 1_555 1_555
H14_3 C25_3 1_555 1_555
C26_3 C22_3 1_555 1_555
H15_3 C26_3 1_555 1_555
C27_3 C28_3 1_555 1_555
C28_3 C29_3 1_555 1_555
C29_3 C21_3 1_555 1_555
C30_3 C24_3 1_555 1_555
H16_3 C30_3 1_555 1_555
O3_3 C12_3 1_555 1_555
O4_3 C28_3 1_555 1_555
H17_3 O4_3 1_555 1_555
C32_3 C27_3 1_555 1_555
O7_3 Dy3 1_555 1_555
O8_3 Dy3 1_555 1_555
O27_2 C32_3 1_555 1_555
O29_2 C12_3 1_555 1_555
C34_3 C6_3 1_555 1_555
H20_3 C34_3 1_555 1_555
C37_3 C17_3 1_555 1_555
H25_3 C37_3 1_555 1_555
H29_3 C11_5 1_555 1_555
C4_3 C6_3 1_555 1_555
C9_3 C34_3 1_555 1_555
C16_3 C17_3 1_555 1_555
C20_3 C37_3 1_555 1_555
C23_3 C26_3 1_555 1_555
C24_3 C25_3 1_555 1_555
C27_3 C30_3 1_555 1_555
C32_3 O7_3 1_555 1_555
O8_3 H58_3 1_555 1_555
C1_3 C2_3 1_555 1_555
C2_3 C5_3 1_555 1_555
C5_3 C31_3 1_555 1_555
O1_3 C2_3 1_555 1_555
H5_3 O1_3 1_555 1_555
H18_3 C31_3 1_555 1_555
H19_3 C31_3 1_555 1_555
C33_3 C1_3 1_555 1_555
O23 C33_3 1_555 1_555
O25 C33_3 1_555 1_555
C35_3 H21_3 1_555 1_555
C36_3 H22_3 1_555 1_555
H23_3 C36_3 1_555 1_555
H24_3 C36_3 1_555 1_555
N1_3 C35_3 1_555 1_555
C38_3 N1_3 1_555 1_555
H26_3 C38_3 1_555 1_555
H27_3 C38_3 1_555 1_555
H28_3 C38_3 1_555 1_555
C35_3 O11_3 1_555 1_555
C36_3 N1_3 1_555 1_555
O20_4 Dy6 1_555 1_555
O20_4 H59_2 1_555 1_555
O20_4 H60_4 1_555 1_555
Dy5 O3_4 1_555 1_555
C1_4 C2_4 1_555 1_555
C2_4 C5_4 1_555 1_555
C3_4 C5_4 1_555 1_555
C4_4 C1_4 1_555 1_555
H1_4 C4_4 1_555 1_555
C5_4 C31_4 1_555 1_555
C6_4 C3_4 1_555 1_555
C7_4 C3_4 1_555 1_555
H2_4 C7_4 1_555 1_555
C8_4 C7_4 1_555 1_555
H3_4 C8_4 1_555 1_555
C9_4 C8_4 1_555 1_555
H4_4 C9_4 1_555 1_555
O1_4 C2_4 1_555 1_555
H5_4 O1_4 1_555 1_555
C10_4 C14_4 1_555 1_555
C11_6 H6_4 1_555 1_555
C12_4 C15_4 1_555 1_555
C13_4 C14_4 1_555 1_555
C14_4 C11_6 1_555 1_555
C15_4 C10_4 1_555 1_555
C16_4 C15_4 1_555 1_555
H7_4 C16_4 1_555 1_555
C17_4 C13_4 1_555 1_555
C18_4 C13_4 1_555 1_555
H8_4 C18_4 1_555 1_555
C19_4 C18_4 1_555 1_555
H9_4 C19_4 1_555 1_555
C20_4 C19_4 1_555 1_555
H10_4 C20_4 1_555 1_555
O2_4 C10_4 1_555 1_555
H11_4 O2_4 1_555 1_555
C21_4 C22_4 1_555 1_555
C22_4 H12_4 1_555 1_555
C23_4 H13_4 1_555 1_555
C24_4 C21_4 1_555 1_555
C25_4 C23_4 1_555 1_555
H14_4 C25_4 1_555 1_555
C26_4 C22_4 1_555 1_555
H15_4 C26_4 1_555 1_555
C27_4 C28_4 1_555 1_555
C28_4 C29_4 1_555 1_555
C29_4 C21_4 1_555 1_555
C30_4 C24_4 1_555 1_555
H16_4 C30_4 1_555 1_555
O3_4 C12_4 1_555 1_555
O4_4 C28_4 1_555 1_555
H17_4 O4_4 1_555 1_555
C31_4 C29_4 1_555 1_555
H18_4 C31_4 1_555 1_555
H19_4 C31_4 1_555 1_555
C32_4 C27_4 1_555 1_555
C33_4 C1_4 1_555 1_555
O23_2 C33_4 1_555 1_555
O25_2 C33_4 1_555 1_555
O7_4 Dy5 1_555 1_555
O8_4 Dy5 1_555 1_555
O27 C32_4 1_555 1_555
O29 C12_4 1_555 1_555
C34_4 C6_4 1_555 1_555
H20_4 C34_4 1_555 1_555
C35_4 H21_4 1_555 1_555
C36_4 H22_4 1_555 1_555
H23_4 C36_4 1_555 1_555
H24_4 C36_4 1_555 1_555
N1_4 C35_4 1_555 1_555
O11_4 Dy5 1_555 1_555
C37_4 C17_4 1_555 1_555
H25_4 C37_4 1_555 1_555
C38_4 N1_4 1_555 1_555
H26_4 C38_4 1_555 1_555
H27_4 C38_4 1_555 1_555
H28_4 C38_4 1_555 1_555
C39_4 C42_4 1_555 1_555
H29_4 C11_6 1_555 1_555
C40_4 C43_4 1_555 1_555
C41_4 C42_4 1_555 1_555
C42_4 C11_6 1_555 1_555
C43_4 C39_4 1_555 1_555
C44_4 C43_4 1_555 1_555
H30_4 C44_4 1_555 1_555
C45_4 C41_4 1_555 1_555
C46_4 C41_4 1_555 1_555
H31_4 C46_4 1_555 1_555
C47_4 C46_4 1_555 1_555
H32_4 C47_4 1_555 1_555
C48_4 C47_4 1_555 1_555
H33_4 C48_4 1_555 1_555
O12_4 C39_4 1_555 1_555
H34_4 O12_4 1_555 1_555
O13_4 C40_4 1_555 1_555
O30 C40_4 1_555 1_555
C49_4 C45_4 1_555 1_555
H35_4 C49_4 1_555 1_555
C50_4 C51_4 1_555 1_555
C51_4 C54_4 1_555 1_555
C52_4 C54_4 1_555 1_555
C53_4 C50_4 1_555 1_555
H36_4 C53_4 1_555 1_555
C54_4 C69_4 1_555 1_555
C55_4 C52_4 1_555 1_555
C56_4 C52_4 1_555 1_555
H37_4 C56_4 1_555 1_555
C57_4 C56_4 1_555 1_555
H38_4 C57_4 1_555 1_555
C58_4 C57_4 1_555 1_555
H39_4 C58_4 1_555 1_555
O15_4 C51_4 1_555 1_555
H40_4 O15_4 1_555 1_555
C59_4 C60_4 1_555 1_555
C60_4 H41_4 1_555 1_555
C61_4 H42_4 1_555 1_555
C62_4 C59_4 1_555 1_555
C63_4 C61_4 1_555 1_555
H43_4 C63_4 1_555 1_555
C64_4 C60_4 1_555 1_555
H44_4 C64_4 1_555 1_555
C65_4 C66_4 1_555 1_555
C66_4 C67_4 1_555 1_555
C67_4 C59_4 1_555 1_555
C68_4 C62_4 1_555 1_555
H45_4 C68_4 1_555 1_555
O16_4 C66_4 1_555 1_555
H46_4 O16_4 1_555 1_555
C69_4 C67_4 1_555 1_555
H47_4 C69_4 1_555 1_555
H48_4 C69_4 1_555 1_555
C70_4 C65_4 1_555 1_555
C71_4 C50_4 1_555 1_555
O24_2 C71_4 1_555 1_555
O26_2 C71_4 1_555 1_555
O28 C70_4 1_555 1_555
C72_4 C55_4 1_555 1_555
H49_4 C72_4 1_555 1_555
C73_4 H50_4 1_555 1_555
C74_4 H51_4 1_555 1_555
H52_4 C74_4 1_555 1_555
H53_4 C74_4 1_555 1_555
N2_4 C73_4 1_555 1_555
C75_4 N2_4 1_555 1_555
H55_4 C75_4 1_555 1_555
H56_4 C75_4 1_555 1_555
C4_4 C6_4 1_555 1_555
C9_4 C34_4 1_555 1_555
C16_4 C17_4 1_555 1_555
C20_4 C37_4 1_555 1_555
C23_4 C26_4 1_555 1_555
C24_4 C25_4 1_555 1_555
C27_4 C30_4 1_555 1_555
C32_4 O7_4 1_555 1_555
C35_4 O11_4 1_555 1_555
C36_4 N1_4 1_555 1_555
C44_4 C45_4 1_555 1_555
C48_4 C49_4 1_555 1_555
C53_4 C55_4 1_555 1_555
C58_4 C72_4 1_555 1_555
C61_4 C64_4 1_555 1_555
C62_4 C63_4 1_555 1_555
C65_4 C68_4 1_555 1_555
C70_4 O19_4 1_555 1_555
C73_4 O22_4 1_555 1_555
C74_4 N2_4 1_555 1_555
O8_4 H57_4 1_555 1_555
O8_4 H58_4 1_555 1_555

#END
