
###############################################################################
#
# This file contains modified crystal structure data generated from the
# MOF subset of the Cambridge Structural Database (CSD) v543 
# hosted by the Cambridge Crystallographic Data Centre (CCDC).
#
# This work is licensed under the Creative Commons
# Attribution-NonCommercial-ShareAlike 4.0 International License.
# To view a copy of this license, visit
# http://creativecommons.org/licenses/by-nc-sa/4.0/
# or send a letter to
# Creative Commons, PO Box 1866, Mountain View, CA 94042, USA.
#
# CIF created using the CSD Python API on 29 September 2022
# The structure has been converted into the P1 space group
# The structure has a 3D framework
# The original CSD entry FOCJAL is in the orthorhombic crystal system
# The framework has been calculated to contain at least 10.0% void space
# The void calculation uses a probe of radius 1.32A, grid spacing 0.4
#
###############################################################################

data_FOCJAL
_chemical_formula_moiety         '(C128 H64 In21 O103)n'
_symmetry_cell_setting           triclinic
_symmetry_space_group_name_H-M   'P 1'
_symmetry_Int_Tables_number      1
_space_group_name_Hall           'P 1'
loop_
_symmetry_equiv_pos_site_id
_symmetry_equiv_pos_as_xyz
1 x,y,z
_cell_length_a                   37.4012(11)
_cell_length_b                   23.0052(7)
_cell_length_c                   7.1553(2)
_cell_angle_alpha                90
_cell_angle_beta                 90
_cell_angle_gamma                90
_cell_volume                     6156.58
loop_
_atom_site_label
_atom_site_type_symbol
_atom_site_fract_x
_atom_site_fract_y
_atom_site_fract_z
In2 In 0.247179(11) 0.5000 0.0000
O5 O 0.09352(13) 0.3461(3) 0.0609(6)
H1 H 0.0741 0.3303 0.0441
O7 O 0.2500 0.45533(17) 0.2500
O8 O -0.0000 0.29424(17) 0.2008(6)
H3 H 0.1519(16) 0.399(2) 0.006(8)
O9 O 0.20566(9) 0.55684(16) 0.0979(4)
O10 O 0.20946(9) 0.55659(16) 0.4082(4)
O11 O 0.04149(9) 0.69556(16) 0.1386(5)
O12 O 0.04282(9) 0.69054(17) 0.4478(5)
O14 O 0.15714(13) 0.5966(3) 0.6072(6)
H6 H 0.1766 0.5813 0.5896
C9 C 0.19371(11) 0.5680(2) 0.2559(7)
C10 C 0.15831(12) 0.5977(2) 0.2686(7)
C11 C 0.14077(15) 0.6129(3) 0.1036(7)
C12 C 0.10819(15) 0.6398(3) 0.1071(7)
C13 C 0.09163(12) 0.6522(2) 0.2793(7)
C14 C 0.10902(16) 0.6368(3) 0.4424(8)
C15 C 0.14208(16) 0.6104(3) 0.4397(7)
C16 C 0.05624(12) 0.6817(2) 0.2905(6)
H8 H 0.0984(19) 0.645(3) 0.536(10)
In4 In -0.0000 0.254768(18) 0.45804(8)
In5 In -0.0000 0.745232(18) 0.54196(8)
In6 In -0.0000 0.754768(18) 0.04196(8)
In8 In 0.252821(11) 0.5000 0.5000
O15 O 0.29054(9) 0.55659(16) 0.0918(4)
O19 O 0.04282(9) 0.19054(17) 0.0522(5)
In1 In -0.0000 0.245232(18) 0.95804(8)
In2_2 In 0.247179(11) 0.5000 1.0000
O1 O 0.20566(9) 0.44316(16) 0.9021(4)
O2 O 0.20946(9) 0.44341(16) 0.5918(4)
O3 O 0.04149(9) 0.30444(16) 0.8614(5)
O4 O 0.04282(9) 0.30946(17) 0.5522(5)
O6 O 0.15714(13) 0.4034(3) 0.3928(6)
H2 H 0.1766 0.4187 0.4104
C1 C 0.19371(11) 0.4320(2) 0.7441(7)
C2 C 0.15831(12) 0.4023(2) 0.7314(7)
C3 C 0.14077(15) 0.3871(3) 0.8964(7)
C4 C 0.10819(15) 0.3602(3) 0.8929(7)
C5 C 0.09163(12) 0.3478(2) 0.7207(7)
C6 C 0.10902(16) 0.3632(3) 0.5576(8)
C7 C 0.14208(16) 0.3896(3) 0.5603(7)
C8 C 0.05624(12) 0.3183(2) 0.7095(6)
H4 H 0.0984(19) 0.355(3) 0.464(10)
O13 O 0.09352(13) 0.6539(3) 0.9391(6)
H5 H 0.0741 0.6697 0.9559
H7 H 0.1519(16) 0.601(2) 0.994(8)
O16 O 0.29054(9) 0.44341(16) 0.9082(4)
O20 O 0.2500 0.54467(17) 0.7500
O21 O -0.0000 0.20576(17) 0.7008(6)
O8_2 O 1.0000 0.29424(17) 0.2008(6)
In4_2 In 1.0000 0.254768(18) 0.45804(8)
In5_2 In 1.0000 0.745232(18) 0.54196(8)
In6_2 In 1.0000 0.754768(18) 0.04196(8)
O18 O 0.95718(9) 0.19054(17) 0.0522(5)
In1_2 In 1.0000 0.245232(18) 0.95804(8)
O17 O 0.95851(9) 0.30444(16) 0.8614(5)
O21_2 O 1.0000 0.20576(17) 0.7008(6)
O17_2 O 0.04149(9) 0.19556(16) 0.3614(5)
In8_2 In 0.747179(11) -0.0000 0.0000
In2_3 In 0.752821(11) -0.0000 0.5000
O1_2 O 0.79434(9) 0.05684(16) 0.4021(4)
O2_2 O 0.79054(9) 0.05659(16) 0.0918(4)
O3_2 O 0.95851(9) 0.19556(16) 0.3614(5)
O5_2 O 0.90648(13) 0.1539(3) 0.5609(6)
H1_2 H 0.9259 0.1697 0.5441
O7_2 O 0.7500 0.04467(17) 0.7500
C1_2 C 0.80629(11) 0.0680(2) 0.2441(7)
C2_2 C 0.84169(12) 0.0977(2) 0.2314(7)
C3_2 C 0.85923(15) 0.1129(3) 0.3964(7)
C4_2 C 0.89181(15) 0.1398(3) 0.3929(7)
C5_2 C 0.90837(12) 0.1522(2) 0.2207(7)
C6_2 C 0.89098(16) 0.1368(3) 0.0576(8)
C7_2 C 0.85792(16) 0.1104(3) 0.0603(7)
C8_2 C 0.94376(12) 0.1817(2) 0.2095(6)
H3_2 H 0.8481(16) 0.101(2) 0.506(8)
In8_3 In 0.747179(11) -0.0000 1.0000
O16_2 O 0.70946(9) 0.05659(16) 0.4082(4)
O19_2 O 0.95718(9) 0.30946(17) 0.5522(5)
O6_2 O 0.84286(13) 0.0966(3) 0.8928(6)
H2_2 H 0.8234 0.0813 0.9104
H4_2 H 0.9016(19) 0.145(3) 0.964(10)
O14_2 O 0.84286(13) 0.9034(3) 0.1072(6)
H6_2 H 0.8234 0.9187 0.0896
H8_2 H 0.9016(19) 0.855(3) 0.036(10)
In8_4 In 0.747179(11) 1.0000 0.0000
In2_4 In 0.752821(11) 1.0000 0.5000
O9_2 O 0.79434(9) 0.94316(16) 0.5979(4)
O10_2 O 0.79054(9) 0.94341(16) 0.9082(4)
O11_2 O 0.95851(9) 0.80444(16) 0.6386(5)
O12_2 O 0.95718(9) 0.80946(17) 0.9478(5)
O13_2 O 0.90648(13) 0.8461(3) 0.4391(6)
H5_2 H 0.9259 0.8303 0.4559
C9_2 C 0.80629(11) 0.9320(2) 0.7559(7)
C10_2 C 0.84169(12) 0.9023(2) 0.7686(7)
C11_2 C 0.85923(15) 0.8871(3) 0.6036(7)
C12_2 C 0.89181(15) 0.8602(3) 0.6071(7)
C13_2 C 0.90837(12) 0.8478(2) 0.7793(7)
C14_2 C 0.89098(16) 0.8632(3) 0.9424(8)
C15_2 C 0.85792(16) 0.8896(3) 0.9397(7)
C16_2 C 0.94376(12) 0.8183(2) 0.7905(6)
H7_2 H 0.8481(16) 0.899(2) 0.494(8)
In8_5 In 0.747179(11) 1.0000 1.0000
O15_2 O 0.70946(9) 0.94341(16) 0.5918(4)
O20_2 O 0.7500 0.95533(17) 0.2500
O8_3 O 0.0000 0.79424(17) 0.2992(6)
O17_3 O 0.04149(9) 0.80444(16) 0.6386(5)
O21_3 O 0.0000 0.70576(17) 0.7992(6)
O8_4 O 1.0000 0.79424(17) 0.2992(6)
O19_3 O 0.95718(9) 0.69054(17) 0.4478(5)
O21_4 O 1.0000 0.70576(17) 0.7992(6)
O19_4 O 0.04282(9) 0.80946(17) 0.9478(5)
O17_4 O 0.95851(9) 0.69556(16) 0.1386(5)
O9_3 O 0.70566(9) 0.05684(16) 0.0979(4)
O11_3 O 0.54149(9) 0.19556(16) 0.1386(5)
O12_3 O 0.54282(9) 0.19054(17) 0.4478(5)
O14_3 O 0.65714(13) 0.0966(3) 0.6072(6)
H6_3 H 0.6766 0.0813 0.5896
C9_3 C 0.69371(11) 0.0680(2) 0.2559(7)
C10_3 C 0.65831(12) 0.0977(2) 0.2686(7)
C11_3 C 0.64077(15) 0.1129(3) 0.1036(7)
C12_3 C 0.60819(15) 0.1398(3) 0.1071(7)
C13_3 C 0.59163(12) 0.1522(2) 0.2793(7)
C14_3 C 0.60902(16) 0.1368(3) 0.4424(8)
C15_3 C 0.64208(16) 0.1104(3) 0.4397(7)
C16_3 C 0.55624(12) 0.1817(2) 0.2905(6)
H8_3 H 0.5984(19) 0.145(3) 0.536(10)
In5_3 In 0.5000 0.245232(18) 0.54196(8)
In6_3 In 0.5000 0.254768(18) 0.04196(8)
O13_3 O 0.59352(13) 0.1539(3) 0.9391(6)
H5_3 H 0.5741 0.1697 0.9559
H7_3 H 0.6519(16) 0.101(2) 0.994(8)
O5_3 O 0.59352(13) 0.8461(3) 0.0609(6)
H1_3 H 0.5741 0.8303 0.0441
O8_5 O 0.5000 0.79424(17) 0.2008(6)
H3_3 H 0.6519(16) 0.899(2) 0.006(8)
In4_3 In 0.5000 0.754768(18) 0.45804(8)
O18_2 O 0.45718(9) 0.69054(17) 0.0522(5)
O19_5 O 0.54282(9) 0.69054(17) 0.0522(5)
In1_3 In 0.5000 0.745232(18) 0.95804(8)
O1_3 O 0.70566(9) 0.94316(16) 0.9021(4)
O3_3 O 0.54149(9) 0.80444(16) 0.8614(5)
O4_2 O 0.54282(9) 0.80946(17) 0.5522(5)
O6_3 O 0.65714(13) 0.9034(3) 0.3928(6)
H2_3 H 0.6766 0.9187 0.4104
C1_3 C 0.69371(11) 0.9320(2) 0.7441(7)
C2_3 C 0.65831(12) 0.9023(2) 0.7314(7)
C3_3 C 0.64077(15) 0.8871(3) 0.8964(7)
C4_3 C 0.60819(15) 0.8602(3) 0.8929(7)
C5_3 C 0.59163(12) 0.8478(2) 0.7207(7)
C6_3 C 0.60902(16) 0.8632(3) 0.5576(8)
C7_3 C 0.64208(16) 0.8896(3) 0.5603(7)
C8_3 C 0.55624(12) 0.8183(2) 0.7095(6)
H4_3 H 0.5984(19) 0.855(3) 0.464(10)
O17_5 O 0.45851(9) 0.80444(16) 0.8614(5)
O21_5 O 0.5000 0.70576(17) 0.7008(6)
O14_4 O 0.34286(13) 0.4034(3) 0.1072(6)
H6_4 H 0.3234 0.4187 0.0896
H8_4 H 0.4016(19) 0.355(3) 0.036(10)
O1_4 O 0.29434(9) 0.55684(16) 0.4021(4)
O3_4 O 0.45851(9) 0.69556(16) 0.3614(5)
O5_4 O 0.40648(13) 0.6539(3) 0.5609(6)
H1_4 H 0.4259 0.6697 0.5441
C1_4 C 0.30629(11) 0.5680(2) 0.2441(7)
C2_4 C 0.34169(12) 0.5977(2) 0.2314(7)
C3_4 C 0.35923(15) 0.6129(3) 0.3964(7)
C4_4 C 0.39181(15) 0.6398(3) 0.3929(7)
C5_4 C 0.40837(12) 0.6522(2) 0.2207(7)
C6_4 C 0.39098(16) 0.6368(3) 0.0576(8)
C7_4 C 0.35792(16) 0.6104(3) 0.0603(7)
C8_4 C 0.44376(12) 0.6817(2) 0.2095(6)
H3_4 H 0.3481(16) 0.601(2) 0.506(8)
O9_4 O 0.29434(9) 0.44316(16) 0.5979(4)
O11_4 O 0.45851(9) 0.30444(16) 0.6386(5)
O12_4 O 0.45718(9) 0.30946(17) 0.9478(5)
O13_4 O 0.40648(13) 0.3461(3) 0.4391(6)
H5_4 H 0.4259 0.3303 0.4559
C9_4 C 0.30629(11) 0.4320(2) 0.7559(7)
C10_4 C 0.34169(12) 0.4023(2) 0.7686(7)
C11_4 C 0.35923(15) 0.3871(3) 0.6036(7)
C12_4 C 0.39181(15) 0.3602(3) 0.6071(7)
C13_4 C 0.40837(12) 0.3478(2) 0.7793(7)
C14_4 C 0.39098(16) 0.3632(3) 0.9424(8)
C15_4 C 0.35792(16) 0.3896(3) 0.9397(7)
C16_4 C 0.44376(12) 0.3183(2) 0.7905(6)
H7_4 H 0.3481(16) 0.399(2) 0.494(8)
O17_6 O 0.54149(9) 0.69556(16) 0.3614(5)
O19_6 O 0.45718(9) 0.80946(17) 0.5522(5)
O6_4 O 0.34286(13) 0.5966(3) 0.8928(6)
H2_4 H 0.3234 0.5813 0.9104
H4_4 H 0.4016(19) 0.645(3) 0.964(10)
O8_6 O 0.5000 0.29424(17) 0.2992(6)
O17_7 O 0.54149(9) 0.30444(16) 0.6386(5)
O19_7 O 0.45718(9) 0.19054(17) 0.4478(5)
O21_6 O 0.5000 0.20576(17) 0.7992(6)
O17_8 O 0.45851(9) 0.19556(16) 0.1386(5)
O19_8 O 0.54282(9) 0.30946(17) 0.9478(5)
In2_5 In 0.752821(11) 0.5000 0.0000
O1_5 O 0.79434(9) 0.55684(16) 0.0979(4)
O2_3 O 0.79054(9) 0.55659(16) 0.4082(4)
O6_5 O 0.84286(13) 0.5966(3) 0.6072(6)
H2_5 H 0.8234 0.5813 0.5896
C1_5 C 0.80629(11) 0.5680(2) 0.2559(7)
C2_5 C 0.84169(12) 0.5977(2) 0.2686(7)
C3_5 C 0.85923(15) 0.6129(3) 0.1036(7)
C4_5 C 0.89181(15) 0.6398(3) 0.1071(7)
C5_5 C 0.90837(12) 0.6522(2) 0.2793(7)
C6_5 C 0.89098(16) 0.6368(3) 0.4424(8)
C7_5 C 0.85792(16) 0.6104(3) 0.4397(7)
C8_5 C 0.94376(12) 0.6817(2) 0.2905(6)
H4_5 H 0.9016(19) 0.645(3) 0.536(10)
O13_5 O 0.90648(13) 0.3461(3) 0.0609(6)
H5_5 H 0.9259 0.3303 0.0441
H7_5 H 0.8481(16) 0.399(2) 0.006(8)
In7 In 0.747179(11) 0.5000 0.5000
O16_3 O 0.70946(9) 0.55659(16) 0.0918(4)
O20_3 O 0.7500 0.45533(17) 0.2500
In2_6 In 0.752821(11) 0.5000 1.0000
O5_5 O 0.90648(13) 0.6539(3) 0.9391(6)
H1_5 H 0.9259 0.6697 0.9559
O7_3 O 0.7500 0.54467(17) 0.7500
H3_5 H 0.8481(16) 0.601(2) 0.994(8)
O9_5 O 0.79434(9) 0.44316(16) 0.9021(4)
O10_3 O 0.79054(9) 0.44341(16) 0.5918(4)
O14_5 O 0.84286(13) 0.4034(3) 0.3928(6)
H6_5 H 0.8234 0.4187 0.4104
C9_5 C 0.80629(11) 0.4320(2) 0.7441(7)
C10_5 C 0.84169(12) 0.4023(2) 0.7314(7)
C11_5 C 0.85923(15) 0.3871(3) 0.8964(7)
C12_5 C 0.89181(15) 0.3602(3) 0.8929(7)
C13_5 C 0.90837(12) 0.3478(2) 0.7207(7)
C14_5 C 0.89098(16) 0.3632(3) 0.5576(8)
C15_5 C 0.85792(16) 0.3896(3) 0.5603(7)
C16_5 C 0.94376(12) 0.3183(2) 0.7095(6)
H8_5 H 0.9016(19) 0.355(3) 0.464(10)
O15_3 O 0.70946(9) 0.44341(16) 0.9082(4)
In7_2 In 0.252821(11) 0.0000 0.0000
In2_7 In 0.247179(11) 0.0000 0.5000
O9_6 O 0.20566(9) 0.05684(16) 0.4021(4)
O10_4 O 0.20946(9) 0.05659(16) 0.0918(4)
O13_6 O 0.09352(13) 0.1539(3) 0.5609(6)
H5_6 H 0.0741 0.1697 0.5441
C9_6 C 0.19371(11) 0.0680(2) 0.2441(7)
C10_6 C 0.15831(12) 0.0977(2) 0.2314(7)
C11_6 C 0.14077(15) 0.1129(3) 0.3964(7)
C12_6 C 0.10819(15) 0.1398(3) 0.3929(7)
C13_6 C 0.09163(12) 0.1522(2) 0.2207(7)
C14_6 C 0.10902(16) 0.1368(3) 0.0576(8)
C15_6 C 0.14208(16) 0.1104(3) 0.0603(7)
C16_6 C 0.05624(12) 0.1817(2) 0.2095(6)
H7_6 H 0.1519(16) 0.101(2) 0.506(8)
In7_3 In 0.252821(11) 0.0000 1.0000
O15_4 O 0.29054(9) 0.05659(16) 0.4082(4)
O20_4 O 0.2500 0.04467(17) 0.7500
O14_6 O 0.15714(13) 0.0966(3) 0.8928(6)
H6_6 H 0.1766 0.0813 0.9104
H8_6 H 0.0984(19) 0.145(3) 0.964(10)
O6_6 O 0.15714(13) 0.9034(3) 0.1072(6)
H2_6 H 0.1766 0.9187 0.0896
H4_6 H 0.0984(19) 0.855(3) 0.036(10)
In7_4 In 0.252821(11) 1.0000 0.0000
In2_8 In 0.247179(11) 1.0000 0.5000
O1_6 O 0.20566(9) 0.94316(16) 0.5979(4)
O2_4 O 0.20946(9) 0.94341(16) 0.9082(4)
O5_6 O 0.09352(13) 0.8461(3) 0.4391(6)
H1_6 H 0.0741 0.8303 0.4559
O7_4 O 0.2500 0.95533(17) 0.2500
C1_6 C 0.19371(11) 0.9320(2) 0.7559(7)
C2_6 C 0.15831(12) 0.9023(2) 0.7686(7)
C3_6 C 0.14077(15) 0.8871(3) 0.6036(7)
C4_6 C 0.10819(15) 0.8602(3) 0.6071(7)
C5_6 C 0.09163(12) 0.8478(2) 0.7793(7)
C6_6 C 0.10902(16) 0.8632(3) 0.9424(8)
C7_6 C 0.14208(16) 0.8896(3) 0.9397(7)
C8_6 C 0.05624(12) 0.8183(2) 0.7905(6)
H3_6 H 0.1519(16) 0.899(2) 0.494(8)
In7_5 In 0.252821(11) 1.0000 1.0000
O16_4 O 0.29054(9) 0.94341(16) 0.5918(4)
O1_7 O 0.29434(9) 0.05684(16) 0.0979(4)
O6_7 O 0.34286(13) 0.0966(3) 0.6072(6)
H2_7 H 0.3234 0.0813 0.5896
C1_7 C 0.30629(11) 0.0680(2) 0.2559(7)
C2_7 C 0.34169(12) 0.0977(2) 0.2686(7)
C3_7 C 0.35923(15) 0.1129(3) 0.1036(7)
C4_7 C 0.39181(15) 0.1398(3) 0.1071(7)
C5_7 C 0.40837(12) 0.1522(2) 0.2793(7)
C6_7 C 0.39098(16) 0.1368(3) 0.4424(8)
C7_7 C 0.35792(16) 0.1104(3) 0.4397(7)
C8_7 C 0.44376(12) 0.1817(2) 0.2905(6)
H4_7 H 0.4016(19) 0.145(3) 0.536(10)
O5_7 O 0.40648(13) 0.1539(3) 0.9391(6)
H1_7 H 0.4259 0.1697 0.9559
H3_7 H 0.3481(16) 0.101(2) 0.994(8)
O13_7 O 0.40648(13) 0.8461(3) 0.0609(6)
H5_7 H 0.4259 0.8303 0.0441
H7_7 H 0.3481(16) 0.899(2) 0.006(8)
O9_7 O 0.29434(9) 0.94316(16) 0.9021(4)
O14_7 O 0.34286(13) 0.9034(3) 0.3928(6)
H6_7 H 0.3234 0.9187 0.4104
C9_7 C 0.30629(11) 0.9320(2) 0.7441(7)
C10_7 C 0.34169(12) 0.9023(2) 0.7314(7)
C11_7 C 0.35923(15) 0.8871(3) 0.8964(7)
C12_7 C 0.39181(15) 0.8602(3) 0.8929(7)
C13_7 C 0.40837(12) 0.8478(2) 0.7207(7)
C14_7 C 0.39098(16) 0.8632(3) 0.5576(8)
C15_7 C 0.35792(16) 0.8896(3) 0.5603(7)
C16_7 C 0.44376(12) 0.8183(2) 0.7095(6)
H8_7 H 0.4016(19) 0.855(3) 0.464(10)
O6_8 O 0.65714(13) 0.4034(3) 0.1072(6)
H2_8 H 0.6766 0.4187 0.0896
H4_8 H 0.5984(19) 0.355(3) 0.036(10)
O1_8 O 0.70566(9) 0.44316(16) 0.5979(4)
O5_8 O 0.59352(13) 0.3461(3) 0.4391(6)
H1_8 H 0.5741 0.3303 0.4559
C1_8 C 0.69371(11) 0.4320(2) 0.7559(7)
C2_8 C 0.65831(12) 0.4023(2) 0.7686(7)
C3_8 C 0.64077(15) 0.3871(3) 0.6036(7)
C4_8 C 0.60819(15) 0.3602(3) 0.6071(7)
C5_8 C 0.59163(12) 0.3478(2) 0.7793(7)
C6_8 C 0.60902(16) 0.3632(3) 0.9424(8)
C7_8 C 0.64208(16) 0.3896(3) 0.9397(7)
C8_8 C 0.55624(12) 0.3183(2) 0.7905(6)
H3_8 H 0.6519(16) 0.399(2) 0.494(8)
O9_8 O 0.70566(9) 0.55684(16) 0.4021(4)
O13_8 O 0.59352(13) 0.6539(3) 0.5609(6)
H5_8 H 0.5741 0.6697 0.5441
C9_8 C 0.69371(11) 0.5680(2) 0.2441(7)
C10_8 C 0.65831(12) 0.5977(2) 0.2314(7)
C11_8 C 0.64077(15) 0.6129(3) 0.3964(7)
C12_8 C 0.60819(15) 0.6398(3) 0.3929(7)
C13_8 C 0.59163(12) 0.6522(2) 0.2207(7)
C14_8 C 0.60902(16) 0.6368(3) 0.0576(8)
C15_8 C 0.64208(16) 0.6104(3) 0.0603(7)
C16_8 C 0.55624(12) 0.6817(2) 0.2095(6)
H7_8 H 0.6519(16) 0.601(2) 0.506(8)
O14_8 O 0.65714(13) 0.5966(3) 0.8928(6)
H6_8 H 0.6766 0.5813 0.9104
H8_8 H 0.5984(19) 0.645(3) 0.964(10)
loop_
_geom_bond_atom_site_label_1
_geom_bond_atom_site_label_2
_geom_bond_site_symmetry_1
_geom_bond_site_symmetry_2
O5 H1 1_555 1_555
O7 In2 1_555 1_555
O9 In2 1_555 1_555
O10 C9 1_555 1_555
O11 C16 1_555 1_555
O12 C16 1_555 1_555
O14 H6 1_555 1_555
C9 O9 1_555 1_555
C10 C9 1_555 1_555
C11 C10 1_555 1_555
C13 C12 1_555 1_555
C14 C13 1_555 1_555
C15 O14 1_555 1_555
C16 C13 1_555 1_555
H8 C14 1_555 1_555
In4 O8 1_555 1_555
In5 O12 1_555 1_555
In6 O11 1_555 1_555
In8 O7 1_555 1_555
O15 In2 1_555 1_555
O10 In8 1_555 1_555
C10 C15 1_555 1_555
C11 C12 1_555 1_555
C14 C15 1_555 1_555
In1 O3 1_555 1_555
In2_2 O1 1_555 1_555
O1 C1 1_555 1_555
O2 C1 1_555 1_555
O3 C8 1_555 1_555
O4 C8 1_555 1_555
O6 H2 1_555 1_555
C1 C2 1_555 1_555
C2 C3 1_555 1_555
C3 C4 1_555 1_555
C5 C4 1_555 1_555
C6 C5 1_555 1_555
C7 O6 1_555 1_555
C8 C5 1_555 1_555
H4 C6 1_555 1_555
O13 H5 1_555 1_555
In4 O4 1_555 1_555
In8 O2 1_555 1_555
O16 In2_2 1_555 1_555
O20 In2_2 1_555 1_555
O21 In1 1_555 1_555
C2 C7 1_555 1_555
C6 C7 1_555 1_555
In4 O21 1_555 1_555
In8 O20 1_555 1_555
In4_2 O8_2 1_555 1_555
O17 In1_2 1_555 1_555
O21_2 In1_2 1_555 1_555
In4_2 O21_2 1_555 1_555
O17_2 In4 1_555 1_555
In4_2 O3_2 1_555 1_555
In2_3 O1_2 1_555 1_555
O1_2 C1_2 1_555 1_555
O2_2 C1_2 1_555 1_555
O3_2 C8_2 1_555 1_555
O18 C8_2 1_555 1_555
O5_2 H1_2 1_555 1_555
O7_2 In2_3 1_555 1_555
C1_2 C2_2 1_555 1_555
C2_2 C3_2 1_555 1_555
C3_2 C4_2 1_555 1_555
C4_2 O5_2 1_555 1_555
C5_2 C4_2 1_555 1_555
C6_2 C5_2 1_555 1_555
C8_2 C5_2 1_555 1_555
H3_2 C3_2 1_555 1_555
In8_2 O2_2 1_555 1_555
In8_3 O7_2 1_555 1_555
O16_2 In2_3 1_555 1_555
O19_2 In4_2 1_555 1_555
C2_2 C7_2 1_555 1_555
C6_2 C7_2 1_555 1_555
O6_2 H2_2 1_555 1_555
O14_2 H6_2 1_555 1_555
O9_2 In2_4 1_555 1_555
O10_2 C9_2 1_555 1_555
O11_2 C16_2 1_555 1_555
O12_2 C16_2 1_555 1_555
O13_2 H5_2 1_555 1_555
C9_2 O9_2 1_555 1_555
C10_2 C9_2 1_555 1_555
C11_2 C10_2 1_555 1_555
C12_2 O13_2 1_555 1_555
C13_2 C12_2 1_555 1_555
C14_2 C13_2 1_555 1_555
C16_2 C13_2 1_555 1_555
H7_2 C11_2 1_555 1_555
In5_2 O11_2 1_555 1_555
O15_2 In2_4 1_555 1_555
O20_2 In2_4 1_555 1_555
O10_2 In8_5 1_555 1_555
C10_2 C15_2 1_555 1_555
C11_2 C12_2 1_555 1_555
C14_2 C15_2 1_555 1_555
In8_4 O20_2 1_555 1_555
O8_3 In5 1_555 1_555
In6 O8_3 1_555 1_555
O17_3 In5 1_555 1_555
O21_3 In5 1_555 1_555
O8_4 In5_2 1_555 1_555
In6_2 O8_4 1_555 1_555
O19_3 In5_2 1_555 1_555
O21_4 In5_2 1_555 1_555
O17_4 In6_2 1_555 1_555
O9_3 In8_2 1_555 1_555
O16_2 C9_3 1_555 1_555
O11_3 C16_3 1_555 1_555
O12_3 C16_3 1_555 1_555
O14_3 H6_3 1_555 1_555
C9_3 O9_3 1_555 1_555
C10_3 C9_3 1_555 1_555
C11_3 C10_3 1_555 1_555
C13_3 C12_3 1_555 1_555
C14_3 C13_3 1_555 1_555
C15_3 O14_3 1_555 1_555
C16_3 C13_3 1_555 1_555
H8_3 C14_3 1_555 1_555
In5_3 O12_3 1_555 1_555
In6_3 O11_3 1_555 1_555
C10_3 C15_3 1_555 1_555
C11_3 C12_3 1_555 1_555
C14_3 C15_3 1_555 1_555
O13_3 H5_3 1_555 1_555
O5_3 H1_3 1_555 1_555
In4_3 O8_5 1_555 1_555
In1_3 O3_3 1_555 1_555
In8_5 O1_3 1_555 1_555
O1_3 C1_3 1_555 1_555
O15_2 C1_3 1_555 1_555
O3_3 C8_3 1_555 1_555
O4_2 C8_3 1_555 1_555
O6_3 H2_3 1_555 1_555
C1_3 C2_3 1_555 1_555
C2_3 C3_3 1_555 1_555
C3_3 C4_3 1_555 1_555
C5_3 C4_3 1_555 1_555
C6_3 C5_3 1_555 1_555
C7_3 O6_3 1_555 1_555
C8_3 C5_3 1_555 1_555
H4_3 C6_3 1_555 1_555
In4_3 O4_2 1_555 1_555
O17_5 In1_3 1_555 1_555
O21_5 In1_3 1_555 1_555
C2_3 C7_3 1_555 1_555
C6_3 C7_3 1_555 1_555
In4_3 O21_5 1_555 1_555
O14_4 H6_4 1_555 1_555
In4_3 O3_4 1_555 1_555
In8 O1_4 1_555 1_555
O1_4 C1_4 1_555 1_555
O15 C1_4 1_555 1_555
O3_4 C8_4 1_555 1_555
O18_2 C8_4 1_555 1_555
O5_4 H1_4 1_555 1_555
C1_4 C2_4 1_555 1_555
C2_4 C3_4 1_555 1_555
C3_4 C4_4 1_555 1_555
C4_4 O5_4 1_555 1_555
C5_4 C4_4 1_555 1_555
C6_4 C5_4 1_555 1_555
C8_4 C5_4 1_555 1_555
H3_4 C3_4 1_555 1_555
O9_4 In8 1_555 1_555
O16 C9_4 1_555 1_555
O11_4 C16_4 1_555 1_555
O12_4 C16_4 1_555 1_555
O13_4 H5_4 1_555 1_555
C9_4 O9_4 1_555 1_555
C10_4 C9_4 1_555 1_555
C11_4 C10_4 1_555 1_555
C12_4 O13_4 1_555 1_555
C13_4 C12_4 1_555 1_555
C14_4 C13_4 1_555 1_555
C16_4 C13_4 1_555 1_555
H7_4 C11_4 1_555 1_555
In5_3 O11_4 1_555 1_555
O17_6 In4_3 1_555 1_555
O19_6 In4_3 1_555 1_555
C2_4 C7_4 1_555 1_555
C6_4 C7_4 1_555 1_555
C10_4 C15_4 1_555 1_555
C11_4 C12_4 1_555 1_555
C14_4 C15_4 1_555 1_555
O6_4 H2_4 1_555 1_555
O8_6 In5_3 1_555 1_555
In6_3 O8_6 1_555 1_555
O17_7 In5_3 1_555 1_555
O19_7 In5_3 1_555 1_555
O21_6 In5_3 1_555 1_555
O17_8 In6_3 1_555 1_555
In2_5 O1_5 1_555 1_555
O1_5 C1_5 1_555 1_555
O2_3 C1_5 1_555 1_555
O17_4 C8_5 1_555 1_555
O19_3 C8_5 1_555 1_555
O6_5 H2_5 1_555 1_555
C1_5 C2_5 1_555 1_555
C2_5 C3_5 1_555 1_555
C3_5 C4_5 1_555 1_555
C5_5 C4_5 1_555 1_555
C6_5 C5_5 1_555 1_555
C7_5 O6_5 1_555 1_555
C8_5 C5_5 1_555 1_555
H4_5 C6_5 1_555 1_555
O13_5 H5_5 1_555 1_555
In7 O2_3 1_555 1_555
O16_3 In2_5 1_555 1_555
O20_3 In2_5 1_555 1_555
C2_5 C7_5 1_555 1_555
C6_5 C7_5 1_555 1_555
In7 O20_3 1_555 1_555
O5_5 H1_5 1_555 1_555
O7_3 In2_6 1_555 1_555
O9_5 In2_6 1_555 1_555
O10_3 C9_5 1_555 1_555
O17 C16_5 1_555 1_555
O19_2 C16_5 1_555 1_555
O14_5 H6_5 1_555 1_555
C9_5 O9_5 1_555 1_555
C10_5 C9_5 1_555 1_555
C11_5 C10_5 1_555 1_555
C13_5 C12_5 1_555 1_555
C14_5 C13_5 1_555 1_555
C15_5 O14_5 1_555 1_555
C16_5 C13_5 1_555 1_555
H8_5 C14_5 1_555 1_555
In7 O7_3 1_555 1_555
O15_3 In2_6 1_555 1_555
O10_3 In7 1_555 1_555
C10_5 C15_5 1_555 1_555
C11_5 C12_5 1_555 1_555
C14_5 C15_5 1_555 1_555
O9_6 In2_7 1_555 1_555
O10_4 C9_6 1_555 1_555
O17_2 C16_6 1_555 1_555
O19 C16_6 1_555 1_555
O13_6 H5_6 1_555 1_555
C9_6 O9_6 1_555 1_555
C10_6 C9_6 1_555 1_555
C11_6 C10_6 1_555 1_555
C12_6 O13_6 1_555 1_555
C13_6 C12_6 1_555 1_555
C14_6 C13_6 1_555 1_555
C16_6 C13_6 1_555 1_555
H7_6 C11_6 1_555 1_555
O15_4 In2_7 1_555 1_555
O20_4 In2_7 1_555 1_555
O10_4 In7_2 1_555 1_555
C10_6 C15_6 1_555 1_555
C11_6 C12_6 1_555 1_555
C14_6 C15_6 1_555 1_555
In7_3 O20_4 1_555 1_555
O14_6 H6_6 1_555 1_555
O6_6 H2_6 1_555 1_555
In2_8 O1_6 1_555 1_555
O1_6 C1_6 1_555 1_555
O2_4 C1_6 1_555 1_555
O17_3 C8_6 1_555 1_555
O19_4 C8_6 1_555 1_555
O5_6 H1_6 1_555 1_555
O7_4 In2_8 1_555 1_555
C1_6 C2_6 1_555 1_555
C2_6 C3_6 1_555 1_555
C3_6 C4_6 1_555 1_555
C4_6 O5_6 1_555 1_555
C5_6 C4_6 1_555 1_555
C6_6 C5_6 1_555 1_555
C8_6 C5_6 1_555 1_555
H3_6 C3_6 1_555 1_555
In7_5 O2_4 1_555 1_555
In7_4 O7_4 1_555 1_555
O16_4 In2_8 1_555 1_555
C2_6 C7_6 1_555 1_555
C6_6 C7_6 1_555 1_555
In7_2 O1_7 1_555 1_555
O1_7 C1_7 1_555 1_555
O15_4 C1_7 1_555 1_555
O17_8 C8_7 1_555 1_555
O19_7 C8_7 1_555 1_555
O6_7 H2_7 1_555 1_555
C1_7 C2_7 1_555 1_555
C2_7 C3_7 1_555 1_555
C3_7 C4_7 1_555 1_555
C5_7 C4_7 1_555 1_555
C6_7 C5_7 1_555 1_555
C7_7 O6_7 1_555 1_555
C8_7 C5_7 1_555 1_555
H4_7 C6_7 1_555 1_555
C2_7 C7_7 1_555 1_555
C6_7 C7_7 1_555 1_555
O5_7 H1_7 1_555 1_555
O13_7 H5_7 1_555 1_555
O9_7 In7_5 1_555 1_555
O16_4 C9_7 1_555 1_555
O17_5 C16_7 1_555 1_555
O19_6 C16_7 1_555 1_555
O14_7 H6_7 1_555 1_555
C9_7 O9_7 1_555 1_555
C10_7 C9_7 1_555 1_555
C11_7 C10_7 1_555 1_555
C13_7 C12_7 1_555 1_555
C14_7 C13_7 1_555 1_555
C15_7 O14_7 1_555 1_555
C16_7 C13_7 1_555 1_555
H8_7 C14_7 1_555 1_555
C10_7 C15_7 1_555 1_555
C11_7 C12_7 1_555 1_555
C14_7 C15_7 1_555 1_555
O6_8 H2_8 1_555 1_555
In7 O1_8 1_555 1_555
O1_8 C1_8 1_555 1_555
O15_3 C1_8 1_555 1_555
O17_7 C8_8 1_555 1_555
O19_8 C8_8 1_555 1_555
O5_8 H1_8 1_555 1_555
C1_8 C2_8 1_555 1_555
C2_8 C3_8 1_555 1_555
C3_8 C4_8 1_555 1_555
C4_8 O5_8 1_555 1_555
C5_8 C4_8 1_555 1_555
C6_8 C5_8 1_555 1_555
C8_8 C5_8 1_555 1_555
H3_8 C3_8 1_555 1_555
O9_8 In7 1_555 1_555
O16_3 C9_8 1_555 1_555
O17_6 C16_8 1_555 1_555
O19_5 C16_8 1_555 1_555
O13_8 H5_8 1_555 1_555
C9_8 O9_8 1_555 1_555
C10_8 C9_8 1_555 1_555
C11_8 C10_8 1_555 1_555
C12_8 O13_8 1_555 1_555
C13_8 C12_8 1_555 1_555
C14_8 C13_8 1_555 1_555
C16_8 C13_8 1_555 1_555
H7_8 C11_8 1_555 1_555
C2_8 C7_8 1_555 1_555
C6_8 C7_8 1_555 1_555
C10_8 C15_8 1_555 1_555
C11_8 C12_8 1_555 1_555
C14_8 C15_8 1_555 1_555
O14_8 H6_8 1_555 1_555

#END
