
###############################################################################
#
# This file contains modified crystal structure data generated from the
# MOF subset of the Cambridge Structural Database (CSD) v543 
# hosted by the Cambridge Crystallographic Data Centre (CCDC).
#
# This work is licensed under the Creative Commons
# Attribution-NonCommercial-ShareAlike 4.0 International License.
# To view a copy of this license, visit
# http://creativecommons.org/licenses/by-nc-sa/4.0/
# or send a letter to
# Creative Commons, PO Box 1866, Mountain View, CA 94042, USA.
#
# CIF created using the CSD Python API on 29 September 2022
# The structure has been converted into the P1 space group
# The structure has a 3D framework
# The original CSD entry FOCJAL01 is in the orthorhombic crystal system
# The framework has been calculated to contain at least 10.0% void space
# The void calculation uses a probe of radius 1.32A, grid spacing 0.4
#
###############################################################################

data_FOCJAL01
_chemical_formula_moiety         '(C128 H71 In23 O103)n'
_symmetry_cell_setting           triclinic
_symmetry_space_group_name_H-M   'P 1'
_symmetry_Int_Tables_number      1
_space_group_name_Hall           'P 1'
loop_
_symmetry_equiv_pos_site_id
_symmetry_equiv_pos_as_xyz
1 x,y,z
_cell_length_a                   37.417(8)
_cell_length_b                   22.907(5)
_cell_length_c                   7.1370(14)
_cell_angle_alpha                90
_cell_angle_beta                 90
_cell_angle_gamma                90
_cell_volume                     6117.2
loop_
_atom_site_label
_atom_site_type_symbol
_atom_site_fract_x
_atom_site_fract_y
_atom_site_fract_z
O14 O 0.09307(6) 0.65420(12) 0.0586(3)
H8 H 0.0739 0.6706 0.0411
H10 H 0.1515 0.6042 0.0094
In4 In 0.24704(2) 0.5000 -0.0000
In1 In 0.25296(2) 0.5000 0.5000
In2 In 0.0000 0.24476(2) 0.04653(3)
O1 O 0.2500 0.45516(8) 0.7500
H1 H 0.2500 0.4146 0.7500
O3 O 0.20973(4) 0.44280(8) 0.4075(2)
O4 O 0.20552(4) 0.44266(8) 0.0965(2)
O5 O 0.04165(4) 0.30429(8) 0.1427(2)
O6 O 0.04296(4) 0.31027(8) 0.4528(2)
O7 O 0.15727(6) 0.40372(13) 0.6090(3)
H3 H 0.1766 0.4195 0.5908
C1 C 0.19368(5) 0.43151(9) 0.2558(3)
C2 C 0.05629(5) 0.31850(10) 0.2943(3)
C3 C 0.15828(5) 0.40220(10) 0.2697(3)
C4 C 0.14198(7) 0.39053(14) 0.4428(3)
C5 C 0.10900(7) 0.36328(13) 0.4470(3)
H5 H 0.0983 0.3551 0.5618
C6 C 0.09162(5) 0.34796(11) 0.2825(3)
C7 C 0.10805(7) 0.35951(13) 0.1089(3)
C8 C 0.14089(6) 0.38717(12) 0.1052(3)
O9 O 0.20973(4) 0.55720(8) 0.5925(2)
O10 O 0.20552(4) 0.55734(8) 0.9035(2)
O11 O 0.04165(4) 0.69571(8) 0.8573(2)
O12 O 0.04296(4) 0.68973(8) 0.5472(2)
O13 O 0.15727(6) 0.59628(13) 0.3910(3)
H7 H 0.1766 0.5805 0.4092
C9 C 0.19368(5) 0.56849(9) 0.7442(3)
C10 C 0.05629(5) 0.68150(10) 0.7057(3)
C11 C 0.15828(5) 0.59780(10) 0.7303(3)
C12 C 0.14198(7) 0.60947(14) 0.5572(3)
C13 C 0.10900(7) 0.63672(13) 0.5530(3)
H9 H 0.0983 0.6449 0.4382
C14 C 0.09162(5) 0.65204(11) 0.7175(3)
C15 C 0.10805(7) 0.64049(13) 0.8911(3)
C16 C 0.14089(6) 0.61283(12) 0.8948(3)
In4_2 In 0.24704(2) 0.5000 1.0000
In6 In 0.0000 0.25524(2) 0.54653(3)
In7 In 0.0000 0.74476(2) 0.45347(3)
In8 In -0.0000 0.75524(2) 0.95347(3)
O15 O 0.2500 0.54484(8) 0.2500
O16 O 0.0000 0.20516(9) 0.3045(3)
O17 O 0.29448(4) 0.55734(8) 0.5965(2)
O18 O 0.29448(4) 0.44266(8) 0.4035(2)
O2 O 0.0000 0.29484(9) 0.8045(3)
H2 H -0.0000 0.3354 0.8129
O8 O 0.09307(6) 0.34580(12) 0.9414(3)
H4 H 0.0739 0.3294 0.9589
H6 H 0.1515 0.3958 0.9906
O21 O 0.04296(4) 0.18973(8) 0.9528(2)
In2_2 In 1.0000 0.24476(2) 0.04653(3)
In6_2 In 1.0000 0.25524(2) 0.54653(3)
In7_2 In 1.0000 0.74476(2) 0.45347(3)
In8_2 In 1.0000 0.75524(2) 0.95347(3)
O16_2 O 1.0000 0.20516(9) 0.3045(3)
O19 O 0.95835(4) 0.30429(8) 0.1427(2)
O2_2 O 1.0000 0.29484(9) 0.8045(3)
H2_2 H 1.0000 0.3354 0.8129
O20 O 0.95704(4) 0.18973(8) 0.9528(2)
H2_3 H 0.0000 0.1646 0.3129
O19_2 O 0.04165(4) 0.19571(8) 0.6427(2)
In1_2 In 0.74704(2) 0.0000 -0.0000
O1_2 O 0.7500 0.04484(8) 0.2500
H1_2 H 0.7500 0.0854 0.2500
O7_2 O 0.84273(6) 0.09628(13) 0.1090(3)
H3_2 H 0.8234 0.0805 0.0908
H5_2 H 0.9017 0.1449 0.0618
In4_3 In 0.75296(2) 0.0000 0.5000
In1_3 In 0.74704(2) 0.0000 1.0000
H2_4 H 1.0000 0.1646 0.3129
O3_2 O 0.79027(4) 0.05720(8) 0.9075(2)
O4_2 O 0.79448(4) 0.05734(8) 0.5965(2)
O5_2 O 0.95835(4) 0.19571(8) 0.6427(2)
O8_2 O 0.90693(6) 0.15420(12) 0.4414(3)
H4_2 H 0.9261 0.1706 0.4589
C1_2 C 0.80632(5) 0.06849(9) 0.7558(3)
C2_2 C 0.94371(5) 0.18150(10) 0.7943(3)
C3_2 C 0.84172(5) 0.09780(10) 0.7697(3)
C4_2 C 0.85802(7) 0.10947(14) 0.9428(3)
C5_2 C 0.89100(7) 0.13672(13) 0.9470(3)
C6_2 C 0.90838(5) 0.15204(11) 0.7825(3)
C7_2 C 0.89195(7) 0.14049(13) 0.6089(3)
C8_2 C 0.85911(6) 0.11283(12) 0.6052(3)
H6_2 H 0.8485 0.1042 0.4906
O18_2 O 0.70552(4) 0.05734(8) 0.9035(2)
O21_2 O 0.95704(4) 0.31027(8) 0.4528(2)
In1_4 In 0.74704(2) 1.0000 -0.0000
O9_2 O 0.79027(4) 0.94280(8) 0.0925(2)
O10_2 O 0.79448(4) 0.94266(8) 0.4035(2)
O11_2 O 0.95835(4) 0.80429(8) 0.3573(2)
O12_2 O 0.95704(4) 0.81027(8) 0.0472(2)
O14_2 O 0.90693(6) 0.84580(12) 0.5586(3)
H8_2 H 0.9261 0.8294 0.5411
C9_2 C 0.80632(5) 0.93151(9) 0.2442(3)
C10_2 C 0.94371(5) 0.81850(10) 0.2057(3)
C11_2 C 0.84172(5) 0.90220(10) 0.2303(3)
C12_2 C 0.85802(7) 0.89053(14) 0.0572(3)
C13_2 C 0.89100(7) 0.86328(13) 0.0530(3)
C14_2 C 0.90838(5) 0.84796(11) 0.2175(3)
C15_2 C 0.89195(7) 0.85951(13) 0.3911(3)
C16_2 C 0.85911(6) 0.88717(12) 0.3948(3)
H10_2 H 0.8485 0.8958 0.5094
In4_4 In 0.75296(2) 1.0000 0.5000
O17_2 O 0.70552(4) 0.94266(8) 0.0965(2)
In1_5 In 0.74704(2) 1.0000 1.0000
O13_2 O 0.84273(6) 0.90372(13) 0.8910(3)
H7_2 H 0.8234 0.9195 0.9092
H9_2 H 0.9017 0.8551 0.9382
O15_2 O 0.7500 0.95516(8) 0.7500
O2_3 O 0.0000 0.79484(9) 0.6955(3)
H2_5 H 0.0000 0.8354 0.6871
O16_3 O -0.0000 0.70516(9) 0.1955(3)
O19_3 O 0.04165(4) 0.80429(8) 0.3573(2)
O2_4 O 1.0000 0.79484(9) 0.6955(3)
H2_6 H 1.0000 0.8354 0.6871
O16_4 O 1.0000 0.70516(9) 0.1955(3)
O21_3 O 0.95704(4) 0.68973(8) 0.5472(2)
H1_3 H 0.7500 0.9146 0.7500
H2_7 H -0.0000 0.6646 0.1871
O21_4 O 0.04296(4) 0.81027(8) 0.0472(2)
H1_4 H 0.2500 0.5854 0.2500
H2_8 H 1.0000 0.6646 0.1871
O19_4 O 0.95835(4) 0.69571(8) 0.8573(2)
O14_3 O 0.59307(6) 0.15420(12) 0.0586(3)
H8_3 H 0.5739 0.1706 0.0411
H10_3 H 0.6515 0.1042 0.0094
O9_3 O 0.70973(4) 0.05720(8) 0.5925(2)
O11_3 O 0.54165(4) 0.19571(8) 0.8573(2)
O12_3 O 0.54296(4) 0.18973(8) 0.5472(2)
O13_3 O 0.65727(6) 0.09628(13) 0.3910(3)
H7_3 H 0.6766 0.0805 0.4092
C9_3 C 0.69368(5) 0.06849(9) 0.7442(3)
C10_3 C 0.55629(5) 0.18150(10) 0.7057(3)
C11_3 C 0.65828(5) 0.09780(10) 0.7303(3)
C12_3 C 0.64198(7) 0.10947(14) 0.5572(3)
C13_3 C 0.60900(7) 0.13672(13) 0.5530(3)
H9_3 H 0.5983 0.1449 0.4382
C14_3 C 0.59162(5) 0.15204(11) 0.7175(3)
C15_3 C 0.60805(7) 0.14049(13) 0.8911(3)
C16_3 C 0.64089(6) 0.11283(12) 0.8948(3)
In7_3 In 0.5000 0.24476(2) 0.45347(3)
In8_3 In 0.5000 0.25524(2) 0.95347(3)
In2_3 In 0.5000 0.74476(2) 0.04653(3)
O3_3 O 0.70973(4) 0.94280(8) 0.4075(2)
O5_3 O 0.54165(4) 0.80429(8) 0.1427(2)
O6_2 O 0.54296(4) 0.81027(8) 0.4528(2)
O7_3 O 0.65727(6) 0.90372(13) 0.6090(3)
H3_3 H 0.6766 0.9195 0.5908
C1_3 C 0.69368(5) 0.93151(9) 0.2558(3)
C2_3 C 0.55629(5) 0.81850(10) 0.2943(3)
C3_3 C 0.65828(5) 0.90220(10) 0.2697(3)
C4_3 C 0.64198(7) 0.89053(14) 0.4428(3)
C5_3 C 0.60900(7) 0.86328(13) 0.4470(3)
H5_3 H 0.5983 0.8551 0.5618
C6_3 C 0.59162(5) 0.84796(11) 0.2825(3)
C7_3 C 0.60805(7) 0.85951(13) 0.1089(3)
C8_3 C 0.64089(6) 0.88717(12) 0.1052(3)
In6_3 In 0.5000 0.75524(2) 0.54653(3)
O16_5 O 0.5000 0.70516(9) 0.3045(3)
O19_5 O 0.45835(4) 0.80429(8) 0.1427(2)
O2_5 O 0.5000 0.79484(9) 0.8045(3)
H2_9 H 0.5000 0.8354 0.8129
O8_3 O 0.59307(6) 0.84580(12) 0.9414(3)
H4_3 H 0.5739 0.8294 0.9589
H6_3 H 0.6515 0.8958 0.9906
O20_2 O 0.45704(4) 0.68973(8) 0.9528(2)
O21_5 O 0.54296(4) 0.68973(8) 0.9528(2)
O7_4 O 0.34273(6) 0.59628(13) 0.1090(3)
H3_4 H 0.3234 0.5805 0.0908
H5_4 H 0.4017 0.6449 0.0618
O9_4 O 0.29027(4) 0.44280(8) 0.0925(2)
O11_4 O 0.45835(4) 0.30429(8) 0.3573(2)
O12_4 O 0.45704(4) 0.31027(8) 0.0472(2)
O14_4 O 0.40693(6) 0.34580(12) 0.5586(3)
H8_4 H 0.4261 0.3294 0.5411
C9_4 C 0.30632(5) 0.43151(9) 0.2442(3)
C10_4 C 0.44371(5) 0.31850(10) 0.2057(3)
C11_4 C 0.34172(5) 0.40220(10) 0.2303(3)
C12_4 C 0.35802(7) 0.39053(14) 0.0572(3)
C13_4 C 0.39100(7) 0.36328(13) 0.0530(3)
C14_4 C 0.40838(5) 0.34796(11) 0.2175(3)
C15_4 C 0.39195(7) 0.35951(13) 0.3911(3)
C16_4 C 0.35911(6) 0.38717(12) 0.3948(3)
H10_4 H 0.3485 0.3958 0.5094
H2_10 H 0.5000 0.6646 0.3129
O3_4 O 0.29027(4) 0.55720(8) 0.9075(2)
O5_4 O 0.45835(4) 0.69571(8) 0.6427(2)
O8_4 O 0.40693(6) 0.65420(12) 0.4414(3)
H4_4 H 0.4261 0.6706 0.4589
C1_4 C 0.30632(5) 0.56849(9) 0.7558(3)
C2_4 C 0.44371(5) 0.68150(10) 0.7943(3)
C3_4 C 0.34172(5) 0.59780(10) 0.7697(3)
C4_4 C 0.35802(7) 0.60947(14) 0.9428(3)
C5_4 C 0.39100(7) 0.63672(13) 0.9470(3)
C6_4 C 0.40838(5) 0.65204(11) 0.7825(3)
C7_4 C 0.39195(7) 0.64049(13) 0.6089(3)
C8_4 C 0.35911(6) 0.61283(12) 0.6052(3)
H6_4 H 0.3485 0.6042 0.4906
O13_4 O 0.34273(6) 0.40372(13) 0.8910(3)
H7_4 H 0.3234 0.4195 0.9092
H9_4 H 0.4017 0.3551 0.9382
O19_6 O 0.54165(4) 0.69571(8) 0.6427(2)
O21_6 O 0.45704(4) 0.81027(8) 0.4528(2)
O2_6 O 0.5000 0.29484(9) 0.6955(3)
H2_11 H 0.5000 0.3354 0.6871
O16_6 O 0.5000 0.20516(9) 0.1955(3)
O19_7 O 0.54165(4) 0.30429(8) 0.3573(2)
O21_7 O 0.45704(4) 0.18973(8) 0.5472(2)
H2_12 H 0.5000 0.1646 0.1871
O21_8 O 0.54296(4) 0.31027(8) 0.0472(2)
O19_8 O 0.45835(4) 0.19571(8) 0.8573(2)
O8_5 O 0.90693(6) 0.65420(12) 0.0586(3)
H4_5 H 0.9261 0.6706 0.0411
H6_5 H 0.8485 0.6042 0.0094
In3 In 0.75296(2) 0.5000 0.0000
In1_6 In 0.74704(2) 0.5000 0.5000
O1_3 O 0.7500 0.54484(8) 0.2500
H1_5 H 0.7500 0.5854 0.2500
O3_5 O 0.79027(4) 0.55720(8) 0.5925(2)
O4_3 O 0.79448(4) 0.55734(8) 0.9035(2)
O7_5 O 0.84273(6) 0.59628(13) 0.3910(3)
H3_5 H 0.8234 0.5805 0.4092
C1_5 C 0.80632(5) 0.56849(9) 0.7442(3)
C2_5 C 0.94371(5) 0.68150(10) 0.7057(3)
C3_5 C 0.84172(5) 0.59780(10) 0.7303(3)
C4_5 C 0.85802(7) 0.60947(14) 0.5572(3)
C5_5 C 0.89100(7) 0.63672(13) 0.5530(3)
H5_5 H 0.9017 0.6449 0.4382
C6_5 C 0.90838(5) 0.65204(11) 0.7175(3)
C7_5 C 0.89195(7) 0.64049(13) 0.8911(3)
C8_5 C 0.85911(6) 0.61283(12) 0.8948(3)
O9_5 O 0.79027(4) 0.44280(8) 0.4075(2)
O10_3 O 0.79448(4) 0.44266(8) 0.0965(2)
O13_5 O 0.84273(6) 0.40372(13) 0.6090(3)
H7_5 H 0.8234 0.4195 0.5908
C9_5 C 0.80632(5) 0.43151(9) 0.2558(3)
C10_5 C 0.94371(5) 0.31850(10) 0.2943(3)
C11_5 C 0.84172(5) 0.40220(10) 0.2697(3)
C12_5 C 0.85802(7) 0.39053(14) 0.4428(3)
C13_5 C 0.89100(7) 0.36328(13) 0.4470(3)
H9_5 H 0.9017 0.3551 0.5618
C14_5 C 0.90838(5) 0.34796(11) 0.2825(3)
C15_5 C 0.89195(7) 0.35951(13) 0.1089(3)
C16_5 C 0.85911(6) 0.38717(12) 0.1052(3)
In3_2 In 0.75296(2) 0.5000 1.0000
O15_3 O 0.7500 0.45516(8) 0.7500
O17_3 O 0.70552(4) 0.44266(8) 0.4035(2)
O18_3 O 0.70552(4) 0.55734(8) 0.5965(2)
O14_5 O 0.90693(6) 0.34580(12) 0.9414(3)
H8_5 H 0.9261 0.3294 0.9589
H10_5 H 0.8485 0.3958 0.9906
In1_7 In 0.25296(2) 0.0000 0.0000
O13_6 O 0.15727(6) 0.09628(13) 0.1090(3)
H7_6 H 0.1766 0.0805 0.0908
H9_6 H 0.0983 0.1449 0.0618
In3_3 In 0.24704(2) 0.0000 0.5000
O15_4 O 0.2500 0.04484(8) 0.2500
In1_8 In 0.25296(2) 0.0000 1.0000
O9_6 O 0.20973(4) 0.05720(8) 0.9075(2)
O10_4 O 0.20552(4) 0.05734(8) 0.5965(2)
O14_6 O 0.09307(6) 0.15420(12) 0.4414(3)
H8_6 H 0.0739 0.1706 0.4589
C9_6 C 0.19368(5) 0.06849(9) 0.7558(3)
C10_6 C 0.05629(5) 0.18150(10) 0.7943(3)
C11_6 C 0.15828(5) 0.09780(10) 0.7697(3)
C12_6 C 0.14198(7) 0.10947(14) 0.9428(3)
C13_6 C 0.10900(7) 0.13672(13) 0.9470(3)
C14_6 C 0.09162(5) 0.15204(11) 0.7825(3)
C15_6 C 0.10805(7) 0.14049(13) 0.6089(3)
C16_6 C 0.14089(6) 0.11283(12) 0.6052(3)
H10_6 H 0.1515 0.1042 0.4906
O17_4 O 0.29448(4) 0.05734(8) 0.9035(2)
In1_9 In 0.25296(2) 1.0000 0.0000
O3_6 O 0.20973(4) 0.94280(8) 0.0925(2)
O4_4 O 0.20552(4) 0.94266(8) 0.4035(2)
O8_6 O 0.09307(6) 0.84580(12) 0.5586(3)
H4_6 H 0.0739 0.8294 0.5411
C1_6 C 0.19368(5) 0.93151(9) 0.2442(3)
C2_6 C 0.05629(5) 0.81850(10) 0.2057(3)
C3_6 C 0.15828(5) 0.90220(10) 0.2303(3)
C4_6 C 0.14198(7) 0.89053(14) 0.0572(3)
C5_6 C 0.10900(7) 0.86328(13) 0.0530(3)
C6_6 C 0.09162(5) 0.84796(11) 0.2175(3)
C7_6 C 0.10805(7) 0.85951(13) 0.3911(3)
C8_6 C 0.14089(6) 0.88717(12) 0.3948(3)
H6_6 H 0.1515 0.8958 0.5094
In3_4 In 0.24704(2) 1.0000 0.5000
O18_4 O 0.29448(4) 0.94266(8) 0.0965(2)
In1_10 In 0.25296(2) 1.0000 1.0000
O1_4 O 0.2500 0.95516(8) 0.7500
H1_6 H 0.2500 0.9146 0.7500
O7_6 O 0.15727(6) 0.90372(13) 0.8910(3)
H3_6 H 0.1766 0.9195 0.9092
H5_6 H 0.0983 0.8551 0.9382
H1_7 H 0.2500 0.0854 0.2500
H1_8 H 0.7500 0.4146 0.7500
O8_7 O 0.40693(6) 0.15420(12) 0.0586(3)
H4_7 H 0.4261 0.1706 0.0411
H6_7 H 0.3485 0.1042 0.0094
O3_7 O 0.29027(4) 0.05720(8) 0.5925(2)
O7_7 O 0.34273(6) 0.09628(13) 0.3910(3)
H3_7 H 0.3234 0.0805 0.4092
C1_7 C 0.30632(5) 0.06849(9) 0.7442(3)
C2_7 C 0.44371(5) 0.18150(10) 0.7057(3)
C3_7 C 0.34172(5) 0.09780(10) 0.7303(3)
C4_7 C 0.35802(7) 0.10947(14) 0.5572(3)
C5_7 C 0.39100(7) 0.13672(13) 0.5530(3)
H5_7 H 0.4017 0.1449 0.4382
C6_7 C 0.40838(5) 0.15204(11) 0.7175(3)
C7_7 C 0.39195(7) 0.14049(13) 0.8911(3)
C8_7 C 0.35911(6) 0.11283(12) 0.8948(3)
O9_7 O 0.29027(4) 0.94280(8) 0.4075(2)
O13_7 O 0.34273(6) 0.90372(13) 0.6090(3)
H7_7 H 0.3234 0.9195 0.5908
C9_7 C 0.30632(5) 0.93151(9) 0.2558(3)
C10_7 C 0.44371(5) 0.81850(10) 0.2943(3)
C11_7 C 0.34172(5) 0.90220(10) 0.2697(3)
C12_7 C 0.35802(7) 0.89053(14) 0.4428(3)
C13_7 C 0.39100(7) 0.86328(13) 0.4470(3)
H9_7 H 0.4017 0.8551 0.5618
C14_7 C 0.40838(5) 0.84796(11) 0.2825(3)
C15_7 C 0.39195(7) 0.85951(13) 0.1089(3)
C16_7 C 0.35911(6) 0.88717(12) 0.1052(3)
O14_7 O 0.40693(6) 0.84580(12) 0.9414(3)
H8_7 H 0.4261 0.8294 0.9589
H10_7 H 0.3485 0.8958 0.9906
O3_8 O 0.70973(4) 0.44280(8) 0.0925(2)
O8_8 O 0.59307(6) 0.34580(12) 0.5586(3)
H4_8 H 0.5739 0.3294 0.5411
C1_8 C 0.69368(5) 0.43151(9) 0.2442(3)
C2_8 C 0.55629(5) 0.31850(10) 0.2057(3)
C3_8 C 0.65828(5) 0.40220(10) 0.2303(3)
C4_8 C 0.64198(7) 0.39053(14) 0.0572(3)
C5_8 C 0.60900(7) 0.36328(13) 0.0530(3)
C6_8 C 0.59162(5) 0.34796(11) 0.2175(3)
C7_8 C 0.60805(7) 0.35951(13) 0.3911(3)
C8_8 C 0.64089(6) 0.38717(12) 0.3948(3)
H6_8 H 0.6515 0.3958 0.5094
O13_8 O 0.65727(6) 0.59628(13) 0.1090(3)
H7_8 H 0.6766 0.5805 0.0908
H9_8 H 0.5983 0.6449 0.0618
O7_8 O 0.65727(6) 0.40372(13) 0.8910(3)
H3_8 H 0.6766 0.4195 0.9092
H5_8 H 0.5983 0.3551 0.9382
O9_8 O 0.70973(4) 0.55720(8) 0.9075(2)
O14_8 O 0.59307(6) 0.65420(12) 0.4414(3)
H8_8 H 0.5739 0.6706 0.4589
C9_8 C 0.69368(5) 0.56849(9) 0.7558(3)
C10_8 C 0.55629(5) 0.68150(10) 0.7943(3)
C11_8 C 0.65828(5) 0.59780(10) 0.7697(3)
C12_8 C 0.64198(7) 0.60947(14) 0.9428(3)
C13_8 C 0.60900(7) 0.63672(13) 0.9470(3)
C14_8 C 0.59162(5) 0.65204(11) 0.7825(3)
C15_8 C 0.60805(7) 0.64049(13) 0.6089(3)
C16_8 C 0.64089(6) 0.61283(12) 0.6052(3)
H10_8 H 0.6515 0.6042 0.4906
loop_
_geom_bond_atom_site_label_1
_geom_bond_atom_site_label_2
_geom_bond_site_symmetry_1
_geom_bond_site_symmetry_2
O14 H8 1_555 1_555
In1 O1 1_555 1_555
O1 H1 1_555 1_555
O3 In1 1_555 1_555
O4 C1 1_555 1_555
O5 In2 1_555 1_555
O6 C2 1_555 1_555
O7 H3 1_555 1_555
C1 O3 1_555 1_555
C2 O5 1_555 1_555
C3 C1 1_555 1_555
C4 O7 1_555 1_555
C5 C4 1_555 1_555
H5 C5 1_555 1_555
C6 C2 1_555 1_555
C8 C3 1_555 1_555
O9 In1 1_555 1_555
O10 C9 1_555 1_555
O11 C10 1_555 1_555
O12 C10 1_555 1_555
O13 H7 1_555 1_555
C9 O9 1_555 1_555
C10 C14 1_555 1_555
C11 C9 1_555 1_555
C12 O13 1_555 1_555
C13 C12 1_555 1_555
H9 C13 1_555 1_555
C14 C13 1_555 1_555
C16 C11 1_555 1_555
In4 O4 1_555 1_555
In4_2 O1 1_555 1_555
In6 O6 1_555 1_555
In7 O12 1_555 1_555
In8 O11 1_555 1_555
O15 In1 1_555 1_555
O16 In2 1_555 1_555
O17 In1 1_555 1_555
O18 In1 1_555 1_555
C3 C4 1_555 1_555
C5 C6 1_555 1_555
C6 C7 1_555 1_555
C7 C8 1_555 1_555
O10 In4_2 1_555 1_555
C11 C12 1_555 1_555
C14 C15 1_555 1_555
C15 C16 1_555 1_555
In4 O15 1_555 1_555
In6 O16 1_555 1_555
O2 H2 1_555 1_555
O8 H4 1_555 1_555
In6 O2 1_555 1_555
O16_2 In2_2 1_555 1_555
O19 In2_2 1_555 1_555
In6_2 O16_2 1_555 1_555
O2_2 H2_2 1_555 1_555
In6_2 O2_2 1_555 1_555
O16 H2_3 1_555 1_555
O19_2 In6 1_555 1_555
In1_2 O1_2 1_555 1_555
O1_2 H1_2 1_555 1_555
O7_2 H3_2 1_555 1_555
In4_3 O1_2 1_555 1_555
O16_2 H2_4 1_555 1_555
O3_2 In1_3 1_555 1_555
O4_2 C1_2 1_555 1_555
O5_2 In6_2 1_555 1_555
O20 C2_2 1_555 1_555
O8_2 H4_2 1_555 1_555
C1_2 O3_2 1_555 1_555
C2_2 O5_2 1_555 1_555
C3_2 C1_2 1_555 1_555
C5_2 C4_2 1_555 1_555
C6_2 C2_2 1_555 1_555
C7_2 O8_2 1_555 1_555
C8_2 C3_2 1_555 1_555
H6_2 C8_2 1_555 1_555
In4_3 O4_2 1_555 1_555
O18_2 In1_3 1_555 1_555
O21_2 In6_2 1_555 1_555
C3_2 C4_2 1_555 1_555
C5_2 C6_2 1_555 1_555
C6_2 C7_2 1_555 1_555
C7_2 C8_2 1_555 1_555
O9_2 In1_4 1_555 1_555
O10_2 C9_2 1_555 1_555
O11_2 C10_2 1_555 1_555
O12_2 C10_2 1_555 1_555
O14_2 H8_2 1_555 1_555
C9_2 O9_2 1_555 1_555
C10_2 C14_2 1_555 1_555
C11_2 C9_2 1_555 1_555
C13_2 C12_2 1_555 1_555
C14_2 C13_2 1_555 1_555
C15_2 O14_2 1_555 1_555
C16_2 C11_2 1_555 1_555
H10_2 C16_2 1_555 1_555
In7_2 O11_2 1_555 1_555
O17_2 In1_4 1_555 1_555
O10_2 In4_4 1_555 1_555
C11_2 C12_2 1_555 1_555
C14_2 C15_2 1_555 1_555
C15_2 C16_2 1_555 1_555
O13_2 H7_2 1_555 1_555
O15_2 In1_5 1_555 1_555
In4_4 O15_2 1_555 1_555
In7 O2_3 1_555 1_555
O2_3 H2_5 1_555 1_555
In8 O2_3 1_555 1_555
O16_3 In7 1_555 1_555
O19_3 In7 1_555 1_555
In7_2 O2_4 1_555 1_555
O2_4 H2_6 1_555 1_555
In8_2 O2_4 1_555 1_555
O16_4 In7_2 1_555 1_555
O21_3 In7_2 1_555 1_555
O15_2 H1_3 1_555 1_555
O16_3 H2_7 1_555 1_555
O15 H1_4 1_555 1_555
O16_4 H2_8 1_555 1_555
O19_4 In8_2 1_555 1_555
O14_3 H8_3 1_555 1_555
O9_3 In4_3 1_555 1_555
O18_2 C9_3 1_555 1_555
O11_3 C10_3 1_555 1_555
O12_3 C10_3 1_555 1_555
O13_3 H7_3 1_555 1_555
C9_3 O9_3 1_555 1_555
C10_3 C14_3 1_555 1_555
C11_3 C9_3 1_555 1_555
C12_3 O13_3 1_555 1_555
C13_3 C12_3 1_555 1_555
H9_3 C13_3 1_555 1_555
C14_3 C13_3 1_555 1_555
C16_3 C11_3 1_555 1_555
In7_3 O12_3 1_555 1_555
In8_3 O11_3 1_555 1_555
C11_3 C12_3 1_555 1_555
C14_3 C15_3 1_555 1_555
C15_3 C16_3 1_555 1_555
O3_3 In4_4 1_555 1_555
O17_2 C1_3 1_555 1_555
O5_3 In2_3 1_555 1_555
O6_2 C2_3 1_555 1_555
O7_3 H3_3 1_555 1_555
C1_3 O3_3 1_555 1_555
C2_3 O5_3 1_555 1_555
C3_3 C1_3 1_555 1_555
C4_3 O7_3 1_555 1_555
C5_3 C4_3 1_555 1_555
H5_3 C5_3 1_555 1_555
C6_3 C2_3 1_555 1_555
C8_3 C3_3 1_555 1_555
In6_3 O6_2 1_555 1_555
O16_5 In2_3 1_555 1_555
O19_5 In2_3 1_555 1_555
C3_3 C4_3 1_555 1_555
C5_3 C6_3 1_555 1_555
C6_3 C7_3 1_555 1_555
C7_3 C8_3 1_555 1_555
In6_3 O16_5 1_555 1_555
O2_5 H2_9 1_555 1_555
O8_3 H4_3 1_555 1_555
In6_3 O2_5 1_555 1_555
O7_4 H3_4 1_555 1_555
O9_4 In4 1_555 1_555
O18 C9_4 1_555 1_555
O11_4 C10_4 1_555 1_555
O12_4 C10_4 1_555 1_555
O14_4 H8_4 1_555 1_555
C9_4 O9_4 1_555 1_555
C10_4 C14_4 1_555 1_555
C11_4 C9_4 1_555 1_555
C13_4 C12_4 1_555 1_555
C14_4 C13_4 1_555 1_555
C15_4 O14_4 1_555 1_555
C16_4 C11_4 1_555 1_555
H10_4 C16_4 1_555 1_555
In7_3 O11_4 1_555 1_555
C11_4 C12_4 1_555 1_555
C14_4 C15_4 1_555 1_555
C15_4 C16_4 1_555 1_555
O16_5 H2_10 1_555 1_555
O3_4 In4_2 1_555 1_555
O17 C1_4 1_555 1_555
O5_4 In6_3 1_555 1_555
O20_2 C2_4 1_555 1_555
O8_4 H4_4 1_555 1_555
C1_4 O3_4 1_555 1_555
C2_4 O5_4 1_555 1_555
C3_4 C1_4 1_555 1_555
C5_4 C4_4 1_555 1_555
C6_4 C2_4 1_555 1_555
C7_4 O8_4 1_555 1_555
C8_4 C3_4 1_555 1_555
H6_4 C8_4 1_555 1_555
O13_4 H7_4 1_555 1_555
O19_6 In6_3 1_555 1_555
O21_6 In6_3 1_555 1_555
C3_4 C4_4 1_555 1_555
C5_4 C6_4 1_555 1_555
C6_4 C7_4 1_555 1_555
C7_4 C8_4 1_555 1_555
In7_3 O2_6 1_555 1_555
O2_6 H2_11 1_555 1_555
In8_3 O2_6 1_555 1_555
O16_6 In7_3 1_555 1_555
O19_7 In7_3 1_555 1_555
O21_7 In7_3 1_555 1_555
O16_6 H2_12 1_555 1_555
O19_8 In8_3 1_555 1_555
O8_5 H4_5 1_555 1_555
In1_6 O1_3 1_555 1_555
O1_3 H1_5 1_555 1_555
O3_5 In1_6 1_555 1_555
O4_3 C1_5 1_555 1_555
O21_3 C2_5 1_555 1_555
O7_5 H3_5 1_555 1_555
C1_5 O3_5 1_555 1_555
C2_5 O19_4 1_555 1_555
C3_5 C1_5 1_555 1_555
C4_5 O7_5 1_555 1_555
C5_5 C4_5 1_555 1_555
H5_5 C5_5 1_555 1_555
C6_5 C2_5 1_555 1_555
C8_5 C3_5 1_555 1_555
O9_5 In1_6 1_555 1_555
O10_3 C9_5 1_555 1_555
O19 C10_5 1_555 1_555
O21_2 C10_5 1_555 1_555
O13_5 H7_5 1_555 1_555
C9_5 O9_5 1_555 1_555
C10_5 C14_5 1_555 1_555
C11_5 C9_5 1_555 1_555
C12_5 O13_5 1_555 1_555
C13_5 C12_5 1_555 1_555
H9_5 C13_5 1_555 1_555
C14_5 C13_5 1_555 1_555
C16_5 C11_5 1_555 1_555
In3_2 O4_3 1_555 1_555
In3 O1_3 1_555 1_555
O15_3 In1_6 1_555 1_555
O17_3 In1_6 1_555 1_555
O18_3 In1_6 1_555 1_555
C3_5 C4_5 1_555 1_555
C5_5 C6_5 1_555 1_555
C6_5 C7_5 1_555 1_555
C7_5 C8_5 1_555 1_555
O10_3 In3 1_555 1_555
C11_5 C12_5 1_555 1_555
C14_5 C15_5 1_555 1_555
C15_5 C16_5 1_555 1_555
In3_2 O15_3 1_555 1_555
O14_5 H8_5 1_555 1_555
O13_6 H7_6 1_555 1_555
O15_4 In1_7 1_555 1_555
In3_3 O15_4 1_555 1_555
O9_6 In1_8 1_555 1_555
O10_4 C9_6 1_555 1_555
O19_2 C10_6 1_555 1_555
O21 C10_6 1_555 1_555
O14_6 H8_6 1_555 1_555
C9_6 O9_6 1_555 1_555
C10_6 C14_6 1_555 1_555
C11_6 C9_6 1_555 1_555
C13_6 C12_6 1_555 1_555
C14_6 C13_6 1_555 1_555
C15_6 O14_6 1_555 1_555
C16_6 C11_6 1_555 1_555
H10_6 C16_6 1_555 1_555
O17_4 In1_8 1_555 1_555
O10_4 In3_3 1_555 1_555
C11_6 C12_6 1_555 1_555
C14_6 C15_6 1_555 1_555
C15_6 C16_6 1_555 1_555
O3_6 In1_9 1_555 1_555
O4_4 C1_6 1_555 1_555
O21_4 C2_6 1_555 1_555
O8_6 H4_6 1_555 1_555
C1_6 O3_6 1_555 1_555
C2_6 O19_3 1_555 1_555
C3_6 C1_6 1_555 1_555
C5_6 C4_6 1_555 1_555
C6_6 C2_6 1_555 1_555
C7_6 O8_6 1_555 1_555
C8_6 C3_6 1_555 1_555
H6_6 C8_6 1_555 1_555
In3_4 O4_4 1_555 1_555
O18_4 In1_9 1_555 1_555
C3_6 C4_6 1_555 1_555
C5_6 C6_6 1_555 1_555
C6_6 C7_6 1_555 1_555
C7_6 C8_6 1_555 1_555
In1_10 O1_4 1_555 1_555
O1_4 H1_6 1_555 1_555
O7_6 H3_6 1_555 1_555
In3_4 O1_4 1_555 1_555
O15_4 H1_7 1_555 1_555
O15_3 H1_8 1_555 1_555
O8_7 H4_7 1_555 1_555
O3_7 In3_3 1_555 1_555
O17_4 C1_7 1_555 1_555
O21_7 C2_7 1_555 1_555
O7_7 H3_7 1_555 1_555
C1_7 O3_7 1_555 1_555
C2_7 O19_8 1_555 1_555
C3_7 C1_7 1_555 1_555
C4_7 O7_7 1_555 1_555
C5_7 C4_7 1_555 1_555
H5_7 C5_7 1_555 1_555
C6_7 C2_7 1_555 1_555
C8_7 C3_7 1_555 1_555
C3_7 C4_7 1_555 1_555
C5_7 C6_7 1_555 1_555
C6_7 C7_7 1_555 1_555
C7_7 C8_7 1_555 1_555
O9_7 In3_4 1_555 1_555
O18_4 C9_7 1_555 1_555
O19_5 C10_7 1_555 1_555
O21_6 C10_7 1_555 1_555
O13_7 H7_7 1_555 1_555
C9_7 O9_7 1_555 1_555
C10_7 C14_7 1_555 1_555
C11_7 C9_7 1_555 1_555
C12_7 O13_7 1_555 1_555
C13_7 C12_7 1_555 1_555
H9_7 C13_7 1_555 1_555
C14_7 C13_7 1_555 1_555
C16_7 C11_7 1_555 1_555
C11_7 C12_7 1_555 1_555
C14_7 C15_7 1_555 1_555
C15_7 C16_7 1_555 1_555
O14_7 H8_7 1_555 1_555
O3_8 In3 1_555 1_555
O17_3 C1_8 1_555 1_555
O21_8 C2_8 1_555 1_555
O8_8 H4_8 1_555 1_555
C1_8 O3_8 1_555 1_555
C2_8 O19_7 1_555 1_555
C3_8 C1_8 1_555 1_555
C5_8 C4_8 1_555 1_555
C6_8 C2_8 1_555 1_555
C7_8 O8_8 1_555 1_555
C8_8 C3_8 1_555 1_555
H6_8 C8_8 1_555 1_555
O13_8 H7_8 1_555 1_555
C3_8 C4_8 1_555 1_555
C5_8 C6_8 1_555 1_555
C6_8 C7_8 1_555 1_555
C7_8 C8_8 1_555 1_555
O7_8 H3_8 1_555 1_555
O9_8 In3_2 1_555 1_555
O18_3 C9_8 1_555 1_555
O19_6 C10_8 1_555 1_555
O21_5 C10_8 1_555 1_555
O14_8 H8_8 1_555 1_555
C9_8 O9_8 1_555 1_555
C10_8 C14_8 1_555 1_555
C11_8 C9_8 1_555 1_555
C13_8 C12_8 1_555 1_555
C14_8 C13_8 1_555 1_555
C15_8 O14_8 1_555 1_555
C16_8 C11_8 1_555 1_555
H10_8 C16_8 1_555 1_555
C11_8 C12_8 1_555 1_555
C14_8 C15_8 1_555 1_555
C15_8 C16_8 1_555 1_555

#END
