
###############################################################################
#
# This file contains modified crystal structure data generated from the
# MOF subset of the Cambridge Structural Database (CSD) v543 
# hosted by the Cambridge Crystallographic Data Centre (CCDC).
#
# This work is licensed under the Creative Commons
# Attribution-NonCommercial-ShareAlike 4.0 International License.
# To view a copy of this license, visit
# http://creativecommons.org/licenses/by-nc-sa/4.0/
# or send a letter to
# Creative Commons, PO Box 1866, Mountain View, CA 94042, USA.
#
# CIF created using the CSD Python API on 29 September 2022
# The structure has been converted into the P1 space group
# The structure has a 3D framework
# The original CSD entry FOCLUH is in the tetragonal crystal system
# The framework has been calculated to contain at least 10.0% void space
# The void calculation uses a probe of radius 1.32A, grid spacing 0.4
#
###############################################################################

data_FOCLUH
_chemical_formula_moiety         '(C576 H384 N64 O120 Zn24)n'
_symmetry_cell_setting           triclinic
_symmetry_space_group_name_H-M   'P 1'
_symmetry_Int_Tables_number      1
_space_group_name_Hall           'P 1'
loop_
_symmetry_equiv_pos_site_id
_symmetry_equiv_pos_as_xyz
1 x,y,z
_cell_length_a                   18.535(2)
_cell_length_b                   18.535(2)
_cell_length_c                   43.097(5)
_cell_angle_alpha                90
_cell_angle_beta                 90
_cell_angle_gamma                90
_cell_volume                     14805.8
loop_
_atom_site_label
_atom_site_type_symbol
_atom_site_fract_x
_atom_site_fract_y
_atom_site_fract_z
Zn1 Zn 0.08847(2) 0.70068(2) 0.75195(2)
N1 N 0.08840(16) 0.40587(15) 0.53478(6)
N2 N 0.11827(16) 0.50130(14) 0.56142(6)
O1 O 0.06646(17) 0.66237(18) 0.71078(6)
O2 O 0.18100(19) 0.6814(2) 0.71078(7)
O3 O 0.41279(13) 0.75151(13) 0.52337(6)
O4 O 0.44508(12) 0.64496(14) 0.50483(5)
C1 C 0.1262(2) 0.66042(18) 0.69785(8)
C2 C 0.1278(2) 0.63355(18) 0.66473(7)
C3 C 0.0655(2) 0.6267(3) 0.64754(10)
H1 H 0.0211 0.6349 0.6570
C4 C 0.0673(2) 0.6079(3) 0.61646(9)
H2 H 0.0245 0.6037 0.6054
C5 C 0.13140(18) 0.59535(17) 0.60195(7)
C6 C 0.1941(2) 0.6018(2) 0.61917(8)
H3 H 0.2383 0.5931 0.6097
C7 C 0.1924(2) 0.6213(2) 0.65052(8)
H4 H 0.2351 0.6258 0.6616
C8 C 0.40182(16) 0.68639(17) 0.51849(6)
C9 C 0.33267(16) 0.65586(16) 0.53012(6)
C10 C 0.27517(19) 0.70271(18) 0.53690(8)
H5 H 0.2809 0.7522 0.5342
C11 C 0.21079(19) 0.67623(18) 0.54748(8)
H6 H 0.1727 0.7077 0.5513
C12 C 0.20208(17) 0.60389(17) 0.55241(6)
C13 C 0.25796(19) 0.55665(17) 0.54519(8)
H7 H 0.2518 0.5073 0.5480
C14 C 0.32340(19) 0.58335(17) 0.53374(7)
H8 H 0.3605 0.5517 0.5286
C15 C 0.13223(18) 0.57887(17) 0.56714(7)
H9 H 0.0928 0.6062 0.5576
C16 C 0.1381(3) 0.4436(2) 0.57857(9)
H10 H 0.1602 0.4445 0.5979
C17 C 0.1199(3) 0.3848(2) 0.56224(9)
H11 H 0.1273 0.3374 0.5685
C18 C 0.08928(17) 0.47602(18) 0.53508(7)
H12 H 0.0720 0.5049 0.5191
Zn2 Zn 0.04932(2) 0.33847(2) 0.50195(2)
Zn3 Zn 0.45068(2) 0.83847(2) 0.50195(2)
Zn4 Zn 0.54932(2) 0.66153(2) 0.50195(2)
N3 N 0.15587(15) 0.66160(16) 0.78478(6)
O5 O 0.00151(13) 0.66279(13) 0.77337(6)
O6 O 0.10504(14) 0.80492(12) 0.75483(5)
Zn1_2 Zn 0.41153(2) 0.29932(2) 0.25195(2)
N1_2 N 0.41160(16) 0.59413(15) 0.03478(6)
N2_2 N 0.38173(16) 0.49870(14) 0.06142(6)
O1_2 O 0.43354(17) 0.33763(18) 0.21078(6)
O2_2 O 0.31900(19) 0.3186(2) 0.21078(7)
O3_2 O 0.08721(13) 0.24849(13) 0.02337(6)
O4_2 O 0.05492(12) 0.35504(14) 0.00483(5)
C1_2 C 0.3738(2) 0.33958(18) 0.19785(8)
C2_2 C 0.3722(2) 0.36645(18) 0.16473(7)
C3_2 C 0.4345(2) 0.3733(3) 0.14754(10)
H1_2 H 0.4789 0.3651 0.1570
C4_2 C 0.4327(2) 0.3921(3) 0.11646(9)
H2_2 H 0.4755 0.3963 0.1054
C5_2 C 0.36860(18) 0.40465(17) 0.10195(7)
C6_2 C 0.3059(2) 0.3982(2) 0.11917(8)
H3_2 H 0.2617 0.4069 0.1097
C7_2 C 0.3076(2) 0.3787(2) 0.15052(8)
H4_2 H 0.2649 0.3742 0.1616
C8_2 C 0.09818(16) 0.31361(17) 0.01849(6)
C9_2 C 0.16733(16) 0.34414(16) 0.03012(6)
C10_2 C 0.22483(19) 0.29729(18) 0.03690(8)
H5_2 H 0.2191 0.2478 0.0342
C11_2 C 0.28921(19) 0.32377(18) 0.04748(8)
H6_2 H 0.3273 0.2923 0.0513
C12_2 C 0.29792(17) 0.39611(17) 0.05241(6)
C13_2 C 0.24204(19) 0.44335(17) 0.04519(8)
H7_2 H 0.2482 0.4927 0.0480
C14_2 C 0.17660(19) 0.41665(17) 0.03374(7)
H8_2 H 0.1395 0.4483 0.0286
C15_2 C 0.36777(18) 0.42113(17) 0.06714(7)
H9_2 H 0.4072 0.3938 0.0576
C16_2 C 0.3619(3) 0.5564(2) 0.07857(9)
H10_2 H 0.3398 0.5555 0.0979
C17_2 C 0.3801(3) 0.6152(2) 0.06224(9)
H11_2 H 0.3727 0.6626 0.0685
C18_2 C 0.41072(17) 0.52398(18) 0.03508(7)
H12_2 H 0.4280 0.4951 0.0191
Zn2_2 Zn 0.45068(2) 0.66153(2) 0.00195(2)
Zn3_2 Zn 0.04932(2) 0.16153(2) 0.00195(2)
N3_2 N 0.34413(15) 0.33840(16) 0.28478(6)
O5_2 O 0.49849(13) 0.33721(13) 0.27337(6)
O6_2 O 0.39496(14) 0.19508(12) 0.25483(5)
Zn4_2 Zn 0.95068(2) 0.33847(2) 0.00195(2)
O3_3 O 0.49849(13) 0.16279(13) 0.77337(6)
O4_3 O 0.60504(14) 0.19508(12) 0.75483(5)
C8_3 C 0.56361(17) 0.15182(16) 0.76849(6)
C9_3 C 0.59414(16) 0.08267(16) 0.78012(6)
C10_3 C 0.54729(18) 0.02517(19) 0.78690(8)
H5_3 H 0.4978 0.0309 0.7842
C13_3 C 0.69335(17) 0.00796(19) 0.79519(8)
H7_3 H 0.7427 0.0018 0.7980
C14_3 C 0.66665(17) 0.07340(19) 0.78374(7)
H8_3 H 0.6983 0.1105 0.7786
Zn3_3 Zn 0.41153(2) 0.20068(2) 0.75195(2)
Zn4_3 Zn 0.58847(2) 0.29932(2) 0.75195(2)
Zn1_3 Zn 0.54932(2) 0.83847(2) 0.00195(2)
N3_3 N 0.58840(16) 0.90587(15) 0.03478(6)
O5_3 O 0.58721(13) 0.75151(13) 0.02337(6)
O6_3 O 0.44508(12) 0.85504(14) 0.00483(5)
N1_3 N 0.84413(15) 0.83840(16) 0.78478(6)
N2_3 N 0.74870(14) 0.86827(16) 0.81142(6)
O1_3 O 0.58763(18) 0.81646(17) 0.96078(6)
O2_3 O 0.5686(2) 0.93100(19) 0.96078(7)
C1_3 C 0.58958(18) 0.8762(2) 0.94785(8)
C2_3 C 0.61645(18) 0.8778(2) 0.91473(7)
C3_3 C 0.6233(3) 0.8155(2) 0.89754(10)
H1_3 H 0.6151 0.7711 0.9070
C4_3 C 0.6421(3) 0.8173(2) 0.86646(9)
H2_3 H 0.6463 0.7745 0.8554
C5_3 C 0.65465(17) 0.88140(18) 0.85195(7)
C6_3 C 0.6482(2) 0.9441(2) 0.86917(8)
H3_3 H 0.6569 0.9883 0.8597
C7_3 C 0.6287(2) 0.9424(2) 0.90052(8)
H4_3 H 0.6242 0.9851 0.9116
C11_3 C 0.57377(18) 0.96079(19) 0.79748(8)
H6_3 H 0.5423 0.9227 0.8013
C12_3 C 0.64611(17) 0.95208(17) 0.80241(6)
C15_3 C 0.67113(17) 0.88223(18) 0.81714(7)
H9_3 H 0.6438 0.8428 0.8076
C16_3 C 0.8064(2) 0.8881(3) 0.82857(9)
H10_3 H 0.8055 0.9102 0.8479
C17_3 C 0.8652(2) 0.8699(3) 0.81224(9)
H11_3 H 0.9126 0.8773 0.8185
C18_3 C 0.77398(18) 0.83928(17) 0.78508(7)
H12_3 H 0.7451 0.8220 0.7691
Zn2_3 Zn 0.91153(2) 0.79932(2) 0.75195(2)
O6_4 O 0.05492(12) 0.14496(14) 0.50483(5)
O3_4 O 0.00151(13) 0.83721(13) 0.27337(6)
H5_4 H 0.0022 0.9691 0.2842
Zn3_4 Zn 0.08847(2) 0.79932(2) 0.25195(2)
Zn1_4 Zn 0.95068(2) 0.16153(2) 0.50195(2)
N1_4 N 0.65587(15) 0.16160(16) 0.28478(6)
N2_4 N 0.75130(14) 0.13173(16) 0.31142(6)
O1_4 O 0.91237(18) 0.18354(17) 0.46078(6)
O2_4 O 0.9314(2) 0.06900(19) 0.46078(7)
C1_4 C 0.91042(18) 0.1238(2) 0.44785(8)
C2_4 C 0.88355(18) 0.1222(2) 0.41473(7)
C3_4 C 0.8767(3) 0.1845(2) 0.39754(10)
H1_4 H 0.8849 0.2289 0.4070
C4_4 C 0.8579(3) 0.1827(2) 0.36646(9)
H2_4 H 0.8537 0.2255 0.3554
C5_4 C 0.84535(17) 0.11860(18) 0.35195(7)
C6_4 C 0.8518(2) 0.0559(2) 0.36917(8)
H3_4 H 0.8431 0.0117 0.3597
C7_4 C 0.8713(2) 0.0576(2) 0.40052(8)
H4_4 H 0.8758 0.0149 0.4116
C11_4 C 0.92623(18) 0.03921(19) 0.29748(8)
H6_4 H 0.9577 0.0773 0.3013
C12_4 C 0.85389(17) 0.04792(17) 0.30241(6)
C15_4 C 0.82887(17) 0.11777(18) 0.31714(7)
H9_4 H 0.8562 0.1572 0.3076
C16_4 C 0.6936(2) 0.1119(3) 0.32857(9)
H10_4 H 0.6945 0.0898 0.3479
C17_4 C 0.6348(2) 0.1301(3) 0.31224(9)
H11_4 H 0.5874 0.1227 0.3185
C18_4 C 0.72602(18) 0.16072(17) 0.28508(7)
H12_4 H 0.7549 0.1780 0.2691
Zn2_4 Zn 0.58847(2) 0.20068(2) 0.25195(2)
N3_4 N 0.91160(16) 0.09413(15) 0.53478(6)
O5_4 O 0.91279(13) 0.24849(13) 0.52337(6)
O4_4 O 0.89496(14) 0.80492(12) 0.25483(5)
C8_4 C 0.93639(17) 0.84818(16) 0.26849(6)
C9_4 C 0.90586(16) 0.91733(16) 0.28012(6)
C10_4 C 0.95271(18) 0.97483(19) 0.28690(8)
C13_4 C 0.80665(17) 0.99204(19) 0.29519(8)
H7_4 H 0.7573 0.9982 0.2980
C14_4 C 0.83335(17) 0.92660(19) 0.28374(7)
H8_4 H 0.8017 0.8895 0.2786
Zn4_4 Zn 0.91153(2) 0.70068(2) 0.25195(2)
N2_5 N 0.61827(16) 0.00130(14) 0.06142(6)
O1_5 O 0.56646(17) 0.16237(18) 0.21078(6)
O2_5 O 0.68100(19) 0.1814(2) 0.21078(7)
O3_5 O 0.91279(13) 0.25151(13) 0.02337(6)
O4_5 O 0.94508(12) 0.14496(14) 0.00483(5)
C1_5 C 0.6262(2) 0.16042(18) 0.19785(8)
C2_5 C 0.6278(2) 0.13355(18) 0.16473(7)
C3_5 C 0.5655(2) 0.1267(3) 0.14754(10)
H1_5 H 0.5211 0.1349 0.1570
C4_5 C 0.5673(2) 0.1079(3) 0.11646(9)
H2_5 H 0.5245 0.1037 0.1054
C5_5 C 0.63140(18) 0.09535(17) 0.10195(7)
C6_5 C 0.6941(2) 0.1018(2) 0.11917(8)
H3_5 H 0.7383 0.0931 0.1097
C7_5 C 0.6924(2) 0.1213(2) 0.15052(8)
H4_5 H 0.7351 0.1258 0.1616
C8_5 C 0.90182(16) 0.18639(17) 0.01849(6)
C9_5 C 0.83267(16) 0.15586(16) 0.03012(6)
C10_5 C 0.77517(19) 0.20271(18) 0.03690(8)
H5_5 H 0.7809 0.2522 0.0342
C11_5 C 0.71079(19) 0.17623(18) 0.04748(8)
H6_5 H 0.6727 0.2077 0.0513
C12_5 C 0.70208(17) 0.10389(17) 0.05241(6)
C13_5 C 0.75796(19) 0.05665(17) 0.04519(8)
H7_5 H 0.7518 0.0073 0.0480
C14_5 C 0.82340(19) 0.08335(17) 0.03374(7)
H8_5 H 0.8605 0.0517 0.0286
C15_5 C 0.63223(18) 0.07887(17) 0.06714(7)
H9_5 H 0.5928 0.1062 0.0576
H12_5 H 0.5720 0.0049 0.0191
O5_5 O 0.50151(13) 0.16279(13) 0.27337(6)
O6_5 O 0.60504(14) 0.30492(12) 0.25483(5)
C16_5 C 0.6381(3) 0.9436(2) 0.07857(9)
H10_5 H 0.6602 0.9445 0.0979
C17_5 C 0.6199(3) 0.8848(2) 0.06224(9)
H11_5 H 0.6273 0.8374 0.0685
C18_5 C 0.58928(17) 0.97602(18) 0.03508(7)
C16_6 C 0.8619(3) 0.0564(2) 0.57857(9)
H10_6 H 0.8398 0.0555 0.5979
C17_6 C 0.8801(3) 0.1152(2) 0.56224(9)
H11_6 H 0.8727 0.1626 0.5685
C18_6 C 0.91072(17) 0.02398(18) 0.53508(7)
N2_6 N 0.88173(16) 0.99870(14) 0.56142(6)
O1_6 O 0.93354(17) 0.83763(18) 0.71078(6)
O2_6 O 0.81900(19) 0.8186(2) 0.71078(7)
O3_6 O 0.58721(13) 0.74849(13) 0.52337(6)
O4_6 O 0.55492(12) 0.85504(14) 0.50483(5)
C1_6 C 0.8738(2) 0.83958(18) 0.69785(8)
C2_6 C 0.8722(2) 0.86645(18) 0.66473(7)
C3_6 C 0.9345(2) 0.8733(3) 0.64754(10)
H1_6 H 0.9789 0.8651 0.6570
C4_6 C 0.9327(2) 0.8921(3) 0.61646(9)
H2_6 H 0.9755 0.8963 0.6054
C5_6 C 0.86860(18) 0.90465(17) 0.60195(7)
C6_6 C 0.8059(2) 0.8982(2) 0.61917(8)
H3_6 H 0.7617 0.9069 0.6097
C7_6 C 0.8076(2) 0.8787(2) 0.65052(8)
H4_6 H 0.7649 0.8742 0.6616
C8_6 C 0.59818(16) 0.81361(17) 0.51849(6)
C9_6 C 0.66733(16) 0.84414(16) 0.53012(6)
C10_6 C 0.72483(19) 0.79729(18) 0.53690(8)
H5_6 H 0.7191 0.7478 0.5342
C11_6 C 0.78921(19) 0.82377(18) 0.54748(8)
H6_6 H 0.8273 0.7923 0.5513
C12_6 C 0.79792(17) 0.89611(17) 0.55241(6)
C13_6 C 0.74204(19) 0.94335(17) 0.54519(8)
H7_6 H 0.7482 0.9927 0.5480
C14_6 C 0.67660(19) 0.91665(17) 0.53374(7)
H8_6 H 0.6395 0.9483 0.5286
C15_6 C 0.86777(18) 0.92113(17) 0.56714(7)
H9_6 H 0.9072 0.8938 0.5576
H12_6 H 0.9280 0.9951 0.5191
O5_6 O 0.99849(13) 0.83721(13) 0.77337(6)
O6_6 O 0.89496(14) 0.69508(12) 0.75483(5)
N2_7 N 0.24870(14) 0.36827(16) 0.31142(6)
O1_7 O 0.08763(18) 0.31646(17) 0.46078(6)
O2_7 O 0.0686(2) 0.43100(19) 0.46078(7)
O4_7 O 0.10504(14) 0.69508(12) 0.25483(5)
C1_7 C 0.08958(18) 0.3762(2) 0.44785(8)
C2_7 C 0.11645(18) 0.3778(2) 0.41473(7)
C3_7 C 0.1233(3) 0.3155(2) 0.39754(10)
H1_7 H 0.1151 0.2711 0.4070
C4_7 C 0.1421(3) 0.3173(2) 0.36646(9)
H2_7 H 0.1463 0.2745 0.3554
C5_7 C 0.15465(17) 0.38140(18) 0.35195(7)
C6_7 C 0.1482(2) 0.4441(2) 0.36917(8)
H3_7 H 0.1569 0.4883 0.3597
C7_7 C 0.1287(2) 0.4424(2) 0.40052(8)
H4_7 H 0.1242 0.4851 0.4116
C8_7 C 0.06361(17) 0.65182(16) 0.26849(6)
C9_7 C 0.09414(16) 0.58267(16) 0.28012(6)
C10_7 C 0.04729(18) 0.52517(19) 0.28690(8)
C11_7 C 0.07377(18) 0.46079(19) 0.29748(8)
H6_7 H 0.0423 0.4227 0.3013
C12_7 C 0.14611(17) 0.45208(17) 0.30241(6)
C13_7 C 0.19335(17) 0.50796(19) 0.29519(8)
H7_7 H 0.2427 0.5018 0.2980
C14_7 C 0.16665(17) 0.57340(19) 0.28374(7)
H8_7 H 0.1983 0.6105 0.2786
C15_7 C 0.17113(17) 0.38223(18) 0.31714(7)
H9_7 H 0.1438 0.3428 0.3076
C16_7 C 0.3064(2) 0.3881(3) 0.32857(9)
H10_7 H 0.3055 0.4102 0.3479
C17_7 C 0.3652(2) 0.3699(3) 0.31224(9)
H11_7 H 0.4126 0.3773 0.3185
C18_7 C 0.27398(18) 0.33928(17) 0.28508(7)
H12_7 H 0.2451 0.3220 0.2691
O5_7 O 0.08721(13) 0.25151(13) 0.52337(6)
O3_7 O 0.99849(13) 0.66279(13) 0.27337(6)
H5_7 H 0.9978 0.5309 0.2842
O6_7 O 0.94508(12) 0.35504(14) 0.50483(5)
O5_8 O 0.41279(13) 0.74849(13) 0.02337(6)
O6_8 O 0.55492(12) 0.64496(14) 0.00483(5)
N2_8 N 0.25130(14) 0.63173(16) 0.81142(6)
O1_8 O 0.41237(18) 0.68354(17) 0.96078(6)
O2_8 O 0.4314(2) 0.56900(19) 0.96078(7)
O3_8 O 0.50151(13) 0.33721(13) 0.77337(6)
O4_8 O 0.39496(14) 0.30492(12) 0.75483(5)
C1_8 C 0.41042(18) 0.6238(2) 0.94785(8)
C2_8 C 0.38355(18) 0.6222(2) 0.91473(7)
C3_8 C 0.3767(3) 0.6845(2) 0.89754(10)
H1_8 H 0.3849 0.7289 0.9070
C4_8 C 0.3579(3) 0.6827(2) 0.86646(9)
H2_8 H 0.3537 0.7255 0.8554
C5_8 C 0.34535(17) 0.61860(18) 0.85195(7)
C6_8 C 0.3518(2) 0.5559(2) 0.86917(8)
H3_8 H 0.3431 0.5117 0.8597
C7_8 C 0.3713(2) 0.5576(2) 0.90052(8)
H4_8 H 0.3758 0.5149 0.9116
C8_8 C 0.43639(17) 0.34818(16) 0.76849(6)
C9_8 C 0.40586(16) 0.41733(16) 0.78012(6)
C10_8 C 0.45271(18) 0.47483(19) 0.78690(8)
H5_8 H 0.5022 0.4691 0.7842
C11_8 C 0.42623(18) 0.53921(19) 0.79748(8)
H6_8 H 0.4577 0.5773 0.8013
C12_8 C 0.35389(17) 0.54792(17) 0.80241(6)
C13_8 C 0.30665(17) 0.49204(19) 0.79519(8)
H7_8 H 0.2573 0.4982 0.7980
C14_8 C 0.33335(17) 0.42660(19) 0.78374(7)
H8_8 H 0.3017 0.3895 0.7786
C15_8 C 0.32887(17) 0.61777(18) 0.81714(7)
H9_8 H 0.3562 0.6572 0.8076
C16_8 C 0.1936(2) 0.6119(3) 0.82857(9)
H10_8 H 0.1945 0.5898 0.8479
C17_8 C 0.1348(2) 0.6301(3) 0.81224(9)
H11_8 H 0.0874 0.6227 0.8185
C18_8 C 0.22602(18) 0.66072(17) 0.78508(7)
H12_8 H 0.2549 0.6780 0.7691
N1_5 N 0.58840(16) 0.59413(15) 0.53478(6)
N2_9 N 0.61827(16) 0.49870(14) 0.56142(6)
O1_9 O 0.56646(17) 0.33763(18) 0.71078(6)
O2_9 O 0.68100(19) 0.3186(2) 0.71078(7)
C1_9 C 0.6262(2) 0.33958(18) 0.69785(8)
C2_9 C 0.6278(2) 0.36645(18) 0.66473(7)
C3_9 C 0.5655(2) 0.3733(3) 0.64754(10)
H1_9 H 0.5211 0.3651 0.6570
C4_9 C 0.5673(2) 0.3921(3) 0.61646(9)
H2_9 H 0.5245 0.3963 0.6054
C5_9 C 0.63140(18) 0.40465(17) 0.60195(7)
C6_9 C 0.6941(2) 0.3982(2) 0.61917(8)
H3_9 H 0.7383 0.4069 0.6097
C7_9 C 0.6924(2) 0.3787(2) 0.65052(8)
H4_9 H 0.7351 0.3742 0.6616
C8_9 C 0.90182(16) 0.31361(17) 0.51849(6)
C9_9 C 0.83267(16) 0.34414(16) 0.53012(6)
C10_9 C 0.77517(19) 0.29729(18) 0.53690(8)
H5_9 H 0.7809 0.2478 0.5342
C11_9 C 0.71079(19) 0.32377(18) 0.54748(8)
H6_9 H 0.6727 0.2923 0.5513
C12_9 C 0.70208(17) 0.39611(17) 0.55241(6)
C13_9 C 0.75796(19) 0.44335(17) 0.54519(8)
H7_9 H 0.7518 0.4927 0.5480
C14_9 C 0.82340(19) 0.41665(17) 0.53374(7)
H8_9 H 0.8605 0.4483 0.5286
C15_9 C 0.63223(18) 0.42113(17) 0.56714(7)
H9_9 H 0.5928 0.3938 0.5576
C16_9 C 0.6381(3) 0.5564(2) 0.57857(9)
H10_9 H 0.6602 0.5555 0.5979
C17_9 C 0.6199(3) 0.6152(2) 0.56224(9)
H11_9 H 0.6273 0.6626 0.5685
C18_9 C 0.58928(17) 0.52398(18) 0.53508(7)
H12_9 H 0.5720 0.4951 0.5191
N3_5 N 0.65587(15) 0.33840(16) 0.78478(6)
N1_6 N 0.91160(16) 0.40587(15) 0.03478(6)
N2_10 N 0.88173(16) 0.50130(14) 0.06142(6)
O1_10 O 0.93354(17) 0.66237(18) 0.21078(6)
O2_10 O 0.81900(19) 0.6814(2) 0.21078(7)
C1_10 C 0.8738(2) 0.66042(18) 0.19785(8)
C2_10 C 0.8722(2) 0.63355(18) 0.16473(7)
C3_10 C 0.9345(2) 0.6267(3) 0.14754(10)
H1_10 H 0.9789 0.6349 0.1570
C4_10 C 0.9327(2) 0.6079(3) 0.11646(9)
H2_10 H 0.9755 0.6037 0.1054
C5_10 C 0.86860(18) 0.59535(17) 0.10195(7)
C6_10 C 0.8059(2) 0.6018(2) 0.11917(8)
H3_10 H 0.7617 0.5931 0.1097
C7_10 C 0.8076(2) 0.6213(2) 0.15052(8)
H4_10 H 0.7649 0.6258 0.1616
C8_10 C 0.59818(16) 0.68639(17) 0.01849(6)
C9_10 C 0.66733(16) 0.65586(16) 0.03012(6)
C10_10 C 0.72483(19) 0.70271(18) 0.03690(8)
H5_10 H 0.7191 0.7522 0.0342
C11_10 C 0.78921(19) 0.67623(18) 0.04748(8)
H6_10 H 0.8273 0.7077 0.0513
C12_10 C 0.79792(17) 0.60389(17) 0.05241(6)
C13_10 C 0.74204(19) 0.55665(17) 0.04519(8)
H7_10 H 0.7482 0.5073 0.0480
C14_10 C 0.67660(19) 0.58335(17) 0.03374(7)
H8_10 H 0.6395 0.5517 0.0286
C15_10 C 0.86777(18) 0.57887(17) 0.06714(7)
H9_10 H 0.9072 0.6062 0.0576
C16_10 C 0.8619(3) 0.4436(2) 0.07857(9)
H10_10 H 0.8398 0.4445 0.0979
C17_10 C 0.8801(3) 0.3848(2) 0.06224(9)
H11_10 H 0.8727 0.3374 0.0685
C18_10 C 0.91072(17) 0.47602(18) 0.03508(7)
H12_10 H 0.9280 0.5049 0.0191
N3_6 N 0.84413(15) 0.66160(16) 0.28478(6)
N3_7 N 0.08840(16) 0.09413(15) 0.03478(6)
N1_7 N 0.34413(15) 0.16160(16) 0.78478(6)
N2_11 N 0.24870(14) 0.13173(16) 0.81142(6)
O1_11 O 0.08763(18) 0.18354(17) 0.96078(6)
O2_11 O 0.0686(2) 0.06900(19) 0.96078(7)
C1_11 C 0.08958(18) 0.1238(2) 0.94785(8)
C2_11 C 0.11645(18) 0.1222(2) 0.91473(7)
C3_11 C 0.1233(3) 0.1845(2) 0.89754(10)
H1_11 H 0.1151 0.2289 0.9070
C4_11 C 0.1421(3) 0.1827(2) 0.86646(9)
H2_11 H 0.1463 0.2255 0.8554
C5_11 C 0.15465(17) 0.11860(18) 0.85195(7)
C6_11 C 0.1482(2) 0.0559(2) 0.86917(8)
H3_11 H 0.1569 0.0117 0.8597
C7_11 C 0.1287(2) 0.0576(2) 0.90052(8)
H4_11 H 0.1242 0.0149 0.9116
C11_11 C 0.07377(18) 0.03921(19) 0.79748(8)
H6_11 H 0.0423 0.0773 0.8013
C12_11 C 0.14611(17) 0.04792(17) 0.80241(6)
C15_11 C 0.17113(17) 0.11777(18) 0.81714(7)
H9_11 H 0.1438 0.1572 0.8076
C16_11 C 0.3064(2) 0.1119(3) 0.82857(9)
H10_11 H 0.3055 0.0898 0.8479
C17_11 C 0.3652(2) 0.1301(3) 0.81224(9)
H11_11 H 0.4126 0.1227 0.8185
C18_11 C 0.27398(18) 0.16072(17) 0.78508(7)
H12_11 H 0.2451 0.1780 0.7691
C8_11 C 0.06361(17) 0.84818(16) 0.76849(6)
C9_11 C 0.09414(16) 0.91733(16) 0.78012(6)
C10_11 C 0.04729(18) 0.97483(19) 0.78690(8)
C13_11 C 0.19335(17) 0.99204(19) 0.79519(8)
H7_11 H 0.2427 0.9982 0.7980
C14_11 C 0.16665(17) 0.92660(19) 0.78374(7)
H8_11 H 0.1983 0.8895 0.7786
H5_11 H 0.9978 0.9691 0.7842
C8_12 C 0.43639(17) 0.15182(16) 0.26849(6)
C9_12 C 0.40586(16) 0.08267(16) 0.28012(6)
C10_12 C 0.45271(18) 0.02517(19) 0.28690(8)
H5_12 H 0.5022 0.0309 0.2842
C13_12 C 0.30665(17) 0.00796(19) 0.29519(8)
H7_12 H 0.2573 0.0018 0.2980
C14_12 C 0.33335(17) 0.07340(19) 0.28374(7)
H8_12 H 0.3017 0.1105 0.2786
N1_8 N 0.15587(15) 0.83840(16) 0.28478(6)
N2_12 N 0.25130(14) 0.86827(16) 0.31142(6)
O1_12 O 0.41237(18) 0.81646(17) 0.46078(6)
O2_12 O 0.4314(2) 0.93100(19) 0.46078(7)
C1_12 C 0.41042(18) 0.8762(2) 0.44785(8)
C2_12 C 0.38355(18) 0.8778(2) 0.41473(7)
C3_12 C 0.3767(3) 0.8155(2) 0.39754(10)
H1_12 H 0.3849 0.7711 0.4070
C4_12 C 0.3579(3) 0.8173(2) 0.36646(9)
H2_12 H 0.3537 0.7745 0.3554
C5_12 C 0.34535(17) 0.88140(18) 0.35195(7)
C6_12 C 0.3518(2) 0.9441(2) 0.36917(8)
H3_12 H 0.3431 0.9883 0.3597
C7_12 C 0.3713(2) 0.9424(2) 0.40052(8)
H4_12 H 0.3758 0.9851 0.4116
C11_12 C 0.42623(18) 0.96079(19) 0.29748(8)
H6_12 H 0.4577 0.9227 0.3013
C12_12 C 0.35389(17) 0.95208(17) 0.30241(6)
C15_12 C 0.32887(17) 0.88223(18) 0.31714(7)
H9_12 H 0.3562 0.8428 0.3076
C16_12 C 0.1936(2) 0.8881(3) 0.32857(9)
H10_12 H 0.1945 0.9102 0.3479
C17_12 C 0.1348(2) 0.8699(3) 0.31224(9)
H11_12 H 0.0874 0.8773 0.3185
C18_12 C 0.22602(18) 0.83928(17) 0.28508(7)
H12_12 H 0.2549 0.8220 0.2691
N3_8 N 0.41160(16) 0.90587(15) 0.53478(6)
C16_13 C 0.1381(3) 0.0564(2) 0.07857(9)
H10_13 H 0.1602 0.0555 0.0979
C17_13 C 0.1199(3) 0.1152(2) 0.06224(9)
H11_13 H 0.1273 0.1626 0.0685
C18_13 C 0.08928(17) 0.02398(18) 0.03508(7)
N2_13 N 0.11827(16) 0.99870(14) 0.06142(6)
O1_13 O 0.06646(17) 0.83763(18) 0.21078(6)
O2_13 O 0.18100(19) 0.8186(2) 0.21078(7)
C1_13 C 0.1262(2) 0.83958(18) 0.19785(8)
C2_13 C 0.1278(2) 0.86645(18) 0.16473(7)
C3_13 C 0.0655(2) 0.8733(3) 0.14754(10)
H1_13 H 0.0211 0.8651 0.1570
C4_13 C 0.0673(2) 0.8921(3) 0.11646(9)
H2_13 H 0.0245 0.8963 0.1054
C5_13 C 0.13140(18) 0.90465(17) 0.10195(7)
C6_13 C 0.1941(2) 0.8982(2) 0.11917(8)
H3_13 H 0.2383 0.9069 0.1097
C7_13 C 0.1924(2) 0.8787(2) 0.15052(8)
H4_13 H 0.2351 0.8742 0.1616
C8_13 C 0.40182(16) 0.81361(17) 0.01849(6)
C9_13 C 0.33267(16) 0.84414(16) 0.03012(6)
C10_13 C 0.27517(19) 0.79729(18) 0.03690(8)
H5_13 H 0.2809 0.7478 0.0342
C11_13 C 0.21079(19) 0.82377(18) 0.04748(8)
H6_13 H 0.1727 0.7923 0.0513
C12_13 C 0.20208(17) 0.89611(17) 0.05241(6)
C13_13 C 0.25796(19) 0.94335(17) 0.04519(8)
H7_13 H 0.2518 0.9927 0.0480
C14_13 C 0.32340(19) 0.91665(17) 0.03374(7)
H8_13 H 0.3605 0.9483 0.0286
C15_13 C 0.13223(18) 0.92113(17) 0.06714(7)
H9_13 H 0.0928 0.8938 0.0576
H12_13 H 0.0720 0.9951 0.0191
N2_14 N 0.38173(16) 0.00130(14) 0.56142(6)
O1_14 O 0.43354(17) 0.16237(18) 0.71078(6)
O2_14 O 0.31900(19) 0.1814(2) 0.71078(7)
C1_14 C 0.3738(2) 0.16042(18) 0.69785(8)
C2_14 C 0.3722(2) 0.13355(18) 0.66473(7)
C3_14 C 0.4345(2) 0.1267(3) 0.64754(10)
H1_14 H 0.4789 0.1349 0.6570
C4_14 C 0.4327(2) 0.1079(3) 0.61646(9)
H2_14 H 0.4755 0.1037 0.6054
C5_14 C 0.36860(18) 0.09535(17) 0.60195(7)
C6_14 C 0.3059(2) 0.1018(2) 0.61917(8)
H3_14 H 0.2617 0.0931 0.6097
C7_14 C 0.3076(2) 0.1213(2) 0.65052(8)
H4_14 H 0.2649 0.1258 0.6616
C8_14 C 0.09818(16) 0.18639(17) 0.51849(6)
C9_14 C 0.16733(16) 0.15586(16) 0.53012(6)
C10_14 C 0.22483(19) 0.20271(18) 0.53690(8)
H5_14 H 0.2191 0.2522 0.5342
C11_14 C 0.28921(19) 0.17623(18) 0.54748(8)
H6_14 H 0.3273 0.2077 0.5513
C12_14 C 0.29792(17) 0.10389(17) 0.55241(6)
C13_14 C 0.24204(19) 0.05665(17) 0.54519(8)
H7_14 H 0.2482 0.0073 0.5480
C14_14 C 0.17660(19) 0.08335(17) 0.53374(7)
H8_14 H 0.1395 0.0517 0.5286
C15_14 C 0.36777(18) 0.07887(17) 0.56714(7)
H9_14 H 0.4072 0.1062 0.5576
H12_14 H 0.4280 0.0049 0.5191
C16_14 C 0.3619(3) 0.9436(2) 0.57857(9)
H10_14 H 0.3398 0.9445 0.5979
C17_14 C 0.3801(3) 0.8848(2) 0.56224(9)
H11_14 H 0.3727 0.8374 0.5685
C18_14 C 0.41072(17) 0.97602(18) 0.53508(7)
N2_15 N 0.74870(14) 0.63173(16) 0.31142(6)
O1_15 O 0.58763(18) 0.68354(17) 0.46078(6)
O2_15 O 0.5686(2) 0.56900(19) 0.46078(7)
C1_15 C 0.58958(18) 0.6238(2) 0.44785(8)
C2_15 C 0.61645(18) 0.6222(2) 0.41473(7)
C3_15 C 0.6233(3) 0.6845(2) 0.39754(10)
H1_15 H 0.6151 0.7289 0.4070
C4_15 C 0.6421(3) 0.6827(2) 0.36646(9)
H2_15 H 0.6463 0.7255 0.3554
C5_15 C 0.65465(17) 0.61860(18) 0.35195(7)
C6_15 C 0.6482(2) 0.5559(2) 0.36917(8)
H3_15 H 0.6569 0.5117 0.3597
C7_15 C 0.6287(2) 0.5576(2) 0.40052(8)
H4_15 H 0.6242 0.5149 0.4116
C8_15 C 0.56361(17) 0.34818(16) 0.26849(6)
C9_15 C 0.59414(16) 0.41733(16) 0.28012(6)
C10_15 C 0.54729(18) 0.47483(19) 0.28690(8)
H5_15 H 0.4978 0.4691 0.2842
C11_15 C 0.57377(18) 0.53921(19) 0.29748(8)
H6_15 H 0.5423 0.5773 0.3013
C12_15 C 0.64611(17) 0.54792(17) 0.30241(6)
C13_15 C 0.69335(17) 0.49204(19) 0.29519(8)
H7_15 H 0.7427 0.4982 0.2980
C14_15 C 0.66665(17) 0.42660(19) 0.28374(7)
H8_15 H 0.6983 0.3895 0.2786
C15_15 C 0.67113(17) 0.61777(18) 0.31714(7)
H9_15 H 0.6438 0.6572 0.3076
C16_15 C 0.8064(2) 0.6119(3) 0.32857(9)
H10_15 H 0.8055 0.5898 0.3479
C17_15 C 0.8652(2) 0.6301(3) 0.31224(9)
H11_15 H 0.9126 0.6227 0.3185
C18_15 C 0.77398(18) 0.66072(17) 0.28508(7)
H12_15 H 0.7451 0.6780 0.2691
H5_16 H 0.0022 0.5309 0.7842
N2_16 N 0.75130(14) 0.36827(16) 0.81142(6)
O1_16 O 0.91237(18) 0.31646(17) 0.96078(6)
O2_16 O 0.9314(2) 0.43100(19) 0.96078(7)
C1_16 C 0.91042(18) 0.3762(2) 0.94785(8)
C2_16 C 0.88355(18) 0.3778(2) 0.91473(7)
C3_16 C 0.8767(3) 0.3155(2) 0.89754(10)
H1_16 H 0.8849 0.2711 0.9070
C4_16 C 0.8579(3) 0.3173(2) 0.86646(9)
H2_16 H 0.8537 0.2745 0.8554
C5_16 C 0.84535(17) 0.38140(18) 0.85195(7)
C6_16 C 0.8518(2) 0.4441(2) 0.86917(8)
H3_16 H 0.8431 0.4883 0.8597
C7_16 C 0.8713(2) 0.4424(2) 0.90052(8)
H4_16 H 0.8758 0.4851 0.9116
C8_16 C 0.93639(17) 0.65182(16) 0.76849(6)
C9_16 C 0.90586(16) 0.58267(16) 0.78012(6)
C10_16 C 0.95271(18) 0.52517(19) 0.78690(8)
C11_16 C 0.92623(18) 0.46079(19) 0.79748(8)
H6_16 H 0.9577 0.4227 0.8013
C12_16 C 0.85389(17) 0.45208(17) 0.80241(6)
C13_16 C 0.80665(17) 0.50796(19) 0.79519(8)
H7_16 H 0.7573 0.5018 0.7980
C14_16 C 0.83335(17) 0.57340(19) 0.78374(7)
H8_16 H 0.8017 0.6105 0.7786
C15_16 C 0.82887(17) 0.38223(18) 0.81714(7)
H9_16 H 0.8562 0.3428 0.8076
C16_16 C 0.6936(2) 0.3881(3) 0.82857(9)
H10_16 H 0.6945 0.4102 0.8479
C17_16 C 0.6348(2) 0.3699(3) 0.81224(9)
H11_16 H 0.5874 0.3773 0.8185
C18_16 C 0.72602(18) 0.33928(17) 0.78508(7)
H12_16 H 0.7549 0.3220 0.7691
Zn1_5 Zn 0.41153(2) 0.70068(2) 0.24805(2)
N1_9 N 0.41160(16) 0.40587(15) 0.46522(6)
N2_17 N 0.38173(16) 0.50130(14) 0.43858(6)
O1_17 O 0.43354(17) 0.66237(18) 0.28922(6)
O2_17 O 0.31900(19) 0.6814(2) 0.28922(7)
O3_9 O 0.08721(13) 0.75151(13) 0.47663(6)
O4_9 O 0.05492(12) 0.64496(14) 0.49517(5)
C1_17 C 0.3738(2) 0.66042(18) 0.30215(8)
C2_17 C 0.3722(2) 0.63355(18) 0.33527(7)
C3_17 C 0.4345(2) 0.6267(3) 0.35246(10)
H1_17 H 0.4789 0.6349 0.3430
C4_17 C 0.4327(2) 0.6079(3) 0.38354(9)
H2_17 H 0.4755 0.6037 0.3946
C5_17 C 0.36860(18) 0.59535(17) 0.39805(7)
C6_17 C 0.3059(2) 0.6018(2) 0.38083(8)
H3_17 H 0.2617 0.5931 0.3903
C7_17 C 0.3076(2) 0.6213(2) 0.34948(8)
H4_17 H 0.2649 0.6258 0.3384
C8_17 C 0.09818(16) 0.68639(17) 0.48151(6)
C9_17 C 0.16733(16) 0.65586(16) 0.46988(6)
C10_17 C 0.22483(19) 0.70271(18) 0.46310(8)
H5_17 H 0.2191 0.7522 0.4658
C11_17 C 0.28921(19) 0.67623(18) 0.45252(8)
H6_17 H 0.3273 0.7077 0.4487
C12_17 C 0.29792(17) 0.60389(17) 0.44759(6)
C13_17 C 0.24204(19) 0.55665(17) 0.45481(8)
H7_17 H 0.2482 0.5073 0.4520
C14_17 C 0.17660(19) 0.58335(17) 0.46626(7)
H8_17 H 0.1395 0.5517 0.4714
C15_17 C 0.36777(18) 0.57887(17) 0.43286(7)
H9_17 H 0.4072 0.6062 0.4424
C16_17 C 0.3619(3) 0.4436(2) 0.42143(9)
H10_17 H 0.3398 0.4445 0.4021
C17_17 C 0.3801(3) 0.3848(2) 0.43776(9)
H11_17 H 0.3727 0.3374 0.4315
C18_17 C 0.41072(17) 0.47602(18) 0.46492(7)
H12_17 H 0.4280 0.5049 0.4809
Zn2_5 Zn 0.45068(2) 0.33847(2) 0.49805(2)
Zn3_5 Zn 0.04932(2) 0.83847(2) 0.49805(2)
N3_9 N 0.34413(15) 0.66160(16) 0.21522(6)
O5_9 O 0.49849(13) 0.66279(13) 0.22663(6)
O6_9 O 0.39496(14) 0.80492(12) 0.24517(5)
Zn4_5 Zn 0.95068(2) 0.66153(2) 0.49805(2)
Zn1_6 Zn 0.08847(2) 0.29932(2) 0.74805(2)
N1_10 N 0.08840(16) 0.59413(15) 0.96522(6)
N2_18 N 0.11827(16) 0.49870(14) 0.93858(6)
O1_18 O 0.06646(17) 0.33763(18) 0.78922(6)
O2_18 O 0.18100(19) 0.3186(2) 0.78922(7)
O3_10 O 0.41279(13) 0.24849(13) 0.97663(6)
O4_10 O 0.44508(12) 0.35504(14) 0.99517(5)
C1_18 C 0.1262(2) 0.33958(18) 0.80215(8)
C2_18 C 0.1278(2) 0.36645(18) 0.83527(7)
C3_18 C 0.0655(2) 0.3733(3) 0.85246(10)
H1_18 H 0.0211 0.3651 0.8430
C4_18 C 0.0673(2) 0.3921(3) 0.88354(9)
H2_18 H 0.0245 0.3963 0.8946
C5_18 C 0.13140(18) 0.40465(17) 0.89805(7)
C6_18 C 0.1941(2) 0.3982(2) 0.88083(8)
H3_18 H 0.2383 0.4069 0.8903
C7_18 C 0.1924(2) 0.3787(2) 0.84948(8)
H4_18 H 0.2351 0.3742 0.8384
C8_18 C 0.40182(16) 0.31361(17) 0.98151(6)
C9_18 C 0.33267(16) 0.34414(16) 0.96988(6)
C10_18 C 0.27517(19) 0.29729(18) 0.96310(8)
H5_18 H 0.2809 0.2478 0.9658
C11_18 C 0.21079(19) 0.32377(18) 0.95252(8)
H6_18 H 0.1727 0.2923 0.9487
C12_18 C 0.20208(17) 0.39611(17) 0.94759(6)
C13_18 C 0.25796(19) 0.44335(17) 0.95481(8)
H7_18 H 0.2518 0.4927 0.9520
C14_18 C 0.32340(19) 0.41665(17) 0.96626(7)
H8_18 H 0.3605 0.4483 0.9714
C15_18 C 0.13223(18) 0.42113(17) 0.93286(7)
H9_18 H 0.0928 0.3938 0.9424
C16_18 C 0.1381(3) 0.5564(2) 0.92143(9)
H10_18 H 0.1602 0.5555 0.9021
C17_18 C 0.1199(3) 0.6152(2) 0.93776(9)
H11_18 H 0.1273 0.6626 0.9315
C18_18 C 0.08928(17) 0.52398(18) 0.96492(7)
H12_18 H 0.0720 0.4951 0.9809
Zn2_6 Zn 0.04932(2) 0.66153(2) 0.99805(2)
Zn3_6 Zn 0.45068(2) 0.16153(2) 0.99805(2)
Zn4_6 Zn 0.54932(2) 0.33847(2) 0.99805(2)
N3_10 N 0.15587(15) 0.33840(16) 0.71522(6)
O5_10 O 0.00151(13) 0.33721(13) 0.72663(6)
O6_10 O 0.10504(14) 0.19508(12) 0.74517(5)
O3_11 O 0.00151(13) 0.16279(13) 0.22663(6)
H5_19 H 0.0022 0.0309 0.2158
Zn3_7 Zn 0.08847(2) 0.20068(2) 0.24805(2)
O6_11 O 0.05492(12) 0.85504(14) 0.99517(5)
O4_11 O 0.89496(14) 0.19508(12) 0.24517(5)
C8_19 C 0.93639(17) 0.15182(16) 0.23151(6)
C9_19 C 0.90586(16) 0.08267(16) 0.21988(6)
C10_19 C 0.95271(18) 0.02517(19) 0.21310(8)
C13_19 C 0.80665(17) 0.00796(19) 0.20481(8)
H7_19 H 0.7573 0.0018 0.2020
C14_19 C 0.83335(17) 0.07340(19) 0.21626(7)
H8_19 H 0.8017 0.1105 0.2214
Zn4_7 Zn 0.91153(2) 0.29932(2) 0.24805(2)
N1_11 N 0.65587(15) 0.83840(16) 0.21522(6)
N2_19 N 0.75130(14) 0.86827(16) 0.18858(6)
O1_19 O 0.91237(18) 0.81646(17) 0.03922(6)
O2_19 O 0.9314(2) 0.93100(19) 0.03922(7)
C1_19 C 0.91042(18) 0.8762(2) 0.05215(8)
C2_19 C 0.88355(18) 0.8778(2) 0.08527(7)
C3_19 C 0.8767(3) 0.8155(2) 0.10246(10)
H1_19 H 0.8849 0.7711 0.0930
C4_19 C 0.8579(3) 0.8173(2) 0.13354(9)
H2_19 H 0.8537 0.7745 0.1446
C5_19 C 0.84535(17) 0.88140(18) 0.14805(7)
C6_19 C 0.8518(2) 0.9441(2) 0.13083(8)
H3_19 H 0.8431 0.9883 0.1403
C7_19 C 0.8713(2) 0.9424(2) 0.09948(8)
H4_19 H 0.8758 0.9851 0.0884
C11_19 C 0.92623(18) 0.96079(19) 0.20252(8)
H6_19 H 0.9577 0.9227 0.1987
C12_19 C 0.85389(17) 0.95208(17) 0.19759(6)
C15_19 C 0.82887(17) 0.88223(18) 0.18286(7)
H9_19 H 0.8562 0.8428 0.1924
C16_19 C 0.6936(2) 0.8881(3) 0.17143(9)
H10_19 H 0.6945 0.9102 0.1521
C17_19 C 0.6348(2) 0.8699(3) 0.18776(9)
H11_19 H 0.5874 0.8773 0.1815
C18_19 C 0.72602(18) 0.83928(17) 0.21492(7)
H12_19 H 0.7549 0.8220 0.2309
Zn2_7 Zn 0.58847(2) 0.79932(2) 0.24805(2)
Zn1_7 Zn 0.95068(2) 0.83847(2) 0.99805(2)
N3_11 N 0.91160(16) 0.90587(15) 0.96522(6)
O5_11 O 0.91279(13) 0.75151(13) 0.97663(6)
Zn1_8 Zn 0.54932(2) 0.16153(2) 0.49805(2)
N1_12 N 0.84413(15) 0.16160(16) 0.71522(6)
N2_20 N 0.74870(14) 0.13173(16) 0.68858(6)
O1_20 O 0.58763(18) 0.18354(17) 0.53922(6)
O2_20 O 0.5686(2) 0.06900(19) 0.53922(7)
C1_20 C 0.58958(18) 0.1238(2) 0.55215(8)
C2_20 C 0.61645(18) 0.1222(2) 0.58527(7)
C3_20 C 0.6233(3) 0.1845(2) 0.60246(10)
H1_20 H 0.6151 0.2289 0.5930
C4_20 C 0.6421(3) 0.1827(2) 0.63354(9)
H2_20 H 0.6463 0.2255 0.6446
C5_20 C 0.65465(17) 0.11860(18) 0.64805(7)
C6_20 C 0.6482(2) 0.0559(2) 0.63083(8)
H3_20 H 0.6569 0.0117 0.6403
C7_20 C 0.6287(2) 0.0576(2) 0.59948(8)
H4_20 H 0.6242 0.0149 0.5884
C11_20 C 0.57377(18) 0.03921(19) 0.70252(8)
H6_20 H 0.5423 0.0773 0.6987
C12_20 C 0.64611(17) 0.04792(17) 0.69759(6)
C15_20 C 0.67113(17) 0.11777(18) 0.68286(7)
H9_20 H 0.6438 0.1572 0.6924
C16_20 C 0.8064(2) 0.1119(3) 0.67143(9)
H10_20 H 0.8055 0.0898 0.6521
C17_20 C 0.8652(2) 0.1301(3) 0.68776(9)
H11_20 H 0.9126 0.1227 0.6815
C18_20 C 0.77398(18) 0.16072(17) 0.71492(7)
H12_20 H 0.7451 0.1780 0.7309
Zn2_8 Zn 0.91153(2) 0.20068(2) 0.74805(2)
N3_12 N 0.58840(16) 0.09413(15) 0.46522(6)
O5_12 O 0.58721(13) 0.24849(13) 0.47663(6)
O6_12 O 0.44508(12) 0.14496(14) 0.49517(5)
O3_12 O 0.49849(13) 0.83721(13) 0.72663(6)
O4_12 O 0.60504(14) 0.80492(12) 0.74517(5)
C8_20 C 0.56361(17) 0.84818(16) 0.73151(6)
C9_20 C 0.59414(16) 0.91733(16) 0.71988(6)
C10_20 C 0.54729(18) 0.97483(19) 0.71310(8)
H5_20 H 0.4978 0.9691 0.7158
C13_20 C 0.69335(17) 0.99204(19) 0.70481(8)
H7_20 H 0.7427 0.9982 0.7020
C14_20 C 0.66665(17) 0.92660(19) 0.71626(7)
H8_20 H 0.6983 0.8895 0.7214
Zn3_8 Zn 0.41153(2) 0.79932(2) 0.74805(2)
Zn4_8 Zn 0.58847(2) 0.70068(2) 0.74805(2)
N2_21 N 0.88173(16) 0.00130(14) 0.93858(6)
O1_21 O 0.93354(17) 0.16237(18) 0.78922(6)
O2_21 O 0.81900(19) 0.1814(2) 0.78922(7)
O3_13 O 0.58721(13) 0.25151(13) 0.97663(6)
O4_13 O 0.55492(12) 0.14496(14) 0.99517(5)
C1_21 C 0.8738(2) 0.16042(18) 0.80215(8)
C2_21 C 0.8722(2) 0.13355(18) 0.83527(7)
C3_21 C 0.9345(2) 0.1267(3) 0.85246(10)
H1_21 H 0.9789 0.1349 0.8430
C4_21 C 0.9327(2) 0.1079(3) 0.88354(9)
H2_21 H 0.9755 0.1037 0.8946
C5_21 C 0.86860(18) 0.09535(17) 0.89805(7)
C6_21 C 0.8059(2) 0.1018(2) 0.88083(8)
H3_21 H 0.7617 0.0931 0.8903
C7_21 C 0.8076(2) 0.1213(2) 0.84948(8)
H4_21 H 0.7649 0.1258 0.8384
C8_21 C 0.59818(16) 0.18639(17) 0.98151(6)
C9_21 C 0.66733(16) 0.15586(16) 0.96988(6)
C10_21 C 0.72483(19) 0.20271(18) 0.96310(8)
H5_21 H 0.7191 0.2522 0.9658
C11_21 C 0.78921(19) 0.17623(18) 0.95252(8)
H6_21 H 0.8273 0.2077 0.9487
C12_21 C 0.79792(17) 0.10389(17) 0.94759(6)
C13_21 C 0.74204(19) 0.05665(17) 0.95481(8)
H7_21 H 0.7482 0.0073 0.9520
C14_21 C 0.67660(19) 0.08335(17) 0.96626(7)
H8_21 H 0.6395 0.0517 0.9714
C15_21 C 0.86777(18) 0.07887(17) 0.93286(7)
H9_21 H 0.9072 0.1062 0.9424
H12_21 H 0.9280 0.0049 0.9809
O5_13 O 0.99849(13) 0.16279(13) 0.72663(6)
O6_13 O 0.89496(14) 0.30492(12) 0.74517(5)
C16_21 C 0.8619(3) 0.9436(2) 0.92143(9)
H10_21 H 0.8398 0.9445 0.9021
C17_21 C 0.8801(3) 0.8848(2) 0.93776(9)
H11_21 H 0.8727 0.8374 0.9315
C18_21 C 0.91072(17) 0.97602(18) 0.96492(7)
C16_22 C 0.6381(3) 0.0564(2) 0.42143(9)
H10_22 H 0.6602 0.0555 0.4021
C17_22 C 0.6199(3) 0.1152(2) 0.43776(9)
H11_22 H 0.6273 0.1626 0.4315
C18_22 C 0.58928(17) 0.02398(18) 0.46492(7)
N2_22 N 0.61827(16) 0.99870(14) 0.43858(6)
O1_22 O 0.56646(17) 0.83763(18) 0.28922(6)
O2_22 O 0.68100(19) 0.8186(2) 0.28922(7)
O3_14 O 0.91279(13) 0.74849(13) 0.47663(6)
O4_14 O 0.94508(12) 0.85504(14) 0.49517(5)
C1_22 C 0.6262(2) 0.83958(18) 0.30215(8)
C2_22 C 0.6278(2) 0.86645(18) 0.33527(7)
C3_22 C 0.5655(2) 0.8733(3) 0.35246(10)
H1_22 H 0.5211 0.8651 0.3430
C4_22 C 0.5673(2) 0.8921(3) 0.38354(9)
H2_22 H 0.5245 0.8963 0.3946
C5_22 C 0.63140(18) 0.90465(17) 0.39805(7)
C6_22 C 0.6941(2) 0.8982(2) 0.38083(8)
H3_22 H 0.7383 0.9069 0.3903
C7_22 C 0.6924(2) 0.8787(2) 0.34948(8)
H4_22 H 0.7351 0.8742 0.3384
C8_22 C 0.90182(16) 0.81361(17) 0.48151(6)
C9_22 C 0.83267(16) 0.84414(16) 0.46988(6)
C10_22 C 0.77517(19) 0.79729(18) 0.46310(8)
H5_22 H 0.7809 0.7478 0.4658
C11_22 C 0.71079(19) 0.82377(18) 0.45252(8)
H6_22 H 0.6727 0.7923 0.4487
C12_22 C 0.70208(17) 0.89611(17) 0.44759(6)
C13_22 C 0.75796(19) 0.94335(17) 0.45481(8)
H7_22 H 0.7518 0.9927 0.4520
C14_22 C 0.82340(19) 0.91665(17) 0.46626(7)
H8_22 H 0.8605 0.9483 0.4714
C15_22 C 0.63223(18) 0.92113(17) 0.43286(7)
H9_22 H 0.5928 0.8938 0.4424
H12_22 H 0.5720 0.9951 0.4809
O5_14 O 0.50151(13) 0.83721(13) 0.22663(6)
O6_14 O 0.60504(14) 0.69508(12) 0.24517(5)
N2_23 N 0.25130(14) 0.36827(16) 0.68858(6)
O1_23 O 0.41237(18) 0.31646(17) 0.53922(6)
O2_23 O 0.4314(2) 0.43100(19) 0.53922(7)
O3_15 O 0.50151(13) 0.66279(13) 0.72663(6)
O4_15 O 0.39496(14) 0.69508(12) 0.74517(5)
C1_23 C 0.41042(18) 0.3762(2) 0.55215(8)
C2_23 C 0.38355(18) 0.3778(2) 0.58527(7)
C3_23 C 0.3767(3) 0.3155(2) 0.60246(10)
H1_23 H 0.3849 0.2711 0.5930
C4_23 C 0.3579(3) 0.3173(2) 0.63354(9)
H2_23 H 0.3537 0.2745 0.6446
C5_23 C 0.34535(17) 0.38140(18) 0.64805(7)
C6_23 C 0.3518(2) 0.4441(2) 0.63083(8)
H3_23 H 0.3431 0.4883 0.6403
C7_23 C 0.3713(2) 0.4424(2) 0.59948(8)
H4_23 H 0.3758 0.4851 0.5884
C8_23 C 0.43639(17) 0.65182(16) 0.73151(6)
C9_23 C 0.40586(16) 0.58267(16) 0.71988(6)
C10_23 C 0.45271(18) 0.52517(19) 0.71310(8)
H5_23 H 0.5022 0.5309 0.7158
C11_23 C 0.42623(18) 0.46079(19) 0.70252(8)
H6_23 H 0.4577 0.4227 0.6987
C12_23 C 0.35389(17) 0.45208(17) 0.69759(6)
C13_23 C 0.30665(17) 0.50796(19) 0.70481(8)
H7_23 H 0.2573 0.5018 0.7020
C14_23 C 0.33335(17) 0.57340(19) 0.71626(7)
H8_23 H 0.3017 0.6105 0.7214
C15_23 C 0.32887(17) 0.38223(18) 0.68286(7)
H9_23 H 0.3562 0.3428 0.6924
C16_23 C 0.1936(2) 0.3881(3) 0.67143(9)
H10_23 H 0.1945 0.4102 0.6521
C17_23 C 0.1348(2) 0.3699(3) 0.68776(9)
H11_23 H 0.0874 0.3773 0.6815
C18_23 C 0.22602(18) 0.33928(17) 0.71492(7)
H12_23 H 0.2549 0.3220 0.7309
O5_15 O 0.41279(13) 0.25151(13) 0.47663(6)
O6_15 O 0.55492(12) 0.35504(14) 0.49517(5)
N2_24 N 0.24870(14) 0.63173(16) 0.18858(6)
O1_24 O 0.08763(18) 0.68354(17) 0.03922(6)
O2_24 O 0.0686(2) 0.56900(19) 0.03922(7)
O4_16 O 0.10504(14) 0.30492(12) 0.24517(5)
C1_24 C 0.08958(18) 0.6238(2) 0.05215(8)
C2_24 C 0.11645(18) 0.6222(2) 0.08527(7)
C3_24 C 0.1233(3) 0.6845(2) 0.10246(10)
H1_24 H 0.1151 0.7289 0.0930
C4_24 C 0.1421(3) 0.6827(2) 0.13354(9)
H2_24 H 0.1463 0.7255 0.1446
C5_24 C 0.15465(17) 0.61860(18) 0.14805(7)
C6_24 C 0.1482(2) 0.5559(2) 0.13083(8)
H3_24 H 0.1569 0.5117 0.1403
C7_24 C 0.1287(2) 0.5576(2) 0.09948(8)
H4_24 H 0.1242 0.5149 0.0884
C8_24 C 0.06361(17) 0.34818(16) 0.23151(6)
C9_24 C 0.09414(16) 0.41733(16) 0.21988(6)
C10_24 C 0.04729(18) 0.47483(19) 0.21310(8)
C11_24 C 0.07377(18) 0.53921(19) 0.20252(8)
H6_24 H 0.0423 0.5773 0.1987
C12_24 C 0.14611(17) 0.54792(17) 0.19759(6)
C13_24 C 0.19335(17) 0.49204(19) 0.20481(8)
H7_24 H 0.2427 0.4982 0.2020
C14_24 C 0.16665(17) 0.42660(19) 0.21626(7)
H8_24 H 0.1983 0.3895 0.2214
C15_24 C 0.17113(17) 0.61777(18) 0.18286(7)
H9_24 H 0.1438 0.6572 0.1924
C16_24 C 0.3064(2) 0.6119(3) 0.17143(9)
H10_24 H 0.3055 0.5898 0.1521
C17_24 C 0.3652(2) 0.6301(3) 0.18776(9)
H11_24 H 0.4126 0.6227 0.1815
C18_24 C 0.27398(18) 0.66072(17) 0.21492(7)
H12_24 H 0.2451 0.6780 0.2309
O5_16 O 0.08721(13) 0.74849(13) 0.97663(6)
O3_16 O 0.99849(13) 0.33721(13) 0.22663(6)
H5_24 H 0.9978 0.4691 0.2158
O6_16 O 0.94508(12) 0.64496(14) 0.99517(5)
N1_13 N 0.91160(16) 0.59413(15) 0.46522(6)
N2_25 N 0.88173(16) 0.49870(14) 0.43858(6)
O1_25 O 0.93354(17) 0.33763(18) 0.28922(6)
O2_25 O 0.81900(19) 0.3186(2) 0.28922(7)
C1_25 C 0.8738(2) 0.33958(18) 0.30215(8)
C2_25 C 0.8722(2) 0.36645(18) 0.33527(7)
C3_25 C 0.9345(2) 0.3733(3) 0.35246(10)
H1_25 H 0.9789 0.3651 0.3430
C4_25 C 0.9327(2) 0.3921(3) 0.38354(9)
H2_25 H 0.9755 0.3963 0.3946
C5_25 C 0.86860(18) 0.40465(17) 0.39805(7)
C6_25 C 0.8059(2) 0.3982(2) 0.38083(8)
H3_25 H 0.7617 0.4069 0.3903
C7_25 C 0.8076(2) 0.3787(2) 0.34948(8)
H4_25 H 0.7649 0.3742 0.3384
C8_25 C 0.59818(16) 0.31361(17) 0.48151(6)
C9_25 C 0.66733(16) 0.34414(16) 0.46988(6)
C10_25 C 0.72483(19) 0.29729(18) 0.46310(8)
H5_25 H 0.7191 0.2478 0.4658
C11_25 C 0.78921(19) 0.32377(18) 0.45252(8)
H6_25 H 0.8273 0.2923 0.4487
C12_25 C 0.79792(17) 0.39611(17) 0.44759(6)
C13_25 C 0.74204(19) 0.44335(17) 0.45481(8)
H7_25 H 0.7482 0.4927 0.4520
C14_25 C 0.67660(19) 0.41665(17) 0.46626(7)
H8_25 H 0.6395 0.4483 0.4714
C15_25 C 0.86777(18) 0.42113(17) 0.43286(7)
H9_25 H 0.9072 0.3938 0.4424
C16_25 C 0.8619(3) 0.5564(2) 0.42143(9)
H10_25 H 0.8398 0.5555 0.4021
C17_25 C 0.8801(3) 0.6152(2) 0.43776(9)
H11_25 H 0.8727 0.6626 0.4315
C18_25 C 0.91072(17) 0.52398(18) 0.46492(7)
H12_25 H 0.9280 0.4951 0.4809
N3_13 N 0.84413(15) 0.33840(16) 0.21522(6)
N1_14 N 0.58840(16) 0.40587(15) 0.96522(6)
N2_26 N 0.61827(16) 0.50130(14) 0.93858(6)
O1_26 O 0.56646(17) 0.66237(18) 0.78922(6)
O2_26 O 0.68100(19) 0.6814(2) 0.78922(7)
C1_26 C 0.6262(2) 0.66042(18) 0.80215(8)
C2_26 C 0.6278(2) 0.63355(18) 0.83527(7)
C3_26 C 0.5655(2) 0.6267(3) 0.85246(10)
H1_26 H 0.5211 0.6349 0.8430
C4_26 C 0.5673(2) 0.6079(3) 0.88354(9)
H2_26 H 0.5245 0.6037 0.8946
C5_26 C 0.63140(18) 0.59535(17) 0.89805(7)
C6_26 C 0.6941(2) 0.6018(2) 0.88083(8)
H3_26 H 0.7383 0.5931 0.8903
C7_26 C 0.6924(2) 0.6213(2) 0.84948(8)
H4_26 H 0.7351 0.6258 0.8384
C8_26 C 0.90182(16) 0.68639(17) 0.98151(6)
C9_26 C 0.83267(16) 0.65586(16) 0.96988(6)
C10_26 C 0.77517(19) 0.70271(18) 0.96310(8)
H5_26 H 0.7809 0.7522 0.9658
C11_26 C 0.71079(19) 0.67623(18) 0.95252(8)
H6_26 H 0.6727 0.7077 0.9487
C12_26 C 0.70208(17) 0.60389(17) 0.94759(6)
C13_26 C 0.75796(19) 0.55665(17) 0.95481(8)
H7_26 H 0.7518 0.5073 0.9520
C14_26 C 0.82340(19) 0.58335(17) 0.96626(7)
H8_26 H 0.8605 0.5517 0.9714
C15_26 C 0.63223(18) 0.57887(17) 0.93286(7)
H9_26 H 0.5928 0.6062 0.9424
C16_26 C 0.6381(3) 0.4436(2) 0.92143(9)
H10_26 H 0.6602 0.4445 0.9021
C17_26 C 0.6199(3) 0.3848(2) 0.93776(9)
H11_26 H 0.6273 0.3374 0.9315
C18_26 C 0.58928(17) 0.47602(18) 0.96492(7)
H12_26 H 0.5720 0.5049 0.9809
N3_14 N 0.65587(15) 0.66160(16) 0.71522(6)
N1_15 N 0.15587(15) 0.16160(16) 0.21522(6)
N2_27 N 0.25130(14) 0.13173(16) 0.18858(6)
O1_27 O 0.41237(18) 0.18354(17) 0.03922(6)
O2_27 O 0.4314(2) 0.06900(19) 0.03922(7)
C1_27 C 0.41042(18) 0.1238(2) 0.05215(8)
C2_27 C 0.38355(18) 0.1222(2) 0.08527(7)
C3_27 C 0.3767(3) 0.1845(2) 0.10246(10)
H1_27 H 0.3849 0.2289 0.0930
C4_27 C 0.3579(3) 0.1827(2) 0.13354(9)
H2_27 H 0.3537 0.2255 0.1446
C5_27 C 0.34535(17) 0.11860(18) 0.14805(7)
C6_27 C 0.3518(2) 0.0559(2) 0.13083(8)
H3_27 H 0.3431 0.0117 0.1403
C7_27 C 0.3713(2) 0.0576(2) 0.09948(8)
H4_27 H 0.3758 0.0149 0.0884
C11_27 C 0.42623(18) 0.03921(19) 0.20252(8)
H6_27 H 0.4577 0.0773 0.1987
C12_27 C 0.35389(17) 0.04792(17) 0.19759(6)
C15_27 C 0.32887(17) 0.11777(18) 0.18286(7)
H9_27 H 0.3562 0.1572 0.1924
C16_27 C 0.1936(2) 0.1119(3) 0.17143(9)
H10_27 H 0.1945 0.0898 0.1521
C17_27 C 0.1348(2) 0.1301(3) 0.18776(9)
H11_27 H 0.0874 0.1227 0.1815
C18_27 C 0.22602(18) 0.16072(17) 0.21492(7)
H12_27 H 0.2549 0.1780 0.2309
N3_15 N 0.41160(16) 0.09413(15) 0.96522(6)
C8_27 C 0.43639(17) 0.84818(16) 0.23151(6)
C9_27 C 0.40586(16) 0.91733(16) 0.21988(6)
C10_27 C 0.45271(18) 0.97483(19) 0.21310(8)
H5_27 H 0.5022 0.9691 0.2158
C13_27 C 0.30665(17) 0.99204(19) 0.20481(8)
H7_27 H 0.2573 0.9982 0.2020
C14_27 C 0.33335(17) 0.92660(19) 0.21626(7)
H8_27 H 0.3017 0.8895 0.2214
C8_28 C 0.06361(17) 0.15182(16) 0.73151(6)
C9_28 C 0.09414(16) 0.08267(16) 0.71988(6)
C10_28 C 0.04729(18) 0.02517(19) 0.71310(8)
C13_28 C 0.19335(17) 0.00796(19) 0.70481(8)
H7_28 H 0.2427 0.0018 0.7020
C14_28 C 0.16665(17) 0.07340(19) 0.71626(7)
H8_28 H 0.1983 0.1105 0.7214
N1_16 N 0.34413(15) 0.83840(16) 0.71522(6)
N2_28 N 0.24870(14) 0.86827(16) 0.68858(6)
O1_28 O 0.08763(18) 0.81646(17) 0.53922(6)
O2_28 O 0.0686(2) 0.93100(19) 0.53922(7)
C1_28 C 0.08958(18) 0.8762(2) 0.55215(8)
C2_28 C 0.11645(18) 0.8778(2) 0.58527(7)
C3_28 C 0.1233(3) 0.8155(2) 0.60246(10)
H1_28 H 0.1151 0.7711 0.5930
C4_28 C 0.1421(3) 0.8173(2) 0.63354(9)
H2_28 H 0.1463 0.7745 0.6446
C5_28 C 0.15465(17) 0.88140(18) 0.64805(7)
C6_28 C 0.1482(2) 0.9441(2) 0.63083(8)
H3_28 H 0.1569 0.9883 0.6403
C7_28 C 0.1287(2) 0.9424(2) 0.59948(8)
H4_28 H 0.1242 0.9851 0.5884
C11_28 C 0.07377(18) 0.96079(19) 0.70252(8)
H6_28 H 0.0423 0.9227 0.6987
C12_28 C 0.14611(17) 0.95208(17) 0.69759(6)
C15_28 C 0.17113(17) 0.88223(18) 0.68286(7)
H9_28 H 0.1438 0.8428 0.6924
C16_28 C 0.3064(2) 0.8881(3) 0.67143(9)
H10_28 H 0.3055 0.9102 0.6521
C17_28 C 0.3652(2) 0.8699(3) 0.68776(9)
H11_28 H 0.4126 0.8773 0.6815
C18_28 C 0.27398(18) 0.83928(17) 0.71492(7)
H12_28 H 0.2451 0.8220 0.7309
N3_16 N 0.08840(16) 0.90587(15) 0.46522(6)
H5_28 H 0.9978 0.0309 0.7158
C16_29 C 0.3619(3) 0.0564(2) 0.92143(9)
H10_29 H 0.3398 0.0555 0.9021
C17_29 C 0.3801(3) 0.1152(2) 0.93776(9)
H11_29 H 0.3727 0.1626 0.9315
C18_29 C 0.41072(17) 0.02398(18) 0.96492(7)
N2_29 N 0.38173(16) 0.99870(14) 0.93858(6)
O1_29 O 0.43354(17) 0.83763(18) 0.78922(6)
O2_29 O 0.31900(19) 0.8186(2) 0.78922(7)
C1_29 C 0.3738(2) 0.83958(18) 0.80215(8)
C2_29 C 0.3722(2) 0.86645(18) 0.83527(7)
C3_29 C 0.4345(2) 0.8733(3) 0.85246(10)
H1_29 H 0.4789 0.8651 0.8430
C4_29 C 0.4327(2) 0.8921(3) 0.88354(9)
H2_29 H 0.4755 0.8963 0.8946
C5_29 C 0.36860(18) 0.90465(17) 0.89805(7)
C6_29 C 0.3059(2) 0.8982(2) 0.88083(8)
H3_29 H 0.2617 0.9069 0.8903
C7_29 C 0.3076(2) 0.8787(2) 0.84948(8)
H4_29 H 0.2649 0.8742 0.8384
C8_29 C 0.09818(16) 0.81361(17) 0.98151(6)
C9_29 C 0.16733(16) 0.84414(16) 0.96988(6)
C10_29 C 0.22483(19) 0.79729(18) 0.96310(8)
H5_29 H 0.2191 0.7478 0.9658
C11_29 C 0.28921(19) 0.82377(18) 0.95252(8)
H6_29 H 0.3273 0.7923 0.9487
C12_29 C 0.29792(17) 0.89611(17) 0.94759(6)
C13_29 C 0.24204(19) 0.94335(17) 0.95481(8)
H7_29 H 0.2482 0.9927 0.9520
C14_29 C 0.17660(19) 0.91665(17) 0.96626(7)
H8_29 H 0.1395 0.9483 0.9714
C15_29 C 0.36777(18) 0.92113(17) 0.93286(7)
H9_29 H 0.4072 0.8938 0.9424
H12_29 H 0.4280 0.9951 0.9809
N2_30 N 0.11827(16) 0.00130(14) 0.43858(6)
O1_30 O 0.06646(17) 0.16237(18) 0.28922(6)
O2_30 O 0.18100(19) 0.1814(2) 0.28922(7)
C1_30 C 0.1262(2) 0.16042(18) 0.30215(8)
C2_30 C 0.1278(2) 0.13355(18) 0.33527(7)
C3_30 C 0.0655(2) 0.1267(3) 0.35246(10)
H1_30 H 0.0211 0.1349 0.3430
C4_30 C 0.0673(2) 0.1079(3) 0.38354(9)
H2_30 H 0.0245 0.1037 0.3946
C5_30 C 0.13140(18) 0.09535(17) 0.39805(7)
C6_30 C 0.1941(2) 0.1018(2) 0.38083(8)
H3_30 H 0.2383 0.0931 0.3903
C7_30 C 0.1924(2) 0.1213(2) 0.34948(8)
H4_30 H 0.2351 0.1258 0.3384
C8_30 C 0.40182(16) 0.18639(17) 0.48151(6)
C9_30 C 0.33267(16) 0.15586(16) 0.46988(6)
C10_30 C 0.27517(19) 0.20271(18) 0.46310(8)
H5_30 H 0.2809 0.2522 0.4658
C11_30 C 0.21079(19) 0.17623(18) 0.45252(8)
H6_30 H 0.1727 0.2077 0.4487
C12_30 C 0.20208(17) 0.10389(17) 0.44759(6)
C13_30 C 0.25796(19) 0.05665(17) 0.45481(8)
H7_30 H 0.2518 0.0073 0.4520
C14_30 C 0.32340(19) 0.08335(17) 0.46626(7)
H8_30 H 0.3605 0.0517 0.4714
C15_30 C 0.13223(18) 0.07887(17) 0.43286(7)
H9_30 H 0.0928 0.1062 0.4424
H12_30 H 0.0720 0.0049 0.4809
C16_30 C 0.1381(3) 0.9436(2) 0.42143(9)
H10_30 H 0.1602 0.9445 0.4021
C17_30 C 0.1199(3) 0.8848(2) 0.43776(9)
H11_30 H 0.1273 0.8374 0.4315
C18_30 C 0.08928(17) 0.97602(18) 0.46492(7)
H5_31 H 0.0022 0.4691 0.7158
N2_31 N 0.75130(14) 0.63173(16) 0.68858(6)
O1_31 O 0.91237(18) 0.68354(17) 0.53922(6)
O2_31 O 0.9314(2) 0.56900(19) 0.53922(7)
C1_31 C 0.91042(18) 0.6238(2) 0.55215(8)
C2_31 C 0.88355(18) 0.6222(2) 0.58527(7)
C3_31 C 0.8767(3) 0.6845(2) 0.60246(10)
H1_31 H 0.8849 0.7289 0.5930
C4_31 C 0.8579(3) 0.6827(2) 0.63354(9)
H2_31 H 0.8537 0.7255 0.6446
C5_31 C 0.84535(17) 0.61860(18) 0.64805(7)
C6_31 C 0.8518(2) 0.5559(2) 0.63083(8)
H3_31 H 0.8431 0.5117 0.6403
C7_31 C 0.8713(2) 0.5576(2) 0.59948(8)
H4_31 H 0.8758 0.5149 0.5884
C8_31 C 0.93639(17) 0.34818(16) 0.73151(6)
C9_31 C 0.90586(16) 0.41733(16) 0.71988(6)
C10_31 C 0.95271(18) 0.47483(19) 0.71310(8)
C11_31 C 0.92623(18) 0.53921(19) 0.70252(8)
H6_31 H 0.9577 0.5773 0.6987
C12_31 C 0.85389(17) 0.54792(17) 0.69759(6)
C13_31 C 0.80665(17) 0.49204(19) 0.70481(8)
H7_31 H 0.7573 0.4982 0.7020
C14_31 C 0.83335(17) 0.42660(19) 0.71626(7)
H8_31 H 0.8017 0.3895 0.7214
C15_31 C 0.82887(17) 0.61777(18) 0.68286(7)
H9_31 H 0.8562 0.6572 0.6924
C16_31 C 0.6936(2) 0.6119(3) 0.67143(9)
H10_31 H 0.6945 0.5898 0.6521
C17_31 C 0.6348(2) 0.6301(3) 0.68776(9)
H11_31 H 0.5874 0.6227 0.6815
C18_31 C 0.72602(18) 0.66072(17) 0.71492(7)
H12_31 H 0.7549 0.6780 0.7309
N2_32 N 0.74870(14) 0.36827(16) 0.18858(6)
O1_32 O 0.58763(18) 0.31646(17) 0.03922(6)
O2_32 O 0.5686(2) 0.43100(19) 0.03922(7)
C1_32 C 0.58958(18) 0.3762(2) 0.05215(8)
C2_32 C 0.61645(18) 0.3778(2) 0.08527(7)
C3_32 C 0.6233(3) 0.3155(2) 0.10246(10)
H1_32 H 0.6151 0.2711 0.0930
C4_32 C 0.6421(3) 0.3173(2) 0.13354(9)
H2_32 H 0.6463 0.2745 0.1446
C5_32 C 0.65465(17) 0.38140(18) 0.14805(7)
C6_32 C 0.6482(2) 0.4441(2) 0.13083(8)
H3_32 H 0.6569 0.4883 0.1403
C7_32 C 0.6287(2) 0.4424(2) 0.09948(8)
H4_32 H 0.6242 0.4851 0.0884
C8_32 C 0.56361(17) 0.65182(16) 0.23151(6)
C9_32 C 0.59414(16) 0.58267(16) 0.21988(6)
C10_32 C 0.54729(18) 0.52517(19) 0.21310(8)
H5_32 H 0.4978 0.5309 0.2158
C11_32 C 0.57377(18) 0.46079(19) 0.20252(8)
H6_32 H 0.5423 0.4227 0.1987
C12_32 C 0.64611(17) 0.45208(17) 0.19759(6)
C13_32 C 0.69335(17) 0.50796(19) 0.20481(8)
H7_32 H 0.7427 0.5018 0.2020
C14_32 C 0.66665(17) 0.57340(19) 0.21626(7)
H8_32 H 0.6983 0.6105 0.2214
C15_32 C 0.67113(17) 0.38223(18) 0.18286(7)
H9_32 H 0.6438 0.3428 0.1924
C16_32 C 0.8064(2) 0.3881(3) 0.17143(9)
H10_32 H 0.8055 0.4102 0.1521
C17_32 C 0.8652(2) 0.3699(3) 0.18776(9)
H11_32 H 0.9126 0.3773 0.1815
C18_32 C 0.77398(18) 0.33928(17) 0.21492(7)
H12_32 H 0.7451 0.3220 0.2309
loop_
_geom_bond_atom_site_label_1
_geom_bond_atom_site_label_2
_geom_bond_site_symmetry_1
_geom_bond_site_symmetry_2
Zn1 O1 1_555 1_555
N1 C17 1_555 1_555
N2 C15 1_555 1_555
O1 C1 1_555 1_555
O2 Zn1 1_555 1_555
O3 C8 1_555 1_555
O4 C8 1_555 1_555
C1 O2 1_555 1_555
C2 C1 1_555 1_555
C3 C2 1_555 1_555
H1 C3 1_555 1_555
C4 C3 1_555 1_555
H2 C4 1_555 1_555
C5 C4 1_555 1_555
C6 C5 1_555 1_555
H3 C6 1_555 1_555
C7 C2 1_555 1_555
H4 C7 1_555 1_555
C8 C9 1_555 1_555
C9 C10 1_555 1_555
C10 H5 1_555 1_555
C11 C10 1_555 1_555
H6 C11 1_555 1_555
C12 C11 1_555 1_555
C13 C12 1_555 1_555
H7 C13 1_555 1_555
C14 C9 1_555 1_555
H8 C14 1_555 1_555
C15 C5 1_555 1_555
H9 C15 1_555 1_555
C16 N2 1_555 1_555
H10 C16 1_555 1_555
C17 C16 1_555 1_555
H11 C17 1_555 1_555
C18 N1 1_555 1_555
H12 C18 1_555 1_555
Zn2 N1 1_555 1_555
Zn3 O3 1_555 1_555
Zn4 O4 1_555 1_555
N3 Zn1 1_555 1_555
O5 Zn1 1_555 1_555
O6 Zn1 1_555 1_555
N2 C18 1_555 1_555
C6 C7 1_555 1_555
C12 C15 1_555 1_555
C13 C14 1_555 1_555
Zn1_2 O1_2 1_555 1_555
N1_2 C17_2 1_555 1_555
N2_2 C15_2 1_555 1_555
O1_2 C1_2 1_555 1_555
O2_2 Zn1_2 1_555 1_555
O3_2 C8_2 1_555 1_555
O4_2 C8_2 1_555 1_555
C1_2 O2_2 1_555 1_555
C2_2 C1_2 1_555 1_555
C3_2 C2_2 1_555 1_555
H1_2 C3_2 1_555 1_555
C4_2 C3_2 1_555 1_555
H2_2 C4_2 1_555 1_555
C5_2 C4_2 1_555 1_555
C6_2 C5_2 1_555 1_555
H3_2 C6_2 1_555 1_555
C7_2 C2_2 1_555 1_555
H4_2 C7_2 1_555 1_555
C8_2 C9_2 1_555 1_555
C9_2 C10_2 1_555 1_555
C10_2 H5_2 1_555 1_555
C11_2 C10_2 1_555 1_555
H6_2 C11_2 1_555 1_555
C12_2 C11_2 1_555 1_555
C13_2 C12_2 1_555 1_555
H7_2 C13_2 1_555 1_555
C14_2 C9_2 1_555 1_555
H8_2 C14_2 1_555 1_555
C15_2 C5_2 1_555 1_555
H9_2 C15_2 1_555 1_555
C16_2 N2_2 1_555 1_555
H10_2 C16_2 1_555 1_555
C17_2 C16_2 1_555 1_555
H11_2 C17_2 1_555 1_555
C18_2 N1_2 1_555 1_555
H12_2 C18_2 1_555 1_555
Zn2_2 N1_2 1_555 1_555
Zn3_2 O3_2 1_555 1_555
N3_2 Zn1_2 1_555 1_555
O5_2 Zn1_2 1_555 1_555
O6_2 Zn1_2 1_555 1_555
N2_2 C18_2 1_555 1_555
C6_2 C7_2 1_555 1_555
C12_2 C15_2 1_555 1_555
C13_2 C14_2 1_555 1_555
O3_3 C8_3 1_555 1_555
O4_3 C8_3 1_555 1_555
C8_3 C9_3 1_555 1_555
C9_3 C10_3 1_555 1_555
C10_3 H5_3 1_555 1_555
H7_3 C13_3 1_555 1_555
C14_3 C9_3 1_555 1_555
H8_3 C14_3 1_555 1_555
Zn3_3 O3_3 1_555 1_555
Zn4_3 O4_3 1_555 1_555
C13_3 C14_3 1_555 1_555
N3_3 Zn1_3 1_555 1_555
O5_3 Zn1_3 1_555 1_555
O6_3 Zn1_3 1_555 1_555
N1_3 C17_3 1_555 1_555
N2_3 C15_3 1_555 1_555
O1_3 C1_3 1_555 1_555
C1_3 O2_3 1_555 1_555
C2_3 C1_3 1_555 1_555
C3_3 C2_3 1_555 1_555
H1_3 C3_3 1_555 1_555
C4_3 C3_3 1_555 1_555
H2_3 C4_3 1_555 1_555
C5_3 C4_3 1_555 1_555
C6_3 C5_3 1_555 1_555
H3_3 C6_3 1_555 1_555
C7_3 C2_3 1_555 1_555
H4_3 C7_3 1_555 1_555
H6_3 C11_3 1_555 1_555
C12_3 C11_3 1_555 1_555
C15_3 C5_3 1_555 1_555
H9_3 C15_3 1_555 1_555
C16_3 N2_3 1_555 1_555
H10_3 C16_3 1_555 1_555
C17_3 C16_3 1_555 1_555
H11_3 C17_3 1_555 1_555
C18_3 N1_3 1_555 1_555
H12_3 C18_3 1_555 1_555
Zn2_3 N1_3 1_555 1_555
N2_3 C18_3 1_555 1_555
C6_3 C7_3 1_555 1_555
C12_3 C15_3 1_555 1_555
Zn3_4 O3_4 1_555 1_555
Zn1_4 O1_4 1_555 1_555
N1_4 C17_4 1_555 1_555
N2_4 C15_4 1_555 1_555
O1_4 C1_4 1_555 1_555
O2_4 Zn1_4 1_555 1_555
C1_4 O2_4 1_555 1_555
C2_4 C1_4 1_555 1_555
C3_4 C2_4 1_555 1_555
H1_4 C3_4 1_555 1_555
C4_4 C3_4 1_555 1_555
H2_4 C4_4 1_555 1_555
C5_4 C4_4 1_555 1_555
C6_4 C5_4 1_555 1_555
H3_4 C6_4 1_555 1_555
C7_4 C2_4 1_555 1_555
H4_4 C7_4 1_555 1_555
H6_4 C11_4 1_555 1_555
C12_4 C11_4 1_555 1_555
C15_4 C5_4 1_555 1_555
H9_4 C15_4 1_555 1_555
C16_4 N2_4 1_555 1_555
H10_4 C16_4 1_555 1_555
C17_4 C16_4 1_555 1_555
H11_4 C17_4 1_555 1_555
C18_4 N1_4 1_555 1_555
H12_4 C18_4 1_555 1_555
Zn2_4 N1_4 1_555 1_555
N3_4 Zn1_4 1_555 1_555
O5_4 Zn1_4 1_555 1_555
N2_4 C18_4 1_555 1_555
C6_4 C7_4 1_555 1_555
C12_4 C15_4 1_555 1_555
O4_4 C8_4 1_555 1_555
C8_4 C9_4 1_555 1_555
C9_4 C10_4 1_555 1_555
H7_4 C13_4 1_555 1_555
C14_4 C9_4 1_555 1_555
H8_4 C14_4 1_555 1_555
Zn4_4 O4_4 1_555 1_555
C13_4 C14_4 1_555 1_555
Zn2_4 O1_5 1_555 1_555
N2_5 C15_5 1_555 1_555
O1_5 C1_5 1_555 1_555
O2_5 Zn2_4 1_555 1_555
O3_5 C8_5 1_555 1_555
O4_5 C8_5 1_555 1_555
C1_5 O2_5 1_555 1_555
C2_5 C1_5 1_555 1_555
C3_5 C2_5 1_555 1_555
H1_5 C3_5 1_555 1_555
C4_5 C3_5 1_555 1_555
H2_5 C4_5 1_555 1_555
C5_5 C4_5 1_555 1_555
C6_5 C5_5 1_555 1_555
H3_5 C6_5 1_555 1_555
C7_5 C2_5 1_555 1_555
H4_5 C7_5 1_555 1_555
C8_5 C9_5 1_555 1_555
C9_5 C10_5 1_555 1_555
C10_5 H5_5 1_555 1_555
C11_5 C10_5 1_555 1_555
H6_5 C11_5 1_555 1_555
C12_5 C11_5 1_555 1_555
C13_5 C12_5 1_555 1_555
H7_5 C13_5 1_555 1_555
C14_5 C9_5 1_555 1_555
H8_5 C14_5 1_555 1_555
C15_5 C5_5 1_555 1_555
H9_5 C15_5 1_555 1_555
Zn4_2 O3_5 1_555 1_555
O5_5 Zn2_4 1_555 1_555
O6_5 Zn2_4 1_555 1_555
C6_5 C7_5 1_555 1_555
C12_5 C15_5 1_555 1_555
C13_5 C14_5 1_555 1_555
N3_3 C17_5 1_555 1_555
H10_5 C16_5 1_555 1_555
C17_5 C16_5 1_555 1_555
H11_5 C17_5 1_555 1_555
C18_5 N3_3 1_555 1_555
N3_4 C17_6 1_555 1_555
H10_6 C16_6 1_555 1_555
C17_6 C16_6 1_555 1_555
H11_6 C17_6 1_555 1_555
C18_6 N3_4 1_555 1_555
Zn2_3 O1_6 1_555 1_555
N2_6 C15_6 1_555 1_555
O1_6 C1_6 1_555 1_555
O2_6 Zn2_3 1_555 1_555
O3_6 C8_6 1_555 1_555
O4_6 C8_6 1_555 1_555
C1_6 O2_6 1_555 1_555
C2_6 C1_6 1_555 1_555
C3_6 C2_6 1_555 1_555
H1_6 C3_6 1_555 1_555
C4_6 C3_6 1_555 1_555
H2_6 C4_6 1_555 1_555
C5_6 C4_6 1_555 1_555
C6_6 C5_6 1_555 1_555
H3_6 C6_6 1_555 1_555
C7_6 C2_6 1_555 1_555
H4_6 C7_6 1_555 1_555
C8_6 C9_6 1_555 1_555
C9_6 C10_6 1_555 1_555
C10_6 H5_6 1_555 1_555
C11_6 C10_6 1_555 1_555
H6_6 C11_6 1_555 1_555
C12_6 C11_6 1_555 1_555
C13_6 C12_6 1_555 1_555
H7_6 C13_6 1_555 1_555
C14_6 C9_6 1_555 1_555
H8_6 C14_6 1_555 1_555
C15_6 C5_6 1_555 1_555
H9_6 C15_6 1_555 1_555
Zn4 O3_6 1_555 1_555
Zn3 O4_6 1_555 1_555
O5_6 Zn2_3 1_555 1_555
O6_6 Zn2_3 1_555 1_555
C6_6 C7_6 1_555 1_555
C12_6 C15_6 1_555 1_555
C13_6 C14_6 1_555 1_555
Zn2 O1_7 1_555 1_555
N3_2 C17_7 1_555 1_555
N2_7 C15_7 1_555 1_555
O1_7 C1_7 1_555 1_555
O2_7 Zn2 1_555 1_555
O4_7 C8_7 1_555 1_555
C1_7 O2_7 1_555 1_555
C2_7 C1_7 1_555 1_555
C3_7 C2_7 1_555 1_555
H1_7 C3_7 1_555 1_555
C4_7 C3_7 1_555 1_555
H2_7 C4_7 1_555 1_555
C5_7 C4_7 1_555 1_555
C6_7 C5_7 1_555 1_555
H3_7 C6_7 1_555 1_555
C7_7 C2_7 1_555 1_555
H4_7 C7_7 1_555 1_555
C8_7 C9_7 1_555 1_555
C9_7 C10_7 1_555 1_555
C11_7 C10_7 1_555 1_555
H6_7 C11_7 1_555 1_555
C12_7 C11_7 1_555 1_555
C13_7 C12_7 1_555 1_555
H7_7 C13_7 1_555 1_555
C14_7 C9_7 1_555 1_555
H8_7 C14_7 1_555 1_555
C15_7 C5_7 1_555 1_555
H9_7 C15_7 1_555 1_555
C16_7 N2_7 1_555 1_555
H10_7 C16_7 1_555 1_555
C17_7 C16_7 1_555 1_555
H11_7 C17_7 1_555 1_555
C18_7 N3_2 1_555 1_555
H12_7 C18_7 1_555 1_555
Zn3_4 O4_7 1_555 1_555
O5_7 Zn2 1_555 1_555
N2_7 C18_7 1_555 1_555
C6_7 C7_7 1_555 1_555
C12_7 C15_7 1_555 1_555
C13_7 C14_7 1_555 1_555
Zn4_4 O3_7 1_555 1_555
O5_8 Zn2_2 1_555 1_555
O6_8 Zn2_2 1_555 1_555
N3 C17_8 1_555 1_555
N2_8 C15_8 1_555 1_555
O1_8 C1_8 1_555 1_555
O3_8 C8_8 1_555 1_555
O4_8 C8_8 1_555 1_555
C1_8 O2_8 1_555 1_555
C2_8 C1_8 1_555 1_555
C3_8 C2_8 1_555 1_555
H1_8 C3_8 1_555 1_555
C4_8 C3_8 1_555 1_555
H2_8 C4_8 1_555 1_555
C5_8 C4_8 1_555 1_555
C6_8 C5_8 1_555 1_555
H3_8 C6_8 1_555 1_555
C7_8 C2_8 1_555 1_555
H4_8 C7_8 1_555 1_555
C8_8 C9_8 1_555 1_555
C9_8 C10_8 1_555 1_555
C10_8 H5_8 1_555 1_555
C11_8 C10_8 1_555 1_555
H6_8 C11_8 1_555 1_555
C12_8 C11_8 1_555 1_555
C13_8 C12_8 1_555 1_555
H7_8 C13_8 1_555 1_555
C14_8 C9_8 1_555 1_555
H8_8 C14_8 1_555 1_555
C15_8 C5_8 1_555 1_555
H9_8 C15_8 1_555 1_555
C16_8 N2_8 1_555 1_555
H10_8 C16_8 1_555 1_555
C17_8 C16_8 1_555 1_555
H11_8 C17_8 1_555 1_555
C18_8 N3 1_555 1_555
H12_8 C18_8 1_555 1_555
Zn4_3 O3_8 1_555 1_555
Zn3_3 O4_8 1_555 1_555
N2_8 C18_8 1_555 1_555
C6_8 C7_8 1_555 1_555
C12_8 C15_8 1_555 1_555
C13_8 C14_8 1_555 1_555
Zn4_3 O1_9 1_555 1_555
N1_5 C17_9 1_555 1_555
N2_9 C15_9 1_555 1_555
O1_9 C1_9 1_555 1_555
O2_9 Zn4_3 1_555 1_555
O5_4 C8_9 1_555 1_555
O6_7 C8_9 1_555 1_555
C1_9 O2_9 1_555 1_555
C2_9 C1_9 1_555 1_555
C3_9 C2_9 1_555 1_555
H1_9 C3_9 1_555 1_555
C4_9 C3_9 1_555 1_555
H2_9 C4_9 1_555 1_555
C5_9 C4_9 1_555 1_555
C6_9 C5_9 1_555 1_555
H3_9 C6_9 1_555 1_555
C7_9 C2_9 1_555 1_555
H4_9 C7_9 1_555 1_555
C8_9 C9_9 1_555 1_555
C9_9 C10_9 1_555 1_555
C10_9 H5_9 1_555 1_555
C11_9 C10_9 1_555 1_555
H6_9 C11_9 1_555 1_555
C12_9 C11_9 1_555 1_555
C13_9 C12_9 1_555 1_555
H7_9 C13_9 1_555 1_555
C14_9 C9_9 1_555 1_555
H8_9 C14_9 1_555 1_555
C15_9 C5_9 1_555 1_555
H9_9 C15_9 1_555 1_555
C16_9 N2_9 1_555 1_555
H10_9 C16_9 1_555 1_555
C17_9 C16_9 1_555 1_555
H11_9 C17_9 1_555 1_555
C18_9 N1_5 1_555 1_555
H12_9 C18_9 1_555 1_555
Zn4 N1_5 1_555 1_555
N3_5 Zn4_3 1_555 1_555
N2_9 C18_9 1_555 1_555
C6_9 C7_9 1_555 1_555
C12_9 C15_9 1_555 1_555
C13_9 C14_9 1_555 1_555
Zn4_4 O1_10 1_555 1_555
N1_6 C17_10 1_555 1_555
N2_10 C15_10 1_555 1_555
O1_10 C1_10 1_555 1_555
O2_10 Zn4_4 1_555 1_555
O5_3 C8_10 1_555 1_555
O6_8 C8_10 1_555 1_555
C1_10 O2_10 1_555 1_555
C2_10 C1_10 1_555 1_555
C3_10 C2_10 1_555 1_555
H1_10 C3_10 1_555 1_555
C4_10 C3_10 1_555 1_555
H2_10 C4_10 1_555 1_555
C5_10 C4_10 1_555 1_555
C6_10 C5_10 1_555 1_555
H3_10 C6_10 1_555 1_555
C7_10 C2_10 1_555 1_555
H4_10 C7_10 1_555 1_555
C8_10 C9_10 1_555 1_555
C9_10 C10_10 1_555 1_555
C10_10 H5_10 1_555 1_555
C11_10 C10_10 1_555 1_555
H6_10 C11_10 1_555 1_555
C12_10 C11_10 1_555 1_555
C13_10 C12_10 1_555 1_555
H7_10 C13_10 1_555 1_555
C14_10 C9_10 1_555 1_555
H8_10 C14_10 1_555 1_555
C15_10 C5_10 1_555 1_555
H9_10 C15_10 1_555 1_555
C16_10 N2_10 1_555 1_555
H10_10 C16_10 1_555 1_555
C17_10 C16_10 1_555 1_555
H11_10 C17_10 1_555 1_555
C18_10 N1_6 1_555 1_555
H12_10 C18_10 1_555 1_555
Zn4_2 N1_6 1_555 1_555
N3_6 Zn4_4 1_555 1_555
N2_10 C18_10 1_555 1_555
C6_10 C7_10 1_555 1_555
C12_10 C15_10 1_555 1_555
C13_10 C14_10 1_555 1_555
N3_7 Zn3_2 1_555 1_555
N1_7 C17_11 1_555 1_555
N2_11 C15_11 1_555 1_555
O1_11 C1_11 1_555 1_555
C1_11 O2_11 1_555 1_555
C2_11 C1_11 1_555 1_555
C3_11 C2_11 1_555 1_555
H1_11 C3_11 1_555 1_555
C4_11 C3_11 1_555 1_555
H2_11 C4_11 1_555 1_555
C5_11 C4_11 1_555 1_555
C6_11 C5_11 1_555 1_555
H3_11 C6_11 1_555 1_555
C7_11 C2_11 1_555 1_555
H4_11 C7_11 1_555 1_555
H6_11 C11_11 1_555 1_555
C12_11 C11_11 1_555 1_555
C15_11 C5_11 1_555 1_555
H9_11 C15_11 1_555 1_555
C16_11 N2_11 1_555 1_555
H10_11 C16_11 1_555 1_555
C17_11 C16_11 1_555 1_555
H11_11 C17_11 1_555 1_555
C18_11 N1_7 1_555 1_555
H12_11 C18_11 1_555 1_555
Zn3_3 N1_7 1_555 1_555
N2_11 C18_11 1_555 1_555
C6_11 C7_11 1_555 1_555
C12_11 C15_11 1_555 1_555
O6 C8_11 1_555 1_555
C8_11 C9_11 1_555 1_555
C9_11 C10_11 1_555 1_555
H7_11 C13_11 1_555 1_555
C14_11 C9_11 1_555 1_555
H8_11 C14_11 1_555 1_555
C13_11 C14_11 1_555 1_555
O5_5 C8_12 1_555 1_555
O6_2 C8_12 1_555 1_555
C8_12 C9_12 1_555 1_555
C9_12 C10_12 1_555 1_555
C10_12 H5_12 1_555 1_555
H7_12 C13_12 1_555 1_555
C14_12 C9_12 1_555 1_555
H8_12 C14_12 1_555 1_555
C13_12 C14_12 1_555 1_555
Zn3 O1_12 1_555 1_555
N1_8 C17_12 1_555 1_555
N2_12 C15_12 1_555 1_555
O1_12 C1_12 1_555 1_555
O2_12 Zn3 1_555 1_555
C1_12 O2_12 1_555 1_555
C2_12 C1_12 1_555 1_555
C3_12 C2_12 1_555 1_555
H1_12 C3_12 1_555 1_555
C4_12 C3_12 1_555 1_555
H2_12 C4_12 1_555 1_555
C5_12 C4_12 1_555 1_555
C6_12 C5_12 1_555 1_555
H3_12 C6_12 1_555 1_555
C7_12 C2_12 1_555 1_555
H4_12 C7_12 1_555 1_555
H6_12 C11_12 1_555 1_555
C12_12 C11_12 1_555 1_555
C15_12 C5_12 1_555 1_555
H9_12 C15_12 1_555 1_555
C16_12 N2_12 1_555 1_555
H10_12 C16_12 1_555 1_555
C17_12 C16_12 1_555 1_555
H11_12 C17_12 1_555 1_555
C18_12 N1_8 1_555 1_555
H12_12 C18_12 1_555 1_555
Zn3_4 N1_8 1_555 1_555
N3_8 Zn3 1_555 1_555
N2_12 C18_12 1_555 1_555
C6_12 C7_12 1_555 1_555
C12_12 C15_12 1_555 1_555
N3_7 C17_13 1_555 1_555
H10_13 C16_13 1_555 1_555
C17_13 C16_13 1_555 1_555
H11_13 C17_13 1_555 1_555
C18_13 N3_7 1_555 1_555
Zn3_4 O1_13 1_555 1_555
N2_13 C15_13 1_555 1_555
O1_13 C1_13 1_555 1_555
O2_13 Zn3_4 1_555 1_555
O5_8 C8_13 1_555 1_555
O6_3 C8_13 1_555 1_555
C1_13 O2_13 1_555 1_555
C2_13 C1_13 1_555 1_555
C3_13 C2_13 1_555 1_555
H1_13 C3_13 1_555 1_555
C4_13 C3_13 1_555 1_555
H2_13 C4_13 1_555 1_555
C5_13 C4_13 1_555 1_555
C6_13 C5_13 1_555 1_555
H3_13 C6_13 1_555 1_555
C7_13 C2_13 1_555 1_555
H4_13 C7_13 1_555 1_555
C8_13 C9_13 1_555 1_555
C9_13 C10_13 1_555 1_555
C10_13 H5_13 1_555 1_555
C11_13 C10_13 1_555 1_555
H6_13 C11_13 1_555 1_555
C12_13 C11_13 1_555 1_555
C13_13 C12_13 1_555 1_555
H7_13 C13_13 1_555 1_555
C14_13 C9_13 1_555 1_555
H8_13 C14_13 1_555 1_555
C15_13 C5_13 1_555 1_555
H9_13 C15_13 1_555 1_555
C6_13 C7_13 1_555 1_555
C12_13 C15_13 1_555 1_555
C13_13 C14_13 1_555 1_555
Zn3_3 O1_14 1_555 1_555
N2_14 C15_14 1_555 1_555
O1_14 C1_14 1_555 1_555
O2_14 Zn3_3 1_555 1_555
O5_7 C8_14 1_555 1_555
O6_4 C8_14 1_555 1_555
C1_14 O2_14 1_555 1_555
C2_14 C1_14 1_555 1_555
C3_14 C2_14 1_555 1_555
H1_14 C3_14 1_555 1_555
C4_14 C3_14 1_555 1_555
H2_14 C4_14 1_555 1_555
C5_14 C4_14 1_555 1_555
C6_14 C5_14 1_555 1_555
H3_14 C6_14 1_555 1_555
C7_14 C2_14 1_555 1_555
H4_14 C7_14 1_555 1_555
C8_14 C9_14 1_555 1_555
C9_14 C10_14 1_555 1_555
C10_14 H5_14 1_555 1_555
C11_14 C10_14 1_555 1_555
H6_14 C11_14 1_555 1_555
C12_14 C11_14 1_555 1_555
C13_14 C12_14 1_555 1_555
H7_14 C13_14 1_555 1_555
C14_14 C9_14 1_555 1_555
H8_14 C14_14 1_555 1_555
C15_14 C5_14 1_555 1_555
H9_14 C15_14 1_555 1_555
C6_14 C7_14 1_555 1_555
C12_14 C15_14 1_555 1_555
C13_14 C14_14 1_555 1_555
N3_8 C17_14 1_555 1_555
H10_14 C16_14 1_555 1_555
C17_14 C16_14 1_555 1_555
H11_14 C17_14 1_555 1_555
C18_14 N3_8 1_555 1_555
Zn4 O1_15 1_555 1_555
N3_6 C17_15 1_555 1_555
N2_15 C15_15 1_555 1_555
O1_15 C1_15 1_555 1_555
O2_15 Zn4 1_555 1_555
O5_2 C8_15 1_555 1_555
O6_5 C8_15 1_555 1_555
C1_15 O2_15 1_555 1_555
C2_15 C1_15 1_555 1_555
C3_15 C2_15 1_555 1_555
H1_15 C3_15 1_555 1_555
C4_15 C3_15 1_555 1_555
H2_15 C4_15 1_555 1_555
C5_15 C4_15 1_555 1_555
C6_15 C5_15 1_555 1_555
H3_15 C6_15 1_555 1_555
C7_15 C2_15 1_555 1_555
H4_15 C7_15 1_555 1_555
C8_15 C9_15 1_555 1_555
C9_15 C10_15 1_555 1_555
C10_15 H5_15 1_555 1_555
C11_15 C10_15 1_555 1_555
H6_15 C11_15 1_555 1_555
C12_15 C11_15 1_555 1_555
C13_15 C12_15 1_555 1_555
H7_15 C13_15 1_555 1_555
C14_15 C9_15 1_555 1_555
H8_15 C14_15 1_555 1_555
C15_15 C5_15 1_555 1_555
H9_15 C15_15 1_555 1_555
C16_15 N2_15 1_555 1_555
H10_15 C16_15 1_555 1_555
C17_15 C16_15 1_555 1_555
H11_15 C17_15 1_555 1_555
C18_15 N3_6 1_555 1_555
H12_15 C18_15 1_555 1_555
N2_15 C18_15 1_555 1_555
C6_15 C7_15 1_555 1_555
C12_15 C15_15 1_555 1_555
C13_15 C14_15 1_555 1_555
N3_5 C17_16 1_555 1_555
N2_16 C15_16 1_555 1_555
O1_16 C1_16 1_555 1_555
O6_6 C8_16 1_555 1_555
C1_16 O2_16 1_555 1_555
C2_16 C1_16 1_555 1_555
C3_16 C2_16 1_555 1_555
H1_16 C3_16 1_555 1_555
C4_16 C3_16 1_555 1_555
H2_16 C4_16 1_555 1_555
C5_16 C4_16 1_555 1_555
C6_16 C5_16 1_555 1_555
H3_16 C6_16 1_555 1_555
C7_16 C2_16 1_555 1_555
H4_16 C7_16 1_555 1_555
C8_16 C9_16 1_555 1_555
C9_16 C10_16 1_555 1_555
C11_16 C10_16 1_555 1_555
H6_16 C11_16 1_555 1_555
C12_16 C11_16 1_555 1_555
C13_16 C12_16 1_555 1_555
H7_16 C13_16 1_555 1_555
C14_16 C9_16 1_555 1_555
H8_16 C14_16 1_555 1_555
C15_16 C5_16 1_555 1_555
H9_16 C15_16 1_555 1_555
C16_16 N2_16 1_555 1_555
H10_16 C16_16 1_555 1_555
C17_16 C16_16 1_555 1_555
H11_16 C17_16 1_555 1_555
C18_16 N3_5 1_555 1_555
H12_16 C18_16 1_555 1_555
N2_16 C18_16 1_555 1_555
C6_16 C7_16 1_555 1_555
C12_16 C15_16 1_555 1_555
C13_16 C14_16 1_555 1_555
Zn1_5 O1_17 1_555 1_555
N1_9 C17_17 1_555 1_555
N2_17 C15_17 1_555 1_555
O1_17 C1_17 1_555 1_555
O2_17 Zn1_5 1_555 1_555
O3_9 C8_17 1_555 1_555
O4_9 C8_17 1_555 1_555
C1_17 O2_17 1_555 1_555
C2_17 C1_17 1_555 1_555
C3_17 C2_17 1_555 1_555
H1_17 C3_17 1_555 1_555
C4_17 C3_17 1_555 1_555
H2_17 C4_17 1_555 1_555
C5_17 C4_17 1_555 1_555
C6_17 C5_17 1_555 1_555
H3_17 C6_17 1_555 1_555
C7_17 C2_17 1_555 1_555
H4_17 C7_17 1_555 1_555
C8_17 C9_17 1_555 1_555
C9_17 C10_17 1_555 1_555
C10_17 H5_17 1_555 1_555
C11_17 C10_17 1_555 1_555
H6_17 C11_17 1_555 1_555
C12_17 C11_17 1_555 1_555
C13_17 C12_17 1_555 1_555
H7_17 C13_17 1_555 1_555
C14_17 C9_17 1_555 1_555
H8_17 C14_17 1_555 1_555
C15_17 C5_17 1_555 1_555
H9_17 C15_17 1_555 1_555
C16_17 N2_17 1_555 1_555
H10_17 C16_17 1_555 1_555
C17_17 C16_17 1_555 1_555
H11_17 C17_17 1_555 1_555
C18_17 N1_9 1_555 1_555
H12_17 C18_17 1_555 1_555
Zn2_5 N1_9 1_555 1_555
Zn3_5 O3_9 1_555 1_555
N3_9 Zn1_5 1_555 1_555
O5_9 Zn1_5 1_555 1_555
O6_9 Zn1_5 1_555 1_555
N2_17 C18_17 1_555 1_555
C6_17 C7_17 1_555 1_555
C12_17 C15_17 1_555 1_555
C13_17 C14_17 1_555 1_555
Zn1_6 O1_18 1_555 1_555
N1_10 C17_18 1_555 1_555
N2_18 C15_18 1_555 1_555
O1_18 C1_18 1_555 1_555
O2_18 Zn1_6 1_555 1_555
O3_10 C8_18 1_555 1_555
O4_10 C8_18 1_555 1_555
C1_18 O2_18 1_555 1_555
C2_18 C1_18 1_555 1_555
C3_18 C2_18 1_555 1_555
H1_18 C3_18 1_555 1_555
C4_18 C3_18 1_555 1_555
H2_18 C4_18 1_555 1_555
C5_18 C4_18 1_555 1_555
C6_18 C5_18 1_555 1_555
H3_18 C6_18 1_555 1_555
C7_18 C2_18 1_555 1_555
H4_18 C7_18 1_555 1_555
C8_18 C9_18 1_555 1_555
C9_18 C10_18 1_555 1_555
C10_18 H5_18 1_555 1_555
C11_18 C10_18 1_555 1_555
H6_18 C11_18 1_555 1_555
C12_18 C11_18 1_555 1_555
C13_18 C12_18 1_555 1_555
H7_18 C13_18 1_555 1_555
C14_18 C9_18 1_555 1_555
H8_18 C14_18 1_555 1_555
C15_18 C5_18 1_555 1_555
H9_18 C15_18 1_555 1_555
C16_18 N2_18 1_555 1_555
H10_18 C16_18 1_555 1_555
C17_18 C16_18 1_555 1_555
H11_18 C17_18 1_555 1_555
C18_18 N1_10 1_555 1_555
H12_18 C18_18 1_555 1_555
Zn2_6 N1_10 1_555 1_555
Zn3_6 O3_10 1_555 1_555
Zn4_6 O4_10 1_555 1_555
N3_10 Zn1_6 1_555 1_555
O5_10 Zn1_6 1_555 1_555
O6_10 Zn1_6 1_555 1_555
N2_18 C18_18 1_555 1_555
C6_18 C7_18 1_555 1_555
C12_18 C15_18 1_555 1_555
C13_18 C14_18 1_555 1_555
Zn3_7 O3_11 1_555 1_555
O4_11 C8_19 1_555 1_555
C8_19 C9_19 1_555 1_555
C9_19 C10_19 1_555 1_555
H7_19 C13_19 1_555 1_555
C14_19 C9_19 1_555 1_555
H8_19 C14_19 1_555 1_555
Zn4_7 O4_11 1_555 1_555
C13_19 C14_19 1_555 1_555
N1_11 C17_19 1_555 1_555
N2_19 C15_19 1_555 1_555
O1_19 C1_19 1_555 1_555
C1_19 O2_19 1_555 1_555
C2_19 C1_19 1_555 1_555
C3_19 C2_19 1_555 1_555
H1_19 C3_19 1_555 1_555
C4_19 C3_19 1_555 1_555
H2_19 C4_19 1_555 1_555
C5_19 C4_19 1_555 1_555
C6_19 C5_19 1_555 1_555
H3_19 C6_19 1_555 1_555
C7_19 C2_19 1_555 1_555
H4_19 C7_19 1_555 1_555
H6_19 C11_19 1_555 1_555
C12_19 C11_19 1_555 1_555
C15_19 C5_19 1_555 1_555
H9_19 C15_19 1_555 1_555
C16_19 N2_19 1_555 1_555
H10_19 C16_19 1_555 1_555
C17_19 C16_19 1_555 1_555
H11_19 C17_19 1_555 1_555
C18_19 N1_11 1_555 1_555
H12_19 C18_19 1_555 1_555
Zn2_7 N1_11 1_555 1_555
N2_19 C18_19 1_555 1_555
C6_19 C7_19 1_555 1_555
C12_19 C15_19 1_555 1_555
N3_11 Zn1_7 1_555 1_555
O5_11 Zn1_7 1_555 1_555
Zn1_8 O1_20 1_555 1_555
N1_12 C17_20 1_555 1_555
N2_20 C15_20 1_555 1_555
O1_20 C1_20 1_555 1_555
O2_20 Zn1_8 1_555 1_555
C1_20 O2_20 1_555 1_555
C2_20 C1_20 1_555 1_555
C3_20 C2_20 1_555 1_555
H1_20 C3_20 1_555 1_555
C4_20 C3_20 1_555 1_555
H2_20 C4_20 1_555 1_555
C5_20 C4_20 1_555 1_555
C6_20 C5_20 1_555 1_555
H3_20 C6_20 1_555 1_555
C7_20 C2_20 1_555 1_555
H4_20 C7_20 1_555 1_555
H6_20 C11_20 1_555 1_555
C12_20 C11_20 1_555 1_555
C15_20 C5_20 1_555 1_555
H9_20 C15_20 1_555 1_555
C16_20 N2_20 1_555 1_555
H10_20 C16_20 1_555 1_555
C17_20 C16_20 1_555 1_555
H11_20 C17_20 1_555 1_555
C18_20 N1_12 1_555 1_555
H12_20 C18_20 1_555 1_555
Zn2_8 N1_12 1_555 1_555
N3_12 Zn1_8 1_555 1_555
O5_12 Zn1_8 1_555 1_555
O6_12 Zn1_8 1_555 1_555
N2_20 C18_20 1_555 1_555
C6_20 C7_20 1_555 1_555
C12_20 C15_20 1_555 1_555
O3_12 C8_20 1_555 1_555
O4_12 C8_20 1_555 1_555
C8_20 C9_20 1_555 1_555
C9_20 C10_20 1_555 1_555
C10_20 H5_20 1_555 1_555
H7_20 C13_20 1_555 1_555
C14_20 C9_20 1_555 1_555
H8_20 C14_20 1_555 1_555
Zn3_8 O3_12 1_555 1_555
Zn4_8 O4_12 1_555 1_555
C13_20 C14_20 1_555 1_555
Zn2_8 O1_21 1_555 1_555
N2_21 C15_21 1_555 1_555
O1_21 C1_21 1_555 1_555
O2_21 Zn2_8 1_555 1_555
O3_13 C8_21 1_555 1_555
O4_13 C8_21 1_555 1_555
C1_21 O2_21 1_555 1_555
C2_21 C1_21 1_555 1_555
C3_21 C2_21 1_555 1_555
H1_21 C3_21 1_555 1_555
C4_21 C3_21 1_555 1_555
H2_21 C4_21 1_555 1_555
C5_21 C4_21 1_555 1_555
C6_21 C5_21 1_555 1_555
H3_21 C6_21 1_555 1_555
C7_21 C2_21 1_555 1_555
H4_21 C7_21 1_555 1_555
C8_21 C9_21 1_555 1_555
C9_21 C10_21 1_555 1_555
C10_21 H5_21 1_555 1_555
C11_21 C10_21 1_555 1_555
H6_21 C11_21 1_555 1_555
C12_21 C11_21 1_555 1_555
C13_21 C12_21 1_555 1_555
H7_21 C13_21 1_555 1_555
C14_21 C9_21 1_555 1_555
H8_21 C14_21 1_555 1_555
C15_21 C5_21 1_555 1_555
H9_21 C15_21 1_555 1_555
Zn4_6 O3_13 1_555 1_555
Zn3_6 O4_13 1_555 1_555
O5_13 Zn2_8 1_555 1_555
O6_13 Zn2_8 1_555 1_555
C6_21 C7_21 1_555 1_555
C12_21 C15_21 1_555 1_555
C13_21 C14_21 1_555 1_555
N3_11 C17_21 1_555 1_555
H10_21 C16_21 1_555 1_555
C17_21 C16_21 1_555 1_555
H11_21 C17_21 1_555 1_555
C18_21 N3_11 1_555 1_555
N3_12 C17_22 1_555 1_555
H10_22 C16_22 1_555 1_555
C17_22 C16_22 1_555 1_555
H11_22 C17_22 1_555 1_555
C18_22 N3_12 1_555 1_555
Zn2_7 O1_22 1_555 1_555
N2_22 C15_22 1_555 1_555
O1_22 C1_22 1_555 1_555
O2_22 Zn2_7 1_555 1_555
O3_14 C8_22 1_555 1_555
O4_14 C8_22 1_555 1_555
C1_22 O2_22 1_555 1_555
C2_22 C1_22 1_555 1_555
C3_22 C2_22 1_555 1_555
H1_22 C3_22 1_555 1_555
C4_22 C3_22 1_555 1_555
H2_22 C4_22 1_555 1_555
C5_22 C4_22 1_555 1_555
C6_22 C5_22 1_555 1_555
H3_22 C6_22 1_555 1_555
C7_22 C2_22 1_555 1_555
H4_22 C7_22 1_555 1_555
C8_22 C9_22 1_555 1_555
C9_22 C10_22 1_555 1_555
C10_22 H5_22 1_555 1_555
C11_22 C10_22 1_555 1_555
H6_22 C11_22 1_555 1_555
C12_22 C11_22 1_555 1_555
C13_22 C12_22 1_555 1_555
H7_22 C13_22 1_555 1_555
C14_22 C9_22 1_555 1_555
H8_22 C14_22 1_555 1_555
C15_22 C5_22 1_555 1_555
H9_22 C15_22 1_555 1_555
Zn4_5 O3_14 1_555 1_555
O5_14 Zn2_7 1_555 1_555
O6_14 Zn2_7 1_555 1_555
C6_22 C7_22 1_555 1_555
C12_22 C15_22 1_555 1_555
C13_22 C14_22 1_555 1_555
Zn2_5 O1_23 1_555 1_555
N3_10 C17_23 1_555 1_555
N2_23 C15_23 1_555 1_555
O1_23 C1_23 1_555 1_555
O2_23 Zn2_5 1_555 1_555
O3_15 C8_23 1_555 1_555
O4_15 C8_23 1_555 1_555
C1_23 O2_23 1_555 1_555
C2_23 C1_23 1_555 1_555
C3_23 C2_23 1_555 1_555
H1_23 C3_23 1_555 1_555
C4_23 C3_23 1_555 1_555
H2_23 C4_23 1_555 1_555
C5_23 C4_23 1_555 1_555
C6_23 C5_23 1_555 1_555
H3_23 C6_23 1_555 1_555
C7_23 C2_23 1_555 1_555
H4_23 C7_23 1_555 1_555
C8_23 C9_23 1_555 1_555
C9_23 C10_23 1_555 1_555
C10_23 H5_23 1_555 1_555
C11_23 C10_23 1_555 1_555
H6_23 C11_23 1_555 1_555
C12_23 C11_23 1_555 1_555
C13_23 C12_23 1_555 1_555
H7_23 C13_23 1_555 1_555
C14_23 C9_23 1_555 1_555
H8_23 C14_23 1_555 1_555
C15_23 C5_23 1_555 1_555
H9_23 C15_23 1_555 1_555
C16_23 N2_23 1_555 1_555
H10_23 C16_23 1_555 1_555
C17_23 C16_23 1_555 1_555
H11_23 C17_23 1_555 1_555
C18_23 N3_10 1_555 1_555
H12_23 C18_23 1_555 1_555
Zn4_8 O3_15 1_555 1_555
Zn3_8 O4_15 1_555 1_555
O5_15 Zn2_5 1_555 1_555
O6_15 Zn2_5 1_555 1_555
N2_23 C18_23 1_555 1_555
C6_23 C7_23 1_555 1_555
C12_23 C15_23 1_555 1_555
C13_23 C14_23 1_555 1_555
N3_9 C17_24 1_555 1_555
N2_24 C15_24 1_555 1_555
O1_24 C1_24 1_555 1_555
O4_16 C8_24 1_555 1_555
C1_24 O2_24 1_555 1_555
C2_24 C1_24 1_555 1_555
C3_24 C2_24 1_555 1_555
H1_24 C3_24 1_555 1_555
C4_24 C3_24 1_555 1_555
H2_24 C4_24 1_555 1_555
C5_24 C4_24 1_555 1_555
C6_24 C5_24 1_555 1_555
H3_24 C6_24 1_555 1_555
C7_24 C2_24 1_555 1_555
H4_24 C7_24 1_555 1_555
C8_24 C9_24 1_555 1_555
C9_24 C10_24 1_555 1_555
C11_24 C10_24 1_555 1_555
H6_24 C11_24 1_555 1_555
C12_24 C11_24 1_555 1_555
C13_24 C12_24 1_555 1_555
H7_24 C13_24 1_555 1_555
C14_24 C9_24 1_555 1_555
H8_24 C14_24 1_555 1_555
C15_24 C5_24 1_555 1_555
H9_24 C15_24 1_555 1_555
C16_24 N2_24 1_555 1_555
H10_24 C16_24 1_555 1_555
C17_24 C16_24 1_555 1_555
H11_24 C17_24 1_555 1_555
C18_24 N3_9 1_555 1_555
H12_24 C18_24 1_555 1_555
Zn3_7 O4_16 1_555 1_555
N2_24 C18_24 1_555 1_555
C6_24 C7_24 1_555 1_555
C12_24 C15_24 1_555 1_555
C13_24 C14_24 1_555 1_555
O5_16 Zn2_6 1_555 1_555
Zn4_7 O3_16 1_555 1_555
Zn4_7 O1_25 1_555 1_555
N1_13 C17_25 1_555 1_555
N2_25 C15_25 1_555 1_555
O1_25 C1_25 1_555 1_555
O2_25 Zn4_7 1_555 1_555
O5_12 C8_25 1_555 1_555
O6_15 C8_25 1_555 1_555
C1_25 O2_25 1_555 1_555
C2_25 C1_25 1_555 1_555
C3_25 C2_25 1_555 1_555
H1_25 C3_25 1_555 1_555
C4_25 C3_25 1_555 1_555
H2_25 C4_25 1_555 1_555
C5_25 C4_25 1_555 1_555
C6_25 C5_25 1_555 1_555
H3_25 C6_25 1_555 1_555
C7_25 C2_25 1_555 1_555
H4_25 C7_25 1_555 1_555
C8_25 C9_25 1_555 1_555
C9_25 C10_25 1_555 1_555
C10_25 H5_25 1_555 1_555
C11_25 C10_25 1_555 1_555
H6_25 C11_25 1_555 1_555
C12_25 C11_25 1_555 1_555
C13_25 C12_25 1_555 1_555
H7_25 C13_25 1_555 1_555
C14_25 C9_25 1_555 1_555
H8_25 C14_25 1_555 1_555
C15_25 C5_25 1_555 1_555
H9_25 C15_25 1_555 1_555
C16_25 N2_25 1_555 1_555
H10_25 C16_25 1_555 1_555
C17_25 C16_25 1_555 1_555
H11_25 C17_25 1_555 1_555
C18_25 N1_13 1_555 1_555
H12_25 C18_25 1_555 1_555
Zn4_5 N1_13 1_555 1_555
N3_13 Zn4_7 1_555 1_555
N2_25 C18_25 1_555 1_555
C6_25 C7_25 1_555 1_555
C12_25 C15_25 1_555 1_555
C13_25 C14_25 1_555 1_555
Zn4_8 O1_26 1_555 1_555
N1_14 C17_26 1_555 1_555
N2_26 C15_26 1_555 1_555
O1_26 C1_26 1_555 1_555
O2_26 Zn4_8 1_555 1_555
O5_11 C8_26 1_555 1_555
O6_16 C8_26 1_555 1_555
C1_26 O2_26 1_555 1_555
C2_26 C1_26 1_555 1_555
C3_26 C2_26 1_555 1_555
H1_26 C3_26 1_555 1_555
C4_26 C3_26 1_555 1_555
H2_26 C4_26 1_555 1_555
C5_26 C4_26 1_555 1_555
C6_26 C5_26 1_555 1_555
H3_26 C6_26 1_555 1_555
C7_26 C2_26 1_555 1_555
H4_26 C7_26 1_555 1_555
C8_26 C9_26 1_555 1_555
C9_26 C10_26 1_555 1_555
C10_26 H5_26 1_555 1_555
C11_26 C10_26 1_555 1_555
H6_26 C11_26 1_555 1_555
C12_26 C11_26 1_555 1_555
C13_26 C12_26 1_555 1_555
H7_26 C13_26 1_555 1_555
C14_26 C9_26 1_555 1_555
H8_26 C14_26 1_555 1_555
C15_26 C5_26 1_555 1_555
H9_26 C15_26 1_555 1_555
C16_26 N2_26 1_555 1_555
H10_26 C16_26 1_555 1_555
C17_26 C16_26 1_555 1_555
H11_26 C17_26 1_555 1_555
C18_26 N1_14 1_555 1_555
H12_26 C18_26 1_555 1_555
Zn4_6 N1_14 1_555 1_555
N3_14 Zn4_8 1_555 1_555
N2_26 C18_26 1_555 1_555
C6_26 C7_26 1_555 1_555
C12_26 C15_26 1_555 1_555
C13_26 C14_26 1_555 1_555
N1_15 C17_27 1_555 1_555
N2_27 C15_27 1_555 1_555
O1_27 C1_27 1_555 1_555
C1_27 O2_27 1_555 1_555
C2_27 C1_27 1_555 1_555
C3_27 C2_27 1_555 1_555
H1_27 C3_27 1_555 1_555
C4_27 C3_27 1_555 1_555
H2_27 C4_27 1_555 1_555
C5_27 C4_27 1_555 1_555
C6_27 C5_27 1_555 1_555
H3_27 C6_27 1_555 1_555
C7_27 C2_27 1_555 1_555
H4_27 C7_27 1_555 1_555
H6_27 C11_27 1_555 1_555
C12_27 C11_27 1_555 1_555
C15_27 C5_27 1_555 1_555
H9_27 C15_27 1_555 1_555
C16_27 N2_27 1_555 1_555
H10_27 C16_27 1_555 1_555
C17_27 C16_27 1_555 1_555
H11_27 C17_27 1_555 1_555
C18_27 N1_15 1_555 1_555
H12_27 C18_27 1_555 1_555
Zn3_7 N1_15 1_555 1_555
N2_27 C18_27 1_555 1_555
C6_27 C7_27 1_555 1_555
C12_27 C15_27 1_555 1_555
N3_15 Zn3_6 1_555 1_555
O5_14 C8_27 1_555 1_555
O6_9 C8_27 1_555 1_555
C8_27 C9_27 1_555 1_555
C9_27 C10_27 1_555 1_555
C10_27 H5_27 1_555 1_555
H7_27 C13_27 1_555 1_555
C14_27 C9_27 1_555 1_555
H8_27 C14_27 1_555 1_555
C13_27 C14_27 1_555 1_555
O6_10 C8_28 1_555 1_555
C8_28 C9_28 1_555 1_555
C9_28 C10_28 1_555 1_555
H7_28 C13_28 1_555 1_555
C14_28 C9_28 1_555 1_555
H8_28 C14_28 1_555 1_555
C13_28 C14_28 1_555 1_555
Zn3_5 O1_28 1_555 1_555
N1_16 C17_28 1_555 1_555
N2_28 C15_28 1_555 1_555
O1_28 C1_28 1_555 1_555
O2_28 Zn3_5 1_555 1_555
C1_28 O2_28 1_555 1_555
C2_28 C1_28 1_555 1_555
C3_28 C2_28 1_555 1_555
H1_28 C3_28 1_555 1_555
C4_28 C3_28 1_555 1_555
H2_28 C4_28 1_555 1_555
C5_28 C4_28 1_555 1_555
C6_28 C5_28 1_555 1_555
H3_28 C6_28 1_555 1_555
C7_28 C2_28 1_555 1_555
H4_28 C7_28 1_555 1_555
H6_28 C11_28 1_555 1_555
C12_28 C11_28 1_555 1_555
C15_28 C5_28 1_555 1_555
H9_28 C15_28 1_555 1_555
C16_28 N2_28 1_555 1_555
H10_28 C16_28 1_555 1_555
C17_28 C16_28 1_555 1_555
H11_28 C17_28 1_555 1_555
C18_28 N1_16 1_555 1_555
H12_28 C18_28 1_555 1_555
Zn3_8 N1_16 1_555 1_555
N3_16 Zn3_5 1_555 1_555
N2_28 C18_28 1_555 1_555
C6_28 C7_28 1_555 1_555
C12_28 C15_28 1_555 1_555
N3_15 C17_29 1_555 1_555
H10_29 C16_29 1_555 1_555
C17_29 C16_29 1_555 1_555
H11_29 C17_29 1_555 1_555
C18_29 N3_15 1_555 1_555
Zn3_8 O1_29 1_555 1_555
N2_29 C15_29 1_555 1_555
O1_29 C1_29 1_555 1_555
O2_29 Zn3_8 1_555 1_555
O5_16 C8_29 1_555 1_555
O6_11 C8_29 1_555 1_555
C1_29 O2_29 1_555 1_555
C2_29 C1_29 1_555 1_555
C3_29 C2_29 1_555 1_555
H1_29 C3_29 1_555 1_555
C4_29 C3_29 1_555 1_555
H2_29 C4_29 1_555 1_555
C5_29 C4_29 1_555 1_555
C6_29 C5_29 1_555 1_555
H3_29 C6_29 1_555 1_555
C7_29 C2_29 1_555 1_555
H4_29 C7_29 1_555 1_555
C8_29 C9_29 1_555 1_555
C9_29 C10_29 1_555 1_555
C10_29 H5_29 1_555 1_555
C11_29 C10_29 1_555 1_555
H6_29 C11_29 1_555 1_555
C12_29 C11_29 1_555 1_555
C13_29 C12_29 1_555 1_555
H7_29 C13_29 1_555 1_555
C14_29 C9_29 1_555 1_555
H8_29 C14_29 1_555 1_555
C15_29 C5_29 1_555 1_555
H9_29 C15_29 1_555 1_555
C6_29 C7_29 1_555 1_555
C12_29 C15_29 1_555 1_555
C13_29 C14_29 1_555 1_555
Zn3_7 O1_30 1_555 1_555
N2_30 C15_30 1_555 1_555
O1_30 C1_30 1_555 1_555
O2_30 Zn3_7 1_555 1_555
O5_15 C8_30 1_555 1_555
O6_12 C8_30 1_555 1_555
C1_30 O2_30 1_555 1_555
C2_30 C1_30 1_555 1_555
C3_30 C2_30 1_555 1_555
H1_30 C3_30 1_555 1_555
C4_30 C3_30 1_555 1_555
H2_30 C4_30 1_555 1_555
C5_30 C4_30 1_555 1_555
C6_30 C5_30 1_555 1_555
H3_30 C6_30 1_555 1_555
C7_30 C2_30 1_555 1_555
H4_30 C7_30 1_555 1_555
C8_30 C9_30 1_555 1_555
C9_30 C10_30 1_555 1_555
C10_30 H5_30 1_555 1_555
C11_30 C10_30 1_555 1_555
H6_30 C11_30 1_555 1_555
C12_30 C11_30 1_555 1_555
C13_30 C12_30 1_555 1_555
H7_30 C13_30 1_555 1_555
C14_30 C9_30 1_555 1_555
H8_30 C14_30 1_555 1_555
C15_30 C5_30 1_555 1_555
H9_30 C15_30 1_555 1_555
C6_30 C7_30 1_555 1_555
C12_30 C15_30 1_555 1_555
C13_30 C14_30 1_555 1_555
N3_16 C17_30 1_555 1_555
H10_30 C16_30 1_555 1_555
C17_30 C16_30 1_555 1_555
H11_30 C17_30 1_555 1_555
C18_30 N3_16 1_555 1_555
Zn4_5 O1_31 1_555 1_555
N3_14 C17_31 1_555 1_555
N2_31 C15_31 1_555 1_555
O1_31 C1_31 1_555 1_555
O2_31 Zn4_5 1_555 1_555
O6_13 C8_31 1_555 1_555
C1_31 O2_31 1_555 1_555
C2_31 C1_31 1_555 1_555
C3_31 C2_31 1_555 1_555
H1_31 C3_31 1_555 1_555
C4_31 C3_31 1_555 1_555
H2_31 C4_31 1_555 1_555
C5_31 C4_31 1_555 1_555
C6_31 C5_31 1_555 1_555
H3_31 C6_31 1_555 1_555
C7_31 C2_31 1_555 1_555
H4_31 C7_31 1_555 1_555
C8_31 C9_31 1_555 1_555
C9_31 C10_31 1_555 1_555
C11_31 C10_31 1_555 1_555
H6_31 C11_31 1_555 1_555
C12_31 C11_31 1_555 1_555
C13_31 C12_31 1_555 1_555
H7_31 C13_31 1_555 1_555
C14_31 C9_31 1_555 1_555
H8_31 C14_31 1_555 1_555
C15_31 C5_31 1_555 1_555
H9_31 C15_31 1_555 1_555
C16_31 N2_31 1_555 1_555
H10_31 C16_31 1_555 1_555
C17_31 C16_31 1_555 1_555
H11_31 C17_31 1_555 1_555
C18_31 N3_14 1_555 1_555
H12_31 C18_31 1_555 1_555
N2_31 C18_31 1_555 1_555
C6_31 C7_31 1_555 1_555
C12_31 C15_31 1_555 1_555
C13_31 C14_31 1_555 1_555
N3_13 C17_32 1_555 1_555
N2_32 C15_32 1_555 1_555
O1_32 C1_32 1_555 1_555
O5_9 C8_32 1_555 1_555
O6_14 C8_32 1_555 1_555
C1_32 O2_32 1_555 1_555
C2_32 C1_32 1_555 1_555
C3_32 C2_32 1_555 1_555
H1_32 C3_32 1_555 1_555
C4_32 C3_32 1_555 1_555
H2_32 C4_32 1_555 1_555
C5_32 C4_32 1_555 1_555
C6_32 C5_32 1_555 1_555
H3_32 C6_32 1_555 1_555
C7_32 C2_32 1_555 1_555
H4_32 C7_32 1_555 1_555
C8_32 C9_32 1_555 1_555
C9_32 C10_32 1_555 1_555
C10_32 H5_32 1_555 1_555
C11_32 C10_32 1_555 1_555
H6_32 C11_32 1_555 1_555
C12_32 C11_32 1_555 1_555
C13_32 C12_32 1_555 1_555
H7_32 C13_32 1_555 1_555
C14_32 C9_32 1_555 1_555
H8_32 C14_32 1_555 1_555
C15_32 C5_32 1_555 1_555
H9_32 C15_32 1_555 1_555
C16_32 N2_32 1_555 1_555
H10_32 C16_32 1_555 1_555
C17_32 C16_32 1_555 1_555
H11_32 C17_32 1_555 1_555
C18_32 N3_13 1_555 1_555
H12_32 C18_32 1_555 1_555
N2_32 C18_32 1_555 1_555
C6_32 C7_32 1_555 1_555
C12_32 C15_32 1_555 1_555
C13_32 C14_32 1_555 1_555

#END
