
###############################################################################
#
# This file contains modified crystal structure data generated from the
# MOF subset of the Cambridge Structural Database (CSD) v543 
# hosted by the Cambridge Crystallographic Data Centre (CCDC).
#
# This work is licensed under the Creative Commons
# Attribution-NonCommercial-ShareAlike 4.0 International License.
# To view a copy of this license, visit
# http://creativecommons.org/licenses/by-nc-sa/4.0/
# or send a letter to
# Creative Commons, PO Box 1866, Mountain View, CA 94042, USA.
#
# CIF created using the CSD Python API on 29 September 2022
# The structure has been converted into the P1 space group
# The structure has a 3D framework
# The original CSD entry FOCZAA is in the triclinic crystal system
# The framework has been calculated to contain at least 10.0% void space
# The void calculation uses a probe of radius 1.32A, grid spacing 0.4
#
###############################################################################

data_FOCZAA
_chemical_formula_moiety         '(C68 H38 Nd2 O16)n'
_symmetry_cell_setting           triclinic
_symmetry_space_group_name_H-M   'P 1'
_symmetry_Int_Tables_number      1
_space_group_name_Hall           'P 1'
loop_
_symmetry_equiv_pos_site_id
_symmetry_equiv_pos_as_xyz
1 x,y,z
_cell_length_a                   9.5256(5)
_cell_length_b                   12.1272(6)
_cell_length_c                   15.8886(8)
_cell_angle_alpha                88.508(2)
_cell_angle_beta                 74.677(2)
_cell_angle_gamma                70.379(2)
_cell_volume                     1663.42
loop_
_atom_site_label
_atom_site_type_symbol
_atom_site_fract_x
_atom_site_fract_y
_atom_site_fract_z
O9 O 0.2368(3) 0.0654(2) 0.16480(17)
O10 O 0.4471(3) 0.0953(2) 0.08481(17)
O15 O 0.0310(3) 0.1182(2) 0.03858(16)
O13 O 0.3181(3) 0.1271(2) 0.92602(18)
Nd4 Nd 0.29541(2) 0.97580(2) 0.01839(2)
O1 O 0.1311(3) 0.8829(2) 0.11647(18)
O2 O 0.0127(3) 0.7588(2) 0.09793(18)
O5 O 0.5357(3) 0.1666(2) 0.91133(18)
O7 O 0.2080(3) 0.8922(2) 0.91378(17)
C1 C 0.2242(4) 0.5509(3) 0.4403(2)
C2 C 0.2731(4) 0.4275(3) 0.4413(2)
C3 C 0.3025(5) 0.3765(3) 0.5169(2)
H2 H 0.3369 0.2934 0.5167
C4 C 0.2843(4) 0.4409(3) 0.5935(2)
C5 C 0.2328(4) 0.5641(3) 0.5930(2)
C6 C 0.2070(4) 0.6152(3) 0.5163(2)
H3 H 0.1761 0.6983 0.5157
C7 C 0.1864(4) 0.6150(3) 0.3634(2)
C8 C 0.2195(5) 0.7185(3) 0.3433(2)
H4 H 0.2646 0.7484 0.3800
C9 C 0.1880(5) 0.7780(3) 0.2713(3)
H5 H 0.2120 0.8476 0.2588
C10 C 0.1205(5) 0.7356(3) 0.2169(2)
C11 C 0.0856(5) 0.6335(3) 0.2366(3)
H6 H 0.0411 0.6036 0.1996
C12 C 0.1153(5) 0.5755(3) 0.3093(2)
H7 H 0.0871 0.5077 0.3230
C13 C 0.0900(5) 0.7985(3) 0.1394(2)
C14 C 0.2944(4) 0.3458(3) 0.3668(2)
C15 C 0.4044(5) 0.3368(3) 0.2872(3)
H8 H 0.4659 0.3858 0.2787
C16 C 0.4251(5) 0.2566(3) 0.2199(3)
H9 H 0.5045 0.2481 0.1671
C17 C 0.3295(4) 0.1889(3) 0.2299(2)
C18 C 0.2194(5) 0.1985(3) 0.3087(2)
H10 H 0.1535 0.1531 0.3158
C19 C 0.2040(5) 0.2735(3) 0.3773(2)
H11 H 0.1316 0.2760 0.4320
C20 C 0.3388(5) 0.1114(3) 0.1558(2)
C21 C 0.3208(4) 0.3745(3) 0.6695(2)
C22 C 0.2765(5) 0.2756(3) 0.6894(2)
H12 H 0.2257 0.2511 0.6533
C23 C 0.3056(5) 0.2133(3) 0.7605(3)
H13 H 0.2720 0.1478 0.7737
C24 C 0.3839(5) 0.2455(3) 0.8132(2)
C25 C 0.4332(5) 0.3414(3) 0.7920(2)
H14 H 0.4901 0.3627 0.8257
C26 C 0.3997(5) 0.4053(3) 0.7222(2)
H15 H 0.4311 0.4719 0.7099
C27 C 0.4152(5) 0.1754(3) 0.8896(3)
C28 C 0.1942(4) 0.6433(3) 0.6724(2)
C29 C 0.0962(5) 0.6303(3) 0.7511(2)
H16 H 0.0537 0.5693 0.7545
C30 C 0.0589(5) 0.7045(3) 0.8249(2)
C31 C 0.1257(4) 0.7907(3) 0.8216(2)
C32 C 0.2218(5) 0.8063(3) 0.7433(2)
H18 H 0.2661 0.8662 0.7406
C33 C 0.2541(5) 0.7345(3) 0.6684(2)
H19 H 0.3168 0.7477 0.6145
C34 C 0.0987(5) 0.8617(3) 0.9038(2)
Nd7 Nd 0.70459(2) 0.02420(2) 0.98161(2)
O12 O 0.4643(3) 0.8334(2) 0.08867(18)
O11 O 0.5529(3) 0.9047(2) 0.91519(17)
H1 H 0.9874 0.8048 0.0598
O8 O 0.9690(3) 0.8818(2) 0.96142(16)
H17 H 0.9882 0.6962 0.8774
H1_2 H 0.0126 0.1952 0.9402
H17_2 H 0.0118 0.3038 0.1226
O14 O 0.7920(3) 0.1078(2) 0.08622(17)
O1_2 O 0.8689(3) 0.1171(2) 0.88353(18)
O2_2 O 0.9873(3) 0.2412(2) 0.90207(18)
O3 O 0.7632(3) 0.9346(2) 0.83520(17)
O6 O 0.6819(3) 0.8729(2) 0.07398(18)
C1_2 C 0.7758(4) 0.4491(3) 0.5597(2)
C2_2 C 0.7269(4) 0.5725(3) 0.5587(2)
C3_2 C 0.6975(5) 0.6235(3) 0.4831(2)
H2_2 H 0.6631 0.7066 0.4833
C4_2 C 0.7157(4) 0.5591(3) 0.4065(2)
C5_2 C 0.7672(4) 0.4359(3) 0.4070(2)
C6_2 C 0.7930(4) 0.3848(3) 0.4837(2)
H3_2 H 0.8239 0.3017 0.4843
C7_2 C 0.8136(4) 0.3850(3) 0.6366(2)
C8_2 C 0.7805(5) 0.2815(3) 0.6567(2)
H4_2 H 0.7354 0.2516 0.6200
C9_2 C 0.8120(5) 0.2220(3) 0.7287(3)
H5_2 H 0.7880 0.1524 0.7412
C10_2 C 0.8795(5) 0.2644(3) 0.7831(2)
C11_2 C 0.9144(5) 0.3665(3) 0.7634(3)
H6_2 H 0.9589 0.3964 0.8004
C12_2 C 0.8847(5) 0.4245(3) 0.6907(2)
H7_2 H 0.9129 0.4923 0.6770
C13_2 C 0.9100(5) 0.2015(3) 0.8606(2)
C14_2 C 0.7056(4) 0.6542(3) 0.6332(2)
C15_2 C 0.5956(5) 0.6632(3) 0.7128(3)
H8_2 H 0.5341 0.6142 0.7213
C16_2 C 0.5749(5) 0.7434(3) 0.7801(3)
H9_2 H 0.4955 0.7519 0.8329
C17_2 C 0.6705(4) 0.8111(3) 0.7701(2)
C18_2 C 0.7806(5) 0.8015(3) 0.6913(2)
H10_2 H 0.8465 0.8469 0.6842
C19_2 C 0.7960(5) 0.7265(3) 0.6227(2)
H11_2 H 0.8684 0.7240 0.5680
C20_2 C 0.6612(5) 0.8886(3) 0.8442(2)
C21_2 C 0.6792(4) 0.6255(3) 0.3305(2)
C22_2 C 0.7235(5) 0.7244(3) 0.3106(2)
H12_2 H 0.7743 0.7489 0.3467
C23_2 C 0.6944(5) 0.7867(3) 0.2395(3)
H13_2 H 0.7280 0.8522 0.2263
C24_2 C 0.6161(5) 0.7545(3) 0.1868(2)
C25_2 C 0.5668(5) 0.6586(3) 0.2080(2)
H14_2 H 0.5099 0.6373 0.1743
C26_2 C 0.6003(5) 0.5947(3) 0.2778(2)
H15_2 H 0.5689 0.5281 0.2901
C27_2 C 0.5848(5) 0.8246(3) 0.1104(3)
C28_2 C 0.8058(4) 0.3567(3) 0.3276(2)
C29_2 C 0.9038(5) 0.3697(3) 0.2489(2)
H16_2 H 0.9463 0.4307 0.2455
C30_2 C 0.9411(5) 0.2955(3) 0.1751(2)
C31_2 C 0.8743(4) 0.2093(3) 0.1784(2)
C32_2 C 0.7782(5) 0.1937(3) 0.2567(2)
H18_2 H 0.7339 0.1338 0.2594
C33_2 C 0.7459(5) 0.2655(3) 0.3316(2)
H19_2 H 0.6832 0.2523 0.3855
C34_2 C 0.9013(5) 0.1383(3) 0.0962(2)
loop_
_geom_bond_atom_site_label_1
_geom_bond_atom_site_label_2
_geom_bond_site_symmetry_1
_geom_bond_site_symmetry_2
Nd4 O1 1_555 1_555
O1 C13 1_555 1_555
O9 C20 1_555 1_555
O10 C20 1_555 1_555
O5 C27 1_555 1_555
O13 C27 1_555 1_555
O7 C34 1_555 1_555
C1 C2 1_555 1_555
C2 C3 1_555 1_555
C3 H2 1_555 1_555
C4 C3 1_555 1_555
C5 C4 1_555 1_555
C6 C1 1_555 1_555
H3 C6 1_555 1_555
C7 C1 1_555 1_555
C8 C7 1_555 1_555
H4 C8 1_555 1_555
C9 C8 1_555 1_555
H5 C9 1_555 1_555
C10 C9 1_555 1_555
C11 C10 1_555 1_555
H6 C11 1_555 1_555
C12 C7 1_555 1_555
H7 C12 1_555 1_555
C13 O2 1_555 1_555
C14 C2 1_555 1_555
C15 C14 1_555 1_555
H8 C15 1_555 1_555
C16 C15 1_555 1_555
H9 C16 1_555 1_555
C17 C16 1_555 1_555
C18 C17 1_555 1_555
H10 C18 1_555 1_555
C19 C14 1_555 1_555
H11 C19 1_555 1_555
C20 C17 1_555 1_555
C21 C4 1_555 1_555
C22 C21 1_555 1_555
H12 C22 1_555 1_555
C23 C22 1_555 1_555
H13 C23 1_555 1_555
C24 C23 1_555 1_555
C25 C24 1_555 1_555
H14 C25 1_555 1_555
C26 C21 1_555 1_555
H15 C26 1_555 1_555
C27 C24 1_555 1_555
C28 C5 1_555 1_555
C29 C28 1_555 1_555
H16 C29 1_555 1_555
C30 C29 1_555 1_555
C31 C30 1_555 1_555
C32 C31 1_555 1_555
H18 C32 1_555 1_555
C33 C28 1_555 1_555
H19 C33 1_555 1_555
C34 C31 1_555 1_555
Nd7 O5 1_555 1_555
O12 Nd4 1_555 1_555
C5 C6 1_555 1_555
C10 C13 1_555 1_555
C11 C12 1_555 1_555
C18 C19 1_555 1_555
C25 C26 1_555 1_555
C32 C33 1_555 1_555
Nd7 O1_2 1_555 1_555
O1_2 C13_2 1_555 1_555
O3 C20_2 1_555 1_555
O11 C20_2 1_555 1_555
O12 C27_2 1_555 1_555
O6 C27_2 1_555 1_555
O14 C34_2 1_555 1_555
C1_2 C2_2 1_555 1_555
C2_2 C3_2 1_555 1_555
C3_2 H2_2 1_555 1_555
C4_2 C3_2 1_555 1_555
C5_2 C4_2 1_555 1_555
C6_2 C1_2 1_555 1_555
H3_2 C6_2 1_555 1_555
C7_2 C1_2 1_555 1_555
C8_2 C7_2 1_555 1_555
H4_2 C8_2 1_555 1_555
C9_2 C8_2 1_555 1_555
H5_2 C9_2 1_555 1_555
C10_2 C9_2 1_555 1_555
C11_2 C10_2 1_555 1_555
H6_2 C11_2 1_555 1_555
C12_2 C7_2 1_555 1_555
H7_2 C12_2 1_555 1_555
C13_2 O2_2 1_555 1_555
C14_2 C2_2 1_555 1_555
C15_2 C14_2 1_555 1_555
H8_2 C15_2 1_555 1_555
C16_2 C15_2 1_555 1_555
H9_2 C16_2 1_555 1_555
C17_2 C16_2 1_555 1_555
C18_2 C17_2 1_555 1_555
H10_2 C18_2 1_555 1_555
C19_2 C14_2 1_555 1_555
H11_2 C19_2 1_555 1_555
C20_2 C17_2 1_555 1_555
C21_2 C4_2 1_555 1_555
C22_2 C21_2 1_555 1_555
H12_2 C22_2 1_555 1_555
C23_2 C22_2 1_555 1_555
H13_2 C23_2 1_555 1_555
C24_2 C23_2 1_555 1_555
C25_2 C24_2 1_555 1_555
H14_2 C25_2 1_555 1_555
C26_2 C21_2 1_555 1_555
H15_2 C26_2 1_555 1_555
C27_2 C24_2 1_555 1_555
C28_2 C5_2 1_555 1_555
C29_2 C28_2 1_555 1_555
H16_2 C29_2 1_555 1_555
C30_2 C29_2 1_555 1_555
C31_2 C30_2 1_555 1_555
C32_2 C31_2 1_555 1_555
H18_2 C32_2 1_555 1_555
C33_2 C28_2 1_555 1_555
H19_2 C33_2 1_555 1_555
C34_2 C31_2 1_555 1_555
C5_2 C6_2 1_555 1_555
C10_2 C13_2 1_555 1_555
C11_2 C12_2 1_555 1_555
C18_2 C19_2 1_555 1_555
C25_2 C26_2 1_555 1_555
C32_2 C33_2 1_555 1_555

#END
