
###############################################################################
#
# This file contains modified crystal structure data generated from the
# MOF subset of the Cambridge Structural Database (CSD) v543 
# hosted by the Cambridge Crystallographic Data Centre (CCDC).
#
# This work is licensed under the Creative Commons
# Attribution-NonCommercial-ShareAlike 4.0 International License.
# To view a copy of this license, visit
# http://creativecommons.org/licenses/by-nc-sa/4.0/
# or send a letter to
# Creative Commons, PO Box 1866, Mountain View, CA 94042, USA.
#
# CIF created using the CSD Python API on 29 September 2022
# The structure has been converted into the P1 space group
# The structure has a 3D framework
# The original CSD entry FODCOS is in the monoclinic crystal system
# The framework has been calculated to contain at least 10.0% void space
# The void calculation uses a probe of radius 1.32A, grid spacing 0.4
#
###############################################################################

data_FODCOS
_chemical_formula_moiety         '(C176 H144 Cu8 N32 O32)n'
_symmetry_cell_setting           triclinic
_symmetry_space_group_name_H-M   'P 1'
_symmetry_Int_Tables_number      1
_space_group_name_Hall           'P 1'
loop_
_symmetry_equiv_pos_site_id
_symmetry_equiv_pos_as_xyz
1 x,y,z
_cell_length_a                   14.5663(6)
_cell_length_b                   13.4855(5)
_cell_length_c                   24.6581(14)
_cell_angle_alpha                90
_cell_angle_beta                 94.734(2)
_cell_angle_gamma                90
_cell_volume                     4827.16
loop_
_atom_site_label
_atom_site_type_symbol
_atom_site_fract_x
_atom_site_fract_y
_atom_site_fract_z
Cu1 Cu 0.15430(3) 0.24001(3) 0.305697(16)
O1 O 0.28625(19) 0.13002(19) 0.18429(10)
O2 O 0.21212(18) 0.11728(18) 0.25971(10)
N2 N 0.2348(2) 0.1868(2) 0.36990(12)
C1 C 0.2403(2) 0.0834(2) 0.21689(14)
C16 C 0.2815(3) 0.2455(3) 0.40582(15)
H13 H 0.2789 0.3153 0.4007
C17 C 0.3344(3) 0.2069(3) 0.45091(16)
H14 H 0.3672 0.2505 0.4758
C18 C 0.3390(2) 0.1063(3) 0.45943(14)
C19 C 0.2898(2) 0.0460(3) 0.42134(14)
C20 C 0.2398(2) 0.0883(3) 0.37768(14)
H16 H 0.2073 0.0461 0.3519
C21 C 0.3892(2) 0.0673(3) 0.50885(14)
H17 H 0.4234 0.1117 0.5326
Cu4 Cu 0.34570(3) 0.25999(3) 0.194303(16)
O5 O 0.21375(19) 0.36998(19) 0.31571(10)
O6 O 0.04508(16) 0.15901(18) 0.32490(10)
O7 O 0.0386(2) 0.2793(2) 0.38477(15)
N5 N 0.07862(19) 0.2841(2) 0.23764(11)
O3 O 0.95492(16) 0.65901(18) 0.17510(10)
O4 O 0.9614(2) 0.7793(2) 0.11523(15)
C8 C 0.9939(2) 0.7025(3) 0.13758(15)
Cu3 Cu 0.84570(3) 0.74001(3) 0.194303(16)
N1 N 0.92138(19) 0.7841(2) 0.26236(11)
C11 C 0.9388(2) 0.8805(2) 0.27380(14)
H9 H 0.9181 0.9292 0.2478
C12 C 0.9857(2) 0.9111(3) 0.32202(14)
H10 H 0.9971 0.9795 0.3289
C15 C 0.9543(2) 0.7157(2) 0.29844(14)
H12 H 0.9446 0.6476 0.2899
C11_2 C 0.0612(2) 0.3805(2) 0.22620(14)
H9_2 H 0.0819 0.4292 0.2522
C12_2 C 0.0143(2) 0.4111(3) 0.17798(14)
H10_2 H 0.0029 0.4795 0.1711
C15_2 C 0.0457(2) 0.2157(2) 0.20156(14)
H12_2 H 0.0554 0.1476 0.2101
C8_2 C 0.0061(2) 0.2025(3) 0.36242(15)
O1_2 O 0.71375(19) 0.63002(19) 0.31571(10)
O2_2 O 0.78788(18) 0.61728(18) 0.24029(10)
N2_2 N 0.7652(2) 0.6868(2) 0.13010(12)
C1_2 C 0.7597(2) 0.5834(2) 0.28311(14)
C2 C 0.7797(2) 0.4764(2) 0.29681(13)
C3 C 0.7452(3) 0.4315(3) 0.34165(17)
H1 H 0.7083 0.4688 0.3643
C4 C 0.7644(3) 0.3325(3) 0.35362(18)
H2 H 0.7412 0.3030 0.3847
C5 C 0.8173(2) 0.2761(3) 0.32052(16)
C6 C 0.8508(2) 0.3213(3) 0.27551(15)
H3 H 0.8868 0.2840 0.2524
C7 C 0.8324(2) 0.4199(3) 0.26408(15)
H4 H 0.8562 0.4495 0.2332
C9 C 0.9184(3) 0.1588(3) 0.37917(16)
H5 H 0.9010 0.1927 0.4124
H6 H 0.9282 0.0878 0.3879
C10 C 0.8397(3) 0.1689(3) 0.33433(18)
H7 H 0.8571 0.1345 0.3012
H8 H 0.7841 0.1361 0.3463
C16_2 C 0.7185(3) 0.7455(3) 0.09418(15)
H13_2 H 0.7211 0.8153 0.0993
C17_2 C 0.6656(3) 0.7069(3) 0.04909(16)
H14_2 H 0.6328 0.7505 0.0242
C18_2 C 0.6610(2) 0.6063(3) 0.04057(14)
C19_2 C 0.7102(2) 0.5460(3) 0.07866(14)
H15 H 0.7090 0.4760 0.0744
C20_2 C 0.7602(2) 0.5883(3) 0.12232(14)
H16_2 H 0.7927 0.5461 0.1481
Cu4_2 Cu 0.65430(3) 0.75999(3) 0.305697(16)
O5_2 O 0.78625(19) 0.86998(19) 0.18429(10)
N1_2 N 0.42138(19) 0.2159(2) 0.26236(11)
N3 N 0.6119(2) 0.0246(2) 0.47921(12)
N4 N 0.5635(2) 0.0410(2) 0.42776(12)
C2_2 C 0.7797(2) 0.0236(2) 0.79681(13)
C3_2 C 0.7452(3) 0.0685(3) 0.84165(17)
H1_2 H 0.7083 0.0312 0.8643
C4_2 C 0.7644(3) 0.1675(3) 0.85362(18)
H2_2 H 0.7412 0.1970 0.8847
C5_2 C 0.8173(2) 0.2239(3) 0.82052(16)
C6_2 C 0.8508(2) 0.1787(3) 0.77551(15)
H3_2 H 0.8868 0.2160 0.7524
C7_2 C 0.8324(2) 0.0801(3) 0.76408(15)
H4_2 H 0.8562 0.0505 0.7332
C9_2 C 0.9184(3) 0.3412(3) 0.87917(16)
H5_2 H 0.9010 0.3073 0.9124
H6_2 H 0.9282 0.4122 0.8879
C10_2 C 0.8397(3) 0.3311(3) 0.83433(18)
H7_2 H 0.8571 0.3655 0.8012
H8_2 H 0.7841 0.3639 0.8463
C11_3 C 0.4388(2) 0.1195(2) 0.27380(14)
H9_3 H 0.4181 0.0708 0.2478
C12_3 C 0.4857(2) 0.0889(3) 0.32202(14)
H10_3 H 0.4971 0.0205 0.3289
C13 C 0.5159(2) 0.1605(3) 0.36039(14)
C14 C 0.5016(3) 0.2598(3) 0.34744(15)
H11 H 0.5241 0.3102 0.3720
C15_3 C 0.4543(2) 0.2843(2) 0.29844(14)
H12_3 H 0.4446 0.3524 0.2899
H15_2 H 0.7090 0.0240 0.5744
C22 C 0.5623(3) 0.1318(3) 0.41342(14)
H18 H 0.5910 0.1807 0.4368
O3_2 O 0.45492(16) 0.34099(18) 0.17510(10)
O4_2 O 0.4614(2) 0.2207(2) 0.11523(15)
N3_2 N 0.8881(2) 0.0246(2) 0.52079(12)
N4_2 N 0.9365(2) 0.0410(2) 0.57224(12)
C2_3 C 0.7203(2) 0.0236(2) 0.20319(13)
C3_3 C 0.7548(3) 0.0685(3) 0.15835(17)
H1_3 H 0.7917 0.0312 0.1357
C4_3 C 0.7356(3) 0.1675(3) 0.14638(18)
H2_3 H 0.7588 0.1970 0.1153
C5_3 C 0.6827(2) 0.2239(3) 0.17948(16)
C6_3 C 0.6492(2) 0.1787(3) 0.22449(15)
H3_3 H 0.6132 0.2160 0.2476
C7_3 C 0.6676(2) 0.0801(3) 0.23592(15)
H4_3 H 0.6438 0.0505 0.2668
C8_3 C 0.4939(2) 0.2975(3) 0.13758(15)
C9_3 C 0.5816(3) 0.3412(3) 0.12083(16)
H5_3 H 0.5990 0.3073 0.0876
H6_3 H 0.5718 0.4122 0.1121
C10_3 C 0.6603(3) 0.3311(3) 0.16567(18)
H7_3 H 0.6429 0.3655 0.1988
H8_3 H 0.7159 0.3639 0.1537
C13_2 C 0.9841(2) 0.1605(3) 0.63961(14)
C14_2 C 0.9984(3) 0.2598(3) 0.65256(15)
H11_2 H 0.9759 0.3102 0.6280
H15_3 H 0.7910 0.0240 0.4256
C22_2 C 0.9377(3) 0.1318(3) 0.58658(14)
H18_2 H 0.9090 0.1807 0.5632
O2_3 O 0.71212(18) 0.88272(18) 0.25971(10)
N2_3 N 0.7348(2) 0.8132(2) 0.36990(12)
C1_3 C 0.7403(2) 0.9166(2) 0.21689(14)
C16_3 C 0.7815(3) 0.7545(3) 0.40582(15)
H13_3 H 0.7789 0.6847 0.4007
C17_3 C 0.8344(3) 0.7931(3) 0.45091(16)
H14_3 H 0.8672 0.7495 0.4758
C18_3 C 0.8390(2) 0.8937(3) 0.45943(14)
C19_3 C 0.7898(2) 0.9540(3) 0.42134(14)
C20_3 C 0.7398(2) 0.9117(3) 0.37768(14)
H16_3 H 0.7073 0.9539 0.3519
C21_2 C 0.8892(2) 0.9327(3) 0.50885(14)
H17_2 H 0.9234 0.8883 0.5326
O6_2 O 0.54508(16) 0.84099(18) 0.32490(10)
O7_2 O 0.5386(2) 0.7207(2) 0.38477(15)
N5_2 N 0.57862(19) 0.7159(2) 0.23764(11)
O2_4 O 0.28788(18) 0.38272(18) 0.24029(10)
N2_4 N 0.2652(2) 0.3132(2) 0.13010(12)
C1_4 C 0.2597(2) 0.4166(2) 0.28311(14)
C2_4 C 0.2797(2) 0.5236(2) 0.29681(13)
C3_4 C 0.2452(3) 0.5685(3) 0.34165(17)
H1_4 H 0.2083 0.5312 0.3643
C4_4 C 0.2644(3) 0.6675(3) 0.35362(18)
H2_4 H 0.2412 0.6970 0.3847
C5_4 C 0.3173(2) 0.7239(3) 0.32052(16)
C6_4 C 0.3508(2) 0.6787(3) 0.27551(15)
H3_4 H 0.3868 0.7160 0.2524
C7_4 C 0.3324(2) 0.5801(3) 0.26408(15)
H4_4 H 0.3562 0.5505 0.2332
C8_4 C 0.5061(2) 0.7975(3) 0.36242(15)
C9_4 C 0.4184(3) 0.8412(3) 0.37917(16)
H5_4 H 0.4010 0.8073 0.4124
H6_4 H 0.4282 0.9122 0.3879
C10_4 C 0.3397(3) 0.8311(3) 0.33433(18)
H7_4 H 0.3571 0.8655 0.3012
H8_4 H 0.2841 0.8639 0.3463
C16_4 C 0.2185(3) 0.2545(3) 0.09418(15)
H13_4 H 0.2211 0.1847 0.0993
C17_4 C 0.1656(3) 0.2931(3) 0.04909(16)
H14_4 H 0.1328 0.2495 0.0242
C18_4 C 0.1610(2) 0.3937(3) 0.04057(14)
C19_4 C 0.2102(2) 0.4540(3) 0.07866(14)
H15_4 H 0.2090 0.5240 0.0744
C20_4 C 0.2602(2) 0.4117(3) 0.12232(14)
H16_4 H 0.2927 0.4539 0.1481
N3_3 N 0.3881(2) 0.5246(2) 0.02079(12)
N4_3 N 0.4365(2) 0.5410(2) 0.07224(12)
C11_4 C 0.5612(2) 0.6195(2) 0.22620(14)
H9_4 H 0.5819 0.5708 0.2522
C12_4 C 0.5143(2) 0.5889(3) 0.17798(14)
H10_4 H 0.5029 0.5205 0.1711
C13_3 C 0.4841(2) 0.6605(3) 0.13961(14)
C14_3 C 0.4984(3) 0.7598(3) 0.15256(15)
H11_3 H 0.4759 0.8102 0.1280
C15_4 C 0.5457(2) 0.7843(2) 0.20156(14)
H12_4 H 0.5554 0.8524 0.2101
C21_3 C 0.3892(2) 0.4327(3) 0.00885(14)
H17_3 H 0.4234 0.3883 0.0326
C22_3 C 0.4377(3) 0.6318(3) 0.08658(14)
H18_3 H 0.4090 0.6807 0.0632
N1_3 N 0.57862(19) 0.7841(2) 0.73764(11)
N3_4 N 0.3881(2) 0.9754(2) 0.52079(12)
N4_4 N 0.4365(2) 0.9590(2) 0.57224(12)
C2_5 C 0.2203(2) 0.9764(2) 0.20319(13)
C3_5 C 0.2548(3) 0.9315(3) 0.15835(17)
H1_5 H 0.2917 0.9688 0.1357
C4_5 C 0.2356(3) 0.8325(3) 0.14638(18)
H2_5 H 0.2588 0.8030 0.1153
C5_5 C 0.1827(2) 0.7761(3) 0.17948(16)
C6_5 C 0.1492(2) 0.8213(3) 0.22449(15)
H3_5 H 0.1132 0.7840 0.2476
C7_5 C 0.1676(2) 0.9199(3) 0.23592(15)
H4_5 H 0.1438 0.9495 0.2668
C9_5 C 0.0816(3) 0.6588(3) 0.12083(16)
H5_5 H 0.0990 0.6927 0.0876
H6_5 H 0.0718 0.5878 0.1121
C10_5 C 0.1603(3) 0.6689(3) 0.16567(18)
H7_5 H 0.1429 0.6345 0.1988
H8_5 H 0.2159 0.6361 0.1537
C11_5 C 0.5612(2) 0.8805(2) 0.72620(14)
H9_5 H 0.5819 0.9292 0.7522
C12_5 C 0.5143(2) 0.9111(3) 0.67798(14)
H10_5 H 0.5029 0.9795 0.6711
C13_4 C 0.4841(2) 0.8395(3) 0.63961(14)
C14_4 C 0.4984(3) 0.7402(3) 0.65256(15)
H11_4 H 0.4759 0.6898 0.6280
C15_5 C 0.5457(2) 0.7157(2) 0.70156(14)
H12_5 H 0.5554 0.6476 0.7101
H15_5 H 0.2910 0.9760 0.4256
C22_4 C 0.4377(3) 0.8682(3) 0.58658(14)
H18_4 H 0.4090 0.8193 0.5632
Cu2 Cu 0.65430(3) 0.74001(3) 0.805697(16)
Cu1_2 Cu 0.34570(3) 0.24001(3) 0.694303(16)
O1_3 O 0.21375(19) 0.13002(19) 0.81571(10)
O2_5 O 0.28788(18) 0.11728(18) 0.74029(10)
N2_5 N 0.2652(2) 0.1868(2) 0.63010(12)
C1_5 C 0.2597(2) 0.0834(2) 0.78311(14)
C16_5 C 0.2185(3) 0.2455(3) 0.59418(15)
H13_5 H 0.2211 0.3153 0.5993
C17_5 C 0.1656(3) 0.2069(3) 0.54909(16)
H14_5 H 0.1328 0.2505 0.5242
C18_5 C 0.1610(2) 0.1063(3) 0.54057(14)
C19_5 C 0.2102(2) 0.0460(3) 0.57866(14)
C20_5 C 0.2602(2) 0.0883(3) 0.62232(14)
H16_5 H 0.2927 0.0461 0.6481
C21_4 C 0.1108(2) 0.0673(3) 0.49115(14)
H17_4 H 0.0766 0.1117 0.4674
Cu4_3 Cu 0.15430(3) 0.25999(3) 0.805697(16)
O5_3 O 0.28625(19) 0.36998(19) 0.68429(10)
O6_3 O 0.45492(16) 0.15901(18) 0.67510(10)
O7_3 O 0.4614(2) 0.2793(2) 0.61523(15)
N5_3 N 0.42138(19) 0.2841(2) 0.76236(11)
O3_3 O 0.54508(16) 0.65901(18) 0.82490(10)
O4_3 O 0.5386(2) 0.7793(2) 0.88477(15)
N3_5 N 0.1119(2) 0.9754(2) 0.47921(12)
N4_5 N 0.0635(2) 0.9590(2) 0.42776(12)
C2_6 C 0.2797(2) 0.9764(2) 0.79681(13)
C3_6 C 0.2452(3) 0.9315(3) 0.84165(17)
H1_6 H 0.2083 0.9688 0.8643
C4_6 C 0.2644(3) 0.8325(3) 0.85362(18)
H2_6 H 0.2412 0.8030 0.8847
C5_6 C 0.3173(2) 0.7761(3) 0.82052(16)
C6_6 C 0.3508(2) 0.8213(3) 0.77551(15)
H3_6 H 0.3868 0.7840 0.7524
C7_6 C 0.3324(2) 0.9199(3) 0.76408(15)
H4_6 H 0.3562 0.9495 0.7332
C8_5 C 0.5061(2) 0.7025(3) 0.86242(15)
C9_6 C 0.4184(3) 0.6588(3) 0.87917(16)
H5_6 H 0.4010 0.6927 0.9124
H6_6 H 0.4282 0.5878 0.8879
C10_6 C 0.3397(3) 0.6689(3) 0.83433(18)
H7_6 H 0.3571 0.6345 0.8012
H8_6 H 0.2841 0.6361 0.8463
C13_5 C 0.0159(2) 0.8395(3) 0.36039(14)
C14_5 C 0.0016(3) 0.7402(3) 0.34744(15)
H11_5 H 0.0241 0.6898 0.3720
H15_6 H 0.2090 0.9760 0.5744
C22_5 C 0.0623(3) 0.8682(3) 0.41342(14)
H18_5 H 0.0910 0.8193 0.4368
O1_4 O 0.78625(19) 0.63002(19) 0.68429(10)
O2_6 O 0.71212(18) 0.61728(18) 0.75971(10)
N2_6 N 0.7348(2) 0.6868(2) 0.86990(12)
C1_6 C 0.7403(2) 0.5834(2) 0.71689(14)
C2_7 C 0.7203(2) 0.4764(2) 0.70319(13)
C3_7 C 0.7548(3) 0.4315(3) 0.65835(17)
H1_7 H 0.7917 0.4688 0.6357
C4_7 C 0.7356(3) 0.3325(3) 0.64638(18)
H2_7 H 0.7588 0.3030 0.6153
C5_7 C 0.6827(2) 0.2761(3) 0.67948(16)
C6_7 C 0.6492(2) 0.3213(3) 0.72449(15)
H3_7 H 0.6132 0.2840 0.7476
C7_7 C 0.6676(2) 0.4199(3) 0.73592(15)
H4_7 H 0.6438 0.4495 0.7668
C8_6 C 0.4939(2) 0.2025(3) 0.63758(15)
C9_7 C 0.5816(3) 0.1588(3) 0.62083(16)
H5_7 H 0.5990 0.1927 0.5876
H6_7 H 0.5718 0.0878 0.6121
C10_7 C 0.6603(3) 0.1689(3) 0.66567(18)
H7_7 H 0.6429 0.1345 0.6988
H8_7 H 0.7159 0.1361 0.6537
C16_6 C 0.7815(3) 0.7455(3) 0.90582(15)
H13_6 H 0.7789 0.8153 0.9007
C17_6 C 0.8344(3) 0.7069(3) 0.95091(16)
H14_6 H 0.8672 0.7505 0.9758
C18_6 C 0.8390(2) 0.6063(3) 0.95943(14)
C19_6 C 0.7898(2) 0.5460(3) 0.92134(14)
H15_7 H 0.7910 0.4760 0.9256
C20_6 C 0.7398(2) 0.5883(3) 0.87768(14)
H16_6 H 0.7073 0.5461 0.8519
Cu4_4 Cu 0.84570(3) 0.75999(3) 0.694303(16)
O5_4 O 0.71375(19) 0.86998(19) 0.81571(10)
N3_6 N 0.6119(2) 0.4754(2) 0.97921(12)
N4_6 N 0.5635(2) 0.4590(2) 0.92776(12)
C11_6 C 0.4388(2) 0.3805(2) 0.77380(14)
H9_6 H 0.4181 0.4292 0.7478
C12_6 C 0.4857(2) 0.4111(3) 0.82202(14)
H10_6 H 0.4971 0.4795 0.8289
C13_6 C 0.5159(2) 0.3395(3) 0.86039(14)
C14_6 C 0.5016(3) 0.2402(3) 0.84744(15)
H11_6 H 0.5241 0.1898 0.8720
C15_6 C 0.4543(2) 0.2157(2) 0.79844(14)
H12_6 H 0.4446 0.1476 0.7899
C21_5 C 0.6108(2) 0.5673(3) 0.99115(14)
H17_5 H 0.5766 0.6117 0.9674
C22_6 C 0.5623(3) 0.3682(3) 0.91342(14)
H18_6 H 0.5910 0.3193 0.9368
O3_4 O 0.04508(16) 0.34099(18) 0.82490(10)
O4_4 O 0.0386(2) 0.2207(2) 0.88477(15)
C8_7 C 0.0061(2) 0.2975(3) 0.86242(15)
O2_7 O 0.78788(18) 0.88272(18) 0.74029(10)
N2_7 N 0.7652(2) 0.8132(2) 0.63010(12)
C1_7 C 0.7597(2) 0.9166(2) 0.78311(14)
C16_7 C 0.7185(3) 0.7545(3) 0.59418(15)
H13_7 H 0.7211 0.6847 0.5993
C17_7 C 0.6656(3) 0.7931(3) 0.54909(16)
H14_7 H 0.6328 0.7495 0.5242
C18_7 C 0.6610(2) 0.8937(3) 0.54057(14)
C19_7 C 0.7102(2) 0.9540(3) 0.57866(14)
C20_7 C 0.7602(2) 0.9117(3) 0.62232(14)
H16_7 H 0.7927 0.9539 0.6481
C21_6 C 0.6108(2) 0.9327(3) 0.49115(14)
H17_6 H 0.5766 0.8883 0.4674
O6_4 O 0.95492(16) 0.84099(18) 0.67510(10)
O7_4 O 0.9614(2) 0.7207(2) 0.61523(15)
N5_4 N 0.92138(19) 0.7159(2) 0.76236(11)
N1_4 N 0.07862(19) 0.2159(2) 0.73764(11)
C11_7 C 0.0612(2) 0.1195(2) 0.72620(14)
H9_7 H 0.0819 0.0708 0.7522
C12_7 C 0.0143(2) 0.0889(3) 0.67798(14)
H10_7 H 0.0029 0.0205 0.6711
C15_7 C 0.0457(2) 0.2843(2) 0.70156(14)
H12_7 H 0.0554 0.3524 0.7101
C11_8 C 0.9388(2) 0.6195(2) 0.77380(14)
H9_8 H 0.9181 0.5708 0.7478
C12_8 C 0.9857(2) 0.5889(3) 0.82202(14)
H10_8 H 0.9971 0.5205 0.8289
C15_8 C 0.9543(2) 0.7843(2) 0.79844(14)
H12_8 H 0.9446 0.8524 0.7899
O2_8 O 0.21212(18) 0.38272(18) 0.75971(10)
N2_8 N 0.2348(2) 0.3132(2) 0.86990(12)
C1_8 C 0.2403(2) 0.4166(2) 0.71689(14)
C2_8 C 0.2203(2) 0.5236(2) 0.70319(13)
C3_8 C 0.2548(3) 0.5685(3) 0.65835(17)
H1_8 H 0.2917 0.5312 0.6357
C4_8 C 0.2356(3) 0.6675(3) 0.64638(18)
H2_8 H 0.2588 0.6970 0.6153
C5_8 C 0.1827(2) 0.7239(3) 0.67948(16)
C6_8 C 0.1492(2) 0.6787(3) 0.72449(15)
H3_8 H 0.1132 0.7160 0.7476
C7_8 C 0.1676(2) 0.5801(3) 0.73592(15)
H4_8 H 0.1438 0.5505 0.7668
C9_8 C 0.0816(3) 0.8412(3) 0.62083(16)
H5_8 H 0.0990 0.8073 0.5876
H6_8 H 0.0718 0.9122 0.6121
C10_8 C 0.1603(3) 0.8311(3) 0.66567(18)
H7_8 H 0.1429 0.8655 0.6988
H8_8 H 0.2159 0.8639 0.6537
C16_8 C 0.2815(3) 0.2545(3) 0.90582(15)
H13_8 H 0.2789 0.1847 0.9007
C17_8 C 0.3344(3) 0.2931(3) 0.95091(16)
H14_8 H 0.3672 0.2495 0.9758
C18_8 C 0.3390(2) 0.3937(3) 0.95943(14)
C19_8 C 0.2898(2) 0.4540(3) 0.92134(14)
H15_8 H 0.2910 0.5240 0.9256
C20_8 C 0.2398(2) 0.4117(3) 0.87768(14)
H16_8 H 0.2073 0.4539 0.8519
C8_8 C 0.9939(2) 0.7975(3) 0.63758(15)
N3_7 N 0.8881(2) 0.4754(2) 0.02079(12)
N4_7 N 0.9365(2) 0.4590(2) 0.07224(12)
C13_7 C 0.9841(2) 0.3395(3) 0.13961(14)
C14_7 C 0.9984(3) 0.2402(3) 0.15256(15)
H11_7 H 0.9759 0.1898 0.1280
C21_7 C 0.8892(2) 0.5673(3) 0.00885(14)
H17_7 H 0.9234 0.6117 0.0326
C22_7 C 0.9377(3) 0.3682(3) 0.08658(14)
H18_7 H 0.9090 0.3193 0.0632
N3_8 N 0.1119(2) 0.5246(2) 0.97921(12)
N4_8 N 0.0635(2) 0.5410(2) 0.92776(12)
C13_8 C 0.0159(2) 0.6605(3) 0.86039(14)
C14_8 C 0.0016(3) 0.7598(3) 0.84744(15)
H11_8 H 0.0241 0.8102 0.8720
C21_8 C 0.1108(2) 0.4327(3) 0.99115(14)
H17_8 H 0.0766 0.3883 0.9674
C22_8 C 0.0623(3) 0.6318(3) 0.91342(14)
H18_8 H 0.0910 0.6807 0.9368
loop_
_geom_bond_atom_site_label_1
_geom_bond_atom_site_label_2
_geom_bond_site_symmetry_1
_geom_bond_site_symmetry_2
Cu1 O2 1_555 1_555
O1 C1 1_555 1_555
O2 C1 1_555 1_555
N2 Cu1 1_555 1_555
C16 N2 1_555 1_555
H13 C16 1_555 1_555
C17 C16 1_555 1_555
H14 C17 1_555 1_555
C18 C17 1_555 1_555
C19 C18 1_555 1_555
C20 N2 1_555 1_555
H16 C20 1_555 1_555
H17 C21 1_555 1_555
Cu4 O1 1_555 1_555
O5 Cu1 1_555 1_555
O6 Cu1 1_555 1_555
O7 Cu1 1_555 1_555
N5 Cu1 1_555 1_555
C18 C21 1_555 1_555
C19 C20 1_555 1_555
O3 C8 1_555 1_555
O4 C8 1_555 1_555
Cu3 O3 1_555 1_555
O4 Cu3 1_555 1_555
N1 C11 1_555 1_555
C11 H9 1_555 1_555
C12 C11 1_555 1_555
H10 C12 1_555 1_555
C15 N1 1_555 1_555
H12 C15 1_555 1_555
Cu3 N1 1_555 1_555
N5 C11_2 1_555 1_555
C11_2 H9_2 1_555 1_555
C12_2 C11_2 1_555 1_555
H10_2 C12_2 1_555 1_555
C15_2 N5 1_555 1_555
H12_2 C15_2 1_555 1_555
O6 C8_2 1_555 1_555
O7 C8_2 1_555 1_555
Cu3 O2_2 1_555 1_555
O1_2 C1_2 1_555 1_555
O2_2 C1_2 1_555 1_555
N2_2 Cu3 1_555 1_555
C1_2 C2 1_555 1_555
C2 C3 1_555 1_555
C3 H1 1_555 1_555
C4 C3 1_555 1_555
H2 C4 1_555 1_555
C5 C4 1_555 1_555
C6 C5 1_555 1_555
H3 C6 1_555 1_555
C7 C2 1_555 1_555
H4 C7 1_555 1_555
C9 H5 1_555 1_555
H6 C9 1_555 1_555
C10 C5 1_555 1_555
H7 C10 1_555 1_555
H8 C10 1_555 1_555
C16_2 N2_2 1_555 1_555
H13_2 C16_2 1_555 1_555
C17_2 C16_2 1_555 1_555
H14_2 C17_2 1_555 1_555
C18_2 C17_2 1_555 1_555
C19_2 C18_2 1_555 1_555
H15 C19_2 1_555 1_555
C20_2 N2_2 1_555 1_555
H16_2 C20_2 1_555 1_555
Cu4_2 O1_2 1_555 1_555
O5_2 Cu3 1_555 1_555
C6 C7 1_555 1_555
C9 C10 1_555 1_555
C19_2 C20_2 1_555 1_555
N1_2 C11_3 1_555 1_555
N3 N4 1_555 1_555
N4 C22 1_555 1_555
C2_2 C3_2 1_555 1_555
C3_2 H1_2 1_555 1_555
C4_2 C3_2 1_555 1_555
H2_2 C4_2 1_555 1_555
C5_2 C4_2 1_555 1_555
C6_2 C5_2 1_555 1_555
H3_2 C6_2 1_555 1_555
C7_2 C2_2 1_555 1_555
H4_2 C7_2 1_555 1_555
C9_2 H5_2 1_555 1_555
H6_2 C9_2 1_555 1_555
C10_2 C5_2 1_555 1_555
H7_2 C10_2 1_555 1_555
H8_2 C10_2 1_555 1_555
C11_3 H9_3 1_555 1_555
C12_3 C11_3 1_555 1_555
H10_3 C12_3 1_555 1_555
C13 C12_3 1_555 1_555
C14 C13 1_555 1_555
H11 C14 1_555 1_555
C15_3 N1_2 1_555 1_555
H12_3 C15_3 1_555 1_555
C22 C13 1_555 1_555
H18 C22 1_555 1_555
Cu4 N1_2 1_555 1_555
C6_2 C7_2 1_555 1_555
C9_2 C10_2 1_555 1_555
C14 C15_3 1_555 1_555
O3_2 C8_3 1_555 1_555
O4_2 C8_3 1_555 1_555
N3_2 N4_2 1_555 1_555
N4_2 C22_2 1_555 1_555
C2_3 C3_3 1_555 1_555
C3_3 H1_3 1_555 1_555
C4_3 C3_3 1_555 1_555
H2_3 C4_3 1_555 1_555
C5_3 C4_3 1_555 1_555
C6_3 C5_3 1_555 1_555
H3_3 C6_3 1_555 1_555
C7_3 C2_3 1_555 1_555
H4_3 C7_3 1_555 1_555
C8_3 C9_3 1_555 1_555
C9_3 H5_3 1_555 1_555
H6_3 C9_3 1_555 1_555
C10_3 C5_3 1_555 1_555
H7_3 C10_3 1_555 1_555
H8_3 C10_3 1_555 1_555
C14_2 C13_2 1_555 1_555
H11_2 C14_2 1_555 1_555
C22_2 C13_2 1_555 1_555
H18_2 C22_2 1_555 1_555
Cu4 O3_2 1_555 1_555
O4_2 Cu4 1_555 1_555
C6_3 C7_3 1_555 1_555
C9_3 C10_3 1_555 1_555
Cu4_2 O2_3 1_555 1_555
O5_2 C1_3 1_555 1_555
O2_3 C1_3 1_555 1_555
N2_3 Cu4_2 1_555 1_555
C16_3 N2_3 1_555 1_555
H13_3 C16_3 1_555 1_555
C17_3 C16_3 1_555 1_555
H14_3 C17_3 1_555 1_555
C18_3 C17_3 1_555 1_555
C19_3 C18_3 1_555 1_555
C20_3 N2_3 1_555 1_555
H16_3 C20_3 1_555 1_555
H17_2 C21_2 1_555 1_555
O6_2 Cu4_2 1_555 1_555
O7_2 Cu4_2 1_555 1_555
N5_2 Cu4_2 1_555 1_555
C18_3 C21_2 1_555 1_555
C19_3 C20_3 1_555 1_555
Cu4 O2_4 1_555 1_555
O5 C1_4 1_555 1_555
O2_4 C1_4 1_555 1_555
O6_2 C8_4 1_555 1_555
O7_2 C8_4 1_555 1_555
N2_4 Cu4 1_555 1_555
C1_4 C2_4 1_555 1_555
C2_4 C3_4 1_555 1_555
C3_4 H1_4 1_555 1_555
C4_4 C3_4 1_555 1_555
H2_4 C4_4 1_555 1_555
C5_4 C4_4 1_555 1_555
C6_4 C5_4 1_555 1_555
H3_4 C6_4 1_555 1_555
C7_4 C2_4 1_555 1_555
H4_4 C7_4 1_555 1_555
C8_4 C9_4 1_555 1_555
C9_4 H5_4 1_555 1_555
H6_4 C9_4 1_555 1_555
C10_4 C5_4 1_555 1_555
H7_4 C10_4 1_555 1_555
H8_4 C10_4 1_555 1_555
C16_4 N2_4 1_555 1_555
H13_4 C16_4 1_555 1_555
C17_4 C16_4 1_555 1_555
H14_4 C17_4 1_555 1_555
C18_4 C17_4 1_555 1_555
C19_4 C18_4 1_555 1_555
H15_4 C19_4 1_555 1_555
C20_4 N2_4 1_555 1_555
H16_4 C20_4 1_555 1_555
C6_4 C7_4 1_555 1_555
C9_4 C10_4 1_555 1_555
C19_4 C20_4 1_555 1_555
N5_2 C11_4 1_555 1_555
N3_3 N4_3 1_555 1_555
N4_3 C22_3 1_555 1_555
C11_4 H9_4 1_555 1_555
C12_4 C11_4 1_555 1_555
H10_4 C12_4 1_555 1_555
C13_3 C12_4 1_555 1_555
C14_3 C13_3 1_555 1_555
H11_3 C14_3 1_555 1_555
C15_4 N5_2 1_555 1_555
H12_4 C15_4 1_555 1_555
C21_3 N3_3 1_555 1_555
H17_3 C21_3 1_555 1_555
C22_3 C13_3 1_555 1_555
H18_3 C22_3 1_555 1_555
C14_3 C15_4 1_555 1_555
N1_3 C11_5 1_555 1_555
N3_4 N4_4 1_555 1_555
N4_4 C22_4 1_555 1_555
C2_5 C3_5 1_555 1_555
C3_5 H1_5 1_555 1_555
C4_5 C3_5 1_555 1_555
H2_5 C4_5 1_555 1_555
C5_5 C4_5 1_555 1_555
C6_5 C5_5 1_555 1_555
H3_5 C6_5 1_555 1_555
C7_5 C2_5 1_555 1_555
H4_5 C7_5 1_555 1_555
C9_5 H5_5 1_555 1_555
H6_5 C9_5 1_555 1_555
C10_5 C5_5 1_555 1_555
H7_5 C10_5 1_555 1_555
H8_5 C10_5 1_555 1_555
C11_5 H9_5 1_555 1_555
C12_5 C11_5 1_555 1_555
H10_5 C12_5 1_555 1_555
C13_4 C12_5 1_555 1_555
C14_4 C13_4 1_555 1_555
H11_4 C14_4 1_555 1_555
C15_5 N1_3 1_555 1_555
H12_5 C15_5 1_555 1_555
C22_4 C13_4 1_555 1_555
H18_4 C22_4 1_555 1_555
Cu2 N1_3 1_555 1_555
C6_5 C7_5 1_555 1_555
C9_5 C10_5 1_555 1_555
C14_4 C15_5 1_555 1_555
Cu1_2 O2_5 1_555 1_555
O1_3 C1_5 1_555 1_555
O2_5 C1_5 1_555 1_555
N2_5 Cu1_2 1_555 1_555
C16_5 N2_5 1_555 1_555
H13_5 C16_5 1_555 1_555
C17_5 C16_5 1_555 1_555
H14_5 C17_5 1_555 1_555
C18_5 C17_5 1_555 1_555
C19_5 C18_5 1_555 1_555
C20_5 N2_5 1_555 1_555
H16_5 C20_5 1_555 1_555
H17_4 C21_4 1_555 1_555
Cu4_3 O1_3 1_555 1_555
O5_3 Cu1_2 1_555 1_555
O6_3 Cu1_2 1_555 1_555
O7_3 Cu1_2 1_555 1_555
N5_3 Cu1_2 1_555 1_555
C18_5 C21_4 1_555 1_555
C19_5 C20_5 1_555 1_555
O3_3 C8_5 1_555 1_555
O4_3 C8_5 1_555 1_555
N3_5 N4_5 1_555 1_555
N4_5 C22_5 1_555 1_555
C2_6 C3_6 1_555 1_555
C3_6 H1_6 1_555 1_555
C4_6 C3_6 1_555 1_555
H2_6 C4_6 1_555 1_555
C5_6 C4_6 1_555 1_555
C6_6 C5_6 1_555 1_555
H3_6 C6_6 1_555 1_555
C7_6 C2_6 1_555 1_555
H4_6 C7_6 1_555 1_555
C8_5 C9_6 1_555 1_555
C9_6 H5_6 1_555 1_555
H6_6 C9_6 1_555 1_555
C10_6 C5_6 1_555 1_555
H7_6 C10_6 1_555 1_555
H8_6 C10_6 1_555 1_555
C14_5 C13_5 1_555 1_555
H11_5 C14_5 1_555 1_555
C22_5 C13_5 1_555 1_555
H18_5 C22_5 1_555 1_555
Cu2 O3_3 1_555 1_555
O4_3 Cu2 1_555 1_555
C6_6 C7_6 1_555 1_555
C9_6 C10_6 1_555 1_555
Cu2 O2_6 1_555 1_555
O1_4 C1_6 1_555 1_555
O2_6 C1_6 1_555 1_555
O6_3 C8_6 1_555 1_555
O7_3 C8_6 1_555 1_555
N2_6 Cu2 1_555 1_555
C1_6 C2_7 1_555 1_555
C2_7 C3_7 1_555 1_555
C3_7 H1_7 1_555 1_555
C4_7 C3_7 1_555 1_555
H2_7 C4_7 1_555 1_555
C5_7 C4_7 1_555 1_555
C6_7 C5_7 1_555 1_555
H3_7 C6_7 1_555 1_555
C7_7 C2_7 1_555 1_555
H4_7 C7_7 1_555 1_555
C8_6 C9_7 1_555 1_555
C9_7 H5_7 1_555 1_555
H6_7 C9_7 1_555 1_555
C10_7 C5_7 1_555 1_555
H7_7 C10_7 1_555 1_555
H8_7 C10_7 1_555 1_555
C16_6 N2_6 1_555 1_555
H13_6 C16_6 1_555 1_555
C17_6 C16_6 1_555 1_555
H14_6 C17_6 1_555 1_555
C18_6 C17_6 1_555 1_555
C19_6 C18_6 1_555 1_555
H15_7 C19_6 1_555 1_555
C20_6 N2_6 1_555 1_555
H16_6 C20_6 1_555 1_555
Cu4_4 O1_4 1_555 1_555
O5_4 Cu2 1_555 1_555
C6_7 C7_7 1_555 1_555
C9_7 C10_7 1_555 1_555
C19_6 C20_6 1_555 1_555
N5_3 C11_6 1_555 1_555
N3_6 N4_6 1_555 1_555
N4_6 C22_6 1_555 1_555
C11_6 H9_6 1_555 1_555
C12_6 C11_6 1_555 1_555
H10_6 C12_6 1_555 1_555
C13_6 C12_6 1_555 1_555
C14_6 C13_6 1_555 1_555
H11_6 C14_6 1_555 1_555
C15_6 N5_3 1_555 1_555
H12_6 C15_6 1_555 1_555
C21_5 N3_6 1_555 1_555
H17_5 C21_5 1_555 1_555
C22_6 C13_6 1_555 1_555
H18_6 C22_6 1_555 1_555
C14_6 C15_6 1_555 1_555
O3_4 C8_7 1_555 1_555
O4_4 C8_7 1_555 1_555
Cu4_3 O3_4 1_555 1_555
O4_4 Cu4_3 1_555 1_555
Cu4_4 O2_7 1_555 1_555
O5_4 C1_7 1_555 1_555
O2_7 C1_7 1_555 1_555
N2_7 Cu4_4 1_555 1_555
C16_7 N2_7 1_555 1_555
H13_7 C16_7 1_555 1_555
C17_7 C16_7 1_555 1_555
H14_7 C17_7 1_555 1_555
C18_7 C17_7 1_555 1_555
C19_7 C18_7 1_555 1_555
C20_7 N2_7 1_555 1_555
H16_7 C20_7 1_555 1_555
H17_6 C21_6 1_555 1_555
O6_4 Cu4_4 1_555 1_555
O7_4 Cu4_4 1_555 1_555
N5_4 Cu4_4 1_555 1_555
C18_7 C21_6 1_555 1_555
C19_7 C20_7 1_555 1_555
N1_4 C11_7 1_555 1_555
C11_7 H9_7 1_555 1_555
C12_7 C11_7 1_555 1_555
H10_7 C12_7 1_555 1_555
C15_7 N1_4 1_555 1_555
H12_7 C15_7 1_555 1_555
Cu4_3 N1_4 1_555 1_555
N5_4 C11_8 1_555 1_555
C11_8 H9_8 1_555 1_555
C12_8 C11_8 1_555 1_555
H10_8 C12_8 1_555 1_555
C15_8 N5_4 1_555 1_555
H12_8 C15_8 1_555 1_555
Cu4_3 O2_8 1_555 1_555
O5_3 C1_8 1_555 1_555
O2_8 C1_8 1_555 1_555
N2_8 Cu4_3 1_555 1_555
C1_8 C2_8 1_555 1_555
C2_8 C3_8 1_555 1_555
C3_8 H1_8 1_555 1_555
C4_8 C3_8 1_555 1_555
H2_8 C4_8 1_555 1_555
C5_8 C4_8 1_555 1_555
C6_8 C5_8 1_555 1_555
H3_8 C6_8 1_555 1_555
C7_8 C2_8 1_555 1_555
H4_8 C7_8 1_555 1_555
C9_8 H5_8 1_555 1_555
H6_8 C9_8 1_555 1_555
C10_8 C5_8 1_555 1_555
H7_8 C10_8 1_555 1_555
H8_8 C10_8 1_555 1_555
C16_8 N2_8 1_555 1_555
H13_8 C16_8 1_555 1_555
C17_8 C16_8 1_555 1_555
H14_8 C17_8 1_555 1_555
C18_8 C17_8 1_555 1_555
C19_8 C18_8 1_555 1_555
H15_8 C19_8 1_555 1_555
C20_8 N2_8 1_555 1_555
H16_8 C20_8 1_555 1_555
C6_8 C7_8 1_555 1_555
C9_8 C10_8 1_555 1_555
C19_8 C20_8 1_555 1_555
O6_4 C8_8 1_555 1_555
O7_4 C8_8 1_555 1_555
N3_7 N4_7 1_555 1_555
N4_7 C22_7 1_555 1_555
C14_7 C13_7 1_555 1_555
H11_7 C14_7 1_555 1_555
C21_7 N3_7 1_555 1_555
H17_7 C21_7 1_555 1_555
C22_7 C13_7 1_555 1_555
H18_7 C22_7 1_555 1_555
N3_8 N4_8 1_555 1_555
N4_8 C22_8 1_555 1_555
C14_8 C13_8 1_555 1_555
H11_8 C14_8 1_555 1_555
C21_8 N3_8 1_555 1_555
H17_8 C21_8 1_555 1_555
C22_8 C13_8 1_555 1_555
H18_8 C22_8 1_555 1_555

#END
