
###############################################################################
#
# This file contains modified crystal structure data generated from the
# MOF subset of the Cambridge Structural Database (CSD) v543 
# hosted by the Cambridge Crystallographic Data Centre (CCDC).
#
# This work is licensed under the Creative Commons
# Attribution-NonCommercial-ShareAlike 4.0 International License.
# To view a copy of this license, visit
# http://creativecommons.org/licenses/by-nc-sa/4.0/
# or send a letter to
# Creative Commons, PO Box 1866, Mountain View, CA 94042, USA.
#
# CIF created using the CSD Python API on 29 September 2022
# The structure has been converted into the P1 space group
# The structure has a 3D framework
# The original CSD entry FOFCUA is in the triclinic crystal system
# The framework has been calculated to contain at least 10.0% void space
# The void calculation uses a probe of radius 1.32A, grid spacing 0.4
#
###############################################################################

data_FOFCUA
_chemical_formula_moiety         '(C68 H38 Ce2 O14)n'
_symmetry_cell_setting           triclinic
_symmetry_space_group_name_H-M   'P 1'
_symmetry_Int_Tables_number      1
_space_group_name_Hall           'P 1'
loop_
_symmetry_equiv_pos_site_id
_symmetry_equiv_pos_as_xyz
1 x,y,z
_cell_length_a                   9.2989(11)
_cell_length_b                   11.4163(13)
_cell_length_c                   15.2492(17)
_cell_angle_alpha                93.756(5)
_cell_angle_beta                 90.263(6)
_cell_angle_gamma                93.814(6)
_cell_volume                     1611.72
loop_
_atom_site_label
_atom_site_type_symbol
_atom_site_fract_x
_atom_site_fract_y
_atom_site_fract_z
Ce4 Ce 0.20843(5) 0.03014(4) 0.97945(3)
Ce7 Ce 0.79157(5) 0.96986(4) 0.02055(3)
O10 O 0.3854(6) 0.1128(5) 0.0896(3)
O14 O 0.0180(6) 0.1080(5) 0.0778(3)
O1 O 0.3943(6) 0.1185(5) 0.8861(3)
O2 O 0.5802(6) 0.2522(5) 0.9123(3)
H1 H 0.5851 0.2188 0.9595
O3 O 0.3840(6) 0.8775(4) 0.9531(3)
O4 O 0.6146(6) 0.8872(5) 0.9104(3)
O6 O 0.1521(6) 0.8926(5) 0.0909(3)
C1 C 0.3096(8) 0.4624(6) 0.5715(5)
C2 C 0.3103(8) 0.5889(7) 0.5751(5)
C3 C 0.2686(9) 0.6399(7) 0.4992(5)
H2 H 0.2787 0.7232 0.4986
C4 C 0.2127(8) 0.5762(6) 0.4238(5)
C5 C 0.2057(8) 0.4524(7) 0.4213(5)
C6 C 0.2569(9) 0.4035(6) 0.4957(5)
H3 H 0.2551 0.3201 0.4937
C7 C 0.3540(9) 0.3965(7) 0.6482(4)
C8 C 0.4723(9) 0.4401(7) 0.7027(5)
H4 H 0.5277 0.5098 0.6900
C9 C 0.5045(9) 0.3798(7) 0.7736(5)
H5 H 0.5784 0.4116 0.8131
C10 C 0.4324(9) 0.2730(8) 0.7896(5)
C11 C 0.3189(8) 0.2269(7) 0.7336(4)
H6 H 0.2682 0.1544 0.7446
C12 C 0.2821(9) 0.2881(7) 0.6624(5)
H7 H 0.2077 0.2564 0.6231
C13 C 0.4627(10) 0.2085(8) 0.8668(5)
C14 C 0.3539(8) 0.6638(6) 0.6552(5)
C15 C 0.2788(9) 0.6508(7) 0.7320(5)
H8 H 0.1982 0.5951 0.7318
C16 C 0.3168(9) 0.7159(7) 0.8095(5)
H9 H 0.2611 0.7069 0.8610
C17 C 0.4386(9) 0.7953(7) 0.8108(5)
C18 C 0.5176(8) 0.8103(6) 0.7357(5)
H10 H 0.6017 0.8624 0.7366
C19 C 0.4703(9) 0.7463(7) 0.6575(5)
H11 H 0.5200 0.7603 0.6045
C20 C 0.4807(9) 0.8607(7) 0.8968(5)
C21 C 0.1664(9) 0.6431(7) 0.3485(5)
C22 C 0.2466(9) 0.7454(7) 0.3276(5)
H12 H 0.3267 0.7747 0.3633
C23 C 0.2095(9) 0.8041(7) 0.2547(5)
H13 H 0.2676 0.8709 0.2388
C24 C 0.0855(9) 0.7652(7) 0.2040(5)
C25 C 0.0049(9) 0.6685(7) 0.2266(5)
C26 C 0.0397(9) 0.6097(6) 0.2997(5)
C27 C 0.0516(9) 0.8305(7) 0.1249(5)
C28 C 0.1480(8) 0.3684(6) 0.3493(5)
C29 C 0.1901(8) 0.3732(6) 0.2630(5)
H16 H 0.2566 0.4349 0.2471
C30 C 0.1365(9) 0.2890(7) 0.1986(5)
H17 H 0.1658 0.2929 0.1392
C31 C 0.0376(8) 0.1976(7) 0.2233(5)
C33 C 0.0507(9) 0.2778(7) 0.3715(5)
H19 H 0.0213 0.2746 0.4309
O11 O 0.0761(6) 0.1774(5) 0.9047(3)
O13 O 0.1422(6) 0.9498(5) 0.8260(3)
O5 O 0.9239(6) 0.8226(5) 0.0953(3)
O7 O 0.8578(6) 0.0502(5) 0.1740(3)
H14 H 0.9233 0.6406 0.1917
H15 H 0.9773 0.5462 0.3170
C32 C 0.9948(9) 0.1917(8) 0.3096(5)
H18 H 0.9287 0.1302 0.3263
C34 C 0.9678(10) 0.1133(7) 0.1558(5)
O15 O 0.9820(6) 0.8920(5) 0.9222(3)
H14_2 H 0.0767 0.3594 0.8083
H15_2 H 0.0227 0.4538 0.6830
C32_2 C 0.0052(9) 0.8083(8) 0.6904(5)
H18_2 H 0.0713 0.8698 0.6737
C34_2 C 0.0322(10) 0.8867(7) 0.8442(5)
O9 O 0.6160(6) 0.1225(4) 0.0469(3)
O12 O 0.8479(6) 0.1074(5) 0.9091(3)
O1_2 O 0.6057(6) 0.8815(5) 0.1139(3)
O2_2 O 0.4198(6) 0.7478(5) 0.0877(3)
H1_2 H 0.4149 0.7812 0.0405
C1_2 C 0.6904(8) 0.5376(6) 0.4285(5)
C2_2 C 0.6897(8) 0.4111(7) 0.4249(5)
C3_2 C 0.7314(9) 0.3601(7) 0.5008(5)
H2_2 H 0.7213 0.2768 0.5014
C4_2 C 0.7873(8) 0.4238(6) 0.5762(5)
C5_2 C 0.7943(8) 0.5476(7) 0.5787(5)
C6_2 C 0.7431(9) 0.5965(6) 0.5043(5)
H3_2 H 0.7449 0.6799 0.5063
C7_2 C 0.6460(9) 0.6035(7) 0.3518(4)
C8_2 C 0.5277(9) 0.5599(7) 0.2973(5)
H4_2 H 0.4723 0.4902 0.3100
C9_2 C 0.4955(9) 0.6202(7) 0.2264(5)
H5_2 H 0.4216 0.5884 0.1869
C10_2 C 0.5676(9) 0.7270(8) 0.2104(5)
C11_2 C 0.6811(8) 0.7731(7) 0.2664(4)
H6_2 H 0.7318 0.8456 0.2554
C12_2 C 0.7179(9) 0.7119(7) 0.3376(5)
H7_2 H 0.7923 0.7436 0.3769
C13_2 C 0.5373(10) 0.7915(8) 0.1332(5)
C14_2 C 0.6461(8) 0.3362(6) 0.3448(5)
C15_2 C 0.7212(9) 0.3492(7) 0.2680(5)
H8_2 H 0.8018 0.4049 0.2682
C16_2 C 0.6832(9) 0.2841(7) 0.1905(5)
H9_2 H 0.7389 0.2931 0.1390
C17_2 C 0.5614(9) 0.2047(7) 0.1892(5)
C18_2 C 0.4824(8) 0.1897(6) 0.2643(5)
H10_2 H 0.3983 0.1376 0.2634
C19_2 C 0.5297(9) 0.2537(7) 0.3425(5)
H11_2 H 0.4800 0.2397 0.3955
C20_2 C 0.5193(9) 0.1393(7) 0.1032(5)
C21_2 C 0.8336(9) 0.3569(7) 0.6515(5)
C22_2 C 0.7534(9) 0.2546(7) 0.6724(5)
H12_2 H 0.6733 0.2253 0.6367
C23_2 C 0.7905(9) 0.1959(7) 0.7453(5)
H13_2 H 0.7324 0.1291 0.7612
C24_2 C 0.9145(9) 0.2348(7) 0.7960(5)
C25_2 C 0.9951(9) 0.3315(7) 0.7734(5)
C26_2 C 0.9603(9) 0.3903(6) 0.7003(5)
C27_2 C 0.9484(9) 0.1695(7) 0.8751(5)
C28_2 C 0.8520(8) 0.6316(6) 0.6507(5)
C29_2 C 0.8099(8) 0.6268(6) 0.7370(5)
H16_2 H 0.7434 0.5651 0.7529
C30_2 C 0.8635(9) 0.7110(7) 0.8014(5)
H17_2 H 0.8342 0.7071 0.8608
C31_2 C 0.9624(8) 0.8024(7) 0.7767(5)
C33_2 C 0.9493(9) 0.7222(7) 0.6285(5)
H19_2 H 0.9787 0.7254 0.5691
loop_
_geom_bond_atom_site_label_1
_geom_bond_atom_site_label_2
_geom_bond_site_symmetry_1
_geom_bond_site_symmetry_2
Ce4 O1 1_555 1_555
O1 C13 1_555 1_555
O2 H1 1_555 1_555
O3 C20 1_555 1_555
O4 C20 1_555 1_555
O6 C27 1_555 1_555
C1 C2 1_555 1_555
C2 C3 1_555 1_555
C3 H2 1_555 1_555
C4 C3 1_555 1_555
C5 C4 1_555 1_555
C6 C1 1_555 1_555
H3 C6 1_555 1_555
C7 C1 1_555 1_555
C8 C7 1_555 1_555
H4 C8 1_555 1_555
C9 C8 1_555 1_555
H5 C9 1_555 1_555
C10 C9 1_555 1_555
C11 C10 1_555 1_555
H6 C11 1_555 1_555
C12 C7 1_555 1_555
H7 C12 1_555 1_555
C13 O2 1_555 1_555
C14 C2 1_555 1_555
C15 C14 1_555 1_555
H8 C15 1_555 1_555
C16 C15 1_555 1_555
H9 C16 1_555 1_555
C17 C16 1_555 1_555
C18 C17 1_555 1_555
H10 C18 1_555 1_555
C19 C14 1_555 1_555
H11 C19 1_555 1_555
C20 C17 1_555 1_555
C21 C4 1_555 1_555
C22 C21 1_555 1_555
H12 C22 1_555 1_555
C23 C22 1_555 1_555
H13 C23 1_555 1_555
C24 C23 1_555 1_555
C25 C24 1_555 1_555
C26 C21 1_555 1_555
C27 C24 1_555 1_555
C28 C5 1_555 1_555
C29 C28 1_555 1_555
H16 C29 1_555 1_555
C30 C29 1_555 1_555
H17 C30 1_555 1_555
C31 C30 1_555 1_555
C33 C28 1_555 1_555
H19 C33 1_555 1_555
O11 Ce4 1_555 1_555
C5 C6 1_555 1_555
C10 C13 1_555 1_555
C11 C12 1_555 1_555
C18 C19 1_555 1_555
C25 C26 1_555 1_555
O7 C34 1_555 1_555
H18 C32 1_555 1_555
Ce7 O5 1_555 1_555
O13 C34_2 1_555 1_555
H18_2 C32_2 1_555 1_555
Ce7 O1_2 1_555 1_555
O1_2 C13_2 1_555 1_555
O2_2 H1_2 1_555 1_555
O9 C20_2 1_555 1_555
O10 C20_2 1_555 1_555
O12 C27_2 1_555 1_555
C1_2 C2_2 1_555 1_555
C2_2 C3_2 1_555 1_555
C3_2 H2_2 1_555 1_555
C4_2 C3_2 1_555 1_555
C5_2 C4_2 1_555 1_555
C6_2 C1_2 1_555 1_555
H3_2 C6_2 1_555 1_555
C7_2 C1_2 1_555 1_555
C8_2 C7_2 1_555 1_555
H4_2 C8_2 1_555 1_555
C9_2 C8_2 1_555 1_555
H5_2 C9_2 1_555 1_555
C10_2 C9_2 1_555 1_555
C11_2 C10_2 1_555 1_555
H6_2 C11_2 1_555 1_555
C12_2 C7_2 1_555 1_555
H7_2 C12_2 1_555 1_555
C13_2 O2_2 1_555 1_555
C14_2 C2_2 1_555 1_555
C15_2 C14_2 1_555 1_555
H8_2 C15_2 1_555 1_555
C16_2 C15_2 1_555 1_555
H9_2 C16_2 1_555 1_555
C17_2 C16_2 1_555 1_555
C18_2 C17_2 1_555 1_555
H10_2 C18_2 1_555 1_555
C19_2 C14_2 1_555 1_555
H11_2 C19_2 1_555 1_555
C20_2 C17_2 1_555 1_555
C21_2 C4_2 1_555 1_555
C22_2 C21_2 1_555 1_555
H12_2 C22_2 1_555 1_555
C23_2 C22_2 1_555 1_555
H13_2 C23_2 1_555 1_555
C24_2 C23_2 1_555 1_555
C25_2 C24_2 1_555 1_555
C26_2 C21_2 1_555 1_555
C27_2 C24_2 1_555 1_555
C28_2 C5_2 1_555 1_555
C29_2 C28_2 1_555 1_555
H16_2 C29_2 1_555 1_555
C30_2 C29_2 1_555 1_555
H17_2 C30_2 1_555 1_555
C31_2 C30_2 1_555 1_555
C33_2 C28_2 1_555 1_555
H19_2 C33_2 1_555 1_555
C5_2 C6_2 1_555 1_555
C10_2 C13_2 1_555 1_555
C11_2 C12_2 1_555 1_555
C18_2 C19_2 1_555 1_555
C25_2 C26_2 1_555 1_555

#END
