
###############################################################################
#
# This file contains modified crystal structure data generated from the
# MOF subset of the Cambridge Structural Database (CSD) v543 
# hosted by the Cambridge Crystallographic Data Centre (CCDC).
#
# This work is licensed under the Creative Commons
# Attribution-NonCommercial-ShareAlike 4.0 International License.
# To view a copy of this license, visit
# http://creativecommons.org/licenses/by-nc-sa/4.0/
# or send a letter to
# Creative Commons, PO Box 1866, Mountain View, CA 94042, USA.
#
# CIF created using the CSD Python API on 29 September 2022
# The structure has been converted into the P1 space group
# The structure has a 3D framework
# The original CSD entry FOFCOU is in the triclinic crystal system
# The framework has been calculated to contain at least 10.0% void space
# The void calculation uses a probe of radius 1.32A, grid spacing 0.4
#
###############################################################################

data_FOFCOU
_chemical_formula_moiety         '(C68 H38 Ce2 O16)n'
_symmetry_cell_setting           triclinic
_symmetry_space_group_name_H-M   'P 1'
_symmetry_Int_Tables_number      1
_space_group_name_Hall           'P 1'
loop_
_symmetry_equiv_pos_site_id
_symmetry_equiv_pos_as_xyz
1 x,y,z
_cell_length_a                   9.5603(4)
_cell_length_b                   12.1386(5)
_cell_length_c                   15.9458(6)
_cell_angle_alpha                88.4550(10)
_cell_angle_beta                 74.4170(10)
_cell_angle_gamma                70.2330(10)
_cell_volume                     1673.27
loop_
_atom_site_label
_atom_site_type_symbol
_atom_site_fract_x
_atom_site_fract_y
_atom_site_fract_z
O9 O 0.2369(3) 0.0628(3) 0.16735(18)
O10 O 0.4412(3) 0.0982(3) 0.08460(17)
O15 O 0.0303(3) 0.1217(2) 0.03898(17)
O13 O 0.3213(3) 0.1240(3) 0.92131(19)
Ce4 Ce 0.29554(3) 0.97447(2) 0.018287(14)
O1 O 0.1254(3) 0.8835(3) 0.11778(18)
O2 O 0.0109(3) 0.7575(3) 0.09946(19)
O5 O 0.5342(3) 0.1692(3) 0.90960(18)
O7 O 0.2063(3) 0.8906(3) 0.91296(17)
C1 C 0.2238(4) 0.5511(4) 0.4396(2)
C2 C 0.2730(4) 0.4281(4) 0.4405(2)
C3 C 0.3044(5) 0.3764(4) 0.5155(2)
H2 H 0.3398 0.2932 0.5149
C4 C 0.2867(5) 0.4405(4) 0.5917(2)
C5 C 0.2332(4) 0.5644(4) 0.5921(2)
C6 C 0.2074(4) 0.6150(4) 0.5155(2)
H3 H 0.1769 0.6980 0.5149
C7 C 0.1839(5) 0.6161(4) 0.3636(2)
C8 C 0.1127(4) 0.5760(4) 0.3106(3)
H4 H 0.0851 0.5082 0.3246
C9 C 0.0823(5) 0.6338(4) 0.2384(3)
H5 H 0.0373 0.6039 0.2021
C10 C 0.1171(5) 0.7354(4) 0.2181(3)
C11 C 0.1839(5) 0.7789(4) 0.2715(3)
H6 H 0.2070 0.8488 0.2586
C12 C 0.2162(5) 0.7196(4) 0.3432(3)
H7 H 0.2612 0.7496 0.3795
C13 C 0.0860(5) 0.7989(4) 0.1408(3)
C14 C 0.2940(5) 0.3463(4) 0.3661(3)
C15 C 0.4027(5) 0.3371(4) 0.2867(3)
H8 H 0.4647 0.3855 0.2777
C16 C 0.4215(5) 0.2573(4) 0.2200(3)
H9 H 0.4997 0.2490 0.1668
C17 C 0.3276(5) 0.1901(4) 0.2302(3)
C18 C 0.2182(5) 0.1991(4) 0.3102(3)
H10 H 0.1535 0.1528 0.3181
C19 C 0.2030(5) 0.2744(4) 0.3779(3)
H11 H 0.1306 0.2777 0.4327
C20 C 0.3365(5) 0.1122(4) 0.1575(2)
C21 C 0.3222(5) 0.3741(4) 0.6679(2)
C22 C 0.2799(5) 0.2752(4) 0.6873(3)
H12 H 0.2301 0.2504 0.6511
C23 C 0.3086(5) 0.2127(4) 0.7578(3)
H13 H 0.2749 0.1474 0.7711
C24 C 0.3871(5) 0.2445(4) 0.8099(2)
C25 C 0.4347(5) 0.3407(4) 0.7898(3)
H14 H 0.4903 0.3623 0.8238
C26 C 0.4011(5) 0.4053(4) 0.7197(2)
H15 H 0.4325 0.4717 0.7070
C27 C 0.4170(5) 0.1751(4) 0.8864(3)
C28 C 0.1952(4) 0.6430(4) 0.6713(2)
C29 C 0.0964(5) 0.6295(4) 0.7495(2)
H16 H 0.0533 0.5691 0.7525
C30 C 0.0600(5) 0.7032(4) 0.8232(3)
C31 C 0.1266(4) 0.7895(4) 0.8206(2)
C32 C 0.2241(5) 0.8043(4) 0.7428(3)
H18 H 0.2698 0.8630 0.7406
C33 C 0.2556(5) 0.7337(4) 0.6680(3)
H19 H 0.3185 0.7472 0.6144
C34 C 0.0992(5) 0.8591(4) 0.9025(3)
Ce7 Ce 0.70446(3) 0.02553(2) 0.981713(14)
O12 O 0.4658(3) 0.8308(3) 0.09040(18)
O11 O 0.5588(3) 0.9018(3) 0.91540(17)
H1 H 0.9918 0.7998 0.0585
O8 O 0.9697(3) 0.8783(2) 0.96102(17)
H17 H 0.9894 0.6947 0.8755
H1_2 H 0.0082 0.2002 0.9415
H17_2 H 0.0106 0.3053 0.1245
O14 O 0.7937(3) 0.1094(3) 0.08704(17)
O1_2 O 0.8746(3) 0.1165(3) 0.88222(18)
O2_2 O 0.9891(3) 0.2425(3) 0.90054(19)
O3 O 0.7631(3) 0.9372(3) 0.83265(18)
O6 O 0.6787(3) 0.8760(3) 0.07869(19)
C1_2 C 0.7762(4) 0.4489(4) 0.5604(2)
C2_2 C 0.7270(4) 0.5719(4) 0.5595(2)
C3_2 C 0.6956(5) 0.6236(4) 0.4845(2)
H2_2 H 0.6602 0.7068 0.4851
C4_2 C 0.7133(5) 0.5595(4) 0.4083(2)
C5_2 C 0.7668(4) 0.4356(4) 0.4079(2)
C6_2 C 0.7926(4) 0.3850(4) 0.4845(2)
H3_2 H 0.8231 0.3020 0.4851
C7_2 C 0.8161(5) 0.3839(4) 0.6364(2)
C8_2 C 0.8873(4) 0.4240(4) 0.6894(3)
H4_2 H 0.9149 0.4918 0.6754
C9_2 C 0.9177(5) 0.3662(4) 0.7616(3)
H5_2 H 0.9627 0.3961 0.7979
C10_2 C 0.8829(5) 0.2646(4) 0.7819(3)
C11_2 C 0.8161(5) 0.2211(4) 0.7285(3)
H6_2 H 0.7930 0.1512 0.7414
C12_2 C 0.7838(5) 0.2804(4) 0.6568(3)
H7_2 H 0.7388 0.2504 0.6205
C13_2 C 0.9140(5) 0.2011(4) 0.8592(3)
C14_2 C 0.7060(5) 0.6537(4) 0.6339(3)
C15_2 C 0.5973(5) 0.6629(4) 0.7133(3)
H8_2 H 0.5353 0.6145 0.7223
C16_2 C 0.5785(5) 0.7427(4) 0.7800(3)
H9_2 H 0.5003 0.7510 0.8332
C17_2 C 0.6724(5) 0.8099(4) 0.7698(3)
C18_2 C 0.7818(5) 0.8009(4) 0.6898(3)
H10_2 H 0.8465 0.8472 0.6819
C19_2 C 0.7970(5) 0.7256(4) 0.6221(3)
H11_2 H 0.8694 0.7223 0.5673
C20_2 C 0.6635(5) 0.8878(4) 0.8425(2)
C21_2 C 0.6778(5) 0.6259(4) 0.3321(2)
C22_2 C 0.7201(5) 0.7248(4) 0.3127(3)
H12_2 H 0.7699 0.7496 0.3489
C23_2 C 0.6914(5) 0.7873(4) 0.2422(3)
H13_2 H 0.7251 0.8526 0.2289
C24_2 C 0.6129(5) 0.7555(4) 0.1901(2)
C25_2 C 0.5653(5) 0.6593(4) 0.2102(3)
H14_2 H 0.5097 0.6377 0.1762
C26_2 C 0.5989(5) 0.5947(4) 0.2803(2)
H15_2 H 0.5675 0.5283 0.2930
C27_2 C 0.5830(5) 0.8249(4) 0.1136(3)
C28_2 C 0.8048(4) 0.3570(4) 0.3287(2)
C29_2 C 0.9036(5) 0.3705(4) 0.2505(2)
H16_2 H 0.9467 0.4309 0.2475
C30_2 C 0.9400(5) 0.2968(4) 0.1768(3)
C31_2 C 0.8734(4) 0.2105(4) 0.1794(2)
C32_2 C 0.7759(5) 0.1957(4) 0.2572(3)
H18_2 H 0.7302 0.1370 0.2594
C33_2 C 0.7444(5) 0.2663(4) 0.3320(3)
H19_2 H 0.6815 0.2528 0.3856
C34_2 C 0.9008(5) 0.1409(4) 0.0975(3)
loop_
_geom_bond_atom_site_label_1
_geom_bond_atom_site_label_2
_geom_bond_site_symmetry_1
_geom_bond_site_symmetry_2
Ce4 O1 1_555 1_555
O1 C13 1_555 1_555
O9 C20 1_555 1_555
O10 C20 1_555 1_555
O5 C27 1_555 1_555
O13 C27 1_555 1_555
O7 C34 1_555 1_555
C1 C2 1_555 1_555
C2 C3 1_555 1_555
C3 H2 1_555 1_555
C4 C3 1_555 1_555
C5 C4 1_555 1_555
C6 C1 1_555 1_555
H3 C6 1_555 1_555
C7 C1 1_555 1_555
C8 C7 1_555 1_555
H4 C8 1_555 1_555
C9 C8 1_555 1_555
H5 C9 1_555 1_555
C10 C9 1_555 1_555
C11 C10 1_555 1_555
H6 C11 1_555 1_555
C12 C7 1_555 1_555
H7 C12 1_555 1_555
C13 O2 1_555 1_555
C14 C2 1_555 1_555
C15 C14 1_555 1_555
H8 C15 1_555 1_555
C16 C15 1_555 1_555
H9 C16 1_555 1_555
C17 C16 1_555 1_555
C18 C17 1_555 1_555
H10 C18 1_555 1_555
C19 C14 1_555 1_555
H11 C19 1_555 1_555
C20 C17 1_555 1_555
C21 C4 1_555 1_555
C22 C21 1_555 1_555
H12 C22 1_555 1_555
C23 C22 1_555 1_555
H13 C23 1_555 1_555
C24 C23 1_555 1_555
C25 C24 1_555 1_555
H14 C25 1_555 1_555
C26 C21 1_555 1_555
H15 C26 1_555 1_555
C27 C24 1_555 1_555
C28 C5 1_555 1_555
C29 C28 1_555 1_555
H16 C29 1_555 1_555
C30 C29 1_555 1_555
C31 C30 1_555 1_555
C32 C31 1_555 1_555
H18 C32 1_555 1_555
C33 C28 1_555 1_555
H19 C33 1_555 1_555
C34 C31 1_555 1_555
Ce7 O5 1_555 1_555
O12 Ce4 1_555 1_555
C5 C6 1_555 1_555
C10 C13 1_555 1_555
C11 C12 1_555 1_555
C18 C19 1_555 1_555
C25 C26 1_555 1_555
C32 C33 1_555 1_555
Ce7 O1_2 1_555 1_555
O1_2 C13_2 1_555 1_555
O3 C20_2 1_555 1_555
O11 C20_2 1_555 1_555
O12 C27_2 1_555 1_555
O6 C27_2 1_555 1_555
O14 C34_2 1_555 1_555
C1_2 C2_2 1_555 1_555
C2_2 C3_2 1_555 1_555
C3_2 H2_2 1_555 1_555
C4_2 C3_2 1_555 1_555
C5_2 C4_2 1_555 1_555
C6_2 C1_2 1_555 1_555
H3_2 C6_2 1_555 1_555
C7_2 C1_2 1_555 1_555
C8_2 C7_2 1_555 1_555
H4_2 C8_2 1_555 1_555
C9_2 C8_2 1_555 1_555
H5_2 C9_2 1_555 1_555
C10_2 C9_2 1_555 1_555
C11_2 C10_2 1_555 1_555
H6_2 C11_2 1_555 1_555
C12_2 C7_2 1_555 1_555
H7_2 C12_2 1_555 1_555
C13_2 O2_2 1_555 1_555
C14_2 C2_2 1_555 1_555
C15_2 C14_2 1_555 1_555
H8_2 C15_2 1_555 1_555
C16_2 C15_2 1_555 1_555
H9_2 C16_2 1_555 1_555
C17_2 C16_2 1_555 1_555
C18_2 C17_2 1_555 1_555
H10_2 C18_2 1_555 1_555
C19_2 C14_2 1_555 1_555
H11_2 C19_2 1_555 1_555
C20_2 C17_2 1_555 1_555
C21_2 C4_2 1_555 1_555
C22_2 C21_2 1_555 1_555
H12_2 C22_2 1_555 1_555
C23_2 C22_2 1_555 1_555
H13_2 C23_2 1_555 1_555
C24_2 C23_2 1_555 1_555
C25_2 C24_2 1_555 1_555
H14_2 C25_2 1_555 1_555
C26_2 C21_2 1_555 1_555
H15_2 C26_2 1_555 1_555
C27_2 C24_2 1_555 1_555
C28_2 C5_2 1_555 1_555
C29_2 C28_2 1_555 1_555
H16_2 C29_2 1_555 1_555
C30_2 C29_2 1_555 1_555
C31_2 C30_2 1_555 1_555
C32_2 C31_2 1_555 1_555
H18_2 C32_2 1_555 1_555
C33_2 C28_2 1_555 1_555
H19_2 C33_2 1_555 1_555
C34_2 C31_2 1_555 1_555
C5_2 C6_2 1_555 1_555
C10_2 C13_2 1_555 1_555
C11_2 C12_2 1_555 1_555
C18_2 C19_2 1_555 1_555
C25_2 C26_2 1_555 1_555
C32_2 C33_2 1_555 1_555

#END
