
###############################################################################
#
# This file contains modified crystal structure data generated from the
# MOF subset of the Cambridge Structural Database (CSD) v543 
# hosted by the Cambridge Crystallographic Data Centre (CCDC).
#
# This work is licensed under the Creative Commons
# Attribution-NonCommercial-ShareAlike 4.0 International License.
# To view a copy of this license, visit
# http://creativecommons.org/licenses/by-nc-sa/4.0/
# or send a letter to
# Creative Commons, PO Box 1866, Mountain View, CA 94042, USA.
#
# CIF created using the CSD Python API on 29 September 2022
# The structure has been converted into the P1 space group
# The structure has a 3D framework
# The original CSD entry FOFTIF is in the triclinic crystal system
# The framework has been calculated to contain at least 10.0% void space
# The void calculation uses a probe of radius 1.32A, grid spacing 0.4
# H atom positions have been added when not included in the experimental data
#
###############################################################################

data_FOFTIF
_chemical_formula_moiety         '(C128 H84 Cd6 N4 O28)n'
_symmetry_cell_setting           triclinic
_symmetry_space_group_name_H-M   'P 1'
_symmetry_Int_Tables_number      1
_space_group_name_Hall           'P 1'
loop_
_symmetry_equiv_pos_site_id
_symmetry_equiv_pos_as_xyz
1 x,y,z
_cell_length_a                   16.4918(16)
_cell_length_b                   16.8382(17)
_cell_length_c                   18.4883(18)
_cell_angle_alpha                69.539(2)
_cell_angle_beta                 66.786(2)
_cell_angle_gamma                63.792(2)
_cell_volume                     4136.34
loop_
_atom_site_label
_atom_site_type_symbol
_atom_site_fract_x
_atom_site_fract_y
_atom_site_fract_z
H35 H 0.2688 0.1168 0.0127
O5 O 0.3359(4) 0.3503(4) 0.6852(4)
O6 O 0.3673(4) 0.2728(4) 0.5953(4)
O11 O 0.3242(4) 0.3262(4) 0.8666(3)
O12 O 0.3052(5) 0.2599(5) 0.9944(4)
C24 C 0.0288(5) 0.4661(5) 0.6227(5)
C25 C 0.0841(5) 0.3822(5) 0.6022(6)
H18 H 0.0592 0.3554 0.5826
C26 C 0.1742(6) 0.3369(6) 0.6098(5)
H19 H 0.2098 0.2796 0.5955
C27 C 0.2138(5) 0.3730(5) 0.6377(5)
C28 C 0.1593(6) 0.4559(6) 0.6612(5)
H20 H 0.1842 0.4806 0.6830
C29 C 0.0686(5) 0.5024(6) 0.6528(5)
H21 H 0.0329 0.5595 0.6676
C30 C 0.3137(5) 0.3285(5) 0.6407(5)
C46 C 0.0064(5) 0.1261(6) 0.8854(6)
C47 C 0.0956(5) 0.0829(5) 0.8955(5)
C51 C 0.1464(5) 0.1319(5) 0.9021(5)
C52 C 0.1489(6) 0.2135(5) 0.8515(5)
H33 H 0.1170 0.2392 0.8111
C53 C 0.1976(5) 0.2592(5) 0.8584(5)
H34 H 0.2008 0.3143 0.8215
C54 C 0.2416(5) 0.2240(6) 0.9193(5)
C55 C 0.2387(5) 0.1414(6) 0.9713(5)
C56 C 0.1925(6) 0.0952(6) 0.9633(6)
H36 H 0.1917 0.0387 0.9986
C57 C 0.2923(6) 0.2721(6) 0.9278(5)
Cd5 Cd 0.52168(4) 0.22466(4) 0.54501(4)
Cd6 Cd 0.44475(4) 0.29490(4) 0.74787(3)
Cd9 Cd 0.37417(4) 0.37397(4) 0.93916(4)
O13 O 0.2395(4) 0.5017(4) 0.9598(4)
O14 O 0.3708(4) 0.5236(4) 0.8813(4)
C48 C 0.1385(5) 0.9873(6) 0.8996(5)
H31 H 0.1997 0.9558 0.9069
C49 C 0.0914(6) 0.9397(6) 0.8930(5)
C50 C 0.0003(5) 0.9864(6) 0.8837(5)
C58 C 0.1389(5) 0.8415(5) 0.8956(5)
C59 C 0.2335(6) 0.8059(6) 0.8561(6)
H37 H 0.2671 0.8459 0.8240
C60 C 0.2810(6) 0.7126(6) 0.8621(6)
H38 H 0.3464 0.6894 0.8353
C61 C 0.2314(6) 0.6537(5) 0.9080(5)
C62 C 0.1358(6) 0.6892(5) 0.9443(5)
H39 H 0.1012 0.6496 0.9739
C63 C 0.0895(6) 0.7822(6) 0.9380(6)
H40 H 0.0236 0.8055 0.9629
C64 C 0.2832(6) 0.5546(6) 0.9160(5)
O7 O 0.6534(4) 0.0938(4) 0.5637(4)
O8 O 0.5348(4) 0.0780(4) 0.5496(4)
C37 C 0.6153(6) 0.0455(5) 0.5588(5)
N3 N 0.4088(6) 0.3465(6) 0.0548(5)
O1 O 0.4393(5) 0.4381(4) 0.7313(4)
H1 H 0.397(6) 0.485(4) 0.714(6)
H2 H 0.460(7) 0.454(6) 0.757(6)
O2 O 0.5791(4) 0.3438(4) 0.5040(4)
O3 O 0.4640(6) 0.1458(5) 0.7641(8)
O4 O 0.5617(4) 0.2699(4) 0.6297(3)
O9 O 0.5520(4) 0.2307(4) 0.8152(4)
O10 O 0.5283(4) 0.3343(5) 0.8773(4)
N1 N 0.5289(5) 0.2570(5) 0.4093(5)
C1 C 0.5058(6) 0.3409(6) 0.3656(6)
H3 H 0.5040 0.3879 0.3840
C2 C 0.4841(6) 0.3630(6) 0.2937(5)
H4 H 0.4672 0.4240 0.2647
C3 C 0.4871(6) 0.2965(7) 0.2647(5)
C4 C 0.5180(7) 0.2077(7) 0.3076(6)
H5 H 0.5261 0.1589 0.2877
C5 C 0.5369(6) 0.1908(6) 0.3794(6)
H6 H 0.5563 0.1300 0.4086
C6 C 0.4592(6) 0.3166(6) 0.1922(5)
C7 C 0.4803(7) 0.3809(7) 0.1239(6)
H7 H 0.5124 0.4164 0.1230
C8 C 0.4548(8) 0.3930(8) 0.0575(6)
H8 H 0.4707 0.4369 0.0111
C9 C 0.3889(7) 0.2841(7) 0.1195(6)
H9 H 0.3578 0.2493 0.1174
C10 C 0.4105(7) 0.2668(8) 0.1889(6)
H10 H 0.3933 0.2224 0.2341
C11 C 0.5885(5) 0.3300(5) 0.5706(5)
C12 C 0.6391(5) 0.3774(5) 0.5817(5)
C13 C 0.6832(6) 0.3395(6) 0.6436(5)
H11 H 0.6795 0.2839 0.6792
C14 C 0.7317(6) 0.3827(6) 0.6531(5)
H12 H 0.7618 0.3565 0.6947
C15 C 0.7363(5) 0.4649(5) 0.6013(5)
C16 C 0.6910(5) 0.5027(5) 0.5403(5)
H13 H 0.6933 0.5591 0.5054
C17 C 0.6434(6) 0.4593(5) 0.5305(6)
H14 H 0.6137 0.4853 0.4887
C18 C 0.7903(5) 0.5135(5) 0.6055(5)
C19 C 0.8808(6) 0.4674(5) 0.6168(5)
H15 H 0.9067 0.4032 0.6263
C20 C 0.9329(5) 0.5159(5) 0.6140(5)
C21 C 0.8922(5) 0.6092(5) 0.6017(5)
H16 H 0.9278 0.6423 0.5989
C22 C 0.8020(5) 0.6569(5) 0.5932(5)
C23 C 0.7529(5) 0.6063(5) 0.5950(5)
H17 H 0.6913 0.6373 0.5886
C31 C 0.7574(5) 0.7577(5) 0.5823(5)
C32 C 0.7847(6) 0.8060(6) 0.6093(6)
H22 H 0.8337 0.7751 0.6347
C33 C 0.7412(6) 0.8992(7) 0.5997(6)
H23 H 0.7619 0.9321 0.6170
C34 C 0.6669(6) 0.9450(5) 0.5649(5)
C35 C 0.6399(6) 0.8964(6) 0.5378(5)
H24 H 0.5892 0.9265 0.5144
C36 C 0.6864(6) 0.8044(6) 0.5447(6)
H25 H 0.6693 0.7723 0.5233
C38 C 0.5782(5) 0.2645(6) 0.8494(5)
C39 C 0.6769(6) 0.2159(6) 0.8572(5)
C40 C 0.7062(6) 0.2450(7) 0.9014(7)
H26 H 0.6645 0.2950 0.9263
C41 C 0.7962(7) 0.2005(7) 0.9085(7)
H27 H 0.8157 0.2195 0.9396
C42 C 0.8598(5) 0.1279(6) 0.8713(5)
C43 C 0.8293(6) 0.1014(6) 0.8265(6)
H28 H 0.8713 0.0527 0.8000
C44 C 0.7389(6) 0.1449(6) 0.8199(6)
H29 H 0.7190 0.1256 0.7892
C45 C 0.9569(6) 0.0803(6) 0.8796(5)
H30 H 0.9774 0.1896 0.8823
H41 H 0.483798 0.10915 0.813546
H42 H 0.403418 0.142287 0.769081
H32 H 0.9676 0.9541 0.8801
H32_2 H 0.0324 0.0459 0.1199
Cd7 Cd 0.62583(4) 0.62603(4) 0.06084(4)
Cd1 Cd 0.47832(4) 0.77534(4) 0.45499(4)
Cd2 Cd 0.55525(4) 0.70510(4) 0.25213(3)
O1_2 O 0.5607(5) 0.5619(4) 0.2687(4)
H1_2 H 0.603(6) 0.515(4) 0.286(6)
H2_2 H 0.540(7) 0.546(6) 0.243(6)
O2_2 O 0.4209(4) 0.6562(4) 0.4960(4)
O3_2 O 0.5360(6) 0.8542(5) 0.2359(8)
O4_2 O 0.4383(4) 0.7301(4) 0.3703(3)
O9_2 O 0.4480(4) 0.7693(4) 0.1848(4)
O10_2 O 0.4717(4) 0.6657(5) 0.1227(4)
N1_2 N 0.4711(5) 0.7430(5) 0.5907(5)
N2 N 0.5912(6) 0.6535(6) 0.9452(5)
C1_2 C 0.4942(6) 0.6591(6) 0.6344(6)
H3_2 H 0.4960 0.6121 0.6160
C2_2 C 0.5159(6) 0.6370(6) 0.7063(5)
H4_2 H 0.5328 0.5760 0.7353
C3_2 C 0.5129(6) 0.7035(7) 0.7353(5)
C4_2 C 0.4820(7) 0.7923(7) 0.6924(6)
H5_2 H 0.4739 0.8411 0.7123
C5_2 C 0.4631(6) 0.8092(6) 0.6206(6)
H6_2 H 0.4437 0.8700 0.5914
C6_2 C 0.5408(6) 0.6834(6) 0.8078(5)
C7_2 C 0.5197(7) 0.6191(7) 0.8761(6)
H7_2 H 0.4876 0.5836 0.8770
C8_2 C 0.5452(8) 0.6070(8) 0.9425(6)
H8_2 H 0.5293 0.5631 0.9889
C9_2 C 0.6111(7) 0.7159(7) 0.8805(6)
H9_2 H 0.6422 0.7507 0.8826
C10_2 C 0.5895(7) 0.7332(8) 0.8111(6)
H10_2 H 0.6067 0.7776 0.7659
C11_2 C 0.4115(5) 0.6700(5) 0.4294(5)
C12_2 C 0.3609(5) 0.6226(5) 0.4183(5)
C13_2 C 0.3168(6) 0.6605(6) 0.3564(5)
H11_2 H 0.3205 0.7161 0.3208
C14_2 C 0.2683(6) 0.6173(6) 0.3469(5)
H12_2 H 0.2382 0.6435 0.3053
C15_2 C 0.2637(5) 0.5351(5) 0.3987(5)
C16_2 C 0.3090(5) 0.4973(5) 0.4597(5)
H13_2 H 0.3067 0.4409 0.4946
C17_2 C 0.3566(6) 0.5407(5) 0.4695(6)
H14_2 H 0.3863 0.5147 0.5113
C18_2 C 0.2097(5) 0.4865(5) 0.3945(5)
C19_2 C 0.1192(6) 0.5326(5) 0.3832(5)
H15_2 H 0.0933 0.5968 0.3737
C20_2 C 0.0671(5) 0.4841(5) 0.3860(5)
C21_2 C 0.1078(5) 0.3908(5) 0.3983(5)
H16_2 H 0.0722 0.3577 0.4011
C22_2 C 0.1980(5) 0.3431(5) 0.4068(5)
C23_2 C 0.2471(5) 0.3937(5) 0.4050(5)
H17_2 H 0.3087 0.3627 0.4114
C31_2 C 0.2426(5) 0.2423(5) 0.4177(5)
C32_2 C 0.2153(6) 0.1940(6) 0.3907(6)
H22_2 H 0.1663 0.2249 0.3653
C33_2 C 0.2588(6) 0.1008(7) 0.4003(6)
H23_2 H 0.2381 0.0679 0.3830
C34_2 C 0.3331(6) 0.0550(5) 0.4351(5)
C35_2 C 0.3601(6) 0.1036(6) 0.4622(5)
H24_2 H 0.4108 0.0735 0.4856
C36_2 C 0.3136(6) 0.1956(6) 0.4553(6)
H25_2 H 0.3307 0.2277 0.4767
C38_2 C 0.4218(5) 0.7355(6) 0.1506(5)
C39_2 C 0.3231(6) 0.7841(6) 0.1428(5)
C40_2 C 0.2938(6) 0.7550(7) 0.0986(7)
H26_2 H 0.3355 0.7050 0.0737
C41_2 C 0.2038(7) 0.7995(7) 0.0915(7)
H27_2 H 0.1843 0.7805 0.0604
C42_2 C 0.1402(5) 0.8721(6) 0.1287(5)
C43_2 C 0.1707(6) 0.8986(6) 0.1735(6)
H28_2 H 0.1287 0.9473 0.2000
C44_2 C 0.2611(6) 0.8551(6) 0.1801(6)
H29_2 H 0.2810 0.8744 0.2108
C45_2 C 0.0431(6) 0.9197(6) 0.1204(5)
H30_2 H 0.0226 0.8104 0.1177
O15 O 0.6641(4) 0.6497(4) 0.3148(4)
O16 O 0.6327(4) 0.7272(4) 0.4047(4)
O17 O 0.3466(4) 0.9062(4) 0.4363(4)
O18 O 0.4652(4) 0.9220(4) 0.4504(4)
O19 O 0.6758(4) 0.6738(4) 0.1334(3)
O20 O 0.6948(5) 0.7401(5) 0.0056(4)
O21 O 0.7605(4) 0.4983(4) 0.0402(4)
O22 O 0.6292(4) 0.4764(4) 0.1187(4)
H41_2 H 0.516202 0.89085 0.186454
H42_2 H 0.596582 0.857713 0.230919
C37_2 C 0.3847(6) 0.9545(5) 0.4412(5)
C48_2 C 0.8615(5) 0.0127(6) 0.1004(5)
H31_2 H 0.8003 0.0442 0.0931
C49_2 C 0.9086(6) 0.0603(6) 0.1070(5)
C50_2 C 0.9997(5) 0.0136(6) 0.1163(5)
C58_2 C 0.8611(5) 0.1585(5) 0.1044(5)
C59_2 C 0.7665(6) 0.1941(6) 0.1439(6)
H37_2 H 0.7329 0.1541 0.1760
C60_2 C 0.7190(6) 0.2874(6) 0.1379(6)
H38_2 H 0.6536 0.3106 0.1647
C61_2 C 0.7686(6) 0.3463(5) 0.0920(5)
C62_2 C 0.8642(6) 0.3108(5) 0.0557(5)
H39_2 H 0.8988 0.3504 0.0261
C63_2 C 0.9105(6) 0.2178(6) 0.0620(6)
H40_2 H 0.9764 0.1945 0.0371
C64_2 C 0.7168(6) 0.4454(6) 0.0840(5)
C24_2 C 0.9712(5) 0.5339(5) 0.3773(5)
C25_2 C 0.9159(5) 0.6178(5) 0.3978(6)
H18_2 H 0.9408 0.6446 0.4174
C26_2 C 0.8258(6) 0.6631(6) 0.3902(5)
H19_2 H 0.7902 0.7204 0.4045
C27_2 C 0.7862(5) 0.6270(5) 0.3623(5)
C28_2 C 0.8407(6) 0.5441(6) 0.3388(5)
H20_2 H 0.8158 0.5194 0.3170
C29_2 C 0.9314(5) 0.4976(6) 0.3472(5)
H21_2 H 0.9671 0.4405 0.3324
C30_2 C 0.6863(5) 0.6715(5) 0.3593(5)
C46_2 C 0.9936(5) 0.8739(6) 0.1146(6)
C47_2 C 0.9044(5) 0.9171(5) 0.1045(5)
C51_2 C 0.8536(5) 0.8681(5) 0.0979(5)
C52_2 C 0.8511(6) 0.7865(5) 0.1485(5)
H33_2 H 0.8830 0.7608 0.1889
C53_2 C 0.8024(5) 0.7408(5) 0.1416(5)
H34_2 H 0.7992 0.6857 0.1785
C54_2 C 0.7584(5) 0.7760(6) 0.0807(5)
C55_2 C 0.7613(5) 0.8586(6) 0.0287(5)
C56_2 C 0.8075(6) 0.9048(6) 0.0367(6)
H36_2 H 0.8083 0.9613 0.0014
C57_2 C 0.7077(6) 0.7279(6) 0.0722(5)
H35_2 H 0.7312 0.8832 0.9873
loop_
_geom_bond_atom_site_label_1
_geom_bond_atom_site_label_2
_geom_bond_site_symmetry_1
_geom_bond_site_symmetry_2
O5 C30 1_555 1_555
O6 C30 1_555 1_555
O11 C57 1_555 1_555
O12 C57 1_555 1_555
C25 C24 1_555 1_555
H18 C25 1_555 1_555
C26 C25 1_555 1_555
H19 C26 1_555 1_555
C27 C26 1_555 1_555
C28 C27 1_555 1_555
H20 C28 1_555 1_555
C29 C24 1_555 1_555
H21 C29 1_555 1_555
C30 C27 1_555 1_555
C47 C46 1_555 1_555
C51 C47 1_555 1_555
C52 C51 1_555 1_555
H33 C52 1_555 1_555
C53 C52 1_555 1_555
H34 C53 1_555 1_555
C54 C53 1_555 1_555
C55 C54 1_555 1_555
C56 C51 1_555 1_555
H36 C56 1_555 1_555
C57 C54 1_555 1_555
Cd5 O6 1_555 1_555
Cd6 O5 1_555 1_555
Cd9 O11 1_555 1_555
O11 Cd6 1_555 1_555
O12 Cd9 1_555 1_555
C28 C29 1_555 1_555
C55 C56 1_555 1_555
O13 C64 1_555 1_555
O14 C64 1_555 1_555
H31 C48 1_555 1_555
C49 C48 1_555 1_555
C58 C49 1_555 1_555
C59 C58 1_555 1_555
H37 C59 1_555 1_555
C60 C59 1_555 1_555
H38 C60 1_555 1_555
C61 C60 1_555 1_555
C62 C61 1_555 1_555
H39 C62 1_555 1_555
C63 C58 1_555 1_555
H40 C63 1_555 1_555
C64 C61 1_555 1_555
Cd9 O13 1_555 1_555
O14 Cd9 1_555 1_555
C49 C50 1_555 1_555
C62 C63 1_555 1_555
O7 C37 1_555 1_555
O8 C37 1_555 1_555
Cd5 O7 1_555 1_555
O8 Cd5 1_555 1_555
Cd5 O2 1_555 1_555
Cd6 O1 1_555 1_555
Cd9 O10 1_555 1_555
O1 H1 1_555 1_555
H2 O1 1_555 1_555
O2 C11 1_555 1_555
O3 Cd6 1_555 1_555
O4 Cd5 1_555 1_555
O9 Cd6 1_555 1_555
O10 C38 1_555 1_555
N1 Cd5 1_555 1_555
N3 C8 1_555 1_555
C1 N1 1_555 1_555
H3 C1 1_555 1_555
C2 C1 1_555 1_555
H4 C2 1_555 1_555
C3 C2 1_555 1_555
C4 C3 1_555 1_555
H5 C4 1_555 1_555
C5 N1 1_555 1_555
H6 C5 1_555 1_555
C6 C3 1_555 1_555
C7 C6 1_555 1_555
H7 C7 1_555 1_555
C8 C7 1_555 1_555
H8 C8 1_555 1_555
C9 N3 1_555 1_555
H9 C9 1_555 1_555
C10 C6 1_555 1_555
H10 C10 1_555 1_555
C11 O4 1_555 1_555
C12 C11 1_555 1_555
C13 C12 1_555 1_555
H11 C13 1_555 1_555
C14 C13 1_555 1_555
H12 C14 1_555 1_555
C15 C14 1_555 1_555
C16 C15 1_555 1_555
H13 C16 1_555 1_555
C17 C12 1_555 1_555
H14 C17 1_555 1_555
C18 C15 1_555 1_555
C19 C18 1_555 1_555
H15 C19 1_555 1_555
C20 C19 1_555 1_555
C21 C20 1_555 1_555
H16 C21 1_555 1_555
C22 C21 1_555 1_555
C23 C18 1_555 1_555
H17 C23 1_555 1_555
C31 C22 1_555 1_555
C32 C31 1_555 1_555
H22 C32 1_555 1_555
C33 C32 1_555 1_555
H23 C33 1_555 1_555
C34 C33 1_555 1_555
C35 C34 1_555 1_555
H24 C35 1_555 1_555
C36 C31 1_555 1_555
H25 C36 1_555 1_555
C38 O9 1_555 1_555
C39 C38 1_555 1_555
C40 C39 1_555 1_555
H26 C40 1_555 1_555
C41 C40 1_555 1_555
H27 C41 1_555 1_555
C42 C41 1_555 1_555
C43 C42 1_555 1_555
H28 C43 1_555 1_555
C44 C39 1_555 1_555
H29 C44 1_555 1_555
C45 C42 1_555 1_555
Cd6 O4 1_555 1_555
C4 C5 1_555 1_555
C9 C10 1_555 1_555
C16 C17 1_555 1_555
C22 C23 1_555 1_555
C35 C36 1_555 1_555
C43 C44 1_555 1_555
O3 H41 1_555 1_555
O3 H42 1_555 1_555
Cd1 O2_2 1_555 1_555
Cd2 O1_2 1_555 1_555
Cd7 O10_2 1_555 1_555
O1_2 H1_2 1_555 1_555
H2_2 O1_2 1_555 1_555
O2_2 C11_2 1_555 1_555
O3_2 Cd2 1_555 1_555
O4_2 Cd1 1_555 1_555
O9_2 Cd2 1_555 1_555
O10_2 C38_2 1_555 1_555
N1_2 Cd1 1_555 1_555
N2 C8_2 1_555 1_555
C1_2 N1_2 1_555 1_555
H3_2 C1_2 1_555 1_555
C2_2 C1_2 1_555 1_555
H4_2 C2_2 1_555 1_555
C3_2 C2_2 1_555 1_555
C4_2 C3_2 1_555 1_555
H5_2 C4_2 1_555 1_555
C5_2 N1_2 1_555 1_555
H6_2 C5_2 1_555 1_555
C6_2 C3_2 1_555 1_555
C7_2 C6_2 1_555 1_555
H7_2 C7_2 1_555 1_555
C8_2 C7_2 1_555 1_555
H8_2 C8_2 1_555 1_555
C9_2 N2 1_555 1_555
H9_2 C9_2 1_555 1_555
C10_2 C6_2 1_555 1_555
H10_2 C10_2 1_555 1_555
C11_2 O4_2 1_555 1_555
C12_2 C11_2 1_555 1_555
C13_2 C12_2 1_555 1_555
H11_2 C13_2 1_555 1_555
C14_2 C13_2 1_555 1_555
H12_2 C14_2 1_555 1_555
C15_2 C14_2 1_555 1_555
C16_2 C15_2 1_555 1_555
H13_2 C16_2 1_555 1_555
C17_2 C12_2 1_555 1_555
H14_2 C17_2 1_555 1_555
C18_2 C15_2 1_555 1_555
C19_2 C18_2 1_555 1_555
H15_2 C19_2 1_555 1_555
C20_2 C19_2 1_555 1_555
C21_2 C20_2 1_555 1_555
H16_2 C21_2 1_555 1_555
C22_2 C21_2 1_555 1_555
C23_2 C18_2 1_555 1_555
H17_2 C23_2 1_555 1_555
C31_2 C22_2 1_555 1_555
C32_2 C31_2 1_555 1_555
H22_2 C32_2 1_555 1_555
C33_2 C32_2 1_555 1_555
H23_2 C33_2 1_555 1_555
C34_2 C33_2 1_555 1_555
C35_2 C34_2 1_555 1_555
H24_2 C35_2 1_555 1_555
C36_2 C31_2 1_555 1_555
H25_2 C36_2 1_555 1_555
C38_2 O9_2 1_555 1_555
C39_2 C38_2 1_555 1_555
C40_2 C39_2 1_555 1_555
H26_2 C40_2 1_555 1_555
C41_2 C40_2 1_555 1_555
H27_2 C41_2 1_555 1_555
C42_2 C41_2 1_555 1_555
C43_2 C42_2 1_555 1_555
H28_2 C43_2 1_555 1_555
C44_2 C39_2 1_555 1_555
H29_2 C44_2 1_555 1_555
C45_2 C42_2 1_555 1_555
O15 Cd2 1_555 1_555
O16 Cd1 1_555 1_555
O17 Cd1 1_555 1_555
O18 Cd1 1_555 1_555
O19 Cd2 1_555 1_555
O20 Cd7 1_555 1_555
O21 Cd7 1_555 1_555
O22 Cd7 1_555 1_555
Cd2 O4_2 1_555 1_555
Cd7 O19 1_555 1_555
C4_2 C5_2 1_555 1_555
C9_2 C10_2 1_555 1_555
C16_2 C17_2 1_555 1_555
C22_2 C23_2 1_555 1_555
C35_2 C36_2 1_555 1_555
C43_2 C44_2 1_555 1_555
O3_2 H41_2 1_555 1_555
O3_2 H42_2 1_555 1_555
O17 C37_2 1_555 1_555
O18 C37_2 1_555 1_555
O21 C64_2 1_555 1_555
O22 C64_2 1_555 1_555
H31_2 C48_2 1_555 1_555
C49_2 C48_2 1_555 1_555
C58_2 C49_2 1_555 1_555
C59_2 C58_2 1_555 1_555
H37_2 C59_2 1_555 1_555
C60_2 C59_2 1_555 1_555
H38_2 C60_2 1_555 1_555
C61_2 C60_2 1_555 1_555
C62_2 C61_2 1_555 1_555
H39_2 C62_2 1_555 1_555
C63_2 C58_2 1_555 1_555
H40_2 C63_2 1_555 1_555
C64_2 C61_2 1_555 1_555
C49_2 C50_2 1_555 1_555
C62_2 C63_2 1_555 1_555
O15 C30_2 1_555 1_555
O16 C30_2 1_555 1_555
O19 C57_2 1_555 1_555
O20 C57_2 1_555 1_555
C25_2 C24_2 1_555 1_555
H18_2 C25_2 1_555 1_555
C26_2 C25_2 1_555 1_555
H19_2 C26_2 1_555 1_555
C27_2 C26_2 1_555 1_555
C28_2 C27_2 1_555 1_555
H20_2 C28_2 1_555 1_555
C29_2 C24_2 1_555 1_555
H21_2 C29_2 1_555 1_555
C30_2 C27_2 1_555 1_555
C47_2 C46_2 1_555 1_555
C51_2 C47_2 1_555 1_555
C52_2 C51_2 1_555 1_555
H33_2 C52_2 1_555 1_555
C53_2 C52_2 1_555 1_555
H34_2 C53_2 1_555 1_555
C54_2 C53_2 1_555 1_555
C55_2 C54_2 1_555 1_555
C56_2 C51_2 1_555 1_555
H36_2 C56_2 1_555 1_555
C57_2 C54_2 1_555 1_555
C28_2 C29_2 1_555 1_555
C55_2 C56_2 1_555 1_555

#END
