
###############################################################################
#
# This file contains modified crystal structure data generated from the
# MOF subset of the Cambridge Structural Database (CSD) v543 
# hosted by the Cambridge Crystallographic Data Centre (CCDC).
#
# This work is licensed under the Creative Commons
# Attribution-NonCommercial-ShareAlike 4.0 International License.
# To view a copy of this license, visit
# http://creativecommons.org/licenses/by-nc-sa/4.0/
# or send a letter to
# Creative Commons, PO Box 1866, Mountain View, CA 94042, USA.
#
# CIF created using the CSD Python API on 29 September 2022
# The structure has been converted into the P1 space group
# The structure has a 3D framework
# The original CSD entry FOFTUR is in the triclinic crystal system
# The framework has been calculated to contain at least 10.0% void space
# The void calculation uses a probe of radius 1.32A, grid spacing 0.4
# H atom positions have been added when not included in the experimental data
#
###############################################################################

data_FOFTUR
_chemical_formula_moiety         '(C132 H88 Cd6 N6 O28)n'
_symmetry_cell_setting           triclinic
_symmetry_space_group_name_H-M   'P 1'
_symmetry_Int_Tables_number      1
_space_group_name_Hall           'P 1'
loop_
_symmetry_equiv_pos_site_id
_symmetry_equiv_pos_as_xyz
1 x,y,z
_cell_length_a                   16.3187(10)
_cell_length_b                   17.0365(9)
_cell_length_c                   18.9426(11)
_cell_angle_alpha                88.412(2)
_cell_angle_beta                 70.681(2)
_cell_angle_gamma                62.5920(10)
_cell_volume                     4362.86
loop_
_atom_site_label
_atom_site_type_symbol
_atom_site_fract_x
_atom_site_fract_y
_atom_site_fract_z
C23 C 0.0809(6) 0.0218(6) 0.3922(5)
H16 H 0.1161 0.0541 0.3893
H22 H 0.0089 0.1921 0.4577
O5 O 0.5964(4) 0.7803(4) 0.3130(4)
O6 O 0.5740(4) 0.6778(4) 0.3793(4)
H12 H 0.0238 0.7765 0.3279
C21 C 0.0785(6) 0.8823(5) 0.3914(5)
H15 H 0.1124 0.8189 0.3848
C22 C 0.1312(6) 0.9287(6) 0.3859(6)
C26 C 0.2378(6) 0.8818(6) 0.3758(6)
C27 C 0.2739(6) 0.8088(6) 0.4121(6)
H18 H 0.2301 0.7893 0.4435
C28 C 0.3736(6) 0.7635(7) 0.4032(6)
H19 H 0.3983 0.7122 0.4269
C29 C 0.4371(6) 0.7950(7) 0.3585(5)
C30 C 0.4009(7) 0.8684(7) 0.3245(7)
H20 H 0.4438 0.8897 0.2949
C31 C 0.3013(6) 0.9124(7) 0.3329(6)
H21 H 0.2768 0.9637 0.3090
C32 C 0.5452(6) 0.7466(6) 0.3497(5)
Cd5 Cd 0.67246(4) 0.63001(4) 0.44488(4)
Cd7 Cd 0.76104(4) 0.71682(4) 0.26259(4)
N3 N -0.0000(7) 0.7445(8) 0.9770(5)
O7 O 0.7136(5) 0.4865(4) 0.3920(5)
O8 O 0.7856(4) 0.4985(4) 0.4685(4)
C24 C 0.9802(6) 0.0690(6) 0.4028(6)
C25 C 0.9287(6) 0.0199(6) 0.4113(5)
H17 H 0.8597 0.0505 0.4207
C33 C 0.9280(6) 0.1663(6) 0.4090(5)
C34 C 0.9542(6) 0.2199(6) 0.4414(5)
C35 C 0.9035(7) 0.3112(6) 0.4501(6)
H23 H 0.9194 0.3460 0.4762
C36 C 0.8279(7) 0.3535(6) 0.4206(6)
C37 C 0.8031(7) 0.2997(6) 0.3882(6)
H24 H 0.7506 0.3267 0.3694
C38 C 0.8529(7) 0.2076(6) 0.3826(6)
H25 H 0.8342 0.1726 0.3599
C39 C 0.7717(7) 0.4510(6) 0.4299(6)
Cd3 Cd 0.85101(5) 0.80512(5) 0.07699(4)
O1 O 0.7784(4) 0.6822(4) 0.3782(3)
O2 O 0.7884(5) 0.5731(5) 0.2464(5)
O3 O 0.6938(4) 0.7419(5) 0.4994(4)
O4 O 0.7390(5) 0.8592(5) 0.2813(4)
O9 O 0.7436(5) 0.7512(5) 0.1476(4)
O10 O 0.8313(6) 0.6924(6) 0.0309(4)
N1 N 0.5468(6) 0.6541(6) 0.5531(4)
C1 C 0.5138(8) 0.5952(9) 0.5706(7)
H1 H 0.5450 0.5416 0.5362
C2 C 0.4365(8) 0.6079(10) 0.6361(7)
H2 H 0.4155 0.5638 0.6464
C3 C 0.3906(9) 0.6850(11) 0.6859(6)
C4 C 0.4285(11) 0.7437(13) 0.6697(8)
H3 H 0.4030 0.7962 0.7038
C5 C 0.5043(10) 0.7228(11) 0.6025(8)
H4 H 0.5281 0.7648 0.5911
C6 C 0.3047(9) 0.7077(13) 0.7576(7)
H5 H 0.2781 0.7639 0.7871
C7 C 0.2629(8) 0.6598(12) 0.7838(7)
H6 H 0.2921 0.6018 0.7566
C8 C 0.1736(8) 0.6862(11) 0.8523(7)
C9 C 0.1367(8) 0.6326(10) 0.8802(7)
H7 H 0.1703 0.5717 0.8580
C10 C 0.0481(8) 0.6655(10) 0.9424(7)
H8 H 0.0225 0.6257 0.9599
C11 C 0.0361(13) 0.8015(14) 0.9517(9)
H9 H 0.0027 0.8614 0.9763
C12 C 0.1226(13) 0.7708(14) 0.8893(9)
H10 H 0.1474 0.8111 0.8715
C13 C 0.7595(6) 0.7333(6) 0.4348(5)
C14 C 0.8139(5) 0.7844(5) 0.4295(5)
C15 C 0.9056(6) 0.7547(5) 0.3703(5)
H11 H 0.9307 0.7041 0.3341
C16 C 0.9593(6) 0.7998(6) 0.3650(5)
C17 C 0.9208(6) 0.8773(5) 0.4125(5)
C18 C 0.8274(6) 0.9089(6) 0.4704(5)
H13 H 0.8000 0.9624 0.5039
C19 C 0.7756(6) 0.8613(6) 0.4782(5)
H14 H 0.7131 0.8822 0.5176
C20 C 0.9778(6) 0.9265(5) 0.4061(5)
C40 C 0.7679(7) 0.6992(7) 0.0899(6)
C41 C 0.7101(7) 0.6496(7) 0.0949(6)
C42 C 0.7478(7) 0.5770(8) 0.0411(6)
H26 H 0.8093 0.5587 0.0010
C43 C 0.6948(7) 0.5303(7) 0.0458(6)
H27 H 0.7236 0.4776 0.0110
C44 C 0.6036(7) 0.5587(7) 0.0990(5)
C45 C 0.5655(7) 0.6336(8) 0.1526(6)
H28 H 0.5027 0.6536 0.1916
C46 C 0.6174(7) 0.6770(8) 0.1490(6)
H29 H 0.5892 0.7285 0.1851
C47 C 0.5479(7) 0.5084(7) 0.1005(5)
C48 C 0.5957(6) 0.4168(6) 0.0902(6)
H30 H 0.6650 0.3857 0.0792
C49 C 0.5461(7) 0.3679(7) 0.0953(6)
C50 C 0.4471(6) 0.4142(6) 0.1074(5)
H31 H 0.4127 0.3813 0.1097
C51 C 0.3948(6) 0.5064(6) 0.1162(5)
C52 C 0.4480(6) 0.5536(7) 0.1131(5)
H32 H 0.4145 0.6171 0.1199
C53 C 0.5989(6) 0.2687(6) 0.0922(6)
C54 C 0.6973(8) 0.2181(8) 0.0464(8)
H33 H 0.7306 0.2459 0.0136
C55 C 0.7482(7) 0.1254(7) 0.0480(8)
H34 H 0.8173 0.0924 0.0207
C56 C 0.6997(7) 0.0836(7) 0.0880(7)
C57 C 0.6028(9) 0.1330(8) 0.1337(9)
H35 H 0.5681 0.1043 0.1630
C58 C 0.5565(8) 0.2231(8) 0.1371(8)
H36 H 0.4910 0.2564 0.1725
C60 C 0.2868(6) 0.5567(6) 0.1315(5)
C61 C 0.2261(6) 0.5183(6) 0.1629(5)
H37 H 0.2543 0.4597 0.1755
C62 C 0.1281(6) 0.5627(6) 0.1758(6)
H38 H 0.0886 0.5349 0.1975
C63 C 0.0846(6) 0.6481(6) 0.1579(5)
C64 C 0.1422(6) 0.6876(7) 0.1254(5)
H39 H 0.1134 0.7454 0.1114
C65 C 0.2410(7) 0.6434(7) 0.1134(6)
H40 H 0.2798 0.6718 0.0921
O19 O 0.8450(7) 0.9421(7) 0.0463(10)
O20 O 0.7195(8) 0.9425(7) 0.1174(11)
O21 O 0.9256(4) 0.6585(4) 0.2055(4)
O22 O 0.9372(4) 0.7750(5) 0.1553(4)
H41 H 0.73628 0.56614 0.287116
H42 H 0.786616 0.559549 0.196447
H43 H 0.798171 0.85607 0.288085
H44 H 0.72954 0.889006 0.236692
N3_2 N 1.0000(7) 0.7445(8) 0.9770(5)
C59 C 0.7563(7) 0.9824(7) 0.0826(8)
C66 C 0.9740(6) 0.6971(6) 0.1732(5)
O13 O 0.0744(4) 0.3415(4) 0.7945(4)
O14 O 0.0628(4) 0.2250(5) 0.8447(4)
N2 N 0.0000(7) 0.2555(8) 0.0230(5)
C66_2 C 0.0260(6) 0.3029(6) 0.8268(5)
Cd6 Cd 0.23896(4) 0.28318(4) 0.73741(4)
Cd8 Cd 0.14899(5) 0.19488(5) 0.92301(4)
O11 O 0.1550(7) 0.0579(7) 0.9537(10)
O12 O 0.2805(8) 0.0575(7) 0.8826(11)
C59_2 C 0.2437(7) 0.0176(7) 0.9174(8)
Cd1 Cd 0.32754(4) 0.36999(4) 0.55512(4)
O1_2 O 0.2216(4) 0.3178(4) 0.6218(3)
O2_2 O 0.2116(5) 0.4269(5) 0.7536(5)
O3_2 O 0.3062(4) 0.2581(5) 0.5006(4)
O4_2 O 0.2610(5) 0.1408(5) 0.7187(4)
O9_2 O 0.2564(5) 0.2488(5) 0.8524(4)
O10_2 O 0.1687(6) 0.3076(6) 0.9691(4)
N1_2 N 0.4532(6) 0.3459(6) 0.4469(4)
N2_2 N 1.0000(7) 0.2555(8) 0.0230(5)
C1_2 C 0.4862(8) 0.4048(9) 0.4294(7)
H1_2 H 0.4550 0.4584 0.4638
C2_2 C 0.5635(8) 0.3921(10) 0.3639(7)
H2_2 H 0.5845 0.4362 0.3536
C3_2 C 0.6094(9) 0.3150(11) 0.3141(6)
C4_2 C 0.5715(11) 0.2563(13) 0.3303(8)
H3_2 H 0.5970 0.2038 0.2962
C5_2 C 0.4957(10) 0.2772(11) 0.3975(8)
H4_2 H 0.4719 0.2352 0.4089
C6_2 C 0.6953(9) 0.2923(13) 0.2424(7)
H5_2 H 0.7219 0.2361 0.2129
C7_2 C 0.7371(8) 0.3402(12) 0.2162(7)
H6_2 H 0.7079 0.3982 0.2434
C8_2 C 0.8264(8) 0.3138(11) 0.1477(7)
C9_2 C 0.8633(8) 0.3674(10) 0.1198(7)
H7_2 H 0.8297 0.4283 0.1420
C10_2 C 0.9519(8) 0.3345(10) 0.0576(7)
H8_2 H 0.9775 0.3743 0.0401
C11_2 C 0.9639(13) 0.1985(14) 0.0483(9)
H9_2 H 0.9973 0.1386 0.0237
C12_2 C 0.8774(13) 0.2292(14) 0.1107(9)
H10_2 H 0.8526 0.1889 0.1285
C13_2 C 0.2405(6) 0.2667(6) 0.5652(5)
C14_2 C 0.1861(5) 0.2156(5) 0.5705(5)
C15_2 C 0.0944(6) 0.2453(5) 0.6297(5)
H11_2 H 0.0693 0.2959 0.6659
C16_2 C 0.0407(6) 0.2002(6) 0.6350(5)
C17_2 C 0.0792(6) 0.1227(5) 0.5875(5)
C18_2 C 0.1726(6) 0.0911(6) 0.5296(5)
H13_2 H 0.2000 0.0376 0.4961
C19_2 C 0.2244(6) 0.1387(6) 0.5218(5)
H14_2 H 0.2869 0.1178 0.4824
C20_2 C 0.0222(6) 0.0735(5) 0.5939(5)
C40_2 C 0.2321(7) 0.3008(7) 0.9101(6)
C41_2 C 0.2899(7) 0.3504(7) 0.9051(6)
C42_2 C 0.2522(7) 0.4230(8) 0.9589(6)
H26_2 H 0.1907 0.4413 0.9990
C43_2 C 0.3052(7) 0.4697(7) 0.9542(6)
H27_2 H 0.2764 0.5224 0.9890
C44_2 C 0.3964(7) 0.4413(7) 0.9010(5)
C45_2 C 0.4345(7) 0.3664(8) 0.8474(6)
H28_2 H 0.4973 0.3464 0.8084
C46_2 C 0.3826(7) 0.3230(8) 0.8510(6)
H29_2 H 0.4108 0.2715 0.8149
C47_2 C 0.4521(7) 0.4916(7) 0.8995(5)
C48_2 C 0.4043(6) 0.5832(6) 0.9098(6)
H30_2 H 0.3350 0.6143 0.9208
C49_2 C 0.4539(7) 0.6321(7) 0.9047(6)
C50_2 C 0.5529(6) 0.5858(6) 0.8926(5)
H31_2 H 0.5873 0.6187 0.8903
C51_2 C 0.6052(6) 0.4936(6) 0.8838(5)
C52_2 C 0.5520(6) 0.4464(7) 0.8869(5)
H32_2 H 0.5855 0.3829 0.8801
C53_2 C 0.4011(6) 0.7313(6) 0.9078(6)
C54_2 C 0.3027(8) 0.7819(8) 0.9536(8)
H33_2 H 0.2694 0.7541 0.9864
C55_2 C 0.2518(7) 0.8746(7) 0.9520(8)
H34_2 H 0.1827 0.9076 0.9793
C56_2 C 0.3003(7) 0.9164(7) 0.9120(7)
C57_2 C 0.3972(9) 0.8670(8) 0.8663(9)
H35_2 H 0.4319 0.8957 0.8370
C58_2 C 0.4435(8) 0.7769(8) 0.8629(8)
H36_2 H 0.5090 0.7436 0.8275
C60_2 C 0.7132(6) 0.4433(6) 0.8685(5)
C61_2 C 0.7739(6) 0.4817(6) 0.8371(5)
H37_2 H 0.7457 0.5403 0.8245
C62_2 C 0.8719(6) 0.4373(6) 0.8242(6)
H38_2 H 0.9114 0.4651 0.8025
C63_2 C 0.9154(6) 0.3519(6) 0.8421(5)
C64_2 C 0.8578(6) 0.3124(7) 0.8746(5)
H39_2 H 0.8866 0.2546 0.8886
C65_2 C 0.7590(7) 0.3566(7) 0.8866(6)
H40_2 H 0.7202 0.3282 0.9079
O15 O 0.4036(4) 0.2197(4) 0.6870(4)
O16 O 0.4260(4) 0.3222(4) 0.6207(4)
O17 O 0.2864(5) 0.5135(4) 0.6080(5)
O18 O 0.2144(4) 0.5015(4) 0.5315(4)
H41_2 H 0.26372 0.43386 0.712884
H42_2 H 0.213384 0.440451 0.803553
H43_2 H 0.201829 0.14393 0.711915
H44_2 H 0.27046 0.110994 0.763308
C24_2 C 0.0198(6) 0.9310(6) 0.5972(6)
C25_2 C 0.0713(6) 0.9801(6) 0.5887(5)
H17_2 H 0.1403 0.9495 0.5793
C33_2 C 0.0720(6) 0.8337(6) 0.5910(5)
C34_2 C 0.0458(6) 0.7801(6) 0.5586(5)
C35_2 C 0.0965(7) 0.6888(6) 0.5499(6)
H23_2 H 0.0806 0.6540 0.5238
C36_2 C 0.1721(7) 0.6465(6) 0.5794(6)
C37_2 C 0.1969(7) 0.7003(6) 0.6118(6)
H24_2 H 0.2494 0.6733 0.6306
C38_2 C 0.1471(7) 0.7924(6) 0.6174(6)
H25_2 H 0.1658 0.8274 0.6401
C39_2 C 0.2283(7) 0.5490(6) 0.5701(6)
H12_2 H 0.9762 0.2235 0.6721
C21_2 C 0.9215(6) 0.1177(5) 0.6086(5)
H15_2 H 0.8876 0.1811 0.6152
C22_2 C 0.8688(6) 0.0713(6) 0.6141(6)
C26_2 C 0.7622(6) 0.1182(6) 0.6242(6)
C27_2 C 0.7261(6) 0.1912(6) 0.5879(6)
H18_2 H 0.7699 0.2107 0.5565
C28_2 C 0.6264(6) 0.2365(7) 0.5968(6)
H19_2 H 0.6017 0.2878 0.5731
C29_2 C 0.5629(6) 0.2050(7) 0.6415(5)
C30_2 C 0.5991(7) 0.1316(7) 0.6755(7)
H20_2 H 0.5562 0.1103 0.7051
C31_2 C 0.6987(6) 0.0876(7) 0.6671(6)
H21_2 H 0.7232 0.0363 0.6910
C32_2 C 0.4548(6) 0.2534(6) 0.6503(5)
C23_2 C 0.9191(6) 0.9782(6) 0.6078(5)
H16_2 H 0.8839 0.9459 0.6107
H22_2 H 0.9911 0.8079 0.5423
loop_
_geom_bond_atom_site_label_1
_geom_bond_atom_site_label_2
_geom_bond_site_symmetry_1
_geom_bond_site_symmetry_2
H16 C23 1_555 1_555
O5 C32 1_555 1_555
O6 C32 1_555 1_555
H15 C21 1_555 1_555
C22 C21 1_555 1_555
C26 C22 1_555 1_555
C27 C26 1_555 1_555
H18 C27 1_555 1_555
C28 C27 1_555 1_555
H19 C28 1_555 1_555
C29 C28 1_555 1_555
C30 C29 1_555 1_555
H20 C30 1_555 1_555
C31 C26 1_555 1_555
H21 C31 1_555 1_555
C32 C29 1_555 1_555
Cd5 O6 1_555 1_555
Cd7 O5 1_555 1_555
C30 C31 1_555 1_555
O7 C39 1_555 1_555
O8 C39 1_555 1_555
H17 C25 1_555 1_555
C33 C24 1_555 1_555
C34 C33 1_555 1_555
C35 C34 1_555 1_555
H23 C35 1_555 1_555
C36 C35 1_555 1_555
C37 C36 1_555 1_555
H24 C37 1_555 1_555
C38 C33 1_555 1_555
H25 C38 1_555 1_555
C39 C36 1_555 1_555
Cd5 O7 1_555 1_555
O8 Cd5 1_555 1_555
C24 C25 1_555 1_555
C37 C38 1_555 1_555
Cd5 O1 1_555 1_555
Cd7 O1 1_555 1_555
Cd3 O9 1_555 1_555
O1 C13 1_555 1_555
O2 Cd7 1_555 1_555
O3 Cd5 1_555 1_555
O4 Cd7 1_555 1_555
O9 Cd7 1_555 1_555
O10 Cd3 1_555 1_555
N1 Cd5 1_555 1_555
N3 C10 1_555 1_555
C1 N1 1_555 1_555
H1 C1 1_555 1_555
C2 C1 1_555 1_555
H2 C2 1_555 1_555
C3 C2 1_555 1_555
C4 C3 1_555 1_555
H3 C4 1_555 1_555
C5 N1 1_555 1_555
H4 C5 1_555 1_555
C6 C3 1_555 1_555
H5 C6 1_555 1_555
C7 C6 1_555 1_555
H6 C7 1_555 1_555
C8 C7 1_555 1_555
C9 C8 1_555 1_555
H7 C9 1_555 1_555
C10 C9 1_555 1_555
H8 C10 1_555 1_555
C11 N3 1_555 1_555
H9 C11 1_555 1_555
C12 C8 1_555 1_555
H10 C12 1_555 1_555
C13 O3 1_555 1_555
C14 C13 1_555 1_555
C15 C14 1_555 1_555
H11 C15 1_555 1_555
C16 C15 1_555 1_555
C17 C16 1_555 1_555
C18 C17 1_555 1_555
H13 C18 1_555 1_555
C19 C14 1_555 1_555
H14 C19 1_555 1_555
C20 C17 1_555 1_555
C40 O9 1_555 1_555
C41 C40 1_555 1_555
C42 C41 1_555 1_555
H26 C42 1_555 1_555
C43 C42 1_555 1_555
H27 C43 1_555 1_555
C44 C43 1_555 1_555
C45 C44 1_555 1_555
H28 C45 1_555 1_555
C46 C41 1_555 1_555
H29 C46 1_555 1_555
C47 C44 1_555 1_555
C48 C47 1_555 1_555
H30 C48 1_555 1_555
C49 C48 1_555 1_555
C50 C49 1_555 1_555
H31 C50 1_555 1_555
C51 C50 1_555 1_555
C52 C47 1_555 1_555
H32 C52 1_555 1_555
C53 C49 1_555 1_555
C54 C53 1_555 1_555
H33 C54 1_555 1_555
C55 C54 1_555 1_555
H34 C55 1_555 1_555
C56 C55 1_555 1_555
C57 C56 1_555 1_555
H35 C57 1_555 1_555
C58 C53 1_555 1_555
H36 C58 1_555 1_555
C60 C51 1_555 1_555
C61 C60 1_555 1_555
H37 C61 1_555 1_555
C62 C61 1_555 1_555
H38 C62 1_555 1_555
C63 C62 1_555 1_555
C64 C63 1_555 1_555
H39 C64 1_555 1_555
C65 C60 1_555 1_555
H40 C65 1_555 1_555
O19 Cd3 1_555 1_555
O20 Cd3 1_555 1_555
O21 Cd7 1_555 1_555
O22 Cd3 1_555 1_555
O10 C40 1_555 1_555
C4 C5 1_555 1_555
C11 C12 1_555 1_555
C18 C19 1_555 1_555
C45 C46 1_555 1_555
C51 C52 1_555 1_555
C57 C58 1_555 1_555
C64 C65 1_555 1_555
O2 H41 1_555 1_555
O2 H42 1_555 1_555
O4 H43 1_555 1_555
O4 H44 1_555 1_555
O19 C59 1_555 1_555
O20 C59 1_555 1_555
O21 C66 1_555 1_555
O22 C66 1_555 1_555
O13 C66_2 1_555 1_555
O14 C66_2 1_555 1_555
Cd6 O13 1_555 1_555
Cd8 O14 1_555 1_555
O11 C59_2 1_555 1_555
O12 C59_2 1_555 1_555
Cd8 O11 1_555 1_555
O12 Cd8 1_555 1_555
Cd1 O1_2 1_555 1_555
Cd6 O1_2 1_555 1_555
Cd8 O9_2 1_555 1_555
O1_2 C13_2 1_555 1_555
O2_2 Cd6 1_555 1_555
O3_2 Cd1 1_555 1_555
O4_2 Cd6 1_555 1_555
O9_2 Cd6 1_555 1_555
O10_2 Cd8 1_555 1_555
N1_2 Cd1 1_555 1_555
N2_2 C10_2 1_555 1_555
C1_2 N1_2 1_555 1_555
H1_2 C1_2 1_555 1_555
C2_2 C1_2 1_555 1_555
H2_2 C2_2 1_555 1_555
C3_2 C2_2 1_555 1_555
C4_2 C3_2 1_555 1_555
H3_2 C4_2 1_555 1_555
C5_2 N1_2 1_555 1_555
H4_2 C5_2 1_555 1_555
C6_2 C3_2 1_555 1_555
H5_2 C6_2 1_555 1_555
C7_2 C6_2 1_555 1_555
H6_2 C7_2 1_555 1_555
C8_2 C7_2 1_555 1_555
C9_2 C8_2 1_555 1_555
H7_2 C9_2 1_555 1_555
C10_2 C9_2 1_555 1_555
H8_2 C10_2 1_555 1_555
C11_2 N2_2 1_555 1_555
H9_2 C11_2 1_555 1_555
C12_2 C8_2 1_555 1_555
H10_2 C12_2 1_555 1_555
C13_2 O3_2 1_555 1_555
C14_2 C13_2 1_555 1_555
C15_2 C14_2 1_555 1_555
H11_2 C15_2 1_555 1_555
C16_2 C15_2 1_555 1_555
C17_2 C16_2 1_555 1_555
C18_2 C17_2 1_555 1_555
H13_2 C18_2 1_555 1_555
C19_2 C14_2 1_555 1_555
H14_2 C19_2 1_555 1_555
C20_2 C17_2 1_555 1_555
C40_2 O9_2 1_555 1_555
C41_2 C40_2 1_555 1_555
C42_2 C41_2 1_555 1_555
H26_2 C42_2 1_555 1_555
C43_2 C42_2 1_555 1_555
H27_2 C43_2 1_555 1_555
C44_2 C43_2 1_555 1_555
C45_2 C44_2 1_555 1_555
H28_2 C45_2 1_555 1_555
C46_2 C41_2 1_555 1_555
H29_2 C46_2 1_555 1_555
C47_2 C44_2 1_555 1_555
C48_2 C47_2 1_555 1_555
H30_2 C48_2 1_555 1_555
C49_2 C48_2 1_555 1_555
C50_2 C49_2 1_555 1_555
H31_2 C50_2 1_555 1_555
C51_2 C50_2 1_555 1_555
C52_2 C47_2 1_555 1_555
H32_2 C52_2 1_555 1_555
C53_2 C49_2 1_555 1_555
C54_2 C53_2 1_555 1_555
H33_2 C54_2 1_555 1_555
C55_2 C54_2 1_555 1_555
H34_2 C55_2 1_555 1_555
C56_2 C55_2 1_555 1_555
C57_2 C56_2 1_555 1_555
H35_2 C57_2 1_555 1_555
C58_2 C53_2 1_555 1_555
H36_2 C58_2 1_555 1_555
C60_2 C51_2 1_555 1_555
C61_2 C60_2 1_555 1_555
H37_2 C61_2 1_555 1_555
C62_2 C61_2 1_555 1_555
H38_2 C62_2 1_555 1_555
C63_2 C62_2 1_555 1_555
C64_2 C63_2 1_555 1_555
H39_2 C64_2 1_555 1_555
C65_2 C60_2 1_555 1_555
H40_2 C65_2 1_555 1_555
O15 Cd6 1_555 1_555
O16 Cd1 1_555 1_555
O17 Cd1 1_555 1_555
O18 Cd1 1_555 1_555
O10_2 C40_2 1_555 1_555
C4_2 C5_2 1_555 1_555
C11_2 C12_2 1_555 1_555
C18_2 C19_2 1_555 1_555
C45_2 C46_2 1_555 1_555
C51_2 C52_2 1_555 1_555
C57_2 C58_2 1_555 1_555
C64_2 C65_2 1_555 1_555
O2_2 H41_2 1_555 1_555
O2_2 H42_2 1_555 1_555
O4_2 H43_2 1_555 1_555
O4_2 H44_2 1_555 1_555
O17 C39_2 1_555 1_555
O18 C39_2 1_555 1_555
H17_2 C25_2 1_555 1_555
C33_2 C24_2 1_555 1_555
C34_2 C33_2 1_555 1_555
C35_2 C34_2 1_555 1_555
H23_2 C35_2 1_555 1_555
C36_2 C35_2 1_555 1_555
C37_2 C36_2 1_555 1_555
H24_2 C37_2 1_555 1_555
C38_2 C33_2 1_555 1_555
H25_2 C38_2 1_555 1_555
C39_2 C36_2 1_555 1_555
C24_2 C25_2 1_555 1_555
C37_2 C38_2 1_555 1_555
O15 C32_2 1_555 1_555
O16 C32_2 1_555 1_555
H15_2 C21_2 1_555 1_555
C22_2 C21_2 1_555 1_555
C26_2 C22_2 1_555 1_555
C27_2 C26_2 1_555 1_555
H18_2 C27_2 1_555 1_555
C28_2 C27_2 1_555 1_555
H19_2 C28_2 1_555 1_555
C29_2 C28_2 1_555 1_555
C30_2 C29_2 1_555 1_555
H20_2 C30_2 1_555 1_555
C31_2 C26_2 1_555 1_555
H21_2 C31_2 1_555 1_555
C32_2 C29_2 1_555 1_555
C30_2 C31_2 1_555 1_555
H16_2 C23_2 1_555 1_555

#END
