
###############################################################################
#
# This file contains modified crystal structure data generated from the
# MOF subset of the Cambridge Structural Database (CSD) v543 
# hosted by the Cambridge Crystallographic Data Centre (CCDC).
#
# This work is licensed under the Creative Commons
# Attribution-NonCommercial-ShareAlike 4.0 International License.
# To view a copy of this license, visit
# http://creativecommons.org/licenses/by-nc-sa/4.0/
# or send a letter to
# Creative Commons, PO Box 1866, Mountain View, CA 94042, USA.
#
# CIF created using the CSD Python API on 29 September 2022
# The structure has been converted into the P1 space group
# The structure has a 3D framework
# The original CSD entry FOHLAS is in the monoclinic crystal system
# The framework has been calculated to contain at least 10.0% void space
# The void calculation uses a probe of radius 1.32A, grid spacing 0.4
#
###############################################################################

data_FOHLAS
_chemical_formula_moiety         '(C184 H120 Co8 N16 O48)n'
_symmetry_cell_setting           triclinic
_symmetry_space_group_name_H-M   'P 1'
_symmetry_Int_Tables_number      1
_space_group_name_Hall           'P 1'
loop_
_symmetry_equiv_pos_site_id
_symmetry_equiv_pos_as_xyz
1 x,y,z
_cell_length_a                   15.2997(12)
_cell_length_b                   16.1519(13)
_cell_length_c                   25.122(2)
_cell_angle_alpha                90
_cell_angle_beta                 90.051(2)
_cell_angle_gamma                90
_cell_volume                     6208.13
loop_
_atom_site_label
_atom_site_type_symbol
_atom_site_fract_x
_atom_site_fract_y
_atom_site_fract_z
H27 H 0.002181 0.001114 0.051968
C46 C 0.0173(3) 0.0175(3) 0.17841(16)
N4 N 0.11064(19) 0.91141(17) 0.14621(11)
C43 C 0.0213(4) 0.9913(4) 0.08741(17)
C44 C 0.0834(4) 0.9312(3) 0.09772(16)
H28 H 0.107936 0.902341 0.068358
C45 C 0.0790(3) 0.9553(3) 0.18529(16)
H29 H 0.099202 0.944065 0.220328
Co5 Co 0.19817(3) 0.81574(2) 0.15614(2)
Co1 Co 0.31732(3) 0.69272(2) 0.15657(2)
O1 O 0.23788(17) 0.64490(16) 0.10011(10)
O2 O 0.13752(18) 0.74513(15) 0.09952(11)
O5 O 0.23936(19) 0.64521(17) 0.21423(11)
O6 O 0.14114(19) 0.74753(17) 0.21371(11)
O11 O 0.5778(2) 0.3853(2) 0.03470(11)
O12 O 0.9050(3) 0.0964(3) 0.03470(13)
N1 N 0.40459(19) 0.59840(17) 0.14587(11)
N2 N 0.5924(2) 0.4130(2) 0.12300(12)
H1 H 0.6226(19) 0.406(2) 0.1509(10)
N3 N 0.9237(2) 0.0981(2) 0.12373(12)
H2 H 0.908(3) 0.124(2) 0.1535(12)
C1 C 0.1688(3) 0.6776(2) 0.08319(14)
C2 C 0.1221(3) 0.6350(2) 0.03799(14)
C3 C 0.1594(3) 0.5655(2) 0.01494(15)
H3 H 0.211391 0.542759 0.029599
C7 C 0.0460(3) 0.6668(3) 0.01691(16)
H6 H 0.019835 0.714161 0.032701
C15 C 0.1737(3) 0.6827(2) 0.23233(14)
C16 C 0.1300(3) 0.6442(2) 0.27949(14)
C17 C 0.1644(3) 0.5748(2) 0.30348(14)
H11 H 0.218092 0.552465 0.291042
C18 C 0.1212(3) 0.5372(2) 0.34588(17)
H12 H 0.145349 0.489606 0.362561
C19 C 0.0438(3) 0.5696(3) 0.36319(15)
C20 C 0.0081(3) 0.6399(2) 0.34039(18)
C21 C 0.0518(3) 0.6769(2) 0.29862(16)
H14 H 0.028224 0.725332 0.282682
C23 C 0.0002(3) 0.6335(3) 0.46742(17)
H15 H 0.051772 0.656787 0.452701
C29 C 0.4303(3) 0.5774(3) 0.09630(15)
H19 H 0.405162 0.606163 0.067102
C30 C 0.4912(3) 0.5163(3) 0.08552(15)
H20 H 0.507083 0.503427 0.049927
C31 C 0.5288(3) 0.4741(2) 0.12845(14)
C32 C 0.5025(3) 0.4963(3) 0.17903(15)
H21 H 0.527179 0.469575 0.209210
C33 C 0.4410(3) 0.5567(2) 0.18560(14)
H22 H 0.423194 0.569666 0.220838
C34 C 0.6136(3) 0.3718(2) 0.07747(15)
C35 C 0.6845(2) 0.3072(2) 0.08162(14)
C36 C 0.7181(2) 0.2777(2) 0.03435(14)
H23 H 0.695999 0.297850 0.001445
C37 C 0.7829(2) 0.2198(2) 0.03469(15)
H24 H 0.806365 0.200560 0.001957
C38 C 0.8149(3) 0.1885(2) 0.08252(15)
C39 C 0.7791(3) 0.2163(2) 0.13040(14)
H25 H 0.799399 0.194794 0.163389
C40 C 0.7140(3) 0.2753(2) 0.12921(15)
H26 H 0.689203 0.294203 0.161661
C41 C 0.8851(3) 0.1242(3) 0.07779(16)
C42 C 0.9874(3) 0.0366(2) 0.12872(15)
H30 H 0.995911 0.046889 0.208449
O13 O 0.37418(18) 0.76145(17) 0.21433(11)
O14 O 0.27623(18) 0.86425(16) 0.21429(10)
O15 O 0.37625(18) 0.76154(16) 0.09885(11)
O16 O 0.27578(16) 0.86153(15) 0.09793(10)
O7 O 0.87625(18) 0.73846(16) 0.59885(11)
O8 O 0.77578(16) 0.63847(15) 0.59793(10)
O10 O 0.9985(2) 0.52417(18) 0.40116(11)
H13 H 0.954698 0.662241 0.353211
C22 C 0.9617(3) 0.5641(2) 0.44430(15)
C24 C 0.9621(3) 0.6678(3) 0.51209(15)
H16 H 0.987033 0.715736 0.527879
C25 C 0.8879(2) 0.6327(2) 0.53396(15)
C26 C 0.8511(3) 0.5636(2) 0.51045(15)
H17 H 0.800221 0.539463 0.525483
C27 C 0.8879(3) 0.5293(2) 0.46505(15)
H18 H 0.862164 0.482290 0.448644
C28 C 0.8440(3) 0.6732(2) 0.58069(14)
Co4 Co 0.81732(3) 0.80728(2) 0.65657(2)
Co7 Co 0.69817(3) 0.68426(2) 0.65614(2)
O3 O 0.87418(18) 0.73855(17) 0.71433(11)
O4 O 0.77623(18) 0.63575(16) 0.71429(10)
H5 H 0.954887 0.652194 0.958874
C8 C 0.9674(3) 0.5644(2) 0.86726(16)
C9 C 0.9967(3) 0.6393(2) 0.84875(18)
C10 C 0.9557(3) 0.6747(2) 0.80484(16)
H8 H 0.976028 0.726200 0.791426
C11 C 0.8854(3) 0.6356(2) 0.78031(14)
C12 C 0.8554(3) 0.5612(2) 0.80159(15)
H9 H 0.805867 0.534838 0.786286
C13 C 0.8967(3) 0.5254(2) 0.84458(18)
H10 H 0.876463 0.474194 0.858453
C14 C 0.8420(3) 0.6730(2) 0.73276(15)
O11_2 O 0.0778(2) 0.1147(2) 0.53470(11)
O12_2 O 0.4050(3) 0.4036(3) 0.53470(13)
N2_2 N 0.0924(2) 0.0870(2) 0.62300(12)
H1_2 H 0.1226(19) 0.094(2) 0.6509(10)
N3_2 N 0.4237(2) 0.4019(2) 0.62373(12)
H2_2 H 0.408(3) 0.376(2) 0.6535(12)
N4_2 N 0.61064(19) 0.58859(17) 0.64621(11)
C31_2 C 0.0288(3) 0.0259(2) 0.62845(14)
C32_2 C 0.0025(3) 0.0037(3) 0.67903(15)
H21_2 H 0.027179 0.030425 0.709210
C34_2 C 0.1136(3) 0.1282(2) 0.57747(15)
C35_2 C 0.1845(2) 0.1928(2) 0.58162(14)
C36_2 C 0.2181(2) 0.2223(2) 0.53435(14)
H23_2 H 0.195999 0.202150 0.501445
C37_2 C 0.2829(2) 0.2802(2) 0.53469(15)
H24_2 H 0.306365 0.299440 0.501957
C38_2 C 0.3149(3) 0.3115(2) 0.58252(15)
C39_2 C 0.2791(3) 0.2837(2) 0.63040(14)
H25_2 H 0.299399 0.305206 0.663389
C40_2 C 0.2140(3) 0.2247(2) 0.62921(15)
H26_2 H 0.189203 0.205797 0.661661
C41_2 C 0.3851(3) 0.3758(3) 0.57779(16)
C42_2 C 0.4874(3) 0.4634(2) 0.62872(15)
C43_2 C 0.5213(4) 0.5087(4) 0.58741(17)
H27_2 H 0.502181 0.498886 0.551968
C44_2 C 0.5834(4) 0.5688(3) 0.59772(16)
H28_2 H 0.607936 0.597659 0.568358
C45_2 C 0.5790(3) 0.5447(3) 0.68529(16)
H29_2 H 0.599202 0.555935 0.720328
C46_2 C 0.5173(3) 0.4825(3) 0.67841(16)
H30_2 H 0.495911 0.453111 0.708449
C24_2 C 0.4621(3) 0.8322(3) 0.01209(15)
H16_2 H 0.487033 0.784264 0.027879
C25_2 C 0.3879(2) 0.8673(2) 0.03396(15)
C26_2 C 0.3511(3) 0.9364(2) 0.01045(15)
H17_2 H 0.300221 0.960537 0.025483
C28_2 C 0.3440(3) 0.8268(2) 0.08069(14)
O1_2 O 0.73788(17) 0.85510(16) 0.60011(10)
O2_2 O 0.63752(18) 0.75487(15) 0.59952(11)
O5_2 O 0.73936(19) 0.85479(17) 0.71423(11)
O6_2 O 0.64114(19) 0.75247(17) 0.71371(11)
O9 O 0.5100(3) 0.97877(18) 0.40702(12)
O10_2 O 0.4985(2) 0.97583(18) 0.90116(11)
N1_2 N 0.90459(19) 0.90160(17) 0.64587(11)
C1_2 C 0.6688(3) 0.8224(2) 0.58319(14)
C2_2 C 0.6221(3) 0.8650(2) 0.53799(14)
C3_2 C 0.6594(3) 0.9345(2) 0.51494(15)
H3_2 H 0.711391 0.957241 0.529599
C4 C 0.6221(3) 0.9703(3) 0.47139(17)
C5 C 0.5464(3) 0.9371(3) 0.45021(16)
C6 C 0.5077(3) 0.8695(3) 0.47308(17)
H5_2 H 0.454887 0.847806 0.458874
C7_2 C 0.5460(3) 0.8332(3) 0.51691(16)
H6_2 H 0.519835 0.785839 0.532701
C8_2 C 0.4674(3) 0.9356(2) 0.36726(16)
C9_2 C 0.4967(3) 0.8607(2) 0.34875(18)
H7 H 0.544279 0.833389 0.365631
C10_2 C 0.4557(3) 0.8253(2) 0.30484(16)
H8_2 H 0.476028 0.773800 0.291426
C11_2 C 0.3854(3) 0.8644(2) 0.28031(14)
C12_2 C 0.3554(3) 0.9388(2) 0.30159(15)
H9_2 H 0.305867 0.965162 0.286286
C13_2 C 0.3967(3) 0.9746(2) 0.34458(18)
C14_2 C 0.3420(3) 0.8270(2) 0.23276(15)
C15_2 C 0.6737(3) 0.8173(2) 0.73233(14)
C16_2 C 0.6300(3) 0.8558(2) 0.77949(14)
C17_2 C 0.6644(3) 0.9252(2) 0.80348(14)
H11_2 H 0.718092 0.947535 0.791042
C18_2 C 0.6212(3) 0.9628(2) 0.84588(17)
C19_2 C 0.5438(3) 0.9304(3) 0.86319(15)
C20_2 C 0.5081(3) 0.8601(2) 0.84039(18)
H13_2 H 0.454698 0.837759 0.853211
C21_2 C 0.5518(3) 0.8231(2) 0.79862(16)
H14_2 H 0.528224 0.774668 0.782682
C22_2 C 0.4617(3) 0.9359(2) 0.94430(15)
C23_2 C 0.5002(3) 0.8665(3) 0.96742(17)
H15_2 H 0.551772 0.843213 0.952701
C27_2 C 0.3879(3) 0.9707(2) 0.96505(15)
C29_2 C 0.9303(3) 0.9226(3) 0.59630(15)
H19_2 H 0.905162 0.893837 0.567102
C30_2 C 0.9912(3) 0.9837(3) 0.58552(15)
C33_2 C 0.9410(3) 0.9433(2) 0.68560(14)
H22_2 H 0.923194 0.930334 0.720838
O9_2 O 0.0100(3) 0.52123(18) 0.90702(12)
C4_2 C 0.1221(3) 0.5297(3) 0.97139(17)
H4 H 0.147928 0.482102 0.955679
C5_2 C 0.0464(3) 0.5629(3) 0.95021(16)
C6_2 C 0.0077(3) 0.6305(3) 0.97308(17)
H7_2 H 0.044279 0.666611 0.865631
Co1_2 Co 0.18268(3) 0.19272(2) 0.34343(2)
Co2 Co 0.30183(3) 0.31574(2) 0.34386(2)
O1_3 O 0.26212(17) 0.14490(16) 0.39989(10)
O2_3 O 0.36248(18) 0.24513(15) 0.40048(11)
O3_2 O 0.62582(18) 0.23855(17) 0.78567(11)
O4_2 O 0.72377(18) 0.13575(16) 0.78571(10)
O5_3 O 0.26064(19) 0.14521(17) 0.28577(11)
O6_3 O 0.35886(19) 0.24753(17) 0.28629(11)
O9_3 O 0.4900(3) 0.02123(18) 0.59298(12)
O10_3 O 0.5015(2) 0.02417(18) 0.09884(11)
N1_3 N 0.09541(19) 0.09840(17) 0.35413(11)
C1_3 C 0.3312(3) 0.1776(2) 0.41681(14)
C2_3 C 0.3779(3) 0.1350(2) 0.46201(14)
C3_3 C 0.3406(3) 0.0655(2) 0.48506(15)
H3_3 H 0.288609 0.042759 0.470401
C4_3 C 0.3779(3) 0.0297(3) 0.52861(17)
C5_3 C 0.4536(3) 0.0629(3) 0.54979(16)
C6_3 C 0.4923(3) 0.1305(3) 0.52692(17)
H5_3 H 0.545113 0.152194 0.541126
C7_3 C 0.4540(3) 0.1668(3) 0.48309(16)
H6_3 H 0.480165 0.214161 0.467299
C8_3 C 0.5326(3) 0.0644(2) 0.63274(16)
C9_3 C 0.5033(3) 0.1393(2) 0.65125(18)
H7_3 H 0.455721 0.166611 0.634369
C10_3 C 0.5443(3) 0.1747(2) 0.69516(16)
H8_3 H 0.523972 0.226200 0.708574
C11_3 C 0.6146(3) 0.1356(2) 0.71969(14)
C12_3 C 0.6446(3) 0.0612(2) 0.69841(15)
H9_3 H 0.694133 0.034838 0.713714
C13_3 C 0.6033(3) 0.0254(2) 0.65542(18)
C14_3 C 0.6580(3) 0.1730(2) 0.76724(15)
C15_3 C 0.3263(3) 0.1827(2) 0.26767(14)
C16_3 C 0.3700(3) 0.1442(2) 0.22051(14)
C17_3 C 0.3356(3) 0.0748(2) 0.19652(14)
H11_3 H 0.281908 0.052465 0.208958
C18_3 C 0.3788(3) 0.0372(2) 0.15412(17)
C19_3 C 0.4562(3) 0.0696(3) 0.13681(15)
C20_3 C 0.4919(3) 0.1399(2) 0.15961(18)
H13_3 H 0.545302 0.162241 0.146789
C21_3 C 0.4482(3) 0.1769(2) 0.20138(16)
H14_3 H 0.471776 0.225332 0.217318
C22_3 C 0.5383(3) 0.0641(2) 0.05570(15)
C23_3 C 0.4998(3) 0.1335(3) 0.03258(17)
H15_3 H 0.448228 0.156787 0.047299
C27_3 C 0.6121(3) 0.0293(2) 0.03495(15)
C29_3 C 0.0697(3) 0.0774(3) 0.40370(15)
H19_3 H 0.094838 0.106163 0.432898
C30_3 C 0.0088(3) 0.0163(3) 0.41448(15)
C33_3 C 0.0590(3) 0.0567(2) 0.31440(14)
H22_3 H 0.076806 0.069666 0.279162
Co3 Co 0.68268(3) 0.30728(2) 0.84343(2)
Co6 Co 0.80183(3) 0.18426(2) 0.84386(2)
O13_2 O 0.12582(18) 0.26145(17) 0.28567(11)
O14_2 O 0.22377(18) 0.36425(16) 0.28571(10)
O15_2 O 0.12375(18) 0.26154(16) 0.40115(11)
O16_2 O 0.22422(16) 0.36153(15) 0.40207(10)
N5 N 0.38936(19) 0.41141(17) 0.35379(11)
O7_2 O 0.62375(18) 0.23846(16) 0.90115(11)
O8_2 O 0.72422(16) 0.13847(15) 0.90207(10)
C24_3 C 0.5379(3) 0.1678(3) 0.98791(15)
H16_3 H 0.512967 0.215736 0.972121
C25_3 C 0.6121(2) 0.1327(2) 0.96604(15)
C26_3 C 0.6489(3) 0.0636(2) 0.98955(15)
H17_3 H 0.699779 0.039463 0.974517
C28_3 C 0.6560(3) 0.1732(2) 0.91931(14)
O11_3 O 0.9222(2) 0.8853(2) 0.46530(11)
O12_3 O 0.5950(3) 0.5964(3) 0.46530(13)
N2_3 N 0.9076(2) 0.9130(2) 0.37700(12)
H1_3 H 0.8774(19) 0.906(2) 0.3491(10)
N3_3 N 0.5763(2) 0.5981(2) 0.37627(12)
H2_3 H 0.592(3) 0.624(2) 0.3465(12)
C31_3 C 0.9712(3) 0.9741(2) 0.37155(14)
C32_3 C 0.9975(3) 0.9963(3) 0.32097(15)
H21_3 H 0.972821 0.969575 0.290790
C34_3 C 0.8864(3) 0.8718(2) 0.42253(15)
C35_3 C 0.8155(2) 0.8072(2) 0.41838(14)
C36_3 C 0.7819(2) 0.7777(2) 0.46565(14)
H23_3 H 0.804001 0.797850 0.498555
C37_3 C 0.7171(2) 0.7198(2) 0.46531(15)
H24_3 H 0.693635 0.700560 0.498043
C38_3 C 0.6851(3) 0.6885(2) 0.41748(15)
C39_3 C 0.7209(3) 0.7163(2) 0.36960(14)
H25_3 H 0.700601 0.694794 0.336611
C40_3 C 0.7860(3) 0.7753(2) 0.37079(15)
H26_3 H 0.810797 0.794203 0.338339
C41_3 C 0.6149(3) 0.6242(3) 0.42221(16)
C42_3 C 0.5126(3) 0.5366(2) 0.37128(15)
C43_3 C 0.4787(4) 0.4913(4) 0.41259(17)
H27_3 H 0.497819 0.501114 0.448032
C44_3 C 0.4166(4) 0.4312(3) 0.40228(16)
H28_3 H 0.392064 0.402341 0.431642
C45_3 C 0.4210(3) 0.4553(3) 0.31471(16)
H29_3 H 0.400798 0.444065 0.279672
C46_3 C 0.4827(3) 0.5175(3) 0.32159(16)
H30_3 H 0.504089 0.546889 0.291551
H5_4 H 0.045113 0.347806 0.041126
C8_4 C 0.0326(3) 0.4356(2) 0.13274(16)
C9_4 C 0.0033(3) 0.3607(2) 0.15125(18)
C10_4 C 0.0443(3) 0.3253(2) 0.19516(16)
H8_4 H 0.023972 0.273800 0.208574
C11_4 C 0.1146(3) 0.3644(2) 0.21969(14)
C12_4 C 0.1446(3) 0.4388(2) 0.19841(15)
H9_4 H 0.194133 0.465162 0.213714
C13_4 C 0.1033(3) 0.4746(2) 0.15542(18)
H10_2 H 0.123537 0.525806 0.141547
C14_4 C 0.1580(3) 0.3270(2) 0.26724(15)
O10_4 O 0.0015(2) 0.47583(18) 0.59884(11)
H13_4 H 0.045302 0.337759 0.646789
C22_4 C 0.0383(3) 0.4359(2) 0.55570(15)
C24_4 C 0.0379(3) 0.3322(3) 0.48791(15)
H16_4 H 0.012967 0.284264 0.472121
C25_4 C 0.1121(2) 0.3673(2) 0.46604(15)
C26_4 C 0.1489(3) 0.4364(2) 0.48955(15)
H17_4 H 0.199779 0.460537 0.474517
C27_4 C 0.1121(3) 0.4707(2) 0.53495(15)
H18_2 H 0.137836 0.517710 0.551356
C28_4 C 0.1560(3) 0.3268(2) 0.41931(14)
O1_4 O 0.76212(17) 0.35510(16) 0.89989(10)
O2_4 O 0.86248(18) 0.25487(15) 0.90048(11)
O5_4 O 0.76064(19) 0.35479(17) 0.78577(11)
O6_4 O 0.85886(19) 0.25247(17) 0.78629(11)
O11_4 O 0.4222(2) 0.6147(2) 0.96530(11)
O12_4 O 0.0950(3) 0.9036(3) 0.96530(13)
N1_4 N 0.59541(19) 0.40160(17) 0.85413(11)
N2_4 N 0.4076(2) 0.5870(2) 0.87700(12)
H1_4 H 0.3774(19) 0.594(2) 0.8491(10)
N3_4 N 0.0763(2) 0.9019(2) 0.87627(12)
H2_4 H 0.092(3) 0.876(2) 0.8465(12)
C1_4 C 0.8312(3) 0.3224(2) 0.91681(14)
C2_4 C 0.8779(3) 0.3650(2) 0.96201(14)
C3_4 C 0.8406(3) 0.4345(2) 0.98506(15)
H3_4 H 0.788609 0.457241 0.970401
C7_4 C 0.9540(3) 0.3332(3) 0.98309(16)
H6_4 H 0.980165 0.285839 0.967299
C15_4 C 0.8263(3) 0.3173(2) 0.76767(14)
C16_4 C 0.8700(3) 0.3558(2) 0.72051(14)
C17_4 C 0.8356(3) 0.4252(2) 0.69652(14)
H11_4 H 0.781908 0.447535 0.708958
C18_4 C 0.8788(3) 0.4628(2) 0.65412(17)
H12_2 H 0.854651 0.510394 0.637439
C19_4 C 0.9562(3) 0.4304(3) 0.63681(15)
C20_4 C 0.9919(3) 0.3601(2) 0.65961(18)
C21_4 C 0.9482(3) 0.3231(2) 0.70138(16)
H14_4 H 0.971776 0.274668 0.717318
C23_4 C 0.9998(3) 0.3665(3) 0.53258(17)
H15_4 H 0.948228 0.343213 0.547299
C29_4 C 0.5697(3) 0.4226(3) 0.90370(15)
H19_4 H 0.594838 0.393837 0.932898
C30_4 C 0.5088(3) 0.4837(3) 0.91448(15)
H20_2 H 0.492917 0.496573 0.950073
C31_4 C 0.4712(3) 0.5259(2) 0.87155(14)
C32_4 C 0.4975(3) 0.5037(3) 0.82097(15)
H21_4 H 0.472821 0.530425 0.790790
C33_4 C 0.5590(3) 0.4433(2) 0.81440(14)
H22_4 H 0.576806 0.430334 0.779162
C34_4 C 0.3864(3) 0.6282(2) 0.92253(15)
C35_4 C 0.3155(2) 0.6928(2) 0.91838(14)
C36_4 C 0.2819(2) 0.7223(2) 0.96565(14)
H23_4 H 0.304001 0.702150 0.998555
C37_4 C 0.2171(2) 0.7802(2) 0.96531(15)
H24_4 H 0.193635 0.799440 0.998043
C38_4 C 0.1851(3) 0.8115(2) 0.91748(15)
C39_4 C 0.2209(3) 0.7837(2) 0.86960(14)
H25_4 H 0.200601 0.805206 0.836611
C40_4 C 0.2860(3) 0.7247(2) 0.87079(15)
H26_4 H 0.310797 0.705797 0.838339
C41_4 C 0.1149(3) 0.8758(3) 0.92221(16)
C42_4 C 0.0126(3) 0.9634(2) 0.87128(15)
H30_4 H 0.004089 0.953111 0.791551
N5_2 N 0.88936(19) 0.08859(17) 0.85379(11)
C43_4 C 0.9787(4) 0.0087(4) 0.91259(17)
C44_4 C 0.9166(4) 0.0688(3) 0.90228(16)
H28_4 H 0.892064 0.097659 0.931642
C45_4 C 0.9210(3) 0.0447(3) 0.81471(16)
H29_4 H 0.900798 0.055935 0.779672
H4_2 H 0.352072 0.982102 0.544321
H10_3 H 0.623537 0.974194 0.641547
H12_3 H 0.354651 0.989606 0.137439
H18_3 H 0.637836 0.982290 0.051356
H20_3 H 0.992917 0.003427 0.450073
O9_4 O 0.9900(3) 0.47877(18) 0.09298(12)
C4_4 C 0.8779(3) 0.4703(3) 0.02861(17)
H4_3 H 0.852072 0.517898 0.044321
C5_4 C 0.9536(3) 0.4371(3) 0.04979(16)
C6_4 C 0.9923(3) 0.3695(3) 0.02692(17)
H7_4 H 0.955721 0.333389 0.134369
H27_4 H 0.997819 0.998886 0.948032
C46_4 C 0.9827(3) 0.9825(3) 0.82159(16)
H20_4 H 0.007083 0.996573 0.549927
H4_4 H 0.647928 0.017898 0.455679
H10_4 H 0.376463 0.025806 0.358453
H12_4 H 0.645349 0.010394 0.862561
H18_4 H 0.362164 0.017710 0.948644
loop_
_geom_bond_atom_site_label_1
_geom_bond_atom_site_label_2
_geom_bond_site_symmetry_1
_geom_bond_site_symmetry_2
N4 C44 1_555 1_555
C44 C43 1_555 1_555
H28 C44 1_555 1_555
C45 N4 1_555 1_555
H29 C45 1_555 1_555
Co5 N4 1_555 1_555
Co1 Co5 1_555 1_555
Co5 O2 1_555 1_555
O1 Co1 1_555 1_555
O2 C1 1_555 1_555
O5 Co1 1_555 1_555
O6 Co5 1_555 1_555
O11 C34 1_555 1_555
O12 C41 1_555 1_555
N1 Co1 1_555 1_555
N2 H1 1_555 1_555
N3 H2 1_555 1_555
C1 O1 1_555 1_555
C2 C1 1_555 1_555
C3 C2 1_555 1_555
H3 C3 1_555 1_555
C7 C2 1_555 1_555
H6 C7 1_555 1_555
C15 O5 1_555 1_555
C16 C15 1_555 1_555
C17 C16 1_555 1_555
H11 C17 1_555 1_555
C18 C17 1_555 1_555
H12 C18 1_555 1_555
C19 C18 1_555 1_555
C20 C19 1_555 1_555
C21 C16 1_555 1_555
H14 C21 1_555 1_555
H15 C23 1_555 1_555
C29 N1 1_555 1_555
H19 C29 1_555 1_555
C30 C29 1_555 1_555
H20 C30 1_555 1_555
C31 N2 1_555 1_555
C32 C31 1_555 1_555
H21 C32 1_555 1_555
C33 N1 1_555 1_555
H22 C33 1_555 1_555
C34 N2 1_555 1_555
C35 C34 1_555 1_555
C36 C35 1_555 1_555
H23 C36 1_555 1_555
C37 C36 1_555 1_555
H24 C37 1_555 1_555
C38 C37 1_555 1_555
C39 C38 1_555 1_555
H25 C39 1_555 1_555
C40 C35 1_555 1_555
H26 C40 1_555 1_555
C41 N3 1_555 1_555
C42 N3 1_555 1_555
O13 Co1 1_555 1_555
O14 Co5 1_555 1_555
O15 Co1 1_555 1_555
O16 Co5 1_555 1_555
O6 C15 1_555 1_555
C20 C21 1_555 1_555
C30 C31 1_555 1_555
C32 C33 1_555 1_555
C38 C41 1_555 1_555
C39 C40 1_555 1_555
O7 C28 1_555 1_555
O8 C28 1_555 1_555
C22 O10 1_555 1_555
H16 C24 1_555 1_555
C25 C24 1_555 1_555
C26 C25 1_555 1_555
H17 C26 1_555 1_555
C27 C22 1_555 1_555
H18 C27 1_555 1_555
C28 C25 1_555 1_555
Co4 O7 1_555 1_555
Co7 O8 1_555 1_555
C26 C27 1_555 1_555
Co4 Co7 1_555 1_555
O3 C14 1_555 1_555
O4 C14 1_555 1_555
C9 C8 1_555 1_555
C10 C9 1_555 1_555
H8 C10 1_555 1_555
C11 C10 1_555 1_555
C12 C11 1_555 1_555
H9 C12 1_555 1_555
C13 C8 1_555 1_555
H10 C13 1_555 1_555
C14 C11 1_555 1_555
Co4 O3 1_555 1_555
Co7 O4 1_555 1_555
C12 C13 1_555 1_555
O11_2 C34_2 1_555 1_555
O12_2 C41_2 1_555 1_555
N2_2 H1_2 1_555 1_555
N3_2 H2_2 1_555 1_555
N4_2 C44_2 1_555 1_555
C31_2 N2_2 1_555 1_555
C32_2 C31_2 1_555 1_555
H21_2 C32_2 1_555 1_555
C34_2 N2_2 1_555 1_555
C35_2 C34_2 1_555 1_555
C36_2 C35_2 1_555 1_555
H23_2 C36_2 1_555 1_555
C37_2 C36_2 1_555 1_555
H24_2 C37_2 1_555 1_555
C38_2 C37_2 1_555 1_555
C39_2 C38_2 1_555 1_555
H25_2 C39_2 1_555 1_555
C40_2 C35_2 1_555 1_555
H26_2 C40_2 1_555 1_555
C41_2 N3_2 1_555 1_555
C42_2 N3_2 1_555 1_555
C43_2 C42_2 1_555 1_555
H27_2 C43_2 1_555 1_555
C44_2 C43_2 1_555 1_555
H28_2 C44_2 1_555 1_555
C45_2 N4_2 1_555 1_555
H29_2 C45_2 1_555 1_555
C46_2 C42_2 1_555 1_555
H30_2 C46_2 1_555 1_555
Co7 N4_2 1_555 1_555
C38_2 C41_2 1_555 1_555
C39_2 C40_2 1_555 1_555
C45_2 C46_2 1_555 1_555
O15 C28_2 1_555 1_555
O16 C28_2 1_555 1_555
H16_2 C24_2 1_555 1_555
C25_2 C24_2 1_555 1_555
C26_2 C25_2 1_555 1_555
H17_2 C26_2 1_555 1_555
C28_2 C25_2 1_555 1_555
Co7 O2_2 1_555 1_555
O1_2 Co4 1_555 1_555
O2_2 C1_2 1_555 1_555
O13 C14_2 1_555 1_555
O14 C14_2 1_555 1_555
O5_2 Co4 1_555 1_555
O6_2 Co7 1_555 1_555
O9 C5 1_555 1_555
O10_2 C19_2 1_555 1_555
N1_2 Co4 1_555 1_555
C1_2 O1_2 1_555 1_555
C2_2 C1_2 1_555 1_555
C3_2 C2_2 1_555 1_555
H3_2 C3_2 1_555 1_555
C4 C3_2 1_555 1_555
C5 C4 1_555 1_555
C6 C5 1_555 1_555
H5_2 C6 1_555 1_555
C7_2 C2_2 1_555 1_555
H6_2 C7_2 1_555 1_555
C8_2 O9 1_555 1_555
C9_2 C8_2 1_555 1_555
H7 C9_2 1_555 1_555
C10_2 C9_2 1_555 1_555
H8_2 C10_2 1_555 1_555
C11_2 C10_2 1_555 1_555
C12_2 C11_2 1_555 1_555
H9_2 C12_2 1_555 1_555
C13_2 C8_2 1_555 1_555
C14_2 C11_2 1_555 1_555
C15_2 O5_2 1_555 1_555
C16_2 C15_2 1_555 1_555
C17_2 C16_2 1_555 1_555
H11_2 C17_2 1_555 1_555
C18_2 C17_2 1_555 1_555
C19_2 C18_2 1_555 1_555
C20_2 C19_2 1_555 1_555
H13_2 C20_2 1_555 1_555
C21_2 C16_2 1_555 1_555
H14_2 C21_2 1_555 1_555
C22_2 O10_2 1_555 1_555
C23_2 C22_2 1_555 1_555
H15_2 C23_2 1_555 1_555
C27_2 C22_2 1_555 1_555
C29_2 N1_2 1_555 1_555
H19_2 C29_2 1_555 1_555
C30_2 C29_2 1_555 1_555
C33_2 N1_2 1_555 1_555
H22_2 C33_2 1_555 1_555
O6_2 C15_2 1_555 1_555
C6 C7_2 1_555 1_555
C12_2 C13_2 1_555 1_555
C20_2 C21_2 1_555 1_555
O9_2 C5_2 1_555 1_555
H4 C4_2 1_555 1_555
C5_2 C4_2 1_555 1_555
C6_2 C5_2 1_555 1_555
Co1_2 Co2 1_555 1_555
Co2 O2_3 1_555 1_555
O1_3 Co1_2 1_555 1_555
O2_3 C1_3 1_555 1_555
O3_2 C14_3 1_555 1_555
O4_2 C14_3 1_555 1_555
O5_3 Co1_2 1_555 1_555
O6_3 Co2 1_555 1_555
O9_3 C5_3 1_555 1_555
O10_3 C19_3 1_555 1_555
N1_3 Co1_2 1_555 1_555
C1_3 O1_3 1_555 1_555
C2_3 C1_3 1_555 1_555
C3_3 C2_3 1_555 1_555
H3_3 C3_3 1_555 1_555
C4_3 C3_3 1_555 1_555
C5_3 C4_3 1_555 1_555
C6_3 C5_3 1_555 1_555
H5_3 C6_3 1_555 1_555
C7_3 C2_3 1_555 1_555
H6_3 C7_3 1_555 1_555
C8_3 O9_3 1_555 1_555
C9_3 C8_3 1_555 1_555
H7_3 C9_3 1_555 1_555
C10_3 C9_3 1_555 1_555
H8_3 C10_3 1_555 1_555
C11_3 C10_3 1_555 1_555
C12_3 C11_3 1_555 1_555
H9_3 C12_3 1_555 1_555
C13_3 C8_3 1_555 1_555
C14_3 C11_3 1_555 1_555
C15_3 O5_3 1_555 1_555
C16_3 C15_3 1_555 1_555
C17_3 C16_3 1_555 1_555
H11_3 C17_3 1_555 1_555
C18_3 C17_3 1_555 1_555
C19_3 C18_3 1_555 1_555
C20_3 C19_3 1_555 1_555
H13_3 C20_3 1_555 1_555
C21_3 C16_3 1_555 1_555
H14_3 C21_3 1_555 1_555
C22_3 O10_3 1_555 1_555
C23_3 C22_3 1_555 1_555
H15_3 C23_3 1_555 1_555
C27_3 C22_3 1_555 1_555
C29_3 N1_3 1_555 1_555
H19_3 C29_3 1_555 1_555
C30_3 C29_3 1_555 1_555
C33_3 N1_3 1_555 1_555
H22_3 C33_3 1_555 1_555
Co3 O3_2 1_555 1_555
Co6 O4_2 1_555 1_555
O13_2 Co1_2 1_555 1_555
O14_2 Co2 1_555 1_555
O15_2 Co1_2 1_555 1_555
O16_2 Co2 1_555 1_555
N5 Co2 1_555 1_555
O6_3 C15_3 1_555 1_555
C6_3 C7_3 1_555 1_555
C12_3 C13_3 1_555 1_555
C20_3 C21_3 1_555 1_555
Co3 Co6 1_555 1_555
O7_2 C28_3 1_555 1_555
O8_2 C28_3 1_555 1_555
H16_3 C24_3 1_555 1_555
C25_3 C24_3 1_555 1_555
C26_3 C25_3 1_555 1_555
H17_3 C26_3 1_555 1_555
C28_3 C25_3 1_555 1_555
Co3 O7_2 1_555 1_555
Co6 O8_2 1_555 1_555
O11_3 C34_3 1_555 1_555
O12_3 C41_3 1_555 1_555
N2_3 H1_3 1_555 1_555
N3_3 H2_3 1_555 1_555
N5 C44_3 1_555 1_555
C31_3 N2_3 1_555 1_555
C32_3 C31_3 1_555 1_555
H21_3 C32_3 1_555 1_555
C34_3 N2_3 1_555 1_555
C35_3 C34_3 1_555 1_555
C36_3 C35_3 1_555 1_555
H23_3 C36_3 1_555 1_555
C37_3 C36_3 1_555 1_555
H24_3 C37_3 1_555 1_555
C38_3 C37_3 1_555 1_555
C39_3 C38_3 1_555 1_555
H25_3 C39_3 1_555 1_555
C40_3 C35_3 1_555 1_555
H26_3 C40_3 1_555 1_555
C41_3 N3_3 1_555 1_555
C42_3 N3_3 1_555 1_555
C43_3 C42_3 1_555 1_555
H27_3 C43_3 1_555 1_555
C44_3 C43_3 1_555 1_555
H28_3 C44_3 1_555 1_555
C45_3 N5 1_555 1_555
H29_3 C45_3 1_555 1_555
C46_3 C42_3 1_555 1_555
H30_3 C46_3 1_555 1_555
C38_3 C41_3 1_555 1_555
C39_3 C40_3 1_555 1_555
C45_3 C46_3 1_555 1_555
O13_2 C14_4 1_555 1_555
O14_2 C14_4 1_555 1_555
C9_4 C8_4 1_555 1_555
C10_4 C9_4 1_555 1_555
H8_4 C10_4 1_555 1_555
C11_4 C10_4 1_555 1_555
C12_4 C11_4 1_555 1_555
H9_4 C12_4 1_555 1_555
C13_4 C8_4 1_555 1_555
H10_2 C13_4 1_555 1_555
C14_4 C11_4 1_555 1_555
C12_4 C13_4 1_555 1_555
O15_2 C28_4 1_555 1_555
O16_2 C28_4 1_555 1_555
C22_4 O10_4 1_555 1_555
H16_4 C24_4 1_555 1_555
C25_4 C24_4 1_555 1_555
C26_4 C25_4 1_555 1_555
H17_4 C26_4 1_555 1_555
C27_4 C22_4 1_555 1_555
H18_2 C27_4 1_555 1_555
C28_4 C25_4 1_555 1_555
C26_4 C27_4 1_555 1_555
Co6 O2_4 1_555 1_555
O1_4 Co3 1_555 1_555
O2_4 C1_4 1_555 1_555
O5_4 Co3 1_555 1_555
O6_4 Co6 1_555 1_555
O11_4 C34_4 1_555 1_555
O12_4 C41_4 1_555 1_555
N1_4 Co3 1_555 1_555
N2_4 H1_4 1_555 1_555
N3_4 H2_4 1_555 1_555
C1_4 O1_4 1_555 1_555
C2_4 C1_4 1_555 1_555
C3_4 C2_4 1_555 1_555
H3_4 C3_4 1_555 1_555
C7_4 C2_4 1_555 1_555
H6_4 C7_4 1_555 1_555
C15_4 O5_4 1_555 1_555
C16_4 C15_4 1_555 1_555
C17_4 C16_4 1_555 1_555
H11_4 C17_4 1_555 1_555
C18_4 C17_4 1_555 1_555
H12_2 C18_4 1_555 1_555
C19_4 C18_4 1_555 1_555
C20_4 C19_4 1_555 1_555
C21_4 C16_4 1_555 1_555
H14_4 C21_4 1_555 1_555
H15_4 C23_4 1_555 1_555
C29_4 N1_4 1_555 1_555
H19_4 C29_4 1_555 1_555
C30_4 C29_4 1_555 1_555
H20_2 C30_4 1_555 1_555
C31_4 N2_4 1_555 1_555
C32_4 C31_4 1_555 1_555
H21_4 C32_4 1_555 1_555
C33_4 N1_4 1_555 1_555
H22_4 C33_4 1_555 1_555
C34_4 N2_4 1_555 1_555
C35_4 C34_4 1_555 1_555
C36_4 C35_4 1_555 1_555
H23_4 C36_4 1_555 1_555
C37_4 C36_4 1_555 1_555
H24_4 C37_4 1_555 1_555
C38_4 C37_4 1_555 1_555
C39_4 C38_4 1_555 1_555
H25_4 C39_4 1_555 1_555
C40_4 C35_4 1_555 1_555
H26_4 C40_4 1_555 1_555
C41_4 N3_4 1_555 1_555
C42_4 N3_4 1_555 1_555
N5_2 Co6 1_555 1_555
O6_4 C15_4 1_555 1_555
C20_4 C21_4 1_555 1_555
C30_4 C31_4 1_555 1_555
C32_4 C33_4 1_555 1_555
C38_4 C41_4 1_555 1_555
C39_4 C40_4 1_555 1_555
N5_2 C44_4 1_555 1_555
C44_4 C43_4 1_555 1_555
H28_4 C44_4 1_555 1_555
C45_4 N5_2 1_555 1_555
H29_4 C45_4 1_555 1_555
O9_4 C5_4 1_555 1_555
H4_3 C4_4 1_555 1_555
C5_4 C4_4 1_555 1_555
C6_4 C5_4 1_555 1_555

#END
