
###############################################################################
#
# This file contains modified crystal structure data generated from the
# MOF subset of the Cambridge Structural Database (CSD) v543 
# hosted by the Cambridge Crystallographic Data Centre (CCDC).
#
# This work is licensed under the Creative Commons
# Attribution-NonCommercial-ShareAlike 4.0 International License.
# To view a copy of this license, visit
# http://creativecommons.org/licenses/by-nc-sa/4.0/
# or send a letter to
# Creative Commons, PO Box 1866, Mountain View, CA 94042, USA.
#
# CIF created using the CSD Python API on 29 September 2022
# The structure has been converted into the P1 space group
# The structure has a 3D framework
# The original CSD entry FOJKOG is in the monoclinic crystal system
# The framework has been calculated to contain at least 10.0% void space
# The void calculation uses a probe of radius 1.32A, grid spacing 0.4
# The framework is charged, counterions have been retained in the structure
#
###############################################################################

data_FOJKOG
_chemical_formula_moiety         '(C116 H68 Mg11 N4 O36 4-)n'
_symmetry_cell_setting           triclinic
_symmetry_space_group_name_H-M   'P 1'
_symmetry_Int_Tables_number      1
_space_group_name_Hall           'P 1'
loop_
_symmetry_equiv_pos_site_id
_symmetry_equiv_pos_as_xyz
1 x,y,z
_cell_length_a                   15.4072(6)
_cell_length_b                   14.0406(4)
_cell_length_c                   17.6117(7)
_cell_angle_alpha                90
_cell_angle_beta                 115.464(5)
_cell_angle_gamma                90
_cell_volume                     3439.77
loop_
_atom_site_label
_atom_site_type_symbol
_atom_site_fract_x
_atom_site_fract_y
_atom_site_fract_z
Mg5 Mg 0.0000 0.0000 0.0000
C55 C 0.0412(3) 0.5784(4) 0.6083(3)
H31 H 0.0749 0.6346 0.6127
C56 C 0.0888(3) 0.4977(4) 0.6416(3)
H32 H 0.1557 0.4966 0.6683
C57 C 0.0375(3) 0.4187(4) 0.6354(4)
H33 H 0.0687 0.3621 0.6594
Mg5_2 Mg 0.0000 0.0000 1.0000
Mg5_3 Mg 0.0000 1.0000 0.0000
Mg5_4 Mg 0.0000 1.0000 1.0000
Mg5_5 Mg 1.0000 0.0000 0.0000
Mg9 Mg 0.76817(5) 0.00074(5) 0.00553(5)
Mg1 Mg 0.5000 0.5000 0.5000
Mg2 Mg 0.26817(5) 0.49926(5) 0.50553(5)
O1 O 0.40757(12) 0.59482(13) 0.41680(11)
O2 O 0.26741(13) 0.59942(14) 0.42304(13)
O3 O 0.22409(13) 0.89486(13) 0.07185(13)
O4 O 0.07876(13) 0.88820(13) 0.06897(12)
O5 O 0.26973(14) 0.60193(14) 0.58704(13)
O6 O 0.41648(15) 0.60204(17) 0.69218(14)
O7 O 0.10363(18) 0.82320(17) 0.85768(18)
O8 O 0.24260(14) 0.89828(15) 0.91434(14)
O9 O 0.42410(11) 0.49212(10) 0.57627(10)
N1 N 0.11013(17) 0.50016(16) 0.44003(15)
C1 C 0.32172(17) 0.61666(15) 0.38874(15)
C2 C 0.16454(17) 0.86208(17) 0.09493(15)
C3 C 0.27745(17) 0.67118(16) 0.30693(15)
C4 C 0.2127(2) 0.74143(19) 0.29987(17)
H1 H 0.1944 0.7506 0.3432
C5 C 0.1737(2) 0.79957(18) 0.22842(18)
H2 H 0.1297 0.8467 0.2251
C6 C 0.19905(17) 0.78829(16) 0.16361(16)
C7 C 0.26126(17) 0.71185(16) 0.16532(15)
C8 C 0.30080(16) 0.65205(16) 0.23790(15)
C9 C 0.35910(19) 0.57393(18) 0.23732(18)
H3 H 0.3843 0.5335 0.2836
C10 C 0.3787(2) 0.5572(2) 0.1704(2)
H4 H 0.4172 0.5058 0.1713
C11 C 0.3410(3) 0.6176(3) 0.0996(2)
H5 H 0.3553 0.6062 0.0543
C12 C 0.2841(2) 0.6920(2) 0.09721(18)
H6 H 0.2595 0.7308 0.0498
C13 C 0.3306(2) 0.62634(18) 0.65941(17)
C14 C 0.1866(2) 0.84011(19) 0.86505(18)
C15 C 0.2939(2) 0.68840(18) 0.70944(17)
C16 C 0.3248(3) 0.6682(2) 0.7926(2)
H7 H 0.3704 0.6205 0.8167
C17 C 0.2897(3) 0.7176(2) 0.8430(2)
H8 H 0.3125 0.7025 0.8998
C18 C 0.2225(2) 0.78729(19) 0.80938(18)
C19 C 0.1900(2) 0.81306(18) 0.72387(18)
C20 C 0.2260(2) 0.76285(19) 0.67250(17)
C21 C 0.1932(3) 0.7917(2) 0.5875(2)
H9 H 0.2157 0.7602 0.5530
C22 C 0.1300(3) 0.8640(3) 0.5557(3)
H10 H 0.1098 0.8820 0.4998
C23 C 0.0944(3) 0.9127(3) 0.6066(3)
H11 H 0.0501 0.9618 0.5841
C24 C 0.1250(3) 0.8874(3) 0.6888(2)
H12 H 0.1020 0.9205 0.7222
C25 C 0.0586(3) 0.4218(3) 0.4328(2)
H13 H 0.0904 0.3653 0.4561
C29 C 0.0613(2) 0.5791(3) 0.4063(3)
H17 H 0.0953 0.6353 0.4111
Mg3 Mg 0.73183(5) 0.50074(5) 0.49447(5)
O10 O 0.59243(12) 0.40518(13) 0.58320(11)
O11 O 0.73259(13) 0.40058(14) 0.57696(13)
O12 O 0.77591(13) 0.10514(13) 0.92815(13)
O13 O 0.92124(13) 0.11180(13) 0.93103(12)
O14 O 0.73027(14) 0.39807(14) 0.41296(13)
O15 O 0.58352(15) 0.39796(17) 0.30782(14)
O16 O 0.89637(18) 0.17680(17) 0.14232(18)
O17 O 0.75740(14) 0.10172(15) 0.08566(14)
O18 O 0.57590(11) 0.50788(10) 0.42373(10)
N2 N 0.88987(17) 0.49984(16) 0.55997(15)
C30 C 0.67828(17) 0.38334(15) 0.61126(15)
C31 C 0.83546(17) 0.13792(17) 0.90507(15)
C32 C 0.72255(17) 0.32882(16) 0.69307(15)
C33 C 0.7873(2) 0.25857(19) 0.70013(17)
H18 H 0.8056 0.2494 0.6568
C34 C 0.8263(2) 0.20043(18) 0.77158(18)
H19 H 0.8703 0.1533 0.7749
C35 C 0.80095(17) 0.21171(16) 0.83639(16)
C36 C 0.73874(17) 0.28815(16) 0.83468(15)
C37 C 0.69920(16) 0.34795(16) 0.76210(15)
C38 C 0.64090(19) 0.42607(18) 0.76268(18)
H20 H 0.6157 0.4665 0.7164
C39 C 0.6213(2) 0.4428(2) 0.8296(2)
H21 H 0.5828 0.4942 0.8287
C40 C 0.6590(3) 0.3824(3) 0.9004(2)
H22 H 0.6447 0.3938 0.9457
C41 C 0.7159(2) 0.3080(2) 0.90279(18)
H23 H 0.7405 0.2692 0.9502
C42 C 0.6694(2) 0.37366(18) 0.34059(17)
C43 C 0.8134(2) 0.15989(19) 0.13495(18)
C44 C 0.7061(2) 0.31160(18) 0.29056(17)
C45 C 0.6752(3) 0.3318(2) 0.2074(2)
H24 H 0.6296 0.3795 0.1833
C46 C 0.7103(3) 0.2824(2) 0.1570(2)
H25 H 0.6875 0.2975 0.1002
C47 C 0.7775(2) 0.21271(19) 0.19062(18)
C48 C 0.8100(2) 0.18694(18) 0.27613(18)
C49 C 0.7740(2) 0.23715(19) 0.32750(17)
C50 C 0.8068(3) 0.2083(2) 0.4125(2)
H26 H 0.7843 0.2398 0.4470
C51 C 0.8700(3) 0.1360(3) 0.4443(3)
H27 H 0.8902 0.1180 0.5002
C52 C 0.9056(3) 0.0873(3) 0.3934(3)
H28 H 0.9499 0.0382 0.4159
C53 C 0.8750(3) 0.1126(3) 0.3112(2)
H29 H 0.8980 0.0795 0.2778
C54 C 0.9414(3) 0.5782(3) 0.5672(2)
H30 H 0.9096 0.6347 0.5439
C58 C 0.9387(2) 0.4209(3) 0.5937(3)
H34 H 0.9047 0.3647 0.5889
Mg5_6 Mg 1.0000 0.0000 1.0000
Mg7 Mg 0.23183(5) 0.99926(5) 0.99447(5)
O19 O 0.27591(13) 0.39486(13) 0.42815(13)
O20 O 0.72409(13) 0.60514(13) 0.57185(13)
O21 O 0.42124(13) 0.38820(13) 0.43103(12)
O22 O 0.57876(13) 0.61180(13) 0.56897(12)
O23 O 0.25740(14) 0.39828(15) 0.58566(14)
O24 O 0.74260(14) 0.60172(15) 0.41434(14)
Mg5_7 Mg 1.0000 1.0000 0.0000
Mg5_8 Mg 1.0000 1.0000 1.0000
C26 C 0.9588(3) 0.4216(4) 0.3917(3)
H14 H 0.9251 0.3654 0.3873
C27 C 0.9112(3) 0.5023(4) 0.3584(3)
H15 H 0.8443 0.5034 0.3317
C28 C 0.9625(3) 0.5813(4) 0.3646(4)
H16 H 0.9313 0.6379 0.3406
O1_2 O 0.09243(12) 0.09482(13) 0.08320(11)
O2_2 O 0.23259(13) 0.09942(14) 0.07696(13)
N1_2 N 0.38987(17) 0.00016(16) 0.05997(15)
C1_2 C 0.17828(17) 0.11666(15) 0.11126(15)
C2_2 C 0.33546(17) 0.36208(17) 0.40507(15)
C3_2 C 0.22255(17) 0.17118(16) 0.19307(15)
C4_2 C 0.2873(2) 0.24143(19) 0.20013(17)
H1_2 H 0.3056 0.2506 0.1568
C5_2 C 0.3263(2) 0.29957(18) 0.27158(18)
H2_2 H 0.3703 0.3467 0.2749
C6_2 C 0.30095(17) 0.28829(16) 0.33639(16)
C7_2 C 0.23874(17) 0.21185(16) 0.33468(15)
C8_2 C 0.19920(16) 0.15205(16) 0.26210(15)
C9_2 C 0.14090(19) 0.07393(18) 0.26268(18)
H3_2 H 0.1157 0.0335 0.2164
C10_2 C 0.1213(2) 0.0572(2) 0.3296(2)
H4_2 H 0.0828 0.0058 0.3287
C11_2 C 0.1590(3) 0.1176(3) 0.4004(2)
H5_2 H 0.1447 0.1062 0.4457
C12_2 C 0.2159(2) 0.1920(2) 0.40279(18)
H6_2 H 0.2405 0.2308 0.4502
H10_2 H 0.3902 0.3820 0.0002
C27_2 C 0.5888(3) 0.0023(4) 0.1416(3)
H15_2 H 0.6557 0.0034 0.1683
C28_2 C 0.5375(3) 0.0813(4) 0.1354(4)
H16_2 H 0.5687 0.1379 0.1594
C29_2 C 0.4387(2) 0.0791(3) 0.0937(3)
H17_2 H 0.4047 0.1353 0.0889
O5_2 O 0.23027(14) 0.10193(14) 0.91296(13)
O6_2 O 0.08352(15) 0.10204(17) 0.80782(14)
O7_2 O 0.39637(18) 0.32320(17) 0.64232(18)
C13_2 C 0.1694(2) 0.12634(18) 0.84059(17)
C14_2 C 0.3134(2) 0.34011(19) 0.63495(18)
C15_2 C 0.2061(2) 0.18840(18) 0.79056(17)
C16_2 C 0.1752(3) 0.1682(2) 0.7074(2)
H7_2 H 0.1296 0.1205 0.6833
C17_2 C 0.2103(3) 0.2176(2) 0.6570(2)
H8_2 H 0.1875 0.2025 0.6002
C18_2 C 0.2775(2) 0.28729(19) 0.69062(18)
C19_2 C 0.3100(2) 0.31306(18) 0.77613(18)
C20_2 C 0.2740(2) 0.26285(19) 0.82750(17)
C21_2 C 0.3068(3) 0.2917(2) 0.9125(2)
H9_2 H 0.2843 0.2602 0.9470
C22_2 C 0.3700(3) 0.3640(3) 0.9443(3)
C23_2 C 0.4056(3) 0.4127(3) 0.8934(3)
H11_2 H 0.4499 0.4618 0.9159
C24_2 C 0.3750(3) 0.3874(3) 0.8112(2)
H12_2 H 0.3980 0.4205 0.7778
C25_2 C 0.4414(3) 0.9218(3) 0.0672(2)
H13_2 H 0.4096 0.8653 0.0439
C26_2 C 0.5412(3) 0.9216(4) 0.1083(3)
H14_2 H 0.5749 0.8654 0.1127
O9_2 O 0.07590(11) 0.99212(10) 0.92373(10)
O18_2 O 0.92410(11) 0.00788(10) 0.07627(10)
C54_2 C 0.5586(3) 0.0782(3) 0.9328(2)
H30_2 H 0.5904 0.1347 0.9561
C55_2 C 0.4588(3) 0.0784(4) 0.8917(3)
H31_2 H 0.4251 0.1346 0.8873
O14_2 O 0.76973(14) 0.89807(14) 0.08704(13)
O15_2 O 0.91648(15) 0.89796(17) 0.19218(14)
O16_2 O 0.60363(18) 0.67680(17) 0.35768(18)
C42_2 C 0.8306(2) 0.87366(18) 0.15941(17)
C43_2 C 0.6866(2) 0.65989(19) 0.36505(18)
C44_2 C 0.7939(2) 0.81160(18) 0.20944(17)
C45_2 C 0.8248(3) 0.8318(2) 0.2926(2)
H24_2 H 0.8704 0.8795 0.3167
C46_2 C 0.7897(3) 0.7824(2) 0.3430(2)
H25_2 H 0.8125 0.7975 0.3998
C47_2 C 0.7225(2) 0.71271(19) 0.30938(18)
C48_2 C 0.6900(2) 0.68694(18) 0.22387(18)
C49_2 C 0.7260(2) 0.73715(19) 0.17250(17)
C50_2 C 0.6932(3) 0.7083(2) 0.0875(2)
H26_2 H 0.7157 0.7398 0.0530
C51_2 C 0.6300(3) 0.6360(3) 0.0557(3)
C52_2 C 0.5944(3) 0.5873(3) 0.1066(3)
H28_2 H 0.5501 0.5382 0.0841
C53_2 C 0.6250(3) 0.6126(3) 0.1888(2)
H29_2 H 0.6020 0.5795 0.2222
O10_2 O 0.90757(12) 0.90518(13) 0.91680(11)
O11_2 O 0.76741(13) 0.90058(14) 0.92304(13)
N2_2 N 0.61013(17) 0.99984(16) 0.94003(15)
C30_2 C 0.82172(17) 0.88334(15) 0.88874(15)
C31_2 C 0.66454(17) 0.63792(17) 0.59493(15)
C32_2 C 0.77745(17) 0.82882(16) 0.80693(15)
C33_2 C 0.7127(2) 0.75857(19) 0.79987(17)
H18_2 H 0.6944 0.7494 0.8432
C34_2 C 0.6737(2) 0.70043(18) 0.72842(18)
H19_2 H 0.6297 0.6533 0.7251
C35_2 C 0.69905(17) 0.71171(16) 0.66361(16)
C36_2 C 0.76126(17) 0.78815(16) 0.66532(15)
C37_2 C 0.80080(16) 0.84795(16) 0.73790(15)
C38_2 C 0.85910(19) 0.92607(18) 0.73732(18)
H20_2 H 0.8843 0.9665 0.7836
C39_2 C 0.8787(2) 0.9428(2) 0.6704(2)
H21_2 H 0.9172 0.9942 0.6713
C40_2 C 0.8410(3) 0.8824(3) 0.5996(2)
H22_2 H 0.8553 0.8938 0.5543
C41_2 C 0.7841(2) 0.8080(2) 0.59721(18)
H23_2 H 0.7595 0.7692 0.5498
H27_2 H 0.6098 0.6180 0.9998
C56_2 C 0.4112(3) 0.9977(4) 0.8584(3)
H32_2 H 0.3443 0.9966 0.8317
C57_2 C 0.4625(3) 0.9187(4) 0.8646(4)
H33_2 H 0.4313 0.8621 0.8406
C58_2 C 0.5613(2) 0.9209(3) 0.9063(3)
H34_2 H 0.5953 0.8647 0.9111
loop_
_geom_bond_atom_site_label_1
_geom_bond_atom_site_label_2
_geom_bond_site_symmetry_1
_geom_bond_site_symmetry_2
H31 C55 1_555 1_555
C56 C55 1_555 1_555
H32 C56 1_555 1_555
C57 C56 1_555 1_555
H33 C57 1_555 1_555
Mg1 O1 1_555 1_555
Mg2 O2 1_555 1_555
O1 C1 1_555 1_555
O2 C1 1_555 1_555
O3 C2 1_555 1_555
O4 C2 1_555 1_555
O5 Mg2 1_555 1_555
O6 C13 1_555 1_555
O7 C14 1_555 1_555
O8 C14 1_555 1_555
O9 Mg1 1_555 1_555
N1 Mg2 1_555 1_555
C1 C3 1_555 1_555
C2 C6 1_555 1_555
C3 C4 1_555 1_555
C4 H1 1_555 1_555
C5 C4 1_555 1_555
H2 C5 1_555 1_555
C6 C5 1_555 1_555
C7 C6 1_555 1_555
C8 C3 1_555 1_555
C9 C8 1_555 1_555
H3 C9 1_555 1_555
C10 C9 1_555 1_555
H4 C10 1_555 1_555
C11 C10 1_555 1_555
H5 C11 1_555 1_555
C12 C7 1_555 1_555
H6 C12 1_555 1_555
C13 O5 1_555 1_555
C14 C18 1_555 1_555
C15 C13 1_555 1_555
C16 C15 1_555 1_555
H7 C16 1_555 1_555
C17 C16 1_555 1_555
H8 C17 1_555 1_555
C18 C17 1_555 1_555
C19 C18 1_555 1_555
C20 C15 1_555 1_555
C21 C20 1_555 1_555
H9 C21 1_555 1_555
C22 C21 1_555 1_555
H10 C22 1_555 1_555
C23 C22 1_555 1_555
H11 C23 1_555 1_555
C24 C19 1_555 1_555
H12 C24 1_555 1_555
C25 N1 1_555 1_555
H13 C25 1_555 1_555
C29 N1 1_555 1_555
H17 C29 1_555 1_555
Mg3 O11 1_555 1_555
O10 Mg1 1_555 1_555
O11 C30 1_555 1_555
O12 C31 1_555 1_555
O13 C31 1_555 1_555
O14 Mg3 1_555 1_555
O15 C42 1_555 1_555
O16 C43 1_555 1_555
O17 C43 1_555 1_555
O18 Mg1 1_555 1_555
N2 Mg3 1_555 1_555
C30 O10 1_555 1_555
C31 C35 1_555 1_555
C32 C30 1_555 1_555
C33 C32 1_555 1_555
H18 C33 1_555 1_555
C34 C33 1_555 1_555
H19 C34 1_555 1_555
C35 C34 1_555 1_555
C36 C35 1_555 1_555
C37 C32 1_555 1_555
C38 C37 1_555 1_555
H20 C38 1_555 1_555
C39 C38 1_555 1_555
H21 C39 1_555 1_555
C40 C39 1_555 1_555
H22 C40 1_555 1_555
C41 C36 1_555 1_555
H23 C41 1_555 1_555
C42 O14 1_555 1_555
C43 C47 1_555 1_555
C44 C42 1_555 1_555
C45 C44 1_555 1_555
H24 C45 1_555 1_555
C46 C45 1_555 1_555
H25 C46 1_555 1_555
C47 C46 1_555 1_555
C48 C47 1_555 1_555
C49 C44 1_555 1_555
C50 C49 1_555 1_555
H26 C50 1_555 1_555
C51 C50 1_555 1_555
H27 C51 1_555 1_555
C52 C51 1_555 1_555
H28 C52 1_555 1_555
C53 C48 1_555 1_555
H29 C53 1_555 1_555
C54 N2 1_555 1_555
H30 C54 1_555 1_555
C58 N2 1_555 1_555
H34 C58 1_555 1_555
Mg5_3 O4 1_555 1_555
Mg5_6 O13 1_555 1_555
Mg7 O8 1_555 1_555
Mg9 O17 1_555 1_555
O19 Mg2 1_555 1_555
O20 Mg3 1_555 1_555
O21 Mg1 1_555 1_555
O22 Mg1 1_555 1_555
O23 Mg2 1_555 1_555
O24 Mg3 1_555 1_555
Mg2 O9 1_555 1_555
C7 C8 1_555 1_555
C11 C12 1_555 1_555
C19 C20 1_555 1_555
C23 C24 1_555 1_555
Mg3 O18 1_555 1_555
C36 C37 1_555 1_555
C40 C41 1_555 1_555
C48 C49 1_555 1_555
C52 C53 1_555 1_555
H14 C26 1_555 1_555
C27 C26 1_555 1_555
H15 C27 1_555 1_555
C28 C27 1_555 1_555
H16 C28 1_555 1_555
Mg5 O1_2 1_555 1_555
O1_2 C1_2 1_555 1_555
O2_2 C1_2 1_555 1_555
O19 C2_2 1_555 1_555
O21 C2_2 1_555 1_555
C1_2 C3_2 1_555 1_555
C2_2 C6_2 1_555 1_555
C3_2 C4_2 1_555 1_555
C4_2 H1_2 1_555 1_555
C5_2 C4_2 1_555 1_555
H2_2 C5_2 1_555 1_555
C6_2 C5_2 1_555 1_555
C7_2 C6_2 1_555 1_555
C8_2 C3_2 1_555 1_555
C9_2 C8_2 1_555 1_555
H3_2 C9_2 1_555 1_555
C10_2 C9_2 1_555 1_555
H4_2 C10_2 1_555 1_555
C11_2 C10_2 1_555 1_555
H5_2 C11_2 1_555 1_555
C12_2 C7_2 1_555 1_555
H6_2 C12_2 1_555 1_555
H15_2 C27_2 1_555 1_555
C28_2 C27_2 1_555 1_555
H16_2 C28_2 1_555 1_555
C29_2 N1_2 1_555 1_555
H17_2 C29_2 1_555 1_555
C7_2 C8_2 1_555 1_555
C11_2 C12_2 1_555 1_555
C28_2 C29_2 1_555 1_555
O6_2 C13_2 1_555 1_555
O7_2 C14_2 1_555 1_555
O23 C14_2 1_555 1_555
C13_2 O5_2 1_555 1_555
C14_2 C18_2 1_555 1_555
C15_2 C13_2 1_555 1_555
C16_2 C15_2 1_555 1_555
H7_2 C16_2 1_555 1_555
C17_2 C16_2 1_555 1_555
H8_2 C17_2 1_555 1_555
C18_2 C17_2 1_555 1_555
C19_2 C18_2 1_555 1_555
C20_2 C15_2 1_555 1_555
C21_2 C20_2 1_555 1_555
H9_2 C21_2 1_555 1_555
C22_2 C21_2 1_555 1_555
C23_2 C22_2 1_555 1_555
H11_2 C23_2 1_555 1_555
C24_2 C19_2 1_555 1_555
H12_2 C24_2 1_555 1_555
C19_2 C20_2 1_555 1_555
C23_2 C24_2 1_555 1_555
H13_2 C25_2 1_555 1_555
C26_2 C25_2 1_555 1_555
H14_2 C26_2 1_555 1_555
O9_2 Mg5_4 1_555 1_555
Mg7 O9_2 1_555 1_555
O18_2 Mg5_5 1_555 1_555
Mg9 O18_2 1_555 1_555
H30_2 C54_2 1_555 1_555
C55_2 C54_2 1_555 1_555
H31_2 C55_2 1_555 1_555
O15_2 C42_2 1_555 1_555
O16_2 C43_2 1_555 1_555
O24 C43_2 1_555 1_555
C42_2 O14_2 1_555 1_555
C43_2 C47_2 1_555 1_555
C44_2 C42_2 1_555 1_555
C45_2 C44_2 1_555 1_555
H24_2 C45_2 1_555 1_555
C46_2 C45_2 1_555 1_555
H25_2 C46_2 1_555 1_555
C47_2 C46_2 1_555 1_555
C48_2 C47_2 1_555 1_555
C49_2 C44_2 1_555 1_555
C50_2 C49_2 1_555 1_555
H26_2 C50_2 1_555 1_555
C51_2 C50_2 1_555 1_555
C52_2 C51_2 1_555 1_555
H28_2 C52_2 1_555 1_555
C53_2 C48_2 1_555 1_555
H29_2 C53_2 1_555 1_555
C48_2 C49_2 1_555 1_555
C52_2 C53_2 1_555 1_555
O10_2 Mg5_8 1_555 1_555
O11_2 C30_2 1_555 1_555
O20 C31_2 1_555 1_555
O22 C31_2 1_555 1_555
C30_2 O10_2 1_555 1_555
C31_2 C35_2 1_555 1_555
C32_2 C30_2 1_555 1_555
C33_2 C32_2 1_555 1_555
H18_2 C33_2 1_555 1_555
C34_2 C33_2 1_555 1_555
H19_2 C34_2 1_555 1_555
C35_2 C34_2 1_555 1_555
C36_2 C35_2 1_555 1_555
C37_2 C32_2 1_555 1_555
C38_2 C37_2 1_555 1_555
H20_2 C38_2 1_555 1_555
C39_2 C38_2 1_555 1_555
H21_2 C39_2 1_555 1_555
C40_2 C39_2 1_555 1_555
H22_2 C40_2 1_555 1_555
C41_2 C36_2 1_555 1_555
H23_2 C41_2 1_555 1_555
H32_2 C56_2 1_555 1_555
C57_2 C56_2 1_555 1_555
H33_2 C57_2 1_555 1_555
C58_2 N2_2 1_555 1_555
H34_2 C58_2 1_555 1_555
C36_2 C37_2 1_555 1_555
C40_2 C41_2 1_555 1_555
C57_2 C58_2 1_555 1_555

#END
