
###############################################################################
#
# This file contains modified crystal structure data generated from the
# MOF subset of the Cambridge Structural Database (CSD) v543 
# hosted by the Cambridge Crystallographic Data Centre (CCDC).
#
# This work is licensed under the Creative Commons
# Attribution-NonCommercial-ShareAlike 4.0 International License.
# To view a copy of this license, visit
# http://creativecommons.org/licenses/by-nc-sa/4.0/
# or send a letter to
# Creative Commons, PO Box 1866, Mountain View, CA 94042, USA.
#
# CIF created using the CSD Python API on 29 September 2022
# The structure has been converted into the P1 space group
# The structure has a 3D framework
# The original CSD entry FOJKIA is in the monoclinic crystal system
# The framework has been calculated to contain at least 10.0% void space
# The void calculation uses a probe of radius 1.32A, grid spacing 0.4
#
###############################################################################

data_FOJKIA
_chemical_formula_moiety         '(C48 H30 Mg10 O19)n'
_symmetry_cell_setting           triclinic
_symmetry_space_group_name_H-M   'P 1'
_symmetry_Int_Tables_number      1
_space_group_name_Hall           'P 1'
loop_
_symmetry_equiv_pos_site_id
_symmetry_equiv_pos_as_xyz
1 x,y,z
_cell_length_a                   7.1722(2)
_cell_length_b                   12.8109(3)
_cell_length_c                   17.3162(4)
_cell_angle_alpha                90
_cell_angle_beta                 90.933(2)
_cell_angle_gamma                90
_cell_volume                     1590.84
loop_
_atom_site_label
_atom_site_type_symbol
_atom_site_fract_x
_atom_site_fract_y
_atom_site_fract_z
Mg6 Mg -0.0000 0.5000 0.0000
Mg6_2 Mg 0.0000 0.5000 1.0000
Mg8 Mg -0.0000 -0.0000 0.5000
Mg1 Mg 0.5000 0.5000 0.0000
O1 O 0.10440(16) 0.38175(9) 0.06817(7)
O2 O 0.40913(17) 0.40769(9) 0.08749(7)
O3 O 0.08254(16) 0.07144(9) 0.39912(7)
O4 O 0.38757(16) 0.09719(9) 0.41828(7)
O5 O 0.74973(15) 0.40901(8) 0.00547(7)
H2 H 0.7489 0.3910 0.0515
C1 C 0.2571(2) 0.36354(12) 0.10175(9)
C2 C 0.2389(2) 0.10445(12) 0.37877(10)
C3 C 0.2556(2) 0.28494(12) 0.16699(9)
C4 C 0.1022(2) 0.28266(14) 0.21314(10)
C5 C 0.0977(2) 0.21981(14) 0.27971(10)
C6 C 0.2485(2) 0.16061(13) 0.30203(9)
C7 C 0.4083(2) 0.15625(12) 0.25359(9)
C8 C 0.4098(2) 0.21744(12) 0.18448(10)
C9 C 0.5616(3) 0.20563(14) 0.13380(11)
H5 H 0.5621 0.2431 0.0878
C10 C 0.7068(3) 0.14072(15) 0.15099(12)
H6 H 0.8057 0.1350 0.1172
C11 C 0.7077(3) 0.08256(15) 0.21955(12)
H7 H 0.8080 0.0390 0.2314
C12 C 0.5628(3) 0.08942(14) 0.26884(11)
H8 H 0.5647 0.0494 0.3137
H15 H 0.2414 0.6477 0.0197
Mg5 Mg 0.5000 -0.0000 0.5000
Mg6_3 Mg 1.0000 0.5000 0.0000
O14 O 0.61243(16) 0.59719(9) 0.08172(7)
Mg1_2 Mg 0.5000 0.5000 1.0000
H1 H 0.7586 0.3523 0.9803
H9 H 0.0009 0.6766 0.7998
H10 H 0.0096 0.7816 0.6909
O10 O 0.25027(15) 0.59099(8) 0.99453(7)
H16 H 0.2511 0.6090 0.9485
Mg6_4 Mg 1.0000 0.5000 1.0000
Mg8_2 Mg -0.0000 1.0000 0.5000
O11 O 0.59087(17) 0.59231(9) 0.91251(7)
O13 O 0.08254(16) 0.42856(9) 0.89912(7)
O15 O 0.38757(16) 0.40281(9) 0.91828(7)
Mg5_2 Mg 0.5000 1.0000 0.5000
Mg8_3 Mg 1.0000 -0.0000 0.5000
H3 H 0.9991 0.3234 0.2002
H4 H 0.9904 0.2184 0.3091
O12 O 0.91746(16) 0.57144(9) 0.10088(7)
O6 O 0.89560(16) 0.61825(9) 0.93183(7)
O8 O 0.91746(16) 0.92856(9) 0.60088(7)
O9 O 0.61243(16) 0.90281(9) 0.58172(7)
C13 C 0.7429(2) 0.63646(12) 0.89825(9)
C14 C 0.7611(2) 0.89555(12) 0.62123(10)
C15 C 0.7444(2) 0.71506(12) 0.83301(9)
C16 C 0.8978(2) 0.71734(14) 0.78686(10)
C17 C 0.9023(2) 0.78019(14) 0.72029(10)
C18 C 0.7515(2) 0.83939(13) 0.69797(9)
C19 C 0.5917(2) 0.84375(12) 0.74641(9)
C20 C 0.5902(2) 0.78256(12) 0.81552(10)
C21 C 0.4384(3) 0.79437(14) 0.86620(11)
H11 H 0.4379 0.7569 0.9122
C22 C 0.2932(3) 0.85928(15) 0.84901(12)
H12 H 0.1943 0.8650 0.8828
C23 C 0.2923(3) 0.91744(15) 0.78045(12)
H13 H 0.1920 0.9610 0.7686
C24 C 0.4372(3) 0.91058(14) 0.73116(11)
H14 H 0.4353 0.9506 0.6863
Mg8_4 Mg 1.0000 1.0000 0.5000
O6_2 O 0.10440(16) 0.11825(9) 0.56817(7)
O7 O 0.40913(17) 0.09231(9) 0.58749(7)
C13_2 C 0.2571(2) 0.13646(12) 0.60175(9)
C14_2 C 0.2389(2) 0.39555(12) 0.87877(10)
C15_2 C 0.2556(2) 0.21506(12) 0.66699(9)
C16_2 C 0.1022(2) 0.21734(14) 0.71314(10)
C17_2 C 0.0977(2) 0.28019(14) 0.77971(10)
C18_2 C 0.2485(2) 0.33939(13) 0.80203(9)
C19_2 C 0.4083(2) 0.34375(12) 0.75359(9)
C20_2 C 0.4098(2) 0.28256(12) 0.68448(10)
C21_2 C 0.5616(3) 0.29437(14) 0.63380(11)
H11_2 H 0.5621 0.2569 0.5878
C22_2 C 0.7068(3) 0.35928(15) 0.65099(12)
H12_2 H 0.8057 0.3650 0.6172
C23_2 C 0.7077(3) 0.41744(15) 0.71955(12)
H13_2 H 0.8080 0.4610 0.7314
C24_2 C 0.5628(3) 0.41058(14) 0.76884(11)
H14_2 H 0.5647 0.4506 0.8137
H3_2 H 0.0009 0.8234 0.2998
H4_2 H 0.0096 0.7184 0.1909
O16 O 0.25027(15) 0.90901(8) 0.49453(7)
H9_2 H 0.9991 0.1766 0.7002
H10_2 H 0.9904 0.2816 0.8091
O10_2 O 0.74973(15) 0.09099(8) 0.50547(7)
H15_2 H 0.7586 0.1477 0.4803
H16_2 H 0.7489 0.1090 0.5515
O1_2 O 0.89560(16) 0.88175(9) 0.43183(7)
O2_2 O 0.59087(17) 0.90769(9) 0.41251(7)
H1_2 H 0.2414 0.8523 0.5197
H2_2 H 0.2511 0.8910 0.4485
C1_2 C 0.7429(2) 0.86354(12) 0.39825(9)
C2_2 C 0.7611(2) 0.60445(12) 0.12123(10)
C3_2 C 0.7444(2) 0.78494(12) 0.33301(9)
C4_2 C 0.8978(2) 0.78266(14) 0.28686(10)
C5_2 C 0.9023(2) 0.71981(14) 0.22029(10)
C6_2 C 0.7515(2) 0.66061(13) 0.19797(9)
C7_2 C 0.5917(2) 0.65625(12) 0.24641(9)
C8_2 C 0.5902(2) 0.71744(12) 0.31552(10)
C9_2 C 0.4384(3) 0.70563(14) 0.36620(11)
H5_2 H 0.4379 0.7431 0.4122
C10_2 C 0.2932(3) 0.64072(15) 0.34901(12)
H6_2 H 0.1943 0.6350 0.3828
C11_2 C 0.2923(3) 0.58256(15) 0.28045(12)
H7_2 H 0.1920 0.5390 0.2686
C12_2 C 0.4372(3) 0.58942(14) 0.23116(11)
H8_2 H 0.4353 0.5494 0.1863
loop_
_geom_bond_atom_site_label_1
_geom_bond_atom_site_label_2
_geom_bond_site_symmetry_1
_geom_bond_site_symmetry_2
Mg1 O2 1_555 1_555
Mg6 O1 1_555 1_555
O1 C1 1_555 1_555
O2 C1 1_555 1_555
O3 C2 1_555 1_555
O4 C2 1_555 1_555
O5 Mg1 1_555 1_555
H2 O5 1_555 1_555
C1 C3 1_555 1_555
C2 C6 1_555 1_555
C3 C4 1_555 1_555
C5 C4 1_555 1_555
C6 C5 1_555 1_555
C7 C6 1_555 1_555
C8 C3 1_555 1_555
C9 C8 1_555 1_555
H5 C9 1_555 1_555
C10 C9 1_555 1_555
H6 C10 1_555 1_555
C11 C10 1_555 1_555
H7 C11 1_555 1_555
C12 C7 1_555 1_555
H8 C12 1_555 1_555
Mg5 O4 1_555 1_555
Mg6_3 O5 1_555 1_555
Mg8 O3 1_555 1_555
O14 Mg1 1_555 1_555
C7 C8 1_555 1_555
C11 C12 1_555 1_555
O10 Mg1_2 1_555 1_555
H16 O10 1_555 1_555
O11 Mg1_2 1_555 1_555
O13 Mg6_2 1_555 1_555
O15 Mg1_2 1_555 1_555
Mg6_2 O10 1_555 1_555
O12 Mg6_3 1_555 1_555
O6 Mg6_4 1_555 1_555
O11 C13 1_555 1_555
O8 C14 1_555 1_555
O9 C14 1_555 1_555
C13 O6 1_555 1_555
C14 C18 1_555 1_555
C15 C13 1_555 1_555
C16 C15 1_555 1_555
C17 C16 1_555 1_555
C18 C17 1_555 1_555
C19 C18 1_555 1_555
C20 C15 1_555 1_555
C21 C20 1_555 1_555
H11 C21 1_555 1_555
C22 C21 1_555 1_555
H12 C22 1_555 1_555
C23 C22 1_555 1_555
H13 C23 1_555 1_555
C24 C19 1_555 1_555
H14 C24 1_555 1_555
Mg5_2 O9 1_555 1_555
Mg8_4 O8 1_555 1_555
C19 C20 1_555 1_555
C23 C24 1_555 1_555
O6_2 Mg8 1_555 1_555
O7 C13_2 1_555 1_555
O13 C14_2 1_555 1_555
O15 C14_2 1_555 1_555
C13_2 O6_2 1_555 1_555
C14_2 C18_2 1_555 1_555
C15_2 C13_2 1_555 1_555
C16_2 C15_2 1_555 1_555
C17_2 C16_2 1_555 1_555
C18_2 C17_2 1_555 1_555
C19_2 C18_2 1_555 1_555
C20_2 C15_2 1_555 1_555
C21_2 C20_2 1_555 1_555
H11_2 C21_2 1_555 1_555
C22_2 C21_2 1_555 1_555
H12_2 C22_2 1_555 1_555
C23_2 C22_2 1_555 1_555
H13_2 C23_2 1_555 1_555
C24_2 C19_2 1_555 1_555
H14_2 C24_2 1_555 1_555
Mg5 O7 1_555 1_555
C19_2 C20_2 1_555 1_555
C23_2 C24_2 1_555 1_555
O16 Mg8_2 1_555 1_555
Mg5_2 O16 1_555 1_555
O10_2 Mg5 1_555 1_555
H15_2 O10_2 1_555 1_555
H16_2 O10_2 1_555 1_555
Mg8_3 O10_2 1_555 1_555
Mg5_2 O2_2 1_555 1_555
Mg8_4 O1_2 1_555 1_555
O1_2 C1_2 1_555 1_555
O2_2 C1_2 1_555 1_555
O12 C2_2 1_555 1_555
O14 C2_2 1_555 1_555
H1_2 O16 1_555 1_555
H2_2 O16 1_555 1_555
C1_2 C3_2 1_555 1_555
C2_2 C6_2 1_555 1_555
C3_2 C4_2 1_555 1_555
C5_2 C4_2 1_555 1_555
C6_2 C5_2 1_555 1_555
C7_2 C6_2 1_555 1_555
C8_2 C3_2 1_555 1_555
C9_2 C8_2 1_555 1_555
H5_2 C9_2 1_555 1_555
C10_2 C9_2 1_555 1_555
H6_2 C10_2 1_555 1_555
C11_2 C10_2 1_555 1_555
H7_2 C11_2 1_555 1_555
C12_2 C7_2 1_555 1_555
H8_2 C12_2 1_555 1_555
C7_2 C8_2 1_555 1_555
C11_2 C12_2 1_555 1_555

#END
