
###############################################################################
#
# This file contains modified crystal structure data generated from the
# MOF subset of the Cambridge Structural Database (CSD) v543 
# hosted by the Cambridge Crystallographic Data Centre (CCDC).
#
# This work is licensed under the Creative Commons
# Attribution-NonCommercial-ShareAlike 4.0 International License.
# To view a copy of this license, visit
# http://creativecommons.org/licenses/by-nc-sa/4.0/
# or send a letter to
# Creative Commons, PO Box 1866, Mountain View, CA 94042, USA.
#
# CIF created using the CSD Python API on 29 September 2022
# The structure has been converted into the P1 space group
# The structure has a 3D framework
# The original CSD entry FOJLOH is in the monoclinic crystal system
# The framework has been calculated to contain at least 10.0% void space
# The void calculation uses a probe of radius 1.32A, grid spacing 0.4
#
###############################################################################

data_FOJLOH
_chemical_formula_moiety         '(C264 H240 O80 Zn8)n'
_symmetry_cell_setting           triclinic
_symmetry_space_group_name_H-M   'P 1'
_symmetry_Int_Tables_number      1
_space_group_name_Hall           'P 1'
loop_
_symmetry_equiv_pos_site_id
_symmetry_equiv_pos_as_xyz
1 x,y,z
_cell_length_a                   36.991(14)
_cell_length_b                   8.394(3)
_cell_length_c                   36.940(15)
_cell_angle_alpha                90
_cell_angle_beta                 116.750(5)
_cell_angle_gamma                90
_cell_volume                     10242.4
loop_
_atom_site_label
_atom_site_type_symbol
_atom_site_fract_x
_atom_site_fract_y
_atom_site_fract_z
Zn1 Zn 0.830746(17) 0.03267(7) 0.177017(16)
O1 O 0.59234(9) 0.1970(4) 0.02214(11)
O3 O 0.42730(11) 0.3209(4) 0.02048(11)
O5 O 0.77862(10) 0.1320(5) 0.14470(11)
O8 O 0.35552(13) 0.4597(5) 0.14270(13)
O9 O 0.3636(2) 0.7183(4) 0.1277(2)
O10 O 0.86066(13) 0.2210(5) 0.21049(13)
C5 C 0.50302(13) 0.2538(5) 0.00574(13)
C9 C 0.52452(16) 0.2696(6) 0.05139(14)
H7 H 0.5497 0.2130 0.0618
H8 H 0.5079 0.2257 0.0627
H9 H 0.5296 0.3801 0.0586
C10 C 0.56014(13) 0.0769(6) 0.00913(17)
H10 H 0.5599 0.0253 0.0325
C11 C 0.63061(14) 0.1438(6) 0.04721(14)
C12 C 0.65991(16) 0.2629(6) 0.06288(17)
H12 H 0.6529 0.3691 0.0563
C13 C 0.69953(17) 0.2209(6) 0.08839(17)
H13 H 0.7193 0.2996 0.0985
C14 C 0.71007(15) 0.0640(6) 0.09905(16)
C17 C 0.75348(17) 0.0149(6) 0.12749(17)
C26 C 0.44799(15) 0.4251(5) 0.00534(15)
H22 H 0.4693 0.4820 0.0276
C27 C 0.41323(17) 0.3905(6) 0.04511(18)
C28 C 0.41233(19) 0.5524(6) 0.05169(18)
H24 H 0.4225 0.6241 0.0393
C29 C 0.3962(2) 0.6073(7) 0.0769(2)
H25 H 0.3945 0.7163 0.0804
C30 C 0.3824(2) 0.4996(6) 0.0971(2)
C31 C 0.3828(3) 0.3421(8) 0.0902(3)
H26 H 0.3723 0.2710 0.1024
C32 C 0.3989(2) 0.2844(6) 0.0646(2)
H27 H 0.3999 0.1753 0.0607
C33 C 0.3662(2) 0.5633(7) 0.1254(2)
H28 H 0.8763 0.2901 0.2277
H29 H 0.8393 0.2717 0.1947
H30 H 0.3790 0.8033 0.1214
Zn2 Zn 0.330746(17) 0.53267(7) 0.177017(16)
O4 O 0.76270(12) 0.8763(5) 0.13257(14)
C15 C 0.68069(17) 0.9470(6) 0.08166(17)
H14 H 0.6879 0.8406 0.0878
C16 C 0.64167(17) 0.9846(6) 0.05589(18)
H15 H 0.6225 0.9045 0.0442
O11 O 0.84648(13) 0.8625(5) 0.21711(12)
O12 O 0.85552(13) 0.9597(5) 0.14270(13)
O1_2 O 0.09234(9) 0.6970(4) 0.02214(11)
O4_2 O 0.26270(12) 0.3763(5) 0.13257(14)
O5_2 O 0.27862(10) 0.6320(5) 0.14470(11)
O10_2 O 0.36066(13) 0.7210(5) 0.21049(13)
C5_2 C 0.00302(13) 0.7538(5) 0.00574(13)
C9_2 C 0.02452(16) 0.7696(6) 0.05139(14)
H7_2 H 0.0497 0.7130 0.0618
H8_2 H 0.0079 0.7257 0.0627
H9_2 H 0.0296 0.8801 0.0586
C10_2 C 0.06014(13) 0.5769(6) 0.00913(17)
H10_2 H 0.0599 0.5253 0.0325
C11_2 C 0.13061(14) 0.6438(6) 0.04721(14)
C12_2 C 0.15991(16) 0.7629(6) 0.06288(17)
H12_2 H 0.1529 0.8691 0.0563
C13_2 C 0.19953(17) 0.7209(6) 0.08839(17)
H13_2 H 0.2193 0.7996 0.0985
C14_2 C 0.21007(15) 0.5640(6) 0.09905(16)
C15_2 C 0.18069(17) 0.4470(6) 0.08166(17)
H14_2 H 0.1879 0.3406 0.0878
C16_2 C 0.14167(17) 0.4846(6) 0.05589(18)
H15_2 H 0.1225 0.4045 0.0442
C17_2 C 0.25348(17) 0.5149(6) 0.12749(17)
H28_2 H 0.3763 0.7901 0.2277
H29_2 H 0.3393 0.7717 0.1947
O11_2 O 0.34648(13) 0.3625(5) 0.21711(12)
O9_2 O 0.8636(2) 0.2183(4) 0.1277(2)
C28_2 C 0.91233(19) 0.0524(6) 0.05169(18)
H24_2 H 0.9225 0.1241 0.0393
C29_2 C 0.8962(2) 0.1073(7) 0.0769(2)
H25_2 H 0.8945 0.2163 0.0804
C33_2 C 0.8662(2) 0.0633(7) 0.1254(2)
H30_2 H 0.8790 0.3033 0.1214
O3_2 O 0.92730(11) 0.8209(4) 0.02048(11)
C26_2 C 0.94799(15) 0.9251(5) 0.00534(15)
H22_2 H 0.9693 0.9820 0.0276
C27_2 C 0.91323(17) 0.8905(6) 0.04511(18)
C30_2 C 0.8824(2) 0.9996(6) 0.0971(2)
C31_2 C 0.8828(3) 0.8421(8) 0.0902(3)
H26_2 H 0.8723 0.7710 0.1024
C32_2 C 0.8989(2) 0.7844(6) 0.0646(2)
H27_2 H 0.8999 0.6753 0.0607
O2 O 0.91362(13) 0.5465(4) 0.87831(10)
O6 O 0.84648(13) 0.1375(5) 0.71711(12)
O7 O 0.8221(4) 0.0119(12) 0.7503(3)
C2 C 0.96296(14) 0.7197(5) 0.92191(13)
C3 C 0.94450(13) 0.8055(5) 0.94164(13)
C4 C 0.96558(12) 0.8270(5) 0.98378(12)
C8 C 0.90203(16) 0.8698(6) 0.91849(17)
H4 H 0.8920 0.8453 0.8902
H5 H 0.9023 0.9832 0.9220
H6 H 0.8848 0.8217 0.9286
C18 C 0.93883(19) 0.6768(7) 0.87780(14)
H16 H 0.9565 0.6439 0.8661
H17 H 0.9225 0.7661 0.8624
C19 C 0.89647(19) 0.4490(6) 0.84462(15)
C20 C 0.8759(2) 0.3174(8) 0.8493(2)
H18 H 0.8732 0.3030 0.8729
C21 C 0.8598(3) 0.2106(9) 0.8182(2)
H19 H 0.8476 0.1190 0.8216
C22 C 0.86119(19) 0.2336(9) 0.78223(19)
C23 C 0.8801(2) 0.3646(9) 0.77765(17)
H20 H 0.8813 0.3809 0.7533
C24 C 0.8976(2) 0.4741(8) 0.80850(18)
H21 H 0.9102 0.5644 0.8048
C25 C 0.8437(3) 0.1143(14) 0.7478(3)
O4_3 O 0.76270(12) 0.1237(5) 0.63257(14)
O7_2 O 0.3221(4) 0.4881(12) 0.2503(3)
H2 H 0.5290 0.0321 0.4290
H11 H 0.5644 0.0037 0.4926
C15_3 C 0.68069(17) 0.0530(6) 0.58166(17)
H14_3 H 0.6879 0.1594 0.5878
C16_3 C 0.64167(17) 0.0154(6) 0.55589(18)
H15_3 H 0.6225 0.0955 0.5442
C19_2 C 0.39647(19) 0.0510(6) 0.34462(15)
C20_2 C 0.3759(2) 0.1826(8) 0.3493(2)
H18_2 H 0.3732 0.1970 0.3729
C21_2 C 0.3598(3) 0.2894(9) 0.3182(2)
H19_2 H 0.3476 0.3810 0.3216
C22_2 C 0.36119(19) 0.2664(9) 0.28223(19)
C23_2 C 0.3801(2) 0.1354(9) 0.27765(17)
H20_2 H 0.3813 0.1191 0.2533
C24_2 C 0.3976(2) 0.0259(8) 0.30850(18)
C25_2 C 0.3437(3) 0.3857(14) 0.2478(3)
O12_2 O 0.85552(13) 0.0403(5) 0.64270(13)
O2_2 O 0.91362(13) 0.4535(4) 0.37831(10)
O3_3 O 0.92730(11) 0.1791(4) 0.52048(11)
O7_3 O 0.8221(4) 0.9881(12) 0.2503(3)
C2_2 C 0.96296(14) 0.2803(5) 0.42191(13)
C3_2 C 0.94450(13) 0.1945(5) 0.44164(13)
C4_2 C 0.96558(12) 0.1730(5) 0.48378(12)
C8_2 C 0.90203(16) 0.1302(6) 0.41849(17)
H4_2 H 0.8920 0.1547 0.3902
H5_2 H 0.9023 0.0168 0.4220
H6_2 H 0.8848 0.1783 0.4286
C18_2 C 0.93883(19) 0.3232(7) 0.37780(14)
H16_2 H 0.9565 0.3561 0.3661
H17_2 H 0.9225 0.2339 0.3624
C19_3 C 0.89647(19) 0.5510(6) 0.34462(15)
C20_3 C 0.8759(2) 0.6826(8) 0.3493(2)
H18_3 H 0.8732 0.6970 0.3729
C21_3 C 0.8598(3) 0.7894(9) 0.3182(2)
H19_3 H 0.8476 0.8810 0.3216
C22_3 C 0.86119(19) 0.7664(9) 0.28223(19)
C23_3 C 0.8801(2) 0.6354(9) 0.27765(17)
H20_3 H 0.8813 0.6191 0.2533
C24_3 C 0.8976(2) 0.5259(8) 0.30850(18)
H21_2 H 0.9102 0.4356 0.3048
C25_3 C 0.8437(3) 0.8857(14) 0.2478(3)
C26_3 C 0.94799(15) 0.0749(5) 0.50534(15)
H22_3 H 0.9693 0.0180 0.5276
C27_3 C 0.91323(17) 0.1095(6) 0.54511(18)
C30_3 C 0.8824(2) 0.0004(6) 0.5971(2)
C31_3 C 0.8828(3) 0.1579(8) 0.5902(3)
H26_3 H 0.8723 0.2290 0.6024
C32_3 C 0.8989(2) 0.2156(6) 0.5646(2)
H27_3 H 0.8999 0.3247 0.5607
O2_3 O 0.41362(13) 0.0465(4) 0.87831(10)
C1 C 0.50161(15) 0.1537(5) 0.94336(15)
C2_3 C 0.46296(14) 0.2197(5) 0.92191(13)
C3_3 C 0.44450(13) 0.3055(5) 0.94164(13)
C4_3 C 0.46558(12) 0.3270(5) 0.98378(12)
C6 C 0.52061(13) 0.1622(5) 0.98485(14)
C7 C 0.5226(2) 0.0768(7) 0.9205(2)
H1 H 0.5050 0.0805 0.8919
H3 H 0.5472 0.1336 0.9263
C8_3 C 0.40203(16) 0.3698(6) 0.91849(17)
H4_3 H 0.3920 0.3453 0.8902
H5_3 H 0.4023 0.4832 0.9220
H6_3 H 0.3848 0.3217 0.9286
C18_3 C 0.43883(19) 0.1768(7) 0.87780(14)
H16_3 H 0.4565 0.1439 0.8661
H17_3 H 0.4225 0.2661 0.8624
H21_3 H 0.4102 0.0644 0.8048
H23 H 0.4292 0.5024 0.9869
O6_2 O 0.34648(13) 0.6375(5) 0.71711(12)
O7_4 O 0.3221(4) 0.5119(12) 0.7503(3)
H2_2 H 0.5290 0.9679 0.9290
H11_2 H 0.5644 0.9963 0.9926
C19_4 C 0.39647(19) 0.9490(6) 0.84462(15)
C20_4 C 0.3759(2) 0.8174(8) 0.8493(2)
H18_4 H 0.3732 0.8030 0.8729
C21_4 C 0.3598(3) 0.7106(9) 0.8182(2)
H19_4 H 0.3476 0.6190 0.8216
C22_4 C 0.36119(19) 0.7336(9) 0.78223(19)
C23_4 C 0.3801(2) 0.8646(9) 0.77765(17)
H20_4 H 0.3813 0.8809 0.7533
C24_4 C 0.3976(2) 0.9741(8) 0.80850(18)
C25_4 C 0.3437(3) 0.6143(14) 0.7478(3)
Zn3 Zn 0.330746(17) 0.46733(7) 0.677017(16)
Zn3_2 Zn 0.830746(17) 0.96733(7) 0.677017(16)
O1_3 O 0.59234(9) 0.8030(4) 0.52214(11)
O2_4 O 0.41362(13) 0.9535(4) 0.37831(10)
O3_4 O 0.42730(11) 0.6791(4) 0.52048(11)
O5_3 O 0.77862(10) 0.8680(5) 0.64470(11)
O8_2 O 0.35552(13) 0.5403(5) 0.64270(13)
O9_3 O 0.3636(2) 0.2817(4) 0.6277(2)
O10_3 O 0.86066(13) 0.7790(5) 0.71049(13)
C1_2 C 0.50161(15) 0.8463(5) 0.44336(15)
C2_4 C 0.46296(14) 0.7803(5) 0.42191(13)
C3_4 C 0.44450(13) 0.6945(5) 0.44164(13)
C4_4 C 0.46558(12) 0.6730(5) 0.48378(12)
C5_3 C 0.50302(13) 0.7462(5) 0.50574(13)
C6_2 C 0.52061(13) 0.8378(5) 0.48485(14)
C7_2 C 0.5226(2) 0.9232(7) 0.4205(2)
H1_2 H 0.5050 0.9195 0.3919
H3_2 H 0.5472 0.8664 0.4263
C8_4 C 0.40203(16) 0.6302(6) 0.41849(17)
H4_4 H 0.3920 0.6547 0.3902
H5_4 H 0.4023 0.5168 0.4220
H6_4 H 0.3848 0.6783 0.4286
C9_3 C 0.52452(16) 0.7304(6) 0.55139(14)
H7_3 H 0.5497 0.7870 0.5618
H8_3 H 0.5079 0.7743 0.5627
H9_3 H 0.5296 0.6199 0.5586
C10_3 C 0.56014(13) 0.9231(6) 0.50913(17)
H10_3 H 0.5599 0.9747 0.5325
C11_3 C 0.63061(14) 0.8562(6) 0.54721(14)
C12_3 C 0.65991(16) 0.7371(6) 0.56288(17)
H12_3 H 0.6529 0.6309 0.5563
C13_3 C 0.69953(17) 0.7791(6) 0.58839(17)
H13_3 H 0.7193 0.7004 0.5985
C14_3 C 0.71007(15) 0.9360(6) 0.59905(16)
C17_3 C 0.75348(17) 0.9851(6) 0.62749(17)
C18_4 C 0.43883(19) 0.8232(7) 0.37780(14)
H16_4 H 0.4565 0.8561 0.3661
H17_4 H 0.4225 0.7339 0.3624
H21_4 H 0.4102 0.9356 0.3048
C26_4 C 0.44799(15) 0.5749(5) 0.50534(15)
H22_4 H 0.4693 0.5180 0.5276
H23_2 H 0.4292 0.4976 0.4869
C27_4 C 0.41323(17) 0.6095(6) 0.54511(18)
C28_3 C 0.41233(19) 0.4476(6) 0.55169(18)
H24_3 H 0.4225 0.3759 0.5393
C29_3 C 0.3962(2) 0.3927(7) 0.5769(2)
H25_3 H 0.3945 0.2837 0.5804
C30_4 C 0.3824(2) 0.5004(6) 0.5971(2)
C31_4 C 0.3828(3) 0.6579(8) 0.5902(3)
H26_4 H 0.3723 0.7290 0.6024
C32_4 C 0.3989(2) 0.7156(6) 0.5646(2)
H27_4 H 0.3999 0.8247 0.5607
C33_3 C 0.3662(2) 0.4367(7) 0.6254(2)
H28_3 H 0.8763 0.7099 0.7277
H29_3 H 0.8393 0.7283 0.6947
H30_3 H 0.3790 0.1967 0.6214
O1_4 O 0.09234(9) 0.3030(4) 0.52214(11)
O4_4 O 0.26270(12) 0.6237(5) 0.63257(14)
O5_4 O 0.27862(10) 0.3680(5) 0.64470(11)
O10_4 O 0.36066(13) 0.2790(5) 0.71049(13)
C1_3 C 0.00161(15) 0.3463(5) 0.44336(15)
C5_4 C 0.00302(13) 0.2462(5) 0.50574(13)
C6_3 C 0.02061(13) 0.3378(5) 0.48485(14)
C7_3 C 0.0226(2) 0.4232(7) 0.4205(2)
H1_3 H 0.0050 0.4195 0.3919
H2_3 H 0.0290 0.5321 0.4290
H3_3 H 0.0472 0.3664 0.4263
C9_4 C 0.02452(16) 0.2304(6) 0.55139(14)
H7_4 H 0.0497 0.2870 0.5618
H8_4 H 0.0079 0.2743 0.5627
H9_4 H 0.0296 0.1199 0.5586
C10_4 C 0.06014(13) 0.4231(6) 0.50913(17)
H10_4 H 0.0599 0.4747 0.5325
H11_3 H 0.0644 0.5037 0.4926
C11_4 C 0.13061(14) 0.3562(6) 0.54721(14)
C12_4 C 0.15991(16) 0.2371(6) 0.56288(17)
H12_4 H 0.1529 0.1309 0.5563
C13_4 C 0.19953(17) 0.2791(6) 0.58839(17)
H13_4 H 0.2193 0.2004 0.5985
C14_4 C 0.21007(15) 0.4360(6) 0.59905(16)
C15_4 C 0.18069(17) 0.5530(6) 0.58166(17)
H14_4 H 0.1879 0.6594 0.5878
C16_4 C 0.14167(17) 0.5154(6) 0.55589(18)
H15_4 H 0.1225 0.5955 0.5442
C17_4 C 0.25348(17) 0.4851(6) 0.62749(17)
H28_4 H 0.3763 0.2099 0.7277
H29_4 H 0.3393 0.2283 0.6947
O9_4 O 0.8636(2) 0.7817(4) 0.6277(2)
H23_3 H 0.9292 0.9976 0.4869
C28_4 C 0.91233(19) 0.9476(6) 0.55169(18)
H24_4 H 0.9225 0.8759 0.5393
C29_4 C 0.8962(2) 0.8927(7) 0.5769(2)
H25_4 H 0.8945 0.7837 0.5804
C33_4 C 0.8662(2) 0.9367(7) 0.6254(2)
H30_4 H 0.8790 0.6967 0.6214
Zn1_2 Zn 0.169254(17) 0.03267(7) 0.322983(16)
O1_5 O 0.40766(9) 0.1970(4) 0.47786(11)
O2_5 O 0.58638(13) 0.0465(4) 0.62169(10)
O3_5 O 0.57270(11) 0.3209(4) 0.47952(11)
O5_5 O 0.22138(10) 0.1320(5) 0.35530(11)
O8_3 O 0.64448(13) 0.4597(5) 0.35730(13)
O9_5 O 0.6364(2) 0.7183(4) 0.3723(2)
O10_5 O 0.13934(13) 0.2210(5) 0.28951(13)
C1_4 C 0.49839(15) 0.1537(5) 0.55664(15)
C2_5 C 0.53704(14) 0.2197(5) 0.57809(13)
C3_5 C 0.55550(13) 0.3055(5) 0.55836(13)
C4_5 C 0.53442(12) 0.3270(5) 0.51622(12)
C5_5 C 0.49698(13) 0.2538(5) 0.49426(13)
C6_4 C 0.47939(13) 0.1622(5) 0.51515(14)
C7_4 C 0.4774(2) 0.0768(7) 0.5795(2)
H1_4 H 0.4950 0.0805 0.6081
H3_4 H 0.4528 0.1336 0.5737
C8_5 C 0.59797(16) 0.3698(6) 0.58151(17)
H4_5 H 0.6080 0.3453 0.6098
H5_5 H 0.5977 0.4832 0.5780
H6_5 H 0.6152 0.3217 0.5714
C9_5 C 0.47548(16) 0.2696(6) 0.44861(14)
H7_5 H 0.4503 0.2130 0.4382
H8_5 H 0.4921 0.2257 0.4373
H9_5 H 0.4704 0.3801 0.4414
C10_5 C 0.43986(13) 0.0769(6) 0.49087(17)
H10_5 H 0.4401 0.0253 0.4675
C11_5 C 0.36939(14) 0.1438(6) 0.45279(14)
C12_5 C 0.34009(16) 0.2629(6) 0.43712(17)
H12_5 H 0.3471 0.3691 0.4437
C13_5 C 0.30047(17) 0.2209(6) 0.41161(17)
H13_5 H 0.2807 0.2996 0.4015
C14_5 C 0.28993(15) 0.0640(6) 0.40095(16)
C17_5 C 0.24652(17) 0.0149(6) 0.37251(17)
C18_5 C 0.56117(19) 0.1768(7) 0.62220(14)
H16_5 H 0.5435 0.1439 0.6339
H17_5 H 0.5775 0.2661 0.6376
H21_5 H 0.5898 0.0644 0.6952
C26_5 C 0.55201(15) 0.4251(5) 0.49466(15)
H22_5 H 0.5307 0.4820 0.4724
H23_4 H 0.5708 0.5024 0.5131
C27_5 C 0.58677(17) 0.3905(6) 0.45489(18)
C28_5 C 0.58767(19) 0.5524(6) 0.44831(18)
H24_5 H 0.5775 0.6241 0.4607
C29_5 C 0.6038(2) 0.6073(7) 0.4231(2)
H25_5 H 0.6055 0.7163 0.4196
C30_5 C 0.6176(2) 0.4996(6) 0.4029(2)
C31_5 C 0.6172(3) 0.3421(8) 0.4098(3)
H26_5 H 0.6277 0.2710 0.3976
C32_5 C 0.6011(2) 0.2844(6) 0.4354(2)
H27_5 H 0.6001 0.1753 0.4393
C33_5 C 0.6338(2) 0.5633(7) 0.3746(2)
H28_5 H 0.1237 0.2901 0.2723
H29_5 H 0.1607 0.2717 0.3053
H30_5 H 0.6210 0.8033 0.3786
Zn2_2 Zn 0.669254(17) 0.53267(7) 0.322983(16)
O9_6 O 0.1364(2) 0.2183(4) 0.3723(2)
H23_5 H 0.0708 0.0024 0.5131
C28_6 C 0.08767(19) 0.0524(6) 0.44831(18)
H24_6 H 0.0775 0.1241 0.4607
C29_6 C 0.1038(2) 0.1073(7) 0.4231(2)
H25_6 H 0.1055 0.2163 0.4196
C33_6 C 0.1338(2) 0.0633(7) 0.3746(2)
H30_6 H 0.1210 0.3033 0.3786
O1_6 O 0.90766(9) 0.6970(4) 0.47786(11)
O4_5 O 0.73730(12) 0.3763(5) 0.36743(14)
O5_6 O 0.72138(10) 0.6320(5) 0.35530(11)
O10_6 O 0.63934(13) 0.7210(5) 0.28951(13)
C1_5 C 0.99839(15) 0.6537(5) 0.55664(15)
C5_6 C 0.99698(13) 0.7538(5) 0.49426(13)
C6_5 C 0.97939(13) 0.6622(5) 0.51515(14)
C7_5 C 0.9774(2) 0.5768(7) 0.5795(2)
H1_5 H 0.9950 0.5805 0.6081
H2_4 H 0.9710 0.4679 0.5710
H3_5 H 0.9528 0.6336 0.5737
C9_6 C 0.97548(16) 0.7696(6) 0.44861(14)
H7_6 H 0.9503 0.7130 0.4382
H8_6 H 0.9921 0.7257 0.4373
H9_6 H 0.9704 0.8801 0.4414
C10_6 C 0.93986(13) 0.5769(6) 0.49087(17)
H10_6 H 0.9401 0.5253 0.4675
H11_4 H 0.9356 0.4963 0.5074
C11_6 C 0.86939(14) 0.6438(6) 0.45279(14)
C12_6 C 0.84009(16) 0.7629(6) 0.43712(17)
H12_6 H 0.8471 0.8691 0.4437
C13_6 C 0.80047(17) 0.7209(6) 0.41161(17)
H13_6 H 0.7807 0.7996 0.4015
C14_6 C 0.78993(15) 0.5640(6) 0.40095(16)
C15_5 C 0.81931(17) 0.4470(6) 0.41834(17)
H14_5 H 0.8121 0.3406 0.4122
C16_5 C 0.85833(17) 0.4846(6) 0.44411(18)
H15_5 H 0.8775 0.4045 0.4558
C17_6 C 0.74652(17) 0.5149(6) 0.37251(17)
H28_6 H 0.6237 0.7901 0.2723
H29_6 H 0.6607 0.7717 0.3053
O11_3 O 0.65352(13) 0.3625(5) 0.28289(12)
O7_5 O 0.6779(4) 0.4881(12) 0.2497(3)
H2_5 H 0.4710 0.0321 0.0710
H11_5 H 0.4356 0.0037 0.0074
C19_5 C 0.60353(19) 0.0510(6) 0.15538(15)
C20_5 C 0.6241(2) 0.1826(8) 0.1507(2)
H18_5 H 0.6268 0.1970 0.1271
C21_5 C 0.6402(3) 0.2894(9) 0.1818(2)
H19_5 H 0.6524 0.3810 0.1784
C22_5 C 0.63881(19) 0.2664(9) 0.21777(19)
C23_5 C 0.6199(2) 0.1354(9) 0.22235(17)
H20_5 H 0.6187 0.1191 0.2467
C24_5 C 0.6024(2) 0.0259(8) 0.19150(18)
C25_5 C 0.6563(3) 0.3857(14) 0.2522(3)
O4_6 O 0.23730(12) 0.8763(5) 0.36743(14)
O6_3 O 0.65352(13) 0.6375(5) 0.78289(12)
O7_6 O 0.6779(4) 0.5119(12) 0.7497(3)
H2_6 H 0.4710 0.9679 0.5710
H11_6 H 0.4356 0.9963 0.5074
C15_6 C 0.31931(17) 0.9470(6) 0.41834(17)
H14_6 H 0.3121 0.8406 0.4122
C16_6 C 0.35833(17) 0.9846(6) 0.44411(18)
H15_6 H 0.3775 0.9045 0.4558
C19_6 C 0.60353(19) 0.9490(6) 0.65538(15)
C20_6 C 0.6241(2) 0.8174(8) 0.6507(2)
H18_6 H 0.6268 0.8030 0.6271
C21_6 C 0.6402(3) 0.7106(9) 0.6818(2)
H19_6 H 0.6524 0.6190 0.6784
C22_6 C 0.63881(19) 0.7336(9) 0.71777(19)
C23_6 C 0.6199(2) 0.8646(9) 0.72235(17)
H20_6 H 0.6187 0.8809 0.7467
C24_6 C 0.6024(2) 0.9741(8) 0.69150(18)
C25_6 C 0.6563(3) 0.6143(14) 0.7522(3)
Zn3_3 Zn 0.669254(17) 0.46733(7) 0.822983(16)
O11_4 O 0.15352(13) 0.8625(5) 0.28289(12)
O12_3 O 0.14448(13) 0.9597(5) 0.35730(13)
O2_6 O 0.08638(13) 0.5465(4) 0.62169(10)
O3_6 O 0.07270(11) 0.8209(4) 0.47952(11)
O6_4 O 0.15352(13) 0.1375(5) 0.78289(12)
O7_7 O 0.1779(4) 0.0119(12) 0.7497(3)
C2_6 C 0.03704(14) 0.7197(5) 0.57809(13)
C3_6 C 0.05550(13) 0.8055(5) 0.55836(13)
C4_6 C 0.03442(12) 0.8270(5) 0.51622(12)
C8_6 C 0.09797(16) 0.8698(6) 0.58151(17)
H4_6 H 0.1080 0.8453 0.6098
H5_6 H 0.0977 0.9832 0.5780
H6_6 H 0.1152 0.8217 0.5714
C18_6 C 0.06117(19) 0.6768(7) 0.62220(14)
H16_6 H 0.0435 0.6439 0.6339
H17_6 H 0.0775 0.7661 0.6376
C19_7 C 0.10353(19) 0.4490(6) 0.65538(15)
C20_7 C 0.1241(2) 0.3174(8) 0.6507(2)
H18_7 H 0.1268 0.3030 0.6271
C21_7 C 0.1402(3) 0.2106(9) 0.6818(2)
H19_7 H 0.1524 0.1190 0.6784
C22_7 C 0.13881(19) 0.2336(9) 0.71777(19)
C23_7 C 0.1199(2) 0.3646(9) 0.72235(17)
H20_7 H 0.1187 0.3809 0.7467
C24_7 C 0.1024(2) 0.4741(8) 0.69150(18)
H21_6 H 0.0898 0.5644 0.6952
C25_7 C 0.1563(3) 0.1143(14) 0.7522(3)
C26_6 C 0.05201(15) 0.9251(5) 0.49466(15)
H22_6 H 0.0307 0.9820 0.4724
C27_6 C 0.08677(17) 0.8905(6) 0.45489(18)
C30_6 C 0.1176(2) 0.9996(6) 0.4029(2)
C31_6 C 0.1172(3) 0.8421(8) 0.4098(3)
H26_6 H 0.1277 0.7710 0.3976
C32_6 C 0.1011(2) 0.7844(6) 0.4354(2)
H27_6 H 0.1001 0.6753 0.4393
Zn3_4 Zn 0.169254(17) 0.96733(7) 0.822983(16)
O4_7 O 0.23730(12) 0.1237(5) 0.86743(14)
C15_7 C 0.31931(17) 0.0530(6) 0.91834(17)
H14_7 H 0.3121 0.1594 0.9122
C16_7 C 0.35833(17) 0.0154(6) 0.94411(18)
H15_7 H 0.3775 0.0955 0.9558
O12_4 O 0.14448(13) 0.0403(5) 0.85730(13)
O1_7 O 0.40766(9) 0.8030(4) 0.97786(11)
O3_7 O 0.57270(11) 0.6791(4) 0.97952(11)
O5_7 O 0.22138(10) 0.8680(5) 0.85530(11)
O8_4 O 0.64448(13) 0.5403(5) 0.85730(13)
O9_7 O 0.6364(2) 0.2817(4) 0.8723(2)
O10_7 O 0.13934(13) 0.7790(5) 0.78951(13)
C5_7 C 0.49698(13) 0.7462(5) 0.99426(13)
C9_7 C 0.47548(16) 0.7304(6) 0.94861(14)
H7_7 H 0.4503 0.7870 0.9382
H8_7 H 0.4921 0.7743 0.9373
H9_7 H 0.4704 0.6199 0.9414
C10_7 C 0.43986(13) 0.9231(6) 0.99087(17)
H10_7 H 0.4401 0.9747 0.9675
C11_7 C 0.36939(14) 0.8562(6) 0.95279(14)
C12_7 C 0.34009(16) 0.7371(6) 0.93712(17)
H12_7 H 0.3471 0.6309 0.9437
C13_7 C 0.30047(17) 0.7791(6) 0.91161(17)
H13_7 H 0.2807 0.7004 0.9015
C14_7 C 0.28993(15) 0.9360(6) 0.90095(16)
C17_7 C 0.24652(17) 0.9851(6) 0.87251(17)
C26_7 C 0.55201(15) 0.5749(5) 0.99466(15)
H22_7 H 0.5307 0.5180 0.9724
C27_7 C 0.58677(17) 0.6095(6) 0.95489(18)
C28_7 C 0.58767(19) 0.4476(6) 0.94831(18)
H24_7 H 0.5775 0.3759 0.9607
C29_7 C 0.6038(2) 0.3927(7) 0.9231(2)
H25_7 H 0.6055 0.2837 0.9196
C30_7 C 0.6176(2) 0.5004(6) 0.9029(2)
C31_7 C 0.6172(3) 0.6579(8) 0.9098(3)
H26_7 H 0.6277 0.7290 0.8976
C32_7 C 0.6011(2) 0.7156(6) 0.9354(2)
H27_7 H 0.6001 0.8247 0.9393
C33_7 C 0.6338(2) 0.4367(7) 0.8746(2)
H28_7 H 0.1237 0.7099 0.7723
H29_7 H 0.1607 0.7283 0.8053
H30_7 H 0.6210 0.1967 0.8786
O2_7 O 0.08638(13) 0.4535(4) 0.12169(10)
O7_8 O 0.1779(4) 0.9881(12) 0.2497(3)
C2_7 C 0.03704(14) 0.2803(5) 0.07809(13)
C3_7 C 0.05550(13) 0.1945(5) 0.05836(13)
C4_7 C 0.03442(12) 0.1730(5) 0.01622(12)
C8_7 C 0.09797(16) 0.1302(6) 0.08151(17)
H4_7 H 0.1080 0.1547 0.1098
H5_7 H 0.0977 0.0168 0.0780
H6_7 H 0.1152 0.1783 0.0714
C18_7 C 0.06117(19) 0.3232(7) 0.12220(14)
H16_7 H 0.0435 0.3561 0.1339
H17_7 H 0.0775 0.2339 0.1376
C19_8 C 0.10353(19) 0.5510(6) 0.15538(15)
C20_8 C 0.1241(2) 0.6826(8) 0.1507(2)
H18_8 H 0.1268 0.6970 0.1271
C21_8 C 0.1402(3) 0.7894(9) 0.1818(2)
H19_8 H 0.1524 0.8810 0.1784
C22_8 C 0.13881(19) 0.7664(9) 0.21777(19)
C23_8 C 0.1199(2) 0.6354(9) 0.22235(17)
H20_8 H 0.1187 0.6191 0.2467
C24_8 C 0.1024(2) 0.5259(8) 0.19150(18)
H21_7 H 0.0898 0.4356 0.1952
C25_8 C 0.1563(3) 0.8857(14) 0.2522(3)
O3_8 O 0.07270(11) 0.1791(4) 0.97952(11)
C26_8 C 0.05201(15) 0.0749(5) 0.99466(15)
H22_8 H 0.0307 0.0180 0.9724
C27_8 C 0.08677(17) 0.1095(6) 0.95489(18)
C30_8 C 0.1176(2) 0.0004(6) 0.9029(2)
C31_8 C 0.1172(3) 0.1579(8) 0.9098(3)
H26_8 H 0.1277 0.2290 0.8976
C32_8 C 0.1011(2) 0.2156(6) 0.9354(2)
H27_8 H 0.1001 0.3247 0.9393
O9_8 O 0.1364(2) 0.7817(4) 0.8723(2)
C28_8 C 0.08767(19) 0.9476(6) 0.94831(18)
H24_8 H 0.0775 0.8759 0.9607
C29_8 C 0.1038(2) 0.8927(7) 0.9231(2)
H25_8 H 0.1055 0.7837 0.9196
C33_8 C 0.1338(2) 0.9367(7) 0.8746(2)
H30_8 H 0.1210 0.6967 0.8786
O1_8 O 0.90766(9) 0.3030(4) 0.97786(11)
O4_8 O 0.73730(12) 0.6237(5) 0.86743(14)
O5_8 O 0.72138(10) 0.3680(5) 0.85530(11)
O10_8 O 0.63934(13) 0.2790(5) 0.78951(13)
C5_8 C 0.99698(13) 0.2462(5) 0.99426(13)
C9_8 C 0.97548(16) 0.2304(6) 0.94861(14)
H7_8 H 0.9503 0.2870 0.9382
H8_8 H 0.9921 0.2743 0.9373
H9_8 H 0.9704 0.1199 0.9414
C10_8 C 0.93986(13) 0.4231(6) 0.99087(17)
H10_8 H 0.9401 0.4747 0.9675
C11_8 C 0.86939(14) 0.3562(6) 0.95279(14)
C12_8 C 0.84009(16) 0.2371(6) 0.93712(17)
H12_8 H 0.8471 0.1309 0.9437
C13_8 C 0.80047(17) 0.2791(6) 0.91161(17)
H13_8 H 0.7807 0.2004 0.9015
C14_8 C 0.78993(15) 0.4360(6) 0.90095(16)
C15_8 C 0.81931(17) 0.5530(6) 0.91834(17)
H14_8 H 0.8121 0.6594 0.9122
C16_8 C 0.85833(17) 0.5154(6) 0.94411(18)
H15_8 H 0.8775 0.5955 0.9558
C17_8 C 0.74652(17) 0.4851(6) 0.87251(17)
H28_8 H 0.6237 0.2099 0.7723
H29_8 H 0.6607 0.2283 0.8053
C1_6 C 0.00161(15) 0.6537(5) 0.94336(15)
C6_6 C 0.02061(13) 0.6622(5) 0.98485(14)
C7_6 C 0.0226(2) 0.5768(7) 0.9205(2)
H1_6 H 0.0050 0.5805 0.8919
H2_7 H 0.0290 0.4679 0.9290
H3_6 H 0.0472 0.6336 0.9263
H11_7 H 0.0644 0.4963 0.9926
H23_6 H 0.9292 0.0024 0.9869
O2_8 O 0.58638(13) 0.9535(4) 0.12169(10)
C1_7 C 0.49839(15) 0.8463(5) 0.05664(15)
C2_8 C 0.53704(14) 0.7803(5) 0.07809(13)
C3_8 C 0.55550(13) 0.6945(5) 0.05836(13)
C4_8 C 0.53442(12) 0.6730(5) 0.01622(12)
C6_7 C 0.47939(13) 0.8378(5) 0.01515(14)
C7_7 C 0.4774(2) 0.9232(7) 0.0795(2)
H1_7 H 0.4950 0.9195 0.1081
H3_7 H 0.4528 0.8664 0.0737
C8_8 C 0.59797(16) 0.6302(6) 0.08151(17)
H4_8 H 0.6080 0.6547 0.1098
H5_8 H 0.5977 0.5168 0.0780
H6_8 H 0.6152 0.6783 0.0714
C18_8 C 0.56117(19) 0.8232(7) 0.12220(14)
H16_8 H 0.5435 0.8561 0.1339
H17_8 H 0.5775 0.7339 0.1376
H21_8 H 0.5898 0.9356 0.1952
H23_7 H 0.5708 0.4976 0.0131
H23_8 H 0.0708 0.9976 0.0131
C1_8 C 0.99839(15) 0.3463(5) 0.05664(15)
C6_8 C 0.97939(13) 0.3378(5) 0.01515(14)
C7_8 C 0.9774(2) 0.4232(7) 0.0795(2)
H1_8 H 0.9950 0.4195 0.1081
H2_8 H 0.9710 0.5321 0.0710
H3_8 H 0.9528 0.3664 0.0737
H11_8 H 0.9356 0.5037 0.0074
loop_
_geom_bond_atom_site_label_1
_geom_bond_atom_site_label_2
_geom_bond_site_symmetry_1
_geom_bond_site_symmetry_2
Zn1 O5 1_555 1_555
O1 C10 1_555 1_555
O3 C26 1_555 1_555
O5 C17 1_555 1_555
O8 C33 1_555 1_555
O9 C33 1_555 1_555
O10 Zn1 1_555 1_555
C9 C5 1_555 1_555
H7 C9 1_555 1_555
H8 C9 1_555 1_555
H9 C9 1_555 1_555
H10 C10 1_555 1_555
C11 O1 1_555 1_555
C12 C11 1_555 1_555
H12 C12 1_555 1_555
C13 C12 1_555 1_555
H13 C13 1_555 1_555
C14 C13 1_555 1_555
C17 C14 1_555 1_555
H22 C26 1_555 1_555
C27 O3 1_555 1_555
C28 C27 1_555 1_555
H24 C28 1_555 1_555
C29 C28 1_555 1_555
H25 C29 1_555 1_555
C30 C29 1_555 1_555
C31 C30 1_555 1_555
H26 C31 1_555 1_555
C32 C27 1_555 1_555
H27 C32 1_555 1_555
C33 C30 1_555 1_555
H28 O10 1_555 1_555
H29 O10 1_555 1_555
H30 O9 1_555 1_555
Zn2 O8 1_555 1_555
C31 C32 1_555 1_555
H14 C15 1_555 1_555
H15 C16 1_555 1_555
C15 C16 1_555 1_555
Zn2 O5_2 1_555 1_555
O1_2 C10_2 1_555 1_555
O4_2 C17_2 1_555 1_555
O5_2 C17_2 1_555 1_555
O10_2 Zn2 1_555 1_555
C9_2 C5_2 1_555 1_555
H7_2 C9_2 1_555 1_555
H8_2 C9_2 1_555 1_555
H9_2 C9_2 1_555 1_555
H10_2 C10_2 1_555 1_555
C11_2 O1_2 1_555 1_555
C12_2 C11_2 1_555 1_555
H12_2 C12_2 1_555 1_555
C13_2 C12_2 1_555 1_555
H13_2 C13_2 1_555 1_555
C14_2 C13_2 1_555 1_555
C15_2 C14_2 1_555 1_555
H14_2 C15_2 1_555 1_555
C16_2 C11_2 1_555 1_555
H15_2 C16_2 1_555 1_555
C17_2 C14_2 1_555 1_555
H28_2 O10_2 1_555 1_555
H29_2 O10_2 1_555 1_555
O11_2 Zn2 1_555 1_555
C15_2 C16_2 1_555 1_555
O9_2 C33_2 1_555 1_555
H24_2 C28_2 1_555 1_555
C29_2 C28_2 1_555 1_555
H25_2 C29_2 1_555 1_555
H30_2 O9_2 1_555 1_555
O3_2 C26_2 1_555 1_555
H22_2 C26_2 1_555 1_555
C27_2 O3_2 1_555 1_555
C31_2 C30_2 1_555 1_555
H26_2 C31_2 1_555 1_555
C32_2 C27_2 1_555 1_555
H27_2 C32_2 1_555 1_555
C31_2 C32_2 1_555 1_555
O2 C18 1_555 1_555
O6 C25 1_555 1_555
O7 C25 1_555 1_555
C2 C3 1_555 1_555
C3 C4 1_555 1_555
C8 C3 1_555 1_555
H4 C8 1_555 1_555
H5 C8 1_555 1_555
H6 C8 1_555 1_555
C18 C2 1_555 1_555
H16 C18 1_555 1_555
H17 C18 1_555 1_555
C19 O2 1_555 1_555
C20 C19 1_555 1_555
H18 C20 1_555 1_555
C21 C20 1_555 1_555
H19 C21 1_555 1_555
C22 C21 1_555 1_555
C23 C22 1_555 1_555
H20 C23 1_555 1_555
C24 C19 1_555 1_555
H21 C24 1_555 1_555
C25 C22 1_555 1_555
C23 C24 1_555 1_555
O11_2 C25_2 1_555 1_555
O7_2 C25_2 1_555 1_555
H14_3 C15_3 1_555 1_555
H15_3 C16_3 1_555 1_555
C20_2 C19_2 1_555 1_555
H18_2 C20_2 1_555 1_555
C21_2 C20_2 1_555 1_555
H19_2 C21_2 1_555 1_555
C22_2 C21_2 1_555 1_555
C23_2 C22_2 1_555 1_555
H20_2 C23_2 1_555 1_555
C24_2 C19_2 1_555 1_555
C25_2 C22_2 1_555 1_555
C15_3 C16_3 1_555 1_555
C23_2 C24_2 1_555 1_555
O2_2 C18_2 1_555 1_555
O3_3 C26_3 1_555 1_555
O11 C25_3 1_555 1_555
O7_3 C25_3 1_555 1_555
C2_2 C3_2 1_555 1_555
C3_2 C4_2 1_555 1_555
C8_2 C3_2 1_555 1_555
H4_2 C8_2 1_555 1_555
H5_2 C8_2 1_555 1_555
H6_2 C8_2 1_555 1_555
C18_2 C2_2 1_555 1_555
H16_2 C18_2 1_555 1_555
H17_2 C18_2 1_555 1_555
C19_3 O2_2 1_555 1_555
C20_3 C19_3 1_555 1_555
H18_3 C20_3 1_555 1_555
C21_3 C20_3 1_555 1_555
H19_3 C21_3 1_555 1_555
C22_3 C21_3 1_555 1_555
C23_3 C22_3 1_555 1_555
H20_3 C23_3 1_555 1_555
C24_3 C19_3 1_555 1_555
H21_2 C24_3 1_555 1_555
C25_3 C22_3 1_555 1_555
C26_3 C4_2 1_555 1_555
H22_3 C26_3 1_555 1_555
C27_3 O3_3 1_555 1_555
C31_3 C30_3 1_555 1_555
H26_3 C31_3 1_555 1_555
C32_3 C27_3 1_555 1_555
H27_3 C32_3 1_555 1_555
C23_3 C24_3 1_555 1_555
C31_3 C32_3 1_555 1_555
O2_3 C18_3 1_555 1_555
C1 C2_3 1_555 1_555
C2_3 C3_3 1_555 1_555
C3_3 C4_3 1_555 1_555
C6 C1 1_555 1_555
C7 C1 1_555 1_555
H1 C7 1_555 1_555
H3 C7 1_555 1_555
C8_3 C3_3 1_555 1_555
H4_3 C8_3 1_555 1_555
H5_3 C8_3 1_555 1_555
H6_3 C8_3 1_555 1_555
C18_3 C2_3 1_555 1_555
H16_3 C18_3 1_555 1_555
H17_3 C18_3 1_555 1_555
O6_2 C25_4 1_555 1_555
O7_4 C25_4 1_555 1_555
C20_4 C19_4 1_555 1_555
H18_4 C20_4 1_555 1_555
C21_4 C20_4 1_555 1_555
H19_4 C21_4 1_555 1_555
C22_4 C21_4 1_555 1_555
C23_4 C22_4 1_555 1_555
H20_4 C23_4 1_555 1_555
C24_4 C19_4 1_555 1_555
C25_4 C22_4 1_555 1_555
Zn3 O6_2 1_555 1_555
C23_4 C24_4 1_555 1_555
Zn3_2 O5_3 1_555 1_555
O1_3 C10_3 1_555 1_555
O2_4 C18_4 1_555 1_555
O3_4 C26_4 1_555 1_555
O5_3 C17_3 1_555 1_555
O8_2 C33_3 1_555 1_555
O9_3 C33_3 1_555 1_555
O10_3 Zn3_2 1_555 1_555
C1_2 C2_4 1_555 1_555
C2_4 C3_4 1_555 1_555
C3_4 C4_4 1_555 1_555
C4_4 C5_3 1_555 1_555
C5_3 C6_2 1_555 1_555
C6_2 C1_2 1_555 1_555
C7_2 C1_2 1_555 1_555
H1_2 C7_2 1_555 1_555
H3_2 C7_2 1_555 1_555
C8_4 C3_4 1_555 1_555
H4_4 C8_4 1_555 1_555
H5_4 C8_4 1_555 1_555
H6_4 C8_4 1_555 1_555
C9_3 C5_3 1_555 1_555
H7_3 C9_3 1_555 1_555
H8_3 C9_3 1_555 1_555
H9_3 C9_3 1_555 1_555
C10_3 C6_2 1_555 1_555
H10_3 C10_3 1_555 1_555
C11_3 O1_3 1_555 1_555
C12_3 C11_3 1_555 1_555
H12_3 C12_3 1_555 1_555
C13_3 C12_3 1_555 1_555
H13_3 C13_3 1_555 1_555
C14_3 C13_3 1_555 1_555
C17_3 C14_3 1_555 1_555
C18_4 C2_4 1_555 1_555
H16_4 C18_4 1_555 1_555
H17_4 C18_4 1_555 1_555
C26_4 C4_4 1_555 1_555
H22_4 C26_4 1_555 1_555
H23_2 C26_4 1_555 1_555
C27_4 O3_4 1_555 1_555
C28_3 C27_4 1_555 1_555
H24_3 C28_3 1_555 1_555
C29_3 C28_3 1_555 1_555
H25_3 C29_3 1_555 1_555
C30_4 C29_3 1_555 1_555
C31_4 C30_4 1_555 1_555
H26_4 C31_4 1_555 1_555
C32_4 C27_4 1_555 1_555
H27_4 C32_4 1_555 1_555
C33_3 C30_4 1_555 1_555
H28_3 O10_3 1_555 1_555
H29_3 O10_3 1_555 1_555
H30_3 O9_3 1_555 1_555
Zn3 O8_2 1_555 1_555
C31_4 C32_4 1_555 1_555
Zn3 O5_4 1_555 1_555
O1_4 C10_4 1_555 1_555
O4_4 C17_4 1_555 1_555
O5_4 C17_4 1_555 1_555
O10_4 Zn3 1_555 1_555
C5_4 C6_3 1_555 1_555
C6_3 C1_3 1_555 1_555
C7_3 C1_3 1_555 1_555
H1_3 C7_3 1_555 1_555
H2_3 C7_3 1_555 1_555
H3_3 C7_3 1_555 1_555
C9_4 C5_4 1_555 1_555
H7_4 C9_4 1_555 1_555
H8_4 C9_4 1_555 1_555
H9_4 C9_4 1_555 1_555
C10_4 C6_3 1_555 1_555
H10_4 C10_4 1_555 1_555
H11_3 C10_4 1_555 1_555
C11_4 O1_4 1_555 1_555
C12_4 C11_4 1_555 1_555
H12_4 C12_4 1_555 1_555
C13_4 C12_4 1_555 1_555
H13_4 C13_4 1_555 1_555
C14_4 C13_4 1_555 1_555
C15_4 C14_4 1_555 1_555
H14_4 C15_4 1_555 1_555
C16_4 C11_4 1_555 1_555
H15_4 C16_4 1_555 1_555
C17_4 C14_4 1_555 1_555
H28_4 O10_4 1_555 1_555
H29_4 O10_4 1_555 1_555
C15_4 C16_4 1_555 1_555
O9_4 C33_4 1_555 1_555
H24_4 C28_4 1_555 1_555
C29_4 C28_4 1_555 1_555
H25_4 C29_4 1_555 1_555
H30_4 O9_4 1_555 1_555
Zn1_2 O5_5 1_555 1_555
O1_5 C10_5 1_555 1_555
O2_5 C18_5 1_555 1_555
O3_5 C26_5 1_555 1_555
O5_5 C17_5 1_555 1_555
O8_3 C33_5 1_555 1_555
O9_5 C33_5 1_555 1_555
O10_5 Zn1_2 1_555 1_555
C1_4 C2_5 1_555 1_555
C2_5 C3_5 1_555 1_555
C3_5 C4_5 1_555 1_555
C4_5 C5_5 1_555 1_555
C5_5 C6_4 1_555 1_555
C6_4 C1_4 1_555 1_555
C7_4 C1_4 1_555 1_555
H1_4 C7_4 1_555 1_555
H3_4 C7_4 1_555 1_555
C8_5 C3_5 1_555 1_555
H4_5 C8_5 1_555 1_555
H5_5 C8_5 1_555 1_555
H6_5 C8_5 1_555 1_555
C9_5 C5_5 1_555 1_555
H7_5 C9_5 1_555 1_555
H8_5 C9_5 1_555 1_555
H9_5 C9_5 1_555 1_555
C10_5 C6_4 1_555 1_555
H10_5 C10_5 1_555 1_555
C11_5 O1_5 1_555 1_555
C12_5 C11_5 1_555 1_555
H12_5 C12_5 1_555 1_555
C13_5 C12_5 1_555 1_555
H13_5 C13_5 1_555 1_555
C14_5 C13_5 1_555 1_555
C17_5 C14_5 1_555 1_555
C18_5 C2_5 1_555 1_555
H16_5 C18_5 1_555 1_555
H17_5 C18_5 1_555 1_555
C26_5 C4_5 1_555 1_555
H22_5 C26_5 1_555 1_555
H23_4 C26_5 1_555 1_555
C27_5 O3_5 1_555 1_555
C28_5 C27_5 1_555 1_555
H24_5 C28_5 1_555 1_555
C29_5 C28_5 1_555 1_555
H25_5 C29_5 1_555 1_555
C30_5 C29_5 1_555 1_555
C31_5 C30_5 1_555 1_555
H26_5 C31_5 1_555 1_555
C32_5 C27_5 1_555 1_555
H27_5 C32_5 1_555 1_555
C33_5 C30_5 1_555 1_555
H28_5 O10_5 1_555 1_555
H29_5 O10_5 1_555 1_555
H30_5 O9_5 1_555 1_555
Zn2_2 O8_3 1_555 1_555
C31_5 C32_5 1_555 1_555
O9_6 C33_6 1_555 1_555
H24_6 C28_6 1_555 1_555
C29_6 C28_6 1_555 1_555
H25_6 C29_6 1_555 1_555
H30_6 O9_6 1_555 1_555
Zn2_2 O5_6 1_555 1_555
O1_6 C10_6 1_555 1_555
O4_5 C17_6 1_555 1_555
O5_6 C17_6 1_555 1_555
O10_6 Zn2_2 1_555 1_555
C5_6 C6_5 1_555 1_555
C6_5 C1_5 1_555 1_555
C7_5 C1_5 1_555 1_555
H1_5 C7_5 1_555 1_555
H2_4 C7_5 1_555 1_555
H3_5 C7_5 1_555 1_555
C9_6 C5_6 1_555 1_555
H7_6 C9_6 1_555 1_555
H8_6 C9_6 1_555 1_555
H9_6 C9_6 1_555 1_555
C10_6 C6_5 1_555 1_555
H10_6 C10_6 1_555 1_555
H11_4 C10_6 1_555 1_555
C11_6 O1_6 1_555 1_555
C12_6 C11_6 1_555 1_555
H12_6 C12_6 1_555 1_555
C13_6 C12_6 1_555 1_555
H13_6 C13_6 1_555 1_555
C14_6 C13_6 1_555 1_555
C15_5 C14_6 1_555 1_555
H14_5 C15_5 1_555 1_555
C16_5 C11_6 1_555 1_555
H15_5 C16_5 1_555 1_555
C17_6 C14_6 1_555 1_555
H28_6 O10_6 1_555 1_555
H29_6 O10_6 1_555 1_555
O11_3 Zn2_2 1_555 1_555
C15_5 C16_5 1_555 1_555
O11_3 C25_5 1_555 1_555
O7_5 C25_5 1_555 1_555
C20_5 C19_5 1_555 1_555
H18_5 C20_5 1_555 1_555
C21_5 C20_5 1_555 1_555
H19_5 C21_5 1_555 1_555
C22_5 C21_5 1_555 1_555
C23_5 C22_5 1_555 1_555
H20_5 C23_5 1_555 1_555
C24_5 C19_5 1_555 1_555
C25_5 C22_5 1_555 1_555
C23_5 C24_5 1_555 1_555
O6_3 C25_6 1_555 1_555
O7_6 C25_6 1_555 1_555
H14_6 C15_6 1_555 1_555
H15_6 C16_6 1_555 1_555
C20_6 C19_6 1_555 1_555
H18_6 C20_6 1_555 1_555
C21_6 C20_6 1_555 1_555
H19_6 C21_6 1_555 1_555
C22_6 C21_6 1_555 1_555
C23_6 C22_6 1_555 1_555
H20_6 C23_6 1_555 1_555
C24_6 C19_6 1_555 1_555
C25_6 C22_6 1_555 1_555
Zn3_3 O6_3 1_555 1_555
C15_6 C16_6 1_555 1_555
C23_6 C24_6 1_555 1_555
O2_6 C18_6 1_555 1_555
O3_6 C26_6 1_555 1_555
O6_4 C25_7 1_555 1_555
O7_7 C25_7 1_555 1_555
C2_6 C3_6 1_555 1_555
C3_6 C4_6 1_555 1_555
C8_6 C3_6 1_555 1_555
H4_6 C8_6 1_555 1_555
H5_6 C8_6 1_555 1_555
H6_6 C8_6 1_555 1_555
C18_6 C2_6 1_555 1_555
H16_6 C18_6 1_555 1_555
H17_6 C18_6 1_555 1_555
C19_7 O2_6 1_555 1_555
C20_7 C19_7 1_555 1_555
H18_7 C20_7 1_555 1_555
C21_7 C20_7 1_555 1_555
H19_7 C21_7 1_555 1_555
C22_7 C21_7 1_555 1_555
C23_7 C22_7 1_555 1_555
H20_7 C23_7 1_555 1_555
C24_7 C19_7 1_555 1_555
H21_6 C24_7 1_555 1_555
C25_7 C22_7 1_555 1_555
C26_6 C4_6 1_555 1_555
H22_6 C26_6 1_555 1_555
C27_6 O3_6 1_555 1_555
C31_6 C30_6 1_555 1_555
H26_6 C31_6 1_555 1_555
C32_6 C27_6 1_555 1_555
H27_6 C32_6 1_555 1_555
C23_7 C24_7 1_555 1_555
C31_6 C32_6 1_555 1_555
H14_7 C15_7 1_555 1_555
H15_7 C16_7 1_555 1_555
C15_7 C16_7 1_555 1_555
Zn3_4 O5_7 1_555 1_555
O1_7 C10_7 1_555 1_555
O3_7 C26_7 1_555 1_555
O5_7 C17_7 1_555 1_555
O8_4 C33_7 1_555 1_555
O9_7 C33_7 1_555 1_555
O10_7 Zn3_4 1_555 1_555
C9_7 C5_7 1_555 1_555
H7_7 C9_7 1_555 1_555
H8_7 C9_7 1_555 1_555
H9_7 C9_7 1_555 1_555
H10_7 C10_7 1_555 1_555
C11_7 O1_7 1_555 1_555
C12_7 C11_7 1_555 1_555
H12_7 C12_7 1_555 1_555
C13_7 C12_7 1_555 1_555
H13_7 C13_7 1_555 1_555
C14_7 C13_7 1_555 1_555
C17_7 C14_7 1_555 1_555
H22_7 C26_7 1_555 1_555
C27_7 O3_7 1_555 1_555
C28_7 C27_7 1_555 1_555
H24_7 C28_7 1_555 1_555
C29_7 C28_7 1_555 1_555
H25_7 C29_7 1_555 1_555
C30_7 C29_7 1_555 1_555
C31_7 C30_7 1_555 1_555
H26_7 C31_7 1_555 1_555
C32_7 C27_7 1_555 1_555
H27_7 C32_7 1_555 1_555
C33_7 C30_7 1_555 1_555
H28_7 O10_7 1_555 1_555
H29_7 O10_7 1_555 1_555
H30_7 O9_7 1_555 1_555
Zn3_3 O8_4 1_555 1_555
C31_7 C32_7 1_555 1_555
O2_7 C18_7 1_555 1_555
O11_4 C25_8 1_555 1_555
O7_8 C25_8 1_555 1_555
C2_7 C3_7 1_555 1_555
C3_7 C4_7 1_555 1_555
C8_7 C3_7 1_555 1_555
H4_7 C8_7 1_555 1_555
H5_7 C8_7 1_555 1_555
H6_7 C8_7 1_555 1_555
C18_7 C2_7 1_555 1_555
H16_7 C18_7 1_555 1_555
H17_7 C18_7 1_555 1_555
C19_8 O2_7 1_555 1_555
C20_8 C19_8 1_555 1_555
H18_8 C20_8 1_555 1_555
C21_8 C20_8 1_555 1_555
H19_8 C21_8 1_555 1_555
C22_8 C21_8 1_555 1_555
C23_8 C22_8 1_555 1_555
H20_8 C23_8 1_555 1_555
C24_8 C19_8 1_555 1_555
H21_7 C24_8 1_555 1_555
C25_8 C22_8 1_555 1_555
C23_8 C24_8 1_555 1_555
O3_8 C26_8 1_555 1_555
H22_8 C26_8 1_555 1_555
C27_8 O3_8 1_555 1_555
C31_8 C30_8 1_555 1_555
H26_8 C31_8 1_555 1_555
C32_8 C27_8 1_555 1_555
H27_8 C32_8 1_555 1_555
C31_8 C32_8 1_555 1_555
O9_8 C33_8 1_555 1_555
H24_8 C28_8 1_555 1_555
C29_8 C28_8 1_555 1_555
H25_8 C29_8 1_555 1_555
H30_8 O9_8 1_555 1_555
Zn3_3 O5_8 1_555 1_555
O1_8 C10_8 1_555 1_555
O4_8 C17_8 1_555 1_555
O5_8 C17_8 1_555 1_555
O10_8 Zn3_3 1_555 1_555
C9_8 C5_8 1_555 1_555
H7_8 C9_8 1_555 1_555
H8_8 C9_8 1_555 1_555
H9_8 C9_8 1_555 1_555
H10_8 C10_8 1_555 1_555
C11_8 O1_8 1_555 1_555
C12_8 C11_8 1_555 1_555
H12_8 C12_8 1_555 1_555
C13_8 C12_8 1_555 1_555
H13_8 C13_8 1_555 1_555
C14_8 C13_8 1_555 1_555
C15_8 C14_8 1_555 1_555
H14_8 C15_8 1_555 1_555
C16_8 C11_8 1_555 1_555
H15_8 C16_8 1_555 1_555
C17_8 C14_8 1_555 1_555
H28_8 O10_8 1_555 1_555
H29_8 O10_8 1_555 1_555
C15_8 C16_8 1_555 1_555
C6_6 C1_6 1_555 1_555
C7_6 C1_6 1_555 1_555
H1_6 C7_6 1_555 1_555
H2_7 C7_6 1_555 1_555
H3_6 C7_6 1_555 1_555
O2_8 C18_8 1_555 1_555
C1_7 C2_8 1_555 1_555
C2_8 C3_8 1_555 1_555
C3_8 C4_8 1_555 1_555
C6_7 C1_7 1_555 1_555
C7_7 C1_7 1_555 1_555
H1_7 C7_7 1_555 1_555
H3_7 C7_7 1_555 1_555
C8_8 C3_8 1_555 1_555
H4_8 C8_8 1_555 1_555
H5_8 C8_8 1_555 1_555
H6_8 C8_8 1_555 1_555
C18_8 C2_8 1_555 1_555
H16_8 C18_8 1_555 1_555
H17_8 C18_8 1_555 1_555
C6_8 C1_8 1_555 1_555
C7_8 C1_8 1_555 1_555
H1_8 C7_8 1_555 1_555
H2_8 C7_8 1_555 1_555
H3_8 C7_8 1_555 1_555

#END
