
###############################################################################
#
# This file contains modified crystal structure data generated from the
# MOF subset of the Cambridge Structural Database (CSD) v543 
# hosted by the Cambridge Crystallographic Data Centre (CCDC).
#
# This work is licensed under the Creative Commons
# Attribution-NonCommercial-ShareAlike 4.0 International License.
# To view a copy of this license, visit
# http://creativecommons.org/licenses/by-nc-sa/4.0/
# or send a letter to
# Creative Commons, PO Box 1866, Mountain View, CA 94042, USA.
#
# CIF created using the CSD Python API on 29 September 2022
# The structure has been converted into the P1 space group
# The structure has a 3D framework
# The original CSD entry FOJPEB is in the orthorhombic crystal system
# The framework has been calculated to contain at least 10.0% void space
# The void calculation uses a probe of radius 1.32A, grid spacing 0.4
#
###############################################################################

data_FOJPEB
_chemical_formula_moiety         '(C640 H416 Cd32 N64 O160)n'
_symmetry_cell_setting           triclinic
_symmetry_space_group_name_H-M   'P 1'
_symmetry_Int_Tables_number      1
_space_group_name_Hall           'P 1'
loop_
_symmetry_equiv_pos_site_id
_symmetry_equiv_pos_as_xyz
1 x,y,z
_cell_length_a                   13.529(3)
_cell_length_b                   32.896(8)
_cell_length_c                   39.785(9)
_cell_angle_alpha                90
_cell_angle_beta                 90
_cell_angle_gamma                90
_cell_volume                     17706.3
loop_
_atom_site_label
_atom_site_type_symbol
_atom_site_fract_x
_atom_site_fract_y
_atom_site_fract_z
Cd1 Cd 0.00907(4) 0.694498(15) 0.260539(11)
N1 N 0.2349(4) 0.69912(17) 0.28652(14)
N2 N 0.0117(5) 0.66765(18) 0.20671(13)
O1 O 0.0979(4) 0.75518(15) 0.25421(12)
O2 O 0.2031(5) 0.80314(18) 0.26396(17)
O3 O 0.1763(4) 0.67984(14) 0.26554(11)
O4 O 0.3050(4) 0.61407(15) 0.27843(12)
O5 O 0.2402(4) 0.54339(15) 0.31663(12)
C1 C 0.1772(6) 0.7683(2) 0.26667(18)
C2 C 0.2419(6) 0.7407(2) 0.28755(18)
C3 C 0.3095(6) 0.7588(3) 0.3090(2)
H1 H 0.3158 0.7869 0.3090
C4 C 0.3675(7) 0.7359(3) 0.3301(3)
H2 H 0.4120 0.7482 0.3448
C5 C 0.3576(7) 0.6942(3) 0.3289(2)
H3 H 0.3969 0.6783 0.3428
C6 C 0.2918(6) 0.6756(2) 0.30788(17)
C7 C 0.2799(5) 0.6305(2) 0.30623(17)
C8 C 0.2503(5) 0.6117(2) 0.33528(18)
H4 H 0.2393 0.6282 0.3539
C9 C 0.2348(6) 0.5696(2) 0.33965(17)
C10 C 0.2104(6) 0.5537(3) 0.37355(19)
C11 C 0.2457(7) 0.5726(4) 0.4022(2)
H5 H 0.2810 0.5967 0.4003
C12 C 0.0180(6) 0.6910(2) 0.17949(18)
H6 H 0.0245 0.7190 0.1823
C13 C 0.0151(6) 0.6754(2) 0.14716(17)
H7 H 0.0218 0.6927 0.1288
C14 C 0.0022(6) 0.6340(2) 0.14215(16)
C16 C 0.0001(6) 0.6277(2) 0.20234(18)
C17 C 0.1711(10) 0.5224(5) 0.4369(2)
H10 H 0.1567 0.5126 0.4583
C18 C 0.1534(7) 0.5187(3) 0.3764(2)
H11 H 0.1288 0.5062 0.3572
C19 C 0.1329(8) 0.5023(3) 0.4083(2)
H12 H 0.0951 0.4788 0.4105
C20 C 0.2295(10) 0.5562(4) 0.4333(3)
H13 H 0.2582 0.5680 0.4521
N3 N 0.0117(5) 0.58235(18) 0.04329(13)
C21 C 0.0180(6) 0.5590(2) 0.07051(18)
H14 H 0.0245 0.5310 0.0677
C22 C 0.0151(6) 0.5746(2) 0.10284(17)
H15 H 0.0218 0.5573 0.1212
C23 C 0.0022(6) 0.6160(2) 0.10785(16)
C25 C 0.0001(6) 0.6223(2) 0.04766(18)
Cd4 Cd 0.24093(4) 0.555502(15) 0.260539(11)
O16 O 0.0098(4) 0.70661(15) 0.31663(12)
Cd2 Cd 0.00907(4) 0.555502(15) 0.989461(11)
N4 N 0.2349(4) 0.55088(17) 0.96348(14)
O6 O 0.0979(4) 0.49482(15) 0.99579(12)
O7 O 0.2031(5) 0.44686(18) 0.98604(17)
O8 O 0.1763(4) 0.57016(14) 0.98446(11)
O9 O 0.3050(4) 0.63593(15) 0.97157(12)
O10 O 0.2402(4) 0.70661(15) 0.93337(12)
C26 C 0.1772(6) 0.4817(2) 0.98333(18)
C27 C 0.2419(6) 0.5093(2) 0.96245(18)
C28 C 0.3095(6) 0.4912(3) 0.9410(2)
H18 H 0.3158 0.4631 0.9410
C29 C 0.3675(7) 0.5141(3) 0.9199(3)
H19 H 0.4120 0.5018 0.9052
C30 C 0.3576(7) 0.5558(3) 0.9211(2)
H20 H 0.3969 0.5717 0.9072
C31 C 0.2918(6) 0.5744(2) 0.94212(17)
C32 C 0.2799(5) 0.6195(2) 0.94377(17)
C33 C 0.2503(5) 0.6383(2) 0.91472(18)
H21 H 0.2393 0.6218 0.8961
C34 C 0.2348(6) 0.6804(2) 0.91035(17)
C35 C 0.2104(6) 0.6963(3) 0.87645(19)
C36 C 0.2457(7) 0.6774(4) 0.8478(2)
H22 H 0.2810 0.6533 0.8497
C37 C 0.1711(10) 0.7276(5) 0.8131(2)
H23 H 0.1567 0.7374 0.7917
C38 C 0.1534(7) 0.7313(3) 0.8736(2)
H24 H 0.1288 0.7438 0.8928
C39 C 0.1329(8) 0.7477(3) 0.8417(2)
H25 H 0.0951 0.7712 0.8395
C40 C 0.2295(10) 0.6938(4) 0.8167(3)
H26 H 0.2582 0.6820 0.7979
Cd3 Cd 0.24093(4) 0.694498(15) 0.989461(11)
O15 O 0.0098(4) 0.54339(15) 0.93337(12)
C15 C 0.9945(6) 0.6101(2) 0.17100(18)
H8 H 0.9855 0.5822 0.1691
H9 H 0.9957 0.6111 0.2212
C24 C 0.9945(6) 0.6399(2) 0.07900(18)
H16 H 0.9855 0.6678 0.0809
H17 H 0.9957 0.6389 0.0288
Cd5 Cd 0.99093(4) 0.805502(15) 0.239461(11)
Cd6 Cd 0.99093(4) 0.444498(15) 0.010539(11)
O11 O 0.9021(4) 0.74482(15) 0.24579(12)
O12 O 0.9021(4) 0.50518(15) 0.00421(12)
O14 O 0.9450(4) 0.63593(15) 0.27843(12)
Cd1_2 Cd 0.74093(4) 0.055502(15) 0.260539(11)
N1_2 N 0.5151(4) 0.05088(17) 0.28652(14)
N2_2 N 0.7383(5) 0.08235(18) 0.20671(13)
O3_2 O 0.5737(4) 0.07016(14) 0.26554(11)
O4_2 O 0.4450(4) 0.13593(15) 0.27843(12)
O5_2 O 0.5098(4) 0.20661(15) 0.31663(12)
C2_2 C 0.5081(6) 0.0093(2) 0.28755(18)
C4_2 C 0.3825(7) 0.0141(3) 0.3301(3)
H2_2 H 0.3380 0.0018 0.3448
C5_2 C 0.3924(7) 0.0558(3) 0.3289(2)
H3_2 H 0.3531 0.0717 0.3428
C6_2 C 0.4582(6) 0.0744(2) 0.30788(17)
C7_2 C 0.4701(5) 0.1195(2) 0.30623(17)
C8_2 C 0.4997(5) 0.1383(2) 0.33528(18)
H4_2 H 0.5107 0.1218 0.3539
C9_2 C 0.5152(6) 0.1804(2) 0.33965(17)
C10_2 C 0.5396(6) 0.1963(3) 0.37355(19)
C11_2 C 0.5043(7) 0.1774(4) 0.4022(2)
H5_2 H 0.4690 0.1533 0.4003
C12_2 C 0.7320(6) 0.0590(2) 0.17949(18)
H6_2 H 0.7255 0.0310 0.1823
C13_2 C 0.7349(6) 0.0746(2) 0.14716(17)
H7_2 H 0.7282 0.0573 0.1288
C14_2 C 0.7478(6) 0.1160(2) 0.14215(16)
C15_2 C 0.7555(6) 0.1399(2) 0.17100(18)
H8_2 H 0.7645 0.1678 0.1691
C16_2 C 0.7499(6) 0.1223(2) 0.20234(18)
H9_2 H 0.7543 0.1389 0.2212
C17_2 C 0.5789(10) 0.2276(5) 0.4369(2)
H10_2 H 0.5933 0.2374 0.4583
C18_2 C 0.5966(7) 0.2313(3) 0.3764(2)
H11_2 H 0.6212 0.2438 0.3572
C19_2 C 0.6171(8) 0.2477(3) 0.4083(2)
H12_2 H 0.6549 0.2712 0.4105
C20_2 C 0.5205(10) 0.1938(4) 0.4333(3)
H13_2 H 0.4918 0.1820 0.4521
N3_2 N 0.7383(5) 0.16765(18) 0.04329(13)
C21_2 C 0.7320(6) 0.1910(2) 0.07051(18)
H14_2 H 0.7255 0.2190 0.0677
C22_2 C 0.7349(6) 0.1754(2) 0.10284(17)
H15_2 H 0.7282 0.1927 0.1212
C23_2 C 0.7478(6) 0.1340(2) 0.10785(16)
C24_2 C 0.7555(6) 0.1101(2) 0.07900(18)
H16_2 H 0.7645 0.0822 0.0809
C25_2 C 0.7499(6) 0.1277(2) 0.04766(18)
H17_2 H 0.7543 0.1111 0.0288
Cd4_2 Cd 0.50907(4) 0.194498(15) 0.260539(11)
Cd6_2 Cd 0.75907(4) 0.305502(15) 0.010539(11)
O11_2 O 0.8479(4) 0.00518(15) 0.24579(12)
O12_2 O 0.8479(4) 0.24482(15) 0.00421(12)
O14_2 O 0.8050(4) 0.11407(15) 0.27843(12)
O16_2 O 0.7402(4) 0.04339(15) 0.31663(12)
Cd2_2 Cd 0.74093(4) 0.194498(15) 0.989461(11)
N4_2 N 0.5151(4) 0.19912(17) 0.96348(14)
O6_2 O 0.6521(4) 0.25518(15) 0.99579(12)
O7_2 O 0.5469(5) 0.30314(18) 0.98604(17)
O8_2 O 0.5737(4) 0.17984(14) 0.98446(11)
O9_2 O 0.4450(4) 0.11407(15) 0.97157(12)
O10_2 O 0.5098(4) 0.04339(15) 0.93337(12)
C26_2 C 0.5728(6) 0.2683(2) 0.98333(18)
C27_2 C 0.5081(6) 0.2407(2) 0.96245(18)
C28_2 C 0.4405(6) 0.2588(3) 0.9410(2)
H18_2 H 0.4342 0.2869 0.9410
C29_2 C 0.3825(7) 0.2359(3) 0.9199(3)
H19_2 H 0.3380 0.2482 0.9052
C30_2 C 0.3924(7) 0.1942(3) 0.9211(2)
H20_2 H 0.3531 0.1783 0.9072
C31_2 C 0.4582(6) 0.1756(2) 0.94212(17)
C32_2 C 0.4701(5) 0.1305(2) 0.94377(17)
C33_2 C 0.4997(5) 0.1117(2) 0.91472(18)
H21_2 H 0.5107 0.1282 0.8961
C34_2 C 0.5152(6) 0.0696(2) 0.91035(17)
C35_2 C 0.5396(6) 0.0537(3) 0.87645(19)
C36_2 C 0.5043(7) 0.0726(4) 0.8478(2)
H22_2 H 0.4690 0.0967 0.8497
C37_2 C 0.5789(10) 0.0224(5) 0.8131(2)
H23_2 H 0.5933 0.0126 0.7917
C38_2 C 0.5966(7) 0.0187(3) 0.8736(2)
H24_2 H 0.6212 0.0062 0.8928
C39_2 C 0.6171(8) 0.0023(3) 0.8417(2)
C40_2 C 0.5205(10) 0.0562(4) 0.8167(3)
H26_2 H 0.4918 0.0680 0.7979
Cd3_2 Cd 0.50907(4) 0.055502(15) 0.989461(11)
O13 O 0.8050(4) 0.13593(15) 0.97157(12)
O15_2 O 0.7402(4) 0.20661(15) 0.93337(12)
O1_2 O 0.6521(4) 0.99482(15) 0.25421(12)
O2_2 O 0.5469(5) 0.94686(18) 0.26396(17)
C1_2 C 0.5728(6) 0.9817(2) 0.26667(18)
C3_2 C 0.4405(6) 0.9912(3) 0.3090(2)
H1_2 H 0.4342 0.9631 0.3090
Cd5_2 Cd 0.75907(4) 0.944498(15) 0.239461(11)
Cd1_3 Cd 0.74093(4) 0.694498(15) 0.489461(11)
N1_3 N 0.5151(4) 0.69912(17) 0.46348(14)
N2_3 N 0.7383(5) 0.66765(18) 0.54329(13)
O1_3 O 0.6521(4) 0.75518(15) 0.49579(12)
O2_3 O 0.5469(5) 0.80314(18) 0.48604(17)
O3_3 O 0.5737(4) 0.67984(14) 0.48446(11)
O4_3 O 0.4450(4) 0.61407(15) 0.47157(12)
O5_3 O 0.5098(4) 0.54339(15) 0.43337(12)
C1_3 C 0.5728(6) 0.7683(2) 0.48333(18)
C2_3 C 0.5081(6) 0.7407(2) 0.46245(18)
C3_3 C 0.4405(6) 0.7588(3) 0.4410(2)
H1_3 H 0.4342 0.7869 0.4410
C4_3 C 0.3825(7) 0.7359(3) 0.4199(3)
H2_3 H 0.3380 0.7482 0.4052
C5_3 C 0.3924(7) 0.6942(3) 0.4211(2)
H3_3 H 0.3531 0.6783 0.4072
C6_3 C 0.4582(6) 0.6756(2) 0.44212(17)
C7_3 C 0.4701(5) 0.6305(2) 0.44377(17)
C8_3 C 0.4997(5) 0.6117(2) 0.41472(18)
H4_3 H 0.5107 0.6282 0.3961
C9_3 C 0.5152(6) 0.5696(2) 0.41035(17)
C10_3 C 0.5396(6) 0.5537(3) 0.37645(19)
C11_3 C 0.5043(7) 0.5726(4) 0.3478(2)
H5_3 H 0.4690 0.5967 0.3497
C12_3 C 0.7320(6) 0.6910(2) 0.57051(18)
H6_3 H 0.7255 0.7190 0.5677
C13_3 C 0.7349(6) 0.6754(2) 0.60284(17)
H7_3 H 0.7282 0.6927 0.6212
C14_3 C 0.7478(6) 0.6340(2) 0.60785(16)
C15_3 C 0.7555(6) 0.6101(2) 0.57900(18)
H8_3 H 0.7645 0.5822 0.5809
C16_3 C 0.7499(6) 0.6277(2) 0.54766(18)
H9_3 H 0.7543 0.6111 0.5288
C17_3 C 0.5789(10) 0.5224(5) 0.3131(2)
H10_3 H 0.5933 0.5126 0.2917
C18_3 C 0.5966(7) 0.5187(3) 0.3736(2)
H11_3 H 0.6212 0.5062 0.3928
C19_3 C 0.6171(8) 0.5023(3) 0.3417(2)
H12_3 H 0.6549 0.4788 0.3395
C20_3 C 0.5205(10) 0.5562(4) 0.3167(3)
H13_3 H 0.4918 0.5680 0.2979
N3_3 N 0.7383(5) 0.58235(18) 0.70671(13)
C21_3 C 0.7320(6) 0.5590(2) 0.67949(18)
H14_3 H 0.7255 0.5310 0.6823
C22_3 C 0.7349(6) 0.5746(2) 0.64716(17)
H15_3 H 0.7282 0.5573 0.6288
C23_3 C 0.7478(6) 0.6160(2) 0.64215(16)
C24_3 C 0.7555(6) 0.6399(2) 0.67100(18)
H16_3 H 0.7645 0.6678 0.6691
C25_3 C 0.7499(6) 0.6223(2) 0.70234(18)
H17_3 H 0.7543 0.6389 0.7212
Cd2_3 Cd 0.74093(4) 0.555502(15) 0.760539(11)
N4_3 N 0.5151(4) 0.55088(17) 0.78652(14)
O6_3 O 0.6521(4) 0.49482(15) 0.75421(12)
O7_3 O 0.5469(5) 0.44686(18) 0.76396(17)
O8_3 O 0.5737(4) 0.57016(14) 0.76554(11)
O9_3 O 0.4450(4) 0.63593(15) 0.77843(12)
O10_3 O 0.5098(4) 0.70661(15) 0.81663(12)
C26_3 C 0.5728(6) 0.4817(2) 0.76667(18)
C27_3 C 0.5081(6) 0.5093(2) 0.78755(18)
C28_3 C 0.4405(6) 0.4912(3) 0.8090(2)
H18_3 H 0.4342 0.4631 0.8090
C29_3 C 0.3825(7) 0.5141(3) 0.8301(3)
H19_3 H 0.3380 0.5018 0.8448
C30_3 C 0.3924(7) 0.5558(3) 0.8289(2)
H20_3 H 0.3531 0.5717 0.8428
C31_3 C 0.4582(6) 0.5744(2) 0.80788(17)
C32_3 C 0.4701(5) 0.6195(2) 0.80623(17)
C33_3 C 0.4997(5) 0.6383(2) 0.83528(18)
H21_3 H 0.5107 0.6218 0.8539
C34_3 C 0.5152(6) 0.6804(2) 0.83965(17)
C35_3 C 0.5396(6) 0.6963(3) 0.87355(19)
C36_3 C 0.5043(7) 0.6774(4) 0.9022(2)
H22_3 H 0.4690 0.6533 0.9003
C37_3 C 0.5789(10) 0.7276(5) 0.9369(2)
H23_3 H 0.5933 0.7374 0.9583
C38_3 C 0.5966(7) 0.7313(3) 0.8764(2)
H24_3 H 0.6212 0.7438 0.8572
C39_3 C 0.6171(8) 0.7477(3) 0.9083(2)
H25_2 H 0.6549 0.7712 0.9105
C40_3 C 0.5205(10) 0.6938(4) 0.9333(3)
H26_3 H 0.4918 0.6820 0.9521
Cd3_3 Cd 0.50907(4) 0.694498(15) 0.760539(11)
Cd4_3 Cd 0.50907(4) 0.555502(15) 0.489461(11)
Cd5_3 Cd 0.75907(4) 0.805502(15) 0.510539(11)
Cd6_3 Cd 0.75907(4) 0.444498(15) 0.739461(11)
O11_3 O 0.8479(4) 0.74482(15) 0.50421(12)
O12_3 O 0.8479(4) 0.50518(15) 0.74579(12)
O13_2 O 0.8050(4) 0.61407(15) 0.77843(12)
O14_3 O 0.8050(4) 0.63593(15) 0.47157(12)
O15_3 O 0.7402(4) 0.54339(15) 0.81663(12)
O16_3 O 0.7402(4) 0.70661(15) 0.43337(12)
Cd1_4 Cd 0.00907(4) 0.055502(15) 0.489461(11)
N1_4 N 0.2349(4) 0.05088(17) 0.46348(14)
N2_4 N 0.0117(5) 0.08235(18) 0.54329(13)
O3_4 O 0.1763(4) 0.07016(14) 0.48446(11)
O4_4 O 0.3050(4) 0.13593(15) 0.47157(12)
O5_4 O 0.2402(4) 0.20661(15) 0.43337(12)
C2_4 C 0.2419(6) 0.0093(2) 0.46245(18)
C4_4 C 0.3675(7) 0.0141(3) 0.4199(3)
H2_4 H 0.4120 0.0018 0.4052
C5_4 C 0.3576(7) 0.0558(3) 0.4211(2)
H3_4 H 0.3969 0.0717 0.4072
C6_4 C 0.2918(6) 0.0744(2) 0.44212(17)
C7_4 C 0.2799(5) 0.1195(2) 0.44377(17)
C8_4 C 0.2503(5) 0.1383(2) 0.41472(18)
H4_4 H 0.2393 0.1218 0.3961
C9_4 C 0.2348(6) 0.1804(2) 0.41035(17)
C10_4 C 0.2104(6) 0.1963(3) 0.37645(19)
C11_4 C 0.2457(7) 0.1774(4) 0.3478(2)
H5_4 H 0.2810 0.1533 0.3497
C12_4 C 0.0180(6) 0.0590(2) 0.57051(18)
H6_4 H 0.0245 0.0310 0.5677
C13_4 C 0.0151(6) 0.0746(2) 0.60284(17)
H7_4 H 0.0218 0.0573 0.6212
C14_4 C 0.0022(6) 0.1160(2) 0.60785(16)
C16_4 C 0.0001(6) 0.1223(2) 0.54766(18)
C17_4 C 0.1711(10) 0.2276(5) 0.3131(2)
H10_4 H 0.1567 0.2374 0.2917
C18_4 C 0.1534(7) 0.2313(3) 0.3736(2)
H11_4 H 0.1288 0.2438 0.3928
C19_4 C 0.1329(8) 0.2477(3) 0.3417(2)
H12_4 H 0.0951 0.2712 0.3395
C20_4 C 0.2295(10) 0.1938(4) 0.3167(3)
H13_4 H 0.2582 0.1820 0.2979
N3_4 N 0.0117(5) 0.16765(18) 0.70671(13)
C21_4 C 0.0180(6) 0.1910(2) 0.67949(18)
H14_4 H 0.0245 0.2190 0.6823
C22_4 C 0.0151(6) 0.1754(2) 0.64716(17)
H15_4 H 0.0218 0.1927 0.6288
C23_4 C 0.0022(6) 0.1340(2) 0.64215(16)
C25_4 C 0.0001(6) 0.1277(2) 0.70234(18)
Cd2_4 Cd 0.00907(4) 0.194498(15) 0.760539(11)
N4_4 N 0.2349(4) 0.19912(17) 0.78652(14)
O6_4 O 0.0979(4) 0.25518(15) 0.75421(12)
O7_4 O 0.2031(5) 0.30314(18) 0.76396(17)
O8_4 O 0.1763(4) 0.17984(14) 0.76554(11)
O9_4 O 0.3050(4) 0.11407(15) 0.77843(12)
O10_4 O 0.2402(4) 0.04339(15) 0.81663(12)
C26_4 C 0.1772(6) 0.2683(2) 0.76667(18)
C27_4 C 0.2419(6) 0.2407(2) 0.78755(18)
C28_4 C 0.3095(6) 0.2588(3) 0.8090(2)
H18_4 H 0.3158 0.2869 0.8090
C29_4 C 0.3675(7) 0.2359(3) 0.8301(3)
H19_4 H 0.4120 0.2482 0.8448
C30_4 C 0.3576(7) 0.1942(3) 0.8289(2)
H20_4 H 0.3969 0.1783 0.8428
C31_4 C 0.2918(6) 0.1756(2) 0.80788(17)
C32_4 C 0.2799(5) 0.1305(2) 0.80623(17)
C33_4 C 0.2503(5) 0.1117(2) 0.83528(18)
H21_4 H 0.2393 0.1282 0.8539
C34_4 C 0.2348(6) 0.0696(2) 0.83965(17)
C35_4 C 0.2104(6) 0.0537(3) 0.87355(19)
C36_4 C 0.2457(7) 0.0726(4) 0.9022(2)
H22_4 H 0.2810 0.0967 0.9003
C37_4 C 0.1711(10) 0.0224(5) 0.9369(2)
H23_4 H 0.1567 0.0126 0.9583
C38_4 C 0.1534(7) 0.0187(3) 0.8764(2)
H24_4 H 0.1288 0.0062 0.8572
C39_4 C 0.1329(8) 0.0023(3) 0.9083(2)
C40_4 C 0.2295(10) 0.0562(4) 0.9333(3)
H26_4 H 0.2582 0.0680 0.9521
Cd3_4 Cd 0.24093(4) 0.055502(15) 0.760539(11)
Cd4_4 Cd 0.24093(4) 0.194498(15) 0.489461(11)
O15_4 O 0.0098(4) 0.20661(15) 0.81663(12)
O16_4 O 0.0098(4) 0.04339(15) 0.43337(12)
O1_4 O 0.0979(4) 0.99482(15) 0.49579(12)
O2_4 O 0.2031(5) 0.94686(18) 0.48604(17)
C1_4 C 0.1772(6) 0.9817(2) 0.48333(18)
C3_4 C 0.3095(6) 0.9912(3) 0.4410(2)
H1_4 H 0.3158 0.9631 0.4410
H25_3 H 0.0951 0.9788 0.9105
C15_4 C 0.9945(6) 0.1399(2) 0.57900(18)
H8_4 H 0.9855 0.1678 0.5809
H9_4 H 0.9957 0.1389 0.5288
C24_4 C 0.9945(6) 0.1101(2) 0.67100(18)
H16_4 H 0.9855 0.0822 0.6691
H17_4 H 0.9957 0.1111 0.7212
Cd6_4 Cd 0.99093(4) 0.305502(15) 0.739461(11)
O11_4 O 0.9021(4) 0.00518(15) 0.50421(12)
O12_4 O 0.9021(4) 0.24482(15) 0.74579(12)
O13_3 O 0.9450(4) 0.13593(15) 0.77843(12)
O14_4 O 0.9450(4) 0.11407(15) 0.47157(12)
Cd5_4 Cd 0.99093(4) 0.944498(15) 0.510539(11)
N1_5 N 0.7349(4) 0.69912(17) 0.78652(14)
N2_5 N 0.5117(5) 0.66765(18) 0.70671(13)
O1_5 O 0.5979(4) 0.75518(15) 0.75421(12)
O2_5 O 0.7031(5) 0.80314(18) 0.76396(17)
O3_5 O 0.6763(4) 0.67984(14) 0.76554(11)
C1_5 C 0.6772(6) 0.7683(2) 0.76667(18)
C2_5 C 0.7419(6) 0.7407(2) 0.78755(18)
C3_5 C 0.8095(6) 0.7588(3) 0.8090(2)
H1_5 H 0.8158 0.7869 0.8090
C4_5 C 0.8675(7) 0.7359(3) 0.8301(3)
H2_5 H 0.9120 0.7482 0.8448
C5_5 C 0.8576(7) 0.6942(3) 0.8289(2)
H3_5 H 0.8969 0.6783 0.8428
C6_5 C 0.7918(6) 0.6756(2) 0.80788(17)
C7_5 C 0.7799(5) 0.6305(2) 0.80623(17)
C8_5 C 0.7503(5) 0.6117(2) 0.83528(18)
H4_5 H 0.7393 0.6282 0.8539
C9_5 C 0.7348(6) 0.5696(2) 0.83965(17)
C10_5 C 0.7104(6) 0.5537(3) 0.87355(19)
C11_5 C 0.7457(7) 0.5726(4) 0.9022(2)
H5_5 H 0.7810 0.5967 0.9003
C12_5 C 0.5180(6) 0.6910(2) 0.67949(18)
H6_5 H 0.5245 0.7190 0.6823
C13_5 C 0.5151(6) 0.6754(2) 0.64716(17)
H7_5 H 0.5218 0.6927 0.6288
C14_5 C 0.5022(6) 0.6340(2) 0.64215(16)
C15_5 C 0.4945(6) 0.6101(2) 0.67100(18)
H8_5 H 0.4855 0.5822 0.6691
C16_5 C 0.5001(6) 0.6277(2) 0.70234(18)
H9_5 H 0.4957 0.6111 0.7212
C17_5 C 0.6711(10) 0.5224(5) 0.9369(2)
H10_5 H 0.6567 0.5126 0.9583
C18_5 C 0.6534(7) 0.5187(3) 0.8764(2)
H11_5 H 0.6288 0.5062 0.8572
C19_5 C 0.6329(8) 0.5023(3) 0.9083(2)
H12_5 H 0.5951 0.4788 0.9105
C20_5 C 0.7295(10) 0.5562(4) 0.9333(3)
H13_5 H 0.7582 0.5680 0.9521
N3_5 N 0.5117(5) 0.58235(18) 0.54329(13)
C21_5 C 0.5180(6) 0.5590(2) 0.57051(18)
H14_5 H 0.5245 0.5310 0.5677
C22_5 C 0.5151(6) 0.5746(2) 0.60284(17)
H15_5 H 0.5218 0.5573 0.6212
C23_5 C 0.5022(6) 0.6160(2) 0.60785(16)
C24_5 C 0.4945(6) 0.6399(2) 0.57900(18)
H16_5 H 0.4855 0.6678 0.5809
C25_5 C 0.5001(6) 0.6223(2) 0.54766(18)
H17_5 H 0.4957 0.6389 0.5288
N4_5 N 0.7349(4) 0.55088(17) 0.46348(14)
O6_5 O 0.5979(4) 0.49482(15) 0.49579(12)
O7_5 O 0.7031(5) 0.44686(18) 0.48604(17)
O8_5 O 0.6763(4) 0.57016(14) 0.48446(11)
C26_5 C 0.6772(6) 0.4817(2) 0.48333(18)
C27_5 C 0.7419(6) 0.5093(2) 0.46245(18)
C28_5 C 0.8095(6) 0.4912(3) 0.4410(2)
H18_5 H 0.8158 0.4631 0.4410
C29_5 C 0.8675(7) 0.5141(3) 0.4199(3)
H19_5 H 0.9120 0.5018 0.4052
C30_5 C 0.8576(7) 0.5558(3) 0.4211(2)
H20_5 H 0.8969 0.5717 0.4072
C31_5 C 0.7918(6) 0.5744(2) 0.44212(17)
C32_5 C 0.7799(5) 0.6195(2) 0.44377(17)
C33_5 C 0.7503(5) 0.6383(2) 0.41472(18)
H21_5 H 0.7393 0.6218 0.3961
C34_5 C 0.7348(6) 0.6804(2) 0.41035(17)
C35_5 C 0.7104(6) 0.6963(3) 0.37645(19)
C36_5 C 0.7457(7) 0.6774(4) 0.3478(2)
H22_5 H 0.7810 0.6533 0.3497
C37_5 C 0.6711(10) 0.7276(5) 0.3131(2)
H23_5 H 0.6567 0.7374 0.2917
C38_5 C 0.6534(7) 0.7313(3) 0.3736(2)
H24_5 H 0.6288 0.7438 0.3928
C39_5 C 0.6329(8) 0.7477(3) 0.3417(2)
H25_4 H 0.5951 0.7712 0.3395
C40_5 C 0.7295(10) 0.6938(4) 0.3167(3)
H26_5 H 0.7582 0.6820 0.2979
Cd5_5 Cd 0.49093(4) 0.805502(15) 0.739461(11)
Cd6_5 Cd 0.49093(4) 0.444498(15) 0.510539(11)
O11_5 O 0.4021(4) 0.74482(15) 0.74579(12)
O12_5 O 0.4021(4) 0.50518(15) 0.50421(12)
N1_6 N 0.0151(4) 0.05088(17) 0.78652(14)
N2_6 N 0.2383(5) 0.08235(18) 0.70671(13)
O3_6 O 0.0737(4) 0.07016(14) 0.76554(11)
C2_6 C 0.0081(6) 0.0093(2) 0.78755(18)
H4_6 H 0.0107 0.1218 0.8539
C9_6 C 0.0152(6) 0.1804(2) 0.83965(17)
C10_6 C 0.0396(6) 0.1963(3) 0.87355(19)
C11_6 C 0.0043(7) 0.1774(4) 0.9022(2)
C12_6 C 0.2320(6) 0.0590(2) 0.67949(18)
H6_6 H 0.2255 0.0310 0.6823
C13_6 C 0.2349(6) 0.0746(2) 0.64716(17)
H7_6 H 0.2282 0.0573 0.6288
C14_6 C 0.2478(6) 0.1160(2) 0.64215(16)
C15_6 C 0.2555(6) 0.1399(2) 0.67100(18)
H8_6 H 0.2645 0.1678 0.6691
C16_6 C 0.2499(6) 0.1223(2) 0.70234(18)
H9_6 H 0.2543 0.1389 0.7212
C17_6 C 0.0789(10) 0.2276(5) 0.9369(2)
H10_6 H 0.0933 0.2374 0.9583
C18_6 C 0.0966(7) 0.2313(3) 0.8764(2)
H11_6 H 0.1212 0.2438 0.8572
C19_6 C 0.1171(8) 0.2477(3) 0.9083(2)
H12_6 H 0.1549 0.2712 0.9105
C20_6 C 0.0205(10) 0.1938(4) 0.9333(3)
N3_6 N 0.2383(5) 0.16765(18) 0.54329(13)
C21_6 C 0.2320(6) 0.1910(2) 0.57051(18)
H14_6 H 0.2255 0.2190 0.5677
C22_6 C 0.2349(6) 0.1754(2) 0.60284(17)
H15_6 H 0.2282 0.1927 0.6212
C23_6 C 0.2478(6) 0.1340(2) 0.60785(16)
C24_6 C 0.2555(6) 0.1101(2) 0.57900(18)
H16_6 H 0.2645 0.0822 0.5809
C25_6 C 0.2499(6) 0.1277(2) 0.54766(18)
H17_6 H 0.2543 0.1111 0.5288
N4_6 N 0.0151(4) 0.19912(17) 0.46348(14)
O6_6 O 0.1521(4) 0.25518(15) 0.49579(12)
O7_6 O 0.0469(5) 0.30314(18) 0.48604(17)
O8_6 O 0.0737(4) 0.17984(14) 0.48446(11)
C26_6 C 0.0728(6) 0.2683(2) 0.48333(18)
C27_6 C 0.0081(6) 0.2407(2) 0.46245(18)
H21_6 H 0.0107 0.1282 0.3961
C34_6 C 0.0152(6) 0.0696(2) 0.41035(17)
C35_6 C 0.0396(6) 0.0537(3) 0.37645(19)
C36_6 C 0.0043(7) 0.0726(4) 0.3478(2)
C37_6 C 0.0789(10) 0.0224(5) 0.3131(2)
H23_6 H 0.0933 0.0126 0.2917
C38_6 C 0.0966(7) 0.0187(3) 0.3736(2)
H24_6 H 0.1212 0.0062 0.3928
C39_6 C 0.1171(8) 0.0023(3) 0.3417(2)
C40_6 C 0.0205(10) 0.0562(4) 0.3167(3)
Cd6_6 Cd 0.25907(4) 0.305502(15) 0.510539(11)
O11_6 O 0.3479(4) 0.00518(15) 0.74579(12)
O12_6 O 0.3479(4) 0.24482(15) 0.50421(12)
O1_6 O 0.1521(4) 0.99482(15) 0.75421(12)
O2_6 O 0.0469(5) 0.94686(18) 0.76396(17)
C1_6 C 0.0728(6) 0.9817(2) 0.76667(18)
H25_5 H 0.1549 0.9788 0.3395
Cd5_6 Cd 0.25907(4) 0.944498(15) 0.739461(11)
C4_6 C 0.8825(7) 0.0141(3) 0.8301(3)
H2_6 H 0.8380 0.0018 0.8448
C5_6 C 0.8924(7) 0.0558(3) 0.8289(2)
H3_6 H 0.8531 0.0717 0.8428
C6_6 C 0.9582(6) 0.0744(2) 0.80788(17)
C7_6 C 0.9701(5) 0.1195(2) 0.80623(17)
C8_6 C 0.9997(5) 0.1383(2) 0.83528(18)
H5_6 H 0.9690 0.1533 0.9003
H13_6 H 0.9918 0.1820 0.9521
C28_6 C 0.9405(6) 0.2588(3) 0.4410(2)
H18_6 H 0.9342 0.2869 0.4410
C29_6 C 0.8825(7) 0.2359(3) 0.4199(3)
H19_6 H 0.8380 0.2482 0.4052
C30_6 C 0.8924(7) 0.1942(3) 0.4211(2)
H20_6 H 0.8531 0.1783 0.4072
C31_6 C 0.9582(6) 0.1756(2) 0.44212(17)
C32_6 C 0.9701(5) 0.1305(2) 0.44377(17)
C33_6 C 0.9997(5) 0.1117(2) 0.41472(18)
H22_6 H 0.9690 0.0967 0.3497
H26_6 H 0.9918 0.0680 0.2979
N2_7 N 0.2383(5) 0.66765(18) 0.04329(13)
C12_7 C 0.2320(6) 0.6910(2) 0.07051(18)
H6_7 H 0.2255 0.7190 0.0677
C13_7 C 0.2349(6) 0.6754(2) 0.10284(17)
H7_7 H 0.2282 0.6927 0.1212
C14_7 C 0.2478(6) 0.6340(2) 0.10785(16)
C15_7 C 0.2555(6) 0.6101(2) 0.07900(18)
H8_7 H 0.2645 0.5822 0.0809
C16_7 C 0.2499(6) 0.6277(2) 0.04766(18)
H9_7 H 0.2543 0.6111 0.0288
N3_7 N 0.2383(5) 0.58235(18) 0.20671(13)
C21_7 C 0.2320(6) 0.5590(2) 0.17949(18)
H14_7 H 0.2255 0.5310 0.1823
C22_7 C 0.2349(6) 0.5746(2) 0.14716(17)
H15_7 H 0.2282 0.5573 0.1288
C23_7 C 0.2478(6) 0.6160(2) 0.14215(16)
C24_7 C 0.2555(6) 0.6399(2) 0.17100(18)
H16_7 H 0.2645 0.6678 0.1691
C25_7 C 0.2499(6) 0.6223(2) 0.20234(18)
H17_7 H 0.2543 0.6389 0.2212
N4_7 N 0.0151(4) 0.55088(17) 0.28652(14)
O6_7 O 0.1521(4) 0.49482(15) 0.25421(12)
O7_7 O 0.0469(5) 0.44686(18) 0.26396(17)
O8_7 O 0.0737(4) 0.57016(14) 0.26554(11)
C26_7 C 0.0728(6) 0.4817(2) 0.26667(18)
C27_7 C 0.0081(6) 0.5093(2) 0.28755(18)
H21_7 H 0.0107 0.6218 0.3539
C34_7 C 0.0152(6) 0.6804(2) 0.33965(17)
C35_7 C 0.0396(6) 0.6963(3) 0.37355(19)
C36_7 C 0.0043(7) 0.6774(4) 0.4022(2)
C37_7 C 0.0789(10) 0.7276(5) 0.4369(2)
H23_7 H 0.0933 0.7374 0.4583
C38_7 C 0.0966(7) 0.7313(3) 0.3764(2)
H24_7 H 0.1212 0.7438 0.3572
C39_7 C 0.1171(8) 0.7477(3) 0.4083(2)
H25_6 H 0.1549 0.7712 0.4105
C40_7 C 0.0205(10) 0.6938(4) 0.4333(3)
Cd5_7 Cd 0.25907(4) 0.805502(15) 0.010539(11)
Cd6_7 Cd 0.25907(4) 0.444498(15) 0.239461(11)
O11_7 O 0.3479(4) 0.74482(15) 0.00421(12)
O12_7 O 0.3479(4) 0.50518(15) 0.24579(12)
N1_7 N 0.0151(4) 0.69912(17) 0.96348(14)
O1_7 O 0.1521(4) 0.75518(15) 0.99579(12)
O2_7 O 0.0469(5) 0.80314(18) 0.98604(17)
O3_7 O 0.0737(4) 0.67984(14) 0.98446(11)
C1_7 C 0.0728(6) 0.7683(2) 0.98333(18)
C2_7 C 0.0081(6) 0.7407(2) 0.96245(18)
H4_7 H 0.0107 0.6282 0.8961
C9_7 C 0.0152(6) 0.5696(2) 0.91035(17)
C10_7 C 0.0396(6) 0.5537(3) 0.87645(19)
C11_7 C 0.0043(7) 0.5726(4) 0.8478(2)
C17_7 C 0.0789(10) 0.5224(5) 0.8131(2)
H10_7 H 0.0933 0.5126 0.7917
C18_7 C 0.0966(7) 0.5187(3) 0.8736(2)
H11_7 H 0.1212 0.5062 0.8928
C19_7 C 0.1171(8) 0.5023(3) 0.8417(2)
H12_7 H 0.1549 0.4788 0.8395
C20_7 C 0.0205(10) 0.5562(4) 0.8167(3)
C28_7 C 0.9405(6) 0.4912(3) 0.3090(2)
H18_7 H 0.9342 0.4631 0.3090
C29_7 C 0.8825(7) 0.5141(3) 0.3301(3)
H19_7 H 0.8380 0.5018 0.3448
C30_7 C 0.8924(7) 0.5558(3) 0.3289(2)
H20_7 H 0.8531 0.5717 0.3428
C31_7 C 0.9582(6) 0.5744(2) 0.30788(17)
C32_7 C 0.9701(5) 0.6195(2) 0.30623(17)
C33_7 C 0.9997(5) 0.6383(2) 0.33528(18)
H22_7 H 0.9690 0.6533 0.4003
H26_7 H 0.9918 0.6820 0.4521
N2_8 N 0.5117(5) 0.08235(18) 0.04329(13)
C12_8 C 0.5180(6) 0.0590(2) 0.07051(18)
H6_8 H 0.5245 0.0310 0.0677
C13_8 C 0.5151(6) 0.0746(2) 0.10284(17)
H7_8 H 0.5218 0.0573 0.1212
C14_8 C 0.5022(6) 0.1160(2) 0.10785(16)
C15_8 C 0.4945(6) 0.1399(2) 0.07900(18)
H8_8 H 0.4855 0.1678 0.0809
C16_8 C 0.5001(6) 0.1223(2) 0.04766(18)
H9_8 H 0.4957 0.1389 0.0288
N3_8 N 0.5117(5) 0.16765(18) 0.20671(13)
C21_8 C 0.5180(6) 0.1910(2) 0.17949(18)
H14_8 H 0.5245 0.2190 0.1823
C22_8 C 0.5151(6) 0.1754(2) 0.14716(17)
H15_8 H 0.5218 0.1927 0.1288
C23_8 C 0.5022(6) 0.1340(2) 0.14215(16)
C24_8 C 0.4945(6) 0.1101(2) 0.17100(18)
H16_8 H 0.4855 0.0822 0.1691
C25_8 C 0.5001(6) 0.1277(2) 0.20234(18)
H17_8 H 0.4957 0.1111 0.2212
N4_8 N 0.7349(4) 0.19912(17) 0.28652(14)
O6_8 O 0.5979(4) 0.25518(15) 0.25421(12)
O7_8 O 0.7031(5) 0.30314(18) 0.26396(17)
O8_8 O 0.6763(4) 0.17984(14) 0.26554(11)
C26_8 C 0.6772(6) 0.2683(2) 0.26667(18)
C27_8 C 0.7419(6) 0.2407(2) 0.28755(18)
C28_8 C 0.8095(6) 0.2588(3) 0.3090(2)
H18_8 H 0.8158 0.2869 0.3090
C29_8 C 0.8675(7) 0.2359(3) 0.3301(3)
H19_8 H 0.9120 0.2482 0.3448
C30_8 C 0.8576(7) 0.1942(3) 0.3289(2)
H20_8 H 0.8969 0.1783 0.3428
C31_8 C 0.7918(6) 0.1756(2) 0.30788(17)
C32_8 C 0.7799(5) 0.1305(2) 0.30623(17)
C33_8 C 0.7503(5) 0.1117(2) 0.33528(18)
H21_8 H 0.7393 0.1282 0.3539
C34_8 C 0.7348(6) 0.0696(2) 0.33965(17)
C35_8 C 0.7104(6) 0.0537(3) 0.37355(19)
C36_8 C 0.7457(7) 0.0726(4) 0.4022(2)
H22_8 H 0.7810 0.0967 0.4003
C37_8 C 0.6711(10) 0.0224(5) 0.4369(2)
H23_8 H 0.6567 0.0126 0.4583
C38_8 C 0.6534(7) 0.0187(3) 0.3764(2)
H24_8 H 0.6288 0.0062 0.3572
C39_8 C 0.6329(8) 0.0023(3) 0.4083(2)
C40_8 C 0.7295(10) 0.0562(4) 0.4333(3)
H26_8 H 0.7582 0.0680 0.4521
Cd6_8 Cd 0.49093(4) 0.305502(15) 0.239461(11)
O11_8 O 0.4021(4) 0.00518(15) 0.00421(12)
O12_8 O 0.4021(4) 0.24482(15) 0.24579(12)
N1_8 N 0.7349(4) 0.05088(17) 0.96348(14)
O3_8 O 0.6763(4) 0.07016(14) 0.98446(11)
C2_8 C 0.7419(6) 0.0093(2) 0.96245(18)
C4_7 C 0.8675(7) 0.0141(3) 0.9199(3)
H2_7 H 0.9120 0.0018 0.9052
C5_7 C 0.8576(7) 0.0558(3) 0.9211(2)
H3_7 H 0.8969 0.0717 0.9072
C6_7 C 0.7918(6) 0.0744(2) 0.94212(17)
C7_7 C 0.7799(5) 0.1195(2) 0.94377(17)
C8_7 C 0.7503(5) 0.1383(2) 0.91472(18)
H4_8 H 0.7393 0.1218 0.8961
C9_8 C 0.7348(6) 0.1804(2) 0.91035(17)
C10_8 C 0.7104(6) 0.1963(3) 0.87645(19)
C11_8 C 0.7457(7) 0.1774(4) 0.8478(2)
H5_7 H 0.7810 0.1533 0.8497
C17_8 C 0.6711(10) 0.2276(5) 0.8131(2)
H10_8 H 0.6567 0.2374 0.7917
C18_8 C 0.6534(7) 0.2313(3) 0.8736(2)
H11_8 H 0.6288 0.2438 0.8928
C19_8 C 0.6329(8) 0.2477(3) 0.8417(2)
H12_8 H 0.5951 0.2712 0.8395
C20_8 C 0.7295(10) 0.1938(4) 0.8167(3)
H13_7 H 0.7582 0.1820 0.7979
H25_7 H 0.5951 0.9788 0.4105
Cd5_8 Cd 0.49093(4) 0.944498(15) 0.010539(11)
O1_8 O 0.5979(4) 0.99482(15) 0.99579(12)
O2_8 O 0.7031(5) 0.94686(18) 0.98604(17)
C1_8 C 0.6772(6) 0.9817(2) 0.98333(18)
C3_6 C 0.8095(6) 0.9912(3) 0.9410(2)
H1_6 H 0.8158 0.9631 0.9410
C15_9 C 0.0055(6) 0.3899(2) 0.82900(18)
H8_9 H 0.0145 0.4178 0.8309
H9_9 H 0.0043 0.3889 0.7788
C24_9 C 0.0055(6) 0.3601(2) 0.92100(18)
H16_9 H 0.0145 0.3322 0.9191
H17_9 H 0.0043 0.3611 0.9712
O14_5 O 0.0550(4) 0.36407(15) 0.72157(12)
N4_9 N 0.7651(4) 0.44912(17) 0.03652(14)
O7_9 O 0.7969(5) 0.55314(18) 0.01396(17)
O8_9 O 0.8237(4) 0.42984(14) 0.01554(11)
O9_5 O 0.6950(4) 0.36407(15) 0.02843(12)
O10_5 O 0.7598(4) 0.29339(15) 0.06663(12)
C26_9 C 0.8228(6) 0.5183(2) 0.01667(18)
C27_9 C 0.7581(6) 0.4907(2) 0.03755(18)
C28_9 C 0.6905(6) 0.5088(3) 0.0590(2)
H18_9 H 0.6842 0.5369 0.0590
C29_9 C 0.6325(7) 0.4859(3) 0.0801(3)
H19_9 H 0.5880 0.4982 0.0948
C30_9 C 0.6424(7) 0.4442(3) 0.0789(2)
H20_9 H 0.6031 0.4283 0.0928
C31_9 C 0.7082(6) 0.4256(2) 0.05788(17)
C32_9 C 0.7201(5) 0.3805(2) 0.05623(17)
C33_9 C 0.7497(5) 0.3617(2) 0.08528(18)
H21_9 H 0.7607 0.3782 0.1039
C34_9 C 0.7652(6) 0.3196(2) 0.08965(17)
C35_9 C 0.7896(6) 0.3037(3) 0.12355(19)
C36_9 C 0.7543(7) 0.3226(4) 0.1522(2)
H22_9 H 0.7190 0.3467 0.1503
C37_9 C 0.8289(10) 0.2724(5) 0.1869(2)
H23_9 H 0.8433 0.2626 0.2083
C38_9 C 0.8466(7) 0.2687(3) 0.1264(2)
H24_9 H 0.8712 0.2562 0.1072
C39_9 C 0.8671(8) 0.2523(3) 0.1583(2)
H25_8 H 0.9049 0.2288 0.1605
C40_9 C 0.7705(10) 0.3062(4) 0.1833(3)
H26_9 H 0.7418 0.3180 0.2021
O15_5 O 0.9902(4) 0.45661(15) 0.06663(12)
N1_9 N 0.7651(4) 0.30088(17) 0.71348(14)
N2_9 N 0.9883(5) 0.33235(18) 0.79329(13)
O2_9 O 0.7969(5) 0.19686(18) 0.73604(17)
O3_9 O 0.8237(4) 0.32016(14) 0.73446(11)
O4_5 O 0.6950(4) 0.38593(15) 0.72157(12)
O5_5 O 0.7598(4) 0.45661(15) 0.68337(12)
C1_9 C 0.8228(6) 0.2317(2) 0.73333(18)
C2_9 C 0.7581(6) 0.2593(2) 0.71245(18)
C3_7 C 0.6905(6) 0.2412(3) 0.6910(2)
H1_7 H 0.6842 0.2131 0.6910
C4_8 C 0.6325(7) 0.2641(3) 0.6699(3)
H2_8 H 0.5880 0.2518 0.6552
C5_8 C 0.6424(7) 0.3058(3) 0.6711(2)
H3_8 H 0.6031 0.3217 0.6572
C6_8 C 0.7082(6) 0.3244(2) 0.69212(17)
C7_8 C 0.7201(5) 0.3695(2) 0.69377(17)
C8_8 C 0.7497(5) 0.3883(2) 0.66472(18)
H4_9 H 0.7607 0.3718 0.6461
C9_9 C 0.7652(6) 0.4304(2) 0.66035(17)
C10_9 C 0.7896(6) 0.4463(3) 0.62645(19)
C11_9 C 0.7543(7) 0.4274(4) 0.5978(2)
H5_8 H 0.7190 0.4033 0.5997
C12_9 C 0.9820(6) 0.3090(2) 0.82051(18)
H6_9 H 0.9755 0.2810 0.8177
C13_9 C 0.9849(6) 0.3246(2) 0.85284(17)
H7_9 H 0.9782 0.3073 0.8712
C14_9 C 0.9978(6) 0.3660(2) 0.85785(16)
C16_9 C 0.9999(6) 0.3723(2) 0.79766(18)
C17_9 C 0.8289(10) 0.4776(5) 0.5631(2)
H10_9 H 0.8433 0.4874 0.5417
C18_9 C 0.8466(7) 0.4813(3) 0.6236(2)
H11_9 H 0.8712 0.4938 0.6428
C19_9 C 0.8671(8) 0.4977(3) 0.5917(2)
H12_9 H 0.9049 0.5212 0.5895
C20_9 C 0.7705(10) 0.4438(4) 0.5667(3)
H13_8 H 0.7418 0.4320 0.5479
N3_9 N 0.9883(5) 0.41765(18) 0.95671(13)
C21_9 C 0.9820(6) 0.4410(2) 0.92949(18)
H14_9 H 0.9755 0.4690 0.9323
C22_9 C 0.9849(6) 0.4254(2) 0.89716(17)
H15_9 H 0.9782 0.4427 0.8788
C23_9 C 0.9978(6) 0.3840(2) 0.89215(16)
C25_9 C 0.9999(6) 0.3777(2) 0.95234(18)
O16_5 O 0.9902(4) 0.29339(15) 0.68337(12)
O2_10 O 0.4531(5) 0.05314(18) 0.73604(17)
C1_10 C 0.4272(6) 0.0183(2) 0.73333(18)
C3_8 C 0.5595(6) 0.0088(3) 0.6910(2)
H1_8 H 0.5658 0.0369 0.6910
N4_10 N 0.4849(4) 0.80088(17) 0.03652(14)
O7_10 O 0.4531(5) 0.69686(18) 0.01396(17)
O8_10 O 0.4263(4) 0.82016(14) 0.01554(11)
O9_6 O 0.5550(4) 0.88593(15) 0.02843(12)
O10_6 O 0.4902(4) 0.95661(15) 0.06663(12)
C26_10 C 0.4272(6) 0.7317(2) 0.01667(18)
C27_10 C 0.4919(6) 0.7593(2) 0.03755(18)
C28_10 C 0.5595(6) 0.7412(3) 0.0590(2)
H18_10 H 0.5658 0.7131 0.0590
C29_10 C 0.6175(7) 0.7641(3) 0.0801(3)
H19_10 H 0.6620 0.7518 0.0948
C30_10 C 0.6076(7) 0.8058(3) 0.0789(2)
H20_10 H 0.6469 0.8217 0.0928
C31_10 C 0.5418(6) 0.8244(2) 0.05788(17)
C32_10 C 0.5299(5) 0.8695(2) 0.05623(17)
C33_10 C 0.5003(5) 0.8883(2) 0.08528(18)
H21_10 H 0.4893 0.8718 0.1039
C34_10 C 0.4848(6) 0.9304(2) 0.08965(17)
C35_10 C 0.4604(6) 0.9463(3) 0.12355(19)
C36_10 C 0.4957(7) 0.9274(4) 0.1522(2)
H22_10 H 0.5310 0.9033 0.1503
C37_10 C 0.4211(10) 0.9776(5) 0.1869(2)
H23_10 H 0.4067 0.9874 0.2083
C38_10 C 0.4034(7) 0.9813(3) 0.1264(2)
H24_10 H 0.3788 0.9938 0.1072
C39_10 C 0.3829(8) 0.9977(3) 0.1583(2)
C40_10 C 0.4795(10) 0.9438(4) 0.1833(3)
H26_10 H 0.5082 0.9320 0.2021
O13_4 O 0.1950(4) 0.86407(15) 0.02843(12)
O15_6 O 0.2598(4) 0.79339(15) 0.06663(12)
N1_10 N 0.4849(4) 0.94912(17) 0.71348(14)
N2_10 N 0.2617(5) 0.91765(18) 0.79329(13)
O3_10 O 0.4263(4) 0.92984(14) 0.73446(11)
O4_6 O 0.5550(4) 0.86407(15) 0.72157(12)
O5_6 O 0.4902(4) 0.79339(15) 0.68337(12)
C2_10 C 0.4919(6) 0.9907(2) 0.71245(18)
C4_9 C 0.6175(7) 0.9859(3) 0.6699(3)
H2_9 H 0.6620 0.9982 0.6552
C5_9 C 0.6076(7) 0.9442(3) 0.6711(2)
H3_9 H 0.6469 0.9283 0.6572
C6_9 C 0.5418(6) 0.9256(2) 0.69212(17)
C7_9 C 0.5299(5) 0.8805(2) 0.69377(17)
C8_9 C 0.5003(5) 0.8617(2) 0.66472(18)
H4_10 H 0.4893 0.8782 0.6461
C9_10 C 0.4848(6) 0.8196(2) 0.66035(17)
C10_10 C 0.4604(6) 0.8037(3) 0.62645(19)
C11_10 C 0.4957(7) 0.8226(4) 0.5978(2)
H5_9 H 0.5310 0.8467 0.5997
C12_10 C 0.2680(6) 0.9410(2) 0.82051(18)
H6_10 H 0.2745 0.9690 0.8177
C13_10 C 0.2651(6) 0.9254(2) 0.85284(17)
H7_10 H 0.2718 0.9427 0.8712
C14_10 C 0.2522(6) 0.8840(2) 0.85785(16)
C15_10 C 0.2445(6) 0.8601(2) 0.82900(18)
H8_10 H 0.2355 0.8322 0.8309
C16_10 C 0.2501(6) 0.8777(2) 0.79766(18)
H9_10 H 0.2457 0.8611 0.7788
C17_10 C 0.4211(10) 0.7724(5) 0.5631(2)
H10_10 H 0.4067 0.7626 0.5417
C18_10 C 0.4034(7) 0.7687(3) 0.6236(2)
H11_10 H 0.3788 0.7562 0.6428
C19_10 C 0.3829(8) 0.7523(3) 0.5917(2)
H12_10 H 0.3451 0.7288 0.5895
C20_10 C 0.4795(10) 0.8062(4) 0.5667(3)
H13_9 H 0.5082 0.8180 0.5479
N3_10 N 0.2617(5) 0.83235(18) 0.95671(13)
C21_10 C 0.2680(6) 0.8090(2) 0.92949(18)
H14_10 H 0.2745 0.7810 0.9323
C22_10 C 0.2651(6) 0.8246(2) 0.89716(17)
H15_10 H 0.2718 0.8073 0.8788
C23_10 C 0.2522(6) 0.8660(2) 0.89215(16)
C24_10 C 0.2445(6) 0.8899(2) 0.92100(18)
H16_10 H 0.2355 0.9178 0.9191
C25_10 C 0.2501(6) 0.8723(2) 0.95234(18)
H17_10 H 0.2457 0.8889 0.9712
O14_6 O 0.1950(4) 0.88593(15) 0.72157(12)
O16_6 O 0.2598(4) 0.95661(15) 0.68337(12)
N1_11 N 0.4849(4) 0.30088(17) 0.53652(14)
N2_11 N 0.2617(5) 0.33235(18) 0.45671(13)
O2_11 O 0.4531(5) 0.19686(18) 0.51396(17)
O3_11 O 0.4263(4) 0.32016(14) 0.51554(11)
O4_7 O 0.5550(4) 0.38593(15) 0.52843(12)
O5_7 O 0.4902(4) 0.45661(15) 0.56663(12)
C1_11 C 0.4272(6) 0.2317(2) 0.51667(18)
C2_11 C 0.4919(6) 0.2593(2) 0.53755(18)
C3_9 C 0.5595(6) 0.2412(3) 0.5590(2)
H1_9 H 0.5658 0.2131 0.5590
C4_10 C 0.6175(7) 0.2641(3) 0.5801(3)
H2_10 H 0.6620 0.2518 0.5948
C5_10 C 0.6076(7) 0.3058(3) 0.5789(2)
H3_10 H 0.6469 0.3217 0.5928
C6_10 C 0.5418(6) 0.3244(2) 0.55788(17)
C7_10 C 0.5299(5) 0.3695(2) 0.55623(17)
C8_10 C 0.5003(5) 0.3883(2) 0.58528(18)
H4_11 H 0.4893 0.3718 0.6039
C9_11 C 0.4848(6) 0.4304(2) 0.58965(17)
C10_11 C 0.4604(6) 0.4463(3) 0.62355(19)
C11_11 C 0.4957(7) 0.4274(4) 0.6522(2)
H5_10 H 0.5310 0.4033 0.6503
C12_11 C 0.2680(6) 0.3090(2) 0.42949(18)
H6_11 H 0.2745 0.2810 0.4323
C13_11 C 0.2651(6) 0.3246(2) 0.39716(17)
H7_11 H 0.2718 0.3073 0.3788
C14_11 C 0.2522(6) 0.3660(2) 0.39215(16)
C15_11 C 0.2445(6) 0.3899(2) 0.42100(18)
H8_11 H 0.2355 0.4178 0.4191
C16_11 C 0.2501(6) 0.3723(2) 0.45234(18)
H9_11 H 0.2457 0.3889 0.4712
C17_11 C 0.4211(10) 0.4776(5) 0.6869(2)
H10_11 H 0.4067 0.4874 0.7083
C18_11 C 0.4034(7) 0.4813(3) 0.6264(2)
H11_11 H 0.3788 0.4938 0.6072
C19_11 C 0.3829(8) 0.4977(3) 0.6583(2)
H12_11 H 0.3451 0.5212 0.6605
C20_11 C 0.4795(10) 0.4438(4) 0.6833(3)
H13_10 H 0.5082 0.4320 0.7021
N3_11 N 0.2617(5) 0.41765(18) 0.29329(13)
C21_11 C 0.2680(6) 0.4410(2) 0.32051(18)
H14_11 H 0.2745 0.4690 0.3177
C22_11 C 0.2651(6) 0.4254(2) 0.35284(17)
H15_11 H 0.2718 0.4427 0.3712
C23_11 C 0.2522(6) 0.3840(2) 0.35785(16)
C24_11 C 0.2445(6) 0.3601(2) 0.32900(18)
H16_11 H 0.2355 0.3322 0.3309
C25_11 C 0.2501(6) 0.3777(2) 0.29766(18)
H17_11 H 0.2457 0.3611 0.2788
N4_11 N 0.4849(4) 0.44912(17) 0.21348(14)
O7_11 O 0.4531(5) 0.55314(18) 0.23604(17)
O8_11 O 0.4263(4) 0.42984(14) 0.23446(11)
O9_7 O 0.5550(4) 0.36407(15) 0.22157(12)
O10_7 O 0.4902(4) 0.29339(15) 0.18337(12)
C26_11 C 0.4272(6) 0.5183(2) 0.23333(18)
C27_11 C 0.4919(6) 0.4907(2) 0.21245(18)
C28_11 C 0.5595(6) 0.5088(3) 0.1910(2)
H18_11 H 0.5658 0.5369 0.1910
C29_11 C 0.6175(7) 0.4859(3) 0.1699(3)
H19_11 H 0.6620 0.4982 0.1552
C30_11 C 0.6076(7) 0.4442(3) 0.1711(2)
H20_11 H 0.6469 0.4283 0.1572
C31_11 C 0.5418(6) 0.4256(2) 0.19212(17)
C32_11 C 0.5299(5) 0.3805(2) 0.19377(17)
C33_11 C 0.5003(5) 0.3617(2) 0.16472(18)
H21_11 H 0.4893 0.3782 0.1461
C34_11 C 0.4848(6) 0.3196(2) 0.16035(17)
C35_11 C 0.4604(6) 0.3037(3) 0.12645(19)
C36_11 C 0.4957(7) 0.3226(4) 0.0978(2)
H22_11 H 0.5310 0.3467 0.0997
C37_11 C 0.4211(10) 0.2724(5) 0.0631(2)
H23_11 H 0.4067 0.2626 0.0417
C38_11 C 0.4034(7) 0.2687(3) 0.1236(2)
H24_11 H 0.3788 0.2562 0.1428
C39_11 C 0.3829(8) 0.2523(3) 0.0917(2)
H25_9 H 0.3451 0.2288 0.0895
C40_11 C 0.4795(10) 0.3062(4) 0.0667(3)
H26_11 H 0.5082 0.3180 0.0479
O13_5 O 0.1950(4) 0.38593(15) 0.22157(12)
O14_7 O 0.1950(4) 0.36407(15) 0.52843(12)
O15_7 O 0.2598(4) 0.45661(15) 0.18337(12)
O16_7 O 0.2598(4) 0.29339(15) 0.56663(12)
C15_12 C 0.0055(6) 0.8601(2) 0.42100(18)
H8_12 H 0.0145 0.8322 0.4191
H9_12 H 0.0043 0.8611 0.4712
C24_12 C 0.0055(6) 0.8899(2) 0.32900(18)
H16_12 H 0.0145 0.9178 0.3309
H17_12 H 0.0043 0.8889 0.2788
O13_6 O 0.0550(4) 0.86407(15) 0.22157(12)
O14_8 O 0.0550(4) 0.88593(15) 0.52843(12)
O2_12 O 0.7969(5) 0.05314(18) 0.51396(17)
C1_12 C 0.8228(6) 0.0183(2) 0.51667(18)
C3_10 C 0.6905(6) 0.0088(3) 0.5590(2)
H1_10 H 0.6842 0.0369 0.5590
H25_10 H 0.9049 0.0212 0.0895
N1_12 N 0.7651(4) 0.94912(17) 0.53652(14)
N2_12 N 0.9883(5) 0.91765(18) 0.45671(13)
O3_12 O 0.8237(4) 0.92984(14) 0.51554(11)
O4_8 O 0.6950(4) 0.86407(15) 0.52843(12)
O5_8 O 0.7598(4) 0.79339(15) 0.56663(12)
C2_12 C 0.7581(6) 0.9907(2) 0.53755(18)
C4_11 C 0.6325(7) 0.9859(3) 0.5801(3)
H2_11 H 0.5880 0.9982 0.5948
C5_11 C 0.6424(7) 0.9442(3) 0.5789(2)
H3_11 H 0.6031 0.9283 0.5928
C6_11 C 0.7082(6) 0.9256(2) 0.55788(17)
C7_11 C 0.7201(5) 0.8805(2) 0.55623(17)
C8_11 C 0.7497(5) 0.8617(2) 0.58528(18)
H4_12 H 0.7607 0.8782 0.6039
C9_12 C 0.7652(6) 0.8196(2) 0.58965(17)
C10_12 C 0.7896(6) 0.8037(3) 0.62355(19)
C11_12 C 0.7543(7) 0.8226(4) 0.6522(2)
H5_11 H 0.7190 0.8467 0.6503
C12_12 C 0.9820(6) 0.9410(2) 0.42949(18)
H6_12 H 0.9755 0.9690 0.4323
C13_12 C 0.9849(6) 0.9254(2) 0.39716(17)
H7_12 H 0.9782 0.9427 0.3788
C14_12 C 0.9978(6) 0.8840(2) 0.39215(16)
C16_12 C 0.9999(6) 0.8777(2) 0.45234(18)
C17_12 C 0.8289(10) 0.7724(5) 0.6869(2)
H10_12 H 0.8433 0.7626 0.7083
C18_12 C 0.8466(7) 0.7687(3) 0.6264(2)
H11_12 H 0.8712 0.7562 0.6072
C19_12 C 0.8671(8) 0.7523(3) 0.6583(2)
H12_12 H 0.9049 0.7288 0.6605
C20_12 C 0.7705(10) 0.8062(4) 0.6833(3)
H13_11 H 0.7418 0.8180 0.7021
N3_12 N 0.9883(5) 0.83235(18) 0.29329(13)
C21_12 C 0.9820(6) 0.8090(2) 0.32051(18)
H14_12 H 0.9755 0.7810 0.3177
C22_12 C 0.9849(6) 0.8246(2) 0.35284(17)
H15_12 H 0.9782 0.8073 0.3712
C23_12 C 0.9978(6) 0.8660(2) 0.35785(16)
C25_12 C 0.9999(6) 0.8723(2) 0.29766(18)
N4_12 N 0.7651(4) 0.80088(17) 0.21348(14)
O7_12 O 0.7969(5) 0.69686(18) 0.23604(17)
O8_12 O 0.8237(4) 0.82016(14) 0.23446(11)
O9_8 O 0.6950(4) 0.88593(15) 0.22157(12)
O10_8 O 0.7598(4) 0.95661(15) 0.18337(12)
C26_12 C 0.8228(6) 0.7317(2) 0.23333(18)
C27_12 C 0.7581(6) 0.7593(2) 0.21245(18)
C28_12 C 0.6905(6) 0.7412(3) 0.1910(2)
H18_12 H 0.6842 0.7131 0.1910
C29_12 C 0.6325(7) 0.7641(3) 0.1699(3)
H19_12 H 0.5880 0.7518 0.1552
C30_12 C 0.6424(7) 0.8058(3) 0.1711(2)
H20_12 H 0.6031 0.8217 0.1572
C31_12 C 0.7082(6) 0.8244(2) 0.19212(17)
C32_12 C 0.7201(5) 0.8695(2) 0.19377(17)
C33_12 C 0.7497(5) 0.8883(2) 0.16472(18)
H21_12 H 0.7607 0.8718 0.1461
C34_12 C 0.7652(6) 0.9304(2) 0.16035(17)
C35_12 C 0.7896(6) 0.9463(3) 0.12645(19)
C36_12 C 0.7543(7) 0.9274(4) 0.0978(2)
H22_12 H 0.7190 0.9033 0.0997
C37_12 C 0.8289(10) 0.9776(5) 0.0631(2)
H23_12 H 0.8433 0.9874 0.0417
C38_12 C 0.8466(7) 0.9813(3) 0.1236(2)
H24_12 H 0.8712 0.9938 0.1428
C39_12 C 0.8671(8) 0.9977(3) 0.0917(2)
C40_12 C 0.7705(10) 0.9438(4) 0.0667(3)
H26_12 H 0.7418 0.9320 0.0479
O15_8 O 0.9902(4) 0.79339(15) 0.18337(12)
O16_8 O 0.9902(4) 0.95661(15) 0.56663(12)
N1_13 N 0.2651(4) 0.30088(17) 0.21348(14)
N2_13 N 0.4883(5) 0.33235(18) 0.29329(13)
O2_13 O 0.2969(5) 0.19686(18) 0.23604(17)
O3_13 O 0.3237(4) 0.32016(14) 0.23446(11)
C1_13 C 0.3228(6) 0.2317(2) 0.23333(18)
C2_13 C 0.2581(6) 0.2593(2) 0.21245(18)
C3_11 C 0.1905(6) 0.2412(3) 0.1910(2)
H1_11 H 0.1842 0.2131 0.1910
C4_12 C 0.1325(7) 0.2641(3) 0.1699(3)
H2_12 H 0.0880 0.2518 0.1552
C5_12 C 0.1424(7) 0.3058(3) 0.1711(2)
H3_12 H 0.1031 0.3217 0.1572
C6_12 C 0.2082(6) 0.3244(2) 0.19212(17)
C7_12 C 0.2201(5) 0.3695(2) 0.19377(17)
C8_12 C 0.2497(5) 0.3883(2) 0.16472(18)
H4_13 H 0.2607 0.3718 0.1461
C9_13 C 0.2652(6) 0.4304(2) 0.16035(17)
C10_13 C 0.2896(6) 0.4463(3) 0.12645(19)
C11_13 C 0.2543(7) 0.4274(4) 0.0978(2)
H5_12 H 0.2190 0.4033 0.0997
C12_13 C 0.4820(6) 0.3090(2) 0.32051(18)
H6_13 H 0.4755 0.2810 0.3177
C13_13 C 0.4849(6) 0.3246(2) 0.35284(17)
H7_13 H 0.4782 0.3073 0.3712
C14_13 C 0.4978(6) 0.3660(2) 0.35785(16)
C15_13 C 0.5055(6) 0.3899(2) 0.32900(18)
H8_13 H 0.5145 0.4178 0.3309
C16_13 C 0.4999(6) 0.3723(2) 0.29766(18)
H9_13 H 0.5043 0.3889 0.2788
C17_13 C 0.3289(10) 0.4776(5) 0.0631(2)
H10_13 H 0.3433 0.4874 0.0417
C18_13 C 0.3466(7) 0.4813(3) 0.1236(2)
H11_13 H 0.3712 0.4938 0.1428
C19_13 C 0.3671(8) 0.4977(3) 0.0917(2)
H12_13 H 0.4049 0.5212 0.0895
C20_13 C 0.2705(10) 0.4438(4) 0.0667(3)
H13_12 H 0.2418 0.4320 0.0479
N3_13 N 0.4883(5) 0.41765(18) 0.45671(13)
C21_13 C 0.4820(6) 0.4410(2) 0.42949(18)
H14_13 H 0.4755 0.4690 0.4323
C22_13 C 0.4849(6) 0.4254(2) 0.39716(17)
H15_13 H 0.4782 0.4427 0.3788
C23_13 C 0.4978(6) 0.3840(2) 0.39215(16)
C24_13 C 0.5055(6) 0.3601(2) 0.42100(18)
H16_13 H 0.5145 0.3322 0.4191
C25_13 C 0.4999(6) 0.3777(2) 0.45234(18)
H17_13 H 0.5043 0.3611 0.4712
N4_13 N 0.2651(4) 0.44912(17) 0.53652(14)
O7_13 O 0.2969(5) 0.55314(18) 0.51396(17)
O8_13 O 0.3237(4) 0.42984(14) 0.51554(11)
C26_13 C 0.3228(6) 0.5183(2) 0.51667(18)
C27_13 C 0.2581(6) 0.4907(2) 0.53755(18)
C28_13 C 0.1905(6) 0.5088(3) 0.5590(2)
H18_13 H 0.1842 0.5369 0.5590
C29_13 C 0.1325(7) 0.4859(3) 0.5801(3)
H19_13 H 0.0880 0.4982 0.5948
C30_13 C 0.1424(7) 0.4442(3) 0.5789(2)
H20_13 H 0.1031 0.4283 0.5928
C31_13 C 0.2082(6) 0.4256(2) 0.55788(17)
C32_13 C 0.2201(5) 0.3805(2) 0.55623(17)
C33_13 C 0.2497(5) 0.3617(2) 0.58528(18)
H21_13 H 0.2607 0.3782 0.6039
C34_13 C 0.2652(6) 0.3196(2) 0.58965(17)
C35_13 C 0.2896(6) 0.3037(3) 0.62355(19)
C36_13 C 0.2543(7) 0.3226(4) 0.6522(2)
H22_13 H 0.2190 0.3467 0.6503
C37_13 C 0.3289(10) 0.2724(5) 0.6869(2)
H23_13 H 0.3433 0.2626 0.7083
C38_13 C 0.3466(7) 0.2687(3) 0.6264(2)
H24_13 H 0.3712 0.2562 0.6072
C39_13 C 0.3671(8) 0.2523(3) 0.6583(2)
H25_11 H 0.4049 0.2288 0.6605
C40_13 C 0.2705(10) 0.3062(4) 0.6833(3)
H26_13 H 0.2418 0.3180 0.7021
C4_13 C 0.1175(7) 0.9859(3) 0.1699(3)
H2_13 H 0.1620 0.9982 0.1552
C5_13 C 0.1076(7) 0.9442(3) 0.1711(2)
H3_13 H 0.1469 0.9283 0.1572
C6_13 C 0.0418(6) 0.9256(2) 0.19212(17)
C7_13 C 0.0299(5) 0.8805(2) 0.19377(17)
C8_13 C 0.0003(5) 0.8617(2) 0.16472(18)
H5_13 H 0.0310 0.8467 0.0997
H13_13 H 0.0082 0.8180 0.0479
C28_14 C 0.0595(6) 0.7412(3) 0.5590(2)
H18_14 H 0.0658 0.7131 0.5590
C29_14 C 0.1175(7) 0.7641(3) 0.5801(3)
H19_14 H 0.1620 0.7518 0.5948
C30_14 C 0.1076(7) 0.8058(3) 0.5789(2)
H20_14 H 0.1469 0.8217 0.5928
C31_14 C 0.0418(6) 0.8244(2) 0.55788(17)
C32_14 C 0.0299(5) 0.8695(2) 0.55623(17)
C33_14 C 0.0003(5) 0.8883(2) 0.58528(18)
H22_14 H 0.0310 0.9033 0.6503
H26_14 H 0.0082 0.9320 0.7021
O2_14 O 0.9531(5) 0.05314(18) 0.23604(17)
C1_14 C 0.9272(6) 0.0183(2) 0.23333(18)
H25_12 H 0.8451 0.0212 0.6605
N1_14 N 0.9849(4) 0.94912(17) 0.21348(14)
N2_14 N 0.7617(5) 0.91765(18) 0.29329(13)
O3_14 O 0.9263(4) 0.92984(14) 0.23446(11)
C2_14 C 0.9919(6) 0.9907(2) 0.21245(18)
H4_14 H 0.9893 0.8782 0.1461
C9_14 C 0.9848(6) 0.8196(2) 0.16035(17)
C10_14 C 0.9604(6) 0.8037(3) 0.12645(19)
C11_14 C 0.9957(7) 0.8226(4) 0.0978(2)
C12_14 C 0.7680(6) 0.9410(2) 0.32051(18)
H6_14 H 0.7745 0.9690 0.3177
C13_14 C 0.7651(6) 0.9254(2) 0.35284(17)
H7_14 H 0.7718 0.9427 0.3712
C14_14 C 0.7522(6) 0.8840(2) 0.35785(16)
C15_14 C 0.7445(6) 0.8601(2) 0.32900(18)
H8_14 H 0.7355 0.8322 0.3309
C16_14 C 0.7501(6) 0.8777(2) 0.29766(18)
H9_14 H 0.7457 0.8611 0.2788
C17_14 C 0.9211(10) 0.7724(5) 0.0631(2)
H10_14 H 0.9067 0.7626 0.0417
C18_14 C 0.9034(7) 0.7687(3) 0.1236(2)
H11_14 H 0.8788 0.7562 0.1428
C19_14 C 0.8829(8) 0.7523(3) 0.0917(2)
H12_14 H 0.8451 0.7288 0.0895
C20_14 C 0.9795(10) 0.8062(4) 0.0667(3)
N3_14 N 0.7617(5) 0.83235(18) 0.45671(13)
C21_14 C 0.7680(6) 0.8090(2) 0.42949(18)
H14_14 H 0.7745 0.7810 0.4323
C22_14 C 0.7651(6) 0.8246(2) 0.39716(17)
H15_14 H 0.7718 0.8073 0.3788
C23_14 C 0.7522(6) 0.8660(2) 0.39215(16)
C24_14 C 0.7445(6) 0.8899(2) 0.42100(18)
H16_14 H 0.7355 0.9178 0.4191
C25_14 C 0.7501(6) 0.8723(2) 0.45234(18)
H17_14 H 0.7457 0.8889 0.4712
N4_14 N 0.9849(4) 0.80088(17) 0.53652(14)
O7_14 O 0.9531(5) 0.69686(18) 0.51396(17)
O8_14 O 0.9263(4) 0.82016(14) 0.51554(11)
C26_14 C 0.9272(6) 0.7317(2) 0.51667(18)
C27_14 C 0.9919(6) 0.7593(2) 0.53755(18)
H21_14 H 0.9893 0.8718 0.6039
C34_14 C 0.9848(6) 0.9304(2) 0.58965(17)
C35_14 C 0.9604(6) 0.9463(3) 0.62355(19)
C36_14 C 0.9957(7) 0.9274(4) 0.6522(2)
C37_14 C 0.9211(10) 0.9776(5) 0.6869(2)
H23_14 H 0.9067 0.9874 0.7083
C38_14 C 0.9034(7) 0.9813(3) 0.6264(2)
H24_14 H 0.8788 0.9938 0.6072
C39_14 C 0.8829(8) 0.9977(3) 0.6583(2)
C40_14 C 0.9795(10) 0.9438(4) 0.6833(3)
C28_15 C 0.0595(6) 0.5088(3) 0.6910(2)
H18_15 H 0.0658 0.5369 0.6910
C29_15 C 0.1175(7) 0.4859(3) 0.6699(3)
H19_15 H 0.1620 0.4982 0.6552
C30_15 C 0.1076(7) 0.4442(3) 0.6711(2)
H20_15 H 0.1469 0.4283 0.6572
C31_15 C 0.0418(6) 0.4256(2) 0.69212(17)
C32_15 C 0.0299(5) 0.3805(2) 0.69377(17)
C33_15 C 0.0003(5) 0.3617(2) 0.66472(18)
H22_15 H 0.0310 0.3467 0.5997
H26_15 H 0.0082 0.3180 0.5479
N1_15 N 0.9849(4) 0.30088(17) 0.03652(14)
O2_15 O 0.9531(5) 0.19686(18) 0.01396(17)
O3_15 O 0.9263(4) 0.32016(14) 0.01554(11)
C1_15 C 0.9272(6) 0.2317(2) 0.01667(18)
C2_15 C 0.9919(6) 0.2593(2) 0.03755(18)
H4_15 H 0.9893 0.3718 0.1039
C9_15 C 0.9848(6) 0.4304(2) 0.08965(17)
C10_15 C 0.9604(6) 0.4463(3) 0.12355(19)
C11_15 C 0.9957(7) 0.4274(4) 0.1522(2)
C17_15 C 0.9211(10) 0.4776(5) 0.1869(2)
H10_15 H 0.9067 0.4874 0.2083
C18_15 C 0.9034(7) 0.4813(3) 0.1264(2)
H11_15 H 0.8788 0.4938 0.1072
C19_15 C 0.8829(8) 0.4977(3) 0.1583(2)
H12_15 H 0.8451 0.5212 0.1605
C20_15 C 0.9795(10) 0.4438(4) 0.1833(3)
N2_15 N 0.7617(5) 0.33235(18) 0.95671(13)
C12_15 C 0.7680(6) 0.3090(2) 0.92949(18)
H6_15 H 0.7745 0.2810 0.9323
C13_15 C 0.7651(6) 0.3246(2) 0.89716(17)
H7_15 H 0.7718 0.3073 0.8788
C14_15 C 0.7522(6) 0.3660(2) 0.89215(16)
C15_15 C 0.7445(6) 0.3899(2) 0.92100(18)
H8_15 H 0.7355 0.4178 0.9191
C16_15 C 0.7501(6) 0.3723(2) 0.95234(18)
H9_15 H 0.7457 0.3889 0.9712
N3_15 N 0.7617(5) 0.41765(18) 0.79329(13)
C21_15 C 0.7680(6) 0.4410(2) 0.82051(18)
H14_15 H 0.7745 0.4690 0.8177
C22_15 C 0.7651(6) 0.4254(2) 0.85284(17)
H15_15 H 0.7718 0.4427 0.8712
C23_15 C 0.7522(6) 0.3840(2) 0.85785(16)
C24_15 C 0.7445(6) 0.3601(2) 0.82900(18)
H16_15 H 0.7355 0.3322 0.8309
C25_15 C 0.7501(6) 0.3777(2) 0.79766(18)
H17_15 H 0.7457 0.3611 0.7788
N4_15 N 0.9849(4) 0.44912(17) 0.71348(14)
O7_15 O 0.9531(5) 0.55314(18) 0.73604(17)
O8_15 O 0.9263(4) 0.42984(14) 0.73446(11)
C26_15 C 0.9272(6) 0.5183(2) 0.73333(18)
C27_15 C 0.9919(6) 0.4907(2) 0.71245(18)
H21_15 H 0.9893 0.3782 0.6461
C34_15 C 0.9848(6) 0.3196(2) 0.66035(17)
C35_15 C 0.9604(6) 0.3037(3) 0.62645(19)
C36_15 C 0.9957(7) 0.3226(4) 0.5978(2)
C37_15 C 0.9211(10) 0.2724(5) 0.5631(2)
H23_15 H 0.9067 0.2626 0.5417
C38_15 C 0.9034(7) 0.2687(3) 0.6236(2)
H24_15 H 0.8788 0.2562 0.6428
C39_15 C 0.8829(8) 0.2523(3) 0.5917(2)
H25_13 H 0.8451 0.2288 0.5895
C40_15 C 0.9795(10) 0.3062(4) 0.5667(3)
O2_16 O 0.2969(5) 0.05314(18) 0.01396(17)
C1_16 C 0.3228(6) 0.0183(2) 0.01667(18)
C3_12 C 0.1905(6) 0.0088(3) 0.0590(2)
H1_12 H 0.1842 0.0369 0.0590
H25_14 H 0.4049 0.0212 0.5895
N1_16 N 0.2651(4) 0.94912(17) 0.03652(14)
O3_16 O 0.3237(4) 0.92984(14) 0.01554(11)
C2_16 C 0.2581(6) 0.9907(2) 0.03755(18)
C4_14 C 0.1325(7) 0.9859(3) 0.0801(3)
H2_14 H 0.0880 0.9982 0.0948
C5_14 C 0.1424(7) 0.9442(3) 0.0789(2)
H3_14 H 0.1031 0.9283 0.0928
C6_14 C 0.2082(6) 0.9256(2) 0.05788(17)
C7_14 C 0.2201(5) 0.8805(2) 0.05623(17)
C8_14 C 0.2497(5) 0.8617(2) 0.08528(18)
H4_16 H 0.2607 0.8782 0.1039
C9_16 C 0.2652(6) 0.8196(2) 0.08965(17)
C10_16 C 0.2896(6) 0.8037(3) 0.12355(19)
C11_16 C 0.2543(7) 0.8226(4) 0.1522(2)
H5_14 H 0.2190 0.8467 0.1503
C17_16 C 0.3289(10) 0.7724(5) 0.1869(2)
H10_16 H 0.3433 0.7626 0.2083
C18_16 C 0.3466(7) 0.7687(3) 0.1264(2)
H11_16 H 0.3712 0.7562 0.1072
C19_16 C 0.3671(8) 0.7523(3) 0.1583(2)
H12_16 H 0.4049 0.7288 0.1605
C20_16 C 0.2705(10) 0.8062(4) 0.1833(3)
H13_14 H 0.2418 0.8180 0.2021
N2_16 N 0.4883(5) 0.91765(18) 0.95671(13)
C12_16 C 0.4820(6) 0.9410(2) 0.92949(18)
H6_16 H 0.4755 0.9690 0.9323
C13_16 C 0.4849(6) 0.9254(2) 0.89716(17)
H7_16 H 0.4782 0.9427 0.8788
C14_16 C 0.4978(6) 0.8840(2) 0.89215(16)
C15_16 C 0.5055(6) 0.8601(2) 0.92100(18)
H8_16 H 0.5145 0.8322 0.9191
C16_16 C 0.4999(6) 0.8777(2) 0.95234(18)
H9_16 H 0.5043 0.8611 0.9712
N3_16 N 0.4883(5) 0.83235(18) 0.79329(13)
C21_16 C 0.4820(6) 0.8090(2) 0.82051(18)
H14_16 H 0.4755 0.7810 0.8177
C22_16 C 0.4849(6) 0.8246(2) 0.85284(17)
H15_16 H 0.4782 0.8073 0.8712
C23_16 C 0.4978(6) 0.8660(2) 0.85785(16)
C24_16 C 0.5055(6) 0.8899(2) 0.82900(18)
H16_16 H 0.5145 0.9178 0.8309
C25_16 C 0.4999(6) 0.8723(2) 0.79766(18)
H17_16 H 0.5043 0.8889 0.7788
N4_16 N 0.2651(4) 0.80088(17) 0.71348(14)
O7_16 O 0.2969(5) 0.69686(18) 0.73604(17)
O8_16 O 0.3237(4) 0.82016(14) 0.73446(11)
C26_16 C 0.3228(6) 0.7317(2) 0.73333(18)
C27_16 C 0.2581(6) 0.7593(2) 0.71245(18)
C28_16 C 0.1905(6) 0.7412(3) 0.6910(2)
H18_16 H 0.1842 0.7131 0.6910
C29_16 C 0.1325(7) 0.7641(3) 0.6699(3)
H19_16 H 0.0880 0.7518 0.6552
C30_16 C 0.1424(7) 0.8058(3) 0.6711(2)
H20_16 H 0.1031 0.8217 0.6572
C31_16 C 0.2082(6) 0.8244(2) 0.69212(17)
C32_16 C 0.2201(5) 0.8695(2) 0.69377(17)
C33_16 C 0.2497(5) 0.8883(2) 0.66472(18)
H21_16 H 0.2607 0.8718 0.6461
C34_16 C 0.2652(6) 0.9304(2) 0.66035(17)
C35_16 C 0.2896(6) 0.9463(3) 0.62645(19)
C36_16 C 0.2543(7) 0.9274(4) 0.5978(2)
H22_16 H 0.2190 0.9033 0.5997
C37_16 C 0.3289(10) 0.9776(5) 0.5631(2)
H23_16 H 0.3433 0.9874 0.5417
C38_16 C 0.3466(7) 0.9813(3) 0.6236(2)
H24_16 H 0.3712 0.9938 0.6428
C39_16 C 0.3671(8) 0.9977(3) 0.5917(2)
C40_16 C 0.2705(10) 0.9438(4) 0.5667(3)
H26_16 H 0.2418 0.9320 0.5479
O13_7 O 0.9450(4) 0.61407(15) 0.97157(12)
C3_13 C 0.9405(6) 0.7588(3) 0.9410(2)
H1_13 H 0.9342 0.7869 0.9410
C4_15 C 0.8825(7) 0.7359(3) 0.9199(3)
H2_15 H 0.8380 0.7482 0.9052
C5_15 C 0.8924(7) 0.6942(3) 0.9211(2)
H3_15 H 0.8531 0.6783 0.9072
C6_15 C 0.9582(6) 0.6756(2) 0.94212(17)
C7_15 C 0.9701(5) 0.6305(2) 0.94377(17)
C8_15 C 0.9997(5) 0.6117(2) 0.91472(18)
H5_15 H 0.9690 0.5967 0.8497
H13_15 H 0.9918 0.5680 0.7979
H25_15 H 0.6549 0.9788 0.8395
C3_14 C 0.9405(6) 0.9912(3) 0.8090(2)
H1_14 H 0.9342 0.9631 0.8090
O13_8 O 0.0550(4) 0.38593(15) 0.02843(12)
C3_15 C 0.0595(6) 0.2412(3) 0.0590(2)
H1_15 H 0.0658 0.2131 0.0590
C4_16 C 0.1175(7) 0.2641(3) 0.0801(3)
H2_16 H 0.1620 0.2518 0.0948
C5_16 C 0.1076(7) 0.3058(3) 0.0789(2)
H3_16 H 0.1469 0.3217 0.0928
C6_16 C 0.0418(6) 0.3244(2) 0.05788(17)
C7_16 C 0.0299(5) 0.3695(2) 0.05623(17)
C8_16 C 0.0003(5) 0.3883(2) 0.08528(18)
H5_16 H 0.0310 0.4033 0.1503
H13_16 H 0.0082 0.4320 0.2021
H25_16 H 0.3451 0.0212 0.1605
C3_16 C 0.0595(6) 0.0088(3) 0.1910(2)
H1_16 H 0.0658 0.0369 0.1910
loop_
_geom_bond_atom_site_label_1
_geom_bond_atom_site_label_2
_geom_bond_site_symmetry_1
_geom_bond_site_symmetry_2
Cd1 N2 1_555 1_555
N1 O3 1_555 1_555
N2 C12 1_555 1_555
O1 Cd1 1_555 1_555
O2 C1 1_555 1_555
O3 Cd1 1_555 1_555
O4 C7 1_555 1_555
O5 C9 1_555 1_555
C1 O1 1_555 1_555
C2 N1 1_555 1_555
C3 C2 1_555 1_555
H1 C3 1_555 1_555
C4 C3 1_555 1_555
H2 C4 1_555 1_555
C5 C4 1_555 1_555
H3 C5 1_555 1_555
C6 N1 1_555 1_555
C7 C6 1_555 1_555
C8 C7 1_555 1_555
H4 C8 1_555 1_555
C9 C8 1_555 1_555
C10 C9 1_555 1_555
C11 C10 1_555 1_555
H5 C11 1_555 1_555
C12 H6 1_555 1_555
C13 C12 1_555 1_555
H7 C13 1_555 1_555
C14 C13 1_555 1_555
C16 N2 1_555 1_555
C17 H10 1_555 1_555
C18 C10 1_555 1_555
H11 C18 1_555 1_555
C19 C17 1_555 1_555
H12 C19 1_555 1_555
C20 C11 1_555 1_555
H13 C20 1_555 1_555
N3 C21 1_555 1_555
C21 H14 1_555 1_555
C22 C21 1_555 1_555
H15 C22 1_555 1_555
C23 C14 1_555 1_555
C25 N3 1_555 1_555
Cd4 O4 1_555 1_555
O16 Cd1 1_555 1_555
O5 Cd4 1_555 1_555
C1 C2 1_555 1_555
C5 C6 1_555 1_555
C17 C20 1_555 1_555
C18 C19 1_555 1_555
C22 C23 1_555 1_555
N4 O8 1_555 1_555
O6 Cd2 1_555 1_555
O7 C26 1_555 1_555
O8 Cd2 1_555 1_555
O9 C32 1_555 1_555
O10 C34 1_555 1_555
C26 O6 1_555 1_555
C27 N4 1_555 1_555
C28 C27 1_555 1_555
H18 C28 1_555 1_555
C29 C28 1_555 1_555
H19 C29 1_555 1_555
C30 C29 1_555 1_555
H20 C30 1_555 1_555
C31 N4 1_555 1_555
C32 C31 1_555 1_555
C33 C32 1_555 1_555
H21 C33 1_555 1_555
C34 C33 1_555 1_555
C35 C34 1_555 1_555
C36 C35 1_555 1_555
H22 C36 1_555 1_555
C37 H23 1_555 1_555
C38 C35 1_555 1_555
H24 C38 1_555 1_555
C39 C37 1_555 1_555
H25 C39 1_555 1_555
C40 C36 1_555 1_555
H26 C40 1_555 1_555
Cd3 O9 1_555 1_555
O15 Cd2 1_555 1_555
O10 Cd3 1_555 1_555
C26 C27 1_555 1_555
C30 C31 1_555 1_555
C37 C40 1_555 1_555
C38 C39 1_555 1_555
H8 C15 1_555 1_555
H16 C24 1_555 1_555
Cd5 O11 1_555 1_555
Cd6 O12 1_555 1_555
Cd1_2 N2_2 1_555 1_555
N1_2 O3_2 1_555 1_555
N2_2 C12_2 1_555 1_555
O3_2 Cd1_2 1_555 1_555
O4_2 C7_2 1_555 1_555
O5_2 C9_2 1_555 1_555
C2_2 N1_2 1_555 1_555
H2_2 C4_2 1_555 1_555
C5_2 C4_2 1_555 1_555
H3_2 C5_2 1_555 1_555
C6_2 N1_2 1_555 1_555
C7_2 C6_2 1_555 1_555
C8_2 C7_2 1_555 1_555
H4_2 C8_2 1_555 1_555
C9_2 C8_2 1_555 1_555
C10_2 C9_2 1_555 1_555
C11_2 C10_2 1_555 1_555
H5_2 C11_2 1_555 1_555
C12_2 H6_2 1_555 1_555
C13_2 C12_2 1_555 1_555
H7_2 C13_2 1_555 1_555
C14_2 C13_2 1_555 1_555
C15_2 C14_2 1_555 1_555
H8_2 C15_2 1_555 1_555
C16_2 N2_2 1_555 1_555
H9_2 C16_2 1_555 1_555
C17_2 H10_2 1_555 1_555
C18_2 C10_2 1_555 1_555
H11_2 C18_2 1_555 1_555
C19_2 C17_2 1_555 1_555
H12_2 C19_2 1_555 1_555
C20_2 C11_2 1_555 1_555
H13_2 C20_2 1_555 1_555
N3_2 C21_2 1_555 1_555
C21_2 H14_2 1_555 1_555
C22_2 C21_2 1_555 1_555
H15_2 C22_2 1_555 1_555
C23_2 C14_2 1_555 1_555
C24_2 C23_2 1_555 1_555
H16_2 C24_2 1_555 1_555
C25_2 N3_2 1_555 1_555
H17_2 C25_2 1_555 1_555
Cd4_2 O4_2 1_555 1_555
O11_2 Cd1_2 1_555 1_555
O14_2 Cd1_2 1_555 1_555
O16_2 Cd1_2 1_555 1_555
O5_2 Cd4_2 1_555 1_555
C5_2 C6_2 1_555 1_555
C15_2 C16_2 1_555 1_555
C17_2 C20_2 1_555 1_555
C18_2 C19_2 1_555 1_555
C22_2 C23_2 1_555 1_555
C24_2 C25_2 1_555 1_555
Cd6_2 O12_2 1_555 1_555
N4_2 O8_2 1_555 1_555
O6_2 Cd2_2 1_555 1_555
O7_2 C26_2 1_555 1_555
O8_2 Cd2_2 1_555 1_555
O9_2 C32_2 1_555 1_555
O10_2 C34_2 1_555 1_555
C26_2 O6_2 1_555 1_555
C27_2 N4_2 1_555 1_555
C28_2 C27_2 1_555 1_555
H18_2 C28_2 1_555 1_555
C29_2 C28_2 1_555 1_555
H19_2 C29_2 1_555 1_555
C30_2 C29_2 1_555 1_555
H20_2 C30_2 1_555 1_555
C31_2 N4_2 1_555 1_555
C32_2 C31_2 1_555 1_555
C33_2 C32_2 1_555 1_555
H21_2 C33_2 1_555 1_555
C34_2 C33_2 1_555 1_555
C35_2 C34_2 1_555 1_555
C36_2 C35_2 1_555 1_555
H22_2 C36_2 1_555 1_555
C37_2 H23_2 1_555 1_555
C38_2 C35_2 1_555 1_555
H24_2 C38_2 1_555 1_555
C39_2 C37_2 1_555 1_555
C40_2 C36_2 1_555 1_555
H26_2 C40_2 1_555 1_555
Cd3_2 O9_2 1_555 1_555
O13 Cd2_2 1_555 1_555
O15_2 Cd2_2 1_555 1_555
O10_2 Cd3_2 1_555 1_555
C26_2 C27_2 1_555 1_555
C30_2 C31_2 1_555 1_555
C37_2 C40_2 1_555 1_555
C38_2 C39_2 1_555 1_555
O2_2 C1_2 1_555 1_555
C1_2 O1_2 1_555 1_555
H1_2 C3_2 1_555 1_555
Cd5_2 O1_2 1_555 1_555
Cd1_3 N2_3 1_555 1_555
N1_3 O3_3 1_555 1_555
N2_3 C12_3 1_555 1_555
O1_3 Cd1_3 1_555 1_555
O2_3 C1_3 1_555 1_555
O3_3 Cd1_3 1_555 1_555
O4_3 C7_3 1_555 1_555
O5_3 C9_3 1_555 1_555
C1_3 O1_3 1_555 1_555
C2_3 N1_3 1_555 1_555
C3_3 C2_3 1_555 1_555
H1_3 C3_3 1_555 1_555
C4_3 C3_3 1_555 1_555
H2_3 C4_3 1_555 1_555
C5_3 C4_3 1_555 1_555
H3_3 C5_3 1_555 1_555
C6_3 N1_3 1_555 1_555
C7_3 C6_3 1_555 1_555
C8_3 C7_3 1_555 1_555
H4_3 C8_3 1_555 1_555
C9_3 C8_3 1_555 1_555
C10_3 C9_3 1_555 1_555
C11_3 C10_3 1_555 1_555
H5_3 C11_3 1_555 1_555
C12_3 H6_3 1_555 1_555
C13_3 C12_3 1_555 1_555
H7_3 C13_3 1_555 1_555
C14_3 C13_3 1_555 1_555
C15_3 C14_3 1_555 1_555
H8_3 C15_3 1_555 1_555
C16_3 N2_3 1_555 1_555
H9_3 C16_3 1_555 1_555
C17_3 H10_3 1_555 1_555
C18_3 C10_3 1_555 1_555
H11_3 C18_3 1_555 1_555
C19_3 C17_3 1_555 1_555
H12_3 C19_3 1_555 1_555
C20_3 C11_3 1_555 1_555
H13_3 C20_3 1_555 1_555
N3_3 C21_3 1_555 1_555
C21_3 H14_3 1_555 1_555
C22_3 C21_3 1_555 1_555
H15_3 C22_3 1_555 1_555
C23_3 C14_3 1_555 1_555
C24_3 C23_3 1_555 1_555
H16_3 C24_3 1_555 1_555
C25_3 N3_3 1_555 1_555
H17_3 C25_3 1_555 1_555
Cd2_3 N3_3 1_555 1_555
N4_3 O8_3 1_555 1_555
O6_3 Cd2_3 1_555 1_555
O7_3 C26_3 1_555 1_555
O8_3 Cd2_3 1_555 1_555
O9_3 C32_3 1_555 1_555
O10_3 C34_3 1_555 1_555
C26_3 O6_3 1_555 1_555
C27_3 N4_3 1_555 1_555
C28_3 C27_3 1_555 1_555
H18_3 C28_3 1_555 1_555
C29_3 C28_3 1_555 1_555
H19_3 C29_3 1_555 1_555
C30_3 C29_3 1_555 1_555
H20_3 C30_3 1_555 1_555
C31_3 N4_3 1_555 1_555
C32_3 C31_3 1_555 1_555
C33_3 C32_3 1_555 1_555
H21_3 C33_3 1_555 1_555
C34_3 C33_3 1_555 1_555
C35_3 C34_3 1_555 1_555
C36_3 C35_3 1_555 1_555
H22_3 C36_3 1_555 1_555
C37_3 H23_3 1_555 1_555
C38_3 C35_3 1_555 1_555
H24_3 C38_3 1_555 1_555
C39_3 C37_3 1_555 1_555
H25_2 C39_3 1_555 1_555
C40_3 C36_3 1_555 1_555
H26_3 C40_3 1_555 1_555
Cd3_3 O9_3 1_555 1_555
Cd4_3 O4_3 1_555 1_555
Cd5_3 O1_3 1_555 1_555
Cd6_3 O6_3 1_555 1_555
O11_3 Cd1_3 1_555 1_555
O12_3 Cd2_3 1_555 1_555
O13_2 Cd2_3 1_555 1_555
O14_3 Cd1_3 1_555 1_555
O15_3 Cd2_3 1_555 1_555
O16_3 Cd1_3 1_555 1_555
O5_3 Cd4_3 1_555 1_555
C1_3 C2_3 1_555 1_555
C5_3 C6_3 1_555 1_555
C15_3 C16_3 1_555 1_555
C17_3 C20_3 1_555 1_555
C18_3 C19_3 1_555 1_555
C22_3 C23_3 1_555 1_555
C24_3 C25_3 1_555 1_555
O10_3 Cd3_3 1_555 1_555
C26_3 C27_3 1_555 1_555
C30_3 C31_3 1_555 1_555
C37_3 C40_3 1_555 1_555
C38_3 C39_3 1_555 1_555
Cd5_3 O11_3 1_555 1_555
Cd6_3 O12_3 1_555 1_555
Cd1_4 N2_4 1_555 1_555
N1_4 O3_4 1_555 1_555
N2_4 C12_4 1_555 1_555
O3_4 Cd1_4 1_555 1_555
O4_4 C7_4 1_555 1_555
O5_4 C9_4 1_555 1_555
C2_4 N1_4 1_555 1_555
H2_4 C4_4 1_555 1_555
C5_4 C4_4 1_555 1_555
H3_4 C5_4 1_555 1_555
C6_4 N1_4 1_555 1_555
C7_4 C6_4 1_555 1_555
C8_4 C7_4 1_555 1_555
H4_4 C8_4 1_555 1_555
C9_4 C8_4 1_555 1_555
C10_4 C9_4 1_555 1_555
C11_4 C10_4 1_555 1_555
H5_4 C11_4 1_555 1_555
C12_4 H6_4 1_555 1_555
C13_4 C12_4 1_555 1_555
H7_4 C13_4 1_555 1_555
C14_4 C13_4 1_555 1_555
C16_4 N2_4 1_555 1_555
C17_4 H10_4 1_555 1_555
C18_4 C10_4 1_555 1_555
H11_4 C18_4 1_555 1_555
C19_4 C17_4 1_555 1_555
H12_4 C19_4 1_555 1_555
C20_4 C11_4 1_555 1_555
H13_4 C20_4 1_555 1_555
N3_4 C21_4 1_555 1_555
C21_4 H14_4 1_555 1_555
C22_4 C21_4 1_555 1_555
H15_4 C22_4 1_555 1_555
C23_4 C14_4 1_555 1_555
C25_4 N3_4 1_555 1_555
Cd2_4 N3_4 1_555 1_555
N4_4 O8_4 1_555 1_555
O6_4 Cd2_4 1_555 1_555
O7_4 C26_4 1_555 1_555
O8_4 Cd2_4 1_555 1_555
O9_4 C32_4 1_555 1_555
O10_4 C34_4 1_555 1_555
C26_4 O6_4 1_555 1_555
C27_4 N4_4 1_555 1_555
C28_4 C27_4 1_555 1_555
H18_4 C28_4 1_555 1_555
C29_4 C28_4 1_555 1_555
H19_4 C29_4 1_555 1_555
C30_4 C29_4 1_555 1_555
H20_4 C30_4 1_555 1_555
C31_4 N4_4 1_555 1_555
C32_4 C31_4 1_555 1_555
C33_4 C32_4 1_555 1_555
H21_4 C33_4 1_555 1_555
C34_4 C33_4 1_555 1_555
C35_4 C34_4 1_555 1_555
C36_4 C35_4 1_555 1_555
H22_4 C36_4 1_555 1_555
C37_4 H23_4 1_555 1_555
C38_4 C35_4 1_555 1_555
H24_4 C38_4 1_555 1_555
C39_4 C37_4 1_555 1_555
C40_4 C36_4 1_555 1_555
H26_4 C40_4 1_555 1_555
Cd3_4 O9_4 1_555 1_555
Cd4_4 O4_4 1_555 1_555
O15_4 Cd2_4 1_555 1_555
O16_4 Cd1_4 1_555 1_555
O5_4 Cd4_4 1_555 1_555
C5_4 C6_4 1_555 1_555
C17_4 C20_4 1_555 1_555
C18_4 C19_4 1_555 1_555
C22_4 C23_4 1_555 1_555
O10_4 Cd3_4 1_555 1_555
C26_4 C27_4 1_555 1_555
C30_4 C31_4 1_555 1_555
C37_4 C40_4 1_555 1_555
C38_4 C39_4 1_555 1_555
O2_4 C1_4 1_555 1_555
C1_4 O1_4 1_555 1_555
H1_4 C3_4 1_555 1_555
H8_4 C15_4 1_555 1_555
H16_4 C24_4 1_555 1_555
Cd6_4 O12_4 1_555 1_555
Cd3_3 N2_5 1_555 1_555
N1_5 O3_5 1_555 1_555
N2_5 C12_5 1_555 1_555
O1_5 Cd3_3 1_555 1_555
O2_5 C1_5 1_555 1_555
O3_5 Cd3_3 1_555 1_555
O13_2 C7_5 1_555 1_555
O15_3 C9_5 1_555 1_555
C1_5 O1_5 1_555 1_555
C2_5 N1_5 1_555 1_555
C3_5 C2_5 1_555 1_555
H1_5 C3_5 1_555 1_555
C4_5 C3_5 1_555 1_555
H2_5 C4_5 1_555 1_555
C5_5 C4_5 1_555 1_555
H3_5 C5_5 1_555 1_555
C6_5 N1_5 1_555 1_555
C7_5 C6_5 1_555 1_555
C8_5 C7_5 1_555 1_555
H4_5 C8_5 1_555 1_555
C9_5 C8_5 1_555 1_555
C10_5 C9_5 1_555 1_555
C11_5 C10_5 1_555 1_555
H5_5 C11_5 1_555 1_555
C12_5 H6_5 1_555 1_555
C13_5 C12_5 1_555 1_555
H7_5 C13_5 1_555 1_555
C14_5 C13_5 1_555 1_555
C15_5 C14_5 1_555 1_555
H8_5 C15_5 1_555 1_555
C16_5 N2_5 1_555 1_555
H9_5 C16_5 1_555 1_555
C17_5 H10_5 1_555 1_555
C18_5 C10_5 1_555 1_555
H11_5 C18_5 1_555 1_555
C19_5 C17_5 1_555 1_555
H12_5 C19_5 1_555 1_555
C20_5 C11_5 1_555 1_555
H13_5 C20_5 1_555 1_555
N3_5 C21_5 1_555 1_555
C21_5 H14_5 1_555 1_555
C22_5 C21_5 1_555 1_555
H15_5 C22_5 1_555 1_555
C23_5 C14_5 1_555 1_555
C24_5 C23_5 1_555 1_555
H16_5 C24_5 1_555 1_555
C25_5 N3_5 1_555 1_555
H17_5 C25_5 1_555 1_555
Cd4_3 N3_5 1_555 1_555
N4_5 O8_5 1_555 1_555
O6_5 Cd4_3 1_555 1_555
O7_5 C26_5 1_555 1_555
O8_5 Cd4_3 1_555 1_555
O14_3 C32_5 1_555 1_555
O16_3 C34_5 1_555 1_555
C26_5 O6_5 1_555 1_555
C27_5 N4_5 1_555 1_555
C28_5 C27_5 1_555 1_555
H18_5 C28_5 1_555 1_555
C29_5 C28_5 1_555 1_555
H19_5 C29_5 1_555 1_555
C30_5 C29_5 1_555 1_555
H20_5 C30_5 1_555 1_555
C31_5 N4_5 1_555 1_555
C32_5 C31_5 1_555 1_555
C33_5 C32_5 1_555 1_555
H21_5 C33_5 1_555 1_555
C34_5 C33_5 1_555 1_555
C35_5 C34_5 1_555 1_555
C36_5 C35_5 1_555 1_555
H22_5 C36_5 1_555 1_555
C37_5 H23_5 1_555 1_555
C38_5 C35_5 1_555 1_555
H24_5 C38_5 1_555 1_555
C39_5 C37_5 1_555 1_555
H25_4 C39_5 1_555 1_555
C40_5 C36_5 1_555 1_555
H26_5 C40_5 1_555 1_555
Cd5_5 O1_5 1_555 1_555
Cd6_5 O6_5 1_555 1_555
O11_5 Cd3_3 1_555 1_555
O12_5 Cd4_3 1_555 1_555
C1_5 C2_5 1_555 1_555
C5_5 C6_5 1_555 1_555
C15_5 C16_5 1_555 1_555
C17_5 C20_5 1_555 1_555
C18_5 C19_5 1_555 1_555
C22_5 C23_5 1_555 1_555
C24_5 C25_5 1_555 1_555
C26_5 C27_5 1_555 1_555
C30_5 C31_5 1_555 1_555
C37_5 C40_5 1_555 1_555
C38_5 C39_5 1_555 1_555
Cd5_5 O11_5 1_555 1_555
Cd6_5 O12_5 1_555 1_555
Cd3_4 N2_6 1_555 1_555
N1_6 O3_6 1_555 1_555
N2_6 C12_6 1_555 1_555
O3_6 Cd3_4 1_555 1_555
O15_4 C9_6 1_555 1_555
C2_6 N1_6 1_555 1_555
C10_6 C9_6 1_555 1_555
C11_6 C10_6 1_555 1_555
C12_6 H6_6 1_555 1_555
C13_6 C12_6 1_555 1_555
H7_6 C13_6 1_555 1_555
C14_6 C13_6 1_555 1_555
C15_6 C14_6 1_555 1_555
H8_6 C15_6 1_555 1_555
C16_6 N2_6 1_555 1_555
H9_6 C16_6 1_555 1_555
C17_6 H10_6 1_555 1_555
C18_6 C10_6 1_555 1_555
H11_6 C18_6 1_555 1_555
C19_6 C17_6 1_555 1_555
H12_6 C19_6 1_555 1_555
C20_6 C11_6 1_555 1_555
N3_6 C21_6 1_555 1_555
C21_6 H14_6 1_555 1_555
C22_6 C21_6 1_555 1_555
H15_6 C22_6 1_555 1_555
C23_6 C14_6 1_555 1_555
C24_6 C23_6 1_555 1_555
H16_6 C24_6 1_555 1_555
C25_6 N3_6 1_555 1_555
H17_6 C25_6 1_555 1_555
Cd4_4 N3_6 1_555 1_555
N4_6 O8_6 1_555 1_555
O6_6 Cd4_4 1_555 1_555
O7_6 C26_6 1_555 1_555
O8_6 Cd4_4 1_555 1_555
O16_4 C34_6 1_555 1_555
C26_6 O6_6 1_555 1_555
C27_6 N4_6 1_555 1_555
C35_6 C34_6 1_555 1_555
C36_6 C35_6 1_555 1_555
C37_6 H23_6 1_555 1_555
C38_6 C35_6 1_555 1_555
H24_6 C38_6 1_555 1_555
C39_6 C37_6 1_555 1_555
C40_6 C36_6 1_555 1_555
Cd6_6 O6_6 1_555 1_555
O11_6 Cd3_4 1_555 1_555
O12_6 Cd4_4 1_555 1_555
C15_6 C16_6 1_555 1_555
C17_6 C20_6 1_555 1_555
C18_6 C19_6 1_555 1_555
C22_6 C23_6 1_555 1_555
C24_6 C25_6 1_555 1_555
C26_6 C27_6 1_555 1_555
C37_6 C40_6 1_555 1_555
C38_6 C39_6 1_555 1_555
Cd6_6 O12_6 1_555 1_555
O2_6 C1_6 1_555 1_555
C1_6 O1_6 1_555 1_555
Cd5_6 O1_6 1_555 1_555
O13_3 C7_6 1_555 1_555
H2_6 C4_6 1_555 1_555
C5_6 C4_6 1_555 1_555
H3_6 C5_6 1_555 1_555
C7_6 C6_6 1_555 1_555
C8_6 C7_6 1_555 1_555
O14_4 C32_6 1_555 1_555
H18_6 C28_6 1_555 1_555
C29_6 C28_6 1_555 1_555
H19_6 C29_6 1_555 1_555
C30_6 C29_6 1_555 1_555
H20_6 C30_6 1_555 1_555
C32_6 C31_6 1_555 1_555
C33_6 C32_6 1_555 1_555
C5_6 C6_6 1_555 1_555
C30_6 C31_6 1_555 1_555
N2_7 C12_7 1_555 1_555
C12_7 H6_7 1_555 1_555
C13_7 C12_7 1_555 1_555
H7_7 C13_7 1_555 1_555
C14_7 C13_7 1_555 1_555
C15_7 C14_7 1_555 1_555
H8_7 C15_7 1_555 1_555
C16_7 N2_7 1_555 1_555
H9_7 C16_7 1_555 1_555
N3_7 C21_7 1_555 1_555
C21_7 H14_7 1_555 1_555
C22_7 C21_7 1_555 1_555
H15_7 C22_7 1_555 1_555
C23_7 C14_7 1_555 1_555
C24_7 C23_7 1_555 1_555
H16_7 C24_7 1_555 1_555
C25_7 N3_7 1_555 1_555
H17_7 C25_7 1_555 1_555
Cd4 N3_7 1_555 1_555
N4_7 O8_7 1_555 1_555
O6_7 Cd4 1_555 1_555
O7_7 C26_7 1_555 1_555
O8_7 Cd4 1_555 1_555
O16 C34_7 1_555 1_555
C26_7 O6_7 1_555 1_555
C27_7 N4_7 1_555 1_555
C35_7 C34_7 1_555 1_555
C36_7 C35_7 1_555 1_555
C37_7 H23_7 1_555 1_555
C38_7 C35_7 1_555 1_555
H24_7 C38_7 1_555 1_555
C39_7 C37_7 1_555 1_555
H25_6 C39_7 1_555 1_555
C40_7 C36_7 1_555 1_555
Cd6_7 O6_7 1_555 1_555
O12_7 Cd4 1_555 1_555
C15_7 C16_7 1_555 1_555
C22_7 C23_7 1_555 1_555
C24_7 C25_7 1_555 1_555
C26_7 C27_7 1_555 1_555
C37_7 C40_7 1_555 1_555
C38_7 C39_7 1_555 1_555
Cd5_7 O11_7 1_555 1_555
Cd6_7 O12_7 1_555 1_555
N1_7 O3_7 1_555 1_555
O1_7 Cd3 1_555 1_555
O2_7 C1_7 1_555 1_555
O3_7 Cd3 1_555 1_555
O15 C9_7 1_555 1_555
C1_7 O1_7 1_555 1_555
C2_7 N1_7 1_555 1_555
C10_7 C9_7 1_555 1_555
C11_7 C10_7 1_555 1_555
C17_7 H10_7 1_555 1_555
C18_7 C10_7 1_555 1_555
H11_7 C18_7 1_555 1_555
C19_7 C17_7 1_555 1_555
H12_7 C19_7 1_555 1_555
C20_7 C11_7 1_555 1_555
C1_7 C2_7 1_555 1_555
C17_7 C20_7 1_555 1_555
C18_7 C19_7 1_555 1_555
O14 C32_7 1_555 1_555
H18_7 C28_7 1_555 1_555
C29_7 C28_7 1_555 1_555
H19_7 C29_7 1_555 1_555
C30_7 C29_7 1_555 1_555
H20_7 C30_7 1_555 1_555
C32_7 C31_7 1_555 1_555
C33_7 C32_7 1_555 1_555
C30_7 C31_7 1_555 1_555
N2_8 C12_8 1_555 1_555
C12_8 H6_8 1_555 1_555
C13_8 C12_8 1_555 1_555
H7_8 C13_8 1_555 1_555
C14_8 C13_8 1_555 1_555
C15_8 C14_8 1_555 1_555
H8_8 C15_8 1_555 1_555
C16_8 N2_8 1_555 1_555
H9_8 C16_8 1_555 1_555
N3_8 C21_8 1_555 1_555
C21_8 H14_8 1_555 1_555
C22_8 C21_8 1_555 1_555
H15_8 C22_8 1_555 1_555
C23_8 C14_8 1_555 1_555
C24_8 C23_8 1_555 1_555
H16_8 C24_8 1_555 1_555
C25_8 N3_8 1_555 1_555
H17_8 C25_8 1_555 1_555
Cd4_2 N3_8 1_555 1_555
N4_8 O8_8 1_555 1_555
O6_8 Cd4_2 1_555 1_555
O7_8 C26_8 1_555 1_555
O8_8 Cd4_2 1_555 1_555
O14_2 C32_8 1_555 1_555
O16_2 C34_8 1_555 1_555
C26_8 O6_8 1_555 1_555
C27_8 N4_8 1_555 1_555
C28_8 C27_8 1_555 1_555
H18_8 C28_8 1_555 1_555
C29_8 C28_8 1_555 1_555
H19_8 C29_8 1_555 1_555
C30_8 C29_8 1_555 1_555
H20_8 C30_8 1_555 1_555
C31_8 N4_8 1_555 1_555
C32_8 C31_8 1_555 1_555
C33_8 C32_8 1_555 1_555
H21_8 C33_8 1_555 1_555
C34_8 C33_8 1_555 1_555
C35_8 C34_8 1_555 1_555
C36_8 C35_8 1_555 1_555
H22_8 C36_8 1_555 1_555
C37_8 H23_8 1_555 1_555
C38_8 C35_8 1_555 1_555
H24_8 C38_8 1_555 1_555
C39_8 C37_8 1_555 1_555
C40_8 C36_8 1_555 1_555
H26_8 C40_8 1_555 1_555
Cd6_8 O6_8 1_555 1_555
O12_8 Cd4_2 1_555 1_555
C15_8 C16_8 1_555 1_555
C22_8 C23_8 1_555 1_555
C24_8 C25_8 1_555 1_555
C26_8 C27_8 1_555 1_555
C30_8 C31_8 1_555 1_555
C37_8 C40_8 1_555 1_555
C38_8 C39_8 1_555 1_555
Cd6_8 O12_8 1_555 1_555
N1_8 O3_8 1_555 1_555
O3_8 Cd3_2 1_555 1_555
O13 C7_7 1_555 1_555
O15_2 C9_8 1_555 1_555
C2_8 N1_8 1_555 1_555
H2_7 C4_7 1_555 1_555
C5_7 C4_7 1_555 1_555
H3_7 C5_7 1_555 1_555
C6_7 N1_8 1_555 1_555
C7_7 C6_7 1_555 1_555
C8_7 C7_7 1_555 1_555
H4_8 C8_7 1_555 1_555
C9_8 C8_7 1_555 1_555
C10_8 C9_8 1_555 1_555
C11_8 C10_8 1_555 1_555
H5_7 C11_8 1_555 1_555
C17_8 H10_8 1_555 1_555
C18_8 C10_8 1_555 1_555
H11_8 C18_8 1_555 1_555
C19_8 C17_8 1_555 1_555
H12_8 C19_8 1_555 1_555
C20_8 C11_8 1_555 1_555
H13_7 C20_8 1_555 1_555
C5_7 C6_7 1_555 1_555
C17_8 C20_8 1_555 1_555
C18_8 C19_8 1_555 1_555
O2_8 C1_8 1_555 1_555
C1_8 O1_8 1_555 1_555
H1_6 C3_6 1_555 1_555
H8_9 C15_9 1_555 1_555
H16_9 C24_9 1_555 1_555
N4_9 O8_9 1_555 1_555
O7_9 C26_9 1_555 1_555
O8_9 Cd6 1_555 1_555
O9_5 C32_9 1_555 1_555
O10_5 C34_9 1_555 1_555
C26_9 O12 1_555 1_555
C27_9 N4_9 1_555 1_555
C28_9 C27_9 1_555 1_555
H18_9 C28_9 1_555 1_555
C29_9 C28_9 1_555 1_555
H19_9 C29_9 1_555 1_555
C30_9 C29_9 1_555 1_555
H20_9 C30_9 1_555 1_555
C31_9 N4_9 1_555 1_555
C32_9 C31_9 1_555 1_555
C33_9 C32_9 1_555 1_555
H21_9 C33_9 1_555 1_555
C34_9 C33_9 1_555 1_555
C35_9 C34_9 1_555 1_555
C36_9 C35_9 1_555 1_555
H22_9 C36_9 1_555 1_555
C37_9 H23_9 1_555 1_555
C38_9 C35_9 1_555 1_555
H24_9 C38_9 1_555 1_555
C39_9 C37_9 1_555 1_555
H25_8 C39_9 1_555 1_555
C40_9 C36_9 1_555 1_555
H26_9 C40_9 1_555 1_555
Cd6_2 O9_5 1_555 1_555
O15_5 Cd6 1_555 1_555
O10_5 Cd6_2 1_555 1_555
C26_9 C27_9 1_555 1_555
C30_9 C31_9 1_555 1_555
C37_9 C40_9 1_555 1_555
C38_9 C39_9 1_555 1_555
Cd6_4 N2_9 1_555 1_555
N1_9 O3_9 1_555 1_555
N2_9 C12_9 1_555 1_555
O2_9 C1_9 1_555 1_555
O3_9 Cd6_4 1_555 1_555
O4_5 C7_8 1_555 1_555
O5_5 C9_9 1_555 1_555
C1_9 O12_4 1_555 1_555
C2_9 N1_9 1_555 1_555
C3_7 C2_9 1_555 1_555
H1_7 C3_7 1_555 1_555
C4_8 C3_7 1_555 1_555
H2_8 C4_8 1_555 1_555
C5_8 C4_8 1_555 1_555
H3_8 C5_8 1_555 1_555
C6_8 N1_9 1_555 1_555
C7_8 C6_8 1_555 1_555
C8_8 C7_8 1_555 1_555
H4_9 C8_8 1_555 1_555
C9_9 C8_8 1_555 1_555
C10_9 C9_9 1_555 1_555
C11_9 C10_9 1_555 1_555
H5_8 C11_9 1_555 1_555
C12_9 H6_9 1_555 1_555
C13_9 C12_9 1_555 1_555
H7_9 C13_9 1_555 1_555
C14_9 C13_9 1_555 1_555
C16_9 N2_9 1_555 1_555
C17_9 H10_9 1_555 1_555
C18_9 C10_9 1_555 1_555
H11_9 C18_9 1_555 1_555
C19_9 C17_9 1_555 1_555
H12_9 C19_9 1_555 1_555
C20_9 C11_9 1_555 1_555
H13_8 C20_9 1_555 1_555
N3_9 C21_9 1_555 1_555
C21_9 H14_9 1_555 1_555
C22_9 C21_9 1_555 1_555
H15_9 C22_9 1_555 1_555
C23_9 C14_9 1_555 1_555
C25_9 N3_9 1_555 1_555
Cd6_3 O4_5 1_555 1_555
O16_5 Cd6_4 1_555 1_555
O5_5 Cd6_3 1_555 1_555
C1_9 C2_9 1_555 1_555
C5_8 C6_8 1_555 1_555
C17_9 C20_9 1_555 1_555
C18_9 C19_9 1_555 1_555
C22_9 C23_9 1_555 1_555
O2_10 C1_10 1_555 1_555
C1_10 O11_6 1_555 1_555
H1_8 C3_8 1_555 1_555
N4_10 O8_10 1_555 1_555
O7_10 C26_10 1_555 1_555
O8_10 Cd5_7 1_555 1_555
O9_6 C32_10 1_555 1_555
O10_6 C34_10 1_555 1_555
C26_10 O11_7 1_555 1_555
C27_10 N4_10 1_555 1_555
C28_10 C27_10 1_555 1_555
H18_10 C28_10 1_555 1_555
C29_10 C28_10 1_555 1_555
H19_10 C29_10 1_555 1_555
C30_10 C29_10 1_555 1_555
H20_10 C30_10 1_555 1_555
C31_10 N4_10 1_555 1_555
C32_10 C31_10 1_555 1_555
C33_10 C32_10 1_555 1_555
H21_10 C33_10 1_555 1_555
C34_10 C33_10 1_555 1_555
C35_10 C34_10 1_555 1_555
C36_10 C35_10 1_555 1_555
H22_10 C36_10 1_555 1_555
C37_10 H23_10 1_555 1_555
C38_10 C35_10 1_555 1_555
H24_10 C38_10 1_555 1_555
C39_10 C37_10 1_555 1_555
C40_10 C36_10 1_555 1_555
H26_10 C40_10 1_555 1_555
Cd5_8 O9_6 1_555 1_555
O13_4 Cd5_7 1_555 1_555
O15_6 Cd5_7 1_555 1_555
O10_6 Cd5_8 1_555 1_555
C26_10 C27_10 1_555 1_555
C30_10 C31_10 1_555 1_555
C37_10 C40_10 1_555 1_555
C38_10 C39_10 1_555 1_555
Cd5_6 N2_10 1_555 1_555
N1_10 O3_10 1_555 1_555
N2_10 C12_10 1_555 1_555
O3_10 Cd5_6 1_555 1_555
O4_6 C7_9 1_555 1_555
O5_6 C9_10 1_555 1_555
C2_10 N1_10 1_555 1_555
H2_9 C4_9 1_555 1_555
C5_9 C4_9 1_555 1_555
H3_9 C5_9 1_555 1_555
C6_9 N1_10 1_555 1_555
C7_9 C6_9 1_555 1_555
C8_9 C7_9 1_555 1_555
H4_10 C8_9 1_555 1_555
C9_10 C8_9 1_555 1_555
C10_10 C9_10 1_555 1_555
C11_10 C10_10 1_555 1_555
H5_9 C11_10 1_555 1_555
C12_10 H6_10 1_555 1_555
C13_10 C12_10 1_555 1_555
H7_10 C13_10 1_555 1_555
C14_10 C13_10 1_555 1_555
C15_10 C14_10 1_555 1_555
H8_10 C15_10 1_555 1_555
C16_10 N2_10 1_555 1_555
H9_10 C16_10 1_555 1_555
C17_10 H10_10 1_555 1_555
C18_10 C10_10 1_555 1_555
H11_10 C18_10 1_555 1_555
C19_10 C17_10 1_555 1_555
H12_10 C19_10 1_555 1_555
C20_10 C11_10 1_555 1_555
H13_9 C20_10 1_555 1_555
N3_10 C21_10 1_555 1_555
C21_10 H14_10 1_555 1_555
C22_10 C21_10 1_555 1_555
H15_10 C22_10 1_555 1_555
C23_10 C14_10 1_555 1_555
C24_10 C23_10 1_555 1_555
H16_10 C24_10 1_555 1_555
C25_10 N3_10 1_555 1_555
H17_10 C25_10 1_555 1_555
Cd5_5 O4_6 1_555 1_555
O14_6 Cd5_6 1_555 1_555
O16_6 Cd5_6 1_555 1_555
O5_6 Cd5_5 1_555 1_555
C5_9 C6_9 1_555 1_555
C15_10 C16_10 1_555 1_555
C17_10 C20_10 1_555 1_555
C18_10 C19_10 1_555 1_555
C22_10 C23_10 1_555 1_555
C24_10 C25_10 1_555 1_555
Cd6_6 N2_11 1_555 1_555
N1_11 O3_11 1_555 1_555
N2_11 C12_11 1_555 1_555
O2_11 C1_11 1_555 1_555
O3_11 Cd6_6 1_555 1_555
O4_7 C7_10 1_555 1_555
O5_7 C9_11 1_555 1_555
C1_11 O12_6 1_555 1_555
C2_11 N1_11 1_555 1_555
C3_9 C2_11 1_555 1_555
H1_9 C3_9 1_555 1_555
C4_10 C3_9 1_555 1_555
H2_10 C4_10 1_555 1_555
C5_10 C4_10 1_555 1_555
H3_10 C5_10 1_555 1_555
C6_10 N1_11 1_555 1_555
C7_10 C6_10 1_555 1_555
C8_10 C7_10 1_555 1_555
H4_11 C8_10 1_555 1_555
C9_11 C8_10 1_555 1_555
C10_11 C9_11 1_555 1_555
C11_11 C10_11 1_555 1_555
H5_10 C11_11 1_555 1_555
C12_11 H6_11 1_555 1_555
C13_11 C12_11 1_555 1_555
H7_11 C13_11 1_555 1_555
C14_11 C13_11 1_555 1_555
C15_11 C14_11 1_555 1_555
H8_11 C15_11 1_555 1_555
C16_11 N2_11 1_555 1_555
H9_11 C16_11 1_555 1_555
C17_11 H10_11 1_555 1_555
C18_11 C10_11 1_555 1_555
H11_11 C18_11 1_555 1_555
C19_11 C17_11 1_555 1_555
H12_11 C19_11 1_555 1_555
C20_11 C11_11 1_555 1_555
H13_10 C20_11 1_555 1_555
N3_11 C21_11 1_555 1_555
C21_11 H14_11 1_555 1_555
C22_11 C21_11 1_555 1_555
H15_11 C22_11 1_555 1_555
C23_11 C14_11 1_555 1_555
C24_11 C23_11 1_555 1_555
H16_11 C24_11 1_555 1_555
C25_11 N3_11 1_555 1_555
H17_11 C25_11 1_555 1_555
Cd6_7 N3_11 1_555 1_555
N4_11 O8_11 1_555 1_555
O7_11 C26_11 1_555 1_555
O8_11 Cd6_7 1_555 1_555
O9_7 C32_11 1_555 1_555
O10_7 C34_11 1_555 1_555
C26_11 O12_7 1_555 1_555
C27_11 N4_11 1_555 1_555
C28_11 C27_11 1_555 1_555
H18_11 C28_11 1_555 1_555
C29_11 C28_11 1_555 1_555
H19_11 C29_11 1_555 1_555
C30_11 C29_11 1_555 1_555
H20_11 C30_11 1_555 1_555
C31_11 N4_11 1_555 1_555
C32_11 C31_11 1_555 1_555
C33_11 C32_11 1_555 1_555
H21_11 C33_11 1_555 1_555
C34_11 C33_11 1_555 1_555
C35_11 C34_11 1_555 1_555
C36_11 C35_11 1_555 1_555
H22_11 C36_11 1_555 1_555
C37_11 H23_11 1_555 1_555
C38_11 C35_11 1_555 1_555
H24_11 C38_11 1_555 1_555
C39_11 C37_11 1_555 1_555
H25_9 C39_11 1_555 1_555
C40_11 C36_11 1_555 1_555
H26_11 C40_11 1_555 1_555
Cd6_8 O9_7 1_555 1_555
Cd6_5 O4_7 1_555 1_555
O13_5 Cd6_7 1_555 1_555
O14_7 Cd6_6 1_555 1_555
O15_7 Cd6_7 1_555 1_555
O16_7 Cd6_6 1_555 1_555
O5_7 Cd6_5 1_555 1_555
C1_11 C2_11 1_555 1_555
C5_10 C6_10 1_555 1_555
C15_11 C16_11 1_555 1_555
C17_11 C20_11 1_555 1_555
C18_11 C19_11 1_555 1_555
C22_11 C23_11 1_555 1_555
C24_11 C25_11 1_555 1_555
O10_7 Cd6_8 1_555 1_555
C26_11 C27_11 1_555 1_555
C30_11 C31_11 1_555 1_555
C37_11 C40_11 1_555 1_555
C38_11 C39_11 1_555 1_555
H8_12 C15_12 1_555 1_555
H16_12 C24_12 1_555 1_555
O2_12 C1_12 1_555 1_555
C1_12 O11_4 1_555 1_555
H1_10 C3_10 1_555 1_555
Cd5_4 N2_12 1_555 1_555
N1_12 O3_12 1_555 1_555
N2_12 C12_12 1_555 1_555
O3_12 Cd5_4 1_555 1_555
O4_8 C7_11 1_555 1_555
O5_8 C9_12 1_555 1_555
C2_12 N1_12 1_555 1_555
H2_11 C4_11 1_555 1_555
C5_11 C4_11 1_555 1_555
H3_11 C5_11 1_555 1_555
C6_11 N1_12 1_555 1_555
C7_11 C6_11 1_555 1_555
C8_11 C7_11 1_555 1_555
H4_12 C8_11 1_555 1_555
C9_12 C8_11 1_555 1_555
C10_12 C9_12 1_555 1_555
C11_12 C10_12 1_555 1_555
H5_11 C11_12 1_555 1_555
C12_12 H6_12 1_555 1_555
C13_12 C12_12 1_555 1_555
H7_12 C13_12 1_555 1_555
C14_12 C13_12 1_555 1_555
C16_12 N2_12 1_555 1_555
C17_12 H10_12 1_555 1_555
C18_12 C10_12 1_555 1_555
H11_12 C18_12 1_555 1_555
C19_12 C17_12 1_555 1_555
H12_12 C19_12 1_555 1_555
C20_12 C11_12 1_555 1_555
H13_11 C20_12 1_555 1_555
N3_12 C21_12 1_555 1_555
C21_12 H14_12 1_555 1_555
C22_12 C21_12 1_555 1_555
H15_12 C22_12 1_555 1_555
C23_12 C14_12 1_555 1_555
C25_12 N3_12 1_555 1_555
Cd5 N3_12 1_555 1_555
N4_12 O8_12 1_555 1_555
O7_12 C26_12 1_555 1_555
O8_12 Cd5 1_555 1_555
O9_8 C32_12 1_555 1_555
O10_8 C34_12 1_555 1_555
C26_12 O11 1_555 1_555
C27_12 N4_12 1_555 1_555
C28_12 C27_12 1_555 1_555
H18_12 C28_12 1_555 1_555
C29_12 C28_12 1_555 1_555
H19_12 C29_12 1_555 1_555
C30_12 C29_12 1_555 1_555
H20_12 C30_12 1_555 1_555
C31_12 N4_12 1_555 1_555
C32_12 C31_12 1_555 1_555
C33_12 C32_12 1_555 1_555
H21_12 C33_12 1_555 1_555
C34_12 C33_12 1_555 1_555
C35_12 C34_12 1_555 1_555
C36_12 C35_12 1_555 1_555
H22_12 C36_12 1_555 1_555
C37_12 H23_12 1_555 1_555
C38_12 C35_12 1_555 1_555
H24_12 C38_12 1_555 1_555
C39_12 C37_12 1_555 1_555
C40_12 C36_12 1_555 1_555
H26_12 C40_12 1_555 1_555
Cd5_2 O9_8 1_555 1_555
Cd5_3 O4_8 1_555 1_555
O15_8 Cd5 1_555 1_555
O16_8 Cd5_4 1_555 1_555
O5_8 Cd5_3 1_555 1_555
C5_11 C6_11 1_555 1_555
C17_12 C20_12 1_555 1_555
C18_12 C19_12 1_555 1_555
C22_12 C23_12 1_555 1_555
O10_8 Cd5_2 1_555 1_555
C26_12 C27_12 1_555 1_555
C30_12 C31_12 1_555 1_555
C37_12 C40_12 1_555 1_555
C38_12 C39_12 1_555 1_555
Cd6_8 N2_13 1_555 1_555
N1_13 O3_13 1_555 1_555
N2_13 C12_13 1_555 1_555
O2_13 C1_13 1_555 1_555
O3_13 Cd6_8 1_555 1_555
O13_5 C7_12 1_555 1_555
O15_7 C9_13 1_555 1_555
C1_13 O12_8 1_555 1_555
C2_13 N1_13 1_555 1_555
C3_11 C2_13 1_555 1_555
H1_11 C3_11 1_555 1_555
C4_12 C3_11 1_555 1_555
H2_12 C4_12 1_555 1_555
C5_12 C4_12 1_555 1_555
H3_12 C5_12 1_555 1_555
C6_12 N1_13 1_555 1_555
C7_12 C6_12 1_555 1_555
C8_12 C7_12 1_555 1_555
H4_13 C8_12 1_555 1_555
C9_13 C8_12 1_555 1_555
C10_13 C9_13 1_555 1_555
C11_13 C10_13 1_555 1_555
H5_12 C11_13 1_555 1_555
C12_13 H6_13 1_555 1_555
C13_13 C12_13 1_555 1_555
H7_13 C13_13 1_555 1_555
C14_13 C13_13 1_555 1_555
C15_13 C14_13 1_555 1_555
H8_13 C15_13 1_555 1_555
C16_13 N2_13 1_555 1_555
H9_13 C16_13 1_555 1_555
C17_13 H10_13 1_555 1_555
C18_13 C10_13 1_555 1_555
H11_13 C18_13 1_555 1_555
C19_13 C17_13 1_555 1_555
H12_13 C19_13 1_555 1_555
C20_13 C11_13 1_555 1_555
H13_12 C20_13 1_555 1_555
N3_13 C21_13 1_555 1_555
C21_13 H14_13 1_555 1_555
C22_13 C21_13 1_555 1_555
H15_13 C22_13 1_555 1_555
C23_13 C14_13 1_555 1_555
C24_13 C23_13 1_555 1_555
H16_13 C24_13 1_555 1_555
C25_13 N3_13 1_555 1_555
H17_13 C25_13 1_555 1_555
Cd6_5 N3_13 1_555 1_555
N4_13 O8_13 1_555 1_555
O7_13 C26_13 1_555 1_555
O8_13 Cd6_5 1_555 1_555
O14_7 C32_13 1_555 1_555
O16_7 C34_13 1_555 1_555
C26_13 O12_5 1_555 1_555
C27_13 N4_13 1_555 1_555
C28_13 C27_13 1_555 1_555
H18_13 C28_13 1_555 1_555
C29_13 C28_13 1_555 1_555
H19_13 C29_13 1_555 1_555
C30_13 C29_13 1_555 1_555
H20_13 C30_13 1_555 1_555
C31_13 N4_13 1_555 1_555
C32_13 C31_13 1_555 1_555
C33_13 C32_13 1_555 1_555
H21_13 C33_13 1_555 1_555
C34_13 C33_13 1_555 1_555
C35_13 C34_13 1_555 1_555
C36_13 C35_13 1_555 1_555
H22_13 C36_13 1_555 1_555
C37_13 H23_13 1_555 1_555
C38_13 C35_13 1_555 1_555
H24_13 C38_13 1_555 1_555
C39_13 C37_13 1_555 1_555
H25_11 C39_13 1_555 1_555
C40_13 C36_13 1_555 1_555
H26_13 C40_13 1_555 1_555
C1_13 C2_13 1_555 1_555
C5_12 C6_12 1_555 1_555
C15_13 C16_13 1_555 1_555
C17_13 C20_13 1_555 1_555
C18_13 C19_13 1_555 1_555
C22_13 C23_13 1_555 1_555
C24_13 C25_13 1_555 1_555
C26_13 C27_13 1_555 1_555
C30_13 C31_13 1_555 1_555
C37_13 C40_13 1_555 1_555
C38_13 C39_13 1_555 1_555
O13_6 C7_13 1_555 1_555
H2_13 C4_13 1_555 1_555
C5_13 C4_13 1_555 1_555
H3_13 C5_13 1_555 1_555
C7_13 C6_13 1_555 1_555
C8_13 C7_13 1_555 1_555
O14_8 C32_14 1_555 1_555
H18_14 C28_14 1_555 1_555
C29_14 C28_14 1_555 1_555
H19_14 C29_14 1_555 1_555
C30_14 C29_14 1_555 1_555
H20_14 C30_14 1_555 1_555
C32_14 C31_14 1_555 1_555
C33_14 C32_14 1_555 1_555
C5_13 C6_13 1_555 1_555
C30_14 C31_14 1_555 1_555
O2_14 C1_14 1_555 1_555
C1_14 O11_2 1_555 1_555
Cd5_2 N2_14 1_555 1_555
N1_14 O3_14 1_555 1_555
N2_14 C12_14 1_555 1_555
O3_14 Cd5_2 1_555 1_555
O15_8 C9_14 1_555 1_555
C2_14 N1_14 1_555 1_555
C10_14 C9_14 1_555 1_555
C11_14 C10_14 1_555 1_555
C12_14 H6_14 1_555 1_555
C13_14 C12_14 1_555 1_555
H7_14 C13_14 1_555 1_555
C14_14 C13_14 1_555 1_555
C15_14 C14_14 1_555 1_555
H8_14 C15_14 1_555 1_555
C16_14 N2_14 1_555 1_555
H9_14 C16_14 1_555 1_555
C17_14 H10_14 1_555 1_555
C18_14 C10_14 1_555 1_555
H11_14 C18_14 1_555 1_555
C19_14 C17_14 1_555 1_555
H12_14 C19_14 1_555 1_555
C20_14 C11_14 1_555 1_555
N3_14 C21_14 1_555 1_555
C21_14 H14_14 1_555 1_555
C22_14 C21_14 1_555 1_555
H15_14 C22_14 1_555 1_555
C23_14 C14_14 1_555 1_555
C24_14 C23_14 1_555 1_555
H16_14 C24_14 1_555 1_555
C25_14 N3_14 1_555 1_555
H17_14 C25_14 1_555 1_555
Cd5_3 N3_14 1_555 1_555
N4_14 O8_14 1_555 1_555
O7_14 C26_14 1_555 1_555
O8_14 Cd5_3 1_555 1_555
O16_8 C34_14 1_555 1_555
C26_14 O11_3 1_555 1_555
C27_14 N4_14 1_555 1_555
C35_14 C34_14 1_555 1_555
C36_14 C35_14 1_555 1_555
C37_14 H23_14 1_555 1_555
C38_14 C35_14 1_555 1_555
H24_14 C38_14 1_555 1_555
C39_14 C37_14 1_555 1_555
C40_14 C36_14 1_555 1_555
C15_14 C16_14 1_555 1_555
C17_14 C20_14 1_555 1_555
C18_14 C19_14 1_555 1_555
C22_14 C23_14 1_555 1_555
C24_14 C25_14 1_555 1_555
C26_14 C27_14 1_555 1_555
C37_14 C40_14 1_555 1_555
C38_14 C39_14 1_555 1_555
O14_5 C32_15 1_555 1_555
H18_15 C28_15 1_555 1_555
C29_15 C28_15 1_555 1_555
H19_15 C29_15 1_555 1_555
C30_15 C29_15 1_555 1_555
H20_15 C30_15 1_555 1_555
C32_15 C31_15 1_555 1_555
C33_15 C32_15 1_555 1_555
C30_15 C31_15 1_555 1_555
N1_15 O3_15 1_555 1_555
O2_15 C1_15 1_555 1_555
O3_15 Cd6_2 1_555 1_555
O15_5 C9_15 1_555 1_555
C1_15 O12_2 1_555 1_555
C2_15 N1_15 1_555 1_555
C10_15 C9_15 1_555 1_555
C11_15 C10_15 1_555 1_555
C17_15 H10_15 1_555 1_555
C18_15 C10_15 1_555 1_555
H11_15 C18_15 1_555 1_555
C19_15 C17_15 1_555 1_555
H12_15 C19_15 1_555 1_555
C20_15 C11_15 1_555 1_555
C1_15 C2_15 1_555 1_555
C17_15 C20_15 1_555 1_555
C18_15 C19_15 1_555 1_555
N2_15 C12_15 1_555 1_555
C12_15 H6_15 1_555 1_555
C13_15 C12_15 1_555 1_555
H7_15 C13_15 1_555 1_555
C14_15 C13_15 1_555 1_555
C15_15 C14_15 1_555 1_555
H8_15 C15_15 1_555 1_555
C16_15 N2_15 1_555 1_555
H9_15 C16_15 1_555 1_555
N3_15 C21_15 1_555 1_555
C21_15 H14_15 1_555 1_555
C22_15 C21_15 1_555 1_555
H15_15 C22_15 1_555 1_555
C23_15 C14_15 1_555 1_555
C24_15 C23_15 1_555 1_555
H16_15 C24_15 1_555 1_555
C25_15 N3_15 1_555 1_555
H17_15 C25_15 1_555 1_555
Cd6_3 N3_15 1_555 1_555
N4_15 O8_15 1_555 1_555
O7_15 C26_15 1_555 1_555
O8_15 Cd6_3 1_555 1_555
O16_5 C34_15 1_555 1_555
C26_15 O12_3 1_555 1_555
C27_15 N4_15 1_555 1_555
C35_15 C34_15 1_555 1_555
C36_15 C35_15 1_555 1_555
C37_15 H23_15 1_555 1_555
C38_15 C35_15 1_555 1_555
H24_15 C38_15 1_555 1_555
C39_15 C37_15 1_555 1_555
H25_13 C39_15 1_555 1_555
C40_15 C36_15 1_555 1_555
C15_15 C16_15 1_555 1_555
C22_15 C23_15 1_555 1_555
C24_15 C25_15 1_555 1_555
C26_15 C27_15 1_555 1_555
C37_15 C40_15 1_555 1_555
C38_15 C39_15 1_555 1_555
O2_16 C1_16 1_555 1_555
C1_16 O11_8 1_555 1_555
H1_12 C3_12 1_555 1_555
N1_16 O3_16 1_555 1_555
O3_16 Cd5_8 1_555 1_555
O13_4 C7_14 1_555 1_555
O15_6 C9_16 1_555 1_555
C2_16 N1_16 1_555 1_555
H2_14 C4_14 1_555 1_555
C5_14 C4_14 1_555 1_555
H3_14 C5_14 1_555 1_555
C6_14 N1_16 1_555 1_555
C7_14 C6_14 1_555 1_555
C8_14 C7_14 1_555 1_555
H4_16 C8_14 1_555 1_555
C9_16 C8_14 1_555 1_555
C10_16 C9_16 1_555 1_555
C11_16 C10_16 1_555 1_555
H5_14 C11_16 1_555 1_555
C17_16 H10_16 1_555 1_555
C18_16 C10_16 1_555 1_555
H11_16 C18_16 1_555 1_555
C19_16 C17_16 1_555 1_555
H12_16 C19_16 1_555 1_555
C20_16 C11_16 1_555 1_555
H13_14 C20_16 1_555 1_555
C5_14 C6_14 1_555 1_555
C17_16 C20_16 1_555 1_555
C18_16 C19_16 1_555 1_555
N2_16 C12_16 1_555 1_555
C12_16 H6_16 1_555 1_555
C13_16 C12_16 1_555 1_555
H7_16 C13_16 1_555 1_555
C14_16 C13_16 1_555 1_555
C15_16 C14_16 1_555 1_555
H8_16 C15_16 1_555 1_555
C16_16 N2_16 1_555 1_555
H9_16 C16_16 1_555 1_555
N3_16 C21_16 1_555 1_555
C21_16 H14_16 1_555 1_555
C22_16 C21_16 1_555 1_555
H15_16 C22_16 1_555 1_555
C23_16 C14_16 1_555 1_555
C24_16 C23_16 1_555 1_555
H16_16 C24_16 1_555 1_555
C25_16 N3_16 1_555 1_555
H17_16 C25_16 1_555 1_555
Cd5_5 N3_16 1_555 1_555
N4_16 O8_16 1_555 1_555
O7_16 C26_16 1_555 1_555
O8_16 Cd5_5 1_555 1_555
O14_6 C32_16 1_555 1_555
O16_6 C34_16 1_555 1_555
C26_16 O11_5 1_555 1_555
C27_16 N4_16 1_555 1_555
C28_16 C27_16 1_555 1_555
H18_16 C28_16 1_555 1_555
C29_16 C28_16 1_555 1_555
H19_16 C29_16 1_555 1_555
C30_16 C29_16 1_555 1_555
H20_16 C30_16 1_555 1_555
C31_16 N4_16 1_555 1_555
C32_16 C31_16 1_555 1_555
C33_16 C32_16 1_555 1_555
H21_16 C33_16 1_555 1_555
C34_16 C33_16 1_555 1_555
C35_16 C34_16 1_555 1_555
C36_16 C35_16 1_555 1_555
H22_16 C36_16 1_555 1_555
C37_16 H23_16 1_555 1_555
C38_16 C35_16 1_555 1_555
H24_16 C38_16 1_555 1_555
C39_16 C37_16 1_555 1_555
C40_16 C36_16 1_555 1_555
H26_16 C40_16 1_555 1_555
C15_16 C16_16 1_555 1_555
C22_16 C23_16 1_555 1_555
C24_16 C25_16 1_555 1_555
C26_16 C27_16 1_555 1_555
C30_16 C31_16 1_555 1_555
C37_16 C40_16 1_555 1_555
C38_16 C39_16 1_555 1_555
O13_7 C7_15 1_555 1_555
H1_13 C3_13 1_555 1_555
C4_15 C3_13 1_555 1_555
H2_15 C4_15 1_555 1_555
C5_15 C4_15 1_555 1_555
H3_15 C5_15 1_555 1_555
C7_15 C6_15 1_555 1_555
C8_15 C7_15 1_555 1_555
C5_15 C6_15 1_555 1_555
H1_14 C3_14 1_555 1_555
O13_8 C7_16 1_555 1_555
H1_15 C3_15 1_555 1_555
C4_16 C3_15 1_555 1_555
H2_16 C4_16 1_555 1_555
C5_16 C4_16 1_555 1_555
H3_16 C5_16 1_555 1_555
C7_16 C6_16 1_555 1_555
C8_16 C7_16 1_555 1_555
C5_16 C6_16 1_555 1_555
H1_16 C3_16 1_555 1_555

#END
