
###############################################################################
#
# This file contains modified crystal structure data generated from the
# MOF subset of the Cambridge Structural Database (CSD) v543 
# hosted by the Cambridge Crystallographic Data Centre (CCDC).
#
# This work is licensed under the Creative Commons
# Attribution-NonCommercial-ShareAlike 4.0 International License.
# To view a copy of this license, visit
# http://creativecommons.org/licenses/by-nc-sa/4.0/
# or send a letter to
# Creative Commons, PO Box 1866, Mountain View, CA 94042, USA.
#
# CIF created using the CSD Python API on 29 September 2022
# The structure has been converted into the P1 space group
# The structure has a 3D framework
# The original CSD entry FOJRAA is in the monoclinic crystal system
# The framework has been calculated to contain at least 10.0% void space
# The void calculation uses a probe of radius 1.32A, grid spacing 0.4
#
###############################################################################

data_FOJRAA
_chemical_formula_moiety         '(C288 H192 I48 N96 Zn24)n'
_symmetry_cell_setting           triclinic
_symmetry_space_group_name_H-M   'P 1'
_symmetry_Int_Tables_number      1
_space_group_name_Hall           'P 1'
loop_
_symmetry_equiv_pos_site_id
_symmetry_equiv_pos_as_xyz
1 x,y,z
_cell_length_a                   34.635(2)
_cell_length_b                   14.7793(4)
_cell_length_c                   31.4237(19)
_cell_angle_alpha                90
_cell_angle_beta                 101.567(6)
_cell_angle_gamma                90
_cell_volume                     15758.5
loop_
_atom_site_label
_atom_site_type_symbol
_atom_site_fract_x
_atom_site_fract_y
_atom_site_fract_z
I1 I 0.35998(16) 0.2268(3) 0.45424(18)
Zn1 Zn 0.40726(7) 0.12589(11) 0.41268(7)
I2 I 0.47112(12) 0.1546(3) 0.37384(11)
N1 N 0.4213(4) 0.0178(7) 0.4556(4)
N2 N 0.3711(4) 0.0591(7) 0.3616(4)
C4 C 0.3420(5) 0.0992(9) 0.3351(5)
H2 H 0.370773 0.020745 0.475788
C8 C 0.3204(4) 0.0560(9) 0.2981(5)
H4 H 0.335396 0.159589 0.341148
H8 H 0.300100 0.086724 0.278634
C26 C 0.2174(5) 0.0355(9) 0.1690(5)
H14 H 0.231204 0.067813 0.193520
C34 C 0.1876(5) 0.0776(10) 0.1406(5)
N11 N 0.1677(3) 0.0337(7) 0.1057(4)
H22 H 0.181103 0.138548 0.145610
Zn4 Zn 0.12597(5) 0.09887(11) 0.06018(6)
N10 N 0.0797(4) 0.0119(9) 0.0555(4)
H20 H 0.082995 0.019915 0.118740
I4 I 0.10643(4) 0.24054(7) 0.09749(4)
C1 C 0.4564(5) 0.9730(10) 0.4585(5)
C2 C 0.3947(5) 0.9882(10) 0.4776(5)
C3 C 0.3754(8) 0.9729(15) 0.3593(8)
H1 H 0.475264 0.994969 0.442890
C5 C 0.4645(4) 0.8970(9) 0.4836(5)
C6 C 0.4011(5) 0.9110(10) 0.5031(5)
C7 C 0.3555(9) 0.923(2) 0.3253(10)
H3 H 0.393039 0.943022 0.382019
H5 H 0.488986 0.866799 0.485587
C9 C 0.4368(4) 0.8641(8) 0.5064(4)
H6 H 0.381619 0.890247 0.518216
C10 C 0.3299(4) 0.9657(8) 0.2909(4)
H7 H 0.358935 0.859260 0.325033
C11 C 0.4448(4) 0.7815(8) 0.5342(4)
C12 C 0.3077(4) 0.9131(8) 0.2531(4)
N3 N 0.4235(3) 0.7733(7) 0.5639(3)
N4 N 0.4731(3) 0.7260(7) 0.5268(4)
N5 N 0.2781(3) 0.9537(7) 0.2266(4)
N6 N 0.3190(3) 0.8273(7) 0.2506(4)
C13 C 0.4316(5) 0.6991(9) 0.5870(5)
C14 C 0.4807(4) 0.6574(9) 0.5552(5)
C15 C 0.2595(4) 0.9046(8) 0.1935(4)
C16 C 0.2959(4) 0.7813(8) 0.2185(5)
C17 C 0.4076(5) 0.6837(10) 0.6215(5)
N7 N 0.4593(4) 0.6403(8) 0.5859(4)
C18 C 0.5133(5) 0.5972(10) 0.5531(5)
C19 C 0.2278(4) 0.9469(8) 0.1626(4)
N8 N 0.2674(3) 0.8154(7) 0.1881(4)
C20 C 0.3039(4) 0.6817(9) 0.2179(4)
C21 C 0.3762(6) 0.7338(13) 0.6226(7)
C22 C 0.4056(10) 0.599(2) 0.6420(11)
C23 C 0.5334(5) 0.5987(11) 0.5207(6)
C24 C 0.5367(8) 0.5605(18) 0.5916(9)
C25 C 0.2065(5) 0.9041(9) 0.1266(5)
C27 C 0.2812(5) 0.6222(9) 0.1914(6)
C28 C 0.3343(5) 0.6465(10) 0.2489(6)
H9 H 0.369147 0.780163 0.601541
C29 C 0.3532(6) 0.7207(13) 0.6539(6)
C30 C 0.3810(11) 0.597(2) 0.6716(12)
H10 H 0.420146 0.547629 0.635861
H11 H 0.525357 0.638466 0.496829
C31 C 0.5657(5) 0.5431(11) 0.5217(6)
C32 C 0.5690(9) 0.505(2) 0.5923(10)
H12 H 0.529778 0.574917 0.618589
C33 C 0.1766(5) 0.9490(10) 0.0990(5)
H13 H 0.212479 0.843277 0.120608
C35 C 0.2882(5) 0.5310(10) 0.1956(5)
H15 H 0.260168 0.643708 0.169511
H16 H 0.350635 0.685093 0.269034
C36 C 0.3405(6) 0.5547(10) 0.2498(6)
H17 H 0.330776 0.757920 0.653418
N9 N 0.3620(4) 0.6573(8) 0.6842(4)
H18 H 0.378385 0.538827 0.684008
H19 H 0.578505 0.543800 0.497628
N10_2 N 0.5797(4) 0.4881(9) 0.5555(4)
H20_2 H 0.582995 0.480085 0.618740
H21 H 0.162105 0.917981 0.074479
N12 N 0.3170(4) 0.4968(8) 0.2248(5)
H23 H 0.271569 0.490901 0.176641
H24 H 0.362787 0.531465 0.269459
Zn2 Zn 0.32971(6) 0.64017(11) 0.73171(6)
Zn3 Zn 0.62597(5) 0.40113(11) 0.56018(6)
I3 I 0.65156(4) 0.39945(12) 0.49057(5)
I4_2 I 0.60643(4) 0.25946(7) 0.59749(4)
I5 I 0.37408(4) 0.33891(8) 0.30619(4)
I6 I 0.26872(6) 0.26457(14) 0.20911(7)
Zn5 Zn 0.32971(6) 0.35983(11) 0.23171(6)
N13 N 0.6677(3) 0.4663(7) 0.6057(4)
N14 N 0.3620(4) 0.3427(8) 0.1842(4)
I1_2 I 0.85998(16) 0.7268(3) 0.45424(18)
Zn1_2 Zn 0.90726(7) 0.62589(11) 0.41268(7)
I2_2 I 0.97112(12) 0.6546(3) 0.37384(11)
N1_2 N 0.9213(4) 0.5178(7) 0.4556(4)
N2_2 N 0.8711(4) 0.5591(7) 0.3616(4)
C1_2 C 0.9564(5) 0.4730(10) 0.4585(5)
C2_2 C 0.8947(5) 0.4882(10) 0.4776(5)
C3_2 C 0.8754(8) 0.4729(15) 0.3593(8)
C4_2 C 0.8420(5) 0.5992(9) 0.3351(5)
H1_2 H 0.975264 0.494969 0.442890
C5_2 C 0.9645(4) 0.3970(9) 0.4836(5)
C6_2 C 0.9011(5) 0.4110(10) 0.5031(5)
H2_2 H 0.870773 0.520745 0.475788
C7_2 C 0.8555(9) 0.423(2) 0.3253(10)
H3_2 H 0.893039 0.443022 0.382019
C8_2 C 0.8204(4) 0.5560(9) 0.2981(5)
H4_2 H 0.835396 0.659589 0.341148
H5_2 H 0.988986 0.366799 0.485587
C9_2 C 0.9368(4) 0.3641(8) 0.5064(4)
H6_2 H 0.881619 0.390247 0.518216
C10_2 C 0.8299(4) 0.4657(8) 0.2909(4)
H7_2 H 0.858935 0.359260 0.325033
H8_2 H 0.800100 0.586724 0.278634
C11_2 C 0.9448(4) 0.2815(8) 0.5342(4)
C12_2 C 0.8077(4) 0.4131(8) 0.2531(4)
N3_2 N 0.9235(3) 0.2733(7) 0.5639(3)
N4_2 N 0.9731(3) 0.2260(7) 0.5268(4)
N5_2 N 0.7781(3) 0.4537(7) 0.2266(4)
N6_2 N 0.8190(3) 0.3273(7) 0.2506(4)
C13_2 C 0.9316(5) 0.1991(9) 0.5870(5)
C14_2 C 0.9807(4) 0.1574(9) 0.5552(5)
C15_2 C 0.7595(4) 0.4046(8) 0.1935(4)
C16_2 C 0.7959(4) 0.2813(8) 0.2185(5)
C17_2 C 0.9076(5) 0.1837(10) 0.6215(5)
N7_2 N 0.9593(4) 0.1403(8) 0.5859(4)
C19_2 C 0.7278(4) 0.4469(8) 0.1626(4)
N8_2 N 0.7674(3) 0.3154(7) 0.1881(4)
C20_2 C 0.8039(4) 0.1817(9) 0.2179(4)
C21_2 C 0.8762(6) 0.2338(13) 0.6226(7)
C22_2 C 0.9056(10) 0.099(2) 0.6420(11)
C25_2 C 0.7065(5) 0.4041(9) 0.1266(5)
C26_2 C 0.7174(5) 0.5355(9) 0.1690(5)
C27_2 C 0.7812(5) 0.1222(9) 0.1914(6)
C28_2 C 0.8343(5) 0.1465(10) 0.2489(6)
H9_2 H 0.869147 0.280163 0.601541
C29_2 C 0.8532(6) 0.2207(13) 0.6539(6)
C30_2 C 0.8810(11) 0.097(2) 0.6716(12)
H10_2 H 0.920146 0.047629 0.635861
C33_2 C 0.6766(5) 0.4490(10) 0.0990(5)
H13_2 H 0.712479 0.343277 0.120608
H14_2 H 0.731204 0.567813 0.193520
C34_2 C 0.6876(5) 0.5776(10) 0.1406(5)
C35_2 C 0.7882(5) 0.0310(10) 0.1956(5)
H15_2 H 0.760168 0.143708 0.169511
H16_2 H 0.850635 0.185093 0.269034
C36_2 C 0.8405(6) 0.0547(10) 0.2498(6)
H17_2 H 0.830776 0.257920 0.653418
N9_2 N 0.8620(4) 0.1573(8) 0.6842(4)
H18_2 H 0.878385 0.038827 0.684008
H21_2 H 0.662105 0.417981 0.074479
N11_2 N 0.6677(3) 0.5337(7) 0.1057(4)
H22_2 H 0.681103 0.638548 0.145610
H24_2 H 0.862787 0.031465 0.269459
Zn2_2 Zn 0.82971(6) 0.14017(11) 0.73171(6)
Zn4_2 Zn 0.62597(5) 0.59887(11) 0.06018(6)
C6_3 C 0.4011(5) 0.0890(10) 0.0031(5)
C9_3 C 0.4368(4) 0.1359(8) 0.0064(4)
H6_3 H 0.381619 0.109753 0.018216
C11_3 C 0.4448(4) 0.2185(8) 0.0342(4)
N3_3 N 0.4235(3) 0.2267(7) 0.0639(3)
N4_3 N 0.4731(3) 0.2740(7) 0.0268(4)
C13_3 C 0.4316(5) 0.3009(9) 0.0870(5)
C14_3 C 0.4807(4) 0.3426(9) 0.0552(5)
C17_3 C 0.4076(5) 0.3163(10) 0.1215(5)
N7_3 N 0.4593(4) 0.3597(8) 0.0859(4)
C18_2 C 0.5133(5) 0.4028(10) 0.0531(5)
C21_3 C 0.3762(6) 0.2662(13) 0.1226(7)
C22_3 C 0.4056(10) 0.401(2) 0.1420(11)
C23_2 C 0.5334(5) 0.4013(11) 0.0207(6)
C24_2 C 0.5367(8) 0.4395(18) 0.0916(9)
H9_3 H 0.369147 0.219837 0.101541
C29_3 C 0.3532(6) 0.2793(13) 0.1539(6)
C30_3 C 0.3810(11) 0.403(2) 0.1716(12)
H10_3 H 0.420146 0.452371 0.135861
C31_2 C 0.5657(5) 0.4569(11) 0.0217(6)
C32_2 C 0.5690(9) 0.495(2) 0.0923(10)
H12_2 H 0.529778 0.425083 0.118589
H17_3 H 0.330776 0.242080 0.153418
H18_3 H 0.378385 0.461173 0.184008
N10_3 N 0.5797(4) 0.5119(9) 0.0555(4)
H20_3 H 0.582995 0.519915 0.118740
I4_3 I 0.60643(4) 0.74054(7) 0.09749(4)
C1_3 C 0.4564(5) 0.0270(10) 0.9585(5)
C2_3 C 0.3947(5) 0.0118(10) 0.9776(5)
C3_3 C 0.3754(8) 0.0271(15) 0.8593(8)
H1_3 H 0.475264 0.005031 0.942890
C5_3 C 0.4645(4) 0.1030(9) 0.9836(5)
C7_3 C 0.3555(9) 0.077(2) 0.8253(10)
H3_3 H 0.393039 0.056978 0.882019
H5_3 H 0.488986 0.133201 0.985587
C10_3 C 0.3299(4) 0.0343(8) 0.7909(4)
H7_3 H 0.358935 0.140740 0.825033
C12_3 C 0.3077(4) 0.0869(8) 0.7531(4)
N5_3 N 0.2781(3) 0.0463(7) 0.7266(4)
N6_3 N 0.3190(3) 0.1727(7) 0.7506(4)
C15_3 C 0.2595(4) 0.0954(8) 0.6935(4)
C16_3 C 0.2959(4) 0.2187(8) 0.7185(5)
C19_3 C 0.2278(4) 0.0531(8) 0.6626(4)
N8_3 N 0.2674(3) 0.1846(7) 0.6881(4)
C20_3 C 0.3039(4) 0.3183(9) 0.7179(4)
C25_3 C 0.2065(5) 0.0959(9) 0.6266(5)
C27_3 C 0.2812(5) 0.3778(9) 0.6914(6)
C28_3 C 0.3343(5) 0.3535(10) 0.7489(6)
H11_2 H 0.525357 0.361534 0.996829
C33_3 C 0.1766(5) 0.0510(10) 0.5990(5)
H13_3 H 0.212479 0.156723 0.620608
C35_3 C 0.2882(5) 0.4690(10) 0.6956(5)
H15_3 H 0.260168 0.356292 0.669511
H16_3 H 0.350635 0.314907 0.769034
C36_3 C 0.3405(6) 0.4453(10) 0.7498(6)
H19_2 H 0.578505 0.456200 0.997628
H21_3 H 0.162105 0.082019 0.574479
N12_2 N 0.3170(4) 0.5032(8) 0.7248(5)
H23_2 H 0.271569 0.509099 0.676641
H24_3 H 0.362787 0.468535 0.769459
I3_2 I 0.65156(4) 0.60055(12) 0.99057(5)
I5_2 I 0.37408(4) 0.66109(8) 0.80619(4)
I6_2 I 0.26872(6) 0.73543(14) 0.70911(7)
N12_3 N 0.8170(4) 0.0032(8) 0.7248(5)
H23_3 H 0.771569 0.009099 0.676641
I5_3 I 0.87408(4) 0.16109(8) 0.80619(4)
I6_3 I 0.76872(6) 0.23543(14) 0.70911(7)
I1_3 I 0.85998(16) 0.2732(3) 0.95424(18)
Zn1_3 Zn 0.90726(7) 0.37411(11) 0.91268(7)
I2_3 I 0.97112(12) 0.3454(3) 0.87384(11)
N1_3 N 0.9213(4) 0.4822(7) 0.9556(4)
N2_3 N 0.8711(4) 0.4409(7) 0.8616(4)
C1_4 C 0.9564(5) 0.5270(10) 0.9585(5)
C2_4 C 0.8947(5) 0.5118(10) 0.9776(5)
C3_4 C 0.8754(8) 0.5271(15) 0.8593(8)
C4_3 C 0.8420(5) 0.4008(9) 0.8351(5)
H1_4 H 0.975264 0.505031 0.942890
C5_4 C 0.9645(4) 0.6030(9) 0.9836(5)
H2_3 H 0.870773 0.479255 0.975788
C7_4 C 0.8555(9) 0.577(2) 0.8253(10)
H3_4 H 0.893039 0.556978 0.882019
C8_3 C 0.8204(4) 0.4440(9) 0.7981(5)
H4_3 H 0.835396 0.340411 0.841148
H5_4 H 0.988986 0.633201 0.985587
C10_4 C 0.8299(4) 0.5343(8) 0.7909(4)
H7_4 H 0.858935 0.640740 0.825033
H8_3 H 0.800100 0.413276 0.778634
C12_4 C 0.8077(4) 0.5869(8) 0.7531(4)
N5_4 N 0.7781(3) 0.5463(7) 0.7266(4)
N6_4 N 0.8190(3) 0.6727(7) 0.7506(4)
C15_4 C 0.7595(4) 0.5954(8) 0.6935(4)
C16_4 C 0.7959(4) 0.7187(8) 0.7185(5)
C19_4 C 0.7278(4) 0.5531(8) 0.6626(4)
N8_4 N 0.7674(3) 0.6846(7) 0.6881(4)
C20_4 C 0.8039(4) 0.8183(9) 0.7179(4)
C25_4 C 0.7065(5) 0.5959(9) 0.6266(5)
C26_3 C 0.7174(5) 0.4645(9) 0.6690(5)
C27_4 C 0.7812(5) 0.8778(9) 0.6914(6)
C28_4 C 0.8343(5) 0.8535(10) 0.7489(6)
C33_4 C 0.6766(5) 0.5510(10) 0.5990(5)
H13_4 H 0.712479 0.656723 0.620608
H14_3 H 0.731204 0.432187 0.693520
C34_3 C 0.6876(5) 0.4224(10) 0.6406(5)
C35_4 C 0.7882(5) 0.9690(10) 0.6956(5)
H15_4 H 0.760168 0.856292 0.669511
H16_4 H 0.850635 0.814907 0.769034
C36_4 C 0.8405(6) 0.9453(10) 0.7498(6)
H21_4 H 0.662105 0.582019 0.574479
H22_3 H 0.681103 0.361452 0.645610
H24_4 H 0.862787 0.968535 0.769459
I1_4 I 0.64002(16) 0.2268(3) 0.04576(18)
Zn1_4 Zn 0.59274(7) 0.12589(11) 0.08732(7)
I2_4 I 0.52888(12) 0.1546(3) 0.12616(11)
N1_4 N 0.5787(4) 0.0178(7) 0.0444(4)
N2_4 N 0.6289(4) 0.0591(7) 0.1384(4)
C4_4 C 0.6580(5) 0.0992(9) 0.1649(5)
H2_4 H 0.629227 0.020745 0.024212
C8_4 C 0.6796(4) 0.0560(9) 0.2019(5)
H4_4 H 0.664604 0.159589 0.158852
H8_4 H 0.699900 0.086724 0.221366
C26_4 C 0.7826(5) 0.0355(9) 0.3310(5)
H14_4 H 0.768796 0.067813 0.306480
C34_4 C 0.8124(5) 0.0776(10) 0.3594(5)
N11_3 N 0.8323(3) 0.0337(7) 0.3943(4)
H22_4 H 0.818897 0.138548 0.354390
Zn4_3 Zn 0.87403(5) 0.09887(11) 0.43982(6)
N10_4 N 0.9203(4) 0.0119(9) 0.4445(4)
H20_4 H 0.917005 0.019915 0.381260
I3_3 I 0.84844(4) 0.10055(12) 0.50943(5)
I4_4 I 0.89357(4) 0.24054(7) 0.40251(4)
C1_5 C 0.5436(5) 0.9730(10) 0.0415(5)
C2_5 C 0.6053(5) 0.9882(10) 0.0224(5)
C3_5 C 0.6246(8) 0.9729(15) 0.1407(8)
H1_5 H 0.524736 0.994969 0.057110
C5_5 C 0.5355(4) 0.8970(9) 0.0164(5)
C7_5 C 0.6445(9) 0.923(2) 0.1747(10)
H3_5 H 0.606961 0.943022 0.117981
H5_5 H 0.511014 0.866799 0.014413
C10_5 C 0.6701(4) 0.9657(8) 0.2091(4)
H7_5 H 0.641065 0.859260 0.174967
C12_5 C 0.6923(4) 0.9131(8) 0.2469(4)
N5_5 N 0.7219(3) 0.9537(7) 0.2734(4)
N6_5 N 0.6810(3) 0.8273(7) 0.2494(4)
C15_5 C 0.7405(4) 0.9046(8) 0.3065(4)
C16_5 C 0.7041(4) 0.7813(8) 0.2815(5)
C19_5 C 0.7722(4) 0.9469(8) 0.3374(4)
N8_5 N 0.7326(3) 0.8154(7) 0.3119(4)
C20_5 C 0.6961(4) 0.6817(9) 0.2821(4)
C25_5 C 0.7935(5) 0.9041(9) 0.3734(5)
C27_5 C 0.7188(5) 0.6222(9) 0.3086(6)
C28_5 C 0.6657(5) 0.6465(10) 0.2511(6)
H11_3 H 0.474643 0.638466 0.003171
C33_5 C 0.8234(5) 0.9490(10) 0.4010(5)
H13_5 H 0.787521 0.843277 0.379392
C35_5 C 0.7118(5) 0.5310(10) 0.3044(5)
H15_5 H 0.739832 0.643708 0.330489
H16_5 H 0.649365 0.685093 0.230966
C36_5 C 0.6595(6) 0.5547(10) 0.2502(6)
H19_3 H 0.421495 0.543800 0.002372
H21_5 H 0.837895 0.917981 0.425521
N12_4 N 0.6830(4) 0.4968(8) 0.2752(5)
H23_4 H 0.728431 0.490901 0.323359
H24_5 H 0.637213 0.531465 0.230541
I3_4 I 0.34844(4) 0.39945(12) 0.00943(5)
I5_4 I 0.62592(4) 0.33891(8) 0.19381(4)
I6_4 I 0.73128(6) 0.26457(14) 0.29089(7)
Zn5_2 Zn 0.67029(6) 0.35983(11) 0.26829(6)
N14_2 N 0.6380(4) 0.3427(8) 0.3158(4)
C6_4 C 0.5989(5) 0.9110(10) 0.9969(5)
C9_4 C 0.5632(4) 0.8641(8) 0.9936(4)
H6_4 H 0.618381 0.890247 0.981784
C11_4 C 0.5552(4) 0.7815(8) 0.9658(4)
N3_4 N 0.5765(3) 0.7733(7) 0.9361(3)
N4_4 N 0.5269(3) 0.7260(7) 0.9732(4)
C13_4 C 0.5684(5) 0.6991(9) 0.9130(5)
C14_4 C 0.5193(4) 0.6574(9) 0.9448(5)
C17_4 C 0.5924(5) 0.6837(10) 0.8785(5)
N7_4 N 0.5407(4) 0.6403(8) 0.9141(4)
C18_3 C 0.4867(5) 0.5972(10) 0.9469(5)
C21_4 C 0.6238(6) 0.7338(13) 0.8774(7)
C22_4 C 0.5944(10) 0.599(2) 0.8580(11)
C23_3 C 0.4666(5) 0.5987(11) 0.9793(6)
C24_3 C 0.4633(8) 0.5605(18) 0.9084(9)
H9_4 H 0.630853 0.780163 0.898459
C29_4 C 0.6468(6) 0.7207(13) 0.8461(6)
C30_4 C 0.6190(11) 0.597(2) 0.8284(12)
H10_4 H 0.579854 0.547629 0.864139
C31_3 C 0.4343(5) 0.5431(11) 0.9783(6)
C32_3 C 0.4310(9) 0.505(2) 0.9077(10)
H12_3 H 0.470222 0.574917 0.881411
H17_4 H 0.669224 0.757920 0.846582
N9_3 N 0.6380(4) 0.6573(8) 0.8158(4)
H18_4 H 0.621615 0.538827 0.815992
N10_5 N 0.4203(4) 0.4881(9) 0.9445(4)
H20_5 H 0.417005 0.480085 0.881260
Zn2_3 Zn 0.67029(6) 0.64017(11) 0.76829(6)
Zn3_2 Zn 0.37403(5) 0.40113(11) 0.93982(6)
I4_5 I 0.39357(4) 0.25946(7) 0.90251(4)
N13_2 N 0.3323(3) 0.4663(7) 0.8943(4)
I1_5 I 0.14002(16) 0.7268(3) 0.04576(18)
Zn1_5 Zn 0.09274(7) 0.62589(11) 0.08732(7)
I2_5 I 0.02888(12) 0.6546(3) 0.12616(11)
N1_5 N 0.0787(4) 0.5178(7) 0.0444(4)
N2_5 N 0.1289(4) 0.5591(7) 0.1384(4)
C1_6 C 0.0436(5) 0.4730(10) 0.0415(5)
C2_6 C 0.1053(5) 0.4882(10) 0.0224(5)
C3_6 C 0.1246(8) 0.4729(15) 0.1407(8)
C4_5 C 0.1580(5) 0.5992(9) 0.1649(5)
H1_6 H 0.024736 0.494969 0.057110
C5_6 C 0.0355(4) 0.3970(9) 0.0164(5)
H2_5 H 0.129227 0.520745 0.024212
C7_6 C 0.1445(9) 0.423(2) 0.1747(10)
H3_6 H 0.106961 0.443022 0.117981
C8_5 C 0.1796(4) 0.5560(9) 0.2019(5)
H4_5 H 0.164604 0.659589 0.158852
H5_6 H 0.011014 0.366799 0.014413
C10_6 C 0.1701(4) 0.4657(8) 0.2091(4)
H7_6 H 0.141065 0.359260 0.174967
H8_5 H 0.199900 0.586724 0.221366
C12_6 C 0.1923(4) 0.4131(8) 0.2469(4)
N5_6 N 0.2219(3) 0.4537(7) 0.2734(4)
N6_6 N 0.1810(3) 0.3273(7) 0.2494(4)
C15_6 C 0.2405(4) 0.4046(8) 0.3065(4)
C16_6 C 0.2041(4) 0.2813(8) 0.2815(5)
C19_6 C 0.2722(4) 0.4469(8) 0.3374(4)
N8_6 N 0.2326(3) 0.3154(7) 0.3119(4)
C20_6 C 0.1961(4) 0.1817(9) 0.2821(4)
C25_6 C 0.2935(5) 0.4041(9) 0.3734(5)
C26_5 C 0.2826(5) 0.5355(9) 0.3310(5)
C27_6 C 0.2188(5) 0.1222(9) 0.3086(6)
C28_6 C 0.1657(5) 0.1465(10) 0.2511(6)
C33_6 C 0.3234(5) 0.4490(10) 0.4010(5)
H13_6 H 0.287521 0.343277 0.379392
H14_5 H 0.268796 0.567813 0.306480
C34_5 C 0.3124(5) 0.5776(10) 0.3594(5)
C35_6 C 0.2118(5) 0.0310(10) 0.3044(5)
H15_6 H 0.239832 0.143708 0.330489
H16_6 H 0.149365 0.185093 0.230966
C36_6 C 0.1595(6) 0.0547(10) 0.2502(6)
H21_6 H 0.337895 0.417981 0.425521
N11_4 N 0.3323(3) 0.5337(7) 0.3943(4)
H22_5 H 0.318897 0.638548 0.354390
H24_6 H 0.137213 0.031465 0.230541
Zn4_4 Zn 0.37403(5) 0.59887(11) 0.43982(6)
N12_5 N 0.1830(4) 0.9968(8) 0.2752(5)
H23_5 H 0.228431 0.990901 0.323359
I5_5 I 0.12592(4) 0.83891(8) 0.19381(4)
I6_5 I 0.23128(6) 0.76457(14) 0.29089(7)
Zn5_3 Zn 0.17029(6) 0.85983(11) 0.26829(6)
N14_3 N 0.1380(4) 0.8427(8) 0.3158(4)
C1_7 C 0.5436(5) 0.0270(10) 0.5415(5)
C2_7 C 0.6053(5) 0.0118(10) 0.5224(5)
C3_7 C 0.6246(8) 0.0271(15) 0.6407(8)
H1_7 H 0.524736 0.005031 0.557110
C5_7 C 0.5355(4) 0.1030(9) 0.5164(5)
C6_5 C 0.5989(5) 0.0890(10) 0.4969(5)
C7_7 C 0.6445(9) 0.077(2) 0.6747(10)
H3_7 H 0.606961 0.056978 0.617981
H5_7 H 0.511014 0.133201 0.514413
C9_5 C 0.5632(4) 0.1359(8) 0.4936(4)
H6_5 H 0.618381 0.109753 0.481784
C10_7 C 0.6701(4) 0.0343(8) 0.7091(4)
H7_7 H 0.641065 0.140740 0.674967
C11_5 C 0.5552(4) 0.2185(8) 0.4658(4)
C12_7 C 0.6923(4) 0.0869(8) 0.7469(4)
N3_5 N 0.5765(3) 0.2267(7) 0.4361(3)
N4_5 N 0.5269(3) 0.2740(7) 0.4732(4)
N5_7 N 0.7219(3) 0.0463(7) 0.7734(4)
N6_7 N 0.6810(3) 0.1727(7) 0.7494(4)
C13_5 C 0.5684(5) 0.3009(9) 0.4130(5)
C14_5 C 0.5193(4) 0.3426(9) 0.4448(5)
C15_7 C 0.7405(4) 0.0954(8) 0.8065(4)
C16_7 C 0.7041(4) 0.2187(8) 0.7815(5)
C17_5 C 0.5924(5) 0.3163(10) 0.3785(5)
N7_5 N 0.5407(4) 0.3597(8) 0.4141(4)
C18_4 C 0.4867(5) 0.4028(10) 0.4469(5)
C19_7 C 0.7722(4) 0.0531(8) 0.8374(4)
N8_7 N 0.7326(3) 0.1846(7) 0.8119(4)
C20_7 C 0.6961(4) 0.3183(9) 0.7821(4)
C21_5 C 0.6238(6) 0.2662(13) 0.3774(7)
C22_5 C 0.5944(10) 0.401(2) 0.3580(11)
C23_4 C 0.4666(5) 0.4013(11) 0.4793(6)
C24_4 C 0.4633(8) 0.4395(18) 0.4084(9)
C25_7 C 0.7935(5) 0.0959(9) 0.8734(5)
C27_7 C 0.7188(5) 0.3778(9) 0.8086(6)
C28_7 C 0.6657(5) 0.3535(10) 0.7511(6)
H9_5 H 0.630853 0.219837 0.398459
C29_5 C 0.6468(6) 0.2793(13) 0.3461(6)
C30_5 C 0.6190(11) 0.403(2) 0.3284(12)
H10_5 H 0.579854 0.452371 0.364139
H11_4 H 0.474643 0.361534 0.503171
C31_4 C 0.4343(5) 0.4569(11) 0.4783(6)
C32_4 C 0.4310(9) 0.495(2) 0.4077(10)
H12_4 H 0.470222 0.425083 0.381411
C33_7 C 0.8234(5) 0.0510(10) 0.9010(5)
H13_7 H 0.787521 0.156723 0.879392
C35_7 C 0.7118(5) 0.4690(10) 0.8044(5)
H15_7 H 0.739832 0.356292 0.830489
H16_7 H 0.649365 0.314907 0.730966
C36_7 C 0.6595(6) 0.4453(10) 0.7502(6)
H17_5 H 0.669224 0.242080 0.346582
H18_5 H 0.621615 0.461173 0.315992
H19_4 H 0.421495 0.456200 0.502372
N10_6 N 0.4203(4) 0.5119(9) 0.4445(4)
H20_6 H 0.417005 0.519915 0.381260
H21_7 H 0.837895 0.082019 0.925521
N12_6 N 0.6830(4) 0.5032(8) 0.7752(5)
H23_6 H 0.728431 0.509099 0.823359
H24_7 H 0.637213 0.468535 0.730541
I3_5 I 0.34844(4) 0.60055(12) 0.50943(5)
I4_6 I 0.39357(4) 0.74054(7) 0.40251(4)
I5_6 I 0.62592(4) 0.66109(8) 0.69381(4)
I6_6 I 0.73128(6) 0.73543(14) 0.79089(7)
I1_6 I 0.14002(16) 0.2732(3) 0.54576(18)
Zn1_6 Zn 0.09274(7) 0.37411(11) 0.58732(7)
I2_6 I 0.02888(12) 0.3454(3) 0.62616(11)
N1_6 N 0.0787(4) 0.4822(7) 0.5444(4)
N2_6 N 0.1289(4) 0.4409(7) 0.6384(4)
C1_8 C 0.0436(5) 0.5270(10) 0.5415(5)
C2_8 C 0.1053(5) 0.5118(10) 0.5224(5)
C3_8 C 0.1246(8) 0.5271(15) 0.6407(8)
C4_6 C 0.1580(5) 0.4008(9) 0.6649(5)
H1_8 H 0.024736 0.505031 0.557110
C5_8 C 0.0355(4) 0.6030(9) 0.5164(5)
C6_6 C 0.0989(5) 0.5890(10) 0.4969(5)
H2_6 H 0.129227 0.479255 0.524212
C7_8 C 0.1445(9) 0.577(2) 0.6747(10)
H3_8 H 0.106961 0.556978 0.617981
C8_6 C 0.1796(4) 0.4440(9) 0.7019(5)
H4_6 H 0.164604 0.340411 0.658852
H5_8 H 0.011014 0.633201 0.514413
C9_6 C 0.0632(4) 0.6359(8) 0.4936(4)
H6_6 H 0.118381 0.609753 0.481784
C10_8 C 0.1701(4) 0.5343(8) 0.7091(4)
H7_8 H 0.141065 0.640740 0.674967
H8_6 H 0.199900 0.413276 0.721366
C11_6 C 0.0552(4) 0.7185(8) 0.4658(4)
C12_8 C 0.1923(4) 0.5869(8) 0.7469(4)
N3_6 N 0.0765(3) 0.7267(7) 0.4361(3)
N4_6 N 0.0269(3) 0.7740(7) 0.4732(4)
N5_8 N 0.2219(3) 0.5463(7) 0.7734(4)
N6_8 N 0.1810(3) 0.6727(7) 0.7494(4)
C13_6 C 0.0684(5) 0.8009(9) 0.4130(5)
C14_6 C 0.0193(4) 0.8426(9) 0.4448(5)
C15_8 C 0.2405(4) 0.5954(8) 0.8065(4)
C16_8 C 0.2041(4) 0.7187(8) 0.7815(5)
C17_6 C 0.0924(5) 0.8163(10) 0.3785(5)
N7_6 N 0.0407(4) 0.8597(8) 0.4141(4)
C19_8 C 0.2722(4) 0.5531(8) 0.8374(4)
N8_8 N 0.2326(3) 0.6846(7) 0.8119(4)
C20_8 C 0.1961(4) 0.8183(9) 0.7821(4)
C21_6 C 0.1238(6) 0.7662(13) 0.3774(7)
C22_6 C 0.0944(10) 0.901(2) 0.3580(11)
C25_8 C 0.2935(5) 0.5959(9) 0.8734(5)
C26_6 C 0.2826(5) 0.4645(9) 0.8310(5)
C27_8 C 0.2188(5) 0.8778(9) 0.8086(6)
C28_8 C 0.1657(5) 0.8535(10) 0.7511(6)
H9_6 H 0.130853 0.719837 0.398459
C29_6 C 0.1468(6) 0.7793(13) 0.3461(6)
C30_6 C 0.1190(11) 0.903(2) 0.3284(12)
H10_6 H 0.079854 0.952371 0.364139
C33_8 C 0.3234(5) 0.5510(10) 0.9010(5)
H13_8 H 0.287521 0.656723 0.879392
H14_6 H 0.268796 0.432187 0.806480
C34_6 C 0.3124(5) 0.4224(10) 0.8594(5)
C35_8 C 0.2118(5) 0.9690(10) 0.8044(5)
H15_8 H 0.239832 0.856292 0.830489
H16_8 H 0.149365 0.814907 0.730966
C36_8 C 0.1595(6) 0.9453(10) 0.7502(6)
H17_6 H 0.169224 0.742080 0.346582
H18_6 H 0.121615 0.961173 0.315992
H21_8 H 0.337895 0.582019 0.925521
H22_6 H 0.318897 0.361452 0.854390
H24_8 H 0.137213 0.968535 0.730541
C18_5 C 0.0133(5) 0.0972(10) 0.5531(5)
C23_5 C 0.0334(5) 0.0987(11) 0.5207(6)
C24_5 C 0.0367(8) 0.0605(18) 0.5916(9)
H11_5 H 0.025357 0.138466 0.496829
C31_5 C 0.0657(5) 0.0431(11) 0.5217(6)
C32_5 C 0.0690(9) 0.005(2) 0.5923(10)
H12_5 H 0.029778 0.074917 0.618589
H19_5 H 0.078505 0.043800 0.497628
N10_7 N 0.0797(4) 0.9881(9) 0.5555(4)
H20_7 H 0.082995 0.980085 0.618740
Zn3_3 Zn 0.12597(5) 0.90113(11) 0.56018(6)
I3_6 I 0.15156(4) 0.89945(12) 0.49057(5)
I4_7 I 0.10643(4) 0.75946(7) 0.59749(4)
N13_3 N 0.1677(3) 0.9663(7) 0.6057(4)
I1_7 I 0.35998(16) 0.7732(3) 0.95424(18)
Zn1_7 Zn 0.40726(7) 0.87411(11) 0.91268(7)
I2_7 I 0.47112(12) 0.8454(3) 0.87384(11)
N1_7 N 0.4213(4) 0.9822(7) 0.9556(4)
N2_7 N 0.3711(4) 0.9409(7) 0.8616(4)
C4_7 C 0.3420(5) 0.9008(9) 0.8351(5)
H2_7 H 0.370773 0.979255 0.975788
C8_7 C 0.3204(4) 0.9440(9) 0.7981(5)
H4_7 H 0.335396 0.840411 0.841148
H8_7 H 0.300100 0.913276 0.778634
C26_7 C 0.2174(5) 0.9645(9) 0.6690(5)
H14_7 H 0.231204 0.932187 0.693520
C34_7 C 0.1876(5) 0.9224(10) 0.6406(5)
H22_7 H 0.181103 0.861452 0.645610
N12_7 N 0.8170(4) 0.9968(8) 0.2248(5)
H23_7 H 0.771569 0.990901 0.176641
I5_7 I 0.87408(4) 0.83891(8) 0.30619(4)
I6_7 I 0.76872(6) 0.76457(14) 0.20911(7)
Zn5_4 Zn 0.82971(6) 0.85983(11) 0.23171(6)
N14_4 N 0.8620(4) 0.8427(8) 0.1842(4)
C6_7 C 0.9011(5) 0.5890(10) 0.0031(5)
C9_7 C 0.9368(4) 0.6359(8) 0.0064(4)
H6_7 H 0.881619 0.609753 0.018216
C11_7 C 0.9448(4) 0.7185(8) 0.0342(4)
N3_7 N 0.9235(3) 0.7267(7) 0.0639(3)
N4_7 N 0.9731(3) 0.7740(7) 0.0268(4)
C13_7 C 0.9316(5) 0.8009(9) 0.0870(5)
C14_7 C 0.9807(4) 0.8426(9) 0.0552(5)
C17_7 C 0.9076(5) 0.8163(10) 0.1215(5)
N7_7 N 0.9593(4) 0.8597(8) 0.0859(4)
C21_7 C 0.8762(6) 0.7662(13) 0.1226(7)
C22_7 C 0.9056(10) 0.901(2) 0.1420(11)
H9_7 H 0.869147 0.719837 0.101541
C29_7 C 0.8532(6) 0.7793(13) 0.1539(6)
C30_7 C 0.8810(11) 0.903(2) 0.1716(12)
H10_7 H 0.920146 0.952371 0.135861
H17_7 H 0.830776 0.742080 0.153418
H18_7 H 0.878385 0.961173 0.184008
C6_8 C 0.0989(5) 0.4110(10) 0.9969(5)
C9_8 C 0.0632(4) 0.3641(8) 0.9936(4)
H6_8 H 0.118381 0.390247 0.981784
C11_8 C 0.0552(4) 0.2815(8) 0.9658(4)
N3_8 N 0.0765(3) 0.2733(7) 0.9361(3)
N4_8 N 0.0269(3) 0.2260(7) 0.9732(4)
C13_8 C 0.0684(5) 0.1991(9) 0.9130(5)
C14_8 C 0.0193(4) 0.1574(9) 0.9448(5)
C17_8 C 0.0924(5) 0.1837(10) 0.8785(5)
N7_8 N 0.0407(4) 0.1403(8) 0.9141(4)
C21_8 C 0.1238(6) 0.2338(13) 0.8774(7)
C22_8 C 0.0944(10) 0.099(2) 0.8580(11)
H9_8 H 0.130853 0.280163 0.898459
C29_8 C 0.1468(6) 0.2207(13) 0.8461(6)
C30_8 C 0.1190(11) 0.097(2) 0.8284(12)
H10_8 H 0.079854 0.047629 0.864139
H17_8 H 0.169224 0.257920 0.846582
N9_4 N 0.1380(4) 0.1573(8) 0.8158(4)
H18_8 H 0.121615 0.038827 0.815992
Zn2_4 Zn 0.17029(6) 0.14017(11) 0.76829(6)
N12_8 N 0.1830(4) 0.0032(8) 0.7752(5)
H23_8 H 0.228431 0.009099 0.823359
I5_8 I 0.12592(4) 0.16109(8) 0.69381(4)
I6_8 I 0.23128(6) 0.23543(14) 0.79089(7)
H11_6 H 0.974643 0.138466 0.003171
H19_6 H 0.921495 0.043800 0.002372
C18_6 C 0.9867(5) 0.0972(10) 0.9469(5)
C23_6 C 0.9666(5) 0.0987(11) 0.9793(6)
C24_6 C 0.9633(8) 0.0605(18) 0.9084(9)
C31_6 C 0.9343(5) 0.0431(11) 0.9783(6)
C32_6 C 0.9310(9) 0.005(2) 0.9077(10)
H12_6 H 0.970222 0.074917 0.881411
I3_7 I 0.84844(4) 0.89945(12) 0.00943(5)
N10_8 N 0.9203(4) 0.9881(9) 0.9445(4)
H20_8 H 0.917005 0.980085 0.881260
Zn3_4 Zn 0.87403(5) 0.90113(11) 0.93982(6)
I4_8 I 0.89357(4) 0.75946(7) 0.90251(4)
N13_4 N 0.8323(3) 0.9663(7) 0.8943(4)
I1_8 I 0.64002(16) 0.7732(3) 0.54576(18)
Zn1_8 Zn 0.59274(7) 0.87411(11) 0.58732(7)
I2_8 I 0.52888(12) 0.8454(3) 0.62616(11)
N1_8 N 0.5787(4) 0.9822(7) 0.5444(4)
N2_8 N 0.6289(4) 0.9409(7) 0.6384(4)
C4_8 C 0.6580(5) 0.9008(9) 0.6649(5)
H2_8 H 0.629227 0.979255 0.524212
C8_8 C 0.6796(4) 0.9440(9) 0.7019(5)
H4_8 H 0.664604 0.840411 0.658852
H8_8 H 0.699900 0.913276 0.721366
C26_8 C 0.7826(5) 0.9645(9) 0.8310(5)
H14_8 H 0.768796 0.932187 0.806480
C34_8 C 0.8124(5) 0.9224(10) 0.8594(5)
H22_8 H 0.818897 0.861452 0.854390
C18_7 C 0.9867(5) 0.9028(10) 0.4469(5)
C23_7 C 0.9666(5) 0.9013(11) 0.4793(6)
C24_7 C 0.9633(8) 0.9395(18) 0.4084(9)
H11_7 H 0.974643 0.861534 0.503171
C31_7 C 0.9343(5) 0.9569(11) 0.4783(6)
C32_7 C 0.9310(9) 0.995(2) 0.4077(10)
H12_7 H 0.970222 0.925083 0.381411
H19_7 H 0.921495 0.956200 0.502372
I3_8 I 0.15156(4) 0.10055(12) 0.99057(5)
C18_8 C 0.0133(5) 0.9028(10) 0.0531(5)
C23_8 C 0.0334(5) 0.9013(11) 0.0207(6)
C24_8 C 0.0367(8) 0.9395(18) 0.0916(9)
C31_8 C 0.0657(5) 0.9569(11) 0.0217(6)
C32_8 C 0.0690(9) 0.995(2) 0.0923(10)
H12_8 H 0.029778 0.925083 0.118589
H11_8 H 0.025357 0.861534 0.996829
H19_8 H 0.078505 0.956200 0.997628
loop_
_geom_bond_atom_site_label_1
_geom_bond_atom_site_label_2
_geom_bond_site_symmetry_1
_geom_bond_site_symmetry_2
I1 Zn1 1_555 1_555
Zn1 I2 1_555 1_555
N1 Zn1 1_555 1_555
N2 Zn1 1_555 1_555
C4 N2 1_555 1_555
C8 C4 1_555 1_555
H4 C4 1_555 1_555
H8 C8 1_555 1_555
H14 C26 1_555 1_555
C34 C26 1_555 1_555
H22 C34 1_555 1_555
Zn4 N11 1_555 1_555
C34 N11 1_555 1_555
Zn4 N10 1_555 1_555
I4 Zn4 1_555 1_555
H1 C1 1_555 1_555
C5 C1 1_555 1_555
C6 C2 1_555 1_555
C7 C3 1_555 1_555
H3 C3 1_555 1_555
H5 C5 1_555 1_555
C9 C5 1_555 1_555
H6 C6 1_555 1_555
C10 C7 1_555 1_555
H7 C7 1_555 1_555
C11 C9 1_555 1_555
C12 C10 1_555 1_555
N3 C11 1_555 1_555
N4 C11 1_555 1_555
N5 C12 1_555 1_555
N6 C12 1_555 1_555
C13 N3 1_555 1_555
C14 N4 1_555 1_555
C15 N5 1_555 1_555
C16 N6 1_555 1_555
C17 C13 1_555 1_555
N7 C13 1_555 1_555
C18 C14 1_555 1_555
C19 C15 1_555 1_555
N8 C15 1_555 1_555
C20 C16 1_555 1_555
C21 C17 1_555 1_555
C22 C17 1_555 1_555
C23 C18 1_555 1_555
C24 C18 1_555 1_555
C25 C19 1_555 1_555
C27 C20 1_555 1_555
C28 C20 1_555 1_555
H9 C21 1_555 1_555
C29 C21 1_555 1_555
C30 C22 1_555 1_555
H10 C22 1_555 1_555
H11 C23 1_555 1_555
C31 C23 1_555 1_555
C32 C24 1_555 1_555
H12 C24 1_555 1_555
C33 C25 1_555 1_555
H13 C25 1_555 1_555
C35 C27 1_555 1_555
H15 C27 1_555 1_555
H16 C28 1_555 1_555
C36 C28 1_555 1_555
H17 C29 1_555 1_555
N9 C29 1_555 1_555
H18 C30 1_555 1_555
H19 C31 1_555 1_555
N10_2 C31 1_555 1_555
H20_2 C32 1_555 1_555
H21 C33 1_555 1_555
N12 C35 1_555 1_555
H23 C35 1_555 1_555
H24 C36 1_555 1_555
Zn2 N9 1_555 1_555
Zn3 N10_2 1_555 1_555
I3 Zn3 1_555 1_555
I4_2 Zn3 1_555 1_555
I5 Zn5 1_555 1_555
I6 Zn5 1_555 1_555
Zn5 N12 1_555 1_555
N13 Zn3 1_555 1_555
N14 Zn5 1_555 1_555
C6 C9 1_555 1_555
C14 N7 1_555 1_555
C16 N8 1_555 1_555
C30 N9 1_555 1_555
C32 N10_2 1_555 1_555
C36 N12 1_555 1_555
I1_2 Zn1_2 1_555 1_555
Zn1_2 I2_2 1_555 1_555
N1_2 Zn1_2 1_555 1_555
N2_2 Zn1_2 1_555 1_555
C1_2 N1_2 1_555 1_555
C2_2 N1_2 1_555 1_555
C3_2 N2_2 1_555 1_555
C4_2 N2_2 1_555 1_555
H1_2 C1_2 1_555 1_555
C5_2 C1_2 1_555 1_555
C6_2 C2_2 1_555 1_555
H2_2 C2_2 1_555 1_555
C7_2 C3_2 1_555 1_555
H3_2 C3_2 1_555 1_555
C8_2 C4_2 1_555 1_555
H4_2 C4_2 1_555 1_555
H5_2 C5_2 1_555 1_555
C9_2 C5_2 1_555 1_555
H6_2 C6_2 1_555 1_555
C10_2 C7_2 1_555 1_555
H7_2 C7_2 1_555 1_555
H8_2 C8_2 1_555 1_555
C11_2 C9_2 1_555 1_555
C12_2 C10_2 1_555 1_555
N3_2 C11_2 1_555 1_555
N4_2 C11_2 1_555 1_555
N5_2 C12_2 1_555 1_555
N6_2 C12_2 1_555 1_555
C13_2 N3_2 1_555 1_555
C14_2 N4_2 1_555 1_555
C15_2 N5_2 1_555 1_555
C16_2 N6_2 1_555 1_555
C17_2 C13_2 1_555 1_555
N7_2 C13_2 1_555 1_555
C19_2 C15_2 1_555 1_555
N8_2 C15_2 1_555 1_555
C20_2 C16_2 1_555 1_555
C21_2 C17_2 1_555 1_555
C22_2 C17_2 1_555 1_555
C25_2 C19_2 1_555 1_555
C26_2 C19_2 1_555 1_555
C27_2 C20_2 1_555 1_555
C28_2 C20_2 1_555 1_555
H9_2 C21_2 1_555 1_555
C29_2 C21_2 1_555 1_555
C30_2 C22_2 1_555 1_555
H10_2 C22_2 1_555 1_555
C33_2 C25_2 1_555 1_555
H13_2 C25_2 1_555 1_555
H14_2 C26_2 1_555 1_555
C34_2 C26_2 1_555 1_555
C35_2 C27_2 1_555 1_555
H15_2 C27_2 1_555 1_555
H16_2 C28_2 1_555 1_555
C36_2 C28_2 1_555 1_555
H17_2 C29_2 1_555 1_555
N9_2 C29_2 1_555 1_555
H18_2 C30_2 1_555 1_555
H21_2 C33_2 1_555 1_555
N11_2 C33_2 1_555 1_555
H22_2 C34_2 1_555 1_555
H24_2 C36_2 1_555 1_555
Zn2_2 N9_2 1_555 1_555
Zn4_2 N11_2 1_555 1_555
C6_2 C9_2 1_555 1_555
C8_2 C10_2 1_555 1_555
C14_2 N7_2 1_555 1_555
C16_2 N8_2 1_555 1_555
C30_2 N9_2 1_555 1_555
C34_2 N11_2 1_555 1_555
H6_3 C6_3 1_555 1_555
C11_3 C9_3 1_555 1_555
N3_3 C11_3 1_555 1_555
N4_3 C11_3 1_555 1_555
C13_3 N3_3 1_555 1_555
C14_3 N4_3 1_555 1_555
C17_3 C13_3 1_555 1_555
N7_3 C13_3 1_555 1_555
C18_2 C14_3 1_555 1_555
C21_3 C17_3 1_555 1_555
C22_3 C17_3 1_555 1_555
C23_2 C18_2 1_555 1_555
C24_2 C18_2 1_555 1_555
H9_3 C21_3 1_555 1_555
C29_3 C21_3 1_555 1_555
C30_3 C22_3 1_555 1_555
H10_3 C22_3 1_555 1_555
C31_2 C23_2 1_555 1_555
C32_2 C24_2 1_555 1_555
H12_2 C24_2 1_555 1_555
H17_3 C29_3 1_555 1_555
N14 C29_3 1_555 1_555
H18_3 C30_3 1_555 1_555
N10_3 C31_2 1_555 1_555
H20_3 C32_2 1_555 1_555
Zn4_2 N10_3 1_555 1_555
I4_3 Zn4_2 1_555 1_555
C6_3 C9_3 1_555 1_555
C14_3 N7_3 1_555 1_555
C30_3 N14 1_555 1_555
C32_2 N10_3 1_555 1_555
H1_3 C1_3 1_555 1_555
C5_3 C1_3 1_555 1_555
C7_3 C3_3 1_555 1_555
H3_3 C3_3 1_555 1_555
H5_3 C5_3 1_555 1_555
C10_3 C7_3 1_555 1_555
H7_3 C7_3 1_555 1_555
C12_3 C10_3 1_555 1_555
N5_3 C12_3 1_555 1_555
N6_3 C12_3 1_555 1_555
C15_3 N5_3 1_555 1_555
C16_3 N6_3 1_555 1_555
C19_3 C15_3 1_555 1_555
N8_3 C15_3 1_555 1_555
C20_3 C16_3 1_555 1_555
C25_3 C19_3 1_555 1_555
C27_3 C20_3 1_555 1_555
C28_3 C20_3 1_555 1_555
C33_3 C25_3 1_555 1_555
H13_3 C25_3 1_555 1_555
C35_3 C27_3 1_555 1_555
H15_3 C27_3 1_555 1_555
H16_3 C28_3 1_555 1_555
C36_3 C28_3 1_555 1_555
H21_3 C33_3 1_555 1_555
N12_2 C35_3 1_555 1_555
H23_2 C35_3 1_555 1_555
H24_3 C36_3 1_555 1_555
I5_2 Zn2 1_555 1_555
I6_2 Zn2 1_555 1_555
Zn2 N12_2 1_555 1_555
C16_3 N8_3 1_555 1_555
C36_3 N12_2 1_555 1_555
I5_3 Zn2_2 1_555 1_555
I6_3 Zn2_2 1_555 1_555
Zn2_2 N12_3 1_555 1_555
I1_3 Zn1_3 1_555 1_555
Zn1_3 I2_3 1_555 1_555
N1_3 Zn1_3 1_555 1_555
N2_3 Zn1_3 1_555 1_555
C1_4 N1_3 1_555 1_555
C2_4 N1_3 1_555 1_555
C3_4 N2_3 1_555 1_555
C4_3 N2_3 1_555 1_555
H1_4 C1_4 1_555 1_555
C5_4 C1_4 1_555 1_555
H2_3 C2_4 1_555 1_555
C7_4 C3_4 1_555 1_555
H3_4 C3_4 1_555 1_555
C8_3 C4_3 1_555 1_555
H4_3 C4_3 1_555 1_555
H5_4 C5_4 1_555 1_555
C10_4 C7_4 1_555 1_555
H7_4 C7_4 1_555 1_555
H8_3 C8_3 1_555 1_555
C12_4 C10_4 1_555 1_555
N5_4 C12_4 1_555 1_555
N6_4 C12_4 1_555 1_555
C15_4 N5_4 1_555 1_555
C16_4 N6_4 1_555 1_555
C19_4 C15_4 1_555 1_555
N8_4 C15_4 1_555 1_555
C20_4 C16_4 1_555 1_555
C25_4 C19_4 1_555 1_555
C26_3 C19_4 1_555 1_555
C27_4 C20_4 1_555 1_555
C28_4 C20_4 1_555 1_555
C33_4 C25_4 1_555 1_555
H13_4 C25_4 1_555 1_555
H14_3 C26_3 1_555 1_555
C34_3 C26_3 1_555 1_555
C35_4 C27_4 1_555 1_555
H15_4 C27_4 1_555 1_555
H16_4 C28_4 1_555 1_555
C36_4 C28_4 1_555 1_555
H21_4 C33_4 1_555 1_555
N13 C33_4 1_555 1_555
H22_3 C34_3 1_555 1_555
H24_4 C36_4 1_555 1_555
C8_3 C10_4 1_555 1_555
C16_4 N8_4 1_555 1_555
C34_3 N13 1_555 1_555
I1_4 Zn1_4 1_555 1_555
Zn1_4 I2_4 1_555 1_555
N1_4 Zn1_4 1_555 1_555
N2_4 Zn1_4 1_555 1_555
C4_4 N2_4 1_555 1_555
C8_4 C4_4 1_555 1_555
H4_4 C4_4 1_555 1_555
H8_4 C8_4 1_555 1_555
H14_4 C26_4 1_555 1_555
C34_4 C26_4 1_555 1_555
H22_4 C34_4 1_555 1_555
Zn4_3 N11_3 1_555 1_555
C34_4 N11_3 1_555 1_555
Zn4_3 N10_4 1_555 1_555
I3_3 Zn4_3 1_555 1_555
I4_4 Zn4_3 1_555 1_555
H1_5 C1_5 1_555 1_555
C5_5 C1_5 1_555 1_555
C7_5 C3_5 1_555 1_555
H3_5 C3_5 1_555 1_555
H5_5 C5_5 1_555 1_555
C10_5 C7_5 1_555 1_555
H7_5 C7_5 1_555 1_555
C12_5 C10_5 1_555 1_555
N5_5 C12_5 1_555 1_555
N6_5 C12_5 1_555 1_555
C15_5 N5_5 1_555 1_555
C16_5 N6_5 1_555 1_555
C19_5 C15_5 1_555 1_555
N8_5 C15_5 1_555 1_555
C20_5 C16_5 1_555 1_555
C25_5 C19_5 1_555 1_555
C27_5 C20_5 1_555 1_555
C28_5 C20_5 1_555 1_555
C33_5 C25_5 1_555 1_555
H13_5 C25_5 1_555 1_555
C35_5 C27_5 1_555 1_555
H15_5 C27_5 1_555 1_555
H16_5 C28_5 1_555 1_555
C36_5 C28_5 1_555 1_555
H21_5 C33_5 1_555 1_555
N12_4 C35_5 1_555 1_555
H23_4 C35_5 1_555 1_555
H24_5 C36_5 1_555 1_555
I5_4 Zn5_2 1_555 1_555
I6_4 Zn5_2 1_555 1_555
Zn5_2 N12_4 1_555 1_555
N14_2 Zn5_2 1_555 1_555
C16_5 N8_5 1_555 1_555
C36_5 N12_4 1_555 1_555
H6_4 C6_4 1_555 1_555
C11_4 C9_4 1_555 1_555
N3_4 C11_4 1_555 1_555
N4_4 C11_4 1_555 1_555
C13_4 N3_4 1_555 1_555
C14_4 N4_4 1_555 1_555
C17_4 C13_4 1_555 1_555
N7_4 C13_4 1_555 1_555
C18_3 C14_4 1_555 1_555
C21_4 C17_4 1_555 1_555
C22_4 C17_4 1_555 1_555
C23_3 C18_3 1_555 1_555
C24_3 C18_3 1_555 1_555
H9_4 C21_4 1_555 1_555
C29_4 C21_4 1_555 1_555
C30_4 C22_4 1_555 1_555
H10_4 C22_4 1_555 1_555
C31_3 C23_3 1_555 1_555
C32_3 C24_3 1_555 1_555
H12_3 C24_3 1_555 1_555
H17_4 C29_4 1_555 1_555
N9_3 C29_4 1_555 1_555
H18_4 C30_4 1_555 1_555
N10_5 C31_3 1_555 1_555
H20_5 C32_3 1_555 1_555
Zn2_3 N9_3 1_555 1_555
Zn3_2 N10_5 1_555 1_555
I4_5 Zn3_2 1_555 1_555
N13_2 Zn3_2 1_555 1_555
C6_4 C9_4 1_555 1_555
C14_4 N7_4 1_555 1_555
C30_4 N9_3 1_555 1_555
C32_3 N10_5 1_555 1_555
I1_5 Zn1_5 1_555 1_555
Zn1_5 I2_5 1_555 1_555
N1_5 Zn1_5 1_555 1_555
N2_5 Zn1_5 1_555 1_555
C1_6 N1_5 1_555 1_555
C2_6 N1_5 1_555 1_555
C3_6 N2_5 1_555 1_555
C4_5 N2_5 1_555 1_555
H1_6 C1_6 1_555 1_555
C5_6 C1_6 1_555 1_555
H2_5 C2_6 1_555 1_555
C7_6 C3_6 1_555 1_555
H3_6 C3_6 1_555 1_555
C8_5 C4_5 1_555 1_555
H4_5 C4_5 1_555 1_555
H5_6 C5_6 1_555 1_555
C10_6 C7_6 1_555 1_555
H7_6 C7_6 1_555 1_555
H8_5 C8_5 1_555 1_555
C12_6 C10_6 1_555 1_555
N5_6 C12_6 1_555 1_555
N6_6 C12_6 1_555 1_555
C15_6 N5_6 1_555 1_555
C16_6 N6_6 1_555 1_555
C19_6 C15_6 1_555 1_555
N8_6 C15_6 1_555 1_555
C20_6 C16_6 1_555 1_555
C25_6 C19_6 1_555 1_555
C26_5 C19_6 1_555 1_555
C27_6 C20_6 1_555 1_555
C28_6 C20_6 1_555 1_555
C33_6 C25_6 1_555 1_555
H13_6 C25_6 1_555 1_555
H14_5 C26_5 1_555 1_555
C34_5 C26_5 1_555 1_555
C35_6 C27_6 1_555 1_555
H15_6 C27_6 1_555 1_555
H16_6 C28_6 1_555 1_555
C36_6 C28_6 1_555 1_555
H21_6 C33_6 1_555 1_555
N11_4 C33_6 1_555 1_555
H22_5 C34_5 1_555 1_555
H24_6 C36_6 1_555 1_555
Zn4_4 N11_4 1_555 1_555
C8_5 C10_6 1_555 1_555
C16_6 N8_6 1_555 1_555
C34_5 N11_4 1_555 1_555
I5_5 Zn5_3 1_555 1_555
I6_5 Zn5_3 1_555 1_555
Zn5_3 N12_5 1_555 1_555
N14_3 Zn5_3 1_555 1_555
H1_7 C1_7 1_555 1_555
C5_7 C1_7 1_555 1_555
C6_5 C2_7 1_555 1_555
C7_7 C3_7 1_555 1_555
H3_7 C3_7 1_555 1_555
H5_7 C5_7 1_555 1_555
C9_5 C5_7 1_555 1_555
H6_5 C6_5 1_555 1_555
C10_7 C7_7 1_555 1_555
H7_7 C7_7 1_555 1_555
C11_5 C9_5 1_555 1_555
C12_7 C10_7 1_555 1_555
N3_5 C11_5 1_555 1_555
N4_5 C11_5 1_555 1_555
N5_7 C12_7 1_555 1_555
N6_7 C12_7 1_555 1_555
C13_5 N3_5 1_555 1_555
C14_5 N4_5 1_555 1_555
C15_7 N5_7 1_555 1_555
C16_7 N6_7 1_555 1_555
C17_5 C13_5 1_555 1_555
N7_5 C13_5 1_555 1_555
C18_4 C14_5 1_555 1_555
C19_7 C15_7 1_555 1_555
N8_7 C15_7 1_555 1_555
C20_7 C16_7 1_555 1_555
C21_5 C17_5 1_555 1_555
C22_5 C17_5 1_555 1_555
C23_4 C18_4 1_555 1_555
C24_4 C18_4 1_555 1_555
C25_7 C19_7 1_555 1_555
C27_7 C20_7 1_555 1_555
C28_7 C20_7 1_555 1_555
H9_5 C21_5 1_555 1_555
C29_5 C21_5 1_555 1_555
C30_5 C22_5 1_555 1_555
H10_5 C22_5 1_555 1_555
H11_4 C23_4 1_555 1_555
C31_4 C23_4 1_555 1_555
C32_4 C24_4 1_555 1_555
H12_4 C24_4 1_555 1_555
C33_7 C25_7 1_555 1_555
H13_7 C25_7 1_555 1_555
C35_7 C27_7 1_555 1_555
H15_7 C27_7 1_555 1_555
H16_7 C28_7 1_555 1_555
C36_7 C28_7 1_555 1_555
H17_5 C29_5 1_555 1_555
N14_2 C29_5 1_555 1_555
H18_5 C30_5 1_555 1_555
H19_4 C31_4 1_555 1_555
N10_6 C31_4 1_555 1_555
H20_6 C32_4 1_555 1_555
H21_7 C33_7 1_555 1_555
N12_6 C35_7 1_555 1_555
H23_6 C35_7 1_555 1_555
H24_7 C36_7 1_555 1_555
Zn4_4 N10_6 1_555 1_555
I3_5 Zn4_4 1_555 1_555
I4_6 Zn4_4 1_555 1_555
I5_6 Zn2_3 1_555 1_555
I6_6 Zn2_3 1_555 1_555
Zn2_3 N12_6 1_555 1_555
C6_5 C9_5 1_555 1_555
C14_5 N7_5 1_555 1_555
C16_7 N8_7 1_555 1_555
C30_5 N14_2 1_555 1_555
C32_4 N10_6 1_555 1_555
C36_7 N12_6 1_555 1_555
I1_6 Zn1_6 1_555 1_555
Zn1_6 I2_6 1_555 1_555
N1_6 Zn1_6 1_555 1_555
N2_6 Zn1_6 1_555 1_555
C1_8 N1_6 1_555 1_555
C2_8 N1_6 1_555 1_555
C3_8 N2_6 1_555 1_555
C4_6 N2_6 1_555 1_555
H1_8 C1_8 1_555 1_555
C5_8 C1_8 1_555 1_555
C6_6 C2_8 1_555 1_555
H2_6 C2_8 1_555 1_555
C7_8 C3_8 1_555 1_555
H3_8 C3_8 1_555 1_555
C8_6 C4_6 1_555 1_555
H4_6 C4_6 1_555 1_555
H5_8 C5_8 1_555 1_555
C9_6 C5_8 1_555 1_555
H6_6 C6_6 1_555 1_555
C10_8 C7_8 1_555 1_555
H7_8 C7_8 1_555 1_555
H8_6 C8_6 1_555 1_555
C11_6 C9_6 1_555 1_555
C12_8 C10_8 1_555 1_555
N3_6 C11_6 1_555 1_555
N4_6 C11_6 1_555 1_555
N5_8 C12_8 1_555 1_555
N6_8 C12_8 1_555 1_555
C13_6 N3_6 1_555 1_555
C14_6 N4_6 1_555 1_555
C15_8 N5_8 1_555 1_555
C16_8 N6_8 1_555 1_555
C17_6 C13_6 1_555 1_555
N7_6 C13_6 1_555 1_555
C19_8 C15_8 1_555 1_555
N8_8 C15_8 1_555 1_555
C20_8 C16_8 1_555 1_555
C21_6 C17_6 1_555 1_555
C22_6 C17_6 1_555 1_555
C25_8 C19_8 1_555 1_555
C26_6 C19_8 1_555 1_555
C27_8 C20_8 1_555 1_555
C28_8 C20_8 1_555 1_555
H9_6 C21_6 1_555 1_555
C29_6 C21_6 1_555 1_555
C30_6 C22_6 1_555 1_555
H10_6 C22_6 1_555 1_555
C33_8 C25_8 1_555 1_555
H13_8 C25_8 1_555 1_555
H14_6 C26_6 1_555 1_555
C34_6 C26_6 1_555 1_555
C35_8 C27_8 1_555 1_555
H15_8 C27_8 1_555 1_555
H16_8 C28_8 1_555 1_555
C36_8 C28_8 1_555 1_555
H17_6 C29_6 1_555 1_555
N14_3 C29_6 1_555 1_555
H18_6 C30_6 1_555 1_555
H21_8 C33_8 1_555 1_555
N13_2 C33_8 1_555 1_555
H22_6 C34_6 1_555 1_555
H24_8 C36_8 1_555 1_555
C6_6 C9_6 1_555 1_555
C8_6 C10_8 1_555 1_555
C14_6 N7_6 1_555 1_555
C16_8 N8_8 1_555 1_555
C30_6 N14_3 1_555 1_555
C34_6 N13_2 1_555 1_555
C23_5 C18_5 1_555 1_555
C24_5 C18_5 1_555 1_555
H11_5 C23_5 1_555 1_555
C31_5 C23_5 1_555 1_555
C32_5 C24_5 1_555 1_555
H12_5 C24_5 1_555 1_555
H19_5 C31_5 1_555 1_555
Zn3_3 N10_7 1_555 1_555
I3_6 Zn3_3 1_555 1_555
I4_7 Zn3_3 1_555 1_555
N13_3 Zn3_3 1_555 1_555
I1_7 Zn1_7 1_555 1_555
Zn1_7 I2_7 1_555 1_555
N1_7 Zn1_7 1_555 1_555
N2_7 Zn1_7 1_555 1_555
C4_7 N2_7 1_555 1_555
C8_7 C4_7 1_555 1_555
H4_7 C4_7 1_555 1_555
H8_7 C8_7 1_555 1_555
H14_7 C26_7 1_555 1_555
C34_7 C26_7 1_555 1_555
H22_7 C34_7 1_555 1_555
C34_7 N13_3 1_555 1_555
I5_7 Zn5_4 1_555 1_555
I6_7 Zn5_4 1_555 1_555
Zn5_4 N12_7 1_555 1_555
N14_4 Zn5_4 1_555 1_555
H6_7 C6_7 1_555 1_555
C11_7 C9_7 1_555 1_555
N3_7 C11_7 1_555 1_555
N4_7 C11_7 1_555 1_555
C13_7 N3_7 1_555 1_555
C14_7 N4_7 1_555 1_555
C17_7 C13_7 1_555 1_555
N7_7 C13_7 1_555 1_555
C21_7 C17_7 1_555 1_555
C22_7 C17_7 1_555 1_555
H9_7 C21_7 1_555 1_555
C29_7 C21_7 1_555 1_555
C30_7 C22_7 1_555 1_555
H10_7 C22_7 1_555 1_555
H17_7 C29_7 1_555 1_555
N14_4 C29_7 1_555 1_555
H18_7 C30_7 1_555 1_555
C6_7 C9_7 1_555 1_555
C14_7 N7_7 1_555 1_555
C30_7 N14_4 1_555 1_555
H6_8 C6_8 1_555 1_555
C11_8 C9_8 1_555 1_555
N3_8 C11_8 1_555 1_555
N4_8 C11_8 1_555 1_555
C13_8 N3_8 1_555 1_555
C14_8 N4_8 1_555 1_555
C17_8 C13_8 1_555 1_555
N7_8 C13_8 1_555 1_555
C21_8 C17_8 1_555 1_555
C22_8 C17_8 1_555 1_555
H9_8 C21_8 1_555 1_555
C29_8 C21_8 1_555 1_555
C30_8 C22_8 1_555 1_555
H10_8 C22_8 1_555 1_555
H17_8 C29_8 1_555 1_555
N9_4 C29_8 1_555 1_555
H18_8 C30_8 1_555 1_555
Zn2_4 N9_4 1_555 1_555
C6_8 C9_8 1_555 1_555
C14_8 N7_8 1_555 1_555
C30_8 N9_4 1_555 1_555
I5_8 Zn2_4 1_555 1_555
I6_8 Zn2_4 1_555 1_555
Zn2_4 N12_8 1_555 1_555
C23_6 C18_6 1_555 1_555
C24_6 C18_6 1_555 1_555
C31_6 C23_6 1_555 1_555
C32_6 C24_6 1_555 1_555
H12_6 C24_6 1_555 1_555
Zn3_4 N10_8 1_555 1_555
I4_8 Zn3_4 1_555 1_555
N13_4 Zn3_4 1_555 1_555
I1_8 Zn1_8 1_555 1_555
Zn1_8 I2_8 1_555 1_555
N1_8 Zn1_8 1_555 1_555
N2_8 Zn1_8 1_555 1_555
C4_8 N2_8 1_555 1_555
C8_8 C4_8 1_555 1_555
H4_8 C4_8 1_555 1_555
H8_8 C8_8 1_555 1_555
H14_8 C26_8 1_555 1_555
C34_8 C26_8 1_555 1_555
H22_8 C34_8 1_555 1_555
C34_8 N13_4 1_555 1_555
C23_7 C18_7 1_555 1_555
C24_7 C18_7 1_555 1_555
H11_7 C23_7 1_555 1_555
C31_7 C23_7 1_555 1_555
C32_7 C24_7 1_555 1_555
H12_7 C24_7 1_555 1_555
H19_7 C31_7 1_555 1_555
C23_8 C18_8 1_555 1_555
C24_8 C18_8 1_555 1_555
C31_8 C23_8 1_555 1_555
C32_8 C24_8 1_555 1_555
H12_8 C24_8 1_555 1_555

#END
