
###############################################################################
#
# This file contains modified crystal structure data generated from the
# MOF subset of the Cambridge Structural Database (CSD) v543 
# hosted by the Cambridge Crystallographic Data Centre (CCDC).
#
# This work is licensed under the Creative Commons
# Attribution-NonCommercial-ShareAlike 4.0 International License.
# To view a copy of this license, visit
# http://creativecommons.org/licenses/by-nc-sa/4.0/
# or send a letter to
# Creative Commons, PO Box 1866, Mountain View, CA 94042, USA.
#
# CIF created using the CSD Python API on 29 September 2022
# The structure has been converted into the P1 space group
# The structure has a 3D framework
# The original CSD entry FOJVUX is in the triclinic crystal system
# The framework has been calculated to contain at least 10.0% void space
# The void calculation uses a probe of radius 1.32A, grid spacing 0.4
#
###############################################################################

data_FOJVUX
_chemical_formula_moiety         '(C36 H24 N12 O8 Zn1)n'
_symmetry_cell_setting           triclinic
_symmetry_space_group_name_H-M   'P 1'
_symmetry_Int_Tables_number      1
_space_group_name_Hall           'P 1'
loop_
_symmetry_equiv_pos_site_id
_symmetry_equiv_pos_as_xyz
1 x,y,z
_cell_length_a                   7.6033(16)
_cell_length_b                   9.352(2)
_cell_length_c                   15.193(3)
_cell_angle_alpha                89.330(11)
_cell_angle_beta                 80.570(9)
_cell_angle_gamma                85.897(11)
_cell_volume                     1062.98
loop_
_atom_site_label
_atom_site_type_symbol
_atom_site_fract_x
_atom_site_fract_y
_atom_site_fract_z
_atom_site_U_iso_or_equiv
_atom_site_thermal_displace_type
N8 N 0.1526(7) 0.3694(6) 0.7713(4) 0.0647 Uani
N9 N 0.0438(6) 0.2363(4) 0.8852(3) 0.0431 Uani
C27 C 0.0200(6) 0.1169(5) 0.9452(3) 0.0388 Uani
C31 C 0.1760(8) 0.2508(7) 0.8145(4) 0.0644 Uani
H20 H 0.2721 0.1836 0.7989 0.0770 Uiso
C7 C 0.4892(8) 0.9684(6) 0.4117(4) 0.0526 Uani
H5 H 0.4825 0.9479 0.3526 0.0630 Uiso
N10 N 0.1227(5) 0.7141(4) 0.7171(3) 0.0384 Uani
N11 N 0.2635(5) 0.7159(5) 0.7644(3) 0.0423 Uani
N12 N 0.3245(5) 0.8373(4) 0.6396(3) 0.0411 Uani
C32 C 0.4169(6) 0.9203(5) 0.5670(3) 0.0412 Uani
C34 C 0.4041(8) 0.8872(6) 0.4816(4) 0.0510 Uani
H22 H 0.3393 0.8111 0.4698 0.0610 Uiso
C35 C 0.1639(7) 0.7863(6) 0.6428(4) 0.0449 Uani
H23 H 0.0922 0.7998 0.5989 0.0540 Uiso
C36 C 0.3816(7) 0.7925(6) 0.7161(3) 0.0434 Uani
H24 H 0.4898 0.8134 0.7322 0.0520 Uiso
Zn1 Zn 0.10546(7) 0.37983(6) 0.23670(3) 0.0356 Uani
O1 O 0.2555(6) 0.1377(7) 0.2136(3) 0.0889 Uani
O2 O 0.2568(7) 0.3145(7) 0.1186(4) 0.0865 Uani
O3 O 0.2606(5) 0.4542(4) 0.3126(2) 0.0512 Uani
O4 O 0.1431(7) 0.3200(6) 0.4222(3) 0.0884 Uani
N1 N 0.0030(6) 0.5617(5) 0.1827(3) 0.0468 Uani
C4 C 0.0631(7) 0.6435(5) 0.1168(3) 0.0440 Uani
H3 H 0.1668 0.6217 0.0762 0.0530 Uiso
C11 C 0.4035(7) 0.0909(7) 0.0656(4) 0.0543 Uani
C14 C 0.2976(8) 0.1890(10) 0.1378(5) 0.0663 Uani
C15 C 0.3787(7) 0.4576(5) 0.4479(3) 0.0384 Uani
C16 C 0.3425(7) 0.4442(6) 0.5390(3) 0.0448 Uani
H11 H 0.2365 0.4070 0.5658 0.0540 Uiso
C17 C 0.4631(7) 0.4857(6) 0.5914(3) 0.0438 Uani
H12 H 0.4380 0.4757 0.6530 0.0530 Uiso
C18 C 0.2486(7) 0.4062(6) 0.3922(3) 0.0453 Uani
O7 O 0.7394(5) 0.5458(4) 0.6874(2) 0.0512 Uani
O8 O 0.8569(7) 0.6800(6) 0.5778(3) 0.0884 Uani
C23 C 0.6213(7) 0.5424(5) 0.5521(3) 0.0384 Uani
C24 C 0.6575(7) 0.5558(6) 0.4610(3) 0.0448 Uani
H15 H 0.7635 0.5930 0.4342 0.0540 Uiso
C25 C 0.5369(7) 0.5143(6) 0.4086(3) 0.0438 Uani
H16 H 0.5620 0.5243 0.3470 0.0530 Uiso
C26 C 0.7514(7) 0.5938(6) 0.6078(3) 0.0453 Uani
Zn5 Zn 0.89454(7) 0.62017(6) 0.76330(3) 0.0356 Uani
O5 O 0.7445(6) 0.8623(7) 0.7864(3) 0.0889 Uani
O6 O 0.7432(7) 0.6855(7) 0.8814(4) 0.0865 Uani
C19 C 0.5965(7) 0.9091(7) 0.9344(4) 0.0543 Uani
C22 C 0.7024(8) 0.8110(10) 0.8622(5) 0.0663 Uani
N7 N 0.9970(6) 0.4383(5) 0.8173(3) 0.0468 Uani
C30 C 0.9369(7) 0.3565(5) 0.8832(3) 0.0440 Uani
H19 H 0.8332 0.3783 0.9238 0.0530 Uiso
C2 C 0.0589(7) 0.8649(6) 0.9682(3) 0.0444 Uani
H1 H 0.0990 0.7737 0.9466 0.0530 Uiso
C12 C 0.4609(8) 0.1417(8) 0.9815(4) 0.0624 Uani
H9 H 0.4352 0.2374 0.9681 0.0750 Uiso
C13 C 0.5569(8) 0.0515(8) 0.9163(4) 0.0619 Uani
H10 H 0.5950 0.0875 0.8595 0.0740 Uiso
C29 C 0.0792(7) 0.9826(6) 0.9125(3) 0.0449 Uani
H18 H 0.1327 0.9709 0.8532 0.0540 Uiso
C20 C 0.5391(8) 0.8583(8) 0.0185(4) 0.0624 Uani
H13 H 0.5648 0.7626 0.0319 0.0750 Uiso
C21 C 0.4431(8) 0.9485(8) 0.0837(4) 0.0619 Uani
H14 H 0.4050 0.9125 0.1405 0.0740 Uiso
C3 C 0.9208(7) 0.0174(6) 0.0875(3) 0.0449 Uani
H2 H 0.8673 0.0291 0.1468 0.0540 Uiso
C28 C 0.9411(7) 0.1351(6) 0.0318(3) 0.0444 Uani
H17 H 0.9010 0.2263 0.0534 0.0530 Uiso
N2 N 0.8474(7) 0.6306(6) 0.2287(4) 0.0647 Uani
N3 N 0.9562(6) 0.7637(4) 0.1148(3) 0.0431 Uani
N4 N 0.8773(5) 0.2859(4) 0.2829(3) 0.0384 Uani
N5 N 0.7365(5) 0.2841(5) 0.2356(3) 0.0423 Uani
N6 N 0.6755(5) 0.1627(4) 0.3604(3) 0.0411 Uani
C1 C 0.9800(6) 0.8831(5) 0.0548(3) 0.0388 Uani
C5 C 0.8240(8) 0.7492(7) 0.1855(4) 0.0644 Uani
H4 H 0.7279 0.8164 0.2011 0.0770 Uiso
C6 C 0.5831(6) 0.0797(5) 0.4330(3) 0.0412 Uani
C8 C 0.5959(8) 0.1128(6) 0.5184(4) 0.0510 Uani
H6 H 0.6607 0.1889 0.5302 0.0610 Uiso
C9 C 0.8361(7) 0.2137(6) 0.3572(4) 0.0449 Uani
H7 H 0.9078 0.2002 0.4011 0.0540 Uiso
C10 C 0.6184(7) 0.2075(6) 0.2839(3) 0.0434 Uani
H8 H 0.5102 0.1866 0.2678 0.0520 Uiso
C33 C 0.5108(8) 0.0316(6) 0.5883(4) 0.0526 Uani
H21 H 0.5175 0.0521 0.6474 0.0630 Uiso
loop_
_atom_site_aniso_label
_atom_site_aniso_U_11
_atom_site_aniso_U_22
_atom_site_aniso_U_33
_atom_site_aniso_U_23
_atom_site_aniso_U_13
_atom_site_aniso_U_12
N8 0.054 0.063 0.067 0.021 0.014 0.007
N9 0.044 0.04 0.044 0.0091 -0.0048 -0.001
C27 0.037 0.044 0.037 0.01 -0.011 -0.003
C31 0.055 0.058 0.069 0.017 0.014 0.014
C7 0.052 0.061 0.048 -0.001 -0.01 -0.022
N10 0.033 0.041 0.042 0.0048 -0.0075 -0.0058
N11 0.037 0.047 0.044 0 -0.0092 -0.005
N12 0.034 0.041 0.049 0.0102 -0.0073 -0.0087
C32 0.03 0.044 0.051 0.003 -0.009 -0.007
C34 0.049 0.05 0.058 0.003 -0.014 -0.02
C35 0.033 0.048 0.055 0.012 -0.01 -0.007
C36 0.034 0.051 0.047 -0.003 -0.01 -0.007
Zn1 0.0347 0.0373 0.0351 0.0031 -0.0055 -0.0049
O1 0.056 0.14 0.067 -0.044 0.009 -0.019
O2 0.072 0.093 0.093 -0.037 -0.016 0.017
O3 0.056 0.057 0.045 0.0001 -0.0172 -0.0125
O4 0.094 0.119 0.069 0.03 -0.037 -0.073
N1 0.043 0.048 0.048 0.011 -0.0053 -0.001
C4 0.038 0.042 0.049 0.01 -0.001 0.002
C11 0.035 0.079 0.049 -0.023 -0.008 0.002
C14 0.031 0.105 0.065 -0.028 -0.011 -0.007
C15 0.04 0.037 0.039 -0.007 -0.008 -0.003
C16 0.035 0.052 0.047 -0.005 -0.002 -0.01
C17 0.045 0.051 0.036 -0.004 -0.006 -0.009
C18 0.049 0.042 0.047 -0.003 -0.014 -0.003
O7 0.056 0.057 0.045 0.0001 -0.0172 -0.0125
O8 0.094 0.119 0.069 0.03 -0.037 -0.073
C23 0.04 0.037 0.039 -0.007 -0.008 -0.003
C24 0.035 0.052 0.047 -0.005 -0.002 -0.01
C25 0.045 0.051 0.036 -0.004 -0.006 -0.009
C26 0.049 0.042 0.047 -0.003 -0.014 -0.003
Zn5 0.0347 0.0373 0.0351 0.0031 -0.0055 -0.0049
O5 0.056 0.14 0.067 -0.044 0.009 -0.019
O6 0.072 0.093 0.093 -0.037 -0.016 0.017
C19 0.035 0.079 0.049 -0.023 -0.008 0.002
C22 0.031 0.105 0.065 -0.028 -0.011 -0.007
N7 0.043 0.048 0.048 0.011 -0.0053 -0.001
C30 0.038 0.042 0.049 0.01 -0.001 0.002
C2 0.047 0.037 0.049 -0.002 -0.011 0.006
C12 0.054 0.072 0.063 -0.015 -0.017 0.002
C13 0.046 0.096 0.043 -0.013 -0.004 -0.006
C29 0.047 0.048 0.037 0.004 0 -0.001
C20 0.054 0.072 0.063 -0.015 -0.017 0.002
C21 0.046 0.096 0.043 -0.013 -0.004 -0.006
C3 0.047 0.048 0.037 0.004 0 -0.001
C28 0.047 0.037 0.049 -0.002 -0.011 0.006
N2 0.054 0.063 0.067 0.021 0.014 0.007
N3 0.044 0.04 0.044 0.0091 -0.0048 -0.001
N4 0.033 0.041 0.042 0.0048 -0.0075 -0.0058
N5 0.037 0.047 0.044 0 -0.0092 -0.005
N6 0.034 0.041 0.049 0.0102 -0.0073 -0.0087
C1 0.037 0.044 0.037 0.01 -0.011 -0.003
C5 0.055 0.058 0.069 0.017 0.014 0.014
C6 0.03 0.044 0.051 0.003 -0.009 -0.007
C8 0.049 0.05 0.058 0.003 -0.014 -0.02
C9 0.033 0.048 0.055 0.012 -0.01 -0.007
C10 0.034 0.051 0.047 -0.003 -0.01 -0.007
C33 0.052 0.061 0.048 -0.001 -0.01 -0.022
loop_
_geom_bond_atom_site_label_1
_geom_bond_atom_site_label_2
_geom_bond_site_symmetry_1
_geom_bond_site_symmetry_2
N8 C31 1_555 1_555
N9 C27 1_555 1_555
C31 N9 1_555 1_555
H20 C31 1_555 1_555
C7 H5 1_555 1_555
N10 N11 1_555 1_555
N11 C36 1_555 1_555
N12 C32 1_555 1_555
C34 C7 1_555 1_555
H22 C34 1_555 1_555
C35 N10 1_555 1_555
H23 C35 1_555 1_555
C36 N12 1_555 1_555
H24 C36 1_555 1_555
N12 C35 1_555 1_555
C32 C34 1_555 1_555
Zn1 O1 1_555 1_555
O1 C14 1_555 1_555
O2 Zn1 1_555 1_555
O3 Zn1 1_555 1_555
O4 C18 1_555 1_555
N1 Zn1 1_555 1_555
C4 N1 1_555 1_555
H3 C4 1_555 1_555
C14 O2 1_555 1_555
C15 C16 1_555 1_555
C16 H11 1_555 1_555
C17 C16 1_555 1_555
H12 C17 1_555 1_555
C18 O3 1_555 1_555
O7 C26 1_555 1_555
O8 C26 1_555 1_555
C23 C17 1_555 1_555
C24 C23 1_555 1_555
H15 C24 1_555 1_555
C25 C15 1_555 1_555
H16 C25 1_555 1_555
C26 C23 1_555 1_555
Zn5 O7 1_555 1_555
C11 C14 1_555 1_555
C15 C18 1_555 1_555
C24 C25 1_555 1_555
O5 C22 1_555 1_555
O6 C22 1_555 1_555
C22 C19 1_555 1_555
Zn5 O5 1_555 1_555
O6 Zn5 1_555 1_555
C30 N7 1_555 1_555
H19 C30 1_555 1_555
Zn5 N7 1_555 1_555
C2 H1 1_555 1_555
C12 H9 1_555 1_555
C13 C12 1_555 1_555
H10 C13 1_555 1_555
C29 C2 1_555 1_555
H18 C29 1_555 1_555
H13 C20 1_555 1_555
H14 C21 1_555 1_555
C20 C21 1_555 1_555
H2 C3 1_555 1_555
C28 C3 1_555 1_555
H17 C28 1_555 1_555
N3 C1 1_555 1_555
N5 N4 1_555 1_555
N6 C6 1_555 1_555
C5 N2 1_555 1_555
H4 C5 1_555 1_555
C8 C6 1_555 1_555
H6 C8 1_555 1_555
C9 N4 1_555 1_555
H7 C9 1_555 1_555
C10 N5 1_555 1_555
H8 C10 1_555 1_555
C33 C8 1_555 1_555
H21 C33 1_555 1_555
N3 C5 1_555 1_555
N6 C9 1_555 1_555
N6 C10 1_555 1_555

#END
