
###############################################################################
#
# This file contains modified crystal structure data generated from the
# MOF subset of the Cambridge Structural Database (CSD) v543 
# hosted by the Cambridge Crystallographic Data Centre (CCDC).
#
# This work is licensed under the Creative Commons
# Attribution-NonCommercial-ShareAlike 4.0 International License.
# To view a copy of this license, visit
# http://creativecommons.org/licenses/by-nc-sa/4.0/
# or send a letter to
# Creative Commons, PO Box 1866, Mountain View, CA 94042, USA.
#
# CIF created using the CSD Python API on 29 September 2022
# The structure has been converted into the P1 space group
# The structure has a 3D framework
# The original CSD entry FOKGET is in the monoclinic crystal system
# The framework has been calculated to contain at least 10.0% void space
# The void calculation uses a probe of radius 1.32A, grid spacing 0.4
#
###############################################################################

data_FOKGET
_chemical_formula_moiety         '(C36 H24 Co8 N30 O20 W4)n'
_symmetry_cell_setting           triclinic
_symmetry_space_group_name_H-M   'P 1'
_symmetry_Int_Tables_number      1
_space_group_name_Hall           'P 1'
loop_
_symmetry_equiv_pos_site_id
_symmetry_equiv_pos_as_xyz
1 x,y,z
_cell_length_a                   11.4884(14)
_cell_length_b                   13.6513(19)
_cell_length_c                   12.7991(17)
_cell_angle_alpha                90
_cell_angle_beta                 100.920(9)
_cell_angle_gamma                90
_cell_volume                     1970.96
loop_
_atom_site_label
_atom_site_type_symbol
_atom_site_fract_x
_atom_site_fract_y
_atom_site_fract_z
C3 C 0.2156(14) 0.0957(10) 0.5972(11)
C4 C 0.0262(15) 0.1651(11) 0.6391(11)
C6 C 0.3223(19) 0.0272(12) 0.7824(12)
C7 C 0.2255(14) 0.1978(11) 0.7925(11)
C8 C 0.0314(15) 0.1276(11) 0.8386(12)
N3 N 0.2542(12) 0.1122(9) 0.5268(9)
N6 N 0.4235(17) 0.0086(12) 0.8003(15)
N7 N 0.2663(11) 0.2727(9) 0.8223(9)
W1 W 0.13932(5) 0.06166(4) 0.73581(4)
Co6 Co 0.30175(18) 0.41562(13) 0.87769(14)
Co7 Co 0.30175(18) 0.08438(13) 0.37769(14)
Co12 Co 0.15735(18) 0.78466(13) 0.03361(14)
C2 C 0.1602(13) 0.9208(10) 0.6611(10)
C5 C 0.1501(14) 0.9654(11) 0.8690(12)
N2 N 0.1711(11) 0.8501(9) 0.6210(9)
N5 N 0.1565(12) 0.9125(8) 0.9423(9)
Co11 Co 0.15735(18) 0.71534(13) 0.53361(14)
O4 O 0.7090(10) 0.2590(9) 0.0453(10)
H5 H 0.7303 0.2465 0.1112
H6 H 0.6953 0.3199 0.0370
N22 N 0.9685(11) 0.2830(10) 0.0824(9)
N24 N 0.8435(12) 0.0875(8) 0.0577(9)
Co2 Co 0.84265(18) 0.21534(13) 0.96639(14)
N4 N 0.9685(11) 0.2170(10) 0.5824(9)
N8 N 0.9740(11) 0.1607(8) 0.8921(9)
O3 O 0.7195(14) 0.1556(9) 0.8405(11)
H3 H 0.6555 0.1884 0.8326
H4 H 0.7060 0.0963 0.8546
C10 C 0.5329(13) 0.0476(10) 0.4985(10)
O6 O 0.4817(9) 0.1157(7) 0.4424(8)
O7 O 0.6341(10) 0.0539(7) 0.5553(8)
C11 C 0.0326(16) 0.0053(11) 0.3025(10)
N9 N 0.1264(12) 0.0351(9) 0.3212(9)
O8 O 0.3443(9) 0.0396(8) 0.2296(8)
H7 H 0.3259 0.0847 0.1838
H8 H 0.4182 0.0278 0.2383
Co14 Co 0.84265(18) 0.28466(13) 0.46639(14)
N17 N 0.8289(11) 0.3501(9) 0.8790(9)
N26 N 0.2663(11) 0.2273(9) 0.3223(9)
C1 C 0.9674(16) 0.9947(11) 0.6975(10)
C9 C 0.4671(13) 0.9524(10) 0.5015(10)
Co1 Co 0.69825(18) 0.91562(13) 0.62231(14)
N1 N 0.8736(12) 0.9649(9) 0.6788(9)
O1 O 0.3659(10) 0.9461(7) 0.4447(8)
O2 O 0.6557(9) 0.9604(8) 0.7704(8)
H1 H 0.6741 0.9153 0.8162
H2 H 0.5818 0.9722 0.7617
O5 O 0.5183(9) 0.8843(7) 0.5576(8)
N12 N 0.0315(11) 0.7830(10) 0.4176(9)
N16 N 0.0260(11) 0.8393(8) 0.1079(9)
O9 O 0.2805(14) 0.8444(9) 0.1595(11)
H9 H 0.3445 0.8116 0.1674
H10 H 0.2940 0.9037 0.1454
N18 N 0.1711(11) 0.6499(9) 0.1210(9)
N20 N 0.7458(12) 0.8878(9) 0.4732(9)
N25 N 0.7337(11) 0.7727(9) 0.6777(9)
O10 O 0.2910(10) 0.7410(9) 0.9547(10)
H11 H 0.2697 0.7535 0.8888
H12 H 0.3047 0.6801 0.9630
N21 N 0.0315(11) 0.7170(10) 0.9176(9)
C12 C 0.8398(13) 0.0792(10) 0.3389(10)
C15 C 0.8499(14) 0.0346(11) 0.1310(12)
N10 N 0.8289(11) 0.1499(9) 0.3790(9)
C13 C 0.7844(14) 0.9043(10) 0.4028(11)
C14 C 0.9738(15) 0.8349(11) 0.3609(11)
C16 C 0.6777(19) 0.9728(12) 0.2176(12)
C17 C 0.7745(14) 0.8022(11) 0.2075(11)
C18 C 0.9686(15) 0.8724(11) 0.1614(12)
N14 N 0.5765(17) 0.9914(12) 0.1997(15)
N15 N 0.7337(11) 0.7273(9) 0.1777(9)
W2 W 0.86068(5) 0.93834(4) 0.26419(4)
Co8 Co 0.69825(18) 0.58438(13) 0.12231(14)
C12_2 C 0.1602(13) 0.5792(10) 0.1611(10)
C13_2 C 0.2156(14) 0.4043(10) 0.0972(11)
C14_2 C 0.0262(15) 0.3349(11) 0.1391(11)
C15_2 C 0.1501(14) 0.5346(11) 0.3690(12)
C16_2 C 0.3223(19) 0.4728(12) 0.2824(12)
C17_2 C 0.2255(14) 0.3022(11) 0.2925(11)
C18_2 C 0.0314(15) 0.3724(11) 0.3386(12)
N11 N 0.2542(12) 0.3878(9) 0.0268(9)
N13 N 0.1565(12) 0.5875(8) 0.4423(9)
N14_2 N 0.4235(17) 0.4914(12) 0.3003(15)
W2_2 W 0.13932(5) 0.43834(4) 0.23581(4)
O1_2 O 0.6341(10) 0.4461(7) 0.0553(8)
C10_2 C 0.4671(13) 0.5476(10) 0.0015(10)
O6_2 O 0.5183(9) 0.6157(7) 0.0576(8)
C11_2 C 0.9674(16) 0.5053(11) 0.1975(10)
N9_2 N 0.8736(12) 0.5351(9) 0.1788(9)
N16_2 N 0.9740(11) 0.3393(8) 0.3921(9)
O8_2 O 0.6557(9) 0.5396(8) 0.2704(8)
H7_2 H 0.6741 0.5847 0.3162
H8_2 H 0.5818 0.5278 0.2617
O9_2 O 0.7195(14) 0.3444(9) 0.3405(11)
H9_2 H 0.6555 0.3116 0.3326
H10_2 H 0.7060 0.4037 0.3546
O10_2 O 0.7090(10) 0.2410(9) 0.5453(10)
H11_2 H 0.7303 0.2535 0.6112
H12_2 H 0.6953 0.1801 0.5370
N23 N 0.8435(12) 0.4125(8) 0.5577(9)
C1_2 C 0.0326(16) 0.4947(11) 0.8025(10)
C9_2 C 0.5329(13) 0.4524(10) 0.9985(10)
N1_2 N 0.1264(12) 0.4649(9) 0.8212(9)
N8_2 N 0.0260(11) 0.6607(8) 0.6079(9)
O2_2 O 0.3443(9) 0.4604(8) 0.7296(8)
H1_2 H 0.3259 0.4153 0.6838
H2_2 H 0.4182 0.4722 0.7383
O3_2 O 0.2805(14) 0.6556(9) 0.6595(11)
H3_2 H 0.3445 0.6884 0.6674
H4_2 H 0.2940 0.5963 0.6454
O4_2 O 0.2910(10) 0.7590(9) 0.4547(10)
H5_2 H 0.2697 0.7465 0.3888
H6_2 H 0.3047 0.8199 0.4630
O5_2 O 0.4817(9) 0.3843(7) 0.9424(8)
O7_2 O 0.3659(10) 0.5539(7) 0.9447(8)
N19 N 0.7458(12) 0.6122(9) 0.9732(9)
C2_2 C 0.8398(13) 0.4208(10) 0.8389(10)
C3_2 C 0.7844(14) 0.5957(10) 0.9028(11)
C4_2 C 0.9738(15) 0.6651(11) 0.8609(11)
C5_2 C 0.8499(14) 0.4654(11) 0.6310(12)
C6_2 C 0.6777(19) 0.5272(12) 0.7176(12)
C7_2 C 0.7745(14) 0.6978(11) 0.7075(11)
C8_2 C 0.9686(15) 0.6276(11) 0.6614(12)
N6_2 N 0.5765(17) 0.5086(12) 0.6997(15)
W1_2 W 0.86068(5) 0.56166(4) 0.76419(4)
loop_
_geom_bond_atom_site_label_1
_geom_bond_atom_site_label_2
_geom_bond_site_symmetry_1
_geom_bond_site_symmetry_2
C3 N3 1_555 1_555
C6 N6 1_555 1_555
C7 N7 1_555 1_555
N3 Co7 1_555 1_555
N7 Co6 1_555 1_555
C3 W1 1_555 1_555
C4 W1 1_555 1_555
C6 W1 1_555 1_555
C7 W1 1_555 1_555
C8 W1 1_555 1_555
C2 N2 1_555 1_555
C5 N5 1_555 1_555
N2 Co11 1_555 1_555
H5 O4 1_555 1_555
H6 O4 1_555 1_555
Co2 N8 1_555 1_555
N4 Co14 1_555 1_555
O3 Co2 1_555 1_555
H3 O3 1_555 1_555
H4 O3 1_555 1_555
O6 C10 1_555 1_555
C11 N9 1_555 1_555
Co7 O6 1_555 1_555
N9 Co7 1_555 1_555
O8 Co7 1_555 1_555
H7 O8 1_555 1_555
H8 O8 1_555 1_555
N17 Co2 1_555 1_555
N26 Co7 1_555 1_555
C10 O7 1_555 1_555
C1 N1 1_555 1_555
C9 O1 1_555 1_555
Co1 N1 1_555 1_555
O2 Co1 1_555 1_555
H1 O2 1_555 1_555
H2 O2 1_555 1_555
O5 C9 1_555 1_555
Co12 N16 1_555 1_555
N12 Co11 1_555 1_555
O9 Co12 1_555 1_555
H9 O9 1_555 1_555
H10 O9 1_555 1_555
N18 Co12 1_555 1_555
N20 Co1 1_555 1_555
N25 Co1 1_555 1_555
Co1 O5 1_555 1_555
H11 O10 1_555 1_555
H12 O10 1_555 1_555
C12 N10 1_555 1_555
C15 N24 1_555 1_555
N10 Co14 1_555 1_555
C13 N20 1_555 1_555
C16 N14 1_555 1_555
C17 N15 1_555 1_555
N15 Co8 1_555 1_555
C13 W2 1_555 1_555
C14 W2 1_555 1_555
C16 W2 1_555 1_555
C17 W2 1_555 1_555
C18 W2 1_555 1_555
C12_2 N18 1_555 1_555
C13_2 N11 1_555 1_555
C15_2 N13 1_555 1_555
C16_2 N14_2 1_555 1_555
C17_2 N26 1_555 1_555
N13 Co11 1_555 1_555
C12_2 W2_2 1_555 1_555
C13_2 W2_2 1_555 1_555
C14_2 W2_2 1_555 1_555
C15_2 W2_2 1_555 1_555
C16_2 W2_2 1_555 1_555
C17_2 W2_2 1_555 1_555
C18_2 W2_2 1_555 1_555
O1_2 Co8 1_555 1_555
O6_2 C10_2 1_555 1_555
C11_2 N9_2 1_555 1_555
Co8 O6_2 1_555 1_555
Co14 N16_2 1_555 1_555
N9_2 Co8 1_555 1_555
O8_2 Co8 1_555 1_555
H7_2 O8_2 1_555 1_555
H8_2 O8_2 1_555 1_555
O9_2 Co14 1_555 1_555
H9_2 O9_2 1_555 1_555
H10_2 O9_2 1_555 1_555
O10_2 Co14 1_555 1_555
H11_2 O10_2 1_555 1_555
H12_2 O10_2 1_555 1_555
N23 Co14 1_555 1_555
C1_2 N1_2 1_555 1_555
Co6 N1_2 1_555 1_555
Co11 N8_2 1_555 1_555
O2_2 Co6 1_555 1_555
H1_2 O2_2 1_555 1_555
H2_2 O2_2 1_555 1_555
O3_2 Co11 1_555 1_555
H3_2 O3_2 1_555 1_555
H4_2 O3_2 1_555 1_555
O4_2 Co11 1_555 1_555
H5_2 O4_2 1_555 1_555
H6_2 O4_2 1_555 1_555
O5_2 C9_2 1_555 1_555
O7_2 Co6 1_555 1_555
Co6 O5_2 1_555 1_555
C2_2 N17 1_555 1_555
C3_2 N19 1_555 1_555
C5_2 N23 1_555 1_555
C6_2 N6_2 1_555 1_555
C7_2 N25 1_555 1_555
C2_2 W1_2 1_555 1_555
C3_2 W1_2 1_555 1_555
C4_2 W1_2 1_555 1_555
C5_2 W1_2 1_555 1_555
C6_2 W1_2 1_555 1_555
C7_2 W1_2 1_555 1_555
C8_2 W1_2 1_555 1_555

#END
