
###############################################################################
#
# This file contains modified crystal structure data generated from the
# MOF subset of the Cambridge Structural Database (CSD) v543 
# hosted by the Cambridge Crystallographic Data Centre (CCDC).
#
# This work is licensed under the Creative Commons
# Attribution-NonCommercial-ShareAlike 4.0 International License.
# To view a copy of this license, visit
# http://creativecommons.org/licenses/by-nc-sa/4.0/
# or send a letter to
# Creative Commons, PO Box 1866, Mountain View, CA 94042, USA.
#
# CIF created using the CSD Python API on 29 September 2022
# The structure has been converted into the P1 space group
# The structure has a 3D framework
# The original CSD entry FOKLID is in the triclinic crystal system
# The framework has been calculated to contain at least 10.0% void space
# The void calculation uses a probe of radius 1.32A, grid spacing 0.4
#
###############################################################################

data_FOKLID
_chemical_formula_moiety         '(C120 H96 N16 O16 S4 Zn4)n'
_symmetry_cell_setting           triclinic
_symmetry_space_group_name_H-M   'P 1'
_symmetry_Int_Tables_number      1
_space_group_name_Hall           'P 1'
loop_
_symmetry_equiv_pos_site_id
_symmetry_equiv_pos_as_xyz
1 x,y,z
_cell_length_a                   11.504(3)
_cell_length_b                   15.246(3)
_cell_length_c                   19.194(4)
_cell_angle_alpha                103.613(3)
_cell_angle_beta                 107.365(3)
_cell_angle_gamma                101.511(3)
_cell_volume                     2987.74
loop_
_atom_site_label
_atom_site_type_symbol
_atom_site_fract_x
_atom_site_fract_y
_atom_site_fract_z
_atom_site_U_iso_or_equiv
_atom_site_thermal_displace_type
O12 O 0.0606(4) 0.2359(3) 0.2478(2) 0.0550 Uani
O14 O 0.0358(4) 0.3785(3) 0.2604(2) 0.0715 Uani
C104 C 0.0037(5) 0.2937(5) 0.2283(3) 0.0495 Uani
Zn9 Zn 0.23391(6) 0.29544(5) 0.32508(3) 0.0455 Uani
C29 C 0.0029(6) 0.0376(4) 0.4404(3) 0.0554 Uani
C36 C 0.0144(6) 0.0795(5) 0.3773(3) 0.0665 Uani
H17 H 0.033229 0.147542 0.396669 0.0800 Uiso
H18 H 0.084359 0.065665 0.362979 0.0800 Uiso
C44 C 0.1063(6) 0.0185(5) 0.4831(4) 0.0702 Uani
H30 H 0.181681 0.031182 0.473697 0.0840 Uiso
N11 N 0.2622(4) 0.0686(3) 0.7907(2) 0.0403 Uani
C75 C 0.1499(6) 0.0506(4) 0.7373(3) 0.0503 Uani
H60 H 0.465452 0.007138 0.858277 0.0700 Uiso
C79 C 0.0762(6) 0.1220(5) 0.7254(4) 0.0665 Uani
H63 H 0.087972 0.144078 0.684369 0.1000 Uiso
H65 H 0.106827 0.174302 0.771853 0.1000 Uiso
Zn7 Zn 0.38029(6) 0.19945(4) 0.85859(3) 0.0382 Uani
N1 N 0.2883(4) 0.2526(3) 0.9265(2) 0.0367 Uani
N4 N 0.1803(4) 0.3359(3) 0.9783(2) 0.0446 Uani
C1 C 0.2285(5) 0.2004(3) 0.9637(3) 0.0379 Uani
C2 C 0.2611(5) 0.3329(3) 0.9387(3) 0.0392 Uani
C3 C 0.0004(6) 0.4029(4) 0.9327(3) 0.0458 Uani
C7 C 0.1596(5) 0.2523(4) 0.9959(3) 0.0386 Uani
C23 C 0.1194(5) 0.4116(4) 0.9964(3) 0.0507 Uani
C30 C 0.2331(6) 0.1146(4) 0.9745(3) 0.0515 Uani
H9 H 0.278835 0.079548 0.953332 0.0620 Uiso
C31 C 0.0089(5) 0.4521(4) 0.8814(3) 0.0540 Uani
H10 H 0.087415 0.490252 0.887353 0.0650 Uiso
C34 C 0.3156(7) 0.4134(4) 0.9150(4) 0.0698 Uani
H13 H 0.379780 0.399621 0.895386 0.1040 Uiso
H14 H 0.352737 0.469670 0.958604 0.1040 Uiso
H15 H 0.249197 0.422689 0.875649 0.1040 Uiso
H28 H 0.012720 0.907505 0.287592 0.1000 Uiso
N12 N 0.1056(5) 0.9592(3) 0.6923(2) 0.0567 Uani
C73 C 0.2941(6) 0.9833(4) 0.7796(3) 0.0463 Uani
C74 C 0.1939(6) 0.9144(4) 0.7169(3) 0.0483 Uani
C77 C 0.3992(6) 0.9611(4) 0.8171(3) 0.0581 Uani
C81 C 0.4078(8) 0.8700(5) 0.7939(4) 0.0795 Uani
H67 H 0.479493 0.854353 0.819012 0.0960 Uiso
C82 C 0.1965(8) 0.8229(5) 0.6919(4) 0.0726 Uani
H68 H 0.129475 0.777204 0.650896 0.0870 Uiso
C83 C 0.3059(8) 0.8021(5) 0.7318(5) 0.0764 Uani
H69 H 0.311007 0.740867 0.716483 0.0920 Uiso
C84 C 0.0992(7) 0.9798(6) 0.5411(4) 0.0834 Uani
H70 H 0.170433 0.965311 0.568446 0.1000 Uiso
N8 N 0.8944(5) 0.0408(3) 0.3077(2) 0.0567 Uani
C12 C 0.7059(6) 0.0167(4) 0.2204(3) 0.0463 Uani
C26 C 0.8061(6) 0.0856(4) 0.2831(3) 0.0483 Uani
C33 C 0.6008(6) 0.0389(4) 0.1829(3) 0.0581 Uani
C48 C 0.6822(8) 0.0507(5) 0.7529(4) 0.0781 Uani
H37 H 0.623922 0.083648 0.738938 0.0940 Uiso
C49 C 0.5922(8) 0.1300(5) 0.2061(4) 0.0795 Uani
H38 H 0.520507 0.145647 0.180988 0.0960 Uiso
C51 C 0.8035(8) 0.1771(5) 0.3081(4) 0.0726 Uani
H40 H 0.870525 0.222796 0.349104 0.0870 Uiso
C53 C 0.4582(7) 0.0478(5) 0.5532(4) 0.0740 Uani
H42 H 0.429734 0.081543 0.588389 0.0890 Uiso
C54 C 0.6941(8) 0.1979(5) 0.2682(5) 0.0764 Uani
H43 H 0.688993 0.259133 0.283517 0.0920 Uiso
C55 C 0.9008(7) 0.0202(6) 0.4589(4) 0.0834 Uani
H44 H 0.829567 0.034689 0.431554 0.1000 Uiso
C56 C 0.8825(8) 0.0458(5) 0.8269(4) 0.0851 Uani
H45 H 0.961644 0.078335 0.865334 0.1020 Uiso
C59 C 0.7923(9) 0.0942(5) 0.8083(4) 0.0957 Uani
H47 H 0.810821 0.157592 0.835482 0.1150 Uiso
N9 N 0.3172(4) 0.1884(3) 0.3137(2) 0.0473 Uani
N10 N 0.4555(4) 0.1096(4) 0.3438(2) 0.0511 Uani
C61 C 0.2610(5) 0.0936(4) 0.2670(3) 0.0475 Uani
C62 C 0.4303(5) 0.1941(4) 0.3575(3) 0.0466 Uani
C63 C 0.3473(6) 0.0438(4) 0.2848(3) 0.0501 Uani
C64 C 0.5317(5) 0.0401(4) 0.4466(3) 0.0475 Uani
C65 C 0.5655(6) 0.0836(5) 0.3889(3) 0.0600 Uani
H49 H 0.638099 0.139410 0.415959 0.0720 Uiso
H50 H 0.588638 0.038899 0.354382 0.0720 Uiso
C66 C 0.1426(6) 0.0484(4) 0.2099(3) 0.0630 Uani
H51 H 0.082697 0.080408 0.196953 0.0750 Uiso
C67 C 0.5236(6) 0.2845(4) 0.4157(3) 0.0704 Uani
H52 H 0.488236 0.308743 0.452956 0.1060 Uiso
H53 H 0.601446 0.272443 0.441195 0.1060 Uiso
H54 H 0.540524 0.329899 0.390149 0.1060 Uiso
C71 C 0.4902(8) 0.0866(5) 0.5007(4) 0.0819 Uani
H58 H 0.483337 0.146663 0.502060 0.0980 Uiso
H64 H 0.987280 0.092495 0.712408 0.1000 Uiso
S4 S 0.31962(16) 0.26283(11) 0.57584(8) 0.0574 Uani
O9 O 0.3772(4) 0.2767(3) 0.79084(18) 0.0498 Uani
O10 O 0.6032(4) 0.3348(3) 0.9850(2) 0.0588 Uani
O11 O 0.5278(4) 0.1788(3) 0.9245(2) 0.0576 Uani
O13 O 0.2571(4) 0.3110(3) 0.4327(2) 0.0671 Uani
N15 N 0.3291(4) 0.4008(3) 0.2977(2) 0.0470 Uani
N16 N 0.3493(4) 0.5312(3) 0.2627(3) 0.0496 Uani
O15 O 0.4009(5) 0.1705(3) 0.6982(2) 0.0761 Uani
C88 C 0.3173(5) 0.4885(4) 0.3119(3) 0.0472 Uani
C89 C 0.3748(5) 0.3874(4) 0.2360(3) 0.0406 Uani
C94 C 0.3736(5) 0.2404(4) 0.7220(3) 0.0448 Uani
C95 C 0.3868(5) 0.4680(4) 0.2140(3) 0.0443 Uani
C96 C 0.6064(5) 0.2533(4) 0.9802(3) 0.0473 Uani
C97 C 0.4067(5) 0.3112(4) 0.1993(3) 0.0505 Uani
H72 H 0.396613 0.255868 0.212216 0.0600 Uiso
C98 C 0.1148(6) 0.6510(4) 0.0757(3) 0.0529 Uani
H73 H 0.121410 0.683044 0.040699 0.0630 Uiso
C99 C 0.2171(6) 0.6114(4) 0.1886(3) 0.0522 Uani
C100 C 0.3230(6) 0.2950(4) 0.6688(3) 0.0529 Uani
C103 C 0.2225(6) 0.6587(4) 0.1359(4) 0.0562 Uani
H77 H 0.300667 0.696771 0.141106 0.0670 Uiso
C105 C 0.4680(5) 0.4032(4) 0.1215(3) 0.0546 Uani
H78 H 0.500800 0.407319 0.083171 0.0650 Uiso
C108 C 0.4539(6) 0.3212(4) 0.1428(3) 0.0598 Uani
H81 H 0.477372 0.271500 0.117784 0.0720 Uiso
C110 C 0.4337(6) 0.4772(4) 0.1567(3) 0.0581 Uani
H85 H 0.441557 0.531869 0.142654 0.0690 Uiso
C112 C 0.2563(7) 0.3494(5) 0.5575(3) 0.0675 Uani
C113 C 0.0974(6) 0.5555(4) 0.1777(4) 0.0630 Uani
H87 H 0.089940 0.522412 0.211871 0.0760 Uiso
O16 O 0.1521(8) 0.4117(6) 0.4636(3) 0.1512 Uani
C114 C 0.2807(7) 0.5356(4) 0.3756(3) 0.0710 Uani
H88 H 0.279324 0.497785 0.408996 0.1060 Uiso
H89 H 0.341474 0.596415 0.404140 0.1060 Uiso
H90 H 0.197755 0.543156 0.354760 0.1060 Uiso
C116 C 0.3373(6) 0.6220(4) 0.2549(3) 0.0605 Uani
H92 H 0.335584 0.660693 0.302401 0.0730 Uiso
H93 H 0.411029 0.654092 0.246379 0.0730 Uiso
C118 C 0.2776(8) 0.3708(5) 0.6838(3) 0.0902 Uani
H95 H 0.270333 0.397653 0.730524 0.1080 Uiso
C119 C 0.2170(8) 0.3590(6) 0.4781(4) 0.0858 Uani
C120 C 0.2437(10) 0.4027(7) 0.6211(4) 0.1183 Uani
H96 H 0.215004 0.455641 0.622216 0.1420 Uiso
Zn1 Zn 0.61971(6) 0.80055(4) 0.14141(3) 0.0382 Uani
Zn2 Zn 0.76609(6) 0.70456(5) 0.67492(3) 0.0455 Uani
S2 S 0.68038(16) 0.73717(11) 0.42416(8) 0.0574 Uani
O1 O 0.6228(4) 0.7233(3) 0.20916(18) 0.0498 Uani
O2 O 0.3968(4) 0.6652(3) 0.0150(2) 0.0588 Uani
O3 O 0.4722(4) 0.8212(3) 0.0755(2) 0.0576 Uani
N2 N 0.6828(4) 0.8116(3) 0.6863(2) 0.0473 Uani
O5 O 0.7429(4) 0.6890(3) 0.5673(2) 0.0671 Uani
N3 N 0.7378(4) 0.9314(3) 0.2093(2) 0.0403 Uani
N5 N 0.5445(4) 0.8904(4) 0.6562(2) 0.0511 Uani
N6 N 0.6709(4) 0.5992(3) 0.7023(2) 0.0470 Uani
N7 N 0.6507(4) 0.4688(3) 0.7373(3) 0.0496 Uani
O7 O 0.5991(5) 0.8295(3) 0.3018(2) 0.0761 Uani
C4 C 0.7390(5) 0.9064(4) 0.7330(3) 0.0475 Uani
C5 C 0.6827(5) 0.5115(4) 0.6881(3) 0.0472 Uani
C6 C 0.6252(5) 0.6126(4) 0.7640(3) 0.0406 Uani
C10 C 0.5697(5) 0.8059(4) 0.6425(3) 0.0466 Uani
C13 C 0.6264(5) 0.7596(4) 0.2780(3) 0.0448 Uani
C14 C 0.6132(5) 0.5320(4) 0.7860(3) 0.0443 Uani
C15 C 0.6527(6) 0.9562(4) 0.7152(3) 0.0501 Uani
C16 C 0.3936(5) 0.7467(4) 0.0198(3) 0.0473 Uani
C17 C 0.5933(5) 0.6888(4) 0.8007(3) 0.0505 Uani
H2 H 0.603387 0.744132 0.787784 0.0600 Uiso
C18 C 0.4683(5) 0.9599(4) 0.5534(3) 0.0475 Uani
C19 C 0.8852(6) 0.3490(4) 0.9243(3) 0.0529 Uani
H3 H 0.878590 0.316956 0.959301 0.0630 Uiso
C20 C 0.7829(6) 0.3886(4) 0.8114(3) 0.0522 Uani
C21 C 0.6770(6) 0.7050(4) 0.3312(3) 0.0529 Uani
C24 C 0.7775(6) 0.3413(4) 0.8641(4) 0.0562 Uani
H7 H 0.699333 0.303229 0.858894 0.0670 Uiso
C27 C 0.5320(5) 0.5968(4) 0.8785(3) 0.0546 Uani
H8 H 0.499200 0.592681 0.916829 0.0650 Uiso
C28 C 0.8501(6) 0.9494(4) 0.2627(3) 0.0503 Uani
C32 C 0.5461(6) 0.6788(4) 0.8572(3) 0.0598 Uani
H11 H 0.522628 0.728500 0.882216 0.0720 Uiso
H12 H 0.534548 0.992862 0.141723 0.0700 Uiso
C35 C 0.5663(6) 0.5228(4) 0.8433(3) 0.0581 Uani
H16 H 0.558443 0.468131 0.857346 0.0690 Uiso
C38 C 0.4345(6) 0.9164(5) 0.6111(3) 0.0600 Uani
H20 H 0.361901 0.860590 0.584041 0.0720 Uiso
H21 H 0.411362 0.961101 0.645618 0.0720 Uiso
C39 C 0.7437(7) 0.6506(5) 0.4425(3) 0.0675 Uani
C40 C 0.8574(6) 0.9516(4) 0.7901(3) 0.0630 Uani
H22 H 0.917303 0.919592 0.803047 0.0750 Uiso
C41 C 0.9026(6) 0.4445(4) 0.8223(4) 0.0630 Uani
H23 H 0.910060 0.477588 0.788129 0.0760 Uiso
O8 O 0.8479(8) 0.5883(6) 0.5364(3) 0.1512 Uani
C42 C 0.4764(6) 0.7155(4) 0.5843(3) 0.0704 Uani
H24 H 0.511764 0.691257 0.547044 0.1060 Uiso
H25 H 0.398554 0.727557 0.558805 0.1060 Uiso
H26 H 0.459476 0.670101 0.609851 0.1060 Uiso
C43 C 0.9238(6) 0.8780(5) 0.2746(4) 0.0665 Uani
H27 H 0.912028 0.855922 0.315631 0.1000 Uiso
H29 H 0.893173 0.825698 0.228147 0.1000 Uiso
C45 C 0.7193(7) 0.4644(4) 0.6244(3) 0.0710 Uani
H31 H 0.720676 0.502215 0.591004 0.1060 Uiso
H32 H 0.658526 0.403585 0.595860 0.1060 Uiso
H33 H 0.802245 0.456844 0.645240 0.1060 Uiso
C47 C 0.6627(6) 0.3780(4) 0.7451(3) 0.0605 Uani
H35 H 0.664416 0.339307 0.697599 0.0730 Uiso
H36 H 0.588971 0.345908 0.753621 0.0730 Uiso
C52 C 0.7224(8) 0.6292(5) 0.3162(3) 0.0902 Uani
H41 H 0.729667 0.602347 0.269476 0.1080 Uiso
C57 C 0.5098(8) 0.9134(5) 0.4993(4) 0.0819 Uani
H46 H 0.516663 0.853337 0.497940 0.0980 Uiso
C58 C 0.7830(8) 0.6410(6) 0.5219(4) 0.0858 Uani
C60 C 0.7563(10) 0.5973(7) 0.3789(4) 0.1183 Uani
H48 H 0.784996 0.544359 0.377784 0.1420 Uiso
C68 C 0.3178(8) 0.9493(5) 0.2471(4) 0.0781 Uani
H55 H 0.376078 0.916352 0.261062 0.0940 Uiso
C69 C 0.5418(7) 0.9522(5) 0.4468(4) 0.0740 Uani
H56 H 0.570266 0.918457 0.411611 0.0890 Uiso
C70 C 0.1175(8) 0.9542(5) 0.1731(4) 0.0851 Uani
H57 H 0.038356 0.921665 0.134666 0.1020 Uiso
C72 C 0.2077(9) 0.9058(5) 0.1917(4) 0.0957 Uani
H59 H 0.189179 0.842408 0.164518 0.1150 Uiso
C76 C 0.9971(6) 0.9624(4) 0.5596(3) 0.0554 Uani
C78 C 0.9856(6) 0.9205(5) 0.6227(3) 0.0665 Uani
H61 H 0.966771 0.852458 0.603331 0.0800 Uiso
H62 H 0.915641 0.934335 0.637021 0.0800 Uiso
C80 C 0.8937(6) 0.9815(5) 0.5169(4) 0.0702 Uani
H66 H 0.818319 0.968818 0.526303 0.0840 Uiso
O17 O 0.9394(4) 0.7641(3) 0.7522(2) 0.0550 Uani
N18 N 0.7117(4) 0.7474(3) 0.0735(2) 0.0367 Uani
N14 N 0.8197(4) 0.6641(3) 0.0217(2) 0.0446 Uani
C85 C 0.7715(5) 0.7996(3) 0.0363(3) 0.0379 Uani
C86 C 0.7389(5) 0.6671(3) 0.0613(3) 0.0392 Uani
C87 C 0.9996(6) 0.5971(4) 0.0673(3) 0.0458 Uani
C90 C 0.8404(5) 0.7477(4) 0.0041(3) 0.0386 Uani
C102 C 0.8806(5) 0.5884(4) 0.0036(3) 0.0507 Uani
C106 C 0.7669(6) 0.8854(4) 0.0255(3) 0.0515 Uani
H79 H 0.721165 0.920452 0.046668 0.0620 Uiso
C107 C 0.9911(5) 0.5479(4) 0.1186(3) 0.0540 Uani
H80 H 0.912585 0.509748 0.112647 0.0650 Uiso
C109 C 0.6844(7) 0.5866(4) 0.0850(4) 0.0698 Uani
H82 H 0.620220 0.600379 0.104614 0.1040 Uiso
H83 H 0.647263 0.530330 0.041396 0.1040 Uiso
H84 H 0.750803 0.577311 0.124351 0.1040 Uiso
O6 O 0.9642(4) 0.6215(3) 0.7396(2) 0.0715 Uani
C25 C 0.9963(5) 0.7063(5) 0.7717(3) 0.0495 Uani
H5 H 0.099386 0.410344 0.041908 0.0610 Uiso
H6 H 0.180033 0.472235 0.008510 0.0610 Uiso
C37 C 0.0935(6) 0.2192(4) 0.0382(3) 0.0568 Uani
H19 H 0.047432 0.253714 0.059433 0.0690 Uiso
C46 C 0.0981(7) 0.1331(5) 0.0478(4) 0.0682 Uani
H34 H 0.053232 0.108534 0.075315 0.0820 Uiso
C50 C 0.1684(6) 0.0827(5) 0.0171(4) 0.0659 Uani
H39 H 0.171744 0.025589 0.025729 0.0790 Uiso
S3 S 0.80970(14) 0.32521(10) 0.11894(8) 0.0494 Uani
C91 C 0.7005(5) 0.2333(4) 0.0407(3) 0.0435 Uani
C92 C 0.8843(5) 0.2518(4) 0.1559(3) 0.0417 Uani
C93 C 0.7234(6) 0.1502(4) 0.0449(3) 0.0537 Uani
H71 H 0.675501 0.092316 0.007833 0.0640 Uiso
C101 C 0.8272(6) 0.1606(4) 0.1112(3) 0.0523 Uani
H74 H 0.853572 0.110239 0.122903 0.0630 Uiso
S1 S 0.19030(14) 0.67479(10) 0.88106(8) 0.0494 Uani
C8 C 0.2995(5) 0.7667(4) 0.9593(3) 0.0435 Uani
C9 C 0.1157(5) 0.7482(4) 0.8441(3) 0.0417 Uani
C11 C 0.2766(6) 0.8498(4) 0.9551(3) 0.0537 Uani
H1 H 0.324499 0.907684 0.992167 0.0640 Uiso
C22 C 0.1728(6) 0.8394(4) 0.8888(3) 0.0523 Uani
H4 H 0.146428 0.889761 0.877097 0.0630 Uiso
H75 H 0.900614 0.589656 0.958092 0.0610 Uiso
H76 H 0.819967 0.527765 0.991490 0.0610 Uiso
C111 C 0.9065(6) 0.7808(4) 0.9618(3) 0.0568 Uani
H86 H 0.952568 0.746286 0.940567 0.0690 Uiso
C115 C 0.9019(7) 0.8669(5) 0.9522(4) 0.0682 Uani
H91 H 0.946768 0.891466 0.924685 0.0820 Uiso
C117 C 0.8316(6) 0.9173(5) 0.9829(4) 0.0659 Uani
H94 H 0.828256 0.974411 0.974271 0.0790 Uiso
loop_
_atom_site_aniso_label
_atom_site_aniso_U_11
_atom_site_aniso_U_22
_atom_site_aniso_U_33
_atom_site_aniso_U_23
_atom_site_aniso_U_13
_atom_site_aniso_U_12
O12 0.048 0.066 0.049 0.026 0.0067 0.02
O14 0.068 0.067 0.057 0.01 -0.002 0.021
C104 0.048 0.071 0.036 0.027 0.014 0.021
Zn9 0.0494 0.0598 0.0305 0.0217 0.0102 0.0202
C29 0.044 0.067 0.038 0.011 0.004 0.003
C36 0.046 0.077 0.051 0.019 -0.006 0.001
C44 0.042 0.114 0.06 0.038 0.015 0.027
N11 0.037 0.048 0.035 0.014 0.0076 0.018
C75 0.052 0.056 0.044 0.019 0.018 0.013
C79 0.05 0.081 0.063 0.027 0.003 0.029
Zn7 0.0418 0.0478 0.0284 0.0137 0.0123 0.019
N1 0.036 0.041 0.036 0.0169 0.0104 0.016
N4 0.059 0.043 0.044 0.016 0.028 0.024
C1 0.044 0.041 0.031 0.013 0.013 0.016
C2 0.049 0.037 0.036 0.012 0.018 0.017
C3 0.058 0.045 0.049 0.016 0.029 0.03
C7 0.038 0.044 0.039 0.016 0.017 0.015
C23 0.058 0.05 0.052 0.011 0.027 0.028
C30 0.065 0.048 0.052 0.024 0.024 0.025
C31 0.038 0.062 0.07 0.032 0.019 0.019
C34 0.106 0.055 0.083 0.032 0.068 0.033
N12 0.069 0.051 0.034 0.011 0.011 -0.002
C73 0.07 0.042 0.039 0.017 0.033 0.017
C74 0.062 0.047 0.037 0.017 0.016 0.017
C77 0.071 0.057 0.055 0.022 0.023 0.032
C81 0.124 0.053 0.091 0.033 0.064 0.038
C82 0.11 0.051 0.059 0.013 0.047 0.008
C83 0.112 0.058 0.093 0.031 0.066 0.044
C84 0.059 0.129 0.066 0.047 0.017 0.025
N8 0.069 0.051 0.034 0.011 0.011 -0.002
C12 0.07 0.042 0.039 0.017 0.033 0.017
C26 0.062 0.047 0.037 0.017 0.016 0.017
C33 0.071 0.057 0.055 0.022 0.023 0.032
C48 0.096 0.057 0.073 0.018 0.01 0.039
C49 0.124 0.053 0.091 0.033 0.064 0.038
C51 0.11 0.051 0.059 0.013 0.047 0.008
C53 0.117 0.078 0.062 0.03 0.057 0.056
C54 0.112 0.058 0.093 0.031 0.066 0.044
C55 0.059 0.129 0.066 0.047 0.017 0.025
C56 0.091 0.062 0.066 0.01 -0.002 0.004
C59 0.13 0.047 0.085 0.008 0.008 0.035
N9 0.047 0.062 0.035 0.023 0.009 0.02
N10 0.048 0.073 0.045 0.03 0.019 0.028
C61 0.051 0.051 0.036 0.017 0.008 0.013
C62 0.046 0.055 0.042 0.021 0.015 0.016
C63 0.051 0.061 0.04 0.022 0.009 0.024
C64 0.041 0.072 0.041 0.025 0.013 0.035
C65 0.05 0.093 0.051 0.036 0.015 0.04
C66 0.072 0.06 0.052 0.023 0.015 0.014
C67 0.059 0.078 0.061 0.025 0.003 0.017
C71 0.138 0.08 0.078 0.047 0.065 0.073
S4 0.0758 0.0719 0.0312 0.0217 0.0218 0.0257
O9 0.056 0.064 0.0299 0.0197 0.011 0.02
O10 0.065 0.063 0.051 0.026 0.017 0.021
O11 0.058 0.064 0.04 0.008 0.0044 0.025
O13 0.087 0.091 0.031 0.026 0.022 0.033
N15 0.051 0.055 0.039 0.018 0.015 0.022
N16 0.047 0.044 0.055 0.015 0.014 0.015
O15 0.115 0.092 0.054 0.035 0.048 0.059
C88 0.041 0.056 0.038 0.011 0.007 0.016
C89 0.034 0.051 0.036 0.016 0.01 0.012
C94 0.035 0.062 0.035 0.019 0.008 0.012
C95 0.046 0.039 0.046 0.012 0.016 0.011
C96 0.053 0.061 0.04 0.021 0.023 0.027
C97 0.054 0.052 0.051 0.02 0.019 0.023
C98 0.061 0.057 0.062 0.03 0.038 0.025
C99 0.066 0.036 0.058 0.015 0.027 0.015
C100 0.068 0.068 0.029 0.022 0.021 0.02
C103 0.055 0.045 0.08 0.023 0.036 0.017
C105 0.05 0.066 0.052 0.02 0.022 0.019
C108 0.069 0.064 0.058 0.021 0.034 0.025
C110 0.063 0.057 0.058 0.029 0.023 0.011
C112 0.08 0.099 0.046 0.042 0.027 0.045
C113 0.06 0.066 0.079 0.039 0.035 0.018
O16 0.217 0.251 0.091 0.113 0.088 0.173
C114 0.087 0.069 0.049 0.001 0.022 0.031
C116 0.053 0.047 0.069 0.019 0.006 0.012
C118 0.154 0.113 0.036 0.032 0.044 0.083
C119 0.125 0.116 0.048 0.05 0.037 0.065
C120 0.22 0.154 0.065 0.072 0.08 0.145
Zn1 0.0418 0.0478 0.0284 0.0137 0.0123 0.019
Zn2 0.0494 0.0598 0.0305 0.0217 0.0102 0.0202
S2 0.0758 0.0719 0.0312 0.0217 0.0218 0.0257
O1 0.056 0.064 0.0299 0.0197 0.011 0.02
O2 0.065 0.063 0.051 0.026 0.017 0.021
O3 0.058 0.064 0.04 0.008 0.0044 0.025
N2 0.047 0.062 0.035 0.023 0.009 0.02
O5 0.087 0.091 0.031 0.026 0.022 0.033
N3 0.037 0.048 0.035 0.014 0.0076 0.018
N5 0.048 0.073 0.045 0.03 0.019 0.028
N6 0.051 0.055 0.039 0.018 0.015 0.022
N7 0.047 0.044 0.055 0.015 0.014 0.015
O7 0.115 0.092 0.054 0.035 0.048 0.059
C4 0.051 0.051 0.036 0.017 0.008 0.013
C5 0.041 0.056 0.038 0.011 0.007 0.016
C6 0.034 0.051 0.036 0.016 0.01 0.012
C10 0.046 0.055 0.042 0.021 0.015 0.016
C13 0.035 0.062 0.035 0.019 0.008 0.012
C14 0.046 0.039 0.046 0.012 0.016 0.011
C15 0.051 0.061 0.04 0.022 0.009 0.024
C16 0.053 0.061 0.04 0.021 0.023 0.027
C17 0.054 0.052 0.051 0.02 0.019 0.023
C18 0.041 0.072 0.041 0.025 0.013 0.035
C19 0.061 0.057 0.062 0.03 0.038 0.025
C20 0.066 0.036 0.058 0.015 0.027 0.015
C21 0.068 0.068 0.029 0.022 0.021 0.02
C24 0.055 0.045 0.08 0.023 0.036 0.017
C27 0.05 0.066 0.052 0.02 0.022 0.019
C28 0.052 0.056 0.044 0.019 0.018 0.013
C32 0.069 0.064 0.058 0.021 0.034 0.025
C35 0.063 0.057 0.058 0.029 0.023 0.011
C38 0.05 0.093 0.051 0.036 0.015 0.04
C39 0.08 0.099 0.046 0.042 0.027 0.045
C40 0.072 0.06 0.052 0.023 0.015 0.014
C41 0.06 0.066 0.079 0.039 0.035 0.018
O8 0.217 0.251 0.091 0.113 0.088 0.173
C42 0.059 0.078 0.061 0.025 0.003 0.017
C43 0.05 0.081 0.063 0.027 0.003 0.029
C45 0.087 0.069 0.049 0.001 0.022 0.031
C47 0.053 0.047 0.069 0.019 0.006 0.012
C52 0.154 0.113 0.036 0.032 0.044 0.083
C57 0.138 0.08 0.078 0.047 0.065 0.073
C58 0.125 0.116 0.048 0.05 0.037 0.065
C60 0.22 0.154 0.065 0.072 0.08 0.145
C68 0.096 0.057 0.073 0.018 0.01 0.039
C69 0.117 0.078 0.062 0.03 0.057 0.056
C70 0.091 0.062 0.066 0.01 -0.002 0.004
C72 0.13 0.047 0.085 0.008 0.008 0.035
C76 0.044 0.067 0.038 0.011 0.004 0.003
C78 0.046 0.077 0.051 0.019 -0.006 0.001
C80 0.042 0.114 0.06 0.038 0.015 0.027
O17 0.048 0.066 0.049 0.026 0.0067 0.02
N18 0.036 0.041 0.036 0.0169 0.0104 0.016
N14 0.059 0.043 0.044 0.016 0.028 0.024
C85 0.044 0.041 0.031 0.013 0.013 0.016
C86 0.049 0.037 0.036 0.012 0.018 0.017
C87 0.058 0.045 0.049 0.016 0.029 0.03
C90 0.038 0.044 0.039 0.016 0.017 0.015
C102 0.058 0.05 0.052 0.011 0.027 0.028
C106 0.065 0.048 0.052 0.024 0.024 0.025
C107 0.038 0.062 0.07 0.032 0.019 0.019
C109 0.106 0.055 0.083 0.032 0.068 0.033
O6 0.068 0.067 0.057 0.01 -0.002 0.021
C25 0.048 0.071 0.036 0.027 0.014 0.021
C37 0.051 0.079 0.054 0.028 0.028 0.026
C46 0.077 0.08 0.083 0.055 0.048 0.034
C50 0.075 0.063 0.074 0.039 0.034 0.019
S3 0.0489 0.0507 0.0417 0.0158 0.0051 0.016
C91 0.034 0.061 0.033 0.014 0.008 0.016
C92 0.04 0.057 0.035 0.02 0.015 0.02
C93 0.056 0.05 0.05 0.012 0.012 0.02
C101 0.055 0.058 0.05 0.024 0.017 0.024
S1 0.0489 0.0507 0.0417 0.0158 0.0051 0.016
C8 0.034 0.061 0.033 0.014 0.008 0.016
C9 0.04 0.057 0.035 0.02 0.015 0.02
C11 0.056 0.05 0.05 0.012 0.012 0.02
C22 0.055 0.058 0.05 0.024 0.017 0.024
C111 0.051 0.079 0.054 0.028 0.028 0.026
C115 0.077 0.08 0.083 0.055 0.048 0.034
C117 0.075 0.063 0.074 0.039 0.034 0.019
loop_
_geom_bond_atom_site_label_1
_geom_bond_atom_site_label_2
_geom_bond_site_symmetry_1
_geom_bond_site_symmetry_2
O12 C104 1_555 1_555
O14 C104 1_555 1_555
Zn9 O12 1_555 1_555
C29 C36 1_555 1_555
H17 C36 1_555 1_555
H18 C36 1_555 1_555
C44 C29 1_555 1_555
H30 C44 1_555 1_555
C75 N11 1_555 1_555
C79 C75 1_555 1_555
H63 C79 1_555 1_555
H65 C79 1_555 1_555
Zn7 N11 1_555 1_555
N1 C1 1_555 1_555
N4 C2 1_555 1_555
C1 C7 1_555 1_555
C2 N1 1_555 1_555
C7 N4 1_555 1_555
C23 N4 1_555 1_555
C30 C1 1_555 1_555
H9 C30 1_555 1_555
C31 C3 1_555 1_555
H10 C31 1_555 1_555
C34 C2 1_555 1_555
H13 C34 1_555 1_555
H14 C34 1_555 1_555
H15 C34 1_555 1_555
N12 C74 1_555 1_555
C73 C74 1_555 1_555
C74 C82 1_555 1_555
C77 C73 1_555 1_555
C81 C77 1_555 1_555
H67 C81 1_555 1_555
C82 H68 1_555 1_555
C83 C81 1_555 1_555
H69 C83 1_555 1_555
H70 C84 1_555 1_555
Zn7 N1 1_555 1_555
C3 C23 1_555 1_555
C82 C83 1_555 1_555
N8 C26 1_555 1_555
C26 C12 1_555 1_555
C33 C12 1_555 1_555
H37 C48 1_555 1_555
C49 C33 1_555 1_555
H38 C49 1_555 1_555
C51 C26 1_555 1_555
H40 C51 1_555 1_555
H42 C53 1_555 1_555
C54 C49 1_555 1_555
H43 C54 1_555 1_555
H44 C55 1_555 1_555
H45 C56 1_555 1_555
C59 C48 1_555 1_555
H47 C59 1_555 1_555
N9 C61 1_555 1_555
N10 C62 1_555 1_555
C61 C63 1_555 1_555
C62 N9 1_555 1_555
C63 N10 1_555 1_555
C64 C65 1_555 1_555
C65 N10 1_555 1_555
H49 C65 1_555 1_555
H50 C65 1_555 1_555
C66 C61 1_555 1_555
H51 C66 1_555 1_555
C67 C62 1_555 1_555
H52 C67 1_555 1_555
H53 C67 1_555 1_555
H54 C67 1_555 1_555
C71 C53 1_555 1_555
H58 C71 1_555 1_555
Zn7 O9 1_555 1_555
Zn9 N9 1_555 1_555
S4 C100 1_555 1_555
O9 C94 1_555 1_555
O10 C96 1_555 1_555
O11 Zn7 1_555 1_555
O13 Zn9 1_555 1_555
N15 Zn9 1_555 1_555
N16 C88 1_555 1_555
O15 C94 1_555 1_555
C88 N15 1_555 1_555
C89 N15 1_555 1_555
C94 C100 1_555 1_555
C95 N16 1_555 1_555
C96 O11 1_555 1_555
C97 C89 1_555 1_555
H72 C97 1_555 1_555
C98 H73 1_555 1_555
C99 C103 1_555 1_555
C100 C118 1_555 1_555
C103 C98 1_555 1_555
H77 C103 1_555 1_555
C105 H78 1_555 1_555
C108 C97 1_555 1_555
H81 C108 1_555 1_555
C110 C95 1_555 1_555
H85 C110 1_555 1_555
C112 S4 1_555 1_555
C113 C99 1_555 1_555
H87 C113 1_555 1_555
O16 C119 1_555 1_555
C114 C88 1_555 1_555
H88 C114 1_555 1_555
H89 C114 1_555 1_555
H90 C114 1_555 1_555
C116 N16 1_555 1_555
H92 C116 1_555 1_555
H93 C116 1_555 1_555
C118 H95 1_555 1_555
C119 O13 1_555 1_555
C120 C112 1_555 1_555
H96 C120 1_555 1_555
C51 C54 1_555 1_555
C56 C59 1_555 1_555
C64 C71 1_555 1_555
C89 C95 1_555 1_555
C99 C116 1_555 1_555
C105 C108 1_555 1_555
C105 C110 1_555 1_555
C112 C119 1_555 1_555
C118 C120 1_555 1_555
Zn1 O1 1_555 1_555
Zn2 N2 1_555 1_555
S2 C21 1_555 1_555
O1 C13 1_555 1_555
O2 C16 1_555 1_555
O3 Zn1 1_555 1_555
N2 C4 1_555 1_555
O5 Zn2 1_555 1_555
N3 Zn1 1_555 1_555
N5 C10 1_555 1_555
N6 Zn2 1_555 1_555
N7 C5 1_555 1_555
O7 C13 1_555 1_555
C4 C15 1_555 1_555
C5 N6 1_555 1_555
C6 N6 1_555 1_555
C10 N2 1_555 1_555
C13 C21 1_555 1_555
C14 N7 1_555 1_555
C15 N5 1_555 1_555
C16 O3 1_555 1_555
C17 C6 1_555 1_555
H2 C17 1_555 1_555
C18 C38 1_555 1_555
C19 H3 1_555 1_555
C20 C24 1_555 1_555
C21 C52 1_555 1_555
C24 C19 1_555 1_555
H7 C24 1_555 1_555
C27 H8 1_555 1_555
C28 N3 1_555 1_555
C32 C17 1_555 1_555
H11 C32 1_555 1_555
C35 C14 1_555 1_555
H16 C35 1_555 1_555
C38 N5 1_555 1_555
H20 C38 1_555 1_555
H21 C38 1_555 1_555
C39 S2 1_555 1_555
C40 C4 1_555 1_555
H22 C40 1_555 1_555
C41 C20 1_555 1_555
H23 C41 1_555 1_555
O8 C58 1_555 1_555
C42 C10 1_555 1_555
H24 C42 1_555 1_555
H25 C42 1_555 1_555
H26 C42 1_555 1_555
C43 C28 1_555 1_555
H27 C43 1_555 1_555
H29 C43 1_555 1_555
C45 C5 1_555 1_555
H31 C45 1_555 1_555
H32 C45 1_555 1_555
H33 C45 1_555 1_555
C47 N7 1_555 1_555
H35 C47 1_555 1_555
H36 C47 1_555 1_555
C52 H41 1_555 1_555
C57 C18 1_555 1_555
H46 C57 1_555 1_555
C58 O5 1_555 1_555
C60 C39 1_555 1_555
H48 C60 1_555 1_555
H55 C68 1_555 1_555
C69 C57 1_555 1_555
H56 C69 1_555 1_555
H57 C70 1_555 1_555
C72 C68 1_555 1_555
H59 C72 1_555 1_555
C76 C78 1_555 1_555
H61 C78 1_555 1_555
H62 C78 1_555 1_555
H66 C80 1_555 1_555
O17 Zn2 1_555 1_555
N18 Zn1 1_555 1_555
C6 C14 1_555 1_555
C20 C47 1_555 1_555
C27 C32 1_555 1_555
C27 C35 1_555 1_555
C39 C58 1_555 1_555
C52 C60 1_555 1_555
C70 C72 1_555 1_555
C76 C80 1_555 1_555
N18 C85 1_555 1_555
N14 C86 1_555 1_555
C85 C90 1_555 1_555
C86 N18 1_555 1_555
C90 N14 1_555 1_555
C102 N14 1_555 1_555
C106 C85 1_555 1_555
H79 C106 1_555 1_555
C107 C87 1_555 1_555
H80 C107 1_555 1_555
C109 C86 1_555 1_555
H82 C109 1_555 1_555
H83 C109 1_555 1_555
H84 C109 1_555 1_555
C87 C102 1_555 1_555
O17 C25 1_555 1_555
O6 C25 1_555 1_555
H19 C37 1_555 1_555
C46 C37 1_555 1_555
H34 C46 1_555 1_555
H39 C50 1_555 1_555
C46 C50 1_555 1_555
S3 C91 1_555 1_555
C91 C93 1_555 1_555
C92 S3 1_555 1_555
C93 H71 1_555 1_555
C101 C92 1_555 1_555
H74 C101 1_555 1_555
C93 C101 1_555 1_555
S1 C8 1_555 1_555
C8 C11 1_555 1_555
C9 S1 1_555 1_555
C11 H1 1_555 1_555
C22 C9 1_555 1_555
H4 C22 1_555 1_555
C11 C22 1_555 1_555
H86 C111 1_555 1_555
C115 C111 1_555 1_555
H91 C115 1_555 1_555
H94 C117 1_555 1_555
C115 C117 1_555 1_555

#END
