
###############################################################################
#
# This file contains modified crystal structure data generated from the
# MOF subset of the Cambridge Structural Database (CSD) v543 
# hosted by the Cambridge Crystallographic Data Centre (CCDC).
#
# This work is licensed under the Creative Commons
# Attribution-NonCommercial-ShareAlike 4.0 International License.
# To view a copy of this license, visit
# http://creativecommons.org/licenses/by-nc-sa/4.0/
# or send a letter to
# Creative Commons, PO Box 1866, Mountain View, CA 94042, USA.
#
# CIF created using the CSD Python API on 29 September 2022
# The structure has been converted into the P1 space group
# The structure has a 3D framework
# The original CSD entry FOKYIP is in the monoclinic crystal system
# The framework has been calculated to contain at least 10.0% void space
# The void calculation uses a probe of radius 1.32A, grid spacing 0.4
#
###############################################################################

data_FOKYIP
_chemical_formula_moiety         '(C152 H152 Nd8 O64 S16)n'
_symmetry_cell_setting           triclinic
_symmetry_space_group_name_H-M   'P 1'
_symmetry_Int_Tables_number      1
_space_group_name_Hall           'P 1'
loop_
_symmetry_equiv_pos_site_id
_symmetry_equiv_pos_as_xyz
1 x,y,z
_cell_length_a                   24.8718(8)
_cell_length_b                   13.7591(4)
_cell_length_c                   13.6832(4)
_cell_angle_alpha                90
_cell_angle_beta                 98.949(3)
_cell_angle_gamma                90
_cell_volume                     4625.58
loop_
_atom_site_label
_atom_site_type_symbol
_atom_site_fract_x
_atom_site_fract_y
_atom_site_fract_z
Nd1 Nd 0.169935(4) 0.215976(8) 0.461143(7)
C1 C 0.07445(8) 0.28171(17) 0.53794(17)
C2 C 0.02339(8) 0.31325(18) 0.57545(16)
C7 C 0.01210(9) 0.40952(19) 0.58702(18)
H4 H 0.0384 0.4554 0.5783
C16 C 0.0602(3) 0.3410(7) 0.1628(5)
H8 H 0.0291 0.3089 0.1819
H9 H 0.0567 0.3423 0.0919
H10 H 0.0622 0.4063 0.1878
C17 C 0.1597(3) 0.3526(7) 0.1840(6)
H11 H 0.1952 0.3257 0.2052
H12 H 0.1564 0.4132 0.2172
H13 H 0.1546 0.3632 0.1138
O1 O 0.10647(6) 0.34469(13) 0.51580(13)
O2 O 0.08320(6) 0.19170(13) 0.52801(13)
O7 O 0.12417(9) 0.30138(17) 0.31511(15)
O8 O 0.12051(6) 0.08501(14) 0.36065(12)
S1 S 0.11625(6) 0.28143(10) 0.20900(8)
S2 S 0.13352(3) 0.02684(6) 0.27314(5)
O9 O 0.27221(5) 0.14288(11) 0.52902(11)
O10 O 0.22779(5) 0.35712(11) 0.47098(11)
O11 O 0.19943(5) 0.05746(12) 0.54456(12)
O12 O 0.22277(5) 0.17426(14) 0.32768(11)
O13 O 0.19849(6) 0.24627(13) 0.63841(11)
Nd2 Nd 0.830065(4) 0.215976(8) 0.038857(7)
C3 C 0.98491(9) 0.2441(2) 0.5928(2)
H1 H 0.9921 0.1780 0.5880
C4 C 0.93579(10) 0.2756(2) 0.6174(2)
H2 H 0.9099 0.2296 0.6279
C5 C 0.92389(8) 0.37343(18) 0.62696(16)
C6 C 0.96297(8) 0.4411(2) 0.61123(18)
H3 H 0.9562 0.5072 0.6169
C8 C 0.86872(8) 0.40076(18) 0.64894(16)
C9 C 0.84673(8) 0.34646(18) 0.71905(16)
H5 H 0.8678 0.2991 0.7553
C10 C 0.79315(8) 0.36262(17) 0.73541(15)
C11 C 0.76212(8) 0.43227(18) 0.67891(15)
H6 H 0.7257 0.4402 0.6852
C12 C 0.78493(7) 0.49013(17) 0.61314(14)
C13 C 0.83883(8) 0.47531(17) 0.59998(15)
H7 H 0.8546 0.5159 0.5581
C14 C 0.77148(8) 0.30586(17) 0.81514(16)
C15 C 0.75045(8) 0.56796(15) 0.55919(14)
O3 O 0.77221(5) 0.64288(11) 0.52902(11)
O4 O 0.69943(5) 0.55746(12) 0.54456(12)
O5 O 0.72277(5) 0.32574(14) 0.82768(11)
O6 O 0.80151(6) 0.24627(13) 0.86159(11)
Nd3 Nd 0.669935(4) 0.715976(8) 0.461143(7)
Nd4 Nd 0.830065(4) 0.784024(8) 0.538857(7)
Nd5 Nd 0.669935(4) 0.284024(8) 0.961143(7)
Nd3_2 Nd 0.330065(4) 0.715976(8) 0.038857(7)
C3_2 C 0.01509(9) 0.2441(2) 0.9072(2)
H1_2 H 0.0079 0.1780 0.9120
C4_2 C 0.06421(10) 0.2756(2) 0.8826(2)
H2_2 H 0.0901 0.2296 0.8721
C5_2 C 0.07611(8) 0.37343(18) 0.87304(16)
C6_2 C 0.03703(8) 0.4411(2) 0.88877(18)
H3_2 H 0.0438 0.5072 0.8831
C8_2 C 0.13128(8) 0.40076(18) 0.85106(16)
C9_2 C 0.15327(8) 0.34646(18) 0.78095(16)
H5_2 H 0.1322 0.2991 0.7447
C10_2 C 0.20685(8) 0.36262(17) 0.76459(15)
C11_2 C 0.23788(8) 0.43227(18) 0.82109(15)
H6_2 H 0.2743 0.4402 0.8148
C12_2 C 0.21507(7) 0.49013(17) 0.88686(14)
C13_2 C 0.16117(8) 0.47531(17) 0.90002(15)
H7_2 H 0.1454 0.5159 0.9419
C14_2 C 0.22852(8) 0.30586(17) 0.68486(16)
C15_2 C 0.24955(8) 0.56796(15) 0.94081(14)
O3_2 O 0.22779(5) 0.64288(11) 0.97098(11)
O4_2 O 0.30057(5) 0.55746(12) 0.95544(12)
O5_2 O 0.27723(5) 0.32574(14) 0.67232(11)
Nd4_2 Nd 0.169935(4) 0.784024(8) 0.961143(7)
Nd5_2 Nd 0.330065(4) 0.284024(8) 0.538857(7)
C16_2 C 0.9398(3) 0.3410(7) 0.3372(5)
H8_2 H 0.9709 0.3089 0.3181
H9_2 H 0.9433 0.3423 0.4081
H10_2 H 0.9378 0.4063 0.3122
C17_2 C 0.8403(3) 0.3526(7) 0.3160(6)
H11_2 H 0.8048 0.3257 0.2948
H12_2 H 0.8436 0.4132 0.2828
H13_2 H 0.8454 0.3632 0.3862
O7_2 O 0.87583(9) 0.30138(17) 0.18489(15)
O8_2 O 0.87949(6) 0.08501(14) 0.13935(12)
S1_2 S 0.88375(6) 0.28143(10) 0.29100(8)
S2_2 S 0.86648(3) 0.02684(6) 0.22686(5)
O10_2 O 0.77221(5) 0.35712(11) 0.02902(11)
O12_2 O 0.77723(5) 0.17426(14) 0.17232(11)
C1_2 C 0.92555(8) 0.28171(17) 0.96206(17)
C2_2 C 0.97661(8) 0.31325(18) 0.92455(16)
C7_2 C 0.98790(9) 0.40952(19) 0.91298(18)
H4_2 H 0.9616 0.4554 0.9217
O1_2 O 0.89353(6) 0.34469(13) 0.98420(13)
O2_2 O 0.91680(6) 0.19170(13) 0.97199(13)
O9_2 O 0.72779(5) 0.14288(11) 0.97098(11)
O11_2 O 0.80057(5) 0.05746(12) 0.95544(12)
H3_3 H 0.4562 0.0072 0.6169
H7_3 H 0.3546 0.0159 0.5581
C15_3 C 0.25045(8) 0.06796(15) 0.55919(14)
C1_3 C 0.57445(8) 0.78171(17) 0.53794(17)
C2_3 C 0.52339(8) 0.81325(18) 0.57545(16)
C3_3 C 0.48491(9) 0.7441(2) 0.5928(2)
H1_3 H 0.4921 0.6780 0.5880
C4_3 C 0.43579(10) 0.7756(2) 0.6174(2)
H2_3 H 0.4099 0.7296 0.6279
C5_3 C 0.42389(8) 0.87343(18) 0.62696(16)
C6_3 C 0.46297(8) 0.9411(2) 0.61123(18)
C7_3 C 0.51210(9) 0.90952(19) 0.58702(18)
H4_3 H 0.5384 0.9554 0.5783
C8_3 C 0.36872(8) 0.90076(18) 0.64894(16)
C9_3 C 0.34673(8) 0.84646(18) 0.71905(16)
H5_3 H 0.3678 0.7991 0.7553
C10_3 C 0.29315(8) 0.86262(17) 0.73541(15)
C11_3 C 0.26212(8) 0.93227(18) 0.67891(15)
H6_3 H 0.2257 0.9402 0.6852
C12_3 C 0.28493(7) 0.99013(17) 0.61314(14)
C13_3 C 0.33883(8) 0.97531(17) 0.59998(15)
C14_3 C 0.27148(8) 0.80586(17) 0.81514(16)
C16_3 C 0.5602(3) 0.8410(7) 0.1628(5)
H8_3 H 0.5291 0.8089 0.1819
H9_3 H 0.5567 0.8423 0.0919
H10_3 H 0.5622 0.9063 0.1878
C17_3 C 0.6597(3) 0.8526(7) 0.1840(6)
H11_3 H 0.6952 0.8257 0.2052
H12_3 H 0.6564 0.9132 0.2172
H13_3 H 0.6546 0.8632 0.1138
C18 C 0.68028(13) 0.4333(3) 0.3259(3)
H14 H 0.7144 0.4624 0.3531
H15 H 0.6859 0.3878 0.2753
H16 H 0.6654 0.4001 0.3772
C19 C 0.57698(14) 0.4534(3) 0.2355(3)
H17 H 0.5646 0.4261 0.2926
H18 H 0.5868 0.4020 0.1942
H19 H 0.5484 0.4917 0.1990
O1_3 O 0.60647(6) 0.84469(13) 0.51580(13)
O2_3 O 0.58320(6) 0.69170(13) 0.52801(13)
O5_3 O 0.22277(5) 0.82574(14) 0.82768(11)
O6_2 O 0.30151(6) 0.74627(13) 0.86159(11)
O7_3 O 0.62417(9) 0.80138(17) 0.31511(15)
O8_3 O 0.62051(6) 0.58501(14) 0.36065(12)
S1_3 S 0.61625(6) 0.78143(10) 0.20900(8)
S2_3 S 0.63352(3) 0.52684(6) 0.27314(5)
O10_3 O 0.72779(5) 0.85712(11) 0.47098(11)
O12_3 O 0.72277(5) 0.67426(14) 0.32768(11)
O13_2 O 0.69849(6) 0.74627(13) 0.63841(11)
H3_4 H 0.5438 0.0072 0.8831
H7_4 H 0.6454 0.0159 0.9419
C15_4 C 0.74955(8) 0.06796(15) 0.94081(14)
C16_4 C 0.4398(3) 0.8410(7) 0.3372(5)
H8_4 H 0.4709 0.8089 0.3181
H9_4 H 0.4433 0.8423 0.4081
H10_4 H 0.4378 0.9063 0.3122
C17_4 C 0.3403(3) 0.8526(7) 0.3160(6)
H11_4 H 0.3048 0.8257 0.2948
H12_4 H 0.3436 0.9132 0.2828
H13_4 H 0.3454 0.8632 0.3862
C18_2 C 0.31972(13) 0.4333(3) 0.1741(3)
H14_2 H 0.2856 0.4624 0.1469
H15_2 H 0.3141 0.3878 0.2247
H16_2 H 0.3346 0.4001 0.1228
C19_2 C 0.42302(14) 0.4534(3) 0.2645(3)
H17_2 H 0.4354 0.4261 0.2074
H18_2 H 0.4132 0.4020 0.3058
H19_2 H 0.4516 0.4917 0.3010
O7_4 O 0.37583(9) 0.80138(17) 0.18489(15)
O8_4 O 0.37949(6) 0.58501(14) 0.13935(12)
S1_4 S 0.38375(6) 0.78143(10) 0.29100(8)
S2_4 S 0.36648(3) 0.52684(6) 0.22686(5)
O10_4 O 0.27221(5) 0.85712(11) 0.02902(11)
O12_4 O 0.27723(5) 0.67426(14) 0.17232(11)
C1_4 C 0.42555(8) 0.78171(17) 0.96206(17)
C2_4 C 0.47661(8) 0.81325(18) 0.92455(16)
C3_4 C 0.51509(9) 0.7441(2) 0.9072(2)
H1_4 H 0.5079 0.6780 0.9120
C4_4 C 0.56421(10) 0.7756(2) 0.8826(2)
H2_4 H 0.5901 0.7296 0.8721
C5_4 C 0.57611(8) 0.87343(18) 0.87304(16)
C6_4 C 0.53703(8) 0.9411(2) 0.88877(18)
C7_4 C 0.48790(9) 0.90952(19) 0.91298(18)
H4_4 H 0.4616 0.9554 0.9217
C8_4 C 0.63128(8) 0.90076(18) 0.85106(16)
C9_4 C 0.65327(8) 0.84646(18) 0.78095(16)
H5_4 H 0.6322 0.7991 0.7447
C10_4 C 0.70685(8) 0.86262(17) 0.76459(15)
C11_4 C 0.73788(8) 0.93227(18) 0.82109(15)
H6_4 H 0.7743 0.9402 0.8148
C12_4 C 0.71507(7) 0.99013(17) 0.88686(14)
C13_4 C 0.66117(8) 0.97531(17) 0.90002(15)
C14_4 C 0.72852(8) 0.80586(17) 0.68486(16)
O1_4 O 0.39353(6) 0.84469(13) 0.98420(13)
O2_4 O 0.41680(6) 0.69170(13) 0.97199(13)
O5_4 O 0.77723(5) 0.82574(14) 0.67232(11)
C3_5 C 0.01509(9) 0.7559(2) 0.4072(2)
H1_5 H 0.0079 0.8220 0.4120
C4_5 C 0.06421(10) 0.7244(2) 0.3826(2)
H2_5 H 0.0901 0.7704 0.3721
C5_5 C 0.07611(8) 0.62657(18) 0.37304(16)
C6_5 C 0.03703(8) 0.5589(2) 0.38877(18)
H3_5 H 0.0438 0.4928 0.3831
C8_5 C 0.13128(8) 0.59924(18) 0.35106(16)
C9_5 C 0.15327(8) 0.65354(18) 0.28095(16)
H5_5 H 0.1322 0.7009 0.2447
C10_5 C 0.20685(8) 0.63738(17) 0.26459(15)
C11_5 C 0.23788(8) 0.56773(18) 0.32109(15)
H6_5 H 0.2743 0.5598 0.3148
C12_5 C 0.21507(7) 0.50987(17) 0.38686(14)
C13_5 C 0.16117(8) 0.52469(17) 0.40002(15)
H7_5 H 0.1454 0.4841 0.4419
C14_5 C 0.22852(8) 0.69414(17) 0.18486(16)
C15_5 C 0.24955(8) 0.43204(15) 0.44081(14)
O4_3 O 0.30057(5) 0.44254(12) 0.45544(12)
O6_3 O 0.19849(6) 0.75373(13) 0.13841(11)
C1_5 C 0.92555(8) 0.71829(17) 0.46206(17)
C2_5 C 0.97661(8) 0.68675(18) 0.42455(16)
C7_5 C 0.98790(9) 0.59048(19) 0.41298(18)
H4_5 H 0.9616 0.5446 0.4217
C16_5 C 0.9398(3) 0.6590(7) 0.8372(5)
H8_5 H 0.9709 0.6911 0.8181
H9_5 H 0.9433 0.6577 0.9081
H10_5 H 0.9378 0.5937 0.8122
C17_5 C 0.8403(3) 0.6474(7) 0.8160(6)
H11_5 H 0.8048 0.6743 0.7948
H12_5 H 0.8436 0.5868 0.7828
H13_5 H 0.8454 0.6368 0.8862
O1_5 O 0.89353(6) 0.65531(13) 0.48420(13)
O2_5 O 0.91680(6) 0.80830(13) 0.47199(13)
O7_5 O 0.87583(9) 0.69862(17) 0.68489(15)
O8_5 O 0.87949(6) 0.91499(14) 0.63935(12)
S1_5 S 0.88375(6) 0.71857(10) 0.79100(8)
S2_5 S 0.86648(3) 0.97316(6) 0.72686(5)
O11_3 O 0.80057(5) 0.94254(12) 0.45544(12)
O13_3 O 0.80151(6) 0.75373(13) 0.36159(11)
C1_6 C 0.07445(8) 0.71829(17) 0.03794(17)
C2_6 C 0.02339(8) 0.68675(18) 0.07545(16)
C7_6 C 0.01210(9) 0.59048(19) 0.08702(18)
H4_6 H 0.0384 0.5446 0.0783
O1_6 O 0.10647(6) 0.65531(13) 0.01580(13)
O2_6 O 0.08320(6) 0.80830(13) 0.02801(13)
O11_4 O 0.19943(5) 0.94254(12) 0.04456(12)
C16_6 C 0.0602(3) 0.6590(7) 0.6628(5)
H8_6 H 0.0291 0.6911 0.6819
H9_6 H 0.0567 0.6577 0.5919
H10_6 H 0.0622 0.5937 0.6878
C17_6 C 0.1597(3) 0.6474(7) 0.6840(6)
H11_6 H 0.1952 0.6743 0.7052
H12_6 H 0.1564 0.5868 0.7172
H13_6 H 0.1546 0.6368 0.6138
O7_6 O 0.12417(9) 0.69862(17) 0.81511(15)
O8_6 O 0.12051(6) 0.91499(14) 0.86065(12)
S1_6 S 0.11625(6) 0.71857(10) 0.70900(8)
S2_6 S 0.13352(3) 0.97316(6) 0.77314(5)
C3_6 C 0.98491(9) 0.7559(2) 0.0928(2)
H1_6 H 0.9921 0.8220 0.0880
C4_6 C 0.93579(10) 0.7244(2) 0.1174(2)
H2_6 H 0.9099 0.7704 0.1279
C5_6 C 0.92389(8) 0.62657(18) 0.12696(16)
C6_6 C 0.96297(8) 0.5589(2) 0.11123(18)
H3_6 H 0.9562 0.4928 0.1169
C8_6 C 0.86872(8) 0.59924(18) 0.14894(16)
C9_6 C 0.84673(8) 0.65354(18) 0.21905(16)
H5_6 H 0.8678 0.7009 0.2553
C10_6 C 0.79315(8) 0.63738(17) 0.23541(15)
C11_6 C 0.76212(8) 0.56773(18) 0.17891(15)
H6_6 H 0.7257 0.5598 0.1852
C12_6 C 0.78493(7) 0.50987(17) 0.11314(14)
C13_6 C 0.83883(8) 0.52469(17) 0.09998(15)
H7_6 H 0.8546 0.4841 0.0581
C14_6 C 0.77148(8) 0.69414(17) 0.31514(16)
C15_6 C 0.75045(8) 0.43204(15) 0.05919(14)
O4_4 O 0.69943(5) 0.44254(12) 0.04456(12)
C1_7 C 0.42555(8) 0.21829(17) 0.46206(17)
C2_7 C 0.47661(8) 0.18675(18) 0.42455(16)
C3_7 C 0.51509(9) 0.2559(2) 0.4072(2)
H1_7 H 0.5079 0.3220 0.4120
C4_7 C 0.56421(10) 0.2244(2) 0.3826(2)
H2_7 H 0.5901 0.2704 0.3721
C5_7 C 0.57611(8) 0.12657(18) 0.37304(16)
C6_7 C 0.53703(8) 0.0589(2) 0.38877(18)
C7_7 C 0.48790(9) 0.09048(19) 0.41298(18)
H4_7 H 0.4616 0.0446 0.4217
C8_7 C 0.63128(8) 0.09924(18) 0.35106(16)
C9_7 C 0.65327(8) 0.15354(18) 0.28095(16)
H5_7 H 0.6322 0.2009 0.2447
C10_7 C 0.70685(8) 0.13738(17) 0.26459(15)
C11_7 C 0.73788(8) 0.06773(18) 0.32109(15)
H6_7 H 0.7743 0.0598 0.3148
C12_7 C 0.71507(7) 0.00987(17) 0.38686(14)
C13_7 C 0.66117(8) 0.02469(17) 0.40002(15)
C14_7 C 0.72852(8) 0.19414(17) 0.18486(16)
C16_7 C 0.4398(3) 0.1590(7) 0.8372(5)
H8_7 H 0.4709 0.1911 0.8181
H9_7 H 0.4433 0.1577 0.9081
H10_7 H 0.4378 0.0937 0.8122
C17_7 C 0.3403(3) 0.1474(7) 0.8160(6)
H11_7 H 0.3048 0.1743 0.7948
H12_7 H 0.3436 0.0868 0.7828
H13_7 H 0.3454 0.1368 0.8862
C18_3 C 0.31972(13) 0.5667(3) 0.6741(3)
H14_3 H 0.2856 0.5376 0.6469
H15_3 H 0.3141 0.6122 0.7247
H16_3 H 0.3346 0.5999 0.6228
C19_3 C 0.42302(14) 0.5466(3) 0.7645(3)
H17_3 H 0.4354 0.5739 0.7074
H18_3 H 0.4132 0.5980 0.8058
H19_3 H 0.4516 0.5083 0.8010
O1_7 O 0.39353(6) 0.15531(13) 0.48420(13)
O2_7 O 0.41680(6) 0.30830(13) 0.47199(13)
O6_4 O 0.69849(6) 0.25373(13) 0.13841(11)
O7_7 O 0.37583(9) 0.19862(17) 0.68489(15)
O8_7 O 0.37949(6) 0.41499(14) 0.63935(12)
S1_7 S 0.38375(6) 0.21857(10) 0.79100(8)
S2_7 S 0.36648(3) 0.47316(6) 0.72686(5)
O13_4 O 0.30151(6) 0.25373(13) 0.36159(11)
H3_7 H 0.5438 0.9928 0.3831
H7_7 H 0.6454 0.9841 0.4419
C15_7 C 0.74955(8) 0.93204(15) 0.44081(14)
C1_8 C 0.57445(8) 0.21829(17) 0.03794(17)
C2_8 C 0.52339(8) 0.18675(18) 0.07545(16)
C3_8 C 0.48491(9) 0.2559(2) 0.0928(2)
H1_8 H 0.4921 0.3220 0.0880
C4_8 C 0.43579(10) 0.2244(2) 0.1174(2)
H2_8 H 0.4099 0.2704 0.1279
C5_8 C 0.42389(8) 0.12657(18) 0.12696(16)
C6_8 C 0.46297(8) 0.0589(2) 0.11123(18)
C7_8 C 0.51210(9) 0.09048(19) 0.08702(18)
H4_8 H 0.5384 0.0446 0.0783
C8_8 C 0.36872(8) 0.09924(18) 0.14894(16)
C9_8 C 0.34673(8) 0.15354(18) 0.21905(16)
H5_8 H 0.3678 0.2009 0.2553
C10_8 C 0.29315(8) 0.13738(17) 0.23541(15)
C11_8 C 0.26212(8) 0.06773(18) 0.17891(15)
H6_8 H 0.2257 0.0598 0.1852
C12_8 C 0.28493(7) 0.00987(17) 0.11314(14)
C13_8 C 0.33883(8) 0.02469(17) 0.09998(15)
C14_8 C 0.27148(8) 0.19414(17) 0.31514(16)
O1_8 O 0.60647(6) 0.15531(13) 0.01580(13)
O2_8 O 0.58320(6) 0.30830(13) 0.02801(13)
C16_8 C 0.5602(3) 0.1590(7) 0.6628(5)
H8_8 H 0.5291 0.1911 0.6819
H9_8 H 0.5567 0.1577 0.5919
H10_8 H 0.5622 0.0937 0.6878
C17_8 C 0.6597(3) 0.1474(7) 0.6840(6)
H11_8 H 0.6952 0.1743 0.7052
H12_8 H 0.6564 0.0868 0.7172
H13_8 H 0.6546 0.1368 0.6138
C18_4 C 0.68028(13) 0.5667(3) 0.8259(3)
H14_4 H 0.7144 0.5376 0.8531
H15_4 H 0.6859 0.6122 0.7753
H16_4 H 0.6654 0.5999 0.8772
C19_4 C 0.57698(14) 0.5466(3) 0.7355(3)
H17_4 H 0.5646 0.5739 0.7926
H18_4 H 0.5868 0.5980 0.6942
H19_4 H 0.5484 0.5083 0.6990
O7_8 O 0.62417(9) 0.19862(17) 0.81511(15)
O8_8 O 0.62051(6) 0.41499(14) 0.86065(12)
S1_8 S 0.61625(6) 0.21857(10) 0.70900(8)
S2_8 S 0.63352(3) 0.47316(6) 0.77314(5)
H3_8 H 0.4562 0.9928 0.1169
H7_8 H 0.3546 0.9841 0.0581
C15_8 C 0.25045(8) 0.93204(15) 0.05919(14)
C18_5 C 0.18028(13) 0.9333(3) 0.3259(3)
H14_5 H 0.2144 0.9624 0.3531
H15_5 H 0.1859 0.8878 0.2753
H16_5 H 0.1654 0.9001 0.3772
C19_5 C 0.07698(14) 0.9534(3) 0.2355(3)
H17_5 H 0.0646 0.9261 0.2926
H18_5 H 0.0868 0.9020 0.1942
H19_5 H 0.0484 0.9917 0.1990
C18_6 C 0.81972(13) 0.9333(3) 0.1741(3)
H14_6 H 0.7856 0.9624 0.1469
H15_6 H 0.8141 0.8878 0.2247
H16_6 H 0.8346 0.9001 0.1228
C19_6 C 0.92302(14) 0.9534(3) 0.2645(3)
H17_6 H 0.9354 0.9261 0.2074
H18_6 H 0.9132 0.9020 0.3058
H19_6 H 0.9516 0.9917 0.3010
C18_7 C 0.81972(13) 0.0667(3) 0.6741(3)
H14_7 H 0.7856 0.0376 0.6469
H15_7 H 0.8141 0.1122 0.7247
H16_7 H 0.8346 0.0999 0.6228
C19_7 C 0.92302(14) 0.0466(3) 0.7645(3)
H17_7 H 0.9354 0.0739 0.7074
H18_7 H 0.9132 0.0980 0.8058
H19_7 H 0.9516 0.0083 0.8010
C18_8 C 0.18028(13) 0.0667(3) 0.8259(3)
H14_8 H 0.2144 0.0376 0.8531
H15_8 H 0.1859 0.1122 0.7753
H16_8 H 0.1654 0.0999 0.8772
C19_8 C 0.07698(14) 0.0466(3) 0.7355(3)
H17_8 H 0.0646 0.0739 0.7926
H18_8 H 0.0868 0.0980 0.6942
H19_8 H 0.0484 0.0083 0.6990
loop_
_geom_bond_atom_site_label_1
_geom_bond_atom_site_label_2
_geom_bond_site_symmetry_1
_geom_bond_site_symmetry_2
Nd1 O1 1_555 1_555
C1 C2 1_555 1_555
C7 C2 1_555 1_555
H4 C7 1_555 1_555
C16 H8 1_555 1_555
H9 C16 1_555 1_555
H10 C16 1_555 1_555
C17 H11 1_555 1_555
H12 C17 1_555 1_555
H13 C17 1_555 1_555
O1 C1 1_555 1_555
O2 Nd1 1_555 1_555
O7 Nd1 1_555 1_555
O8 Nd1 1_555 1_555
S1 C16 1_555 1_555
O9 Nd1 1_555 1_555
O10 Nd1 1_555 1_555
O11 Nd1 1_555 1_555
O12 Nd1 1_555 1_555
O13 Nd1 1_555 1_555
C1 O2 1_555 1_555
C17 S1 1_555 1_555
O7 S1 1_555 1_555
O8 S2 1_555 1_555
C3 H1 1_555 1_555
C4 C3 1_555 1_555
H2 C4 1_555 1_555
C5 C4 1_555 1_555
C6 C5 1_555 1_555
H3 C6 1_555 1_555
C8 C5 1_555 1_555
C9 C8 1_555 1_555
H5 C9 1_555 1_555
C10 C9 1_555 1_555
C11 C10 1_555 1_555
H6 C11 1_555 1_555
C12 C11 1_555 1_555
C13 C8 1_555 1_555
H7 C13 1_555 1_555
C14 C10 1_555 1_555
C15 C12 1_555 1_555
O3 C15 1_555 1_555
O4 C15 1_555 1_555
O5 C14 1_555 1_555
O6 C14 1_555 1_555
Nd3 O3 1_555 1_555
Nd4 O3 1_555 1_555
Nd5 O5 1_555 1_555
C12 C13 1_555 1_555
O4 Nd3 1_555 1_555
C3_2 H1_2 1_555 1_555
C4_2 C3_2 1_555 1_555
H2_2 C4_2 1_555 1_555
C5_2 C4_2 1_555 1_555
C6_2 C5_2 1_555 1_555
H3_2 C6_2 1_555 1_555
C8_2 C5_2 1_555 1_555
C9_2 C8_2 1_555 1_555
H5_2 C9_2 1_555 1_555
C10_2 C9_2 1_555 1_555
C11_2 C10_2 1_555 1_555
H6_2 C11_2 1_555 1_555
C12_2 C11_2 1_555 1_555
C13_2 C8_2 1_555 1_555
H7_2 C13_2 1_555 1_555
C14_2 C10_2 1_555 1_555
C15_2 C12_2 1_555 1_555
O3_2 C15_2 1_555 1_555
O4_2 C15_2 1_555 1_555
O5_2 C14_2 1_555 1_555
O13 C14_2 1_555 1_555
Nd4_2 O3_2 1_555 1_555
Nd5_2 O5_2 1_555 1_555
C12_2 C13_2 1_555 1_555
C16_2 H8_2 1_555 1_555
H9_2 C16_2 1_555 1_555
H10_2 C16_2 1_555 1_555
C17_2 H11_2 1_555 1_555
H12_2 C17_2 1_555 1_555
H13_2 C17_2 1_555 1_555
O7_2 Nd2 1_555 1_555
O8_2 Nd2 1_555 1_555
S1_2 C16_2 1_555 1_555
O10_2 Nd2 1_555 1_555
O12_2 Nd2 1_555 1_555
C17_2 S1_2 1_555 1_555
O7_2 S1_2 1_555 1_555
O8_2 S2_2 1_555 1_555
C1_2 C2_2 1_555 1_555
C7_2 C2_2 1_555 1_555
H4_2 C7_2 1_555 1_555
O1_2 C1_2 1_555 1_555
C1_2 O2_2 1_555 1_555
O9 C15_3 1_555 1_555
O11 C15_3 1_555 1_555
Nd5_2 O9 1_555 1_555
Nd3 O1_3 1_555 1_555
C1_3 C2_3 1_555 1_555
C2_3 C3_3 1_555 1_555
C3_3 H1_3 1_555 1_555
C4_3 C3_3 1_555 1_555
H2_3 C4_3 1_555 1_555
C5_3 C4_3 1_555 1_555
C6_3 C5_3 1_555 1_555
C7_3 C2_3 1_555 1_555
H4_3 C7_3 1_555 1_555
C8_3 C5_3 1_555 1_555
C9_3 C8_3 1_555 1_555
H5_3 C9_3 1_555 1_555
C10_3 C9_3 1_555 1_555
C11_3 C10_3 1_555 1_555
H6_3 C11_3 1_555 1_555
C12_3 C11_3 1_555 1_555
C13_3 C8_3 1_555 1_555
C14_3 C10_3 1_555 1_555
C16_3 H8_3 1_555 1_555
H9_3 C16_3 1_555 1_555
H10_3 C16_3 1_555 1_555
C17_3 H11_3 1_555 1_555
H12_3 C17_3 1_555 1_555
H13_3 C17_3 1_555 1_555
C18 H14 1_555 1_555
H15 C18 1_555 1_555
H16 C18 1_555 1_555
C19 H17 1_555 1_555
H18 C19 1_555 1_555
H19 C19 1_555 1_555
O1_3 C1_3 1_555 1_555
O2_3 Nd3 1_555 1_555
O5_3 C14_3 1_555 1_555
O6_2 C14_3 1_555 1_555
O7_3 Nd3 1_555 1_555
O8_3 Nd3 1_555 1_555
S1_3 C16_3 1_555 1_555
S2_3 C18 1_555 1_555
Nd4_2 O5_3 1_555 1_555
O10_3 Nd3 1_555 1_555
O12_3 Nd3 1_555 1_555
O13_2 Nd3 1_555 1_555
C1_3 O2_3 1_555 1_555
C6_3 C7_3 1_555 1_555
C12_3 C13_3 1_555 1_555
C17_3 S1_3 1_555 1_555
C19 S2_3 1_555 1_555
O7_3 S1_3 1_555 1_555
O8_3 S2_3 1_555 1_555
O9_2 C15_4 1_555 1_555
O11_2 C15_4 1_555 1_555
Nd5 O9_2 1_555 1_555
C16_4 H8_4 1_555 1_555
H9_4 C16_4 1_555 1_555
H10_4 C16_4 1_555 1_555
C17_4 H11_4 1_555 1_555
H12_4 C17_4 1_555 1_555
H13_4 C17_4 1_555 1_555
C18_2 H14_2 1_555 1_555
H15_2 C18_2 1_555 1_555
H16_2 C18_2 1_555 1_555
C19_2 H17_2 1_555 1_555
H18_2 C19_2 1_555 1_555
H19_2 C19_2 1_555 1_555
O7_4 Nd3_2 1_555 1_555
O8_4 Nd3_2 1_555 1_555
S1_4 C16_4 1_555 1_555
S2_4 C18_2 1_555 1_555
O10_4 Nd3_2 1_555 1_555
O12_4 Nd3_2 1_555 1_555
C17_4 S1_4 1_555 1_555
C19_2 S2_4 1_555 1_555
O7_4 S1_4 1_555 1_555
O8_4 S2_4 1_555 1_555
C1_4 C2_4 1_555 1_555
C2_4 C3_4 1_555 1_555
C3_4 H1_4 1_555 1_555
C4_4 C3_4 1_555 1_555
H2_4 C4_4 1_555 1_555
C5_4 C4_4 1_555 1_555
C6_4 C5_4 1_555 1_555
C7_4 C2_4 1_555 1_555
H4_4 C7_4 1_555 1_555
C8_4 C5_4 1_555 1_555
C9_4 C8_4 1_555 1_555
H5_4 C9_4 1_555 1_555
C10_4 C9_4 1_555 1_555
C11_4 C10_4 1_555 1_555
H6_4 C11_4 1_555 1_555
C12_4 C11_4 1_555 1_555
C13_4 C8_4 1_555 1_555
C14_4 C10_4 1_555 1_555
O1_4 C1_4 1_555 1_555
O5_4 C14_4 1_555 1_555
O13_2 C14_4 1_555 1_555
Nd4 O5_4 1_555 1_555
C1_4 O2_4 1_555 1_555
C6_4 C7_4 1_555 1_555
C12_4 C13_4 1_555 1_555
C3_5 H1_5 1_555 1_555
C4_5 C3_5 1_555 1_555
H2_5 C4_5 1_555 1_555
C5_5 C4_5 1_555 1_555
C6_5 C5_5 1_555 1_555
H3_5 C6_5 1_555 1_555
C8_5 C5_5 1_555 1_555
C9_5 C8_5 1_555 1_555
H5_5 C9_5 1_555 1_555
C10_5 C9_5 1_555 1_555
C11_5 C10_5 1_555 1_555
H6_5 C11_5 1_555 1_555
C12_5 C11_5 1_555 1_555
C13_5 C8_5 1_555 1_555
H7_5 C13_5 1_555 1_555
C14_5 C10_5 1_555 1_555
C15_5 C12_5 1_555 1_555
O10 C15_5 1_555 1_555
O4_3 C15_5 1_555 1_555
O12_4 C14_5 1_555 1_555
O6_3 C14_5 1_555 1_555
Nd5_2 O10 1_555 1_555
C12_5 C13_5 1_555 1_555
O4_3 Nd5_2 1_555 1_555
Nd4 O1_5 1_555 1_555
C1_5 C2_5 1_555 1_555
C7_5 C2_5 1_555 1_555
H4_5 C7_5 1_555 1_555
C16_5 H8_5 1_555 1_555
H9_5 C16_5 1_555 1_555
H10_5 C16_5 1_555 1_555
C17_5 H11_5 1_555 1_555
H12_5 C17_5 1_555 1_555
H13_5 C17_5 1_555 1_555
O1_5 C1_5 1_555 1_555
O2_5 Nd4 1_555 1_555
O7_5 Nd4 1_555 1_555
O8_5 Nd4 1_555 1_555
S1_5 C16_5 1_555 1_555
O10_3 Nd4 1_555 1_555
O11_3 Nd4 1_555 1_555
O13_3 Nd4 1_555 1_555
C1_5 O2_5 1_555 1_555
C17_5 S1_5 1_555 1_555
O7_5 S1_5 1_555 1_555
O8_5 S2_5 1_555 1_555
C1_6 C2_6 1_555 1_555
C7_6 C2_6 1_555 1_555
H4_6 C7_6 1_555 1_555
O1_6 C1_6 1_555 1_555
C1_6 O2_6 1_555 1_555
C16_6 H8_6 1_555 1_555
H9_6 C16_6 1_555 1_555
H10_6 C16_6 1_555 1_555
C17_6 H11_6 1_555 1_555
H12_6 C17_6 1_555 1_555
H13_6 C17_6 1_555 1_555
O7_6 Nd4_2 1_555 1_555
O8_6 Nd4_2 1_555 1_555
S1_6 C16_6 1_555 1_555
C17_6 S1_6 1_555 1_555
O7_6 S1_6 1_555 1_555
O8_6 S2_6 1_555 1_555
C3_6 H1_6 1_555 1_555
C4_6 C3_6 1_555 1_555
H2_6 C4_6 1_555 1_555
C5_6 C4_6 1_555 1_555
C6_6 C5_6 1_555 1_555
H3_6 C6_6 1_555 1_555
C8_6 C5_6 1_555 1_555
C9_6 C8_6 1_555 1_555
H5_6 C9_6 1_555 1_555
C10_6 C9_6 1_555 1_555
C11_6 C10_6 1_555 1_555
H6_6 C11_6 1_555 1_555
C12_6 C11_6 1_555 1_555
C13_6 C8_6 1_555 1_555
H7_6 C13_6 1_555 1_555
C14_6 C10_6 1_555 1_555
C15_6 C12_6 1_555 1_555
O10_2 C15_6 1_555 1_555
O4_4 C15_6 1_555 1_555
O12_3 C14_6 1_555 1_555
O13_3 C14_6 1_555 1_555
C12_6 C13_6 1_555 1_555
Nd5_2 O1_7 1_555 1_555
C1_7 C2_7 1_555 1_555
C2_7 C3_7 1_555 1_555
C3_7 H1_7 1_555 1_555
C4_7 C3_7 1_555 1_555
H2_7 C4_7 1_555 1_555
C5_7 C4_7 1_555 1_555
C6_7 C5_7 1_555 1_555
C7_7 C2_7 1_555 1_555
H4_7 C7_7 1_555 1_555
C8_7 C5_7 1_555 1_555
C9_7 C8_7 1_555 1_555
H5_7 C9_7 1_555 1_555
C10_7 C9_7 1_555 1_555
C11_7 C10_7 1_555 1_555
H6_7 C11_7 1_555 1_555
C12_7 C11_7 1_555 1_555
C13_7 C8_7 1_555 1_555
C14_7 C10_7 1_555 1_555
C16_7 H8_7 1_555 1_555
H9_7 C16_7 1_555 1_555
H10_7 C16_7 1_555 1_555
C17_7 H11_7 1_555 1_555
H12_7 C17_7 1_555 1_555
H13_7 C17_7 1_555 1_555
C18_3 H14_3 1_555 1_555
H15_3 C18_3 1_555 1_555
H16_3 C18_3 1_555 1_555
C19_3 H17_3 1_555 1_555
H18_3 C19_3 1_555 1_555
H19_3 C19_3 1_555 1_555
O1_7 C1_7 1_555 1_555
O2_7 Nd5_2 1_555 1_555
O12_2 C14_7 1_555 1_555
O6_4 C14_7 1_555 1_555
O7_7 Nd5_2 1_555 1_555
O8_7 Nd5_2 1_555 1_555
S1_7 C16_7 1_555 1_555
S2_7 C18_3 1_555 1_555
O13_4 Nd5_2 1_555 1_555
C1_7 O2_7 1_555 1_555
C6_7 C7_7 1_555 1_555
C12_7 C13_7 1_555 1_555
C17_7 S1_7 1_555 1_555
C19_3 S2_7 1_555 1_555
O7_7 S1_7 1_555 1_555
O8_7 S2_7 1_555 1_555
O10_3 C15_7 1_555 1_555
O11_3 C15_7 1_555 1_555
C1_8 C2_8 1_555 1_555
C2_8 C3_8 1_555 1_555
C3_8 H1_8 1_555 1_555
C4_8 C3_8 1_555 1_555
H2_8 C4_8 1_555 1_555
C5_8 C4_8 1_555 1_555
C6_8 C5_8 1_555 1_555
C7_8 C2_8 1_555 1_555
H4_8 C7_8 1_555 1_555
C8_8 C5_8 1_555 1_555
C9_8 C8_8 1_555 1_555
H5_8 C9_8 1_555 1_555
C10_8 C9_8 1_555 1_555
C11_8 C10_8 1_555 1_555
H6_8 C11_8 1_555 1_555
C12_8 C11_8 1_555 1_555
C13_8 C8_8 1_555 1_555
C14_8 C10_8 1_555 1_555
O1_8 C1_8 1_555 1_555
O12 C14_8 1_555 1_555
O13_4 C14_8 1_555 1_555
C1_8 O2_8 1_555 1_555
C6_8 C7_8 1_555 1_555
C12_8 C13_8 1_555 1_555
C16_8 H8_8 1_555 1_555
H9_8 C16_8 1_555 1_555
H10_8 C16_8 1_555 1_555
C17_8 H11_8 1_555 1_555
H12_8 C17_8 1_555 1_555
H13_8 C17_8 1_555 1_555
C18_4 H14_4 1_555 1_555
H15_4 C18_4 1_555 1_555
H16_4 C18_4 1_555 1_555
C19_4 H17_4 1_555 1_555
H18_4 C19_4 1_555 1_555
H19_4 C19_4 1_555 1_555
O7_8 Nd5 1_555 1_555
O8_8 Nd5 1_555 1_555
S1_8 C16_8 1_555 1_555
S2_8 C18_4 1_555 1_555
C17_8 S1_8 1_555 1_555
C19_4 S2_8 1_555 1_555
O7_8 S1_8 1_555 1_555
O8_8 S2_8 1_555 1_555
O10_4 C15_8 1_555 1_555
O11_4 C15_8 1_555 1_555
C18_5 H14_5 1_555 1_555
H15_5 C18_5 1_555 1_555
H16_5 C18_5 1_555 1_555
C19_5 H17_5 1_555 1_555
H18_5 C19_5 1_555 1_555
H19_5 C19_5 1_555 1_555
C18_6 H14_6 1_555 1_555
H15_6 C18_6 1_555 1_555
H16_6 C18_6 1_555 1_555
C19_6 H17_6 1_555 1_555
H18_6 C19_6 1_555 1_555
H19_6 C19_6 1_555 1_555
C18_7 H14_7 1_555 1_555
H15_7 C18_7 1_555 1_555
H16_7 C18_7 1_555 1_555
C19_7 H17_7 1_555 1_555
H18_7 C19_7 1_555 1_555
H19_7 C19_7 1_555 1_555
C18_8 H14_8 1_555 1_555
H15_8 C18_8 1_555 1_555
H16_8 C18_8 1_555 1_555
C19_8 H17_8 1_555 1_555
H18_8 C19_8 1_555 1_555
H19_8 C19_8 1_555 1_555

#END
