
###############################################################################
#
# This file contains modified crystal structure data generated from the
# MOF subset of the Cambridge Structural Database (CSD) v543 
# hosted by the Cambridge Crystallographic Data Centre (CCDC).
#
# This work is licensed under the Creative Commons
# Attribution-NonCommercial-ShareAlike 4.0 International License.
# To view a copy of this license, visit
# http://creativecommons.org/licenses/by-nc-sa/4.0/
# or send a letter to
# Creative Commons, PO Box 1866, Mountain View, CA 94042, USA.
#
# CIF created using the CSD Python API on 29 September 2022
# The structure has been converted into the P1 space group
# The structure has a 3D framework
# The original CSD entry FOKYEL is in the triclinic crystal system
# The framework has been calculated to contain at least 10.0% void space
# The void calculation uses a probe of radius 1.32A, grid spacing 0.4
#
###############################################################################

data_FOKYEL
_chemical_formula_moiety         '(C126 H100 N6 O41 Pr6)n'
_symmetry_cell_setting           triclinic
_symmetry_space_group_name_H-M   'P 1'
_symmetry_Int_Tables_number      1
_space_group_name_Hall           'P 1'
loop_
_symmetry_equiv_pos_site_id
_symmetry_equiv_pos_as_xyz
1 x,y,z
_cell_length_a                   13.392(3)
_cell_length_b                   13.872(3)
_cell_length_c                   22.211(5)
_cell_angle_alpha                74.977(4)
_cell_angle_beta                 89.016(4)
_cell_angle_gamma                76.276(4)
_cell_volume                     3867.1
loop_
_atom_site_label
_atom_site_type_symbol
_atom_site_fract_x
_atom_site_fract_y
_atom_site_fract_z
_atom_site_U_iso_or_equiv
_atom_site_thermal_displace_type
H8 H 0.0945 0.3046 0.0150 0.0290 Uiso
O23 O 0.0972(10) 0.6097(10) 0.1767(6) 0.0232 Uani
O24 O 0.1650(9) 0.4405(9) 0.1876(6) 0.0217 Uani
C64 C 0.1092(14) 0.5290(13) 0.1584(9) 0.0204 Uani
C65 C 0.0591(15) 0.5349(14) 0.0988(9) 0.0228 Uani
C66 C 0.0786(15) 0.4492(14) 0.0747(9) 0.0236 Uani
H51 H 0.1230 0.3862 0.0971 0.0280 Uiso
C67 C 0.0322(14) 0.4571(13) 0.0175(8) 0.0201 Uani
C81 C 0.0373(15) 0.0430(15) 0.1002(9) 0.0281 Uani
H59 H 0.0409 0.0757 0.1324 0.0340 Uiso
Pr10 Pr 0.21734(6) 0.62698(6) 0.25815(4) 0.0113 Uani
Pr14 Pr 0.18774(7) 0.30561(7) 0.27601(4) 0.0136 Uani
C16 C 0.0510(15) 0.3677(14) 0.9921(9) 0.0242 Uani
C17 C 0.0073(15) 0.3734(14) 0.9365(9) 0.0243 Uani
H9 H 0.0216 0.3143 0.9208 0.0290 Uiso
C31 C 0.0792(13) 0.5312(13) 0.5936(8) 0.0187 Uani
H18 H 0.1214 0.5456 0.6225 0.0230 Uiso
C32 C 0.1137(13) 0.5250(13) 0.5357(8) 0.0208 Uani
H19 H 0.1813 0.5317 0.5253 0.0250 Uiso
O25 O 0.1535(9) 0.4783(9) 0.3163(6) 0.0191 Uani
O26 O 0.0199(9) 0.4157(9) 0.3008(6) 0.0172 Uani
C70 C 0.0652(13) 0.4628(13) 0.3304(9) 0.0194 Uani
C71 C 0.0207(13) 0.4843(13) 0.3900(8) 0.0178 Uani
C74 C 0.0490(13) 0.5090(13) 0.4917(8) 0.0182 Uani
C75 C 0.0807(13) 0.5046(13) 0.4318(8) 0.0191 Uani
H56 H 0.1463 0.5162 0.4199 0.0230 Uiso
O36 O 0.0438(9) 0.7072(10) 0.2788(6) 0.0241 Uani
O39 O 0.0503(9) 0.2356(8) 0.2603(6) 0.0210 Uani
O40 O 0.0468(9) 0.0744(9) 0.2681(6) 0.0222 Uani
C117 C 0.0134(12) 0.1610(10) 0.2733(8) 0.0175 Uani
Pr20 Pr 0.13146(6) 0.90194(6) 0.32489(4) 0.0109 Uani
O50 O 0.0145(9) 0.1660(9) 0.6728(6) 0.0244 Uani
O27 O 0.1817(10) 0.7826(10) 0.1742(6) 0.0263 Uani
O28 O 0.1041(11) 0.9173(11) 0.2189(7) 0.0340 Uani
C76 C 0.1258(14) 0.8663(14) 0.1725(9) 0.0235 Uani
C77 C 0.0775(15) 0.9351(15) 0.1102(9) 0.0268 Uani
C78 C 0.0644(15) 0.8898(15) 0.0625(9) 0.0273 Uani
H57 H 0.0890 0.8175 0.0697 0.0330 Uiso
C79 C 0.0178(15) 0.9454(14) 0.0060(9) 0.0237 Uani
N3 N 0.0624(12) 0.8876(12) 0.5639(7) 0.0242 Uani
C40 C 0.0069(16) 0.9016(15) 0.9577(9) 0.0270 Uani
H22 H 0.0314 0.8292 0.9650 0.0330 Uiso
C62 C 0.1545(15) 0.9216(16) 0.5501(9) 0.0261 Uani
H45 H 0.1443 0.9916 0.5545 0.0390 Uiso
H46 H 0.1721 0.9208 0.5071 0.0390 Uiso
H47 H 0.2106 0.8756 0.5790 0.0390 Uiso
C63 C 0.0623(17) 0.7862(15) 0.5547(10) 0.0329 Uani
H48 H 0.1183 0.7338 0.5805 0.0490 Uiso
H49 H 0.0722 0.7878 0.5106 0.0490 Uiso
O16 O 0.7708(10) 0.0069(10) 0.6302(6) 0.0261 Uani
C50 C 0.6274(16) 0.0818(17) 0.5394(10) 0.0343 Uani
H27 H 0.6709 0.1245 0.5445 0.0410 Uiso
C51 C 0.5572(17) 0.1078(18) 0.4914(11) 0.0359 Uani
H28 H 0.5451 0.1750 0.4641 0.0440 Uiso
C59 C 0.670(2) 0.0047(17) 0.8632(12) 0.0424 Uani
H38 H 0.7135 0.0398 0.8334 0.0640 Uiso
H39 H 0.6845 0.0110 0.9050 0.0640 Uiso
H40 H 0.5977 0.0361 0.8508 0.0640 Uiso
O31 O 0.2829(10) 0.1314(10) 0.3183(6) 0.0239 Uani
C88 C 0.2874(14) 0.0534(14) 0.3636(9) 0.0248 Uani
C89 C 0.3697(15) 0.0258(16) 0.4140(10) 0.0290 Uani
C92 C 0.5053(16) 0.0449(16) 0.4809(10) 0.0309 Uani
C93 C 0.4309(15) 0.0821(16) 0.4204(10) 0.0307 Uani
H65 H 0.4313 0.1440 0.3897 0.0370 Uiso
C124 C 0.0164(15) 0.0596(14) 0.4144(9) 0.0245 Uani
H94 H 0.0756 0.0867 0.4065 0.0300 Uiso
H100 H 0.0036 0.2304 0.4333 0.0490 Uiso
Pr17 Pr 0.86854(6) 0.09806(6) 0.67511(4) 0.0109 Uani
C68 C 0.9490(15) 0.6323(14) 0.0079(9) 0.0242 Uani
C69 C 0.9927(15) 0.6266(14) 0.0635(9) 0.0243 Uani
H53 H 0.9784 0.6857 0.0792 0.0290 Uiso
C80 C 0.9931(16) 0.0984(15) 0.0423(9) 0.0270 Uani
H58 H 0.9686 0.1708 0.0350 0.0330 Uiso
Pr1 Pr 0.78266(6) 0.37302(6) 0.74185(4) 0.0113 Uani
O1 O 0.6367(9) 0.5177(9) 0.6965(6) 0.0223 Uani
N1 N 0.7402(12) 0.7394(12) 0.5111(7) 0.0245 Uani
C1 C 0.6020(14) 0.6017(14) 0.7057(9) 0.0214 Uani
Pr2 Pr 0.81226(7) 0.69439(7) 0.72399(4) 0.0136 Uani
O2 O 0.6436(9) 0.6664(9) 0.7136(6) 0.0216 Uani
C2 C 0.4848(13) 0.6335(13) 0.7075(8) 0.0180 Uani
N2 N 0.6944(14) 0.8928(12) 0.8639(8) 0.0306 Uani
O3 O 0.9028(10) 0.3903(10) 0.8233(6) 0.0232 Uani
C3 C 0.4231(13) 0.5620(13) 0.7062(8) 0.0181 Uani
H1 H 0.4564 0.4940 0.7050 0.0220 Uiso
O4 O 0.8350(9) 0.5595(9) 0.8124(6) 0.0217 Uani
C4 C 0.3163(12) 0.5893(13) 0.7066(8) 0.0159 Uani
H2 H 0.2776 0.5416 0.7033 0.0190 Uiso
O5 O 0.6360(9) 0.2891(10) 0.7415(6) 0.0243 Uani
C5 C 0.2658(12) 0.6878(13) 0.7120(8) 0.0165 Uani
O6 O 0.8465(9) 0.5217(9) 0.6837(6) 0.0191 Uani
C6 C 0.1580(12) 0.7157(12) 0.7161(8) 0.0154 Uani
H3 H 0.1180 0.6688 0.7135 0.0190 Uiso
C7 C 0.1101(13) 0.8127(13) 0.7240(8) 0.0183 Uani
C8 C 0.1677(13) 0.8855(13) 0.7258(8) 0.0190 Uani
H4 H 0.1335 0.9528 0.7278 0.0230 Uiso
O9 O 0.8183(10) 0.2174(10) 0.8258(6) 0.0263 Uani
C9 C 0.2736(13) 0.8581(13) 0.7247(9) 0.0193 Uani
H5 H 0.3124 0.9050 0.7295 0.0240 Uiso
C10 C 0.3250(13) 0.7614(13) 0.7164(8) 0.0185 Uani
O10 O 0.8959(11) 0.0827(11) 0.7811(7) 0.0340 Uani
C11 C 0.4343(13) 0.7313(13) 0.7132(8) 0.0194 Uani
H6 H 0.4740 0.7790 0.7149 0.0230 Uiso
O11 O 0.9801(9) 0.5843(9) 0.6992(6) 0.0172 Uani
C12 C 0.8908(14) 0.4710(13) 0.8416(9) 0.0204 Uani
O12 O 0.7756(9) 0.3300(10) 0.6412(6) 0.0218 Uani
C13 C 0.9409(15) 0.4651(14) 0.9012(9) 0.0228 Uani
O13 O 0.8028(9) 0.2279(10) 0.5779(6) 0.0230 Uani
C14 C 0.9214(15) 0.5508(14) 0.9253(9) 0.0236 Uani
H7 H 0.8770 0.6138 0.9029 0.0280 Uiso
O14 O 0.7171(10) 0.8686(10) 0.6817(6) 0.0239 Uani
C15 C 0.9678(14) 0.5429(13) 0.9825(8) 0.0201 Uani
O15 O 0.6986(9) 0.1497(9) 0.7109(6) 0.0216 Uani
C18 C 0.6275(13) 0.2264(14) 0.7287(9) 0.0208 Uani
O19 O 0.8055(9) 0.7377(9) 0.6087(6) 0.0207 Uani
C19 C 0.5202(13) 0.2026(14) 0.7187(8) 0.0196 Uani
C20 C 0.4396(12) 0.2678(13) 0.7395(8) 0.0183 Uani
H10 H 0.4522 0.3182 0.7583 0.0220 Uiso
O20 O 0.7445(10) 0.7680(10) 0.8127(6) 0.0257 Uani
O21 O 0.9807(10) 0.0251(10) 0.5967(6) 0.0253 Uani
C21 C 0.3338(13) 0.2569(13) 0.7316(8) 0.0184 Uani
C22 C 0.2514(12) 0.3235(13) 0.7509(8) 0.0173 Uani
H11 H 0.2633 0.3738 0.7700 0.0210 Uiso
O22 O 0.6774(10) 0.4213(10) 0.8260(7) 0.0282 Uani
H12 H 0.6128 0.4270 0.8169 0.0420 Uiso
H13 H 0.6966 0.3738 0.8608 0.0420 Uiso
C23 C 0.1525(13) 0.3147(13) 0.7417(8) 0.0189 Uani
H14 H 0.0958 0.3586 0.7551 0.0230 Uiso
C24 C 0.1356(13) 0.2402(13) 0.7121(8) 0.0180 Uani
C25 C 0.2175(12) 0.1742(13) 0.6934(8) 0.0176 Uani
H15 H 0.2052 0.1236 0.6746 0.0210 Uiso
C26 C 0.3189(13) 0.1820(13) 0.7022(8) 0.0184 Uani
C27 C 0.4052(13) 0.1153(13) 0.6848(8) 0.0197 Uani
H16 H 0.3948 0.0622 0.6676 0.0230 Uiso
C28 C 0.5015(13) 0.1253(14) 0.6920(8) 0.0199 Uani
H17 H 0.5578 0.0802 0.6791 0.0240 Uiso
C29 C 0.9348(13) 0.5372(13) 0.6696(9) 0.0194 Uani
C30 C 0.9793(13) 0.5157(13) 0.6100(8) 0.0178 Uani
C33 C 0.9510(13) 0.4910(13) 0.5083(8) 0.0182 Uani
C34 C 0.9193(13) 0.4954(13) 0.5682(8) 0.0191 Uani
H20 H 0.8537 0.4838 0.5801 0.0230 Uiso
C35 C 0.0242(13) 0.2377(11) 0.6934(8) 0.0223 Uani
C36 C 0.8742(14) 0.1337(14) 0.8275(9) 0.0235 Uani
C37 C 0.9225(15) 0.0649(15) 0.8898(9) 0.0268 Uani
C38 C 0.9356(15) 0.1102(15) 0.9375(9) 0.0273 Uani
H21 H 0.9110 0.1825 0.9303 0.0330 Uiso
C39 C 0.9822(15) 0.0546(14) 0.9940(9) 0.0237 Uani
C42 C 0.7527(13) 0.3091(13) 0.5919(8) 0.0188 Uani
C43 C 0.6633(13) 0.3745(13) 0.5511(8) 0.0177 Uani
C44 C 0.5942(13) 0.4526(13) 0.5671(8) 0.0193 Uani
H24 H 0.6050 0.4666 0.6058 0.0230 Uiso
C45 C 0.5079(13) 0.5128(14) 0.5287(8) 0.0185 Uani
C46 C 0.5666(14) 0.4084(14) 0.4547(8) 0.0222 Uani
H25 H 0.5589 0.3945 0.4155 0.0260 Uiso
C47 C 0.6483(14) 0.3528(14) 0.4934(8) 0.0223 Uani
H26 H 0.6961 0.2987 0.4820 0.0270 Uiso
C48 C 0.7126(14) 0.9466(14) 0.6364(9) 0.0248 Uani
C49 C 0.6303(15) 0.9742(16) 0.5860(10) 0.0290 Uani
C52 C 0.4947(16) 0.9551(16) 0.5191(10) 0.0309 Uani
C53 C 0.5691(15) 0.9179(16) 0.5796(10) 0.0307 Uani
H29 H 0.5687 0.8560 0.6103 0.0370 Uiso
C55 C 0.7519(14) 0.7080(14) 0.5715(9) 0.0224 Uani
H30 H 0.7170 0.6569 0.5912 0.0270 Uiso
C56 C 0.6752(17) 0.7012(17) 0.4748(10) 0.0335 Uani
H31 H 0.6639 0.6355 0.4998 0.0500 Uiso
H32 H 0.7094 0.6911 0.4367 0.0500 Uiso
H33 H 0.6088 0.7513 0.4635 0.0500 Uiso
C57 C 0.7844(18) 0.8207(17) 0.4761(10) 0.0356 Uani
H34 H 0.7293 0.8814 0.4574 0.0540 Uiso
H35 H 0.8250 0.7978 0.4431 0.0540 Uiso
H36 H 0.8291 0.8381 0.5040 0.0540 Uiso
C58 C 0.7359(15) 0.8618(15) 0.8153(9) 0.0257 Uani
H37 H 0.7595 0.9087 0.7823 0.0310 Uiso
C60 C 0.671(2) 0.822(2) 0.9211(14) 0.0584 Uani
H41 H 0.6746 0.7550 0.9137 0.0880 Uiso
H42 H 0.6011 0.8503 0.9330 0.0880 Uiso
H43 H 0.7204 0.8151 0.9549 0.0880 Uiso
H52 H 0.9055 0.6954 0.9850 0.0290 Uiso
C72 C 0.9208(13) 0.4688(13) 0.4064(8) 0.0187 Uani
H54 H 0.8786 0.4544 0.3775 0.0230 Uiso
C73 C 0.8863(13) 0.4750(13) 0.4643(8) 0.0208 Uani
H55 H 0.8187 0.4683 0.4747 0.0250 Uiso
O29 O 0.2244(9) 0.6700(10) 0.3588(6) 0.0218 Uani
O30 O 0.1972(9) 0.7721(10) 0.4221(6) 0.0230 Uani
C82 C 0.2473(13) 0.6909(13) 0.4081(8) 0.0188 Uani
C83 C 0.3367(13) 0.6255(13) 0.4489(8) 0.0177 Uani
C84 C 0.4058(13) 0.5474(13) 0.4329(8) 0.0193 Uani
H60 H 0.3950 0.5334 0.3942 0.0230 Uiso
C85 C 0.4921(13) 0.4872(14) 0.4713(8) 0.0185 Uani
C86 C 0.4334(14) 0.5916(14) 0.5453(8) 0.0222 Uani
H61 H 0.4411 0.6055 0.5845 0.0260 Uiso
C87 C 0.3517(14) 0.6472(14) 0.5066(8) 0.0223 Uani
H62 H 0.3039 0.7013 0.5180 0.0270 Uiso
O32 O 0.2292(10) 0.9931(10) 0.3698(6) 0.0261 Uani
C90 C 0.3726(16) 0.9182(17) 0.4606(10) 0.0343 Uani
H63 H 0.3291 0.8755 0.4555 0.0410 Uiso
C91 C 0.4428(17) 0.8922(18) 0.5086(11) 0.0359 Uani
H64 H 0.4549 0.8250 0.5359 0.0440 Uiso
O33 O 0.3633(9) 0.4823(9) 0.3035(6) 0.0223 Uani
N4 N 0.2598(12) 0.2606(12) 0.4889(7) 0.0245 Uani
C94 C 0.3980(14) 0.3983(14) 0.2943(9) 0.0214 Uani
O34 O 0.3564(9) 0.3336(9) 0.2864(6) 0.0216 Uani
C95 C 0.5152(13) 0.3665(13) 0.2925(8) 0.0180 Uani
N5 N 0.3056(14) 0.1072(12) 0.1361(8) 0.0306 Uani
C96 C 0.5769(13) 0.4380(13) 0.2938(8) 0.0181 Uani
H66 H 0.5436 0.5060 0.2950 0.0220 Uiso
C97 C 0.6837(12) 0.4107(13) 0.2934(8) 0.0159 Uani
H67 H 0.7224 0.4584 0.2967 0.0190 Uiso
O35 O 0.3640(9) 0.7109(10) 0.2585(6) 0.0243 Uani
C98 C 0.7342(12) 0.3122(13) 0.2880(8) 0.0165 Uani
C99 C 0.8420(12) 0.2843(12) 0.2839(8) 0.0154 Uani
H68 H 0.8820 0.3312 0.2865 0.0190 Uiso
C100 C 0.8899(13) 0.1873(13) 0.2760(8) 0.0183 Uani
O37 O 0.9855(9) 0.8340(9) 0.3272(6) 0.0244 Uani
C101 C 0.8323(13) 0.1145(13) 0.2742(8) 0.0190 Uani
H69 H 0.8665 0.0472 0.2722 0.0230 Uiso
C102 C 0.7264(13) 0.1419(13) 0.2753(9) 0.0193 Uani
H70 H 0.6876 0.0950 0.2705 0.0240 Uiso
C103 C 0.6750(13) 0.2386(13) 0.2836(8) 0.0185 Uani
C104 C 0.5657(13) 0.2687(13) 0.2868(8) 0.0194 Uani
H71 H 0.5260 0.2210 0.2851 0.0230 Uiso
O38 O 0.3014(9) 0.8503(9) 0.2891(6) 0.0216 Uani
C105 C 0.3725(13) 0.7736(14) 0.2713(9) 0.0208 Uani
O41 O 0.1945(9) 0.2623(9) 0.3913(6) 0.0207 Uani
C106 C 0.4798(13) 0.7974(14) 0.2813(8) 0.0196 Uani
C107 C 0.5604(12) 0.7322(13) 0.2605(8) 0.0183 Uani
H72 H 0.5478 0.6818 0.2417 0.0220 Uiso
O42 O 0.2555(10) 0.2320(10) 0.1873(6) 0.0257 Uani
O43 O 0.0193(10) 0.9749(10) 0.4033(6) 0.0253 Uani
C108 C 0.6662(13) 0.7431(13) 0.2684(8) 0.0184 Uani
C109 C 0.7486(12) 0.6765(13) 0.2491(8) 0.0173 Uani
H73 H 0.7367 0.6262 0.2300 0.0210 Uiso
O44 O 0.3226(10) 0.5787(10) 0.1740(7) 0.0282 Uani
H74 H 0.3872 0.5730 0.1831 0.0420 Uiso
H75 H 0.3034 0.6262 0.1392 0.0420 Uiso
C110 C 0.8475(13) 0.6853(13) 0.2583(8) 0.0189 Uani
H76 H 0.9042 0.6414 0.2449 0.0230 Uiso
C111 C 0.8644(13) 0.7598(13) 0.2879(8) 0.0180 Uani
C112 C 0.7825(12) 0.8258(13) 0.3066(8) 0.0176 Uani
H77 H 0.7948 0.8764 0.3254 0.0210 Uiso
C113 C 0.6811(13) 0.8180(13) 0.2978(8) 0.0184 Uani
C114 C 0.5948(13) 0.8847(13) 0.3152(8) 0.0197 Uani
H78 H 0.6052 0.9378 0.3324 0.0230 Uiso
C115 C 0.4985(13) 0.8747(14) 0.3080(8) 0.0199 Uani
H79 H 0.4422 0.9198 0.3209 0.0240 Uiso
C116 C 0.9758(13) 0.7623(11) 0.3066(8) 0.0223 Uani
C118 C 0.2481(14) 0.2920(14) 0.4285(9) 0.0224 Uani
H80 H 0.2830 0.3431 0.4088 0.0270 Uiso
C119 C 0.3248(17) 0.2988(17) 0.5252(10) 0.0335 Uani
H81 H 0.3361 0.3645 0.5002 0.0500 Uiso
H82 H 0.2906 0.3089 0.5633 0.0500 Uiso
H83 H 0.3912 0.2487 0.5365 0.0500 Uiso
C120 C 0.2156(18) 0.1793(17) 0.5239(10) 0.0356 Uani
H84 H 0.2707 0.1186 0.5426 0.0540 Uiso
H85 H 0.1750 0.2022 0.5569 0.0540 Uiso
H86 H 0.1709 0.1619 0.4960 0.0540 Uiso
C121 C 0.2641(15) 0.1382(15) 0.1847(9) 0.0257 Uani
H87 H 0.2405 0.0913 0.2177 0.0310 Uiso
C123 C 0.329(2) 0.178(2) 0.0789(14) 0.0584 Uani
H91 H 0.3254 0.2450 0.0863 0.0880 Uiso
H92 H 0.3989 0.1497 0.0670 0.0880 Uiso
H93 H 0.2796 0.1849 0.0451 0.0880 Uiso
O48 O 0.9562(9) 0.2928(10) 0.7212(6) 0.0241 Uani
O57 O 0.9497(9) 0.7644(8) 0.7397(6) 0.0210 Uani
C41 C 0.9627(15) 0.9570(15) 0.8998(9) 0.0281 Uani
H23 H 0.9591 0.9243 0.8676 0.0340 Uiso
C61 C 0.9836(15) 0.9404(14) 0.5856(9) 0.0245 Uani
H44 H 0.9244 0.9133 0.5935 0.0300 Uiso
H50 H 0.9964 0.7696 0.5667 0.0490 Uiso
C122 C 0.330(2) 0.9953(17) 0.1368(12) 0.0424 Uani
H88 H 0.2865 0.9602 0.1666 0.0640 Uiso
H89 H 0.3155 0.9890 0.0950 0.0640 Uiso
H90 H 0.4023 0.9639 0.1492 0.0640 Uiso
O59 O 0.9532(9) 0.9256(9) 0.7319(6) 0.0222 Uani
N6 N 0.9376(12) 0.1124(12) 0.4361(7) 0.0242 Uani
C125 C 0.8455(15) 0.0784(16) 0.4499(9) 0.0261 Uani
H95 H 0.8557 0.0084 0.4455 0.0390 Uiso
H96 H 0.8279 0.0792 0.4929 0.0390 Uiso
H97 H 0.7894 0.1244 0.4210 0.0390 Uiso
C126 C 0.9377(17) 0.2138(15) 0.4453(10) 0.0329 Uani
H98 H 0.8817 0.2662 0.4195 0.0490 Uiso
H99 H 0.9278 0.2122 0.4894 0.0490 Uiso
C54 C 0.9866(12) 0.8390(10) 0.7267(8) 0.0175 Uani
loop_
_atom_site_aniso_label
_atom_site_aniso_U_11
_atom_site_aniso_U_22
_atom_site_aniso_U_33
_atom_site_aniso_U_23
_atom_site_aniso_U_13
_atom_site_aniso_U_12
O23 0.024 0.021 0.026 -0.006 -0.003 -0.008
O24 0.022 0.02 0.027 -0.012 -0.001 -0.006
C64 0.022 0.018 0.025 -0.01 -0.003 -0.007
C65 0.028 0.017 0.026 -0.01 -0.005 -0.005
C66 0.029 0.02 0.025 -0.01 -0.004 -0.007
C67 0.026 0.014 0.024 -0.008 -0.009 -0.008
C81 0.029 0.027 0.024 -0.002 -0.007 -0.003
Pr10 0.0092 0.0114 0.0135 -0.0036 0.0004 -0.0024
Pr14 0.0107 0.0151 0.0177 -0.008 0.0006 -0.0045
C16 0.031 0.018 0.026 -0.01 -0.009 -0.005
C17 0.028 0.018 0.028 -0.008 -0.007 -0.005
C31 0.014 0.02 0.024 -0.009 0.001 -0.004
C32 0.016 0.021 0.026 -0.006 0.002 -0.006
O25 0.016 0.019 0.025 -0.008 0.001 -0.007
O26 0.017 0.015 0.024 -0.009 0 -0.008
C70 0.017 0.019 0.026 -0.008 0 -0.009
C71 0.015 0.018 0.024 -0.008 0.001 -0.008
C74 0.014 0.018 0.024 -0.007 0.002 -0.005
C75 0.016 0.02 0.024 -0.008 0 -0.007
O36 0.017 0.025 0.027 -0.001 0 -0.005
O39 0.016 0.022 0.028 -0.015 0.003 -0.001
O40 0.016 0.019 0.032 -0.006 0.002 -0.006
C117 0.017 0.013 0.022 -0.011 0.006 0.004
Pr20 0.0086 0.0111 0.0115 -0.0018 -0.0033 -0.0004
O50 0.017 0.03 0.024 -0.002 -0.002 -0.007
O27 0.024 0.025 0.026 0 -0.007 -0.005
O28 0.028 0.033 0.031 0 -0.002 0.003
C76 0.021 0.022 0.025 0 -0.003 -0.007
C77 0.028 0.025 0.024 -0.003 -0.008 -0.003
C78 0.029 0.024 0.025 -0.002 -0.006 -0.003
C79 0.027 0.021 0.022 -0.005 -0.005 -0.004
N3 0.025 0.021 0.023 -0.004 0.005 -0.001
C40 0.035 0.022 0.023 -0.008 -0.009 -0.002
C62 0.025 0.038 0.021 -0.016 0.006 -0.01
C63 0.041 0.027 0.033 -0.013 0.004 -0.007
O16 0.023 0.023 0.035 -0.008 -0.004 -0.01
C50 0.029 0.033 0.037 -0.008 -0.001 -0.001
C51 0.032 0.035 0.039 -0.01 -0.003 -0.004
C59 0.054 0.028 0.049 -0.029 0.008 0.003
O31 0.022 0.022 0.03 -0.012 0.001 -0.004
C88 0.022 0.023 0.032 -0.011 -0.001 -0.006
C89 0.025 0.029 0.033 -0.012 0 -0.002
C92 0.028 0.029 0.036 -0.01 0.005 -0.006
C93 0.024 0.03 0.037 -0.011 0 -0.002
C124 0.033 0.016 0.024 -0.013 0.006 0.003
Pr17 0.0086 0.0111 0.0115 -0.0018 -0.0033 -0.0004
C68 0.031 0.018 0.026 -0.01 -0.009 -0.005
C69 0.028 0.018 0.028 -0.008 -0.007 -0.005
C80 0.035 0.022 0.023 -0.008 -0.009 -0.002
Pr1 0.0092 0.0114 0.0135 -0.0036 0.0004 -0.0024
O1 0.017 0.02 0.029 -0.005 -0.003 -0.004
N1 0.028 0.023 0.022 -0.004 -0.006 -0.007
C1 0.021 0.02 0.026 -0.009 0.002 -0.007
Pr2 0.0107 0.0151 0.0177 -0.008 0.0006 -0.0045
O2 0.017 0.02 0.029 -0.01 0.003 -0.003
C2 0.014 0.016 0.027 -0.006 -0.002 -0.009
N2 0.037 0.016 0.039 -0.01 0.004 -0.004
O3 0.024 0.021 0.026 -0.006 -0.003 -0.008
C3 0.015 0.018 0.024 -0.008 -0.003 -0.006
O4 0.022 0.02 0.027 -0.012 -0.001 -0.006
C4 0.013 0.015 0.024 -0.007 -0.003 -0.009
O5 0.015 0.029 0.025 -0.002 -0.004 -0.003
C5 0.012 0.016 0.024 -0.006 -0.004 -0.007
O6 0.016 0.019 0.025 -0.008 0.001 -0.007
C6 0.012 0.014 0.024 -0.007 -0.005 -0.008
C7 0.013 0.016 0.026 -0.004 -0.005 -0.005
C8 0.014 0.016 0.028 -0.006 -0.003 -0.005
O9 0.024 0.025 0.026 0 -0.007 -0.005
C9 0.016 0.016 0.028 -0.007 -0.003 -0.006
C10 0.013 0.017 0.026 -0.005 -0.004 -0.005
O10 0.028 0.033 0.031 0 -0.002 0.003
C11 0.014 0.019 0.026 -0.005 -0.004 -0.006
O11 0.017 0.015 0.024 -0.009 0 -0.008
C12 0.022 0.018 0.025 -0.01 -0.003 -0.007
O12 0.016 0.024 0.024 0 -0.002 -0.009
C13 0.028 0.017 0.026 -0.01 -0.005 -0.005
O13 0.019 0.025 0.023 -0.001 -0.005 -0.007
C14 0.029 0.02 0.025 -0.01 -0.004 -0.007
O14 0.022 0.022 0.03 -0.012 0.001 -0.004
C15 0.026 0.014 0.024 -0.008 -0.009 -0.008
O15 0.013 0.023 0.025 0 -0.001 -0.004
C18 0.01 0.022 0.025 0.005 0 -0.006
O19 0.018 0.02 0.027 -0.01 0.002 -0.006
C19 0.012 0.023 0.021 -0.002 -0.001 -0.003
C20 0.012 0.021 0.021 -0.002 -0.004 -0.006
O20 0.032 0.021 0.027 -0.013 0.006 -0.005
O21 0.031 0.023 0.023 -0.01 0.001 -0.004
C21 0.013 0.021 0.02 -0.004 -0.002 -0.003
C22 0.012 0.02 0.019 -0.005 -0.003 -0.002
O22 0.027 0.023 0.039 -0.016 0.005 -0.006
C23 0.013 0.022 0.02 -0.006 -0.002 0
C24 0.013 0.021 0.019 -0.004 -0.004 -0.003
C25 0.012 0.021 0.018 -0.003 0 -0.003
C26 0.013 0.021 0.021 -0.004 -0.001 -0.005
C27 0.014 0.021 0.022 -0.003 -0.002 -0.003
C28 0.012 0.022 0.023 -0.002 -0.003 -0.003
C29 0.017 0.019 0.026 -0.008 0 -0.009
C30 0.015 0.018 0.024 -0.008 0.001 -0.008
C33 0.014 0.018 0.024 -0.007 0.002 -0.005
C34 0.016 0.02 0.024 -0.008 0 -0.007
C35 0.012 0.019 0.033 0.003 0.001 -0.009
C36 0.021 0.022 0.025 0 -0.003 -0.007
C37 0.028 0.025 0.024 -0.003 -0.008 -0.003
C38 0.029 0.024 0.025 -0.002 -0.006 -0.003
C39 0.027 0.021 0.022 -0.005 -0.005 -0.004
C42 0.015 0.022 0.02 -0.002 -0.003 -0.009
C43 0.017 0.021 0.017 -0.003 -0.005 -0.01
C44 0.019 0.021 0.019 -0.004 -0.005 -0.008
C45 0.018 0.023 0.016 -0.004 -0.004 -0.009
C46 0.022 0.025 0.019 -0.004 -0.005 -0.006
C47 0.02 0.025 0.021 -0.002 -0.004 -0.008
C48 0.022 0.023 0.032 -0.011 -0.001 -0.006
C49 0.025 0.029 0.033 -0.012 0 -0.002
C52 0.028 0.029 0.036 -0.01 0.005 -0.006
C53 0.024 0.03 0.037 -0.011 0 -0.002
C55 0.019 0.022 0.027 -0.009 0.002 -0.004
C56 0.034 0.036 0.029 -0.005 -0.002 -0.009
C57 0.041 0.037 0.026 0 -0.004 -0.013
C58 0.025 0.025 0.031 -0.014 0.001 -0.006
C60 0.066 0.038 0.062 -0.012 0.015 0.003
C72 0.014 0.02 0.024 -0.009 0.001 -0.004
C73 0.016 0.021 0.026 -0.006 0.002 -0.006
O29 0.016 0.024 0.024 0 -0.002 -0.009
O30 0.019 0.025 0.023 -0.001 -0.005 -0.007
C82 0.015 0.022 0.02 -0.002 -0.003 -0.009
C83 0.017 0.021 0.017 -0.003 -0.005 -0.01
C84 0.019 0.021 0.019 -0.004 -0.005 -0.008
C85 0.018 0.023 0.016 -0.004 -0.004 -0.009
C86 0.022 0.025 0.019 -0.004 -0.005 -0.006
C87 0.02 0.025 0.021 -0.002 -0.004 -0.008
O32 0.023 0.023 0.035 -0.008 -0.004 -0.01
C90 0.029 0.033 0.037 -0.008 -0.001 -0.001
C91 0.032 0.035 0.039 -0.01 -0.003 -0.004
O33 0.017 0.02 0.029 -0.005 -0.003 -0.004
N4 0.028 0.023 0.022 -0.004 -0.006 -0.007
C94 0.021 0.02 0.026 -0.009 0.002 -0.007
O34 0.017 0.02 0.029 -0.01 0.003 -0.003
C95 0.014 0.016 0.027 -0.006 -0.002 -0.009
N5 0.037 0.016 0.039 -0.01 0.004 -0.004
C96 0.015 0.018 0.024 -0.008 -0.003 -0.006
C97 0.013 0.015 0.024 -0.007 -0.003 -0.009
O35 0.015 0.029 0.025 -0.002 -0.004 -0.003
C98 0.012 0.016 0.024 -0.006 -0.004 -0.007
C99 0.012 0.014 0.024 -0.007 -0.005 -0.008
C100 0.013 0.016 0.026 -0.004 -0.005 -0.005
O37 0.017 0.03 0.024 -0.002 -0.002 -0.007
C101 0.014 0.016 0.028 -0.006 -0.003 -0.005
C102 0.016 0.016 0.028 -0.007 -0.003 -0.006
C103 0.013 0.017 0.026 -0.005 -0.004 -0.005
C104 0.014 0.019 0.026 -0.005 -0.004 -0.006
O38 0.013 0.023 0.025 0 -0.001 -0.004
C105 0.01 0.022 0.025 0.005 0 -0.006
O41 0.018 0.02 0.027 -0.01 0.002 -0.006
C106 0.012 0.023 0.021 -0.002 -0.001 -0.003
C107 0.012 0.021 0.021 -0.002 -0.004 -0.006
O42 0.032 0.021 0.027 -0.013 0.006 -0.005
O43 0.031 0.023 0.023 -0.01 0.001 -0.004
C108 0.013 0.021 0.02 -0.004 -0.002 -0.003
C109 0.012 0.02 0.019 -0.005 -0.003 -0.002
O44 0.027 0.023 0.039 -0.016 0.005 -0.006
C110 0.013 0.022 0.02 -0.006 -0.002 0
C111 0.013 0.021 0.019 -0.004 -0.004 -0.003
C112 0.012 0.021 0.018 -0.003 0 -0.003
C113 0.013 0.021 0.021 -0.004 -0.001 -0.005
C114 0.014 0.021 0.022 -0.003 -0.002 -0.003
C115 0.012 0.022 0.023 -0.002 -0.003 -0.003
C116 0.012 0.019 0.033 0.003 0.001 -0.009
C118 0.019 0.022 0.027 -0.009 0.002 -0.004
C119 0.034 0.036 0.029 -0.005 -0.002 -0.009
C120 0.041 0.037 0.026 0 -0.004 -0.013
C121 0.025 0.025 0.031 -0.014 0.001 -0.006
C123 0.066 0.038 0.062 -0.012 0.015 0.003
O48 0.017 0.025 0.027 -0.001 0 -0.005
O57 0.016 0.022 0.028 -0.015 0.003 -0.001
C41 0.029 0.027 0.024 -0.002 -0.007 -0.003
C61 0.033 0.016 0.024 -0.013 0.006 0.003
C122 0.054 0.028 0.049 -0.029 0.008 0.003
O59 0.016 0.019 0.032 -0.006 0.002 -0.006
N6 0.025 0.021 0.023 -0.004 0.005 -0.001
C125 0.025 0.038 0.021 -0.016 0.006 -0.01
C126 0.041 0.027 0.033 -0.013 0.004 -0.007
C54 0.017 0.013 0.022 -0.011 0.006 0.004
loop_
_geom_bond_atom_site_label_1
_geom_bond_atom_site_label_2
_geom_bond_site_symmetry_1
_geom_bond_site_symmetry_2
O23 C64 1_555 1_555
O24 C64 1_555 1_555
C64 C65 1_555 1_555
C65 C66 1_555 1_555
C66 H51 1_555 1_555
H59 C81 1_555 1_555
Pr10 O23 1_555 1_555
Pr14 O24 1_555 1_555
C66 C67 1_555 1_555
H9 C17 1_555 1_555
H18 C31 1_555 1_555
C32 C31 1_555 1_555
H19 C32 1_555 1_555
O25 C70 1_555 1_555
O26 C70 1_555 1_555
C70 C71 1_555 1_555
C74 C32 1_555 1_555
C75 C71 1_555 1_555
H56 C75 1_555 1_555
O39 C117 1_555 1_555
O40 C117 1_555 1_555
Pr10 O25 1_555 1_555
Pr14 O25 1_555 1_555
C16 C17 1_555 1_555
O26 Pr14 1_555 1_555
C74 C75 1_555 1_555
O36 Pr10 1_555 1_555
O39 Pr14 1_555 1_555
O27 C76 1_555 1_555
O28 C76 1_555 1_555
C76 C77 1_555 1_555
C77 C78 1_555 1_555
C78 H57 1_555 1_555
Pr10 O27 1_555 1_555
Pr20 O28 1_555 1_555
C78 C79 1_555 1_555
C40 H22 1_555 1_555
C62 N3 1_555 1_555
H45 C62 1_555 1_555
H46 C62 1_555 1_555
H47 C62 1_555 1_555
C63 N3 1_555 1_555
H48 C63 1_555 1_555
H49 C63 1_555 1_555
H27 C50 1_555 1_555
C51 C50 1_555 1_555
H28 C51 1_555 1_555
H38 C59 1_555 1_555
H39 C59 1_555 1_555
H40 C59 1_555 1_555
O31 C88 1_555 1_555
C88 C89 1_555 1_555
C92 C51 1_555 1_555
C93 C89 1_555 1_555
H65 C93 1_555 1_555
H94 C124 1_555 1_555
Pr14 O31 1_555 1_555
Pr17 O16 1_555 1_555
C92 C93 1_555 1_555
H53 C69 1_555 1_555
H58 C80 1_555 1_555
C68 C69 1_555 1_555
Pr1 O1 1_555 1_555
O1 C1 1_555 1_555
N1 C55 1_555 1_555
C1 O2 1_555 1_555
Pr2 O2 1_555 1_555
C2 C1 1_555 1_555
N2 C58 1_555 1_555
Pr17 O10 1_555 1_555
O3 Pr1 1_555 1_555
C3 C2 1_555 1_555
H1 C3 1_555 1_555
O4 Pr2 1_555 1_555
C4 C3 1_555 1_555
H2 C4 1_555 1_555
O5 Pr1 1_555 1_555
C5 C4 1_555 1_555
O6 Pr1 1_555 1_555
C6 C5 1_555 1_555
H3 C6 1_555 1_555
C7 C6 1_555 1_555
O50 C35 1_555 1_555
C8 C7 1_555 1_555
H4 C8 1_555 1_555
O9 Pr1 1_555 1_555
C9 C8 1_555 1_555
H5 C9 1_555 1_555
C10 C5 1_555 1_555
O10 C36 1_555 1_555
C11 C2 1_555 1_555
H6 C11 1_555 1_555
O11 Pr2 1_555 1_555
C12 O3 1_555 1_555
O12 Pr1 1_555 1_555
C13 C12 1_555 1_555
O13 Pr17 1_555 1_555
C14 C13 1_555 1_555
H7 C14 1_555 1_555
O14 Pr2 1_555 1_555
C15 C14 1_555 1_555
O15 Pr17 1_555 1_555
C18 O5 1_555 1_555
O19 Pr2 1_555 1_555
C19 C18 1_555 1_555
C20 C19 1_555 1_555
H10 C20 1_555 1_555
O20 Pr2 1_555 1_555
O21 Pr17 1_555 1_555
C21 C20 1_555 1_555
C22 C21 1_555 1_555
H11 C22 1_555 1_555
O22 Pr1 1_555 1_555
H12 O22 1_555 1_555
H13 O22 1_555 1_555
C23 C22 1_555 1_555
H14 C23 1_555 1_555
C24 C23 1_555 1_555
C25 C24 1_555 1_555
H15 C25 1_555 1_555
C26 C21 1_555 1_555
C27 C26 1_555 1_555
H16 C27 1_555 1_555
C28 C19 1_555 1_555
H17 C28 1_555 1_555
C29 O6 1_555 1_555
C30 C29 1_555 1_555
C33 C34 1_555 1_555
C34 C30 1_555 1_555
H20 C34 1_555 1_555
C35 C24 1_555 1_555
C36 O9 1_555 1_555
C37 C36 1_555 1_555
C38 C37 1_555 1_555
H21 C38 1_555 1_555
C39 C38 1_555 1_555
C42 O12 1_555 1_555
C43 C42 1_555 1_555
C44 C43 1_555 1_555
H24 C44 1_555 1_555
C45 C44 1_555 1_555
C46 H25 1_555 1_555
C47 C43 1_555 1_555
H26 C47 1_555 1_555
C48 O14 1_555 1_555
C49 C48 1_555 1_555
C52 C53 1_555 1_555
C53 C49 1_555 1_555
H29 C53 1_555 1_555
C55 O19 1_555 1_555
H30 C55 1_555 1_555
C56 N1 1_555 1_555
H31 C56 1_555 1_555
H32 C56 1_555 1_555
H33 C56 1_555 1_555
C57 N1 1_555 1_555
H34 C57 1_555 1_555
H35 C57 1_555 1_555
H36 C57 1_555 1_555
C58 O20 1_555 1_555
H37 C58 1_555 1_555
C60 N2 1_555 1_555
H41 C60 1_555 1_555
H42 C60 1_555 1_555
H43 C60 1_555 1_555
C72 H54 1_555 1_555
C73 C33 1_555 1_555
H55 C73 1_555 1_555
O29 C82 1_555 1_555
O30 C82 1_555 1_555
C82 C83 1_555 1_555
C83 C84 1_555 1_555
C84 H60 1_555 1_555
C85 C45 1_555 1_555
C86 C45 1_555 1_555
H61 C86 1_555 1_555
C87 C83 1_555 1_555
H62 C87 1_555 1_555
C90 H63 1_555 1_555
C91 C52 1_555 1_555
H64 C91 1_555 1_555
Pr10 O29 1_555 1_555
O33 Pr10 1_555 1_555
N4 C118 1_555 1_555
C94 O33 1_555 1_555
Pr14 O34 1_555 1_555
O34 C94 1_555 1_555
C95 C94 1_555 1_555
N5 C121 1_555 1_555
Pr20 O30 1_555 1_555
C96 C95 1_555 1_555
H66 C96 1_555 1_555
C97 C96 1_555 1_555
H67 C97 1_555 1_555
O35 Pr10 1_555 1_555
C98 C97 1_555 1_555
C99 C98 1_555 1_555
H68 C99 1_555 1_555
C100 C99 1_555 1_555
O37 C116 1_555 1_555
C101 C100 1_555 1_555
H69 C101 1_555 1_555
C102 C101 1_555 1_555
H70 C102 1_555 1_555
C103 C98 1_555 1_555
C104 C95 1_555 1_555
H71 C104 1_555 1_555
O38 Pr20 1_555 1_555
C105 O35 1_555 1_555
O41 Pr14 1_555 1_555
C106 C105 1_555 1_555
C107 C106 1_555 1_555
H72 C107 1_555 1_555
O42 Pr14 1_555 1_555
O43 Pr20 1_555 1_555
C108 C107 1_555 1_555
C109 C108 1_555 1_555
H73 C109 1_555 1_555
O44 Pr10 1_555 1_555
H74 O44 1_555 1_555
H75 O44 1_555 1_555
C110 C109 1_555 1_555
H76 C110 1_555 1_555
C111 C110 1_555 1_555
C112 C111 1_555 1_555
H77 C112 1_555 1_555
C113 C108 1_555 1_555
C114 C113 1_555 1_555
H78 C114 1_555 1_555
C115 C106 1_555 1_555
H79 C115 1_555 1_555
C116 C111 1_555 1_555
C118 O41 1_555 1_555
H80 C118 1_555 1_555
C119 N4 1_555 1_555
H81 C119 1_555 1_555
H82 C119 1_555 1_555
H83 C119 1_555 1_555
C120 N4 1_555 1_555
H84 C120 1_555 1_555
H85 C120 1_555 1_555
H86 C120 1_555 1_555
C121 O42 1_555 1_555
H87 C121 1_555 1_555
C123 N5 1_555 1_555
H91 C123 1_555 1_555
H92 C123 1_555 1_555
H93 C123 1_555 1_555
O48 Pr1 1_555 1_555
O57 Pr2 1_555 1_555
Pr2 O6 1_555 1_555
O4 C12 1_555 1_555
C9 C10 1_555 1_555
C10 C11 1_555 1_555
O11 C29 1_555 1_555
O13 C42 1_555 1_555
O15 C18 1_555 1_555
C25 C26 1_555 1_555
C27 C28 1_555 1_555
C46 C47 1_555 1_555
C46 C85 1_555 1_555
C72 C73 1_555 1_555
C84 C85 1_555 1_555
C86 C87 1_555 1_555
O32 Pr20 1_555 1_555
C90 C91 1_555 1_555
C102 C103 1_555 1_555
C103 C104 1_555 1_555
O38 C105 1_555 1_555
C112 C113 1_555 1_555
C114 C115 1_555 1_555
H23 C41 1_555 1_555
H44 C61 1_555 1_555
H88 C122 1_555 1_555
H89 C122 1_555 1_555
H90 C122 1_555 1_555
C125 N6 1_555 1_555
H95 C125 1_555 1_555
H96 C125 1_555 1_555
H97 C125 1_555 1_555
C126 N6 1_555 1_555
H98 C126 1_555 1_555
H99 C126 1_555 1_555
O57 C54 1_555 1_555
O59 C54 1_555 1_555

#END
