
###############################################################################
#
# This file contains modified crystal structure data generated from the
# MOF subset of the Cambridge Structural Database (CSD) v543 
# hosted by the Cambridge Crystallographic Data Centre (CCDC).
#
# This work is licensed under the Creative Commons
# Attribution-NonCommercial-ShareAlike 4.0 International License.
# To view a copy of this license, visit
# http://creativecommons.org/licenses/by-nc-sa/4.0/
# or send a letter to
# Creative Commons, PO Box 1866, Mountain View, CA 94042, USA.
#
# CIF created using the CSD Python API on 29 September 2022
# The structure has been converted into the P1 space group
# The structure has a 3D framework
# The original CSD entry FOMJUP is in the monoclinic crystal system
# The framework has been calculated to contain at least 10.0% void space
# The void calculation uses a probe of radius 1.32A, grid spacing 0.4
#
###############################################################################

data_FOMJUP
_chemical_formula_moiety         '(C360 H228 N40 O58 Zn16)n'
_symmetry_cell_setting           triclinic
_symmetry_space_group_name_H-M   'P 1'
_symmetry_Int_Tables_number      1
_space_group_name_Hall           'P 1'
loop_
_symmetry_equiv_pos_site_id
_symmetry_equiv_pos_as_xyz
1 x,y,z
_cell_length_a                   25.5968(8)
_cell_length_b                   16.5121(2)
_cell_length_c                   26.7970(7)
_cell_angle_alpha                90
_cell_angle_beta                 117.805(4)
_cell_angle_gamma                90
_cell_volume                     10018.2
loop_
_atom_site_label
_atom_site_type_symbol
_atom_site_fract_x
_atom_site_fract_y
_atom_site_fract_z
O10 O 0.0156(4) 0.4738(3) 0.3374(3)
H17 H 0.021853 0.368127 0.408658
Zn7 Zn 0.01640(4) 0.44624(4) 0.74483(3)
O25 O 0.0742(3) 0.4174(3) 0.8241(2)
H70 H 0.073580 0.453405 0.847110
H71 H 0.109639 0.419868 0.828532
H95 H 0.006067 0.103895 0.756486
H105 H 0.027016 0.190596 0.829589
O33 O 0.0073(3) 0.3343(3) 0.7141(3)
O37 O 0.0481(3) 0.5594(3) 0.7473(3)
O41 O 0.0868(4) 0.3774(3) 0.7174(3)
Zn1 Zn 0.68170(3) 0.61825(4) 0.74282(3)
Zn2 Zn 0.71622(3) 0.48986(4) 0.67965(3)
Zn3 Zn 0.48360(4) 0.44624(4) 0.75517(3)
Zn4 Zn 0.64353(4) 0.65885(5) 0.46375(3)
O1 O 0.750000 0.5538(3) 0.750000
N1 N 0.6241(2) 0.5283(2) 0.7319(2)
O2 O 0.7702(2) 0.4143(3) 0.6702(2)
N2 N 0.6861(2) 0.5807(3) 0.62389(18)
O5 O 0.6928(3) 0.4034(3) 0.5895(2)
N3 N 0.5578(2) 0.4555(2) 0.7470(2)
N4 N 0.6538(2) 0.4221(3) 0.6878(2)
N5 N 0.6660(3) 0.6869(3) 0.6747(2)
N6 N 0.6009(3) 0.2988(3) 0.6741(3)
C1 C 0.5848(3) 0.5264(3) 0.7519(2)
H1 H 0.576786 0.572445 0.768479
N7 N 0.6707(3) 0.6534(3) 0.5464(2)
C2 C 0.6227(3) 0.4519(3) 0.7134(2)
O8 O 0.4258(3) 0.4174(3) 0.6759(2)
H2 H 0.426420 0.453405 0.652890
H3 H 0.390361 0.419868 0.671468
C3 C 0.5820(3) 0.4063(3) 0.7215(2)
O9 O 0.9519(3) 0.4406(3) 0.2527(3)
O11 O 0.6537(3) 0.5528(3) 0.4372(3)
C4 C 0.6720(3) 0.6576(3) 0.6303(2)
C5 C 0.6840(3) 0.5835(3) 0.5716(2)
H4 H 0.691840 0.537284 0.555070
C6 C 0.8666(3) 0.1301(3) 0.5116(2)
C7 C 0.7441(4) 0.3855(4) 0.6223(3)
C8 C 0.7367(3) 0.2348(4) 0.2949(3)
C10 C 0.9066(3) 0.1307(3) 0.4297(3)
N8 N 0.5340(3) 0.2761(3) 0.7069(3)
H5 H 0.519746 0.291061 0.729687
C11 C 0.6632(4) 0.7028(3) 0.5839(3)
O12 O 0.5552(3) 0.6558(4) 0.4319(3)
H6 H 0.539464 0.688683 0.450603
H7 H 0.540053 0.605707 0.435826
C13 C 0.8466(3) 0.1240(4) 0.5518(3)
C14 C 0.8934(3) 0.2043(4) 0.4470(3)
H8 H 0.898995 0.254076 0.432400
C15 C 0.7765(4) 0.3229(4) 0.6051(3)
C17 C 0.5712(3) 0.3258(3) 0.7016(3)
C18 C 0.6390(3) 0.3481(3) 0.6689(3)
H9 H 0.658117 0.326791 0.648716
C19 C 0.7020(5) 0.5317(5) 0.4454(3)
C20 C 0.7776(4) 0.2459(4) 0.5292(3)
H10 H 0.763733 0.236769 0.490036
C21 C 0.7337(3) 0.0824(4) 0.2925(3)
C22 C 0.9797(4) 0.4240(4) 0.3059(4)
C25 C 0.9018(3) 0.0544(3) 0.4527(3)
C27 C 0.9277(3) 0.1289(3) 0.3882(3)
C29 C 0.7516(4) 0.3048(4) 0.5466(3)
H13 H 0.717582 0.332822 0.519983
C30 C 0.8826(3) 0.0547(3) 0.4945(3)
C32 C 0.7647(4) 0.3634(4) 0.3932(3)
H14 H 0.799972 0.353269 0.390646
C33 C 0.8241(3) 0.1998(4) 0.5684(3)
C34 C 0.8438(3) 0.0547(3) 0.5761(3)
H15 H 0.830177 0.055140 0.603523
C36 C 0.7231(4) 0.2311(4) 0.3418(3)
C37 C 0.9938(4) 0.3309(4) 0.3831(3)
C38 C 0.9660(4) 0.3481(4) 0.3253(4)
C41 C 0.9359(3) 0.0548(4) 0.3678(3)
H19 H 0.947521 0.054698 0.338900
C42 C 0.8719(4) 0.2032(4) 0.4863(3)
H20 H 0.860554 0.252781 0.496376
C43 C 0.7424(4) 0.3077(4) 0.2726(3)
H21 H 0.736436 0.357347 0.287174
C44 C 0.9813(3) 0.2608(4) 0.4038(3)
H22 H 0.999627 0.250837 0.443259
C45 C 0.9409(3) 0.2042(4) 0.3656(3)
O15 O 0.7455(5) 0.5709(5) 0.4751(4)
C47 C 0.8216(3) 0.2806(4) 0.6426(3)
H23 H 0.836934 0.293236 0.681516
C48 C 0.9151(3) 0.2200(4) 0.3080(3)
H24 H 0.888371 0.181812 0.282191
C49 C 0.9279(4) 0.2916(4) 0.2875(3)
H25 H 0.910687 0.301204 0.248062
C50 C 0.6491(7) 0.7640(4) 0.6680(4)
H26 H 0.643758 0.787222 0.697725
N9 N 0.6388(6) 0.8124(4) 0.6252(4)
C51 C 0.7430(3) 0.1585(4) 0.2725(3)
C52 C 0.7421(4) 0.0102(4) 0.2714(4)
C56 C 0.7082(4) 0.4532(6) 0.4208(3)
C57 C 0.7161(4) 0.0871(4) 0.3365(3)
C59 C 0.5492(4) 0.1288(4) 0.7101(3)
C60 C 0.5292(3) 0.0872(4) 0.7429(3)
H30 H 0.493933 0.103895 0.743514
C61 C 0.5607(4) 0.0212(4) 0.7750(3)
C63 C 0.6323(4) 0.0384(6) 0.7413(5)
H33 H 0.667511 0.021673 0.740696
C64 C 0.6007(4) 0.1044(5) 0.7092(5)
H34 H 0.614401 0.132868 0.686750
C66 C 0.7198(4) 0.3086(4) 0.3708(3)
C68 C 0.6647(4) 0.3967(5) 0.4005(4)
H36 H 0.629300 0.406948 0.402745
C69 C 0.7109(4) 0.1557(4) 0.3593(3)
H37 H 0.698780 0.154295 0.387829
C72 C 0.7605(4) 0.4327(5) 0.4192(3)
H39 H 0.793718 0.467628 0.436525
C73 C 0.8471(4) 0.2187(4) 0.6269(3)
H40 H 0.879514 0.189125 0.654603
C77 C 0.5146(4) 0.1991(4) 0.6787(4)
H44 H 0.515399 0.201852 0.642228
H45 H 0.472984 0.190596 0.670411
C78 C 0.6697(4) 0.3261(5) 0.3770(3)
H46 H 0.638492 0.287709 0.364611
C80 C 0.6421(6) 0.7841(5) 0.5797(4)
N10 N 0.6329(7) 0.8318(4) 0.5371(4)
H49 H 0.650927 0.820760 0.516885
H50 H 0.748955 0.020751 0.435083
C83 C 0.6967(4) 0.0084(4) 0.3538(4)
C84 C 0.6388(5) 0.9671(6) 0.5489(5)
H51 H 0.631022 0.995751 0.471778
C89 C 0.6636(6) 0.9917(8) 0.6050(4)
H55 H 0.657357 0.960614 0.631540
C90 C 0.5921(8) 0.9061(11) 0.5211(7)
H56 H 0.569885 0.914202 0.479775
H57 H 0.564390 0.903930 0.537325
O17 O 0.8463(3) 0.5528(3) 0.0628(3)
C91 C 0.7633(3) 0.2348(4) 0.2051(3)
C92 C 0.7980(5) 0.5317(5) 0.0546(3)
C93 C 0.7663(3) 0.0824(4) 0.2075(3)
C94 C 0.7353(4) 0.3634(4) 0.1068(3)
H58 H 0.700028 0.353269 0.109354
C95 C 0.7769(4) 0.2311(4) 0.1582(3)
C96 C 0.7576(4) 0.3077(4) 0.2274(3)
H59 H 0.763564 0.357347 0.212826
O19 O 0.7545(5) 0.5709(5) 0.0249(4)
C97 C 0.7570(3) 0.1585(4) 0.2275(3)
C98 C 0.7579(4) 0.0102(4) 0.2286(4)
C99 C 0.7918(4) 0.4532(6) 0.0792(3)
C100 C 0.7839(4) 0.0871(4) 0.1635(3)
C102 C 0.7802(4) 0.3086(4) 0.1292(3)
C103 C 0.8353(4) 0.3967(5) 0.0995(4)
H61 H 0.870700 0.406948 0.097255
C104 C 0.7891(4) 0.1557(4) 0.1407(3)
H62 H 0.801220 0.154295 0.112171
C106 C 0.7395(4) 0.4327(5) 0.0808(3)
H63 H 0.706282 0.467628 0.063475
C109 C 0.8303(4) 0.3261(5) 0.1230(3)
H66 H 0.861508 0.287709 0.135389
H68 H 0.751045 0.020751 0.064917
C112 C 0.8033(4) 0.0084(4) 0.1462(4)
Zn8 Zn 0.85647(4) 0.65885(5) 0.03625(3)
O26 O 0.5481(3) 0.4406(3) 0.2473(3)
O27 O 0.4844(4) 0.4738(3) 0.1626(3)
C121 C 0.5934(3) 0.1307(3) 0.0703(3)
O28 O 0.9448(3) 0.6558(4) 0.0681(3)
H74 H 0.960536 0.688683 0.049397
H75 H 0.959947 0.605707 0.064174
C125 C 0.6066(3) 0.2043(4) 0.0530(3)
H76 H 0.601005 0.254076 0.067600
H78 H 0.736267 0.236769 0.009964
C131 C 0.5203(4) 0.4240(4) 0.1941(4)
C134 C 0.5982(3) 0.0544(3) 0.0473(3)
C136 C 0.5723(3) 0.1289(3) 0.1118(3)
C139 C 0.6174(3) 0.0547(3) 0.0055(3)
C144 C 0.5062(4) 0.3309(4) 0.1169(3)
H84 H 0.478147 0.368127 0.091342
C145 C 0.5340(4) 0.3481(4) 0.1747(4)
C148 C 0.5641(3) 0.0548(4) 0.1322(3)
H86 H 0.552479 0.054698 0.161100
C149 C 0.6281(4) 0.2032(4) 0.0137(3)
H87 H 0.639446 0.252781 0.003624
C150 C 0.5187(3) 0.2608(4) 0.0962(3)
H88 H 0.500373 0.250837 0.056741
C151 C 0.5591(3) 0.2042(4) 0.1344(3)
C154 C 0.5849(3) 0.2200(4) 0.1920(3)
H90 H 0.611629 0.181812 0.217809
C155 C 0.5721(4) 0.2916(4) 0.2125(3)
H91 H 0.589313 0.301204 0.251938
H108 H 0.868978 0.995751 0.028222
H113 H 0.930115 0.914202 0.020225
Zn11 Zn 0.81830(3) 0.61825(4) 0.75718(3)
Zn12 Zn 0.78378(3) 0.48986(4) 0.82035(3)
Zn14 Zn 0.51640(4) 0.55376(4) 0.24483(3)
Zn16 Zn 0.98360(4) 0.55376(4) 0.25517(3)
O32 O 0.6949(2) 0.6923(3) 0.8051(2)
O34 O 0.4927(3) 0.3343(3) 0.7859(3)
O35 O 0.6664(4) 0.7692(3) 0.4506(3)
O36 O 0.8336(4) 0.7692(3) 0.0494(3)
O38 O 0.4519(3) 0.5594(3) 0.7527(3)
O40 O 0.5156(4) 0.5262(3) 0.8374(3)
O42 O 0.4132(4) 0.3774(3) 0.7826(3)
N11 N 0.8759(2) 0.5283(2) 0.7681(2)
O20 O 0.7298(2) 0.4143(3) 0.8298(2)
N12 N 0.8139(2) 0.5807(3) 0.87611(18)
O23 O 0.8072(3) 0.4034(3) 0.9105(2)
N13 N 0.9422(2) 0.4555(2) 0.7530(2)
N14 N 0.8462(2) 0.4221(3) 0.8122(2)
N15 N 0.8340(3) 0.6869(3) 0.8253(2)
N16 N 0.8991(3) 0.2988(3) 0.8259(3)
C113 C 0.9152(3) 0.5264(3) 0.7481(2)
H69 H 0.923214 0.572445 0.731521
N17 N 0.8293(3) 0.6534(3) 0.9536(2)
C114 C 0.8773(3) 0.4519(3) 0.7866(2)
C115 C 0.9180(3) 0.4063(3) 0.7785(2)
C116 C 0.8280(3) 0.6576(3) 0.8697(2)
C117 C 0.8160(3) 0.5835(3) 0.9284(2)
H72 H 0.808160 0.537284 0.944930
C118 C 0.6334(3) 0.1301(3) 0.9884(2)
C119 C 0.7559(4) 0.3855(4) 0.8777(3)
N18 N 0.9660(3) 0.2761(3) 0.7931(3)
H73 H 0.980254 0.291061 0.770313
C122 C 0.8368(4) 0.7028(3) 0.9161(3)
C124 C 0.6534(3) 0.1240(4) 0.9482(3)
C126 C 0.7235(4) 0.3229(4) 0.8949(3)
C128 C 0.9288(3) 0.3258(3) 0.7984(3)
C129 C 0.8610(3) 0.3481(3) 0.8311(3)
H77 H 0.841883 0.326791 0.851284
C130 C 0.7224(4) 0.2459(4) 0.9708(3)
C138 C 0.7484(4) 0.3048(4) 0.9534(3)
H81 H 0.782418 0.332822 0.980017
C141 C 0.6759(3) 0.1998(4) 0.9316(3)
C142 C 0.6562(3) 0.0547(3) 0.9239(3)
H82 H 0.669823 0.055140 0.896477
C153 C 0.6784(3) 0.2806(4) 0.8574(3)
H89 H 0.663066 0.293236 0.818484
C156 C 0.8509(7) 0.7640(4) 0.8320(4)
H92 H 0.856242 0.787222 0.802275
N19 N 0.8612(6) 0.8124(4) 0.8748(4)
C161 C 0.9508(4) 0.1288(4) 0.7899(3)
C162 C 0.9708(3) 0.0872(4) 0.7571(3)
C163 C 0.9393(4) 0.0212(4) 0.7250(3)
C165 C 0.8677(4) 0.0384(6) 0.7587(5)
H98 H 0.832489 0.021673 0.759304
C166 C 0.8993(4) 0.1044(5) 0.7908(5)
H99 H 0.885599 0.132868 0.813250
C169 C 0.6529(4) 0.2187(4) 0.8731(3)
H102 H 0.620486 0.189125 0.845397
C171 C 0.9854(4) 0.1991(4) 0.8213(4)
H104 H 0.984601 0.201852 0.857772
C173 C 0.8579(6) 0.7841(5) 0.9203(4)
N20 N 0.8671(7) 0.8318(4) 0.9629(4)
H107 H 0.849073 0.820760 0.983115
C174 C 0.8612(5) 0.9671(6) 0.9511(5)
C179 C 0.8364(6) 0.9917(8) 0.8950(4)
H112 H 0.842643 0.960614 0.868460
C180 C 0.9079(8) 0.9061(11) 0.9789(7)
H114 H 0.935610 0.903930 0.962675
O31 O 0.8051(2) 0.6923(3) 0.6949(2)
O39 O 0.9844(4) 0.5262(3) 0.6626(3)
O4 O 0.9008(3) 0.7074(3) 0.7471(2)
O6 O 0.9927(3) 0.6657(3) 0.2859(3)
C9 C 0.8802(3) 0.9782(3) 0.5217(3)
C12 C 0.8546(4) 0.7218(4) 0.7041(4)
C16 C 0.9147(3) 0.9788(3) 0.4351(3)
O13 O 0.6214(4) 0.7293(4) 0.3611(3)
C23 C 0.9276(3) 0.9803(4) 0.3885(3)
C24 C 0.9128(3) 0.9042(4) 0.4604(3)
H11 H 0.922577 0.854605 0.448750
C26 C 0.8604(3) 0.9822(4) 0.5618(3)
O14 O 0.9132(4) 0.6226(3) 0.2826(3)
C28 C 0.9090(4) 0.8599(4) 0.6260(3)
H12 H 0.944749 0.868977 0.624114
C31 C 0.8535(4) 0.7818(4) 0.6606(3)
C35 C 0.9066(4) 0.8010(4) 0.6619(3)
H16 H 0.941700 0.773776 0.687440
C39 C 0.9348(3) 0.9047(4) 0.3628(3)
C40 C 0.8963(4) 0.9064(4) 0.5028(3)
H18 H 0.895613 0.856676 0.520333
C46 C 0.8562(4) 0.9081(4) 0.5909(3)
H27 H 0.736891 0.960368 0.286255
C53 C 0.9434(4) 0.7580(4) 0.3160(3)
C54 C 0.9531(5) 0.6770(4) 0.2961(4)
C55 C 0.8057(4) 0.8884(4) 0.5938(4)
H28 H 0.770818 0.918881 0.572187
C58 C 0.9845(4) 0.8856(5) 0.3594(4)
H31 H 0.547044 0.992700 0.797460
C62 C 0.6123(4) 0.9967(5) 0.7741(4)
H32 H 0.633833 0.951589 0.796051
C65 C 0.6512(5) 0.7803(5) 0.4013(5)
C67 C 0.8038(4) 0.8250(4) 0.6274(3)
H35 H 0.767588 0.811917 0.627262
C70 C 0.9886(4) 0.8125(5) 0.3369(4)
C71 C 0.6652(5) 0.8606(5) 0.3843(4)
C74 C 0.6561(5) 0.9585(6) 0.3132(5)
H41 H 0.639245 0.974862 0.274786
C75 C 0.8870(4) 0.8507(5) 0.3407(4)
H42 H 0.851799 0.864086 0.342513
C76 C 0.6384(5) 0.8834(6) 0.3263(4)
H43 H 0.610011 0.849842 0.297769
C79 C 0.8903(4) 0.7773(5) 0.3160(4)
H47 H 0.857406 0.741680 0.299754
C81 C 0.7043(6) 0.9113(5) 0.4230(4)
H48 H 0.721503 0.897052 0.461775
C82 C 0.7206(5) 0.9866(5) 0.4069(4)
O18 O 0.8786(4) 0.7293(4) 0.1389(3)
H60 H 0.763109 0.960368 0.213745
C101 C 0.8488(5) 0.7803(5) 0.0987(5)
C105 C 0.8348(5) 0.8606(5) 0.1157(4)
C107 C 0.8439(5) 0.9585(6) 0.1868(5)
H64 H 0.860755 0.974862 0.225214
C108 C 0.8616(5) 0.8834(6) 0.1737(4)
H65 H 0.889989 0.849842 0.202231
C110 C 0.7957(6) 0.9113(5) 0.0770(4)
H67 H 0.778497 0.897052 0.038225
C111 C 0.7794(5) 0.9866(5) 0.0931(4)
O24 O 0.5073(3) 0.6657(3) 0.2141(3)
C127 C 0.5853(3) 0.9788(3) 0.0649(3)
C132 C 0.5724(3) 0.9803(4) 0.1115(3)
C133 C 0.5872(3) 0.9042(4) 0.0396(3)
H79 H 0.577423 0.854605 0.051250
O29 O 0.5868(4) 0.6226(3) 0.2174(3)
C146 C 0.5652(3) 0.9047(4) 0.1372(3)
C157 C 0.5566(4) 0.7580(4) 0.1840(3)
C158 C 0.5469(5) 0.6770(4) 0.2039(4)
C160 C 0.5155(4) 0.8856(5) 0.1406(4)
H94 H 0.483446 0.922639 0.127315
C168 C 0.5114(4) 0.8125(5) 0.1631(4)
H101 H 0.475753 0.799613 0.164139
C170 C 0.6130(4) 0.8507(5) 0.1593(4)
H103 H 0.648201 0.864086 0.157487
C172 C 0.6097(4) 0.7773(5) 0.1840(4)
H106 H 0.642594 0.741680 0.200246
O22 O 0.5992(3) 0.7074(3) 0.7529(2)
C120 C 0.6198(3) 0.9782(3) 0.9783(3)
C123 C 0.6454(4) 0.7218(4) 0.7959(4)
C135 C 0.6396(3) 0.9822(4) 0.9382(3)
C137 C 0.5910(4) 0.8599(4) 0.8740(3)
H80 H 0.555251 0.868977 0.875886
C140 C 0.6465(4) 0.7818(4) 0.8394(3)
C143 C 0.5934(4) 0.8010(4) 0.8381(3)
H83 H 0.558300 0.773776 0.812560
C147 C 0.6037(4) 0.9064(4) 0.9972(3)
H85 H 0.604387 0.856676 0.979667
C152 C 0.6438(4) 0.9081(4) 0.9091(3)
C159 C 0.6943(4) 0.8884(4) 0.9062(4)
H93 H 0.729182 0.918881 0.927813
H96 H 0.952956 0.992700 0.702540
C164 C 0.8877(4) 0.9967(5) 0.7259(4)
H97 H 0.866167 0.951589 0.703949
C167 C 0.6962(4) 0.8250(4) 0.8726(3)
H100 H 0.732412 0.811917 0.872738
O21 O 0.3051(2) 0.3077(3) 0.1949(2)
O22_2 O 0.4008(3) 0.2926(3) 0.2471(2)
C120_2 C 0.3802(3) 0.0218(3) 0.0217(3)
C123_2 C 0.3546(4) 0.2782(4) 0.2041(4)
C135_2 C 0.3604(3) 0.0178(4) 0.0618(3)
C137_2 C 0.4090(4) 0.1401(4) 0.1260(3)
H80_2 H 0.444749 0.131023 0.124114
C140_2 C 0.3535(4) 0.2182(4) 0.1606(3)
C143_2 C 0.4066(4) 0.1990(4) 0.1619(3)
H83_2 H 0.441700 0.226224 0.187440
C147_2 C 0.3963(4) 0.0936(4) 0.0028(3)
H85_2 H 0.395613 0.143324 0.020333
C152_2 C 0.3562(4) 0.0919(4) 0.0909(3)
C159_2 C 0.3057(4) 0.1116(4) 0.0938(4)
H93_2 H 0.270818 0.081119 0.072187
H96_2 H 0.047044 0.007300 0.297460
C164_2 C 0.1123(4) 0.0033(5) 0.2741(4)
H97_2 H 0.133833 0.048411 0.296051
C167_2 C 0.3038(4) 0.1750(4) 0.1274(3)
H100_2 H 0.267588 0.188083 0.127262
Zn9 Zn 0.31830(3) 0.38175(4) 0.25718(3)
O3 O 0.1949(2) 0.3077(3) 0.3051(2)
O4_2 O 0.0992(3) 0.2926(3) 0.2529(2)
O7 O 0.3336(4) 0.2308(3) 0.5494(3)
C9_2 C 0.1198(3) 0.0218(3) 0.4783(3)
C12_2 C 0.1454(4) 0.2782(4) 0.2959(4)
C16_2 C 0.0853(3) 0.0212(3) 0.5649(3)
O13_2 O 0.3786(4) 0.2707(4) 0.6389(3)
C23_2 C 0.0724(3) 0.0197(4) 0.6115(3)
C24_2 C 0.0872(3) 0.0958(4) 0.5396(3)
H11_2 H 0.077423 0.145395 0.551250
C26_2 C 0.1396(3) 0.0178(4) 0.4382(3)
C28_2 C 0.0910(4) 0.1401(4) 0.3740(3)
H12_2 H 0.055251 0.131023 0.375886
C31_2 C 0.1465(4) 0.2182(4) 0.3394(3)
C35_2 C 0.0934(4) 0.1990(4) 0.3381(3)
H16_2 H 0.058300 0.226224 0.312560
C39_2 C 0.0652(3) 0.0953(4) 0.6372(3)
C40_2 C 0.1037(4) 0.0936(4) 0.4972(3)
H18_2 H 0.104387 0.143324 0.479667
C46_2 C 0.1438(4) 0.0919(4) 0.4091(3)
H27_2 H 0.263109 0.039632 0.713745
C53_2 C 0.0566(4) 0.2420(4) 0.6840(3)
C54_2 C 0.0469(5) 0.3230(4) 0.7039(4)
C55_2 C 0.1943(4) 0.1116(4) 0.4062(4)
H28_2 H 0.229182 0.081119 0.427813
C58_2 C 0.0155(4) 0.1144(5) 0.6406(4)
H31_2 H 0.452956 0.007300 0.202540
C62_2 C 0.3877(4) 0.0033(5) 0.2259(4)
H32_2 H 0.366167 0.048411 0.203949
C65_2 C 0.3488(5) 0.2197(5) 0.5987(5)
C67_2 C 0.1962(4) 0.1750(4) 0.3726(3)
H35_2 H 0.232412 0.188083 0.372738
C70_2 C 0.0114(4) 0.1875(5) 0.6631(4)
C71_2 C 0.3348(5) 0.1394(5) 0.6157(4)
C74_2 C 0.3439(5) 0.0415(6) 0.6868(5)
H41_2 H 0.360755 0.025138 0.725214
C75_2 C 0.1130(4) 0.1493(5) 0.6593(4)
H42_2 H 0.148201 0.135914 0.657487
C76_2 C 0.3616(5) 0.1166(6) 0.6737(4)
H43_2 H 0.389989 0.150158 0.702231
C79_2 C 0.1097(4) 0.2227(5) 0.6840(4)
H47_2 H 0.142594 0.258320 0.700246
C81_2 C 0.2957(6) 0.0887(5) 0.5770(4)
H48_2 H 0.278497 0.102948 0.538225
C82_2 C 0.2794(5) 0.0134(5) 0.5931(4)
O16 O 0.1664(4) 0.2308(3) 0.9506(3)
O18_2 O 0.1214(4) 0.2707(4) 0.8611(3)
H60_2 H 0.236891 0.039632 0.786255
C101_2 C 0.1512(5) 0.2197(5) 0.9013(5)
C105_2 C 0.1652(5) 0.1394(5) 0.8843(4)
C107_2 C 0.1561(5) 0.0415(6) 0.8132(5)
H64_2 H 0.139245 0.025138 0.774786
C108_2 C 0.1384(5) 0.1166(6) 0.8263(4)
H65_2 H 0.110011 0.150158 0.797769
C110_2 C 0.2043(6) 0.0887(5) 0.9230(4)
H67_2 H 0.221503 0.102948 0.961775
C111_2 C 0.2206(5) 0.0134(5) 0.9069(4)
C127_2 C 0.4147(3) 0.0212(3) 0.9351(3)
C132_2 C 0.4276(3) 0.0197(4) 0.8885(3)
C133_2 C 0.4128(3) 0.0958(4) 0.9604(3)
H79_2 H 0.422577 0.145395 0.948750
C146_2 C 0.4348(3) 0.0953(4) 0.8628(3)
C157_2 C 0.4434(4) 0.2420(4) 0.8160(3)
C158_2 C 0.4531(5) 0.3230(4) 0.7961(4)
C160_2 C 0.4845(4) 0.1144(5) 0.8594(4)
H94_2 H 0.516554 0.077361 0.872685
C168_2 C 0.4886(4) 0.1875(5) 0.8369(4)
H101_2 H 0.524247 0.200387 0.835861
C170_2 C 0.3870(4) 0.1493(5) 0.8407(4)
H103_2 H 0.351799 0.135914 0.842513
C172_2 C 0.3903(4) 0.2227(5) 0.8160(4)
H106_2 H 0.357406 0.258320 0.799754
Zn10 Zn 0.18170(3) 0.38175(4) 0.24282(3)
Zn17 Zn 0.35647(4) 0.34115(5) 0.53625(3)
Zn18 Zn 0.14353(4) 0.34115(5) 0.96375(3)
Zn6 Zn 0.21622(3) 0.51014(4) 0.17965(3)
N11_2 N 0.1241(2) 0.4717(2) 0.2319(2)
O20_2 O 0.2702(2) 0.5857(3) 0.1702(2)
N12_2 N 0.1861(2) 0.4193(3) 0.12389(18)
O23_2 O 0.1928(3) 0.5966(3) 0.0895(2)
N13_2 N 0.0578(2) 0.5445(2) 0.2470(2)
N14_2 N 0.1538(2) 0.5779(3) 0.1878(2)
N15_2 N 0.1660(3) 0.3131(3) 0.1747(2)
N16_2 N 0.1009(3) 0.7012(3) 0.1741(3)
C113_2 C 0.0848(3) 0.4736(3) 0.2519(2)
H69_2 H 0.076786 0.427555 0.268479
N17_2 N 0.1707(3) 0.3466(3) 0.0464(2)
C114_2 C 0.1227(3) 0.5481(3) 0.2134(2)
C115_2 C 0.0820(3) 0.5937(3) 0.2215(2)
C116_2 C 0.1720(3) 0.3424(3) 0.1303(2)
C117_2 C 0.1840(3) 0.4165(3) 0.0716(2)
H72_2 H 0.191840 0.462716 0.055070
C118_2 C 0.3666(3) 0.8699(3) 0.0116(2)
C119_2 C 0.2441(4) 0.6145(4) 0.1223(3)
N18_2 N 0.0340(3) 0.7239(3) 0.2069(3)
H73_2 H 0.019746 0.708939 0.229687
C122_2 C 0.1632(4) 0.2972(3) 0.0839(3)
C124_2 C 0.3466(3) 0.8760(4) 0.0518(3)
C126_2 C 0.2765(4) 0.6771(4) 0.1051(3)
C128_2 C 0.0712(3) 0.6742(3) 0.2016(3)
C129_2 C 0.1390(3) 0.6519(3) 0.1689(3)
H77_2 H 0.158117 0.673209 0.148716
C130_2 C 0.2776(4) 0.7541(4) 0.0292(3)
C138_2 C 0.2516(4) 0.6952(4) 0.0466(3)
H81_2 H 0.217582 0.667178 0.019983
C141_2 C 0.3241(3) 0.8002(4) 0.0684(3)
C142_2 C 0.3438(3) 0.9453(3) 0.0761(3)
H82_2 H 0.330177 0.944860 0.103523
C153_2 C 0.3216(3) 0.7194(4) 0.1426(3)
H89_2 H 0.336934 0.706764 0.181516
C156_2 C 0.1491(7) 0.2360(4) 0.1680(4)
H92_2 H 0.143758 0.212778 0.197725
N19_2 N 0.1388(6) 0.1876(4) 0.1252(4)
C161_2 C 0.0492(4) 0.8712(4) 0.2101(3)
C162_2 C 0.0292(3) 0.9128(4) 0.2429(3)
C163_2 C 0.0607(4) 0.9788(4) 0.2750(3)
C165_2 C 0.1323(4) 0.9616(6) 0.2413(5)
H98_2 H 0.167511 0.978327 0.240696
C166_2 C 0.1007(4) 0.8956(5) 0.2092(5)
H99_2 H 0.114401 0.867132 0.186750
C169_2 C 0.3471(4) 0.7813(4) 0.1269(3)
H102_2 H 0.379514 0.810875 0.154603
C171_2 C 0.0146(4) 0.8009(4) 0.1787(4)
H104_2 H 0.015399 0.798148 0.142228
C173_2 C 0.1421(6) 0.2159(5) 0.0797(4)
N20_2 N 0.1329(7) 0.1682(4) 0.0371(4)
H107_2 H 0.150927 0.179240 0.016885
C174_2 C 0.1388(5) 0.0329(6) 0.0489(5)
C179_2 C 0.1636(6) 0.0083(8) 0.1050(4)
H112_2 H 0.157357 0.039386 0.131540
C180_2 C 0.0921(8) 0.0939(11) 0.0211(7)
H114_2 H 0.064390 0.096070 0.037325
O30 O 0.250000 0.4462(3) 0.250000
Zn2_2 Zn 0.28378(3) 0.51014(4) 0.32035(3)
N1_2 N 0.3759(2) 0.4717(2) 0.2681(2)
O2_2 O 0.2298(2) 0.5857(3) 0.3298(2)
N2_2 N 0.3139(2) 0.4193(3) 0.37611(18)
O5_2 O 0.3072(3) 0.5966(3) 0.4105(2)
N3_2 N 0.4422(2) 0.5445(2) 0.2530(2)
N4_2 N 0.3462(2) 0.5779(3) 0.3122(2)
N5_2 N 0.3340(3) 0.3131(3) 0.3253(2)
N6_2 N 0.3991(3) 0.7012(3) 0.3259(3)
C1_2 C 0.4152(3) 0.4736(3) 0.2481(2)
H1_2 H 0.423214 0.427555 0.231521
N7_2 N 0.3293(3) 0.3466(3) 0.4536(2)
C2_2 C 0.3773(3) 0.5481(3) 0.2866(2)
O8_2 O 0.5742(3) 0.5826(3) 0.3241(2)
H2_2 H 0.573580 0.546595 0.347110
H3_2 H 0.609639 0.580132 0.328532
C3_2 C 0.4180(3) 0.5937(3) 0.2785(2)
O11_2 O 0.3463(3) 0.4472(3) 0.5628(3)
C4_2 C 0.3280(3) 0.3424(3) 0.3697(2)
C5_2 C 0.3160(3) 0.4165(3) 0.4284(2)
H4_2 H 0.308160 0.462716 0.444930
C6_2 C 0.1334(3) 0.8699(3) 0.4884(2)
C7_2 C 0.2559(4) 0.6145(4) 0.3777(3)
C8_2 C 0.2633(3) 0.7652(4) 0.7051(3)
C10_2 C 0.0934(3) 0.8693(3) 0.5703(3)
N8_2 N 0.4660(3) 0.7239(3) 0.2931(3)
H5_2 H 0.480254 0.708939 0.270313
C11_2 C 0.3368(4) 0.2972(3) 0.4161(3)
O12_2 O 0.4448(3) 0.3442(4) 0.5681(3)
H6_2 H 0.460536 0.311317 0.549397
H7_2 H 0.459947 0.394293 0.564174
C13_2 C 0.1534(3) 0.8760(4) 0.4482(3)
C14_2 C 0.1066(3) 0.7957(4) 0.5530(3)
H8_2 H 0.101005 0.745924 0.567600
C15_2 C 0.2235(4) 0.6771(4) 0.3949(3)
C17_2 C 0.4288(3) 0.6742(3) 0.2984(3)
C18_2 C 0.3610(3) 0.6519(3) 0.3311(3)
H9_2 H 0.341883 0.673209 0.351284
C19_2 C 0.2980(5) 0.4683(5) 0.5546(3)
C20_2 C 0.2224(4) 0.7541(4) 0.4708(3)
H10_2 H 0.236267 0.763231 0.509964
C21_2 C 0.2663(3) 0.9176(4) 0.7075(3)
C22_2 C 0.0203(4) 0.5760(4) 0.6941(4)
C25_2 C 0.0982(3) 0.9456(3) 0.5473(3)
C27_2 C 0.0723(3) 0.8711(3) 0.6118(3)
C29_2 C 0.2484(4) 0.6952(4) 0.4534(3)
H13_2 H 0.282418 0.667178 0.480017
C30_2 C 0.1174(3) 0.9453(3) 0.5055(3)
C32_2 C 0.2353(4) 0.6366(4) 0.6068(3)
H14_2 H 0.200028 0.646731 0.609354
C33_2 C 0.1759(3) 0.8002(4) 0.4316(3)
C34_2 C 0.1562(3) 0.9453(3) 0.4239(3)
H15_2 H 0.169823 0.944860 0.396477
C36_2 C 0.2769(4) 0.7689(4) 0.6582(3)
C37_2 C 0.0062(4) 0.6691(4) 0.6169(3)
C38_2 C 0.0340(4) 0.6519(4) 0.6747(4)
C41_2 C 0.0641(3) 0.9452(4) 0.6322(3)
H19_2 H 0.052479 0.945302 0.661100
C42_2 C 0.1281(4) 0.7968(4) 0.5137(3)
H20_2 H 0.139446 0.747219 0.503624
C43_2 C 0.2576(4) 0.6923(4) 0.7274(3)
H21_2 H 0.263564 0.642653 0.712826
C44_2 C 0.0187(3) 0.7392(4) 0.5962(3)
H22_2 H 0.000373 0.749163 0.556741
C45_2 C 0.0591(3) 0.7958(4) 0.6344(3)
O15_2 O 0.2545(5) 0.4291(5) 0.5249(4)
C47_2 C 0.1784(3) 0.7194(4) 0.3574(3)
H23_2 H 0.163066 0.706764 0.318484
C48_2 C 0.0849(3) 0.7800(4) 0.6920(3)
H24_2 H 0.111629 0.818188 0.717809
C49_2 C 0.0721(4) 0.7084(4) 0.7125(3)
H25_2 H 0.089313 0.698796 0.751938
C50_2 C 0.3509(7) 0.2360(4) 0.3320(4)
H26_2 H 0.356242 0.212778 0.302275
N9_2 N 0.3612(6) 0.1876(4) 0.3748(4)
C51_2 C 0.2570(3) 0.8415(4) 0.7275(3)
C52_2 C 0.2579(4) 0.9898(4) 0.7286(4)
C56_2 C 0.2918(4) 0.5468(6) 0.5792(3)
C57_2 C 0.2839(4) 0.9129(4) 0.6635(3)
C59_2 C 0.4508(4) 0.8712(4) 0.2899(3)
C60_2 C 0.4708(3) 0.9128(4) 0.2571(3)
H30_2 H 0.506067 0.896105 0.256486
C61_2 C 0.4393(4) 0.9788(4) 0.2250(3)
C63_2 C 0.3677(4) 0.9616(6) 0.2587(5)
H33_2 H 0.332489 0.978327 0.259304
C64_2 C 0.3993(4) 0.8956(5) 0.2908(5)
H34_2 H 0.385599 0.867132 0.313250
C66_2 C 0.2802(4) 0.6914(4) 0.6292(3)
C68_2 C 0.3353(4) 0.6033(5) 0.5995(4)
H36_2 H 0.370700 0.593052 0.597255
C69_2 C 0.2891(4) 0.8443(4) 0.6407(3)
H37_2 H 0.301220 0.845705 0.612171
C72_2 C 0.2395(4) 0.5673(5) 0.5808(3)
H39_2 H 0.206282 0.532372 0.563475
C73_2 C 0.1529(4) 0.7813(4) 0.3731(3)
H40_2 H 0.120486 0.810875 0.345397
C77_2 C 0.4854(4) 0.8009(4) 0.3213(4)
H44_2 H 0.484601 0.798148 0.357772
H45_2 H 0.527016 0.809404 0.329589
C78_2 C 0.3303(4) 0.6739(5) 0.6230(3)
H46_2 H 0.361508 0.712291 0.635389
C80_2 C 0.3579(6) 0.2159(5) 0.4203(4)
N10_2 N 0.3671(7) 0.1682(4) 0.4629(4)
H49_2 H 0.349073 0.179240 0.483115
H50_2 H 0.251045 0.979249 0.564917
C83_2 C 0.3033(4) 0.9916(4) 0.6462(4)
C84_2 C 0.3612(5) 0.0329(6) 0.4511(5)
H51_2 H 0.368978 0.004249 0.528222
C89_2 C 0.3364(6) 0.0083(8) 0.3950(4)
H55_2 H 0.342643 0.039386 0.368460
C90_2 C 0.4079(8) 0.0939(11) 0.4789(7)
H56_2 H 0.430115 0.085798 0.520225
H57_2 H 0.435610 0.096070 0.462675
O17_2 O 0.1537(3) 0.4472(3) 0.9372(3)
C91_2 C 0.2367(3) 0.7652(4) 0.7949(3)
C92_2 C 0.2020(5) 0.4683(5) 0.9454(3)
C93_2 C 0.2337(3) 0.9176(4) 0.7925(3)
C94_2 C 0.2647(4) 0.6366(4) 0.8932(3)
H58_2 H 0.299972 0.646731 0.890646
C95_2 C 0.2231(4) 0.7689(4) 0.8418(3)
C96_2 C 0.2424(4) 0.6923(4) 0.7726(3)
H59_2 H 0.236436 0.642653 0.787174
O19_2 O 0.2455(5) 0.4291(5) 0.9751(4)
C97_2 C 0.2430(3) 0.8415(4) 0.7725(3)
C98_2 C 0.2421(4) 0.9898(4) 0.7714(4)
C99_2 C 0.2082(4) 0.5468(6) 0.9208(3)
C100_2 C 0.2161(4) 0.9129(4) 0.8365(3)
C102_2 C 0.2198(4) 0.6914(4) 0.8708(3)
C103_2 C 0.1647(4) 0.6033(5) 0.9005(4)
H61_2 H 0.129300 0.593052 0.902745
C104_2 C 0.2109(4) 0.8443(4) 0.8593(3)
H62_2 H 0.198780 0.845705 0.887829
C106_2 C 0.2605(4) 0.5673(5) 0.9192(3)
H63_2 H 0.293718 0.532372 0.936525
C109_2 C 0.1697(4) 0.6739(5) 0.8770(3)
H66_2 H 0.138492 0.712291 0.864611
H68_2 H 0.248955 0.979249 0.935083
C112_2 C 0.1967(4) 0.9916(4) 0.8538(4)
C121_2 C 0.4066(3) 0.8693(3) 0.9297(3)
O28_2 O 0.0552(3) 0.3442(4) 0.9319(3)
H74_2 H 0.039464 0.311317 0.950603
H75_2 H 0.040053 0.394293 0.935826
C125_2 C 0.3934(3) 0.7957(4) 0.9470(3)
H76_2 H 0.398995 0.745924 0.932400
H78_2 H 0.263733 0.763231 0.990036
C131_2 C 0.4797(4) 0.5760(4) 0.8059(4)
C134_2 C 0.4018(3) 0.9456(3) 0.9527(3)
C136_2 C 0.4277(3) 0.8711(3) 0.8882(3)
C139_2 C 0.3826(3) 0.9453(3) 0.9945(3)
C144_2 C 0.4938(4) 0.6691(4) 0.8831(3)
H84_2 H 0.521853 0.631873 0.908658
C145_2 C 0.4660(4) 0.6519(4) 0.8253(4)
C148_2 C 0.4359(3) 0.9452(4) 0.8678(3)
H86_2 H 0.447521 0.945302 0.838900
C149_2 C 0.3719(4) 0.7968(4) 0.9863(3)
H87_2 H 0.360554 0.747219 0.996376
C150_2 C 0.4813(3) 0.7392(4) 0.9038(3)
H88_2 H 0.499627 0.749163 0.943259
C151_2 C 0.4409(3) 0.7958(4) 0.8656(3)
C154_2 C 0.4151(3) 0.7800(4) 0.8080(3)
H90_2 H 0.388371 0.818188 0.782191
C155_2 C 0.4279(4) 0.7084(4) 0.7875(3)
H91_2 H 0.410687 0.698796 0.748062
H108_2 H 0.131022 0.004249 0.971778
H113_2 H 0.069885 0.085798 0.979775
O25_2 O 0.9258(3) 0.5826(3) 0.1759(2)
H70_2 H 0.926420 0.546595 0.152890
H71_2 H 0.890361 0.580132 0.171468
H95_2 H 0.993933 0.896105 0.243514
H105_2 H 0.972984 0.809404 0.170411
H17_2 H 0.978147 0.631873 0.591342
H29 H 0.016554 0.922639 0.372685
H38 H 0.024247 0.799613 0.335861
C85 C 0.6480(5) 0.0126(8) 0.5101(4)
C86 C 0.6819(5) 0.0827(8) 0.5272(5)
H52 H 0.688124 0.113743 0.500603
C87 C 0.7067(6) 0.1073(6) 0.5832(6)
H53 H 0.729842 0.155171 0.594896
C88 C 0.6975(6) 0.0618(8) 0.6221(4)
H54 H 0.714459 0.078607 0.660365
C175 C 0.8520(5) 0.0126(8) 0.9899(4)
C176 C 0.8181(5) 0.0827(8) 0.9728(5)
H109 H 0.811876 0.113743 0.999397
C177 C 0.7933(6) 0.1073(6) 0.9168(6)
H110 H 0.770158 0.155171 0.905104
C178 C 0.8025(6) 0.0618(8) 0.8779(4)
H111 H 0.785541 0.078607 0.839635
C175_2 C 0.1480(5) 0.9874(8) 0.0101(4)
C176_2 C 0.1819(5) 0.9173(8) 0.0272(5)
H109_2 H 0.188124 0.886257 0.000603
C177_2 C 0.2067(6) 0.8927(6) 0.0832(6)
H110_2 H 0.229842 0.844829 0.094896
C178_2 C 0.1975(6) 0.9382(8) 0.1221(4)
H111_2 H 0.214459 0.921393 0.160365
C85_2 C 0.3520(5) 0.9874(8) 0.4899(4)
C86_2 C 0.3181(5) 0.9173(8) 0.4728(5)
H52_2 H 0.311876 0.886257 0.499397
C87_2 C 0.2933(6) 0.8927(6) 0.4168(6)
H53_2 H 0.270158 0.844829 0.405104
C88_2 C 0.3025(6) 0.9382(8) 0.3779(4)
H54_2 H 0.285541 0.921393 0.339635
H29_2 H 0.983446 0.077361 0.627315
H38_2 H 0.975753 0.200387 0.664139
loop_
_geom_bond_atom_site_label_1
_geom_bond_atom_site_label_2
_geom_bond_site_symmetry_1
_geom_bond_site_symmetry_2
O25 Zn7 1_555 1_555
H70 O25 1_555 1_555
H71 O25 1_555 1_555
O33 Zn7 1_555 1_555
O37 Zn7 1_555 1_555
O41 Zn7 1_555 1_555
Zn1 O1 1_555 1_555
Zn2 O1 1_555 1_555
Zn3 N3 1_555 1_555
Zn4 N7 1_555 1_555
O1 Zn11 1_555 1_555
N1 Zn1 1_555 1_555
O2 Zn2 1_555 1_555
N2 Zn2 1_555 1_555
O5 C7 1_555 1_555
N3 C1 1_555 1_555
N4 Zn2 1_555 1_555
N5 Zn1 1_555 1_555
N6 C17 1_555 1_555
C1 N1 1_555 1_555
H1 C1 1_555 1_555
N7 C5 1_555 1_555
C2 N1 1_555 1_555
O8 Zn3 1_555 1_555
H2 O8 1_555 1_555
H3 O8 1_555 1_555
C3 N3 1_555 1_555
O9 C22 1_555 1_555
O11 Zn4 1_555 1_555
C4 N2 1_555 1_555
C5 N2 1_555 1_555
H4 C5 1_555 1_555
C6 C13 1_555 1_555
C7 O2 1_555 1_555
C8 C36 1_555 1_555
C10 C14 1_555 1_555
N8 H5 1_555 1_555
C11 N7 1_555 1_555
O12 Zn4 1_555 1_555
H6 O12 1_555 1_555
H7 O12 1_555 1_555
C13 C33 1_555 1_555
C14 H8 1_555 1_555
C15 C7 1_555 1_555
C17 C3 1_555 1_555
C18 N4 1_555 1_555
H9 C18 1_555 1_555
C19 O11 1_555 1_555
C20 H10 1_555 1_555
C21 C51 1_555 1_555
C22 C38 1_555 1_555
C25 C10 1_555 1_555
C27 C10 1_555 1_555
C29 C15 1_555 1_555
H13 C29 1_555 1_555
C30 C6 1_555 1_555
C32 H14 1_555 1_555
C33 C20 1_555 1_555
C34 C13 1_555 1_555
H15 C34 1_555 1_555
C36 C66 1_555 1_555
C38 C37 1_555 1_555
H19 C41 1_555 1_555
C42 C6 1_555 1_555
H20 C42 1_555 1_555
C43 C8 1_555 1_555
H21 C43 1_555 1_555
C44 C37 1_555 1_555
H22 C44 1_555 1_555
C45 C27 1_555 1_555
O15 C19 1_555 1_555
C47 C15 1_555 1_555
H23 C47 1_555 1_555
C48 C45 1_555 1_555
H24 C48 1_555 1_555
C49 C38 1_555 1_555
H25 C49 1_555 1_555
C50 N5 1_555 1_555
H26 C50 1_555 1_555
N9 C50 1_555 1_555
C51 C8 1_555 1_555
C52 C21 1_555 1_555
C56 C19 1_555 1_555
C57 C21 1_555 1_555
C59 C60 1_555 1_555
C60 H30 1_555 1_555
C61 C60 1_555 1_555
H33 C63 1_555 1_555
C64 C59 1_555 1_555
H34 C64 1_555 1_555
C66 C32 1_555 1_555
C68 C56 1_555 1_555
H36 C68 1_555 1_555
C69 C36 1_555 1_555
H37 C69 1_555 1_555
C72 C32 1_555 1_555
H39 C72 1_555 1_555
C73 C33 1_555 1_555
H40 C73 1_555 1_555
C77 N8 1_555 1_555
H44 C77 1_555 1_555
H45 C77 1_555 1_555
C78 C66 1_555 1_555
H46 C78 1_555 1_555
C80 C11 1_555 1_555
N10 C80 1_555 1_555
H49 N10 1_555 1_555
C83 C57 1_555 1_555
C89 C84 1_555 1_555
H55 C89 1_555 1_555
C90 N10 1_555 1_555
H56 C90 1_555 1_555
H57 C90 1_555 1_555
O17 C92 1_555 1_555
C91 C95 1_555 1_555
C92 O19 1_555 1_555
C93 C97 1_555 1_555
C94 H58 1_555 1_555
C95 C102 1_555 1_555
C96 C43 1_555 1_555
H59 C96 1_555 1_555
C97 C51 1_555 1_555
C98 C52 1_555 1_555
C99 C92 1_555 1_555
C100 C93 1_555 1_555
C102 C94 1_555 1_555
C103 C99 1_555 1_555
H61 C103 1_555 1_555
C104 C95 1_555 1_555
H62 C104 1_555 1_555
C106 C94 1_555 1_555
H63 C106 1_555 1_555
C109 C102 1_555 1_555
H66 C109 1_555 1_555
C112 C100 1_555 1_555
Zn8 O17 1_555 1_555
O26 C131 1_555 1_555
O27 C131 1_555 1_555
C121 C125 1_555 1_555
O28 Zn8 1_555 1_555
H74 O28 1_555 1_555
H75 O28 1_555 1_555
C125 H76 1_555 1_555
C131 C145 1_555 1_555
C134 C121 1_555 1_555
C136 C121 1_555 1_555
C144 H84 1_555 1_555
C145 C144 1_555 1_555
H86 C148 1_555 1_555
H87 C149 1_555 1_555
C150 C144 1_555 1_555
H88 C150 1_555 1_555
C151 C136 1_555 1_555
C154 C151 1_555 1_555
H90 C154 1_555 1_555
C155 C145 1_555 1_555
H91 C155 1_555 1_555
Zn12 O1 1_555 1_555
Zn14 O26 1_555 1_555
Zn16 O9 1_555 1_555
O32 Zn1 1_555 1_555
O34 Zn3 1_555 1_555
O35 Zn4 1_555 1_555
O36 Zn8 1_555 1_555
O38 Zn3 1_555 1_555
O40 Zn3 1_555 1_555
O42 Zn3 1_555 1_555
N4 C2 1_555 1_555
N5 C4 1_555 1_555
N6 C18 1_555 1_555
C2 C3 1_555 1_555
C4 C11 1_555 1_555
N8 C17 1_555 1_555
C14 C42 1_555 1_555
C20 C29 1_555 1_555
C25 C30 1_555 1_555
C27 C41 1_555 1_555
C44 C45 1_555 1_555
C47 C73 1_555 1_555
C48 C49 1_555 1_555
N9 C80 1_555 1_555
C56 C72 1_555 1_555
C57 C69 1_555 1_555
C59 C77 1_555 1_555
C63 C64 1_555 1_555
C68 C78 1_555 1_555
C84 C90 1_555 1_555
C91 C96 1_555 1_555
C91 C97 1_555 1_555
C93 C98 1_555 1_555
C99 C106 1_555 1_555
C100 C104 1_555 1_555
C103 C109 1_555 1_555
O27 Zn14 1_555 1_555
C125 C149 1_555 1_555
C134 C139 1_555 1_555
C136 C148 1_555 1_555
C150 C151 1_555 1_555
C154 C155 1_555 1_555
Zn11 N11 1_555 1_555
Zn12 O20 1_555 1_555
N11 C113 1_555 1_555
O20 C119 1_555 1_555
N12 Zn12 1_555 1_555
O23 C119 1_555 1_555
N13 C113 1_555 1_555
N14 Zn12 1_555 1_555
N15 Zn11 1_555 1_555
N16 C128 1_555 1_555
C113 H69 1_555 1_555
C114 N11 1_555 1_555
C115 N13 1_555 1_555
C116 N12 1_555 1_555
C117 N12 1_555 1_555
H72 C117 1_555 1_555
C118 C124 1_555 1_555
C119 C126 1_555 1_555
N18 H73 1_555 1_555
C122 N17 1_555 1_555
C124 C141 1_555 1_555
C126 C138 1_555 1_555
C128 C115 1_555 1_555
C129 N14 1_555 1_555
H77 C129 1_555 1_555
C138 C130 1_555 1_555
H81 C138 1_555 1_555
C141 C130 1_555 1_555
C142 C124 1_555 1_555
H82 C142 1_555 1_555
C153 C126 1_555 1_555
H89 C153 1_555 1_555
C156 N15 1_555 1_555
H92 C156 1_555 1_555
N19 C156 1_555 1_555
C161 C162 1_555 1_555
C163 C162 1_555 1_555
H98 C165 1_555 1_555
C166 C161 1_555 1_555
H99 C166 1_555 1_555
C169 C141 1_555 1_555
H102 C169 1_555 1_555
C171 N18 1_555 1_555
H104 C171 1_555 1_555
C173 C122 1_555 1_555
N20 C173 1_555 1_555
H107 N20 1_555 1_555
C179 C174 1_555 1_555
H112 C179 1_555 1_555
C180 N20 1_555 1_555
H114 C180 1_555 1_555
O31 Zn11 1_555 1_555
N14 C114 1_555 1_555
N15 C116 1_555 1_555
N16 C129 1_555 1_555
N17 C117 1_555 1_555
C114 C115 1_555 1_555
C116 C122 1_555 1_555
N18 C128 1_555 1_555
C153 C169 1_555 1_555
N19 C173 1_555 1_555
C161 C171 1_555 1_555
C165 C166 1_555 1_555
C174 C180 1_555 1_555
O31 C12 1_555 1_555
O4 C12 1_555 1_555
O6 C54 1_555 1_555
O35 C65 1_555 1_555
C9 C26 1_555 1_555
C12 C31 1_555 1_555
C16 C23 1_555 1_555
O13 C65 1_555 1_555
C23 C39 1_555 1_555
C24 C16 1_555 1_555
H11 C24 1_555 1_555
O14 C54 1_555 1_555
C28 H12 1_555 1_555
C31 C35 1_555 1_555
C35 C28 1_555 1_555
H16 C35 1_555 1_555
C39 C58 1_555 1_555
C40 C9 1_555 1_555
H18 C40 1_555 1_555
C46 C26 1_555 1_555
C53 C54 1_555 1_555
C55 C46 1_555 1_555
H28 C55 1_555 1_555
H32 C62 1_555 1_555
C65 C71 1_555 1_555
C67 C31 1_555 1_555
H35 C67 1_555 1_555
C70 C53 1_555 1_555
C71 C76 1_555 1_555
C74 H41 1_555 1_555
C75 C39 1_555 1_555
H42 C75 1_555 1_555
C76 C74 1_555 1_555
H43 C76 1_555 1_555
C79 C53 1_555 1_555
H47 C79 1_555 1_555
C81 C71 1_555 1_555
H48 C81 1_555 1_555
C82 C81 1_555 1_555
O36 C101 1_555 1_555
O18 C101 1_555 1_555
C101 C105 1_555 1_555
C105 C108 1_555 1_555
C107 H64 1_555 1_555
C108 C107 1_555 1_555
H65 C108 1_555 1_555
C110 C105 1_555 1_555
H67 C110 1_555 1_555
C111 C110 1_555 1_555
O24 C158 1_555 1_555
C127 C132 1_555 1_555
C132 C146 1_555 1_555
C133 C127 1_555 1_555
H79 C133 1_555 1_555
O29 C158 1_555 1_555
C146 C160 1_555 1_555
C157 C158 1_555 1_555
C160 H94 1_555 1_555
C168 C157 1_555 1_555
H101 C168 1_555 1_555
C170 C146 1_555 1_555
H103 C170 1_555 1_555
C172 C157 1_555 1_555
H106 C172 1_555 1_555
Zn14 O24 1_555 1_555
Zn16 O6 1_555 1_555
C24 C40 1_555 1_555
O14 Zn16 1_555 1_555
C28 C46 1_555 1_555
C55 C67 1_555 1_555
C58 C70 1_555 1_555
C75 C79 1_555 1_555
O29 Zn14 1_555 1_555
C160 C168 1_555 1_555
C170 C172 1_555 1_555
O32 C123 1_555 1_555
O22 C123 1_555 1_555
C120 C135 1_555 1_555
C123 C140 1_555 1_555
C137 H80 1_555 1_555
C140 C143 1_555 1_555
C143 C137 1_555 1_555
H83 C143 1_555 1_555
C147 C120 1_555 1_555
H85 C147 1_555 1_555
C152 C135 1_555 1_555
C159 C152 1_555 1_555
H93 C159 1_555 1_555
H97 C164 1_555 1_555
C167 C140 1_555 1_555
H100 C167 1_555 1_555
C137 C152 1_555 1_555
C159 C167 1_555 1_555
O21 C123_2 1_555 1_555
O22_2 C123_2 1_555 1_555
C120_2 C135_2 1_555 1_555
C123_2 C140_2 1_555 1_555
C137_2 H80_2 1_555 1_555
C140_2 C143_2 1_555 1_555
C143_2 C137_2 1_555 1_555
H83_2 C143_2 1_555 1_555
C147_2 C120_2 1_555 1_555
H85_2 C147_2 1_555 1_555
C152_2 C135_2 1_555 1_555
C159_2 C152_2 1_555 1_555
H93_2 C159_2 1_555 1_555
H97_2 C164_2 1_555 1_555
C167_2 C140_2 1_555 1_555
H100_2 C167_2 1_555 1_555
Zn9 O21 1_555 1_555
C137_2 C152_2 1_555 1_555
C159_2 C167_2 1_555 1_555
O3 C12_2 1_555 1_555
O4_2 C12_2 1_555 1_555
O33 C54_2 1_555 1_555
O7 C65_2 1_555 1_555
C9_2 C26_2 1_555 1_555
C12_2 C31_2 1_555 1_555
C16_2 C23_2 1_555 1_555
O13_2 C65_2 1_555 1_555
C23_2 C39_2 1_555 1_555
C24_2 C16_2 1_555 1_555
H11_2 C24_2 1_555 1_555
O41 C54_2 1_555 1_555
C28_2 H12_2 1_555 1_555
C31_2 C35_2 1_555 1_555
C35_2 C28_2 1_555 1_555
H16_2 C35_2 1_555 1_555
C39_2 C58_2 1_555 1_555
C40_2 C9_2 1_555 1_555
H18_2 C40_2 1_555 1_555
C46_2 C26_2 1_555 1_555
C53_2 C54_2 1_555 1_555
C55_2 C46_2 1_555 1_555
H28_2 C55_2 1_555 1_555
H32_2 C62_2 1_555 1_555
C65_2 C71_2 1_555 1_555
C67_2 C31_2 1_555 1_555
H35_2 C67_2 1_555 1_555
C70_2 C53_2 1_555 1_555
C71_2 C76_2 1_555 1_555
C74_2 H41_2 1_555 1_555
C75_2 C39_2 1_555 1_555
H42_2 C75_2 1_555 1_555
C76_2 C74_2 1_555 1_555
H43_2 C76_2 1_555 1_555
C79_2 C53_2 1_555 1_555
H47_2 C79_2 1_555 1_555
C81_2 C71_2 1_555 1_555
H48_2 C81_2 1_555 1_555
C82_2 C81_2 1_555 1_555
O16 C101_2 1_555 1_555
O18_2 C101_2 1_555 1_555
C101_2 C105_2 1_555 1_555
C105_2 C108_2 1_555 1_555
C107_2 H64_2 1_555 1_555
C108_2 C107_2 1_555 1_555
H65_2 C108_2 1_555 1_555
C110_2 C105_2 1_555 1_555
H67_2 C110_2 1_555 1_555
C111_2 C110_2 1_555 1_555
O34 C158_2 1_555 1_555
C127_2 C132_2 1_555 1_555
C132_2 C146_2 1_555 1_555
C133_2 C127_2 1_555 1_555
H79_2 C133_2 1_555 1_555
O42 C158_2 1_555 1_555
C146_2 C160_2 1_555 1_555
C157_2 C158_2 1_555 1_555
C160_2 H94_2 1_555 1_555
C168_2 C157_2 1_555 1_555
H101_2 C168_2 1_555 1_555
C170_2 C146_2 1_555 1_555
H103_2 C170_2 1_555 1_555
C172_2 C157_2 1_555 1_555
H106_2 C172_2 1_555 1_555
Zn10 O3 1_555 1_555
Zn17 O7 1_555 1_555
Zn18 O16 1_555 1_555
C24_2 C40_2 1_555 1_555
C28_2 C46_2 1_555 1_555
C55_2 C67_2 1_555 1_555
C58_2 C70_2 1_555 1_555
C75_2 C79_2 1_555 1_555
C160_2 C168_2 1_555 1_555
C170_2 C172_2 1_555 1_555
Zn10 N11_2 1_555 1_555
Zn6 O20_2 1_555 1_555
N11_2 C113_2 1_555 1_555
O20_2 C119_2 1_555 1_555
N12_2 Zn6 1_555 1_555
O23_2 C119_2 1_555 1_555
N13_2 C113_2 1_555 1_555
N14_2 Zn6 1_555 1_555
N15_2 Zn10 1_555 1_555
N16_2 C128_2 1_555 1_555
C113_2 H69_2 1_555 1_555
C114_2 N11_2 1_555 1_555
C115_2 N13_2 1_555 1_555
C116_2 N12_2 1_555 1_555
C117_2 N12_2 1_555 1_555
H72_2 C117_2 1_555 1_555
C118_2 C124_2 1_555 1_555
C119_2 C126_2 1_555 1_555
N18_2 H73_2 1_555 1_555
C122_2 N17_2 1_555 1_555
C124_2 C141_2 1_555 1_555
C126_2 C138_2 1_555 1_555
C128_2 C115_2 1_555 1_555
C129_2 N14_2 1_555 1_555
H77_2 C129_2 1_555 1_555
C138_2 C130_2 1_555 1_555
H81_2 C138_2 1_555 1_555
C141_2 C130_2 1_555 1_555
C142_2 C124_2 1_555 1_555
H82_2 C142_2 1_555 1_555
C153_2 C126_2 1_555 1_555
H89_2 C153_2 1_555 1_555
C156_2 N15_2 1_555 1_555
H92_2 C156_2 1_555 1_555
N19_2 C156_2 1_555 1_555
C161_2 C162_2 1_555 1_555
C163_2 C162_2 1_555 1_555
H98_2 C165_2 1_555 1_555
C166_2 C161_2 1_555 1_555
H99_2 C166_2 1_555 1_555
C169_2 C141_2 1_555 1_555
H102_2 C169_2 1_555 1_555
C171_2 N18_2 1_555 1_555
H104_2 C171_2 1_555 1_555
C173_2 C122_2 1_555 1_555
N20_2 C173_2 1_555 1_555
H107_2 N20_2 1_555 1_555
C179_2 C174_2 1_555 1_555
H112_2 C179_2 1_555 1_555
C180_2 N20_2 1_555 1_555
H114_2 C180_2 1_555 1_555
O30 Zn10 1_555 1_555
Zn6 O30 1_555 1_555
N14_2 C114_2 1_555 1_555
N15_2 C116_2 1_555 1_555
N16_2 C129_2 1_555 1_555
N17_2 C117_2 1_555 1_555
C114_2 C115_2 1_555 1_555
C116_2 C122_2 1_555 1_555
N18_2 C128_2 1_555 1_555
C153_2 C169_2 1_555 1_555
N19_2 C173_2 1_555 1_555
C161_2 C171_2 1_555 1_555
C165_2 C166_2 1_555 1_555
C174_2 C180_2 1_555 1_555
Zn9 O30 1_555 1_555
Zn2_2 O30 1_555 1_555
Zn14 N3_2 1_555 1_555
Zn17 N7_2 1_555 1_555
N1_2 Zn9 1_555 1_555
O2_2 Zn2_2 1_555 1_555
N2_2 Zn2_2 1_555 1_555
O5_2 C7_2 1_555 1_555
N3_2 C1_2 1_555 1_555
N4_2 Zn2_2 1_555 1_555
N5_2 Zn9 1_555 1_555
N6_2 C17_2 1_555 1_555
C1_2 N1_2 1_555 1_555
H1_2 C1_2 1_555 1_555
N7_2 C5_2 1_555 1_555
C2_2 N1_2 1_555 1_555
O8_2 Zn14 1_555 1_555
H2_2 O8_2 1_555 1_555
H3_2 O8_2 1_555 1_555
C3_2 N3_2 1_555 1_555
O37 C22_2 1_555 1_555
O11_2 Zn17 1_555 1_555
C4_2 N2_2 1_555 1_555
C5_2 N2_2 1_555 1_555
H4_2 C5_2 1_555 1_555
C6_2 C13_2 1_555 1_555
C7_2 O2_2 1_555 1_555
C8_2 C36_2 1_555 1_555
C10_2 C14_2 1_555 1_555
N8_2 H5_2 1_555 1_555
C11_2 N7_2 1_555 1_555
O12_2 Zn17 1_555 1_555
H6_2 O12_2 1_555 1_555
H7_2 O12_2 1_555 1_555
C13_2 C33_2 1_555 1_555
C14_2 H8_2 1_555 1_555
C15_2 C7_2 1_555 1_555
C17_2 C3_2 1_555 1_555
C18_2 N4_2 1_555 1_555
H9_2 C18_2 1_555 1_555
C19_2 O11_2 1_555 1_555
C20_2 H10_2 1_555 1_555
C21_2 C51_2 1_555 1_555
C22_2 C38_2 1_555 1_555
C25_2 C10_2 1_555 1_555
C27_2 C10_2 1_555 1_555
C29_2 C15_2 1_555 1_555
H13_2 C29_2 1_555 1_555
C30_2 C6_2 1_555 1_555
C32_2 H14_2 1_555 1_555
C33_2 C20_2 1_555 1_555
C34_2 C13_2 1_555 1_555
H15_2 C34_2 1_555 1_555
C36_2 C66_2 1_555 1_555
C38_2 C37_2 1_555 1_555
H19_2 C41_2 1_555 1_555
C42_2 C6_2 1_555 1_555
H20_2 C42_2 1_555 1_555
C43_2 C8_2 1_555 1_555
H21_2 C43_2 1_555 1_555
C44_2 C37_2 1_555 1_555
H22_2 C44_2 1_555 1_555
C45_2 C27_2 1_555 1_555
O15_2 C19_2 1_555 1_555
C47_2 C15_2 1_555 1_555
H23_2 C47_2 1_555 1_555
C48_2 C45_2 1_555 1_555
H24_2 C48_2 1_555 1_555
C49_2 C38_2 1_555 1_555
H25_2 C49_2 1_555 1_555
C50_2 N5_2 1_555 1_555
H26_2 C50_2 1_555 1_555
N9_2 C50_2 1_555 1_555
C51_2 C8_2 1_555 1_555
C52_2 C21_2 1_555 1_555
C56_2 C19_2 1_555 1_555
C57_2 C21_2 1_555 1_555
C59_2 C60_2 1_555 1_555
C60_2 H30_2 1_555 1_555
C61_2 C60_2 1_555 1_555
H33_2 C63_2 1_555 1_555
C64_2 C59_2 1_555 1_555
H34_2 C64_2 1_555 1_555
C66_2 C32_2 1_555 1_555
C68_2 C56_2 1_555 1_555
H36_2 C68_2 1_555 1_555
C69_2 C36_2 1_555 1_555
H37_2 C69_2 1_555 1_555
C72_2 C32_2 1_555 1_555
H39_2 C72_2 1_555 1_555
C73_2 C33_2 1_555 1_555
H40_2 C73_2 1_555 1_555
C77_2 N8_2 1_555 1_555
H44_2 C77_2 1_555 1_555
H45_2 C77_2 1_555 1_555
C78_2 C66_2 1_555 1_555
H46_2 C78_2 1_555 1_555
C80_2 C11_2 1_555 1_555
N10_2 C80_2 1_555 1_555
H49_2 N10_2 1_555 1_555
C83_2 C57_2 1_555 1_555
C89_2 C84_2 1_555 1_555
H55_2 C89_2 1_555 1_555
C90_2 N10_2 1_555 1_555
H56_2 C90_2 1_555 1_555
H57_2 C90_2 1_555 1_555
O17_2 C92_2 1_555 1_555
C91_2 C95_2 1_555 1_555
C92_2 O19_2 1_555 1_555
C93_2 C97_2 1_555 1_555
C94_2 H58_2 1_555 1_555
C95_2 C102_2 1_555 1_555
C96_2 C43_2 1_555 1_555
H59_2 C96_2 1_555 1_555
C97_2 C51_2 1_555 1_555
C98_2 C52_2 1_555 1_555
C99_2 C92_2 1_555 1_555
C100_2 C93_2 1_555 1_555
C102_2 C94_2 1_555 1_555
C103_2 C99_2 1_555 1_555
H61_2 C103_2 1_555 1_555
C104_2 C95_2 1_555 1_555
H62_2 C104_2 1_555 1_555
C106_2 C94_2 1_555 1_555
H63_2 C106_2 1_555 1_555
C109_2 C102_2 1_555 1_555
H66_2 C109_2 1_555 1_555
C112_2 C100_2 1_555 1_555
Zn18 O17_2 1_555 1_555
O38 C131_2 1_555 1_555
O40 C131_2 1_555 1_555
C121_2 C125_2 1_555 1_555
O28_2 Zn18 1_555 1_555
H74_2 O28_2 1_555 1_555
H75_2 O28_2 1_555 1_555
C125_2 H76_2 1_555 1_555
C131_2 C145_2 1_555 1_555
C134_2 C121_2 1_555 1_555
C136_2 C121_2 1_555 1_555
C144_2 H84_2 1_555 1_555
C145_2 C144_2 1_555 1_555
H86_2 C148_2 1_555 1_555
H87_2 C149_2 1_555 1_555
C150_2 C144_2 1_555 1_555
H88_2 C150_2 1_555 1_555
C151_2 C136_2 1_555 1_555
C154_2 C151_2 1_555 1_555
H90_2 C154_2 1_555 1_555
C155_2 C145_2 1_555 1_555
H91_2 C155_2 1_555 1_555
N4_2 C2_2 1_555 1_555
N5_2 C4_2 1_555 1_555
N6_2 C18_2 1_555 1_555
C2_2 C3_2 1_555 1_555
C4_2 C11_2 1_555 1_555
N8_2 C17_2 1_555 1_555
C14_2 C42_2 1_555 1_555
C20_2 C29_2 1_555 1_555
C25_2 C30_2 1_555 1_555
C27_2 C41_2 1_555 1_555
C44_2 C45_2 1_555 1_555
C47_2 C73_2 1_555 1_555
C48_2 C49_2 1_555 1_555
N9_2 C80_2 1_555 1_555
C56_2 C72_2 1_555 1_555
C57_2 C69_2 1_555 1_555
C59_2 C77_2 1_555 1_555
C63_2 C64_2 1_555 1_555
C68_2 C78_2 1_555 1_555
C84_2 C90_2 1_555 1_555
C91_2 C96_2 1_555 1_555
C91_2 C97_2 1_555 1_555
C93_2 C98_2 1_555 1_555
C99_2 C106_2 1_555 1_555
C100_2 C104_2 1_555 1_555
C103_2 C109_2 1_555 1_555
C125_2 C149_2 1_555 1_555
C134_2 C139_2 1_555 1_555
C136_2 C148_2 1_555 1_555
C150_2 C151_2 1_555 1_555
C154_2 C155_2 1_555 1_555
O25_2 Zn16 1_555 1_555
H70_2 O25_2 1_555 1_555
H71_2 O25_2 1_555 1_555
C86 C85 1_555 1_555
H52 C86 1_555 1_555
C87 C86 1_555 1_555
H53 C87 1_555 1_555
C88 C87 1_555 1_555
H54 C88 1_555 1_555
C176 C175 1_555 1_555
H109 C176 1_555 1_555
C177 C176 1_555 1_555
H110 C177 1_555 1_555
C178 C177 1_555 1_555
H111 C178 1_555 1_555
C176_2 C175_2 1_555 1_555
H109_2 C176_2 1_555 1_555
C177_2 C176_2 1_555 1_555
H110_2 C177_2 1_555 1_555
C178_2 C177_2 1_555 1_555
H111_2 C178_2 1_555 1_555
C86_2 C85_2 1_555 1_555
H52_2 C86_2 1_555 1_555
C87_2 C86_2 1_555 1_555
H53_2 C87_2 1_555 1_555
C88_2 C87_2 1_555 1_555
H54_2 C88_2 1_555 1_555

#END
