
###############################################################################
#
# This file contains modified crystal structure data generated from the
# MOF subset of the Cambridge Structural Database (CSD) v543 
# hosted by the Cambridge Crystallographic Data Centre (CCDC).
#
# This work is licensed under the Creative Commons
# Attribution-NonCommercial-ShareAlike 4.0 International License.
# To view a copy of this license, visit
# http://creativecommons.org/licenses/by-nc-sa/4.0/
# or send a letter to
# Creative Commons, PO Box 1866, Mountain View, CA 94042, USA.
#
# CIF created using the CSD Python API on 29 September 2022
# The structure has been converted into the P1 space group
# The structure has a 3D framework
# The original CSD entry FOMJOJ is in the monoclinic crystal system
# The framework has been calculated to contain at least 10.0% void space
# The void calculation uses a probe of radius 1.32A, grid spacing 0.4
#
###############################################################################

data_FOMJOJ
_chemical_formula_moiety         '(C360 H228 N40 O60 Zn16)n'
_symmetry_cell_setting           triclinic
_symmetry_space_group_name_H-M   'P 1'
_symmetry_Int_Tables_number      1
_space_group_name_Hall           'P 1'
loop_
_symmetry_equiv_pos_site_id
_symmetry_equiv_pos_as_xyz
1 x,y,z
_cell_length_a                   25.6234(6)
_cell_length_b                   16.36975(19)
_cell_length_c                   26.8850(7)
_cell_angle_alpha                90
_cell_angle_beta                 118.418(3)
_cell_angle_gamma                90
_cell_volume                     9918
loop_
_atom_site_label
_atom_site_type_symbol
_atom_site_fract_x
_atom_site_fract_y
_atom_site_fract_z
H12 H 0.009355 0.821816 0.841394
Zn14 Zn 0.03663(3) 0.99120(4) 0.82047(3)
N1 N 0.8932(2) 0.0288(3) 0.7700(2)
C3 C 0.8352(3) 0.0269(4) 0.7524(3)
H1 H 0.811426 0.073043 0.738069
Zn12 Zn 0.93894(3) 0.11983(4) 0.75787(3)
O35 O 0.7011(4) 0.0582(5) 0.7466(4)
O37 O 0.6792(4) 0.0237(5) 0.6647(5)
Zn2 Zn 0.03663(3) 0.00880(4) 0.32047(3)
Zn3 Zn 0.73123(3) 0.94417(4) 0.74745(4)
O2 O 0.1013(2) 0.0833(3) 0.3318(2)
O3 O 0.1113(2) 0.8070(3) 0.3041(2)
O4 O 0.1016(2) 0.0976(3) 0.4125(2)
N3 N 0.8130(2) 0.9550(3) 0.7565(2)
N4 N 0.9676(2) 0.9208(3) 0.8105(3)
C1 C 0.9107(2) 0.9501(3) 0.7868(3)
O5 O 0.1536(3) 0.7907(3) 0.2519(3)
O6 O 0.7085(3) 0.8321(3) 0.7158(3)
C2 C 0.8631(3) 0.9039(4) 0.7797(3)
N7 N 0.9276(3) 0.7935(3) 0.8210(4)
C6 C 0.3549(3) 0.3689(4) 0.4890(3)
C7 C 0.3594(3) 0.5213(4) 0.4790(3)
O8 O 0.2137(4) 0.7283(4) 0.5505(3)
O9 O 0.7522(4) 0.9164(4) 0.8276(3)
H3 H 0.771081 0.957115 0.852324
H4 H 0.779269 0.876232 0.841499
C9 C 0.2998(3) 0.5177(4) 0.4396(3)
N8 N 0.8287(3) 0.7708(3) 0.7925(4)
H5 H 0.792380 0.784342 0.770763
C10 C 0.5383(3) 0.3690(4) 0.6116(3)
C11 C 0.4526(3) 0.5952(4) 0.5392(3)
H8 H 0.473586 0.644081 0.550230
C12 C 0.4771(3) 0.3685(4) 0.5703(3)
C13 C 0.4418(3) 0.2630(4) 0.7041(3)
C14 C 0.1506(3) 0.7781(4) 0.2954(3)
C15 C 0.8719(3) 0.8225(4) 0.7974(4)
C16 C 0.2952(3) 0.3757(4) 0.4505(3)
C17 C 0.1221(3) 0.1137(4) 0.3807(3)
C18 C 0.5401(3) 0.5170(4) 0.6103(4)
C19 C 0.3884(3) 0.4446(4) 0.5056(3)
C20 C 0.3850(3) 0.2965(4) 0.5148(4)
H9 H 0.363341 0.248127 0.505582
C21 C 0.5678(3) 0.4437(4) 0.6319(3)
H10 H 0.606913 0.443621 0.660661
C22 C 0.2461(3) 0.6989(5) 0.3376(4)
H11 H 0.254627 0.723493 0.311156
C23 C 0.9715(3) 0.8445(4) 0.8255(4)
C24 C 0.4458(3) 0.2924(4) 0.5538(3)
H13 H 0.464789 0.242881 0.568210
C25 C 0.4802(3) 0.5199(4) 0.5651(3)
C26 C 0.4411(4) 0.4160(4) 0.7076(3)
C27 C 0.2841(4) 0.6413(5) 0.3745(4)
H14 H 0.320897 0.632514 0.376334
C28 C 0.2042(3) 0.1954(5) 0.4553(3)
H15 H 0.197211 0.167753 0.481772
C29 C 0.4707(4) 0.4894(5) 0.7284(4)
H16 H 0.451380 0.538609 0.713529
C30 C 0.2700(3) 0.4480(4) 0.4267(3)
H17 H 0.229956 0.448768 0.400055
C31 C 0.5738(3) 0.5938(5) 0.6373(4)
C32 C 0.3952(3) 0.5940(4) 0.4980(3)
H18 H 0.377851 0.643320 0.481047
C33 C 0.1709(3) 0.1763(5) 0.3989(3)
C34 C 0.5734(3) 0.2932(4) 0.6349(3)
C35 C 0.2475(3) 0.2542(5) 0.4734(3)
H19 H 0.271295 0.263678 0.511848
C36 C 0.1948(3) 0.7202(5) 0.3403(4)
O13 O 0.2568(5) 0.7667(6) 0.6370(4)
C37 C 0.3821(4) 0.2652(5) 0.6587(4)
C38 C 0.2673(3) 0.5943(5) 0.4102(4)
C39 C 0.3818(4) 0.4115(5) 0.6655(4)
C40 C 0.2557(3) 0.3002(4) 0.4335(3)
C41 C 0.3482(4) 0.1875(5) 0.6311(4)
C42 C 0.4504(3) 0.4442(4) 0.5481(3)
C43 C 0.6757(4) 0.0732(6) 0.6969(5)
O14 O 0.6343(3) 0.8724(4) 0.7245(4)
C45 C 0.4694(4) 0.3383(4) 0.7270(4)
C46 C 0.3710(5) 0.1317(5) 0.6066(4)
H20 H 0.407981 0.140479 0.608960
C47 C 0.1784(4) 0.2213(5) 0.3591(4)
H21 H 0.155371 0.209694 0.320868
C49 C 0.3525(4) 0.3375(4) 0.6420(4)
H23 H 0.312724 0.337941 0.614849
C50 C 0.4719(4) 0.1889(4) 0.7272(4)
H24 H 0.453453 0.139521 0.711496
C51 C 0.6074(3) 0.2802(5) 0.6933(4)
H25 H 0.608224 0.318786 0.719063
C52 C 0.2145(4) 0.6136(5) 0.4093(4)
H26 H 0.202660 0.585003 0.432068
C53 C 0.6408(4) 0.1506(6) 0.6751(4)
C54 C 0.5753(4) 0.2336(5) 0.5966(4)
H27 H 0.553433 0.241140 0.557695
C55 C 0.2202(4) 0.2838(5) 0.3760(4)
H28 H 0.224538 0.314555 0.349133
C56 C 0.6099(4) 0.1653(5) 0.6181(4)
H29 H 0.612525 0.127941 0.593347
C57 C 0.2879(5) 0.0437(6) 0.5807(4)
C58 C 0.1790(4) 0.6757(5) 0.3743(4)
H30 H 0.143294 0.687485 0.373908
C59 C 0.6305(4) 0.7400(6) 0.6856(5)
C60 C 0.6606(5) 0.8175(7) 0.7086(6)
C61 C 0.3382(5) 0.0640(6) 0.5793(4)
H31 H 0.351088 0.031001 0.559136
C62 C 0.8407(6) 0.6937(6) 0.8220(7)
H32 H 0.878513 0.698467 0.856106
H33 H 0.810637 0.685575 0.833721
C63 C 0.6401(4) 0.2075(5) 0.7117(4)
H34 H 0.662083 0.197786 0.750345
C64 C 0.6266(4) 0.6120(5) 0.6414(4)
H35 H 0.644817 0.574897 0.628319
C65 C 0.2804(5) 0.6354(6) 0.6149(5)
C66 C 0.3447(5) 0.4904(5) 0.6470(4)
C67 C 0.2632(5) 0.1006(6) 0.6011(4)
H36 H 0.225989 0.091219 0.597988
C68 C 0.2934(4) 0.1715(6) 0.6259(4)
H37 H 0.276214 0.209250 0.639563
C69 C 0.6548(4) 0.6858(6) 0.6648(5)
H38 H 0.690970 0.697779 0.666171
C70 C 0.8425(6) 0.6248(6) 0.7942(6)
C71 C 0.7884(5) 0.5921(7) 0.7550(6)
H39 H 0.753175 0.617391 0.748505
C72 C 0.7868(6) 0.5215(8) 0.7255(6)
H40 H 0.750503 0.499662 0.699303
C73 C 0.8393(8) 0.4837(7) 0.7352(7)
H41 H 0.838267 0.436528 0.715512
C74 C 0.8935(6) 0.5164(8) 0.7744(8)
H42 H 0.928703 0.491121 0.780923
C75 C 0.8951(5) 0.5870(8) 0.8039(6)
H43 H 0.931376 0.608850 0.830127
C76 C 0.3119(5) 0.6154(6) 0.6734(4)
H44 H 0.311239 0.649969 0.700531
C77 C 0.5493(4) 0.6463(6) 0.6626(5)
H45 H 0.514393 0.632436 0.663218
C79 C 0.5785(4) 0.7193(6) 0.6867(5)
H46 H 0.563000 0.754378 0.703586
C80 C 0.2480(5) 0.7169(7) 0.5989(5)
C81 C 0.3438(5) 0.5423(6) 0.6886(5)
H47 H 0.364706 0.527647 0.726582
C82 C 0.3115(6) 0.5116(6) 0.5925(5)
H48 H 0.308550 0.475601 0.564466
C83 C 0.2808(5) 0.5868(7) 0.5763(5)
H49 H 0.260946 0.601825 0.538420
O17 O 0.7863(4) 0.7283(4) 0.9495(3)
C91 C 0.5582(3) 0.2630(4) 0.7959(3)
C92 C 0.5589(4) 0.4160(4) 0.7924(3)
C93 C 0.5293(4) 0.4894(5) 0.7716(4)
H58 H 0.548620 0.538609 0.786471
O18 O 0.7432(5) 0.7667(6) 0.8630(4)
C94 C 0.6179(4) 0.2652(5) 0.8413(4)
C95 C 0.6182(4) 0.4115(5) 0.8345(4)
C96 C 0.6518(4) 0.1875(5) 0.8689(4)
C98 C 0.5306(4) 0.3383(4) 0.7730(4)
C99 C 0.6290(5) 0.1317(5) 0.8934(4)
H59 H 0.592019 0.140479 0.891040
C100 C 0.6475(4) 0.3375(4) 0.8580(4)
H60 H 0.687276 0.337941 0.885151
C101 C 0.5281(4) 0.1889(4) 0.7728(4)
H61 H 0.546547 0.139521 0.788504
C102 C 0.7121(5) 0.0437(6) 0.9193(4)
C103 C 0.6618(5) 0.0640(6) 0.9207(4)
H62 H 0.648912 0.031001 0.940864
C104 C 0.7196(5) 0.6354(6) 0.8851(5)
C105 C 0.6553(5) 0.4904(5) 0.8530(4)
C106 C 0.7368(5) 0.1006(6) 0.8989(4)
H63 H 0.774011 0.091219 0.902012
C107 C 0.7066(4) 0.1715(6) 0.8741(4)
H64 H 0.723786 0.209250 0.860437
C108 C 0.6881(5) 0.6154(6) 0.8266(4)
H65 H 0.688761 0.649969 0.799469
C109 C 0.7520(5) 0.7169(7) 0.9011(5)
C110 C 0.6562(5) 0.5423(6) 0.8114(5)
H66 H 0.635294 0.527647 0.773418
C111 C 0.6885(6) 0.5116(6) 0.9075(5)
H67 H 0.691450 0.475601 0.935534
C112 C 0.7192(5) 0.5868(7) 0.9237(5)
H68 H 0.739054 0.601825 0.961580
Zn10 Zn 0.06106(3) 0.88017(4) 0.24213(3)
Zn17 Zn 0.17786(4) 0.83771(5) 0.53621(4)
Zn19 Zn 0.82214(4) 0.83771(5) 0.96379(4)
N23 N 0.0324(2) 0.0792(3) 0.1895(3)
O1 O -0.000000 0.9444(3) 0.250000
N2 N 0.0612(2) 0.9169(3) 0.3767(2)
N5 N 0.1224(3) 0.8439(3) 0.4535(2)
O7 O 0.2142(3) 0.9441(4) 0.5635(3)
C4 C 0.1096(3) 0.9142(4) 0.4275(3)
H2 H 0.132974 0.960148 0.443520
C5 C 0.0408(3) 0.8397(4) 0.3696(3)
C8 C 0.0780(3) 0.7937(4) 0.4162(3)
O11 O 0.1189(4) 0.8441(6) 0.5659(3)
H6 H 0.126526 0.844335 0.600304
H7 H 0.081216 0.844866 0.547264
C44 C 0.2539(5) 0.9677(6) 0.5528(4)
O15 O 0.2626(6) 0.9320(7) 0.5179(5)
N9 N 0.0131(5) 0.6826(5) 0.3732(4)
C78 C 0.0638(5) 0.7095(5) 0.4170(4)
C84 C 0.1540(8) 0.4386(10) 0.4890(6)
H50 H 0.145084 0.419592 0.453276
C85 C 0.1343(7) 0.5152(9) 0.4952(7)
C86 C 0.1476(8) 0.5436(7) 0.5486(8)
H51 H 0.134444 0.594834 0.552732
C87 C 0.1806(9) 0.4954(10) 0.5960(6)
H52 H 0.189498 0.514432 0.631742
C88 C 0.2003(8) 0.4188(10) 0.5898(6)
H53 H 0.222346 0.386609 0.621519
C89 C 0.1870(8) 0.3904(8) 0.5364(8)
H54 H 0.200140 0.339188 0.532287
N10 N 0.0993(6) 0.6590(5) 0.4581(5)
H55 H 0.130292 0.677779 0.486871
C90 C 0.0847(9) 0.5666(8) 0.4542(10)
H56 H 0.050731 0.558942 0.460384
H57 H 0.073646 0.547853 0.416216
O16 O 0.7858(3) 0.9441(4) 0.9365(3)
C97 C 0.7461(5) 0.9677(6) 0.9472(4)
O19 O 0.7374(6) 0.9320(7) 0.9821(5)
N16 N 0.0086(3) 0.8092(3) 0.1758(3)
C151 C 0.0173(5) 0.7306(4) 0.1689(4)
H88 H 0.050279 0.706820 0.198797
N21 N 0.1068(2) 0.9712(3) 0.2300(2)
N11 N 0.1068(2) 0.0288(3) 0.7300(2)
C115 C 0.1648(3) 0.0269(4) 0.7476(3)
H69 H 0.188574 0.073043 0.761931
Zn11 Zn 0.06106(3) 0.11983(4) 0.74213(3)
O36 O 0.2989(4) 0.0582(5) 0.7534(4)
O38 O 0.3208(4) 0.0237(5) 0.8353(5)
Zn6 Zn 0.96337(3) 0.00880(4) 0.17953(3)
O20 O 0.8987(2) 0.0833(3) 0.1682(2)
O21 O 0.8887(2) 0.8070(3) 0.1959(2)
O22 O 0.8984(2) 0.0976(3) 0.0875(2)
O23 O 0.8464(3) 0.7907(3) 0.2481(3)
C118 C 0.6451(3) 0.3689(4) 0.0110(3)
C119 C 0.6406(3) 0.5213(4) 0.0210(3)
C121 C 0.7002(3) 0.5177(4) 0.0604(3)
C125 C 0.8494(3) 0.7781(4) 0.2046(3)
C127 C 0.7048(3) 0.3757(4) 0.0495(3)
C128 C 0.8779(3) 0.1137(4) 0.1193(3)
C133 C 0.7539(3) 0.6989(5) 0.1624(4)
H79 H 0.745373 0.723493 0.188844
C137 C 0.7159(4) 0.6413(5) 0.1255(4)
H82 H 0.679103 0.632514 0.123666
C138 C 0.7958(3) 0.1954(5) 0.0447(3)
H83 H 0.802789 0.167753 0.018228
C139 C 0.7300(3) 0.4480(4) 0.0733(3)
H84 H 0.770044 0.448768 0.099945
C141 C 0.6048(3) 0.5940(4) 0.0020(3)
H85 H 0.622149 0.643320 0.018953
C142 C 0.8291(3) 0.1763(5) 0.1011(3)
C144 C 0.7525(3) 0.2542(5) 0.0266(3)
C145 C 0.8052(3) 0.7202(5) 0.1597(4)
C146 C 0.7327(3) 0.5943(5) 0.0898(4)
C147 C 0.7443(3) 0.3002(4) 0.0665(3)
C150 C 0.8216(4) 0.2213(5) 0.1409(4)
H87 H 0.844629 0.209694 0.179132
C153 C 0.7855(4) 0.6136(5) 0.0907(4)
H90 H 0.797340 0.585003 0.067932
C156 C 0.7798(4) 0.2838(5) 0.1240(4)
H92 H 0.775462 0.314555 0.150867
C158 C 0.8210(4) 0.6757(5) 0.1257(4)
H94 H 0.856706 0.687485 0.126092
Zn9 Zn 0.93894(3) 0.88017(4) 0.25787(3)
N24 N 0.9676(2) 0.0792(3) 0.3105(3)
Zn7 Zn 0.26877(3) 0.94417(4) 0.75255(4)
N13 N 0.1870(2) 0.9550(3) 0.7435(2)
N14 N 0.0324(2) 0.9208(3) 0.6895(3)
C113 C 0.0893(2) 0.9501(3) 0.7132(3)
O24 O 0.2915(3) 0.8321(3) 0.7842(3)
C114 C 0.1369(3) 0.9039(4) 0.7203(3)
N17 N 0.0724(3) 0.7935(3) 0.6790(4)
O25 O 0.2478(4) 0.9164(4) 0.6724(3)
H71 H 0.228919 0.957115 0.647676
H72 H 0.220731 0.876232 0.658501
N18 N 0.1713(3) 0.7708(3) 0.7075(4)
H73 H 0.207620 0.784342 0.729237
C122 C 0.4617(3) 0.3690(4) 0.8884(3)
C123 C 0.5474(3) 0.5952(4) 0.9608(3)
H76 H 0.526414 0.644081 0.949770
C124 C 0.5229(3) 0.3685(4) 0.9297(3)
C126 C 0.1281(3) 0.8225(4) 0.7026(4)
C129 C 0.4599(3) 0.5170(4) 0.8897(4)
C130 C 0.6116(3) 0.4446(4) 0.9944(3)
C131 C 0.6150(3) 0.2965(4) 0.9852(4)
H77 H 0.636659 0.248127 0.994418
C132 C 0.4322(3) 0.4437(4) 0.8681(3)
H78 H 0.393087 0.443621 0.839339
C134 C 0.0285(3) 0.8445(4) 0.6745(4)
C135 C 0.5542(3) 0.2924(4) 0.9462(3)
H81 H 0.535211 0.242881 0.931790
C136 C 0.5198(3) 0.5199(4) 0.9349(3)
C140 C 0.4262(3) 0.5938(5) 0.8627(4)
C143 C 0.4266(3) 0.2932(4) 0.8651(3)
H86 H 0.728705 0.263678 0.988152
C148 C 0.5496(3) 0.4442(4) 0.9519(3)
C149 C 0.3243(4) 0.0732(6) 0.8031(5)
O29 O 0.3657(3) 0.8724(4) 0.7755(4)
C152 C 0.3926(3) 0.2802(5) 0.8067(4)
H89 H 0.391776 0.318786 0.780937
C154 C 0.3592(4) 0.1506(6) 0.8249(4)
C155 C 0.4247(4) 0.2336(5) 0.9034(4)
H91 H 0.446567 0.241140 0.942305
C157 C 0.3901(4) 0.1653(5) 0.8819(4)
H93 H 0.387475 0.127941 0.906653
C159 C 0.3695(4) 0.7400(6) 0.8144(5)
C160 C 0.3394(5) 0.8175(7) 0.7914(6)
C161 C 0.1593(6) 0.6937(6) 0.6780(7)
H95 H 0.121487 0.698467 0.643894
H96 H 0.189363 0.685575 0.666279
C162 C 0.3599(4) 0.2075(5) 0.7883(4)
H97 H 0.337917 0.197786 0.749655
C163 C 0.3734(4) 0.6120(5) 0.8586(4)
H98 H 0.355183 0.574897 0.871681
C164 C 0.3452(4) 0.6858(6) 0.8352(5)
H99 H 0.309030 0.697779 0.833829
C165 C 0.1575(6) 0.6248(6) 0.7058(6)
C166 C 0.2116(5) 0.5921(7) 0.7450(6)
H100 H 0.246825 0.617391 0.751495
C167 C 0.2132(6) 0.5215(8) 0.7745(6)
H101 H 0.249497 0.499662 0.800697
C168 C 0.1607(8) 0.4837(7) 0.7648(7)
H102 H 0.161733 0.436528 0.784488
C169 C 0.1065(6) 0.5164(8) 0.7256(8)
H103 H 0.071297 0.491121 0.719077
C170 C 0.1049(5) 0.5870(8) 0.6961(6)
H104 H 0.068624 0.608850 0.669873
C171 C 0.4507(4) 0.6463(6) 0.8374(5)
H105 H 0.485607 0.632436 0.836782
C173 C 0.4215(4) 0.7193(6) 0.8133(5)
H106 H 0.437000 0.754378 0.796414
O1_2 O 1.000000 0.9444(3) 0.250000
N6 N 0.9914(3) 0.8092(3) 0.3242(3)
C48 C 0.9827(5) 0.7306(4) 0.3311(4)
H22 H 0.949721 0.706820 0.301203
N12 N 0.9388(2) 0.9169(3) 0.1233(2)
N15 N 0.8776(3) 0.8439(3) 0.0465(2)
C116 C 0.8904(3) 0.9142(4) 0.0725(3)
H70 H 0.867026 0.960148 0.056480
C117 C 0.9592(3) 0.8397(4) 0.1304(3)
C120 C 0.9220(3) 0.7937(4) 0.0838(3)
N19 N 0.9869(5) 0.6826(5) 0.1268(4)
C172 C 0.9362(5) 0.7095(5) 0.0830(4)
C174 C 0.8460(8) 0.4386(10) 0.0110(6)
H107 H 0.854916 0.419592 0.046724
C175 C 0.8657(7) 0.5152(9) 0.0048(7)
N20 N 0.9007(6) 0.6590(5) 0.0419(5)
H112 H 0.869708 0.677779 0.013129
C180 C 0.9153(9) 0.5666(8) 0.0458(10)
H113 H 0.949269 0.558942 0.039616
H114 H 0.926354 0.547853 0.083784
N22 N 0.8932(2) 0.9712(3) 0.2700(2)
O27 O 0.8811(4) 0.8441(6) 0.9341(3)
H74 H 0.873474 0.844335 0.899696
H75 H 0.918784 0.844866 0.952736
C176 C 0.8524(8) 0.5436(7) 0.9514(8)
H108 H 0.865556 0.594834 0.947268
C177 C 0.8194(9) 0.4954(10) 0.9040(6)
H109 H 0.810502 0.514432 0.868258
C178 C 0.7997(8) 0.4188(10) 0.9102(6)
H110 H 0.777654 0.386609 0.878481
C179 C 0.8130(8) 0.3904(8) 0.9636(8)
H111 H 0.799860 0.339188 0.967713
H80 H 0.990645 0.821816 0.658606
Zn13 Zn 0.96337(3) 0.99120(4) 0.67953(3)
H80_2 H 0.009355 0.178184 0.341394
Zn8 Zn 0.17786(4) 0.16229(5) 0.03621(4)
O27_2 O 0.1189(4) 0.1559(6) 0.0659(3)
H74_2 H 0.126526 0.155665 0.100304
H75_2 H 0.081216 0.155134 0.047264
C176_2 C 0.1476(8) 0.4564(7) 0.0486(8)
H108_2 H 0.134444 0.405166 0.052732
C177_2 C 0.1806(9) 0.5046(10) 0.0960(6)
H109_2 H 0.189498 0.485568 0.131742
C178_2 C 0.2003(8) 0.5812(10) 0.0898(6)
H110_2 H 0.222346 0.613391 0.121519
C179_2 C 0.1870(8) 0.6096(8) 0.0364(8)
H111_2 H 0.200140 0.660812 0.032287
Zn16 Zn 0.73123(3) 0.05583(4) 0.24745(4)
O32 O 0.2142(3) 0.0559(4) 0.0635(3)
O34 O 0.2137(4) 0.2717(4) 0.0505(3)
O1_3 O -0.000000 0.0556(3) 0.750000
N6_2 N 0.0086(3) 0.1908(3) 0.6758(3)
C48_2 C 0.0173(5) 0.2694(4) 0.6689(4)
H22_2 H 0.050279 0.293180 0.698797
N12_2 N 0.0612(2) 0.0831(3) 0.8767(2)
N15_2 N 0.1224(3) 0.1561(3) 0.9535(2)
C116_2 C 0.1096(3) 0.0858(4) 0.9275(3)
H70_2 H 0.132974 0.039852 0.943520
C117_2 C 0.0408(3) 0.1603(4) 0.8696(3)
C120_2 C 0.0780(3) 0.2063(4) 0.9162(3)
N19_2 N 0.0131(5) 0.3174(5) 0.8732(4)
C172_2 C 0.0638(5) 0.2905(5) 0.9170(4)
C174_2 C 0.1540(8) 0.5614(10) 0.9890(6)
H107_2 H 0.145084 0.580408 0.953276
C175_2 C 0.1343(7) 0.4848(9) 0.9952(7)
N20_2 N 0.0993(6) 0.3410(5) 0.9581(5)
H112_2 H 0.130292 0.322221 0.986871
C180_2 C 0.0847(9) 0.4334(8) 0.9542(10)
H113_2 H 0.050731 0.441058 0.960384
H114_2 H 0.073646 0.452147 0.916216
O31 O 0.1113(2) 0.1930(3) 0.8041(2)
N13_2 N 0.8130(2) 0.0450(3) 0.2565(2)
C113_2 C 0.9107(2) 0.0499(3) 0.2868(3)
O24_2 O 0.7085(3) 0.1679(3) 0.2158(3)
C114_2 C 0.8631(3) 0.0961(4) 0.2797(3)
N17_2 N 0.9276(3) 0.2065(3) 0.3210(4)
O25_2 O 0.7522(4) 0.0836(4) 0.3276(3)
H71_2 H 0.771081 0.042885 0.352324
H72_2 H 0.779269 0.123768 0.341499
O26 O 0.7011(4) 0.9418(5) 0.2466(4)
N18_2 N 0.8287(3) 0.2292(3) 0.2925(4)
H73_2 H 0.792380 0.215658 0.270763
C122_2 C 0.5383(3) 0.6310(4) 0.1116(3)
C123_2 C 0.4526(3) 0.4048(4) 0.0392(3)
H76_2 H 0.473586 0.355919 0.050230
C124_2 C 0.4771(3) 0.6315(4) 0.0703(3)
C126_2 C 0.8719(3) 0.1775(4) 0.2974(4)
C129_2 C 0.5401(3) 0.4830(4) 0.1103(4)
C130_2 C 0.3884(3) 0.5554(4) 0.0056(3)
C131_2 C 0.3850(3) 0.7035(4) 0.0148(4)
H77_2 H 0.363341 0.751873 0.005582
C132_2 C 0.5678(3) 0.5563(4) 0.1319(3)
H78_2 H 0.606913 0.556379 0.160661
O28 O 0.6792(4) 0.9763(5) 0.1647(5)
C134_2 C 0.9715(3) 0.1555(4) 0.3255(4)
C135_2 C 0.4458(3) 0.7076(4) 0.0538(3)
H81_2 H 0.464789 0.757119 0.068210
C136_2 C 0.4802(3) 0.4801(4) 0.0651(3)
C140_2 C 0.5738(3) 0.4062(5) 0.1373(4)
C143_2 C 0.5734(3) 0.7068(4) 0.1349(3)
H86_2 H 0.271295 0.736322 0.011848
C148_2 C 0.4504(3) 0.5558(4) 0.0481(3)
C149_2 C 0.6757(4) 0.9268(6) 0.1969(5)
O29_2 O 0.6343(3) 0.1276(4) 0.2245(4)
C152_2 C 0.6074(3) 0.7198(5) 0.1933(4)
H89_2 H 0.608224 0.681214 0.219063
C154_2 C 0.6408(4) 0.8494(6) 0.1751(4)
C155_2 C 0.5753(4) 0.7664(5) 0.0966(4)
H91_2 H 0.553433 0.758860 0.057695
C157_2 C 0.6099(4) 0.8347(5) 0.1181(4)
H93_2 H 0.612525 0.872059 0.093347
C159_2 C 0.6305(4) 0.2600(6) 0.1856(5)
C160_2 C 0.6606(5) 0.1825(7) 0.2086(6)
C161_2 C 0.8407(6) 0.3063(6) 0.3220(7)
H95_2 H 0.878513 0.301533 0.356106
H96_2 H 0.810637 0.314425 0.333721
C162_2 C 0.6401(4) 0.7925(5) 0.2117(4)
H97_2 H 0.662083 0.802214 0.250345
C163_2 C 0.6266(4) 0.3880(5) 0.1414(4)
H98_2 H 0.644817 0.425103 0.128319
C164_2 C 0.6548(4) 0.3142(6) 0.1648(5)
H99_2 H 0.690970 0.302221 0.166171
C165_2 C 0.8425(6) 0.3752(6) 0.2942(6)
C166_2 C 0.7884(5) 0.4079(7) 0.2550(6)
H100_2 H 0.753175 0.382609 0.248505
C167_2 C 0.7868(6) 0.4785(8) 0.2255(6)
H101_2 H 0.750503 0.500338 0.199303
C168_2 C 0.8393(8) 0.5163(7) 0.2352(7)
H102_2 H 0.838267 0.563472 0.215512
C169_2 C 0.8935(6) 0.4836(8) 0.2744(8)
H103_2 H 0.928703 0.508879 0.280923
C170_2 C 0.8951(5) 0.4130(8) 0.3039(6)
H104_2 H 0.931376 0.391150 0.330127
C171_2 C 0.5493(4) 0.3537(6) 0.1626(5)
H105_2 H 0.514393 0.367564 0.163218
C173_2 C 0.5785(4) 0.2807(6) 0.1867(5)
H106_2 H 0.563000 0.245622 0.203586
O20_2 O 0.1013(2) 0.9167(3) 0.8318(2)
O22_2 O 0.1016(2) 0.9024(3) 0.9125(2)
O23_2 O 0.1536(3) 0.2093(3) 0.7519(3)
C118_2 C 0.3549(3) 0.6311(4) 0.9890(3)
C119_2 C 0.3594(3) 0.4787(4) 0.9790(3)
C121_2 C 0.2998(3) 0.4823(4) 0.9396(3)
C125_2 C 0.1506(3) 0.2219(4) 0.7954(3)
C127_2 C 0.2952(3) 0.6243(4) 0.9505(3)
C128_2 C 0.1221(3) 0.8863(4) 0.8807(3)
C133_2 C 0.2461(3) 0.3011(5) 0.8376(4)
H79_2 H 0.254627 0.276507 0.811156
C137_2 C 0.2841(4) 0.3587(5) 0.8745(4)
H82_2 H 0.320897 0.367486 0.876334
C138_2 C 0.2042(3) 0.8046(5) 0.9553(3)
H83_2 H 0.197211 0.832247 0.981772
C139_2 C 0.2700(3) 0.5520(4) 0.9267(3)
H84_2 H 0.229956 0.551232 0.900055
C141_2 C 0.3952(3) 0.4060(4) 0.9980(3)
H85_2 H 0.377851 0.356680 0.981047
C142_2 C 0.1709(3) 0.8237(5) 0.8989(3)
C144_2 C 0.2475(3) 0.7458(5) 0.9734(3)
C145_2 C 0.1948(3) 0.2798(5) 0.8403(4)
C146_2 C 0.2673(3) 0.4057(5) 0.9102(4)
C147_2 C 0.2557(3) 0.6998(4) 0.9335(3)
C150_2 C 0.1784(4) 0.7787(5) 0.8591(4)
H87_2 H 0.155371 0.790306 0.820868
C153_2 C 0.2145(4) 0.3864(5) 0.9093(4)
H90_2 H 0.202660 0.414997 0.932068
C156_2 C 0.2202(4) 0.7162(5) 0.8760(4)
H92_2 H 0.224538 0.685445 0.849133
C158_2 C 0.1790(4) 0.3243(5) 0.8743(4)
H94_2 H 0.143294 0.312515 0.873908
C115_2 C 0.8352(3) 0.9731(4) 0.2524(3)
H69_2 H 0.811426 0.926957 0.238069
Zn4 Zn 0.82214(4) 0.16229(5) 0.46379(4)
O1_4 O 1.000000 0.0556(3) 0.750000
N2_2 N 0.9388(2) 0.0831(3) 0.6233(2)
N5_2 N 0.8776(3) 0.1561(3) 0.5465(2)
O7_2 O 0.7858(3) 0.0559(4) 0.4365(3)
C4_2 C 0.8904(3) 0.0858(4) 0.5725(3)
H2_2 H 0.867026 0.039852 0.556480
C5_2 C 0.9592(3) 0.1603(4) 0.6304(3)
C8_2 C 0.9220(3) 0.2063(4) 0.5838(3)
O11_2 O 0.8811(4) 0.1559(6) 0.4341(3)
H6_2 H 0.873474 0.155665 0.399696
H7_2 H 0.918784 0.155134 0.452736
C44_2 C 0.7461(5) 0.0323(6) 0.4472(4)
O15_2 O 0.7374(6) 0.0680(7) 0.4821(5)
N9_2 N 0.9869(5) 0.3174(5) 0.6268(4)
C78_2 C 0.9362(5) 0.2905(5) 0.5830(4)
C84_2 C 0.8460(8) 0.5614(10) 0.5110(6)
H50_2 H 0.854916 0.580408 0.546724
C85_2 C 0.8657(7) 0.4848(9) 0.5048(7)
C86_2 C 0.8524(8) 0.4564(7) 0.4514(8)
H51_2 H 0.865556 0.405166 0.447268
C87_2 C 0.8194(9) 0.5046(10) 0.4040(6)
H52_2 H 0.810502 0.485568 0.368258
C88_2 C 0.7997(8) 0.5812(10) 0.4102(6)
H53_2 H 0.777654 0.613391 0.378481
C89_2 C 0.8130(8) 0.6096(8) 0.4636(8)
H54_2 H 0.799860 0.660812 0.467713
N10_2 N 0.9007(6) 0.3410(5) 0.5419(5)
H55_2 H 0.869708 0.322221 0.513129
C90_2 C 0.9153(9) 0.4334(8) 0.5458(10)
H56_2 H 0.949269 0.441058 0.539616
H57_2 H 0.926354 0.452147 0.583784
C97_2 C 0.2539(5) 0.0323(6) 0.0528(4)
O19_2 O 0.2626(6) 0.0680(7) 0.0179(5)
N16_2 N 0.9914(3) 0.1908(3) 0.8242(3)
C151_2 C 0.9827(5) 0.2694(4) 0.8311(4)
H88_2 H 0.949721 0.293180 0.801203
Zn15 Zn 0.26877(3) 0.05583(4) 0.25255(4)
O30 O 0.8887(2) 0.1930(3) 0.6959(2)
O33 O 0.7863(4) 0.2717(4) 0.4495(3)
O2_2 O 0.8987(2) 0.9167(3) 0.6682(2)
O4_2 O 0.8984(2) 0.9024(3) 0.5875(2)
N3_2 N 0.1870(2) 0.0450(3) 0.2435(2)
C1_2 C 0.0893(2) 0.0499(3) 0.2132(3)
O5_2 O 0.8464(3) 0.2093(3) 0.7481(3)
O6_2 O 0.2915(3) 0.1679(3) 0.2842(3)
C2_2 C 0.1369(3) 0.0961(4) 0.2203(3)
N7_2 N 0.0724(3) 0.2065(3) 0.1790(4)
C6_2 C 0.6451(3) 0.6311(4) 0.5110(3)
C7_2 C 0.6406(3) 0.4787(4) 0.5210(3)
O9_2 O 0.2478(4) 0.0836(4) 0.1724(3)
H3_2 H 0.228919 0.042885 0.147676
H4_2 H 0.220731 0.123768 0.158501
O10 O 0.2989(4) 0.9418(5) 0.2534(4)
C9_2 C 0.7002(3) 0.4823(4) 0.5604(3)
N8_2 N 0.1713(3) 0.2292(3) 0.2075(4)
H5_2 H 0.207620 0.215658 0.229237
C10_2 C 0.4617(3) 0.6310(4) 0.3884(3)
C11_2 C 0.5474(3) 0.4048(4) 0.4608(3)
H8_2 H 0.526414 0.355919 0.449770
C12_2 C 0.5229(3) 0.6315(4) 0.4297(3)
C13_2 C 0.5582(3) 0.7370(4) 0.2959(3)
C14_2 C 0.8494(3) 0.2219(4) 0.7046(3)
C15_2 C 0.1281(3) 0.1775(4) 0.2026(4)
C16_2 C 0.7048(3) 0.6243(4) 0.5495(3)
C17_2 C 0.8779(3) 0.8863(4) 0.6193(3)
C18_2 C 0.4599(3) 0.4830(4) 0.3897(4)
C19_2 C 0.6116(3) 0.5554(4) 0.4944(3)
C20_2 C 0.6150(3) 0.7035(4) 0.4852(4)
H9_2 H 0.636659 0.751873 0.494418
C21_2 C 0.4322(3) 0.5563(4) 0.3681(3)
H10_2 H 0.393087 0.556379 0.339339
C22_2 C 0.7539(3) 0.3011(5) 0.6624(4)
H11_2 H 0.745373 0.276507 0.688844
O12 O 0.3208(4) 0.9763(5) 0.3353(5)
C23_2 C 0.0285(3) 0.1555(4) 0.1745(4)
C24_2 C 0.5542(3) 0.7076(4) 0.4462(3)
H13_2 H 0.535211 0.757119 0.431790
C25_2 C 0.5198(3) 0.4801(4) 0.4349(3)
C26_2 C 0.5589(4) 0.5840(4) 0.2924(3)
C27_2 C 0.7159(4) 0.3587(5) 0.6255(4)
H14_2 H 0.679103 0.367486 0.623666
C28_2 C 0.7958(3) 0.8046(5) 0.5447(3)
H15_2 H 0.802789 0.832247 0.518228
C29_2 C 0.5293(4) 0.5106(5) 0.2716(4)
H16_2 H 0.548620 0.461391 0.286471
C30_2 C 0.7300(3) 0.5520(4) 0.5733(3)
H17_2 H 0.770044 0.551232 0.599945
C31_2 C 0.4262(3) 0.4062(5) 0.3627(4)
C32_2 C 0.6048(3) 0.4060(4) 0.5020(3)
H18_2 H 0.622149 0.356680 0.518953
C33_2 C 0.8291(3) 0.8237(5) 0.6011(3)
C34_2 C 0.4266(3) 0.7068(4) 0.3651(3)
C35_2 C 0.7525(3) 0.7458(5) 0.5266(3)
H19_2 H 0.728705 0.736322 0.488152
C36_2 C 0.8052(3) 0.2798(5) 0.6597(4)
O13_2 O 0.7432(5) 0.2333(6) 0.3630(4)
C37_2 C 0.6179(4) 0.7348(5) 0.3413(4)
C38_2 C 0.7327(3) 0.4057(5) 0.5898(4)
C39_2 C 0.6182(4) 0.5885(5) 0.3345(4)
C40_2 C 0.7443(3) 0.6998(4) 0.5665(3)
C41_2 C 0.6518(4) 0.8125(5) 0.3689(4)
C42_2 C 0.5496(3) 0.5558(4) 0.4519(3)
C43_2 C 0.3243(4) 0.9268(6) 0.3031(5)
O14_2 O 0.3657(3) 0.1276(4) 0.2755(4)
C45_2 C 0.5306(4) 0.6617(4) 0.2730(4)
C46_2 C 0.6290(5) 0.8683(5) 0.3934(4)
H20_2 H 0.592019 0.859521 0.391040
C47_2 C 0.8216(4) 0.7787(5) 0.6409(4)
H21_2 H 0.844629 0.790306 0.679132
C49_2 C 0.6475(4) 0.6625(4) 0.3580(4)
H23_2 H 0.687276 0.662059 0.385151
C50_2 C 0.5281(4) 0.8111(4) 0.2728(4)
H24_2 H 0.546547 0.860479 0.288504
C51_2 C 0.3926(3) 0.7198(5) 0.3067(4)
H25_2 H 0.391776 0.681214 0.280937
C52_2 C 0.7855(4) 0.3864(5) 0.5907(4)
H26_2 H 0.797340 0.414997 0.567932
C53_2 C 0.3592(4) 0.8494(6) 0.3249(4)
C54_2 C 0.4247(4) 0.7664(5) 0.4034(4)
H27_2 H 0.446567 0.758860 0.442305
C55_2 C 0.7798(4) 0.7162(5) 0.6240(4)
H28_2 H 0.775462 0.685445 0.650867
C56_2 C 0.3901(4) 0.8347(5) 0.3819(4)
H29_2 H 0.387475 0.872059 0.406653
C57_2 C 0.7121(5) 0.9563(6) 0.4193(4)
C58_2 C 0.8210(4) 0.3243(5) 0.6257(4)
H30_2 H 0.856706 0.312515 0.626092
C59_2 C 0.3695(4) 0.2600(6) 0.3144(5)
C60_2 C 0.3394(5) 0.1825(7) 0.2914(6)
C61_2 C 0.6618(5) 0.9360(6) 0.4207(4)
H31_2 H 0.648912 0.968999 0.440864
C62_2 C 0.1593(6) 0.3063(6) 0.1780(7)
H32_2 H 0.121487 0.301533 0.143894
H33_2 H 0.189363 0.314425 0.166279
C63_2 C 0.3599(4) 0.7925(5) 0.2883(4)
H34_2 H 0.337917 0.802214 0.249655
C64_2 C 0.3734(4) 0.3880(5) 0.3586(4)
H35_2 H 0.355183 0.425103 0.371681
C65_2 C 0.7196(5) 0.3646(6) 0.3851(5)
C66_2 C 0.6553(5) 0.5096(5) 0.3530(4)
C67_2 C 0.7368(5) 0.8994(6) 0.3989(4)
H36_2 H 0.774011 0.908781 0.402012
C68_2 C 0.7066(4) 0.8285(6) 0.3741(4)
H37_2 H 0.723786 0.790750 0.360437
C69_2 C 0.3452(4) 0.3142(6) 0.3352(5)
H38_2 H 0.309030 0.302221 0.333829
C70_2 C 0.1575(6) 0.3752(6) 0.2058(6)
C71_2 C 0.2116(5) 0.4079(7) 0.2450(6)
H39_2 H 0.246825 0.382609 0.251495
C72_2 C 0.2132(6) 0.4785(8) 0.2745(6)
H40_2 H 0.249497 0.500338 0.300697
C73_2 C 0.1607(8) 0.5163(7) 0.2648(7)
H41_2 H 0.161733 0.563472 0.284488
C74_2 C 0.1065(6) 0.4836(8) 0.2256(8)
H42_2 H 0.071297 0.508879 0.219077
C75_2 C 0.1049(5) 0.4130(8) 0.1961(6)
H43_2 H 0.068624 0.391150 0.169873
C76_2 C 0.6881(5) 0.3846(6) 0.3266(4)
H44_2 H 0.688761 0.350031 0.299469
C77_2 C 0.4507(4) 0.3537(6) 0.3374(5)
H45_2 H 0.485607 0.367564 0.336782
C79_2 C 0.4215(4) 0.2807(6) 0.3133(5)
H46_2 H 0.437000 0.245622 0.296414
C80_2 C 0.7520(5) 0.2831(7) 0.4011(5)
C81_2 C 0.6562(5) 0.4577(6) 0.3114(5)
H47_2 H 0.635294 0.472353 0.273418
C82_2 C 0.6885(6) 0.4884(6) 0.4075(5)
H48_2 H 0.691450 0.524399 0.435534
C83_2 C 0.7192(5) 0.4132(7) 0.4237(5)
H49_2 H 0.739054 0.398175 0.461580
C91_2 C 0.4418(3) 0.7370(4) 0.2041(3)
C92_2 C 0.4411(4) 0.5840(4) 0.2076(3)
C93_2 C 0.4707(4) 0.5106(5) 0.2284(4)
H58_2 H 0.451380 0.461391 0.213529
O18_2 O 0.2568(5) 0.2333(6) 0.1370(4)
C94_2 C 0.3821(4) 0.7348(5) 0.1587(4)
C95_2 C 0.3818(4) 0.5885(5) 0.1655(4)
C96_2 C 0.3482(4) 0.8125(5) 0.1311(4)
C98_2 C 0.4694(4) 0.6617(4) 0.2270(4)
C99_2 C 0.3710(5) 0.8683(5) 0.1066(4)
H59_2 H 0.407981 0.859521 0.108960
C100_2 C 0.3525(4) 0.6625(4) 0.1420(4)
H60_2 H 0.312724 0.662059 0.114849
C101_2 C 0.4719(4) 0.8111(4) 0.2272(4)
H61_2 H 0.453453 0.860479 0.211496
C102_2 C 0.2879(5) 0.9563(6) 0.0807(4)
C103_2 C 0.3382(5) 0.9360(6) 0.0793(4)
H62_2 H 0.351088 0.968999 0.059136
C104_2 C 0.2804(5) 0.3646(6) 0.1149(5)
C105_2 C 0.3447(5) 0.5096(5) 0.1470(4)
C106_2 C 0.2632(5) 0.8994(6) 0.1011(4)
H63_2 H 0.225989 0.908781 0.097988
C107_2 C 0.2934(4) 0.8285(6) 0.1259(4)
H64_2 H 0.276214 0.790750 0.139563
C108_2 C 0.3119(5) 0.3846(6) 0.1734(4)
H65_2 H 0.311239 0.350031 0.200531
C109_2 C 0.2480(5) 0.2831(7) 0.0989(5)
C110_2 C 0.3438(5) 0.4577(6) 0.1886(5)
H66_2 H 0.364706 0.472353 0.226582
C111_2 C 0.3115(6) 0.4884(6) 0.0925(5)
H67_2 H 0.308550 0.524399 0.064466
C112_2 C 0.2808(5) 0.4132(7) 0.0763(5)
H68_2 H 0.260946 0.398175 0.038420
C3_2 C 0.1648(3) 0.9731(4) 0.2476(3)
H1_2 H 0.188574 0.926957 0.261931
H12_2 H 0.990645 0.178184 0.158606
loop_
_geom_bond_atom_site_label_1
_geom_bond_atom_site_label_2
_geom_bond_site_symmetry_1
_geom_bond_site_symmetry_2
C3 N1 1_555 1_555
H1 C3 1_555 1_555
Zn12 N1 1_555 1_555
Zn3 N3 1_555 1_555
O2 Zn2 1_555 1_555
O3 C14 1_555 1_555
O4 C17 1_555 1_555
N3 C2 1_555 1_555
N4 C1 1_555 1_555
C1 C2 1_555 1_555
O5 C14 1_555 1_555
O6 Zn3 1_555 1_555
C2 C15 1_555 1_555
N7 C15 1_555 1_555
C6 C16 1_555 1_555
C7 C9 1_555 1_555
O8 C80 1_555 1_555
O9 Zn3 1_555 1_555
H3 O9 1_555 1_555
H4 O9 1_555 1_555
O35 C43 1_555 1_555
C9 C30 1_555 1_555
N8 H5 1_555 1_555
C10 C12 1_555 1_555
C11 H8 1_555 1_555
C12 C24 1_555 1_555
C13 C37 1_555 1_555
C14 C36 1_555 1_555
C15 N8 1_555 1_555
C16 C30 1_555 1_555
C17 O2 1_555 1_555
C18 C21 1_555 1_555
C19 C6 1_555 1_555
C20 C6 1_555 1_555
H9 C20 1_555 1_555
C21 C10 1_555 1_555
H10 C21 1_555 1_555
C22 H11 1_555 1_555
O37 C43 1_555 1_555
C23 N4 1_555 1_555
C24 C20 1_555 1_555
H13 C24 1_555 1_555
C25 C11 1_555 1_555
C26 C29 1_555 1_555
C27 C22 1_555 1_555
H14 C27 1_555 1_555
C28 H15 1_555 1_555
C29 H16 1_555 1_555
C30 H17 1_555 1_555
C31 C18 1_555 1_555
C32 C7 1_555 1_555
H18 C32 1_555 1_555
C33 C17 1_555 1_555
C34 C10 1_555 1_555
C35 C28 1_555 1_555
H19 C35 1_555 1_555
C36 C22 1_555 1_555
O13 C80 1_555 1_555
C37 C41 1_555 1_555
C38 C9 1_555 1_555
C39 C26 1_555 1_555
C40 C16 1_555 1_555
C41 C46 1_555 1_555
C42 C12 1_555 1_555
C43 C53 1_555 1_555
O14 Zn3 1_555 1_555
C45 C13 1_555 1_555
C46 H20 1_555 1_555
C47 C33 1_555 1_555
H21 C47 1_555 1_555
C49 C37 1_555 1_555
H23 C49 1_555 1_555
C50 C13 1_555 1_555
H24 C50 1_555 1_555
C51 C34 1_555 1_555
H25 C51 1_555 1_555
C52 C38 1_555 1_555
H26 C52 1_555 1_555
C53 C56 1_555 1_555
C54 C34 1_555 1_555
H27 C54 1_555 1_555
C55 C40 1_555 1_555
H28 C55 1_555 1_555
C56 C54 1_555 1_555
H29 C56 1_555 1_555
C58 C36 1_555 1_555
H30 C58 1_555 1_555
C59 C60 1_555 1_555
C60 O6 1_555 1_555
C61 C46 1_555 1_555
H31 C61 1_555 1_555
C62 N8 1_555 1_555
H32 C62 1_555 1_555
H33 C62 1_555 1_555
C63 C51 1_555 1_555
H34 C63 1_555 1_555
C64 C31 1_555 1_555
H35 C64 1_555 1_555
C65 C76 1_555 1_555
C66 C39 1_555 1_555
C67 C57 1_555 1_555
H36 C67 1_555 1_555
C68 C41 1_555 1_555
H37 C68 1_555 1_555
C69 C59 1_555 1_555
H38 C69 1_555 1_555
C70 C62 1_555 1_555
C71 C70 1_555 1_555
H39 C71 1_555 1_555
C72 C71 1_555 1_555
H40 C72 1_555 1_555
C73 C72 1_555 1_555
H41 C73 1_555 1_555
C74 C73 1_555 1_555
H42 C74 1_555 1_555
C75 C70 1_555 1_555
H43 C75 1_555 1_555
C76 H44 1_555 1_555
C77 C31 1_555 1_555
H45 C77 1_555 1_555
C79 C59 1_555 1_555
H46 C79 1_555 1_555
C80 C65 1_555 1_555
C81 C66 1_555 1_555
H47 C81 1_555 1_555
C82 C66 1_555 1_555
H48 C82 1_555 1_555
C83 C65 1_555 1_555
H49 C83 1_555 1_555
O17 C109 1_555 1_555
C91 C94 1_555 1_555
C92 C93 1_555 1_555
C93 C29 1_555 1_555
H58 C93 1_555 1_555
O18 C109 1_555 1_555
C94 C96 1_555 1_555
C95 C92 1_555 1_555
C96 C99 1_555 1_555
C98 C45 1_555 1_555
C99 H59 1_555 1_555
C100 C94 1_555 1_555
H60 C100 1_555 1_555
C101 C50 1_555 1_555
H61 C101 1_555 1_555
C102 C103 1_555 1_555
C103 C99 1_555 1_555
H62 C103 1_555 1_555
C104 C108 1_555 1_555
C105 C95 1_555 1_555
C106 C102 1_555 1_555
H63 C106 1_555 1_555
C107 C96 1_555 1_555
H64 C107 1_555 1_555
C108 H65 1_555 1_555
C109 C104 1_555 1_555
C110 C105 1_555 1_555
H66 C110 1_555 1_555
C111 C105 1_555 1_555
H67 C111 1_555 1_555
C112 C104 1_555 1_555
H68 C112 1_555 1_555
Zn10 O3 1_555 1_555
Zn17 O8 1_555 1_555
Zn19 O17 1_555 1_555
N7 C23 1_555 1_555
C7 C19 1_555 1_555
C11 C32 1_555 1_555
C18 C25 1_555 1_555
C19 C42 1_555 1_555
C25 C42 1_555 1_555
C26 C45 1_555 1_555
C27 C38 1_555 1_555
C28 C33 1_555 1_555
C35 C40 1_555 1_555
C39 C49 1_555 1_555
O14 C60 1_555 1_555
C47 C55 1_555 1_555
C52 C58 1_555 1_555
C53 C63 1_555 1_555
C57 C61 1_555 1_555
C64 C69 1_555 1_555
C67 C68 1_555 1_555
C74 C75 1_555 1_555
C76 C81 1_555 1_555
C77 C79 1_555 1_555
C82 C83 1_555 1_555
C91 C98 1_555 1_555
C91 C101 1_555 1_555
C92 C98 1_555 1_555
C95 C100 1_555 1_555
C106 C107 1_555 1_555
C108 C110 1_555 1_555
C111 C112 1_555 1_555
Zn17 N5 1_555 1_555
O1 Zn10 1_555 1_555
N5 C4 1_555 1_555
O7 Zn17 1_555 1_555
C4 N2 1_555 1_555
H2 C4 1_555 1_555
C5 N2 1_555 1_555
C8 N5 1_555 1_555
O11 Zn17 1_555 1_555
H6 O11 1_555 1_555
H7 O11 1_555 1_555
C44 O7 1_555 1_555
O15 C44 1_555 1_555
C78 C8 1_555 1_555
C84 H50 1_555 1_555
C85 C84 1_555 1_555
C86 C85 1_555 1_555
H51 C86 1_555 1_555
C87 C86 1_555 1_555
H52 C87 1_555 1_555
C88 C87 1_555 1_555
H53 C88 1_555 1_555
C89 C84 1_555 1_555
H54 C89 1_555 1_555
N10 C78 1_555 1_555
H55 N10 1_555 1_555
C90 C85 1_555 1_555
H56 C90 1_555 1_555
H57 C90 1_555 1_555
O16 C97 1_555 1_555
O19 C97 1_555 1_555
Zn10 N16 1_555 1_555
C151 N16 1_555 1_555
H88 C151 1_555 1_555
Zn19 O16 1_555 1_555
N21 Zn10 1_555 1_555
C5 C8 1_555 1_555
N9 C78 1_555 1_555
C88 C89 1_555 1_555
N10 C90 1_555 1_555
C115 N11 1_555 1_555
H69 C115 1_555 1_555
Zn11 N11 1_555 1_555
O20 Zn6 1_555 1_555
O21 C125 1_555 1_555
O22 C128 1_555 1_555
O23 C125 1_555 1_555
C118 C127 1_555 1_555
C119 C121 1_555 1_555
C121 C139 1_555 1_555
C125 C145 1_555 1_555
C127 C139 1_555 1_555
C128 O20 1_555 1_555
C133 H79 1_555 1_555
C137 C133 1_555 1_555
H82 C137 1_555 1_555
C138 H83 1_555 1_555
C139 H84 1_555 1_555
C141 C119 1_555 1_555
H85 C141 1_555 1_555
C142 C128 1_555 1_555
C144 C138 1_555 1_555
C145 C133 1_555 1_555
C146 C121 1_555 1_555
C147 C127 1_555 1_555
C150 C142 1_555 1_555
H87 C150 1_555 1_555
C153 C146 1_555 1_555
H90 C153 1_555 1_555
C156 C147 1_555 1_555
H92 C156 1_555 1_555
C158 C145 1_555 1_555
H94 C158 1_555 1_555
Zn9 O21 1_555 1_555
C137 C146 1_555 1_555
C138 C142 1_555 1_555
C144 C147 1_555 1_555
C150 C156 1_555 1_555
C153 C158 1_555 1_555
Zn7 N13 1_555 1_555
N13 C114 1_555 1_555
N14 C113 1_555 1_555
C113 C114 1_555 1_555
O24 Zn7 1_555 1_555
C114 C126 1_555 1_555
N17 C126 1_555 1_555
O25 Zn7 1_555 1_555
H71 O25 1_555 1_555
H72 O25 1_555 1_555
O36 C149 1_555 1_555
N18 H73 1_555 1_555
C122 C124 1_555 1_555
C123 H76 1_555 1_555
C124 C135 1_555 1_555
C126 N18 1_555 1_555
C129 C132 1_555 1_555
H77 C131 1_555 1_555
C132 C122 1_555 1_555
H78 C132 1_555 1_555
O38 C149 1_555 1_555
C134 N14 1_555 1_555
C135 C131 1_555 1_555
H81 C135 1_555 1_555
C136 C123 1_555 1_555
C140 C129 1_555 1_555
C143 C122 1_555 1_555
C148 C124 1_555 1_555
C149 C154 1_555 1_555
O29 Zn7 1_555 1_555
C152 C143 1_555 1_555
H89 C152 1_555 1_555
C154 C157 1_555 1_555
C155 C143 1_555 1_555
H91 C155 1_555 1_555
C157 C155 1_555 1_555
H93 C157 1_555 1_555
C159 C160 1_555 1_555
C160 O24 1_555 1_555
C161 N18 1_555 1_555
H95 C161 1_555 1_555
H96 C161 1_555 1_555
C162 C152 1_555 1_555
H97 C162 1_555 1_555
C163 C140 1_555 1_555
H98 C163 1_555 1_555
C164 C159 1_555 1_555
H99 C164 1_555 1_555
C165 C161 1_555 1_555
C166 C165 1_555 1_555
H100 C166 1_555 1_555
C167 C166 1_555 1_555
H101 C167 1_555 1_555
C168 C167 1_555 1_555
H102 C168 1_555 1_555
C169 C168 1_555 1_555
H103 C169 1_555 1_555
C170 C165 1_555 1_555
H104 C170 1_555 1_555
C171 C140 1_555 1_555
H105 C171 1_555 1_555
C173 C159 1_555 1_555
H106 C173 1_555 1_555
N17 C134 1_555 1_555
C129 C136 1_555 1_555
C130 C148 1_555 1_555
C136 C148 1_555 1_555
O29 C160 1_555 1_555
C154 C162 1_555 1_555
C163 C164 1_555 1_555
C169 C170 1_555 1_555
C171 C173 1_555 1_555
Zn9 O1_2 1_555 1_555
N6 Zn9 1_555 1_555
C48 N6 1_555 1_555
H22 C48 1_555 1_555
N15 C116 1_555 1_555
C116 N12 1_555 1_555
H70 C116 1_555 1_555
C117 N12 1_555 1_555
C120 N15 1_555 1_555
C172 C120 1_555 1_555
C174 H107 1_555 1_555
C175 C174 1_555 1_555
N20 C172 1_555 1_555
H112 N20 1_555 1_555
C180 C175 1_555 1_555
H113 C180 1_555 1_555
H114 C180 1_555 1_555
N22 Zn9 1_555 1_555
C117 C120 1_555 1_555
N19 C172 1_555 1_555
N20 C180 1_555 1_555
O27 Zn19 1_555 1_555
H74 O27 1_555 1_555
H75 O27 1_555 1_555
H108 C176 1_555 1_555
C177 C176 1_555 1_555
H109 C177 1_555 1_555
C178 C177 1_555 1_555
H110 C178 1_555 1_555
H111 C179 1_555 1_555
C178 C179 1_555 1_555
O27_2 Zn8 1_555 1_555
H74_2 O27_2 1_555 1_555
H75_2 O27_2 1_555 1_555
H108_2 C176_2 1_555 1_555
C177_2 C176_2 1_555 1_555
H109_2 C177_2 1_555 1_555
C178_2 C177_2 1_555 1_555
H110_2 C178_2 1_555 1_555
H111_2 C179_2 1_555 1_555
O32 Zn8 1_555 1_555
O34 Zn8 1_555 1_555
C178_2 C179_2 1_555 1_555
Zn11 O1_3 1_555 1_555
N6_2 Zn11 1_555 1_555
C48_2 N6_2 1_555 1_555
H22_2 C48_2 1_555 1_555
N15_2 C116_2 1_555 1_555
C116_2 N12_2 1_555 1_555
H70_2 C116_2 1_555 1_555
C117_2 N12_2 1_555 1_555
C120_2 N15_2 1_555 1_555
C172_2 C120_2 1_555 1_555
C174_2 H107_2 1_555 1_555
C175_2 C174_2 1_555 1_555
N20_2 C172_2 1_555 1_555
H112_2 N20_2 1_555 1_555
C180_2 C175_2 1_555 1_555
H113_2 C180_2 1_555 1_555
H114_2 C180_2 1_555 1_555
O31 Zn11 1_555 1_555
C117_2 C120_2 1_555 1_555
N19_2 C172_2 1_555 1_555
N20_2 C180_2 1_555 1_555
Zn16 N13_2 1_555 1_555
N13_2 C114_2 1_555 1_555
N24 C113_2 1_555 1_555
C113_2 C114_2 1_555 1_555
O24_2 Zn16 1_555 1_555
C114_2 C126_2 1_555 1_555
N17_2 C126_2 1_555 1_555
O25_2 Zn16 1_555 1_555
H71_2 O25_2 1_555 1_555
H72_2 O25_2 1_555 1_555
O26 C149_2 1_555 1_555
N18_2 H73_2 1_555 1_555
C122_2 C124_2 1_555 1_555
C123_2 H76_2 1_555 1_555
C124_2 C135_2 1_555 1_555
C126_2 N18_2 1_555 1_555
C129_2 C132_2 1_555 1_555
H77_2 C131_2 1_555 1_555
C132_2 C122_2 1_555 1_555
H78_2 C132_2 1_555 1_555
O28 C149_2 1_555 1_555
C134_2 N24 1_555 1_555
C135_2 C131_2 1_555 1_555
H81_2 C135_2 1_555 1_555
C136_2 C123_2 1_555 1_555
C140_2 C129_2 1_555 1_555
C143_2 C122_2 1_555 1_555
C148_2 C124_2 1_555 1_555
C149_2 C154_2 1_555 1_555
O29_2 Zn16 1_555 1_555
C152_2 C143_2 1_555 1_555
H89_2 C152_2 1_555 1_555
C154_2 C157_2 1_555 1_555
C155_2 C143_2 1_555 1_555
H91_2 C155_2 1_555 1_555
C157_2 C155_2 1_555 1_555
H93_2 C157_2 1_555 1_555
C159_2 C160_2 1_555 1_555
C160_2 O24_2 1_555 1_555
C161_2 N18_2 1_555 1_555
H95_2 C161_2 1_555 1_555
H96_2 C161_2 1_555 1_555
C162_2 C152_2 1_555 1_555
H97_2 C162_2 1_555 1_555
C163_2 C140_2 1_555 1_555
H98_2 C163_2 1_555 1_555
C164_2 C159_2 1_555 1_555
H99_2 C164_2 1_555 1_555
C165_2 C161_2 1_555 1_555
C166_2 C165_2 1_555 1_555
H100_2 C166_2 1_555 1_555
C167_2 C166_2 1_555 1_555
H101_2 C167_2 1_555 1_555
C168_2 C167_2 1_555 1_555
H102_2 C168_2 1_555 1_555
C169_2 C168_2 1_555 1_555
H103_2 C169_2 1_555 1_555
C170_2 C165_2 1_555 1_555
H104_2 C170_2 1_555 1_555
C171_2 C140_2 1_555 1_555
H105_2 C171_2 1_555 1_555
C173_2 C159_2 1_555 1_555
H106_2 C173_2 1_555 1_555
N17_2 C134_2 1_555 1_555
C129_2 C136_2 1_555 1_555
C130_2 C148_2 1_555 1_555
C136_2 C148_2 1_555 1_555
O29_2 C160_2 1_555 1_555
C154_2 C162_2 1_555 1_555
C163_2 C164_2 1_555 1_555
C169_2 C170_2 1_555 1_555
C171_2 C173_2 1_555 1_555
O20_2 Zn14 1_555 1_555
O31 C125_2 1_555 1_555
O22_2 C128_2 1_555 1_555
O23_2 C125_2 1_555 1_555
C118_2 C127_2 1_555 1_555
C119_2 C121_2 1_555 1_555
C121_2 C139_2 1_555 1_555
C125_2 C145_2 1_555 1_555
C127_2 C139_2 1_555 1_555
C128_2 O20_2 1_555 1_555
C133_2 H79_2 1_555 1_555
C137_2 C133_2 1_555 1_555
H82_2 C137_2 1_555 1_555
C138_2 H83_2 1_555 1_555
C139_2 H84_2 1_555 1_555
C141_2 C119_2 1_555 1_555
H85_2 C141_2 1_555 1_555
C142_2 C128_2 1_555 1_555
C144_2 C138_2 1_555 1_555
C145_2 C133_2 1_555 1_555
C146_2 C121_2 1_555 1_555
C147_2 C127_2 1_555 1_555
C150_2 C142_2 1_555 1_555
H87_2 C150_2 1_555 1_555
C153_2 C146_2 1_555 1_555
H90_2 C153_2 1_555 1_555
C156_2 C147_2 1_555 1_555
H92_2 C156_2 1_555 1_555
C158_2 C145_2 1_555 1_555
H94_2 C158_2 1_555 1_555
C137_2 C146_2 1_555 1_555
C138_2 C142_2 1_555 1_555
C144_2 C147_2 1_555 1_555
C150_2 C156_2 1_555 1_555
C153_2 C158_2 1_555 1_555
C115_2 N22 1_555 1_555
H69_2 C115_2 1_555 1_555
Zn4 N5_2 1_555 1_555
O1_4 Zn12 1_555 1_555
N5_2 C4_2 1_555 1_555
O7_2 Zn4 1_555 1_555
C4_2 N2_2 1_555 1_555
H2_2 C4_2 1_555 1_555
C5_2 N2_2 1_555 1_555
C8_2 N5_2 1_555 1_555
O11_2 Zn4 1_555 1_555
H6_2 O11_2 1_555 1_555
H7_2 O11_2 1_555 1_555
C44_2 O7_2 1_555 1_555
O15_2 C44_2 1_555 1_555
C78_2 C8_2 1_555 1_555
C84_2 H50_2 1_555 1_555
C85_2 C84_2 1_555 1_555
C86_2 C85_2 1_555 1_555
H51_2 C86_2 1_555 1_555
C87_2 C86_2 1_555 1_555
H52_2 C87_2 1_555 1_555
C88_2 C87_2 1_555 1_555
H53_2 C88_2 1_555 1_555
C89_2 C84_2 1_555 1_555
H54_2 C89_2 1_555 1_555
N10_2 C78_2 1_555 1_555
H55_2 N10_2 1_555 1_555
C90_2 C85_2 1_555 1_555
H56_2 C90_2 1_555 1_555
H57_2 C90_2 1_555 1_555
O32 C97_2 1_555 1_555
O19_2 C97_2 1_555 1_555
Zn12 N16_2 1_555 1_555
C151_2 N16_2 1_555 1_555
H88_2 C151_2 1_555 1_555
O30 Zn12 1_555 1_555
O33 Zn4 1_555 1_555
C5_2 C8_2 1_555 1_555
N9_2 C78_2 1_555 1_555
C88_2 C89_2 1_555 1_555
N10_2 C90_2 1_555 1_555
Zn15 N3_2 1_555 1_555
O2_2 Zn13 1_555 1_555
O30 C14_2 1_555 1_555
O4_2 C17_2 1_555 1_555
N3_2 C2_2 1_555 1_555
N23 C1_2 1_555 1_555
C1_2 C2_2 1_555 1_555
O5_2 C14_2 1_555 1_555
O6_2 Zn15 1_555 1_555
C2_2 C15_2 1_555 1_555
N7_2 C15_2 1_555 1_555
C6_2 C16_2 1_555 1_555
C7_2 C9_2 1_555 1_555
O33 C80_2 1_555 1_555
O9_2 Zn15 1_555 1_555
H3_2 O9_2 1_555 1_555
H4_2 O9_2 1_555 1_555
O10 C43_2 1_555 1_555
C9_2 C30_2 1_555 1_555
N8_2 H5_2 1_555 1_555
C10_2 C12_2 1_555 1_555
C11_2 H8_2 1_555 1_555
C12_2 C24_2 1_555 1_555
C13_2 C37_2 1_555 1_555
C14_2 C36_2 1_555 1_555
C15_2 N8_2 1_555 1_555
C16_2 C30_2 1_555 1_555
C17_2 O2_2 1_555 1_555
C18_2 C21_2 1_555 1_555
C19_2 C6_2 1_555 1_555
C20_2 C6_2 1_555 1_555
H9_2 C20_2 1_555 1_555
C21_2 C10_2 1_555 1_555
H10_2 C21_2 1_555 1_555
C22_2 H11_2 1_555 1_555
O12 C43_2 1_555 1_555
C23_2 N23 1_555 1_555
C24_2 C20_2 1_555 1_555
H13_2 C24_2 1_555 1_555
C25_2 C11_2 1_555 1_555
C26_2 C29_2 1_555 1_555
C27_2 C22_2 1_555 1_555
H14_2 C27_2 1_555 1_555
C28_2 H15_2 1_555 1_555
C29_2 H16_2 1_555 1_555
C30_2 H17_2 1_555 1_555
C31_2 C18_2 1_555 1_555
C32_2 C7_2 1_555 1_555
H18_2 C32_2 1_555 1_555
C33_2 C17_2 1_555 1_555
C34_2 C10_2 1_555 1_555
C35_2 C28_2 1_555 1_555
H19_2 C35_2 1_555 1_555
C36_2 C22_2 1_555 1_555
O13_2 C80_2 1_555 1_555
C37_2 C41_2 1_555 1_555
C38_2 C9_2 1_555 1_555
C39_2 C26_2 1_555 1_555
C40_2 C16_2 1_555 1_555
C41_2 C46_2 1_555 1_555
C42_2 C12_2 1_555 1_555
C43_2 C53_2 1_555 1_555
O14_2 Zn15 1_555 1_555
C45_2 C13_2 1_555 1_555
C46_2 H20_2 1_555 1_555
C47_2 C33_2 1_555 1_555
H21_2 C47_2 1_555 1_555
C49_2 C37_2 1_555 1_555
H23_2 C49_2 1_555 1_555
C50_2 C13_2 1_555 1_555
H24_2 C50_2 1_555 1_555
C51_2 C34_2 1_555 1_555
H25_2 C51_2 1_555 1_555
C52_2 C38_2 1_555 1_555
H26_2 C52_2 1_555 1_555
C53_2 C56_2 1_555 1_555
C54_2 C34_2 1_555 1_555
H27_2 C54_2 1_555 1_555
C55_2 C40_2 1_555 1_555
H28_2 C55_2 1_555 1_555
C56_2 C54_2 1_555 1_555
H29_2 C56_2 1_555 1_555
C58_2 C36_2 1_555 1_555
H30_2 C58_2 1_555 1_555
C59_2 C60_2 1_555 1_555
C60_2 O6_2 1_555 1_555
C61_2 C46_2 1_555 1_555
H31_2 C61_2 1_555 1_555
C62_2 N8_2 1_555 1_555
H32_2 C62_2 1_555 1_555
H33_2 C62_2 1_555 1_555
C63_2 C51_2 1_555 1_555
H34_2 C63_2 1_555 1_555
C64_2 C31_2 1_555 1_555
H35_2 C64_2 1_555 1_555
C65_2 C76_2 1_555 1_555
C66_2 C39_2 1_555 1_555
C67_2 C57_2 1_555 1_555
H36_2 C67_2 1_555 1_555
C68_2 C41_2 1_555 1_555
H37_2 C68_2 1_555 1_555
C69_2 C59_2 1_555 1_555
H38_2 C69_2 1_555 1_555
C70_2 C62_2 1_555 1_555
C71_2 C70_2 1_555 1_555
H39_2 C71_2 1_555 1_555
C72_2 C71_2 1_555 1_555
H40_2 C72_2 1_555 1_555
C73_2 C72_2 1_555 1_555
H41_2 C73_2 1_555 1_555
C74_2 C73_2 1_555 1_555
H42_2 C74_2 1_555 1_555
C75_2 C70_2 1_555 1_555
H43_2 C75_2 1_555 1_555
C76_2 H44_2 1_555 1_555
C77_2 C31_2 1_555 1_555
H45_2 C77_2 1_555 1_555
C79_2 C59_2 1_555 1_555
H46_2 C79_2 1_555 1_555
C80_2 C65_2 1_555 1_555
C81_2 C66_2 1_555 1_555
H47_2 C81_2 1_555 1_555
C82_2 C66_2 1_555 1_555
H48_2 C82_2 1_555 1_555
C83_2 C65_2 1_555 1_555
H49_2 C83_2 1_555 1_555
O34 C109_2 1_555 1_555
C91_2 C94_2 1_555 1_555
C92_2 C93_2 1_555 1_555
C93_2 C29_2 1_555 1_555
H58_2 C93_2 1_555 1_555
O18_2 C109_2 1_555 1_555
C94_2 C96_2 1_555 1_555
C95_2 C92_2 1_555 1_555
C96_2 C99_2 1_555 1_555
C98_2 C45_2 1_555 1_555
C99_2 H59_2 1_555 1_555
C100_2 C94_2 1_555 1_555
H60_2 C100_2 1_555 1_555
C101_2 C50_2 1_555 1_555
H61_2 C101_2 1_555 1_555
C102_2 C103_2 1_555 1_555
C103_2 C99_2 1_555 1_555
H62_2 C103_2 1_555 1_555
C104_2 C108_2 1_555 1_555
C105_2 C95_2 1_555 1_555
C106_2 C102_2 1_555 1_555
H63_2 C106_2 1_555 1_555
C107_2 C96_2 1_555 1_555
H64_2 C107_2 1_555 1_555
C108_2 H65_2 1_555 1_555
C109_2 C104_2 1_555 1_555
C110_2 C105_2 1_555 1_555
H66_2 C110_2 1_555 1_555
C111_2 C105_2 1_555 1_555
H67_2 C111_2 1_555 1_555
C112_2 C104_2 1_555 1_555
H68_2 C112_2 1_555 1_555
N7_2 C23_2 1_555 1_555
C7_2 C19_2 1_555 1_555
C11_2 C32_2 1_555 1_555
C18_2 C25_2 1_555 1_555
C19_2 C42_2 1_555 1_555
C25_2 C42_2 1_555 1_555
C26_2 C45_2 1_555 1_555
C27_2 C38_2 1_555 1_555
C28_2 C33_2 1_555 1_555
C35_2 C40_2 1_555 1_555
C39_2 C49_2 1_555 1_555
O14_2 C60_2 1_555 1_555
C47_2 C55_2 1_555 1_555
C52_2 C58_2 1_555 1_555
C53_2 C63_2 1_555 1_555
C57_2 C61_2 1_555 1_555
C64_2 C69_2 1_555 1_555
C67_2 C68_2 1_555 1_555
C74_2 C75_2 1_555 1_555
C76_2 C81_2 1_555 1_555
C77_2 C79_2 1_555 1_555
C82_2 C83_2 1_555 1_555
C91_2 C98_2 1_555 1_555
C91_2 C101_2 1_555 1_555
C92_2 C98_2 1_555 1_555
C95_2 C100_2 1_555 1_555
C106_2 C107_2 1_555 1_555
C108_2 C110_2 1_555 1_555
C111_2 C112_2 1_555 1_555
C3_2 N21 1_555 1_555
H1_2 C3_2 1_555 1_555

#END
