
###############################################################################
#
# This file contains modified crystal structure data generated from the
# MOF subset of the Cambridge Structural Database (CSD) v543 
# hosted by the Cambridge Crystallographic Data Centre (CCDC).
#
# This work is licensed under the Creative Commons
# Attribution-NonCommercial-ShareAlike 4.0 International License.
# To view a copy of this license, visit
# http://creativecommons.org/licenses/by-nc-sa/4.0/
# or send a letter to
# Creative Commons, PO Box 1866, Mountain View, CA 94042, USA.
#
# CIF created using the CSD Python API on 29 September 2022
# The structure has been converted into the P1 space group
# The structure has a 3D framework
# The original CSD entry FOMNAZ is in the orthorhombic crystal system
# The framework has been calculated to contain at least 10.0% void space
# The void calculation uses a probe of radius 1.32A, grid spacing 0.4
# H atom positions have been added when not included in the experimental data
#
###############################################################################

data_FOMNAZ
_chemical_formula_moiety         '(C192 H96 Al18 N48 O62)n'
_symmetry_cell_setting           triclinic
_symmetry_space_group_name_H-M   'P 1'
_symmetry_Int_Tables_number      1
_space_group_name_Hall           'P 1'
loop_
_symmetry_equiv_pos_site_id
_symmetry_equiv_pos_as_xyz
1 x,y,z
_cell_length_a                   37.3399(8)
_cell_length_b                   64.2905(5)
_cell_length_c                   6.5329(5)
_cell_angle_alpha                90
_cell_angle_beta                 90
_cell_angle_gamma                90
_cell_volume                     15682.9
loop_
_atom_site_label
_atom_site_type_symbol
_atom_site_fract_x
_atom_site_fract_y
_atom_site_fract_z
_atom_site_U_iso_or_equiv
_atom_site_thermal_displace_type
Al2 Al 0.000 0.000 0 0.0127 Uiso
Al4 Al 0.750 0.250 0.000 0.0127 Uiso
Al5 Al 0.250 0.250 0.000 0.0127 Uiso
O25 O -0.000 0.0126 0.250 0.0380 Uiso
H1 H 0.423143 0.241397 0.0813275 . .
H4 H 0.357082 0.242074 0.0805969 . .
H7 H 0.20157 0.19368 0.0807569 . .
H8 H 0.170884 0.15973 0.0810286 . .
H9 H 0.0674009 0.0486083 0.0801002 . .
H11 H 0.0981019 0.0825038 0.0808271 . .
H15 H 0.642918 0.242074 0.0805969 . .
H16 H 0.576857 0.241397 0.0813275 . .
O1 O 0.2325 0.2234 0.5825 0.0380 Uiso
O2 O 0.0375 0.0178 0.9141 0.0380 Uiso
O3 O 0.2965 0.2414 0.5822 0.0380 Uiso
N1 N 0.482 0.2423 0.5623 0.0380 Uiso
N2 N 0.1418 0.1306 0.9366 0.0380 Uiso
N3 N 0.1269 0.1117 0.9368 0.0380 Uiso
C1 C 0.3716 0.2416 0.9361 0.0380 Uiso
C2 C 0.4084 0.2414 0.9375 0.0380 Uiso
C3 C 0.1952 0.1861 0.5638 0.0380 Uiso
C4 C 0.1779 0.1673 0.5626 0.0380 Uiso
C5 C 0.0737 0.0562 0.5645 0.0380 Uiso
C6 C 0.091 0.075 0.563 0.0380 Uiso
Al1 Al 0.250 0.250 0.500 0.0127 Uiso
Al2_2 Al 0.000 0.000 1 0.0127 Uiso
O4 O 0.2371 0.2628 0.750 0.0380 Uiso
C7 C 0.466 0.2413 0.750 0.0380 Uiso
C8 C 0.4265 0.2412 0.750 0.0380 Uiso
C9 C 0.3523 0.2412 0.750 0.0380 Uiso
C10 C 0.1509 0.1383 0.750 0.0380 Uiso
C11 C 0.1695 0.1581 0.750 0.0380 Uiso
C12 C 0.2049 0.1958 0.750 0.0380 Uiso
C13 C 0.1178 0.104 0.750 0.0380 Uiso
C14 C 0.0993 0.0843 0.750 0.0380 Uiso
C15 C 0.0639 0.0465 0.750 0.0380 Uiso
C16 C 0.2266 0.2146 0.750 0.0380 Uiso
C17 C 0.0455 0.0266 0.750 0.0380 Uiso
C18 C 0.3125 0.242 0.750 0.0380 Uiso
O6 O 0.2325 0.2234 0.9175 0.0380 Uiso
O7 O 0.0375 0.0178 0.5859 0.0380 Uiso
N4 N 0.1418 0.1306 0.5634 0.0380 Uiso
N5 N 0.1269 0.1117 0.5632 0.0380 Uiso
C19 C 0.1952 0.1861 0.9362 0.0380 Uiso
C20 C 0.1779 0.1673 0.9374 0.0380 Uiso
C21 C 0.0737 0.0562 0.9355 0.0380 Uiso
C22 C 0.091 0.075 0.937 0.0380 Uiso
O8 O 0.2965 0.2414 0.9178 0.0380 Uiso
N6 N 0.482 0.2423 0.9377 0.0380 Uiso
C23 C 0.3716 0.2416 0.5639 0.0380 Uiso
C24 C 0.4084 0.2414 0.5625 0.0380 Uiso
O9 O 0.7035 0.2414 0.5822 0.0380 Uiso
N7 N 0.518 0.2423 0.5623 0.0380 Uiso
C25 C 0.6284 0.2416 0.9361 0.0380 Uiso
C26 C 0.5916 0.2414 0.9375 0.0380 Uiso
C27 C 0.534 0.2413 0.750 0.0380 Uiso
C28 C 0.5735 0.2412 0.750 0.0380 Uiso
C29 C 0.6477 0.2412 0.750 0.0380 Uiso
C30 C 0.6875 0.242 0.750 0.0380 Uiso
O10 O 0.7035 0.2414 0.9178 0.0380 Uiso
N8 N 0.518 0.2423 0.9377 0.0380 Uiso
C31 C 0.6284 0.2416 0.5639 0.0380 Uiso
C32 C 0.5916 0.2414 0.5625 0.0380 Uiso
O16 O 0.2675 0.2766 0.4175 0.0380 Uiso
O21 O 0.2035 0.2586 0.4178 0.0380 Uiso
Al4_2 Al 0.750 0.250 1.000 0.0127 Uiso
Al5_2 Al 0.250 0.250 1.000 0.0127 Uiso
Al7 Al 0.750 0.250 0.500 0.0127 Uiso
Al8 Al 0.000 0.000 0.5 0.0127 Uiso
O23 O 0.2629 0.2372 0.250 0.0380 Uiso
H2 H 0.0674009 0.0486083 0.4199 . .
H3 H 0.170884 0.15973 0.418971 . .
H5 H 0.0981019 0.0825038 0.419173 . .
H6 H 0.20157 0.19368 0.419243 . .
H12 H 0.576857 0.241397 0.418673 . .
H13 H 0.642918 0.242074 0.419403 . .
H17 H 0.423143 0.241397 0.418673 . .
H19 H 0.357082 0.242074 0.419403 . .
Al2_3 Al 0.000 1.000 0 0.0127 Uiso
O18 O 0.0375 0.9822 0.0859 0.0380 Uiso
Al2_4 Al 0.000 1.000 1 0.0127 Uiso
O5 O -0.000 0.9874 0.750 0.0380 Uiso
Al8_2 Al 0.000 1.000 0.5 0.0127 Uiso
Al2_5 Al 1.000 0.000 0 0.0127 Uiso
O17 O 0.7325 0.2766 0.0825 0.0380 Uiso
O22 O 0.7965 0.2586 0.0822 0.0380 Uiso
O24 O 0.7371 0.2372 0.250 0.0380 Uiso
O25_2 O 1.000 0.0126 0.250 0.0380 Uiso
H10 H 0.901898 0.0825038 0.0808271 . .
H14 H 0.932599 0.0486083 0.0801002 . .
H18 H 0.829116 0.15973 0.0810286 . .
H20 H 0.79843 0.19368 0.0807569 . .
Al2_6 Al 1.000 0.000 1 0.0127 Uiso
O11 O 0.7675 0.2234 0.9175 0.0380 Uiso
O12 O 0.9625 0.0178 0.5859 0.0380 Uiso
N9 N 0.8582 0.1306 0.5634 0.0380 Uiso
N10 N 0.8731 0.1117 0.5632 0.0380 Uiso
C33 C 0.8048 0.1861 0.9362 0.0380 Uiso
C34 C 0.8221 0.1673 0.9374 0.0380 Uiso
C35 C 0.9263 0.0562 0.9355 0.0380 Uiso
C36 C 0.909 0.075 0.937 0.0380 Uiso
O13 O 0.7629 0.2628 0.750 0.0380 Uiso
C37 C 0.8491 0.1383 0.750 0.0380 Uiso
C38 C 0.8305 0.1581 0.750 0.0380 Uiso
C39 C 0.7951 0.1958 0.750 0.0380 Uiso
C40 C 0.8822 0.104 0.750 0.0380 Uiso
C41 C 0.9007 0.0843 0.750 0.0380 Uiso
C42 C 0.9361 0.0465 0.750 0.0380 Uiso
C43 C 0.7734 0.2146 0.750 0.0380 Uiso
C44 C 0.9545 0.0266 0.750 0.0380 Uiso
O14 O 0.7675 0.2234 0.5825 0.0380 Uiso
O15 O 0.9625 0.0178 0.9141 0.0380 Uiso
N11 N 0.8582 0.1306 0.9366 0.0380 Uiso
N12 N 0.8731 0.1117 0.9368 0.0380 Uiso
C45 C 0.8048 0.1861 0.5638 0.0380 Uiso
C46 C 0.8221 0.1673 0.5626 0.0380 Uiso
C47 C 0.9263 0.0562 0.5645 0.0380 Uiso
C48 C 0.909 0.075 0.563 0.0380 Uiso
Al8_3 Al 1.000 0.000 0.5 0.0127 Uiso
H21 H 0.829116 0.15973 0.418971 . .
H22 H 0.79843 0.19368 0.419243 . .
H23 H 0.932599 0.0486083 0.4199 . .
H24 H 0.901898 0.0825038 0.419173 . .
Al2_7 Al 1.000 1.000 0 0.0127 Uiso
O19 O 0.9625 0.9822 0.0859 0.0380 Uiso
Al2_8 Al 1.000 1.000 1 0.0127 Uiso
O5_2 O 1.000 0.9874 0.750 0.0380 Uiso
Al8_4 Al 1.000 1.000 0.5 0.0127 Uiso
O11_2 O 0.2325 0.7766 0.4175 0.0380 Uiso
N9_2 N 0.1418 0.8694 0.0634 0.0380 Uiso
N10_2 N 0.1269 0.8883 0.0632 0.0380 Uiso
C33_2 C 0.1952 0.8139 0.4362 0.0380 Uiso
C34_2 C 0.1779 0.8327 0.4374 0.0380 Uiso
C35_2 C 0.0737 0.9438 0.4355 0.0380 Uiso
C36_2 C 0.091 0.925 0.437 0.0380 Uiso
Al3 Al 0.250 0.750 0.500 0.0127 Uiso
O13_2 O 0.2371 0.7372 0.250 0.0380 Uiso
C37_2 C 0.1509 0.8617 0.250 0.0380 Uiso
C38_2 C 0.1695 0.8419 0.250 0.0380 Uiso
C39_2 C 0.2049 0.8042 0.250 0.0380 Uiso
C40_2 C 0.1178 0.896 0.250 0.0380 Uiso
C41_2 C 0.0993 0.9157 0.250 0.0380 Uiso
C42_2 C 0.0639 0.9535 0.250 0.0380 Uiso
C43_2 C 0.2266 0.7854 0.250 0.0380 Uiso
C44_2 C 0.0455 0.9734 0.250 0.0380 Uiso
O14_2 O 0.2325 0.7766 0.0825 0.0380 Uiso
O15_2 O 0.0375 0.9822 0.4141 0.0380 Uiso
N11_2 N 0.1418 0.8694 0.4366 0.0380 Uiso
N12_2 N 0.1269 0.8883 0.4368 0.0380 Uiso
C45_2 C 0.1952 0.8139 0.0638 0.0380 Uiso
C46_2 C 0.1779 0.8327 0.0626 0.0380 Uiso
C47_2 C 0.0737 0.9438 0.0645 0.0380 Uiso
C48_2 C 0.091 0.925 0.063 0.0380 Uiso
O17_2 O 0.2675 0.7234 0.5825 0.0380 Uiso
O20 O 0.2965 0.7586 0.4178 0.0380 Uiso
O22_2 O 0.2035 0.7414 0.5822 0.0380 Uiso
Al6 Al 0.250 0.750 0.000 0.0127 Uiso
O24_2 O 0.2629 0.7628 0.750 0.0380 Uiso
H10_2 H 0.0981019 0.917496 0.580827 . .
H14_2 H 0.0674009 0.951392 0.5801 . .
H18_2 H 0.170884 0.84027 0.581029 . .
H20_2 H 0.20157 0.80632 0.580757 . .
Al6_2 Al 0.250 0.750 1.000 0.0127 Uiso
H21_2 H 0.170884 0.84027 0.918971 . .
H22_2 H 0.20157 0.80632 0.919243 . .
H23_2 H 0.0674009 0.951392 0.9199 . .
H24_2 H 0.0981019 0.917496 0.919173 . .
O1_2 O 0.7675 0.7766 0.0825 0.0380 Uiso
O2_2 O 0.9625 0.9822 0.4141 0.0380 Uiso
O3_2 O 0.7035 0.7586 0.0822 0.0380 Uiso
N1_2 N 0.518 0.7577 0.0623 0.0380 Uiso
N2_2 N 0.8582 0.8694 0.4366 0.0380 Uiso
N3_2 N 0.8731 0.8883 0.4368 0.0380 Uiso
C1_2 C 0.6284 0.7584 0.4361 0.0380 Uiso
C2_2 C 0.5916 0.7586 0.4375 0.0380 Uiso
C3_2 C 0.8048 0.8139 0.0638 0.0380 Uiso
C4_2 C 0.8221 0.8327 0.0626 0.0380 Uiso
C5_2 C 0.9263 0.9438 0.0645 0.0380 Uiso
C6_2 C 0.909 0.925 0.063 0.0380 Uiso
Al1_2 Al 0.750 0.750 0.000 0.0127 Uiso
O4_2 O 0.7629 0.7372 0.250 0.0380 Uiso
C7_2 C 0.534 0.7587 0.250 0.0380 Uiso
C8_2 C 0.5735 0.7588 0.250 0.0380 Uiso
C9_2 C 0.6477 0.7588 0.250 0.0380 Uiso
C10_2 C 0.8491 0.8617 0.250 0.0380 Uiso
C11_2 C 0.8305 0.8419 0.250 0.0380 Uiso
C12_2 C 0.7951 0.8042 0.250 0.0380 Uiso
C13_2 C 0.8822 0.896 0.250 0.0380 Uiso
C14_2 C 0.9007 0.9157 0.250 0.0380 Uiso
C15_2 C 0.9361 0.9535 0.250 0.0380 Uiso
C16_2 C 0.7734 0.7854 0.250 0.0380 Uiso
C17_2 C 0.9545 0.9734 0.250 0.0380 Uiso
C18_2 C 0.6875 0.758 0.250 0.0380 Uiso
O6_2 O 0.7675 0.7766 0.4175 0.0380 Uiso
N4_2 N 0.8582 0.8694 0.0634 0.0380 Uiso
N5_2 N 0.8731 0.8883 0.0632 0.0380 Uiso
C19_2 C 0.8048 0.8139 0.4362 0.0380 Uiso
C20_2 C 0.8221 0.8327 0.4374 0.0380 Uiso
C21_2 C 0.9263 0.9438 0.4355 0.0380 Uiso
C22_2 C 0.909 0.925 0.437 0.0380 Uiso
O8_2 O 0.7035 0.7586 0.4178 0.0380 Uiso
N6_2 N 0.518 0.7577 0.4377 0.0380 Uiso
C23_2 C 0.6284 0.7584 0.0639 0.0380 Uiso
C24_2 C 0.5916 0.7586 0.0625 0.0380 Uiso
O9_2 O 0.2965 0.7586 0.0822 0.0380 Uiso
N7_2 N 0.482 0.7577 0.0623 0.0380 Uiso
C25_2 C 0.3716 0.7584 0.4361 0.0380 Uiso
C26_2 C 0.4084 0.7586 0.4375 0.0380 Uiso
C27_2 C 0.466 0.7587 0.250 0.0380 Uiso
C28_2 C 0.4265 0.7588 0.250 0.0380 Uiso
C29_2 C 0.3523 0.7588 0.250 0.0380 Uiso
C30_2 C 0.3125 0.758 0.250 0.0380 Uiso
N8_2 N 0.482 0.7577 0.4377 0.0380 Uiso
C31_2 C 0.3716 0.7584 0.0639 0.0380 Uiso
C32_2 C 0.4084 0.7586 0.0625 0.0380 Uiso
Al5_3 Al 0.750 0.750 0.500 0.0127 Uiso
H1_2 H 0.576857 0.758603 0.581327 . .
H4_2 H 0.642918 0.757926 0.580597 . .
H7_2 H 0.79843 0.80632 0.580757 . .
H8_2 H 0.829116 0.84027 0.581029 . .
H9_2 H 0.932599 0.951392 0.5801 . .
H11_2 H 0.901898 0.917496 0.580827 . .
H15_2 H 0.357082 0.757926 0.580597 . .
H16_2 H 0.423143 0.758603 0.581327 . .
Al1_3 Al 0.750 0.750 1.000 0.0127 Uiso
O16_2 O 0.7325 0.7234 0.9175 0.0380 Uiso
O21_2 O 0.7965 0.7414 0.9178 0.0380 Uiso
O23_2 O 0.7371 0.7628 0.750 0.0380 Uiso
H2_2 H 0.932599 0.951392 0.9199 . .
H3_2 H 0.829116 0.84027 0.918971 . .
H5_2 H 0.901898 0.917496 0.919173 . .
H6_2 H 0.79843 0.80632 0.919243 . .
H12_2 H 0.423143 0.758603 0.918673 . .
H13_2 H 0.357082 0.757926 0.919403 . .
H17_2 H 0.576857 0.758603 0.918673 . .
H19_2 H 0.642918 0.757926 0.919403 . .
H15_3 H 0.142918 0.742074 0.0805969 . .
H16_3 H 0.076857 0.741397 0.0813275 . .
N7_3 N 0.018 0.7423 0.5623 0.0380 Uiso
C25_3 C 0.1284 0.7416 0.9361 0.0380 Uiso
C26_3 C 0.0916 0.7414 0.9375 0.0380 Uiso
C27_3 C 0.034 0.7413 0.750 0.0380 Uiso
C28_3 C 0.0735 0.7412 0.750 0.0380 Uiso
C29_3 C 0.1477 0.7412 0.750 0.0380 Uiso
C30_3 C 0.1875 0.742 0.750 0.0380 Uiso
O10_2 O 0.2035 0.7414 0.9178 0.0380 Uiso
N8_3 N 0.018 0.7423 0.9377 0.0380 Uiso
C31_3 C 0.1284 0.7416 0.5639 0.0380 Uiso
C32_3 C 0.0916 0.7414 0.5625 0.0380 Uiso
H12_3 H 0.076857 0.741397 0.418673 . .
H13_3 H 0.142918 0.742074 0.419403 . .
Al2_9 Al 0.500 0.500 0 0.0127 Uiso
O18_2 O 0.5375 0.4822 0.0859 0.0380 Uiso
O19_2 O 0.4625 0.4822 0.0859 0.0380 Uiso
O25_3 O 0.500 0.5126 0.250 0.0380 Uiso
H1_3 H 0.923143 0.741397 0.0813275 . .
H4_3 H 0.857082 0.742074 0.0805969 . .
H7_3 H 0.70157 0.69368 0.0807569 . .
H8_3 H 0.670884 0.65973 0.0810286 . .
H9_3 H 0.567401 0.548608 0.0801002 . .
H10_3 H 0.401898 0.582504 0.0808271 . .
H11_3 H 0.598102 0.582504 0.0808271 . .
H14_3 H 0.432599 0.548608 0.0801002 . .
H18_3 H 0.329116 0.65973 0.0810286 . .
H20_3 H 0.29843 0.69368 0.0807569 . .
O1_3 O 0.7325 0.7234 0.5825 0.0380 Uiso
O2_3 O 0.5375 0.5178 0.9141 0.0380 Uiso
O3_3 O 0.7965 0.7414 0.5822 0.0380 Uiso
N1_3 N 0.982 0.7423 0.5623 0.0380 Uiso
N2_3 N 0.6418 0.6306 0.9366 0.0380 Uiso
N3_3 N 0.6269 0.6117 0.9368 0.0380 Uiso
C1_3 C 0.8716 0.7416 0.9361 0.0380 Uiso
C2_3 C 0.9084 0.7414 0.9375 0.0380 Uiso
C3_3 C 0.6952 0.6861 0.5638 0.0380 Uiso
C4_3 C 0.6779 0.6673 0.5626 0.0380 Uiso
C5_3 C 0.5737 0.5562 0.5645 0.0380 Uiso
C6_3 C 0.591 0.575 0.563 0.0380 Uiso
Al2_10 Al 0.500 0.500 1 0.0127 Uiso
C7_3 C 0.966 0.7413 0.750 0.0380 Uiso
C8_3 C 0.9265 0.7412 0.750 0.0380 Uiso
C9_3 C 0.8523 0.7412 0.750 0.0380 Uiso
C10_3 C 0.6509 0.6383 0.750 0.0380 Uiso
C11_3 C 0.6695 0.6581 0.750 0.0380 Uiso
C12_3 C 0.7049 0.6958 0.750 0.0380 Uiso
C13_3 C 0.6178 0.604 0.750 0.0380 Uiso
C14_3 C 0.5993 0.5843 0.750 0.0380 Uiso
C15_3 C 0.5639 0.5465 0.750 0.0380 Uiso
C16_3 C 0.7266 0.7146 0.750 0.0380 Uiso
C17_3 C 0.5455 0.5266 0.750 0.0380 Uiso
C18_3 C 0.8125 0.742 0.750 0.0380 Uiso
O5_3 O 0.500 0.4874 0.750 0.0380 Uiso
O7_2 O 0.5375 0.5178 0.5859 0.0380 Uiso
N4_3 N 0.6418 0.6306 0.5634 0.0380 Uiso
N5_3 N 0.6269 0.6117 0.5632 0.0380 Uiso
C19_3 C 0.6952 0.6861 0.9362 0.0380 Uiso
C20_3 C 0.6779 0.6673 0.9374 0.0380 Uiso
C21_3 C 0.5737 0.5562 0.9355 0.0380 Uiso
C22_3 C 0.591 0.575 0.937 0.0380 Uiso
N6_3 N 0.982 0.7423 0.9377 0.0380 Uiso
C23_3 C 0.8716 0.7416 0.5639 0.0380 Uiso
C24_3 C 0.9084 0.7414 0.5625 0.0380 Uiso
O11_3 O 0.2675 0.7234 0.9175 0.0380 Uiso
O12_2 O 0.4625 0.5178 0.5859 0.0380 Uiso
N9_3 N 0.3582 0.6306 0.5634 0.0380 Uiso
N10_3 N 0.3731 0.6117 0.5632 0.0380 Uiso
C33_3 C 0.3048 0.6861 0.9362 0.0380 Uiso
C34_3 C 0.3221 0.6673 0.9374 0.0380 Uiso
C35_3 C 0.4263 0.5562 0.9355 0.0380 Uiso
C36_3 C 0.409 0.575 0.937 0.0380 Uiso
C37_3 C 0.3491 0.6383 0.750 0.0380 Uiso
C38_3 C 0.3305 0.6581 0.750 0.0380 Uiso
C39_3 C 0.2951 0.6958 0.750 0.0380 Uiso
C40_3 C 0.3822 0.604 0.750 0.0380 Uiso
C41_3 C 0.4007 0.5843 0.750 0.0380 Uiso
C42_3 C 0.4361 0.5465 0.750 0.0380 Uiso
C43_3 C 0.2734 0.7146 0.750 0.0380 Uiso
C44_3 C 0.4545 0.5266 0.750 0.0380 Uiso
O15_3 O 0.4625 0.5178 0.9141 0.0380 Uiso
N11_3 N 0.3582 0.6306 0.9366 0.0380 Uiso
N12_3 N 0.3731 0.6117 0.9368 0.0380 Uiso
C45_3 C 0.3048 0.6861 0.5638 0.0380 Uiso
C46_3 C 0.3221 0.6673 0.5626 0.0380 Uiso
C47_3 C 0.4263 0.5562 0.5645 0.0380 Uiso
C48_3 C 0.409 0.575 0.563 0.0380 Uiso
Al8_5 Al 0.500 0.500 0.5 0.0127 Uiso
H2_3 H 0.567401 0.548608 0.4199 . .
H3_3 H 0.670884 0.65973 0.418971 . .
H5_3 H 0.598102 0.582504 0.419173 . .
H6_3 H 0.70157 0.69368 0.419243 . .
H17_3 H 0.923143 0.741397 0.418673 . .
H19_3 H 0.857082 0.742074 0.419403 . .
H21_3 H 0.329116 0.65973 0.418971 . .
H22_3 H 0.29843 0.69368 0.419243 . .
H23_3 H 0.432599 0.548608 0.4199 . .
H24_3 H 0.401898 0.582504 0.419173 . .
O1_4 O 0.2675 0.2766 0.0825 0.0380 Uiso
O2_4 O 0.4625 0.4822 0.4141 0.0380 Uiso
O3_4 O 0.2035 0.2586 0.0822 0.0380 Uiso
N1_4 N 0.018 0.2577 0.0623 0.0380 Uiso
N2_4 N 0.3582 0.3694 0.4366 0.0380 Uiso
N3_4 N 0.3731 0.3883 0.4368 0.0380 Uiso
C1_4 C 0.1284 0.2584 0.4361 0.0380 Uiso
C2_4 C 0.0916 0.2586 0.4375 0.0380 Uiso
C3_4 C 0.3048 0.3139 0.0638 0.0380 Uiso
C4_4 C 0.3221 0.3327 0.0626 0.0380 Uiso
C5_4 C 0.4263 0.4438 0.0645 0.0380 Uiso
C6_4 C 0.409 0.425 0.063 0.0380 Uiso
C7_4 C 0.034 0.2587 0.250 0.0380 Uiso
C8_4 C 0.0735 0.2588 0.250 0.0380 Uiso
C9_4 C 0.1477 0.2588 0.250 0.0380 Uiso
C10_4 C 0.3491 0.3617 0.250 0.0380 Uiso
C11_4 C 0.3305 0.3419 0.250 0.0380 Uiso
C12_4 C 0.2951 0.3042 0.250 0.0380 Uiso
C13_4 C 0.3822 0.396 0.250 0.0380 Uiso
C14_4 C 0.4007 0.4157 0.250 0.0380 Uiso
C15_4 C 0.4361 0.4535 0.250 0.0380 Uiso
C16_4 C 0.2734 0.2854 0.250 0.0380 Uiso
C17_4 C 0.4545 0.4734 0.250 0.0380 Uiso
C18_4 C 0.1875 0.258 0.250 0.0380 Uiso
N4_4 N 0.3582 0.3694 0.0634 0.0380 Uiso
N5_4 N 0.3731 0.3883 0.0632 0.0380 Uiso
C19_4 C 0.3048 0.3139 0.4362 0.0380 Uiso
C20_4 C 0.3221 0.3327 0.4374 0.0380 Uiso
C21_4 C 0.4263 0.4438 0.4355 0.0380 Uiso
C22_4 C 0.409 0.425 0.437 0.0380 Uiso
N6_4 N 0.018 0.2577 0.4377 0.0380 Uiso
C23_4 C 0.1284 0.2584 0.0639 0.0380 Uiso
C24_4 C 0.0916 0.2586 0.0625 0.0380 Uiso
O11_4 O 0.7325 0.2766 0.4175 0.0380 Uiso
N9_4 N 0.6418 0.3694 0.0634 0.0380 Uiso
N10_4 N 0.6269 0.3883 0.0632 0.0380 Uiso
C33_4 C 0.6952 0.3139 0.4362 0.0380 Uiso
C34_4 C 0.6779 0.3327 0.4374 0.0380 Uiso
C35_4 C 0.5737 0.4438 0.4355 0.0380 Uiso
C36_4 C 0.591 0.425 0.437 0.0380 Uiso
C37_4 C 0.6509 0.3617 0.250 0.0380 Uiso
C38_4 C 0.6695 0.3419 0.250 0.0380 Uiso
C39_4 C 0.7049 0.3042 0.250 0.0380 Uiso
C40_4 C 0.6178 0.396 0.250 0.0380 Uiso
C41_4 C 0.5993 0.4157 0.250 0.0380 Uiso
C42_4 C 0.5639 0.4535 0.250 0.0380 Uiso
C43_4 C 0.7266 0.2854 0.250 0.0380 Uiso
C44_4 C 0.5455 0.4734 0.250 0.0380 Uiso
O15_4 O 0.5375 0.4822 0.4141 0.0380 Uiso
N11_4 N 0.6418 0.3694 0.4366 0.0380 Uiso
N12_4 N 0.6269 0.3883 0.4368 0.0380 Uiso
C45_4 C 0.6952 0.3139 0.0638 0.0380 Uiso
C46_4 C 0.6779 0.3327 0.0626 0.0380 Uiso
C47_4 C 0.5737 0.4438 0.0645 0.0380 Uiso
C48_4 C 0.591 0.425 0.063 0.0380 Uiso
O20_2 O 0.7965 0.2586 0.4178 0.0380 Uiso
H1_4 H 0.076857 0.258603 0.581327 . .
H4_4 H 0.142918 0.257926 0.580597 . .
H7_4 H 0.29843 0.30632 0.580757 . .
H8_4 H 0.329116 0.34027 0.581029 . .
H9_4 H 0.432599 0.451392 0.5801 . .
H10_4 H 0.598102 0.417496 0.580827 . .
H11_4 H 0.401898 0.417496 0.580827 . .
H14_4 H 0.567401 0.451392 0.5801 . .
H18_4 H 0.670884 0.34027 0.581029 . .
H20_4 H 0.70157 0.30632 0.580757 . .
H2_4 H 0.432599 0.451392 0.9199 . .
H3_4 H 0.329116 0.34027 0.918971 . .
H5_4 H 0.401898 0.417496 0.919173 . .
H6_4 H 0.29843 0.30632 0.919243 . .
H17_4 H 0.076857 0.258603 0.918673 . .
H19_4 H 0.142918 0.257926 0.919403 . .
H21_4 H 0.670884 0.34027 0.918971 . .
H22_4 H 0.70157 0.30632 0.919243 . .
H23_4 H 0.567401 0.451392 0.9199 . .
H24_4 H 0.598102 0.417496 0.919173 . .
N7_4 N 0.982 0.2577 0.0623 0.0380 Uiso
C25_4 C 0.8716 0.2584 0.4361 0.0380 Uiso
C26_4 C 0.9084 0.2586 0.4375 0.0380 Uiso
C27_4 C 0.966 0.2587 0.250 0.0380 Uiso
C28_4 C 0.9265 0.2588 0.250 0.0380 Uiso
C29_4 C 0.8523 0.2588 0.250 0.0380 Uiso
C30_4 C 0.8125 0.258 0.250 0.0380 Uiso
N8_4 N 0.982 0.2577 0.4377 0.0380 Uiso
C31_4 C 0.8716 0.2584 0.0639 0.0380 Uiso
C32_4 C 0.9084 0.2586 0.0625 0.0380 Uiso
H15_4 H 0.857082 0.257926 0.580597 . .
H16_4 H 0.923143 0.258603 0.581327 . .
H12_4 H 0.923143 0.258603 0.918673 . .
H13_4 H 0.857082 0.257926 0.919403 . .
loop_
_geom_bond_atom_site_label_1
_geom_bond_atom_site_label_2
_geom_bond_site_symmetry_1
_geom_bond_site_symmetry_2
O25 Al2 1_555 1_555
O1 Al1 1_555 1_555
O2 Al2_2 1_555 1_555
O3 Al1 1_555 1_555
N1 C7 1_555 1_555
N2 N3 1_555 1_555
N3 C13 1_555 1_555
C1 C2 1_555 1_555
C2 C8 1_555 1_555
C3 C4 1_555 1_555
C4 C11 1_555 1_555
C5 C6 1_555 1_555
C6 C14 1_555 1_555
Al1 O4 1_555 1_555
O4 Al5_2 1_555 1_555
C7 C8 1_555 1_555
C8 C24 1_555 1_555
C9 C1 1_555 1_555
C10 N2 1_555 1_555
C11 C10 1_555 1_555
C12 C3 1_555 1_555
C13 C14 1_555 1_555
C14 C22 1_555 1_555
C15 C5 1_555 1_555
C16 O1 1_555 1_555
C17 O2 1_555 1_555
C18 O3 1_555 1_555
O6 C16 1_555 1_555
O7 C17 1_555 1_555
N4 C10 1_555 1_555
N5 C13 1_555 1_555
C19 C12 1_555 1_555
C20 C11 1_555 1_555
C21 C15 1_555 1_555
C22 C21 1_555 1_555
O8 C18 1_555 1_555
N6 C7 1_555 1_555
C23 C9 1_555 1_555
C24 C23 1_555 1_555
O9 C30 1_555 1_555
N7 N1 1_555 1_555
C25 C26 1_555 1_555
C26 C28 1_555 1_555
C27 N7 1_555 1_555
C28 C27 1_555 1_555
C29 C25 1_555 1_555
C30 C29 1_555 1_555
O10 C30 1_555 1_555
N8 N6 1_555 1_555
C31 C29 1_555 1_555
C32 C28 1_555 1_555
O16 Al1 1_555 1_555
O21 Al1 1_555 1_555
Al4_2 O10 1_555 1_555
Al5_2 O6 1_555 1_555
Al7 O9 1_555 1_555
Al8 O7 1_555 1_555
O23 Al1 1_555 1_555
C9 C18 1_555 1_555
C12 C16 1_555 1_555
C15 C17 1_555 1_555
N4 N5 1_555 1_555
C19 C20 1_555 1_555
O8 Al5_2 1_555 1_555
C27 N8 1_555 1_555
C31 C32 1_555 1_555
C5 H2 1_555 1_555
C4 H3 1_555 1_555
C6 H5 1_555 1_555
C3 H6 1_555 1_555
C32 H12 1_555 1_555
C31 H13 1_555 1_555
C24 H17 1_555 1_555
C23 H19 1_555 1_555
O18 Al2_3 1_555 1_555
Al2_4 O5 1_555 1_555
O5 Al8_2 1_555 1_555
O17 Al4 1_555 1_555
O22 Al4 1_555 1_555
O24 Al4 1_555 1_555
O25_2 Al2_5 1_555 1_555
O11 Al4_2 1_555 1_555
O12 C44 1_555 1_555
N9 N10 1_555 1_555
N10 C40 1_555 1_555
C33 C34 1_555 1_555
C34 C38 1_555 1_555
C35 C36 1_555 1_555
C36 C41 1_555 1_555
Al4_2 O13 1_555 1_555
O13 Al7 1_555 1_555
C37 N9 1_555 1_555
C38 C37 1_555 1_555
C39 C33 1_555 1_555
C40 C41 1_555 1_555
C41 C48 1_555 1_555
C42 C35 1_555 1_555
C43 O11 1_555 1_555
C44 C42 1_555 1_555
O14 C43 1_555 1_555
O15 Al2_6 1_555 1_555
N11 C37 1_555 1_555
N12 C40 1_555 1_555
C45 C39 1_555 1_555
C46 C38 1_555 1_555
C47 C42 1_555 1_555
C48 C47 1_555 1_555
Al7 O14 1_555 1_555
O12 Al8_3 1_555 1_555
C39 C43 1_555 1_555
C44 O15 1_555 1_555
N11 N12 1_555 1_555
C45 C46 1_555 1_555
C46 H21 1_555 1_555
C45 H22 1_555 1_555
C47 H23 1_555 1_555
C48 H24 1_555 1_555
O19 Al2_7 1_555 1_555
Al2_8 O5_2 1_555 1_555
O5_2 Al8_4 1_555 1_555
Al8 O25 1_555 1_555
O11_2 Al3 1_555 1_555
O18 C44_2 1_555 1_555
N9_2 N10_2 1_555 1_555
N10_2 C40_2 1_555 1_555
C33_2 C34_2 1_555 1_555
C34_2 C38_2 1_555 1_555
C35_2 C36_2 1_555 1_555
C36_2 C41_2 1_555 1_555
Al3 O13_2 1_555 1_555
O13_2 Al6 1_555 1_555
C37_2 N9_2 1_555 1_555
C38_2 C37_2 1_555 1_555
C39_2 C33_2 1_555 1_555
C40_2 C41_2 1_555 1_555
C41_2 C48_2 1_555 1_555
C42_2 C35_2 1_555 1_555
C43_2 O11_2 1_555 1_555
C44_2 C42_2 1_555 1_555
O14_2 C43_2 1_555 1_555
O15_2 Al8_2 1_555 1_555
N11_2 C37_2 1_555 1_555
N12_2 C40_2 1_555 1_555
C45_2 C39_2 1_555 1_555
C46_2 C38_2 1_555 1_555
C47_2 C42_2 1_555 1_555
C48_2 C47_2 1_555 1_555
O17_2 Al3 1_555 1_555
O20 Al3 1_555 1_555
O22_2 Al3 1_555 1_555
Al6 O14_2 1_555 1_555
O24_2 Al3 1_555 1_555
C39_2 C43_2 1_555 1_555
C44_2 O15_2 1_555 1_555
N11_2 N12_2 1_555 1_555
C45_2 C46_2 1_555 1_555
C36_2 H10_2 1_555 1_555
C35_2 H14_2 1_555 1_555
C34_2 H18_2 1_555 1_555
C33_2 H20_2 1_555 1_555
Al8_3 O25_2 1_555 1_555
O1_2 Al1_2 1_555 1_555
O2_2 Al8_4 1_555 1_555
O3_2 Al1_2 1_555 1_555
N1_2 C7_2 1_555 1_555
N2_2 N3_2 1_555 1_555
N3_2 C13_2 1_555 1_555
C1_2 C2_2 1_555 1_555
C2_2 C8_2 1_555 1_555
C3_2 C4_2 1_555 1_555
C4_2 C11_2 1_555 1_555
C5_2 C6_2 1_555 1_555
C6_2 C14_2 1_555 1_555
Al1_2 O4_2 1_555 1_555
O4_2 Al5_3 1_555 1_555
C7_2 C8_2 1_555 1_555
C8_2 C24_2 1_555 1_555
C9_2 C1_2 1_555 1_555
C10_2 N2_2 1_555 1_555
C11_2 C10_2 1_555 1_555
C12_2 C3_2 1_555 1_555
C13_2 C14_2 1_555 1_555
C14_2 C22_2 1_555 1_555
C15_2 C5_2 1_555 1_555
C16_2 O1_2 1_555 1_555
C17_2 O2_2 1_555 1_555
C18_2 O3_2 1_555 1_555
O6_2 C16_2 1_555 1_555
O19 C17_2 1_555 1_555
N4_2 C10_2 1_555 1_555
N5_2 C13_2 1_555 1_555
C19_2 C12_2 1_555 1_555
C20_2 C11_2 1_555 1_555
C21_2 C15_2 1_555 1_555
C22_2 C21_2 1_555 1_555
O8_2 C18_2 1_555 1_555
N6_2 C7_2 1_555 1_555
C23_2 C9_2 1_555 1_555
C24_2 C23_2 1_555 1_555
O9_2 C30_2 1_555 1_555
N7_2 N1_2 1_555 1_555
C25_2 C26_2 1_555 1_555
C26_2 C28_2 1_555 1_555
C27_2 N7_2 1_555 1_555
C28_2 C27_2 1_555 1_555
C29_2 C25_2 1_555 1_555
C30_2 C29_2 1_555 1_555
O20 C30_2 1_555 1_555
N8_2 N6_2 1_555 1_555
C31_2 C29_2 1_555 1_555
C32_2 C28_2 1_555 1_555
Al5_3 O6_2 1_555 1_555
Al6 O9_2 1_555 1_555
C9_2 C18_2 1_555 1_555
C12_2 C16_2 1_555 1_555
C15_2 C17_2 1_555 1_555
N4_2 N5_2 1_555 1_555
C19_2 C20_2 1_555 1_555
O8_2 Al5_3 1_555 1_555
C27_2 N8_2 1_555 1_555
C31_2 C32_2 1_555 1_555
C2_2 H1_2 1_555 1_555
C1_2 H4_2 1_555 1_555
C19_2 H7_2 1_555 1_555
C20_2 H8_2 1_555 1_555
C21_2 H9_2 1_555 1_555
C22_2 H11_2 1_555 1_555
C25_2 H15_2 1_555 1_555
C26_2 H16_2 1_555 1_555
O16_2 Al1_3 1_555 1_555
O21_2 Al1_3 1_555 1_555
O23_2 Al1_3 1_555 1_555
O22_2 C30_3 1_555 1_555
C25_3 C26_3 1_555 1_555
C26_3 C28_3 1_555 1_555
C27_3 N7_3 1_555 1_555
C28_3 C27_3 1_555 1_555
C29_3 C25_3 1_555 1_555
C30_3 C29_3 1_555 1_555
O10_2 C30_3 1_555 1_555
C31_3 C29_3 1_555 1_555
C32_3 C28_3 1_555 1_555
Al6_2 O10_2 1_555 1_555
C27_3 N8_3 1_555 1_555
C31_3 C32_3 1_555 1_555
C32_3 H12_3 1_555 1_555
C31_3 H13_3 1_555 1_555
O18_2 Al2_9 1_555 1_555
O19_2 Al2_9 1_555 1_555
O25_3 Al2_9 1_555 1_555
O1_3 Al5_3 1_555 1_555
O2_3 Al2_10 1_555 1_555
O3_3 Al5_3 1_555 1_555
N1_3 C7_3 1_555 1_555
N2_3 N3_3 1_555 1_555
N3_3 C13_3 1_555 1_555
C1_3 C2_3 1_555 1_555
C2_3 C8_3 1_555 1_555
C3_3 C4_3 1_555 1_555
C4_3 C11_3 1_555 1_555
C5_3 C6_3 1_555 1_555
C6_3 C14_3 1_555 1_555
Al5_3 O23_2 1_555 1_555
Al2_10 O5_3 1_555 1_555
C7_3 C8_3 1_555 1_555
C8_3 C24_3 1_555 1_555
C9_3 C1_3 1_555 1_555
C10_3 N2_3 1_555 1_555
C11_3 C10_3 1_555 1_555
C12_3 C3_3 1_555 1_555
C13_3 C14_3 1_555 1_555
C14_3 C22_3 1_555 1_555
C15_3 C5_3 1_555 1_555
C16_3 O1_3 1_555 1_555
C17_3 O2_3 1_555 1_555
C18_3 O3_3 1_555 1_555
O5_3 Al8_5 1_555 1_555
O16_2 C16_3 1_555 1_555
O7_2 C17_3 1_555 1_555
N4_3 C10_3 1_555 1_555
N5_3 C13_3 1_555 1_555
C19_3 C12_3 1_555 1_555
C20_3 C11_3 1_555 1_555
C21_3 C15_3 1_555 1_555
C22_3 C21_3 1_555 1_555
O21_2 C18_3 1_555 1_555
N6_3 C7_3 1_555 1_555
C23_3 C9_3 1_555 1_555
C24_3 C23_3 1_555 1_555
O11_3 Al6_2 1_555 1_555
O12_2 C44_3 1_555 1_555
N9_3 N10_3 1_555 1_555
N10_3 C40_3 1_555 1_555
C33_3 C34_3 1_555 1_555
C34_3 C38_3 1_555 1_555
C35_3 C36_3 1_555 1_555
C36_3 C41_3 1_555 1_555
Al6_2 O24_2 1_555 1_555
C37_3 N9_3 1_555 1_555
C38_3 C37_3 1_555 1_555
C39_3 C33_3 1_555 1_555
C40_3 C41_3 1_555 1_555
C41_3 C48_3 1_555 1_555
C42_3 C35_3 1_555 1_555
C43_3 O11_3 1_555 1_555
C44_3 C42_3 1_555 1_555
O17_2 C43_3 1_555 1_555
O15_3 Al2_10 1_555 1_555
N11_3 C37_3 1_555 1_555
N12_3 C40_3 1_555 1_555
C45_3 C39_3 1_555 1_555
C46_3 C38_3 1_555 1_555
C47_3 C42_3 1_555 1_555
C48_3 C47_3 1_555 1_555
Al8_5 O7_2 1_555 1_555
C9_3 C18_3 1_555 1_555
C12_3 C16_3 1_555 1_555
C15_3 C17_3 1_555 1_555
N4_3 N5_3 1_555 1_555
C19_3 C20_3 1_555 1_555
O12_2 Al8_5 1_555 1_555
C39_3 C43_3 1_555 1_555
C44_3 O15_3 1_555 1_555
N11_3 N12_3 1_555 1_555
C45_3 C46_3 1_555 1_555
C5_3 H2_3 1_555 1_555
C4_3 H3_3 1_555 1_555
C6_3 H5_3 1_555 1_555
C3_3 H6_3 1_555 1_555
C24_3 H17_3 1_555 1_555
C23_3 H19_3 1_555 1_555
C46_3 H21_3 1_555 1_555
C45_3 H22_3 1_555 1_555
C47_3 H23_3 1_555 1_555
C48_3 H24_3 1_555 1_555
O1_4 Al5 1_555 1_555
O2_4 Al8_5 1_555 1_555
O3_4 Al5 1_555 1_555
N1_4 C7_4 1_555 1_555
N2_4 N3_4 1_555 1_555
N3_4 C13_4 1_555 1_555
C1_4 C2_4 1_555 1_555
C2_4 C8_4 1_555 1_555
C3_4 C4_4 1_555 1_555
C4_4 C11_4 1_555 1_555
C5_4 C6_4 1_555 1_555
C6_4 C14_4 1_555 1_555
Al5 O23 1_555 1_555
Al8_5 O25_3 1_555 1_555
C7_4 C8_4 1_555 1_555
C8_4 C24_4 1_555 1_555
C9_4 C1_4 1_555 1_555
C10_4 N2_4 1_555 1_555
C11_4 C10_4 1_555 1_555
C12_4 C3_4 1_555 1_555
C13_4 C14_4 1_555 1_555
C14_4 C22_4 1_555 1_555
C15_4 C5_4 1_555 1_555
C16_4 O1_4 1_555 1_555
C17_4 O2_4 1_555 1_555
C18_4 O3_4 1_555 1_555
O16 C16_4 1_555 1_555
O19_2 C17_4 1_555 1_555
N4_4 C10_4 1_555 1_555
N5_4 C13_4 1_555 1_555
C19_4 C12_4 1_555 1_555
C20_4 C11_4 1_555 1_555
C21_4 C15_4 1_555 1_555
C22_4 C21_4 1_555 1_555
O21 C18_4 1_555 1_555
N6_4 C7_4 1_555 1_555
C23_4 C9_4 1_555 1_555
C24_4 C23_4 1_555 1_555
O11_4 Al7 1_555 1_555
O18_2 C44_4 1_555 1_555
N9_4 N10_4 1_555 1_555
N10_4 C40_4 1_555 1_555
C33_4 C34_4 1_555 1_555
C34_4 C38_4 1_555 1_555
C35_4 C36_4 1_555 1_555
C36_4 C41_4 1_555 1_555
Al7 O24 1_555 1_555
C37_4 N9_4 1_555 1_555
C38_4 C37_4 1_555 1_555
C39_4 C33_4 1_555 1_555
C40_4 C41_4 1_555 1_555
C41_4 C48_4 1_555 1_555
C42_4 C35_4 1_555 1_555
C43_4 O11_4 1_555 1_555
C44_4 C42_4 1_555 1_555
O17 C43_4 1_555 1_555
O15_4 Al8_5 1_555 1_555
N11_4 C37_4 1_555 1_555
N12_4 C40_4 1_555 1_555
C45_4 C39_4 1_555 1_555
C46_4 C38_4 1_555 1_555
C47_4 C42_4 1_555 1_555
C48_4 C47_4 1_555 1_555
O20_2 Al7 1_555 1_555
C9_4 C18_4 1_555 1_555
C12_4 C16_4 1_555 1_555
C15_4 C17_4 1_555 1_555
N4_4 N5_4 1_555 1_555
C19_4 C20_4 1_555 1_555
C39_4 C43_4 1_555 1_555
C44_4 O15_4 1_555 1_555
N11_4 N12_4 1_555 1_555
C45_4 C46_4 1_555 1_555
C2_4 H1_4 1_555 1_555
C1_4 H4_4 1_555 1_555
C19_4 H7_4 1_555 1_555
C20_4 H8_4 1_555 1_555
C21_4 H9_4 1_555 1_555
C36_4 H10_4 1_555 1_555
C22_4 H11_4 1_555 1_555
C35_4 H14_4 1_555 1_555
C34_4 H18_4 1_555 1_555
C33_4 H20_4 1_555 1_555
O22 C30_4 1_555 1_555
C25_4 C26_4 1_555 1_555
C26_4 C28_4 1_555 1_555
C27_4 N7_4 1_555 1_555
C28_4 C27_4 1_555 1_555
C29_4 C25_4 1_555 1_555
C30_4 C29_4 1_555 1_555
O20_2 C30_4 1_555 1_555
C31_4 C29_4 1_555 1_555
C32_4 C28_4 1_555 1_555
C27_4 N8_4 1_555 1_555
C31_4 C32_4 1_555 1_555
C25_4 H15_4 1_555 1_555
C26_4 H16_4 1_555 1_555

#END
