
###############################################################################
#
# This file contains modified crystal structure data generated from the
# MOF subset of the Cambridge Structural Database (CSD) v543 
# hosted by the Cambridge Crystallographic Data Centre (CCDC).
#
# This work is licensed under the Creative Commons
# Attribution-NonCommercial-ShareAlike 4.0 International License.
# To view a copy of this license, visit
# http://creativecommons.org/licenses/by-nc-sa/4.0/
# or send a letter to
# Creative Commons, PO Box 1866, Mountain View, CA 94042, USA.
#
# CIF created using the CSD Python API on 29 September 2022
# The structure has been converted into the P1 space group
# The structure has a 3D framework
# The original CSD entry FOMWOV is in the monoclinic crystal system
# The framework has been calculated to contain at least 10.0% void space
# The void calculation uses a probe of radius 1.32A, grid spacing 0.4
# The framework is charged, counterions have been retained in the structure
#
###############################################################################

data_FOMWOV
_chemical_formula_moiety         '(C380 H192 N32 O140 Zn16 2+)n'
_symmetry_cell_setting           triclinic
_symmetry_space_group_name_H-M   'P 1'
_symmetry_Int_Tables_number      1
_space_group_name_Hall           'P 1'
loop_
_symmetry_equiv_pos_site_id
_symmetry_equiv_pos_as_xyz
1 x,y,z
_cell_length_a                   38.596(8)
_cell_length_b                   15.279(3)
_cell_length_c                   23.600(5)
_cell_angle_alpha                90
_cell_angle_beta                 101.29(3)
_cell_angle_gamma                90
_cell_volume                     13647.8
loop_
_atom_site_label
_atom_site_type_symbol
_atom_site_fract_x
_atom_site_fract_y
_atom_site_fract_z
N1 N 0.1689(4) 0.5949(12) 0.7211(5)
H1 H 0.1797 0.6004 0.6908
H2 H 0.1774 0.5478 0.7422
C1 C 0.1721(4) 0.6830(11) 0.7598(7)
H3 H 0.1502 0.6937 0.7719
H4 H 0.1775 0.7317 0.7373
H5 H 0.1906 0.6760 0.7932
C2 C 0.1281(7) 0.591(2) 0.7017(12)
H6 H 0.1191 0.5418 0.7196
H7 H 0.1221 0.5849 0.6604
H8 H 0.1179 0.6439 0.7130
N1_2 N 0.8311(4) 0.5949(12) 0.7789(5)
H1_2 H 0.8203 0.6004 0.8092
H2_2 H 0.8226 0.5478 0.7578
C1_2 C 0.8279(4) 0.6830(11) 0.7402(7)
H3_2 H 0.8498 0.6937 0.7281
H4_2 H 0.8225 0.7317 0.7627
H5_2 H 0.8094 0.6760 0.7068
C2_2 C 0.8719(7) 0.591(2) 0.7983(12)
H6_2 H 0.8809 0.5418 0.7804
H7_2 H 0.8779 0.5849 0.8396
H8_2 H 0.8821 0.6439 0.7870
N1_3 N 0.6689(4) 0.0949(12) 0.7211(5)
H1_3 H 0.6797 0.1004 0.6908
H2_3 H 0.6774 0.0478 0.7422
C1_3 C 0.6721(4) 0.1830(11) 0.7598(7)
H3_3 H 0.6502 0.1937 0.7719
H4_3 H 0.6775 0.2317 0.7373
H5_3 H 0.6906 0.1760 0.7932
C2_3 C 0.6281(7) 0.091(2) 0.7017(12)
H6_3 H 0.6191 0.0418 0.7196
H7_3 H 0.6221 0.0849 0.6604
H8_3 H 0.6179 0.1439 0.7130
N1_4 N 0.3311(4) 0.0949(12) 0.7789(5)
H1_4 H 0.3203 0.1004 0.8092
H2_4 H 0.3226 0.0478 0.7578
C1_4 C 0.3279(4) 0.1830(11) 0.7402(7)
H3_4 H 0.3498 0.1937 0.7281
H4_4 H 0.3225 0.2317 0.7627
H5_4 H 0.3094 0.1760 0.7068
C2_4 C 0.3719(7) 0.091(2) 0.7983(12)
H6_4 H 0.3809 0.0418 0.7804
H7_4 H 0.3779 0.0849 0.8396
H8_4 H 0.3821 0.1439 0.7870
N1_5 N 0.8311(4) 0.4051(12) 0.2789(5)
H1_5 H 0.8203 0.3996 0.3092
H2_5 H 0.8226 0.4522 0.2578
C1_5 C 0.8279(4) 0.3170(11) 0.2402(7)
H3_5 H 0.8498 0.3063 0.2281
H4_5 H 0.8225 0.2683 0.2627
H5_5 H 0.8094 0.3240 0.2068
C2_5 C 0.8719(7) 0.409(2) 0.2983(12)
H6_5 H 0.8809 0.4582 0.2804
H7_5 H 0.8779 0.4151 0.3396
H8_5 H 0.8821 0.3561 0.2870
N1_6 N 0.1689(4) 0.4051(12) 0.2211(5)
H1_6 H 0.1797 0.3996 0.1908
H2_6 H 0.1774 0.4522 0.2422
C1_6 C 0.1721(4) 0.3170(11) 0.2598(7)
H3_6 H 0.1502 0.3063 0.2719
H4_6 H 0.1775 0.2683 0.2373
H5_6 H 0.1906 0.3240 0.2932
C2_6 C 0.1281(7) 0.409(2) 0.2017(12)
H6_6 H 0.1191 0.4582 0.2196
H7_6 H 0.1221 0.4151 0.1604
H8_6 H 0.1179 0.3561 0.2130
N1_7 N 0.3311(4) 0.9051(12) 0.2789(5)
H1_7 H 0.3203 0.8996 0.3092
H2_7 H 0.3226 0.9522 0.2578
C1_7 C 0.3279(4) 0.8170(11) 0.2402(7)
H3_7 H 0.3498 0.8063 0.2281
H4_7 H 0.3225 0.7683 0.2627
H5_7 H 0.3094 0.8240 0.2068
C2_7 C 0.3719(7) 0.909(2) 0.2983(12)
H6_7 H 0.3809 0.9582 0.2804
H7_7 H 0.3779 0.9151 0.3396
H8_7 H 0.3821 0.8561 0.2870
N1_8 N 0.6689(4) 0.9051(12) 0.2211(5)
H1_8 H 0.6797 0.8996 0.1908
H2_8 H 0.6774 0.9522 0.2422
C1_8 C 0.6721(4) 0.8170(11) 0.2598(7)
H3_8 H 0.6502 0.8063 0.2719
H4_8 H 0.6775 0.7683 0.2373
H5_8 H 0.6906 0.8240 0.2932
C2_8 C 0.6281(7) 0.909(2) 0.2017(12)
H6_8 H 0.6191 0.9582 0.2196
H7_8 H 0.6221 0.9151 0.1604
H8_8 H 0.6179 0.8561 0.2130
C44 C 0.04246(15) 0.0710(5) 0.5786(3)
H23 H 0.0622 0.0878 0.6058
C45 C 0.04578(14) 0.0106(4) 0.5390(3)
O17 O 0.10763(11) 0.0003(4) 0.5692(2)
C58 C 0.00882(17) 0.1103(5) 0.5798(3)
H28 H 0.0067 0.1534 0.6067
C77 C 0.01907(19) 0.2391(7) 0.0842(3)
C85 C 0.04383(15) 0.1855(5) 0.1801(3)
C86 C 0.04172(16) 0.2443(5) 0.2234(3)
H37 H 0.0225 0.2819 0.2202
C87 C 0.06838(15) 0.2468(4) 0.2713(3)
C88 C 0.09611(15) 0.1877(5) 0.2746(3)
H38 H 0.1145 0.1890 0.3066
C89 C 0.09690(15) 0.1282(5) 0.2322(3)
C90 C 0.07017(16) 0.1260(5) 0.1841(3)
H39 H 0.0702 0.0848 0.1551
C91 C 0.0668(2) 0.3089(5) 0.3185(3)
C92 C 0.1267(2) 0.0615(7) 0.2394(4)
N7 N 0.01504(13) 0.1857(4) 0.1293(2)
O29 O 0.04005(15) 0.3462(4) 0.3221(3)
O30 O 0.09545(14) 0.3136(4) 0.3558(2)
H40 H 0.0931 0.3491 0.3809
O31 O 0.15213(12) 0.0779(3) 0.2786(2)
O36 O 0.04707(14) 0.2717(5) 0.0828(2)
O39 O 0.22956(11) 0.0640(3) 0.3137(2)
H35 H 0.0104 0.3386 0.9922
Zn1 Zn 0.256031(15) 0.87902(5) 0.37174(3)
Zn2 Zn 0.186819(15) 0.99616(5) 0.30468(3)
C3 C 0.20455(15) 0.7681(4) 0.2122(2)
C4 C 0.22564(14) 0.6967(4) 0.2087(2)
H9 H 0.2463 0.6891 0.2360
C5 C 0.21646(15) 0.6362(4) 0.1650(2)
C6 C 0.18606(15) 0.6485(4) 0.1246(3)
H10 H 0.1793 0.6078 0.0952
C7 C 0.16590(16) 0.7203(5) 0.1277(3)
C8 C 0.17420(15) 0.7800(5) 0.1704(3)
H11 H 0.1598 0.8284 0.1717
C9 C 0.21391(15) 0.8328(4) 0.2605(3)
C10 C 0.23834(17) 0.5565(4) 0.1630(3)
C11 C 0.13757(19) 0.7909(5) 0.0381(3)
C19 C 0.01065(18) 0.6891(7) 0.0052(3)
C20 C 0.0411(2) 0.6736(7) 0.0470(3)
H15 H 0.0398 0.6363 0.0776
C21 C 0.07219(17) 0.7112(5) 0.0441(3)
C22 C 0.10351(19) 0.6895(6) 0.0884(3)
C23 C 0.07485(16) 0.7694(5) 0.0000(3)
C33 C 0.16767(12) 0.8696(4) 0.4540(2)
C34 C 0.13454(14) 0.9025(4) 0.4554(3)
H19 H 0.1241 0.9438 0.4284
C35 C 0.11724(13) 0.8730(5) 0.4977(3)
C36 C 0.13239(14) 0.8143(4) 0.5384(3)
H20 H 0.1203 0.7960 0.5667
C37 C 0.16572(13) 0.7817(4) 0.5378(2)
C38 C 0.18301(13) 0.8113(4) 0.4951(2)
H21 H 0.2056 0.7908 0.4946
C39 C 0.18668(14) 0.9014(4) 0.4086(2)
C40 C 0.18316(14) 0.7195(4) 0.5818(3)
C41 C 0.05400(16) 0.8763(5) 0.4597(3)
C42 C 0.01998(15) 0.9168(4) 0.4593(3)
C46 C 0.08136(15) 0.9736(5) 0.5386(3)
C47 C 0.01651(13) 0.9812(4) 0.4990(3)
N2 N 0.13421(14) 0.7355(4) 0.0833(2)
N4 N 0.08242(12) 0.9092(4) 0.4998(2)
O1 O 0.24125(10) 0.8207(3) 0.29768(16)
O2 O 0.19257(10) 0.8947(3) 0.26049(17)
O3 O 0.22394(10) 0.4899(3) 0.13819(19)
O4 O 0.27044(11) 0.5640(3) 0.1863(2)
O9 O 0.10388(13) 0.6392(5) 0.1270(2)
O10 O 0.16563(14) 0.8231(4) 0.0363(2)
O13 O 0.21646(10) 0.8702(3) 0.40931(19)
O14 O 0.17253(10) 0.9573(3) 0.37370(18)
O15 O 0.21411(9) 0.6985(3) 0.57949(16)
O16 O 0.16765(12) 0.6913(4) 0.6185(2)
O18 O 0.05796(12) 0.8199(4) 0.4268(3)
O32 O 0.1244(2) 0.9982(6) 0.2094(4)
Zn6 Zn 0.243969(15) 0.37902(5) 0.12826(3)
Zn8 Zn 0.243969(15) 0.62098(5) 0.62826(3)
Zn10 Zn 0.313181(15) 0.49616(5) 0.19532(3)
O37 O 0.27606(10) 0.9899(3) 0.36181(19)
O44 O 0.28589(9) 0.8015(3) 0.42051(16)
C12 C 0.10614(16) 0.8102(4) 0.9944(3)
C13 C 0.10838(19) 0.8676(5) 0.9517(3)
H12 H 0.1297 0.8947 0.9501
C14 C 0.0777(2) 0.8860(5) 0.9094(3)
H13 H 0.0791 0.9251 0.8797
C15 C 0.04616(18) 0.8463(5) 0.9119(3)
C16 C 0.01518(19) 0.8611(5) 0.8670(3)
C18 C 0.01206(17) 0.7450(6) 0.9607(3)
C23_2 C 0.07485(16) 0.7694(5) 1.0000(3)
C24 C 0.04397(16) 0.7878(5) 0.9573(3)
O11 O 0.01544(15) 0.9119(4) 0.8282(2)
C48 C 0.83233(12) 0.1304(4) 0.5460(2)
C49 C 0.86546(14) 0.0975(4) 0.5446(3)
H25 H 0.8759 0.0562 0.5716
C50 C 0.88276(13) 0.1270(5) 0.5023(3)
C51 C 0.86761(14) 0.1857(4) 0.4616(3)
H26 H 0.8797 0.2040 0.4333
C52 C 0.83428(13) 0.2183(4) 0.4622(2)
C53 C 0.81699(13) 0.1887(4) 0.5049(2)
H27 H 0.7944 0.2092 0.5054
C54 C 0.81332(14) 0.0986(4) 0.5914(2)
C55 C 0.81684(14) 0.2805(4) 0.4182(3)
C56 C 0.94600(16) 0.1237(5) 0.5403(3)
C57 C 0.98002(15) 0.0832(4) 0.5407(3)
C61 C 0.91864(15) 0.0264(5) 0.4614(3)
C62 C 0.98349(13) 0.0188(4) 0.5010(3)
N5 N 0.91758(12) 0.0908(4) 0.5002(2)
O19 O 0.78354(10) 0.1298(3) 0.59069(19)
O20 O 0.82747(10) 0.0427(3) 0.62630(18)
O21 O 0.78589(9) 0.3015(3) 0.42051(16)
O22 O 0.83235(12) 0.3087(4) 0.3815(2)
O24 O 0.94204(12) 0.1801(4) 0.5732(3)
C72 C 0.89386(16) 0.1898(4) 0.0056(3)
C73 C 0.89162(19) 0.1324(5) 0.0483(3)
H33 H 0.8703 0.1053 0.0499
C74 C 0.9223(2) 0.1140(5) 0.0906(3)
H34 H 0.9209 0.0749 0.1203
C75 C 0.95384(18) 0.1537(5) 0.0881(3)
C76 C 0.98482(19) 0.1389(5) 0.1330(3)
C78 C 0.98794(17) 0.2550(6) 0.0393(3)
C83 C 0.92515(16) 0.2306(5) 0.0000(3)
C84 C 0.95603(16) 0.2122(5) 0.0427(3)
O35 O 0.98456(15) 0.0881(4) 0.1718(2)
Zn5 Zn 0.756031(15) 0.37902(5) 0.37174(3)
Zn7 Zn 0.743969(15) 0.12098(5) 0.62826(3)
Zn11 Zn 0.813181(15) 0.00384(5) 0.69532(3)
O8 O 0.8756(2) 0.0018(6) 0.7906(4)
C63 C 0.79545(15) 0.2319(4) 0.7878(2)
C64 C 0.77436(14) 0.3033(4) 0.7913(2)
H30 H 0.7537 0.3109 0.7640
C65 C 0.78354(15) 0.3638(4) 0.8350(2)
C66 C 0.81394(15) 0.3515(4) 0.8754(3)
H31 H 0.8207 0.3922 0.9048
C67 C 0.83410(16) 0.2797(5) 0.8723(3)
C68 C 0.82580(15) 0.2200(5) 0.8296(3)
H32 H 0.8402 0.1716 0.8283
C69 C 0.78609(15) 0.1672(4) 0.7395(3)
C70 C 0.76166(17) 0.4435(4) 0.8370(3)
C71 C 0.86243(19) 0.2091(5) 0.9619(3)
C79 C 0.98935(18) 0.3109(7) 0.9948(3)
C80 C 0.9589(2) 0.3264(7) 0.9530(3)
H36 H 0.9602 0.3637 0.9224
C81 C 0.92781(17) 0.2888(5) 0.9559(3)
C82 C 0.89649(19) 0.3105(6) 0.9116(3)
C83_2 C 0.92515(16) 0.2306(5) 1.0000(3)
N6 N 0.86579(14) 0.2645(4) 0.9167(2)
O25 O 0.75875(10) 0.1793(3) 0.70232(16)
O26 O 0.80743(10) 0.1053(3) 0.73951(17)
O27 O 0.77606(10) 0.5101(3) 0.86181(19)
O28 O 0.72956(11) 0.4360(3) 0.8137(2)
O33 O 0.89612(13) 0.3608(5) 0.8730(2)
O34 O 0.83437(14) 0.1769(4) 0.9637(2)
Zn9 Zn 0.756031(15) 0.62098(5) 0.87174(3)
Zn12 Zn 0.686819(15) 0.50384(5) 0.80468(3)
O38 O 0.72394(10) 0.0101(3) 0.63819(19)
O43 O 0.71411(9) 0.1985(3) 0.57949(16)
H14 H 0.9896 0.6614 0.0078
C43 C 0.99118(17) 0.8897(5) 0.4202(3)
H22 H 0.9933 0.8466 0.3933
C59 C 0.95754(15) 0.9290(5) 0.4214(3)
H29 H 0.9378 0.9122 0.3942
C60 C 0.95422(14) 0.9894(4) 0.4610(3)
O23 O 0.89237(11) 0.9997(4) 0.4308(2)
C17 C 0.98093(19) 0.7609(7) 0.9158(3)
C25 C 0.95617(15) 0.8145(5) 0.8199(3)
C26 C 0.95828(16) 0.7557(5) 0.7766(3)
H16 H 0.9775 0.7181 0.7798
C27 C 0.93162(15) 0.7532(4) 0.7287(3)
C28 C 0.90389(15) 0.8123(5) 0.7254(3)
H17 H 0.8855 0.8110 0.6934
C29 C 0.90310(15) 0.8718(5) 0.7678(3)
C30 C 0.92983(16) 0.8740(5) 0.8159(3)
H18 H 0.9298 0.9152 0.8449
C31 C 0.9332(2) 0.6911(5) 0.6815(3)
C32 C 0.8733(2) 0.9385(7) 0.7606(4)
N3 N 0.98496(13) 0.8143(4) 0.8707(2)
O5 O 0.95995(15) 0.6538(4) 0.6779(3)
O6 O 0.90455(14) 0.6864(4) 0.6442(2)
H24 H 0.9069 0.6509 0.6191
O7 O 0.84787(12) 0.9221(3) 0.7214(2)
O12 O 0.95293(14) 0.7283(5) 0.9172(2)
O40 O 0.77044(11) 0.9360(3) 0.6863(2)
O8_2 O 0.1244(2) 0.0018(6) 0.7094(4)
C51_2 C 0.13239(14) 0.1857(4) 0.0384(3)
H26_2 H 0.1203 0.2040 0.0667
C52_2 C 0.16572(13) 0.2183(4) 0.0378(2)
C55_2 C 0.18316(14) 0.2805(4) 0.0818(3)
C61_2 C 0.08136(15) 0.0264(5) 0.0386(3)
O21_2 O 0.21411(9) 0.3015(3) 0.07949(16)
O22_2 O 0.16765(12) 0.3087(4) 0.1185(2)
Zn3 Zn 0.256031(15) 0.12098(5) 0.87174(3)
Zn4 Zn 0.186819(15) 0.00384(5) 0.80468(3)
C63_2 C 0.20455(15) 0.2319(4) 0.7122(2)
C64_2 C 0.22564(14) 0.3033(4) 0.7087(2)
H30_2 H 0.2463 0.3109 0.7360
C65_2 C 0.21646(15) 0.3638(4) 0.6650(2)
C66_2 C 0.18606(15) 0.3515(4) 0.6246(3)
H31_2 H 0.1793 0.3922 0.5952
C67_2 C 0.16590(16) 0.2797(5) 0.6277(3)
C68_2 C 0.17420(15) 0.2200(5) 0.6704(3)
H32_2 H 0.1598 0.1716 0.6717
C69_2 C 0.21391(15) 0.1672(4) 0.7605(3)
C70_2 C 0.23834(17) 0.4435(4) 0.6630(3)
C71_2 C 0.13757(19) 0.2091(5) 0.5381(3)
C72_2 C 0.10614(16) 0.1898(4) 0.4944(3)
C73_2 C 0.10838(19) 0.1324(5) 0.4517(3)
H33_2 H 0.1297 0.1053 0.4501
C74_2 C 0.0777(2) 0.1140(5) 0.4094(3)
H34_2 H 0.0791 0.0749 0.3797
C75_2 C 0.04616(18) 0.1537(5) 0.4119(3)
C76_2 C 0.01518(19) 0.1389(5) 0.3670(3)
C78_2 C 0.01206(17) 0.2550(6) 0.4607(3)
C79_2 C 0.01065(18) 0.3109(7) 0.5052(3)
C80_2 C 0.0411(2) 0.3264(7) 0.5470(3)
H36_2 H 0.0398 0.3637 0.5776
C81_2 C 0.07219(17) 0.2888(5) 0.5441(3)
C82_2 C 0.10351(19) 0.3105(6) 0.5884(3)
C83_3 C 0.07485(16) 0.2306(5) 0.5000(3)
C84_2 C 0.04397(16) 0.2122(5) 0.4573(3)
N6_2 N 0.13421(14) 0.2645(4) 0.5833(2)
O25_2 O 0.24125(10) 0.1793(3) 0.79768(16)
O26_2 O 0.19257(10) 0.1053(3) 0.76049(17)
O27_2 O 0.22394(10) 0.5101(3) 0.63819(19)
O28_2 O 0.27044(11) 0.4360(3) 0.6863(2)
O33_2 O 0.10388(13) 0.3608(5) 0.6270(2)
O34_2 O 0.16563(14) 0.1769(4) 0.5363(2)
O35_2 O 0.01544(15) 0.0881(4) 0.3282(2)
Zn12_2 Zn 0.313181(15) 0.50384(5) 0.69532(3)
O38_2 O 0.27606(10) 0.0101(3) 0.86181(19)
O41 O 0.21646(10) 0.1298(3) 0.90931(19)
O42 O 0.17253(10) 0.0427(3) 0.87370(18)
O43_2 O 0.28589(9) 0.1985(3) 0.92051(16)
C48_2 C 0.16767(12) 0.1304(4) 0.9540(2)
C49_2 C 0.13454(14) 0.0975(4) 0.9554(3)
H25_2 H 0.1241 0.0562 0.9284
C50_2 C 0.11724(13) 0.1270(5) 0.9977(3)
C53_2 C 0.18301(13) 0.1887(4) 0.9951(2)
H27_2 H 0.2056 0.2092 0.9946
C54_2 C 0.18668(14) 0.0986(4) 0.9086(2)
C56_2 C 0.05400(16) 0.1237(5) 0.9597(3)
C57_2 C 0.01998(15) 0.0832(4) 0.9593(3)
C62_2 C 0.01651(13) 0.0188(4) 0.9990(3)
N5_2 N 0.08242(12) 0.0908(4) 0.9998(2)
O24_2 O 0.05796(12) 0.1801(4) 0.9268(3)
C17_2 C 0.01907(19) 0.7609(7) 0.5842(3)
H14_2 H 0.0104 0.6614 0.4922
C25_2 C 0.04383(15) 0.8145(5) 0.6801(3)
C26_2 C 0.04172(16) 0.7557(5) 0.7234(3)
H16_2 H 0.0225 0.7181 0.7202
C27_2 C 0.06838(15) 0.7532(4) 0.7713(3)
C28_2 C 0.09611(15) 0.8123(5) 0.7746(3)
H17_2 H 0.1145 0.8110 0.8066
C29_2 C 0.09690(15) 0.8718(5) 0.7322(3)
C30_2 C 0.07017(16) 0.8740(5) 0.6841(3)
H18_2 H 0.0702 0.9152 0.6551
C31_2 C 0.0668(2) 0.6911(5) 0.8185(3)
C32_2 C 0.1267(2) 0.9385(7) 0.7394(4)
C43_2 C 0.00882(17) 0.8897(5) 0.0798(3)
H22_2 H 0.0067 0.8466 0.1067
N3_2 N 0.01504(13) 0.8143(4) 0.6293(2)
O5_2 O 0.04005(15) 0.6538(4) 0.8221(3)
O6_2 O 0.09545(14) 0.6864(4) 0.8558(2)
H24_2 H 0.0931 0.6509 0.8809
O7_2 O 0.15213(12) 0.9221(3) 0.7786(2)
O12_2 O 0.04707(14) 0.7283(5) 0.5828(2)
C59_2 C 0.04246(15) 0.9290(5) 0.0786(3)
H29_2 H 0.0622 0.9122 0.1058
C60_2 C 0.04578(14) 0.9894(4) 0.0390(3)
O23_2 O 0.10763(11) 0.9997(4) 0.0692(2)
O40_2 O 0.22956(11) 0.9360(3) 0.8137(2)
C77_2 C 0.98093(19) 0.2391(7) 0.4158(3)
H35_2 H 0.9896 0.3386 0.5078
C85_2 C 0.95617(15) 0.1855(5) 0.3199(3)
C86_2 C 0.95828(16) 0.2443(5) 0.2766(3)
H37_2 H 0.9775 0.2819 0.2798
C87_2 C 0.93162(15) 0.2468(4) 0.2287(3)
C88_2 C 0.90389(15) 0.1877(5) 0.2254(3)
H38_2 H 0.8855 0.1890 0.1934
C89_2 C 0.90310(15) 0.1282(5) 0.2678(3)
C90_2 C 0.92983(16) 0.1260(5) 0.3159(3)
H39_2 H 0.9298 0.0848 0.3449
C91_2 C 0.9332(2) 0.3089(5) 0.1815(3)
C92_2 C 0.8733(2) 0.0615(7) 0.2606(4)
N7_2 N 0.98496(13) 0.1857(4) 0.3707(2)
O29_2 O 0.95995(15) 0.3462(4) 0.1779(3)
O30_2 O 0.90455(14) 0.3136(4) 0.1442(2)
H40_2 H 0.9069 0.3491 0.1191
O31_2 O 0.84787(12) 0.0779(3) 0.2214(2)
O36_2 O 0.95293(14) 0.2717(5) 0.4172(2)
O39_2 O 0.77044(11) 0.0640(3) 0.1863(2)
C44_2 C 0.95754(15) 0.0710(5) 0.9214(3)
H23_2 H 0.9378 0.0878 0.8942
C45_2 C 0.95422(14) 0.0106(4) 0.9610(3)
O17_2 O 0.89237(11) 0.0003(4) 0.9308(2)
C58_2 C 0.99118(17) 0.1103(5) 0.9202(3)
H28_2 H 0.9933 0.1534 0.8933
Zn1_2 Zn 0.743969(15) 0.87902(5) 0.12826(3)
Zn2_2 Zn 0.813181(15) 0.99616(5) 0.19532(3)
C3_2 C 0.79545(15) 0.7681(4) 0.2878(2)
C4_2 C 0.77436(14) 0.6967(4) 0.2913(2)
H9_2 H 0.7537 0.6891 0.2640
C5_2 C 0.78354(15) 0.6362(4) 0.3350(2)
C6_2 C 0.81394(15) 0.6485(4) 0.3754(3)
H10_2 H 0.8207 0.6078 0.4048
C7_2 C 0.83410(16) 0.7203(5) 0.3723(3)
C8_2 C 0.82580(15) 0.7800(5) 0.3296(3)
H11_2 H 0.8402 0.8284 0.3283
C9_2 C 0.78609(15) 0.8328(4) 0.2395(3)
C10_2 C 0.76166(17) 0.5565(4) 0.3370(3)
C11_2 C 0.86243(19) 0.7909(5) 0.4619(3)
C12_2 C 0.89386(16) 0.8102(4) 0.5056(3)
C13_2 C 0.89162(19) 0.8676(5) 0.5483(3)
H12_2 H 0.8703 0.8947 0.5499
C14_2 C 0.9223(2) 0.8860(5) 0.5906(3)
H13_2 H 0.9209 0.9251 0.6203
C15_2 C 0.95384(18) 0.8463(5) 0.5881(3)
C16_2 C 0.98482(19) 0.8611(5) 0.6330(3)
C18_2 C 0.98794(17) 0.7450(6) 0.5393(3)
C19_2 C 0.98935(18) 0.6891(7) 0.4948(3)
C20_2 C 0.9589(2) 0.6736(7) 0.4530(3)
H15_2 H 0.9602 0.6363 0.4224
C21_2 C 0.92781(17) 0.7112(5) 0.4559(3)
C22_2 C 0.89649(19) 0.6895(6) 0.4116(3)
C23_3 C 0.92515(16) 0.7694(5) 0.5000(3)
C24_2 C 0.95603(16) 0.7878(5) 0.5427(3)
C33_2 C 0.83233(12) 0.8696(4) 0.0460(2)
C34_2 C 0.86546(14) 0.9025(4) 0.0446(3)
H19_2 H 0.8759 0.9438 0.0716
C35_2 C 0.88276(13) 0.8730(5) 0.0023(3)
C38_2 C 0.81699(13) 0.8113(4) 0.0049(2)
H21_2 H 0.7944 0.7908 0.0054
C39_2 C 0.81332(14) 0.9014(4) 0.0914(2)
C41_2 C 0.94600(16) 0.8763(5) 0.0403(3)
C42_2 C 0.98002(15) 0.9168(4) 0.0407(3)
C47_2 C 0.98349(13) 0.9812(4) 0.0010(3)
N2_2 N 0.86579(14) 0.7355(4) 0.4167(2)
N4_2 N 0.91758(12) 0.9092(4) 0.0002(2)
O1_2 O 0.75875(10) 0.8207(3) 0.20232(16)
O2_2 O 0.80743(10) 0.8947(3) 0.23951(17)
O3_2 O 0.77606(10) 0.4899(3) 0.36181(19)
O4_2 O 0.72956(11) 0.5640(3) 0.3137(2)
O9_2 O 0.89612(13) 0.6392(5) 0.3730(2)
O10_2 O 0.83437(14) 0.8231(4) 0.4637(2)
O11_2 O 0.98456(15) 0.9119(4) 0.6718(2)
O13_2 O 0.78354(10) 0.8702(3) 0.09069(19)
O14_2 O 0.82747(10) 0.9573(3) 0.12630(18)
O18_2 O 0.94204(12) 0.8199(4) 0.0732(3)
O32_2 O 0.8756(2) 0.9982(6) 0.2906(4)
Zn10_2 Zn 0.686819(15) 0.49616(5) 0.30468(3)
O37_2 O 0.72394(10) 0.9899(3) 0.13819(19)
O44_2 O 0.71411(9) 0.8015(3) 0.07949(16)
C36_2 C 0.86761(14) 0.8143(4) 0.9616(3)
H20_2 H 0.8797 0.7960 0.9333
C37_2 C 0.83428(13) 0.7817(4) 0.9622(2)
C40_2 C 0.81684(14) 0.7195(4) 0.9182(3)
C46_2 C 0.91864(15) 0.9736(5) 0.9614(3)
O15_2 O 0.78589(9) 0.6985(3) 0.92051(16)
O16_2 O 0.83235(12) 0.6913(4) 0.8815(2)
C3_3 C 0.70455(15) 0.2681(4) 0.2122(2)
C4_3 C 0.72564(14) 0.1967(4) 0.2087(2)
H9_3 H 0.7463 0.1891 0.2360
C5_3 C 0.71646(15) 0.1362(4) 0.1650(2)
C6_3 C 0.68606(15) 0.1485(4) 0.1246(3)
H10_3 H 0.6793 0.1078 0.0952
C7_3 C 0.66590(16) 0.2203(5) 0.1277(3)
C8_3 C 0.67420(15) 0.2800(5) 0.1704(3)
H11_3 H 0.6598 0.3284 0.1717
C9_3 C 0.71391(15) 0.3328(4) 0.2605(3)
C10_3 C 0.73834(17) 0.0565(4) 0.1630(3)
C11_3 C 0.63757(19) 0.2909(5) 0.0381(3)
C19_3 C 0.51065(18) 0.1891(7) 0.0052(3)
H14_3 H 0.4896 0.1614 0.0078
C20_3 C 0.5411(2) 0.1736(7) 0.0470(3)
H15_3 H 0.5398 0.1363 0.0776
C21_3 C 0.57219(17) 0.2112(5) 0.0441(3)
C22_3 C 0.60351(19) 0.1895(6) 0.0884(3)
C23_4 C 0.57485(16) 0.2694(5) 0.0000(3)
C33_3 C 0.66767(12) 0.3696(4) 0.4540(2)
C34_3 C 0.63454(14) 0.4025(4) 0.4554(3)
H19_3 H 0.6241 0.4438 0.4284
C35_3 C 0.61724(13) 0.3730(5) 0.4977(3)
C36_3 C 0.63239(14) 0.3143(4) 0.5384(3)
H20_3 H 0.6203 0.2960 0.5667
C37_3 C 0.66572(13) 0.2817(4) 0.5378(2)
C38_3 C 0.68301(13) 0.3113(4) 0.4951(2)
H21_3 H 0.7056 0.2908 0.4946
C39_3 C 0.68668(14) 0.4014(4) 0.4086(2)
C40_3 C 0.68316(14) 0.2195(4) 0.5818(3)
C41_3 C 0.55400(16) 0.3763(5) 0.4597(3)
C42_3 C 0.51998(15) 0.4168(4) 0.4593(3)
C43_3 C 0.49118(17) 0.3897(5) 0.4202(3)
H22_3 H 0.4933 0.3466 0.3933
C44_3 C 0.54246(15) 0.5710(5) 0.5786(3)
H23_3 H 0.5622 0.5878 0.6058
C45_3 C 0.54578(14) 0.5106(4) 0.5390(3)
C46_3 C 0.58136(15) 0.4736(5) 0.5386(3)
C47_3 C 0.51651(13) 0.4812(4) 0.4990(3)
N2_3 N 0.63421(14) 0.2355(4) 0.0833(2)
N4_3 N 0.58242(12) 0.4092(4) 0.4998(2)
O1_3 O 0.74125(10) 0.3207(3) 0.29768(16)
O2_3 O 0.69257(10) 0.3947(3) 0.26049(17)
O9_3 O 0.60388(13) 0.1392(5) 0.1270(2)
O10_3 O 0.66563(14) 0.3231(4) 0.0363(2)
O13_3 O 0.71646(10) 0.3702(3) 0.40931(19)
O14_3 O 0.67253(10) 0.4573(3) 0.37370(18)
O16_3 O 0.66765(12) 0.1913(4) 0.6185(2)
O17_3 O 0.60763(11) 0.5003(4) 0.5692(2)
O18_3 O 0.55796(12) 0.3199(4) 0.4268(3)
C48_3 C 0.33233(12) 0.6304(4) 0.5460(2)
C49_3 C 0.36546(14) 0.5975(4) 0.5446(3)
H25_3 H 0.3759 0.5562 0.5716
C50_3 C 0.38276(13) 0.6270(5) 0.5023(3)
C51_3 C 0.36761(14) 0.6857(4) 0.4616(3)
H26_3 H 0.3797 0.7040 0.4333
C52_3 C 0.33428(13) 0.7183(4) 0.4622(2)
C53_3 C 0.31699(13) 0.6887(4) 0.5049(2)
H27_3 H 0.2944 0.7092 0.5054
C54_3 C 0.31332(14) 0.5986(4) 0.5914(2)
C55_3 C 0.31684(14) 0.7805(4) 0.4182(3)
C56_3 C 0.44600(16) 0.6237(5) 0.5403(3)
C57_3 C 0.48002(15) 0.5832(4) 0.5407(3)
C58_3 C 0.50882(17) 0.6103(5) 0.5798(3)
H28_3 H 0.5067 0.6534 0.6067
C59_3 C 0.45754(15) 0.4290(5) 0.4214(3)
H29_3 H 0.4378 0.4122 0.3942
C60_3 C 0.45422(14) 0.4894(4) 0.4610(3)
C61_3 C 0.41864(15) 0.5264(5) 0.4614(3)
C62_3 C 0.48349(13) 0.5188(4) 0.5010(3)
N5_3 N 0.41758(12) 0.5908(4) 0.5002(2)
O19_2 O 0.28354(10) 0.6298(3) 0.59069(19)
O20_2 O 0.32747(10) 0.5427(3) 0.62630(18)
O22_3 O 0.33235(12) 0.8087(4) 0.3815(2)
O23_3 O 0.39237(11) 0.4997(4) 0.4308(2)
O24_3 O 0.44204(12) 0.6801(4) 0.5732(3)
C72_3 C 0.39386(16) 0.6898(4) 0.0056(3)
C73_3 C 0.39162(19) 0.6324(5) 0.0483(3)
H33_3 H 0.3703 0.6053 0.0499
C74_3 C 0.4223(2) 0.6140(5) 0.0906(3)
H34_3 H 0.4209 0.5749 0.1203
C75_3 C 0.45384(18) 0.6537(5) 0.0881(3)
C76_3 C 0.48482(19) 0.6389(5) 0.1330(3)
C77_3 C 0.51907(19) 0.7391(7) 0.0842(3)
C78_3 C 0.48794(17) 0.7550(6) 0.0393(3)
C83_4 C 0.42515(16) 0.7306(5) 0.0000(3)
C84_3 C 0.45603(16) 0.7122(5) 0.0427(3)
C85_3 C 0.54383(15) 0.6855(5) 0.1801(3)
C86_3 C 0.54172(16) 0.7443(5) 0.2234(3)
H37_3 H 0.5225 0.7819 0.2202
C87_3 C 0.56838(15) 0.7468(4) 0.2713(3)
C88_3 C 0.59611(15) 0.6877(5) 0.2746(3)
H38_3 H 0.6145 0.6890 0.3066
C89_3 C 0.59690(15) 0.6282(5) 0.2322(3)
C90_3 C 0.57017(16) 0.6260(5) 0.1841(3)
H39_3 H 0.5702 0.5848 0.1551
C91_3 C 0.5668(2) 0.8089(5) 0.3185(3)
C92_3 C 0.6267(2) 0.5615(7) 0.2394(4)
N7_3 N 0.51504(13) 0.6857(4) 0.1293(2)
O29_3 O 0.54005(15) 0.8462(4) 0.3221(3)
O30_3 O 0.59545(14) 0.8136(4) 0.3558(2)
H40_3 H 0.5931 0.8491 0.3809
O31_3 O 0.65213(12) 0.5779(3) 0.2786(2)
O32_3 O 0.6244(2) 0.4982(6) 0.2094(4)
O35_3 O 0.48456(15) 0.5881(4) 0.1718(2)
O36_3 O 0.54707(14) 0.7717(5) 0.0828(2)
C12_3 C 0.60614(16) 0.3102(4) 0.9944(3)
C13_3 C 0.60838(19) 0.3676(5) 0.9517(3)
H12_3 H 0.6297 0.3947 0.9501
C14_3 C 0.5777(2) 0.3860(5) 0.9094(3)
H13_3 H 0.5791 0.4251 0.8797
C15_3 C 0.54616(18) 0.3463(5) 0.9119(3)
C16_3 C 0.51518(19) 0.3611(5) 0.8670(3)
C17_3 C 0.48093(19) 0.2609(7) 0.9158(3)
C18_3 C 0.51206(17) 0.2450(6) 0.9607(3)
C23_5 C 0.57485(16) 0.2694(5) 1.0000(3)
C24_3 C 0.54397(16) 0.2878(5) 0.9573(3)
C25_3 C 0.45617(15) 0.3145(5) 0.8199(3)
C26_3 C 0.45828(16) 0.2557(5) 0.7766(3)
H16_3 H 0.4775 0.2181 0.7798
C27_3 C 0.43162(15) 0.2532(4) 0.7287(3)
C28_3 C 0.40389(15) 0.3123(5) 0.7254(3)
H17_3 H 0.3855 0.3110 0.6934
C29_3 C 0.40310(15) 0.3718(5) 0.7678(3)
C30_3 C 0.42983(16) 0.3740(5) 0.8159(3)
H18_3 H 0.4298 0.4152 0.8449
C31_3 C 0.4332(2) 0.1911(5) 0.6815(3)
C32_3 C 0.3733(2) 0.4385(7) 0.7606(4)
N3_3 N 0.48496(13) 0.3143(4) 0.8707(2)
O5_3 O 0.45995(15) 0.1538(4) 0.6779(3)
O6_3 O 0.40455(14) 0.1864(4) 0.6442(2)
H24_3 H 0.4069 0.1509 0.6191
O7_3 O 0.34787(12) 0.4221(3) 0.7214(2)
O8_3 O 0.3756(2) 0.5018(6) 0.7906(4)
O11_3 O 0.51544(15) 0.4119(4) 0.8282(2)
O12_3 O 0.45293(14) 0.2283(5) 0.9172(2)
C63_3 C 0.29545(15) 0.7319(4) 0.7878(2)
C64_3 C 0.27436(14) 0.8033(4) 0.7913(2)
H30_3 H 0.2537 0.8109 0.7640
C65_3 C 0.28354(15) 0.8638(4) 0.8350(2)
C66_3 C 0.31394(15) 0.8515(4) 0.8754(3)
H31_3 H 0.3207 0.8922 0.9048
C67_3 C 0.33410(16) 0.7797(5) 0.8723(3)
C68_3 C 0.32580(15) 0.7200(5) 0.8296(3)
H32_3 H 0.3402 0.6716 0.8283
C69_3 C 0.28609(15) 0.6672(4) 0.7395(3)
C70_3 C 0.26166(17) 0.9435(4) 0.8370(3)
C71_3 C 0.36243(19) 0.7091(5) 0.9619(3)
C79_3 C 0.48935(18) 0.8109(7) 0.9948(3)
H35_3 H 0.5104 0.8386 0.9922
C80_3 C 0.4589(2) 0.8264(7) 0.9530(3)
H36_3 H 0.4602 0.8637 0.9224
C81_3 C 0.42781(17) 0.7888(5) 0.9559(3)
C82_3 C 0.39649(19) 0.8105(6) 0.9116(3)
C83_5 C 0.42515(16) 0.7306(5) 1.0000(3)
N6_3 N 0.36579(14) 0.7645(4) 0.9167(2)
O25_3 O 0.25875(10) 0.6793(3) 0.70232(16)
O26_3 O 0.30743(10) 0.6053(3) 0.73951(17)
O33_3 O 0.39612(13) 0.8608(5) 0.8730(2)
O34_3 O 0.33437(14) 0.6769(4) 0.9637(2)
C3_4 C 0.29545(15) 0.2681(4) 0.2878(2)
C4_4 C 0.27436(14) 0.1967(4) 0.2913(2)
H9_4 H 0.2537 0.1891 0.2640
C5_4 C 0.28354(15) 0.1362(4) 0.3350(2)
C6_4 C 0.31394(15) 0.1485(4) 0.3754(3)
H10_4 H 0.3207 0.1078 0.4048
C7_4 C 0.33410(16) 0.2203(5) 0.3723(3)
C8_4 C 0.32580(15) 0.2800(5) 0.3296(3)
H11_4 H 0.3402 0.3284 0.3283
C9_4 C 0.28609(15) 0.3328(4) 0.2395(3)
C10_4 C 0.26166(17) 0.0565(4) 0.3370(3)
C11_4 C 0.36243(19) 0.2909(5) 0.4619(3)
C12_4 C 0.39386(16) 0.3102(4) 0.5056(3)
C13_4 C 0.39162(19) 0.3676(5) 0.5483(3)
H12_4 H 0.3703 0.3947 0.5499
C14_4 C 0.4223(2) 0.3860(5) 0.5906(3)
H13_4 H 0.4209 0.4251 0.6203
C15_4 C 0.45384(18) 0.3463(5) 0.5881(3)
C16_4 C 0.48482(19) 0.3611(5) 0.6330(3)
C17_4 C 0.51907(19) 0.2609(7) 0.5842(3)
C18_4 C 0.48794(17) 0.2450(6) 0.5393(3)
C19_4 C 0.48935(18) 0.1891(7) 0.4948(3)
H14_4 H 0.5104 0.1614 0.4922
C20_4 C 0.4589(2) 0.1736(7) 0.4530(3)
H15_4 H 0.4602 0.1363 0.4224
C21_4 C 0.42781(17) 0.2112(5) 0.4559(3)
C22_4 C 0.39649(19) 0.1895(6) 0.4116(3)
C23_6 C 0.42515(16) 0.2694(5) 0.5000(3)
C24_4 C 0.45603(16) 0.2878(5) 0.5427(3)
C25_4 C 0.54383(15) 0.3145(5) 0.6801(3)
C26_4 C 0.54172(16) 0.2557(5) 0.7234(3)
H16_4 H 0.5225 0.2181 0.7202
C27_4 C 0.56838(15) 0.2532(4) 0.7713(3)
C28_4 C 0.59611(15) 0.3123(5) 0.7746(3)
H17_4 H 0.6145 0.3110 0.8066
C29_4 C 0.59690(15) 0.3718(5) 0.7322(3)
C30_4 C 0.57017(16) 0.3740(5) 0.6841(3)
H18_4 H 0.5702 0.4152 0.6551
C31_4 C 0.5668(2) 0.1911(5) 0.8185(3)
C32_4 C 0.6267(2) 0.4385(7) 0.7394(4)
C33_4 C 0.33233(12) 0.3696(4) 0.0460(2)
C34_4 C 0.36546(14) 0.4025(4) 0.0446(3)
H19_4 H 0.3759 0.4438 0.0716
C35_4 C 0.38276(13) 0.3730(5) 0.0023(3)
C38_4 C 0.31699(13) 0.3113(4) 0.0049(2)
H21_4 H 0.2944 0.2908 0.0054
C39_4 C 0.31332(14) 0.4014(4) 0.0914(2)
C41_4 C 0.44600(16) 0.3763(5) 0.0403(3)
C42_4 C 0.48002(15) 0.4168(4) 0.0407(3)
C43_4 C 0.50882(17) 0.3897(5) 0.0798(3)
H22_4 H 0.5067 0.3466 0.1067
C47_4 C 0.48349(13) 0.4812(4) 0.0010(3)
N2_4 N 0.36579(14) 0.2355(4) 0.4167(2)
N3_4 N 0.51504(13) 0.3143(4) 0.6293(2)
N4_4 N 0.41758(12) 0.4092(4) 0.0002(2)
O1_4 O 0.25875(10) 0.3207(3) 0.20232(16)
O2_4 O 0.30743(10) 0.3947(3) 0.23951(17)
O5_4 O 0.54005(15) 0.1538(4) 0.8221(3)
O6_4 O 0.59545(14) 0.1864(4) 0.8558(2)
H24_4 H 0.5931 0.1509 0.8809
O7_4 O 0.65213(12) 0.4221(3) 0.7786(2)
O8_4 O 0.6244(2) 0.5018(6) 0.7094(4)
O9_4 O 0.39612(13) 0.1392(5) 0.3730(2)
O10_4 O 0.33437(14) 0.3231(4) 0.4637(2)
O11_4 O 0.48456(15) 0.4119(4) 0.6718(2)
O12_4 O 0.54707(14) 0.2283(5) 0.5828(2)
O13_4 O 0.28354(10) 0.3702(3) 0.09069(19)
O14_4 O 0.32747(10) 0.4573(3) 0.12630(18)
O18_4 O 0.44204(12) 0.3199(4) 0.0732(3)
C51_4 C 0.63239(14) 0.6857(4) 0.0384(3)
H26_4 H 0.6203 0.7040 0.0667
C52_4 C 0.66572(13) 0.7183(4) 0.0378(2)
C55_4 C 0.68316(14) 0.7805(4) 0.0818(3)
C59_4 C 0.54246(15) 0.4290(5) 0.0786(3)
H29_4 H 0.5622 0.4122 0.1058
C60_4 C 0.54578(14) 0.4894(4) 0.0390(3)
C61_4 C 0.58136(15) 0.5264(5) 0.0386(3)
O22_4 O 0.66765(12) 0.8087(4) 0.1185(2)
O23_4 O 0.60763(11) 0.4997(4) 0.0692(2)
C63_4 C 0.70455(15) 0.7319(4) 0.7122(2)
C64_4 C 0.72564(14) 0.8033(4) 0.7087(2)
H30_4 H 0.7463 0.8109 0.7360
C65_4 C 0.71646(15) 0.8638(4) 0.6650(2)
C66_4 C 0.68606(15) 0.8515(4) 0.6246(3)
H31_4 H 0.6793 0.8922 0.5952
C67_4 C 0.66590(16) 0.7797(5) 0.6277(3)
C68_4 C 0.67420(15) 0.7200(5) 0.6704(3)
H32_4 H 0.6598 0.6716 0.6717
C69_4 C 0.71391(15) 0.6672(4) 0.7605(3)
C70_4 C 0.73834(17) 0.9435(4) 0.6630(3)
C71_4 C 0.63757(19) 0.7091(5) 0.5381(3)
C72_4 C 0.60614(16) 0.6898(4) 0.4944(3)
C73_4 C 0.60838(19) 0.6324(5) 0.4517(3)
H33_4 H 0.6297 0.6053 0.4501
C74_4 C 0.5777(2) 0.6140(5) 0.4094(3)
H34_4 H 0.5791 0.5749 0.3797
C75_4 C 0.54616(18) 0.6537(5) 0.4119(3)
C76_4 C 0.51518(19) 0.6389(5) 0.3670(3)
C77_4 C 0.48093(19) 0.7391(7) 0.4158(3)
C78_4 C 0.51206(17) 0.7550(6) 0.4607(3)
C79_4 C 0.51065(18) 0.8109(7) 0.5052(3)
H35_4 H 0.4896 0.8386 0.5078
C80_4 C 0.5411(2) 0.8264(7) 0.5470(3)
H36_4 H 0.5398 0.8637 0.5776
C81_4 C 0.57219(17) 0.7888(5) 0.5441(3)
C82_4 C 0.60351(19) 0.8105(6) 0.5884(3)
C83_6 C 0.57485(16) 0.7306(5) 0.5000(3)
C84_4 C 0.54397(16) 0.7122(5) 0.4573(3)
C85_4 C 0.45617(15) 0.6855(5) 0.3199(3)
C86_4 C 0.45828(16) 0.7443(5) 0.2766(3)
H37_4 H 0.4775 0.7819 0.2798
C87_4 C 0.43162(15) 0.7468(4) 0.2287(3)
C88_4 C 0.40389(15) 0.6877(5) 0.2254(3)
H38_4 H 0.3855 0.6890 0.1934
C89_4 C 0.40310(15) 0.6282(5) 0.2678(3)
C90_4 C 0.42983(16) 0.6260(5) 0.3159(3)
H39_4 H 0.4298 0.5848 0.3449
C91_4 C 0.4332(2) 0.8089(5) 0.1815(3)
C92_4 C 0.3733(2) 0.5615(7) 0.2606(4)
N6_4 N 0.63421(14) 0.7645(4) 0.5833(2)
N7_4 N 0.48496(13) 0.6857(4) 0.3707(2)
O25_4 O 0.74125(10) 0.6793(3) 0.79768(16)
O26_4 O 0.69257(10) 0.6053(3) 0.76049(17)
O29_4 O 0.45995(15) 0.8462(4) 0.1779(3)
O30_4 O 0.40455(14) 0.8136(4) 0.1442(2)
H40_4 H 0.4069 0.8491 0.1191
O31_4 O 0.34787(12) 0.5779(3) 0.2214(2)
O32_4 O 0.3756(2) 0.4982(6) 0.2906(4)
O33_4 O 0.60388(13) 0.8608(5) 0.6270(2)
O34_4 O 0.66563(14) 0.6769(4) 0.5363(2)
O35_4 O 0.51544(15) 0.5881(4) 0.3282(2)
O36_4 O 0.45293(14) 0.7717(5) 0.4172(2)
O41_2 O 0.71646(10) 0.6298(3) 0.90931(19)
O42_2 O 0.67253(10) 0.5427(3) 0.87370(18)
C36_4 C 0.36761(14) 0.3143(4) 0.9616(3)
H20_4 H 0.3797 0.2960 0.9333
C37_4 C 0.33428(13) 0.2817(4) 0.9622(2)
C40_4 C 0.31684(14) 0.2195(4) 0.9182(3)
C44_4 C 0.45754(15) 0.5710(5) 0.9214(3)
H23_4 H 0.4378 0.5878 0.8942
C45_4 C 0.45422(14) 0.5106(4) 0.9610(3)
C46_4 C 0.41864(15) 0.4736(5) 0.9614(3)
O16_4 O 0.33235(12) 0.1913(4) 0.8815(2)
O17_4 O 0.39237(11) 0.5003(4) 0.9308(2)
C48_4 C 0.66767(12) 0.6304(4) 0.9540(2)
C49_4 C 0.63454(14) 0.5975(4) 0.9554(3)
H25_4 H 0.6241 0.5562 0.9284
C50_4 C 0.61724(13) 0.6270(5) 0.9977(3)
C53_4 C 0.68301(13) 0.6887(4) 0.9951(2)
H27_4 H 0.7056 0.7092 0.9946
C54_4 C 0.68668(14) 0.5986(4) 0.9086(2)
C56_4 C 0.55400(16) 0.6237(5) 0.9597(3)
C57_4 C 0.51998(15) 0.5832(4) 0.9593(3)
C58_4 C 0.49118(17) 0.6103(5) 0.9202(3)
H28_4 H 0.4933 0.6534 0.8933
C62_4 C 0.51651(13) 0.5188(4) 0.9990(3)
N5_4 N 0.58242(12) 0.5908(4) 0.9998(2)
O24_4 O 0.55796(12) 0.6801(4) 0.9268(3)
loop_
_geom_bond_atom_site_label_1
_geom_bond_atom_site_label_2
_geom_bond_site_symmetry_1
_geom_bond_site_symmetry_2
N1 H1 1_555 1_555
H2 N1 1_555 1_555
C1 N1 1_555 1_555
H3 C1 1_555 1_555
H4 C1 1_555 1_555
H5 C1 1_555 1_555
C2 N1 1_555 1_555
H6 C2 1_555 1_555
H7 C2 1_555 1_555
H8 C2 1_555 1_555
N1_2 H1_2 1_555 1_555
H2_2 N1_2 1_555 1_555
C1_2 N1_2 1_555 1_555
H3_2 C1_2 1_555 1_555
H4_2 C1_2 1_555 1_555
H5_2 C1_2 1_555 1_555
C2_2 N1_2 1_555 1_555
H6_2 C2_2 1_555 1_555
H7_2 C2_2 1_555 1_555
H8_2 C2_2 1_555 1_555
N1_3 H1_3 1_555 1_555
H2_3 N1_3 1_555 1_555
C1_3 N1_3 1_555 1_555
H3_3 C1_3 1_555 1_555
H4_3 C1_3 1_555 1_555
H5_3 C1_3 1_555 1_555
C2_3 N1_3 1_555 1_555
H6_3 C2_3 1_555 1_555
H7_3 C2_3 1_555 1_555
H8_3 C2_3 1_555 1_555
N1_4 H1_4 1_555 1_555
H2_4 N1_4 1_555 1_555
C1_4 N1_4 1_555 1_555
H3_4 C1_4 1_555 1_555
H4_4 C1_4 1_555 1_555
H5_4 C1_4 1_555 1_555
C2_4 N1_4 1_555 1_555
H6_4 C2_4 1_555 1_555
H7_4 C2_4 1_555 1_555
H8_4 C2_4 1_555 1_555
N1_5 H1_5 1_555 1_555
H2_5 N1_5 1_555 1_555
C1_5 N1_5 1_555 1_555
H3_5 C1_5 1_555 1_555
H4_5 C1_5 1_555 1_555
H5_5 C1_5 1_555 1_555
C2_5 N1_5 1_555 1_555
H6_5 C2_5 1_555 1_555
H7_5 C2_5 1_555 1_555
H8_5 C2_5 1_555 1_555
N1_6 H1_6 1_555 1_555
H2_6 N1_6 1_555 1_555
C1_6 N1_6 1_555 1_555
H3_6 C1_6 1_555 1_555
H4_6 C1_6 1_555 1_555
H5_6 C1_6 1_555 1_555
C2_6 N1_6 1_555 1_555
H6_6 C2_6 1_555 1_555
H7_6 C2_6 1_555 1_555
H8_6 C2_6 1_555 1_555
N1_7 H1_7 1_555 1_555
H2_7 N1_7 1_555 1_555
C1_7 N1_7 1_555 1_555
H3_7 C1_7 1_555 1_555
H4_7 C1_7 1_555 1_555
H5_7 C1_7 1_555 1_555
C2_7 N1_7 1_555 1_555
H6_7 C2_7 1_555 1_555
H7_7 C2_7 1_555 1_555
H8_7 C2_7 1_555 1_555
N1_8 H1_8 1_555 1_555
H2_8 N1_8 1_555 1_555
C1_8 N1_8 1_555 1_555
H3_8 C1_8 1_555 1_555
H4_8 C1_8 1_555 1_555
H5_8 C1_8 1_555 1_555
C2_8 N1_8 1_555 1_555
H6_8 C2_8 1_555 1_555
H7_8 C2_8 1_555 1_555
H8_8 C2_8 1_555 1_555
C44 H23 1_555 1_555
C45 C44 1_555 1_555
C58 C44 1_555 1_555
H28 C58 1_555 1_555
C85 C86 1_555 1_555
C86 H37 1_555 1_555
C87 C86 1_555 1_555
C88 C87 1_555 1_555
H38 C88 1_555 1_555
C89 C88 1_555 1_555
C90 C85 1_555 1_555
H39 C90 1_555 1_555
C91 C87 1_555 1_555
C92 C89 1_555 1_555
O29 C91 1_555 1_555
O30 C91 1_555 1_555
H40 O30 1_555 1_555
O36 C77 1_555 1_555
C77 N7 1_555 1_555
C85 N7 1_555 1_555
C89 C90 1_555 1_555
C92 O31 1_555 1_555
Zn1 O1 1_555 1_555
Zn2 O2 1_555 1_555
C3 C4 1_555 1_555
C4 H9 1_555 1_555
C5 C4 1_555 1_555
C6 C5 1_555 1_555
H10 C6 1_555 1_555
C7 C6 1_555 1_555
C8 C3 1_555 1_555
H11 C8 1_555 1_555
C9 C3 1_555 1_555
C10 C5 1_555 1_555
C20 C19 1_555 1_555
H15 C20 1_555 1_555
C21 C20 1_555 1_555
C22 C21 1_555 1_555
C33 C34 1_555 1_555
C34 H19 1_555 1_555
C35 C34 1_555 1_555
C36 C35 1_555 1_555
H20 C36 1_555 1_555
C37 C36 1_555 1_555
C38 C33 1_555 1_555
H21 C38 1_555 1_555
C39 C33 1_555 1_555
C40 C37 1_555 1_555
C41 C42 1_555 1_555
C47 C42 1_555 1_555
N2 C7 1_555 1_555
N4 C35 1_555 1_555
O1 C9 1_555 1_555
O2 C9 1_555 1_555
O3 C10 1_555 1_555
O4 C10 1_555 1_555
O9 C22 1_555 1_555
O10 C11 1_555 1_555
O13 Zn1 1_555 1_555
O14 Zn2 1_555 1_555
O15 C40 1_555 1_555
O16 C40 1_555 1_555
O18 C41 1_555 1_555
Zn6 O3 1_555 1_555
Zn8 O15 1_555 1_555
Zn10 O4 1_555 1_555
O37 Zn1 1_555 1_555
O44 Zn1 1_555 1_555
C7 C8 1_555 1_555
C11 N2 1_555 1_555
C21 C23 1_555 1_555
C22 N2 1_555 1_555
C37 C38 1_555 1_555
C39 O13 1_555 1_555
C39 O14 1_555 1_555
C41 N4 1_555 1_555
C46 N4 1_555 1_555
C12 C13 1_555 1_555
C13 H12 1_555 1_555
C14 C13 1_555 1_555
H13 C14 1_555 1_555
C15 C14 1_555 1_555
C16 C15 1_555 1_555
C23_2 C12 1_555 1_555
C24 C15 1_555 1_555
O11 C16 1_555 1_555
C18 C24 1_555 1_555
C23_2 C24 1_555 1_555
C48 C49 1_555 1_555
C49 H25 1_555 1_555
C50 C49 1_555 1_555
C51 C50 1_555 1_555
H26 C51 1_555 1_555
C52 C51 1_555 1_555
C53 C48 1_555 1_555
H27 C53 1_555 1_555
C54 C48 1_555 1_555
C55 C52 1_555 1_555
C56 C57 1_555 1_555
N5 C50 1_555 1_555
O19 C54 1_555 1_555
O20 C54 1_555 1_555
O21 C55 1_555 1_555
O22 C55 1_555 1_555
O24 C56 1_555 1_555
C72 C73 1_555 1_555
C73 H33 1_555 1_555
C74 C73 1_555 1_555
H34 C74 1_555 1_555
C75 C74 1_555 1_555
C76 C75 1_555 1_555
C83 C72 1_555 1_555
C84 C75 1_555 1_555
O35 C76 1_555 1_555
Zn5 O21 1_555 1_555
Zn7 O19 1_555 1_555
Zn11 O20 1_555 1_555
C52 C53 1_555 1_555
C56 N5 1_555 1_555
C57 C62 1_555 1_555
C61 N5 1_555 1_555
C78 C84 1_555 1_555
C83 C84 1_555 1_555
Zn7 O25 1_555 1_555
C63 C64 1_555 1_555
C64 H30 1_555 1_555
C65 C64 1_555 1_555
C66 C65 1_555 1_555
H31 C66 1_555 1_555
C67 C66 1_555 1_555
C68 C63 1_555 1_555
H32 C68 1_555 1_555
C69 C63 1_555 1_555
C70 C65 1_555 1_555
C80 C79 1_555 1_555
H36 C80 1_555 1_555
C81 C80 1_555 1_555
C82 C81 1_555 1_555
N6 C67 1_555 1_555
O25 C69 1_555 1_555
O26 Zn11 1_555 1_555
O27 C70 1_555 1_555
O28 C70 1_555 1_555
O33 C82 1_555 1_555
O34 C71 1_555 1_555
Zn9 O27 1_555 1_555
Zn12 O28 1_555 1_555
O38 Zn7 1_555 1_555
O43 Zn7 1_555 1_555
C67 C68 1_555 1_555
C69 O26 1_555 1_555
C71 N6 1_555 1_555
C81 C83_2 1_555 1_555
C82 N6 1_555 1_555
C43 H22 1_555 1_555
C59 C43 1_555 1_555
H29 C59 1_555 1_555
C60 C59 1_555 1_555
C25 C26 1_555 1_555
C26 H16 1_555 1_555
C27 C26 1_555 1_555
C28 C27 1_555 1_555
H17 C28 1_555 1_555
C29 C28 1_555 1_555
C30 C25 1_555 1_555
H18 C30 1_555 1_555
C31 C27 1_555 1_555
C32 C29 1_555 1_555
O5 C31 1_555 1_555
O6 C31 1_555 1_555
H24 O6 1_555 1_555
O7 C32 1_555 1_555
O12 C17 1_555 1_555
C17 N3 1_555 1_555
C25 N3 1_555 1_555
C29 C30 1_555 1_555
H26_2 C51_2 1_555 1_555
C52_2 C51_2 1_555 1_555
C55_2 C52_2 1_555 1_555
O21_2 C55_2 1_555 1_555
O22_2 C55_2 1_555 1_555
Zn3 O25_2 1_555 1_555
C63_2 C64_2 1_555 1_555
C64_2 H30_2 1_555 1_555
C65_2 C64_2 1_555 1_555
C66_2 C65_2 1_555 1_555
H31_2 C66_2 1_555 1_555
C67_2 C66_2 1_555 1_555
C68_2 C63_2 1_555 1_555
H32_2 C68_2 1_555 1_555
C69_2 C63_2 1_555 1_555
C70_2 C65_2 1_555 1_555
C71_2 C72_2 1_555 1_555
C72_2 C73_2 1_555 1_555
C73_2 H33_2 1_555 1_555
C74_2 C73_2 1_555 1_555
H34_2 C74_2 1_555 1_555
C75_2 C74_2 1_555 1_555
C76_2 C75_2 1_555 1_555
C78_2 C79_2 1_555 1_555
C80_2 C79_2 1_555 1_555
H36_2 C80_2 1_555 1_555
C81_2 C80_2 1_555 1_555
C82_2 C81_2 1_555 1_555
C83_3 C72_2 1_555 1_555
C84_2 C75_2 1_555 1_555
N6_2 C67_2 1_555 1_555
O25_2 C69_2 1_555 1_555
O26_2 Zn4 1_555 1_555
O27_2 C70_2 1_555 1_555
O28_2 C70_2 1_555 1_555
O33_2 C82_2 1_555 1_555
O34_2 C71_2 1_555 1_555
O35_2 C76_2 1_555 1_555
Zn6 O21_2 1_555 1_555
Zn8 O27_2 1_555 1_555
Zn12_2 O28_2 1_555 1_555
O38_2 Zn3 1_555 1_555
O41 Zn3 1_555 1_555
O42 Zn4 1_555 1_555
O43_2 Zn3 1_555 1_555
C67_2 C68_2 1_555 1_555
C69_2 O26_2 1_555 1_555
C71_2 N6_2 1_555 1_555
C78_2 C84_2 1_555 1_555
C81_2 C83_3 1_555 1_555
C82_2 N6_2 1_555 1_555
C83_3 C84_2 1_555 1_555
C48_2 C49_2 1_555 1_555
C49_2 H25_2 1_555 1_555
C50_2 C49_2 1_555 1_555
C53_2 C48_2 1_555 1_555
H27_2 C53_2 1_555 1_555
C54_2 C48_2 1_555 1_555
C56_2 C57_2 1_555 1_555
N5_2 C50_2 1_555 1_555
O41 C54_2 1_555 1_555
O42 C54_2 1_555 1_555
O24_2 C56_2 1_555 1_555
C56_2 N5_2 1_555 1_555
C57_2 C62_2 1_555 1_555
C25_2 C26_2 1_555 1_555
C26_2 H16_2 1_555 1_555
C27_2 C26_2 1_555 1_555
C28_2 C27_2 1_555 1_555
H17_2 C28_2 1_555 1_555
C29_2 C28_2 1_555 1_555
C30_2 C25_2 1_555 1_555
H18_2 C30_2 1_555 1_555
C31_2 C27_2 1_555 1_555
C32_2 C29_2 1_555 1_555
C43_2 H22_2 1_555 1_555
O5_2 C31_2 1_555 1_555
O6_2 C31_2 1_555 1_555
H24_2 O6_2 1_555 1_555
O7_2 C32_2 1_555 1_555
O12_2 C17_2 1_555 1_555
C59_2 C43_2 1_555 1_555
H29_2 C59_2 1_555 1_555
C60_2 C59_2 1_555 1_555
C17_2 N3_2 1_555 1_555
C25_2 N3_2 1_555 1_555
C29_2 C30_2 1_555 1_555
C85_2 C86_2 1_555 1_555
C86_2 H37_2 1_555 1_555
C87_2 C86_2 1_555 1_555
C88_2 C87_2 1_555 1_555
H38_2 C88_2 1_555 1_555
C89_2 C88_2 1_555 1_555
C90_2 C85_2 1_555 1_555
H39_2 C90_2 1_555 1_555
C91_2 C87_2 1_555 1_555
C92_2 C89_2 1_555 1_555
O29_2 C91_2 1_555 1_555
O30_2 C91_2 1_555 1_555
H40_2 O30_2 1_555 1_555
O36_2 C77_2 1_555 1_555
C77_2 N7_2 1_555 1_555
C85_2 N7_2 1_555 1_555
C89_2 C90_2 1_555 1_555
C92_2 O31_2 1_555 1_555
C44_2 H23_2 1_555 1_555
C45_2 C44_2 1_555 1_555
C58_2 C44_2 1_555 1_555
H28_2 C58_2 1_555 1_555
Zn1_2 O1_2 1_555 1_555
Zn2_2 O2_2 1_555 1_555
C3_2 C4_2 1_555 1_555
C4_2 H9_2 1_555 1_555
C5_2 C4_2 1_555 1_555
C6_2 C5_2 1_555 1_555
H10_2 C6_2 1_555 1_555
C7_2 C6_2 1_555 1_555
C8_2 C3_2 1_555 1_555
H11_2 C8_2 1_555 1_555
C9_2 C3_2 1_555 1_555
C10_2 C5_2 1_555 1_555
C11_2 C12_2 1_555 1_555
C12_2 C13_2 1_555 1_555
C13_2 H12_2 1_555 1_555
C14_2 C13_2 1_555 1_555
H13_2 C14_2 1_555 1_555
C15_2 C14_2 1_555 1_555
C16_2 C15_2 1_555 1_555
C18_2 C19_2 1_555 1_555
C20_2 C19_2 1_555 1_555
H15_2 C20_2 1_555 1_555
C21_2 C20_2 1_555 1_555
C22_2 C21_2 1_555 1_555
C23_3 C12_2 1_555 1_555
C24_2 C15_2 1_555 1_555
C33_2 C34_2 1_555 1_555
C34_2 H19_2 1_555 1_555
C35_2 C34_2 1_555 1_555
C38_2 C33_2 1_555 1_555
H21_2 C38_2 1_555 1_555
C39_2 C33_2 1_555 1_555
C41_2 C42_2 1_555 1_555
C47_2 C42_2 1_555 1_555
N2_2 C7_2 1_555 1_555
N4_2 C35_2 1_555 1_555
O1_2 C9_2 1_555 1_555
O2_2 C9_2 1_555 1_555
O3_2 C10_2 1_555 1_555
O4_2 C10_2 1_555 1_555
O9_2 C22_2 1_555 1_555
O10_2 C11_2 1_555 1_555
O11_2 C16_2 1_555 1_555
O13_2 Zn1_2 1_555 1_555
O14_2 Zn2_2 1_555 1_555
O18_2 C41_2 1_555 1_555
Zn5 O3_2 1_555 1_555
Zn10_2 O4_2 1_555 1_555
O37_2 Zn1_2 1_555 1_555
O44_2 Zn1_2 1_555 1_555
C7_2 C8_2 1_555 1_555
C11_2 N2_2 1_555 1_555
C18_2 C24_2 1_555 1_555
C21_2 C23_3 1_555 1_555
C22_2 N2_2 1_555 1_555
C23_3 C24_2 1_555 1_555
C39_2 O13_2 1_555 1_555
C39_2 O14_2 1_555 1_555
C41_2 N4_2 1_555 1_555
H20_2 C36_2 1_555 1_555
C37_2 C36_2 1_555 1_555
C40_2 C37_2 1_555 1_555
O15_2 C40_2 1_555 1_555
O16_2 C40_2 1_555 1_555
Zn9 O15_2 1_555 1_555
Zn5 O1_3 1_555 1_555
Zn10_2 O2_3 1_555 1_555
C3_3 C4_3 1_555 1_555
C4_3 H9_3 1_555 1_555
C5_3 C4_3 1_555 1_555
C6_3 C5_3 1_555 1_555
H10_3 C6_3 1_555 1_555
C7_3 C6_3 1_555 1_555
C8_3 C3_3 1_555 1_555
H11_3 C8_3 1_555 1_555
C9_3 C3_3 1_555 1_555
C10_3 C5_3 1_555 1_555
C19_3 H14_3 1_555 1_555
C20_3 C19_3 1_555 1_555
H15_3 C20_3 1_555 1_555
C21_3 C20_3 1_555 1_555
C22_3 C21_3 1_555 1_555
C33_3 C34_3 1_555 1_555
C34_3 H19_3 1_555 1_555
C35_3 C34_3 1_555 1_555
C36_3 C35_3 1_555 1_555
H20_3 C36_3 1_555 1_555
C37_3 C36_3 1_555 1_555
C38_3 C33_3 1_555 1_555
H21_3 C38_3 1_555 1_555
C39_3 C33_3 1_555 1_555
C40_3 C37_3 1_555 1_555
C41_3 C42_3 1_555 1_555
C42_3 C43_3 1_555 1_555
C43_3 H22_3 1_555 1_555
C44_3 H23_3 1_555 1_555
C45_3 C44_3 1_555 1_555
C46_3 C45_3 1_555 1_555
C47_3 C42_3 1_555 1_555
N2_3 C7_3 1_555 1_555
N4_3 C35_3 1_555 1_555
O1_3 C9_3 1_555 1_555
O2_3 C9_3 1_555 1_555
O39_2 C10_3 1_555 1_555
O9_3 C22_3 1_555 1_555
O10_3 C11_3 1_555 1_555
O13_3 Zn5 1_555 1_555
O14_3 Zn10_2 1_555 1_555
O43 C40_3 1_555 1_555
O16_3 C40_3 1_555 1_555
O17_3 C46_3 1_555 1_555
O18_3 C41_3 1_555 1_555
C48_3 C49_3 1_555 1_555
C49_3 H25_3 1_555 1_555
C50_3 C49_3 1_555 1_555
C51_3 C50_3 1_555 1_555
H26_3 C51_3 1_555 1_555
C52_3 C51_3 1_555 1_555
C53_3 C48_3 1_555 1_555
H27_3 C53_3 1_555 1_555
C54_3 C48_3 1_555 1_555
C55_3 C52_3 1_555 1_555
C56_3 C57_3 1_555 1_555
C57_3 C58_3 1_555 1_555
C58_3 C44_3 1_555 1_555
H28_3 C58_3 1_555 1_555
C59_3 C43_3 1_555 1_555
H29_3 C59_3 1_555 1_555
C60_3 C59_3 1_555 1_555
C61_3 C60_3 1_555 1_555
C62_3 C47_3 1_555 1_555
N5_3 C50_3 1_555 1_555
O19_2 C54_3 1_555 1_555
O20_2 C54_3 1_555 1_555
O44 C55_3 1_555 1_555
O22_3 C55_3 1_555 1_555
O23_3 C61_3 1_555 1_555
O24_3 C56_3 1_555 1_555
C72_3 C73_3 1_555 1_555
C73_3 H33_3 1_555 1_555
C74_3 C73_3 1_555 1_555
H34_3 C74_3 1_555 1_555
C75_3 C74_3 1_555 1_555
C76_3 C75_3 1_555 1_555
C77_3 C78_3 1_555 1_555
C83_4 C72_3 1_555 1_555
C84_3 C75_3 1_555 1_555
C85_3 C86_3 1_555 1_555
C86_3 H37_3 1_555 1_555
C87_3 C86_3 1_555 1_555
C88_3 C87_3 1_555 1_555
H38_3 C88_3 1_555 1_555
C89_3 C88_3 1_555 1_555
C90_3 C85_3 1_555 1_555
H39_3 C90_3 1_555 1_555
C91_3 C87_3 1_555 1_555
C92_3 C89_3 1_555 1_555
N7_3 C76_3 1_555 1_555
O29_3 C91_3 1_555 1_555
O30_3 C91_3 1_555 1_555
H40_3 O30_3 1_555 1_555
O31_3 Zn10_2 1_555 1_555
O32_3 C92_3 1_555 1_555
O35_3 C76_3 1_555 1_555
O36_3 C77_3 1_555 1_555
Zn8 O19_2 1_555 1_555
Zn12_2 O20_2 1_555 1_555
C7_3 C8_3 1_555 1_555
C11_3 N2_3 1_555 1_555
C21_3 C23_4 1_555 1_555
C22_3 N2_3 1_555 1_555
C37_3 C38_3 1_555 1_555
C39_3 O13_3 1_555 1_555
C39_3 O14_3 1_555 1_555
C41_3 N4_3 1_555 1_555
C45_3 C47_3 1_555 1_555
C46_3 N4_3 1_555 1_555
C52_3 C53_3 1_555 1_555
C56_3 N5_3 1_555 1_555
C57_3 C62_3 1_555 1_555
C60_3 C62_3 1_555 1_555
C61_3 N5_3 1_555 1_555
C77_3 N7_3 1_555 1_555
C78_3 C84_3 1_555 1_555
C83_4 C84_3 1_555 1_555
C85_3 N7_3 1_555 1_555
C89_3 C90_3 1_555 1_555
C92_3 O31_3 1_555 1_555
C12_3 C13_3 1_555 1_555
C13_3 H12_3 1_555 1_555
C14_3 C13_3 1_555 1_555
H13_3 C14_3 1_555 1_555
C15_3 C14_3 1_555 1_555
C16_3 C15_3 1_555 1_555
C17_3 C18_3 1_555 1_555
C23_5 C12_3 1_555 1_555
C24_3 C15_3 1_555 1_555
C25_3 C26_3 1_555 1_555
C26_3 H16_3 1_555 1_555
C27_3 C26_3 1_555 1_555
C28_3 C27_3 1_555 1_555
H17_3 C28_3 1_555 1_555
C29_3 C28_3 1_555 1_555
C30_3 C25_3 1_555 1_555
H18_3 C30_3 1_555 1_555
C31_3 C27_3 1_555 1_555
C32_3 C29_3 1_555 1_555
N3_3 C16_3 1_555 1_555
O5_3 C31_3 1_555 1_555
O6_3 C31_3 1_555 1_555
H24_3 O6_3 1_555 1_555
O7_3 C32_3 1_555 1_555
O8_3 C32_3 1_555 1_555
O11_3 C16_3 1_555 1_555
O12_3 C17_3 1_555 1_555
Zn8 O25_3 1_555 1_555
Zn12_2 O7_3 1_555 1_555
C63_3 C64_3 1_555 1_555
C64_3 H30_3 1_555 1_555
C65_3 C64_3 1_555 1_555
C66_3 C65_3 1_555 1_555
H31_3 C66_3 1_555 1_555
C67_3 C66_3 1_555 1_555
C68_3 C63_3 1_555 1_555
H32_3 C68_3 1_555 1_555
C69_3 C63_3 1_555 1_555
C70_3 C65_3 1_555 1_555
C79_3 H35_3 1_555 1_555
C80_3 C79_3 1_555 1_555
H36_3 C80_3 1_555 1_555
C81_3 C80_3 1_555 1_555
C82_3 C81_3 1_555 1_555
N6_3 C67_3 1_555 1_555
O25_3 C69_3 1_555 1_555
O26_3 Zn12_2 1_555 1_555
O40_2 C70_3 1_555 1_555
O33_3 C82_3 1_555 1_555
O34_3 C71_3 1_555 1_555
C17_3 N3_3 1_555 1_555
C18_3 C24_3 1_555 1_555
C23_5 C24_3 1_555 1_555
C25_3 N3_3 1_555 1_555
C29_3 C30_3 1_555 1_555
C67_3 C68_3 1_555 1_555
C69_3 O26_3 1_555 1_555
C71_3 N6_3 1_555 1_555
C81_3 C83_5 1_555 1_555
C82_3 N6_3 1_555 1_555
Zn6 O1_4 1_555 1_555
Zn10 O2_4 1_555 1_555
C3_4 C4_4 1_555 1_555
C4_4 H9_4 1_555 1_555
C5_4 C4_4 1_555 1_555
C6_4 C5_4 1_555 1_555
H10_4 C6_4 1_555 1_555
C7_4 C6_4 1_555 1_555
C8_4 C3_4 1_555 1_555
H11_4 C8_4 1_555 1_555
C9_4 C3_4 1_555 1_555
C10_4 C5_4 1_555 1_555
C11_4 C12_4 1_555 1_555
C12_4 C13_4 1_555 1_555
C13_4 H12_4 1_555 1_555
C14_4 C13_4 1_555 1_555
H13_4 C14_4 1_555 1_555
C15_4 C14_4 1_555 1_555
C16_4 C15_4 1_555 1_555
C17_4 C18_4 1_555 1_555
C18_4 C19_4 1_555 1_555
C19_4 H14_4 1_555 1_555
C20_4 C19_4 1_555 1_555
H15_4 C20_4 1_555 1_555
C21_4 C20_4 1_555 1_555
C22_4 C21_4 1_555 1_555
C23_6 C12_4 1_555 1_555
C24_4 C15_4 1_555 1_555
C25_4 C26_4 1_555 1_555
C26_4 H16_4 1_555 1_555
C27_4 C26_4 1_555 1_555
C28_4 C27_4 1_555 1_555
H17_4 C28_4 1_555 1_555
C29_4 C28_4 1_555 1_555
C30_4 C25_4 1_555 1_555
H18_4 C30_4 1_555 1_555
C31_4 C27_4 1_555 1_555
C32_4 C29_4 1_555 1_555
C33_4 C34_4 1_555 1_555
C34_4 H19_4 1_555 1_555
C35_4 C34_4 1_555 1_555
C38_4 C33_4 1_555 1_555
H21_4 C38_4 1_555 1_555
C39_4 C33_4 1_555 1_555
C41_4 C42_4 1_555 1_555
C42_4 C43_4 1_555 1_555
C43_4 H22_4 1_555 1_555
C47_4 C42_4 1_555 1_555
N2_4 C7_4 1_555 1_555
N3_4 C16_4 1_555 1_555
N4_4 C35_4 1_555 1_555
O1_4 C9_4 1_555 1_555
O2_4 C9_4 1_555 1_555
O39 C10_4 1_555 1_555
O5_4 C31_4 1_555 1_555
O6_4 C31_4 1_555 1_555
H24_4 O6_4 1_555 1_555
O7_4 C32_4 1_555 1_555
O8_4 C32_4 1_555 1_555
O9_4 C22_4 1_555 1_555
O10_4 C11_4 1_555 1_555
O11_4 C16_4 1_555 1_555
O12_4 C17_4 1_555 1_555
O13_4 Zn6 1_555 1_555
O14_4 Zn10 1_555 1_555
O18_4 C41_4 1_555 1_555
H26_4 C51_4 1_555 1_555
C52_4 C51_4 1_555 1_555
C55_4 C52_4 1_555 1_555
C59_4 C43_4 1_555 1_555
H29_4 C59_4 1_555 1_555
C60_4 C59_4 1_555 1_555
C61_4 C60_4 1_555 1_555
O44_2 C55_4 1_555 1_555
O22_4 C55_4 1_555 1_555
O23_4 C61_4 1_555 1_555
Zn9 O25_4 1_555 1_555
Zn12 O7_4 1_555 1_555
C63_4 C64_4 1_555 1_555
C64_4 H30_4 1_555 1_555
C65_4 C64_4 1_555 1_555
C66_4 C65_4 1_555 1_555
H31_4 C66_4 1_555 1_555
C67_4 C66_4 1_555 1_555
C68_4 C63_4 1_555 1_555
H32_4 C68_4 1_555 1_555
C69_4 C63_4 1_555 1_555
C70_4 C65_4 1_555 1_555
C71_4 C72_4 1_555 1_555
C72_4 C73_4 1_555 1_555
C73_4 H33_4 1_555 1_555
C74_4 C73_4 1_555 1_555
H34_4 C74_4 1_555 1_555
C75_4 C74_4 1_555 1_555
C76_4 C75_4 1_555 1_555
C77_4 C78_4 1_555 1_555
C78_4 C79_4 1_555 1_555
C79_4 H35_4 1_555 1_555
C80_4 C79_4 1_555 1_555
H36_4 C80_4 1_555 1_555
C81_4 C80_4 1_555 1_555
C82_4 C81_4 1_555 1_555
C83_6 C72_4 1_555 1_555
C84_4 C75_4 1_555 1_555
C85_4 C86_4 1_555 1_555
C86_4 H37_4 1_555 1_555
C87_4 C86_4 1_555 1_555
C88_4 C87_4 1_555 1_555
H38_4 C88_4 1_555 1_555
C89_4 C88_4 1_555 1_555
C90_4 C85_4 1_555 1_555
H39_4 C90_4 1_555 1_555
C91_4 C87_4 1_555 1_555
C92_4 C89_4 1_555 1_555
N6_4 C67_4 1_555 1_555
N7_4 C76_4 1_555 1_555
O25_4 C69_4 1_555 1_555
O26_4 Zn12 1_555 1_555
O40 C70_4 1_555 1_555
O29_4 C91_4 1_555 1_555
O30_4 C91_4 1_555 1_555
H40_4 O30_4 1_555 1_555
O31_4 Zn10 1_555 1_555
O32_4 C92_4 1_555 1_555
O33_4 C82_4 1_555 1_555
O34_4 C71_4 1_555 1_555
O35_4 C76_4 1_555 1_555
O36_4 C77_4 1_555 1_555
O41_2 Zn9 1_555 1_555
O42_2 Zn12 1_555 1_555
C7_4 C8_4 1_555 1_555
C11_4 N2_4 1_555 1_555
C17_4 N3_4 1_555 1_555
C18_4 C24_4 1_555 1_555
C21_4 C23_6 1_555 1_555
C22_4 N2_4 1_555 1_555
C23_6 C24_4 1_555 1_555
C25_4 N3_4 1_555 1_555
C29_4 C30_4 1_555 1_555
C39_4 O13_4 1_555 1_555
C39_4 O14_4 1_555 1_555
C41_4 N4_4 1_555 1_555
C67_4 C68_4 1_555 1_555
C69_4 O26_4 1_555 1_555
C71_4 N6_4 1_555 1_555
C77_4 N7_4 1_555 1_555
C78_4 C84_4 1_555 1_555
C81_4 C83_6 1_555 1_555
C82_4 N6_4 1_555 1_555
C83_6 C84_4 1_555 1_555
C85_4 N7_4 1_555 1_555
C89_4 C90_4 1_555 1_555
C92_4 O31_4 1_555 1_555
H20_4 C36_4 1_555 1_555
C37_4 C36_4 1_555 1_555
C40_4 C37_4 1_555 1_555
C44_4 H23_4 1_555 1_555
C45_4 C44_4 1_555 1_555
C46_4 C45_4 1_555 1_555
O43_2 C40_4 1_555 1_555
O16_4 C40_4 1_555 1_555
O17_4 C46_4 1_555 1_555
C48_4 C49_4 1_555 1_555
C49_4 H25_4 1_555 1_555
C50_4 C49_4 1_555 1_555
C53_4 C48_4 1_555 1_555
H27_4 C53_4 1_555 1_555
C54_4 C48_4 1_555 1_555
C56_4 C57_4 1_555 1_555
C57_4 C58_4 1_555 1_555
C58_4 C44_4 1_555 1_555
H28_4 C58_4 1_555 1_555
N5_4 C50_4 1_555 1_555
O41_2 C54_4 1_555 1_555
O42_2 C54_4 1_555 1_555
O24_4 C56_4 1_555 1_555
C56_4 N5_4 1_555 1_555
C57_4 C62_4 1_555 1_555

#END
