
###############################################################################
#
# This file contains modified crystal structure data generated from the
# MOF subset of the Cambridge Structural Database (CSD) v543 
# hosted by the Cambridge Crystallographic Data Centre (CCDC).
#
# This work is licensed under the Creative Commons
# Attribution-NonCommercial-ShareAlike 4.0 International License.
# To view a copy of this license, visit
# http://creativecommons.org/licenses/by-nc-sa/4.0/
# or send a letter to
# Creative Commons, PO Box 1866, Mountain View, CA 94042, USA.
#
# CIF created using the CSD Python API on 29 September 2022
# The structure has been converted into the P1 space group
# The structure has a 3D framework
# The original CSD entry FONPUV is in the orthorhombic crystal system
# The framework has been calculated to contain at least 10.0% void space
# The void calculation uses a probe of radius 1.32A, grid spacing 0.4
#
###############################################################################

data_FONPUV
_chemical_formula_moiety         '(C120 H80 O64 Zn12)n'
_symmetry_cell_setting           triclinic
_symmetry_space_group_name_H-M   'P 1'
_symmetry_Int_Tables_number      1
_space_group_name_Hall           'P 1'
loop_
_symmetry_equiv_pos_site_id
_symmetry_equiv_pos_as_xyz
1 x,y,z
_cell_length_a                   20.2193(4)
_cell_length_b                   6.57160(10)
_cell_length_c                   27.9350(5)
_cell_angle_alpha                90
_cell_angle_beta                 90
_cell_angle_gamma                90
_cell_volume                     3711.81
loop_
_atom_site_label
_atom_site_type_symbol
_atom_site_fract_x
_atom_site_fract_y
_atom_site_fract_z
H2 H 0.0730 0.0720 0.8778
H3 H 0.1148 0.1109 0.8016
Zn2 Zn 0.22132(3) 0.01403(9) 0.66775(2)
O10 O 0.14550(18) 0.0608(5) 0.61791(12)
O12 O 0.27828(17) 0.2262(5) 0.63696(11)
C12 C 0.0266(3) 0.7647(7) 0.00213(17)
C15 C 0.0749(3) 0.7832(8) 0.04246(19)
O5 O 0.0509(2) 0.7682(5) 0.08452(12)
O6 O 0.1347(2) 0.8121(6) 0.03492(14)
Zn5 Zn 0.12331(3) 0.81035(9) 0.128511(19)
C1 C 0.1125(3) 0.8624(8) 0.72648(18)
C2 C 0.0806(3) 0.8434(8) 0.77499(17)
C3 C 0.0443(3) 0.6734(8) 0.78664(19)
C4 C 0.0184(3) 0.6510(9) 0.83293(18)
C5 C 0.0285(3) 0.8025(8) 0.86704(17)
C6 C 0.0653(3) 0.9718(8) 0.85492(19)
C7 C 0.0908(3) 0.9947(8) 0.8094(2)
H4 H 0.0367 0.5731 0.7636
C8 C 0.0035(2) 0.7751(7) 0.91737(16)
C13 C 0.0476(3) 0.7911(8) 0.95553(17)
H7 H 0.0919 0.8201 0.9495
O1 O 0.15818(19) 0.9917(6) 0.72201(12)
O2 O 0.09193(19) 0.7445(5) 0.69413(12)
O7 O 0.22172(17) 0.7262(5) 0.63696(11)
H8 H 0.2437 0.7864 0.6084
O8 O 0.2947(2) 0.9344(7) 0.71739(13)
H9 H 0.3373 0.9479 0.7026
H10 H 0.2882 0.7959 0.7273
Zn1 Zn 0.12331(3) 0.68965(9) 0.628511(19)
O9 O 0.12538(18) 0.3801(5) 0.63777(11)
O11 O 0.0509(2) 0.7318(5) 0.58452(12)
Zn7 Zn 0.27868(3) 0.51403(9) 0.66775(2)
Zn4 Zn 0.87669(3) 0.18965(9) 0.871489(19)
H1 H 0.9945 0.5349 0.8409
C9 C 0.9375(3) 0.7325(7) 0.92632(16)
C10 C 0.9160(3) 0.7037(7) 0.97360(16)
H5 H 0.8720 0.6737 0.9800
C14 C 0.8860(2) 0.7225(8) 0.88752(17)
O3 O 0.87462(18) 0.8801(5) 0.86223(11)
O4 O 0.85450(18) 0.5608(5) 0.88209(12)
Zn6 Zn 0.77868(3) 0.51403(9) 0.83225(2)
C1_2 C 0.3875(3) 0.1376(8) 0.22648(18)
C2_2 C 0.4194(3) 0.1566(8) 0.27499(17)
C3_2 C 0.4557(3) 0.3266(8) 0.28664(19)
C4_2 C 0.4816(3) 0.3490(9) 0.33293(18)
H1_2 H 0.5055 0.4651 0.3409
C5_2 C 0.4715(3) 0.1975(8) 0.36704(17)
C6_2 C 0.4347(3) 0.0282(8) 0.35492(19)
C7_2 C 0.4092(3) 0.0053(8) 0.3094(2)
H4_2 H 0.4633 0.4269 0.2636
C8_2 C 0.4965(2) 0.2249(7) 0.41737(16)
C9_2 C 0.5625(3) 0.2675(7) 0.42632(16)
C10_2 C 0.5840(3) 0.2963(7) 0.47360(16)
H5_2 H 0.6280 0.3263 0.4800
C11 C 0.5387(3) 0.2795(7) 0.51072(17)
H6 H 0.5528 0.2985 0.5421
C12_2 C 0.4734(3) 0.2353(7) 0.50213(17)
C13_2 C 0.4524(3) 0.2089(8) 0.45553(17)
H7_2 H 0.4081 0.1799 0.4495
C14_2 C 0.6140(2) 0.2775(8) 0.38752(17)
C15_2 C 0.4251(3) 0.2168(8) 0.54246(19)
O1_2 O 0.34182(19) 0.0083(6) 0.22201(12)
O2_2 O 0.40807(19) 0.2555(5) 0.19413(12)
O3_2 O 0.62538(18) 0.1199(5) 0.36223(11)
O4_2 O 0.64550(18) 0.4392(5) 0.38209(12)
O5_2 O 0.4491(2) 0.2318(5) 0.58452(12)
O6_2 O 0.3653(2) 0.1879(6) 0.53492(14)
O7_2 O 0.27828(17) 0.2738(5) 0.13696(11)
H8_2 H 0.2563 0.2136 0.1084
O8_2 O 0.2053(2) 0.0656(7) 0.21739(13)
H9_2 H 0.1627 0.0521 0.2026
H10_2 H 0.2118 0.2041 0.2273
Zn1_2 Zn 0.37669(3) 0.31035(9) 0.128511(19)
O9_2 O 0.37462(18) 0.6199(5) 0.13777(11)
O11_2 O 0.4491(2) 0.2682(5) 0.08452(12)
Zn3 Zn 0.62331(3) 0.81035(9) 0.371489(19)
Zn5_2 Zn 0.37669(3) 0.18965(9) 0.628511(19)
Zn6_2 Zn 0.72132(3) 0.48597(9) 0.33225(2)
Zn7_2 Zn 0.22132(3) 0.48597(9) 0.16775(2)
H2_2 H 0.4270 0.9280 0.3778
H3_2 H 0.3852 0.8891 0.3016
Zn2_2 Zn 0.27868(3) 0.98597(9) 0.16775(2)
O10_2 O 0.35450(18) 0.9392(5) 0.11791(12)
O12_2 O 0.22172(17) 0.7738(5) 0.13696(11)
H1_3 H 0.0055 0.0349 0.6591
C9_3 C 0.0625(3) 0.2325(7) 0.57368(16)
C10_3 C 0.0840(3) 0.2037(7) 0.52640(16)
H5_3 H 0.1280 0.1737 0.5200
C11_2 C 0.0387(3) 0.2205(7) 0.48928(17)
H6_2 H 0.0528 0.2015 0.4579
C14_3 C 0.1140(2) 0.2225(8) 0.61248(17)
C1_3 C 0.8875(3) 0.3624(8) 0.77352(18)
C2_3 C 0.9194(3) 0.3434(8) 0.72501(17)
C3_3 C 0.9557(3) 0.1734(8) 0.71336(19)
C4_3 C 0.9816(3) 0.1510(9) 0.66707(18)
C5_3 C 0.9715(3) 0.3025(8) 0.63296(17)
C6_3 C 0.9347(3) 0.4718(8) 0.64508(19)
H2_3 H 0.9270 0.5720 0.6222
C7_3 C 0.9092(3) 0.4947(8) 0.6906(2)
H3_3 H 0.8852 0.6109 0.6984
H4_3 H 0.9633 0.0731 0.7364
C8_3 C 0.9965(2) 0.2751(7) 0.58263(16)
C12_3 C 0.9734(3) 0.2647(7) 0.49787(17)
C13_3 C 0.9524(3) 0.2911(8) 0.54447(17)
H7_3 H 0.9081 0.3201 0.5505
C15_3 C 0.9251(3) 0.2832(8) 0.45754(19)
O1_3 O 0.84182(19) 0.4917(6) 0.77799(12)
O2_3 O 0.90807(19) 0.2445(5) 0.80587(12)
O5_3 O 0.9491(2) 0.2682(5) 0.41548(12)
O6_3 O 0.8653(2) 0.3121(6) 0.46508(14)
O7_3 O 0.77828(17) 0.2262(5) 0.86304(11)
H8_3 H 0.7563 0.2864 0.8916
O8_3 O 0.7053(2) 0.4344(7) 0.78261(13)
H9_3 H 0.6627 0.4479 0.7974
H10_3 H 0.7118 0.2959 0.7727
O11_3 O 0.9491(2) 0.2318(5) 0.91548(12)
O12_3 O 0.72172(17) 0.7262(5) 0.86304(11)
Zn5_3 Zn 0.87669(3) 0.31035(9) 0.371489(19)
Zn7_3 Zn 0.72132(3) 0.01403(9) 0.83225(2)
C1_4 C 0.6125(3) 0.6376(8) 0.27352(18)
C2_4 C 0.5806(3) 0.6566(8) 0.22501(17)
C3_4 C 0.5443(3) 0.8266(8) 0.21336(19)
C4_4 C 0.5184(3) 0.8490(9) 0.16707(18)
H1_4 H 0.4945 0.9651 0.1591
C5_4 C 0.5285(3) 0.6975(8) 0.13296(17)
C6_4 C 0.5653(3) 0.5282(8) 0.14508(19)
H2_4 H 0.5730 0.4280 0.1222
C7_4 C 0.5908(3) 0.5053(8) 0.1906(2)
H3_4 H 0.6148 0.3891 0.1984
H4_4 H 0.5367 0.9269 0.2364
C8_4 C 0.5035(2) 0.7249(7) 0.08263(16)
C9_4 C 0.4375(3) 0.7675(7) 0.07368(16)
C10_4 C 0.4160(3) 0.7963(7) 0.02640(16)
H5_4 H 0.3720 0.8263 0.0200
C13_4 C 0.5476(3) 0.7089(8) 0.04447(17)
H7_4 H 0.5919 0.6799 0.0505
C14_4 C 0.3860(2) 0.7775(8) 0.11248(17)
O1_4 O 0.65818(19) 0.5083(6) 0.27799(12)
O2_4 O 0.59193(19) 0.7555(5) 0.30587(12)
O7_4 O 0.72172(17) 0.7738(5) 0.36304(11)
H8_4 H 0.7437 0.7136 0.3916
O8_4 O 0.7947(2) 0.5656(7) 0.28261(13)
H9_4 H 0.8373 0.5521 0.2974
H10_4 H 0.7882 0.7041 0.2727
O11_4 O 0.5509(2) 0.7682(5) 0.41548(12)
O12_4 O 0.77828(17) 0.2738(5) 0.36304(11)
Zn7_4 Zn 0.77868(3) 0.98597(9) 0.33225(2)
C11_3 C 0.4613(3) 0.7795(7) 0.98928(17)
H6_3 H 0.4472 0.7985 0.9579
C12_4 C 0.5266(3) 0.7353(7) 0.99787(17)
C15_4 C 0.5749(3) 0.7168(8) 0.95754(19)
O5_4 O 0.5509(2) 0.7318(5) 0.91548(12)
O6_4 O 0.6347(2) 0.6879(6) 0.96508(14)
Zn5_4 Zn 0.62331(3) 0.68965(9) 0.871489(19)
H1_5 H 0.0055 0.4651 0.1591
C9_5 C 0.0625(3) 0.2675(7) 0.07368(16)
C10_5 C 0.0840(3) 0.2963(7) 0.02640(16)
H5_5 H 0.1280 0.3263 0.0200
C14_5 C 0.1140(2) 0.2775(8) 0.11248(17)
O3_3 O 0.12538(18) 0.1199(5) 0.13777(11)
O4_3 O 0.14550(18) 0.4392(5) 0.11791(12)
C1_5 C 0.8875(3) 0.1376(8) 0.27352(18)
C2_5 C 0.9194(3) 0.1566(8) 0.22501(17)
C3_5 C 0.9557(3) 0.3266(8) 0.21336(19)
C4_5 C 0.9816(3) 0.3490(9) 0.16707(18)
C5_5 C 0.9715(3) 0.1975(8) 0.13296(17)
C6_5 C 0.9347(3) 0.0282(8) 0.14508(19)
C7_5 C 0.9092(3) 0.0053(8) 0.1906(2)
H4_5 H 0.9633 0.4269 0.2364
C8_5 C 0.9965(2) 0.2249(7) 0.08263(16)
C13_5 C 0.9524(3) 0.2089(8) 0.04447(17)
H7_5 H 0.9081 0.1799 0.0505
O1_5 O 0.84182(19) 0.0083(6) 0.27799(12)
O2_5 O 0.90807(19) 0.2555(5) 0.30587(12)
H8_5 H 0.7563 0.2136 0.3916
O8_5 O 0.7053(2) 0.0656(7) 0.28261(13)
H9_5 H 0.6627 0.0521 0.2974
H10_5 H 0.7118 0.2041 0.2727
O9_3 O 0.87462(18) 0.6199(5) 0.36223(11)
C12_5 C 0.9734(3) 0.2353(7) 0.99787(17)
C15_5 C 0.9251(3) 0.2168(8) 0.95754(19)
O6_5 O 0.8653(2) 0.1879(6) 0.96508(14)
H2_5 H 0.9270 0.9280 0.1222
H3_5 H 0.8852 0.8891 0.1984
O10_3 O 0.85450(18) 0.9392(5) 0.38209(12)
H2_6 H 0.5730 0.0720 0.6222
H3_6 H 0.6148 0.1109 0.6984
O10_4 O 0.64550(18) 0.0608(5) 0.88209(12)
C1_6 C 0.6125(3) 0.8624(8) 0.77352(18)
C2_6 C 0.5806(3) 0.8434(8) 0.72501(17)
C3_6 C 0.5443(3) 0.6734(8) 0.71336(19)
C4_6 C 0.5184(3) 0.6510(9) 0.66707(18)
H1_6 H 0.4945 0.5349 0.6591
C5_6 C 0.5285(3) 0.8025(8) 0.63296(17)
C6_6 C 0.5653(3) 0.9718(8) 0.64508(19)
C7_6 C 0.5908(3) 0.9947(8) 0.6906(2)
H4_6 H 0.5367 0.5731 0.7364
C8_6 C 0.5035(2) 0.7751(7) 0.58263(16)
C9_6 C 0.4375(3) 0.7325(7) 0.57368(16)
C10_6 C 0.4160(3) 0.7037(7) 0.52640(16)
H5_6 H 0.3720 0.6737 0.5200
C11_4 C 0.4613(3) 0.7205(7) 0.48928(17)
H6_4 H 0.4472 0.7015 0.4579
C12_6 C 0.5266(3) 0.7647(7) 0.49787(17)
C13_6 C 0.5476(3) 0.7911(8) 0.54447(17)
H7_6 H 0.5919 0.8201 0.5505
C14_6 C 0.3860(2) 0.7225(8) 0.61248(17)
C15_6 C 0.5749(3) 0.7832(8) 0.45754(19)
O1_6 O 0.65818(19) 0.9917(6) 0.77799(12)
O2_6 O 0.59193(19) 0.7445(5) 0.80587(12)
O3_4 O 0.37462(18) 0.8801(5) 0.63777(11)
O4_4 O 0.35450(18) 0.5608(5) 0.61791(12)
O6_6 O 0.6347(2) 0.8121(6) 0.46508(14)
H8_6 H 0.7437 0.7864 0.8916
O8_6 O 0.7947(2) 0.9344(7) 0.78261(13)
H9_6 H 0.8373 0.9479 0.7974
H10_6 H 0.7882 0.7959 0.7727
O9_4 O 0.62538(18) 0.3801(5) 0.86223(11)
C1_7 C 0.1125(3) 0.6376(8) 0.22648(18)
C2_7 C 0.0806(3) 0.6566(8) 0.27499(17)
C3_7 C 0.0443(3) 0.8266(8) 0.28664(19)
C4_7 C 0.0184(3) 0.8490(9) 0.33293(18)
C5_7 C 0.0285(3) 0.6975(8) 0.36704(17)
C6_7 C 0.0653(3) 0.5282(8) 0.35492(19)
H2_7 H 0.0730 0.4280 0.3778
C7_7 C 0.0908(3) 0.5053(8) 0.3094(2)
H3_7 H 0.1148 0.3891 0.3016
H4_7 H 0.0367 0.9269 0.2636
C8_7 C 0.0035(2) 0.7249(7) 0.41737(16)
C12_7 C 0.0266(3) 0.7353(7) 0.50213(17)
C13_7 C 0.0476(3) 0.7089(8) 0.45553(17)
H7_7 H 0.0919 0.6799 0.4495
C15_7 C 0.0749(3) 0.7168(8) 0.54246(19)
O1_7 O 0.15818(19) 0.5083(6) 0.22201(12)
O2_7 O 0.09193(19) 0.7555(5) 0.19413(12)
O6_7 O 0.1347(2) 0.6879(6) 0.53492(14)
H8_7 H 0.2437 0.7136 0.1084
O8_7 O 0.2947(2) 0.5656(7) 0.21739(13)
H9_7 H 0.3373 0.5521 0.2026
H10_7 H 0.2882 0.7041 0.2273
H1_7 H 0.9945 0.9651 0.3409
C9_7 C 0.9375(3) 0.7675(7) 0.42632(16)
C10_7 C 0.9160(3) 0.7963(7) 0.47360(16)
H5_7 H 0.8720 0.8263 0.4800
C11_5 C 0.9613(3) 0.7795(7) 0.51072(17)
H6_5 H 0.9472 0.7985 0.5421
C14_7 C 0.8860(2) 0.7775(8) 0.38752(17)
C11_6 C 0.5387(3) 0.2205(7) 0.01072(17)
H6_6 H 0.5528 0.2015 0.0421
C12_8 C 0.4734(3) 0.2647(7) 0.00213(17)
C15_8 C 0.4251(3) 0.2832(8) 0.04246(19)
O6_8 O 0.3653(2) 0.3121(6) 0.03492(14)
C1_8 C 0.3875(3) 0.3624(8) 0.72648(18)
C2_8 C 0.4194(3) 0.3434(8) 0.77499(17)
C3_8 C 0.4557(3) 0.1734(8) 0.78664(19)
C4_8 C 0.4816(3) 0.1510(9) 0.83293(18)
H1_8 H 0.5055 0.0349 0.8409
C5_8 C 0.4715(3) 0.3025(8) 0.86704(17)
C6_8 C 0.4347(3) 0.4718(8) 0.85492(19)
H2_8 H 0.4270 0.5720 0.8778
C7_8 C 0.4092(3) 0.4947(8) 0.8094(2)
H3_8 H 0.3852 0.6109 0.8016
H4_8 H 0.4633 0.0731 0.7636
C8_8 C 0.4965(2) 0.2751(7) 0.91737(16)
C9_8 C 0.5625(3) 0.2325(7) 0.92632(16)
C10_8 C 0.5840(3) 0.2037(7) 0.97360(16)
H5_8 H 0.6280 0.1737 0.9800
C13_8 C 0.4524(3) 0.2911(8) 0.95553(17)
H7_8 H 0.4081 0.3201 0.9495
C14_8 C 0.6140(2) 0.2225(8) 0.88752(17)
O1_8 O 0.34182(19) 0.4917(6) 0.72201(12)
O2_8 O 0.40807(19) 0.2445(5) 0.69413(12)
H8_8 H 0.2563 0.2864 0.6084
O8_8 O 0.2053(2) 0.4344(7) 0.71739(13)
H9_8 H 0.1627 0.4479 0.7026
H10_8 H 0.2118 0.2959 0.7273
C11_7 C 0.9613(3) 0.7205(7) 0.01072(17)
H6_7 H 0.9472 0.7015 0.0421
C11_8 C 0.0387(3) 0.2795(7) 0.98928(17)
H6_8 H 0.0528 0.2985 0.9579
loop_
_geom_bond_atom_site_label_1
_geom_bond_atom_site_label_2
_geom_bond_site_symmetry_1
_geom_bond_site_symmetry_2
O12 Zn2 1_555 1_555
Zn2 O10 1_555 1_555
C15 C12 1_555 1_555
O5 C15 1_555 1_555
O6 C15 1_555 1_555
Zn5 O5 1_555 1_555
C1 C2 1_555 1_555
C2 C3 1_555 1_555
C3 C4 1_555 1_555
C5 C4 1_555 1_555
C6 C5 1_555 1_555
C7 C2 1_555 1_555
H4 C3 1_555 1_555
C8 C5 1_555 1_555
C13 C8 1_555 1_555
H7 C13 1_555 1_555
O1 C1 1_555 1_555
O2 C1 1_555 1_555
O7 H8 1_555 1_555
O8 H9 1_555 1_555
H10 O8 1_555 1_555
Zn1 O2 1_555 1_555
O9 Zn1 1_555 1_555
O11 Zn1 1_555 1_555
Zn7 O7 1_555 1_555
C6 C7 1_555 1_555
O7 Zn1 1_555 1_555
C10 C9 1_555 1_555
H5 C10 1_555 1_555
C14 C9 1_555 1_555
O3 C14 1_555 1_555
O4 C14 1_555 1_555
Zn4 O4 1_555 1_555
Zn6 O4 1_555 1_555
C1_2 C2_2 1_555 1_555
C2_2 C3_2 1_555 1_555
C3_2 C4_2 1_555 1_555
C4_2 H1_2 1_555 1_555
C5_2 C4_2 1_555 1_555
C6_2 C5_2 1_555 1_555
C7_2 C2_2 1_555 1_555
H4_2 C3_2 1_555 1_555
C8_2 C5_2 1_555 1_555
C9_2 C8_2 1_555 1_555
C10_2 C9_2 1_555 1_555
H5_2 C10_2 1_555 1_555
C11 C10_2 1_555 1_555
H6 C11 1_555 1_555
C12_2 C11 1_555 1_555
C13_2 C8_2 1_555 1_555
H7_2 C13_2 1_555 1_555
C14_2 C9_2 1_555 1_555
C15_2 C12_2 1_555 1_555
O1_2 C1_2 1_555 1_555
O2_2 C1_2 1_555 1_555
O3_2 C14_2 1_555 1_555
O4_2 C14_2 1_555 1_555
O5_2 C15_2 1_555 1_555
O6_2 C15_2 1_555 1_555
O7_2 H8_2 1_555 1_555
O8_2 H9_2 1_555 1_555
H10_2 O8_2 1_555 1_555
Zn1_2 O2_2 1_555 1_555
O9_2 Zn1_2 1_555 1_555
O11_2 Zn1_2 1_555 1_555
Zn3 O4_2 1_555 1_555
Zn5_2 O5_2 1_555 1_555
Zn6_2 O4_2 1_555 1_555
Zn7_2 O7_2 1_555 1_555
C6_2 C7_2 1_555 1_555
C12_2 C13_2 1_555 1_555
O7_2 Zn1_2 1_555 1_555
O12_2 Zn2_2 1_555 1_555
Zn2_2 O10_2 1_555 1_555
C10_3 C9_3 1_555 1_555
H5_3 C10_3 1_555 1_555
C11_2 C10_3 1_555 1_555
H6_2 C11_2 1_555 1_555
C14_3 C9_3 1_555 1_555
O9 C14_3 1_555 1_555
O10 C14_3 1_555 1_555
C1_3 C2_3 1_555 1_555
C2_3 C3_3 1_555 1_555
C3_3 C4_3 1_555 1_555
C5_3 C4_3 1_555 1_555
C6_3 C5_3 1_555 1_555
H2_3 C6_3 1_555 1_555
C7_3 C2_3 1_555 1_555
H3_3 C7_3 1_555 1_555
H4_3 C3_3 1_555 1_555
C8_3 C5_3 1_555 1_555
C13_3 C8_3 1_555 1_555
H7_3 C13_3 1_555 1_555
C15_3 C12_3 1_555 1_555
O1_3 C1_3 1_555 1_555
O2_3 C1_3 1_555 1_555
O5_3 C15_3 1_555 1_555
O6_3 C15_3 1_555 1_555
O7_3 H8_3 1_555 1_555
O8_3 H9_3 1_555 1_555
H10_3 O8_3 1_555 1_555
Zn4 O2_3 1_555 1_555
Zn6 O1_3 1_555 1_555
O11_3 Zn4 1_555 1_555
O12_3 Zn6 1_555 1_555
Zn5_3 O5_3 1_555 1_555
Zn7_3 O7_3 1_555 1_555
C6_3 C7_3 1_555 1_555
C12_3 C13_3 1_555 1_555
O7_3 Zn4 1_555 1_555
O7_3 Zn6 1_555 1_555
O8_3 Zn6 1_555 1_555
C1_4 C2_4 1_555 1_555
C2_4 C3_4 1_555 1_555
C3_4 C4_4 1_555 1_555
C4_4 H1_4 1_555 1_555
C5_4 C4_4 1_555 1_555
C6_4 C5_4 1_555 1_555
H2_4 C6_4 1_555 1_555
C7_4 C2_4 1_555 1_555
H3_4 C7_4 1_555 1_555
H4_4 C3_4 1_555 1_555
C8_4 C5_4 1_555 1_555
C9_4 C8_4 1_555 1_555
C10_4 C9_4 1_555 1_555
H5_4 C10_4 1_555 1_555
C13_4 C8_4 1_555 1_555
H7_4 C13_4 1_555 1_555
C14_4 C9_4 1_555 1_555
O1_4 C1_4 1_555 1_555
O2_4 C1_4 1_555 1_555
O9_2 C14_4 1_555 1_555
O10_2 C14_4 1_555 1_555
O7_4 H8_4 1_555 1_555
O8_4 H9_4 1_555 1_555
H10_4 O8_4 1_555 1_555
Zn3 O2_4 1_555 1_555
Zn6_2 O1_4 1_555 1_555
O11_4 Zn3 1_555 1_555
O12_4 Zn6_2 1_555 1_555
Zn7_4 O7_4 1_555 1_555
C6_4 C7_4 1_555 1_555
O7_4 Zn3 1_555 1_555
O7_4 Zn6_2 1_555 1_555
O8_4 Zn6_2 1_555 1_555
H6_3 C11_3 1_555 1_555
C12_4 C11_3 1_555 1_555
C15_4 C12_4 1_555 1_555
O5_4 C15_4 1_555 1_555
O6_4 C15_4 1_555 1_555
Zn5_4 O5_4 1_555 1_555
C10_5 C9_5 1_555 1_555
H5_5 C10_5 1_555 1_555
C14_5 C9_5 1_555 1_555
O3_3 C14_5 1_555 1_555
O4_3 C14_5 1_555 1_555
Zn5 O4_3 1_555 1_555
Zn7_2 O4_3 1_555 1_555
C1_5 C2_5 1_555 1_555
C2_5 C3_5 1_555 1_555
C3_5 C4_5 1_555 1_555
C5_5 C4_5 1_555 1_555
C6_5 C5_5 1_555 1_555
C7_5 C2_5 1_555 1_555
H4_5 C3_5 1_555 1_555
C8_5 C5_5 1_555 1_555
C13_5 C8_5 1_555 1_555
H7_5 C13_5 1_555 1_555
O1_5 C1_5 1_555 1_555
O2_5 C1_5 1_555 1_555
O12_4 H8_5 1_555 1_555
O8_5 H9_5 1_555 1_555
H10_5 O8_5 1_555 1_555
Zn5_3 O2_5 1_555 1_555
O9_3 Zn5_3 1_555 1_555
C6_5 C7_5 1_555 1_555
O12_4 Zn5_3 1_555 1_555
C15_5 C12_5 1_555 1_555
O11_3 C15_5 1_555 1_555
O6_5 C15_5 1_555 1_555
Zn7_4 O10_3 1_555 1_555
Zn7_3 O10_4 1_555 1_555
C1_6 C2_6 1_555 1_555
C2_6 C3_6 1_555 1_555
C3_6 C4_6 1_555 1_555
C4_6 H1_6 1_555 1_555
C5_6 C4_6 1_555 1_555
C6_6 C5_6 1_555 1_555
C7_6 C2_6 1_555 1_555
H4_6 C3_6 1_555 1_555
C8_6 C5_6 1_555 1_555
C9_6 C8_6 1_555 1_555
C10_6 C9_6 1_555 1_555
H5_6 C10_6 1_555 1_555
C11_4 C10_6 1_555 1_555
H6_4 C11_4 1_555 1_555
C12_6 C11_4 1_555 1_555
C13_6 C8_6 1_555 1_555
H7_6 C13_6 1_555 1_555
C14_6 C9_6 1_555 1_555
C15_6 C12_6 1_555 1_555
O1_6 C1_6 1_555 1_555
O2_6 C1_6 1_555 1_555
O3_4 C14_6 1_555 1_555
O4_4 C14_6 1_555 1_555
O11_4 C15_6 1_555 1_555
O6_6 C15_6 1_555 1_555
O12_3 H8_6 1_555 1_555
O8_6 H9_6 1_555 1_555
H10_6 O8_6 1_555 1_555
Zn5_4 O2_6 1_555 1_555
O9_4 Zn5_4 1_555 1_555
Zn5_2 O4_4 1_555 1_555
Zn7 O4_4 1_555 1_555
C6_6 C7_6 1_555 1_555
C12_6 C13_6 1_555 1_555
O12_3 Zn5_4 1_555 1_555
C1_7 C2_7 1_555 1_555
C2_7 C3_7 1_555 1_555
C3_7 C4_7 1_555 1_555
C5_7 C4_7 1_555 1_555
C6_7 C5_7 1_555 1_555
H2_7 C6_7 1_555 1_555
C7_7 C2_7 1_555 1_555
H3_7 C7_7 1_555 1_555
H4_7 C3_7 1_555 1_555
C8_7 C5_7 1_555 1_555
C13_7 C8_7 1_555 1_555
H7_7 C13_7 1_555 1_555
C15_7 C12_7 1_555 1_555
O1_7 C1_7 1_555 1_555
O2_7 C1_7 1_555 1_555
O11 C15_7 1_555 1_555
O6_7 C15_7 1_555 1_555
O12_2 H8_7 1_555 1_555
O8_7 H9_7 1_555 1_555
H10_7 O8_7 1_555 1_555
Zn5 O2_7 1_555 1_555
Zn7_2 O1_7 1_555 1_555
C6_7 C7_7 1_555 1_555
C12_7 C13_7 1_555 1_555
O12_2 Zn5 1_555 1_555
O12_2 Zn7_2 1_555 1_555
O8_7 Zn7_2 1_555 1_555
C10_7 C9_7 1_555 1_555
H5_7 C10_7 1_555 1_555
C11_5 C10_7 1_555 1_555
H6_5 C11_5 1_555 1_555
C14_7 C9_7 1_555 1_555
O9_3 C14_7 1_555 1_555
O10_3 C14_7 1_555 1_555
H6_6 C11_6 1_555 1_555
C12_8 C11_6 1_555 1_555
C15_8 C12_8 1_555 1_555
O11_2 C15_8 1_555 1_555
O6_8 C15_8 1_555 1_555
C1_8 C2_8 1_555 1_555
C2_8 C3_8 1_555 1_555
C3_8 C4_8 1_555 1_555
C4_8 H1_8 1_555 1_555
C5_8 C4_8 1_555 1_555
C6_8 C5_8 1_555 1_555
H2_8 C6_8 1_555 1_555
C7_8 C2_8 1_555 1_555
H3_8 C7_8 1_555 1_555
H4_8 C3_8 1_555 1_555
C8_8 C5_8 1_555 1_555
C9_8 C8_8 1_555 1_555
C10_8 C9_8 1_555 1_555
H5_8 C10_8 1_555 1_555
C13_8 C8_8 1_555 1_555
H7_8 C13_8 1_555 1_555
C14_8 C9_8 1_555 1_555
O1_8 C1_8 1_555 1_555
O2_8 C1_8 1_555 1_555
O9_4 C14_8 1_555 1_555
O10_4 C14_8 1_555 1_555
O12 H8_8 1_555 1_555
O8_8 H9_8 1_555 1_555
H10_8 O8_8 1_555 1_555
Zn5_2 O2_8 1_555 1_555
Zn7 O1_8 1_555 1_555
C6_8 C7_8 1_555 1_555
O12 Zn5_2 1_555 1_555
O12 Zn7 1_555 1_555
O8_8 Zn7 1_555 1_555
H6_7 C11_7 1_555 1_555
H6_8 C11_8 1_555 1_555

#END
