
###############################################################################
#
# This file contains modified crystal structure data generated from the
# MOF subset of the Cambridge Structural Database (CSD) v543 
# hosted by the Cambridge Crystallographic Data Centre (CCDC).
#
# This work is licensed under the Creative Commons
# Attribution-NonCommercial-ShareAlike 4.0 International License.
# To view a copy of this license, visit
# http://creativecommons.org/licenses/by-nc-sa/4.0/
# or send a letter to
# Creative Commons, PO Box 1866, Mountain View, CA 94042, USA.
#
# CIF created using the CSD Python API on 29 September 2022
# The structure has been converted into the P1 space group
# The structure has a 3D framework
# The original CSD entry FONQAD is in the monoclinic crystal system
# The framework has been calculated to contain at least 10.0% void space
# The void calculation uses a probe of radius 1.32A, grid spacing 0.4
#
###############################################################################

data_FONQAD
_chemical_formula_moiety         '(C176 H248 N64 Ni20 O32)n'
_symmetry_cell_setting           triclinic
_symmetry_space_group_name_H-M   'P 1'
_symmetry_Int_Tables_number      1
_space_group_name_Hall           'P 1'
loop_
_symmetry_equiv_pos_site_id
_symmetry_equiv_pos_as_xyz
1 x,y,z
_cell_length_a                   21.799(4)
_cell_length_b                   25.727(5)
_cell_length_c                   15.630(3)
_cell_angle_alpha                90
_cell_angle_beta                 93.86(3)
_cell_angle_gamma                90
_cell_volume                     8745.78
loop_
_atom_site_label
_atom_site_type_symbol
_atom_site_fract_x
_atom_site_fract_y
_atom_site_fract_z
N9 N 0.0670(2) 0.2723(3) 0.3825(4)
C29 C 0.0184(3) 0.2875(3) 0.3720(4)
N1 N 0.4330(2) 0.2277(3) 0.6175(4)
Ni1 Ni 0.500000 0.500000 0.000000
Ni2 Ni 0.750000 0.250000 0.500000
O1 O 0.51857(7) 0.46793(6) 0.12358(8)
O2 O 0.57801(7) 0.52118(6) 0.20663(9)
O3 O 0.69322(7) 0.30212(6) 0.42609(10)
O4 O 0.60756(9) 0.25871(7) 0.38797(13)
N2 N 0.53673(8) 0.57059(7) 0.03665(10)
H1 H 0.545731 0.570102 0.099577
N3 N 0.43627(10) 0.61057(8) 0.05339(12)
N4 N 0.41363(8) 0.51734(7) 0.03869(11)
H2 H 0.414942 0.512728 0.101668
N5 N 0.40612(15) 0.67020(13) 0.33686(18)
N6 N 0.69469(9) 0.18747(7) 0.46701(13)
H3 H 0.656416 0.201704 0.438390
N7 N 0.64748(11) 0.18573(9) 0.60453(16)
N8 N 0.70526(10) 0.26834(8) 0.60771(13)
H4 H 0.667769 0.288219 0.589383
H5 H 0.621217 0.600857 0.024965
C2 C 0.49444(12) 0.61433(9) 0.01520(14)
H7 H 0.514565 0.646815 0.034053
C3 C 0.39397(12) 0.57183(10) 0.01969(15)
H10 H 0.354034 0.577685 0.043332
C4 C 0.37184(10) 0.47759(10) 0.00014(14)
H12 H 0.334484 0.475683 0.031551
C5 C 0.44035(14) 0.61678(10) 0.14605(15)
H13 H 0.479667 0.633212 0.164139
H14 H 0.439443 0.582441 0.173074
C6 C 0.39004(19) 0.64842(17) 0.1754(2)
H15 H 0.387480 0.680888 0.142595
H16 H 0.351180 0.629708 0.164136
C7 C 0.39796(17) 0.66054(15) 0.2658(2)
C8 C 0.72558(14) 0.15846(10) 0.40167(18)
H17 H 0.696007 0.135949 0.369490
H18 H 0.758062 0.136564 0.428987
C9 C 0.67621(13) 0.15599(10) 0.53998(19)
H19 H 0.647573 0.128948 0.518266
H20 H 0.712689 0.138641 0.566634
C10 C 0.68617(14) 0.22158(11) 0.65593(17)
H21 H 0.723104 0.203090 0.678467
H22 H 0.663862 0.233027 0.704952
C11 C 0.74710(14) 0.30327(11) 0.65811(17)
H23 H 0.779895 0.283057 0.688419
H24 H 0.724490 0.321871 0.700755
C12 C 0.58522(14) 0.20376(14) 0.5804(2)
H25 H 0.585919 0.241505 0.572077
H26 H 0.570988 0.187804 0.525687
C13 C 0.5424(2) 0.1914(2) 0.6439(4)
H27 H 0.539147 0.153484 0.647866
H28 H 0.559358 0.204092 0.699697
C14 C 0.4816(3) 0.2125(3) 0.6280(4)
C15 C 0.55531(9) 0.47788(8) 0.18773(12)
C16 C 0.57408(9) 0.43116(8) 0.24239(11)
C17 C 0.63652(9) 0.42665(8) 0.26898(12)
H29 H 0.663675 0.453501 0.256170
C18 C 0.65907(10) 0.38357(9) 0.31365(12)
H30 H 0.701101 0.381430 0.331136
C19 C 0.61982(10) 0.34367(8) 0.33259(12)
C20 C 0.55757(10) 0.34769(7) 0.30602(11)
H31 H 0.530843 0.320417 0.318275
C21 C 0.53412(8) 0.39102(7) 0.26188(10)
C22 C 0.64168(11) 0.29749(9) 0.38628(13)
N10 N 0.80531(9) 0.31253(7) 0.53299(13)
H32 H 0.843584 0.298296 0.561610
N11 N 0.85252(11) 0.31427(9) 0.39547(16)
N12 N 0.79474(10) 0.23166(8) 0.39229(13)
H33 H 0.832231 0.211781 0.410617
C23 C 0.77442(14) 0.34154(10) 0.59833(18)
H34 H 0.803993 0.364051 0.630510
H35 H 0.741938 0.363436 0.571013
C24 C 0.82379(13) 0.34401(10) 0.46002(19)
H36 H 0.852427 0.371052 0.481734
H37 H 0.787311 0.361359 0.433366
C25 C 0.81383(14) 0.27842(11) 0.34407(17)
H38 H 0.776896 0.296910 0.321533
H39 H 0.836138 0.266973 0.295048
C26 C 0.75290(14) 0.19673(11) 0.34189(17)
H40 H 0.720105 0.216943 0.311581
H41 H 0.775510 0.178129 0.299245
C27 C 0.91478(14) 0.29624(14) 0.4196(2)
H42 H 0.914081 0.258495 0.427923
H43 H 0.929012 0.312196 0.474313
C28 C 0.9576(2) 0.3086(2) 0.3561(4)
H44 H 0.960853 0.346516 0.352134
H45 H 0.940642 0.295908 0.300303
O5 O 0.48143(7) 0.46793(6) 0.37642(8)
O6 O 0.42199(7) 0.52118(6) 0.29337(9)
O7 O 0.30678(7) 0.30212(6) 0.07391(10)
O8 O 0.39244(9) 0.25871(7) 0.11203(13)
C30 C 0.44469(9) 0.47788(8) 0.31227(12)
C31 C 0.42592(9) 0.43116(8) 0.25761(11)
C32 C 0.36348(9) 0.42665(8) 0.23102(12)
H46 H 0.336325 0.453501 0.243830
C33 C 0.34093(10) 0.38357(9) 0.18635(12)
H47 H 0.298899 0.381430 0.168864
C34 C 0.38018(10) 0.34367(8) 0.16741(12)
C35 C 0.44243(10) 0.34769(7) 0.19398(11)
H48 H 0.469157 0.320417 0.181725
C36 C 0.46588(8) 0.39102(7) 0.23812(10)
C37 C 0.35832(11) 0.29749(9) 0.11372(13)
C38 C 0.40481(11) 0.42564(10) 0.00425(14)
H52 H 0.412605 0.415107 0.064255
H54 H 0.513149 0.383947 0.047252
H55 H 0.611650 0.423830 0.042639
H57 H 0.639982 0.513416 0.059628
Ni3 Ni 0.500000 0.500000 0.500000
Ni4 Ni 0.250000 0.250000 0.000000
O10 O 0.80678(7) 0.19788(6) 0.57391(10)
Ni1_2 Ni 0.500000 0.500000 1.000000
C1 C 0.59519(11) 0.57436(10) 0.99575(14)
H6 H 0.587395 0.584893 0.935745
H8 H 0.486851 0.616053 0.952748
H9 H 0.388350 0.576170 0.957361
H11 H 0.360018 0.486584 0.940372
N13 N 0.46327(8) 0.42941(7) 0.96335(10)
H49 H 0.454269 0.429898 0.900423
N14 N 0.56373(10) 0.38943(8) 0.94661(12)
N15 N 0.58637(8) 0.48266(7) 0.96131(11)
H50 H 0.585058 0.487272 0.898332
N16 N 0.59388(15) 0.32980(13) 0.66314(18)
H51 H 0.378783 0.399143 0.975035
C39 C 0.50556(12) 0.38567(9) 0.98480(14)
H53 H 0.485435 0.353185 0.965947
C40 C 0.60603(12) 0.42817(10) 0.98031(15)
H56 H 0.645966 0.422315 0.956668
C41 C 0.62816(10) 0.52241(10) 0.99986(14)
H58 H 0.665516 0.524317 0.968449
C42 C 0.55965(14) 0.38322(10) 0.85395(15)
H59 H 0.520333 0.366788 0.835861
H60 H 0.560557 0.417559 0.826926
C43 C 0.60996(19) 0.35158(17) 0.8246(2)
H61 H 0.612520 0.319112 0.857405
H62 H 0.648820 0.370292 0.835864
C44 C 0.60204(17) 0.33946(15) 0.7342(2)
Ni4_2 Ni 0.250000 0.250000 1.000000
O9 O 0.48143(7) 0.53207(6) 0.87642(8)
N2_2 N 0.46327(8) 0.57059(7) 0.46335(10)
H1_2 H 0.454269 0.570102 0.400423
N3_2 N 0.56373(10) 0.61057(8) 0.44661(12)
N4_2 N 0.58637(8) 0.51734(7) 0.46131(11)
H2_2 H 0.585058 0.512728 0.398332
N5_2 N 0.59388(15) 0.67020(13) 0.16314(18)
N6_2 N 0.30531(9) 0.18747(7) 0.03299(13)
H3_2 H 0.343584 0.201704 0.061610
C1_2 C 0.40481(11) 0.57436(10) 0.50425(14)
H5_2 H 0.378783 0.600857 0.475035
H6_2 H 0.412605 0.584893 0.564255
C2_2 C 0.50556(12) 0.61433(9) 0.48480(14)
H7_2 H 0.485435 0.646815 0.465947
H8_2 H 0.513149 0.616053 0.547252
C3_2 C 0.60603(12) 0.57183(10) 0.48031(15)
H9_2 H 0.611650 0.576170 0.542639
H10_2 H 0.645966 0.577685 0.456668
C4_2 C 0.62816(10) 0.47759(10) 0.49986(14)
H11_2 H 0.639982 0.486584 0.559628
H12_2 H 0.665516 0.475683 0.468449
C5_2 C 0.55965(14) 0.61678(10) 0.35395(15)
H13_2 H 0.520333 0.633212 0.335861
H14_2 H 0.560557 0.582441 0.326926
C6_2 C 0.60996(19) 0.64842(17) 0.3246(2)
H15_2 H 0.612520 0.680888 0.357405
H16_2 H 0.648820 0.629708 0.335864
C7_2 C 0.60204(17) 0.66054(15) 0.2342(2)
C8_2 C 0.27442(14) 0.15846(10) 0.09833(18)
H17_2 H 0.303993 0.135949 0.130510
H18_2 H 0.241938 0.136564 0.071013
N11_2 N 0.14748(11) 0.31427(9) 0.10453(16)
N12_2 N 0.20526(10) 0.23166(8) 0.10771(13)
H33_2 H 0.167769 0.211781 0.089383
C24_2 C 0.17621(13) 0.34401(10) 0.03998(19)
H36_2 H 0.147573 0.371052 0.018266
H37_2 H 0.212689 0.361359 0.066634
C25_2 C 0.18617(14) 0.27842(11) 0.15593(17)
H38_2 H 0.223104 0.296910 0.178467
H39_2 H 0.163862 0.266973 0.204952
C26_2 C 0.24710(14) 0.19673(11) 0.15811(17)
H40_2 H 0.279895 0.216943 0.188419
H41_2 H 0.224490 0.178129 0.200755
C27_2 C 0.08522(14) 0.29624(14) 0.0804(2)
H42_2 H 0.085919 0.258495 0.072077
H43_2 H 0.070988 0.312196 0.025687
C28_2 C 0.0424(2) 0.3086(2) 0.1439(4)
H44_2 H 0.039147 0.346516 0.147866
H45_2 H 0.059358 0.295908 0.199697
N13_2 N 0.53673(8) 0.42941(7) 0.53665(10)
H49_2 H 0.545731 0.429898 0.599577
N14_2 N 0.43627(10) 0.38943(8) 0.55339(12)
N15_2 N 0.41363(8) 0.48266(7) 0.53869(11)
H50_2 H 0.414942 0.487272 0.601668
N16_2 N 0.40612(15) 0.32980(13) 0.83686(18)
C38_2 C 0.59519(11) 0.42564(10) 0.49575(14)
H51_2 H 0.621217 0.399143 0.524965
H52_2 H 0.587395 0.415107 0.435745
C39_2 C 0.49444(12) 0.38567(9) 0.51520(14)
H53_2 H 0.514565 0.353185 0.534053
H54_2 H 0.486851 0.383947 0.452748
C40_2 C 0.39397(12) 0.42817(10) 0.51969(15)
H55_2 H 0.388350 0.423830 0.457361
H56_2 H 0.354034 0.422315 0.543332
C41_2 C 0.37184(10) 0.52241(10) 0.50014(14)
H57_2 H 0.360018 0.513416 0.440372
H58_2 H 0.334484 0.524317 0.531551
C42_2 C 0.44035(14) 0.38322(10) 0.64605(15)
H59_2 H 0.479667 0.366788 0.664139
H60_2 H 0.439443 0.417559 0.673074
C43_2 C 0.39004(19) 0.35158(17) 0.6754(2)
H61_2 H 0.387480 0.319112 0.642595
H62_2 H 0.351180 0.370292 0.664136
C44_2 C 0.39796(17) 0.33946(15) 0.7658(2)
O9_2 O 0.51857(7) 0.53207(6) 0.62358(8)
N1_2 N 0.5670(2) 0.2277(3) 0.8825(4)
N7_2 N 0.35252(11) 0.18573(9) 0.89547(16)
N8_2 N 0.29474(10) 0.26834(8) 0.89229(13)
H4_2 H 0.332231 0.288219 0.910617
C9_2 C 0.32379(13) 0.15599(10) 0.96002(19)
H19_2 H 0.352427 0.128948 0.981734
H20_2 H 0.287311 0.138641 0.933366
C10_2 C 0.31383(14) 0.22158(11) 0.84407(17)
H21_2 H 0.276896 0.203090 0.821533
H22_2 H 0.336138 0.233027 0.795048
C11_2 C 0.25290(14) 0.30327(11) 0.84189(17)
H23_2 H 0.220105 0.283057 0.811581
H24_2 H 0.275510 0.321871 0.799245
C12_2 C 0.41478(14) 0.20376(14) 0.9196(2)
H25_2 H 0.414081 0.241505 0.927923
H26_2 H 0.429012 0.187804 0.974313
C13_2 C 0.4576(2) 0.1914(2) 0.8561(4)
H27_2 H 0.460853 0.153484 0.852134
H28_2 H 0.440642 0.204092 0.800303
C14_2 C 0.5184(3) 0.2125(3) 0.8720(4)
N10_2 N 0.19469(9) 0.31253(7) 0.96701(13)
H32_2 H 0.156416 0.298296 0.938390
C23_2 C 0.22558(14) 0.34154(10) 0.90167(18)
H34_2 H 0.196007 0.364051 0.869490
H35_2 H 0.258062 0.363436 0.928987
O10_2 O 0.19322(7) 0.19788(6) 0.92609(10)
N9_2 N 0.9330(2) 0.2723(3) 0.1175(4)
C29_2 C 0.9816(3) 0.2875(3) 0.1280(4)
Ni1_3 Ni 0.000000 0.000000 0.000000
O2_2 O 0.07801(7) 0.02118(6) 0.20663(9)
N2_3 N 0.03673(8) 0.07059(7) 0.03665(10)
H1_3 H 0.045731 0.070102 0.099577
H5_3 H 0.121217 0.100857 0.024965
H7_3 H 0.014565 0.146815 0.034053
H57_3 H 0.139982 0.013416 0.059628
Ni3_2 Ni 0.000000 0.000000 0.500000
Ni1_4 Ni 0.000000 0.000000 1.000000
C1_3 C 0.09519(11) 0.07436(10) 0.99575(14)
H6_3 H 0.087395 0.084893 0.935745
C41_3 C 0.12816(10) 0.02241(10) 0.99986(14)
H58_3 H 0.165516 0.024317 0.968449
Ni1_5 Ni 0.000000 1.000000 0.000000
Ni2_2 Ni 0.250000 0.750000 0.500000
O1_2 O 0.01857(7) 0.96793(6) 0.12358(8)
O3_2 O 0.19322(7) 0.80212(6) 0.42609(10)
O4_2 O 0.10756(9) 0.75871(7) 0.38797(13)
N6_3 N 0.19469(9) 0.68747(7) 0.46701(13)
H3_3 H 0.156416 0.701704 0.438390
N7_3 N 0.14748(11) 0.68573(9) 0.60453(16)
N8_3 N 0.20526(10) 0.76834(8) 0.60771(13)
H4_3 H 0.167769 0.788219 0.589383
C8_3 C 0.22558(14) 0.65846(10) 0.40167(18)
H17_3 H 0.196007 0.635949 0.369490
H18_3 H 0.258062 0.636564 0.428987
C9_3 C 0.17621(13) 0.65599(10) 0.53998(19)
H19_3 H 0.147573 0.628948 0.518266
H20_3 H 0.212689 0.638641 0.566634
C10_3 C 0.18617(14) 0.72158(11) 0.65593(17)
H21_3 H 0.223104 0.703090 0.678467
H22_3 H 0.163862 0.733027 0.704952
C11_3 C 0.24710(14) 0.80327(11) 0.65811(17)
H23_3 H 0.279895 0.783057 0.688419
H24_3 H 0.224490 0.821871 0.700755
C12_3 C 0.08522(14) 0.70376(14) 0.5804(2)
H25_3 H 0.085919 0.741505 0.572077
H26_3 H 0.070988 0.687804 0.525687
C13_3 C 0.0424(2) 0.6914(2) 0.6439(4)
H27_3 H 0.039147 0.653484 0.647866
H28_3 H 0.059358 0.704092 0.699697
C15_2 C 0.05531(9) 0.97788(8) 0.18773(12)
C16_2 C 0.07408(9) 0.93116(8) 0.24239(11)
C17_2 C 0.13652(9) 0.92665(8) 0.26898(12)
H29_2 H 0.163675 0.953501 0.256170
C18_2 C 0.15907(10) 0.88357(9) 0.31365(12)
H30_2 H 0.201101 0.881430 0.331136
C19_2 C 0.11982(10) 0.84367(8) 0.33259(12)
C20_2 C 0.05757(10) 0.84769(7) 0.30602(11)
H31_2 H 0.030843 0.820417 0.318275
C21_2 C 0.03412(8) 0.89102(7) 0.26188(10)
C22_2 C 0.14168(11) 0.79749(9) 0.38628(13)
N9_3 N 0.5670(2) 0.7723(3) 0.3825(4)
N10_3 N 0.30531(9) 0.81253(7) 0.53299(13)
H32_3 H 0.343584 0.798296 0.561610
N11_3 N 0.35252(11) 0.81427(9) 0.39547(16)
N12_3 N 0.29474(10) 0.73166(8) 0.39229(13)
H33_3 H 0.332231 0.711781 0.410617
C23_3 C 0.27442(14) 0.84154(10) 0.59833(18)
H34_3 H 0.303993 0.864051 0.630510
H35_3 H 0.241938 0.863436 0.571013
C24_3 C 0.32379(13) 0.84401(10) 0.46002(19)
H36_3 H 0.352427 0.871052 0.481734
H37_3 H 0.287311 0.861359 0.433366
C25_3 C 0.31383(14) 0.77842(11) 0.34407(17)
H38_3 H 0.276896 0.796910 0.321533
H39_3 H 0.336138 0.766973 0.295048
C26_3 C 0.25290(14) 0.69673(11) 0.34189(17)
H40_3 H 0.220105 0.716943 0.311581
H41_3 H 0.275510 0.678129 0.299245
C27_3 C 0.41478(14) 0.79624(14) 0.4196(2)
H42_3 H 0.414081 0.758495 0.427923
H43_3 H 0.429012 0.812196 0.474313
C28_3 C 0.4576(2) 0.8086(2) 0.3561(4)
H44_3 H 0.460853 0.846516 0.352134
H45_3 H 0.440642 0.795908 0.300303
C29_3 C 0.5184(3) 0.7875(3) 0.3720(4)
H54_3 H 0.013149 0.883947 0.047252
H55_3 H 0.111650 0.923830 0.042639
Ni3_3 Ni 0.000000 1.000000 0.500000
O10_3 O 0.30678(7) 0.69788(6) 0.57391(10)
Ni1_6 Ni 0.000000 1.000000 1.000000
N14_3 N 0.06373(10) 0.88943(8) 0.94661(12)
N15_3 N 0.08637(8) 0.98266(7) 0.96131(11)
H50_3 H 0.085058 0.987272 0.898332
N16_3 N 0.09388(15) 0.82980(13) 0.66314(18)
C39_3 C 0.00556(12) 0.88567(9) 0.98480(14)
C40_3 C 0.10603(12) 0.92817(10) 0.98031(15)
H56_3 H 0.145966 0.922315 0.956668
C42_3 C 0.05965(14) 0.88322(10) 0.85395(15)
H59_3 H 0.020333 0.866788 0.835861
H60_3 H 0.060557 0.917559 0.826926
C43_3 C 0.10996(19) 0.85158(17) 0.8246(2)
H61_3 H 0.112520 0.819112 0.857405
H62_3 H 0.148820 0.870292 0.835864
C44_3 C 0.10204(17) 0.83946(15) 0.7342(2)
Ni1_7 Ni 1.000000 0.000000 0.000000
N3_3 N 0.93627(10) 0.11057(8) 0.05339(12)
N4_3 N 0.91363(8) 0.01734(7) 0.03869(11)
H2_3 H 0.914942 0.012728 0.101668
N5_3 N 0.90612(15) 0.17020(13) 0.33686(18)
C2_3 C 0.99444(12) 0.11433(9) 0.01520(14)
C3_3 C 0.89397(12) 0.07183(10) 0.01969(15)
H10_3 H 0.854034 0.077685 0.043332
C5_3 C 0.94035(14) 0.11678(10) 0.14605(15)
H13_3 H 0.979667 0.133212 0.164139
H14_3 H 0.939443 0.082441 0.173074
C6_3 C 0.89004(19) 0.14842(17) 0.1754(2)
H15_3 H 0.887480 0.180888 0.142595
H16_3 H 0.851180 0.129708 0.164136
C7_3 C 0.89796(17) 0.16054(15) 0.2658(2)
O6_2 O 0.92199(7) 0.02118(6) 0.29337(9)
Ni3_4 Ni 1.000000 0.000000 0.500000
Ni1_8 Ni 1.000000 0.000000 1.000000
H8_3 H 0.986851 0.116053 0.952748
H9_3 H 0.888350 0.076170 0.957361
O9_3 O 0.98143(7) 0.03207(6) 0.87642(8)
N1_3 N 0.9330(2) 0.7277(3) 0.6175(4)
Ni1_9 Ni 1.000000 1.000000 0.000000
C4_3 C 0.87184(10) 0.97759(10) 0.00014(14)
H12_3 H 0.834484 0.975683 0.031551
C14_3 C 0.9816(3) 0.7125(3) 0.6280(4)
O5_2 O 0.98143(7) 0.96793(6) 0.37642(8)
O7_2 O 0.80678(7) 0.80212(6) 0.07391(10)
O8_2 O 0.89244(9) 0.75871(7) 0.11203(13)
C30_2 C 0.94469(9) 0.97788(8) 0.31227(12)
C31_2 C 0.92592(9) 0.93116(8) 0.25761(11)
C32_2 C 0.86348(9) 0.92665(8) 0.23102(12)
H46_2 H 0.836325 0.953501 0.243830
C33_2 C 0.84093(10) 0.88357(9) 0.18635(12)
H47_2 H 0.798899 0.881430 0.168864
C34_2 C 0.88018(10) 0.84367(8) 0.16741(12)
C35_2 C 0.94243(10) 0.84769(7) 0.19398(11)
H48_2 H 0.969157 0.820417 0.181725
C36_2 C 0.96588(8) 0.89102(7) 0.23812(10)
C37_2 C 0.85832(11) 0.79749(9) 0.11372(13)
C38_3 C 0.90481(11) 0.92564(10) 0.00425(14)
H52_3 H 0.912605 0.915107 0.064255
Ni3_5 Ni 1.000000 1.000000 0.500000
Ni4_3 Ni 0.750000 0.750000 0.000000
Ni1_10 Ni 1.000000 1.000000 1.000000
H11_3 H 0.860018 0.986584 0.940372
N13_3 N 0.96327(8) 0.92941(7) 0.96335(10)
H49_3 H 0.954269 0.929898 0.900423
H51_3 H 0.878783 0.899143 0.975035
H53_3 H 0.985435 0.853185 0.965947
Ni4_4 Ni 0.750000 0.750000 1.000000
N3_4 N 0.06373(10) 0.11057(8) 0.44661(12)
N4_4 N 0.08637(8) 0.01734(7) 0.46131(11)
H2_4 H 0.085058 0.012728 0.398332
N5_4 N 0.09388(15) 0.17020(13) 0.16314(18)
C2_4 C 0.00556(12) 0.11433(9) 0.48480(14)
H8_4 H 0.013149 0.116053 0.547252
C3_4 C 0.10603(12) 0.07183(10) 0.48031(15)
H9_4 H 0.111650 0.076170 0.542639
H10_4 H 0.145966 0.077685 0.456668
C5_4 C 0.05965(14) 0.11678(10) 0.35395(15)
H13_4 H 0.020333 0.133212 0.335861
H14_4 H 0.060557 0.082441 0.326926
C6_4 C 0.10996(19) 0.14842(17) 0.3246(2)
H15_4 H 0.112520 0.180888 0.357405
H16_4 H 0.148820 0.129708 0.335864
C7_4 C 0.10204(17) 0.16054(15) 0.2342(2)
O9_4 O 0.01857(7) 0.03207(6) 0.62358(8)
C4_4 C 0.12816(10) 0.97759(10) 0.49986(14)
H11_4 H 0.139982 0.986584 0.559628
H12_4 H 0.165516 0.975683 0.468449
N13_4 N 0.03673(8) 0.92941(7) 0.53665(10)
H49_4 H 0.045731 0.929898 0.599577
C38_4 C 0.09519(11) 0.92564(10) 0.49575(14)
H51_4 H 0.121217 0.899143 0.524965
H52_4 H 0.087395 0.915107 0.435745
H53_4 H 0.014565 0.853185 0.534053
N1_4 N 0.0670(2) 0.7277(3) 0.8825(4)
C14_4 C 0.0184(3) 0.7125(3) 0.8720(4)
N2_4 N 0.96327(8) 0.07059(7) 0.46335(10)
H1_4 H 0.954269 0.070102 0.400423
C1_4 C 0.90481(11) 0.07436(10) 0.50425(14)
H5_4 H 0.878783 0.100857 0.475035
H6_4 H 0.912605 0.084893 0.564255
H7_4 H 0.985435 0.146815 0.465947
C41_4 C 0.87184(10) 0.02241(10) 0.50014(14)
H57_4 H 0.860018 0.013416 0.440372
H58_4 H 0.834484 0.024317 0.531551
N6_4 N 0.80531(9) 0.68747(7) 0.03299(13)
H3_4 H 0.843584 0.701704 0.061610
C8_4 C 0.77442(14) 0.65846(10) 0.09833(18)
H17_4 H 0.803993 0.635949 0.130510
H18_4 H 0.741938 0.636564 0.071013
N9_4 N 0.4330(2) 0.7723(3) 0.1175(4)
N11_4 N 0.64748(11) 0.81427(9) 0.10453(16)
N12_4 N 0.70526(10) 0.73166(8) 0.10771(13)
H33_4 H 0.667769 0.711781 0.089383
C24_4 C 0.67621(13) 0.84401(10) 0.03998(19)
H36_4 H 0.647573 0.871052 0.018266
H37_4 H 0.712689 0.861359 0.066634
C25_4 C 0.68617(14) 0.77842(11) 0.15593(17)
H38_4 H 0.723104 0.796910 0.178467
H39_4 H 0.663862 0.766973 0.204952
C26_4 C 0.74710(14) 0.69673(11) 0.15811(17)
H40_4 H 0.779895 0.716943 0.188419
H41_4 H 0.724490 0.678129 0.200755
C27_4 C 0.58522(14) 0.79624(14) 0.0804(2)
H42_4 H 0.585919 0.758495 0.072077
H43_4 H 0.570988 0.812196 0.025687
C28_4 C 0.5424(2) 0.8086(2) 0.1439(4)
H44_4 H 0.539147 0.846516 0.147866
H45_4 H 0.559358 0.795908 0.199697
C29_4 C 0.4816(3) 0.7875(3) 0.1280(4)
N14_4 N 0.93627(10) 0.88943(8) 0.55339(12)
N15_4 N 0.91363(8) 0.98266(7) 0.53869(11)
H50_4 H 0.914942 0.987272 0.601668
N16_4 N 0.90612(15) 0.82980(13) 0.83686(18)
C39_4 C 0.99444(12) 0.88567(9) 0.51520(14)
H54_4 H 0.986851 0.883947 0.452748
C40_4 C 0.89397(12) 0.92817(10) 0.51969(15)
H55_4 H 0.888350 0.923830 0.457361
H56_4 H 0.854034 0.922315 0.543332
C42_4 C 0.94035(14) 0.88322(10) 0.64605(15)
H59_4 H 0.979667 0.866788 0.664139
H60_4 H 0.939443 0.917559 0.673074
C43_4 C 0.89004(19) 0.85158(17) 0.6754(2)
H61_4 H 0.887480 0.819112 0.642595
H62_4 H 0.851180 0.870292 0.664136
C44_4 C 0.89796(17) 0.83946(15) 0.7658(2)
N7_4 N 0.85252(11) 0.68573(9) 0.89547(16)
N8_4 N 0.79474(10) 0.76834(8) 0.89229(13)
H4_4 H 0.832231 0.788219 0.910617
C9_4 C 0.82379(13) 0.65599(10) 0.96002(19)
H19_4 H 0.852427 0.628948 0.981734
H20_4 H 0.787311 0.638641 0.933366
C10_4 C 0.81383(14) 0.72158(11) 0.84407(17)
H21_4 H 0.776896 0.703090 0.821533
H22_4 H 0.836138 0.733027 0.795048
C11_4 C 0.75290(14) 0.80327(11) 0.84189(17)
H23_4 H 0.720105 0.783057 0.811581
H24_4 H 0.775510 0.821871 0.799245
C12_4 C 0.91478(14) 0.70376(14) 0.9196(2)
H25_4 H 0.914081 0.741505 0.927923
H26_4 H 0.929012 0.687804 0.974313
C13_4 C 0.9576(2) 0.6914(2) 0.8561(4)
H27_4 H 0.960853 0.653484 0.852134
H28_4 H 0.940642 0.704092 0.800303
N10_4 N 0.69469(9) 0.81253(7) 0.96701(13)
H32_4 H 0.656416 0.798296 0.938390
C23_4 C 0.72558(14) 0.84154(10) 0.90167(18)
H34_4 H 0.696007 0.864051 0.869490
H35_4 H 0.758062 0.863436 0.928987
O10_4 O 0.69322(7) 0.69788(6) 0.92609(10)
O2_3 O 0.42199(7) 0.47882(6) 0.79337(9)
O4_3 O 0.39244(9) 0.74129(7) 0.61203(13)
C15_3 C 0.44469(9) 0.52212(8) 0.81227(12)
C16_3 C 0.42592(9) 0.56884(8) 0.75761(11)
C17_3 C 0.36348(9) 0.57335(8) 0.73102(12)
H29_3 H 0.336325 0.546499 0.743830
C18_3 C 0.34093(10) 0.61643(9) 0.68635(12)
H30_3 H 0.298899 0.618570 0.668864
C19_3 C 0.38018(10) 0.65633(8) 0.66741(12)
C20_3 C 0.44243(10) 0.65231(7) 0.69398(11)
H31_3 H 0.469157 0.679583 0.681725
C21_3 C 0.46588(8) 0.60898(7) 0.73812(10)
C22_3 C 0.35832(11) 0.70251(9) 0.61372(13)
O6_3 O 0.57801(7) 0.47882(6) 0.70663(9)
O8_3 O 0.60756(9) 0.74129(7) 0.88797(13)
C30_3 C 0.55531(9) 0.52212(8) 0.68773(12)
C31_3 C 0.57408(9) 0.56884(8) 0.74239(11)
C32_3 C 0.63652(9) 0.57335(8) 0.76898(12)
H46_3 H 0.663675 0.546499 0.756170
C33_3 C 0.65907(10) 0.61643(9) 0.81365(12)
H47_3 H 0.701101 0.618570 0.831136
C34_3 C 0.61982(10) 0.65633(8) 0.83259(12)
C35_3 C 0.55757(10) 0.65231(7) 0.80602(11)
H48_3 H 0.530843 0.679583 0.818275
C36_3 C 0.53412(8) 0.60898(7) 0.76188(10)
C37_3 C 0.64168(11) 0.70251(9) 0.88628(13)
O8_4 O 0.10756(9) 0.24129(7) 0.88797(13)
C30_4 C 0.05531(9) 0.02212(8) 0.68773(12)
C31_4 C 0.07408(9) 0.06884(8) 0.74239(11)
C32_4 C 0.13652(9) 0.07335(8) 0.76898(12)
H46_4 H 0.163675 0.046499 0.756170
C33_4 C 0.15907(10) 0.11643(9) 0.81365(12)
H47_4 H 0.201101 0.118570 0.831136
C34_4 C 0.11982(10) 0.15633(8) 0.83259(12)
C35_4 C 0.05757(10) 0.15231(7) 0.80602(11)
H48_4 H 0.030843 0.179583 0.818275
C36_4 C 0.03412(8) 0.10898(7) 0.76188(10)
C37_4 C 0.14168(11) 0.20251(9) 0.88628(13)
O6_4 O 0.07801(7) 0.97882(6) 0.70663(9)
O4_4 O 0.89244(9) 0.24129(7) 0.61203(13)
C15_4 C 0.94469(9) 0.02212(8) 0.81227(12)
C16_4 C 0.92592(9) 0.06884(8) 0.75761(11)
C17_4 C 0.86348(9) 0.07335(8) 0.73102(12)
H29_4 H 0.836325 0.046499 0.743830
C18_4 C 0.84093(10) 0.11643(9) 0.68635(12)
H30_4 H 0.798899 0.118570 0.668864
C19_4 C 0.88018(10) 0.15633(8) 0.66741(12)
C20_4 C 0.94243(10) 0.15231(7) 0.69398(11)
H31_4 H 0.969157 0.179583 0.681725
C21_4 C 0.96588(8) 0.10898(7) 0.73812(10)
C22_4 C 0.85832(11) 0.20251(9) 0.61372(13)
O2_4 O 0.92199(7) 0.97882(6) 0.79337(9)
loop_
_geom_bond_atom_site_label_1
_geom_bond_atom_site_label_2
_geom_bond_site_symmetry_1
_geom_bond_site_symmetry_2
N9 C29 1_555 1_555
N1 C14 1_555 1_555
Ni1 O1 1_555 1_555
Ni2 O3 1_555 1_555
O1 C15 1_555 1_555
O2 C15 1_555 1_555
O3 C22 1_555 1_555
O4 C22 1_555 1_555
N2 Ni1 1_555 1_555
H1 N2 1_555 1_555
N3 C2 1_555 1_555
N4 Ni1 1_555 1_555
H2 N4 1_555 1_555
N5 C7 1_555 1_555
N6 Ni2 1_555 1_555
H3 N6 1_555 1_555
N7 C9 1_555 1_555
N8 Ni2 1_555 1_555
H4 N8 1_555 1_555
C2 N2 1_555 1_555
H7 C2 1_555 1_555
C3 N3 1_555 1_555
H10 C3 1_555 1_555
C4 N4 1_555 1_555
H12 C4 1_555 1_555
C5 N3 1_555 1_555
H13 C5 1_555 1_555
H14 C5 1_555 1_555
C6 C5 1_555 1_555
H15 C6 1_555 1_555
H16 C6 1_555 1_555
C7 C6 1_555 1_555
C8 N6 1_555 1_555
H17 C8 1_555 1_555
H18 C8 1_555 1_555
C9 N6 1_555 1_555
H19 C9 1_555 1_555
H20 C9 1_555 1_555
C10 N7 1_555 1_555
H21 C10 1_555 1_555
H22 C10 1_555 1_555
C11 N8 1_555 1_555
H23 C11 1_555 1_555
H24 C11 1_555 1_555
C12 N7 1_555 1_555
H25 C12 1_555 1_555
H26 C12 1_555 1_555
C13 C12 1_555 1_555
H27 C13 1_555 1_555
H28 C13 1_555 1_555
C14 C13 1_555 1_555
C15 C16 1_555 1_555
C16 C17 1_555 1_555
C17 H29 1_555 1_555
C18 C17 1_555 1_555
H30 C18 1_555 1_555
C19 C18 1_555 1_555
C20 C19 1_555 1_555
H31 C20 1_555 1_555
C21 C16 1_555 1_555
C22 C19 1_555 1_555
N10 Ni2 1_555 1_555
H32 N10 1_555 1_555
N11 C24 1_555 1_555
N12 Ni2 1_555 1_555
H33 N12 1_555 1_555
C23 C11 1_555 1_555
H34 C23 1_555 1_555
H35 C23 1_555 1_555
C24 N10 1_555 1_555
H36 C24 1_555 1_555
H37 C24 1_555 1_555
C25 N11 1_555 1_555
H38 C25 1_555 1_555
H39 C25 1_555 1_555
C26 C8 1_555 1_555
H40 C26 1_555 1_555
H41 C26 1_555 1_555
C27 N11 1_555 1_555
H42 C27 1_555 1_555
H43 C27 1_555 1_555
C28 C27 1_555 1_555
H44 C28 1_555 1_555
H45 C28 1_555 1_555
O5 C30 1_555 1_555
O6 C30 1_555 1_555
O7 C37 1_555 1_555
O8 C37 1_555 1_555
C30 C31 1_555 1_555
C31 C32 1_555 1_555
C32 H46 1_555 1_555
C33 C32 1_555 1_555
H47 C33 1_555 1_555
C34 C33 1_555 1_555
C35 C34 1_555 1_555
H48 C35 1_555 1_555
C36 C21 1_555 1_555
C37 C34 1_555 1_555
C38 C4 1_555 1_555
H52 C38 1_555 1_555
Ni3 O5 1_555 1_555
Ni4 O7 1_555 1_555
O10 Ni2 1_555 1_555
N4 C3 1_555 1_555
N8 C10 1_555 1_555
C20 C21 1_555 1_555
N10 C23 1_555 1_555
N12 C25 1_555 1_555
N12 C26 1_555 1_555
C31 C36 1_555 1_555
C35 C36 1_555 1_555
H6 C1 1_555 1_555
N13 Ni1_2 1_555 1_555
H49 N13 1_555 1_555
N14 C39 1_555 1_555
N15 Ni1_2 1_555 1_555
H50 N15 1_555 1_555
N16 C44 1_555 1_555
C39 N13 1_555 1_555
H53 C39 1_555 1_555
C40 N14 1_555 1_555
H56 C40 1_555 1_555
C41 C1 1_555 1_555
H58 C41 1_555 1_555
C42 N14 1_555 1_555
H59 C42 1_555 1_555
H60 C42 1_555 1_555
C43 C42 1_555 1_555
H61 C43 1_555 1_555
H62 C43 1_555 1_555
C44 C43 1_555 1_555
O9 Ni1_2 1_555 1_555
N15 C40 1_555 1_555
N15 C41 1_555 1_555
N2_2 Ni3 1_555 1_555
H1_2 N2_2 1_555 1_555
N3_2 C2_2 1_555 1_555
N4_2 Ni3 1_555 1_555
H2_2 N4_2 1_555 1_555
N5_2 C7_2 1_555 1_555
N6_2 Ni4 1_555 1_555
H3_2 N6_2 1_555 1_555
C1_2 N2_2 1_555 1_555
H5_2 C1_2 1_555 1_555
H6_2 C1_2 1_555 1_555
C2_2 N2_2 1_555 1_555
H7_2 C2_2 1_555 1_555
H8_2 C2_2 1_555 1_555
C3_2 N3_2 1_555 1_555
H9_2 C3_2 1_555 1_555
H10_2 C3_2 1_555 1_555
C4_2 N4_2 1_555 1_555
H11_2 C4_2 1_555 1_555
H12_2 C4_2 1_555 1_555
C5_2 N3_2 1_555 1_555
H13_2 C5_2 1_555 1_555
H14_2 C5_2 1_555 1_555
C6_2 C5_2 1_555 1_555
H15_2 C6_2 1_555 1_555
H16_2 C6_2 1_555 1_555
C7_2 C6_2 1_555 1_555
C8_2 N6_2 1_555 1_555
H17_2 C8_2 1_555 1_555
H18_2 C8_2 1_555 1_555
N11_2 C24_2 1_555 1_555
N12_2 Ni4 1_555 1_555
H33_2 N12_2 1_555 1_555
H36_2 C24_2 1_555 1_555
H37_2 C24_2 1_555 1_555
C25_2 N11_2 1_555 1_555
H38_2 C25_2 1_555 1_555
H39_2 C25_2 1_555 1_555
C26_2 C8_2 1_555 1_555
H40_2 C26_2 1_555 1_555
H41_2 C26_2 1_555 1_555
C27_2 N11_2 1_555 1_555
H42_2 C27_2 1_555 1_555
H43_2 C27_2 1_555 1_555
C28_2 C27_2 1_555 1_555
H44_2 C28_2 1_555 1_555
H45_2 C28_2 1_555 1_555
N13_2 Ni3 1_555 1_555
H49_2 N13_2 1_555 1_555
N14_2 C39_2 1_555 1_555
N15_2 Ni3 1_555 1_555
H50_2 N15_2 1_555 1_555
N16_2 C44_2 1_555 1_555
C38_2 C4_2 1_555 1_555
H51_2 C38_2 1_555 1_555
H52_2 C38_2 1_555 1_555
C39_2 N13_2 1_555 1_555
H53_2 C39_2 1_555 1_555
H54_2 C39_2 1_555 1_555
C40_2 N14_2 1_555 1_555
H55_2 C40_2 1_555 1_555
H56_2 C40_2 1_555 1_555
C41_2 C1_2 1_555 1_555
H57_2 C41_2 1_555 1_555
H58_2 C41_2 1_555 1_555
C42_2 N14_2 1_555 1_555
H59_2 C42_2 1_555 1_555
H60_2 C42_2 1_555 1_555
C43_2 C42_2 1_555 1_555
H61_2 C43_2 1_555 1_555
H62_2 C43_2 1_555 1_555
C44_2 C43_2 1_555 1_555
O9_2 Ni3 1_555 1_555
N4_2 C3_2 1_555 1_555
N12_2 C25_2 1_555 1_555
N12_2 C26_2 1_555 1_555
N13_2 C38_2 1_555 1_555
N15_2 C40_2 1_555 1_555
N15_2 C41_2 1_555 1_555
N1_2 C14_2 1_555 1_555
N7_2 C9_2 1_555 1_555
N8_2 Ni4_2 1_555 1_555
H4_2 N8_2 1_555 1_555
H19_2 C9_2 1_555 1_555
H20_2 C9_2 1_555 1_555
C10_2 N7_2 1_555 1_555
H21_2 C10_2 1_555 1_555
H22_2 C10_2 1_555 1_555
C11_2 N8_2 1_555 1_555
H23_2 C11_2 1_555 1_555
H24_2 C11_2 1_555 1_555
C12_2 N7_2 1_555 1_555
H25_2 C12_2 1_555 1_555
H26_2 C12_2 1_555 1_555
C13_2 C12_2 1_555 1_555
H27_2 C13_2 1_555 1_555
H28_2 C13_2 1_555 1_555
C14_2 C13_2 1_555 1_555
N10_2 Ni4_2 1_555 1_555
H32_2 N10_2 1_555 1_555
C23_2 C11_2 1_555 1_555
H34_2 C23_2 1_555 1_555
H35_2 C23_2 1_555 1_555
O10_2 Ni4_2 1_555 1_555
N8_2 C10_2 1_555 1_555
N10_2 C23_2 1_555 1_555
N9_2 C29_2 1_555 1_555
N2_3 Ni1_3 1_555 1_555
H1_3 N2_3 1_555 1_555
H6_3 C1_3 1_555 1_555
C41_3 C1_3 1_555 1_555
H58_3 C41_3 1_555 1_555
Ni1_5 O1_2 1_555 1_555
Ni2_2 O3_2 1_555 1_555
O1_2 C15_2 1_555 1_555
O3_2 C22_2 1_555 1_555
O4_2 C22_2 1_555 1_555
N6_3 Ni2_2 1_555 1_555
H3_3 N6_3 1_555 1_555
N7_3 C9_3 1_555 1_555
N8_3 Ni2_2 1_555 1_555
H4_3 N8_3 1_555 1_555
C8_3 N6_3 1_555 1_555
H17_3 C8_3 1_555 1_555
H18_3 C8_3 1_555 1_555
C9_3 N6_3 1_555 1_555
H19_3 C9_3 1_555 1_555
H20_3 C9_3 1_555 1_555
C10_3 N7_3 1_555 1_555
H21_3 C10_3 1_555 1_555
H22_3 C10_3 1_555 1_555
C11_3 N8_3 1_555 1_555
H23_3 C11_3 1_555 1_555
H24_3 C11_3 1_555 1_555
C12_3 N7_3 1_555 1_555
H25_3 C12_3 1_555 1_555
H26_3 C12_3 1_555 1_555
C13_3 C12_3 1_555 1_555
H27_3 C13_3 1_555 1_555
H28_3 C13_3 1_555 1_555
C15_2 C16_2 1_555 1_555
C16_2 C17_2 1_555 1_555
C17_2 H29_2 1_555 1_555
C18_2 C17_2 1_555 1_555
H30_2 C18_2 1_555 1_555
C19_2 C18_2 1_555 1_555
C20_2 C19_2 1_555 1_555
H31_2 C20_2 1_555 1_555
C21_2 C16_2 1_555 1_555
C22_2 C19_2 1_555 1_555
N9_3 C29_3 1_555 1_555
N10_3 Ni2_2 1_555 1_555
H32_3 N10_3 1_555 1_555
N11_3 C24_3 1_555 1_555
N12_3 Ni2_2 1_555 1_555
H33_3 N12_3 1_555 1_555
C23_3 C11_3 1_555 1_555
H34_3 C23_3 1_555 1_555
H35_3 C23_3 1_555 1_555
C24_3 N10_3 1_555 1_555
H36_3 C24_3 1_555 1_555
H37_3 C24_3 1_555 1_555
C25_3 N11_3 1_555 1_555
H38_3 C25_3 1_555 1_555
H39_3 C25_3 1_555 1_555
C26_3 C8_3 1_555 1_555
H40_3 C26_3 1_555 1_555
H41_3 C26_3 1_555 1_555
C27_3 N11_3 1_555 1_555
H42_3 C27_3 1_555 1_555
H43_3 C27_3 1_555 1_555
C28_3 C27_3 1_555 1_555
H44_3 C28_3 1_555 1_555
H45_3 C28_3 1_555 1_555
C29_3 C28_3 1_555 1_555
O10_3 Ni2_2 1_555 1_555
N8_3 C10_3 1_555 1_555
C20_2 C21_2 1_555 1_555
N10_3 C23_3 1_555 1_555
N12_3 C25_3 1_555 1_555
N12_3 C26_3 1_555 1_555
N14_3 C39_3 1_555 1_555
N15_3 Ni1_6 1_555 1_555
H50_3 N15_3 1_555 1_555
N16_3 C44_3 1_555 1_555
C40_3 N14_3 1_555 1_555
H56_3 C40_3 1_555 1_555
C42_3 N14_3 1_555 1_555
H59_3 C42_3 1_555 1_555
H60_3 C42_3 1_555 1_555
C43_3 C42_3 1_555 1_555
H61_3 C43_3 1_555 1_555
H62_3 C43_3 1_555 1_555
C44_3 C43_3 1_555 1_555
N15_3 C40_3 1_555 1_555
N3_3 C2_3 1_555 1_555
N4_3 Ni1_7 1_555 1_555
H2_3 N4_3 1_555 1_555
N5_3 C7_3 1_555 1_555
C3_3 N3_3 1_555 1_555
H10_3 C3_3 1_555 1_555
C5_3 N3_3 1_555 1_555
H13_3 C5_3 1_555 1_555
H14_3 C5_3 1_555 1_555
C6_3 C5_3 1_555 1_555
H15_3 C6_3 1_555 1_555
H16_3 C6_3 1_555 1_555
C7_3 C6_3 1_555 1_555
N4_3 C3_3 1_555 1_555
O9_3 Ni1_8 1_555 1_555
N1_3 C14_3 1_555 1_555
H12_3 C4_3 1_555 1_555
O5_2 C30_2 1_555 1_555
O7_2 C37_2 1_555 1_555
O8_2 C37_2 1_555 1_555
C30_2 C31_2 1_555 1_555
C31_2 C32_2 1_555 1_555
C32_2 H46_2 1_555 1_555
C33_2 C32_2 1_555 1_555
H47_2 C33_2 1_555 1_555
C34_2 C33_2 1_555 1_555
C35_2 C34_2 1_555 1_555
H48_2 C35_2 1_555 1_555
C37_2 C34_2 1_555 1_555
C38_3 C4_3 1_555 1_555
H52_3 C38_3 1_555 1_555
Ni3_5 O5_2 1_555 1_555
Ni4_3 O7_2 1_555 1_555
C31_2 C36_2 1_555 1_555
C35_2 C36_2 1_555 1_555
N13_3 Ni1_10 1_555 1_555
H49_3 N13_3 1_555 1_555
N3_4 C2_4 1_555 1_555
N4_4 Ni3_2 1_555 1_555
H2_4 N4_4 1_555 1_555
N5_4 C7_4 1_555 1_555
H8_4 C2_4 1_555 1_555
C3_4 N3_4 1_555 1_555
H9_4 C3_4 1_555 1_555
H10_4 C3_4 1_555 1_555
C5_4 N3_4 1_555 1_555
H13_4 C5_4 1_555 1_555
H14_4 C5_4 1_555 1_555
C6_4 C5_4 1_555 1_555
H15_4 C6_4 1_555 1_555
H16_4 C6_4 1_555 1_555
C7_4 C6_4 1_555 1_555
O9_4 Ni3_2 1_555 1_555
N4_4 C3_4 1_555 1_555
H11_4 C4_4 1_555 1_555
H12_4 C4_4 1_555 1_555
N13_4 Ni3_3 1_555 1_555
H49_4 N13_4 1_555 1_555
C38_4 C4_4 1_555 1_555
H51_4 C38_4 1_555 1_555
H52_4 C38_4 1_555 1_555
N13_4 C38_4 1_555 1_555
N1_4 C14_4 1_555 1_555
N2_4 Ni3_4 1_555 1_555
H1_4 N2_4 1_555 1_555
C1_4 N2_4 1_555 1_555
H5_4 C1_4 1_555 1_555
H6_4 C1_4 1_555 1_555
C41_4 C1_4 1_555 1_555
H57_4 C41_4 1_555 1_555
H58_4 C41_4 1_555 1_555
N6_4 Ni4_3 1_555 1_555
H3_4 N6_4 1_555 1_555
C8_4 N6_4 1_555 1_555
H17_4 C8_4 1_555 1_555
H18_4 C8_4 1_555 1_555
N9_4 C29_4 1_555 1_555
N11_4 C24_4 1_555 1_555
N12_4 Ni4_3 1_555 1_555
H33_4 N12_4 1_555 1_555
H36_4 C24_4 1_555 1_555
H37_4 C24_4 1_555 1_555
C25_4 N11_4 1_555 1_555
H38_4 C25_4 1_555 1_555
H39_4 C25_4 1_555 1_555
C26_4 C8_4 1_555 1_555
H40_4 C26_4 1_555 1_555
H41_4 C26_4 1_555 1_555
C27_4 N11_4 1_555 1_555
H42_4 C27_4 1_555 1_555
H43_4 C27_4 1_555 1_555
C28_4 C27_4 1_555 1_555
H44_4 C28_4 1_555 1_555
H45_4 C28_4 1_555 1_555
C29_4 C28_4 1_555 1_555
N14_4 C39_4 1_555 1_555
N15_4 Ni3_5 1_555 1_555
H50_4 N15_4 1_555 1_555
N16_4 C44_4 1_555 1_555
H54_4 C39_4 1_555 1_555
C40_4 N14_4 1_555 1_555
H55_4 C40_4 1_555 1_555
H56_4 C40_4 1_555 1_555
C42_4 N14_4 1_555 1_555
H59_4 C42_4 1_555 1_555
H60_4 C42_4 1_555 1_555
C43_4 C42_4 1_555 1_555
H61_4 C43_4 1_555 1_555
H62_4 C43_4 1_555 1_555
C44_4 C43_4 1_555 1_555
N12_4 C25_4 1_555 1_555
N12_4 C26_4 1_555 1_555
N15_4 C40_4 1_555 1_555
N7_4 C9_4 1_555 1_555
N8_4 Ni4_4 1_555 1_555
H4_4 N8_4 1_555 1_555
H19_4 C9_4 1_555 1_555
H20_4 C9_4 1_555 1_555
C10_4 N7_4 1_555 1_555
H21_4 C10_4 1_555 1_555
H22_4 C10_4 1_555 1_555
C11_4 N8_4 1_555 1_555
H23_4 C11_4 1_555 1_555
H24_4 C11_4 1_555 1_555
C12_4 N7_4 1_555 1_555
H25_4 C12_4 1_555 1_555
H26_4 C12_4 1_555 1_555
C13_4 C12_4 1_555 1_555
H27_4 C13_4 1_555 1_555
H28_4 C13_4 1_555 1_555
N10_4 Ni4_4 1_555 1_555
H32_4 N10_4 1_555 1_555
C23_4 C11_4 1_555 1_555
H34_4 C23_4 1_555 1_555
H35_4 C23_4 1_555 1_555
O10_4 Ni4_4 1_555 1_555
N8_4 C10_4 1_555 1_555
N10_4 C23_4 1_555 1_555
O9 C15_3 1_555 1_555
O2_3 C15_3 1_555 1_555
O10_3 C22_3 1_555 1_555
O4_3 C22_3 1_555 1_555
C15_3 C16_3 1_555 1_555
C16_3 C17_3 1_555 1_555
C17_3 H29_3 1_555 1_555
C18_3 C17_3 1_555 1_555
H30_3 C18_3 1_555 1_555
C19_3 C18_3 1_555 1_555
C20_3 C19_3 1_555 1_555
H31_3 C20_3 1_555 1_555
C21_3 C16_3 1_555 1_555
C22_3 C19_3 1_555 1_555
O9_2 C30_3 1_555 1_555
O6_3 C30_3 1_555 1_555
O10_4 C37_3 1_555 1_555
O8_3 C37_3 1_555 1_555
C30_3 C31_3 1_555 1_555
C31_3 C32_3 1_555 1_555
C32_3 H46_3 1_555 1_555
C33_3 C32_3 1_555 1_555
H47_3 C33_3 1_555 1_555
C34_3 C33_3 1_555 1_555
C35_3 C34_3 1_555 1_555
H48_3 C35_3 1_555 1_555
C36_3 C21_3 1_555 1_555
C37_3 C34_3 1_555 1_555
C20_3 C21_3 1_555 1_555
C31_3 C36_3 1_555 1_555
C35_3 C36_3 1_555 1_555
O9_4 C30_4 1_555 1_555
O10_2 C37_4 1_555 1_555
O8_4 C37_4 1_555 1_555
C30_4 C31_4 1_555 1_555
C31_4 C32_4 1_555 1_555
C32_4 H46_4 1_555 1_555
C33_4 C32_4 1_555 1_555
H47_4 C33_4 1_555 1_555
C34_4 C33_4 1_555 1_555
C35_4 C34_4 1_555 1_555
H48_4 C35_4 1_555 1_555
C37_4 C34_4 1_555 1_555
C31_4 C36_4 1_555 1_555
C35_4 C36_4 1_555 1_555
O9_3 C15_4 1_555 1_555
O10 C22_4 1_555 1_555
O4_4 C22_4 1_555 1_555
C15_4 C16_4 1_555 1_555
C16_4 C17_4 1_555 1_555
C17_4 H29_4 1_555 1_555
C18_4 C17_4 1_555 1_555
H30_4 C18_4 1_555 1_555
C19_4 C18_4 1_555 1_555
C20_4 C19_4 1_555 1_555
H31_4 C20_4 1_555 1_555
C21_4 C16_4 1_555 1_555
C22_4 C19_4 1_555 1_555
C20_4 C21_4 1_555 1_555

#END
