
###############################################################################
#
# This file contains modified crystal structure data generated from the
# MOF subset of the Cambridge Structural Database (CSD) v543 
# hosted by the Cambridge Crystallographic Data Centre (CCDC).
#
# This work is licensed under the Creative Commons
# Attribution-NonCommercial-ShareAlike 4.0 International License.
# To view a copy of this license, visit
# http://creativecommons.org/licenses/by-nc-sa/4.0/
# or send a letter to
# Creative Commons, PO Box 1866, Mountain View, CA 94042, USA.
#
# CIF created using the CSD Python API on 29 September 2022
# The structure has been converted into the P1 space group
# The structure has a 3D framework
# The original CSD entry FOPBET is in the monoclinic crystal system
# The framework has been calculated to contain at least 10.0% void space
# The void calculation uses a probe of radius 1.32A, grid spacing 0.4
# H atom positions have been added when not included in the experimental data
#
###############################################################################

data_FOPBET
_chemical_formula_moiety         '(C404 H228 Cd32 N168 O76)n'
_symmetry_cell_setting           triclinic
_symmetry_space_group_name_H-M   'P 1'
_symmetry_Int_Tables_number      1
_space_group_name_Hall           'P 1'
loop_
_symmetry_equiv_pos_site_id
_symmetry_equiv_pos_as_xyz
1 x,y,z
_cell_length_a                   25.901(6)
_cell_length_b                   12.953(3)
_cell_length_c                   36.822(8)
_cell_angle_alpha                90
_cell_angle_beta                 110.234(3)
_cell_angle_gamma                90
_cell_volume                     11591.3
loop_
_atom_site_label
_atom_site_type_symbol
_atom_site_fract_x
_atom_site_fract_y
_atom_site_fract_z
C12 C 0.2355(2) 0.0734(4) 0.10792(18)
H5 H 0.2522 0.1379 0.1106
C14 C 0.2044(2) 0.0483(4) 0.13034(15)
H7 H 0.2001 0.0959 0.1480
C19 C 0.2420(2) 0.0035(5) 0.08135(16)
H10 H 0.2624 0.0212 0.0658
H26 H 0.1708 0.0035 0.3080
Cd9 Cd 0.047239(13) 0.08374(2) 0.129085(10)
Cd2 Cd 0.098303(13) 0.40546(2) 0.164013(9)
Cd3 Cd 0.239243(12) 0.61393(2) 0.027249(9)
N1 N 0.16556(15) 0.4793(3) 0.13249(11)
N2 N 0.13691(16) 0.2543(3) 0.06929(11)
C1 C 0.2254(2) 0.5945(4) 0.11675(15)
H1 H 0.2448 0.6563 0.1223
C2 C 0.21774(19) 0.9062(4) 0.07818(14)
N3 N 0.05767(16) 0.0193(3) 0.06605(12)
C3 C 0.17070(18) 0.4184(3) 0.10454(12)
C4 C 0.18734(18) 0.8813(4) 0.10127(13)
H2 H 0.1719 0.8159 0.0997
C5 C 0.13943(18) 0.3215(3) 0.09700(13)
N4 N 0.11080(15) 0.2941(3) 0.11961(11)
N5 N 0.22921(17) 0.5362(3) 0.08813(13)
C6 C 0.10372(18) 0.1814(3) 0.07518(12)
C7 C 0.01958(19) 0.1981(3) 0.22493(14)
C9 C 0.1938(2) 0.5668(4) 0.13853(15)
H4 H 0.1923 0.6108 0.1581
N6 N 0.08719(15) 0.2027(3) 0.10492(11)
C10 C -0.0000 0.2527(5) 0.2500
C11 C 0.17982(17) 0.9534(3) 0.12677(13)
C15 C 0.08777(19) 0.0855(3) 0.05385(14)
C16 C -0.0000 0.0366(6) 0.2500
C17 C 0.20240(19) 0.4459(4) 0.08263(14)
H8 H 0.2052 0.4009 0.0637
C18 C 0.0187(3) 0.0910(4) 0.22497(17)
H9 H 0.0310 0.0551 0.2076
O1 O 0.04694(17) 0.3531(3) 0.20193(12)
O2 O 0.2027(2) 0.7414(3) 0.04956(14)
C20 C 0.04125(19) 0.2568(4) 0.19781(14)
O3 O 0.05457(17) 0.2079(3) 0.17329(12)
C23 C 0.14436(18) 0.9239(4) 0.15049(14)
C25 C 0.1044(2) 0.0619(4) 0.02281(15)
H11 H 0.1264 0.1088 0.0157
C26 C 0.22535(19) 0.8275(4) 0.05055(14)
O4 O 0.12506(13) 0.9946(3) 0.16550(10)
N13 N 0.13600(15) 0.6250(3) 0.21813(11)
O6 O 0.21103(14) 0.4505(3) 0.00096(11)
N14 N 0.17081(17) 0.3185(3) 0.21962(13)
N15 N 0.14100(15) 0.5224(3) 0.21271(11)
N17 N 0.13876(17) 0.8195(3) 0.24658(12)
C30 C 0.16863(17) 0.6441(4) 0.25416(13)
O8 O 0.13593(17) 0.8298(3) 0.15265(13)
C31 C 0.19123(19) 0.3776(4) 0.25092(14)
C33 C 0.17120(19) 0.7483(4) 0.26979(14)
C34 C 0.17729(18) 0.4876(4) 0.24607(13)
C39 C 0.1818(2) 0.2168(4) 0.22435(19)
H17 H 0.1673 0.1721 0.2035
C42 C 0.1402(3) 0.9141(4) 0.26098(19)
H19 H 0.1188 0.9658 0.2454
O10 O 0.2554(2) 0.8435(4) 0.03177(14)
N19 N 0.19597(16) 0.5614(3) 0.27320(12)
N20 N 0.2347(2) 0.2365(4) 0.29060(18)
N21 N 0.2069(2) 0.8690(4) 0.32191(15)
C46 C 0.2059(2) 0.7753(4) 0.30716(16)
H22 H 0.2294 0.7253 0.3223
C47 C 0.2231(3) 0.3368(4) 0.28620(18)
H23 H 0.2368 0.3806 0.3074
C49 C 0.2139(2) 0.1787(5) 0.2593(2)
H25 H 0.2215 0.1084 0.2613
C50 C 0.1728(3) 0.9375(5) 0.2986(2)
N29 N 0.05231(15) 0.1175(3) 0.40490(13)
C71 C 0.08465(17) 0.0438(3) 0.39875(15)
O17 O 0.02383(15) 0.5223(3) 0.62223(12)
N37 N 0.16605(15) 0.1185(3) 0.44220(13)
O19 O 0.06129(15) 0.3656(3) 0.63255(11)
C85 C 0.14107(18) 0.0446(4) 0.41689(16)
C86 C 0.07797(19) 0.1919(4) 0.42959(16)
H42 H 0.0572 0.2457 0.4341
C87 C 0.13418(19) 0.1922(4) 0.44880(16)
H43 H 0.1501 0.2442 0.4665
C90 C 0.0225(2) 0.4248(4) 0.61645(14)
Cd12 Cd 0.098303(13) 0.59454(2) 0.664013(9)
Cd14 Cd 0.260757(12) 0.11393(2) 0.472751(9)
Cd17 Cd 0.084947(12) 0.75483(2) 0.181375(9)
Cd20 Cd 0.084947(12) 0.24517(2) 0.681375(9)
O23 O 0.02383(15) 0.4777(3) 0.12223(12)
N45 N 0.33395(15) 0.6185(3) 0.05780(13)
H56 H -4.16334e-17 0.336773 0.25
C27 C 0.1630(2) 0.4840(4) 0.98416(15)
O5 O 0.14948(15) 0.5754(3) 0.98689(13)
C32 C 0.1194(2) 0.4113(4) 0.96047(15)
C35 C 0.07108(19) 0.4508(4) 0.93400(14)
H13 H 0.0665 0.5218 0.9305
C40 C 0.1261(3) 0.3048(5) 0.96577(17)
H18 H 0.1584 0.2780 0.9833
C45 C 0.0296(2) 0.3839(4) 0.91283(14)
C48 C 0.0357(3) 0.2787(4) 0.91921(16)
H24 H 0.0072 0.2341 0.9063
C51 C 0.0845(3) 0.2398(5) 0.94491(19)
H27 H 0.0892 0.1688 0.9481
Cd15 Cd 0.260757(12) 0.88607(2) 0.972751(9)
O29 O 0.2446(2) 0.6565(4) 0.96823(14)
C8 C 0.0592(3) 0.9106(4) 0.01472(18)
H3 H 0.0476 0.8489 0.0015
C13 C 0.0439(2) 0.9326(4) 0.04610(16)
H6 H 0.0230 0.8844 0.0536
N7 N 0.0898(2) 0.9742(4) 0.00275(15)
N9 N 0.01007(15) 0.8650(3) 0.16214(12)
N12 N 0.00472(17) 0.6741(3) 0.19303(13)
C28 C 0.0019(2) 0.5789(4) 0.20440(18)
H12 H 0.0341 0.5416 0.2160
N31 N 0.08195(16) 0.8834(3) 0.36093(15)
N32 N 0.00216(15) 0.9526(3) 0.35971(12)
C70 C 0.05633(18) 0.9602(4) 0.37227(15)
C73 C 0.03873(19) 0.8261(4) 0.34015(15)
C78 C 0.0425(2) 0.7250(4) 0.32397(16)
H41 H 0.1621 0.9927 0.4114
N39 N 0.0960(2) 0.5833(4) 0.3168(2)
C92 C 0.0919(2) 0.6779(5) 0.3278(2)
H47 H 0.1241 0.7155 0.3389
C93 C 0.0492(3) 0.5328(5) 0.3007(2)
H48 H 0.0501 0.4651 0.2926
O27 O 0.06129(15) 0.6344(3) 0.13255(11)
H55 H -2.77556e-17 0.952527 0.25
C64 C 0.7645(2) 0.0734(4) 0.39208(18)
H33 H 0.7478 0.1379 0.3894
C66 C 0.7956(2) 0.0483(4) 0.36966(15)
H35 H 0.7999 0.0959 0.3520
C69 C 0.7580(2) 0.0035(5) 0.41865(16)
H37 H 0.7376 0.0212 0.4342
H53 H 0.8292 0.0035 0.1920
Cd10 Cd 0.952761(13) 0.08374(2) 0.370915(10)
C10_2 C 1.0000 0.2527(5) 0.2500
C16_2 C 1.0000 0.0366(6) 0.2500
N8 N 0.94769(15) 0.1175(3) 0.09510(13)
C22 C 0.91535(17) 0.0438(3) 0.10125(15)
N16 N 0.83395(15) 0.1185(3) 0.05780(13)
C36 C 0.85893(18) 0.0446(4) 0.08311(16)
C37 C 0.92203(19) 0.1919(4) 0.07041(16)
H15 H 0.9428 0.2457 0.0659
C38 C 0.86582(19) 0.1922(4) 0.05120(16)
H16 H 0.8499 0.2442 0.0335
C52 C 0.98042(19) 0.1981(3) 0.27507(14)
C53 C 0.9813(3) 0.0910(4) 0.27503(17)
H28 H 0.9690 0.0551 0.2924
O11 O 0.95306(17) 0.3531(3) 0.29807(12)
C54 C 0.95875(19) 0.2568(4) 0.30219(14)
O12 O 0.94543(17) 0.2079(3) 0.32671(12)
Cd6 Cd 0.901697(13) 0.40546(2) 0.335987(9)
Cd7 Cd 0.760757(12) 0.61393(2) 0.472751(9)
N22 N 0.83444(15) 0.4793(3) 0.36751(11)
N23 N 0.86309(16) 0.2543(3) 0.43071(11)
C55 C 0.7746(2) 0.5945(4) 0.38325(15)
H29 H 0.7552 0.6563 0.3777
C56 C 0.78226(19) 0.9062(4) 0.42182(14)
N24 N 0.94233(16) 0.0193(3) 0.43395(12)
C57 C 0.82930(18) 0.4184(3) 0.39546(12)
C58 C 0.81266(18) 0.8813(4) 0.39873(13)
H30 H 0.8281 0.8159 0.4003
C59 C 0.86057(18) 0.3215(3) 0.40300(13)
N25 N 0.88920(15) 0.2941(3) 0.38039(11)
N26 N 0.77079(17) 0.5362(3) 0.41187(13)
C60 C 0.89628(18) 0.1814(3) 0.42482(12)
C62 C 0.8062(2) 0.5668(4) 0.36147(15)
H32 H 0.8077 0.6108 0.3419
N27 N 0.91281(15) 0.2027(3) 0.39508(11)
C63 C 0.82018(17) 0.9534(3) 0.37323(13)
C67 C 0.91223(19) 0.0855(3) 0.44615(14)
C68 C 0.79760(19) 0.4459(4) 0.41737(14)
H36 H 0.7948 0.4009 0.4363
O13 O 0.7973(2) 0.7414(3) 0.45044(14)
C72 C 0.85564(18) 0.9239(4) 0.34951(14)
C74 C 0.8956(2) 0.0619(4) 0.47719(15)
H38 H 0.8736 0.1088 0.4843
C75 C 0.77465(19) 0.8275(4) 0.44945(14)
C76 C 0.8370(2) 0.4840(4) 0.51584(15)
O14 O 0.87494(13) 0.9946(3) 0.33450(10)
O15 O 0.85052(15) 0.5754(3) 0.51311(13)
N34 N 0.86400(15) 0.6250(3) 0.28187(11)
O16 O 0.78897(14) 0.4505(3) 0.49904(11)
N35 N 0.82919(17) 0.3185(3) 0.28038(13)
N36 N 0.85900(15) 0.5224(3) 0.28729(11)
N38 N 0.86124(17) 0.8195(3) 0.25342(12)
C79 C 0.83137(17) 0.6441(4) 0.24584(13)
O18 O 0.86407(17) 0.8298(3) 0.34735(13)
C80 C 0.80877(19) 0.3776(4) 0.24908(14)
C81 C 0.8806(2) 0.4113(4) 0.53953(15)
C82 C 0.82880(19) 0.7483(4) 0.23021(14)
C83 C 0.82271(18) 0.4876(4) 0.25393(13)
C84 C 0.92892(19) 0.4508(4) 0.56600(14)
H40 H 0.9335 0.5218 0.5695
C88 C 0.8182(2) 0.2168(4) 0.27565(19)
H44 H 0.8327 0.1721 0.2965
C89 C 0.8739(3) 0.3048(5) 0.53423(17)
H45 H 0.8416 0.2780 0.5167
C91 C 0.8598(3) 0.9141(4) 0.23902(19)
H46 H 0.8812 0.9658 0.2546
O20 O 0.7446(2) 0.8435(4) 0.46823(14)
N40 N 0.80403(16) 0.5614(3) 0.22680(12)
C94 C 0.9704(2) 0.3839(4) 0.58717(14)
N41 N 0.7653(2) 0.2365(4) 0.20940(18)
N42 N 0.7931(2) 0.8690(4) 0.17809(15)
C95 C 0.7941(2) 0.7753(4) 0.19284(16)
H49 H 0.7706 0.7253 0.1777
C96 C 0.7769(3) 0.3368(4) 0.21380(18)
H50 H 0.7632 0.3806 0.1926
C97 C 0.9643(3) 0.2787(4) 0.58079(16)
H51 H 0.9928 0.2341 0.5937
C98 C 0.7861(2) 0.1787(5) 0.2407(2)
H52 H 0.7785 0.1084 0.2387
C99 C 0.8272(3) 0.9375(5) 0.2014(2)
C100 C 0.9155(3) 0.2398(5) 0.55509(19)
H54 H 0.9108 0.1688 0.5519
Cd13 Cd 0.739243(12) 0.11393(2) 0.027249(9)
Cd16 Cd 0.739243(12) 0.88607(2) 0.527249(9)
Cd18 Cd 0.915053(12) 0.75483(2) 0.318625(9)
O24 O 0.97617(15) 0.4777(3) 0.37777(12)
N46 N 0.66605(15) 0.6185(3) 0.44220(13)
O30 O 0.7554(2) 0.6565(4) 0.53177(14)
H56_2 H 1 0.336773 0.25
O7 O 0.97617(15) 0.5223(3) 0.87777(12)
O9 O 0.93871(15) 0.3656(3) 0.86745(11)
C41 C 0.9775(2) 0.4248(4) 0.88355(14)
Cd11 Cd 0.901697(13) 0.59454(2) 0.835987(9)
Cd19 Cd 0.915053(12) 0.24517(2) 0.818625(9)
N10 N 0.91805(16) 0.8834(3) 0.13907(15)
N11 N 0.99784(15) 0.9526(3) 0.14029(12)
C21 C 0.94367(18) 0.9602(4) 0.12773(15)
C24 C 0.96127(19) 0.8261(4) 0.15985(15)
C29 C 0.9575(2) 0.7250(4) 0.17603(16)
H14 H 0.8379 0.9927 0.0886
N18 N 0.9040(2) 0.5833(4) 0.1832(2)
C43 C 0.9081(2) 0.6779(5) 0.1722(2)
H20 H 0.8759 0.7155 0.1611
C44 C 0.9508(3) 0.5328(5) 0.1993(2)
H21 H 0.9499 0.4651 0.2074
C61 C 0.9408(3) 0.9106(4) 0.48528(18)
H31 H 0.9524 0.8489 0.4985
C65 C 0.9561(2) 0.9326(4) 0.45390(16)
H34 H 0.9770 0.8844 0.4464
N28 N 0.9102(2) 0.9742(4) 0.49725(15)
N30 N 0.98993(15) 0.8650(3) 0.33786(12)
N33 N 0.99528(17) 0.6741(3) 0.30697(13)
C77 C 0.9981(2) 0.5789(4) 0.29560(18)
H39 H 0.9659 0.5416 0.2840
O28 O 0.93871(15) 0.6344(3) 0.36745(11)
H55_2 H 1 0.952527 0.25
C1_2 C 0.7254(2) 0.0945(4) 0.11675(15)
H1_2 H 0.7448 0.1563 0.1223
C2_2 C 0.71774(19) 0.4062(4) 0.07818(14)
C4_2 C 0.68734(18) 0.3813(4) 0.10127(13)
H2_2 H 0.6719 0.3159 0.0997
N5_2 N 0.72921(17) 0.0362(3) 0.08813(13)
C9_2 C 0.6938(2) 0.0668(4) 0.13853(15)
H4_2 H 0.6923 0.1108 0.1581
C11_2 C 0.67982(17) 0.4534(3) 0.12677(13)
C12_2 C 0.7355(2) 0.5734(4) 0.10792(18)
H5_2 H 0.7522 0.6379 0.1106
C14_2 C 0.7044(2) 0.5483(4) 0.13034(15)
H7_2 H 0.7001 0.5959 0.1480
C19_2 C 0.7420(2) 0.5035(5) 0.08135(16)
H10_2 H 0.7624 0.5212 0.0658
O2_2 O 0.7027(2) 0.2414(3) 0.04956(14)
C23_2 C 0.64436(18) 0.4239(4) 0.15049(14)
C26_2 C 0.72535(19) 0.3275(4) 0.05055(14)
O4_2 O 0.62506(13) 0.4946(3) 0.16550(10)
N13_2 N 0.63600(15) 0.1250(3) 0.21813(11)
N15_2 N 0.64100(15) 0.0224(3) 0.21271(11)
N17_2 N 0.63876(17) 0.3195(3) 0.24658(12)
C30_2 C 0.66863(17) 0.1441(4) 0.25416(13)
O8_2 O 0.63593(17) 0.3298(3) 0.15265(13)
C33_2 C 0.67120(19) 0.2483(4) 0.26979(14)
C42_2 C 0.6402(3) 0.4141(4) 0.26098(19)
H19_2 H 0.6188 0.4658 0.2454
O10_2 O 0.7554(2) 0.3435(4) 0.03177(14)
N19_2 N 0.69597(16) 0.0614(3) 0.27320(12)
N21_2 N 0.7069(2) 0.3690(4) 0.32191(15)
C46_2 C 0.7059(2) 0.2753(4) 0.30716(16)
H22_2 H 0.7294 0.2253 0.3223
C50_2 C 0.6728(3) 0.4375(5) 0.2986(2)
H26_2 H 0.6708 0.5035 0.3080
C55_2 C 0.2746(2) 0.0945(4) 0.38325(15)
H29_2 H 0.2552 0.1563 0.3777
C56_2 C 0.28226(19) 0.4062(4) 0.42182(14)
C58_2 C 0.31266(18) 0.3813(4) 0.39873(13)
H30_2 H 0.3281 0.3159 0.4003
N26_2 N 0.27079(17) 0.0362(3) 0.41187(13)
C62_2 C 0.3062(2) 0.0668(4) 0.36147(15)
H32_2 H 0.3077 0.1108 0.3419
C63_2 C 0.32018(17) 0.4534(3) 0.37323(13)
C64_2 C 0.2645(2) 0.5734(4) 0.39208(18)
H33_2 H 0.2478 0.6379 0.3894
C66_2 C 0.2956(2) 0.5483(4) 0.36966(15)
H35_2 H 0.2999 0.5959 0.3520
C69_2 C 0.2580(2) 0.5035(5) 0.41865(16)
H37_2 H 0.2376 0.5212 0.4342
O13_2 O 0.2973(2) 0.2414(3) 0.45044(14)
C72_2 C 0.35564(18) 0.4239(4) 0.34951(14)
C75_2 C 0.27465(19) 0.3275(4) 0.44945(14)
O14_2 O 0.37494(13) 0.4946(3) 0.33450(10)
O15_2 O 0.35052(15) 0.0754(3) 0.51311(13)
N34_2 N 0.36400(15) 0.1250(3) 0.28187(11)
N36_2 N 0.35900(15) 0.0224(3) 0.28729(11)
O17_2 O 0.52383(15) 0.0223(3) 0.62223(12)
N38_2 N 0.36124(17) 0.3195(3) 0.25342(12)
C79_2 C 0.33137(17) 0.1441(4) 0.24584(13)
O18_2 O 0.36407(17) 0.3298(3) 0.34735(13)
C82_2 C 0.32880(19) 0.2483(4) 0.23021(14)
H40_2 H 0.4335 0.0218 0.5695
C91_2 C 0.3598(3) 0.4141(4) 0.23902(19)
H46_2 H 0.3812 0.4658 0.2546
O20_2 O 0.2446(2) 0.3435(4) 0.46823(14)
N40_2 N 0.30403(16) 0.0614(3) 0.22680(12)
N42_2 N 0.2931(2) 0.3690(4) 0.17809(15)
C95_2 C 0.2941(2) 0.2753(4) 0.19284(16)
H49_2 H 0.2706 0.2253 0.1777
C99_2 C 0.3272(3) 0.4375(5) 0.2014(2)
H53_2 H 0.3292 0.5035 0.1920
Cd9_2 Cd 0.547239(13) 0.58374(2) 0.129085(10)
Cd10_2 Cd 0.452761(13) 0.58374(2) 0.370915(10)
Cd12_2 Cd 0.598303(13) 0.09454(2) 0.664013(9)
Cd16_2 Cd 0.239243(12) 0.38607(2) 0.527249(9)
Cd17_2 Cd 0.584947(12) 0.25483(2) 0.181375(9)
Cd18_2 Cd 0.415053(12) 0.25483(2) 0.318625(9)
O30_2 O 0.2554(2) 0.1565(4) 0.53177(14)
O5_2 O 0.64948(15) 0.0754(3) 0.98689(13)
O7_2 O 0.47617(15) 0.0223(3) 0.87777(12)
H13_2 H 0.5665 0.0218 0.9305
Cd11_2 Cd 0.401697(13) 0.09454(2) 0.835987(9)
Cd15_2 Cd 0.760757(12) 0.38607(2) 0.972751(9)
O29_2 O 0.7446(2) 0.1565(4) 0.96823(14)
Cd2_2 Cd 0.598303(13) 0.90546(2) 0.164013(9)
N1_2 N 0.66556(15) 0.9793(3) 0.13249(11)
N2_2 N 0.63691(16) 0.7543(3) 0.06929(11)
N3_2 N 0.55767(16) 0.5193(3) 0.06605(12)
C3_2 C 0.67070(18) 0.9184(3) 0.10454(12)
C5_2 C 0.63943(18) 0.8215(3) 0.09700(13)
N4_2 N 0.61080(15) 0.7941(3) 0.11961(11)
C6_2 C 0.60372(18) 0.6814(3) 0.07518(12)
C7_2 C 0.51958(19) 0.6981(3) 0.22493(14)
C8_2 C 0.5592(3) 0.4106(4) 0.01472(18)
H3_2 H 0.5476 0.3489 0.0015
N6_2 N 0.58719(15) 0.7027(3) 0.10492(11)
C10_3 C 0.5000 0.7527(5) 0.2500
C13_2 C 0.5439(2) 0.4326(4) 0.04610(16)
H6_2 H 0.5230 0.3844 0.0536
N7_2 N 0.5898(2) 0.4742(4) 0.00275(15)
C15_2 C 0.58777(19) 0.5855(3) 0.05385(14)
C16_3 C 0.5000 0.5366(6) 0.2500
C17_2 C 0.70240(19) 0.9459(4) 0.08263(14)
H8_2 H 0.7052 0.9009 0.0637
C18_2 C 0.5187(3) 0.5910(4) 0.22497(17)
H9_2 H 0.5310 0.5551 0.2076
N8_2 N 0.44769(15) 0.6175(3) 0.09510(13)
O1_2 O 0.54694(17) 0.8531(3) 0.20193(12)
N9_2 N 0.51007(15) 0.3650(3) 0.16214(12)
N10_2 N 0.41805(16) 0.3834(3) 0.13907(15)
N11_2 N 0.49784(15) 0.4526(3) 0.14029(12)
N12_2 N 0.50472(17) 0.1741(3) 0.19303(13)
C20_2 C 0.54125(19) 0.7568(4) 0.19781(14)
O3_2 O 0.55457(17) 0.7079(3) 0.17329(12)
C21_2 C 0.44367(18) 0.4602(4) 0.12773(15)
C22_2 C 0.41535(17) 0.5438(3) 0.10125(15)
C24_2 C 0.46127(19) 0.3261(4) 0.15985(15)
C25_2 C 0.6044(2) 0.5619(4) 0.02281(15)
H11_2 H 0.6264 0.6088 0.0157
C28_2 C 0.5019(2) 0.0789(4) 0.20440(18)
H12_2 H 0.5341 0.0416 0.2160
C29_2 C 0.4575(2) 0.2250(4) 0.17603(16)
O6_2 O 0.71103(14) 0.9505(3) 0.00096(11)
N14_2 N 0.67081(17) 0.8185(3) 0.21962(13)
C31_2 C 0.69123(19) 0.8776(4) 0.25092(14)
C34_2 C 0.67729(18) 0.9876(4) 0.24607(13)
C36_2 C 0.35893(18) 0.5446(4) 0.08311(16)
H14_2 H 0.3379 0.4927 0.0886
C37_2 C 0.42203(19) 0.6919(4) 0.07041(16)
H15_2 H 0.4428 0.7457 0.0659
C38_2 C 0.36582(19) 0.6922(4) 0.05120(16)
H16_2 H 0.3499 0.7442 0.0335
N18_2 N 0.4040(2) 0.0833(4) 0.1832(2)
C39_2 C 0.6818(2) 0.7168(4) 0.22435(19)
H17_2 H 0.6673 0.6721 0.2035
C43_2 C 0.4081(2) 0.1779(5) 0.1722(2)
H20_2 H 0.3759 0.2155 0.1611
C44_2 C 0.4508(3) 0.0328(5) 0.1993(2)
N20_2 N 0.7347(2) 0.7365(4) 0.29060(18)
C47_2 C 0.7231(3) 0.8368(4) 0.28620(18)
H23_2 H 0.7368 0.8806 0.3074
C49_2 C 0.7139(2) 0.6787(5) 0.2593(2)
H25_2 H 0.7215 0.6084 0.2613
C52_2 C 0.48042(19) 0.6981(3) 0.27507(14)
C53_2 C 0.4813(3) 0.5910(4) 0.27503(17)
H28_2 H 0.4690 0.5551 0.2924
O11_2 O 0.45306(17) 0.8531(3) 0.29807(12)
C54_2 C 0.45875(19) 0.7568(4) 0.30219(14)
O12_2 O 0.44543(17) 0.7079(3) 0.32671(12)
Cd6_2 Cd 0.401697(13) 0.90546(2) 0.335987(9)
N22_2 N 0.33444(15) 0.9793(3) 0.36751(11)
N23_2 N 0.36309(16) 0.7543(3) 0.43071(11)
N24_2 N 0.44233(16) 0.5193(3) 0.43395(12)
C57_2 C 0.32930(18) 0.9184(3) 0.39546(12)
C59_2 C 0.36057(18) 0.8215(3) 0.40300(13)
N25_2 N 0.38920(15) 0.7941(3) 0.38039(11)
C60_2 C 0.39628(18) 0.6814(3) 0.42482(12)
C61_2 C 0.4408(3) 0.4106(4) 0.48528(18)
H31_2 H 0.4524 0.3489 0.4985
N27_2 N 0.41281(15) 0.7027(3) 0.39508(11)
C65_2 C 0.4561(2) 0.4326(4) 0.45390(16)
H34_2 H 0.4770 0.3844 0.4464
N28_2 N 0.4102(2) 0.4742(4) 0.49725(15)
C67_2 C 0.41223(19) 0.5855(3) 0.44615(14)
C68_2 C 0.29760(19) 0.9459(4) 0.41737(14)
H36_2 H 0.2948 0.9009 0.4363
N29_2 N 0.55231(15) 0.6175(3) 0.40490(13)
N30_2 N 0.48993(15) 0.3650(3) 0.33786(12)
N31_2 N 0.58195(16) 0.3834(3) 0.36093(15)
N32_2 N 0.50216(15) 0.4526(3) 0.35971(12)
N33_2 N 0.49528(17) 0.1741(3) 0.30697(13)
C70_2 C 0.55633(18) 0.4602(4) 0.37227(15)
C71_2 C 0.58465(17) 0.5438(3) 0.39875(15)
C73_2 C 0.53873(19) 0.3261(4) 0.34015(15)
C74_2 C 0.3956(2) 0.5619(4) 0.47719(15)
H38_2 H 0.3736 0.6088 0.4843
C76_2 C 0.3370(2) 0.9840(4) 0.51584(15)
C77_2 C 0.4981(2) 0.0789(4) 0.29560(18)
H39_2 H 0.4659 0.0416 0.2840
C78_2 C 0.5425(2) 0.2250(4) 0.32397(16)
O16_2 O 0.28897(14) 0.9505(3) 0.49904(11)
N35_2 N 0.32919(17) 0.8185(3) 0.28038(13)
O19_2 O 0.56129(15) 0.8656(3) 0.63255(11)
C80_2 C 0.30877(19) 0.8776(4) 0.24908(14)
C81_2 C 0.3806(2) 0.9113(4) 0.53953(15)
C83_2 C 0.32271(18) 0.9876(4) 0.25393(13)
C84_2 C 0.42892(19) 0.9508(4) 0.56600(14)
C85_2 C 0.64107(18) 0.5446(4) 0.41689(16)
H41_2 H 0.6621 0.4927 0.4114
C86_2 C 0.57797(19) 0.6919(4) 0.42959(16)
H42_2 H 0.5572 0.7457 0.4341
C87_2 C 0.63418(19) 0.6922(4) 0.44880(16)
H43_2 H 0.6501 0.7442 0.4665
N39_2 N 0.5960(2) 0.0833(4) 0.3168(2)
C88_2 C 0.3182(2) 0.7168(4) 0.27565(19)
H44_2 H 0.3327 0.6721 0.2965
C89_2 C 0.3739(3) 0.8048(5) 0.53423(17)
H45_2 H 0.3416 0.7780 0.5167
C90_2 C 0.5225(2) 0.9248(4) 0.61645(14)
C92_2 C 0.5919(2) 0.1779(5) 0.3278(2)
H47_2 H 0.6241 0.2155 0.3389
C93_2 C 0.5492(3) 0.0328(5) 0.3007(2)
C94_2 C 0.4704(2) 0.8839(4) 0.58717(14)
N41_2 N 0.2653(2) 0.7365(4) 0.20940(18)
C96_2 C 0.2769(3) 0.8368(4) 0.21380(18)
H50_2 H 0.2632 0.8806 0.1926
C97_2 C 0.4643(3) 0.7787(4) 0.58079(16)
H51_2 H 0.4928 0.7341 0.5937
C98_2 C 0.2861(2) 0.6787(5) 0.2407(2)
H52_2 H 0.2785 0.6084 0.2387
C100_2 C 0.4155(3) 0.7398(5) 0.55509(19)
H54_2 H 0.4108 0.6688 0.5519
Cd20_2 Cd 0.584947(12) 0.74517(2) 0.681375(9)
O23_2 O 0.52383(15) 0.9777(3) 0.12223(12)
O24_2 O 0.47617(15) 0.9777(3) 0.37777(12)
O27_2 O 0.56129(15) 0.1344(3) 0.13255(11)
O28_2 O 0.43871(15) 0.1344(3) 0.36745(11)
H55_3 H 0.5 0.452527 0.25
H56_3 H 0.5 0.836773 0.25
C27_2 C 0.6630(2) 0.9840(4) 0.98416(15)
O9_2 O 0.43871(15) 0.8656(3) 0.86745(11)
C32_2 C 0.6194(2) 0.9113(4) 0.96047(15)
C35_2 C 0.57108(19) 0.9508(4) 0.93400(14)
C40_2 C 0.6261(3) 0.8048(5) 0.96577(17)
H18_2 H 0.6584 0.7780 0.9833
C41_2 C 0.4775(2) 0.9248(4) 0.88355(14)
C45_2 C 0.5296(2) 0.8839(4) 0.91283(14)
C48_2 C 0.5357(3) 0.7787(4) 0.91921(16)
H24_2 H 0.5072 0.7341 0.9063
C51_2 C 0.5845(3) 0.7398(5) 0.94491(19)
H27_2 H 0.5892 0.6688 0.9481
Cd19_2 Cd 0.415053(12) 0.74517(2) 0.818625(9)
N10_3 N 0.08195(16) 0.1166(3) 0.86093(15)
N11_3 N 0.00216(15) 0.0474(3) 0.85971(12)
C21_3 C 0.05633(18) 0.0398(4) 0.87227(15)
C24_3 C 0.03873(19) 0.1739(4) 0.84015(15)
C29_3 C 0.0425(2) 0.2750(4) 0.82397(16)
H14_3 H 0.1621 0.0073 0.9114
N18_3 N 0.0960(2) 0.4167(4) 0.8168(2)
C43_3 C 0.0919(2) 0.3221(5) 0.8278(2)
H20_3 H 0.1241 0.2845 0.8389
C44_3 C 0.0492(3) 0.4672(5) 0.8007(2)
H21_2 H 0.0501 0.5349 0.7926
C61_3 C 0.0592(3) 0.0894(4) 0.51472(18)
H31_3 H 0.0476 0.1511 0.5015
C65_3 C 0.0439(2) 0.0674(4) 0.54610(16)
H34_3 H 0.0230 0.1156 0.5536
N28_3 N 0.0898(2) 0.0258(4) 0.50275(15)
N30_3 N 0.01007(15) 0.1350(3) 0.66214(12)
N33_3 N 0.00472(17) 0.3259(3) 0.69303(13)
C77_3 C 0.0019(2) 0.4211(4) 0.70440(18)
H39_3 H 0.0341 0.4584 0.7160
O22 O 0.12506(13) 0.0054(3) 0.66550(10)
N44 N 0.13600(15) 0.3750(3) 0.71813(11)
N48 N 0.13876(17) 0.1805(3) 0.74658(12)
O26 O 0.13593(17) 0.1702(3) 0.65265(13)
H55_4 H 0 0.0474732 0.75
C41_3 C 0.0225(2) 0.5752(4) 0.11645(14)
C10_4 C 0.0000 0.7473(5) 0.7500
C16_4 C 0.0000 0.9634(6) 0.7500
N8_3 N 0.05231(15) 0.8825(3) 0.90490(13)
C22_3 C 0.08465(17) 0.9562(3) 0.89875(15)
N16_2 N 0.16605(15) 0.8815(3) 0.94220(13)
C36_3 C 0.14107(18) 0.9554(4) 0.91689(16)
C37_3 C 0.07797(19) 0.8081(4) 0.92959(16)
H15_3 H 0.0572 0.7543 0.9341
C38_3 C 0.13418(19) 0.8078(4) 0.94880(16)
H16_3 H 0.1501 0.7558 0.9665
C52_3 C 0.01958(19) 0.8019(3) 0.72493(14)
C53_3 C 0.0187(3) 0.9090(4) 0.72497(17)
H28_3 H 0.0310 0.9449 0.7076
O11_3 O 0.04694(17) 0.6469(3) 0.70193(12)
C54_3 C 0.04125(19) 0.7432(4) 0.69781(14)
O12_3 O 0.05457(17) 0.7921(3) 0.67329(12)
Cd5 Cd 0.047239(13) 0.91626(2) 0.629085(10)
N22_3 N 0.16556(15) 0.5207(3) 0.63249(11)
N23_3 N 0.13691(16) 0.7457(3) 0.56929(11)
C55_3 C 0.2254(2) 0.4055(4) 0.61675(15)
H29_3 H 0.2448 0.3437 0.6223
C56_3 C 0.21774(19) 0.0938(4) 0.57818(14)
N24_3 N 0.05767(16) 0.9807(3) 0.56605(12)
C57_3 C 0.17070(18) 0.5816(3) 0.60454(12)
C58_3 C 0.18734(18) 0.1187(4) 0.60127(13)
H30_3 H 0.1719 0.1841 0.5997
C59_3 C 0.13943(18) 0.6785(3) 0.59700(13)
N25_3 N 0.11080(15) 0.7059(3) 0.61961(11)
N26_3 N 0.22921(17) 0.4638(3) 0.58813(13)
C60_3 C 0.10372(18) 0.8186(3) 0.57518(12)
C62_3 C 0.1938(2) 0.4332(4) 0.63853(15)
H32_3 H 0.1923 0.3892 0.6581
N27_3 N 0.08719(15) 0.7973(3) 0.60492(11)
C63_3 C 0.17982(17) 0.0466(3) 0.62677(13)
C67_3 C 0.08777(19) 0.9145(3) 0.55385(14)
C68_3 C 0.20240(19) 0.5541(4) 0.58263(14)
H36_3 H 0.2052 0.5991 0.5637
O13_3 O 0.2027(2) 0.2586(3) 0.54956(14)
C72_3 C 0.14436(18) 0.0761(4) 0.65049(14)
C74_3 C 0.1044(2) 0.9381(4) 0.52281(15)
H38_3 H 0.1264 0.8912 0.5157
C75_3 C 0.22535(19) 0.1725(4) 0.55055(14)
C76_3 C 0.1630(2) 0.5160(4) 0.48416(15)
O15_3 O 0.14948(15) 0.4246(3) 0.48689(13)
O16_3 O 0.21103(14) 0.5495(3) 0.50096(11)
N35_3 N 0.17081(17) 0.6815(3) 0.71962(13)
N36_3 N 0.14100(15) 0.4776(3) 0.71271(11)
C79_3 C 0.16863(17) 0.3559(4) 0.75416(13)
C80_3 C 0.19123(19) 0.6224(4) 0.75092(14)
C81_3 C 0.1194(2) 0.5887(4) 0.46047(15)
C82_3 C 0.17120(19) 0.2517(4) 0.76979(14)
C83_3 C 0.17729(18) 0.5124(4) 0.74607(13)
C84_3 C 0.07108(19) 0.5492(4) 0.43400(14)
H40_3 H 0.0665 0.4782 0.4305
C88_3 C 0.1818(2) 0.7832(4) 0.72435(19)
H44_3 H 0.1673 0.8279 0.7035
C89_3 C 0.1261(3) 0.6952(5) 0.46577(17)
H45_3 H 0.1584 0.7220 0.4833
C91_3 C 0.1402(3) 0.0859(4) 0.76098(19)
H46_3 H 0.1188 0.0342 0.7454
N40_3 N 0.19597(16) 0.4386(3) 0.77320(12)
C94_3 C 0.0296(2) 0.6161(4) 0.41283(14)
N41_3 N 0.2347(2) 0.7635(4) 0.79060(18)
N42_3 N 0.2069(2) 0.1310(4) 0.82191(15)
C95_3 C 0.2059(2) 0.2247(4) 0.80716(16)
H49_3 H 0.2294 0.2747 0.8223
C96_3 C 0.2231(3) 0.6632(4) 0.78620(18)
H50_3 H 0.2368 0.6194 0.8074
C97_3 C 0.0357(3) 0.7213(4) 0.41921(16)
H51_3 H 0.0072 0.7659 0.4063
C98_3 C 0.2139(2) 0.8213(5) 0.7593(2)
H52_3 H 0.2215 0.8916 0.7613
C99_3 C 0.1728(3) 0.0625(5) 0.7986(2)
C100_3 C 0.0845(3) 0.7602(5) 0.44491(19)
H54_3 H 0.0892 0.8312 0.4481
N46_2 N 0.33395(15) 0.3815(3) 0.55780(13)
H56_4 H 5.55112e-17 0.663227 0.75
C64_3 C 0.2355(2) 0.9266(4) 0.60792(18)
H33_3 H 0.2522 0.8621 0.6106
C66_3 C 0.2044(2) 0.9517(4) 0.63034(15)
H35_3 H 0.2001 0.9041 0.6480
C69_3 C 0.2420(2) 0.9965(5) 0.58135(16)
H37_3 H 0.2624 0.9788 0.5658
H53_3 H 0.1708 0.9965 0.8080
C8_3 C 0.9408(3) 0.0894(4) 0.98528(18)
H3_3 H 0.9524 0.1511 0.9985
C13_3 C 0.9561(2) 0.0674(4) 0.95390(16)
H6_3 H 0.9770 0.1156 0.9464
N7_3 N 0.9102(2) 0.0258(4) 0.99725(15)
N9_3 N 0.98993(15) 0.1350(3) 0.83786(12)
N12_3 N 0.99528(17) 0.3259(3) 0.80697(13)
C28_3 C 0.9981(2) 0.4211(4) 0.79560(18)
H12_3 H 0.9659 0.4584 0.7840
N31_3 N 0.91805(16) 0.1166(3) 0.63907(15)
N32_3 N 0.99784(15) 0.0474(3) 0.64029(12)
C70_3 C 0.94367(18) 0.0398(4) 0.62773(15)
C73_3 C 0.96127(19) 0.1739(4) 0.65985(15)
C78_3 C 0.9575(2) 0.2750(4) 0.67603(16)
H41_3 H 0.8379 0.0073 0.5886
N39_3 N 0.9040(2) 0.4167(4) 0.6832(2)
C92_3 C 0.9081(2) 0.3221(5) 0.6722(2)
H47_3 H 0.8759 0.2845 0.6611
C93_3 C 0.9508(3) 0.4672(5) 0.6993(2)
H48_2 H 0.9499 0.5349 0.7074
O21 O 0.87494(13) 0.0054(3) 0.83450(10)
N43 N 0.86400(15) 0.3750(3) 0.78187(11)
N47 N 0.86124(17) 0.1805(3) 0.75342(12)
O25 O 0.86407(17) 0.1702(3) 0.84735(13)
H55_5 H 1 0.0474732 0.75
C27_3 C 0.8370(2) 0.5160(4) 0.01584(15)
O5_3 O 0.85052(15) 0.4246(3) 0.01311(13)
C32_3 C 0.8806(2) 0.5887(4) 0.03953(15)
C35_3 C 0.92892(19) 0.5492(4) 0.06600(14)
H13_3 H 0.9335 0.4782 0.0695
C40_3 C 0.8739(3) 0.6952(5) 0.03423(17)
H18_3 H 0.8416 0.7220 0.0167
C45_3 C 0.9704(2) 0.6161(4) 0.08717(14)
C48_3 C 0.9643(3) 0.7213(4) 0.08079(16)
H24_3 H 0.9928 0.7659 0.0937
C51_3 C 0.9155(3) 0.7602(5) 0.05509(19)
H27_3 H 0.9108 0.8312 0.0519
Cd1 Cd 0.952761(13) 0.91626(2) 0.870915(10)
N1_3 N 0.83444(15) 0.5207(3) 0.86751(11)
N2_3 N 0.86309(16) 0.7457(3) 0.93071(11)
C1_3 C 0.7746(2) 0.4055(4) 0.88325(15)
H1_3 H 0.7552 0.3437 0.8777
C2_3 C 0.78226(19) 0.0938(4) 0.92182(14)
N3_3 N 0.94233(16) 0.9807(3) 0.93395(12)
C3_3 C 0.82930(18) 0.5816(3) 0.89546(12)
C4_3 C 0.81266(18) 0.1187(4) 0.89873(13)
H2_3 H 0.8281 0.1841 0.9003
C5_3 C 0.86057(18) 0.6785(3) 0.90300(13)
N4_3 N 0.88920(15) 0.7059(3) 0.88039(11)
N5_3 N 0.77079(17) 0.4638(3) 0.91187(13)
C6_3 C 0.89628(18) 0.8186(3) 0.92482(12)
C7_3 C 0.98042(19) 0.8019(3) 0.77507(14)
C9_3 C 0.8062(2) 0.4332(4) 0.86147(15)
H4_3 H 0.8077 0.3892 0.8419
N6_3 N 0.91281(15) 0.7973(3) 0.89508(11)
C10_5 C 1.0000 0.7473(5) 0.7500
C11_3 C 0.82018(17) 0.0466(3) 0.87323(13)
C15_3 C 0.91223(19) 0.9145(3) 0.94615(14)
C16_5 C 1.0000 0.9634(6) 0.7500
C17_3 C 0.79760(19) 0.5541(4) 0.91737(14)
H8_3 H 0.7948 0.5991 0.9363
C18_3 C 0.9813(3) 0.9090(4) 0.77503(17)
H9_3 H 0.9690 0.9449 0.7924
O1_3 O 0.95306(17) 0.6469(3) 0.79807(12)
O2_3 O 0.7973(2) 0.2586(3) 0.95044(14)
C20_3 C 0.95875(19) 0.7432(4) 0.80219(14)
O3_3 O 0.94543(17) 0.7921(3) 0.82671(12)
C23_3 C 0.85564(18) 0.0761(4) 0.84951(14)
C25_3 C 0.8956(2) 0.9381(4) 0.97719(15)
H11_3 H 0.8736 0.8912 0.9843
C26_3 C 0.77465(19) 0.1725(4) 0.94945(14)
O6_3 O 0.78897(14) 0.5495(3) 0.99904(11)
N14_3 N 0.82919(17) 0.6815(3) 0.78038(13)
N15_3 N 0.85900(15) 0.4776(3) 0.78729(11)
C30_3 C 0.83137(17) 0.3559(4) 0.74584(13)
C31_3 C 0.80877(19) 0.6224(4) 0.74908(14)
C33_3 C 0.82880(19) 0.2517(4) 0.73021(14)
C34_3 C 0.82271(18) 0.5124(4) 0.75393(13)
C39_3 C 0.8182(2) 0.7832(4) 0.77565(19)
H17_3 H 0.8327 0.8279 0.7965
C42_3 C 0.8598(3) 0.0859(4) 0.73902(19)
H19_3 H 0.8812 0.0342 0.7546
N19_3 N 0.80403(16) 0.4386(3) 0.72680(12)
N20_3 N 0.7653(2) 0.7635(4) 0.70940(18)
N21_3 N 0.7931(2) 0.1310(4) 0.67809(15)
C46_3 C 0.7941(2) 0.2247(4) 0.69284(16)
H22_3 H 0.7706 0.2747 0.6777
C47_3 C 0.7769(3) 0.6632(4) 0.71380(18)
H23_3 H 0.7632 0.6194 0.6926
C49_3 C 0.7861(2) 0.8213(5) 0.7407(2)
H25_3 H 0.7785 0.8916 0.7387
C50_3 C 0.8272(3) 0.0625(5) 0.7014(2)
N29_3 N 0.94769(15) 0.8825(3) 0.59510(13)
C71_3 C 0.91535(17) 0.9562(3) 0.60125(15)
N37_2 N 0.83395(15) 0.8815(3) 0.55780(13)
C85_3 C 0.85893(18) 0.9554(4) 0.58311(16)
C86_3 C 0.92203(19) 0.8081(4) 0.57041(16)
H42_3 H 0.9428 0.7543 0.5659
C87_3 C 0.86582(19) 0.8078(4) 0.55120(16)
H43_3 H 0.8499 0.7558 0.5335
C90_3 C 0.9775(2) 0.5752(4) 0.38355(14)
N45_2 N 0.66605(15) 0.3815(3) 0.94220(13)
H56_5 H 1 0.663227 0.75
C12_3 C 0.7645(2) 0.9266(4) 0.89208(18)
H5_3 H 0.7478 0.8621 0.8894
C14_3 C 0.7956(2) 0.9517(4) 0.86966(15)
H7_3 H 0.7999 0.9041 0.8520
C19_3 C 0.7580(2) 0.9965(5) 0.91865(16)
H10_3 H 0.7376 0.9788 0.9342
H26_3 H 0.8292 0.9965 0.6920
C27_4 C 0.3370(2) 0.0160(4) 0.01584(15)
C32_4 C 0.3806(2) 0.0887(4) 0.03953(15)
C35_4 C 0.42892(19) 0.0492(4) 0.06600(14)
C40_4 C 0.3739(3) 0.1952(5) 0.03423(17)
H18_4 H 0.3416 0.2220 0.0167
C41_4 C 0.5225(2) 0.0752(4) 0.11645(14)
C45_4 C 0.4704(2) 0.1161(4) 0.08717(14)
C48_4 C 0.4643(3) 0.2213(4) 0.08079(16)
H24_4 H 0.4928 0.2659 0.0937
C51_4 C 0.4155(3) 0.2602(5) 0.05509(19)
H27_4 H 0.4108 0.3312 0.0519
Cd1_2 Cd 0.452761(13) 0.41626(2) 0.870915(10)
N1_4 N 0.33444(15) 0.0207(3) 0.86751(11)
N2_4 N 0.36309(16) 0.2457(3) 0.93071(11)
N3_4 N 0.44233(16) 0.4807(3) 0.93395(12)
C3_4 C 0.32930(18) 0.0816(3) 0.89546(12)
C5_4 C 0.36057(18) 0.1785(3) 0.90300(13)
N4_4 N 0.38920(15) 0.2059(3) 0.88039(11)
C6_4 C 0.39628(18) 0.3186(3) 0.92482(12)
C7_4 C 0.48042(19) 0.3019(3) 0.77507(14)
C8_4 C 0.4408(3) 0.5894(4) 0.98528(18)
H3_4 H 0.4524 0.6511 0.9985
N6_4 N 0.41281(15) 0.2973(3) 0.89508(11)
C10_6 C 0.5000 0.2473(5) 0.7500
C13_4 C 0.4561(2) 0.5674(4) 0.95390(16)
H6_4 H 0.4770 0.6156 0.9464
N7_4 N 0.4102(2) 0.5258(4) 0.99725(15)
C15_4 C 0.41223(19) 0.4145(3) 0.94615(14)
C16_6 C 0.5000 0.4634(6) 0.7500
C17_4 C 0.29760(19) 0.0541(4) 0.91737(14)
H8_4 H 0.2948 0.0991 0.9363
C18_4 C 0.4813(3) 0.4090(4) 0.77503(17)
H9_4 H 0.4690 0.4449 0.7924
N8_4 N 0.55231(15) 0.3825(3) 0.90490(13)
O1_4 O 0.45306(17) 0.1469(3) 0.79807(12)
N9_4 N 0.48993(15) 0.6350(3) 0.83786(12)
N10_4 N 0.58195(16) 0.6166(3) 0.86093(15)
N11_4 N 0.50216(15) 0.5474(3) 0.85971(12)
N12_4 N 0.49528(17) 0.8259(3) 0.80697(13)
C20_4 C 0.45875(19) 0.2432(4) 0.80219(14)
O3_4 O 0.44543(17) 0.2921(3) 0.82671(12)
C21_4 C 0.55633(18) 0.5398(4) 0.87227(15)
C22_4 C 0.58465(17) 0.4562(3) 0.89875(15)
C24_4 C 0.53873(19) 0.6739(4) 0.84015(15)
C25_4 C 0.3956(2) 0.4381(4) 0.97719(15)
H11_4 H 0.3736 0.3912 0.9843
C28_4 C 0.4981(2) 0.9211(4) 0.79560(18)
H12_4 H 0.4659 0.9584 0.7840
C29_4 C 0.5425(2) 0.7750(4) 0.82397(16)
O6_4 O 0.28897(14) 0.0495(3) 0.99904(11)
N14_4 N 0.32919(17) 0.1815(3) 0.78038(13)
C31_4 C 0.30877(19) 0.1224(4) 0.74908(14)
C34_4 C 0.32271(18) 0.0124(4) 0.75393(13)
C36_4 C 0.64107(18) 0.4554(4) 0.91689(16)
H14_4 H 0.6621 0.5073 0.9114
C37_4 C 0.57797(19) 0.3081(4) 0.92959(16)
H15_4 H 0.5572 0.2543 0.9341
C38_4 C 0.63418(19) 0.3078(4) 0.94880(16)
H16_4 H 0.6501 0.2558 0.9665
N18_4 N 0.5960(2) 0.9167(4) 0.8168(2)
C39_4 C 0.3182(2) 0.2832(4) 0.77565(19)
H17_4 H 0.3327 0.3279 0.7965
C43_4 C 0.5919(2) 0.8221(5) 0.8278(2)
H20_4 H 0.6241 0.7845 0.8389
C44_4 C 0.5492(3) 0.9672(5) 0.8007(2)
N20_4 N 0.2653(2) 0.2635(4) 0.70940(18)
C47_4 C 0.2769(3) 0.1632(4) 0.71380(18)
H23_4 H 0.2632 0.1194 0.6926
C49_4 C 0.2861(2) 0.3213(5) 0.7407(2)
H25_4 H 0.2785 0.3916 0.7387
C52_4 C 0.51958(19) 0.3019(3) 0.72493(14)
C53_4 C 0.5187(3) 0.4090(4) 0.72497(17)
H28_4 H 0.5310 0.4449 0.7076
O11_4 O 0.54694(17) 0.1469(3) 0.70193(12)
C54_4 C 0.54125(19) 0.2432(4) 0.69781(14)
O12_4 O 0.55457(17) 0.2921(3) 0.67329(12)
Cd5_2 Cd 0.547239(13) 0.41626(2) 0.629085(10)
N22_4 N 0.66556(15) 0.0207(3) 0.63249(11)
N23_4 N 0.63691(16) 0.2457(3) 0.56929(11)
N24_4 N 0.55767(16) 0.4807(3) 0.56605(12)
C57_4 C 0.67070(18) 0.0816(3) 0.60454(12)
C59_4 C 0.63943(18) 0.1785(3) 0.59700(13)
N25_4 N 0.61080(15) 0.2059(3) 0.61961(11)
C60_4 C 0.60372(18) 0.3186(3) 0.57518(12)
C61_4 C 0.5592(3) 0.5894(4) 0.51472(18)
H31_4 H 0.5476 0.6511 0.5015
N27_4 N 0.58719(15) 0.2973(3) 0.60492(11)
C65_4 C 0.5439(2) 0.5674(4) 0.54610(16)
H34_4 H 0.5230 0.6156 0.5536
N28_4 N 0.5898(2) 0.5258(4) 0.50275(15)
C67_4 C 0.58777(19) 0.4145(3) 0.55385(14)
C68_4 C 0.70240(19) 0.0541(4) 0.58263(14)
H36_4 H 0.7052 0.0991 0.5637
N29_4 N 0.44769(15) 0.3825(3) 0.59510(13)
N30_4 N 0.51007(15) 0.6350(3) 0.66214(12)
N31_4 N 0.41805(16) 0.6166(3) 0.63907(15)
N32_4 N 0.49784(15) 0.5474(3) 0.64029(12)
N33_4 N 0.50472(17) 0.8259(3) 0.69303(13)
C70_4 C 0.44367(18) 0.5398(4) 0.62773(15)
C71_4 C 0.41535(17) 0.4562(3) 0.60125(15)
C73_4 C 0.46127(19) 0.6739(4) 0.65985(15)
C74_4 C 0.6044(2) 0.4381(4) 0.52281(15)
H38_4 H 0.6264 0.3912 0.5157
C76_4 C 0.6630(2) 0.0160(4) 0.48416(15)
C77_4 C 0.5019(2) 0.9211(4) 0.70440(18)
H39_4 H 0.5341 0.9584 0.7160
C78_4 C 0.4575(2) 0.7750(4) 0.67603(16)
O16_4 O 0.71103(14) 0.0495(3) 0.50096(11)
N35_4 N 0.67081(17) 0.1815(3) 0.71962(13)
C80_4 C 0.69123(19) 0.1224(4) 0.75092(14)
C81_4 C 0.6194(2) 0.0887(4) 0.46047(15)
C83_4 C 0.67729(18) 0.0124(4) 0.74607(13)
C84_4 C 0.57108(19) 0.0492(4) 0.43400(14)
C85_4 C 0.35893(18) 0.4554(4) 0.58311(16)
H41_4 H 0.3379 0.5073 0.5886
C86_4 C 0.42203(19) 0.3081(4) 0.57041(16)
H42_4 H 0.4428 0.2543 0.5659
C87_4 C 0.36582(19) 0.3078(4) 0.55120(16)
H43_4 H 0.3499 0.2558 0.5335
N39_4 N 0.4040(2) 0.9167(4) 0.6832(2)
C88_4 C 0.6818(2) 0.2832(4) 0.72435(19)
H44_4 H 0.6673 0.3279 0.7035
C89_4 C 0.6261(3) 0.1952(5) 0.46577(17)
H45_4 H 0.6584 0.2220 0.4833
C90_4 C 0.4775(2) 0.0752(4) 0.38355(14)
C92_4 C 0.4081(2) 0.8221(5) 0.6722(2)
H47_4 H 0.3759 0.7845 0.6611
C93_4 C 0.4508(3) 0.9672(5) 0.6993(2)
C94_4 C 0.5296(2) 0.1161(4) 0.41283(14)
N41_4 N 0.7347(2) 0.2635(4) 0.79060(18)
C96_4 C 0.7231(3) 0.1632(4) 0.78620(18)
H50_4 H 0.7368 0.1194 0.8074
C97_4 C 0.5357(3) 0.2213(4) 0.41921(16)
H51_4 H 0.5072 0.2659 0.4063
C98_4 C 0.7139(2) 0.3213(5) 0.7593(2)
H52_4 H 0.7215 0.3916 0.7613
C100_4 C 0.5845(3) 0.2602(5) 0.44491(19)
H54_4 H 0.5892 0.3312 0.4481
O21_2 O 0.37494(13) 0.5054(3) 0.83450(10)
O22_2 O 0.62506(13) 0.5054(3) 0.66550(10)
N43_2 N 0.36400(15) 0.8750(3) 0.78187(11)
N44_2 N 0.63600(15) 0.8750(3) 0.71813(11)
N47_2 N 0.36124(17) 0.6805(3) 0.75342(12)
N48_2 N 0.63876(17) 0.6805(3) 0.74658(12)
O25_2 O 0.36407(17) 0.6702(3) 0.84735(13)
O26_2 O 0.63593(17) 0.6702(3) 0.65265(13)
H55_6 H 0.5 0.547473 0.75
H56_6 H 0.5 0.163227 0.75
O5_4 O 0.35052(15) 0.9246(3) 0.01311(13)
H13_4 H 0.4335 0.9782 0.0695
C1_4 C 0.2746(2) 0.9055(4) 0.88325(15)
H1_4 H 0.2552 0.8437 0.8777
C2_4 C 0.28226(19) 0.5938(4) 0.92182(14)
C4_4 C 0.31266(18) 0.6187(4) 0.89873(13)
H2_4 H 0.3281 0.6841 0.9003
N5_4 N 0.27079(17) 0.9638(3) 0.91187(13)
C9_4 C 0.3062(2) 0.9332(4) 0.86147(15)
H4_4 H 0.3077 0.8892 0.8419
C11_4 C 0.32018(17) 0.5466(3) 0.87323(13)
C12_4 C 0.2645(2) 0.4266(4) 0.89208(18)
H5_4 H 0.2478 0.3621 0.8894
C14_4 C 0.2956(2) 0.4517(4) 0.86966(15)
H7_4 H 0.2999 0.4041 0.8520
C19_4 C 0.2580(2) 0.4965(5) 0.91865(16)
H10_4 H 0.2376 0.4788 0.9342
O2_4 O 0.2973(2) 0.7586(3) 0.95044(14)
C23_4 C 0.35564(18) 0.5761(4) 0.84951(14)
C26_4 C 0.27465(19) 0.6725(4) 0.94945(14)
N15_4 N 0.35900(15) 0.9776(3) 0.78729(11)
C30_4 C 0.33137(17) 0.8559(4) 0.74584(13)
C33_4 C 0.32880(19) 0.7517(4) 0.73021(14)
C42_4 C 0.3598(3) 0.5859(4) 0.73902(19)
H19_4 H 0.3812 0.5342 0.7546
N19_4 N 0.30403(16) 0.9386(3) 0.72680(12)
N21_4 N 0.2931(2) 0.6310(4) 0.67809(15)
C46_4 C 0.2941(2) 0.7247(4) 0.69284(16)
H22_4 H 0.2706 0.7747 0.6777
C50_4 C 0.3272(3) 0.5625(5) 0.7014(2)
H26_4 H 0.3292 0.4965 0.6920
C55_4 C 0.7254(2) 0.9055(4) 0.61675(15)
H29_4 H 0.7448 0.8437 0.6223
C56_4 C 0.71774(19) 0.5938(4) 0.57818(14)
C58_4 C 0.68734(18) 0.6187(4) 0.60127(13)
H30_4 H 0.6719 0.6841 0.5997
N26_4 N 0.72921(17) 0.9638(3) 0.58813(13)
C62_4 C 0.6938(2) 0.9332(4) 0.63853(15)
H32_4 H 0.6923 0.8892 0.6581
C63_4 C 0.67982(17) 0.5466(3) 0.62677(13)
C64_4 C 0.7355(2) 0.4266(4) 0.60792(18)
H33_4 H 0.7522 0.3621 0.6106
C66_4 C 0.7044(2) 0.4517(4) 0.63034(15)
H35_4 H 0.7001 0.4041 0.6480
C69_4 C 0.7420(2) 0.4965(5) 0.58135(16)
H37_4 H 0.7624 0.4788 0.5658
O13_4 O 0.7027(2) 0.7586(3) 0.54956(14)
C72_4 C 0.64436(18) 0.5761(4) 0.65049(14)
C75_4 C 0.72535(19) 0.6725(4) 0.55055(14)
O15_4 O 0.64948(15) 0.9246(3) 0.48689(13)
N36_4 N 0.64100(15) 0.9776(3) 0.71271(11)
C79_4 C 0.66863(17) 0.8559(4) 0.75416(13)
C82_4 C 0.67120(19) 0.7517(4) 0.76979(14)
H40_4 H 0.5665 0.9782 0.4305
C91_4 C 0.6402(3) 0.5859(4) 0.76098(19)
H46_4 H 0.6188 0.5342 0.7454
N40_4 N 0.69597(16) 0.9386(3) 0.77320(12)
N42_4 N 0.7069(2) 0.6310(4) 0.82191(15)
C95_4 C 0.7059(2) 0.7247(4) 0.80716(16)
H49_4 H 0.7294 0.7747 0.8223
C99_4 C 0.6728(3) 0.5625(5) 0.7986(2)
H53_4 H 0.6708 0.4965 0.8080
H21_3 H 0.4499 0.9651 0.2074
H48_3 H 0.5501 0.9651 0.2926
H21_4 H 0.5501 0.0349 0.7926
H48_4 H 0.4499 0.0349 0.7074
loop_
_geom_bond_atom_site_label_1
_geom_bond_atom_site_label_2
_geom_bond_site_symmetry_1
_geom_bond_site_symmetry_2
C12 H5 1_555 1_555
H7 C14 1_555 1_555
H10 C19 1_555 1_555
C12 C14 1_555 1_555
C12 C19 1_555 1_555
Cd9 N3 1_555 1_555
Cd2 N1 1_555 1_555
Cd3 N5 1_555 1_555
N1 C3 1_555 1_555
N2 C5 1_555 1_555
C1 H1 1_555 1_555
C2 C4 1_555 1_555
C3 C5 1_555 1_555
C4 H2 1_555 1_555
C5 N4 1_555 1_555
N4 Cd2 1_555 1_555
N5 C1 1_555 1_555
C6 N2 1_555 1_555
C7 C10 1_555 1_555
C9 N1 1_555 1_555
H4 C9 1_555 1_555
N6 Cd9 1_555 1_555
C11 C4 1_555 1_555
C15 N3 1_555 1_555
C16 C18 1_555 1_555
C17 C3 1_555 1_555
H8 C17 1_555 1_555
C18 C7 1_555 1_555
H9 C18 1_555 1_555
O1 Cd2 1_555 1_555
O2 Cd3 1_555 1_555
C20 C7 1_555 1_555
O3 Cd9 1_555 1_555
C23 C11 1_555 1_555
H11 C25 1_555 1_555
C26 C2 1_555 1_555
O4 C23 1_555 1_555
N13 N15 1_555 1_555
O6 Cd3 1_555 1_555
N14 Cd2 1_555 1_555
N15 Cd2 1_555 1_555
N17 C33 1_555 1_555
C30 N13 1_555 1_555
O8 C23 1_555 1_555
C31 N14 1_555 1_555
C33 C30 1_555 1_555
C34 N15 1_555 1_555
C39 N14 1_555 1_555
H17 C39 1_555 1_555
C42 N17 1_555 1_555
H19 C42 1_555 1_555
O10 C26 1_555 1_555
N19 C30 1_555 1_555
N20 C47 1_555 1_555
N21 C46 1_555 1_555
C46 C33 1_555 1_555
H22 C46 1_555 1_555
C47 C31 1_555 1_555
H23 C47 1_555 1_555
C49 C39 1_555 1_555
H25 C49 1_555 1_555
C50 C42 1_555 1_555
C71 N29 1_555 1_555
O17 C90 1_555 1_555
N37 C85 1_555 1_555
O19 C90 1_555 1_555
C85 C71 1_555 1_555
C86 N29 1_555 1_555
H42 C86 1_555 1_555
C87 N37 1_555 1_555
H43 C87 1_555 1_555
Cd12 O17 1_555 1_555
Cd14 N37 1_555 1_555
Cd17 N13 1_555 1_555
Cd20 O19 1_555 1_555
O23 Cd2 1_555 1_555
N45 Cd3 1_555 1_555
C1 C9 1_555 1_555
N4 N6 1_555 1_555
N5 C17 1_555 1_555
C6 N6 1_555 1_555
C6 C15 1_555 1_555
C15 C25 1_555 1_555
O1 C20 1_555 1_555
O2 C26 1_555 1_555
C20 O3 1_555 1_555
N17 Cd17 1_555 1_555
O8 Cd17 1_555 1_555
C31 C34 1_555 1_555
C34 N19 1_555 1_555
N20 C49 1_555 1_555
N21 C50 1_555 1_555
C86 C87 1_555 1_555
C10 H56 1_555 1_555
C27 O5 1_555 1_555
C32 C27 1_555 1_555
C35 C32 1_555 1_555
H13 C35 1_555 1_555
C40 C32 1_555 1_555
H18 C40 1_555 1_555
C45 C35 1_555 1_555
C48 C45 1_555 1_555
H24 C48 1_555 1_555
C51 C40 1_555 1_555
H27 C51 1_555 1_555
C48 C51 1_555 1_555
Cd17 N9 1_555 1_555
C8 H3 1_555 1_555
C13 C8 1_555 1_555
H6 C13 1_555 1_555
N7 C8 1_555 1_555
N12 Cd17 1_555 1_555
C28 N12 1_555 1_555
H12 C28 1_555 1_555
N31 C70 1_555 1_555
C70 N32 1_555 1_555
N39 C92 1_555 1_555
C92 C78 1_555 1_555
H47 C92 1_555 1_555
H48 C93 1_555 1_555
O27 Cd17 1_555 1_555
N31 C73 1_555 1_555
C73 C78 1_555 1_555
N39 C93 1_555 1_555
C64 H33 1_555 1_555
H35 C66 1_555 1_555
H37 C69 1_555 1_555
C64 C66 1_555 1_555
C64 C69 1_555 1_555
C10_2 C52 1_555 1_555
C22 N8 1_555 1_555
N16 C36 1_555 1_555
C36 C22 1_555 1_555
C37 N8 1_555 1_555
H15 C37 1_555 1_555
C38 N16 1_555 1_555
H16 C38 1_555 1_555
C52 C53 1_555 1_555
C53 C16_2 1_555 1_555
H28 C53 1_555 1_555
O11 C54 1_555 1_555
C54 C52 1_555 1_555
O12 C54 1_555 1_555
Cd10 O12 1_555 1_555
Cd6 O11 1_555 1_555
Cd7 N26 1_555 1_555
N22 Cd6 1_555 1_555
N23 C59 1_555 1_555
C55 H29 1_555 1_555
C56 C58 1_555 1_555
N24 Cd10 1_555 1_555
C57 N22 1_555 1_555
C58 H30 1_555 1_555
C59 C57 1_555 1_555
N25 Cd6 1_555 1_555
N26 C55 1_555 1_555
C60 N23 1_555 1_555
C62 N22 1_555 1_555
H32 C62 1_555 1_555
N27 Cd10 1_555 1_555
C63 C58 1_555 1_555
C67 N24 1_555 1_555
C68 C57 1_555 1_555
H36 C68 1_555 1_555
O13 Cd7 1_555 1_555
C72 C63 1_555 1_555
H38 C74 1_555 1_555
C75 C56 1_555 1_555
C76 O15 1_555 1_555
O14 C72 1_555 1_555
O15 Cd7 1_555 1_555
N34 N36 1_555 1_555
O16 Cd7 1_555 1_555
N35 Cd6 1_555 1_555
N36 Cd6 1_555 1_555
N38 C82 1_555 1_555
C79 N34 1_555 1_555
O18 C72 1_555 1_555
C80 N35 1_555 1_555
C81 C76 1_555 1_555
C82 C79 1_555 1_555
C83 N36 1_555 1_555
C84 C81 1_555 1_555
H40 C84 1_555 1_555
C88 N35 1_555 1_555
H44 C88 1_555 1_555
C89 C81 1_555 1_555
H45 C89 1_555 1_555
C91 N38 1_555 1_555
H46 C91 1_555 1_555
O20 C75 1_555 1_555
N40 C79 1_555 1_555
C94 C84 1_555 1_555
N41 C96 1_555 1_555
N42 C95 1_555 1_555
C95 C82 1_555 1_555
H49 C95 1_555 1_555
C96 C80 1_555 1_555
H50 C96 1_555 1_555
C97 C94 1_555 1_555
H51 C97 1_555 1_555
C98 C88 1_555 1_555
H52 C98 1_555 1_555
C99 C91 1_555 1_555
C100 C89 1_555 1_555
H54 C100 1_555 1_555
Cd13 N16 1_555 1_555
Cd16 O20 1_555 1_555
Cd18 N34 1_555 1_555
O24 Cd6 1_555 1_555
N46 Cd7 1_555 1_555
O30 Cd7 1_555 1_555
C37 C38 1_555 1_555
C55 C62 1_555 1_555
C59 N25 1_555 1_555
N25 N27 1_555 1_555
N26 C68 1_555 1_555
C60 N27 1_555 1_555
C60 C67 1_555 1_555
C67 C74 1_555 1_555
O13 C75 1_555 1_555
C76 O16 1_555 1_555
N38 Cd18 1_555 1_555
O18 Cd18 1_555 1_555
C80 C83 1_555 1_555
C83 N40 1_555 1_555
N41 C98 1_555 1_555
N42 C99 1_555 1_555
C97 C100 1_555 1_555
C10_2 H56_2 1_555 1_555
O7 C41 1_555 1_555
O9 C41 1_555 1_555
Cd11 O7 1_555 1_555
Cd19 O9 1_555 1_555
N10 C21 1_555 1_555
C21 N11 1_555 1_555
N18 C43 1_555 1_555
C43 C29 1_555 1_555
H20 C43 1_555 1_555
H21 C44 1_555 1_555
Cd18 N30 1_555 1_555
C61 H31 1_555 1_555
H34 C65 1_555 1_555
N28 C61 1_555 1_555
N33 Cd18 1_555 1_555
C77 N33 1_555 1_555
H39 C77 1_555 1_555
O28 Cd18 1_555 1_555
N10 C24 1_555 1_555
C24 C29 1_555 1_555
N18 C44 1_555 1_555
C61 C65 1_555 1_555
Cd13 N5_2 1_555 1_555
C1_2 H1_2 1_555 1_555
C2_2 C4_2 1_555 1_555
C4_2 H2_2 1_555 1_555
N5_2 C1_2 1_555 1_555
H4_2 C9_2 1_555 1_555
C11_2 C4_2 1_555 1_555
C12_2 H5_2 1_555 1_555
C14_2 C11_2 1_555 1_555
H7_2 C14_2 1_555 1_555
C19_2 C2_2 1_555 1_555
H10_2 C19_2 1_555 1_555
O2_2 Cd13 1_555 1_555
C23_2 C11_2 1_555 1_555
C26_2 C2_2 1_555 1_555
O4_2 C23_2 1_555 1_555
N13_2 N15_2 1_555 1_555
N17_2 C33_2 1_555 1_555
C30_2 N13_2 1_555 1_555
O8_2 C23_2 1_555 1_555
C33_2 C30_2 1_555 1_555
C42_2 N17_2 1_555 1_555
H19_2 C42_2 1_555 1_555
O10_2 C26_2 1_555 1_555
N19_2 C30_2 1_555 1_555
N21_2 C46_2 1_555 1_555
C46_2 C33_2 1_555 1_555
H22_2 C46_2 1_555 1_555
C50_2 C42_2 1_555 1_555
H26_2 C50_2 1_555 1_555
Cd14 N26_2 1_555 1_555
C55_2 H29_2 1_555 1_555
C56_2 C58_2 1_555 1_555
C58_2 H30_2 1_555 1_555
N26_2 C55_2 1_555 1_555
H32_2 C62_2 1_555 1_555
C63_2 C58_2 1_555 1_555
C64_2 H33_2 1_555 1_555
C66_2 C63_2 1_555 1_555
H35_2 C66_2 1_555 1_555
C69_2 C56_2 1_555 1_555
H37_2 C69_2 1_555 1_555
O13_2 Cd14 1_555 1_555
C72_2 C63_2 1_555 1_555
C75_2 C56_2 1_555 1_555
O14_2 C72_2 1_555 1_555
O15_2 Cd14 1_555 1_555
N34_2 N36_2 1_555 1_555
N38_2 C82_2 1_555 1_555
C79_2 N34_2 1_555 1_555
O18_2 C72_2 1_555 1_555
C82_2 C79_2 1_555 1_555
C91_2 N38_2 1_555 1_555
H46_2 C91_2 1_555 1_555
O20_2 C75_2 1_555 1_555
N40_2 C79_2 1_555 1_555
N42_2 C95_2 1_555 1_555
C95_2 C82_2 1_555 1_555
H49_2 C95_2 1_555 1_555
C99_2 C91_2 1_555 1_555
H53_2 C99_2 1_555 1_555
Cd9_2 O4_2 1_555 1_555
Cd10_2 O14_2 1_555 1_555
Cd12_2 O17_2 1_555 1_555
Cd16_2 O20_2 1_555 1_555
Cd17_2 N13_2 1_555 1_555
Cd18_2 N34_2 1_555 1_555
O30_2 Cd14 1_555 1_555
C1_2 C9_2 1_555 1_555
C12_2 C14_2 1_555 1_555
C12_2 C19_2 1_555 1_555
O2_2 C26_2 1_555 1_555
N17_2 Cd17_2 1_555 1_555
O8_2 Cd17_2 1_555 1_555
N21_2 C50_2 1_555 1_555
C55_2 C62_2 1_555 1_555
C64_2 C66_2 1_555 1_555
C64_2 C69_2 1_555 1_555
O13_2 C75_2 1_555 1_555
N38_2 Cd18_2 1_555 1_555
O18_2 Cd18_2 1_555 1_555
N42_2 C99_2 1_555 1_555
Cd11_2 O7_2 1_555 1_555
Cd9_2 N3_2 1_555 1_555
Cd2_2 N1_2 1_555 1_555
Cd17_2 N9_2 1_555 1_555
N1_2 C3_2 1_555 1_555
N2_2 C5_2 1_555 1_555
N3_2 C13_2 1_555 1_555
C3_2 C5_2 1_555 1_555
C5_2 N4_2 1_555 1_555
N4_2 Cd2_2 1_555 1_555
C6_2 N2_2 1_555 1_555
C7_2 C10_3 1_555 1_555
C8_2 H3_2 1_555 1_555
N6_2 Cd9_2 1_555 1_555
C10_3 C52_2 1_555 1_555
C13_2 C8_2 1_555 1_555
H6_2 C13_2 1_555 1_555
N7_2 C8_2 1_555 1_555
C15_2 N3_2 1_555 1_555
C16_3 C18_2 1_555 1_555
C17_2 C3_2 1_555 1_555
H8_2 C17_2 1_555 1_555
C18_2 C7_2 1_555 1_555
H9_2 C18_2 1_555 1_555
N8_2 Cd9_2 1_555 1_555
O1_2 Cd2_2 1_555 1_555
N9_2 N11_2 1_555 1_555
N10_2 C21_2 1_555 1_555
N11_2 Cd9_2 1_555 1_555
N12_2 Cd17_2 1_555 1_555
C20_2 C7_2 1_555 1_555
O3_2 Cd9_2 1_555 1_555
C21_2 N11_2 1_555 1_555
C22_2 N8_2 1_555 1_555
C24_2 N9_2 1_555 1_555
C25_2 N7_2 1_555 1_555
H11_2 C25_2 1_555 1_555
C28_2 N12_2 1_555 1_555
H12_2 C28_2 1_555 1_555
C29_2 N12_2 1_555 1_555
N14_2 Cd2_2 1_555 1_555
N45 C36_2 1_555 1_555
C31_2 N14_2 1_555 1_555
C36_2 C22_2 1_555 1_555
H14_2 C36_2 1_555 1_555
C37_2 N8_2 1_555 1_555
H15_2 C37_2 1_555 1_555
C38_2 N45 1_555 1_555
H16_2 C38_2 1_555 1_555
N18_2 C43_2 1_555 1_555
C39_2 N14_2 1_555 1_555
H17_2 C39_2 1_555 1_555
C43_2 C29_2 1_555 1_555
H20_2 C43_2 1_555 1_555
C44_2 C28_2 1_555 1_555
N20_2 C47_2 1_555 1_555
C47_2 C31_2 1_555 1_555
H23_2 C47_2 1_555 1_555
C49_2 C39_2 1_555 1_555
H25_2 C49_2 1_555 1_555
C52_2 C53_2 1_555 1_555
C53_2 C16_3 1_555 1_555
H28_2 C53_2 1_555 1_555
O11_2 C54_2 1_555 1_555
C54_2 C52_2 1_555 1_555
O12_2 C54_2 1_555 1_555
Cd10_2 O12_2 1_555 1_555
Cd6_2 O11_2 1_555 1_555
Cd18_2 N30_2 1_555 1_555
N22_2 Cd6_2 1_555 1_555
N23_2 C59_2 1_555 1_555
N24_2 Cd10_2 1_555 1_555
C57_2 N22_2 1_555 1_555
C59_2 C57_2 1_555 1_555
N25_2 Cd6_2 1_555 1_555
C60_2 N23_2 1_555 1_555
C61_2 H31_2 1_555 1_555
N27_2 Cd10_2 1_555 1_555
C65_2 N24_2 1_555 1_555
H34_2 C65_2 1_555 1_555
N28_2 C61_2 1_555 1_555
C67_2 N24_2 1_555 1_555
C68_2 C57_2 1_555 1_555
H36_2 C68_2 1_555 1_555
N29_2 Cd10_2 1_555 1_555
N30_2 N32_2 1_555 1_555
N31_2 C70_2 1_555 1_555
N32_2 Cd10_2 1_555 1_555
N33_2 Cd18_2 1_555 1_555
C70_2 N32_2 1_555 1_555
C71_2 N29_2 1_555 1_555
C73_2 N30_2 1_555 1_555
C74_2 N28_2 1_555 1_555
H38_2 C74_2 1_555 1_555
C77_2 N33_2 1_555 1_555
H39_2 C77_2 1_555 1_555
C78_2 N33_2 1_555 1_555
N35_2 Cd6_2 1_555 1_555
N46 C85_2 1_555 1_555
O19_2 C90_2 1_555 1_555
C80_2 N35_2 1_555 1_555
C81_2 C76_2 1_555 1_555
C84_2 C81_2 1_555 1_555
C85_2 C71_2 1_555 1_555
H41_2 C85_2 1_555 1_555
C86_2 N29_2 1_555 1_555
H42_2 C86_2 1_555 1_555
C87_2 N46 1_555 1_555
H43_2 C87_2 1_555 1_555
N39_2 C92_2 1_555 1_555
C88_2 N35_2 1_555 1_555
H44_2 C88_2 1_555 1_555
C89_2 C81_2 1_555 1_555
H45_2 C89_2 1_555 1_555
C90_2 C94_2 1_555 1_555
C92_2 C78_2 1_555 1_555
H47_2 C92_2 1_555 1_555
C93_2 C77_2 1_555 1_555
C94_2 C84_2 1_555 1_555
N41_2 C96_2 1_555 1_555
C96_2 C80_2 1_555 1_555
H50_2 C96_2 1_555 1_555
C97_2 C94_2 1_555 1_555
H51_2 C97_2 1_555 1_555
C98_2 C88_2 1_555 1_555
H52_2 C98_2 1_555 1_555
C100_2 C89_2 1_555 1_555
H54_2 C100_2 1_555 1_555
Cd20_2 O19_2 1_555 1_555
O23_2 Cd2_2 1_555 1_555
O24_2 Cd6_2 1_555 1_555
O27_2 Cd17_2 1_555 1_555
O28_2 Cd18_2 1_555 1_555
N4_2 N6_2 1_555 1_555
C6_2 N6_2 1_555 1_555
C6_2 C15_2 1_555 1_555
C15_2 C25_2 1_555 1_555
O1_2 C20_2 1_555 1_555
N10_2 C24_2 1_555 1_555
C20_2 O3_2 1_555 1_555
C21_2 C22_2 1_555 1_555
C24_2 C29_2 1_555 1_555
C31_2 C34_2 1_555 1_555
C37_2 C38_2 1_555 1_555
N18_2 C44_2 1_555 1_555
N20_2 C49_2 1_555 1_555
C59_2 N25_2 1_555 1_555
N25_2 N27_2 1_555 1_555
C60_2 N27_2 1_555 1_555
C60_2 C67_2 1_555 1_555
C61_2 C65_2 1_555 1_555
C67_2 C74_2 1_555 1_555
N31_2 C73_2 1_555 1_555
C70_2 C71_2 1_555 1_555
C73_2 C78_2 1_555 1_555
C76_2 O16_2 1_555 1_555
C80_2 C83_2 1_555 1_555
C86_2 C87_2 1_555 1_555
N39_2 C93_2 1_555 1_555
N41_2 C98_2 1_555 1_555
C97_2 C100_2 1_555 1_555
C16_3 H55_3 1_555 1_555
C10_3 H56_3 1_555 1_555
O9_2 C41_2 1_555 1_555
C32_2 C27_2 1_555 1_555
C35_2 C32_2 1_555 1_555
C40_2 C32_2 1_555 1_555
H18_2 C40_2 1_555 1_555
C41_2 C45_2 1_555 1_555
C45_2 C35_2 1_555 1_555
C48_2 C45_2 1_555 1_555
H24_2 C48_2 1_555 1_555
C51_2 C40_2 1_555 1_555
H27_2 C51_2 1_555 1_555
Cd19_2 O9_2 1_555 1_555
C48_2 C51_2 1_555 1_555
N10_3 C21_3 1_555 1_555
C21_3 N11_3 1_555 1_555
N18_3 C43_3 1_555 1_555
C43_3 C29_3 1_555 1_555
H20_3 C43_3 1_555 1_555
H21_2 C44_3 1_555 1_555
Cd20 N30_3 1_555 1_555
C61_3 H31_3 1_555 1_555
H34_3 C65_3 1_555 1_555
N28_3 C61_3 1_555 1_555
N33_3 Cd20 1_555 1_555
C77_3 N33_3 1_555 1_555
H39_3 C77_3 1_555 1_555
N44 Cd20 1_555 1_555
N48 Cd20 1_555 1_555
O26 Cd20 1_555 1_555
N10_3 C24_3 1_555 1_555
C24_3 C29_3 1_555 1_555
N18_3 C44_3 1_555 1_555
C61_3 C65_3 1_555 1_555
O23 C41_3 1_555 1_555
O27 C41_3 1_555 1_555
C10_4 C52_3 1_555 1_555
C22_3 N8_3 1_555 1_555
N16_2 C36_3 1_555 1_555
C36_3 C22_3 1_555 1_555
C37_3 N8_3 1_555 1_555
H15_3 C37_3 1_555 1_555
C38_3 N16_2 1_555 1_555
H16_3 C38_3 1_555 1_555
C52_3 C53_3 1_555 1_555
C53_3 C16_4 1_555 1_555
H28_3 C53_3 1_555 1_555
O11_3 C54_3 1_555 1_555
C54_3 C52_3 1_555 1_555
O12_3 C54_3 1_555 1_555
Cd5 O12_3 1_555 1_555
Cd12 O11_3 1_555 1_555
Cd16_2 N26_3 1_555 1_555
N22_3 Cd12 1_555 1_555
N23_3 C59_3 1_555 1_555
C55_3 H29_3 1_555 1_555
C56_3 C58_3 1_555 1_555
N24_3 Cd5 1_555 1_555
C57_3 N22_3 1_555 1_555
C58_3 H30_3 1_555 1_555
C59_3 C57_3 1_555 1_555
N25_3 Cd12 1_555 1_555
N26_3 C55_3 1_555 1_555
C60_3 N23_3 1_555 1_555
C62_3 N22_3 1_555 1_555
H32_3 C62_3 1_555 1_555
N27_3 Cd5 1_555 1_555
C63_3 C58_3 1_555 1_555
C67_3 N24_3 1_555 1_555
C68_3 C57_3 1_555 1_555
H36_3 C68_3 1_555 1_555
O13_3 Cd16_2 1_555 1_555
C72_3 C63_3 1_555 1_555
H38_3 C74_3 1_555 1_555
C75_3 C56_3 1_555 1_555
C76_3 O15_3 1_555 1_555
O22 C72_3 1_555 1_555
O15_3 Cd16_2 1_555 1_555
N44 N36_3 1_555 1_555
O16_3 Cd16_2 1_555 1_555
N35_3 Cd12 1_555 1_555
N36_3 Cd12 1_555 1_555
N48 C82_3 1_555 1_555
C79_3 N44 1_555 1_555
O26 C72_3 1_555 1_555
C80_3 N35_3 1_555 1_555
C81_3 C76_3 1_555 1_555
C82_3 C79_3 1_555 1_555
C83_3 N36_3 1_555 1_555
C84_3 C81_3 1_555 1_555
H40_3 C84_3 1_555 1_555
C88_3 N35_3 1_555 1_555
H44_3 C88_3 1_555 1_555
C89_3 C81_3 1_555 1_555
H45_3 C89_3 1_555 1_555
C91_3 N48 1_555 1_555
H46_3 C91_3 1_555 1_555
O30_2 C75_3 1_555 1_555
N40_3 C79_3 1_555 1_555
C94_3 C84_3 1_555 1_555
N41_3 C96_3 1_555 1_555
N42_3 C95_3 1_555 1_555
C95_3 C82_3 1_555 1_555
H49_3 C95_3 1_555 1_555
C96_3 C80_3 1_555 1_555
H50_3 C96_3 1_555 1_555
C97_3 C94_3 1_555 1_555
H51_3 C97_3 1_555 1_555
C98_3 C88_3 1_555 1_555
H52_3 C98_3 1_555 1_555
C99_3 C91_3 1_555 1_555
C100_3 C89_3 1_555 1_555
H54_3 C100_3 1_555 1_555
Cd15 N16_2 1_555 1_555
N46_2 Cd16_2 1_555 1_555
C37_3 C38_3 1_555 1_555
C55_3 C62_3 1_555 1_555
C59_3 N25_3 1_555 1_555
N25_3 N27_3 1_555 1_555
N26_3 C68_3 1_555 1_555
C60_3 N27_3 1_555 1_555
C60_3 C67_3 1_555 1_555
C67_3 C74_3 1_555 1_555
O13_3 C75_3 1_555 1_555
C76_3 O16_3 1_555 1_555
C80_3 C83_3 1_555 1_555
C83_3 N40_3 1_555 1_555
N41_3 C98_3 1_555 1_555
N42_3 C99_3 1_555 1_555
C97_3 C100_3 1_555 1_555
C10_4 H56_4 1_555 1_555
C64_3 H33_3 1_555 1_555
H35_3 C66_3 1_555 1_555
H37_3 C69_3 1_555 1_555
C64_3 C66_3 1_555 1_555
C64_3 C69_3 1_555 1_555
Cd19 N9_3 1_555 1_555
C8_3 H3_3 1_555 1_555
C13_3 C8_3 1_555 1_555
H6_3 C13_3 1_555 1_555
N7_3 C8_3 1_555 1_555
N12_3 Cd19 1_555 1_555
C28_3 N12_3 1_555 1_555
H12_3 C28_3 1_555 1_555
N31_3 C70_3 1_555 1_555
C70_3 N32_3 1_555 1_555
N39_3 C92_3 1_555 1_555
C92_3 C78_3 1_555 1_555
H47_3 C92_3 1_555 1_555
H48_2 C93_3 1_555 1_555
N43 Cd19 1_555 1_555
N47 Cd19 1_555 1_555
O25 Cd19 1_555 1_555
N31_3 C73_3 1_555 1_555
C73_3 C78_3 1_555 1_555
N39_3 C93_3 1_555 1_555
C27_3 O5_3 1_555 1_555
C32_3 C27_3 1_555 1_555
C35_3 C32_3 1_555 1_555
H13_3 C35_3 1_555 1_555
C40_3 C32_3 1_555 1_555
H18_3 C40_3 1_555 1_555
C45_3 C35_3 1_555 1_555
C48_3 C45_3 1_555 1_555
H24_3 C48_3 1_555 1_555
C51_3 C40_3 1_555 1_555
H27_3 C51_3 1_555 1_555
C48_3 C51_3 1_555 1_555
Cd1 N3_3 1_555 1_555
Cd11 N1_3 1_555 1_555
Cd15_2 N5_3 1_555 1_555
N1_3 C3_3 1_555 1_555
N2_3 C5_3 1_555 1_555
C1_3 H1_3 1_555 1_555
C2_3 C4_3 1_555 1_555
C3_3 C5_3 1_555 1_555
C4_3 H2_3 1_555 1_555
C5_3 N4_3 1_555 1_555
N4_3 Cd11 1_555 1_555
N5_3 C1_3 1_555 1_555
C6_3 N2_3 1_555 1_555
C7_3 C10_5 1_555 1_555
C9_3 N1_3 1_555 1_555
H4_3 C9_3 1_555 1_555
N6_3 Cd1 1_555 1_555
C11_3 C4_3 1_555 1_555
C15_3 N3_3 1_555 1_555
C16_5 C18_3 1_555 1_555
C17_3 C3_3 1_555 1_555
H8_3 C17_3 1_555 1_555
C18_3 C7_3 1_555 1_555
H9_3 C18_3 1_555 1_555
O1_3 Cd11 1_555 1_555
O2_3 Cd15_2 1_555 1_555
C20_3 C7_3 1_555 1_555
O3_3 Cd1 1_555 1_555
C23_3 C11_3 1_555 1_555
H11_3 C25_3 1_555 1_555
C26_3 C2_3 1_555 1_555
O21 C23_3 1_555 1_555
N43 N15_3 1_555 1_555
O6_3 Cd15_2 1_555 1_555
N14_3 Cd11 1_555 1_555
N15_3 Cd11 1_555 1_555
N47 C33_3 1_555 1_555
C30_3 N43 1_555 1_555
O25 C23_3 1_555 1_555
C31_3 N14_3 1_555 1_555
C33_3 C30_3 1_555 1_555
C34_3 N15_3 1_555 1_555
C39_3 N14_3 1_555 1_555
H17_3 C39_3 1_555 1_555
C42_3 N47 1_555 1_555
H19_3 C42_3 1_555 1_555
O29_2 C26_3 1_555 1_555
N19_3 C30_3 1_555 1_555
N20_3 C47_3 1_555 1_555
N21_3 C46_3 1_555 1_555
C46_3 C33_3 1_555 1_555
H22_3 C46_3 1_555 1_555
C47_3 C31_3 1_555 1_555
H23_3 C47_3 1_555 1_555
C49_3 C39_3 1_555 1_555
H25_3 C49_3 1_555 1_555
C50_3 C42_3 1_555 1_555
C71_3 N29_3 1_555 1_555
O24 C90_3 1_555 1_555
N37_2 C85_3 1_555 1_555
O28 C90_3 1_555 1_555
C85_3 C71_3 1_555 1_555
C86_3 N29_3 1_555 1_555
H42_3 C86_3 1_555 1_555
C87_3 N37_2 1_555 1_555
H43_3 C87_3 1_555 1_555
Cd16 N37_2 1_555 1_555
N45_2 Cd15_2 1_555 1_555
C1_3 C9_3 1_555 1_555
N4_3 N6_3 1_555 1_555
N5_3 C17_3 1_555 1_555
C6_3 N6_3 1_555 1_555
C6_3 C15_3 1_555 1_555
C15_3 C25_3 1_555 1_555
O1_3 C20_3 1_555 1_555
O2_3 C26_3 1_555 1_555
C20_3 O3_3 1_555 1_555
C31_3 C34_3 1_555 1_555
C34_3 N19_3 1_555 1_555
N20_3 C49_3 1_555 1_555
N21_3 C50_3 1_555 1_555
C86_3 C87_3 1_555 1_555
C10_5 H56_5 1_555 1_555
C12_3 H5_3 1_555 1_555
H7_3 C14_3 1_555 1_555
H10_3 C19_3 1_555 1_555
C12_3 C14_3 1_555 1_555
C12_3 C19_3 1_555 1_555
O27_2 C41_4 1_555 1_555
C32_4 C27_4 1_555 1_555
C35_4 C32_4 1_555 1_555
C40_4 C32_4 1_555 1_555
H18_4 C40_4 1_555 1_555
C41_4 C45_4 1_555 1_555
C45_4 C35_4 1_555 1_555
C48_4 C45_4 1_555 1_555
H24_4 C48_4 1_555 1_555
C51_4 C40_4 1_555 1_555
H27_4 C51_4 1_555 1_555
C48_4 C51_4 1_555 1_555
Cd1_2 N3_4 1_555 1_555
Cd11_2 N1_4 1_555 1_555
Cd19_2 N9_4 1_555 1_555
N1_4 C3_4 1_555 1_555
N2_4 C5_4 1_555 1_555
N3_4 C13_4 1_555 1_555
C3_4 C5_4 1_555 1_555
C5_4 N4_4 1_555 1_555
N4_4 Cd11_2 1_555 1_555
C6_4 N2_4 1_555 1_555
C7_4 C10_6 1_555 1_555
C8_4 H3_4 1_555 1_555
N6_4 Cd1_2 1_555 1_555
C10_6 C52_4 1_555 1_555
C13_4 C8_4 1_555 1_555
H6_4 C13_4 1_555 1_555
N7_4 C8_4 1_555 1_555
C15_4 N3_4 1_555 1_555
C16_6 C18_4 1_555 1_555
C17_4 C3_4 1_555 1_555
H8_4 C17_4 1_555 1_555
C18_4 C7_4 1_555 1_555
H9_4 C18_4 1_555 1_555
N8_4 Cd1_2 1_555 1_555
O1_4 Cd11_2 1_555 1_555
N9_4 N11_4 1_555 1_555
N10_4 C21_4 1_555 1_555
N11_4 Cd1_2 1_555 1_555
N12_4 Cd19_2 1_555 1_555
C20_4 C7_4 1_555 1_555
O3_4 Cd1_2 1_555 1_555
C21_4 N11_4 1_555 1_555
C22_4 N8_4 1_555 1_555
C24_4 N9_4 1_555 1_555
C25_4 N7_4 1_555 1_555
H11_4 C25_4 1_555 1_555
C28_4 N12_4 1_555 1_555
H12_4 C28_4 1_555 1_555
C29_4 N12_4 1_555 1_555
N14_4 Cd11_2 1_555 1_555
N45_2 C36_4 1_555 1_555
C31_4 N14_4 1_555 1_555
C36_4 C22_4 1_555 1_555
H14_4 C36_4 1_555 1_555
C37_4 N8_4 1_555 1_555
H15_4 C37_4 1_555 1_555
C38_4 N45_2 1_555 1_555
H16_4 C38_4 1_555 1_555
N18_4 C43_4 1_555 1_555
C39_4 N14_4 1_555 1_555
H17_4 C39_4 1_555 1_555
C43_4 C29_4 1_555 1_555
H20_4 C43_4 1_555 1_555
C44_4 C28_4 1_555 1_555
N20_4 C47_4 1_555 1_555
C47_4 C31_4 1_555 1_555
H23_4 C47_4 1_555 1_555
C49_4 C39_4 1_555 1_555
H25_4 C49_4 1_555 1_555
C52_4 C53_4 1_555 1_555
C53_4 C16_6 1_555 1_555
H28_4 C53_4 1_555 1_555
O11_4 C54_4 1_555 1_555
C54_4 C52_4 1_555 1_555
O12_4 C54_4 1_555 1_555
Cd5_2 O12_4 1_555 1_555
Cd12_2 O11_4 1_555 1_555
Cd20_2 N30_4 1_555 1_555
N22_4 Cd12_2 1_555 1_555
N23_4 C59_4 1_555 1_555
N24_4 Cd5_2 1_555 1_555
C57_4 N22_4 1_555 1_555
C59_4 C57_4 1_555 1_555
N25_4 Cd12_2 1_555 1_555
C60_4 N23_4 1_555 1_555
C61_4 H31_4 1_555 1_555
N27_4 Cd5_2 1_555 1_555
C65_4 N24_4 1_555 1_555
H34_4 C65_4 1_555 1_555
N28_4 C61_4 1_555 1_555
C67_4 N24_4 1_555 1_555
C68_4 C57_4 1_555 1_555
H36_4 C68_4 1_555 1_555
N29_4 Cd5_2 1_555 1_555
N30_4 N32_4 1_555 1_555
N31_4 C70_4 1_555 1_555
N32_4 Cd5_2 1_555 1_555
N33_4 Cd20_2 1_555 1_555
C70_4 N32_4 1_555 1_555
C71_4 N29_4 1_555 1_555
C73_4 N30_4 1_555 1_555
C74_4 N28_4 1_555 1_555
H38_4 C74_4 1_555 1_555
C77_4 N33_4 1_555 1_555
H39_4 C77_4 1_555 1_555
C78_4 N33_4 1_555 1_555
N35_4 Cd12_2 1_555 1_555
N46_2 C85_4 1_555 1_555
O28_2 C90_4 1_555 1_555
C80_4 N35_4 1_555 1_555
C81_4 C76_4 1_555 1_555
C84_4 C81_4 1_555 1_555
C85_4 C71_4 1_555 1_555
H41_4 C85_4 1_555 1_555
C86_4 N29_4 1_555 1_555
H42_4 C86_4 1_555 1_555
C87_4 N46_2 1_555 1_555
H43_4 C87_4 1_555 1_555
N39_4 C92_4 1_555 1_555
C88_4 N35_4 1_555 1_555
H44_4 C88_4 1_555 1_555
C89_4 C81_4 1_555 1_555
H45_4 C89_4 1_555 1_555
C90_4 C94_4 1_555 1_555
C92_4 C78_4 1_555 1_555
H47_4 C92_4 1_555 1_555
C93_4 C77_4 1_555 1_555
C94_4 C84_4 1_555 1_555
N41_4 C96_4 1_555 1_555
C96_4 C80_4 1_555 1_555
H50_4 C96_4 1_555 1_555
C97_4 C94_4 1_555 1_555
H51_4 C97_4 1_555 1_555
C98_4 C88_4 1_555 1_555
H52_4 C98_4 1_555 1_555
C100_4 C89_4 1_555 1_555
H54_4 C100_4 1_555 1_555
O21_2 Cd1_2 1_555 1_555
O22_2 Cd5_2 1_555 1_555
N43_2 Cd19_2 1_555 1_555
N44_2 Cd20_2 1_555 1_555
N47_2 Cd19_2 1_555 1_555
N48_2 Cd20_2 1_555 1_555
O25_2 Cd19_2 1_555 1_555
O26_2 Cd20_2 1_555 1_555
N4_4 N6_4 1_555 1_555
C6_4 N6_4 1_555 1_555
C6_4 C15_4 1_555 1_555
C15_4 C25_4 1_555 1_555
O1_4 C20_4 1_555 1_555
N10_4 C24_4 1_555 1_555
C20_4 O3_4 1_555 1_555
C21_4 C22_4 1_555 1_555
C24_4 C29_4 1_555 1_555
C31_4 C34_4 1_555 1_555
C37_4 C38_4 1_555 1_555
N18_4 C44_4 1_555 1_555
N20_4 C49_4 1_555 1_555
C59_4 N25_4 1_555 1_555
N25_4 N27_4 1_555 1_555
C60_4 N27_4 1_555 1_555
C60_4 C67_4 1_555 1_555
C61_4 C65_4 1_555 1_555
C67_4 C74_4 1_555 1_555
N31_4 C73_4 1_555 1_555
C70_4 C71_4 1_555 1_555
C73_4 C78_4 1_555 1_555
C76_4 O16_4 1_555 1_555
C80_4 C83_4 1_555 1_555
C86_4 C87_4 1_555 1_555
N39_4 C93_4 1_555 1_555
N41_4 C98_4 1_555 1_555
C97_4 C100_4 1_555 1_555
C16_6 H55_6 1_555 1_555
C10_6 H56_6 1_555 1_555
Cd15 N5_4 1_555 1_555
C1_4 H1_4 1_555 1_555
C2_4 C4_4 1_555 1_555
C4_4 H2_4 1_555 1_555
N5_4 C1_4 1_555 1_555
H4_4 C9_4 1_555 1_555
C11_4 C4_4 1_555 1_555
C12_4 H5_4 1_555 1_555
C14_4 C11_4 1_555 1_555
H7_4 C14_4 1_555 1_555
C19_4 C2_4 1_555 1_555
H10_4 C19_4 1_555 1_555
O2_4 Cd15 1_555 1_555
C23_4 C11_4 1_555 1_555
C26_4 C2_4 1_555 1_555
O21_2 C23_4 1_555 1_555
N43_2 N15_4 1_555 1_555
N47_2 C33_4 1_555 1_555
C30_4 N43_2 1_555 1_555
O25_2 C23_4 1_555 1_555
C33_4 C30_4 1_555 1_555
C42_4 N47_2 1_555 1_555
H19_4 C42_4 1_555 1_555
O29 C26_4 1_555 1_555
N19_4 C30_4 1_555 1_555
N21_4 C46_4 1_555 1_555
C46_4 C33_4 1_555 1_555
H22_4 C46_4 1_555 1_555
C50_4 C42_4 1_555 1_555
H26_4 C50_4 1_555 1_555
Cd16 N26_4 1_555 1_555
C55_4 H29_4 1_555 1_555
C56_4 C58_4 1_555 1_555
C58_4 H30_4 1_555 1_555
N26_4 C55_4 1_555 1_555
H32_4 C62_4 1_555 1_555
C63_4 C58_4 1_555 1_555
C64_4 H33_4 1_555 1_555
C66_4 C63_4 1_555 1_555
H35_4 C66_4 1_555 1_555
C69_4 C56_4 1_555 1_555
H37_4 C69_4 1_555 1_555
O13_4 Cd16 1_555 1_555
C72_4 C63_4 1_555 1_555
C75_4 C56_4 1_555 1_555
O22_2 C72_4 1_555 1_555
O15_4 Cd16 1_555 1_555
N44_2 N36_4 1_555 1_555
N48_2 C82_4 1_555 1_555
C79_4 N44_2 1_555 1_555
O26_2 C72_4 1_555 1_555
C82_4 C79_4 1_555 1_555
C91_4 N48_2 1_555 1_555
H46_4 C91_4 1_555 1_555
O30 C75_4 1_555 1_555
N40_4 C79_4 1_555 1_555
N42_4 C95_4 1_555 1_555
C95_4 C82_4 1_555 1_555
H49_4 C95_4 1_555 1_555
C99_4 C91_4 1_555 1_555
H53_4 C99_4 1_555 1_555
C1_4 C9_4 1_555 1_555
C12_4 C14_4 1_555 1_555
C12_4 C19_4 1_555 1_555
O2_4 C26_4 1_555 1_555
N21_4 C50_4 1_555 1_555
C55_4 C62_4 1_555 1_555
C64_4 C66_4 1_555 1_555
C64_4 C69_4 1_555 1_555
O13_4 C75_4 1_555 1_555
N42_4 C99_4 1_555 1_555

#END
