
###############################################################################
#
# This file contains modified crystal structure data generated from the
# MOF subset of the Cambridge Structural Database (CSD) v543 
# hosted by the Cambridge Crystallographic Data Centre (CCDC).
#
# This work is licensed under the Creative Commons
# Attribution-NonCommercial-ShareAlike 4.0 International License.
# To view a copy of this license, visit
# http://creativecommons.org/licenses/by-nc-sa/4.0/
# or send a letter to
# Creative Commons, PO Box 1866, Mountain View, CA 94042, USA.
#
# CIF created using the CSD Python API on 29 September 2022
# The structure has been converted into the P1 space group
# The structure has a 3D framework
# The original CSD entry FOPPEI is in the orthorhombic crystal system
# The framework has been calculated to contain at least 10.0% void space
# The void calculation uses a probe of radius 1.32A, grid spacing 0.4
# H atom positions have been added when not included in the experimental data
#
###############################################################################

data_FOPPEI
_chemical_formula_moiety         '(C352 H192 N64 O64 S32 Zn16)n'
_symmetry_cell_setting           triclinic
_symmetry_space_group_name_H-M   'P 1'
_symmetry_Int_Tables_number      1
_space_group_name_Hall           'P 1'
loop_
_symmetry_equiv_pos_site_id
_symmetry_equiv_pos_as_xyz
1 x,y,z
_cell_length_a                   34.566(2)
_cell_length_b                   17.1421(8)
_cell_length_c                   17.1901(10)
_cell_angle_alpha                90
_cell_angle_beta                 90
_cell_angle_gamma                90
_cell_volume                     10185.7
loop_
_atom_site_label
_atom_site_type_symbol
_atom_site_fract_x
_atom_site_fract_y
_atom_site_fract_z
S1 S 0.56215(10) 0.04308(15) 0.5236(2)
N5 N 0.6133(3) 0.0325(4) 0.6340(5)
C27 C 0.5818(4) 0.1264(5) 0.5607(6)
C28 C 0.6071(3) 0.1088(5) 0.6179(6)
N6 N 0.5757(3) 0.2039(4) 0.5448(5)
S2 S 0.62673(9) 0.19315(14) 0.65611(18)
C31 C 0.5979(3) 0.2450(5) 0.5907(8)
C32 C 0.5995(3) 0.3305(5) 0.5874(7)
C35 C 0.6238(3) 0.3727(5) 0.6362(6)
C36 C 0.5759(3) 0.3698(5) 0.5391(7)
C37 C 0.6224(3) 0.4538(5) 0.6320(6)
C38 C 0.5766(4) 0.4506(6) 0.5384(7)
N9 N 0.5993(2) 0.4927(4) 0.5834(6)
Zn5 Zn 0.59615(3) 0.61664(6) 0.58690(7)
H2 H 0.641163 0.487243 0.67044
H17 H 0.643299 0.343306 0.676409
H19 H 0.556326 0.338246 0.500708
H23 H 0.55733 0.480966 0.498464
O1 O 0.65270(19) 0.6211(3) 0.6176(4)
O2 O 0.5769(2) 0.6130(4) 0.4760(4)
N1 N 0.5932(2) 0.7434(4) 0.5908(7)
O3 O 0.5816(3) 0.6111(4) 0.7215(5)
O4 O 0.5398(2) 0.6159(4) 0.6283(5)
C1 C 0.6791(3) 0.6627(5) 0.5890(7)
C2 C 0.5787(3) 0.6463(5) 0.4109(7)
C3 C 0.6152(3) 0.7857(5) 0.6388(7)
C4 C 0.5695(3) 0.7820(6) 0.5445(6)
O5 O 0.6817(2) 0.6862(4) 0.5211(4)
C5 C 0.7098(3) 0.6906(5) 0.6424(6)
O6 O 0.6067(2) 0.6853(4) 0.3857(4)
C6 C 0.5457(3) 0.6371(5) 0.3587(6)
C7 C 0.6149(3) 0.8665(5) 0.6395(7)
C8 C 0.5676(3) 0.8616(5) 0.5408(6)
Zn2 Zn 0.66280(3) 0.68371(6) 0.41134(7)
C9 C 0.7412(3) 0.7286(5) 0.6146(6)
C10 C 0.7051(3) 0.6848(5) 0.7223(6)
C11 C 0.5102(3) 0.6092(6) 0.3842(7)
C12 C 0.5506(4) 0.6549(7) 0.2803(7)
C13 C 0.5915(3) 0.9063(5) 0.5905(8)
N3 N 0.6646(2) 0.5590(4) 0.4092(6)
O7 O 0.7186(2) 0.7031(4) 0.3705(4)
O8 O 0.6755(2) 0.6915(4) 0.2769(5)
N4 N 0.6591(3) 0.8109(4) 0.4175(7)
C14 C 0.7684(3) 0.7603(5) 0.6646(6)
C15 C 0.7317(3) 0.7174(6) 0.7726(6)
C16 C 0.4793(3) 0.6028(6) 0.3319(7)
C17 C 0.5197(4) 0.6458(7) 0.2277(7)
C18 C 0.5915(3) 0.9905(5) 0.5880(8)
C19 C 0.6858(3) 0.5175(5) 0.4576(6)
C20 C 0.6416(3) 0.5191(5) 0.3604(6)
C21 C 0.7632(3) 0.7567(5) 0.7435(6)
C22 C 0.4840(3) 0.6192(6) 0.2541(6)
C23 C 0.6850(3) 0.4377(5) 0.4629(6)
C24 C 0.6378(3) 0.4398(5) 0.3591(6)
C25 C 0.7915(4) 0.7909(6) 0.8003(7)
C26 C 0.4525(4) 0.6141(6) 0.2000(7)
C29 C 0.6604(3) 0.3977(5) 0.4134(7)
C30 C 0.6582(3) 0.3117(5) 0.4156(8)
S3 S 0.62509(9) 0.26103(14) 0.3589(2)
N7 N 0.6812(3) 0.2708(4) 0.4609(5)
C33 C 0.6438(3) 0.1760(5) 0.3951(7)
C34 C 0.6730(4) 0.1938(5) 0.4478(7)
N8 N 0.6356(3) 0.1008(4) 0.3815(5)
S4 S 0.69265(9) 0.10919(14) 0.48317(18)
C39 C 0.6598(3) 0.0587(5) 0.4249(6)
O9 O 0.7814(2) 0.7969(4) 0.8705(4)
O10 O 0.8245(2) 0.8085(4) 0.7769(5)
O11 O 0.4184(3) 0.6111(4) 0.2215(5)
O12 O 0.4602(2) 0.6159(4) 0.1283(5)
Zn3 Zn 0.83720(3) 0.81629(6) 0.91134(7)
Zn4 Zn 0.40385(3) 0.61664(6) 0.08690(7)
H1 H 0.634221 0.755293 0.679185
H3 H 0.550313 0.748454 0.507007
H4 H 0.794125 0.788309 0.640993
H5 H 0.727739 0.711996 0.835216
H6 H 0.578472 0.675969 0.259547
H7 H 0.547982 0.890123 0.500202
H8 H 0.745141 0.73434 0.552008
H9 H 0.506383 0.592313 0.444787
H10 H 0.624677 0.552545 0.318652
H11 H 0.633571 0.898087 0.679645
H12 H 0.451044 0.584517 0.353175
H13 H 0.523737 0.659571 0.166391
H14 H 0.680086 0.654111 0.745682
H15 H 0.618439 0.410576 0.3185
H16 H 0.703099 0.40683 0.504627
H18 H 0.705372 0.548825 0.496183
C40 C 0.6602(3) 0.9727(5) 0.4234(7)
C41 C 0.6870(3) 0.9304(6) 0.4639(6)
C42 C 0.6323(3) 0.9322(5) 0.3807(6)
C43 C 0.6854(3) 0.8499(6) 0.4596(6)
C44 C 0.6327(3) 0.8534(6) 0.3799(7)
H20 H 0.709064 0.959371 0.498689
H21 H 0.610328 0.963995 0.348205
H22 H 0.706676 0.816347 0.49221
H24 H 0.610386 0.823068 0.346959
N2 N 0.0993(2) 0.0073(4) 0.5834(6)
C23_2 C 0.1850(3) 0.0623(5) 0.4629(6)
C24_2 C 0.1378(3) 0.0602(5) 0.3591(6)
C29_2 C 0.1604(3) 0.1023(5) 0.4134(7)
C30_2 C 0.1582(3) 0.1883(5) 0.4156(8)
S3_2 S 0.12509(9) 0.23897(14) 0.3589(2)
N7_2 N 0.1812(3) 0.2292(4) 0.4609(5)
C33_2 C 0.1438(3) 0.3240(5) 0.3951(7)
C34_2 C 0.1730(4) 0.3062(5) 0.4478(7)
N8_2 N 0.1356(3) 0.3992(4) 0.3815(5)
S4_2 S 0.19265(9) 0.39081(14) 0.48317(18)
C39_2 C 0.1598(3) 0.4413(5) 0.4249(6)
C40_2 C 0.1602(3) 0.5273(5) 0.4234(7)
C41_2 C 0.1870(3) 0.5696(6) 0.4639(6)
C42_2 C 0.1323(3) 0.5678(5) 0.3807(6)
C43_2 C 0.1854(3) 0.6501(6) 0.4596(6)
C44_2 C 0.1327(3) 0.6466(6) 0.3799(7)
N10 N 0.1591(3) 0.6891(4) 0.4175(7)
Zn6 Zn 0.16280(3) 0.81629(6) 0.41134(7)
H15_2 H 0.118439 0.0894237 0.3185
H16_2 H 0.203099 0.0931699 0.504627
H20_2 H 0.209064 0.540629 0.498689
H21_2 H 0.110328 0.536005 0.348205
H22_2 H 0.206676 0.683653 0.49221
H24_2 H 0.110386 0.676932 0.346959
Zn1 Zn 0.09615(3) 0.88336(6) 0.58690(7)
O1_2 O 0.15270(19) 0.8789(3) 0.6176(4)
O2_2 O 0.0769(2) 0.8870(4) 0.4760(4)
N1_2 N 0.0932(2) 0.7566(4) 0.5908(7)
O3_2 O 0.0816(3) 0.8889(4) 0.7215(5)
O4_2 O 0.0398(2) 0.8841(4) 0.6283(5)
C1_2 C 0.1791(3) 0.8373(5) 0.5890(7)
C2_2 C 0.0787(3) 0.8537(5) 0.4109(7)
C3_2 C 0.1152(3) 0.7143(5) 0.6388(7)
C4_2 C 0.0695(3) 0.7180(6) 0.5445(6)
O5_2 O 0.1817(2) 0.8138(4) 0.5211(4)
C5_2 C 0.2098(3) 0.8094(5) 0.6424(6)
O6_2 O 0.1067(2) 0.8147(4) 0.3857(4)
C6_2 C 0.0457(3) 0.8629(5) 0.3587(6)
C7_2 C 0.1149(3) 0.6335(5) 0.6395(7)
C8_2 C 0.0676(3) 0.6384(5) 0.5408(6)
C9_2 C 0.2412(3) 0.7714(5) 0.6146(6)
C10_2 C 0.2051(3) 0.8152(5) 0.7223(6)
C11_2 C 0.0102(3) 0.8908(6) 0.3842(7)
C12_2 C 0.0506(4) 0.8451(7) 0.2803(7)
C13_2 C 0.0915(3) 0.5937(5) 0.5905(8)
N3_2 N 0.1646(2) 0.9410(4) 0.4092(6)
O7_2 O 0.2186(2) 0.7969(4) 0.3705(4)
O8_2 O 0.1755(2) 0.8085(4) 0.2769(5)
C14_2 C 0.2684(3) 0.7397(5) 0.6646(6)
C15_2 C 0.2317(3) 0.7826(6) 0.7726(6)
C17_2 C 0.0197(4) 0.8542(7) 0.2277(7)
C18_2 C 0.0915(3) 0.5095(5) 0.5880(8)
C19_2 C 0.1858(3) 0.9825(5) 0.4576(6)
C20_2 C 0.1416(3) 0.9809(5) 0.3604(6)
C21_2 C 0.2632(3) 0.7433(5) 0.7435(6)
S1_2 S 0.06215(10) 0.45692(15) 0.5236(2)
N5_2 N 0.1133(3) 0.4675(4) 0.6340(5)
C25_2 C 0.2915(4) 0.7091(6) 0.8003(7)
C27_2 C 0.0818(4) 0.3736(5) 0.5607(6)
C28_2 C 0.1071(3) 0.3912(5) 0.6179(6)
N6_2 N 0.0757(3) 0.2961(4) 0.5448(5)
S2_2 S 0.12673(9) 0.30685(14) 0.65611(18)
C31_2 C 0.0979(3) 0.2550(5) 0.5907(8)
C32_2 C 0.0995(3) 0.1695(5) 0.5874(7)
C35_2 C 0.1238(3) 0.1273(5) 0.6362(6)
C36_2 C 0.0759(3) 0.1302(5) 0.5391(7)
C37_2 C 0.1224(3) 0.0462(5) 0.6320(6)
C38_2 C 0.0766(4) 0.0494(6) 0.5384(7)
O9_2 O 0.2814(2) 0.7031(4) 0.8705(4)
O10_2 O 0.3245(2) 0.6915(4) 0.7769(5)
Zn3_2 Zn 0.33720(3) 0.68371(6) 0.91134(7)
H1_2 H 0.134221 0.744707 0.679185
H2_2 H 0.141163 0.0127574 0.67044
H3_2 H 0.0503133 0.751546 0.507007
H4_2 H 0.294125 0.711691 0.640993
H5_2 H 0.227739 0.788004 0.835216
H6_2 H 0.0784724 0.824031 0.259547
H7_2 H 0.0479824 0.609877 0.500202
H8_2 H 0.245141 0.76566 0.552008
H9_2 H 0.00638258 0.907687 0.444787
H10_2 H 0.124677 0.947455 0.318652
H11_2 H 0.133571 0.601913 0.679645
H13_2 H 0.0237369 0.840429 0.166391
H14_2 H 0.180086 0.845889 0.745682
H17_2 H 0.143299 0.156694 0.676409
H18_2 H 0.205372 0.951175 0.496183
H19_2 H 0.0563257 0.161754 0.500708
H23_2 H 0.0573301 0.0190339 0.498464
C16_2 C 0.9793(3) 0.8972(6) 0.3319(7)
C22_2 C 0.9840(3) 0.8808(6) 0.2541(6)
C26_2 C 0.9525(4) 0.8859(6) 0.2000(7)
O11_2 O 0.9184(3) 0.8889(4) 0.2215(5)
O12_2 O 0.9602(2) 0.8841(4) 0.1283(5)
Zn4_2 Zn 0.90385(3) 0.88336(6) 0.08690(7)
H12_2 H 0.951044 0.915483 0.353175
C16_3 C 0.0207(3) 0.8972(6) 0.8319(7)
C22_3 C 0.0160(3) 0.8808(6) 0.7541(6)
C26_3 C 0.0475(4) 0.8859(6) 0.7000(7)
H12_3 H 0.0489562 0.915483 0.853175
N2_2 N 0.9007(2) 0.0073(4) 0.0834(6)
H16_3 H 0.796901 0.0931699 0.00462675
C23_3 C 0.8150(3) 0.0623(5) 0.9629(6)
C24_3 C 0.8622(3) 0.0602(5) 0.8591(6)
C29_3 C 0.8396(3) 0.1023(5) 0.9134(7)
C30_3 C 0.8418(3) 0.1883(5) 0.9156(8)
S3_3 S 0.87491(9) 0.23897(14) 0.8589(2)
N7_3 N 0.8188(3) 0.2292(4) 0.9609(5)
C33_3 C 0.8562(3) 0.3240(5) 0.8951(7)
C34_3 C 0.8270(4) 0.3062(5) 0.9478(7)
N8_3 N 0.8644(3) 0.3992(4) 0.8815(5)
S4_3 S 0.80735(9) 0.39081(14) 0.98317(18)
C39_3 C 0.8402(3) 0.4413(5) 0.9249(6)
C40_3 C 0.8398(3) 0.5273(5) 0.9234(7)
C41_3 C 0.8130(3) 0.5696(6) 0.9639(6)
C42_3 C 0.8677(3) 0.5678(5) 0.8807(6)
C43_3 C 0.8146(3) 0.6501(6) 0.9596(6)
C44_3 C 0.8673(3) 0.6466(6) 0.8799(7)
N10_2 N 0.8409(3) 0.6891(4) 0.9175(7)
H15_3 H 0.881561 0.0894237 0.8185
H20_3 H 0.790936 0.540629 0.998689
H21_3 H 0.889672 0.536005 0.848205
H22_3 H 0.793324 0.683653 0.99221
H24_3 H 0.889614 0.676932 0.846959
O1_3 O 0.84730(19) 0.8789(3) 0.1176(4)
N1_3 N 0.9068(2) 0.7566(4) 0.0908(7)
C1_3 C 0.8209(3) 0.8373(5) 0.0890(7)
C3_3 C 0.8848(3) 0.7143(5) 0.1388(7)
C4_3 C 0.9305(3) 0.7180(6) 0.0445(6)
O5_3 O 0.8183(2) 0.8138(4) 0.0211(4)
C5_3 C 0.7902(3) 0.8094(5) 0.1424(6)
C7_3 C 0.8851(3) 0.6335(5) 0.1395(7)
C8_3 C 0.9324(3) 0.6384(5) 0.0408(6)
C9_3 C 0.7588(3) 0.7714(5) 0.1146(6)
C10_3 C 0.7949(3) 0.8152(5) 0.2223(6)
C13_3 C 0.9085(3) 0.5937(5) 0.0905(8)
C14_3 C 0.7316(3) 0.7397(5) 0.1646(6)
C15_3 C 0.7683(3) 0.7826(6) 0.2726(6)
C18_3 C 0.9085(3) 0.5095(5) 0.0880(8)
C21_3 C 0.7368(3) 0.7433(5) 0.2435(6)
S1_3 S 0.93785(10) 0.45692(15) 0.0236(2)
N5_3 N 0.8867(3) 0.4675(4) 0.1340(5)
C25_3 C 0.7085(4) 0.7091(6) 0.3003(7)
C27_3 C 0.9182(4) 0.3736(5) 0.0607(6)
C28_3 C 0.8929(3) 0.3912(5) 0.1179(6)
N6_3 N 0.9243(3) 0.2961(4) 0.0448(5)
S2_3 S 0.87327(9) 0.30685(14) 0.15611(18)
C31_3 C 0.9021(3) 0.2550(5) 0.0907(8)
C32_3 C 0.9005(3) 0.1695(5) 0.0874(7)
C35_3 C 0.8762(3) 0.1273(5) 0.1362(6)
C36_3 C 0.9241(3) 0.1302(5) 0.0391(7)
C37_3 C 0.8776(3) 0.0462(5) 0.1320(6)
C38_3 C 0.9234(4) 0.0494(6) 0.0384(7)
H1_3 H 0.865779 0.744707 0.179185
H2_3 H 0.858837 0.0127574 0.17044
H3_3 H 0.949687 0.751546 0.00700713
H4_3 H 0.705875 0.711691 0.140993
H5_3 H 0.772261 0.788004 0.335216
H7_3 H 0.952018 0.609877 0.000202144
H8_3 H 0.754859 0.76566 0.0520084
H11_3 H 0.866429 0.601913 0.179645
H14_3 H 0.819914 0.845889 0.245682
H17_3 H 0.856701 0.156694 0.176409
H19_3 H 0.943674 0.161754 0.00070818
O2_3 O 0.9231(2) 0.8870(4) 0.9760(4)
C2_3 C 0.9213(3) 0.8537(5) 0.9109(7)
O6_3 O 0.8933(2) 0.8147(4) 0.8857(4)
C6_3 C 0.9543(3) 0.8629(5) 0.8587(6)
C11_3 C 0.9898(3) 0.8908(6) 0.8842(7)
C12_3 C 0.9494(4) 0.8451(7) 0.7803(7)
N3_3 N 0.8354(2) 0.9410(4) 0.9092(6)
C17_3 C 0.9803(4) 0.8542(7) 0.7277(7)
C19_3 C 0.8142(3) 0.9825(5) 0.9576(6)
C20_3 C 0.8584(3) 0.9809(5) 0.8604(6)
H6_3 H 0.921528 0.824031 0.759547
H9_3 H 0.993617 0.907687 0.944787
H10_3 H 0.875323 0.947455 0.818652
H13_3 H 0.976263 0.840429 0.666391
H18_3 H 0.794628 0.951175 0.996183
H23_3 H 0.94267 0.0190339 0.998464
S1_4 S 0.43785(10) 0.04308(15) 0.0236(2)
N5_4 N 0.3867(3) 0.0325(4) 0.1340(5)
C27_4 C 0.4182(4) 0.1264(5) 0.0607(6)
C28_4 C 0.3929(3) 0.1088(5) 0.1179(6)
N6_4 N 0.4243(3) 0.2039(4) 0.0448(5)
S2_4 S 0.37327(9) 0.19315(14) 0.15611(18)
C31_4 C 0.4021(3) 0.2450(5) 0.0907(8)
C32_4 C 0.4005(3) 0.3305(5) 0.0874(7)
C35_4 C 0.3762(3) 0.3727(5) 0.1362(6)
C36_4 C 0.4241(3) 0.3698(5) 0.0391(7)
C37_4 C 0.3776(3) 0.4538(5) 0.1320(6)
C38_4 C 0.4234(4) 0.4506(6) 0.0384(7)
N9_2 N 0.4007(2) 0.4927(4) 0.0834(6)
H2_4 H 0.358837 0.487243 0.17044
H17_4 H 0.356701 0.343306 0.176409
H19_4 H 0.443674 0.338246 0.00070818
O1_4 O 0.34730(19) 0.6211(3) 0.1176(4)
N1_4 N 0.4068(2) 0.7434(4) 0.0908(7)
C1_4 C 0.3209(3) 0.6627(5) 0.0890(7)
C3_4 C 0.3848(3) 0.7857(5) 0.1388(7)
C4_4 C 0.4305(3) 0.7820(6) 0.0445(6)
O5_4 O 0.3183(2) 0.6862(4) 0.0211(4)
C5_4 C 0.2902(3) 0.6906(5) 0.1424(6)
C7_4 C 0.3851(3) 0.8665(5) 0.1395(7)
C8_4 C 0.4324(3) 0.8616(5) 0.0408(6)
C9_4 C 0.2588(3) 0.7286(5) 0.1146(6)
C10_4 C 0.2949(3) 0.6848(5) 0.2223(6)
C13_4 C 0.4085(3) 0.9063(5) 0.0905(8)
C14_4 C 0.2316(3) 0.7603(5) 0.1646(6)
C15_4 C 0.2683(3) 0.7174(6) 0.2726(6)
C18_4 C 0.4085(3) 0.9905(5) 0.0880(8)
C21_4 C 0.2368(3) 0.7567(5) 0.2435(6)
C25_4 C 0.2085(4) 0.7909(6) 0.3003(7)
H1_4 H 0.365779 0.755293 0.179185
H3_4 H 0.449687 0.748454 0.00700713
H4_4 H 0.205875 0.788309 0.140993
H5_4 H 0.272261 0.711996 0.335216
H7_4 H 0.452018 0.890123 0.000202144
H8_4 H 0.254859 0.73434 0.0520084
H11_4 H 0.366429 0.898087 0.179645
H14_4 H 0.319914 0.654111 0.245682
H16_4 H 0.296901 0.40683 0.00462675
O2_4 O 0.4231(2) 0.6130(4) 0.9760(4)
C2_4 C 0.4213(3) 0.6463(5) 0.9109(7)
O6_4 O 0.3933(2) 0.6853(4) 0.8857(4)
C6_4 C 0.4543(3) 0.6371(5) 0.8587(6)
C11_4 C 0.4898(3) 0.6092(6) 0.8842(7)
C12_4 C 0.4494(4) 0.6549(7) 0.7803(7)
N3_4 N 0.3354(2) 0.5590(4) 0.9092(6)
N4_2 N 0.3409(3) 0.8109(4) 0.9175(7)
C16_4 C 0.5207(3) 0.6028(6) 0.8319(7)
C17_4 C 0.4803(4) 0.6458(7) 0.7277(7)
C19_4 C 0.3142(3) 0.5175(5) 0.9576(6)
C20_4 C 0.3584(3) 0.5191(5) 0.8604(6)
C22_4 C 0.5160(3) 0.6192(6) 0.7541(6)
C23_4 C 0.3150(3) 0.4377(5) 0.9629(6)
C24_4 C 0.3622(3) 0.4398(5) 0.8591(6)
C26_4 C 0.5475(4) 0.6141(6) 0.7000(7)
C29_4 C 0.3396(3) 0.3977(5) 0.9134(7)
C30_4 C 0.3418(3) 0.3117(5) 0.9156(8)
S3_4 S 0.37491(9) 0.26103(14) 0.8589(2)
N7_4 N 0.3188(3) 0.2708(4) 0.9609(5)
C33_4 C 0.3562(3) 0.1760(5) 0.8951(7)
C34_4 C 0.3270(4) 0.1938(5) 0.9478(7)
N8_4 N 0.3644(3) 0.1008(4) 0.8815(5)
S4_4 S 0.30735(9) 0.10919(14) 0.98317(18)
C39_4 C 0.3402(3) 0.0587(5) 0.9249(6)
H6_4 H 0.421528 0.675969 0.759547
H9_4 H 0.493617 0.592313 0.944787
H10_4 H 0.375323 0.552545 0.818652
H12_4 H 0.548956 0.584517 0.853175
H13_4 H 0.476263 0.659571 0.666391
H15_4 H 0.381561 0.410576 0.8185
H18_4 H 0.294628 0.548825 0.996183
C40_4 C 0.3398(3) 0.9727(5) 0.9234(7)
C41_4 C 0.3130(3) 0.9304(6) 0.9639(6)
C42_4 C 0.3677(3) 0.9322(5) 0.8807(6)
C43_4 C 0.3146(3) 0.8499(6) 0.9596(6)
C44_4 C 0.3673(3) 0.8534(6) 0.8799(7)
H20_4 H 0.290936 0.959371 0.998689
H21_4 H 0.389672 0.963995 0.848205
H22_4 H 0.293324 0.816347 0.99221
H24_4 H 0.389614 0.823068 0.846959
C40_5 C 0.3398(3) 0.0273(5) 0.4234(7)
C41_5 C 0.3130(3) 0.0696(6) 0.4639(6)
C42_5 C 0.3677(3) 0.0678(5) 0.3807(6)
C43_5 C 0.3146(3) 0.1501(6) 0.4596(6)
C44_5 C 0.3673(3) 0.1466(6) 0.3799(7)
N10_3 N 0.3409(3) 0.1891(4) 0.4175(7)
Zn6_2 Zn 0.33720(3) 0.31629(6) 0.41134(7)
H20_5 H 0.290936 0.040629 0.498689
H21_5 H 0.389672 0.0360054 0.348205
H22_5 H 0.293324 0.183653 0.49221
H24_5 H 0.389614 0.176932 0.346959
Zn1_2 Zn 0.40385(3) 0.38336(6) 0.58690(7)
O1_5 O 0.34730(19) 0.3789(3) 0.6176(4)
O2_5 O 0.4231(2) 0.3870(4) 0.4760(4)
N1_5 N 0.4068(2) 0.2566(4) 0.5908(7)
O3_3 O 0.4184(3) 0.3889(4) 0.7215(5)
O4_3 O 0.4602(2) 0.3841(4) 0.6283(5)
N2_3 N 0.4007(2) 0.5073(4) 0.5834(6)
C1_5 C 0.3209(3) 0.3373(5) 0.5890(7)
C2_5 C 0.4213(3) 0.3537(5) 0.4109(7)
C3_5 C 0.3848(3) 0.2143(5) 0.6388(7)
C4_5 C 0.4305(3) 0.2180(6) 0.5445(6)
O5_5 O 0.3183(2) 0.3138(4) 0.5211(4)
C5_5 C 0.2902(3) 0.3094(5) 0.6424(6)
O6_5 O 0.3933(2) 0.3147(4) 0.3857(4)
C6_5 C 0.4543(3) 0.3629(5) 0.3587(6)
C7_5 C 0.3851(3) 0.1335(5) 0.6395(7)
C8_5 C 0.4324(3) 0.1384(5) 0.5408(6)
C9_5 C 0.2588(3) 0.2714(5) 0.6146(6)
C10_5 C 0.2949(3) 0.3152(5) 0.7223(6)
C11_5 C 0.4898(3) 0.3908(6) 0.3842(7)
C12_5 C 0.4494(4) 0.3451(7) 0.2803(7)
C13_5 C 0.4085(3) 0.0937(5) 0.5905(8)
N3_5 N 0.3354(2) 0.4410(4) 0.4092(6)
O7_3 O 0.2814(2) 0.2969(4) 0.3705(4)
O8_3 O 0.3245(2) 0.3085(4) 0.2769(5)
C14_5 C 0.2316(3) 0.2397(5) 0.6646(6)
C15_5 C 0.2683(3) 0.2826(6) 0.7726(6)
C16_5 C 0.5207(3) 0.3972(6) 0.3319(7)
C17_5 C 0.4803(4) 0.3542(7) 0.2277(7)
C18_5 C 0.4085(3) 0.0095(5) 0.5880(8)
C19_5 C 0.3142(3) 0.4825(5) 0.4576(6)
C20_5 C 0.3584(3) 0.4809(5) 0.3604(6)
C21_5 C 0.2368(3) 0.2433(5) 0.7435(6)
C22_5 C 0.5160(3) 0.3808(6) 0.2541(6)
C23_5 C 0.3150(3) 0.5623(5) 0.4629(6)
C24_5 C 0.3622(3) 0.5602(5) 0.3591(6)
C25_5 C 0.2085(4) 0.2091(6) 0.8003(7)
C26_5 C 0.5475(4) 0.3859(6) 0.2000(7)
C29_5 C 0.3396(3) 0.6023(5) 0.4134(7)
C30_5 C 0.3418(3) 0.6883(5) 0.4156(8)
S3_5 S 0.37491(9) 0.73897(14) 0.3589(2)
N7_5 N 0.3188(3) 0.7292(4) 0.4609(5)
C33_5 C 0.3562(3) 0.8240(5) 0.3951(7)
C34_5 C 0.3270(4) 0.8062(5) 0.4478(7)
N8_5 N 0.3644(3) 0.8992(4) 0.3815(5)
S4_5 S 0.30735(9) 0.89081(14) 0.48317(18)
C39_5 C 0.3402(3) 0.9413(5) 0.4249(6)
O9_3 O 0.2186(2) 0.2031(4) 0.8705(4)
O10_3 O 0.1755(2) 0.1915(4) 0.7769(5)
O11_3 O 0.5816(3) 0.3889(4) 0.2215(5)
O12_3 O 0.5398(2) 0.3841(4) 0.1283(5)
Zn3_3 Zn 0.16280(3) 0.18371(6) 0.91134(7)
Zn4_3 Zn 0.59615(3) 0.38336(6) 0.08690(7)
H1_5 H 0.365779 0.244707 0.679185
H3_5 H 0.449687 0.251546 0.507007
H4_5 H 0.205875 0.211691 0.640993
H5_5 H 0.272261 0.288004 0.835216
H6_5 H 0.421528 0.324031 0.259547
H7_5 H 0.452018 0.109877 0.500202
H8_5 H 0.254859 0.26566 0.552008
H9_5 H 0.493617 0.407687 0.444787
H10_5 H 0.375323 0.447455 0.318652
H11_5 H 0.366429 0.101913 0.679645
H12_5 H 0.548956 0.415483 0.353175
H13_5 H 0.476263 0.340429 0.166391
H14_5 H 0.319914 0.345889 0.745682
H15_5 H 0.381561 0.589424 0.3185
H16_5 H 0.296901 0.59317 0.504627
H18_5 H 0.294628 0.451175 0.496183
S1_5 S 0.43785(10) 0.95692(15) 0.5236(2)
N5_5 N 0.3867(3) 0.9675(4) 0.6340(5)
C27_5 C 0.4182(4) 0.8736(5) 0.5607(6)
C28_5 C 0.3929(3) 0.8912(5) 0.6179(6)
N6_5 N 0.4243(3) 0.7961(4) 0.5448(5)
S2_5 S 0.37327(9) 0.80685(14) 0.65611(18)
C31_5 C 0.4021(3) 0.7550(5) 0.5907(8)
C32_5 C 0.4005(3) 0.6695(5) 0.5874(7)
C35_5 C 0.3762(3) 0.6273(5) 0.6362(6)
C36_5 C 0.4241(3) 0.6302(5) 0.5391(7)
C37_5 C 0.3776(3) 0.5462(5) 0.6320(6)
C38_5 C 0.4234(4) 0.5494(6) 0.5384(7)
H2_5 H 0.358837 0.512757 0.67044
H17_5 H 0.356701 0.656694 0.676409
H19_5 H 0.443674 0.661754 0.500708
H23_4 H 0.44267 0.519034 0.498464
C16_6 C 0.0207(3) 0.1028(6) 0.3319(7)
C22_6 C 0.0160(3) 0.1192(6) 0.2541(6)
C26_6 C 0.0475(4) 0.1141(6) 0.2000(7)
O11_4 O 0.0816(3) 0.1111(4) 0.2215(5)
O12_4 O 0.0398(2) 0.1159(4) 0.1283(5)
Zn4_4 Zn 0.09615(3) 0.11664(6) 0.08690(7)
H12_6 H 0.0489562 0.0845172 0.353175
Zn5_2 Zn 0.90385(3) 0.11664(6) 0.58690(7)
O1_6 O 0.84730(19) 0.1211(3) 0.6176(4)
O2_6 O 0.9231(2) 0.1130(4) 0.4760(4)
N1_6 N 0.9068(2) 0.2434(4) 0.5908(7)
O3_4 O 0.9184(3) 0.1111(4) 0.7215(5)
O4_4 O 0.9602(2) 0.1159(4) 0.6283(5)
C1_6 C 0.8209(3) 0.1627(5) 0.5890(7)
C2_6 C 0.9213(3) 0.1463(5) 0.4109(7)
C3_6 C 0.8848(3) 0.2857(5) 0.6388(7)
C4_6 C 0.9305(3) 0.2820(6) 0.5445(6)
O5_6 O 0.8183(2) 0.1862(4) 0.5211(4)
C5_6 C 0.7902(3) 0.1906(5) 0.6424(6)
O6_6 O 0.8933(2) 0.1853(4) 0.3857(4)
C6_6 C 0.9543(3) 0.1371(5) 0.3587(6)
C7_6 C 0.8851(3) 0.3665(5) 0.6395(7)
C8_6 C 0.9324(3) 0.3616(5) 0.5408(6)
Zn2_2 Zn 0.83720(3) 0.18371(6) 0.41134(7)
C9_6 C 0.7588(3) 0.2286(5) 0.6146(6)
C10_6 C 0.7949(3) 0.1848(5) 0.7223(6)
C11_6 C 0.9898(3) 0.1092(6) 0.3842(7)
C12_6 C 0.9494(4) 0.1549(7) 0.2803(7)
C13_6 C 0.9085(3) 0.4063(5) 0.5905(8)
N3_6 N 0.8354(2) 0.0590(4) 0.4092(6)
O7_4 O 0.7814(2) 0.2031(4) 0.3705(4)
O8_4 O 0.8245(2) 0.1915(4) 0.2769(5)
N4_3 N 0.8409(3) 0.3109(4) 0.4175(7)
C14_6 C 0.7316(3) 0.2603(5) 0.6646(6)
C15_6 C 0.7683(3) 0.2174(6) 0.7726(6)
C17_6 C 0.9803(4) 0.1458(7) 0.2277(7)
C18_6 C 0.9085(3) 0.4905(5) 0.5880(8)
C19_6 C 0.8142(3) 0.0175(5) 0.4576(6)
C20_6 C 0.8584(3) 0.0191(5) 0.3604(6)
C21_6 C 0.7368(3) 0.2567(5) 0.7435(6)
S1_6 S 0.93785(10) 0.54308(15) 0.5236(2)
N5_6 N 0.8867(3) 0.5325(4) 0.6340(5)
C25_6 C 0.7085(4) 0.2909(6) 0.8003(7)
C27_6 C 0.9182(4) 0.6264(5) 0.5607(6)
C28_6 C 0.8929(3) 0.6088(5) 0.6179(6)
N6_6 N 0.9243(3) 0.7039(4) 0.5448(5)
S2_6 S 0.87327(9) 0.69315(14) 0.65611(18)
C31_6 C 0.9021(3) 0.7450(5) 0.5907(8)
C32_6 C 0.9005(3) 0.8305(5) 0.5874(7)
C35_6 C 0.8762(3) 0.8727(5) 0.6362(6)
C36_6 C 0.9241(3) 0.8698(5) 0.5391(7)
C37_6 C 0.8776(3) 0.9538(5) 0.6320(6)
C38_6 C 0.9234(4) 0.9506(6) 0.5384(7)
O9_4 O 0.7186(2) 0.2969(4) 0.8705(4)
O10_4 O 0.6755(2) 0.3085(4) 0.7769(5)
Zn3_4 Zn 0.66280(3) 0.31629(6) 0.91134(7)
N9_3 N 0.9007(2) 0.9927(4) 0.5834(6)
H1_6 H 0.865779 0.255293 0.679185
H2_6 H 0.858837 0.987243 0.67044
H3_6 H 0.949687 0.248454 0.507007
H4_6 H 0.705875 0.288309 0.640993
H5_6 H 0.772261 0.211996 0.835216
H6_6 H 0.921528 0.175969 0.259547
H7_6 H 0.952018 0.390123 0.500202
H8_6 H 0.754859 0.23434 0.552008
H9_6 H 0.993617 0.0923126 0.444787
H10_6 H 0.875323 0.0525449 0.318652
H11_6 H 0.866429 0.398087 0.679645
H13_6 H 0.976263 0.159571 0.166391
H14_6 H 0.819914 0.154111 0.745682
H17_6 H 0.856701 0.843306 0.676409
H18_6 H 0.794628 0.0488249 0.496183
H19_6 H 0.943674 0.838246 0.500708
H23_5 H 0.94267 0.980966 0.498464
C23_6 C 0.8150(3) 0.9377(5) 0.4629(6)
C24_6 C 0.8622(3) 0.9398(5) 0.3591(6)
C29_6 C 0.8396(3) 0.8977(5) 0.4134(7)
C30_6 C 0.8418(3) 0.8117(5) 0.4156(8)
S3_6 S 0.87491(9) 0.76103(14) 0.3589(2)
N7_6 N 0.8188(3) 0.7708(4) 0.4609(5)
C33_6 C 0.8562(3) 0.6760(5) 0.3951(7)
C34_6 C 0.8270(4) 0.6938(5) 0.4478(7)
N8_6 N 0.8644(3) 0.6008(4) 0.3815(5)
S4_6 S 0.80735(9) 0.60919(14) 0.48317(18)
C39_6 C 0.8402(3) 0.5587(5) 0.4249(6)
C40_6 C 0.8398(3) 0.4727(5) 0.4234(7)
C41_6 C 0.8130(3) 0.4304(6) 0.4639(6)
C42_6 C 0.8677(3) 0.4322(5) 0.3807(6)
C43_6 C 0.8146(3) 0.3499(6) 0.4596(6)
C44_6 C 0.8673(3) 0.3534(6) 0.3799(7)
H15_6 H 0.881561 0.910576 0.3185
H16_6 H 0.796901 0.90683 0.504627
H20_6 H 0.790936 0.459371 0.498689
H21_6 H 0.889672 0.463995 0.348205
H22_6 H 0.793324 0.316347 0.49221
H24_6 H 0.889614 0.323068 0.346959
O1_7 O 0.15270(19) 0.1211(3) 0.1176(4)
N1_7 N 0.0932(2) 0.2434(4) 0.0908(7)
C1_7 C 0.1791(3) 0.1627(5) 0.0890(7)
C3_7 C 0.1152(3) 0.2857(5) 0.1388(7)
C4_7 C 0.0695(3) 0.2820(6) 0.0445(6)
O5_7 O 0.1817(2) 0.1862(4) 0.0211(4)
C5_7 C 0.2098(3) 0.1906(5) 0.1424(6)
C7_7 C 0.1149(3) 0.3665(5) 0.1395(7)
C8_7 C 0.0676(3) 0.3616(5) 0.0408(6)
C9_7 C 0.2412(3) 0.2286(5) 0.1146(6)
C10_7 C 0.2051(3) 0.1848(5) 0.2223(6)
C13_7 C 0.0915(3) 0.4063(5) 0.0905(8)
C14_7 C 0.2684(3) 0.2603(5) 0.1646(6)
C15_7 C 0.2317(3) 0.2174(6) 0.2726(6)
C18_7 C 0.0915(3) 0.4905(5) 0.0880(8)
C21_7 C 0.2632(3) 0.2567(5) 0.2435(6)
S1_7 S 0.06215(10) 0.54308(15) 0.0236(2)
N5_7 N 0.1133(3) 0.5325(4) 0.1340(5)
C25_7 C 0.2915(4) 0.2909(6) 0.3003(7)
C27_7 C 0.0818(4) 0.6264(5) 0.0607(6)
C28_7 C 0.1071(3) 0.6088(5) 0.1179(6)
N6_7 N 0.0757(3) 0.7039(4) 0.0448(5)
S2_7 S 0.12673(9) 0.69315(14) 0.15611(18)
C31_7 C 0.0979(3) 0.7450(5) 0.0907(8)
C32_7 C 0.0995(3) 0.8305(5) 0.0874(7)
C35_7 C 0.1238(3) 0.8727(5) 0.1362(6)
C36_7 C 0.0759(3) 0.8698(5) 0.0391(7)
C37_7 C 0.1224(3) 0.9538(5) 0.1320(6)
C38_7 C 0.0766(4) 0.9506(6) 0.0384(7)
N9_4 N 0.0993(2) 0.9927(4) 0.0834(6)
H1_7 H 0.134221 0.255293 0.179185
H2_7 H 0.141163 0.987243 0.17044
H3_7 H 0.0503133 0.248454 0.00700713
H4_7 H 0.294125 0.288309 0.140993
H5_7 H 0.227739 0.211996 0.335216
H7_7 H 0.0479824 0.390123 0.000202144
H8_7 H 0.245141 0.23434 0.0520084
H11_7 H 0.133571 0.398087 0.179645
H14_7 H 0.180086 0.154111 0.245682
H17_7 H 0.143299 0.843306 0.176409
H19_7 H 0.0563257 0.838246 0.00070818
O2_7 O 0.0769(2) 0.1130(4) 0.9760(4)
C2_7 C 0.0787(3) 0.1463(5) 0.9109(7)
O6_7 O 0.1067(2) 0.1853(4) 0.8857(4)
C6_7 C 0.0457(3) 0.1371(5) 0.8587(6)
C11_7 C 0.0102(3) 0.1092(6) 0.8842(7)
C12_7 C 0.0506(4) 0.1549(7) 0.7803(7)
N3_7 N 0.1646(2) 0.0590(4) 0.9092(6)
N4_4 N 0.1591(3) 0.3109(4) 0.9175(7)
C17_7 C 0.0197(4) 0.1458(7) 0.7277(7)
C19_7 C 0.1858(3) 0.0175(5) 0.9576(6)
C20_7 C 0.1416(3) 0.0191(5) 0.8604(6)
H6_7 H 0.0784724 0.175969 0.759547
H9_7 H 0.00638258 0.0923126 0.944787
H10_7 H 0.124677 0.0525449 0.818652
H13_7 H 0.0237369 0.159571 0.666391
H18_7 H 0.205372 0.0488249 0.996183
H23_6 H 0.0573301 0.980966 0.998464
H16_7 H 0.203099 0.90683 0.00462675
C23_7 C 0.1850(3) 0.9377(5) 0.9629(6)
C24_7 C 0.1378(3) 0.9398(5) 0.8591(6)
C29_7 C 0.1604(3) 0.8977(5) 0.9134(7)
C30_7 C 0.1582(3) 0.8117(5) 0.9156(8)
S3_7 S 0.12509(9) 0.76103(14) 0.8589(2)
N7_7 N 0.1812(3) 0.7708(4) 0.9609(5)
C33_7 C 0.1438(3) 0.6760(5) 0.8951(7)
C34_7 C 0.1730(4) 0.6938(5) 0.9478(7)
N8_7 N 0.1356(3) 0.6008(4) 0.8815(5)
S4_7 S 0.19265(9) 0.60919(14) 0.98317(18)
C39_7 C 0.1598(3) 0.5587(5) 0.9249(6)
C40_7 C 0.1602(3) 0.4727(5) 0.9234(7)
C41_7 C 0.1870(3) 0.4304(6) 0.9639(6)
C42_7 C 0.1323(3) 0.4322(5) 0.8807(6)
C43_7 C 0.1854(3) 0.3499(6) 0.9596(6)
C44_7 C 0.1327(3) 0.3534(6) 0.8799(7)
H15_7 H 0.118439 0.910576 0.8185
H20_7 H 0.209064 0.459371 0.998689
H21_7 H 0.110328 0.463995 0.848205
H22_7 H 0.206676 0.316347 0.99221
H24_7 H 0.110386 0.323068 0.846959
C16_7 C 0.9793(3) 0.1028(6) 0.8319(7)
C22_7 C 0.9840(3) 0.1192(6) 0.7541(6)
C26_7 C 0.9525(4) 0.1141(6) 0.7000(7)
H12_7 H 0.951044 0.0845172 0.853175
C40_8 C 0.6602(3) 0.0273(5) 0.9234(7)
C41_8 C 0.6870(3) 0.0696(6) 0.9639(6)
C42_8 C 0.6323(3) 0.0678(5) 0.8807(6)
C43_8 C 0.6854(3) 0.1501(6) 0.9596(6)
C44_8 C 0.6327(3) 0.1466(6) 0.8799(7)
N10_4 N 0.6591(3) 0.1891(4) 0.9175(7)
H20_8 H 0.709064 0.040629 0.998689
H21_8 H 0.610328 0.0360054 0.848205
H22_8 H 0.706676 0.183653 0.99221
H24_8 H 0.610386 0.176932 0.846959
O1_8 O 0.65270(19) 0.3789(3) 0.1176(4)
N1_8 N 0.5932(2) 0.2566(4) 0.0908(7)
N2_4 N 0.5993(2) 0.5073(4) 0.0834(6)
C1_8 C 0.6791(3) 0.3373(5) 0.0890(7)
C3_8 C 0.6152(3) 0.2143(5) 0.1388(7)
C4_8 C 0.5695(3) 0.2180(6) 0.0445(6)
O5_8 O 0.6817(2) 0.3138(4) 0.0211(4)
C5_8 C 0.7098(3) 0.3094(5) 0.1424(6)
C7_8 C 0.6149(3) 0.1335(5) 0.1395(7)
C8_8 C 0.5676(3) 0.1384(5) 0.0408(6)
C9_8 C 0.7412(3) 0.2714(5) 0.1146(6)
C10_8 C 0.7051(3) 0.3152(5) 0.2223(6)
C13_8 C 0.5915(3) 0.0937(5) 0.0905(8)
C14_8 C 0.7684(3) 0.2397(5) 0.1646(6)
C15_8 C 0.7317(3) 0.2826(6) 0.2726(6)
C18_8 C 0.5915(3) 0.0095(5) 0.0880(8)
C21_8 C 0.7632(3) 0.2433(5) 0.2435(6)
C25_8 C 0.7915(4) 0.2091(6) 0.3003(7)
H1_8 H 0.634221 0.244707 0.179185
H3_8 H 0.550313 0.251546 0.00700713
H4_8 H 0.794125 0.211691 0.140993
H5_8 H 0.727739 0.288004 0.335216
H7_8 H 0.547982 0.109877 0.000202144
H8_8 H 0.745141 0.26566 0.0520084
H11_8 H 0.633571 0.101913 0.179645
H14_8 H 0.680086 0.345889 0.245682
H16_8 H 0.703099 0.59317 0.00462675
O2_8 O 0.5769(2) 0.3870(4) 0.9760(4)
C2_8 C 0.5787(3) 0.3537(5) 0.9109(7)
O6_8 O 0.6067(2) 0.3147(4) 0.8857(4)
C6_8 C 0.5457(3) 0.3629(5) 0.8587(6)
C11_8 C 0.5102(3) 0.3908(6) 0.8842(7)
C12_8 C 0.5506(4) 0.3451(7) 0.7803(7)
N3_8 N 0.6646(2) 0.4410(4) 0.9092(6)
C16_8 C 0.4793(3) 0.3972(6) 0.8319(7)
C17_8 C 0.5197(4) 0.3542(7) 0.7277(7)
C19_8 C 0.6858(3) 0.4825(5) 0.9576(6)
C20_8 C 0.6416(3) 0.4809(5) 0.8604(6)
C22_8 C 0.4840(3) 0.3808(6) 0.7541(6)
C23_8 C 0.6850(3) 0.5623(5) 0.9629(6)
C24_8 C 0.6378(3) 0.5602(5) 0.8591(6)
C26_8 C 0.4525(4) 0.3859(6) 0.7000(7)
C29_8 C 0.6604(3) 0.6023(5) 0.9134(7)
C30_8 C 0.6582(3) 0.6883(5) 0.9156(8)
S3_8 S 0.62509(9) 0.73897(14) 0.8589(2)
N7_8 N 0.6812(3) 0.7292(4) 0.9609(5)
C33_8 C 0.6438(3) 0.8240(5) 0.8951(7)
C34_8 C 0.6730(4) 0.8062(5) 0.9478(7)
N8_8 N 0.6356(3) 0.8992(4) 0.8815(5)
S4_8 S 0.69265(9) 0.89081(14) 0.98317(18)
C39_8 C 0.6598(3) 0.9413(5) 0.9249(6)
H6_8 H 0.578472 0.324031 0.759547
H9_8 H 0.506383 0.407687 0.944787
H10_8 H 0.624677 0.447455 0.818652
H12_8 H 0.451044 0.415483 0.853175
H13_8 H 0.523737 0.340429 0.666391
H15_8 H 0.618439 0.589424 0.8185
H18_8 H 0.705372 0.451175 0.996183
S1_8 S 0.56215(10) 0.95692(15) 0.0236(2)
N5_8 N 0.6133(3) 0.9675(4) 0.1340(5)
C27_8 C 0.5818(4) 0.8736(5) 0.0607(6)
C28_8 C 0.6071(3) 0.8912(5) 0.1179(6)
N6_8 N 0.5757(3) 0.7961(4) 0.0448(5)
S2_8 S 0.62673(9) 0.80685(14) 0.15611(18)
C31_8 C 0.5979(3) 0.7550(5) 0.0907(8)
C32_8 C 0.5995(3) 0.6695(5) 0.0874(7)
C35_8 C 0.6238(3) 0.6273(5) 0.1362(6)
C36_8 C 0.5759(3) 0.6302(5) 0.0391(7)
C37_8 C 0.6224(3) 0.5462(5) 0.1320(6)
C38_8 C 0.5766(4) 0.5494(6) 0.0384(7)
H2_8 H 0.641163 0.512757 0.17044
H17_8 H 0.643299 0.656694 0.176409
H19_8 H 0.556326 0.661754 0.00070818
H23_7 H 0.55733 0.519034 0.998464
H23_8 H 0.44267 0.480966 0.998464
loop_
_geom_bond_atom_site_label_1
_geom_bond_atom_site_label_2
_geom_bond_site_symmetry_1
_geom_bond_site_symmetry_2
C27 S1 1_555 1_555
C28 N5 1_555 1_555
N6 C27 1_555 1_555
S2 C28 1_555 1_555
C31 N6 1_555 1_555
C32 C31 1_555 1_555
C35 C32 1_555 1_555
C36 C32 1_555 1_555
C37 C35 1_555 1_555
C38 C36 1_555 1_555
N9 C37 1_555 1_555
Zn5 N9 1_555 1_555
C27 C28 1_555 1_555
S2 C31 1_555 1_555
C38 N9 1_555 1_555
C37 H2 1_555 1_555
C35 H17 1_555 1_555
C36 H19 1_555 1_555
C38 H23 1_555 1_555
Zn5 O1 1_555 1_555
O1 C1 1_555 1_555
O2 Zn5 1_555 1_555
N1 Zn5 1_555 1_555
O3 Zn5 1_555 1_555
O4 Zn5 1_555 1_555
C1 O5 1_555 1_555
C2 O2 1_555 1_555
C3 N1 1_555 1_555
C4 N1 1_555 1_555
O5 Zn2 1_555 1_555
C5 C1 1_555 1_555
O6 C2 1_555 1_555
C6 C2 1_555 1_555
C7 C3 1_555 1_555
C8 C4 1_555 1_555
Zn2 O6 1_555 1_555
C9 C5 1_555 1_555
C10 C5 1_555 1_555
C11 C6 1_555 1_555
C12 C6 1_555 1_555
C13 C7 1_555 1_555
N3 Zn2 1_555 1_555
O7 Zn2 1_555 1_555
O8 Zn2 1_555 1_555
N4 Zn2 1_555 1_555
C14 C9 1_555 1_555
C15 C10 1_555 1_555
C16 C11 1_555 1_555
C17 C12 1_555 1_555
C18 C13 1_555 1_555
C19 N3 1_555 1_555
C20 N3 1_555 1_555
C21 C14 1_555 1_555
C22 C16 1_555 1_555
C23 C19 1_555 1_555
C24 C20 1_555 1_555
C25 C21 1_555 1_555
C26 C22 1_555 1_555
C29 C23 1_555 1_555
C30 C29 1_555 1_555
S3 C30 1_555 1_555
N7 C30 1_555 1_555
C33 S3 1_555 1_555
C34 N7 1_555 1_555
N8 C33 1_555 1_555
S4 C34 1_555 1_555
C39 N8 1_555 1_555
O9 C25 1_555 1_555
O10 C25 1_555 1_555
O11 C26 1_555 1_555
O12 C26 1_555 1_555
Zn3 O9 1_555 1_555
Zn4 O11 1_555 1_555
C8 C13 1_555 1_555
C15 C21 1_555 1_555
C17 C22 1_555 1_555
C24 C29 1_555 1_555
C33 C34 1_555 1_555
S4 C39 1_555 1_555
O10 Zn3 1_555 1_555
O12 Zn4 1_555 1_555
C3 H1 1_555 1_555
C4 H3 1_555 1_555
C14 H4 1_555 1_555
C15 H5 1_555 1_555
C12 H6 1_555 1_555
C8 H7 1_555 1_555
C9 H8 1_555 1_555
C11 H9 1_555 1_555
C20 H10 1_555 1_555
C7 H11 1_555 1_555
C16 H12 1_555 1_555
C17 H13 1_555 1_555
C10 H14 1_555 1_555
C24 H15 1_555 1_555
C23 H16 1_555 1_555
C19 H18 1_555 1_555
C41 C40 1_555 1_555
C42 C40 1_555 1_555
C43 C41 1_555 1_555
C44 C42 1_555 1_555
N4 C43 1_555 1_555
C44 N4 1_555 1_555
C41 H20 1_555 1_555
C42 H21 1_555 1_555
C43 H22 1_555 1_555
C44 H24 1_555 1_555
C29_2 C23_2 1_555 1_555
C30_2 C29_2 1_555 1_555
S3_2 C30_2 1_555 1_555
N7_2 C30_2 1_555 1_555
C33_2 S3_2 1_555 1_555
C34_2 N7_2 1_555 1_555
N8_2 C33_2 1_555 1_555
S4_2 C34_2 1_555 1_555
C39_2 N8_2 1_555 1_555
C40_2 C39_2 1_555 1_555
C41_2 C40_2 1_555 1_555
C42_2 C40_2 1_555 1_555
C43_2 C41_2 1_555 1_555
C44_2 C42_2 1_555 1_555
N10 C43_2 1_555 1_555
Zn6 N10 1_555 1_555
C24_2 C29_2 1_555 1_555
C33_2 C34_2 1_555 1_555
S4_2 C39_2 1_555 1_555
C44_2 N10 1_555 1_555
C24_2 H15_2 1_555 1_555
C23_2 H16_2 1_555 1_555
C41_2 H20_2 1_555 1_555
C42_2 H21_2 1_555 1_555
C43_2 H22_2 1_555 1_555
C44_2 H24_2 1_555 1_555
Zn1 O1_2 1_555 1_555
O1_2 C1_2 1_555 1_555
O2_2 Zn1 1_555 1_555
N1_2 Zn1 1_555 1_555
O3_2 Zn1 1_555 1_555
O4_2 Zn1 1_555 1_555
C1_2 O5_2 1_555 1_555
C2_2 O2_2 1_555 1_555
C3_2 N1_2 1_555 1_555
C4_2 N1_2 1_555 1_555
O5_2 Zn6 1_555 1_555
C5_2 C1_2 1_555 1_555
O6_2 C2_2 1_555 1_555
C6_2 C2_2 1_555 1_555
C7_2 C3_2 1_555 1_555
C8_2 C4_2 1_555 1_555
Zn6 O6_2 1_555 1_555
C9_2 C5_2 1_555 1_555
C10_2 C5_2 1_555 1_555
C11_2 C6_2 1_555 1_555
C12_2 C6_2 1_555 1_555
C13_2 C7_2 1_555 1_555
N3_2 Zn6 1_555 1_555
O7_2 Zn6 1_555 1_555
O8_2 Zn6 1_555 1_555
C14_2 C9_2 1_555 1_555
C15_2 C10_2 1_555 1_555
C17_2 C12_2 1_555 1_555
C18_2 C13_2 1_555 1_555
C19_2 N3_2 1_555 1_555
C20_2 N3_2 1_555 1_555
C21_2 C14_2 1_555 1_555
S1_2 C18_2 1_555 1_555
N5_2 C18_2 1_555 1_555
C25_2 C21_2 1_555 1_555
C27_2 S1_2 1_555 1_555
C28_2 N5_2 1_555 1_555
N6_2 C27_2 1_555 1_555
S2_2 C28_2 1_555 1_555
C31_2 N6_2 1_555 1_555
C32_2 C31_2 1_555 1_555
C35_2 C32_2 1_555 1_555
C36_2 C32_2 1_555 1_555
C37_2 C35_2 1_555 1_555
C38_2 C36_2 1_555 1_555
O9_2 C25_2 1_555 1_555
O10_2 C25_2 1_555 1_555
Zn3_2 O9_2 1_555 1_555
N2 C37_2 1_555 1_555
C8_2 C13_2 1_555 1_555
C15_2 C21_2 1_555 1_555
C27_2 C28_2 1_555 1_555
S2_2 C31_2 1_555 1_555
C38_2 N2 1_555 1_555
O10_2 Zn3_2 1_555 1_555
C3_2 H1_2 1_555 1_555
C37_2 H2_2 1_555 1_555
C4_2 H3_2 1_555 1_555
C14_2 H4_2 1_555 1_555
C15_2 H5_2 1_555 1_555
C12_2 H6_2 1_555 1_555
C8_2 H7_2 1_555 1_555
C9_2 H8_2 1_555 1_555
C11_2 H9_2 1_555 1_555
C20_2 H10_2 1_555 1_555
C7_2 H11_2 1_555 1_555
C17_2 H13_2 1_555 1_555
C10_2 H14_2 1_555 1_555
C35_2 H17_2 1_555 1_555
C19_2 H18_2 1_555 1_555
C36_2 H19_2 1_555 1_555
C38_2 H23_2 1_555 1_555
C22_2 C16_2 1_555 1_555
C26_2 C22_2 1_555 1_555
O11_2 C26_2 1_555 1_555
O12_2 C26_2 1_555 1_555
Zn4_2 O11_2 1_555 1_555
O12_2 Zn4_2 1_555 1_555
C16_2 H12_2 1_555 1_555
C22_3 C16_3 1_555 1_555
C26_3 C22_3 1_555 1_555
O3_2 C26_3 1_555 1_555
O4_2 C26_3 1_555 1_555
C16_3 H12_3 1_555 1_555
C29_3 C23_3 1_555 1_555
C30_3 C29_3 1_555 1_555
S3_3 C30_3 1_555 1_555
N7_3 C30_3 1_555 1_555
C33_3 S3_3 1_555 1_555
C34_3 N7_3 1_555 1_555
N8_3 C33_3 1_555 1_555
S4_3 C34_3 1_555 1_555
C39_3 N8_3 1_555 1_555
C40_3 C39_3 1_555 1_555
C41_3 C40_3 1_555 1_555
C42_3 C40_3 1_555 1_555
C43_3 C41_3 1_555 1_555
C44_3 C42_3 1_555 1_555
N10_2 C43_3 1_555 1_555
Zn3 N10_2 1_555 1_555
C24_3 C29_3 1_555 1_555
C33_3 C34_3 1_555 1_555
S4_3 C39_3 1_555 1_555
C44_3 N10_2 1_555 1_555
C24_3 H15_3 1_555 1_555
C41_3 H20_3 1_555 1_555
C42_3 H21_3 1_555 1_555
C43_3 H22_3 1_555 1_555
C44_3 H24_3 1_555 1_555
Zn4_2 O1_3 1_555 1_555
O1_3 C1_3 1_555 1_555
N1_3 Zn4_2 1_555 1_555
C1_3 O5_3 1_555 1_555
C3_3 N1_3 1_555 1_555
C4_3 N1_3 1_555 1_555
C5_3 C1_3 1_555 1_555
C7_3 C3_3 1_555 1_555
C8_3 C4_3 1_555 1_555
C9_3 C5_3 1_555 1_555
C10_3 C5_3 1_555 1_555
C13_3 C7_3 1_555 1_555
C14_3 C9_3 1_555 1_555
C15_3 C10_3 1_555 1_555
C18_3 C13_3 1_555 1_555
C21_3 C14_3 1_555 1_555
S1_3 C18_3 1_555 1_555
N5_3 C18_3 1_555 1_555
C25_3 C21_3 1_555 1_555
C27_3 S1_3 1_555 1_555
C28_3 N5_3 1_555 1_555
N6_3 C27_3 1_555 1_555
S2_3 C28_3 1_555 1_555
C31_3 N6_3 1_555 1_555
C32_3 C31_3 1_555 1_555
C35_3 C32_3 1_555 1_555
C36_3 C32_3 1_555 1_555
C37_3 C35_3 1_555 1_555
C38_3 C36_3 1_555 1_555
O7 C25_3 1_555 1_555
O8 C25_3 1_555 1_555
N2_2 C37_3 1_555 1_555
C8_3 C13_3 1_555 1_555
C15_3 C21_3 1_555 1_555
C27_3 C28_3 1_555 1_555
S2_3 C31_3 1_555 1_555
C38_3 N2_2 1_555 1_555
C3_3 H1_3 1_555 1_555
C37_3 H2_3 1_555 1_555
C4_3 H3_3 1_555 1_555
C14_3 H4_3 1_555 1_555
C15_3 H5_3 1_555 1_555
C8_3 H7_3 1_555 1_555
C9_3 H8_3 1_555 1_555
C7_3 H11_3 1_555 1_555
C10_3 H14_3 1_555 1_555
C35_3 H17_3 1_555 1_555
C36_3 H19_3 1_555 1_555
C2_3 O2_3 1_555 1_555
O6_3 C2_3 1_555 1_555
C6_3 C2_3 1_555 1_555
Zn3 O6_3 1_555 1_555
C11_3 C6_3 1_555 1_555
C12_3 C6_3 1_555 1_555
N3_3 Zn3 1_555 1_555
C17_3 C12_3 1_555 1_555
C19_3 N3_3 1_555 1_555
C20_3 N3_3 1_555 1_555
C12_3 H6_3 1_555 1_555
C11_3 H9_3 1_555 1_555
C20_3 H10_3 1_555 1_555
C17_3 H13_3 1_555 1_555
C19_3 H18_3 1_555 1_555
C27_4 S1_4 1_555 1_555
C28_4 N5_4 1_555 1_555
N6_4 C27_4 1_555 1_555
S2_4 C28_4 1_555 1_555
C31_4 N6_4 1_555 1_555
C32_4 C31_4 1_555 1_555
C35_4 C32_4 1_555 1_555
C36_4 C32_4 1_555 1_555
C37_4 C35_4 1_555 1_555
C38_4 C36_4 1_555 1_555
N9_2 C37_4 1_555 1_555
Zn4 N9_2 1_555 1_555
C27_4 C28_4 1_555 1_555
S2_4 C31_4 1_555 1_555
C38_4 N9_2 1_555 1_555
C37_4 H2_4 1_555 1_555
C35_4 H17_4 1_555 1_555
C36_4 H19_4 1_555 1_555
Zn4 O1_4 1_555 1_555
O1_4 C1_4 1_555 1_555
N1_4 Zn4 1_555 1_555
C1_4 O5_4 1_555 1_555
C3_4 N1_4 1_555 1_555
C4_4 N1_4 1_555 1_555
C5_4 C1_4 1_555 1_555
C7_4 C3_4 1_555 1_555
C8_4 C4_4 1_555 1_555
C9_4 C5_4 1_555 1_555
C10_4 C5_4 1_555 1_555
C13_4 C7_4 1_555 1_555
C14_4 C9_4 1_555 1_555
C15_4 C10_4 1_555 1_555
C18_4 C13_4 1_555 1_555
C21_4 C14_4 1_555 1_555
C25_4 C21_4 1_555 1_555
O7_2 C25_4 1_555 1_555
O8_2 C25_4 1_555 1_555
C8_4 C13_4 1_555 1_555
C15_4 C21_4 1_555 1_555
C3_4 H1_4 1_555 1_555
C4_4 H3_4 1_555 1_555
C14_4 H4_4 1_555 1_555
C15_4 H5_4 1_555 1_555
C8_4 H7_4 1_555 1_555
C9_4 H8_4 1_555 1_555
C7_4 H11_4 1_555 1_555
C10_4 H14_4 1_555 1_555
C2_4 O2_4 1_555 1_555
O6_4 C2_4 1_555 1_555
C6_4 C2_4 1_555 1_555
Zn3_2 O6_4 1_555 1_555
C11_4 C6_4 1_555 1_555
C12_4 C6_4 1_555 1_555
N3_4 Zn3_2 1_555 1_555
N4_2 Zn3_2 1_555 1_555
C16_4 C11_4 1_555 1_555
C17_4 C12_4 1_555 1_555
C19_4 N3_4 1_555 1_555
C20_4 N3_4 1_555 1_555
C22_4 C16_4 1_555 1_555
C23_4 C19_4 1_555 1_555
C24_4 C20_4 1_555 1_555
C26_4 C22_4 1_555 1_555
C29_4 C23_4 1_555 1_555
C30_4 C29_4 1_555 1_555
S3_4 C30_4 1_555 1_555
N7_4 C30_4 1_555 1_555
C33_4 S3_4 1_555 1_555
C34_4 N7_4 1_555 1_555
N8_4 C33_4 1_555 1_555
S4_4 C34_4 1_555 1_555
C39_4 N8_4 1_555 1_555
O3 C26_4 1_555 1_555
O4 C26_4 1_555 1_555
C17_4 C22_4 1_555 1_555
C24_4 C29_4 1_555 1_555
C33_4 C34_4 1_555 1_555
S4_4 C39_4 1_555 1_555
C12_4 H6_4 1_555 1_555
C11_4 H9_4 1_555 1_555
C20_4 H10_4 1_555 1_555
C16_4 H12_4 1_555 1_555
C17_4 H13_4 1_555 1_555
C24_4 H15_4 1_555 1_555
C19_4 H18_4 1_555 1_555
C41_4 C40_4 1_555 1_555
C42_4 C40_4 1_555 1_555
C43_4 C41_4 1_555 1_555
C44_4 C42_4 1_555 1_555
N4_2 C43_4 1_555 1_555
C44_4 N4_2 1_555 1_555
C41_4 H20_4 1_555 1_555
C42_4 H21_4 1_555 1_555
C43_4 H22_4 1_555 1_555
C44_4 H24_4 1_555 1_555
C41_5 C40_5 1_555 1_555
C42_5 C40_5 1_555 1_555
C43_5 C41_5 1_555 1_555
C44_5 C42_5 1_555 1_555
N10_3 C43_5 1_555 1_555
Zn6_2 N10_3 1_555 1_555
C44_5 N10_3 1_555 1_555
C41_5 H20_5 1_555 1_555
C42_5 H21_5 1_555 1_555
C43_5 H22_5 1_555 1_555
C44_5 H24_5 1_555 1_555
Zn1_2 O1_5 1_555 1_555
O1_5 C1_5 1_555 1_555
O2_5 Zn1_2 1_555 1_555
N1_5 Zn1_2 1_555 1_555
O3_3 Zn1_2 1_555 1_555
O4_3 Zn1_2 1_555 1_555
N2_3 Zn1_2 1_555 1_555
C1_5 O5_5 1_555 1_555
C2_5 O2_5 1_555 1_555
C3_5 N1_5 1_555 1_555
C4_5 N1_5 1_555 1_555
O5_5 Zn6_2 1_555 1_555
C5_5 C1_5 1_555 1_555
O6_5 C2_5 1_555 1_555
C6_5 C2_5 1_555 1_555
C7_5 C3_5 1_555 1_555
C8_5 C4_5 1_555 1_555
Zn6_2 O6_5 1_555 1_555
C9_5 C5_5 1_555 1_555
C10_5 C5_5 1_555 1_555
C11_5 C6_5 1_555 1_555
C12_5 C6_5 1_555 1_555
C13_5 C7_5 1_555 1_555
N3_5 Zn6_2 1_555 1_555
O7_3 Zn6_2 1_555 1_555
O8_3 Zn6_2 1_555 1_555
C14_5 C9_5 1_555 1_555
C15_5 C10_5 1_555 1_555
C16_5 C11_5 1_555 1_555
C17_5 C12_5 1_555 1_555
C18_5 C13_5 1_555 1_555
C19_5 N3_5 1_555 1_555
C20_5 N3_5 1_555 1_555
C21_5 C14_5 1_555 1_555
C22_5 C16_5 1_555 1_555
C23_5 C19_5 1_555 1_555
C24_5 C20_5 1_555 1_555
C25_5 C21_5 1_555 1_555
C26_5 C22_5 1_555 1_555
C29_5 C23_5 1_555 1_555
C30_5 C29_5 1_555 1_555
S3_5 C30_5 1_555 1_555
N7_5 C30_5 1_555 1_555
C33_5 S3_5 1_555 1_555
C34_5 N7_5 1_555 1_555
N8_5 C33_5 1_555 1_555
S4_5 C34_5 1_555 1_555
C39_5 N8_5 1_555 1_555
O9_3 C25_5 1_555 1_555
O10_3 C25_5 1_555 1_555
O11_3 C26_5 1_555 1_555
O12_3 C26_5 1_555 1_555
Zn3_3 O9_3 1_555 1_555
Zn4_3 O11_3 1_555 1_555
C8_5 C13_5 1_555 1_555
C15_5 C21_5 1_555 1_555
C17_5 C22_5 1_555 1_555
C24_5 C29_5 1_555 1_555
C33_5 C34_5 1_555 1_555
S4_5 C39_5 1_555 1_555
O10_3 Zn3_3 1_555 1_555
O12_3 Zn4_3 1_555 1_555
C3_5 H1_5 1_555 1_555
C4_5 H3_5 1_555 1_555
C14_5 H4_5 1_555 1_555
C15_5 H5_5 1_555 1_555
C12_5 H6_5 1_555 1_555
C8_5 H7_5 1_555 1_555
C9_5 H8_5 1_555 1_555
C11_5 H9_5 1_555 1_555
C20_5 H10_5 1_555 1_555
C7_5 H11_5 1_555 1_555
C16_5 H12_5 1_555 1_555
C17_5 H13_5 1_555 1_555
C10_5 H14_5 1_555 1_555
C24_5 H15_5 1_555 1_555
C23_5 H16_5 1_555 1_555
C19_5 H18_5 1_555 1_555
C27_5 S1_5 1_555 1_555
C28_5 N5_5 1_555 1_555
N6_5 C27_5 1_555 1_555
S2_5 C28_5 1_555 1_555
C31_5 N6_5 1_555 1_555
C32_5 C31_5 1_555 1_555
C35_5 C32_5 1_555 1_555
C36_5 C32_5 1_555 1_555
C37_5 C35_5 1_555 1_555
C38_5 C36_5 1_555 1_555
N2_3 C37_5 1_555 1_555
C27_5 C28_5 1_555 1_555
S2_5 C31_5 1_555 1_555
C38_5 N2_3 1_555 1_555
C37_5 H2_5 1_555 1_555
C35_5 H17_5 1_555 1_555
C36_5 H19_5 1_555 1_555
C38_5 H23_4 1_555 1_555
C22_6 C16_6 1_555 1_555
C26_6 C22_6 1_555 1_555
O11_4 C26_6 1_555 1_555
O12_4 C26_6 1_555 1_555
Zn4_4 O11_4 1_555 1_555
O12_4 Zn4_4 1_555 1_555
C16_6 H12_6 1_555 1_555
Zn5_2 O1_6 1_555 1_555
O1_6 C1_6 1_555 1_555
O2_6 Zn5_2 1_555 1_555
N1_6 Zn5_2 1_555 1_555
O3_4 Zn5_2 1_555 1_555
O4_4 Zn5_2 1_555 1_555
C1_6 O5_6 1_555 1_555
C2_6 O2_6 1_555 1_555
C3_6 N1_6 1_555 1_555
C4_6 N1_6 1_555 1_555
O5_6 Zn2_2 1_555 1_555
C5_6 C1_6 1_555 1_555
O6_6 C2_6 1_555 1_555
C6_6 C2_6 1_555 1_555
C7_6 C3_6 1_555 1_555
C8_6 C4_6 1_555 1_555
Zn2_2 O6_6 1_555 1_555
C9_6 C5_6 1_555 1_555
C10_6 C5_6 1_555 1_555
C11_6 C6_6 1_555 1_555
C12_6 C6_6 1_555 1_555
C13_6 C7_6 1_555 1_555
N3_6 Zn2_2 1_555 1_555
O7_4 Zn2_2 1_555 1_555
O8_4 Zn2_2 1_555 1_555
N4_3 Zn2_2 1_555 1_555
C14_6 C9_6 1_555 1_555
C15_6 C10_6 1_555 1_555
C17_6 C12_6 1_555 1_555
C18_6 C13_6 1_555 1_555
C19_6 N3_6 1_555 1_555
C20_6 N3_6 1_555 1_555
C21_6 C14_6 1_555 1_555
S1_6 C18_6 1_555 1_555
N5_6 C18_6 1_555 1_555
C25_6 C21_6 1_555 1_555
C27_6 S1_6 1_555 1_555
C28_6 N5_6 1_555 1_555
N6_6 C27_6 1_555 1_555
S2_6 C28_6 1_555 1_555
C31_6 N6_6 1_555 1_555
C32_6 C31_6 1_555 1_555
C35_6 C32_6 1_555 1_555
C36_6 C32_6 1_555 1_555
C37_6 C35_6 1_555 1_555
C38_6 C36_6 1_555 1_555
O9_4 C25_6 1_555 1_555
O10_4 C25_6 1_555 1_555
Zn3_4 O9_4 1_555 1_555
N9_3 C37_6 1_555 1_555
C8_6 C13_6 1_555 1_555
C15_6 C21_6 1_555 1_555
C27_6 C28_6 1_555 1_555
S2_6 C31_6 1_555 1_555
C38_6 N9_3 1_555 1_555
O10_4 Zn3_4 1_555 1_555
C3_6 H1_6 1_555 1_555
C37_6 H2_6 1_555 1_555
C4_6 H3_6 1_555 1_555
C14_6 H4_6 1_555 1_555
C15_6 H5_6 1_555 1_555
C12_6 H6_6 1_555 1_555
C8_6 H7_6 1_555 1_555
C9_6 H8_6 1_555 1_555
C11_6 H9_6 1_555 1_555
C20_6 H10_6 1_555 1_555
C7_6 H11_6 1_555 1_555
C17_6 H13_6 1_555 1_555
C10_6 H14_6 1_555 1_555
C35_6 H17_6 1_555 1_555
C19_6 H18_6 1_555 1_555
C36_6 H19_6 1_555 1_555
C38_6 H23_5 1_555 1_555
C29_6 C23_6 1_555 1_555
C30_6 C29_6 1_555 1_555
S3_6 C30_6 1_555 1_555
N7_6 C30_6 1_555 1_555
C33_6 S3_6 1_555 1_555
C34_6 N7_6 1_555 1_555
N8_6 C33_6 1_555 1_555
S4_6 C34_6 1_555 1_555
C39_6 N8_6 1_555 1_555
C40_6 C39_6 1_555 1_555
C41_6 C40_6 1_555 1_555
C42_6 C40_6 1_555 1_555
C43_6 C41_6 1_555 1_555
C44_6 C42_6 1_555 1_555
N4_3 C43_6 1_555 1_555
C24_6 C29_6 1_555 1_555
C33_6 C34_6 1_555 1_555
S4_6 C39_6 1_555 1_555
C44_6 N4_3 1_555 1_555
C24_6 H15_6 1_555 1_555
C23_6 H16_6 1_555 1_555
C41_6 H20_6 1_555 1_555
C42_6 H21_6 1_555 1_555
C43_6 H22_6 1_555 1_555
C44_6 H24_6 1_555 1_555
Zn4_4 O1_7 1_555 1_555
O1_7 C1_7 1_555 1_555
N1_7 Zn4_4 1_555 1_555
C1_7 O5_7 1_555 1_555
C3_7 N1_7 1_555 1_555
C4_7 N1_7 1_555 1_555
C5_7 C1_7 1_555 1_555
C7_7 C3_7 1_555 1_555
C8_7 C4_7 1_555 1_555
C9_7 C5_7 1_555 1_555
C10_7 C5_7 1_555 1_555
C13_7 C7_7 1_555 1_555
C14_7 C9_7 1_555 1_555
C15_7 C10_7 1_555 1_555
C18_7 C13_7 1_555 1_555
C21_7 C14_7 1_555 1_555
S1_7 C18_7 1_555 1_555
N5_7 C18_7 1_555 1_555
C25_7 C21_7 1_555 1_555
C27_7 S1_7 1_555 1_555
C28_7 N5_7 1_555 1_555
N6_7 C27_7 1_555 1_555
S2_7 C28_7 1_555 1_555
C31_7 N6_7 1_555 1_555
C32_7 C31_7 1_555 1_555
C35_7 C32_7 1_555 1_555
C36_7 C32_7 1_555 1_555
C37_7 C35_7 1_555 1_555
C38_7 C36_7 1_555 1_555
O7_3 C25_7 1_555 1_555
O8_3 C25_7 1_555 1_555
N9_4 C37_7 1_555 1_555
C8_7 C13_7 1_555 1_555
C15_7 C21_7 1_555 1_555
C27_7 C28_7 1_555 1_555
S2_7 C31_7 1_555 1_555
C38_7 N9_4 1_555 1_555
C3_7 H1_7 1_555 1_555
C37_7 H2_7 1_555 1_555
C4_7 H3_7 1_555 1_555
C14_7 H4_7 1_555 1_555
C15_7 H5_7 1_555 1_555
C8_7 H7_7 1_555 1_555
C9_7 H8_7 1_555 1_555
C7_7 H11_7 1_555 1_555
C10_7 H14_7 1_555 1_555
C35_7 H17_7 1_555 1_555
C36_7 H19_7 1_555 1_555
C2_7 O2_7 1_555 1_555
O6_7 C2_7 1_555 1_555
C6_7 C2_7 1_555 1_555
Zn3_3 O6_7 1_555 1_555
C11_7 C6_7 1_555 1_555
C12_7 C6_7 1_555 1_555
N3_7 Zn3_3 1_555 1_555
N4_4 Zn3_3 1_555 1_555
C17_7 C12_7 1_555 1_555
C19_7 N3_7 1_555 1_555
C20_7 N3_7 1_555 1_555
C12_7 H6_7 1_555 1_555
C11_7 H9_7 1_555 1_555
C20_7 H10_7 1_555 1_555
C17_7 H13_7 1_555 1_555
C19_7 H18_7 1_555 1_555
C29_7 C23_7 1_555 1_555
C30_7 C29_7 1_555 1_555
S3_7 C30_7 1_555 1_555
N7_7 C30_7 1_555 1_555
C33_7 S3_7 1_555 1_555
C34_7 N7_7 1_555 1_555
N8_7 C33_7 1_555 1_555
S4_7 C34_7 1_555 1_555
C39_7 N8_7 1_555 1_555
C40_7 C39_7 1_555 1_555
C41_7 C40_7 1_555 1_555
C42_7 C40_7 1_555 1_555
C43_7 C41_7 1_555 1_555
C44_7 C42_7 1_555 1_555
N4_4 C43_7 1_555 1_555
C24_7 C29_7 1_555 1_555
C33_7 C34_7 1_555 1_555
S4_7 C39_7 1_555 1_555
C44_7 N4_4 1_555 1_555
C24_7 H15_7 1_555 1_555
C41_7 H20_7 1_555 1_555
C42_7 H21_7 1_555 1_555
C43_7 H22_7 1_555 1_555
C44_7 H24_7 1_555 1_555
C22_7 C16_7 1_555 1_555
C26_7 C22_7 1_555 1_555
O3_4 C26_7 1_555 1_555
O4_4 C26_7 1_555 1_555
C16_7 H12_7 1_555 1_555
C41_8 C40_8 1_555 1_555
C42_8 C40_8 1_555 1_555
C43_8 C41_8 1_555 1_555
C44_8 C42_8 1_555 1_555
N10_4 C43_8 1_555 1_555
Zn3_4 N10_4 1_555 1_555
C44_8 N10_4 1_555 1_555
C41_8 H20_8 1_555 1_555
C42_8 H21_8 1_555 1_555
C43_8 H22_8 1_555 1_555
C44_8 H24_8 1_555 1_555
Zn4_3 O1_8 1_555 1_555
O1_8 C1_8 1_555 1_555
N1_8 Zn4_3 1_555 1_555
N2_4 Zn4_3 1_555 1_555
C1_8 O5_8 1_555 1_555
C3_8 N1_8 1_555 1_555
C4_8 N1_8 1_555 1_555
C5_8 C1_8 1_555 1_555
C7_8 C3_8 1_555 1_555
C8_8 C4_8 1_555 1_555
C9_8 C5_8 1_555 1_555
C10_8 C5_8 1_555 1_555
C13_8 C7_8 1_555 1_555
C14_8 C9_8 1_555 1_555
C15_8 C10_8 1_555 1_555
C18_8 C13_8 1_555 1_555
C21_8 C14_8 1_555 1_555
C25_8 C21_8 1_555 1_555
O7_4 C25_8 1_555 1_555
O8_4 C25_8 1_555 1_555
C8_8 C13_8 1_555 1_555
C15_8 C21_8 1_555 1_555
C3_8 H1_8 1_555 1_555
C4_8 H3_8 1_555 1_555
C14_8 H4_8 1_555 1_555
C15_8 H5_8 1_555 1_555
C8_8 H7_8 1_555 1_555
C9_8 H8_8 1_555 1_555
C7_8 H11_8 1_555 1_555
C10_8 H14_8 1_555 1_555
C2_8 O2_8 1_555 1_555
O6_8 C2_8 1_555 1_555
C6_8 C2_8 1_555 1_555
Zn3_4 O6_8 1_555 1_555
C11_8 C6_8 1_555 1_555
C12_8 C6_8 1_555 1_555
N3_8 Zn3_4 1_555 1_555
C16_8 C11_8 1_555 1_555
C17_8 C12_8 1_555 1_555
C19_8 N3_8 1_555 1_555
C20_8 N3_8 1_555 1_555
C22_8 C16_8 1_555 1_555
C23_8 C19_8 1_555 1_555
C24_8 C20_8 1_555 1_555
C26_8 C22_8 1_555 1_555
C29_8 C23_8 1_555 1_555
C30_8 C29_8 1_555 1_555
S3_8 C30_8 1_555 1_555
N7_8 C30_8 1_555 1_555
C33_8 S3_8 1_555 1_555
C34_8 N7_8 1_555 1_555
N8_8 C33_8 1_555 1_555
S4_8 C34_8 1_555 1_555
C39_8 N8_8 1_555 1_555
O3_3 C26_8 1_555 1_555
O4_3 C26_8 1_555 1_555
C17_8 C22_8 1_555 1_555
C24_8 C29_8 1_555 1_555
C33_8 C34_8 1_555 1_555
S4_8 C39_8 1_555 1_555
C12_8 H6_8 1_555 1_555
C11_8 H9_8 1_555 1_555
C20_8 H10_8 1_555 1_555
C16_8 H12_8 1_555 1_555
C17_8 H13_8 1_555 1_555
C24_8 H15_8 1_555 1_555
C19_8 H18_8 1_555 1_555
C27_8 S1_8 1_555 1_555
C28_8 N5_8 1_555 1_555
N6_8 C27_8 1_555 1_555
S2_8 C28_8 1_555 1_555
C31_8 N6_8 1_555 1_555
C32_8 C31_8 1_555 1_555
C35_8 C32_8 1_555 1_555
C36_8 C32_8 1_555 1_555
C37_8 C35_8 1_555 1_555
C38_8 C36_8 1_555 1_555
N2_4 C37_8 1_555 1_555
C27_8 C28_8 1_555 1_555
S2_8 C31_8 1_555 1_555
C38_8 N2_4 1_555 1_555
C37_8 H2_8 1_555 1_555
C35_8 H17_8 1_555 1_555
C36_8 H19_8 1_555 1_555

#END
