
###############################################################################
#
# This file contains modified crystal structure data generated from the
# MOF subset of the Cambridge Structural Database (CSD) v543 
# hosted by the Cambridge Crystallographic Data Centre (CCDC).
#
# This work is licensed under the Creative Commons
# Attribution-NonCommercial-ShareAlike 4.0 International License.
# To view a copy of this license, visit
# http://creativecommons.org/licenses/by-nc-sa/4.0/
# or send a letter to
# Creative Commons, PO Box 1866, Mountain View, CA 94042, USA.
#
# CIF created using the CSD Python API on 29 September 2022
# The structure has been converted into the P1 space group
# The structure has a 3D framework
# The original CSD entry FORHAY is in the tetragonal crystal system
# The framework has been calculated to contain at least 10.0% void space
# The void calculation uses a probe of radius 1.32A, grid spacing 0.4
# H atom positions have been added when not included in the experimental data
# Generated hydrogen atom positions removed from atoms on special positions
#
###############################################################################

data_FORHAY
_chemical_formula_moiety         '(C84 H148 Mn29 N160 O20)n'
_symmetry_cell_setting           triclinic
_symmetry_space_group_name_H-M   'P 1'
_symmetry_Int_Tables_number      1
_space_group_name_Hall           'P 1'
loop_
_symmetry_equiv_pos_site_id
_symmetry_equiv_pos_as_xyz
1 x,y,z
_cell_length_a                   18.516(3)
_cell_length_b                   18.516(3)
_cell_length_c                   14.113(4)
_cell_angle_alpha                90
_cell_angle_beta                 90
_cell_angle_gamma                90
_cell_volume                     4838.53
loop_
_atom_site_label
_atom_site_type_symbol
_atom_site_fract_x
_atom_site_fract_y
_atom_site_fract_z
Mn1 Mn 0.17867(2) 0.07133(2) 0.375000
Mn6 Mn 0.32133(2) 0.07133(2) 0.125000
N21 N 0.06096(12) 0.06421(12) 0.35487(15)
N22 N 0.18579(12) 0.18904(12) 0.39513(15)
N25 N 0.30130(13) 0.06917(12) 0.36588(16)
N27 N 0.16159(12) 0.06821(12) 0.21590(15)
N28 N 0.18179(12) 0.08841(12) 0.53410(15)
Mn2 Mn 0.250000 0.750000 0.250000
O1 O 0.3365(2) 0.750000 0.3471(3)
N1 N 0.18579(12) 0.81096(12) 0.60487(15)
N2 N 0.19487(14) 0.83672(12) 0.34579(15)
N3 N 0.18751(14) 0.90477(13) 0.31269(17)
N4 N 0.18083(12) 0.94870(13) 0.38412(16)
N5 N 0.18179(12) 0.91159(12) 0.46590(15)
C1 C 0.1834(2) 0.750000 0.6559(3)
H1 H 0.180359 0.750001 0.721706
C2 C 0.19122(14) 0.78723(14) 0.51308(18)
C3 C 0.19032(14) 0.84269(14) 0.44000(18)
N6 N 0.18579(12) 0.68904(12) 0.60487(15)
N7 N 0.19487(14) 0.66328(12) 0.34579(15)
N8 N 0.18751(14) 0.59523(13) 0.31269(17)
N9 N 0.18083(12) 0.55130(13) 0.38412(16)
N10 N 0.18179(12) 0.58841(12) 0.46590(15)
C4 C 0.19122(14) 0.71277(14) 0.51308(18)
C5 C 0.19032(14) 0.65731(14) 0.44000(18)
O2 O 0.1635(2) 0.750000 0.1529(3)
N12 N 0.30513(14) 0.83672(12) 0.15421(15)
N13 N 0.31249(14) 0.90477(13) 0.18731(17)
N14 N 0.31917(12) 0.94870(13) 0.11588(16)
N15 N 0.31821(12) 0.91159(12) 0.03410(15)
C8 C 0.30968(14) 0.84269(14) 0.06000(18)
N17 N 0.30513(14) 0.66328(12) 0.15421(15)
N18 N 0.31249(14) 0.59523(13) 0.18731(17)
N19 N 0.31917(12) 0.55130(13) 0.11588(16)
N20 N 0.31821(12) 0.58841(12) 0.03410(15)
C10 C 0.30968(14) 0.65731(14) 0.06000(18)
Mn3 Mn 0.17867(2) 0.42867(2) 0.375000
Mn5 Mn 0.17867(2) 0.92867(2) 0.625000
Mn7 Mn 0.32133(2) 0.42867(2) 0.125000
Mn8 Mn 0.17867(2) 0.57133(2) 0.625000
N23 N 0.18579(12) 0.31096(12) 0.39513(15)
N24 N 0.06096(12) 0.43579(12) 0.35487(15)
N26 N 0.30130(13) 0.43083(12) 0.36588(16)
N29 N 0.18179(12) 0.41159(12) 0.53410(15)
N30 N 0.16159(12) 0.43179(12) 0.21590(15)
N11 N 0.31421(12) 0.81096(12) 0.89513(15)
C6 C 0.3166(2) 0.750000 0.8441(3)
H2 H 0.319641 0.750001 0.778294
C7 C 0.30878(14) 0.78723(14) 0.98692(18)
N16 N 0.31421(12) 0.68904(12) 0.89513(15)
C9 C 0.30878(14) 0.71277(14) 0.98692(18)
Mn4 Mn 0.32133(2) 0.92867(2) 0.875000
Mn9 Mn 0.32133(2) 0.57133(2) 0.875000
N1_2 N 0.31421(12) 0.18904(12) 0.10487(15)
C1_2 C 0.3166(2) 0.250000 0.1559(3)
H1_2 H 0.319641 0.249999 0.221706
C2_2 C 0.30878(14) 0.21277(14) 0.01308(18)
N6_2 N 0.31421(12) 0.31096(12) 0.10487(15)
C4_2 C 0.30878(14) 0.28723(14) 0.01308(18)
Mn2_2 Mn 0.250000 0.250000 0.750000
O1_2 O 0.1635(2) 0.250000 0.8471(3)
N2_2 N 0.30513(14) 0.16328(12) 0.84579(15)
N3_2 N 0.31249(14) 0.09523(13) 0.81269(17)
N4_2 N 0.31917(12) 0.05130(13) 0.88412(16)
N5_2 N 0.31821(12) 0.08841(12) 0.96590(15)
C3_2 C 0.30968(14) 0.15731(14) 0.94000(18)
N7_2 N 0.30513(14) 0.33672(12) 0.84579(15)
N8_2 N 0.31249(14) 0.40477(13) 0.81269(17)
N9_2 N 0.31917(12) 0.44870(13) 0.88412(16)
N10_2 N 0.31821(12) 0.41159(12) 0.96590(15)
C5_2 C 0.30968(14) 0.34269(14) 0.94000(18)
O2_2 O 0.3365(2) 0.250000 0.6529(3)
N12_2 N 0.19487(14) 0.16328(12) 0.65421(15)
N13_2 N 0.18751(14) 0.09523(13) 0.68731(17)
N14_2 N 0.18083(12) 0.05130(13) 0.61588(16)
C6_2 C 0.1834(2) 0.250000 0.3441(3)
H2_2 H 0.180359 0.249999 0.278294
C7_2 C 0.19122(14) 0.21277(14) 0.48692(18)
C8_2 C 0.19032(14) 0.15731(14) 0.56000(18)
N17_2 N 0.19487(14) 0.33672(12) 0.65421(15)
N18_2 N 0.18751(14) 0.40477(13) 0.68731(17)
N19_2 N 0.18083(12) 0.44870(13) 0.61588(16)
C9_2 C 0.19122(14) 0.28723(14) 0.48692(18)
C10_2 C 0.19032(14) 0.34269(14) 0.56000(18)
N24_2 N 0.43904(12) 0.56421(12) 0.85487(15)
N26_2 N 0.19870(13) 0.56917(12) 0.86588(16)
N30_2 N 0.33841(12) 0.56821(12) 0.71590(15)
N21_2 N 0.43904(12) 0.93579(12) 0.85487(15)
N25_2 N 0.19870(13) 0.93083(12) 0.86588(16)
N27_2 N 0.33841(12) 0.93179(12) 0.71590(15)
Mn2_3 Mn 0.500000 -0.000000 0.500000
O1_3 O 0.500000 0.0865(2) 0.5971(3)
N11_2 N 0.43904(12) 0.06421(12) 0.14513(15)
N12_3 N 0.41328(12) 0.05513(14) 0.40421(15)
N13_3 N 0.34523(13) 0.06249(14) 0.43731(17)
N15_2 N 0.33841(12) 0.06821(12) 0.28410(15)
C6_3 C 0.500000 0.0666(2) 0.0941(3)
H2_3 H 0.499999 0.069641 0.028294
C7_3 C 0.46277(14) 0.05878(14) 0.23692(18)
C8_3 C 0.40731(14) 0.05968(14) 0.31000(18)
N16_2 N 0.56096(12) 0.06421(12) 0.14513(15)
N17_3 N 0.58672(12) 0.05513(14) 0.40421(15)
N18_3 N 0.65477(13) 0.06249(14) 0.43731(17)
N19_3 N 0.69870(13) 0.06917(12) 0.36588(16)
N20_2 N 0.66159(12) 0.06821(12) 0.28410(15)
C9_3 C 0.53723(14) 0.05878(14) 0.23692(18)
C10_3 C 0.59269(14) 0.05968(14) 0.31000(18)
Mn7_2 Mn 0.82133(2) 0.07133(2) 0.375000
Mn9_2 Mn 0.67867(2) 0.07133(2) 0.125000
N26_3 N 0.81917(12) 0.05130(13) 0.61588(16)
Mn2_4 Mn 0.500000 1.000000 0.500000
N2_3 N 0.41328(12) 0.94487(14) 0.59579(15)
N3_3 N 0.34523(13) 0.93751(14) 0.56269(17)
N4_3 N 0.30130(13) 0.93083(12) 0.63412(16)
C1_3 C 0.500000 0.9334(2) 0.9059(3)
H1_3 H 0.499999 0.930359 0.971706
C2_3 C 0.46277(14) 0.94122(14) 0.76308(18)
C3_3 C 0.40731(14) 0.94032(14) 0.69000(18)
N6_3 N 0.56096(12) 0.93579(12) 0.85487(15)
N7_3 N 0.58672(12) 0.94487(14) 0.59579(15)
N8_3 N 0.65477(13) 0.93751(14) 0.56269(17)
N9_3 N 0.69870(13) 0.93083(12) 0.63412(16)
N10_3 N 0.66159(12) 0.93179(12) 0.71590(15)
C4_3 C 0.53723(14) 0.94122(14) 0.76308(18)
C5_3 C 0.59269(14) 0.94032(14) 0.69000(18)
O2_3 O 0.500000 0.9135(2) 0.4029(3)
Mn3_2 Mn 0.82133(2) 0.92867(2) 0.625000
Mn8_2 Mn 0.67867(2) 0.92867(2) 0.875000
N22_2 N 0.06096(12) 0.93579(12) 0.64513(15)
N23_2 N 0.93904(12) 0.93579(12) 0.64513(15)
N24_3 N 0.81421(12) 0.81096(12) 0.60487(15)
N28_2 N 0.16159(12) 0.93179(12) 0.78410(15)
N29_2 N 0.83841(12) 0.93179(12) 0.78410(15)
N30_3 N 0.81821(12) 0.91159(12) 0.46590(15)
Mn2_5 Mn 0.000000 0.000000 0.000000
N2_4 N 0.08672(12) 0.05513(14) 0.09579(15)
N3_4 N 0.15477(13) 0.06249(14) 0.06269(17)
N4_4 N 0.19870(13) 0.06917(12) 0.13412(16)
C1_4 C -0.000000 0.0666(2) 0.4059(3)
H1_4 H 0.000001 0.069641 0.471706
C2_4 C 0.03723(14) 0.05878(14) 0.26308(18)
C3_4 C 0.09269(14) 0.05968(14) 0.19000(18)
Mn2_6 Mn -0.000000 -0.000000 1.000000
O2_4 O -0.000000 0.0865(2) 0.9029(3)
Mn2_7 Mn 0.000000 1.000000 0.000000
O1_4 O 0.000000 0.9135(2) 0.0971(3)
Mn2_8 Mn -0.000000 1.000000 1.000000
N12_4 N 0.08672(12) 0.94487(14) 0.90421(15)
N13_4 N 0.15477(13) 0.93751(14) 0.93731(17)
C6_4 C 0.000000 0.9334(2) 0.5941(3)
H2_4 H 0.000001 0.930359 0.528294
C7_4 C 0.03723(14) 0.94122(14) 0.73692(18)
C8_4 C 0.09269(14) 0.94032(14) 0.81000(18)
Mn2_9 Mn 1.000000 0.000000 0.000000
C1_5 C 1.000000 0.0666(2) 0.4059(3)
H1_5 H 1.000001 0.069641 0.471706
N6_4 N 0.93904(12) 0.06421(12) 0.35487(15)
N7_4 N 0.91328(12) 0.05513(14) 0.09579(15)
N8_4 N 0.84523(13) 0.06249(14) 0.06269(17)
N9_4 N 0.80130(13) 0.06917(12) 0.13412(16)
N10_4 N 0.83841(12) 0.06821(12) 0.21590(15)
C4_4 C 0.96277(14) 0.05878(14) 0.26308(18)
C5_4 C 0.90731(14) 0.05968(14) 0.19000(18)
N24_4 N 0.68579(12) 0.18904(12) 0.10487(15)
Mn2_10 Mn 1.000000 -0.000000 1.000000
O2_5 O 1.000000 0.0865(2) 0.9029(3)
N30_4 N 0.68179(12) 0.08841(12) 0.96590(15)
Mn2_11 Mn 1.000000 1.000000 0.000000
O1_5 O 1.000000 0.9135(2) 0.0971(3)
N26_4 N 0.68083(12) 0.94870(13) 0.11588(16)
Mn2_12 Mn 1.000000 1.000000 1.000000
C6_5 C 1.000000 0.9334(2) 0.5941(3)
H2_5 H 1.000001 0.930359 0.528294
N17_4 N 0.91328(12) 0.94487(14) 0.90421(15)
N18_4 N 0.84523(13) 0.93751(14) 0.93731(17)
N19_4 N 0.80130(13) 0.93083(12) 0.86588(16)
C9_4 C 0.96277(14) 0.94122(14) 0.73692(18)
C10_4 C 0.90731(14) 0.94032(14) 0.81000(18)
N24_5 N 0.43904(12) 0.43579(12) 0.14513(15)
N26_5 N 0.19870(13) 0.43083(12) 0.13412(16)
N30_5 N 0.33841(12) 0.43179(12) 0.28410(15)
N24_6 N 0.06096(12) 0.56421(12) 0.64513(15)
N26_6 N 0.30130(13) 0.56917(12) 0.63412(16)
N30_6 N 0.16159(12) 0.56821(12) 0.78410(15)
N26_7 N 0.68083(12) 0.05130(13) 0.88412(16)
N30_7 N 0.68179(12) 0.91159(12) 0.03410(15)
N24_7 N 0.68579(12) 0.81096(12) 0.89513(15)
N24_8 N 0.81421(12) 0.18904(12) 0.39513(15)
N30_8 N 0.81821(12) 0.08841(12) 0.53410(15)
N26_8 N 0.81917(12) 0.94870(13) 0.38412(16)
N1_3 N 0.68579(12) 0.31096(12) 0.10487(15)
C1_6 C 0.6834(2) 0.250000 0.1559(3)
H1_6 H 0.680359 0.250001 0.221706
C2_5 C 0.69122(14) 0.28723(14) 0.01308(18)
C4_5 C 0.69122(14) 0.21277(14) 0.01308(18)
Mn5_2 Mn 0.67867(2) 0.42867(2) 0.125000
N28_3 N 0.68179(12) 0.58841(12) 0.03410(15)
Mn1_2 Mn 0.67867(2) 0.57133(2) 0.875000
Mn2_13 Mn 0.750000 0.250000 0.750000
O1_6 O 0.8365(2) 0.250000 0.8471(3)
N2_5 N 0.69487(14) 0.33672(12) 0.84579(15)
N3_5 N 0.68751(14) 0.40477(13) 0.81269(17)
N4_5 N 0.68083(12) 0.44870(13) 0.88412(16)
N5_3 N 0.68179(12) 0.41159(12) 0.96590(15)
C3_5 C 0.69032(14) 0.34269(14) 0.94000(18)
N7_5 N 0.69487(14) 0.16328(12) 0.84579(15)
N8_5 N 0.68751(14) 0.09523(13) 0.81269(17)
C5_5 C 0.69032(14) 0.15731(14) 0.94000(18)
O2_6 O 0.6635(2) 0.250000 0.6529(3)
N11_3 N 0.81421(12) 0.31096(12) 0.39513(15)
N12_5 N 0.80513(14) 0.33672(12) 0.65421(15)
N13_5 N 0.81249(14) 0.40477(13) 0.68731(17)
N14_3 N 0.81917(12) 0.44870(13) 0.61588(16)
N15_3 N 0.81821(12) 0.41159(12) 0.53410(15)
C6_6 C 0.8166(2) 0.250000 0.3441(3)
H2_6 H 0.819641 0.250001 0.278294
C7_5 C 0.80878(14) 0.28723(14) 0.48692(18)
C8_5 C 0.80968(14) 0.34269(14) 0.56000(18)
N17_5 N 0.80513(14) 0.16328(12) 0.65421(15)
N18_5 N 0.81249(14) 0.09523(13) 0.68731(17)
C9_5 C 0.80878(14) 0.21277(14) 0.48692(18)
C10_5 C 0.80968(14) 0.15731(14) 0.56000(18)
Mn4_2 Mn 0.82133(2) 0.42867(2) 0.375000
Mn6_2 Mn 0.82133(2) 0.57133(2) 0.625000
N21_3 N 0.56096(12) 0.56421(12) 0.85487(15)
N22_3 N 0.68579(12) 0.68904(12) 0.89513(15)
N25_3 N 0.80130(13) 0.56917(12) 0.86588(16)
N27_3 N 0.66159(12) 0.56821(12) 0.71590(15)
Mn2_14 Mn 0.750000 0.750000 0.250000
O1_7 O 0.6635(2) 0.750000 0.3471(3)
N1_4 N 0.81421(12) 0.68904(12) 0.60487(15)
N2_6 N 0.80513(14) 0.66328(12) 0.34579(15)
N3_6 N 0.81249(14) 0.59523(13) 0.31269(17)
N4_6 N 0.81917(12) 0.55130(13) 0.38412(16)
N5_4 N 0.81821(12) 0.58841(12) 0.46590(15)
C1_7 C 0.8166(2) 0.750000 0.6559(3)
H1_7 H 0.819641 0.749999 0.721706
C2_6 C 0.80878(14) 0.71277(14) 0.51308(18)
C3_6 C 0.80968(14) 0.65731(14) 0.44000(18)
N7_6 N 0.80513(14) 0.83672(12) 0.34579(15)
N8_6 N 0.81249(14) 0.90477(13) 0.31269(17)
C4_6 C 0.80878(14) 0.78723(14) 0.51308(18)
C5_6 C 0.80968(14) 0.84269(14) 0.44000(18)
O2_7 O 0.8365(2) 0.750000 0.1529(3)
N12_6 N 0.69487(14) 0.66328(12) 0.15421(15)
N13_6 N 0.68751(14) 0.59523(13) 0.18731(17)
N14_4 N 0.68083(12) 0.55130(13) 0.11588(16)
C8_6 C 0.69032(14) 0.65731(14) 0.06000(18)
N17_6 N 0.69487(14) 0.83672(12) 0.15421(15)
N18_6 N 0.68751(14) 0.90477(13) 0.18731(17)
C10_6 C 0.69032(14) 0.84269(14) 0.06000(18)
N21_4 N 0.93904(12) 0.43579(12) 0.35487(15)
N25_4 N 0.69870(13) 0.43083(12) 0.36588(16)
N27_4 N 0.83841(12) 0.43179(12) 0.21590(15)
C6_7 C 0.6834(2) 0.750000 0.8441(3)
H2_7 H 0.680359 0.749999 0.778294
C7_6 C 0.69122(14) 0.71277(14) 0.98692(18)
C9_6 C 0.69122(14) 0.78723(14) 0.98692(18)
Mn2_15 Mn 0.000000 0.500000 0.000000
O1_8 O -0.000000 0.5865(2) 0.0971(3)
C1_8 C -0.000000 0.4334(2) 0.4059(3)
H1_8 H -0.000001 0.430359 0.471706
N7_7 N 0.08672(12) 0.44487(14) 0.09579(15)
N8_7 N 0.15477(13) 0.43751(14) 0.06269(17)
C4_7 C 0.03723(14) 0.44122(14) 0.26308(18)
C5_7 C 0.09269(14) 0.44032(14) 0.19000(18)
Mn2_16 Mn -0.000000 0.500000 1.000000
O2_8 O -0.000000 0.4135(2) 0.9029(3)
C6_8 C 0.000000 0.5666(2) 0.5941(3)
H2_8 H -0.000001 0.569641 0.528294
N17_7 N 0.08672(12) 0.55513(14) 0.90421(15)
N18_7 N 0.15477(13) 0.56249(14) 0.93731(17)
C9_7 C 0.03723(14) 0.55878(14) 0.73692(18)
C10_7 C 0.09269(14) 0.55968(14) 0.81000(18)
Mn2_17 Mn 1.000000 0.500000 0.000000
O1_9 O 1.000000 0.5865(2) 0.0971(3)
N2_7 N 0.91328(12) 0.44487(14) 0.09579(15)
N3_7 N 0.84523(13) 0.43751(14) 0.06269(17)
N4_7 N 0.80130(13) 0.43083(12) 0.13412(16)
C1_9 C 1.000000 0.4334(2) 0.4059(3)
H1_9 H 0.999999 0.430359 0.471706
C2_7 C 0.96277(14) 0.44122(14) 0.26308(18)
C3_7 C 0.90731(14) 0.44032(14) 0.19000(18)
N22_4 N 0.56096(12) 0.43579(12) 0.14513(15)
N28_4 N 0.66159(12) 0.43179(12) 0.28410(15)
Mn2_18 Mn 1.000000 0.500000 1.000000
O2_9 O 1.000000 0.4135(2) 0.9029(3)
N11_4 N 0.93904(12) 0.56421(12) 0.64513(15)
N12_7 N 0.91328(12) 0.55513(14) 0.90421(15)
N13_7 N 0.84523(13) 0.56249(14) 0.93731(17)
N15_4 N 0.83841(12) 0.56821(12) 0.78410(15)
C6_9 C 1.000000 0.5666(2) 0.5941(3)
H2_9 H 0.999999 0.569641 0.528294
C7_7 C 0.96277(14) 0.55878(14) 0.73692(18)
C8_7 C 0.90731(14) 0.55968(14) 0.81000(18)
Mn2_19 Mn 0.500000 0.500000 0.500000
O1_10 O 0.500000 0.4135(2) 0.5971(3)
N2_8 N 0.58672(12) 0.55513(14) 0.59579(15)
N3_8 N 0.65477(13) 0.56249(14) 0.56269(17)
N4_8 N 0.69870(13) 0.56917(12) 0.63412(16)
C1_10 C 0.500000 0.5666(2) 0.9059(3)
H1_10 H 0.500001 0.569641 0.971706
C2_8 C 0.53723(14) 0.55878(14) 0.76308(18)
C3_8 C 0.59269(14) 0.55968(14) 0.69000(18)
N7_8 N 0.41328(12) 0.55513(14) 0.59579(15)
N8_8 N 0.34523(13) 0.56249(14) 0.56269(17)
C4_8 C 0.46277(14) 0.55878(14) 0.76308(18)
C5_8 C 0.40731(14) 0.55968(14) 0.69000(18)
O2_10 O 0.500000 0.5865(2) 0.4029(3)
N12_8 N 0.58672(12) 0.44487(14) 0.40421(15)
N13_8 N 0.65477(13) 0.43751(14) 0.43731(17)
C6_10 C 0.500000 0.4334(2) 0.0941(3)
H2_10 H 0.500001 0.430359 0.028294
C7_8 C 0.53723(14) 0.44122(14) 0.23692(18)
C8_8 C 0.59269(14) 0.44032(14) 0.31000(18)
N17_8 N 0.41328(12) 0.44487(14) 0.40421(15)
N18_8 N 0.34523(13) 0.43751(14) 0.43731(17)
C9_8 C 0.46277(14) 0.44122(14) 0.23692(18)
C10_8 C 0.40731(14) 0.44032(14) 0.31000(18)
loop_
_geom_bond_atom_site_label_1
_geom_bond_atom_site_label_2
_geom_bond_site_symmetry_1
_geom_bond_site_symmetry_2
N21 Mn1 1_555 1_555
N22 Mn1 1_555 1_555
N25 Mn1 1_555 1_555
N27 Mn1 1_555 1_555
N28 Mn1 1_555 1_555
Mn2 O1 1_555 1_555
N1 C1 1_555 1_555
N2 Mn2 1_555 1_555
N3 N2 1_555 1_555
N4 N3 1_555 1_555
N5 N4 1_555 1_555
C1 H1 1_555 1_555
C2 N1 1_555 1_555
C3 N2 1_555 1_555
N6 C1 1_555 1_555
N7 Mn2 1_555 1_555
N8 N7 1_555 1_555
N9 N8 1_555 1_555
N10 N9 1_555 1_555
C4 C2 1_555 1_555
C5 N7 1_555 1_555
O2 Mn2 1_555 1_555
N12 Mn2 1_555 1_555
N13 N12 1_555 1_555
N14 N13 1_555 1_555
N15 N14 1_555 1_555
C8 N12 1_555 1_555
N17 Mn2 1_555 1_555
N18 N17 1_555 1_555
N19 N18 1_555 1_555
N20 N19 1_555 1_555
C10 N17 1_555 1_555
Mn3 N9 1_555 1_555
Mn5 N1 1_555 1_555
Mn7 N19 1_555 1_555
Mn8 N6 1_555 1_555
N23 Mn3 1_555 1_555
N24 Mn3 1_555 1_555
N26 Mn3 1_555 1_555
N29 Mn3 1_555 1_555
N30 Mn3 1_555 1_555
N5 C3 1_555 1_555
N5 Mn5 1_555 1_555
C2 C3 1_555 1_555
N6 C4 1_555 1_555
N10 C5 1_555 1_555
N10 Mn8 1_555 1_555
C4 C5 1_555 1_555
N15 C8 1_555 1_555
N20 C10 1_555 1_555
N11 C6 1_555 1_555
C6 H2 1_555 1_555
C7 N11 1_555 1_555
N16 C6 1_555 1_555
C9 C7 1_555 1_555
Mn4 N11 1_555 1_555
Mn9 N16 1_555 1_555
N16 C9 1_555 1_555
N1_2 C1_2 1_555 1_555
C1_2 H1_2 1_555 1_555
C2_2 N1_2 1_555 1_555
N6_2 C1_2 1_555 1_555
C4_2 C2_2 1_555 1_555
Mn6 N1_2 1_555 1_555
Mn7 N6_2 1_555 1_555
N6_2 C4_2 1_555 1_555
Mn2_2 O1_2 1_555 1_555
N2_2 Mn2_2 1_555 1_555
N3_2 N2_2 1_555 1_555
N4_2 N3_2 1_555 1_555
N5_2 N4_2 1_555 1_555
C3_2 N2_2 1_555 1_555
N7_2 Mn2_2 1_555 1_555
N8_2 N7_2 1_555 1_555
N9_2 N8_2 1_555 1_555
N10_2 N9_2 1_555 1_555
C5_2 N7_2 1_555 1_555
O2_2 Mn2_2 1_555 1_555
N22 C6_2 1_555 1_555
N12_2 Mn2_2 1_555 1_555
N13_2 N12_2 1_555 1_555
N14_2 N13_2 1_555 1_555
N28 N14_2 1_555 1_555
C6_2 H2_2 1_555 1_555
C7_2 N22 1_555 1_555
C8_2 N12_2 1_555 1_555
N23 C6_2 1_555 1_555
N17_2 Mn2_2 1_555 1_555
N18_2 N17_2 1_555 1_555
N19_2 N18_2 1_555 1_555
N29 N19_2 1_555 1_555
C9_2 C7_2 1_555 1_555
C10_2 N17_2 1_555 1_555
Mn9 N9_2 1_555 1_555
Mn8 N19_2 1_555 1_555
N24_2 Mn9 1_555 1_555
N26_2 Mn9 1_555 1_555
N30_2 Mn9 1_555 1_555
N5_2 C3_2 1_555 1_555
N10_2 C5_2 1_555 1_555
N28 C8_2 1_555 1_555
C7_2 C8_2 1_555 1_555
N23 C9_2 1_555 1_555
N29 C10_2 1_555 1_555
C9_2 C10_2 1_555 1_555
N21_2 Mn4 1_555 1_555
N25_2 Mn4 1_555 1_555
N27_2 Mn4 1_555 1_555
Mn2_3 O1_3 1_555 1_555
N11_2 C6_3 1_555 1_555
N12_3 Mn2_3 1_555 1_555
N13_3 N12_3 1_555 1_555
N25 N13_3 1_555 1_555
N15_2 N25 1_555 1_555
C6_3 H2_3 1_555 1_555
C7_3 N11_2 1_555 1_555
C8_3 N12_3 1_555 1_555
N16_2 C6_3 1_555 1_555
N17_3 Mn2_3 1_555 1_555
N18_3 N17_3 1_555 1_555
N19_3 N18_3 1_555 1_555
N20_2 N19_3 1_555 1_555
C9_3 C7_3 1_555 1_555
C10_3 N17_3 1_555 1_555
Mn6 N11_2 1_555 1_555
Mn7_2 N19_3 1_555 1_555
Mn9_2 N16_2 1_555 1_555
N15_2 C8_3 1_555 1_555
N15_2 Mn6 1_555 1_555
C7_3 C8_3 1_555 1_555
N16_2 C9_3 1_555 1_555
N20_2 C10_3 1_555 1_555
N20_2 Mn9_2 1_555 1_555
C9_3 C10_3 1_555 1_555
Mn5 N4_3 1_555 1_555
N21_2 C1_3 1_555 1_555
N2_3 Mn2_4 1_555 1_555
N3_3 N2_3 1_555 1_555
N4_3 N3_3 1_555 1_555
N27_2 N4_3 1_555 1_555
C1_3 H1_3 1_555 1_555
C2_3 N21_2 1_555 1_555
C3_3 N2_3 1_555 1_555
N6_3 C1_3 1_555 1_555
N7_3 Mn2_4 1_555 1_555
N8_3 N7_3 1_555 1_555
N9_3 N8_3 1_555 1_555
N10_3 N9_3 1_555 1_555
C4_3 C2_3 1_555 1_555
C5_3 N7_3 1_555 1_555
O2_3 Mn2_4 1_555 1_555
Mn3_2 N9_3 1_555 1_555
Mn8_2 N6_3 1_555 1_555
N22_2 Mn5 1_555 1_555
N23_2 Mn3_2 1_555 1_555
N24_3 Mn3_2 1_555 1_555
N28_2 Mn5 1_555 1_555
N29_2 Mn3_2 1_555 1_555
N30_3 Mn3_2 1_555 1_555
N27_2 C3_3 1_555 1_555
C2_3 C3_3 1_555 1_555
N6_3 C4_3 1_555 1_555
N10_3 C5_3 1_555 1_555
N10_3 Mn8_2 1_555 1_555
C4_3 C5_3 1_555 1_555
Mn6 N4_4 1_555 1_555
N21 C1_4 1_555 1_555
N2_4 Mn2_5 1_555 1_555
N3_4 N2_4 1_555 1_555
N4_4 N3_4 1_555 1_555
N27 N4_4 1_555 1_555
C1_4 H1_4 1_555 1_555
C2_4 N21 1_555 1_555
C3_4 N2_4 1_555 1_555
N27 C3_4 1_555 1_555
C2_4 C3_4 1_555 1_555
O2_4 Mn2_6 1_555 1_555
Mn2_7 O1_4 1_555 1_555
N22_2 C6_4 1_555 1_555
N12_4 Mn2_8 1_555 1_555
N13_4 N12_4 1_555 1_555
N25_2 N13_4 1_555 1_555
N28_2 N25_2 1_555 1_555
C6_4 H2_4 1_555 1_555
C7_4 N22_2 1_555 1_555
C8_4 N12_4 1_555 1_555
N28_2 C8_4 1_555 1_555
C7_4 C8_4 1_555 1_555
C1_5 H1_5 1_555 1_555
N6_4 C1_5 1_555 1_555
N7_4 Mn2_9 1_555 1_555
N8_4 N7_4 1_555 1_555
N9_4 N8_4 1_555 1_555
N10_4 N9_4 1_555 1_555
C5_4 N7_4 1_555 1_555
Mn9_2 N9_4 1_555 1_555
Mn7_2 N6_4 1_555 1_555
N24_4 Mn9_2 1_555 1_555
N6_4 C4_4 1_555 1_555
N10_4 C5_4 1_555 1_555
N10_4 Mn7_2 1_555 1_555
C4_4 C5_4 1_555 1_555
O2_5 Mn2_10 1_555 1_555
Mn2_11 O1_5 1_555 1_555
C6_5 H2_5 1_555 1_555
N23_2 C6_5 1_555 1_555
N17_4 Mn2_12 1_555 1_555
N18_4 N17_4 1_555 1_555
N19_4 N18_4 1_555 1_555
N29_2 N19_4 1_555 1_555
C10_4 N17_4 1_555 1_555
Mn8_2 N19_4 1_555 1_555
N23_2 C9_4 1_555 1_555
N29_2 C10_4 1_555 1_555
C9_4 C10_4 1_555 1_555
N24_5 Mn7 1_555 1_555
N26_5 Mn7 1_555 1_555
N30_5 Mn7 1_555 1_555
N24_6 Mn8 1_555 1_555
N26_6 Mn8 1_555 1_555
N30_6 Mn8 1_555 1_555
N24_7 Mn8_2 1_555 1_555
N24_8 Mn7_2 1_555 1_555
N30_8 Mn7_2 1_555 1_555
N1_3 C1_6 1_555 1_555
C1_6 H1_6 1_555 1_555
C2_5 N1_3 1_555 1_555
N24_4 C1_6 1_555 1_555
C4_5 C2_5 1_555 1_555
Mn5_2 N1_3 1_555 1_555
N24_4 C4_5 1_555 1_555
Mn1_2 N4_5 1_555 1_555
Mn2_13 O1_6 1_555 1_555
N2_5 Mn2_13 1_555 1_555
N3_5 N2_5 1_555 1_555
N4_5 N3_5 1_555 1_555
N5_3 N4_5 1_555 1_555
C3_5 N2_5 1_555 1_555
N7_5 Mn2_13 1_555 1_555
N8_5 N7_5 1_555 1_555
N26_7 N8_5 1_555 1_555
N30_4 N26_7 1_555 1_555
C5_5 N7_5 1_555 1_555
O2_6 Mn2_13 1_555 1_555
N11_3 C6_6 1_555 1_555
N12_5 Mn2_13 1_555 1_555
N13_5 N12_5 1_555 1_555
N14_3 N13_5 1_555 1_555
N15_3 N14_3 1_555 1_555
C6_6 H2_6 1_555 1_555
C7_5 N11_3 1_555 1_555
C8_5 N12_5 1_555 1_555
N24_8 C6_6 1_555 1_555
N17_5 Mn2_13 1_555 1_555
N18_5 N17_5 1_555 1_555
N26_3 N18_5 1_555 1_555
N30_8 N26_3 1_555 1_555
C9_5 C7_5 1_555 1_555
C10_5 N17_5 1_555 1_555
Mn4_2 N11_3 1_555 1_555
Mn6_2 N14_3 1_555 1_555
N21_3 Mn1_2 1_555 1_555
N22_3 Mn1_2 1_555 1_555
N25_3 Mn1_2 1_555 1_555
N27_3 Mn1_2 1_555 1_555
N5_3 C3_5 1_555 1_555
N30_4 C5_5 1_555 1_555
N15_3 C8_5 1_555 1_555
N15_3 Mn4_2 1_555 1_555
C7_5 C8_5 1_555 1_555
N24_8 C9_5 1_555 1_555
N30_8 C10_5 1_555 1_555
C9_5 C10_5 1_555 1_555
Mn4_2 N4_6 1_555 1_555
Mn2_14 O1_7 1_555 1_555
N1_4 C1_7 1_555 1_555
N2_6 Mn2_14 1_555 1_555
N3_6 N2_6 1_555 1_555
N4_6 N3_6 1_555 1_555
N5_4 N4_6 1_555 1_555
C1_7 H1_7 1_555 1_555
C2_6 N1_4 1_555 1_555
C3_6 N2_6 1_555 1_555
N24_3 C1_7 1_555 1_555
N7_6 Mn2_14 1_555 1_555
N8_6 N7_6 1_555 1_555
N26_8 N8_6 1_555 1_555
N30_3 N26_8 1_555 1_555
C4_6 C2_6 1_555 1_555
C5_6 N7_6 1_555 1_555
O2_7 Mn2_14 1_555 1_555
N12_6 Mn2_14 1_555 1_555
N13_6 N12_6 1_555 1_555
N14_4 N13_6 1_555 1_555
N28_3 N14_4 1_555 1_555
C8_6 N12_6 1_555 1_555
N17_6 Mn2_14 1_555 1_555
N18_6 N17_6 1_555 1_555
N26_4 N18_6 1_555 1_555
N30_7 N26_4 1_555 1_555
C10_6 N17_6 1_555 1_555
Mn6_2 N1_4 1_555 1_555
Mn5_2 N14_4 1_555 1_555
N21_4 Mn4_2 1_555 1_555
N25_4 Mn4_2 1_555 1_555
N27_4 Mn4_2 1_555 1_555
N5_4 C3_6 1_555 1_555
N5_4 Mn6_2 1_555 1_555
C2_6 C3_6 1_555 1_555
N24_3 C4_6 1_555 1_555
N30_3 C5_6 1_555 1_555
C4_6 C5_6 1_555 1_555
N28_3 C8_6 1_555 1_555
N30_7 C10_6 1_555 1_555
N22_3 C6_7 1_555 1_555
C6_7 H2_7 1_555 1_555
C7_6 N22_3 1_555 1_555
N24_7 C6_7 1_555 1_555
C9_6 C7_6 1_555 1_555
N24_7 C9_6 1_555 1_555
Mn2_15 O1_8 1_555 1_555
C1_8 H1_8 1_555 1_555
N24 C1_8 1_555 1_555
N7_7 Mn2_15 1_555 1_555
N8_7 N7_7 1_555 1_555
N26_5 N8_7 1_555 1_555
N30 N26_5 1_555 1_555
C5_7 N7_7 1_555 1_555
N24 C4_7 1_555 1_555
N30 C5_7 1_555 1_555
C4_7 C5_7 1_555 1_555
O2_8 Mn2_16 1_555 1_555
C6_8 H2_8 1_555 1_555
N24_6 C6_8 1_555 1_555
N17_7 Mn2_16 1_555 1_555
N18_7 N17_7 1_555 1_555
N26_2 N18_7 1_555 1_555
N30_6 N26_2 1_555 1_555
C10_7 N17_7 1_555 1_555
N24_6 C9_7 1_555 1_555
N30_6 C10_7 1_555 1_555
C9_7 C10_7 1_555 1_555
Mn5_2 N4_7 1_555 1_555
Mn2_17 O1_9 1_555 1_555
N21_4 C1_9 1_555 1_555
N2_7 Mn2_17 1_555 1_555
N3_7 N2_7 1_555 1_555
N4_7 N3_7 1_555 1_555
N27_4 N4_7 1_555 1_555
C1_9 H1_9 1_555 1_555
C2_7 N21_4 1_555 1_555
C3_7 N2_7 1_555 1_555
N22_4 Mn5_2 1_555 1_555
N28_4 Mn5_2 1_555 1_555
N27_4 C3_7 1_555 1_555
C2_7 C3_7 1_555 1_555
O2_9 Mn2_18 1_555 1_555
N11_4 C6_9 1_555 1_555
N12_7 Mn2_18 1_555 1_555
N13_7 N12_7 1_555 1_555
N25_3 N13_7 1_555 1_555
N15_4 N25_3 1_555 1_555
C6_9 H2_9 1_555 1_555
C7_7 N11_4 1_555 1_555
C8_7 N12_7 1_555 1_555
Mn6_2 N11_4 1_555 1_555
N15_4 C8_7 1_555 1_555
N15_4 Mn6_2 1_555 1_555
C7_7 C8_7 1_555 1_555
Mn6_2 N4_8 1_555 1_555
Mn2_19 O1_10 1_555 1_555
N21_3 C1_10 1_555 1_555
N2_8 Mn2_19 1_555 1_555
N3_8 N2_8 1_555 1_555
N4_8 N3_8 1_555 1_555
N27_3 N4_8 1_555 1_555
C1_10 H1_10 1_555 1_555
C2_8 N21_3 1_555 1_555
C3_8 N2_8 1_555 1_555
N24_2 C1_10 1_555 1_555
N7_8 Mn2_19 1_555 1_555
N8_8 N7_8 1_555 1_555
N26_6 N8_8 1_555 1_555
N30_2 N26_6 1_555 1_555
C4_8 C2_8 1_555 1_555
C5_8 N7_8 1_555 1_555
O2_10 Mn2_19 1_555 1_555
N22_4 C6_10 1_555 1_555
N12_8 Mn2_19 1_555 1_555
N13_8 N12_8 1_555 1_555
N25_4 N13_8 1_555 1_555
N28_4 N25_4 1_555 1_555
C6_10 H2_10 1_555 1_555
C7_8 N22_4 1_555 1_555
C8_8 N12_8 1_555 1_555
N24_5 C6_10 1_555 1_555
N17_8 Mn2_19 1_555 1_555
N18_8 N17_8 1_555 1_555
N26 N18_8 1_555 1_555
N30_5 N26 1_555 1_555
C9_8 C7_8 1_555 1_555
C10_8 N17_8 1_555 1_555
N27_3 C3_8 1_555 1_555
C2_8 C3_8 1_555 1_555
N24_2 C4_8 1_555 1_555
N30_2 C5_8 1_555 1_555
C4_8 C5_8 1_555 1_555
N28_4 C8_8 1_555 1_555
C7_8 C8_8 1_555 1_555
N24_5 C9_8 1_555 1_555
N30_5 C10_8 1_555 1_555
C9_8 C10_8 1_555 1_555

#END
