
###############################################################################
#
# This file contains modified crystal structure data generated from the
# MOF subset of the Cambridge Structural Database (CSD) v543 
# hosted by the Cambridge Crystallographic Data Centre (CCDC).
#
# This work is licensed under the Creative Commons
# Attribution-NonCommercial-ShareAlike 4.0 International License.
# To view a copy of this license, visit
# http://creativecommons.org/licenses/by-nc-sa/4.0/
# or send a letter to
# Creative Commons, PO Box 1866, Mountain View, CA 94042, USA.
#
# CIF created using the CSD Python API on 29 September 2022
# The structure has been converted into the P1 space group
# The structure has a 3D framework
# The original CSD entry FORKUU is in the tetragonal crystal system
# The framework has been calculated to contain at least 10.0% void space
# The void calculation uses a probe of radius 1.32A, grid spacing 0.4
#
###############################################################################

data_FORKUU
_chemical_formula_moiety         '(C112 H48 F12 N32 O16 Si4 Zn7)n'
_symmetry_cell_setting           triclinic
_symmetry_space_group_name_H-M   'P 1'
_symmetry_Int_Tables_number      1
_space_group_name_Hall           'P 1'
loop_
_symmetry_equiv_pos_site_id
_symmetry_equiv_pos_as_xyz
1 x,y,z
_cell_length_a                   19.739(3)
_cell_length_b                   19.739(3)
_cell_length_c                   7.4768(15)
_cell_angle_alpha                90
_cell_angle_beta                 90
_cell_angle_gamma                90
_cell_volume                     2913.17
loop_
_atom_site_label
_atom_site_type_symbol
_atom_site_fract_x
_atom_site_fract_y
_atom_site_fract_z
Zn4 Zn 0.0000 0.0000 0.0000
Zn4_2 Zn -0.0000 -0.0000 1.0000
Zn4_3 Zn 0.0000 1.0000 0.0000
Zn4_4 Zn -0.0000 1.0000 1.0000
Si1 Si -0.0000 -0.0000 0.5000
F1 F -0.0000 0.0000 0.2715(6)
F2 F 0.05982(15) 0.05982(15) 0.5000
O1 O 0.3217(2) 0.1149(3) 0.0000
N1 N 0.1096(3) 0.0000 0.0000
N2 N 0.3226(3) 0.0000 0.0000
C3 C 0.2491(3) 0.0000 0.0000
C4 C 0.3546(3) 0.0625(4) 0.0000
C5 C 0.4297(3) 0.0628(4) 0.0000
C6 C 0.4643(3) 0.0000 0.0000
C7 C 0.4642(3) 0.1211(4) 0.0000
H3 H 0.4404 0.1629 0.0000
F6 F 0.0000 0.0000 0.7285(6)
N3 N 0.8904(3) 0.0000 0.0000
N4 N 0.6774(3) 0.0000 0.0000
C10 C 0.7509(3) 0.0000 0.0000
C13 C 0.5357(3) 0.0000 0.0000
C15 C 0.1445(3) 0.0000 0.1462(7)
H7 H 0.1205 -0.0000 0.2563
C16 C 0.2141(3) 0.0000 0.1528(8)
H8 H 0.2369 -0.0000 0.2646
O4 O 0.6783(2) 0.1149(3) 0.0000
C20 C 0.8555(3) 0.0000 0.1462(7)
H10 H 0.8795 -0.0000 0.2563
C21 C 0.7859(3) 0.0000 0.1528(8)
H11 H 0.7631 -0.0000 0.2646
C22 C 0.6454(3) 0.0625(4) 0.0000
C23 C 0.5703(3) 0.0628(4) 0.0000
C24 C 0.5358(3) 0.1211(4) 0.0000
H12 H 0.5596 0.1629 0.0000
Zn4_5 Zn 1.0000 0.0000 0.0000
N9 N 0.0000 0.1096(3) 0.0000
O1_2 O 0.3217(2) 0.1149(3) 1.0000
N1_2 N 0.1096(3) -0.0000 1.0000
N2_2 N 0.3226(3) -0.0000 1.0000
C1 C 0.1445(3) -0.0000 0.8538(7)
H1 H 0.1205 0.0000 0.7437
C2 C 0.2141(3) -0.0000 0.8472(8)
H2 H 0.2369 -0.0000 0.7354
C3_2 C 0.2491(3) -0.0000 1.0000
C4_2 C 0.3546(3) 0.0625(4) 1.0000
C5_2 C 0.4297(3) 0.0628(4) 1.0000
C6_2 C 0.4643(3) -0.0000 1.0000
C7_2 C 0.4642(3) 0.1211(4) 1.0000
H3_2 H 0.4404 0.1629 1.0000
N3_2 N 0.8904(3) -0.0000 1.0000
N4_2 N 0.6774(3) -0.0000 1.0000
C8 C 0.8555(3) -0.0000 0.8538(7)
H4 H 0.8795 0.0000 0.7437
C9 C 0.7859(3) -0.0000 0.8472(8)
H5 H 0.7631 -0.0000 0.7354
C10_2 C 0.7509(3) -0.0000 1.0000
C13_2 C 0.5357(3) -0.0000 1.0000
O4_2 O 0.6783(2) 0.1149(3) 1.0000
C22_2 C 0.6454(3) 0.0625(4) 1.0000
C23_2 C 0.5703(3) 0.0628(4) 1.0000
C24_2 C 0.5358(3) 0.1211(4) 1.0000
H12_2 H 0.5596 0.1629 1.0000
Zn4_6 Zn 1.0000 -0.0000 1.0000
N9_2 N -0.0000 0.1096(3) 1.0000
Si1_2 Si -0.0000 1.0000 0.5000
F1_2 F -0.0000 1.0000 0.2715(6)
N1_3 N 0.1096(3) 1.0000 0.0000
N2_3 N 0.3226(3) 1.0000 0.0000
C3_3 C 0.2491(3) 1.0000 0.0000
C6_3 C 0.4643(3) 1.0000 0.0000
F5 F 0.05982(15) 0.94018(15) 0.5000
F6_2 F 0.0000 1.0000 0.7285(6)
O2 O 0.6783(2) 0.8851(3) 0.0000
N3_3 N 0.8904(3) 1.0000 0.0000
N4_3 N 0.6774(3) 1.0000 0.0000
C10_3 C 0.7509(3) 1.0000 0.0000
C11 C 0.6454(3) 0.9375(4) 0.0000
C12 C 0.5703(3) 0.9372(4) 0.0000
C13_3 C 0.5357(3) 1.0000 0.0000
C14 C 0.5358(3) 0.8789(4) 0.0000
H6 H 0.5596 0.8371 0.0000
O3 O 0.3217(2) 0.8851(3) 0.0000
C15_2 C 0.1445(3) 1.0000 0.1462(7)
H7_2 H 0.1205 1.0000 0.2563
C16_2 C 0.2141(3) 1.0000 0.1528(8)
H8_2 H 0.2369 1.0000 0.2646
C17 C 0.3546(3) 0.9375(4) 0.0000
C18 C 0.4297(3) 0.9372(4) 0.0000
C19 C 0.4642(3) 0.8789(4) 0.0000
H9 H 0.4404 0.8371 0.0000
C20_2 C 0.8555(3) 1.0000 0.1462(7)
H10_2 H 0.8795 1.0000 0.2563
C21_2 C 0.7859(3) 1.0000 0.1528(8)
H11_2 H 0.7631 1.0000 0.2646
N6 N 0.0000 0.3226(3) 0.0000
C27 C 0.0000 0.2491(3) 0.0000
C30 C 0.0000 0.4643(3) 0.0000
O6 O 0.1149(3) 0.6783(2) 0.0000
N7 N 0.0000 0.8904(3) 0.0000
N8 N 0.0000 0.6774(3) 0.0000
C34 C -0.0000 0.7509(3) 0.0000
C35 C 0.0625(4) 0.6454(3) 0.0000
C36 C 0.0628(4) 0.5703(3) 0.0000
C37 C -0.0000 0.5357(3) 0.0000
C38 C 0.1211(4) 0.5358(3) 0.0000
H18 H 0.1629 0.5596 0.0000
O7 O 0.1149(3) 0.3217(2) 0.0000
C39 C 0.0000 0.1445(3) 0.1462(7)
H19 H 0.0000 0.1205 0.2563
C40 C 0.0000 0.2141(3) 0.1528(8)
H20 H 0.0000 0.2369 0.2646
C41 C 0.0625(4) 0.3546(3) 0.0000
C42 C 0.0628(4) 0.4297(3) 0.0000
C43 C 0.1211(4) 0.4642(3) 0.0000
H21 H 0.1629 0.4404 0.0000
C44 C 0.0000 0.8555(3) 0.1462(7)
H22 H 0.0000 0.8795 0.2563
C45 C 0.0000 0.7859(3) 0.1528(8)
H23 H 0.0000 0.7631 0.2646
Zn4_7 Zn 1.0000 1.0000 0.0000
N1_4 N 0.1096(3) 1.0000 1.0000
N2_4 N 0.3226(3) 1.0000 1.0000
C1_2 C 0.1445(3) 1.0000 0.8538(7)
H1_2 H 0.1205 1.0000 0.7437
C2_2 C 0.2141(3) 1.0000 0.8472(8)
H2_2 H 0.2369 1.0000 0.7354
C3_4 C 0.2491(3) 1.0000 1.0000
C6_4 C 0.4643(3) 1.0000 1.0000
O2_2 O 0.6783(2) 0.8851(3) 1.0000
N3_4 N 0.8904(3) 1.0000 1.0000
N4_4 N 0.6774(3) 1.0000 1.0000
C8_2 C 0.8555(3) 1.0000 0.8538(7)
H4_2 H 0.8795 1.0000 0.7437
C9_2 C 0.7859(3) 1.0000 0.8472(8)
H5_2 H 0.7631 1.0000 0.7354
C10_4 C 0.7509(3) 1.0000 1.0000
C11_2 C 0.6454(3) 0.9375(4) 1.0000
C12_2 C 0.5703(3) 0.9372(4) 1.0000
C13_4 C 0.5357(3) 1.0000 1.0000
C14_2 C 0.5358(3) 0.8789(4) 1.0000
H6_2 H 0.5596 0.8371 1.0000
O3_2 O 0.3217(2) 0.8851(3) 1.0000
C17_2 C 0.3546(3) 0.9375(4) 1.0000
C18_2 C 0.4297(3) 0.9372(4) 1.0000
C19_2 C 0.4642(3) 0.8789(4) 1.0000
H9_2 H 0.4404 0.8371 1.0000
N6_2 N -0.0000 0.3226(3) 1.0000
C25 C -0.0000 0.1445(3) 0.8538(7)
H13 H -0.0000 0.1205 0.7437
C26 C 0.0000 0.2141(3) 0.8472(8)
H14 H -0.0000 0.2369 0.7354
C27_2 C 0.0000 0.2491(3) 1.0000
C30_2 C 0.0000 0.4643(3) 1.0000
O6_2 O 0.1149(3) 0.6783(2) 1.0000
N7_2 N 0.0000 0.8904(3) 1.0000
N8_2 N 0.0000 0.6774(3) 1.0000
C32 C -0.0000 0.8555(3) 0.8538(7)
H16 H -0.0000 0.8795 0.7437
C33 C 0.0000 0.7859(3) 0.8472(8)
H17 H 0.0000 0.7631 0.7354
C34_2 C -0.0000 0.7509(3) 1.0000
C35_2 C 0.0625(4) 0.6454(3) 1.0000
C36_2 C 0.0628(4) 0.5703(3) 1.0000
C37_2 C -0.0000 0.5357(3) 1.0000
C38_2 C 0.1211(4) 0.5358(3) 1.0000
H18_2 H 0.1629 0.5596 1.0000
O7_2 O 0.1149(3) 0.3217(2) 1.0000
C41_2 C 0.0625(4) 0.3546(3) 1.0000
C42_2 C 0.0628(4) 0.4297(3) 1.0000
C43_2 C 0.1211(4) 0.4642(3) 1.0000
H21_2 H 0.1629 0.4404 1.0000
Zn4_8 Zn 1.0000 1.0000 1.0000
Si1_3 Si 1.0000 -0.0000 0.5000
F1_3 F 1.0000 0.0000 0.2715(6)
F3 F 0.94018(15) 0.05982(15) 0.5000
F6_3 F 1.0000 0.0000 0.7285(6)
N9_3 N 1.0000 0.1096(3) 0.0000
N9_4 N 1.0000 0.1096(3) 1.0000
Si1_4 Si 1.0000 1.0000 0.5000
F1_4 F 1.0000 1.0000 0.2715(6)
F4 F 0.94018(15) 0.94018(15) 0.5000
F6_4 F 1.0000 1.0000 0.7285(6)
O5 O 0.8851(3) 0.3217(2) 0.0000
N6_3 N 1.0000 0.3226(3) 0.0000
C27_3 C 1.0000 0.2491(3) 0.0000
C28 C 0.9375(4) 0.3546(3) 0.0000
C29 C 0.9372(4) 0.4297(3) 0.0000
C30_3 C 1.0000 0.4643(3) 0.0000
C31 C 0.8789(4) 0.4642(3) 0.0000
H15 H 0.8371 0.4404 0.0000
N7_3 N 1.0000 0.8904(3) 0.0000
N8_3 N 1.0000 0.6774(3) 0.0000
C34_3 C 1.0000 0.7509(3) 0.0000
C37_3 C 1.0000 0.5357(3) 0.0000
C39_2 C 1.0000 0.1445(3) 0.1462(7)
H19_2 H 1.0000 0.1205 0.2563
C40_2 C 1.0000 0.2141(3) 0.1528(8)
H20_2 H 1.0000 0.2369 0.2646
O8 O 0.8851(3) 0.6783(2) 0.0000
C44_2 C 1.0000 0.8555(3) 0.1462(7)
H22_2 H 1.0000 0.8795 0.2563
C45_2 C 1.0000 0.7859(3) 0.1528(8)
H23_2 H 1.0000 0.7631 0.2646
C46 C 0.9375(4) 0.6454(3) 0.0000
C47 C 0.9372(4) 0.5703(3) 0.0000
C48 C 0.8789(4) 0.5358(3) 0.0000
H24 H 0.8371 0.5596 0.0000
O5_2 O 0.8851(3) 0.3217(2) 1.0000
N6_4 N 1.0000 0.3226(3) 1.0000
C25_2 C 1.0000 0.1445(3) 0.8538(7)
H13_2 H 1.0000 0.1205 0.7437
C26_2 C 1.0000 0.2141(3) 0.8472(8)
H14_2 H 1.0000 0.2369 0.7354
C27_4 C 1.0000 0.2491(3) 1.0000
C28_2 C 0.9375(4) 0.3546(3) 1.0000
C29_2 C 0.9372(4) 0.4297(3) 1.0000
C30_4 C 1.0000 0.4643(3) 1.0000
C31_2 C 0.8789(4) 0.4642(3) 1.0000
H15_2 H 0.8371 0.4404 1.0000
N7_4 N 1.0000 0.8904(3) 1.0000
N8_4 N 1.0000 0.6774(3) 1.0000
C32_2 C 1.0000 0.8555(3) 0.8538(7)
H16_2 H 1.0000 0.8795 0.7437
C33_2 C 1.0000 0.7859(3) 0.8472(8)
H17_2 H 1.0000 0.7631 0.7354
C34_4 C 1.0000 0.7509(3) 1.0000
C37_4 C 1.0000 0.5357(3) 1.0000
O8_2 O 0.8851(3) 0.6783(2) 1.0000
C46_2 C 0.9375(4) 0.6454(3) 1.0000
C47_2 C 0.9372(4) 0.5703(3) 1.0000
C48_2 C 0.8789(4) 0.5358(3) 1.0000
H24_2 H 0.8371 0.5596 1.0000
loop_
_geom_bond_atom_site_label_1
_geom_bond_atom_site_label_2
_geom_bond_site_symmetry_1
_geom_bond_site_symmetry_2
Zn4 F1 1_555 1_555
Si1 F1 1_555 1_555
F2 Si1 1_555 1_555
O1 C4 1_555 1_555
N1 Zn4 1_555 1_555
N2 C3 1_555 1_555
C4 N2 1_555 1_555
C5 C4 1_555 1_555
C6 C5 1_555 1_555
C7 C5 1_555 1_555
H3 C7 1_555 1_555
F6 Si1 1_555 1_555
N4 C10 1_555 1_555
C13 C6 1_555 1_555
C15 N1 1_555 1_555
H7 C15 1_555 1_555
C16 C3 1_555 1_555
H8 C16 1_555 1_555
O4 C22 1_555 1_555
C20 N3 1_555 1_555
H10 C20 1_555 1_555
C21 C10 1_555 1_555
H11 C21 1_555 1_555
C22 N4 1_555 1_555
C23 C13 1_555 1_555
C24 C7 1_555 1_555
H12 C24 1_555 1_555
Zn4_2 F6 1_555 1_555
Zn4_5 N3 1_555 1_555
N9 Zn4 1_555 1_555
C15 C16 1_555 1_555
C20 C21 1_555 1_555
C22 C23 1_555 1_555
C23 C24 1_555 1_555
O1_2 C4_2 1_555 1_555
N1_2 Zn4_2 1_555 1_555
N2_2 C3_2 1_555 1_555
C1 N1_2 1_555 1_555
H1 C1 1_555 1_555
C2 C1 1_555 1_555
H2 C2 1_555 1_555
C3_2 C2 1_555 1_555
C4_2 N2_2 1_555 1_555
C5_2 C4_2 1_555 1_555
C6_2 C5_2 1_555 1_555
C7_2 C5_2 1_555 1_555
H3_2 C7_2 1_555 1_555
N3_2 C8 1_555 1_555
N4_2 C10_2 1_555 1_555
C8 H4 1_555 1_555
C9 C8 1_555 1_555
H5 C9 1_555 1_555
C10_2 C9 1_555 1_555
C13_2 C6_2 1_555 1_555
O4_2 C22_2 1_555 1_555
C22_2 N4_2 1_555 1_555
C23_2 C13_2 1_555 1_555
C24_2 C7_2 1_555 1_555
H12_2 C24_2 1_555 1_555
Zn4_6 N3_2 1_555 1_555
N9_2 Zn4_2 1_555 1_555
C22_2 C23_2 1_555 1_555
C23_2 C24_2 1_555 1_555
Zn4_3 F1_2 1_555 1_555
Si1_2 F1_2 1_555 1_555
N1_3 Zn4_3 1_555 1_555
N2_3 C3_3 1_555 1_555
F5 Si1_2 1_555 1_555
F6_2 Si1_2 1_555 1_555
O2 C11 1_555 1_555
N4_3 C10_3 1_555 1_555
C11 N4_3 1_555 1_555
C12 C11 1_555 1_555
C13_3 C6_3 1_555 1_555
C14 C12 1_555 1_555
H6 C14 1_555 1_555
O3 C17 1_555 1_555
C15_2 N1_3 1_555 1_555
H7_2 C15_2 1_555 1_555
C16_2 C3_3 1_555 1_555
H8_2 C16_2 1_555 1_555
C17 N2_3 1_555 1_555
C18 C6_3 1_555 1_555
C19 C14 1_555 1_555
H9 C19 1_555 1_555
C20_2 N3_3 1_555 1_555
H10_2 C20_2 1_555 1_555
C21_2 C10_3 1_555 1_555
H11_2 C21_2 1_555 1_555
N6 C27 1_555 1_555
O6 C35 1_555 1_555
N7 Zn4_3 1_555 1_555
N8 C34 1_555 1_555
C35 N8 1_555 1_555
C36 C35 1_555 1_555
C37 C30 1_555 1_555
C38 C36 1_555 1_555
H18 C38 1_555 1_555
O7 C41 1_555 1_555
C39 N9 1_555 1_555
H19 C39 1_555 1_555
C40 C27 1_555 1_555
H20 C40 1_555 1_555
C41 N6 1_555 1_555
C42 C30 1_555 1_555
C43 C38 1_555 1_555
H21 C43 1_555 1_555
C44 N7 1_555 1_555
H22 C44 1_555 1_555
C45 C34 1_555 1_555
H23 C45 1_555 1_555
Zn4_4 F6_2 1_555 1_555
Zn4_7 N3_3 1_555 1_555
C12 C13_3 1_555 1_555
C15_2 C16_2 1_555 1_555
C17 C18 1_555 1_555
C18 C19 1_555 1_555
C20_2 C21_2 1_555 1_555
C36 C37 1_555 1_555
C39 C40 1_555 1_555
C41 C42 1_555 1_555
C42 C43 1_555 1_555
C44 C45 1_555 1_555
N1_4 Zn4_4 1_555 1_555
N2_4 C3_4 1_555 1_555
C1_2 N1_4 1_555 1_555
H1_2 C1_2 1_555 1_555
C2_2 C1_2 1_555 1_555
H2_2 C2_2 1_555 1_555
C3_4 C2_2 1_555 1_555
O2_2 C11_2 1_555 1_555
N3_4 C8_2 1_555 1_555
N4_4 C10_4 1_555 1_555
C8_2 H4_2 1_555 1_555
C9_2 C8_2 1_555 1_555
H5_2 C9_2 1_555 1_555
C10_4 C9_2 1_555 1_555
C11_2 N4_4 1_555 1_555
C12_2 C11_2 1_555 1_555
C13_4 C6_4 1_555 1_555
C14_2 C12_2 1_555 1_555
H6_2 C14_2 1_555 1_555
O3_2 C17_2 1_555 1_555
C17_2 N2_4 1_555 1_555
C18_2 C6_4 1_555 1_555
C19_2 C14_2 1_555 1_555
H9_2 C19_2 1_555 1_555
N9_2 C25 1_555 1_555
N6_2 C27_2 1_555 1_555
C25 H13 1_555 1_555
C26 C25 1_555 1_555
H14 C26 1_555 1_555
C27_2 C26 1_555 1_555
O6_2 C35_2 1_555 1_555
N7_2 Zn4_4 1_555 1_555
N8_2 C34_2 1_555 1_555
C32 N7_2 1_555 1_555
H16 C32 1_555 1_555
C33 C32 1_555 1_555
H17 C33 1_555 1_555
C34_2 C33 1_555 1_555
C35_2 N8_2 1_555 1_555
C36_2 C35_2 1_555 1_555
C37_2 C30_2 1_555 1_555
C38_2 C36_2 1_555 1_555
H18_2 C38_2 1_555 1_555
O7_2 C41_2 1_555 1_555
C41_2 N6_2 1_555 1_555
C42_2 C30_2 1_555 1_555
C43_2 C38_2 1_555 1_555
H21_2 C43_2 1_555 1_555
Zn4_8 N3_4 1_555 1_555
C12_2 C13_4 1_555 1_555
C17_2 C18_2 1_555 1_555
C18_2 C19_2 1_555 1_555
C36_2 C37_2 1_555 1_555
C41_2 C42_2 1_555 1_555
C42_2 C43_2 1_555 1_555
Zn4_5 F1_3 1_555 1_555
Si1_3 F1_3 1_555 1_555
F3 Si1_3 1_555 1_555
F6_3 Si1_3 1_555 1_555
Zn4_6 F6_3 1_555 1_555
N9_3 Zn4_5 1_555 1_555
N9_4 Zn4_6 1_555 1_555
Zn4_7 F1_4 1_555 1_555
Si1_4 F1_4 1_555 1_555
F4 Si1_4 1_555 1_555
F6_4 Si1_4 1_555 1_555
O5 C28 1_555 1_555
N6_3 C27_3 1_555 1_555
C28 N6_3 1_555 1_555
C29 C28 1_555 1_555
C30_3 C29 1_555 1_555
C31 C29 1_555 1_555
H15 C31 1_555 1_555
N7_3 Zn4_7 1_555 1_555
N8_3 C34_3 1_555 1_555
C37_3 C30_3 1_555 1_555
C39_2 N9_3 1_555 1_555
H19_2 C39_2 1_555 1_555
C40_2 C27_3 1_555 1_555
H20_2 C40_2 1_555 1_555
O8 C46 1_555 1_555
C44_2 N7_3 1_555 1_555
H22_2 C44_2 1_555 1_555
C45_2 C34_3 1_555 1_555
H23_2 C45_2 1_555 1_555
C46 N8_3 1_555 1_555
C47 C37_3 1_555 1_555
C48 C31 1_555 1_555
H24 C48 1_555 1_555
Zn4_8 F6_4 1_555 1_555
C39_2 C40_2 1_555 1_555
C44_2 C45_2 1_555 1_555
C46 C47 1_555 1_555
C47 C48 1_555 1_555
O5_2 C28_2 1_555 1_555
N9_4 C25_2 1_555 1_555
N6_4 C27_4 1_555 1_555
C25_2 H13_2 1_555 1_555
C26_2 C25_2 1_555 1_555
H14_2 C26_2 1_555 1_555
C27_4 C26_2 1_555 1_555
C28_2 N6_4 1_555 1_555
C29_2 C28_2 1_555 1_555
C30_4 C29_2 1_555 1_555
C31_2 C29_2 1_555 1_555
H15_2 C31_2 1_555 1_555
N7_4 Zn4_8 1_555 1_555
N8_4 C34_4 1_555 1_555
C32_2 N7_4 1_555 1_555
H16_2 C32_2 1_555 1_555
C33_2 C32_2 1_555 1_555
H17_2 C33_2 1_555 1_555
C34_4 C33_2 1_555 1_555
C37_4 C30_4 1_555 1_555
O8_2 C46_2 1_555 1_555
C46_2 N8_4 1_555 1_555
C47_2 C37_4 1_555 1_555
C48_2 C31_2 1_555 1_555
H24_2 C48_2 1_555 1_555
C46_2 C47_2 1_555 1_555
C47_2 C48_2 1_555 1_555

#END
