
###############################################################################
#
# This file contains modified crystal structure data generated from the
# MOF subset of the Cambridge Structural Database (CSD) v543 
# hosted by the Cambridge Crystallographic Data Centre (CCDC).
#
# This work is licensed under the Creative Commons
# Attribution-NonCommercial-ShareAlike 4.0 International License.
# To view a copy of this license, visit
# http://creativecommons.org/licenses/by-nc-sa/4.0/
# or send a letter to
# Creative Commons, PO Box 1866, Mountain View, CA 94042, USA.
#
# CIF created using the CSD Python API on 29 September 2022
# The structure has been converted into the P1 space group
# The structure has a 3D framework
# The original CSD entry FORQIN is in the monoclinic crystal system
# The framework has been calculated to contain at least 10.0% void space
# The void calculation uses a probe of radius 1.32A, grid spacing 0.4
# The framework is charged, counterions have been retained in the structure
#
###############################################################################

data_FORQIN
_chemical_formula_moiety         '(C112 H176 N16 Nd16 O124 16+)n'
_symmetry_cell_setting           triclinic
_symmetry_space_group_name_H-M   'P 1'
_symmetry_Int_Tables_number      1
_space_group_name_Hall           'P 1'
loop_
_symmetry_equiv_pos_site_id
_symmetry_equiv_pos_as_xyz
1 x,y,z
_cell_length_a                   30.573(3)
_cell_length_b                   15.733(2)
_cell_length_c                   22.013(3)
_cell_angle_alpha                90
_cell_angle_beta                 132.965(2)
_cell_angle_gamma                90
_cell_volume                     7748.25
loop_
_atom_site_label
_atom_site_type_symbol
_atom_site_fract_x
_atom_site_fract_y
_atom_site_fract_z
N3 N 0.1335(6) 0.2347(9) 0.0352(8)
Nd5 Nd 0.16918(4) 0.37218(6) 0.01468(5)
Nd9 Nd 0.38996(4) 0.13602(6) 0.32563(5)
O17 O 0.2477(5) 0.2700(8) 0.1283(8)
O19 O 0.2769(5) 0.1519(8) 0.2039(7)
C15 C 0.2386(7) 0.2011(10) 0.1476(10)
C16 C 0.1734(8) 0.1773(11) 0.0938(11)
C17 C 0.1549(8) 0.1020(12) 0.1042(11)
H39 H 0.1827 0.0625 0.1443
C18 C 0.0941(9) 0.0875(13) 0.0533(11)
H40 H 0.0806 0.0376 0.0585
O21 O 0.0603(5) 0.3561(8) 0.9308(8)
C19 C 0.0533(9) 0.1487(13) 0.9941(12)
H41 H 0.0123 0.1405 0.9599
C20 C 0.0755(8) 0.2220(11) 0.9877(11)
C21 C 0.0351(7) 0.2932(11) 0.9296(10)
H13 H 0.9680 0.4162 0.0060
H14 H 0.9660 0.3277 0.0087
H23 H 0.7393 0.0222 0.1055
H30 H 0.6354 0.0427 0.0299
N1 N 0.6335(6) 0.2653(9) 0.5352(8)
Nd1 Nd 0.66918(4) 0.12782(6) 0.51468(5)
Nd2 Nd 0.88996(4) 0.36398(6) 0.82563(5)
O1 O 0.7477(5) 0.2300(8) 0.6283(8)
O2 O 0.7769(5) 0.3481(8) 0.7039(7)
O3 O 0.5603(5) 0.1439(8) 0.4308(8)
O4 O 0.4806(6) 0.2160(9) 0.3870(9)
O5 O 0.6229(6) 0.1156(9) 0.2963(8)
O6 O 0.6589(7) 0.0472(9) 0.4110(8)
O7 O 0.6342(7) 0.0300(9) 0.1183(8)
O9 O 0.7518(7) 0.0282(11) 0.6115(11)
H2 H 0.7777 0.0289 0.6078
O10 O 0.7532(6) 0.1620(9) 0.5203(9)
H3 H 0.7852 0.1773 0.5682
H4 H 0.7601 0.1220 0.5018
O11 O 0.6344(7) 0.2336(8) 0.3984(8)
H5 H 0.6253 0.2062 0.3579
H6 H 0.6032 0.2595 0.3811
O13 O 0.8680(6) 0.2204(8) 0.7644(10)
H9 H 0.8855 0.1821 0.8015
H10 H 0.8306 0.2107 0.7285
O14 O 0.8408(7) 0.2926(11) 0.8669(11)
H11 H 0.8661 0.2799 0.9182
H12 H 0.8136 0.3237 0.8564
O15 O 0.9688(8) 0.3697(12) 0.9871(8)
O16 O 0.9719(6) 0.4761(9) 0.8759(9)
H15 H 0.9982 0.4700 0.9283
H16 H 0.9877 0.4569 0.8586
C1 C 0.7386(7) 0.2989(10) 0.6476(10)
C2 C 0.6734(8) 0.3227(11) 0.5938(11)
C3 C 0.6549(8) 0.3980(12) 0.6042(11)
H17 H 0.6827 0.4375 0.6443
C4 C 0.5941(9) 0.4125(13) 0.5533(11)
H18 H 0.5806 0.4624 0.5585
C5 C 0.5533(9) 0.3513(13) 0.4941(12)
H19 H 0.5123 0.3595 0.4599
C6 C 0.5755(8) 0.2780(11) 0.4877(11)
C7 C 0.5351(7) 0.2068(11) 0.4296(10)
C8 C 0.6505(9) 0.0535(11) 0.3472(11)
N5 N 0.6619(7) 0.0018(9) 0.7584(9)
N6 N 0.8381(7) 0.5018(9) 0.7416(9)
Nd6 Nd 0.61004(4) 0.13602(6) 0.17437(5)
O20 O 0.7231(5) 0.1519(8) 0.2961(7)
O23 O 0.9806(6) 0.2840(9) 0.8870(9)
O24 O 0.5194(6) 0.2160(9) 0.1130(9)
O26 O 0.8771(6) 0.3844(9) 0.7037(8)
O29 O 0.8658(7) 0.4700(9) 0.8817(8)
O30 O 0.6726(7) 0.0957(9) 0.6250(9)
O35 O 0.6232(7) 0.0177(8) 0.9865(9)
H29 H 0.6266 0.0499 0.9588
O36 O 0.6320(6) 0.2796(8) 0.2356(10)
H31 H 0.6145 0.3179 0.1985
H32 H 0.6694 0.2893 0.2715
O37 O 0.6592(7) 0.2074(11) 0.1331(11)
H33 H 0.6339 0.2201 0.0818
H34 H 0.6864 0.1763 0.1436
O38 O 0.5312(8) 0.1303(12) 0.0129(8)
O39 O 0.5281(6) 0.0239(9) 0.1241(9)
H37 H 0.5018 0.0300 0.0717
H38 H 0.5123 0.0431 0.1414
C23 C 0.6745(8) 0.0122(12) 0.8285(11)
C24 C 0.7134(9) 0.0759(12) 0.8831(11)
H42 H 0.7215 0.0839 0.9318
C25 C 0.7402(10) 0.1273(16) 0.8659(14)
H43 H 0.7676 0.1686 0.9036
C26 C 0.7257(8) 0.1167(12) 0.7923(11)
H44 H 0.7432 0.1501 0.7789
C27 C 0.6841(8) 0.0545(10) 0.7381(10)
C28 C 0.6615(8) 0.0392(11) 0.6533(11)
H35 H 0.5320 0.0838 0.9940
H36 H 0.5340 0.1723 0.9913
N4 N 0.6335(6) 0.7347(9) 0.0352(8)
Nd3 Nd 0.66918(4) 0.87218(6) 0.01468(5)
O18 O 0.7477(5) 0.7700(8) 0.1283(8)
O31 O 0.6726(7) 0.9043(9) 0.1250(9)
O32 O 0.7518(7) 0.9718(11) 0.1115(11)
H24 H 0.7777 0.9711 0.1078
O33 O 0.7532(6) 0.8380(9) 0.0203(9)
H25 H 0.7852 0.8227 0.0682
H26 H 0.7601 0.8780 0.0018
N2 N 0.6619(7) 0.9982(9) 0.2584(9)
H1 H 0.7393 0.9778 0.6055
O12 O 0.6232(7) 0.9823(8) 0.4865(9)
H7 H 0.6266 0.9501 0.4588
H8 H 0.6354 0.9573 0.5299
C9 C 0.6745(8) 0.9878(12) 0.3285(11)
C10 C 0.7134(9) 0.9241(12) 0.3831(11)
H20 H 0.7215 0.9161 0.4318
C11 C 0.7402(10) 0.8727(16) 0.3659(14)
H21 H 0.7676 0.8314 0.4036
C12 C 0.7257(8) 0.8833(12) 0.2923(11)
H22 H 0.7432 0.8499 0.2789
C13 C 0.6841(8) 0.9455(10) 0.2381(10)
C14 C 0.6615(8) 0.9608(11) 0.1533(11)
Nd8 Nd 0.61004(4) 0.86398(6) 0.67437(5)
O22 O 0.5603(5) 0.8561(8) 0.9308(8)
O25 O 0.6229(6) 0.8844(9) 0.7963(8)
O27 O 0.6589(7) 0.9528(9) 0.9110(8)
O28 O 0.6342(7) 0.9700(9) 0.6183(8)
O34 O 0.6344(7) 0.7664(8) 0.8984(8)
H27 H 0.6253 0.7938 0.8579
H28 H 0.6032 0.7405 0.8811
C22 C 0.6505(9) 0.9465(11) 0.8472(11)
O3_2 O 0.4397(5) 0.1439(8) 0.0692(8)
O5_2 O 0.3771(6) 0.1156(9) 0.2037(8)
O6_2 O 0.3411(7) 0.0472(9) 0.0890(8)
O7_2 O 0.3658(7) 0.0300(9) 0.3817(8)
O11_2 O 0.3656(7) 0.2336(8) 0.1016(8)
H5_2 H 0.3747 0.2062 0.1421
H6_2 H 0.3968 0.2595 0.1189
C5_2 C 0.4467(9) 0.3513(13) 0.0059(12)
H19_2 H 0.4877 0.3595 0.0401
C6_2 C 0.4245(8) 0.2780(11) 0.0123(11)
C7_2 C 0.4649(7) 0.2068(11) 0.0704(10)
C8_2 C 0.3495(9) 0.0535(11) 0.1528(11)
O36_2 O 0.3680(6) 0.2796(8) 0.2644(10)
H31_2 H 0.3855 0.3179 0.3015
H32_2 H 0.3306 0.2893 0.2285
O37_2 O 0.3408(7) 0.2074(11) 0.3669(11)
H33_2 H 0.3661 0.2201 0.4182
H34_2 H 0.3136 0.1763 0.3564
O38_2 O 0.4688(8) 0.1303(12) 0.4871(8)
H35_2 H 0.4680 0.0838 0.5060
H36_2 H 0.4660 0.1723 0.5087
O39_2 O 0.4719(6) 0.0239(9) 0.3759(9)
H37_2 H 0.4982 0.0300 0.4283
H38_2 H 0.4877 0.0431 0.3586
N1_2 N 0.3665(6) 0.2653(9) 0.9648(8)
Nd1_2 Nd 0.33082(4) 0.12782(6) 0.98532(5)
Nd2_2 Nd 0.11004(4) 0.36398(6) 0.67437(5)
O1_2 O 0.2523(5) 0.2300(8) 0.8717(8)
O2_2 O 0.2231(5) 0.3481(8) 0.7961(7)
O9_2 O 0.2482(7) 0.0282(11) 0.8885(11)
H2_2 H 0.2223 0.0289 0.8922
O10_2 O 0.2468(6) 0.1620(9) 0.9797(9)
H3_2 H 0.2148 0.1773 0.9318
H4_2 H 0.2399 0.1220 0.9982
O13_2 O 0.1320(6) 0.2204(8) 0.7356(10)
H9_2 H 0.1145 0.1821 0.6985
H10_2 H 0.1694 0.2107 0.7715
O14_2 O 0.1592(7) 0.2926(11) 0.6331(11)
H11_2 H 0.1339 0.2799 0.5818
H12_2 H 0.1864 0.3237 0.6436
O15_2 O 0.0312(8) 0.3697(12) 0.5129(8)
H13_2 H 0.0320 0.4162 0.4940
H14_2 H 0.0340 0.3277 0.4913
O16_2 O 0.0281(6) 0.4761(9) 0.6241(9)
H15_2 H 0.0018 0.4700 0.5717
H16_2 H 0.0123 0.4569 0.6414
C1_2 C 0.2614(7) 0.2989(10) 0.8524(10)
C2_2 C 0.3266(8) 0.3227(11) 0.9062(11)
C3_2 C 0.3451(8) 0.3980(12) 0.8958(11)
H17_2 H 0.3173 0.4375 0.8557
C4_2 C 0.4059(9) 0.4125(13) 0.9467(11)
H18_2 H 0.4194 0.4624 0.9415
N5_2 N 0.3381(7) 0.0018(9) 0.7416(9)
N6_2 N 0.1619(7) 0.5018(9) 0.7584(9)
O23_2 O 0.0194(6) 0.2840(9) 0.6130(9)
O26_2 O 0.1229(6) 0.3844(9) 0.7963(8)
O29_2 O 0.1342(7) 0.4700(9) 0.6183(8)
O30_2 O 0.3274(7) 0.0957(9) 0.8750(9)
H23_2 H 0.2607 0.0222 0.3945
O35_2 O 0.3768(7) 0.0177(8) 0.5135(9)
H29_2 H 0.3734 0.0499 0.5412
H30_2 H 0.3646 0.0427 0.4701
C23_2 C 0.3255(8) 0.0122(12) 0.6715(11)
C24_2 C 0.2866(9) 0.0759(12) 0.6169(11)
H42_2 H 0.2785 0.0839 0.5682
C25_2 C 0.2598(10) 0.1273(16) 0.6341(14)
H43_2 H 0.2324 0.1686 0.5964
C26_2 C 0.2743(8) 0.1167(12) 0.7077(11)
H44_2 H 0.2568 0.1501 0.7211
C27_2 C 0.3159(8) 0.0545(10) 0.7619(10)
C28_2 C 0.3385(8) 0.0392(11) 0.8467(11)
N2_2 N 0.3381(7) 0.9982(9) 0.2416(9)
O8 O 0.3274(7) 0.9043(9) 0.3750(9)
O12_2 O 0.3768(7) 0.9823(8) 0.0135(9)
H7_2 H 0.3734 0.9501 0.0412
C9_2 C 0.3255(8) 0.9878(12) 0.1715(11)
C10_2 C 0.2866(9) 0.9241(12) 0.1169(11)
H20_2 H 0.2785 0.9161 0.0682
C11_2 C 0.2598(10) 0.8727(16) 0.1341(14)
H21_2 H 0.2324 0.8314 0.0964
C12_2 C 0.2743(8) 0.8833(12) 0.2077(11)
H22_2 H 0.2568 0.8499 0.2211
C13_2 C 0.3159(8) 0.9455(10) 0.2619(10)
C14_2 C 0.3385(8) 0.9608(11) 0.3467(11)
Nd4 Nd 0.33082(4) 0.87218(6) 0.48532(5)
H1_2 H 0.2607 0.9778 0.8945
H8_2 H 0.3646 0.9573 0.9701
N4_2 N 0.3665(6) 0.7347(9) 0.4648(8)
Nd8_2 Nd 0.38996(4) 0.86398(6) 0.82563(5)
O18_2 O 0.2523(5) 0.7700(8) 0.3717(8)
O22_2 O 0.4397(5) 0.8561(8) 0.5692(8)
O25_2 O 0.3771(6) 0.8844(9) 0.7037(8)
O27_2 O 0.3411(7) 0.9528(9) 0.5890(8)
O28_2 O 0.3658(7) 0.9700(9) 0.8817(8)
O32_2 O 0.2482(7) 0.9718(11) 0.3885(11)
H24_2 H 0.2223 0.9711 0.3922
O33_2 O 0.2468(6) 0.8380(9) 0.4797(9)
H25_2 H 0.2148 0.8227 0.4318
H26_2 H 0.2399 0.8780 0.4982
O34_2 O 0.3656(7) 0.7664(8) 0.6016(8)
H27_2 H 0.3747 0.7938 0.6421
H28_2 H 0.3968 0.7405 0.6189
C22_2 C 0.3495(9) 0.9465(11) 0.6528(11)
N3_2 N 0.8665(6) 0.2347(9) 0.4648(8)
Nd5_2 Nd 0.83082(4) 0.37218(6) 0.48532(5)
O17_2 O 0.7523(5) 0.2700(8) 0.3717(8)
O21_2 O 0.9397(5) 0.3561(8) 0.5692(8)
C15_2 C 0.7614(7) 0.2011(10) 0.3524(10)
C16_2 C 0.8266(8) 0.1773(11) 0.4062(11)
C17_2 C 0.8451(8) 0.1020(12) 0.3958(11)
H39_2 H 0.8173 0.0625 0.3557
C18_2 C 0.9059(9) 0.0875(13) 0.4467(11)
H40_2 H 0.9194 0.0376 0.4415
C19_2 C 0.9467(9) 0.1487(13) 0.5059(12)
H41_2 H 0.9877 0.1405 0.5401
C20_2 C 0.9245(8) 0.2220(11) 0.5123(11)
C21_2 C 0.9649(7) 0.2932(11) 0.5704(10)
H13_3 H 0.4680 0.9162 0.0060
H14_3 H 0.4660 0.8277 0.0087
Nd9_2 Nd 0.88996(4) 0.63602(6) 0.32563(5)
O19_2 O 0.7769(5) 0.6519(8) 0.2039(7)
O31_2 O 0.1726(7) 0.4043(9) 0.1250(9)
O32_3 O 0.2518(7) 0.4718(11) 0.1115(11)
H23_3 H 0.2393 0.5222 0.1055
H24_3 H 0.2777 0.4711 0.1078
O33_3 O 0.2532(6) 0.3380(9) 0.0203(9)
H25_3 H 0.2852 0.3227 0.0682
H26_3 H 0.2601 0.3780 0.0018
H30_3 H 0.1354 0.5427 0.0299
C15_3 C 0.7386(7) 0.7011(10) 0.1476(10)
C16_3 C 0.6734(8) 0.6773(11) 0.0938(11)
C17_3 C 0.6549(8) 0.6020(12) 0.1042(11)
H39_3 H 0.6827 0.5625 0.1443
C18_3 C 0.5941(9) 0.5875(13) 0.0533(11)
H40_3 H 0.5806 0.5376 0.0585
N1_3 N 0.1335(6) 0.7653(9) 0.5352(8)
N2_3 N 0.1619(7) 0.4982(9) 0.2584(9)
Nd1_3 Nd 0.16918(4) 0.62782(6) 0.51468(5)
O1_3 O 0.2477(5) 0.7300(8) 0.6283(8)
O2_3 O 0.2769(5) 0.8481(8) 0.7039(7)
O3_3 O 0.0603(5) 0.6439(8) 0.4308(8)
O5_3 O 0.1229(6) 0.6156(9) 0.2963(8)
O6_3 O 0.1589(7) 0.5472(9) 0.4110(8)
O7_3 O 0.1342(7) 0.5300(9) 0.1183(8)
O9_3 O 0.2518(7) 0.5282(11) 0.6115(11)
H1_3 H 0.2393 0.4778 0.6055
H2_3 H 0.2777 0.5289 0.6078
O10_3 O 0.2532(6) 0.6620(9) 0.5203(9)
H3_3 H 0.2852 0.6773 0.5682
H4_3 H 0.2601 0.6220 0.5018
O11_3 O 0.1344(7) 0.7336(8) 0.3984(8)
H5_3 H 0.1253 0.7062 0.3579
H6_3 H 0.1032 0.7595 0.3811
O12_3 O 0.1232(7) 0.4823(8) 0.4865(9)
H7_3 H 0.1266 0.4501 0.4588
H8_3 H 0.1354 0.4573 0.5299
O13_3 O 0.3680(6) 0.7204(8) 0.7644(10)
H9_3 H 0.3855 0.6821 0.8015
H10_3 H 0.3306 0.7107 0.7285
O14_3 O 0.3408(7) 0.7926(11) 0.8669(11)
H11_3 H 0.3661 0.7799 0.9182
H12_3 H 0.3136 0.8237 0.8564
O15_3 O 0.4688(8) 0.8697(12) 0.9871(8)
O16_3 O 0.4719(6) 0.9761(9) 0.8759(9)
H15_3 H 0.4982 0.9700 0.9283
H16_3 H 0.4877 0.9569 0.8586
C1_3 C 0.2386(7) 0.7989(10) 0.6476(10)
C2_3 C 0.1734(8) 0.8227(11) 0.5938(11)
C3_3 C 0.1549(8) 0.8980(12) 0.6042(11)
H17_3 H 0.1827 0.9375 0.6443
C4_3 C 0.0941(9) 0.9125(13) 0.5533(11)
H18_3 H 0.0806 0.9624 0.5585
C5_3 C 0.0533(9) 0.8513(13) 0.4941(12)
H19_3 H 0.0123 0.8595 0.4599
C6_3 C 0.0755(8) 0.7780(11) 0.4877(11)
C7_3 C 0.0351(7) 0.7068(11) 0.4296(10)
C8_3 C 0.1505(9) 0.5535(11) 0.3472(11)
C9_3 C 0.1745(8) 0.4878(12) 0.3285(11)
C10_3 C 0.2134(9) 0.4241(12) 0.3831(11)
H20_3 H 0.2215 0.4161 0.4318
C11_3 C 0.2402(10) 0.3727(16) 0.3659(14)
H21_3 H 0.2676 0.3314 0.4036
C12_3 C 0.2257(8) 0.3833(12) 0.2923(11)
H22_3 H 0.2432 0.3499 0.2789
C13_3 C 0.1841(8) 0.4455(10) 0.2381(10)
C14_3 C 0.1615(8) 0.4608(11) 0.1533(11)
Nd6_2 Nd 0.11004(4) 0.63602(6) 0.17437(5)
O20_2 O 0.2231(5) 0.6519(8) 0.2961(7)
O23_3 O 0.4806(6) 0.7840(9) 0.8870(9)
O24_2 O 0.0194(6) 0.7160(9) 0.1130(9)
O27_3 O 0.1589(7) 0.4528(9) 0.9110(8)
O30_3 O 0.1726(7) 0.5957(9) 0.6250(9)
O34_3 O 0.1344(7) 0.2664(8) 0.8984(8)
H27_3 H 0.1253 0.2938 0.8579
H28_3 H 0.1032 0.2405 0.8811
O35_3 O 0.1232(7) 0.5177(8) 0.9865(9)
H29_3 H 0.1266 0.5499 0.9588
O36_3 O 0.1320(6) 0.7796(8) 0.2356(10)
H31_3 H 0.1145 0.8179 0.1985
H32_3 H 0.1694 0.7893 0.2715
O37_3 O 0.1592(7) 0.7074(11) 0.1331(11)
H33_3 H 0.1339 0.7201 0.0818
H34_3 H 0.1864 0.6763 0.1436
O38_3 O 0.0312(8) 0.6303(12) 0.0129(8)
O39_3 O 0.0281(6) 0.5239(9) 0.1241(9)
H37_3 H 0.0018 0.5300 0.0717
H38_3 H 0.0123 0.5431 0.1414
C19_3 C 0.5533(9) 0.6487(13) 0.9941(12)
H41_3 H 0.5123 0.6405 0.9599
C20_3 C 0.5755(8) 0.7220(11) 0.9877(11)
C21_3 C 0.5351(7) 0.7932(11) 0.9296(10)
C22_3 C 0.1505(9) 0.4465(11) 0.8472(11)
C23_3 C 0.1745(8) 0.5122(12) 0.8285(11)
C24_3 C 0.2134(9) 0.5759(12) 0.8831(11)
H42_3 H 0.2215 0.5839 0.9318
C25_3 C 0.2402(10) 0.6273(16) 0.8659(14)
H43_3 H 0.2676 0.6686 0.9036
C26_3 C 0.2257(8) 0.6167(12) 0.7923(11)
H44_3 H 0.2432 0.6501 0.7789
C27_3 C 0.1841(8) 0.5545(10) 0.7381(10)
C28_3 C 0.1615(8) 0.5392(11) 0.6533(11)
H35_3 H 0.0320 0.5838 0.9940
H36_3 H 0.0340 0.6723 0.9913
O4_2 O 0.9806(6) 0.7160(9) 0.3870(9)
N2_4 N 0.8381(7) 0.4982(9) 0.2416(9)
O3_4 O 0.9397(5) 0.6439(8) 0.0692(8)
O5_4 O 0.8771(6) 0.6156(9) 0.2037(8)
O6_4 O 0.8411(7) 0.5472(9) 0.0890(8)
O7_4 O 0.8658(7) 0.5300(9) 0.3817(8)
O8_2 O 0.8274(7) 0.4043(9) 0.3750(9)
O11_4 O 0.8656(7) 0.7336(8) 0.1016(8)
H5_4 H 0.8747 0.7062 0.1421
H6_4 H 0.8968 0.7595 0.1189
O12_4 O 0.8768(7) 0.4823(8) 0.0135(9)
H7_4 H 0.8734 0.4501 0.0412
C5_4 C 0.9467(9) 0.8513(13) 0.0059(12)
H19_4 H 0.9877 0.8595 0.0401
C6_4 C 0.9245(8) 0.7780(11) 0.0123(11)
C7_4 C 0.9649(7) 0.7068(11) 0.0704(10)
C8_4 C 0.8495(9) 0.5535(11) 0.1528(11)
C9_4 C 0.8255(8) 0.4878(12) 0.1715(11)
C10_4 C 0.7866(9) 0.4241(12) 0.1169(11)
H20_4 H 0.7785 0.4161 0.0682
C11_4 C 0.7598(10) 0.3727(16) 0.1341(14)
H21_4 H 0.7324 0.3314 0.0964
C12_4 C 0.7743(8) 0.3833(12) 0.2077(11)
H22_4 H 0.7568 0.3499 0.2211
C13_4 C 0.8159(8) 0.4455(10) 0.2619(10)
C14_4 C 0.8385(8) 0.4608(11) 0.3467(11)
O36_4 O 0.8680(6) 0.7796(8) 0.2644(10)
H31_4 H 0.8855 0.8179 0.3015
H32_4 H 0.8306 0.7893 0.2285
O37_4 O 0.8408(7) 0.7074(11) 0.3669(11)
H33_4 H 0.8661 0.7201 0.4182
H34_4 H 0.8136 0.6763 0.3564
O38_4 O 0.9688(8) 0.6303(12) 0.4871(8)
H35_4 H 0.9680 0.5838 0.5060
H36_4 H 0.9660 0.6723 0.5087
O39_4 O 0.9719(6) 0.5239(9) 0.3759(9)
H37_4 H 0.9982 0.5300 0.4283
H38_4 H 0.9877 0.5431 0.3586
N1_4 N 0.8665(6) 0.7653(9) 0.9648(8)
Nd1_4 Nd 0.83082(4) 0.62782(6) 0.98532(5)
O1_4 O 0.7523(5) 0.7300(8) 0.8717(8)
O2_4 O 0.7231(5) 0.8481(8) 0.7961(7)
O9_4 O 0.7482(7) 0.5282(11) 0.8885(11)
H1_4 H 0.7607 0.4778 0.8945
H2_4 H 0.7223 0.5289 0.8922
O10_4 O 0.7468(6) 0.6620(9) 0.9797(9)
H3_4 H 0.7148 0.6773 0.9318
H4_4 H 0.7399 0.6220 0.9982
H8_4 H 0.8646 0.4573 0.9701
O13_4 O 0.6320(6) 0.7204(8) 0.7356(10)
H9_4 H 0.6145 0.6821 0.6985
H10_4 H 0.6694 0.7107 0.7715
O14_4 O 0.6592(7) 0.7926(11) 0.6331(11)
H11_4 H 0.6339 0.7799 0.5818
H12_4 H 0.6864 0.8237 0.6436
O15_4 O 0.5312(8) 0.8697(12) 0.5129(8)
H13_4 H 0.5320 0.9162 0.4940
H14_4 H 0.5340 0.8277 0.4913
O16_4 O 0.5281(6) 0.9761(9) 0.6241(9)
H15_4 H 0.5018 0.9700 0.5717
H16_4 H 0.5123 0.9569 0.6414
C1_4 C 0.7614(7) 0.7989(10) 0.8524(10)
C2_4 C 0.8266(8) 0.8227(11) 0.9062(11)
C3_4 C 0.8451(8) 0.8980(12) 0.8958(11)
H17_4 H 0.8173 0.9375 0.8557
C4_4 C 0.9059(9) 0.9125(13) 0.9467(11)
H18_4 H 0.9194 0.9624 0.9415
O23_4 O 0.5194(6) 0.7840(9) 0.6130(9)
O27_4 O 0.8411(7) 0.4528(9) 0.5890(8)
O30_4 O 0.8274(7) 0.5957(9) 0.8750(9)
O32_4 O 0.7482(7) 0.4718(11) 0.3885(11)
H23_4 H 0.7607 0.5222 0.3945
H24_4 H 0.7223 0.4711 0.3922
O33_4 O 0.7468(6) 0.3380(9) 0.4797(9)
H25_4 H 0.7148 0.3227 0.4318
H26_4 H 0.7399 0.3780 0.4982
O34_4 O 0.8656(7) 0.2664(8) 0.6016(8)
H27_4 H 0.8747 0.2938 0.6421
H28_4 H 0.8968 0.2405 0.6189
O35_4 O 0.8768(7) 0.5177(8) 0.5135(9)
H29_4 H 0.8734 0.5499 0.5412
H30_4 H 0.8646 0.5427 0.4701
C15_4 C 0.2614(7) 0.7011(10) 0.3524(10)
C16_4 C 0.3266(8) 0.6773(11) 0.4062(11)
C17_4 C 0.3451(8) 0.6020(12) 0.3958(11)
H39_4 H 0.3173 0.5625 0.3557
C18_4 C 0.4059(9) 0.5875(13) 0.4467(11)
H40_4 H 0.4194 0.5376 0.4415
C19_4 C 0.4467(9) 0.6487(13) 0.5059(12)
H41_4 H 0.4877 0.6405 0.5401
C20_4 C 0.4245(8) 0.7220(11) 0.5123(11)
C21_4 C 0.4649(7) 0.7932(11) 0.5704(10)
C22_4 C 0.8495(9) 0.4465(11) 0.6528(11)
C23_4 C 0.8255(8) 0.5122(12) 0.6715(11)
C24_4 C 0.7866(9) 0.5759(12) 0.6169(11)
H42_4 H 0.7785 0.5839 0.5682
C25_4 C 0.7598(10) 0.6273(16) 0.6341(14)
H43_4 H 0.7324 0.6686 0.5964
C26_4 C 0.7743(8) 0.6167(12) 0.7077(11)
H44_4 H 0.7568 0.6501 0.7211
C27_4 C 0.8159(8) 0.5545(10) 0.7619(10)
C28_4 C 0.8385(8) 0.5392(11) 0.8467(11)
loop_
_geom_bond_atom_site_label_1
_geom_bond_atom_site_label_2
_geom_bond_site_symmetry_1
_geom_bond_site_symmetry_2
N3 Nd5 1_555 1_555
Nd5 O17 1_555 1_555
Nd9 O19 1_555 1_555
O17 C15 1_555 1_555
O19 C15 1_555 1_555
C15 C16 1_555 1_555
C16 N3 1_555 1_555
C17 C16 1_555 1_555
H39 C17 1_555 1_555
C18 C17 1_555 1_555
H40 C18 1_555 1_555
H41 C19 1_555 1_555
C21 O21 1_555 1_555
C19 C20 1_555 1_555
C20 C21 1_555 1_555
N1 Nd1 1_555 1_555
Nd1 O1 1_555 1_555
Nd2 O2 1_555 1_555
O1 C1 1_555 1_555
O2 C1 1_555 1_555
O3 Nd1 1_555 1_555
O4 C7 1_555 1_555
O5 C8 1_555 1_555
O6 Nd1 1_555 1_555
O9 Nd1 1_555 1_555
H2 O9 1_555 1_555
O10 Nd1 1_555 1_555
H3 O10 1_555 1_555
H4 O10 1_555 1_555
O11 Nd1 1_555 1_555
H5 O11 1_555 1_555
H6 O11 1_555 1_555
O13 Nd2 1_555 1_555
H9 O13 1_555 1_555
H10 O13 1_555 1_555
O14 Nd2 1_555 1_555
H11 O14 1_555 1_555
H12 O14 1_555 1_555
O15 Nd2 1_555 1_555
O16 Nd2 1_555 1_555
H15 O16 1_555 1_555
H16 O16 1_555 1_555
C1 C2 1_555 1_555
C2 N1 1_555 1_555
C3 C2 1_555 1_555
H17 C3 1_555 1_555
C4 C3 1_555 1_555
H18 C4 1_555 1_555
C5 C4 1_555 1_555
H19 C5 1_555 1_555
C6 N1 1_555 1_555
C7 O3 1_555 1_555
C8 O6 1_555 1_555
N6 Nd2 1_555 1_555
Nd9 O4 1_555 1_555
O20 Nd6 1_555 1_555
O23 Nd2 1_555 1_555
O24 Nd6 1_555 1_555
O26 Nd2 1_555 1_555
O29 Nd2 1_555 1_555
O30 Nd1 1_555 1_555
H29 O35 1_555 1_555
O36 Nd6 1_555 1_555
H31 O36 1_555 1_555
H32 O36 1_555 1_555
O37 Nd6 1_555 1_555
H33 O37 1_555 1_555
H34 O37 1_555 1_555
O38 Nd6 1_555 1_555
O39 Nd6 1_555 1_555
H37 O39 1_555 1_555
H38 O39 1_555 1_555
C23 N5 1_555 1_555
C24 C23 1_555 1_555
H42 C24 1_555 1_555
C25 C24 1_555 1_555
H43 C25 1_555 1_555
C26 C25 1_555 1_555
H44 C26 1_555 1_555
C27 N5 1_555 1_555
O5 Nd6 1_555 1_555
O7 Nd6 1_555 1_555
C5 C6 1_555 1_555
C6 C7 1_555 1_555
O30 C28 1_555 1_555
C26 C27 1_555 1_555
C27 C28 1_555 1_555
N4 Nd3 1_555 1_555
Nd3 O18 1_555 1_555
O31 Nd3 1_555 1_555
O32 Nd3 1_555 1_555
H24 O32 1_555 1_555
O33 Nd3 1_555 1_555
H25 O33 1_555 1_555
H26 O33 1_555 1_555
N2 C9 1_555 1_555
O31 C14 1_555 1_555
H7 O12 1_555 1_555
H8 O12 1_555 1_555
C10 C9 1_555 1_555
H20 C10 1_555 1_555
C11 C10 1_555 1_555
H21 C11 1_555 1_555
C12 C11 1_555 1_555
H22 C12 1_555 1_555
C13 N2 1_555 1_555
C14 C13 1_555 1_555
Nd8 O25 1_555 1_555
O25 C22 1_555 1_555
O28 Nd8 1_555 1_555
H27 O34 1_555 1_555
H28 O34 1_555 1_555
C22 O27 1_555 1_555
C12 C13 1_555 1_555
O24 C7_2 1_555 1_555
O5_2 C8_2 1_555 1_555
H5_2 O11_2 1_555 1_555
H6_2 O11_2 1_555 1_555
H19_2 C5_2 1_555 1_555
C7_2 O3_2 1_555 1_555
C8_2 O6_2 1_555 1_555
O36_2 Nd9 1_555 1_555
H31_2 O36_2 1_555 1_555
H32_2 O36_2 1_555 1_555
O37_2 Nd9 1_555 1_555
H33_2 O37_2 1_555 1_555
H34_2 O37_2 1_555 1_555
O38_2 Nd9 1_555 1_555
H35_2 O38_2 1_555 1_555
H36_2 O38_2 1_555 1_555
O39_2 Nd9 1_555 1_555
H37_2 O39_2 1_555 1_555
H38_2 O39_2 1_555 1_555
O5_2 Nd9 1_555 1_555
O7_2 Nd9 1_555 1_555
C5_2 C6_2 1_555 1_555
C6_2 C7_2 1_555 1_555
N1_2 Nd1_2 1_555 1_555
Nd1_2 O1_2 1_555 1_555
Nd2_2 O2_2 1_555 1_555
O1_2 C1_2 1_555 1_555
O2_2 C1_2 1_555 1_555
O9_2 Nd1_2 1_555 1_555
H2_2 O9_2 1_555 1_555
O10_2 Nd1_2 1_555 1_555
H3_2 O10_2 1_555 1_555
H4_2 O10_2 1_555 1_555
O13_2 Nd2_2 1_555 1_555
H9_2 O13_2 1_555 1_555
H10_2 O13_2 1_555 1_555
O14_2 Nd2_2 1_555 1_555
H11_2 O14_2 1_555 1_555
H12_2 O14_2 1_555 1_555
O15_2 Nd2_2 1_555 1_555
H13_2 O15_2 1_555 1_555
H14_2 O15_2 1_555 1_555
O16_2 Nd2_2 1_555 1_555
H15_2 O16_2 1_555 1_555
H16_2 O16_2 1_555 1_555
C1_2 C2_2 1_555 1_555
C2_2 N1_2 1_555 1_555
C3_2 C2_2 1_555 1_555
H17_2 C3_2 1_555 1_555
C4_2 C3_2 1_555 1_555
H18_2 C4_2 1_555 1_555
N6_2 Nd2_2 1_555 1_555
O23_2 Nd2_2 1_555 1_555
O26_2 Nd2_2 1_555 1_555
O29_2 Nd2_2 1_555 1_555
O30_2 Nd1_2 1_555 1_555
H29_2 O35_2 1_555 1_555
H30_2 O35_2 1_555 1_555
C23_2 N5_2 1_555 1_555
C24_2 C23_2 1_555 1_555
H42_2 C24_2 1_555 1_555
C25_2 C24_2 1_555 1_555
H43_2 C25_2 1_555 1_555
C26_2 C25_2 1_555 1_555
H44_2 C26_2 1_555 1_555
C27_2 N5_2 1_555 1_555
O30_2 C28_2 1_555 1_555
C26_2 C27_2 1_555 1_555
C27_2 C28_2 1_555 1_555
N2_2 C9_2 1_555 1_555
O8 C14_2 1_555 1_555
H7_2 O12_2 1_555 1_555
C10_2 C9_2 1_555 1_555
H20_2 C10_2 1_555 1_555
C11_2 C10_2 1_555 1_555
H21_2 C11_2 1_555 1_555
C12_2 C11_2 1_555 1_555
H22_2 C12_2 1_555 1_555
C13_2 N2_2 1_555 1_555
C14_2 C13_2 1_555 1_555
Nd4 O8 1_555 1_555
C12_2 C13_2 1_555 1_555
N4_2 Nd4 1_555 1_555
Nd4 O18_2 1_555 1_555
Nd8_2 O25_2 1_555 1_555
O22_2 Nd4 1_555 1_555
O25_2 C22_2 1_555 1_555
O27_2 Nd4 1_555 1_555
O28_2 Nd8_2 1_555 1_555
O32_2 Nd4 1_555 1_555
H24_2 O32_2 1_555 1_555
O33_2 Nd4 1_555 1_555
H25_2 O33_2 1_555 1_555
H26_2 O33_2 1_555 1_555
O34_2 Nd4 1_555 1_555
H27_2 O34_2 1_555 1_555
H28_2 O34_2 1_555 1_555
C22_2 O27_2 1_555 1_555
N3_2 Nd5_2 1_555 1_555
Nd5_2 O17_2 1_555 1_555
O17_2 C15_2 1_555 1_555
O20 C15_2 1_555 1_555
O21_2 Nd5_2 1_555 1_555
C15_2 C16_2 1_555 1_555
C16_2 N3_2 1_555 1_555
C17_2 C16_2 1_555 1_555
H39_2 C17_2 1_555 1_555
C18_2 C17_2 1_555 1_555
H40_2 C18_2 1_555 1_555
C19_2 C18_2 1_555 1_555
H41_2 C19_2 1_555 1_555
C20_2 N3_2 1_555 1_555
C21_2 O21_2 1_555 1_555
C19_2 C20_2 1_555 1_555
C20_2 C21_2 1_555 1_555
Nd9_2 O19_2 1_555 1_555
O18 C15_3 1_555 1_555
O19_2 C15_3 1_555 1_555
O31_2 Nd5 1_555 1_555
O32_3 Nd5 1_555 1_555
H23_3 O32_3 1_555 1_555
H24_3 O32_3 1_555 1_555
O33_3 Nd5 1_555 1_555
H25_3 O33_3 1_555 1_555
H26_3 O33_3 1_555 1_555
C15_3 C16_3 1_555 1_555
C16_3 N4 1_555 1_555
C17_3 C16_3 1_555 1_555
H39_3 C17_3 1_555 1_555
C18_3 C17_3 1_555 1_555
H40_3 C18_3 1_555 1_555
N1_3 Nd1_3 1_555 1_555
N2_3 C9_3 1_555 1_555
Nd1_3 O1_3 1_555 1_555
Nd8_2 O2_3 1_555 1_555
O1_3 C1_3 1_555 1_555
O2_3 C1_3 1_555 1_555
O3_3 Nd1_3 1_555 1_555
O5_3 C8_3 1_555 1_555
O6_3 Nd1_3 1_555 1_555
O7_3 C14_3 1_555 1_555
O31_2 C14_3 1_555 1_555
O9_3 Nd1_3 1_555 1_555
H1_3 O9_3 1_555 1_555
H2_3 O9_3 1_555 1_555
O10_3 Nd1_3 1_555 1_555
H3_3 O10_3 1_555 1_555
H4_3 O10_3 1_555 1_555
O11_3 Nd1_3 1_555 1_555
H5_3 O11_3 1_555 1_555
H6_3 O11_3 1_555 1_555
O12_3 Nd1_3 1_555 1_555
H7_3 O12_3 1_555 1_555
H8_3 O12_3 1_555 1_555
O13_3 Nd8_2 1_555 1_555
H9_3 O13_3 1_555 1_555
H10_3 O13_3 1_555 1_555
O14_3 Nd8_2 1_555 1_555
H11_3 O14_3 1_555 1_555
H12_3 O14_3 1_555 1_555
O15_3 Nd8_2 1_555 1_555
O16_3 Nd8_2 1_555 1_555
H15_3 O16_3 1_555 1_555
H16_3 O16_3 1_555 1_555
C1_3 C2_3 1_555 1_555
C2_3 N1_3 1_555 1_555
C3_3 C2_3 1_555 1_555
H17_3 C3_3 1_555 1_555
C4_3 C3_3 1_555 1_555
H18_3 C4_3 1_555 1_555
C5_3 C4_3 1_555 1_555
H19_3 C5_3 1_555 1_555
C6_3 N1_3 1_555 1_555
C7_3 O3_3 1_555 1_555
C8_3 O6_3 1_555 1_555
C9_3 C8_3 1_555 1_555
C10_3 C9_3 1_555 1_555
H20_3 C10_3 1_555 1_555
C11_3 C10_3 1_555 1_555
H21_3 C11_3 1_555 1_555
C12_3 C11_3 1_555 1_555
H22_3 C12_3 1_555 1_555
C13_3 N2_3 1_555 1_555
C14_3 C13_3 1_555 1_555
Nd6_2 N2_3 1_555 1_555
O20_2 Nd6_2 1_555 1_555
O23_3 Nd8_2 1_555 1_555
O24_2 Nd6_2 1_555 1_555
O26_2 C22_3 1_555 1_555
O30_3 Nd1_3 1_555 1_555
H27_3 O34_3 1_555 1_555
H28_3 O34_3 1_555 1_555
H29_3 O35_3 1_555 1_555
O36_3 Nd6_2 1_555 1_555
H31_3 O36_3 1_555 1_555
H32_3 O36_3 1_555 1_555
O37_3 Nd6_2 1_555 1_555
H33_3 O37_3 1_555 1_555
H34_3 O37_3 1_555 1_555
O38_3 Nd6_2 1_555 1_555
O39_3 Nd6_2 1_555 1_555
H37_3 O39_3 1_555 1_555
H38_3 O39_3 1_555 1_555
H41_3 C19_3 1_555 1_555
C21_3 O22 1_555 1_555
C22_3 O27_3 1_555 1_555
C23_3 N6_2 1_555 1_555
C24_3 C23_3 1_555 1_555
H42_3 C24_3 1_555 1_555
C25_3 C24_3 1_555 1_555
H43_3 C25_3 1_555 1_555
C26_3 C25_3 1_555 1_555
H44_3 C26_3 1_555 1_555
C27_3 N6_2 1_555 1_555
C28_3 O29_2 1_555 1_555
O5_3 Nd6_2 1_555 1_555
O7_3 Nd6_2 1_555 1_555
C5_3 C6_3 1_555 1_555
C6_3 C7_3 1_555 1_555
C12_3 C13_3 1_555 1_555
O23_3 C21_3 1_555 1_555
O30_3 C28_3 1_555 1_555
C19_3 C20_3 1_555 1_555
C20_3 C21_3 1_555 1_555
C22_3 C23_3 1_555 1_555
C26_3 C27_3 1_555 1_555
C27_3 C28_3 1_555 1_555
Nd9_2 O4_2 1_555 1_555
N2_4 C9_4 1_555 1_555
O5_4 C8_4 1_555 1_555
O7_4 C14_4 1_555 1_555
O8_2 C14_4 1_555 1_555
H5_4 O11_4 1_555 1_555
H6_4 O11_4 1_555 1_555
H7_4 O12_4 1_555 1_555
H19_4 C5_4 1_555 1_555
C7_4 O3_4 1_555 1_555
C8_4 O6_4 1_555 1_555
C9_4 C8_4 1_555 1_555
C10_4 C9_4 1_555 1_555
H20_4 C10_4 1_555 1_555
C11_4 C10_4 1_555 1_555
H21_4 C11_4 1_555 1_555
C12_4 C11_4 1_555 1_555
H22_4 C12_4 1_555 1_555
C13_4 N2_4 1_555 1_555
C14_4 C13_4 1_555 1_555
Nd5_2 O8_2 1_555 1_555
Nd9_2 N2_4 1_555 1_555
O36_4 Nd9_2 1_555 1_555
H31_4 O36_4 1_555 1_555
H32_4 O36_4 1_555 1_555
O37_4 Nd9_2 1_555 1_555
H33_4 O37_4 1_555 1_555
H34_4 O37_4 1_555 1_555
O38_4 Nd9_2 1_555 1_555
H35_4 O38_4 1_555 1_555
H36_4 O38_4 1_555 1_555
O39_4 Nd9_2 1_555 1_555
H37_4 O39_4 1_555 1_555
H38_4 O39_4 1_555 1_555
O5_4 Nd9_2 1_555 1_555
O7_4 Nd9_2 1_555 1_555
C5_4 C6_4 1_555 1_555
C6_4 C7_4 1_555 1_555
C12_4 C13_4 1_555 1_555
N1_4 Nd1_4 1_555 1_555
Nd1_4 O1_4 1_555 1_555
Nd8 O2_4 1_555 1_555
O1_4 C1_4 1_555 1_555
O2_4 C1_4 1_555 1_555
O9_4 Nd1_4 1_555 1_555
H1_4 O9_4 1_555 1_555
H2_4 O9_4 1_555 1_555
O10_4 Nd1_4 1_555 1_555
H3_4 O10_4 1_555 1_555
H4_4 O10_4 1_555 1_555
O13_4 Nd8 1_555 1_555
H9_4 O13_4 1_555 1_555
H10_4 O13_4 1_555 1_555
O14_4 Nd8 1_555 1_555
H11_4 O14_4 1_555 1_555
H12_4 O14_4 1_555 1_555
O15_4 Nd8 1_555 1_555
H13_4 O15_4 1_555 1_555
H14_4 O15_4 1_555 1_555
O16_4 Nd8 1_555 1_555
H15_4 O16_4 1_555 1_555
H16_4 O16_4 1_555 1_555
C1_4 C2_4 1_555 1_555
C2_4 N1_4 1_555 1_555
C3_4 C2_4 1_555 1_555
H17_4 C3_4 1_555 1_555
C4_4 C3_4 1_555 1_555
H18_4 C4_4 1_555 1_555
O18_2 C15_4 1_555 1_555
O20_2 C15_4 1_555 1_555
O23_4 Nd8 1_555 1_555
O26 C22_4 1_555 1_555
O27_4 Nd5_2 1_555 1_555
O30_4 Nd1_4 1_555 1_555
O32_4 Nd5_2 1_555 1_555
H23_4 O32_4 1_555 1_555
H24_4 O32_4 1_555 1_555
O33_4 Nd5_2 1_555 1_555
H25_4 O33_4 1_555 1_555
H26_4 O33_4 1_555 1_555
O34_4 Nd5_2 1_555 1_555
H27_4 O34_4 1_555 1_555
H28_4 O34_4 1_555 1_555
O35_4 Nd5_2 1_555 1_555
H29_4 O35_4 1_555 1_555
H30_4 O35_4 1_555 1_555
C15_4 C16_4 1_555 1_555
C16_4 N4_2 1_555 1_555
C17_4 C16_4 1_555 1_555
H39_4 C17_4 1_555 1_555
C18_4 C17_4 1_555 1_555
H40_4 C18_4 1_555 1_555
C19_4 C18_4 1_555 1_555
H41_4 C19_4 1_555 1_555
C20_4 N4_2 1_555 1_555
C21_4 O22_2 1_555 1_555
C22_4 O27_4 1_555 1_555
C23_4 N6 1_555 1_555
C24_4 C23_4 1_555 1_555
H42_4 C24_4 1_555 1_555
C25_4 C24_4 1_555 1_555
H43_4 C25_4 1_555 1_555
C26_4 C25_4 1_555 1_555
H44_4 C26_4 1_555 1_555
C27_4 N6 1_555 1_555
C28_4 O29 1_555 1_555
O23_4 C21_4 1_555 1_555
O30_4 C28_4 1_555 1_555
C19_4 C20_4 1_555 1_555
C20_4 C21_4 1_555 1_555
C22_4 C23_4 1_555 1_555
C26_4 C27_4 1_555 1_555
C27_4 C28_4 1_555 1_555

#END
