
###############################################################################
#
# This file contains modified crystal structure data generated from the
# MOF subset of the Cambridge Structural Database (CSD) v543 
# hosted by the Cambridge Crystallographic Data Centre (CCDC).
#
# This work is licensed under the Creative Commons
# Attribution-NonCommercial-ShareAlike 4.0 International License.
# To view a copy of this license, visit
# http://creativecommons.org/licenses/by-nc-sa/4.0/
# or send a letter to
# Creative Commons, PO Box 1866, Mountain View, CA 94042, USA.
#
# CIF created using the CSD Python API on 29 September 2022
# The structure has been converted into the P1 space group
# The structure has a 3D framework
# The original CSD entry FORTIR is in the orthorhombic crystal system
# The original CSD entry FORTIR is in a Sohncke space group
# The framework has been calculated to contain at least 10.0% void space
# The void calculation uses a probe of radius 1.32A, grid spacing 0.4
# H atom positions have been added when not included in the experimental data
# Generated hydrogen atom positions removed from atoms on special positions
#
###############################################################################

data_FORTIR
_chemical_formula_moiety         '(C560 H560 Cd12 N40 O110 Zn30)n'
_symmetry_cell_setting           triclinic
_symmetry_space_group_name_H-M   'P 1'
_symmetry_Int_Tables_number      1
_space_group_name_Hall           'P 1'
loop_
_symmetry_equiv_pos_site_id
_symmetry_equiv_pos_as_xyz
1 x,y,z
_cell_length_a                   17.5150(19)
_cell_length_b                   32.963(4)
_cell_length_c                   38.137(4)
_cell_angle_alpha                90
_cell_angle_beta                 90
_cell_angle_gamma                90
_cell_volume                     22018.3
loop_
_atom_site_label
_atom_site_type_symbol
_atom_site_fract_x
_atom_site_fract_y
_atom_site_fract_z
Cd4 Cd 0.0048(2) -0.0000 0.2500
C63 C 0.038(3) 0.542(2) 0.030(2)
H60 H 0.0896 0.5371 0.0338
C64 C 0.016(3) 0.574(2) 0.0081(18)
Cd4_2 Cd 0.0048(2) 1.0000 0.2500
H61 H 0.0521 0.5902 0.9978
H95 H 0.3084 0.0037 0.2062
Cd1 Cd 0.7500 0.55764(7) 0.0000
Zn1 Zn 0.5000 0.7500 0.25235(9)
Zn2 Zn 0.62260(16) 0.69757(6) 0.21173(7)
Zn3 Zn 0.38548(17) 0.80799(7) 0.29198(7)
Zn4 Zn 0.32308(15) 0.73064(7) 0.25697(7)
C1 C 0.712(2) 0.5825(7) 0.0663(7)
C2 C 0.6895(7) 0.5963(3) 0.1015(3)
C3 C 0.6905(10) 0.5710(3) 0.1307(3)
H1 H 0.7024 0.5437 0.1281
C4 C 0.6737(12) 0.5866(4) 0.1636(3)
C5 C 0.6559(14) 0.6275(5) 0.1675(3)
C6 C 0.6549(14) 0.6528(4) 0.1383(4)
C7 C 0.6717(11) 0.6372(3) 0.1053(3)
H2 H 0.6711 0.6541 0.0858
C8 C 0.6740(17) 0.5573(5) 0.1957(5)
C9 C 0.732(2) 0.5693(8) 0.2202(9)
H3 H 0.7319 0.5512 0.2399
H4 H 0.7221 0.5965 0.2281
H5 H 0.7811 0.5684 0.2090
C10 C 0.5950(15) 0.5563(7) 0.2141(6)
H6 H 0.5971 0.5383 0.2338
H7 H 0.5570 0.5470 0.1978
H8 H 0.5821 0.5832 0.2219
C11 C 0.6917(18) 0.5129(6) 0.1855(8)
H9 H 0.6916 0.4963 0.2062
H10 H 0.7409 0.5116 0.1745
H11 H 0.6534 0.5033 0.1695
C12 C 0.6327(15) 0.6958(6) 0.1367(6)
H12 H 0.6304 0.7076 0.1146
C13 C 0.5938(6) 0.7605(2) 0.1590(2)
C14 C 0.5866(9) 0.7834(3) 0.1894(3)
C15 C 0.5670(10) 0.8242(3) 0.1874(3)
C16 C 0.5547(10) 0.8421(3) 0.1549(4)
C17 C 0.5619(11) 0.8193(3) 0.1244(3)
C18 C 0.5815(9) 0.7785(3) 0.1265(2)
H13 H 0.5863 0.7632 0.1061
C19 C 0.545(2) 0.8380(8) 0.0885(7)
H14 H 0.5521 0.8179 0.0706
H15 H 0.5787 0.8604 0.0844
H16 H 0.4929 0.8474 0.0880
C20 C 0.5213(16) 0.8862(6) 0.1491(7)
H17 H 0.5172 0.8916 0.1244
H18 H 0.5546 0.9058 0.1596
H19 H 0.4716 0.8881 0.1596
C21 C 0.5659(6) 0.8501(2) 0.2214(2)
C22 C 0.5111(7) 0.8424(3) 0.2469(3)
C23 C 0.5049(9) 0.8679(4) 0.2758(3)
C24 C 0.5535(11) 0.9010(4) 0.2792(3)
H20 H 0.5493 0.9180 0.2986
C25 C 0.6082(10) 0.9087(3) 0.2537(4)
C26 C 0.6144(7) 0.8832(3) 0.2247(3)
C27 C 0.6827(14) 0.8905(7) 0.1963(7)
H21 H 0.7112 0.9142 0.2027
H22 H 0.6610 0.8941 0.1734
H23 H 0.7160 0.8673 0.1962
C28 C 0.6598(16) 0.9469(6) 0.2605(8)
H24 H 0.6957 0.9498 0.2417
H25 H 0.6869 0.9434 0.2822
H26 H 0.6283 0.9707 0.2619
C29 C 0.4269(16) 0.8831(6) 0.3250(6)
H27 H 0.4553 0.9068 0.3272
C30 C 0.3659(8) 0.8774(3) 0.3507(3)
C31 C 0.3191(9) 0.8437(3) 0.3546(3)
C32 C 0.2631(9) 0.8434(4) 0.3805(4)
C33 C 0.2540(11) 0.8768(5) 0.4023(4)
H28 H 0.2165 0.8765 0.4196
C34 C 0.3008(11) 0.9105(4) 0.3984(4)
C35 C 0.3568(9) 0.9108(3) 0.3725(3)
H29 H 0.3882 0.9334 0.3699
C36 C 0.285(2) 0.9480(6) 0.4196(7)
C37 C 0.2103(18) 0.8055(7) 0.3854(8)
C38 C 0.1528(19) 0.8117(9) 0.4182(8)
H30 H 0.1198 0.7886 0.4201
H31 H 0.1227 0.8357 0.4146
H32 H 0.1819 0.8146 0.4394
C39 C 0.252(2) 0.7679(8) 0.3932(9)
H33 H 0.2166 0.7461 0.3963
H34 H 0.2813 0.7715 0.4143
H35 H 0.2859 0.7617 0.3741
C40 C 0.159(2) 0.8008(11) 0.3525(9)
H36 H 0.1244 0.7784 0.3559
H37 H 0.1901 0.7958 0.3323
H38 H 0.1299 0.8252 0.3490
C41 C 0.0769(16) 0.5660(8) 0.2473(10)
C42 C 0.1189(7) 0.6046(3) 0.2438(4)
C43 C 0.1061(9) 0.6289(4) 0.2146(4)
H39 H 0.0700 0.6212 0.1980
C44 C 0.1472(11) 0.6646(4) 0.2102(5)
C45 C 0.2012(11) 0.6760(4) 0.2350(6)
C46 C 0.2140(10) 0.6518(5) 0.2643(6)
C47 C 0.1729(8) 0.6161(4) 0.2687(4)
H40 H 0.1815 0.5998 0.2882
C48 C 0.1311(16) 0.6912(8) 0.1773(7)
C49 C 0.0712(16) 0.6725(12) 0.1523(9)
H41 H 0.0640 0.6900 0.1325
H42 H 0.0237 0.6693 0.1646
H43 H 0.0888 0.6465 0.1444
C50 C 0.2067(19) 0.6928(12) 0.1546(9)
H44 H 0.2473 0.7041 0.1684
H45 H 0.1985 0.7093 0.1343
H46 H 0.2202 0.6658 0.1474
C51 C 0.106(3) 0.7344(9) 0.1874(12)
H47 H 0.1428 0.7462 0.2028
H48 H 0.0571 0.7332 0.1991
H49 H 0.1011 0.7507 0.1666
C52 C 0.2718(14) 0.6582(6) 0.2918(7)
H50 H 0.2755 0.6385 0.3091
C53 C 0.3740(7) 0.6915(3) 0.3217(3)
C54 C 0.4230(8) 0.7246(3) 0.3206(3)
C55 C 0.4772(9) 0.7300(4) 0.3468(4)
C56 C 0.4823(10) 0.7023(5) 0.3742(4)
C57 C 0.4332(10) 0.6692(5) 0.3753(3)
C58 C 0.3790(8) 0.6638(3) 0.3491(3)
H51 H 0.3462 0.6417 0.3499
C59 C 0.442(2) 0.6357(8) 0.4042(8)
H52 H 0.4033 0.6153 0.4007
H53 H 0.4356 0.6477 0.4269
H54 H 0.4914 0.6236 0.4025
C60 C 0.5394(17) 0.7065(7) 0.4023(6)
H55 H 0.5693 0.7305 0.3984
H56 H 0.5723 0.6832 0.4023
H57 H 0.5139 0.7085 0.4245
N1 N 0.884(3) 0.5557(14) 0.0174(11)
C61 C 0.906(3) 0.5239(16) 0.0390(14)
H58 H 0.8697 0.5073 0.0493
C62 C 0.983(4) 0.517(2) 0.0451(18)
H59 H 0.9984 0.4956 0.0596
C65 C 0.938(3) 0.5805(16) 0.0020(14)
N3 N 0.6161(12) 0.7188(4) 0.1633(5)
N4 N 0.4460(13) 0.8594(5) 0.3000(5)
N5 N 0.3171(13) 0.6881(6) 0.2940(5)
O1 O 0.4185(8) 0.7494(4) 0.2921(4)
O2 O 0.6879(8) 0.7080(4) 0.2542(4)
O3 O 0.6430(11) 0.6425(4) 0.1992(4)
O4 O 0.5932(8) 0.7632(3) 0.2201(3)
O5 O 0.4653(8) 0.8091(4) 0.2458(4)
O6 O 0.3232(12) 0.8115(4) 0.3335(4)
O7 O 0.2380(10) 0.7114(5) 0.2298(5)
O8 O 0.724(2) 0.6069(5) 0.0417(5)
O9 O 0.7208(14) 0.5447(5) 0.0613(5)
O10 O 0.3294(15) 0.9785(5) 0.4122(5)
O11 O 0.2336(14) 0.9484(5) 0.4414(5)
O12 O 0.0266(12) 0.5569(6) 0.2247(6)
O13 O 0.0875(13) 0.5438(6) 0.2752(7)
O14 O 0.7500 0.4886(8) 0.0000
C71 C 0.9231(16) 0.9340(8) 0.2473(10)
C72 C 0.8811(7) 0.8954(3) 0.2438(4)
C73 C 0.8939(9) 0.8711(4) 0.2146(4)
H68 H 0.9300 0.8788 0.1980
C74 C 0.8528(11) 0.8354(4) 0.2102(5)
C75 C 0.7988(11) 0.8240(4) 0.2350(6)
C76 C 0.7860(10) 0.8482(5) 0.2643(6)
C77 C 0.8271(8) 0.8839(4) 0.2687(4)
H69 H 0.8185 0.9002 0.2882
C78 C 0.8689(16) 0.8088(8) 0.1773(7)
C79 C 0.9288(16) 0.8275(12) 0.1523(9)
H70 H 0.9360 0.8100 0.1325
H71 H 0.9763 0.8307 0.1646
H72 H 0.9112 0.8535 0.1444
C80 C 0.7933(19) 0.8072(12) 0.1546(9)
H73 H 0.7527 0.7959 0.1684
H74 H 0.8015 0.7907 0.1343
H75 H 0.7798 0.8342 0.1474
C81 C 0.894(3) 0.7656(9) 0.1874(12)
H76 H 0.8572 0.7538 0.2028
H77 H 0.9429 0.7668 0.1991
H78 H 0.8989 0.7493 0.1666
C82 C 0.7282(14) 0.8418(6) 0.2918(7)
H79 H 0.7245 0.8615 0.3091
C83 C 0.6260(7) 0.8085(3) 0.3217(3)
C84 C 0.5770(8) 0.7754(3) 0.3206(3)
C85 C 0.5228(9) 0.7700(4) 0.3468(4)
C86 C 0.5177(10) 0.7977(5) 0.3742(4)
C87 C 0.5668(10) 0.8308(5) 0.3753(3)
C88 C 0.6210(8) 0.8362(3) 0.3491(3)
H80 H 0.6538 0.8583 0.3499
C89 C 0.558(2) 0.8643(8) 0.4042(8)
H81 H 0.5967 0.8847 0.4007
H82 H 0.5644 0.8523 0.4269
H83 H 0.5086 0.8764 0.4025
C90 C 0.4606(17) 0.7935(7) 0.4023(6)
H84 H 0.4307 0.7695 0.3984
H85 H 0.4277 0.8168 0.4023
H86 H 0.4861 0.7915 0.4245
N6 N 0.6829(13) 0.8119(6) 0.2940(5)
O15 O 0.5815(8) 0.7506(4) 0.2921(4)
O16 O 0.7620(10) 0.7886(5) 0.2298(5)
O17 O 0.9734(12) 0.9431(6) 0.2247(6)
O18 O 0.9125(13) 0.9562(6) 0.2752(7)
Zn5 Zn 0.37740(16) 0.80243(6) 0.21173(7)
Zn6 Zn 0.61452(17) 0.69201(7) 0.29198(7)
Zn7 Zn 0.67692(15) 0.76936(7) 0.25697(7)
C91 C 0.288(2) 0.9175(7) 0.0663(7)
C92 C 0.3105(7) 0.9037(3) 0.1015(3)
C93 C 0.3095(10) 0.9290(3) 0.1307(3)
H87 H 0.2976 0.9563 0.1281
C94 C 0.3263(12) 0.9134(4) 0.1636(3)
C95 C 0.3441(14) 0.8725(5) 0.1675(3)
C96 C 0.3451(14) 0.8472(4) 0.1383(4)
C97 C 0.3283(11) 0.8628(3) 0.1053(3)
H88 H 0.3289 0.8459 0.0858
C98 C 0.3260(17) 0.9427(5) 0.1957(5)
C99 C 0.268(2) 0.9307(8) 0.2202(9)
H89 H 0.2681 0.9488 0.2399
H90 H 0.2779 0.9035 0.2281
H91 H 0.2189 0.9316 0.2090
C100 C 0.4050(15) 0.9437(7) 0.2141(6)
H92 H 0.4029 0.9617 0.2338
H93 H 0.4430 0.9530 0.1978
H94 H 0.4179 0.9168 0.2219
C101 C 0.3083(18) 0.9871(6) 0.1855(8)
H96 H 0.2591 0.9884 0.1745
H97 H 0.3466 0.9967 0.1695
C102 C 0.3673(15) 0.8042(6) 0.1367(6)
H98 H 0.3696 0.7924 0.1146
C103 C 0.4062(6) 0.7395(2) 0.1590(2)
C104 C 0.4134(9) 0.7166(3) 0.1894(3)
C105 C 0.4330(10) 0.6758(3) 0.1874(3)
C106 C 0.4453(10) 0.6579(3) 0.1549(4)
C107 C 0.4381(11) 0.6807(3) 0.1244(3)
C108 C 0.4185(9) 0.7215(3) 0.1265(2)
H99 H 0.4137 0.7368 0.1061
C109 C 0.455(2) 0.6620(8) 0.0885(7)
H100 H 0.4479 0.6821 0.0706
H101 H 0.4213 0.6396 0.0844
H102 H 0.5071 0.6526 0.0880
C110 C 0.4787(16) 0.6138(6) 0.1491(7)
H103 H 0.4828 0.6084 0.1244
H104 H 0.4454 0.5942 0.1596
H105 H 0.5284 0.6119 0.1596
C111 C 0.4341(6) 0.6499(2) 0.2214(2)
C112 C 0.4889(7) 0.6576(3) 0.2469(3)
C113 C 0.4951(9) 0.6321(4) 0.2758(3)
C114 C 0.4465(11) 0.5990(4) 0.2792(3)
H106 H 0.4507 0.5820 0.2986
C115 C 0.3918(10) 0.5913(3) 0.2537(4)
C116 C 0.3856(7) 0.6168(3) 0.2247(3)
C117 C 0.3173(14) 0.6095(7) 0.1963(7)
H107 H 0.2888 0.5858 0.2027
H108 H 0.3390 0.6059 0.1734
H109 H 0.2840 0.6327 0.1962
C118 C 0.3402(16) 0.5531(6) 0.2605(8)
H110 H 0.3043 0.5502 0.2417
H111 H 0.3131 0.5566 0.2822
H112 H 0.3717 0.5293 0.2619
C119 C 0.5731(16) 0.6169(6) 0.3250(6)
H113 H 0.5447 0.5932 0.3272
C120 C 0.6341(8) 0.6226(3) 0.3507(3)
C121 C 0.6809(9) 0.6563(3) 0.3546(3)
C122 C 0.7369(9) 0.6566(4) 0.3805(4)
C123 C 0.7460(11) 0.6232(5) 0.4023(4)
H114 H 0.7835 0.6235 0.4196
C124 C 0.6992(11) 0.5895(4) 0.3984(4)
C125 C 0.6432(9) 0.5892(3) 0.3725(3)
H115 H 0.6118 0.5666 0.3699
C126 C 0.715(2) 0.5520(6) 0.4196(7)
C127 C 0.7897(18) 0.6945(7) 0.3854(8)
C128 C 0.8472(19) 0.6883(9) 0.4182(8)
H116 H 0.8802 0.7114 0.4201
H117 H 0.8773 0.6643 0.4146
H118 H 0.8181 0.6854 0.4394
C129 C 0.748(2) 0.7321(8) 0.3932(9)
H119 H 0.7834 0.7539 0.3963
H120 H 0.7187 0.7285 0.4143
H121 H 0.7141 0.7383 0.3741
C130 C 0.841(2) 0.6992(11) 0.3525(9)
H122 H 0.8756 0.7216 0.3559
H123 H 0.8099 0.7042 0.3323
H124 H 0.8701 0.6748 0.3490
N7 N 0.3839(12) 0.7812(4) 0.1633(5)
N8 N 0.5540(13) 0.6406(5) 0.3000(5)
O19 O 0.3121(8) 0.7920(4) 0.2542(4)
O20 O 0.3570(11) 0.8575(4) 0.1992(4)
O21 O 0.4068(8) 0.7368(3) 0.2201(3)
O22 O 0.5347(8) 0.6909(4) 0.2458(4)
O23 O 0.6768(12) 0.6885(4) 0.3335(4)
O24 O 0.276(2) 0.8931(5) 0.0417(5)
O25 O 0.2792(14) 0.9553(5) 0.0613(5)
O26 O 0.6706(15) 0.5215(5) 0.4122(5)
O27 O 0.7664(14) 0.5516(5) 0.4414(5)
H128 H 0.4479 0.5902 0.0022
H129 H 0.5766 0.6018 0.0125
Cd3 Cd 0.2500 0.94236(7) 0.0000
O30 O 0.0266(12) 0.4431(6) 0.2753(6)
O31 O 0.0875(13) 0.4562(6) 0.2248(7)
H135 H 0.323113 0.985949 0.387137
H136 H 0.763123 0.478558 0.0237972
H138 H 0.676887 0.514051 0.387137
Cd1_2 Cd 0.7500 0.55764(7) 1.0000
H62 H 0.9234 0.6018 0.9875
O14_2 O 0.7500 0.4886(8) 1.0000
N9 N 0.616(3) 0.5557(14) 0.9826(11)
C131 C 0.594(3) 0.5239(16) 0.9610(14)
H125 H 0.6303 0.5073 0.9507
C132 C 0.517(4) 0.517(2) 0.9549(18)
H126 H 0.5016 0.4956 0.9404
C133 C 0.462(3) 0.542(2) 0.970(2)
H127 H 0.4104 0.5371 0.9662
C134 C 0.484(3) 0.574(2) 0.9919(18)
C135 C 0.562(3) 0.5805(16) 0.9980(14)
Cd3_2 Cd 0.2500 0.94236(7) 1.0000
O28 O 0.776(2) 0.6069(5) 0.9583(5)
O29 O 0.7792(14) 0.5447(5) 0.9387(5)
H137 H 0.698564 0.478558 0.993321
Cd2 Cd 0.9952(2) 0.5000 0.2500
N2 N 0.9218(11) 0.4814(7) 0.2061(9)
C66 C 0.8821(17) 0.4451(8) 0.2103(11)
H63 H 0.8761 0.4340 0.2325
C67 C 0.851(2) 0.4256(10) 0.1812(13)
H64 H 0.8249 0.4014 0.1840
C68 C 0.860(3) 0.4423(14) 0.1480(11)
H65 H 0.8399 0.4292 0.1286
C69 C 0.900(2) 0.4785(14) 0.1438(9)
H66 H 0.9061 0.4896 0.1216
C70 C 0.9307(17) 0.4980(9) 0.1729(9)
H67 H 0.9573 0.5222 0.1701
N10 N 0.9218(11) 0.5186(7) 0.2939(9)
C136 C 0.8821(17) 0.5549(8) 0.2897(11)
H130 H 0.8761 0.5660 0.2675
C137 C 0.851(2) 0.5744(10) 0.3188(13)
H131 H 0.8249 0.5986 0.3160
C138 C 0.860(3) 0.5577(14) 0.3520(11)
H132 H 0.8399 0.5708 0.3714
C139 C 0.900(2) 0.5215(14) 0.3562(9)
H133 H 0.9061 0.5104 0.3784
C140 C 0.9307(17) 0.5020(9) 0.3271(9)
H134 H 0.9573 0.4778 0.3299
N2_2 N 0.0782(11) 0.0186(7) 0.2061(9)
C66_2 C 0.1179(17) 0.0549(8) 0.2103(11)
H63_2 H 0.1239 0.0660 0.2325
C67_2 C 0.149(2) 0.0744(10) 0.1812(13)
H64_2 H 0.1751 0.0986 0.1840
C68_2 C 0.140(3) 0.0577(14) 0.1480(11)
H65_2 H 0.1601 0.0708 0.1286
C69_2 C 0.100(2) 0.0215(14) 0.1438(9)
H66_2 H 0.0939 0.0104 0.1216
C70_2 C 0.0693(17) 0.0020(9) 0.1729(9)
H134_2 H 0.0427 0.0222 0.3299
H67_2 H 0.0427 0.9778 0.1701
N10_2 N 0.0782(11) 0.9814(7) 0.2939(9)
C136_2 C 0.1179(17) 0.9451(8) 0.2897(11)
H130_2 H 0.1239 0.9340 0.2675
C137_2 C 0.149(2) 0.9256(10) 0.3188(13)
H131_2 H 0.1751 0.9014 0.3160
C138_2 C 0.140(3) 0.9423(14) 0.3520(11)
H132_2 H 0.1601 0.9292 0.3714
C139_2 C 0.100(2) 0.9785(14) 0.3562(9)
H133_2 H 0.0939 0.9896 0.3784
C140_2 C 0.0693(17) 0.9980(9) 0.3271(9)
H59_2 H 0.0016 0.0044 0.0596
O14_3 O 0.2500 0.0114(8) 0.0000
O30_2 O 0.9734(12) 0.0569(6) 0.2753(6)
O31_2 O 0.9125(13) 0.0438(6) 0.2248(7)
H136_2 H 0.236877 0.0214416 0.0237972
N1_2 N 0.116(3) 0.9443(14) 0.0174(11)
C61_2 C 0.094(3) 0.9761(16) 0.0390(14)
H58_2 H 0.1303 0.9927 0.0493
C62_2 C 0.017(4) 0.983(2) 0.0451(18)
C65_2 C 0.062(3) 0.9195(16) 0.0020(14)
H128_2 H 0.5521 0.9098 0.0022
H129_2 H 0.4234 0.8982 0.0125
H62_2 H 0.0766 0.8982 0.9875
N9_2 N 0.384(3) 0.9443(14) 0.9826(11)
C131_2 C 0.406(3) 0.9761(16) 0.9610(14)
H125_2 H 0.3697 0.9927 0.9507
C132_2 C 0.483(4) 0.983(2) 0.9549(18)
C133_2 C 0.538(3) 0.958(2) 0.970(2)
H127_2 H 0.5896 0.9629 0.9662
C134_2 C 0.516(3) 0.926(2) 0.9919(18)
C135_2 C 0.438(3) 0.9195(16) 0.9980(14)
O28_2 O 0.224(2) 0.8931(5) 0.9583(5)
O29_2 O 0.2208(14) 0.9553(5) 0.9387(5)
C63_2 C 0.962(3) 0.958(2) 0.030(2)
H60_2 H 0.9104 0.9629 0.0338
C64_2 C 0.984(3) 0.926(2) 0.0081(18)
H61_2 H 0.9479 0.9098 0.9978
C63_3 C 0.038(3) 0.458(2) 0.470(2)
H60_3 H 0.0896 0.4629 0.4662
C64_3 C 0.016(3) 0.426(2) 0.4919(18)
H61_3 H 0.0521 0.4098 0.5022
Cd1_3 Cd 0.7500 0.44236(7) 0.5000
Zn1_2 Zn 0.5000 0.2500 0.24765(9)
Zn2_2 Zn 0.62260(16) 0.30243(6) 0.28827(7)
Zn3_2 Zn 0.38548(17) 0.19201(7) 0.20802(7)
Zn4_2 Zn 0.32308(15) 0.26936(7) 0.24303(7)
C1_2 C 0.712(2) 0.4175(7) 0.4337(7)
C2_2 C 0.6895(7) 0.4037(3) 0.3985(3)
C3_2 C 0.6905(10) 0.4290(3) 0.3693(3)
H1_2 H 0.7024 0.4563 0.3719
C4_2 C 0.6737(12) 0.4134(4) 0.3364(3)
C5_2 C 0.6559(14) 0.3725(5) 0.3325(3)
C6_2 C 0.6549(14) 0.3472(4) 0.3617(4)
C7_2 C 0.6717(11) 0.3628(3) 0.3947(3)
H2_2 H 0.6711 0.3459 0.4142
C8_2 C 0.6740(17) 0.4427(5) 0.3043(5)
C9_2 C 0.732(2) 0.4307(8) 0.2798(9)
H3_2 H 0.7319 0.4488 0.2601
H4_2 H 0.7221 0.4035 0.2719
H5_2 H 0.7811 0.4316 0.2910
C10_2 C 0.5950(15) 0.4437(7) 0.2859(6)
H6_2 H 0.5971 0.4617 0.2662
H7_2 H 0.5570 0.4530 0.3022
H8_2 H 0.5821 0.4168 0.2781
C11_2 C 0.6917(18) 0.4871(6) 0.3145(8)
H9_2 H 0.6916 0.5037 0.2938
H10_2 H 0.7409 0.4884 0.3255
H11_2 H 0.6534 0.4967 0.3305
C12_2 C 0.6327(15) 0.3042(6) 0.3633(6)
H12_2 H 0.6304 0.2924 0.3854
C13_2 C 0.5938(6) 0.2395(2) 0.3410(2)
C14_2 C 0.5866(9) 0.2166(3) 0.3106(3)
C15_2 C 0.5670(10) 0.1758(3) 0.3126(3)
C16_2 C 0.5547(10) 0.1579(3) 0.3451(4)
C17_2 C 0.5619(11) 0.1807(3) 0.3756(3)
C18_2 C 0.5815(9) 0.2215(3) 0.3735(2)
H13_2 H 0.5863 0.2368 0.3939
C19_2 C 0.545(2) 0.1620(8) 0.4115(7)
H14_2 H 0.5521 0.1821 0.4294
H15_2 H 0.5787 0.1396 0.4156
H16_2 H 0.4929 0.1526 0.4120
C20_2 C 0.5213(16) 0.1138(6) 0.3509(7)
H17_2 H 0.5172 0.1084 0.3756
H18_2 H 0.5546 0.0942 0.3404
H19_2 H 0.4716 0.1119 0.3404
C21_2 C 0.5659(6) 0.1499(2) 0.2786(2)
C22_2 C 0.5111(7) 0.1576(3) 0.2531(3)
C23_2 C 0.5049(9) 0.1321(4) 0.2242(3)
C24_2 C 0.5535(11) 0.0990(4) 0.2208(3)
H20_2 H 0.5493 0.0820 0.2014
C25_2 C 0.6082(10) 0.0913(3) 0.2463(4)
C26_2 C 0.6144(7) 0.1168(3) 0.2753(3)
C27_2 C 0.6827(14) 0.1095(7) 0.3037(7)
H21_2 H 0.7112 0.0858 0.2973
H22_2 H 0.6610 0.1059 0.3266
H23_2 H 0.7160 0.1327 0.3038
C28_2 C 0.6598(16) 0.0531(6) 0.2395(8)
H24_2 H 0.6957 0.0502 0.2583
H25_2 H 0.6869 0.0566 0.2178
H26_2 H 0.6283 0.0293 0.2381
C29_2 C 0.4269(16) 0.1169(6) 0.1750(6)
H27_2 H 0.4553 0.0932 0.1728
C30_2 C 0.3659(8) 0.1226(3) 0.1493(3)
C31_2 C 0.3191(9) 0.1563(3) 0.1454(3)
C32_2 C 0.2631(9) 0.1566(4) 0.1195(4)
C33_2 C 0.2540(11) 0.1232(5) 0.0977(4)
H28_2 H 0.2165 0.1235 0.0804
C34_2 C 0.3008(11) 0.0895(4) 0.1016(4)
C35_2 C 0.3568(9) 0.0892(3) 0.1275(3)
H29_2 H 0.3882 0.0666 0.1301
C36_2 C 0.285(2) 0.0520(6) 0.0804(7)
C37_2 C 0.2103(18) 0.1945(7) 0.1146(8)
C38_2 C 0.1528(19) 0.1883(9) 0.0818(8)
H30_2 H 0.1198 0.2114 0.0799
H31_2 H 0.1227 0.1643 0.0854
H32_2 H 0.1819 0.1854 0.0606
C39_2 C 0.252(2) 0.2321(8) 0.1068(9)
H33_2 H 0.2166 0.2539 0.1037
H34_2 H 0.2813 0.2285 0.0857
H35_2 H 0.2859 0.2383 0.1259
C40_2 C 0.159(2) 0.1992(11) 0.1475(9)
H36_2 H 0.1244 0.2216 0.1441
H37_2 H 0.1901 0.2042 0.1677
H38_2 H 0.1299 0.1748 0.1510
C41_2 C 0.0769(16) 0.4340(8) 0.2527(10)
C42_2 C 0.1189(7) 0.3954(3) 0.2562(4)
C43_2 C 0.1061(9) 0.3711(4) 0.2854(4)
H39_2 H 0.0700 0.3788 0.3020
C44_2 C 0.1472(11) 0.3354(4) 0.2898(5)
C45_2 C 0.2012(11) 0.3240(4) 0.2650(6)
C46_2 C 0.2140(10) 0.3482(5) 0.2357(6)
C47_2 C 0.1729(8) 0.3839(4) 0.2313(4)
H40_2 H 0.1815 0.4002 0.2118
C48_2 C 0.1311(16) 0.3088(8) 0.3227(7)
C49_2 C 0.0712(16) 0.3275(12) 0.3477(9)
H41_2 H 0.0640 0.3100 0.3675
H42_2 H 0.0237 0.3307 0.3354
H43_2 H 0.0888 0.3535 0.3556
C50_2 C 0.2067(19) 0.3072(12) 0.3454(9)
H44_2 H 0.2473 0.2959 0.3316
H45_2 H 0.1985 0.2907 0.3657
H46_2 H 0.2202 0.3342 0.3526
C51_2 C 0.106(3) 0.2656(9) 0.3126(12)
H47_2 H 0.1428 0.2538 0.2972
H48_2 H 0.0571 0.2668 0.3009
H49_2 H 0.1011 0.2493 0.3334
C52_2 C 0.2718(14) 0.3418(6) 0.2082(7)
H50_2 H 0.2755 0.3615 0.1909
C53_2 C 0.3740(7) 0.3085(3) 0.1783(3)
C54_2 C 0.4230(8) 0.2754(3) 0.1794(3)
C55_2 C 0.4772(9) 0.2700(4) 0.1532(4)
C56_2 C 0.4823(10) 0.2977(5) 0.1258(4)
C57_2 C 0.4332(10) 0.3308(5) 0.1247(3)
C58_2 C 0.3790(8) 0.3362(3) 0.1509(3)
H51_2 H 0.3462 0.3583 0.1501
C59_2 C 0.442(2) 0.3643(8) 0.0958(8)
H52_2 H 0.4033 0.3847 0.0993
H53_2 H 0.4356 0.3523 0.0731
H54_2 H 0.4914 0.3764 0.0975
C60_2 C 0.5394(17) 0.2935(7) 0.0977(6)
H55_2 H 0.5693 0.2695 0.1016
H56_2 H 0.5723 0.3168 0.0977
H57_2 H 0.5139 0.2915 0.0755
N1_3 N 0.884(3) 0.4443(14) 0.4826(11)
C61_3 C 0.906(3) 0.4761(16) 0.4610(14)
H58_3 H 0.8697 0.4927 0.4507
C62_3 C 0.983(4) 0.483(2) 0.4549(18)
H59_3 H 0.9984 0.5044 0.4404
C65_3 C 0.938(3) 0.4195(16) 0.4980(14)
H62_3 H 0.9234 0.3982 0.5125
N3_2 N 0.6161(12) 0.2812(4) 0.3367(5)
N4_2 N 0.4460(13) 0.1406(5) 0.2000(5)
N5_2 N 0.3171(13) 0.3119(6) 0.2060(5)
O1_2 O 0.4185(8) 0.2506(4) 0.2079(4)
O2_2 O 0.6879(8) 0.2920(4) 0.2458(4)
O3_2 O 0.6430(11) 0.3575(4) 0.3008(4)
O4_2 O 0.5932(8) 0.2368(3) 0.2799(3)
O5_2 O 0.4653(8) 0.1909(4) 0.2542(4)
O6_2 O 0.3232(12) 0.1885(4) 0.1665(4)
O7_2 O 0.2380(10) 0.2886(5) 0.2702(5)
O8_2 O 0.724(2) 0.3931(5) 0.4583(5)
O9_2 O 0.7208(14) 0.4553(5) 0.4387(5)
O10_2 O 0.3294(15) 0.0215(5) 0.0878(5)
O11_2 O 0.2336(14) 0.0516(5) 0.0586(5)
O14_4 O 0.7500 0.5114(8) 0.5000
C71_2 C 0.9231(16) 0.0660(8) 0.2527(10)
C72_2 C 0.8811(7) 0.1046(3) 0.2562(4)
C73_2 C 0.8939(9) 0.1289(4) 0.2854(4)
H68_2 H 0.9300 0.1212 0.3020
C74_2 C 0.8528(11) 0.1646(4) 0.2898(5)
C75_2 C 0.7988(11) 0.1760(4) 0.2650(6)
C76_2 C 0.7860(10) 0.1518(5) 0.2357(6)
C77_2 C 0.8271(8) 0.1161(4) 0.2313(4)
H69_2 H 0.8185 0.0998 0.2118
C78_2 C 0.8689(16) 0.1912(8) 0.3227(7)
C79_2 C 0.9288(16) 0.1725(12) 0.3477(9)
H70_2 H 0.9360 0.1900 0.3675
H71_2 H 0.9763 0.1693 0.3354
H72_2 H 0.9112 0.1465 0.3556
C80_2 C 0.7933(19) 0.1928(12) 0.3454(9)
H73_2 H 0.7527 0.2041 0.3316
H74_2 H 0.8015 0.2093 0.3657
H75_2 H 0.7798 0.1658 0.3526
C81_2 C 0.894(3) 0.2344(9) 0.3126(12)
H76_2 H 0.8572 0.2462 0.2972
H77_2 H 0.9429 0.2332 0.3009
H78_2 H 0.8989 0.2507 0.3334
C82_2 C 0.7282(14) 0.1582(6) 0.2082(7)
H79_2 H 0.7245 0.1385 0.1909
C83_2 C 0.6260(7) 0.1915(3) 0.1783(3)
C84_2 C 0.5770(8) 0.2246(3) 0.1794(3)
C85_2 C 0.5228(9) 0.2300(4) 0.1532(4)
C86_2 C 0.5177(10) 0.2023(5) 0.1258(4)
C87_2 C 0.5668(10) 0.1692(5) 0.1247(3)
C88_2 C 0.6210(8) 0.1638(3) 0.1509(3)
H80_2 H 0.6538 0.1417 0.1501
C89_2 C 0.558(2) 0.1357(8) 0.0958(8)
H81_2 H 0.5967 0.1153 0.0993
H82_2 H 0.5644 0.1477 0.0731
H83_2 H 0.5086 0.1236 0.0975
C90_2 C 0.4606(17) 0.2065(7) 0.0977(6)
H84_2 H 0.4307 0.2305 0.1016
H85_2 H 0.4277 0.1832 0.0977
H86_2 H 0.4861 0.2085 0.0755
N6_2 N 0.6829(13) 0.1881(6) 0.2060(5)
O15_2 O 0.5815(8) 0.2494(4) 0.2079(4)
O16_2 O 0.7620(10) 0.2114(5) 0.2702(5)
Zn5_2 Zn 0.37740(16) 0.19757(6) 0.28827(7)
Zn6_2 Zn 0.61452(17) 0.30799(7) 0.20802(7)
Zn7_2 Zn 0.67692(15) 0.23064(7) 0.24303(7)
C91_2 C 0.288(2) 0.0825(7) 0.4337(7)
C92_2 C 0.3105(7) 0.0963(3) 0.3985(3)
C93_2 C 0.3095(10) 0.0710(3) 0.3693(3)
H87_2 H 0.2976 0.0437 0.3719
C94_2 C 0.3263(12) 0.0866(4) 0.3364(3)
C95_2 C 0.3441(14) 0.1275(5) 0.3325(3)
C96_2 C 0.3451(14) 0.1528(4) 0.3617(4)
C97_2 C 0.3283(11) 0.1372(3) 0.3947(3)
H88_2 H 0.3289 0.1541 0.4142
C98_2 C 0.3260(17) 0.0573(5) 0.3043(5)
C99_2 C 0.268(2) 0.0693(8) 0.2798(9)
H89_2 H 0.2681 0.0512 0.2601
H90_2 H 0.2779 0.0965 0.2719
H91_2 H 0.2189 0.0684 0.2910
C100_2 C 0.4050(15) 0.0563(7) 0.2859(6)
H92_2 H 0.4029 0.0383 0.2662
H93_2 H 0.4430 0.0470 0.3022
H94_2 H 0.4179 0.0832 0.2781
C101_2 C 0.3083(18) 0.0129(6) 0.3145(8)
H96_2 H 0.2591 0.0116 0.3255
H97_2 H 0.3466 0.0033 0.3305
C102_2 C 0.3673(15) 0.1958(6) 0.3633(6)
H98_2 H 0.3696 0.2076 0.3854
C103_2 C 0.4062(6) 0.2605(2) 0.3410(2)
C104_2 C 0.4134(9) 0.2834(3) 0.3106(3)
C105_2 C 0.4330(10) 0.3242(3) 0.3126(3)
C106_2 C 0.4453(10) 0.3421(3) 0.3451(4)
C107_2 C 0.4381(11) 0.3193(3) 0.3756(3)
C108_2 C 0.4185(9) 0.2785(3) 0.3735(2)
H99_2 H 0.4137 0.2632 0.3939
C109_2 C 0.455(2) 0.3380(8) 0.4115(7)
H100_2 H 0.4479 0.3179 0.4294
H101_2 H 0.4213 0.3604 0.4156
H102_2 H 0.5071 0.3474 0.4120
C110_2 C 0.4787(16) 0.3862(6) 0.3509(7)
H103_2 H 0.4828 0.3916 0.3756
H104_2 H 0.4454 0.4058 0.3404
H105_2 H 0.5284 0.3881 0.3404
C111_2 C 0.4341(6) 0.3501(2) 0.2786(2)
C112_2 C 0.4889(7) 0.3424(3) 0.2531(3)
C113_2 C 0.4951(9) 0.3679(4) 0.2242(3)
C114_2 C 0.4465(11) 0.4010(4) 0.2208(3)
H106_2 H 0.4507 0.4180 0.2014
C115_2 C 0.3918(10) 0.4087(3) 0.2463(4)
C116_2 C 0.3856(7) 0.3832(3) 0.2753(3)
C117_2 C 0.3173(14) 0.3905(7) 0.3037(7)
H107_2 H 0.2888 0.4142 0.2973
H108_2 H 0.3390 0.3941 0.3266
H109_2 H 0.2840 0.3673 0.3038
C118_2 C 0.3402(16) 0.4469(6) 0.2395(8)
H110_2 H 0.3043 0.4498 0.2583
H111_2 H 0.3131 0.4434 0.2178
H112_2 H 0.3717 0.4707 0.2381
C119_2 C 0.5731(16) 0.3831(6) 0.1750(6)
H113_2 H 0.5447 0.4068 0.1728
C120_2 C 0.6341(8) 0.3774(3) 0.1493(3)
C121_2 C 0.6809(9) 0.3437(3) 0.1454(3)
C122_2 C 0.7369(9) 0.3434(4) 0.1195(4)
C123_2 C 0.7460(11) 0.3768(5) 0.0977(4)
H114_2 H 0.7835 0.3765 0.0804
C124_2 C 0.6992(11) 0.4105(4) 0.1016(4)
C125_2 C 0.6432(9) 0.4108(3) 0.1275(3)
H115_2 H 0.6118 0.4334 0.1301
C126_2 C 0.715(2) 0.4480(6) 0.0804(7)
C127_2 C 0.7897(18) 0.3055(7) 0.1146(8)
C128_2 C 0.8472(19) 0.3117(9) 0.0818(8)
H116_2 H 0.8802 0.2886 0.0799
H117_2 H 0.8773 0.3357 0.0854
H118_2 H 0.8181 0.3146 0.0606
C129_2 C 0.748(2) 0.2679(8) 0.1068(9)
H119_2 H 0.7834 0.2461 0.1037
H120_2 H 0.7187 0.2715 0.0857
H121_2 H 0.7141 0.2617 0.1259
C130_2 C 0.841(2) 0.3008(11) 0.1475(9)
H122_2 H 0.8756 0.2784 0.1441
H123_2 H 0.8099 0.2958 0.1677
H124_2 H 0.8701 0.3252 0.1510
N7_2 N 0.3839(12) 0.2188(4) 0.3367(5)
N8_2 N 0.5540(13) 0.3594(5) 0.2000(5)
O19_2 O 0.3121(8) 0.2080(4) 0.2458(4)
O20_2 O 0.3570(11) 0.1425(4) 0.3008(4)
O21_2 O 0.4068(8) 0.2632(3) 0.2799(3)
O22_2 O 0.5347(8) 0.3091(4) 0.2542(4)
O23_2 O 0.6768(12) 0.3115(4) 0.1665(4)
O24_2 O 0.276(2) 0.1069(5) 0.4583(5)
O25_2 O 0.2792(14) 0.0447(5) 0.4387(5)
O26_2 O 0.6706(15) 0.4785(5) 0.0878(5)
O27_2 O 0.7664(14) 0.4484(5) 0.0586(5)
N9_3 N 0.616(3) 0.4443(14) 0.5174(11)
C131_3 C 0.594(3) 0.4761(16) 0.5390(14)
H125_3 H 0.6303 0.4927 0.5493
C132_3 C 0.517(4) 0.483(2) 0.5451(18)
H126_2 H 0.5016 0.5044 0.5596
C133_3 C 0.462(3) 0.458(2) 0.530(2)
H127_3 H 0.4104 0.4629 0.5338
C134_3 C 0.484(3) 0.426(2) 0.5081(18)
H128_3 H 0.4479 0.4098 0.4978
C135_3 C 0.562(3) 0.4195(16) 0.5020(14)
H129_3 H 0.5766 0.3982 0.4875
Cd3_3 Cd 0.2500 0.05764(7) 0.5000
O28_3 O 0.776(2) 0.3931(5) 0.5417(5)
O29_3 O 0.7792(14) 0.4553(5) 0.5613(5)
H135_2 H 0.323113 0.0140515 0.112863
H138_2 H 0.676887 0.485949 0.112863
H95_2 H 0.3084 0.9963 0.2938
Cd2_2 Cd 0.5048(2) 0.5000 0.7500
Zn1_3 Zn 0.0000 0.7500 0.74765(9)
Zn3_3 Zn 0.11452(17) 0.80799(7) 0.70802(7)
Zn4_3 Zn 0.17692(15) 0.73064(7) 0.74303(7)
H16_3 H 0.0071 0.8474 0.9120
H19_3 H 0.0284 0.8881 0.8404
C29_3 C 0.0731(16) 0.8831(6) 0.6750(6)
H27_3 H 0.0447 0.9068 0.6728
C30_3 C 0.1341(8) 0.8774(3) 0.6493(3)
C31_3 C 0.1809(9) 0.8437(3) 0.6454(3)
C32_3 C 0.2369(9) 0.8434(4) 0.6195(4)
C33_3 C 0.2460(11) 0.8768(5) 0.5977(4)
H28_3 H 0.2835 0.8765 0.5804
C34_3 C 0.1992(11) 0.9105(4) 0.6016(4)
C35_3 C 0.1432(9) 0.9108(3) 0.6275(3)
H29_3 H 0.1118 0.9334 0.6301
C36_3 C 0.215(2) 0.9480(6) 0.5804(7)
C37_3 C 0.2897(18) 0.8055(7) 0.6146(8)
C38_3 C 0.3472(19) 0.8117(9) 0.5818(8)
H30_3 H 0.3802 0.7886 0.5799
H31_3 H 0.3773 0.8357 0.5854
H32_3 H 0.3181 0.8146 0.5606
C39_3 C 0.248(2) 0.7679(8) 0.6068(9)
H33_3 H 0.2834 0.7461 0.6037
H34_3 H 0.2187 0.7715 0.5857
H35_3 H 0.2141 0.7617 0.6259
C40_3 C 0.341(2) 0.8008(11) 0.6475(9)
H36_3 H 0.3756 0.7784 0.6441
H37_3 H 0.3099 0.7958 0.6677
H38_3 H 0.3701 0.8252 0.6510
C41_3 C 0.4231(16) 0.5660(8) 0.7527(10)
C42_3 C 0.3811(7) 0.6046(3) 0.7562(4)
C43_3 C 0.3939(9) 0.6289(4) 0.7854(4)
H39_3 H 0.4300 0.6212 0.8020
C44_3 C 0.3528(11) 0.6646(4) 0.7898(5)
C45_3 C 0.2988(11) 0.6760(4) 0.7650(6)
C46_3 C 0.2860(10) 0.6518(5) 0.7357(6)
C47_3 C 0.3271(8) 0.6161(4) 0.7313(4)
H40_3 H 0.3185 0.5998 0.7118
C48_3 C 0.3689(16) 0.6912(8) 0.8227(7)
C49_3 C 0.4288(16) 0.6725(12) 0.8477(9)
H41_3 H 0.4360 0.6900 0.8675
H42_3 H 0.4763 0.6693 0.8354
H43_3 H 0.4112 0.6465 0.8556
C50_3 C 0.2933(19) 0.6928(12) 0.8454(9)
H44_3 H 0.2527 0.7041 0.8316
H45_3 H 0.3015 0.7093 0.8657
H46_3 H 0.2798 0.6658 0.8526
C51_3 C 0.394(3) 0.7344(9) 0.8126(12)
H47_3 H 0.3572 0.7462 0.7972
H48_3 H 0.4429 0.7332 0.8009
H49_3 H 0.3989 0.7507 0.8334
C52_3 C 0.2282(14) 0.6582(6) 0.7082(7)
H50_3 H 0.2245 0.6385 0.6909
C53_3 C 0.1260(7) 0.6915(3) 0.6783(3)
C54_3 C 0.0770(8) 0.7246(3) 0.6794(3)
C55_3 C 0.0228(9) 0.7300(4) 0.6532(4)
C56_3 C 0.0177(10) 0.7023(5) 0.6258(4)
C57_3 C 0.0668(10) 0.6692(5) 0.6247(3)
C58_3 C 0.1210(8) 0.6638(3) 0.6509(3)
H51_3 H 0.1538 0.6417 0.6501
C59_3 C 0.058(2) 0.6357(8) 0.5958(8)
H52_3 H 0.0967 0.6153 0.5993
H53_3 H 0.0644 0.6477 0.5731
H54_3 H 0.0086 0.6236 0.5975
N2_3 N 0.5782(11) 0.4814(7) 0.7939(9)
C66_3 C 0.6179(17) 0.4451(8) 0.7897(11)
H63_3 H 0.6239 0.4340 0.7675
C67_3 C 0.649(2) 0.4256(10) 0.8188(13)
H64_3 H 0.6751 0.4014 0.8160
C68_3 C 0.640(3) 0.4423(14) 0.8520(11)
H65_3 H 0.6601 0.4292 0.8714
C69_3 C 0.600(2) 0.4785(14) 0.8562(9)
H66_3 H 0.5939 0.4896 0.8784
C70_3 C 0.5693(17) 0.4980(9) 0.8271(9)
H67_3 H 0.5427 0.5222 0.8299
N4_3 N 0.0540(13) 0.8594(5) 0.7000(5)
N5_3 N 0.1829(13) 0.6881(6) 0.7060(5)
O1_3 O 0.0815(8) 0.7494(4) 0.7079(4)
O5_3 O 0.0347(8) 0.8091(4) 0.7542(4)
O6_3 O 0.1768(12) 0.8115(4) 0.6665(4)
O7_3 O 0.2620(10) 0.7114(5) 0.7702(5)
O10_3 O 0.1706(15) 0.9785(5) 0.5878(5)
O11_3 O 0.2664(14) 0.9484(5) 0.5586(5)
O12_2 O 0.4734(12) 0.5569(6) 0.7753(6)
O13_2 O 0.4125(13) 0.5438(6) 0.7248(7)
C90_3 C 0.0394(17) 0.7935(7) 0.5977(6)
H84_3 H 0.0693 0.7695 0.6016
H85_3 H 0.0723 0.8168 0.5977
H86_3 H 0.0139 0.7915 0.5755
Zn5_3 Zn 0.12260(16) 0.80243(6) 0.78827(7)
C91_3 C 0.212(2) 0.9175(7) 0.9337(7)
C92_3 C 0.1895(7) 0.9037(3) 0.8985(3)
C93_3 C 0.1905(10) 0.9290(3) 0.8693(3)
H87_3 H 0.2024 0.9563 0.8719
C94_3 C 0.1737(12) 0.9134(4) 0.8364(3)
C95_3 C 0.1559(14) 0.8725(5) 0.8325(3)
C96_3 C 0.1549(14) 0.8472(4) 0.8617(4)
C97_3 C 0.1717(11) 0.8628(3) 0.8947(3)
H88_3 H 0.1711 0.8459 0.9142
C98_3 C 0.1740(17) 0.9427(5) 0.8043(5)
C99_3 C 0.232(2) 0.9307(8) 0.7798(9)
H89_3 H 0.2319 0.9488 0.7601
H90_3 H 0.2221 0.9035 0.7719
H91_3 H 0.2811 0.9316 0.7910
C100_3 C 0.0950(15) 0.9437(7) 0.7859(6)
H92_3 H 0.0971 0.9617 0.7662
H93_3 H 0.0570 0.9530 0.8022
H94_3 H 0.0821 0.9168 0.7781
C101_3 C 0.1917(18) 0.9871(6) 0.8145(8)
H96_3 H 0.2409 0.9884 0.8255
H97_3 H 0.1534 0.9967 0.8305
C102_3 C 0.1327(15) 0.8042(6) 0.8633(6)
H98_3 H 0.1304 0.7924 0.8854
C103_3 C 0.0938(6) 0.7395(2) 0.8410(2)
C104_3 C 0.0866(9) 0.7166(3) 0.8106(3)
C105_3 C 0.0670(10) 0.6758(3) 0.8126(3)
C106_3 C 0.0547(10) 0.6579(3) 0.8451(4)
C107_3 C 0.0619(11) 0.6807(3) 0.8756(3)
C108_3 C 0.0815(9) 0.7215(3) 0.8735(2)
H99_3 H 0.0863 0.7368 0.8939
C109_3 C 0.045(2) 0.6620(8) 0.9115(7)
H100_3 H 0.0521 0.6821 0.9294
H101_3 H 0.0787 0.6396 0.9156
C110_3 C 0.0213(16) 0.6138(6) 0.8509(7)
H103_3 H 0.0172 0.6084 0.8756
H104_3 H 0.0546 0.5942 0.8404
C111_3 C 0.0659(6) 0.6499(2) 0.7786(2)
C112_3 C 0.0111(7) 0.6576(3) 0.7531(3)
C113_3 C 0.0049(9) 0.6321(4) 0.7242(3)
C114_3 C 0.0535(11) 0.5990(4) 0.7208(3)
H106_3 H 0.0493 0.5820 0.7014
C115_3 C 0.1082(10) 0.5913(3) 0.7463(4)
C116_3 C 0.1144(7) 0.6168(3) 0.7753(3)
C117_3 C 0.1827(14) 0.6095(7) 0.8037(7)
H107_3 H 0.2112 0.5858 0.7973
H108_3 H 0.1610 0.6059 0.8266
H109_3 H 0.2160 0.6327 0.8038
C118_3 C 0.1598(16) 0.5531(6) 0.7395(8)
H110_3 H 0.1957 0.5502 0.7583
H111_3 H 0.1869 0.5566 0.7178
H112_3 H 0.1283 0.5293 0.7381
N7_3 N 0.1161(12) 0.7812(4) 0.8367(5)
O19_3 O 0.1879(8) 0.7920(4) 0.7458(4)
O20_3 O 0.1430(11) 0.8575(4) 0.8008(4)
O21_3 O 0.0932(8) 0.7368(3) 0.7799(3)
N10_3 N 0.5782(11) 0.5186(7) 0.7061(9)
C136_3 C 0.6179(17) 0.5549(8) 0.7103(11)
H130_3 H 0.6239 0.5660 0.7325
C137_3 C 0.649(2) 0.5744(10) 0.6812(13)
H131_3 H 0.6751 0.5986 0.6840
C138_3 C 0.640(3) 0.5577(14) 0.6480(11)
H132_3 H 0.6601 0.5708 0.6286
C139_3 C 0.600(2) 0.5215(14) 0.6438(9)
H133_3 H 0.5939 0.5104 0.6216
C140_3 C 0.5693(17) 0.5020(9) 0.6729(9)
H134_3 H 0.5427 0.4778 0.6701
O30_3 O 0.4734(12) 0.4431(6) 0.7247(6)
O31_3 O 0.4125(13) 0.4562(6) 0.7752(7)
H135_3 H 0.176887 0.985949 0.612863
Cd4_3 Cd 0.4952(2) -0.0000 0.7500
H137_2 H 0.801436 0.478558 0.00667894
Zn1_4 Zn 1.0000 0.7500 0.74765(9)
Zn2_3 Zn 0.87740(16) 0.69757(6) 0.78827(7)
C1_3 C 0.788(2) 0.5825(7) 0.9337(7)
C2_3 C 0.8105(7) 0.5963(3) 0.8985(3)
C3_3 C 0.8095(10) 0.5710(3) 0.8693(3)
H1_3 H 0.7976 0.5437 0.8719
C4_3 C 0.8263(12) 0.5866(4) 0.8364(3)
C5_3 C 0.8441(14) 0.6275(5) 0.8325(3)
C6_3 C 0.8451(14) 0.6528(4) 0.8617(4)
C7_3 C 0.8283(11) 0.6372(3) 0.8947(3)
H2_3 H 0.8289 0.6541 0.9142
C8_3 C 0.8260(17) 0.5573(5) 0.8043(5)
C9_3 C 0.768(2) 0.5693(8) 0.7798(9)
H3_3 H 0.7681 0.5512 0.7601
H4_3 H 0.7779 0.5965 0.7719
H5_3 H 0.7189 0.5684 0.7910
C10_3 C 0.9050(15) 0.5563(7) 0.7859(6)
H6_3 H 0.9029 0.5383 0.7662
H7_3 H 0.9430 0.5470 0.8022
H8_3 H 0.9179 0.5832 0.7781
C11_3 C 0.8083(18) 0.5129(6) 0.8145(8)
H9_3 H 0.8084 0.4963 0.7938
H10_3 H 0.7591 0.5116 0.8255
H11_3 H 0.8466 0.5033 0.8305
C12_3 C 0.8673(15) 0.6958(6) 0.8633(6)
H12_3 H 0.8696 0.7076 0.8854
C13_3 C 0.9062(6) 0.7605(2) 0.8410(2)
C14_3 C 0.9134(9) 0.7834(3) 0.8106(3)
C15_3 C 0.9330(10) 0.8242(3) 0.8126(3)
C16_3 C 0.9453(10) 0.8421(3) 0.8451(4)
C17_3 C 0.9381(11) 0.8193(3) 0.8756(3)
C18_3 C 0.9185(9) 0.7785(3) 0.8735(2)
H13_3 H 0.9137 0.7632 0.8939
C19_3 C 0.955(2) 0.8380(8) 0.9115(7)
H14_3 H 0.9479 0.8179 0.9294
H15_3 H 0.9213 0.8604 0.9156
C20_3 C 0.9787(16) 0.8862(6) 0.8509(7)
H17_3 H 0.9828 0.8916 0.8756
H18_3 H 0.9454 0.9058 0.8404
C21_3 C 0.9341(6) 0.8501(2) 0.7786(2)
C22_3 C 0.9889(7) 0.8424(3) 0.7531(3)
C23_3 C 0.9951(9) 0.8679(4) 0.7242(3)
C24_3 C 0.9465(11) 0.9010(4) 0.7208(3)
H20_3 H 0.9507 0.9180 0.7014
C25_3 C 0.8918(10) 0.9087(3) 0.7463(4)
C26_3 C 0.8856(7) 0.8832(3) 0.7753(3)
C27_3 C 0.8173(14) 0.8905(7) 0.8037(7)
H21_3 H 0.7888 0.9142 0.7973
H22_3 H 0.8390 0.8941 0.8266
H23_3 H 0.7840 0.8673 0.8038
C28_3 C 0.8402(16) 0.9469(6) 0.7395(8)
H24_3 H 0.8043 0.9498 0.7583
H25_3 H 0.8131 0.9434 0.7178
H26_3 H 0.8717 0.9707 0.7381
C60_3 C 0.9606(17) 0.7065(7) 0.5977(6)
H55_3 H 0.9307 0.7305 0.6016
H56_3 H 0.9277 0.6832 0.5977
H57_3 H 0.9861 0.7085 0.5755
N3_3 N 0.8839(12) 0.7188(4) 0.8367(5)
O2_3 O 0.8121(8) 0.7080(4) 0.7458(4)
O3_3 O 0.8570(11) 0.6425(4) 0.8008(4)
O4_3 O 0.9068(8) 0.7632(3) 0.7799(3)
C71_3 C 0.5769(16) 0.9340(8) 0.7527(10)
C72_3 C 0.6189(7) 0.8954(3) 0.7562(4)
C73_3 C 0.6061(9) 0.8711(4) 0.7854(4)
H68_3 H 0.5700 0.8788 0.8020
C74_3 C 0.6472(11) 0.8354(4) 0.7898(5)
C75_3 C 0.7012(11) 0.8240(4) 0.7650(6)
C76_3 C 0.7140(10) 0.8482(5) 0.7357(6)
C77_3 C 0.6729(8) 0.8839(4) 0.7313(4)
H69_3 H 0.6815 0.9002 0.7118
C78_3 C 0.6311(16) 0.8088(8) 0.8227(7)
C79_3 C 0.5712(16) 0.8275(12) 0.8477(9)
H70_3 H 0.5640 0.8100 0.8675
H71_3 H 0.5237 0.8307 0.8354
H72_3 H 0.5888 0.8535 0.8556
C80_3 C 0.7067(19) 0.8072(12) 0.8454(9)
H73_3 H 0.7473 0.7959 0.8316
H74_3 H 0.6985 0.7907 0.8657
H75_3 H 0.7202 0.8342 0.8526
C81_3 C 0.606(3) 0.7656(9) 0.8126(12)
H76_3 H 0.6428 0.7538 0.7972
H77_3 H 0.5571 0.7668 0.8009
H78_3 H 0.6011 0.7493 0.8334
C82_3 C 0.7718(14) 0.8418(6) 0.7082(7)
H79_3 H 0.7755 0.8615 0.6909
C83_3 C 0.8740(7) 0.8085(3) 0.6783(3)
C84_3 C 0.9230(8) 0.7754(3) 0.6794(3)
C85_3 C 0.9772(9) 0.7700(4) 0.6532(4)
C86_3 C 0.9823(10) 0.7977(5) 0.6258(4)
C87_3 C 0.9332(10) 0.8308(5) 0.6247(3)
C88_3 C 0.8790(8) 0.8362(3) 0.6509(3)
H80_3 H 0.8462 0.8583 0.6501
C89_3 C 0.942(2) 0.8643(8) 0.5958(8)
H81_3 H 0.9033 0.8847 0.5993
H82_3 H 0.9356 0.8523 0.5731
H83_3 H 0.9914 0.8764 0.5975
N6_3 N 0.8171(13) 0.8119(6) 0.7060(5)
O15_3 O 0.9185(8) 0.7506(4) 0.7079(4)
O16_3 O 0.7380(10) 0.7886(5) 0.7702(5)
O17_2 O 0.5266(12) 0.9431(6) 0.7753(6)
O18_2 O 0.5875(13) 0.9562(6) 0.7248(7)
Zn6_3 Zn 0.88548(17) 0.69201(7) 0.70802(7)
Zn7_3 Zn 0.82308(15) 0.76936(7) 0.74303(7)
H102_3 H 0.9929 0.6526 0.9120
H105_3 H 0.9716 0.6119 0.8404
C119_3 C 0.9269(16) 0.6169(6) 0.6750(6)
H113_3 H 0.9553 0.5932 0.6728
C120_3 C 0.8659(8) 0.6226(3) 0.6493(3)
C121_3 C 0.8191(9) 0.6563(3) 0.6454(3)
C122_3 C 0.7631(9) 0.6566(4) 0.6195(4)
C123_3 C 0.7540(11) 0.6232(5) 0.5977(4)
H114_3 H 0.7165 0.6235 0.5804
C124_3 C 0.8008(11) 0.5895(4) 0.6016(4)
C125_3 C 0.8568(9) 0.5892(3) 0.6275(3)
H115_3 H 0.8882 0.5666 0.6301
C126_3 C 0.785(2) 0.5520(6) 0.5804(7)
C127_3 C 0.7103(18) 0.6945(7) 0.6146(8)
C128_3 C 0.6528(19) 0.6883(9) 0.5818(8)
H116_3 H 0.6198 0.7114 0.5799
H117_3 H 0.6227 0.6643 0.5854
H118_3 H 0.6819 0.6854 0.5606
C129_3 C 0.752(2) 0.7321(8) 0.6068(9)
H119_3 H 0.7166 0.7539 0.6037
H120_3 H 0.7813 0.7285 0.5857
H121_3 H 0.7859 0.7383 0.6259
C130_3 C 0.659(2) 0.6992(11) 0.6475(9)
H122_3 H 0.6244 0.7216 0.6441
H123_3 H 0.6901 0.7042 0.6677
H124_3 H 0.6299 0.6748 0.6510
N8_3 N 0.9460(13) 0.6406(5) 0.7000(5)
O22_3 O 0.9653(8) 0.6909(4) 0.7542(4)
O23_3 O 0.8232(12) 0.6885(4) 0.6665(4)
O26_3 O 0.8294(15) 0.5215(5) 0.5878(5)
O27_3 O 0.7336(14) 0.5516(5) 0.5586(5)
Cd4_4 Cd 0.4952(2) 1.0000 0.7500
H136_3 H 0.736877 0.478558 0.976203
H138_3 H 0.823113 0.514051 0.612863
Zn1_5 Zn -0.0000 0.2500 0.75235(9)
Zn2_4 Zn 0.12260(16) 0.19757(6) 0.71173(7)
C1_4 C 0.212(2) 0.0825(7) 0.5663(7)
C2_4 C 0.1895(7) 0.0963(3) 0.6015(3)
C3_4 C 0.1905(10) 0.0710(3) 0.6307(3)
H1_4 H 0.2024 0.0437 0.6281
C4_4 C 0.1737(12) 0.0866(4) 0.6636(3)
C5_4 C 0.1559(14) 0.1275(5) 0.6675(3)
C6_4 C 0.1549(14) 0.1528(4) 0.6383(4)
C7_4 C 0.1717(11) 0.1372(3) 0.6053(3)
H2_4 H 0.1711 0.1541 0.5858
C8_4 C 0.1740(17) 0.0573(5) 0.6957(5)
C9_4 C 0.232(2) 0.0693(8) 0.7202(9)
H3_4 H 0.2319 0.0512 0.7399
H4_4 H 0.2221 0.0965 0.7281
H5_4 H 0.2811 0.0684 0.7090
C10_4 C 0.0950(15) 0.0563(7) 0.7141(6)
H6_4 H 0.0971 0.0383 0.7338
H7_4 H 0.0570 0.0470 0.6978
H8_4 H 0.0821 0.0832 0.7219
C11_4 C 0.1917(18) 0.0129(6) 0.6855(8)
H10_4 H 0.2409 0.0116 0.6745
H11_4 H 0.1534 0.0033 0.6695
C12_4 C 0.1327(15) 0.1958(6) 0.6367(6)
H12_4 H 0.1304 0.2076 0.6146
C13_4 C 0.0938(6) 0.2605(2) 0.6590(2)
C14_4 C 0.0866(9) 0.2834(3) 0.6894(3)
C15_4 C 0.0670(10) 0.3242(3) 0.6874(3)
C16_4 C 0.0547(10) 0.3421(3) 0.6549(4)
C17_4 C 0.0619(11) 0.3193(3) 0.6244(3)
C18_4 C 0.0815(9) 0.2785(3) 0.6265(2)
H13_4 H 0.0863 0.2632 0.6061
C19_4 C 0.045(2) 0.3380(8) 0.5885(7)
H14_4 H 0.0521 0.3179 0.5706
H15_4 H 0.0787 0.3604 0.5844
C20_4 C 0.0213(16) 0.3862(6) 0.6491(7)
H17_4 H 0.0172 0.3916 0.6244
H18_4 H 0.0546 0.4058 0.6596
C21_4 C 0.0659(6) 0.3501(2) 0.7214(2)
C22_4 C 0.0111(7) 0.3424(3) 0.7469(3)
C23_4 C 0.0049(9) 0.3679(4) 0.7758(3)
C24_4 C 0.0535(11) 0.4010(4) 0.7792(3)
H20_4 H 0.0493 0.4180 0.7986
C25_4 C 0.1082(10) 0.4087(3) 0.7537(4)
C26_4 C 0.1144(7) 0.3832(3) 0.7247(3)
C27_4 C 0.1827(14) 0.3905(7) 0.6963(7)
H21_4 H 0.2112 0.4142 0.7027
H22_4 H 0.1610 0.3941 0.6734
H23_4 H 0.2160 0.3673 0.6962
C28_4 C 0.1598(16) 0.4469(6) 0.7605(8)
H24_4 H 0.1957 0.4498 0.7417
H25_4 H 0.1869 0.4434 0.7822
H26_4 H 0.1283 0.4707 0.7619
C60_4 C 0.0394(17) 0.2065(7) 0.9023(6)
H55_4 H 0.0693 0.2305 0.8984
H56_4 H 0.0723 0.1832 0.9023
H57_4 H 0.0139 0.2085 0.9245
N1_4 N 0.384(3) 0.0557(14) 0.5174(11)
C61_4 C 0.406(3) 0.0239(16) 0.5390(14)
H58_4 H 0.3697 0.0073 0.5493
C62_4 C 0.483(4) 0.017(2) 0.5451(18)
C63_4 C 0.538(3) 0.042(2) 0.530(2)
H60_4 H 0.5896 0.0371 0.5338
C64_4 C 0.516(3) 0.074(2) 0.5081(18)
H61_4 H 0.5521 0.0902 0.4978
C65_4 C 0.438(3) 0.0805(16) 0.5020(14)
H62_4 H 0.4234 0.1018 0.4875
N3_4 N 0.1161(12) 0.2188(4) 0.6633(5)
O2_4 O 0.1879(8) 0.2080(4) 0.7542(4)
O3_4 O 0.1430(11) 0.1425(4) 0.6992(4)
O4_4 O 0.0932(8) 0.2632(3) 0.7201(3)
O8_3 O 0.224(2) 0.1069(5) 0.5417(5)
O9_3 O 0.2208(14) 0.0447(5) 0.5613(5)
C71_4 C 0.4231(16) 0.4340(8) 0.7473(10)
C72_4 C 0.3811(7) 0.3954(3) 0.7438(4)
C73_4 C 0.3939(9) 0.3711(4) 0.7146(4)
H68_4 H 0.4300 0.3788 0.6980
C74_4 C 0.3528(11) 0.3354(4) 0.7102(5)
C75_4 C 0.2988(11) 0.3240(4) 0.7350(6)
C76_4 C 0.2860(10) 0.3482(5) 0.7643(6)
C77_4 C 0.3271(8) 0.3839(4) 0.7687(4)
H69_4 H 0.3185 0.4002 0.7882
C78_4 C 0.3689(16) 0.3088(8) 0.6773(7)
C79_4 C 0.4288(16) 0.3275(12) 0.6523(9)
H70_4 H 0.4360 0.3100 0.6325
H71_4 H 0.4763 0.3307 0.6646
H72_4 H 0.4112 0.3535 0.6444
C80_4 C 0.2933(19) 0.3072(12) 0.6546(9)
H73_4 H 0.2527 0.2959 0.6684
H74_4 H 0.3015 0.2907 0.6343
H75_4 H 0.2798 0.3342 0.6474
C81_4 C 0.394(3) 0.2656(9) 0.6874(12)
H76_4 H 0.3572 0.2538 0.7028
H77_4 H 0.4429 0.2668 0.6991
H78_4 H 0.3989 0.2493 0.6666
C82_4 C 0.2282(14) 0.3418(6) 0.7918(7)
H79_4 H 0.2245 0.3615 0.8091
C83_4 C 0.1260(7) 0.3085(3) 0.8217(3)
C84_4 C 0.0770(8) 0.2754(3) 0.8206(3)
C85_4 C 0.0228(9) 0.2700(4) 0.8468(4)
C86_4 C 0.0177(10) 0.2977(5) 0.8742(4)
C87_4 C 0.0668(10) 0.3308(5) 0.8753(3)
C88_4 C 0.1210(8) 0.3362(3) 0.8491(3)
H80_4 H 0.1538 0.3583 0.8499
C89_4 C 0.058(2) 0.3643(8) 0.9042(8)
H81_4 H 0.0967 0.3847 0.9007
H82_4 H 0.0644 0.3523 0.9269
H83_4 H 0.0086 0.3764 0.9025
N6_4 N 0.1829(13) 0.3119(6) 0.7940(5)
O15_4 O 0.0815(8) 0.2506(4) 0.7921(4)
O16_4 O 0.2620(10) 0.2886(5) 0.7298(5)
Zn6_4 Zn 0.11452(17) 0.19201(7) 0.79198(7)
Zn7_4 Zn 0.17692(15) 0.26936(7) 0.75697(7)
H102_4 H 0.0071 0.1526 0.5880
H105_4 H 0.0284 0.1119 0.6596
C119_4 C 0.0731(16) 0.1169(6) 0.8250(6)
H113_4 H 0.0447 0.0932 0.8272
C120_4 C 0.1341(8) 0.1226(3) 0.8507(3)
C121_4 C 0.1809(9) 0.1563(3) 0.8546(3)
C122_4 C 0.2369(9) 0.1566(4) 0.8805(4)
C123_4 C 0.2460(11) 0.1232(5) 0.9023(4)
H114_4 H 0.2835 0.1235 0.9196
C124_4 C 0.1992(11) 0.0895(4) 0.8984(4)
C125_4 C 0.1432(9) 0.0892(3) 0.8725(3)
H115_4 H 0.1118 0.0666 0.8699
C126_4 C 0.215(2) 0.0520(6) 0.9196(7)
C127_4 C 0.2897(18) 0.1945(7) 0.8854(8)
C128_4 C 0.3472(19) 0.1883(9) 0.9182(8)
H116_4 H 0.3802 0.2114 0.9201
H117_4 H 0.3773 0.1643 0.9146
H118_4 H 0.3181 0.1854 0.9394
C129_4 C 0.248(2) 0.2321(8) 0.8932(9)
H119_4 H 0.2834 0.2539 0.8963
H120_4 H 0.2187 0.2285 0.9143
H121_4 H 0.2141 0.2383 0.8741
C130_4 C 0.341(2) 0.1992(11) 0.8525(9)
H122_4 H 0.3756 0.2216 0.8559
H123_4 H 0.3099 0.2042 0.8323
H124_4 H 0.3701 0.1748 0.8490
N8_4 N 0.0540(13) 0.1406(5) 0.8000(5)
O22_4 O 0.0347(8) 0.1909(4) 0.7458(4)
O23_4 O 0.1768(12) 0.1885(4) 0.8335(4)
O26_4 O 0.1706(15) 0.0215(5) 0.9122(5)
O27_4 O 0.2664(14) 0.0516(5) 0.9414(5)
N9_4 N 0.116(3) 0.0557(14) 0.4826(11)
C131_4 C 0.094(3) 0.0239(16) 0.4610(14)
H125_4 H 0.1303 0.0073 0.4507
C132_4 C 0.017(4) 0.017(2) 0.4549(18)
C135_4 C 0.062(3) 0.0805(16) 0.4980(14)
H129_4 H 0.0766 0.1018 0.5125
H138_4 H 0.176887 0.0140515 0.887137
H9_4 H 0.1916 0.9963 0.7062
H59_4 H 0.4984 0.9956 0.5596
O14_5 O 0.2500 0.9886(8) 0.5000
H126_3 H 0.0016 0.9956 0.4404
Zn1_6 Zn 1.0000 0.2500 0.75235(9)
Zn3_4 Zn 0.88548(17) 0.30799(7) 0.79198(7)
Zn4_4 Zn 0.82308(15) 0.23064(7) 0.75697(7)
H16_4 H 0.9929 0.3474 0.5880
H19_4 H 0.9716 0.3881 0.6596
C29_4 C 0.9269(16) 0.3831(6) 0.8250(6)
H27_4 H 0.9553 0.4068 0.8272
C30_4 C 0.8659(8) 0.3774(3) 0.8507(3)
C31_4 C 0.8191(9) 0.3437(3) 0.8546(3)
C32_4 C 0.7631(9) 0.3434(4) 0.8805(4)
C33_4 C 0.7540(11) 0.3768(5) 0.9023(4)
H28_4 H 0.7165 0.3765 0.9196
C34_4 C 0.8008(11) 0.4105(4) 0.8984(4)
C35_4 C 0.8568(9) 0.4108(3) 0.8725(3)
H29_4 H 0.8882 0.4334 0.8699
C36_4 C 0.785(2) 0.4480(6) 0.9196(7)
C37_4 C 0.7103(18) 0.3055(7) 0.8854(8)
C38_4 C 0.6528(19) 0.3117(9) 0.9182(8)
H30_4 H 0.6198 0.2886 0.9201
H31_4 H 0.6227 0.3357 0.9146
H32_4 H 0.6819 0.3146 0.9394
C39_4 C 0.752(2) 0.2679(8) 0.8932(9)
H33_4 H 0.7166 0.2461 0.8963
H34_4 H 0.7813 0.2715 0.9143
H35_4 H 0.7859 0.2617 0.8741
C40_4 C 0.659(2) 0.3008(11) 0.8525(9)
H36_4 H 0.6244 0.2784 0.8559
H37_4 H 0.6901 0.2958 0.8323
H38_4 H 0.6299 0.3252 0.8490
C41_4 C 0.5769(16) 0.0660(8) 0.7473(10)
C42_4 C 0.6189(7) 0.1046(3) 0.7438(4)
C43_4 C 0.6061(9) 0.1289(4) 0.7146(4)
H39_4 H 0.5700 0.1212 0.6980
C44_4 C 0.6472(11) 0.1646(4) 0.7102(5)
C45_4 C 0.7012(11) 0.1760(4) 0.7350(6)
C46_4 C 0.7140(10) 0.1518(5) 0.7643(6)
C47_4 C 0.6729(8) 0.1161(4) 0.7687(4)
H40_4 H 0.6815 0.0998 0.7882
C48_4 C 0.6311(16) 0.1912(8) 0.6773(7)
C49_4 C 0.5712(16) 0.1725(12) 0.6523(9)
H41_4 H 0.5640 0.1900 0.6325
H42_4 H 0.5237 0.1693 0.6646
H43_4 H 0.5888 0.1465 0.6444
C50_4 C 0.7067(19) 0.1928(12) 0.6546(9)
H44_4 H 0.7473 0.2041 0.6684
H45_4 H 0.6985 0.2093 0.6343
H46_4 H 0.7202 0.1658 0.6474
C51_4 C 0.606(3) 0.2344(9) 0.6874(12)
H47_4 H 0.6428 0.2462 0.7028
H48_4 H 0.5571 0.2332 0.6991
H49_4 H 0.6011 0.2507 0.6666
C52_4 C 0.7718(14) 0.1582(6) 0.7918(7)
H50_4 H 0.7755 0.1385 0.8091
C53_4 C 0.8740(7) 0.1915(3) 0.8217(3)
C54_4 C 0.9230(8) 0.2246(3) 0.8206(3)
C55_4 C 0.9772(9) 0.2300(4) 0.8468(4)
C56_4 C 0.9823(10) 0.2023(5) 0.8742(4)
C57_4 C 0.9332(10) 0.1692(5) 0.8753(3)
C58_4 C 0.8790(8) 0.1638(3) 0.8491(3)
H51_4 H 0.8462 0.1417 0.8499
C59_4 C 0.942(2) 0.1357(8) 0.9042(8)
H52_4 H 0.9033 0.1153 0.9007
H53_4 H 0.9356 0.1477 0.9269
H54_4 H 0.9914 0.1236 0.9025
H67_4 H 0.4573 0.0222 0.6701
N4_4 N 0.9460(13) 0.3594(5) 0.8000(5)
N5_4 N 0.8171(13) 0.1881(6) 0.7940(5)
O1_4 O 0.9185(8) 0.2494(4) 0.7921(4)
O5_4 O 0.9653(8) 0.3091(4) 0.7458(4)
O6_4 O 0.8232(12) 0.3115(4) 0.8335(4)
O7_4 O 0.7380(10) 0.2114(5) 0.7298(5)
O10_4 O 0.8294(15) 0.4785(5) 0.9122(5)
O11_4 O 0.7336(14) 0.4484(5) 0.9414(5)
O12_3 O 0.5266(12) 0.0569(6) 0.7247(6)
O13_3 O 0.5875(13) 0.0438(6) 0.7752(7)
C90_4 C 0.9606(17) 0.2935(7) 0.9023(6)
H84_4 H 0.9307 0.2695 0.8984
H85_4 H 0.9277 0.3168 0.9023
H86_4 H 0.9861 0.2915 0.9245
Zn5_4 Zn 0.87740(16) 0.30243(6) 0.71173(7)
C91_4 C 0.788(2) 0.4175(7) 0.5663(7)
C92_4 C 0.8105(7) 0.4037(3) 0.6015(3)
C93_4 C 0.8095(10) 0.4290(3) 0.6307(3)
H87_4 H 0.7976 0.4563 0.6281
C94_4 C 0.8263(12) 0.4134(4) 0.6636(3)
C95_4 C 0.8441(14) 0.3725(5) 0.6675(3)
C96_4 C 0.8451(14) 0.3472(4) 0.6383(4)
C97_4 C 0.8283(11) 0.3628(3) 0.6053(3)
H88_4 H 0.8289 0.3459 0.5858
C98_4 C 0.8260(17) 0.4427(5) 0.6957(5)
C99_4 C 0.768(2) 0.4307(8) 0.7202(9)
H89_4 H 0.7681 0.4488 0.7399
H90_4 H 0.7779 0.4035 0.7281
H91_4 H 0.7189 0.4316 0.7090
C100_4 C 0.9050(15) 0.4437(7) 0.7141(6)
H92_4 H 0.9029 0.4617 0.7338
H93_4 H 0.9430 0.4530 0.6978
H94_4 H 0.9179 0.4168 0.7219
C101_4 C 0.8083(18) 0.4871(6) 0.6855(8)
H95_3 H 0.8084 0.5037 0.7062
H96_4 H 0.7591 0.4884 0.6745
H97_4 H 0.8466 0.4967 0.6695
C102_4 C 0.8673(15) 0.3042(6) 0.6367(6)
H98_4 H 0.8696 0.2924 0.6146
C103_4 C 0.9062(6) 0.2395(2) 0.6590(2)
C104_4 C 0.9134(9) 0.2166(3) 0.6894(3)
C105_4 C 0.9330(10) 0.1758(3) 0.6874(3)
C106_4 C 0.9453(10) 0.1579(3) 0.6549(4)
C107_4 C 0.9381(11) 0.1807(3) 0.6244(3)
C108_4 C 0.9185(9) 0.2215(3) 0.6265(2)
H99_4 H 0.9137 0.2368 0.6061
C109_4 C 0.955(2) 0.1620(8) 0.5885(7)
H100_4 H 0.9479 0.1821 0.5706
H101_4 H 0.9213 0.1396 0.5844
C110_4 C 0.9787(16) 0.1138(6) 0.6491(7)
H103_4 H 0.9828 0.1084 0.6244
H104_4 H 0.9454 0.0942 0.6596
C111_4 C 0.9341(6) 0.1499(2) 0.7214(2)
C112_4 C 0.9889(7) 0.1576(3) 0.7469(3)
C113_4 C 0.9951(9) 0.1321(4) 0.7758(3)
C114_4 C 0.9465(11) 0.0990(4) 0.7792(3)
H106_4 H 0.9507 0.0820 0.7986
C115_4 C 0.8918(10) 0.0913(3) 0.7537(4)
C116_4 C 0.8856(7) 0.1168(3) 0.7247(3)
C117_4 C 0.8173(14) 0.1095(7) 0.6963(7)
H107_4 H 0.7888 0.0858 0.7027
H108_4 H 0.8390 0.1059 0.6734
H109_4 H 0.7840 0.1327 0.6962
C118_4 C 0.8402(16) 0.0531(6) 0.7605(8)
H110_4 H 0.8043 0.0502 0.7417
H111_4 H 0.8131 0.0566 0.7822
H112_4 H 0.8717 0.0293 0.7619
N7_4 N 0.8839(12) 0.2812(4) 0.6633(5)
O19_4 O 0.8121(8) 0.2920(4) 0.7542(4)
O20_4 O 0.8570(11) 0.3575(4) 0.6992(4)
O21_4 O 0.9068(8) 0.2368(3) 0.7201(3)
C133_4 C 0.962(3) 0.042(2) 0.470(2)
H127_4 H 0.9104 0.0371 0.4662
C134_4 C 0.984(3) 0.074(2) 0.4919(18)
H128_4 H 0.9479 0.0902 0.5022
N10_4 N 0.4218(11) 0.0186(7) 0.7939(9)
C136_4 C 0.3821(17) 0.0549(8) 0.7897(11)
H130_4 H 0.3761 0.0660 0.7675
C137_4 C 0.351(2) 0.0744(10) 0.8188(13)
H131_4 H 0.3249 0.0986 0.8160
C138_4 C 0.360(3) 0.0577(14) 0.8520(11)
H132_4 H 0.3399 0.0708 0.8714
C139_4 C 0.400(2) 0.0215(14) 0.8562(9)
H133_4 H 0.4061 0.0104 0.8784
C140_4 C 0.4307(17) 0.0020(9) 0.8271(9)
H135_4 H 0.823113 0.485949 0.887137
N2_4 N 0.4218(11) 0.9814(7) 0.7061(9)
C66_4 C 0.3821(17) 0.9451(8) 0.7103(11)
H63_4 H 0.3761 0.9340 0.7325
C67_4 C 0.351(2) 0.9256(10) 0.6812(13)
H64_4 H 0.3249 0.9014 0.6840
C68_4 C 0.360(3) 0.9423(14) 0.6480(11)
H65_4 H 0.3399 0.9292 0.6286
C69_4 C 0.400(2) 0.9785(14) 0.6438(9)
H66_4 H 0.4061 0.9896 0.6216
C70_4 C 0.4307(17) 0.9980(9) 0.6729(9)
H134_4 H 0.4573 0.9778 0.8299
H137_3 H 0.198564 0.0214416 0.00667894
O14_6 O 0.2500 0.0114(8) 1.0000
H126_4 H 0.4984 0.0044 0.9404
H137_4 H 0.301436 0.0214416 0.993321
H95_4 H 0.1916 0.0037 0.7938
H136_4 H 0.263123 0.0214416 0.976203
loop_
_geom_bond_atom_site_label_1
_geom_bond_atom_site_label_2
_geom_bond_site_symmetry_1
_geom_bond_site_symmetry_2
H60 C63 1_555 1_555
C64 C63 1_555 1_555
Cd1 N1 1_555 1_555
Zn1 O1 1_555 1_555
Zn2 N3 1_555 1_555
Zn3 N4 1_555 1_555
Zn4 N5 1_555 1_555
C1 C2 1_555 1_555
C2 C3 1_555 1_555
C3 H1 1_555 1_555
C4 C3 1_555 1_555
C5 C4 1_555 1_555
C6 C5 1_555 1_555
C7 C2 1_555 1_555
H2 C7 1_555 1_555
C8 C4 1_555 1_555
C9 C8 1_555 1_555
H3 C9 1_555 1_555
H4 C9 1_555 1_555
H5 C9 1_555 1_555
C10 C8 1_555 1_555
H6 C10 1_555 1_555
H7 C10 1_555 1_555
H8 C10 1_555 1_555
C11 C8 1_555 1_555
H9 C11 1_555 1_555
H10 C11 1_555 1_555
H11 C11 1_555 1_555
C12 C6 1_555 1_555
H12 C12 1_555 1_555
C13 C14 1_555 1_555
C14 C15 1_555 1_555
C15 C16 1_555 1_555
C16 C17 1_555 1_555
C17 C18 1_555 1_555
C18 C13 1_555 1_555
H13 C18 1_555 1_555
C19 C17 1_555 1_555
H14 C19 1_555 1_555
H15 C19 1_555 1_555
H16 C19 1_555 1_555
C20 C16 1_555 1_555
H17 C20 1_555 1_555
H18 C20 1_555 1_555
H19 C20 1_555 1_555
C21 C15 1_555 1_555
C22 C21 1_555 1_555
C23 C22 1_555 1_555
C24 C23 1_555 1_555
H20 C24 1_555 1_555
C25 C24 1_555 1_555
C26 C21 1_555 1_555
C27 C26 1_555 1_555
H21 C27 1_555 1_555
H22 C27 1_555 1_555
H23 C27 1_555 1_555
C28 C25 1_555 1_555
H24 C28 1_555 1_555
H25 C28 1_555 1_555
H26 C28 1_555 1_555
C29 H27 1_555 1_555
C30 C29 1_555 1_555
C31 C30 1_555 1_555
C32 C31 1_555 1_555
C33 C32 1_555 1_555
H28 C33 1_555 1_555
C34 C33 1_555 1_555
C35 C30 1_555 1_555
H29 C35 1_555 1_555
C36 C34 1_555 1_555
C37 C32 1_555 1_555
C38 C37 1_555 1_555
H30 C38 1_555 1_555
H31 C38 1_555 1_555
H32 C38 1_555 1_555
C39 C37 1_555 1_555
H33 C39 1_555 1_555
H34 C39 1_555 1_555
H35 C39 1_555 1_555
C40 C37 1_555 1_555
H36 C40 1_555 1_555
H37 C40 1_555 1_555
H38 C40 1_555 1_555
C41 C42 1_555 1_555
C42 C43 1_555 1_555
C43 H39 1_555 1_555
C44 C43 1_555 1_555
C45 C44 1_555 1_555
C46 C45 1_555 1_555
C47 C42 1_555 1_555
H40 C47 1_555 1_555
C48 C44 1_555 1_555
C49 C48 1_555 1_555
H41 C49 1_555 1_555
H42 C49 1_555 1_555
H43 C49 1_555 1_555
C50 C48 1_555 1_555
H44 C50 1_555 1_555
H45 C50 1_555 1_555
H46 C50 1_555 1_555
C51 C48 1_555 1_555
H47 C51 1_555 1_555
H48 C51 1_555 1_555
H49 C51 1_555 1_555
C52 C46 1_555 1_555
H50 C52 1_555 1_555
C53 C54 1_555 1_555
C54 C55 1_555 1_555
C55 C56 1_555 1_555
C56 C57 1_555 1_555
C57 C58 1_555 1_555
C58 C53 1_555 1_555
H51 C58 1_555 1_555
C59 C57 1_555 1_555
H52 C59 1_555 1_555
H53 C59 1_555 1_555
H54 C59 1_555 1_555
C60 C56 1_555 1_555
H55 C60 1_555 1_555
H56 C60 1_555 1_555
H57 C60 1_555 1_555
N1 C61 1_555 1_555
C61 H58 1_555 1_555
C62 C61 1_555 1_555
H59 C62 1_555 1_555
C65 N1 1_555 1_555
N3 C12 1_555 1_555
N4 C23 1_555 1_555
N5 C52 1_555 1_555
O1 Zn3 1_555 1_555
O2 Zn2 1_555 1_555
O3 Zn2 1_555 1_555
O4 Zn1 1_555 1_555
O5 Zn1 1_555 1_555
O6 Zn3 1_555 1_555
O7 Zn4 1_555 1_555
O8 Cd1 1_555 1_555
O9 Cd1 1_555 1_555
O10 C36 1_555 1_555
O11 C36 1_555 1_555
O14 Cd1 1_555 1_555
C71 C72 1_555 1_555
C72 C73 1_555 1_555
C73 H68 1_555 1_555
C74 C73 1_555 1_555
C75 C74 1_555 1_555
C76 C75 1_555 1_555
C77 C72 1_555 1_555
H69 C77 1_555 1_555
C78 C74 1_555 1_555
C79 C78 1_555 1_555
H70 C79 1_555 1_555
H71 C79 1_555 1_555
H72 C79 1_555 1_555
C80 C78 1_555 1_555
H73 C80 1_555 1_555
H74 C80 1_555 1_555
H75 C80 1_555 1_555
C81 C78 1_555 1_555
H76 C81 1_555 1_555
H77 C81 1_555 1_555
H78 C81 1_555 1_555
C82 C76 1_555 1_555
H79 C82 1_555 1_555
C83 C84 1_555 1_555
C84 C85 1_555 1_555
C85 C55 1_555 1_555
C86 C85 1_555 1_555
C87 C86 1_555 1_555
C88 C83 1_555 1_555
H80 C88 1_555 1_555
C89 C87 1_555 1_555
H81 C89 1_555 1_555
H82 C89 1_555 1_555
H83 C89 1_555 1_555
C90 C86 1_555 1_555
H84 C90 1_555 1_555
H85 C90 1_555 1_555
H86 C90 1_555 1_555
N6 C82 1_555 1_555
O15 Zn1 1_555 1_555
O16 C75 1_555 1_555
O17 C71 1_555 1_555
O18 C71 1_555 1_555
Zn5 O5 1_555 1_555
Zn6 O2 1_555 1_555
Zn7 O2 1_555 1_555
C91 C92 1_555 1_555
C92 C93 1_555 1_555
C93 H87 1_555 1_555
C94 C93 1_555 1_555
C95 C94 1_555 1_555
C96 C95 1_555 1_555
C97 C92 1_555 1_555
H88 C97 1_555 1_555
C98 C94 1_555 1_555
C99 C98 1_555 1_555
H89 C99 1_555 1_555
H90 C99 1_555 1_555
H91 C99 1_555 1_555
C100 C98 1_555 1_555
H92 C100 1_555 1_555
H93 C100 1_555 1_555
H94 C100 1_555 1_555
C101 C98 1_555 1_555
H96 C101 1_555 1_555
H97 C101 1_555 1_555
C102 C96 1_555 1_555
H98 C102 1_555 1_555
C103 C104 1_555 1_555
C104 C105 1_555 1_555
C105 C106 1_555 1_555
C106 C107 1_555 1_555
C107 C108 1_555 1_555
C108 C103 1_555 1_555
H99 C108 1_555 1_555
C109 C107 1_555 1_555
H100 C109 1_555 1_555
H101 C109 1_555 1_555
H102 C109 1_555 1_555
C110 C106 1_555 1_555
H103 C110 1_555 1_555
H104 C110 1_555 1_555
H105 C110 1_555 1_555
C111 C105 1_555 1_555
C112 C111 1_555 1_555
C113 C112 1_555 1_555
C114 C113 1_555 1_555
H106 C114 1_555 1_555
C115 C114 1_555 1_555
C116 C111 1_555 1_555
C117 C116 1_555 1_555
H107 C117 1_555 1_555
H108 C117 1_555 1_555
H109 C117 1_555 1_555
C118 C115 1_555 1_555
H110 C118 1_555 1_555
H111 C118 1_555 1_555
H112 C118 1_555 1_555
C119 H113 1_555 1_555
C120 C119 1_555 1_555
C121 C120 1_555 1_555
C122 C121 1_555 1_555
C123 C122 1_555 1_555
H114 C123 1_555 1_555
C124 C123 1_555 1_555
C125 C120 1_555 1_555
H115 C125 1_555 1_555
C126 C124 1_555 1_555
C127 C122 1_555 1_555
C128 C127 1_555 1_555
H116 C128 1_555 1_555
H117 C128 1_555 1_555
H118 C128 1_555 1_555
C129 C127 1_555 1_555
H119 C129 1_555 1_555
H120 C129 1_555 1_555
H121 C129 1_555 1_555
C130 C127 1_555 1_555
H122 C130 1_555 1_555
H123 C130 1_555 1_555
H124 C130 1_555 1_555
N7 Zn5 1_555 1_555
N8 Zn6 1_555 1_555
O19 Zn3 1_555 1_555
O20 Zn5 1_555 1_555
O21 Zn1 1_555 1_555
O22 Zn1 1_555 1_555
O23 Zn6 1_555 1_555
O24 C91 1_555 1_555
O25 C91 1_555 1_555
O26 C126 1_555 1_555
O27 C126 1_555 1_555
Cd3 O24 1_555 1_555
Zn2 O4 1_555 1_555
Zn2 O22 1_555 1_555
Zn3 O5 1_555 1_555
Zn4 O1 1_555 1_555
Zn4 O19 1_555 1_555
Zn4 O21 1_555 1_555
C1 O8 1_555 1_555
C1 O9 1_555 1_555
C5 O3 1_555 1_555
C6 C7 1_555 1_555
C13 N3 1_555 1_555
C14 O4 1_555 1_555
C22 O5 1_555 1_555
C25 C26 1_555 1_555
C29 N4 1_555 1_555
C31 O6 1_555 1_555
C34 C35 1_555 1_555
C41 O12 1_555 1_555
C41 O13 1_555 1_555
C45 O7 1_555 1_555
C46 C47 1_555 1_555
C53 N5 1_555 1_555
C54 O1 1_555 1_555
O4 Zn7 1_555 1_555
C76 C77 1_555 1_555
C83 N6 1_555 1_555
C84 O15 1_555 1_555
C87 C88 1_555 1_555
N6 Zn7 1_555 1_555
O15 Zn6 1_555 1_555
O15 Zn7 1_555 1_555
O16 Zn7 1_555 1_555
Zn5 O19 1_555 1_555
Zn5 O21 1_555 1_555
Zn6 O22 1_555 1_555
C95 O20 1_555 1_555
C96 C97 1_555 1_555
C102 N7 1_555 1_555
C103 N7 1_555 1_555
C104 O21 1_555 1_555
C112 O22 1_555 1_555
C113 N8 1_555 1_555
C115 C116 1_555 1_555
C119 N8 1_555 1_555
C121 O23 1_555 1_555
C124 C125 1_555 1_555
O25 Cd3 1_555 1_555
O10 H135 1_555 1_555
O14 H136 1_555 1_555
O26 H138 1_555 1_555
O14_2 Cd1_2 1_555 1_555
N9 Cd1_2 1_555 1_555
C131 N9 1_555 1_555
H125 C131 1_555 1_555
C132 C131 1_555 1_555
H126 C132 1_555 1_555
C133 C132 1_555 1_555
H127 C133 1_555 1_555
C134 C133 1_555 1_555
C135 N9 1_555 1_555
O28 Cd1_2 1_555 1_555
O29 Cd1_2 1_555 1_555
C134 C135 1_555 1_555
O14_2 H137 1_555 1_555
Cd2 N2 1_555 1_555
N2 C66 1_555 1_555
C66 H63 1_555 1_555
C67 C66 1_555 1_555
H64 C67 1_555 1_555
C68 C67 1_555 1_555
H65 C68 1_555 1_555
C69 C68 1_555 1_555
H66 C69 1_555 1_555
C70 N2 1_555 1_555
H67 C70 1_555 1_555
N10 Cd2 1_555 1_555
C136 N10 1_555 1_555
H130 C136 1_555 1_555
C137 C136 1_555 1_555
H131 C137 1_555 1_555
C138 C137 1_555 1_555
H132 C138 1_555 1_555
C139 C138 1_555 1_555
H133 C139 1_555 1_555
C140 N10 1_555 1_555
H134 C140 1_555 1_555
C69 C70 1_555 1_555
C139 C140 1_555 1_555
Cd4 N2_2 1_555 1_555
N2_2 C66_2 1_555 1_555
C66_2 H63_2 1_555 1_555
C67_2 C66_2 1_555 1_555
H64_2 C67_2 1_555 1_555
C68_2 C67_2 1_555 1_555
H65_2 C68_2 1_555 1_555
C69_2 C68_2 1_555 1_555
H66_2 C69_2 1_555 1_555
C70_2 N2_2 1_555 1_555
C69_2 C70_2 1_555 1_555
N10_2 Cd4_2 1_555 1_555
C136_2 N10_2 1_555 1_555
H130_2 C136_2 1_555 1_555
C137_2 C136_2 1_555 1_555
H131_2 C137_2 1_555 1_555
C138_2 C137_2 1_555 1_555
H132_2 C138_2 1_555 1_555
C139_2 C138_2 1_555 1_555
H133_2 C139_2 1_555 1_555
C140_2 N10_2 1_555 1_555
C139_2 C140_2 1_555 1_555
O14_3 H136_2 1_555 1_555
Cd3 N1_2 1_555 1_555
N1_2 C61_2 1_555 1_555
C61_2 H58_2 1_555 1_555
C62_2 C61_2 1_555 1_555
C65_2 N1_2 1_555 1_555
N9_2 Cd3_2 1_555 1_555
C131_2 N9_2 1_555 1_555
H125_2 C131_2 1_555 1_555
C132_2 C131_2 1_555 1_555
C133_2 C132_2 1_555 1_555
H127_2 C133_2 1_555 1_555
C134_2 C133_2 1_555 1_555
C135_2 N9_2 1_555 1_555
O28_2 Cd3_2 1_555 1_555
O29_2 Cd3_2 1_555 1_555
C134_2 C135_2 1_555 1_555
H60_2 C63_2 1_555 1_555
C64_2 C63_2 1_555 1_555
H60_3 C63_3 1_555 1_555
C64_3 C63_3 1_555 1_555
H61_3 C64_3 1_555 1_555
Cd1_3 N1_3 1_555 1_555
Zn1_2 O1_2 1_555 1_555
Zn2_2 N3_2 1_555 1_555
Zn3_2 N4_2 1_555 1_555
Zn4_2 N5_2 1_555 1_555
C1_2 C2_2 1_555 1_555
C2_2 C3_2 1_555 1_555
C3_2 H1_2 1_555 1_555
C4_2 C3_2 1_555 1_555
C5_2 C4_2 1_555 1_555
C6_2 C5_2 1_555 1_555
C7_2 C2_2 1_555 1_555
H2_2 C7_2 1_555 1_555
C8_2 C4_2 1_555 1_555
C9_2 C8_2 1_555 1_555
H3_2 C9_2 1_555 1_555
H4_2 C9_2 1_555 1_555
H5_2 C9_2 1_555 1_555
C10_2 C8_2 1_555 1_555
H6_2 C10_2 1_555 1_555
H7_2 C10_2 1_555 1_555
H8_2 C10_2 1_555 1_555
C11_2 C8_2 1_555 1_555
H9_2 C11_2 1_555 1_555
H10_2 C11_2 1_555 1_555
H11_2 C11_2 1_555 1_555
C12_2 C6_2 1_555 1_555
H12_2 C12_2 1_555 1_555
C13_2 C14_2 1_555 1_555
C14_2 C15_2 1_555 1_555
C15_2 C16_2 1_555 1_555
C16_2 C17_2 1_555 1_555
C17_2 C18_2 1_555 1_555
C18_2 C13_2 1_555 1_555
H13_2 C18_2 1_555 1_555
C19_2 C17_2 1_555 1_555
H14_2 C19_2 1_555 1_555
H15_2 C19_2 1_555 1_555
H16_2 C19_2 1_555 1_555
C20_2 C16_2 1_555 1_555
H17_2 C20_2 1_555 1_555
H18_2 C20_2 1_555 1_555
H19_2 C20_2 1_555 1_555
C21_2 C15_2 1_555 1_555
C22_2 C21_2 1_555 1_555
C23_2 C22_2 1_555 1_555
C24_2 C23_2 1_555 1_555
H20_2 C24_2 1_555 1_555
C25_2 C24_2 1_555 1_555
C26_2 C21_2 1_555 1_555
C27_2 C26_2 1_555 1_555
H21_2 C27_2 1_555 1_555
H22_2 C27_2 1_555 1_555
H23_2 C27_2 1_555 1_555
C28_2 C25_2 1_555 1_555
H24_2 C28_2 1_555 1_555
H25_2 C28_2 1_555 1_555
H26_2 C28_2 1_555 1_555
C29_2 H27_2 1_555 1_555
C30_2 C29_2 1_555 1_555
C31_2 C30_2 1_555 1_555
C32_2 C31_2 1_555 1_555
C33_2 C32_2 1_555 1_555
H28_2 C33_2 1_555 1_555
C34_2 C33_2 1_555 1_555
C35_2 C30_2 1_555 1_555
H29_2 C35_2 1_555 1_555
C36_2 C34_2 1_555 1_555
C37_2 C32_2 1_555 1_555
C38_2 C37_2 1_555 1_555
H30_2 C38_2 1_555 1_555
H31_2 C38_2 1_555 1_555
H32_2 C38_2 1_555 1_555
C39_2 C37_2 1_555 1_555
H33_2 C39_2 1_555 1_555
H34_2 C39_2 1_555 1_555
H35_2 C39_2 1_555 1_555
C40_2 C37_2 1_555 1_555
H36_2 C40_2 1_555 1_555
H37_2 C40_2 1_555 1_555
H38_2 C40_2 1_555 1_555
C41_2 C42_2 1_555 1_555
C42_2 C43_2 1_555 1_555
C43_2 H39_2 1_555 1_555
C44_2 C43_2 1_555 1_555
C45_2 C44_2 1_555 1_555
C46_2 C45_2 1_555 1_555
C47_2 C42_2 1_555 1_555
H40_2 C47_2 1_555 1_555
C48_2 C44_2 1_555 1_555
C49_2 C48_2 1_555 1_555
H41_2 C49_2 1_555 1_555
H42_2 C49_2 1_555 1_555
H43_2 C49_2 1_555 1_555
C50_2 C48_2 1_555 1_555
H44_2 C50_2 1_555 1_555
H45_2 C50_2 1_555 1_555
H46_2 C50_2 1_555 1_555
C51_2 C48_2 1_555 1_555
H47_2 C51_2 1_555 1_555
H48_2 C51_2 1_555 1_555
H49_2 C51_2 1_555 1_555
C52_2 C46_2 1_555 1_555
H50_2 C52_2 1_555 1_555
C53_2 C54_2 1_555 1_555
C54_2 C55_2 1_555 1_555
C55_2 C56_2 1_555 1_555
C56_2 C57_2 1_555 1_555
C57_2 C58_2 1_555 1_555
C58_2 C53_2 1_555 1_555
H51_2 C58_2 1_555 1_555
C59_2 C57_2 1_555 1_555
H52_2 C59_2 1_555 1_555
H53_2 C59_2 1_555 1_555
H54_2 C59_2 1_555 1_555
C60_2 C56_2 1_555 1_555
H55_2 C60_2 1_555 1_555
H56_2 C60_2 1_555 1_555
H57_2 C60_2 1_555 1_555
N1_3 C61_3 1_555 1_555
C61_3 H58_3 1_555 1_555
C62_3 C61_3 1_555 1_555
H59_3 C62_3 1_555 1_555
C65_3 N1_3 1_555 1_555
H62_3 C65_3 1_555 1_555
N3_2 C12_2 1_555 1_555
N4_2 C23_2 1_555 1_555
N5_2 C52_2 1_555 1_555
O1_2 Zn3_2 1_555 1_555
O2_2 Zn2_2 1_555 1_555
O3_2 Zn2_2 1_555 1_555
O4_2 Zn1_2 1_555 1_555
O5_2 Zn1_2 1_555 1_555
O6_2 Zn3_2 1_555 1_555
O7_2 Zn4_2 1_555 1_555
O8_2 Cd1_3 1_555 1_555
O9_2 Cd1_3 1_555 1_555
O10_2 C36_2 1_555 1_555
O11_2 C36_2 1_555 1_555
O14_4 Cd1_3 1_555 1_555
C71_2 C72_2 1_555 1_555
C72_2 C73_2 1_555 1_555
C73_2 H68_2 1_555 1_555
C74_2 C73_2 1_555 1_555
C75_2 C74_2 1_555 1_555
C76_2 C75_2 1_555 1_555
C77_2 C72_2 1_555 1_555
H69_2 C77_2 1_555 1_555
C78_2 C74_2 1_555 1_555
C79_2 C78_2 1_555 1_555
H70_2 C79_2 1_555 1_555
H71_2 C79_2 1_555 1_555
H72_2 C79_2 1_555 1_555
C80_2 C78_2 1_555 1_555
H73_2 C80_2 1_555 1_555
H74_2 C80_2 1_555 1_555
H75_2 C80_2 1_555 1_555
C81_2 C78_2 1_555 1_555
H76_2 C81_2 1_555 1_555
H77_2 C81_2 1_555 1_555
H78_2 C81_2 1_555 1_555
C82_2 C76_2 1_555 1_555
H79_2 C82_2 1_555 1_555
C83_2 C84_2 1_555 1_555
C84_2 C85_2 1_555 1_555
C85_2 C55_2 1_555 1_555
C86_2 C85_2 1_555 1_555
C87_2 C86_2 1_555 1_555
C88_2 C83_2 1_555 1_555
H80_2 C88_2 1_555 1_555
C89_2 C87_2 1_555 1_555
H81_2 C89_2 1_555 1_555
H82_2 C89_2 1_555 1_555
H83_2 C89_2 1_555 1_555
C90_2 C86_2 1_555 1_555
H84_2 C90_2 1_555 1_555
H85_2 C90_2 1_555 1_555
H86_2 C90_2 1_555 1_555
N6_2 C82_2 1_555 1_555
O15_2 Zn1_2 1_555 1_555
O16_2 C75_2 1_555 1_555
O30_2 C71_2 1_555 1_555
O31_2 C71_2 1_555 1_555
Zn5_2 O5_2 1_555 1_555
Zn6_2 O2_2 1_555 1_555
Zn7_2 O2_2 1_555 1_555
C91_2 C92_2 1_555 1_555
C92_2 C93_2 1_555 1_555
C93_2 H87_2 1_555 1_555
C94_2 C93_2 1_555 1_555
C95_2 C94_2 1_555 1_555
C96_2 C95_2 1_555 1_555
C97_2 C92_2 1_555 1_555
H88_2 C97_2 1_555 1_555
C98_2 C94_2 1_555 1_555
C99_2 C98_2 1_555 1_555
H89_2 C99_2 1_555 1_555
H90_2 C99_2 1_555 1_555
H91_2 C99_2 1_555 1_555
C100_2 C98_2 1_555 1_555
H92_2 C100_2 1_555 1_555
H93_2 C100_2 1_555 1_555
H94_2 C100_2 1_555 1_555
C101_2 C98_2 1_555 1_555
H96_2 C101_2 1_555 1_555
H97_2 C101_2 1_555 1_555
C102_2 C96_2 1_555 1_555
H98_2 C102_2 1_555 1_555
C103_2 C104_2 1_555 1_555
C104_2 C105_2 1_555 1_555
C105_2 C106_2 1_555 1_555
C106_2 C107_2 1_555 1_555
C107_2 C108_2 1_555 1_555
C108_2 C103_2 1_555 1_555
H99_2 C108_2 1_555 1_555
C109_2 C107_2 1_555 1_555
H100_2 C109_2 1_555 1_555
H101_2 C109_2 1_555 1_555
H102_2 C109_2 1_555 1_555
C110_2 C106_2 1_555 1_555
H103_2 C110_2 1_555 1_555
H104_2 C110_2 1_555 1_555
H105_2 C110_2 1_555 1_555
C111_2 C105_2 1_555 1_555
C112_2 C111_2 1_555 1_555
C113_2 C112_2 1_555 1_555
C114_2 C113_2 1_555 1_555
H106_2 C114_2 1_555 1_555
C115_2 C114_2 1_555 1_555
C116_2 C111_2 1_555 1_555
C117_2 C116_2 1_555 1_555
H107_2 C117_2 1_555 1_555
H108_2 C117_2 1_555 1_555
H109_2 C117_2 1_555 1_555
C118_2 C115_2 1_555 1_555
H110_2 C118_2 1_555 1_555
H111_2 C118_2 1_555 1_555
H112_2 C118_2 1_555 1_555
C119_2 H113_2 1_555 1_555
C120_2 C119_2 1_555 1_555
C121_2 C120_2 1_555 1_555
C122_2 C121_2 1_555 1_555
C123_2 C122_2 1_555 1_555
H114_2 C123_2 1_555 1_555
C124_2 C123_2 1_555 1_555
C125_2 C120_2 1_555 1_555
H115_2 C125_2 1_555 1_555
C126_2 C124_2 1_555 1_555
C127_2 C122_2 1_555 1_555
C128_2 C127_2 1_555 1_555
H116_2 C128_2 1_555 1_555
H117_2 C128_2 1_555 1_555
H118_2 C128_2 1_555 1_555
C129_2 C127_2 1_555 1_555
H119_2 C129_2 1_555 1_555
H120_2 C129_2 1_555 1_555
H121_2 C129_2 1_555 1_555
C130_2 C127_2 1_555 1_555
H122_2 C130_2 1_555 1_555
H123_2 C130_2 1_555 1_555
H124_2 C130_2 1_555 1_555
N7_2 Zn5_2 1_555 1_555
N8_2 Zn6_2 1_555 1_555
O19_2 Zn3_2 1_555 1_555
O20_2 Zn5_2 1_555 1_555
O21_2 Zn1_2 1_555 1_555
O22_2 Zn1_2 1_555 1_555
O23_2 Zn6_2 1_555 1_555
O24_2 C91_2 1_555 1_555
O25_2 C91_2 1_555 1_555
O26_2 C126_2 1_555 1_555
O27_2 C126_2 1_555 1_555
N9_3 Cd1_3 1_555 1_555
C131_3 N9_3 1_555 1_555
H125_3 C131_3 1_555 1_555
C132_3 C131_3 1_555 1_555
H126_2 C132_3 1_555 1_555
C133_3 C132_3 1_555 1_555
H127_3 C133_3 1_555 1_555
C134_3 C133_3 1_555 1_555
H128_3 C134_3 1_555 1_555
C135_3 N9_3 1_555 1_555
H129_3 C135_3 1_555 1_555
Cd3_3 O24_2 1_555 1_555
O28_3 Cd1_3 1_555 1_555
O29_3 Cd1_3 1_555 1_555
Zn2_2 O4_2 1_555 1_555
Zn2_2 O22_2 1_555 1_555
Zn3_2 O5_2 1_555 1_555
Zn4_2 O1_2 1_555 1_555
Zn4_2 O19_2 1_555 1_555
Zn4_2 O21_2 1_555 1_555
C1_2 O8_2 1_555 1_555
C1_2 O9_2 1_555 1_555
C5_2 O3_2 1_555 1_555
C6_2 C7_2 1_555 1_555
C13_2 N3_2 1_555 1_555
C14_2 O4_2 1_555 1_555
C22_2 O5_2 1_555 1_555
C25_2 C26_2 1_555 1_555
C29_2 N4_2 1_555 1_555
C31_2 O6_2 1_555 1_555
C34_2 C35_2 1_555 1_555
C41_2 O30 1_555 1_555
C41_2 O31 1_555 1_555
C45_2 O7_2 1_555 1_555
C46_2 C47_2 1_555 1_555
C53_2 N5_2 1_555 1_555
C54_2 O1_2 1_555 1_555
O4_2 Zn7_2 1_555 1_555
C76_2 C77_2 1_555 1_555
C83_2 N6_2 1_555 1_555
C84_2 O15_2 1_555 1_555
C87_2 C88_2 1_555 1_555
N6_2 Zn7_2 1_555 1_555
O15_2 Zn6_2 1_555 1_555
O15_2 Zn7_2 1_555 1_555
O16_2 Zn7_2 1_555 1_555
Zn5_2 O19_2 1_555 1_555
Zn5_2 O21_2 1_555 1_555
Zn6_2 O22_2 1_555 1_555
C95_2 O20_2 1_555 1_555
C96_2 C97_2 1_555 1_555
C102_2 N7_2 1_555 1_555
C103_2 N7_2 1_555 1_555
C104_2 O21_2 1_555 1_555
C112_2 O22_2 1_555 1_555
C113_2 N8_2 1_555 1_555
C115_2 C116_2 1_555 1_555
C119_2 N8_2 1_555 1_555
C121_2 O23_2 1_555 1_555
C124_2 C125_2 1_555 1_555
O25_2 Cd3_3 1_555 1_555
C134_3 C135_3 1_555 1_555
O10_2 H135_2 1_555 1_555
O26_2 H138_2 1_555 1_555
Cd2_2 N2_3 1_555 1_555
Zn1_3 O1_3 1_555 1_555
Zn3_3 N4_3 1_555 1_555
Zn4_3 N5_3 1_555 1_555
C29_3 H27_3 1_555 1_555
C30_3 C29_3 1_555 1_555
C31_3 C30_3 1_555 1_555
C32_3 C31_3 1_555 1_555
C33_3 C32_3 1_555 1_555
H28_3 C33_3 1_555 1_555
C34_3 C33_3 1_555 1_555
C35_3 C30_3 1_555 1_555
H29_3 C35_3 1_555 1_555
C36_3 C34_3 1_555 1_555
C37_3 C32_3 1_555 1_555
C38_3 C37_3 1_555 1_555
H30_3 C38_3 1_555 1_555
H31_3 C38_3 1_555 1_555
H32_3 C38_3 1_555 1_555
C39_3 C37_3 1_555 1_555
H33_3 C39_3 1_555 1_555
H34_3 C39_3 1_555 1_555
H35_3 C39_3 1_555 1_555
C40_3 C37_3 1_555 1_555
H36_3 C40_3 1_555 1_555
H37_3 C40_3 1_555 1_555
H38_3 C40_3 1_555 1_555
C41_3 C42_3 1_555 1_555
C42_3 C43_3 1_555 1_555
C43_3 H39_3 1_555 1_555
C44_3 C43_3 1_555 1_555
C45_3 C44_3 1_555 1_555
C46_3 C45_3 1_555 1_555
C47_3 C42_3 1_555 1_555
H40_3 C47_3 1_555 1_555
C48_3 C44_3 1_555 1_555
C49_3 C48_3 1_555 1_555
H41_3 C49_3 1_555 1_555
H42_3 C49_3 1_555 1_555
H43_3 C49_3 1_555 1_555
C50_3 C48_3 1_555 1_555
H44_3 C50_3 1_555 1_555
H45_3 C50_3 1_555 1_555
H46_3 C50_3 1_555 1_555
C51_3 C48_3 1_555 1_555
H47_3 C51_3 1_555 1_555
H48_3 C51_3 1_555 1_555
H49_3 C51_3 1_555 1_555
C52_3 C46_3 1_555 1_555
H50_3 C52_3 1_555 1_555
C53_3 C54_3 1_555 1_555
C54_3 C55_3 1_555 1_555
C55_3 C56_3 1_555 1_555
C56_3 C57_3 1_555 1_555
C57_3 C58_3 1_555 1_555
C58_3 C53_3 1_555 1_555
H51_3 C58_3 1_555 1_555
C59_3 C57_3 1_555 1_555
H52_3 C59_3 1_555 1_555
H53_3 C59_3 1_555 1_555
H54_3 C59_3 1_555 1_555
N2_3 C66_3 1_555 1_555
C66_3 H63_3 1_555 1_555
C67_3 C66_3 1_555 1_555
H64_3 C67_3 1_555 1_555
C68_3 C67_3 1_555 1_555
H65_3 C68_3 1_555 1_555
C69_3 C68_3 1_555 1_555
H66_3 C69_3 1_555 1_555
C70_3 N2_3 1_555 1_555
H67_3 C70_3 1_555 1_555
N5_3 C52_3 1_555 1_555
O1_3 Zn3_3 1_555 1_555
O5_3 Zn1_3 1_555 1_555
O6_3 Zn3_3 1_555 1_555
O7_3 Zn4_3 1_555 1_555
O10_3 C36_3 1_555 1_555
O11_3 C36_3 1_555 1_555
O12_2 Cd2_2 1_555 1_555
O13_2 Cd2_2 1_555 1_555
H84_3 C90_3 1_555 1_555
H85_3 C90_3 1_555 1_555
H86_3 C90_3 1_555 1_555
Zn5_3 O5_3 1_555 1_555
C91_3 C92_3 1_555 1_555
C92_3 C93_3 1_555 1_555
C93_3 H87_3 1_555 1_555
C94_3 C93_3 1_555 1_555
C95_3 C94_3 1_555 1_555
C96_3 C95_3 1_555 1_555
C97_3 C92_3 1_555 1_555
H88_3 C97_3 1_555 1_555
C98_3 C94_3 1_555 1_555
C99_3 C98_3 1_555 1_555
H89_3 C99_3 1_555 1_555
H90_3 C99_3 1_555 1_555
H91_3 C99_3 1_555 1_555
C100_3 C98_3 1_555 1_555
H92_3 C100_3 1_555 1_555
H93_3 C100_3 1_555 1_555
H94_3 C100_3 1_555 1_555
C101_3 C98_3 1_555 1_555
H96_3 C101_3 1_555 1_555
H97_3 C101_3 1_555 1_555
C102_3 C96_3 1_555 1_555
H98_3 C102_3 1_555 1_555
C103_3 C104_3 1_555 1_555
C104_3 C105_3 1_555 1_555
C105_3 C106_3 1_555 1_555
C106_3 C107_3 1_555 1_555
C107_3 C108_3 1_555 1_555
C108_3 C103_3 1_555 1_555
H99_3 C108_3 1_555 1_555
C109_3 C107_3 1_555 1_555
H100_3 C109_3 1_555 1_555
H101_3 C109_3 1_555 1_555
C110_3 C106_3 1_555 1_555
H103_3 C110_3 1_555 1_555
H104_3 C110_3 1_555 1_555
C111_3 C105_3 1_555 1_555
C112_3 C111_3 1_555 1_555
C113_3 C112_3 1_555 1_555
C114_3 C113_3 1_555 1_555
H106_3 C114_3 1_555 1_555
C115_3 C114_3 1_555 1_555
C116_3 C111_3 1_555 1_555
C117_3 C116_3 1_555 1_555
H107_3 C117_3 1_555 1_555
H108_3 C117_3 1_555 1_555
H109_3 C117_3 1_555 1_555
C118_3 C115_3 1_555 1_555
H110_3 C118_3 1_555 1_555
H111_3 C118_3 1_555 1_555
H112_3 C118_3 1_555 1_555
N7_3 Zn5_3 1_555 1_555
O19_3 Zn3_3 1_555 1_555
O20_3 Zn5_3 1_555 1_555
O21_3 Zn1_3 1_555 1_555
O28_2 C91_3 1_555 1_555
O29_2 C91_3 1_555 1_555
N10_3 Cd2_2 1_555 1_555
C136_3 N10_3 1_555 1_555
H130_3 C136_3 1_555 1_555
C137_3 C136_3 1_555 1_555
H131_3 C137_3 1_555 1_555
C138_3 C137_3 1_555 1_555
H132_3 C138_3 1_555 1_555
C139_3 C138_3 1_555 1_555
H133_3 C139_3 1_555 1_555
C140_3 N10_3 1_555 1_555
H134_3 C140_3 1_555 1_555
O30_3 Cd2_2 1_555 1_555
O31_3 Cd2_2 1_555 1_555
Zn3_3 O5_3 1_555 1_555
Zn4_3 O1_3 1_555 1_555
Zn4_3 O19_3 1_555 1_555
Zn4_3 O21_3 1_555 1_555
C29_3 N4_3 1_555 1_555
C31_3 O6_3 1_555 1_555
C34_3 C35_3 1_555 1_555
C41_3 O12_2 1_555 1_555
C41_3 O13_2 1_555 1_555
C45_3 O7_3 1_555 1_555
C46_3 C47_3 1_555 1_555
C53_3 N5_3 1_555 1_555
C54_3 O1_3 1_555 1_555
C69_3 C70_3 1_555 1_555
Zn5_3 O19_3 1_555 1_555
Zn5_3 O21_3 1_555 1_555
C95_3 O20_3 1_555 1_555
C96_3 C97_3 1_555 1_555
C102_3 N7_3 1_555 1_555
C103_3 N7_3 1_555 1_555
C104_3 O21_3 1_555 1_555
C115_3 C116_3 1_555 1_555
C139_3 C140_3 1_555 1_555
O10_3 H135_3 1_555 1_555
O14 H137_2 1_555 1_555
Zn2_3 N3_3 1_555 1_555
C1_3 C2_3 1_555 1_555
C2_3 C3_3 1_555 1_555
C3_3 H1_3 1_555 1_555
C4_3 C3_3 1_555 1_555
C5_3 C4_3 1_555 1_555
C6_3 C5_3 1_555 1_555
C7_3 C2_3 1_555 1_555
H2_3 C7_3 1_555 1_555
C8_3 C4_3 1_555 1_555
C9_3 C8_3 1_555 1_555
H3_3 C9_3 1_555 1_555
H4_3 C9_3 1_555 1_555
H5_3 C9_3 1_555 1_555
C10_3 C8_3 1_555 1_555
H6_3 C10_3 1_555 1_555
H7_3 C10_3 1_555 1_555
H8_3 C10_3 1_555 1_555
C11_3 C8_3 1_555 1_555
H9_3 C11_3 1_555 1_555
H10_3 C11_3 1_555 1_555
H11_3 C11_3 1_555 1_555
C12_3 C6_3 1_555 1_555
H12_3 C12_3 1_555 1_555
C13_3 C14_3 1_555 1_555
C14_3 C15_3 1_555 1_555
C15_3 C16_3 1_555 1_555
C16_3 C17_3 1_555 1_555
C17_3 C18_3 1_555 1_555
C18_3 C13_3 1_555 1_555
H13_3 C18_3 1_555 1_555
C19_3 C17_3 1_555 1_555
H14_3 C19_3 1_555 1_555
H15_3 C19_3 1_555 1_555
C20_3 C16_3 1_555 1_555
H17_3 C20_3 1_555 1_555
H18_3 C20_3 1_555 1_555
C21_3 C15_3 1_555 1_555
C22_3 C21_3 1_555 1_555
C23_3 C22_3 1_555 1_555
C24_3 C23_3 1_555 1_555
H20_3 C24_3 1_555 1_555
C25_3 C24_3 1_555 1_555
C26_3 C21_3 1_555 1_555
C27_3 C26_3 1_555 1_555
H21_3 C27_3 1_555 1_555
H22_3 C27_3 1_555 1_555
H23_3 C27_3 1_555 1_555
C28_3 C25_3 1_555 1_555
H24_3 C28_3 1_555 1_555
H25_3 C28_3 1_555 1_555
H26_3 C28_3 1_555 1_555
H55_3 C60_3 1_555 1_555
H56_3 C60_3 1_555 1_555
H57_3 C60_3 1_555 1_555
N3_3 C12_3 1_555 1_555
O2_3 Zn2_3 1_555 1_555
O3_3 Zn2_3 1_555 1_555
O4_3 Zn1_4 1_555 1_555
C71_3 C72_3 1_555 1_555
C72_3 C73_3 1_555 1_555
C73_3 H68_3 1_555 1_555
C74_3 C73_3 1_555 1_555
C75_3 C74_3 1_555 1_555
C76_3 C75_3 1_555 1_555
C77_3 C72_3 1_555 1_555
H69_3 C77_3 1_555 1_555
C78_3 C74_3 1_555 1_555
C79_3 C78_3 1_555 1_555
H70_3 C79_3 1_555 1_555
H71_3 C79_3 1_555 1_555
H72_3 C79_3 1_555 1_555
C80_3 C78_3 1_555 1_555
H73_3 C80_3 1_555 1_555
H74_3 C80_3 1_555 1_555
H75_3 C80_3 1_555 1_555
C81_3 C78_3 1_555 1_555
H76_3 C81_3 1_555 1_555
H77_3 C81_3 1_555 1_555
H78_3 C81_3 1_555 1_555
C82_3 C76_3 1_555 1_555
H79_3 C82_3 1_555 1_555
C83_3 C84_3 1_555 1_555
C84_3 C85_3 1_555 1_555
C86_3 C85_3 1_555 1_555
C87_3 C86_3 1_555 1_555
C88_3 C83_3 1_555 1_555
H80_3 C88_3 1_555 1_555
C89_3 C87_3 1_555 1_555
H81_3 C89_3 1_555 1_555
H82_3 C89_3 1_555 1_555
H83_3 C89_3 1_555 1_555
N6_3 C82_3 1_555 1_555
O15_3 Zn1_4 1_555 1_555
O16_3 C75_3 1_555 1_555
O17_2 C71_3 1_555 1_555
O18_2 C71_3 1_555 1_555
Zn6_3 O2_3 1_555 1_555
Zn7_3 O2_3 1_555 1_555
C119_3 H113_3 1_555 1_555
C120_3 C119_3 1_555 1_555
C121_3 C120_3 1_555 1_555
C122_3 C121_3 1_555 1_555
C123_3 C122_3 1_555 1_555
H114_3 C123_3 1_555 1_555
C124_3 C123_3 1_555 1_555
C125_3 C120_3 1_555 1_555
H115_3 C125_3 1_555 1_555
C126_3 C124_3 1_555 1_555
C127_3 C122_3 1_555 1_555
C128_3 C127_3 1_555 1_555
H116_3 C128_3 1_555 1_555
H117_3 C128_3 1_555 1_555
H118_3 C128_3 1_555 1_555
C129_3 C127_3 1_555 1_555
H119_3 C129_3 1_555 1_555
H120_3 C129_3 1_555 1_555
H121_3 C129_3 1_555 1_555
C130_3 C127_3 1_555 1_555
H122_3 C130_3 1_555 1_555
H123_3 C130_3 1_555 1_555
H124_3 C130_3 1_555 1_555
N8_3 Zn6_3 1_555 1_555
O22_3 Zn1_4 1_555 1_555
O23_3 Zn6_3 1_555 1_555
O26_3 C126_3 1_555 1_555
O27_3 C126_3 1_555 1_555
Cd4_4 O17_2 1_555 1_555
Zn2_3 O4_3 1_555 1_555
Zn2_3 O22_3 1_555 1_555
C1_3 O28 1_555 1_555
C1_3 O29 1_555 1_555
C5_3 O3_3 1_555 1_555
C6_3 C7_3 1_555 1_555
C13_3 N3_3 1_555 1_555
C14_3 O4_3 1_555 1_555
C25_3 C26_3 1_555 1_555
O4_3 Zn7_3 1_555 1_555
C76_3 C77_3 1_555 1_555
C83_3 N6_3 1_555 1_555
C84_3 O15_3 1_555 1_555
C87_3 C88_3 1_555 1_555
N6_3 Zn7_3 1_555 1_555
O15_3 Zn6_3 1_555 1_555
O15_3 Zn7_3 1_555 1_555
O16_3 Zn7_3 1_555 1_555
O18_2 Cd4_4 1_555 1_555
Zn6_3 O22_3 1_555 1_555
C119_3 N8_3 1_555 1_555
C121_3 O23_3 1_555 1_555
C124_3 C125_3 1_555 1_555
O14_2 H136_3 1_555 1_555
O26_3 H138_3 1_555 1_555
Cd3_3 N1_4 1_555 1_555
Zn2_4 N3_4 1_555 1_555
C1_4 C2_4 1_555 1_555
C2_4 C3_4 1_555 1_555
C3_4 H1_4 1_555 1_555
C4_4 C3_4 1_555 1_555
C5_4 C4_4 1_555 1_555
C6_4 C5_4 1_555 1_555
C7_4 C2_4 1_555 1_555
H2_4 C7_4 1_555 1_555
C8_4 C4_4 1_555 1_555
C9_4 C8_4 1_555 1_555
H3_4 C9_4 1_555 1_555
H4_4 C9_4 1_555 1_555
H5_4 C9_4 1_555 1_555
C10_4 C8_4 1_555 1_555
H6_4 C10_4 1_555 1_555
H7_4 C10_4 1_555 1_555
H8_4 C10_4 1_555 1_555
C11_4 C8_4 1_555 1_555
H10_4 C11_4 1_555 1_555
H11_4 C11_4 1_555 1_555
C12_4 C6_4 1_555 1_555
H12_4 C12_4 1_555 1_555
C13_4 C14_4 1_555 1_555
C14_4 C15_4 1_555 1_555
C15_4 C16_4 1_555 1_555
C16_4 C17_4 1_555 1_555
C17_4 C18_4 1_555 1_555
C18_4 C13_4 1_555 1_555
H13_4 C18_4 1_555 1_555
C19_4 C17_4 1_555 1_555
H14_4 C19_4 1_555 1_555
H15_4 C19_4 1_555 1_555
C20_4 C16_4 1_555 1_555
H17_4 C20_4 1_555 1_555
H18_4 C20_4 1_555 1_555
C21_4 C15_4 1_555 1_555
C22_4 C21_4 1_555 1_555
C23_4 C22_4 1_555 1_555
C24_4 C23_4 1_555 1_555
H20_4 C24_4 1_555 1_555
C25_4 C24_4 1_555 1_555
C26_4 C21_4 1_555 1_555
C27_4 C26_4 1_555 1_555
H21_4 C27_4 1_555 1_555
H22_4 C27_4 1_555 1_555
H23_4 C27_4 1_555 1_555
C28_4 C25_4 1_555 1_555
H24_4 C28_4 1_555 1_555
H25_4 C28_4 1_555 1_555
H26_4 C28_4 1_555 1_555
H55_4 C60_4 1_555 1_555
H56_4 C60_4 1_555 1_555
H57_4 C60_4 1_555 1_555
N1_4 C61_4 1_555 1_555
C61_4 H58_4 1_555 1_555
C62_4 C61_4 1_555 1_555
C63_4 C62_4 1_555 1_555
H60_4 C63_4 1_555 1_555
C64_4 C63_4 1_555 1_555
H61_4 C64_4 1_555 1_555
C65_4 N1_4 1_555 1_555
H62_4 C65_4 1_555 1_555
N3_4 C12_4 1_555 1_555
O2_4 Zn2_4 1_555 1_555
O3_4 Zn2_4 1_555 1_555
O4_4 Zn1_5 1_555 1_555
O8_3 Cd3_3 1_555 1_555
O9_3 Cd3_3 1_555 1_555
C71_4 C72_4 1_555 1_555
C72_4 C73_4 1_555 1_555
C73_4 H68_4 1_555 1_555
C74_4 C73_4 1_555 1_555
C75_4 C74_4 1_555 1_555
C76_4 C75_4 1_555 1_555
C77_4 C72_4 1_555 1_555
H69_4 C77_4 1_555 1_555
C78_4 C74_4 1_555 1_555
C79_4 C78_4 1_555 1_555
H70_4 C79_4 1_555 1_555
H71_4 C79_4 1_555 1_555
H72_4 C79_4 1_555 1_555
C80_4 C78_4 1_555 1_555
H73_4 C80_4 1_555 1_555
H74_4 C80_4 1_555 1_555
H75_4 C80_4 1_555 1_555
C81_4 C78_4 1_555 1_555
H76_4 C81_4 1_555 1_555
H77_4 C81_4 1_555 1_555
H78_4 C81_4 1_555 1_555
C82_4 C76_4 1_555 1_555
H79_4 C82_4 1_555 1_555
C83_4 C84_4 1_555 1_555
C84_4 C85_4 1_555 1_555
C86_4 C85_4 1_555 1_555
C87_4 C86_4 1_555 1_555
C88_4 C83_4 1_555 1_555
H80_4 C88_4 1_555 1_555
C89_4 C87_4 1_555 1_555
H81_4 C89_4 1_555 1_555
H82_4 C89_4 1_555 1_555
H83_4 C89_4 1_555 1_555
N6_4 C82_4 1_555 1_555
O15_4 Zn1_5 1_555 1_555
O16_4 C75_4 1_555 1_555
O30_3 C71_4 1_555 1_555
O31_3 C71_4 1_555 1_555
Zn6_4 O2_4 1_555 1_555
Zn7_4 O2_4 1_555 1_555
C119_4 H113_4 1_555 1_555
C120_4 C119_4 1_555 1_555
C121_4 C120_4 1_555 1_555
C122_4 C121_4 1_555 1_555
C123_4 C122_4 1_555 1_555
H114_4 C123_4 1_555 1_555
C124_4 C123_4 1_555 1_555
C125_4 C120_4 1_555 1_555
H115_4 C125_4 1_555 1_555
C126_4 C124_4 1_555 1_555
C127_4 C122_4 1_555 1_555
C128_4 C127_4 1_555 1_555
H116_4 C128_4 1_555 1_555
H117_4 C128_4 1_555 1_555
H118_4 C128_4 1_555 1_555
C129_4 C127_4 1_555 1_555
H119_4 C129_4 1_555 1_555
H120_4 C129_4 1_555 1_555
H121_4 C129_4 1_555 1_555
C130_4 C127_4 1_555 1_555
H122_4 C130_4 1_555 1_555
H123_4 C130_4 1_555 1_555
H124_4 C130_4 1_555 1_555
N8_4 Zn6_4 1_555 1_555
O22_4 Zn1_5 1_555 1_555
O23_4 Zn6_4 1_555 1_555
O26_4 C126_4 1_555 1_555
O27_4 C126_4 1_555 1_555
N9_4 Cd3_3 1_555 1_555
C131_4 N9_4 1_555 1_555
H125_4 C131_4 1_555 1_555
C132_4 C131_4 1_555 1_555
C135_4 N9_4 1_555 1_555
H129_4 C135_4 1_555 1_555
Zn2_4 O4_4 1_555 1_555
Zn2_4 O22_4 1_555 1_555
C1_4 O8_3 1_555 1_555
C1_4 O9_3 1_555 1_555
C5_4 O3_4 1_555 1_555
C6_4 C7_4 1_555 1_555
C13_4 N3_4 1_555 1_555
C14_4 O4_4 1_555 1_555
C25_4 C26_4 1_555 1_555
C64_4 C65_4 1_555 1_555
O4_4 Zn7_4 1_555 1_555
C76_4 C77_4 1_555 1_555
C83_4 N6_4 1_555 1_555
C84_4 O15_4 1_555 1_555
C87_4 C88_4 1_555 1_555
N6_4 Zn7_4 1_555 1_555
O15_4 Zn6_4 1_555 1_555
O15_4 Zn7_4 1_555 1_555
O16_4 Zn7_4 1_555 1_555
Zn6_4 O22_4 1_555 1_555
C119_4 N8_4 1_555 1_555
C121_4 O23_4 1_555 1_555
C124_4 C125_4 1_555 1_555
O26_4 H138_4 1_555 1_555
Zn1_6 O1_4 1_555 1_555
Zn3_4 N4_4 1_555 1_555
Zn4_4 N5_4 1_555 1_555
C29_4 H27_4 1_555 1_555
C30_4 C29_4 1_555 1_555
C31_4 C30_4 1_555 1_555
C32_4 C31_4 1_555 1_555
C33_4 C32_4 1_555 1_555
H28_4 C33_4 1_555 1_555
C34_4 C33_4 1_555 1_555
C35_4 C30_4 1_555 1_555
H29_4 C35_4 1_555 1_555
C36_4 C34_4 1_555 1_555
C37_4 C32_4 1_555 1_555
C38_4 C37_4 1_555 1_555
H30_4 C38_4 1_555 1_555
H31_4 C38_4 1_555 1_555
H32_4 C38_4 1_555 1_555
C39_4 C37_4 1_555 1_555
H33_4 C39_4 1_555 1_555
H34_4 C39_4 1_555 1_555
H35_4 C39_4 1_555 1_555
C40_4 C37_4 1_555 1_555
H36_4 C40_4 1_555 1_555
H37_4 C40_4 1_555 1_555
H38_4 C40_4 1_555 1_555
C41_4 C42_4 1_555 1_555
C42_4 C43_4 1_555 1_555
C43_4 H39_4 1_555 1_555
C44_4 C43_4 1_555 1_555
C45_4 C44_4 1_555 1_555
C46_4 C45_4 1_555 1_555
C47_4 C42_4 1_555 1_555
H40_4 C47_4 1_555 1_555
C48_4 C44_4 1_555 1_555
C49_4 C48_4 1_555 1_555
H41_4 C49_4 1_555 1_555
H42_4 C49_4 1_555 1_555
H43_4 C49_4 1_555 1_555
C50_4 C48_4 1_555 1_555
H44_4 C50_4 1_555 1_555
H45_4 C50_4 1_555 1_555
H46_4 C50_4 1_555 1_555
C51_4 C48_4 1_555 1_555
H47_4 C51_4 1_555 1_555
H48_4 C51_4 1_555 1_555
H49_4 C51_4 1_555 1_555
C52_4 C46_4 1_555 1_555
H50_4 C52_4 1_555 1_555
C53_4 C54_4 1_555 1_555
C54_4 C55_4 1_555 1_555
C55_4 C56_4 1_555 1_555
C56_4 C57_4 1_555 1_555
C57_4 C58_4 1_555 1_555
C58_4 C53_4 1_555 1_555
H51_4 C58_4 1_555 1_555
C59_4 C57_4 1_555 1_555
H52_4 C59_4 1_555 1_555
H53_4 C59_4 1_555 1_555
H54_4 C59_4 1_555 1_555
N5_4 C52_4 1_555 1_555
O1_4 Zn3_4 1_555 1_555
O5_4 Zn1_6 1_555 1_555
O6_4 Zn3_4 1_555 1_555
O7_4 Zn4_4 1_555 1_555
O10_4 C36_4 1_555 1_555
O11_4 C36_4 1_555 1_555
O12_3 Cd4_3 1_555 1_555
O13_3 Cd4_3 1_555 1_555
H84_4 C90_4 1_555 1_555
H85_4 C90_4 1_555 1_555
H86_4 C90_4 1_555 1_555
Zn5_4 O5_4 1_555 1_555
C91_4 C92_4 1_555 1_555
C92_4 C93_4 1_555 1_555
C93_4 H87_4 1_555 1_555
C94_4 C93_4 1_555 1_555
C95_4 C94_4 1_555 1_555
C96_4 C95_4 1_555 1_555
C97_4 C92_4 1_555 1_555
H88_4 C97_4 1_555 1_555
C98_4 C94_4 1_555 1_555
C99_4 C98_4 1_555 1_555
H89_4 C99_4 1_555 1_555
H90_4 C99_4 1_555 1_555
H91_4 C99_4 1_555 1_555
C100_4 C98_4 1_555 1_555
H92_4 C100_4 1_555 1_555
H93_4 C100_4 1_555 1_555
H94_4 C100_4 1_555 1_555
C101_4 C98_4 1_555 1_555
H95_3 C101_4 1_555 1_555
H96_4 C101_4 1_555 1_555
H97_4 C101_4 1_555 1_555
C102_4 C96_4 1_555 1_555
H98_4 C102_4 1_555 1_555
C103_4 C104_4 1_555 1_555
C104_4 C105_4 1_555 1_555
C105_4 C106_4 1_555 1_555
C106_4 C107_4 1_555 1_555
C107_4 C108_4 1_555 1_555
C108_4 C103_4 1_555 1_555
H99_4 C108_4 1_555 1_555
C109_4 C107_4 1_555 1_555
H100_4 C109_4 1_555 1_555
H101_4 C109_4 1_555 1_555
C110_4 C106_4 1_555 1_555
H103_4 C110_4 1_555 1_555
H104_4 C110_4 1_555 1_555
C111_4 C105_4 1_555 1_555
C112_4 C111_4 1_555 1_555
C113_4 C112_4 1_555 1_555
C114_4 C113_4 1_555 1_555
H106_4 C114_4 1_555 1_555
C115_4 C114_4 1_555 1_555
C116_4 C111_4 1_555 1_555
C117_4 C116_4 1_555 1_555
H107_4 C117_4 1_555 1_555
H108_4 C117_4 1_555 1_555
H109_4 C117_4 1_555 1_555
C118_4 C115_4 1_555 1_555
H110_4 C118_4 1_555 1_555
H111_4 C118_4 1_555 1_555
H112_4 C118_4 1_555 1_555
N7_4 Zn5_4 1_555 1_555
O19_4 Zn3_4 1_555 1_555
O20_4 Zn5_4 1_555 1_555
O21_4 Zn1_6 1_555 1_555
O28_3 C91_4 1_555 1_555
O29_3 C91_4 1_555 1_555
H127_4 C133_4 1_555 1_555
C134_4 C133_4 1_555 1_555
H128_4 C134_4 1_555 1_555
N10_4 Cd4_3 1_555 1_555
C136_4 N10_4 1_555 1_555
H130_4 C136_4 1_555 1_555
C137_4 C136_4 1_555 1_555
H131_4 C137_4 1_555 1_555
C138_4 C137_4 1_555 1_555
H132_4 C138_4 1_555 1_555
C139_4 C138_4 1_555 1_555
H133_4 C139_4 1_555 1_555
C140_4 N10_4 1_555 1_555
Zn3_4 O5_4 1_555 1_555
Zn4_4 O1_4 1_555 1_555
Zn4_4 O19_4 1_555 1_555
Zn4_4 O21_4 1_555 1_555
C29_4 N4_4 1_555 1_555
C31_4 O6_4 1_555 1_555
C34_4 C35_4 1_555 1_555
C41_4 O12_3 1_555 1_555
C41_4 O13_3 1_555 1_555
C45_4 O7_4 1_555 1_555
C46_4 C47_4 1_555 1_555
C53_4 N5_4 1_555 1_555
C54_4 O1_4 1_555 1_555
Zn5_4 O19_4 1_555 1_555
Zn5_4 O21_4 1_555 1_555
C95_4 O20_4 1_555 1_555
C96_4 C97_4 1_555 1_555
C102_4 N7_4 1_555 1_555
C103_4 N7_4 1_555 1_555
C104_4 O21_4 1_555 1_555
C115_4 C116_4 1_555 1_555
C139_4 C140_4 1_555 1_555
O10_4 H135_4 1_555 1_555
Cd4_4 N2_4 1_555 1_555
N2_4 C66_4 1_555 1_555
C66_4 H63_4 1_555 1_555
C67_4 C66_4 1_555 1_555
H64_4 C67_4 1_555 1_555
C68_4 C67_4 1_555 1_555
H65_4 C68_4 1_555 1_555
C69_4 C68_4 1_555 1_555
H66_4 C69_4 1_555 1_555
C70_4 N2_4 1_555 1_555
C69_4 C70_4 1_555 1_555
O14_3 H137_3 1_555 1_555
O14_6 H137_4 1_555 1_555
O14_6 H136_4 1_555 1_555

#END
