
###############################################################################
#
# This file contains modified crystal structure data generated from the
# MOF subset of the Cambridge Structural Database (CSD) v543 
# hosted by the Cambridge Crystallographic Data Centre (CCDC).
#
# This work is licensed under the Creative Commons
# Attribution-NonCommercial-ShareAlike 4.0 International License.
# To view a copy of this license, visit
# http://creativecommons.org/licenses/by-nc-sa/4.0/
# or send a letter to
# Creative Commons, PO Box 1866, Mountain View, CA 94042, USA.
#
# CIF created using the CSD Python API on 29 September 2022
# The structure has been converted into the P1 space group
# The structure has a 3D framework
# The original CSD entry FORWAL is in the cubic crystal system
# The original CSD entry FORWAL is in a Sohncke space group
# The framework has been calculated to contain at least 10.0% void space
# The void calculation uses a probe of radius 1.32A, grid spacing 0.4
# The framework is charged, counterions have been retained in the structure
# H atom positions have been added when not included in the experimental data
# Generated hydrogen atom positions removed from atoms on special positions
#
###############################################################################

data_FORWAL
_chemical_formula_moiety         '(C84 H204 Fe4 Na4 O104 28-)n'
_symmetry_cell_setting           triclinic
_symmetry_space_group_name_H-M   'P 1'
_symmetry_Int_Tables_number      1
_space_group_name_Hall           'P 1'
loop_
_symmetry_equiv_pos_site_id
_symmetry_equiv_pos_as_xyz
1 x,y,z
_cell_length_a                   15.6019(14)
_cell_length_b                   15.6019(14)
_cell_length_c                   15.6019(14)
_cell_angle_alpha                90
_cell_angle_beta                 90
_cell_angle_gamma                90
_cell_volume                     3797.8
loop_
_atom_site_label
_atom_site_type_symbol
_atom_site_fract_x
_atom_site_fract_y
_atom_site_fract_z
Fe1 Fe 0.39758(4) 0.60242(4) 0.10242(4)
C1 C 0.2687(3) 0.5037(3) 0.0115(3)
C2 C 0.2703(4) 0.4073(4) 0.0192(3)
H1 H 0.2121 0.3865 0.0264
H2 H 0.3026 0.3914 0.0698
C7 C 0.2235(4) 0.5406(4) 0.0922(4)
O1 O 0.3527(2) 0.5376(2) 0.0078(2)
O2 O 0.2716(3) 0.5840(2) 0.1419(2)
O3 O 0.1465(4) 0.5268(3) 0.1040(4)
Na3 Na 0.80217(17) 0.30217(17) 0.19783(17)
C8 C 0.4885(3) 0.7313(3) 0.0037(3)
C9 C 0.4963(3) 0.5115(3) 0.2313(3)
C11 C 0.5927(4) 0.5192(3) 0.2297(4)
H13 H 0.6135 0.5264 0.2879
H15 H 0.6086 0.5698 0.1974
C13 C 0.6360(4) 0.4405(4) 0.1896(5)
H17 H 0.6196 0.4364 0.1291
C15 C 0.6071(4) 0.3601(3) 0.2361(4)
H19 H 0.6278 0.3626 0.2953
C17 C 0.5093(4) 0.3511(4) 0.2374(4)
H20 H 0.7000 0.7707 0.0058
H21 H 0.4942 0.3000 0.2707
C18 C 0.5699(4) 0.7806(4) 0.0307(4)
C19 C 0.4693(4) 0.4301(4) 0.2806(4)
H22 H 0.5662 0.8396 0.0115
H23 H 0.4885 0.4338 0.3396
H24 H 0.5750 0.7806 0.0927
H25 H 0.4073 0.4250 0.2806
C20 C 0.4078(4) 0.7765(4) 0.0406(4)
C21 C 0.4594(4) 0.5922(4) 0.2765(4)
O7 O 0.4922(2) 0.6473(2) 0.0376(2)
O8 O 0.4624(2) 0.5078(2) 0.1473(2)
H26 H 0.5423 0.6315 0.0400
H27 H 0.4600 0.4577 0.1315
O9 O 0.3581(2) 0.7284(3) 0.0840(2)
O10 O 0.4160(2) 0.6419(2) 0.2284(3)
O11 O 0.3960(4) 0.8535(4) 0.0268(3)
O12 O 0.4732(3) 0.6040(4) 0.3535(4)
O14 O 0.7277(3) 0.4439(4) 0.1960(5)
H29 H 0.7447 0.4907 0.1791
O18 O 0.6466(3) 0.2881(3) 0.1941(3)
H33 H 0.6291 0.2435 0.2156
O21 O 0.6590(3) 0.6512(3) 0.0231(3)
O22 O 0.4769(3) 0.3410(3) 0.1512(3)
H36 H 0.6118 0.6311 0.0343
H37 H 0.4657 0.3882 0.1311
Na1 Na 0.30217(17) 0.19783(17) 0.80217(17)
C3 C 0.3104(5) 0.3640(4) 0.9405(4)
H3 H 0.3709 0.3804 0.9364
C4 C 0.2639(4) 0.3929(4) 0.8601(3)
H4 H 0.2047 0.3722 0.8626
C5 C 0.2626(4) 0.4907(4) 0.8511(4)
H5 H 0.2293 0.5058 0.8000
C6 C 0.2194(4) 0.5307(4) 0.9301(4)
H6 H 0.1604 0.5115 0.9338
H7 H 0.2194 0.5927 0.9250
H8 H 0.3685 0.5400 0.9577
O4 O 0.3040(5) 0.2723(3) 0.9439(4)
H9 H 0.3209 0.2553 0.9907
O5 O 0.3059(3) 0.3534(3) 0.7881(3)
H10 H 0.2844 0.3709 0.7435
O6 O 0.3488(3) 0.5231(3) 0.8410(3)
H11 H 0.3689 0.5343 0.8882
Na2 Na 0.69783(17) 0.69783(17) 0.69783(17)
C10 C 0.4808(3) 0.7297(4) 0.9073(4)
H12 H 0.4736 0.7879 0.8865
H14 H 0.4302 0.6974 0.8914
C12 C 0.5595(4) 0.6896(5) 0.8640(4)
H16 H 0.5636 0.6291 0.8804
C14 C 0.6399(3) 0.7361(4) 0.8929(4)
H18 H 0.6374 0.7953 0.8722
C16 C 0.6489(4) 0.7374(4) 0.9907(4)
O13 O 0.5561(4) 0.6960(5) 0.7723(3)
O15 O 0.4439(4) 0.1960(5) 0.7277(3)
O16 O 0.2277(3) 0.0561(4) 0.8040(5)
H28 H 0.5093 0.6791 0.7553
H30 H 0.4907 0.1791 0.7447
H31 H 0.2447 0.0093 0.8209
O17 O 0.7119(3) 0.6941(3) 0.8534(3)
O19 O 0.2881(3) 0.1941(3) 0.6466(3)
O20 O 0.1466(3) 0.2119(3) 0.8059(3)
H32 H 0.7565 0.7156 0.8709
H34 H 0.2435 0.2156 0.6291
H35 H 0.1291 0.2565 0.7844
H38 H 0.454062 0.256857 0.712079
H39 H 0.212079 0.0459378 0.743143
H44 H 0.28999 0.133371 0.627645
H45 H 0.127645 0.21001 0.866629
Fe1_2 Fe 0.10242(4) 0.39758(4) 0.60242(4)
Na1_2 Na 0.19783(17) 0.80217(17) 0.30217(17)
C1_2 C 0.2313(3) 0.4963(3) 0.5115(3)
C2_2 C 0.2297(4) 0.5927(4) 0.5192(3)
H1_2 H 0.2879 0.6135 0.5264
H2_2 H 0.1974 0.6086 0.5698
C3_2 C 0.1896(5) 0.6360(4) 0.4405(4)
H3_2 H 0.1291 0.6196 0.4364
C4_2 C 0.2361(4) 0.6071(4) 0.3601(3)
H4_2 H 0.2953 0.6278 0.3626
C5_2 C 0.2374(4) 0.5093(4) 0.3511(4)
H5_2 H 0.2707 0.4942 0.3000
C6_2 C 0.2806(4) 0.4693(4) 0.4301(4)
H6_2 H 0.3396 0.4885 0.4338
H7_2 H 0.2806 0.4073 0.4250
C7_2 C 0.2765(4) 0.4594(4) 0.5922(4)
O1_2 O 0.1473(2) 0.4624(2) 0.5078(2)
H8_2 H 0.1315 0.4600 0.4577
O2_2 O 0.2284(3) 0.4160(2) 0.6419(2)
O3_2 O 0.3535(4) 0.4732(3) 0.6040(4)
O4_2 O 0.1960(5) 0.7277(3) 0.4439(4)
H9_2 H 0.1791 0.7447 0.4907
O5_2 O 0.1941(3) 0.6466(3) 0.2881(3)
H10_2 H 0.2156 0.6291 0.2435
O6_2 O 0.1512(3) 0.4769(3) 0.3410(3)
H11_2 H 0.1311 0.4657 0.3882
C8_2 C 0.0115(3) 0.2687(3) 0.5037(3)
C9_2 C 0.0037(3) 0.4885(3) 0.7313(3)
C10_2 C 0.0192(3) 0.2703(4) 0.4073(4)
H12_2 H 0.0264 0.2121 0.3865
H14_2 H 0.0698 0.3026 0.3914
H21_2 H 0.0058 0.7000 0.7707
C19_2 C 0.0307(4) 0.5699(4) 0.7806(4)
H23_2 H 0.0115 0.5662 0.8396
H25_2 H 0.0927 0.5750 0.7806
C20_2 C 0.0922(4) 0.2235(4) 0.5406(4)
C21_2 C 0.0406(4) 0.4078(4) 0.7765(4)
O7_2 O 0.0078(2) 0.3527(2) 0.5376(2)
O8_2 O 0.0376(2) 0.4922(2) 0.6473(2)
H27_2 H 0.0400 0.5423 0.6315
O9_2 O 0.1419(2) 0.2716(3) 0.5840(2)
O10_2 O 0.0840(2) 0.3581(2) 0.7284(3)
O11_2 O 0.1040(4) 0.1465(4) 0.5268(3)
O12_2 O 0.0268(3) 0.3960(4) 0.8535(4)
O15_2 O 0.0561(4) 0.8040(5) 0.2277(3)
O16_2 O 0.2723(3) 0.9439(4) 0.3040(5)
H30_2 H 0.0093 0.8209 0.2447
H31_2 H 0.2553 0.9907 0.3209
O19_2 O 0.2119(3) 0.8059(3) 0.1466(3)
O20_2 O 0.3534(3) 0.7881(3) 0.3059(3)
H34_2 H 0.2565 0.7844 0.1291
H35_2 H 0.3709 0.7435 0.2844
O22_2 O 0.0231(3) 0.6590(3) 0.6512(3)
H37_2 H 0.0343 0.6118 0.6311
H38_2 H 0.0459378 0.743143 0.212079
H39_2 H 0.287921 0.954062 0.243143
H44_2 H 0.21001 0.866629 0.127645
H45_2 H 0.372355 0.78999 0.366629
C11_2 C 0.9073(4) 0.4808(3) 0.7297(4)
H13_2 H 0.8865 0.4736 0.7879
H15_2 H 0.8914 0.4302 0.6974
C12_2 C 0.9405(4) 0.3104(5) 0.3640(4)
C13_2 C 0.8640(4) 0.5595(4) 0.6896(5)
H16_2 H 0.9364 0.3709 0.3804
H17_2 H 0.8804 0.5636 0.6291
C14_2 C 0.8601(3) 0.2639(4) 0.3929(4)
C15_2 C 0.8929(4) 0.6399(3) 0.7361(4)
H18_2 H 0.8626 0.2047 0.3722
H19_2 H 0.8722 0.6374 0.7953
C16_2 C 0.8511(4) 0.2626(4) 0.4907(4)
C17_2 C 0.9907(4) 0.6489(4) 0.7374(4)
H20_2 H 0.8000 0.2293 0.5058
C18_2 C 0.9301(4) 0.2194(4) 0.5307(4)
H22_2 H 0.9338 0.1604 0.5115
H24_2 H 0.9250 0.2194 0.5927
H26_2 H 0.9577 0.3685 0.5400
O13_2 O 0.9439(4) 0.3040(5) 0.2723(3)
O14_2 O 0.7723(3) 0.5561(4) 0.6960(5)
H28_2 H 0.9907 0.3209 0.2553
H29_2 H 0.7553 0.5093 0.6791
O17_2 O 0.7881(3) 0.3059(3) 0.3534(3)
O18_2 O 0.8534(3) 0.7119(3) 0.6941(3)
H32_2 H 0.7435 0.2844 0.3709
H33_2 H 0.8709 0.7565 0.7156
O21_2 O 0.8410(3) 0.3488(3) 0.5231(3)
H36_2 H 0.8882 0.3689 0.5343
Fe1_3 Fe 0.60242(4) 0.10242(4) 0.39758(4)
C1_3 C 0.7313(3) 0.0037(3) 0.4885(3)
H5_3 H 0.7707 0.0058 0.7000
C6_3 C 0.7806(4) 0.0307(4) 0.5699(4)
H6_3 H 0.8396 0.0115 0.5662
H7_3 H 0.7806 0.0927 0.5750
C7_3 C 0.7765(4) 0.0406(4) 0.4078(4)
O1_3 O 0.6473(2) 0.0376(2) 0.4922(2)
H8_3 H 0.6315 0.0400 0.5423
O2_3 O 0.7284(3) 0.0840(2) 0.3581(2)
O3_3 O 0.8535(4) 0.0268(3) 0.3960(4)
O6_3 O 0.6512(3) 0.0231(3) 0.6590(3)
H11_3 H 0.6311 0.0343 0.6118
C8_3 C 0.5115(3) 0.2313(3) 0.4963(3)
C9_3 C 0.5037(3) 0.0115(3) 0.2687(3)
C10_3 C 0.5192(3) 0.2297(4) 0.5927(4)
C11_3 C 0.4073(4) 0.0192(3) 0.2703(4)
H12_3 H 0.5264 0.2879 0.6135
H13_3 H 0.3865 0.0264 0.2121
H14_3 H 0.5698 0.1974 0.6086
H15_3 H 0.3914 0.0698 0.3026
C12_3 C 0.4405(4) 0.1896(5) 0.6360(4)
H16_3 H 0.4364 0.1291 0.6196
C14_3 C 0.3601(3) 0.2361(4) 0.6071(4)
H18_3 H 0.3626 0.2953 0.6278
C16_3 C 0.3511(4) 0.2374(4) 0.5093(4)
H20_3 H 0.3000 0.2707 0.4942
C18_3 C 0.4301(4) 0.2806(4) 0.4693(4)
H22_3 H 0.4338 0.3396 0.4885
H24_3 H 0.4250 0.2806 0.4073
C20_3 C 0.5922(4) 0.2765(4) 0.4594(4)
C21_3 C 0.5406(4) 0.0922(4) 0.2235(4)
O7_3 O 0.5078(2) 0.1473(2) 0.4624(2)
O8_3 O 0.5376(2) 0.0078(2) 0.3527(2)
H26_3 H 0.4577 0.1315 0.4600
O9_3 O 0.6419(2) 0.2284(3) 0.4160(2)
O10_3 O 0.5840(2) 0.1419(2) 0.2716(3)
O11_3 O 0.6040(4) 0.3535(4) 0.4732(3)
O12_3 O 0.5268(3) 0.1040(4) 0.1465(4)
O21_3 O 0.3410(3) 0.1512(3) 0.4769(3)
H36_3 H 0.3882 0.1311 0.4657
C2_3 C 0.7297(4) 0.9073(4) 0.4808(3)
H1_3 H 0.7879 0.8865 0.4736
H2_3 H 0.6974 0.8914 0.4302
C3_3 C 0.6896(5) 0.8640(4) 0.5595(4)
H3_3 H 0.6291 0.8804 0.5636
C4_3 C 0.7361(4) 0.8929(4) 0.6399(3)
H4_3 H 0.7953 0.8722 0.6374
C5_3 C 0.7374(4) 0.9907(4) 0.6489(4)
O4_3 O 0.6960(5) 0.7723(3) 0.5561(4)
H9_3 H 0.6791 0.7553 0.5093
O5_3 O 0.6941(3) 0.8534(3) 0.7119(3)
H10_3 H 0.7156 0.8709 0.7565
C13_3 C 0.3640(4) 0.9405(4) 0.3104(5)
H17_3 H 0.3804 0.9364 0.3709
C15_3 C 0.3929(4) 0.8601(3) 0.2639(4)
H19_3 H 0.3722 0.8626 0.2047
C17_3 C 0.4907(4) 0.8511(4) 0.2626(4)
H21_3 H 0.5058 0.8000 0.2293
C19_3 C 0.5307(4) 0.9301(4) 0.2194(4)
H23_3 H 0.5115 0.9338 0.1604
H25_3 H 0.5927 0.9250 0.2194
H27_3 H 0.5400 0.9577 0.3685
O22_3 O 0.5231(3) 0.8410(3) 0.3488(3)
H37_3 H 0.5343 0.8882 0.3689
H38_3 H 0.545938 0.756857 0.787921
H39_3 H 0.787921 0.545938 0.756857
H44_3 H 0.71001 0.633371 0.872355
H45_3 H 0.872355 0.71001 0.633371
C13_4 C 0.1360(4) 0.0595(4) 0.8104(5)
H17_4 H 0.1196 0.0636 0.8709
C15_4 C 0.1071(4) 0.1399(3) 0.7639(4)
H19_4 H 0.1278 0.1374 0.7047
C17_4 C 0.0093(4) 0.1489(4) 0.7626(4)
C12_4 C 0.0595(4) 0.8104(5) 0.1360(4)
H16_4 H 0.0636 0.8709 0.1196
C14_4 C 0.1399(3) 0.7639(4) 0.1071(4)
H18_4 H 0.1374 0.7047 0.1278
C16_4 C 0.1489(4) 0.7626(4) 0.0093(4)
C3_4 C 0.8104(5) 0.1360(4) 0.0595(4)
H3_4 H 0.8709 0.1196 0.0636
C4_4 C 0.7639(4) 0.1071(4) 0.1399(3)
H4_4 H 0.7047 0.1278 0.1374
C5_4 C 0.7626(4) 0.0093(4) 0.1489(4)
O4_4 O 0.8040(5) 0.2277(3) 0.0561(4)
H9_4 H 0.8209 0.2447 0.0093
O5_4 O 0.8059(3) 0.1466(3) 0.2119(3)
H10_4 H 0.7844 0.1291 0.2565
H38_4 H 0.954062 0.243143 0.287921
H39_4 H 0.712079 0.454062 0.256857
H44_4 H 0.78999 0.366629 0.372355
H45_4 H 0.627645 0.28999 0.133371
H39_5 H 0.743143 0.212079 0.0459378
H45_5 H 0.866629 0.127645 0.21001
H39_6 H 0.243143 0.287921 0.954062
H45_6 H 0.366629 0.372355 0.78999
H39_7 H 0.756857 0.787921 0.545938
H45_7 H 0.633371 0.872355 0.71001
H39_8 H 0.256857 0.712079 0.454062
H45_8 H 0.133371 0.627645 0.28999
C11_4 C 0.0927(4) 0.9808(3) 0.7703(4)
H13_4 H 0.1135 0.9736 0.7121
H15_4 H 0.1086 0.9302 0.8026
H20_4 H 0.2000 0.7293 0.9942
C18_4 C 0.0699(4) 0.7194(4) 0.9693(4)
H22_4 H 0.0662 0.6604 0.9885
H24_4 H 0.0750 0.7194 0.9073
H26_4 H 0.0423 0.8685 0.9600
O21_4 O 0.1590(3) 0.8488(3) 0.9769(3)
H36_4 H 0.1118 0.8689 0.9657
C2_4 C 0.7703(4) 0.0927(4) 0.9808(3)
H1_4 H 0.7121 0.1135 0.9736
H2_4 H 0.8026 0.1086 0.9302
H21_4 H 0.9942 0.2000 0.7293
C19_4 C 0.9693(4) 0.0699(4) 0.7194(4)
H23_4 H 0.9885 0.0662 0.6604
H25_4 H 0.9073 0.0750 0.7194
H27_4 H 0.9600 0.0423 0.8685
O22_4 O 0.9769(3) 0.1590(3) 0.8488(3)
H37_4 H 0.9657 0.1118 0.8689
H5_4 H 0.7293 0.9942 0.2000
C6_4 C 0.7194(4) 0.9693(4) 0.0699(4)
H6_4 H 0.6604 0.9885 0.0662
H7_4 H 0.7194 0.9073 0.0750
H8_4 H 0.8685 0.9600 0.0423
O6_4 O 0.8488(3) 0.9769(3) 0.1590(3)
H11_4 H 0.8689 0.9657 0.1118
C10_4 C 0.9808(3) 0.7703(4) 0.0927(4)
H12_4 H 0.9736 0.7121 0.1135
H14_4 H 0.9302 0.8026 0.1086
Fe1_4 Fe 0.89758(4) 0.89758(4) 0.89758(4)
C1_4 C 0.7687(3) 0.9963(3) 0.9885(3)
C7_4 C 0.7235(4) 0.9594(4) 0.9078(4)
O1_4 O 0.8527(2) 0.9624(2) 0.9922(2)
O2_4 O 0.7716(3) 0.9160(2) 0.8581(2)
O3_4 O 0.6465(4) 0.9732(3) 0.8960(4)
C8_4 C 0.9885(3) 0.7687(3) 0.9963(3)
C9_4 C 0.9963(3) 0.9885(3) 0.7687(3)
C20_4 C 0.9078(4) 0.7235(4) 0.9594(4)
C21_4 C 0.9594(4) 0.9078(4) 0.7235(4)
O7_4 O 0.9922(2) 0.8527(2) 0.9624(2)
O8_4 O 0.9624(2) 0.9922(2) 0.8527(2)
O9_4 O 0.8581(2) 0.7716(3) 0.9160(2)
O10_4 O 0.9160(2) 0.8581(2) 0.7716(3)
O11_4 O 0.8960(4) 0.6465(4) 0.9732(3)
O12_4 O 0.9732(3) 0.8960(4) 0.6465(4)
O23 O 0.3636(7) 0.2123(6) 0.1076(9)
H42 H 0.427246 0.2123 0.1076
O23_2 O 0.1364(7) 0.7877(6) 0.6076(9)
H42_2 H 0.0727539 0.7877 0.6076
O23_3 O 0.6364(7) 0.7123(6) 0.3924(9)
H42_3 H 0.572754 0.7123 0.3924
O23_4 O 0.8636(7) 0.2877(6) 0.8924(9)
H42_4 H 0.927246 0.2877 0.8924
O23_5 O 0.1076(9) 0.3636(7) 0.2123(6)
H42_5 H 0.1076 0.427246 0.2123
O23_6 O 0.6076(9) 0.1364(7) 0.7877(6)
H42_6 H 0.6076 0.0727539 0.7877
O23_7 O 0.3924(9) 0.6364(7) 0.7123(6)
H42_7 H 0.3924 0.572754 0.7123
O23_8 O 0.8924(9) 0.8636(7) 0.2877(6)
H42_8 H 0.8924 0.927246 0.2877
O23_9 O 0.2123(6) 0.1076(9) 0.3636(7)
H42_9 H 0.2123 0.1076 0.427246
O23_10 O 0.7877(6) 0.6076(9) 0.1364(7)
H42_10 H 0.7877 0.6076 0.0727539
O23_11 O 0.7123(6) 0.3924(9) 0.6364(7)
H42_11 H 0.7123 0.3924 0.572754
O23_12 O 0.2877(6) 0.8924(9) 0.8636(7)
H42_12 H 0.2877 0.8924 0.927246
H40 H 0.0340461 0.5296 0.4704
O24 O 0.9704(5) 0.5296(5) 0.4704(5)
H40_2 H 0.9704 0.465954 0.4704
H40_3 H 0.9704 0.5296 0.534046
O24_2 O 0.5296(5) 0.4704(5) 0.9704(5)
H40_4 H 0.465954 0.4704 0.9704
H40_5 H 0.5296 0.534046 0.9704
O24_3 O 0.0296(5) 0.0296(5) 0.0296(5)
H40_6 H 0.965954 0.0296 0.0296
O24_4 O 0.4704(5) 0.9704(5) 0.5296(5)
H40_7 H 0.534046 0.9704 0.5296
H40_8 H 0.4704 0.9704 0.465954
H40_9 H 0.4704 0.0340461 0.5296
H40_10 H 0.0296 0.965954 0.0296
H40_11 H 0.5296 0.4704 0.0340461
H40_12 H 0.0296 0.0296 0.965954
O25 O 0.8731(16) 0.7019(14) 0.5112(16)
H41 H 0.936746 0.7019 0.5112
O25_2 O 0.6269(16) 0.2981(14) 0.0112(16)
H41_2 H 0.563254 0.2981 0.0112
O25_3 O 0.1269(16) 0.2019(14) 0.9888(16)
H41_3 H 0.0632539 0.2019 0.9888
O25_4 O 0.3731(16) 0.7981(14) 0.4888(16)
H41_4 H 0.436746 0.7981 0.4888
O25_5 O 0.5112(16) 0.8731(16) 0.7019(14)
H41_5 H 0.5112 0.936746 0.7019
O25_6 O 0.0112(16) 0.6269(16) 0.2981(14)
H41_6 H 0.0112 0.563254 0.2981
O25_7 O 0.9888(16) 0.1269(16) 0.2019(14)
H41_7 H 0.9888 0.0632539 0.2019
O25_8 O 0.4888(16) 0.3731(16) 0.7981(14)
H41_8 H 0.4888 0.436746 0.7981
O25_9 O 0.7019(14) 0.5112(16) 0.8731(16)
H41_9 H 0.7019 0.5112 0.936746
O25_10 O 0.2981(14) 0.0112(16) 0.6269(16)
H41_10 H 0.2981 0.0112 0.563254
O25_11 O 0.2019(14) 0.9888(16) 0.1269(16)
H41_11 H 0.2019 0.9888 0.0632539
O25_12 O 0.7981(14) 0.4888(16) 0.3731(16)
H41_12 H 0.7981 0.4888 0.436746
O26 O 0.8894(4) 0.6106(4) 0.3894(4)
O26_2 O 0.6106(4) 0.3894(4) 0.8894(4)
O26_3 O 0.1106(4) 0.1106(4) 0.1106(4)
O26_4 O 0.3894(4) 0.8894(4) 0.6106(4)
loop_
_geom_bond_atom_site_label_1
_geom_bond_atom_site_label_2
_geom_bond_site_symmetry_1
_geom_bond_site_symmetry_2
Fe1 O1 1_555 1_555
C1 C2 1_555 1_555
C2 H1 1_555 1_555
H2 C2 1_555 1_555
C7 C1 1_555 1_555
O1 C1 1_555 1_555
O2 Fe1 1_555 1_555
O3 C7 1_555 1_555
Na3 O14 1_555 1_555
C9 C11 1_555 1_555
C11 H13 1_555 1_555
H15 C11 1_555 1_555
C13 C11 1_555 1_555
H17 C13 1_555 1_555
C15 C13 1_555 1_555
H19 C15 1_555 1_555
C17 C15 1_555 1_555
H21 C17 1_555 1_555
C18 C8 1_555 1_555
C19 C9 1_555 1_555
H22 C18 1_555 1_555
H23 C19 1_555 1_555
H24 C18 1_555 1_555
H25 C19 1_555 1_555
C20 C8 1_555 1_555
C21 C9 1_555 1_555
O7 Fe1 1_555 1_555
O8 Fe1 1_555 1_555
H26 O7 1_555 1_555
H27 O8 1_555 1_555
O9 Fe1 1_555 1_555
O10 Fe1 1_555 1_555
O11 C20 1_555 1_555
O12 C21 1_555 1_555
O14 C13 1_555 1_555
H29 O14 1_555 1_555
O18 Na3 1_555 1_555
H33 O18 1_555 1_555
O22 C17 1_555 1_555
H36 O21 1_555 1_555
H37 O22 1_555 1_555
C7 O2 1_555 1_555
C8 O7 1_555 1_555
C9 O8 1_555 1_555
C15 O18 1_555 1_555
C17 C19 1_555 1_555
C20 O9 1_555 1_555
C21 O10 1_555 1_555
Na1 O4 1_555 1_555
H3 C3 1_555 1_555
C4 C3 1_555 1_555
H4 C4 1_555 1_555
C5 C4 1_555 1_555
H5 C5 1_555 1_555
H6 C6 1_555 1_555
H7 C6 1_555 1_555
O4 C3 1_555 1_555
H9 O4 1_555 1_555
O5 Na1 1_555 1_555
H10 O5 1_555 1_555
O6 C5 1_555 1_555
H11 O6 1_555 1_555
Na2 O13 1_555 1_555
C10 H12 1_555 1_555
H14 C10 1_555 1_555
C12 C10 1_555 1_555
H16 C12 1_555 1_555
C14 C12 1_555 1_555
H18 C14 1_555 1_555
C16 C14 1_555 1_555
O13 C12 1_555 1_555
O15 Na1 1_555 1_555
O16 Na1 1_555 1_555
H28 O13 1_555 1_555
H30 O15 1_555 1_555
H31 O16 1_555 1_555
O17 Na2 1_555 1_555
O19 Na1 1_555 1_555
O20 Na1 1_555 1_555
H32 O17 1_555 1_555
H34 O19 1_555 1_555
H35 O20 1_555 1_555
C4 O5 1_555 1_555
C5 C6 1_555 1_555
C14 O17 1_555 1_555
O15 H38 1_555 1_555
O16 H39 1_555 1_555
O19 H44 1_555 1_555
O20 H45 1_555 1_555
Fe1_2 O1_2 1_555 1_555
Na1_2 O4_2 1_555 1_555
C1_2 C2_2 1_555 1_555
C2_2 H1_2 1_555 1_555
H2_2 C2_2 1_555 1_555
C3_2 C2_2 1_555 1_555
H3_2 C3_2 1_555 1_555
C4_2 C3_2 1_555 1_555
H4_2 C4_2 1_555 1_555
C5_2 C4_2 1_555 1_555
H5_2 C5_2 1_555 1_555
C6_2 C1_2 1_555 1_555
H6_2 C6_2 1_555 1_555
H7_2 C6_2 1_555 1_555
C7_2 C1_2 1_555 1_555
O1_2 C1_2 1_555 1_555
H8_2 O1_2 1_555 1_555
O2_2 Fe1_2 1_555 1_555
O3_2 C7_2 1_555 1_555
O4_2 C3_2 1_555 1_555
H9_2 O4_2 1_555 1_555
O5_2 Na1_2 1_555 1_555
H10_2 O5_2 1_555 1_555
O6_2 C5_2 1_555 1_555
H11_2 O6_2 1_555 1_555
C8_2 C10_2 1_555 1_555
C10_2 H12_2 1_555 1_555
H14_2 C10_2 1_555 1_555
C19_2 C9_2 1_555 1_555
H23_2 C19_2 1_555 1_555
H25_2 C19_2 1_555 1_555
C20_2 C8_2 1_555 1_555
C21_2 C9_2 1_555 1_555
O7_2 Fe1_2 1_555 1_555
O8_2 Fe1_2 1_555 1_555
H27_2 O8_2 1_555 1_555
O9_2 Fe1_2 1_555 1_555
O10_2 Fe1_2 1_555 1_555
O11_2 C20_2 1_555 1_555
O12_2 C21_2 1_555 1_555
O15_2 Na1_2 1_555 1_555
O16_2 Na1_2 1_555 1_555
H30_2 O15_2 1_555 1_555
H31_2 O16_2 1_555 1_555
O19_2 Na1_2 1_555 1_555
O20_2 Na1_2 1_555 1_555
H34_2 O19_2 1_555 1_555
H35_2 O20_2 1_555 1_555
H37_2 O22_2 1_555 1_555
C4_2 O5_2 1_555 1_555
C5_2 C6_2 1_555 1_555
C7_2 O2_2 1_555 1_555
C8_2 O7_2 1_555 1_555
C9_2 O8_2 1_555 1_555
C20_2 O9_2 1_555 1_555
C21_2 O10_2 1_555 1_555
O15_2 H38_2 1_555 1_555
O16_2 H39_2 1_555 1_555
O19_2 H44_2 1_555 1_555
O20_2 H45_2 1_555 1_555
Na3 O13_2 1_555 1_555
Na2 O14_2 1_555 1_555
C11_2 H13_2 1_555 1_555
H15_2 C11_2 1_555 1_555
C13_2 C11_2 1_555 1_555
H16_2 C12_2 1_555 1_555
H17_2 C13_2 1_555 1_555
C14_2 C12_2 1_555 1_555
C15_2 C13_2 1_555 1_555
H18_2 C14_2 1_555 1_555
H19_2 C15_2 1_555 1_555
C16_2 C14_2 1_555 1_555
C17_2 C15_2 1_555 1_555
H20_2 C16_2 1_555 1_555
H22_2 C18_2 1_555 1_555
H24_2 C18_2 1_555 1_555
O13_2 C12_2 1_555 1_555
O14_2 C13_2 1_555 1_555
H28_2 O13_2 1_555 1_555
H29_2 O14_2 1_555 1_555
O17_2 Na3 1_555 1_555
O18_2 Na2 1_555 1_555
H32_2 O17_2 1_555 1_555
H33_2 O18_2 1_555 1_555
O21_2 C16_2 1_555 1_555
H36_2 O21_2 1_555 1_555
C14_2 O17_2 1_555 1_555
C15_2 O18_2 1_555 1_555
C16_2 C18_2 1_555 1_555
Fe1_3 O1_3 1_555 1_555
C6_3 C1_3 1_555 1_555
H6_3 C6_3 1_555 1_555
H7_3 C6_3 1_555 1_555
C7_3 C1_3 1_555 1_555
O1_3 C1_3 1_555 1_555
H8_3 O1_3 1_555 1_555
O2_3 Fe1_3 1_555 1_555
O3_3 C7_3 1_555 1_555
H11_3 O6_3 1_555 1_555
C8_3 C10_3 1_555 1_555
C9_3 C11_3 1_555 1_555
C10_3 H12_3 1_555 1_555
C11_3 H13_3 1_555 1_555
H14_3 C10_3 1_555 1_555
H15_3 C11_3 1_555 1_555
C12_3 C10_3 1_555 1_555
H16_3 C12_3 1_555 1_555
C14_3 C12_3 1_555 1_555
H18_3 C14_3 1_555 1_555
C16_3 C14_3 1_555 1_555
H20_3 C16_3 1_555 1_555
C18_3 C8_3 1_555 1_555
H22_3 C18_3 1_555 1_555
H24_3 C18_3 1_555 1_555
C20_3 C8_3 1_555 1_555
C21_3 C9_3 1_555 1_555
O7_3 Fe1_3 1_555 1_555
O8_3 Fe1_3 1_555 1_555
H26_3 O7_3 1_555 1_555
O9_3 Fe1_3 1_555 1_555
O10_3 Fe1_3 1_555 1_555
O11_3 C20_3 1_555 1_555
O12_3 C21_3 1_555 1_555
O15 C12_3 1_555 1_555
O21_3 C16_3 1_555 1_555
H36_3 O21_3 1_555 1_555
C7_3 O2_3 1_555 1_555
C8_3 O7_3 1_555 1_555
C9_3 O8_3 1_555 1_555
C14_3 O19 1_555 1_555
C16_3 C18_3 1_555 1_555
C20_3 O9_3 1_555 1_555
C21_3 O10_3 1_555 1_555
Na2 O4_3 1_555 1_555
C2_3 H1_3 1_555 1_555
H2_3 C2_3 1_555 1_555
C3_3 C2_3 1_555 1_555
H3_3 C3_3 1_555 1_555
C4_3 C3_3 1_555 1_555
H4_3 C4_3 1_555 1_555
C5_3 C4_3 1_555 1_555
O4_3 C3_3 1_555 1_555
H9_3 O4_3 1_555 1_555
O5_3 Na2 1_555 1_555
H10_3 O5_3 1_555 1_555
H17_3 C13_3 1_555 1_555
C15_3 C13_3 1_555 1_555
H19_3 C15_3 1_555 1_555
C17_3 C15_3 1_555 1_555
H21_3 C17_3 1_555 1_555
H23_3 C19_3 1_555 1_555
H25_3 C19_3 1_555 1_555
O16_2 C13_3 1_555 1_555
O22_3 C17_3 1_555 1_555
H37_3 O22_3 1_555 1_555
C4_3 O5_3 1_555 1_555
C15_3 O20_2 1_555 1_555
C17_3 C19_3 1_555 1_555
O13 H38_3 1_555 1_555
O14_2 H39_3 1_555 1_555
O17 H44_3 1_555 1_555
O18_2 H45_3 1_555 1_555
H17_4 C13_4 1_555 1_555
C15_4 C13_4 1_555 1_555
H19_4 C15_4 1_555 1_555
C17_4 C15_4 1_555 1_555
O16 C13_4 1_555 1_555
C15_4 O20 1_555 1_555
H16_4 C12_4 1_555 1_555
C14_4 C12_4 1_555 1_555
H18_4 C14_4 1_555 1_555
C16_4 C14_4 1_555 1_555
O15_2 C12_4 1_555 1_555
C14_4 O19_2 1_555 1_555
Na3 O4_4 1_555 1_555
H3_4 C3_4 1_555 1_555
C4_4 C3_4 1_555 1_555
H4_4 C4_4 1_555 1_555
C5_4 C4_4 1_555 1_555
O4_4 C3_4 1_555 1_555
H9_4 O4_4 1_555 1_555
O5_4 Na3 1_555 1_555
H10_4 O5_4 1_555 1_555
C4_4 O5_4 1_555 1_555
O13_2 H38_4 1_555 1_555
O14 H39_4 1_555 1_555
O17_2 H44_4 1_555 1_555
O18 H45_4 1_555 1_555
O4_4 H39_5 1_555 1_555
O5_4 H45_5 1_555 1_555
O4 H39_6 1_555 1_555
O5 H45_6 1_555 1_555
O4_3 H39_7 1_555 1_555
O5_3 H45_7 1_555 1_555
O4_2 H39_8 1_555 1_555
O5_2 H45_8 1_555 1_555
C11_4 H13_4 1_555 1_555
H15_4 C11_4 1_555 1_555
H22_4 C18_4 1_555 1_555
H24_4 C18_4 1_555 1_555
H36_4 O21_4 1_555 1_555
C2_4 H1_4 1_555 1_555
H2_4 C2_4 1_555 1_555
H23_4 C19_4 1_555 1_555
H25_4 C19_4 1_555 1_555
H37_4 O22_4 1_555 1_555
H6_4 C6_4 1_555 1_555
H7_4 C6_4 1_555 1_555
H11_4 O6_4 1_555 1_555
C10_4 H12_4 1_555 1_555
H14_4 C10_4 1_555 1_555
Fe1_4 O1_4 1_555 1_555
C7_4 C1_4 1_555 1_555
O1_4 C1_4 1_555 1_555
O2_4 Fe1_4 1_555 1_555
O3_4 C7_4 1_555 1_555
C20_4 C8_4 1_555 1_555
C21_4 C9_4 1_555 1_555
O7_4 Fe1_4 1_555 1_555
O8_4 Fe1_4 1_555 1_555
O9_4 Fe1_4 1_555 1_555
O10_4 Fe1_4 1_555 1_555
O11_4 C20_4 1_555 1_555
O12_4 C21_4 1_555 1_555
C7_4 O2_4 1_555 1_555
C8_4 O7_4 1_555 1_555
C9_4 O8_4 1_555 1_555
C20_4 O9_4 1_555 1_555
C21_4 O10_4 1_555 1_555
O23 H42 1_555 1_555
O23_2 H42_2 1_555 1_555
O23_3 H42_3 1_555 1_555
O23_4 H42_4 1_555 1_555
O23_5 H42_5 1_555 1_555
O23_6 H42_6 1_555 1_555
O23_7 H42_7 1_555 1_555
O23_8 H42_8 1_555 1_555
O23_9 H42_9 1_555 1_555
O23_10 H42_10 1_555 1_555
O23_11 H42_11 1_555 1_555
O23_12 H42_12 1_555 1_555
O24 H40_2 1_555 1_555
O24 H40_3 1_555 1_555
O24_2 H40_4 1_555 1_555
O24_2 H40_5 1_555 1_555
O24_4 H40_7 1_555 1_555
O24_4 H40_8 1_555 1_555
O25 H41 1_555 1_555
O25_2 H41_2 1_555 1_555
O25_3 H41_3 1_555 1_555
O25_4 H41_4 1_555 1_555
O25_5 H41_5 1_555 1_555
O25_6 H41_6 1_555 1_555
O25_7 H41_7 1_555 1_555
O25_8 H41_8 1_555 1_555
O25_9 H41_9 1_555 1_555
O25_10 H41_10 1_555 1_555
O25_11 H41_11 1_555 1_555
O25_12 H41_12 1_555 1_555

#END
