
###############################################################################
#
# This file contains modified crystal structure data generated from the
# MOF subset of the Cambridge Structural Database (CSD) v543 
# hosted by the Cambridge Crystallographic Data Centre (CCDC).
#
# This work is licensed under the Creative Commons
# Attribution-NonCommercial-ShareAlike 4.0 International License.
# To view a copy of this license, visit
# http://creativecommons.org/licenses/by-nc-sa/4.0/
# or send a letter to
# Creative Commons, PO Box 1866, Mountain View, CA 94042, USA.
#
# CIF created using the CSD Python API on 29 September 2022
# The structure has been converted into the P1 space group
# The structure has a 3D framework
# The original CSD entry FOTNIN is in the cubic crystal system
# The framework has been calculated to contain at least 10.0% void space
# The void calculation uses a probe of radius 1.32A, grid spacing 0.4
# H atom positions have been added when not included in the experimental data
# Generated hydrogen atom positions removed from atoms on special positions
#
###############################################################################

data_FOTNIN
_chemical_formula_moiety         '(C768 H2016 N96 O458 Zr96)n'
_symmetry_cell_setting           triclinic
_symmetry_space_group_name_H-M   'P 1'
_symmetry_Int_Tables_number      1
_space_group_name_Hall           'P 1'
loop_
_symmetry_equiv_pos_site_id
_symmetry_equiv_pos_as_xyz
1 x,y,z
_cell_length_a                   55.5686(2)
_cell_length_b                   55.5686(2)
_cell_length_c                   55.5686(2)
_cell_angle_alpha                90
_cell_angle_beta                 90
_cell_angle_gamma                90
_cell_volume                     171589
loop_
_atom_site_label
_atom_site_type_symbol
_atom_site_fract_x
_atom_site_fract_y
_atom_site_fract_z
Zr1 Zr 0.654450 0.109000 0.345550
Zr2 Zr 0.640520 0.095180 0.404820
O1 O 0.631840 0.086840 0.368160
O2 O 0.662730 0.117520 0.382480
O3 O 0.646450 0.146450 0.353550
O4 O 0.603180 0.103180 0.396820
O5 O 0.678930 0.079290 0.351110
O6 O 0.665370 0.065530 0.404820
O7 O 0.657820 0.128750 0.312220
C1 C 0.646070 0.146070 0.302090
C2 C 0.653570 0.153570 0.277460
C3 C 0.673120 0.142190 0.265870
C4 C 0.681520 0.150600 0.243590
C5 C 0.670600 0.170600 0.232350
C6 C 0.680680 0.180680 0.209650
N1 N 0.670810 0.199530 0.199530
H1 H 0.682330 0.127100 0.274250
H2 H 0.696920 0.141690 0.235440
O8 O 0.619630 0.090560 0.436630
C7 C 0.602310 0.102310 0.446760
C8 C 0.594810 0.094810 0.471390
C9 C 0.606190 0.075260 0.482980
C10 C 0.597780 0.066860 0.505260
C11 C 0.577780 0.077780 0.516500
C12 C 0.567700 0.067700 0.539200
N2 N 0.549320 0.077570 0.549320
H3 H 0.621280 0.066050 0.474600
H4 H 0.606690 0.051460 0.513410
O9 O 0.657820 0.312220 0.128750
C13 C 0.646070 0.302090 0.146070
C14 C 0.653570 0.277460 0.153570
C15 C 0.673120 0.265870 0.142190
C16 C 0.681520 0.243590 0.150600
C17 C 0.670600 0.232350 0.170600
C18 C 0.680680 0.209650 0.180680
H5 H 0.682330 0.274250 0.127100
H6 H 0.696920 0.235440 0.141690
O10 O 0.812220 0.157820 0.128750
C19 C 0.802090 0.146070 0.146070
C20 C 0.777460 0.153570 0.153570
C21 C 0.765870 0.173120 0.142190
C22 C 0.743590 0.181520 0.150600
C23 C 0.732350 0.170600 0.170600
C24 C 0.709650 0.180680 0.180680
N3 N 0.699530 0.170810 0.199530
H7 H 0.774250 0.182330 0.127100
H8 H 0.735440 0.196920 0.141690
O11 O 0.628750 0.312220 0.157820
C25 C 0.642190 0.265870 0.173120
C26 C 0.650600 0.243590 0.181520
N4 N 0.699530 0.199530 0.170810
H9 H 0.627100 0.274250 0.182330
H10 H 0.641690 0.235440 0.196920
O12 O 0.628750 0.157820 0.312220
C27 C 0.642190 0.173120 0.265870
C28 C 0.650600 0.181520 0.243590
H11 H 0.627100 0.182330 0.274250
H12 H 0.641690 0.196920 0.235440
O13 O 0.812220 0.128750 0.157820
C29 C 0.765870 0.142190 0.173120
C30 C 0.743590 0.150600 0.181520
H13 H 0.774250 0.127100 0.182330
H14 H 0.735440 0.141690 0.196920
O14 O 0.436630 0.090560 0.619630
C31 C 0.446760 0.102310 0.602310
C32 C 0.471390 0.094810 0.594810
C33 C 0.482980 0.075260 0.606190
C34 C 0.505260 0.066860 0.597780
C35 C 0.516500 0.077780 0.577780
C36 C 0.539200 0.067700 0.567700
H15 H 0.474600 0.066050 0.621280
H16 H 0.513410 0.051460 0.606690
O15 O 0.436630 0.119630 0.590560
C37 C 0.482980 0.106190 0.575260
C38 C 0.505260 0.097780 0.566860
N5 N 0.549320 0.049320 0.577570
H17 H 0.474600 0.121280 0.566050
H18 H 0.513410 0.106690 0.551460
C42 C 0.566860 0.005260 0.597780
C43 C 0.577780 0.016500 0.577780
C44 C 0.567700 0.039200 0.567700
N6 N 0.577570 0.049320 0.549320
H20 H 0.551460 0.013410 0.606690
O17 O 0.590560 0.119630 0.436630
C45 C 0.575260 0.106190 0.482980
C46 C 0.566860 0.097780 0.505260
H21 H 0.566050 0.121280 0.474600
H22 H 0.551460 0.106690 0.513410
C48 C 0.597780 0.005260 0.566860
H24 H 0.606690 0.013410 0.551460
O26 O 0.648890 0.079290 0.321070
Zr6 Zr 0.654450 0.154450 0.391000
O27 O 0.631840 0.131840 0.413160
O28 O 0.678930 0.148890 0.420710
O29 O 0.665370 0.095180 0.434470
O32 O 0.648890 0.178930 0.420710
Zr7 Zr 0.654450 0.345550 0.109000
Zr8 Zr 0.609000 0.345550 0.154450
Zr10 Zr 0.845550 0.154450 0.109000
Zr11 Zr 0.845550 0.109000 0.154450
Zr13 Zr 0.609000 0.154450 0.345550
Zr14 Zr 0.595180 0.095180 0.359480
Zr15 Zr 0.404820 0.095180 0.640520
Zr16 Zr 0.404820 0.140520 0.595180
Zr17 Zr 0.595180 0.140520 0.404820
O35 O 0.617520 0.117520 0.337270
O36 O 0.617520 0.162730 0.382480
O41 O 0.687780 0.128750 0.342180
O42 O 0.687780 0.157820 0.371250
O43 O 0.657820 0.187780 0.371250
O46 O 0.619630 0.063370 0.409440
O16 O 0.590560 0.936630 0.619630
C39 C 0.602310 0.946760 0.602310
C40 C 0.594810 0.971390 0.594810
C41 C 0.575260 0.982980 0.606190
H19 H 0.566050 0.974600 0.621280
O18 O 0.619630 0.936630 0.590560
C47 C 0.606190 0.982980 0.575260
H23 H 0.621280 0.974600 0.566050
Zr3 Zr 0.654450 0.891000 0.654450
Zr4 Zr 0.640520 0.904820 0.595180
O19 O 0.631840 0.913160 0.631840
O20 O 0.662730 0.882480 0.617520
O21 O 0.678930 0.920710 0.648890
O22 O 0.665370 0.934470 0.595180
Zr5 Zr 0.595180 0.904820 0.640520
O23 O 0.617520 0.882480 0.662730
O24 O 0.648890 0.920710 0.678930
O25 O 0.595180 0.934470 0.665370
O30 O 0.665370 0.904820 0.565530
O31 O 0.565530 0.904820 0.665370
Zr9 Zr 0.609000 0.845550 0.654450
Zr12 Zr 0.654450 0.845550 0.609000
O33 O 0.586840 0.868160 0.631840
O34 O 0.631840 0.868160 0.586840
O37 O 0.646450 0.853550 0.646450
O38 O 0.603180 0.896820 0.603180
O39 O 0.657820 0.871250 0.687780
O40 O 0.687780 0.871250 0.657820
O44 O 0.619630 0.909440 0.563370
O45 O 0.563370 0.909440 0.619630
Zr1_2 Zr 0.109000 0.345550 0.654450
Zr2_2 Zr 0.095180 0.359480 0.595180
O1_2 O 0.086840 0.368160 0.631840
O2_2 O 0.117520 0.337270 0.617520
O3_2 O 0.146450 0.353550 0.646450
O4_2 O 0.103180 0.396820 0.603180
O5_2 O 0.079290 0.321070 0.648890
O6_2 O 0.065530 0.334630 0.595180
O7_2 O 0.128750 0.342180 0.687780
C1_2 C 0.146070 0.353930 0.697910
C2_2 C 0.153570 0.346430 0.722540
C3_2 C 0.142190 0.326880 0.734130
C4_2 C 0.150600 0.318480 0.756410
C5_2 C 0.170600 0.329400 0.767650
C6_2 C 0.180680 0.319320 0.790350
N1_2 N 0.199530 0.329190 0.800470
H1_2 H 0.127100 0.317670 0.725750
H2_2 H 0.141690 0.303080 0.764560
O8_2 O 0.090560 0.380370 0.563370
C7_2 C 0.102310 0.397690 0.553240
C8_2 C 0.094810 0.405190 0.528610
C9_2 C 0.075260 0.393810 0.517020
C10_2 C 0.066860 0.402220 0.494740
C11_2 C 0.077780 0.422220 0.483500
C12_2 C 0.067700 0.432300 0.460800
N2_2 N 0.077570 0.450680 0.450680
H3_2 H 0.066050 0.378720 0.525400
H4_2 H 0.051460 0.393310 0.486590
O9_2 O 0.312220 0.342180 0.871250
C13_2 C 0.302090 0.353930 0.853930
C14_2 C 0.277460 0.346430 0.846430
C15_2 C 0.265870 0.326880 0.857810
C16_2 C 0.243590 0.318480 0.849400
C17_2 C 0.232350 0.329400 0.829400
C18_2 C 0.209650 0.319320 0.819320
H5_2 H 0.274250 0.317670 0.872900
H6_2 H 0.235440 0.303080 0.858310
O10_2 O 0.157820 0.187780 0.871250
C19_2 C 0.146070 0.197910 0.853930
C20_2 C 0.153570 0.222540 0.846430
C21_2 C 0.173120 0.234130 0.857810
C22_2 C 0.181520 0.256410 0.849400
C23_2 C 0.170600 0.267650 0.829400
C24_2 C 0.180680 0.290350 0.819320
N3_2 N 0.170810 0.300470 0.800470
H7_2 H 0.182330 0.225750 0.872900
H8_2 H 0.196920 0.264560 0.858310
O11_2 O 0.312220 0.371250 0.842180
C25_2 C 0.265870 0.357810 0.826880
C26_2 C 0.243590 0.349400 0.818480
N4_2 N 0.199530 0.300470 0.829190
H9_2 H 0.274250 0.372900 0.817670
H10_2 H 0.235440 0.358310 0.803080
O12_2 O 0.157820 0.371250 0.687780
C27_2 C 0.173120 0.357810 0.734130
C28_2 C 0.181520 0.349400 0.756410
H11_2 H 0.182330 0.372900 0.725750
H12_2 H 0.196920 0.358310 0.764560
O13_2 O 0.128750 0.187780 0.842180
C29_2 C 0.142190 0.234130 0.826880
C30_2 C 0.150600 0.256410 0.818480
H13_2 H 0.127100 0.225750 0.817670
H14_2 H 0.141690 0.264560 0.803080
O14_2 O 0.090560 0.563370 0.380370
C31_2 C 0.102310 0.553240 0.397690
C32_2 C 0.094810 0.528610 0.405190
C33_2 C 0.075260 0.517020 0.393810
C34_2 C 0.066860 0.494740 0.402220
C35_2 C 0.077780 0.483500 0.422220
C36_2 C 0.067700 0.460800 0.432300
H15_2 H 0.066050 0.525400 0.378720
H16_2 H 0.051460 0.486590 0.393310
O15_2 O 0.119630 0.563370 0.409440
C37_2 C 0.106190 0.517020 0.424740
C38_2 C 0.097780 0.494740 0.433140
N5_2 N 0.049320 0.450680 0.422430
H17_2 H 0.121280 0.525400 0.433950
H18_2 H 0.106690 0.486590 0.448540
C42_2 C 0.005260 0.433140 0.402220
C43_2 C 0.016500 0.422220 0.422220
C44_2 C 0.039200 0.432300 0.432300
N6_2 N 0.049320 0.422430 0.450680
H20_2 H 0.013410 0.448540 0.393310
O17_2 O 0.119630 0.409440 0.563370
C45_2 C 0.106190 0.424740 0.517020
C46_2 C 0.097780 0.433140 0.494740
H21_2 H 0.121280 0.433950 0.525400
H22_2 H 0.106690 0.448540 0.486590
C48_2 C 0.005260 0.402220 0.433140
H24_2 H 0.013410 0.393310 0.448540
O26_2 O 0.079290 0.351110 0.678930
Zr6_2 Zr 0.154450 0.345550 0.609000
O27_2 O 0.131840 0.368160 0.586840
O28_2 O 0.148890 0.321070 0.579290
O29_2 O 0.095180 0.334630 0.565530
O32_2 O 0.178930 0.351110 0.579290
Zr7_2 Zr 0.345550 0.345550 0.891000
Zr8_2 Zr 0.345550 0.391000 0.845550
Zr10_2 Zr 0.154450 0.154450 0.891000
Zr11_2 Zr 0.109000 0.154450 0.845550
Zr13_2 Zr 0.154450 0.391000 0.654450
Zr14_2 Zr 0.095180 0.404820 0.640520
Zr15_2 Zr 0.095180 0.595180 0.359480
Zr16_2 Zr 0.140520 0.595180 0.404820
Zr17_2 Zr 0.140520 0.404820 0.595180
O35_2 O 0.117520 0.382480 0.662730
O36_2 O 0.162730 0.382480 0.617520
O41_2 O 0.128750 0.312220 0.657820
O42_2 O 0.157820 0.312220 0.628750
O43_2 O 0.187780 0.342180 0.628750
O46_2 O 0.063370 0.380370 0.590560
O16_2 O 0.936630 0.409440 0.380370
C39_2 C 0.946760 0.397690 0.397690
C40_2 C 0.971390 0.405190 0.405190
C41_2 C 0.982980 0.424740 0.393810
H19_2 H 0.974600 0.433950 0.378720
O18_2 O 0.936630 0.380370 0.409440
C47_2 C 0.982980 0.393810 0.424740
H23_2 H 0.974600 0.378720 0.433950
Zr3_2 Zr 0.891000 0.345550 0.345550
Zr4_2 Zr 0.904820 0.359480 0.404820
O19_2 O 0.913160 0.368160 0.368160
O20_2 O 0.882480 0.337270 0.382480
O21_2 O 0.920710 0.321070 0.351110
O22_2 O 0.934470 0.334630 0.404820
Zr5_2 Zr 0.904820 0.404820 0.359480
O23_2 O 0.882480 0.382480 0.337270
O24_2 O 0.920710 0.351110 0.321070
O25_2 O 0.934470 0.404820 0.334630
O30_2 O 0.904820 0.334630 0.434470
O31_2 O 0.904820 0.434470 0.334630
Zr9_2 Zr 0.845550 0.391000 0.345550
Zr12_2 Zr 0.845550 0.345550 0.391000
O33_2 O 0.868160 0.413160 0.368160
O34_2 O 0.868160 0.368160 0.413160
O37_2 O 0.853550 0.353550 0.353550
O38_2 O 0.896820 0.396820 0.396820
O39_2 O 0.871250 0.342180 0.312220
O40_2 O 0.871250 0.312220 0.342180
O44_2 O 0.909440 0.380370 0.436630
O45_2 O 0.909440 0.436630 0.380370
O16_3 O 0.409440 0.063370 0.619630
C39_3 C 0.397690 0.053240 0.602310
C40_3 C 0.405190 0.028610 0.594810
C41_3 C 0.424740 0.017020 0.606190
H19_3 H 0.433950 0.025400 0.621280
O18_3 O 0.380370 0.063370 0.590560
C47_3 C 0.393810 0.017020 0.575260
H23_3 H 0.378720 0.025400 0.566050
Zr3_3 Zr 0.345550 0.109000 0.654450
Zr4_3 Zr 0.359480 0.095180 0.595180
O19_3 O 0.368160 0.086840 0.631840
O20_3 O 0.337270 0.117520 0.617520
O21_3 O 0.321070 0.079290 0.648890
O22_3 O 0.334630 0.065530 0.595180
O23_3 O 0.382480 0.117520 0.662730
O24_3 O 0.351110 0.079290 0.678930
O25_3 O 0.404820 0.065530 0.665370
O30_3 O 0.334630 0.095180 0.565530
O31_3 O 0.434470 0.095180 0.665370
Zr9_3 Zr 0.391000 0.154450 0.654450
Zr12_3 Zr 0.345550 0.154450 0.609000
O33_3 O 0.413160 0.131840 0.631840
O34_3 O 0.368160 0.131840 0.586840
O37_3 O 0.353550 0.146450 0.646450
O38_3 O 0.396820 0.103180 0.603180
O39_3 O 0.342180 0.128750 0.687780
O40_3 O 0.312220 0.128750 0.657820
O44_3 O 0.380370 0.090560 0.563370
Zr1_3 Zr 0.345550 0.891000 0.345550
Zr2_3 Zr 0.359480 0.904820 0.404820
O1_3 O 0.368160 0.913160 0.368160
O2_3 O 0.337270 0.882480 0.382480
O3_3 O 0.353550 0.853550 0.353550
O4_3 O 0.396820 0.896820 0.396820
O5_3 O 0.321070 0.920710 0.351110
O6_3 O 0.334630 0.934470 0.404820
O7_3 O 0.342180 0.871250 0.312220
C1_3 C 0.353930 0.853930 0.302090
C2_3 C 0.346430 0.846430 0.277460
C3_3 C 0.326880 0.857810 0.265870
C4_3 C 0.318480 0.849400 0.243590
C5_3 C 0.329400 0.829400 0.232350
C6_3 C 0.319320 0.819320 0.209650
N1_3 N 0.329190 0.800470 0.199530
H1_3 H 0.317670 0.872900 0.274250
H2_3 H 0.303080 0.858310 0.235440
O8_3 O 0.380370 0.909440 0.436630
C7_3 C 0.397690 0.897690 0.446760
C8_3 C 0.405190 0.905190 0.471390
C9_3 C 0.393810 0.924740 0.482980
C10_3 C 0.402220 0.933140 0.505260
C11_3 C 0.422220 0.922220 0.516500
C12_3 C 0.432300 0.932300 0.539200
N2_3 N 0.450680 0.922430 0.549320
H3_3 H 0.378720 0.933950 0.474600
H4_3 H 0.393310 0.948540 0.513410
O9_3 O 0.342180 0.687780 0.128750
C13_3 C 0.353930 0.697910 0.146070
C14_3 C 0.346430 0.722540 0.153570
C15_3 C 0.326880 0.734130 0.142190
C16_3 C 0.318480 0.756410 0.150600
C17_3 C 0.329400 0.767650 0.170600
C18_3 C 0.319320 0.790350 0.180680
H5_3 H 0.317670 0.725750 0.127100
H6_3 H 0.303080 0.764560 0.141690
O10_3 O 0.187780 0.842180 0.128750
C19_3 C 0.197910 0.853930 0.146070
C20_3 C 0.222540 0.846430 0.153570
C21_3 C 0.234130 0.826880 0.142190
C22_3 C 0.256410 0.818480 0.150600
C23_3 C 0.267650 0.829400 0.170600
C24_3 C 0.290350 0.819320 0.180680
N3_3 N 0.300470 0.829190 0.199530
H7_3 H 0.225750 0.817670 0.127100
H8_3 H 0.264560 0.803080 0.141690
O11_3 O 0.371250 0.687780 0.157820
C25_3 C 0.357810 0.734130 0.173120
C26_3 C 0.349400 0.756410 0.181520
N4_3 N 0.300470 0.800470 0.170810
H9_3 H 0.372900 0.725750 0.182330
H10_3 H 0.358310 0.764560 0.196920
O12_3 O 0.371250 0.842180 0.312220
C27_3 C 0.357810 0.826880 0.265870
C28_3 C 0.349400 0.818480 0.243590
H11_3 H 0.372900 0.817670 0.274250
H12_3 H 0.358310 0.803080 0.235440
O13_3 O 0.187780 0.871250 0.157820
C29_3 C 0.234130 0.857810 0.173120
C30_3 C 0.256410 0.849400 0.181520
H13_3 H 0.225750 0.872900 0.182330
H14_3 H 0.264560 0.858310 0.196920
C31_3 C 0.553240 0.897690 0.602310
C32_3 C 0.528610 0.905190 0.594810
C33_3 C 0.517020 0.924740 0.606190
C34_3 C 0.494740 0.933140 0.597780
C35_3 C 0.483500 0.922220 0.577780
C36_3 C 0.460800 0.932300 0.567700
H15_3 H 0.525400 0.933950 0.621280
H16_3 H 0.486590 0.948540 0.606690
O15_3 O 0.563370 0.880370 0.590560
C37_3 C 0.517020 0.893810 0.575260
C38_3 C 0.494740 0.902220 0.566860
N5_3 N 0.450680 0.950680 0.577570
H17_3 H 0.525400 0.878720 0.566050
H18_3 H 0.486590 0.893310 0.551460
C42_3 C 0.433140 0.994740 0.597780
C43_3 C 0.422220 0.983500 0.577780
C44_3 C 0.432300 0.960800 0.567700
N6_3 N 0.422430 0.950680 0.549320
H20_3 H 0.448540 0.986590 0.606690
O17_3 O 0.409440 0.880370 0.436630
C45_3 C 0.424740 0.893810 0.482980
C46_3 C 0.433140 0.902220 0.505260
H21_3 H 0.433950 0.878720 0.474600
H22_3 H 0.448540 0.893310 0.513410
C48_3 C 0.402220 0.994740 0.566860
H24_3 H 0.393310 0.986590 0.551460
O26_3 O 0.351110 0.920710 0.321070
Zr6_3 Zr 0.345550 0.845550 0.391000
O27_3 O 0.368160 0.868160 0.413160
O28_3 O 0.321070 0.851110 0.420710
O29_3 O 0.334630 0.904820 0.434470
O32_3 O 0.351110 0.821070 0.420710
Zr7_3 Zr 0.345550 0.654450 0.109000
Zr8_3 Zr 0.391000 0.654450 0.154450
Zr10_3 Zr 0.154450 0.845550 0.109000
Zr11_3 Zr 0.154450 0.891000 0.154450
Zr13_3 Zr 0.391000 0.845550 0.345550
Zr14_3 Zr 0.404820 0.904820 0.359480
Zr16_3 Zr 0.595180 0.859480 0.595180
Zr17_3 Zr 0.404820 0.859480 0.404820
O35_3 O 0.382480 0.882480 0.337270
O36_3 O 0.382480 0.837270 0.382480
O41_3 O 0.312220 0.871250 0.342180
O42_3 O 0.312220 0.842180 0.371250
O43_3 O 0.342180 0.812220 0.371250
O46_3 O 0.380370 0.936630 0.409440
O16_4 O 0.063370 0.590560 0.380370
C39_4 C 0.053240 0.602310 0.397690
C40_4 C 0.028610 0.594810 0.405190
C41_4 C 0.017020 0.575260 0.393810
H19_4 H 0.025400 0.566050 0.378720
O18_4 O 0.063370 0.619630 0.409440
C47_4 C 0.017020 0.606190 0.424740
H23_4 H 0.025400 0.621280 0.433950
Zr3_4 Zr 0.109000 0.654450 0.345550
Zr4_4 Zr 0.095180 0.640520 0.404820
O19_4 O 0.086840 0.631840 0.368160
O20_4 O 0.117520 0.662730 0.382480
O21_4 O 0.079290 0.678930 0.351110
O22_4 O 0.065530 0.665370 0.404820
O23_4 O 0.117520 0.617520 0.337270
O24_4 O 0.079290 0.648890 0.321070
O25_4 O 0.065530 0.595180 0.334630
O30_4 O 0.095180 0.665370 0.434470
O31_4 O 0.095180 0.565530 0.334630
Zr9_4 Zr 0.154450 0.609000 0.345550
Zr12_4 Zr 0.154450 0.654450 0.391000
O33_4 O 0.131840 0.586840 0.368160
O34_4 O 0.131840 0.631840 0.413160
O37_4 O 0.146450 0.646450 0.353550
O38_4 O 0.103180 0.603180 0.396820
O39_4 O 0.128750 0.657820 0.312220
O40_4 O 0.128750 0.687780 0.342180
O44_4 O 0.090560 0.619630 0.436630
Zr1_4 Zr 0.891000 0.654450 0.654450
Zr2_4 Zr 0.904820 0.640520 0.595180
O1_4 O 0.913160 0.631840 0.631840
O2_4 O 0.882480 0.662730 0.617520
O3_4 O 0.853550 0.646450 0.646450
O4_4 O 0.896820 0.603180 0.603180
O5_4 O 0.920710 0.678930 0.648890
O6_4 O 0.934470 0.665370 0.595180
O7_4 O 0.871250 0.657820 0.687780
C1_4 C 0.853930 0.646070 0.697910
C2_4 C 0.846430 0.653570 0.722540
C3_4 C 0.857810 0.673120 0.734130
C4_4 C 0.849400 0.681520 0.756410
C5_4 C 0.829400 0.670600 0.767650
C6_4 C 0.819320 0.680680 0.790350
N1_4 N 0.800470 0.670810 0.800470
H1_4 H 0.872900 0.682330 0.725750
H2_4 H 0.858310 0.696920 0.764560
O8_4 O 0.909440 0.619630 0.563370
C7_4 C 0.897690 0.602310 0.553240
C8_4 C 0.905190 0.594810 0.528610
C9_4 C 0.924740 0.606190 0.517020
C10_4 C 0.933140 0.597780 0.494740
C11_4 C 0.922220 0.577780 0.483500
C12_4 C 0.932300 0.567700 0.460800
N2_4 N 0.922430 0.549320 0.450680
H3_4 H 0.933950 0.621280 0.525400
H4_4 H 0.948540 0.606690 0.486590
O9_4 O 0.687780 0.657820 0.871250
C13_4 C 0.697910 0.646070 0.853930
C14_4 C 0.722540 0.653570 0.846430
C15_4 C 0.734130 0.673120 0.857810
C16_4 C 0.756410 0.681520 0.849400
C17_4 C 0.767650 0.670600 0.829400
C18_4 C 0.790350 0.680680 0.819320
H5_4 H 0.725750 0.682330 0.872900
H6_4 H 0.764560 0.696920 0.858310
O10_4 O 0.842180 0.812220 0.871250
C19_4 C 0.853930 0.802090 0.853930
C20_4 C 0.846430 0.777460 0.846430
C21_4 C 0.826880 0.765870 0.857810
C22_4 C 0.818480 0.743590 0.849400
C23_4 C 0.829400 0.732350 0.829400
C24_4 C 0.819320 0.709650 0.819320
N3_4 N 0.829190 0.699530 0.800470
H7_4 H 0.817670 0.774250 0.872900
H8_4 H 0.803080 0.735440 0.858310
O11_4 O 0.687780 0.628750 0.842180
C25_4 C 0.734130 0.642190 0.826880
C26_4 C 0.756410 0.650600 0.818480
N4_4 N 0.800470 0.699530 0.829190
H9_4 H 0.725750 0.627100 0.817670
H10_4 H 0.764560 0.641690 0.803080
O12_4 O 0.842180 0.628750 0.687780
C27_4 C 0.826880 0.642190 0.734130
C28_4 C 0.818480 0.650600 0.756410
H11_4 H 0.817670 0.627100 0.725750
H12_4 H 0.803080 0.641690 0.764560
O13_4 O 0.871250 0.812220 0.842180
C29_4 C 0.857810 0.765870 0.826880
C30_4 C 0.849400 0.743590 0.818480
H13_4 H 0.872900 0.774250 0.817670
H14_4 H 0.858310 0.735440 0.803080
C31_4 C 0.897690 0.446760 0.397690
C32_4 C 0.905190 0.471390 0.405190
C33_4 C 0.924740 0.482980 0.393810
C34_4 C 0.933140 0.505260 0.402220
C35_4 C 0.922220 0.516500 0.422220
C36_4 C 0.932300 0.539200 0.432300
H15_4 H 0.933950 0.474600 0.378720
H16_4 H 0.948540 0.513410 0.393310
O15_4 O 0.880370 0.436630 0.409440
C37_4 C 0.893810 0.482980 0.424740
C38_4 C 0.902220 0.505260 0.433140
N5_4 N 0.950680 0.549320 0.422430
H17_4 H 0.878720 0.474600 0.433950
H18_4 H 0.893310 0.513410 0.448540
C42_4 C 0.994740 0.566860 0.402220
C43_4 C 0.983500 0.577780 0.422220
C44_4 C 0.960800 0.567700 0.432300
N6_4 N 0.950680 0.577570 0.450680
H20_4 H 0.986590 0.551460 0.393310
O17_4 O 0.880370 0.590560 0.563370
C45_4 C 0.893810 0.575260 0.517020
C46_4 C 0.902220 0.566860 0.494740
H21_4 H 0.878720 0.566050 0.525400
H22_4 H 0.893310 0.551460 0.486590
C48_4 C 0.994740 0.597780 0.433140
H24_4 H 0.986590 0.606690 0.448540
O26_4 O 0.920710 0.648890 0.678930
Zr6_4 Zr 0.845550 0.654450 0.609000
O27_4 O 0.868160 0.631840 0.586840
O28_4 O 0.851110 0.678930 0.579290
O29_4 O 0.904820 0.665370 0.565530
O32_4 O 0.821070 0.648890 0.579290
Zr7_4 Zr 0.654450 0.654450 0.891000
Zr8_4 Zr 0.654450 0.609000 0.845550
Zr10_4 Zr 0.845550 0.845550 0.891000
Zr11_4 Zr 0.891000 0.845550 0.845550
Zr13_4 Zr 0.845550 0.609000 0.654450
Zr14_4 Zr 0.904820 0.595180 0.640520
Zr16_4 Zr 0.859480 0.404820 0.404820
Zr17_4 Zr 0.859480 0.595180 0.595180
O35_4 O 0.882480 0.617520 0.662730
O36_4 O 0.837270 0.617520 0.617520
O41_4 O 0.871250 0.687780 0.657820
O42_4 O 0.842180 0.687780 0.628750
O43_4 O 0.812220 0.657820 0.628750
O46_4 O 0.936630 0.619630 0.590560
O16_5 O 0.409440 0.619630 0.063370
C39_5 C 0.397690 0.602310 0.053240
C40_5 C 0.405190 0.594810 0.028610
C41_5 C 0.424740 0.606190 0.017020
H19_5 H 0.433950 0.621280 0.025400
O18_5 O 0.380370 0.590560 0.063370
C47_5 C 0.393810 0.575260 0.017020
H23_5 H 0.378720 0.566050 0.025400
Zr4_5 Zr 0.359480 0.595180 0.095180
O19_5 O 0.368160 0.631840 0.086840
O20_5 O 0.337270 0.617520 0.117520
O21_5 O 0.321070 0.648890 0.079290
O22_5 O 0.334630 0.595180 0.065530
Zr5_3 Zr 0.404820 0.640520 0.095180
O23_5 O 0.382480 0.662730 0.117520
O24_5 O 0.351110 0.678930 0.079290
O25_5 O 0.404820 0.665370 0.065530
O30_5 O 0.334630 0.565530 0.095180
O31_5 O 0.434470 0.665370 0.095180
Zr12_5 Zr 0.345550 0.609000 0.154450
O33_5 O 0.413160 0.631840 0.131840
O34_5 O 0.368160 0.586840 0.131840
O37_5 O 0.353550 0.646450 0.146450
O38_5 O 0.396820 0.603180 0.103180
O40_5 O 0.312220 0.657820 0.128750
O44_5 O 0.380370 0.563370 0.090560
O45_3 O 0.436630 0.619630 0.090560
Zr2_5 Zr 0.359480 0.404820 0.904820
O1_5 O 0.368160 0.368160 0.913160
O2_5 O 0.337270 0.382480 0.882480
O3_5 O 0.353550 0.353550 0.853550
O4_5 O 0.396820 0.396820 0.896820
O5_5 O 0.321070 0.351110 0.920710
O6_5 O 0.334630 0.404820 0.934470
O7_5 O 0.342180 0.312220 0.871250
C1_5 C 0.353930 0.302090 0.853930
C2_5 C 0.346430 0.277460 0.846430
C3_5 C 0.326880 0.265870 0.857810
C4_5 C 0.318480 0.243590 0.849400
C5_5 C 0.329400 0.232350 0.829400
C6_5 C 0.319320 0.209650 0.819320
N1_5 N 0.329190 0.199530 0.800470
H1_5 H 0.317670 0.274250 0.872900
H2_5 H 0.303080 0.235440 0.858310
O8_5 O 0.380370 0.436630 0.909440
C7_5 C 0.397690 0.446760 0.897690
C8_5 C 0.405190 0.471390 0.905190
C9_5 C 0.393810 0.482980 0.924740
C10_5 C 0.402220 0.505260 0.933140
C11_5 C 0.422220 0.516500 0.922220
C12_5 C 0.432300 0.539200 0.932300
N2_5 N 0.450680 0.549320 0.922430
H3_5 H 0.378720 0.474600 0.933950
H4_5 H 0.393310 0.513410 0.948540
C13_5 C 0.353930 0.146070 0.697910
C14_5 C 0.346430 0.153570 0.722540
C15_5 C 0.326880 0.142190 0.734130
C16_5 C 0.318480 0.150600 0.756410
C17_5 C 0.329400 0.170600 0.767650
C18_5 C 0.319320 0.180680 0.790350
H5_5 H 0.317670 0.127100 0.725750
H6_5 H 0.303080 0.141690 0.764560
O10_5 O 0.187780 0.128750 0.842180
C19_5 C 0.197910 0.146070 0.853930
C20_5 C 0.222540 0.153570 0.846430
C21_5 C 0.234130 0.142190 0.826880
C22_5 C 0.256410 0.150600 0.818480
C23_5 C 0.267650 0.170600 0.829400
C24_5 C 0.290350 0.180680 0.819320
N3_5 N 0.300470 0.199530 0.829190
H7_5 H 0.225750 0.127100 0.817670
H8_5 H 0.264560 0.141690 0.803080
O11_5 O 0.371250 0.157820 0.687780
C25_5 C 0.357810 0.173120 0.734130
C26_5 C 0.349400 0.181520 0.756410
N4_5 N 0.300470 0.170810 0.800470
H9_5 H 0.372900 0.182330 0.725750
H10_5 H 0.358310 0.196920 0.764560
O12_5 O 0.371250 0.312220 0.842180
C27_5 C 0.357810 0.265870 0.826880
C28_5 C 0.349400 0.243590 0.818480
H11_5 H 0.372900 0.274250 0.817670
H12_5 H 0.358310 0.235440 0.803080
O13_5 O 0.187780 0.157820 0.871250
C29_5 C 0.234130 0.173120 0.857810
C30_5 C 0.256410 0.181520 0.849400
H13_5 H 0.225750 0.182330 0.872900
H14_5 H 0.264560 0.196920 0.858310
O14_3 O 0.563370 0.619630 0.909440
C31_5 C 0.553240 0.602310 0.897690
C32_5 C 0.528610 0.594810 0.905190
C33_5 C 0.517020 0.606190 0.924740
C34_5 C 0.494740 0.597780 0.933140
C35_5 C 0.483500 0.577780 0.922220
C36_5 C 0.460800 0.567700 0.932300
H15_5 H 0.525400 0.621280 0.933950
H16_5 H 0.486590 0.606690 0.948540
O15_5 O 0.563370 0.590560 0.880370
C37_5 C 0.517020 0.575260 0.893810
C38_5 C 0.494740 0.566860 0.902220
N5_5 N 0.450680 0.577570 0.950680
H17_5 H 0.525400 0.566050 0.878720
H18_5 H 0.486590 0.551460 0.893310
C42_5 C 0.433140 0.597780 0.994740
C43_5 C 0.422220 0.577780 0.983500
C44_5 C 0.432300 0.567700 0.960800
N6_5 N 0.422430 0.549320 0.950680
H20_5 H 0.448540 0.606690 0.986590
O17_5 O 0.409440 0.436630 0.880370
C45_5 C 0.424740 0.482980 0.893810
C46_5 C 0.433140 0.505260 0.902220
H21_5 H 0.433950 0.474600 0.878720
H22_5 H 0.448540 0.513410 0.893310
C48_5 C 0.402220 0.566860 0.994740
H24_5 H 0.393310 0.551460 0.986590
O26_5 O 0.351110 0.321070 0.920710
O27_5 O 0.368160 0.413160 0.868160
O28_5 O 0.321070 0.420710 0.851110
O29_5 O 0.334630 0.434470 0.904820
O32_5 O 0.351110 0.420710 0.821070
Zr10_5 Zr 0.154450 0.109000 0.845550
Zr13_5 Zr 0.391000 0.345550 0.845550
Zr14_5 Zr 0.404820 0.359480 0.904820
Zr15_3 Zr 0.595180 0.640520 0.904820
Zr16_5 Zr 0.595180 0.595180 0.859480
Zr17_5 Zr 0.404820 0.404820 0.859480
O35_5 O 0.382480 0.337270 0.882480
O36_5 O 0.382480 0.382480 0.837270
O43_5 O 0.342180 0.371250 0.812220
O46_5 O 0.380370 0.409440 0.936630
O16_6 O 0.590560 0.063370 0.380370
C39_6 C 0.602310 0.053240 0.397690
C40_6 C 0.594810 0.028610 0.405190
C41_6 C 0.575260 0.017020 0.393810
H19_6 H 0.566050 0.025400 0.378720
C47_6 C 0.606190 0.017020 0.424740
H23_6 H 0.621280 0.025400 0.433950
O25_6 O 0.595180 0.065530 0.334630
O31_6 O 0.565530 0.095180 0.334630
O33_6 O 0.586840 0.131840 0.368160
O45_4 O 0.563370 0.090560 0.380370
C1_6 C 0.646070 0.853930 0.697910
C2_6 C 0.653570 0.846430 0.722540
C3_6 C 0.673120 0.857810 0.734130
C4_6 C 0.681520 0.849400 0.756410
C5_6 C 0.670600 0.829400 0.767650
C6_6 C 0.680680 0.819320 0.790350
N1_6 N 0.670810 0.800470 0.800470
H1_6 H 0.682330 0.872900 0.725750
H2_6 H 0.696920 0.858310 0.764560
C7_6 C 0.602310 0.897690 0.553240
C8_6 C 0.594810 0.905190 0.528610
C9_6 C 0.606190 0.924740 0.517020
C10_6 C 0.597780 0.933140 0.494740
C11_6 C 0.577780 0.922220 0.483500
C12_6 C 0.567700 0.932300 0.460800
N2_6 N 0.549320 0.922430 0.450680
H3_6 H 0.621280 0.933950 0.525400
H4_6 H 0.606690 0.948540 0.486590
O9_5 O 0.657820 0.687780 0.871250
C13_6 C 0.646070 0.697910 0.853930
C14_6 C 0.653570 0.722540 0.846430
C15_6 C 0.673120 0.734130 0.857810
C16_6 C 0.681520 0.756410 0.849400
C17_6 C 0.670600 0.767650 0.829400
C18_6 C 0.680680 0.790350 0.819320
H5_6 H 0.682330 0.725750 0.872900
H6_6 H 0.696920 0.764560 0.858310
O10_6 O 0.812220 0.842180 0.871250
C19_6 C 0.802090 0.853930 0.853930
C20_6 C 0.777460 0.846430 0.846430
C21_6 C 0.765870 0.826880 0.857810
C22_6 C 0.743590 0.818480 0.849400
C23_6 C 0.732350 0.829400 0.829400
C24_6 C 0.709650 0.819320 0.819320
N3_6 N 0.699530 0.829190 0.800470
H7_6 H 0.774250 0.817670 0.872900
H8_6 H 0.735440 0.803080 0.858310
O11_6 O 0.628750 0.687780 0.842180
C25_6 C 0.642190 0.734130 0.826880
C26_6 C 0.650600 0.756410 0.818480
N4_6 N 0.699530 0.800470 0.829190
H9_6 H 0.627100 0.725750 0.817670
H10_6 H 0.641690 0.764560 0.803080
O12_6 O 0.628750 0.842180 0.687780
C27_6 C 0.642190 0.826880 0.734130
C28_6 C 0.650600 0.818480 0.756410
H11_6 H 0.627100 0.817670 0.725750
H12_6 H 0.641690 0.803080 0.764560
O13_6 O 0.812220 0.871250 0.842180
C29_6 C 0.765870 0.857810 0.826880
C30_6 C 0.743590 0.849400 0.818480
H13_6 H 0.774250 0.872900 0.817670
H14_6 H 0.735440 0.858310 0.803080
O14_4 O 0.436630 0.909440 0.380370
C31_6 C 0.446760 0.897690 0.397690
C32_6 C 0.471390 0.905190 0.405190
C33_6 C 0.482980 0.924740 0.393810
C34_6 C 0.505260 0.933140 0.402220
C35_6 C 0.516500 0.922220 0.422220
C36_6 C 0.539200 0.932300 0.432300
H15_6 H 0.474600 0.933950 0.378720
H16_6 H 0.513410 0.948540 0.393310
O15_6 O 0.436630 0.880370 0.409440
C37_6 C 0.482980 0.893810 0.424740
C38_6 C 0.505260 0.902220 0.433140
N5_6 N 0.549320 0.950680 0.422430
H17_6 H 0.474600 0.878720 0.433950
H18_6 H 0.513410 0.893310 0.448540
C42_6 C 0.566860 0.994740 0.402220
C43_6 C 0.577780 0.983500 0.422220
C44_6 C 0.567700 0.960800 0.432300
N6_6 N 0.577570 0.950680 0.450680
H20_6 H 0.551460 0.986590 0.393310
O17_6 O 0.590560 0.880370 0.563370
C45_6 C 0.575260 0.893810 0.517020
C46_6 C 0.566860 0.902220 0.494740
H21_6 H 0.566050 0.878720 0.525400
H22_6 H 0.551460 0.893310 0.486590
C48_6 C 0.597780 0.994740 0.433140
H24_6 H 0.606690 0.986590 0.448540
O28_6 O 0.678930 0.851110 0.579290
O32_6 O 0.648890 0.821070 0.579290
Zr8_5 Zr 0.609000 0.654450 0.845550
Zr11_5 Zr 0.845550 0.891000 0.845550
O36_6 O 0.617520 0.837270 0.617520
O42_5 O 0.687780 0.842180 0.628750
O43_6 O 0.657820 0.812220 0.628750
C7_7 C 0.397690 0.553240 0.102310
C8_7 C 0.405190 0.528610 0.094810
C9_7 C 0.393810 0.517020 0.075260
C10_7 C 0.402220 0.494740 0.066860
C11_7 C 0.422220 0.483500 0.077780
C12_7 C 0.432300 0.460800 0.067700
N2_7 N 0.450680 0.450680 0.077570
H3_7 H 0.378720 0.525400 0.066050
H4_7 H 0.393310 0.486590 0.051460
O14_5 O 0.563370 0.380370 0.090560
C31_7 C 0.553240 0.397690 0.102310
C32_7 C 0.528610 0.405190 0.094810
C33_7 C 0.517020 0.393810 0.075260
C34_7 C 0.494740 0.402220 0.066860
C35_7 C 0.483500 0.422220 0.077780
C36_7 C 0.460800 0.432300 0.067700
H15_7 H 0.525400 0.378720 0.066050
H16_7 H 0.486590 0.393310 0.051460
O15_7 O 0.563370 0.409440 0.119630
C37_7 C 0.517020 0.424740 0.106190
C38_7 C 0.494740 0.433140 0.097780
N5_7 N 0.450680 0.422430 0.049320
H17_7 H 0.525400 0.433950 0.121280
H18_7 H 0.486590 0.448540 0.106690
C42_7 C 0.433140 0.402220 0.005260
C43_7 C 0.422220 0.422220 0.016500
C44_7 C 0.432300 0.432300 0.039200
N6_7 N 0.422430 0.450680 0.049320
H20_7 H 0.448540 0.393310 0.013410
O17_7 O 0.409440 0.563370 0.119630
C45_7 C 0.424740 0.517020 0.106190
C46_7 C 0.433140 0.494740 0.097780
H21_7 H 0.433950 0.525400 0.121280
H22_7 H 0.448540 0.486590 0.106690
C48_7 C 0.402220 0.433140 0.005260
H24_7 H 0.393310 0.448540 0.013410
O28_7 O 0.321070 0.579290 0.148890
O32_7 O 0.351110 0.579290 0.178930
Zr15_4 Zr 0.595180 0.359480 0.095180
Zr16_6 Zr 0.595180 0.404820 0.140520
Zr17_6 Zr 0.404820 0.595180 0.140520
O36_7 O 0.382480 0.617520 0.162730
O42_6 O 0.312220 0.628750 0.157820
O43_7 O 0.342180 0.628750 0.187780
O16_7 O 0.409440 0.380370 0.936630
C39_7 C 0.397690 0.397690 0.946760
C40_7 C 0.405190 0.405190 0.971390
C41_7 C 0.424740 0.393810 0.982980
H19_7 H 0.433950 0.378720 0.974600
C47_7 C 0.393810 0.424740 0.982980
H23_7 H 0.378720 0.433950 0.974600
O25_7 O 0.404820 0.334630 0.934470
O31_7 O 0.434470 0.334630 0.904820
O33_7 O 0.413160 0.368160 0.868160
O45_5 O 0.436630 0.380370 0.909440
C1_7 C 0.697910 0.853930 0.646070
C2_7 C 0.722540 0.846430 0.653570
C3_7 C 0.734130 0.857810 0.673120
C4_7 C 0.756410 0.849400 0.681520
C5_7 C 0.767650 0.829400 0.670600
C6_7 C 0.790350 0.819320 0.680680
N1_7 N 0.800470 0.800470 0.670810
H1_7 H 0.725750 0.872900 0.682330
H2_7 H 0.764560 0.858310 0.696920
C13_7 C 0.853930 0.697910 0.646070
C14_7 C 0.846430 0.722540 0.653570
C15_7 C 0.857810 0.734130 0.673120
C16_7 C 0.849400 0.756410 0.681520
C17_7 C 0.829400 0.767650 0.670600
C18_7 C 0.819320 0.790350 0.680680
H5_7 H 0.872900 0.725750 0.682330
H6_7 H 0.858310 0.764560 0.696920
O10_7 O 0.871250 0.842180 0.812220
C19_7 C 0.853930 0.853930 0.802090
C20_7 C 0.846430 0.846430 0.777460
C21_7 C 0.857810 0.826880 0.765870
C22_7 C 0.849400 0.818480 0.743590
C23_7 C 0.829400 0.829400 0.732350
C24_7 C 0.819320 0.819320 0.709650
N3_7 N 0.800470 0.829190 0.699530
H7_7 H 0.872900 0.817670 0.774250
H8_7 H 0.858310 0.803080 0.735440
C25_7 C 0.826880 0.734130 0.642190
C26_7 C 0.818480 0.756410 0.650600
N4_7 N 0.829190 0.800470 0.699530
H9_7 H 0.817670 0.725750 0.627100
H10_7 H 0.803080 0.764560 0.641690
C27_7 C 0.734130 0.826880 0.642190
C28_7 C 0.756410 0.818480 0.650600
H11_7 H 0.725750 0.817670 0.627100
H12_7 H 0.764560 0.803080 0.641690
O13_7 O 0.842180 0.871250 0.812220
C29_7 C 0.826880 0.857810 0.765870
C30_7 C 0.818480 0.849400 0.743590
H13_7 H 0.817670 0.872900 0.774250
H14_7 H 0.803080 0.858310 0.735440
O28_8 O 0.579290 0.851110 0.678930
O32_8 O 0.579290 0.821070 0.648890
O43_8 O 0.628750 0.812220 0.657820
C7_8 C 0.397690 0.102310 0.553240
C8_8 C 0.405190 0.094810 0.528610
C9_8 C 0.393810 0.075260 0.517020
C10_8 C 0.402220 0.066860 0.494740
C11_8 C 0.422220 0.077780 0.483500
C12_8 C 0.432300 0.067700 0.460800
N2_8 N 0.450680 0.077570 0.450680
H3_8 H 0.378720 0.066050 0.525400
H4_8 H 0.393310 0.051460 0.486590
C31_8 C 0.553240 0.102310 0.397690
C32_8 C 0.528610 0.094810 0.405190
C33_8 C 0.517020 0.075260 0.393810
C34_8 C 0.494740 0.066860 0.402220
C35_8 C 0.483500 0.077780 0.422220
C36_8 C 0.460800 0.067700 0.432300
H15_8 H 0.525400 0.066050 0.378720
H16_8 H 0.486590 0.051460 0.393310
O15_8 O 0.563370 0.119630 0.409440
C37_8 C 0.517020 0.106190 0.424740
C38_8 C 0.494740 0.097780 0.433140
N5_8 N 0.450680 0.049320 0.422430
H17_8 H 0.525400 0.121280 0.433950
H18_8 H 0.486590 0.106690 0.448540
C42_8 C 0.433140 0.005260 0.402220
C43_8 C 0.422220 0.016500 0.422220
C44_8 C 0.432300 0.039200 0.432300
N6_8 N 0.422430 0.049320 0.450680
H20_8 H 0.448540 0.013410 0.393310
O17_8 O 0.409440 0.119630 0.563370
C45_8 C 0.424740 0.106190 0.517020
C46_8 C 0.433140 0.097780 0.494740
H21_8 H 0.433950 0.121280 0.525400
H22_8 H 0.448540 0.106690 0.486590
C48_8 C 0.402220 0.005260 0.433140
H24_8 H 0.393310 0.013410 0.448540
O28_9 O 0.321070 0.148890 0.579290
O32_9 O 0.351110 0.178930 0.579290
O36_8 O 0.382480 0.162730 0.617520
O42_7 O 0.312220 0.157820 0.628750
O43_9 O 0.342180 0.187780 0.628750
O16_8 O 0.409440 0.936630 0.380370
C39_8 C 0.397690 0.946760 0.397690
C40_8 C 0.405190 0.971390 0.405190
C41_8 C 0.424740 0.982980 0.393810
H19_8 H 0.433950 0.974600 0.378720
C47_8 C 0.393810 0.982980 0.424740
H23_8 H 0.378720 0.974600 0.433950
O25_8 O 0.404820 0.934470 0.334630
O31_8 O 0.434470 0.904820 0.334630
O33_8 O 0.413160 0.868160 0.368160
C1_8 C 0.302090 0.853930 0.353930
C2_8 C 0.277460 0.846430 0.346430
C3_8 C 0.265870 0.857810 0.326880
C4_8 C 0.243590 0.849400 0.318480
C5_8 C 0.232350 0.829400 0.329400
C6_8 C 0.209650 0.819320 0.319320
N1_8 N 0.199530 0.800470 0.329190
H1_8 H 0.274250 0.872900 0.317670
H2_8 H 0.235440 0.858310 0.303080
C13_8 C 0.146070 0.697910 0.353930
C14_8 C 0.153570 0.722540 0.346430
C15_8 C 0.142190 0.734130 0.326880
C16_8 C 0.150600 0.756410 0.318480
C17_8 C 0.170600 0.767650 0.329400
C18_8 C 0.180680 0.790350 0.319320
H5_8 H 0.127100 0.725750 0.317670
H6_8 H 0.141690 0.764560 0.303080
O10_8 O 0.128750 0.842180 0.187780
C19_8 C 0.146070 0.853930 0.197910
C20_8 C 0.153570 0.846430 0.222540
C21_8 C 0.142190 0.826880 0.234130
C22_8 C 0.150600 0.818480 0.256410
C23_8 C 0.170600 0.829400 0.267650
C24_8 C 0.180680 0.819320 0.290350
N3_8 N 0.199530 0.829190 0.300470
H7_8 H 0.127100 0.817670 0.225750
H8_8 H 0.141690 0.803080 0.264560
O11_7 O 0.157820 0.687780 0.371250
C25_8 C 0.173120 0.734130 0.357810
C26_8 C 0.181520 0.756410 0.349400
N4_8 N 0.170810 0.800470 0.300470
H9_8 H 0.182330 0.725750 0.372900
H10_8 H 0.196920 0.764560 0.358310
C27_8 C 0.265870 0.826880 0.357810
C28_8 C 0.243590 0.818480 0.349400
H11_8 H 0.274250 0.817670 0.372900
H12_8 H 0.235440 0.803080 0.358310
O13_8 O 0.157820 0.871250 0.187780
C29_8 C 0.173120 0.857810 0.234130
C30_8 C 0.181520 0.849400 0.256410
H13_8 H 0.182330 0.872900 0.225750
H14_8 H 0.196920 0.858310 0.264560
O28_10 O 0.420710 0.851110 0.321070
O32_10 O 0.420710 0.821070 0.351110
Zr10_6 Zr 0.109000 0.845550 0.154450
O43_10 O 0.371250 0.812220 0.342180
C1_9 C 0.302090 0.646070 0.146070
C2_9 C 0.277460 0.653570 0.153570
C3_9 C 0.265870 0.673120 0.142190
C4_9 C 0.243590 0.681520 0.150600
C5_9 C 0.232350 0.670600 0.170600
C6_9 C 0.209650 0.680680 0.180680
N1_9 N 0.199530 0.670810 0.199530
H1_9 H 0.274250 0.682330 0.127100
H2_9 H 0.235440 0.696920 0.141690
C7_9 C 0.446760 0.602310 0.102310
C8_9 C 0.471390 0.594810 0.094810
C9_9 C 0.482980 0.606190 0.075260
C10_9 C 0.505260 0.597780 0.066860
C11_9 C 0.516500 0.577780 0.077780
C12_9 C 0.539200 0.567700 0.067700
N2_9 N 0.549320 0.549320 0.077570
H3_9 H 0.474600 0.621280 0.066050
H4_9 H 0.513410 0.606690 0.051460
C13_9 C 0.146070 0.646070 0.302090
C14_9 C 0.153570 0.653570 0.277460
C15_9 C 0.142190 0.673120 0.265870
C16_9 C 0.150600 0.681520 0.243590
C17_9 C 0.170600 0.670600 0.232350
C18_9 C 0.180680 0.680680 0.209650
H5_9 H 0.127100 0.682330 0.274250
H6_9 H 0.141690 0.696920 0.235440
O10_9 O 0.128750 0.812220 0.157820
C19_9 C 0.146070 0.802090 0.146070
C20_9 C 0.153570 0.777460 0.153570
C21_9 C 0.142190 0.765870 0.173120
C22_9 C 0.150600 0.743590 0.181520
C23_9 C 0.170600 0.732350 0.170600
C24_9 C 0.180680 0.709650 0.180680
N3_9 N 0.199530 0.699530 0.170810
H7_9 H 0.127100 0.774250 0.182330
H8_9 H 0.141690 0.735440 0.196920
O11_8 O 0.157820 0.628750 0.312220
C25_9 C 0.173120 0.642190 0.265870
C26_9 C 0.181520 0.650600 0.243590
N4_9 N 0.170810 0.699530 0.199530
H9_9 H 0.182330 0.627100 0.274250
H10_9 H 0.196920 0.641690 0.235440
C27_9 C 0.265870 0.642190 0.173120
C28_9 C 0.243590 0.650600 0.181520
H11_9 H 0.274250 0.627100 0.182330
H12_9 H 0.235440 0.641690 0.196920
O13_9 O 0.157820 0.812220 0.128750
C29_9 C 0.173120 0.765870 0.142190
C30_9 C 0.181520 0.743590 0.150600
H13_9 H 0.182330 0.774250 0.127100
H14_9 H 0.196920 0.735440 0.141690
O14_6 O 0.619630 0.436630 0.090560
C31_9 C 0.602310 0.446760 0.102310
C32_9 C 0.594810 0.471390 0.094810
C33_9 C 0.606190 0.482980 0.075260
C34_9 C 0.597780 0.505260 0.066860
C35_9 C 0.577780 0.516500 0.077780
C36_9 C 0.567700 0.539200 0.067700
H15_9 H 0.621280 0.474600 0.066050
H16_9 H 0.606690 0.513410 0.051460
O15_9 O 0.590560 0.436630 0.119630
C37_9 C 0.575260 0.482980 0.106190
C38_9 C 0.566860 0.505260 0.097780
N5_9 N 0.577570 0.549320 0.049320
H17_9 H 0.566050 0.474600 0.121280
H18_9 H 0.551460 0.513410 0.106690
C42_9 C 0.597780 0.566860 0.005260
C43_9 C 0.577780 0.577780 0.016500
C44_9 C 0.567700 0.567700 0.039200
N6_9 N 0.549320 0.577570 0.049320
H20_9 H 0.606690 0.551460 0.013410
O17_9 O 0.436630 0.590560 0.119630
C45_9 C 0.482980 0.575260 0.106190
C46_9 C 0.505260 0.566860 0.097780
H21_9 H 0.474600 0.566050 0.121280
H22_9 H 0.513410 0.551460 0.106690
C48_9 C 0.566860 0.597780 0.005260
H24_9 H 0.551460 0.606690 0.013410
O28_11 O 0.420710 0.678930 0.148890
O32_11 O 0.420710 0.648890 0.178930
Zr15_5 Zr 0.640520 0.404820 0.095180
O43_11 O 0.371250 0.657820 0.187780
O16_9 O 0.619630 0.590560 0.936630
C39_9 C 0.602310 0.602310 0.946760
C40_9 C 0.594810 0.594810 0.971390
C41_9 C 0.606190 0.575260 0.982980
H19_9 H 0.621280 0.566050 0.974600
O18_6 O 0.590560 0.619630 0.936630
C47_9 C 0.575260 0.606190 0.982980
H23_9 H 0.566050 0.621280 0.974600
O19_6 O 0.631840 0.631840 0.913160
O20_6 O 0.617520 0.662730 0.882480
O21_6 O 0.648890 0.678930 0.920710
O22_6 O 0.595180 0.665370 0.934470
Zr5_4 Zr 0.640520 0.595180 0.904820
O23_6 O 0.662730 0.617520 0.882480
O24_6 O 0.678930 0.648890 0.920710
O25_9 O 0.665370 0.595180 0.934470
O30_6 O 0.565530 0.665370 0.904820
O31_9 O 0.665370 0.565530 0.904820
O33_9 O 0.631840 0.586840 0.868160
O34_6 O 0.586840 0.631840 0.868160
O37_6 O 0.646450 0.646450 0.853550
O38_6 O 0.603180 0.603180 0.896820
O45_6 O 0.619630 0.563370 0.909440
O6_6 O 0.065530 0.404820 0.665370
C1_10 C 0.146070 0.302090 0.646070
C2_10 C 0.153570 0.277460 0.653570
C3_10 C 0.142190 0.265870 0.673120
C4_10 C 0.150600 0.243590 0.681520
C5_10 C 0.170600 0.232350 0.670600
C6_10 C 0.180680 0.209650 0.680680
N1_10 N 0.199530 0.199530 0.670810
H1_10 H 0.127100 0.274250 0.682330
H2_10 H 0.141690 0.235440 0.696920
O8_6 O 0.090560 0.436630 0.619630
C7_10 C 0.102310 0.446760 0.602310
C8_10 C 0.094810 0.471390 0.594810
C9_10 C 0.075260 0.482980 0.606190
C10_10 C 0.066860 0.505260 0.597780
C11_10 C 0.077780 0.516500 0.577780
C12_10 C 0.067700 0.539200 0.567700
N2_10 N 0.077570 0.549320 0.549320
H3_10 H 0.066050 0.474600 0.621280
H4_10 H 0.051460 0.513410 0.606690
C13_10 C 0.302090 0.146070 0.646070
C14_10 C 0.277460 0.153570 0.653570
C15_10 C 0.265870 0.142190 0.673120
C16_10 C 0.243590 0.150600 0.681520
C17_10 C 0.232350 0.170600 0.670600
C18_10 C 0.209650 0.180680 0.680680
H5_10 H 0.274250 0.127100 0.682330
H6_10 H 0.235440 0.141690 0.696920
O10_10 O 0.157820 0.128750 0.812220
C19_10 C 0.146070 0.146070 0.802090
C20_10 C 0.153570 0.153570 0.777460
C21_10 C 0.173120 0.142190 0.765870
C22_10 C 0.181520 0.150600 0.743590
C23_10 C 0.170600 0.170600 0.732350
C24_10 C 0.180680 0.180680 0.709650
N3_10 N 0.170810 0.199530 0.699530
H7_10 H 0.182330 0.127100 0.774250
H8_10 H 0.196920 0.141690 0.735440
C25_10 C 0.265870 0.173120 0.642190
C26_10 C 0.243590 0.181520 0.650600
N4_10 N 0.199530 0.170810 0.699530
H9_10 H 0.274250 0.182330 0.627100
H10_10 H 0.235440 0.196920 0.641690
C27_10 C 0.173120 0.265870 0.642190
C28_10 C 0.181520 0.243590 0.650600
H11_10 H 0.182330 0.274250 0.627100
H12_10 H 0.196920 0.235440 0.641690
O13_10 O 0.128750 0.157820 0.812220
C29_10 C 0.142190 0.173120 0.765870
C30_10 C 0.150600 0.181520 0.743590
H13_10 H 0.127100 0.182330 0.774250
H14_10 H 0.141690 0.196920 0.735440
C31_10 C 0.102310 0.602310 0.446760
C32_10 C 0.094810 0.594810 0.471390
C33_10 C 0.075260 0.606190 0.482980
C34_10 C 0.066860 0.597780 0.505260
C35_10 C 0.077780 0.577780 0.516500
C36_10 C 0.067700 0.567700 0.539200
H15_10 H 0.066050 0.621280 0.474600
H16_10 H 0.051460 0.606690 0.513410
O15_10 O 0.119630 0.590560 0.436630
C37_10 C 0.106190 0.575260 0.482980
C38_10 C 0.097780 0.566860 0.505260
N5_10 N 0.049320 0.577570 0.549320
H17_10 H 0.121280 0.566050 0.474600
H18_10 H 0.106690 0.551460 0.513410
C42_10 C 0.005260 0.597780 0.566860
C43_10 C 0.016500 0.577780 0.577780
C44_10 C 0.039200 0.567700 0.567700
N6_10 N 0.049320 0.549320 0.577570
H20_10 H 0.013410 0.606690 0.551460
O17_10 O 0.119630 0.436630 0.590560
C45_10 C 0.106190 0.482980 0.575260
C46_10 C 0.097780 0.505260 0.566860
H21_10 H 0.121280 0.474600 0.566050
H22_10 H 0.106690 0.513410 0.551460
C48_10 C 0.005260 0.566860 0.597780
H24_10 H 0.013410 0.551460 0.606690
O27_6 O 0.131840 0.413160 0.631840
O28_12 O 0.148890 0.420710 0.678930
O29_6 O 0.095180 0.434470 0.665370
O32_12 O 0.178930 0.420710 0.648890
O43_12 O 0.187780 0.371250 0.657820
O46_6 O 0.063370 0.409440 0.619630
C39_10 C 0.946760 0.602310 0.602310
C40_10 C 0.971390 0.594810 0.594810
C41_10 C 0.982980 0.606190 0.575260
H19_10 H 0.974600 0.621280 0.566050
O18_7 O 0.936630 0.590560 0.619630
C47_10 C 0.982980 0.575260 0.606190
H23_10 H 0.974600 0.566050 0.621280
O22_7 O 0.934470 0.595180 0.665370
O30_7 O 0.904820 0.565530 0.665370
O34_7 O 0.868160 0.586840 0.631840
O44_6 O 0.909440 0.563370 0.619630
C39_11 C 0.053240 0.397690 0.602310
C40_11 C 0.028610 0.405190 0.594810
C41_11 C 0.017020 0.393810 0.575260
H19_11 H 0.025400 0.378720 0.566050
C47_11 C 0.017020 0.424740 0.606190
H23_11 H 0.025400 0.433950 0.621280
C7_11 C 0.897690 0.553240 0.602310
C8_11 C 0.905190 0.528610 0.594810
C9_11 C 0.924740 0.517020 0.606190
C10_11 C 0.933140 0.494740 0.597780
C11_11 C 0.922220 0.483500 0.577780
C12_11 C 0.932300 0.460800 0.567700
N2_11 N 0.922430 0.450680 0.549320
H3_11 H 0.933950 0.525400 0.621280
H4_11 H 0.948540 0.486590 0.606690
C31_11 C 0.897690 0.397690 0.446760
C32_11 C 0.905190 0.405190 0.471390
C33_11 C 0.924740 0.393810 0.482980
C34_11 C 0.933140 0.402220 0.505260
C35_11 C 0.922220 0.422220 0.516500
C36_11 C 0.932300 0.432300 0.539200
H15_11 H 0.933950 0.378720 0.474600
H16_11 H 0.948540 0.393310 0.513410
O15_11 O 0.880370 0.409440 0.436630
C37_11 C 0.893810 0.424740 0.482980
C38_11 C 0.902220 0.433140 0.505260
N5_11 N 0.950680 0.422430 0.549320
H17_11 H 0.878720 0.433950 0.474600
H18_11 H 0.893310 0.448540 0.513410
C42_11 C 0.994740 0.402220 0.566860
C43_11 C 0.983500 0.422220 0.577780
C44_11 C 0.960800 0.432300 0.567700
N6_11 N 0.950680 0.450680 0.577570
H20_11 H 0.986590 0.393310 0.551460
O17_11 O 0.880370 0.563370 0.590560
C45_11 C 0.893810 0.517020 0.575260
C46_11 C 0.902220 0.494740 0.566860
H21_11 H 0.878720 0.525400 0.566050
H22_11 H 0.893310 0.486590 0.551460
C48_11 C 0.994740 0.433140 0.597780
H24_11 H 0.986590 0.448540 0.606690
O28_13 O 0.851110 0.579290 0.678930
O32_13 O 0.821070 0.579290 0.648890
O43_13 O 0.812220 0.628750 0.657820
O16_10 O 0.619630 0.409440 0.063370
C39_12 C 0.602310 0.397690 0.053240
C40_12 C 0.594810 0.405190 0.028610
C41_12 C 0.606190 0.424740 0.017020
H19_12 H 0.621280 0.433950 0.025400
O18_8 O 0.590560 0.380370 0.063370
C47_12 C 0.575260 0.393810 0.017020
H23_12 H 0.566050 0.378720 0.025400
O19_7 O 0.631840 0.368160 0.086840
O20_7 O 0.617520 0.337270 0.117520
O21_7 O 0.648890 0.321070 0.079290
O22_8 O 0.595180 0.334630 0.065530
O23_7 O 0.662730 0.382480 0.117520
O24_7 O 0.678930 0.351110 0.079290
O25_10 O 0.665370 0.404820 0.065530
O30_8 O 0.565530 0.334630 0.095180
O31_10 O 0.665370 0.434470 0.095180
Zr9_5 Zr 0.654450 0.391000 0.154450
O33_10 O 0.631840 0.413160 0.131840
O34_8 O 0.586840 0.368160 0.131840
O37_7 O 0.646450 0.353550 0.146450
O38_7 O 0.603180 0.396820 0.103180
O39_5 O 0.687780 0.342180 0.128750
C7_12 C 0.446760 0.397690 0.897690
C8_12 C 0.471390 0.405190 0.905190
C9_12 C 0.482980 0.393810 0.924740
C10_12 C 0.505260 0.402220 0.933140
C11_12 C 0.516500 0.422220 0.922220
C12_12 C 0.539200 0.432300 0.932300
N2_12 N 0.549320 0.450680 0.922430
H3_12 H 0.474600 0.378720 0.933950
H4_12 H 0.513410 0.393310 0.948540
C31_12 C 0.602310 0.553240 0.897690
C32_12 C 0.594810 0.528610 0.905190
C33_12 C 0.606190 0.517020 0.924740
C34_12 C 0.597780 0.494740 0.933140
C35_12 C 0.577780 0.483500 0.922220
C36_12 C 0.567700 0.460800 0.932300
H15_12 H 0.621280 0.525400 0.933950
H16_12 H 0.606690 0.486590 0.948540
O15_12 O 0.590560 0.563370 0.880370
C37_12 C 0.575260 0.517020 0.893810
C38_12 C 0.566860 0.494740 0.902220
N5_12 N 0.577570 0.450680 0.950680
H17_12 H 0.566050 0.525400 0.878720
H18_12 H 0.551460 0.486590 0.893310
C42_12 C 0.597780 0.433140 0.994740
C43_12 C 0.577780 0.422220 0.983500
C44_12 C 0.567700 0.432300 0.960800
N6_12 N 0.549320 0.422430 0.950680
H20_12 H 0.606690 0.448540 0.986590
O17_12 O 0.436630 0.409440 0.880370
C45_12 C 0.482980 0.424740 0.893810
C46_12 C 0.505260 0.433140 0.902220
H21_12 H 0.474600 0.433950 0.878720
H22_12 H 0.513410 0.448540 0.893310
C48_12 C 0.566860 0.402220 0.994740
H24_12 H 0.551460 0.393310 0.986590
O28_14 O 0.420710 0.321070 0.851110
O32_14 O 0.420710 0.351110 0.821070
O43_14 O 0.371250 0.342180 0.812220
C1_11 C 0.853930 0.302090 0.353930
C2_11 C 0.846430 0.277460 0.346430
C3_11 C 0.857810 0.265870 0.326880
C4_11 C 0.849400 0.243590 0.318480
C5_11 C 0.829400 0.232350 0.329400
C6_11 C 0.819320 0.209650 0.319320
N1_11 N 0.800470 0.199530 0.329190
H1_11 H 0.872900 0.274250 0.317670
H2_11 H 0.858310 0.235440 0.303080
C13_11 C 0.697910 0.146070 0.353930
C14_11 C 0.722540 0.153570 0.346430
C15_11 C 0.734130 0.142190 0.326880
C16_11 C 0.756410 0.150600 0.318480
C17_11 C 0.767650 0.170600 0.329400
C18_11 C 0.790350 0.180680 0.319320
H5_11 H 0.725750 0.127100 0.317670
H6_11 H 0.764560 0.141690 0.303080
O10_11 O 0.842180 0.128750 0.187780
C19_11 C 0.853930 0.146070 0.197910
C20_11 C 0.846430 0.153570 0.222540
C21_11 C 0.826880 0.142190 0.234130
C22_11 C 0.818480 0.150600 0.256410
C23_11 C 0.829400 0.170600 0.267650
C24_11 C 0.819320 0.180680 0.290350
N3_11 N 0.829190 0.199530 0.300470
H7_11 H 0.817670 0.127100 0.225750
H8_11 H 0.803080 0.141690 0.264560
C25_11 C 0.734130 0.173120 0.357810
C26_11 C 0.756410 0.181520 0.349400
N4_11 N 0.800470 0.170810 0.300470
H9_11 H 0.725750 0.182330 0.372900
H10_11 H 0.764560 0.196920 0.358310
O12_7 O 0.842180 0.312220 0.371250
C27_11 C 0.826880 0.265870 0.357810
C28_11 C 0.818480 0.243590 0.349400
H11_11 H 0.817670 0.274250 0.372900
H12_11 H 0.803080 0.235440 0.358310
O13_11 O 0.871250 0.157820 0.187780
C29_11 C 0.857810 0.173120 0.234130
C30_11 C 0.849400 0.181520 0.256410
H13_11 H 0.872900 0.182330 0.225750
H14_11 H 0.858310 0.196920 0.264560
O28_15 O 0.851110 0.420710 0.321070
O32_15 O 0.821070 0.420710 0.351110
Zr11_6 Zr 0.891000 0.154450 0.154450
O36_9 O 0.837270 0.382480 0.382480
O42_8 O 0.842180 0.371250 0.312220
O43_15 O 0.812220 0.371250 0.342180
C1_12 C 0.697910 0.353930 0.146070
C2_12 C 0.722540 0.346430 0.153570
C3_12 C 0.734130 0.326880 0.142190
C4_12 C 0.756410 0.318480 0.150600
C5_12 C 0.767650 0.329400 0.170600
C6_12 C 0.790350 0.319320 0.180680
N1_12 N 0.800470 0.329190 0.199530
H1_12 H 0.725750 0.317670 0.127100
H2_12 H 0.764560 0.303080 0.141690
C13_12 C 0.853930 0.353930 0.302090
C14_12 C 0.846430 0.346430 0.277460
C15_12 C 0.857810 0.326880 0.265870
C16_12 C 0.849400 0.318480 0.243590
C17_12 C 0.829400 0.329400 0.232350
C18_12 C 0.819320 0.319320 0.209650
H5_12 H 0.872900 0.317670 0.274250
H6_12 H 0.858310 0.303080 0.235440
O10_12 O 0.871250 0.187780 0.157820
C19_12 C 0.853930 0.197910 0.146070
C20_12 C 0.846430 0.222540 0.153570
C21_12 C 0.857810 0.234130 0.173120
C22_12 C 0.849400 0.256410 0.181520
C23_12 C 0.829400 0.267650 0.170600
C24_12 C 0.819320 0.290350 0.180680
N3_12 N 0.800470 0.300470 0.170810
H7_12 H 0.872900 0.225750 0.182330
H8_12 H 0.858310 0.264560 0.196920
C25_12 C 0.826880 0.357810 0.265870
C26_12 C 0.818480 0.349400 0.243590
N4_12 N 0.829190 0.300470 0.199530
H9_12 H 0.817670 0.372900 0.274250
H10_12 H 0.803080 0.358310 0.235440
O12_8 O 0.687780 0.371250 0.157820
C27_12 C 0.734130 0.357810 0.173120
C28_12 C 0.756410 0.349400 0.181520
H11_12 H 0.725750 0.372900 0.182330
H12_12 H 0.764560 0.358310 0.196920
O13_12 O 0.842180 0.187780 0.128750
C29_12 C 0.826880 0.234130 0.142190
C30_12 C 0.818480 0.256410 0.150600
H13_12 H 0.817670 0.225750 0.127100
H14_12 H 0.803080 0.264560 0.141690
O28_16 O 0.579290 0.321070 0.148890
O32_16 O 0.579290 0.351110 0.178930
O36_10 O 0.617520 0.382480 0.162730
O43_16 O 0.628750 0.342180 0.187780
O28_17 O 0.579290 0.678930 0.851110
O32_17 O 0.579290 0.648890 0.821070
O36_11 O 0.617520 0.617520 0.837270
O43_17 O 0.628750 0.657820 0.812220
O28_18 O 0.148890 0.579290 0.321070
O32_18 O 0.178930 0.579290 0.351110
O36_12 O 0.162730 0.617520 0.382480
O43_18 O 0.187780 0.628750 0.342180
O28_19 O 0.851110 0.321070 0.420710
O32_19 O 0.821070 0.351110 0.420710
O43_19 O 0.812220 0.342180 0.371250
O28_20 O 0.148890 0.678930 0.420710
O32_20 O 0.178930 0.648890 0.420710
O43_20 O 0.187780 0.657820 0.371250
O28_21 O 0.678930 0.579290 0.851110
O32_21 O 0.648890 0.579290 0.821070
O43_21 O 0.657820 0.628750 0.812220
O28_22 O 0.678930 0.420710 0.148890
O32_22 O 0.648890 0.420710 0.178930
O43_22 O 0.657820 0.371250 0.187780
O28_23 O 0.579290 0.148890 0.321070
O32_23 O 0.579290 0.178930 0.351110
O43_23 O 0.628750 0.187780 0.342180
O28_24 O 0.420710 0.148890 0.678930
O32_24 O 0.420710 0.178930 0.648890
O43_24 O 0.371250 0.187780 0.657820
O25_11 O 0.595180 0.434470 0.165370
O31_11 O 0.565530 0.404820 0.165370
C1_13 C 0.646070 0.646070 0.802090
C2_13 C 0.653570 0.653570 0.777460
C3_13 C 0.673120 0.642190 0.765870
C4_13 C 0.681520 0.650600 0.743590
C5_13 C 0.670600 0.670600 0.732350
C6_13 C 0.680680 0.680680 0.709650
N1_13 N 0.670810 0.699530 0.699530
H1_13 H 0.682330 0.627100 0.774250
H2_13 H 0.696920 0.641690 0.735440
C13_13 C 0.646070 0.802090 0.646070
C14_13 C 0.653570 0.777460 0.653570
C15_13 C 0.673120 0.765870 0.642190
C16_13 C 0.681520 0.743590 0.650600
C17_13 C 0.670600 0.732350 0.670600
C18_13 C 0.680680 0.709650 0.680680
H5_13 H 0.682330 0.774250 0.627100
H6_13 H 0.696920 0.735440 0.641690
C19_13 C 0.802090 0.646070 0.646070
C20_13 C 0.777460 0.653570 0.653570
C21_13 C 0.765870 0.673120 0.642190
C22_13 C 0.743590 0.681520 0.650600
C23_13 C 0.732350 0.670600 0.670600
C24_13 C 0.709650 0.680680 0.680680
N3_13 N 0.699530 0.670810 0.699530
H7_13 H 0.774250 0.682330 0.627100
H8_13 H 0.735440 0.696920 0.641690
C25_13 C 0.642190 0.765870 0.673120
C26_13 C 0.650600 0.743590 0.681520
N4_13 N 0.699530 0.699530 0.670810
H9_13 H 0.627100 0.774250 0.682330
H10_13 H 0.641690 0.735440 0.696920
C27_13 C 0.642190 0.673120 0.765870
C28_13 C 0.650600 0.681520 0.743590
H11_13 H 0.627100 0.682330 0.774250
H12_13 H 0.641690 0.696920 0.735440
C29_13 C 0.765870 0.642190 0.673120
C30_13 C 0.743590 0.650600 0.681520
H13_13 H 0.774250 0.627100 0.682330
H14_13 H 0.735440 0.641690 0.696920
Zr2_6 Zr 0.140520 0.095180 0.904820
O1_6 O 0.131840 0.086840 0.868160
O2_6 O 0.162730 0.117520 0.882480
O3_6 O 0.146450 0.146450 0.853550
O4_6 O 0.103180 0.103180 0.896820
O5_6 O 0.178930 0.079290 0.851110
O6_7 O 0.165370 0.065530 0.904820
O8_7 O 0.119630 0.090560 0.936630
C7_13 C 0.102310 0.102310 0.946760
C8_13 C 0.094810 0.094810 0.971390
C9_13 C 0.106190 0.075260 0.982980
H3_13 H 0.121280 0.066050 0.974600
O17_13 O 0.090560 0.119630 0.936630
C45_13 C 0.075260 0.106190 0.982980
H21_13 H 0.066050 0.121280 0.974600
O26_6 O 0.148890 0.079290 0.821070
O27_7 O 0.131840 0.131840 0.913160
O28_25 O 0.178930 0.148890 0.920710
O29_7 O 0.165370 0.095180 0.934470
O32_25 O 0.148890 0.178930 0.920710
Zr14_6 Zr 0.095180 0.095180 0.859480
Zr17_7 Zr 0.095180 0.140520 0.904820
O35_6 O 0.117520 0.117520 0.837270
O36_13 O 0.117520 0.162730 0.882480
O46_7 O 0.119630 0.063370 0.909440
O16_11 O 0.090560 0.936630 0.119630
C39_13 C 0.102310 0.946760 0.102310
C40_13 C 0.094810 0.971390 0.094810
C41_13 C 0.075260 0.982980 0.106190
H19_13 H 0.066050 0.974600 0.121280
O18_9 O 0.119630 0.936630 0.090560
C47_13 C 0.106190 0.982980 0.075260
H23_13 H 0.121280 0.974600 0.066050
Zr4_6 Zr 0.140520 0.904820 0.095180
O19_8 O 0.131840 0.913160 0.131840
O20_8 O 0.162730 0.882480 0.117520
O21_8 O 0.178930 0.920710 0.148890
O22_9 O 0.165370 0.934470 0.095180
Zr5_5 Zr 0.095180 0.904820 0.140520
O23_8 O 0.117520 0.882480 0.162730
O24_8 O 0.148890 0.920710 0.178930
O25_12 O 0.095180 0.934470 0.165370
O30_9 O 0.165370 0.904820 0.065530
O31_12 O 0.065530 0.904820 0.165370
O33_11 O 0.086840 0.868160 0.131840
O34_9 O 0.131840 0.868160 0.086840
O37_8 O 0.146450 0.853550 0.146450
O38_8 O 0.103180 0.896820 0.103180
O44_7 O 0.119630 0.909440 0.063370
O45_7 O 0.063370 0.909440 0.119630
O14_7 O 0.936630 0.090560 0.119630
C31_13 C 0.946760 0.102310 0.102310
C32_13 C 0.971390 0.094810 0.094810
C33_13 C 0.982980 0.075260 0.106190
H15_13 H 0.974600 0.066050 0.121280
O15_13 O 0.936630 0.119630 0.090560
C37_13 C 0.982980 0.106190 0.075260
H17_13 H 0.974600 0.121280 0.066050
Zr15_6 Zr 0.904820 0.095180 0.140520
Zr16_7 Zr 0.904820 0.140520 0.095180
O6_8 O 0.165370 0.565530 0.404820
O22_10 O 0.165370 0.434470 0.595180
O29_8 O 0.165370 0.595180 0.434470
O30_10 O 0.165370 0.404820 0.565530
O14_8 O 0.090560 0.063370 0.880370
C31_14 C 0.102310 0.053240 0.897690
C32_14 C 0.094810 0.028610 0.905190
C33_14 C 0.075260 0.017020 0.893810
H15_14 H 0.066050 0.025400 0.878720
C37_14 C 0.106190 0.017020 0.924740
H17_14 H 0.121280 0.025400 0.933950
Zr2_7 Zr 0.095180 0.859480 0.095180
O2_7 O 0.117520 0.837270 0.117520
O5_7 O 0.079290 0.821070 0.148890
O6_9 O 0.065530 0.834630 0.095180
O8_8 O 0.090560 0.880370 0.063370
C7_14 C 0.102310 0.897690 0.053240
C8_14 C 0.094810 0.905190 0.028610
C9_14 C 0.075260 0.893810 0.017020
H3_14 H 0.066050 0.878720 0.025400
C45_14 C 0.106190 0.924740 0.017020
H21_14 H 0.121280 0.933950 0.025400
O26_7 O 0.079290 0.851110 0.178930
O28_26 O 0.148890 0.821070 0.079290
O29_9 O 0.095180 0.834630 0.065530
O32_26 O 0.178930 0.851110 0.079290
O46_8 O 0.063370 0.880370 0.090560
O16_12 O 0.936630 0.909440 0.880370
C39_14 C 0.946760 0.897690 0.897690
C40_14 C 0.971390 0.905190 0.905190
C41_14 C 0.982980 0.924740 0.893810
H19_14 H 0.974600 0.933950 0.878720
O18_10 O 0.936630 0.880370 0.909440
C47_14 C 0.982980 0.893810 0.924740
H23_14 H 0.974600 0.878720 0.933950
Zr4_7 Zr 0.904820 0.859480 0.904820
O19_9 O 0.913160 0.868160 0.868160
O20_9 O 0.882480 0.837270 0.882480
O21_9 O 0.920710 0.821070 0.851110
O22_11 O 0.934470 0.834630 0.904820
Zr5_6 Zr 0.904820 0.904820 0.859480
O23_9 O 0.882480 0.882480 0.837270
O24_9 O 0.920710 0.851110 0.821070
O25_13 O 0.934470 0.904820 0.834630
O30_11 O 0.904820 0.834630 0.934470
O31_13 O 0.904820 0.934470 0.834630
O33_12 O 0.868160 0.913160 0.868160
O34_10 O 0.868160 0.868160 0.913160
O37_9 O 0.853550 0.853550 0.853550
O38_9 O 0.896820 0.896820 0.896820
O44_8 O 0.909440 0.880370 0.936630
O45_8 O 0.909440 0.936630 0.880370
C1_14 C 0.646070 0.353930 0.197910
C2_14 C 0.653570 0.346430 0.222540
C3_14 C 0.642190 0.326880 0.234130
C4_14 C 0.650600 0.318480 0.256410
C5_14 C 0.670600 0.329400 0.267650
C6_14 C 0.680680 0.319320 0.290350
N1_14 N 0.699530 0.329190 0.300470
H1_14 H 0.627100 0.317670 0.225750
H2_14 H 0.641690 0.303080 0.264560
C13_14 C 0.802090 0.353930 0.353930
C14_14 C 0.777460 0.346430 0.346430
C15_14 C 0.765870 0.326880 0.357810
C16_14 C 0.743590 0.318480 0.349400
C17_14 C 0.732350 0.329400 0.329400
C18_14 C 0.709650 0.319320 0.319320
H5_14 H 0.774250 0.317670 0.372900
H6_14 H 0.735440 0.303080 0.358310
C19_14 C 0.646070 0.197910 0.353930
C20_14 C 0.653570 0.222540 0.346430
C21_14 C 0.673120 0.234130 0.357810
C22_14 C 0.681520 0.256410 0.349400
C23_14 C 0.670600 0.267650 0.329400
C24_14 C 0.680680 0.290350 0.319320
N3_14 N 0.670810 0.300470 0.300470
H7_14 H 0.682330 0.225750 0.372900
H8_14 H 0.696920 0.264560 0.358310
C25_14 C 0.765870 0.357810 0.326880
C26_14 C 0.743590 0.349400 0.318480
N4_14 N 0.699530 0.300470 0.329190
H9_14 H 0.774250 0.372900 0.317670
H10_14 H 0.735440 0.358310 0.303080
C27_14 C 0.673120 0.357810 0.234130
C28_14 C 0.681520 0.349400 0.256410
H11_14 H 0.682330 0.372900 0.225750
H12_14 H 0.696920 0.358310 0.264560
C29_14 C 0.642190 0.234130 0.326880
C30_14 C 0.650600 0.256410 0.318480
H13_14 H 0.627100 0.225750 0.317670
H14_14 H 0.641690 0.264560 0.303080
O25_14 O 0.434470 0.404820 0.834630
O31_14 O 0.404820 0.434470 0.834630
O6_10 O 0.565530 0.834630 0.595180
O22_12 O 0.434470 0.834630 0.404820
O29_10 O 0.595180 0.834630 0.565530
O30_12 O 0.404820 0.834630 0.434470
O25_15 O 0.404820 0.565530 0.165370
O31_15 O 0.434470 0.595180 0.165370
C1_15 C 0.353930 0.353930 0.802090
C2_15 C 0.346430 0.346430 0.777460
C3_15 C 0.326880 0.357810 0.765870
C4_15 C 0.318480 0.349400 0.743590
C5_15 C 0.329400 0.329400 0.732350
C6_15 C 0.319320 0.319320 0.709650
N1_15 N 0.329190 0.300470 0.699530
H1_15 H 0.317670 0.372900 0.774250
H2_15 H 0.303080 0.358310 0.735440
C13_15 C 0.353930 0.197910 0.646070
C14_15 C 0.346430 0.222540 0.653570
C15_15 C 0.326880 0.234130 0.642190
C16_15 C 0.318480 0.256410 0.650600
C17_15 C 0.329400 0.267650 0.670600
C18_15 C 0.319320 0.290350 0.680680
H5_15 H 0.317670 0.225750 0.627100
H6_15 H 0.303080 0.264560 0.641690
C19_15 C 0.197910 0.353930 0.646070
C20_15 C 0.222540 0.346430 0.653570
C21_15 C 0.234130 0.326880 0.642190
C22_15 C 0.256410 0.318480 0.650600
C23_15 C 0.267650 0.329400 0.670600
C24_15 C 0.290350 0.319320 0.680680
N3_15 N 0.300470 0.329190 0.699530
H7_15 H 0.225750 0.317670 0.627100
H8_15 H 0.264560 0.303080 0.641690
C25_15 C 0.357810 0.234130 0.673120
C26_15 C 0.349400 0.256410 0.681520
N4_15 N 0.300470 0.300470 0.670810
H9_15 H 0.372900 0.225750 0.682330
H10_15 H 0.358310 0.264560 0.696920
C27_15 C 0.357810 0.326880 0.765870
C28_15 C 0.349400 0.318480 0.743590
H11_15 H 0.372900 0.317670 0.774250
H12_15 H 0.358310 0.303080 0.735440
C29_15 C 0.234130 0.357810 0.673120
C30_15 C 0.256410 0.349400 0.681520
H13_15 H 0.225750 0.372900 0.682330
H14_15 H 0.264560 0.358310 0.696920
C31_15 C 0.053240 0.897690 0.102310
C32_15 C 0.028610 0.905190 0.094810
C33_15 C 0.017020 0.924740 0.106190
H15_15 H 0.025400 0.933950 0.121280
C37_15 C 0.017020 0.893810 0.075260
H17_15 H 0.025400 0.878720 0.066050
O16_13 O 0.909440 0.063370 0.119630
C39_15 C 0.897690 0.053240 0.102310
C40_15 C 0.905190 0.028610 0.094810
C41_15 C 0.924740 0.017020 0.106190
H19_15 H 0.933950 0.025400 0.121280
O18_11 O 0.880370 0.063370 0.090560
C47_15 C 0.893810 0.017020 0.075260
H23_15 H 0.878720 0.025400 0.066050
Zr4_8 Zr 0.859480 0.095180 0.095180
O19_10 O 0.868160 0.086840 0.131840
O20_10 O 0.837270 0.117520 0.117520
O21_10 O 0.821070 0.079290 0.148890
O22_13 O 0.834630 0.065530 0.095180
O23_10 O 0.882480 0.117520 0.162730
O24_10 O 0.851110 0.079290 0.178930
O25_16 O 0.904820 0.065530 0.165370
O30_13 O 0.834630 0.095180 0.065530
O31_16 O 0.934470 0.095180 0.165370
O33_13 O 0.913160 0.131840 0.131840
O34_11 O 0.868160 0.131840 0.086840
O37_10 O 0.853550 0.146450 0.146450
O38_10 O 0.896820 0.103180 0.103180
O44_9 O 0.880370 0.090560 0.063370
Zr2_8 Zr 0.859480 0.904820 0.904820
O2_8 O 0.837270 0.882480 0.882480
O5_8 O 0.821070 0.920710 0.851110
O6_11 O 0.834630 0.934470 0.904820
O8_9 O 0.880370 0.909440 0.936630
C7_15 C 0.897690 0.897690 0.946760
C8_15 C 0.905190 0.905190 0.971390
C9_15 C 0.893810 0.924740 0.982980
H3_15 H 0.878720 0.933950 0.974600
C45_15 C 0.924740 0.893810 0.982980
H21_15 H 0.933950 0.878720 0.974600
O26_8 O 0.851110 0.920710 0.821070
O28_27 O 0.821070 0.851110 0.920710
O29_11 O 0.834630 0.904820 0.934470
O32_27 O 0.851110 0.821070 0.920710
O46_9 O 0.880370 0.936630 0.909440
O6_12 O 0.834630 0.434470 0.404820
O22_14 O 0.834630 0.565530 0.595180
O29_12 O 0.834630 0.404820 0.434470
O30_14 O 0.834630 0.595180 0.565530
O16_14 O 0.063370 0.090560 0.880370
C39_16 C 0.053240 0.102310 0.897690
C40_16 C 0.028610 0.094810 0.905190
C41_16 C 0.017020 0.075260 0.893810
H19_16 H 0.025400 0.066050 0.878720
O18_12 O 0.063370 0.119630 0.909440
C47_16 C 0.017020 0.106190 0.924740
H23_16 H 0.025400 0.121280 0.933950
O19_11 O 0.086840 0.131840 0.868160
O21_11 O 0.079290 0.178930 0.851110
O22_15 O 0.065530 0.165370 0.904820
O24_11 O 0.079290 0.148890 0.821070
O25_17 O 0.065530 0.095180 0.834630
O30_15 O 0.095180 0.165370 0.934470
O31_17 O 0.095180 0.065530 0.834630
O2_9 O 0.882480 0.162730 0.117520
O5_9 O 0.920710 0.178930 0.148890
O6_13 O 0.934470 0.165370 0.095180
O8_10 O 0.909440 0.119630 0.063370
C7_16 C 0.897690 0.102310 0.053240
C8_16 C 0.905190 0.094810 0.028610
C9_16 C 0.924740 0.106190 0.017020
H3_16 H 0.933950 0.121280 0.025400
C45_16 C 0.893810 0.075260 0.017020
H21_16 H 0.878720 0.066050 0.025400
O26_9 O 0.920710 0.148890 0.178930
O28_28 O 0.851110 0.178930 0.079290
O29_13 O 0.904820 0.165370 0.065530
O32_28 O 0.821070 0.148890 0.079290
C31_16 C 0.897690 0.946760 0.897690
C32_16 C 0.905190 0.971390 0.905190
C33_16 C 0.924740 0.982980 0.893810
H15_16 H 0.933950 0.974600 0.878720
C37_16 C 0.893810 0.982980 0.924740
H17_16 H 0.878720 0.974600 0.933950
C1_16 C 0.353930 0.646070 0.197910
C2_16 C 0.346430 0.653570 0.222540
C3_16 C 0.357810 0.673120 0.234130
C4_16 C 0.349400 0.681520 0.256410
C5_16 C 0.329400 0.670600 0.267650
C6_16 C 0.319320 0.680680 0.290350
N1_16 N 0.300470 0.670810 0.300470
H1_16 H 0.372900 0.682330 0.225750
H2_16 H 0.358310 0.696920 0.264560
C13_16 C 0.197910 0.646070 0.353930
C14_16 C 0.222540 0.653570 0.346430
C15_16 C 0.234130 0.673120 0.357810
C16_16 C 0.256410 0.681520 0.349400
C17_16 C 0.267650 0.670600 0.329400
C18_16 C 0.290350 0.680680 0.319320
H5_16 H 0.225750 0.682330 0.372900
H6_16 H 0.264560 0.696920 0.358310
C19_16 C 0.353930 0.802090 0.353930
C20_16 C 0.346430 0.777460 0.346430
C21_16 C 0.326880 0.765870 0.357810
C22_16 C 0.318480 0.743590 0.349400
C23_16 C 0.329400 0.732350 0.329400
C24_16 C 0.319320 0.709650 0.319320
N3_16 N 0.329190 0.699530 0.300470
H7_16 H 0.317670 0.774250 0.372900
H8_16 H 0.303080 0.735440 0.358310
C25_16 C 0.234130 0.642190 0.326880
C26_16 C 0.256410 0.650600 0.318480
N4_16 N 0.300470 0.699530 0.329190
H9_16 H 0.225750 0.627100 0.317670
H10_16 H 0.264560 0.641690 0.303080
C27_16 C 0.326880 0.642190 0.234130
C28_16 C 0.318480 0.650600 0.256410
H11_16 H 0.317670 0.627100 0.225750
H12_16 H 0.303080 0.641690 0.264560
C29_16 C 0.357810 0.765870 0.326880
C30_16 C 0.349400 0.743590 0.318480
H13_16 H 0.372900 0.774250 0.317670
H14_16 H 0.358310 0.735440 0.303080
O25_18 O 0.565530 0.595180 0.834630
O31_18 O 0.595180 0.565530 0.834630
O6_14 O 0.434470 0.165370 0.595180
O22_16 O 0.565530 0.165370 0.404820
O29_14 O 0.404820 0.165370 0.565530
O30_16 O 0.595180 0.165370 0.434470
C10_13 C 0.097780 0.066860 0.005260
C11_13 C 0.077780 0.077780 0.016500
C12_13 C 0.067700 0.067700 0.039200
N2_13 N 0.049320 0.077570 0.049320
H4_13 H 0.106690 0.051460 0.013410
C34_13 C 0.005260 0.066860 0.097780
C35_13 C 0.016500 0.077780 0.077780
C36_13 C 0.039200 0.067700 0.067700
H16_13 H 0.013410 0.051460 0.106690
C38_13 C 0.005260 0.097780 0.066860
N5_13 N 0.049320 0.049320 0.077570
H18_13 H 0.013410 0.106690 0.051460
C42_13 C 0.066860 0.005260 0.097780
C43_13 C 0.077780 0.016500 0.077780
C44_13 C 0.067700 0.039200 0.067700
N6_13 N 0.077570 0.049320 0.049320
H20_13 H 0.051460 0.013410 0.106690
C46_13 C 0.066860 0.097780 0.005260
H22_13 H 0.051460 0.106690 0.013410
C48_13 C 0.097780 0.005260 0.066860
H24_13 H 0.106690 0.013410 0.051460
C10_14 C 0.066860 0.902220 0.994740
C11_14 C 0.077780 0.922220 0.983500
C12_14 C 0.067700 0.932300 0.960800
N2_14 N 0.077570 0.950680 0.950680
H4_14 H 0.051460 0.893310 0.986590
C34_14 C 0.066860 0.994740 0.902220
C35_14 C 0.077780 0.983500 0.922220
C36_14 C 0.067700 0.960800 0.932300
H16_14 H 0.051460 0.986590 0.893310
C38_14 C 0.097780 0.994740 0.933140
N5_14 N 0.049320 0.950680 0.922430
H18_14 H 0.106690 0.986590 0.948540
C42_14 C 0.005260 0.933140 0.902220
C43_14 C 0.016500 0.922220 0.922220
C44_14 C 0.039200 0.932300 0.932300
N6_14 N 0.049320 0.922430 0.950680
H20_14 H 0.013410 0.948540 0.893310
C46_14 C 0.097780 0.933140 0.994740
H22_14 H 0.106690 0.948540 0.986590
C48_14 C 0.005260 0.902220 0.933140
H24_14 H 0.013410 0.893310 0.948540
C10_15 C 0.902220 0.933140 0.005260
C11_15 C 0.922220 0.922220 0.016500
C12_15 C 0.932300 0.932300 0.039200
N2_15 N 0.950680 0.922430 0.049320
H4_15 H 0.893310 0.948540 0.013410
C34_15 C 0.994740 0.933140 0.097780
C35_15 C 0.983500 0.922220 0.077780
C36_15 C 0.960800 0.932300 0.067700
H16_15 H 0.986590 0.948540 0.106690
C38_15 C 0.994740 0.902220 0.066860
N5_15 N 0.950680 0.950680 0.077570
H18_15 H 0.986590 0.893310 0.051460
C42_15 C 0.933140 0.994740 0.097780
C43_15 C 0.922220 0.983500 0.077780
C44_15 C 0.932300 0.960800 0.067700
N6_15 N 0.922430 0.950680 0.049320
H20_15 H 0.948540 0.986590 0.106690
C46_15 C 0.933140 0.902220 0.005260
H22_15 H 0.948540 0.893310 0.013410
C48_15 C 0.902220 0.994740 0.066860
H24_15 H 0.893310 0.986590 0.051460
C10_16 C 0.933140 0.097780 0.994740
C11_16 C 0.922220 0.077780 0.983500
C12_16 C 0.932300 0.067700 0.960800
N2_16 N 0.922430 0.049320 0.950680
H4_16 H 0.948540 0.106690 0.986590
C34_16 C 0.933140 0.005260 0.902220
C35_16 C 0.922220 0.016500 0.922220
C36_16 C 0.932300 0.039200 0.932300
H16_16 H 0.948540 0.013410 0.893310
C38_16 C 0.902220 0.005260 0.933140
N5_16 N 0.950680 0.049320 0.922430
H18_16 H 0.893310 0.013410 0.948540
C42_16 C 0.994740 0.066860 0.902220
C43_16 C 0.983500 0.077780 0.922220
C44_16 C 0.960800 0.067700 0.932300
N6_16 N 0.950680 0.077570 0.950680
H20_16 H 0.986590 0.051460 0.893310
C46_16 C 0.902220 0.066860 0.994740
H22_16 H 0.893310 0.051460 0.986590
C48_16 C 0.994740 0.097780 0.933140
H24_16 H 0.986590 0.106690 0.948540
loop_
_geom_bond_atom_site_label_1
_geom_bond_atom_site_label_2
_geom_bond_site_symmetry_1
_geom_bond_site_symmetry_2
Zr1 O1 1_555 1_555
Zr2 O1 1_555 1_555
O1 Zr14 1_555 1_555
O2 Zr1 1_555 1_555
O3 Zr1 1_555 1_555
O4 Zr2 1_555 1_555
O5 Zr1 1_555 1_555
O6 Zr2 1_555 1_555
O7 Zr1 1_555 1_555
C1 O7 1_555 1_555
C2 C1 1_555 1_555
C3 C2 1_555 1_555
C4 C3 1_555 1_555
C5 C4 1_555 1_555
C6 C5 1_555 1_555
N1 C6 1_555 1_555
H1 C3 1_555 1_555
H2 C4 1_555 1_555
O8 Zr2 1_555 1_555
C7 O8 1_555 1_555
C8 C7 1_555 1_555
C9 C8 1_555 1_555
C10 C9 1_555 1_555
C11 C10 1_555 1_555
C12 C11 1_555 1_555
N2 C12 1_555 1_555
H3 C9 1_555 1_555
H4 C10 1_555 1_555
O9 C13 1_555 1_555
C13 C14 1_555 1_555
C14 C15 1_555 1_555
C15 C16 1_555 1_555
C16 C17 1_555 1_555
C17 C18 1_555 1_555
C18 N1 1_555 1_555
H5 C15 1_555 1_555
H6 C16 1_555 1_555
O10 C19 1_555 1_555
C19 C20 1_555 1_555
C20 C21 1_555 1_555
C21 C22 1_555 1_555
C22 C23 1_555 1_555
C23 C24 1_555 1_555
C24 N3 1_555 1_555
N3 C6 1_555 1_555
H7 C21 1_555 1_555
H8 C22 1_555 1_555
O11 C13 1_555 1_555
C25 C14 1_555 1_555
C26 C17 1_555 1_555
N4 C18 1_555 1_555
H9 C25 1_555 1_555
H10 C26 1_555 1_555
O12 C1 1_555 1_555
C27 C2 1_555 1_555
C28 C5 1_555 1_555
H11 C27 1_555 1_555
H12 C28 1_555 1_555
O13 C19 1_555 1_555
C29 C20 1_555 1_555
C30 C23 1_555 1_555
H13 C29 1_555 1_555
H14 C30 1_555 1_555
O14 C31 1_555 1_555
C31 C32 1_555 1_555
C32 C33 1_555 1_555
C33 C34 1_555 1_555
C34 C35 1_555 1_555
C35 C36 1_555 1_555
C36 N2 1_555 1_555
H15 C33 1_555 1_555
H16 C34 1_555 1_555
O15 C31 1_555 1_555
C37 C32 1_555 1_555
C38 C35 1_555 1_555
N5 C36 1_555 1_555
H17 C37 1_555 1_555
H18 C38 1_555 1_555
C42 C43 1_555 1_555
C43 C44 1_555 1_555
C44 N5 1_555 1_555
N6 C12 1_555 1_555
H20 C42 1_555 1_555
O17 C7 1_555 1_555
C45 C8 1_555 1_555
C46 C11 1_555 1_555
H21 C45 1_555 1_555
H22 C46 1_555 1_555
C48 C43 1_555 1_555
H24 C48 1_555 1_555
O26 Zr1 1_555 1_555
Zr6 O2 1_555 1_555
O27 Zr2 1_555 1_555
O28 Zr6 1_555 1_555
O29 Zr2 1_555 1_555
O32 Zr6 1_555 1_555
Zr7 O9 1_555 1_555
Zr8 O11 1_555 1_555
Zr10 O10 1_555 1_555
Zr11 O13 1_555 1_555
Zr13 O3 1_555 1_555
Zr14 O4 1_555 1_555
Zr15 O14 1_555 1_555
Zr16 O15 1_555 1_555
Zr17 O4 1_555 1_555
O35 Zr1 1_555 1_555
O36 Zr6 1_555 1_555
O41 Zr1 1_555 1_555
O42 Zr6 1_555 1_555
O43 Zr6 1_555 1_555
O46 Zr2 1_555 1_555
Zr2 O2 1_555 1_555
O3 Zr6 1_555 1_555
C24 N4 1_555 1_555
C25 C26 1_555 1_555
O12 Zr13 1_555 1_555
C27 C28 1_555 1_555
C29 C30 1_555 1_555
C37 C38 1_555 1_555
C44 N6 1_555 1_555
O17 Zr17 1_555 1_555
C45 C46 1_555 1_555
Zr6 O27 1_555 1_555
O27 Zr17 1_555 1_555
Zr13 O35 1_555 1_555
Zr13 O36 1_555 1_555
Zr14 O35 1_555 1_555
Zr17 O36 1_555 1_555
O16 C39 1_555 1_555
C39 C40 1_555 1_555
C40 C41 1_555 1_555
H19 C41 1_555 1_555
O18 C39 1_555 1_555
C47 C40 1_555 1_555
H23 C47 1_555 1_555
Zr3 O19 1_555 1_555
Zr4 O18 1_555 1_555
O19 Zr4 1_555 1_555
O20 Zr3 1_555 1_555
O21 Zr3 1_555 1_555
O22 Zr4 1_555 1_555
Zr5 O16 1_555 1_555
O23 Zr3 1_555 1_555
O24 Zr3 1_555 1_555
O25 Zr5 1_555 1_555
O30 Zr4 1_555 1_555
O31 Zr5 1_555 1_555
Zr9 O23 1_555 1_555
Zr12 O20 1_555 1_555
O33 Zr5 1_555 1_555
O34 Zr4 1_555 1_555
O37 Zr3 1_555 1_555
O38 Zr4 1_555 1_555
O39 Zr3 1_555 1_555
O40 Zr3 1_555 1_555
O44 Zr4 1_555 1_555
O45 Zr5 1_555 1_555
Zr4 O20 1_555 1_555
O19 Zr5 1_555 1_555
Zr5 O23 1_555 1_555
Zr5 O38 1_555 1_555
Zr9 O33 1_555 1_555
Zr9 O37 1_555 1_555
Zr12 O34 1_555 1_555
Zr12 O37 1_555 1_555
Zr1_2 O1_2 1_555 1_555
Zr2_2 O1_2 1_555 1_555
O1_2 Zr14_2 1_555 1_555
O2_2 Zr1_2 1_555 1_555
O3_2 Zr1_2 1_555 1_555
O4_2 Zr2_2 1_555 1_555
O5_2 Zr1_2 1_555 1_555
O6_2 Zr2_2 1_555 1_555
O7_2 Zr1_2 1_555 1_555
C1_2 O7_2 1_555 1_555
C2_2 C1_2 1_555 1_555
C3_2 C2_2 1_555 1_555
C4_2 C3_2 1_555 1_555
C5_2 C4_2 1_555 1_555
C6_2 C5_2 1_555 1_555
N1_2 C6_2 1_555 1_555
H1_2 C3_2 1_555 1_555
H2_2 C4_2 1_555 1_555
O8_2 Zr2_2 1_555 1_555
C7_2 O8_2 1_555 1_555
C8_2 C7_2 1_555 1_555
C9_2 C8_2 1_555 1_555
C10_2 C9_2 1_555 1_555
C11_2 C10_2 1_555 1_555
C12_2 C11_2 1_555 1_555
N2_2 C12_2 1_555 1_555
H3_2 C9_2 1_555 1_555
H4_2 C10_2 1_555 1_555
O9_2 C13_2 1_555 1_555
C13_2 C14_2 1_555 1_555
C14_2 C15_2 1_555 1_555
C15_2 C16_2 1_555 1_555
C16_2 C17_2 1_555 1_555
C17_2 C18_2 1_555 1_555
C18_2 N1_2 1_555 1_555
H5_2 C15_2 1_555 1_555
H6_2 C16_2 1_555 1_555
O10_2 C19_2 1_555 1_555
C19_2 C20_2 1_555 1_555
C20_2 C21_2 1_555 1_555
C21_2 C22_2 1_555 1_555
C22_2 C23_2 1_555 1_555
C23_2 C24_2 1_555 1_555
C24_2 N3_2 1_555 1_555
N3_2 C6_2 1_555 1_555
H7_2 C21_2 1_555 1_555
H8_2 C22_2 1_555 1_555
O11_2 C13_2 1_555 1_555
C25_2 C14_2 1_555 1_555
C26_2 C17_2 1_555 1_555
N4_2 C18_2 1_555 1_555
H9_2 C25_2 1_555 1_555
H10_2 C26_2 1_555 1_555
O12_2 C1_2 1_555 1_555
C27_2 C2_2 1_555 1_555
C28_2 C5_2 1_555 1_555
H11_2 C27_2 1_555 1_555
H12_2 C28_2 1_555 1_555
O13_2 C19_2 1_555 1_555
C29_2 C20_2 1_555 1_555
C30_2 C23_2 1_555 1_555
H13_2 C29_2 1_555 1_555
H14_2 C30_2 1_555 1_555
O14_2 C31_2 1_555 1_555
C31_2 C32_2 1_555 1_555
C32_2 C33_2 1_555 1_555
C33_2 C34_2 1_555 1_555
C34_2 C35_2 1_555 1_555
C35_2 C36_2 1_555 1_555
C36_2 N2_2 1_555 1_555
H15_2 C33_2 1_555 1_555
H16_2 C34_2 1_555 1_555
O15_2 C31_2 1_555 1_555
C37_2 C32_2 1_555 1_555
C38_2 C35_2 1_555 1_555
N5_2 C36_2 1_555 1_555
H17_2 C37_2 1_555 1_555
H18_2 C38_2 1_555 1_555
C42_2 C43_2 1_555 1_555
C43_2 C44_2 1_555 1_555
C44_2 N5_2 1_555 1_555
N6_2 C12_2 1_555 1_555
H20_2 C42_2 1_555 1_555
O17_2 C7_2 1_555 1_555
C45_2 C8_2 1_555 1_555
C46_2 C11_2 1_555 1_555
H21_2 C45_2 1_555 1_555
H22_2 C46_2 1_555 1_555
C48_2 C43_2 1_555 1_555
H24_2 C48_2 1_555 1_555
O26_2 Zr1_2 1_555 1_555
Zr6_2 O2_2 1_555 1_555
O27_2 Zr2_2 1_555 1_555
O28_2 Zr6_2 1_555 1_555
O29_2 Zr2_2 1_555 1_555
O32_2 Zr6_2 1_555 1_555
Zr7_2 O9_2 1_555 1_555
Zr8_2 O11_2 1_555 1_555
Zr10_2 O10_2 1_555 1_555
Zr11_2 O13_2 1_555 1_555
Zr13_2 O3_2 1_555 1_555
Zr14_2 O4_2 1_555 1_555
Zr15_2 O14_2 1_555 1_555
Zr16_2 O15_2 1_555 1_555
Zr17_2 O4_2 1_555 1_555
O35_2 Zr1_2 1_555 1_555
O36_2 Zr6_2 1_555 1_555
O41_2 Zr1_2 1_555 1_555
O42_2 Zr6_2 1_555 1_555
O43_2 Zr6_2 1_555 1_555
O46_2 Zr2_2 1_555 1_555
Zr2_2 O2_2 1_555 1_555
O3_2 Zr6_2 1_555 1_555
C24_2 N4_2 1_555 1_555
C25_2 C26_2 1_555 1_555
O12_2 Zr13_2 1_555 1_555
C27_2 C28_2 1_555 1_555
C29_2 C30_2 1_555 1_555
C37_2 C38_2 1_555 1_555
C44_2 N6_2 1_555 1_555
O17_2 Zr17_2 1_555 1_555
C45_2 C46_2 1_555 1_555
Zr6_2 O27_2 1_555 1_555
O27_2 Zr17_2 1_555 1_555
Zr13_2 O35_2 1_555 1_555
Zr13_2 O36_2 1_555 1_555
Zr14_2 O35_2 1_555 1_555
Zr17_2 O36_2 1_555 1_555
O16_2 C39_2 1_555 1_555
C39_2 C40_2 1_555 1_555
C40_2 C41_2 1_555 1_555
H19_2 C41_2 1_555 1_555
O18_2 C39_2 1_555 1_555
C47_2 C40_2 1_555 1_555
H23_2 C47_2 1_555 1_555
Zr3_2 O19_2 1_555 1_555
Zr4_2 O18_2 1_555 1_555
O19_2 Zr4_2 1_555 1_555
O20_2 Zr3_2 1_555 1_555
O21_2 Zr3_2 1_555 1_555
O22_2 Zr4_2 1_555 1_555
Zr5_2 O16_2 1_555 1_555
O23_2 Zr3_2 1_555 1_555
O24_2 Zr3_2 1_555 1_555
O25_2 Zr5_2 1_555 1_555
O30_2 Zr4_2 1_555 1_555
O31_2 Zr5_2 1_555 1_555
Zr9_2 O23_2 1_555 1_555
Zr12_2 O20_2 1_555 1_555
O33_2 Zr5_2 1_555 1_555
O34_2 Zr4_2 1_555 1_555
O37_2 Zr3_2 1_555 1_555
O38_2 Zr4_2 1_555 1_555
O39_2 Zr3_2 1_555 1_555
O40_2 Zr3_2 1_555 1_555
O44_2 Zr4_2 1_555 1_555
O45_2 Zr5_2 1_555 1_555
Zr4_2 O20_2 1_555 1_555
O19_2 Zr5_2 1_555 1_555
Zr5_2 O23_2 1_555 1_555
Zr5_2 O38_2 1_555 1_555
Zr9_2 O33_2 1_555 1_555
Zr9_2 O37_2 1_555 1_555
Zr12_2 O34_2 1_555 1_555
Zr12_2 O37_2 1_555 1_555
O16_3 C39_3 1_555 1_555
C39_3 C40_3 1_555 1_555
C40_3 C41_3 1_555 1_555
H19_3 C41_3 1_555 1_555
O18_3 C39_3 1_555 1_555
C47_3 C40_3 1_555 1_555
H23_3 C47_3 1_555 1_555
Zr3_3 O19_3 1_555 1_555
Zr4_3 O18_3 1_555 1_555
O19_3 Zr4_3 1_555 1_555
O20_3 Zr3_3 1_555 1_555
O21_3 Zr3_3 1_555 1_555
O22_3 Zr4_3 1_555 1_555
Zr15 O16_3 1_555 1_555
O23_3 Zr3_3 1_555 1_555
O24_3 Zr3_3 1_555 1_555
O25_3 Zr15 1_555 1_555
O30_3 Zr4_3 1_555 1_555
O31_3 Zr15 1_555 1_555
Zr9_3 O23_3 1_555 1_555
Zr12_3 O20_3 1_555 1_555
O33_3 Zr15 1_555 1_555
O34_3 Zr4_3 1_555 1_555
O37_3 Zr3_3 1_555 1_555
O38_3 Zr4_3 1_555 1_555
O39_3 Zr3_3 1_555 1_555
O40_3 Zr3_3 1_555 1_555
O44_3 Zr4_3 1_555 1_555
Zr4_3 O20_3 1_555 1_555
O19_3 Zr15 1_555 1_555
Zr15 O23_3 1_555 1_555
Zr15 O38_3 1_555 1_555
Zr9_3 O33_3 1_555 1_555
Zr9_3 O37_3 1_555 1_555
Zr12_3 O34_3 1_555 1_555
Zr12_3 O37_3 1_555 1_555
Zr1_3 O1_3 1_555 1_555
Zr2_3 O1_3 1_555 1_555
O1_3 Zr14_3 1_555 1_555
O2_3 Zr1_3 1_555 1_555
O3_3 Zr1_3 1_555 1_555
O4_3 Zr2_3 1_555 1_555
O5_3 Zr1_3 1_555 1_555
O6_3 Zr2_3 1_555 1_555
O7_3 Zr1_3 1_555 1_555
C1_3 O7_3 1_555 1_555
C2_3 C1_3 1_555 1_555
C3_3 C2_3 1_555 1_555
C4_3 C3_3 1_555 1_555
C5_3 C4_3 1_555 1_555
C6_3 C5_3 1_555 1_555
N1_3 C6_3 1_555 1_555
H1_3 C3_3 1_555 1_555
H2_3 C4_3 1_555 1_555
O8_3 Zr2_3 1_555 1_555
C7_3 O8_3 1_555 1_555
C8_3 C7_3 1_555 1_555
C9_3 C8_3 1_555 1_555
C10_3 C9_3 1_555 1_555
C11_3 C10_3 1_555 1_555
C12_3 C11_3 1_555 1_555
N2_3 C12_3 1_555 1_555
H3_3 C9_3 1_555 1_555
H4_3 C10_3 1_555 1_555
O9_3 C13_3 1_555 1_555
C13_3 C14_3 1_555 1_555
C14_3 C15_3 1_555 1_555
C15_3 C16_3 1_555 1_555
C16_3 C17_3 1_555 1_555
C17_3 C18_3 1_555 1_555
C18_3 N1_3 1_555 1_555
H5_3 C15_3 1_555 1_555
H6_3 C16_3 1_555 1_555
O10_3 C19_3 1_555 1_555
C19_3 C20_3 1_555 1_555
C20_3 C21_3 1_555 1_555
C21_3 C22_3 1_555 1_555
C22_3 C23_3 1_555 1_555
C23_3 C24_3 1_555 1_555
C24_3 N3_3 1_555 1_555
N3_3 C6_3 1_555 1_555
H7_3 C21_3 1_555 1_555
H8_3 C22_3 1_555 1_555
O11_3 C13_3 1_555 1_555
C25_3 C14_3 1_555 1_555
C26_3 C17_3 1_555 1_555
N4_3 C18_3 1_555 1_555
H9_3 C25_3 1_555 1_555
H10_3 C26_3 1_555 1_555
O12_3 C1_3 1_555 1_555
C27_3 C2_3 1_555 1_555
C28_3 C5_3 1_555 1_555
H11_3 C27_3 1_555 1_555
H12_3 C28_3 1_555 1_555
O13_3 C19_3 1_555 1_555
C29_3 C20_3 1_555 1_555
C30_3 C23_3 1_555 1_555
H13_3 C29_3 1_555 1_555
H14_3 C30_3 1_555 1_555
O45 C31_3 1_555 1_555
C31_3 C32_3 1_555 1_555
C32_3 C33_3 1_555 1_555
C33_3 C34_3 1_555 1_555
C34_3 C35_3 1_555 1_555
C35_3 C36_3 1_555 1_555
C36_3 N2_3 1_555 1_555
H15_3 C33_3 1_555 1_555
H16_3 C34_3 1_555 1_555
O15_3 C31_3 1_555 1_555
C37_3 C32_3 1_555 1_555
C38_3 C35_3 1_555 1_555
N5_3 C36_3 1_555 1_555
H17_3 C37_3 1_555 1_555
H18_3 C38_3 1_555 1_555
C42_3 C43_3 1_555 1_555
C43_3 C44_3 1_555 1_555
C44_3 N5_3 1_555 1_555
N6_3 C12_3 1_555 1_555
H20_3 C42_3 1_555 1_555
O17_3 C7_3 1_555 1_555
C45_3 C8_3 1_555 1_555
C46_3 C11_3 1_555 1_555
H21_3 C45_3 1_555 1_555
H22_3 C46_3 1_555 1_555
C48_3 C43_3 1_555 1_555
H24_3 C48_3 1_555 1_555
O26_3 Zr1_3 1_555 1_555
Zr6_3 O2_3 1_555 1_555
O27_3 Zr2_3 1_555 1_555
O28_3 Zr6_3 1_555 1_555
O29_3 Zr2_3 1_555 1_555
O32_3 Zr6_3 1_555 1_555
Zr7_3 O9_3 1_555 1_555
Zr8_3 O11_3 1_555 1_555
Zr10_3 O10_3 1_555 1_555
Zr11_3 O13_3 1_555 1_555
Zr13_3 O3_3 1_555 1_555
Zr14_3 O4_3 1_555 1_555
Zr16_3 O15_3 1_555 1_555
Zr17_3 O4_3 1_555 1_555
O35_3 Zr1_3 1_555 1_555
O36_3 Zr6_3 1_555 1_555
O41_3 Zr1_3 1_555 1_555
O42_3 Zr6_3 1_555 1_555
O43_3 Zr6_3 1_555 1_555
O46_3 Zr2_3 1_555 1_555
Zr2_3 O2_3 1_555 1_555
O3_3 Zr6_3 1_555 1_555
C24_3 N4_3 1_555 1_555
C25_3 C26_3 1_555 1_555
O12_3 Zr13_3 1_555 1_555
C27_3 C28_3 1_555 1_555
C29_3 C30_3 1_555 1_555
C37_3 C38_3 1_555 1_555
C44_3 N6_3 1_555 1_555
O17_3 Zr17_3 1_555 1_555
C45_3 C46_3 1_555 1_555
Zr6_3 O27_3 1_555 1_555
O27_3 Zr17_3 1_555 1_555
Zr13_3 O35_3 1_555 1_555
Zr13_3 O36_3 1_555 1_555
Zr14_3 O35_3 1_555 1_555
Zr17_3 O36_3 1_555 1_555
O16_4 C39_4 1_555 1_555
C39_4 C40_4 1_555 1_555
C40_4 C41_4 1_555 1_555
H19_4 C41_4 1_555 1_555
O18_4 C39_4 1_555 1_555
C47_4 C40_4 1_555 1_555
H23_4 C47_4 1_555 1_555
Zr3_4 O19_4 1_555 1_555
Zr4_4 O18_4 1_555 1_555
O19_4 Zr4_4 1_555 1_555
O20_4 Zr3_4 1_555 1_555
O21_4 Zr3_4 1_555 1_555
O22_4 Zr4_4 1_555 1_555
Zr15_2 O16_4 1_555 1_555
O23_4 Zr3_4 1_555 1_555
O24_4 Zr3_4 1_555 1_555
O25_4 Zr15_2 1_555 1_555
O30_4 Zr4_4 1_555 1_555
O31_4 Zr15_2 1_555 1_555
Zr9_4 O23_4 1_555 1_555
Zr12_4 O20_4 1_555 1_555
O33_4 Zr15_2 1_555 1_555
O34_4 Zr4_4 1_555 1_555
O37_4 Zr3_4 1_555 1_555
O38_4 Zr4_4 1_555 1_555
O39_4 Zr3_4 1_555 1_555
O40_4 Zr3_4 1_555 1_555
O44_4 Zr4_4 1_555 1_555
Zr4_4 O20_4 1_555 1_555
O19_4 Zr15_2 1_555 1_555
Zr15_2 O23_4 1_555 1_555
Zr15_2 O38_4 1_555 1_555
Zr9_4 O33_4 1_555 1_555
Zr9_4 O37_4 1_555 1_555
Zr12_4 O34_4 1_555 1_555
Zr12_4 O37_4 1_555 1_555
Zr1_4 O1_4 1_555 1_555
Zr2_4 O1_4 1_555 1_555
O1_4 Zr14_4 1_555 1_555
O2_4 Zr1_4 1_555 1_555
O3_4 Zr1_4 1_555 1_555
O4_4 Zr2_4 1_555 1_555
O5_4 Zr1_4 1_555 1_555
O6_4 Zr2_4 1_555 1_555
O7_4 Zr1_4 1_555 1_555
C1_4 O7_4 1_555 1_555
C2_4 C1_4 1_555 1_555
C3_4 C2_4 1_555 1_555
C4_4 C3_4 1_555 1_555
C5_4 C4_4 1_555 1_555
C6_4 C5_4 1_555 1_555
N1_4 C6_4 1_555 1_555
H1_4 C3_4 1_555 1_555
H2_4 C4_4 1_555 1_555
O8_4 Zr2_4 1_555 1_555
C7_4 O8_4 1_555 1_555
C8_4 C7_4 1_555 1_555
C9_4 C8_4 1_555 1_555
C10_4 C9_4 1_555 1_555
C11_4 C10_4 1_555 1_555
C12_4 C11_4 1_555 1_555
N2_4 C12_4 1_555 1_555
H3_4 C9_4 1_555 1_555
H4_4 C10_4 1_555 1_555
O9_4 C13_4 1_555 1_555
C13_4 C14_4 1_555 1_555
C14_4 C15_4 1_555 1_555
C15_4 C16_4 1_555 1_555
C16_4 C17_4 1_555 1_555
C17_4 C18_4 1_555 1_555
C18_4 N1_4 1_555 1_555
H5_4 C15_4 1_555 1_555
H6_4 C16_4 1_555 1_555
O10_4 C19_4 1_555 1_555
C19_4 C20_4 1_555 1_555
C20_4 C21_4 1_555 1_555
C21_4 C22_4 1_555 1_555
C22_4 C23_4 1_555 1_555
C23_4 C24_4 1_555 1_555
C24_4 N3_4 1_555 1_555
N3_4 C6_4 1_555 1_555
H7_4 C21_4 1_555 1_555
H8_4 C22_4 1_555 1_555
O11_4 C13_4 1_555 1_555
C25_4 C14_4 1_555 1_555
C26_4 C17_4 1_555 1_555
N4_4 C18_4 1_555 1_555
H9_4 C25_4 1_555 1_555
H10_4 C26_4 1_555 1_555
O12_4 C1_4 1_555 1_555
C27_4 C2_4 1_555 1_555
C28_4 C5_4 1_555 1_555
H11_4 C27_4 1_555 1_555
H12_4 C28_4 1_555 1_555
O13_4 C19_4 1_555 1_555
C29_4 C20_4 1_555 1_555
C30_4 C23_4 1_555 1_555
H13_4 C29_4 1_555 1_555
H14_4 C30_4 1_555 1_555
O45_2 C31_4 1_555 1_555
C31_4 C32_4 1_555 1_555
C32_4 C33_4 1_555 1_555
C33_4 C34_4 1_555 1_555
C34_4 C35_4 1_555 1_555
C35_4 C36_4 1_555 1_555
C36_4 N2_4 1_555 1_555
H15_4 C33_4 1_555 1_555
H16_4 C34_4 1_555 1_555
O15_4 C31_4 1_555 1_555
C37_4 C32_4 1_555 1_555
C38_4 C35_4 1_555 1_555
N5_4 C36_4 1_555 1_555
H17_4 C37_4 1_555 1_555
H18_4 C38_4 1_555 1_555
C42_4 C43_4 1_555 1_555
C43_4 C44_4 1_555 1_555
C44_4 N5_4 1_555 1_555
N6_4 C12_4 1_555 1_555
H20_4 C42_4 1_555 1_555
O17_4 C7_4 1_555 1_555
C45_4 C8_4 1_555 1_555
C46_4 C11_4 1_555 1_555
H21_4 C45_4 1_555 1_555
H22_4 C46_4 1_555 1_555
C48_4 C43_4 1_555 1_555
H24_4 C48_4 1_555 1_555
O26_4 Zr1_4 1_555 1_555
Zr6_4 O2_4 1_555 1_555
O27_4 Zr2_4 1_555 1_555
O28_4 Zr6_4 1_555 1_555
O29_4 Zr2_4 1_555 1_555
O32_4 Zr6_4 1_555 1_555
Zr7_4 O9_4 1_555 1_555
Zr8_4 O11_4 1_555 1_555
Zr10_4 O10_4 1_555 1_555
Zr11_4 O13_4 1_555 1_555
Zr13_4 O3_4 1_555 1_555
Zr14_4 O4_4 1_555 1_555
Zr16_4 O15_4 1_555 1_555
Zr17_4 O4_4 1_555 1_555
O35_4 Zr1_4 1_555 1_555
O36_4 Zr6_4 1_555 1_555
O41_4 Zr1_4 1_555 1_555
O42_4 Zr6_4 1_555 1_555
O43_4 Zr6_4 1_555 1_555
O46_4 Zr2_4 1_555 1_555
Zr2_4 O2_4 1_555 1_555
O3_4 Zr6_4 1_555 1_555
C24_4 N4_4 1_555 1_555
C25_4 C26_4 1_555 1_555
O12_4 Zr13_4 1_555 1_555
C27_4 C28_4 1_555 1_555
C29_4 C30_4 1_555 1_555
C37_4 C38_4 1_555 1_555
C44_4 N6_4 1_555 1_555
O17_4 Zr17_4 1_555 1_555
C45_4 C46_4 1_555 1_555
Zr6_4 O27_4 1_555 1_555
O27_4 Zr17_4 1_555 1_555
Zr13_4 O35_4 1_555 1_555
Zr13_4 O36_4 1_555 1_555
Zr14_4 O35_4 1_555 1_555
Zr17_4 O36_4 1_555 1_555
O16_5 C39_5 1_555 1_555
C39_5 C40_5 1_555 1_555
C40_5 C41_5 1_555 1_555
H19_5 C41_5 1_555 1_555
O18_5 C39_5 1_555 1_555
C47_5 C40_5 1_555 1_555
H23_5 C47_5 1_555 1_555
Zr7_3 O19_5 1_555 1_555
Zr4_5 O18_5 1_555 1_555
O19_5 Zr4_5 1_555 1_555
O20_5 Zr7_3 1_555 1_555
O21_5 Zr7_3 1_555 1_555
O22_5 Zr4_5 1_555 1_555
Zr5_3 O16_5 1_555 1_555
O23_5 Zr7_3 1_555 1_555
O24_5 Zr7_3 1_555 1_555
O25_5 Zr5_3 1_555 1_555
O30_5 Zr4_5 1_555 1_555
O31_5 Zr5_3 1_555 1_555
Zr8_3 O23_5 1_555 1_555
Zr12_5 O20_5 1_555 1_555
O33_5 Zr5_3 1_555 1_555
O34_5 Zr4_5 1_555 1_555
O37_5 Zr7_3 1_555 1_555
O38_5 Zr4_5 1_555 1_555
O40_5 Zr7_3 1_555 1_555
O44_5 Zr4_5 1_555 1_555
O45_3 Zr5_3 1_555 1_555
Zr4_5 O20_5 1_555 1_555
O19_5 Zr5_3 1_555 1_555
Zr5_3 O23_5 1_555 1_555
Zr5_3 O38_5 1_555 1_555
Zr8_3 O33_5 1_555 1_555
Zr8_3 O37_5 1_555 1_555
Zr12_5 O34_5 1_555 1_555
Zr12_5 O37_5 1_555 1_555
Zr7_2 O1_5 1_555 1_555
Zr2_5 O1_5 1_555 1_555
O1_5 Zr14_5 1_555 1_555
O2_5 Zr7_2 1_555 1_555
O3_5 Zr7_2 1_555 1_555
O4_5 Zr2_5 1_555 1_555
O5_5 Zr7_2 1_555 1_555
O6_5 Zr2_5 1_555 1_555
O7_5 Zr7_2 1_555 1_555
C1_5 O7_5 1_555 1_555
C2_5 C1_5 1_555 1_555
C3_5 C2_5 1_555 1_555
C4_5 C3_5 1_555 1_555
C5_5 C4_5 1_555 1_555
C6_5 C5_5 1_555 1_555
N1_5 C6_5 1_555 1_555
H1_5 C3_5 1_555 1_555
H2_5 C4_5 1_555 1_555
O8_5 Zr2_5 1_555 1_555
C7_5 O8_5 1_555 1_555
C8_5 C7_5 1_555 1_555
C9_5 C8_5 1_555 1_555
C10_5 C9_5 1_555 1_555
C11_5 C10_5 1_555 1_555
C12_5 C11_5 1_555 1_555
N2_5 C12_5 1_555 1_555
H3_5 C9_5 1_555 1_555
H4_5 C10_5 1_555 1_555
O39_3 C13_5 1_555 1_555
C13_5 C14_5 1_555 1_555
C14_5 C15_5 1_555 1_555
C15_5 C16_5 1_555 1_555
C16_5 C17_5 1_555 1_555
C17_5 C18_5 1_555 1_555
C18_5 N1_5 1_555 1_555
H5_5 C15_5 1_555 1_555
H6_5 C16_5 1_555 1_555
O10_5 C19_5 1_555 1_555
C19_5 C20_5 1_555 1_555
C20_5 C21_5 1_555 1_555
C21_5 C22_5 1_555 1_555
C22_5 C23_5 1_555 1_555
C23_5 C24_5 1_555 1_555
C24_5 N3_5 1_555 1_555
N3_5 C6_5 1_555 1_555
H7_5 C21_5 1_555 1_555
H8_5 C22_5 1_555 1_555
O11_5 C13_5 1_555 1_555
C25_5 C14_5 1_555 1_555
C26_5 C17_5 1_555 1_555
N4_5 C18_5 1_555 1_555
H9_5 C25_5 1_555 1_555
H10_5 C26_5 1_555 1_555
O12_5 C1_5 1_555 1_555
C27_5 C2_5 1_555 1_555
C28_5 C5_5 1_555 1_555
H11_5 C27_5 1_555 1_555
H12_5 C28_5 1_555 1_555
O13_5 C19_5 1_555 1_555
C29_5 C20_5 1_555 1_555
C30_5 C23_5 1_555 1_555
H13_5 C29_5 1_555 1_555
H14_5 C30_5 1_555 1_555
O14_3 C31_5 1_555 1_555
C31_5 C32_5 1_555 1_555
C32_5 C33_5 1_555 1_555
C33_5 C34_5 1_555 1_555
C34_5 C35_5 1_555 1_555
C35_5 C36_5 1_555 1_555
C36_5 N2_5 1_555 1_555
H15_5 C33_5 1_555 1_555
H16_5 C34_5 1_555 1_555
O15_5 C31_5 1_555 1_555
C37_5 C32_5 1_555 1_555
C38_5 C35_5 1_555 1_555
N5_5 C36_5 1_555 1_555
H17_5 C37_5 1_555 1_555
H18_5 C38_5 1_555 1_555
C42_5 C43_5 1_555 1_555
C43_5 C44_5 1_555 1_555
C44_5 N5_5 1_555 1_555
N6_5 C12_5 1_555 1_555
H20_5 C42_5 1_555 1_555
O17_5 C7_5 1_555 1_555
C45_5 C8_5 1_555 1_555
C46_5 C11_5 1_555 1_555
H21_5 C45_5 1_555 1_555
H22_5 C46_5 1_555 1_555
C48_5 C43_5 1_555 1_555
H24_5 C48_5 1_555 1_555
O26_5 Zr7_2 1_555 1_555
Zr8_2 O2_5 1_555 1_555
O27_5 Zr2_5 1_555 1_555
O28_5 Zr8_2 1_555 1_555
O29_5 Zr2_5 1_555 1_555
O32_5 Zr8_2 1_555 1_555
Zr9_3 O11_5 1_555 1_555
Zr10_5 O10_5 1_555 1_555
Zr10_2 O13_5 1_555 1_555
Zr13_5 O3_5 1_555 1_555
Zr14_5 O4_5 1_555 1_555
Zr15_3 O14_3 1_555 1_555
Zr16_5 O15_5 1_555 1_555
Zr17_5 O4_5 1_555 1_555
O35_5 Zr7_2 1_555 1_555
O36_5 Zr8_2 1_555 1_555
O43_5 Zr8_2 1_555 1_555
O46_5 Zr2_5 1_555 1_555
Zr2_5 O2_5 1_555 1_555
O3_5 Zr8_2 1_555 1_555
C24_5 N4_5 1_555 1_555
C25_5 C26_5 1_555 1_555
O12_5 Zr13_5 1_555 1_555
C27_5 C28_5 1_555 1_555
C29_5 C30_5 1_555 1_555
C37_5 C38_5 1_555 1_555
C44_5 N6_5 1_555 1_555
O17_5 Zr17_5 1_555 1_555
C45_5 C46_5 1_555 1_555
Zr8_2 O27_5 1_555 1_555
O27_5 Zr17_5 1_555 1_555
Zr13_5 O35_5 1_555 1_555
Zr13_5 O36_5 1_555 1_555
Zr14_5 O35_5 1_555 1_555
Zr17_5 O36_5 1_555 1_555
O16_6 C39_6 1_555 1_555
C39_6 C40_6 1_555 1_555
C40_6 C41_6 1_555 1_555
H19_6 C41_6 1_555 1_555
O46 C39_6 1_555 1_555
C47_6 C40_6 1_555 1_555
H23_6 C47_6 1_555 1_555
Zr14 O16_6 1_555 1_555
O25_6 Zr14 1_555 1_555
O31_6 Zr14 1_555 1_555
O33_6 Zr14 1_555 1_555
O45_4 Zr14 1_555 1_555
Zr13 O33_6 1_555 1_555
C1_6 O39 1_555 1_555
C2_6 C1_6 1_555 1_555
C3_6 C2_6 1_555 1_555
C4_6 C3_6 1_555 1_555
C5_6 C4_6 1_555 1_555
C6_6 C5_6 1_555 1_555
N1_6 C6_6 1_555 1_555
H1_6 C3_6 1_555 1_555
H2_6 C4_6 1_555 1_555
C7_6 O44 1_555 1_555
C8_6 C7_6 1_555 1_555
C9_6 C8_6 1_555 1_555
C10_6 C9_6 1_555 1_555
C11_6 C10_6 1_555 1_555
C12_6 C11_6 1_555 1_555
N2_6 C12_6 1_555 1_555
H3_6 C9_6 1_555 1_555
H4_6 C10_6 1_555 1_555
O9_5 C13_6 1_555 1_555
C13_6 C14_6 1_555 1_555
C14_6 C15_6 1_555 1_555
C15_6 C16_6 1_555 1_555
C16_6 C17_6 1_555 1_555
C17_6 C18_6 1_555 1_555
C18_6 N1_6 1_555 1_555
H5_6 C15_6 1_555 1_555
H6_6 C16_6 1_555 1_555
O10_6 C19_6 1_555 1_555
C19_6 C20_6 1_555 1_555
C20_6 C21_6 1_555 1_555
C21_6 C22_6 1_555 1_555
C22_6 C23_6 1_555 1_555
C23_6 C24_6 1_555 1_555
C24_6 N3_6 1_555 1_555
N3_6 C6_6 1_555 1_555
H7_6 C21_6 1_555 1_555
H8_6 C22_6 1_555 1_555
O11_6 C13_6 1_555 1_555
C25_6 C14_6 1_555 1_555
C26_6 C17_6 1_555 1_555
N4_6 C18_6 1_555 1_555
H9_6 C25_6 1_555 1_555
H10_6 C26_6 1_555 1_555
O12_6 C1_6 1_555 1_555
C27_6 C2_6 1_555 1_555
C28_6 C5_6 1_555 1_555
H11_6 C27_6 1_555 1_555
H12_6 C28_6 1_555 1_555
O13_6 C19_6 1_555 1_555
C29_6 C20_6 1_555 1_555
C30_6 C23_6 1_555 1_555
H13_6 C29_6 1_555 1_555
H14_6 C30_6 1_555 1_555
O14_4 C31_6 1_555 1_555
C31_6 C32_6 1_555 1_555
C32_6 C33_6 1_555 1_555
C33_6 C34_6 1_555 1_555
C34_6 C35_6 1_555 1_555
C35_6 C36_6 1_555 1_555
C36_6 N2_6 1_555 1_555
H15_6 C33_6 1_555 1_555
H16_6 C34_6 1_555 1_555
O15_6 C31_6 1_555 1_555
C37_6 C32_6 1_555 1_555
C38_6 C35_6 1_555 1_555
N5_6 C36_6 1_555 1_555
H17_6 C37_6 1_555 1_555
H18_6 C38_6 1_555 1_555
C42_6 C43_6 1_555 1_555
C43_6 C44_6 1_555 1_555
C44_6 N5_6 1_555 1_555
N6_6 C12_6 1_555 1_555
H20_6 C42_6 1_555 1_555
O17_6 C7_6 1_555 1_555
C45_6 C8_6 1_555 1_555
C46_6 C11_6 1_555 1_555
H21_6 C45_6 1_555 1_555
H22_6 C46_6 1_555 1_555
C48_6 C43_6 1_555 1_555
H24_6 C48_6 1_555 1_555
O28_6 Zr12 1_555 1_555
O32_6 Zr12 1_555 1_555
Zr7_4 O9_5 1_555 1_555
Zr8_5 O11_6 1_555 1_555
Zr10_4 O10_6 1_555 1_555
Zr11_5 O13_6 1_555 1_555
Zr14_3 O14_4 1_555 1_555
Zr17_3 O15_6 1_555 1_555
Zr16_3 O38 1_555 1_555
O36_6 Zr12 1_555 1_555
O42_5 Zr12 1_555 1_555
O43_6 Zr12 1_555 1_555
C24_6 N4_6 1_555 1_555
C25_6 C26_6 1_555 1_555
O12_6 Zr9 1_555 1_555
C27_6 C28_6 1_555 1_555
C29_6 C30_6 1_555 1_555
C37_6 C38_6 1_555 1_555
C44_6 N6_6 1_555 1_555
O17_6 Zr16_3 1_555 1_555
C45_6 C46_6 1_555 1_555
O34 Zr16_3 1_555 1_555
Zr9 O36_6 1_555 1_555
Zr16_3 O36_6 1_555 1_555
C7_7 O44_5 1_555 1_555
C8_7 C7_7 1_555 1_555
C9_7 C8_7 1_555 1_555
C10_7 C9_7 1_555 1_555
C11_7 C10_7 1_555 1_555
C12_7 C11_7 1_555 1_555
N2_7 C12_7 1_555 1_555
H3_7 C9_7 1_555 1_555
H4_7 C10_7 1_555 1_555
O14_5 C31_7 1_555 1_555
C31_7 C32_7 1_555 1_555
C32_7 C33_7 1_555 1_555
C33_7 C34_7 1_555 1_555
C34_7 C35_7 1_555 1_555
C35_7 C36_7 1_555 1_555
C36_7 N2_7 1_555 1_555
H15_7 C33_7 1_555 1_555
H16_7 C34_7 1_555 1_555
O15_7 C31_7 1_555 1_555
C37_7 C32_7 1_555 1_555
C38_7 C35_7 1_555 1_555
N5_7 C36_7 1_555 1_555
H17_7 C37_7 1_555 1_555
H18_7 C38_7 1_555 1_555
C42_7 C43_7 1_555 1_555
C43_7 C44_7 1_555 1_555
C44_7 N5_7 1_555 1_555
N6_7 C12_7 1_555 1_555
H20_7 C42_7 1_555 1_555
O17_7 C7_7 1_555 1_555
C45_7 C8_7 1_555 1_555
C46_7 C11_7 1_555 1_555
H21_7 C45_7 1_555 1_555
H22_7 C46_7 1_555 1_555
C48_7 C43_7 1_555 1_555
H24_7 C48_7 1_555 1_555
O28_7 Zr12_5 1_555 1_555
O32_7 Zr12_5 1_555 1_555
Zr15_4 O14_5 1_555 1_555
Zr16_6 O15_7 1_555 1_555
Zr17_6 O38_5 1_555 1_555
O36_7 Zr12_5 1_555 1_555
O42_6 Zr12_5 1_555 1_555
O43_7 Zr12_5 1_555 1_555
C37_7 C38_7 1_555 1_555
C44_7 N6_7 1_555 1_555
O17_7 Zr17_6 1_555 1_555
C45_7 C46_7 1_555 1_555
O34_5 Zr17_6 1_555 1_555
Zr8_3 O36_7 1_555 1_555
Zr17_6 O36_7 1_555 1_555
O16_7 C39_7 1_555 1_555
C39_7 C40_7 1_555 1_555
C40_7 C41_7 1_555 1_555
H19_7 C41_7 1_555 1_555
O46_5 C39_7 1_555 1_555
C47_7 C40_7 1_555 1_555
H23_7 C47_7 1_555 1_555
Zr14_5 O16_7 1_555 1_555
O25_7 Zr14_5 1_555 1_555
O31_7 Zr14_5 1_555 1_555
O33_7 Zr14_5 1_555 1_555
O45_5 Zr14_5 1_555 1_555
Zr13_5 O33_7 1_555 1_555
C1_7 O40 1_555 1_555
C2_7 C1_7 1_555 1_555
C3_7 C2_7 1_555 1_555
C4_7 C3_7 1_555 1_555
C5_7 C4_7 1_555 1_555
C6_7 C5_7 1_555 1_555
N1_7 C6_7 1_555 1_555
H1_7 C3_7 1_555 1_555
H2_7 C4_7 1_555 1_555
O41_4 C13_7 1_555 1_555
C13_7 C14_7 1_555 1_555
C14_7 C15_7 1_555 1_555
C15_7 C16_7 1_555 1_555
C16_7 C17_7 1_555 1_555
C17_7 C18_7 1_555 1_555
C18_7 N1_7 1_555 1_555
H5_7 C15_7 1_555 1_555
H6_7 C16_7 1_555 1_555
O10_7 C19_7 1_555 1_555
C19_7 C20_7 1_555 1_555
C20_7 C21_7 1_555 1_555
C21_7 C22_7 1_555 1_555
C22_7 C23_7 1_555 1_555
C23_7 C24_7 1_555 1_555
C24_7 N3_7 1_555 1_555
N3_7 C6_7 1_555 1_555
H7_7 C21_7 1_555 1_555
H8_7 C22_7 1_555 1_555
O42_4 C13_7 1_555 1_555
C25_7 C14_7 1_555 1_555
C26_7 C17_7 1_555 1_555
N4_7 C18_7 1_555 1_555
H9_7 C25_7 1_555 1_555
H10_7 C26_7 1_555 1_555
O42_5 C1_7 1_555 1_555
C27_7 C2_7 1_555 1_555
C28_7 C5_7 1_555 1_555
H11_7 C27_7 1_555 1_555
H12_7 C28_7 1_555 1_555
O13_7 C19_7 1_555 1_555
C29_7 C20_7 1_555 1_555
C30_7 C23_7 1_555 1_555
H13_7 C29_7 1_555 1_555
H14_7 C30_7 1_555 1_555
O28_8 Zr9 1_555 1_555
O32_8 Zr9 1_555 1_555
Zr11_4 O10_7 1_555 1_555
Zr11_5 O13_7 1_555 1_555
O43_8 Zr9 1_555 1_555
C24_7 N4_7 1_555 1_555
C25_7 C26_7 1_555 1_555
C27_7 C28_7 1_555 1_555
C29_7 C30_7 1_555 1_555
O33 Zr16_3 1_555 1_555
C7_8 O44_3 1_555 1_555
C8_8 C7_8 1_555 1_555
C9_8 C8_8 1_555 1_555
C10_8 C9_8 1_555 1_555
C11_8 C10_8 1_555 1_555
C12_8 C11_8 1_555 1_555
N2_8 C12_8 1_555 1_555
H3_8 C9_8 1_555 1_555
H4_8 C10_8 1_555 1_555
O45_4 C31_8 1_555 1_555
C31_8 C32_8 1_555 1_555
C32_8 C33_8 1_555 1_555
C33_8 C34_8 1_555 1_555
C34_8 C35_8 1_555 1_555
C35_8 C36_8 1_555 1_555
C36_8 N2_8 1_555 1_555
H15_8 C33_8 1_555 1_555
H16_8 C34_8 1_555 1_555
O15_8 C31_8 1_555 1_555
C37_8 C32_8 1_555 1_555
C38_8 C35_8 1_555 1_555
N5_8 C36_8 1_555 1_555
H17_8 C37_8 1_555 1_555
H18_8 C38_8 1_555 1_555
C42_8 C43_8 1_555 1_555
C43_8 C44_8 1_555 1_555
C44_8 N5_8 1_555 1_555
N6_8 C12_8 1_555 1_555
H20_8 C42_8 1_555 1_555
O17_8 C7_8 1_555 1_555
C45_8 C8_8 1_555 1_555
C46_8 C11_8 1_555 1_555
H21_8 C45_8 1_555 1_555
H22_8 C46_8 1_555 1_555
C48_8 C43_8 1_555 1_555
H24_8 C48_8 1_555 1_555
O28_9 Zr12_3 1_555 1_555
O32_9 Zr12_3 1_555 1_555
Zr17 O15_8 1_555 1_555
Zr16 O38_3 1_555 1_555
O36_8 Zr12_3 1_555 1_555
O42_7 Zr12_3 1_555 1_555
O43_9 Zr12_3 1_555 1_555
C37_8 C38_8 1_555 1_555
C44_8 N6_8 1_555 1_555
O17_8 Zr16 1_555 1_555
C45_8 C46_8 1_555 1_555
O34_3 Zr16 1_555 1_555
Zr9_3 O36_8 1_555 1_555
Zr16 O36_8 1_555 1_555
O16_8 C39_8 1_555 1_555
C39_8 C40_8 1_555 1_555
C40_8 C41_8 1_555 1_555
H19_8 C41_8 1_555 1_555
O46_3 C39_8 1_555 1_555
C47_8 C40_8 1_555 1_555
H23_8 C47_8 1_555 1_555
Zr14_3 O16_8 1_555 1_555
O25_8 Zr14_3 1_555 1_555
O31_8 Zr14_3 1_555 1_555
O33_8 Zr14_3 1_555 1_555
Zr13_3 O33_8 1_555 1_555
C1_8 O41_3 1_555 1_555
C2_8 C1_8 1_555 1_555
C3_8 C2_8 1_555 1_555
C4_8 C3_8 1_555 1_555
C5_8 C4_8 1_555 1_555
C6_8 C5_8 1_555 1_555
N1_8 C6_8 1_555 1_555
H1_8 C3_8 1_555 1_555
H2_8 C4_8 1_555 1_555
O40_4 C13_8 1_555 1_555
C13_8 C14_8 1_555 1_555
C14_8 C15_8 1_555 1_555
C15_8 C16_8 1_555 1_555
C16_8 C17_8 1_555 1_555
C17_8 C18_8 1_555 1_555
C18_8 N1_8 1_555 1_555
H5_8 C15_8 1_555 1_555
H6_8 C16_8 1_555 1_555
O10_8 C19_8 1_555 1_555
C19_8 C20_8 1_555 1_555
C20_8 C21_8 1_555 1_555
C21_8 C22_8 1_555 1_555
C22_8 C23_8 1_555 1_555
C23_8 C24_8 1_555 1_555
C24_8 N3_8 1_555 1_555
N3_8 C6_8 1_555 1_555
H7_8 C21_8 1_555 1_555
H8_8 C22_8 1_555 1_555
O11_7 C13_8 1_555 1_555
C25_8 C14_8 1_555 1_555
C26_8 C17_8 1_555 1_555
N4_8 C18_8 1_555 1_555
H9_8 C25_8 1_555 1_555
H10_8 C26_8 1_555 1_555
O42_3 C1_8 1_555 1_555
C27_8 C2_8 1_555 1_555
C28_8 C5_8 1_555 1_555
H11_8 C27_8 1_555 1_555
H12_8 C28_8 1_555 1_555
O13_8 C19_8 1_555 1_555
C29_8 C20_8 1_555 1_555
C30_8 C23_8 1_555 1_555
H13_8 C29_8 1_555 1_555
H14_8 C30_8 1_555 1_555
O28_10 Zr13_3 1_555 1_555
O32_10 Zr13_3 1_555 1_555
Zr12_4 O11_7 1_555 1_555
Zr10_6 O10_8 1_555 1_555
Zr11_3 O13_8 1_555 1_555
O43_10 Zr13_3 1_555 1_555
C24_8 N4_8 1_555 1_555
C25_8 C26_8 1_555 1_555
C27_8 C28_8 1_555 1_555
C29_8 C30_8 1_555 1_555
O33_8 Zr17_3 1_555 1_555
C1_9 O40_5 1_555 1_555
C2_9 C1_9 1_555 1_555
C3_9 C2_9 1_555 1_555
C4_9 C3_9 1_555 1_555
C5_9 C4_9 1_555 1_555
C6_9 C5_9 1_555 1_555
N1_9 C6_9 1_555 1_555
H1_9 C3_9 1_555 1_555
H2_9 C4_9 1_555 1_555
C7_9 O45_3 1_555 1_555
C8_9 C7_9 1_555 1_555
C9_9 C8_9 1_555 1_555
C10_9 C9_9 1_555 1_555
C11_9 C10_9 1_555 1_555
C12_9 C11_9 1_555 1_555
N2_9 C12_9 1_555 1_555
H3_9 C9_9 1_555 1_555
H4_9 C10_9 1_555 1_555
O39_4 C13_9 1_555 1_555
C13_9 C14_9 1_555 1_555
C14_9 C15_9 1_555 1_555
C15_9 C16_9 1_555 1_555
C16_9 C17_9 1_555 1_555
C17_9 C18_9 1_555 1_555
C18_9 N1_9 1_555 1_555
H5_9 C15_9 1_555 1_555
H6_9 C16_9 1_555 1_555
O10_9 C19_9 1_555 1_555
C19_9 C20_9 1_555 1_555
C20_9 C21_9 1_555 1_555
C21_9 C22_9 1_555 1_555
C22_9 C23_9 1_555 1_555
C23_9 C24_9 1_555 1_555
C24_9 N3_9 1_555 1_555
N3_9 C6_9 1_555 1_555
H7_9 C21_9 1_555 1_555
H8_9 C22_9 1_555 1_555
O11_8 C13_9 1_555 1_555
C25_9 C14_9 1_555 1_555
C26_9 C17_9 1_555 1_555
N4_9 C18_9 1_555 1_555
H9_9 C25_9 1_555 1_555
H10_9 C26_9 1_555 1_555
O42_6 C1_9 1_555 1_555
C27_9 C2_9 1_555 1_555
C28_9 C5_9 1_555 1_555
H11_9 C27_9 1_555 1_555
H12_9 C28_9 1_555 1_555
O13_9 C19_9 1_555 1_555
C29_9 C20_9 1_555 1_555
C30_9 C23_9 1_555 1_555
H13_9 C29_9 1_555 1_555
H14_9 C30_9 1_555 1_555
O14_6 C31_9 1_555 1_555
C31_9 C32_9 1_555 1_555
C32_9 C33_9 1_555 1_555
C33_9 C34_9 1_555 1_555
C34_9 C35_9 1_555 1_555
C35_9 C36_9 1_555 1_555
C36_9 N2_9 1_555 1_555
H15_9 C33_9 1_555 1_555
H16_9 C34_9 1_555 1_555
O15_9 C31_9 1_555 1_555
C37_9 C32_9 1_555 1_555
C38_9 C35_9 1_555 1_555
N5_9 C36_9 1_555 1_555
H17_9 C37_9 1_555 1_555
H18_9 C38_9 1_555 1_555
C42_9 C43_9 1_555 1_555
C43_9 C44_9 1_555 1_555
C44_9 N5_9 1_555 1_555
N6_9 C12_9 1_555 1_555
H20_9 C42_9 1_555 1_555
O17_9 C7_9 1_555 1_555
C45_9 C8_9 1_555 1_555
C46_9 C11_9 1_555 1_555
H21_9 C45_9 1_555 1_555
H22_9 C46_9 1_555 1_555
C48_9 C43_9 1_555 1_555
H24_9 C48_9 1_555 1_555
O28_11 Zr8_3 1_555 1_555
O32_11 Zr8_3 1_555 1_555
Zr9_4 O11_8 1_555 1_555
Zr10_6 O10_9 1_555 1_555
Zr10_3 O13_9 1_555 1_555
Zr15_5 O14_6 1_555 1_555
Zr16_6 O15_9 1_555 1_555
O43_11 Zr8_3 1_555 1_555
C24_9 N4_9 1_555 1_555
C25_9 C26_9 1_555 1_555
C27_9 C28_9 1_555 1_555
C29_9 C30_9 1_555 1_555
C37_9 C38_9 1_555 1_555
C44_9 N6_9 1_555 1_555
O17_9 Zr17_6 1_555 1_555
C45_9 C46_9 1_555 1_555
O33_5 Zr17_6 1_555 1_555
O16_9 C39_9 1_555 1_555
C39_9 C40_9 1_555 1_555
C40_9 C41_9 1_555 1_555
H19_9 C41_9 1_555 1_555
O18_6 C39_9 1_555 1_555
C47_9 C40_9 1_555 1_555
H23_9 C47_9 1_555 1_555
Zr7_4 O19_6 1_555 1_555
Zr15_3 O18_6 1_555 1_555
O19_6 Zr15_3 1_555 1_555
O20_6 Zr7_4 1_555 1_555
O21_6 Zr7_4 1_555 1_555
O22_6 Zr15_3 1_555 1_555
Zr5_4 O16_9 1_555 1_555
O23_6 Zr7_4 1_555 1_555
O24_6 Zr7_4 1_555 1_555
O25_9 Zr5_4 1_555 1_555
O30_6 Zr15_3 1_555 1_555
O31_9 Zr5_4 1_555 1_555
Zr8_4 O23_6 1_555 1_555
Zr8_5 O20_6 1_555 1_555
O33_9 Zr5_4 1_555 1_555
O34_6 Zr15_3 1_555 1_555
O37_6 Zr7_4 1_555 1_555
O38_6 Zr15_3 1_555 1_555
O45_6 Zr5_4 1_555 1_555
Zr15_3 O20_6 1_555 1_555
O19_6 Zr5_4 1_555 1_555
Zr5_4 O23_6 1_555 1_555
Zr5_4 O38_6 1_555 1_555
Zr8_4 O33_9 1_555 1_555
Zr8_4 O37_6 1_555 1_555
Zr8_5 O34_6 1_555 1_555
Zr8_5 O37_6 1_555 1_555
O6_6 Zr14_2 1_555 1_555
C1_10 O41_2 1_555 1_555
C2_10 C1_10 1_555 1_555
C3_10 C2_10 1_555 1_555
C4_10 C3_10 1_555 1_555
C5_10 C4_10 1_555 1_555
C6_10 C5_10 1_555 1_555
N1_10 C6_10 1_555 1_555
H1_10 C3_10 1_555 1_555
H2_10 C4_10 1_555 1_555
O8_6 Zr14_2 1_555 1_555
C7_10 O8_6 1_555 1_555
C8_10 C7_10 1_555 1_555
C9_10 C8_10 1_555 1_555
C10_10 C9_10 1_555 1_555
C11_10 C10_10 1_555 1_555
C12_10 C11_10 1_555 1_555
N2_10 C12_10 1_555 1_555
H3_10 C9_10 1_555 1_555
H4_10 C10_10 1_555 1_555
O40_3 C13_10 1_555 1_555
C13_10 C14_10 1_555 1_555
C14_10 C15_10 1_555 1_555
C15_10 C16_10 1_555 1_555
C16_10 C17_10 1_555 1_555
C17_10 C18_10 1_555 1_555
C18_10 N1_10 1_555 1_555
H5_10 C15_10 1_555 1_555
H6_10 C16_10 1_555 1_555
O10_10 C19_10 1_555 1_555
C19_10 C20_10 1_555 1_555
C20_10 C21_10 1_555 1_555
C21_10 C22_10 1_555 1_555
C22_10 C23_10 1_555 1_555
C23_10 C24_10 1_555 1_555
C24_10 N3_10 1_555 1_555
N3_10 C6_10 1_555 1_555
H7_10 C21_10 1_555 1_555
H8_10 C22_10 1_555 1_555
O42_7 C13_10 1_555 1_555
C25_10 C14_10 1_555 1_555
C26_10 C17_10 1_555 1_555
N4_10 C18_10 1_555 1_555
H9_10 C25_10 1_555 1_555
H10_10 C26_10 1_555 1_555
O42_2 C1_10 1_555 1_555
C27_10 C2_10 1_555 1_555
C28_10 C5_10 1_555 1_555
H11_10 C27_10 1_555 1_555
H12_10 C28_10 1_555 1_555
O13_10 C19_10 1_555 1_555
C29_10 C20_10 1_555 1_555
C30_10 C23_10 1_555 1_555
H13_10 C29_10 1_555 1_555
H14_10 C30_10 1_555 1_555
O44_4 C31_10 1_555 1_555
C31_10 C32_10 1_555 1_555
C32_10 C33_10 1_555 1_555
C33_10 C34_10 1_555 1_555
C34_10 C35_10 1_555 1_555
C35_10 C36_10 1_555 1_555
C36_10 N2_10 1_555 1_555
H15_10 C33_10 1_555 1_555
H16_10 C34_10 1_555 1_555
O15_10 C31_10 1_555 1_555
C37_10 C32_10 1_555 1_555
C38_10 C35_10 1_555 1_555
N5_10 C36_10 1_555 1_555
H17_10 C37_10 1_555 1_555
H18_10 C38_10 1_555 1_555
C42_10 C43_10 1_555 1_555
C43_10 C44_10 1_555 1_555
C44_10 N5_10 1_555 1_555
N6_10 C12_10 1_555 1_555
H20_10 C42_10 1_555 1_555
O17_10 C7_10 1_555 1_555
C45_10 C8_10 1_555 1_555
C46_10 C11_10 1_555 1_555
H21_10 C45_10 1_555 1_555
H22_10 C46_10 1_555 1_555
C48_10 C43_10 1_555 1_555
H24_10 C48_10 1_555 1_555
O27_6 Zr14_2 1_555 1_555
O28_12 Zr13_2 1_555 1_555
O29_6 Zr14_2 1_555 1_555
O32_12 Zr13_2 1_555 1_555
Zr10_5 O10_10 1_555 1_555
Zr11_2 O13_10 1_555 1_555
Zr16_2 O15_10 1_555 1_555
O43_12 Zr13_2 1_555 1_555
O46_6 Zr14_2 1_555 1_555
C24_10 N4_10 1_555 1_555
C25_10 C26_10 1_555 1_555
C27_10 C28_10 1_555 1_555
C29_10 C30_10 1_555 1_555
C37_10 C38_10 1_555 1_555
C44_10 N6_10 1_555 1_555
O17_10 Zr17_2 1_555 1_555
C45_10 C46_10 1_555 1_555
Zr13_2 O27_6 1_555 1_555
O27_6 Zr17_2 1_555 1_555
O46_4 C39_10 1_555 1_555
C39_10 C40_10 1_555 1_555
C40_10 C41_10 1_555 1_555
H19_10 C41_10 1_555 1_555
O18_7 C39_10 1_555 1_555
C47_10 C40_10 1_555 1_555
H23_10 C47_10 1_555 1_555
Zr14_4 O18_7 1_555 1_555
O22_7 Zr14_4 1_555 1_555
O30_7 Zr14_4 1_555 1_555
O34_7 Zr14_4 1_555 1_555
O44_6 Zr14_4 1_555 1_555
Zr13_4 O34_7 1_555 1_555
O46_2 C39_11 1_555 1_555
C39_11 C40_11 1_555 1_555
C40_11 C41_11 1_555 1_555
H19_11 C41_11 1_555 1_555
O46_6 C39_11 1_555 1_555
C47_11 C40_11 1_555 1_555
H23_11 C47_11 1_555 1_555
C7_11 O44_6 1_555 1_555
C8_11 C7_11 1_555 1_555
C9_11 C8_11 1_555 1_555
C10_11 C9_11 1_555 1_555
C11_11 C10_11 1_555 1_555
C12_11 C11_11 1_555 1_555
N2_11 C12_11 1_555 1_555
H3_11 C9_11 1_555 1_555
H4_11 C10_11 1_555 1_555
O44_2 C31_11 1_555 1_555
C31_11 C32_11 1_555 1_555
C32_11 C33_11 1_555 1_555
C33_11 C34_11 1_555 1_555
C34_11 C35_11 1_555 1_555
C35_11 C36_11 1_555 1_555
C36_11 N2_11 1_555 1_555
H15_11 C33_11 1_555 1_555
H16_11 C34_11 1_555 1_555
O15_11 C31_11 1_555 1_555
C37_11 C32_11 1_555 1_555
C38_11 C35_11 1_555 1_555
N5_11 C36_11 1_555 1_555
H17_11 C37_11 1_555 1_555
H18_11 C38_11 1_555 1_555
C42_11 C43_11 1_555 1_555
C43_11 C44_11 1_555 1_555
C44_11 N5_11 1_555 1_555
N6_11 C12_11 1_555 1_555
H20_11 C42_11 1_555 1_555
O17_11 C7_11 1_555 1_555
C45_11 C8_11 1_555 1_555
C46_11 C11_11 1_555 1_555
H21_11 C45_11 1_555 1_555
H22_11 C46_11 1_555 1_555
C48_11 C43_11 1_555 1_555
H24_11 C48_11 1_555 1_555
O28_13 Zr13_4 1_555 1_555
O32_13 Zr13_4 1_555 1_555
Zr16_4 O15_11 1_555 1_555
O43_13 Zr13_4 1_555 1_555
C37_11 C38_11 1_555 1_555
C44_11 N6_11 1_555 1_555
O17_11 Zr17_4 1_555 1_555
C45_11 C46_11 1_555 1_555
O34_7 Zr17_4 1_555 1_555
O16_10 C39_12 1_555 1_555
C39_12 C40_12 1_555 1_555
C40_12 C41_12 1_555 1_555
H19_12 C41_12 1_555 1_555
O18_8 C39_12 1_555 1_555
C47_12 C40_12 1_555 1_555
H23_12 C47_12 1_555 1_555
Zr7 O19_7 1_555 1_555
Zr15_4 O18_8 1_555 1_555
O19_7 Zr15_4 1_555 1_555
O20_7 Zr7 1_555 1_555
O21_7 Zr7 1_555 1_555
O22_8 Zr15_4 1_555 1_555
Zr15_5 O16_10 1_555 1_555
O23_7 Zr7 1_555 1_555
O24_7 Zr7 1_555 1_555
O25_10 Zr15_5 1_555 1_555
O30_8 Zr15_4 1_555 1_555
O31_10 Zr15_5 1_555 1_555
Zr9_5 O23_7 1_555 1_555
Zr8 O20_7 1_555 1_555
O33_10 Zr15_5 1_555 1_555
O34_8 Zr15_4 1_555 1_555
O37_7 Zr7 1_555 1_555
O38_7 Zr15_4 1_555 1_555
O39_5 Zr7 1_555 1_555
Zr15_4 O20_7 1_555 1_555
O19_7 Zr15_5 1_555 1_555
Zr15_5 O23_7 1_555 1_555
Zr15_5 O38_7 1_555 1_555
Zr9_5 O33_10 1_555 1_555
Zr9_5 O37_7 1_555 1_555
Zr8 O34_8 1_555 1_555
Zr8 O37_7 1_555 1_555
C7_12 O45_5 1_555 1_555
C8_12 C7_12 1_555 1_555
C9_12 C8_12 1_555 1_555
C10_12 C9_12 1_555 1_555
C11_12 C10_12 1_555 1_555
C12_12 C11_12 1_555 1_555
N2_12 C12_12 1_555 1_555
H3_12 C9_12 1_555 1_555
H4_12 C10_12 1_555 1_555
O45_6 C31_12 1_555 1_555
C31_12 C32_12 1_555 1_555
C32_12 C33_12 1_555 1_555
C33_12 C34_12 1_555 1_555
C34_12 C35_12 1_555 1_555
C35_12 C36_12 1_555 1_555
C36_12 N2_12 1_555 1_555
H15_12 C33_12 1_555 1_555
H16_12 C34_12 1_555 1_555
O15_12 C31_12 1_555 1_555
C37_12 C32_12 1_555 1_555
C38_12 C35_12 1_555 1_555
N5_12 C36_12 1_555 1_555
H17_12 C37_12 1_555 1_555
H18_12 C38_12 1_555 1_555
C42_12 C43_12 1_555 1_555
C43_12 C44_12 1_555 1_555
C44_12 N5_12 1_555 1_555
N6_12 C12_12 1_555 1_555
H20_12 C42_12 1_555 1_555
O17_12 C7_12 1_555 1_555
C45_12 C8_12 1_555 1_555
C46_12 C11_12 1_555 1_555
H21_12 C45_12 1_555 1_555
H22_12 C46_12 1_555 1_555
C48_12 C43_12 1_555 1_555
H24_12 C48_12 1_555 1_555
O28_14 Zr13_5 1_555 1_555
O32_14 Zr13_5 1_555 1_555
Zr16_5 O15_12 1_555 1_555
O43_14 Zr13_5 1_555 1_555
C37_12 C38_12 1_555 1_555
C44_12 N6_12 1_555 1_555
O17_12 Zr17_5 1_555 1_555
C45_12 C46_12 1_555 1_555
O33_7 Zr17_5 1_555 1_555
C1_11 O40_2 1_555 1_555
C2_11 C1_11 1_555 1_555
C3_11 C2_11 1_555 1_555
C4_11 C3_11 1_555 1_555
C5_11 C4_11 1_555 1_555
C6_11 C5_11 1_555 1_555
N1_11 C6_11 1_555 1_555
H1_11 C3_11 1_555 1_555
H2_11 C4_11 1_555 1_555
O41 C13_11 1_555 1_555
C13_11 C14_11 1_555 1_555
C14_11 C15_11 1_555 1_555
C15_11 C16_11 1_555 1_555
C16_11 C17_11 1_555 1_555
C17_11 C18_11 1_555 1_555
C18_11 N1_11 1_555 1_555
H5_11 C15_11 1_555 1_555
H6_11 C16_11 1_555 1_555
O10_11 C19_11 1_555 1_555
C19_11 C20_11 1_555 1_555
C20_11 C21_11 1_555 1_555
C21_11 C22_11 1_555 1_555
C22_11 C23_11 1_555 1_555
C23_11 C24_11 1_555 1_555
C24_11 N3_11 1_555 1_555
N3_11 C6_11 1_555 1_555
H7_11 C21_11 1_555 1_555
H8_11 C22_11 1_555 1_555
O42 C13_11 1_555 1_555
C25_11 C14_11 1_555 1_555
C26_11 C17_11 1_555 1_555
N4_11 C18_11 1_555 1_555
H9_11 C25_11 1_555 1_555
H10_11 C26_11 1_555 1_555
O12_7 C1_11 1_555 1_555
C27_11 C2_11 1_555 1_555
C28_11 C5_11 1_555 1_555
H11_11 C27_11 1_555 1_555
H12_11 C28_11 1_555 1_555
O13_11 C19_11 1_555 1_555
C29_11 C20_11 1_555 1_555
C30_11 C23_11 1_555 1_555
H13_11 C29_11 1_555 1_555
H14_11 C30_11 1_555 1_555
O28_15 Zr9_2 1_555 1_555
O32_15 Zr9_2 1_555 1_555
Zr11 O10_11 1_555 1_555
Zr11_6 O13_11 1_555 1_555
Zr16_4 O38_2 1_555 1_555
O36_9 Zr9_2 1_555 1_555
O42_8 Zr9_2 1_555 1_555
O43_15 Zr9_2 1_555 1_555
C24_11 N4_11 1_555 1_555
C25_11 C26_11 1_555 1_555
O12_7 Zr12_2 1_555 1_555
C27_11 C28_11 1_555 1_555
C29_11 C30_11 1_555 1_555
O33_2 Zr16_4 1_555 1_555
Zr12_2 O36_9 1_555 1_555
Zr16_4 O36_9 1_555 1_555
C1_12 O39_5 1_555 1_555
C2_12 C1_12 1_555 1_555
C3_12 C2_12 1_555 1_555
C4_12 C3_12 1_555 1_555
C5_12 C4_12 1_555 1_555
C6_12 C5_12 1_555 1_555
N1_12 C6_12 1_555 1_555
H1_12 C3_12 1_555 1_555
H2_12 C4_12 1_555 1_555
O39_2 C13_12 1_555 1_555
C13_12 C14_12 1_555 1_555
C14_12 C15_12 1_555 1_555
C15_12 C16_12 1_555 1_555
C16_12 C17_12 1_555 1_555
C17_12 C18_12 1_555 1_555
C18_12 N1_12 1_555 1_555
H5_12 C15_12 1_555 1_555
H6_12 C16_12 1_555 1_555
O10_12 C19_12 1_555 1_555
C19_12 C20_12 1_555 1_555
C20_12 C21_12 1_555 1_555
C21_12 C22_12 1_555 1_555
C22_12 C23_12 1_555 1_555
C23_12 C24_12 1_555 1_555
C24_12 N3_12 1_555 1_555
N3_12 C6_12 1_555 1_555
H7_12 C21_12 1_555 1_555
H8_12 C22_12 1_555 1_555
O42_8 C13_12 1_555 1_555
C25_12 C14_12 1_555 1_555
C26_12 C17_12 1_555 1_555
N4_12 C18_12 1_555 1_555
H9_12 C25_12 1_555 1_555
H10_12 C26_12 1_555 1_555
O12_8 C1_12 1_555 1_555
C27_12 C2_12 1_555 1_555
C28_12 C5_12 1_555 1_555
H11_12 C27_12 1_555 1_555
H12_12 C28_12 1_555 1_555
O13_12 C19_12 1_555 1_555
C29_12 C20_12 1_555 1_555
C30_12 C23_12 1_555 1_555
H13_12 C29_12 1_555 1_555
H14_12 C30_12 1_555 1_555
O28_16 Zr8 1_555 1_555
O32_16 Zr8 1_555 1_555
Zr11_6 O10_12 1_555 1_555
Zr10 O13_12 1_555 1_555
Zr16_6 O38_7 1_555 1_555
O36_10 Zr8 1_555 1_555
O43_16 Zr8 1_555 1_555
C24_12 N4_12 1_555 1_555
C25_12 C26_12 1_555 1_555
O12_8 Zr9_5 1_555 1_555
C27_12 C28_12 1_555 1_555
C29_12 C30_12 1_555 1_555
O34_8 Zr16_6 1_555 1_555
Zr9_5 O36_10 1_555 1_555
Zr16_6 O36_10 1_555 1_555
O28_17 Zr8_5 1_555 1_555
O32_17 Zr8_5 1_555 1_555
Zr16_5 O38_6 1_555 1_555
O36_11 Zr8_5 1_555 1_555
O43_17 Zr8_5 1_555 1_555
O34_6 Zr16_5 1_555 1_555
Zr8_4 O36_11 1_555 1_555
Zr16_5 O36_11 1_555 1_555
O28_18 Zr9_4 1_555 1_555
O32_18 Zr9_4 1_555 1_555
Zr16_2 O38_4 1_555 1_555
O36_12 Zr9_4 1_555 1_555
O43_18 Zr9_4 1_555 1_555
O33_4 Zr16_2 1_555 1_555
Zr12_4 O36_12 1_555 1_555
Zr16_2 O36_12 1_555 1_555
O28_19 Zr12_2 1_555 1_555
O32_19 Zr12_2 1_555 1_555
O43_19 Zr12_2 1_555 1_555
O34_2 Zr16_4 1_555 1_555
O28_20 Zr12_4 1_555 1_555
O32_20 Zr12_4 1_555 1_555
O43_20 Zr12_4 1_555 1_555
O34_4 Zr16_2 1_555 1_555
O28_21 Zr8_4 1_555 1_555
O32_21 Zr8_4 1_555 1_555
O43_21 Zr8_4 1_555 1_555
O33_9 Zr16_5 1_555 1_555
O28_22 Zr9_5 1_555 1_555
O32_22 Zr9_5 1_555 1_555
O43_22 Zr9_5 1_555 1_555
O33_10 Zr16_6 1_555 1_555
O28_23 Zr13 1_555 1_555
O32_23 Zr13 1_555 1_555
O43_23 Zr13 1_555 1_555
O33_6 Zr17 1_555 1_555
O28_24 Zr9_3 1_555 1_555
O32_24 Zr9_3 1_555 1_555
O43_24 Zr9_3 1_555 1_555
O33_3 Zr16 1_555 1_555
O25_11 Zr16_6 1_555 1_555
O31_11 Zr16_6 1_555 1_555
C1_13 O43_21 1_555 1_555
C2_13 C1_13 1_555 1_555
C3_13 C2_13 1_555 1_555
C4_13 C3_13 1_555 1_555
C5_13 C4_13 1_555 1_555
C6_13 C5_13 1_555 1_555
N1_13 C6_13 1_555 1_555
H1_13 C3_13 1_555 1_555
H2_13 C4_13 1_555 1_555
O43_6 C13_13 1_555 1_555
C13_13 C14_13 1_555 1_555
C14_13 C15_13 1_555 1_555
C15_13 C16_13 1_555 1_555
C16_13 C17_13 1_555 1_555
C17_13 C18_13 1_555 1_555
C18_13 N1_13 1_555 1_555
H5_13 C15_13 1_555 1_555
H6_13 C16_13 1_555 1_555
O43_4 C19_13 1_555 1_555
C19_13 C20_13 1_555 1_555
C20_13 C21_13 1_555 1_555
C21_13 C22_13 1_555 1_555
C22_13 C23_13 1_555 1_555
C23_13 C24_13 1_555 1_555
C24_13 N3_13 1_555 1_555
N3_13 C6_13 1_555 1_555
H7_13 C21_13 1_555 1_555
H8_13 C22_13 1_555 1_555
O43_8 C13_13 1_555 1_555
C25_13 C14_13 1_555 1_555
C26_13 C17_13 1_555 1_555
N4_13 C18_13 1_555 1_555
H9_13 C25_13 1_555 1_555
H10_13 C26_13 1_555 1_555
O43_17 C1_13 1_555 1_555
C27_13 C2_13 1_555 1_555
C28_13 C5_13 1_555 1_555
H11_13 C27_13 1_555 1_555
H12_13 C28_13 1_555 1_555
O43_13 C19_13 1_555 1_555
C29_13 C20_13 1_555 1_555
C30_13 C23_13 1_555 1_555
H13_13 C29_13 1_555 1_555
H14_13 C30_13 1_555 1_555
C24_13 N4_13 1_555 1_555
C25_13 C26_13 1_555 1_555
C27_13 C28_13 1_555 1_555
C29_13 C30_13 1_555 1_555
Zr10_5 O1_6 1_555 1_555
Zr2_6 O1_6 1_555 1_555
O1_6 Zr14_6 1_555 1_555
O2_6 Zr10_5 1_555 1_555
O3_6 Zr10_5 1_555 1_555
O4_6 Zr2_6 1_555 1_555
O5_6 Zr10_5 1_555 1_555
O6_7 Zr2_6 1_555 1_555
O8_7 Zr2_6 1_555 1_555
C7_13 O8_7 1_555 1_555
C8_13 C7_13 1_555 1_555
C9_13 C8_13 1_555 1_555
H3_13 C9_13 1_555 1_555
O17_13 C7_13 1_555 1_555
C45_13 C8_13 1_555 1_555
H21_13 C45_13 1_555 1_555
O26_6 Zr10_5 1_555 1_555
Zr10_2 O2_6 1_555 1_555
O27_7 Zr2_6 1_555 1_555
O28_25 Zr10_2 1_555 1_555
O29_7 Zr2_6 1_555 1_555
O32_25 Zr10_2 1_555 1_555
Zr11_2 O3_6 1_555 1_555
Zr14_6 O4_6 1_555 1_555
Zr17_7 O4_6 1_555 1_555
O35_6 Zr10_5 1_555 1_555
O36_13 Zr10_2 1_555 1_555
O46_7 Zr2_6 1_555 1_555
Zr2_6 O2_6 1_555 1_555
O3_6 Zr10_2 1_555 1_555
O17_13 Zr17_7 1_555 1_555
Zr10_2 O27_7 1_555 1_555
O27_7 Zr17_7 1_555 1_555
Zr11_2 O35_6 1_555 1_555
Zr11_2 O36_13 1_555 1_555
Zr14_6 O35_6 1_555 1_555
Zr17_7 O36_13 1_555 1_555
O16_11 C39_13 1_555 1_555
C39_13 C40_13 1_555 1_555
C40_13 C41_13 1_555 1_555
H19_13 C41_13 1_555 1_555
O18_9 C39_13 1_555 1_555
C47_13 C40_13 1_555 1_555
H23_13 C47_13 1_555 1_555
Zr11_3 O19_8 1_555 1_555
Zr4_6 O18_9 1_555 1_555
O19_8 Zr4_6 1_555 1_555
O20_8 Zr11_3 1_555 1_555
O21_8 Zr11_3 1_555 1_555
O22_9 Zr4_6 1_555 1_555
Zr5_5 O16_11 1_555 1_555
O23_8 Zr11_3 1_555 1_555
O24_8 Zr11_3 1_555 1_555
O25_12 Zr5_5 1_555 1_555
O30_9 Zr4_6 1_555 1_555
O31_12 Zr5_5 1_555 1_555
Zr10_6 O23_8 1_555 1_555
Zr10_3 O20_8 1_555 1_555
O33_11 Zr5_5 1_555 1_555
O34_9 Zr4_6 1_555 1_555
O37_8 Zr11_3 1_555 1_555
O38_8 Zr4_6 1_555 1_555
O44_7 Zr4_6 1_555 1_555
O45_7 Zr5_5 1_555 1_555
Zr4_6 O20_8 1_555 1_555
O19_8 Zr5_5 1_555 1_555
Zr5_5 O23_8 1_555 1_555
Zr5_5 O38_8 1_555 1_555
Zr10_6 O33_11 1_555 1_555
Zr10_6 O37_8 1_555 1_555
Zr10_3 O34_9 1_555 1_555
Zr10_3 O37_8 1_555 1_555
O14_7 C31_13 1_555 1_555
C31_13 C32_13 1_555 1_555
C32_13 C33_13 1_555 1_555
H15_13 C33_13 1_555 1_555
O15_13 C31_13 1_555 1_555
C37_13 C32_13 1_555 1_555
H17_13 C37_13 1_555 1_555
Zr15_6 O14_7 1_555 1_555
Zr16_7 O15_13 1_555 1_555
O6_8 Zr16_2 1_555 1_555
O22_10 Zr17_2 1_555 1_555
O29_8 Zr16_2 1_555 1_555
O30_10 Zr17_2 1_555 1_555
O14_8 C31_14 1_555 1_555
C31_14 C32_14 1_555 1_555
C32_14 C33_14 1_555 1_555
H15_14 C33_14 1_555 1_555
O46_7 C31_14 1_555 1_555
C37_14 C32_14 1_555 1_555
H17_14 C37_14 1_555 1_555
Zr14_6 O14_8 1_555 1_555
Zr2_7 O33_11 1_555 1_555
O2_7 Zr10_6 1_555 1_555
O38_8 Zr2_7 1_555 1_555
O5_7 Zr10_6 1_555 1_555
O6_9 Zr2_7 1_555 1_555
O8_8 Zr2_7 1_555 1_555
C7_14 O8_8 1_555 1_555
C8_14 C7_14 1_555 1_555
C9_14 C8_14 1_555 1_555
H3_14 C9_14 1_555 1_555
O44_7 C7_14 1_555 1_555
C45_14 C8_14 1_555 1_555
H21_14 C45_14 1_555 1_555
O26_7 Zr10_6 1_555 1_555
Zr10_3 O2_7 1_555 1_555
O34_9 Zr2_7 1_555 1_555
O28_26 Zr10_3 1_555 1_555
O29_9 Zr2_7 1_555 1_555
O32_26 Zr10_3 1_555 1_555
O46_8 Zr2_7 1_555 1_555
Zr2_7 O2_7 1_555 1_555
O16_12 C39_14 1_555 1_555
C39_14 C40_14 1_555 1_555
C40_14 C41_14 1_555 1_555
H19_14 C41_14 1_555 1_555
O18_10 C39_14 1_555 1_555
C47_14 C40_14 1_555 1_555
H23_14 C47_14 1_555 1_555
Zr11_4 O19_9 1_555 1_555
Zr4_7 O18_10 1_555 1_555
O19_9 Zr4_7 1_555 1_555
O20_9 Zr11_4 1_555 1_555
O21_9 Zr11_4 1_555 1_555
O22_11 Zr4_7 1_555 1_555
Zr5_6 O16_12 1_555 1_555
O23_9 Zr11_4 1_555 1_555
O24_9 Zr11_4 1_555 1_555
O25_13 Zr5_6 1_555 1_555
O30_11 Zr4_7 1_555 1_555
O31_13 Zr5_6 1_555 1_555
Zr11_5 O23_9 1_555 1_555
Zr10_4 O20_9 1_555 1_555
O33_12 Zr5_6 1_555 1_555
O34_10 Zr4_7 1_555 1_555
O37_9 Zr11_4 1_555 1_555
O38_9 Zr4_7 1_555 1_555
O44_8 Zr4_7 1_555 1_555
O45_8 Zr5_6 1_555 1_555
Zr4_7 O20_9 1_555 1_555
O19_9 Zr5_6 1_555 1_555
Zr5_6 O23_9 1_555 1_555
Zr5_6 O38_9 1_555 1_555
Zr11_5 O33_12 1_555 1_555
Zr11_5 O37_9 1_555 1_555
Zr10_4 O34_10 1_555 1_555
Zr10_4 O37_9 1_555 1_555
C1_14 O43_16 1_555 1_555
C2_14 C1_14 1_555 1_555
C3_14 C2_14 1_555 1_555
C4_14 C3_14 1_555 1_555
C5_14 C4_14 1_555 1_555
C6_14 C5_14 1_555 1_555
N1_14 C6_14 1_555 1_555
H1_14 C3_14 1_555 1_555
H2_14 C4_14 1_555 1_555
O43_19 C13_14 1_555 1_555
C13_14 C14_14 1_555 1_555
C14_14 C15_14 1_555 1_555
C15_14 C16_14 1_555 1_555
C16_14 C17_14 1_555 1_555
C17_14 C18_14 1_555 1_555
C18_14 N1_14 1_555 1_555
H5_14 C15_14 1_555 1_555
H6_14 C16_14 1_555 1_555
O43 C19_14 1_555 1_555
C19_14 C20_14 1_555 1_555
C20_14 C21_14 1_555 1_555
C21_14 C22_14 1_555 1_555
C22_14 C23_14 1_555 1_555
C23_14 C24_14 1_555 1_555
C24_14 N3_14 1_555 1_555
N3_14 C6_14 1_555 1_555
H7_14 C21_14 1_555 1_555
H8_14 C22_14 1_555 1_555
O43_15 C13_14 1_555 1_555
C25_14 C14_14 1_555 1_555
C26_14 C17_14 1_555 1_555
N4_14 C18_14 1_555 1_555
H9_14 C25_14 1_555 1_555
H10_14 C26_14 1_555 1_555
O43_22 C1_14 1_555 1_555
C27_14 C2_14 1_555 1_555
C28_14 C5_14 1_555 1_555
H11_14 C27_14 1_555 1_555
H12_14 C28_14 1_555 1_555
O43_23 C19_14 1_555 1_555
C29_14 C20_14 1_555 1_555
C30_14 C23_14 1_555 1_555
H13_14 C29_14 1_555 1_555
H14_14 C30_14 1_555 1_555
C24_14 N4_14 1_555 1_555
C25_14 C26_14 1_555 1_555
C27_14 C28_14 1_555 1_555
C29_14 C30_14 1_555 1_555
O25_14 Zr17_5 1_555 1_555
O31_14 Zr17_5 1_555 1_555
O6_10 Zr16_3 1_555 1_555
O22_12 Zr17_3 1_555 1_555
O29_10 Zr16_3 1_555 1_555
O30_12 Zr17_3 1_555 1_555
O25_15 Zr17_6 1_555 1_555
O31_15 Zr17_6 1_555 1_555
C1_15 O43_5 1_555 1_555
C2_15 C1_15 1_555 1_555
C3_15 C2_15 1_555 1_555
C4_15 C3_15 1_555 1_555
C5_15 C4_15 1_555 1_555
C6_15 C5_15 1_555 1_555
N1_15 C6_15 1_555 1_555
H1_15 C3_15 1_555 1_555
H2_15 C4_15 1_555 1_555
O43_9 C13_15 1_555 1_555
C13_15 C14_15 1_555 1_555
C14_15 C15_15 1_555 1_555
C15_15 C16_15 1_555 1_555
C16_15 C17_15 1_555 1_555
C17_15 C18_15 1_555 1_555
C18_15 N1_15 1_555 1_555
H5_15 C15_15 1_555 1_555
H6_15 C16_15 1_555 1_555
O43_2 C19_15 1_555 1_555
C19_15 C20_15 1_555 1_555
C20_15 C21_15 1_555 1_555
C21_15 C22_15 1_555 1_555
C22_15 C23_15 1_555 1_555
C23_15 C24_15 1_555 1_555
C24_15 N3_15 1_555 1_555
N3_15 C6_15 1_555 1_555
H7_15 C21_15 1_555 1_555
H8_15 C22_15 1_555 1_555
O43_24 C13_15 1_555 1_555
C25_15 C14_15 1_555 1_555
C26_15 C17_15 1_555 1_555
N4_15 C18_15 1_555 1_555
H9_15 C25_15 1_555 1_555
H10_15 C26_15 1_555 1_555
O43_14 C1_15 1_555 1_555
C27_15 C2_15 1_555 1_555
C28_15 C5_15 1_555 1_555
H11_15 C27_15 1_555 1_555
H12_15 C28_15 1_555 1_555
O43_12 C19_15 1_555 1_555
C29_15 C20_15 1_555 1_555
C30_15 C23_15 1_555 1_555
H13_15 C29_15 1_555 1_555
H14_15 C30_15 1_555 1_555
C24_15 N4_15 1_555 1_555
C25_15 C26_15 1_555 1_555
C27_15 C28_15 1_555 1_555
C29_15 C30_15 1_555 1_555
O45_7 C31_15 1_555 1_555
C31_15 C32_15 1_555 1_555
C32_15 C33_15 1_555 1_555
H15_15 C33_15 1_555 1_555
O46_8 C31_15 1_555 1_555
C37_15 C32_15 1_555 1_555
H17_15 C37_15 1_555 1_555
O16_13 C39_15 1_555 1_555
C39_15 C40_15 1_555 1_555
C40_15 C41_15 1_555 1_555
H19_15 C41_15 1_555 1_555
O18_11 C39_15 1_555 1_555
C47_15 C40_15 1_555 1_555
H23_15 C47_15 1_555 1_555
Zr11 O19_10 1_555 1_555
Zr4_8 O18_11 1_555 1_555
O19_10 Zr4_8 1_555 1_555
O20_10 Zr11 1_555 1_555
O21_10 Zr11 1_555 1_555
O22_13 Zr4_8 1_555 1_555
Zr15_6 O16_13 1_555 1_555
O23_10 Zr11 1_555 1_555
O24_10 Zr11 1_555 1_555
O25_16 Zr15_6 1_555 1_555
O30_13 Zr4_8 1_555 1_555
O31_16 Zr15_6 1_555 1_555
Zr11_6 O23_10 1_555 1_555
Zr10 O20_10 1_555 1_555
O33_13 Zr15_6 1_555 1_555
O34_11 Zr4_8 1_555 1_555
O37_10 Zr11 1_555 1_555
O38_10 Zr4_8 1_555 1_555
O44_9 Zr4_8 1_555 1_555
Zr4_8 O20_10 1_555 1_555
O19_10 Zr15_6 1_555 1_555
Zr15_6 O23_10 1_555 1_555
Zr15_6 O38_10 1_555 1_555
Zr11_6 O33_13 1_555 1_555
Zr11_6 O37_10 1_555 1_555
Zr10 O34_11 1_555 1_555
Zr10 O37_10 1_555 1_555
Zr2_8 O33_12 1_555 1_555
O2_8 Zr11_5 1_555 1_555
O38_9 Zr2_8 1_555 1_555
O5_8 Zr11_5 1_555 1_555
O6_11 Zr2_8 1_555 1_555
O8_9 Zr2_8 1_555 1_555
C7_15 O8_9 1_555 1_555
C8_15 C7_15 1_555 1_555
C9_15 C8_15 1_555 1_555
H3_15 C9_15 1_555 1_555
O44_8 C7_15 1_555 1_555
C45_15 C8_15 1_555 1_555
H21_15 C45_15 1_555 1_555
O26_8 Zr11_5 1_555 1_555
Zr10_4 O2_8 1_555 1_555
O34_10 Zr2_8 1_555 1_555
O28_27 Zr10_4 1_555 1_555
O29_11 Zr2_8 1_555 1_555
O32_27 Zr10_4 1_555 1_555
O46_9 Zr2_8 1_555 1_555
Zr2_8 O2_8 1_555 1_555
O6_12 Zr16_4 1_555 1_555
O22_14 Zr17_4 1_555 1_555
O29_12 Zr16_4 1_555 1_555
O30_14 Zr17_4 1_555 1_555
O16_14 C39_16 1_555 1_555
C39_16 C40_16 1_555 1_555
C40_16 C41_16 1_555 1_555
H19_16 C41_16 1_555 1_555
O18_12 C39_16 1_555 1_555
C47_16 C40_16 1_555 1_555
H23_16 C47_16 1_555 1_555
Zr11_2 O19_11 1_555 1_555
Zr17_7 O18_12 1_555 1_555
O19_11 Zr17_7 1_555 1_555
O21_11 Zr11_2 1_555 1_555
O22_15 Zr17_7 1_555 1_555
Zr14_6 O16_14 1_555 1_555
O24_11 Zr11_2 1_555 1_555
O25_17 Zr14_6 1_555 1_555
O30_15 Zr17_7 1_555 1_555
O31_17 Zr14_6 1_555 1_555
O19_11 Zr14_6 1_555 1_555
Zr16_7 O33_13 1_555 1_555
O2_9 Zr11_6 1_555 1_555
O38_10 Zr16_7 1_555 1_555
O5_9 Zr11_6 1_555 1_555
O6_13 Zr16_7 1_555 1_555
O8_10 Zr16_7 1_555 1_555
C7_16 O8_10 1_555 1_555
C8_16 C7_16 1_555 1_555
C9_16 C8_16 1_555 1_555
H3_16 C9_16 1_555 1_555
O44_9 C7_16 1_555 1_555
C45_16 C8_16 1_555 1_555
H21_16 C45_16 1_555 1_555
O26_9 Zr11_6 1_555 1_555
Zr10 O2_9 1_555 1_555
O34_11 Zr16_7 1_555 1_555
O28_28 Zr10 1_555 1_555
O29_13 Zr16_7 1_555 1_555
O32_28 Zr10 1_555 1_555
Zr16_7 O2_9 1_555 1_555
O45_8 C31_16 1_555 1_555
C31_16 C32_16 1_555 1_555
C32_16 C33_16 1_555 1_555
H15_16 C33_16 1_555 1_555
O46_9 C31_16 1_555 1_555
C37_16 C32_16 1_555 1_555
H17_16 C37_16 1_555 1_555
C1_16 O43_11 1_555 1_555
C2_16 C1_16 1_555 1_555
C3_16 C2_16 1_555 1_555
C4_16 C3_16 1_555 1_555
C5_16 C4_16 1_555 1_555
C6_16 C5_16 1_555 1_555
N1_16 C6_16 1_555 1_555
H1_16 C3_16 1_555 1_555
H2_16 C4_16 1_555 1_555
O43_20 C13_16 1_555 1_555
C13_16 C14_16 1_555 1_555
C14_16 C15_16 1_555 1_555
C15_16 C16_16 1_555 1_555
C16_16 C17_16 1_555 1_555
C17_16 C18_16 1_555 1_555
C18_16 N1_16 1_555 1_555
H5_16 C15_16 1_555 1_555
H6_16 C16_16 1_555 1_555
O43_3 C19_16 1_555 1_555
C19_16 C20_16 1_555 1_555
C20_16 C21_16 1_555 1_555
C21_16 C22_16 1_555 1_555
C22_16 C23_16 1_555 1_555
C23_16 C24_16 1_555 1_555
C24_16 N3_16 1_555 1_555
N3_16 C6_16 1_555 1_555
H7_16 C21_16 1_555 1_555
H8_16 C22_16 1_555 1_555
O43_18 C13_16 1_555 1_555
C25_16 C14_16 1_555 1_555
C26_16 C17_16 1_555 1_555
N4_16 C18_16 1_555 1_555
H9_16 C25_16 1_555 1_555
H10_16 C26_16 1_555 1_555
O43_7 C1_16 1_555 1_555
C27_16 C2_16 1_555 1_555
C28_16 C5_16 1_555 1_555
H11_16 C27_16 1_555 1_555
H12_16 C28_16 1_555 1_555
O43_10 C19_16 1_555 1_555
C29_16 C20_16 1_555 1_555
C30_16 C23_16 1_555 1_555
H13_16 C29_16 1_555 1_555
H14_16 C30_16 1_555 1_555
C24_16 N4_16 1_555 1_555
C25_16 C26_16 1_555 1_555
C27_16 C28_16 1_555 1_555
C29_16 C30_16 1_555 1_555
O25_18 Zr16_5 1_555 1_555
O31_18 Zr16_5 1_555 1_555
O6_14 Zr16 1_555 1_555
O22_16 Zr17 1_555 1_555
O29_14 Zr16 1_555 1_555
O30_16 Zr17 1_555 1_555
C11_13 C10_13 1_555 1_555
C12_13 C11_13 1_555 1_555
N2_13 C12_13 1_555 1_555
H4_13 C10_13 1_555 1_555
C34_13 C35_13 1_555 1_555
C35_13 C36_13 1_555 1_555
C36_13 N2_13 1_555 1_555
H16_13 C34_13 1_555 1_555
C38_13 C35_13 1_555 1_555
N5_13 C36_13 1_555 1_555
H18_13 C38_13 1_555 1_555
C42_13 C43_13 1_555 1_555
C43_13 C44_13 1_555 1_555
C44_13 N5_13 1_555 1_555
N6_13 C12_13 1_555 1_555
H20_13 C42_13 1_555 1_555
C46_13 C11_13 1_555 1_555
H22_13 C46_13 1_555 1_555
C48_13 C43_13 1_555 1_555
H24_13 C48_13 1_555 1_555
C44_13 N6_13 1_555 1_555
C11_14 C10_14 1_555 1_555
C12_14 C11_14 1_555 1_555
N2_14 C12_14 1_555 1_555
H4_14 C10_14 1_555 1_555
C34_14 C35_14 1_555 1_555
C35_14 C36_14 1_555 1_555
C36_14 N2_14 1_555 1_555
H16_14 C34_14 1_555 1_555
C38_14 C35_14 1_555 1_555
N5_14 C36_14 1_555 1_555
H18_14 C38_14 1_555 1_555
C42_14 C43_14 1_555 1_555
C43_14 C44_14 1_555 1_555
C44_14 N5_14 1_555 1_555
N6_14 C12_14 1_555 1_555
H20_14 C42_14 1_555 1_555
C46_14 C11_14 1_555 1_555
H22_14 C46_14 1_555 1_555
C48_14 C43_14 1_555 1_555
H24_14 C48_14 1_555 1_555
C44_14 N6_14 1_555 1_555
C11_15 C10_15 1_555 1_555
C12_15 C11_15 1_555 1_555
N2_15 C12_15 1_555 1_555
H4_15 C10_15 1_555 1_555
C34_15 C35_15 1_555 1_555
C35_15 C36_15 1_555 1_555
C36_15 N2_15 1_555 1_555
H16_15 C34_15 1_555 1_555
C38_15 C35_15 1_555 1_555
N5_15 C36_15 1_555 1_555
H18_15 C38_15 1_555 1_555
C42_15 C43_15 1_555 1_555
C43_15 C44_15 1_555 1_555
C44_15 N5_15 1_555 1_555
N6_15 C12_15 1_555 1_555
H20_15 C42_15 1_555 1_555
C46_15 C11_15 1_555 1_555
H22_15 C46_15 1_555 1_555
C48_15 C43_15 1_555 1_555
H24_15 C48_15 1_555 1_555
C44_15 N6_15 1_555 1_555
C11_16 C10_16 1_555 1_555
C12_16 C11_16 1_555 1_555
N2_16 C12_16 1_555 1_555
H4_16 C10_16 1_555 1_555
C34_16 C35_16 1_555 1_555
C35_16 C36_16 1_555 1_555
C36_16 N2_16 1_555 1_555
H16_16 C34_16 1_555 1_555
C38_16 C35_16 1_555 1_555
N5_16 C36_16 1_555 1_555
H18_16 C38_16 1_555 1_555
C42_16 C43_16 1_555 1_555
C43_16 C44_16 1_555 1_555
C44_16 N5_16 1_555 1_555
N6_16 C12_16 1_555 1_555
H20_16 C42_16 1_555 1_555
C46_16 C11_16 1_555 1_555
H22_16 C46_16 1_555 1_555
C48_16 C43_16 1_555 1_555
H24_16 C48_16 1_555 1_555
C44_16 N6_16 1_555 1_555

#END
