
###############################################################################
#
# This file contains modified crystal structure data generated from the
# MOF subset of the Cambridge Structural Database (CSD) v543 
# hosted by the Cambridge Crystallographic Data Centre (CCDC).
#
# This work is licensed under the Creative Commons
# Attribution-NonCommercial-ShareAlike 4.0 International License.
# To view a copy of this license, visit
# http://creativecommons.org/licenses/by-nc-sa/4.0/
# or send a letter to
# Creative Commons, PO Box 1866, Mountain View, CA 94042, USA.
#
# CIF created using the CSD Python API on 29 September 2022
# The structure has been converted into the P1 space group
# The structure has a 3D framework
# The original CSD entry FOTQAI is in the rhombohedral crystal system
# The framework has been calculated to contain at least 10.0% void space
# The void calculation uses a probe of radius 1.32A, grid spacing 0.4
# The framework is charged, counterions have been retained in the structure
#
###############################################################################

data_FOTQAI
_chemical_formula_moiety         '(C126 H90 Cu14 N72 14+)n'
_symmetry_cell_setting           triclinic
_symmetry_space_group_name_H-M   'P 1'
_symmetry_Int_Tables_number      1
_space_group_name_Hall           'P 1'
loop_
_symmetry_equiv_pos_site_id
_symmetry_equiv_pos_as_xyz
1 x,y,z
_cell_length_a                   17.7586(5)
_cell_length_b                   17.7586(5)
_cell_length_c                   19.6912(6)
_cell_angle_alpha                90
_cell_angle_beta                 90
_cell_angle_gamma                120
_cell_volume                     5377.99
loop_
_atom_site_label
_atom_site_type_symbol
_atom_site_fract_x
_atom_site_fract_y
_atom_site_fract_z
Cu1 Cu 0.58981(4) 0.53584(4) 0.57127(3)
N1 N 0.5179(2) 0.5846(2) 0.53556(18)
N2 N 0.6426(2) 0.6476(2) 0.62646(18)
N3 N 0.4483(2) 0.5583(3) 0.49499(19)
C1 C 0.5340(3) 0.6591(3) 0.5654(2)
N4 N 0.6962(2) 0.8037(2) 0.69392(19)
C2 C 0.6329(3) 0.7743(3) 0.6483(2)
H1 H 0.6066 0.8070 0.6387
C3 C 0.7339(3) 0.7562(3) 0.7046(2)
H2 H 0.7792 0.7758 0.7358
C4 C 0.7081(3) 0.6786(3) 0.6710(2)
H3 H 0.7367 0.6478 0.6795
C5 C 0.6043(3) 0.6956(3) 0.6143(2)
C6 C 0.4228(4) 0.6182(4) 0.4990(3)
H4 H 0.3766 0.6160 0.4751
C7 C 0.4753(4) 0.6828(4) 0.5436(3)
H5 H 0.4719 0.7315 0.5562
Cu2 Cu 0.41019(4) 0.46416(4) 0.42873(3)
Cu3 Cu 0.72064(6) 0.92314(4) 0.76206(3)
N5 N 0.5517(2) 0.4417(3) 0.50501(19)
N6 N 0.4704(2) 0.4408(3) 0.63941(19)
N1_2 N 0.0667(3) 0.4821(2) 0.53556(18)
N2_2 N 0.0050(3) 0.3574(2) 0.62646(18)
N3_2 N 0.1100(4) 0.5517(2) 0.49499(19)
C1_2 C 0.1251(4) 0.4660(3) 0.5654(2)
N4_2 N 0.1075(3) 0.3038(2) 0.69392(19)
C2_2 C 0.1414(4) 0.3671(3) 0.6483(2)
H1_2 H 0.2004 0.3934 0.6387
C3_2 C 0.0223(4) 0.2661(3) 0.7046(2)
C5_2 C 0.0913(4) 0.3957(3) 0.6143(2)
C6_2 C 0.1954(6) 0.5772(4) 0.4990(3)
H4_2 H 0.2394 0.6234 0.4751
C7_2 C 0.2075(6) 0.5247(4) 0.5436(3)
H5_2 H 0.2596 0.5281 0.5562
Cu2_2 Cu 0.05397(6) 0.58981(4) 0.42873(3)
Cu3_2 Cu 0.20251(7) 0.27936(6) 0.76206(3)
Cu1_2 Cu 0.94603(6) 0.41019(4) 0.57127(3)
H2_2 H 0.9966 0.2208 0.7358
C4_2 C 0.9705(4) 0.2919(3) 0.6710(2)
H3_2 H 0.9111 0.2633 0.6795
N5_2 N 0.8900(4) 0.4483(2) 0.50501(19)
N6_2 N 0.9705(4) 0.5296(2) 0.63941(19)
N4_3 N 0.3629(2) 0.1370(2) 0.02725(19)
C3_3 C 0.4006(3) 0.0895(3) 0.0379(2)
H2_3 H 0.4459 0.1091 0.0691
C4_3 C 0.3748(3) 0.0119(3) 0.0043(2)
Cu3_3 Cu 0.38730(6) 0.25648(4) 0.09540(3)
Cu1_3 Cu 0.13083(4) 0.38730(6) 0.90460(3)
N1_3 N 0.0821(2) 0.2666(3) 0.86889(18)
N2_3 N 0.0191(2) 0.3283(3) 0.95979(18)
N3_3 N 0.1084(3) 0.2233(4) 0.82832(19)
C1_3 C 0.0076(3) 0.2082(4) 0.8987(2)
C6_3 C 0.0485(4) 0.1379(6) 0.8323(3)
H4_3 H 0.0507 0.0939 0.8084
N5_3 N 0.2250(3) 0.4433(4) 0.83834(19)
N6_3 N 0.2258(3) 0.3629(4) 0.97275(19)
N4_4 N 0.7742(3) 0.6371(2) 0.02725(19)
C3_4 C 0.6890(4) 0.5994(3) 0.0379(2)
H2_4 H 0.6633 0.5541 0.0691
C4_4 C 0.6372(4) 0.6252(3) 0.0043(2)
H3_3 H 0.5778 0.5966 0.0128
Cu3_4 Cu 0.86917(7) 0.61270(6) 0.09540(3)
Cu1_4 Cu 0.61270(6) 0.74352(4) 0.90460(3)
N1_4 N 0.7334(3) 0.8154(2) 0.86889(18)
N2_4 N 0.6717(3) 0.6907(2) 0.95979(18)
N3_4 N 0.7767(4) 0.8850(2) 0.82832(19)
C1_4 C 0.7918(4) 0.7993(3) 0.8987(2)
C2_3 C 0.8081(4) 0.7004(3) 0.9816(2)
H1_3 H 0.8671 0.7267 0.9720
C5_3 C 0.7580(4) 0.7290(3) 0.9476(2)
C6_4 C 0.8621(6) 0.9105(4) 0.8323(3)
H4_4 H 0.9061 0.9567 0.8084
C7_3 C 0.8742(6) 0.8580(4) 0.8769(3)
H5_3 H 0.9263 0.8614 0.8895
N5_4 N 0.5567(4) 0.7816(2) 0.83834(19)
N6_4 N 0.6371(4) 0.8630(2) 0.97275(19)
N4_5 N 0.0295(2) 0.4704(2) 0.36059(19)
C3_5 C 0.0672(3) 0.4229(3) 0.3713(2)
H2_5 H 0.1125 0.4425 0.4025
C4_5 C 0.0414(3) 0.3453(3) 0.3377(2)
H3_4 H 0.0700 0.3145 0.3462
Cu1_5 Cu 0.79749(4) 0.72064(6) 0.23794(3)
N1_5 N 0.7487(2) 0.6000(3) 0.20223(18)
N2_5 N 0.6857(2) 0.6617(3) 0.29313(18)
N3_5 N 0.7750(3) 0.5567(4) 0.16166(19)
C1_5 C 0.6742(3) 0.5416(4) 0.2321(2)
N4_6 N 0.5296(2) 0.5592(3) 0.36059(19)
C2_4 C 0.5590(3) 0.5253(4) 0.3150(2)
H1_4 H 0.5263 0.4663 0.3054
C3_6 C 0.5771(3) 0.6444(4) 0.3713(2)
H2_6 H 0.5575 0.6701 0.4025
C4_6 C 0.6547(3) 0.6962(4) 0.3377(2)
H3_5 H 0.6855 0.7556 0.3462
C5_4 C 0.6377(3) 0.5754(4) 0.2810(2)
C6_5 C 0.7151(4) 0.4713(6) 0.1657(3)
H4_5 H 0.7173 0.4273 0.1418
C7_4 C 0.6505(4) 0.4592(6) 0.2103(3)
H5_4 H 0.6018 0.4071 0.2229
N5_5 N 0.8916(3) 0.7767(4) 0.17168(19)
N6_5 N 0.8925(3) 0.6962(4) 0.30608(19)
Cu1_6 Cu 0.27936(6) 0.07686(4) 0.23794(3)
N1_6 N 0.4000(3) 0.1488(2) 0.20223(18)
N2_6 N 0.3383(3) 0.0241(2) 0.29313(18)
N3_6 N 0.4433(4) 0.2184(2) 0.16166(19)
C1_6 C 0.4584(4) 0.1327(3) 0.2321(2)
C2_5 C 0.4747(4) 0.0338(3) 0.3150(2)
H1_5 H 0.5337 0.0601 0.3054
C5_5 C 0.4246(4) 0.0624(3) 0.2810(2)
C6_6 C 0.5287(6) 0.2439(4) 0.1657(3)
H4_6 H 0.5727 0.2901 0.1418
C7_5 C 0.5408(6) 0.1914(4) 0.2103(3)
H5_5 H 0.5929 0.1948 0.2229
N5_6 N 0.2233(4) 0.1150(2) 0.17168(19)
N6_6 N 0.3038(4) 0.1963(2) 0.30608(19)
N1_7 N 0.4821(2) 0.4154(2) 0.46444(18)
N2_7 N 0.3574(2) 0.3524(2) 0.37354(18)
C1_7 C 0.4660(3) 0.3409(3) 0.4346(2)
C2_6 C 0.3671(3) 0.2257(3) 0.3517(2)
H1_6 H 0.3934 0.1930 0.3613
C3_7 C 0.2661(3) 0.2438(3) 0.2954(2)
H2_7 H 0.2208 0.2242 0.2642
C4_7 C 0.2919(3) 0.3214(3) 0.3290(2)
H3_6 H 0.2633 0.3522 0.3205
C5_6 C 0.3957(3) 0.3044(3) 0.3857(2)
C6_7 C 0.5772(4) 0.3818(4) 0.5010(3)
H4_7 H 0.6234 0.3840 0.5249
C7_6 C 0.5247(4) 0.3172(4) 0.4564(3)
H5_6 H 0.5281 0.2685 0.4438
H2_8 H 0.0034 0.7792 0.2642
C4_8 C 0.0295(4) 0.7081(3) 0.3290(2)
H3_7 H 0.0889 0.7367 0.3205
N1_8 N 0.9333(3) 0.5179(2) 0.46444(18)
N2_8 N 0.9950(3) 0.6426(2) 0.37354(18)
C1_8 C 0.8749(4) 0.5340(3) 0.4346(2)
C2_7 C 0.8586(4) 0.6329(3) 0.3517(2)
H1_7 H 0.7996 0.6066 0.3613
C3_8 C 0.9777(4) 0.7339(3) 0.2954(2)
C5_7 C 0.9087(4) 0.6043(3) 0.3857(2)
C6_8 C 0.8046(6) 0.4228(4) 0.5010(3)
H4_8 H 0.7606 0.3766 0.5249
C7_7 C 0.7925(6) 0.4753(4) 0.4564(3)
H5_7 H 0.7404 0.4719 0.4438
C3_9 C 0.5994(3) 0.9105(3) 0.9621(2)
H2_9 H 0.5541 0.8909 0.9309
C4_9 C 0.6252(3) 0.9881(3) 0.9957(2)
N1_9 N 0.9179(2) 0.7334(3) 0.13111(18)
N2_9 N 0.9809(2) 0.6717(3) 0.04021(18)
C1_9 C 0.9924(3) 0.7918(4) 0.1013(2)
C6_9 C 0.9515(4) 0.8621(6) 0.1677(3)
H4_9 H 0.9493 0.9061 0.1916
N1_10 N 0.2666(3) 0.1846(2) 0.13111(18)
N2_10 N 0.3283(3) 0.3093(2) 0.04021(18)
C1_10 C 0.2082(4) 0.2007(3) 0.1013(2)
C2_8 C 0.1919(4) 0.2996(3) 0.0184(2)
H1_8 H 0.1329 0.2733 0.0280
C5_8 C 0.2420(4) 0.2710(3) 0.0524(2)
C6_10 C 0.1379(6) 0.0895(4) 0.1677(3)
H4_10 H 0.0939 0.0433 0.1916
C7_8 C 0.1258(6) 0.1420(4) 0.1231(3)
H5_8 H 0.0737 0.1386 0.1105
C3_10 C 0.3110(4) 0.4006(3) 0.9621(2)
H2_10 H 0.3367 0.4459 0.9309
C4_10 C 0.3628(4) 0.3748(3) 0.9957(2)
H3_8 H 0.4222 0.4034 0.9872
C3_11 C 0.9328(3) 0.5771(3) 0.6287(2)
H2_11 H 0.8875 0.5575 0.5975
C4_11 C 0.9586(3) 0.6547(3) 0.6623(2)
H3_9 H 0.9300 0.6855 0.6538
N1_11 N 0.2513(2) 0.4000(3) 0.79777(18)
N2_11 N 0.3143(2) 0.3383(3) 0.70687(18)
C1_11 C 0.3258(3) 0.4584(4) 0.7679(2)
C2_9 C 0.4410(3) 0.4747(4) 0.6850(2)
H1_9 H 0.4737 0.5337 0.6946
C3_12 C 0.4229(3) 0.3556(4) 0.6287(2)
H2_12 H 0.4425 0.3299 0.5975
C4_12 C 0.3453(3) 0.3038(4) 0.6623(2)
H3_10 H 0.3145 0.2444 0.6538
C5_9 C 0.3623(3) 0.4246(4) 0.7190(2)
C6_11 C 0.2849(4) 0.5287(6) 0.8343(3)
H4_11 H 0.2827 0.5727 0.8582
C7_9 C 0.3495(4) 0.5408(6) 0.7897(3)
H5_9 H 0.3982 0.5929 0.7771
N1_12 N 0.6000(3) 0.8512(2) 0.79777(18)
N2_12 N 0.6617(3) 0.9759(2) 0.70687(18)
C1_12 C 0.5416(4) 0.8673(3) 0.7679(2)
C2_10 C 0.5253(4) 0.9662(3) 0.6850(2)
H1_10 H 0.4663 0.9399 0.6946
C5_10 C 0.5754(4) 0.9376(3) 0.7190(2)
C6_12 C 0.4713(6) 0.7561(4) 0.8343(3)
H4_12 H 0.4273 0.7099 0.8582
C7_10 C 0.4592(6) 0.8086(4) 0.7897(3)
H5_10 H 0.4071 0.8052 0.7771
Cu1_7 Cu 0.46416(4) 0.05397(6) 0.57127(3)
H2_13 H 0.2242 0.0034 0.7358
C4_13 C 0.3214(3) 0.0295(4) 0.6710(2)
H3_11 H 0.3522 0.0889 0.6795
N5_7 N 0.5583(3) 0.1100(4) 0.50501(19)
N6_7 N 0.5592(3) 0.0295(4) 0.63941(19)
N4_7 N 0.8630(2) 0.2258(3) 0.02725(19)
C3_13 C 0.9105(3) 0.3110(4) 0.0379(2)
H2_14 H 0.8909 0.3367 0.0691
C4_14 C 0.9881(3) 0.3628(4) 0.0043(2)
Cu3_5 Cu 0.74352(4) 0.13083(7) 0.09540(3)
Cu1_8 Cu 0.92314(4) 0.20251(4) 0.23794(3)
N1_13 N 0.8512(2) 0.2513(2) 0.20223(18)
N2_13 N 0.9759(2) 0.3143(2) 0.29313(18)
N3_7 N 0.7816(2) 0.2250(3) 0.16166(19)
C1_13 C 0.8673(3) 0.3258(3) 0.2321(2)
C2_11 C 0.9662(3) 0.4410(3) 0.3150(2)
H1_11 H 0.9399 0.4737 0.3054
C5_11 C 0.9376(3) 0.3623(3) 0.2810(2)
C6_13 C 0.7561(4) 0.2849(4) 0.1657(3)
H4_13 H 0.7099 0.2827 0.1418
C7_11 C 0.8086(4) 0.3495(4) 0.2103(3)
H5_11 H 0.8052 0.3982 0.2229
N5_8 N 0.8850(2) 0.1084(3) 0.17168(19)
N6_8 N 0.8037(2) 0.1075(3) 0.30608(19)
N1_14 N 0.5846(2) 0.0667(3) 0.46444(18)
N2_14 N 0.6476(2) 0.0050(3) 0.37354(18)
C1_14 C 0.6591(3) 0.1251(4) 0.4346(2)
C2_12 C 0.7743(3) 0.1414(4) 0.3517(2)
H1_12 H 0.8070 0.2004 0.3613
C3_14 C 0.7562(3) 0.0223(4) 0.2954(2)
C5_12 C 0.6956(3) 0.0913(4) 0.3857(2)
C6_14 C 0.6182(4) 0.1954(6) 0.5010(3)
H4_14 H 0.6160 0.2394 0.5249
C7_12 C 0.6828(4) 0.2075(6) 0.4564(3)
H5_12 H 0.7315 0.2596 0.4438
N1_15 N 0.8154(2) 0.0821(2) 0.13111(18)
N2_15 N 0.6907(2) 0.0191(2) 0.04021(18)
C1_15 C 0.7993(3) 0.0076(3) 0.1013(2)
C6_15 C 0.9105(4) 0.0485(4) 0.1677(3)
H4_15 H 0.9567 0.0507 0.1916
C3_15 C 0.6444(4) 0.0672(3) 0.6287(2)
H2_15 H 0.6701 0.1125 0.5975
C4_15 C 0.6962(4) 0.0414(3) 0.6623(2)
H3_12 H 0.7556 0.0700 0.6538
N1_16 N 0.4154(2) 0.9333(3) 0.53556(18)
N2_16 N 0.3524(2) 0.9950(3) 0.62646(18)
N3_8 N 0.4417(3) 0.8900(4) 0.49499(19)
C1_16 C 0.3409(3) 0.8749(4) 0.5654(2)
N4_8 N 0.1963(2) 0.8925(3) 0.69392(19)
C2_13 C 0.2257(3) 0.8586(4) 0.6483(2)
H1_13 H 0.1930 0.7996 0.6387
C3_16 C 0.2438(3) 0.9777(4) 0.7046(2)
C5_13 C 0.3044(3) 0.9087(4) 0.6143(2)
C6_16 C 0.3818(4) 0.8046(6) 0.4990(3)
H4_16 H 0.3840 0.7606 0.4751
C7_13 C 0.3172(4) 0.7925(6) 0.5436(3)
H5_13 H 0.2685 0.7404 0.5562
Cu2_3 Cu 0.53584(4) 0.94603(6) 0.42873(3)
Cu3_6 Cu 0.07686(4) 0.79749(7) 0.76206(3)
Cu1_9 Cu 0.25648(4) 0.86917(4) 0.90460(3)
N1_17 N 0.1846(2) 0.9179(2) 0.86889(18)
N2_17 N 0.3093(2) 0.9809(2) 0.95979(18)
N3_9 N 0.1150(2) 0.8916(3) 0.82832(19)
C1_17 C 0.2007(3) 0.9924(3) 0.8987(2)
C6_17 C 0.0895(4) 0.9515(4) 0.8323(3)
H4_17 H 0.0433 0.9493 0.8084
N5_9 N 0.2184(2) 0.7750(3) 0.83834(19)
N6_9 N 0.1370(2) 0.7742(3) 0.97275(19)
N4_9 N 0.4408(3) 0.9705(2) 0.36059(19)
C3_17 C 0.3556(4) 0.9328(3) 0.3713(2)
H2_16 H 0.3299 0.8875 0.4025
C4_16 C 0.3038(4) 0.9586(3) 0.3377(2)
H3_13 H 0.2444 0.9300 0.3462
H2_17 H 0.7758 0.9966 0.2642
C4_17 C 0.6786(3) 0.9705(4) 0.3290(2)
H3_14 H 0.6478 0.9111 0.3205
C3_18 C 0.0895(3) 0.6890(4) 0.9621(2)
H2_18 H 0.1091 0.6633 0.9309
C4_18 C 0.0119(3) 0.6372(4) 0.9957(2)
N1_18 N 0.1488(2) 0.7487(2) 0.79777(18)
N2_18 N 0.0241(2) 0.6857(2) 0.70687(18)
C1_18 C 0.1327(3) 0.6742(3) 0.7679(2)
C2_14 C 0.0338(3) 0.5590(3) 0.6850(2)
H1_14 H 0.0601 0.5263 0.6946
C5_14 C 0.0624(3) 0.6377(3) 0.7190(2)
C6_18 C 0.2439(4) 0.7151(4) 0.8343(3)
H4_18 H 0.2901 0.7173 0.8582
C7_14 C 0.1914(4) 0.6505(4) 0.7897(3)
H5_14 H 0.1948 0.6018 0.7771
C2_15 C 0.2996(3) 0.1076(3) 0.9816(2)
H1_15 H 0.2733 0.1403 0.9720
C5_15 C 0.2710(3) 0.0289(3) 0.9476(2)
C7_15 C 0.1420(4) 0.0161(4) 0.8769(3)
H5_15 H 0.1386 0.0648 0.8895
H3_15 H 0.4034 0.9811 0.0128
H3_16 H 0.0189 0.4222 0.0128
C2_16 C 0.8924(3) 0.1919(4) 0.9816(2)
H1_16 H 0.8597 0.1329 0.9720
C5_16 C 0.9711(3) 0.2420(4) 0.9476(2)
C7_16 C 0.9839(4) 0.1258(6) 0.8769(3)
H5_16 H 0.9352 0.0737 0.8895
H3_17 H 0.5966 0.0189 0.9872
C2_17 C 0.7004(3) 0.8924(3) 0.0184(2)
H1_17 H 0.7267 0.8597 0.0280
C5_17 C 0.7290(3) 0.9711(3) 0.0524(2)
C7_17 C 0.8580(4) 0.9839(4) 0.1231(3)
H5_17 H 0.8614 0.9352 0.1105
C2_18 C 0.1076(3) 0.8081(4) 0.0184(2)
H1_18 H 0.1403 0.8671 0.0280
C5_18 C 0.0289(3) 0.7580(4) 0.0524(2)
C7_18 C 0.0161(4) 0.8742(6) 0.1231(3)
H5_18 H 0.0648 0.9263 0.1105
H3_18 H 0.9811 0.5778 0.9872
loop_
_geom_bond_atom_site_label_1
_geom_bond_atom_site_label_2
_geom_bond_site_symmetry_1
_geom_bond_site_symmetry_2
Cu1 N1 1_555 1_555
N1 N3 1_555 1_555
N2 Cu1 1_555 1_555
N3 C6 1_555 1_555
C1 N1 1_555 1_555
N4 C2 1_555 1_555
C2 H1 1_555 1_555
C3 N4 1_555 1_555
H2 C3 1_555 1_555
C4 N2 1_555 1_555
H3 C4 1_555 1_555
C5 N2 1_555 1_555
C6 H4 1_555 1_555
C7 C1 1_555 1_555
H5 C7 1_555 1_555
Cu2 N3 1_555 1_555
Cu3 N4 1_555 1_555
N5 Cu1 1_555 1_555
N6 Cu1 1_555 1_555
C1 C5 1_555 1_555
C2 C5 1_555 1_555
C3 C4 1_555 1_555
C6 C7 1_555 1_555
N1_2 N3_2 1_555 1_555
N3_2 C6_2 1_555 1_555
C1_2 N1_2 1_555 1_555
N4_2 C2_2 1_555 1_555
C2_2 H1_2 1_555 1_555
C3_2 N4_2 1_555 1_555
C5_2 N2_2 1_555 1_555
C6_2 H4_2 1_555 1_555
C7_2 C1_2 1_555 1_555
H5_2 C7_2 1_555 1_555
Cu2_2 N3_2 1_555 1_555
Cu3_2 N4_2 1_555 1_555
C1_2 C5_2 1_555 1_555
C2_2 C5_2 1_555 1_555
C6_2 C7_2 1_555 1_555
H3_2 C4_2 1_555 1_555
N5_2 Cu1_2 1_555 1_555
N6_2 Cu1_2 1_555 1_555
C3_3 N4_3 1_555 1_555
H2_3 C3_3 1_555 1_555
Cu3_3 N4_3 1_555 1_555
C3_3 C4_3 1_555 1_555
Cu1_3 N1_3 1_555 1_555
N1_3 N3_3 1_555 1_555
N2_3 Cu1_3 1_555 1_555
N3_3 C6_3 1_555 1_555
C1_3 N1_3 1_555 1_555
C6_3 H4_3 1_555 1_555
Cu3_2 N3_3 1_555 1_555
N5_3 Cu1_3 1_555 1_555
N6_3 Cu1_3 1_555 1_555
C3_4 N4_4 1_555 1_555
H2_4 C3_4 1_555 1_555
H3_3 C4_4 1_555 1_555
Cu3_4 N4_4 1_555 1_555
C3_4 C4_4 1_555 1_555
Cu1_4 N1_4 1_555 1_555
N1_4 N3_4 1_555 1_555
N2_4 Cu1_4 1_555 1_555
N3_4 C6_4 1_555 1_555
C1_4 N1_4 1_555 1_555
C2_3 H1_3 1_555 1_555
C5_3 N2_4 1_555 1_555
C6_4 H4_4 1_555 1_555
C7_3 C1_4 1_555 1_555
H5_3 C7_3 1_555 1_555
Cu3 N3_4 1_555 1_555
N5_4 Cu1_4 1_555 1_555
N6_4 Cu1_4 1_555 1_555
C1_4 C5_3 1_555 1_555
C2_3 C5_3 1_555 1_555
C6_4 C7_3 1_555 1_555
C3_5 N4_5 1_555 1_555
H2_5 C3_5 1_555 1_555
H3_4 C4_5 1_555 1_555
Cu2_2 N4_5 1_555 1_555
C3_5 C4_5 1_555 1_555
Cu1_5 N1_5 1_555 1_555
N1_5 N3_5 1_555 1_555
N2_5 Cu1_5 1_555 1_555
N3_5 C6_5 1_555 1_555
C1_5 N1_5 1_555 1_555
N4_6 C2_4 1_555 1_555
C2_4 H1_4 1_555 1_555
C3_6 N4_6 1_555 1_555
H2_6 C3_6 1_555 1_555
C4_6 N2_5 1_555 1_555
H3_5 C4_6 1_555 1_555
C5_4 N2_5 1_555 1_555
C6_5 H4_5 1_555 1_555
C7_4 C1_5 1_555 1_555
H5_4 C7_4 1_555 1_555
Cu3_4 N3_5 1_555 1_555
Cu2 N4_6 1_555 1_555
N5_5 Cu1_5 1_555 1_555
N6_5 Cu1_5 1_555 1_555
C1_5 C5_4 1_555 1_555
C2_4 C5_4 1_555 1_555
C3_6 C4_6 1_555 1_555
C6_5 C7_4 1_555 1_555
Cu1_6 N1_6 1_555 1_555
N1_6 N3_6 1_555 1_555
N2_6 Cu1_6 1_555 1_555
N3_6 C6_6 1_555 1_555
C1_6 N1_6 1_555 1_555
C2_5 H1_5 1_555 1_555
C5_5 N2_6 1_555 1_555
C6_6 H4_6 1_555 1_555
C7_5 C1_6 1_555 1_555
H5_5 C7_5 1_555 1_555
Cu3_3 N3_6 1_555 1_555
N5_6 Cu1_6 1_555 1_555
N6_6 Cu1_6 1_555 1_555
C1_6 C5_5 1_555 1_555
C2_5 C5_5 1_555 1_555
C6_6 C7_5 1_555 1_555
Cu2 N1_7 1_555 1_555
N1_7 N5 1_555 1_555
N2_7 Cu2 1_555 1_555
N5 C6_7 1_555 1_555
C1_7 N1_7 1_555 1_555
N6_6 C2_6 1_555 1_555
C2_6 H1_6 1_555 1_555
C3_7 N6_6 1_555 1_555
H2_7 C3_7 1_555 1_555
C4_7 N2_7 1_555 1_555
H3_6 C4_7 1_555 1_555
C5_6 N2_7 1_555 1_555
C6_7 H4_7 1_555 1_555
C7_6 C1_7 1_555 1_555
H5_6 C7_6 1_555 1_555
C1_7 C5_6 1_555 1_555
C2_6 C5_6 1_555 1_555
C3_7 C4_7 1_555 1_555
C6_7 C7_6 1_555 1_555
H3_7 C4_8 1_555 1_555
N1_8 N5_2 1_555 1_555
N5_2 C6_8 1_555 1_555
C1_8 N1_8 1_555 1_555
N6_5 C2_7 1_555 1_555
C2_7 H1_7 1_555 1_555
C3_8 N6_5 1_555 1_555
C5_7 N2_8 1_555 1_555
C6_8 H4_8 1_555 1_555
C7_7 C1_8 1_555 1_555
H5_7 C7_7 1_555 1_555
C1_8 C5_7 1_555 1_555
C2_7 C5_7 1_555 1_555
C6_8 C7_7 1_555 1_555
C3_9 N6_4 1_555 1_555
H2_9 C3_9 1_555 1_555
C3_9 C4_9 1_555 1_555
Cu3_4 N1_9 1_555 1_555
N1_9 N5_5 1_555 1_555
N2_9 Cu3_4 1_555 1_555
N5_5 C6_9 1_555 1_555
C1_9 N1_9 1_555 1_555
C6_9 H4_9 1_555 1_555
Cu3_3 N1_10 1_555 1_555
N1_10 N5_6 1_555 1_555
N2_10 Cu3_3 1_555 1_555
N5_6 C6_10 1_555 1_555
C1_10 N1_10 1_555 1_555
C2_8 H1_8 1_555 1_555
C5_8 N2_10 1_555 1_555
C6_10 H4_10 1_555 1_555
C7_8 C1_10 1_555 1_555
H5_8 C7_8 1_555 1_555
C1_10 C5_8 1_555 1_555
C2_8 C5_8 1_555 1_555
C6_10 C7_8 1_555 1_555
C3_10 N6_3 1_555 1_555
H2_10 C3_10 1_555 1_555
H3_8 C4_10 1_555 1_555
C3_10 C4_10 1_555 1_555
C3_11 N6_2 1_555 1_555
H2_11 C3_11 1_555 1_555
H3_9 C4_11 1_555 1_555
C3_11 C4_11 1_555 1_555
Cu3_2 N1_11 1_555 1_555
N1_11 N5_3 1_555 1_555
N2_11 Cu3_2 1_555 1_555
N5_3 C6_11 1_555 1_555
C1_11 N1_11 1_555 1_555
N6 C2_9 1_555 1_555
C2_9 H1_9 1_555 1_555
C3_12 N6 1_555 1_555
H2_12 C3_12 1_555 1_555
C4_12 N2_11 1_555 1_555
H3_10 C4_12 1_555 1_555
C5_9 N2_11 1_555 1_555
C6_11 H4_11 1_555 1_555
C7_9 C1_11 1_555 1_555
H5_9 C7_9 1_555 1_555
C1_11 C5_9 1_555 1_555
C2_9 C5_9 1_555 1_555
C3_12 C4_12 1_555 1_555
C6_11 C7_9 1_555 1_555
Cu3 N1_12 1_555 1_555
N1_12 N5_4 1_555 1_555
N2_12 Cu3 1_555 1_555
N5_4 C6_12 1_555 1_555
C1_12 N1_12 1_555 1_555
C2_10 H1_10 1_555 1_555
C5_10 N2_12 1_555 1_555
C6_12 H4_12 1_555 1_555
C7_10 C1_12 1_555 1_555
H5_10 C7_10 1_555 1_555
C1_12 C5_10 1_555 1_555
C2_10 C5_10 1_555 1_555
C6_12 C7_10 1_555 1_555
H3_11 C4_13 1_555 1_555
N5_7 Cu1_7 1_555 1_555
N6_7 Cu1_7 1_555 1_555
C3_13 N4_7 1_555 1_555
H2_14 C3_13 1_555 1_555
Cu3_5 N4_7 1_555 1_555
C3_13 C4_14 1_555 1_555
Cu1_8 N1_13 1_555 1_555
N1_13 N3_7 1_555 1_555
N2_13 Cu1_8 1_555 1_555
N3_7 C6_13 1_555 1_555
C1_13 N1_13 1_555 1_555
C2_11 H1_11 1_555 1_555
C5_11 N2_13 1_555 1_555
C6_13 H4_13 1_555 1_555
C7_11 C1_13 1_555 1_555
H5_11 C7_11 1_555 1_555
Cu3_5 N3_7 1_555 1_555
N5_8 Cu1_8 1_555 1_555
N6_8 Cu1_8 1_555 1_555
C1_13 C5_11 1_555 1_555
C2_11 C5_11 1_555 1_555
C6_13 C7_11 1_555 1_555
N1_14 N5_7 1_555 1_555
N5_7 C6_14 1_555 1_555
C1_14 N1_14 1_555 1_555
N6_8 C2_12 1_555 1_555
C2_12 H1_12 1_555 1_555
C3_14 N6_8 1_555 1_555
C5_12 N2_14 1_555 1_555
C6_14 H4_14 1_555 1_555
C7_12 C1_14 1_555 1_555
H5_12 C7_12 1_555 1_555
C1_14 C5_12 1_555 1_555
C2_12 C5_12 1_555 1_555
C6_14 C7_12 1_555 1_555
Cu3_5 N1_15 1_555 1_555
N1_15 N5_8 1_555 1_555
N2_15 Cu3_5 1_555 1_555
N5_8 C6_15 1_555 1_555
C1_15 N1_15 1_555 1_555
C6_15 H4_15 1_555 1_555
C3_15 N6_7 1_555 1_555
H2_15 C3_15 1_555 1_555
H3_12 C4_15 1_555 1_555
C3_15 C4_15 1_555 1_555
N1_16 N3_8 1_555 1_555
N3_8 C6_16 1_555 1_555
C1_16 N1_16 1_555 1_555
N4_8 C2_13 1_555 1_555
C2_13 H1_13 1_555 1_555
C3_16 N4_8 1_555 1_555
C5_13 N2_16 1_555 1_555
C6_16 H4_16 1_555 1_555
C7_13 C1_16 1_555 1_555
H5_13 C7_13 1_555 1_555
Cu2_3 N3_8 1_555 1_555
Cu3_6 N4_8 1_555 1_555
C1_16 C5_13 1_555 1_555
C2_13 C5_13 1_555 1_555
C6_16 C7_13 1_555 1_555
Cu1_9 N1_17 1_555 1_555
N1_17 N3_9 1_555 1_555
N2_17 Cu1_9 1_555 1_555
N3_9 C6_17 1_555 1_555
C1_17 N1_17 1_555 1_555
C6_17 H4_17 1_555 1_555
Cu3_6 N3_9 1_555 1_555
N5_9 Cu1_9 1_555 1_555
N6_9 Cu1_9 1_555 1_555
C3_17 N4_9 1_555 1_555
H2_16 C3_17 1_555 1_555
H3_13 C4_16 1_555 1_555
Cu2_3 N4_9 1_555 1_555
C3_17 C4_16 1_555 1_555
H3_14 C4_17 1_555 1_555
C3_18 N6_9 1_555 1_555
H2_18 C3_18 1_555 1_555
C3_18 C4_18 1_555 1_555
Cu3_6 N1_18 1_555 1_555
N1_18 N5_9 1_555 1_555
N2_18 Cu3_6 1_555 1_555
N5_9 C6_18 1_555 1_555
C1_18 N1_18 1_555 1_555
C2_14 H1_14 1_555 1_555
C5_14 N2_18 1_555 1_555
C6_18 H4_18 1_555 1_555
C7_14 C1_18 1_555 1_555
H5_14 C7_14 1_555 1_555
C1_18 C5_14 1_555 1_555
C2_14 C5_14 1_555 1_555
C6_18 C7_14 1_555 1_555
C2_15 H1_15 1_555 1_555
H5_15 C7_15 1_555 1_555
C2_15 C5_15 1_555 1_555
C2_16 H1_16 1_555 1_555
H5_16 C7_16 1_555 1_555
C2_16 C5_16 1_555 1_555
C2_17 H1_17 1_555 1_555
H5_17 C7_17 1_555 1_555
C2_17 C5_17 1_555 1_555
C2_18 H1_18 1_555 1_555
H5_18 C7_18 1_555 1_555
C2_18 C5_18 1_555 1_555

#END
