
###############################################################################
#
# This file contains modified crystal structure data generated from the
# MOF subset of the Cambridge Structural Database (CSD) v543 
# hosted by the Cambridge Crystallographic Data Centre (CCDC).
#
# This work is licensed under the Creative Commons
# Attribution-NonCommercial-ShareAlike 4.0 International License.
# To view a copy of this license, visit
# http://creativecommons.org/licenses/by-nc-sa/4.0/
# or send a letter to
# Creative Commons, PO Box 1866, Mountain View, CA 94042, USA.
#
# CIF created using the CSD Python API on 29 September 2022
# The structure has been converted into the P1 space group
# The structure has a 3D framework
# The original CSD entry FOVBAW is in the monoclinic crystal system
# The framework has been calculated to contain at least 10.0% void space
# The void calculation uses a probe of radius 1.32A, grid spacing 0.4
#
###############################################################################

data_FOVBAW
_chemical_formula_moiety         '(C166 H110 N32 O32 Zn8)n'
_symmetry_cell_setting           triclinic
_symmetry_space_group_name_H-M   'P 1'
_symmetry_Int_Tables_number      1
_space_group_name_Hall           'P 1'
loop_
_symmetry_equiv_pos_site_id
_symmetry_equiv_pos_as_xyz
1 x,y,z
_cell_length_a                   19.2959(11)
_cell_length_b                   23.5415(14)
_cell_length_c                   12.2005(7)
_cell_angle_alpha                90
_cell_angle_beta                 107.136(2)
_cell_angle_gamma                90
_cell_volume                     5296.11
loop_
_atom_site_label
_atom_site_type_symbol
_atom_site_fract_x
_atom_site_fract_y
_atom_site_fract_z
O3 O 0.66591(14) 0.17079(10) 0.2877(2)
O4 O 0.75609(16) 0.12481(13) 0.2532(2)
C11 C 0.7194(2) 0.16631(17) 0.0282(3)
H7 H 0.758724 0.140391 0.052077
C12 C 0.68166(18) 0.18150(15) 0.1034(3)
C13 C 0.7029(2) 0.15729(16) 0.2223(3)
C14 C 0.62571(19) 0.21895(17) 0.0676(3)
H8 H 0.599358 0.230344 0.118499
O7 O 0.66591(14) 0.82921(10) 0.2877(2)
O8 O 0.75609(16) 0.87519(13) 0.2532(2)
C35 C 0.7194(2) 0.83369(17) 0.0282(3)
H23 H 0.758724 0.859609 0.052077
C36 C 0.68166(18) 0.81850(15) 0.1034(3)
C37 C 0.7029(2) 0.84271(16) 0.2223(3)
C38 C 0.62571(19) 0.78105(17) 0.0676(3)
H24 H 0.599358 0.769656 0.118499
Zn4 Zn 0.71145(2) 0.87249(2) 0.43186(3)
Zn6 Zn 0.71145(2) 0.12751(2) 0.43186(3)
Zn1 Zn 0.21145(2) 0.37249(2) 0.43186(3)
O1 O 0.30027(14) 0.33254(13) 0.5133(2)
O2 O 0.34989(18) 0.41526(17) 0.5371(4)
N1 N 0.63139(13) 0.20530(11) 0.6785(2)
N2 N 0.65571(15) 0.15782(12) 0.5430(2)
N3 N 0.17835(14) 0.45244(11) 0.4140(2)
N4 N 0.59228(17) 0.15693(13) 0.6699(3)
C1 C 0.3539(2) 0.3639(2) 0.5507(4)
C2 C 0.4239(2) 0.33536(17) 0.6143(3)
C3 C 0.42411(18) 0.28099(17) 0.6496(3)
H1 H 0.379532 0.261538 0.639501
C4 C 0.48938(19) 0.25331(16) 0.7006(3)
H2 H 0.489270 0.215126 0.725801
C5 C 0.55416(16) 0.28126(14) 0.7147(3)
C6 C 0.62640(17) 0.25032(14) 0.7610(3)
H3 H 0.665387 0.278576 0.762582
C7 C 0.66884(17) 0.20603(15) 0.6035(3)
H4 H 0.699844 0.235814 0.594189
C8 C 0.6089(2) 0.12956(15) 0.5859(3)
H5 H 0.589619 0.093370 0.558635
C9 C 0.64324(16) 0.22562(15) 0.8811(2)
C10 C 0.70075(19) 0.18838(18) 0.9180(3)
H6 H 0.727726 0.177809 0.867427
C15 C 0.60695(19) 0.24068(17) 0.9558(3)
H9 H 0.567716 0.266672 0.931942
C16 C 0.5541(2) 0.33706(16) 0.6818(3)
H10 H 0.598457 0.356936 0.692815
C17 C 0.4889(2) 0.36380(17) 0.6328(4)
H11 H 0.488589 0.402590 0.611188
C18 C 0.2164(2) 0.500000 0.4410(4)
H12 H 0.267214 0.499999 0.477105
C19 C 0.10720(16) 0.46996(13) 0.3634(3)
C20 C 0.04301(18) 0.43989(15) 0.3174(3)
H13 H 0.042662 0.399540 0.316758
N5 N 0.17835(14) 0.54756(11) 0.4140(2)
C22 C 0.10720(16) 0.53004(13) 0.3634(3)
C23 C 0.04301(18) 0.56011(15) 0.3174(3)
H15 H 0.042662 0.600460 0.316758
Zn2 Zn 0.21145(2) 0.62751(2) 0.43186(3)
O5 O 0.30027(14) 0.66746(13) 0.5133(2)
O6 O 0.34989(18) 0.58474(17) 0.5371(4)
N6 N 0.63139(13) 0.79470(11) 0.6785(2)
N7 N 0.65571(15) 0.84218(12) 0.5430(2)
N8 N 0.59228(17) 0.84307(13) 0.6699(3)
C25 C 0.3539(2) 0.6361(2) 0.5507(4)
C26 C 0.4239(2) 0.66464(17) 0.6143(3)
C27 C 0.42411(18) 0.71901(17) 0.6496(3)
H17 H 0.379532 0.738462 0.639501
C28 C 0.48938(19) 0.74669(16) 0.7006(3)
H18 H 0.489270 0.784874 0.725801
C29 C 0.55416(16) 0.71874(14) 0.7147(3)
C30 C 0.62640(17) 0.74968(14) 0.7610(3)
H19 H 0.665387 0.721424 0.762582
C31 C 0.66884(17) 0.79397(15) 0.6035(3)
H20 H 0.699844 0.764186 0.594189
C32 C 0.6089(2) 0.87044(15) 0.5859(3)
H21 H 0.589619 0.906630 0.558635
C33 C 0.64324(16) 0.77438(15) 0.8811(2)
C34 C 0.70075(19) 0.81162(18) 0.9180(3)
H22 H 0.727726 0.822191 0.867427
C39 C 0.60695(19) 0.75932(17) 0.9558(3)
H25 H 0.567716 0.733328 0.931942
C40 C 0.5541(2) 0.66294(16) 0.6818(3)
H26 H 0.598457 0.643064 0.692815
C41 C 0.4889(2) 0.63620(17) 0.6328(4)
H27 H 0.488589 0.597410 0.611188
O9 O 0.16591(14) 0.67079(10) 0.2877(2)
O10 O 0.16591(14) 0.32921(10) 0.2877(2)
O11 O 0.25609(16) 0.62481(13) 0.2532(2)
O12 O 0.25609(16) 0.37519(13) 0.2532(2)
N9 N 0.15571(15) 0.65782(12) 0.5430(2)
N10 N 0.15571(15) 0.34218(12) 0.5430(2)
C35_2 C 0.2194(2) 0.33369(17) 0.0282(3)
H23_2 H 0.258724 0.359609 0.052077
C36_2 C 0.18166(18) 0.31850(15) 0.1034(3)
C37_2 C 0.2029(2) 0.34271(16) 0.2223(3)
C38_2 C 0.12571(19) 0.28105(17) 0.0676(3)
H24_2 H 0.099358 0.269656 0.118499
N6_2 N 0.13139(13) 0.29470(11) 0.6785(2)
N8_2 N 0.09228(17) 0.34307(13) 0.6699(3)
C29_2 C 0.05416(16) 0.21874(14) 0.7147(3)
C30_2 C 0.12640(17) 0.24968(14) 0.7610(3)
H19_2 H 0.165387 0.221424 0.762582
C31_2 C 0.16884(17) 0.29397(15) 0.6035(3)
H20_2 H 0.199844 0.264186 0.594189
C32_2 C 0.1089(2) 0.37044(15) 0.5859(3)
H21_2 H 0.089619 0.406630 0.558635
C33_2 C 0.14324(16) 0.27438(15) 0.8811(2)
C34_2 C 0.20075(19) 0.31162(18) 0.9180(3)
H22_2 H 0.227726 0.322191 0.867427
C39_2 C 0.10695(19) 0.25932(17) 0.9558(3)
H25_2 H 0.067716 0.233328 0.931942
C40_2 C 0.0541(2) 0.16294(16) 0.6818(3)
H26_2 H 0.098457 0.143064 0.692815
C11_2 C 0.2194(2) 0.66631(17) 0.0282(3)
H7_2 H 0.258724 0.640391 0.052077
C12_2 C 0.18166(18) 0.68150(15) 0.1034(3)
C13_2 C 0.2029(2) 0.65729(16) 0.2223(3)
C14_2 C 0.12571(19) 0.71895(17) 0.0676(3)
H8_2 H 0.099358 0.730344 0.118499
N1_2 N 0.13139(13) 0.70530(11) 0.6785(2)
N4_2 N 0.09228(17) 0.65693(13) 0.6699(3)
C5_2 C 0.05416(16) 0.78126(14) 0.7147(3)
C6_2 C 0.12640(17) 0.75032(14) 0.7610(3)
H3_2 H 0.165387 0.778576 0.762582
C7_2 C 0.16884(17) 0.70603(15) 0.6035(3)
H4_2 H 0.199844 0.735814 0.594189
C8_2 C 0.1089(2) 0.62956(15) 0.5859(3)
H5_2 H 0.089619 0.593370 0.558635
C9_2 C 0.14324(16) 0.72562(15) 0.8811(2)
C10_2 C 0.20075(19) 0.68838(18) 0.9180(3)
H6_2 H 0.227726 0.677809 0.867427
C15_2 C 0.10695(19) 0.74068(17) 0.9558(3)
H9_2 H 0.067716 0.766672 0.931942
C16_2 C 0.0541(2) 0.83706(16) 0.6818(3)
H10_2 H 0.098457 0.856936 0.692815
C18_2 C 0.7164(2) 0.000000 0.4410(4)
H12_2 H 0.767214 -0.000001 0.477105
N5_2 N 0.67835(14) 0.04756(11) 0.4140(2)
C22_2 C 0.60720(16) 0.03004(13) 0.3634(3)
C23_2 C 0.54301(18) 0.06011(15) 0.3174(3)
H15_2 H 0.542662 0.100460 0.316758
C24 C 0.48037(18) 0.02977(15) 0.2732(3)
H16 H 0.435994 0.049517 0.241903
O5_2 O 0.80027(14) 0.16746(13) 0.5133(2)
O6_2 O 0.84989(18) 0.08474(17) 0.5371(4)
C25_2 C 0.8539(2) 0.1361(2) 0.5507(4)
C26_2 C 0.9239(2) 0.16464(17) 0.6143(3)
C27_2 C 0.92411(18) 0.21901(17) 0.6496(3)
H17_2 H 0.879532 0.238462 0.639501
C28_2 C 0.98938(19) 0.24669(16) 0.7006(3)
H18_2 H 0.989270 0.284874 0.725801
C41_2 C 0.9889(2) 0.13620(17) 0.6328(4)
H27_2 H 0.988589 0.097410 0.611188
O1_2 O 0.80027(14) 0.83254(13) 0.5133(2)
O2_2 O 0.84989(18) 0.91526(17) 0.5371(4)
N3_2 N 0.67835(14) 0.95244(11) 0.4140(2)
C1_2 C 0.8539(2) 0.8639(2) 0.5507(4)
C2_2 C 0.9239(2) 0.83536(17) 0.6143(3)
C3_2 C 0.92411(18) 0.78099(17) 0.6496(3)
H1_2 H 0.879532 0.761538 0.639501
C4_2 C 0.98938(19) 0.75331(16) 0.7006(3)
H2_2 H 0.989270 0.715126 0.725801
C17_2 C 0.9889(2) 0.86380(17) 0.6328(4)
H11_2 H 0.988589 0.902590 0.611188
C18_3 C 0.7164(2) 1.000000 0.4410(4)
H12_3 H 0.767214 0.999999 0.477105
C19_2 C 0.60720(16) 0.96996(13) 0.3634(3)
C20_2 C 0.54301(18) 0.93989(15) 0.3174(3)
H13_2 H 0.542662 0.899540 0.316758
C21 C 0.48037(18) 0.97023(15) 0.2732(3)
H14 H 0.435994 0.950483 0.241903
C21_2 C 0.98037(18) 0.47023(15) 0.2732(3)
H14_2 H 0.935994 0.450483 0.241903
C24_2 C 0.98037(18) 0.52977(15) 0.2732(3)
H16_2 H 0.935994 0.549517 0.241903
C21_3 C 0.01963(18) 0.47023(15) 0.7268(3)
H14_3 H 0.064006 0.450483 0.758097
C24_3 C 0.01963(18) 0.52977(15) 0.7268(3)
H16_3 H 0.064006 0.549517 0.758097
Zn1_2 Zn 0.78855(2) 0.37249(2) 0.56814(3)
O1_3 O 0.69973(14) 0.33254(13) 0.4867(2)
O2_3 O 0.65011(18) 0.41526(17) 0.4629(4)
N1_3 N 0.36861(13) 0.20530(11) 0.3215(2)
N2_2 N 0.34429(15) 0.15782(12) 0.4570(2)
N3_3 N 0.82165(14) 0.45244(11) 0.5860(2)
N4_3 N 0.40772(17) 0.15693(13) 0.3301(3)
C1_3 C 0.6461(2) 0.3639(2) 0.4493(4)
C2_3 C 0.5761(2) 0.33536(17) 0.3857(3)
C3_3 C 0.57589(18) 0.28099(17) 0.3504(3)
H1_3 H 0.620468 0.261538 0.360499
C4_3 C 0.51062(19) 0.25331(16) 0.2994(3)
H2_3 H 0.510730 0.215126 0.274199
C5_3 C 0.44584(16) 0.28126(14) 0.2853(3)
C6_3 C 0.37360(17) 0.25032(14) 0.2390(3)
H3_3 H 0.334613 0.278576 0.237418
C7_3 C 0.33116(17) 0.20603(15) 0.3965(3)
H4_3 H 0.300156 0.235814 0.405811
C8_3 C 0.3911(2) 0.12956(15) 0.4141(3)
H5_3 H 0.410381 0.093370 0.441365
C9_3 C 0.35676(16) 0.22562(15) 0.1189(2)
C10_3 C 0.29925(19) 0.18838(18) 0.0820(3)
H6_3 H 0.272274 0.177809 0.132573
C15_3 C 0.39305(19) 0.24068(17) 0.0442(3)
H9_3 H 0.432284 0.266672 0.068058
C16_3 C 0.4459(2) 0.33706(16) 0.3182(3)
H10_3 H 0.401543 0.356936 0.307185
C17_3 C 0.5111(2) 0.36380(17) 0.3672(4)
H11_3 H 0.511411 0.402590 0.388812
C18_4 C 0.7836(2) 0.500000 0.5590(4)
H12_4 H 0.732786 0.499999 0.522895
C19_3 C 0.89280(16) 0.46996(13) 0.6366(3)
C20_3 C 0.95699(18) 0.43989(15) 0.6826(3)
H13_3 H 0.957338 0.399540 0.683242
N5_3 N 0.82165(14) 0.54756(11) 0.5860(2)
C22_3 C 0.89280(16) 0.53004(13) 0.6366(3)
C23_3 C 0.95699(18) 0.56011(15) 0.6826(3)
H15_3 H 0.957338 0.600460 0.683242
Zn2_2 Zn 0.78855(2) 0.62751(2) 0.56814(3)
O5_3 O 0.69973(14) 0.66746(13) 0.4867(2)
O6_3 O 0.65011(18) 0.58474(17) 0.4629(4)
N6_3 N 0.36861(13) 0.79470(11) 0.3215(2)
N7_2 N 0.34429(15) 0.84218(12) 0.4570(2)
N8_3 N 0.40772(17) 0.84307(13) 0.3301(3)
C25_3 C 0.6461(2) 0.6361(2) 0.4493(4)
C26_3 C 0.5761(2) 0.66464(17) 0.3857(3)
C27_3 C 0.57589(18) 0.71901(17) 0.3504(3)
H17_3 H 0.620468 0.738462 0.360499
C28_3 C 0.51062(19) 0.74669(16) 0.2994(3)
H18_3 H 0.510730 0.784874 0.274199
C29_3 C 0.44584(16) 0.71874(14) 0.2853(3)
C30_3 C 0.37360(17) 0.74968(14) 0.2390(3)
H19_3 H 0.334613 0.721424 0.237418
C31_3 C 0.33116(17) 0.79397(15) 0.3965(3)
H20_3 H 0.300156 0.764186 0.405811
C32_3 C 0.3911(2) 0.87044(15) 0.4141(3)
H21_3 H 0.410381 0.906630 0.441365
C33_3 C 0.35676(16) 0.77438(15) 0.1189(2)
C34_3 C 0.29925(19) 0.81162(18) 0.0820(3)
H22_3 H 0.272274 0.822191 0.132573
C39_3 C 0.39305(19) 0.75932(17) 0.0442(3)
H25_3 H 0.432284 0.733328 0.068058
C40_3 C 0.4459(2) 0.66294(16) 0.3182(3)
H26_3 H 0.401543 0.643064 0.307185
C41_3 C 0.5111(2) 0.63620(17) 0.3672(4)
H27_3 H 0.511411 0.597410 0.388812
Zn3 Zn 0.28855(2) 0.87249(2) 0.56814(3)
Zn5 Zn 0.28855(2) 0.12751(2) 0.56814(3)
O9_2 O 0.83409(14) 0.67079(10) 0.7123(2)
O10_2 O 0.83409(14) 0.32921(10) 0.7123(2)
O11_2 O 0.74391(16) 0.62481(13) 0.7468(2)
O12_2 O 0.74391(16) 0.37519(13) 0.7468(2)
N9_2 N 0.84429(15) 0.65782(12) 0.4570(2)
N10_2 N 0.84429(15) 0.34218(12) 0.4570(2)
O3_2 O 0.33409(14) 0.17079(10) 0.7123(2)
O4_2 O 0.24391(16) 0.12481(13) 0.7468(2)
C11_3 C 0.2806(2) 0.16631(17) 0.9718(3)
H7_3 H 0.241276 0.140391 0.947923
C12_3 C 0.31834(18) 0.18150(15) 0.8966(3)
C13_3 C 0.2971(2) 0.15729(16) 0.7777(3)
C14_3 C 0.37429(19) 0.21895(17) 0.9324(3)
H8_3 H 0.400642 0.230344 0.881501
O7_2 O 0.33409(14) 0.82921(10) 0.7123(2)
O8_2 O 0.24391(16) 0.87519(13) 0.7468(2)
C35_3 C 0.2806(2) 0.83369(17) 0.9718(3)
H23_3 H 0.241276 0.859609 0.947923
C36_3 C 0.31834(18) 0.81850(15) 0.8966(3)
C37_3 C 0.2971(2) 0.84271(16) 0.7777(3)
C38_3 C 0.37429(19) 0.78105(17) 0.9324(3)
H24_3 H 0.400642 0.769656 0.881501
C18_5 C 0.2836(2) -0.000000 0.5590(4)
H12_5 H 0.232786 -0.000001 0.522895
N5_4 N 0.32165(14) 0.04756(11) 0.5860(2)
C22_4 C 0.39280(16) 0.03004(13) 0.6366(3)
C23_4 C 0.45699(18) 0.06011(15) 0.6826(3)
H15_4 H 0.457338 0.100460 0.683242
C24_4 C 0.51963(18) 0.02977(15) 0.7268(3)
H16_4 H 0.564006 0.049517 0.758097
O5_4 O 0.19973(14) 0.16746(13) 0.4867(2)
O6_4 O 0.15011(18) 0.08474(17) 0.4629(4)
C25_4 C 0.1461(2) 0.1361(2) 0.4493(4)
C26_4 C 0.0761(2) 0.16464(17) 0.3857(3)
C27_4 C 0.07589(18) 0.21901(17) 0.3504(3)
H17_4 H 0.120468 0.238462 0.360499
C28_4 C 0.01062(19) 0.24669(16) 0.2994(3)
H18_4 H 0.010730 0.284874 0.274199
C41_4 C 0.0111(2) 0.13620(17) 0.3672(4)
H27_4 H 0.011411 0.097410 0.388812
O1_4 O 0.19973(14) 0.83254(13) 0.4867(2)
O2_4 O 0.15011(18) 0.91526(17) 0.4629(4)
N3_4 N 0.32165(14) 0.95244(11) 0.5860(2)
C1_4 C 0.1461(2) 0.8639(2) 0.4493(4)
C2_4 C 0.0761(2) 0.83536(17) 0.3857(3)
C3_4 C 0.07589(18) 0.78099(17) 0.3504(3)
H1_4 H 0.120468 0.761538 0.360499
C4_4 C 0.01062(19) 0.75331(16) 0.2994(3)
H2_4 H 0.010730 0.715126 0.274199
C17_4 C 0.0111(2) 0.86380(17) 0.3672(4)
H11_4 H 0.011411 0.902590 0.388812
C18_6 C 0.2836(2) 1.000000 0.5590(4)
H12_6 H 0.232786 0.999999 0.522895
C19_4 C 0.39280(16) 0.96996(13) 0.6366(3)
C20_4 C 0.45699(18) 0.93989(15) 0.6826(3)
H13_4 H 0.457338 0.899540 0.683242
C21_4 C 0.51963(18) 0.97023(15) 0.7268(3)
H14_4 H 0.564006 0.950483 0.758097
N6_4 N 0.86861(13) 0.29470(11) 0.3215(2)
N8_4 N 0.90772(17) 0.34307(13) 0.3301(3)
C29_4 C 0.94584(16) 0.21874(14) 0.2853(3)
C30_4 C 0.87360(17) 0.24968(14) 0.2390(3)
H19_4 H 0.834613 0.221424 0.237418
C31_4 C 0.83116(17) 0.29397(15) 0.3965(3)
H20_4 H 0.800156 0.264186 0.405811
C32_4 C 0.8911(2) 0.37044(15) 0.4141(3)
H21_4 H 0.910381 0.406630 0.441365
C33_4 C 0.85676(16) 0.27438(15) 0.1189(2)
C34_4 C 0.79925(19) 0.31162(18) 0.0820(3)
H22_4 H 0.772274 0.322191 0.132573
C39_4 C 0.89305(19) 0.25932(17) 0.0442(3)
H25_4 H 0.932284 0.233328 0.068058
C40_4 C 0.9459(2) 0.16294(16) 0.3182(3)
H26_4 H 0.901543 0.143064 0.307185
C35_4 C 0.7806(2) 0.33369(17) 0.9718(3)
H23_4 H 0.741276 0.359609 0.947923
C36_4 C 0.81834(18) 0.31850(15) 0.8966(3)
C37_4 C 0.7971(2) 0.34271(16) 0.7777(3)
C38_4 C 0.87429(19) 0.28105(17) 0.9324(3)
H24_4 H 0.900642 0.269656 0.881501
N1_4 N 0.86861(13) 0.70530(11) 0.3215(2)
N4_4 N 0.90772(17) 0.65693(13) 0.3301(3)
C5_4 C 0.94584(16) 0.78126(14) 0.2853(3)
C6_4 C 0.87360(17) 0.75032(14) 0.2390(3)
H3_4 H 0.834613 0.778576 0.237418
C7_4 C 0.83116(17) 0.70603(15) 0.3965(3)
H4_4 H 0.800156 0.735814 0.405811
C8_4 C 0.8911(2) 0.62956(15) 0.4141(3)
H5_4 H 0.910381 0.593370 0.441365
C9_4 C 0.85676(16) 0.72562(15) 0.1189(2)
C10_4 C 0.79925(19) 0.68838(18) 0.0820(3)
H6_4 H 0.772274 0.677809 0.132573
C15_4 C 0.89305(19) 0.74068(17) 0.0442(3)
H9_4 H 0.932284 0.766672 0.068058
C16_4 C 0.9459(2) 0.83706(16) 0.3182(3)
H10_4 H 0.901543 0.856936 0.307185
C11_4 C 0.7806(2) 0.66631(17) 0.9718(3)
H7_4 H 0.741276 0.640391 0.947923
C12_4 C 0.81834(18) 0.68150(15) 0.8966(3)
C13_4 C 0.7971(2) 0.65729(16) 0.7777(3)
C14_4 C 0.87429(19) 0.71895(17) 0.9324(3)
H8_4 H 0.900642 0.730344 0.881501
loop_
_geom_bond_atom_site_label_1
_geom_bond_atom_site_label_2
_geom_bond_site_symmetry_1
_geom_bond_site_symmetry_2
O3 C13 1_555 1_555
O4 C13 1_555 1_555
H7 C11 1_555 1_555
C12 C11 1_555 1_555
C13 C12 1_555 1_555
C14 C12 1_555 1_555
H8 C14 1_555 1_555
O7 C37 1_555 1_555
O8 C37 1_555 1_555
H23 C35 1_555 1_555
C36 C35 1_555 1_555
C37 C36 1_555 1_555
C38 C36 1_555 1_555
H24 C38 1_555 1_555
Zn4 O7 1_555 1_555
Zn6 O3 1_555 1_555
O4 Zn6 1_555 1_555
O8 Zn4 1_555 1_555
Zn1 O1 1_555 1_555
O1 C1 1_555 1_555
O2 C1 1_555 1_555
N1 N4 1_555 1_555
N2 C7 1_555 1_555
N3 Zn1 1_555 1_555
N4 C8 1_555 1_555
C1 C2 1_555 1_555
C2 C3 1_555 1_555
C3 H1 1_555 1_555
C4 C3 1_555 1_555
H2 C4 1_555 1_555
C5 C4 1_555 1_555
C6 N1 1_555 1_555
H3 C6 1_555 1_555
C7 N1 1_555 1_555
H4 C7 1_555 1_555
C8 N2 1_555 1_555
H5 C8 1_555 1_555
C9 C6 1_555 1_555
C10 C9 1_555 1_555
H6 C10 1_555 1_555
C15 C9 1_555 1_555
H9 C15 1_555 1_555
C16 C5 1_555 1_555
H10 C16 1_555 1_555
C17 C2 1_555 1_555
H11 C17 1_555 1_555
C18 N3 1_555 1_555
H12 C18 1_555 1_555
C19 N3 1_555 1_555
C20 C19 1_555 1_555
H13 C20 1_555 1_555
N5 C18 1_555 1_555
C22 C19 1_555 1_555
C23 C22 1_555 1_555
H15 C23 1_555 1_555
Zn2 N5 1_555 1_555
O5 Zn2 1_555 1_555
O6 C25 1_555 1_555
N6 N8 1_555 1_555
N7 C31 1_555 1_555
N8 C32 1_555 1_555
C25 O5 1_555 1_555
C26 C25 1_555 1_555
C27 C26 1_555 1_555
H17 C27 1_555 1_555
C28 C27 1_555 1_555
H18 C28 1_555 1_555
C29 C28 1_555 1_555
C30 N6 1_555 1_555
H19 C30 1_555 1_555
C31 N6 1_555 1_555
H20 C31 1_555 1_555
C32 N7 1_555 1_555
H21 C32 1_555 1_555
C33 C30 1_555 1_555
C34 C33 1_555 1_555
H22 C34 1_555 1_555
C39 C33 1_555 1_555
H25 C39 1_555 1_555
C40 C29 1_555 1_555
H26 C40 1_555 1_555
C41 C26 1_555 1_555
H27 C41 1_555 1_555
Zn4 N7 1_555 1_555
Zn6 N2 1_555 1_555
O9 Zn2 1_555 1_555
O10 Zn1 1_555 1_555
O11 Zn2 1_555 1_555
O12 Zn1 1_555 1_555
N9 Zn2 1_555 1_555
N10 Zn1 1_555 1_555
C5 C6 1_555 1_555
C16 C17 1_555 1_555
N5 C22 1_555 1_555
C29 C30 1_555 1_555
C40 C41 1_555 1_555
O10 C37_2 1_555 1_555
O12 C37_2 1_555 1_555
H23_2 C35_2 1_555 1_555
C36_2 C35_2 1_555 1_555
C37_2 C36_2 1_555 1_555
C38_2 C36_2 1_555 1_555
H24_2 C38_2 1_555 1_555
N6_2 N8_2 1_555 1_555
N10 C31_2 1_555 1_555
N8_2 C32_2 1_555 1_555
C30_2 N6_2 1_555 1_555
H19_2 C30_2 1_555 1_555
C31_2 N6_2 1_555 1_555
H20_2 C31_2 1_555 1_555
C32_2 N10 1_555 1_555
H21_2 C32_2 1_555 1_555
C33_2 C30_2 1_555 1_555
C34_2 C33_2 1_555 1_555
H22_2 C34_2 1_555 1_555
C39_2 C33_2 1_555 1_555
H25_2 C39_2 1_555 1_555
C40_2 C29_2 1_555 1_555
H26_2 C40_2 1_555 1_555
C29_2 C30_2 1_555 1_555
O9 C13_2 1_555 1_555
O11 C13_2 1_555 1_555
H7_2 C11_2 1_555 1_555
C12_2 C11_2 1_555 1_555
C13_2 C12_2 1_555 1_555
C14_2 C12_2 1_555 1_555
H8_2 C14_2 1_555 1_555
N1_2 N4_2 1_555 1_555
N9 C7_2 1_555 1_555
N4_2 C8_2 1_555 1_555
C6_2 N1_2 1_555 1_555
H3_2 C6_2 1_555 1_555
C7_2 N1_2 1_555 1_555
H4_2 C7_2 1_555 1_555
C8_2 N9 1_555 1_555
H5_2 C8_2 1_555 1_555
C9_2 C6_2 1_555 1_555
C10_2 C9_2 1_555 1_555
H6_2 C10_2 1_555 1_555
C15_2 C9_2 1_555 1_555
H9_2 C15_2 1_555 1_555
C16_2 C5_2 1_555 1_555
H10_2 C16_2 1_555 1_555
C5_2 C6_2 1_555 1_555
H12_2 C18_2 1_555 1_555
N5_2 C18_2 1_555 1_555
C23_2 C22_2 1_555 1_555
H15_2 C23_2 1_555 1_555
H16 C24 1_555 1_555
Zn6 N5_2 1_555 1_555
O5_2 Zn6 1_555 1_555
O6_2 C25_2 1_555 1_555
C25_2 O5_2 1_555 1_555
C26_2 C25_2 1_555 1_555
C27_2 C26_2 1_555 1_555
H17_2 C27_2 1_555 1_555
C28_2 C27_2 1_555 1_555
H18_2 C28_2 1_555 1_555
C41_2 C26_2 1_555 1_555
H27_2 C41_2 1_555 1_555
N5_2 C22_2 1_555 1_555
C23_2 C24 1_555 1_555
Zn4 O1_2 1_555 1_555
O1_2 C1_2 1_555 1_555
O2_2 C1_2 1_555 1_555
N3_2 Zn4 1_555 1_555
C1_2 C2_2 1_555 1_555
C2_2 C3_2 1_555 1_555
C3_2 H1_2 1_555 1_555
C4_2 C3_2 1_555 1_555
H2_2 C4_2 1_555 1_555
C17_2 C2_2 1_555 1_555
H11_2 C17_2 1_555 1_555
C18_3 N3_2 1_555 1_555
H12_3 C18_3 1_555 1_555
C19_2 N3_2 1_555 1_555
C20_2 C19_2 1_555 1_555
H13_2 C20_2 1_555 1_555
C21 C20_2 1_555 1_555
H14 C21 1_555 1_555
H14_2 C21_2 1_555 1_555
C24_2 C21_2 1_555 1_555
H16_2 C24_2 1_555 1_555
H14_3 C21_3 1_555 1_555
C24_3 C21_3 1_555 1_555
H16_3 C24_3 1_555 1_555
Zn1_2 O1_3 1_555 1_555
O1_3 C1_3 1_555 1_555
O2_3 C1_3 1_555 1_555
N1_3 N4_3 1_555 1_555
N2_2 C7_3 1_555 1_555
N3_3 Zn1_2 1_555 1_555
N4_3 C8_3 1_555 1_555
C1_3 C2_3 1_555 1_555
C2_3 C3_3 1_555 1_555
C3_3 H1_3 1_555 1_555
C4_3 C3_3 1_555 1_555
H2_3 C4_3 1_555 1_555
C5_3 C4_3 1_555 1_555
C6_3 N1_3 1_555 1_555
H3_3 C6_3 1_555 1_555
C7_3 N1_3 1_555 1_555
H4_3 C7_3 1_555 1_555
C8_3 N2_2 1_555 1_555
H5_3 C8_3 1_555 1_555
C9_3 C6_3 1_555 1_555
C10_3 C9_3 1_555 1_555
H6_3 C10_3 1_555 1_555
C15_3 C9_3 1_555 1_555
H9_3 C15_3 1_555 1_555
C16_3 C5_3 1_555 1_555
H10_3 C16_3 1_555 1_555
C17_3 C2_3 1_555 1_555
H11_3 C17_3 1_555 1_555
C18_4 N3_3 1_555 1_555
H12_4 C18_4 1_555 1_555
C19_3 N3_3 1_555 1_555
C20_3 C19_3 1_555 1_555
H13_3 C20_3 1_555 1_555
N5_3 C18_4 1_555 1_555
C22_3 C19_3 1_555 1_555
C23_3 C22_3 1_555 1_555
H15_3 C23_3 1_555 1_555
Zn2_2 N5_3 1_555 1_555
O5_3 Zn2_2 1_555 1_555
O6_3 C25_3 1_555 1_555
N6_3 N8_3 1_555 1_555
N7_2 C31_3 1_555 1_555
N8_3 C32_3 1_555 1_555
C25_3 O5_3 1_555 1_555
C26_3 C25_3 1_555 1_555
C27_3 C26_3 1_555 1_555
H17_3 C27_3 1_555 1_555
C28_3 C27_3 1_555 1_555
H18_3 C28_3 1_555 1_555
C29_3 C28_3 1_555 1_555
C30_3 N6_3 1_555 1_555
H19_3 C30_3 1_555 1_555
C31_3 N6_3 1_555 1_555
H20_3 C31_3 1_555 1_555
C32_3 N7_2 1_555 1_555
H21_3 C32_3 1_555 1_555
C33_3 C30_3 1_555 1_555
C34_3 C33_3 1_555 1_555
H22_3 C34_3 1_555 1_555
C39_3 C33_3 1_555 1_555
H25_3 C39_3 1_555 1_555
C40_3 C29_3 1_555 1_555
H26_3 C40_3 1_555 1_555
C41_3 C26_3 1_555 1_555
H27_3 C41_3 1_555 1_555
Zn3 N7_2 1_555 1_555
Zn5 N2_2 1_555 1_555
O9_2 Zn2_2 1_555 1_555
O10_2 Zn1_2 1_555 1_555
O11_2 Zn2_2 1_555 1_555
O12_2 Zn1_2 1_555 1_555
N9_2 Zn2_2 1_555 1_555
N10_2 Zn1_2 1_555 1_555
C5_3 C6_3 1_555 1_555
C16_3 C17_3 1_555 1_555
N5_3 C22_3 1_555 1_555
C29_3 C30_3 1_555 1_555
C40_3 C41_3 1_555 1_555
O3_2 C13_3 1_555 1_555
O4_2 C13_3 1_555 1_555
H7_3 C11_3 1_555 1_555
C12_3 C11_3 1_555 1_555
C13_3 C12_3 1_555 1_555
C14_3 C12_3 1_555 1_555
H8_3 C14_3 1_555 1_555
O7_2 C37_3 1_555 1_555
O8_2 C37_3 1_555 1_555
H23_3 C35_3 1_555 1_555
C36_3 C35_3 1_555 1_555
C37_3 C36_3 1_555 1_555
C38_3 C36_3 1_555 1_555
H24_3 C38_3 1_555 1_555
Zn3 O7_2 1_555 1_555
Zn5 O3_2 1_555 1_555
O4_2 Zn5 1_555 1_555
O8_2 Zn3 1_555 1_555
H12_5 C18_5 1_555 1_555
N5_4 C18_5 1_555 1_555
C23_4 C22_4 1_555 1_555
H15_4 C23_4 1_555 1_555
H16_4 C24_4 1_555 1_555
Zn5 N5_4 1_555 1_555
O5_4 Zn5 1_555 1_555
O6_4 C25_4 1_555 1_555
C25_4 O5_4 1_555 1_555
C26_4 C25_4 1_555 1_555
C27_4 C26_4 1_555 1_555
H17_4 C27_4 1_555 1_555
C28_4 C27_4 1_555 1_555
H18_4 C28_4 1_555 1_555
C41_4 C26_4 1_555 1_555
H27_4 C41_4 1_555 1_555
N5_4 C22_4 1_555 1_555
C23_4 C24_4 1_555 1_555
Zn3 O1_4 1_555 1_555
O1_4 C1_4 1_555 1_555
O2_4 C1_4 1_555 1_555
N3_4 Zn3 1_555 1_555
C1_4 C2_4 1_555 1_555
C2_4 C3_4 1_555 1_555
C3_4 H1_4 1_555 1_555
C4_4 C3_4 1_555 1_555
H2_4 C4_4 1_555 1_555
C17_4 C2_4 1_555 1_555
H11_4 C17_4 1_555 1_555
C18_6 N3_4 1_555 1_555
H12_6 C18_6 1_555 1_555
C19_4 N3_4 1_555 1_555
C20_4 C19_4 1_555 1_555
H13_4 C20_4 1_555 1_555
C21_4 C20_4 1_555 1_555
H14_4 C21_4 1_555 1_555
N6_4 N8_4 1_555 1_555
N10_2 C31_4 1_555 1_555
N8_4 C32_4 1_555 1_555
C30_4 N6_4 1_555 1_555
H19_4 C30_4 1_555 1_555
C31_4 N6_4 1_555 1_555
H20_4 C31_4 1_555 1_555
C32_4 N10_2 1_555 1_555
H21_4 C32_4 1_555 1_555
C33_4 C30_4 1_555 1_555
C34_4 C33_4 1_555 1_555
H22_4 C34_4 1_555 1_555
C39_4 C33_4 1_555 1_555
H25_4 C39_4 1_555 1_555
C40_4 C29_4 1_555 1_555
H26_4 C40_4 1_555 1_555
C29_4 C30_4 1_555 1_555
O10_2 C37_4 1_555 1_555
O12_2 C37_4 1_555 1_555
H23_4 C35_4 1_555 1_555
C36_4 C35_4 1_555 1_555
C37_4 C36_4 1_555 1_555
C38_4 C36_4 1_555 1_555
H24_4 C38_4 1_555 1_555
N1_4 N4_4 1_555 1_555
N9_2 C7_4 1_555 1_555
N4_4 C8_4 1_555 1_555
C6_4 N1_4 1_555 1_555
H3_4 C6_4 1_555 1_555
C7_4 N1_4 1_555 1_555
H4_4 C7_4 1_555 1_555
C8_4 N9_2 1_555 1_555
H5_4 C8_4 1_555 1_555
C9_4 C6_4 1_555 1_555
C10_4 C9_4 1_555 1_555
H6_4 C10_4 1_555 1_555
C15_4 C9_4 1_555 1_555
H9_4 C15_4 1_555 1_555
C16_4 C5_4 1_555 1_555
H10_4 C16_4 1_555 1_555
C5_4 C6_4 1_555 1_555
O9_2 C13_4 1_555 1_555
O11_2 C13_4 1_555 1_555
H7_4 C11_4 1_555 1_555
C12_4 C11_4 1_555 1_555
C13_4 C12_4 1_555 1_555
C14_4 C12_4 1_555 1_555
H8_4 C14_4 1_555 1_555

#END
