
###############################################################################
#
# This file contains modified crystal structure data generated from the
# MOF subset of the Cambridge Structural Database (CSD) v543 
# hosted by the Cambridge Crystallographic Data Centre (CCDC).
#
# This work is licensed under the Creative Commons
# Attribution-NonCommercial-ShareAlike 4.0 International License.
# To view a copy of this license, visit
# http://creativecommons.org/licenses/by-nc-sa/4.0/
# or send a letter to
# Creative Commons, PO Box 1866, Mountain View, CA 94042, USA.
#
# CIF created using the CSD Python API on 29 September 2022
# The structure has been converted into the P1 space group
# The structure has a 3D framework
# The original CSD entry FOVDIG is in the monoclinic crystal system
# The framework has been calculated to contain at least 10.0% void space
# The void calculation uses a probe of radius 1.32A, grid spacing 0.4
#
###############################################################################

data_FOVDIG
_chemical_formula_moiety         '(C224 H152 N32 O32 Zn8)n'
_symmetry_cell_setting           triclinic
_symmetry_space_group_name_H-M   'P 1'
_symmetry_Int_Tables_number      1
_space_group_name_Hall           'P 1'
loop_
_symmetry_equiv_pos_site_id
_symmetry_equiv_pos_as_xyz
1 x,y,z
_cell_length_a                   11.8030(6)
_cell_length_b                   9.6266(5)
_cell_length_c                   50.365(3)
_cell_angle_alpha                90
_cell_angle_beta                 90.252(2)
_cell_angle_gamma                90
_cell_volume                     5722.55
loop_
_atom_site_label
_atom_site_type_symbol
_atom_site_fract_x
_atom_site_fract_y
_atom_site_fract_z
Zn2 Zn 0.09692(8) 0.24879(11) 0.67316(2)
O3 O 0.1116(7) 0.0740(8) 0.65556(13)
O4 O 0.1162(8) 0.1822(10) 0.61720(17)
C13 C 0.1095(9) 0.0750(13) 0.6312(2)
N10 N 0.2274(7) 0.3780(9) 0.66729(16)
N11 N 0.1202(6) 0.1804(8) 0.71158(12)
O9 O 0.9603(6) 0.3474(10) 0.66494(18)
O8 O 0.9533(9) 0.4784(10) 0.7002(2)
N3 N 0.3752(7) 0.4876(10) 0.65303(19)
N6 N 0.1202(6) 0.8196(8) 0.21158(12)
C19 C 0.4231(9) 0.9385(17) 0.6022(3)
C20 C 0.4046(11) 0.8159(19) 0.5884(4)
H12 H 0.381907 0.825640 0.570755
C21 C 0.4155(13) 0.682(2) 0.5974(3)
H13 H 0.407801 0.602115 0.587120
C22 C 0.4382(9) 0.6851(13) 0.6224(2)
C23 C 0.4592(11) 0.5236(19) 0.6342(3)
H14 H 0.454144 0.458274 0.619354
C24 C 0.3070(9) 0.3683(12) 0.6495(2)
H15 H 0.316831 0.297618 0.637155
C25 C 0.2393(12) 0.5023(14) 0.6819(3)
H16 H 0.193414 0.532285 0.695759
N8 N 0.3293(11) 0.5686(14) 0.6720(2)
C26 C 0.5831(12) 0.5044(11) 0.6485(2)
C27 C 0.5977(9) 0.5567(13) 0.6720(2)
H17 H 0.539719 0.603075 0.680798
C28 C 0.7156(13) 0.5383(17) 0.6847(3)
H18 H 0.731197 0.573873 0.701459
C29 C 0.7940(9) 0.4713(13) 0.6713(3)
C30 C 0.9138(10) 0.4352(15) 0.6804(3)
C31 C 0.7601(12) 0.4282(16) 0.6464(3)
H19 H 0.815632 0.383284 0.636541
C32 C 0.6534(12) 0.4418(18) 0.6334(3)
H20 H 0.637077 0.409839 0.616389
C33 C 0.4562(9) 0.7868(12) 0.6396(2)
H21 H 0.473235 0.771623 0.657445
C34 C 0.4464(13) 0.9315(15) 0.6274(4)
H24 H 0.276656 0.956586 0.469820
C44 C 0.2648(12) 0.9553(10) 0.38995(19)
H29 H 0.266034 0.864369 0.383743
C45 C 0.2859(11) 0.9793(10) 0.41714(19)
H30 H 0.297130 0.905009 0.428655
C49 C 0.1916(8) 0.9593(9) 0.29003(17)
C50 C 0.1662(7) 0.9132(9) 0.26292(16)
C51 C 0.1577(9) 0.7759(10) 0.25665(17)
H33 H 0.168186 0.710178 0.269956
C52 C 0.1339(9) 0.7312(10) 0.23114(18)
H34 H 0.127529 0.636535 0.227785
C53 C 0.1279(9) 0.9542(11) 0.21683(17)
C55 C 0.2612(9) 0.8798(10) 0.3066(2)
H37 H 0.296273 0.800461 0.300056
C56 C 0.2779(9) 0.9183(11) 0.33235(19)
H38 H 0.326740 0.865537 0.342805
Zn6 Zn 0.09692(8) 0.75121(11) 0.17316(2)
O3_2 O 0.1116(7) 0.9260(8) 0.15556(13)
O4_2 O 0.1162(8) 0.8178(10) 0.11720(17)
C13_2 C 0.1095(9) 0.9250(13) 0.1312(2)
N10_2 N 0.2274(7) 0.6220(9) 0.16729(16)
O7 O 0.9603(6) 0.6526(10) 0.16494(18)
O8_2 O 0.9533(9) 0.5216(10) 0.2002(2)
N3_2 N 0.3752(7) 0.5124(10) 0.15303(19)
C19_2 C 0.4231(9) 0.0615(17) 0.1022(3)
C20_2 C 0.4046(11) 0.1841(19) 0.0884(4)
H12_2 H 0.381907 0.174360 0.070755
C21_2 C 0.4155(13) 0.318(2) 0.0974(3)
H13_2 H 0.407801 0.397885 0.087120
C22_2 C 0.4382(9) 0.3149(13) 0.1224(2)
C23_2 C 0.4592(11) 0.4764(19) 0.1342(3)
H14_2 H 0.454144 0.541726 0.119354
C24_2 C 0.3070(9) 0.6317(12) 0.1495(2)
H15_2 H 0.316831 0.702382 0.137155
C25_2 C 0.2393(12) 0.4977(14) 0.1819(3)
H16_2 H 0.193414 0.467715 0.195759
N8_2 N 0.3293(11) 0.4314(14) 0.1720(2)
C26_2 C 0.5831(12) 0.4956(11) 0.1485(2)
C27_2 C 0.5977(9) 0.4433(13) 0.1720(2)
H17_2 H 0.539719 0.396925 0.180798
C28_2 C 0.7156(13) 0.4617(17) 0.1847(3)
H18_2 H 0.731197 0.426127 0.201459
C29_2 C 0.7940(9) 0.5287(13) 0.1713(3)
C30_2 C 0.9138(10) 0.5648(15) 0.1804(3)
C31_2 C 0.7601(12) 0.5718(16) 0.1464(3)
H19_2 H 0.815632 0.616716 0.136541
C32_2 C 0.6534(12) 0.5582(18) 0.1334(3)
H20_2 H 0.637077 0.590161 0.116389
C33_2 C 0.4562(9) 0.2132(12) 0.1396(2)
H21_2 H 0.473235 0.228377 0.157445
C34_2 C 0.4464(13) 0.0685(15) 0.1274(4)
H24_2 H 0.276656 0.043414 0.969820
C44_2 C 0.2648(12) 0.0447(10) 0.88995(19)
H29_2 H 0.266034 0.135631 0.883743
C45_2 C 0.2859(11) 0.0207(10) 0.91714(19)
H30_2 H 0.297130 0.094991 0.928655
C49_2 C 0.1916(8) 0.0407(9) 0.79003(17)
C50_2 C 0.1662(7) 0.0868(9) 0.76292(16)
C51_2 C 0.1577(9) 0.2241(10) 0.75665(17)
H33_2 H 0.168186 0.289822 0.769956
C52_2 C 0.1339(9) 0.2688(10) 0.73114(18)
H34_2 H 0.127529 0.363465 0.727785
C53_2 C 0.1279(9) 0.0458(11) 0.71683(17)
C55_2 C 0.2612(9) 0.1202(10) 0.8066(2)
H37_2 H 0.296273 0.199539 0.800056
C56_2 C 0.2779(9) 0.0817(11) 0.83235(19)
H38_2 H 0.326740 0.134463 0.842805
N1 N 0.1785(6) 0.4861(10) 0.56895(18)
N2 N 0.3234(7) 0.3797(8) 0.55240(15)
C6 C 0.0857(10) 0.5129(12) 0.5858(2)
H3 H 0.093254 0.449419 0.600880
C7 C 0.2480(8) 0.3695(11) 0.5718(2)
H4 H 0.242595 0.299872 0.584524
C8 C 0.2944(11) 0.4957(15) 0.5394(3)
H5 H 0.333214 0.525756 0.524415
N7 N 0.2117(12) 0.5614(13) 0.5486(2)
C9 C 0.0888(9) 0.6689(13) 0.5978(2)
C10 C 0.0793(13) 0.7741(15) 0.5810(2)
H6 H 0.068770 0.759224 0.562865
C11 C 0.0861(15) 0.9176(16) 0.5922(3)
H7 H 0.080136 0.996130 0.581574
C12 C 0.1017(8) 0.9271(14) 0.6190(2)
C14 C 0.1151(11) 0.8152(14) 0.6341(2)
H8 H 0.130457 0.824724 0.652183
C15 C 0.1060(11) 0.6803(13) 0.6226(2)
H9 H 0.112537 0.601444 0.633137
H10 H 0.001812 0.581626 0.538385
Zn3 Zn 0.44302(9) 0.23667(12) 0.54429(2)
O1 O 0.5912(7) 0.3044(10) 0.55311(18)
O2 O 0.6219(10) 0.3999(14) 0.5160(2)
O5 O 0.4137(7) 0.0676(9) 0.56302(17)
O6 O 0.4239(8) 0.1865(11) 0.60060(18)
N5 N 0.4037(6) 0.1875(9) 0.50575(14)
C1 C 0.6481(10) 0.3697(11) 0.5382(2)
C2 C 0.7643(8) 0.4115(10) 0.5486(2)
C3 C 0.7931(10) 0.3773(15) 0.5743(2)
H1 H 0.739871 0.329997 0.584462
C4 C 0.8969(12) 0.4092(15) 0.5861(3)
H2 H 0.913697 0.381435 0.603398
C5 C 0.9691(10) 0.4788(10) 0.57222(18)
C16 C 0.9491(12) 0.5260(18) 0.5470(3)
C17 C 0.8400(14) 0.486(2) 0.5336(3)
H11 H 0.824488 0.510513 0.516080
C18 C 0.4196(10) 0.0775(15) 0.5881(3)
H22 H 0.456628 0.011214 0.637528
C35 C 0.3516(9) 0.0695(12) 0.49933(18)
H23 H 0.340647 0.003357 0.512530
C36 C 0.3124(9) 0.0404(11) 0.47364(18)
C37 C 0.3286(7) 0.1411(10) 0.45376(17)
C38 C 0.3840(9) 0.2590(11) 0.46063(19)
H25 H 0.399220 0.325624 0.447753
C39 C 0.4189(9) 0.2819(11) 0.48701(19)
H26 H 0.453661 0.365611 0.491390
C40 C 0.2899(7) 0.1144(9) 0.42658(16)
C41 C 0.2675(9) 0.2187(10) 0.40904(19)
H27 H 0.269390 0.309993 0.415073
C42 C 0.2420(8) 0.1943(9) 0.38269(17)
H28 H 0.224166 0.268738 0.371661
C43 C 0.2424(7) 0.0600(9) 0.37228(17)
C46 C 0.2263(8) 0.0307(10) 0.34351(16)
C47 C 0.1607(9) 0.1101(10) 0.32696(18)
H31 H 0.126739 0.189581 0.333774
C48 C 0.1431(9) 0.0779(10) 0.30093(17)
H32 H 0.098456 0.135472 0.290390
H35 H 0.117983 0.016983 0.202990
C54 C 0.1499(9) 0.0050(10) 0.24183(17)
H36 H 0.153911 0.100373 0.244670
O9_2 O 0.0397(6) 0.3474(10) 0.83506(18)
N6_2 N 0.8798(6) 0.8196(8) 0.28842(12)
H24_3 H 0.723344 0.956586 0.030180
C44_3 C 0.7352(12) 0.9553(10) 0.11005(19)
H29_3 H 0.733966 0.864369 0.116257
C45_3 C 0.7141(11) 0.9793(10) 0.08286(19)
H30_3 H 0.702870 0.905009 0.071345
C49_3 C 0.8084(8) 0.9593(9) 0.20997(17)
C50_3 C 0.8338(7) 0.9132(9) 0.23708(16)
C51_3 C 0.8423(9) 0.7759(10) 0.24335(17)
H33_3 H 0.831814 0.710178 0.230044
C52_3 C 0.8661(9) 0.7312(10) 0.26886(18)
H34_3 H 0.872471 0.636535 0.272215
C53_3 C 0.8721(9) 0.9542(11) 0.28317(17)
C55_3 C 0.7388(9) 0.8798(10) 0.1934(2)
H37_3 H 0.703727 0.800461 0.199944
C56_3 C 0.7221(9) 0.9183(11) 0.16765(19)
H38_3 H 0.673260 0.865537 0.157195
Zn6_2 Zn 0.90308(8) 0.75121(11) 0.32684(2)
O8_3 O 0.0467(9) 0.4784(10) 0.7998(2)
N3_3 N 0.6248(7) 0.4876(10) 0.84697(19)
N4 N 0.7726(7) 0.3780(9) 0.83271(16)
C19_3 C 0.5769(9) 0.9385(17) 0.8978(3)
C20_3 C 0.5954(11) 0.8159(19) 0.9116(4)
H12_3 H 0.618093 0.825640 0.929245
C21_3 C 0.5845(13) 0.682(2) 0.9026(3)
H13_3 H 0.592199 0.602115 0.912880
C22_3 C 0.5618(9) 0.6851(13) 0.8776(2)
C23_3 C 0.5408(11) 0.5236(19) 0.8658(3)
H14_3 H 0.545856 0.458274 0.880646
C24_3 C 0.6930(9) 0.3683(12) 0.8505(2)
H15_3 H 0.683169 0.297618 0.862845
C25_3 C 0.7607(12) 0.5023(14) 0.8181(3)
H16_3 H 0.806586 0.532285 0.804241
N8_3 N 0.6707(11) 0.5686(14) 0.8280(2)
C26_3 C 0.4169(12) 0.5044(11) 0.8515(2)
C27_3 C 0.4023(9) 0.5567(13) 0.8280(2)
H17_3 H 0.460281 0.603075 0.819202
C28_3 C 0.2844(13) 0.5383(17) 0.8153(3)
H18_3 H 0.268803 0.573873 0.798541
C29_3 C 0.2060(9) 0.4713(13) 0.8287(3)
C30_3 C 0.0862(10) 0.4352(15) 0.8196(3)
C31_3 C 0.2399(12) 0.4282(16) 0.8536(3)
H19_3 H 0.184368 0.383284 0.863459
C32_3 C 0.3466(12) 0.4418(18) 0.8666(3)
H20_3 H 0.362923 0.409839 0.883611
C33_3 C 0.5438(9) 0.7868(12) 0.8604(2)
H21_3 H 0.526765 0.771623 0.842555
C34_3 C 0.5536(13) 0.9315(15) 0.8726(4)
Zn4 Zn 0.90308(8) 0.24879(11) 0.82684(2)
O3_3 O 0.8884(7) 0.0740(8) 0.84444(13)
O4_3 O 0.8838(8) 0.1822(10) 0.88280(17)
C13_3 C 0.8905(9) 0.0750(13) 0.8688(2)
N11_2 N 0.8798(6) 0.1804(8) 0.78842(12)
O7_2 O 0.0397(6) 0.6526(10) 0.33506(18)
O8_4 O 0.0467(9) 0.5216(10) 0.2998(2)
N3_4 N 0.6248(7) 0.5124(10) 0.34697(19)
N4_2 N 0.7726(7) 0.6220(9) 0.33271(16)
C19_4 C 0.5769(9) 0.0615(17) 0.3978(3)
C20_4 C 0.5954(11) 0.1841(19) 0.4116(4)
H12_4 H 0.618093 0.174360 0.429245
C21_4 C 0.5845(13) 0.318(2) 0.4026(3)
H13_4 H 0.592199 0.397885 0.412880
C22_4 C 0.5618(9) 0.3149(13) 0.3776(2)
C23_4 C 0.5408(11) 0.4764(19) 0.3658(3)
H14_4 H 0.545856 0.541726 0.380646
C24_4 C 0.6930(9) 0.6317(12) 0.3505(2)
H15_4 H 0.683169 0.702382 0.362845
C25_4 C 0.7607(12) 0.4977(14) 0.3181(3)
H16_4 H 0.806586 0.467715 0.304241
N8_4 N 0.6707(11) 0.4314(14) 0.3280(2)
C26_4 C 0.4169(12) 0.4956(11) 0.3515(2)
C27_4 C 0.4023(9) 0.4433(13) 0.3280(2)
H17_4 H 0.460281 0.396925 0.319202
C28_4 C 0.2844(13) 0.4617(17) 0.3153(3)
H18_4 H 0.268803 0.426127 0.298541
C29_4 C 0.2060(9) 0.5287(13) 0.3287(3)
C30_4 C 0.0862(10) 0.5648(15) 0.3196(3)
C31_4 C 0.2399(12) 0.5718(16) 0.3536(3)
H19_4 H 0.184368 0.616716 0.363459
C32_4 C 0.3466(12) 0.5582(18) 0.3666(3)
H20_4 H 0.362923 0.590161 0.383611
C33_4 C 0.5438(9) 0.2132(12) 0.3604(2)
H21_4 H 0.526765 0.228377 0.342555
C34_4 C 0.5536(13) 0.0685(15) 0.3726(4)
H24_4 H 0.723344 0.043414 0.530180
C44_4 C 0.7352(12) 0.0447(10) 0.61005(19)
H29_4 H 0.733966 0.135631 0.616257
C45_4 C 0.7141(11) 0.0207(10) 0.58286(19)
H30_4 H 0.702870 0.094991 0.571345
C49_4 C 0.8084(8) 0.0407(9) 0.70997(17)
C50_4 C 0.8338(7) 0.0868(9) 0.73708(16)
C51_4 C 0.8423(9) 0.2241(10) 0.74335(17)
H33_4 H 0.831814 0.289822 0.730044
C52_4 C 0.8661(9) 0.2688(10) 0.76886(18)
H34_4 H 0.872471 0.363465 0.772215
C53_4 C 0.8721(9) 0.0458(11) 0.78317(17)
C55_4 C 0.7388(9) 0.1202(10) 0.6934(2)
H37_4 H 0.703727 0.199539 0.699944
C56_4 C 0.7221(9) 0.0817(11) 0.66765(19)
H38_4 H 0.673260 0.134463 0.657195
O3_4 O 0.8884(7) 0.9260(8) 0.34444(13)
O4_4 O 0.8838(8) 0.8178(10) 0.38280(17)
C13_4 C 0.8905(9) 0.9250(13) 0.3688(2)
C35_2 C 0.6484(9) 0.0695(12) 0.00067(18)
C36_2 C 0.6876(9) 0.0404(11) 0.02636(18)
C37_2 C 0.6714(7) 0.1411(10) 0.04624(17)
C38_2 C 0.6160(9) 0.2590(11) 0.03937(19)
H25_2 H 0.600780 0.325624 0.052247
C39_2 C 0.5811(9) 0.2819(11) 0.01299(19)
H26_2 H 0.546339 0.365611 0.008610
C40_2 C 0.7101(7) 0.1144(9) 0.07342(16)
C41_2 C 0.7325(9) 0.2187(10) 0.09096(19)
H27_2 H 0.730610 0.309993 0.084927
C42_2 C 0.7580(8) 0.1943(9) 0.11731(17)
H28_2 H 0.775834 0.268738 0.128339
C43_2 C 0.7576(7) 0.0600(9) 0.12772(17)
C46_2 C 0.7737(8) 0.0307(10) 0.15649(16)
C47_2 C 0.8393(9) 0.1101(10) 0.17304(18)
H31_2 H 0.873261 0.189581 0.166226
C48_2 C 0.8569(9) 0.0779(10) 0.19907(17)
H32_2 H 0.901544 0.135472 0.209610
H35_2 H 0.882017 0.016983 0.297010
C54_2 C 0.8501(9) 0.0050(10) 0.25817(17)
H36_2 H 0.846089 0.100373 0.255330
Zn1 Zn 0.55698(9) 0.23667(12) 0.95571(2)
O1_2 O 0.4088(7) 0.3044(10) 0.94689(18)
O2_2 O 0.3781(10) 0.3999(14) 0.9840(2)
O5_2 O 0.5863(7) 0.0676(9) 0.93698(17)
O6_2 O 0.5761(8) 0.1865(11) 0.89940(18)
N5_2 N 0.5963(6) 0.1875(9) 0.99425(14)
C1_2 C 0.3519(10) 0.3697(11) 0.9618(2)
C2_2 C 0.2357(8) 0.4115(10) 0.9514(2)
C3_2 C 0.2069(10) 0.3773(15) 0.9257(2)
H1_2 H 0.260129 0.329997 0.915538
C4_2 C 0.1031(12) 0.4092(15) 0.9139(3)
H2_2 H 0.086303 0.381435 0.896602
C5_2 C 0.0309(10) 0.4788(10) 0.92778(18)
C16_2 C 0.0509(12) 0.5260(18) 0.9530(3)
C17_2 C 0.1600(14) 0.486(2) 0.9664(3)
H11_2 H 0.175512 0.510513 0.983920
C18_2 C 0.5804(10) 0.0775(15) 0.9119(3)
H22_2 H 0.543372 0.011214 0.862472
H23_2 H 0.659353 0.003357 0.987470
N9 N 0.6766(7) 0.3797(8) 0.94760(15)
N1_2 N 0.8215(6) 0.4861(10) 0.93105(18)
C6_2 C 0.9143(10) 0.5129(12) 0.9142(2)
H3_2 H 0.906746 0.449419 0.899120
C7_2 C 0.7520(8) 0.3695(11) 0.9282(2)
H4_2 H 0.757405 0.299872 0.915476
C8_2 C 0.7056(11) 0.4957(15) 0.9606(3)
H5_2 H 0.666786 0.525756 0.975585
N7_2 N 0.7883(12) 0.5614(13) 0.9514(2)
C9_2 C 0.9112(9) 0.6689(13) 0.9022(2)
C10_2 C 0.9207(13) 0.7741(15) 0.9190(2)
H6_2 H 0.931230 0.759224 0.937135
C11_2 C 0.9139(15) 0.9176(16) 0.9078(3)
H7_2 H 0.919864 0.996130 0.918426
C12_2 C 0.8983(8) 0.9271(14) 0.8810(2)
C14_2 C 0.8849(11) 0.8152(14) 0.8659(2)
H8_2 H 0.869543 0.824724 0.847817
C15_2 C 0.8940(11) 0.6803(13) 0.8774(2)
H9_2 H 0.887463 0.601444 0.866863
H10_2 H 0.998188 0.581626 0.961615
Zn1_2 Zn 0.55698(9) 0.76333(12) 0.45571(2)
O1_3 O 0.4088(7) 0.6956(10) 0.44689(18)
O2_3 O 0.3781(10) 0.6001(14) 0.4840(2)
O5_3 O 0.5863(7) 0.9324(9) 0.43698(17)
O6_3 O 0.5761(8) 0.8135(11) 0.39940(18)
N5_3 N 0.5963(6) 0.8125(9) 0.49425(14)
C1_3 C 0.3519(10) 0.6303(11) 0.4618(2)
C2_3 C 0.2357(8) 0.5885(10) 0.4514(2)
C3_3 C 0.2069(10) 0.6227(15) 0.4257(2)
H1_3 H 0.260129 0.670003 0.415538
C4_3 C 0.1031(12) 0.5908(15) 0.4139(3)
H2_3 H 0.086303 0.618565 0.396602
C5_3 C 0.0309(10) 0.5212(10) 0.42778(18)
C16_3 C 0.0509(12) 0.4740(18) 0.4530(3)
C17_3 C 0.1600(14) 0.514(2) 0.4664(3)
H11_3 H 0.175512 0.489487 0.483920
C18_3 C 0.5804(10) 0.9225(15) 0.4119(3)
H22_3 H 0.543372 0.988786 0.362472
C35_3 C 0.6484(9) 0.9305(12) 0.50067(18)
H23_3 H 0.659353 0.996643 0.487470
C36_3 C 0.6876(9) 0.9596(11) 0.52636(18)
C37_3 C 0.6714(7) 0.8589(10) 0.54624(17)
C38_3 C 0.6160(9) 0.7410(11) 0.53937(19)
H25_3 H 0.600780 0.674376 0.552247
C39_3 C 0.5811(9) 0.7181(11) 0.51299(19)
H26_3 H 0.546339 0.634389 0.508610
C40_3 C 0.7101(7) 0.8856(9) 0.57342(16)
C41_3 C 0.7325(9) 0.7813(10) 0.59096(19)
H27_3 H 0.730610 0.690007 0.584927
C42_3 C 0.7580(8) 0.8057(9) 0.61731(17)
H28_3 H 0.775834 0.731262 0.628339
C43_3 C 0.7576(7) 0.9400(9) 0.62772(17)
C46_3 C 0.7737(8) 0.9693(10) 0.65649(16)
C47_3 C 0.8393(9) 0.8899(10) 0.67304(18)
H31_3 H 0.873261 0.810419 0.666226
C48_3 C 0.8569(9) 0.9221(10) 0.69907(17)
H32_3 H 0.901544 0.864528 0.709610
H35_3 H 0.882017 0.983017 0.797010
C54_3 C 0.8501(9) 0.9950(10) 0.75817(17)
H36_3 H 0.846089 0.899627 0.755330
N9_2 N 0.6766(7) 0.6203(8) 0.44760(15)
N1_3 N 0.8215(6) 0.5139(10) 0.43105(18)
C6_3 C 0.9143(10) 0.4871(12) 0.4142(2)
H3_3 H 0.906746 0.550581 0.399120
C7_3 C 0.7520(8) 0.6305(11) 0.4282(2)
H4_3 H 0.757405 0.700128 0.415476
C8_3 C 0.7056(11) 0.5043(15) 0.4606(3)
H5_3 H 0.666786 0.474244 0.475585
N7_3 N 0.7883(12) 0.4386(13) 0.4514(2)
C9_3 C 0.9112(9) 0.3311(13) 0.4022(2)
C10_3 C 0.9207(13) 0.2259(15) 0.4190(2)
H6_3 H 0.931230 0.240776 0.437135
C11_3 C 0.9139(15) 0.0824(16) 0.4078(3)
H7_3 H 0.919864 0.003870 0.418426
C12_3 C 0.8983(8) 0.0729(14) 0.3810(2)
C14_3 C 0.8849(11) 0.1848(14) 0.3659(2)
H8_3 H 0.869543 0.175276 0.347817
C15_3 C 0.8940(11) 0.3197(13) 0.3774(2)
H9_3 H 0.887463 0.398556 0.366863
H10_3 H 0.998188 0.418374 0.461615
N1_4 N 0.1785(6) 0.5139(10) 0.06895(18)
N2_2 N 0.3234(7) 0.6203(8) 0.05240(15)
C6_4 C 0.0857(10) 0.4871(12) 0.0858(2)
H3_4 H 0.093254 0.550581 0.100880
C7_4 C 0.2480(8) 0.6305(11) 0.0718(2)
H4_4 H 0.242595 0.700128 0.084524
C8_4 C 0.2944(11) 0.5043(15) 0.0394(3)
H5_4 H 0.333214 0.474244 0.024415
N7_4 N 0.2117(12) 0.4386(13) 0.0486(2)
C9_4 C 0.0888(9) 0.3311(13) 0.0978(2)
C10_4 C 0.0793(13) 0.2259(15) 0.0810(2)
H6_4 H 0.068770 0.240776 0.062865
C11_4 C 0.0861(15) 0.0824(16) 0.0922(3)
H7_4 H 0.080136 0.003870 0.081574
C12_4 C 0.1017(8) 0.0729(14) 0.1190(2)
C14_4 C 0.1151(11) 0.1848(14) 0.1341(2)
H8_4 H 0.130457 0.175276 0.152183
C15_4 C 0.1060(11) 0.3197(13) 0.1226(2)
H9_4 H 0.112537 0.398556 0.133137
H10_4 H 0.001812 0.418374 0.038385
Zn3_2 Zn 0.44302(9) 0.76333(12) 0.04429(2)
O1_4 O 0.5912(7) 0.6956(10) 0.05311(18)
O2_4 O 0.6219(10) 0.6001(14) 0.0160(2)
O5_4 O 0.4137(7) 0.9324(9) 0.06302(17)
O6_4 O 0.4239(8) 0.8135(11) 0.10060(18)
N5_4 N 0.4037(6) 0.8125(9) 0.00575(14)
C1_4 C 0.6481(10) 0.6303(11) 0.0382(2)
C2_4 C 0.7643(8) 0.5885(10) 0.0486(2)
C3_4 C 0.7931(10) 0.6227(15) 0.0743(2)
H1_4 H 0.739871 0.670003 0.084462
C4_4 C 0.8969(12) 0.5908(15) 0.0861(3)
H2_4 H 0.913697 0.618565 0.103398
C5_4 C 0.9691(10) 0.5212(10) 0.07222(18)
C16_4 C 0.9491(12) 0.4740(18) 0.0470(3)
C17_4 C 0.8400(14) 0.514(2) 0.0336(3)
H11_4 H 0.824488 0.489487 0.016080
C18_4 C 0.4196(10) 0.9225(15) 0.0881(3)
H22_4 H 0.456628 0.988786 0.137528
H23_4 H 0.340647 0.996643 0.012530
C35_4 C 0.3516(9) 0.9305(12) 0.99933(18)
C36_4 C 0.3124(9) 0.9596(11) 0.97364(18)
C37_4 C 0.3286(7) 0.8589(10) 0.95376(17)
C38_4 C 0.3840(9) 0.7410(11) 0.96063(19)
H25_4 H 0.399220 0.674376 0.947753
C39_4 C 0.4189(9) 0.7181(11) 0.98701(19)
H26_4 H 0.453661 0.634389 0.991390
C40_4 C 0.2899(7) 0.8856(9) 0.92658(16)
C41_4 C 0.2675(9) 0.7813(10) 0.90904(19)
H27_4 H 0.269390 0.690007 0.915073
C42_4 C 0.2420(8) 0.8057(9) 0.88269(17)
H28_4 H 0.224166 0.731262 0.871661
C43_4 C 0.2424(7) 0.9400(9) 0.87228(17)
C46_4 C 0.2263(8) 0.9693(10) 0.84351(16)
C47_4 C 0.1607(9) 0.8899(10) 0.82696(18)
H31_4 H 0.126739 0.810419 0.833774
C48_4 C 0.1431(9) 0.9221(10) 0.80093(17)
H32_4 H 0.098456 0.864528 0.790390
H35_4 H 0.117983 0.983017 0.702990
C54_4 C 0.1499(9) 0.9950(10) 0.74183(17)
H36_4 H 0.153911 0.899627 0.744670
loop_
_geom_bond_atom_site_label_1
_geom_bond_atom_site_label_2
_geom_bond_site_symmetry_1
_geom_bond_site_symmetry_2
Zn2 O3 1_555 1_555
O3 C13 1_555 1_555
O4 C13 1_555 1_555
N10 Zn2 1_555 1_555
N11 Zn2 1_555 1_555
O9 C30 1_555 1_555
O8 C30 1_555 1_555
N3 C23 1_555 1_555
N10 C24 1_555 1_555
N6 C52 1_555 1_555
C20 C19 1_555 1_555
H12 C20 1_555 1_555
C21 C20 1_555 1_555
H13 C21 1_555 1_555
C22 C21 1_555 1_555
C23 C22 1_555 1_555
H14 C23 1_555 1_555
C24 N3 1_555 1_555
H15 C24 1_555 1_555
C25 N10 1_555 1_555
H16 C25 1_555 1_555
N8 N3 1_555 1_555
C26 C23 1_555 1_555
C27 C26 1_555 1_555
H17 C27 1_555 1_555
C28 C27 1_555 1_555
H18 C28 1_555 1_555
C29 C28 1_555 1_555
C30 C29 1_555 1_555
C31 C29 1_555 1_555
H19 C31 1_555 1_555
C32 C26 1_555 1_555
H20 C32 1_555 1_555
C33 C22 1_555 1_555
H21 C33 1_555 1_555
C34 C19 1_555 1_555
H29 C44 1_555 1_555
H30 C45 1_555 1_555
C50 C49 1_555 1_555
C51 C50 1_555 1_555
H33 C51 1_555 1_555
C52 C51 1_555 1_555
H34 C52 1_555 1_555
C53 N6 1_555 1_555
C55 C49 1_555 1_555
H37 C55 1_555 1_555
H38 C56 1_555 1_555
Zn6 N6 1_555 1_555
C25 N8 1_555 1_555
C31 C32 1_555 1_555
C33 C34 1_555 1_555
C44 C45 1_555 1_555
C55 C56 1_555 1_555
Zn6 O3_2 1_555 1_555
O3_2 C13_2 1_555 1_555
O4_2 C13_2 1_555 1_555
N10_2 Zn6 1_555 1_555
O7 C30_2 1_555 1_555
O8_2 C30_2 1_555 1_555
N3_2 C23_2 1_555 1_555
N10_2 C24_2 1_555 1_555
C20_2 C19_2 1_555 1_555
H12_2 C20_2 1_555 1_555
C21_2 C20_2 1_555 1_555
H13_2 C21_2 1_555 1_555
C22_2 C21_2 1_555 1_555
C23_2 C22_2 1_555 1_555
H14_2 C23_2 1_555 1_555
C24_2 N3_2 1_555 1_555
H15_2 C24_2 1_555 1_555
C25_2 N10_2 1_555 1_555
H16_2 C25_2 1_555 1_555
N8_2 N3_2 1_555 1_555
C26_2 C23_2 1_555 1_555
C27_2 C26_2 1_555 1_555
H17_2 C27_2 1_555 1_555
C28_2 C27_2 1_555 1_555
H18_2 C28_2 1_555 1_555
C29_2 C28_2 1_555 1_555
C30_2 C29_2 1_555 1_555
C31_2 C29_2 1_555 1_555
H19_2 C31_2 1_555 1_555
C32_2 C26_2 1_555 1_555
H20_2 C32_2 1_555 1_555
C33_2 C22_2 1_555 1_555
H21_2 C33_2 1_555 1_555
C34_2 C19_2 1_555 1_555
C25_2 N8_2 1_555 1_555
C31_2 C32_2 1_555 1_555
C33_2 C34_2 1_555 1_555
N11 C52_2 1_555 1_555
H29_2 C44_2 1_555 1_555
H30_2 C45_2 1_555 1_555
C50_2 C49_2 1_555 1_555
C51_2 C50_2 1_555 1_555
H33_2 C51_2 1_555 1_555
C52_2 C51_2 1_555 1_555
H34_2 C52_2 1_555 1_555
C53_2 N11 1_555 1_555
C55_2 C49_2 1_555 1_555
H37_2 C55_2 1_555 1_555
H38_2 C56_2 1_555 1_555
C44_2 C45_2 1_555 1_555
C55_2 C56_2 1_555 1_555
N1 C6 1_555 1_555
N2 C7 1_555 1_555
H3 C6 1_555 1_555
C7 N1 1_555 1_555
H4 C7 1_555 1_555
C8 N2 1_555 1_555
H5 C8 1_555 1_555
N7 N1 1_555 1_555
C9 C6 1_555 1_555
C10 C9 1_555 1_555
H6 C10 1_555 1_555
C11 C10 1_555 1_555
H7 C11 1_555 1_555
C12 C11 1_555 1_555
C14 C12 1_555 1_555
H8 C14 1_555 1_555
C15 C9 1_555 1_555
H9 C15 1_555 1_555
Zn3 N2 1_555 1_555
C8 N7 1_555 1_555
C14 C15 1_555 1_555
Zn3 O1 1_555 1_555
O1 C1 1_555 1_555
O2 C1 1_555 1_555
O5 Zn3 1_555 1_555
O6 C18 1_555 1_555
N5 Zn3 1_555 1_555
C1 C2 1_555 1_555
C2 C3 1_555 1_555
C3 H1 1_555 1_555
C4 C3 1_555 1_555
H2 C4 1_555 1_555
C5 C4 1_555 1_555
C16 C5 1_555 1_555
C17 C2 1_555 1_555
H11 C17 1_555 1_555
C18 O5 1_555 1_555
C35 N5 1_555 1_555
H23 C35 1_555 1_555
C36 C35 1_555 1_555
C37 C36 1_555 1_555
C38 C37 1_555 1_555
H25 C38 1_555 1_555
C39 N5 1_555 1_555
H26 C39 1_555 1_555
C40 C37 1_555 1_555
C41 C40 1_555 1_555
H27 C41 1_555 1_555
C42 C41 1_555 1_555
H28 C42 1_555 1_555
C43 C42 1_555 1_555
C46 C43 1_555 1_555
C47 C46 1_555 1_555
H31 C47 1_555 1_555
C48 C47 1_555 1_555
H32 C48 1_555 1_555
H36 C54 1_555 1_555
C16 C17 1_555 1_555
C38 C39 1_555 1_555
N6_2 C52_3 1_555 1_555
H29_3 C44_3 1_555 1_555
H30_3 C45_3 1_555 1_555
C50_3 C49_3 1_555 1_555
C51_3 C50_3 1_555 1_555
H33_3 C51_3 1_555 1_555
C52_3 C51_3 1_555 1_555
H34_3 C52_3 1_555 1_555
C53_3 N6_2 1_555 1_555
C55_3 C49_3 1_555 1_555
H37_3 C55_3 1_555 1_555
H38_3 C56_3 1_555 1_555
Zn6_2 N6_2 1_555 1_555
C44_3 C45_3 1_555 1_555
C55_3 C56_3 1_555 1_555
O9_2 C30_3 1_555 1_555
O8_3 C30_3 1_555 1_555
N3_3 C23_3 1_555 1_555
N4 C24_3 1_555 1_555
C20_3 C19_3 1_555 1_555
H12_3 C20_3 1_555 1_555
C21_3 C20_3 1_555 1_555
H13_3 C21_3 1_555 1_555
C22_3 C21_3 1_555 1_555
C23_3 C22_3 1_555 1_555
H14_3 C23_3 1_555 1_555
C24_3 N3_3 1_555 1_555
H15_3 C24_3 1_555 1_555
C25_3 N4 1_555 1_555
H16_3 C25_3 1_555 1_555
N8_3 N3_3 1_555 1_555
C26_3 C23_3 1_555 1_555
C27_3 C26_3 1_555 1_555
H17_3 C27_3 1_555 1_555
C28_3 C27_3 1_555 1_555
H18_3 C28_3 1_555 1_555
C29_3 C28_3 1_555 1_555
C30_3 C29_3 1_555 1_555
C31_3 C29_3 1_555 1_555
H19_3 C31_3 1_555 1_555
C32_3 C26_3 1_555 1_555
H20_3 C32_3 1_555 1_555
C33_3 C22_3 1_555 1_555
H21_3 C33_3 1_555 1_555
C34_3 C19_3 1_555 1_555
Zn4 N4 1_555 1_555
C25_3 N8_3 1_555 1_555
C31_3 C32_3 1_555 1_555
C33_3 C34_3 1_555 1_555
Zn4 O3_3 1_555 1_555
O3_3 C13_3 1_555 1_555
O4_3 C13_3 1_555 1_555
N11_2 Zn4 1_555 1_555
O7_2 C30_4 1_555 1_555
O8_4 C30_4 1_555 1_555
N3_4 C23_4 1_555 1_555
N4_2 C24_4 1_555 1_555
N11_2 C52_4 1_555 1_555
C20_4 C19_4 1_555 1_555
H12_4 C20_4 1_555 1_555
C21_4 C20_4 1_555 1_555
H13_4 C21_4 1_555 1_555
C22_4 C21_4 1_555 1_555
C23_4 C22_4 1_555 1_555
H14_4 C23_4 1_555 1_555
C24_4 N3_4 1_555 1_555
H15_4 C24_4 1_555 1_555
C25_4 N4_2 1_555 1_555
H16_4 C25_4 1_555 1_555
N8_4 N3_4 1_555 1_555
C26_4 C23_4 1_555 1_555
C27_4 C26_4 1_555 1_555
H17_4 C27_4 1_555 1_555
C28_4 C27_4 1_555 1_555
H18_4 C28_4 1_555 1_555
C29_4 C28_4 1_555 1_555
C30_4 C29_4 1_555 1_555
C31_4 C29_4 1_555 1_555
H19_4 C31_4 1_555 1_555
C32_4 C26_4 1_555 1_555
H20_4 C32_4 1_555 1_555
C33_4 C22_4 1_555 1_555
H21_4 C33_4 1_555 1_555
C34_4 C19_4 1_555 1_555
H29_4 C44_4 1_555 1_555
H30_4 C45_4 1_555 1_555
C50_4 C49_4 1_555 1_555
C51_4 C50_4 1_555 1_555
H33_4 C51_4 1_555 1_555
C52_4 C51_4 1_555 1_555
H34_4 C52_4 1_555 1_555
C53_4 N11_2 1_555 1_555
C55_4 C49_4 1_555 1_555
H37_4 C55_4 1_555 1_555
H38_4 C56_4 1_555 1_555
Zn6_2 N4_2 1_555 1_555
C25_4 N8_4 1_555 1_555
C31_4 C32_4 1_555 1_555
C33_4 C34_4 1_555 1_555
C44_4 C45_4 1_555 1_555
C55_4 C56_4 1_555 1_555
Zn6_2 O3_4 1_555 1_555
O3_4 C13_4 1_555 1_555
O4_4 C13_4 1_555 1_555
C36_2 C35_2 1_555 1_555
C37_2 C36_2 1_555 1_555
C38_2 C37_2 1_555 1_555
H25_2 C38_2 1_555 1_555
H26_2 C39_2 1_555 1_555
C40_2 C37_2 1_555 1_555
C41_2 C40_2 1_555 1_555
H27_2 C41_2 1_555 1_555
C42_2 C41_2 1_555 1_555
H28_2 C42_2 1_555 1_555
C43_2 C42_2 1_555 1_555
C46_2 C43_2 1_555 1_555
C47_2 C46_2 1_555 1_555
H31_2 C47_2 1_555 1_555
C48_2 C47_2 1_555 1_555
H32_2 C48_2 1_555 1_555
H36_2 C54_2 1_555 1_555
C38_2 C39_2 1_555 1_555
Zn1 O1_2 1_555 1_555
O1_2 C1_2 1_555 1_555
O2_2 C1_2 1_555 1_555
O5_2 Zn1 1_555 1_555
O6_2 C18_2 1_555 1_555
N5_2 Zn1 1_555 1_555
C1_2 C2_2 1_555 1_555
C2_2 C3_2 1_555 1_555
C3_2 H1_2 1_555 1_555
C4_2 C3_2 1_555 1_555
H2_2 C4_2 1_555 1_555
C5_2 C4_2 1_555 1_555
C16_2 C5_2 1_555 1_555
C17_2 C2_2 1_555 1_555
H11_2 C17_2 1_555 1_555
C18_2 O5_2 1_555 1_555
N9 Zn1 1_555 1_555
C16_2 C17_2 1_555 1_555
N1_2 C6_2 1_555 1_555
N9 C7_2 1_555 1_555
H3_2 C6_2 1_555 1_555
C7_2 N1_2 1_555 1_555
H4_2 C7_2 1_555 1_555
C8_2 N9 1_555 1_555
H5_2 C8_2 1_555 1_555
N7_2 N1_2 1_555 1_555
C9_2 C6_2 1_555 1_555
C10_2 C9_2 1_555 1_555
H6_2 C10_2 1_555 1_555
C11_2 C10_2 1_555 1_555
H7_2 C11_2 1_555 1_555
C12_2 C11_2 1_555 1_555
C14_2 C12_2 1_555 1_555
H8_2 C14_2 1_555 1_555
C15_2 C9_2 1_555 1_555
H9_2 C15_2 1_555 1_555
C8_2 N7_2 1_555 1_555
C14_2 C15_2 1_555 1_555
Zn1_2 O1_3 1_555 1_555
O1_3 C1_3 1_555 1_555
O2_3 C1_3 1_555 1_555
O5_3 Zn1_2 1_555 1_555
O6_3 C18_3 1_555 1_555
N5_3 Zn1_2 1_555 1_555
C1_3 C2_3 1_555 1_555
C2_3 C3_3 1_555 1_555
C3_3 H1_3 1_555 1_555
C4_3 C3_3 1_555 1_555
H2_3 C4_3 1_555 1_555
C5_3 C4_3 1_555 1_555
C16_3 C5_3 1_555 1_555
C17_3 C2_3 1_555 1_555
H11_3 C17_3 1_555 1_555
C18_3 O5_3 1_555 1_555
C35_3 N5_3 1_555 1_555
H23_3 C35_3 1_555 1_555
C36_3 C35_3 1_555 1_555
C37_3 C36_3 1_555 1_555
C38_3 C37_3 1_555 1_555
H25_3 C38_3 1_555 1_555
C39_3 N5_3 1_555 1_555
H26_3 C39_3 1_555 1_555
C40_3 C37_3 1_555 1_555
C41_3 C40_3 1_555 1_555
H27_3 C41_3 1_555 1_555
C42_3 C41_3 1_555 1_555
H28_3 C42_3 1_555 1_555
C43_3 C42_3 1_555 1_555
C46_3 C43_3 1_555 1_555
C47_3 C46_3 1_555 1_555
H31_3 C47_3 1_555 1_555
C48_3 C47_3 1_555 1_555
H32_3 C48_3 1_555 1_555
H36_3 C54_3 1_555 1_555
N9_2 Zn1_2 1_555 1_555
C16_3 C17_3 1_555 1_555
C38_3 C39_3 1_555 1_555
N1_3 C6_3 1_555 1_555
N9_2 C7_3 1_555 1_555
H3_3 C6_3 1_555 1_555
C7_3 N1_3 1_555 1_555
H4_3 C7_3 1_555 1_555
C8_3 N9_2 1_555 1_555
H5_3 C8_3 1_555 1_555
N7_3 N1_3 1_555 1_555
C9_3 C6_3 1_555 1_555
C10_3 C9_3 1_555 1_555
H6_3 C10_3 1_555 1_555
C11_3 C10_3 1_555 1_555
H7_3 C11_3 1_555 1_555
C12_3 C11_3 1_555 1_555
C14_3 C12_3 1_555 1_555
H8_3 C14_3 1_555 1_555
C15_3 C9_3 1_555 1_555
H9_3 C15_3 1_555 1_555
C8_3 N7_3 1_555 1_555
C14_3 C15_3 1_555 1_555
N1_4 C6_4 1_555 1_555
N2_2 C7_4 1_555 1_555
H3_4 C6_4 1_555 1_555
C7_4 N1_4 1_555 1_555
H4_4 C7_4 1_555 1_555
C8_4 N2_2 1_555 1_555
H5_4 C8_4 1_555 1_555
N7_4 N1_4 1_555 1_555
C9_4 C6_4 1_555 1_555
C10_4 C9_4 1_555 1_555
H6_4 C10_4 1_555 1_555
C11_4 C10_4 1_555 1_555
H7_4 C11_4 1_555 1_555
C12_4 C11_4 1_555 1_555
C14_4 C12_4 1_555 1_555
H8_4 C14_4 1_555 1_555
C15_4 C9_4 1_555 1_555
H9_4 C15_4 1_555 1_555
Zn3_2 N2_2 1_555 1_555
C8_4 N7_4 1_555 1_555
C14_4 C15_4 1_555 1_555
Zn3_2 O1_4 1_555 1_555
O1_4 C1_4 1_555 1_555
O2_4 C1_4 1_555 1_555
O5_4 Zn3_2 1_555 1_555
O6_4 C18_4 1_555 1_555
N5_4 Zn3_2 1_555 1_555
C1_4 C2_4 1_555 1_555
C2_4 C3_4 1_555 1_555
C3_4 H1_4 1_555 1_555
C4_4 C3_4 1_555 1_555
H2_4 C4_4 1_555 1_555
C5_4 C4_4 1_555 1_555
C16_4 C5_4 1_555 1_555
C17_4 C2_4 1_555 1_555
H11_4 C17_4 1_555 1_555
C18_4 O5_4 1_555 1_555
C16_4 C17_4 1_555 1_555
C36_4 C35_4 1_555 1_555
C37_4 C36_4 1_555 1_555
C38_4 C37_4 1_555 1_555
H25_4 C38_4 1_555 1_555
H26_4 C39_4 1_555 1_555
C40_4 C37_4 1_555 1_555
C41_4 C40_4 1_555 1_555
H27_4 C41_4 1_555 1_555
C42_4 C41_4 1_555 1_555
H28_4 C42_4 1_555 1_555
C43_4 C42_4 1_555 1_555
C46_4 C43_4 1_555 1_555
C47_4 C46_4 1_555 1_555
H31_4 C47_4 1_555 1_555
C48_4 C47_4 1_555 1_555
H32_4 C48_4 1_555 1_555
H36_4 C54_4 1_555 1_555
C38_4 C39_4 1_555 1_555

#END
