
###############################################################################
#
# This file contains modified crystal structure data generated from the
# MOF subset of the Cambridge Structural Database (CSD) v543 
# hosted by the Cambridge Crystallographic Data Centre (CCDC).
#
# This work is licensed under the Creative Commons
# Attribution-NonCommercial-ShareAlike 4.0 International License.
# To view a copy of this license, visit
# http://creativecommons.org/licenses/by-nc-sa/4.0/
# or send a letter to
# Creative Commons, PO Box 1866, Mountain View, CA 94042, USA.
#
# CIF created using the CSD Python API on 29 September 2022
# The structure has been converted into the P1 space group
# The structure has a 3D framework
# The original CSD entry FOVPOX is in the orthorhombic crystal system
# The framework has been calculated to contain at least 10.0% void space
# The void calculation uses a probe of radius 1.32A, grid spacing 0.4
# H atom positions have been added when not included in the experimental data
#
###############################################################################

data_FOVPOX
_chemical_formula_moiety         '(C144 H128 Cd8 N24 O50)n'
_symmetry_cell_setting           triclinic
_symmetry_space_group_name_H-M   'P 1'
_symmetry_Int_Tables_number      1
_space_group_name_Hall           'P 1'
loop_
_symmetry_equiv_pos_site_id
_symmetry_equiv_pos_as_xyz
1 x,y,z
_cell_length_a                   24.542(4)
_cell_length_b                   12.641(2)
_cell_length_c                   15.446(3)
_cell_angle_alpha                90
_cell_angle_beta                 90
_cell_angle_gamma                90
_cell_volume                     4791.9
loop_
_atom_site_label
_atom_site_type_symbol
_atom_site_fract_x
_atom_site_fract_y
_atom_site_fract_z
H21 H 0.3872 0.4828 0.0283
O12 O 0.2879(2) 0.5073(3) 0.0157(3)
Cd4 Cd 0.264520(17) 0.67365(3) 0.06751(3)
Cd5 Cd 0.235480(17) 0.17365(3) 0.06751(3)
H11 H 0.0162 0.5852 0.4447
H12 H 0.0021 0.4716 0.4104
C19 C 0.1570(3) 0.4771(6) 0.5888(5)
H15 H 0.1828 0.5234 0.6116
C20 C 0.1038(3) 0.5097(7) 0.5878(5)
H16 H 0.0942 0.5748 0.6113
C21 C 0.0651(3) 0.4459(6) 0.5521(5)
C22 C 0.0821(3) 0.3479(6) 0.5214(6)
H17 H 0.0571 0.3001 0.4989
C23 C 0.1370(3) 0.3228(6) 0.5247(6)
H18 H 0.1482 0.2588 0.5009
C24 C 0.0064(3) 0.4765(8) 0.5454(5)
N4 N 0.1746(2) 0.3849(4) 0.5599(3)
C25 C 0.3744(3) 0.4646(6) 0.9737(5)
C26 C 0.4092(3) 0.4243(7) 0.9135(5)
H22 H 0.4458 0.4146 0.9268
C27 C 0.3894(3) 0.3978(7) 0.8319(5)
H23 H 0.4129 0.3691 0.7909
C28 C 0.3359(3) 0.4132(5) 0.8111(4)
C29 C 0.3015(3) 0.4544(5) 0.8737(4)
C30 C 0.2423(3) 0.4758(5) 0.8608(4)
C31 C 0.1994(3) 0.4116(5) 0.8872(4)
C32 C 0.1471(3) 0.4426(6) 0.8699(5)
H24 H 0.1178 0.4010 0.8877
C33 C 0.1379(3) 0.5376(6) 0.8251(5)
H25 H 0.1026 0.5576 0.8107
C34 C 0.1804(3) 0.6000(6) 0.8029(4)
H26 H 0.1742 0.6644 0.7756
C35 C 0.3148(3) 0.3820(5) 0.7225(4)
C36 C 0.2120(3) 0.3128(5) 0.9396(4)
Cd2 Cd 0.264520(17) 0.32635(3) 0.56751(3)
N5 N 0.2321(2) 0.5690(4) 0.8202(3)
N6 N 0.3220(2) 0.4778(4) 0.9543(3)
O8 O 0.2670(2) 0.4079(4) 0.7036(3)
O9 O 0.3442(2) 0.3313(5) 0.6735(3)
O10 O 0.17269(19) 0.2693(4) 0.9795(3)
O11 O 0.26011(19) 0.2815(4) 0.9449(3)
O13 O 0.2734(2) 0.6291(4) 0.7963(3)
O14 O 0.2348(2) 0.1685(3) 0.6289(3)
H27 H 0.2054 0.1404 0.5949
H28 H 0.2224 0.1816 0.6868
O16 O 0.32731(19) 0.2307(4) 0.4795(3)
O18 O 0.23989(19) 0.2185(4) 0.4449(3)
O19 O 0.2879(2) 0.4927(3) 0.5157(3)
H30 H 0.296838 0.589439 0.755158
C1 C 0.6256(3) 0.5354(6) 0.0263(5)
C2 C 0.5908(3) 0.5757(7) 0.0865(5)
H2 H 0.5542 0.5854 0.0732
C3 C 0.6106(3) 0.6022(7) 0.1681(5)
H3 H 0.5871 0.6309 0.2091
C4 C 0.6641(3) 0.5868(5) 0.1889(4)
C5 C 0.6985(3) 0.5456(5) 0.1263(4)
C6 C 0.7577(3) 0.5242(5) 0.1392(4)
C7 C 0.8006(3) 0.5884(5) 0.1128(4)
C8 C 0.8529(3) 0.5574(6) 0.1301(5)
H4 H 0.8822 0.5990 0.1123
C9 C 0.8621(3) 0.4624(6) 0.1749(5)
H5 H 0.8974 0.4424 0.1893
C10 C 0.8196(3) 0.4000(6) 0.1971(4)
H6 H 0.8258 0.3356 0.2244
C11 C 0.6852(3) 0.6180(5) 0.2775(4)
C12 C 0.7880(3) 0.6872(5) 0.0604(4)
C13 C 0.8430(3) 0.5229(6) 0.4112(5)
H7 H 0.8172 0.4766 0.3884
C14 C 0.8962(3) 0.4903(7) 0.4122(5)
H8 H 0.9058 0.4252 0.3887
C15 C 0.9349(3) 0.5541(6) 0.4479(5)
C16 C 0.9179(3) 0.6521(6) 0.4786(6)
H9 H 0.9429 0.6999 0.5011
C17 C 0.8630(3) 0.6772(6) 0.4753(6)
H10 H 0.8518 0.7412 0.4991
C18 C 0.9936(3) 0.5235(8) 0.4546(5)
Cd1 Cd 0.735480(17) 0.67365(3) 0.43249(3)
N1 N 0.8254(2) 0.6151(4) 0.4401(3)
N2 N 0.7679(2) 0.4310(4) 0.1798(3)
N3 N 0.6780(2) 0.5222(4) 0.0457(3)
O1 O 0.7330(2) 0.5921(4) 0.2964(3)
O2 O 0.6558(2) 0.6687(5) 0.3265(3)
O3 O 0.82731(19) 0.7307(4) 0.0205(3)
O4 O 0.73989(19) 0.7185(4) 0.0551(3)
O6 O 0.7266(2) 0.3709(4) 0.2037(3)
O7 O 0.7652(2) 0.8315(3) 0.3711(3)
H13 H 0.7946 0.8596 0.4051
H14 H 0.7776 0.8184 0.3132
H19 H 0.9838 0.4148 0.5553
H20 H 0.9979 0.5284 0.5896
O15 O 0.67269(19) 0.7693(4) 0.5205(3)
O17 O 0.76011(19) 0.7815(4) 0.5551(3)
O20 O 0.7121(2) 0.5073(3) 0.4843(3)
H29 H 0.704915 0.350873 0.151958
H1 H 0.6128 0.5172 0.9717
O5 O 0.7121(2) 0.4927(3) 0.9843(3)
Cd3 Cd 0.764520(17) 0.82635(3) 0.93249(3)
Cd6 Cd 0.735480(17) 0.32635(3) 0.93249(3)
C19_2 C 0.3430(3) 0.0229(6) 0.0888(5)
C21_2 C 0.4349(3) 0.0541(6) 0.0521(5)
C22_2 C 0.4179(3) 0.1521(6) 0.0214(6)
C23_2 C 0.3630(3) 0.1772(6) 0.0247(6)
H18_2 H 0.3518 0.2412 0.0009
C24_2 C 0.4936(3) 0.0235(8) 0.0454(5)
H19_2 H 0.5162 0.0852 0.0553
N4_2 N 0.3254(2) 0.1151(4) 0.0599(3)
C25_2 C 0.1256(3) 0.0354(6) 0.4737(5)
H21_2 H 0.1128 0.0172 0.5283
C26_2 C 0.0908(3) 0.0757(7) 0.4135(5)
H22_2 H 0.0542 0.0854 0.4268
C27_2 C 0.1106(3) 0.1022(7) 0.3319(5)
H23_2 H 0.0871 0.1309 0.2909
C28_2 C 0.1641(3) 0.0868(5) 0.3111(4)
C29_2 C 0.1985(3) 0.0456(5) 0.3737(4)
C30_2 C 0.2577(3) 0.0242(5) 0.3608(4)
C31_2 C 0.3006(3) 0.0884(5) 0.3872(4)
C32_2 C 0.3529(3) 0.0574(6) 0.3699(5)
H24_2 H 0.3822 0.0990 0.3877
C35_2 C 0.1852(3) 0.1180(5) 0.2225(4)
C36_2 C 0.2880(3) 0.1872(5) 0.4396(4)
N6_2 N 0.1780(2) 0.0222(4) 0.4543(3)
O8_2 O 0.2330(2) 0.0921(4) 0.2036(3)
O9_2 O 0.1558(2) 0.1687(5) 0.1735(3)
O14_2 O 0.2652(2) 0.3315(3) 0.1289(3)
H27_2 H 0.2946 0.3596 0.0949
H28_2 H 0.2776 0.3184 0.1868
O19_2 O 0.2121(2) 0.0073(3) 0.0157(3)
C9_2 C 0.6379(3) 0.0376(6) 0.6749(5)
H5_2 H 0.6026 0.0576 0.6893
C10_2 C 0.6804(3) 0.1000(6) 0.6971(4)
H6_2 H 0.6742 0.1644 0.7244
H7_2 H 0.6828 0.0234 0.8884
C14_2 C 0.6038(3) 0.0097(7) 0.9122(5)
H8_2 H 0.5942 0.0748 0.8887
H12_2 H 0.4979 0.0284 0.9104
N2_2 N 0.7321(2) 0.0690(4) 0.6798(3)
O5_2 O 0.7879(2) 0.0073(3) 0.4843(3)
O6_2 O 0.7734(2) 0.1291(4) 0.7037(3)
H17_2 H 0.4429 0.1999 0.9989
Cd6_2 Cd 0.764520(17) 0.17365(3) 0.43249(3)
H29_2 H 0.795085 0.149127 0.651958
H9_2 H 0.5571 0.8001 0.0011
H15_2 H 0.3172 0.9766 0.1116
C20_2 C 0.3962(3) 0.9903(7) 0.0878(5)
H16_2 H 0.4058 0.9252 0.1113
H20_2 H 0.5021 0.9716 0.0896
C33_2 C 0.3621(3) 0.9624(6) 0.3251(5)
H25_2 H 0.3974 0.9424 0.3107
C34_2 C 0.3196(3) 0.9000(6) 0.3029(4)
H26_2 H 0.3258 0.8356 0.2756
N5_2 N 0.2679(2) 0.9310(4) 0.3202(3)
O12_2 O 0.2121(2) 0.9927(3) 0.5157(3)
O13_2 O 0.2266(2) 0.8709(4) 0.2963(3)
Cd4_2 Cd 0.235480(17) 0.82635(3) 0.56751(3)
H30_2 H 0.203162 0.910561 0.255158
C1_2 C 0.8744(3) 0.9646(6) 0.5263(5)
H1_2 H 0.8872 0.9828 0.4717
C2_2 C 0.9092(3) 0.9243(7) 0.5865(5)
H2_2 H 0.9458 0.9146 0.5732
C3_2 C 0.8894(3) 0.8978(7) 0.6681(5)
H3_2 H 0.9129 0.8691 0.7091
C4_2 C 0.8359(3) 0.9132(5) 0.6889(4)
C5_2 C 0.8015(3) 0.9544(5) 0.6263(4)
C6_2 C 0.7423(3) 0.9758(5) 0.6392(4)
C7_2 C 0.6994(3) 0.9116(5) 0.6128(4)
C8_2 C 0.6471(3) 0.9426(6) 0.6301(5)
H4_2 H 0.6178 0.9010 0.6123
C11_2 C 0.8148(3) 0.8820(5) 0.7775(4)
C12_2 C 0.7120(3) 0.8128(5) 0.5604(4)
C13_2 C 0.6570(3) 0.9771(6) 0.9112(5)
C15_2 C 0.5651(3) 0.9459(6) 0.9479(5)
C16_2 C 0.5821(3) 0.8479(6) 0.9786(6)
C17_2 C 0.6370(3) 0.8228(6) 0.9753(6)
H10_2 H 0.6482 0.7588 0.9991
C18_2 C 0.5064(3) 0.9765(8) 0.9546(5)
H11_2 H 0.4838 0.9148 0.9447
N1_2 N 0.6746(2) 0.8849(4) 0.9401(3)
N3_2 N 0.8220(2) 0.9778(4) 0.5457(3)
O1_2 O 0.7670(2) 0.9079(4) 0.7964(3)
O2_2 O 0.8442(2) 0.8313(5) 0.8265(3)
O7_2 O 0.7348(2) 0.6685(3) 0.8711(3)
H13_2 H 0.7054 0.6404 0.9051
H14_2 H 0.7224 0.6816 0.8132
O20_2 O 0.7879(2) 0.9927(3) 0.9843(3)
C9_3 C 0.3621(3) 0.0376(6) 0.8251(5)
H5_3 H 0.3974 0.0576 0.8107
C10_3 C 0.3196(3) 0.1000(6) 0.8029(4)
H6_3 H 0.3258 0.1644 0.7756
H7_3 H 0.3172 0.0234 0.6116
C14_3 C 0.3962(3) 0.0097(7) 0.5878(5)
H8_3 H 0.4058 0.0748 0.6113
H12_3 H 0.5021 0.0284 0.5896
N2_3 N 0.2679(2) 0.0690(4) 0.8202(3)
O6_3 O 0.2266(2) 0.1291(4) 0.7963(3)
C19_3 C 0.6570(3) 0.0229(6) 0.4112(5)
C21_3 C 0.5651(3) 0.0541(6) 0.4479(5)
C22_3 C 0.5821(3) 0.1521(6) 0.4786(6)
H17_3 H 0.5571 0.1999 0.5011
C23_3 C 0.6370(3) 0.1772(6) 0.4753(6)
H18_3 H 0.6482 0.2412 0.4991
C24_3 C 0.5064(3) 0.0235(8) 0.4546(5)
H19_3 H 0.4838 0.0852 0.4447
N4_3 N 0.6746(2) 0.1151(4) 0.4401(3)
C25_3 C 0.8744(3) 0.0354(6) 0.0263(5)
C26_3 C 0.9092(3) 0.0757(7) 0.0865(5)
H22_3 H 0.9458 0.0854 0.0732
C27_3 C 0.8894(3) 0.1022(7) 0.1681(5)
H23_3 H 0.9129 0.1309 0.2091
C28_3 C 0.8359(3) 0.0868(5) 0.1889(4)
C29_3 C 0.8015(3) 0.0456(5) 0.1263(4)
C30_3 C 0.7423(3) 0.0242(5) 0.1392(4)
C31_3 C 0.6994(3) 0.0884(5) 0.1128(4)
C32_3 C 0.6471(3) 0.0574(6) 0.1301(5)
H24_3 H 0.6178 0.0990 0.1123
C35_3 C 0.8148(3) 0.1180(5) 0.2775(4)
C36_3 C 0.7120(3) 0.1872(5) 0.0604(4)
N6_3 N 0.8220(2) 0.0222(4) 0.0457(3)
O8_3 O 0.7670(2) 0.0921(4) 0.2964(3)
O9_3 O 0.8442(2) 0.1687(5) 0.3265(3)
O10_2 O 0.67269(19) 0.2307(4) 0.0205(3)
O11_2 O 0.76011(19) 0.2185(4) 0.0551(3)
O14_3 O 0.7348(2) 0.3315(3) 0.3711(3)
H27_3 H 0.7054 0.3596 0.4051
H28_3 H 0.7224 0.3184 0.3132
O16_2 O 0.82731(19) 0.2693(4) 0.5205(3)
O18_2 O 0.73989(19) 0.2815(4) 0.5551(3)
H29_3 H 0.204915 0.149127 0.848042
H21_3 H 0.8872 0.0172 0.9717
H1_3 H 0.1128 0.9828 0.0283
C1_3 C 0.1256(3) 0.9646(6) 0.9737(5)
C2_3 C 0.0908(3) 0.9243(7) 0.9135(5)
H2_3 H 0.0542 0.9146 0.9268
C3_3 C 0.1106(3) 0.8978(7) 0.8319(5)
H3_3 H 0.0871 0.8691 0.7909
C4_3 C 0.1641(3) 0.9132(5) 0.8111(4)
C5_3 C 0.1985(3) 0.9544(5) 0.8737(4)
C6_3 C 0.2577(3) 0.9758(5) 0.8608(4)
C7_3 C 0.3006(3) 0.9116(5) 0.8872(4)
C8_3 C 0.3529(3) 0.9426(6) 0.8699(5)
H4_3 H 0.3822 0.9010 0.8877
C11_3 C 0.1852(3) 0.8820(5) 0.7225(4)
C12_3 C 0.2880(3) 0.8128(5) 0.9396(4)
C13_3 C 0.3430(3) 0.9771(6) 0.5888(5)
C15_3 C 0.4349(3) 0.9459(6) 0.5521(5)
C16_3 C 0.4179(3) 0.8479(6) 0.5214(6)
H9_3 H 0.4429 0.8001 0.4989
C17_3 C 0.3630(3) 0.8228(6) 0.5247(6)
H10_3 H 0.3518 0.7588 0.5009
C18_3 C 0.4936(3) 0.9765(8) 0.5454(5)
H11_3 H 0.5162 0.9148 0.5553
N1_3 N 0.3254(2) 0.8849(4) 0.5599(3)
N3_3 N 0.1780(2) 0.9778(4) 0.9543(3)
O1_3 O 0.2330(2) 0.9079(4) 0.7036(3)
O2_3 O 0.1558(2) 0.8313(5) 0.6735(3)
O3_2 O 0.32731(19) 0.7693(4) 0.9795(3)
O4_2 O 0.23989(19) 0.7815(4) 0.9449(3)
O7_3 O 0.2652(2) 0.6685(3) 0.6289(3)
H13_3 H 0.2946 0.6404 0.5949
H14_3 H 0.2776 0.6816 0.6868
H15_3 H 0.6828 0.9766 0.3884
C20_3 C 0.6038(3) 0.9903(7) 0.4122(5)
H16_3 H 0.5942 0.9252 0.3887
H20_3 H 0.4979 0.9716 0.4104
C33_3 C 0.6379(3) 0.9624(6) 0.1749(5)
H25_3 H 0.6026 0.9424 0.1893
C34_3 C 0.6804(3) 0.9000(6) 0.1971(4)
H26_3 H 0.6742 0.8356 0.2244
N5_3 N 0.7321(2) 0.9310(4) 0.1798(3)
O13_3 O 0.7734(2) 0.8709(4) 0.2037(3)
O15_2 O 0.17269(19) 0.7307(4) 0.4795(3)
O17_2 O 0.26011(19) 0.7185(4) 0.4449(3)
H30_3 H 0.796838 0.910561 0.244842
C1_4 C 0.3744(3) 0.5354(6) 0.4737(5)
H1_4 H 0.3872 0.5172 0.5283
C2_4 C 0.4092(3) 0.5757(7) 0.4135(5)
H2_4 H 0.4458 0.5854 0.4268
C3_4 C 0.3894(3) 0.6022(7) 0.3319(5)
H3_4 H 0.4129 0.6309 0.2909
C4_4 C 0.3359(3) 0.5868(5) 0.3111(4)
C5_4 C 0.3015(3) 0.5456(5) 0.3737(4)
C6_4 C 0.2423(3) 0.5242(5) 0.3608(4)
C7_4 C 0.1994(3) 0.5884(5) 0.3872(4)
C8_4 C 0.1471(3) 0.5574(6) 0.3699(5)
H4_4 H 0.1178 0.5990 0.3877
C9_4 C 0.1379(3) 0.4624(6) 0.3251(5)
H5_4 H 0.1026 0.4424 0.3107
C10_4 C 0.1804(3) 0.4000(6) 0.3029(4)
H6_4 H 0.1742 0.3356 0.2756
C11_4 C 0.3148(3) 0.6180(5) 0.2225(4)
C12_4 C 0.2120(3) 0.6872(5) 0.4396(4)
C13_4 C 0.1570(3) 0.5229(6) 0.0888(5)
H7_4 H 0.1828 0.4766 0.1116
C14_4 C 0.1038(3) 0.4903(7) 0.0878(5)
H8_4 H 0.0942 0.4252 0.1113
C15_4 C 0.0651(3) 0.5541(6) 0.0521(5)
C16_4 C 0.0821(3) 0.6521(6) 0.0214(6)
C17_4 C 0.1370(3) 0.6772(6) 0.0247(6)
H10_4 H 0.1482 0.7412 0.0009
C18_4 C 0.0064(3) 0.5235(8) 0.0454(5)
N1_4 N 0.1746(2) 0.6151(4) 0.0599(3)
N2_4 N 0.2321(2) 0.4310(4) 0.3202(3)
N3_4 N 0.3220(2) 0.5222(4) 0.4543(3)
O1_4 O 0.2670(2) 0.5921(4) 0.2036(3)
O2_4 O 0.3442(2) 0.6687(5) 0.1735(3)
O6_4 O 0.2734(2) 0.3709(4) 0.2963(3)
O7_4 O 0.2348(2) 0.8315(3) 0.1289(3)
H13_4 H 0.2054 0.8596 0.0949
H14_4 H 0.2224 0.8184 0.1868
H29_4 H 0.295085 0.350873 0.348042
H9_4 H 0.0571 0.6999 0.9989
H19_4 H 0.0162 0.4148 0.9447
H20_4 H 0.0021 0.5284 0.9104
H11_4 H 0.9838 0.5852 0.0553
H12_4 H 0.9979 0.4716 0.0896
H17_4 H 0.9429 0.3001 0.0011
C19_4 C 0.8430(3) 0.4771(6) 0.9112(5)
H15_4 H 0.8172 0.5234 0.8884
C20_4 C 0.8962(3) 0.5097(7) 0.9122(5)
H16_4 H 0.9058 0.5748 0.8887
C21_4 C 0.9349(3) 0.4459(6) 0.9479(5)
C22_4 C 0.9179(3) 0.3479(6) 0.9786(6)
C23_4 C 0.8630(3) 0.3228(6) 0.9753(6)
H18_4 H 0.8518 0.2588 0.9991
C24_4 C 0.9936(3) 0.4765(8) 0.9546(5)
N4_4 N 0.8254(2) 0.3849(4) 0.9401(3)
C25_4 C 0.6256(3) 0.4646(6) 0.5263(5)
H21_4 H 0.6128 0.4828 0.4717
C26_4 C 0.5908(3) 0.4243(7) 0.5865(5)
H22_4 H 0.5542 0.4146 0.5732
C27_4 C 0.6106(3) 0.3978(7) 0.6681(5)
H23_4 H 0.5871 0.3691 0.7091
C28_4 C 0.6641(3) 0.4132(5) 0.6889(4)
C29_4 C 0.6985(3) 0.4544(5) 0.6263(4)
C30_4 C 0.7577(3) 0.4758(5) 0.6392(4)
C31_4 C 0.8006(3) 0.4116(5) 0.6128(4)
C32_4 C 0.8529(3) 0.4426(6) 0.6301(5)
H24_4 H 0.8822 0.4010 0.6123
C33_4 C 0.8621(3) 0.5376(6) 0.6749(5)
H25_4 H 0.8974 0.5576 0.6893
C34_4 C 0.8196(3) 0.6000(6) 0.6971(4)
H26_4 H 0.8258 0.6644 0.7244
C35_4 C 0.6852(3) 0.3820(5) 0.7775(4)
C36_4 C 0.7880(3) 0.3128(5) 0.5604(4)
N5_4 N 0.7679(2) 0.5690(4) 0.6798(3)
N6_4 N 0.6780(2) 0.4778(4) 0.5457(3)
O8_4 O 0.7330(2) 0.4079(4) 0.7964(3)
O9_4 O 0.6558(2) 0.3313(5) 0.8265(3)
O13_4 O 0.7266(2) 0.6291(4) 0.7037(3)
O14_4 O 0.7652(2) 0.1685(3) 0.8711(3)
H27_4 H 0.7946 0.1404 0.9051
H28_4 H 0.7776 0.1816 0.8132
H30_4 H 0.703162 0.589439 0.744842
H29_5 H 0.295085 0.649127 0.848042
H30_5 H 0.703162 0.410561 0.244842
H30_6 H 0.796838 0.089439 0.744842
H29_6 H 0.204915 0.850873 0.348042
H30_7 H 0.203162 0.089439 0.755158
H29_7 H 0.795085 0.850873 0.151958
H30_8 H 0.296838 0.410561 0.255158
H29_8 H 0.704915 0.649127 0.651958
loop_
_geom_bond_atom_site_label_1
_geom_bond_atom_site_label_2
_geom_bond_site_symmetry_1
_geom_bond_site_symmetry_2
Cd4 O12 1_555 1_555
C19 H15 1_555 1_555
C20 C19 1_555 1_555
H16 C20 1_555 1_555
C21 C20 1_555 1_555
C22 C21 1_555 1_555
H17 C22 1_555 1_555
C23 C22 1_555 1_555
H18 C23 1_555 1_555
N4 C19 1_555 1_555
C26 C25 1_555 1_555
H22 C26 1_555 1_555
C27 C26 1_555 1_555
H23 C27 1_555 1_555
C28 C27 1_555 1_555
C29 C28 1_555 1_555
C30 C29 1_555 1_555
C31 C30 1_555 1_555
C32 C31 1_555 1_555
H24 C32 1_555 1_555
C33 C32 1_555 1_555
H25 C33 1_555 1_555
C34 C33 1_555 1_555
H26 C34 1_555 1_555
C35 C28 1_555 1_555
C36 C31 1_555 1_555
Cd2 N4 1_555 1_555
N5 C30 1_555 1_555
N6 C25 1_555 1_555
O8 C35 1_555 1_555
O9 C35 1_555 1_555
O10 C36 1_555 1_555
O11 C36 1_555 1_555
O13 N5 1_555 1_555
O14 Cd2 1_555 1_555
H27 O14 1_555 1_555
H28 O14 1_555 1_555
O16 Cd2 1_555 1_555
O18 Cd2 1_555 1_555
O19 Cd2 1_555 1_555
C21 C24 1_555 1_555
C23 N4 1_555 1_555
C29 N6 1_555 1_555
C34 N5 1_555 1_555
Cd2 O8 1_555 1_555
Cd2 O9 1_555 1_555
O13 H30 1_555 1_555
C2 C1 1_555 1_555
H2 C2 1_555 1_555
C3 C2 1_555 1_555
H3 C3 1_555 1_555
C4 C3 1_555 1_555
C5 C4 1_555 1_555
C6 C5 1_555 1_555
C7 C6 1_555 1_555
C8 C7 1_555 1_555
H4 C8 1_555 1_555
C9 C8 1_555 1_555
H5 C9 1_555 1_555
C10 C9 1_555 1_555
H6 C10 1_555 1_555
C11 C4 1_555 1_555
C12 C7 1_555 1_555
C13 H7 1_555 1_555
C14 C13 1_555 1_555
H8 C14 1_555 1_555
C15 C14 1_555 1_555
C16 C15 1_555 1_555
H9 C16 1_555 1_555
C17 C16 1_555 1_555
H10 C17 1_555 1_555
C18 C15 1_555 1_555
Cd1 N1 1_555 1_555
N1 C13 1_555 1_555
N2 C6 1_555 1_555
N3 C1 1_555 1_555
O1 C11 1_555 1_555
O2 C11 1_555 1_555
O3 C12 1_555 1_555
O4 C12 1_555 1_555
O6 N2 1_555 1_555
O7 Cd1 1_555 1_555
H13 O7 1_555 1_555
H14 O7 1_555 1_555
O15 Cd1 1_555 1_555
O17 Cd1 1_555 1_555
O20 Cd1 1_555 1_555
C5 N3 1_555 1_555
C10 N2 1_555 1_555
C17 N1 1_555 1_555
Cd1 O1 1_555 1_555
Cd1 O2 1_555 1_555
O6 H29 1_555 1_555
Cd6 O5 1_555 1_555
C22_2 C21_2 1_555 1_555
C23_2 C22_2 1_555 1_555
H18_2 C23_2 1_555 1_555
H19_2 C24_2 1_555 1_555
N4_2 C19_2 1_555 1_555
C25_2 H21_2 1_555 1_555
C26_2 C25_2 1_555 1_555
H22_2 C26_2 1_555 1_555
C27_2 C26_2 1_555 1_555
H23_2 C27_2 1_555 1_555
C28_2 C27_2 1_555 1_555
C29_2 C28_2 1_555 1_555
C30_2 C29_2 1_555 1_555
C31_2 C30_2 1_555 1_555
C32_2 C31_2 1_555 1_555
H24_2 C32_2 1_555 1_555
C35_2 C28_2 1_555 1_555
C36_2 C31_2 1_555 1_555
Cd5 N4_2 1_555 1_555
N6_2 C25_2 1_555 1_555
O8_2 C35_2 1_555 1_555
O9_2 C35_2 1_555 1_555
O16 C36_2 1_555 1_555
O18 C36_2 1_555 1_555
O14_2 Cd5 1_555 1_555
H27_2 O14_2 1_555 1_555
H28_2 O14_2 1_555 1_555
O19_2 Cd5 1_555 1_555
C21_2 C24_2 1_555 1_555
C23_2 N4_2 1_555 1_555
C29_2 N6_2 1_555 1_555
Cd5 O8_2 1_555 1_555
Cd5 O9_2 1_555 1_555
H5_2 C9_2 1_555 1_555
C10_2 C9_2 1_555 1_555
H6_2 C10_2 1_555 1_555
H8_2 C14_2 1_555 1_555
O6_2 N2_2 1_555 1_555
Cd6_2 O5_2 1_555 1_555
C10_2 N2_2 1_555 1_555
O6_2 H29_2 1_555 1_555
H16_2 C20_2 1_555 1_555
H25_2 C33_2 1_555 1_555
C34_2 C33_2 1_555 1_555
H26_2 C34_2 1_555 1_555
O13_2 N5_2 1_555 1_555
Cd4_2 O12_2 1_555 1_555
C34_2 N5_2 1_555 1_555
O13_2 H30_2 1_555 1_555
C1_2 H1_2 1_555 1_555
C2_2 C1_2 1_555 1_555
H2_2 C2_2 1_555 1_555
C3_2 C2_2 1_555 1_555
H3_2 C3_2 1_555 1_555
C4_2 C3_2 1_555 1_555
C5_2 C4_2 1_555 1_555
C6_2 C5_2 1_555 1_555
C7_2 C6_2 1_555 1_555
C8_2 C7_2 1_555 1_555
H4_2 C8_2 1_555 1_555
C11_2 C4_2 1_555 1_555
C12_2 C7_2 1_555 1_555
C16_2 C15_2 1_555 1_555
C17_2 C16_2 1_555 1_555
H10_2 C17_2 1_555 1_555
C18_2 C15_2 1_555 1_555
H11_2 C18_2 1_555 1_555
Cd3 N1_2 1_555 1_555
N1_2 C13_2 1_555 1_555
N3_2 C1_2 1_555 1_555
O1_2 C11_2 1_555 1_555
O2_2 C11_2 1_555 1_555
O15 C12_2 1_555 1_555
O17 C12_2 1_555 1_555
O7_2 Cd3 1_555 1_555
H13_2 O7_2 1_555 1_555
H14_2 O7_2 1_555 1_555
O20_2 Cd3 1_555 1_555
C5_2 N3_2 1_555 1_555
C17_2 N1_2 1_555 1_555
Cd3 O1_2 1_555 1_555
Cd3 O2_2 1_555 1_555
H5_3 C9_3 1_555 1_555
C10_3 C9_3 1_555 1_555
H6_3 C10_3 1_555 1_555
H8_3 C14_3 1_555 1_555
O6_3 N2_3 1_555 1_555
C22_3 C21_3 1_555 1_555
H17_3 C22_3 1_555 1_555
C23_3 C22_3 1_555 1_555
H18_3 C23_3 1_555 1_555
H19_3 C24_3 1_555 1_555
N4_3 C19_3 1_555 1_555
C26_3 C25_3 1_555 1_555
H22_3 C26_3 1_555 1_555
C27_3 C26_3 1_555 1_555
H23_3 C27_3 1_555 1_555
C28_3 C27_3 1_555 1_555
C29_3 C28_3 1_555 1_555
C30_3 C29_3 1_555 1_555
C31_3 C30_3 1_555 1_555
C32_3 C31_3 1_555 1_555
H24_3 C32_3 1_555 1_555
C35_3 C28_3 1_555 1_555
C36_3 C31_3 1_555 1_555
Cd6_2 N4_3 1_555 1_555
N6_3 C25_3 1_555 1_555
O8_3 C35_3 1_555 1_555
O9_3 C35_3 1_555 1_555
O10_2 C36_3 1_555 1_555
O11_2 C36_3 1_555 1_555
O14_3 Cd6_2 1_555 1_555
H27_3 O14_3 1_555 1_555
H28_3 O14_3 1_555 1_555
O16_2 Cd6_2 1_555 1_555
O18_2 Cd6_2 1_555 1_555
C10_3 N2_3 1_555 1_555
C21_3 C24_3 1_555 1_555
C23_3 N4_3 1_555 1_555
C29_3 N6_3 1_555 1_555
Cd6_2 O8_3 1_555 1_555
Cd6_2 O9_3 1_555 1_555
O6_3 H29_3 1_555 1_555
C2_3 C1_3 1_555 1_555
H2_3 C2_3 1_555 1_555
C3_3 C2_3 1_555 1_555
H3_3 C3_3 1_555 1_555
C4_3 C3_3 1_555 1_555
C5_3 C4_3 1_555 1_555
C6_3 C5_3 1_555 1_555
C7_3 C6_3 1_555 1_555
C8_3 C7_3 1_555 1_555
H4_3 C8_3 1_555 1_555
C11_3 C4_3 1_555 1_555
C12_3 C7_3 1_555 1_555
C16_3 C15_3 1_555 1_555
H9_3 C16_3 1_555 1_555
C17_3 C16_3 1_555 1_555
H10_3 C17_3 1_555 1_555
C18_3 C15_3 1_555 1_555
H11_3 C18_3 1_555 1_555
Cd4_2 N1_3 1_555 1_555
N1_3 C13_3 1_555 1_555
N3_3 C1_3 1_555 1_555
O1_3 C11_3 1_555 1_555
O2_3 C11_3 1_555 1_555
O3_2 C12_3 1_555 1_555
O4_2 C12_3 1_555 1_555
O7_3 Cd4_2 1_555 1_555
H13_3 O7_3 1_555 1_555
H14_3 O7_3 1_555 1_555
H16_3 C20_3 1_555 1_555
H25_3 C33_3 1_555 1_555
C34_3 C33_3 1_555 1_555
H26_3 C34_3 1_555 1_555
O13_3 N5_3 1_555 1_555
O15_2 Cd4_2 1_555 1_555
O17_2 Cd4_2 1_555 1_555
C5_3 N3_3 1_555 1_555
C17_3 N1_3 1_555 1_555
Cd4_2 O1_3 1_555 1_555
Cd4_2 O2_3 1_555 1_555
C34_3 N5_3 1_555 1_555
O13_3 H30_3 1_555 1_555
C1_4 H1_4 1_555 1_555
C2_4 C1_4 1_555 1_555
H2_4 C2_4 1_555 1_555
C3_4 C2_4 1_555 1_555
H3_4 C3_4 1_555 1_555
C4_4 C3_4 1_555 1_555
C5_4 C4_4 1_555 1_555
C6_4 C5_4 1_555 1_555
C7_4 C6_4 1_555 1_555
C8_4 C7_4 1_555 1_555
H4_4 C8_4 1_555 1_555
C9_4 C8_4 1_555 1_555
H5_4 C9_4 1_555 1_555
C10_4 C9_4 1_555 1_555
H6_4 C10_4 1_555 1_555
C11_4 C4_4 1_555 1_555
C12_4 C7_4 1_555 1_555
C13_4 H7_4 1_555 1_555
C14_4 C13_4 1_555 1_555
H8_4 C14_4 1_555 1_555
C15_4 C14_4 1_555 1_555
C16_4 C15_4 1_555 1_555
C17_4 C16_4 1_555 1_555
H10_4 C17_4 1_555 1_555
C18_4 C15_4 1_555 1_555
Cd4 N1_4 1_555 1_555
N1_4 C13_4 1_555 1_555
N2_4 C6_4 1_555 1_555
N3_4 C1_4 1_555 1_555
O1_4 C11_4 1_555 1_555
O2_4 C11_4 1_555 1_555
O15_2 C12_4 1_555 1_555
O17_2 C12_4 1_555 1_555
O19 N3_4 1_555 1_555
O6_4 N2_4 1_555 1_555
O7_4 Cd4 1_555 1_555
H13_4 O7_4 1_555 1_555
H14_4 O7_4 1_555 1_555
C5_4 N3_4 1_555 1_555
C10_4 N2_4 1_555 1_555
C17_4 N1_4 1_555 1_555
Cd4 O1_4 1_555 1_555
Cd4 O2_4 1_555 1_555
O6_4 H29_4 1_555 1_555
C19_4 H15_4 1_555 1_555
C20_4 C19_4 1_555 1_555
H16_4 C20_4 1_555 1_555
C21_4 C20_4 1_555 1_555
C22_4 C21_4 1_555 1_555
C23_4 C22_4 1_555 1_555
H18_4 C23_4 1_555 1_555
N4_4 C19_4 1_555 1_555
C25_4 H21_4 1_555 1_555
C26_4 C25_4 1_555 1_555
H22_4 C26_4 1_555 1_555
C27_4 C26_4 1_555 1_555
H23_4 C27_4 1_555 1_555
C28_4 C27_4 1_555 1_555
C29_4 C28_4 1_555 1_555
C30_4 C29_4 1_555 1_555
C31_4 C30_4 1_555 1_555
C32_4 C31_4 1_555 1_555
H24_4 C32_4 1_555 1_555
C33_4 C32_4 1_555 1_555
H25_4 C33_4 1_555 1_555
C34_4 C33_4 1_555 1_555
H26_4 C34_4 1_555 1_555
C35_4 C28_4 1_555 1_555
C36_4 C31_4 1_555 1_555
Cd6 N4_4 1_555 1_555
N5_4 C30_4 1_555 1_555
N6_4 C25_4 1_555 1_555
O8_4 C35_4 1_555 1_555
O9_4 C35_4 1_555 1_555
O16_2 C36_4 1_555 1_555
O18_2 C36_4 1_555 1_555
O20 N6_4 1_555 1_555
O13_4 N5_4 1_555 1_555
O14_4 Cd6 1_555 1_555
H27_4 O14_4 1_555 1_555
H28_4 O14_4 1_555 1_555
C21_4 C24_4 1_555 1_555
C23_4 N4_4 1_555 1_555
C29_4 N6_4 1_555 1_555
C34_4 N5_4 1_555 1_555
Cd6 O8_4 1_555 1_555
Cd6 O9_4 1_555 1_555
O13_4 H30_4 1_555 1_555
O13 H29_5 1_555 1_555
O6 H30_5 1_555 1_555
O6_2 H30_6 1_555 1_555
O13_2 H29_6 1_555 1_555
O6_3 H30_7 1_555 1_555
O13_3 H29_7 1_555 1_555
O6_4 H30_8 1_555 1_555
O13_4 H29_8 1_555 1_555

#END
