
###############################################################################
#
# This file contains modified crystal structure data generated from the
# MOF subset of the Cambridge Structural Database (CSD) v543 
# hosted by the Cambridge Crystallographic Data Centre (CCDC).
#
# This work is licensed under the Creative Commons
# Attribution-NonCommercial-ShareAlike 4.0 International License.
# To view a copy of this license, visit
# http://creativecommons.org/licenses/by-nc-sa/4.0/
# or send a letter to
# Creative Commons, PO Box 1866, Mountain View, CA 94042, USA.
#
# CIF created using the CSD Python API on 29 September 2022
# The structure has been converted into the P1 space group
# The structure has a 3D framework
# The original CSD entry FOVPEN is in the monoclinic crystal system
# The framework has been calculated to contain at least 10.0% void space
# The void calculation uses a probe of radius 1.32A, grid spacing 0.4
# The framework is charged, counterions have been retained in the structure
#
###############################################################################

data_FOVPEN
_chemical_formula_moiety         '(C496 H480 Ag24 F48 N96 O96 S16 8+)n'
_symmetry_cell_setting           triclinic
_symmetry_space_group_name_H-M   'P 1'
_symmetry_Int_Tables_number      1
_space_group_name_Hall           'P 1'
loop_
_symmetry_equiv_pos_site_id
_symmetry_equiv_pos_as_xyz
1 x,y,z
_cell_length_a                   30.0954(4)
_cell_length_b                   15.5048(2)
_cell_length_c                   35.4843(5)
_cell_angle_alpha                90
_cell_angle_beta                 107.1850(10)
_cell_angle_gamma                90
_cell_volume                     15818.6
loop_
_atom_site_label
_atom_site_type_symbol
_atom_site_fract_x
_atom_site_fract_y
_atom_site_fract_z
F3 F 0.0332(3) 0.3392(9) 0.1258(4)
F1 F 0.9727(3) 0.3267(5) 0.1464(2)
F2 F 0.9850(4) 0.4446(6) 0.1181(3)
S1 S 0.95401(9) 0.31245(15) 0.06953(8)
O1 O 0.9616(5) 0.2236(6) 0.0750(7)
O2 O 0.9085(3) 0.3447(6) 0.0660(2)
O3 O 0.9773(4) 0.3529(6) 0.0475(3)
C1 C 0.9877(5) 0.3579(10) 0.1200(6)
F1_2 F 0.0273(3) 0.3267(5) 0.3536(2)
F2_2 F 0.0150(4) 0.4446(6) 0.3819(3)
S1_2 S 0.04599(9) 0.31245(15) 0.43047(8)
O1_2 O 0.0384(5) 0.2236(6) 0.4250(7)
O2_2 O 0.0915(3) 0.3447(6) 0.4340(2)
O3_2 O 0.0227(4) 0.3529(6) 0.4525(3)
C1_2 C 0.0123(5) 0.3579(10) 0.3800(6)
F3_2 F 0.9668(3) 0.3392(9) 0.3742(4)
F1_3 F 0.4727(3) 0.8267(5) 0.1464(2)
F2_3 F 0.4850(4) 0.9446(6) 0.1181(3)
F3_3 F 0.5332(3) 0.8392(9) 0.1258(4)
S1_3 S 0.45401(9) 0.81245(15) 0.06953(8)
O1_3 O 0.4616(5) 0.7236(6) 0.0750(7)
O2_3 O 0.4085(3) 0.8447(6) 0.0660(2)
O3_3 O 0.4773(4) 0.8529(6) 0.0475(3)
C1_3 C 0.4877(5) 0.8579(10) 0.1200(6)
F1_4 F 0.5273(3) 0.8267(5) 0.3536(2)
F2_4 F 0.5150(4) 0.9446(6) 0.3819(3)
F3_4 F 0.4668(3) 0.8392(9) 0.3742(4)
S1_4 S 0.54599(9) 0.81245(15) 0.43047(8)
O1_4 O 0.5384(5) 0.7236(6) 0.4250(7)
O2_4 O 0.5915(3) 0.8447(6) 0.4340(2)
O3_4 O 0.5227(4) 0.8529(6) 0.4525(3)
C1_4 C 0.5123(5) 0.8579(10) 0.3800(6)
F1_5 F 0.0273(3) 0.6733(5) 0.8536(2)
F2_5 F 0.0150(4) 0.5554(6) 0.8819(3)
S1_5 S 0.04599(9) 0.68755(15) 0.93047(8)
O1_5 O 0.0384(5) 0.7764(6) 0.9250(7)
O2_5 O 0.0915(3) 0.6553(6) 0.9340(2)
O3_5 O 0.0227(4) 0.6471(6) 0.9525(3)
C1_5 C 0.0123(5) 0.6421(10) 0.8800(6)
F3_5 F 0.9668(3) 0.6608(9) 0.8742(4)
F3_6 F 0.0332(3) 0.6608(9) 0.6258(4)
F1_6 F 0.9727(3) 0.6733(5) 0.6464(2)
F2_6 F 0.9850(4) 0.5554(6) 0.6181(3)
S1_6 S 0.95401(9) 0.68755(15) 0.56953(8)
O1_6 O 0.9616(5) 0.7764(6) 0.5750(7)
O2_6 O 0.9085(3) 0.6553(6) 0.5660(2)
O3_6 O 0.9773(4) 0.6471(6) 0.5475(3)
C1_6 C 0.9877(5) 0.6421(10) 0.6200(6)
F1_7 F 0.5273(3) 0.1733(5) 0.8536(2)
F2_7 F 0.5150(4) 0.0554(6) 0.8819(3)
F3_7 F 0.4668(3) 0.1608(9) 0.8742(4)
S1_7 S 0.54599(9) 0.18755(15) 0.93047(8)
O1_7 O 0.5384(5) 0.2764(6) 0.9250(7)
O2_7 O 0.5915(3) 0.1553(6) 0.9340(2)
O3_7 O 0.5227(4) 0.1471(6) 0.9525(3)
C1_7 C 0.5123(5) 0.1421(10) 0.8800(6)
F1_8 F 0.4727(3) 0.1733(5) 0.6464(2)
F2_8 F 0.4850(4) 0.0554(6) 0.6181(3)
F3_8 F 0.5332(3) 0.1608(9) 0.6258(4)
S1_8 S 0.45401(9) 0.18755(15) 0.56953(8)
O1_8 O 0.4616(5) 0.2764(6) 0.5750(7)
O2_8 O 0.4085(3) 0.1553(6) 0.5660(2)
O3_8 O 0.4773(4) 0.1471(6) 0.5475(3)
C1_8 C 0.4877(5) 0.1421(10) 0.6200(6)
F4 F 0.4601(3) 0.2150(5) 0.21293(19)
F5 F 0.4484(2) 0.1421(4) 0.1599(2)
F6 F 0.5098(2) 0.2175(4) 0.1811(2)
S2 S 0.43498(8) 0.30802(14) 0.14949(6)
O4 O 0.3874(2) 0.2940(4) 0.1490(2)
O5 O 0.4566(2) 0.3806(4) 0.1714(2)
O6 O 0.4414(3) 0.2962(4) 0.11180(19)
C2 C 0.4650(3) 0.2160(6) 0.1774(3)
F4_2 F 0.5399(3) 0.2150(5) 0.28707(19)
F5_2 F 0.5516(2) 0.1421(4) 0.3401(2)
F6_2 F 0.4902(2) 0.2175(4) 0.3189(2)
S2_2 S 0.56502(8) 0.30802(14) 0.35051(6)
O4_2 O 0.6126(2) 0.2940(4) 0.3510(2)
O5_2 O 0.5434(2) 0.3806(4) 0.3286(2)
O6_2 O 0.5586(3) 0.2962(4) 0.38820(19)
C2_2 C 0.5350(3) 0.2160(6) 0.3226(3)
F6_3 F 0.0098(2) 0.7175(4) 0.1811(2)
F4_3 F 0.9601(3) 0.7150(5) 0.21293(19)
F5_3 F 0.9484(2) 0.6421(4) 0.1599(2)
S2_3 S 0.93498(8) 0.80802(14) 0.14949(6)
O4_3 O 0.8874(2) 0.7940(4) 0.1490(2)
O5_3 O 0.9566(2) 0.8806(4) 0.1714(2)
O6_3 O 0.9414(3) 0.7962(4) 0.11180(19)
C2_3 C 0.9650(3) 0.7160(6) 0.1774(3)
F4_4 F 0.0399(3) 0.7150(5) 0.28707(19)
F5_4 F 0.0516(2) 0.6421(4) 0.3401(2)
S2_4 S 0.06502(8) 0.80802(14) 0.35051(6)
O4_4 O 0.1126(2) 0.7940(4) 0.3510(2)
O5_4 O 0.0434(2) 0.8806(4) 0.3286(2)
O6_4 O 0.0586(3) 0.7962(4) 0.38820(19)
C2_4 C 0.0350(3) 0.7160(6) 0.3226(3)
F6_4 F 0.9902(2) 0.7175(4) 0.3189(2)
F4_5 F 0.5399(3) 0.7850(5) 0.78707(19)
F5_5 F 0.5516(2) 0.8579(4) 0.8401(2)
F6_5 F 0.4902(2) 0.7825(4) 0.8189(2)
S2_5 S 0.56502(8) 0.69198(14) 0.85051(6)
O4_5 O 0.6126(2) 0.7060(4) 0.8510(2)
O5_5 O 0.5434(2) 0.6194(4) 0.8286(2)
O6_5 O 0.5586(3) 0.7038(4) 0.88820(19)
C2_5 C 0.5350(3) 0.7840(6) 0.8226(3)
F4_6 F 0.4601(3) 0.7850(5) 0.71293(19)
F5_6 F 0.4484(2) 0.8579(4) 0.6599(2)
F6_6 F 0.5098(2) 0.7825(4) 0.6811(2)
S2_6 S 0.43498(8) 0.69198(14) 0.64949(6)
O4_6 O 0.3874(2) 0.7060(4) 0.6490(2)
O5_6 O 0.4566(2) 0.6194(4) 0.6714(2)
O6_6 O 0.4414(3) 0.7038(4) 0.61180(19)
C2_6 C 0.4650(3) 0.7840(6) 0.6774(3)
F4_7 F 0.0399(3) 0.2850(5) 0.78707(19)
F5_7 F 0.0516(2) 0.3579(4) 0.8401(2)
S2_7 S 0.06502(8) 0.19198(14) 0.85051(6)
O4_7 O 0.1126(2) 0.2060(4) 0.8510(2)
O5_7 O 0.0434(2) 0.1194(4) 0.8286(2)
O6_7 O 0.0586(3) 0.2038(4) 0.88820(19)
C2_7 C 0.0350(3) 0.2840(6) 0.8226(3)
F6_7 F 0.9902(2) 0.2825(4) 0.8189(2)
F6_8 F 0.0098(2) 0.2825(4) 0.6811(2)
F4_8 F 0.9601(3) 0.2850(5) 0.71293(19)
F5_8 F 0.9484(2) 0.3579(4) 0.6599(2)
S2_8 S 0.93498(8) 0.19198(14) 0.64949(6)
O4_8 O 0.8874(2) 0.2060(4) 0.6490(2)
O5_8 O 0.9566(2) 0.1194(4) 0.6714(2)
O6_8 O 0.9414(3) 0.2038(4) 0.61180(19)
C2_8 C 0.9650(3) 0.2840(6) 0.6774(3)
C43 C 0.2109(3) 0.0605(5) 0.9536(2)
H43 H 0.2304 0.1063 0.9666
C44 C 0.1790(3) 0.0773(5) 0.9189(2)
H44 H 0.1760 0.1336 0.9079
C45 C 0.1505(3) 0.0109(5) 0.8995(2)
H45 H 0.1277 0.0209 0.8749
Ag2 Ag 0.01351(2) 0.21643(4) 0.010187(19)
Ag3 Ag 0.27057(2) 0.48875(5) 0.27237(2)
O10 O 0.0745(2) 0.3471(4) 0.0188(2)
O11 O 0.2096(2) 0.7317(3) 0.06755(18)
O12 O 0.2343(2) 0.3398(3) 0.11451(17)
N5 N 0.0621(2) 0.1626(4) 0.06466(18)
N10 N 0.1592(2) 0.7268(4) 0.0064(2)
N11 N 0.3391(2) 0.4452(4) 0.27185(19)
N12 N 0.2557(2) 0.4656(4) 0.14610(19)
H6 H 0.2513 0.5217 0.1460
C23 C 0.0956(3) 0.2156(5) 0.0866(2)
H25 H 0.0966 0.2737 0.0784
C24 C 0.1278(3) 0.1884(6) 0.1196(3)
H26 H 0.1509 0.2273 0.1342
C25 C 0.1275(3) 0.1060(6) 0.1322(3)
H27 H 0.1502 0.0864 0.1553
C26 C 0.0936(3) 0.0516(6) 0.1105(3)
C27 C 0.0609(3) 0.0812(5) 0.0769(2)
C28 C 0.0219(3) 0.0240(5) 0.0542(2)
H30 H 0.0077 0.0490 0.0277
C40 C 0.0803(3) 0.4224(5) 0.0096(2)
C41 C 0.1235(3) 0.4712(4) 0.0316(2)
C42 C 0.1306(3) 0.5575(5) 0.0250(2)
H42 H 0.1076 0.5886 0.0056
H49 H 0.1757 0.8514 0.0211
C50 C 0.1815(3) 0.6915(5) 0.0410(2)
C51 C 0.1713(3) 0.5988(4) 0.0465(2)
C52 C 0.2037(3) 0.5530(4) 0.0750(2)
H51 H 0.2318 0.5805 0.0895
C53 C 0.3678(3) 0.4079(6) 0.3041(2)
H52 H 0.3570 0.3996 0.3264
C54 C 0.4117(3) 0.3814(6) 0.3063(3)
H53 H 0.4314 0.3567 0.3298
C55 C 0.4270(3) 0.3916(6) 0.2729(3)
H54 H 0.4569 0.3719 0.2729
C56 C 0.3983(3) 0.4299(6) 0.2405(3)
H55 H 0.4083 0.4384 0.2178
C57 C 0.3542(3) 0.4570(5) 0.2405(2)
C58 C 0.3212(3) 0.4965(5) 0.2042(2)
H56 H 0.3391 0.5261 0.1886
H57 H 0.3015 0.5399 0.2121
C59 C 0.2906(3) 0.4267(5) 0.1792(2)
H58 H 0.3101 0.3864 0.1693
H59 H 0.2751 0.3935 0.1956
C60 C 0.2302(3) 0.4186(5) 0.1157(2)
C61 C 0.1964(2) 0.4677(5) 0.0830(2)
C62 C 0.1563(3) 0.4268(5) 0.0604(2)
H60 H 0.1516 0.3675 0.0647
Ag4 Ag 0.26823(2) 0.96331(4) 0.026717(18)
N13 N 0.2055(2) 0.5596(5) 0.2586(2)
N7 N 0.9608(2) 0.2358(4) 0.95235(19)
H16 H 0.6763 0.0151 0.7122
C33 C 0.9207(3) 0.1920(5) 0.9456(2)
H34 H 0.9172 0.1536 0.9654
C34 C 0.8844(3) 0.2000(5) 0.9114(3)
H35 H 0.8571 0.1660 0.9071
C35 C 0.8887(3) 0.2575(6) 0.8838(3)
H36 H 0.8639 0.2660 0.8603
C36 C 0.9300(3) 0.3042(6) 0.8905(2)
H37 H 0.9337 0.3440 0.8713
C37 C 0.9651(3) 0.2928(5) 0.9246(2)
H40 H 0.9827 0.4627 0.9454
H41 H 0.9915 0.3978 0.9819
Ag5 Ag 0.77057(2) 0.01125(5) 0.77237(2)
N1 N 0.3141(2) 0.9184(4) 0.08135(18)
C3 C 0.2987(3) 0.8529(5) 0.0991(2)
H7 H 0.2703 0.8256 0.0854
C4 C 0.3224(3) 0.8236(6) 0.1363(3)
H8 H 0.3112 0.7756 0.1475
C5 C 0.3624(3) 0.8654(6) 0.1569(3)
H9 H 0.3788 0.8482 0.1830
C6 C 0.3784(3) 0.9322(6) 0.1393(3)
H10 H 0.4059 0.9619 0.1532
C7 C 0.3541(3) 0.9568(5) 0.1009(2)
Ag2_2 Ag 0.51351(2) 0.28357(4) 0.510187(19)
O7 O 0.3003(2) 0.8597(4) 0.50977(17)
O8 O 0.2710(2) 0.5218(4) 0.40634(18)
O9 O 0.41836(19) 0.4608(3) 0.50496(18)
O10_2 O 0.5745(2) 0.1529(4) 0.5188(2)
O12_2 O 0.7343(2) 0.1602(3) 0.61451(17)
N2 N 0.3559(2) 0.8160(4) 0.56352(19)
H1 H 0.3780 0.7785 0.5741
N4 N 0.2549(2) 0.6601(4) 0.3877(2)
H2 H 0.2621 0.7143 0.3939
N5_2 N 0.5621(2) 0.3374(4) 0.56466(18)
N6 N 0.4494(2) 0.5501(4) 0.55555(19)
H3 H 0.4489 0.6011 0.5663
N7_2 N 0.4608(2) 0.2642(4) 0.45235(19)
N8 N 0.5485(2) 0.0381(4) 0.48007(18)
N11_2 N 0.8391(2) 0.0548(4) 0.77185(19)
N12_2 N 0.7557(2) 0.0344(4) 0.64610(19)
C8 C 0.3701(3) 0.9702(5) 0.5802(2)
H11 H 0.3616 0.9822 0.5515
H12 H 0.4044 0.9648 0.5902
C9 C 0.3476(3) 0.8871(5) 0.5873(2)
H13 H 0.3137 0.8962 0.5813
H14 H 0.3599 0.8715 0.6156
C10 C 0.3307(3) 0.8069(5) 0.5261(2)
C11 C 0.3398(3) 0.7276(4) 0.5049(2)
C12 C 0.3762(3) 0.6726(4) 0.5213(2)
H15 H 0.3987 0.6881 0.5453
C13 C 0.1714(4) 0.5344(8) 0.2263(3)
H16_2 H 0.1763 0.4849 0.2122
C14 C 0.1300(4) 0.5781(9) 0.2131(4)
H17 H 0.1063 0.5585 0.1906
C15 C 0.1235(4) 0.6496(10) 0.2329(4)
H18 H 0.0951 0.6810 0.2242
C16 C 0.1587(3) 0.6769(7) 0.2662(3)
H19 H 0.1547 0.7271 0.2802
C17 C 0.1990(3) 0.6302(6) 0.2784(2)
C18 C 0.2365(3) 0.6542(6) 0.3149(2)
H20 H 0.2642 0.6177 0.3175
H21 H 0.2456 0.7152 0.3133
C19 C 0.2192(3) 0.6418(6) 0.3508(2)
H22 H 0.2084 0.5816 0.3513
H23 H 0.1923 0.6803 0.3485
C20 C 0.2775(3) 0.5993(5) 0.4126(2)
C21 C 0.3117(3) 0.6293(4) 0.4505(2)
C22 C 0.3079(3) 0.7067(4) 0.4692(2)
H24 H 0.2831 0.7453 0.4574
C23_2 C 0.5956(3) 0.2844(5) 0.5866(2)
H25_2 H 0.5966 0.2263 0.5784
C24_2 C 0.6278(3) 0.3116(6) 0.6196(3)
H26_2 H 0.6509 0.2727 0.6342
C25_2 C 0.6275(3) 0.3940(6) 0.6322(3)
H27_2 H 0.6502 0.4136 0.6553
C26_2 C 0.5936(3) 0.4484(6) 0.6105(3)
H28 H 0.5926 0.5066 0.6186
C27_2 C 0.5609(3) 0.4188(5) 0.5769(2)
C28_2 C 0.5219(3) 0.4760(5) 0.5542(2)
H29 H 0.5346 0.5333 0.5507
H30_2 H 0.5077 0.4510 0.5277
C29 C 0.4847(3) 0.4869(5) 0.5748(2)
H31 H 0.4996 0.5051 0.6024
H32 H 0.4695 0.4305 0.5754
C30 C 0.4183(3) 0.5303(5) 0.5218(2)
C31 C 0.3804(3) 0.5953(5) 0.5035(2)
C32 C 0.3474(3) 0.5734(5) 0.4682(2)
H33 H 0.3494 0.5195 0.4561
C33_2 C 0.4207(3) 0.3080(5) 0.4456(2)
H34_2 H 0.4172 0.3464 0.4654
C34_2 C 0.3844(3) 0.3000(5) 0.4114(3)
H35_2 H 0.3571 0.3340 0.4071
C35_2 C 0.3887(3) 0.2425(6) 0.3838(3)
H36_2 H 0.3639 0.2340 0.3603
C36_2 C 0.4300(3) 0.1958(6) 0.3905(2)
H37_2 H 0.4337 0.1560 0.3713
C37_2 C 0.4651(3) 0.2072(5) 0.4246(2)
C38 C 0.5092(3) 0.1551(5) 0.4346(2)
H38 H 0.5144 0.1326 0.4102
H39 H 0.5360 0.1918 0.4483
C39 C 0.5047(3) 0.0802(5) 0.4613(2)
H40_2 H 0.4827 0.0373 0.4454
H41_2 H 0.4915 0.1022 0.4819
C40_2 C 0.5803(3) 0.0776(5) 0.5096(2)
C41_2 C 0.6235(3) 0.0288(4) 0.5316(2)
C53_2 C 0.8678(3) 0.0921(6) 0.8041(2)
H52_2 H 0.8570 0.1004 0.8264
C54_2 C 0.9117(3) 0.1186(6) 0.8063(3)
H53_2 H 0.9314 0.1433 0.8298
C55_2 C 0.9270(3) 0.1084(6) 0.7729(3)
H54_2 H 0.9569 0.1281 0.7729
C56_2 C 0.8983(3) 0.0701(6) 0.7405(3)
H55_2 H 0.9083 0.0616 0.7178
C57_2 C 0.8542(3) 0.0430(5) 0.7405(2)
C58_2 C 0.8212(3) 0.0035(5) 0.7042(2)
C59_2 C 0.7906(3) 0.0733(5) 0.6792(2)
H58_2 H 0.8101 0.1136 0.6693
H59_2 H 0.7751 0.1065 0.6956
C60_2 C 0.7302(3) 0.0814(5) 0.6157(2)
C61_2 C 0.6964(2) 0.0323(5) 0.5830(2)
C62_2 C 0.6563(3) 0.0732(5) 0.5604(2)
H60_2 H 0.6516 0.1325 0.5647
N8_2 N 0.0485(2) 0.4619(4) 0.98007(18)
H4 H 0.0543 0.5134 0.9721
N9 N 0.2167(2) 0.9815(4) 0.97108(18)
H5 H 0.1410 0.6934 0.9882
C38_2 C 0.0092(3) 0.3449(5) 0.9346(2)
H38_2 H 0.0144 0.3674 0.9102
H39_2 H 0.0360 0.3082 0.9483
C39_2 C 0.0047(3) 0.4198(5) 0.9613(2)
C46 C 0.1558(3) 0.9305(5) 0.9163(3)
H46 H 0.1364 0.8843 0.9035
C47 C 0.1894(3) 0.9167(5) 0.9521(2)
C48 C 0.1946(3) 0.8279(5) 0.9705(3)
H47 H 0.2273 0.8189 0.9864
H48 H 0.1867 0.7837 0.9494
C49 C 0.1630(3) 0.8177(5) 0.9965(3)
H50 H 0.1318 0.8407 0.9826
H28_2 H 0.0926 0.9934 0.1186
H29_2 H 0.0346 0.9667 0.0507
O9_2 O 0.91836(19) 0.0392(3) 0.00496(18)
C29_2 C 0.9847(3) 0.0131(5) 0.0748(2)
H32_2 H 0.9695 0.0695 0.0754
Ag1 Ag 0.76823(2) 0.46331(4) 0.026717(18)
O7_2 O 0.8003(2) 0.6403(4) 0.00977(17)
N1_2 N 0.8141(2) 0.4184(4) 0.08135(18)
N2_2 N 0.8559(2) 0.6840(4) 0.06352(19)
H1_2 H 0.8780 0.7215 0.0741
N6_2 N 0.9494(2) 0.9499(4) 0.05555(19)
H3_2 H 0.9489 0.8989 0.0663
C3_2 C 0.7987(3) 0.3529(5) 0.0991(2)
H7_2 H 0.7703 0.3256 0.0854
C4_2 C 0.8224(3) 0.3236(6) 0.1363(3)
H8_2 H 0.8112 0.2756 0.1475
C5_2 C 0.8624(3) 0.3654(6) 0.1569(3)
H9_2 H 0.8788 0.3482 0.1830
C6_2 C 0.8784(3) 0.4322(6) 0.1393(3)
H10_2 H 0.9059 0.4619 0.1532
C7_2 C 0.8541(3) 0.4568(5) 0.1009(2)
C8_2 C 0.8701(3) 0.5298(5) 0.0802(2)
H11_2 H 0.8616 0.5178 0.0515
H12_2 H 0.9044 0.5352 0.0902
C9_2 C 0.8476(3) 0.6129(5) 0.0873(2)
H13_2 H 0.8137 0.6038 0.0813
H14_2 H 0.8599 0.6285 0.1156
C10_2 C 0.8307(3) 0.6931(5) 0.0261(2)
C11_2 C 0.8398(3) 0.7724(4) 0.0049(2)
C12_2 C 0.8762(3) 0.8274(4) 0.0213(2)
H15_2 H 0.8987 0.8119 0.0453
H31_2 H 0.9996 0.9949 0.1024
C30_2 C 0.9183(3) 0.9697(5) 0.0218(2)
C31_2 C 0.8804(3) 0.9047(5) 0.0035(2)
O8_2 O 0.7710(2) 0.9782(4) 0.90634(18)
N3 N 0.7055(2) 0.9404(5) 0.7586(2)
N4_2 N 0.7549(2) 0.8399(4) 0.8877(2)
H2_2 H 0.7621 0.7857 0.8939
C13_2 C 0.6714(4) 0.9656(8) 0.7263(3)
C14_2 C 0.6300(4) 0.9219(9) 0.7131(4)
H17_2 H 0.6063 0.9415 0.6906
C15_2 C 0.6235(4) 0.8504(10) 0.7329(4)
H18_2 H 0.5951 0.8190 0.7242
C16_2 C 0.6587(3) 0.8231(7) 0.7662(3)
H19_2 H 0.6547 0.7729 0.7802
C17_2 C 0.6990(3) 0.8698(6) 0.7784(2)
C18_2 C 0.7365(3) 0.8458(6) 0.8149(2)
H20_2 H 0.7642 0.8823 0.8175
H21_2 H 0.7456 0.7848 0.8133
C19_2 C 0.7192(3) 0.8582(6) 0.8508(2)
H22_2 H 0.7084 0.9184 0.8513
H23_2 H 0.6923 0.8197 0.8485
C20_2 C 0.7775(3) 0.9007(5) 0.9126(2)
C21_2 C 0.8117(3) 0.8707(4) 0.9505(2)
C22_2 C 0.8079(3) 0.7933(4) 0.9692(2)
H24_2 H 0.7831 0.7547 0.9574
C32_2 C 0.8474(3) 0.9266(5) 0.9682(2)
H33_2 H 0.8494 0.9805 0.9561
N14 N 0.7167(2) 0.4815(4) 0.97108(18)
O11_2 O 0.7096(2) 0.2317(3) 0.06755(18)
N10_2 N 0.6592(2) 0.2268(4) 0.0064(2)
H6_2 H 0.7513 0.0217 0.1460
C42_2 C 0.6306(3) 0.0575(5) 0.0250(2)
H42_2 H 0.6076 0.0886 0.0056
H49_2 H 0.6757 0.3514 0.0211
C50_2 C 0.6815(3) 0.1915(5) 0.0410(2)
C51_2 C 0.6713(3) 0.0988(4) 0.0465(2)
C52_2 C 0.7037(3) 0.0530(4) 0.0750(2)
H51_2 H 0.7318 0.0805 0.0895
H56_2 H 0.8391 0.0261 0.1886
H57_2 H 0.8015 0.0399 0.2121
N13_2 N 0.7055(2) 0.0596(5) 0.2586(2)
H4_2 H 0.5543 0.0134 0.9721
H5_2 H 0.6410 0.1934 0.9882
C43_2 C 0.7109(3) 0.5605(5) 0.9536(2)
H43_2 H 0.7304 0.6063 0.9666
C44_2 C 0.6790(3) 0.5773(5) 0.9189(2)
H44_2 H 0.6760 0.6336 0.9079
C45_2 C 0.6505(3) 0.5109(5) 0.8995(2)
H45_2 H 0.6277 0.5209 0.8749
C46_2 C 0.6558(3) 0.4305(5) 0.9163(3)
H46_2 H 0.6364 0.3843 0.9035
C47_2 C 0.6894(3) 0.4167(5) 0.9521(2)
C48_2 C 0.6946(3) 0.3279(5) 0.9705(3)
H47_2 H 0.7273 0.3189 0.9864
H48_2 H 0.6867 0.2837 0.9494
C49_2 C 0.6630(3) 0.3177(5) 0.9965(3)
H50_2 H 0.6318 0.3407 0.9826
Ag1_2 Ag 0.76823(2) 0.53669(4) 0.526717(18)
O7_3 O 0.8003(2) 0.3597(4) 0.50977(17)
O8_3 O 0.7710(2) 0.0218(4) 0.40634(18)
N1_3 N 0.8141(2) 0.5816(4) 0.58135(18)
N2_3 N 0.8559(2) 0.3160(4) 0.56352(19)
H1_3 H 0.8780 0.2785 0.5741
N4_3 N 0.7549(2) 0.1601(4) 0.3877(2)
H2_3 H 0.7621 0.2143 0.3939
N6_3 N 0.9494(2) 0.0501(4) 0.55555(19)
H3_3 H 0.9489 0.1011 0.5663
C3_3 C 0.7987(3) 0.6471(5) 0.5991(2)
H7_3 H 0.7703 0.6744 0.5854
C4_3 C 0.8224(3) 0.6764(6) 0.6363(3)
H8_3 H 0.8112 0.7244 0.6475
C5_3 C 0.8624(3) 0.6346(6) 0.6569(3)
H9_3 H 0.8788 0.6518 0.6830
C6_3 C 0.8784(3) 0.5678(6) 0.6393(3)
H10_3 H 0.9059 0.5381 0.6532
C7_3 C 0.8541(3) 0.5432(5) 0.6009(2)
C8_3 C 0.8701(3) 0.4702(5) 0.5802(2)
H11_3 H 0.8616 0.4822 0.5515
H12_3 H 0.9044 0.4648 0.5902
C9_3 C 0.8476(3) 0.3871(5) 0.5873(2)
H13_3 H 0.8137 0.3962 0.5813
H14_3 H 0.8599 0.3715 0.6156
C10_3 C 0.8307(3) 0.3069(5) 0.5261(2)
C11_3 C 0.8398(3) 0.2276(4) 0.5049(2)
C12_3 C 0.8762(3) 0.1726(4) 0.5213(2)
H15_3 H 0.8987 0.1881 0.5453
C13_3 C 0.6714(4) 0.0344(8) 0.2263(3)
C14_3 C 0.6300(4) 0.0781(9) 0.2131(4)
H17_3 H 0.6063 0.0585 0.1906
C15_3 C 0.6235(4) 0.1496(10) 0.2329(4)
H18_3 H 0.5951 0.1810 0.2242
C16_3 C 0.6587(3) 0.1769(7) 0.2662(3)
H19_3 H 0.6547 0.2271 0.2802
C17_3 C 0.6990(3) 0.1302(6) 0.2784(2)
C18_3 C 0.7365(3) 0.1542(6) 0.3149(2)
H20_3 H 0.7642 0.1177 0.3175
H21_3 H 0.7456 0.2152 0.3133
C19_3 C 0.7192(3) 0.1418(6) 0.3508(2)
H22_3 H 0.7084 0.0816 0.3513
H23_3 H 0.6923 0.1803 0.3485
C20_3 C 0.7775(3) 0.0993(5) 0.4126(2)
C21_3 C 0.8117(3) 0.1293(4) 0.4505(2)
C22_3 C 0.8079(3) 0.2067(4) 0.4692(2)
H24_3 H 0.7831 0.2453 0.4574
H31_3 H 0.9996 0.0051 0.6024
C30_3 C 0.9183(3) 0.0303(5) 0.5218(2)
C31_3 C 0.8804(3) 0.0953(5) 0.5035(2)
C32_3 C 0.8474(3) 0.0734(5) 0.4682(2)
H33_3 H 0.8494 0.0195 0.4561
N14_2 N 0.7167(2) 0.5185(4) 0.47108(18)
O11_3 O 0.7096(2) 0.7683(3) 0.56755(18)
H4_3 H 0.5543 0.9866 0.4721
N10_3 N 0.6592(2) 0.7732(4) 0.5064(2)
H5_3 H 0.6410 0.8066 0.4882
H6_3 H 0.7513 0.9783 0.6460
C42_3 C 0.6306(3) 0.9425(5) 0.5250(2)
H42_3 H 0.6076 0.9114 0.5056
C43_3 C 0.7109(3) 0.4395(5) 0.4536(2)
H43_3 H 0.7304 0.3937 0.4666
C44_3 C 0.6790(3) 0.4227(5) 0.4189(2)
H44_3 H 0.6760 0.3664 0.4079
C45_3 C 0.6505(3) 0.4891(5) 0.3995(2)
H45_3 H 0.6277 0.4791 0.3749
C46_3 C 0.6558(3) 0.5695(5) 0.4163(3)
H46_3 H 0.6364 0.6157 0.4035
C47_3 C 0.6894(3) 0.5833(5) 0.4521(2)
C48_3 C 0.6946(3) 0.6721(5) 0.4705(3)
H47_3 H 0.7273 0.6811 0.4864
H48_3 H 0.6867 0.7163 0.4494
C49_3 C 0.6630(3) 0.6823(5) 0.4965(3)
H49_3 H 0.6757 0.6486 0.5211
H50_3 H 0.6318 0.6593 0.4826
C50_3 C 0.6815(3) 0.8085(5) 0.5410(2)
C51_3 C 0.6713(3) 0.9012(4) 0.5465(2)
C52_3 C 0.7037(3) 0.9470(4) 0.5750(2)
H51_3 H 0.7318 0.9195 0.5895
H56_3 H 0.8391 0.9739 0.6886
H57_3 H 0.8015 0.9601 0.7121
O9_3 O 0.08164(19) 0.0392(3) 0.49504(18)
N7_3 N 0.0392(2) 0.2358(4) 0.54765(19)
H16_3 H 0.3237 0.0151 0.7878
C29_3 C 0.0153(3) 0.0131(5) 0.4252(2)
H32_3 H 0.0305 0.0695 0.4246
C33_3 C 0.0793(3) 0.1920(5) 0.5544(2)
H34_3 H 0.0828 0.1536 0.5346
C34_3 C 0.1156(3) 0.2000(5) 0.5886(3)
H35_3 H 0.1429 0.1660 0.5929
C35_3 C 0.1113(3) 0.2575(6) 0.6162(3)
H36_3 H 0.1361 0.2660 0.6397
C36_3 C 0.0700(3) 0.3042(6) 0.6095(2)
H37_3 H 0.0663 0.3440 0.6287
C37_3 C 0.0349(3) 0.2928(5) 0.5754(2)
H40_3 H 0.0173 0.4627 0.5546
H41_3 H 0.0085 0.3978 0.5181
Ag5_2 Ag 0.22943(2) 0.01125(5) 0.72763(2)
Ag2_3 Ag 0.48649(2) 0.28357(4) 0.989813(19)
O7_4 O 0.6997(2) 0.8597(4) 0.99023(17)
O9_4 O 0.58164(19) 0.4608(3) 0.99504(18)
O10_3 O 0.4255(2) 0.1529(4) 0.9812(2)
O12_3 O 0.2657(2) 0.1602(3) 0.88549(17)
N2_4 N 0.6441(2) 0.8160(4) 0.93648(19)
H1_4 H 0.6220 0.7785 0.9259
N5_3 N 0.4379(2) 0.3374(4) 0.93534(18)
N6_4 N 0.5506(2) 0.5501(4) 0.94445(19)
H3_4 H 0.5511 0.6011 0.9337
N11_3 N 0.1609(2) 0.0548(4) 0.72815(19)
N12_3 N 0.2443(2) 0.0344(4) 0.85390(19)
C8_4 C 0.6299(3) 0.9702(5) 0.9198(2)
H11_4 H 0.6384 0.9822 0.9485
H12_4 H 0.5956 0.9648 0.9098
C9_4 C 0.6524(3) 0.8871(5) 0.9127(2)
H13_4 H 0.6863 0.8962 0.9187
H14_4 H 0.6401 0.8715 0.8844
C10_4 C 0.6693(3) 0.8069(5) 0.9739(2)
C11_4 C 0.6602(3) 0.7276(4) 0.9951(2)
C12_4 C 0.6238(3) 0.6726(4) 0.9787(2)
H15_4 H 0.6013 0.6881 0.9547
C23_3 C 0.4044(3) 0.2844(5) 0.9134(2)
H25_3 H 0.4034 0.2263 0.9216
C24_3 C 0.3722(3) 0.3116(6) 0.8804(3)
H26_3 H 0.3491 0.2727 0.8658
C25_3 C 0.3725(3) 0.3940(6) 0.8678(3)
H27_3 H 0.3498 0.4136 0.8447
C26_3 C 0.4064(3) 0.4484(6) 0.8895(3)
H28_3 H 0.4074 0.5066 0.8814
C27_3 C 0.4391(3) 0.4188(5) 0.9231(2)
C28_3 C 0.4781(3) 0.4760(5) 0.9458(2)
H29_3 H 0.4654 0.5333 0.9493
H30_3 H 0.4923 0.4510 0.9723
C29_4 C 0.5153(3) 0.4869(5) 0.9252(2)
H31_4 H 0.5004 0.5051 0.8976
H32_4 H 0.5305 0.4305 0.9246
C30_4 C 0.5817(3) 0.5303(5) 0.9782(2)
C31_4 C 0.6196(3) 0.5953(5) 0.9965(2)
C40_3 C 0.4197(3) 0.0776(5) 0.9904(2)
C41_3 C 0.3765(3) 0.0288(4) 0.9684(2)
C53_3 C 0.1322(3) 0.0921(6) 0.6959(2)
H52_3 H 0.1430 0.1004 0.6736
C54_3 C 0.0883(3) 0.1186(6) 0.6937(3)
H53_3 H 0.0686 0.1433 0.6702
C55_3 C 0.0730(3) 0.1084(6) 0.7271(3)
H54_3 H 0.0431 0.1281 0.7271
C56_3 C 0.1017(3) 0.0701(6) 0.7595(3)
H55_3 H 0.0917 0.0616 0.7822
C57_3 C 0.1458(3) 0.0430(5) 0.7595(2)
C58_3 C 0.1788(3) 0.0035(5) 0.7958(2)
C59_3 C 0.2094(3) 0.0733(5) 0.8208(2)
H58_3 H 0.1899 0.1136 0.8307
H59_3 H 0.2249 0.1065 0.8044
C60_3 C 0.2698(3) 0.0814(5) 0.8843(2)
C61_3 C 0.3036(2) 0.0323(5) 0.9170(2)
C62_3 C 0.3437(3) 0.0732(5) 0.9396(2)
H60_3 H 0.3484 0.1325 0.9353
Ag1_3 Ag 0.23177(2) 0.46331(4) 0.473283(18)
O7_5 O 0.1997(2) 0.6403(4) 0.49023(17)
O8_4 O 0.2290(2) 0.9782(4) 0.59366(18)
N1_4 N 0.1859(2) 0.4184(4) 0.41865(18)
N2_5 N 0.1441(2) 0.6840(4) 0.43648(19)
H1_5 H 0.1220 0.7215 0.4259
N3_2 N 0.2945(2) 0.9404(5) 0.7414(2)
N4_4 N 0.2451(2) 0.8399(4) 0.6123(2)
H2_4 H 0.2379 0.7857 0.6061
N6_5 N 0.0506(2) 0.9499(4) 0.44445(19)
H3_5 H 0.0511 0.8989 0.4337
C3_4 C 0.2013(3) 0.3529(5) 0.4009(2)
H7_4 H 0.2297 0.3256 0.4146
C4_4 C 0.1776(3) 0.3236(6) 0.3637(3)
H8_4 H 0.1888 0.2756 0.3525
C5_4 C 0.1376(3) 0.3654(6) 0.3431(3)
H9_4 H 0.1212 0.3482 0.3170
C6_4 C 0.1216(3) 0.4322(6) 0.3607(3)
H10_4 H 0.0941 0.4619 0.3468
C7_4 C 0.1459(3) 0.4568(5) 0.3991(2)
C8_5 C 0.1299(3) 0.5298(5) 0.4198(2)
H11_5 H 0.1384 0.5178 0.4485
H12_5 H 0.0956 0.5352 0.4098
C9_5 C 0.1524(3) 0.6129(5) 0.4127(2)
H13_5 H 0.1863 0.6038 0.4187
H14_5 H 0.1401 0.6285 0.3844
C10_5 C 0.1693(3) 0.6931(5) 0.4739(2)
C11_5 C 0.1602(3) 0.7724(4) 0.4951(2)
C12_5 C 0.1238(3) 0.8274(4) 0.4787(2)
H15_5 H 0.1013 0.8119 0.4547
C13_4 C 0.3286(4) 0.9656(8) 0.7737(3)
C14_4 C 0.3700(4) 0.9219(9) 0.7869(4)
H17_4 H 0.3937 0.9415 0.8094
C15_4 C 0.3765(4) 0.8504(10) 0.7671(4)
H18_4 H 0.4049 0.8190 0.7758
C16_4 C 0.3413(3) 0.8231(7) 0.7338(3)
H19_4 H 0.3453 0.7729 0.7198
C17_4 C 0.3010(3) 0.8698(6) 0.7216(2)
C18_4 C 0.2635(3) 0.8458(6) 0.6851(2)
H20_4 H 0.2358 0.8823 0.6825
H21_4 H 0.2544 0.7848 0.6867
C19_4 C 0.2808(3) 0.8582(6) 0.6492(2)
H22_4 H 0.2916 0.9184 0.6487
H23_4 H 0.3077 0.8197 0.6515
C20_4 C 0.2225(3) 0.9007(5) 0.5874(2)
C21_4 C 0.1883(3) 0.8707(4) 0.5495(2)
C22_4 C 0.1921(3) 0.7933(4) 0.5308(2)
H24_4 H 0.2169 0.7547 0.5426
H31_5 H 0.0004 0.9949 0.3976
C30_5 C 0.0817(3) 0.9697(5) 0.4782(2)
C31_5 C 0.1196(3) 0.9047(5) 0.4965(2)
C32_4 C 0.1526(3) 0.9266(5) 0.5318(2)
H33_4 H 0.1506 0.9805 0.5439
N14_3 N 0.2833(2) 0.4815(4) 0.52892(18)
O11_4 O 0.2904(2) 0.2317(3) 0.43245(18)
H4_4 H 0.4457 0.0134 0.5279
N10_4 N 0.3408(2) 0.2268(4) 0.4936(2)
H5_4 H 0.3590 0.1934 0.5118
H6_4 H 0.2487 0.0217 0.3540
C42_4 C 0.3694(3) 0.0575(5) 0.4750(2)
H42_4 H 0.3924 0.0886 0.4944
C43_4 C 0.2891(3) 0.5605(5) 0.5464(2)
H43_4 H 0.2696 0.6063 0.5334
C44_4 C 0.3210(3) 0.5773(5) 0.5811(2)
H44_4 H 0.3240 0.6336 0.5921
C45_4 C 0.3495(3) 0.5109(5) 0.6005(2)
H45_4 H 0.3723 0.5209 0.6251
C46_4 C 0.3442(3) 0.4305(5) 0.5837(3)
H46_4 H 0.3636 0.3843 0.5965
C47_4 C 0.3106(3) 0.4167(5) 0.5479(2)
C48_4 C 0.3054(3) 0.3279(5) 0.5295(3)
H47_4 H 0.2727 0.3189 0.5136
H48_4 H 0.3133 0.2837 0.5506
C49_4 C 0.3370(3) 0.3177(5) 0.5035(3)
H49_4 H 0.3243 0.3514 0.4789
H50_4 H 0.3682 0.3407 0.5174
C50_4 C 0.3185(3) 0.1915(5) 0.4590(2)
C51_4 C 0.3287(3) 0.0988(4) 0.4535(2)
C52_4 C 0.2963(3) 0.0530(4) 0.4250(2)
H51_4 H 0.2682 0.0805 0.4105
H56_4 H 0.1609 0.0261 0.3114
H57_4 H 0.1985 0.0399 0.2879
N13_3 N 0.2945(2) 0.0596(5) 0.2414(2)
O8_5 O 0.2290(2) 0.0218(4) 0.09366(18)
N4_5 N 0.2451(2) 0.1601(4) 0.1123(2)
H2_5 H 0.2379 0.2143 0.1061
C13_5 C 0.3286(4) 0.0344(8) 0.2737(3)
C14_5 C 0.3700(4) 0.0781(9) 0.2869(4)
H17_5 H 0.3937 0.0585 0.3094
C15_5 C 0.3765(4) 0.1496(10) 0.2671(4)
H18_5 H 0.4049 0.1810 0.2758
C16_5 C 0.3413(3) 0.1769(7) 0.2338(3)
H19_5 H 0.3453 0.2271 0.2198
C17_5 C 0.3010(3) 0.1302(6) 0.2216(2)
C18_5 C 0.2635(3) 0.1542(6) 0.1851(2)
H20_5 H 0.2358 0.1177 0.1825
H21_5 H 0.2544 0.2152 0.1867
C19_5 C 0.2808(3) 0.1418(6) 0.1492(2)
H22_5 H 0.2916 0.0816 0.1487
H23_5 H 0.3077 0.1803 0.1515
C20_5 C 0.2225(3) 0.0993(5) 0.0874(2)
C21_5 C 0.1883(3) 0.1293(4) 0.0495(2)
C22_5 C 0.1921(3) 0.2067(4) 0.0308(2)
H24_5 H 0.2169 0.2453 0.0426
C32_5 C 0.1526(3) 0.0734(5) 0.0318(2)
H33_5 H 0.1506 0.0195 0.0439
N14_4 N 0.2833(2) 0.5185(4) 0.02892(18)
Ag1_4 Ag 0.23177(2) 0.53669(4) 0.973283(18)
O7_6 O 0.1997(2) 0.3597(4) 0.99023(17)
N1_5 N 0.1859(2) 0.5816(4) 0.91865(18)
N2_6 N 0.1441(2) 0.3160(4) 0.93648(19)
H1_6 H 0.1220 0.2785 0.9259
N6_6 N 0.0506(2) 0.0501(4) 0.94445(19)
H3_6 H 0.0511 0.1011 0.9337
C3_5 C 0.2013(3) 0.6471(5) 0.9009(2)
H7_5 H 0.2297 0.6744 0.9146
C4_5 C 0.1776(3) 0.6764(6) 0.8637(3)
H8_5 H 0.1888 0.7244 0.8525
C5_5 C 0.1376(3) 0.6346(6) 0.8431(3)
H9_5 H 0.1212 0.6518 0.8170
C6_5 C 0.1216(3) 0.5678(6) 0.8607(3)
H10_5 H 0.0941 0.5381 0.8468
C7_5 C 0.1459(3) 0.5432(5) 0.8991(2)
C8_6 C 0.1299(3) 0.4702(5) 0.9198(2)
H11_6 H 0.1384 0.4822 0.9485
H12_6 H 0.0956 0.4648 0.9098
C9_6 C 0.1524(3) 0.3871(5) 0.9127(2)
H13_6 H 0.1863 0.3962 0.9187
H14_6 H 0.1401 0.3715 0.8844
C10_6 C 0.1693(3) 0.3069(5) 0.9739(2)
C11_6 C 0.1602(3) 0.2276(4) 0.9951(2)
C12_6 C 0.1238(3) 0.1726(4) 0.9787(2)
H15_6 H 0.1013 0.1881 0.9547
H31_6 H 0.0004 0.0051 0.8976
C30_6 C 0.0817(3) 0.0303(5) 0.9782(2)
C31_6 C 0.1196(3) 0.0953(5) 0.9965(2)
H4_5 H 0.4457 0.9866 0.0279
H5_5 H 0.3590 0.8066 0.0118
C43_5 C 0.2891(3) 0.4395(5) 0.0464(2)
H43_5 H 0.2696 0.3937 0.0334
C44_5 C 0.3210(3) 0.4227(5) 0.0811(2)
H44_5 H 0.3240 0.3664 0.0921
C45_5 C 0.3495(3) 0.4891(5) 0.1005(2)
H45_5 H 0.3723 0.4791 0.1251
C46_5 C 0.3442(3) 0.5695(5) 0.0837(3)
H46_5 H 0.3636 0.6157 0.0965
C47_5 C 0.3106(3) 0.5833(5) 0.0479(2)
C48_5 C 0.3054(3) 0.6721(5) 0.0295(3)
H47_5 H 0.2727 0.6811 0.0136
H48_5 H 0.3133 0.7163 0.0506
C49_5 C 0.3370(3) 0.6823(5) 0.0035(3)
H50_5 H 0.3682 0.6593 0.0174
O11_5 O 0.2904(2) 0.7683(3) 0.93245(18)
N10_5 N 0.3408(2) 0.7732(4) 0.9936(2)
H6_5 H 0.2487 0.9783 0.8540
C42_5 C 0.3694(3) 0.9425(5) 0.9750(2)
H42_5 H 0.3924 0.9114 0.9944
H49_5 H 0.3243 0.6486 0.9789
C50_5 C 0.3185(3) 0.8085(5) 0.9590(2)
C51_5 C 0.3287(3) 0.9012(4) 0.9535(2)
C52_5 C 0.2963(3) 0.9470(4) 0.9250(2)
H51_5 H 0.2682 0.9195 0.9105
H56_5 H 0.1609 0.9739 0.8114
H57_5 H 0.1985 0.9601 0.7879
C43_6 C 0.7891(3) 0.0605(5) 0.5464(2)
H43_6 H 0.7696 0.1063 0.5334
C44_6 C 0.8210(3) 0.0773(5) 0.5811(2)
H44_6 H 0.8240 0.1336 0.5921
C45_6 C 0.8495(3) 0.0109(5) 0.6005(2)
H45_6 H 0.8723 0.0209 0.6251
Ag2_4 Ag 0.98649(2) 0.21643(4) 0.489813(19)
Ag3_2 Ag 0.72943(2) 0.48875(5) 0.22763(2)
O10_4 O 0.9255(2) 0.3471(4) 0.4812(2)
O11_6 O 0.7904(2) 0.7317(3) 0.43245(18)
O12_4 O 0.7657(2) 0.3398(3) 0.38549(17)
N5_4 N 0.9379(2) 0.1626(4) 0.43534(18)
N8_3 N 0.9515(2) 0.4619(4) 0.51993(18)
H4_6 H 0.9457 0.5134 0.5279
N9_2 N 0.7833(2) 0.9815(4) 0.52892(18)
N10_6 N 0.8408(2) 0.7268(4) 0.4936(2)
H5_6 H 0.8590 0.6934 0.5118
N11_4 N 0.6609(2) 0.4452(4) 0.22815(19)
N12_4 N 0.7443(2) 0.4656(4) 0.35390(19)
H6_6 H 0.7487 0.5217 0.3540
C23_4 C 0.9044(3) 0.2156(5) 0.4134(2)
H25_4 H 0.9034 0.2737 0.4216
C24_4 C 0.8722(3) 0.1884(6) 0.3804(3)
H26_4 H 0.8491 0.2273 0.3658
C25_4 C 0.8725(3) 0.1060(6) 0.3678(3)
H27_4 H 0.8498 0.0864 0.3447
C26_4 C 0.9064(3) 0.0516(6) 0.3895(3)
C27_4 C 0.9391(3) 0.0812(5) 0.4231(2)
C28_4 C 0.9781(3) 0.0240(5) 0.4458(2)
H30_4 H 0.9923 0.0490 0.4723
C38_3 C 0.9908(3) 0.3449(5) 0.5654(2)
H38_3 H 0.9856 0.3674 0.5898
H39_3 H 0.9640 0.3082 0.5517
C39_3 C 0.9953(3) 0.4198(5) 0.5387(2)
C40_4 C 0.9197(3) 0.4224(5) 0.4904(2)
C41_4 C 0.8765(3) 0.4712(4) 0.4684(2)
C42_6 C 0.8694(3) 0.5575(5) 0.4750(2)
H42_6 H 0.8924 0.5886 0.4944
C46_6 C 0.8442(3) 0.9305(5) 0.5837(3)
H46_6 H 0.8636 0.8843 0.5965
C47_6 C 0.8106(3) 0.9167(5) 0.5479(2)
C48_6 C 0.8054(3) 0.8279(5) 0.5295(3)
H47_6 H 0.7727 0.8189 0.5136
H48_6 H 0.8133 0.7837 0.5506
C49_6 C 0.8370(3) 0.8177(5) 0.5035(3)
H49_6 H 0.8243 0.8514 0.4789
H50_6 H 0.8682 0.8407 0.5174
C50_6 C 0.8185(3) 0.6915(5) 0.4590(2)
C51_6 C 0.8287(3) 0.5988(4) 0.4535(2)
C52_6 C 0.7963(3) 0.5530(4) 0.4250(2)
H51_6 H 0.7682 0.5805 0.4105
C53_4 C 0.6322(3) 0.4079(6) 0.1959(2)
H52_4 H 0.6430 0.3996 0.1736
C54_4 C 0.5883(3) 0.3814(6) 0.1937(3)
H53_4 H 0.5686 0.3567 0.1702
C55_4 C 0.5730(3) 0.3916(6) 0.2271(3)
H54_4 H 0.5431 0.3719 0.2271
C56_4 C 0.6017(3) 0.4299(6) 0.2595(3)
H55_4 H 0.5917 0.4384 0.2822
C57_4 C 0.6458(3) 0.4570(5) 0.2595(2)
C58_4 C 0.6788(3) 0.4965(5) 0.2958(2)
H56_6 H 0.6609 0.5261 0.3114
H57_6 H 0.6985 0.5399 0.2879
C59_4 C 0.7094(3) 0.4267(5) 0.3208(2)
H58_4 H 0.6899 0.3864 0.3307
H59_4 H 0.7249 0.3935 0.3044
C60_4 C 0.7698(3) 0.4186(5) 0.3843(2)
C61_4 C 0.8036(2) 0.4677(5) 0.4170(2)
C62_4 C 0.8437(3) 0.4268(5) 0.4396(2)
H60_4 H 0.8484 0.3675 0.4353
Ag4_2 Ag 0.73177(2) 0.96331(4) 0.473283(18)
N13_4 N 0.7945(2) 0.5596(5) 0.2414(2)
N1_6 N 0.6859(2) 0.9184(4) 0.41865(18)
C3_6 C 0.7013(3) 0.8529(5) 0.4009(2)
H7_6 H 0.7297 0.8256 0.4146
C4_6 C 0.6776(3) 0.8236(6) 0.3637(3)
H8_6 H 0.6888 0.7756 0.3525
C5_6 C 0.6376(3) 0.8654(6) 0.3431(3)
H9_6 H 0.6212 0.8482 0.3170
C6_6 C 0.6216(3) 0.9322(6) 0.3607(3)
H10_6 H 0.5941 0.9619 0.3468
C7_6 C 0.6459(3) 0.9568(5) 0.3991(2)
O8_6 O 0.7290(2) 0.5218(4) 0.09366(18)
N4_6 N 0.7451(2) 0.6601(4) 0.1123(2)
H2_6 H 0.7379 0.7143 0.1061
N7_4 N 0.5392(2) 0.2642(4) 0.04765(19)
N8_4 N 0.4515(2) 0.0381(4) 0.01993(18)
C13_6 C 0.8286(4) 0.5344(8) 0.2737(3)
H16_4 H 0.8237 0.4849 0.2878
C14_6 C 0.8700(4) 0.5781(9) 0.2869(4)
H17_6 H 0.8937 0.5585 0.3094
C15_6 C 0.8765(4) 0.6496(10) 0.2671(4)
H18_6 H 0.9049 0.6810 0.2758
C16_6 C 0.8413(3) 0.6769(7) 0.2338(3)
H19_6 H 0.8453 0.7271 0.2198
C17_6 C 0.8010(3) 0.6302(6) 0.2216(2)
C18_6 C 0.7635(3) 0.6542(6) 0.1851(2)
H20_6 H 0.7358 0.6177 0.1825
H21_6 H 0.7544 0.7152 0.1867
C19_6 C 0.7808(3) 0.6418(6) 0.1492(2)
H22_6 H 0.7916 0.5816 0.1487
H23_6 H 0.8077 0.6803 0.1515
C20_6 C 0.7225(3) 0.5993(5) 0.0874(2)
C21_6 C 0.6883(3) 0.6293(4) 0.0495(2)
C22_6 C 0.6921(3) 0.7067(4) 0.0308(2)
H24_6 H 0.7169 0.7453 0.0426
C32_6 C 0.6526(3) 0.5734(5) 0.0318(2)
H33_6 H 0.6506 0.5195 0.0439
C33_4 C 0.5793(3) 0.3080(5) 0.0544(2)
H34_4 H 0.5828 0.3464 0.0346
C34_4 C 0.6156(3) 0.3000(5) 0.0886(3)
H35_4 H 0.6429 0.3340 0.0929
C35_4 C 0.6113(3) 0.2425(6) 0.1162(3)
H36_4 H 0.6361 0.2340 0.1397
C36_4 C 0.5700(3) 0.1958(6) 0.1095(2)
H37_4 H 0.5663 0.1560 0.1287
C37_4 C 0.5349(3) 0.2072(5) 0.0754(2)
C38_4 C 0.4908(3) 0.1551(5) 0.0654(2)
H38_4 H 0.4856 0.1326 0.0898
H39_4 H 0.4640 0.1918 0.0517
C39_4 C 0.4953(3) 0.0802(5) 0.0387(2)
H40_4 H 0.5173 0.0373 0.0546
H41_4 H 0.5085 0.1022 0.0181
H28_4 H 0.9074 0.9934 0.3814
H29_4 H 0.9654 0.9667 0.4493
Ag2_5 Ag 0.51351(2) 0.71643(4) 0.010187(19)
Ag3_3 Ag 0.77057(2) 0.98875(5) 0.27237(2)
O7_7 O 0.3003(2) 0.1403(4) 0.00977(17)
O9_5 O 0.41836(19) 0.5392(3) 0.00496(18)
O10_5 O 0.5745(2) 0.8471(4) 0.0188(2)
O12_5 O 0.7343(2) 0.8398(3) 0.11451(17)
N2_7 N 0.3559(2) 0.1840(4) 0.06352(19)
H1_7 H 0.3780 0.2215 0.0741
N5_5 N 0.5621(2) 0.6626(4) 0.06466(18)
N6_7 N 0.4494(2) 0.4499(4) 0.05555(19)
H3_7 H 0.4489 0.3989 0.0663
N11_5 N 0.8391(2) 0.9452(4) 0.27185(19)
N12_5 N 0.7557(2) 0.9656(4) 0.14610(19)
C8_7 C 0.3701(3) 0.0298(5) 0.0802(2)
H11_7 H 0.3616 0.0178 0.0515
H12_7 H 0.4044 0.0352 0.0902
C9_7 C 0.3476(3) 0.1129(5) 0.0873(2)
H13_7 H 0.3137 0.1038 0.0813
H14_7 H 0.3599 0.1285 0.1156
C10_7 C 0.3307(3) 0.1931(5) 0.0261(2)
C11_7 C 0.3398(3) 0.2724(4) 0.0049(2)
C12_7 C 0.3762(3) 0.3274(4) 0.0213(2)
H15_7 H 0.3987 0.3119 0.0453
C23_5 C 0.5956(3) 0.7156(5) 0.0866(2)
H25_5 H 0.5966 0.7737 0.0784
C24_5 C 0.6278(3) 0.6884(6) 0.1196(3)
H26_5 H 0.6509 0.7273 0.1342
C25_5 C 0.6275(3) 0.6060(6) 0.1322(3)
H27_5 H 0.6502 0.5864 0.1553
C26_5 C 0.5936(3) 0.5516(6) 0.1105(3)
H28_5 H 0.5926 0.4934 0.1186
C27_5 C 0.5609(3) 0.5812(5) 0.0769(2)
C28_5 C 0.5219(3) 0.5240(5) 0.0542(2)
H29_5 H 0.5346 0.4667 0.0507
H30_5 H 0.5077 0.5490 0.0277
C29_5 C 0.4847(3) 0.5131(5) 0.0748(2)
H31_7 H 0.4996 0.4949 0.1024
H32_5 H 0.4695 0.5695 0.0754
C30_7 C 0.4183(3) 0.4697(5) 0.0218(2)
C31_7 C 0.3804(3) 0.4047(5) 0.0035(2)
C40_5 C 0.5803(3) 0.9224(5) 0.0096(2)
C41_5 C 0.6235(3) 0.9712(4) 0.0316(2)
C53_5 C 0.8678(3) 0.9079(6) 0.3041(2)
H52_5 H 0.8570 0.8996 0.3264
C54_5 C 0.9117(3) 0.8814(6) 0.3063(3)
H53_5 H 0.9314 0.8567 0.3298
C55_5 C 0.9270(3) 0.8916(6) 0.2729(3)
H54_5 H 0.9569 0.8719 0.2729
C56_5 C 0.8983(3) 0.9299(6) 0.2405(3)
H55_5 H 0.9083 0.9384 0.2178
C57_5 C 0.8542(3) 0.9570(5) 0.2405(2)
C58_5 C 0.8212(3) 0.9965(5) 0.2042(2)
C59_5 C 0.7906(3) 0.9267(5) 0.1792(2)
H58_5 H 0.8101 0.8864 0.1693
H59_5 H 0.7751 0.8935 0.1956
C60_5 C 0.7302(3) 0.9186(5) 0.1157(2)
C61_5 C 0.6964(2) 0.9677(5) 0.0830(2)
C62_5 C 0.6563(3) 0.9268(5) 0.0604(2)
H60_5 H 0.6516 0.8675 0.0647
O9_6 O 0.91836(19) 0.9608(3) 0.50496(18)
N7_5 N 0.9608(2) 0.7642(4) 0.45235(19)
H16_5 H 0.6763 0.9849 0.2122
C29_6 C 0.9847(3) 0.9869(5) 0.5748(2)
H32_6 H 0.9695 0.9305 0.5754
C33_5 C 0.9207(3) 0.8080(5) 0.4456(2)
H34_5 H 0.9172 0.8464 0.4654
C34_5 C 0.8844(3) 0.8000(5) 0.4114(3)
H35_5 H 0.8571 0.8340 0.4071
C35_5 C 0.8887(3) 0.7425(6) 0.3838(3)
H36_5 H 0.8639 0.7340 0.3603
C36_5 C 0.9300(3) 0.6958(6) 0.3905(2)
H37_5 H 0.9337 0.6560 0.3713
C37_5 C 0.9651(3) 0.7072(5) 0.4246(2)
H40_5 H 0.9827 0.5373 0.4454
H41_5 H 0.9915 0.6022 0.4819
O8_7 O 0.2710(2) 0.4782(4) 0.90634(18)
N3_3 N 0.2055(2) 0.4404(5) 0.7586(2)
N4_7 N 0.2549(2) 0.3399(4) 0.8877(2)
H2_7 H 0.2621 0.2857 0.8939
N7_6 N 0.4608(2) 0.7358(4) 0.95235(19)
N8_5 N 0.5485(2) 0.9619(4) 0.98007(18)
C13_7 C 0.1714(4) 0.4656(8) 0.7263(3)
H16_6 H 0.1763 0.5151 0.7122
C14_7 C 0.1300(4) 0.4219(9) 0.7131(4)
H17_7 H 0.1063 0.4415 0.6906
C15_7 C 0.1235(4) 0.3504(10) 0.7329(4)
H18_7 H 0.0951 0.3190 0.7242
C16_7 C 0.1587(3) 0.3231(7) 0.7662(3)
H19_7 H 0.1547 0.2729 0.7802
C17_7 C 0.1990(3) 0.3698(6) 0.7784(2)
C18_7 C 0.2365(3) 0.3458(6) 0.8149(2)
H20_7 H 0.2642 0.3823 0.8175
H21_7 H 0.2456 0.2848 0.8133
C19_7 C 0.2192(3) 0.3582(6) 0.8508(2)
H22_7 H 0.2084 0.4184 0.8513
H23_7 H 0.1923 0.3197 0.8485
C20_7 C 0.2775(3) 0.4007(5) 0.9126(2)
C21_7 C 0.3117(3) 0.3707(4) 0.9505(2)
C22_7 C 0.3079(3) 0.2933(4) 0.9692(2)
H24_7 H 0.2831 0.2547 0.9574
C32_7 C 0.3474(3) 0.4266(5) 0.9682(2)
H33_7 H 0.3494 0.4805 0.9561
C33_6 C 0.4207(3) 0.6920(5) 0.9456(2)
H34_6 H 0.4172 0.6536 0.9654
C34_6 C 0.3844(3) 0.7000(5) 0.9114(3)
H35_6 H 0.3571 0.6660 0.9071
C35_6 C 0.3887(3) 0.7575(6) 0.8838(3)
H36_6 H 0.3639 0.7660 0.8603
C36_6 C 0.4300(3) 0.8042(6) 0.8905(2)
H37_6 H 0.4337 0.8440 0.8713
C37_6 C 0.4651(3) 0.7928(5) 0.9246(2)
C38_5 C 0.5092(3) 0.8449(5) 0.9346(2)
H38_5 H 0.5144 0.8674 0.9102
H39_5 H 0.5360 0.8082 0.9483
C39_5 C 0.5047(3) 0.9198(5) 0.9613(2)
H40_6 H 0.4827 0.9627 0.9454
H41_6 H 0.4915 0.8978 0.9819
Ag5_3 Ag 0.27057(2) 0.51125(5) 0.77237(2)
Ag2_6 Ag 0.01351(2) 0.78357(4) 0.510187(19)
O10_6 O 0.0745(2) 0.6529(4) 0.5188(2)
O11_7 O 0.2096(2) 0.2683(3) 0.56755(18)
O12_6 O 0.2343(2) 0.6602(3) 0.61451(17)
N5_6 N 0.0621(2) 0.8374(4) 0.56466(18)
N8_6 N 0.0485(2) 0.5381(4) 0.48007(18)
H4_7 H 0.0543 0.4866 0.4721
N9_3 N 0.2167(2) 0.0185(4) 0.47108(18)
N10_7 N 0.1592(2) 0.2732(4) 0.5064(2)
H5_7 H 0.1410 0.3066 0.4882
N11_6 N 0.3391(2) 0.5548(4) 0.77185(19)
N12_6 N 0.2557(2) 0.5344(4) 0.64610(19)
H6_7 H 0.2513 0.4783 0.6460
C23_6 C 0.0956(3) 0.7844(5) 0.5866(2)
H25_6 H 0.0966 0.7263 0.5784
C24_6 C 0.1278(3) 0.8116(6) 0.6196(3)
H26_6 H 0.1509 0.7727 0.6342
C25_6 C 0.1275(3) 0.8940(6) 0.6322(3)
H27_6 H 0.1502 0.9136 0.6553
C26_6 C 0.0936(3) 0.9484(6) 0.6105(3)
C27_6 C 0.0609(3) 0.9188(5) 0.5769(2)
C28_6 C 0.0219(3) 0.9760(5) 0.5542(2)
H30_6 H 0.0077 0.9510 0.5277
C38_6 C 0.0092(3) 0.6551(5) 0.4346(2)
H38_6 H 0.0144 0.6326 0.4102
H39_6 H 0.0360 0.6918 0.4483
C39_6 C 0.0047(3) 0.5802(5) 0.4613(2)
C40_6 C 0.0803(3) 0.5776(5) 0.5096(2)
C41_6 C 0.1235(3) 0.5288(4) 0.5316(2)
C42_7 C 0.1306(3) 0.4425(5) 0.5250(2)
H42_7 H 0.1076 0.4114 0.5056
C46_7 C 0.1558(3) 0.0695(5) 0.4163(3)
H46_7 H 0.1364 0.1157 0.4035
C47_7 C 0.1894(3) 0.0833(5) 0.4521(2)
C48_7 C 0.1946(3) 0.1721(5) 0.4705(3)
H47_7 H 0.2273 0.1811 0.4864
H48_7 H 0.1867 0.2163 0.4494
C49_7 C 0.1630(3) 0.1823(5) 0.4965(3)
H49_7 H 0.1757 0.1486 0.5211
H50_7 H 0.1318 0.1593 0.4826
C50_7 C 0.1815(3) 0.3085(5) 0.5410(2)
C51_7 C 0.1713(3) 0.4012(4) 0.5465(2)
C52_7 C 0.2037(3) 0.4470(4) 0.5750(2)
H51_7 H 0.2318 0.4195 0.5895
C53_6 C 0.3678(3) 0.5921(6) 0.8041(2)
H52_6 H 0.3570 0.6004 0.8264
C54_6 C 0.4117(3) 0.6186(6) 0.8063(3)
H53_6 H 0.4314 0.6433 0.8298
C55_6 C 0.4270(3) 0.6084(6) 0.7729(3)
H54_6 H 0.4569 0.6281 0.7729
C56_6 C 0.3983(3) 0.5701(6) 0.7405(3)
H55_6 H 0.4083 0.5616 0.7178
C57_6 C 0.3542(3) 0.5430(5) 0.7405(2)
C58_6 C 0.3212(3) 0.5035(5) 0.7042(2)
H56_7 H 0.3391 0.4739 0.6886
H57_7 H 0.3015 0.4601 0.7121
C59_6 C 0.2906(3) 0.5733(5) 0.6792(2)
H58_6 H 0.3101 0.6136 0.6693
H59_6 H 0.2751 0.6065 0.6956
C60_6 C 0.2302(3) 0.5814(5) 0.6157(2)
C61_6 C 0.1964(2) 0.5323(5) 0.5830(2)
C62_6 C 0.1563(3) 0.5732(5) 0.5604(2)
H60_6 H 0.1516 0.6325 0.5647
Ag4_3 Ag 0.26823(2) 0.03669(4) 0.526717(18)
N1_7 N 0.3141(2) 0.0816(4) 0.58135(18)
C3_7 C 0.2987(3) 0.1471(5) 0.5991(2)
H7_7 H 0.2703 0.1744 0.5854
C4_7 C 0.3224(3) 0.1764(6) 0.6363(3)
H8_7 H 0.3112 0.2244 0.6475
C5_7 C 0.3624(3) 0.1346(6) 0.6569(3)
H9_7 H 0.3788 0.1518 0.6830
C6_7 C 0.3784(3) 0.0678(6) 0.6393(3)
H10_7 H 0.4059 0.0381 0.6532
C7_7 C 0.3541(3) 0.0432(5) 0.6009(2)
Ag2_7 Ag 0.48649(2) 0.71643(4) 0.489813(19)
Ag3_4 Ag 0.22943(2) 0.98875(5) 0.22763(2)
O7_8 O 0.6997(2) 0.1403(4) 0.49023(17)
O8_8 O 0.7290(2) 0.4782(4) 0.59366(18)
O9_7 O 0.58164(19) 0.5392(3) 0.49504(18)
O10_7 O 0.4255(2) 0.8471(4) 0.4812(2)
O12_7 O 0.2657(2) 0.8398(3) 0.38549(17)
N2_8 N 0.6441(2) 0.1840(4) 0.43648(19)
H1_8 H 0.6220 0.2215 0.4259
N3_4 N 0.7945(2) 0.4404(5) 0.7414(2)
N4_8 N 0.7451(2) 0.3399(4) 0.6123(2)
H2_8 H 0.7379 0.2857 0.6061
N5_7 N 0.4379(2) 0.6626(4) 0.43534(18)
N6_8 N 0.5506(2) 0.4499(4) 0.44445(19)
H3_8 H 0.5511 0.3989 0.4337
N7_7 N 0.5392(2) 0.7358(4) 0.54765(19)
N8_7 N 0.4515(2) 0.9619(4) 0.51993(18)
N11_7 N 0.1609(2) 0.9452(4) 0.22815(19)
N12_7 N 0.2443(2) 0.9656(4) 0.35390(19)
C8_8 C 0.6299(3) 0.0298(5) 0.4198(2)
H11_8 H 0.6384 0.0178 0.4485
H12_8 H 0.5956 0.0352 0.4098
C9_8 C 0.6524(3) 0.1129(5) 0.4127(2)
H13_8 H 0.6863 0.1038 0.4187
H14_8 H 0.6401 0.1285 0.3844
C10_8 C 0.6693(3) 0.1931(5) 0.4739(2)
C11_8 C 0.6602(3) 0.2724(4) 0.4951(2)
C12_8 C 0.6238(3) 0.3274(4) 0.4787(2)
H15_8 H 0.6013 0.3119 0.4547
C13_8 C 0.8286(4) 0.4656(8) 0.7737(3)
H16_7 H 0.8237 0.5151 0.7878
C14_8 C 0.8700(4) 0.4219(9) 0.7869(4)
H17_8 H 0.8937 0.4415 0.8094
C15_8 C 0.8765(4) 0.3504(10) 0.7671(4)
H18_8 H 0.9049 0.3190 0.7758
C16_8 C 0.8413(3) 0.3231(7) 0.7338(3)
H19_8 H 0.8453 0.2729 0.7198
C17_8 C 0.8010(3) 0.3698(6) 0.7216(2)
C18_8 C 0.7635(3) 0.3458(6) 0.6851(2)
H20_8 H 0.7358 0.3823 0.6825
H21_8 H 0.7544 0.2848 0.6867
C19_8 C 0.7808(3) 0.3582(6) 0.6492(2)
H22_8 H 0.7916 0.4184 0.6487
H23_8 H 0.8077 0.3197 0.6515
C20_8 C 0.7225(3) 0.4007(5) 0.5874(2)
C21_8 C 0.6883(3) 0.3707(4) 0.5495(2)
C22_8 C 0.6921(3) 0.2933(4) 0.5308(2)
H24_8 H 0.7169 0.2547 0.5426
C23_7 C 0.4044(3) 0.7156(5) 0.4134(2)
H25_7 H 0.4034 0.7737 0.4216
C24_7 C 0.3722(3) 0.6884(6) 0.3804(3)
H26_7 H 0.3491 0.7273 0.3658
C25_7 C 0.3725(3) 0.6060(6) 0.3678(3)
H27_7 H 0.3498 0.5864 0.3447
C26_7 C 0.4064(3) 0.5516(6) 0.3895(3)
H28_6 H 0.4074 0.4934 0.3814
C27_7 C 0.4391(3) 0.5812(5) 0.4231(2)
C28_7 C 0.4781(3) 0.5240(5) 0.4458(2)
H29_6 H 0.4654 0.4667 0.4493
H30_7 H 0.4923 0.5490 0.4723
C29_7 C 0.5153(3) 0.5131(5) 0.4252(2)
H31_8 H 0.5004 0.4949 0.3976
H32_7 H 0.5305 0.5695 0.4246
C30_8 C 0.5817(3) 0.4697(5) 0.4782(2)
C31_8 C 0.6196(3) 0.4047(5) 0.4965(2)
C32_8 C 0.6526(3) 0.4266(5) 0.5318(2)
H33_8 H 0.6506 0.4805 0.5439
C33_7 C 0.5793(3) 0.6920(5) 0.5544(2)
H34_7 H 0.5828 0.6536 0.5346
C34_7 C 0.6156(3) 0.7000(5) 0.5886(3)
H35_7 H 0.6429 0.6660 0.5929
C35_7 C 0.6113(3) 0.7575(6) 0.6162(3)
H36_7 H 0.6361 0.7660 0.6397
C36_7 C 0.5700(3) 0.8042(6) 0.6095(2)
H37_7 H 0.5663 0.8440 0.6287
C37_7 C 0.5349(3) 0.7928(5) 0.5754(2)
C38_7 C 0.4908(3) 0.8449(5) 0.5654(2)
H38_7 H 0.4856 0.8674 0.5898
H39_7 H 0.4640 0.8082 0.5517
C39_7 C 0.4953(3) 0.9198(5) 0.5387(2)
H40_7 H 0.5173 0.9627 0.5546
H41_7 H 0.5085 0.8978 0.5181
C40_7 C 0.4197(3) 0.9224(5) 0.4904(2)
C41_7 C 0.3765(3) 0.9712(4) 0.4684(2)
C53_7 C 0.1322(3) 0.9079(6) 0.1959(2)
H52_7 H 0.1430 0.8996 0.1736
C54_7 C 0.0883(3) 0.8814(6) 0.1937(3)
H53_7 H 0.0686 0.8567 0.1702
C55_7 C 0.0730(3) 0.8916(6) 0.2271(3)
H54_7 H 0.0431 0.8719 0.2271
C56_7 C 0.1017(3) 0.9299(6) 0.2595(3)
H55_7 H 0.0917 0.9384 0.2822
C57_7 C 0.1458(3) 0.9570(5) 0.2595(2)
C58_7 C 0.1788(3) 0.9965(5) 0.2958(2)
C59_7 C 0.2094(3) 0.9267(5) 0.3208(2)
H58_7 H 0.1899 0.8864 0.3307
H59_7 H 0.2249 0.8935 0.3044
C60_7 C 0.2698(3) 0.9186(5) 0.3843(2)
C61_7 C 0.3036(2) 0.9677(5) 0.4170(2)
C62_7 C 0.3437(3) 0.9268(5) 0.4396(2)
H60_7 H 0.3484 0.8675 0.4353
Ag5_4 Ag 0.72943(2) 0.51125(5) 0.72763(2)
N7_8 N 0.0392(2) 0.7642(4) 0.04765(19)
H16_8 H 0.3237 0.9849 0.2878
C33_8 C 0.0793(3) 0.8080(5) 0.0544(2)
H34_8 H 0.0828 0.8464 0.0346
C34_8 C 0.1156(3) 0.8000(5) 0.0886(3)
H35_8 H 0.1429 0.8340 0.0929
C35_8 C 0.1113(3) 0.7425(6) 0.1162(3)
H36_8 H 0.1361 0.7340 0.1397
C36_8 C 0.0700(3) 0.6958(6) 0.1095(2)
H37_8 H 0.0663 0.6560 0.1287
C37_8 C 0.0349(3) 0.7072(5) 0.0754(2)
H40_8 H 0.0173 0.5373 0.0546
H41_8 H 0.0085 0.6022 0.0181
Ag2_8 Ag 0.98649(2) 0.78357(4) 0.989813(19)
O10_8 O 0.9255(2) 0.6529(4) 0.9812(2)
O11_8 O 0.7904(2) 0.2683(3) 0.93245(18)
O12_8 O 0.7657(2) 0.6602(3) 0.88549(17)
N5_8 N 0.9379(2) 0.8374(4) 0.93534(18)
N10_8 N 0.8408(2) 0.2732(4) 0.9936(2)
N11_8 N 0.6609(2) 0.5548(4) 0.72815(19)
N12_8 N 0.7443(2) 0.5344(4) 0.85390(19)
H6_8 H 0.7487 0.4783 0.8540
C23_8 C 0.9044(3) 0.7844(5) 0.9134(2)
H25_8 H 0.9034 0.7263 0.9216
C24_8 C 0.8722(3) 0.8116(6) 0.8804(3)
H26_8 H 0.8491 0.7727 0.8658
C25_8 C 0.8725(3) 0.8940(6) 0.8678(3)
H27_8 H 0.8498 0.9136 0.8447
C26_8 C 0.9064(3) 0.9484(6) 0.8895(3)
C27_8 C 0.9391(3) 0.9188(5) 0.9231(2)
C28_8 C 0.9781(3) 0.9760(5) 0.9458(2)
H30_8 H 0.9923 0.9510 0.9723
C40_8 C 0.9197(3) 0.5776(5) 0.9904(2)
C41_8 C 0.8765(3) 0.5288(4) 0.9684(2)
C42_8 C 0.8694(3) 0.4425(5) 0.9750(2)
H42_8 H 0.8924 0.4114 0.9944
H49_8 H 0.8243 0.1486 0.9789
C50_8 C 0.8185(3) 0.3085(5) 0.9590(2)
C51_8 C 0.8287(3) 0.4012(4) 0.9535(2)
C52_8 C 0.7963(3) 0.4470(4) 0.9250(2)
H51_8 H 0.7682 0.4195 0.9105
C53_8 C 0.6322(3) 0.5921(6) 0.6959(2)
H52_8 H 0.6430 0.6004 0.6736
C54_8 C 0.5883(3) 0.6186(6) 0.6937(3)
H53_8 H 0.5686 0.6433 0.6702
C55_8 C 0.5730(3) 0.6084(6) 0.7271(3)
H54_8 H 0.5431 0.6281 0.7271
C56_8 C 0.6017(3) 0.5701(6) 0.7595(3)
H55_8 H 0.5917 0.5616 0.7822
C57_8 C 0.6458(3) 0.5430(5) 0.7595(2)
C58_8 C 0.6788(3) 0.5035(5) 0.7958(2)
H56_8 H 0.6609 0.4739 0.8114
H57_8 H 0.6985 0.4601 0.7879
C59_8 C 0.7094(3) 0.5733(5) 0.8208(2)
H58_8 H 0.6899 0.6136 0.8307
H59_8 H 0.7249 0.6065 0.8044
C60_8 C 0.7698(3) 0.5814(5) 0.8843(2)
C61_8 C 0.8036(2) 0.5323(5) 0.9170(2)
C62_8 C 0.8437(3) 0.5732(5) 0.9396(2)
H60_8 H 0.8484 0.6325 0.9353
Ag4_4 Ag 0.73177(2) 0.03669(4) 0.973283(18)
N1_8 N 0.6859(2) 0.0816(4) 0.91865(18)
C3_8 C 0.7013(3) 0.1471(5) 0.9009(2)
H7_8 H 0.7297 0.1744 0.9146
C4_8 C 0.6776(3) 0.1764(6) 0.8637(3)
H8_8 H 0.6888 0.2244 0.8525
C5_8 C 0.6376(3) 0.1346(6) 0.8431(3)
H9_8 H 0.6212 0.1518 0.8170
C6_8 C 0.6216(3) 0.0678(6) 0.8607(3)
H10_8 H 0.5941 0.0381 0.8468
C7_8 C 0.6459(3) 0.0432(5) 0.8991(2)
O9_8 O 0.08164(19) 0.9608(3) 0.99504(18)
C29_8 C 0.0153(3) 0.9869(5) 0.9252(2)
H32_8 H 0.0305 0.9305 0.9246
H28_7 H 0.9074 0.0066 0.8814
H29_7 H 0.9654 0.0333 0.9493
N8_8 N 0.9515(2) 0.5381(4) 0.01993(18)
H4_8 H 0.9457 0.4866 0.0279
N9_4 N 0.7833(2) 0.0185(4) 0.02892(18)
H5_8 H 0.8590 0.3066 0.0118
C38_8 C 0.9908(3) 0.6551(5) 0.0654(2)
H38_8 H 0.9856 0.6326 0.0898
H39_8 H 0.9640 0.6918 0.0517
C39_8 C 0.9953(3) 0.5802(5) 0.0387(2)
C46_8 C 0.8442(3) 0.0695(5) 0.0837(3)
H46_8 H 0.8636 0.1157 0.0965
C47_8 C 0.8106(3) 0.0833(5) 0.0479(2)
C48_8 C 0.8054(3) 0.1721(5) 0.0295(3)
H47_8 H 0.7727 0.1811 0.0136
H48_8 H 0.8133 0.2163 0.0506
C49_8 C 0.8370(3) 0.1823(5) 0.0035(3)
H50_8 H 0.8682 0.1593 0.0174
C43_7 C 0.7891(3) 0.9395(5) 0.0464(2)
H43_7 H 0.7696 0.8937 0.0334
C44_7 C 0.8210(3) 0.9227(5) 0.0811(2)
H44_7 H 0.8240 0.8664 0.0921
C45_7 C 0.8495(3) 0.9891(5) 0.1005(2)
H45_7 H 0.8723 0.9791 0.1251
H28_8 H 0.0926 0.0066 0.6186
H29_8 H 0.0346 0.0333 0.5507
C43_8 C 0.2109(3) 0.9395(5) 0.4536(2)
H43_8 H 0.2304 0.8937 0.4666
C44_8 C 0.1790(3) 0.9227(5) 0.4189(2)
H44_8 H 0.1760 0.8664 0.4079
C45_8 C 0.1505(3) 0.9891(5) 0.3995(2)
H45_8 H 0.1277 0.9791 0.3749
loop_
_geom_bond_atom_site_label_1
_geom_bond_atom_site_label_2
_geom_bond_site_symmetry_1
_geom_bond_site_symmetry_2
F1 C1 1_555 1_555
F2 C1 1_555 1_555
S1 O1 1_555 1_555
O2 S1 1_555 1_555
O3 S1 1_555 1_555
C1 S1 1_555 1_555
F1_2 C1_2 1_555 1_555
F2_2 C1_2 1_555 1_555
S1_2 O1_2 1_555 1_555
O2_2 S1_2 1_555 1_555
O3_2 S1_2 1_555 1_555
C1_2 S1_2 1_555 1_555
F1_3 C1_3 1_555 1_555
F2_3 C1_3 1_555 1_555
F3_3 C1_3 1_555 1_555
S1_3 O1_3 1_555 1_555
O2_3 S1_3 1_555 1_555
O3_3 S1_3 1_555 1_555
C1_3 S1_3 1_555 1_555
F1_4 C1_4 1_555 1_555
F2_4 C1_4 1_555 1_555
F3_4 C1_4 1_555 1_555
S1_4 O1_4 1_555 1_555
O2_4 S1_4 1_555 1_555
O3_4 S1_4 1_555 1_555
C1_4 S1_4 1_555 1_555
F1_5 C1_5 1_555 1_555
F2_5 C1_5 1_555 1_555
S1_5 O1_5 1_555 1_555
O2_5 S1_5 1_555 1_555
O3_5 S1_5 1_555 1_555
C1_5 S1_5 1_555 1_555
F1_6 C1_6 1_555 1_555
F2_6 C1_6 1_555 1_555
S1_6 O1_6 1_555 1_555
O2_6 S1_6 1_555 1_555
O3_6 S1_6 1_555 1_555
C1_6 S1_6 1_555 1_555
F1_7 C1_7 1_555 1_555
F2_7 C1_7 1_555 1_555
F3_7 C1_7 1_555 1_555
S1_7 O1_7 1_555 1_555
O2_7 S1_7 1_555 1_555
O3_7 S1_7 1_555 1_555
C1_7 S1_7 1_555 1_555
F1_8 C1_8 1_555 1_555
F2_8 C1_8 1_555 1_555
F3_8 C1_8 1_555 1_555
S1_8 O1_8 1_555 1_555
O2_8 S1_8 1_555 1_555
O3_8 S1_8 1_555 1_555
C1_8 S1_8 1_555 1_555
F4 C2 1_555 1_555
F5 C2 1_555 1_555
F6 C2 1_555 1_555
S2 O4 1_555 1_555
O5 S2 1_555 1_555
O6 S2 1_555 1_555
C2 S2 1_555 1_555
F4_2 C2_2 1_555 1_555
F5_2 C2_2 1_555 1_555
F6_2 C2_2 1_555 1_555
S2_2 O4_2 1_555 1_555
O5_2 S2_2 1_555 1_555
O6_2 S2_2 1_555 1_555
C2_2 S2_2 1_555 1_555
F4_3 C2_3 1_555 1_555
F5_3 C2_3 1_555 1_555
S2_3 O4_3 1_555 1_555
O5_3 S2_3 1_555 1_555
O6_3 S2_3 1_555 1_555
C2_3 S2_3 1_555 1_555
F4_4 C2_4 1_555 1_555
F5_4 C2_4 1_555 1_555
S2_4 O4_4 1_555 1_555
O5_4 S2_4 1_555 1_555
O6_4 S2_4 1_555 1_555
C2_4 S2_4 1_555 1_555
F4_5 C2_5 1_555 1_555
F5_5 C2_5 1_555 1_555
F6_5 C2_5 1_555 1_555
S2_5 O4_5 1_555 1_555
O5_5 S2_5 1_555 1_555
O6_5 S2_5 1_555 1_555
C2_5 S2_5 1_555 1_555
F4_6 C2_6 1_555 1_555
F5_6 C2_6 1_555 1_555
F6_6 C2_6 1_555 1_555
S2_6 O4_6 1_555 1_555
O5_6 S2_6 1_555 1_555
O6_6 S2_6 1_555 1_555
C2_6 S2_6 1_555 1_555
F4_7 C2_7 1_555 1_555
F5_7 C2_7 1_555 1_555
S2_7 O4_7 1_555 1_555
O5_7 S2_7 1_555 1_555
O6_7 S2_7 1_555 1_555
C2_7 S2_7 1_555 1_555
F4_8 C2_8 1_555 1_555
F5_8 C2_8 1_555 1_555
S2_8 O4_8 1_555 1_555
O5_8 S2_8 1_555 1_555
O6_8 S2_8 1_555 1_555
C2_8 S2_8 1_555 1_555
C43 H43 1_555 1_555
C44 C43 1_555 1_555
H44 C44 1_555 1_555
C45 C44 1_555 1_555
H45 C45 1_555 1_555
Ag2 O10 1_555 1_555
Ag3 N11 1_555 1_555
O10 C40 1_555 1_555
O11 C50 1_555 1_555
O12 C60 1_555 1_555
N5 Ag2 1_555 1_555
N11 C53 1_555 1_555
N12 H6 1_555 1_555
C23 N5 1_555 1_555
H25 C23 1_555 1_555
C24 C23 1_555 1_555
H26 C24 1_555 1_555
C25 C24 1_555 1_555
H27 C25 1_555 1_555
C26 C25 1_555 1_555
C27 N5 1_555 1_555
C28 C27 1_555 1_555
H30 C28 1_555 1_555
C41 C40 1_555 1_555
C42 C41 1_555 1_555
H42 C42 1_555 1_555
C50 N10 1_555 1_555
C51 C42 1_555 1_555
C52 C51 1_555 1_555
H51 C52 1_555 1_555
C53 H52 1_555 1_555
C54 C53 1_555 1_555
H53 C54 1_555 1_555
C55 C54 1_555 1_555
H54 C55 1_555 1_555
C56 C55 1_555 1_555
H55 C56 1_555 1_555
C57 N11 1_555 1_555
C58 C57 1_555 1_555
H56 C58 1_555 1_555
H57 C58 1_555 1_555
C59 N12 1_555 1_555
H58 C59 1_555 1_555
H59 C59 1_555 1_555
C60 N12 1_555 1_555
C61 C52 1_555 1_555
C62 C41 1_555 1_555
H60 C62 1_555 1_555
N13 Ag3 1_555 1_555
C26 C27 1_555 1_555
C50 C51 1_555 1_555
C56 C57 1_555 1_555
C58 C59 1_555 1_555
C60 C61 1_555 1_555
C61 C62 1_555 1_555
C33 N7 1_555 1_555
H34 C33 1_555 1_555
C34 C33 1_555 1_555
H35 C34 1_555 1_555
C35 C34 1_555 1_555
H36 C35 1_555 1_555
C36 C35 1_555 1_555
H37 C36 1_555 1_555
C37 N7 1_555 1_555
C36 C37 1_555 1_555
Ag4 N1 1_555 1_555
N1 C3 1_555 1_555
C3 H7 1_555 1_555
C4 C3 1_555 1_555
H8 C4 1_555 1_555
C5 C4 1_555 1_555
H9 C5 1_555 1_555
C6 C5 1_555 1_555
H10 C6 1_555 1_555
C7 N1 1_555 1_555
C6 C7 1_555 1_555
Ag2_2 O10_2 1_555 1_555
Ag5 N11_2 1_555 1_555
O7 C10 1_555 1_555
O8 C20 1_555 1_555
O9 C30 1_555 1_555
O10_2 C40_2 1_555 1_555
O12_2 C60_2 1_555 1_555
N2 H1 1_555 1_555
N13 C13 1_555 1_555
N4 H2 1_555 1_555
N5_2 Ag2_2 1_555 1_555
N6 H3 1_555 1_555
N7_2 Ag2_2 1_555 1_555
N11_2 C53_2 1_555 1_555
H11 C8 1_555 1_555
H12 C8 1_555 1_555
C9 N2 1_555 1_555
H13 C9 1_555 1_555
H14 C9 1_555 1_555
C10 N2 1_555 1_555
C11 C10 1_555 1_555
C12 C11 1_555 1_555
H15 C12 1_555 1_555
C13 H16_2 1_555 1_555
C14 C13 1_555 1_555
H17 C14 1_555 1_555
C15 C14 1_555 1_555
H18 C15 1_555 1_555
C16 C15 1_555 1_555
H19 C16 1_555 1_555
C17 N13 1_555 1_555
C18 C17 1_555 1_555
H20 C18 1_555 1_555
H21 C18 1_555 1_555
C19 N4 1_555 1_555
H22 C19 1_555 1_555
H23 C19 1_555 1_555
C20 N4 1_555 1_555
C21 C20 1_555 1_555
C22 C11 1_555 1_555
H24 C22 1_555 1_555
C23_2 N5_2 1_555 1_555
H25_2 C23_2 1_555 1_555
C24_2 C23_2 1_555 1_555
H26_2 C24_2 1_555 1_555
C25_2 C24_2 1_555 1_555
H27_2 C25_2 1_555 1_555
C26_2 C25_2 1_555 1_555
H28 C26_2 1_555 1_555
C27_2 N5_2 1_555 1_555
C28_2 C27_2 1_555 1_555
H29 C28_2 1_555 1_555
H30_2 C28_2 1_555 1_555
C29 N6 1_555 1_555
H31 C29 1_555 1_555
H32 C29 1_555 1_555
C30 N6 1_555 1_555
C31 C12 1_555 1_555
C32 C21 1_555 1_555
H33 C32 1_555 1_555
C33_2 N7_2 1_555 1_555
H34_2 C33_2 1_555 1_555
C34_2 C33_2 1_555 1_555
H35_2 C34_2 1_555 1_555
C35_2 C34_2 1_555 1_555
H36_2 C35_2 1_555 1_555
C36_2 C35_2 1_555 1_555
H37_2 C36_2 1_555 1_555
C37_2 N7_2 1_555 1_555
C38 C37_2 1_555 1_555
H38 C38 1_555 1_555
H39 C38 1_555 1_555
C39 N8 1_555 1_555
H40_2 C39 1_555 1_555
H41_2 C39 1_555 1_555
C40_2 N8 1_555 1_555
C41_2 C40_2 1_555 1_555
C53_2 H52_2 1_555 1_555
C54_2 C53_2 1_555 1_555
H53_2 C54_2 1_555 1_555
C55_2 C54_2 1_555 1_555
H54_2 C55_2 1_555 1_555
C56_2 C55_2 1_555 1_555
H55_2 C56_2 1_555 1_555
C57_2 N11_2 1_555 1_555
C58_2 C57_2 1_555 1_555
C59_2 N12_2 1_555 1_555
H58_2 C59_2 1_555 1_555
H59_2 C59_2 1_555 1_555
C60_2 N12_2 1_555 1_555
C62_2 C41_2 1_555 1_555
H60_2 C62_2 1_555 1_555
C8 C9 1_555 1_555
C16 C17 1_555 1_555
C18 C19 1_555 1_555
C21 C22 1_555 1_555
C26_2 C27_2 1_555 1_555
C28_2 C29 1_555 1_555
C30 C31 1_555 1_555
C31 C32 1_555 1_555
C36_2 C37_2 1_555 1_555
C38 C39 1_555 1_555
C56_2 C57_2 1_555 1_555
C58_2 C59_2 1_555 1_555
C60_2 C61_2 1_555 1_555
C61_2 C62_2 1_555 1_555
N8_2 H4 1_555 1_555
H38_2 C38_2 1_555 1_555
H39_2 C38_2 1_555 1_555
C39_2 N8_2 1_555 1_555
H46 C46 1_555 1_555
C47 N9 1_555 1_555
C48 C47 1_555 1_555
H47 C48 1_555 1_555
H48 C48 1_555 1_555
H50 C49 1_555 1_555
C38_2 C39_2 1_555 1_555
C46 C47 1_555 1_555
C48 C49 1_555 1_555
H32_2 C29_2 1_555 1_555
Ag1 N1_2 1_555 1_555
O7_2 C10_2 1_555 1_555
N1_2 C3_2 1_555 1_555
N2_2 H1_2 1_555 1_555
N6_2 H3_2 1_555 1_555
C3_2 H7_2 1_555 1_555
C4_2 C3_2 1_555 1_555
H8_2 C4_2 1_555 1_555
C5_2 C4_2 1_555 1_555
H9_2 C5_2 1_555 1_555
C6_2 C5_2 1_555 1_555
H10_2 C6_2 1_555 1_555
C7_2 N1_2 1_555 1_555
C8_2 C7_2 1_555 1_555
H11_2 C8_2 1_555 1_555
H12_2 C8_2 1_555 1_555
C9_2 N2_2 1_555 1_555
H13_2 C9_2 1_555 1_555
H14_2 C9_2 1_555 1_555
C10_2 N2_2 1_555 1_555
C11_2 C10_2 1_555 1_555
C12_2 C11_2 1_555 1_555
H15_2 C12_2 1_555 1_555
C30_2 N6_2 1_555 1_555
C31_2 C12_2 1_555 1_555
C6_2 C7_2 1_555 1_555
C8_2 C9_2 1_555 1_555
C30_2 C31_2 1_555 1_555
O8_2 C20_2 1_555 1_555
N3 C13_2 1_555 1_555
N4_2 H2_2 1_555 1_555
C14_2 C13_2 1_555 1_555
H17_2 C14_2 1_555 1_555
C15_2 C14_2 1_555 1_555
H18_2 C15_2 1_555 1_555
C16_2 C15_2 1_555 1_555
H19_2 C16_2 1_555 1_555
C17_2 N3 1_555 1_555
C18_2 C17_2 1_555 1_555
H20_2 C18_2 1_555 1_555
H21_2 C18_2 1_555 1_555
C19_2 N4_2 1_555 1_555
H22_2 C19_2 1_555 1_555
H23_2 C19_2 1_555 1_555
C20_2 N4_2 1_555 1_555
C21_2 C20_2 1_555 1_555
H24_2 C22_2 1_555 1_555
C32_2 C21_2 1_555 1_555
H33_2 C32_2 1_555 1_555
C16_2 C17_2 1_555 1_555
C18_2 C19_2 1_555 1_555
C21_2 C22_2 1_555 1_555
O11_2 C50_2 1_555 1_555
H42_2 C42_2 1_555 1_555
C50_2 N10_2 1_555 1_555
C51_2 C42_2 1_555 1_555
C52_2 C51_2 1_555 1_555
H51_2 C52_2 1_555 1_555
C50_2 C51_2 1_555 1_555
N14 C43_2 1_555 1_555
C43_2 H43_2 1_555 1_555
C44_2 C43_2 1_555 1_555
H44_2 C44_2 1_555 1_555
C45_2 C44_2 1_555 1_555
H45_2 C45_2 1_555 1_555
C46_2 C45_2 1_555 1_555
H46_2 C46_2 1_555 1_555
C47_2 N14 1_555 1_555
C48_2 C47_2 1_555 1_555
H47_2 C48_2 1_555 1_555
H48_2 C48_2 1_555 1_555
H50_2 C49_2 1_555 1_555
C46_2 C47_2 1_555 1_555
C48_2 C49_2 1_555 1_555
Ag1_2 N1_3 1_555 1_555
O7_3 C10_3 1_555 1_555
O8_3 C20_3 1_555 1_555
N1_3 C3_3 1_555 1_555
N2_3 H1_3 1_555 1_555
N13_2 C13_3 1_555 1_555
N4_3 H2_3 1_555 1_555
N6_3 H3_3 1_555 1_555
C3_3 H7_3 1_555 1_555
C4_3 C3_3 1_555 1_555
H8_3 C4_3 1_555 1_555
C5_3 C4_3 1_555 1_555
H9_3 C5_3 1_555 1_555
C6_3 C5_3 1_555 1_555
H10_3 C6_3 1_555 1_555
C7_3 N1_3 1_555 1_555
C8_3 C7_3 1_555 1_555
H11_3 C8_3 1_555 1_555
H12_3 C8_3 1_555 1_555
C9_3 N2_3 1_555 1_555
H13_3 C9_3 1_555 1_555
H14_3 C9_3 1_555 1_555
C10_3 N2_3 1_555 1_555
C11_3 C10_3 1_555 1_555
C12_3 C11_3 1_555 1_555
H15_3 C12_3 1_555 1_555
C14_3 C13_3 1_555 1_555
H17_3 C14_3 1_555 1_555
C15_3 C14_3 1_555 1_555
H18_3 C15_3 1_555 1_555
C16_3 C15_3 1_555 1_555
H19_3 C16_3 1_555 1_555
C17_3 N13_2 1_555 1_555
C18_3 C17_3 1_555 1_555
H20_3 C18_3 1_555 1_555
H21_3 C18_3 1_555 1_555
C19_3 N4_3 1_555 1_555
H22_3 C19_3 1_555 1_555
H23_3 C19_3 1_555 1_555
C20_3 N4_3 1_555 1_555
C21_3 C20_3 1_555 1_555
C22_3 C11_3 1_555 1_555
H24_3 C22_3 1_555 1_555
C30_3 N6_3 1_555 1_555
C31_3 C12_3 1_555 1_555
C32_3 C21_3 1_555 1_555
H33_3 C32_3 1_555 1_555
N14_2 Ag1_2 1_555 1_555
C6_3 C7_3 1_555 1_555
C8_3 C9_3 1_555 1_555
C16_3 C17_3 1_555 1_555
C18_3 C19_3 1_555 1_555
C21_3 C22_3 1_555 1_555
C30_3 C31_3 1_555 1_555
C31_3 C32_3 1_555 1_555
O11_3 C50_3 1_555 1_555
N14_2 C43_3 1_555 1_555
N10_3 H5_3 1_555 1_555
H42_3 C42_3 1_555 1_555
C43_3 H43_3 1_555 1_555
C44_3 C43_3 1_555 1_555
H44_3 C44_3 1_555 1_555
C45_3 C44_3 1_555 1_555
H45_3 C45_3 1_555 1_555
C46_3 C45_3 1_555 1_555
H46_3 C46_3 1_555 1_555
C47_3 N14_2 1_555 1_555
C48_3 C47_3 1_555 1_555
H47_3 C48_3 1_555 1_555
H48_3 C48_3 1_555 1_555
C49_3 N10_3 1_555 1_555
H49_3 C49_3 1_555 1_555
H50_3 C49_3 1_555 1_555
C50_3 N10_3 1_555 1_555
C51_3 C42_3 1_555 1_555
C52_3 C51_3 1_555 1_555
H51_3 C52_3 1_555 1_555
C46_3 C47_3 1_555 1_555
C48_3 C49_3 1_555 1_555
C50_3 C51_3 1_555 1_555
H32_3 C29_3 1_555 1_555
C33_3 N7_3 1_555 1_555
H34_3 C33_3 1_555 1_555
C34_3 C33_3 1_555 1_555
H35_3 C34_3 1_555 1_555
C35_3 C34_3 1_555 1_555
H36_3 C35_3 1_555 1_555
C36_3 C35_3 1_555 1_555
H37_3 C36_3 1_555 1_555
C37_3 N7_3 1_555 1_555
C36_3 C37_3 1_555 1_555
Ag2_3 O10_3 1_555 1_555
Ag5_2 N11_3 1_555 1_555
O7_4 C10_4 1_555 1_555
O9_4 C30_4 1_555 1_555
O10_3 C40_3 1_555 1_555
O12_3 C60_3 1_555 1_555
N2_4 H1_4 1_555 1_555
N5_3 Ag2_3 1_555 1_555
N6_4 H3_4 1_555 1_555
N11_3 C53_3 1_555 1_555
H11_4 C8_4 1_555 1_555
H12_4 C8_4 1_555 1_555
C9_4 N2_4 1_555 1_555
H13_4 C9_4 1_555 1_555
H14_4 C9_4 1_555 1_555
C10_4 N2_4 1_555 1_555
C11_4 C10_4 1_555 1_555
C12_4 C11_4 1_555 1_555
H15_4 C12_4 1_555 1_555
C23_3 N5_3 1_555 1_555
H25_3 C23_3 1_555 1_555
C24_3 C23_3 1_555 1_555
H26_3 C24_3 1_555 1_555
C25_3 C24_3 1_555 1_555
H27_3 C25_3 1_555 1_555
C26_3 C25_3 1_555 1_555
H28_3 C26_3 1_555 1_555
C27_3 N5_3 1_555 1_555
C28_3 C27_3 1_555 1_555
H29_3 C28_3 1_555 1_555
H30_3 C28_3 1_555 1_555
C29_4 N6_4 1_555 1_555
H31_4 C29_4 1_555 1_555
H32_4 C29_4 1_555 1_555
C30_4 N6_4 1_555 1_555
C31_4 C12_4 1_555 1_555
C41_3 C40_3 1_555 1_555
C53_3 H52_3 1_555 1_555
C54_3 C53_3 1_555 1_555
H53_3 C54_3 1_555 1_555
C55_3 C54_3 1_555 1_555
H54_3 C55_3 1_555 1_555
C56_3 C55_3 1_555 1_555
H55_3 C56_3 1_555 1_555
C57_3 N11_3 1_555 1_555
C58_3 C57_3 1_555 1_555
C59_3 N12_3 1_555 1_555
H58_3 C59_3 1_555 1_555
H59_3 C59_3 1_555 1_555
C60_3 N12_3 1_555 1_555
C62_3 C41_3 1_555 1_555
H60_3 C62_3 1_555 1_555
C8_4 C9_4 1_555 1_555
C26_3 C27_3 1_555 1_555
C28_3 C29_4 1_555 1_555
C30_4 C31_4 1_555 1_555
C56_3 C57_3 1_555 1_555
C58_3 C59_3 1_555 1_555
C60_3 C61_3 1_555 1_555
C61_3 C62_3 1_555 1_555
Ag1_3 N1_4 1_555 1_555
O7_5 C10_5 1_555 1_555
O8_4 C20_4 1_555 1_555
N1_4 C3_4 1_555 1_555
N2_5 H1_5 1_555 1_555
N3_2 C13_4 1_555 1_555
N4_4 H2_4 1_555 1_555
N6_5 H3_5 1_555 1_555
C3_4 H7_4 1_555 1_555
C4_4 C3_4 1_555 1_555
H8_4 C4_4 1_555 1_555
C5_4 C4_4 1_555 1_555
H9_4 C5_4 1_555 1_555
C6_4 C5_4 1_555 1_555
H10_4 C6_4 1_555 1_555
C7_4 N1_4 1_555 1_555
C8_5 C7_4 1_555 1_555
H11_5 C8_5 1_555 1_555
H12_5 C8_5 1_555 1_555
C9_5 N2_5 1_555 1_555
H13_5 C9_5 1_555 1_555
H14_5 C9_5 1_555 1_555
C10_5 N2_5 1_555 1_555
C11_5 C10_5 1_555 1_555
C12_5 C11_5 1_555 1_555
H15_5 C12_5 1_555 1_555
C14_4 C13_4 1_555 1_555
H17_4 C14_4 1_555 1_555
C15_4 C14_4 1_555 1_555
H18_4 C15_4 1_555 1_555
C16_4 C15_4 1_555 1_555
H19_4 C16_4 1_555 1_555
C17_4 N3_2 1_555 1_555
C18_4 C17_4 1_555 1_555
H20_4 C18_4 1_555 1_555
H21_4 C18_4 1_555 1_555
C19_4 N4_4 1_555 1_555
H22_4 C19_4 1_555 1_555
H23_4 C19_4 1_555 1_555
C20_4 N4_4 1_555 1_555
C21_4 C20_4 1_555 1_555
C22_4 C11_5 1_555 1_555
H24_4 C22_4 1_555 1_555
C30_5 N6_5 1_555 1_555
C31_5 C12_5 1_555 1_555
C32_4 C21_4 1_555 1_555
H33_4 C32_4 1_555 1_555
N14_3 Ag1_3 1_555 1_555
C6_4 C7_4 1_555 1_555
C8_5 C9_5 1_555 1_555
C16_4 C17_4 1_555 1_555
C18_4 C19_4 1_555 1_555
C21_4 C22_4 1_555 1_555
C30_5 C31_5 1_555 1_555
C31_5 C32_4 1_555 1_555
O11_4 C50_4 1_555 1_555
N14_3 C43_4 1_555 1_555
N10_4 H5_4 1_555 1_555
H42_4 C42_4 1_555 1_555
C43_4 H43_4 1_555 1_555
C44_4 C43_4 1_555 1_555
H44_4 C44_4 1_555 1_555
C45_4 C44_4 1_555 1_555
H45_4 C45_4 1_555 1_555
C46_4 C45_4 1_555 1_555
H46_4 C46_4 1_555 1_555
C47_4 N14_3 1_555 1_555
C48_4 C47_4 1_555 1_555
H47_4 C48_4 1_555 1_555
H48_4 C48_4 1_555 1_555
C49_4 N10_4 1_555 1_555
H49_4 C49_4 1_555 1_555
H50_4 C49_4 1_555 1_555
C50_4 N10_4 1_555 1_555
C51_4 C42_4 1_555 1_555
C52_4 C51_4 1_555 1_555
H51_4 C52_4 1_555 1_555
C46_4 C47_4 1_555 1_555
C48_4 C49_4 1_555 1_555
C50_4 C51_4 1_555 1_555
O8_5 C20_5 1_555 1_555
N13_3 C13_5 1_555 1_555
N4_5 H2_5 1_555 1_555
C14_5 C13_5 1_555 1_555
H17_5 C14_5 1_555 1_555
C15_5 C14_5 1_555 1_555
H18_5 C15_5 1_555 1_555
C16_5 C15_5 1_555 1_555
H19_5 C16_5 1_555 1_555
C17_5 N13_3 1_555 1_555
C18_5 C17_5 1_555 1_555
H20_5 C18_5 1_555 1_555
H21_5 C18_5 1_555 1_555
C19_5 N4_5 1_555 1_555
H22_5 C19_5 1_555 1_555
H23_5 C19_5 1_555 1_555
C20_5 N4_5 1_555 1_555
C21_5 C20_5 1_555 1_555
H24_5 C22_5 1_555 1_555
C32_5 C21_5 1_555 1_555
H33_5 C32_5 1_555 1_555
C16_5 C17_5 1_555 1_555
C18_5 C19_5 1_555 1_555
C21_5 C22_5 1_555 1_555
Ag1_4 N1_5 1_555 1_555
O7_6 C10_6 1_555 1_555
N1_5 C3_5 1_555 1_555
N2_6 H1_6 1_555 1_555
N6_6 H3_6 1_555 1_555
C3_5 H7_5 1_555 1_555
C4_5 C3_5 1_555 1_555
H8_5 C4_5 1_555 1_555
C5_5 C4_5 1_555 1_555
H9_5 C5_5 1_555 1_555
C6_5 C5_5 1_555 1_555
H10_5 C6_5 1_555 1_555
C7_5 N1_5 1_555 1_555
C8_6 C7_5 1_555 1_555
H11_6 C8_6 1_555 1_555
H12_6 C8_6 1_555 1_555
C9_6 N2_6 1_555 1_555
H13_6 C9_6 1_555 1_555
H14_6 C9_6 1_555 1_555
C10_6 N2_6 1_555 1_555
C11_6 C10_6 1_555 1_555
C12_6 C11_6 1_555 1_555
H15_6 C12_6 1_555 1_555
C30_6 N6_6 1_555 1_555
C31_6 C12_6 1_555 1_555
C6_5 C7_5 1_555 1_555
C8_6 C9_6 1_555 1_555
C30_6 C31_6 1_555 1_555
N14_4 C43_5 1_555 1_555
C43_5 H43_5 1_555 1_555
C44_5 C43_5 1_555 1_555
H44_5 C44_5 1_555 1_555
C45_5 C44_5 1_555 1_555
H45_5 C45_5 1_555 1_555
C46_5 C45_5 1_555 1_555
H46_5 C46_5 1_555 1_555
C47_5 N14_4 1_555 1_555
C48_5 C47_5 1_555 1_555
H47_5 C48_5 1_555 1_555
H48_5 C48_5 1_555 1_555
H50_5 C49_5 1_555 1_555
C46_5 C47_5 1_555 1_555
C48_5 C49_5 1_555 1_555
O11_5 C50_5 1_555 1_555
H42_5 C42_5 1_555 1_555
C50_5 N10_5 1_555 1_555
C51_5 C42_5 1_555 1_555
C52_5 C51_5 1_555 1_555
H51_5 C52_5 1_555 1_555
C50_5 C51_5 1_555 1_555
C43_6 H43_6 1_555 1_555
C44_6 C43_6 1_555 1_555
H44_6 C44_6 1_555 1_555
C45_6 C44_6 1_555 1_555
H45_6 C45_6 1_555 1_555
Ag2_4 O10_4 1_555 1_555
Ag3_2 N11_4 1_555 1_555
O10_4 C40_4 1_555 1_555
O11_6 C50_6 1_555 1_555
O12_4 C60_4 1_555 1_555
N5_4 Ag2_4 1_555 1_555
N8_3 H4_6 1_555 1_555
N10_6 H5_6 1_555 1_555
N11_4 C53_4 1_555 1_555
N12_4 H6_6 1_555 1_555
C23_4 N5_4 1_555 1_555
H25_4 C23_4 1_555 1_555
C24_4 C23_4 1_555 1_555
H26_4 C24_4 1_555 1_555
C25_4 C24_4 1_555 1_555
H27_4 C25_4 1_555 1_555
C26_4 C25_4 1_555 1_555
C27_4 N5_4 1_555 1_555
C28_4 C27_4 1_555 1_555
H30_4 C28_4 1_555 1_555
H38_3 C38_3 1_555 1_555
H39_3 C38_3 1_555 1_555
C39_3 N8_3 1_555 1_555
C40_4 N8_3 1_555 1_555
C41_4 C40_4 1_555 1_555
C42_6 C41_4 1_555 1_555
H42_6 C42_6 1_555 1_555
H46_6 C46_6 1_555 1_555
C47_6 N9_2 1_555 1_555
C48_6 C47_6 1_555 1_555
H47_6 C48_6 1_555 1_555
H48_6 C48_6 1_555 1_555
C49_6 N10_6 1_555 1_555
H49_6 C49_6 1_555 1_555
H50_6 C49_6 1_555 1_555
C50_6 N10_6 1_555 1_555
C51_6 C42_6 1_555 1_555
C52_6 C51_6 1_555 1_555
H51_6 C52_6 1_555 1_555
C53_4 H52_4 1_555 1_555
C54_4 C53_4 1_555 1_555
H53_4 C54_4 1_555 1_555
C55_4 C54_4 1_555 1_555
H54_4 C55_4 1_555 1_555
C56_4 C55_4 1_555 1_555
H55_4 C56_4 1_555 1_555
C57_4 N11_4 1_555 1_555
C58_4 C57_4 1_555 1_555
H56_6 C58_4 1_555 1_555
H57_6 C58_4 1_555 1_555
C59_4 N12_4 1_555 1_555
H58_4 C59_4 1_555 1_555
H59_4 C59_4 1_555 1_555
C60_4 N12_4 1_555 1_555
C61_4 C52_6 1_555 1_555
C62_4 C41_4 1_555 1_555
H60_4 C62_4 1_555 1_555
Ag4_2 N9_2 1_555 1_555
N13_4 Ag3_2 1_555 1_555
C26_4 C27_4 1_555 1_555
C38_3 C39_3 1_555 1_555
C46_6 C47_6 1_555 1_555
C48_6 C49_6 1_555 1_555
C50_6 C51_6 1_555 1_555
C56_4 C57_4 1_555 1_555
C58_4 C59_4 1_555 1_555
C60_4 C61_4 1_555 1_555
C61_4 C62_4 1_555 1_555
Ag4_2 N1_6 1_555 1_555
N1_6 C3_6 1_555 1_555
C3_6 H7_6 1_555 1_555
C4_6 C3_6 1_555 1_555
H8_6 C4_6 1_555 1_555
C5_6 C4_6 1_555 1_555
H9_6 C5_6 1_555 1_555
C6_6 C5_6 1_555 1_555
H10_6 C6_6 1_555 1_555
C7_6 N1_6 1_555 1_555
C6_6 C7_6 1_555 1_555
O8_6 C20_6 1_555 1_555
N13_4 C13_6 1_555 1_555
N4_6 H2_6 1_555 1_555
C13_6 H16_4 1_555 1_555
C14_6 C13_6 1_555 1_555
H17_6 C14_6 1_555 1_555
C15_6 C14_6 1_555 1_555
H18_6 C15_6 1_555 1_555
C16_6 C15_6 1_555 1_555
H19_6 C16_6 1_555 1_555
C17_6 N13_4 1_555 1_555
C18_6 C17_6 1_555 1_555
H20_6 C18_6 1_555 1_555
H21_6 C18_6 1_555 1_555
C19_6 N4_6 1_555 1_555
H22_6 C19_6 1_555 1_555
H23_6 C19_6 1_555 1_555
C20_6 N4_6 1_555 1_555
C21_6 C20_6 1_555 1_555
H24_6 C22_6 1_555 1_555
C32_6 C21_6 1_555 1_555
H33_6 C32_6 1_555 1_555
C33_4 N7_4 1_555 1_555
H34_4 C33_4 1_555 1_555
C34_4 C33_4 1_555 1_555
H35_4 C34_4 1_555 1_555
C35_4 C34_4 1_555 1_555
H36_4 C35_4 1_555 1_555
C36_4 C35_4 1_555 1_555
H37_4 C36_4 1_555 1_555
C37_4 N7_4 1_555 1_555
C38_4 C37_4 1_555 1_555
H38_4 C38_4 1_555 1_555
H39_4 C38_4 1_555 1_555
C39_4 N8_4 1_555 1_555
H40_4 C39_4 1_555 1_555
H41_4 C39_4 1_555 1_555
C16_6 C17_6 1_555 1_555
C18_6 C19_6 1_555 1_555
C21_6 C22_6 1_555 1_555
C36_4 C37_4 1_555 1_555
C38_4 C39_4 1_555 1_555
Ag2_5 O10_5 1_555 1_555
Ag3_3 N11_5 1_555 1_555
O7_7 C10_7 1_555 1_555
O9_5 C30_7 1_555 1_555
O10_5 C40_5 1_555 1_555
O12_5 C60_5 1_555 1_555
N2_7 H1_7 1_555 1_555
N5_5 Ag2_5 1_555 1_555
N6_7 H3_7 1_555 1_555
N11_5 C53_5 1_555 1_555
H11_7 C8_7 1_555 1_555
H12_7 C8_7 1_555 1_555
C9_7 N2_7 1_555 1_555
H13_7 C9_7 1_555 1_555
H14_7 C9_7 1_555 1_555
C10_7 N2_7 1_555 1_555
C11_7 C10_7 1_555 1_555
C12_7 C11_7 1_555 1_555
H15_7 C12_7 1_555 1_555
C23_5 N5_5 1_555 1_555
H25_5 C23_5 1_555 1_555
C24_5 C23_5 1_555 1_555
H26_5 C24_5 1_555 1_555
C25_5 C24_5 1_555 1_555
H27_5 C25_5 1_555 1_555
C26_5 C25_5 1_555 1_555
H28_5 C26_5 1_555 1_555
C27_5 N5_5 1_555 1_555
C28_5 C27_5 1_555 1_555
H29_5 C28_5 1_555 1_555
H30_5 C28_5 1_555 1_555
C29_5 N6_7 1_555 1_555
H31_7 C29_5 1_555 1_555
H32_5 C29_5 1_555 1_555
C30_7 N6_7 1_555 1_555
C31_7 C12_7 1_555 1_555
C41_5 C40_5 1_555 1_555
C53_5 H52_5 1_555 1_555
C54_5 C53_5 1_555 1_555
H53_5 C54_5 1_555 1_555
C55_5 C54_5 1_555 1_555
H54_5 C55_5 1_555 1_555
C56_5 C55_5 1_555 1_555
H55_5 C56_5 1_555 1_555
C57_5 N11_5 1_555 1_555
C58_5 C57_5 1_555 1_555
C59_5 N12_5 1_555 1_555
H58_5 C59_5 1_555 1_555
H59_5 C59_5 1_555 1_555
C60_5 N12_5 1_555 1_555
C62_5 C41_5 1_555 1_555
H60_5 C62_5 1_555 1_555
C8_7 C9_7 1_555 1_555
C26_5 C27_5 1_555 1_555
C28_5 C29_5 1_555 1_555
C30_7 C31_7 1_555 1_555
C56_5 C57_5 1_555 1_555
C58_5 C59_5 1_555 1_555
C60_5 C61_5 1_555 1_555
C61_5 C62_5 1_555 1_555
H32_6 C29_6 1_555 1_555
C33_5 N7_5 1_555 1_555
H34_5 C33_5 1_555 1_555
C34_5 C33_5 1_555 1_555
H35_5 C34_5 1_555 1_555
C35_5 C34_5 1_555 1_555
H36_5 C35_5 1_555 1_555
C36_5 C35_5 1_555 1_555
H37_5 C36_5 1_555 1_555
C37_5 N7_5 1_555 1_555
C36_5 C37_5 1_555 1_555
O8_7 C20_7 1_555 1_555
N3_3 C13_7 1_555 1_555
N4_7 H2_7 1_555 1_555
C13_7 H16_6 1_555 1_555
C14_7 C13_7 1_555 1_555
H17_7 C14_7 1_555 1_555
C15_7 C14_7 1_555 1_555
H18_7 C15_7 1_555 1_555
C16_7 C15_7 1_555 1_555
H19_7 C16_7 1_555 1_555
C17_7 N3_3 1_555 1_555
C18_7 C17_7 1_555 1_555
H20_7 C18_7 1_555 1_555
H21_7 C18_7 1_555 1_555
C19_7 N4_7 1_555 1_555
H22_7 C19_7 1_555 1_555
H23_7 C19_7 1_555 1_555
C20_7 N4_7 1_555 1_555
C21_7 C20_7 1_555 1_555
H24_7 C22_7 1_555 1_555
C32_7 C21_7 1_555 1_555
H33_7 C32_7 1_555 1_555
C33_6 N7_6 1_555 1_555
H34_6 C33_6 1_555 1_555
C34_6 C33_6 1_555 1_555
H35_6 C34_6 1_555 1_555
C35_6 C34_6 1_555 1_555
H36_6 C35_6 1_555 1_555
C36_6 C35_6 1_555 1_555
H37_6 C36_6 1_555 1_555
C37_6 N7_6 1_555 1_555
C38_5 C37_6 1_555 1_555
H38_5 C38_5 1_555 1_555
H39_5 C38_5 1_555 1_555
C39_5 N8_5 1_555 1_555
H40_6 C39_5 1_555 1_555
H41_6 C39_5 1_555 1_555
Ag5_3 N3_3 1_555 1_555
C16_7 C17_7 1_555 1_555
C18_7 C19_7 1_555 1_555
C21_7 C22_7 1_555 1_555
C36_6 C37_6 1_555 1_555
C38_5 C39_5 1_555 1_555
Ag2_6 O10_6 1_555 1_555
Ag5_3 N11_6 1_555 1_555
O10_6 C40_6 1_555 1_555
O11_7 C50_7 1_555 1_555
O12_6 C60_6 1_555 1_555
N5_6 Ag2_6 1_555 1_555
N8_6 H4_7 1_555 1_555
N10_7 H5_7 1_555 1_555
N11_6 C53_6 1_555 1_555
N12_6 H6_7 1_555 1_555
C23_6 N5_6 1_555 1_555
H25_6 C23_6 1_555 1_555
C24_6 C23_6 1_555 1_555
H26_6 C24_6 1_555 1_555
C25_6 C24_6 1_555 1_555
H27_6 C25_6 1_555 1_555
C26_6 C25_6 1_555 1_555
C27_6 N5_6 1_555 1_555
C28_6 C27_6 1_555 1_555
H30_6 C28_6 1_555 1_555
H38_6 C38_6 1_555 1_555
H39_6 C38_6 1_555 1_555
C39_6 N8_6 1_555 1_555
C40_6 N8_6 1_555 1_555
C41_6 C40_6 1_555 1_555
C42_7 C41_6 1_555 1_555
H42_7 C42_7 1_555 1_555
H46_7 C46_7 1_555 1_555
C47_7 N9_3 1_555 1_555
C48_7 C47_7 1_555 1_555
H47_7 C48_7 1_555 1_555
H48_7 C48_7 1_555 1_555
C49_7 N10_7 1_555 1_555
H49_7 C49_7 1_555 1_555
H50_7 C49_7 1_555 1_555
C50_7 N10_7 1_555 1_555
C51_7 C42_7 1_555 1_555
C52_7 C51_7 1_555 1_555
H51_7 C52_7 1_555 1_555
C53_6 H52_6 1_555 1_555
C54_6 C53_6 1_555 1_555
H53_6 C54_6 1_555 1_555
C55_6 C54_6 1_555 1_555
H54_6 C55_6 1_555 1_555
C56_6 C55_6 1_555 1_555
H55_6 C56_6 1_555 1_555
C57_6 N11_6 1_555 1_555
C58_6 C57_6 1_555 1_555
H56_7 C58_6 1_555 1_555
H57_7 C58_6 1_555 1_555
C59_6 N12_6 1_555 1_555
H58_6 C59_6 1_555 1_555
H59_6 C59_6 1_555 1_555
C60_6 N12_6 1_555 1_555
C61_6 C52_7 1_555 1_555
C62_6 C41_6 1_555 1_555
H60_6 C62_6 1_555 1_555
Ag4_3 N9_3 1_555 1_555
C26_6 C27_6 1_555 1_555
C38_6 C39_6 1_555 1_555
C46_7 C47_7 1_555 1_555
C48_7 C49_7 1_555 1_555
C50_7 C51_7 1_555 1_555
C56_6 C57_6 1_555 1_555
C58_6 C59_6 1_555 1_555
C60_6 C61_6 1_555 1_555
C61_6 C62_6 1_555 1_555
Ag4_3 N1_7 1_555 1_555
N1_7 C3_7 1_555 1_555
C3_7 H7_7 1_555 1_555
C4_7 C3_7 1_555 1_555
H8_7 C4_7 1_555 1_555
C5_7 C4_7 1_555 1_555
H9_7 C5_7 1_555 1_555
C6_7 C5_7 1_555 1_555
H10_7 C6_7 1_555 1_555
C7_7 N1_7 1_555 1_555
C6_7 C7_7 1_555 1_555
Ag2_7 O10_7 1_555 1_555
Ag3_4 N11_7 1_555 1_555
O7_8 C10_8 1_555 1_555
O8_8 C20_8 1_555 1_555
O9_7 C30_8 1_555 1_555
O10_7 C40_7 1_555 1_555
O12_7 C60_7 1_555 1_555
N2_8 H1_8 1_555 1_555
N3_4 C13_8 1_555 1_555
N4_8 H2_8 1_555 1_555
N5_7 Ag2_7 1_555 1_555
N6_8 H3_8 1_555 1_555
N7_7 Ag2_7 1_555 1_555
N11_7 C53_7 1_555 1_555
H11_8 C8_8 1_555 1_555
H12_8 C8_8 1_555 1_555
C9_8 N2_8 1_555 1_555
H13_8 C9_8 1_555 1_555
H14_8 C9_8 1_555 1_555
C10_8 N2_8 1_555 1_555
C11_8 C10_8 1_555 1_555
C12_8 C11_8 1_555 1_555
H15_8 C12_8 1_555 1_555
C13_8 H16_7 1_555 1_555
C14_8 C13_8 1_555 1_555
H17_8 C14_8 1_555 1_555
C15_8 C14_8 1_555 1_555
H18_8 C15_8 1_555 1_555
C16_8 C15_8 1_555 1_555
H19_8 C16_8 1_555 1_555
C17_8 N3_4 1_555 1_555
C18_8 C17_8 1_555 1_555
H20_8 C18_8 1_555 1_555
H21_8 C18_8 1_555 1_555
C19_8 N4_8 1_555 1_555
H22_8 C19_8 1_555 1_555
H23_8 C19_8 1_555 1_555
C20_8 N4_8 1_555 1_555
C21_8 C20_8 1_555 1_555
C22_8 C11_8 1_555 1_555
H24_8 C22_8 1_555 1_555
C23_7 N5_7 1_555 1_555
H25_7 C23_7 1_555 1_555
C24_7 C23_7 1_555 1_555
H26_7 C24_7 1_555 1_555
C25_7 C24_7 1_555 1_555
H27_7 C25_7 1_555 1_555
C26_7 C25_7 1_555 1_555
H28_6 C26_7 1_555 1_555
C27_7 N5_7 1_555 1_555
C28_7 C27_7 1_555 1_555
H29_6 C28_7 1_555 1_555
H30_7 C28_7 1_555 1_555
C29_7 N6_8 1_555 1_555
H31_8 C29_7 1_555 1_555
H32_7 C29_7 1_555 1_555
C30_8 N6_8 1_555 1_555
C31_8 C12_8 1_555 1_555
C32_8 C21_8 1_555 1_555
H33_8 C32_8 1_555 1_555
C33_7 N7_7 1_555 1_555
H34_7 C33_7 1_555 1_555
C34_7 C33_7 1_555 1_555
H35_7 C34_7 1_555 1_555
C35_7 C34_7 1_555 1_555
H36_7 C35_7 1_555 1_555
C36_7 C35_7 1_555 1_555
H37_7 C36_7 1_555 1_555
C37_7 N7_7 1_555 1_555
C38_7 C37_7 1_555 1_555
H38_7 C38_7 1_555 1_555
H39_7 C38_7 1_555 1_555
C39_7 N8_7 1_555 1_555
H40_7 C39_7 1_555 1_555
H41_7 C39_7 1_555 1_555
C40_7 N8_7 1_555 1_555
C41_7 C40_7 1_555 1_555
C53_7 H52_7 1_555 1_555
C54_7 C53_7 1_555 1_555
H53_7 C54_7 1_555 1_555
C55_7 C54_7 1_555 1_555
H54_7 C55_7 1_555 1_555
C56_7 C55_7 1_555 1_555
H55_7 C56_7 1_555 1_555
C57_7 N11_7 1_555 1_555
C58_7 C57_7 1_555 1_555
C59_7 N12_7 1_555 1_555
H58_7 C59_7 1_555 1_555
H59_7 C59_7 1_555 1_555
C60_7 N12_7 1_555 1_555
C62_7 C41_7 1_555 1_555
H60_7 C62_7 1_555 1_555
Ag5_4 N3_4 1_555 1_555
C8_8 C9_8 1_555 1_555
C16_8 C17_8 1_555 1_555
C18_8 C19_8 1_555 1_555
C21_8 C22_8 1_555 1_555
C26_7 C27_7 1_555 1_555
C28_7 C29_7 1_555 1_555
C30_8 C31_8 1_555 1_555
C31_8 C32_8 1_555 1_555
C36_7 C37_7 1_555 1_555
C38_7 C39_7 1_555 1_555
C56_7 C57_7 1_555 1_555
C58_7 C59_7 1_555 1_555
C60_7 C61_7 1_555 1_555
C61_7 C62_7 1_555 1_555
C33_8 N7_8 1_555 1_555
H34_8 C33_8 1_555 1_555
C34_8 C33_8 1_555 1_555
H35_8 C34_8 1_555 1_555
C35_8 C34_8 1_555 1_555
H36_8 C35_8 1_555 1_555
C36_8 C35_8 1_555 1_555
H37_8 C36_8 1_555 1_555
C37_8 N7_8 1_555 1_555
C36_8 C37_8 1_555 1_555
Ag2_8 O10_8 1_555 1_555
Ag5_4 N11_8 1_555 1_555
O10_8 C40_8 1_555 1_555
O11_8 C50_8 1_555 1_555
O12_8 C60_8 1_555 1_555
N5_8 Ag2_8 1_555 1_555
N11_8 C53_8 1_555 1_555
N12_8 H6_8 1_555 1_555
C23_8 N5_8 1_555 1_555
H25_8 C23_8 1_555 1_555
C24_8 C23_8 1_555 1_555
H26_8 C24_8 1_555 1_555
C25_8 C24_8 1_555 1_555
H27_8 C25_8 1_555 1_555
C26_8 C25_8 1_555 1_555
C27_8 N5_8 1_555 1_555
C28_8 C27_8 1_555 1_555
H30_8 C28_8 1_555 1_555
C41_8 C40_8 1_555 1_555
C42_8 C41_8 1_555 1_555
H42_8 C42_8 1_555 1_555
C50_8 N10_8 1_555 1_555
C51_8 C42_8 1_555 1_555
C52_8 C51_8 1_555 1_555
H51_8 C52_8 1_555 1_555
C53_8 H52_8 1_555 1_555
C54_8 C53_8 1_555 1_555
H53_8 C54_8 1_555 1_555
C55_8 C54_8 1_555 1_555
H54_8 C55_8 1_555 1_555
C56_8 C55_8 1_555 1_555
H55_8 C56_8 1_555 1_555
C57_8 N11_8 1_555 1_555
C58_8 C57_8 1_555 1_555
H56_8 C58_8 1_555 1_555
H57_8 C58_8 1_555 1_555
C59_8 N12_8 1_555 1_555
H58_8 C59_8 1_555 1_555
H59_8 C59_8 1_555 1_555
C60_8 N12_8 1_555 1_555
C61_8 C52_8 1_555 1_555
C62_8 C41_8 1_555 1_555
H60_8 C62_8 1_555 1_555
C26_8 C27_8 1_555 1_555
C50_8 C51_8 1_555 1_555
C56_8 C57_8 1_555 1_555
C58_8 C59_8 1_555 1_555
C60_8 C61_8 1_555 1_555
C61_8 C62_8 1_555 1_555
Ag4_4 N1_8 1_555 1_555
N1_8 C3_8 1_555 1_555
C3_8 H7_8 1_555 1_555
C4_8 C3_8 1_555 1_555
H8_8 C4_8 1_555 1_555
C5_8 C4_8 1_555 1_555
H9_8 C5_8 1_555 1_555
C6_8 C5_8 1_555 1_555
H10_8 C6_8 1_555 1_555
C7_8 N1_8 1_555 1_555
C6_8 C7_8 1_555 1_555
H32_8 C29_8 1_555 1_555
N8_8 H4_8 1_555 1_555
H38_8 C38_8 1_555 1_555
H39_8 C38_8 1_555 1_555
C39_8 N8_8 1_555 1_555
H46_8 C46_8 1_555 1_555
C47_8 N9_4 1_555 1_555
C48_8 C47_8 1_555 1_555
H47_8 C48_8 1_555 1_555
H48_8 C48_8 1_555 1_555
H50_8 C49_8 1_555 1_555
C38_8 C39_8 1_555 1_555
C46_8 C47_8 1_555 1_555
C48_8 C49_8 1_555 1_555
C43_7 H43_7 1_555 1_555
C44_7 C43_7 1_555 1_555
H44_7 C44_7 1_555 1_555
C45_7 C44_7 1_555 1_555
H45_7 C45_7 1_555 1_555
C43_8 H43_8 1_555 1_555
C44_8 C43_8 1_555 1_555
H44_8 C44_8 1_555 1_555
C45_8 C44_8 1_555 1_555
H45_8 C45_8 1_555 1_555

#END
