
###############################################################################
#
# This file contains modified crystal structure data generated from the
# MOF subset of the Cambridge Structural Database (CSD) v543 
# hosted by the Cambridge Crystallographic Data Centre (CCDC).
#
# This work is licensed under the Creative Commons
# Attribution-NonCommercial-ShareAlike 4.0 International License.
# To view a copy of this license, visit
# http://creativecommons.org/licenses/by-nc-sa/4.0/
# or send a letter to
# Creative Commons, PO Box 1866, Mountain View, CA 94042, USA.
#
# CIF created using the CSD Python API on 29 September 2022
# The structure has been converted into the P1 space group
# The structure has a 3D framework
# The original CSD entry FOVPUD is in the orthorhombic crystal system
# The framework has been calculated to contain at least 10.0% void space
# The void calculation uses a probe of radius 1.32A, grid spacing 0.4
# H atom positions have been added when not included in the experimental data
#
###############################################################################

data_FOVPUD
_chemical_formula_moiety         '(C144 H120 Cd8 N24 O50)n'
_symmetry_cell_setting           triclinic
_symmetry_space_group_name_H-M   'P 1'
_symmetry_Int_Tables_number      1
_space_group_name_Hall           'P 1'
loop_
_symmetry_equiv_pos_site_id
_symmetry_equiv_pos_as_xyz
1 x,y,z
_cell_length_a                   24.641(4)
_cell_length_b                   12.468(2)
_cell_length_c                   15.427(2)
_cell_angle_alpha                90
_cell_angle_beta                 90
_cell_angle_gamma                90
_cell_volume                     4739.54
loop_
_atom_site_label
_atom_site_type_symbol
_atom_site_fract_x
_atom_site_fract_y
_atom_site_fract_z
C16 C 0.3906(3) 0.0245(6) 0.5853(5)
H9 H 0.3984 0.0938 0.6036
H10 H 0.3141 0.0245 0.6254
C18 C 0.4834(3) 0.0160(8) 0.5252(5)
H11 H 0.4917 0.0790 0.5546
N4 N 0.67468(19) 0.1165(4) 0.4273(3)
C19 C 0.6366(3) 0.1761(6) 0.4658(6)
H14 H 0.6455 0.2450 0.4842
C20 C 0.5843(3) 0.1389(7) 0.4792(6)
H15 H 0.5585 0.1830 0.5049
C21 C 0.5707(3) 0.0356(7) 0.4540(5)
C23 C 0.6600(3) 0.0179(5) 0.4022(4)
Cd2 Cd 0.763975(14) 0.17473(3) 0.42244(2)
N5 N 0.7679(2) 0.5686(3) 0.6750(3)
N6 N 0.6792(2) 0.4801(3) 0.5375(3)
O8 O 0.82619(18) 0.2649(3) 0.5162(3)
O9 O 0.73937(18) 0.2795(3) 0.5468(2)
O10 O 0.6518(2) 0.3336(5) 0.8179(3)
O11 O 0.7298(2) 0.4021(4) 0.7887(2)
O12 O 0.7263(2) 0.6319(4) 0.6952(3)
O13 O 0.71548(17) 0.5072(3) 0.4758(2)
C25 C 0.8193(3) 0.5983(5) 0.6932(4)
H19 H 0.8259 0.6641 0.7194
C26 C 0.8609(3) 0.5330(6) 0.6734(4)
H20 H 0.8960 0.5518 0.6899
C27 C 0.8521(3) 0.4359(5) 0.6279(4)
H21 H 0.8811 0.3924 0.6117
C28 C 0.7997(2) 0.4078(4) 0.6083(3)
C29 C 0.7572(3) 0.4752(4) 0.6335(3)
C30 C 0.6987(2) 0.4548(4) 0.6177(3)
C31 C 0.6621(3) 0.4162(4) 0.6795(3)
C32 C 0.6081(3) 0.4046(6) 0.6573(4)
H22 H 0.5837 0.3769 0.6975
C33 C 0.5901(3) 0.4341(7) 0.5756(5)
H23 H 0.5535 0.4288 0.5613
C34 C 0.6271(3) 0.4711(5) 0.5159(4)
H24 H 0.6157 0.4899 0.4605
C35 C 0.7872(3) 0.3086(4) 0.5551(3)
C36 C 0.6830(3) 0.3828(4) 0.7692(3)
O14 O 0.7334(2) 0.3334(3) 0.3620(3)
H25 H 0.7283 0.3400 0.3097
H26 H 0.7221 0.3764 0.3980
Cd4 Cd 0.736025(14) 0.67473(3) 0.42244(2)
Cd5 Cd 0.736025(14) 0.32527(3) 0.92244(2)
O16 O 0.8482(2) 0.1664(5) 0.3179(3)
O18 O 0.7702(2) 0.0979(4) 0.2887(2)
O19 O 0.78452(17) 0.0072(3) 0.4758(2)
H28 H 0.73026 0.701673 0.664814
H15_2 H 0.9415 0.3170 0.0049
N6_2 N 0.8208(2) 0.0199(3) 0.0375(3)
O8_2 O 0.67381(18) 0.2351(3) 0.0162(3)
O9_2 O 0.76063(18) 0.2205(3) 0.0468(2)
C27_2 C 0.6479(3) 0.0641(5) 0.1279(4)
H21_2 H 0.6189 0.1076 0.1117
C28_2 C 0.7003(2) 0.0922(4) 0.1083(3)
C29_2 C 0.7428(3) 0.0248(4) 0.1335(3)
C30_2 C 0.8013(2) 0.0452(4) 0.1177(3)
C31_2 C 0.8379(3) 0.0838(4) 0.1795(3)
C32_2 C 0.8919(3) 0.0954(6) 0.1573(4)
H22_2 H 0.9163 0.1231 0.1975
C33_2 C 0.9099(3) 0.0659(7) 0.0756(5)
H23_2 H 0.9465 0.0712 0.0613
C34_2 C 0.8729(3) 0.0289(5) 0.0159(4)
C35_2 C 0.7128(3) 0.1914(4) 0.0551(3)
C36_2 C 0.8170(3) 0.1172(4) 0.2692(3)
N4_2 N 0.82532(19) 0.3835(4) 0.9273(3)
C19_2 C 0.8634(3) 0.3239(6) 0.9658(6)
H14_2 H 0.8545 0.2550 0.9842
C20_2 C 0.9157(3) 0.3611(7) 0.9792(6)
C21_2 C 0.9293(3) 0.4644(7) 0.9540(5)
C22 C 0.8906(3) 0.5245(6) 0.9147(5)
H16 H 0.8984 0.5938 0.8964
C23_2 C 0.8400(3) 0.4821(5) 0.9022(4)
H17 H 0.8141 0.5245 0.8746
C24 C 0.9834(3) 0.5160(8) 0.9748(5)
H18 H 0.9917 0.5790 0.9454
H24_2 H 0.8843 0.0101 0.9605
O14_2 O 0.7666(2) 0.1666(3) 0.8620(3)
H25_2 H 0.7717 0.1600 0.8097
H26_2 H 0.7779 0.1236 0.8980
O19_2 O 0.71548(17) 0.4928(3) 0.9758(2)
O13_2 O 0.78452(17) 0.9928(3) 0.9758(2)
Cd4_2 Cd 0.763975(14) 0.82527(3) 0.92244(2)
N1 N 0.7321(2) 0.0686(3) 0.6750(3)
O5 O 0.7737(2) 0.1319(4) 0.6952(3)
C1 C 0.6807(3) 0.0983(5) 0.6932(4)
H1 H 0.6741 0.1641 0.7194
C2 C 0.6391(3) 0.0330(6) 0.6734(4)
H2 H 0.6040 0.0518 0.6899
H27 H 0.77427 0.144126 0.758798
N2 N 0.8208(2) 0.9801(3) 0.5375(3)
N3 N 0.82532(19) 0.6165(4) 0.4273(3)
O1 O 0.67381(18) 0.7649(3) 0.5162(3)
O2 O 0.76063(18) 0.7795(3) 0.5468(2)
O3 O 0.8482(2) 0.8336(5) 0.8179(3)
O4 O 0.7702(2) 0.9021(4) 0.7887(2)
C3 C 0.6479(3) 0.9359(5) 0.6279(4)
H3 H 0.6189 0.8924 0.6117
C4 C 0.7003(2) 0.9078(4) 0.6083(3)
C5 C 0.7428(3) 0.9752(4) 0.6335(3)
C6 C 0.8013(2) 0.9548(4) 0.6177(3)
C7 C 0.8379(3) 0.9162(4) 0.6795(3)
C8 C 0.8919(3) 0.9046(6) 0.6573(4)
H4 H 0.9163 0.8769 0.6975
C9 C 0.9099(3) 0.9341(7) 0.5756(5)
H5 H 0.9465 0.9288 0.5613
C10 C 0.8729(3) 0.9711(5) 0.5159(4)
H6 H 0.8843 0.9899 0.4605
C11 C 0.7128(3) 0.8086(4) 0.5551(3)
C12 C 0.8170(3) 0.8828(4) 0.7692(3)
C13 C 0.8634(3) 0.6761(6) 0.4658(6)
H7 H 0.8545 0.7450 0.4842
C14 C 0.9157(3) 0.6389(7) 0.4792(6)
H8 H 0.9415 0.6830 0.5049
C15 C 0.9293(3) 0.5356(7) 0.4540(5)
C16_2 C 0.8906(3) 0.4755(6) 0.4147(5)
H9_2 H 0.8984 0.4062 0.3964
C17 C 0.8400(3) 0.5179(5) 0.4022(4)
H10_2 H 0.8141 0.4755 0.3746
C18_2 C 0.9834(3) 0.4840(8) 0.4748(5)
H11_2 H 0.9917 0.4210 0.4454
O7 O 0.7666(2) 0.8334(3) 0.3620(3)
H12 H 0.7717 0.8400 0.3097
H13 H 0.7779 0.8764 0.3980
O15 O 0.6518(2) 0.6664(5) 0.3179(3)
O17 O 0.7298(2) 0.5979(4) 0.2887(2)
N1_2 N 0.7679(2) 0.4314(3) 0.1750(3)
N2_2 N 0.6792(2) 0.5199(3) 0.0375(3)
O1_2 O 0.82619(18) 0.7351(3) 0.0162(3)
O2_2 O 0.73937(18) 0.7205(3) 0.0468(2)
O5_2 O 0.7263(2) 0.3681(4) 0.1952(3)
C1_2 C 0.8193(3) 0.4017(5) 0.1932(4)
H1_2 H 0.8259 0.3359 0.2194
C2_2 C 0.8609(3) 0.4670(6) 0.1734(4)
H2_2 H 0.8960 0.4482 0.1899
C3_2 C 0.8521(3) 0.5641(5) 0.1279(4)
H3_2 H 0.8811 0.6076 0.1117
C4_2 C 0.7997(2) 0.5922(4) 0.1083(3)
C5_2 C 0.7572(3) 0.5248(4) 0.1335(3)
C6_2 C 0.6987(2) 0.5452(4) 0.1177(3)
C7_2 C 0.6621(3) 0.5838(4) 0.1795(3)
C8_2 C 0.6081(3) 0.5954(6) 0.1573(4)
H4_2 H 0.5837 0.6231 0.1975
C9_2 C 0.5901(3) 0.5659(7) 0.0756(5)
H5_2 H 0.5535 0.5712 0.0613
C10_2 C 0.6271(3) 0.5289(5) 0.0159(4)
C11_2 C 0.7872(3) 0.6914(4) 0.0551(3)
C12_2 C 0.6830(3) 0.6172(4) 0.2692(3)
H8_2 H 0.5585 0.8170 0.0049
C22_2 C 0.3906(3) 0.9755(6) 0.0853(5)
H16_2 H 0.3984 0.9062 0.1036
H17_2 H 0.3141 0.9755 0.1254
C24_2 C 0.4834(3) 0.9840(8) 0.0252(5)
H18_2 H 0.4917 0.9210 0.0546
H27_2 H 0.72573 0.355874 0.258798
N3_2 N 0.67468(19) 0.8835(4) 0.9273(3)
H6_2 H 0.6157 0.5101 0.9605
C13_2 C 0.6366(3) 0.8239(6) 0.9658(6)
H7_2 H 0.6455 0.7550 0.9842
C14_2 C 0.5843(3) 0.8611(7) 0.9792(6)
C15_2 C 0.5707(3) 0.9644(7) 0.9540(5)
C17_2 C 0.6600(3) 0.9821(5) 0.9022(4)
O7_2 O 0.7334(2) 0.6666(3) 0.8620(3)
H12_2 H 0.7283 0.6600 0.8097
H13_2 H 0.7221 0.6236 0.8980
H27_3 H 0.72573 0.644126 0.758798
H28_2 H 0.76974 0.201673 0.664814
H28_3 H 0.73026 0.298327 0.164814
Cd1 Cd 0.236025(14) 0.82527(3) 0.57756(2)
N1_3 N 0.2321(2) 0.4314(3) 0.3250(3)
N2_3 N 0.3208(2) 0.5199(3) 0.4625(3)
N3_3 N 0.32532(19) 0.8835(4) 0.5727(3)
O1_3 O 0.17381(18) 0.7351(3) 0.4838(3)
O2_3 O 0.26063(18) 0.7205(3) 0.4532(2)
O3_2 O 0.3482(2) 0.6664(5) 0.1821(3)
O4_2 O 0.2702(2) 0.5979(4) 0.2113(2)
O5_3 O 0.2737(2) 0.3681(4) 0.3048(3)
O6 O 0.28452(17) 0.4928(3) 0.5242(2)
C1_3 C 0.1807(3) 0.4017(5) 0.3068(4)
H1_3 H 0.1741 0.3359 0.2806
C2_3 C 0.1391(3) 0.4670(6) 0.3266(4)
H2_3 H 0.1040 0.4482 0.3101
C3_3 C 0.1479(3) 0.5641(5) 0.3721(4)
H3_3 H 0.1189 0.6076 0.3883
C4_3 C 0.2003(2) 0.5922(4) 0.3917(3)
C5_3 C 0.2428(3) 0.5248(4) 0.3665(3)
C6_3 C 0.3013(2) 0.5452(4) 0.3823(3)
C7_3 C 0.3379(3) 0.5838(4) 0.3205(3)
C8_3 C 0.3919(3) 0.5954(6) 0.3427(4)
H4_3 H 0.4163 0.6231 0.3025
C9_3 C 0.4099(3) 0.5659(7) 0.4244(5)
H5_3 H 0.4465 0.5712 0.4387
C10_3 C 0.3729(3) 0.5289(5) 0.4841(4)
H6_3 H 0.3843 0.5101 0.5395
C11_3 C 0.2128(3) 0.6914(4) 0.4449(3)
C12_3 C 0.3170(3) 0.6172(4) 0.2308(3)
C13_3 C 0.3634(3) 0.8239(6) 0.5342(6)
H7_3 H 0.3545 0.7550 0.5158
C14_3 C 0.4157(3) 0.8611(7) 0.5208(6)
H8_3 H 0.4415 0.8170 0.4951
C15_3 C 0.4293(3) 0.9644(7) 0.5460(5)
C17_3 C 0.3400(3) 0.9821(5) 0.5978(4)
O7_3 O 0.2666(2) 0.6666(3) 0.6380(3)
H12_3 H 0.2717 0.6600 0.6903
H13_3 H 0.2779 0.6236 0.6020
C22_3 C 0.6094(3) 0.9755(6) 0.4147(5)
H16_3 H 0.6016 0.9062 0.3964
H17_3 H 0.6859 0.9755 0.3746
C24_3 C 0.5166(3) 0.9840(8) 0.4748(5)
H18_3 H 0.5083 0.9210 0.4454
Cd3 Cd 0.263975(14) 0.67473(3) 0.07756(2)
Cd6 Cd 0.263975(14) 0.32527(3) 0.57756(2)
O15_2 O 0.1518(2) 0.8336(5) 0.6821(3)
O17_2 O 0.2298(2) 0.9021(4) 0.7113(2)
O20 O 0.21548(17) 0.9928(3) 0.5242(2)
H27_4 H 0.27427 0.355874 0.241202
O6_2 O 0.21548(17) 0.0072(3) 0.0242(2)
Cd6_2 Cd 0.236025(14) 0.17473(3) 0.07756(2)
N3_4 N 0.17468(19) 0.6165(4) 0.0727(3)
H6_4 H 0.1157 0.9899 0.0395
C13_4 C 0.1366(3) 0.6761(6) 0.0342(6)
H7_4 H 0.1455 0.7450 0.0158
C14_4 C 0.0843(3) 0.6389(7) 0.0208(6)
C15_4 C 0.0707(3) 0.5356(7) 0.0460(5)
C16_3 C 0.1094(3) 0.4755(6) 0.0853(5)
H9_3 H 0.1016 0.4062 0.1036
C17_4 C 0.1600(3) 0.5179(5) 0.0978(4)
H10_3 H 0.1859 0.4755 0.1254
C18_3 C 0.0166(3) 0.4840(8) 0.0252(5)
H11_3 H 0.0083 0.4210 0.0546
O7_4 O 0.2334(2) 0.8334(3) 0.1380(3)
H12_4 H 0.2283 0.8400 0.1903
H13_4 H 0.2221 0.8764 0.1020
O20_2 O 0.28452(17) 0.5072(3) 0.0242(2)
N2_4 N 0.1792(2) 0.9801(3) 0.9625(3)
O1_4 O 0.32619(18) 0.7649(3) 0.9838(3)
O2_4 O 0.23937(18) 0.7795(3) 0.9532(2)
C3_4 C 0.3521(3) 0.9359(5) 0.8721(4)
H3_4 H 0.3811 0.8924 0.8883
C4_4 C 0.2997(2) 0.9078(4) 0.8917(3)
C5_4 C 0.2572(3) 0.9752(4) 0.8665(3)
C6_4 C 0.1987(2) 0.9548(4) 0.8823(3)
C7_4 C 0.1621(3) 0.9162(4) 0.8205(3)
C8_4 C 0.1081(3) 0.9046(6) 0.8427(4)
H4_4 H 0.0837 0.8769 0.8025
C9_4 C 0.0901(3) 0.9341(7) 0.9244(5)
H5_4 H 0.0535 0.9288 0.9387
C10_4 C 0.1271(3) 0.9711(5) 0.9841(4)
C11_4 C 0.2872(3) 0.8086(4) 0.9449(3)
C12_4 C 0.1830(3) 0.8828(4) 0.7308(3)
H8_4 H 0.0585 0.6830 0.9951
N4_3 N 0.17468(19) 0.3835(4) 0.5727(3)
C19_3 C 0.1366(3) 0.3239(6) 0.5342(6)
H14_3 H 0.1455 0.2550 0.5158
C20_3 C 0.0843(3) 0.3611(7) 0.5208(6)
H15_3 H 0.0585 0.3170 0.4951
C21_3 C 0.0707(3) 0.4644(7) 0.5460(5)
C22_4 C 0.1094(3) 0.5245(6) 0.5853(5)
H16_4 H 0.1016 0.5938 0.6036
C23_3 C 0.1600(3) 0.4821(5) 0.5978(4)
H17_4 H 0.1859 0.5245 0.6254
C24_4 C 0.0166(3) 0.5160(8) 0.5252(5)
H18_4 H 0.0083 0.5790 0.5546
N6_3 N 0.1792(2) 0.0199(3) 0.4625(3)
O8_3 O 0.32619(18) 0.2351(3) 0.4838(3)
O9_3 O 0.23937(18) 0.2205(3) 0.4532(2)
O10_2 O 0.1518(2) 0.1664(5) 0.1821(3)
O11_2 O 0.2298(2) 0.0979(4) 0.2113(2)
C27_3 C 0.3521(3) 0.0641(5) 0.3721(4)
H21_3 H 0.3811 0.1076 0.3883
C28_3 C 0.2997(2) 0.0922(4) 0.3917(3)
C29_3 C 0.2572(3) 0.0248(4) 0.3665(3)
C30_3 C 0.1987(2) 0.0452(4) 0.3823(3)
C31_3 C 0.1621(3) 0.0838(4) 0.3205(3)
C32_3 C 0.1081(3) 0.0954(6) 0.3427(4)
H22_3 H 0.0837 0.1231 0.3025
C33_3 C 0.0901(3) 0.0659(7) 0.4244(5)
H23_3 H 0.0535 0.0712 0.4387
C34_3 C 0.1271(3) 0.0289(5) 0.4841(4)
H24_3 H 0.1157 0.0101 0.5395
C35_3 C 0.2872(3) 0.1914(4) 0.4449(3)
C36_3 C 0.1830(3) 0.1172(4) 0.2308(3)
O14_3 O 0.2334(2) 0.1666(3) 0.6380(3)
H25_3 H 0.2283 0.1600 0.6903
H26_3 H 0.2221 0.1236 0.6020
O16_2 O 0.3482(2) 0.3336(5) 0.6821(3)
O18_2 O 0.2702(2) 0.4021(4) 0.7113(2)
N5_2 N 0.2679(2) 0.9314(3) 0.3250(3)
O12_2 O 0.2263(2) 0.8681(4) 0.3048(3)
C25_2 C 0.3193(3) 0.9017(5) 0.3068(4)
H19_2 H 0.3259 0.8359 0.2806
C26_2 C 0.3609(3) 0.9670(6) 0.3266(4)
H20_2 H 0.3960 0.9482 0.3101
H28_4 H 0.23026 0.798327 0.335186
N4_4 N 0.32532(19) 0.1165(4) 0.0727(3)
C19_4 C 0.3634(3) 0.1761(6) 0.0342(6)
H14_4 H 0.3545 0.2450 0.0158
C20_4 C 0.4157(3) 0.1389(7) 0.0208(6)
C21_4 C 0.4293(3) 0.0356(7) 0.0460(5)
C23_4 C 0.3400(3) 0.0179(5) 0.0978(4)
H24_4 H 0.3843 0.4899 0.0395
O14_4 O 0.2666(2) 0.3334(3) 0.1380(3)
H25_4 H 0.2717 0.3400 0.1903
H26_4 H 0.2779 0.3764 0.1020
C16_4 C 0.6094(3) 0.0245(6) 0.9147(5)
H9_4 H 0.6016 0.0938 0.8964
H10_4 H 0.6859 0.0245 0.8746
C18_4 C 0.5166(3) 0.0160(8) 0.9748(5)
H11_4 H 0.5083 0.0790 0.9454
H15_4 H 0.4415 0.1830 0.9951
N5_3 N 0.2321(2) 0.5686(3) 0.8250(3)
N6_4 N 0.3208(2) 0.4801(3) 0.9625(3)
O8_4 O 0.17381(18) 0.2649(3) 0.9838(3)
O9_4 O 0.26063(18) 0.2795(3) 0.9532(2)
O12_3 O 0.2737(2) 0.6319(4) 0.8048(3)
C25_3 C 0.1807(3) 0.5983(5) 0.8068(4)
H19_3 H 0.1741 0.6641 0.7806
C26_3 C 0.1391(3) 0.5330(6) 0.8266(4)
H20_3 H 0.1040 0.5518 0.8101
C27_4 C 0.1479(3) 0.4359(5) 0.8721(4)
H21_4 H 0.1189 0.3924 0.8883
C28_4 C 0.2003(2) 0.4078(4) 0.8917(3)
C29_4 C 0.2428(3) 0.4752(4) 0.8665(3)
C30_4 C 0.3013(2) 0.4548(4) 0.8823(3)
C31_4 C 0.3379(3) 0.4162(4) 0.8205(3)
C32_4 C 0.3919(3) 0.4046(6) 0.8427(4)
H22_4 H 0.4163 0.3769 0.8025
C33_4 C 0.4099(3) 0.4341(7) 0.9244(5)
H23_4 H 0.4465 0.4288 0.9387
C34_4 C 0.3729(3) 0.4711(5) 0.9841(4)
C35_4 C 0.2128(3) 0.3086(4) 0.9449(3)
C36_4 C 0.3170(3) 0.3828(4) 0.7308(3)
H28_5 H 0.26974 0.701673 0.835186
H28_6 H 0.26974 0.298327 0.335186
H27_5 H 0.22573 0.855874 0.241202
H27_6 H 0.27427 0.644126 0.741202
N1_4 N 0.2679(2) 0.0686(3) 0.8250(3)
O5_4 O 0.2263(2) 0.1319(4) 0.8048(3)
C1_4 C 0.3193(3) 0.0983(5) 0.8068(4)
H1_4 H 0.3259 0.1641 0.7806
C2_4 C 0.3609(3) 0.0330(6) 0.8266(4)
H2_4 H 0.3960 0.0518 0.8101
H27_7 H 0.22573 0.144126 0.741202
H28_7 H 0.23026 0.201673 0.835186
N5_4 N 0.7321(2) 0.9314(3) 0.1750(3)
O12_4 O 0.7737(2) 0.8681(4) 0.1952(3)
C25_4 C 0.6807(3) 0.9017(5) 0.1932(4)
H19_4 H 0.6741 0.8359 0.2194
C26_4 C 0.6391(3) 0.9670(6) 0.1734(4)
H20_4 H 0.6040 0.9482 0.1899
H28_8 H 0.76974 0.798327 0.164814
H27_8 H 0.77427 0.855874 0.258798
loop_
_geom_bond_atom_site_label_1
_geom_bond_atom_site_label_2
_geom_bond_site_symmetry_1
_geom_bond_site_symmetry_2
H9 C16 1_555 1_555
H11 C18 1_555 1_555
N4 C19 1_555 1_555
C19 H14 1_555 1_555
C20 C19 1_555 1_555
H15 C20 1_555 1_555
C21 C20 1_555 1_555
C23 N4 1_555 1_555
Cd2 N4 1_555 1_555
N5 O12 1_555 1_555
N6 O13 1_555 1_555
O8 Cd2 1_555 1_555
O9 Cd2 1_555 1_555
O10 C36 1_555 1_555
O11 C36 1_555 1_555
O13 Cd4 1_555 1_555
C25 N5 1_555 1_555
H19 C25 1_555 1_555
C26 C25 1_555 1_555
H20 C26 1_555 1_555
C27 C26 1_555 1_555
H21 C27 1_555 1_555
C28 C27 1_555 1_555
C29 N5 1_555 1_555
C30 N6 1_555 1_555
C31 C30 1_555 1_555
C32 C31 1_555 1_555
H22 C32 1_555 1_555
C33 C32 1_555 1_555
H23 C33 1_555 1_555
C34 N6 1_555 1_555
H24 C34 1_555 1_555
C35 O8 1_555 1_555
C36 C31 1_555 1_555
O14 Cd2 1_555 1_555
H25 O14 1_555 1_555
H26 O14 1_555 1_555
Cd5 O10 1_555 1_555
O16 Cd2 1_555 1_555
O18 Cd2 1_555 1_555
O19 Cd2 1_555 1_555
O9 C35 1_555 1_555
O11 Cd5 1_555 1_555
C28 C29 1_555 1_555
C28 C35 1_555 1_555
C29 C30 1_555 1_555
C33 C34 1_555 1_555
O12 H28 1_555 1_555
O16 C36_2 1_555 1_555
O18 C36_2 1_555 1_555
H21_2 C27_2 1_555 1_555
C28_2 C27_2 1_555 1_555
C30_2 N6_2 1_555 1_555
C31_2 C30_2 1_555 1_555
C32_2 C31_2 1_555 1_555
H22_2 C32_2 1_555 1_555
C33_2 C32_2 1_555 1_555
H23_2 C33_2 1_555 1_555
C34_2 N6_2 1_555 1_555
C35_2 O8_2 1_555 1_555
C36_2 C31_2 1_555 1_555
O9_2 C35_2 1_555 1_555
C28_2 C29_2 1_555 1_555
C28_2 C35_2 1_555 1_555
C29_2 C30_2 1_555 1_555
C33_2 C34_2 1_555 1_555
N4_2 C19_2 1_555 1_555
C19_2 H14_2 1_555 1_555
C20_2 C19_2 1_555 1_555
C21_2 C20_2 1_555 1_555
C22 C21_2 1_555 1_555
H16 C22 1_555 1_555
C23_2 N4_2 1_555 1_555
H17 C23_2 1_555 1_555
H18 C24 1_555 1_555
Cd5 N4_2 1_555 1_555
O14_2 Cd5 1_555 1_555
H25_2 O14_2 1_555 1_555
H26_2 O14_2 1_555 1_555
O19_2 Cd5 1_555 1_555
C21_2 C24 1_555 1_555
C22 C23_2 1_555 1_555
O13_2 Cd4_2 1_555 1_555
N1 O5 1_555 1_555
C1 N1 1_555 1_555
H1 C1 1_555 1_555
C2 C1 1_555 1_555
H2 C2 1_555 1_555
O5 H27 1_555 1_555
Cd4 N3 1_555 1_555
N3 C13 1_555 1_555
O1 Cd4 1_555 1_555
O2 Cd4 1_555 1_555
O3 C12 1_555 1_555
O4 C12 1_555 1_555
H3 C3 1_555 1_555
C4 C3 1_555 1_555
C6 N2 1_555 1_555
C7 C6 1_555 1_555
C8 C7 1_555 1_555
H4 C8 1_555 1_555
C9 C8 1_555 1_555
H5 C9 1_555 1_555
C10 N2 1_555 1_555
H6 C10 1_555 1_555
C11 O1 1_555 1_555
C12 C7 1_555 1_555
C13 H7 1_555 1_555
C14 C13 1_555 1_555
H8 C14 1_555 1_555
C15 C14 1_555 1_555
C16_2 C15 1_555 1_555
H9_2 C16_2 1_555 1_555
C17 N3 1_555 1_555
H10_2 C17 1_555 1_555
C18_2 C15 1_555 1_555
H11_2 C18_2 1_555 1_555
O7 Cd4 1_555 1_555
H12 O7 1_555 1_555
H13 O7 1_555 1_555
Cd4_2 O3 1_555 1_555
O15 Cd4 1_555 1_555
O17 Cd4 1_555 1_555
O2 C11 1_555 1_555
O4 Cd4_2 1_555 1_555
C4 C5 1_555 1_555
C4 C11 1_555 1_555
C5 C6 1_555 1_555
C9 C10 1_555 1_555
C16_2 C17 1_555 1_555
N1_2 O5_2 1_555 1_555
O15 C12_2 1_555 1_555
O17 C12_2 1_555 1_555
C1_2 N1_2 1_555 1_555
H1_2 C1_2 1_555 1_555
C2_2 C1_2 1_555 1_555
H2_2 C2_2 1_555 1_555
C3_2 C2_2 1_555 1_555
H3_2 C3_2 1_555 1_555
C4_2 C3_2 1_555 1_555
C5_2 N1_2 1_555 1_555
C6_2 N2_2 1_555 1_555
C7_2 C6_2 1_555 1_555
C8_2 C7_2 1_555 1_555
H4_2 C8_2 1_555 1_555
C9_2 C8_2 1_555 1_555
H5_2 C9_2 1_555 1_555
C10_2 N2_2 1_555 1_555
C11_2 O1_2 1_555 1_555
C12_2 C7_2 1_555 1_555
H16_2 C22_2 1_555 1_555
H18_2 C24_2 1_555 1_555
O2_2 C11_2 1_555 1_555
C4_2 C5_2 1_555 1_555
C4_2 C11_2 1_555 1_555
C5_2 C6_2 1_555 1_555
C9_2 C10_2 1_555 1_555
O5_2 H27_2 1_555 1_555
Cd4_2 N3_2 1_555 1_555
N3_2 C13_2 1_555 1_555
C13_2 H7_2 1_555 1_555
C14_2 C13_2 1_555 1_555
C15_2 C14_2 1_555 1_555
C17_2 N3_2 1_555 1_555
O7_2 Cd4_2 1_555 1_555
H12_2 O7_2 1_555 1_555
H13_2 O7_2 1_555 1_555
O12 H27_3 1_555 1_555
O5 H28_2 1_555 1_555
O5_2 H28_3 1_555 1_555
Cd1 N3_3 1_555 1_555
N1_3 O5_3 1_555 1_555
N2_3 O6 1_555 1_555
N3_3 C13_3 1_555 1_555
O1_3 Cd1 1_555 1_555
O2_3 Cd1 1_555 1_555
O3_2 C12_3 1_555 1_555
O4_2 C12_3 1_555 1_555
O6 Cd6 1_555 1_555
C1_3 N1_3 1_555 1_555
H1_3 C1_3 1_555 1_555
C2_3 C1_3 1_555 1_555
H2_3 C2_3 1_555 1_555
C3_3 C2_3 1_555 1_555
H3_3 C3_3 1_555 1_555
C4_3 C3_3 1_555 1_555
C5_3 N1_3 1_555 1_555
C6_3 N2_3 1_555 1_555
C7_3 C6_3 1_555 1_555
C8_3 C7_3 1_555 1_555
H4_3 C8_3 1_555 1_555
C9_3 C8_3 1_555 1_555
H5_3 C9_3 1_555 1_555
C10_3 N2_3 1_555 1_555
H6_3 C10_3 1_555 1_555
C11_3 O1_3 1_555 1_555
C12_3 C7_3 1_555 1_555
C13_3 H7_3 1_555 1_555
C14_3 C13_3 1_555 1_555
H8_3 C14_3 1_555 1_555
C15_3 C14_3 1_555 1_555
C17_3 N3_3 1_555 1_555
O7_3 Cd1 1_555 1_555
H12_3 O7_3 1_555 1_555
H13_3 O7_3 1_555 1_555
H16_3 C22_3 1_555 1_555
H18_3 C24_3 1_555 1_555
Cd3 O3_2 1_555 1_555
O15_2 Cd1 1_555 1_555
O17_2 Cd1 1_555 1_555
O20 Cd1 1_555 1_555
O2_3 C11_3 1_555 1_555
O4_2 Cd3 1_555 1_555
C4_3 C5_3 1_555 1_555
C4_3 C11_3 1_555 1_555
C5_3 C6_3 1_555 1_555
C9_3 C10_3 1_555 1_555
O5_3 H27_4 1_555 1_555
O6_2 Cd6_2 1_555 1_555
Cd3 N3_4 1_555 1_555
N3_4 C13_4 1_555 1_555
C13_4 H7_4 1_555 1_555
C14_4 C13_4 1_555 1_555
C15_4 C14_4 1_555 1_555
C16_3 C15_4 1_555 1_555
H9_3 C16_3 1_555 1_555
C17_4 N3_4 1_555 1_555
H10_3 C17_4 1_555 1_555
C18_3 C15_4 1_555 1_555
H11_3 C18_3 1_555 1_555
O7_4 Cd3 1_555 1_555
H12_4 O7_4 1_555 1_555
H13_4 O7_4 1_555 1_555
O20_2 Cd3 1_555 1_555
C16_3 C17_4 1_555 1_555
O15_2 C12_4 1_555 1_555
O17_2 C12_4 1_555 1_555
H3_4 C3_4 1_555 1_555
C4_4 C3_4 1_555 1_555
C6_4 N2_4 1_555 1_555
C7_4 C6_4 1_555 1_555
C8_4 C7_4 1_555 1_555
H4_4 C8_4 1_555 1_555
C9_4 C8_4 1_555 1_555
H5_4 C9_4 1_555 1_555
C10_4 N2_4 1_555 1_555
C11_4 O1_4 1_555 1_555
C12_4 C7_4 1_555 1_555
O2_4 C11_4 1_555 1_555
C4_4 C5_4 1_555 1_555
C4_4 C11_4 1_555 1_555
C5_4 C6_4 1_555 1_555
C9_4 C10_4 1_555 1_555
N4_3 C19_3 1_555 1_555
C19_3 H14_3 1_555 1_555
C20_3 C19_3 1_555 1_555
H15_3 C20_3 1_555 1_555
C21_3 C20_3 1_555 1_555
C22_4 C21_3 1_555 1_555
H16_4 C22_4 1_555 1_555
C23_3 N4_3 1_555 1_555
H17_4 C23_3 1_555 1_555
H18_4 C24_4 1_555 1_555
Cd6 N4_3 1_555 1_555
O8_3 Cd6 1_555 1_555
O9_3 Cd6 1_555 1_555
O10_2 C36_3 1_555 1_555
O11_2 C36_3 1_555 1_555
H21_3 C27_3 1_555 1_555
C28_3 C27_3 1_555 1_555
C30_3 N6_3 1_555 1_555
C31_3 C30_3 1_555 1_555
C32_3 C31_3 1_555 1_555
H22_3 C32_3 1_555 1_555
C33_3 C32_3 1_555 1_555
H23_3 C33_3 1_555 1_555
C34_3 N6_3 1_555 1_555
H24_3 C34_3 1_555 1_555
C35_3 O8_3 1_555 1_555
C36_3 C31_3 1_555 1_555
O14_3 Cd6 1_555 1_555
H25_3 O14_3 1_555 1_555
H26_3 O14_3 1_555 1_555
Cd6_2 O10_2 1_555 1_555
O16_2 Cd6 1_555 1_555
O18_2 Cd6 1_555 1_555
C21_3 C24_4 1_555 1_555
C22_4 C23_3 1_555 1_555
O9_3 C35_3 1_555 1_555
O11_2 Cd6_2 1_555 1_555
C28_3 C29_3 1_555 1_555
C28_3 C35_3 1_555 1_555
C29_3 C30_3 1_555 1_555
C33_3 C34_3 1_555 1_555
N5_2 O12_2 1_555 1_555
C25_2 N5_2 1_555 1_555
H19_2 C25_2 1_555 1_555
C26_2 C25_2 1_555 1_555
H20_2 C26_2 1_555 1_555
O12_2 H28_4 1_555 1_555
N4_4 C19_4 1_555 1_555
C19_4 H14_4 1_555 1_555
C20_4 C19_4 1_555 1_555
C21_4 C20_4 1_555 1_555
C23_4 N4_4 1_555 1_555
Cd6_2 N4_4 1_555 1_555
O14_4 Cd6_2 1_555 1_555
H25_4 O14_4 1_555 1_555
H26_4 O14_4 1_555 1_555
H9_4 C16_4 1_555 1_555
H11_4 C18_4 1_555 1_555
N5_3 O12_3 1_555 1_555
O16_2 C36_4 1_555 1_555
O18_2 C36_4 1_555 1_555
C25_3 N5_3 1_555 1_555
H19_3 C25_3 1_555 1_555
C26_3 C25_3 1_555 1_555
H20_3 C26_3 1_555 1_555
C27_4 C26_3 1_555 1_555
H21_4 C27_4 1_555 1_555
C28_4 C27_4 1_555 1_555
C29_4 N5_3 1_555 1_555
C30_4 N6_4 1_555 1_555
C31_4 C30_4 1_555 1_555
C32_4 C31_4 1_555 1_555
H22_4 C32_4 1_555 1_555
C33_4 C32_4 1_555 1_555
H23_4 C33_4 1_555 1_555
C34_4 N6_4 1_555 1_555
C35_4 O8_4 1_555 1_555
C36_4 C31_4 1_555 1_555
O9_4 C35_4 1_555 1_555
C28_4 C29_4 1_555 1_555
C28_4 C35_4 1_555 1_555
C29_4 C30_4 1_555 1_555
C33_4 C34_4 1_555 1_555
O12_3 H28_5 1_555 1_555
O5_3 H28_6 1_555 1_555
O12_2 H27_5 1_555 1_555
O12_3 H27_6 1_555 1_555
N1_4 O5_4 1_555 1_555
C1_4 N1_4 1_555 1_555
H1_4 C1_4 1_555 1_555
C2_4 C1_4 1_555 1_555
H2_4 C2_4 1_555 1_555
O5_4 H27_7 1_555 1_555
O5_4 H28_7 1_555 1_555
N5_4 O12_4 1_555 1_555
C25_4 N5_4 1_555 1_555
H19_4 C25_4 1_555 1_555
C26_4 C25_4 1_555 1_555
H20_4 C26_4 1_555 1_555
O12_4 H28_8 1_555 1_555
O12_4 H27_8 1_555 1_555

#END
