
###############################################################################
#
# This file contains modified crystal structure data generated from the
# MOF subset of the Cambridge Structural Database (CSD) v543 
# hosted by the Cambridge Crystallographic Data Centre (CCDC).
#
# This work is licensed under the Creative Commons
# Attribution-NonCommercial-ShareAlike 4.0 International License.
# To view a copy of this license, visit
# http://creativecommons.org/licenses/by-nc-sa/4.0/
# or send a letter to
# Creative Commons, PO Box 1866, Mountain View, CA 94042, USA.
#
# CIF created using the CSD Python API on 29 September 2022
# The structure has been converted into the P1 space group
# The structure has a 3D framework
# The original CSD entry FOXNIQ is in the triclinic crystal system
# The framework has been calculated to contain at least 10.0% void space
# The void calculation uses a probe of radius 1.32A, grid spacing 0.4
# H atom positions have been added when not included in the experimental data
#
###############################################################################

data_FOXNIQ
_chemical_formula_moiety         '(C84 H68 Co4 Gd8 N12 O66)n'
_symmetry_cell_setting           triclinic
_symmetry_space_group_name_H-M   'P 1'
_symmetry_Int_Tables_number      1
_space_group_name_Hall           'P 1'
loop_
_symmetry_equiv_pos_site_id
_symmetry_equiv_pos_as_xyz
1 x,y,z
_cell_length_a                   11.9248(2)
_cell_length_b                   16.1606(3)
_cell_length_c                   17.5254(3)
_cell_angle_alpha                90.0880(10)
_cell_angle_beta                 98.5630(10)
_cell_angle_gamma                109.9390(10)
_cell_volume                     3134.54
loop_
_atom_site_label
_atom_site_type_symbol
_atom_site_fract_x
_atom_site_fract_y
_atom_site_fract_z
H17 H 0.1672 0.0092 0.5543
C42 C 0.1712(10) 0.0261(7) 0.4009(6)
O19 O 0.1506(8) 0.0134(5) 0.3297(4)
O20 O 0.2415(6) 0.0957(4) 0.4382(4)
Gd16 Gd 0.42989(4) 0.20626(3) 0.42457(2)
C22 C 0.3463(12) 0.4958(8) 0.2568(6)
C23 C 0.3274(12) 0.5812(8) 0.2323(7)
C24 C 0.2180(12) 0.5850(7) 0.2015(6)
H10 H 0.1510 0.5334 0.1958
C25 C 0.3021(14) 0.7360(8) 0.1866(10)
C26 C 0.4166(17) 0.7368(9) 0.2138(14)
H11 H 0.4825 0.7888 0.2160
C27 C 0.4330(16) 0.6593(9) 0.2382(12)
H12 H 0.5093 0.6581 0.2575
C28 C 0.2758(16) 0.8175(9) 0.1656(11)
C31 C 0.0393(9) 0.4905(7) 0.4029(6)
H13 H 0.0101 0.4309 0.3874
C32 C 0.1596(9) 0.5325(7) 0.4332(6)
H14 H 0.2135 0.5019 0.4382
C33 C 0.1990(8) 0.6224(6) 0.4562(5)
C34 C 0.1167(9) 0.6649(7) 0.4437(5)
H15 H 0.1442 0.7251 0.4565
C35 C 0.3248(9) 0.6687(8) 0.4991(5)
C38 C 0.0491(9) 0.8902(6) 0.5654(5)
H16 H 0.0556 0.8956 0.6189
C39 C 0.1149(9) 0.9580(6) 0.5267(6)
C40 C 0.1055(9) 0.9521(7) 0.4473(5)
C41 C 0.0269(9) 0.8723(6) 0.4099(5)
H18 H 0.0174 0.8663 0.3563
Co2 Co 0.05705(13) 0.68658(9) 0.13092(8)
N4 N 0.0009(7) 0.6268(5) 0.4147(4)
N6 N 0.2026(9) 0.6614(6) 0.1787(5)
O9 O 0.2562(8) 0.4295(5) 0.2502(5)
O10 O 0.4541(8) 0.5036(5) 0.2807(5)
O11 O 0.3573(14) 0.8887(7) 0.1754(10)
O12 O 0.1637(8) 0.8063(5) 0.1411(5)
O15 O 0.3619(7) 0.7508(5) 0.5058(4)
O16 O 0.3860(7) 0.6221(5) 0.5274(4)
O23 O 0.0814(7) 0.6715(5) 0.0260(5)
O26 O 0.0119(7) 0.6945(5) 0.2311(4)
Gd5 Gd 0.56283(4) 0.41604(3) 0.33627(3)
Gd6 Gd 0.43717(4) 0.58396(3) 0.66373(3)
Gd11 Gd 0.22387(4) 0.27682(3) 0.26313(3)
Gd15 Gd 0.57011(4) 0.79374(3) 0.57543(2)
C1 C 0.5202(9) 0.0568(6) 0.3430(6)
O5 O 0.4762(6) 0.0813(4) 0.3957(4)
O6 O 0.5352(7) 0.0915(5) 0.2804(4)
Gd8 Gd 0.46962(4) 0.19726(3) 0.21115(2)
C2 C 0.5574(9) 0.9756(6) 0.3583(5)
C3 C 0.5310(9) 0.9281(6) 0.4210(5)
H1 H 0.4864 0.9447 0.4534
C4 C 0.6279(9) 0.8344(6) 0.3911(5)
C5 C 0.6593(10) 0.8789(7) 0.3273(5)
H2 H 0.7045 0.8613 0.2960
C6 C 0.6238(10) 0.9506(7) 0.3091(5)
H3 H 0.6435 0.9813 0.2654
C7 C 0.6578(8) 0.7555(6) 0.4152(5)
C8 C 0.6757(10) 0.3949(8) 0.1761(6)
C9 C 0.7610(11) 0.4462(8) 0.1215(6)
C10 C 0.7339(12) 0.4263(8) 0.0429(7)
H4 H 0.6667 0.3783 0.0220
C12 C 0.9081(10) 0.5471(7) 0.0289(6)
C13 C 0.8617(9) 0.5174(6) 0.1525(6)
H6 H 0.8782 0.5307 0.2056
C15 C 0.9151(10) 0.7126(7) 0.2305(5)
C16 C 0.8616(10) 0.7318(7) 0.1526(6)
C17 C 0.7554(12) 0.7510(9) 0.1389(6)
H7 H 0.7134 0.7544 0.1787
C18 C 0.7151(13) 0.7646(10) 0.0642(7)
H8 H 0.6431 0.7758 0.0528
C19 C 0.7804(10) 0.7620(7) 0.0048(6)
C20 C 0.8841(10) 0.7457(8) 0.0234(6)
C29 C 0.8286(9) 0.4977(6) 0.3719(6)
C30 C 0.9638(8) 0.5393(6) 0.3961(5)
C36 C 0.8914(8) 0.7345(6) 0.5611(5)
C37 C 0.9729(8) 0.8138(6) 0.5252(5)
Co1 Co 0.85610(11) 0.67967(8) 0.39936(7)
Gd3 Gd 0.77613(4) 0.72318(3) 0.73687(3)
N1 N 0.5646(7) 0.8597(5) 0.4391(4)
N2 N 0.9357(8) 0.5670(5) 0.1066(5)
N3 N 0.9246(8) 0.7304(6) 0.0952(4)
N5 N 0.9649(7) 0.8046(5) 0.4477(4)
O1 O 0.3767(5) 0.3295(4) 0.3755(3)
H19 H 0.3533 0.3531 0.4083
O3 O 0.4198(5) 0.3269(4) 0.2294(3)
H21 H 0.4105 0.3506 0.1889
O4 O 0.5629(5) 0.2703(4) 0.3334(3)
H22 H 0.6201 0.2595 0.3574
O7 O 0.6269(6) 0.7223(4) 0.4767(4)
O8 O 0.7087(6) 0.7237(4) 0.3703(4)
O13 O 0.7639(6) 0.5458(4) 0.3697(4)
O14 O 0.7829(6) 0.4150(4) 0.3606(4)
O17 O 0.8402(6) 0.6665(4) 0.5181(3)
O18 O 0.8839(6) 0.7427(5) 0.6306(4)
O21 O 0.6300(7) 0.3133(5) 0.1664(5)
O22 O 0.6578(7) 0.4434(5) 0.2250(4)
O25 O 0.8670(7) 0.7145(5) 0.2862(4)
O31 O 0.9373(7) 0.8713(5) 0.7642(4)
H27 H 0.9613 0.8394 0.7395
H28 H 0.9346 0.9104 0.7350
O32 O 0.9699(7) 0.7063(6) 0.7901(5)
H29 H 0.9601 0.6703 0.7545
H30 H 0.9760 0.6788 0.8289
O33 O 0.5543(8) 0.5271(5) 0.4356(5)
H31 H 0.5112 0.5293 0.4673
H32 H 0.5994 0.5784 0.4351
O34 O 0.6233(5) 0.6705(4) 0.6245(3)
H33 H 0.6467 0.6469 0.5917
O35 O 0.6785(5) 0.8272(4) 0.7074(3)
H34 H 0.7239 0.8775 0.7029
O37 O 0.5802(5) 0.6731(4) 0.7706(3)
H36 H 0.5895 0.6494 0.8111
O39 O 0.4371(5) 0.7297(4) 0.6666(3)
H38 H 0.3799 0.7405 0.6426
O40 O 0.5238(6) 0.9187(4) 0.6043(4)
O42 O 0.7438(8) 0.5705(5) 0.7498(5)
O45 O 0.6140(7) 0.3779(5) 0.4726(4)
O46 O 0.7585(6) 0.9043(4) 0.5618(4)
O48 O 0.7981(7) 0.7617(6) 0.8723(4)
H39 H 0.52174 0.630247 0.730345
H40 H 0.465307 0.760234 0.718758
C11 C 0.8085(12) 0.4790(8) 0.9961(7)
H5 H 0.7911 0.4682 0.9428
C14 C 0.9962(12) 0.6104(8) 0.9846(7)
H9 H 0.9293 0.7451 0.9846
C21 C 0.7372(11) 0.7736(7) 0.9203(6)
Gd2 Gd 0.53038(4) 0.80274(3) 0.78885(2)
O24 O 0.9835(8) 0.5977(5) 0.9127(5)
O27 O 0.6428(8) 0.7928(5) 0.9081(4)
O29 O 0.6733(8) 0.9502(5) 0.8350(5)
H23 H 0.7417 0.9604 0.8588
H24 H 0.6816 0.9898 0.8048
O30 O 0.4292(10) 0.8633(6) 0.8732(6)
H25 H 0.3570 0.8613 0.8680
H26 H 0.4442 0.8540 0.9191
O41 O 0.4648(7) 0.9085(5) 0.7196(4)
O47 O 0.3700(7) 0.6867(5) 0.8336(5)
C11_2 C 0.1915(12) 0.5210(8) 0.0039(7)
H5_2 H 0.2089 0.5318 0.0572
C14_2 C 0.0038(12) 0.3896(8) 0.0154(7)
H9_2 H 0.0707 0.2549 0.0154
C21_2 C 0.2628(11) 0.2264(7) 0.0797(6)
O2 O 0.3215(5) 0.1728(4) 0.2926(3)
H20 H 0.2761 0.1225 0.2971
O24_2 O 0.0165(8) 0.4023(5) 0.0873(5)
O27_2 O 0.3572(8) 0.2072(5) 0.0919(4)
O28 O 0.2019(7) 0.2383(6) 0.1277(4)
O29_2 O 0.3267(8) 0.0498(5) 0.1650(5)
H23_2 H 0.2583 0.0396 0.1412
H24_2 H 0.3184 0.0102 0.1952
O30_2 O 0.5708(10) 0.1367(6) 0.1268(6)
H25_2 H 0.6430 0.1387 0.1320
H26_2 H 0.5558 0.1460 0.0809
C2_2 C 0.4426(9) 0.0244(6) 0.6417(5)
C3_2 C 0.4690(9) 0.0719(6) 0.5790(5)
H1_2 H 0.5136 0.0553 0.5466
C4_2 C 0.3721(9) 0.1656(6) 0.6089(5)
C5_2 C 0.3407(10) 0.1211(7) 0.6727(5)
H2_2 H 0.2955 0.1387 0.7040
C6_2 C 0.3762(10) 0.0494(7) 0.6909(5)
H3_2 H 0.3565 0.0187 0.7346
C7_2 C 0.3422(8) 0.2445(6) 0.5848(5)
C8_2 C 0.3243(10) 0.6051(8) 0.8239(6)
C9_2 C 0.2390(11) 0.5538(8) 0.8785(6)
C10_2 C 0.2661(12) 0.5737(8) 0.9571(7)
H4_2 H 0.3333 0.6217 0.9780
C12_2 C 0.0919(10) 0.4529(7) 0.9711(6)
C13_2 C 0.1383(9) 0.4826(6) 0.8475(6)
H6_2 H 0.1218 0.4693 0.7944
C15_2 C 0.0849(10) 0.2874(7) 0.7695(5)
C16_2 C 0.1384(10) 0.2682(7) 0.8474(6)
C17_2 C 0.2446(12) 0.2490(9) 0.8611(6)
H7_2 H 0.2866 0.2456 0.8213
C18_2 C 0.2849(13) 0.2354(10) 0.9358(7)
H8_2 H 0.3569 0.2242 0.9472
C19_2 C 0.2196(10) 0.2380(7) 0.9952(6)
C20_2 C 0.1159(10) 0.2543(8) 0.9766(6)
C29_2 C 0.1714(9) 0.5023(6) 0.6281(6)
C30_2 C 0.0362(8) 0.4607(6) 0.6039(5)
C36_2 C 0.1086(8) 0.2655(6) 0.4389(5)
C37_2 C 0.0271(8) 0.1862(6) 0.4748(5)
Co1_2 Co 0.14390(11) 0.32033(8) 0.60064(7)
N1_2 N 0.4354(7) 0.1403(5) 0.5609(4)
N2_2 N 0.0643(8) 0.4330(5) 0.8934(5)
N3_2 N 0.0754(8) 0.2696(6) 0.9048(4)
N5_2 N 0.0351(7) 0.1954(5) 0.5523(4)
O7_2 O 0.3731(6) 0.2777(4) 0.5233(4)
O8_2 O 0.2913(6) 0.2763(4) 0.6297(4)
O13_2 O 0.2361(6) 0.4542(4) 0.6303(4)
O14_2 O 0.2171(6) 0.5850(4) 0.6394(4)
O17_2 O 0.1598(6) 0.3335(4) 0.4819(3)
O18_2 O 0.1161(6) 0.2573(5) 0.3694(4)
O22_2 O 0.3422(7) 0.5566(5) 0.7750(4)
O25_2 O 0.1330(7) 0.2855(5) 0.7138(4)
O31_2 O 0.0627(7) 0.1287(5) 0.2358(4)
H27_2 H 0.0387 0.1606 0.2605
H28_2 H 0.0654 0.0896 0.2650
O32_2 O 0.0301(7) 0.2937(6) 0.2099(5)
H29_2 H 0.0399 0.3297 0.2455
H30_2 H 0.0240 0.3212 0.1711
O33_2 O 0.4457(8) 0.4729(5) 0.5644(5)
H31_2 H 0.4888 0.4707 0.5327
H32_2 H 0.4006 0.4216 0.5649
O43 O 0.5459(8) 0.4964(5) 0.7193(5)
O44 O 0.6381(7) 0.2492(5) 0.4942(4)
H39_2 H 0.47826 0.369753 0.269655
H40_2 H 0.534693 0.239766 0.281242
C1_2 C 0.4798(9) 0.9432(6) 0.6570(6)
C22_2 C 0.6537(12) 0.5042(8) 0.7432(6)
C23_2 C 0.6726(12) 0.4188(8) 0.7677(7)
C24_2 C 0.7820(12) 0.4150(7) 0.7985(6)
H10_2 H 0.8490 0.4666 0.8042
C25_2 C 0.6979(14) 0.2640(8) 0.8134(10)
C26_2 C 0.5834(17) 0.2632(9) 0.7862(14)
H11_2 H 0.5175 0.2112 0.7840
C27_2 C 0.5670(16) 0.3407(9) 0.7618(12)
H12_2 H 0.4907 0.3419 0.7425
C28_2 C 0.7242(16) 0.1825(9) 0.8344(11)
C31_2 C 0.9607(9) 0.5095(7) 0.5971(6)
H13_2 H 0.9899 0.5691 0.6126
C32_2 C 0.8404(9) 0.4675(7) 0.5668(6)
H14_2 H 0.7865 0.4981 0.5618
C33_2 C 0.8010(8) 0.3776(6) 0.5438(5)
C34_2 C 0.8833(9) 0.3351(7) 0.5563(5)
H15_2 H 0.8558 0.2749 0.5435
C35_2 C 0.6752(9) 0.3313(8) 0.5009(5)
C38_2 C 0.9509(9) 0.1098(6) 0.4346(5)
H16_2 H 0.9444 0.1044 0.3811
C39_2 C 0.8851(9) 0.0420(6) 0.4733(6)
C40_2 C 0.8945(9) 0.0479(7) 0.5527(5)
C41_2 C 0.9731(9) 0.1277(6) 0.5901(5)
H18_2 H 0.9826 0.1337 0.6437
Co2_2 Co 0.94295(13) 0.31342(9) 0.86908(8)
N4_2 N 0.9991(7) 0.3732(5) 0.5853(4)
N6_2 N 0.7974(9) 0.3386(6) 0.8213(5)
O11_2 O 0.6427(14) 0.1113(7) 0.8246(10)
O12_2 O 0.8363(8) 0.1937(5) 0.8589(5)
O23_2 O 0.9186(7) 0.3285(5) 0.9740(5)
O26_2 O 0.9881(7) 0.3055(5) 0.7689(4)
H17_2 H 0.8328 0.9908 0.4457
C42_2 C 0.8288(10) 0.9739(7) 0.5991(6)
O19_2 O 0.8494(8) 0.9866(5) 0.6703(4)
loop_
_geom_bond_atom_site_label_1
_geom_bond_atom_site_label_2
_geom_bond_site_symmetry_1
_geom_bond_site_symmetry_2
O19 C42 1_555 1_555
O20 C42 1_555 1_555
Gd16 O20 1_555 1_555
C22 C23 1_555 1_555
C23 C24 1_555 1_555
C24 H10 1_555 1_555
C25 C26 1_555 1_555
C26 H11 1_555 1_555
C27 C23 1_555 1_555
H12 C27 1_555 1_555
C28 C25 1_555 1_555
C31 H13 1_555 1_555
C32 C31 1_555 1_555
H14 C32 1_555 1_555
C33 C32 1_555 1_555
C34 C33 1_555 1_555
H15 C34 1_555 1_555
C35 C33 1_555 1_555
C38 H16 1_555 1_555
C39 C38 1_555 1_555
C40 C39 1_555 1_555
C41 C40 1_555 1_555
H18 C41 1_555 1_555
N6 C24 1_555 1_555
O9 C22 1_555 1_555
O10 C22 1_555 1_555
O11 C28 1_555 1_555
O12 C28 1_555 1_555
O15 C35 1_555 1_555
O16 C35 1_555 1_555
Gd5 O10 1_555 1_555
Gd6 O16 1_555 1_555
Gd11 O9 1_555 1_555
Gd15 O15 1_555 1_555
C25 N6 1_555 1_555
C26 C27 1_555 1_555
C34 N4 1_555 1_555
Co2 N6 1_555 1_555
Co2 O12 1_555 1_555
Co2 O23 1_555 1_555
Co2 O26 1_555 1_555
O5 C1 1_555 1_555
O6 C1 1_555 1_555
Gd8 O6 1_555 1_555
Gd16 O5 1_555 1_555
C2 C3 1_555 1_555
C3 H1 1_555 1_555
C4 C5 1_555 1_555
C5 H2 1_555 1_555
C6 C2 1_555 1_555
H3 C6 1_555 1_555
C7 C4 1_555 1_555
C8 C9 1_555 1_555
C9 C10 1_555 1_555
C10 H4 1_555 1_555
C13 C9 1_555 1_555
H6 C13 1_555 1_555
C15 C16 1_555 1_555
C16 C17 1_555 1_555
C17 H7 1_555 1_555
C18 C17 1_555 1_555
H8 C18 1_555 1_555
C19 C18 1_555 1_555
C20 C19 1_555 1_555
C29 C30 1_555 1_555
C36 C37 1_555 1_555
Gd5 O1 1_555 1_555
Gd3 O18 1_555 1_555
Gd15 N1 1_555 1_555
N1 C3 1_555 1_555
N2 C12 1_555 1_555
N3 C16 1_555 1_555
N5 C37 1_555 1_555
O1 H19 1_555 1_555
O3 Gd5 1_555 1_555
H21 O3 1_555 1_555
O4 Gd5 1_555 1_555
H22 O4 1_555 1_555
O7 C7 1_555 1_555
O8 C7 1_555 1_555
O13 C29 1_555 1_555
O14 C29 1_555 1_555
O17 C36 1_555 1_555
O18 C36 1_555 1_555
O21 C8 1_555 1_555
O22 C8 1_555 1_555
O25 C15 1_555 1_555
O31 Gd3 1_555 1_555
H27 O31 1_555 1_555
H28 O31 1_555 1_555
O32 Gd3 1_555 1_555
H29 O32 1_555 1_555
H30 O32 1_555 1_555
O33 Gd5 1_555 1_555
H31 O33 1_555 1_555
H32 O33 1_555 1_555
Gd8 O3 1_555 1_555
Gd11 O1 1_555 1_555
Gd16 O1 1_555 1_555
O34 Gd3 1_555 1_555
H33 O34 1_555 1_555
O35 Gd3 1_555 1_555
H34 O35 1_555 1_555
O37 Gd3 1_555 1_555
H36 O37 1_555 1_555
O39 Gd15 1_555 1_555
H38 O39 1_555 1_555
O40 Gd15 1_555 1_555
O42 Gd3 1_555 1_555
O45 Gd5 1_555 1_555
O46 Gd15 1_555 1_555
O48 Gd3 1_555 1_555
C4 N1 1_555 1_555
C5 C6 1_555 1_555
C13 N2 1_555 1_555
C20 N3 1_555 1_555
Co1 N5 1_555 1_555
Co1 O8 1_555 1_555
Co1 O13 1_555 1_555
Co1 O17 1_555 1_555
Co1 O25 1_555 1_555
Gd5 O13 1_555 1_555
Gd5 O14 1_555 1_555
Gd5 O22 1_555 1_555
Gd15 O7 1_555 1_555
Gd15 O34 1_555 1_555
Gd15 O35 1_555 1_555
O3 Gd11 1_555 1_555
O4 Gd8 1_555 1_555
O4 Gd16 1_555 1_555
O21 Gd8 1_555 1_555
O37 H39 1_555 1_555
O39 H40 1_555 1_555
H5 C11 1_555 1_555
Gd2 O35 1_555 1_555
O24 C14 1_555 1_555
O27 C21 1_555 1_555
O48 C21 1_555 1_555
O29 Gd2 1_555 1_555
H23 O29 1_555 1_555
H24 O29 1_555 1_555
O30 Gd2 1_555 1_555
H25 O30 1_555 1_555
H26 O30 1_555 1_555
O37 Gd2 1_555 1_555
O39 Gd2 1_555 1_555
O41 Gd2 1_555 1_555
O47 Gd2 1_555 1_555
Gd2 O27 1_555 1_555
H5_2 C11_2 1_555 1_555
Gd8 O2 1_555 1_555
O2 H20 1_555 1_555
O24_2 C14_2 1_555 1_555
O27_2 C21_2 1_555 1_555
O28 C21_2 1_555 1_555
O29_2 Gd8 1_555 1_555
H23_2 O29_2 1_555 1_555
H24_2 O29_2 1_555 1_555
O30_2 Gd8 1_555 1_555
H25_2 O30_2 1_555 1_555
H26_2 O30_2 1_555 1_555
Gd11 O2 1_555 1_555
Gd16 O2 1_555 1_555
Gd8 O27_2 1_555 1_555
O28 Gd11 1_555 1_555
C2_2 C3_2 1_555 1_555
C3_2 H1_2 1_555 1_555
C4_2 C5_2 1_555 1_555
C5_2 H2_2 1_555 1_555
C6_2 C2_2 1_555 1_555
H3_2 C6_2 1_555 1_555
C7_2 C4_2 1_555 1_555
C8_2 C9_2 1_555 1_555
C9_2 C10_2 1_555 1_555
C10_2 H4_2 1_555 1_555
C13_2 C9_2 1_555 1_555
H6_2 C13_2 1_555 1_555
C15_2 C16_2 1_555 1_555
C16_2 C17_2 1_555 1_555
C17_2 H7_2 1_555 1_555
C18_2 C17_2 1_555 1_555
H8_2 C18_2 1_555 1_555
C19_2 C18_2 1_555 1_555
C20_2 C19_2 1_555 1_555
C29_2 C30_2 1_555 1_555
C36_2 C37_2 1_555 1_555
Gd6 O34 1_555 1_555
Gd11 O18_2 1_555 1_555
Gd16 N1_2 1_555 1_555
N1_2 C3_2 1_555 1_555
N2_2 C12_2 1_555 1_555
N3_2 C16_2 1_555 1_555
N5_2 C37_2 1_555 1_555
O37 Gd6 1_555 1_555
O39 Gd6 1_555 1_555
O7_2 C7_2 1_555 1_555
O8_2 C7_2 1_555 1_555
O13_2 C29_2 1_555 1_555
O14_2 C29_2 1_555 1_555
O17_2 C36_2 1_555 1_555
O18_2 C36_2 1_555 1_555
O47 C8_2 1_555 1_555
O22_2 C8_2 1_555 1_555
O25_2 C15_2 1_555 1_555
O31_2 Gd11 1_555 1_555
H27_2 O31_2 1_555 1_555
H28_2 O31_2 1_555 1_555
O32_2 Gd11 1_555 1_555
H29_2 O32_2 1_555 1_555
H30_2 O32_2 1_555 1_555
O33_2 Gd6 1_555 1_555
H31_2 O33_2 1_555 1_555
H32_2 O33_2 1_555 1_555
O43 Gd6 1_555 1_555
O44 Gd16 1_555 1_555
C4_2 N1_2 1_555 1_555
C5_2 C6_2 1_555 1_555
C13_2 N2_2 1_555 1_555
C20_2 N3_2 1_555 1_555
Co1_2 N5_2 1_555 1_555
Co1_2 O8_2 1_555 1_555
Co1_2 O13_2 1_555 1_555
Co1_2 O17_2 1_555 1_555
Co1_2 O25_2 1_555 1_555
Gd6 O13_2 1_555 1_555
Gd6 O14_2 1_555 1_555
Gd6 O22_2 1_555 1_555
Gd16 O7_2 1_555 1_555
O3 H39_2 1_555 1_555
O4 H40_2 1_555 1_555
O40 C1_2 1_555 1_555
O41 C1_2 1_555 1_555
C22_2 C23_2 1_555 1_555
C23_2 C24_2 1_555 1_555
C24_2 H10_2 1_555 1_555
C25_2 C26_2 1_555 1_555
C26_2 H11_2 1_555 1_555
C27_2 C23_2 1_555 1_555
H12_2 C27_2 1_555 1_555
C28_2 C25_2 1_555 1_555
C31_2 H13_2 1_555 1_555
C32_2 C31_2 1_555 1_555
H14_2 C32_2 1_555 1_555
C33_2 C32_2 1_555 1_555
C34_2 C33_2 1_555 1_555
H15_2 C34_2 1_555 1_555
C35_2 C33_2 1_555 1_555
C38_2 H16_2 1_555 1_555
C39_2 C38_2 1_555 1_555
C40_2 C39_2 1_555 1_555
C41_2 C40_2 1_555 1_555
H18_2 C41_2 1_555 1_555
N6_2 C24_2 1_555 1_555
O42 C22_2 1_555 1_555
O43 C22_2 1_555 1_555
O11_2 C28_2 1_555 1_555
O12_2 C28_2 1_555 1_555
O44 C35_2 1_555 1_555
O45 C35_2 1_555 1_555
C25_2 N6_2 1_555 1_555
C26_2 C27_2 1_555 1_555
C34_2 N4_2 1_555 1_555
Co2_2 N6_2 1_555 1_555
Co2_2 O12_2 1_555 1_555
Co2_2 O23_2 1_555 1_555
Co2_2 O26_2 1_555 1_555
O19_2 C42_2 1_555 1_555
O46 C42_2 1_555 1_555

#END
