
###############################################################################
#
# This file contains modified crystal structure data generated from the
# MOF subset of the Cambridge Structural Database (CSD) v543 
# hosted by the Cambridge Crystallographic Data Centre (CCDC).
#
# This work is licensed under the Creative Commons
# Attribution-NonCommercial-ShareAlike 4.0 International License.
# To view a copy of this license, visit
# http://creativecommons.org/licenses/by-nc-sa/4.0/
# or send a letter to
# Creative Commons, PO Box 1866, Mountain View, CA 94042, USA.
#
# CIF created using the CSD Python API on 29 September 2022
# The structure has been converted into the P1 space group
# The structure has a 3D framework
# The original CSD entry FOZCAA is in the trigonal crystal system
# The original CSD entry FOZCAA is in a Sohncke space group
# The framework has been calculated to contain at least 10.0% void space
# The void calculation uses a probe of radius 1.32A, grid spacing 0.4
#
###############################################################################

data_FOZCAA
_chemical_formula_moiety         '(C156 H168 Cl12 Fe12 N36 O12 3+)n'
_symmetry_cell_setting           triclinic
_symmetry_space_group_name_H-M   'P 1'
_symmetry_Int_Tables_number      1
_space_group_name_Hall           'P 1'
loop_
_symmetry_equiv_pos_site_id
_symmetry_equiv_pos_as_xyz
1 x,y,z
_cell_length_a                   16.3482(10)
_cell_length_b                   16.3482(10)
_cell_length_c                   19.5011(10)
_cell_angle_alpha                90
_cell_angle_beta                 90
_cell_angle_gamma                120
_cell_volume                     4513.67
loop_
_atom_site_label
_atom_site_type_symbol
_atom_site_fract_x
_atom_site_fract_y
_atom_site_fract_z
Cl3 Cl 0.11878(10) 0.94523(9) 0.73655(7)
C38 C 0.0471(3) 0.8462(3) 0.7855(2)
C39 C 0.0809(3) 0.8338(3) 0.8476(2)
H35 H 0.1428 0.8788 0.8623
C40 C 0.0250(3) 0.7565(3) 0.8880(2)
H36 H 0.0485 0.7488 0.9307
Cl1 Cl 0.94523(9) 0.11878(10) 0.26345(7)
C16 C 0.8462(3) 0.0471(3) 0.2145(2)
C17 C 0.8338(3) 0.0809(3) 0.1524(2)
H17 H 0.8788 0.1428 0.1377
C18 C 0.7565(3) 0.0250(3) 0.1120(2)
H18 H 0.7488 0.0485 0.0693
C1 C 0.2998(3) 0.7057(3) 0.1377(2)
H1 H 0.2419 0.6638 0.1598
Fe1 Fe 0.46699(5) 0.46699(5) 0.0000
Fe2 Fe 0.50048(4) 0.78314(4) 0.11677(3)
Cl2 Cl 0.12710(11) 0.88100(11) 0.06778(8)
N1 N 0.3686(2) 0.6894(2) 0.14618(15)
N2 N 0.5575(2) 0.7482(2) 0.19539(15)
N3 N 0.5051(2) 0.6621(2) 0.05384(17)
N4 N 0.2648(3) 0.4049(3) 0.0455(2)
N5 N 0.5073(2) 0.4017(3) 0.13924(16)
O1 O 0.4492(2) 0.8209(2) 0.04437(12)
O2 O 0.6204(2) 0.8793(2) 0.09031(13)
C2 C 0.3021(3) 0.7803(3) 0.09836(19)
C3 C 0.2256(3) 0.7952(3) 0.1017(2)
H2 H 0.1756 0.7597 0.1330
C4 C 0.2220(4) 0.8608(3) 0.0602(2)
C5 C 0.2919(4) 0.9118(4) 0.0138(2)
C6 C 0.3668(3) 0.8969(3) 0.0087(2)
C7 C 0.3755(3) 0.8328(3) 0.05101(19)
C8 C 0.3474(3) 0.5997(3) 0.1795(2)
H5 H 0.3584 0.5605 0.1462
H6 H 0.2798 0.5648 0.1924
C9 C 0.4069(3) 0.6137(3) 0.2433(2)
C10 C 0.3955(4) 0.6775(3) 0.2941(2)
H7 H 0.3283 0.6514 0.3046
H8 H 0.4208 0.7406 0.2742
H9 H 0.4298 0.6817 0.3363
C11 C 0.3717(4) 0.5164(3) 0.2739(3)
H10 H 0.4129 0.5209 0.3119
H11 H 0.3722 0.4739 0.2387
H12 H 0.3071 0.4916 0.2910
C12 C 0.5102(3) 0.6527(3) 0.2247(2)
H13 H 0.5448 0.6530 0.2664
H14 H 0.5144 0.6093 0.1913
C13 C 0.6378(3) 0.8100(3) 0.22167(19)
H15 H 0.6566 0.7913 0.2620
C14 C 0.7002(3) 0.9016(3) 0.1972(2)
C15 C 0.7818(3) 0.9613(3) 0.2373(2)
H16 H 0.7906 0.9399 0.2805
C19 C 0.6892(3) 0.9339(3) 0.13317(19)
C20 C 0.4963(3) 0.5928(3) 0.03392(18)
C21 C 0.4951(3) 0.4308(3) 0.08901(18)
C22 C 0.3394(3) 0.4265(3) 0.0300(2)
H21 H 0.9572 0.2884 0.0147
H22 H 0.9312 0.4144 0.0245
Fe5 Fe 0.49952(4) 0.28266(6) 0.21656(3)
N12 N 0.4927(2) 0.8944(4) 0.19409(16)
Fe1_2 Fe 0.46699(5) 0.46699(5) 1.0000
H3 H 0.2884 0.9572 0.9853
H4 H 0.4144 0.9312 0.9755
C23 C 0.7057(3) 0.2998(3) 0.8623(2)
H19 H 0.6638 0.2419 0.8402
Fe3 Fe 0.78314(4) 0.50048(4) 0.88323(3)
Cl4 Cl 0.88100(11) 0.12710(11) 0.93222(8)
N6 N 0.6894(2) 0.3686(2) 0.85382(15)
N7 N 0.7482(2) 0.5575(2) 0.80461(15)
N8 N 0.6621(2) 0.5051(2) 0.94616(17)
N9 N 0.4049(3) 0.2648(3) 0.9545(2)
N10 N 0.4017(3) 0.5073(2) 0.86076(16)
O3 O 0.8209(2) 0.4492(2) 0.95563(12)
O4 O 0.8793(2) 0.6204(2) 0.90969(13)
C24 C 0.7803(3) 0.3021(3) 0.90164(19)
C25 C 0.7952(3) 0.2256(3) 0.8983(2)
H20 H 0.7597 0.1756 0.8670
C26 C 0.8608(3) 0.2220(4) 0.9398(2)
C27 C 0.9118(4) 0.2919(4) 0.9862(2)
C28 C 0.8969(3) 0.3668(3) 0.9913(2)
C29 C 0.8328(3) 0.3755(3) 0.94899(19)
C30 C 0.5997(3) 0.3474(3) 0.8205(2)
H23 H 0.5605 0.3584 0.8538
H24 H 0.5648 0.2798 0.8076
C31 C 0.6137(3) 0.4069(3) 0.7567(2)
C32 C 0.6775(3) 0.3955(4) 0.7059(2)
H25 H 0.6514 0.3283 0.6954
H26 H 0.7406 0.4208 0.7258
H27 H 0.6817 0.4298 0.6637
C33 C 0.5164(3) 0.3717(4) 0.7261(3)
H28 H 0.5209 0.4129 0.6881
H29 H 0.4739 0.3722 0.7613
H30 H 0.4916 0.3071 0.7090
C34 C 0.6527(3) 0.5102(3) 0.7753(2)
H31 H 0.6530 0.5448 0.7336
H32 H 0.6093 0.5144 0.8087
C35 C 0.8100(3) 0.6378(3) 0.77833(19)
H33 H 0.7913 0.6566 0.7380
C36 C 0.9016(3) 0.7002(3) 0.8028(2)
C37 C 0.9613(3) 0.7818(3) 0.7627(2)
H34 H 0.9399 0.7906 0.7195
C41 C 0.9339(3) 0.6892(3) 0.86683(19)
C42 C 0.5928(3) 0.4963(3) 0.96608(18)
C43 C 0.4308(3) 0.4951(3) 0.91099(18)
C44 C 0.4265(3) 0.3394(3) 0.9700(2)
Fe4 Fe 0.28266(6) 0.49952(4) 0.78344(3)
N11 N 0.8944(4) 0.4927(2) 0.80591(16)
Fe1_3 Fe 0.53301(5) -0.00000(7) 0.3333
N5_2 N 0.5983(3) 0.1056(4) 0.47257(16)
C21_2 C 0.5692(3) 0.0643(4) 0.42234(18)
C23_2 C 0.7002(3) 0.4059(4) 0.1956(2)
H19_2 H 0.7581 0.4219 0.1735
Cl3_2 Cl 0.05477(9) 0.17355(13) 0.06988(7)
Cl4_2 Cl 0.87290(11) 0.75390(16) 0.26555(8)
N6_2 N 0.6314(2) 0.3208(3) 0.18715(15)
N7_2 N 0.4425(2) 0.1907(3) 0.13794(15)
N8_2 N 0.4949(2) 0.1570(3) 0.27949(17)
N9_2 N 0.7352(3) 0.1401(4) 0.2878(2)
O3_2 O 0.5508(2) 0.3717(3) 0.28896(12)
O4_2 O 0.3796(2) 0.2589(3) 0.24302(13)
C24_2 C 0.6979(3) 0.4782(4) 0.23497(19)
C25_2 C 0.7744(3) 0.5696(4) 0.2316(2)
H20_2 H 0.8244 0.5841 0.2003
C26_2 C 0.7780(4) 0.6388(5) 0.2731(2)
C27_2 C 0.7081(4) 0.6199(6) 0.3195(2)
H21_2 H 0.7116 0.6688 0.3480
C28_2 C 0.6332(3) 0.5301(4) 0.3246(2)
H22_2 H 0.5856 0.5168 0.3578
C29_2 C 0.6245(3) 0.4573(4) 0.28232(19)
C30_2 C 0.6526(3) 0.2523(4) 0.1538(2)
H23_2 H 0.6416 0.2021 0.1871
H24_2 H 0.7202 0.2850 0.1409
C31_2 C 0.5931(3) 0.2068(4) 0.0900(2)
C32_2 C 0.6045(4) 0.2820(5) 0.0392(2)
H25_2 H 0.6717 0.3231 0.0287
H26_2 H 0.5792 0.3198 0.0591
C33_2 C 0.6283(4) 0.1447(5) 0.0594(3)
H28_2 H 0.5871 0.1080 0.0214
H29_2 H 0.6278 0.1017 0.0946
H30_2 H 0.6929 0.1845 0.0423
C34_2 C 0.4898(3) 0.1425(4) 0.1086(2)
H31_2 H 0.4552 0.1082 0.0669
H32_2 H 0.4856 0.0949 0.1420
C35_2 C 0.3622(3) 0.1722(4) 0.11166(19)
H33_2 H 0.3434 0.1347 0.0713
C36_2 C 0.2998(3) 0.2014(4) 0.1361(2)
C37_2 C 0.2182(3) 0.1795(4) 0.0960(2)
H34_2 H 0.2094 0.1493 0.0528
C38_2 C 0.1538(3) 0.2009(4) 0.1188(2)
C39_2 C 0.1662(3) 0.2471(4) 0.1809(2)
H35_2 H 0.1212 0.2640 0.1956
C40_2 C 0.2435(3) 0.2685(4) 0.2213(2)
H36_2 H 0.2512 0.2997 0.2640
C41_2 C 0.3108(3) 0.2447(4) 0.20016(19)
C42_2 C 0.5037(3) 0.0965(4) 0.29941(18)
C44_2 C 0.6606(3) 0.0871(4) 0.3033(2)
Fe5_2 Fe 0.71734(6) 0.21686(7) 0.54990(3)
C1_2 C 0.2943(3) 0.5941(4) 0.4710(2)
H1_2 H 0.3362 0.5781 0.4931
Fe1_4 Fe 0.53301(5) 1.00000(7) 0.3333
Fe2_2 Fe 0.21686(4) 0.71734(6) 0.45010(3)
Cl2_2 Cl 0.11900(11) 0.24610(16) 0.40111(8)
N1_2 N 0.3106(2) 0.6792(3) 0.47951(15)
N2_2 N 0.2518(2) 0.8093(3) 0.52872(15)
N3_2 N 0.3379(2) 0.8430(3) 0.38717(17)
N4_2 N 0.5951(3) 0.8599(4) 0.3788(2)
O1_2 O 0.1791(2) 0.6283(3) 0.37770(12)
O2_2 O 0.1207(2) 0.7411(3) 0.42364(13)
C2_2 C 0.2197(3) 0.5218(4) 0.43169(19)
C3_2 C 0.2048(3) 0.4304(4) 0.4350(2)
H2_2 H 0.2403 0.4159 0.4663
C4_2 C 0.1392(3) 0.3612(5) 0.3935(2)
C5_2 C 0.0882(4) 0.3801(6) 0.3471(2)
H3_2 H 0.0428 0.3312 0.3186
C6_2 C 0.1031(3) 0.4699(4) 0.3420(2)
H4_2 H 0.0688 0.4832 0.3088
C7_2 C 0.1672(3) 0.5427(4) 0.38434(19)
C8_2 C 0.4003(3) 0.7477(4) 0.5128(2)
H5_2 H 0.4395 0.7979 0.4795
H6_2 H 0.4352 0.7150 0.5257
C9_2 C 0.3863(3) 0.7932(4) 0.5766(2)
C10_2 C 0.3225(3) 0.7180(5) 0.6274(2)
H7_2 H 0.3486 0.6769 0.6379
H8_2 H 0.2594 0.6802 0.6075
H9_2 H 0.3183 0.7481 0.6696
C11_2 C 0.4836(3) 0.8553(5) 0.6072(3)
H10_2 H 0.4791 0.8920 0.6452
H11_2 H 0.5261 0.8983 0.5720
H12_2 H 0.5084 0.8155 0.6243
C12_2 C 0.3473(3) 0.8575(4) 0.5580(2)
H13_2 H 0.3470 0.8918 0.5997
H14_2 H 0.3907 0.9051 0.5246
C13_2 C 0.1900(3) 0.8278(4) 0.55500(19)
H15_2 H 0.2087 0.8653 0.5953
C14_2 C 0.0984(3) 0.7986(4) 0.5305(2)
C15_2 C 0.0387(3) 0.8205(4) 0.5706(2)
H16_2 H 0.0601 0.8507 0.6138
C19_2 C 0.0661(3) 0.7553(4) 0.46650(19)
C20_2 C 0.4072(3) 0.9035(4) 0.36725(18)
C22_2 C 0.5735(3) 0.9129(4) 0.3633(2)
C43_2 C 0.5049(3) 0.9357(4) 0.24432(18)
N12_2 N 0.1056(4) 0.5983(4) 0.52743(16)
C1_3 C 0.4059(4) 0.7002(3) 0.8044(2)
H1_3 H 0.4219 0.7581 0.8265
Fe1_5 Fe 0.00000(7) 0.53301(5) 0.6667
Cl1_2 Cl 0.17355(13) 0.05477(9) 0.93012(7)
Cl2_3 Cl 0.75390(16) 0.87290(11) 0.73445(8)
N1_3 N 0.3208(3) 0.6314(2) 0.81285(15)
N2_3 N 0.1907(3) 0.4425(2) 0.86206(15)
N3_3 N 0.1570(3) 0.4949(2) 0.72051(17)
N4_3 N 0.1401(4) 0.7352(3) 0.7122(2)
O1_3 O 0.3717(3) 0.5508(2) 0.71104(12)
O2_3 O 0.2589(3) 0.3796(2) 0.75698(13)
C2_3 C 0.4782(4) 0.6979(3) 0.76503(19)
C3_3 C 0.5696(4) 0.7744(3) 0.7684(2)
H2_3 H 0.5841 0.8244 0.7997
C4_3 C 0.6388(5) 0.7780(4) 0.7269(2)
C5_3 C 0.6199(6) 0.7081(4) 0.6805(2)
H3_3 H 0.6688 0.7116 0.6520
C6_3 C 0.5301(4) 0.6332(3) 0.6754(2)
H4_3 H 0.5168 0.5856 0.6422
C7_3 C 0.4573(4) 0.6245(3) 0.71768(19)
C8_3 C 0.2523(4) 0.6526(3) 0.8462(2)
H5_3 H 0.2021 0.6416 0.8129
H6_3 H 0.2850 0.7202 0.8591
C9_3 C 0.2068(4) 0.5931(3) 0.9100(2)
C10_3 C 0.2820(5) 0.6045(4) 0.9608(2)
H7_3 H 0.3231 0.6717 0.9713
H8_3 H 0.3198 0.5792 0.9409
C11_3 C 0.1447(5) 0.6283(4) 0.9406(3)
H10_3 H 0.1080 0.5871 0.9786
H11_3 H 0.1017 0.6278 0.9054
H12_3 H 0.1845 0.6929 0.9577
C12_3 C 0.1425(4) 0.4898(3) 0.8914(2)
H13_3 H 0.1082 0.4552 0.9331
H14_3 H 0.0949 0.4856 0.8580
C13_3 C 0.1722(4) 0.3622(3) 0.88834(19)
H15_3 H 0.1347 0.3434 0.9287
C14_3 C 0.2014(4) 0.2998(3) 0.8639(2)
C15_3 C 0.1795(4) 0.2182(3) 0.9040(2)
H16_3 H 0.1493 0.2094 0.9472
C16_2 C 0.2009(4) 0.1538(3) 0.8812(2)
C17_2 C 0.2471(4) 0.1662(3) 0.8191(2)
H17_2 H 0.2640 0.1212 0.8044
C18_2 C 0.2685(4) 0.2435(3) 0.7787(2)
H18_2 H 0.2997 0.2512 0.7360
C19_3 C 0.2447(4) 0.3108(3) 0.79984(19)
C20_3 C 0.0965(4) 0.5037(3) 0.70059(18)
C22_3 C 0.0871(4) 0.6606(3) 0.6967(2)
C43_3 C 0.0643(4) 0.5692(3) 0.57766(18)
Fe1_6 Fe 1.00000(7) 0.53301(5) 0.6667
C21_3 C 0.9357(4) 0.5049(3) 0.75568(18)
C23_3 C 0.5941(4) 0.2943(3) 0.5290(2)
H19_3 H 0.5781 0.3362 0.5069
Cl4_3 Cl 0.24610(16) 0.11900(11) 0.59889(8)
N6_3 N 0.6792(3) 0.3106(2) 0.52049(15)
N7_3 N 0.8093(3) 0.2518(2) 0.47128(15)
N8_3 N 0.8430(3) 0.3379(2) 0.61283(17)
N9_3 N 0.8599(4) 0.5951(3) 0.6212(2)
O3_3 O 0.6283(3) 0.1791(2) 0.62230(12)
O4_3 O 0.7411(3) 0.1207(2) 0.57636(13)
C24_3 C 0.5218(4) 0.2197(3) 0.56831(19)
C25_3 C 0.4304(4) 0.2048(3) 0.5650(2)
H20_3 H 0.4159 0.2403 0.5337
C26_3 C 0.3612(5) 0.1392(3) 0.6065(2)
C27_3 C 0.3801(6) 0.0882(4) 0.6529(2)
H21_3 H 0.3312 0.0428 0.6814
C28_3 C 0.4699(4) 0.1031(3) 0.6580(2)
H22_3 H 0.4832 0.0688 0.6912
C29_3 C 0.5427(4) 0.1672(3) 0.61566(19)
C30_3 C 0.7477(4) 0.4003(3) 0.4872(2)
H23_3 H 0.7979 0.4395 0.5205
H24_3 H 0.7150 0.4352 0.4743
C31_3 C 0.7932(4) 0.3863(3) 0.4234(2)
C32_3 C 0.7180(5) 0.3225(3) 0.3726(2)
H25_3 H 0.6769 0.3486 0.3621
H26_3 H 0.6802 0.2594 0.3925
H27_2 H 0.7481 0.3183 0.3304
C33_3 C 0.8553(5) 0.4836(3) 0.3928(3)
H28_3 H 0.8920 0.4791 0.3548
H29_3 H 0.8983 0.5261 0.4280
H30_3 H 0.8155 0.5084 0.3757
C34_3 C 0.8575(4) 0.3473(3) 0.4420(2)
H31_3 H 0.8918 0.3470 0.4003
H32_3 H 0.9051 0.3907 0.4754
C35_3 C 0.8278(4) 0.1900(3) 0.44500(19)
H33_3 H 0.8653 0.2087 0.4047
C36_3 C 0.7986(4) 0.0984(3) 0.4695(2)
C37_3 C 0.8205(4) 0.0387(3) 0.4294(2)
H34_3 H 0.8507 0.0601 0.3862
C41_3 C 0.7553(4) 0.0661(3) 0.53350(19)
C42_3 C 0.9035(4) 0.4072(3) 0.63275(18)
C44_3 C 0.9129(4) 0.5735(3) 0.6367(2)
H27_3 H 0.5702 0.2519 0.9970
Cl1_3 Cl 0.88122(10) 0.82645(13) 0.59678(7)
C16_3 C 0.9529(3) 0.7991(4) 0.5478(2)
C17_3 C 0.9191(3) 0.7529(4) 0.4857(2)
H17_3 H 0.8572 0.7360 0.4710
C18_3 C 0.9750(3) 0.7315(4) 0.4453(2)
H18_3 H 0.9515 0.7003 0.4026
H9_3 H 0.2519 0.5702 0.0030
Cl3_3 Cl 0.82645(13) 0.88122(10) 0.40322(7)
C38_3 C 0.7991(4) 0.9529(3) 0.4522(2)
C39_3 C 0.7529(4) 0.9191(3) 0.5143(2)
H35_3 H 0.7360 0.8572 0.5290
C40_3 C 0.7315(4) 0.9750(3) 0.5547(2)
H36_3 H 0.7003 0.9515 0.5974
N13 N 0.8119(3) 0.8119(3) 0.0000
H40 H 0.6706 0.7724 0.0066
C47 C 0.8426(4) 0.8864(4) 0.0544(3)
H42 H 0.8505 0.9447 0.0327
H43 H 0.7907 0.8654 0.0882
C48 C 0.9285(5) 0.9105(5) 0.0914(4)
H44 H 0.9256 0.8527 0.1083
H45 H 0.9351 0.9514 0.1303
H46 H 0.9828 0.9438 0.0607
C49 C 0.7348(5) 0.6820(6) 0.0893(4)
H47 H 0.7673 0.7192 0.1301
H48 H 0.7170 0.6159 0.0968
H49 H 0.6779 0.6862 0.0808
C50 C 0.7976(4) 0.7190(4) 0.0300(3)
H51 H 0.8602 0.7284 0.0434
N13_2 N 0.8119(3) 0.8119(3) 1.0000
C45 C 0.6820(6) 0.7348(5) 0.9107(4)
H37 H 0.7192 0.7673 0.8699
H38 H 0.6159 0.7170 0.9032
H39 H 0.6862 0.6779 0.9192
C46 C 0.7190(4) 0.7976(4) 0.9700(3)
H41 H 0.7284 0.8602 0.9566
H50 H 0.7724 0.6706 0.9934
C51 C 0.8864(4) 0.8426(4) 0.9456(3)
H52 H 0.9447 0.8505 0.9673
H53 H 0.8654 0.7907 0.9118
C52 C 0.9105(5) 0.9285(5) 0.9086(4)
H54 H 0.8527 0.9256 0.8917
H55 H 0.9514 0.9351 0.8697
H56 H 0.9438 0.9828 0.9393
N13_3 N 0.1881(3) -0.0000(4) 0.3333
H39_2 H 0.3221 0.0083 0.2525
C48_2 C 0.0895(5) 0.0180(7) 0.4247(4)
H44_2 H 0.1473 0.0729 0.4416
H46_2 H 0.0562 0.0390 0.3940
C49_2 C 0.3180(6) 0.0528(8) 0.4226(4)
H47_2 H 0.2808 0.0481 0.4634
H48_2 H 0.3841 0.1011 0.4301
C50_2 C 0.2810(4) 0.0786(6) 0.3633(3)
H50_2 H 0.3294 0.1018 0.3267
H51_2 H 0.2716 0.1318 0.3767
C51_2 C 0.1574(4) 0.0438(6) 0.2789(3)
H52_2 H 0.1495 0.0942 0.3006
H53_2 H 0.2093 0.0747 0.2451
H55_2 H 0.0649 0.0163 0.2030
N13_4 N 0.1881(3) 1.0000(4) 0.3333
C45_2 C 0.2652(5) 0.9472(8) 0.2440(4)
H37_2 H 0.2327 0.9519 0.2032
H38_2 H 0.2830 0.8989 0.2365
C46_2 C 0.2024(4) 0.9214(6) 0.3033(3)
H40_2 H 0.2276 0.8982 0.3399
H41_2 H 0.1398 0.8682 0.2899
C47_2 C 0.1136(4) 0.9562(6) 0.3877(3)
H42_2 H 0.0553 0.9058 0.3660
H43_2 H 0.1346 0.9253 0.4215
H45_2 H 0.0486 0.9837 0.4636
H49_2 H 0.3138 0.9917 0.4141
C52_2 C 0.0715(5) 0.9820(7) 0.2419(4)
H54_2 H 0.0744 0.9271 0.2250
H56_2 H 0.0172 0.9610 0.2726
N13_5 N 0.0000(4) 0.1881(3) 0.6667
C45_3 C 0.0528(8) 0.3180(6) 0.5774(4)
H37_3 H 0.0481 0.2808 0.5366
H38_3 H 0.1011 0.3841 0.5699
C46_3 C 0.0786(6) 0.2810(4) 0.6367(3)
H40_3 H 0.1018 0.3294 0.6733
H41_3 H 0.1318 0.2716 0.6233
C47_3 C 0.0438(6) 0.1574(4) 0.7211(3)
H42_3 H 0.0942 0.1495 0.6994
H43_3 H 0.0747 0.2093 0.7549
H45_3 H 0.0163 0.0649 0.7970
H49_3 H 0.0083 0.3221 0.7475
C52_3 C 0.0180(7) 0.0895(5) 0.5753(4)
H54_3 H 0.0729 0.1473 0.5584
H56_3 H 0.0390 0.0562 0.6060
N13_6 N 1.0000(4) 0.1881(3) 0.6667
H39_3 H 0.9917 0.3138 0.5859
C48_3 C 0.9820(7) 0.0715(5) 0.7581(4)
H44_3 H 0.9271 0.0744 0.7750
H46_3 H 0.9610 0.0172 0.7274
C49_3 C 0.9472(8) 0.2652(5) 0.7560(4)
H47_3 H 0.9519 0.2327 0.7968
H48_3 H 0.8989 0.2830 0.7635
C50_3 C 0.9214(6) 0.2024(4) 0.6967(3)
H50_3 H 0.8982 0.2276 0.6601
H51_3 H 0.8682 0.1398 0.7101
C51_3 C 0.9562(6) 0.1136(4) 0.6123(3)
H52_3 H 0.9058 0.0553 0.6340
H53_3 H 0.9253 0.1346 0.5785
H55_3 H 0.9837 0.0486 0.5364
loop_
_geom_bond_atom_site_label_1
_geom_bond_atom_site_label_2
_geom_bond_site_symmetry_1
_geom_bond_site_symmetry_2
Cl3 C38 1_555 1_555
C39 C38 1_555 1_555
H35 C39 1_555 1_555
C40 C39 1_555 1_555
H36 C40 1_555 1_555
Cl1 C16 1_555 1_555
C17 C16 1_555 1_555
H17 C17 1_555 1_555
C18 C17 1_555 1_555
H18 C18 1_555 1_555
C1 H1 1_555 1_555
Fe1 C20 1_555 1_555
Fe2 N1 1_555 1_555
Cl2 C4 1_555 1_555
N1 C1 1_555 1_555
N2 Fe2 1_555 1_555
N3 Fe2 1_555 1_555
N4 C22 1_555 1_555
N5 C21 1_555 1_555
O1 Fe2 1_555 1_555
O2 Fe2 1_555 1_555
C2 C1 1_555 1_555
C3 C2 1_555 1_555
H2 C3 1_555 1_555
C4 C3 1_555 1_555
C5 C4 1_555 1_555
C6 C5 1_555 1_555
C7 O1 1_555 1_555
C8 N1 1_555 1_555
H5 C8 1_555 1_555
H6 C8 1_555 1_555
C9 C8 1_555 1_555
C10 C9 1_555 1_555
H7 C10 1_555 1_555
H8 C10 1_555 1_555
H9 C10 1_555 1_555
C11 C9 1_555 1_555
H10 C11 1_555 1_555
H11 C11 1_555 1_555
H12 C11 1_555 1_555
C12 N2 1_555 1_555
H13 C12 1_555 1_555
H14 C12 1_555 1_555
C13 N2 1_555 1_555
H15 C13 1_555 1_555
C14 C13 1_555 1_555
C15 C14 1_555 1_555
H16 C15 1_555 1_555
C19 O2 1_555 1_555
C20 N3 1_555 1_555
C21 Fe1 1_555 1_555
C22 Fe1 1_555 1_555
Fe5 N5 1_555 1_555
N12 Fe2 1_555 1_555
C2 C7 1_555 1_555
C6 C7 1_555 1_555
C9 C12 1_555 1_555
C14 C19 1_555 1_555
C23 H19 1_555 1_555
Fe3 N6 1_555 1_555
Cl4 C26 1_555 1_555
N6 C23 1_555 1_555
N7 Fe3 1_555 1_555
N8 Fe3 1_555 1_555
N9 C44 1_555 1_555
N10 C43 1_555 1_555
O3 Fe3 1_555 1_555
O4 Fe3 1_555 1_555
C24 C23 1_555 1_555
C25 C24 1_555 1_555
H20 C25 1_555 1_555
C26 C25 1_555 1_555
C27 C26 1_555 1_555
C28 C27 1_555 1_555
C29 O3 1_555 1_555
C30 N6 1_555 1_555
H23 C30 1_555 1_555
H24 C30 1_555 1_555
C31 C30 1_555 1_555
C32 C31 1_555 1_555
H25 C32 1_555 1_555
H26 C32 1_555 1_555
H27 C32 1_555 1_555
C33 C31 1_555 1_555
H28 C33 1_555 1_555
H29 C33 1_555 1_555
H30 C33 1_555 1_555
C34 N7 1_555 1_555
H31 C34 1_555 1_555
H32 C34 1_555 1_555
C35 N7 1_555 1_555
H33 C35 1_555 1_555
C36 C35 1_555 1_555
C37 C36 1_555 1_555
H34 C37 1_555 1_555
C41 O4 1_555 1_555
C42 Fe1_2 1_555 1_555
C43 Fe1_2 1_555 1_555
C44 Fe1_2 1_555 1_555
Fe4 N10 1_555 1_555
N11 Fe3 1_555 1_555
N8 C42 1_555 1_555
C24 C29 1_555 1_555
C28 C29 1_555 1_555
C31 C34 1_555 1_555
C36 C41 1_555 1_555
N5_2 C21_2 1_555 1_555
C21_2 Fe1_3 1_555 1_555
C23_2 H19_2 1_555 1_555
Fe5 N6_2 1_555 1_555
Cl3_2 C38_2 1_555 1_555
Cl4_2 C26_2 1_555 1_555
N6_2 C23_2 1_555 1_555
N7_2 Fe5 1_555 1_555
N8_2 Fe5 1_555 1_555
N9_2 C44_2 1_555 1_555
O3_2 Fe5 1_555 1_555
O4_2 Fe5 1_555 1_555
C24_2 C23_2 1_555 1_555
C25_2 C24_2 1_555 1_555
H20_2 C25_2 1_555 1_555
C26_2 C25_2 1_555 1_555
C27_2 C26_2 1_555 1_555
H21_2 C27_2 1_555 1_555
C28_2 C27_2 1_555 1_555
H22_2 C28_2 1_555 1_555
C29_2 O3_2 1_555 1_555
C30_2 N6_2 1_555 1_555
H23_2 C30_2 1_555 1_555
H24_2 C30_2 1_555 1_555
C31_2 C30_2 1_555 1_555
C32_2 C31_2 1_555 1_555
H25_2 C32_2 1_555 1_555
H26_2 C32_2 1_555 1_555
C33_2 C31_2 1_555 1_555
H28_2 C33_2 1_555 1_555
H29_2 C33_2 1_555 1_555
H30_2 C33_2 1_555 1_555
C34_2 N7_2 1_555 1_555
H31_2 C34_2 1_555 1_555
H32_2 C34_2 1_555 1_555
C35_2 N7_2 1_555 1_555
H33_2 C35_2 1_555 1_555
C36_2 C35_2 1_555 1_555
C37_2 C36_2 1_555 1_555
H34_2 C37_2 1_555 1_555
C38_2 C37_2 1_555 1_555
C39_2 C38_2 1_555 1_555
H35_2 C39_2 1_555 1_555
C40_2 C39_2 1_555 1_555
H36_2 C40_2 1_555 1_555
C41_2 O4_2 1_555 1_555
C42_2 Fe1_3 1_555 1_555
C44_2 Fe1_3 1_555 1_555
Fe5_2 N5_2 1_555 1_555
N8_2 C42_2 1_555 1_555
C24_2 C29_2 1_555 1_555
C28_2 C29_2 1_555 1_555
C31_2 C34_2 1_555 1_555
C36_2 C41_2 1_555 1_555
C40_2 C41_2 1_555 1_555
C1_2 H1_2 1_555 1_555
Fe1_4 C20_2 1_555 1_555
Fe2_2 N1_2 1_555 1_555
Cl2_2 C4_2 1_555 1_555
N1_2 C1_2 1_555 1_555
N2_2 Fe2_2 1_555 1_555
N3_2 Fe2_2 1_555 1_555
N4_2 C22_2 1_555 1_555
O1_2 Fe2_2 1_555 1_555
O2_2 Fe2_2 1_555 1_555
C2_2 C1_2 1_555 1_555
C3_2 C2_2 1_555 1_555
H2_2 C3_2 1_555 1_555
C4_2 C3_2 1_555 1_555
C5_2 C4_2 1_555 1_555
H3_2 C5_2 1_555 1_555
C6_2 C5_2 1_555 1_555
H4_2 C6_2 1_555 1_555
C7_2 O1_2 1_555 1_555
C8_2 N1_2 1_555 1_555
H5_2 C8_2 1_555 1_555
H6_2 C8_2 1_555 1_555
C9_2 C8_2 1_555 1_555
C10_2 C9_2 1_555 1_555
H7_2 C10_2 1_555 1_555
H8_2 C10_2 1_555 1_555
H9_2 C10_2 1_555 1_555
C11_2 C9_2 1_555 1_555
H10_2 C11_2 1_555 1_555
H11_2 C11_2 1_555 1_555
H12_2 C11_2 1_555 1_555
C12_2 N2_2 1_555 1_555
H13_2 C12_2 1_555 1_555
H14_2 C12_2 1_555 1_555
C13_2 N2_2 1_555 1_555
H15_2 C13_2 1_555 1_555
C14_2 C13_2 1_555 1_555
C15_2 C14_2 1_555 1_555
H16_2 C15_2 1_555 1_555
C19_2 O2_2 1_555 1_555
C20_2 N3_2 1_555 1_555
C22_2 Fe1_4 1_555 1_555
N12 C43_2 1_555 1_555
C43_2 Fe1_4 1_555 1_555
N12_2 Fe2_2 1_555 1_555
C2_2 C7_2 1_555 1_555
C6_2 C7_2 1_555 1_555
C9_2 C12_2 1_555 1_555
C14_2 C19_2 1_555 1_555
C1_3 H1_3 1_555 1_555
Fe1_5 C20_3 1_555 1_555
Fe4 N1_3 1_555 1_555
Cl1_2 C16_2 1_555 1_555
Cl2_3 C4_3 1_555 1_555
N1_3 C1_3 1_555 1_555
N2_3 Fe4 1_555 1_555
N3_3 Fe4 1_555 1_555
N4_3 C22_3 1_555 1_555
O1_3 Fe4 1_555 1_555
O2_3 Fe4 1_555 1_555
C2_3 C1_3 1_555 1_555
C3_3 C2_3 1_555 1_555
H2_3 C3_3 1_555 1_555
C4_3 C3_3 1_555 1_555
C5_3 C4_3 1_555 1_555
H3_3 C5_3 1_555 1_555
C6_3 C5_3 1_555 1_555
H4_3 C6_3 1_555 1_555
C7_3 O1_3 1_555 1_555
C8_3 N1_3 1_555 1_555
H5_3 C8_3 1_555 1_555
H6_3 C8_3 1_555 1_555
C9_3 C8_3 1_555 1_555
C10_3 C9_3 1_555 1_555
H7_3 C10_3 1_555 1_555
H8_3 C10_3 1_555 1_555
C11_3 C9_3 1_555 1_555
H10_3 C11_3 1_555 1_555
H11_3 C11_3 1_555 1_555
H12_3 C11_3 1_555 1_555
C12_3 N2_3 1_555 1_555
H13_3 C12_3 1_555 1_555
H14_3 C12_3 1_555 1_555
C13_3 N2_3 1_555 1_555
H15_3 C13_3 1_555 1_555
C14_3 C13_3 1_555 1_555
C15_3 C14_3 1_555 1_555
H16_3 C15_3 1_555 1_555
C16_2 C15_3 1_555 1_555
C17_2 C16_2 1_555 1_555
H17_2 C17_2 1_555 1_555
C18_2 C17_2 1_555 1_555
H18_2 C18_2 1_555 1_555
C19_3 O2_3 1_555 1_555
C20_3 N3_3 1_555 1_555
C22_3 Fe1_5 1_555 1_555
N12_2 C43_3 1_555 1_555
C43_3 Fe1_5 1_555 1_555
C2_3 C7_3 1_555 1_555
C6_3 C7_3 1_555 1_555
C9_3 C12_3 1_555 1_555
C14_3 C19_3 1_555 1_555
C18_2 C19_3 1_555 1_555
N11 C21_3 1_555 1_555
C21_3 Fe1_6 1_555 1_555
C23_3 H19_3 1_555 1_555
Fe5_2 N6_3 1_555 1_555
Cl4_3 C26_3 1_555 1_555
N6_3 C23_3 1_555 1_555
N7_3 Fe5_2 1_555 1_555
N8_3 Fe5_2 1_555 1_555
N9_3 C44_3 1_555 1_555
O3_3 Fe5_2 1_555 1_555
O4_3 Fe5_2 1_555 1_555
C24_3 C23_3 1_555 1_555
C25_3 C24_3 1_555 1_555
H20_3 C25_3 1_555 1_555
C26_3 C25_3 1_555 1_555
C27_3 C26_3 1_555 1_555
H21_3 C27_3 1_555 1_555
C28_3 C27_3 1_555 1_555
H22_3 C28_3 1_555 1_555
C29_3 O3_3 1_555 1_555
C30_3 N6_3 1_555 1_555
H23_3 C30_3 1_555 1_555
H24_3 C30_3 1_555 1_555
C31_3 C30_3 1_555 1_555
C32_3 C31_3 1_555 1_555
H25_3 C32_3 1_555 1_555
H26_3 C32_3 1_555 1_555
H27_2 C32_3 1_555 1_555
C33_3 C31_3 1_555 1_555
H28_3 C33_3 1_555 1_555
H29_3 C33_3 1_555 1_555
H30_3 C33_3 1_555 1_555
C34_3 N7_3 1_555 1_555
H31_3 C34_3 1_555 1_555
H32_3 C34_3 1_555 1_555
C35_3 N7_3 1_555 1_555
H33_3 C35_3 1_555 1_555
C36_3 C35_3 1_555 1_555
C37_3 C36_3 1_555 1_555
H34_3 C37_3 1_555 1_555
C41_3 O4_3 1_555 1_555
C42_3 Fe1_6 1_555 1_555
C44_3 Fe1_6 1_555 1_555
N8_3 C42_3 1_555 1_555
C24_3 C29_3 1_555 1_555
C28_3 C29_3 1_555 1_555
C31_3 C34_3 1_555 1_555
C36_3 C41_3 1_555 1_555
Cl1_3 C16_3 1_555 1_555
C17_3 C16_3 1_555 1_555
H17_3 C17_3 1_555 1_555
C18_3 C17_3 1_555 1_555
H18_3 C18_3 1_555 1_555
Cl3_3 C38_3 1_555 1_555
C39_3 C38_3 1_555 1_555
H35_3 C39_3 1_555 1_555
C40_3 C39_3 1_555 1_555
H36_3 C40_3 1_555 1_555
C47 N13 1_555 1_555
H42 C47 1_555 1_555
H43 C47 1_555 1_555
C48 C47 1_555 1_555
H44 C48 1_555 1_555
H45 C48 1_555 1_555
H46 C48 1_555 1_555
C49 H47 1_555 1_555
H48 C49 1_555 1_555
H49 C49 1_555 1_555
C50 N13 1_555 1_555
H51 C50 1_555 1_555
C49 C50 1_555 1_555
N13_2 C46 1_555 1_555
C45 H37 1_555 1_555
H38 C45 1_555 1_555
H39 C45 1_555 1_555
C46 C45 1_555 1_555
H41 C46 1_555 1_555
C51 N13_2 1_555 1_555
H52 C51 1_555 1_555
H53 C51 1_555 1_555
C52 C51 1_555 1_555
H54 C52 1_555 1_555
H55 C52 1_555 1_555
H56 C52 1_555 1_555
H44_2 C48_2 1_555 1_555
H46_2 C48_2 1_555 1_555
C49_2 H47_2 1_555 1_555
H48_2 C49_2 1_555 1_555
C50_2 N13_3 1_555 1_555
H50_2 C50_2 1_555 1_555
H51_2 C50_2 1_555 1_555
C51_2 N13_3 1_555 1_555
H52_2 C51_2 1_555 1_555
H53_2 C51_2 1_555 1_555
C49_2 C50_2 1_555 1_555
N13_4 C46_2 1_555 1_555
C45_2 H37_2 1_555 1_555
H38_2 C45_2 1_555 1_555
C46_2 C45_2 1_555 1_555
H40_2 C46_2 1_555 1_555
H41_2 C46_2 1_555 1_555
C47_2 N13_4 1_555 1_555
H42_2 C47_2 1_555 1_555
H43_2 C47_2 1_555 1_555
H54_2 C52_2 1_555 1_555
H56_2 C52_2 1_555 1_555
N13_5 C46_3 1_555 1_555
C45_3 H37_3 1_555 1_555
H38_3 C45_3 1_555 1_555
C46_3 C45_3 1_555 1_555
H40_3 C46_3 1_555 1_555
H41_3 C46_3 1_555 1_555
C47_3 N13_5 1_555 1_555
H42_3 C47_3 1_555 1_555
H43_3 C47_3 1_555 1_555
H54_3 C52_3 1_555 1_555
H56_3 C52_3 1_555 1_555
H44_3 C48_3 1_555 1_555
H46_3 C48_3 1_555 1_555
C49_3 H47_3 1_555 1_555
H48_3 C49_3 1_555 1_555
C50_3 N13_6 1_555 1_555
H50_3 C50_3 1_555 1_555
H51_3 C50_3 1_555 1_555
C51_3 N13_6 1_555 1_555
H52_3 C51_3 1_555 1_555
H53_3 C51_3 1_555 1_555
C49_3 C50_3 1_555 1_555

#END
