
###############################################################################
#
# This file contains modified crystal structure data generated from the
# MOF subset of the Cambridge Structural Database (CSD) v543 
# hosted by the Cambridge Crystallographic Data Centre (CCDC).
#
# This work is licensed under the Creative Commons
# Attribution-NonCommercial-ShareAlike 4.0 International License.
# To view a copy of this license, visit
# http://creativecommons.org/licenses/by-nc-sa/4.0/
# or send a letter to
# Creative Commons, PO Box 1866, Mountain View, CA 94042, USA.
#
# CIF created using the CSD Python API on 29 September 2022
# The structure has been converted into the P1 space group
# The structure has a 3D framework
# The original CSD entry FUBTUT is in the monoclinic crystal system
# The framework has been calculated to contain at least 10.0% void space
# The void calculation uses a probe of radius 1.32A, grid spacing 0.4
#
###############################################################################

data_FUBTUT
_chemical_formula_moiety         '(C48 H24 N8 O14)n'
_symmetry_cell_setting           triclinic
_symmetry_space_group_name_H-M   'P 1'
_symmetry_Int_Tables_number      1
_space_group_name_Hall           'P 1'
loop_
_symmetry_equiv_pos_site_id
_symmetry_equiv_pos_as_xyz
1 x,y,z
_cell_length_a                   10.8161(13)
_cell_length_b                   12.6809(15)
_cell_length_c                   13.4170(16)
_cell_angle_alpha                90
_cell_angle_beta                 111.147(2)
_cell_angle_gamma                90
_cell_volume                     1716.32
loop_
_atom_site_label
_atom_site_type_symbol
_atom_site_fract_x
_atom_site_fract_y
_atom_site_fract_z
O4 O 0.19807(19) 0.00621(16) 0.67368(15)
Co3 Co 0.10608(3) 0.07001(2) 0.52903(2)
C11 C 0.8318(3) 0.7871(2) 0.0145(3)
H5 H 0.9240 0.7884 0.0420
N2 N 0.7702(3) 0.8760(2) 0.0200(3)
Co4 Co 0.10608(3) 0.42999(2) 0.02903(2)
O6 O 0.02500(19) 0.60263(18) 0.12754(14)
C1 C 0.1361(2) 0.6259(2) 0.92923(19)
C2 C 0.2116(2) 0.7037(2) 0.88813(19)
C3 C 0.1433(2) 0.7781(2) 0.81261(19)
H1 H 0.0511 0.7778 0.7854
C4 C 0.2117(2) 0.8528(2) 0.77752(19)
C5 C 0.1391(3) 0.9251(2) 0.6869(2)
C6 C 0.3502(2) 0.8563(2) 0.8212(2)
H2 H 0.3959 0.9095 0.8014
C7 C 0.4195(2) 0.7795(2) 0.8948(2)
C8 C 0.3498(2) 0.7029(2) 0.9267(2)
H3 H 0.3958 0.6506 0.9743
C9 C 0.5670(2) 0.7810(2) 0.9373(2)
C10 C 0.6375(3) 0.8717(2) 0.9804(3)
H4 H 0.5903 0.9326 0.9819
C12 C 0.6419(2) 0.6941(2) 0.93495(19)
H6 H 0.5990 0.6316 0.9057
N1 N 0.7753(2) 0.69646(16) 0.97360(16)
O1 O 0.02108(18) 0.65268(15) 0.92128(15)
O2 O 0.19307(18) 0.54109(15) 0.96745(15)
O3 O 0.02500(19) 0.89737(18) 0.62754(14)
Co2 Co 0.89392(3) 0.57001(2) 0.97097(2)
O5 O 0.80693(18) 0.45891(15) 0.03255(15)
Co5 Co 0.89392(3) 0.92999(2) 0.47097(2)
O7 O 0.80193(19) 0.50621(16) 0.82632(15)
N3 N 0.2247(2) 0.19646(16) 0.52640(16)
O5_2 O 0.19307(18) 0.95891(15) 0.46745(15)
C1_2 C 0.8639(2) 0.1259(2) 0.57077(19)
C2_2 C 0.7884(2) 0.2037(2) 0.61187(19)
C3_2 C 0.8567(2) 0.2781(2) 0.68739(19)
H1_2 H 0.9489 0.2778 0.7146
C4_2 C 0.7883(2) 0.3528(2) 0.72248(19)
C5_2 C 0.8609(3) 0.4251(2) 0.8131(2)
C6_2 C 0.6498(2) 0.3563(2) 0.6788(2)
H2_2 H 0.6041 0.4095 0.6986
C7_2 C 0.5805(2) 0.2795(2) 0.6052(2)
C8_2 C 0.6502(2) 0.2029(2) 0.5733(2)
H3_2 H 0.6042 0.1506 0.5257
C9_2 C 0.4330(2) 0.2810(2) 0.5627(2)
C10_2 C 0.3625(3) 0.3717(2) 0.5196(3)
H4_2 H 0.4097 0.4326 0.5181
C11_2 C 0.1682(3) 0.2871(2) 0.4855(3)
H5_2 H 0.0760 0.2884 0.4580
C12_2 C 0.3581(2) 0.1941(2) 0.56505(19)
H6_2 H 0.4010 0.1316 0.5943
N2_2 N 0.2298(3) 0.3760(2) 0.4800(3)
O1_2 O 0.97892(18) 0.15268(15) 0.57872(15)
O2_2 O 0.80693(18) 0.04109(15) 0.53255(15)
O3_2 O 0.97500(19) 0.39737(18) 0.87246(14)
O6_2 O 0.97500(19) 0.10263(18) 0.37246(14)
N3_2 N 0.2247(2) 0.30354(16) 0.02640(16)
O7_2 O 0.19807(19) 0.49379(16) 0.17368(15)
C1_3 C 0.8639(2) 0.3741(2) 0.07077(19)
C2_3 C 0.7884(2) 0.2963(2) 0.11187(19)
C3_3 C 0.8567(2) 0.2219(2) 0.18739(19)
H1_3 H 0.9489 0.2222 0.2146
C4_3 C 0.7883(2) 0.1472(2) 0.22248(19)
C5_3 C 0.8609(3) 0.0749(2) 0.3131(2)
C6_3 C 0.6498(2) 0.1437(2) 0.1788(2)
H2_3 H 0.6041 0.0905 0.1986
C7_3 C 0.5805(2) 0.2205(2) 0.1052(2)
C8_3 C 0.6502(2) 0.2971(2) 0.0733(2)
H3_3 H 0.6042 0.3494 0.0257
C9_3 C 0.4330(2) 0.2190(2) 0.0627(2)
C10_3 C 0.3625(3) 0.1283(2) 0.0196(3)
H4_3 H 0.4097 0.0674 0.0181
C12_3 C 0.3581(2) 0.3059(2) 0.06505(19)
H6_3 H 0.4010 0.3684 0.0943
O1_3 O 0.97892(18) 0.34732(15) 0.07872(15)
C11_3 C 0.1682(3) 0.2129(2) 0.9855(3)
H5_3 H 0.0760 0.2116 0.9580
N2_3 N 0.2298(3) 0.1240(2) 0.9800(3)
O4_2 O 0.80193(19) 0.99379(16) 0.32632(15)
C1_4 C 0.1361(2) 0.8741(2) 0.42923(19)
C2_4 C 0.2116(2) 0.7963(2) 0.38813(19)
C3_4 C 0.1433(2) 0.7219(2) 0.31261(19)
H1_4 H 0.0511 0.7222 0.2854
C4_4 C 0.2117(2) 0.6472(2) 0.27752(19)
C5_4 C 0.1391(3) 0.5749(2) 0.1869(2)
C6_4 C 0.3502(2) 0.6437(2) 0.3212(2)
H2_4 H 0.3959 0.5905 0.3014
C7_4 C 0.4195(2) 0.7205(2) 0.3948(2)
C8_4 C 0.3498(2) 0.7971(2) 0.4267(2)
H3_4 H 0.3958 0.8494 0.4743
C9_4 C 0.5670(2) 0.7190(2) 0.4373(2)
C10_4 C 0.6375(3) 0.6283(2) 0.4804(3)
H4_4 H 0.5903 0.5674 0.4819
C11_4 C 0.8318(3) 0.7129(2) 0.5145(3)
H5_4 H 0.9240 0.7116 0.5420
C12_4 C 0.6419(2) 0.8059(2) 0.43495(19)
H6_4 H 0.5990 0.8684 0.4057
N1_2 N 0.7753(2) 0.80354(16) 0.47360(16)
N2_4 N 0.7702(3) 0.6240(2) 0.5200(3)
O1_4 O 0.02108(18) 0.84732(15) 0.42128(15)
loop_
_geom_bond_atom_site_label_1
_geom_bond_atom_site_label_2
_geom_bond_site_symmetry_1
_geom_bond_site_symmetry_2
Co3 O4 1_555 1_555
C11 H5 1_555 1_555
C11 N2 1_555 1_555
C1 C2 1_555 1_555
C2 C3 1_555 1_555
C3 H1 1_555 1_555
C4 C3 1_555 1_555
C5 C4 1_555 1_555
C6 C4 1_555 1_555
H2 C6 1_555 1_555
C7 C6 1_555 1_555
C8 C2 1_555 1_555
H3 C8 1_555 1_555
C9 C7 1_555 1_555
C10 C9 1_555 1_555
H4 C10 1_555 1_555
C12 C9 1_555 1_555
H6 C12 1_555 1_555
O1 C1 1_555 1_555
O2 C1 1_555 1_555
O3 C5 1_555 1_555
Co2 N1 1_555 1_555
C7 C8 1_555 1_555
C12 N1 1_555 1_555
O7 Co2 1_555 1_555
N3 Co3 1_555 1_555
C1_2 C2_2 1_555 1_555
C2_2 C3_2 1_555 1_555
C3_2 H1_2 1_555 1_555
C4_2 C3_2 1_555 1_555
C5_2 C4_2 1_555 1_555
C6_2 C4_2 1_555 1_555
H2_2 C6_2 1_555 1_555
C7_2 C6_2 1_555 1_555
C8_2 C2_2 1_555 1_555
H3_2 C8_2 1_555 1_555
C9_2 C7_2 1_555 1_555
C10_2 C9_2 1_555 1_555
H4_2 C10_2 1_555 1_555
C11_2 H5_2 1_555 1_555
C12_2 C9_2 1_555 1_555
H6_2 C12_2 1_555 1_555
N3 C11_2 1_555 1_555
N2_2 C10_2 1_555 1_555
O1_2 C1_2 1_555 1_555
O2_2 C1_2 1_555 1_555
O3_2 C5_2 1_555 1_555
O7 C5_2 1_555 1_555
C7_2 C8_2 1_555 1_555
C11_2 N2_2 1_555 1_555
C12_2 N3 1_555 1_555
N3_2 Co4 1_555 1_555
O7_2 Co4 1_555 1_555
C1_3 C2_3 1_555 1_555
C2_3 C3_3 1_555 1_555
C3_3 H1_3 1_555 1_555
C4_3 C3_3 1_555 1_555
C5_3 C4_3 1_555 1_555
C6_3 C4_3 1_555 1_555
H2_3 C6_3 1_555 1_555
C7_3 C6_3 1_555 1_555
C8_3 C2_3 1_555 1_555
H3_3 C8_3 1_555 1_555
C9_3 C7_3 1_555 1_555
C10_3 C9_3 1_555 1_555
H4_3 C10_3 1_555 1_555
C12_3 C9_3 1_555 1_555
H6_3 C12_3 1_555 1_555
O1_3 C1_3 1_555 1_555
O5 C1_3 1_555 1_555
O6_2 C5_3 1_555 1_555
C7_3 C8_3 1_555 1_555
C12_3 N3_2 1_555 1_555
C11_3 H5_3 1_555 1_555
C11_3 N2_3 1_555 1_555
Co5 O4_2 1_555 1_555
C1_4 C2_4 1_555 1_555
C2_4 C3_4 1_555 1_555
C3_4 H1_4 1_555 1_555
C4_4 C3_4 1_555 1_555
C5_4 C4_4 1_555 1_555
C6_4 C4_4 1_555 1_555
H2_4 C6_4 1_555 1_555
C7_4 C6_4 1_555 1_555
C8_4 C2_4 1_555 1_555
H3_4 C8_4 1_555 1_555
C9_4 C7_4 1_555 1_555
C10_4 C9_4 1_555 1_555
H4_4 C10_4 1_555 1_555
C11_4 H5_4 1_555 1_555
C12_4 C9_4 1_555 1_555
H6_4 C12_4 1_555 1_555
N1_2 C11_4 1_555 1_555
N2_4 C10_4 1_555 1_555
O1_4 C1_4 1_555 1_555
O5_2 C1_4 1_555 1_555
O6 C5_4 1_555 1_555
O7_2 C5_4 1_555 1_555
Co5 N1_2 1_555 1_555
C7_4 C8_4 1_555 1_555
C11_4 N2_4 1_555 1_555
C12_4 N1_2 1_555 1_555

#END
