
###############################################################################
#
# This file contains modified crystal structure data generated from the
# MOF subset of the Cambridge Structural Database (CSD) v543 
# hosted by the Cambridge Crystallographic Data Centre (CCDC).
#
# This work is licensed under the Creative Commons
# Attribution-NonCommercial-ShareAlike 4.0 International License.
# To view a copy of this license, visit
# http://creativecommons.org/licenses/by-nc-sa/4.0/
# or send a letter to
# Creative Commons, PO Box 1866, Mountain View, CA 94042, USA.
#
# CIF created using the CSD Python API on 29 September 2022
# The structure has been converted into the P1 space group
# The structure has a 3D framework
# The original CSD entry FUDGES is in the monoclinic crystal system
# The framework has been calculated to contain at least 10.0% void space
# The void calculation uses a probe of radius 1.32A, grid spacing 0.4
#
###############################################################################

data_FUDGES
_chemical_formula_moiety         '(C88 H88 N8 O46 Zn8)n'
_symmetry_cell_setting           triclinic
_symmetry_space_group_name_H-M   'P 1'
_symmetry_Int_Tables_number      1
_space_group_name_Hall           'P 1'
loop_
_symmetry_equiv_pos_site_id
_symmetry_equiv_pos_as_xyz
1 x,y,z
_cell_length_a                   10.289(2)
_cell_length_b                   15.763(3)
_cell_length_c                   24.796(5)
_cell_angle_alpha                90
_cell_angle_beta                 112.65(3)
_cell_angle_gamma                90
_cell_volume                     3711.39
loop_
_atom_site_label
_atom_site_type_symbol
_atom_site_fract_x
_atom_site_fract_y
_atom_site_fract_z
H8 H 0.0283 0.6269 0.7202
H10 H 0.0063 0.5370 0.7423
Zn7 Zn 0.29160(5) 0.01794(3) 0.144514(18)
O13 O 0.6200(4) 0.0504(2) 0.78605(14)
O17 O 0.7675(4) 0.0473(2) 0.92705(14)
O7 O 0.2325(4) 0.9527(2) 0.07295(14)
O8 O 0.4300(4) 0.8788(3) 0.09971(16)
C13 C 0.2529(4) 0.8523(3) 0.00669(18)
H6 H 0.4007 0.7593 0.0277
C16 C 0.3124(5) 0.8968(3) 0.06531(18)
Zn1 Zn 0.74215(5) 0.85377(3) 0.73507(2)
Zn2 Zn 0.70840(5) 0.98206(3) 0.855486(18)
O1 O 0.6184(4) 0.8237(2) 0.78411(17)
O2 O 0.5973(4) 0.8846(2) 0.86039(16)
O3 O 0.3800(4) 0.5504(2) 0.71395(14)
O4 O 0.2796(4) 0.4832(2) 0.76621(16)
O9 O 0.3424(3) 0.67293(18) 0.93451(12)
C1 C 0.3829(4) 0.6780(2) 0.88714(17)
C2 C 0.4578(5) 0.7468(3) 0.88043(18)
H1 H 0.4806 0.7913 0.9071
C3 C 0.4987(4) 0.7488(3) 0.83327(18)
C4 C 0.4661(4) 0.6818(3) 0.79408(18)
H2 H 0.4947 0.6832 0.7628
C5 C 0.3911(4) 0.6128(2) 0.80121(17)
C6 C 0.3495(4) 0.6107(2) 0.84863(17)
H3 H 0.2999 0.5644 0.8542
C7 C 0.5790(5) 0.8244(3) 0.82495(19)
C8 C 0.3476(4) 0.5423(3) 0.75803(18)
C9 C 0.2724(4) 0.7447(2) 0.94218(17)
C10 C 0.1577(5) 0.7759(3) 0.89677(17)
H4 H 0.1280 0.7506 0.8601
C11 C 0.0860(4) 0.8459(2) 0.90600(18)
C12 C 0.1340(4) 0.8834(3) 0.96135(18)
H5 H 0.0861 0.9297 0.9680
C14 C 0.3225(4) 0.7816(3) 0.99760(18)
O10 O 0.7524(7) 0.7242(4) 0.7213(3)
N1 N 0.8355(9) 0.6021(5) 0.7079(3)
C17 C 0.8290(11) 0.6884(7) 0.7214(4)
H7 H 0.9150 0.7164 0.7327
C18 C 0.9680(11) 0.5781(6) 0.7117(4)
H9 H 0.9612 0.5537 0.6752
C19 C 0.7257(10) 0.5453(6) 0.6967(4)
H11 H 0.7349 0.5003 0.6724
H12 H 0.6378 0.5741 0.6771
H13 H 0.7282 0.5221 0.7329
O11 O 0.5469(6) 0.8519(4) 0.6635(3)
N2 N 0.3204(7) 0.8270(5) 0.6533(3)
C20 C 0.4493(9) 0.8078(6) 0.6597(4)
H14 H 0.4682 0.7500 0.6617
C21 C 0.2912(8) 0.9166(6) 0.6525(4)
H15 H 0.1974 0.9247 0.6510
H16 H 0.2994 0.9421 0.6188
H17 H 0.3574 0.9425 0.6873
C22 C 0.2141(9) 0.7697(6) 0.6477(4)
H18 H 0.1303 0.7999 0.6443
H19 H 0.2428 0.7337 0.6815
H20 H 0.1954 0.7357 0.6134
O12 O 0.8550(5) 0.8729(3) 0.68151(19)
H21 H 0.829(9) 0.833(3) 0.653(2)
H22 H 0.857(9) 0.920(2) 0.661(3)
Zn4 Zn 0.25785(5) 0.35377(3) 0.76493(2)
Zn6 Zn 0.29160(5) 0.48206(3) 0.644514(18)
O14 O 0.7204(4) 0.9832(2) 0.73379(16)
O15 O 0.9206(4) 0.8450(2) 0.80929(14)
O16 O 0.8977(4) 0.9410(2) 0.87092(14)
C15 C 0.9577(4) 0.8791(3) 0.85759(18)
O5 O 0.0794(4) 0.3450(2) 0.69071(14)
O6 O 0.1023(4) 0.4410(2) 0.62908(14)
C15_2 C 0.0423(4) 0.3791(3) 0.64241(18)
O1_2 O 0.3816(4) 0.3237(2) 0.71589(17)
O2_2 O 0.4027(4) 0.3846(2) 0.63961(16)
O7_2 O 0.7675(4) 0.4527(2) 0.42705(14)
O8_2 O 0.5700(4) 0.3788(3) 0.40029(16)
O9_2 O 0.6576(3) 0.17293(18) 0.56549(12)
C1_2 C 0.6171(4) 0.1780(2) 0.61286(17)
C2_2 C 0.5422(5) 0.2468(3) 0.61957(18)
H1_2 H 0.5194 0.2913 0.5929
C3_2 C 0.5013(4) 0.2488(3) 0.66673(18)
C4_2 C 0.5339(4) 0.1818(3) 0.70592(18)
H2_2 H 0.5053 0.1832 0.7372
C5_2 C 0.6089(4) 0.1128(2) 0.69879(17)
C6_2 C 0.6505(4) 0.1107(2) 0.65137(17)
H3_2 H 0.7001 0.0644 0.6458
C7_2 C 0.4210(5) 0.3244(3) 0.67505(19)
C8_2 C 0.6524(4) 0.0423(3) 0.74197(18)
C9_2 C 0.7276(4) 0.2447(2) 0.55782(17)
C10_2 C 0.8423(5) 0.2759(3) 0.60323(17)
H4_2 H 0.8720 0.2506 0.6399
C11_2 C 0.9140(4) 0.3459(2) 0.59400(18)
C12_2 C 0.8660(4) 0.3834(3) 0.53865(18)
H5_2 H 0.9139 0.4297 0.5320
C13_2 C 0.7471(4) 0.3523(3) 0.49331(18)
C14_2 C 0.6775(4) 0.2816(3) 0.50240(18)
H6_2 H 0.5993 0.2593 0.4723
C16_2 C 0.6876(5) 0.3968(3) 0.43469(18)
O10_2 O 0.2476(7) 0.2242(4) 0.7787(3)
N1_2 N 0.1645(9) 0.1021(5) 0.7921(3)
C17_2 C 0.1710(11) 0.1884(7) 0.7786(4)
H7_2 H 0.0850 0.2164 0.7673
C18_2 C 0.0320(11) 0.0781(6) 0.7883(4)
H9_2 H 0.0388 0.0537 0.8248
C19_2 C 0.2743(10) 0.0453(6) 0.8033(4)
H11_2 H 0.2651 0.0003 0.8276
H12_2 H 0.3622 0.0741 0.8229
H13_2 H 0.2718 0.0221 0.7671
O11_2 O 0.4531(6) 0.3519(4) 0.8365(3)
N2_2 N 0.6796(7) 0.3270(5) 0.8467(3)
C20_2 C 0.5507(9) 0.3078(6) 0.8403(4)
H14_2 H 0.5318 0.2500 0.8383
C21_2 C 0.7088(8) 0.4166(6) 0.8475(4)
H15_2 H 0.8026 0.4247 0.8490
H16_2 H 0.7006 0.4421 0.8812
H17_2 H 0.6426 0.4425 0.8127
C22_2 C 0.7859(9) 0.2697(6) 0.8523(4)
H18_2 H 0.8697 0.2999 0.8557
H19_2 H 0.7572 0.2337 0.8185
H20_2 H 0.8046 0.2357 0.8866
O12_2 O 0.1450(5) 0.3729(3) 0.81849(19)
H21_2 H 0.171(9) 0.333(3) 0.847(2)
H22_2 H 0.143(9) 0.420(2) 0.839(3)
Zn7_2 Zn 0.70840(5) 0.51794(3) 0.355486(18)
O17_2 O 0.2325(4) 0.5473(2) 0.57295(14)
O5_2 O 0.0794(4) 0.1550(2) 0.19071(14)
O6_2 O 0.1023(4) 0.0590(2) 0.12908(14)
C15_3 C 0.0423(4) 0.1209(3) 0.14241(18)
Zn3 Zn 0.25785(5) 0.14623(3) 0.26493(2)
O1_3 O 0.3816(4) 0.1763(2) 0.21589(17)
O2_3 O 0.4027(4) 0.1154(2) 0.13961(16)
O3_2 O 0.6200(4) 0.4496(2) 0.28605(14)
O4_2 O 0.7204(4) 0.5168(2) 0.23379(16)
O9_3 O 0.6576(3) 0.32707(18) 0.06549(12)
C1_3 C 0.6171(4) 0.3220(2) 0.11286(17)
C2_3 C 0.5422(5) 0.2532(3) 0.11957(18)
H1_3 H 0.5194 0.2087 0.0929
C3_3 C 0.5013(4) 0.2512(3) 0.16673(18)
C4_3 C 0.5339(4) 0.3182(3) 0.20592(18)
H2_3 H 0.5053 0.3168 0.2372
C5_3 C 0.6089(4) 0.3872(2) 0.19879(17)
C6_3 C 0.6505(4) 0.3893(2) 0.15137(17)
H3_3 H 0.7001 0.4356 0.1458
C7_3 C 0.4210(5) 0.1756(3) 0.17505(19)
C8_3 C 0.6524(4) 0.4577(3) 0.24197(18)
C9_3 C 0.7276(4) 0.2553(2) 0.05782(17)
C10_3 C 0.8423(5) 0.2241(3) 0.10323(17)
H4_3 H 0.8720 0.2494 0.1399
C11_3 C 0.9140(4) 0.1541(2) 0.09400(18)
C12_3 C 0.8660(4) 0.1166(3) 0.03865(18)
H5_3 H 0.9139 0.0703 0.0320
C14_3 C 0.6775(4) 0.2184(3) 0.00240(18)
O10_3 O 0.2476(7) 0.2758(4) 0.2787(3)
N1_3 N 0.1645(9) 0.3979(5) 0.2921(3)
C17_3 C 0.1710(11) 0.3116(7) 0.2786(4)
H7_3 H 0.0850 0.2836 0.2673
C18_3 C 0.0320(11) 0.4219(6) 0.2883(4)
H9_3 H 0.0388 0.4463 0.3248
C19_3 C 0.2743(10) 0.4547(6) 0.3033(4)
H11_3 H 0.2651 0.4997 0.3276
H12_3 H 0.3622 0.4259 0.3229
H13_3 H 0.2718 0.4779 0.2671
O11_3 O 0.4531(6) 0.1481(4) 0.3365(3)
N2_3 N 0.6796(7) 0.1730(5) 0.3467(3)
C20_3 C 0.5507(9) 0.1922(6) 0.3403(4)
H14_3 H 0.5318 0.2500 0.3383
C21_3 C 0.7088(8) 0.0834(6) 0.3475(4)
H15_3 H 0.8026 0.0753 0.3490
H16_3 H 0.7006 0.0579 0.3812
H17_3 H 0.6426 0.0575 0.3127
C22_3 C 0.7859(9) 0.2303(6) 0.3523(4)
H18_3 H 0.8697 0.2001 0.3557
H19_3 H 0.7572 0.2663 0.3185
H20_3 H 0.8046 0.2643 0.3866
O12_3 O 0.1450(5) 0.1271(3) 0.31849(19)
H21_3 H 0.171(9) 0.167(3) 0.347(2)
H22_3 H 0.143(9) 0.080(2) 0.339(3)
Zn4_2 Zn 0.74215(5) 0.64623(3) 0.23507(2)
O14_2 O 0.2796(4) 0.0168(2) 0.26621(16)
O8_3 O 0.5700(4) 0.1212(3) 0.90029(16)
C13_3 C 0.7471(4) 0.1477(3) 0.99331(18)
H6_3 H 0.5993 0.2407 0.9723
C16_3 C 0.6876(5) 0.1032(3) 0.93469(18)
O13_2 O 0.3800(4) 0.9496(2) 0.21395(14)
O1_4 O 0.6184(4) 0.6763(2) 0.28411(17)
O2_4 O 0.5973(4) 0.6154(2) 0.36039(16)
O8_4 O 0.4300(4) 0.6212(3) 0.59971(16)
O9_4 O 0.3424(3) 0.82707(18) 0.43451(12)
C1_4 C 0.3829(4) 0.8220(2) 0.38714(17)
C2_4 C 0.4578(5) 0.7532(3) 0.38043(18)
H1_4 H 0.4806 0.7087 0.4071
C3_4 C 0.4987(4) 0.7512(3) 0.33327(18)
C4_4 C 0.4661(4) 0.8182(3) 0.29408(18)
H2_4 H 0.4947 0.8168 0.2628
C5_4 C 0.3911(4) 0.8872(2) 0.30121(17)
C6_4 C 0.3495(4) 0.8893(2) 0.34863(17)
H3_4 H 0.2999 0.9356 0.3542
C7_4 C 0.5790(5) 0.6756(3) 0.32495(19)
C8_4 C 0.3476(4) 0.9577(3) 0.25803(18)
C9_4 C 0.2724(4) 0.7553(2) 0.44218(17)
C10_4 C 0.1577(5) 0.7241(3) 0.39677(17)
H4_4 H 0.1280 0.7494 0.3601
C11_4 C 0.0860(4) 0.6541(2) 0.40600(18)
C12_4 C 0.1340(4) 0.6166(3) 0.46135(18)
H5_4 H 0.0861 0.5703 0.4680
C13_4 C 0.2529(4) 0.6477(3) 0.50669(18)
C14_4 C 0.3225(4) 0.7184(3) 0.49760(18)
H6_4 H 0.4007 0.7407 0.5277
C16_4 C 0.3124(5) 0.6032(3) 0.56531(18)
O10_4 O 0.7524(7) 0.7758(4) 0.2213(3)
N1_4 N 0.8355(9) 0.8979(5) 0.2079(3)
C17_4 C 0.8290(11) 0.8116(7) 0.2214(4)
H7_4 H 0.9150 0.7836 0.2327
C18_4 C 0.9680(11) 0.9219(6) 0.2117(4)
H9_4 H 0.9612 0.9463 0.1752
C19_4 C 0.7257(10) 0.9547(6) 0.1967(4)
H11_4 H 0.7349 0.9997 0.1724
H12_4 H 0.6378 0.9259 0.1771
H13_4 H 0.7282 0.9779 0.2329
O11_4 O 0.5469(6) 0.6481(4) 0.1635(3)
N2_4 N 0.3204(7) 0.6730(5) 0.1533(3)
C20_4 C 0.4493(9) 0.6922(6) 0.1597(4)
H14_4 H 0.4682 0.7500 0.1617
C21_4 C 0.2912(8) 0.5834(6) 0.1525(4)
H15_4 H 0.1974 0.5753 0.1510
H16_4 H 0.2994 0.5579 0.1188
H17_4 H 0.3574 0.5575 0.1873
C22_4 C 0.2141(9) 0.7303(6) 0.1477(4)
H18_4 H 0.1303 0.7001 0.1443
H19_4 H 0.2428 0.7663 0.1815
H20_4 H 0.1954 0.7643 0.1134
O12_4 O 0.8550(5) 0.6271(3) 0.18151(19)
H21_4 H 0.829(9) 0.667(3) 0.153(2)
H22_4 H 0.857(9) 0.580(2) 0.161(3)
O15_2 O 0.9206(4) 0.6550(2) 0.30929(14)
O16_2 O 0.8977(4) 0.5590(2) 0.37092(14)
C15_4 C 0.9577(4) 0.6209(3) 0.35759(18)
H8_2 H 0.9717 0.1269 0.7798
H10_2 H 0.9937 0.0370 0.7577
H8_3 H 0.9717 0.3731 0.2798
H10_3 H 0.9937 0.4630 0.2577
H8_4 H 0.0283 0.8731 0.2202
H10_4 H 0.0063 0.9630 0.2423
loop_
_geom_bond_atom_site_label_1
_geom_bond_atom_site_label_2
_geom_bond_site_symmetry_1
_geom_bond_site_symmetry_2
O7 C16 1_555 1_555
O8 C16 1_555 1_555
C16 C13 1_555 1_555
Zn1 O1 1_555 1_555
Zn2 O2 1_555 1_555
O1 C7 1_555 1_555
O2 C7 1_555 1_555
O3 C8 1_555 1_555
O4 C8 1_555 1_555
O9 C1 1_555 1_555
C1 C2 1_555 1_555
C2 H1 1_555 1_555
C3 C2 1_555 1_555
C4 C3 1_555 1_555
H2 C4 1_555 1_555
C5 C4 1_555 1_555
C6 C1 1_555 1_555
H3 C6 1_555 1_555
C7 C3 1_555 1_555
C8 C5 1_555 1_555
C9 O9 1_555 1_555
C10 C9 1_555 1_555
H4 C10 1_555 1_555
C11 C10 1_555 1_555
C12 C11 1_555 1_555
H5 C12 1_555 1_555
C14 C9 1_555 1_555
O10 Zn1 1_555 1_555
N1 C17 1_555 1_555
C17 O10 1_555 1_555
H7 C17 1_555 1_555
C18 N1 1_555 1_555
H9 C18 1_555 1_555
C19 N1 1_555 1_555
H11 C19 1_555 1_555
H12 C19 1_555 1_555
H13 C19 1_555 1_555
O11 Zn1 1_555 1_555
N2 C20 1_555 1_555
C20 O11 1_555 1_555
H14 C20 1_555 1_555
C21 N2 1_555 1_555
H15 C21 1_555 1_555
H16 C21 1_555 1_555
H17 C21 1_555 1_555
C22 N2 1_555 1_555
H18 C22 1_555 1_555
H19 C22 1_555 1_555
H20 C22 1_555 1_555
O12 Zn1 1_555 1_555
H21 O12 1_555 1_555
H22 O12 1_555 1_555
Zn4 O4 1_555 1_555
Zn6 O3 1_555 1_555
O14 Zn1 1_555 1_555
O15 Zn1 1_555 1_555
O16 Zn2 1_555 1_555
C5 C6 1_555 1_555
O15 C15 1_555 1_555
O16 C15 1_555 1_555
O5 C15_2 1_555 1_555
O6 C15_2 1_555 1_555
Zn4 O5 1_555 1_555
Zn6 O6 1_555 1_555
Zn4 O1_2 1_555 1_555
Zn6 O2_2 1_555 1_555
O1_2 C7_2 1_555 1_555
O2_2 C7_2 1_555 1_555
O13 C8_2 1_555 1_555
O7_2 C16_2 1_555 1_555
O8_2 C16_2 1_555 1_555
O9_2 C1_2 1_555 1_555
C1_2 C2_2 1_555 1_555
C2_2 H1_2 1_555 1_555
C3_2 C2_2 1_555 1_555
C4_2 C3_2 1_555 1_555
H2_2 C4_2 1_555 1_555
C5_2 C4_2 1_555 1_555
C6_2 C1_2 1_555 1_555
H3_2 C6_2 1_555 1_555
C7_2 C3_2 1_555 1_555
C8_2 C5_2 1_555 1_555
C9_2 O9_2 1_555 1_555
C10_2 C9_2 1_555 1_555
H4_2 C10_2 1_555 1_555
C11_2 C10_2 1_555 1_555
C12_2 C11_2 1_555 1_555
H5_2 C12_2 1_555 1_555
C13_2 C12_2 1_555 1_555
C14_2 C9_2 1_555 1_555
H6_2 C14_2 1_555 1_555
C16_2 C13_2 1_555 1_555
O10_2 Zn4 1_555 1_555
N1_2 C17_2 1_555 1_555
C17_2 O10_2 1_555 1_555
H7_2 C17_2 1_555 1_555
C18_2 N1_2 1_555 1_555
H9_2 C18_2 1_555 1_555
C19_2 N1_2 1_555 1_555
H11_2 C19_2 1_555 1_555
H12_2 C19_2 1_555 1_555
H13_2 C19_2 1_555 1_555
O11_2 Zn4 1_555 1_555
N2_2 C20_2 1_555 1_555
C20_2 O11_2 1_555 1_555
H14_2 C20_2 1_555 1_555
C21_2 N2_2 1_555 1_555
H15_2 C21_2 1_555 1_555
H16_2 C21_2 1_555 1_555
H17_2 C21_2 1_555 1_555
C22_2 N2_2 1_555 1_555
H18_2 C22_2 1_555 1_555
H19_2 C22_2 1_555 1_555
H20_2 C22_2 1_555 1_555
O12_2 Zn4 1_555 1_555
H21_2 O12_2 1_555 1_555
H22_2 O12_2 1_555 1_555
Zn7_2 O7_2 1_555 1_555
O17_2 Zn6 1_555 1_555
C5_2 C6_2 1_555 1_555
C13_2 C14_2 1_555 1_555
O5_2 C15_3 1_555 1_555
O6_2 C15_3 1_555 1_555
Zn3 O5_2 1_555 1_555
Zn7 O6_2 1_555 1_555
Zn3 O1_3 1_555 1_555
Zn7 O2_3 1_555 1_555
O1_3 C7_3 1_555 1_555
O2_3 C7_3 1_555 1_555
O3_2 C8_3 1_555 1_555
O4_2 C8_3 1_555 1_555
O9_3 C1_3 1_555 1_555
C1_3 C2_3 1_555 1_555
C2_3 H1_3 1_555 1_555
C3_3 C2_3 1_555 1_555
C4_3 C3_3 1_555 1_555
H2_3 C4_3 1_555 1_555
C5_3 C4_3 1_555 1_555
C6_3 C1_3 1_555 1_555
H3_3 C6_3 1_555 1_555
C7_3 C3_3 1_555 1_555
C8_3 C5_3 1_555 1_555
C9_3 O9_3 1_555 1_555
C10_3 C9_3 1_555 1_555
H4_3 C10_3 1_555 1_555
C11_3 C10_3 1_555 1_555
C12_3 C11_3 1_555 1_555
H5_3 C12_3 1_555 1_555
C14_3 C9_3 1_555 1_555
O10_3 Zn3 1_555 1_555
N1_3 C17_3 1_555 1_555
C17_3 O10_3 1_555 1_555
H7_3 C17_3 1_555 1_555
C18_3 N1_3 1_555 1_555
H9_3 C18_3 1_555 1_555
C19_3 N1_3 1_555 1_555
H11_3 C19_3 1_555 1_555
H12_3 C19_3 1_555 1_555
H13_3 C19_3 1_555 1_555
O11_3 Zn3 1_555 1_555
N2_3 C20_3 1_555 1_555
C20_3 O11_3 1_555 1_555
H14_3 C20_3 1_555 1_555
C21_3 N2_3 1_555 1_555
H15_3 C21_3 1_555 1_555
H16_3 C21_3 1_555 1_555
H17_3 C21_3 1_555 1_555
C22_3 N2_3 1_555 1_555
H18_3 C22_3 1_555 1_555
H19_3 C22_3 1_555 1_555
H20_3 C22_3 1_555 1_555
O12_3 Zn3 1_555 1_555
H21_3 O12_3 1_555 1_555
H22_3 O12_3 1_555 1_555
Zn4_2 O4_2 1_555 1_555
Zn7_2 O3_2 1_555 1_555
O14_2 Zn3 1_555 1_555
C5_3 C6_3 1_555 1_555
O17 C16_3 1_555 1_555
O8_3 C16_3 1_555 1_555
C16_3 C13_3 1_555 1_555
Zn4_2 O1_4 1_555 1_555
Zn7_2 O2_4 1_555 1_555
O1_4 C7_4 1_555 1_555
O2_4 C7_4 1_555 1_555
O13_2 C8_4 1_555 1_555
O17_2 C16_4 1_555 1_555
O8_4 C16_4 1_555 1_555
O9_4 C1_4 1_555 1_555
C1_4 C2_4 1_555 1_555
C2_4 H1_4 1_555 1_555
C3_4 C2_4 1_555 1_555
C4_4 C3_4 1_555 1_555
H2_4 C4_4 1_555 1_555
C5_4 C4_4 1_555 1_555
C6_4 C1_4 1_555 1_555
H3_4 C6_4 1_555 1_555
C7_4 C3_4 1_555 1_555
C8_4 C5_4 1_555 1_555
C9_4 O9_4 1_555 1_555
C10_4 C9_4 1_555 1_555
H4_4 C10_4 1_555 1_555
C11_4 C10_4 1_555 1_555
C12_4 C11_4 1_555 1_555
H5_4 C12_4 1_555 1_555
C13_4 C12_4 1_555 1_555
C14_4 C9_4 1_555 1_555
H6_4 C14_4 1_555 1_555
C16_4 C13_4 1_555 1_555
O10_4 Zn4_2 1_555 1_555
N1_4 C17_4 1_555 1_555
C17_4 O10_4 1_555 1_555
H7_4 C17_4 1_555 1_555
C18_4 N1_4 1_555 1_555
H9_4 C18_4 1_555 1_555
C19_4 N1_4 1_555 1_555
H11_4 C19_4 1_555 1_555
H12_4 C19_4 1_555 1_555
H13_4 C19_4 1_555 1_555
O11_4 Zn4_2 1_555 1_555
N2_4 C20_4 1_555 1_555
C20_4 O11_4 1_555 1_555
H14_4 C20_4 1_555 1_555
C21_4 N2_4 1_555 1_555
H15_4 C21_4 1_555 1_555
H16_4 C21_4 1_555 1_555
H17_4 C21_4 1_555 1_555
C22_4 N2_4 1_555 1_555
H18_4 C22_4 1_555 1_555
H19_4 C22_4 1_555 1_555
H20_4 C22_4 1_555 1_555
O12_4 Zn4_2 1_555 1_555
H21_4 O12_4 1_555 1_555
H22_4 O12_4 1_555 1_555
O15_2 Zn4_2 1_555 1_555
O16_2 Zn7_2 1_555 1_555
C5_4 C6_4 1_555 1_555
C13_4 C14_4 1_555 1_555
O15_2 C15_4 1_555 1_555
O16_2 C15_4 1_555 1_555

#END
