
###############################################################################
#
# This file contains modified crystal structure data generated from the
# MOF subset of the Cambridge Structural Database (CSD) v543 
# hosted by the Cambridge Crystallographic Data Centre (CCDC).
#
# This work is licensed under the Creative Commons
# Attribution-NonCommercial-ShareAlike 4.0 International License.
# To view a copy of this license, visit
# http://creativecommons.org/licenses/by-nc-sa/4.0/
# or send a letter to
# Creative Commons, PO Box 1866, Mountain View, CA 94042, USA.
#
# CIF created using the CSD Python API on 29 September 2022
# The structure has been converted into the P1 space group
# The structure has a 3D framework
# The original CSD entry FUDHET is in the monoclinic crystal system
# The framework has been calculated to contain at least 10.0% void space
# The void calculation uses a probe of radius 1.32A, grid spacing 0.4
# H atom positions have been added when not included in the experimental data
#
###############################################################################

data_FUDHET
_chemical_formula_moiety         '(C144 H128 Co12 O96 S8)n'
_symmetry_cell_setting           triclinic
_symmetry_space_group_name_H-M   'P 1'
_symmetry_Int_Tables_number      1
_space_group_name_Hall           'P 1'
loop_
_symmetry_equiv_pos_site_id
_symmetry_equiv_pos_as_xyz
1 x,y,z
_cell_length_a                   21.818(4)
_cell_length_b                   14.704(3)
_cell_length_c                   26.282(5)
_cell_angle_alpha                90
_cell_angle_beta                 126.84(3)
_cell_angle_gamma                90
_cell_volume                     6747.9
loop_
_atom_site_label
_atom_site_type_symbol
_atom_site_fract_x
_atom_site_fract_y
_atom_site_fract_z
O5 O 0.5502(3) 0.7013(4) 0.1332(3)
O6 O 0.4486(3) 0.6659(5) 0.1274(3)
C10 C 0.4598(5) 0.7661(5) 0.0074(4)
H4 H 0.5125 0.7657 0.0286
C11 C 0.4290(4) 0.7367(5) 0.0378(4)
C12 C 0.3477(4) 0.7442(6) 0.0053(3)
H5 H 0.3261 0.7252 0.0251
C15 C 0.4768(4) 0.6996(6) 0.1011(3)
Co5 Co 0.64748(5) 0.64316(7) 0.14220(4)
Co7 Co 0.55930(6) 0.65727(7) 0.21735(5)
Co11 Co 0.17963(6) 0.82545(7) 0.00822(5)
Co1 Co 0.35252(5) 0.35684(7) 0.85780(4)
Co2 Co 0.44070(6) 0.34273(7) 0.78265(5)
O1 O 0.3870(3) 0.4877(4) 0.8553(3)
O2 O 0.4191(4) 0.4733(4) 0.7887(3)
O3 O 0.5217(4) 0.7253(4) 0.7420(3)
O4 O 0.5269(4) 0.8608(4) 0.7776(3)
O7 O 0.1850(3) 0.7739(4) 0.9354(3)
O8 O 0.1772(3) 0.8114(5) 0.8510(3)
O9 O 0.4423(4) 0.8272(4) 0.9147(3)
O10 O 0.3330(3) 0.3015(5) 0.7156(3)
O11 O 0.2758(3) 0.3366(5) 0.7603(3)
O12 O 0.0006(3) 0.2758(6) 0.6402(3)
O16 O 0.0821(5) 0.5583(5) 0.3652(3)
O17 O 0.1357(4) 0.5476(4) 0.4686(3)
O18 O 0.1242(3) 0.2029(4) 0.4949(3)
C1 C 0.4461(4) 0.7663(5) 0.8777(4)
C2 C 0.4264(4) 0.6735(5) 0.8725(4)
H1 H 0.4083 0.6505 0.8942
C3 C 0.4344(4) 0.6176(5) 0.8347(4)
C4 C 0.4634(5) 0.6504(6) 0.8035(4)
H2 H 0.4696 0.6113 0.7791
C5 C 0.4827(4) 0.7392(5) 0.8086(4)
C6 C 0.4752(4) 0.7979(5) 0.8470(4)
H3 H 0.4901 0.8584 0.8516
C7 C 0.4126(5) 0.5171(5) 0.8260(4)
C8 C 0.5129(5) 0.7765(6) 0.7743(4)
C9 C 0.4114(5) 0.7961(5) 0.9457(4)
C13 C 0.3022(4) 0.7793(5) 0.9452(3)
C14 C 0.3337(5) 0.8054(6) 0.9144(4)
H6 H 0.3028 0.8287 0.8733
C16 C 0.2161(4) 0.7885(5) 0.9079(4)
C17 C 0.1263(4) 0.2357(5) 0.5455(3)
C18 C 0.1980(5) 0.2576(6) 0.6025(4)
H7 H 0.2427 0.2546 0.6056
C19 C 0.1992(4) 0.2843(6) 0.6545(4)
C20 C 0.1343(4) 0.2883(6) 0.6501(3)
H8 H 0.1368 0.3067 0.6852
C21 C 0.0640(5) 0.2652(6) 0.5941(4)
C22 C 0.0594(4) 0.2424(6) 0.5408(3)
H9 H 0.0120 0.2316 0.5022
C23 C 0.2754(5) 0.3111(6) 0.7153(4)
C25 C 0.1001(4) 0.2639(6) 0.4465(3)
C26 C 0.0624(5) 0.2298(6) 0.3852(4)
H10 H 0.0539 0.1675 0.3781
C27 C 0.0375(4) 0.2876(6) 0.3344(3)
C28 C 0.0493(5) 0.3797(6) 0.3443(3)
H11 H 0.0319 0.4183 0.3101
C29 C 0.0872(4) 0.4158(5) 0.4052(4)
C30 C 0.1122(4) 0.3575(6) 0.4575(3)
H12 H 0.1361 0.3811 0.4981
C32 C 0.1028(5) 0.5177(6) 0.4138(4)
O19 O 0.2596(4) 0.4171(5) 0.8519(4)
S1 S 0.20933(18) 0.4885(2) 0.80462(17)
C33 C 0.2260(7) 0.5929(8) 0.8392(7)
H13 H 0.2776 0.6113 0.8578
H14 H 0.2186 0.5897 0.8717
H15 H 0.1910 0.6364 0.8076
C34 C 0.1207(7) 0.4582(8) 0.7733(7)
H16 H 0.1103 0.4001 0.7529
H17 H 0.0860 0.5027 0.7425
H18 H 0.1140 0.4542 0.8061
O21 O 0.4067(4) 0.3637(5) 0.9574(3)
O22 O 0.3312(4) 0.2223(4) 0.8689(4)
Co6 Co 0.55930(6) 0.84273(7) 0.71735(5)
Co8 Co 0.07371(6) 0.81097(7) 0.84084(5)
Co9 Co 0.07371(6) 0.68903(7) 0.34084(5)
Co12 Co 0.17963(6) 0.67455(7) 0.50822(5)
O25 O 0.4783(4) 0.2253(4) 0.7580(3)
O26 O 0.4731(4) 0.3608(4) 0.7224(3)
O27 O 0.4498(3) 0.2987(4) 0.8668(3)
O28 O 0.5514(3) 0.3341(5) 0.8726(3)
H29 H 0.346924 0.213526 0.912703
H30 H 0.275684 0.20908 0.837742
H31 H 0.384456 0.414682 0.966217
H32 H 0.398384 0.305676 0.971786
Co3 Co 0.92629(6) 0.31097(7) 0.65916(5)
Co4 Co 0.82037(6) 0.32545(7) 0.49178(5)
O13 O 0.9291(3) 0.2732(6) 0.5347(3)
O14 O 0.9982(4) 0.1684(4) 0.2593(3)
O15 O 0.9599(4) 0.3049(4) 0.2222(3)
C24 C 0.9915(4) 0.2739(6) 0.5900(4)
C31 C 0.9955(5) 0.2530(7) 0.2675(4)
O20 O 0.7116(5) 0.3828(7) 0.4457(5)
S2 S 0.6644(2) 0.4275(3) 0.38407(18)
C35 C 0.5754(8) 0.4413(11) 0.3657(7)
H19 H 0.5511 0.3830 0.3569
H20 H 0.5452 0.4795 0.3289
H21 H 0.5800 0.4690 0.4009
C36 C 0.6946(8) 0.5384(11) 0.3992(7)
H22 H 0.7453 0.5419 0.4106
H23 H 0.6949 0.5611 0.4336
H24 H 0.6604 0.5745 0.3619
O23 O 0.8211(4) 0.3706(6) 0.4153(3)
O24 O 0.7693(5) 0.2029(5) 0.4420(4)
Co10 Co 0.92629(6) 0.18903(7) 0.15916(5)
O29 O 0.8150(3) 0.2739(4) 0.5646(3)
O30 O 0.8228(3) 0.3114(5) 0.6490(3)
O31 O 0.9982(4) 0.3316(4) 0.7593(3)
O32 O 0.9599(4) 0.1951(4) 0.7222(3)
O33 O 0.9179(5) 0.4417(5) 0.6348(3)
O34 O 0.8643(4) 0.4524(4) 0.5314(3)
H25 H 0.827369 0.31753 0.395429
H26 H 0.772011 0.401769 0.383135
H27 H 0.785994 0.152429 0.47283
H28 H 0.712698 0.208822 0.415372
O14_2 O 0.0018(4) 0.6684(4) 0.2407(3)
O15_2 O 0.0401(4) 0.8049(4) 0.2778(3)
C31_2 C 0.0045(5) 0.7530(7) 0.2325(4)
O20_2 O 0.2884(5) 0.8828(7) 0.0543(5)
S2_2 S 0.3356(2) 0.9275(3) 0.11593(18)
C35_2 C 0.4246(8) 0.9413(11) 0.1343(7)
H19_2 H 0.4489 0.8830 0.1431
H20_2 H 0.4548 0.9795 0.1711
H21_2 H 0.4200 0.9690 0.0991
O23_2 O 0.1789(4) 0.8706(6) 0.0847(3)
O24_2 O 0.2307(5) 0.7029(5) 0.0580(4)
H25_2 H 0.172631 0.81753 0.104571
H26_2 H 0.227989 0.901769 0.116865
H27_2 H 0.214006 0.652429 0.0271704
H28_2 H 0.287302 0.708822 0.0846278
O13_2 O 0.0709(3) 0.7732(6) 0.9653(3)
C24_2 C 0.0085(4) 0.7739(6) 0.9100(4)
O31_2 O 0.0018(4) 0.8316(4) 0.7407(3)
O32_2 O 0.0401(4) 0.6951(4) 0.7778(3)
O33_2 O 0.0821(5) 0.9417(5) 0.8652(3)
O34_2 O 0.1357(4) 0.9524(4) 0.9686(3)
O16_2 O 0.9179(5) 0.0583(5) 0.1348(3)
O17_2 O 0.8643(4) 0.0476(4) 0.0314(3)
C32_2 C 0.8972(5) 0.0177(6) 0.0862(4)
O5_2 O 0.4498(3) 0.2013(4) 0.3668(3)
O6_2 O 0.5514(3) 0.1659(5) 0.3726(3)
O9_2 O 0.5577(4) 0.3272(4) 0.5853(3)
C1_2 C 0.5539(4) 0.2663(5) 0.6223(4)
C2_2 C 0.5736(4) 0.1735(5) 0.6275(4)
H1_2 H 0.5917 0.1505 0.6058
C3_2 C 0.5656(4) 0.1176(5) 0.6653(4)
C4_2 C 0.5366(5) 0.1504(6) 0.6965(4)
H2_2 H 0.5304 0.1113 0.7209
C5_2 C 0.5173(4) 0.2392(5) 0.6914(4)
C6_2 C 0.5248(4) 0.2979(5) 0.6530(4)
H3_2 H 0.5099 0.3584 0.6484
C7_2 C 0.5874(5) 0.0171(5) 0.6740(4)
C8_2 C 0.4871(5) 0.2765(6) 0.7257(4)
C9_2 C 0.5886(5) 0.2961(5) 0.5543(4)
C10_2 C 0.5402(5) 0.2661(5) 0.4926(4)
H4_2 H 0.4875 0.2657 0.4714
C11_2 C 0.5710(4) 0.2367(5) 0.4622(4)
C12_2 C 0.6523(4) 0.2442(6) 0.4947(3)
H5_2 H 0.6739 0.2252 0.4749
C13_2 C 0.6978(4) 0.2793(5) 0.5548(3)
C14_2 C 0.6663(5) 0.3054(6) 0.5856(4)
H6_2 H 0.6972 0.3287 0.6267
C15_2 C 0.5232(4) 0.1996(6) 0.3989(3)
C16_2 C 0.7839(4) 0.2885(5) 0.5921(4)
C33_2 C 0.7740(7) 0.0929(8) 0.6608(7)
H13_2 H 0.7224 0.1113 0.6422
H14_2 H 0.7814 0.0897 0.6283
H15_2 H 0.8090 0.1364 0.6924
H17_2 H 0.9140 0.0027 0.7575
Co5_2 Co 0.35252(5) 0.14316(7) 0.35780(4)
Co7_2 Co 0.44070(6) 0.15727(7) 0.28265(5)
Co12_2 Co 0.82037(6) 0.17455(7) 0.99178(5)
Co1_2 Co 0.64748(5) 0.85684(7) 0.64220(4)
O1_2 O 0.6130(3) 0.9877(4) 0.6447(3)
O2_2 O 0.5809(4) 0.9733(4) 0.7113(3)
O10_2 O 0.6670(3) 0.8015(5) 0.7844(3)
O11_2 O 0.7242(3) 0.8366(5) 0.7397(3)
O12_2 O 0.9994(3) 0.7758(6) 0.8598(3)
C17_2 C 0.8737(4) 0.7357(5) 0.9545(3)
C18_2 C 0.8020(5) 0.7576(6) 0.8975(4)
H7_2 H 0.7573 0.7546 0.8944
C19_2 C 0.8008(4) 0.7843(6) 0.8455(4)
C20_2 C 0.8657(4) 0.7883(6) 0.8499(3)
H8_2 H 0.8632 0.8067 0.8148
C21_2 C 0.9360(5) 0.7652(6) 0.9059(4)
C22_2 C 0.9406(4) 0.7424(6) 0.9592(3)
H9_2 H 0.9880 0.7316 0.9978
C23_2 C 0.7246(5) 0.8111(6) 0.7847(4)
O19_2 O 0.7404(4) 0.9171(5) 0.6481(4)
S1_2 S 0.79067(18) 0.9885(2) 0.69538(17)
C34_2 C 0.8793(7) 0.9582(8) 0.7267(7)
H16_2 H 0.8897 0.9001 0.7471
H18_2 H 0.8860 0.9542 0.6939
O21_2 O 0.5933(4) 0.8637(5) 0.5426(3)
O22_2 O 0.6688(4) 0.7223(4) 0.6311(4)
O27_2 O 0.5502(3) 0.7987(4) 0.6332(3)
O28_2 O 0.4486(3) 0.8341(5) 0.6274(3)
H29_2 H 0.653076 0.713526 0.587297
H30_2 H 0.724316 0.70908 0.662258
H31_2 H 0.615544 0.914682 0.533783
H32_2 H 0.601616 0.805676 0.528214
O13_3 O 0.0709(3) 0.7268(6) 0.4653(3)
C24_3 C 0.0085(4) 0.7261(6) 0.4100(4)
C31_3 C 0.0045(5) 0.7470(7) 0.7325(4)
O20_3 O 0.2884(5) 0.6172(7) 0.5543(5)
S2_3 S 0.3356(2) 0.5725(3) 0.61593(18)
C35_3 C 0.4246(8) 0.5587(11) 0.6343(7)
H19_3 H 0.4489 0.6170 0.6431
H20_3 H 0.4548 0.5205 0.6711
H21_3 H 0.4200 0.5310 0.5991
C36_2 C 0.3054(8) 0.4616(11) 0.6008(7)
H22_2 H 0.2547 0.4581 0.5894
H23_2 H 0.3051 0.4389 0.5664
H24_2 H 0.3396 0.4255 0.6381
O23_3 O 0.1789(4) 0.6294(6) 0.5847(3)
O24_3 O 0.2307(5) 0.7971(5) 0.5580(4)
O29_2 O 0.1850(3) 0.7261(4) 0.4354(3)
O30_2 O 0.1772(3) 0.6886(5) 0.3510(3)
H25_3 H 0.172631 0.68247 0.604571
H26_3 H 0.227989 0.598231 0.616865
H27_3 H 0.214006 0.847571 0.52717
H28_3 H 0.287302 0.791178 0.584628
O1_3 O 0.6130(3) 0.5123(4) 0.1447(3)
O2_3 O 0.5809(4) 0.5267(4) 0.2113(3)
O3_2 O 0.4783(4) 0.2747(4) 0.2580(3)
O4_2 O 0.4731(4) 0.1392(4) 0.2224(3)
O7_2 O 0.8150(3) 0.2261(4) 0.0646(3)
O8_2 O 0.8228(3) 0.1886(5) 0.1490(3)
O9_3 O 0.5577(4) 0.1728(4) 0.0853(3)
O10_3 O 0.6670(3) 0.6985(5) 0.2844(3)
O11_3 O 0.7242(3) 0.6634(5) 0.2397(3)
O12_3 O 0.9994(3) 0.7242(6) 0.3598(3)
O18_2 O 0.8758(3) 0.7971(4) 0.5051(3)
C1_3 C 0.5539(4) 0.2337(5) 0.1223(4)
C2_3 C 0.5736(4) 0.3265(5) 0.1275(4)
H1_3 H 0.5917 0.3495 0.1058
C3_3 C 0.5656(4) 0.3824(5) 0.1653(4)
C4_3 C 0.5366(5) 0.3496(6) 0.1965(4)
H2_3 H 0.5304 0.3887 0.2209
C5_3 C 0.5173(4) 0.2608(5) 0.1914(4)
C6_3 C 0.5248(4) 0.2021(5) 0.1530(4)
H3_3 H 0.5099 0.1416 0.1484
C7_3 C 0.5874(5) 0.4829(5) 0.1740(4)
C8_3 C 0.4871(5) 0.2235(6) 0.2257(4)
C9_3 C 0.5886(5) 0.2039(5) 0.0543(4)
C13_3 C 0.6978(4) 0.2207(5) 0.0548(3)
C14_3 C 0.6663(5) 0.1946(6) 0.0856(4)
H6_3 H 0.6972 0.1713 0.1267
C16_3 C 0.7839(4) 0.2115(5) 0.0921(4)
C17_3 C 0.8737(4) 0.7643(5) 0.4545(3)
C18_3 C 0.8020(5) 0.7424(6) 0.3975(4)
H7_3 H 0.7573 0.7454 0.3944
C19_3 C 0.8008(4) 0.7157(6) 0.3455(4)
C20_3 C 0.8657(4) 0.7117(6) 0.3499(3)
H8_3 H 0.8632 0.6933 0.3148
C21_3 C 0.9360(5) 0.7348(6) 0.4059(4)
C22_3 C 0.9406(4) 0.7576(6) 0.4592(3)
H9_3 H 0.9880 0.7684 0.4978
C23_3 C 0.7246(5) 0.6889(6) 0.2847(4)
C25_2 C 0.8999(4) 0.7361(6) 0.5535(3)
C26_2 C 0.9376(5) 0.7702(6) 0.6148(4)
H10_2 H 0.9461 0.8325 0.6219
C27_2 C 0.9625(4) 0.7124(6) 0.6656(3)
C28_2 C 0.9507(5) 0.6203(6) 0.6557(3)
H11_2 H 0.9681 0.5817 0.6899
C29_2 C 0.9128(4) 0.5842(5) 0.5948(4)
C30_2 C 0.8878(4) 0.6425(6) 0.5425(3)
H12_2 H 0.8639 0.6189 0.5019
C32_3 C 0.8972(5) 0.4823(6) 0.5862(4)
O19_3 O 0.7404(4) 0.5829(5) 0.1481(4)
S1_3 S 0.79067(18) 0.5115(2) 0.19538(17)
C33_3 C 0.7740(7) 0.4071(8) 0.1608(7)
H13_3 H 0.7224 0.3887 0.1422
H14_3 H 0.7814 0.4103 0.1283
H15_3 H 0.8090 0.3636 0.1924
C34_3 C 0.8793(7) 0.5418(8) 0.2267(7)
H16_3 H 0.8897 0.5999 0.2471
H17_3 H 0.9140 0.4973 0.2575
H18_3 H 0.8860 0.5458 0.1939
O21_3 O 0.5933(4) 0.6363(5) 0.0426(3)
O22_3 O 0.6688(4) 0.7777(4) 0.1311(4)
O25_2 O 0.5217(4) 0.7747(4) 0.2420(3)
O26_2 O 0.5269(4) 0.6392(4) 0.2776(3)
H29_3 H 0.653076 0.786474 0.0872972
H30_3 H 0.724316 0.79092 0.162258
H31_3 H 0.615544 0.585318 0.0337831
H32_3 H 0.601616 0.694324 0.028214
C10_3 C 0.5402(5) 0.2339(5) 0.9926(4)
H4_3 H 0.4875 0.2343 0.9714
C11_3 C 0.5710(4) 0.2633(5) 0.9622(4)
C12_3 C 0.6523(4) 0.2558(6) 0.9947(3)
H5_3 H 0.6739 0.2748 0.9749
C15_3 C 0.5232(4) 0.3004(6) 0.8989(3)
O1_4 O 0.3870(3) 0.0123(4) 0.3553(3)
O2_4 O 0.4191(4) 0.0267(4) 0.2887(3)
O10_4 O 0.3330(3) 0.1985(5) 0.2156(3)
O11_4 O 0.2758(3) 0.1634(5) 0.2603(3)
O12_4 O 0.0006(3) 0.2242(6) 0.1402(3)
C17_4 C 0.1263(4) 0.2643(5) 0.0455(3)
C18_4 C 0.1980(5) 0.2424(6) 0.1025(4)
H7_4 H 0.2427 0.2454 0.1056
C19_4 C 0.1992(4) 0.2157(6) 0.1545(4)
C20_4 C 0.1343(4) 0.2117(6) 0.1501(3)
H8_4 H 0.1368 0.1933 0.1852
C21_4 C 0.0640(5) 0.2348(6) 0.0941(4)
C22_4 C 0.0594(4) 0.2576(6) 0.0408(3)
H9_4 H 0.0120 0.2684 0.0022
C23_4 C 0.2754(5) 0.1889(6) 0.2153(4)
O19_4 O 0.2596(4) 0.0829(5) 0.3519(4)
S1_4 S 0.20933(18) 0.0115(2) 0.30462(17)
C34_4 C 0.1207(7) 0.0418(8) 0.2733(7)
H16_4 H 0.1103 0.0999 0.2529
H18_4 H 0.1140 0.0458 0.3061
O21_4 O 0.4067(4) 0.1363(5) 0.4574(3)
O22_4 O 0.3312(4) 0.2777(4) 0.3689(4)
H29_4 H 0.346924 0.286474 0.412703
H30_4 H 0.275684 0.29092 0.337742
H31_4 H 0.384456 0.0853177 0.466217
H32_4 H 0.398384 0.194324 0.471786
O9_4 O 0.4423(4) 0.6728(4) 0.4147(3)
C1_4 C 0.4461(4) 0.7337(5) 0.3777(4)
C2_4 C 0.4264(4) 0.8265(5) 0.3725(4)
H1_4 H 0.4083 0.8495 0.3942
C3_4 C 0.4344(4) 0.8824(5) 0.3347(4)
C4_4 C 0.4634(5) 0.8496(6) 0.3035(4)
H2_4 H 0.4696 0.8887 0.2791
C5_4 C 0.4827(4) 0.7608(5) 0.3086(4)
C6_4 C 0.4752(4) 0.7021(5) 0.3470(4)
H3_4 H 0.4901 0.6416 0.3516
C7_4 C 0.4126(5) 0.9829(5) 0.3260(4)
C8_4 C 0.5129(5) 0.7235(6) 0.2743(4)
C9_4 C 0.4114(5) 0.7039(5) 0.4457(4)
C10_4 C 0.4598(5) 0.7339(5) 0.5074(4)
H4_4 H 0.5125 0.7343 0.5286
C11_4 C 0.4290(4) 0.7633(5) 0.5378(4)
C12_4 C 0.3477(4) 0.7558(6) 0.5053(3)
H5_4 H 0.3261 0.7748 0.5251
C13_4 C 0.3022(4) 0.7207(5) 0.4452(3)
C14_4 C 0.3337(5) 0.6946(6) 0.4144(4)
H6_4 H 0.3028 0.6713 0.3733
C15_4 C 0.4768(4) 0.8004(6) 0.6011(3)
C16_4 C 0.2161(4) 0.7115(5) 0.4079(4)
C33_4 C 0.2260(7) 0.9071(8) 0.3392(7)
H13_4 H 0.2776 0.8887 0.3578
H14_4 H 0.2186 0.9103 0.3717
H15_4 H 0.1910 0.8636 0.3076
H17_4 H 0.0860 0.9973 0.2425
C32_4 C 0.1028(5) 0.9823(6) 0.9138(4)
O13_4 O 0.9291(3) 0.2268(6) 0.0347(3)
C24_4 C 0.9915(4) 0.2261(6) 0.0900(4)
C31_4 C 0.9955(5) 0.2470(7) 0.7675(4)
O20_4 O 0.7116(5) 0.1172(7) 0.9457(5)
S2_4 S 0.6644(2) 0.0725(3) 0.88407(18)
C35_4 C 0.5754(8) 0.0587(11) 0.8657(7)
H19_4 H 0.5511 0.1170 0.8569
H20_4 H 0.5452 0.0205 0.8289
H21_4 H 0.5800 0.0310 0.9009
O23_4 O 0.8211(4) 0.1294(6) 0.9153(3)
O24_4 O 0.7693(5) 0.2971(5) 0.9420(4)
H25_4 H 0.827369 0.18247 0.895429
H26_4 H 0.772011 0.0982311 0.883135
H27_4 H 0.785994 0.347571 0.97283
H28_4 H 0.712698 0.291178 0.915372
C36_3 C 0.3054(8) 0.0384(11) 0.1008(7)
H22_3 H 0.2547 0.0419 0.0894
H23_3 H 0.3051 0.0611 0.0664
H24_3 H 0.3396 0.0745 0.1381
O18_3 O 0.8758(3) 0.7029(4) 0.0051(3)
C25_3 C 0.8999(4) 0.7639(6) 0.0535(3)
C26_3 C 0.9376(5) 0.7298(6) 0.1148(4)
H10_3 H 0.9461 0.6675 0.1219
C27_3 C 0.9625(4) 0.7876(6) 0.1656(3)
C28_3 C 0.9507(5) 0.8797(6) 0.1557(3)
H11_3 H 0.9681 0.9183 0.1899
C29_3 C 0.9128(4) 0.9158(5) 0.0948(4)
C30_3 C 0.8878(4) 0.8575(6) 0.0425(3)
H12_3 H 0.8639 0.8811 0.0019
O18_4 O 0.1242(3) 0.2971(4) 0.9949(3)
C25_4 C 0.1001(4) 0.2361(6) 0.9465(3)
C26_4 C 0.0624(5) 0.2702(6) 0.8852(4)
H10_4 H 0.0539 0.3325 0.8781
C27_4 C 0.0375(4) 0.2124(6) 0.8344(3)
C28_4 C 0.0493(5) 0.1203(6) 0.8443(3)
H11_4 H 0.0319 0.0817 0.8101
C29_4 C 0.0872(4) 0.0842(5) 0.9052(4)
C30_4 C 0.1122(4) 0.1425(6) 0.9575(3)
H12_4 H 0.1361 0.1189 0.9981
C36_4 C 0.6946(8) 0.9616(11) 0.8992(7)
H22_4 H 0.7453 0.9581 0.9106
H23_4 H 0.6949 0.9389 0.9336
H24_4 H 0.6604 0.9255 0.8619
loop_
_geom_bond_atom_site_label_1
_geom_bond_atom_site_label_2
_geom_bond_site_symmetry_1
_geom_bond_site_symmetry_2
O5 C15 1_555 1_555
O6 C15 1_555 1_555
H4 C10 1_555 1_555
C11 C10 1_555 1_555
C12 C11 1_555 1_555
H5 C12 1_555 1_555
C15 C11 1_555 1_555
Co5 O5 1_555 1_555
Co7 O5 1_555 1_555
O6 Co7 1_555 1_555
Co1 O1 1_555 1_555
Co2 O2 1_555 1_555
O1 C7 1_555 1_555
O2 C7 1_555 1_555
O3 C8 1_555 1_555
O4 C8 1_555 1_555
O7 C16 1_555 1_555
O8 C16 1_555 1_555
O9 C1 1_555 1_555
O10 Co2 1_555 1_555
O11 Co1 1_555 1_555
O16 C32 1_555 1_555
O17 C32 1_555 1_555
O18 C17 1_555 1_555
C1 C2 1_555 1_555
C2 H1 1_555 1_555
C3 C2 1_555 1_555
C4 C3 1_555 1_555
H2 C4 1_555 1_555
C5 C4 1_555 1_555
C6 C1 1_555 1_555
H3 C6 1_555 1_555
C7 C3 1_555 1_555
C8 C5 1_555 1_555
C9 O9 1_555 1_555
C14 C9 1_555 1_555
H6 C14 1_555 1_555
C16 C13 1_555 1_555
C17 C18 1_555 1_555
C18 H7 1_555 1_555
C19 C18 1_555 1_555
C20 C19 1_555 1_555
H8 C20 1_555 1_555
C21 C20 1_555 1_555
C22 C17 1_555 1_555
H9 C22 1_555 1_555
C23 O10 1_555 1_555
C25 O18 1_555 1_555
C26 C25 1_555 1_555
H10 C26 1_555 1_555
C27 C26 1_555 1_555
C28 C27 1_555 1_555
H11 C28 1_555 1_555
C29 C28 1_555 1_555
C30 C25 1_555 1_555
H12 C30 1_555 1_555
C32 C29 1_555 1_555
O19 Co1 1_555 1_555
S1 O19 1_555 1_555
C33 S1 1_555 1_555
H13 C33 1_555 1_555
H14 C33 1_555 1_555
H15 C33 1_555 1_555
C34 S1 1_555 1_555
H16 C34 1_555 1_555
H17 C34 1_555 1_555
H18 C34 1_555 1_555
O21 Co1 1_555 1_555
O22 Co1 1_555 1_555
Co6 O3 1_555 1_555
Co8 O7 1_555 1_555
Co9 O16 1_555 1_555
Co12 O17 1_555 1_555
O25 Co2 1_555 1_555
O26 Co2 1_555 1_555
O27 Co1 1_555 1_555
O28 Co2 1_555 1_555
Co2 O27 1_555 1_555
O4 Co6 1_555 1_555
O8 Co8 1_555 1_555
O11 C23 1_555 1_555
C5 C6 1_555 1_555
C13 C14 1_555 1_555
C19 C23 1_555 1_555
C21 C22 1_555 1_555
C29 C30 1_555 1_555
O22 H29 1_555 1_555
O22 H30 1_555 1_555
O21 H31 1_555 1_555
O21 H32 1_555 1_555
Co4 O13 1_555 1_555
O13 C24 1_555 1_555
O14 C31 1_555 1_555
O15 C31 1_555 1_555
O20 Co4 1_555 1_555
S2 O20 1_555 1_555
C35 S2 1_555 1_555
H19 C35 1_555 1_555
H20 C35 1_555 1_555
H21 C35 1_555 1_555
C36 S2 1_555 1_555
H22 C36 1_555 1_555
H23 C36 1_555 1_555
H24 C36 1_555 1_555
O23 Co4 1_555 1_555
O24 Co4 1_555 1_555
Co10 O14 1_555 1_555
O29 Co3 1_555 1_555
O30 Co3 1_555 1_555
O31 Co3 1_555 1_555
O32 Co3 1_555 1_555
O33 Co3 1_555 1_555
O34 Co4 1_555 1_555
Co4 O29 1_555 1_555
O15 Co10 1_555 1_555
O23 H25 1_555 1_555
O23 H26 1_555 1_555
O24 H27 1_555 1_555
O24 H28 1_555 1_555
O14_2 C31_2 1_555 1_555
O15_2 C31_2 1_555 1_555
O20_2 Co11 1_555 1_555
S2_2 O20_2 1_555 1_555
C35_2 S2_2 1_555 1_555
H19_2 C35_2 1_555 1_555
H20_2 C35_2 1_555 1_555
H21_2 C35_2 1_555 1_555
O23_2 Co11 1_555 1_555
O24_2 Co11 1_555 1_555
Co9 O14_2 1_555 1_555
O15_2 Co9 1_555 1_555
O23_2 H25_2 1_555 1_555
O23_2 H26_2 1_555 1_555
O24_2 H27_2 1_555 1_555
O24_2 H28_2 1_555 1_555
O13_2 C24_2 1_555 1_555
O31_2 Co8 1_555 1_555
O32_2 Co8 1_555 1_555
O33_2 Co8 1_555 1_555
O16_2 C32_2 1_555 1_555
O17_2 C32_2 1_555 1_555
Co10 O16_2 1_555 1_555
O25 C8_2 1_555 1_555
O26 C8_2 1_555 1_555
O5_2 C15_2 1_555 1_555
O6_2 C15_2 1_555 1_555
O29 C16_2 1_555 1_555
O30 C16_2 1_555 1_555
O9_2 C1_2 1_555 1_555
C1_2 C2_2 1_555 1_555
C2_2 H1_2 1_555 1_555
C3_2 C2_2 1_555 1_555
C4_2 C3_2 1_555 1_555
H2_2 C4_2 1_555 1_555
C5_2 C4_2 1_555 1_555
C6_2 C1_2 1_555 1_555
H3_2 C6_2 1_555 1_555
C7_2 C3_2 1_555 1_555
C8_2 C5_2 1_555 1_555
C9_2 O9_2 1_555 1_555
C10_2 C9_2 1_555 1_555
H4_2 C10_2 1_555 1_555
C11_2 C10_2 1_555 1_555
C12_2 C11_2 1_555 1_555
H5_2 C12_2 1_555 1_555
C13_2 C12_2 1_555 1_555
C14_2 C9_2 1_555 1_555
H6_2 C14_2 1_555 1_555
C15_2 C11_2 1_555 1_555
C16_2 C13_2 1_555 1_555
H13_2 C33_2 1_555 1_555
H14_2 C33_2 1_555 1_555
H15_2 C33_2 1_555 1_555
Co5_2 O5_2 1_555 1_555
Co7_2 O5_2 1_555 1_555
O6_2 Co7_2 1_555 1_555
C5_2 C6_2 1_555 1_555
C13_2 C14_2 1_555 1_555
Co1_2 O1_2 1_555 1_555
Co6 O2_2 1_555 1_555
O10_2 Co6 1_555 1_555
O11_2 Co1_2 1_555 1_555
C17_2 C18_2 1_555 1_555
C18_2 H7_2 1_555 1_555
C19_2 C18_2 1_555 1_555
C20_2 C19_2 1_555 1_555
H8_2 C20_2 1_555 1_555
C21_2 C20_2 1_555 1_555
C22_2 C17_2 1_555 1_555
H9_2 C22_2 1_555 1_555
C23_2 O10_2 1_555 1_555
O19_2 Co1_2 1_555 1_555
S1_2 O19_2 1_555 1_555
C34_2 S1_2 1_555 1_555
H16_2 C34_2 1_555 1_555
H18_2 C34_2 1_555 1_555
O21_2 Co1_2 1_555 1_555
O22_2 Co1_2 1_555 1_555
O27_2 Co1_2 1_555 1_555
O28_2 Co6 1_555 1_555
Co6 O27_2 1_555 1_555
O11_2 C23_2 1_555 1_555
C19_2 C23_2 1_555 1_555
C21_2 C22_2 1_555 1_555
O22_2 H29_2 1_555 1_555
O22_2 H30_2 1_555 1_555
O21_2 H31_2 1_555 1_555
O21_2 H32_2 1_555 1_555
Co12 O13_3 1_555 1_555
O13_3 C24_3 1_555 1_555
O31_2 C31_3 1_555 1_555
O32_2 C31_3 1_555 1_555
O20_3 Co12 1_555 1_555
S2_3 O20_3 1_555 1_555
C35_3 S2_3 1_555 1_555
H19_3 C35_3 1_555 1_555
H20_3 C35_3 1_555 1_555
H21_3 C35_3 1_555 1_555
C36_2 S2_3 1_555 1_555
H22_2 C36_2 1_555 1_555
H23_2 C36_2 1_555 1_555
H24_2 C36_2 1_555 1_555
O23_3 Co12 1_555 1_555
O24_3 Co12 1_555 1_555
O29_2 Co9 1_555 1_555
O30_2 Co9 1_555 1_555
Co12 O29_2 1_555 1_555
O23_3 H25_3 1_555 1_555
O23_3 H26_3 1_555 1_555
O24_3 H27_3 1_555 1_555
O24_3 H28_3 1_555 1_555
Co5 O1_3 1_555 1_555
Co7 O2_3 1_555 1_555
O1_3 C7_3 1_555 1_555
O2_3 C7_3 1_555 1_555
O3_2 C8_3 1_555 1_555
O4_2 C8_3 1_555 1_555
O7_2 C16_3 1_555 1_555
O8_2 C16_3 1_555 1_555
O9_3 C1_3 1_555 1_555
O10_3 Co7 1_555 1_555
O11_3 Co5 1_555 1_555
O33 C32_3 1_555 1_555
O34 C32_3 1_555 1_555
O18_2 C17_3 1_555 1_555
C1_3 C2_3 1_555 1_555
C2_3 H1_3 1_555 1_555
C3_3 C2_3 1_555 1_555
C4_3 C3_3 1_555 1_555
H2_3 C4_3 1_555 1_555
C5_3 C4_3 1_555 1_555
C6_3 C1_3 1_555 1_555
H3_3 C6_3 1_555 1_555
C7_3 C3_3 1_555 1_555
C8_3 C5_3 1_555 1_555
C9_3 O9_3 1_555 1_555
C14_3 C9_3 1_555 1_555
H6_3 C14_3 1_555 1_555
C16_3 C13_3 1_555 1_555
C17_3 C18_3 1_555 1_555
C18_3 H7_3 1_555 1_555
C19_3 C18_3 1_555 1_555
C20_3 C19_3 1_555 1_555
H8_3 C20_3 1_555 1_555
C21_3 C20_3 1_555 1_555
C22_3 C17_3 1_555 1_555
H9_3 C22_3 1_555 1_555
C23_3 O10_3 1_555 1_555
C25_2 O18_2 1_555 1_555
C26_2 C25_2 1_555 1_555
H10_2 C26_2 1_555 1_555
C27_2 C26_2 1_555 1_555
C28_2 C27_2 1_555 1_555
H11_2 C28_2 1_555 1_555
C29_2 C28_2 1_555 1_555
C30_2 C25_2 1_555 1_555
H12_2 C30_2 1_555 1_555
C32_3 C29_2 1_555 1_555
O19_3 Co5 1_555 1_555
S1_3 O19_3 1_555 1_555
C33_3 S1_3 1_555 1_555
H13_3 C33_3 1_555 1_555
H14_3 C33_3 1_555 1_555
H15_3 C33_3 1_555 1_555
C34_3 S1_3 1_555 1_555
H16_3 C34_3 1_555 1_555
H17_3 C34_3 1_555 1_555
H18_3 C34_3 1_555 1_555
O21_3 Co5 1_555 1_555
O22_3 Co5 1_555 1_555
Co7_2 O3_2 1_555 1_555
Co10 O7_2 1_555 1_555
O25_2 Co7 1_555 1_555
O26_2 Co7 1_555 1_555
O4_2 Co7_2 1_555 1_555
O8_2 Co10 1_555 1_555
O11_3 C23_3 1_555 1_555
C5_3 C6_3 1_555 1_555
C13_3 C14_3 1_555 1_555
C19_3 C23_3 1_555 1_555
C21_3 C22_3 1_555 1_555
C29_2 C30_2 1_555 1_555
O22_3 H29_3 1_555 1_555
O22_3 H30_3 1_555 1_555
O21_3 H31_3 1_555 1_555
O21_3 H32_3 1_555 1_555
O27 C15_3 1_555 1_555
O28 C15_3 1_555 1_555
H4_3 C10_3 1_555 1_555
C11_3 C10_3 1_555 1_555
C12_3 C11_3 1_555 1_555
H5_3 C12_3 1_555 1_555
C15_3 C11_3 1_555 1_555
Co5_2 O1_4 1_555 1_555
Co7_2 O2_4 1_555 1_555
O10_4 Co7_2 1_555 1_555
O11_4 Co5_2 1_555 1_555
C17_4 C18_4 1_555 1_555
C18_4 H7_4 1_555 1_555
C19_4 C18_4 1_555 1_555
C20_4 C19_4 1_555 1_555
H8_4 C20_4 1_555 1_555
C21_4 C20_4 1_555 1_555
C22_4 C17_4 1_555 1_555
H9_4 C22_4 1_555 1_555
C23_4 O10_4 1_555 1_555
O19_4 Co5_2 1_555 1_555
S1_4 O19_4 1_555 1_555
C34_4 S1_4 1_555 1_555
H16_4 C34_4 1_555 1_555
H18_4 C34_4 1_555 1_555
O21_4 Co5_2 1_555 1_555
O22_4 Co5_2 1_555 1_555
O11_4 C23_4 1_555 1_555
C19_4 C23_4 1_555 1_555
C21_4 C22_4 1_555 1_555
O22_4 H29_4 1_555 1_555
O22_4 H30_4 1_555 1_555
O21_4 H31_4 1_555 1_555
O21_4 H32_4 1_555 1_555
O25_2 C8_4 1_555 1_555
O26_2 C8_4 1_555 1_555
O27_2 C15_4 1_555 1_555
O28_2 C15_4 1_555 1_555
O29_2 C16_4 1_555 1_555
O30_2 C16_4 1_555 1_555
O9_4 C1_4 1_555 1_555
C1_4 C2_4 1_555 1_555
C2_4 H1_4 1_555 1_555
C3_4 C2_4 1_555 1_555
C4_4 C3_4 1_555 1_555
H2_4 C4_4 1_555 1_555
C5_4 C4_4 1_555 1_555
C6_4 C1_4 1_555 1_555
H3_4 C6_4 1_555 1_555
C7_4 C3_4 1_555 1_555
C8_4 C5_4 1_555 1_555
C9_4 O9_4 1_555 1_555
C10_4 C9_4 1_555 1_555
H4_4 C10_4 1_555 1_555
C11_4 C10_4 1_555 1_555
C12_4 C11_4 1_555 1_555
H5_4 C12_4 1_555 1_555
C13_4 C12_4 1_555 1_555
C14_4 C9_4 1_555 1_555
H6_4 C14_4 1_555 1_555
C15_4 C11_4 1_555 1_555
C16_4 C13_4 1_555 1_555
H13_4 C33_4 1_555 1_555
H14_4 C33_4 1_555 1_555
H15_4 C33_4 1_555 1_555
C5_4 C6_4 1_555 1_555
C13_4 C14_4 1_555 1_555
O33_2 C32_4 1_555 1_555
O34_2 C32_4 1_555 1_555
O13_4 C24_4 1_555 1_555
O31 C31_4 1_555 1_555
O32 C31_4 1_555 1_555
O20_4 Co12_2 1_555 1_555
S2_4 O20_4 1_555 1_555
C35_4 S2_4 1_555 1_555
H19_4 C35_4 1_555 1_555
H20_4 C35_4 1_555 1_555
H21_4 C35_4 1_555 1_555
O23_4 Co12_2 1_555 1_555
O24_4 Co12_2 1_555 1_555
O23_4 H25_4 1_555 1_555
O23_4 H26_4 1_555 1_555
O24_4 H27_4 1_555 1_555
O24_4 H28_4 1_555 1_555
H22_3 C36_3 1_555 1_555
H23_3 C36_3 1_555 1_555
H24_3 C36_3 1_555 1_555
C25_3 O18_3 1_555 1_555
C26_3 C25_3 1_555 1_555
H10_3 C26_3 1_555 1_555
C27_3 C26_3 1_555 1_555
C28_3 C27_3 1_555 1_555
H11_3 C28_3 1_555 1_555
C29_3 C28_3 1_555 1_555
C30_3 C25_3 1_555 1_555
H12_3 C30_3 1_555 1_555
C29_3 C30_3 1_555 1_555
C25_4 O18_4 1_555 1_555
C26_4 C25_4 1_555 1_555
H10_4 C26_4 1_555 1_555
C27_4 C26_4 1_555 1_555
C28_4 C27_4 1_555 1_555
H11_4 C28_4 1_555 1_555
C29_4 C28_4 1_555 1_555
C30_4 C25_4 1_555 1_555
H12_4 C30_4 1_555 1_555
C29_4 C30_4 1_555 1_555
H22_4 C36_4 1_555 1_555
H23_4 C36_4 1_555 1_555
H24_4 C36_4 1_555 1_555

#END
