
###############################################################################
#
# This file contains modified crystal structure data generated from the
# MOF subset of the Cambridge Structural Database (CSD) v543 
# hosted by the Cambridge Crystallographic Data Centre (CCDC).
#
# This work is licensed under the Creative Commons
# Attribution-NonCommercial-ShareAlike 4.0 International License.
# To view a copy of this license, visit
# http://creativecommons.org/licenses/by-nc-sa/4.0/
# or send a letter to
# Creative Commons, PO Box 1866, Mountain View, CA 94042, USA.
#
# CIF created using the CSD Python API on 29 September 2022
# The structure has been converted into the P1 space group
# The structure has a 3D framework
# The original CSD entry FUDHAP is in the orthorhombic crystal system
# The original CSD entry FUDHAP is in a Sohncke space group
# The framework has been calculated to contain at least 10.0% void space
# The void calculation uses a probe of radius 1.32A, grid spacing 0.4
# H atom positions have been added when not included in the experimental data
#
###############################################################################

data_FUDHAP
_chemical_formula_moiety         '(C96 H104 Co8 N8 O48)n'
_symmetry_cell_setting           triclinic
_symmetry_space_group_name_H-M   'P 1'
_symmetry_Int_Tables_number      1
_space_group_name_Hall           'P 1'
loop_
_symmetry_equiv_pos_site_id
_symmetry_equiv_pos_as_xyz
1 x,y,z
_cell_length_a                   10.1170(11)
_cell_length_b                   16.767(2)
_cell_length_c                   22.415(2)
_cell_angle_alpha                90
_cell_angle_beta                 90
_cell_angle_gamma                90
_cell_volume                     3802.3
loop_
_atom_site_label
_atom_site_type_symbol
_atom_site_fract_x
_atom_site_fract_y
_atom_site_fract_z
O6 O 0.3898(5) 0.0790(4) 0.0692(3)
O7 O 0.3047(5) 0.1335(3) 0.1491(2)
C7 C 0.0170(9) 0.0192(5) 0.0028(4)
C10 C 0.0450(6) 0.0941(5) 0.1130(3)
H5 H 0.0544 0.1192 0.1498
C11 C 0.1566(7) 0.0761(5) 0.0777(4)
C12 C 0.1436(7) 0.0383(4) 0.0257(3)
H6 H 0.2187 0.0243 0.0041
C16 C 0.2929(7) 0.0978(5) 0.1017(4)
Co4 Co 0.51850(9) 0.11528(7) 0.13937(5)
O4 O 0.1565(6) 0.2387(4) 0.7863(2)
O5 O 0.0500(5) 0.2699(3) 0.8711(3)
C1 C 0.0150(7) 0.0188(4) 0.8982(3)
C3 C 0.0135(8) 0.0074(5) 0.7932(3)
C4 C 0.0517(7) 0.0865(5) 0.7888(4)
H2 H 0.0678 0.1086 0.7515
C5 C 0.0663(7) 0.1332(5) 0.8400(4)
C6 C 0.0430(7) 0.0986(5) 0.8946(4)
H3 H 0.0462 0.1294 0.9290
C14 C 0.0926(7) 0.2207(6) 0.8323(4)
Co5 Co 0.01850(9) 0.38472(7) 0.86063(5)
Co7 Co 0.23260(9) 0.33612(7) 0.74384(5)
O1 O 0.0013(5) 0.9776(3) 0.9508(2)
O3 O 0.0155(6) 0.9944(4) 0.6873(2)
H10 H 0.0090 0.7623 0.9780
H12 H 0.0404 0.7894 0.9126
O15 O 0.1102(5) 0.9210(4) 0.5692(3)
O16 O 0.1953(5) 0.8665(3) 0.6491(2)
O8 O 0.6910(5) 0.0774(4) 0.1040(2)
O9 O 0.8180(5) 0.1180(4) 0.1811(3)
C8 C 0.9077(8) 0.0388(5) 0.0379(3)
H4 H 0.8237 0.0276 0.0233
C9 C 0.9182(7) 0.0728(5) 0.0913(3)
C15 C 0.8015(7) 0.0916(5) 0.1315(4)
Co6 Co 0.73260(9) 0.16388(7) 0.25616(5)
Co1 Co 0.98150(9) 0.88472(7) 0.63937(5)
Co2 Co 0.76740(9) 0.83612(7) 0.75616(5)
N1 N 0.8884(14) 0.7058(8) 0.9157(5)
N2 N 0.502(2) 0.9865(11) 0.8306(8)
O2 O 0.9503(4) 0.8925(3) 0.7368(3)
O10 O 0.5829(6) 0.7792(4) 0.7658(3)
O11 O 0.8379(6) 0.7859(4) 0.8377(3)
O12 O 0.6946(6) 0.9325(4) 0.8037(3)
C2 C 0.9970(7) 0.9761(4) 0.8471(3)
H1 H 0.9720 0.9229 0.8502
C13 C 0.9902(7) 0.9638(5) 0.7359(4)
C17 C 0.8293(11) 0.7219(7) 0.8628(6)
C18 C 0.7536(10) 0.6574(7) 0.8408(4)
H7 H 0.7598 0.6132 0.8679
H8 H 0.7867 0.6417 0.8024
H9 H 0.6629 0.6734 0.8371
C19 C 0.9711(17) 0.7768(10) 0.9403(5)
H11 H 0.9150 0.8224 0.9454
C20 C 0.894(2) 0.6356(8) 0.9525(8)
H13 H 0.9496 0.6457 0.9864
H14 H 0.9297 0.5921 0.9298
H15 H 0.8067 0.6222 0.9658
C21 C 0.6009(17) 0.9532(10) 0.8435(8)
C22 C 0.6144(14) 0.9341(10) 0.9079(7)
H16 H 0.7001 0.9115 0.9152
H17 H 0.5474 0.8965 0.9192
H18 H 0.6044 0.9820 0.9309
H21 H 0.3679 0.9497 0.8957
H23 H 0.4969 0.9520 0.7455
O13 O 0.8435(6) 0.7387(4) 0.7137(2)
O14 O 0.9500(5) 0.7699(3) 0.6289(3)
O17 O 0.8090(5) 0.9226(4) 0.6040(2)
O18 O 0.6820(5) 0.8820(4) 0.6811(3)
H25 H 0.586272 0.725831 0.746655
H26 H 0.562237 0.773024 0.808861
N1_2 N 0.6116(14) 0.2942(8) 0.4157(5)
N2_2 N 0.998(2) 0.0135(11) 0.3306(8)
O1_2 O 0.4987(5) 0.0224(3) 0.4508(2)
O2_2 O 0.5497(4) 0.1075(3) 0.2368(3)
O3_2 O 0.4845(6) 0.0056(4) 0.1873(2)
O10_2 O 0.9171(6) 0.2208(4) 0.2658(3)
O11_2 O 0.6621(6) 0.2141(4) 0.3377(3)
O12_2 O 0.8054(6) 0.0675(4) 0.3037(3)
C2_2 C 0.5030(7) 0.0239(4) 0.3471(3)
H1_2 H 0.5280 0.0771 0.3502
C13_2 C 0.5098(7) 0.0362(5) 0.2359(4)
C17_2 C 0.6707(11) 0.2781(7) 0.3628(6)
C18_2 C 0.7464(10) 0.3426(7) 0.3408(4)
H7_2 H 0.7402 0.3868 0.3679
H8_2 H 0.7133 0.3583 0.3024
H9_2 H 0.8371 0.3266 0.3371
C19_2 C 0.5289(17) 0.2232(10) 0.4403(5)
H10_2 H 0.4910 0.2377 0.4780
H11_2 H 0.5850 0.1776 0.4454
H12_2 H 0.4596 0.2106 0.4126
C20_2 C 0.606(2) 0.3644(8) 0.4525(8)
H13_2 H 0.5504 0.3543 0.4864
H14_2 H 0.5703 0.4079 0.4298
H15_2 H 0.6933 0.3778 0.4658
C21_2 C 0.8991(17) 0.0468(10) 0.3435(8)
C22_2 C 0.8856(14) 0.0659(10) 0.4079(7)
H16_2 H 0.7999 0.0885 0.4152
H17_2 H 0.9526 0.1035 0.4192
H18_2 H 0.8956 0.0180 0.4309
O13_2 O 0.6565(6) 0.2613(4) 0.2137(2)
O14_2 O 0.5500(5) 0.2301(3) 0.1289(3)
H25_2 H 0.913728 0.274169 0.246655
H26_2 H 0.937763 0.226976 0.308861
O4_2 O 0.3435(6) 0.7613(4) 0.2863(2)
O5_2 O 0.4500(5) 0.7301(3) 0.3711(3)
C1_2 C 0.4850(7) 0.9812(4) 0.3982(3)
C3_2 C 0.4865(8) 0.9926(5) 0.2932(3)
C4_2 C 0.4483(7) 0.9135(5) 0.2888(4)
H2_2 H 0.4322 0.8914 0.2515
C5_2 C 0.4337(7) 0.8668(5) 0.3400(4)
C6_2 C 0.4570(7) 0.9014(5) 0.3946(4)
H3_2 H 0.4538 0.8706 0.4290
C7_2 C 0.4830(9) 0.9808(5) 0.5028(4)
C8_2 C 0.5923(8) 0.9612(5) 0.5379(3)
H4_2 H 0.6763 0.9724 0.5233
C9_2 C 0.5818(7) 0.9272(5) 0.5913(3)
C10_2 C 0.4550(6) 0.9059(5) 0.6130(3)
H5_2 H 0.4456 0.8808 0.6498
C11_2 C 0.3434(7) 0.9239(5) 0.5777(4)
C12_2 C 0.3564(7) 0.9617(4) 0.5257(3)
H6_2 H 0.2813 0.9757 0.5041
C14_2 C 0.4074(7) 0.7793(6) 0.3323(4)
C15_2 C 0.6985(7) 0.9084(5) 0.6315(4)
C16_2 C 0.2071(7) 0.9022(5) 0.6017(4)
H24 H 0.9394 0.9636 0.2543
Co5_2 Co 0.48150(9) 0.61528(7) 0.36063(5)
Co7_2 Co 0.26740(9) 0.66388(7) 0.24384(5)
N1_3 N 0.1116(14) 0.2058(8) 0.5843(5)
N2_3 N 0.498(2) 0.4865(11) 0.6694(8)
O2_3 O 0.0497(4) 0.3925(3) 0.7632(3)
O8_2 O 0.3090(5) 0.5774(4) 0.3960(2)
O9_2 O 0.1820(5) 0.6180(4) 0.3189(3)
O10_3 O 0.4171(6) 0.2792(4) 0.7342(3)
O11_3 O 0.1621(6) 0.2859(4) 0.6623(3)
O12_3 O 0.3054(6) 0.4325(4) 0.6963(3)
C2_3 C 0.0030(7) 0.4761(4) 0.6529(3)
H1_3 H 0.0280 0.4229 0.6498
C8_3 C 0.0923(8) 0.5388(5) 0.4621(3)
H4_3 H 0.1763 0.5276 0.4767
C9_3 C 0.0818(7) 0.5728(5) 0.4087(3)
C13_3 C 0.0098(7) 0.4638(5) 0.7641(4)
C15_3 C 0.1985(7) 0.5916(5) 0.3685(4)
C17_3 C 0.1707(11) 0.2219(7) 0.6372(6)
C18_3 C 0.2464(10) 0.1574(7) 0.6592(4)
H7_3 H 0.2402 0.1132 0.6321
H8_3 H 0.2133 0.1417 0.6976
H9_3 H 0.3371 0.1734 0.6629
C19_3 C 0.0289(17) 0.2768(10) 0.5597(5)
H11_3 H 0.0850 0.3224 0.5546
C20_3 C 0.106(2) 0.1356(8) 0.5475(8)
H13_3 H 0.0504 0.1457 0.5136
H14_3 H 0.0703 0.0921 0.5702
H15_3 H 0.1933 0.1222 0.5342
C21_3 C 0.3991(17) 0.4532(10) 0.6565(8)
C22_3 C 0.3856(14) 0.4341(10) 0.5921(7)
H16_3 H 0.2999 0.4115 0.5848
H17_3 H 0.4526 0.3965 0.5808
H18_3 H 0.3956 0.4820 0.5691
C23 C 0.6060(12) 0.5001(9) 0.6208(7)
H19 H 0.6814 0.5256 0.6386
H20 H 0.5711 0.5334 0.5898
H21_2 H 0.6321 0.4497 0.6043
C24 C 0.5093(15) 0.5015(7) 0.7332(7)
H22 H 0.5931 0.5260 0.7414
H23_2 H 0.5031 0.4520 0.7545
H24_2 H 0.4394 0.5364 0.7457
O17_2 O 0.1910(5) 0.4226(4) 0.8960(2)
O18_2 O 0.3180(5) 0.3820(4) 0.8189(3)
H25_3 H 0.413728 0.225831 0.753345
H26_3 H 0.437763 0.273024 0.691139
O1_3 O 0.9987(5) 0.4776(3) 0.5492(2)
O3_3 O 0.9845(6) 0.4944(4) 0.8127(2)
O6_2 O 0.6102(5) 0.5790(4) 0.4308(3)
O7_2 O 0.6953(5) 0.6335(3) 0.3509(2)
C1_3 C 0.9850(7) 0.5188(4) 0.6018(3)
C3_3 C 0.9865(8) 0.5074(5) 0.7068(3)
C4_3 C 0.9483(7) 0.5865(5) 0.7112(4)
H2_3 H 0.9322 0.6086 0.7485
C5_3 C 0.9337(7) 0.6332(5) 0.6600(4)
C6_3 C 0.9570(7) 0.5986(5) 0.6054(4)
H3_3 H 0.9538 0.6294 0.5710
C7_3 C 0.9830(9) 0.5192(5) 0.4972(4)
C10_3 C 0.9550(6) 0.5941(5) 0.3870(3)
H5_3 H 0.9456 0.6192 0.3502
C11_3 C 0.8434(7) 0.5761(5) 0.4223(4)
C12_3 C 0.8564(7) 0.5383(4) 0.4743(3)
H6_3 H 0.7813 0.5243 0.4959
C14_3 C 0.9074(7) 0.7207(6) 0.6677(4)
C16_3 C 0.7071(7) 0.5978(5) 0.3983(4)
H10_3 H 0.9910 0.2623 0.5220
H12_3 H 0.9596 0.2894 0.5874
O15_2 O 0.8898(5) 0.4210(4) 0.9308(3)
O16_2 O 0.8047(5) 0.3665(3) 0.8509(2)
N1_4 N 0.3884(14) 0.7942(8) 0.0843(5)
N2_4 N 0.002(2) 0.5135(11) 0.1694(8)
O1_4 O 0.5013(5) 0.5224(3) 0.0492(2)
O2_4 O 0.4503(4) 0.6075(3) 0.2632(3)
O3_4 O 0.5155(6) 0.5056(4) 0.3127(2)
O10_4 O 0.0829(6) 0.7208(4) 0.2342(3)
O11_4 O 0.3379(6) 0.7141(4) 0.1623(3)
O12_4 O 0.1946(6) 0.5675(4) 0.1963(3)
C1_4 C 0.5150(7) 0.4812(4) 0.1018(3)
C2_4 C 0.4970(7) 0.5239(4) 0.1529(3)
H1_4 H 0.4720 0.5771 0.1498
C3_4 C 0.5135(8) 0.4926(5) 0.2068(3)
C4_4 C 0.5517(7) 0.4135(5) 0.2112(4)
H2_4 H 0.5678 0.3914 0.2485
C5_4 C 0.5663(7) 0.3668(5) 0.1600(4)
C6_4 C 0.5430(7) 0.4014(5) 0.1054(4)
H3_4 H 0.5462 0.3706 0.0710
C13_4 C 0.4902(7) 0.5362(5) 0.2641(4)
C14_4 C 0.5926(7) 0.2793(6) 0.1677(4)
C17_4 C 0.3293(11) 0.7781(7) 0.1372(6)
C18_4 C 0.2536(10) 0.8426(7) 0.1592(4)
H7_4 H 0.2598 0.8868 0.1321
H8_4 H 0.2867 0.8583 0.1976
H9_4 H 0.1629 0.8266 0.1629
C19_4 C 0.4711(17) 0.7232(10) 0.0597(5)
H10_4 H 0.5090 0.7377 0.0220
H11_4 H 0.4150 0.6776 0.0546
H12_4 H 0.5404 0.7106 0.0874
C20_4 C 0.394(2) 0.8644(8) 0.0475(8)
H13_4 H 0.4496 0.8543 0.0136
H14_4 H 0.4297 0.9079 0.0702
H15_4 H 0.3067 0.8778 0.0342
C21_4 C 0.1009(17) 0.5468(10) 0.1565(8)
C22_4 C 0.1144(14) 0.5659(10) 0.0921(7)
H16_4 H 0.2001 0.5885 0.0848
H17_4 H 0.0474 0.6035 0.0808
H18_4 H 0.1044 0.5180 0.0691
H24_3 H 0.0606 0.4636 0.2457
H25_4 H 0.0862723 0.774169 0.253345
H26_4 H 0.0622373 0.726976 0.191139
C7_4 C 0.5170(9) 0.4808(5) 0.9972(4)
C8_4 C 0.4077(8) 0.4612(5) 0.9621(3)
H4_4 H 0.3237 0.4724 0.9767
C9_4 C 0.4182(7) 0.4272(5) 0.9087(3)
C10_4 C 0.5450(6) 0.4059(5) 0.8870(3)
H5_4 H 0.5544 0.3808 0.8502
C11_4 C 0.6566(7) 0.4239(5) 0.9223(4)
C12_4 C 0.6436(7) 0.4617(4) 0.9743(3)
H6_4 H 0.7187 0.4757 0.9959
C15_4 C 0.3015(7) 0.4084(5) 0.8685(4)
C16_4 C 0.7929(7) 0.4022(5) 0.8983(4)
C23_2 C 0.3940(12) 0.0001(9) 0.8792(7)
H19_2 H 0.3186 0.0256 0.8614
H20_2 H 0.4289 0.0334 0.9102
C24_2 C 0.4907(15) 0.0015(7) 0.7668(7)
H22_2 H 0.4069 0.0260 0.7586
H24_4 H 0.5606 0.0364 0.7543
H21_3 H 0.1321 0.0503 0.3957
H23_3 H 0.0031 0.0480 0.2455
C23_3 C 0.1060(12) 0.9999(9) 0.3792(7)
H19_3 H 0.1814 0.9744 0.3614
H20_3 H 0.0711 0.9666 0.4102
C24_3 C 0.0093(15) 0.9985(7) 0.2668(7)
H22_3 H 0.0931 0.9740 0.2586
C23_4 C 0.8940(12) 0.4999(9) 0.1208(7)
H19_4 H 0.8186 0.4744 0.1386
H20_4 H 0.9289 0.4666 0.0898
H21_4 H 0.8679 0.5503 0.1043
C24_4 C 0.9907(15) 0.4985(7) 0.2332(7)
H22_4 H 0.9069 0.4740 0.2414
H23_4 H 0.9969 0.5480 0.2545
loop_
_geom_bond_atom_site_label_1
_geom_bond_atom_site_label_2
_geom_bond_site_symmetry_1
_geom_bond_site_symmetry_2
O6 C16 1_555 1_555
O7 C16 1_555 1_555
H5 C10 1_555 1_555
C11 C10 1_555 1_555
C12 C7 1_555 1_555
H6 C12 1_555 1_555
C16 C11 1_555 1_555
Co4 O6 1_555 1_555
O7 Co4 1_555 1_555
C11 C12 1_555 1_555
O4 C14 1_555 1_555
O5 C14 1_555 1_555
C4 C3 1_555 1_555
H2 C4 1_555 1_555
C5 C4 1_555 1_555
C6 C1 1_555 1_555
H3 C6 1_555 1_555
C14 C5 1_555 1_555
Co5 O5 1_555 1_555
Co7 O4 1_555 1_555
C5 C6 1_555 1_555
O8 C15 1_555 1_555
O9 C15 1_555 1_555
H4 C8 1_555 1_555
C9 C8 1_555 1_555
C15 C9 1_555 1_555
Co4 O8 1_555 1_555
Co6 O9 1_555 1_555
Co1 O2 1_555 1_555
Co2 O2 1_555 1_555
N1 C17 1_555 1_555
N2 C21 1_555 1_555
O2 C13 1_555 1_555
O10 Co2 1_555 1_555
O11 Co2 1_555 1_555
O12 Co2 1_555 1_555
C2 H1 1_555 1_555
C17 O11 1_555 1_555
C18 C17 1_555 1_555
H7 C18 1_555 1_555
H8 C18 1_555 1_555
H9 C18 1_555 1_555
C19 N1 1_555 1_555
H11 C19 1_555 1_555
C20 N1 1_555 1_555
H13 C20 1_555 1_555
H14 C20 1_555 1_555
H15 C20 1_555 1_555
C21 O12 1_555 1_555
C22 C21 1_555 1_555
H16 C22 1_555 1_555
H17 C22 1_555 1_555
H18 C22 1_555 1_555
O13 Co2 1_555 1_555
O14 Co1 1_555 1_555
O17 Co1 1_555 1_555
O18 Co2 1_555 1_555
O10 H25 1_555 1_555
O10 H26 1_555 1_555
Co4 O2_2 1_555 1_555
Co6 O2_2 1_555 1_555
N1_2 C17_2 1_555 1_555
N2_2 C21_2 1_555 1_555
O2_2 C13_2 1_555 1_555
O3_2 Co4 1_555 1_555
O10_2 Co6 1_555 1_555
O11_2 Co6 1_555 1_555
O12_2 Co6 1_555 1_555
C2_2 H1_2 1_555 1_555
C13_2 O3_2 1_555 1_555
C17_2 O11_2 1_555 1_555
C18_2 C17_2 1_555 1_555
H7_2 C18_2 1_555 1_555
H8_2 C18_2 1_555 1_555
H9_2 C18_2 1_555 1_555
C19_2 N1_2 1_555 1_555
H10_2 C19_2 1_555 1_555
H11_2 C19_2 1_555 1_555
H12_2 C19_2 1_555 1_555
C20_2 N1_2 1_555 1_555
H13_2 C20_2 1_555 1_555
H14_2 C20_2 1_555 1_555
H15_2 C20_2 1_555 1_555
C21_2 O12_2 1_555 1_555
C22_2 C21_2 1_555 1_555
H16_2 C22_2 1_555 1_555
H17_2 C22_2 1_555 1_555
H18_2 C22_2 1_555 1_555
O13_2 Co6 1_555 1_555
O14_2 Co4 1_555 1_555
O10_2 H25_2 1_555 1_555
O10_2 H26_2 1_555 1_555
O4_2 C14_2 1_555 1_555
O5_2 C14_2 1_555 1_555
O15 C16_2 1_555 1_555
O16 C16_2 1_555 1_555
O17 C15_2 1_555 1_555
O18 C15_2 1_555 1_555
C4_2 C3_2 1_555 1_555
H2_2 C4_2 1_555 1_555
C5_2 C4_2 1_555 1_555
C6_2 C1_2 1_555 1_555
H3_2 C6_2 1_555 1_555
C8_2 C7_2 1_555 1_555
H4_2 C8_2 1_555 1_555
C9_2 C8_2 1_555 1_555
C10_2 C9_2 1_555 1_555
H5_2 C10_2 1_555 1_555
C11_2 C10_2 1_555 1_555
C12_2 C7_2 1_555 1_555
H6_2 C12_2 1_555 1_555
C14_2 C5_2 1_555 1_555
C15_2 C9_2 1_555 1_555
C16_2 C11_2 1_555 1_555
Co5_2 O5_2 1_555 1_555
Co7_2 O4_2 1_555 1_555
C5_2 C6_2 1_555 1_555
C11_2 C12_2 1_555 1_555
Co5 O2_3 1_555 1_555
Co7 O2_3 1_555 1_555
N1_3 C17_3 1_555 1_555
N2_3 C21_3 1_555 1_555
O2_3 C13_3 1_555 1_555
O8_2 C15_3 1_555 1_555
O9_2 C15_3 1_555 1_555
O10_3 Co7 1_555 1_555
O11_3 Co7 1_555 1_555
O12_3 Co7 1_555 1_555
C2_3 H1_3 1_555 1_555
H4_3 C8_3 1_555 1_555
C9_3 C8_3 1_555 1_555
C15_3 C9_3 1_555 1_555
C17_3 O11_3 1_555 1_555
C18_3 C17_3 1_555 1_555
H7_3 C18_3 1_555 1_555
H8_3 C18_3 1_555 1_555
H9_3 C18_3 1_555 1_555
C19_3 N1_3 1_555 1_555
H11_3 C19_3 1_555 1_555
C20_3 N1_3 1_555 1_555
H13_3 C20_3 1_555 1_555
H14_3 C20_3 1_555 1_555
H15_3 C20_3 1_555 1_555
C21_3 O12_3 1_555 1_555
C22_3 C21_3 1_555 1_555
H16_3 C22_3 1_555 1_555
H17_3 C22_3 1_555 1_555
H18_3 C22_3 1_555 1_555
C23 N2_3 1_555 1_555
H19 C23 1_555 1_555
H20 C23 1_555 1_555
H21_2 C23 1_555 1_555
C24 N2_3 1_555 1_555
H22 C24 1_555 1_555
H23_2 C24 1_555 1_555
H24_2 C24 1_555 1_555
Co5_2 O8_2 1_555 1_555
Co7_2 O9_2 1_555 1_555
O17_2 Co5 1_555 1_555
O18_2 Co7 1_555 1_555
O10_3 H25_3 1_555 1_555
O10_3 H26_3 1_555 1_555
O1_3 C1_3 1_555 1_555
O13 C14_3 1_555 1_555
O14 C14_3 1_555 1_555
O6_2 C16_3 1_555 1_555
O7_2 C16_3 1_555 1_555
C4_3 C3_3 1_555 1_555
H2_3 C4_3 1_555 1_555
C5_3 C4_3 1_555 1_555
C6_3 C1_3 1_555 1_555
H3_3 C6_3 1_555 1_555
C7_3 O1_3 1_555 1_555
H5_3 C10_3 1_555 1_555
C11_3 C10_3 1_555 1_555
C12_3 C7_3 1_555 1_555
H6_3 C12_3 1_555 1_555
C14_3 C5_3 1_555 1_555
C16_3 C11_3 1_555 1_555
Co5_2 O6_2 1_555 1_555
O7_2 Co5_2 1_555 1_555
C5_3 C6_3 1_555 1_555
C11_3 C12_3 1_555 1_555
Co5_2 O2_4 1_555 1_555
Co7_2 O2_4 1_555 1_555
N1_4 C17_4 1_555 1_555
N2_4 C21_4 1_555 1_555
O1_4 C1_4 1_555 1_555
O2_4 C13_4 1_555 1_555
O3_4 Co5_2 1_555 1_555
O13_2 C14_4 1_555 1_555
O14_2 C14_4 1_555 1_555
O10_4 Co7_2 1_555 1_555
O11_4 Co7_2 1_555 1_555
O12_4 Co7_2 1_555 1_555
C1_4 C2_4 1_555 1_555
C2_4 H1_4 1_555 1_555
C3_4 C2_4 1_555 1_555
C4_4 C3_4 1_555 1_555
H2_4 C4_4 1_555 1_555
C5_4 C4_4 1_555 1_555
C6_4 C1_4 1_555 1_555
H3_4 C6_4 1_555 1_555
C13_4 O3_4 1_555 1_555
C14_4 C5_4 1_555 1_555
C17_4 O11_4 1_555 1_555
C18_4 C17_4 1_555 1_555
H7_4 C18_4 1_555 1_555
H8_4 C18_4 1_555 1_555
H9_4 C18_4 1_555 1_555
C19_4 N1_4 1_555 1_555
H10_4 C19_4 1_555 1_555
H11_4 C19_4 1_555 1_555
H12_4 C19_4 1_555 1_555
C20_4 N1_4 1_555 1_555
H13_4 C20_4 1_555 1_555
H14_4 C20_4 1_555 1_555
H15_4 C20_4 1_555 1_555
C21_4 O12_4 1_555 1_555
C22_4 C21_4 1_555 1_555
H16_4 C22_4 1_555 1_555
H17_4 C22_4 1_555 1_555
H18_4 C22_4 1_555 1_555
C3_4 C13_4 1_555 1_555
C5_4 C6_4 1_555 1_555
O10_4 H25_4 1_555 1_555
O10_4 H26_4 1_555 1_555
O15_2 C16_4 1_555 1_555
O16_2 C16_4 1_555 1_555
O17_2 C15_4 1_555 1_555
O18_2 C15_4 1_555 1_555
C8_4 C7_4 1_555 1_555
H4_4 C8_4 1_555 1_555
C9_4 C8_4 1_555 1_555
C10_4 C9_4 1_555 1_555
H5_4 C10_4 1_555 1_555
C11_4 C10_4 1_555 1_555
C12_4 C7_4 1_555 1_555
H6_4 C12_4 1_555 1_555
C15_4 C9_4 1_555 1_555
C16_4 C11_4 1_555 1_555
C11_4 C12_4 1_555 1_555
H19_2 C23_2 1_555 1_555
H20_2 C23_2 1_555 1_555
H22_2 C24_2 1_555 1_555
H24_4 C24_2 1_555 1_555
H19_3 C23_3 1_555 1_555
H20_3 C23_3 1_555 1_555
H22_3 C24_3 1_555 1_555
H19_4 C23_4 1_555 1_555
H20_4 C23_4 1_555 1_555
H21_4 C23_4 1_555 1_555
H22_4 C24_4 1_555 1_555
H23_4 C24_4 1_555 1_555

#END
