
###############################################################################
#
# This file contains modified crystal structure data generated from the
# MOF subset of the Cambridge Structural Database (CSD) v543 
# hosted by the Cambridge Crystallographic Data Centre (CCDC).
#
# This work is licensed under the Creative Commons
# Attribution-NonCommercial-ShareAlike 4.0 International License.
# To view a copy of this license, visit
# http://creativecommons.org/licenses/by-nc-sa/4.0/
# or send a letter to
# Creative Commons, PO Box 1866, Mountain View, CA 94042, USA.
#
# CIF created using the CSD Python API on 29 September 2022
# The structure has been converted into the P1 space group
# The structure has a 3D framework
# The original CSD entry FUDQIF is in the tetragonal crystal system
# The framework has been calculated to contain at least 10.0% void space
# The void calculation uses a probe of radius 1.32A, grid spacing 0.4
#
###############################################################################

data_FUDQIF
_chemical_formula_moiety         '(C8 H8 F10 N4 Si2 Zn1)n'
_symmetry_cell_setting           triclinic
_symmetry_space_group_name_H-M   'P 1'
_symmetry_Int_Tables_number      1
_space_group_name_Hall           'P 1'
loop_
_symmetry_equiv_pos_site_id
_symmetry_equiv_pos_as_xyz
1 x,y,z
_cell_length_a                   7.1409(10)
_cell_length_b                   7.1409(10)
_cell_length_c                   7.6068(15)
_cell_angle_alpha                90
_cell_angle_beta                 90
_cell_angle_gamma                90
_cell_volume                     387.889
loop_
_atom_site_label
_atom_site_type_symbol
_atom_site_fract_x
_atom_site_fract_y
_atom_site_fract_z
Zn4 Zn 0.5000 0.5000 0.5000
N4 N 0.1958(8) 0.5000 0.5000
C6 C 0.0986(8) 0.5000 0.3555(7)
C7 C 0.0986(8) 0.5000 0.6445(7)
H6 H 0.1614 0.5000 0.7515
H8 H 0.1614 0.5000 0.2485
F1 F 0.5000 0.5000 0.2296(7)
F2 F 0.3359(4) 0.3359(4) 0.0000
N1 N 0.5000 0.1958(8) 0.5000
C1 C 0.5000 0.0986(8) 0.3555(7)
H1 H 0.5000 0.1614 0.2485
Si1 Si 0.5000 0.5000 0.0000
F4 F 0.5000 0.5000 0.7704(7)
F5 F 0.6641(4) 0.6641(4) 0.0000
F6 F 0.6641(4) 0.3359(4) 0.0000
F7 F 0.3359(4) 0.6641(4) 0.0000
N3 N 0.8042(8) 0.5000 0.5000
N5 N 0.5000 0.8042(8) 0.5000
C4 C 0.5000 0.0986(8) 0.6445(7)
C5 C 0.9014(8) 0.5000 0.3555(7)
C8 C 0.9014(8) 0.5000 0.6445(7)
H3 H 0.5000 0.1614 0.7515
H5 H 0.8386 0.5000 0.2485
H7 H 0.8386 0.5000 0.7515
F2_2 F 0.3359(4) 0.3359(4) 1.0000
Si1_2 Si 0.5000 0.5000 1.0000
F5_2 F 0.6641(4) 0.6641(4) 1.0000
F6_2 F 0.6641(4) 0.3359(4) 1.0000
F7_2 F 0.3359(4) 0.6641(4) 1.0000
C2 C 0.5000 0.9014(8) 0.3555(7)
C3 C 0.5000 0.9014(8) 0.6445(7)
H2 H 0.5000 0.8386 0.7515
H4 H 0.5000 0.8386 0.2485
loop_
_geom_bond_atom_site_label_1
_geom_bond_atom_site_label_2
_geom_bond_site_symmetry_1
_geom_bond_site_symmetry_2
Zn4 N4 1_555 1_555
N4 C6 1_555 1_555
C7 N4 1_555 1_555
H6 C7 1_555 1_555
H8 C6 1_555 1_555
Zn4 F1 1_555 1_555
F1 Si1 1_555 1_555
F2 Si1 1_555 1_555
N1 Zn4 1_555 1_555
C1 N1 1_555 1_555
H1 C1 1_555 1_555
F4 Zn4 1_555 1_555
F5 Si1 1_555 1_555
F6 Si1 1_555 1_555
F7 Si1 1_555 1_555
N3 Zn4 1_555 1_555
N5 Zn4 1_555 1_555
C4 N1 1_555 1_555
C5 N3 1_555 1_555
C8 N3 1_555 1_555
H3 C4 1_555 1_555
H5 C5 1_555 1_555
H7 C8 1_555 1_555
F2_2 Si1_2 1_555 1_555
Si1_2 F4 1_555 1_555
F5_2 Si1_2 1_555 1_555
F6_2 Si1_2 1_555 1_555
F7_2 Si1_2 1_555 1_555
N5 C2 1_555 1_555
C3 N5 1_555 1_555
H2 C3 1_555 1_555
H4 C2 1_555 1_555

#END
