
###############################################################################
#
# This file contains modified crystal structure data generated from the
# MOF subset of the Cambridge Structural Database (CSD) v543 
# hosted by the Cambridge Crystallographic Data Centre (CCDC).
#
# This work is licensed under the Creative Commons
# Attribution-NonCommercial-ShareAlike 4.0 International License.
# To view a copy of this license, visit
# http://creativecommons.org/licenses/by-nc-sa/4.0/
# or send a letter to
# Creative Commons, PO Box 1866, Mountain View, CA 94042, USA.
#
# CIF created using the CSD Python API on 29 September 2022
# The structure has been converted into the P1 space group
# The structure has a 3D framework
# The original CSD entry FUDZAG is in the orthorhombic crystal system
# The original CSD entry FUDZAG is in a Sohncke space group
# The framework has been calculated to contain at least 10.0% void space
# The void calculation uses a probe of radius 1.32A, grid spacing 0.4
#
###############################################################################

data_FUDZAG
_chemical_formula_moiety         '(C120 H108 Cd7 Cl4 N24 O20)n'
_symmetry_cell_setting           triclinic
_symmetry_space_group_name_H-M   'P 1'
_symmetry_Int_Tables_number      1
_space_group_name_Hall           'P 1'
loop_
_symmetry_equiv_pos_site_id
_symmetry_equiv_pos_as_xyz
1 x,y,z
_cell_length_a                   14.1833(6)
_cell_length_b                   15.0437(6)
_cell_length_c                   15.3021(6)
_cell_angle_alpha                90
_cell_angle_beta                 90
_cell_angle_gamma                90
_cell_volume                     3265
loop_
_atom_site_label
_atom_site_type_symbol
_atom_site_fract_x
_atom_site_fract_y
_atom_site_fract_z
O2 O 0.6762(2) 0.0260(2) 0.68959(19)
N4 N 0.1906(3) 0.1676(3) 0.3389(2)
N5 N 0.1675(3) 0.0244(3) 0.3252(3)
C13 C 0.1556(4) 0.1039(3) 0.2899(3)
H9 H 0.1259 0.1135 0.2365
C26 C 0.2179(6) 0.0355(4) 0.4000(4)
C27 C 0.2287(6) 0.1240(4) 0.4079(4)
H24 H 0.2584 0.1517 0.4548
Cd3 Cd 0.19200(2) 0.31928(2) 0.316553(19)
Cd4 Cd 0.69200(2) 0.18072(2) 0.683447(19)
Cd7 Cd 0.53075(2) 0.030018(19) 0.543007(17)
O3 O 0.8179(2) 0.8388(2) 0.03432(18)
Cl1 Cl 0.56175(19) 0.43106(16) 0.04732(15)
Cd6 Cd 0.80800(2) 0.81928(2) 0.183447(19)
Cd8 Cd 0.96925(2) 0.969982(19) 0.043007(17)
O10 O 0.3386(2) 0.5320(2) 0.0328(2)
Cd1 Cd 0.30800(2) 0.68072(2) 0.816553(19)
Cd2 Cd 0.46925(2) 0.530018(19) 0.956993(17)
O1 O 0.4734(2) 0.6786(2) 0.82454(19)
O4 O 0.5429(2) 0.9536(2) 0.66234(18)
N1 N 0.3156(3) 0.6891(3) 0.6666(2)
O5 O 0.8386(2) 0.9680(2) 0.9672(2)
N2 N 0.4923(3) 0.8078(3) 0.1856(3)
N3 N 0.6453(3) 0.8330(3) 0.1826(3)
N6 N 0.2883(3) 0.6850(3) 0.5253(2)
C1 C 0.6598(3) 0.8023(3) 0.9300(2)
H1 H 0.6702 0.7656 0.9780
O6 O 0.5498(2) 0.6530(2) 0.9493(2)
C2 C 0.7152(3) 0.8779(3) 0.9181(2)
C3 C 0.6993(3) 0.9314(3) 0.8464(2)
H2 H 0.7361 0.9820 0.8384
C4 C 0.6169(3) 0.9691(3) 0.7079(2)
C5 C 0.3235(3) 0.7201(3) 0.3067(3)
C6 C 0.1278(4) 0.8174(5) 0.4447(4)
H3 H 0.0909 0.8700 0.4353
H4 H 0.1632 0.8235 0.4979
H5 H 0.0867 0.7668 0.4492
C7 C 0.1991(3) 0.8632(3) 0.2994(3)
C8 C 0.5756(3) 0.8356(3) 0.7981(2)
H6 H 0.5297 0.8208 0.7572
C9 C 0.1948(3) 0.8044(3) 0.3688(3)
C10 C 0.7951(3) 0.8961(3) 0.9788(3)
C11 C 0.1290(3) 0.9390(3) 0.2922(3)
H7 H 0.1109 0.9462 0.2315
H8 H 0.0728 0.9240 0.3252
C12 C 0.5896(3) 0.7815(3) 0.8709(2)
C14 C 0.2556(3) 0.7302(3) 0.3714(3)
C15 C 0.3943(4) 0.6460(4) 0.3112(4)
H10 H 0.4359 0.6496 0.2618
H11 H 0.3620 0.5899 0.3105
H12 H 0.4302 0.6512 0.3641
C16 C 0.2711(4) 0.9190(4) 0.1593(3)
H13 H 0.3211 0.9028 0.1202
H14 H 0.2827 0.9774 0.1822
H15 H 0.2122 0.9186 0.1283
C17 C 0.5310(3) 0.6991(3) 0.8819(3)
C18 C 0.6301(3) 0.9114(3) 0.7865(2)
C19 C 0.5768(4) 0.7801(4) 0.1596(4)
H16 H 0.5861 0.7280 0.1281
C20 C 0.4007(3) 0.7667(4) 0.1657(3)
H17 H 0.4096 0.7035 0.1565
H18 H 0.3763 0.7919 0.1120
C21 C 0.3297(3) 0.7804(3) 0.2376(3)
C22 C 0.2421(4) 0.6614(3) 0.4415(3)
H19 H 0.1751 0.6535 0.4517
H20 H 0.2672 0.6052 0.4211
C23 C 0.6009(4) 0.8996(4) 0.2269(5)
H21 H 0.6311 0.9483 0.2517
C24 C 0.2556(4) 0.6655(3) 0.6046(3)
H22 H 0.1977 0.6387 0.6151
C25 C 0.2668(3) 0.8532(3) 0.2334(3)
H23 H 0.2400 0.9915 0.4375
C28 C 0.5078(4) 0.8850(4) 0.2297(4)
H25 H 0.4626 0.9206 0.2565
C29 C 0.3731(4) 0.7234(5) 0.5363(4)
H26 H 0.4126 0.7453 0.4929
C30 C 0.3893(4) 0.7237(6) 0.6233(4)
H27 H 0.4439 0.7449 0.6496
O7 O 0.3238(2) 0.5260(2) 0.81041(19)
O8 O 0.3179(2) 0.6612(2) 0.96568(18)
O9 O 0.4571(2) 0.4536(2) 0.83766(18)
N7 N 0.1453(3) 0.6670(3) 0.8174(3)
N8 N 0.3094(3) 0.8324(3) 0.8389(2)
Cd2_2 Cd 0.03075(2) 0.469982(19) 0.456993(17)
O1_2 O 0.0266(2) 0.3214(2) 0.32454(19)
N1_2 N 0.1844(3) 0.3109(3) 0.1666(2)
N6_2 N 0.2117(3) 0.3150(3) 0.0253(2)
C24_2 C 0.2444(4) 0.3345(3) 0.1046(3)
H22_2 H 0.3023 0.3613 0.1151
C29_2 C 0.1269(4) 0.2766(5) 0.0363(4)
C30_2 C 0.1107(4) 0.2763(6) 0.1233(4)
H27_2 H 0.0561 0.2551 0.1496
O7_2 O 0.1762(2) 0.4740(2) 0.31041(19)
O8_2 O 0.1821(2) 0.3388(2) 0.46568(18)
O9_2 O 0.0429(2) 0.5464(2) 0.33766(18)
O10_2 O 0.1614(2) 0.4680(2) 0.5328(2)
N7_2 N 0.3547(3) 0.3330(3) 0.3174(3)
N5_2 N 0.3325(3) 0.9756(3) 0.8252(3)
C13_2 C 0.3444(4) 0.8961(3) 0.7899(3)
H9_2 H 0.3741 0.8865 0.7365
C26_2 C 0.2821(6) 0.9645(4) 0.9000(4)
C27_2 C 0.2713(6) 0.8760(4) 0.9079(4)
H24_2 H 0.2416 0.8483 0.9548
O3_2 O 0.6821(2) 0.1612(2) 0.53432(18)
O4_2 O 0.9571(2) 0.0464(2) 0.16234(18)
O5_2 O 0.6614(2) 0.0320(2) 0.4672(2)
C1_2 C 0.8402(3) 0.1977(3) 0.4300(2)
H1_2 H 0.8298 0.2344 0.4780
O6_2 O 0.9502(2) 0.3470(2) 0.4493(2)
C2_2 C 0.7848(3) 0.1221(3) 0.4181(2)
C3_2 C 0.8007(3) 0.0686(3) 0.3464(2)
H2_2 H 0.7639 0.0180 0.3384
C4_2 C 0.8831(3) 0.0309(3) 0.2079(2)
C8_2 C 0.9244(3) 0.1644(3) 0.2981(2)
H6_2 H 0.9703 0.1792 0.2572
C10_2 C 0.7049(3) 0.1039(3) 0.4788(3)
C12_2 C 0.9104(3) 0.2185(3) 0.3709(2)
C17_2 C 0.9690(3) 0.3009(3) 0.3819(3)
C18_2 C 0.8699(3) 0.0886(3) 0.2865(2)
Cl1_2 Cl 0.93825(19) 0.56894(16) 0.54732(15)
N3_2 N 0.8547(3) 0.1670(3) 0.6826(3)
C19_2 C 0.9232(4) 0.2199(4) 0.6596(4)
H16_2 H 0.9139 0.2720 0.6281
C23_2 C 0.8991(4) 0.1004(4) 0.7269(5)
H21_2 H 0.8689 0.0517 0.7517
C28_2 C 0.9922(4) 0.1150(4) 0.7297(4)
O2_2 O 0.8238(2) 0.9740(2) 0.18959(19)
N2_2 N 0.5077(3) 0.3078(3) 0.3144(3)
N4_2 N 0.8094(3) 0.6676(3) 0.1611(2)
N5_3 N 0.8325(3) 0.5244(3) 0.1748(3)
C5_2 C 0.6765(3) 0.2201(3) 0.1933(3)
C6_2 C 0.8722(4) 0.3174(5) 0.0553(4)
H3_2 H 0.9091 0.3700 0.0647
H4_2 H 0.8368 0.3235 0.0021
H5_2 H 0.9133 0.2668 0.0508
C7_2 C 0.8009(3) 0.3632(3) 0.2006(3)
C9_2 C 0.8052(3) 0.3044(3) 0.1312(3)
C11_2 C 0.8710(3) 0.4390(3) 0.2078(3)
H7_2 H 0.8891 0.4462 0.2685
H8_2 H 0.9272 0.4240 0.1748
C13_3 C 0.8444(4) 0.6039(3) 0.2101(3)
H9_3 H 0.8741 0.6135 0.2635
C14_2 C 0.7444(3) 0.2302(3) 0.1286(3)
C15_2 C 0.6057(4) 0.1460(4) 0.1888(4)
H10_2 H 0.5641 0.1496 0.2382
H11_2 H 0.6380 0.0899 0.1895
H12_2 H 0.5698 0.1512 0.1359
C16_2 C 0.7289(4) 0.4190(4) 0.3407(3)
H13_2 H 0.6789 0.4028 0.3798
H14_2 H 0.7173 0.4774 0.3178
H15_2 H 0.7878 0.4186 0.3717
C19_3 C 0.4232(4) 0.2801(4) 0.3404(4)
H16_3 H 0.4139 0.2280 0.3719
C20_2 C 0.5993(3) 0.2667(4) 0.3343(3)
H17_2 H 0.5904 0.2035 0.3435
H18_2 H 0.6237 0.2919 0.3880
C21_2 C 0.6703(3) 0.2804(3) 0.2624(3)
C22_2 C 0.7579(4) 0.1614(3) 0.0585(3)
H19_2 H 0.8249 0.1535 0.0483
H20_2 H 0.7328 0.1052 0.0789
C23_3 C 0.3991(4) 0.3996(4) 0.2731(5)
H21_3 H 0.3689 0.4483 0.2483
C25_2 C 0.7332(3) 0.3532(3) 0.2666(3)
C26_3 C 0.7821(6) 0.5355(4) 0.1000(4)
H23_2 H 0.7600 0.4915 0.0625
C27_3 C 0.7713(6) 0.6240(4) 0.0921(4)
H24_3 H 0.7416 0.6517 0.0452
C28_3 C 0.4922(4) 0.3850(4) 0.2703(4)
H25_2 H 0.5374 0.4206 0.2435
H26_2 H 0.5874 0.2453 0.0071
O1_3 O 0.5266(2) 0.1786(2) 0.67546(19)
N1_3 N 0.6844(3) 0.1891(3) 0.8334(2)
N6_3 N 0.7117(3) 0.1850(3) 0.9747(2)
C1_3 C 0.3402(3) 0.3023(3) 0.5700(2)
H1_3 H 0.3298 0.2656 0.5220
O6_3 O 0.4502(2) 0.1530(2) 0.5507(2)
C2_3 C 0.2848(3) 0.3779(3) 0.5819(2)
C3_3 C 0.3007(3) 0.4314(3) 0.6536(2)
H2_3 H 0.2639 0.4820 0.6616
C4_3 C 0.3831(3) 0.4691(3) 0.7921(2)
C8_3 C 0.4244(3) 0.3356(3) 0.7019(2)
H6_3 H 0.4703 0.3208 0.7428
C10_3 C 0.2049(3) 0.3961(3) 0.5212(3)
C12_3 C 0.4104(3) 0.2815(3) 0.6291(2)
C17_3 C 0.4690(3) 0.1991(3) 0.6181(3)
C18_3 C 0.3699(3) 0.4114(3) 0.7135(2)
C24_3 C 0.7444(4) 0.1655(3) 0.8954(3)
H22_3 H 0.8023 0.1387 0.8849
C29_3 C 0.6269(4) 0.2234(5) 0.9637(4)
C30_3 C 0.6107(4) 0.2237(6) 0.8767(4)
H27_3 H 0.5561 0.2449 0.8504
N8_2 N 0.6906(3) 0.3324(3) 0.6611(2)
Cl1_3 Cl 0.43825(19) 0.93106(16) 0.45268(15)
C1_4 C 0.1598(3) 0.6977(3) 0.0700(2)
H1_4 H 0.1702 0.7344 0.0220
O6_4 O 0.0498(2) 0.8470(2) 0.0507(2)
C2_4 C 0.2152(3) 0.6221(3) 0.0819(2)
C3_4 C 0.1993(3) 0.5686(3) 0.1536(2)
H2_4 H 0.2361 0.5180 0.1616
C4_4 C 0.1169(3) 0.5309(3) 0.2921(2)
C8_4 C 0.0756(3) 0.6644(3) 0.2019(2)
H6_4 H 0.0297 0.6792 0.2428
C10_4 C 0.2951(3) 0.6039(3) 0.0212(3)
C12_4 C 0.0896(3) 0.7185(3) 0.1291(2)
C17_4 C 0.0310(3) 0.8009(3) 0.1181(3)
C18_4 C 0.1301(3) 0.5886(3) 0.2135(2)
C19_4 C 0.0768(4) 0.7199(4) 0.8404(4)
H16_4 H 0.0861 0.7720 0.8719
C23_4 C 0.1009(4) 0.6004(4) 0.7731(5)
H21_4 H 0.1311 0.5517 0.7483
C28_4 C 0.0078(4) 0.6150(4) 0.7703(4)
O1_4 O 0.9734(2) 0.8214(2) 0.17546(19)
N1_4 N 0.8156(3) 0.8109(3) 0.3334(2)
N2_3 N 0.9923(3) 0.6922(3) 0.8144(3)
N5_4 N 0.6675(3) 0.4756(3) 0.6748(3)
N6_4 N 0.7883(3) 0.8150(3) 0.4747(2)
C5_3 C 0.8235(3) 0.7799(3) 0.6933(3)
C6_3 C 0.6278(4) 0.6826(5) 0.5553(4)
H3_3 H 0.5909 0.6300 0.5647
H4_3 H 0.6632 0.6765 0.5021
H5_3 H 0.5867 0.7332 0.5508
C7_3 C 0.6991(3) 0.6368(3) 0.7006(3)
C9_3 C 0.6948(3) 0.6956(3) 0.6312(3)
C11_3 C 0.6290(3) 0.5610(3) 0.7078(3)
H7_3 H 0.6109 0.5538 0.7685
H8_3 H 0.5728 0.5760 0.6748
C13_4 C 0.6556(4) 0.3961(3) 0.7101(3)
H9_4 H 0.6259 0.3865 0.7635
C14_3 C 0.7556(3) 0.7698(3) 0.6286(3)
C15_3 C 0.8943(4) 0.8540(4) 0.6888(4)
H10_3 H 0.9359 0.8504 0.7382
H11_3 H 0.8620 0.9101 0.6895
H12_3 H 0.9302 0.8488 0.6359
C16_3 C 0.7711(4) 0.5810(4) 0.8407(3)
H13_3 H 0.8211 0.5972 0.8798
H14_3 H 0.7827 0.5226 0.8178
H15_3 H 0.7122 0.5814 0.8717
C20_3 C 0.9007(3) 0.7333(4) 0.8343(3)
H17_3 H 0.9096 0.7965 0.8435
H18_3 H 0.8763 0.7081 0.8880
C21_3 C 0.8297(3) 0.7196(3) 0.7624(3)
C22_3 C 0.7421(4) 0.8386(3) 0.5585(3)
H19_3 H 0.6751 0.8465 0.5483
H20_3 H 0.7672 0.8948 0.5789
C24_4 C 0.7556(4) 0.8345(3) 0.3954(3)
H22_4 H 0.6977 0.8613 0.3849
C25_3 C 0.7668(3) 0.6468(3) 0.7666(3)
C26_4 C 0.7179(6) 0.4645(4) 0.6000(4)
H23_3 H 0.7400 0.5085 0.5625
C27_4 C 0.7287(6) 0.3760(4) 0.5921(4)
H24_4 H 0.7584 0.3483 0.5452
H25_3 H 0.9626 0.5794 0.7435
C29_4 C 0.8731(4) 0.7766(5) 0.4637(4)
H26_3 H 0.9126 0.7547 0.5071
C30_4 C 0.8893(4) 0.7763(6) 0.3767(4)
H27_4 H 0.9439 0.7551 0.3504
N2_4 N 0.0077(3) 0.1922(3) 0.6856(3)
C5_4 C 0.1765(3) 0.2799(3) 0.8067(3)
C6_4 C 0.3722(4) 0.1826(5) 0.9447(4)
H3_4 H 0.4091 0.1300 0.9353
H4_4 H 0.3368 0.1765 0.9979
H5_4 H 0.4133 0.2332 0.9492
C7_4 C 0.3009(3) 0.1368(3) 0.7994(3)
C9_4 C 0.3052(3) 0.1956(3) 0.8688(3)
C11_4 C 0.3710(3) 0.0610(3) 0.7922(3)
H7_4 H 0.3891 0.0538 0.7315
H8_4 H 0.4272 0.0760 0.8252
C14_4 C 0.2444(3) 0.2698(3) 0.8714(3)
C15_4 C 0.1057(4) 0.3540(4) 0.8112(4)
H10_4 H 0.0641 0.3504 0.7618
H11_4 H 0.1380 0.4101 0.8105
H12_4 H 0.0698 0.3488 0.8641
C16_4 C 0.2289(4) 0.0810(4) 0.6593(3)
H13_4 H 0.1789 0.0972 0.6202
H14_4 H 0.2173 0.0226 0.6822
H15_4 H 0.2878 0.0814 0.6283
C20_4 C 0.0993(3) 0.2333(4) 0.6657(3)
H17_4 H 0.0904 0.2965 0.6565
H18_4 H 0.1237 0.2081 0.6120
C21_4 C 0.1703(3) 0.2196(3) 0.7376(3)
C22_4 C 0.2579(4) 0.3386(3) 0.9415(3)
H19_4 H 0.3249 0.3465 0.9517
H20_4 H 0.2328 0.3948 0.9211
C25_4 C 0.2332(3) 0.1468(3) 0.7334(3)
H23_4 H 0.2600 0.0085 0.9375
H25_4 H 0.0374 0.0794 0.7565
H26_4 H 0.0874 0.2547 0.9929
Cl1_4 Cl 0.06175(19) 0.06894(16) 0.95268(15)
loop_
_geom_bond_atom_site_label_1
_geom_bond_atom_site_label_2
_geom_bond_site_symmetry_1
_geom_bond_site_symmetry_2
N4 C13 1_555 1_555
C13 N5 1_555 1_555
H9 C13 1_555 1_555
C26 N5 1_555 1_555
C27 N4 1_555 1_555
H24 C27 1_555 1_555
Cd3 N4 1_555 1_555
Cd4 O2 1_555 1_555
C26 C27 1_555 1_555
Cd6 O3 1_555 1_555
Cd1 O1 1_555 1_555
Cd2 O6 1_555 1_555
O1 C17 1_555 1_555
O4 C4 1_555 1_555
N1 Cd1 1_555 1_555
O5 C10 1_555 1_555
N2 C19 1_555 1_555
N3 C19 1_555 1_555
N6 C22 1_555 1_555
C1 H1 1_555 1_555
O6 C17 1_555 1_555
C2 C1 1_555 1_555
C3 C2 1_555 1_555
H2 C3 1_555 1_555
C4 C18 1_555 1_555
C5 C14 1_555 1_555
C6 H3 1_555 1_555
H4 C6 1_555 1_555
H5 C6 1_555 1_555
C7 C9 1_555 1_555
C8 H6 1_555 1_555
C9 C6 1_555 1_555
C10 C2 1_555 1_555
C11 C7 1_555 1_555
H7 C11 1_555 1_555
H8 C11 1_555 1_555
C12 C1 1_555 1_555
C14 C9 1_555 1_555
C15 C5 1_555 1_555
H10 C15 1_555 1_555
H11 C15 1_555 1_555
H12 C15 1_555 1_555
C16 H13 1_555 1_555
H14 C16 1_555 1_555
H15 C16 1_555 1_555
C17 C12 1_555 1_555
C18 C3 1_555 1_555
C19 H16 1_555 1_555
C20 N2 1_555 1_555
H17 C20 1_555 1_555
H18 C20 1_555 1_555
C21 C5 1_555 1_555
C22 C14 1_555 1_555
H19 C22 1_555 1_555
H20 C22 1_555 1_555
C23 N3 1_555 1_555
H21 C23 1_555 1_555
C24 N1 1_555 1_555
H22 C24 1_555 1_555
C25 C7 1_555 1_555
C28 N2 1_555 1_555
H25 C28 1_555 1_555
C29 N6 1_555 1_555
H26 C29 1_555 1_555
C30 N1 1_555 1_555
H27 C30 1_555 1_555
Cd6 N3 1_555 1_555
O7 Cd1 1_555 1_555
O8 Cd1 1_555 1_555
O9 Cd2 1_555 1_555
N7 Cd1 1_555 1_555
N8 Cd1 1_555 1_555
N6 C24 1_555 1_555
C8 C12 1_555 1_555
C8 C18 1_555 1_555
C16 C25 1_555 1_555
C20 C21 1_555 1_555
C21 C25 1_555 1_555
C23 C28 1_555 1_555
C29 C30 1_555 1_555
Cd3 O1_2 1_555 1_555
N1_2 Cd3 1_555 1_555
C24_2 N1_2 1_555 1_555
H22_2 C24_2 1_555 1_555
C29_2 N6_2 1_555 1_555
C30_2 N1_2 1_555 1_555
H27_2 C30_2 1_555 1_555
O7_2 Cd3 1_555 1_555
O8_2 Cd3 1_555 1_555
O9_2 Cd2_2 1_555 1_555
O10_2 Cd2_2 1_555 1_555
N7_2 Cd3 1_555 1_555
N6_2 C24_2 1_555 1_555
C29_2 C30_2 1_555 1_555
N8 C13_2 1_555 1_555
C13_2 N5_2 1_555 1_555
H9_2 C13_2 1_555 1_555
C26_2 N5_2 1_555 1_555
C27_2 N8 1_555 1_555
H24_2 C27_2 1_555 1_555
C26_2 C27_2 1_555 1_555
O3_2 C10_2 1_555 1_555
O4_2 C4_2 1_555 1_555
O5_2 C10_2 1_555 1_555
C1_2 H1_2 1_555 1_555
O6_2 C17_2 1_555 1_555
C2_2 C1_2 1_555 1_555
C3_2 C2_2 1_555 1_555
H2_2 C3_2 1_555 1_555
C4_2 C18_2 1_555 1_555
C8_2 H6_2 1_555 1_555
C10_2 C2_2 1_555 1_555
C12_2 C1_2 1_555 1_555
C17_2 C12_2 1_555 1_555
C18_2 C3_2 1_555 1_555
Cd4 O3_2 1_555 1_555
Cd7 O5_2 1_555 1_555
C8_2 C12_2 1_555 1_555
C8_2 C18_2 1_555 1_555
N3_2 C19_2 1_555 1_555
C19_2 H16_2 1_555 1_555
C23_2 N3_2 1_555 1_555
H21_2 C23_2 1_555 1_555
Cd4 N3_2 1_555 1_555
C23_2 C28_2 1_555 1_555
Cd6 O2_2 1_555 1_555
N2_2 C19_3 1_555 1_555
N7_2 C19_3 1_555 1_555
N4_2 C13_3 1_555 1_555
N5_3 C11_2 1_555 1_555
C5_2 C14_2 1_555 1_555
C6_2 H3_2 1_555 1_555
H4_2 C6_2 1_555 1_555
H5_2 C6_2 1_555 1_555
C7_2 C9_2 1_555 1_555
C9_2 C6_2 1_555 1_555
C11_2 C7_2 1_555 1_555
H7_2 C11_2 1_555 1_555
H8_2 C11_2 1_555 1_555
C13_3 N5_3 1_555 1_555
H9_3 C13_3 1_555 1_555
C14_2 C9_2 1_555 1_555
C15_2 C5_2 1_555 1_555
H10_2 C15_2 1_555 1_555
H11_2 C15_2 1_555 1_555
H12_2 C15_2 1_555 1_555
C16_2 H13_2 1_555 1_555
H14_2 C16_2 1_555 1_555
H15_2 C16_2 1_555 1_555
C19_3 H16_3 1_555 1_555
C20_2 N2_2 1_555 1_555
H17_2 C20_2 1_555 1_555
H18_2 C20_2 1_555 1_555
C21_2 C5_2 1_555 1_555
C22_2 C14_2 1_555 1_555
H19_2 C22_2 1_555 1_555
H20_2 C22_2 1_555 1_555
C23_3 N7_2 1_555 1_555
H21_3 C23_3 1_555 1_555
C25_2 C7_2 1_555 1_555
C26_3 N5_3 1_555 1_555
H23_2 C26_3 1_555 1_555
C27_3 N4_2 1_555 1_555
H24_3 C27_3 1_555 1_555
C28_3 N2_2 1_555 1_555
H25_2 C28_3 1_555 1_555
Cd6 N4_2 1_555 1_555
C16_2 C25_2 1_555 1_555
C20_2 C21_2 1_555 1_555
C21_2 C25_2 1_555 1_555
C23_3 C28_3 1_555 1_555
C26_3 C27_3 1_555 1_555
Cd4 O1_3 1_555 1_555
Cd7 O6_3 1_555 1_555
O1_3 C17_3 1_555 1_555
O7 C4_3 1_555 1_555
O8_2 C10_3 1_555 1_555
O9 C4_3 1_555 1_555
N1_3 Cd4 1_555 1_555
O10_2 C10_3 1_555 1_555
C1_3 H1_3 1_555 1_555
O6_3 C17_3 1_555 1_555
C2_3 C1_3 1_555 1_555
C3_3 C2_3 1_555 1_555
H2_3 C3_3 1_555 1_555
C4_3 C18_3 1_555 1_555
C8_3 H6_3 1_555 1_555
C10_3 C2_3 1_555 1_555
C12_3 C1_3 1_555 1_555
C17_3 C12_3 1_555 1_555
C18_3 C3_3 1_555 1_555
C24_3 N1_3 1_555 1_555
H22_3 C24_3 1_555 1_555
C29_3 N6_3 1_555 1_555
C30_3 N1_3 1_555 1_555
H27_3 C30_3 1_555 1_555
N8_2 Cd4 1_555 1_555
N6_3 C24_3 1_555 1_555
C8_3 C12_3 1_555 1_555
C8_3 C18_3 1_555 1_555
C29_3 C30_3 1_555 1_555
O7_2 C4_4 1_555 1_555
O9_2 C4_4 1_555 1_555
O10 C10_4 1_555 1_555
N7 C19_4 1_555 1_555
C1_4 H1_4 1_555 1_555
O6_4 C17_4 1_555 1_555
C2_4 C1_4 1_555 1_555
C3_4 C2_4 1_555 1_555
H2_4 C3_4 1_555 1_555
C4_4 C18_4 1_555 1_555
C8_4 H6_4 1_555 1_555
C10_4 C2_4 1_555 1_555
C12_4 C1_4 1_555 1_555
C17_4 C12_4 1_555 1_555
C18_4 C3_4 1_555 1_555
C19_4 H16_4 1_555 1_555
C23_4 N7 1_555 1_555
H21_4 C23_4 1_555 1_555
C8_4 C12_4 1_555 1_555
C8_4 C18_4 1_555 1_555
C23_4 C28_4 1_555 1_555
Cd6 O1_4 1_555 1_555
N1_4 Cd6 1_555 1_555
N8_2 C13_4 1_555 1_555
N5_4 C11_3 1_555 1_555
N6_4 C22_3 1_555 1_555
C5_3 C14_3 1_555 1_555
C6_3 H3_3 1_555 1_555
H4_3 C6_3 1_555 1_555
H5_3 C6_3 1_555 1_555
C7_3 C9_3 1_555 1_555
C9_3 C6_3 1_555 1_555
C11_3 C7_3 1_555 1_555
H7_3 C11_3 1_555 1_555
H8_3 C11_3 1_555 1_555
C13_4 N5_4 1_555 1_555
H9_4 C13_4 1_555 1_555
C14_3 C9_3 1_555 1_555
C15_3 C5_3 1_555 1_555
H10_3 C15_3 1_555 1_555
H11_3 C15_3 1_555 1_555
H12_3 C15_3 1_555 1_555
C16_3 H13_3 1_555 1_555
H14_3 C16_3 1_555 1_555
H15_3 C16_3 1_555 1_555
C20_3 N2_3 1_555 1_555
H17_3 C20_3 1_555 1_555
H18_3 C20_3 1_555 1_555
C21_3 C5_3 1_555 1_555
C22_3 C14_3 1_555 1_555
H19_3 C22_3 1_555 1_555
H20_3 C22_3 1_555 1_555
C24_4 N1_4 1_555 1_555
H22_4 C24_4 1_555 1_555
C25_3 C7_3 1_555 1_555
C26_4 N5_4 1_555 1_555
H23_3 C26_4 1_555 1_555
C27_4 N8_2 1_555 1_555
H24_4 C27_4 1_555 1_555
C29_4 N6_4 1_555 1_555
H26_3 C29_4 1_555 1_555
C30_4 N1_4 1_555 1_555
H27_4 C30_4 1_555 1_555
N6_4 C24_4 1_555 1_555
C16_3 C25_3 1_555 1_555
C20_3 C21_3 1_555 1_555
C21_3 C25_3 1_555 1_555
C26_4 C27_4 1_555 1_555
C29_4 C30_4 1_555 1_555
C5_4 C14_4 1_555 1_555
C6_4 H3_4 1_555 1_555
H4_4 C6_4 1_555 1_555
H5_4 C6_4 1_555 1_555
C7_4 C9_4 1_555 1_555
C9_4 C6_4 1_555 1_555
C11_4 C7_4 1_555 1_555
H7_4 C11_4 1_555 1_555
H8_4 C11_4 1_555 1_555
C14_4 C9_4 1_555 1_555
C15_4 C5_4 1_555 1_555
H10_4 C15_4 1_555 1_555
H11_4 C15_4 1_555 1_555
H12_4 C15_4 1_555 1_555
C16_4 H13_4 1_555 1_555
H14_4 C16_4 1_555 1_555
H15_4 C16_4 1_555 1_555
C20_4 N2_4 1_555 1_555
H17_4 C20_4 1_555 1_555
H18_4 C20_4 1_555 1_555
C21_4 C5_4 1_555 1_555
C22_4 C14_4 1_555 1_555
H19_4 C22_4 1_555 1_555
H20_4 C22_4 1_555 1_555
C25_4 C7_4 1_555 1_555
C16_4 C25_4 1_555 1_555
C20_4 C21_4 1_555 1_555
C21_4 C25_4 1_555 1_555

#END
