
###############################################################################
#
# This file contains modified crystal structure data generated from the
# MOF subset of the Cambridge Structural Database (CSD) v543 
# hosted by the Cambridge Crystallographic Data Centre (CCDC).
#
# This work is licensed under the Creative Commons
# Attribution-NonCommercial-ShareAlike 4.0 International License.
# To view a copy of this license, visit
# http://creativecommons.org/licenses/by-nc-sa/4.0/
# or send a letter to
# Creative Commons, PO Box 1866, Mountain View, CA 94042, USA.
#
# CIF created using the CSD Python API on 29 September 2022
# The structure has been converted into the P1 space group
# The structure has a 3D framework
# The original CSD entry FUFLOI is in the monoclinic crystal system
# The original CSD entry FUFLOI is in a Sohncke space group
# The framework has been calculated to contain at least 10.0% void space
# The void calculation uses a probe of radius 1.32A, grid spacing 0.4
#
###############################################################################

data_FUFLOI
_chemical_formula_moiety         '(C120 H224 Cu8 N56 Ru7)n'
_symmetry_cell_setting           triclinic
_symmetry_space_group_name_H-M   'P 1'
_symmetry_Int_Tables_number      1
_space_group_name_Hall           'P 1'
loop_
_symmetry_equiv_pos_site_id
_symmetry_equiv_pos_as_xyz
1 x,y,z
_cell_length_a                   18.9979(11)
_cell_length_b                   17.8507(11)
_cell_length_c                   15.5853(8)
_cell_angle_alpha                90
_cell_angle_beta                 119.062(4)
_cell_angle_gamma                90
_cell_volume                     4619.92
loop_
_atom_site_label
_atom_site_type_symbol
_atom_site_fract_x
_atom_site_fract_y
_atom_site_fract_z
Ru4 Ru 0.00000 0.30473(3) 0.00000
Ru1 Ru 0.00000 0.00752(3) 0.50000
N2 N 0.1597(5) 0.0162(4) 0.7099(5)
N3 N 0.0872(5) 0.1315(5) 0.4320(6)
N5 N 0.0959(4) 0.1382(4) 0.2283(5)
N7 N 0.0184(5) 0.2662(5) 0.2761(5)
C2 C 0.1008(5) 0.0108(5) 0.6306(6)
C3 C 0.0552(5) 0.0861(5) 0.4573(6)
C4 C 0.0249(5) 0.0197(4) 0.1707(6)
C8 C 0.1648(6) 0.0326(6) 0.1880(8)
C9 C 0.1089(4) 0.0555(5) 0.2294(6)
C21 C 0.3017(6) 0.0331(5) 0.4754(7)
C22 C 0.3903(6) 0.0411(6) 0.5646(8)
C23 C 0.3891(6) 0.0460(6) 0.6609(7)
H6 H 0.14030 0.16050 0.27900
H7 H 0.08820 0.15860 0.17020
H14 H 0.06310 0.27250 0.33670
H15 H 0.02800 0.28940 0.23000
H16 H 0.14290 0.05230 0.12040
H17 H 0.21870 0.05500 0.22880
H18 H 0.13350 0.03770 0.29890
H33 H 0.00850 0.36220 0.39980
H35 H 0.33240 0.02390 0.77910
H37 H 0.23100 0.01080 0.58570
H40 H 0.26880 0.07720 0.47190
H41 H 0.30280 0.02890 0.41270
H43 H 0.41570 0.08670 0.55580
H44 H 0.35950 0.09150 0.66120
H45 H 0.44500 0.05000 0.71570
Ru4_2 Ru 0.00000 0.30473(3) 1.00000
Cu3 Cu 0.00204(8) 0.15610(8) 0.75502(9)
N18 N 0.0241(4) 0.0452(4) 0.7869(5)
N20 N 0.0974(6) 0.1721(4) 0.7398(6)
N22 N 0.0880(5) 0.1807(5) 0.9427(6)
C40 C 0.0865(5) 0.2425(4) 0.6836(6)
C41 C 0.1605(6) 0.2691(6) 0.6814(7)
C42 C 0.1451(6) 0.3399(6) 0.6260(7)
C43 C 0.1100(7) 0.4017(6) 0.6657(8)
C44 C 0.0350(6) 0.3710(6) 0.6682(7)
C45 C 0.0530(5) 0.3008(4) 0.7240(5)
C46 C 0.0539(5) 0.2236(5) 0.9588(6)
C49 C 0.1011(6) 0.3013(5) 0.1345(6)
H57 H 0.00010 0.03770 0.89870
H58 H 0.01210 0.01850 0.73090
H59 H 0.07760 0.03810 0.83130
H66 H 0.14280 0.17540 0.80030
H67 H 0.10370 0.13250 0.70640
H75 H 0.04440 0.23260 0.61420
H76 H 0.20450 0.27680 0.74940
H77 H 0.17810 0.23030 0.65050
H80 H 0.10670 0.33050 0.55590
H81 H 0.19610 0.35820 0.63060
H84 H 0.15120 0.41680 0.73270
H85 H 0.09510 0.44640 0.62280
H88 H 0.01570 0.40880 0.69850
H92 H 0.09430 0.31140 0.79360
N10 N 0.0546(6) 0.4342(6) 0.9063(6)
C18 C 0.0371(6) 0.3866(5) 0.9425(6)
C26 C 0.2400(7) 0.8455(6) 0.0061(7)
C27 C 0.1721(7) 0.7992(6) 0.0091(6)
H48 H 0.28910 0.81450 0.02910
H49 H 0.25320 0.88970 0.04970
H50 H 0.19370 0.77810 0.07600
Ru3 Ru 0.50000 0.80473(3) 0.00000
Cu2 Cu 0.25004(7) 0.90583(8) 0.74702(8)
N9 N 0.3439(5) 0.7985(5) 0.7899(5)
N11 N 0.2708(4) 0.9130(5) 0.8871(5)
N12 N 0.1607(5) 0.8359(4) 0.7280(5)
N13 N 0.2306(4) 0.8967(4) 0.6098(4)
N14 N 0.3424(5) 0.9761(4) 0.7657(5)
C5 C 0.0350(6) 0.9332(5) 0.1715(7)
C6 C 0.0900(6) 0.9113(6) 0.1307(7)
C7 C 0.1724(6) 0.9510(5) 0.1866(7)
C17 C 0.3989(6) 0.8013(5) 0.8655(6)
C19 C 0.2647(5) 0.9669(4) 0.5888(6)
C20 C 0.2668(6) 0.9614(6) 0.4951(6)
C24 C 0.3482(4) 0.9759(5) 0.6760(5)
C25 C 0.2100(5) 0.8713(4) 0.8985(5)
C28 C 0.1383(7) 0.7388(6) 0.9399(7)
C29 C 0.1135(6) 0.7643(6) 0.8305(7)
C30 C 0.1817(5) 0.8061(5) 0.8278(5)
H4 H 0.05770 0.91440 0.23960
H8 H 0.06420 0.92490 0.06040
H9 H 0.09810 0.85640 0.13610
H12 H 0.20100 0.93220 0.25490
H13 H 0.20530 0.93820 0.15510
H22 H 0.26960 0.96240 0.90320
H23 H 0.32100 0.89410 0.92910
H26 H 0.11240 0.86100 0.70130
H27 H 0.15640 0.79740 0.68640
H30 H 0.17630 0.89310 0.56660
H31 H 0.25560 0.85470 0.60340
H34 H 0.39010 0.95980 0.81740
H38 H 0.21150 0.95320 0.44050
H39 H 0.30010 0.91790 0.49780
H42 H 0.42280 0.99730 0.56600
H46 H 0.38060 0.93110 0.67800
H47 H 0.16290 0.90530 0.87970
H51 H 0.12800 0.83390 0.99850
H52 H 0.09010 0.71930 0.94140
H53 H 0.17800 0.69760 0.95960
H54 H 0.09930 0.71970 0.78760
H55 H 0.06540 0.79710 0.80500
H56 H 0.22780 0.77060 0.84850
Ru3_2 Ru 0.50000 0.80473(3) 1.00000
N15 N 0.0595(5) 0.8768(5) 0.4085(6)
C31 C 0.0438(5) 0.9251(5) 0.4447(6)
H61 H 0.01840 0.90960 0.86840
Ru4_3 Ru 1.00000 0.30473(3) 0.00000
Ru1_2 Ru 1.00000 0.00752(3) 0.50000
Cu1 Cu 0.99796(8) 0.15610(8) 0.24498(9)
N4 N 0.9759(4) 0.0452(4) 0.2131(5)
N6 N 0.9026(6) 0.1721(4) 0.2602(6)
N8 N 0.9120(5) 0.1807(5) 0.0573(6)
C10 C 0.9135(5) 0.2425(4) 0.3164(6)
C11 C 0.8395(6) 0.2691(6) 0.3186(7)
C12 C 0.8549(6) 0.3399(6) 0.3740(7)
C13 C 0.8900(7) 0.4017(6) 0.3343(8)
C14 C 0.9650(6) 0.3710(6) 0.3318(7)
C15 C 0.9470(5) 0.3008(4) 0.2760(5)
C16 C 0.9461(5) 0.2236(5) 0.0412(6)
H1 H 0.99990 0.03770 0.10130
H2 H 0.98790 0.01850 0.26910
H3 H 0.92240 0.03810 0.16870
H10 H 0.85720 0.17540 0.19970
H11 H 0.89630 0.13250 0.29360
H19 H 0.95560 0.23260 0.38580
H20 H 0.79550 0.27680 0.25060
H21 H 0.82190 0.23030 0.34950
H24 H 0.89330 0.33050 0.44410
H25 H 0.80390 0.35820 0.36940
H28 H 0.84880 0.41680 0.26730
H29 H 0.90490 0.44640 0.37720
H32 H 0.98430 0.40880 0.30150
H36 H 0.90570 0.31140 0.20640
Ru4_4 Ru 1.00000 0.30473(3) 1.00000
N16 N 0.8403(5) 0.0162(4) 0.2901(5)
N17 N 0.9128(5) 0.1315(5) 0.5680(6)
N19 N 0.9041(4) 0.1382(4) 0.7717(5)
N21 N 0.9816(5) 0.2662(5) 0.7239(5)
N24 N 0.9454(6) 0.4342(6) 0.0937(6)
C32 C 0.8992(5) 0.0108(5) 0.3694(6)
C33 C 0.9448(5) 0.0861(5) 0.5427(6)
C34 C 0.9751(5) 0.0197(4) 0.8293(6)
C38 C 0.8352(6) 0.0326(6) 0.8120(8)
C39 C 0.8911(4) 0.0555(5) 0.7706(6)
C51 C 0.9629(6) 0.3866(5) 0.0575(6)
C54 C 0.6983(6) 0.0331(5) 0.5246(7)
C55 C 0.6097(6) 0.0411(6) 0.4354(8)
C56 C 0.6109(6) 0.0460(6) 0.3391(7)
H62 H 0.85970 0.16050 0.72100
H63 H 0.91180 0.15860 0.82980
H70 H 0.93690 0.27250 0.66330
H71 H 0.97200 0.28940 0.77000
H72 H 0.85710 0.05230 0.87960
H73 H 0.78130 0.05500 0.77120
H74 H 0.86650 0.03770 0.70110
H89 H 0.99150 0.36220 0.60020
H91 H 0.66760 0.02390 0.22090
H93 H 0.76900 0.01080 0.41430
H96 H 0.73120 0.07720 0.52810
H97 H 0.69720 0.02890 0.58730
H99 H 0.58430 0.08670 0.44420
H100 H 0.64050 0.09150 0.33880
H101 H 0.55500 0.05000 0.28430
C50 C 0.8989(6) 0.3013(5) 0.8655(6)
N1 N 0.9405(5) 0.8768(5) 0.5915(6)
C1 C 0.9562(5) 0.9251(5) 0.5553(6)
H5 H 0.98160 0.90960 0.13160
Cu4 Cu 0.74996(7) 0.90583(8) 0.25298(8)
N23 N 0.6561(5) 0.7985(5) 0.2101(5)
N25 N 0.7292(4) 0.9130(5) 0.1129(5)
N26 N 0.8393(5) 0.8359(4) 0.2720(5)
N27 N 0.7694(4) 0.8967(4) 0.3902(4)
N28 N 0.6576(5) 0.9761(4) 0.2343(5)
C35 C 0.9650(6) 0.9332(5) 0.8285(7)
C36 C 0.9100(6) 0.9113(6) 0.8693(7)
C37 C 0.8276(6) 0.9510(5) 0.8134(7)
C48 C 0.6011(6) 0.8013(5) 0.1345(6)
C52 C 0.7353(5) 0.9669(4) 0.4112(6)
C53 C 0.7332(6) 0.9614(6) 0.5049(6)
C57 C 0.6518(4) 0.9759(5) 0.3240(5)
C58 C 0.7900(5) 0.8713(4) 0.1015(5)
C61 C 0.8617(7) 0.7388(6) 0.0601(7)
C62 C 0.8865(6) 0.7643(6) 0.1695(7)
C63 C 0.8183(5) 0.8061(5) 0.1722(5)
H60 H 0.94230 0.91440 0.76040
H64 H 0.93580 0.92490 0.93960
H65 H 0.90190 0.85640 0.86390
H68 H 0.79900 0.93220 0.74510
H69 H 0.79470 0.93820 0.84490
H78 H 0.73040 0.96240 0.09680
H79 H 0.67900 0.89410 0.07090
H82 H 0.88760 0.86100 0.29870
H83 H 0.84360 0.79740 0.31360
H86 H 0.82370 0.89310 0.43340
H87 H 0.74440 0.85470 0.39660
H90 H 0.60990 0.95980 0.18260
H94 H 0.78850 0.95320 0.55950
H95 H 0.69990 0.91790 0.50220
H98 H 0.57720 0.99730 0.43400
H102 H 0.61940 0.93110 0.32200
H103 H 0.83710 0.90530 0.12030
H107 H 0.87200 0.83390 0.00150
H108 H 0.90990 0.71930 0.05860
H109 H 0.82200 0.69760 0.04040
H110 H 0.90070 0.71970 0.21240
H111 H 0.93460 0.79710 0.19500
H112 H 0.77220 0.77060 0.15150
C59 C 0.7600(7) 0.8455(6) 0.9939(7)
C60 C 0.8279(7) 0.7992(6) 0.9909(6)
H104 H 0.71090 0.81450 0.97090
H105 H 0.74680 0.88970 0.95030
H106 H 0.80630 0.77810 0.92400
C26_2 C 0.7400(7) 0.3455(6) 0.0061(7)
C27_2 C 0.6721(7) 0.2992(6) 0.0091(6)
H48_2 H 0.78910 0.31450 0.02910
H49_2 H 0.75320 0.38970 0.04970
H50_2 H 0.69370 0.27810 0.07600
Ru1_3 Ru 0.50000 0.50752(3) 0.50000
Cu1_2 Cu 0.49796(8) 0.65610(8) 0.24498(9)
Cu2_2 Cu 0.75004(7) 0.40583(8) 0.74702(8)
N1_2 N 0.4405(5) 0.3768(5) 0.5915(6)
N2_2 N 0.6597(5) 0.5162(4) 0.7099(5)
N3_2 N 0.5872(5) 0.6315(5) 0.4320(6)
N4_2 N 0.4759(4) 0.5452(4) 0.2131(5)
N5_2 N 0.5959(4) 0.6382(4) 0.2283(5)
N6_2 N 0.4026(6) 0.6721(4) 0.2602(6)
N7_2 N 0.5184(5) 0.7662(5) 0.2761(5)
N8_2 N 0.4120(5) 0.6807(5) 0.0573(6)
N9_2 N 0.8439(5) 0.2985(5) 0.7899(5)
N11_2 N 0.7708(4) 0.4130(5) 0.8871(5)
N12_2 N 0.6607(5) 0.3359(4) 0.7280(5)
N13_2 N 0.7306(4) 0.3967(4) 0.6098(4)
N14_2 N 0.8424(5) 0.4761(4) 0.7657(5)
C1_2 C 0.4562(5) 0.4251(5) 0.5553(6)
C2_2 C 0.6008(5) 0.5108(5) 0.6306(6)
C3_2 C 0.5552(5) 0.5861(5) 0.4573(6)
C4_2 C 0.5249(5) 0.5197(4) 0.1707(6)
C5_2 C 0.5350(6) 0.4332(5) 0.1715(7)
C6_2 C 0.5900(6) 0.4113(6) 0.1307(7)
C7_2 C 0.6724(6) 0.4510(5) 0.1866(7)
C8_2 C 0.6648(6) 0.5326(6) 0.1880(8)
C9_2 C 0.6089(4) 0.5555(5) 0.2294(6)
C10_2 C 0.4135(5) 0.7425(4) 0.3164(6)
C11_2 C 0.3395(6) 0.7691(6) 0.3186(7)
C12_2 C 0.3549(6) 0.8399(6) 0.3740(7)
C13_2 C 0.3900(7) 0.9017(6) 0.3343(8)
C14_2 C 0.4650(6) 0.8710(6) 0.3318(7)
C15_2 C 0.4470(5) 0.8008(4) 0.2760(5)
C16_2 C 0.4461(5) 0.7236(5) 0.0412(6)
C19_2 C 0.7647(5) 0.4669(4) 0.5888(6)
C20_2 C 0.7668(6) 0.4614(6) 0.4951(6)
C21_2 C 0.8017(6) 0.5331(5) 0.4754(7)
C22_2 C 0.8903(6) 0.5411(6) 0.5646(8)
C23_2 C 0.8891(6) 0.5460(6) 0.6609(7)
C24_2 C 0.8482(4) 0.4759(5) 0.6760(5)
C25_2 C 0.7100(5) 0.3713(4) 0.8985(5)
C28_2 C 0.6383(7) 0.2388(6) 0.9399(7)
C29_2 C 0.6135(6) 0.2643(6) 0.8305(7)
C30_2 C 0.6817(5) 0.3061(5) 0.8278(5)
H1_2 H 0.49990 0.53770 0.10130
H2_2 H 0.48790 0.51850 0.26910
H3_2 H 0.42240 0.53810 0.16870
H4_2 H 0.55770 0.41440 0.23960
H5_2 H 0.48160 0.40960 0.13160
H6_2 H 0.64030 0.66050 0.27900
H7_2 H 0.58820 0.65860 0.17020
H8_2 H 0.56420 0.42490 0.06040
H9_2 H 0.59810 0.35640 0.13610
H10_2 H 0.35720 0.67540 0.19970
H11_2 H 0.39630 0.63250 0.29360
H12_2 H 0.70100 0.43220 0.25490
H13_2 H 0.70530 0.43820 0.15510
H14_2 H 0.56310 0.77250 0.33670
H15_2 H 0.52800 0.78940 0.23000
H16_2 H 0.64290 0.55230 0.12040
H17_2 H 0.71870 0.55500 0.22880
H18_2 H 0.63350 0.53770 0.29890
H19_2 H 0.45560 0.73260 0.38580
H20_2 H 0.29550 0.77680 0.25060
H21_2 H 0.32190 0.73030 0.34950
H22_2 H 0.76960 0.46240 0.90320
H23_2 H 0.82100 0.39410 0.92910
H24_2 H 0.39330 0.83050 0.44410
H25_2 H 0.30390 0.85820 0.36940
H26_2 H 0.61240 0.36100 0.70130
H27_2 H 0.65640 0.29740 0.68640
H28_2 H 0.34880 0.91680 0.26730
H29_2 H 0.40490 0.94640 0.37720
H30_2 H 0.67630 0.39310 0.56660
H31_2 H 0.75560 0.35470 0.60340
H32_2 H 0.48430 0.90880 0.30150
H33_2 H 0.50850 0.86220 0.39980
H34_2 H 0.89010 0.45980 0.81740
H35_2 H 0.83240 0.52390 0.77910
H36_2 H 0.40570 0.81140 0.20640
H37_2 H 0.73100 0.51080 0.58570
H38_2 H 0.71150 0.45320 0.44050
H39_2 H 0.80010 0.41790 0.49780
H40_2 H 0.76880 0.57720 0.47190
H41_2 H 0.80280 0.52890 0.41270
H42_2 H 0.92280 0.49730 0.56600
H43_2 H 0.91570 0.58670 0.55580
H44_2 H 0.85950 0.59150 0.66120
H45_2 H 0.94500 0.55000 0.71570
H46_2 H 0.88060 0.43110 0.67800
H47_2 H 0.66290 0.40530 0.87970
H51_2 H 0.62800 0.33390 0.99850
H52_2 H 0.59010 0.21930 0.94140
H53_2 H 0.67800 0.19760 0.95960
H54_2 H 0.59930 0.21970 0.78760
H55_2 H 0.56540 0.29710 0.80500
H56_2 H 0.72780 0.27060 0.84850
Cu3_2 Cu 0.50204(8) 0.65610(8) 0.75502(9)
Cu4_2 Cu 0.24996(7) 0.40583(8) 0.25298(8)
N15_2 N 0.5595(5) 0.3768(5) 0.4085(6)
N16_2 N 0.3403(5) 0.5162(4) 0.2901(5)
N17_2 N 0.4128(5) 0.6315(5) 0.5680(6)
N18_2 N 0.5241(4) 0.5452(4) 0.7869(5)
N19_2 N 0.4041(4) 0.6382(4) 0.7717(5)
N20_2 N 0.5974(6) 0.6721(4) 0.7398(6)
N21_2 N 0.4816(5) 0.7662(5) 0.7239(5)
N22_2 N 0.5880(5) 0.6807(5) 0.9427(6)
N23_2 N 0.1561(5) 0.2985(5) 0.2101(5)
N24_2 N 0.4454(6) 0.9342(6) 0.0937(6)
N25_2 N 0.2292(4) 0.4130(5) 0.1129(5)
N26_2 N 0.3393(5) 0.3359(4) 0.2720(5)
N27_2 N 0.2694(4) 0.3967(4) 0.3902(4)
N28_2 N 0.1576(5) 0.4761(4) 0.2343(5)
C31_2 C 0.5438(5) 0.4251(5) 0.4447(6)
C32_2 C 0.3992(5) 0.5108(5) 0.3694(6)
C33_2 C 0.4448(5) 0.5861(5) 0.5427(6)
C34_2 C 0.4751(5) 0.5197(4) 0.8293(6)
C35_2 C 0.4650(6) 0.4332(5) 0.8285(7)
C36_2 C 0.4100(6) 0.4113(6) 0.8693(7)
C37_2 C 0.3276(6) 0.4510(5) 0.8134(7)
C38_2 C 0.3352(6) 0.5326(6) 0.8120(8)
C39_2 C 0.3911(4) 0.5555(5) 0.7706(6)
C40_2 C 0.5865(5) 0.7425(4) 0.6836(6)
C41_2 C 0.6605(6) 0.7691(6) 0.6814(7)
C42_2 C 0.6451(6) 0.8399(6) 0.6260(7)
C43_2 C 0.6100(7) 0.9017(6) 0.6657(8)
C44_2 C 0.5350(6) 0.8710(6) 0.6682(7)
C45_2 C 0.5530(5) 0.8008(4) 0.7240(5)
C46_2 C 0.5539(5) 0.7236(5) 0.9588(6)
C51_2 C 0.4629(6) 0.8866(5) 0.0575(6)
C52_2 C 0.2353(5) 0.4669(4) 0.4112(6)
C53_2 C 0.2332(6) 0.4614(6) 0.5049(6)
C54_2 C 0.1983(6) 0.5331(5) 0.5246(7)
C55_2 C 0.1097(6) 0.5411(6) 0.4354(8)
C56_2 C 0.1109(6) 0.5460(6) 0.3391(7)
C57_2 C 0.1518(4) 0.4759(5) 0.3240(5)
C58_2 C 0.2900(5) 0.3713(4) 0.1015(5)
C61_2 C 0.3617(7) 0.2388(6) 0.0601(7)
C62_2 C 0.3865(6) 0.2643(6) 0.1695(7)
C63_2 C 0.3183(5) 0.3061(5) 0.1722(5)
H57_2 H 0.50010 0.53770 0.89870
H58_2 H 0.51210 0.51850 0.73090
H59_2 H 0.57760 0.53810 0.83130
H60_2 H 0.44230 0.41440 0.76040
H61_2 H 0.51840 0.40960 0.86840
H62_2 H 0.35970 0.66050 0.72100
H63_2 H 0.41180 0.65860 0.82980
H64_2 H 0.43580 0.42490 0.93960
H65_2 H 0.40190 0.35640 0.86390
H66_2 H 0.64280 0.67540 0.80030
H67_2 H 0.60370 0.63250 0.70640
H68_2 H 0.29900 0.43220 0.74510
H69_2 H 0.29470 0.43820 0.84490
H70_2 H 0.43690 0.77250 0.66330
H71_2 H 0.47200 0.78940 0.77000
H72_2 H 0.35710 0.55230 0.87960
H73_2 H 0.28130 0.55500 0.77120
H74_2 H 0.36650 0.53770 0.70110
H75_2 H 0.54440 0.73260 0.61420
H76_2 H 0.70450 0.77680 0.74940
H77_2 H 0.67810 0.73030 0.65050
H78_2 H 0.23040 0.46240 0.09680
H79_2 H 0.17900 0.39410 0.07090
H80_2 H 0.60670 0.83050 0.55590
H81_2 H 0.69610 0.85820 0.63060
H82_2 H 0.38760 0.36100 0.29870
H83_2 H 0.34360 0.29740 0.31360
H84_2 H 0.65120 0.91680 0.73270
H85_2 H 0.59510 0.94640 0.62280
H86_2 H 0.32370 0.39310 0.43340
H87_2 H 0.24440 0.35470 0.39660
H88_2 H 0.51570 0.90880 0.69850
H89_2 H 0.49150 0.86220 0.60020
H90_2 H 0.10990 0.45980 0.18260
H91_2 H 0.16760 0.52390 0.22090
H92_2 H 0.59430 0.81140 0.79360
H93_2 H 0.26900 0.51080 0.41430
H94_2 H 0.28850 0.45320 0.55950
H95_2 H 0.19990 0.41790 0.50220
H96_2 H 0.23120 0.57720 0.52810
H97_2 H 0.19720 0.52890 0.58730
H98_2 H 0.07720 0.49730 0.43400
H99_2 H 0.08430 0.58670 0.44420
H100_2 H 0.14050 0.59150 0.33880
H101_2 H 0.05500 0.55000 0.28430
H102_2 H 0.11940 0.43110 0.32200
H103_2 H 0.33710 0.40530 0.12030
H107_2 H 0.37200 0.33390 0.00150
H108_2 H 0.40990 0.21930 0.05860
H109_2 H 0.32200 0.19760 0.04040
H110_2 H 0.40070 0.21970 0.21240
H111_2 H 0.43460 0.29710 0.19500
H112_2 H 0.27220 0.27060 0.15150
N10_2 N 0.5546(6) 0.9342(6) 0.9063(6)
C18_2 C 0.5371(6) 0.8866(5) 0.9425(6)
C59_2 C 0.2600(7) 0.3455(6) 0.9939(7)
C60_2 C 0.3279(7) 0.2992(6) 0.9909(6)
H104_2 H 0.21090 0.31450 0.97090
H105_2 H 0.24680 0.38970 0.95030
H106_2 H 0.30630 0.27810 0.92400
loop_
_geom_bond_atom_site_label_1
_geom_bond_atom_site_label_2
_geom_bond_site_symmetry_1
_geom_bond_site_symmetry_2
N2 C2 1_555 1_555
N3 C3 1_555 1_555
C2 Ru1 1_555 1_555
C3 Ru1 1_555 1_555
C9 N5 1_555 1_555
C22 C21 1_555 1_555
C23 C22 1_555 1_555
H6 N5 1_555 1_555
H7 N5 1_555 1_555
H14 N7 1_555 1_555
H15 N7 1_555 1_555
H16 C8 1_555 1_555
H17 C8 1_555 1_555
H18 C9 1_555 1_555
H40 C21 1_555 1_555
H41 C21 1_555 1_555
H43 C22 1_555 1_555
H44 C23 1_555 1_555
H45 C23 1_555 1_555
Ru4_2 C46 1_555 1_555
N18 Cu3 1_555 1_555
N20 Cu3 1_555 1_555
N22 Cu3 1_555 1_555
C40 N20 1_555 1_555
C41 C40 1_555 1_555
C42 C41 1_555 1_555
C43 C42 1_555 1_555
C44 C43 1_555 1_555
C46 N22 1_555 1_555
C49 Ru4 1_555 1_555
H58 N18 1_555 1_555
H59 N18 1_555 1_555
H66 N20 1_555 1_555
H67 N20 1_555 1_555
H75 C40 1_555 1_555
H76 C41 1_555 1_555
H77 C41 1_555 1_555
H80 C42 1_555 1_555
H81 C42 1_555 1_555
H84 C43 1_555 1_555
H85 C43 1_555 1_555
H88 C44 1_555 1_555
H92 C45 1_555 1_555
C4 C9 1_555 1_555
C8 C9 1_555 1_555
C40 C45 1_555 1_555
C44 C45 1_555 1_555
N10 C18 1_555 1_555
C18 Ru4_2 1_555 1_555
C27 C26 1_555 1_555
H48 C26 1_555 1_555
H49 C26 1_555 1_555
H50 C27 1_555 1_555
N9 Cu2 1_555 1_555
N11 Cu2 1_555 1_555
N12 Cu2 1_555 1_555
N13 Cu2 1_555 1_555
N14 Cu2 1_555 1_555
C6 C5 1_555 1_555
C7 C6 1_555 1_555
C17 N9 1_555 1_555
C19 N13 1_555 1_555
C20 C19 1_555 1_555
C24 N14 1_555 1_555
C25 N11 1_555 1_555
C29 C28 1_555 1_555
C30 N12 1_555 1_555
H4 C5 1_555 1_555
H8 C6 1_555 1_555
H9 C6 1_555 1_555
H12 C7 1_555 1_555
H13 C7 1_555 1_555
H22 N11 1_555 1_555
H23 N11 1_555 1_555
H26 N12 1_555 1_555
H27 N12 1_555 1_555
H30 N13 1_555 1_555
H31 N13 1_555 1_555
H34 N14 1_555 1_555
H38 C20 1_555 1_555
H39 C20 1_555 1_555
H46 C24 1_555 1_555
H47 C25 1_555 1_555
H52 C28 1_555 1_555
H53 C28 1_555 1_555
H54 C29 1_555 1_555
H55 C29 1_555 1_555
H56 C30 1_555 1_555
Ru3_2 C17 1_555 1_555
N15 C31 1_555 1_555
C19 C24 1_555 1_555
C25 C30 1_555 1_555
C29 C30 1_555 1_555
Ru4_3 C16 1_555 1_555
N4 Cu1 1_555 1_555
N6 Cu1 1_555 1_555
N8 Cu1 1_555 1_555
C10 N6 1_555 1_555
C11 C10 1_555 1_555
C12 C11 1_555 1_555
C13 C12 1_555 1_555
C14 C13 1_555 1_555
C16 N8 1_555 1_555
H2 N4 1_555 1_555
H3 N4 1_555 1_555
H10 N6 1_555 1_555
H11 N6 1_555 1_555
H19 C10 1_555 1_555
H20 C11 1_555 1_555
H21 C11 1_555 1_555
H24 C12 1_555 1_555
H25 C12 1_555 1_555
H28 C13 1_555 1_555
H29 C13 1_555 1_555
H32 C14 1_555 1_555
H36 C15 1_555 1_555
N16 C32 1_555 1_555
N17 C33 1_555 1_555
N24 C51 1_555 1_555
C32 Ru1_2 1_555 1_555
C33 Ru1_2 1_555 1_555
C39 N19 1_555 1_555
C51 Ru4_3 1_555 1_555
C55 C54 1_555 1_555
C56 C55 1_555 1_555
H62 N19 1_555 1_555
H63 N19 1_555 1_555
H70 N21 1_555 1_555
H71 N21 1_555 1_555
H72 C38 1_555 1_555
H73 C38 1_555 1_555
H74 C39 1_555 1_555
H96 C54 1_555 1_555
H97 C54 1_555 1_555
H99 C55 1_555 1_555
H100 C56 1_555 1_555
H101 C56 1_555 1_555
C10 C15 1_555 1_555
C14 C15 1_555 1_555
C34 C39 1_555 1_555
C38 C39 1_555 1_555
C50 Ru4_4 1_555 1_555
N1 C1 1_555 1_555
Ru3 C48 1_555 1_555
N23 Cu4 1_555 1_555
N25 Cu4 1_555 1_555
N26 Cu4 1_555 1_555
N27 Cu4 1_555 1_555
N28 Cu4 1_555 1_555
C36 C35 1_555 1_555
C37 C36 1_555 1_555
C48 N23 1_555 1_555
C52 N27 1_555 1_555
C53 C52 1_555 1_555
C57 N28 1_555 1_555
C58 N25 1_555 1_555
C62 C61 1_555 1_555
C63 N26 1_555 1_555
H60 C35 1_555 1_555
H64 C36 1_555 1_555
H65 C36 1_555 1_555
H68 C37 1_555 1_555
H69 C37 1_555 1_555
H78 N25 1_555 1_555
H79 N25 1_555 1_555
H82 N26 1_555 1_555
H83 N26 1_555 1_555
H86 N27 1_555 1_555
H87 N27 1_555 1_555
H90 N28 1_555 1_555
H94 C53 1_555 1_555
H95 C53 1_555 1_555
H102 C57 1_555 1_555
H103 C58 1_555 1_555
H108 C61 1_555 1_555
H109 C61 1_555 1_555
H110 C62 1_555 1_555
H111 C62 1_555 1_555
H112 C63 1_555 1_555
C52 C57 1_555 1_555
C58 C63 1_555 1_555
C62 C63 1_555 1_555
C60 C59 1_555 1_555
H104 C59 1_555 1_555
H105 C59 1_555 1_555
H106 C60 1_555 1_555
C27_2 C26_2 1_555 1_555
H48_2 C26_2 1_555 1_555
H49_2 C26_2 1_555 1_555
H50_2 C27_2 1_555 1_555
Ru1_3 C1_2 1_555 1_555
Ru3 C16_2 1_555 1_555
Cu1_2 N3_2 1_555 1_555
Cu2_2 N2_2 1_555 1_555
N1_2 C1_2 1_555 1_555
N2_2 C2_2 1_555 1_555
N3_2 C3_2 1_555 1_555
N4_2 Cu1_2 1_555 1_555
N5_2 Cu1_2 1_555 1_555
N6_2 Cu1_2 1_555 1_555
N7_2 Cu1_2 1_555 1_555
N8_2 Cu1_2 1_555 1_555
N9_2 Cu2_2 1_555 1_555
N11_2 Cu2_2 1_555 1_555
N12_2 Cu2_2 1_555 1_555
N13_2 Cu2_2 1_555 1_555
N14_2 Cu2_2 1_555 1_555
C2_2 Ru1_3 1_555 1_555
C3_2 Ru1_3 1_555 1_555
C4_2 N4_2 1_555 1_555
C5_2 C4_2 1_555 1_555
C6_2 C5_2 1_555 1_555
C7_2 C6_2 1_555 1_555
C8_2 C7_2 1_555 1_555
C9_2 N5_2 1_555 1_555
C10_2 N6_2 1_555 1_555
C11_2 C10_2 1_555 1_555
C12_2 C11_2 1_555 1_555
C13_2 C12_2 1_555 1_555
C14_2 C13_2 1_555 1_555
C15_2 N7_2 1_555 1_555
C16_2 N8_2 1_555 1_555
C50 N9_2 1_555 1_555
C19_2 N13_2 1_555 1_555
C20_2 C19_2 1_555 1_555
C21_2 C20_2 1_555 1_555
C22_2 C21_2 1_555 1_555
C23_2 C22_2 1_555 1_555
C24_2 N14_2 1_555 1_555
C25_2 N11_2 1_555 1_555
C29_2 C28_2 1_555 1_555
C30_2 N12_2 1_555 1_555
H1_2 C4_2 1_555 1_555
H2_2 N4_2 1_555 1_555
H3_2 N4_2 1_555 1_555
H4_2 C5_2 1_555 1_555
H5_2 C5_2 1_555 1_555
H6_2 N5_2 1_555 1_555
H7_2 N5_2 1_555 1_555
H8_2 C6_2 1_555 1_555
H9_2 C6_2 1_555 1_555
H10_2 N6_2 1_555 1_555
H11_2 N6_2 1_555 1_555
H12_2 C7_2 1_555 1_555
H13_2 C7_2 1_555 1_555
H14_2 N7_2 1_555 1_555
H15_2 N7_2 1_555 1_555
H16_2 C8_2 1_555 1_555
H17_2 C8_2 1_555 1_555
H18_2 C9_2 1_555 1_555
H19_2 C10_2 1_555 1_555
H20_2 C11_2 1_555 1_555
H21_2 C11_2 1_555 1_555
H22_2 N11_2 1_555 1_555
H23_2 N11_2 1_555 1_555
H24_2 C12_2 1_555 1_555
H25_2 C12_2 1_555 1_555
H26_2 N12_2 1_555 1_555
H27_2 N12_2 1_555 1_555
H28_2 C13_2 1_555 1_555
H29_2 C13_2 1_555 1_555
H30_2 N13_2 1_555 1_555
H31_2 N13_2 1_555 1_555
H32_2 C14_2 1_555 1_555
H33_2 C14_2 1_555 1_555
H34_2 N14_2 1_555 1_555
H35_2 N14_2 1_555 1_555
H36_2 C15_2 1_555 1_555
H37_2 C19_2 1_555 1_555
H38_2 C20_2 1_555 1_555
H39_2 C20_2 1_555 1_555
H40_2 C21_2 1_555 1_555
H41_2 C21_2 1_555 1_555
H42_2 C22_2 1_555 1_555
H43_2 C22_2 1_555 1_555
H44_2 C23_2 1_555 1_555
H45_2 C23_2 1_555 1_555
H46_2 C24_2 1_555 1_555
H47_2 C25_2 1_555 1_555
H52_2 C28_2 1_555 1_555
H53_2 C28_2 1_555 1_555
H54_2 C29_2 1_555 1_555
H55_2 C29_2 1_555 1_555
H56_2 C30_2 1_555 1_555
Ru3_2 C46_2 1_555 1_555
Cu3_2 N17_2 1_555 1_555
Cu4_2 N16_2 1_555 1_555
N15_2 C31_2 1_555 1_555
N16_2 C32_2 1_555 1_555
N17_2 C33_2 1_555 1_555
N18_2 Cu3_2 1_555 1_555
N19_2 Cu3_2 1_555 1_555
N20_2 Cu3_2 1_555 1_555
N21_2 Cu3_2 1_555 1_555
N22_2 Cu3_2 1_555 1_555
N23_2 Cu4_2 1_555 1_555
N24_2 C51_2 1_555 1_555
N25_2 Cu4_2 1_555 1_555
N26_2 Cu4_2 1_555 1_555
N27_2 Cu4_2 1_555 1_555
N28_2 Cu4_2 1_555 1_555
C31_2 Ru1_3 1_555 1_555
C32_2 Ru1_3 1_555 1_555
C33_2 Ru1_3 1_555 1_555
C34_2 N18_2 1_555 1_555
C35_2 C34_2 1_555 1_555
C36_2 C35_2 1_555 1_555
C37_2 C36_2 1_555 1_555
C38_2 C37_2 1_555 1_555
C39_2 N19_2 1_555 1_555
C40_2 N20_2 1_555 1_555
C41_2 C40_2 1_555 1_555
C42_2 C41_2 1_555 1_555
C43_2 C42_2 1_555 1_555
C44_2 C43_2 1_555 1_555
C45_2 N21_2 1_555 1_555
C46_2 N22_2 1_555 1_555
C49 N23_2 1_555 1_555
C51_2 Ru3 1_555 1_555
C52_2 N27_2 1_555 1_555
C53_2 C52_2 1_555 1_555
C54_2 C53_2 1_555 1_555
C55_2 C54_2 1_555 1_555
C56_2 C55_2 1_555 1_555
C57_2 N28_2 1_555 1_555
C58_2 N25_2 1_555 1_555
C62_2 C61_2 1_555 1_555
C63_2 N26_2 1_555 1_555
H57_2 C34_2 1_555 1_555
H58_2 N18_2 1_555 1_555
H59_2 N18_2 1_555 1_555
H60_2 C35_2 1_555 1_555
H61_2 C35_2 1_555 1_555
H62_2 N19_2 1_555 1_555
H63_2 N19_2 1_555 1_555
H64_2 C36_2 1_555 1_555
H65_2 C36_2 1_555 1_555
H66_2 N20_2 1_555 1_555
H67_2 N20_2 1_555 1_555
H68_2 C37_2 1_555 1_555
H69_2 C37_2 1_555 1_555
H70_2 N21_2 1_555 1_555
H71_2 N21_2 1_555 1_555
H72_2 C38_2 1_555 1_555
H73_2 C38_2 1_555 1_555
H74_2 C39_2 1_555 1_555
H75_2 C40_2 1_555 1_555
H76_2 C41_2 1_555 1_555
H77_2 C41_2 1_555 1_555
H78_2 N25_2 1_555 1_555
H79_2 N25_2 1_555 1_555
H80_2 C42_2 1_555 1_555
H81_2 C42_2 1_555 1_555
H82_2 N26_2 1_555 1_555
H83_2 N26_2 1_555 1_555
H84_2 C43_2 1_555 1_555
H85_2 C43_2 1_555 1_555
H86_2 N27_2 1_555 1_555
H87_2 N27_2 1_555 1_555
H88_2 C44_2 1_555 1_555
H89_2 C44_2 1_555 1_555
H90_2 N28_2 1_555 1_555
H91_2 N28_2 1_555 1_555
H92_2 C45_2 1_555 1_555
H93_2 C52_2 1_555 1_555
H94_2 C53_2 1_555 1_555
H95_2 C53_2 1_555 1_555
H96_2 C54_2 1_555 1_555
H97_2 C54_2 1_555 1_555
H98_2 C55_2 1_555 1_555
H99_2 C55_2 1_555 1_555
H100_2 C56_2 1_555 1_555
H101_2 C56_2 1_555 1_555
H102_2 C57_2 1_555 1_555
H103_2 C58_2 1_555 1_555
H108_2 C61_2 1_555 1_555
H109_2 C61_2 1_555 1_555
H110_2 C62_2 1_555 1_555
H111_2 C62_2 1_555 1_555
H112_2 C63_2 1_555 1_555
C4_2 C9_2 1_555 1_555
C8_2 C9_2 1_555 1_555
C10_2 C15_2 1_555 1_555
C14_2 C15_2 1_555 1_555
C19_2 C24_2 1_555 1_555
C23_2 C24_2 1_555 1_555
C25_2 C30_2 1_555 1_555
C29_2 C30_2 1_555 1_555
C34_2 C39_2 1_555 1_555
C38_2 C39_2 1_555 1_555
C40_2 C45_2 1_555 1_555
C44_2 C45_2 1_555 1_555
C52_2 C57_2 1_555 1_555
C56_2 C57_2 1_555 1_555
C58_2 C63_2 1_555 1_555
C62_2 C63_2 1_555 1_555
N10_2 C18_2 1_555 1_555
C18_2 Ru3_2 1_555 1_555
C60_2 C59_2 1_555 1_555
H104_2 C59_2 1_555 1_555
H105_2 C59_2 1_555 1_555
H106_2 C60_2 1_555 1_555

#END
