
###############################################################################
#
# This file contains modified crystal structure data generated from the
# MOF subset of the Cambridge Structural Database (CSD) v543 
# hosted by the Cambridge Crystallographic Data Centre (CCDC).
#
# This work is licensed under the Creative Commons
# Attribution-NonCommercial-ShareAlike 4.0 International License.
# To view a copy of this license, visit
# http://creativecommons.org/licenses/by-nc-sa/4.0/
# or send a letter to
# Creative Commons, PO Box 1866, Mountain View, CA 94042, USA.
#
# CIF created using the CSD Python API on 29 September 2022
# The structure has been converted into the P1 space group
# The structure has a 3D framework
# The original CSD entry FUFQUT is in the triclinic crystal system
# The framework has been calculated to contain at least 10.0% void space
# The void calculation uses a probe of radius 1.32A, grid spacing 0.4
# The framework is charged, counterions have been retained in the structure
#
###############################################################################

data_FUFQUT
_chemical_formula_moiety         '(C82 H70 Cl6 Cu4 N30 O16)n'
_symmetry_cell_setting           triclinic
_symmetry_space_group_name_H-M   'P 1'
_symmetry_Int_Tables_number      1
_space_group_name_Hall           'P 1'
loop_
_symmetry_equiv_pos_site_id
_symmetry_equiv_pos_as_xyz
1 x,y,z
_cell_length_a                   8.968(2)
_cell_length_b                   15.964(3)
_cell_length_c                   19.737(3)
_cell_angle_alpha                77.56(3)
_cell_angle_beta                 85.31(2)
_cell_angle_gamma                81.57(2)
_cell_volume                     2725.81
loop_
_atom_site_label
_atom_site_type_symbol
_atom_site_fract_x
_atom_site_fract_y
_atom_site_fract_z
Cu6 Cu 0.69481(3) 0.55716(2) 0.325835(16)
N27 N 0.5452(2) 0.47545(14) 0.37069(11)
N29 N 0.0506(2) 0.47682(15) 0.47870(11)
C69 C 0.5330(3) 0.40400(18) 0.34734(14)
H58 H 0.6117 0.3846 0.3168
C70 C 0.4136(3) 0.35705(19) 0.36490(15)
H59 H 0.4112 0.3063 0.3474
C71 C 0.2970(3) 0.38498(19) 0.40848(15)
H60 H 0.2125 0.3543 0.4209
C72 C 0.3058(3) 0.45908(18) 0.43389(14)
C73 C 0.4334(3) 0.50146(18) 0.41434(13)
H61 H 0.4414 0.5509 0.4327
C74 C 0.1834(3) 0.49739(18) 0.47639(14)
H62 H 0.2032 0.5378 0.5024
N30 N 0.5988(2) 0.60606(13) 0.22935(10)
N32 N 0.4837(3) 0.53402(14) 0.01821(11)
C75 C 0.5176(3) 0.68439(17) 0.21313(13)
H63 H 0.5175 0.7235 0.2432
C76 C 0.4340(3) 0.71099(17) 0.15461(14)
H64 H 0.3747 0.7663 0.1461
C77 C 0.4373(3) 0.65653(17) 0.10860(14)
H65 H 0.3801 0.6734 0.0683
C78 C 0.5268(3) 0.57607(16) 0.12270(13)
C79 C 0.6018(3) 0.55414(17) 0.18416(13)
H66 H 0.6592 0.4984 0.1949
C80 C 0.5443(3) 0.51470(18) 0.07611(13)
H67 H 0.6020 0.4595 0.0897
N23 N 0.9131(2) 0.51949(13) 0.30048(10)
N33 N 0.6789(2) 0.65810(15) 0.37124(11)
H51 H 0.9927 0.6094 0.3375
C62 C 0.9548(3) 0.46002(17) 0.26054(12)
H52 H 0.8831 0.4237 0.2555
C81 C 0.6699(3) 0.71737(19) 0.39499(14)
C82 C 0.6558(3) 0.7938(2) 0.42555(18)
H68 H 0.5529 0.8048 0.4455
H69 H 0.7277 0.7841 0.4622
H70 H 0.6773 0.8439 0.3895
Cu2 Cu 0.30519(3) 0.44284(2) 0.674165(16)
N8 N 0.0869(2) 0.48051(13) 0.69952(10)
N11 N 0.4548(2) 0.52455(14) 0.62931(11)
N12 N 0.9494(2) 0.52318(15) 0.52130(11)
N13 N 0.4012(2) 0.39394(13) 0.77065(10)
N14 N 0.5163(3) 0.46598(14) 0.98179(11)
N15 N 0.3211(2) 0.34190(15) 0.62876(11)
H16 H 0.0073 0.3906 0.6625
C21 C 0.0452(3) 0.53998(17) 0.73946(12)
H17 H 0.1169 0.5763 0.7445
C28 C 0.4670(3) 0.59600(18) 0.65266(14)
H23 H 0.3883 0.6154 0.6832
C29 C 0.5864(3) 0.64295(19) 0.63510(15)
H24 H 0.5888 0.6937 0.6526
C30 C 0.7030(3) 0.61502(19) 0.59152(15)
H25 H 0.7875 0.6457 0.5791
C31 C 0.6942(3) 0.54092(18) 0.56611(14)
C32 C 0.5666(3) 0.49854(18) 0.58566(13)
H26 H 0.5586 0.4491 0.5673
C33 C 0.8166(3) 0.50261(18) 0.52361(14)
H27 H 0.7968 0.4622 0.4976
C34 C 0.4824(3) 0.31561(17) 0.78687(13)
H28 H 0.4825 0.2765 0.7568
C35 C 0.5660(3) 0.28901(17) 0.84539(14)
H29 H 0.6253 0.2337 0.8539
C36 C 0.5627(3) 0.34347(17) 0.89140(14)
H30 H 0.6199 0.3266 0.9317
C37 C 0.4732(3) 0.42393(16) 0.87730(13)
C38 C 0.3982(3) 0.44586(17) 0.81584(13)
H31 H 0.3408 0.5016 0.8051
C39 C 0.4557(3) 0.48530(18) 0.92389(13)
H32 H 0.3980 0.5405 0.9103
C40 C 0.3301(3) 0.28263(19) 0.60501(14)
C41 C 0.3442(3) 0.2062(2) 0.57445(18)
H33 H 0.4471 0.1952 0.5545
H34 H 0.2723 0.2159 0.5378
H35 H 0.3227 0.1561 0.6105
N4 N 0.0539(2) 0.00121(13) 0.74026(10)
C6 C 0.1623(3) 0.02416(19) 0.52236(14)
H4 H 0.1046 0.0627 0.4875
C7 C 0.1250(3) 0.02278(18) 0.59235(13)
H5 H 0.0393 0.0596 0.6053
Cl1 Cl 0.32715(10) 0.96608(5) 0.41715(4)
N1 N 0.0766(2) 0.96831(12) 0.92425(10)
N3 N 0.0395(2) 0.99189(13) 0.81315(10)
N6 N 0.7418(2) 0.69357(15) 0.88807(12)
N7 N 0.7450(2) 0.63020(15) 0.84733(11)
C1 C 0.1780(3) 0.96424(16) 0.71758(13)
H1 H 0.2505 0.9334 0.7496
C2 C 0.2106(3) 0.96864(17) 0.64308(13)
C3 C 0.3367(3) 0.9162(2) 0.62298(14)
H2 H 0.3985 0.8800 0.6575
C4 C 0.3738(4) 0.9155(2) 0.55383(15)
H3 H 0.4596 0.8790 0.5406
C5 C 0.2846(3) 0.96862(19) 0.50457(13)
C9 C 0.1400(3) 0.96099(15) 0.86341(12)
H7 H 0.2418 0.9374 0.8555
C12 C 0.6868(3) 0.81871(18) 0.97723(14)
H10 H 0.7905 0.8009 0.9672
C13 C 0.5754(3) 0.78674(16) 0.94851(13)
C14 C 0.4263(3) 0.81863(16) 0.96235(12)
H11 H 0.3500 0.7993 0.9412
C15 C 0.6070(3) 0.72087(17) 0.90590(13)
H12 H 0.5256 0.6982 0.8914
C16 C 0.8749(3) 0.61496(18) 0.81778(13)
H13 H 0.9538 0.6455 0.8246
C17 C 0.9045(3) 0.55133(17) 0.77358(13)
C18 C 0.7991(3) 0.49922(18) 0.76472(14)
H14 H 0.7015 0.5045 0.7873
C19 C 0.8379(3) 0.43984(18) 0.72278(14)
H15 H 0.7665 0.4045 0.7156
C20 C 0.9819(3) 0.43191(17) 0.69113(13)
H21 H 0.1190 0.7513 0.9791
H22 H 0.0866 0.6110 0.9597
N26 N 0.0168(3) 0.47358(14) 0.97544(11)
C63 C 0.0246(3) 0.20688(16) 0.87942(13)
H53 H 0.0373 0.1623 0.8536
C64 C 0.0870(3) 0.28197(17) 0.85154(14)
H54 H 0.1416 0.2882 0.8078
C65 C 0.0689(3) 0.34767(17) 0.88800(14)
H55 H 0.1096 0.4001 0.8695
Cu1 Cu 0.16269(3) 0.917179(19) 0.019368(15)
N5 N 0.3832(2) 0.87546(13) 0.00409(10)
N9 N 0.0532(2) 0.80614(13) 0.05888(10)
C10 C 0.4931(3) 0.90222(16) 0.03333(12)
H8 H 0.4653 0.9405 0.0644
C11 C 0.6446(3) 0.87631(18) 0.02014(14)
H9 H 0.7190 0.8982 0.0406
C25 C 0.0105(3) 0.66408(16) 0.04697(13)
C26 C 0.0670(3) 0.74235(16) 0.02340(13)
C27 C 0.0336(3) 0.59917(16) 0.00370(14)
N17 N 0.0727(2) 0.99324(13) 0.08650(10)
C49 C 0.0911(3) 0.98088(16) 0.15317(12)
H41 H 0.1827 0.9564 0.1749
Cl2 Cl 0.67285(10) 0.03392(5) 0.58285(4)
N16 N 0.9234(2) 0.03169(12) 0.07575(10)
N18 N 0.9605(2) 0.00811(13) 0.18685(10)
N21 N 0.2582(2) 0.30643(15) 0.11193(12)
N22 N 0.2550(2) 0.36980(15) 0.15267(11)
C42 C 0.8220(3) 0.03576(16) 0.28242(13)
H36 H 0.7495 0.0666 0.2504
C43 C 0.7894(3) 0.03136(17) 0.35692(13)
C44 C 0.6633(3) 0.0838(2) 0.37702(14)
H37 H 0.6015 0.1200 0.3425
C45 C 0.6262(4) 0.0845(2) 0.44617(15)
H38 H 0.5404 0.1210 0.4594
C46 C 0.7154(3) 0.03138(19) 0.49543(13)
C50 C 0.8600(3) 0.03901(15) 0.13659(12)
H42 H 0.7582 0.0626 0.1445
C53 C 0.3132(3) 0.18129(18) 0.02277(14)
H45 H 0.2095 0.1991 0.0328
C54 C 0.4246(3) 0.21326(16) 0.05149(13)
C55 C 0.5737(3) 0.18137(16) 0.03765(12)
H46 H 0.6500 0.2007 0.0588
C56 C 0.3930(3) 0.27913(17) 0.09410(13)
H47 H 0.4744 0.3018 0.1086
C57 C 0.1251(3) 0.38504(18) 0.18222(13)
H48 H 0.0462 0.3545 0.1754
C58 C 0.0955(3) 0.44867(17) 0.22642(13)
C59 C 0.2009(3) 0.50078(18) 0.23528(14)
H49 H 0.2985 0.4955 0.2127
C60 C 0.1621(3) 0.56016(18) 0.27722(14)
H50 H 0.2335 0.5955 0.2844
C61 C 0.0181(3) 0.56809(17) 0.30887(13)
N10 N 0.9832(3) 0.52642(14) 0.02456(11)
C22 C 0.9754(3) 0.79312(16) 0.12058(13)
H18 H 0.9627 0.8377 0.1464
C23 C 0.9130(3) 0.71803(17) 0.14846(14)
H19 H 0.8584 0.7118 0.1922
C24 C 0.9311(3) 0.65233(17) 0.11200(14)
H20 H 0.8904 0.5999 0.1305
N19 N 0.9461(2) 0.99879(13) 0.25974(10)
C47 C 0.8377(3) 0.97584(19) 0.47764(14)
H39 H 0.8954 0.9373 0.5125
C48 C 0.8750(3) 0.97722(18) 0.40765(13)
H40 H 0.9607 0.9404 0.3947
H56 H 0.8810 0.2487 0.0209
H57 H 0.9134 0.3890 0.0403
N2 N 0.9273(2) 0.00676(13) 0.91350(10)
C8 C 0.9089(3) 0.01912(16) 0.84683(12)
H6 H 0.8173 0.0436 0.8251
Cu3 Cu 0.83731(3) 0.082821(19) 0.980632(15)
N20 N 0.6168(2) 0.12454(13) 0.99591(10)
N25 N 0.9468(2) 0.19386(13) 0.94112(10)
C51 C 0.5069(3) 0.09778(16) 0.96667(12)
H43 H 0.5347 0.0595 0.9356
C52 C 0.3554(3) 0.12369(18) 0.97986(14)
H44 H 0.2810 0.1018 0.9594
C66 C 0.9895(3) 0.33592(16) 0.95303(13)
C67 C 0.9330(3) 0.25765(16) 0.97660(13)
C68 C 0.9664(3) 0.40083(16) 0.99630(14)
O3 O 0.5143(2) 0.01889(13) 0.17063(12)
Cl3 Cl 0.53074(7) 0.93563(4) 0.21682(3)
O1 O 0.4122(2) 0.88963(12) 0.20515(11)
O2 O 0.6733(2) 0.88917(13) 0.20193(11)
O4 O 0.5179(3) 0.94670(18) 0.28629(11)
Cl3_2 Cl 0.46926(7) 0.06437(4) 0.78318(3)
O1_2 O 0.5878(2) 0.11037(12) 0.79485(11)
O2_2 O 0.3267(2) 0.11083(13) 0.79807(11)
O4_2 O 0.4821(3) 0.05330(18) 0.71371(11)
O3_2 O 0.4857(2) 0.98111(13) 0.82937(12)
Cl4 Cl 0.76143(8) 0.26159(4) 0.20450(3)
O5 O 0.6243(2) 0.22609(19) 0.22155(14)
O6 O 0.8488(3) 0.24653(16) 0.26468(11)
O7 O 0.7407(3) 0.35261(14) 0.17509(14)
O8 O 0.8449(4) 0.21807(17) 0.15522(13)
Cl4_2 Cl 0.23857(8) 0.73841(4) 0.79550(3)
O5_2 O 0.3757(2) 0.77391(19) 0.77845(14)
O6_2 O 0.1512(3) 0.75347(16) 0.73532(11)
O7_2 O 0.2593(3) 0.64739(14) 0.82491(14)
O8_2 O 0.1551(4) 0.78193(17) 0.84478(13)
loop_
_geom_bond_atom_site_label_1
_geom_bond_atom_site_label_2
_geom_bond_site_symmetry_1
_geom_bond_site_symmetry_2
Cu6 N27 1_555 1_555
N27 C69 1_555 1_555
C69 H58 1_555 1_555
C70 C69 1_555 1_555
H59 C70 1_555 1_555
C71 C70 1_555 1_555
H60 C71 1_555 1_555
C72 C71 1_555 1_555
C73 N27 1_555 1_555
H61 C73 1_555 1_555
C74 N29 1_555 1_555
H62 C74 1_555 1_555
C72 C73 1_555 1_555
C72 C74 1_555 1_555
Cu6 N30 1_555 1_555
N30 C75 1_555 1_555
C75 H63 1_555 1_555
C76 C75 1_555 1_555
H64 C76 1_555 1_555
C77 C76 1_555 1_555
H65 C77 1_555 1_555
C78 C77 1_555 1_555
C79 N30 1_555 1_555
H66 C79 1_555 1_555
C80 N32 1_555 1_555
H67 C80 1_555 1_555
C78 C79 1_555 1_555
C78 C80 1_555 1_555
Cu6 N23 1_555 1_555
N33 Cu6 1_555 1_555
C62 N23 1_555 1_555
H52 C62 1_555 1_555
C81 N33 1_555 1_555
C82 C81 1_555 1_555
H68 C82 1_555 1_555
H69 C82 1_555 1_555
H70 C82 1_555 1_555
Cu2 N8 1_555 1_555
N11 Cu2 1_555 1_555
N12 C33 1_555 1_555
N13 Cu2 1_555 1_555
N14 C39 1_555 1_555
N15 Cu2 1_555 1_555
C21 N8 1_555 1_555
H17 C21 1_555 1_555
C28 N11 1_555 1_555
H23 C28 1_555 1_555
C29 C28 1_555 1_555
H24 C29 1_555 1_555
C30 C29 1_555 1_555
H25 C30 1_555 1_555
C31 C30 1_555 1_555
C32 N11 1_555 1_555
H26 C32 1_555 1_555
C33 C31 1_555 1_555
H27 C33 1_555 1_555
C34 N13 1_555 1_555
H28 C34 1_555 1_555
C35 C34 1_555 1_555
H29 C35 1_555 1_555
C36 C35 1_555 1_555
H30 C36 1_555 1_555
C37 C36 1_555 1_555
C38 N13 1_555 1_555
H31 C38 1_555 1_555
C39 C37 1_555 1_555
H32 C39 1_555 1_555
C40 N15 1_555 1_555
C41 C40 1_555 1_555
H33 C41 1_555 1_555
H34 C41 1_555 1_555
H35 C41 1_555 1_555
C31 C32 1_555 1_555
C37 C38 1_555 1_555
H4 C6 1_555 1_555
H5 C7 1_555 1_555
C6 C7 1_555 1_555
Cl1 C5 1_555 1_555
N6 N7 1_555 1_555
N7 C16 1_555 1_555
C1 H1 1_555 1_555
C2 C1 1_555 1_555
C3 C2 1_555 1_555
H2 C3 1_555 1_555
C4 C3 1_555 1_555
H3 C4 1_555 1_555
C5 C4 1_555 1_555
C9 N1 1_555 1_555
H7 C9 1_555 1_555
H10 C12 1_555 1_555
C13 C12 1_555 1_555
H11 C14 1_555 1_555
C15 N6 1_555 1_555
H12 C15 1_555 1_555
C16 H13 1_555 1_555
C17 C16 1_555 1_555
C18 C17 1_555 1_555
H14 C18 1_555 1_555
C19 C18 1_555 1_555
H15 C19 1_555 1_555
C20 C19 1_555 1_555
C63 H53 1_555 1_555
C64 C63 1_555 1_555
H54 C64 1_555 1_555
C65 C64 1_555 1_555
H55 C65 1_555 1_555
N3 C9 1_555 1_555
C13 C14 1_555 1_555
C13 C15 1_555 1_555
N5 Cu1 1_555 1_555
N9 Cu1 1_555 1_555
C10 N5 1_555 1_555
H8 C10 1_555 1_555
C11 C10 1_555 1_555
H9 C11 1_555 1_555
C26 N9 1_555 1_555
C27 C25 1_555 1_555
N17 Cu1 1_555 1_555
C49 N17 1_555 1_555
H41 C49 1_555 1_555
C25 C26 1_555 1_555
Cl2 C46 1_555 1_555
N21 N22 1_555 1_555
N22 C57 1_555 1_555
C42 H36 1_555 1_555
C43 C42 1_555 1_555
C44 C43 1_555 1_555
H37 C44 1_555 1_555
C45 C44 1_555 1_555
H38 C45 1_555 1_555
C46 C45 1_555 1_555
C50 N16 1_555 1_555
H42 C50 1_555 1_555
H45 C53 1_555 1_555
C54 C53 1_555 1_555
H46 C55 1_555 1_555
C56 N21 1_555 1_555
H47 C56 1_555 1_555
C57 H48 1_555 1_555
C58 C57 1_555 1_555
C59 C58 1_555 1_555
H49 C59 1_555 1_555
C60 C59 1_555 1_555
H50 C60 1_555 1_555
C61 C60 1_555 1_555
N18 C50 1_555 1_555
C54 C55 1_555 1_555
C54 C56 1_555 1_555
H18 C22 1_555 1_555
C23 C22 1_555 1_555
H19 C23 1_555 1_555
C24 C23 1_555 1_555
H20 C24 1_555 1_555
H39 C47 1_555 1_555
H40 C48 1_555 1_555
C47 C48 1_555 1_555
N2 C8 1_555 1_555
H6 C8 1_555 1_555
Cu3 N2 1_555 1_555
N20 Cu3 1_555 1_555
N25 Cu3 1_555 1_555
C51 N20 1_555 1_555
H43 C51 1_555 1_555
C52 C51 1_555 1_555
H44 C52 1_555 1_555
C67 N25 1_555 1_555
C66 C67 1_555 1_555
C66 C68 1_555 1_555
Cl3 O1 1_555 1_555
O2 Cl3 1_555 1_555
O4 Cl3 1_555 1_555
Cl3_2 O1_2 1_555 1_555
O2_2 Cl3_2 1_555 1_555
O4_2 Cl3_2 1_555 1_555
Cl4 O5 1_555 1_555
O6 Cl4 1_555 1_555
O7 Cl4 1_555 1_555
O8 Cl4 1_555 1_555
Cl4_2 O5_2 1_555 1_555
O6_2 Cl4_2 1_555 1_555
O7_2 Cl4_2 1_555 1_555
O8_2 Cl4_2 1_555 1_555

#END
