
###############################################################################
#
# This file contains modified crystal structure data generated from the
# MOF subset of the Cambridge Structural Database (CSD) v543 
# hosted by the Cambridge Crystallographic Data Centre (CCDC).
#
# This work is licensed under the Creative Commons
# Attribution-NonCommercial-ShareAlike 4.0 International License.
# To view a copy of this license, visit
# http://creativecommons.org/licenses/by-nc-sa/4.0/
# or send a letter to
# Creative Commons, PO Box 1866, Mountain View, CA 94042, USA.
#
# CIF created using the CSD Python API on 29 September 2022
# The structure has been converted into the P1 space group
# The structure has a 3D framework
# The original CSD entry FUFTUX is in the monoclinic crystal system
# The framework has been calculated to contain at least 10.0% void space
# The void calculation uses a probe of radius 1.32A, grid spacing 0.4
#
###############################################################################

data_FUFTUX
_chemical_formula_moiety         '(C312 H212 Co8 N16 Na4 O71)n'
_symmetry_cell_setting           triclinic
_symmetry_space_group_name_H-M   'P 1'
_symmetry_Int_Tables_number      1
_space_group_name_Hall           'P 1'
loop_
_symmetry_equiv_pos_site_id
_symmetry_equiv_pos_as_xyz
1 x,y,z
_cell_length_a                   14.3700(12)
_cell_length_b                   28.431(2)
_cell_length_c                   17.883(2)
_cell_angle_alpha                90
_cell_angle_beta                 100.673(5)
_cell_angle_gamma                90
_cell_volume                     7179.77
loop_
_atom_site_label
_atom_site_type_symbol
_atom_site_fract_x
_atom_site_fract_y
_atom_site_fract_z
Na1 Na 0.33179(9) 0.16695(5) 0.39110(8)
C5 C 0.3868(2) 0.01924(13) 0.0333(2)
C11 C 0.4752(3) 0.03393(15) 0.0873(2)
H9 H 0.5205 0.0083 0.0940
H10 H 0.5039 0.0606 0.0664
C40 C 0.4675(3) 0.19954(14) 0.1856(3)
C41 C 0.4062(3) 0.16828(14) 0.1429(3)
H29 H 0.3581 0.1544 0.1636
C42 C 0.4159(3) 0.15742(14) 0.0693(3)
C43 C 0.4865(4) 0.17881(17) 0.0384(3)
C44 C 0.5479(4) 0.20943(19) 0.0811(3)
H31 H 0.5951 0.2238 0.0599
C45 C 0.5405(4) 0.21911(17) 0.1550(3)
H32 H 0.5845 0.2388 0.1845
C46 C 0.4522(3) 0.21064(15) 0.2632(3)
C47 C 0.5674(3) 0.10070(13) 0.3356(2)
C48 C 0.4993(3) 0.08129(13) 0.2788(2)
H33 H 0.4368 0.0791 0.2856
C49 C 0.5240(3) 0.06518(14) 0.2121(2)
C50 C 0.6174(3) 0.06912(16) 0.2014(3)
H34 H 0.6346 0.0583 0.1569
C51 C 0.6838(3) 0.08936(19) 0.2580(3)
H35 H 0.7459 0.0925 0.2506
C52 C 0.6605(3) 0.10481(16) 0.3243(3)
H36 H 0.7065 0.1180 0.3619
C53 C 0.5422(3) 0.11724(13) 0.4081(2)
O4 O 0.45217(17) 0.04642(10) 0.15928(15)
O5 O 0.3544(2) 0.12476(10) 0.03236(18)
O9 O 0.46055(18) 0.11073(9) 0.42321(15)
O10 O 0.60509(19) 0.13798(10) 0.45581(17)
O11 O 0.3911(2) 0.19142(11) 0.29012(18)
O12 O 0.5072(2) 0.24347(12) 0.2980(2)
H53 H 0.4948 0.2478 0.3404
Co5 Co 0.51161(3) 0.149202(18) 0.53366(3)
O21 O 0.2163(2) 0.11337(12) 0.34195(18)
O25 O 0.4589(2) 0.20989(9) 0.48005(16)
O26 O 0.27130(18) 0.15067(10) 0.50268(15)
O27 O 0.2288(2) 0.22898(11) 0.3849(2)
Co1 Co 0.13656(4) 0.134658(18) 0.44267(3)
C1 C 0.2620(3) 0.03582(13) 0.9253(2)
C6 C 0.3433(3) 0.05004(13) 0.9764(2)
C7 C 0.2118(3) 0.06968(15) 0.8668(2)
H1 H 0.1464 0.0601 0.8504
H2 H 0.2126 0.1010 0.8883
C12 C 0.3815(3) 0.09900(13) 0.9714(2)
H11 H 0.4499 0.0983 0.9767
H12 H 0.3548 0.1132 0.9229
C13 C 0.2278(3) 0.10180(14) 0.7472(2)
C14 C 0.1493(3) 0.12999(16) 0.7456(3)
H13 H 0.1131 0.1276 0.7835
C15 C 0.1254(3) 0.16182(16) 0.6868(3)
H14 H 0.0725 0.1808 0.6854
C16 C 0.1783(3) 0.16610(15) 0.6299(3)
H15 H 0.1618 0.1882 0.5914
C17 C 0.2559(3) 0.13723(13) 0.6308(2)
C18 C 0.2808(3) 0.10502(14) 0.6900(2)
H16 H 0.3332 0.0856 0.6911
C19 C 0.3124(3) 0.14117(13) 0.5689(2)
H30 H 0.4922 0.1724 0.9884
C55 C 0.6359(3) 0.22493(16) 0.6321(3)
H37 H 0.6015 0.2472 0.6002
C56 C 0.7075(4) 0.24033(19) 0.6908(3)
H38 H 0.7195 0.2723 0.6977
C57 C 0.7586(4) 0.2091(2) 0.7370(3)
H39 H 0.8062 0.2194 0.7760
C58 C 0.7404(3) 0.16043(19) 0.7266(3)
C59 C 0.6676(3) 0.14789(15) 0.6666(2)
C60 C 0.6448(3) 0.09920(14) 0.6525(2)
C61 C 0.6970(3) 0.06445(18) 0.6981(3)
C62 C 0.7719(3) 0.0788(2) 0.7575(3)
H40 H 0.8071 0.0561 0.7877
C63 C 0.7926(3) 0.1238(2) 0.7706(3)
H41 H 0.8424 0.1319 0.8095
C64 C 0.6703(4) 0.01746(19) 0.6805(3)
C65 C 0.5979(4) 0.00758(17) 0.6235(3)
C66 C 0.5499(3) 0.04432(15) 0.5811(3)
H44 H 0.5001 0.0371 0.5416
C67 C 0.2336(4) 0.03741(17) 0.4927(3)
H45 H 0.2789 0.0456 0.4640
C70 C 0.1033(4) 0.01107(18) 0.5780(3)
C71 C 0.0986(3) 0.05386(15) 0.5378(2)
C72 C 0.0241(3) 0.08663(16) 0.5410(3)
C75 C 0.0286(5) 0.0015(2) 0.6206(3)
O6 O 0.2601(2) 0.06956(10) 0.80340(16)
O15 O 0.40083(18) 0.13492(9) 0.58763(15)
N1 N 0.5724(2) 0.08910(11) 0.59473(19)
N2 N 0.6152(2) 0.17966(12) 0.6202(2)
N3 N 0.1638(2) 0.06651(12) 0.4953(2)
N4 N 0.0239(2) 0.12686(13) 0.5016(2)
O19 O 0.0675(2) 0.10103(11) 0.34333(17)
O28 O 0.0950(2) 0.19976(10) 0.40858(19)
C4 C 0.3462(3) 0.97489(13) 0.0418(2)
H5 H 0.2373 0.9013 0.0489
C10 C 0.3899(3) 0.94294(13) 0.1063(2)
H7 H 0.4501 0.9556 0.1321
H8 H 0.3483 0.9400 0.1430
H24 H 0.1384 0.8370 0.0270
C33 C 0.4249(3) 0.86013(13) 0.1230(2)
C34 C 0.3800(3) 0.81824(14) 0.0995(2)
H25 H 0.3316 0.8177 0.0570
C35 C 0.4068(3) 0.77712(14) 0.1390(2)
C36 C 0.4757(3) 0.77914(16) 0.2032(3)
H26 H 0.4945 0.7518 0.2304
C37 C 0.5170(4) 0.82130(16) 0.2276(3)
H27 H 0.5626 0.8223 0.2719
C38 C 0.4921(3) 0.86196(15) 0.1880(3)
H28 H 0.5205 0.8904 0.2049
C39 C 0.3558(3) 0.73153(15) 0.1138(2)
C54 C 0.0609(3) 0.75257(14) 0.0270(3)
O3 O 0.4036(2) 0.89808(9) 0.07385(16)
O13 O 0.0445(2) 0.77709(10) 0.08184(19)
O14 O 0.0411(2) 0.70989(9) 0.01995(16)
O17 O 0.2712(2) 0.72898(11) 0.1151(2)
O18 O 0.4050(2) 0.69976(10) 0.09142(19)
Co3 Co 0.36344(4) 0.634658(18) 0.05733(3)
Na3 Na 0.16821(9) 0.66695(5) 0.10890(8)
C20 C 0.9744(3) 0.96624(15) 0.8664(2)
C21 C 0.8999(3) 0.97046(19) 0.9041(3)
H17 H 0.9073 0.9866 0.9501
C22 C 0.8133(3) 0.9503(2) 0.8728(3)
H18 H 0.7629 0.9523 0.8987
C23 C 0.8014(3) 0.92756(18) 0.8042(3)
H19 H 0.7432 0.9143 0.7836
C24 C 0.8750(3) 0.92437(14) 0.7660(2)
C25 C 0.9620(3) 0.94370(14) 0.7975(2)
C26 C 0.8618(3) 0.90121(14) 0.6892(2)
O7 O 0.9325(2) 0.89897(11) 0.65667(17)
O8 O 0.7837(2) 0.88663(12) 0.65805(18)
Co4 Co 0.86344(4) 0.865342(18) 0.55733(3)
Co6 Co 0.98839(3) 0.649202(18) 0.96634(3)
Na4 Na 0.66821(9) 0.83305(5) 0.60890(8)
C67_2 C 0.2664(4) 0.53741(17) 0.0073(3)
H45_2 H 0.2211 0.5456 0.0360
H50 H 0.5458 0.6849 0.0227
N3_2 N 0.3362(2) 0.56651(12) 0.0047(2)
O19_2 O 0.4325(2) 0.60103(11) 0.15667(17)
O20 O 0.2837(2) 0.61337(12) 0.15805(18)
O22 O 0.03945(18) 0.61073(9) 0.07679(15)
C1_2 C 0.2380(3) 0.53582(13) 0.5747(2)
C2 C 0.2753(2) 0.49111(13) 0.5687(2)
C3 C 0.2348(3) 0.46118(13) 0.5091(2)
C4_2 C 0.1538(3) 0.47489(13) 0.4582(2)
C5_2 C 0.1132(2) 0.51924(13) 0.4667(2)
C6_2 C 0.1567(3) 0.55004(13) 0.5236(2)
C7_2 C 0.2882(3) 0.56968(15) 0.6332(2)
H1_2 H 0.3536 0.5601 0.6496
H2_2 H 0.2874 0.6010 0.6117
C8 C 0.3589(3) 0.47424(15) 0.6261(2)
H3 H 0.3597 0.4894 0.6748
H4 H 0.3553 0.4405 0.6329
C9 C 0.2843(3) 0.41462(13) 0.5013(2)
H5_2 H 0.2627 0.4013 0.4511
H6 H 0.3523 0.4191 0.5088
C10_2 C 0.1101(3) 0.44294(13) 0.3937(2)
H7_2 H 0.0499 0.4556 0.3679
H8_2 H 0.1517 0.4400 0.3570
C11_2 C 0.0248(3) 0.53393(15) 0.4127(2)
C12_2 C 0.1185(3) 0.59900(13) 0.5286(2)
H11_2 H 0.0501 0.5983 0.5233
H12_2 H 0.1452 0.6132 0.5771
C13_2 C 0.2722(3) 0.60180(14) 0.7528(2)
C14_2 C 0.3507(3) 0.62999(16) 0.7544(3)
H13_2 H 0.3869 0.6276 0.7165
C15_2 C 0.3746(3) 0.66182(16) 0.8132(3)
H14_2 H 0.4275 0.6808 0.8146
C16_2 C 0.3217(3) 0.66610(15) 0.8701(3)
H15_2 H 0.3382 0.6882 0.9086
C17_2 C 0.2441(3) 0.63723(13) 0.8692(2)
C18_2 C 0.2192(3) 0.60502(14) 0.8100(2)
H16_2 H 0.1668 0.5856 0.8089
C19_2 C 0.1876(3) 0.64117(13) 0.9311(2)
C20_2 C 0.5256(3) 0.46624(15) 0.6336(2)
C21_2 C 0.6001(3) 0.47046(19) 0.5959(3)
H17_2 H 0.5927 0.4866 0.5499
C22_2 C 0.6867(3) 0.4503(2) 0.6272(3)
H18_2 H 0.7371 0.4523 0.6013
C23_2 C 0.6986(3) 0.42756(18) 0.6958(3)
H19_2 H 0.7568 0.4143 0.7164
C24_2 C 0.6250(3) 0.42437(14) 0.7340(2)
C25_2 C 0.5380(3) 0.44370(14) 0.7025(2)
H20 H 0.4877 0.4414 0.7283
C26_2 C 0.6382(3) 0.40121(14) 0.8108(2)
C27 C 0.3051(3) 0.34142(13) 0.5689(2)
C28 C 0.2961(3) 0.31796(15) 0.6348(3)
H21 H 0.2631 0.3316 0.6694
C29 C 0.3362(4) 0.27417(16) 0.6489(3)
H22 H 0.3312 0.2585 0.6936
C30 C 0.3836(3) 0.25343(15) 0.5974(3)
H23 H 0.4106 0.2238 0.6074
C31 C 0.3912(3) 0.27632(13) 0.5313(2)
C32 C 0.3541(3) 0.32096(13) 0.5168(2)
H24_2 H 0.3616 0.3370 0.4730
C33_2 C 0.0751(3) 0.36013(13) 0.3770(2)
C34_2 C 0.1200(3) 0.31824(14) 0.4005(2)
H25_2 H 0.1684 0.3177 0.4430
C35_2 C 0.0932(3) 0.27712(14) 0.3610(2)
C36_2 C 0.0243(3) 0.27914(16) 0.2968(3)
H26_2 H 0.0055 0.2518 0.2696
C38_2 C 0.0079(3) 0.36196(15) 0.3120(3)
C39_2 C 0.1442(3) 0.23153(15) 0.3862(2)
C40_2 C 0.0325(3) 0.69954(14) 0.3144(3)
C41_2 C 0.0938(3) 0.66828(14) 0.3571(3)
H29_2 H 0.1419 0.6544 0.3364
C42_2 C 0.0841(3) 0.65742(14) 0.4307(3)
C43_2 C 0.0135(4) 0.67881(17) 0.4616(3)
H30_2 H 0.0078 0.6724 0.5116
C46_2 C 0.0478(3) 0.71064(15) 0.2368(3)
C48_2 C 0.0007(3) 0.58129(13) 0.2212(2)
H33_2 H 0.0632 0.5791 0.2144
C54_2 C 0.4391(3) 0.25257(14) 0.4730(3)
C68 C 0.2572(5) 0.4942(2) 0.9686(4)
H46 H 0.2065 0.4745 0.9717
C69 C 0.3222(5) 0.4815(2) 0.9267(4)
H47 H 0.3166 0.4529 0.9011
C70_2 C 0.3967(4) 0.51107(18) 0.9220(3)
C71_2 C 0.4014(3) 0.55386(15) 0.9622(2)
C72_2 C 0.4759(3) 0.58663(16) 0.9590(3)
C73 C 0.5455(4) 0.5752(2) 0.9159(3)
C74 C 0.5394(5) 0.5317(3) 0.8766(4)
H48 H 0.5852 0.5244 0.8478
C75_2 C 0.4714(5) 0.5015(2) 0.8794(3)
H49 H 0.4708 0.4732 0.8534
C76 C 0.5451(4) 0.6569(2) 0.9959(3)
C77 C 0.6170(5) 0.6486(3) 0.9552(5)
H51 H 0.6647 0.6708 0.9551
C78 C 0.6167(5) 0.6080(3) 0.9159(5)
H52 H 0.6647 0.6020 0.8887
O1 O 0.44221(18) 0.48609(10) 0.59742(16)
O2 O 0.2603(2) 0.38412(9) 0.55889(17)
O3_2 O 0.0964(2) 0.39808(9) 0.42615(16)
O4_2 O 0.04783(17) 0.54642(10) 0.34072(15)
O5_2 O 0.1456(2) 0.62476(10) 0.46764(18)
O6_2 O 0.2399(2) 0.56956(10) 0.69660(16)
O7_2 O 0.5675(2) 0.39897(11) 0.84333(17)
O8_2 O 0.7163(2) 0.38663(12) 0.84195(18)
O11_2 O 0.1089(2) 0.69142(11) 0.20988(18)
H53_2 H 0.0052 0.7478 0.1596
O13_2 O 0.4555(2) 0.27709(10) 0.41816(19)
O15_2 O 0.09917(18) 0.63492(9) 0.91237(15)
O16 O 0.22870(18) 0.65067(10) 0.99732(15)
N4_2 N 0.4761(2) 0.62686(13) 0.9984(2)
Co4_2 Co 0.63656(4) 0.365342(18) 0.94267(3)
Na4_2 Na 0.83179(9) 0.33305(5) 0.89110(8)
O23 O 0.89491(19) 0.63798(10) 0.04419(17)
H9_2 H 0.9795 0.5083 0.4060
H10_2 H 0.9961 0.5606 0.4336
C37_2 C 0.9830(4) 0.32130(16) 0.2724(3)
H27_2 H 0.9374 0.3223 0.2281
H28_2 H 0.9795 0.3904 0.2951
C44_2 C 0.9521(4) 0.70943(19) 0.4189(3)
H31_2 H 0.9049 0.7238 0.4401
C45_2 C 0.9595(4) 0.71911(17) 0.3450(3)
H32_2 H 0.9155 0.7388 0.3155
C47_2 C 0.9326(3) 0.60070(13) 0.1644(2)
C49_2 C 0.9760(3) 0.56518(14) 0.2879(2)
C50_2 C 0.8826(3) 0.56912(16) 0.2986(3)
H34_2 H 0.8654 0.5583 0.3431
C51_2 C 0.8162(3) 0.58936(19) 0.2420(3)
H35_2 H 0.7541 0.5925 0.2494
C52_2 C 0.8395(3) 0.60481(16) 0.1757(3)
H36_2 H 0.7935 0.6180 0.1381
C53_2 C 0.9578(3) 0.61724(13) 0.0919(2)
C55_2 C 0.8641(3) 0.72493(16) 0.8679(3)
H37_2 H 0.8985 0.7472 0.8998
C56_2 C 0.7925(4) 0.74033(19) 0.8092(3)
H38_2 H 0.7805 0.7723 0.8023
C57_2 C 0.7414(4) 0.7091(2) 0.7630(3)
H39_2 H 0.6938 0.7194 0.7240
C58_2 C 0.7596(3) 0.66043(19) 0.7734(3)
C59_2 C 0.8324(3) 0.64789(15) 0.8334(2)
C60_2 C 0.8552(3) 0.59920(14) 0.8475(2)
C61_2 C 0.8030(3) 0.56445(18) 0.8019(3)
C62_2 C 0.7281(3) 0.5788(2) 0.7425(3)
H40_2 H 0.6929 0.5561 0.7123
C63_2 C 0.7074(3) 0.6238(2) 0.7294(3)
H41_2 H 0.6576 0.6319 0.6905
C64_2 C 0.8297(4) 0.51746(19) 0.8195(3)
H42 H 0.7970 0.4931 0.7914
C65_2 C 0.9021(4) 0.50758(17) 0.8765(3)
H43 H 0.9201 0.4766 0.8876
C66_2 C 0.9501(3) 0.54432(15) 0.9189(3)
H44_2 H 0.9999 0.5371 0.9584
O12_2 O 0.9928(2) 0.74347(12) 0.2020(2)
N1_2 N 0.9276(2) 0.58910(11) 0.90527(19)
N2_2 N 0.8848(2) 0.67966(12) 0.8798(2)
C20_3 C 0.0256(3) 0.03376(15) 0.1336(2)
C21_3 C 0.1001(3) 0.02954(19) 0.0959(3)
H17_3 H 0.0927 0.0134 0.0499
C22_3 C 0.1867(3) 0.0497(2) 0.1272(3)
H18_3 H 0.2371 0.0477 0.1013
C23_3 C 0.1986(3) 0.07244(18) 0.1958(3)
H19_3 H 0.2568 0.0857 0.2164
C24_3 C 0.1250(3) 0.07563(14) 0.2340(2)
C25_3 C 0.0380(3) 0.05630(14) 0.2025(2)
C26_3 C 0.1382(3) 0.09879(14) 0.3108(2)
Co6_2 Co 0.01161(3) 0.350798(18) 0.03366(3)
C4_3 C 0.6538(3) 0.02511(13) 0.9582(2)
H5_3 H 0.7627 0.0987 0.9511
C10_3 C 0.6101(3) 0.05706(13) 0.8937(2)
H7_3 H 0.5499 0.0444 0.8679
H8_3 H 0.6517 0.0600 0.8570
H24_3 H 0.8616 0.1630 0.9730
C33_3 C 0.5751(3) 0.13987(13) 0.8770(2)
C34_3 C 0.6200(3) 0.18176(14) 0.9005(2)
H25_3 H 0.6684 0.1823 0.9430
C35_3 C 0.5932(3) 0.22288(14) 0.8610(2)
C36_3 C 0.5243(3) 0.22086(16) 0.7968(3)
H26_3 H 0.5055 0.2482 0.7696
C37_3 C 0.4830(4) 0.17870(16) 0.7724(3)
H27_3 H 0.4374 0.1777 0.7281
C38_3 C 0.5079(3) 0.13804(15) 0.8120(3)
H28_3 H 0.4795 0.1096 0.7951
C39_3 C 0.6442(3) 0.26847(15) 0.8862(2)
C54_3 C 0.9391(3) 0.24743(14) 0.9730(3)
O3_3 O 0.5964(2) 0.10192(9) 0.92615(16)
O13_3 O 0.9555(2) 0.22291(10) 0.91816(19)
O14_2 O 0.9589(2) 0.29011(9) 0.98005(16)
O17_2 O 0.7288(2) 0.27102(11) 0.8849(2)
O18_2 O 0.5950(2) 0.30024(10) 0.90858(19)
Co2 Co 0.48839(3) 0.850798(18) 0.46634(3)
C1_3 C 0.7380(3) 0.96418(13) 0.0747(2)
C6_3 C 0.6567(3) 0.94996(13) 0.0236(2)
C7_3 C 0.7882(3) 0.93032(15) 0.1332(2)
H1_3 H 0.8536 0.9399 0.1496
H2_3 H 0.7874 0.8990 0.1117
C12_3 C 0.6185(3) 0.90100(13) 0.0286(2)
H11_3 H 0.5501 0.9017 0.0233
H12_3 H 0.6452 0.8868 0.0771
C13_3 C 0.7722(3) 0.89820(14) 0.2528(2)
C14_3 C 0.8507(3) 0.87001(16) 0.2544(3)
H13_3 H 0.8869 0.8724 0.2165
C15_3 C 0.8746(3) 0.83818(16) 0.3132(3)
H14_3 H 0.9275 0.8192 0.3146
C16_3 C 0.8217(3) 0.83390(15) 0.3701(3)
H15_3 H 0.8382 0.8118 0.4086
C17_3 C 0.7441(3) 0.86277(13) 0.3692(2)
C18_3 C 0.7192(3) 0.89498(14) 0.3100(2)
H16_3 H 0.6668 0.9144 0.3089
C19_3 C 0.6876(3) 0.85883(13) 0.4311(2)
H30_3 H 0.5078 0.8276 0.0116
C55_3 C 0.3641(3) 0.77507(16) 0.3679(3)
H37_3 H 0.3985 0.7528 0.3998
C56_3 C 0.2925(4) 0.75967(19) 0.3092(3)
H38_3 H 0.2805 0.7277 0.3023
C57_3 C 0.2414(4) 0.7909(2) 0.2630(3)
H39_3 H 0.1938 0.7806 0.2240
C58_3 C 0.2596(3) 0.83957(19) 0.2734(3)
C59_3 C 0.3324(3) 0.85211(15) 0.3334(2)
C60_3 C 0.3552(3) 0.90080(14) 0.3475(2)
C61_3 C 0.3030(3) 0.93555(18) 0.3019(3)
C62_3 C 0.2281(3) 0.9212(2) 0.2425(3)
H40_3 H 0.1929 0.9439 0.2123
C63_3 C 0.2074(3) 0.8762(2) 0.2294(3)
H41_3 H 0.1576 0.8681 0.1905
C64_3 C 0.3297(4) 0.98254(19) 0.3195(3)
C65_3 C 0.4021(4) 0.99242(17) 0.3765(3)
C66_3 C 0.4501(3) 0.95568(15) 0.4189(3)
H44_3 H 0.4999 0.9629 0.4584
C67_3 C 0.7664(4) 0.96259(17) 0.5073(3)
H45_3 H 0.7211 0.9544 0.5360
C70_3 C 0.8967(4) 0.98893(18) 0.4220(3)
C71_3 C 0.9014(3) 0.94614(15) 0.4622(2)
C72_3 C 0.9759(3) 0.91337(16) 0.4590(3)
C75_3 C 0.9714(5) 0.9985(2) 0.3794(3)
O6_3 O 0.7399(2) 0.93044(10) 0.19660(16)
O15_3 O 0.59917(18) 0.86508(9) 0.41237(15)
O16_2 O 0.72870(18) 0.84933(10) 0.49732(15)
N1_3 N 0.4276(2) 0.91090(11) 0.40527(19)
N2_3 N 0.3848(2) 0.82034(12) 0.3798(2)
N3_3 N 0.8362(2) 0.93349(12) 0.5047(2)
N4_3 N 0.9761(2) 0.87314(13) 0.4984(2)
O22_2 O 0.53945(18) 0.88927(9) 0.57679(15)
O23_2 O 0.39491(19) 0.86202(10) 0.54419(17)
O24 O 0.5411(2) 0.79011(9) 0.51995(16)
O28_2 O 0.9050(2) 0.80024(10) 0.59142(19)
C5_3 C 0.6132(2) 0.98076(13) 0.9667(2)
C11_3 C 0.5248(3) 0.96607(15) 0.9127(2)
H9_3 H 0.4795 0.9917 0.9060
H10_3 H 0.4961 0.9394 0.9336
C40_3 C 0.5325(3) 0.80046(14) 0.8144(3)
C41_3 C 0.5938(3) 0.83172(14) 0.8571(3)
H29_3 H 0.6419 0.8456 0.8364
C42_3 C 0.5841(3) 0.84258(14) 0.9307(3)
C43_3 C 0.5135(4) 0.82119(17) 0.9616(3)
C44_3 C 0.4521(4) 0.79057(19) 0.9189(3)
H31_3 H 0.4049 0.7762 0.9401
C45_3 C 0.4595(4) 0.78089(17) 0.8450(3)
H32_3 H 0.4155 0.7612 0.8155
C46_3 C 0.5478(3) 0.78936(15) 0.7368(3)
C47_3 C 0.4326(3) 0.89930(13) 0.6644(2)
C48_3 C 0.5007(3) 0.91871(13) 0.7212(2)
H33_3 H 0.5632 0.9209 0.7144
C49_3 C 0.4760(3) 0.93482(14) 0.7879(2)
C50_3 C 0.3826(3) 0.93088(16) 0.7986(3)
H34_3 H 0.3654 0.9417 0.8431
C51_3 C 0.3162(3) 0.91064(19) 0.7420(3)
H35_3 H 0.2541 0.9075 0.7494
C52_3 C 0.3395(3) 0.89519(16) 0.6757(3)
H36_3 H 0.2935 0.8820 0.6381
C53_3 C 0.4578(3) 0.88276(13) 0.5919(2)
O4_3 O 0.54783(17) 0.95358(10) 0.84072(15)
O5_3 O 0.6456(2) 0.87524(10) 0.96764(18)
O11_3 O 0.6089(2) 0.80858(11) 0.70988(18)
O12_3 O 0.4928(2) 0.75653(12) 0.7020(2)
H53_3 H 0.5052 0.7522 0.6596
O27_2 O 0.7712(2) 0.77102(11) 0.6151(2)
H9_4 H 0.0205 0.4917 0.5940
H10_4 H 0.0039 0.4394 0.5664
C37_4 C 0.0170(4) 0.67870(16) 0.7276(3)
H27_4 H 0.0626 0.6777 0.7719
H28_4 H 0.0205 0.6096 0.7049
C44_4 C 0.0479(4) 0.29057(19) 0.5811(3)
H31_4 H 0.0951 0.2762 0.5599
C45_4 C 0.0405(4) 0.28089(17) 0.6550(3)
H32_4 H 0.0845 0.2612 0.6845
C47_4 C 0.0674(3) 0.39930(13) 0.8356(2)
C49_4 C 0.0240(3) 0.43482(14) 0.7121(2)
C50_4 C 0.1174(3) 0.43088(16) 0.7014(3)
H34_4 H 0.1346 0.4417 0.6569
C51_4 C 0.1838(3) 0.41064(19) 0.7580(3)
H35_4 H 0.2459 0.4075 0.7506
C52_4 C 0.1605(3) 0.39519(16) 0.8243(3)
H36_4 H 0.2065 0.3820 0.8619
C53_4 C 0.0422(3) 0.38276(13) 0.9081(2)
C55_4 C 0.1359(3) 0.27507(16) 0.1321(3)
H37_4 H 0.1015 0.2528 0.1002
C56_4 C 0.2075(4) 0.25967(19) 0.1908(3)
H38_4 H 0.2195 0.2277 0.1977
C57_4 C 0.2586(4) 0.2909(2) 0.2370(3)
H39_4 H 0.3062 0.2806 0.2760
C58_4 C 0.2404(3) 0.33957(19) 0.2266(3)
C59_4 C 0.1676(3) 0.35211(15) 0.1666(2)
C60_4 C 0.1448(3) 0.40080(14) 0.1525(2)
C61_4 C 0.1970(3) 0.43555(18) 0.1981(3)
C62_4 C 0.2719(3) 0.4212(2) 0.2575(3)
H40_4 H 0.3071 0.4439 0.2877
C63_4 C 0.2926(3) 0.3762(2) 0.2706(3)
H41_4 H 0.3424 0.3681 0.3095
C64_4 C 0.1703(4) 0.48254(19) 0.1805(3)
H42_2 H 0.2030 0.5069 0.2086
C65_4 C 0.0979(4) 0.49242(17) 0.1235(3)
H43_2 H 0.0799 0.5234 0.1124
C66_4 C 0.0499(3) 0.45568(15) 0.0811(3)
H44_4 H 0.0001 0.4629 0.0416
O10_2 O 0.10509(19) 0.36202(10) 0.95581(17)
O12_4 O 0.0072(2) 0.25653(12) 0.7980(2)
N1_4 N 0.0724(2) 0.41090(11) 0.09473(19)
N2_4 N 0.1152(2) 0.32034(12) 0.1202(2)
O26_2 O 0.77130(18) 0.34933(10) 0.00268(15)
C1_4 C 0.7620(3) 0.46418(13) 0.4253(2)
C2_2 C 0.7247(2) 0.50889(13) 0.4313(2)
C3_2 C 0.7652(3) 0.53882(13) 0.4909(2)
C4_4 C 0.8462(3) 0.52511(13) 0.5418(2)
C5_4 C 0.8868(2) 0.48076(13) 0.5333(2)
C6_4 C 0.8433(3) 0.44996(13) 0.4764(2)
C7_4 C 0.7118(3) 0.43032(15) 0.3668(2)
H1_4 H 0.6464 0.4399 0.3504
H2_4 H 0.7126 0.3990 0.3883
C8_2 C 0.6411(3) 0.52576(15) 0.3739(2)
H3_2 H 0.6403 0.5106 0.3252
H4_2 H 0.6447 0.5595 0.3671
C9_2 C 0.7157(3) 0.58538(13) 0.4987(2)
H5_4 H 0.7373 0.5987 0.5489
H6_2 H 0.6477 0.5809 0.4912
C10_4 C 0.8899(3) 0.55706(13) 0.6063(2)
H7_4 H 0.9501 0.5444 0.6321
H8_4 H 0.8483 0.5600 0.6430
C11_4 C 0.9752(3) 0.46607(15) 0.5873(2)
C12_4 C 0.8815(3) 0.40100(13) 0.4714(2)
H11_4 H 0.9499 0.4017 0.4767
H12_4 H 0.8548 0.3868 0.4229
C13_4 C 0.7278(3) 0.39820(14) 0.2472(2)
C14_4 C 0.6493(3) 0.37001(16) 0.2456(3)
H13_4 H 0.6131 0.3724 0.2835
C15_4 C 0.6254(3) 0.33818(16) 0.1868(3)
H14_4 H 0.5725 0.3192 0.1854
C16_4 C 0.6783(3) 0.33390(15) 0.1299(3)
H15_4 H 0.6618 0.3118 0.0914
C17_4 C 0.7559(3) 0.36277(13) 0.1308(2)
C18_4 C 0.7808(3) 0.39498(14) 0.1900(2)
H16_4 H 0.8332 0.4144 0.1911
C19_4 C 0.8124(3) 0.35883(13) 0.0689(2)
C20_4 C 0.4744(3) 0.53376(15) 0.3664(2)
C21_4 C 0.3999(3) 0.52954(19) 0.4041(3)
H17_4 H 0.4073 0.5134 0.4501
C22_4 C 0.3133(3) 0.5497(2) 0.3728(3)
H18_4 H 0.2629 0.5477 0.3987
C23_4 C 0.3014(3) 0.57244(18) 0.3042(3)
H19_4 H 0.2432 0.5857 0.2836
C24_4 C 0.3750(3) 0.57563(14) 0.2660(2)
C25_4 C 0.4620(3) 0.55630(14) 0.2975(2)
H20_2 H 0.5123 0.5586 0.2717
C26_4 C 0.3618(3) 0.59879(14) 0.1892(2)
C27_2 C 0.6949(3) 0.65858(13) 0.4311(2)
C28_2 C 0.7039(3) 0.68204(15) 0.3652(3)
H21_2 H 0.7369 0.6684 0.3306
C29_2 C 0.6638(4) 0.72583(16) 0.3511(3)
H22_2 H 0.6688 0.7415 0.3064
C30_2 C 0.6164(3) 0.74657(15) 0.4026(3)
H23_2 H 0.5894 0.7762 0.3926
C31_2 C 0.6088(3) 0.72368(13) 0.4687(2)
C32_2 C 0.6459(3) 0.67904(13) 0.4832(2)
H24_4 H 0.6384 0.6630 0.5270
C33_4 C 0.9249(3) 0.63987(13) 0.6230(2)
C34_4 C 0.8800(3) 0.68176(14) 0.5995(2)
H25_4 H 0.8316 0.6823 0.5570
C35_4 C 0.9068(3) 0.72288(14) 0.6390(2)
C36_4 C 0.9757(3) 0.72086(16) 0.7032(3)
H26_4 H 0.9945 0.7482 0.7304
C38_4 C 0.9921(3) 0.63804(15) 0.6880(3)
C39_4 C 0.8558(3) 0.76847(15) 0.6138(2)
C40_4 C 0.9675(3) 0.30046(14) 0.6856(3)
C41_4 C 0.9062(3) 0.33172(14) 0.6429(3)
H29_4 H 0.8581 0.3456 0.6636
C42_4 C 0.9159(3) 0.34258(14) 0.5693(3)
C43_4 C 0.9865(4) 0.32119(17) 0.5384(3)
H30_4 H 0.9922 0.3276 0.4884
C46_4 C 0.9522(3) 0.28936(15) 0.7632(3)
C48_4 C 0.9993(3) 0.41871(13) 0.7788(2)
H33_4 H 0.9368 0.4209 0.7856
C54_4 C 0.5609(3) 0.74743(14) 0.5270(3)
C68_2 C 0.7428(5) 0.5058(2) 0.0314(4)
H46_2 H 0.7935 0.5255 0.0283
C69_2 C 0.6778(5) 0.5185(2) 0.0733(4)
H47_2 H 0.6834 0.5471 0.0989
C70_4 C 0.6033(4) 0.48893(18) 0.0780(3)
C71_4 C 0.5986(3) 0.44614(15) 0.0378(2)
C72_4 C 0.5241(3) 0.41337(16) 0.0410(3)
C73_2 C 0.4545(4) 0.4248(2) 0.0841(3)
C74_2 C 0.4606(5) 0.4683(3) 0.1234(4)
H48_2 H 0.4148 0.4756 0.1522
C75_4 C 0.5286(5) 0.4985(2) 0.1206(3)
H49_2 H 0.5292 0.5268 0.1466
C76_2 C 0.4549(4) 0.3431(2) 0.0041(3)
C77_2 C 0.3830(5) 0.3514(3) 0.0448(5)
H51_2 H 0.3353 0.3292 0.0449
C78_2 C 0.3833(5) 0.3920(3) 0.0841(5)
H52_2 H 0.3353 0.3980 0.1113
O1_2 O 0.55779(18) 0.51391(10) 0.40258(16)
O2_2 O 0.7397(2) 0.61588(9) 0.44111(17)
O3_4 O 0.9036(2) 0.60192(9) 0.57385(16)
O4_4 O 0.95217(17) 0.45358(10) 0.65928(15)
O5_4 O 0.8544(2) 0.37524(10) 0.53236(18)
O6_4 O 0.7601(2) 0.43044(10) 0.30340(16)
O9_2 O 0.96055(18) 0.38927(9) 0.92321(15)
O11_4 O 0.8911(2) 0.30858(11) 0.79012(18)
H53_4 H 0.9948 0.2522 0.8404
O13_4 O 0.5445(2) 0.72291(10) 0.58184(19)
O15_4 O 0.90083(18) 0.36508(9) 0.08763(15)
N4_4 N 0.5239(2) 0.37314(13) 0.0016(2)
C67_4 C 0.7336(4) 0.46259(17) 0.9927(3)
H45_4 H 0.7789 0.4544 0.9640
H50_2 H 0.4542 0.3151 0.9773
N3_4 N 0.6638(2) 0.43349(12) 0.9953(2)
C2_3 C 0.2247(2) 0.99111(13) 0.9313(2)
C3_3 C 0.2652(3) 0.96118(13) 0.9909(2)
C8_3 C 0.1411(3) 0.97424(15) 0.8739(2)
H3_3 H 0.1403 0.9894 0.8252
H4_3 H 0.1447 0.9405 0.8671
C9_3 C 0.2157(3) 0.91462(13) 0.9987(2)
H6_3 H 0.1477 0.9191 0.9912
H20_3 H 0.0123 0.9414 0.7717
C27_3 C 0.1949(3) 0.84142(13) 0.9311(2)
C28_3 C 0.2039(3) 0.81796(15) 0.8652(3)
H21_3 H 0.2369 0.8316 0.8306
C29_3 C 0.1638(4) 0.77417(16) 0.8511(3)
H22_3 H 0.1688 0.7585 0.8064
C30_3 C 0.1164(3) 0.75343(15) 0.9026(3)
H23_3 H 0.0894 0.7238 0.8926
C31_3 C 0.1088(3) 0.77632(13) 0.9687(2)
C32_3 C 0.1459(3) 0.82096(13) 0.9832(2)
H42_3 H 0.7030 0.9931 0.7086
H43_3 H 0.5799 0.9766 0.6124
C68_3 C 0.2428(5) 0.9942(2) 0.5314(4)
H46_3 H 0.2935 0.9745 0.5283
C69_3 C 0.1778(5) 0.9815(2) 0.5733(4)
H47_3 H 0.1834 0.9529 0.5989
H49_3 H 0.0292 0.9732 0.6466
O1_3 O 0.05779(18) 0.98609(10) 0.90258(16)
O2_3 O 0.2397(2) 0.88412(9) 0.94111(17)
C73_3 C 0.9545(4) 0.0752(2) 0.5841(3)
C74_3 C 0.9606(5) 0.0317(3) 0.6234(4)
H48_3 H 0.9148 0.0244 0.6522
C76_3 C 0.9549(4) 0.1569(2) 0.5041(3)
H50_3 H 0.9542 0.1849 0.4773
C77_3 C 0.8830(5) 0.1486(3) 0.5448(5)
H51_3 H 0.8353 0.1708 0.5449
C78_3 C 0.8833(5) 0.1080(3) 0.5841(5)
H52_3 H 0.8353 0.1020 0.6113
C73_4 C 0.0455(4) 0.9248(2) 0.4159(3)
C74_4 C 0.0394(5) 0.9683(3) 0.3766(4)
H48_4 H 0.0852 0.9756 0.3478
C76_4 C 0.0451(4) 0.8431(2) 0.4959(3)
H50_4 H 0.0458 0.8151 0.5227
C77_4 C 0.1170(5) 0.8514(3) 0.4552(5)
H51_4 H 0.1647 0.8292 0.4551
C78_4 C 0.1167(5) 0.8920(3) 0.4159(5)
H52_4 H 0.1647 0.8980 0.3887
C2_4 C 0.7753(2) 0.00889(13) 0.0687(2)
C3_4 C 0.7348(3) 0.03882(13) 0.0091(2)
C8_4 C 0.8589(3) 0.02576(15) 0.1261(2)
H3_4 H 0.8597 0.0106 0.1748
H4_4 H 0.8553 0.0595 0.1329
C9_4 C 0.7843(3) 0.08538(13) 0.0013(2)
H6_4 H 0.8523 0.0809 0.0088
H20_4 H 0.9877 0.0586 0.2283
C27_4 C 0.8051(3) 0.15858(13) 0.0689(2)
C28_4 C 0.7961(3) 0.18204(15) 0.1348(3)
H21_4 H 0.7631 0.1684 0.1694
C29_4 C 0.8362(4) 0.22583(16) 0.1489(3)
H22_4 H 0.8312 0.2415 0.1936
C30_4 C 0.8836(3) 0.24657(15) 0.0974(3)
H23_4 H 0.9106 0.2762 0.1074
C31_4 C 0.8912(3) 0.22368(13) 0.0313(2)
C32_4 C 0.8541(3) 0.17904(13) 0.0168(2)
H42_4 H 0.2970 0.0069 0.2914
H43_4 H 0.4201 0.0234 0.3876
C68_4 C 0.7572(5) 0.0058(2) 0.4686(4)
H46_4 H 0.7065 0.0255 0.4717
C69_4 C 0.8222(5) 0.0185(2) 0.4267(4)
H47_4 H 0.8166 0.0471 0.4011
H49_4 H 0.9708 0.0268 0.3534
O1_4 O 0.94221(18) 0.01391(10) 0.09742(16)
O2_4 O 0.7603(2) 0.11588(9) 0.05889(17)
loop_
_geom_bond_atom_site_label_1
_geom_bond_atom_site_label_2
_geom_bond_site_symmetry_1
_geom_bond_site_symmetry_2
Na1 O9 1_555 1_555
C11 C5 1_555 1_555
H9 C11 1_555 1_555
H10 C11 1_555 1_555
C40 C41 1_555 1_555
C41 H29 1_555 1_555
C42 C41 1_555 1_555
C43 C42 1_555 1_555
C44 C43 1_555 1_555
H31 C44 1_555 1_555
C45 C40 1_555 1_555
H32 C45 1_555 1_555
C46 C40 1_555 1_555
C47 C48 1_555 1_555
C48 H33 1_555 1_555
C49 C48 1_555 1_555
C50 C49 1_555 1_555
H34 C50 1_555 1_555
C51 C50 1_555 1_555
H35 C51 1_555 1_555
C52 C47 1_555 1_555
H36 C52 1_555 1_555
C53 C47 1_555 1_555
O4 C11 1_555 1_555
O9 C53 1_555 1_555
O10 C53 1_555 1_555
O11 Na1 1_555 1_555
O12 C46 1_555 1_555
H53 O12 1_555 1_555
Co5 O9 1_555 1_555
O21 Na1 1_555 1_555
O25 Na1 1_555 1_555
O26 Na1 1_555 1_555
O27 Na1 1_555 1_555
C42 O5 1_555 1_555
C44 C45 1_555 1_555
C46 O11 1_555 1_555
C49 O4 1_555 1_555
C51 C52 1_555 1_555
O10 Co5 1_555 1_555
Co5 O25 1_555 1_555
Co1 O26 1_555 1_555
Co5 O15 1_555 1_555
C6 C1 1_555 1_555
C7 C1 1_555 1_555
H1 C7 1_555 1_555
H2 C7 1_555 1_555
C12 C6 1_555 1_555
H11 C12 1_555 1_555
H12 C12 1_555 1_555
C13 C14 1_555 1_555
C14 H13 1_555 1_555
C15 C14 1_555 1_555
H14 C15 1_555 1_555
C16 C15 1_555 1_555
H15 C16 1_555 1_555
C17 C16 1_555 1_555
C18 C13 1_555 1_555
H16 C18 1_555 1_555
C19 C17 1_555 1_555
C55 H37 1_555 1_555
C56 C55 1_555 1_555
H38 C56 1_555 1_555
C57 C56 1_555 1_555
H39 C57 1_555 1_555
C58 C57 1_555 1_555
C59 C58 1_555 1_555
C60 C59 1_555 1_555
C61 C60 1_555 1_555
C62 C61 1_555 1_555
H40 C62 1_555 1_555
C63 C58 1_555 1_555
H41 C63 1_555 1_555
C64 C61 1_555 1_555
C65 C64 1_555 1_555
C66 C65 1_555 1_555
H44 C66 1_555 1_555
C67 H45 1_555 1_555
C71 C70 1_555 1_555
C72 C71 1_555 1_555
C75 C70 1_555 1_555
O6 C7 1_555 1_555
O15 C19 1_555 1_555
O26 C19 1_555 1_555
N1 Co5 1_555 1_555
N2 Co5 1_555 1_555
N3 Co1 1_555 1_555
N4 Co1 1_555 1_555
O19 Co1 1_555 1_555
O21 Co1 1_555 1_555
O28 Co1 1_555 1_555
C13 O6 1_555 1_555
C17 C18 1_555 1_555
C55 N2 1_555 1_555
C59 N2 1_555 1_555
C60 N1 1_555 1_555
C62 C63 1_555 1_555
C66 N1 1_555 1_555
C67 N3 1_555 1_555
C71 N3 1_555 1_555
C72 N4 1_555 1_555
C10 C4 1_555 1_555
H7 C10 1_555 1_555
H8 C10 1_555 1_555
C33 C34 1_555 1_555
C34 H25 1_555 1_555
C35 C34 1_555 1_555
C36 C35 1_555 1_555
H26 C36 1_555 1_555
C37 C36 1_555 1_555
H27 C37 1_555 1_555
C38 C33 1_555 1_555
H28 C38 1_555 1_555
C39 C35 1_555 1_555
O3 C10 1_555 1_555
O13 C54 1_555 1_555
O14 C54 1_555 1_555
O17 C39 1_555 1_555
O18 C39 1_555 1_555
Co3 O18 1_555 1_555
Na3 O14 1_555 1_555
C33 O3 1_555 1_555
C37 C38 1_555 1_555
O17 Na3 1_555 1_555
C20 C21 1_555 1_555
C21 H17 1_555 1_555
C22 C21 1_555 1_555
H18 C22 1_555 1_555
C23 C22 1_555 1_555
H19 C23 1_555 1_555
C24 C23 1_555 1_555
C25 C20 1_555 1_555
C26 C24 1_555 1_555
O7 C26 1_555 1_555
O8 C26 1_555 1_555
Co4 O7 1_555 1_555
Na4 O8 1_555 1_555
C24 C25 1_555 1_555
O8 Co4 1_555 1_555
C67_2 H45_2 1_555 1_555
N3_2 Co3 1_555 1_555
O19_2 Co3 1_555 1_555
O20 Co3 1_555 1_555
C67_2 N3_2 1_555 1_555
Na3 O20 1_555 1_555
Na3 O22 1_555 1_555
C1_2 C2 1_555 1_555
C2 C3 1_555 1_555
C3 C4_2 1_555 1_555
C4_2 C5_2 1_555 1_555
C5_2 C6_2 1_555 1_555
C6_2 C1_2 1_555 1_555
C7_2 C1_2 1_555 1_555
H1_2 C7_2 1_555 1_555
H2_2 C7_2 1_555 1_555
C8 C2 1_555 1_555
H3 C8 1_555 1_555
H4 C8 1_555 1_555
C9 C3 1_555 1_555
H5_2 C9 1_555 1_555
H6 C9 1_555 1_555
C10_2 C4_2 1_555 1_555
H7_2 C10_2 1_555 1_555
H8_2 C10_2 1_555 1_555
C11_2 C5_2 1_555 1_555
C12_2 C6_2 1_555 1_555
H11_2 C12_2 1_555 1_555
H12_2 C12_2 1_555 1_555
C13_2 C14_2 1_555 1_555
C14_2 H13_2 1_555 1_555
C15_2 C14_2 1_555 1_555
H14_2 C15_2 1_555 1_555
C16_2 C15_2 1_555 1_555
H15_2 C16_2 1_555 1_555
C17_2 C16_2 1_555 1_555
C18_2 C13_2 1_555 1_555
H16_2 C18_2 1_555 1_555
C19_2 C17_2 1_555 1_555
C20_2 C21_2 1_555 1_555
C21_2 H17_2 1_555 1_555
C22_2 C21_2 1_555 1_555
H18_2 C22_2 1_555 1_555
C23_2 C22_2 1_555 1_555
H19_2 C23_2 1_555 1_555
C24_2 C23_2 1_555 1_555
C25_2 C20_2 1_555 1_555
H20 C25_2 1_555 1_555
C26_2 C24_2 1_555 1_555
C27 C28 1_555 1_555
C28 H21 1_555 1_555
C29 C28 1_555 1_555
H22 C29 1_555 1_555
C30 C29 1_555 1_555
H23 C30 1_555 1_555
C31 C30 1_555 1_555
C32 C27 1_555 1_555
H24_2 C32 1_555 1_555
C33_2 C34_2 1_555 1_555
C34_2 H25_2 1_555 1_555
C35_2 C34_2 1_555 1_555
C36_2 C35_2 1_555 1_555
H26_2 C36_2 1_555 1_555
C38_2 C33_2 1_555 1_555
C39_2 C35_2 1_555 1_555
C40_2 C41_2 1_555 1_555
C41_2 H29_2 1_555 1_555
C42_2 C41_2 1_555 1_555
C43_2 C42_2 1_555 1_555
H30_2 C43_2 1_555 1_555
C46_2 C40_2 1_555 1_555
C48_2 H33_2 1_555 1_555
C54_2 C31 1_555 1_555
H46 C68 1_555 1_555
C69 C68 1_555 1_555
H47 C69 1_555 1_555
C70_2 C69 1_555 1_555
C71_2 C70_2 1_555 1_555
C72_2 C71_2 1_555 1_555
C73 C72_2 1_555 1_555
C74 C73 1_555 1_555
H48 C74 1_555 1_555
C75_2 C70_2 1_555 1_555
H49 C75_2 1_555 1_555
C77 C76 1_555 1_555
H51 C77 1_555 1_555
C78 C73 1_555 1_555
H52 C78 1_555 1_555
O1 C8 1_555 1_555
O2 C9 1_555 1_555
O3_2 C10_2 1_555 1_555
O4_2 C11_2 1_555 1_555
O5_2 C12_2 1_555 1_555
O6_2 C7_2 1_555 1_555
O7_2 C26_2 1_555 1_555
O8_2 C26_2 1_555 1_555
O11_2 Na3 1_555 1_555
O13_2 C54_2 1_555 1_555
O25 C54_2 1_555 1_555
O15_2 C19_2 1_555 1_555
O16 C19_2 1_555 1_555
O27 C39_2 1_555 1_555
O28 C39_2 1_555 1_555
Co4_2 O7_2 1_555 1_555
Na4_2 O8_2 1_555 1_555
C13_2 O6_2 1_555 1_555
C17_2 C18_2 1_555 1_555
C20_2 O1 1_555 1_555
C24_2 C25_2 1_555 1_555
C27 O2 1_555 1_555
C31 C32 1_555 1_555
C33_2 O3_2 1_555 1_555
C42_2 O5_2 1_555 1_555
C46_2 O11_2 1_555 1_555
C72_2 N4_2 1_555 1_555
C74 C75_2 1_555 1_555
C76 N4_2 1_555 1_555
C77 C78 1_555 1_555
O8_2 Co4_2 1_555 1_555
H27_2 C37_2 1_555 1_555
H31_2 C44_2 1_555 1_555
H32_2 C45_2 1_555 1_555
C50_2 C49_2 1_555 1_555
H34_2 C50_2 1_555 1_555
C51_2 C50_2 1_555 1_555
H35_2 C51_2 1_555 1_555
C52_2 C47_2 1_555 1_555
H36_2 C52_2 1_555 1_555
C53_2 C47_2 1_555 1_555
C55_2 H37_2 1_555 1_555
C56_2 C55_2 1_555 1_555
H38_2 C56_2 1_555 1_555
C57_2 C56_2 1_555 1_555
H39_2 C57_2 1_555 1_555
C58_2 C57_2 1_555 1_555
C59_2 C58_2 1_555 1_555
C60_2 C59_2 1_555 1_555
C61_2 C60_2 1_555 1_555
C62_2 C61_2 1_555 1_555
H40_2 C62_2 1_555 1_555
C63_2 C58_2 1_555 1_555
H41_2 C63_2 1_555 1_555
C64_2 C61_2 1_555 1_555
H42 C64_2 1_555 1_555
C65_2 C64_2 1_555 1_555
H43 C65_2 1_555 1_555
C66_2 C65_2 1_555 1_555
H44_2 C66_2 1_555 1_555
O23 C53_2 1_555 1_555
N1_2 Co6 1_555 1_555
N2_2 Co6 1_555 1_555
C44_2 C45_2 1_555 1_555
C51_2 C52_2 1_555 1_555
C55_2 N2_2 1_555 1_555
C59_2 N2_2 1_555 1_555
C60_2 N1_2 1_555 1_555
C62_2 C63_2 1_555 1_555
C66_2 N1_2 1_555 1_555
C20_3 C21_3 1_555 1_555
C21_3 H17_3 1_555 1_555
C22_3 C21_3 1_555 1_555
H18_3 C22_3 1_555 1_555
C23_3 C22_3 1_555 1_555
H19_3 C23_3 1_555 1_555
C24_3 C23_3 1_555 1_555
C25_3 C20_3 1_555 1_555
C26_3 C24_3 1_555 1_555
O19 C26_3 1_555 1_555
O21 C26_3 1_555 1_555
C24_3 C25_3 1_555 1_555
C10_3 C4_3 1_555 1_555
H7_3 C10_3 1_555 1_555
H8_3 C10_3 1_555 1_555
C33_3 C34_3 1_555 1_555
C34_3 H25_3 1_555 1_555
C35_3 C34_3 1_555 1_555
C36_3 C35_3 1_555 1_555
H26_3 C36_3 1_555 1_555
C37_3 C36_3 1_555 1_555
H27_3 C37_3 1_555 1_555
C38_3 C33_3 1_555 1_555
H28_3 C38_3 1_555 1_555
C39_3 C35_3 1_555 1_555
O3_3 C10_3 1_555 1_555
O13_3 C54_3 1_555 1_555
O14_2 C54_3 1_555 1_555
O17_2 C39_3 1_555 1_555
O18_2 C39_3 1_555 1_555
Co4_2 O18_2 1_555 1_555
Na4_2 O14_2 1_555 1_555
C33_3 O3_3 1_555 1_555
C37_3 C38_3 1_555 1_555
O17_2 Na4_2 1_555 1_555
Co4 O16_2 1_555 1_555
Co2 O15_3 1_555 1_555
C6_3 C1_3 1_555 1_555
C7_3 C1_3 1_555 1_555
H1_3 C7_3 1_555 1_555
H2_3 C7_3 1_555 1_555
C12_3 C6_3 1_555 1_555
H11_3 C12_3 1_555 1_555
H12_3 C12_3 1_555 1_555
C13_3 C14_3 1_555 1_555
C14_3 H13_3 1_555 1_555
C15_3 C14_3 1_555 1_555
H14_3 C15_3 1_555 1_555
C16_3 C15_3 1_555 1_555
H15_3 C16_3 1_555 1_555
C17_3 C16_3 1_555 1_555
C18_3 C13_3 1_555 1_555
H16_3 C18_3 1_555 1_555
C19_3 C17_3 1_555 1_555
C55_3 H37_3 1_555 1_555
C56_3 C55_3 1_555 1_555
H38_3 C56_3 1_555 1_555
C57_3 C56_3 1_555 1_555
H39_3 C57_3 1_555 1_555
C58_3 C57_3 1_555 1_555
C59_3 C58_3 1_555 1_555
C60_3 C59_3 1_555 1_555
C61_3 C60_3 1_555 1_555
C62_3 C61_3 1_555 1_555
H40_3 C62_3 1_555 1_555
C63_3 C58_3 1_555 1_555
H41_3 C63_3 1_555 1_555
C64_3 C61_3 1_555 1_555
C65_3 C64_3 1_555 1_555
C66_3 C65_3 1_555 1_555
H44_3 C66_3 1_555 1_555
C67_3 H45_3 1_555 1_555
C71_3 C70_3 1_555 1_555
C72_3 C71_3 1_555 1_555
C75_3 C70_3 1_555 1_555
O6_3 C7_3 1_555 1_555
O15_3 C19_3 1_555 1_555
O16_2 C19_3 1_555 1_555
N1_3 Co2 1_555 1_555
N2_3 Co2 1_555 1_555
N3_3 Co4 1_555 1_555
N4_3 Co4 1_555 1_555
Na4 O16_2 1_555 1_555
O22_2 Co2 1_555 1_555
O23_2 Co2 1_555 1_555
O24 Co2 1_555 1_555
O28_2 Co4 1_555 1_555
C13_3 O6_3 1_555 1_555
C17_3 C18_3 1_555 1_555
C55_3 N2_3 1_555 1_555
C59_3 N2_3 1_555 1_555
C60_3 N1_3 1_555 1_555
C62_3 C63_3 1_555 1_555
C66_3 N1_3 1_555 1_555
C67_3 N3_3 1_555 1_555
C71_3 N3_3 1_555 1_555
C72_3 N4_3 1_555 1_555
Na4 O22_2 1_555 1_555
Na4 O24 1_555 1_555
C11_3 C5_3 1_555 1_555
H9_3 C11_3 1_555 1_555
H10_3 C11_3 1_555 1_555
C40_3 C41_3 1_555 1_555
C41_3 H29_3 1_555 1_555
C42_3 C41_3 1_555 1_555
C43_3 C42_3 1_555 1_555
C44_3 C43_3 1_555 1_555
H31_3 C44_3 1_555 1_555
C45_3 C40_3 1_555 1_555
H32_3 C45_3 1_555 1_555
C46_3 C40_3 1_555 1_555
C47_3 C48_3 1_555 1_555
C48_3 H33_3 1_555 1_555
C49_3 C48_3 1_555 1_555
C50_3 C49_3 1_555 1_555
H34_3 C50_3 1_555 1_555
C51_3 C50_3 1_555 1_555
H35_3 C51_3 1_555 1_555
C52_3 C47_3 1_555 1_555
H36_3 C52_3 1_555 1_555
C53_3 C47_3 1_555 1_555
O4_3 C11_3 1_555 1_555
O22_2 C53_3 1_555 1_555
O23_2 C53_3 1_555 1_555
O11_3 Na4 1_555 1_555
O12_3 C46_3 1_555 1_555
H53_3 O12_3 1_555 1_555
O27_2 Na4 1_555 1_555
C42_3 O5_3 1_555 1_555
C44_3 C45_3 1_555 1_555
C46_3 O11_3 1_555 1_555
C49_3 O4_3 1_555 1_555
C51_3 C52_3 1_555 1_555
H27_4 C37_4 1_555 1_555
H31_4 C44_4 1_555 1_555
H32_4 C45_4 1_555 1_555
C50_4 C49_4 1_555 1_555
H34_4 C50_4 1_555 1_555
C51_4 C50_4 1_555 1_555
H35_4 C51_4 1_555 1_555
C52_4 C47_4 1_555 1_555
H36_4 C52_4 1_555 1_555
C53_4 C47_4 1_555 1_555
C55_4 H37_4 1_555 1_555
C56_4 C55_4 1_555 1_555
H38_4 C56_4 1_555 1_555
C57_4 C56_4 1_555 1_555
H39_4 C57_4 1_555 1_555
C58_4 C57_4 1_555 1_555
C59_4 C58_4 1_555 1_555
C60_4 C59_4 1_555 1_555
C61_4 C60_4 1_555 1_555
C62_4 C61_4 1_555 1_555
H40_4 C62_4 1_555 1_555
C63_4 C58_4 1_555 1_555
H41_4 C63_4 1_555 1_555
C64_4 C61_4 1_555 1_555
H42_2 C64_4 1_555 1_555
C65_4 C64_4 1_555 1_555
H43_2 C65_4 1_555 1_555
C66_4 C65_4 1_555 1_555
H44_4 C66_4 1_555 1_555
O10_2 C53_4 1_555 1_555
N1_4 Co6_2 1_555 1_555
N2_4 Co6_2 1_555 1_555
C44_4 C45_4 1_555 1_555
C51_4 C52_4 1_555 1_555
C55_4 N2_4 1_555 1_555
C59_4 N2_4 1_555 1_555
C60_4 N1_4 1_555 1_555
C62_4 C63_4 1_555 1_555
C66_4 N1_4 1_555 1_555
Na4_2 O9_2 1_555 1_555
C1_4 C2_2 1_555 1_555
C2_2 C3_2 1_555 1_555
C3_2 C4_4 1_555 1_555
C4_4 C5_4 1_555 1_555
C5_4 C6_4 1_555 1_555
C6_4 C1_4 1_555 1_555
C7_4 C1_4 1_555 1_555
H1_4 C7_4 1_555 1_555
H2_4 C7_4 1_555 1_555
C8_2 C2_2 1_555 1_555
H3_2 C8_2 1_555 1_555
H4_2 C8_2 1_555 1_555
C9_2 C3_2 1_555 1_555
H5_4 C9_2 1_555 1_555
H6_2 C9_2 1_555 1_555
C10_4 C4_4 1_555 1_555
H7_4 C10_4 1_555 1_555
H8_4 C10_4 1_555 1_555
C11_4 C5_4 1_555 1_555
C12_4 C6_4 1_555 1_555
H11_4 C12_4 1_555 1_555
H12_4 C12_4 1_555 1_555
C13_4 C14_4 1_555 1_555
C14_4 H13_4 1_555 1_555
C15_4 C14_4 1_555 1_555
H14_4 C15_4 1_555 1_555
C16_4 C15_4 1_555 1_555
H15_4 C16_4 1_555 1_555
C17_4 C16_4 1_555 1_555
C18_4 C13_4 1_555 1_555
H16_4 C18_4 1_555 1_555
C19_4 C17_4 1_555 1_555
C20_4 C21_4 1_555 1_555
C21_4 H17_4 1_555 1_555
C22_4 C21_4 1_555 1_555
H18_4 C22_4 1_555 1_555
C23_4 C22_4 1_555 1_555
H19_4 C23_4 1_555 1_555
C24_4 C23_4 1_555 1_555
C25_4 C20_4 1_555 1_555
H20_2 C25_4 1_555 1_555
C26_4 C24_4 1_555 1_555
C27_2 C28_2 1_555 1_555
C28_2 H21_2 1_555 1_555
C29_2 C28_2 1_555 1_555
H22_2 C29_2 1_555 1_555
C30_2 C29_2 1_555 1_555
H23_2 C30_2 1_555 1_555
C31_2 C30_2 1_555 1_555
C32_2 C27_2 1_555 1_555
H24_4 C32_2 1_555 1_555
C33_4 C34_4 1_555 1_555
C34_4 H25_4 1_555 1_555
C35_4 C34_4 1_555 1_555
C36_4 C35_4 1_555 1_555
H26_4 C36_4 1_555 1_555
C38_4 C33_4 1_555 1_555
C39_4 C35_4 1_555 1_555
C40_4 C41_4 1_555 1_555
C41_4 H29_4 1_555 1_555
C42_4 C41_4 1_555 1_555
C43_4 C42_4 1_555 1_555
H30_4 C43_4 1_555 1_555
C46_4 C40_4 1_555 1_555
C48_4 H33_4 1_555 1_555
C54_4 C31_2 1_555 1_555
H46_2 C68_2 1_555 1_555
C69_2 C68_2 1_555 1_555
H47_2 C69_2 1_555 1_555
C70_4 C69_2 1_555 1_555
C71_4 C70_4 1_555 1_555
C72_4 C71_4 1_555 1_555
C73_2 C72_4 1_555 1_555
C74_2 C73_2 1_555 1_555
H48_2 C74_2 1_555 1_555
C75_4 C70_4 1_555 1_555
H49_2 C75_4 1_555 1_555
C77_2 C76_2 1_555 1_555
H51_2 C77_2 1_555 1_555
C78_2 C73_2 1_555 1_555
H52_2 C78_2 1_555 1_555
O1_2 C8_2 1_555 1_555
O2_2 C9_2 1_555 1_555
O3_4 C10_4 1_555 1_555
O4_4 C11_4 1_555 1_555
O5_4 C12_4 1_555 1_555
O6_4 C7_4 1_555 1_555
O19_2 C26_4 1_555 1_555
O20 C26_4 1_555 1_555
O11_4 Na4_2 1_555 1_555
O13_4 C54_4 1_555 1_555
O24 C54_4 1_555 1_555
O15_4 C19_4 1_555 1_555
O26_2 C19_4 1_555 1_555
O27_2 C39_4 1_555 1_555
O28_2 C39_4 1_555 1_555
C13_4 O6_4 1_555 1_555
C17_4 C18_4 1_555 1_555
C20_4 O1_2 1_555 1_555
C24_4 C25_4 1_555 1_555
C27_2 O2_2 1_555 1_555
C31_2 C32_2 1_555 1_555
C33_4 O3_4 1_555 1_555
C42_4 O5_4 1_555 1_555
C46_4 O11_4 1_555 1_555
C72_4 N4_4 1_555 1_555
C74_2 C75_4 1_555 1_555
C76_2 N4_4 1_555 1_555
C77_2 C78_2 1_555 1_555
C67_4 H45_4 1_555 1_555
N3_4 Co4_2 1_555 1_555
C67_4 N3_4 1_555 1_555
C2_3 C3_3 1_555 1_555
C8_3 C2_3 1_555 1_555
H3_3 C8_3 1_555 1_555
H4_3 C8_3 1_555 1_555
C9_3 C3_3 1_555 1_555
H6_3 C9_3 1_555 1_555
C27_3 C28_3 1_555 1_555
C28_3 H21_3 1_555 1_555
C29_3 C28_3 1_555 1_555
H22_3 C29_3 1_555 1_555
C30_3 C29_3 1_555 1_555
H23_3 C30_3 1_555 1_555
C31_3 C30_3 1_555 1_555
C32_3 C27_3 1_555 1_555
H46_3 C68_3 1_555 1_555
C69_3 C68_3 1_555 1_555
H47_3 C69_3 1_555 1_555
O1_3 C8_3 1_555 1_555
O2_3 C9_3 1_555 1_555
C27_3 O2_3 1_555 1_555
C31_3 C32_3 1_555 1_555
C74_3 C73_3 1_555 1_555
H48_3 C74_3 1_555 1_555
C76_3 H50_3 1_555 1_555
C77_3 C76_3 1_555 1_555
H51_3 C77_3 1_555 1_555
C78_3 C73_3 1_555 1_555
H52_3 C78_3 1_555 1_555
C77_3 C78_3 1_555 1_555
C74_4 C73_4 1_555 1_555
H48_4 C74_4 1_555 1_555
C76_4 H50_4 1_555 1_555
C77_4 C76_4 1_555 1_555
H51_4 C77_4 1_555 1_555
C78_4 C73_4 1_555 1_555
H52_4 C78_4 1_555 1_555
C77_4 C78_4 1_555 1_555
C2_4 C3_4 1_555 1_555
C8_4 C2_4 1_555 1_555
H3_4 C8_4 1_555 1_555
H4_4 C8_4 1_555 1_555
C9_4 C3_4 1_555 1_555
H6_4 C9_4 1_555 1_555
C27_4 C28_4 1_555 1_555
C28_4 H21_4 1_555 1_555
C29_4 C28_4 1_555 1_555
H22_4 C29_4 1_555 1_555
C30_4 C29_4 1_555 1_555
H23_4 C30_4 1_555 1_555
C31_4 C30_4 1_555 1_555
C32_4 C27_4 1_555 1_555
H46_4 C68_4 1_555 1_555
C69_4 C68_4 1_555 1_555
H47_4 C69_4 1_555 1_555
O1_4 C8_4 1_555 1_555
O2_4 C9_4 1_555 1_555
C27_4 O2_4 1_555 1_555
C31_4 C32_4 1_555 1_555

#END
