
###############################################################################
#
# This file contains modified crystal structure data generated from the
# MOF subset of the Cambridge Structural Database (CSD) v543 
# hosted by the Cambridge Crystallographic Data Centre (CCDC).
#
# This work is licensed under the Creative Commons
# Attribution-NonCommercial-ShareAlike 4.0 International License.
# To view a copy of this license, visit
# http://creativecommons.org/licenses/by-nc-sa/4.0/
# or send a letter to
# Creative Commons, PO Box 1866, Mountain View, CA 94042, USA.
#
# CIF created using the CSD Python API on 29 September 2022
# The structure has been converted into the P1 space group
# The structure has a 3D framework
# The original CSD entry FUFVAF is in the triclinic crystal system
# The framework has been calculated to contain at least 10.0% void space
# The void calculation uses a probe of radius 1.32A, grid spacing 0.4
#
###############################################################################

data_FUFVAF
_chemical_formula_moiety         '(C64 H44 Co5 N2 O13)n'
_symmetry_cell_setting           triclinic
_symmetry_space_group_name_H-M   'P 1'
_symmetry_Int_Tables_number      1
_space_group_name_Hall           'P 1'
loop_
_symmetry_equiv_pos_site_id
_symmetry_equiv_pos_as_xyz
1 x,y,z
_cell_length_a                   10.6720(7)
_cell_length_b                   12.3940(7)
_cell_length_c                   12.5010(7)
_cell_angle_alpha                75.378(5)
_cell_angle_beta                 73.453(5)
_cell_angle_gamma                87.968(5)
_cell_volume                     1532.5
loop_
_atom_site_label
_atom_site_type_symbol
_atom_site_fract_x
_atom_site_fract_y
_atom_site_fract_z
Co6 Co 0.0000 -0.0000 0.0000
C41 C 0.0236(5) 0.0218(4) 0.7444(4)
O14 O 0.1456(3) 0.0257(3) 0.6965(3)
Co6_2 Co -0.0000 -0.0000 1.0000
Co11 Co 0.25243(6) 0.10248(5) 0.76137(6)
O10 O 0.3932(3) 0.0054(3) 0.8094(3)
Co6_3 Co 0.0000 1.0000 0.0000
O29 O 0.0421(3) 0.1579(3) 0.0058(3)
C10 C 0.0657(5) 0.0239(3) 0.3052(4)
C12 C 0.2744(5) 0.0338(4) 0.3352(5)
H8 H 0.3599 0.0105 0.3242
C13 C 0.2294(5) 0.1060(4) 0.4030(5)
H9 H 0.2848 0.1331 0.4365
C14 C 0.1011(5) 0.1387(3) 0.4218(4)
C15 C 0.0178(5) 0.0952(3) 0.3767(4)
O6 O 0.0671(3) 0.2133(2) 0.4885(3)
C36 C 0.5410(7) 0.7485(9) 0.0210(7)
C37 C 0.4610(7) 0.6930(7) 0.1245(7)
H25 H 0.4929 0.6355 0.1723
C38 C 0.3339(5) 0.7215(4) 0.1585(5)
C39 C 0.2862(5) 0.8037(4) 0.0851(4)
H26 H 0.1988 0.8216 0.1067
C40 C 0.1258(5) 0.6703(4) 0.2940(4)
H27 H 0.0998 0.7435 0.3049
H28 H 0.0964 0.6587 0.2310
H32 H 0.0698 0.8870 0.6065
C48 C 0.0435(5) 0.7227(3) 0.5207(4)
H33 H 0.1207 0.7584 0.4608
H34 H 0.0581 0.7170 0.5950
C53 C 0.1699(6) 0.5338(4) 0.0220(5)
H37 H 0.1803 0.6003 0.0407
C54 C 0.0953(5) 0.4454(4) 0.1031(5)
C55 C 0.0798(5) 0.3475(4) 0.0758(5)
H38 H 0.0298 0.2884 0.1315
C56 C 0.1171(5) 0.4409(4) 0.2834(5)
H39 H 0.1395 0.3631 0.3002
H40 H 0.1972 0.4860 0.2434
C57 C 0.0652(4) 0.5825(3) 0.4017(4)
C58 C 0.0191(5) 0.6072(4) 0.5080(4)
C59 C 0.0501(5) 0.4730(4) 0.3945(4)
O12 O 0.2633(3) 0.6643(3) 0.2674(3)
O18 O 0.0322(4) 0.4582(3) 0.2138(3)
Co6_4 Co -0.0000 1.0000 1.0000
C33 C 0.3175(5) 0.9486(4) 0.9022(5)
C34 C 0.3667(5) 0.8593(5) 0.9807(5)
C35 C 0.4931(7) 0.8328(8) 0.9469(7)
H23 H 0.5475 0.8700 0.8753
H24 H 0.6283 0.7303 0.9992
C49 C 0.1224(5) 0.2297(4) 0.9358(5)
C50 C 0.1388(5) 0.3365(4) 0.9654(4)
C51 C 0.2120(5) 0.4248(4) 0.8838(5)
H35 H 0.2504 0.4187 0.8089
C52 C 0.2284(7) 0.5212(4) 0.9129(5)
H36 H 0.2803 0.5797 0.8577
O11 O 0.1996(3) 0.9702(3) 0.9276(3)
O16 O 0.1944(4) 0.2218(3) 0.8383(3)
O22 O 0.0248(4) 0.9426(3) 0.1669(3)
C11 C 0.1941(5) 0.9954(4) 0.2832(5)
H7 H 0.2268 0.9503 0.2331
Co6_5 Co 1.0000 -0.0000 0.0000
C43 C 0.8059(5) 0.0046(4) 0.7168(5)
H29 H 0.7732 0.0497 0.7669
O13 O 0.9752(4) 0.0574(3) 0.8331(3)
Co6_6 Co 1.0000 -0.0000 1.0000
C1 C 0.6825(5) 0.0514(4) 0.0978(5)
C2 C 0.6333(5) 0.1407(5) 0.0193(5)
C3 C 0.5069(7) 0.1672(8) 0.0531(7)
H1 H 0.4525 0.1300 0.1247
H2 H 0.3717 0.2697 0.0008
C17 C 0.8776(5) 0.7703(4) 0.0642(5)
C18 C 0.8612(5) 0.6635(4) 0.0346(4)
C19 C 0.7880(5) 0.5752(4) 0.1162(5)
H13 H 0.7496 0.5813 0.1911
C20 C 0.7716(7) 0.4788(4) 0.0871(5)
H14 H 0.7197 0.4203 0.1423
O2 O 0.8004(3) 0.0298(3) 0.0724(3)
O7 O 0.8056(4) 0.7782(3) 0.1617(3)
Co6_7 Co 1.0000 1.0000 0.0000
Co8 Co 0.74757(6) 0.89752(5) 0.23863(6)
C4 C 0.4590(7) 0.2515(9) 0.9790(7)
C5 C 0.5390(7) 0.3070(7) 0.8755(7)
H3 H 0.5071 0.3645 0.8277
C6 C 0.6661(5) 0.2785(4) 0.8415(5)
C7 C 0.7138(5) 0.1963(4) 0.9149(4)
H4 H 0.8012 0.1784 0.8933
C8 C 0.8742(5) 0.3297(4) 0.7060(4)
H5 H 0.9002 0.2565 0.6951
H6 H 0.9036 0.3413 0.7690
H10 H 0.9302 0.1130 0.3935
C16 C 0.9565(5) 0.2773(3) 0.4793(4)
H11 H 0.8793 0.2416 0.5392
H12 H 0.9419 0.2830 0.4050
C21 C 0.8301(6) 0.4662(4) 0.9780(5)
H15 H 0.8197 0.3997 0.9593
C22 C 0.9047(5) 0.5546(4) 0.8969(5)
C23 C 0.9202(5) 0.6525(4) 0.9242(5)
H16 H 0.9702 0.7116 0.8685
C24 C 0.8829(5) 0.5591(4) 0.7166(5)
H17 H 0.8605 0.6369 0.6998
H18 H 0.8028 0.5140 0.7566
C25 C 0.9348(4) 0.4175(3) 0.5983(4)
C26 C 0.9809(5) 0.3928(4) 0.4920(4)
C27 C 0.9499(5) 0.5270(4) 0.6055(4)
O3 O 0.7367(3) 0.3357(3) 0.7326(3)
O8 O 0.9579(3) 0.8421(3) 0.9942(3)
O9 O 0.9678(4) 0.5418(3) 0.7862(3)
C42 C 0.9343(5) 0.9761(3) 0.6948(4)
C44 C 0.7256(5) 0.9662(4) 0.6648(5)
H30 H 0.6401 0.9895 0.6758
C45 C 0.7706(5) 0.8940(4) 0.5970(5)
H31 H 0.7152 0.8669 0.5635
C46 C 0.8989(5) 0.8613(3) 0.5782(4)
C47 C 0.9822(5) 0.9048(3) 0.6233(4)
O15 O 0.9329(3) 0.7867(2) 0.5115(3)
Co6_8 Co 1.0000 1.0000 1.0000
C28 C 0.5206(6) 0.7480(5) 0.3786(6)
H19 H 0.4729 0.8048 0.3463
C29 C 0.4621(6) 0.6440(4) 0.4283(6)
H20 H 0.3759 0.6321 0.4301
C30 C 0.5288(5) 0.5567(4) 0.4756(5)
C31 C 0.6530(6) 0.5844(4) 0.4745(6)
H21 H 0.7023 0.5306 0.5088
C32 C 0.7038(6) 0.6896(4) 0.4239(6)
H22 H 0.7883 0.7048 0.4244
N1 N 0.6422(4) 0.7712(3) 0.3744(4)
O1 O 0.6068(3) 0.9946(3) 0.1906(3)
C60 C 0.4794(6) 0.2520(5) 0.6214(6)
H41 H 0.5271 0.1952 0.6537
C61 C 0.5379(6) 0.3560(4) 0.5717(6)
H42 H 0.6241 0.3679 0.5699
C62 C 0.4712(5) 0.4433(4) 0.5244(5)
C63 C 0.3470(6) 0.4156(4) 0.5255(6)
H43 H 0.2977 0.4694 0.4912
C64 C 0.2962(6) 0.3104(4) 0.5761(6)
H44 H 0.2117 0.2952 0.5756
N2 N 0.3578(4) 0.2288(3) 0.6256(4)
O24 O 0.8544(3) 0.9743(3) 0.3035(3)
C9 C 0.9764(5) 0.9782(4) 0.2556(4)
loop_
_geom_bond_atom_site_label_1
_geom_bond_atom_site_label_2
_geom_bond_site_symmetry_1
_geom_bond_site_symmetry_2
O14 C41 1_555 1_555
Co11 O14 1_555 1_555
Co11 O10 1_555 1_555
O29 Co6 1_555 1_555
H8 C12 1_555 1_555
C13 C12 1_555 1_555
H9 C13 1_555 1_555
C14 C13 1_555 1_555
C15 C10 1_555 1_555
O6 C14 1_555 1_555
C37 C36 1_555 1_555
H25 C37 1_555 1_555
C38 C37 1_555 1_555
H26 C39 1_555 1_555
C40 H27 1_555 1_555
H28 C40 1_555 1_555
C48 H33 1_555 1_555
H34 C48 1_555 1_555
H37 C53 1_555 1_555
C54 C53 1_555 1_555
H38 C55 1_555 1_555
C56 H39 1_555 1_555
H40 C56 1_555 1_555
C57 C40 1_555 1_555
O12 C38 1_555 1_555
O18 C54 1_555 1_555
C14 C15 1_555 1_555
C38 C39 1_555 1_555
C40 O12 1_555 1_555
C48 C58 1_555 1_555
C54 C55 1_555 1_555
C56 C59 1_555 1_555
C56 O18 1_555 1_555
C57 C58 1_555 1_555
C57 C59 1_555 1_555
C33 C34 1_555 1_555
C34 C35 1_555 1_555
C35 H23 1_555 1_555
C49 C50 1_555 1_555
C50 C51 1_555 1_555
C51 H35 1_555 1_555
C52 C51 1_555 1_555
H36 C52 1_555 1_555
O11 C33 1_555 1_555
O16 C49 1_555 1_555
Co6_4 O11 1_555 1_555
Co11 O16 1_555 1_555
O22 Co6_3 1_555 1_555
C11 H7 1_555 1_555
C43 H29 1_555 1_555
O13 Co6_6 1_555 1_555
Co6_5 O2 1_555 1_555
C1 C2 1_555 1_555
C2 C3 1_555 1_555
C3 H1 1_555 1_555
C17 C18 1_555 1_555
C18 C19 1_555 1_555
C19 H13 1_555 1_555
C20 C19 1_555 1_555
H14 C20 1_555 1_555
O7 C17 1_555 1_555
Co8 O7 1_555 1_555
C1 O2 1_555 1_555
C5 C4 1_555 1_555
H3 C5 1_555 1_555
C6 C5 1_555 1_555
H4 C7 1_555 1_555
C8 H5 1_555 1_555
H6 C8 1_555 1_555
C16 H11 1_555 1_555
H12 C16 1_555 1_555
H15 C21 1_555 1_555
C22 C21 1_555 1_555
H16 C23 1_555 1_555
C24 H17 1_555 1_555
H18 C24 1_555 1_555
C25 C8 1_555 1_555
C26 C16 1_555 1_555
C27 C24 1_555 1_555
O3 C6 1_555 1_555
O9 C22 1_555 1_555
H30 C44 1_555 1_555
C45 C44 1_555 1_555
H31 C45 1_555 1_555
C46 C45 1_555 1_555
C47 C42 1_555 1_555
O15 C46 1_555 1_555
Co6_8 O8 1_555 1_555
C6 C7 1_555 1_555
C8 O3 1_555 1_555
C22 C23 1_555 1_555
C24 O9 1_555 1_555
C25 C26 1_555 1_555
C25 C27 1_555 1_555
C46 C47 1_555 1_555
Co8 N1 1_555 1_555
C28 H19 1_555 1_555
C29 C28 1_555 1_555
H20 C29 1_555 1_555
C30 C29 1_555 1_555
C31 C30 1_555 1_555
H21 C31 1_555 1_555
C32 C31 1_555 1_555
H22 C32 1_555 1_555
N1 C28 1_555 1_555
O1 Co8 1_555 1_555
C60 H41 1_555 1_555
C61 C60 1_555 1_555
H42 C61 1_555 1_555
C62 C30 1_555 1_555
C63 C62 1_555 1_555
H43 C63 1_555 1_555
C64 C63 1_555 1_555
H44 C64 1_555 1_555
N2 C60 1_555 1_555
Co11 N2 1_555 1_555
O24 Co8 1_555 1_555
C32 N1 1_555 1_555
C61 C62 1_555 1_555
C64 N2 1_555 1_555
O24 C9 1_555 1_555

#END
