
###############################################################################
#
# This file contains modified crystal structure data generated from the
# MOF subset of the Cambridge Structural Database (CSD) v543 
# hosted by the Cambridge Crystallographic Data Centre (CCDC).
#
# This work is licensed under the Creative Commons
# Attribution-NonCommercial-ShareAlike 4.0 International License.
# To view a copy of this license, visit
# http://creativecommons.org/licenses/by-nc-sa/4.0/
# or send a letter to
# Creative Commons, PO Box 1866, Mountain View, CA 94042, USA.
#
# CIF created using the CSD Python API on 29 September 2022
# The structure has been converted into the P1 space group
# The structure has a 3D framework
# The original CSD entry FUHGAT is in the orthorhombic crystal system
# The framework has been calculated to contain at least 10.0% void space
# The void calculation uses a probe of radius 1.32A, grid spacing 0.4
#
###############################################################################

data_FUHGAT
_chemical_formula_moiety         '(C96 H136 Ag16 N60 O70 U6)n'
_symmetry_cell_setting           triclinic
_symmetry_space_group_name_H-M   'P 1'
_symmetry_Int_Tables_number      1
_space_group_name_Hall           'P 1'
loop_
_symmetry_equiv_pos_site_id
_symmetry_equiv_pos_as_xyz
1 x,y,z
_cell_length_a                   31.9280(17)
_cell_length_b                   15.6897(10)
_cell_length_c                   8.6172(4)
_cell_angle_alpha                90
_cell_angle_beta                 90
_cell_angle_gamma                90
_cell_volume                     4316.71
loop_
_atom_site_label
_atom_site_type_symbol
_atom_site_fract_x
_atom_site_fract_y
_atom_site_fract_z
U1 U 0.0000 0.12783(2) 0.7500
Ag1 Ag 0.24572(2) 0.36676(3) 0.35034(6)
Ag2 Ag 0.26137(2) 0.07422(3) 0.24783(9)
O1 O 0.04253(10) 0.1248(3) 0.8808(5)
O2 O 0.02793(11) 0.2526(3) 0.6318(6)
O3 O 0.09679(12) 0.2320(2) 0.6643(6)
O4 O 0.04064(11) 0.0828(3) 0.5361(6)
O5 O 0.08682(13) 0.0988(3) 0.3432(6)
O7 O 0.28179(15) 0.2226(3) 0.3956(6)
O8 O 0.27171(15) 0.2506(3) 0.6380(6)
O9 O 0.27883(13) 0.1209(3) 0.5631(6)
N1 N 0.18257(14) 0.3916(3) 0.4598(6)
N2 N 0.18251(13) 0.4062(3) 0.6217(6)
N3 N 0.11820(12) 0.3832(3) 0.5465(6)
N4 N 0.20556(14) 0.0346(3) 0.3593(6)
N6 N 0.14927(13) 0.0198(3) 0.5000(6)
N7 N 0.27773(14) 0.1988(4) 0.5315(8)
C1 C 0.06652(17) 0.2738(4) 0.6231(8)
C2 C 0.07361(15) 0.3631(4) 0.5552(8)
H2 H 0.0613 0.3659 0.4511
H3 H 0.0595 0.4054 0.6204
C3 C 0.14400(16) 0.3765(4) 0.4197(7)
C4 C 0.12949(17) 0.3576(4) 0.2610(10)
H4 H 0.1525 0.3646 0.1888
H5 H 0.1070 0.3963 0.2335
H6 H 0.1194 0.2993 0.2563
C5 C 0.14365(19) 0.4003(4) 0.6689(9)
C6 C 0.1299(2) 0.4083(4) 0.8315(10)
H7 H 0.1239 0.3522 0.8730
H8 H 0.1049 0.4433 0.8363
H9 H 0.1520 0.4347 0.8921
C7 C 0.07729(17) 0.0770(4) 0.4769(8)
C8 C 0.11072(16) 0.0417(4) 0.5841(7)
H10 H 0.1172 0.0840 0.6642
C9 C 0.17689(17) 0.0753(4) 0.4394(8)
C10 C 0.17611(18) 0.1690(4) 0.4638(9)
H12 H 0.1829 0.1817 0.5711
H13 H 0.1484 0.1908 0.4400
H14 H 0.1965 0.1959 0.3963
Ag5 Ag 0.25428(2) 0.13324(3) 0.85034(6)
Ag9 Ag 0.23863(2) 0.42578(3) 0.74783(9)
O18 O 0.22829(15) 0.2494(3) 0.1380(6)
O20 O 0.22117(13) 0.3791(3) 0.0631(6)
N15 N 0.31749(13) 0.0938(3) 0.1217(6)
N18 N 0.30339(14) 0.4474(3) 0.3744(6)
O6 O 0.0000 0.9739(3) 0.7500
N5 N 0.19661(14) 0.9474(3) 0.3744(6)
H11 H 0.0999 0.9906 0.6360
C11 C 0.16277(16) 0.9413(4) 0.4569(7)
C12 C 0.14132(16) 0.8598(4) 0.4992(8)
H15 H 0.1122 0.8626 0.4679
H16 H 0.1430 0.8513 0.6105
H17 H 0.1549 0.8127 0.4466
H18 H 0.0172 0.9423 0.7985
Ag8 Ag 0.25428(2) 0.86676(3) 0.35034(6)
Ag3 Ag 0.75428(2) 0.36676(3) 0.14966(6)
Ag4 Ag 0.73863(2) 0.07422(3) 0.25217(9)
O14 O 0.91318(13) 0.0988(3) 0.1568(6)
O15 O 0.71821(15) 0.2226(3) 0.1044(6)
N8 N 0.81743(14) 0.3916(3) 0.0402(6)
N11 N 0.79444(14) 0.0346(3) 0.1407(6)
N13 N 0.85073(13) 0.0198(3) 0.0000(6)
H19 H 0.9387 0.3659 0.0489
C15 C 0.85600(16) 0.3765(4) 0.0803(7)
C16 C 0.87051(17) 0.3576(4) 0.2390(10)
H21 H 0.8475 0.3646 0.3112
H22 H 0.8930 0.3963 0.2665
H23 H 0.8806 0.2993 0.2437
C19 C 0.92271(17) 0.0770(4) 0.0231(8)
C21 C 0.82311(17) 0.0753(4) 0.0606(8)
C22 C 0.82389(18) 0.1690(4) 0.0362(9)
H30 H 0.8516 0.1908 0.0600
H31 H 0.8035 0.1959 0.1037
O19 O 0.77171(15) 0.2494(3) 0.3620(6)
O21 O 0.77883(13) 0.3791(3) 0.4369(6)
N16 N 0.68251(13) 0.0938(3) 0.3783(6)
N17 N 0.69661(14) 0.4474(3) 0.1256(6)
U1_2 U 1.0000 0.12783(2) 0.7500
O10 O 0.95747(10) 0.1248(3) 0.6192(5)
O11 O 0.97207(11) 0.2526(3) 0.8682(6)
O12 O 0.90321(12) 0.2320(2) 0.8357(6)
O13 O 0.95936(11) 0.0828(3) 0.9639(6)
O16 O 0.72829(15) 0.2506(3) 0.8620(6)
O17 O 0.72117(13) 0.1209(3) 0.9369(6)
N9 N 0.81749(13) 0.4062(3) 0.8783(6)
N10 N 0.88180(12) 0.3832(3) 0.9535(6)
N13_2 N 0.85073(13) 0.0198(3) 1.0000(6)
N14 N 0.72227(14) 0.1988(4) 0.9685(8)
C13 C 0.93348(17) 0.2738(4) 0.8769(8)
C14 C 0.92639(15) 0.3631(4) 0.9448(8)
H20 H 0.9405 0.4054 0.8796
C17 C 0.85635(19) 0.4003(4) 0.8311(9)
C18 C 0.8701(2) 0.4083(4) 0.6685(10)
H24 H 0.8761 0.3522 0.6270
H25 H 0.8951 0.4433 0.6637
H26 H 0.8480 0.4347 0.6079
C20 C 0.88928(16) 0.0417(4) 0.9159(7)
H27 H 0.8828 0.0840 0.8358
H29 H 0.8171 0.1817 0.9289
Ag6 Ag 0.74572(2) 0.13324(3) 0.64966(6)
Ag10 Ag 0.76137(2) 0.42578(3) 0.75217(9)
N12 N 0.80339(14) 0.9474(3) 0.1256(6)
C23 C 0.83723(16) 0.9413(4) 0.0431(7)
C24 C 0.85868(16) 0.8598(4) 0.0008(8)
H32 H 0.8878 0.8626 0.0321
H34 H 0.8451 0.8127 0.0534
Ag7 Ag 0.74572(2) 0.86676(3) 0.14966(6)
U1_3 U 0.5000 0.37217(2) 0.2500
O1_2 O 0.45747(10) 0.3752(3) 0.3808(5)
O2_2 O 0.47207(11) 0.2474(3) 0.1318(6)
O3_2 O 0.40321(12) 0.2680(2) 0.1643(6)
O4_2 O 0.45936(11) 0.4172(3) 0.0361(6)
O6_2 O 0.5000 0.5261(3) 0.2500
H1 H 0.5172 0.5577 0.2015
N3_2 N 0.38180(12) 0.1168(3) 0.0465(6)
N6_2 N 0.35073(13) 0.4802(3) 0.0000(6)
N7_2 N 0.22227(14) 0.3012(4) 0.0315(8)
C1_2 C 0.43348(17) 0.2262(4) 0.1231(8)
C2_2 C 0.42639(15) 0.1369(4) 0.0552(8)
H3_2 H 0.4405 0.0946 0.1204
C5_2 C 0.35635(19) 0.0997(4) 0.1689(9)
C6_2 C 0.3701(2) 0.0917(4) 0.3315(10)
H7_2 H 0.3761 0.1478 0.3730
H8_2 H 0.3951 0.0567 0.3363
H9_2 H 0.3480 0.0653 0.3921
C8_2 C 0.38928(16) 0.4583(4) 0.0841(7)
H10_2 H 0.3828 0.4160 0.1642
H11_2 H 0.4001 0.5094 0.1360
H12_2 H 0.3171 0.3183 0.0711
H16_2 H 0.3570 0.6487 0.1105
H18_2 H 0.4828 0.5577 0.2985
O10_2 O 0.54253(10) 0.3752(3) 0.1192(5)
O11_2 O 0.52793(11) 0.2474(3) 0.3682(6)
O12_2 O 0.59679(12) 0.2680(2) 0.3357(6)
O13_2 O 0.54064(11) 0.4172(3) 0.4639(6)
O14_2 O 0.58682(13) 0.4012(3) 0.6568(6)
O15_2 O 0.78179(15) 0.2774(3) 0.6044(6)
N8_2 N 0.68257(14) 0.1084(3) 0.5402(6)
N10_2 N 0.61820(12) 0.1168(3) 0.4535(6)
N11_2 N 0.70556(14) 0.4654(3) 0.6407(6)
N12_2 N 0.69661(14) 0.5526(3) 0.6256(6)
N13_3 N 0.64927(13) 0.4802(3) 0.5000(6)
N14_2 N 0.77773(14) 0.3012(4) 0.4685(8)
C13_2 C 0.56652(17) 0.2262(4) 0.3769(8)
C14_2 C 0.57361(15) 0.1369(4) 0.4448(8)
H19_2 H 0.5613 0.1341 0.5489
H20_2 H 0.5595 0.0946 0.3796
C15_2 C 0.64400(16) 0.1235(4) 0.5803(7)
C16_2 C 0.62949(17) 0.1424(4) 0.7390(10)
H21_2 H 0.6525 0.1354 0.8112
H22_2 H 0.6070 0.1037 0.7665
H23_2 H 0.6194 0.2007 0.7437
C17_2 C 0.64365(19) 0.0997(4) 0.3311(9)
C18_2 C 0.6299(2) 0.0917(4) 0.1685(10)
H24_2 H 0.6239 0.1478 0.1270
H25_2 H 0.6049 0.0567 0.1637
H26_2 H 0.6520 0.0653 0.1079
C19_2 C 0.57729(17) 0.4230(4) 0.5231(8)
C20_2 C 0.61072(16) 0.4583(4) 0.4159(7)
H27_2 H 0.6172 0.4160 0.3358
H28 H 0.5999 0.5094 0.3640
C21_2 C 0.67689(17) 0.4247(4) 0.5606(8)
C22_2 C 0.67611(18) 0.3310(4) 0.5362(9)
H29_2 H 0.6829 0.3183 0.4289
H30_2 H 0.6484 0.3092 0.5600
H31_2 H 0.6965 0.3041 0.6037
C23_2 C 0.66277(16) 0.5587(4) 0.5431(7)
C24_2 C 0.64132(16) 0.6402(4) 0.5008(8)
H32_2 H 0.6122 0.6374 0.5321
H33 H 0.6430 0.6487 0.3895
H34_2 H 0.6549 0.6873 0.5534
Ag7_2 Ag 0.75428(2) 0.63324(3) 0.64966(6)
N17_2 N 0.80339(14) 0.0526(3) 0.6256(6)
O5_2 O 0.41318(13) 0.4012(3) 0.8432(6)
O7_2 O 0.21821(15) 0.2774(3) 0.8956(6)
N1_2 N 0.31743(14) 0.1084(3) 0.9598(6)
N4_2 N 0.29444(14) 0.4654(3) 0.8593(6)
N5_2 N 0.30339(14) 0.5526(3) 0.8744(6)
N6_3 N 0.35073(13) 0.4802(3) 1.0000(6)
H2_2 H 0.4387 0.1341 0.9511
C3_2 C 0.35600(16) 0.1235(4) 0.9197(7)
C4_2 C 0.37051(17) 0.1424(4) 0.7610(10)
H4_2 H 0.3475 0.1354 0.6888
H5_2 H 0.3930 0.1037 0.7335
H6_2 H 0.3806 0.2007 0.7563
C7_2 C 0.42271(17) 0.4230(4) 0.9769(8)
C9_2 C 0.32311(17) 0.4247(4) 0.9394(8)
C10_2 C 0.32389(18) 0.3310(4) 0.9638(9)
H13_2 H 0.3516 0.3092 0.9400
H14_2 H 0.3035 0.3041 0.8963
C11_2 C 0.33723(16) 0.5587(4) 0.9569(7)
C12_2 C 0.35868(16) 0.6402(4) 0.9992(8)
H15_2 H 0.3878 0.6374 0.9679
H17_2 H 0.3451 0.6873 0.9466
Ag8_2 Ag 0.24572(2) 0.63324(3) 0.85034(6)
N18_2 N 0.19661(14) 0.0526(3) 0.8744(6)
C23_3 C 0.16277(16) 0.0587(4) 0.9569(7)
C24_3 C 0.14132(16) 0.1402(4) 0.9992(8)
H32_3 H 0.1122 0.1374 0.9679
H34_3 H 0.1549 0.1873 0.9466
U1_4 U 0.0000 0.87217(2) 0.2500
O10_3 O 0.04253(10) 0.8752(3) 0.3808(5)
O11_3 O 0.02793(11) 0.7474(3) 0.1318(6)
O12_3 O 0.09679(12) 0.7680(2) 0.1643(6)
O13_3 O 0.04064(11) 0.9172(3) 0.0361(6)
O16_2 O 0.27171(15) 0.7494(3) 0.1380(6)
O17_2 O 0.27883(13) 0.8791(3) 0.0631(6)
N9_2 N 0.18251(13) 0.5938(3) 0.1217(6)
N10_3 N 0.11820(12) 0.6168(3) 0.0465(6)
N13_4 N 0.14927(13) 0.9802(3) 0.0000(6)
N14_3 N 0.27773(14) 0.8012(4) 0.0315(8)
C13_3 C 0.06652(17) 0.7262(4) 0.1231(8)
C14_3 C 0.07361(15) 0.6369(4) 0.0552(8)
H20_3 H 0.0595 0.5946 0.1204
C17_3 C 0.14365(19) 0.5997(4) 0.1689(9)
C18_3 C 0.1299(2) 0.5917(4) 0.3315(10)
H24_3 H 0.1239 0.6478 0.3730
H25_3 H 0.1049 0.5567 0.3363
H26_3 H 0.1520 0.5653 0.3921
C20_3 C 0.11072(16) 0.9583(4) 0.0841(7)
H27_3 H 0.1172 0.9160 0.1642
H29_3 H 0.1829 0.8183 0.0711
Ag10_2 Ag 0.23863(2) 0.57422(3) 0.24783(9)
Ag4_2 Ag 0.26137(2) 0.92578(3) 0.74783(9)
O14_3 O 0.08682(13) 0.9012(3) 0.8432(6)
O15_3 O 0.28179(15) 0.7774(3) 0.8956(6)
N8_3 N 0.18257(14) 0.6084(3) 0.9598(6)
N11_3 N 0.20556(14) 0.9654(3) 0.8593(6)
N13_5 N 0.14927(13) 0.9802(3) 1.0000(6)
H19_3 H 0.0613 0.6341 0.9511
C15_3 C 0.14400(16) 0.6235(4) 0.9197(7)
C16_3 C 0.12949(17) 0.6424(4) 0.7610(10)
H21_3 H 0.1525 0.6354 0.6888
H22_3 H 0.1070 0.6037 0.7335
H23_3 H 0.1194 0.7007 0.7563
C19_3 C 0.07729(17) 0.9230(4) 0.9769(8)
C21_3 C 0.17689(17) 0.9247(4) 0.9394(8)
C22_3 C 0.17611(18) 0.8310(4) 0.9638(9)
H30_3 H 0.1484 0.8092 0.9400
H31_3 H 0.1965 0.8041 0.8963
O19_2 O 0.22829(15) 0.7506(3) 0.6380(6)
O21_2 O 0.22117(13) 0.6209(3) 0.5631(6)
N16_2 N 0.31749(13) 0.9062(3) 0.6217(6)
O6_3 O 1.0000 0.0261(3) 0.2500
H11_3 H 0.9001 0.0094 0.3640
C11_3 C 0.83723(16) 0.0587(4) 0.5431(7)
C12_3 C 0.85868(16) 0.1402(4) 0.5008(8)
H15_3 H 0.8878 0.1374 0.5321
H16_3 H 0.8570 0.1487 0.3895
H17_3 H 0.8451 0.1873 0.5534
H18_3 H 0.9828 0.0577 0.2015
U1_5 U 1.0000 0.87217(2) 0.2500
Ag2_2 Ag 0.73863(2) 0.92578(3) 0.75217(9)
O1_3 O 0.95747(10) 0.8752(3) 0.1192(5)
O2_3 O 0.97207(11) 0.7474(3) 0.3682(6)
O3_3 O 0.90321(12) 0.7680(2) 0.3357(6)
O4_3 O 0.95936(11) 0.9172(3) 0.4639(6)
O5_3 O 0.91318(13) 0.9012(3) 0.6568(6)
O7_3 O 0.71821(15) 0.7774(3) 0.6044(6)
O8_2 O 0.72829(15) 0.7494(3) 0.3620(6)
O9_2 O 0.72117(13) 0.8791(3) 0.4369(6)
N1_3 N 0.81743(14) 0.6084(3) 0.5402(6)
N2_2 N 0.81749(13) 0.5938(3) 0.3783(6)
N3_3 N 0.88180(12) 0.6168(3) 0.4535(6)
N4_3 N 0.79444(14) 0.9654(3) 0.6407(6)
N6_4 N 0.85073(13) 0.9802(3) 0.5000(6)
N7_3 N 0.72227(14) 0.8012(4) 0.4685(8)
C1_3 C 0.93348(17) 0.7262(4) 0.3769(8)
C2_3 C 0.92639(15) 0.6369(4) 0.4448(8)
H2_3 H 0.9387 0.6341 0.5489
H3_3 H 0.9405 0.5946 0.3796
C3_3 C 0.85600(16) 0.6235(4) 0.5803(7)
C4_3 C 0.87051(17) 0.6424(4) 0.7390(10)
H4_3 H 0.8475 0.6354 0.8112
H5_3 H 0.8930 0.6037 0.7665
H6_3 H 0.8806 0.7007 0.7437
C5_3 C 0.85635(19) 0.5997(4) 0.3311(9)
C6_3 C 0.8701(2) 0.5917(4) 0.1685(10)
H7_3 H 0.8761 0.6478 0.1270
H8_3 H 0.8951 0.5567 0.1637
H9_3 H 0.8480 0.5653 0.1079
C7_3 C 0.92271(17) 0.9230(4) 0.5231(8)
C8_3 C 0.88928(16) 0.9583(4) 0.4159(7)
H10_3 H 0.8828 0.9160 0.3358
C9_3 C 0.82311(17) 0.9247(4) 0.5606(8)
C10_3 C 0.82389(18) 0.8310(4) 0.5362(9)
H12_3 H 0.8171 0.8183 0.4289
H13_3 H 0.8516 0.8092 0.5600
H14_3 H 0.8035 0.8041 0.6037
Ag9_2 Ag 0.76137(2) 0.57422(3) 0.25217(9)
O18_2 O 0.77171(15) 0.7506(3) 0.8620(6)
O20_2 O 0.77883(13) 0.6209(3) 0.9369(6)
N15_2 N 0.68251(13) 0.9062(3) 0.8783(6)
O5_4 O 0.58682(13) 0.5988(3) 0.1568(6)
O7_4 O 0.78179(15) 0.7226(3) 0.1044(6)
N1_4 N 0.68257(14) 0.8916(3) 0.0402(6)
N4_4 N 0.70556(14) 0.5346(3) 0.1407(6)
N6_5 N 0.64927(13) 0.5198(3) 0.0000(6)
H2_4 H 0.5613 0.8659 0.0489
C3_4 C 0.64400(16) 0.8765(4) 0.0803(7)
C4_4 C 0.62949(17) 0.8576(4) 0.2390(10)
H4_4 H 0.6525 0.8646 0.3112
H5_4 H 0.6070 0.8963 0.2665
H6_4 H 0.6194 0.7993 0.2437
C7_4 C 0.57729(17) 0.5770(4) 0.0231(8)
C9_4 C 0.67689(17) 0.5753(4) 0.0606(8)
C10_4 C 0.67611(18) 0.6690(4) 0.0362(9)
H13_4 H 0.6484 0.6908 0.0600
H14_4 H 0.6965 0.6959 0.1037
C11_4 C 0.66277(16) 0.4413(4) 0.0431(7)
C12_4 C 0.64132(16) 0.3598(4) 0.0008(8)
H15_4 H 0.6122 0.3626 0.0321
H17_4 H 0.6549 0.3127 0.0534
U1_6 U 0.5000 0.62783(2) 0.7500
O1_4 O 0.54253(10) 0.6248(3) 0.6192(5)
O2_4 O 0.52793(11) 0.7526(3) 0.8682(6)
O3_4 O 0.59679(12) 0.7320(2) 0.8357(6)
O4_4 O 0.54064(11) 0.5828(3) 0.9639(6)
O6_4 O 0.5000 0.4739(3) 0.7500
H1_2 H 0.4828 0.4423 0.7985
N3_4 N 0.61820(12) 0.8832(3) 0.9535(6)
N6_6 N 0.64927(13) 0.5198(3) 1.0000(6)
N7_4 N 0.77773(14) 0.6988(4) 0.9685(8)
C1_4 C 0.56652(17) 0.7738(4) 0.8769(8)
C2_4 C 0.57361(15) 0.8631(4) 0.9448(8)
H3_4 H 0.5595 0.9054 0.8796
C5_4 C 0.64365(19) 0.9003(4) 0.8311(9)
C6_4 C 0.6299(2) 0.9083(4) 0.6685(10)
H7_4 H 0.6239 0.8522 0.6270
H8_4 H 0.6049 0.9433 0.6637
H9_4 H 0.6520 0.9347 0.6079
C8_4 C 0.61072(16) 0.5417(4) 0.9159(7)
H10_4 H 0.6172 0.5840 0.8358
H11_4 H 0.5999 0.4906 0.8640
H12_4 H 0.6829 0.6817 0.9289
H16_4 H 0.6430 0.3513 0.8895
H18_4 H 0.5172 0.4423 0.7015
O10_4 O 0.45747(10) 0.6248(3) 0.8808(5)
O11_4 O 0.47207(11) 0.7526(3) 0.6318(6)
O12_4 O 0.40321(12) 0.7320(2) 0.6643(6)
O13_4 O 0.45936(11) 0.5828(3) 0.5361(6)
O14_4 O 0.41318(13) 0.5988(3) 0.3432(6)
O15_4 O 0.21821(15) 0.7226(3) 0.3956(6)
N8_4 N 0.31743(14) 0.8916(3) 0.4598(6)
N10_4 N 0.38180(12) 0.8832(3) 0.5465(6)
N11_4 N 0.29444(14) 0.5346(3) 0.3593(6)
N13_6 N 0.35073(13) 0.5198(3) 0.5000(6)
N14_4 N 0.22227(14) 0.6988(4) 0.5315(8)
C13_4 C 0.43348(17) 0.7738(4) 0.6231(8)
C14_4 C 0.42639(15) 0.8631(4) 0.5552(8)
H19_4 H 0.4387 0.8659 0.4511
H20_4 H 0.4405 0.9054 0.6204
C15_4 C 0.35600(16) 0.8765(4) 0.4197(7)
C16_4 C 0.37051(17) 0.8576(4) 0.2610(10)
H21_4 H 0.3475 0.8646 0.1888
H22_4 H 0.3930 0.8963 0.2335
H23_4 H 0.3806 0.7993 0.2563
C17_4 C 0.35635(19) 0.9003(4) 0.6689(9)
C18_4 C 0.3701(2) 0.9083(4) 0.8315(10)
H24_4 H 0.3761 0.8522 0.8730
H25_4 H 0.3951 0.9433 0.8363
H26_4 H 0.3480 0.9347 0.8921
C19_4 C 0.42271(17) 0.5770(4) 0.4769(8)
C20_4 C 0.38928(16) 0.5417(4) 0.5841(7)
H27_4 H 0.3828 0.5840 0.6642
H28_2 H 0.4001 0.4906 0.6360
C21_4 C 0.32311(17) 0.5753(4) 0.4394(8)
C22_4 C 0.32389(18) 0.6690(4) 0.4638(9)
H29_4 H 0.3171 0.6817 0.5711
H30_4 H 0.3516 0.6908 0.4400
H31_4 H 0.3035 0.6959 0.3963
C23_4 C 0.33723(16) 0.4413(4) 0.4569(7)
C24_4 C 0.35868(16) 0.3598(4) 0.4992(8)
H32_4 H 0.3878 0.3626 0.4679
H33_2 H 0.3570 0.3513 0.6105
H34_4 H 0.3451 0.3127 0.4466
O6_5 O 1.0000 0.9739(3) 0.7500
H1_3 H 0.9828 0.9423 0.7015
H28_3 H 0.9001 0.9906 0.8640
H33_3 H 0.8570 0.8513 0.8895
O6_6 O 0.0000 0.0261(3) 0.2500
H1_4 H 0.0172 0.0577 0.2985
H28_4 H 0.0999 0.0094 0.1360
H33_4 H 0.1430 0.1487 0.1105
loop_
_geom_bond_atom_site_label_1
_geom_bond_atom_site_label_2
_geom_bond_site_symmetry_1
_geom_bond_site_symmetry_2
U1 O1 1_555 1_555
Ag1 O7 1_555 1_555
Ag2 N4 1_555 1_555
O2 U1 1_555 1_555
O3 C1 1_555 1_555
O4 U1 1_555 1_555
O5 C7 1_555 1_555
O7 N7 1_555 1_555
O8 N7 1_555 1_555
O9 N7 1_555 1_555
N1 Ag1 1_555 1_555
N2 N1 1_555 1_555
N3 C2 1_555 1_555
N6 C8 1_555 1_555
C1 O2 1_555 1_555
C2 C1 1_555 1_555
H2 C2 1_555 1_555
H3 C2 1_555 1_555
C3 N1 1_555 1_555
C4 C3 1_555 1_555
H4 C4 1_555 1_555
H5 C4 1_555 1_555
H6 C4 1_555 1_555
C5 N2 1_555 1_555
C6 C5 1_555 1_555
H7 C6 1_555 1_555
H8 C6 1_555 1_555
H9 C6 1_555 1_555
C7 O4 1_555 1_555
C8 C7 1_555 1_555
H10 C8 1_555 1_555
C9 N4 1_555 1_555
C10 C9 1_555 1_555
H12 C10 1_555 1_555
H13 C10 1_555 1_555
H14 C10 1_555 1_555
Ag5 O8 1_555 1_555
Ag9 N2 1_555 1_555
O18 Ag1 1_555 1_555
O20 Ag1 1_555 1_555
N15 Ag2 1_555 1_555
N18 Ag1 1_555 1_555
O9 Ag5 1_555 1_555
N3 C3 1_555 1_555
N3 C5 1_555 1_555
N6 C9 1_555 1_555
N5 C11 1_555 1_555
C12 C11 1_555 1_555
H15 C12 1_555 1_555
H16 C12 1_555 1_555
H17 C12 1_555 1_555
H18 O6 1_555 1_555
Ag8 N5 1_555 1_555
Ag3 O15 1_555 1_555
Ag4 N11 1_555 1_555
O14 C19 1_555 1_555
N8 Ag3 1_555 1_555
C15 N8 1_555 1_555
C16 C15 1_555 1_555
H21 C16 1_555 1_555
H22 C16 1_555 1_555
H23 C16 1_555 1_555
C21 N11 1_555 1_555
C22 C21 1_555 1_555
H30 C22 1_555 1_555
H31 C22 1_555 1_555
O19 Ag3 1_555 1_555
O21 Ag3 1_555 1_555
N16 Ag4 1_555 1_555
N17 Ag3 1_555 1_555
N13 C21 1_555 1_555
O10 U1_2 1_555 1_555
O11 U1_2 1_555 1_555
O12 C13 1_555 1_555
O13 U1_2 1_555 1_555
O16 N14 1_555 1_555
O17 N14 1_555 1_555
N10 C14 1_555 1_555
N13_2 C20 1_555 1_555
C13 O11 1_555 1_555
C14 C13 1_555 1_555
H20 C14 1_555 1_555
C17 N9 1_555 1_555
C18 C17 1_555 1_555
H24 C18 1_555 1_555
H25 C18 1_555 1_555
H26 C18 1_555 1_555
H27 C20 1_555 1_555
Ag6 O16 1_555 1_555
Ag10 N9 1_555 1_555
O17 Ag6 1_555 1_555
N10 C17 1_555 1_555
N12 C23 1_555 1_555
C24 C23 1_555 1_555
H32 C24 1_555 1_555
H34 C24 1_555 1_555
Ag7 N12 1_555 1_555
U1_3 O1_2 1_555 1_555
O2_2 U1_3 1_555 1_555
O3_2 C1_2 1_555 1_555
O4_2 U1_3 1_555 1_555
O6_2 U1_3 1_555 1_555
H1 O6_2 1_555 1_555
O18 N7_2 1_555 1_555
O20 N7_2 1_555 1_555
N3_2 C2_2 1_555 1_555
N6_2 C8_2 1_555 1_555
C1_2 O2_2 1_555 1_555
C2_2 C1_2 1_555 1_555
H3_2 C2_2 1_555 1_555
C5_2 N15 1_555 1_555
C6_2 C5_2 1_555 1_555
H7_2 C6_2 1_555 1_555
H8_2 C6_2 1_555 1_555
H9_2 C6_2 1_555 1_555
H10_2 C8_2 1_555 1_555
H11_2 C8_2 1_555 1_555
H18_2 O6_2 1_555 1_555
Ag6 O15_2 1_555 1_555
Ag10 N11_2 1_555 1_555
O10_2 U1_3 1_555 1_555
O11_2 U1_3 1_555 1_555
O12_2 C13_2 1_555 1_555
O13_2 U1_3 1_555 1_555
O14_2 C19_2 1_555 1_555
O15_2 N14_2 1_555 1_555
O19 N14_2 1_555 1_555
O21 N14_2 1_555 1_555
N8_2 Ag6 1_555 1_555
N16 N8_2 1_555 1_555
N10_2 C14_2 1_555 1_555
N11_2 N12_2 1_555 1_555
N12_2 C23_2 1_555 1_555
N13_3 C20_2 1_555 1_555
C13_2 O11_2 1_555 1_555
C14_2 C13_2 1_555 1_555
H19_2 C14_2 1_555 1_555
H20_2 C14_2 1_555 1_555
C15_2 N8_2 1_555 1_555
C16_2 C15_2 1_555 1_555
H21_2 C16_2 1_555 1_555
H22_2 C16_2 1_555 1_555
H23_2 C16_2 1_555 1_555
C17_2 N16 1_555 1_555
C18_2 C17_2 1_555 1_555
H24_2 C18_2 1_555 1_555
H25_2 C18_2 1_555 1_555
H26_2 C18_2 1_555 1_555
C19_2 O13_2 1_555 1_555
C20_2 C19_2 1_555 1_555
H27_2 C20_2 1_555 1_555
H28 C20_2 1_555 1_555
C21_2 N11_2 1_555 1_555
C22_2 C21_2 1_555 1_555
H29_2 C22_2 1_555 1_555
H30_2 C22_2 1_555 1_555
H31_2 C22_2 1_555 1_555
C23_2 N13_3 1_555 1_555
C24_2 C23_2 1_555 1_555
H32_2 C24_2 1_555 1_555
H33 C24_2 1_555 1_555
H34_2 C24_2 1_555 1_555
Ag7_2 N12_2 1_555 1_555
N17_2 Ag6 1_555 1_555
N3_2 C5_2 1_555 1_555
N10_2 C15_2 1_555 1_555
N10_2 C17_2 1_555 1_555
N13_3 C21_2 1_555 1_555
Ag5 O7_2 1_555 1_555
Ag9 N4_2 1_555 1_555
O5_2 C7_2 1_555 1_555
N1_2 Ag5 1_555 1_555
N4_2 N5_2 1_555 1_555
N5_2 C11_2 1_555 1_555
C3_2 N1_2 1_555 1_555
C4_2 C3_2 1_555 1_555
H4_2 C4_2 1_555 1_555
H5_2 C4_2 1_555 1_555
H6_2 C4_2 1_555 1_555
C9_2 N4_2 1_555 1_555
C10_2 C9_2 1_555 1_555
H13_2 C10_2 1_555 1_555
H14_2 C10_2 1_555 1_555
C11_2 N6_3 1_555 1_555
C12_2 C11_2 1_555 1_555
H15_2 C12_2 1_555 1_555
H17_2 C12_2 1_555 1_555
Ag8_2 N5_2 1_555 1_555
N18_2 Ag5 1_555 1_555
N6_3 C9_2 1_555 1_555
N18_2 C23_3 1_555 1_555
C24_3 C23_3 1_555 1_555
H32_3 C24_3 1_555 1_555
H34_3 C24_3 1_555 1_555
O10_3 U1_4 1_555 1_555
O11_3 U1_4 1_555 1_555
O12_3 C13_3 1_555 1_555
O13_3 U1_4 1_555 1_555
O16_2 N14_3 1_555 1_555
O17_2 N14_3 1_555 1_555
N10_3 C14_3 1_555 1_555
N13_4 C20_3 1_555 1_555
C13_3 O11_3 1_555 1_555
C14_3 C13_3 1_555 1_555
H20_3 C14_3 1_555 1_555
C17_3 N9_2 1_555 1_555
C18_3 C17_3 1_555 1_555
H24_3 C18_3 1_555 1_555
H25_3 C18_3 1_555 1_555
H26_3 C18_3 1_555 1_555
H27_3 C20_3 1_555 1_555
Ag8 O16_2 1_555 1_555
Ag10_2 N9_2 1_555 1_555
O17_2 Ag8 1_555 1_555
N10_3 C17_3 1_555 1_555
Ag8_2 O15_3 1_555 1_555
Ag4_2 N11_3 1_555 1_555
O14_3 C19_3 1_555 1_555
N8_3 Ag8_2 1_555 1_555
C15_3 N8_3 1_555 1_555
C16_3 C15_3 1_555 1_555
H21_3 C16_3 1_555 1_555
H22_3 C16_3 1_555 1_555
H23_3 C16_3 1_555 1_555
C21_3 N11_3 1_555 1_555
C22_3 C21_3 1_555 1_555
H30_3 C22_3 1_555 1_555
H31_3 C22_3 1_555 1_555
O19_2 Ag8_2 1_555 1_555
O21_2 Ag8_2 1_555 1_555
N16_2 Ag4_2 1_555 1_555
N13_5 C21_3 1_555 1_555
N17_2 C11_3 1_555 1_555
C12_3 C11_3 1_555 1_555
H15_3 C12_3 1_555 1_555
H16_3 C12_3 1_555 1_555
H17_3 C12_3 1_555 1_555
H18_3 O6_3 1_555 1_555
U1_5 O1_3 1_555 1_555
Ag7_2 O7_3 1_555 1_555
Ag2_2 N4_3 1_555 1_555
O2_3 U1_5 1_555 1_555
O3_3 C1_3 1_555 1_555
O4_3 U1_5 1_555 1_555
O5_3 C7_3 1_555 1_555
O7_3 N7_3 1_555 1_555
O8_2 N7_3 1_555 1_555
O9_2 N7_3 1_555 1_555
N1_3 Ag7_2 1_555 1_555
N2_2 N1_3 1_555 1_555
N3_3 C2_3 1_555 1_555
N6_4 C8_3 1_555 1_555
C1_3 O2_3 1_555 1_555
C2_3 C1_3 1_555 1_555
H2_3 C2_3 1_555 1_555
H3_3 C2_3 1_555 1_555
C3_3 N1_3 1_555 1_555
C4_3 C3_3 1_555 1_555
H4_3 C4_3 1_555 1_555
H5_3 C4_3 1_555 1_555
H6_3 C4_3 1_555 1_555
C5_3 N2_2 1_555 1_555
C6_3 C5_3 1_555 1_555
H7_3 C6_3 1_555 1_555
H8_3 C6_3 1_555 1_555
H9_3 C6_3 1_555 1_555
C7_3 O4_3 1_555 1_555
C8_3 C7_3 1_555 1_555
H10_3 C8_3 1_555 1_555
C9_3 N4_3 1_555 1_555
C10_3 C9_3 1_555 1_555
H12_3 C10_3 1_555 1_555
H13_3 C10_3 1_555 1_555
H14_3 C10_3 1_555 1_555
Ag7 O8_2 1_555 1_555
Ag9_2 N2_2 1_555 1_555
O18_2 Ag7_2 1_555 1_555
O20_2 Ag7_2 1_555 1_555
N15_2 Ag2_2 1_555 1_555
O9_2 Ag7 1_555 1_555
N3_3 C3_3 1_555 1_555
N3_3 C5_3 1_555 1_555
N6_4 C9_3 1_555 1_555
Ag7 O7_4 1_555 1_555
Ag9_2 N4_4 1_555 1_555
O5_4 C7_4 1_555 1_555
N1_4 Ag7 1_555 1_555
N4_4 N17 1_555 1_555
N17 C11_4 1_555 1_555
C3_4 N1_4 1_555 1_555
C4_4 C3_4 1_555 1_555
H4_4 C4_4 1_555 1_555
H5_4 C4_4 1_555 1_555
H6_4 C4_4 1_555 1_555
C9_4 N4_4 1_555 1_555
C10_4 C9_4 1_555 1_555
H13_4 C10_4 1_555 1_555
H14_4 C10_4 1_555 1_555
C11_4 N6_5 1_555 1_555
C12_4 C11_4 1_555 1_555
H15_4 C12_4 1_555 1_555
H17_4 C12_4 1_555 1_555
N6_5 C9_4 1_555 1_555
U1_6 O1_4 1_555 1_555
O2_4 U1_6 1_555 1_555
O3_4 C1_4 1_555 1_555
O4_4 U1_6 1_555 1_555
O6_4 U1_6 1_555 1_555
H1_2 O6_4 1_555 1_555
O18_2 N7_4 1_555 1_555
O20_2 N7_4 1_555 1_555
N3_4 C2_4 1_555 1_555
N6_6 C8_4 1_555 1_555
C1_4 O2_4 1_555 1_555
C2_4 C1_4 1_555 1_555
H3_4 C2_4 1_555 1_555
C5_4 N15_2 1_555 1_555
C6_4 C5_4 1_555 1_555
H7_4 C6_4 1_555 1_555
H8_4 C6_4 1_555 1_555
H9_4 C6_4 1_555 1_555
H10_4 C8_4 1_555 1_555
H11_4 C8_4 1_555 1_555
H18_4 O6_4 1_555 1_555
Ag8 O15_4 1_555 1_555
Ag10_2 N11_4 1_555 1_555
O10_4 U1_6 1_555 1_555
O11_4 U1_6 1_555 1_555
O12_4 C13_4 1_555 1_555
O13_4 U1_6 1_555 1_555
O14_4 C19_4 1_555 1_555
O15_4 N14_4 1_555 1_555
O19_2 N14_4 1_555 1_555
O21_2 N14_4 1_555 1_555
N8_4 Ag8 1_555 1_555
N16_2 N8_4 1_555 1_555
N10_4 C14_4 1_555 1_555
N11_4 N18 1_555 1_555
N18 C23_4 1_555 1_555
N13_6 C20_4 1_555 1_555
C13_4 O11_4 1_555 1_555
C14_4 C13_4 1_555 1_555
H19_4 C14_4 1_555 1_555
H20_4 C14_4 1_555 1_555
C15_4 N8_4 1_555 1_555
C16_4 C15_4 1_555 1_555
H21_4 C16_4 1_555 1_555
H22_4 C16_4 1_555 1_555
H23_4 C16_4 1_555 1_555
C17_4 N16_2 1_555 1_555
C18_4 C17_4 1_555 1_555
H24_4 C18_4 1_555 1_555
H25_4 C18_4 1_555 1_555
H26_4 C18_4 1_555 1_555
C19_4 O13_4 1_555 1_555
C20_4 C19_4 1_555 1_555
H27_4 C20_4 1_555 1_555
H28_2 C20_4 1_555 1_555
C21_4 N11_4 1_555 1_555
C22_4 C21_4 1_555 1_555
H29_4 C22_4 1_555 1_555
H30_4 C22_4 1_555 1_555
H31_4 C22_4 1_555 1_555
C23_4 N13_6 1_555 1_555
C24_4 C23_4 1_555 1_555
H32_4 C24_4 1_555 1_555
H33_2 C24_4 1_555 1_555
H34_4 C24_4 1_555 1_555
N3_4 C5_4 1_555 1_555
N10_4 C15_4 1_555 1_555
N10_4 C17_4 1_555 1_555
N13_6 C21_4 1_555 1_555
H1_3 O6_5 1_555 1_555
H1_4 O6_6 1_555 1_555

#END
