
###############################################################################
#
# This file contains modified crystal structure data generated from the
# MOF subset of the Cambridge Structural Database (CSD) v543 
# hosted by the Cambridge Crystallographic Data Centre (CCDC).
#
# This work is licensed under the Creative Commons
# Attribution-NonCommercial-ShareAlike 4.0 International License.
# To view a copy of this license, visit
# http://creativecommons.org/licenses/by-nc-sa/4.0/
# or send a letter to
# Creative Commons, PO Box 1866, Mountain View, CA 94042, USA.
#
# CIF created using the CSD Python API on 29 September 2022
# The structure has been converted into the P1 space group
# The structure has a 3D framework
# The original CSD entry FULQUZ is in the orthorhombic crystal system
# The framework has been calculated to contain at least 10.0% void space
# The void calculation uses a probe of radius 1.32A, grid spacing 0.4
# H atom positions have been added when not included in the experimental data
#
###############################################################################

data_FULQUZ
_chemical_formula_moiety         '(C96 H88 La8 N8 O58 S12)n'
_symmetry_cell_setting           triclinic
_symmetry_space_group_name_H-M   'P 1'
_symmetry_Int_Tables_number      1
_space_group_name_Hall           'P 1'
loop_
_symmetry_equiv_pos_site_id
_symmetry_equiv_pos_as_xyz
1 x,y,z
_cell_length_a                   17.434(4)
_cell_length_b                   11.227(3)
_cell_length_c                   17.980(4)
_cell_angle_alpha                90
_cell_angle_beta                 90
_cell_angle_gamma                90
_cell_volume                     3519.25
loop_
_atom_site_label
_atom_site_type_symbol
_atom_site_fract_x
_atom_site_fract_y
_atom_site_fract_z
O3 O 0.0640(4) 0.1423(6) 0.0947(3)
C3 C 0.0897(5) 0.0135(8) 0.2365(5)
H2 H 0.1363 0.0137 0.2102
C4 C 0.0243(5) 0.0693(9) 0.2120(5)
C6 C 0.0131(5) 0.1379(9) 0.1432(5)
La3 La 0.18420(2) 0.14260(3) 0.01966(5)
La2 La 0.03281(2) 0.68149(3) 0.52010(3)
O1 O 0.0225(4) 0.8656(6) 0.4455(3)
C1 C 0.0042(5) 0.9663(8) 0.3319(4)
C2 C 0.0790(5) 0.9555(9) 0.3056(5)
H1 H 0.1180 0.9144 0.3309
O14 O 0.0210(4) 0.4576(6) 0.4880(4)
N2 N 0.0812(6) 0.3040(8) 0.4319(6)
C22 C 0.0767(6) 0.3904(9) 0.4807(6)
H14 H 0.1189 0.4021 0.5125
C23 C 0.0222(12) 0.2844(14) 0.3785(10)
H16 H 0.0450 0.2594 0.3318
C24 C 0.1489(8) 0.2285(12) 0.4259(9)
H18 H 0.1836 0.2457 0.4667
H19 H 0.1336 0.1455 0.4280
H20 H 0.1746 0.2440 0.3791
O15 O 0.1695(3) 0.7892(5) 0.5147(7)
H21 H 0.179(6) 0.847(8) 0.539(6)
O17 O 0.0514(4) 0.8104(6) 0.6345(3)
O18 O 0.1074(4) 0.6306(6) 0.4030(4)
O21 O 0.1254(4) 0.5752(6) 0.5963(3)
H22 H 0.177558 0.812403 0.461982
La5 La 0.68420(2) 0.35740(3) 0.01966(5)
La9 La 0.46719(2) 0.18149(3) 0.02010(3)
S1 S 0.94885(13) 0.0463(2) 0.27222(13)
O4 O 0.9486(4) 0.1896(6) 0.1345(3)
O7 O 0.6806(3) 0.1726(6) 0.0858(4)
O8 O 0.5652(4) 0.0934(6) 0.1115(3)
C8 C 0.7467(5) 0.0419(9) 0.2981(5)
H3 H 0.7914 0.0499 0.3270
C9 C 0.7375(5) 0.0932(10) 0.2265(5)
H4 H 0.7757 0.1372 0.2018
C10 C 0.6657(5) 0.0707(8) 0.1978(5)
C12 C 0.6348(5) 0.1145(8) 0.1261(5)
S3 S 0.71069(12) 0.0528(2) 0.78028(13)
O11 O 0.7121(3) 0.2116(6) 0.9141(3)
O12 O 0.5913(3) 0.1821(5) 0.9463(3)
C15 C 0.5664(5) 0.0574(10) 0.8077(5)
H6 H 0.5190 0.0701 0.8314
C16 C 0.6357(4) 0.0937(8) 0.8352(5)
C18 C 0.6466(5) 0.1648(8) 0.9030(5)
O13 O 0.8343(5) 0.0799(7) 0.5413(4)
N1 N 0.8347(5) 0.2759(7) 0.5135(11)
C19 C 0.8326(6) 0.1651(10) 0.4958(7)
H7 H 0.8295 0.1461 0.4450
C20 C 0.8300(9) 0.3725(13) 0.4606(12)
H8 H 0.8228 0.3404 0.4110
H9 H 0.8770 0.4185 0.4621
H10 H 0.7870 0.4235 0.4731
C21 C 0.8399(9) 0.3169(13) 0.5913(10)
H11 H 0.8372 0.2488 0.6245
H12 H 0.7977 0.3707 0.6019
H13 H 0.8882 0.3582 0.5988
La6 La 0.96719(2) 0.31851(3) 0.02010(3)
La1 La 0.81580(2) 0.85740(3) 0.51966(5)
O2 O 0.9056(4) 0.9376(6) 0.4185(4)
C5 C 0.9747(6) 0.9186(9) 0.4053(5)
S2 S 0.61208(12) 0.9835(2) 0.25480(13)
O5 O 0.7183(4) 0.9470(6) 0.4438(3)
O6 O 0.6074(4) 0.8694(6) 0.4030(4)
C7 C 0.6833(5) 0.9793(9) 0.3205(5)
C11 C 0.6687(5) 0.9246(11) 0.3948(6)
O9 O 0.7467(3) 0.9177(6) 0.6357(4)
O10 O 0.6254(4) 0.9248(6) 0.5963(3)
C13 C 0.6495(5) 0.9872(8) 0.7184(5)
C14 C 0.5754(5) 0.9988(10) 0.7397(5)
H5 H 0.5340 0.9702 0.7114
C17 C 0.6760(6) 0.9393(10) 0.6455(6)
H15 H 0.9938 0.3577 0.3709
H17 H 0.9878 0.2229 0.3963
La7 La 0.53281(2) 0.81851(3) 0.52010(3)
O16 O 0.9360(4) 0.8577(6) 0.5947(3)
O19 O 0.8194(3) 0.6726(6) 0.5858(4)
O20 O 0.9348(4) 0.5934(6) 0.6115(3)
O22 O 0.7879(3) 0.7116(6) 0.4141(3)
O23 O 0.9087(3) 0.6821(5) 0.4463(3)
O9_2 O 0.2533(3) 0.0823(6) 0.1357(4)
O10_2 O 0.3746(4) 0.0752(6) 0.0963(3)
C13_2 C 0.3505(5) 0.0128(8) 0.2184(5)
C14_2 C 0.4246(5) 0.0012(10) 0.2397(5)
H5_2 H 0.4660 0.0298 0.2114
C17_2 C 0.3240(6) 0.0607(10) 0.1455(6)
O19_2 O 0.1806(3) 0.3274(6) 0.0858(4)
O20_2 O 0.0652(4) 0.4066(6) 0.1115(3)
O2_2 O 0.0944(4) 0.0624(6) 0.9185(4)
C5_2 C 0.0253(6) 0.0814(9) 0.9053(5)
S2_2 S 0.38792(12) 0.0165(2) 0.75480(13)
O5_2 O 0.2817(4) 0.0530(6) 0.9438(3)
O6_2 O 0.3926(4) 0.1306(6) 0.9030(4)
C7_2 C 0.3167(5) 0.0207(9) 0.8205(5)
C11_2 C 0.3313(5) 0.0754(11) 0.8948(6)
H15_2 H 0.0062 0.6423 0.8709
H17_2 H 0.0122 0.7771 0.8963
O22_2 O 0.2121(3) 0.2884(6) 0.9141(3)
O23_2 O 0.0913(3) 0.3179(5) 0.9463(3)
S3_2 S 0.28931(12) 0.9472(2) 0.28028(13)
O11_2 O 0.2879(3) 0.7884(6) 0.4141(3)
O12_2 O 0.4087(3) 0.8179(5) 0.4463(3)
C15_2 C 0.4336(5) 0.9426(10) 0.3077(5)
H6_2 H 0.4810 0.9299 0.3314
C16_2 C 0.3643(4) 0.9063(8) 0.3352(5)
C18_2 C 0.3534(5) 0.8352(8) 0.4030(5)
O13_2 O 0.1657(5) 0.9201(7) 0.0413(4)
N1_2 N 0.1653(5) 0.7241(7) 0.0135(11)
C21_2 C 0.1601(9) 0.6831(13) 0.0913(10)
H11_2 H 0.1628 0.7512 0.1245
H12_2 H 0.2023 0.6293 0.1019
H13_2 H 0.1118 0.6418 0.0988
La5_2 La 0.31580(2) 0.64260(3) 0.51966(5)
S1_2 S 0.05115(13) 0.9537(2) 0.77222(13)
O7_2 O 0.3194(3) 0.8274(6) 0.5858(4)
O8_2 O 0.4348(4) 0.9066(6) 0.6115(3)
C8_2 C 0.2533(5) 0.9581(9) 0.7981(5)
H3_2 H 0.2086 0.9501 0.8270
C9_2 C 0.2625(5) 0.9068(10) 0.7265(5)
H4_2 H 0.2243 0.8628 0.7018
C10_2 C 0.3343(5) 0.9293(8) 0.6978(5)
C12_2 C 0.3652(5) 0.8855(8) 0.6261(5)
C19_2 C 0.1674(6) 0.8349(10) 0.9958(7)
H7_2 H 0.1705 0.8539 0.9450
C20_2 C 0.1700(9) 0.6275(13) 0.9606(12)
H8_2 H 0.1772 0.6596 0.9110
H9_2 H 0.1230 0.5815 0.9621
H10_2 H 0.2130 0.5765 0.9731
H14_2 H 0.8811 0.5979 0.0125
O15_2 O 0.8305(3) 0.2108(5) 0.0147(7)
H21_2 H 0.821(6) 0.153(8) 0.039(6)
O21_2 O 0.8746(4) 0.4248(6) 0.0963(3)
O1_2 O 0.9775(4) 0.1344(6) 0.9455(3)
C1_2 C 0.9958(5) 0.0337(8) 0.8319(4)
C2_2 C 0.9210(5) 0.0445(9) 0.8056(5)
H1_2 H 0.8820 0.0856 0.8309
O14_2 O 0.9790(4) 0.5424(6) 0.9880(4)
N2_2 N 0.9188(6) 0.6960(8) 0.9319(6)
C22_2 C 0.9233(6) 0.6096(9) 0.9807(6)
C23_2 C 0.9778(12) 0.7156(14) 0.8785(10)
H16_2 H 0.9550 0.7406 0.8318
C24_2 C 0.8511(8) 0.7715(12) 0.9259(9)
H18_2 H 0.8164 0.7543 0.9667
H19_2 H 0.8664 0.8545 0.9280
H20_2 H 0.8254 0.7560 0.8791
O18_2 O 0.8926(4) 0.3694(6) 0.9030(4)
H22_2 H 0.822442 0.187597 0.961982
C3_2 C 0.9103(5) 0.9865(8) 0.7365(5)
H2_2 H 0.8637 0.9863 0.7102
C4_2 C 0.9757(5) 0.9307(9) 0.7120(5)
C6_2 C 0.9869(5) 0.8621(9) 0.6432(5)
S1_3 S 0.44885(13) 0.4537(2) 0.27222(13)
O1_3 O 0.5225(4) 0.6344(6) 0.4455(3)
O2_3 O 0.4056(4) 0.5624(6) 0.4185(4)
O3_2 O 0.5640(4) 0.3577(6) 0.0947(3)
O4_2 O 0.4486(4) 0.3104(6) 0.1345(3)
C1_3 C 0.5042(5) 0.5337(8) 0.3319(4)
C2_3 C 0.5790(5) 0.5445(9) 0.3056(5)
H1_3 H 0.6180 0.5856 0.3309
C3_3 C 0.5897(5) 0.4865(8) 0.2365(5)
H2_3 H 0.6363 0.4863 0.2102
C4_3 C 0.5243(5) 0.4307(9) 0.2120(5)
C5_3 C 0.4747(6) 0.5814(9) 0.4053(5)
C6_3 C 0.5131(5) 0.3621(9) 0.1432(5)
S2_3 S 0.11208(12) 0.5165(2) 0.25480(13)
O5_3 O 0.2183(4) 0.5530(6) 0.4438(3)
C7_3 C 0.1833(5) 0.5207(9) 0.3205(5)
C8_3 C 0.2467(5) 0.4581(9) 0.2981(5)
H3_3 H 0.2914 0.4501 0.3270
C9_3 C 0.2375(5) 0.4068(10) 0.2265(5)
H4_3 H 0.2757 0.3628 0.2018
C10_3 C 0.1657(5) 0.4293(8) 0.1978(5)
C11_3 C 0.1687(5) 0.5754(11) 0.3948(6)
C12_3 C 0.1348(5) 0.3855(8) 0.1261(5)
S3_3 S 0.21069(12) 0.4472(2) 0.78028(13)
O9_3 O 0.2467(3) 0.5823(6) 0.6357(4)
C13_3 C 0.1495(5) 0.5128(8) 0.7184(5)
C14_3 C 0.0754(5) 0.5012(10) 0.7397(5)
H5_3 H 0.0340 0.5298 0.7114
C15_3 C 0.0664(5) 0.4426(10) 0.8077(5)
H6_3 H 0.0190 0.4299 0.8314
C16_3 C 0.1357(4) 0.4063(8) 0.8352(5)
C17_3 C 0.1760(6) 0.5607(10) 0.6455(6)
C18_3 C 0.1466(5) 0.3352(8) 0.9030(5)
O13_3 O 0.3343(5) 0.4201(7) 0.5413(4)
N1_3 N 0.3347(5) 0.2241(7) 0.5135(11)
C19_3 C 0.3326(6) 0.3349(10) 0.4958(7)
H7_3 H 0.3295 0.3539 0.4450
C20_3 C 0.3300(9) 0.1275(13) 0.4606(12)
H8_3 H 0.3228 0.1596 0.4110
H9_3 H 0.3770 0.0815 0.4621
H10_3 H 0.2870 0.0765 0.4731
C21_3 C 0.3399(9) 0.1831(13) 0.5913(10)
H11_3 H 0.3372 0.2512 0.6245
H12_3 H 0.2977 0.1293 0.6019
H13_3 H 0.3882 0.1418 0.5988
O15_3 O 0.6695(3) 0.7108(5) 0.5147(7)
H21_3 H 0.679(6) 0.653(8) 0.539(6)
O16_2 O 0.4360(4) 0.6423(6) 0.5947(3)
O17_2 O 0.5514(4) 0.6896(6) 0.6345(3)
H22_3 H 0.677558 0.687597 0.461982
S3_4 S 0.78931(12) 0.5528(2) 0.28028(13)
O9_4 O 0.7533(3) 0.4177(6) 0.1357(4)
C13_4 C 0.8505(5) 0.4872(8) 0.2184(5)
C14_4 C 0.9246(5) 0.4988(10) 0.2397(5)
H5_4 H 0.9660 0.4702 0.2114
C15_4 C 0.9336(5) 0.5574(10) 0.3077(5)
H6_4 H 0.9810 0.5701 0.3314
C16_4 C 0.8643(4) 0.5937(8) 0.3352(5)
C17_4 C 0.8240(6) 0.4393(10) 0.1455(6)
C18_4 C 0.8534(5) 0.6648(8) 0.4030(5)
O13_4 O 0.6657(5) 0.5799(7) 0.0413(4)
N1_4 N 0.6653(5) 0.7759(7) 0.0135(11)
C21_4 C 0.6601(9) 0.8169(13) 0.0913(10)
H11_4 H 0.6628 0.7488 0.1245
H12_4 H 0.7023 0.8707 0.1019
H13_4 H 0.6118 0.8582 0.0988
O15_4 O 0.3305(3) 0.2892(5) 0.0147(7)
H21_4 H 0.321(6) 0.347(8) 0.039(6)
S1_4 S 0.55115(13) 0.5463(2) 0.77222(13)
O1_4 O 0.4775(4) 0.3656(6) 0.9455(3)
O2_4 O 0.5944(4) 0.4376(6) 0.9185(4)
C1_4 C 0.4958(5) 0.4663(8) 0.8319(4)
C2_4 C 0.4210(5) 0.4555(9) 0.8056(5)
H1_4 H 0.3820 0.4144 0.8309
C3_4 C 0.4103(5) 0.5135(8) 0.7365(5)
H2_4 H 0.3637 0.5137 0.7102
C4_4 C 0.4757(5) 0.5693(9) 0.7120(5)
C5_4 C 0.5253(6) 0.4186(9) 0.9053(5)
C6_4 C 0.4869(5) 0.6379(9) 0.6432(5)
S2_4 S 0.88792(12) 0.4835(2) 0.75480(13)
O5_4 O 0.7817(4) 0.4470(6) 0.9438(3)
C7_4 C 0.8167(5) 0.4793(9) 0.8205(5)
C8_4 C 0.7533(5) 0.5419(9) 0.7981(5)
H3_4 H 0.7086 0.5499 0.8270
C9_4 C 0.7625(5) 0.5932(10) 0.7265(5)
H4_4 H 0.7243 0.6372 0.7018
C10_4 C 0.8343(5) 0.5707(8) 0.6978(5)
C11_4 C 0.8313(5) 0.4246(11) 0.8948(6)
C12_4 C 0.8652(5) 0.6145(8) 0.6261(5)
C19_4 C 0.6674(6) 0.6651(10) 0.9958(7)
H7_4 H 0.6705 0.6461 0.9450
C20_4 C 0.6700(9) 0.8725(13) 0.9606(12)
H8_4 H 0.6772 0.8404 0.9110
H9_4 H 0.6230 0.9185 0.9621
H10_4 H 0.7130 0.9235 0.9731
H22_4 H 0.322442 0.312403 0.961982
O14_3 O 0.5210(4) 0.0424(6) 0.4880(4)
N2_3 N 0.5812(6) 0.1960(8) 0.4319(6)
C22_3 C 0.5767(6) 0.1096(9) 0.4807(6)
H14_3 H 0.6189 0.0979 0.5125
C23_3 C 0.5222(12) 0.2156(14) 0.3785(10)
H15_3 H 0.4938 0.1423 0.3709
H16_3 H 0.5450 0.2406 0.3318
H17_3 H 0.4878 0.2771 0.3963
C24_3 C 0.6489(8) 0.2715(12) 0.4259(9)
H18_3 H 0.6836 0.2543 0.4667
H19_3 H 0.6336 0.3545 0.4280
H20_3 H 0.6746 0.2560 0.3791
H14_4 H 0.3811 0.9021 0.0125
O14_4 O 0.4790(4) 0.9576(6) 0.9880(4)
N2_4 N 0.4188(6) 0.8040(8) 0.9319(6)
C22_4 C 0.4233(6) 0.8904(9) 0.9807(6)
C23_4 C 0.4778(12) 0.7844(14) 0.8785(10)
H15_4 H 0.5062 0.8577 0.8709
H16_4 H 0.4550 0.7594 0.8318
H17_4 H 0.5122 0.7229 0.8963
C24_4 C 0.3511(8) 0.7285(12) 0.9259(9)
H18_4 H 0.3164 0.7457 0.9667
H19_4 H 0.3664 0.6455 0.9280
H20_4 H 0.3254 0.7440 0.8791
loop_
_geom_bond_atom_site_label_1
_geom_bond_atom_site_label_2
_geom_bond_site_symmetry_1
_geom_bond_site_symmetry_2
O3 C6 1_555 1_555
H2 C3 1_555 1_555
C6 C4 1_555 1_555
La3 O3 1_555 1_555
C3 C4 1_555 1_555
La2 O1 1_555 1_555
C1 C2 1_555 1_555
C2 H1 1_555 1_555
O14 La2 1_555 1_555
N2 C22 1_555 1_555
C22 O14 1_555 1_555
H14 C22 1_555 1_555
C23 N2 1_555 1_555
H16 C23 1_555 1_555
C24 N2 1_555 1_555
H18 C24 1_555 1_555
H19 C24 1_555 1_555
H20 C24 1_555 1_555
O15 La2 1_555 1_555
H21 O15 1_555 1_555
O17 La2 1_555 1_555
O18 La2 1_555 1_555
O21 La2 1_555 1_555
O15 H22 1_555 1_555
O7 C12 1_555 1_555
O8 C12 1_555 1_555
C8 H3 1_555 1_555
C9 C8 1_555 1_555
H4 C9 1_555 1_555
C12 C10 1_555 1_555
O11 C18 1_555 1_555
O12 C18 1_555 1_555
H6 C15 1_555 1_555
C16 S3 1_555 1_555
C18 C16 1_555 1_555
N1 C19 1_555 1_555
C19 O13 1_555 1_555
H7 C19 1_555 1_555
C20 N1 1_555 1_555
H8 C20 1_555 1_555
H9 C20 1_555 1_555
H10 C20 1_555 1_555
C21 N1 1_555 1_555
H11 C21 1_555 1_555
H12 C21 1_555 1_555
H13 C21 1_555 1_555
La5 O7 1_555 1_555
La6 O4 1_555 1_555
La9 O8 1_555 1_555
C9 C10 1_555 1_555
C15 C16 1_555 1_555
La1 O2 1_555 1_555
O2 C5 1_555 1_555
S2 C7 1_555 1_555
O5 La1 1_555 1_555
O6 C11 1_555 1_555
C11 O5 1_555 1_555
O9 La1 1_555 1_555
O10 C17 1_555 1_555
C13 C14 1_555 1_555
C14 H5 1_555 1_555
C17 O9 1_555 1_555
La7 O6 1_555 1_555
O16 La1 1_555 1_555
O19 La1 1_555 1_555
O22 La1 1_555 1_555
O23 La1 1_555 1_555
C7 C11 1_555 1_555
O10 La7 1_555 1_555
C13 C17 1_555 1_555
O9_2 La3 1_555 1_555
O10_2 C17_2 1_555 1_555
C13_2 C14_2 1_555 1_555
C14_2 H5_2 1_555 1_555
C17_2 O9_2 1_555 1_555
O19_2 La3 1_555 1_555
O10_2 La9 1_555 1_555
C13_2 C17_2 1_555 1_555
O2_2 C5_2 1_555 1_555
S2_2 C7_2 1_555 1_555
O6_2 C11_2 1_555 1_555
C11_2 O5_2 1_555 1_555
C7_2 C11_2 1_555 1_555
O11_2 C18_2 1_555 1_555
O12_2 C18_2 1_555 1_555
H6_2 C15_2 1_555 1_555
C16_2 S3_2 1_555 1_555
C18_2 C16_2 1_555 1_555
C21_2 N1_2 1_555 1_555
H11_2 C21_2 1_555 1_555
H12_2 C21_2 1_555 1_555
H13_2 C21_2 1_555 1_555
La5_2 O11_2 1_555 1_555
La7 O12_2 1_555 1_555
O12_2 La5_2 1_555 1_555
C15_2 C16_2 1_555 1_555
O7_2 C12_2 1_555 1_555
O8_2 C12_2 1_555 1_555
C8_2 H3_2 1_555 1_555
C9_2 C8_2 1_555 1_555
H4_2 C9_2 1_555 1_555
C12_2 C10_2 1_555 1_555
H7_2 C19_2 1_555 1_555
H8_2 C20_2 1_555 1_555
H9_2 C20_2 1_555 1_555
H10_2 C20_2 1_555 1_555
La5_2 O7_2 1_555 1_555
La7 O8_2 1_555 1_555
C9_2 C10_2 1_555 1_555
O15_2 La6 1_555 1_555
H21_2 O15_2 1_555 1_555
O21_2 La6 1_555 1_555
C1_2 C2_2 1_555 1_555
C2_2 H1_2 1_555 1_555
N2_2 C22_2 1_555 1_555
C22_2 O14_2 1_555 1_555
C23_2 N2_2 1_555 1_555
H16_2 C23_2 1_555 1_555
C24_2 N2_2 1_555 1_555
H18_2 C24_2 1_555 1_555
H19_2 C24_2 1_555 1_555
H20_2 C24_2 1_555 1_555
O16 C6_2 1_555 1_555
H2_2 C3_2 1_555 1_555
C6_2 C4_2 1_555 1_555
C3_2 C4_2 1_555 1_555
La5_2 O2_3 1_555 1_555
La7 O1_3 1_555 1_555
S1_3 C1_3 1_555 1_555
O1_3 C5_3 1_555 1_555
O2_3 C5_3 1_555 1_555
O3_2 C6_3 1_555 1_555
O4_2 C6_3 1_555 1_555
C1_3 C2_3 1_555 1_555
C2_3 H1_3 1_555 1_555
C3_3 C2_3 1_555 1_555
H2_3 C3_3 1_555 1_555
C4_3 S1_3 1_555 1_555
C5_3 C1_3 1_555 1_555
C6_3 C4_3 1_555 1_555
S2_3 C7_3 1_555 1_555
O5_3 La5_2 1_555 1_555
O18 C11_3 1_555 1_555
O19_2 C12_3 1_555 1_555
O20_2 C12_3 1_555 1_555
C7_3 C8_3 1_555 1_555
C8_3 H3_3 1_555 1_555
C9_3 C8_3 1_555 1_555
H4_3 C9_3 1_555 1_555
C10_3 S2_3 1_555 1_555
C11_3 O5_3 1_555 1_555
C12_3 C10_3 1_555 1_555
S3_3 C13_3 1_555 1_555
O9_3 La5_2 1_555 1_555
O21 C17_3 1_555 1_555
O22_2 C18_3 1_555 1_555
O23_2 C18_3 1_555 1_555
C13_3 C14_3 1_555 1_555
C14_3 H5_3 1_555 1_555
C15_3 C14_3 1_555 1_555
H6_3 C15_3 1_555 1_555
C16_3 S3_3 1_555 1_555
C17_3 O9_3 1_555 1_555
C18_3 C16_3 1_555 1_555
O13_3 La5_2 1_555 1_555
N1_3 C19_3 1_555 1_555
C19_3 O13_3 1_555 1_555
H7_3 C19_3 1_555 1_555
C20_3 N1_3 1_555 1_555
H8_3 C20_3 1_555 1_555
H9_3 C20_3 1_555 1_555
H10_3 C20_3 1_555 1_555
C21_3 N1_3 1_555 1_555
H11_3 C21_3 1_555 1_555
H12_3 C21_3 1_555 1_555
H13_3 C21_3 1_555 1_555
O15_3 La7 1_555 1_555
H21_3 O15_3 1_555 1_555
La5 O3_2 1_555 1_555
La9 O4_2 1_555 1_555
O16_2 La5_2 1_555 1_555
O17_2 La7 1_555 1_555
C3_3 C4_3 1_555 1_555
C7_3 C11_3 1_555 1_555
C9_3 C10_3 1_555 1_555
C13_3 C17_3 1_555 1_555
C15_3 C16_3 1_555 1_555
O15_3 H22_3 1_555 1_555
S3_4 C13_4 1_555 1_555
O9_4 La5 1_555 1_555
O21_2 C17_4 1_555 1_555
O22 C18_4 1_555 1_555
O23 C18_4 1_555 1_555
C13_4 C14_4 1_555 1_555
C14_4 H5_4 1_555 1_555
C15_4 C14_4 1_555 1_555
H6_4 C15_4 1_555 1_555
C16_4 S3_4 1_555 1_555
C17_4 O9_4 1_555 1_555
C18_4 C16_4 1_555 1_555
O13_4 La5 1_555 1_555
C21_4 N1_4 1_555 1_555
H11_4 C21_4 1_555 1_555
H12_4 C21_4 1_555 1_555
H13_4 C21_4 1_555 1_555
O15_4 La9 1_555 1_555
H21_4 O15_4 1_555 1_555
C13_4 C17_4 1_555 1_555
C15_4 C16_4 1_555 1_555
S1_4 C1_4 1_555 1_555
O1_4 C5_4 1_555 1_555
O2_4 C5_4 1_555 1_555
O16_2 C6_4 1_555 1_555
O17_2 C6_4 1_555 1_555
C1_4 C2_4 1_555 1_555
C2_4 H1_4 1_555 1_555
C3_4 C2_4 1_555 1_555
H2_4 C3_4 1_555 1_555
C4_4 S1_4 1_555 1_555
C5_4 C1_4 1_555 1_555
C6_4 C4_4 1_555 1_555
S2_4 C7_4 1_555 1_555
O18_2 C11_4 1_555 1_555
O19 C12_4 1_555 1_555
O20 C12_4 1_555 1_555
C7_4 C8_4 1_555 1_555
C8_4 H3_4 1_555 1_555
C9_4 C8_4 1_555 1_555
H4_4 C9_4 1_555 1_555
C10_4 S2_4 1_555 1_555
C11_4 O5_4 1_555 1_555
C12_4 C10_4 1_555 1_555
H7_4 C19_4 1_555 1_555
H8_4 C20_4 1_555 1_555
H9_4 C20_4 1_555 1_555
H10_4 C20_4 1_555 1_555
C3_4 C4_4 1_555 1_555
C7_4 C11_4 1_555 1_555
C9_4 C10_4 1_555 1_555
N2_3 C22_3 1_555 1_555
C22_3 O14_3 1_555 1_555
H14_3 C22_3 1_555 1_555
C23_3 N2_3 1_555 1_555
H15_3 C23_3 1_555 1_555
H16_3 C23_3 1_555 1_555
H17_3 C23_3 1_555 1_555
C24_3 N2_3 1_555 1_555
H18_3 C24_3 1_555 1_555
H19_3 C24_3 1_555 1_555
H20_3 C24_3 1_555 1_555
N2_4 C22_4 1_555 1_555
C22_4 O14_4 1_555 1_555
C23_4 N2_4 1_555 1_555
H15_4 C23_4 1_555 1_555
H16_4 C23_4 1_555 1_555
H17_4 C23_4 1_555 1_555
C24_4 N2_4 1_555 1_555
H18_4 C24_4 1_555 1_555
H19_4 C24_4 1_555 1_555
H20_4 C24_4 1_555 1_555

#END
