
###############################################################################
#
# This file contains modified crystal structure data generated from the
# MOF subset of the Cambridge Structural Database (CSD) v543 
# hosted by the Cambridge Crystallographic Data Centre (CCDC).
#
# This work is licensed under the Creative Commons
# Attribution-NonCommercial-ShareAlike 4.0 International License.
# To view a copy of this license, visit
# http://creativecommons.org/licenses/by-nc-sa/4.0/
# or send a letter to
# Creative Commons, PO Box 1866, Mountain View, CA 94042, USA.
#
# CIF created using the CSD Python API on 29 September 2022
# The structure has been converted into the P1 space group
# The structure has a 3D framework
# The original CSD entry FULYIW is in the monoclinic crystal system
# The framework has been calculated to contain at least 10.0% void space
# The void calculation uses a probe of radius 1.32A, grid spacing 0.4
#
###############################################################################

data_FULYIW
_chemical_formula_moiety         '(C160 H112 Cd8 N32 O32)n'
_symmetry_cell_setting           triclinic
_symmetry_space_group_name_H-M   'P 1'
_symmetry_Int_Tables_number      1
_space_group_name_Hall           'P 1'
loop_
_symmetry_equiv_pos_site_id
_symmetry_equiv_pos_as_xyz
1 x,y,z
_cell_length_a                   10.4582(5)
_cell_length_b                   31.6357(16)
_cell_length_c                   15.2842(7)
_cell_angle_alpha                90
_cell_angle_beta                 111.496(3)
_cell_angle_gamma                90
_cell_volume                     4705.08
loop_
_atom_site_label
_atom_site_type_symbol
_atom_site_fract_x
_atom_site_fract_y
_atom_site_fract_z
O10 O 0.1326(7) 0.1387(2) 0.1520(5)
O12 O 0.1484(7) 0.1463(2) 0.2977(5)
Cd2 Cd 0.91327(6) 0.142632(19) 0.15669(4)
O2 O 0.6713(7) 0.1461(2) 0.0526(5)
O9 O 0.8524(7) 0.1428(2) 0.2878(5)
N9 N 0.9130(8) 0.2158(2) 0.1624(6)
N10 N 0.8823(9) 0.0690(3) 0.1539(6)
Cd1 Cd 0.09316(6) 0.140653(19) 0.43214(4)
O1 O 0.8359(7) 0.1401(2) 0.9932(5)
O3 O 0.1740(6) 0.1370(2) 0.5965(5)
O4 O 0.3333(7) 0.1444(2) 0.5371(5)
N4 N 0.1281(9) 0.0676(3) 0.4250(6)
N5 N 0.0896(8) 0.2134(2) 0.4303(6)
N6 N 0.1700(11) 0.3711(3) 0.4198(9)
N7 N 0.1392(12) 0.4143(3) 0.4201(9)
N8 N 0.1177(9) 0.5690(3) 0.3461(6)
C7 C 0.1336(16) 0.0439(4) 0.4954(11)
H6 H 0.1291 0.0569 0.5488
C8 C 0.1457(15) 0.0003(4) 0.4959(10)
C10 C 0.1563(12) 0.0057(4) 0.3475(9)
C11 C 0.1438(11) 0.0484(3) 0.3545(8)
H9 H 0.1468 0.0650 0.3051
C12 C 0.1997(11) 0.2364(3) 0.4326(10)
H10 H 0.2781 0.2220 0.4341
C13 C 0.2024(13) 0.2795(4) 0.4329(11)
H11 H 0.2810 0.2936 0.4338
C16 C 0.0888(10) 0.3027(3) 0.4318(7)
C17 C 0.0816(11) 0.3484(3) 0.4340(7)
H14 H 0.0097 0.3611 0.4463
C18 C 0.7099(9) 0.1430(3) 0.9845(7)
C19 C 0.6029(9) 0.1434(3) 0.8855(7)
C20 C 0.6409(9) 0.1405(4) 0.8078(7)
H15 H 0.7335 0.1386 0.8165
C21 C 0.4628(9) 0.1452(3) 0.8716(7)
H16 H 0.4359 0.1469 0.9231
C22 C 0.5434(10) 0.1405(3) 0.7180(7)
H17 H 0.5710 0.1398 0.6667
C23 C 0.0950(15) 0.5027(4) 0.4099(10)
H18 H 0.0649 0.4877 0.4510
C24 C 0.0765(15) 0.5468(3) 0.4012(9)
H19 H 0.0328 0.5603 0.4365
C25 C 0.1769(15) 0.5489(4) 0.2941(12)
H20 H 0.2108 0.5649 0.2564
C26 C 0.1904(17) 0.5054(4) 0.2936(13)
H21 H 0.2214 0.4919 0.2511
C27 C 0.1556(12) 0.4828(4) 0.3593(11)
C28 C 0.2970(9) 0.1409(3) 0.6057(6)
C29 C 0.4048(9) 0.1416(3) 0.7033(6)
C30 C 0.3661(10) 0.1445(3) 0.7833(7)
H22 H 0.2735 0.1459 0.7750
C31 C 0.1785(14) 0.4363(4) 0.3667(12)
H23 H 0.2227 0.4234 0.3309
Cd7 Cd 0.08673(6) 0.642632(19) 0.34331(4)
N1 N 0.0870(8) 0.7158(2) 0.3376(6)
N2 N 0.1861(10) 0.8722(3) 0.3496(7)
N3 N 0.1697(10) 0.9156(3) 0.3452(8)
C1 C 0.1968(11) 0.7374(3) 0.3456(10)
H1 H 0.2763 0.7224 0.3520
C2 C 0.2030(11) 0.7808(3) 0.3452(10)
H2 H 0.2841 0.7943 0.3495
C3 C 0.0890(10) 0.8041(3) 0.3383(7)
C6 C 0.0823(11) 0.8502(3) 0.3372(7)
H7 H 0.1452 0.9846 0.5472
C9 C 0.1585(12) 0.9803(3) 0.4188(9)
H8 H 0.1632 0.9942 0.2935
C32 C 0.1722(13) 0.9349(4) 0.4214(10)
H24 H 0.1825 0.9198 0.4758
O6 O 0.8717(7) 0.1376(2) 0.4354(5)
C14 C 0.9782(12) 0.2799(3) 0.4313(10)
H12 H 0.8998 0.2935 0.4319
C15 C 0.9835(11) 0.2367(4) 0.4298(10)
H13 H 0.9053 0.2222 0.4283
C33 C 0.7991(8) 0.1407(3) 0.3493(7)
C34 C 0.6445(8) 0.1419(3) 0.3196(7)
C35 C 0.5616(9) 0.1412(3) 0.2250(7)
H25 H 0.6003 0.1407 0.1791
C36 C 0.5863(9) 0.1443(3) 0.3878(7)
H26 H 0.6426 0.1451 0.4511
C37 C 0.2050(9) 0.1422(3) 0.2391(7)
C38 C 0.3592(8) 0.1426(3) 0.2667(7)
C39 C 0.4426(11) 0.1455(3) 0.3616(7)
H27 H 0.4036 0.1482 0.4071
C40 C 0.4199(9) 0.1411(3) 0.2000(7)
H28 H 0.3642 0.1401 0.1366
O5 O 0.1476(7) 0.6428(2) 0.2122(5)
O6_2 O 0.1283(7) 0.6376(2) 0.0646(5)
O7 O 0.8674(7) 0.6387(2) 0.3480(5)
O8 O 0.8516(7) 0.6463(2) 0.2023(5)
C4 C 0.0256(11) 0.2813(3) 0.1675(10)
H3 H 0.1047 0.2955 0.1703
C5 C 0.0260(10) 0.2384(3) 0.1694(9)
H4 H 0.1066 0.2242 0.1755
H5 H 0.0014 0.3634 0.1731
C14_2 C 0.0218(12) 0.7799(3) 0.0687(10)
H12_2 H 0.1002 0.7935 0.0681
C15_2 C 0.0165(11) 0.7367(4) 0.0702(10)
H13_2 H 0.0947 0.7222 0.0717
C33_2 C 0.2009(8) 0.6407(3) 0.1507(7)
C34_2 C 0.3555(8) 0.6419(3) 0.1804(7)
C35_2 C 0.4384(9) 0.6412(3) 0.2750(7)
H25_2 H 0.3997 0.6407 0.3209
C36_2 C 0.4137(9) 0.6443(3) 0.1122(7)
H26_2 H 0.3574 0.6451 0.0489
C37_2 C 0.7950(9) 0.6422(3) 0.2609(7)
C38_2 C 0.6408(8) 0.6426(3) 0.2333(7)
C39_2 C 0.5574(11) 0.6455(3) 0.1384(7)
H27_2 H 0.5964 0.6482 0.0929
C40_2 C 0.5801(9) 0.6411(3) 0.3000(7)
H28_2 H 0.6358 0.6401 0.3634
Cd3 Cd 0.90684(6) 0.640653(19) 0.06786(4)
C23_2 C 0.9050(15) 0.0027(4) 0.0901(10)
C24_2 C 0.9235(15) 0.0468(3) 0.0988(9)
H19_2 H 0.9672 0.0603 0.0635
C25_2 C 0.8231(15) 0.0489(4) 0.2059(12)
H20_2 H 0.7892 0.0649 0.2436
C26_2 C 0.8096(17) 0.0054(4) 0.2064(13)
N2_2 N 0.8139(10) 0.3722(3) 0.1504(7)
N3_2 N 0.8303(10) 0.4156(3) 0.1548(8)
N4_2 N 0.8719(9) 0.5676(3) 0.0750(6)
N5_2 N 0.9104(8) 0.7134(2) 0.0697(6)
N6_2 N 0.8300(11) 0.8711(3) 0.0802(9)
N7_2 N 0.8608(12) 0.9143(3) 0.0799(9)
C1_2 C 0.8032(11) 0.2374(3) 0.1544(10)
H1_2 H 0.7237 0.2224 0.1480
C2_2 C 0.7970(11) 0.2808(3) 0.1548(10)
H2_2 H 0.7159 0.2943 0.1505
C3_2 C 0.9110(10) 0.3041(3) 0.1617(7)
C6_2 C 0.9177(11) 0.3502(3) 0.1628(7)
C7_2 C 0.8664(16) 0.5439(4) 0.0046(11)
C8_2 C 0.8543(15) 0.5003(4) 0.0041(10)
C9_2 C 0.8415(12) 0.4803(3) 0.0812(9)
C10_2 C 0.8437(12) 0.5057(4) 0.1525(9)
H8_2 H 0.8368 0.4942 0.2065
C11_2 C 0.8562(11) 0.5484(3) 0.1455(8)
H9_2 H 0.8532 0.5650 0.1949
C12_2 C 0.8003(11) 0.7364(3) 0.0674(10)
H10_2 H 0.7219 0.7220 0.0659
C13_2 C 0.7976(13) 0.7795(4) 0.0671(11)
H11_2 H 0.7190 0.7936 0.0662
C16_2 C 0.9112(10) 0.8027(3) 0.0682(7)
C17_2 C 0.9184(11) 0.8484(3) 0.0660(7)
H14_2 H 0.9903 0.8611 0.0537
H18_2 H 0.9351 0.9877 0.0490
H21_2 H 0.7786 0.9919 0.2489
C27_2 C 0.8444(12) 0.9828(4) 0.1407(11)
C31_2 C 0.8215(14) 0.9363(4) 0.1333(12)
H23_2 H 0.7773 0.9234 0.1691
C32_2 C 0.8278(13) 0.4349(4) 0.0786(10)
H24_2 H 0.8175 0.4198 0.0242
O1_2 O 0.1641(7) 0.6401(2) 0.5068(5)
O2_2 O 0.3287(7) 0.6461(2) 0.4474(5)
O3_2 O 0.8260(6) 0.6370(2) 0.9035(5)
O4_2 O 0.6667(7) 0.6444(2) 0.9629(5)
H6_2 H 0.8709 0.5569 0.9512
H7_2 H 0.8548 0.4846 0.9528
C18_2 C 0.2901(9) 0.6430(3) 0.5155(7)
C19_2 C 0.3971(9) 0.6434(3) 0.6145(7)
C20_2 C 0.3591(9) 0.6405(4) 0.6922(7)
H15_2 H 0.2665 0.6386 0.6835
C21_2 C 0.5372(9) 0.6452(3) 0.6284(7)
H16_2 H 0.5641 0.6469 0.5769
C22_2 C 0.4566(10) 0.6405(3) 0.7820(7)
H17_2 H 0.4290 0.6398 0.8333
C28_2 C 0.7030(9) 0.6409(3) 0.8943(6)
C29_2 C 0.5952(9) 0.6416(3) 0.7967(6)
C30_2 C 0.6339(10) 0.6445(3) 0.7167(7)
H22_2 H 0.7265 0.6459 0.7250
C4_2 C 0.9744(11) 0.7813(3) 0.3325(10)
H3_2 H 0.8953 0.7955 0.3297
C5_2 C 0.9740(10) 0.7384(3) 0.3306(9)
H4_2 H 0.8934 0.7242 0.3245
H5_2 H 0.9986 0.8634 0.3269
Cd4 Cd 0.08673(6) 0.857368(19) 0.84331(4)
O5_2 O 0.1476(7) 0.8572(2) 0.7122(5)
O6_3 O 0.1283(7) 0.8624(2) 0.5646(5)
O7_2 O 0.8674(7) 0.8613(2) 0.8480(5)
O8_2 O 0.8516(7) 0.8537(2) 0.7023(5)
C14_3 C 0.0218(12) 0.7201(3) 0.5687(10)
H12_3 H 0.1002 0.7065 0.5681
C15_3 C 0.0165(11) 0.7633(4) 0.5702(10)
H13_3 H 0.0947 0.7778 0.5717
C33_3 C 0.2009(8) 0.8593(3) 0.6507(7)
C34_3 C 0.3555(8) 0.8581(3) 0.6804(7)
C35_3 C 0.4384(9) 0.8588(3) 0.7750(7)
H25_3 H 0.3997 0.8593 0.8209
C36_3 C 0.4137(9) 0.8557(3) 0.6122(7)
H26_3 H 0.3574 0.8549 0.5489
C37_3 C 0.7950(9) 0.8578(3) 0.7609(7)
C38_3 C 0.6408(8) 0.8574(3) 0.7333(7)
C39_3 C 0.5574(11) 0.8545(3) 0.6384(7)
H27_3 H 0.5964 0.8518 0.5929
C40_3 C 0.5801(9) 0.8589(3) 0.8000(7)
H28_3 H 0.6358 0.8599 0.8634
Cd3_2 Cd 0.90684(6) 0.859347(19) 0.56786(4)
N1_2 N 0.9130(8) 0.2842(2) 0.6624(6)
N2_3 N 0.8139(10) 0.1278(3) 0.6504(7)
N3_3 N 0.8303(10) 0.0844(3) 0.6548(8)
C1_3 C 0.8032(11) 0.2626(3) 0.6544(10)
H1_3 H 0.7237 0.2776 0.6480
C2_3 C 0.7970(11) 0.2192(3) 0.6548(10)
H2_3 H 0.7159 0.2057 0.6505
C3_3 C 0.9110(10) 0.1959(3) 0.6617(7)
C6_3 C 0.9177(11) 0.1498(3) 0.6628(7)
H7_3 H 0.8548 0.0154 0.4528
C9_3 C 0.8415(12) 0.0197(3) 0.5812(9)
H8_3 H 0.8368 0.0058 0.7065
C32_3 C 0.8278(13) 0.0651(4) 0.5786(10)
H24_3 H 0.8175 0.0802 0.5242
Cd6 Cd 0.91327(6) 0.357368(19) 0.65669(4)
O1_3 O 0.1641(7) 0.8599(2) 0.0068(5)
O3_3 O 0.8260(6) 0.8630(2) 0.4035(5)
O4_3 O 0.6667(7) 0.8556(2) 0.4629(5)
N4_3 N 0.8719(9) 0.9324(3) 0.5750(6)
N5_3 N 0.9104(8) 0.7866(2) 0.5697(6)
N6_3 N 0.8300(11) 0.6289(3) 0.5802(9)
N7_3 N 0.8608(12) 0.5857(3) 0.5799(9)
N8_2 N 0.8823(9) 0.4310(3) 0.6539(6)
C7_3 C 0.8664(16) 0.9561(4) 0.5046(11)
H6_3 H 0.8709 0.9431 0.4512
C8_3 C 0.8543(15) 0.9997(4) 0.5041(10)
C10_3 C 0.8437(12) 0.9943(4) 0.6525(9)
C11_3 C 0.8562(11) 0.9516(3) 0.6455(8)
H9_3 H 0.8532 0.9350 0.6949
C12_3 C 0.8003(11) 0.7636(3) 0.5674(10)
H10_3 H 0.7219 0.7780 0.5659
C13_3 C 0.7976(13) 0.7205(4) 0.5671(11)
H11_3 H 0.7190 0.7064 0.5662
C16_3 C 0.9112(10) 0.6973(3) 0.5682(7)
C17_3 C 0.9184(11) 0.6516(3) 0.5660(7)
H14_3 H 0.9903 0.6389 0.5537
C18_3 C 0.2901(9) 0.8570(3) 0.0155(7)
C19_3 C 0.3971(9) 0.8566(3) 0.1145(7)
C20_3 C 0.3591(9) 0.8595(4) 0.1922(7)
H15_3 H 0.2665 0.8614 0.1835
C21_3 C 0.5372(9) 0.8548(3) 0.1284(7)
H16_3 H 0.5641 0.8531 0.0769
C22_3 C 0.4566(10) 0.8595(3) 0.2820(7)
H17_3 H 0.4290 0.8602 0.3333
C23_3 C 0.9050(15) 0.4973(4) 0.5901(10)
H18_3 H 0.9351 0.5123 0.5490
C24_3 C 0.9235(15) 0.4532(3) 0.5988(9)
H19_3 H 0.9672 0.4397 0.5635
C25_3 C 0.8231(15) 0.4511(4) 0.7059(12)
H20_3 H 0.7892 0.4351 0.7436
C26_3 C 0.8096(17) 0.4946(4) 0.7064(13)
H21_3 H 0.7786 0.5081 0.7489
C27_3 C 0.8444(12) 0.5172(4) 0.6407(11)
C28_3 C 0.7030(9) 0.8591(3) 0.3943(6)
C29_3 C 0.5952(9) 0.8584(3) 0.2967(6)
C30_3 C 0.6339(10) 0.8555(3) 0.2167(7)
H22_3 H 0.7265 0.8541 0.2250
C31_3 C 0.8215(14) 0.5637(4) 0.6333(12)
H23_3 H 0.7773 0.5766 0.6691
O2_3 O 0.3287(7) 0.8539(2) 0.9474(5)
N9_2 N 0.0870(8) 0.7842(2) 0.8376(6)
N10_2 N 0.1177(9) 0.9310(3) 0.8461(6)
O10_2 O 0.1326(7) 0.3613(2) 0.6520(5)
O12_2 O 0.1484(7) 0.3537(2) 0.7977(5)
O1_4 O 0.8359(7) 0.3599(2) 0.4932(5)
O2_4 O 0.6713(7) 0.3539(2) 0.5526(5)
O3_4 O 0.1740(6) 0.3630(2) 0.0965(5)
O4_4 O 0.3333(7) 0.3556(2) 0.0371(5)
H6_4 H 0.1291 0.4431 0.0488
H7_4 H 0.1452 0.5154 0.0472
C18_4 C 0.7099(9) 0.3570(3) 0.4845(7)
C19_4 C 0.6029(9) 0.3566(3) 0.3855(7)
C20_4 C 0.6409(9) 0.3595(4) 0.3078(7)
H15_4 H 0.7335 0.3614 0.3165
C21_4 C 0.4628(9) 0.3548(3) 0.3716(7)
H16_4 H 0.4359 0.3531 0.4231
C22_4 C 0.5434(10) 0.3595(3) 0.2180(7)
H17_4 H 0.5710 0.3602 0.1667
C28_4 C 0.2970(9) 0.3591(3) 0.1057(6)
C29_4 C 0.4048(9) 0.3584(3) 0.2033(6)
C30_4 C 0.3661(10) 0.3555(3) 0.2833(7)
H22_4 H 0.2735 0.3541 0.2750
O9_2 O 0.8524(7) 0.3572(2) 0.7878(5)
Cd1_2 Cd 0.09316(6) 0.359347(19) 0.93214(4)
N2_4 N 0.1861(10) 0.6278(3) 0.8496(7)
N3_4 N 0.1697(10) 0.5844(3) 0.8452(8)
N4_4 N 0.1281(9) 0.4324(3) 0.9250(6)
N5_4 N 0.0896(8) 0.2866(2) 0.9303(6)
N6_4 N 0.1700(11) 0.1289(3) 0.9198(9)
N7_4 N 0.1392(12) 0.0857(3) 0.9201(9)
C1_4 C 0.1968(11) 0.7626(3) 0.8456(10)
H1_4 H 0.2763 0.7776 0.8520
C2_4 C 0.2030(11) 0.7192(3) 0.8452(10)
H2_4 H 0.2841 0.7057 0.8495
C3_4 C 0.0890(10) 0.6959(3) 0.8383(7)
C6_4 C 0.0823(11) 0.6498(3) 0.8372(7)
C7_4 C 0.1336(16) 0.4561(4) 0.9954(11)
C8_4 C 0.1457(15) 0.4997(4) 0.9959(10)
C9_4 C 0.1585(12) 0.5197(3) 0.9188(9)
C10_4 C 0.1563(12) 0.4943(4) 0.8475(9)
H8_4 H 0.1632 0.5058 0.7935
C11_4 C 0.1438(11) 0.4516(3) 0.8545(8)
H9_4 H 0.1468 0.4350 0.8051
C12_4 C 0.1997(11) 0.2636(3) 0.9326(10)
H10_4 H 0.2781 0.2780 0.9341
C13_4 C 0.2024(13) 0.2205(4) 0.9329(11)
H11_4 H 0.2810 0.2064 0.9338
C16_4 C 0.0888(10) 0.1973(3) 0.9318(7)
C17_4 C 0.0816(11) 0.1516(3) 0.9340(7)
H14_4 H 0.0097 0.1389 0.9463
H18_4 H 0.0649 0.0123 0.9510
H21_4 H 0.2214 0.0081 0.7511
C27_4 C 0.1556(12) 0.0172(4) 0.8593(11)
C31_4 C 0.1785(14) 0.0637(4) 0.8667(12)
H23_4 H 0.2227 0.0766 0.8309
C32_4 C 0.1722(13) 0.5651(4) 0.9214(10)
H24_4 H 0.1825 0.5802 0.9758
C23_4 C 0.0950(15) 0.9973(4) 0.9099(10)
C24_4 C 0.0765(15) 0.9532(3) 0.9012(9)
H19_4 H 0.0328 0.9397 0.9365
C25_4 C 0.1769(15) 0.9511(4) 0.7941(12)
H20_4 H 0.2108 0.9351 0.7564
C26_4 C 0.1904(17) 0.9946(4) 0.7936(13)
O6_4 O 0.8717(7) 0.3624(2) 0.9354(5)
C4_3 C 0.9744(11) 0.7187(3) 0.8325(10)
H3_3 H 0.8953 0.7045 0.8297
C5_3 C 0.9740(10) 0.7616(3) 0.8306(9)
H4_3 H 0.8934 0.7758 0.8245
H5_3 H 0.9986 0.6366 0.8269
C14_4 C 0.9782(12) 0.2201(3) 0.9313(10)
H12_4 H 0.8998 0.2065 0.9319
C15_4 C 0.9835(11) 0.2633(4) 0.9298(10)
H13_4 H 0.9053 0.2778 0.9283
C33_4 C 0.7991(8) 0.3593(3) 0.8493(7)
C34_4 C 0.6445(8) 0.3581(3) 0.8196(7)
C35_4 C 0.5616(9) 0.3588(3) 0.7250(7)
H25_4 H 0.6003 0.3593 0.6791
C36_4 C 0.5863(9) 0.3557(3) 0.8878(7)
H26_4 H 0.6426 0.3549 0.9511
C37_4 C 0.2050(9) 0.3578(3) 0.7391(7)
C38_4 C 0.3592(8) 0.3574(3) 0.7667(7)
C39_4 C 0.4426(11) 0.3545(3) 0.8616(7)
H27_4 H 0.4036 0.3518 0.9071
C40_4 C 0.4199(9) 0.3589(3) 0.7000(7)
H28_4 H 0.3642 0.3599 0.6366
C4_4 C 0.0256(11) 0.2187(3) 0.6675(10)
H3_4 H 0.1047 0.2045 0.6703
C5_4 C 0.0260(10) 0.2616(3) 0.6694(9)
H4_4 H 0.1066 0.2758 0.6755
H5_4 H 0.0014 0.1366 0.6731
loop_
_geom_bond_atom_site_label_1
_geom_bond_atom_site_label_2
_geom_bond_site_symmetry_1
_geom_bond_site_symmetry_2
O2 Cd2 1_555 1_555
O9 Cd2 1_555 1_555
N9 Cd2 1_555 1_555
N10 Cd2 1_555 1_555
Cd1 O3 1_555 1_555
O1 C18 1_555 1_555
O3 C28 1_555 1_555
O4 Cd1 1_555 1_555
N4 Cd1 1_555 1_555
N5 Cd1 1_555 1_555
N6 N7 1_555 1_555
N7 C31 1_555 1_555
N8 C24 1_555 1_555
C7 N4 1_555 1_555
H6 C7 1_555 1_555
C8 C7 1_555 1_555
C11 N4 1_555 1_555
H9 C11 1_555 1_555
C12 N5 1_555 1_555
H10 C12 1_555 1_555
C13 C12 1_555 1_555
H11 C13 1_555 1_555
C16 C13 1_555 1_555
C17 N6 1_555 1_555
H14 C17 1_555 1_555
C19 C18 1_555 1_555
C20 C19 1_555 1_555
H15 C20 1_555 1_555
C21 C19 1_555 1_555
H16 C21 1_555 1_555
C22 C20 1_555 1_555
H17 C22 1_555 1_555
C23 H18 1_555 1_555
C24 C23 1_555 1_555
H19 C24 1_555 1_555
C25 N8 1_555 1_555
H20 C25 1_555 1_555
C26 C25 1_555 1_555
H21 C26 1_555 1_555
C27 C23 1_555 1_555
C28 O4 1_555 1_555
C29 C22 1_555 1_555
C30 C21 1_555 1_555
H22 C30 1_555 1_555
C31 C27 1_555 1_555
H23 C31 1_555 1_555
Cd7 N8 1_555 1_555
O12 Cd1 1_555 1_555
C10 C11 1_555 1_555
C16 C17 1_555 1_555
C26 C27 1_555 1_555
C28 C29 1_555 1_555
C29 C30 1_555 1_555
N1 C1 1_555 1_555
N2 N3 1_555 1_555
N3 C32 1_555 1_555
C1 H1 1_555 1_555
C2 C1 1_555 1_555
H2 C2 1_555 1_555
C3 C2 1_555 1_555
C6 N2 1_555 1_555
C32 C9 1_555 1_555
H24 C32 1_555 1_555
Cd7 N1 1_555 1_555
C3 C6 1_555 1_555
O10 C37 1_555 1_555
O12 C37 1_555 1_555
C14 H12 1_555 1_555
H13 C15 1_555 1_555
C33 O9 1_555 1_555
C34 C33 1_555 1_555
C35 C34 1_555 1_555
H25 C35 1_555 1_555
C36 C34 1_555 1_555
H26 C36 1_555 1_555
C37 C38 1_555 1_555
C38 C39 1_555 1_555
C39 C36 1_555 1_555
H27 C39 1_555 1_555
C40 C35 1_555 1_555
H28 C40 1_555 1_555
O6 C33 1_555 1_555
C14 C15 1_555 1_555
C38 C40 1_555 1_555
O7 C37_2 1_555 1_555
O8 C37_2 1_555 1_555
H3 C4 1_555 1_555
H4 C5 1_555 1_555
C14_2 H12_2 1_555 1_555
H13_2 C15_2 1_555 1_555
C33_2 O5 1_555 1_555
C34_2 C33_2 1_555 1_555
C35_2 C34_2 1_555 1_555
H25_2 C35_2 1_555 1_555
C36_2 C34_2 1_555 1_555
H26_2 C36_2 1_555 1_555
C37_2 C38_2 1_555 1_555
C38_2 C39_2 1_555 1_555
C39_2 C36_2 1_555 1_555
H27_2 C39_2 1_555 1_555
C40_2 C35_2 1_555 1_555
H28_2 C40_2 1_555 1_555
Cd3 O8 1_555 1_555
Cd7 O5 1_555 1_555
O6_2 C33_2 1_555 1_555
C4 C5 1_555 1_555
C14_2 C15_2 1_555 1_555
C38_2 C40_2 1_555 1_555
N10 C24_2 1_555 1_555
C24_2 C23_2 1_555 1_555
H19_2 C24_2 1_555 1_555
C25_2 N10 1_555 1_555
H20_2 C25_2 1_555 1_555
C26_2 C25_2 1_555 1_555
N9 C1_2 1_555 1_555
N2_2 N3_2 1_555 1_555
N3_2 C32_2 1_555 1_555
N4_2 Cd3 1_555 1_555
N5_2 Cd3 1_555 1_555
N6_2 N7_2 1_555 1_555
N7_2 C31_2 1_555 1_555
C1_2 H1_2 1_555 1_555
C2_2 C1_2 1_555 1_555
H2_2 C2_2 1_555 1_555
C3_2 C2_2 1_555 1_555
C6_2 N2_2 1_555 1_555
C7_2 N4_2 1_555 1_555
C8_2 C7_2 1_555 1_555
C9_2 C8_2 1_555 1_555
C10_2 C9_2 1_555 1_555
H8_2 C10_2 1_555 1_555
C11_2 N4_2 1_555 1_555
H9_2 C11_2 1_555 1_555
C12_2 N5_2 1_555 1_555
H10_2 C12_2 1_555 1_555
C13_2 C12_2 1_555 1_555
H11_2 C13_2 1_555 1_555
C16_2 C13_2 1_555 1_555
C17_2 N6_2 1_555 1_555
H14_2 C17_2 1_555 1_555
C31_2 C27_2 1_555 1_555
H23_2 C31_2 1_555 1_555
C32_2 C9_2 1_555 1_555
H24_2 C32_2 1_555 1_555
C3_2 C6_2 1_555 1_555
C10_2 C11_2 1_555 1_555
C16_2 C17_2 1_555 1_555
Cd7 O1_2 1_555 1_555
O1_2 C18_2 1_555 1_555
O2_2 Cd7 1_555 1_555
O3_2 C28_2 1_555 1_555
C18_2 O2_2 1_555 1_555
C19_2 C18_2 1_555 1_555
C20_2 C19_2 1_555 1_555
H15_2 C20_2 1_555 1_555
C21_2 C19_2 1_555 1_555
H16_2 C21_2 1_555 1_555
C22_2 C20_2 1_555 1_555
H17_2 C22_2 1_555 1_555
C28_2 O4_2 1_555 1_555
C29_2 C22_2 1_555 1_555
C30_2 C21_2 1_555 1_555
H22_2 C30_2 1_555 1_555
C28_2 C29_2 1_555 1_555
C29_2 C30_2 1_555 1_555
H3_2 C4_2 1_555 1_555
H4_2 C5_2 1_555 1_555
C4_2 C5_2 1_555 1_555
O7_2 C37_3 1_555 1_555
O8_2 C37_3 1_555 1_555
C14_3 H12_3 1_555 1_555
H13_3 C15_3 1_555 1_555
C33_3 O5_2 1_555 1_555
C34_3 C33_3 1_555 1_555
C35_3 C34_3 1_555 1_555
H25_3 C35_3 1_555 1_555
C36_3 C34_3 1_555 1_555
H26_3 C36_3 1_555 1_555
C37_3 C38_3 1_555 1_555
C38_3 C39_3 1_555 1_555
C39_3 C36_3 1_555 1_555
H27_3 C39_3 1_555 1_555
C40_3 C35_3 1_555 1_555
H28_3 C40_3 1_555 1_555
Cd3_2 O8_2 1_555 1_555
Cd4 O5_2 1_555 1_555
O6_3 C33_3 1_555 1_555
C14_3 C15_3 1_555 1_555
C38_3 C40_3 1_555 1_555
N1_2 C1_3 1_555 1_555
N2_3 N3_3 1_555 1_555
N3_3 C32_3 1_555 1_555
C1_3 H1_3 1_555 1_555
C2_3 C1_3 1_555 1_555
H2_3 C2_3 1_555 1_555
C3_3 C2_3 1_555 1_555
C6_3 N2_3 1_555 1_555
C32_3 C9_3 1_555 1_555
H24_3 C32_3 1_555 1_555
Cd6 N1_2 1_555 1_555
C3_3 C6_3 1_555 1_555
Cd3_2 O3_3 1_555 1_555
O1_3 C18_3 1_555 1_555
O3_3 C28_3 1_555 1_555
O4_3 Cd3_2 1_555 1_555
N4_3 Cd3_2 1_555 1_555
N5_3 Cd3_2 1_555 1_555
N6_3 N7_3 1_555 1_555
N7_3 C31_3 1_555 1_555
N8_2 C24_3 1_555 1_555
C7_3 N4_3 1_555 1_555
H6_3 C7_3 1_555 1_555
C8_3 C7_3 1_555 1_555
C11_3 N4_3 1_555 1_555
H9_3 C11_3 1_555 1_555
C12_3 N5_3 1_555 1_555
H10_3 C12_3 1_555 1_555
C13_3 C12_3 1_555 1_555
H11_3 C13_3 1_555 1_555
C16_3 C13_3 1_555 1_555
C17_3 N6_3 1_555 1_555
H14_3 C17_3 1_555 1_555
C19_3 C18_3 1_555 1_555
C20_3 C19_3 1_555 1_555
H15_3 C20_3 1_555 1_555
C21_3 C19_3 1_555 1_555
H16_3 C21_3 1_555 1_555
C22_3 C20_3 1_555 1_555
H17_3 C22_3 1_555 1_555
C23_3 H18_3 1_555 1_555
C24_3 C23_3 1_555 1_555
H19_3 C24_3 1_555 1_555
C25_3 N8_2 1_555 1_555
H20_3 C25_3 1_555 1_555
C26_3 C25_3 1_555 1_555
H21_3 C26_3 1_555 1_555
C27_3 C23_3 1_555 1_555
C28_3 O4_3 1_555 1_555
C29_3 C22_3 1_555 1_555
C30_3 C21_3 1_555 1_555
H22_3 C30_3 1_555 1_555
C31_3 C27_3 1_555 1_555
H23_3 C31_3 1_555 1_555
Cd6 N8_2 1_555 1_555
C10_3 C11_3 1_555 1_555
C16_3 C17_3 1_555 1_555
C26_3 C27_3 1_555 1_555
C28_3 C29_3 1_555 1_555
C29_3 C30_3 1_555 1_555
O2_3 Cd4 1_555 1_555
N9_2 Cd4 1_555 1_555
N10_2 Cd4 1_555 1_555
Cd6 O1_4 1_555 1_555
O1_4 C18_4 1_555 1_555
O2_4 Cd6 1_555 1_555
O3_4 C28_4 1_555 1_555
C18_4 O2_4 1_555 1_555
C19_4 C18_4 1_555 1_555
C20_4 C19_4 1_555 1_555
H15_4 C20_4 1_555 1_555
C21_4 C19_4 1_555 1_555
H16_4 C21_4 1_555 1_555
C22_4 C20_4 1_555 1_555
H17_4 C22_4 1_555 1_555
C28_4 O4_4 1_555 1_555
C29_4 C22_4 1_555 1_555
C30_4 C21_4 1_555 1_555
H22_4 C30_4 1_555 1_555
O9_2 Cd6 1_555 1_555
C28_4 C29_4 1_555 1_555
C29_4 C30_4 1_555 1_555
N9_2 C1_4 1_555 1_555
N2_4 N3_4 1_555 1_555
N3_4 C32_4 1_555 1_555
N4_4 Cd1_2 1_555 1_555
N5_4 Cd1_2 1_555 1_555
N6_4 N7_4 1_555 1_555
N7_4 C31_4 1_555 1_555
C1_4 H1_4 1_555 1_555
C2_4 C1_4 1_555 1_555
H2_4 C2_4 1_555 1_555
C3_4 C2_4 1_555 1_555
C6_4 N2_4 1_555 1_555
C7_4 N4_4 1_555 1_555
C8_4 C7_4 1_555 1_555
C9_4 C8_4 1_555 1_555
C10_4 C9_4 1_555 1_555
H8_4 C10_4 1_555 1_555
C11_4 N4_4 1_555 1_555
H9_4 C11_4 1_555 1_555
C12_4 N5_4 1_555 1_555
H10_4 C12_4 1_555 1_555
C13_4 C12_4 1_555 1_555
H11_4 C13_4 1_555 1_555
C16_4 C13_4 1_555 1_555
C17_4 N6_4 1_555 1_555
H14_4 C17_4 1_555 1_555
C31_4 C27_4 1_555 1_555
H23_4 C31_4 1_555 1_555
C32_4 C9_4 1_555 1_555
H24_4 C32_4 1_555 1_555
O12_2 Cd1_2 1_555 1_555
C3_4 C6_4 1_555 1_555
C10_4 C11_4 1_555 1_555
C16_4 C17_4 1_555 1_555
N10_2 C24_4 1_555 1_555
C24_4 C23_4 1_555 1_555
H19_4 C24_4 1_555 1_555
C25_4 N10_2 1_555 1_555
H20_4 C25_4 1_555 1_555
C26_4 C25_4 1_555 1_555
O10_2 C37_4 1_555 1_555
O12_2 C37_4 1_555 1_555
H3_3 C4_3 1_555 1_555
H4_3 C5_3 1_555 1_555
C14_4 H12_4 1_555 1_555
H13_4 C15_4 1_555 1_555
C33_4 O9_2 1_555 1_555
C34_4 C33_4 1_555 1_555
C35_4 C34_4 1_555 1_555
H25_4 C35_4 1_555 1_555
C36_4 C34_4 1_555 1_555
H26_4 C36_4 1_555 1_555
C37_4 C38_4 1_555 1_555
C38_4 C39_4 1_555 1_555
C39_4 C36_4 1_555 1_555
H27_4 C39_4 1_555 1_555
C40_4 C35_4 1_555 1_555
H28_4 C40_4 1_555 1_555
O6_4 C33_4 1_555 1_555
C4_3 C5_3 1_555 1_555
C14_4 C15_4 1_555 1_555
C38_4 C40_4 1_555 1_555
H3_4 C4_4 1_555 1_555
H4_4 C5_4 1_555 1_555
C4_4 C5_4 1_555 1_555

#END
