
###############################################################################
#
# This file contains modified crystal structure data generated from the
# MOF subset of the Cambridge Structural Database (CSD) v543 
# hosted by the Cambridge Crystallographic Data Centre (CCDC).
#
# This work is licensed under the Creative Commons
# Attribution-NonCommercial-ShareAlike 4.0 International License.
# To view a copy of this license, visit
# http://creativecommons.org/licenses/by-nc-sa/4.0/
# or send a letter to
# Creative Commons, PO Box 1866, Mountain View, CA 94042, USA.
#
# CIF created using the CSD Python API on 29 September 2022
# The structure has been converted into the P1 space group
# The structure has a 3D framework
# The original CSD entry FUMHEC is in the triclinic crystal system
# The framework has been calculated to contain at least 10.0% void space
# The void calculation uses a probe of radius 1.32A, grid spacing 0.4
# The framework is charged, counterions have been retained in the structure
#
###############################################################################

data_FUMHEC
_chemical_formula_moiety         '(C56 H48 Co8 N14 O7 6+)n'
_symmetry_cell_setting           triclinic
_symmetry_space_group_name_H-M   'P 1'
_symmetry_Int_Tables_number      1
_space_group_name_Hall           'P 1'
loop_
_symmetry_equiv_pos_site_id
_symmetry_equiv_pos_as_xyz
1 x,y,z
_cell_length_a                   10.744(5)
_cell_length_b                   11.971(5)
_cell_length_c                   13.304(5)
_cell_angle_alpha                91.512(5)
_cell_angle_beta                 111.418(5)
_cell_angle_gamma                106.334(5)
_cell_volume                     1512.61
loop_
_atom_site_label
_atom_site_type_symbol
_atom_site_fract_x
_atom_site_fract_y
_atom_site_fract_z
Co4 Co 0.5000 0.0000 -0.0000
Co4_2 Co 0.5000 -0.0000 1.0000
Co2 Co 0.0000 0.0000 -0.0000
N12 N 0.2362(5) 0.7024(4) 0.0718(4)
N13 N 0.3887(4) 0.8664(3) 0.0681(3)
C43 C 0.0087(6) 0.5909(5) 0.0705(5)
H39 H 0.0169 0.6537 0.1177
C44 C 0.1162(5) 0.5968(4) 0.0340(4)
C45 C 0.2777(5) 0.7789(4) 0.0104(4)
C47 C 0.4218(6) 0.8430(5) 0.1742(5)
H41 H 0.4978 0.8896 0.2346
C48 C 0.3272(7) 0.7424(5) 0.1773(4)
H42 H 0.3249 0.7078 0.2387
Co4_3 Co 0.5000 1.0000 -0.0000
N16 N 0.1248(4) 0.1718(4) 0.0817(3)
Co2_2 Co 0.0000 -0.0000 1.0000
C11 C 0.1105(6) 0.5074(5) 0.9625(5)
H8 H 0.0754 0.1736 0.8147
C25 C 0.2259(7) 0.5116(6) 0.9255(6)
H15 H 0.2279 0.4331 0.9116
H16 H 0.3141 0.5575 0.9812
H17 H 0.2105 0.5467 0.8598
H40 H 0.2325 0.7707 0.9350
Co4_4 Co 0.5000 1.0000 1.0000
O9 O 0.1811(3) 0.0176(3) 0.9741(3)
Co2_3 Co -0.0000 1.0000 -0.0000
N17 N 0.0873(5) 0.9386(5) 0.1546(3)
Co2_4 Co -0.0000 1.0000 1.0000
Co2_5 Co 1.0000 0.0000 -0.0000
H4 H 0.7675 0.2293 0.0650
C46 C 0.8895(6) 0.4926(5) 0.0375(5)
C49 C 0.7741(7) 0.4884(6) 0.0745(6)
H43 H 0.7721 0.5669 0.0884
H44 H 0.6859 0.4425 0.0188
H45 H 0.7895 0.4533 0.1402
O5 O 0.4038(3) 0.1301(3) 0.0221(3)
C50 C 0.2819(5) 0.1107(4) 0.0185(4)
C51 C 0.2521(5) 0.2053(5) 0.0767(4)
C52 C 0.1455(12) 0.4258(8) 0.2667(6)
O7 O 0.0203(8) 0.3897(6) 0.2557(5)
C53 C 0.3492(6) 0.3135(5) 0.1255(5)
H46 H 0.4354 0.3366 0.1183
C54 C 0.1891(8) 0.3527(6) 0.1960(5)
C55 C 0.0936(6) 0.2439(6) 0.1412(4)
H47 H 0.0059 0.2204 0.1458
O8 O 0.2421(9) 0.5160(5) 0.3258(6)
C56 C 0.3145(7) 0.3878(6) 0.1865(5)
H48 H 0.3781 0.4616 0.2205
N15 N 0.6531(4) 0.0695(4) 0.1649(3)
Co2_6 Co 1.0000 -0.0000 1.0000
N1 N 0.7577(5) 0.0551(4) 0.6793(3)
N4 N 0.7638(5) 0.2976(4) 0.9282(4)
H1 H 0.2283 0.0357 0.8034
N6 N 0.9127(5) 0.0614(5) 0.8454(3)
N7 N 0.6113(4) 0.1336(3) 0.9319(3)
C6 C 0.7799(6) 0.0199(6) 0.7774(4)
C8 C 0.9913(6) 0.4091(5) 0.9295(5)
H3 H 0.9831 0.3463 0.8823
C9 C 0.8838(5) 0.4032(4) 0.9660(4)
C10 C 0.7223(5) 0.2211(4) 0.9896(4)
C12 C 0.6253(6) 0.0244(5) 0.5869(4)
C15 C 0.8842(6) 0.1286(6) 0.6862(4)
H6 H 0.9018 0.1691 0.6316
C17 C 0.9800(6) 0.1313(5) 0.7881(4)
C22 C 0.5782(6) 0.1570(5) 0.8258(5)
H12 H 0.5022 0.1104 0.7654
C23 C 0.6728(7) 0.2576(5) 0.8227(4)
H13 H 0.6751 0.2922 0.7613
H25 H 0.2908 0.0285 0.2044
C31 C 0.4510(6) 0.0916(6) 0.4515(4)
C33 C 0.5801(6) 0.1151(6) 0.5417(4)
H27 H 0.6352 0.1926 0.5709
C35 C 0.4057(9) 0.1950(7) 0.4051(6)
H29 H 0.3058 0.1768 0.3837
H30 H 0.4532 0.2635 0.4596
H31 H 0.4293 0.2100 0.3427
C36 C 0.0366(6) 0.1172(5) 0.4780(4)
C40 C 0.1300(6) 0.0789(5) 0.5617(4)
H34 H 0.2180 0.1311 0.6045
C42 C 0.0835(8) 0.2439(7) 0.4586(7)
H36 H 0.0216 0.2838 0.4679
H37 H 0.1778 0.2826 0.5098
H38 H 0.0807 0.2452 0.3857
Co2_7 Co 1.0000 1.0000 -0.0000
O2 O 0.8189(3) 0.9824(3) 0.0259(3)
Co2_8 Co 1.0000 1.0000 1.0000
O1 O 0.5962(3) 0.8699(3) 0.9779(3)
N2 N 0.1963(5) 0.9297(4) 0.6699(3)
N3 N 0.3469(4) 0.9305(4) 0.8351(3)
N5 N 0.8752(4) 0.8282(4) 0.9183(3)
C2 C 0.7181(5) 0.8893(4) 0.9815(4)
C3 C 0.7479(5) 0.7947(5) 0.9233(4)
C4 C 0.2530(5) 0.9769(4) 0.7757(4)
C5 C 0.8545(12) 0.5742(8) 0.7333(6)
H2 H 0.7092 0.9715 0.7956
C7 C 0.0939(6) 0.9644(5) 0.5821(4)
C13 C 0.2585(7) 0.8450(5) 0.6616(4)
H5 H 0.2408 0.7969 0.5986
C14 C 0.5490(6) 0.9084(6) 0.5485(4)
C16 C 0.4199(6) 0.8849(6) 0.4583(4)
H7 H 0.3648 0.8074 0.4291
O3 O 0.9797(8) 0.6103(6) 0.7443(5)
C18 C 0.6508(6) 0.6865(5) 0.8745(5)
H9 H 0.5646 0.6634 0.8817
C20 C 0.8109(8) 0.6473(6) 0.8040(5)
C21 C 0.9064(6) 0.7561(6) 0.8588(4)
H11 H 0.9941 0.7796 0.8542
C24 C 0.3496(6) 0.8463(5) 0.7630(4)
H14 H 0.4061 0.7977 0.7821
O4 O 0.7579(9) 0.4840(5) 0.6742(6)
C26 C 0.6855(7) 0.6122(6) 0.8135(5)
H18 H 0.6219 0.5384 0.7795
C27 C 0.5943(9) 0.8050(7) 0.5949(6)
H19 H 0.6942 0.8232 0.6163
H20 H 0.5468 0.7365 0.5404
H21 H 0.5707 0.7900 0.6573
N8 N 0.2423(5) 0.9449(4) 0.3207(3)
C29 C 0.2201(6) 0.9801(6) 0.2226(4)
C30 C 0.3747(6) 0.9756(5) 0.4131(4)
C32 C 0.1158(6) 0.8714(6) 0.3138(4)
H26 H 0.0982 0.8309 0.3684
C34 C 0.0200(6) 0.8687(5) 0.2119(4)
N10 N 0.8037(5) 0.0703(4) 0.3301(3)
C37 C 0.7470(5) 0.0231(4) 0.2243(4)
C38 C 0.9061(6) 0.0356(5) 0.4179(4)
C39 C 0.7415(7) 0.1550(5) 0.3384(4)
H33 H 0.7592 0.2031 0.4014
C41 C 0.6504(6) 0.1537(5) 0.2370(4)
H35 H 0.5939 0.2023 0.2179
C1 C 0.9634(6) 0.8828(5) 0.5220(4)
C19 C 0.8700(6) 0.9211(5) 0.4383(4)
H10 H 0.7820 0.8689 0.3955
C28 C 0.9165(8) 0.7561(7) 0.5414(7)
H22 H 0.9784 0.7162 0.5321
H23 H 0.8222 0.7174 0.4902
H24 H 0.9193 0.7548 0.6143
H28 H 0.9246 0.8264 0.1853
H32 H 0.7717 0.9643 0.1966
loop_
_geom_bond_atom_site_label_1
_geom_bond_atom_site_label_2
_geom_bond_site_symmetry_1
_geom_bond_site_symmetry_2
N12 C44 1_555 1_555
N13 C45 1_555 1_555
C43 H39 1_555 1_555
C45 N12 1_555 1_555
C47 N13 1_555 1_555
H41 C47 1_555 1_555
C48 N12 1_555 1_555
H42 C48 1_555 1_555
Co4_3 N13 1_555 1_555
N16 Co2 1_555 1_555
C43 C44 1_555 1_555
C47 C48 1_555 1_555
C25 C11 1_555 1_555
H15 C25 1_555 1_555
H16 C25 1_555 1_555
H17 C25 1_555 1_555
O9 Co2_2 1_555 1_555
N17 Co2_3 1_555 1_555
C49 C46 1_555 1_555
H43 C49 1_555 1_555
H44 C49 1_555 1_555
H45 C49 1_555 1_555
O5 Co4 1_555 1_555
N16 C51 1_555 1_555
C50 O5 1_555 1_555
C51 C50 1_555 1_555
C52 O7 1_555 1_555
C53 C51 1_555 1_555
H46 C53 1_555 1_555
C54 C52 1_555 1_555
C55 N16 1_555 1_555
H47 C55 1_555 1_555
O8 C52 1_555 1_555
C56 C53 1_555 1_555
H48 C56 1_555 1_555
N15 Co4 1_555 1_555
C54 C55 1_555 1_555
C54 C56 1_555 1_555
N1 C6 1_555 1_555
N4 C9 1_555 1_555
N6 Co2_6 1_555 1_555
N7 Co4_2 1_555 1_555
C6 N6 1_555 1_555
C8 H3 1_555 1_555
C9 C8 1_555 1_555
C10 N4 1_555 1_555
C12 N1 1_555 1_555
C15 N1 1_555 1_555
H6 C15 1_555 1_555
C17 N6 1_555 1_555
C22 N7 1_555 1_555
H12 C22 1_555 1_555
C23 N4 1_555 1_555
H13 C23 1_555 1_555
C33 C12 1_555 1_555
H27 C33 1_555 1_555
C35 C31 1_555 1_555
H29 C35 1_555 1_555
H30 C35 1_555 1_555
H31 C35 1_555 1_555
H34 C40 1_555 1_555
C42 C36 1_555 1_555
H36 C42 1_555 1_555
H37 C42 1_555 1_555
H38 C42 1_555 1_555
N7 C10 1_555 1_555
C15 C17 1_555 1_555
C22 C23 1_555 1_555
C31 C33 1_555 1_555
C36 C40 1_555 1_555
Co2_7 O2 1_555 1_555
Co4_4 O1 1_555 1_555
O1 C2 1_555 1_555
N2 C4 1_555 1_555
N3 Co4_4 1_555 1_555
N5 Co2_8 1_555 1_555
C2 C3 1_555 1_555
C3 N5 1_555 1_555
C4 N3 1_555 1_555
C5 O3 1_555 1_555
C7 N2 1_555 1_555
C13 N2 1_555 1_555
H5 C13 1_555 1_555
C16 C14 1_555 1_555
H7 C16 1_555 1_555
C18 C3 1_555 1_555
H9 C18 1_555 1_555
C20 C5 1_555 1_555
C21 N5 1_555 1_555
H11 C21 1_555 1_555
C24 N3 1_555 1_555
H14 C24 1_555 1_555
O4 C5 1_555 1_555
C26 C18 1_555 1_555
H18 C26 1_555 1_555
C27 C14 1_555 1_555
H19 C27 1_555 1_555
H20 C27 1_555 1_555
H21 C27 1_555 1_555
N8 C29 1_555 1_555
N17 C29 1_555 1_555
C30 C16 1_555 1_555
C32 N8 1_555 1_555
H26 C32 1_555 1_555
C34 N17 1_555 1_555
C13 C24 1_555 1_555
C20 C21 1_555 1_555
C20 C26 1_555 1_555
N8 C30 1_555 1_555
C32 C34 1_555 1_555
N10 C37 1_555 1_555
N15 C37 1_555 1_555
C39 N10 1_555 1_555
H33 C39 1_555 1_555
C41 N15 1_555 1_555
H35 C41 1_555 1_555
N10 C38 1_555 1_555
C39 C41 1_555 1_555
C19 C1 1_555 1_555
H10 C19 1_555 1_555
C28 C1 1_555 1_555
H22 C28 1_555 1_555
H23 C28 1_555 1_555
H24 C28 1_555 1_555

#END
