
###############################################################################
#
# This file contains modified crystal structure data generated from the
# MOF subset of the Cambridge Structural Database (CSD) v543 
# hosted by the Cambridge Crystallographic Data Centre (CCDC).
#
# This work is licensed under the Creative Commons
# Attribution-NonCommercial-ShareAlike 4.0 International License.
# To view a copy of this license, visit
# http://creativecommons.org/licenses/by-nc-sa/4.0/
# or send a letter to
# Creative Commons, PO Box 1866, Mountain View, CA 94042, USA.
#
# CIF created using the CSD Python API on 29 September 2022
# The structure has been converted into the P1 space group
# The structure has a 3D framework
# The original CSD entry FUMMUY is in the monoclinic crystal system
# The framework has been calculated to contain at least 10.0% void space
# The void calculation uses a probe of radius 1.32A, grid spacing 0.4
# H atom positions have been added when not included in the experimental data
#
###############################################################################

data_FUMMUY
_chemical_formula_moiety         '(C400 H324 Cd16 N32 O88)n'
_symmetry_cell_setting           triclinic
_symmetry_space_group_name_H-M   'P 1'
_symmetry_Int_Tables_number      1
_space_group_name_Hall           'P 1'
loop_
_symmetry_equiv_pos_site_id
_symmetry_equiv_pos_as_xyz
1 x,y,z
_cell_length_a                   19.5815(19)
_cell_length_b                   27.778(3)
_cell_length_c                   37.153(3)
_cell_angle_alpha                90
_cell_angle_beta                 98.019(3)
_cell_angle_gamma                90
_cell_volume                     20011.2
loop_
_atom_site_label
_atom_site_type_symbol
_atom_site_fract_x
_atom_site_fract_y
_atom_site_fract_z
Cd3 Cd 0.62258(4) 0.02983(2) 0.60091(2)
Cd1 Cd 0.12258(4) 0.52983(2) 0.60091(2)
Cd2 Cd 0.17522(7) 0.47100(4) 0.53081(3)
O1 O 0.1880(6) 0.5196(3) 0.1362(3)
O2 O 0.5405(4) 0.9027(2) 0.10058(19)
O3 O 0.5761(4) 0.9415(2) 0.15006(17)
O4 O 0.2031(5) 0.5648(3) 0.0866(3)
O5 O 0.2045(5) 0.5944(3) 0.5985(2)
N1 N 0.3584(5) 0.7434(3) 0.1963(2)
O6 O 0.5708(5) 0.9878(3) 0.5533(2)
N2 N 0.3721(5) 0.7642(3) 0.50241(19)
O7 O 0.5352(5) 0.9568(3) 0.6012(3)
C1 C 0.3879(7) 0.7865(4) 0.2524(3)
H1 H 0.4063 0.8144 0.2650
C2 C 0.3913(7) 0.7807(4) 0.2158(3)
C3 C 0.3619(7) 0.7584(4) 0.3861(3)
C4 C 0.4235(6) 0.8152(4) 0.1948(3)
C5 C 0.3570(7) 0.7504(4) 0.2703(3)
C6 C 0.3665(8) 0.7148(4) 0.3694(4)
H2 H 0.3722 0.6862 0.3836
C7 C 0.4778(7) 0.8336(4) 0.1403(3)
H3 H 0.4860 0.8246 0.1166
C8 C 0.3626(7) 0.7122(4) 0.3319(3)
H4 H 0.3634 0.6818 0.3203
O8 O 0.1855(5) 0.5519(3) 0.5514(2)
C9 C 0.4841(6) 0.9199(3) 0.5118(3)
H5 H 0.4930 0.9492 0.5002
C10 C 0.3518(7) 0.8003(4) 0.3650(3)
H6 H 0.3428 0.8301 0.3758
C11 C 0.5355(7) 0.9561(6) 0.5666(3)
C12 C 0.3458(6) 0.7268(4) 0.4846(3)
C13 C 0.4531(6) 0.8837(4) 0.4913(3)
H7 H 0.4461 0.8873 0.4656
C14 C 0.4996(6) 0.8759(4) 0.1550(3)
C15 C 0.3551(8) 0.7975(4) 0.3291(3)
H8 H 0.3557 0.8265 0.3156
C16 C 0.3990(6) 0.8001(4) 0.4849(2)
C17 C 0.3955(6) 0.7995(4) 0.4462(3)
H9 H 0.4121 0.8265 0.4342
C18 C 0.2481(8) 0.6215(5) 0.5470(4)
C19 C 0.4315(6) 0.8421(5) 0.5059(3)
C20 C 0.4424(7) 0.8028(4) 0.1616(3)
H10 H 0.4308 0.7715 0.1525
C21 C 0.3233(6) 0.7142(4) 0.2505(3)
H11 H 0.2971 0.6915 0.2620
C22 C 0.2741(9) 0.6622(5) 0.5590(3)
H12 H 0.2717 0.6684 0.5840
C23 C 0.3052(7) 0.6983(4) 0.5410(3)
H13 H 0.3216 0.7274 0.5526
C24 C 0.3692(7) 0.7612(4) 0.4262(3)
C25 C 0.3367(7) 0.7232(4) 0.4455(3)
H14 H 0.3113 0.6977 0.4329
C26 C 0.4457(7) 0.8603(5) 0.2064(3)
H15 H 0.4322 0.8717 0.2285
C27 C 0.4856(8) 0.8898(4) 0.1888(3)
H16 H 0.5032 0.9192 0.1995
C28 C 0.3104(6) 0.6890(4) 0.5052(3)
C29 C 0.3270(6) 0.7100(4) 0.2127(2)
C30 C 0.2947(7) 0.6720(4) 0.1911(3)
C31 C 0.4450(8) 0.8371(5) 0.5441(3)
H17 H 0.4307 0.8089 0.5554
C32 C 0.3577(7) 0.7545(4) 0.3113(3)
C33 C 0.5024(6) 0.9161(4) 0.5470(3)
C34 C 0.2563(8) 0.6127(5) 0.5108(4)
H18 H 0.2418 0.5827 0.5000
C35 C 0.4803(8) 0.8748(5) 0.5655(3)
H19 H 0.4889 0.8725 0.5913
C36 C 0.2864(8) 0.6483(5) 0.4893(3)
H20 H 0.2889 0.6427 0.4643
O9 O 0.1547(7) 0.5115(5) 0.4773(3)
O10 O 0.1570(10) 0.4150(6) 0.4973(4)
C37 C 0.5410(6) 0.9092(4) 0.1345(3)
C38 C 0.2101(9) 0.5573(6) 0.1206(5)
C39 C 0.2100(9) 0.5871(5) 0.5660(4)
C40 C 0.2747(7) 0.6279(4) 0.2050(3)
H21 H 0.2811 0.6228 0.2305
C41 C 0.2541(9) 0.6406(6) 0.1301(4)
H22 H 0.2459 0.6459 0.1046
C42 C 0.2383(7) 0.5988(7) 0.1428(4)
C43 C 0.2462(7) 0.5919(4) 0.1824(4)
H23 H 0.2317 0.5627 0.1923
C44 C 0.2817(9) 0.6765(5) 0.1519(3)
H24 H 0.2930 0.7060 0.1411
N3 N 0.1303(8) 0.5057(6) 0.4148(3)
C45 C 0.1554(10) 0.5543(7) 0.4119(4)
H25 H 0.1451 0.5733 0.4327
H26 H 0.1327 0.5690 0.3894
H27 H 0.2054 0.5537 0.4116
C46 C 0.1320(10) 0.4872(8) 0.4468(5)
H28 H 0.1166 0.4550 0.4489
C47 C 0.1065(10) 0.4788(6) 0.3841(4)
H29 H 0.1112 0.4976 0.3622
H30 H 0.0578 0.4707 0.3843
H31 H 0.1336 0.4491 0.3840
C48 C 0.1451(16) 0.3755(9) 0.5091(8)
H32 H 0.1580 0.3747 0.5347
O11 O 0.2825(7) 0.4707(4) 0.5208(3)
N4 N 0.1142(12) 0.3240(8) 0.4947(6)
C49 C 0.0937(12) 0.3388(13) 0.4568(5)
H33 H 0.0737 0.3712 0.4562
H34 H 0.0594 0.3161 0.4449
H35 H 0.1342 0.3389 0.4440
C50 C 0.1175(14) 0.2808(9) 0.5161(6)
H36 H 0.1453 0.2566 0.5055
H37 H 0.0708 0.2683 0.5164
H38 H 0.1387 0.2879 0.5410
Cd4 Cd 0.12258(4) 0.47017(2) 0.10091(2)
Cd5 Cd 0.62258(4) 0.97017(2) 0.10091(2)
Cd6 Cd 0.67522(7) 0.97100(4) 0.53081(3)
Cd7 Cd 0.17522(7) 0.52900(4) 0.03081(3)
O12 O 0.1880(6) 0.4804(3) 0.6362(3)
O13 O 0.0405(4) 0.5973(2) 0.60058(19)
O14 O 0.0761(4) 0.5585(2) 0.65006(17)
O15 O 0.2031(5) 0.4352(3) 0.5866(3)
O16 O 0.0708(5) 0.4878(3) 0.5533(2)
O17 O 0.0352(5) 0.4568(3) 0.6012(3)
H39 H 0.313213 0.477232 0.54388
H40 H 0.293869 0.438739 0.511237
O2_2 O 0.0405(4) 0.4027(2) 0.10058(19)
O3_2 O 0.0761(4) 0.4415(2) 0.15006(17)
C11_2 C 0.0355(7) 0.4561(6) 0.5666(3)
H16_2 H 0.0032 0.4192 0.1995
C33_2 C 0.0024(6) 0.4161(4) 0.5470(3)
C37_2 C 0.0410(6) 0.4092(4) 0.1345(3)
O1_2 O 0.6880(6) 0.0196(3) 0.1362(3)
O4_2 O 0.7031(5) 0.0648(3) 0.0866(3)
O5_2 O 0.7045(5) 0.0944(3) 0.5985(2)
N1_2 N 0.8584(5) 0.2434(3) 0.1963(2)
N2_2 N 0.8721(5) 0.2642(3) 0.50241(19)
C1_2 C 0.8879(7) 0.2865(4) 0.2524(3)
H1_2 H 0.9063 0.3144 0.2650
C2_2 C 0.8913(7) 0.2807(4) 0.2158(3)
C3_2 C 0.8619(7) 0.2584(4) 0.3861(3)
C4_2 C 0.9235(6) 0.3152(4) 0.1948(3)
C5_2 C 0.8570(7) 0.2504(4) 0.2703(3)
C6_2 C 0.8665(8) 0.2148(4) 0.3694(4)
H2_2 H 0.8722 0.1862 0.3836
C7_2 C 0.9778(7) 0.3336(4) 0.1403(3)
H3_2 H 0.9860 0.3246 0.1166
C8_2 C 0.8626(7) 0.2122(4) 0.3319(3)
H4_2 H 0.8634 0.1818 0.3203
O8_2 O 0.6855(5) 0.0519(3) 0.5514(2)
C9_2 C 0.9841(6) 0.4199(3) 0.5118(3)
H5_2 H 0.9930 0.4492 0.5002
C10_2 C 0.8518(7) 0.3003(4) 0.3650(3)
H6_2 H 0.8428 0.3301 0.3758
C12_2 C 0.8458(6) 0.2268(4) 0.4846(3)
C13_2 C 0.9531(6) 0.3837(4) 0.4913(3)
H7_2 H 0.9461 0.3873 0.4656
C14_2 C 0.9996(6) 0.3759(4) 0.1550(3)
C15_2 C 0.8551(8) 0.2975(4) 0.3291(3)
H8_2 H 0.8557 0.3265 0.3156
C16_2 C 0.8990(6) 0.3001(4) 0.4849(2)
C17_2 C 0.8955(6) 0.2995(4) 0.4462(3)
H9_2 H 0.9121 0.3265 0.4342
C18_2 C 0.7481(8) 0.1215(5) 0.5470(4)
C19_2 C 0.9315(6) 0.3421(5) 0.5059(3)
C20_2 C 0.9424(7) 0.3028(4) 0.1616(3)
H10_2 H 0.9308 0.2715 0.1525
C21_2 C 0.8233(6) 0.2142(4) 0.2505(3)
H11_2 H 0.7971 0.1915 0.2620
C22_2 C 0.7741(9) 0.1622(5) 0.5590(3)
H12_2 H 0.7717 0.1684 0.5840
C23_2 C 0.8052(7) 0.1983(4) 0.5410(3)
H13_2 H 0.8216 0.2274 0.5526
C24_2 C 0.8692(7) 0.2612(4) 0.4262(3)
C25_2 C 0.8367(7) 0.2232(4) 0.4455(3)
H14_2 H 0.8113 0.1977 0.4329
C26_2 C 0.9457(7) 0.3603(5) 0.2064(3)
H15_2 H 0.9322 0.3717 0.2285
C27_2 C 0.9856(8) 0.3898(4) 0.1888(3)
C28_2 C 0.8104(6) 0.1890(4) 0.5052(3)
C29_2 C 0.8270(6) 0.2100(4) 0.2127(2)
C30_2 C 0.7947(7) 0.1720(4) 0.1911(3)
C31_2 C 0.9450(8) 0.3371(5) 0.5441(3)
H17_2 H 0.9307 0.3089 0.5554
C32_2 C 0.8577(7) 0.2545(4) 0.3113(3)
C34_2 C 0.7563(8) 0.1127(5) 0.5108(4)
H18_2 H 0.7418 0.0827 0.5000
C35_2 C 0.9803(8) 0.3748(5) 0.5655(3)
H19_2 H 0.9889 0.3725 0.5913
C36_2 C 0.7864(8) 0.1483(5) 0.4893(3)
H20_2 H 0.7889 0.1427 0.4643
O9_2 O 0.6547(7) 0.0115(5) 0.4773(3)
C38_2 C 0.7101(9) 0.0573(6) 0.1206(5)
C39_2 C 0.7100(9) 0.0871(5) 0.5660(4)
C40_2 C 0.7747(7) 0.1279(4) 0.2050(3)
H21_2 H 0.7811 0.1228 0.2305
C41_2 C 0.7541(9) 0.1406(6) 0.1301(4)
H22_2 H 0.7459 0.1459 0.1046
C42_2 C 0.7383(7) 0.0988(7) 0.1428(4)
C43_2 C 0.7462(7) 0.0919(4) 0.1824(4)
H23_2 H 0.7317 0.0627 0.1923
C44_2 C 0.7817(9) 0.1765(5) 0.1519(3)
H24_2 H 0.7930 0.2060 0.1411
N3_2 N 0.6303(8) 0.0057(6) 0.4148(3)
C45_2 C 0.6554(10) 0.0543(7) 0.4119(4)
H25_2 H 0.6451 0.0733 0.4327
H26_2 H 0.6327 0.0690 0.3894
H27_2 H 0.7054 0.0537 0.4116
Cd7_2 Cd 0.67522(7) 0.02900(4) 0.03081(3)
O13_2 O 0.5405(4) 0.0973(2) 0.60058(19)
O14_2 O 0.5761(4) 0.0585(2) 0.65006(17)
O10_2 O 0.6570(10) 0.9150(6) 0.4973(4)
C46_2 C 0.6320(10) 0.9872(8) 0.4468(5)
H28_2 H 0.6166 0.9550 0.4489
C47_2 C 0.6065(10) 0.9788(6) 0.3841(4)
H29_2 H 0.6112 0.9976 0.3622
H30_2 H 0.5578 0.9707 0.3843
H31_2 H 0.6336 0.9491 0.3840
C48_2 C 0.6451(16) 0.8755(9) 0.5091(8)
H32_2 H 0.6580 0.8747 0.5347
O11_2 O 0.7825(7) 0.9707(4) 0.5208(3)
N4_2 N 0.6142(12) 0.8240(8) 0.4947(6)
C49_2 C 0.5937(12) 0.8388(13) 0.4568(5)
H33_2 H 0.5737 0.8712 0.4562
H34_2 H 0.5594 0.8161 0.4449
H35_2 H 0.6342 0.8389 0.4440
C50_2 C 0.6175(14) 0.7808(9) 0.5161(6)
H36_2 H 0.6453 0.7566 0.5055
H37_2 H 0.5708 0.7683 0.5164
H38_2 H 0.6387 0.7879 0.5410
O12_2 O 0.6880(6) 0.9804(3) 0.6362(3)
O15_2 O 0.7031(5) 0.9352(3) 0.5866(3)
H39_2 H 0.813213 0.977232 0.54388
H40_2 H 0.793869 0.938739 0.511237
O5_3 O 0.2045(5) 0.4056(3) 0.0985(2)
O6_2 O 0.5708(5) 0.0122(3) 0.0533(2)
N2_3 N 0.3721(5) 0.2358(3) 0.00241(19)
O7_2 O 0.5352(5) 0.0432(3) 0.1012(3)
O8_3 O 0.1855(5) 0.4481(3) 0.0514(2)
C9_3 C 0.4841(6) 0.0801(3) 0.0118(3)
H5_3 H 0.4930 0.0508 0.0002
C11_3 C 0.5355(7) 0.0439(6) 0.0666(3)
C18_3 C 0.2481(8) 0.3785(5) 0.0470(4)
C19_3 C 0.4315(6) 0.1579(5) 0.0059(3)
C22_3 C 0.2741(9) 0.3378(5) 0.0590(3)
H12_3 H 0.2717 0.3316 0.0840
C23_3 C 0.3052(7) 0.3017(4) 0.0410(3)
H13_3 H 0.3216 0.2726 0.0526
C28_3 C 0.3104(6) 0.3110(4) 0.0052(3)
C31_3 C 0.4450(8) 0.1629(5) 0.0441(3)
H17_3 H 0.4307 0.1911 0.0554
C33_3 C 0.5024(6) 0.0839(4) 0.0470(3)
C34_3 C 0.2563(8) 0.3873(5) 0.0108(4)
H18_3 H 0.2418 0.4173 -0.0000
C35_3 C 0.4803(8) 0.1252(5) 0.0655(3)
H19_3 H 0.4889 0.1275 0.0913
C39_3 C 0.2100(9) 0.4129(5) 0.0660(4)
C48_3 C 0.1451(16) 0.6245(9) 0.0091(8)
H32_3 H 0.1580 0.6253 0.0347
O11_3 O 0.2825(7) 0.5293(4) 0.0208(3)
C50_3 C 0.1175(14) 0.7192(9) 0.0161(6)
H36_3 H 0.1453 0.7434 0.0055
H37_3 H 0.0708 0.7317 0.0164
H38_3 H 0.1387 0.7121 0.0410
O16_2 O 0.0708(5) 0.5122(3) 0.0533(2)
O17_2 O 0.0352(5) 0.5432(3) 0.1012(3)
H39_3 H 0.313213 0.522768 0.0438805
H40_3 H 0.293869 0.561261 0.0112374
N1_3 N 0.3584(5) 0.2566(3) 0.6963(2)
C1_3 C 0.3879(7) 0.2135(4) 0.7524(3)
H1_3 H 0.4063 0.1856 0.7650
C2_3 C 0.3913(7) 0.2193(4) 0.7158(3)
C3_3 C 0.3619(7) 0.2416(4) 0.8861(3)
C4_3 C 0.4235(6) 0.1848(4) 0.6948(3)
C5_3 C 0.3570(7) 0.2496(4) 0.7703(3)
C6_3 C 0.3665(8) 0.2852(4) 0.8694(4)
H2_3 H 0.3722 0.3138 0.8836
C7_3 C 0.4778(7) 0.1664(4) 0.6403(3)
H3_3 H 0.4860 0.1754 0.6166
C8_3 C 0.3626(7) 0.2878(4) 0.8319(3)
H4_3 H 0.3634 0.3182 0.8203
C10_3 C 0.3518(7) 0.1997(4) 0.8650(3)
H6_3 H 0.3428 0.1699 0.8758
C12_3 C 0.3458(6) 0.2732(4) 0.9846(3)
C13_3 C 0.4531(6) 0.1163(4) 0.9913(3)
H7_3 H 0.4461 0.1127 0.9656
C14_3 C 0.4996(6) 0.1241(4) 0.6550(3)
C15_3 C 0.3551(8) 0.2025(4) 0.8291(3)
H8_3 H 0.3557 0.1735 0.8156
C16_3 C 0.3990(6) 0.1999(4) 0.9849(2)
C17_3 C 0.3955(6) 0.2005(4) 0.9462(3)
H9_3 H 0.4121 0.1735 0.9342
C20_3 C 0.4424(7) 0.1972(4) 0.6616(3)
H10_3 H 0.4308 0.2285 0.6525
C21_3 C 0.3233(6) 0.2858(4) 0.7505(3)
H11_3 H 0.2971 0.3085 0.7620
C24_3 C 0.3692(7) 0.2388(4) 0.9262(3)
C25_3 C 0.3367(7) 0.2768(4) 0.9455(3)
H14_3 H 0.3113 0.3023 0.9329
C26_3 C 0.4457(7) 0.1397(5) 0.7064(3)
H15_3 H 0.4322 0.1283 0.7285
C27_3 C 0.4856(8) 0.1102(4) 0.6888(3)
H16_3 H 0.5032 0.0808 0.6995
C29_3 C 0.3270(6) 0.2900(4) 0.7127(2)
C30_3 C 0.2947(7) 0.3280(4) 0.6911(3)
C32_3 C 0.3577(7) 0.2455(4) 0.8113(3)
H18_4 H 0.2418 0.4173 1.0000
C36_3 C 0.2864(8) 0.3517(5) 0.9893(3)
H20_3 H 0.2889 0.3573 0.9643
O9_3 O 0.1547(7) 0.4885(5) 0.9773(3)
O10_3 O 0.1570(10) 0.5850(6) 0.9973(4)
C37_3 C 0.5410(6) 0.0908(4) 0.6345(3)
C38_3 C 0.2101(9) 0.4427(6) 0.6206(5)
C40_3 C 0.2747(7) 0.3721(4) 0.7050(3)
H21_3 H 0.2811 0.3772 0.7305
C41_3 C 0.2541(9) 0.3594(6) 0.6301(4)
H22_3 H 0.2459 0.3541 0.6046
C42_3 C 0.2383(7) 0.4012(7) 0.6428(4)
C43_3 C 0.2462(7) 0.4081(4) 0.6824(4)
H23_3 H 0.2317 0.4373 0.6923
C44_3 C 0.2817(9) 0.3235(5) 0.6519(3)
H24_3 H 0.2930 0.2940 0.6411
N3_3 N 0.1303(8) 0.4943(6) 0.9148(3)
C45_3 C 0.1554(10) 0.4457(7) 0.9119(4)
H25_3 H 0.1451 0.4267 0.9327
H26_3 H 0.1327 0.4310 0.8894
H27_3 H 0.2054 0.4463 0.9116
C46_3 C 0.1320(10) 0.5128(8) 0.9468(5)
H28_3 H 0.1166 0.5450 0.9489
C47_3 C 0.1065(10) 0.5212(6) 0.8841(4)
H29_3 H 0.1112 0.5024 0.8622
H30_3 H 0.0578 0.5293 0.8843
H31_3 H 0.1336 0.5509 0.8840
N4_3 N 0.1142(12) 0.6760(8) 0.9947(6)
C49_3 C 0.0937(12) 0.6612(13) 0.9568(5)
H33_3 H 0.0737 0.6288 0.9562
H34_3 H 0.0594 0.6839 0.9449
H35_3 H 0.1342 0.6611 0.9440
C11_4 C 0.0355(7) 0.5439(6) 0.0666(3)
C33_4 C 0.0024(6) 0.5839(4) 0.0470(3)
H16_4 H 0.0032 0.5808 0.6995
C37_4 C 0.0410(6) 0.5908(4) 0.6345(3)
C48_4 C 0.6451(16) 0.1245(9) 0.0091(8)
H32_4 H 0.6580 0.1253 0.0347
O11_4 O 0.7825(7) 0.0293(4) 0.0208(3)
C50_4 C 0.6175(14) 0.2192(9) 0.0161(6)
H36_4 H 0.6453 0.2434 0.0055
H37_4 H 0.5708 0.2317 0.0164
H38_4 H 0.6387 0.2121 0.0410
H39_4 H 0.813213 0.0227679 0.0438805
H40_4 H 0.793869 0.0612607 0.0112374
O10_4 O 0.6570(10) 0.0850(6) 0.9973(4)
C46_4 C 0.6320(10) 0.0128(8) 0.9468(5)
H28_4 H 0.6166 0.0450 0.9489
C47_4 C 0.6065(10) 0.0212(6) 0.8841(4)
H29_4 H 0.6112 0.0024 0.8622
H30_4 H 0.5578 0.0293 0.8843
H31_4 H 0.6336 0.0509 0.8840
N4_4 N 0.6142(12) 0.1760(8) 0.9947(6)
C49_4 C 0.5937(12) 0.1612(13) 0.9568(5)
H33_4 H 0.5737 0.1288 0.9562
H34_4 H 0.5594 0.1839 0.9449
H35_4 H 0.6342 0.1611 0.9440
O5_4 O 0.7045(5) 0.9056(3) 0.0985(2)
N2_4 N 0.8721(5) 0.7358(3) 0.00241(19)
O8_4 O 0.6855(5) 0.9481(3) 0.0514(2)
C9_4 C 0.9841(6) 0.5801(3) 0.0118(3)
H5_4 H 0.9930 0.5508 0.0002
C18_4 C 0.7481(8) 0.8785(5) 0.0470(4)
C19_4 C 0.9315(6) 0.6579(5) 0.0059(3)
C22_4 C 0.7741(9) 0.8378(5) 0.0590(3)
H12_4 H 0.7717 0.8316 0.0840
C23_4 C 0.8052(7) 0.8017(4) 0.0410(3)
H13_4 H 0.8216 0.7726 0.0526
C28_4 C 0.8104(6) 0.8110(4) 0.0052(3)
C31_4 C 0.9450(8) 0.6629(5) 0.0441(3)
H17_4 H 0.9307 0.6911 0.0554
C34_4 C 0.7563(8) 0.8873(5) 0.0108(4)
H18_5 H 0.7418 0.9173 -0.0000
C35_4 C 0.9803(8) 0.6252(5) 0.0655(3)
H19_4 H 0.9889 0.6275 0.0913
C39_4 C 0.7100(9) 0.9129(5) 0.0660(4)
N1_4 N 0.8584(5) 0.7566(3) 0.6963(2)
C1_4 C 0.8879(7) 0.7135(4) 0.7524(3)
H1_4 H 0.9063 0.6856 0.7650
C2_4 C 0.8913(7) 0.7193(4) 0.7158(3)
C3_4 C 0.8619(7) 0.7416(4) 0.8861(3)
C4_4 C 0.9235(6) 0.6848(4) 0.6948(3)
C5_4 C 0.8570(7) 0.7496(4) 0.7703(3)
C6_4 C 0.8665(8) 0.7852(4) 0.8694(4)
H2_4 H 0.8722 0.8138 0.8836
C7_4 C 0.9778(7) 0.6664(4) 0.6403(3)
H3_4 H 0.9860 0.6754 0.6166
C8_4 C 0.8626(7) 0.7878(4) 0.8319(3)
H4_4 H 0.8634 0.8182 0.8203
C10_4 C 0.8518(7) 0.6997(4) 0.8650(3)
H6_4 H 0.8428 0.6699 0.8758
C12_4 C 0.8458(6) 0.7732(4) 0.9846(3)
C13_4 C 0.9531(6) 0.6163(4) 0.9913(3)
H7_4 H 0.9461 0.6127 0.9656
C14_4 C 0.9996(6) 0.6241(4) 0.6550(3)
C15_4 C 0.8551(8) 0.7025(4) 0.8291(3)
H8_4 H 0.8557 0.6735 0.8156
C16_4 C 0.8990(6) 0.6999(4) 0.9849(2)
C17_4 C 0.8955(6) 0.7005(4) 0.9462(3)
H9_4 H 0.9121 0.6735 0.9342
C20_4 C 0.9424(7) 0.6972(4) 0.6616(3)
H10_4 H 0.9308 0.7285 0.6525
C21_4 C 0.8233(6) 0.7858(4) 0.7505(3)
H11_4 H 0.7971 0.8085 0.7620
C24_4 C 0.8692(7) 0.7388(4) 0.9262(3)
C25_4 C 0.8367(7) 0.7768(4) 0.9455(3)
H14_4 H 0.8113 0.8023 0.9329
C26_4 C 0.9457(7) 0.6397(5) 0.7064(3)
H15_4 H 0.9322 0.6283 0.7285
C27_4 C 0.9856(8) 0.6102(4) 0.6888(3)
C29_4 C 0.8270(6) 0.7900(4) 0.7127(2)
C30_4 C 0.7947(7) 0.8280(4) 0.6911(3)
C32_4 C 0.8577(7) 0.7455(4) 0.8113(3)
H18_6 H 0.7418 0.9173 1.0000
C36_4 C 0.7864(8) 0.8517(5) 0.9893(3)
H20_4 H 0.7889 0.8573 0.9643
O9_4 O 0.6547(7) 0.9885(5) 0.9773(3)
C38_4 C 0.7101(9) 0.9427(6) 0.6206(5)
C40_4 C 0.7747(7) 0.8721(4) 0.7050(3)
H21_4 H 0.7811 0.8772 0.7305
C41_4 C 0.7541(9) 0.8594(6) 0.6301(4)
H22_4 H 0.7459 0.8541 0.6046
C42_4 C 0.7383(7) 0.9012(7) 0.6428(4)
C43_4 C 0.7462(7) 0.9081(4) 0.6824(4)
H23_4 H 0.7317 0.9373 0.6923
C44_4 C 0.7817(9) 0.8235(5) 0.6519(3)
H24_4 H 0.7930 0.7940 0.6411
N3_4 N 0.6303(8) 0.9943(6) 0.9148(3)
C45_4 C 0.6554(10) 0.9457(7) 0.9119(4)
H25_4 H 0.6451 0.9267 0.9327
H26_4 H 0.6327 0.9310 0.8894
H27_4 H 0.7054 0.9463 0.9116
Cd3_2 Cd 0.37742(4) 0.02983(2) 0.89909(2)
O1_3 O 0.8120(6) 0.5196(3) 0.3638(3)
O2_3 O 0.4595(4) 0.9027(2) 0.39942(19)
O3_3 O 0.4239(4) 0.9415(2) 0.34994(17)
O4_3 O 0.7969(5) 0.5648(3) 0.4134(3)
N1_5 N 0.6416(5) 0.7434(3) 0.3037(2)
C1_5 C 0.6121(7) 0.7865(4) 0.2476(3)
H1_5 H 0.5937 0.8144 0.2350
C2_5 C 0.6087(7) 0.7807(4) 0.2842(3)
C3_5 C 0.6381(7) 0.7584(4) 0.1139(3)
C4_5 C 0.5765(6) 0.8152(4) 0.3052(3)
C5_5 C 0.6430(7) 0.7504(4) 0.2297(3)
C6_5 C 0.6335(8) 0.7148(4) 0.1306(4)
H2_5 H 0.6278 0.6862 0.1164
C7_5 C 0.5222(7) 0.8336(4) 0.3597(3)
H3_5 H 0.5140 0.8246 0.3834
C8_5 C 0.6374(7) 0.7122(4) 0.1681(3)
H4_5 H 0.6366 0.6818 0.1797
C10_5 C 0.6482(7) 0.8003(4) 0.1350(3)
H6_5 H 0.6572 0.8301 0.1242
C12_5 C 0.6542(6) 0.7268(4) 0.0154(3)
C13_5 C 0.5469(6) 0.8837(4) 0.0087(3)
H7_5 H 0.5539 0.8873 0.0344
C14_5 C 0.5004(6) 0.8759(4) 0.3450(3)
C15_5 C 0.6449(8) 0.7975(4) 0.1709(3)
H8_5 H 0.6443 0.8265 0.1844
C16_5 C 0.6010(6) 0.8001(4) 0.0151(2)
C17_5 C 0.6045(6) 0.7995(4) 0.0538(3)
H9_5 H 0.5879 0.8265 0.0658
C20_5 C 0.5576(7) 0.8028(4) 0.3384(3)
H10_5 H 0.5692 0.7715 0.3475
C21_5 C 0.6767(6) 0.7142(4) 0.2495(3)
H11_5 H 0.7029 0.6915 0.2380
C24_5 C 0.6308(7) 0.7612(4) 0.0738(3)
C25_5 C 0.6633(7) 0.7232(4) 0.0545(3)
H14_5 H 0.6887 0.6977 0.0671
C26_5 C 0.5543(7) 0.8603(5) 0.2936(3)
H15_5 H 0.5678 0.8717 0.2715
C27_5 C 0.5144(8) 0.8898(4) 0.3112(3)
H16_5 H 0.4968 0.9192 0.3005
C29_5 C 0.6730(6) 0.7100(4) 0.2873(2)
C30_5 C 0.7053(7) 0.6720(4) 0.3089(3)
C32_5 C 0.6423(7) 0.7545(4) 0.1887(3)
H18_7 H 0.7582 0.5827 0.0000
C36_5 C 0.7136(8) 0.6483(5) 0.0107(3)
H20_5 H 0.7111 0.6427 0.0357
O9_5 O 0.8453(7) 0.5115(5) 0.0227(3)
O10_5 O 0.8430(10) 0.4150(6) 0.0027(4)
C37_5 C 0.4590(6) 0.9092(4) 0.3655(3)
C38_5 C 0.7899(9) 0.5573(6) 0.3794(5)
C40_5 C 0.7253(7) 0.6279(4) 0.2950(3)
H21_5 H 0.7189 0.6228 0.2695
C41_5 C 0.7459(9) 0.6406(6) 0.3699(4)
H22_5 H 0.7541 0.6459 0.3954
C42_5 C 0.7617(7) 0.5988(7) 0.3572(4)
C43_5 C 0.7538(7) 0.5919(4) 0.3176(4)
H23_5 H 0.7683 0.5627 0.3077
C44_5 C 0.7183(9) 0.6765(5) 0.3481(3)
H24_5 H 0.7070 0.7060 0.3589
N3_5 N 0.8697(8) 0.5057(6) 0.0852(3)
C45_5 C 0.8446(10) 0.5543(7) 0.0881(4)
H25_5 H 0.8549 0.5733 0.0673
H26_5 H 0.8673 0.5690 0.1106
H27_5 H 0.7946 0.5537 0.0884
C46_5 C 0.8680(10) 0.4872(8) 0.0532(5)
H28_5 H 0.8834 0.4550 0.0511
C47_5 C 0.8935(10) 0.4788(6) 0.1159(4)
H29_5 H 0.8888 0.4976 0.1378
H30_5 H 0.9422 0.4707 0.1157
H31_5 H 0.8664 0.4491 0.1160
N4_5 N 0.8858(12) 0.3240(8) 0.0053(6)
C49_5 C 0.9063(12) 0.3388(13) 0.0432(5)
H33_5 H 0.9263 0.3712 0.0438
H34_5 H 0.9406 0.3161 0.0551
H35_5 H 0.8658 0.3389 0.0560
Cd4_2 Cd 0.87742(4) 0.47017(2) 0.39909(2)
Cd5_2 Cd 0.37742(4) 0.97017(2) 0.39909(2)
Cd7_3 Cd 0.82478(7) 0.52900(4) 0.46919(3)
Cd1_2 Cd 0.87742(4) 0.52983(2) 0.89909(2)
Cd2_2 Cd 0.82478(7) 0.47100(4) 0.96919(3)
O5_5 O 0.7955(5) 0.5944(3) 0.9015(2)
O6_3 O 0.4292(5) 0.9878(3) 0.9467(2)
N2_5 N 0.6279(5) 0.7642(3) 0.99759(19)
O7_3 O 0.4648(5) 0.9568(3) 0.8988(3)
O8_5 O 0.8145(5) 0.5519(3) 0.9486(2)
C9_5 C 0.5159(6) 0.9199(3) 0.9882(3)
H5_5 H 0.5070 0.9492 0.9998
C11_5 C 0.4645(7) 0.9561(6) 0.9334(3)
C18_5 C 0.7519(8) 0.6215(5) 0.9530(4)
C19_5 C 0.5685(6) 0.8421(5) 0.9941(3)
C22_5 C 0.7259(9) 0.6622(5) 0.9410(3)
H12_5 H 0.7283 0.6684 0.9160
C23_5 C 0.6948(7) 0.6983(4) 0.9590(3)
H13_5 H 0.6784 0.7274 0.9474
C28_5 C 0.6896(6) 0.6890(4) 0.9948(3)
C31_5 C 0.5550(8) 0.8371(5) 0.9559(3)
H17_5 H 0.5693 0.8089 0.9446
C33_5 C 0.4976(6) 0.9161(4) 0.9530(3)
C34_5 C 0.7437(8) 0.6127(5) 0.9892(4)
H18_8 H 0.7582 0.5827 1.0000
C35_5 C 0.5197(8) 0.8748(5) 0.9345(3)
H19_5 H 0.5111 0.8725 0.9087
C39_5 C 0.7900(9) 0.5871(5) 0.9340(4)
C48_5 C 0.8549(16) 0.3755(9) 0.9909(8)
H32_5 H 0.8420 0.3747 0.9653
O11_5 O 0.7175(7) 0.4707(4) 0.9792(3)
C50_5 C 0.8825(14) 0.2808(9) 0.9839(6)
H36_5 H 0.8547 0.2566 0.9945
H37_5 H 0.9292 0.2683 0.9836
H38_5 H 0.8613 0.2879 0.9590
Cd6_2 Cd 0.32478(7) 0.97100(4) 0.96919(3)
O12_3 O 0.8120(6) 0.4804(3) 0.8638(3)
O13_3 O 0.9595(4) 0.5973(2) 0.89942(19)
O14_3 O 0.9239(4) 0.5585(2) 0.84994(17)
O15_3 O 0.7969(5) 0.4352(3) 0.9134(3)
O16_3 O 0.9292(5) 0.4878(3) 0.9467(2)
O17_3 O 0.9648(5) 0.4568(3) 0.8988(3)
H39_5 H 0.686787 0.477232 0.95612
H40_5 H 0.706131 0.438739 0.988763
O1_4 O 0.3120(6) 0.0196(3) 0.3638(3)
O4_4 O 0.2969(5) 0.0648(3) 0.4134(3)
N1_6 N 0.1416(5) 0.2434(3) 0.3037(2)
C1_6 C 0.1121(7) 0.2865(4) 0.2476(3)
H1_6 H 0.0937 0.3144 0.2350
C2_6 C 0.1087(7) 0.2807(4) 0.2842(3)
C3_6 C 0.1381(7) 0.2584(4) 0.1139(3)
C4_6 C 0.0765(6) 0.3152(4) 0.3052(3)
C5_6 C 0.1430(7) 0.2504(4) 0.2297(3)
C6_6 C 0.1335(8) 0.2148(4) 0.1306(4)
H2_6 H 0.1278 0.1862 0.1164
C7_6 C 0.0222(7) 0.3336(4) 0.3597(3)
H3_6 H 0.0140 0.3246 0.3834
C8_6 C 0.1374(7) 0.2122(4) 0.1681(3)
H4_6 H 0.1366 0.1818 0.1797
C10_6 C 0.1482(7) 0.3003(4) 0.1350(3)
H6_6 H 0.1572 0.3301 0.1242
C12_6 C 0.1542(6) 0.2268(4) 0.0154(3)
C13_6 C 0.0469(6) 0.3837(4) 0.0087(3)
H7_6 H 0.0539 0.3873 0.0344
C14_6 C 0.0004(6) 0.3759(4) 0.3450(3)
C15_6 C 0.1449(8) 0.2975(4) 0.1709(3)
H8_6 H 0.1443 0.3265 0.1844
C16_6 C 0.1010(6) 0.3001(4) 0.0151(2)
C17_6 C 0.1045(6) 0.2995(4) 0.0538(3)
H9_6 H 0.0879 0.3265 0.0658
C20_6 C 0.0576(7) 0.3028(4) 0.3384(3)
H10_6 H 0.0692 0.2715 0.3475
C21_6 C 0.1767(6) 0.2142(4) 0.2495(3)
H11_6 H 0.2029 0.1915 0.2380
C24_6 C 0.1308(7) 0.2612(4) 0.0738(3)
C25_6 C 0.1633(7) 0.2232(4) 0.0545(3)
H14_6 H 0.1887 0.1977 0.0671
C26_6 C 0.0543(7) 0.3603(5) 0.2936(3)
H15_6 H 0.0678 0.3717 0.2715
C27_6 C 0.0144(8) 0.3898(4) 0.3112(3)
C29_6 C 0.1730(6) 0.2100(4) 0.2873(2)
C30_6 C 0.2053(7) 0.1720(4) 0.3089(3)
C32_6 C 0.1423(7) 0.2545(4) 0.1887(3)
H18_9 H 0.2582 0.0827 0.0000
C36_6 C 0.2136(8) 0.1483(5) 0.0107(3)
H20_6 H 0.2111 0.1427 0.0357
O9_6 O 0.3453(7) 0.0115(5) 0.0227(3)
C38_6 C 0.2899(9) 0.0573(6) 0.3794(5)
C40_6 C 0.2253(7) 0.1279(4) 0.2950(3)
H21_6 H 0.2189 0.1228 0.2695
C41_6 C 0.2459(9) 0.1406(6) 0.3699(4)
H22_6 H 0.2541 0.1459 0.3954
C42_6 C 0.2617(7) 0.0988(7) 0.3572(4)
C43_6 C 0.2538(7) 0.0919(4) 0.3176(4)
H23_6 H 0.2683 0.0627 0.3077
C44_6 C 0.2183(9) 0.1765(5) 0.3481(3)
H24_6 H 0.2070 0.2060 0.3589
N3_6 N 0.3697(8) 0.0057(6) 0.0852(3)
C45_6 C 0.3446(10) 0.0543(7) 0.0881(4)
H25_6 H 0.3549 0.0733 0.0673
H26_6 H 0.3673 0.0690 0.1106
H27_6 H 0.2946 0.0537 0.0884
Cd7_4 Cd 0.32478(7) 0.02900(4) 0.46919(3)
O5_6 O 0.2955(5) 0.0944(3) 0.9015(2)
N2_6 N 0.1279(5) 0.2642(3) 0.99759(19)
O8_6 O 0.3145(5) 0.0519(3) 0.9486(2)
C9_6 C 0.0159(6) 0.4199(3) 0.9882(3)
H5_6 H 0.0070 0.4492 0.9998
C18_6 C 0.2519(8) 0.1215(5) 0.9530(4)
C19_6 C 0.0685(6) 0.3421(5) 0.9941(3)
C22_6 C 0.2259(9) 0.1622(5) 0.9410(3)
H12_6 H 0.2283 0.1684 0.9160
C23_6 C 0.1948(7) 0.1983(4) 0.9590(3)
H13_6 H 0.1784 0.2274 0.9474
C28_6 C 0.1896(6) 0.1890(4) 0.9948(3)
C31_6 C 0.0550(8) 0.3371(5) 0.9559(3)
H17_6 H 0.0693 0.3089 0.9446
C34_6 C 0.2437(8) 0.1127(5) 0.9892(4)
H18_10 H 0.2582 0.0827 1.0000
C35_6 C 0.0197(8) 0.3748(5) 0.9345(3)
H19_6 H 0.0111 0.3725 0.9087
C39_6 C 0.2900(9) 0.0871(5) 0.9340(4)
O13_4 O 0.4595(4) 0.0973(2) 0.89942(19)
O14_4 O 0.4239(4) 0.0585(2) 0.84994(17)
O10_6 O 0.3430(10) 0.9150(6) 0.0027(4)
C46_6 C 0.3680(10) 0.9872(8) 0.0532(5)
H28_6 H 0.3834 0.9550 0.0511
C47_6 C 0.3935(10) 0.9788(6) 0.1159(4)
H29_6 H 0.3888 0.9976 0.1378
H30_6 H 0.4422 0.9707 0.1157
H31_6 H 0.3664 0.9491 0.1160
N4_6 N 0.3858(12) 0.8240(8) 0.0053(6)
C49_6 C 0.4063(12) 0.8388(13) 0.0432(5)
H33_6 H 0.4263 0.8712 0.0438
H34_6 H 0.4406 0.8161 0.0551
H35_6 H 0.3658 0.8389 0.0560
C48_6 C 0.3549(16) 0.8755(9) 0.9909(8)
H32_6 H 0.3420 0.8747 0.9653
O11_6 O 0.2175(7) 0.9707(4) 0.9792(3)
C50_6 C 0.3825(14) 0.7808(9) 0.9839(6)
H36_6 H 0.3547 0.7566 0.9945
H37_6 H 0.4292 0.7683 0.9836
H38_6 H 0.3613 0.7879 0.9590
O12_4 O 0.3120(6) 0.9804(3) 0.8638(3)
O15_4 O 0.2969(5) 0.9352(3) 0.9134(3)
H39_6 H 0.186787 0.977232 0.95612
H40_6 H 0.206131 0.938739 0.988763
O2_4 O 0.9595(4) 0.4027(2) 0.39942(19)
O3_4 O 0.9239(4) 0.4415(2) 0.34994(17)
H16_6 H 0.9968 0.4192 0.3005
C37_6 C 0.9590(6) 0.4092(4) 0.3655(3)
C11_6 C 0.9645(7) 0.4561(6) 0.9334(3)
C33_6 C 0.9976(6) 0.4161(4) 0.9530(3)
O5_7 O 0.7955(5) 0.4056(3) 0.4015(2)
N1_7 N 0.6416(5) 0.2566(3) 0.8037(2)
O6_4 O 0.4292(5) 0.0122(3) 0.4467(2)
N2_7 N 0.6279(5) 0.2358(3) 0.49759(19)
O7_4 O 0.4648(5) 0.0432(3) 0.3988(3)
C1_7 C 0.6121(7) 0.2135(4) 0.7476(3)
H1_7 H 0.5937 0.1856 0.7350
C2_7 C 0.6087(7) 0.2193(4) 0.7842(3)
C3_7 C 0.6381(7) 0.2416(4) 0.6139(3)
C4_7 C 0.5765(6) 0.1848(4) 0.8052(3)
C5_7 C 0.6430(7) 0.2496(4) 0.7297(3)
C6_7 C 0.6335(8) 0.2852(4) 0.6306(4)
H2_7 H 0.6278 0.3138 0.6164
C7_7 C 0.5222(7) 0.1664(4) 0.8597(3)
H3_7 H 0.5140 0.1754 0.8834
C8_7 C 0.6374(7) 0.2878(4) 0.6681(3)
H4_7 H 0.6366 0.3182 0.6797
O8_7 O 0.8145(5) 0.4481(3) 0.4486(2)
C9_7 C 0.5159(6) 0.0801(3) 0.4882(3)
H5_7 H 0.5070 0.0508 0.4998
C10_7 C 0.6482(7) 0.1997(4) 0.6350(3)
H6_7 H 0.6572 0.1699 0.6242
C11_7 C 0.4645(7) 0.0439(6) 0.4334(3)
C12_7 C 0.6542(6) 0.2732(4) 0.5154(3)
C13_7 C 0.5469(6) 0.1163(4) 0.5087(3)
H7_7 H 0.5539 0.1127 0.5344
C14_7 C 0.5004(6) 0.1241(4) 0.8450(3)
C15_7 C 0.6449(8) 0.2025(4) 0.6709(3)
H8_7 H 0.6443 0.1735 0.6844
C16_7 C 0.6010(6) 0.1999(4) 0.5151(2)
C17_7 C 0.6045(6) 0.2005(4) 0.5538(3)
H9_7 H 0.5879 0.1735 0.5658
C18_7 C 0.7519(8) 0.3785(5) 0.4530(4)
C19_7 C 0.5685(6) 0.1579(5) 0.4941(3)
C20_7 C 0.5576(7) 0.1972(4) 0.8384(3)
H10_7 H 0.5692 0.2285 0.8475
C21_7 C 0.6767(6) 0.2858(4) 0.7495(3)
H11_7 H 0.7029 0.3085 0.7380
C22_7 C 0.7259(9) 0.3378(5) 0.4410(3)
H12_7 H 0.7283 0.3316 0.4160
C23_7 C 0.6948(7) 0.3017(4) 0.4590(3)
H13_7 H 0.6784 0.2726 0.4474
C24_7 C 0.6308(7) 0.2388(4) 0.5738(3)
C25_7 C 0.6633(7) 0.2768(4) 0.5545(3)
H14_7 H 0.6887 0.3023 0.5671
C26_7 C 0.5543(7) 0.1397(5) 0.7936(3)
H15_7 H 0.5678 0.1283 0.7715
C27_7 C 0.5144(8) 0.1102(4) 0.8112(3)
H16_7 H 0.4968 0.0808 0.8005
C28_7 C 0.6896(6) 0.3110(4) 0.4948(3)
C29_7 C 0.6730(6) 0.2900(4) 0.7873(2)
C30_7 C 0.7053(7) 0.3280(4) 0.8089(3)
C31_7 C 0.5550(8) 0.1629(5) 0.4559(3)
H17_7 H 0.5693 0.1911 0.4446
C32_7 C 0.6423(7) 0.2455(4) 0.6887(3)
C33_7 C 0.4976(6) 0.0839(4) 0.4530(3)
C34_7 C 0.7437(8) 0.3873(5) 0.4892(4)
H18_11 H 0.7582 0.4173 0.5000
C35_7 C 0.5197(8) 0.1252(5) 0.4345(3)
H19_7 H 0.5111 0.1275 0.4087
C36_7 C 0.7136(8) 0.3517(5) 0.5107(3)
H20_7 H 0.7111 0.3573 0.5357
O9_7 O 0.8453(7) 0.4885(5) 0.5227(3)
O10_7 O 0.8430(10) 0.5850(6) 0.5027(4)
C37_7 C 0.4590(6) 0.0908(4) 0.8655(3)
C38_7 C 0.7899(9) 0.4427(6) 0.8794(5)
C39_7 C 0.7900(9) 0.4129(5) 0.4340(4)
C40_7 C 0.7253(7) 0.3721(4) 0.7950(3)
H21_7 H 0.7189 0.3772 0.7695
C41_7 C 0.7459(9) 0.3594(6) 0.8699(4)
H22_7 H 0.7541 0.3541 0.8954
C42_7 C 0.7617(7) 0.4012(7) 0.8572(4)
C43_7 C 0.7538(7) 0.4081(4) 0.8176(4)
H23_7 H 0.7683 0.4373 0.8077
C44_7 C 0.7183(9) 0.3235(5) 0.8481(3)
H24_7 H 0.7070 0.2940 0.8589
N3_7 N 0.8697(8) 0.4943(6) 0.5852(3)
C45_7 C 0.8446(10) 0.4457(7) 0.5881(4)
H25_7 H 0.8549 0.4267 0.5673
H26_7 H 0.8673 0.4310 0.6106
H27_7 H 0.7946 0.4463 0.5884
C46_7 C 0.8680(10) 0.5128(8) 0.5532(5)
H28_7 H 0.8834 0.5450 0.5511
C47_7 C 0.8935(10) 0.5212(6) 0.6159(4)
H29_7 H 0.8888 0.5024 0.6378
H30_7 H 0.9422 0.5293 0.6157
H31_7 H 0.8664 0.5509 0.6160
C48_7 C 0.8549(16) 0.6245(9) 0.4909(8)
H32_7 H 0.8420 0.6253 0.4653
O11_7 O 0.7175(7) 0.5293(4) 0.4792(3)
N4_7 N 0.8858(12) 0.6760(8) 0.5053(6)
C49_7 C 0.9063(12) 0.6612(13) 0.5432(5)
H33_7 H 0.9263 0.6288 0.5438
H34_7 H 0.9406 0.6839 0.5551
H35_7 H 0.8658 0.6611 0.5560
C50_7 C 0.8825(14) 0.7192(9) 0.4839(6)
H36_7 H 0.8547 0.7434 0.4945
H37_7 H 0.9292 0.7317 0.4836
H38_7 H 0.8613 0.7121 0.4590
O16_4 O 0.9292(5) 0.5122(3) 0.4467(2)
O17_4 O 0.9648(5) 0.5432(3) 0.3988(3)
H39_7 H 0.686787 0.522768 0.45612
H40_7 H 0.706131 0.561261 0.488763
O10_8 O 0.3430(10) 0.0850(6) 0.5027(4)
C46_8 C 0.3680(10) 0.0128(8) 0.5532(5)
H28_8 H 0.3834 0.0450 0.5511
C47_8 C 0.3935(10) 0.0212(6) 0.6159(4)
H29_8 H 0.3888 0.0024 0.6378
H30_8 H 0.4422 0.0293 0.6157
H31_8 H 0.3664 0.0509 0.6160
C48_8 C 0.3549(16) 0.1245(9) 0.4909(8)
H32_8 H 0.3420 0.1253 0.4653
O11_8 O 0.2175(7) 0.0293(4) 0.4792(3)
N4_8 N 0.3858(12) 0.1760(8) 0.5053(6)
C49_8 C 0.4063(12) 0.1612(13) 0.5432(5)
H33_8 H 0.4263 0.1288 0.5438
H34_8 H 0.4406 0.1839 0.5551
H35_8 H 0.3658 0.1611 0.5560
C50_8 C 0.3825(14) 0.2192(9) 0.4839(6)
H36_8 H 0.3547 0.2434 0.4945
H37_8 H 0.4292 0.2317 0.4836
H38_8 H 0.3613 0.2121 0.4590
H39_8 H 0.186787 0.0227679 0.45612
H40_8 H 0.206131 0.0612607 0.488763
O5_8 O 0.2955(5) 0.9056(3) 0.4015(2)
N1_8 N 0.1416(5) 0.7566(3) 0.8037(2)
N2_8 N 0.1279(5) 0.7358(3) 0.49759(19)
C1_8 C 0.1121(7) 0.7135(4) 0.7476(3)
H1_8 H 0.0937 0.6856 0.7350
C2_8 C 0.1087(7) 0.7193(4) 0.7842(3)
C3_8 C 0.1381(7) 0.7416(4) 0.6139(3)
C4_8 C 0.0765(6) 0.6848(4) 0.8052(3)
C5_8 C 0.1430(7) 0.7496(4) 0.7297(3)
C6_8 C 0.1335(8) 0.7852(4) 0.6306(4)
H2_8 H 0.1278 0.8138 0.6164
C7_8 C 0.0222(7) 0.6664(4) 0.8597(3)
H3_8 H 0.0140 0.6754 0.8834
C8_8 C 0.1374(7) 0.7878(4) 0.6681(3)
H4_8 H 0.1366 0.8182 0.6797
O8_8 O 0.3145(5) 0.9481(3) 0.4486(2)
C9_8 C 0.0159(6) 0.5801(3) 0.4882(3)
H5_8 H 0.0070 0.5508 0.4998
C10_8 C 0.1482(7) 0.6997(4) 0.6350(3)
H6_8 H 0.1572 0.6699 0.6242
C12_8 C 0.1542(6) 0.7732(4) 0.5154(3)
C13_8 C 0.0469(6) 0.6163(4) 0.5087(3)
H7_8 H 0.0539 0.6127 0.5344
C14_8 C 0.0004(6) 0.6241(4) 0.8450(3)
C15_8 C 0.1449(8) 0.7025(4) 0.6709(3)
H8_8 H 0.1443 0.6735 0.6844
C16_8 C 0.1010(6) 0.6999(4) 0.5151(2)
C17_8 C 0.1045(6) 0.7005(4) 0.5538(3)
H9_8 H 0.0879 0.6735 0.5658
C18_8 C 0.2519(8) 0.8785(5) 0.4530(4)
C19_8 C 0.0685(6) 0.6579(5) 0.4941(3)
C20_8 C 0.0576(7) 0.6972(4) 0.8384(3)
H10_8 H 0.0692 0.7285 0.8475
C21_8 C 0.1767(6) 0.7858(4) 0.7495(3)
H11_8 H 0.2029 0.8085 0.7380
C22_8 C 0.2259(9) 0.8378(5) 0.4410(3)
H12_8 H 0.2283 0.8316 0.4160
C23_8 C 0.1948(7) 0.8017(4) 0.4590(3)
H13_8 H 0.1784 0.7726 0.4474
C24_8 C 0.1308(7) 0.7388(4) 0.5738(3)
C25_8 C 0.1633(7) 0.7768(4) 0.5545(3)
H14_8 H 0.1887 0.8023 0.5671
C26_8 C 0.0543(7) 0.6397(5) 0.7936(3)
H15_8 H 0.0678 0.6283 0.7715
C27_8 C 0.0144(8) 0.6102(4) 0.8112(3)
C28_8 C 0.1896(6) 0.8110(4) 0.4948(3)
C29_8 C 0.1730(6) 0.7900(4) 0.7873(2)
C30_8 C 0.2053(7) 0.8280(4) 0.8089(3)
C31_8 C 0.0550(8) 0.6629(5) 0.4559(3)
H17_8 H 0.0693 0.6911 0.4446
C32_8 C 0.1423(7) 0.7455(4) 0.6887(3)
C34_8 C 0.2437(8) 0.8873(5) 0.4892(4)
H18_12 H 0.2582 0.9173 0.5000
C35_8 C 0.0197(8) 0.6252(5) 0.4345(3)
H19_8 H 0.0111 0.6275 0.4087
C36_8 C 0.2136(8) 0.8517(5) 0.5107(3)
H20_8 H 0.2111 0.8573 0.5357
O9_8 O 0.3453(7) 0.9885(5) 0.5227(3)
C38_8 C 0.2899(9) 0.9427(6) 0.8794(5)
C39_8 C 0.2900(9) 0.9129(5) 0.4340(4)
C40_8 C 0.2253(7) 0.8721(4) 0.7950(3)
H21_8 H 0.2189 0.8772 0.7695
C41_8 C 0.2459(9) 0.8594(6) 0.8699(4)
H22_8 H 0.2541 0.8541 0.8954
C42_8 C 0.2617(7) 0.9012(7) 0.8572(4)
C43_8 C 0.2538(7) 0.9081(4) 0.8176(4)
H23_8 H 0.2683 0.9373 0.8077
C44_8 C 0.2183(9) 0.8235(5) 0.8481(3)
H24_8 H 0.2070 0.7940 0.8589
N3_8 N 0.3697(8) 0.9943(6) 0.5852(3)
C45_8 C 0.3446(10) 0.9457(7) 0.5881(4)
H25_8 H 0.3549 0.9267 0.5673
H26_8 H 0.3673 0.9310 0.6106
H27_8 H 0.2946 0.9463 0.5884
C11_8 C 0.9645(7) 0.5439(6) 0.4334(3)
H16_8 H 0.9968 0.5808 0.8005
C33_8 C 0.9976(6) 0.5839(4) 0.4530(3)
C37_8 C 0.9590(6) 0.5908(4) 0.8655(3)
loop_
_geom_bond_atom_site_label_1
_geom_bond_atom_site_label_2
_geom_bond_site_symmetry_1
_geom_bond_site_symmetry_2
Cd1 O5 1_555 1_555
Cd2 O8 1_555 1_555
O1 C38 1_555 1_555
O2 C37 1_555 1_555
O3 C37 1_555 1_555
O4 C38 1_555 1_555
O5 C39 1_555 1_555
N1 C2 1_555 1_555
O6 C11 1_555 1_555
N2 C12 1_555 1_555
O7 C11 1_555 1_555
C1 H1 1_555 1_555
C2 C1 1_555 1_555
C3 C6 1_555 1_555
C4 C2 1_555 1_555
C5 C1 1_555 1_555
C6 H2 1_555 1_555
C7 H3 1_555 1_555
C8 C6 1_555 1_555
H4 C8 1_555 1_555
O8 Cd1 1_555 1_555
C9 H5 1_555 1_555
C10 C3 1_555 1_555
H6 C10 1_555 1_555
C11 C33 1_555 1_555
C12 C25 1_555 1_555
C13 C9 1_555 1_555
H7 C13 1_555 1_555
C14 C7 1_555 1_555
C15 C10 1_555 1_555
H8 C15 1_555 1_555
C16 N2 1_555 1_555
C17 C16 1_555 1_555
H9 C17 1_555 1_555
C18 C22 1_555 1_555
C19 C13 1_555 1_555
C20 C4 1_555 1_555
H10 C20 1_555 1_555
C21 C5 1_555 1_555
H11 C21 1_555 1_555
C22 H12 1_555 1_555
C23 C22 1_555 1_555
H13 C23 1_555 1_555
C24 C3 1_555 1_555
C25 C24 1_555 1_555
H14 C25 1_555 1_555
C26 C4 1_555 1_555
H15 C26 1_555 1_555
C27 C14 1_555 1_555
H16 C27 1_555 1_555
C28 C12 1_555 1_555
C29 N1 1_555 1_555
C30 C29 1_555 1_555
C31 C19 1_555 1_555
H17 C31 1_555 1_555
C32 C5 1_555 1_555
C33 C9 1_555 1_555
C34 C18 1_555 1_555
H18 C34 1_555 1_555
C35 C31 1_555 1_555
H19 C35 1_555 1_555
C36 C28 1_555 1_555
H20 C36 1_555 1_555
O9 Cd2 1_555 1_555
O10 Cd2 1_555 1_555
C37 C14 1_555 1_555
C38 C42 1_555 1_555
C39 O8 1_555 1_555
C40 C30 1_555 1_555
H21 C40 1_555 1_555
C41 H22 1_555 1_555
C42 C41 1_555 1_555
C43 C40 1_555 1_555
H23 C43 1_555 1_555
C44 C30 1_555 1_555
H24 C44 1_555 1_555
N3 C45 1_555 1_555
C45 H25 1_555 1_555
H26 C45 1_555 1_555
H27 C45 1_555 1_555
C46 O9 1_555 1_555
H28 C46 1_555 1_555
C47 N3 1_555 1_555
H29 C47 1_555 1_555
H30 C47 1_555 1_555
H31 C47 1_555 1_555
C48 O10 1_555 1_555
H32 C48 1_555 1_555
O11 Cd2 1_555 1_555
N4 C48 1_555 1_555
C49 N4 1_555 1_555
H33 C49 1_555 1_555
H34 C49 1_555 1_555
H35 C49 1_555 1_555
C50 N4 1_555 1_555
H36 C50 1_555 1_555
H37 C50 1_555 1_555
H38 C50 1_555 1_555
Cd4 O1 1_555 1_555
Cd5 O2 1_555 1_555
Cd6 O6 1_555 1_555
Cd7 O4 1_555 1_555
O12 Cd1 1_555 1_555
O13 Cd1 1_555 1_555
O14 Cd1 1_555 1_555
O15 Cd2 1_555 1_555
O16 Cd1 1_555 1_555
O17 Cd1 1_555 1_555
Cd2 O16 1_555 1_555
O3 Cd5 1_555 1_555
C7 C20 1_555 1_555
C8 C32 1_555 1_555
C15 C32 1_555 1_555
C16 C19 1_555 1_555
C17 C24 1_555 1_555
C18 C39 1_555 1_555
C21 C29 1_555 1_555
C23 C28 1_555 1_555
C26 C27 1_555 1_555
C33 C35 1_555 1_555
C34 C36 1_555 1_555
C41 C44 1_555 1_555
C42 C43 1_555 1_555
N3 C46 1_555 1_555
O11 H39 1_555 1_555
O11 H40 1_555 1_555
O2_2 C37_2 1_555 1_555
O3_2 C37_2 1_555 1_555
O16 C11_2 1_555 1_555
O17 C11_2 1_555 1_555
C11_2 C33_2 1_555 1_555
Cd4 O2_2 1_555 1_555
O3_2 Cd4 1_555 1_555
Cd3 O5_2 1_555 1_555
O1_2 C38_2 1_555 1_555
O4_2 C38_2 1_555 1_555
O5_2 C39_2 1_555 1_555
N1_2 C2_2 1_555 1_555
N2_2 C12_2 1_555 1_555
C1_2 H1_2 1_555 1_555
C2_2 C1_2 1_555 1_555
C3_2 C6_2 1_555 1_555
C4_2 C2_2 1_555 1_555
C5_2 C1_2 1_555 1_555
C6_2 H2_2 1_555 1_555
C7_2 H3_2 1_555 1_555
C8_2 C6_2 1_555 1_555
H4_2 C8_2 1_555 1_555
O8_2 Cd3 1_555 1_555
C9_2 H5_2 1_555 1_555
C10_2 C3_2 1_555 1_555
H6_2 C10_2 1_555 1_555
C12_2 C25_2 1_555 1_555
C13_2 C9_2 1_555 1_555
H7_2 C13_2 1_555 1_555
C14_2 C7_2 1_555 1_555
C15_2 C10_2 1_555 1_555
H8_2 C15_2 1_555 1_555
C16_2 N2_2 1_555 1_555
C17_2 C16_2 1_555 1_555
H9_2 C17_2 1_555 1_555
C18_2 C22_2 1_555 1_555
C19_2 C13_2 1_555 1_555
C20_2 C4_2 1_555 1_555
H10_2 C20_2 1_555 1_555
C21_2 C5_2 1_555 1_555
H11_2 C21_2 1_555 1_555
C22_2 H12_2 1_555 1_555
C23_2 C22_2 1_555 1_555
H13_2 C23_2 1_555 1_555
C24_2 C3_2 1_555 1_555
C25_2 C24_2 1_555 1_555
H14_2 C25_2 1_555 1_555
C26_2 C4_2 1_555 1_555
H15_2 C26_2 1_555 1_555
C27_2 C14_2 1_555 1_555
C28_2 C12_2 1_555 1_555
C29_2 N1_2 1_555 1_555
C30_2 C29_2 1_555 1_555
C31_2 C19_2 1_555 1_555
H17_2 C31_2 1_555 1_555
C32_2 C5_2 1_555 1_555
C34_2 C18_2 1_555 1_555
H18_2 C34_2 1_555 1_555
C35_2 C31_2 1_555 1_555
H19_2 C35_2 1_555 1_555
C36_2 C28_2 1_555 1_555
H20_2 C36_2 1_555 1_555
C38_2 C42_2 1_555 1_555
C39_2 O8_2 1_555 1_555
C40_2 C30_2 1_555 1_555
H21_2 C40_2 1_555 1_555
C41_2 H22_2 1_555 1_555
C42_2 C41_2 1_555 1_555
C43_2 C40_2 1_555 1_555
H23_2 C43_2 1_555 1_555
C44_2 C30_2 1_555 1_555
H24_2 C44_2 1_555 1_555
N3_2 C45_2 1_555 1_555
C45_2 H25_2 1_555 1_555
H26_2 C45_2 1_555 1_555
H27_2 C45_2 1_555 1_555
Cd7_2 O4_2 1_555 1_555
O13_2 Cd3 1_555 1_555
O14_2 Cd3 1_555 1_555
C7_2 C20_2 1_555 1_555
C8_2 C32_2 1_555 1_555
C15_2 C32_2 1_555 1_555
C16_2 C19_2 1_555 1_555
C17_2 C24_2 1_555 1_555
C18_2 C39_2 1_555 1_555
C21_2 C29_2 1_555 1_555
C23_2 C28_2 1_555 1_555
C26_2 C27_2 1_555 1_555
C34_2 C36_2 1_555 1_555
C41_2 C44_2 1_555 1_555
C42_2 C43_2 1_555 1_555
O10_2 Cd6 1_555 1_555
H28_2 C46_2 1_555 1_555
H29_2 C47_2 1_555 1_555
H30_2 C47_2 1_555 1_555
H31_2 C47_2 1_555 1_555
C48_2 O10_2 1_555 1_555
H32_2 C48_2 1_555 1_555
O11_2 Cd6 1_555 1_555
N4_2 C48_2 1_555 1_555
C49_2 N4_2 1_555 1_555
H33_2 C49_2 1_555 1_555
H34_2 C49_2 1_555 1_555
H35_2 C49_2 1_555 1_555
C50_2 N4_2 1_555 1_555
H36_2 C50_2 1_555 1_555
H37_2 C50_2 1_555 1_555
H38_2 C50_2 1_555 1_555
O15_2 Cd6 1_555 1_555
O11_2 H39_2 1_555 1_555
O11_2 H40_2 1_555 1_555
Cd4 O5_3 1_555 1_555
Cd7 O8_3 1_555 1_555
O5_3 C39_3 1_555 1_555
O6_2 C11_3 1_555 1_555
O7_2 C11_3 1_555 1_555
O8_3 Cd4 1_555 1_555
C9_3 H5_3 1_555 1_555
C11_3 C33_3 1_555 1_555
C18_3 C22_3 1_555 1_555
C22_3 H12_3 1_555 1_555
C23_3 C22_3 1_555 1_555
H13_3 C23_3 1_555 1_555
C31_3 C19_3 1_555 1_555
H17_3 C31_3 1_555 1_555
C33_3 C9_3 1_555 1_555
C34_3 C18_3 1_555 1_555
H18_3 C34_3 1_555 1_555
C35_3 C31_3 1_555 1_555
H19_3 C35_3 1_555 1_555
C39_3 O8_3 1_555 1_555
H32_3 C48_3 1_555 1_555
O11_3 Cd7 1_555 1_555
H36_3 C50_3 1_555 1_555
H37_3 C50_3 1_555 1_555
H38_3 C50_3 1_555 1_555
Cd7_2 O6_2 1_555 1_555
O16_2 Cd4 1_555 1_555
O17_2 Cd4 1_555 1_555
Cd7 O16_2 1_555 1_555
C18_3 C39_3 1_555 1_555
C23_3 C28_3 1_555 1_555
C33_3 C35_3 1_555 1_555
O11_3 H39_3 1_555 1_555
O11_3 H40_3 1_555 1_555
O12 C38_3 1_555 1_555
O13_2 C37_3 1_555 1_555
O14_2 C37_3 1_555 1_555
O15 C38_3 1_555 1_555
N1_3 C2_3 1_555 1_555
C1_3 H1_3 1_555 1_555
C2_3 C1_3 1_555 1_555
C3_3 C6_3 1_555 1_555
C4_3 C2_3 1_555 1_555
C5_3 C1_3 1_555 1_555
C6_3 H2_3 1_555 1_555
C7_3 H3_3 1_555 1_555
C8_3 C6_3 1_555 1_555
H4_3 C8_3 1_555 1_555
C10_3 C3_3 1_555 1_555
H6_3 C10_3 1_555 1_555
C12_3 C25_3 1_555 1_555
H7_3 C13_3 1_555 1_555
C14_3 C7_3 1_555 1_555
C15_3 C10_3 1_555 1_555
H8_3 C15_3 1_555 1_555
C17_3 C16_3 1_555 1_555
H9_3 C17_3 1_555 1_555
C20_3 C4_3 1_555 1_555
H10_3 C20_3 1_555 1_555
C21_3 C5_3 1_555 1_555
H11_3 C21_3 1_555 1_555
C24_3 C3_3 1_555 1_555
C25_3 C24_3 1_555 1_555
H14_3 C25_3 1_555 1_555
C26_3 C4_3 1_555 1_555
H15_3 C26_3 1_555 1_555
C27_3 C14_3 1_555 1_555
H16_3 C27_3 1_555 1_555
C29_3 N1_3 1_555 1_555
C30_3 C29_3 1_555 1_555
C32_3 C5_3 1_555 1_555
H20_3 C36_3 1_555 1_555
C37_3 C14_3 1_555 1_555
C38_3 C42_3 1_555 1_555
C40_3 C30_3 1_555 1_555
H21_3 C40_3 1_555 1_555
C41_3 H22_3 1_555 1_555
C42_3 C41_3 1_555 1_555
C43_3 C40_3 1_555 1_555
H23_3 C43_3 1_555 1_555
C44_3 C30_3 1_555 1_555
H24_3 C44_3 1_555 1_555
N3_3 C45_3 1_555 1_555
C45_3 H25_3 1_555 1_555
H26_3 C45_3 1_555 1_555
H27_3 C45_3 1_555 1_555
C46_3 O9_3 1_555 1_555
H28_3 C46_3 1_555 1_555
C47_3 N3_3 1_555 1_555
H29_3 C47_3 1_555 1_555
H30_3 C47_3 1_555 1_555
H31_3 C47_3 1_555 1_555
C49_3 N4_3 1_555 1_555
H33_3 C49_3 1_555 1_555
H34_3 C49_3 1_555 1_555
H35_3 C49_3 1_555 1_555
C7_3 C20_3 1_555 1_555
C8_3 C32_3 1_555 1_555
C15_3 C32_3 1_555 1_555
C17_3 C24_3 1_555 1_555
C21_3 C29_3 1_555 1_555
C26_3 C27_3 1_555 1_555
C41_3 C44_3 1_555 1_555
C42_3 C43_3 1_555 1_555
N3_3 C46_3 1_555 1_555
O16_2 C11_4 1_555 1_555
O17_2 C11_4 1_555 1_555
C11_4 C33_4 1_555 1_555
O13 C37_4 1_555 1_555
O14 C37_4 1_555 1_555
H32_4 C48_4 1_555 1_555
O11_4 Cd7_2 1_555 1_555
H36_4 C50_4 1_555 1_555
H37_4 C50_4 1_555 1_555
H38_4 C50_4 1_555 1_555
O11_4 H39_4 1_555 1_555
O11_4 H40_4 1_555 1_555
H28_4 C46_4 1_555 1_555
H29_4 C47_4 1_555 1_555
H30_4 C47_4 1_555 1_555
H31_4 C47_4 1_555 1_555
C49_4 N4_4 1_555 1_555
H33_4 C49_4 1_555 1_555
H34_4 C49_4 1_555 1_555
H35_4 C49_4 1_555 1_555
Cd5 O5_4 1_555 1_555
O5_4 C39_4 1_555 1_555
O8_4 Cd5 1_555 1_555
C9_4 H5_4 1_555 1_555
C18_4 C22_4 1_555 1_555
C22_4 H12_4 1_555 1_555
C23_4 C22_4 1_555 1_555
H13_4 C23_4 1_555 1_555
C31_4 C19_4 1_555 1_555
H17_4 C31_4 1_555 1_555
C34_4 C18_4 1_555 1_555
H18_5 C34_4 1_555 1_555
C35_4 C31_4 1_555 1_555
H19_4 C35_4 1_555 1_555
C39_4 O8_4 1_555 1_555
C18_4 C39_4 1_555 1_555
C23_4 C28_4 1_555 1_555
O12_2 C38_4 1_555 1_555
O15_2 C38_4 1_555 1_555
N1_4 C2_4 1_555 1_555
C1_4 H1_4 1_555 1_555
C2_4 C1_4 1_555 1_555
C3_4 C6_4 1_555 1_555
C4_4 C2_4 1_555 1_555
C5_4 C1_4 1_555 1_555
C6_4 H2_4 1_555 1_555
C7_4 H3_4 1_555 1_555
C8_4 C6_4 1_555 1_555
H4_4 C8_4 1_555 1_555
C10_4 C3_4 1_555 1_555
H6_4 C10_4 1_555 1_555
C12_4 C25_4 1_555 1_555
H7_4 C13_4 1_555 1_555
C14_4 C7_4 1_555 1_555
C15_4 C10_4 1_555 1_555
H8_4 C15_4 1_555 1_555
C17_4 C16_4 1_555 1_555
H9_4 C17_4 1_555 1_555
C20_4 C4_4 1_555 1_555
H10_4 C20_4 1_555 1_555
C21_4 C5_4 1_555 1_555
H11_4 C21_4 1_555 1_555
C24_4 C3_4 1_555 1_555
C25_4 C24_4 1_555 1_555
H14_4 C25_4 1_555 1_555
C26_4 C4_4 1_555 1_555
H15_4 C26_4 1_555 1_555
C27_4 C14_4 1_555 1_555
C29_4 N1_4 1_555 1_555
C30_4 C29_4 1_555 1_555
C32_4 C5_4 1_555 1_555
H20_4 C36_4 1_555 1_555
C38_4 C42_4 1_555 1_555
C40_4 C30_4 1_555 1_555
H21_4 C40_4 1_555 1_555
C41_4 H22_4 1_555 1_555
C42_4 C41_4 1_555 1_555
C43_4 C40_4 1_555 1_555
H23_4 C43_4 1_555 1_555
C44_4 C30_4 1_555 1_555
H24_4 C44_4 1_555 1_555
N3_4 C45_4 1_555 1_555
C45_4 H25_4 1_555 1_555
H26_4 C45_4 1_555 1_555
H27_4 C45_4 1_555 1_555
C7_4 C20_4 1_555 1_555
C8_4 C32_4 1_555 1_555
C15_4 C32_4 1_555 1_555
C17_4 C24_4 1_555 1_555
C21_4 C29_4 1_555 1_555
C26_4 C27_4 1_555 1_555
C41_4 C44_4 1_555 1_555
C42_4 C43_4 1_555 1_555
O1_3 C38_5 1_555 1_555
O2_3 C37_5 1_555 1_555
O3_3 C37_5 1_555 1_555
O4_3 C38_5 1_555 1_555
N1_5 C2_5 1_555 1_555
C1_5 H1_5 1_555 1_555
C2_5 C1_5 1_555 1_555
C3_5 C6_5 1_555 1_555
C4_5 C2_5 1_555 1_555
C5_5 C1_5 1_555 1_555
C6_5 H2_5 1_555 1_555
C7_5 H3_5 1_555 1_555
C8_5 C6_5 1_555 1_555
H4_5 C8_5 1_555 1_555
C10_5 C3_5 1_555 1_555
H6_5 C10_5 1_555 1_555
C12_5 C25_5 1_555 1_555
H7_5 C13_5 1_555 1_555
C14_5 C7_5 1_555 1_555
C15_5 C10_5 1_555 1_555
H8_5 C15_5 1_555 1_555
C17_5 C16_5 1_555 1_555
H9_5 C17_5 1_555 1_555
C20_5 C4_5 1_555 1_555
H10_5 C20_5 1_555 1_555
C21_5 C5_5 1_555 1_555
H11_5 C21_5 1_555 1_555
C24_5 C3_5 1_555 1_555
C25_5 C24_5 1_555 1_555
H14_5 C25_5 1_555 1_555
C26_5 C4_5 1_555 1_555
H15_5 C26_5 1_555 1_555
C27_5 C14_5 1_555 1_555
H16_5 C27_5 1_555 1_555
C29_5 N1_5 1_555 1_555
C30_5 C29_5 1_555 1_555
C32_5 C5_5 1_555 1_555
H20_5 C36_5 1_555 1_555
C37_5 C14_5 1_555 1_555
C38_5 C42_5 1_555 1_555
C40_5 C30_5 1_555 1_555
H21_5 C40_5 1_555 1_555
C41_5 H22_5 1_555 1_555
C42_5 C41_5 1_555 1_555
C43_5 C40_5 1_555 1_555
H23_5 C43_5 1_555 1_555
C44_5 C30_5 1_555 1_555
H24_5 C44_5 1_555 1_555
N3_5 C45_5 1_555 1_555
C45_5 H25_5 1_555 1_555
H26_5 C45_5 1_555 1_555
H27_5 C45_5 1_555 1_555
C46_5 O9_5 1_555 1_555
H28_5 C46_5 1_555 1_555
C47_5 N3_5 1_555 1_555
H29_5 C47_5 1_555 1_555
H30_5 C47_5 1_555 1_555
H31_5 C47_5 1_555 1_555
C49_5 N4_5 1_555 1_555
H33_5 C49_5 1_555 1_555
H34_5 C49_5 1_555 1_555
H35_5 C49_5 1_555 1_555
Cd4_2 O1_3 1_555 1_555
Cd5_2 O2_3 1_555 1_555
Cd7_3 O4_3 1_555 1_555
O3_3 Cd5_2 1_555 1_555
C7_5 C20_5 1_555 1_555
C8_5 C32_5 1_555 1_555
C15_5 C32_5 1_555 1_555
C17_5 C24_5 1_555 1_555
C21_5 C29_5 1_555 1_555
C26_5 C27_5 1_555 1_555
C41_5 C44_5 1_555 1_555
C42_5 C43_5 1_555 1_555
N3_5 C46_5 1_555 1_555
Cd1_2 O5_5 1_555 1_555
Cd2_2 O8_5 1_555 1_555
O5_5 C39_5 1_555 1_555
O6_3 C11_5 1_555 1_555
O7_3 C11_5 1_555 1_555
O8_5 Cd1_2 1_555 1_555
C9_5 H5_5 1_555 1_555
C11_5 C33_5 1_555 1_555
C18_5 C22_5 1_555 1_555
C22_5 H12_5 1_555 1_555
C23_5 C22_5 1_555 1_555
H13_5 C23_5 1_555 1_555
C31_5 C19_5 1_555 1_555
H17_5 C31_5 1_555 1_555
C33_5 C9_5 1_555 1_555
C34_5 C18_5 1_555 1_555
H18_8 C34_5 1_555 1_555
C35_5 C31_5 1_555 1_555
H19_5 C35_5 1_555 1_555
C39_5 O8_5 1_555 1_555
H32_5 C48_5 1_555 1_555
O11_5 Cd2_2 1_555 1_555
H36_5 C50_5 1_555 1_555
H37_5 C50_5 1_555 1_555
H38_5 C50_5 1_555 1_555
Cd6_2 O6_3 1_555 1_555
O12_3 Cd1_2 1_555 1_555
O13_3 Cd1_2 1_555 1_555
O14_3 Cd1_2 1_555 1_555
O15_3 Cd2_2 1_555 1_555
O16_3 Cd1_2 1_555 1_555
O17_3 Cd1_2 1_555 1_555
Cd2_2 O16_3 1_555 1_555
C18_5 C39_5 1_555 1_555
C23_5 C28_5 1_555 1_555
C33_5 C35_5 1_555 1_555
O11_5 H39_5 1_555 1_555
O11_5 H40_5 1_555 1_555
O1_4 C38_6 1_555 1_555
O4_4 C38_6 1_555 1_555
N1_6 C2_6 1_555 1_555
C1_6 H1_6 1_555 1_555
C2_6 C1_6 1_555 1_555
C3_6 C6_6 1_555 1_555
C4_6 C2_6 1_555 1_555
C5_6 C1_6 1_555 1_555
C6_6 H2_6 1_555 1_555
C7_6 H3_6 1_555 1_555
C8_6 C6_6 1_555 1_555
H4_6 C8_6 1_555 1_555
C10_6 C3_6 1_555 1_555
H6_6 C10_6 1_555 1_555
C12_6 C25_6 1_555 1_555
H7_6 C13_6 1_555 1_555
C14_6 C7_6 1_555 1_555
C15_6 C10_6 1_555 1_555
H8_6 C15_6 1_555 1_555
C17_6 C16_6 1_555 1_555
H9_6 C17_6 1_555 1_555
C20_6 C4_6 1_555 1_555
H10_6 C20_6 1_555 1_555
C21_6 C5_6 1_555 1_555
H11_6 C21_6 1_555 1_555
C24_6 C3_6 1_555 1_555
C25_6 C24_6 1_555 1_555
H14_6 C25_6 1_555 1_555
C26_6 C4_6 1_555 1_555
H15_6 C26_6 1_555 1_555
C27_6 C14_6 1_555 1_555
C29_6 N1_6 1_555 1_555
C30_6 C29_6 1_555 1_555
C32_6 C5_6 1_555 1_555
H20_6 C36_6 1_555 1_555
C38_6 C42_6 1_555 1_555
C40_6 C30_6 1_555 1_555
H21_6 C40_6 1_555 1_555
C41_6 H22_6 1_555 1_555
C42_6 C41_6 1_555 1_555
C43_6 C40_6 1_555 1_555
H23_6 C43_6 1_555 1_555
C44_6 C30_6 1_555 1_555
H24_6 C44_6 1_555 1_555
N3_6 C45_6 1_555 1_555
C45_6 H25_6 1_555 1_555
H26_6 C45_6 1_555 1_555
H27_6 C45_6 1_555 1_555
Cd7_4 O4_4 1_555 1_555
C7_6 C20_6 1_555 1_555
C8_6 C32_6 1_555 1_555
C15_6 C32_6 1_555 1_555
C17_6 C24_6 1_555 1_555
C21_6 C29_6 1_555 1_555
C26_6 C27_6 1_555 1_555
C41_6 C44_6 1_555 1_555
C42_6 C43_6 1_555 1_555
Cd3_2 O5_6 1_555 1_555
O5_6 C39_6 1_555 1_555
O8_6 Cd3_2 1_555 1_555
C9_6 H5_6 1_555 1_555
C18_6 C22_6 1_555 1_555
C22_6 H12_6 1_555 1_555
C23_6 C22_6 1_555 1_555
H13_6 C23_6 1_555 1_555
C31_6 C19_6 1_555 1_555
H17_6 C31_6 1_555 1_555
C34_6 C18_6 1_555 1_555
H18_10 C34_6 1_555 1_555
C35_6 C31_6 1_555 1_555
H19_6 C35_6 1_555 1_555
C39_6 O8_6 1_555 1_555
O13_4 Cd3_2 1_555 1_555
O14_4 Cd3_2 1_555 1_555
C18_6 C39_6 1_555 1_555
C23_6 C28_6 1_555 1_555
H28_6 C46_6 1_555 1_555
H29_6 C47_6 1_555 1_555
H30_6 C47_6 1_555 1_555
H31_6 C47_6 1_555 1_555
C49_6 N4_6 1_555 1_555
H33_6 C49_6 1_555 1_555
H34_6 C49_6 1_555 1_555
H35_6 C49_6 1_555 1_555
H32_6 C48_6 1_555 1_555
O11_6 Cd6_2 1_555 1_555
H36_6 C50_6 1_555 1_555
H37_6 C50_6 1_555 1_555
H38_6 C50_6 1_555 1_555
O15_4 Cd6_2 1_555 1_555
O11_6 H39_6 1_555 1_555
O11_6 H40_6 1_555 1_555
O2_4 C37_6 1_555 1_555
O3_4 C37_6 1_555 1_555
Cd4_2 O2_4 1_555 1_555
O3_4 Cd4_2 1_555 1_555
O16_3 C11_6 1_555 1_555
O17_3 C11_6 1_555 1_555
C11_6 C33_6 1_555 1_555
Cd4_2 O5_7 1_555 1_555
Cd7_3 O8_7 1_555 1_555
O12_3 C38_7 1_555 1_555
O13_4 C37_7 1_555 1_555
O14_4 C37_7 1_555 1_555
O15_3 C38_7 1_555 1_555
O5_7 C39_7 1_555 1_555
N1_7 C2_7 1_555 1_555
O6_4 C11_7 1_555 1_555
N2_7 C12_7 1_555 1_555
O7_4 C11_7 1_555 1_555
C1_7 H1_7 1_555 1_555
C2_7 C1_7 1_555 1_555
C3_7 C6_7 1_555 1_555
C4_7 C2_7 1_555 1_555
C5_7 C1_7 1_555 1_555
C6_7 H2_7 1_555 1_555
C7_7 H3_7 1_555 1_555
C8_7 C6_7 1_555 1_555
H4_7 C8_7 1_555 1_555
O8_7 Cd4_2 1_555 1_555
C9_7 H5_7 1_555 1_555
C10_7 C3_7 1_555 1_555
H6_7 C10_7 1_555 1_555
C11_7 C33_7 1_555 1_555
C12_7 C25_7 1_555 1_555
C13_7 C9_7 1_555 1_555
H7_7 C13_7 1_555 1_555
C14_7 C7_7 1_555 1_555
C15_7 C10_7 1_555 1_555
H8_7 C15_7 1_555 1_555
C16_7 N2_7 1_555 1_555
C17_7 C16_7 1_555 1_555
H9_7 C17_7 1_555 1_555
C18_7 C22_7 1_555 1_555
C19_7 C13_7 1_555 1_555
C20_7 C4_7 1_555 1_555
H10_7 C20_7 1_555 1_555
C21_7 C5_7 1_555 1_555
H11_7 C21_7 1_555 1_555
C22_7 H12_7 1_555 1_555
C23_7 C22_7 1_555 1_555
H13_7 C23_7 1_555 1_555
C24_7 C3_7 1_555 1_555
C25_7 C24_7 1_555 1_555
H14_7 C25_7 1_555 1_555
C26_7 C4_7 1_555 1_555
H15_7 C26_7 1_555 1_555
C27_7 C14_7 1_555 1_555
H16_7 C27_7 1_555 1_555
C28_7 C12_7 1_555 1_555
C29_7 N1_7 1_555 1_555
C30_7 C29_7 1_555 1_555
C31_7 C19_7 1_555 1_555
H17_7 C31_7 1_555 1_555
C32_7 C5_7 1_555 1_555
C33_7 C9_7 1_555 1_555
C34_7 C18_7 1_555 1_555
H18_11 C34_7 1_555 1_555
C35_7 C31_7 1_555 1_555
H19_7 C35_7 1_555 1_555
C36_7 C28_7 1_555 1_555
H20_7 C36_7 1_555 1_555
O9_7 Cd7_3 1_555 1_555
O10_7 Cd7_3 1_555 1_555
C37_7 C14_7 1_555 1_555
C38_7 C42_7 1_555 1_555
C39_7 O8_7 1_555 1_555
C40_7 C30_7 1_555 1_555
H21_7 C40_7 1_555 1_555
C41_7 H22_7 1_555 1_555
C42_7 C41_7 1_555 1_555
C43_7 C40_7 1_555 1_555
H23_7 C43_7 1_555 1_555
C44_7 C30_7 1_555 1_555
H24_7 C44_7 1_555 1_555
N3_7 C45_7 1_555 1_555
C45_7 H25_7 1_555 1_555
H26_7 C45_7 1_555 1_555
H27_7 C45_7 1_555 1_555
C46_7 O9_7 1_555 1_555
H28_7 C46_7 1_555 1_555
C47_7 N3_7 1_555 1_555
H29_7 C47_7 1_555 1_555
H30_7 C47_7 1_555 1_555
H31_7 C47_7 1_555 1_555
C48_7 O10_7 1_555 1_555
H32_7 C48_7 1_555 1_555
O11_7 Cd7_3 1_555 1_555
N4_7 C48_7 1_555 1_555
C49_7 N4_7 1_555 1_555
H33_7 C49_7 1_555 1_555
H34_7 C49_7 1_555 1_555
H35_7 C49_7 1_555 1_555
C50_7 N4_7 1_555 1_555
H36_7 C50_7 1_555 1_555
H37_7 C50_7 1_555 1_555
H38_7 C50_7 1_555 1_555
Cd7_4 O6_4 1_555 1_555
O16_4 Cd4_2 1_555 1_555
O17_4 Cd4_2 1_555 1_555
Cd7_3 O16_4 1_555 1_555
C7_7 C20_7 1_555 1_555
C8_7 C32_7 1_555 1_555
C15_7 C32_7 1_555 1_555
C16_7 C19_7 1_555 1_555
C17_7 C24_7 1_555 1_555
C18_7 C39_7 1_555 1_555
C21_7 C29_7 1_555 1_555
C23_7 C28_7 1_555 1_555
C26_7 C27_7 1_555 1_555
C33_7 C35_7 1_555 1_555
C34_7 C36_7 1_555 1_555
C41_7 C44_7 1_555 1_555
C42_7 C43_7 1_555 1_555
N3_7 C46_7 1_555 1_555
O11_7 H39_7 1_555 1_555
O11_7 H40_7 1_555 1_555
O10_8 Cd7_4 1_555 1_555
H28_8 C46_8 1_555 1_555
H29_8 C47_8 1_555 1_555
H30_8 C47_8 1_555 1_555
H31_8 C47_8 1_555 1_555
C48_8 O10_8 1_555 1_555
H32_8 C48_8 1_555 1_555
O11_8 Cd7_4 1_555 1_555
N4_8 C48_8 1_555 1_555
C49_8 N4_8 1_555 1_555
H33_8 C49_8 1_555 1_555
H34_8 C49_8 1_555 1_555
H35_8 C49_8 1_555 1_555
C50_8 N4_8 1_555 1_555
H36_8 C50_8 1_555 1_555
H37_8 C50_8 1_555 1_555
H38_8 C50_8 1_555 1_555
O11_8 H39_8 1_555 1_555
O11_8 H40_8 1_555 1_555
Cd5_2 O5_8 1_555 1_555
O12_4 C38_8 1_555 1_555
O15_4 C38_8 1_555 1_555
O5_8 C39_8 1_555 1_555
N1_8 C2_8 1_555 1_555
N2_8 C12_8 1_555 1_555
C1_8 H1_8 1_555 1_555
C2_8 C1_8 1_555 1_555
C3_8 C6_8 1_555 1_555
C4_8 C2_8 1_555 1_555
C5_8 C1_8 1_555 1_555
C6_8 H2_8 1_555 1_555
C7_8 H3_8 1_555 1_555
C8_8 C6_8 1_555 1_555
H4_8 C8_8 1_555 1_555
O8_8 Cd5_2 1_555 1_555
C9_8 H5_8 1_555 1_555
C10_8 C3_8 1_555 1_555
H6_8 C10_8 1_555 1_555
C12_8 C25_8 1_555 1_555
C13_8 C9_8 1_555 1_555
H7_8 C13_8 1_555 1_555
C14_8 C7_8 1_555 1_555
C15_8 C10_8 1_555 1_555
H8_8 C15_8 1_555 1_555
C16_8 N2_8 1_555 1_555
C17_8 C16_8 1_555 1_555
H9_8 C17_8 1_555 1_555
C18_8 C22_8 1_555 1_555
C19_8 C13_8 1_555 1_555
C20_8 C4_8 1_555 1_555
H10_8 C20_8 1_555 1_555
C21_8 C5_8 1_555 1_555
H11_8 C21_8 1_555 1_555
C22_8 H12_8 1_555 1_555
C23_8 C22_8 1_555 1_555
H13_8 C23_8 1_555 1_555
C24_8 C3_8 1_555 1_555
C25_8 C24_8 1_555 1_555
H14_8 C25_8 1_555 1_555
C26_8 C4_8 1_555 1_555
H15_8 C26_8 1_555 1_555
C27_8 C14_8 1_555 1_555
C28_8 C12_8 1_555 1_555
C29_8 N1_8 1_555 1_555
C30_8 C29_8 1_555 1_555
C31_8 C19_8 1_555 1_555
H17_8 C31_8 1_555 1_555
C32_8 C5_8 1_555 1_555
C34_8 C18_8 1_555 1_555
H18_12 C34_8 1_555 1_555
C35_8 C31_8 1_555 1_555
H19_8 C35_8 1_555 1_555
C36_8 C28_8 1_555 1_555
H20_8 C36_8 1_555 1_555
C38_8 C42_8 1_555 1_555
C39_8 O8_8 1_555 1_555
C40_8 C30_8 1_555 1_555
H21_8 C40_8 1_555 1_555
C41_8 H22_8 1_555 1_555
C42_8 C41_8 1_555 1_555
C43_8 C40_8 1_555 1_555
H23_8 C43_8 1_555 1_555
C44_8 C30_8 1_555 1_555
H24_8 C44_8 1_555 1_555
N3_8 C45_8 1_555 1_555
C45_8 H25_8 1_555 1_555
H26_8 C45_8 1_555 1_555
H27_8 C45_8 1_555 1_555
C7_8 C20_8 1_555 1_555
C8_8 C32_8 1_555 1_555
C15_8 C32_8 1_555 1_555
C16_8 C19_8 1_555 1_555
C17_8 C24_8 1_555 1_555
C18_8 C39_8 1_555 1_555
C21_8 C29_8 1_555 1_555
C23_8 C28_8 1_555 1_555
C26_8 C27_8 1_555 1_555
C34_8 C36_8 1_555 1_555
C41_8 C44_8 1_555 1_555
C42_8 C43_8 1_555 1_555
O13_3 C37_8 1_555 1_555
O14_3 C37_8 1_555 1_555
O16_4 C11_8 1_555 1_555
O17_4 C11_8 1_555 1_555
C11_8 C33_8 1_555 1_555

#END
