
###############################################################################
#
# This file contains modified crystal structure data generated from the
# MOF subset of the Cambridge Structural Database (CSD) v543 
# hosted by the Cambridge Crystallographic Data Centre (CCDC).
#
# This work is licensed under the Creative Commons
# Attribution-NonCommercial-ShareAlike 4.0 International License.
# To view a copy of this license, visit
# http://creativecommons.org/licenses/by-nc-sa/4.0/
# or send a letter to
# Creative Commons, PO Box 1866, Mountain View, CA 94042, USA.
#
# CIF created using the CSD Python API on 29 September 2022
# The structure has been converted into the P1 space group
# The structure has a 3D framework
# The original CSD entry FUMSOY is in the monoclinic crystal system
# The framework has been calculated to contain at least 10.0% void space
# The void calculation uses a probe of radius 1.32A, grid spacing 0.4
#
###############################################################################

data_FUMSOY
_chemical_formula_moiety         '(C248 H188 Co12 N20 O50)n'
_symmetry_cell_setting           triclinic
_symmetry_space_group_name_H-M   'P 1'
_symmetry_Int_Tables_number      1
_space_group_name_Hall           'P 1'
loop_
_symmetry_equiv_pos_site_id
_symmetry_equiv_pos_as_xyz
1 x,y,z
_cell_length_a                   14.5845(14)
_cell_length_b                   22.502(2)
_cell_length_c                   23.913(2)
_cell_angle_alpha                90
_cell_angle_beta                 96.025(2)
_cell_angle_gamma                90
_cell_volume                     7804.43
loop_
_atom_site_label
_atom_site_type_symbol
_atom_site_fract_x
_atom_site_fract_y
_atom_site_fract_z
Co3 Co 0.13283(3) 0.36513(2) 0.09987(2)
O3 O 0.13235(17) 0.35745(10) 0.01732(10)
Co4 Co 0.22388(3) 0.22039(2) 0.06744(2)
O16 O 0.11908(16) 0.26395(10) 0.10972(10)
O19 O 0.26302(15) 0.35935(9) 0.13373(11)
O20 O 0.07124(16) 0.37447(10) 0.17668(11)
N6 N 0.14465(19) 0.46022(12) 0.09401(13)
O4 O 0.21488(18) 0.27755(9) 0.99905(10)
O12 O 0.47053(17) 0.41969(11) 0.59365(11)
O14 O 0.54413(18) 0.43984(14) 0.67473(12)
N4 N 0.14540(19) 0.39447(16) 0.75478(12)
C6 C 0.1715(2) 0.32397(14) 0.98496(14)
C9 C 0.3837(2) 0.42130(14) 0.67267(15)
C11 C 0.1546(2) 0.37733(16) 0.81223(14)
C13 C 0.1668(2) 0.34229(14) 0.92496(14)
C18 C 0.4698(2) 0.42734(15) 0.64489(17)
C23 C 0.0541(2) 0.39373(17) 0.72574(15)
C26 C 0.3051(2) 0.42400(17) 0.75696(15)
H9 H 0.306676 0.431365 0.795314
C27 C 0.3017(2) 0.40450(16) 0.64293(15)
H10 H 0.299899 0.398435 0.604356
C28 C 0.2232(2) 0.40514(16) 0.72620(14)
C31 C 0.2122(3) 0.33165(16) 0.83155(15)
H12 H 0.247422 0.312326 0.806898
C33 C 0.3840(2) 0.43160(16) 0.72990(15)
H14 H 0.438186 0.443895 0.750600
C35 C 0.2220(2) 0.39638(17) 0.66878(15)
H16 H 0.167742 0.385034 0.647593
C38 C 0.1098(2) 0.38881(16) 0.90482(15)
H19 H 0.075358 0.408897 0.929408
C39 C 0.2180(2) 0.31433(15) 0.88673(15)
H20 H 0.257073 0.283198 0.898866
C42 C 0.1035(3) 0.40561(18) 0.84952(16)
H22 H 0.064113 0.436467 0.836993
C52 C 0.0032(3) 0.34305(17) 0.7220(2)
H32 H 0.029184 0.307950 0.736799
C58 C 0.0144(3) 0.4443(2) 0.7032(2)
H37 H 0.048353 0.479312 0.703913
Co6 Co 0.61273(3) 0.44176(2) 0.59793(2)
N3 N 0.64465(19) 0.03978(12) 0.59401(13)
C51 C 0.6211(3) 0.00973(16) 0.54658(17)
H31 H 0.606709 0.031363 0.513698
C55 C 0.6623(3) 0.00720(16) 0.64023(19)
H34 H 0.677557 0.026794 0.674174
Co9 Co 0.63283(3) 0.13487(2) 0.59987(2)
O18 O 0.98440(16) 0.37981(11) 0.09643(11)
O1 O 0.62756(15) 0.33456(10) 0.52206(9)
O7 O 0.63750(17) 0.43320(10) 0.51898(10)
O9 O 0.32300(16) 0.27157(10) 0.11097(11)
O10 O 0.73745(17) 0.34419(11) 0.63166(10)
O11 O 0.73854(16) 0.44224(10) 0.63861(11)
N1 N 0.60278(19) 0.53384(11) 0.59396(12)
O13 O 0.33129(18) 0.17667(11) 0.02955(12)
H1 H 0.388411 0.174088 0.042001
N2 N 0.66716(18) 0.38321(14) 0.26056(11)
C1 C 0.6669(2) 0.38188(14) 0.32015(13)
C2 C 0.4152(2) 0.33698(14) 0.16817(13)
C3 C 0.7488(2) 0.38744(15) 0.23497(14)
C4 C 0.3273(2) 0.32143(14) 0.13482(14)
C5 C 0.9095(2) 0.38789(14) 0.17987(14)
C7 C 0.6524(2) 0.38129(13) 0.43525(13)
C8 C 0.5831(2) 0.36768(15) 0.22889(14)
C10 C 0.6387(2) 0.38231(13) 0.49606(14)
C12 C 0.9927(2) 0.38113(14) 0.14885(16)
C14 C 0.7766(2) 0.39218(15) 0.64540(14)
C15 C 0.8735(2) 0.39239(14) 0.67396(14)
C16 C 0.6377(2) 0.33172(15) 0.34652(15)
H3 H 0.621823 0.297897 0.325344
C17 C 0.5902(2) 0.56412(14) 0.54555(14)
H4 H 0.579220 0.542969 0.512108
C19 C 0.4225(2) 0.38582(15) 0.20438(15)
H5 H 0.370482 0.408724 0.208412
C20 C 0.6821(3) 0.43158(14) 0.40890(15)
H6 H 0.696396 0.465724 0.429945
C21 C 0.6317(2) 0.33094(14) 0.40370(14)
H7 H 0.613750 0.296409 0.420942
C22 C 0.6153(3) 0.72407(15) 0.59216(17)
C24 C 0.5048(2) 0.40059(16) 0.23410(15)
H8 H 0.507891 0.433242 0.258072
C25 C 0.6367(2) 0.91507(15) 0.59144(17)
C29 C 0.6104(2) 0.65870(14) 0.59220(16)
C30 C 0.6908(3) 0.43183(15) 0.35182(15)
H11 H 0.712567 0.465483 0.334918
C32 C 0.8340(2) 0.37957(17) 0.26465(15)
H13 H 0.838549 0.374062 0.303383
C34 C 0.5927(2) 0.62523(14) 0.54316(15)
H15 H 0.582556 0.644336 0.508579
C36 C 0.7446(2) 0.39942(18) 0.17728(15)
H17 H 0.688196 0.408013 0.157063
C37 C 0.9138(2) 0.37978(17) 0.23704(15)
H18 H 0.970846 0.374345 0.257711
C40 C 0.6299(3) 0.84893(15) 0.59097(17)
C41 C 0.4939(2) 0.30420(16) 0.16276(16)
H21 H 0.491058 0.271837 0.138443
C43 C 0.8242(2) 0.39858(18) 0.15004(15)
H23 H 0.820290 0.405229 0.111481
C44 C 0.5773(2) 0.31892(16) 0.19317(16)
H24 H 0.629412 0.296004 0.189555
C45 C 0.5704(3) 0.75753(15) 0.54895(17)
H25 H 0.533685 0.738432 0.520256
C46 C 0.5790(3) 0.81912(15) 0.54759(18)
H26 H 0.550358 0.840397 0.517299
C47 C 0.6188(3) 0.56561(16) 0.64085(16)
H27 H 0.627447 0.545343 0.674886
C48 C 0.6235(3) 0.62703(15) 0.64203(17)
H28 H 0.635395 0.646919 0.676113
C49 C 0.6169(3) 0.94886(16) 0.54329(18)
H29 H 0.600745 0.930401 0.508862
C50 C 0.9145(3) 0.34261(16) 0.69675(18)
H30 H 0.881430 0.307207 0.695194
C53 C 0.0850(4) 0.24678(17) 0.1527(2)
N5 N 0.0078(5) 0.23458(18) 0.1605(2)
C54 C 0.9241(3) 0.44377(18) 0.6792(2)
H33 H 0.896842 0.479235 0.666187
C56 C 0.6669(4) 0.75425(18) 0.6344(2)
H35 H 0.696909 0.732852 0.664173
C57 C 0.6593(3) 0.94674(17) 0.6406(2)
H36 H 0.672656 0.926432 0.674386
C59 C 0.1595(4) 0.2473(2) 0.2121(2)
H38 H 0.220892 0.254363 0.202480
H39 H 0.157400 0.209599 0.230671
H40 H 0.142503 0.278211 0.236623
C61 C 0.6758(4) 0.81550(18) 0.6340(2)
H44 H 0.712633 0.834382 0.662757
H45 H 0.023121 0.210717 0.242527
Co5 Co 0.72388(3) 0.27961(2) 0.56744(2)
O15 O 0.12756(15) 0.16544(10) 0.02206(9)
O21 O 0.23745(17) 0.15581(11) 0.13166(10)
H2 H 0.326977 0.157755 0.998324
O14_2 O 0.04413(18) 0.06016(14) 0.17473(12)
Co6_2 Co 0.11273(3) 0.05824(2) 0.09793(2)
O3_2 O 0.63235(17) 0.14255(10) 0.51732(10)
O4_2 O 0.71488(18) 0.22245(9) 0.49905(10)
O7_2 O 0.13750(17) 0.06680(10) 0.01898(10)
O11_2 O 0.23854(16) 0.05776(10) 0.13861(11)
O12_2 O 0.97053(17) 0.08031(11) 0.09365(11)
N4_2 N 0.64540(19) 0.10553(16) 0.25478(12)
C6_2 C 0.6715(2) 0.17603(14) 0.48496(14)
C9_2 C 0.8837(2) 0.07870(14) 0.17267(15)
C11_2 C 0.6546(2) 0.12267(16) 0.31223(14)
C13_2 C 0.6668(2) 0.15771(14) 0.42496(14)
C14_2 C 0.2766(2) 0.10782(15) 0.14540(14)
C15_2 C 0.3735(2) 0.10761(14) 0.17396(14)
C18_2 C 0.9698(2) 0.07266(15) 0.14489(17)
C23_2 C 0.5541(2) 0.10627(17) 0.22574(15)
C26_2 C 0.8051(2) 0.07600(17) 0.25696(15)
H9_2 H 0.806676 0.068635 0.295314
C27_2 C 0.8017(2) 0.09550(16) 0.14293(15)
H10_2 H 0.799899 0.101565 0.104356
C28_2 C 0.7232(2) 0.09486(16) 0.22620(14)
C31_2 C 0.7122(3) 0.16835(16) 0.33155(15)
H12_2 H 0.747422 0.187674 0.306898
C33_2 C 0.8840(2) 0.06840(16) 0.22990(15)
H14_2 H 0.938186 0.056105 0.250600
C35_2 C 0.7220(2) 0.10362(17) 0.16878(15)
H16_2 H 0.667742 0.114966 0.147593
C38_2 C 0.6098(2) 0.11119(16) 0.40482(15)
H19_2 H 0.575358 0.091103 0.429408
C39_2 C 0.7180(2) 0.18567(15) 0.38673(15)
H20_2 H 0.757073 0.216802 0.398866
C42_2 C 0.6035(3) 0.09439(18) 0.34952(16)
H22_2 H 0.564113 0.063533 0.336993
C50_2 C 0.4145(3) 0.15739(16) 0.19675(18)
H30_2 H 0.381430 0.192793 0.195194
C52_2 C 0.5032(3) 0.15695(17) 0.2220(2)
H32_2 H 0.529184 0.192050 0.236799
C54_2 C 0.4241(3) 0.05623(18) 0.1792(2)
H33_2 H 0.396842 0.020765 0.166187
C58_2 C 0.5144(3) 0.0557(2) 0.2032(2)
H37_2 H 0.548353 0.020688 0.203913
O16_2 O 0.61908(16) 0.23605(10) 0.60972(10)
O18_2 O 0.48440(16) 0.12019(11) 0.59643(11)
O19_2 O 0.76302(15) 0.14065(9) 0.63373(11)
O20_2 O 0.57124(16) 0.12553(10) 0.67668(11)
N2_2 N 0.16716(18) 0.11679(14) 0.76056(11)
C1_2 C 0.1669(2) 0.11812(14) 0.82015(13)
C3_2 C 0.2488(2) 0.11256(15) 0.73497(14)
C5_2 C 0.4095(2) 0.11211(14) 0.67987(14)
C7_2 C 0.1524(2) 0.11871(13) 0.93525(13)
C8_2 C 0.0831(2) 0.13232(15) 0.72889(14)
C10_2 C 0.1387(2) 0.11769(13) 0.99606(14)
C12_2 C 0.4927(2) 0.11887(14) 0.64885(16)
C16_2 C 0.1377(2) 0.16828(15) 0.84652(15)
H3_2 H 0.121823 0.202103 0.825344
C20_2 C 0.1821(3) 0.06842(14) 0.90890(15)
H6_2 H 0.196396 0.034276 0.929945
C21_2 C 0.1317(2) 0.16906(14) 0.90370(14)
H7_2 H 0.113750 0.203591 0.920942
C24_2 C 0.0048(2) 0.09941(16) 0.73410(15)
H8_2 H 0.007891 0.066758 0.758072
C30_2 C 0.1908(3) 0.06817(15) 0.85182(15)
H11_2 H 0.212567 0.034517 0.834918
C32_2 C 0.3340(2) 0.12043(17) 0.76465(15)
H13_2 H 0.338549 0.125938 0.803383
C36_2 C 0.2446(2) 0.10058(18) 0.67728(15)
H17_2 H 0.188196 0.091987 0.657063
C37_2 C 0.4138(2) 0.12022(17) 0.73704(15)
H18_2 H 0.470846 0.125655 0.757711
C43_2 C 0.3242(2) 0.10142(18) 0.65004(15)
H23_2 H 0.320290 0.094771 0.611481
C44_2 C 0.0773(2) 0.18108(16) 0.69317(16)
H24_2 H 0.129412 0.203996 0.689555
N1_2 N 0.10278(19) 0.96616(11) 0.09396(12)
C17_2 C 0.0902(2) 0.93588(14) 0.04555(14)
H4_2 H 0.079220 0.957031 0.012108
C22_2 C 0.1153(3) 0.77593(15) 0.09216(17)
C25_2 C 0.1367(2) 0.58493(15) 0.09144(17)
C29_2 C 0.1104(2) 0.84130(14) 0.09220(16)
C34_2 C 0.0927(2) 0.87477(14) 0.04316(15)
H15_2 H 0.082556 0.855664 0.008579
C40_2 C 0.1299(3) 0.65107(15) 0.09097(17)
C45_2 C 0.0704(3) 0.74247(15) 0.04895(17)
H25_2 H 0.033685 0.761568 0.020256
C46_2 C 0.0790(3) 0.68088(15) 0.04759(18)
H26_2 H 0.050358 0.659603 0.017299
C47_2 C 0.1188(3) 0.93439(16) 0.14085(16)
H27_2 H 0.127447 0.954657 0.174886
C48_2 C 0.1235(3) 0.87297(15) 0.14203(17)
H28_2 H 0.135395 0.853081 0.176113
C49_2 C 0.1169(3) 0.55114(16) 0.04329(18)
H29_2 H 0.100745 0.569599 0.008862
C51_2 C 0.1211(3) 0.49027(16) 0.04658(17)
H31_2 H 0.106709 0.468637 0.013698
C55_2 C 0.1623(3) 0.49280(16) 0.14023(19)
H34_2 H 0.177557 0.473206 0.174174
C56_2 C 0.1669(4) 0.74575(18) 0.1344(2)
H35_2 H 0.196909 0.767148 0.164173
C57_2 C 0.1593(3) 0.55326(17) 0.1406(2)
H36_2 H 0.172656 0.573568 0.174386
C61_2 C 0.1758(4) 0.68450(18) 0.1340(2)
H44_2 H 0.212633 0.665618 0.162757
O9_2 O 0.82300(16) 0.22843(10) 0.61097(11)
O13_2 O 0.83129(18) 0.32333(11) 0.52955(12)
H1_2 H 0.888411 0.325912 0.542001
H2_2 H 0.826977 0.342245 0.498324
C2_2 C 0.9152(2) 0.16302(14) 0.66817(13)
C4_2 C 0.8273(2) 0.17857(14) 0.63482(14)
C19_2 C 0.9225(2) 0.11418(15) 0.70438(15)
H5_2 H 0.870482 0.091276 0.708412
C41_2 C 0.9939(2) 0.19580(16) 0.66276(16)
H21_2 H 0.991058 0.228163 0.638443
C53_2 C 0.5850(4) 0.25322(17) 0.6527(2)
N5_2 N 0.5078(5) 0.26542(18) 0.6605(2)
C59_2 C 0.6595(4) 0.2527(2) 0.7121(2)
H38_2 H 0.720892 0.245637 0.702480
H39_2 H 0.657400 0.290401 0.730671
H40_2 H 0.642503 0.221789 0.736623
C60 C 0.4454(4) 0.2660(2) 0.6063(2)
H41 H 0.409602 0.230102 0.603271
H42 H 0.404896 0.299638 0.605798
H43 H 0.481911 0.268534 0.575245
C62 C 0.4723(5) 0.2808(2) 0.7149(3)
H45_2 H 0.523121 0.289283 0.742527
H46 H 0.433099 0.315074 0.709792
H47 H 0.437664 0.247910 0.727282
C60_2 C 0.9454(4) 0.2340(2) 0.1063(2)
H41_2 H 0.909602 0.269898 0.103271
H42_2 H 0.904896 0.200362 0.105798
H43_2 H 0.981911 0.231466 0.075245
C62_2 C 0.9723(5) 0.2192(2) 0.2149(3)
H46_2 H 0.933099 0.184926 0.209792
H47_2 H 0.937664 0.252090 0.227282
Co1 Co 0.27612(3) 0.72039(2) 0.43256(2)
O2 O 0.38092(16) 0.76395(10) 0.39028(10)
O6 O 0.23698(15) 0.85935(9) 0.36627(11)
O9_3 O 0.17700(16) 0.77157(10) 0.38903(11)
O13_3 O 0.16871(18) 0.67667(11) 0.47045(12)
H1_3 H 0.111589 0.674088 0.457999
H2_3 H 0.173023 0.657755 0.501676
C2_3 C 0.0848(2) 0.83698(14) 0.33183(13)
C4_3 C 0.1727(2) 0.82143(14) 0.36518(14)
C19_3 C 0.0775(2) 0.88582(15) 0.29562(15)
H5_3 H 0.129518 0.908724 0.291588
C41_3 C 0.0061(2) 0.80420(16) 0.33724(16)
H21_3 H 0.008942 0.771837 0.361557
C53_3 C 0.4150(4) 0.74678(17) 0.3473(2)
N5_3 N 0.4922(5) 0.73458(18) 0.3395(2)
C59_3 C 0.3405(4) 0.7473(2) 0.2879(2)
H38_3 H 0.279108 0.754363 0.297520
H39_3 H 0.342600 0.709599 0.269329
H40_3 H 0.357497 0.778211 0.263377
C60_3 C 0.5546(4) 0.7340(2) 0.3937(2)
H41_3 H 0.590398 0.769898 0.396729
H42_3 H 0.595104 0.700362 0.394202
H43_3 H 0.518089 0.731466 0.424755
C62_3 C 0.5277(5) 0.7192(2) 0.2851(3)
H45_3 H 0.476879 0.710717 0.257473
H46_3 H 0.566901 0.684926 0.290208
H47_3 H 0.562336 0.752090 0.272718
Co7 Co 0.36717(3) 0.86513(2) 0.40013(2)
O15_2 O 0.37244(15) 0.66544(10) 0.47794(9)
O17 O 0.28512(18) 0.77755(9) 0.50095(10)
O21_2 O 0.26255(17) 0.65581(11) 0.36834(10)
O22 O 0.02947(17) 0.91969(11) 0.90635(11)
N1_3 N 0.89722(19) 0.03384(11) 0.90604(12)
N3_2 N 0.85535(19) 0.53978(12) 0.90599(13)
C17_3 C 0.9098(2) 0.06412(14) 0.95445(14)
H4_3 H 0.920780 0.042969 0.987892
C22_3 C 0.8847(3) 0.22407(15) 0.90784(17)
C25_3 C 0.8633(2) 0.41507(15) 0.90856(17)
C29_3 C 0.8896(2) 0.15870(14) 0.90780(16)
C34_3 C 0.9073(2) 0.12523(14) 0.95684(15)
H15_3 H 0.917444 0.144336 0.991421
C40_3 C 0.8701(3) 0.34893(15) 0.90903(17)
C45_3 C 0.9296(3) 0.25753(15) 0.95105(17)
H25_3 H 0.966315 0.238432 0.979744
C46_3 C 0.9210(3) 0.31912(15) 0.95241(18)
H26_3 H 0.949642 0.340397 0.982701
C47_3 C 0.8812(3) 0.06561(16) 0.85915(16)
H27_3 H 0.872553 0.045343 0.825114
C48_3 C 0.8765(3) 0.12703(15) 0.85797(17)
H28_3 H 0.864605 0.146919 0.823887
C49_3 C 0.8831(3) 0.44886(16) 0.95671(18)
H29_3 H 0.899255 0.430401 0.991138
C51_3 C 0.8789(3) 0.50973(16) 0.95342(17)
H31_3 H 0.893291 0.531363 0.986302
C55_3 C 0.8377(3) 0.50720(16) 0.85977(19)
H34_3 H 0.822443 0.526794 0.825826
C56_3 C 0.8331(4) 0.25425(18) 0.8656(2)
H35_3 H 0.803091 0.232852 0.835827
C57_3 C 0.8407(3) 0.44674(17) 0.8594(2)
H36_3 H 0.827344 0.426432 0.825614
C61_3 C 0.8242(4) 0.31550(18) 0.8660(2)
H44_3 H 0.787367 0.334382 0.837243
Co9_2 Co 0.86717(3) 0.63487(2) 0.90013(2)
O5 O 0.51560(16) 0.87981(11) 0.40357(11)
O8 O 0.42876(16) 0.87447(10) 0.32332(11)
N2_3 N 0.83284(18) 0.88321(14) 0.23944(11)
C1_3 C 0.8331(2) 0.88188(14) 0.17985(13)
C3_3 C 0.7512(2) 0.88744(15) 0.26503(14)
C5_3 C 0.5905(2) 0.88789(14) 0.32013(14)
C7_3 C 0.8476(2) 0.88129(13) 0.06475(13)
C8_3 C 0.9169(2) 0.86768(15) 0.27111(14)
C10_3 C 0.8613(2) 0.88231(13) 0.00394(14)
C12_3 C 0.5073(2) 0.88113(14) 0.35115(16)
C16_3 C 0.8623(2) 0.83172(15) 0.15348(15)
H3_3 H 0.878177 0.797897 0.174656
C20_3 C 0.8179(3) 0.93158(14) 0.09110(15)
H6_3 H 0.803604 0.965724 0.070055
C21_3 C 0.8683(2) 0.83094(14) 0.09630(14)
H7_3 H 0.886250 0.796409 0.079058
C24_3 C 0.9952(2) 0.90059(16) 0.26590(15)
H8_3 H 0.992109 0.933242 0.241928
C30_3 C 0.8092(3) 0.93183(15) 0.14818(15)
H11_3 H 0.787433 0.965483 0.165082
C32_3 C 0.6660(2) 0.87957(17) 0.23535(15)
H13_3 H 0.661451 0.874062 0.196617
C36_3 C 0.7554(2) 0.89942(18) 0.32272(15)
H17_3 H 0.811804 0.908013 0.342937
C37_3 C 0.5862(2) 0.87978(17) 0.26296(15)
H18_3 H 0.529154 0.874345 0.242289
C43_3 C 0.6758(2) 0.89858(18) 0.34996(15)
H23_3 H 0.679710 0.905229 0.388519
C44_3 C 0.9227(2) 0.81892(16) 0.30683(16)
H24_3 H 0.870588 0.796004 0.310445
Co2 Co 0.88727(3) 0.94176(2) 0.90207(2)
O1_2 O 0.87244(15) 0.83456(10) 0.97794(9)
O3_3 O 0.36765(17) 0.85745(10) 0.48268(10)
O7_3 O 0.86250(17) 0.93320(10) 0.98102(10)
O10_2 O 0.76255(17) 0.84419(11) 0.86834(10)
O11_3 O 0.76146(16) 0.94224(10) 0.86139(11)
N4_3 N 0.35460(19) 0.89447(16) 0.74522(12)
C6_3 C 0.3285(2) 0.82397(14) 0.51504(14)
C9_3 C 0.1163(2) 0.92130(14) 0.82733(15)
C11_3 C 0.3454(2) 0.87733(16) 0.68777(14)
C13_3 C 0.3332(2) 0.84229(14) 0.57504(14)
C14_3 C 0.7234(2) 0.89218(15) 0.85460(14)
C15_3 C 0.6265(2) 0.89239(14) 0.82604(14)
C18_3 C 0.0302(2) 0.92734(15) 0.85511(17)
C23_3 C 0.4459(2) 0.89373(17) 0.77426(15)
C26_3 C 0.1949(2) 0.92400(17) 0.74304(15)
H9_3 H 0.193324 0.931365 0.704686
C27_3 C 0.1983(2) 0.90450(16) 0.85707(15)
H10_3 H 0.200101 0.898435 0.895644
C28_3 C 0.2768(2) 0.90514(16) 0.77380(14)
C31_3 C 0.2878(3) 0.83165(16) 0.66845(15)
H12_3 H 0.252578 0.812326 0.693102
C33_3 C 0.1160(2) 0.93160(16) 0.77010(15)
H14_3 H 0.061814 0.943895 0.749400
C35_3 C 0.2780(2) 0.89638(17) 0.83122(15)
H16_3 H 0.332258 0.885034 0.852407
C38_3 C 0.3902(2) 0.88881(16) 0.59518(15)
H19_3 H 0.424642 0.908897 0.570592
C39_3 C 0.2820(2) 0.81433(15) 0.61327(15)
H20_3 H 0.242927 0.783198 0.601134
C42_3 C 0.3965(3) 0.90561(18) 0.65048(16)
H22_3 H 0.435887 0.936467 0.663007
C50_3 C 0.5855(3) 0.84261(16) 0.80325(18)
H30_3 H 0.618570 0.807207 0.804806
C52_3 C 0.4968(3) 0.84305(17) 0.7780(2)
H32_3 H 0.470816 0.807950 0.763201
C54_3 C 0.5759(3) 0.94377(18) 0.8208(2)
H33_3 H 0.603158 0.979235 0.833813
C58_3 C 0.4856(3) 0.9443(2) 0.7968(2)
H37_3 H 0.451647 0.979312 0.796087
Co5_2 Co 0.77612(3) 0.77961(2) 0.93256(2)
N6_2 N 0.35535(19) 0.96022(12) 0.40599(13)
O23 O 0.95587(18) 0.93984(14) 0.82527(12)
H2_4 H 0.673023 0.842245 0.001676
O17_2 O 0.78512(18) 0.72245(9) 0.00095(10)
Co2_2 Co 0.38727(3) 0.55824(2) 0.40207(2)
O2_2 O 0.88092(16) 0.73605(10) 0.89028(10)
O5_2 O 0.01560(16) 0.62019(11) 0.90357(11)
O6_2 O 0.73698(15) 0.64065(9) 0.86627(11)
O7_4 O 0.36250(17) 0.56680(10) 0.48102(10)
O9_4 O 0.67700(16) 0.72843(10) 0.88903(11)
O11_4 O 0.26146(16) 0.55776(10) 0.36139(11)
N1_4 N 0.39722(19) 0.46616(11) 0.40604(12)
O13_4 O 0.66871(18) 0.82333(11) 0.97045(12)
H1_4 H 0.611589 0.825912 0.957999
N2_4 N 0.33284(18) 0.61679(14) 0.73944(11)
C1_4 C 0.3331(2) 0.61812(14) 0.67985(13)
C2_4 C 0.5848(2) 0.66302(14) 0.83183(13)
C3_4 C 0.2512(2) 0.61256(15) 0.76503(14)
C4_4 C 0.6727(2) 0.67857(14) 0.86518(14)
C5_4 C 0.0905(2) 0.61211(14) 0.82013(14)
C7_4 C 0.3476(2) 0.61871(13) 0.56475(13)
C8_4 C 0.4169(2) 0.63232(15) 0.77111(14)
C10_4 C 0.3613(2) 0.61769(13) 0.50394(14)
C12_4 C 0.0073(2) 0.61887(14) 0.85115(16)
C14_4 C 0.2234(2) 0.60782(15) 0.35460(14)
C15_4 C 0.1265(2) 0.60761(14) 0.32604(14)
C16_4 C 0.3623(2) 0.66828(15) 0.65348(15)
H3_4 H 0.378177 0.702103 0.674656
C17_4 C 0.4098(2) 0.43588(14) 0.45445(14)
H4_4 H 0.420780 0.457031 0.487892
C19_4 C 0.5775(2) 0.61418(15) 0.79562(15)
H5_4 H 0.629518 0.591276 0.791588
C20_4 C 0.3179(3) 0.56842(14) 0.59110(15)
H6_4 H 0.303604 0.534276 0.570055
C21_4 C 0.3683(2) 0.66906(14) 0.59630(14)
H7_4 H 0.386250 0.703591 0.579058
C22_4 C 0.3847(3) 0.27593(15) 0.40784(17)
C24_4 C 0.4952(2) 0.59941(16) 0.76590(15)
H8_4 H 0.492109 0.566758 0.741928
C25_4 C 0.3633(2) 0.08493(15) 0.40856(17)
C29_4 C 0.3896(2) 0.34130(14) 0.40780(16)
C30_4 C 0.3092(3) 0.56817(15) 0.64818(15)
H11_4 H 0.287433 0.534517 0.665082
C32_4 C 0.1660(2) 0.62043(17) 0.73535(15)
H13_4 H 0.161451 0.625938 0.696617
C34_4 C 0.4073(2) 0.37477(14) 0.45684(15)
H15_4 H 0.417444 0.355664 0.491421
C36_4 C 0.2554(2) 0.60058(18) 0.82272(15)
H17_4 H 0.311804 0.591987 0.842937
C37_4 C 0.0862(2) 0.62022(17) 0.76296(15)
H18_4 H 0.029154 0.625655 0.742289
C40_4 C 0.3701(3) 0.15107(15) 0.40903(17)
C41_4 C 0.5061(2) 0.69580(16) 0.83724(16)
H21_4 H 0.508942 0.728163 0.861557
C43_4 C 0.1758(2) 0.60142(18) 0.84996(15)
H23_4 H 0.179710 0.594771 0.888519
C44_4 C 0.4227(2) 0.68108(16) 0.80683(16)
H24_4 H 0.370588 0.703996 0.810445
C45_4 C 0.4296(3) 0.24247(15) 0.45105(17)
H25_4 H 0.466315 0.261568 0.479744
C46_4 C 0.4210(3) 0.18088(15) 0.45241(18)
H26_4 H 0.449642 0.159603 0.482701
C47_4 C 0.3812(3) 0.43439(16) 0.35915(16)
H27_4 H 0.372553 0.454657 0.325114
C48_4 C 0.3765(3) 0.37297(15) 0.35797(17)
H28_4 H 0.364605 0.353081 0.323887
C49_4 C 0.3831(3) 0.05114(16) 0.45671(18)
H29_4 H 0.399255 0.069599 0.491138
C50_4 C 0.0855(3) 0.65739(16) 0.30325(18)
H30_4 H 0.118570 0.692793 0.304806
C53_4 C 0.9150(4) 0.75322(17) 0.8473(2)
N5_4 N 0.9922(5) 0.76542(18) 0.8395(2)
C54_4 C 0.0759(3) 0.55623(18) 0.3208(2)
H33_4 H 0.103158 0.520765 0.333813
C56_4 C 0.3331(4) 0.24575(18) 0.3656(2)
H35_4 H 0.303091 0.267148 0.335827
C57_4 C 0.3407(3) 0.05326(17) 0.3594(2)
H36_4 H 0.327344 0.073568 0.325614
C59_4 C 0.8405(4) 0.7527(2) 0.7879(2)
H38_4 H 0.779108 0.745637 0.797520
H39_4 H 0.842600 0.790401 0.769329
H40_4 H 0.857497 0.721789 0.763377
C61_4 C 0.3242(4) 0.18450(18) 0.3660(2)
H44_4 H 0.287367 0.165618 0.337243
H45_4 H 0.976879 0.789283 0.757473
O22_2 O 0.52947(17) 0.58031(11) 0.40635(11)
O23_2 O 0.45587(18) 0.56016(14) 0.32527(12)
C51_4 C 0.3789(3) 0.99027(16) 0.45342(17)
H31_4 H 0.393291 0.968637 0.486302
C55_4 C 0.3377(3) 0.99280(16) 0.35977(19)
H34_4 H 0.322443 0.973206 0.325826
O8_2 O 0.92876(16) 0.62553(10) 0.82332(11)
N4_4 N 0.85460(19) 0.60553(16) 0.24522(12)
C6_4 C 0.8285(2) 0.67603(14) 0.01504(14)
C9_4 C 0.6163(2) 0.57870(14) 0.32733(15)
C11_4 C 0.8454(2) 0.62267(16) 0.18777(14)
C13_4 C 0.8332(2) 0.65771(14) 0.07504(14)
C18_4 C 0.5302(2) 0.57266(15) 0.35511(17)
C23_4 C 0.9459(2) 0.60627(17) 0.27426(15)
C26_4 C 0.6949(2) 0.57600(17) 0.24304(15)
H9_4 H 0.693324 0.568635 0.204686
C27_4 C 0.6983(2) 0.59550(16) 0.35707(15)
H10_4 H 0.700101 0.601565 0.395644
C28_4 C 0.7768(2) 0.59486(16) 0.27380(14)
C31_4 C 0.7878(3) 0.66835(16) 0.16845(15)
H12_4 H 0.752578 0.687674 0.193102
C33_4 C 0.6160(2) 0.56840(16) 0.27010(15)
H14_4 H 0.561814 0.556105 0.249400
C35_4 C 0.7780(2) 0.60362(17) 0.33122(15)
H16_4 H 0.832258 0.614966 0.352407
C38_4 C 0.8902(2) 0.61119(16) 0.09518(15)
H19_4 H 0.924642 0.591103 0.070592
C39_4 C 0.7820(2) 0.68567(15) 0.11327(15)
H20_4 H 0.742927 0.716802 0.101134
C42_4 C 0.8965(3) 0.59439(18) 0.15048(16)
H22_4 H 0.935887 0.563533 0.163007
C52_4 C 0.9968(3) 0.65695(17) 0.2780(2)
H32_4 H 0.970816 0.692050 0.263201
C58_4 C 0.9856(3) 0.5557(2) 0.2968(2)
H37_4 H 0.951647 0.520688 0.296087
O3_4 O 0.86765(17) 0.64255(10) 0.98268(10)
C60_4 C 0.0546(4) 0.7660(2) 0.8937(2)
H41_4 H 0.090398 0.730102 0.896729
H42_4 H 0.095104 0.799638 0.894202
H43_4 H 0.018089 0.768534 0.924755
C62_4 C 0.0277(5) 0.7808(2) 0.7851(3)
H46_4 H 0.066901 0.815074 0.790208
H47_4 H 0.062336 0.747910 0.772718
loop_
_geom_bond_atom_site_label_1
_geom_bond_atom_site_label_2
_geom_bond_site_symmetry_1
_geom_bond_site_symmetry_2
Co3 O3 1_555 1_555
O16 Co3 1_555 1_555
O19 Co3 1_555 1_555
O20 Co3 1_555 1_555
N6 Co3 1_555 1_555
Co4 O16 1_555 1_555
O4 C6 1_555 1_555
O12 C18 1_555 1_555
O14 C18 1_555 1_555
N4 C11 1_555 1_555
C6 C13 1_555 1_555
C9 C18 1_555 1_555
C11 C31 1_555 1_555
C13 C38 1_555 1_555
C23 N4 1_555 1_555
C26 H9 1_555 1_555
C27 C9 1_555 1_555
H10 C27 1_555 1_555
C28 N4 1_555 1_555
C31 H12 1_555 1_555
C33 C9 1_555 1_555
H14 C33 1_555 1_555
C35 C27 1_555 1_555
H16 C35 1_555 1_555
C38 H19 1_555 1_555
C39 C13 1_555 1_555
H20 C39 1_555 1_555
C42 C11 1_555 1_555
H22 C42 1_555 1_555
C52 C23 1_555 1_555
H32 C52 1_555 1_555
C58 C23 1_555 1_555
H37 C58 1_555 1_555
Co6 O12 1_555 1_555
O14 Co6 1_555 1_555
C26 C28 1_555 1_555
C26 C33 1_555 1_555
C28 C35 1_555 1_555
C31 C39 1_555 1_555
C38 C42 1_555 1_555
N3 C51 1_555 1_555
H31 C51 1_555 1_555
C55 N3 1_555 1_555
H34 C55 1_555 1_555
Co9 N3 1_555 1_555
Co6 O7 1_555 1_555
O1 C10 1_555 1_555
O16 C53 1_555 1_555
O18 C12 1_555 1_555
O19 C4 1_555 1_555
O7 C10 1_555 1_555
O9 Co4 1_555 1_555
O10 C14 1_555 1_555
O11 Co6 1_555 1_555
N1 Co6 1_555 1_555
O13 Co4 1_555 1_555
H1 O13 1_555 1_555
N2 C1 1_555 1_555
C1 C16 1_555 1_555
C2 C4 1_555 1_555
C3 N2 1_555 1_555
C4 O9 1_555 1_555
C5 C12 1_555 1_555
C7 C10 1_555 1_555
C8 N2 1_555 1_555
C14 O11 1_555 1_555
C15 C14 1_555 1_555
C16 H3 1_555 1_555
C17 N1 1_555 1_555
H4 C17 1_555 1_555
C19 C2 1_555 1_555
H5 C19 1_555 1_555
C20 C7 1_555 1_555
H6 C20 1_555 1_555
C21 C7 1_555 1_555
H7 C21 1_555 1_555
C22 C29 1_555 1_555
C24 C8 1_555 1_555
H8 C24 1_555 1_555
C25 C40 1_555 1_555
C29 C34 1_555 1_555
C30 C1 1_555 1_555
H11 C30 1_555 1_555
C32 C3 1_555 1_555
H13 C32 1_555 1_555
C34 C17 1_555 1_555
H15 C34 1_555 1_555
C36 C3 1_555 1_555
H17 C36 1_555 1_555
C37 C5 1_555 1_555
H18 C37 1_555 1_555
C40 C46 1_555 1_555
C41 C2 1_555 1_555
H21 C41 1_555 1_555
C43 C5 1_555 1_555
H23 C43 1_555 1_555
C44 C8 1_555 1_555
H24 C44 1_555 1_555
C45 C22 1_555 1_555
H25 C45 1_555 1_555
C46 C45 1_555 1_555
H26 C46 1_555 1_555
C47 N1 1_555 1_555
H27 C47 1_555 1_555
C48 C29 1_555 1_555
H28 C48 1_555 1_555
C49 C25 1_555 1_555
H29 C49 1_555 1_555
C50 C15 1_555 1_555
H30 C50 1_555 1_555
C53 N5 1_555 1_555
C54 C15 1_555 1_555
H33 C54 1_555 1_555
C56 C22 1_555 1_555
H35 C56 1_555 1_555
C57 C25 1_555 1_555
H36 C57 1_555 1_555
C59 C53 1_555 1_555
H38 C59 1_555 1_555
H39 C59 1_555 1_555
H40 C59 1_555 1_555
C61 C40 1_555 1_555
H44 C61 1_555 1_555
Co5 O1 1_555 1_555
O15 Co4 1_555 1_555
O21 Co4 1_555 1_555
O10 Co5 1_555 1_555
C16 C21 1_555 1_555
C19 C24 1_555 1_555
C20 C30 1_555 1_555
C32 C37 1_555 1_555
C36 C43 1_555 1_555
C41 C44 1_555 1_555
C47 C48 1_555 1_555
C56 C61 1_555 1_555
O14_2 Co6_2 1_555 1_555
Co6_2 O7_2 1_555 1_555
Co9 O3_2 1_555 1_555
O3_2 C6_2 1_555 1_555
O4_2 C6_2 1_555 1_555
O21 C14_2 1_555 1_555
O11_2 Co6_2 1_555 1_555
O12_2 C18_2 1_555 1_555
N4_2 C11_2 1_555 1_555
C6_2 C13_2 1_555 1_555
C9_2 C18_2 1_555 1_555
C11_2 C31_2 1_555 1_555
C13_2 C38_2 1_555 1_555
C14_2 O11_2 1_555 1_555
C15_2 C14_2 1_555 1_555
C23_2 N4_2 1_555 1_555
C26_2 H9_2 1_555 1_555
C27_2 C9_2 1_555 1_555
H10_2 C27_2 1_555 1_555
C28_2 N4_2 1_555 1_555
C31_2 H12_2 1_555 1_555
C33_2 C9_2 1_555 1_555
H14_2 C33_2 1_555 1_555
C35_2 C27_2 1_555 1_555
H16_2 C35_2 1_555 1_555
C38_2 H19_2 1_555 1_555
C39_2 C13_2 1_555 1_555
H20_2 C39_2 1_555 1_555
C42_2 C11_2 1_555 1_555
H22_2 C42_2 1_555 1_555
C50_2 C15_2 1_555 1_555
H30_2 C50_2 1_555 1_555
C52_2 C23_2 1_555 1_555
H32_2 C52_2 1_555 1_555
C54_2 C15_2 1_555 1_555
H33_2 C54_2 1_555 1_555
C58_2 C23_2 1_555 1_555
H37_2 C58_2 1_555 1_555
Co5 O4_2 1_555 1_555
O16_2 Co9 1_555 1_555
O18_2 Co9 1_555 1_555
O19_2 Co9 1_555 1_555
O20_2 Co9 1_555 1_555
C26_2 C28_2 1_555 1_555
C26_2 C33_2 1_555 1_555
C28_2 C35_2 1_555 1_555
C31_2 C39_2 1_555 1_555
C38_2 C42_2 1_555 1_555
C50_2 C52_2 1_555 1_555
C54_2 C58_2 1_555 1_555
Co5 O16_2 1_555 1_555
O18_2 C12_2 1_555 1_555
O20_2 C12_2 1_555 1_555
N2_2 C1_2 1_555 1_555
C1_2 C16_2 1_555 1_555
C3_2 N2_2 1_555 1_555
C5_2 C12_2 1_555 1_555
C7_2 C10_2 1_555 1_555
C8_2 N2_2 1_555 1_555
C16_2 H3_2 1_555 1_555
C20_2 C7_2 1_555 1_555
H6_2 C20_2 1_555 1_555
C21_2 C7_2 1_555 1_555
H7_2 C21_2 1_555 1_555
C24_2 C8_2 1_555 1_555
H8_2 C24_2 1_555 1_555
C30_2 C1_2 1_555 1_555
H11_2 C30_2 1_555 1_555
C32_2 C3_2 1_555 1_555
H13_2 C32_2 1_555 1_555
C36_2 C3_2 1_555 1_555
H17_2 C36_2 1_555 1_555
C37_2 C5_2 1_555 1_555
H18_2 C37_2 1_555 1_555
C43_2 C5_2 1_555 1_555
H23_2 C43_2 1_555 1_555
C44_2 C8_2 1_555 1_555
H24_2 C44_2 1_555 1_555
C16_2 C21_2 1_555 1_555
C20_2 C30_2 1_555 1_555
C32_2 C37_2 1_555 1_555
C36_2 C43_2 1_555 1_555
N6 C51_2 1_555 1_555
C17_2 N1_2 1_555 1_555
H4_2 C17_2 1_555 1_555
C22_2 C29_2 1_555 1_555
C25_2 C40_2 1_555 1_555
C29_2 C34_2 1_555 1_555
C34_2 C17_2 1_555 1_555
H15_2 C34_2 1_555 1_555
C40_2 C46_2 1_555 1_555
C45_2 C22_2 1_555 1_555
H25_2 C45_2 1_555 1_555
C46_2 C45_2 1_555 1_555
H26_2 C46_2 1_555 1_555
C47_2 N1_2 1_555 1_555
H27_2 C47_2 1_555 1_555
C48_2 C29_2 1_555 1_555
H28_2 C48_2 1_555 1_555
C49_2 C25_2 1_555 1_555
H29_2 C49_2 1_555 1_555
C51_2 C49_2 1_555 1_555
H31_2 C51_2 1_555 1_555
C55_2 N6 1_555 1_555
H34_2 C55_2 1_555 1_555
C56_2 C22_2 1_555 1_555
H35_2 C56_2 1_555 1_555
C57_2 C25_2 1_555 1_555
H36_2 C57_2 1_555 1_555
C61_2 C40_2 1_555 1_555
H44_2 C61_2 1_555 1_555
C47_2 C48_2 1_555 1_555
C55_2 C57_2 1_555 1_555
C56_2 C61_2 1_555 1_555
O16_2 C53_2 1_555 1_555
O19_2 C4_2 1_555 1_555
O9_2 Co5 1_555 1_555
O13_2 Co5 1_555 1_555
H1_2 O13_2 1_555 1_555
H2_2 O13_2 1_555 1_555
C2_2 C4_2 1_555 1_555
C4_2 O9_2 1_555 1_555
C19_2 C2_2 1_555 1_555
H5_2 C19_2 1_555 1_555
C41_2 C2_2 1_555 1_555
H21_2 C41_2 1_555 1_555
C53_2 N5_2 1_555 1_555
N5_2 C60 1_555 1_555
C59_2 C53_2 1_555 1_555
H38_2 C59_2 1_555 1_555
H39_2 C59_2 1_555 1_555
H40_2 C59_2 1_555 1_555
C60 H41 1_555 1_555
H42 C60 1_555 1_555
H43 C60 1_555 1_555
C62 N5_2 1_555 1_555
H45_2 C62 1_555 1_555
H46 C62 1_555 1_555
H47 C62 1_555 1_555
C60_2 H41_2 1_555 1_555
H42_2 C60_2 1_555 1_555
H43_2 C60_2 1_555 1_555
H46_2 C62_2 1_555 1_555
H47_2 C62_2 1_555 1_555
Co1 O2 1_555 1_555
O2 C53_3 1_555 1_555
O6 C4_3 1_555 1_555
O9_3 Co1 1_555 1_555
O13_3 Co1 1_555 1_555
H1_3 O13_3 1_555 1_555
H2_3 O13_3 1_555 1_555
C2_3 C4_3 1_555 1_555
C4_3 O9_3 1_555 1_555
C19_3 C2_3 1_555 1_555
H5_3 C19_3 1_555 1_555
C41_3 C2_3 1_555 1_555
H21_3 C41_3 1_555 1_555
C53_3 N5_3 1_555 1_555
N5_3 C60_3 1_555 1_555
C59_3 C53_3 1_555 1_555
H38_3 C59_3 1_555 1_555
H39_3 C59_3 1_555 1_555
H40_3 C59_3 1_555 1_555
C60_3 H41_3 1_555 1_555
H42_3 C60_3 1_555 1_555
H43_3 C60_3 1_555 1_555
C62_3 N5_3 1_555 1_555
H45_3 C62_3 1_555 1_555
H46_3 C62_3 1_555 1_555
H47_3 C62_3 1_555 1_555
Co7 O2 1_555 1_555
O15_2 Co1 1_555 1_555
O17 Co1 1_555 1_555
O21_2 Co1 1_555 1_555
O6 Co7 1_555 1_555
N3_2 C51_3 1_555 1_555
C17_3 N1_3 1_555 1_555
H4_3 C17_3 1_555 1_555
C22_3 C29_3 1_555 1_555
C25_3 C40_3 1_555 1_555
C29_3 C34_3 1_555 1_555
C34_3 C17_3 1_555 1_555
H15_3 C34_3 1_555 1_555
C40_3 C46_3 1_555 1_555
C45_3 C22_3 1_555 1_555
H25_3 C45_3 1_555 1_555
C46_3 C45_3 1_555 1_555
H26_3 C46_3 1_555 1_555
C47_3 N1_3 1_555 1_555
H27_3 C47_3 1_555 1_555
C48_3 C29_3 1_555 1_555
H28_3 C48_3 1_555 1_555
C49_3 C25_3 1_555 1_555
H29_3 C49_3 1_555 1_555
C51_3 C49_3 1_555 1_555
H31_3 C51_3 1_555 1_555
C55_3 N3_2 1_555 1_555
H34_3 C55_3 1_555 1_555
C56_3 C22_3 1_555 1_555
H35_3 C56_3 1_555 1_555
C57_3 C25_3 1_555 1_555
H36_3 C57_3 1_555 1_555
C61_3 C40_3 1_555 1_555
H44_3 C61_3 1_555 1_555
Co9_2 N3_2 1_555 1_555
C47_3 C48_3 1_555 1_555
C55_3 C57_3 1_555 1_555
C56_3 C61_3 1_555 1_555
O5 C12_3 1_555 1_555
O8 C12_3 1_555 1_555
N2_3 C1_3 1_555 1_555
C1_3 C16_3 1_555 1_555
C3_3 N2_3 1_555 1_555
C5_3 C12_3 1_555 1_555
C7_3 C10_3 1_555 1_555
C8_3 N2_3 1_555 1_555
C16_3 H3_3 1_555 1_555
C20_3 C7_3 1_555 1_555
H6_3 C20_3 1_555 1_555
C21_3 C7_3 1_555 1_555
H7_3 C21_3 1_555 1_555
C24_3 C8_3 1_555 1_555
H8_3 C24_3 1_555 1_555
C30_3 C1_3 1_555 1_555
H11_3 C30_3 1_555 1_555
C32_3 C3_3 1_555 1_555
H13_3 C32_3 1_555 1_555
C36_3 C3_3 1_555 1_555
H17_3 C36_3 1_555 1_555
C37_3 C5_3 1_555 1_555
H18_3 C37_3 1_555 1_555
C43_3 C5_3 1_555 1_555
H23_3 C43_3 1_555 1_555
C44_3 C8_3 1_555 1_555
H24_3 C44_3 1_555 1_555
Co7 O5 1_555 1_555
O8 Co7 1_555 1_555
C16_3 C21_3 1_555 1_555
C20_3 C30_3 1_555 1_555
C32_3 C37_3 1_555 1_555
C36_3 C43_3 1_555 1_555
Co2 O7_3 1_555 1_555
Co7 O3_3 1_555 1_555
O3_3 C6_3 1_555 1_555
O17 C6_3 1_555 1_555
O10_2 C14_3 1_555 1_555
O11_3 Co2 1_555 1_555
O22 C18_3 1_555 1_555
N4_3 C11_3 1_555 1_555
C6_3 C13_3 1_555 1_555
C9_3 C18_3 1_555 1_555
C11_3 C31_3 1_555 1_555
C13_3 C38_3 1_555 1_555
C14_3 O11_3 1_555 1_555
C15_3 C14_3 1_555 1_555
C23_3 N4_3 1_555 1_555
C26_3 H9_3 1_555 1_555
C27_3 C9_3 1_555 1_555
H10_3 C27_3 1_555 1_555
C28_3 N4_3 1_555 1_555
C31_3 H12_3 1_555 1_555
C33_3 C9_3 1_555 1_555
H14_3 C33_3 1_555 1_555
C35_3 C27_3 1_555 1_555
H16_3 C35_3 1_555 1_555
C38_3 H19_3 1_555 1_555
C39_3 C13_3 1_555 1_555
H20_3 C39_3 1_555 1_555
C42_3 C11_3 1_555 1_555
H22_3 C42_3 1_555 1_555
C50_3 C15_3 1_555 1_555
H30_3 C50_3 1_555 1_555
C52_3 C23_3 1_555 1_555
H32_3 C52_3 1_555 1_555
C54_3 C15_3 1_555 1_555
H33_3 C54_3 1_555 1_555
C58_3 C23_3 1_555 1_555
H37_3 C58_3 1_555 1_555
Co5_2 O1_2 1_555 1_555
N6_2 Co7 1_555 1_555
O23 Co2 1_555 1_555
O10_2 Co5_2 1_555 1_555
C26_3 C28_3 1_555 1_555
C26_3 C33_3 1_555 1_555
C28_3 C35_3 1_555 1_555
C31_3 C39_3 1_555 1_555
C38_3 C42_3 1_555 1_555
C50_3 C52_3 1_555 1_555
C54_3 C58_3 1_555 1_555
Co5_2 O2_2 1_555 1_555
Co2_2 O7_4 1_555 1_555
O15_2 C10_4 1_555 1_555
O2_2 C53_4 1_555 1_555
O5_2 C12_4 1_555 1_555
O6_2 C4_4 1_555 1_555
O7_4 C10_4 1_555 1_555
O9_4 Co5_2 1_555 1_555
O21_2 C14_4 1_555 1_555
O11_4 Co2_2 1_555 1_555
N1_4 Co2_2 1_555 1_555
O13_4 Co5_2 1_555 1_555
H1_4 O13_4 1_555 1_555
N2_4 C1_4 1_555 1_555
C1_4 C16_4 1_555 1_555
C2_4 C4_4 1_555 1_555
C3_4 N2_4 1_555 1_555
C4_4 O9_4 1_555 1_555
C5_4 C12_4 1_555 1_555
C7_4 C10_4 1_555 1_555
C8_4 N2_4 1_555 1_555
C14_4 O11_4 1_555 1_555
C15_4 C14_4 1_555 1_555
C16_4 H3_4 1_555 1_555
C17_4 N1_4 1_555 1_555
H4_4 C17_4 1_555 1_555
C19_4 C2_4 1_555 1_555
H5_4 C19_4 1_555 1_555
C20_4 C7_4 1_555 1_555
H6_4 C20_4 1_555 1_555
C21_4 C7_4 1_555 1_555
H7_4 C21_4 1_555 1_555
C22_4 C29_4 1_555 1_555
C24_4 C8_4 1_555 1_555
H8_4 C24_4 1_555 1_555
C25_4 C40_4 1_555 1_555
C29_4 C34_4 1_555 1_555
C30_4 C1_4 1_555 1_555
H11_4 C30_4 1_555 1_555
C32_4 C3_4 1_555 1_555
H13_4 C32_4 1_555 1_555
C34_4 C17_4 1_555 1_555
H15_4 C34_4 1_555 1_555
C36_4 C3_4 1_555 1_555
H17_4 C36_4 1_555 1_555
C37_4 C5_4 1_555 1_555
H18_4 C37_4 1_555 1_555
C40_4 C46_4 1_555 1_555
C41_4 C2_4 1_555 1_555
H21_4 C41_4 1_555 1_555
C43_4 C5_4 1_555 1_555
H23_4 C43_4 1_555 1_555
C44_4 C8_4 1_555 1_555
H24_4 C44_4 1_555 1_555
C45_4 C22_4 1_555 1_555
H25_4 C45_4 1_555 1_555
C46_4 C45_4 1_555 1_555
H26_4 C46_4 1_555 1_555
C47_4 N1_4 1_555 1_555
H27_4 C47_4 1_555 1_555
C48_4 C29_4 1_555 1_555
H28_4 C48_4 1_555 1_555
C49_4 C25_4 1_555 1_555
H29_4 C49_4 1_555 1_555
C50_4 C15_4 1_555 1_555
H30_4 C50_4 1_555 1_555
C53_4 N5_4 1_555 1_555
C54_4 C15_4 1_555 1_555
H33_4 C54_4 1_555 1_555
C56_4 C22_4 1_555 1_555
H35_4 C56_4 1_555 1_555
C57_4 C25_4 1_555 1_555
H36_4 C57_4 1_555 1_555
C59_4 C53_4 1_555 1_555
H38_4 C59_4 1_555 1_555
H39_4 C59_4 1_555 1_555
H40_4 C59_4 1_555 1_555
C61_4 C40_4 1_555 1_555
H44_4 C61_4 1_555 1_555
Co9_2 O2_2 1_555 1_555
O22_2 Co2_2 1_555 1_555
O23_2 Co2_2 1_555 1_555
O6_2 Co9_2 1_555 1_555
C16_4 C21_4 1_555 1_555
C19_4 C24_4 1_555 1_555
C20_4 C30_4 1_555 1_555
C32_4 C37_4 1_555 1_555
C36_4 C43_4 1_555 1_555
C41_4 C44_4 1_555 1_555
C47_4 C48_4 1_555 1_555
C56_4 C61_4 1_555 1_555
N6_2 C51_4 1_555 1_555
H31_4 C51_4 1_555 1_555
C55_4 N6_2 1_555 1_555
H34_4 C55_4 1_555 1_555
O17_2 C6_4 1_555 1_555
O22_2 C18_4 1_555 1_555
O23_2 C18_4 1_555 1_555
N4_4 C11_4 1_555 1_555
C6_4 C13_4 1_555 1_555
C9_4 C18_4 1_555 1_555
C11_4 C31_4 1_555 1_555
C13_4 C38_4 1_555 1_555
C23_4 N4_4 1_555 1_555
C26_4 H9_4 1_555 1_555
C27_4 C9_4 1_555 1_555
H10_4 C27_4 1_555 1_555
C28_4 N4_4 1_555 1_555
C31_4 H12_4 1_555 1_555
C33_4 C9_4 1_555 1_555
H14_4 C33_4 1_555 1_555
C35_4 C27_4 1_555 1_555
H16_4 C35_4 1_555 1_555
C38_4 H19_4 1_555 1_555
C39_4 C13_4 1_555 1_555
H20_4 C39_4 1_555 1_555
C42_4 C11_4 1_555 1_555
H22_4 C42_4 1_555 1_555
C52_4 C23_4 1_555 1_555
H32_4 C52_4 1_555 1_555
C58_4 C23_4 1_555 1_555
H37_4 C58_4 1_555 1_555
O8_2 Co9_2 1_555 1_555
C26_4 C28_4 1_555 1_555
C26_4 C33_4 1_555 1_555
C28_4 C35_4 1_555 1_555
C31_4 C39_4 1_555 1_555
C38_4 C42_4 1_555 1_555
Co9_2 O3_4 1_555 1_555
C60_4 H41_4 1_555 1_555
H42_4 C60_4 1_555 1_555
H43_4 C60_4 1_555 1_555
H46_4 C62_4 1_555 1_555
H47_4 C62_4 1_555 1_555

#END
