
###############################################################################
#
# This file contains modified crystal structure data generated from the
# MOF subset of the Cambridge Structural Database (CSD) v543 
# hosted by the Cambridge Crystallographic Data Centre (CCDC).
#
# This work is licensed under the Creative Commons
# Attribution-NonCommercial-ShareAlike 4.0 International License.
# To view a copy of this license, visit
# http://creativecommons.org/licenses/by-nc-sa/4.0/
# or send a letter to
# Creative Commons, PO Box 1866, Mountain View, CA 94042, USA.
#
# CIF created using the CSD Python API on 29 September 2022
# The structure has been converted into the P1 space group
# The structure has a 3D framework
# The original CSD entry FUNBEW is in the orthorhombic crystal system
# The framework has been calculated to contain at least 10.0% void space
# The void calculation uses a probe of radius 1.32A, grid spacing 0.4
#
###############################################################################

data_FUNBEW
_chemical_formula_moiety         '(C72 H32 Br4 N4 O8 Zn3)n'
_symmetry_cell_setting           triclinic
_symmetry_space_group_name_H-M   'P 1'
_symmetry_Int_Tables_number      1
_space_group_name_Hall           'P 1'
loop_
_symmetry_equiv_pos_site_id
_symmetry_equiv_pos_as_xyz
1 x,y,z
_cell_length_a                   11.2038(19)
_cell_length_b                   13.975(3)
_cell_length_c                   15.848(3)
_cell_angle_alpha                90
_cell_angle_beta                 90
_cell_angle_gamma                90
_cell_volume                     2481.37
loop_
_atom_site_label
_atom_site_type_symbol
_atom_site_fract_x
_atom_site_fract_y
_atom_site_fract_z
Zn6 Zn 0.5000 0.10377(7) 0.0000
Br1 Br 0.29245(9) -0.0000 0.5000
O1 O 0.3752(3) 0.07897(18) 0.08950(16)
N1 N 0.5000 0.2458(5) 0.0000
C1 C 0.1212(7) -0.0000 0.5000
C2 C 0.0606(4) -0.0000 0.4227(3)
C3 C 0.1301(4) 0.0000 0.3416(3)
C4 C 0.1618(4) 0.0843(3) 0.3031(3)
H1 H 0.1380 0.1434 0.3276
C5 C 0.2273(4) 0.0845(3) 0.2298(3)
H2 H 0.2479 0.1436 0.2039
C6 C 0.2632(5) 0.0000 0.1937(3)
C7 C 0.3441(5) -0.0000 0.1169(3)
C8 C 0.4056(7) 0.2948(5) 0.0000
H3 H 0.3323 0.2607 0.0000
C9 C 0.3984(7) 0.3951(6) 0.0000
H4 H 0.3226 0.4255 0.0000
C10 C 0.5000 0.4492(5) 0.0000
Zn6_2 Zn 0.5000 0.10377(7) 1.0000
Zn9 Zn 0.5000 0.89623(7) 0.0000
O6 O 0.3752(3) 0.07897(18) 0.91050(16)
O9 O 0.6248(3) 0.07897(18) 0.08950(16)
N2 N 0.5000 0.7542(5) 0.0000
C14 C 0.0606(4) 0.0000 0.5773(3)
C16 C 0.1301(4) 0.0000 0.6584(3)
C22 C 0.1618(4) 0.0843(3) 0.6969(3)
H9 H 0.1380 0.1434 0.6724
C29 C 0.2273(4) 0.0845(3) 0.7702(3)
H16 H 0.2479 0.1436 0.7961
C33 C 0.2632(5) -0.0000 0.8063(3)
C36 C 0.3441(5) -0.0000 0.8831(3)
C38 C 0.5944(7) 0.2948(5) 0.0000
C39 C 0.5944(7) 0.7052(5) 0.0000
C40 C 0.4056(7) 0.7052(5) 0.0000
H19 H 0.6677 0.2607 0.0000
H20 H 0.3323 0.7393 0.0000
H21 H 0.6677 0.7393 0.0000
C41 C 0.6016(7) 0.3951(6) 0.0000
C42 C 0.6016(7) 0.6049(6) 0.0000
C43 C 0.3984(7) 0.6049(6) 0.0000
H22 H 0.6774 0.4255 0.0000
H23 H 0.3226 0.5745 0.0000
H24 H 0.6774 0.5745 0.0000
C44 C 0.5000 0.5508(5) 0.0000
N1_2 N 0.5000 0.2458(5) 1.0000
C8_2 C 0.4056(7) 0.2948(5) 1.0000
H3_2 H 0.3323 0.2607 1.0000
C9_2 C 0.3984(7) 0.3951(6) 1.0000
H4_2 H 0.3226 0.4255 1.0000
C10_2 C 0.5000 0.4492(5) 1.0000
Zn9_2 Zn 0.5000 0.89623(7) 1.0000
O10 O 0.6248(3) 0.07897(18) 0.91050(16)
N2_2 N 0.5000 0.7542(5) 1.0000
C38_2 C 0.5944(7) 0.2948(5) 1.0000
C39_2 C 0.5944(7) 0.7052(5) 1.0000
C40_2 C 0.4056(7) 0.7052(5) 1.0000
H19_2 H 0.6677 0.2607 1.0000
H20_2 H 0.3323 0.7393 1.0000
H21_2 H 0.6677 0.7393 1.0000
C41_2 C 0.6016(7) 0.3951(6) 1.0000
C42_2 C 0.6016(7) 0.6049(6) 1.0000
C43_2 C 0.3984(7) 0.6049(6) 1.0000
H22_2 H 0.6774 0.4255 1.0000
H23_2 H 0.3226 0.5745 1.0000
H24_2 H 0.6774 0.5745 1.0000
C44_2 C 0.5000 0.5508(5) 1.0000
Br1_2 Br 0.29245(9) 1.0000 0.5000
C1_2 C 0.1212(7) 1.0000 0.5000
C2_2 C 0.0606(4) 1.0000 0.4227(3)
C3_2 C 0.1301(4) 1.0000 0.3416(3)
C6_2 C 0.2632(5) 1.0000 0.1937(3)
C7_2 C 0.3441(5) 1.0000 0.1169(3)
O2 O 0.3752(3) 0.92103(18) 0.08950(16)
O5 O 0.3752(3) 0.92103(18) 0.91050(16)
O12 O 0.6248(3) 0.92103(18) 0.08950(16)
C14_2 C 0.0606(4) 1.0000 0.5773(3)
C16_2 C 0.1301(4) 1.0000 0.6584(3)
C18 C 0.1618(4) 0.9157(3) 0.3031(3)
C21 C 0.1618(4) 0.9157(3) 0.6969(3)
H5 H 0.1380 0.8566 0.3276
H8 H 0.1380 0.8566 0.6724
C25 C 0.2273(4) 0.9155(3) 0.2298(3)
C28 C 0.2273(4) 0.9155(3) 0.7702(3)
H12 H 0.2479 0.8564 0.2039
H15 H 0.2479 0.8564 0.7961
C33_2 C 0.2632(5) 1.0000 0.8063(3)
C36_2 C 0.3441(5) 1.0000 0.8831(3)
O13 O 0.6248(3) 0.92103(18) 0.91050(16)
Br2 Br 0.70755(9) -0.0000 0.5000
C11 C 0.8788(7) -0.0000 0.5000
C12 C 0.9394(4) -0.0000 0.4227(3)
C13 C 0.9394(4) 0.0000 0.5773(3)
C15 C 0.8699(4) 0.0000 0.6584(3)
C17 C 0.8699(4) 0.0000 0.3416(3)
C19 C 0.8382(4) 0.0843(3) 0.6969(3)
C24 C 0.8382(4) 0.0843(3) 0.3031(3)
H6 H 0.8620 0.1434 0.6724
H11 H 0.8620 0.1434 0.3276
C26 C 0.7727(4) 0.0845(3) 0.7702(3)
C31 C 0.7727(4) 0.0845(3) 0.2298(3)
H13 H 0.7521 0.1436 0.7961
H18 H 0.7521 0.1436 0.2039
C32 C 0.7368(5) -0.0000 0.8063(3)
C34 C 0.7368(5) 0.0000 0.1937(3)
C35 C 0.6559(5) -0.0000 0.8831(3)
C37 C 0.6559(5) -0.0000 0.1169(3)
Br2_2 Br 0.70755(9) 1.0000 0.5000
C11_2 C 0.8788(7) 1.0000 0.5000
C12_2 C 0.9394(4) 1.0000 0.4227(3)
C13_2 C 0.9394(4) 1.0000 0.5773(3)
C15_2 C 0.8699(4) 1.0000 0.6584(3)
C17_2 C 0.8699(4) 1.0000 0.3416(3)
C20 C 0.8382(4) 0.9157(3) 0.6969(3)
C23 C 0.8382(4) 0.9157(3) 0.3031(3)
H7 H 0.8620 0.8566 0.6724
H10 H 0.8620 0.8566 0.3276
C27 C 0.7727(4) 0.9155(3) 0.7702(3)
C30 C 0.7727(4) 0.9155(3) 0.2298(3)
H14 H 0.7521 0.8564 0.7961
H17 H 0.7521 0.8564 0.2039
C32_2 C 0.7368(5) 1.0000 0.8063(3)
C34_2 C 0.7368(5) 1.0000 0.1937(3)
C35_2 C 0.6559(5) 1.0000 0.8831(3)
C37_2 C 0.6559(5) 1.0000 0.1169(3)
loop_
_geom_bond_atom_site_label_1
_geom_bond_atom_site_label_2
_geom_bond_site_symmetry_1
_geom_bond_site_symmetry_2
Br1 C1 1_555 1_555
Zn6 O1 1_555 1_555
O1 C7 1_555 1_555
N1 Zn6 1_555 1_555
C1 C2 1_555 1_555
C2 C3 1_555 1_555
C3 C4 1_555 1_555
C4 H1 1_555 1_555
C5 C4 1_555 1_555
H2 C5 1_555 1_555
C6 C5 1_555 1_555
C7 C6 1_555 1_555
C8 N1 1_555 1_555
H3 C8 1_555 1_555
C9 C8 1_555 1_555
H4 C9 1_555 1_555
C10 C9 1_555 1_555
Zn6_2 O6 1_555 1_555
Zn9 N2 1_555 1_555
O6 C36 1_555 1_555
O9 Zn6 1_555 1_555
N2 C39 1_555 1_555
C14 C1 1_555 1_555
C16 C14 1_555 1_555
C22 C16 1_555 1_555
H9 C22 1_555 1_555
C29 C22 1_555 1_555
H16 C29 1_555 1_555
C36 C33 1_555 1_555
C38 N1 1_555 1_555
C39 H21 1_555 1_555
C40 N2 1_555 1_555
H19 C38 1_555 1_555
H20 C40 1_555 1_555
C41 C10 1_555 1_555
C42 C39 1_555 1_555
C43 C40 1_555 1_555
H22 C41 1_555 1_555
H23 C43 1_555 1_555
H24 C42 1_555 1_555
C44 C10 1_555 1_555
C29 C33 1_555 1_555
C38 C41 1_555 1_555
C42 C44 1_555 1_555
C43 C44 1_555 1_555
N1_2 Zn6_2 1_555 1_555
C8_2 N1_2 1_555 1_555
H3_2 C8_2 1_555 1_555
C9_2 C8_2 1_555 1_555
H4_2 C9_2 1_555 1_555
C10_2 C9_2 1_555 1_555
Zn9_2 N2_2 1_555 1_555
O10 Zn6_2 1_555 1_555
N2_2 C39_2 1_555 1_555
C38_2 N1_2 1_555 1_555
C39_2 H21_2 1_555 1_555
C40_2 N2_2 1_555 1_555
H19_2 C38_2 1_555 1_555
H20_2 C40_2 1_555 1_555
C41_2 C10_2 1_555 1_555
C42_2 C39_2 1_555 1_555
C43_2 C40_2 1_555 1_555
H22_2 C41_2 1_555 1_555
H23_2 C43_2 1_555 1_555
H24_2 C42_2 1_555 1_555
C44_2 C10_2 1_555 1_555
C38_2 C41_2 1_555 1_555
C42_2 C44_2 1_555 1_555
C43_2 C44_2 1_555 1_555
Br1_2 C1_2 1_555 1_555
C1_2 C2_2 1_555 1_555
C2_2 C3_2 1_555 1_555
C7_2 C6_2 1_555 1_555
Zn9 O2 1_555 1_555
Zn9_2 O5 1_555 1_555
O2 C7_2 1_555 1_555
O5 C36_2 1_555 1_555
O12 Zn9 1_555 1_555
C14_2 C1_2 1_555 1_555
C16_2 C14_2 1_555 1_555
C18 C3_2 1_555 1_555
C21 C16_2 1_555 1_555
H5 C18 1_555 1_555
H8 C21 1_555 1_555
C25 C6_2 1_555 1_555
C28 C21 1_555 1_555
H12 C25 1_555 1_555
H15 C28 1_555 1_555
C33_2 C28 1_555 1_555
C36_2 C33_2 1_555 1_555
C18 C25 1_555 1_555
O13 Zn9_2 1_555 1_555
Br2 C11 1_555 1_555
O10 C35 1_555 1_555
O9 C37 1_555 1_555
C11 C12 1_555 1_555
C13 C11 1_555 1_555
C15 C13 1_555 1_555
C17 C12 1_555 1_555
C19 C15 1_555 1_555
C24 C17 1_555 1_555
H6 C19 1_555 1_555
H11 C24 1_555 1_555
C26 C19 1_555 1_555
C31 C24 1_555 1_555
H13 C26 1_555 1_555
H18 C31 1_555 1_555
C32 C26 1_555 1_555
C35 C32 1_555 1_555
C37 C34 1_555 1_555
C31 C34 1_555 1_555
Br2_2 C11_2 1_555 1_555
O13 C35_2 1_555 1_555
O12 C37_2 1_555 1_555
C11_2 C12_2 1_555 1_555
C13_2 C11_2 1_555 1_555
C15_2 C13_2 1_555 1_555
C17_2 C12_2 1_555 1_555
C20 C15_2 1_555 1_555
C23 C17_2 1_555 1_555
H7 C20 1_555 1_555
H10 C23 1_555 1_555
C27 C20 1_555 1_555
C30 C23 1_555 1_555
H14 C27 1_555 1_555
H17 C30 1_555 1_555
C34_2 C30 1_555 1_555
C35_2 C32_2 1_555 1_555
C37_2 C34_2 1_555 1_555
C27 C32_2 1_555 1_555

#END
