
###############################################################################
#
# This file contains modified crystal structure data generated from the
# MOF subset of the Cambridge Structural Database (CSD) v543 
# hosted by the Cambridge Crystallographic Data Centre (CCDC).
#
# This work is licensed under the Creative Commons
# Attribution-NonCommercial-ShareAlike 4.0 International License.
# To view a copy of this license, visit
# http://creativecommons.org/licenses/by-nc-sa/4.0/
# or send a letter to
# Creative Commons, PO Box 1866, Mountain View, CA 94042, USA.
#
# CIF created using the CSD Python API on 29 September 2022
# The structure has been converted into the P1 space group
# The structure has a 3D framework
# The original CSD entry FUNBUO01 is in the monoclinic crystal system
# The framework has been calculated to contain at least 10.0% void space
# The void calculation uses a probe of radius 1.32A, grid spacing 0.4
#
###############################################################################

data_FUNBUO01
_chemical_formula_moiety         '(C240 H178 In15 O58)n'
_symmetry_cell_setting           triclinic
_symmetry_space_group_name_H-M   'P 1'
_symmetry_Int_Tables_number      1
_space_group_name_Hall           'P 1'
loop_
_symmetry_equiv_pos_site_id
_symmetry_equiv_pos_as_xyz
1 x,y,z
_cell_length_a                   18.9338(6)
_cell_length_b                   29.1926(9)
_cell_length_c                   20.8268(7)
_cell_angle_alpha                90
_cell_angle_beta                 113.720(4)
_cell_angle_gamma                90
_cell_volume                     10539.1
loop_
_atom_site_label
_atom_site_type_symbol
_atom_site_fract_x
_atom_site_fract_y
_atom_site_fract_z
In1 In 0.000000 0.500000 0.000000
O14 O 0.37071(16) 0.93287(11) 0.23427(14)
O15 O 0.37660(15) 0.95137(11) 0.13331(14)
C6 C 0.3419(2) 0.93565(14) 0.1691(2)
C7 C 0.2623(2) 0.91772(14) 0.1315(2)
C16 C 0.0359(2) 0.85962(15) 0.0296(2)
C17 C 0.1139(2) 0.88126(15) 0.0629(2)
C23 C 0.0306(2) 0.81264(15) 0.0161(2)
C41 C 0.2240(2) 0.91954(19) 0.0600(2)
H14 H 0.247940 0.933029 0.033548
C45 C 0.1506(2) 0.90180(19) 0.0262(3)
C50 C 0.1523(3) 0.88028(19) 0.1350(3)
H25 H 0.128166 0.867007 0.161451
C51 C 0.1034(2) 0.78539(18) 0.0275(3)
H26 H 0.147225 0.805502 0.044110
H27 H 0.110204 0.761813 0.061656
C55 C 0.2253(3) 0.89837(19) 0.1691(2)
H32 H 0.249417 0.897361 0.217752
H44 H 0.008330 0.942594 0.079571
In11 In 0.45859(2) 0.96368(2) 0.32310(2)
In22 In 0.49468(2) 0.97700(2) 0.16654(2)
O34 O 0.03194(16) 0.43037(9) 0.00484(12)
O39 O 0.11424(14) 0.52023(10) 0.07206(14)
In1_2 In 0.000000 0.500000 1.000000
In3 In 0.000000 0.500000 0.500000
H1 H 0.014479 0.465784 0.774353
O2 O 0.03754(14) 0.51001(9) 0.91853(13)
H2 H 0.087786 0.502932 0.924785
H18 H 0.125796 0.903941 0.977643
H28 H 0.098625 0.771713 0.984070
In19 In 0.00532(2) 0.47700(2) 0.33346(2)
O35 O 0.00882(15) 0.45182(9) 0.42895(13)
O37 O 0.10779(14) 0.49413(9) 0.68998(14)
O38 O 0.08167(15) 0.46263(10) 0.58559(14)
O41 O 0.03292(16) 0.59092(9) 0.81818(14)
O43 O 0.03249(16) 0.58919(9) 0.71131(15)
O45 O 0.09797(15) 0.53535(11) 0.49811(15)
In14 In 0.500000 0.000000 0.000000
In14_2 In 0.500000 0.000000 1.000000
In18 In 0.50532(2) 0.02300(2) 0.83346(2)
In1_3 In 1.000000 0.500000 0.000000
C19 C 0.9702(2) 0.88572(14) 0.0178(2)
C38 C 0.9727(3) 0.66375(16) 0.0231(2)
H11 H 0.990499 0.643773 0.061102
C44 C 0.9767(3) 0.71007(17) 0.0340(2)
H17 H 0.996601 0.721153 0.079750
C46 C 0.7369(3) 0.92077(18) 0.0251(2)
H19 H 0.724109 0.926992 0.062863
C47 C 0.8059(3) 0.89977(18) 0.0359(3)
H20 H 0.839251 0.891800 0.081275
C60 C 0.9761(3) 0.93687(17) 0.0312(3)
H43 H 0.925640 0.949230 0.020301
H45 H 0.998247 0.951215 0.002063
In14_3 In 0.500000 1.000000 0.000000
O31 O 0.96246(14) 0.48999(9) 0.08147(13)
In1_4 In 1.000000 0.500000 1.000000
In2 In 0.95859(2) 0.53632(2) 0.82310(2)
In3_2 In 1.000000 0.500000 0.500000
In4 In 0.99468(2) 0.52300(2) 0.66654(2)
O1 O 0.99690(14) 0.49544(9) 0.76071(12)
O3 O 0.56554(15) 0.96125(10) 0.88289(14)
O4 O 0.96806(16) 0.56963(9) 0.99516(12)
O5 O 0.99118(15) 0.54818(9) 0.57105(13)
H3 H 0.985960 0.579302 0.560681
O6 O 0.89221(14) 0.50587(9) 0.31002(14)
O7 O 0.12603(15) 0.51443(10) 0.18238(14)
O8 O 0.91833(15) 0.53737(10) 0.41441(14)
O9 O 0.91820(16) 0.58265(9) 0.88044(14)
O11 O 0.53292(16) 0.90908(9) 0.31818(14)
O12 O 0.53249(16) 0.91081(9) 0.21131(15)
O13 O 0.59797(15) 0.96465(11) 0.99811(15)
C1 C 0.1493(2) 0.52696(14) 0.1370(2)
C2 C 0.5334(2) 0.89021(14) 0.2649(2)
C3 C 0.8743(2) 0.52903(14) 0.3525(2)
C4 C 0.6120(2) 0.95483(14) 0.9459(2)
C5 C 0.9432(2) 0.59616(15) 0.9429(2)
C8 C 0.2237(2) 0.55239(14) 0.1610(2)
C9 C 0.7960(2) 0.54882(14) 0.3275(2)
C10 C 0.9421(2) 0.64681(14) 0.9557(2)
C11 C 0.9522(2) 0.74071(14) 0.9791(2)
C12 C 0.5336(2) 0.83932(14) 0.2628(2)
C13 C 0.6869(2) 0.93252(15) 0.9583(2)
C14 C 0.8263(2) 0.89035(15) 0.9809(2)
C15 C 0.5791(2) 0.61929(16) 0.2636(2)
C18 C 0.6525(2) 0.59194(15) 0.2847(2)
C20 C 0.5213(2) 0.74337(15) 0.2541(2)
C21 C 0.4414(2) 0.62271(15) 0.2286(2)
C22 C 0.9588(2) 0.79122(14) 0.9920(2)
C24 C 0.8927(2) 0.81677(15) 0.9814(2)
C25 C 0.8984(2) 0.86360(15) 0.9926(2)
C26 C 0.5160(2) 0.69235(15) 0.2501(2)
C27 C 0.5085(2) 0.59652(15) 0.2447(2)
C28 C 0.5834(2) 0.66675(15) 0.2660(3)
C29 C 0.4448(2) 0.67020(15) 0.2316(2)
C30 C 0.3654(2) 0.59862(15) 0.2059(2)
C31 C 0.5446(3) 0.81334(15) 0.3208(2)
H4 H 0.555579 0.827663 0.363625
C32 C 0.9213(3) 0.72309(15) 0.9117(2)
H5 H 0.903767 0.743096 0.873781
C33 C 0.5398(3) 0.76627(16) 0.3165(3)
H6 H 0.549330 0.749453 0.357114
C34 C 0.9161(3) 0.67670(15) 0.8997(2)
H7 H 0.895191 0.665509 0.854046
C35 C 0.2696(2) 0.55748(17) 0.2310(2)
H8 H 0.253600 0.545386 0.264256
C36 C 0.7495(2) 0.55381(18) 0.2573(2)
H9 H 0.765708 0.542460 0.223707
C37 C 0.7074(2) 0.92407(17) 0.9031(2)
H10 H 0.674405 0.932470 0.857853
C39 C 0.6786(2) 0.57570(18) 0.2363(3)
H12 H 0.648277 0.579409 0.188711
C40 C 0.7769(3) 0.90312(17) 0.9147(3)
H13 H 0.790378 0.897612 0.877135
C42 C 0.7691(3) 0.56465(19) 0.3759(3)
H15 H 0.799130 0.561237 0.423627
C43 C 0.3393(2) 0.58033(18) 0.2529(3)
H16 H 0.369246 0.583365 0.300642
C48 C 0.5159(3) 0.81683(16) 0.1995(3)
H21 H 0.507707 0.833752 0.159289
C49 C 0.3727(2) 0.69818(17) 0.2160(3)
H22 H 0.385495 0.730171 0.220551
H23 H 0.336254 0.691964 0.169103
H24 H 0.350388 0.690179 0.248576
C52 C 0.3191(3) 0.59351(18) 0.1353(3)
H29 H 0.335307 0.605612 0.102204
C53 C 0.2498(3) 0.57094(18) 0.1132(3)
H30 H 0.219825 0.568056 0.065454
C54 C 0.6986(3) 0.5853(2) 0.3541(3)
H31 H 0.681192 0.595256 0.387687
C56 C 0.8148(2) 0.79286(17) 0.9579(3)
H33 H 0.821244 0.760659 0.952647
H34 H 0.793893 0.797483 0.992479
H35 H 0.780111 0.805388 0.913876
C57 C 0.5104(3) 0.76975(17) 0.1954(3)
H36 H 0.499108 0.755395 0.152558
C58 C 0.6600(3) 0.69117(17) 0.2845(3)
H37 H 0.652073 0.723687 0.283650
H38 H 0.695325 0.682050 0.330511
H39 H 0.680904 0.683206 0.250946
C59 C 0.5044(3) 0.54467(16) 0.2428(3)
H40 H 0.451764 0.535142 0.228893
H41 H 0.523823 0.533303 0.209834
H42 H 0.534978 0.532717 0.288606
In5 In 0.04141(2) 0.46368(2) 0.17690(2)
O16 O 0.00310(14) 0.50456(9) 0.23929(12)
O18 O 0.43446(15) 0.03875(10) 0.11711(14)
H48 H 0.014040 0.420698 0.439319
O22 O 0.87397(15) 0.48557(10) 0.81762(14)
O24 O 0.08180(16) 0.41735(9) 0.11956(14)
O25 O 0.88576(14) 0.47977(10) 0.92794(14)
O26 O 0.46708(16) 0.09092(9) 0.68182(14)
O27 O 0.46751(16) 0.08919(9) 0.78869(15)
O28 O 0.40203(15) 0.03535(11) 0.00189(15)
C61 C 0.8507(2) 0.47304(14) 0.8630(2)
C62 C 0.4666(2) 0.10979(14) 0.7351(2)
C63 C 0.1257(2) 0.47097(14) 0.6475(2)
C64 C 0.3880(2) 0.04517(14) 0.0541(2)
C65 C 0.0568(2) 0.40384(15) 0.0571(2)
C68 C 0.7763(2) 0.44761(14) 0.8390(2)
C69 C 0.2040(2) 0.45118(14) 0.6725(2)
C70 C 0.0579(2) 0.35319(14) 0.0443(2)
C71 C 0.0478(2) 0.25929(14) 0.0209(2)
C72 C 0.4664(2) 0.16068(14) 0.7372(2)
C73 C 0.3131(2) 0.06748(15) 0.0417(2)
C74 C 0.1737(2) 0.10965(15) 0.0191(2)
C75 C 0.4209(2) 0.38071(16) 0.7364(2)
C78 C 0.3475(2) 0.40806(15) 0.7153(2)
C80 C 0.4787(2) 0.25663(15) 0.7459(2)
C81 C 0.5586(2) 0.37729(15) 0.7714(2)
C82 C 0.0412(2) 0.20878(14) 0.0080(2)
C84 C 0.1073(2) 0.18323(15) 0.0186(2)
C85 C 0.1016(2) 0.13640(15) 0.0074(2)
C86 C 0.4840(2) 0.30765(15) 0.7499(2)
C87 C 0.4915(2) 0.40348(15) 0.7553(2)
C88 C 0.4166(2) 0.33325(15) 0.7340(3)
C89 C 0.5552(2) 0.32980(15) 0.7684(2)
C90 C 0.6346(2) 0.40138(15) 0.7941(2)
C91 C 0.4554(3) 0.18666(15) 0.6792(2)
H49 H 0.444421 0.172337 0.636375
C92 C 0.0787(3) 0.27691(15) 0.0883(2)
H50 H 0.096233 0.256904 0.126219
C93 C 0.4602(3) 0.23373(16) 0.6835(3)
H51 H 0.450670 0.250547 0.642886
C94 C 0.0839(3) 0.32330(15) 0.1003(2)
H52 H 0.104809 0.334491 0.145954
C95 C 0.7304(2) 0.44252(17) 0.7690(2)
H53 H 0.746400 0.454614 0.735744
C96 C 0.2505(2) 0.44619(18) 0.7427(2)
H54 H 0.234292 0.457540 0.776293
C97 C 0.2926(2) 0.07593(17) 0.0969(2)
H55 H 0.325595 0.067530 0.142147
C99 C 0.3214(2) 0.42430(18) 0.7637(3)
H57 H 0.351723 0.420591 0.811289
C100 C 0.2231(3) 0.09688(17) 0.0853(3)
H58 H 0.209622 0.102388 0.122865
C102 C 0.2309(3) 0.43535(19) 0.6241(3)
H60 H 0.200870 0.438763 0.576373
C103 C 0.6607(2) 0.41967(18) 0.7471(3)
H61 H 0.630754 0.416635 0.699358
C108 C 0.4841(3) 0.18317(16) 0.8005(3)
H66 H 0.492293 0.166248 0.840711
C109 C 0.6273(2) 0.30182(17) 0.7840(3)
H67 H 0.614505 0.269829 0.779449
H68 H 0.663746 0.308036 0.830897
H69 H 0.649612 0.309821 0.751424
C112 C 0.6809(3) 0.40649(18) 0.8647(3)
H74 H 0.664693 0.394388 0.897796
C113 C 0.7502(3) 0.42906(18) 0.8868(3)
H75 H 0.780175 0.431944 0.934546
C114 C 0.3014(3) 0.4147(2) 0.6459(3)
H76 H 0.318808 0.404744 0.612313
C116 C 0.1852(2) 0.20714(17) 0.0421(3)
H78 H 0.178756 0.239341 0.047353
H79 H 0.206107 0.202517 0.007521
H80 H 0.219889 0.194612 0.086124
C117 C 0.4896(3) 0.23025(17) 0.8046(3)
H81 H 0.500892 0.244605 0.847442
C118 C 0.3400(3) 0.30883(17) 0.7155(3)
H82 H 0.347927 0.276313 0.716350
H83 H 0.304675 0.317950 0.669489
H84 H 0.319096 0.316794 0.749054
C119 C 0.4956(3) 0.45533(16) 0.7572(3)
H85 H 0.548236 0.464858 0.771107
H86 H 0.476177 0.466697 0.790166
H87 H 0.465022 0.467283 0.711394
In9 In 0.54141(2) 0.03632(2) 0.67690(2)
In14_4 In 0.500000 1.000000 1.000000
O32 O 0.93446(15) 0.46125(10) 0.61711(14)
O33 O 0.06554(15) 0.53875(10) 0.38289(14)
O44 O 0.90203(15) 0.46465(11) 0.50189(15)
O46 O 0.12929(16) 0.43287(11) 0.26573(14)
O47 O 0.87071(16) 0.56713(11) 0.73427(14)
O48 O 0.12340(15) 0.45137(11) 0.36669(14)
O49 O 0.87660(15) 0.54863(11) 0.63331(14)
C79 C 0.0298(2) 0.11428(14) 0.9822(2)
C98 C 0.0273(3) 0.33625(16) 0.9769(2)
H56 H 0.009501 0.356227 0.938898
C104 C 0.0233(3) 0.28993(17) 0.9660(2)
H62 H 0.003399 0.278847 0.920250
C106 C 0.2631(3) 0.07923(18) 0.9749(2)
H64 H 0.275891 0.073008 0.937137
C107 C 0.1941(3) 0.10023(18) 0.9641(3)
H65 H 0.160749 0.108200 0.918725
C120 C 0.0239(3) 0.06313(17) 0.9688(3)
H88 H 0.074360 0.050770 0.979699
H90 H 0.001753 0.048785 0.997937
H46 H 0.985521 0.534216 0.225647
H47 H 0.912214 0.497068 0.075215
H63 H 0.874204 0.096059 0.022357
H73 H 0.901375 0.228287 0.015930
O40 O 0.96708(16) 0.40908(9) 0.18182(14)
O42 O 0.96751(16) 0.41081(9) 0.28869(15)
O29 O 0.62929(16) 0.06713(11) 0.76573(14)
O30 O 0.62340(15) 0.04863(11) 0.86669(14)
C66 C 0.6581(2) 0.06435(14) 0.8309(2)
C67 C 0.7377(2) 0.08228(14) 0.8685(2)
C76 C 0.9641(2) 0.14038(15) 0.9704(2)
C77 C 0.8861(2) 0.11874(15) 0.9371(2)
C83 C 0.9694(2) 0.18736(15) 0.9839(2)
C101 C 0.7760(2) 0.08046(19) 0.9400(2)
H59 H 0.752060 0.066971 0.966452
C105 C 0.8494(2) 0.09820(19) 0.9738(3)
C110 C 0.8477(3) 0.11972(19) 0.8650(3)
H70 H 0.871834 0.132993 0.838549
C111 C 0.8966(2) 0.21461(18) 0.9725(3)
H71 H 0.852775 0.194498 0.955890
H72 H 0.889796 0.238187 0.938344
C115 C 0.7747(3) 0.10163(19) 0.8309(2)
H77 H 0.750583 0.102639 0.782248
H89 H 0.991670 0.057406 0.920429
O7_2 O 0.37397(15) 0.01443(10) 0.31762(14)
O10 O 0.38576(14) 0.02023(10) 0.42794(14)
C1_2 C 0.3507(2) 0.02696(14) 0.3630(2)
C8_2 C 0.2763(2) 0.05239(14) 0.3390(2)
C21_2 C 0.0586(2) 0.12271(15) 0.2714(2)
C29_2 C 0.0552(2) 0.17020(15) 0.2684(2)
C30_2 C 0.1346(2) 0.09862(15) 0.2941(2)
C35_2 C 0.2304(2) 0.05748(17) 0.2690(2)
H8_2 H 0.246400 0.045386 0.235744
C43_2 C 0.1607(2) 0.08033(18) 0.2471(3)
H16_2 H 0.130754 0.083365 0.199358
C49_2 C 0.1273(2) 0.19818(17) 0.2840(3)
H22_2 H 0.114505 0.230171 0.279449
H23_2 H 0.163746 0.191964 0.330897
H24_2 H 0.149612 0.190179 0.251424
C52_2 C 0.1809(3) 0.09351(18) 0.3647(3)
H29_2 H 0.164693 0.105612 0.397796
C53_2 C 0.2502(3) 0.07094(18) 0.3868(3)
H30_2 H 0.280175 0.068056 0.434546
H36_2 H 0.000892 0.255395 0.347442
H40_2 H 0.048236 0.035142 0.271107
O16_2 O 0.49690(14) 0.00456(9) 0.26071(12)
H46_2 H 0.514479 0.034216 0.274353
In7 In 0.500000 -0.000000 0.500000
O36 O 0.60779(14) 0.00587(9) 0.18998(14)
O17 O 0.53754(14) 0.98999(9) 0.41853(13)
H47_2 H 0.587786 0.997068 0.424785
O19 O 0.46806(16) 0.93037(9) 0.49516(12)
O20 O 0.49118(15) 0.95182(9) 0.07105(13)
H48_2 H 0.485960 0.920698 0.060681
O24_2 O 0.41820(16) 0.91735(9) 0.38044(14)
C64_2 C 0.1120(2) 0.54517(14) 0.4459(2)
C65_2 C 0.4432(2) 0.90384(15) 0.4429(2)
C66_2 C 0.8419(2) 0.56435(14) 0.6691(2)
C67_2 C 0.7623(2) 0.58228(14) 0.6315(2)
C70_2 C 0.4421(2) 0.85319(14) 0.4557(2)
C71_2 C 0.4522(2) 0.75929(14) 0.4791(2)
C73_2 C 0.1869(2) 0.56748(15) 0.4583(2)
C74_2 C 0.3263(2) 0.60965(15) 0.4809(2)
C76_2 C 0.5359(2) 0.64038(15) 0.5296(2)
C77_2 C 0.6139(2) 0.61874(15) 0.5629(2)
C79_2 C 0.4702(2) 0.61428(14) 0.5178(2)
C82_2 C 0.4588(2) 0.70878(14) 0.4920(2)
C83_2 C 0.5306(2) 0.68736(15) 0.5161(2)
C84_2 C 0.3927(2) 0.68323(15) 0.4814(2)
C85_2 C 0.3984(2) 0.63640(15) 0.4926(2)
C92_2 C 0.4213(3) 0.77691(15) 0.4117(2)
H50_2 H 0.403767 0.756904 0.373781
C94_2 C 0.4161(3) 0.82330(15) 0.3997(2)
H52_2 H 0.395191 0.834491 0.354046
C97_2 C 0.2074(2) 0.57593(17) 0.4031(2)
H55_2 H 0.174405 0.567530 0.357853
C98_2 C 0.4727(3) 0.83625(16) 0.5231(2)
H56_2 H 0.490499 0.856227 0.561102
C100_2 C 0.2769(3) 0.59688(17) 0.4147(3)
H58_2 H 0.290378 0.602388 0.377135
C101_2 C 0.7240(2) 0.58046(19) 0.5600(2)
H59_2 H 0.747940 0.566971 0.533548
C104_2 C 0.4767(3) 0.78993(17) 0.5340(2)
H62_2 H 0.496601 0.778847 0.579750
C105_2 C 0.6506(2) 0.59820(19) 0.5262(3)
H63_2 H 0.625796 0.596059 0.477643
C106_2 C 0.2369(3) 0.57923(18) 0.5251(2)
H64_2 H 0.224109 0.573008 0.562863
C107_2 C 0.3059(3) 0.60023(18) 0.5359(3)
H65_2 H 0.339251 0.608200 0.581275
C110_2 C 0.6523(3) 0.61972(19) 0.6350(3)
H70_2 H 0.628166 0.632993 0.661451
C111_2 C 0.6034(2) 0.71461(18) 0.5275(3)
H71_2 H 0.647225 0.694498 0.544110
H72_2 H 0.610204 0.738187 0.561656
H73_2 H 0.598625 0.728287 0.484070
C115_2 C 0.7253(3) 0.60163(19) 0.6691(2)
H77_2 H 0.749417 0.602639 0.717752
C116_2 C 0.3148(2) 0.70714(17) 0.4579(3)
H78_2 H 0.321244 0.739341 0.452647
H79_2 H 0.293893 0.702517 0.492479
H80_2 H 0.280111 0.694612 0.413876
C120_2 C 0.4761(3) 0.56313(17) 0.5312(3)
H88_2 H 0.425640 0.550770 0.520301
H89_2 H 0.508330 0.557406 0.579571
H90_2 H 0.498247 0.548785 0.502063
In7_2 In 0.500000 1.000000 0.500000
O21 O 0.39221(14) 0.99413(9) 0.81002(14)
O23 O 0.41833(15) 0.96263(10) 0.91441(14)
C62_2 C 0.0334(2) 0.60979(14) 0.7649(2)
C63_2 C 0.3743(2) 0.97097(14) 0.8525(2)
C69_2 C 0.2960(2) 0.95118(14) 0.8275(2)
C72_2 C 0.0336(2) 0.66068(14) 0.7628(2)
C75_2 C 0.0791(2) 0.88071(16) 0.7636(2)
C78_2 C 0.1525(2) 0.90806(15) 0.7847(2)
C80_2 C 0.0213(2) 0.75663(15) 0.7541(2)
C86_2 C 0.0160(2) 0.80765(15) 0.7501(2)
C87_2 C 0.0085(2) 0.90348(15) 0.7447(2)
C88_2 C 0.0834(2) 0.83325(15) 0.7660(3)
C91_2 C 0.0446(3) 0.68666(15) 0.8208(2)
H49_2 H 0.055579 0.672337 0.863625
C93_2 C 0.0398(3) 0.73373(16) 0.8165(3)
H51_2 H 0.049330 0.750547 0.857114
C96_2 C 0.2495(2) 0.94619(18) 0.7573(2)
H54_2 H 0.265708 0.957540 0.723707
C99_2 C 0.1786(2) 0.92430(18) 0.7363(3)
H57_2 H 0.148277 0.920591 0.688711
C102_2 C 0.2691(3) 0.93535(19) 0.8759(3)
H60_2 H 0.299130 0.938763 0.923627
C108_2 C 0.0159(3) 0.68317(16) 0.6995(3)
H66_2 H 0.007707 0.666248 0.659289
C114_2 C 0.1986(3) 0.9147(2) 0.8541(3)
H76_2 H 0.181192 0.904744 0.887687
C117_2 C 0.0104(3) 0.73025(17) 0.6954(3)
C118_2 C 0.1600(3) 0.80883(17) 0.7845(3)
H82_2 H 0.152073 0.776313 0.783650
H83_2 H 0.195325 0.817950 0.830511
H84_2 H 0.180904 0.816794 0.750946
C119_2 C 0.0044(3) 0.95533(16) 0.7428(3)
H86_2 H 0.023823 0.966697 0.709834
H87_2 H 0.034978 0.967283 0.788606
O8_2 O 0.58167(15) 0.03737(10) 0.08559(14)
C2_2 C 0.9666(2) 0.39021(14) 0.2351(2)
C3_2 C 0.6257(2) 0.02903(14) 0.1475(2)
C9_2 C 0.7040(2) 0.04882(14) 0.1725(2)
C12_2 C 0.9664(2) 0.33932(14) 0.2372(2)
C15_2 C 0.9209(2) 0.11929(16) 0.2364(2)
C18_2 C 0.8475(2) 0.09194(15) 0.2153(2)
C20_2 C 0.9787(2) 0.24337(15) 0.2459(2)
C26_2 C 0.9840(2) 0.19235(15) 0.2499(2)
C27_2 C 0.9915(2) 0.09652(15) 0.2553(2)
C28_2 C 0.9166(2) 0.16675(15) 0.2340(3)
C31_2 C 0.9554(3) 0.31334(15) 0.1792(2)
H4_2 H 0.944421 0.327663 0.136375
C33_2 C 0.9602(3) 0.26627(16) 0.1835(3)
H6_2 H 0.950670 0.249453 0.142886
C36_2 C 0.7505(2) 0.05381(18) 0.2427(2)
H9_2 H 0.734292 0.042460 0.276293
C39_2 C 0.8214(2) 0.07570(18) 0.2637(3)
H12_2 H 0.851723 0.079409 0.311289
C42_2 C 0.7309(3) 0.06465(19) 0.1241(3)
H15_2 H 0.700870 0.061237 0.076373
C48_2 C 0.9841(3) 0.31683(16) 0.3005(3)
H21_2 H 0.992293 0.333752 0.340711
C54_2 C 0.8014(3) 0.0853(2) 0.1459(3)
H31_2 H 0.818808 0.095256 0.112313
C57_2 C 0.9896(3) 0.26975(17) 0.3046(3)
C58_2 C 0.8400(3) 0.19117(17) 0.2155(3)
H37_2 H 0.847927 0.223687 0.216350
H38_2 H 0.804675 0.182050 0.169489
H39_2 H 0.819096 0.183206 0.249054
C59_2 C 0.9956(3) 0.04467(16) 0.2572(3)
H41_2 H 0.976177 0.033303 0.290166
H42_2 H 0.965022 0.032717 0.211394
O2_2 O 0.46246(14) 0.01001(9) 0.58147(13)
H2_2 H 0.412214 0.002932 0.575215
O4_2 O 0.53194(16) 0.06963(9) 0.50484(12)
O5_2 O 0.50882(15) 0.04818(9) 0.92895(13)
H3_2 H 0.514040 0.079302 0.939319
O9_2 O 0.58180(16) 0.08265(9) 0.61956(14)
C4_2 C 0.8880(2) 0.45483(14) 0.5541(2)
C5_2 C 0.5568(2) 0.09616(15) 0.5571(2)
C6_2 C 0.1581(2) 0.43565(14) 0.3309(2)
C7_2 C 0.2377(2) 0.41772(14) 0.3685(2)
C10_2 C 0.5579(2) 0.14681(14) 0.5443(2)
C11_2 C 0.5478(2) 0.24071(14) 0.5209(2)
C13_2 C 0.8131(2) 0.43252(15) 0.5417(2)
C14_2 C 0.6737(2) 0.39035(15) 0.5191(2)
C16_2 C 0.4641(2) 0.35962(15) 0.4704(2)
C17_2 C 0.3861(2) 0.38126(15) 0.4371(2)
C19_2 C 0.5298(2) 0.38572(14) 0.4822(2)
C22_2 C 0.5412(2) 0.29122(14) 0.5080(2)
C23_2 C 0.4694(2) 0.31264(15) 0.4839(2)
C24_2 C 0.6073(2) 0.31677(15) 0.5186(2)
C25_2 C 0.6016(2) 0.36360(15) 0.5074(2)
C32_2 C 0.5787(3) 0.22309(15) 0.5883(2)
H5_2 H 0.596233 0.243096 0.626219
C34_2 C 0.5839(3) 0.17670(15) 0.6003(2)
H7_2 H 0.604809 0.165509 0.645954
C37_2 C 0.7926(2) 0.42407(17) 0.5969(2)
H10_2 H 0.825595 0.432470 0.642147
C38_2 C 0.5273(3) 0.16375(16) 0.4769(2)
H11_2 H 0.509501 0.143773 0.438898
C40_2 C 0.7231(3) 0.40312(17) 0.5853(3)
H13_2 H 0.709622 0.397612 0.622865
C41_2 C 0.2760(2) 0.41954(19) 0.4400(2)
H14_2 H 0.252060 0.433029 0.466452
C44_2 C 0.5233(3) 0.21007(17) 0.4660(2)
H17_2 H 0.503399 0.221153 0.420250
C45_2 C 0.3494(2) 0.40180(19) 0.4738(3)
H18_2 H 0.374204 0.403941 0.522357
C46_2 C 0.7631(3) 0.42077(18) 0.4749(2)
H19_2 H 0.775891 0.426992 0.437137
C47_2 C 0.6941(3) 0.39977(18) 0.4641(3)
H20_2 H 0.660749 0.391800 0.418725
C50_2 C 0.3477(3) 0.38028(19) 0.3650(3)
H25_2 H 0.371834 0.367007 0.338549
C51_2 C 0.3966(2) 0.28539(18) 0.4725(3)
H26_2 H 0.352775 0.305502 0.455890
H27_2 H 0.389796 0.261813 0.438344
H28_2 H 0.401375 0.271713 0.515930
C55_2 C 0.2747(3) 0.39837(19) 0.3309(2)
H32_2 H 0.250583 0.397361 0.282248
C56_2 C 0.6852(2) 0.29286(17) 0.5421(3)
H33_2 H 0.678756 0.260659 0.547353
H34_2 H 0.706107 0.297483 0.507521
H35_2 H 0.719889 0.305388 0.586124
C60_2 C 0.5239(3) 0.43687(17) 0.4688(3)
H43_2 H 0.574360 0.449230 0.479699
H44_2 H 0.491670 0.442594 0.420429
H45_2 H 0.501753 0.451215 0.497937
O1_2 O 0.50310(14) 0.99544(9) 0.73929(12)
H1_2 H 0.485521 0.965784 0.725647
O22_2 O 0.62603(15) 0.98557(10) 0.68238(14)
O25_2 O 0.61424(14) 0.97977(10) 0.57206(14)
C61_2 C 0.6493(2) 0.97304(14) 0.6370(2)
C68_2 C 0.7237(2) 0.94761(14) 0.6610(2)
C81_2 C 0.9414(2) 0.87729(15) 0.7286(2)
C89_2 C 0.9448(2) 0.82980(15) 0.7316(2)
C90_2 C 0.8654(2) 0.90138(15) 0.7059(2)
C95_2 C 0.7696(2) 0.94252(17) 0.7310(2)
H53_2 H 0.753600 0.954614 0.764256
C103_2 C 0.8393(2) 0.91967(18) 0.7529(3)
H61_2 H 0.869246 0.916635 0.800642
C109_2 C 0.8727(2) 0.80182(17) 0.7160(3)
H67_2 H 0.885495 0.769829 0.720551
H68_2 H 0.836254 0.808036 0.669103
H69_2 H 0.850388 0.809821 0.748576
C112_2 C 0.8191(3) 0.90649(18) 0.6353(3)
H74_2 H 0.835307 0.894388 0.602204
C113_2 C 0.7498(3) 0.92906(18) 0.6132(3)
H75_2 H 0.719825 0.931944 0.565454
H81_2 H 0.999108 0.744605 0.652558
H85_2 H 0.951764 0.964858 0.728893
loop_
_geom_bond_atom_site_label_1
_geom_bond_atom_site_label_2
_geom_bond_site_symmetry_1
_geom_bond_site_symmetry_2
O14 C6 1_555 1_555
O15 C6 1_555 1_555
C6 C7 1_555 1_555
C7 C41 1_555 1_555
C16 C17 1_555 1_555
C17 C45 1_555 1_555
C23 C16 1_555 1_555
C41 H14 1_555 1_555
C45 C41 1_555 1_555
C50 C17 1_555 1_555
H25 C50 1_555 1_555
C51 C23 1_555 1_555
H26 C51 1_555 1_555
H27 C51 1_555 1_555
C55 C7 1_555 1_555
H32 C55 1_555 1_555
In11 O14 1_555 1_555
In22 O15 1_555 1_555
O34 In1 1_555 1_555
O39 In1 1_555 1_555
C50 C55 1_555 1_555
In1_2 O2 1_555 1_555
H2 O2 1_555 1_555
O35 In3 1_555 1_555
O38 In3 1_555 1_555
O45 In3 1_555 1_555
In19 O35 1_555 1_555
H11 C38 1_555 1_555
H17 C44 1_555 1_555
H19 C46 1_555 1_555
H20 C47 1_555 1_555
C60 C19 1_555 1_555
H43 C60 1_555 1_555
H45 C60 1_555 1_555
O31 In1_3 1_555 1_555
C38 C44 1_555 1_555
C46 C47 1_555 1_555
In2 O1 1_555 1_555
In3_2 O5 1_555 1_555
In4 O1 1_555 1_555
O3 C4 1_555 1_555
O4 In1_4 1_555 1_555
O5 In4 1_555 1_555
H3 O5 1_555 1_555
O6 C3 1_555 1_555
O7 C1 1_555 1_555
O8 In3_2 1_555 1_555
O9 In2 1_555 1_555
O39 C1 1_555 1_555
O11 C2 1_555 1_555
O12 C2 1_555 1_555
O13 C4 1_555 1_555
C1 C8 1_555 1_555
C2 C12 1_555 1_555
C3 O8 1_555 1_555
C4 C13 1_555 1_555
C5 O4 1_555 1_555
C8 C35 1_555 1_555
C9 C3 1_555 1_555
C10 C5 1_555 1_555
C11 C22 1_555 1_555
C12 C31 1_555 1_555
C13 C37 1_555 1_555
C14 C25 1_555 1_555
C15 C18 1_555 1_555
C18 C39 1_555 1_555
C20 C26 1_555 1_555
C21 C27 1_555 1_555
C24 C22 1_555 1_555
C26 C28 1_555 1_555
C27 C15 1_555 1_555
C28 C15 1_555 1_555
C29 C21 1_555 1_555
C30 C21 1_555 1_555
C31 H4 1_555 1_555
C32 C11 1_555 1_555
H5 C32 1_555 1_555
C33 C20 1_555 1_555
H6 C33 1_555 1_555
C34 C10 1_555 1_555
H7 C34 1_555 1_555
C35 H8 1_555 1_555
C36 C9 1_555 1_555
H9 C36 1_555 1_555
C37 H10 1_555 1_555
C39 C36 1_555 1_555
H12 C39 1_555 1_555
C40 C14 1_555 1_555
H13 C40 1_555 1_555
C42 C9 1_555 1_555
H15 C42 1_555 1_555
C43 C30 1_555 1_555
H16 C43 1_555 1_555
C48 C12 1_555 1_555
H21 C48 1_555 1_555
C49 C29 1_555 1_555
H22 C49 1_555 1_555
H23 C49 1_555 1_555
H24 C49 1_555 1_555
C52 C30 1_555 1_555
H29 C52 1_555 1_555
C53 C8 1_555 1_555
H30 C53 1_555 1_555
C54 C18 1_555 1_555
H31 C54 1_555 1_555
C56 C24 1_555 1_555
H33 C56 1_555 1_555
H34 C56 1_555 1_555
H35 C56 1_555 1_555
C57 C20 1_555 1_555
H36 C57 1_555 1_555
C58 C28 1_555 1_555
H37 C58 1_555 1_555
H38 C58 1_555 1_555
H39 C58 1_555 1_555
C59 C27 1_555 1_555
H40 C59 1_555 1_555
H41 C59 1_555 1_555
H42 C59 1_555 1_555
In5 O7 1_555 1_555
In19 O16 1_555 1_555
O16 In5 1_555 1_555
O18 C64 1_555 1_555
O34 C65 1_555 1_555
H48 O35 1_555 1_555
O37 C63 1_555 1_555
O22 In2 1_555 1_555
O38 C63 1_555 1_555
O24 In5 1_555 1_555
O25 In1_4 1_555 1_555
O26 C62 1_555 1_555
O27 C62 1_555 1_555
O28 C64 1_555 1_555
C61 O22 1_555 1_555
C62 C72 1_555 1_555
C63 C69 1_555 1_555
C64 C73 1_555 1_555
C65 O24 1_555 1_555
C68 C61 1_555 1_555
C69 C96 1_555 1_555
C70 C65 1_555 1_555
C71 C82 1_555 1_555
C72 C91 1_555 1_555
C73 C97 1_555 1_555
C74 C85 1_555 1_555
C75 C78 1_555 1_555
C78 C99 1_555 1_555
C80 C86 1_555 1_555
C81 C87 1_555 1_555
C84 C82 1_555 1_555
C86 C88 1_555 1_555
C87 C75 1_555 1_555
C88 C75 1_555 1_555
C89 C81 1_555 1_555
C90 C81 1_555 1_555
C91 H49 1_555 1_555
C92 C71 1_555 1_555
H50 C92 1_555 1_555
C93 C80 1_555 1_555
H51 C93 1_555 1_555
C94 C70 1_555 1_555
H52 C94 1_555 1_555
C95 C68 1_555 1_555
H53 C95 1_555 1_555
C96 H54 1_555 1_555
C97 H55 1_555 1_555
C99 C96 1_555 1_555
H57 C99 1_555 1_555
C100 C74 1_555 1_555
H58 C100 1_555 1_555
C102 C69 1_555 1_555
H60 C102 1_555 1_555
C103 C90 1_555 1_555
H61 C103 1_555 1_555
C108 C72 1_555 1_555
H66 C108 1_555 1_555
C109 C89 1_555 1_555
H67 C109 1_555 1_555
H68 C109 1_555 1_555
H69 C109 1_555 1_555
C112 C90 1_555 1_555
H74 C112 1_555 1_555
C113 C68 1_555 1_555
H75 C113 1_555 1_555
C114 C78 1_555 1_555
H76 C114 1_555 1_555
C116 C84 1_555 1_555
H78 C116 1_555 1_555
H79 C116 1_555 1_555
H80 C116 1_555 1_555
C117 C80 1_555 1_555
H81 C117 1_555 1_555
C118 C88 1_555 1_555
H82 C118 1_555 1_555
H83 C118 1_555 1_555
H84 C118 1_555 1_555
C119 C87 1_555 1_555
H85 C119 1_555 1_555
H86 C119 1_555 1_555
H87 C119 1_555 1_555
In9 O26 1_555 1_555
In11 O11 1_555 1_555
In14 O28 1_555 1_555
In14_4 O13 1_555 1_555
In18 O27 1_555 1_555
In22 O12 1_555 1_555
O32 In4 1_555 1_555
O33 In19 1_555 1_555
O44 In3_2 1_555 1_555
O46 In5 1_555 1_555
O47 In2 1_555 1_555
O48 In19 1_555 1_555
O49 In4 1_555 1_555
O9 C5 1_555 1_555
C24 C25 1_555 1_555
C26 C29 1_555 1_555
C31 C33 1_555 1_555
C32 C34 1_555 1_555
C35 C43 1_555 1_555
C37 C40 1_555 1_555
C42 C54 1_555 1_555
C48 C57 1_555 1_555
C52 C53 1_555 1_555
O25 C61 1_555 1_555
C84 C85 1_555 1_555
C86 C89 1_555 1_555
C91 C93 1_555 1_555
C92 C94 1_555 1_555
C95 C103 1_555 1_555
C97 C100 1_555 1_555
C102 C114 1_555 1_555
C108 C117 1_555 1_555
C112 C113 1_555 1_555
H56 C98 1_555 1_555
H62 C104 1_555 1_555
H64 C106 1_555 1_555
H65 C107 1_555 1_555
C120 C79 1_555 1_555
H88 C120 1_555 1_555
H90 C120 1_555 1_555
C98 C104 1_555 1_555
C106 C107 1_555 1_555
H47 O31 1_555 1_555
O29 C66 1_555 1_555
O30 C66 1_555 1_555
C66 C67 1_555 1_555
C67 C101 1_555 1_555
C76 C77 1_555 1_555
C77 C105 1_555 1_555
C83 C76 1_555 1_555
C101 H59 1_555 1_555
C105 C101 1_555 1_555
C110 C77 1_555 1_555
H70 C110 1_555 1_555
C111 C83 1_555 1_555
H71 C111 1_555 1_555
H72 C111 1_555 1_555
C115 C67 1_555 1_555
H77 C115 1_555 1_555
In9 O29 1_555 1_555
In18 O30 1_555 1_555
C110 C115 1_555 1_555
O7_2 C1_2 1_555 1_555
O10 C1_2 1_555 1_555
C1_2 C8_2 1_555 1_555
C8_2 C35_2 1_555 1_555
C29_2 C21_2 1_555 1_555
C30_2 C21_2 1_555 1_555
C35_2 H8_2 1_555 1_555
C43_2 C30_2 1_555 1_555
H16_2 C43_2 1_555 1_555
C49_2 C29_2 1_555 1_555
H22_2 C49_2 1_555 1_555
H23_2 C49_2 1_555 1_555
H24_2 C49_2 1_555 1_555
C52_2 C30_2 1_555 1_555
H29_2 C52_2 1_555 1_555
C53_2 C8_2 1_555 1_555
H30_2 C53_2 1_555 1_555
H46_2 O16_2 1_555 1_555
In7 O10 1_555 1_555
C35_2 C43_2 1_555 1_555
C52_2 C53_2 1_555 1_555
O17 In11 1_555 1_555
H47_2 O17 1_555 1_555
O33 C64_2 1_555 1_555
O19 C65_2 1_555 1_555
O20 In22 1_555 1_555
H48_2 O20 1_555 1_555
O24_2 In11 1_555 1_555
O45 C64_2 1_555 1_555
O47 C66_2 1_555 1_555
O49 C66_2 1_555 1_555
C64_2 C73_2 1_555 1_555
C65_2 O24_2 1_555 1_555
C66_2 C67_2 1_555 1_555
C67_2 C101_2 1_555 1_555
C70_2 C65_2 1_555 1_555
C71_2 C82_2 1_555 1_555
C73_2 C97_2 1_555 1_555
C74_2 C85_2 1_555 1_555
C76_2 C77_2 1_555 1_555
C77_2 C105_2 1_555 1_555
C79_2 C76_2 1_555 1_555
C82_2 C83_2 1_555 1_555
C83_2 C76_2 1_555 1_555
C84_2 C82_2 1_555 1_555
C85_2 C79_2 1_555 1_555
C92_2 C71_2 1_555 1_555
H50_2 C92_2 1_555 1_555
C94_2 C70_2 1_555 1_555
H52_2 C94_2 1_555 1_555
C97_2 H55_2 1_555 1_555
C98_2 C70_2 1_555 1_555
H56_2 C98_2 1_555 1_555
C100_2 C74_2 1_555 1_555
H58_2 C100_2 1_555 1_555
C101_2 H59_2 1_555 1_555
C104_2 C71_2 1_555 1_555
H62_2 C104_2 1_555 1_555
C105_2 C101_2 1_555 1_555
H63_2 C105_2 1_555 1_555
C106_2 C73_2 1_555 1_555
H64_2 C106_2 1_555 1_555
C107_2 C74_2 1_555 1_555
H65_2 C107_2 1_555 1_555
C110_2 C77_2 1_555 1_555
H70_2 C110_2 1_555 1_555
C111_2 C83_2 1_555 1_555
H71_2 C111_2 1_555 1_555
H72_2 C111_2 1_555 1_555
H73_2 C111_2 1_555 1_555
C115_2 C67_2 1_555 1_555
H77_2 C115_2 1_555 1_555
C116_2 C84_2 1_555 1_555
H78_2 C116_2 1_555 1_555
H79_2 C116_2 1_555 1_555
H80_2 C116_2 1_555 1_555
C120_2 C79_2 1_555 1_555
H88_2 C120_2 1_555 1_555
H89_2 C120_2 1_555 1_555
H90_2 C120_2 1_555 1_555
In14_3 O20 1_555 1_555
O17 In7_2 1_555 1_555
O19 In7_2 1_555 1_555
C84_2 C85_2 1_555 1_555
C92_2 C94_2 1_555 1_555
C97_2 C100_2 1_555 1_555
C98_2 C104_2 1_555 1_555
C106_2 C107_2 1_555 1_555
C110_2 C115_2 1_555 1_555
O21 C63_2 1_555 1_555
O23 C63_2 1_555 1_555
O41 C62_2 1_555 1_555
O43 C62_2 1_555 1_555
C62_2 C72_2 1_555 1_555
C63_2 C69_2 1_555 1_555
C69_2 C96_2 1_555 1_555
C72_2 C91_2 1_555 1_555
C75_2 C78_2 1_555 1_555
C78_2 C99_2 1_555 1_555
C80_2 C86_2 1_555 1_555
C86_2 C88_2 1_555 1_555
C87_2 C75_2 1_555 1_555
C88_2 C75_2 1_555 1_555
C91_2 H49_2 1_555 1_555
C93_2 C80_2 1_555 1_555
H51_2 C93_2 1_555 1_555
C96_2 H54_2 1_555 1_555
C99_2 C96_2 1_555 1_555
H57_2 C99_2 1_555 1_555
C102_2 C69_2 1_555 1_555
H60_2 C102_2 1_555 1_555
C108_2 C72_2 1_555 1_555
H66_2 C108_2 1_555 1_555
C114_2 C78_2 1_555 1_555
H76_2 C114_2 1_555 1_555
C117_2 C80_2 1_555 1_555
C118_2 C88_2 1_555 1_555
H82_2 C118_2 1_555 1_555
H83_2 C118_2 1_555 1_555
H84_2 C118_2 1_555 1_555
C119_2 C87_2 1_555 1_555
H86_2 C119_2 1_555 1_555
H87_2 C119_2 1_555 1_555
O23 In14_4 1_555 1_555
C91_2 C93_2 1_555 1_555
C102_2 C114_2 1_555 1_555
C108_2 C117_2 1_555 1_555
O36 C3_2 1_555 1_555
O8_2 In14 1_555 1_555
O40 C2_2 1_555 1_555
O42 C2_2 1_555 1_555
C2_2 C12_2 1_555 1_555
C3_2 O8_2 1_555 1_555
C9_2 C3_2 1_555 1_555
C12_2 C31_2 1_555 1_555
C15_2 C18_2 1_555 1_555
C18_2 C39_2 1_555 1_555
C20_2 C26_2 1_555 1_555
C26_2 C28_2 1_555 1_555
C27_2 C15_2 1_555 1_555
C28_2 C15_2 1_555 1_555
C31_2 H4_2 1_555 1_555
C33_2 C20_2 1_555 1_555
H6_2 C33_2 1_555 1_555
C36_2 C9_2 1_555 1_555
H9_2 C36_2 1_555 1_555
C39_2 C36_2 1_555 1_555
H12_2 C39_2 1_555 1_555
C42_2 C9_2 1_555 1_555
H15_2 C42_2 1_555 1_555
C48_2 C12_2 1_555 1_555
H21_2 C48_2 1_555 1_555
C54_2 C18_2 1_555 1_555
H31_2 C54_2 1_555 1_555
C57_2 C20_2 1_555 1_555
C58_2 C28_2 1_555 1_555
H37_2 C58_2 1_555 1_555
H38_2 C58_2 1_555 1_555
H39_2 C58_2 1_555 1_555
C59_2 C27_2 1_555 1_555
H41_2 C59_2 1_555 1_555
H42_2 C59_2 1_555 1_555
C31_2 C33_2 1_555 1_555
C42_2 C54_2 1_555 1_555
C48_2 C57_2 1_555 1_555
In7 O2_2 1_555 1_555
In14_2 O5_2 1_555 1_555
O2_2 In9 1_555 1_555
H2_2 O2_2 1_555 1_555
O32 C4_2 1_555 1_555
O4_2 In7 1_555 1_555
O5_2 In18 1_555 1_555
H3_2 O5_2 1_555 1_555
O9_2 In9 1_555 1_555
O44 C4_2 1_555 1_555
O46 C6_2 1_555 1_555
O48 C6_2 1_555 1_555
C4_2 C13_2 1_555 1_555
C5_2 O4_2 1_555 1_555
C6_2 C7_2 1_555 1_555
C7_2 C41_2 1_555 1_555
C10_2 C5_2 1_555 1_555
C11_2 C22_2 1_555 1_555
C13_2 C37_2 1_555 1_555
C14_2 C25_2 1_555 1_555
C16_2 C17_2 1_555 1_555
C17_2 C45_2 1_555 1_555
C19_2 C16_2 1_555 1_555
C22_2 C23_2 1_555 1_555
C23_2 C16_2 1_555 1_555
C24_2 C22_2 1_555 1_555
C25_2 C19_2 1_555 1_555
C32_2 C11_2 1_555 1_555
H5_2 C32_2 1_555 1_555
C34_2 C10_2 1_555 1_555
H7_2 C34_2 1_555 1_555
C37_2 H10_2 1_555 1_555
C38_2 C10_2 1_555 1_555
H11_2 C38_2 1_555 1_555
C40_2 C14_2 1_555 1_555
H13_2 C40_2 1_555 1_555
C41_2 H14_2 1_555 1_555
C44_2 C11_2 1_555 1_555
H17_2 C44_2 1_555 1_555
C45_2 C41_2 1_555 1_555
H18_2 C45_2 1_555 1_555
C46_2 C13_2 1_555 1_555
H19_2 C46_2 1_555 1_555
C47_2 C14_2 1_555 1_555
H20_2 C47_2 1_555 1_555
C50_2 C17_2 1_555 1_555
H25_2 C50_2 1_555 1_555
C51_2 C23_2 1_555 1_555
H26_2 C51_2 1_555 1_555
H27_2 C51_2 1_555 1_555
H28_2 C51_2 1_555 1_555
C55_2 C7_2 1_555 1_555
H32_2 C55_2 1_555 1_555
C56_2 C24_2 1_555 1_555
H33_2 C56_2 1_555 1_555
H34_2 C56_2 1_555 1_555
H35_2 C56_2 1_555 1_555
C60_2 C19_2 1_555 1_555
H43_2 C60_2 1_555 1_555
H44_2 C60_2 1_555 1_555
H45_2 C60_2 1_555 1_555
O9_2 C5_2 1_555 1_555
C24_2 C25_2 1_555 1_555
C32_2 C34_2 1_555 1_555
C37_2 C40_2 1_555 1_555
C38_2 C44_2 1_555 1_555
C46_2 C47_2 1_555 1_555
C50_2 C55_2 1_555 1_555
O1_2 H1_2 1_555 1_555
O25_2 In7_2 1_555 1_555
C61_2 O22_2 1_555 1_555
C68_2 C61_2 1_555 1_555
C89_2 C81_2 1_555 1_555
C90_2 C81_2 1_555 1_555
C95_2 C68_2 1_555 1_555
H53_2 C95_2 1_555 1_555
C103_2 C90_2 1_555 1_555
H61_2 C103_2 1_555 1_555
C109_2 C89_2 1_555 1_555
H67_2 C109_2 1_555 1_555
H68_2 C109_2 1_555 1_555
H69_2 C109_2 1_555 1_555
C112_2 C90_2 1_555 1_555
H74_2 C112_2 1_555 1_555
C113_2 C68_2 1_555 1_555
H75_2 C113_2 1_555 1_555
O25_2 C61_2 1_555 1_555
C95_2 C103_2 1_555 1_555
C112_2 C113_2 1_555 1_555

#END
