
###############################################################################
#
# This file contains modified crystal structure data generated from the
# MOF subset of the Cambridge Structural Database (CSD) v543 
# hosted by the Cambridge Crystallographic Data Centre (CCDC).
#
# This work is licensed under the Creative Commons
# Attribution-NonCommercial-ShareAlike 4.0 International License.
# To view a copy of this license, visit
# http://creativecommons.org/licenses/by-nc-sa/4.0/
# or send a letter to
# Creative Commons, PO Box 1866, Mountain View, CA 94042, USA.
#
# CIF created using the CSD Python API on 29 September 2022
# The structure has been converted into the P1 space group
# The structure has a 3D framework
# The original CSD entry FUNBAS is in the monoclinic crystal system
# The original CSD entry FUNBAS is in a Sohncke space group
# The framework has been calculated to contain at least 10.0% void space
# The void calculation uses a probe of radius 1.32A, grid spacing 0.4
#
###############################################################################

data_FUNBAS
_chemical_formula_moiety         '(C88 H52 N4 O16 Zn2)n'
_symmetry_cell_setting           triclinic
_symmetry_space_group_name_H-M   'P 1'
_symmetry_Int_Tables_number      1
_space_group_name_Hall           'P 1'
loop_
_symmetry_equiv_pos_site_id
_symmetry_equiv_pos_as_xyz
1 x,y,z
_cell_length_a                   14.008(3)
_cell_length_b                   11.5210(13)
_cell_length_c                   15.701(3)
_cell_angle_alpha                90
_cell_angle_beta                 96.679(10)
_cell_angle_gamma                90
_cell_volume                     2516.73
loop_
_atom_site_label
_atom_site_type_symbol
_atom_site_fract_x
_atom_site_fract_y
_atom_site_fract_z
H21 H 0.2612 0.0826 0.0014
O13 O 0.636(2) 0.0167(18) 0.0953(14)
O14 O 0.784(2) 0.0166(19) 0.1123(15)
C35 C 0.295(3) 0.011(3) 0.9973(19)
H22 H 0.4351 0.0672 0.9790
H26 H 0.1214 0.0590 0.9262
O11 O 0.7653(19) 0.0088(19) 0.9146(14)
O12 O 0.610(2) 0.014(2) 0.8988(15)
Zn1 Zn 0.8043(3) 0.9048(5) 0.01692(19)
H19 H 0.4322 0.7279 0.0088
C38 C 0.111(3) 0.804(3) 0.023(2)
H23 H 0.1478 0.7350 0.0276
O9 O 0.624(2) 0.7680(19) 0.0803(15)
O10 O 0.791(2) 0.7662(18) 0.0964(14)
N3 N 0.9447(18) 0.906(3) 0.0143(15)
Zn2 Zn 0.5954(3) 0.9044(4) 0.9979(2)
O1 O 0.615(2) 0.7710(19) 0.9138(15)
O2 O 0.7768(19) 0.7709(17) 0.9326(14)
N1 N 0.4501(15) 0.903(3) 0.9938(14)
C1 C 0.687(3) 0.760(3) 0.886(2)
C2 C 0.6910(16) 0.6693(15) 0.8100(11)
C3 C 0.7690(14) 0.5967(17) 0.8031(11)
H1 H 0.8201 0.5931 0.8484
C4 C 0.7721(14) 0.5294(16) 0.7300(13)
H2 H 0.8254 0.4798 0.7253
C5 C 0.6973(17) 0.5348(17) 0.6637(10)
C6 C 0.6193(14) 0.6073(19) 0.6706(12)
H3 H 0.5681 0.6110 0.6253
C7 C 0.6161(13) 0.6746(16) 0.7437(14)
H4 H 0.5628 0.7242 0.7484
C8 C 0.719(3) 0.468(3) 0.585(2)
C9 C 0.698(3) 0.351(3) 0.589(2)
C10 C 0.708(3) 0.286(3) 0.507(2)
H5 H 0.7034 0.2036 0.5044
C11 C 0.725(3) 0.350(3) 0.434(2)
C12 C 0.705(3) 0.475(3) 0.431(2)
C13 C 0.716(3) 0.519(3) 0.513(2)
H6 H 0.7224 0.6009 0.5166
C14 C 0.712(3) 0.273(3) 0.350(2)
C15 C 0.638(3) 0.196(3) 0.328(2)
H7 H 0.5875 0.1895 0.3633
C16 C 0.639(3) 0.126(3) 0.252(2)
H8 H 0.5879 0.0735 0.2340
C17 C 0.714(3) 0.138(3) 0.211(2)
C18 C 0.784(3) 0.223(3) 0.230(2)
H9 H 0.8323 0.2355 0.1928
C19 C 0.784(3) 0.286(3) 0.299(2)
H10 H 0.8343 0.3400 0.3146
C20 C 0.707(3) 0.268(3) 0.667(2)
C21 C 0.779(3) 0.201(3) 0.699(2)
H11 H 0.8358 0.1984 0.6720
C22 C 0.773(3) 0.140(3) 0.765(2)
H12 H 0.8298 0.1014 0.7897
C23 C 0.696(3) 0.126(3) 0.803(2)
C24 C 0.623(3) 0.217(3) 0.780(2)
H13 H 0.5715 0.2283 0.8136
C25 C 0.632(3) 0.284(3) 0.708(2)
H14 H 0.5844 0.3405 0.6893
C26 C 0.724(3) 0.536(3) 0.353(2)
C27 C 0.785(3) 0.614(3) 0.343(2)
H15 H 0.8322 0.6316 0.3903
C28 C 0.788(3) 0.672(3) 0.271(2)
H16 H 0.8453 0.7128 0.2640
C29 C 0.703(3) 0.681(3) 0.194(2)
C30 C 0.637(3) 0.601(3) 0.212(2)
H17 H 0.5803 0.5956 0.1727
C31 C 0.644(3) 0.526(3) 0.281(2)
H18 H 0.5972 0.4663 0.2828
C32 C 0.399(3) 0.799(3) 0.9981(18)
C33 C 0.315(2) 0.803(3) 0.988(2)
H20 H 0.2832 0.7322 0.9715
C34 C 0.255(2) 0.899(3) 0.9977(16)
C36 C 0.401(3) 0.998(3) 0.989(2)
C37 C 0.148(2) 0.915(4) 0.999(2)
C41 C 0.098(3) 0.999(3) 0.960(2)
C42 C 0.704(3) 0.754(3) 0.131(2)
C43 C 0.694(3) 0.063(3) 0.884(2)
C44 C 0.717(3) 0.054(3) 0.125(2)
C39 C 0.994(3) 0.810(3) 0.043(2)
H24 H 0.9648 0.7490 0.0714
H25 H 0.9612 0.0480 0.9625
C40 C 0.999(3) 0.982(3) 0.980(2)
C40_2 C 0.001(3) 0.482(3) 0.020(2)
H25_2 H 0.0388 0.5480 0.0375
N2 N 0.0553(18) 0.406(3) 0.9857(15)
C39_2 C 0.006(3) 0.310(3) 0.957(2)
H24_2 H 0.0352 0.2490 0.9286
Zn3 Zn 0.1957(3) 0.4048(5) 0.98308(19)
Zn9 Zn 0.4046(3) 0.4044(4) 0.0021(2)
O1_2 O 0.385(2) 0.2710(19) 0.0862(15)
O2_2 O 0.2232(19) 0.2709(17) 0.0674(14)
O3 O 0.376(2) 0.2680(19) 0.9197(15)
O4 O 0.209(2) 0.2662(18) 0.9036(14)
N1_2 N 0.5499(15) 0.403(3) 0.0062(14)
C1_2 C 0.313(3) 0.260(3) 0.114(2)
C2_2 C 0.3090(16) 0.1693(15) 0.1900(11)
C3_2 C 0.2310(14) 0.0967(17) 0.1969(11)
H1_2 H 0.1799 0.0931 0.1516
C4_2 C 0.2279(14) 0.0294(16) 0.2700(13)
C5_2 C 0.3027(17) 0.0348(17) 0.3363(10)
C6_2 C 0.3807(14) 0.1073(19) 0.3294(12)
H3_2 H 0.4319 0.1110 0.3747
C7_2 C 0.3839(13) 0.1746(16) 0.2563(14)
H4_2 H 0.4372 0.2242 0.2516
C13_2 C 0.284(3) 0.019(3) 0.487(2)
H6_2 H 0.2776 0.1009 0.4834
C26_2 C 0.276(3) 0.036(3) 0.647(2)
C27_2 C 0.215(3) 0.114(3) 0.657(2)
H15_2 H 0.1678 0.1316 0.6097
C28_2 C 0.212(3) 0.172(3) 0.729(2)
H16_2 H 0.1547 0.2128 0.7360
C29_2 C 0.297(3) 0.181(3) 0.806(2)
C30_2 C 0.363(3) 0.101(3) 0.788(2)
H17_2 H 0.4197 0.0956 0.8273
C31_2 C 0.356(3) 0.026(3) 0.719(2)
C32_2 C 0.601(3) 0.299(3) 0.0019(18)
C33_2 C 0.685(2) 0.303(3) 0.012(2)
H20_2 H 0.7168 0.2322 0.0285
C34_2 C 0.745(2) 0.399(3) 0.0023(16)
C35_2 C 0.705(3) 0.511(3) 0.0027(19)
C36_2 C 0.599(3) 0.498(3) 0.011(2)
H22_2 H 0.5649 0.5672 0.0210
C37_2 C 0.852(2) 0.415(4) 0.001(2)
C41_2 C 0.902(3) 0.499(3) 0.040(2)
H26_2 H 0.8786 0.5590 0.0738
C42_2 C 0.296(3) 0.254(3) 0.869(2)
O11_2 O 0.2347(19) 0.5088(19) 0.0854(14)
O12_2 O 0.390(2) 0.514(2) 0.1012(15)
H19_2 H 0.5678 0.2279 0.9912
H21_2 H 0.7388 0.5826 0.9986
C38_2 C 0.889(3) 0.304(3) 0.977(2)
H23_2 H 0.8522 0.2350 0.9724
O13_2 O 0.364(2) 0.5167(18) 0.9047(14)
O14_2 O 0.216(2) 0.5166(19) 0.8877(15)
H2_2 H 0.1746 0.9798 0.2747
C8_2 C 0.281(3) 0.968(3) 0.415(2)
C9_2 C 0.302(3) 0.851(3) 0.411(2)
C10_2 C 0.292(3) 0.786(3) 0.493(2)
H5_2 H 0.2966 0.7036 0.4956
C11_2 C 0.275(3) 0.850(3) 0.566(2)
C12_2 C 0.295(3) 0.975(3) 0.569(2)
C14_2 C 0.288(3) 0.773(3) 0.650(2)
C15_2 C 0.362(3) 0.696(3) 0.672(2)
H7_2 H 0.4125 0.6895 0.6367
C16_2 C 0.361(3) 0.626(3) 0.748(2)
H8_2 H 0.4121 0.5735 0.7660
C17_2 C 0.286(3) 0.638(3) 0.789(2)
C18_2 C 0.216(3) 0.723(3) 0.770(2)
H9_2 H 0.1677 0.7355 0.8072
C19_2 C 0.216(3) 0.786(3) 0.701(2)
H10_2 H 0.1657 0.8400 0.6854
C20_2 C 0.293(3) 0.768(3) 0.333(2)
C21_2 C 0.221(3) 0.701(3) 0.301(2)
H11_2 H 0.1642 0.6984 0.3280
C22_2 C 0.227(3) 0.640(3) 0.235(2)
H12_2 H 0.1702 0.6014 0.2103
C23_2 C 0.304(3) 0.626(3) 0.197(2)
C24_2 C 0.377(3) 0.717(3) 0.220(2)
H13_2 H 0.4285 0.7283 0.1864
C25_2 C 0.368(3) 0.784(3) 0.292(2)
H14_2 H 0.4156 0.8405 0.3107
H18_2 H 0.4028 0.9663 0.7172
C43_2 C 0.306(3) 0.563(3) 0.116(2)
C44_2 C 0.283(3) 0.554(3) 0.875(2)
loop_
_geom_bond_atom_site_label_1
_geom_bond_atom_site_label_2
_geom_bond_site_symmetry_1
_geom_bond_site_symmetry_2
H23 C38 1_555 1_555
O10 Zn1 1_555 1_555
N3 Zn1 1_555 1_555
Zn2 O1 1_555 1_555
O1 C1 1_555 1_555
O2 C1 1_555 1_555
O9 C42 1_555 1_555
O10 C42 1_555 1_555
O11 C43 1_555 1_555
O12 C43 1_555 1_555
O13 C44 1_555 1_555
O14 C44 1_555 1_555
N1 Zn2 1_555 1_555
C1 C2 1_555 1_555
C2 C3 1_555 1_555
C3 H1 1_555 1_555
C4 C3 1_555 1_555
H2 C4 1_555 1_555
C5 C4 1_555 1_555
C6 C5 1_555 1_555
H3 C6 1_555 1_555
C7 C2 1_555 1_555
H4 C7 1_555 1_555
C8 C5 1_555 1_555
C9 C8 1_555 1_555
C10 C9 1_555 1_555
H5 C10 1_555 1_555
C11 C10 1_555 1_555
C12 C11 1_555 1_555
C13 C8 1_555 1_555
H6 C13 1_555 1_555
C14 C11 1_555 1_555
C15 C14 1_555 1_555
H7 C15 1_555 1_555
C16 C15 1_555 1_555
H8 C16 1_555 1_555
C17 C16 1_555 1_555
C18 C17 1_555 1_555
H9 C18 1_555 1_555
C19 C14 1_555 1_555
H10 C19 1_555 1_555
C20 C9 1_555 1_555
C21 C20 1_555 1_555
H11 C21 1_555 1_555
C22 C21 1_555 1_555
H12 C22 1_555 1_555
C23 C22 1_555 1_555
C24 C23 1_555 1_555
H13 C24 1_555 1_555
C25 C20 1_555 1_555
H14 C25 1_555 1_555
C26 C12 1_555 1_555
C27 C26 1_555 1_555
H15 C27 1_555 1_555
C28 C27 1_555 1_555
H16 C28 1_555 1_555
C29 C28 1_555 1_555
C30 C29 1_555 1_555
H17 C30 1_555 1_555
C31 C26 1_555 1_555
H18 C31 1_555 1_555
C32 N1 1_555 1_555
C33 C32 1_555 1_555
H20 C33 1_555 1_555
C34 C33 1_555 1_555
C36 N1 1_555 1_555
C37 C34 1_555 1_555
C41 C37 1_555 1_555
C42 C29 1_555 1_555
C43 C23 1_555 1_555
C44 C17 1_555 1_555
C6 C7 1_555 1_555
C12 C13 1_555 1_555
C18 C19 1_555 1_555
C24 C25 1_555 1_555
C30 C31 1_555 1_555
N3 C39 1_555 1_555
H24 C39 1_555 1_555
H25_2 C40_2 1_555 1_555
N2 C39_2 1_555 1_555
H24_2 C39_2 1_555 1_555
Zn3 N2 1_555 1_555
Zn9 O1_2 1_555 1_555
O1_2 C1_2 1_555 1_555
O2_2 C1_2 1_555 1_555
O3 C42_2 1_555 1_555
O4 C42_2 1_555 1_555
N1_2 Zn9 1_555 1_555
C1_2 C2_2 1_555 1_555
C2_2 C3_2 1_555 1_555
C3_2 H1_2 1_555 1_555
C4_2 C3_2 1_555 1_555
C5_2 C4_2 1_555 1_555
C6_2 C5_2 1_555 1_555
H3_2 C6_2 1_555 1_555
C7_2 C2_2 1_555 1_555
H4_2 C7_2 1_555 1_555
H6_2 C13_2 1_555 1_555
C27_2 C26_2 1_555 1_555
H15_2 C27_2 1_555 1_555
C28_2 C27_2 1_555 1_555
H16_2 C28_2 1_555 1_555
C29_2 C28_2 1_555 1_555
C30_2 C29_2 1_555 1_555
H17_2 C30_2 1_555 1_555
C31_2 C26_2 1_555 1_555
C32_2 N1_2 1_555 1_555
C33_2 C32_2 1_555 1_555
H20_2 C33_2 1_555 1_555
C34_2 C33_2 1_555 1_555
C35_2 C34_2 1_555 1_555
C36_2 N1_2 1_555 1_555
H22_2 C36_2 1_555 1_555
C37_2 C34_2 1_555 1_555
C41_2 C37_2 1_555 1_555
H26_2 C41_2 1_555 1_555
C42_2 C29_2 1_555 1_555
Zn3 O4 1_555 1_555
O12_2 Zn9 1_555 1_555
C6_2 C7_2 1_555 1_555
C30_2 C31_2 1_555 1_555
C35_2 C36_2 1_555 1_555
H23_2 C38_2 1_555 1_555
O14_2 Zn3 1_555 1_555
O11_2 C43_2 1_555 1_555
O12_2 C43_2 1_555 1_555
O13_2 C44_2 1_555 1_555
O14_2 C44_2 1_555 1_555
C9_2 C8_2 1_555 1_555
C10_2 C9_2 1_555 1_555
H5_2 C10_2 1_555 1_555
C11_2 C10_2 1_555 1_555
C12_2 C11_2 1_555 1_555
C14_2 C11_2 1_555 1_555
C15_2 C14_2 1_555 1_555
H7_2 C15_2 1_555 1_555
C16_2 C15_2 1_555 1_555
H8_2 C16_2 1_555 1_555
C17_2 C16_2 1_555 1_555
C18_2 C17_2 1_555 1_555
H9_2 C18_2 1_555 1_555
C19_2 C14_2 1_555 1_555
H10_2 C19_2 1_555 1_555
C20_2 C9_2 1_555 1_555
C21_2 C20_2 1_555 1_555
H11_2 C21_2 1_555 1_555
C22_2 C21_2 1_555 1_555
H12_2 C22_2 1_555 1_555
C23_2 C22_2 1_555 1_555
C24_2 C23_2 1_555 1_555
H13_2 C24_2 1_555 1_555
C25_2 C20_2 1_555 1_555
H14_2 C25_2 1_555 1_555
C43_2 C23_2 1_555 1_555
C44_2 C17_2 1_555 1_555
C18_2 C19_2 1_555 1_555
C24_2 C25_2 1_555 1_555

#END
