
###############################################################################
#
# This file contains modified crystal structure data generated from the
# MOF subset of the Cambridge Structural Database (CSD) v543 
# hosted by the Cambridge Crystallographic Data Centre (CCDC).
#
# This work is licensed under the Creative Commons
# Attribution-NonCommercial-ShareAlike 4.0 International License.
# To view a copy of this license, visit
# http://creativecommons.org/licenses/by-nc-sa/4.0/
# or send a letter to
# Creative Commons, PO Box 1866, Mountain View, CA 94042, USA.
#
# CIF created using the CSD Python API on 29 September 2022
# The structure has been converted into the P1 space group
# The structure has a 3D framework
# The original CSD entry FUNBOG is in the monoclinic crystal system
# The framework has been calculated to contain at least 10.0% void space
# The void calculation uses a probe of radius 1.32A, grid spacing 0.4
#
###############################################################################

data_FUNBOG
_chemical_formula_moiety         '(C46 H24 Br4 N4 O8 Zn2)n'
_symmetry_cell_setting           triclinic
_symmetry_space_group_name_H-M   'P 1'
_symmetry_Int_Tables_number      1
_space_group_name_Hall           'P 1'
loop_
_symmetry_equiv_pos_site_id
_symmetry_equiv_pos_as_xyz
1 x,y,z
_cell_length_a                   11.7110(16)
_cell_length_b                   15.6181(12)
_cell_length_c                   16.0362(19)
_cell_angle_alpha                90
_cell_angle_beta                 90.205(10)
_cell_angle_gamma                90
_cell_volume                     2933.06
loop_
_atom_site_label
_atom_site_type_symbol
_atom_site_fract_x
_atom_site_fract_y
_atom_site_fract_z
Zn7 Zn 0.50004(6) 0.5000 0.40815(4)
Zn8 Zn 0.49996(6) 0.5000 0.59185(4)
Br2 Br 0.27925(7) 0.0000 0.50022(10)
O5 O 0.3823(3) 0.4087(2) 0.4300(2)
O12 O 0.3805(3) 0.4097(2) 0.5701(2)
C15 C 0.1034(4) 0.0000 0.5033(5)
C18 C 0.2649(4) 0.3070(3) 0.5007(3)
C19 C 0.0614(4) 0.0787(3) 0.5006(3)
C24 C 0.1617(5) 0.1976(3) 0.4263(4)
H11 H 0.1409 0.1722 0.3760
C27 C 0.2279(5) 0.2711(3) 0.5739(4)
H14 H 0.2484 0.2964 0.6242
C30 C 0.2280(5) 0.2711(3) 0.4248(3)
H17 H 0.2478 0.2963 0.3744
C33 C 0.1258(4) 0.1609(3) 0.5001(4)
C36 C 0.3459(4) 0.3817(2) 0.5007(3)
C39 C 0.1602(5) 0.1971(3) 0.5746(4)
H20 H 0.1386 0.1726 0.6250
Br2_2 Br 0.27925(7) 1.0000 0.50022(10)
O3 O 0.3823(3) 0.5913(2) 0.4300(2)
O8 O 0.6177(3) 0.5913(2) 0.5700(2)
O9 O 0.6177(3) 0.4087(2) 0.5700(2)
O10 O 0.3805(3) 0.5903(2) 0.5701(2)
N4 N 0.5002(5) 0.5000 0.7169(4)
C15_2 C 0.1034(4) 1.0000 0.5033(5)
C16 C 0.2649(4) 0.6930(3) 0.5007(3)
C20 C 0.0614(4) 0.9213(3) 0.5006(3)
C22 C 0.1617(5) 0.8024(3) 0.4263(4)
H9 H 0.1409 0.8278 0.3760
C25 C 0.2279(5) 0.7289(3) 0.5739(4)
H12 H 0.2484 0.7036 0.6242
C28 C 0.2280(5) 0.7289(3) 0.4248(3)
H15 H 0.2478 0.7037 0.3744
C31 C 0.1258(4) 0.8391(3) 0.5001(4)
C34 C 0.3459(4) 0.6183(2) 0.5007(3)
C37 C 0.1602(5) 0.8029(3) 0.5746(4)
H18 H 0.1386 0.8274 0.6250
Br1 Br 0.72075(7) 0.0000 0.49978(10)
O2 O 0.6195(3) 0.4097(2) 0.4299(2)
N1 N 0.4998(5) 0.5000 0.2831(4)
N2 N 0.4533(6) 0.5000 0.0179(6)
C1 C 0.8966(4) 0.0000 0.4967(5)
C2 C 0.7351(4) 0.3070(3) 0.4993(3)
C3 C 0.9386(4) 0.0787(3) 0.4994(3)
C4 C 0.8383(5) 0.1976(3) 0.5737(4)
H1 H 0.8591 0.1722 0.6240
C5 C 0.7721(5) 0.2711(3) 0.4261(4)
H2 H 0.7516 0.2964 0.3758
C6 C 0.7720(5) 0.2711(3) 0.5752(3)
H3 H 0.7522 0.2963 0.6256
C7 C 0.8742(4) 0.1609(3) 0.4999(4)
C8 C 0.6541(4) 0.3817(2) 0.4993(3)
C9 C 0.8398(5) 0.1971(3) 0.4254(4)
H4 H 0.8614 0.1726 0.3750
C10 C 0.3998(8) 0.5000 0.2437(5)
H5 H 0.3348 0.5000 0.2768
C11 C 0.5899(9) 0.5000 0.2320(6)
H6 H 0.6625 0.5000 0.2557
C12 C 0.5812(10) 0.5000 0.1440(6)
H7 H 0.6469 0.5000 0.1116
C13 C 0.4753(11) 0.5000 0.1063(7)
C14 C 0.3832(11) 0.5000 0.1606(5)
H8 H 0.3092 0.5000 0.1394
O13 O 0.6195(3) 0.5903(2) 0.4299(2)
N5 N 0.5467(6) 0.5000 0.9821(6)
C40 C 0.6002(8) 0.5000 0.7563(5)
H21 H 0.6652 0.5000 0.7232
C41 C 0.4101(9) 0.5000 0.7680(6)
H22 H 0.3375 0.5000 0.7443
C42 C 0.4188(10) 0.5000 0.8560(6)
H23 H 0.3531 0.5000 0.8884
C43 C 0.5247(11) 0.5000 0.8937(7)
C44 C 0.6168(11) 0.5000 0.8394(5)
H24 H 0.6908 0.5000 0.8606
Br1_2 Br 0.72075(7) 1.0000 0.49978(10)
C1_2 C 0.8966(4) 1.0000 0.4967(5)
C17 C 0.7351(4) 0.6930(3) 0.4993(3)
C21 C 0.9386(4) 0.9213(3) 0.4994(3)
C23 C 0.8383(5) 0.8024(3) 0.5737(4)
H10 H 0.8591 0.8278 0.6240
C26 C 0.7721(5) 0.7289(3) 0.4261(4)
H13 H 0.7516 0.7036 0.3758
C29 C 0.7720(5) 0.7289(3) 0.5752(3)
H16 H 0.7522 0.7037 0.6256
C32 C 0.8742(4) 0.8391(3) 0.4999(4)
C35 C 0.6541(4) 0.6183(2) 0.4993(3)
C38 C 0.8398(5) 0.8029(3) 0.4254(4)
H19 H 0.8614 0.8274 0.3750
loop_
_geom_bond_atom_site_label_1
_geom_bond_atom_site_label_2
_geom_bond_site_symmetry_1
_geom_bond_site_symmetry_2
Zn7 O5 1_555 1_555
Zn8 O12 1_555 1_555
Br2 C15 1_555 1_555
O5 C36 1_555 1_555
O12 C36 1_555 1_555
C15 C19 1_555 1_555
C18 C27 1_555 1_555
C24 H11 1_555 1_555
C27 H14 1_555 1_555
C30 C18 1_555 1_555
H17 C30 1_555 1_555
C33 C19 1_555 1_555
C36 C18 1_555 1_555
C39 C27 1_555 1_555
H20 C39 1_555 1_555
C24 C30 1_555 1_555
C24 C33 1_555 1_555
C33 C39 1_555 1_555
Zn8 O8 1_555 1_555
Zn7 O3 1_555 1_555
Br2_2 C15_2 1_555 1_555
O3 C34 1_555 1_555
O9 Zn8 1_555 1_555
O10 Zn8 1_555 1_555
N4 Zn8 1_555 1_555
C16 C25 1_555 1_555
C20 C15_2 1_555 1_555
C22 H9 1_555 1_555
C25 H12 1_555 1_555
C28 C16 1_555 1_555
H15 C28 1_555 1_555
C31 C20 1_555 1_555
C34 O10 1_555 1_555
C37 C25 1_555 1_555
H18 C37 1_555 1_555
C16 C34 1_555 1_555
C22 C28 1_555 1_555
C22 C31 1_555 1_555
C31 C37 1_555 1_555
Zn7 O2 1_555 1_555
Br1 C1 1_555 1_555
O9 C8 1_555 1_555
O2 C8 1_555 1_555
N1 Zn7 1_555 1_555
N2 C13 1_555 1_555
C1 C3 1_555 1_555
C2 C5 1_555 1_555
C3 C7 1_555 1_555
C4 H1 1_555 1_555
C5 H2 1_555 1_555
C6 C2 1_555 1_555
H3 C6 1_555 1_555
C7 C4 1_555 1_555
C8 C2 1_555 1_555
C9 C5 1_555 1_555
H4 C9 1_555 1_555
C10 N1 1_555 1_555
H5 C10 1_555 1_555
C11 N1 1_555 1_555
H6 C11 1_555 1_555
C12 C11 1_555 1_555
H7 C12 1_555 1_555
C13 C12 1_555 1_555
C14 C10 1_555 1_555
H8 C14 1_555 1_555
O13 Zn7 1_555 1_555
C4 C6 1_555 1_555
C7 C9 1_555 1_555
C13 C14 1_555 1_555
N4 C40 1_555 1_555
C40 H21 1_555 1_555
C41 N4 1_555 1_555
H22 C41 1_555 1_555
C42 C41 1_555 1_555
H23 C42 1_555 1_555
C43 N5 1_555 1_555
C44 C40 1_555 1_555
H24 C44 1_555 1_555
C42 C43 1_555 1_555
C43 C44 1_555 1_555
Br1_2 C1_2 1_555 1_555
O8 C35 1_555 1_555
O13 C35 1_555 1_555
C17 C26 1_555 1_555
C21 C1_2 1_555 1_555
C23 H10 1_555 1_555
C26 H13 1_555 1_555
C29 C17 1_555 1_555
H16 C29 1_555 1_555
C32 C21 1_555 1_555
C35 C17 1_555 1_555
C38 C26 1_555 1_555
H19 C38 1_555 1_555
C23 C29 1_555 1_555
C23 C32 1_555 1_555
C32 C38 1_555 1_555

#END
