
###############################################################################
#
# This file contains modified crystal structure data generated from the
# MOF subset of the Cambridge Structural Database (CSD) v543 
# hosted by the Cambridge Crystallographic Data Centre (CCDC).
#
# This work is licensed under the Creative Commons
# Attribution-NonCommercial-ShareAlike 4.0 International License.
# To view a copy of this license, visit
# http://creativecommons.org/licenses/by-nc-sa/4.0/
# or send a letter to
# Creative Commons, PO Box 1866, Mountain View, CA 94042, USA.
#
# CIF created using the CSD Python API on 29 September 2022
# The structure has been converted into the P1 space group
# The structure has a 3D framework
# The original CSD entry FUNBIA is in the orthorhombic crystal system
# The framework has been calculated to contain at least 10.0% void space
# The void calculation uses a probe of radius 1.32A, grid spacing 0.4
#
###############################################################################

data_FUNBIA
_chemical_formula_moiety         '(C108 H68 N16 O12 Zn6)n'
_symmetry_cell_setting           triclinic
_symmetry_space_group_name_H-M   'P 1'
_symmetry_Int_Tables_number      1
_space_group_name_Hall           'P 1'
loop_
_symmetry_equiv_pos_site_id
_symmetry_equiv_pos_as_xyz
1 x,y,z
_cell_length_a                   15.6540(10)
_cell_length_b                   15.9467(11)
_cell_length_c                   11.6268(8)
_cell_angle_alpha                90
_cell_angle_beta                 90
_cell_angle_gamma                90
_cell_volume                     2902.39
loop_
_atom_site_label
_atom_site_type_symbol
_atom_site_fract_x
_atom_site_fract_y
_atom_site_fract_z
Zn5 Zn -0.0000 0.42024(5) 0.85803(14)
Zn9 Zn -0.0000 0.23809(5) 0.85703(13)
N3 N -0.0000 0.1140(5) 0.8727(10)
C24 C -0.0000 0.0768(12) 0.9744(14)
C25 C -0.0000 0.0597(11) 0.7855(15)
H15 H -0.0000 0.0826 0.7119
O1 O 0.0994(4) 0.3963(4) 0.7508(5)
O3 O 0.1022(4) 0.2624(4) 0.7583(6)
N1 N -0.0000 0.5470(3) 0.8574(8)
N2 N -0.0000 0.8109(4) 0.8338(10)
N4 N -0.0000 0.8512(6) 0.9217(11)
C1 C -0.0000 0.9405(7) 0.9013(9)
C2 C 0.1950(7) 0.3271(5) 0.0836(10)
C3 C 0.1214(6) 0.3241(5) 0.0086(8)
C4 C 0.1982(6) 0.3256(5) 0.6268(8)
C5 C 0.1188(6) 0.3327(4) 0.7071(8)
C6 C 0.3441(6) 0.3229(5) 0.4847(8)
C7 C -0.0000 0.6735(4) 0.7514(7)
H1 H -0.0000 0.6998 0.6800
C8 C 0.3379(7) 0.3177(6) 0.2244(9)
C9 C -0.0000 0.5922(5) 0.9553(8)
C10 C -0.0000 0.5888(5) 0.7582(8)
H3 H -0.0000 0.5582 0.6901
C11 C 0.4205(7) 0.3197(6) 0.2916(8)
C12 C 0.4221(7) 0.3149(6) 0.4101(8)
C13 C 0.2582(6) 0.3890(6) 0.6387(7)
H4 H 0.2510 0.4312 0.6929
C14 C 0.5000 0.3226(7) 0.2379(10)
H5 H 0.5000 0.3269 0.1582
C15 C 0.5000 0.3090(11) 0.4716(14)
H6 H 0.5000 0.3013 0.5509
C16 C 0.2758(5) 0.2609(5) 0.4735(7)
H7 H 0.2782 0.2198 0.4169
C17 C 0.2077(6) 0.2646(5) 0.5489(7)
H8 H 0.1664 0.2228 0.5452
C18 C 0.3241(6) 0.2531(6) 0.1461(8)
H9 H 0.3605 0.2070 0.1436
C19 C 0.0000 0.7211(4) 0.8516(9)
C20 C 0.2564(6) 0.2587(6) 0.0735(8)
H10 H 0.2491 0.2183 0.0166
C21 C -0.0000 0.6802(5) 0.9535(9)
C22 C 0.3289(6) 0.3877(6) 0.5680(8)
H12 H 0.3687 0.4307 0.5745
C23 C -0.0000 0.9927(10) 0.9975(15)
C26 C 0.2145(6) 0.3893(6) 0.1630(8)
H16 H 0.1789 0.4358 0.1674
C27 C -0.0000 0.9727(11) 0.7924(13)
H17 H 0.0000 0.9388 0.7273
C28 C 0.2847(5) 0.3857(5) 0.2363(7)
H18 H 0.2951 0.4272 0.2906
Zn5_2 Zn 1.0000 0.42024(5) 0.85803(14)
Zn9_2 Zn 1.0000 0.23809(5) 0.85703(13)
O5 O 0.9006(4) 0.3963(4) 0.7508(5)
O8 O 0.0830(4) 0.3984(4) 0.9947(5)
O10 O 0.8978(4) 0.2624(4) 0.7583(6)
O13 O 0.0784(4) 0.2590(4) 0.9983(5)
C29 C 0.8050(7) 0.3271(5) 0.0836(10)
C30 C 0.8786(6) 0.3241(5) 0.0086(8)
C31 C 0.8018(6) 0.3256(5) 0.6268(8)
C32 C 0.8812(6) 0.3327(4) 0.7071(8)
C33 C 0.6559(6) 0.3229(5) 0.4847(8)
C34 C 0.6621(7) 0.3177(6) 0.2244(9)
C35 C 0.5795(7) 0.3197(6) 0.2916(8)
C36 C 0.5779(7) 0.3149(6) 0.4101(8)
C37 C 0.7418(6) 0.3890(6) 0.6387(7)
H19 H 0.7490 0.4312 0.6929
C38 C 0.7242(5) 0.2609(5) 0.4735(7)
H20 H 0.7218 0.2198 0.4169
C39 C 0.7923(6) 0.2646(5) 0.5489(7)
H21 H 0.8336 0.2228 0.5452
C40 C 0.6759(6) 0.2531(6) 0.1461(8)
H22 H 0.6395 0.2070 0.1436
C41 C 0.7436(6) 0.2587(6) 0.0735(8)
H23 H 0.7509 0.2183 0.0166
C42 C 0.6711(6) 0.3877(6) 0.5680(8)
H24 H 0.6313 0.4307 0.5745
C43 C 0.7855(6) 0.3893(6) 0.1630(8)
H25 H 0.8211 0.4358 0.1674
C44 C 0.7153(5) 0.3857(5) 0.2363(7)
H26 H 0.7049 0.4272 0.2906
O7 O 0.9170(4) 0.3984(4) 0.9947(5)
O12 O 0.9216(4) 0.2590(4) 0.9983(5)
N3_2 N 1.0000 0.1140(5) 0.8727(10)
C24_2 C 1.0000 0.0768(12) 0.9744(14)
C25_2 C 1.0000 0.0597(11) 0.7855(15)
H15_2 H 1.0000 0.0826 0.7119
N1_2 N 1.0000 0.5470(3) 0.8574(8)
N2_2 N 1.0000 0.8109(4) 0.8338(10)
N4_2 N 1.0000 0.8512(6) 0.9217(11)
C1_2 C 1.0000 0.9405(7) 0.9013(9)
C7_2 C 1.0000 0.6735(4) 0.7514(7)
H1_2 H 1.0000 0.6998 0.6800
C9_2 C 1.0000 0.5922(5) 0.9553(8)
C10_2 C 1.0000 0.5888(5) 0.7582(8)
H3_2 H 1.0000 0.5582 0.6901
C19_2 C 1.0000 0.7211(4) 0.8516(9)
C21_2 C 1.0000 0.6802(5) 0.9535(9)
C23_2 C 1.0000 0.9927(10) 0.9975(15)
C27_2 C 1.0000 0.9727(11) 0.7924(13)
H17_2 H 1.0000 0.9388 0.7273
H14 H -0.0000 0.1122 0.0379
H2 H -0.0000 0.5644 0.0257
H11 H -0.0000 0.7103 0.0221
H13 H -0.0000 0.9719 0.0722
H14_2 H 1.0000 0.1122 0.0379
H2_2 H 1.0000 0.5644 0.0257
H11_2 H 1.0000 0.7103 0.0221
H13_2 H 1.0000 0.9719 0.0722
Zn1 Zn -0.0000 0.57976(5) 0.35803(14)
Zn2 Zn -0.0000 0.76191(5) 0.35703(13)
N1_3 N 0.0000 0.4530(3) 0.3574(8)
N2_3 N 0.0000 0.1891(4) 0.3338(10)
N4_3 N 0.0000 0.1488(6) 0.4217(11)
C1_3 C 0.0000 0.0595(7) 0.4013(9)
C7_3 C 0.0000 0.3265(4) 0.2514(7)
H1_3 H 0.0000 0.3002 0.1800
C9_3 C 0.0000 0.4078(5) 0.4553(8)
H2_3 H 0.0000 0.4356 0.5257
C10_3 C 0.0000 0.4112(5) 0.2582(8)
H3_3 H 0.0000 0.4418 0.1901
C19_3 C 0.0000 0.2789(4) 0.3516(9)
C21_3 C 0.0000 0.3198(5) 0.4535(9)
H11_3 H 0.0000 0.2897 0.5221
C23_3 C 0.0000 0.0073(10) 0.4975(15)
H13_3 H 0.0000 0.0281 0.5722
C27_3 C 0.0000 0.0273(11) 0.2924(13)
H17_3 H -0.0000 0.0612 0.2273
O6 O 0.0994(4) 0.6037(4) 0.2508(5)
O9 O 0.0830(4) 0.6016(4) 0.4947(5)
O11 O 0.1022(4) 0.7376(4) 0.2583(6)
O14 O 0.0784(4) 0.7410(4) 0.4983(5)
N5 N 0.0000 0.8860(5) 0.3727(10)
C24_3 C 0.0000 0.9232(12) 0.4744(14)
H14_3 H 0.0000 0.8878 0.5379
C25_3 C -0.0000 0.9403(11) 0.2855(15)
H15_3 H -0.0000 0.9174 0.2119
Zn1_2 Zn 1.0000 0.57976(5) 0.35803(14)
Zn2_2 Zn 1.0000 0.76191(5) 0.35703(13)
O1_2 O 0.9006(4) 0.6037(4) 0.2508(5)
O3_2 O 0.8978(4) 0.7376(4) 0.2583(6)
N1_4 N 1.0000 0.4530(3) 0.3574(8)
N2_4 N 1.0000 0.1891(4) 0.3338(10)
N4_4 N 1.0000 0.1488(6) 0.4217(11)
C1_4 C 1.0000 0.0595(7) 0.4013(9)
C4_2 C 0.8018(6) 0.6744(5) 0.1268(8)
C5_2 C 0.8812(6) 0.6673(4) 0.2071(8)
C7_4 C 1.0000 0.3265(4) 0.2514(7)
H1_4 H 1.0000 0.3002 0.1800
C9_4 C 1.0000 0.4078(5) 0.4553(8)
H2_4 H 1.0000 0.4356 0.5257
C10_4 C 1.0000 0.4112(5) 0.2582(8)
H3_4 H 1.0000 0.4418 0.1901
C13_2 C 0.7418(6) 0.6110(6) 0.1387(7)
H4_2 H 0.7490 0.5688 0.1929
H6_2 H 0.5000 0.6987 0.0509
C17_2 C 0.7923(6) 0.7354(5) 0.0489(7)
H8_2 H 0.8336 0.7772 0.0452
C19_4 C 1.0000 0.2789(4) 0.3516(9)
C21_4 C 1.0000 0.3198(5) 0.4535(9)
H11_4 H 1.0000 0.2897 0.5221
C22_2 C 0.6711(6) 0.6123(6) 0.0680(8)
H12_2 H 0.6313 0.5693 0.0745
C23_4 C 1.0000 0.0073(10) 0.4975(15)
H13_4 H 1.0000 0.0281 0.5722
C27_4 C 1.0000 0.0273(11) 0.2924(13)
H17_4 H 1.0000 0.0612 0.2273
O8_2 O 0.9170(4) 0.6016(4) 0.4947(5)
O13_2 O 0.9216(4) 0.7410(4) 0.4983(5)
N5_2 N 1.0000 0.8860(5) 0.3727(10)
C31_2 C 0.1982(6) 0.6744(5) 0.1268(8)
C32_2 C 0.1188(6) 0.6673(4) 0.2071(8)
C37_2 C 0.2582(6) 0.6110(6) 0.1387(7)
H19_2 H 0.2510 0.5688 0.1929
C39_2 C 0.2077(6) 0.7354(5) 0.0489(7)
H21_2 H 0.1664 0.7772 0.0452
C42_2 C 0.3289(6) 0.6123(6) 0.0680(8)
H24_2 H 0.3687 0.5693 0.0745
C2_2 C 0.8050(7) 0.6729(5) 0.5836(10)
C3_2 C 0.8786(6) 0.6759(5) 0.5086(8)
C6_2 C 0.6559(6) 0.6771(5) 0.9847(8)
C8_2 C 0.6621(7) 0.6823(6) 0.7244(9)
C11_2 C 0.5795(7) 0.6803(6) 0.7916(8)
C12_2 C 0.5779(7) 0.6851(6) 0.9101(8)
C14_2 C 0.5000 0.6774(7) 0.7379(10)
H5_2 H 0.5000 0.6731 0.6582
C15_2 C 0.5000 0.6910(11) 0.9716(14)
C16_2 C 0.7242(5) 0.7391(5) 0.9735(7)
H7_2 H 0.7218 0.7802 0.9169
C18_2 C 0.6759(6) 0.7469(6) 0.6461(8)
H9_2 H 0.6395 0.7930 0.6436
C20_2 C 0.7436(6) 0.7413(6) 0.5735(8)
H10_2 H 0.7509 0.7817 0.5166
C26_2 C 0.7855(6) 0.6107(6) 0.6630(8)
H16_2 H 0.8211 0.5642 0.6674
C28_2 C 0.7153(5) 0.6143(5) 0.7363(7)
H18_2 H 0.7049 0.5728 0.7906
C29_2 C 0.1950(7) 0.6729(5) 0.5836(10)
C30_2 C 0.1214(6) 0.6759(5) 0.5086(8)
C33_2 C 0.3441(6) 0.6771(5) 0.9847(8)
C34_2 C 0.3379(7) 0.6823(6) 0.7244(9)
C35_2 C 0.4205(7) 0.6803(6) 0.7916(8)
C36_2 C 0.4221(7) 0.6851(6) 0.9101(8)
C38_2 C 0.2758(5) 0.7391(5) 0.9735(7)
H20_2 H 0.2782 0.7802 0.9169
C40_2 C 0.3241(6) 0.7469(6) 0.6461(8)
H22_2 H 0.3605 0.7930 0.6436
C41_2 C 0.2564(6) 0.7413(6) 0.5735(8)
H23_2 H 0.2491 0.7817 0.5166
C43_2 C 0.2145(6) 0.6107(6) 0.6630(8)
H25_2 H 0.1789 0.5642 0.6674
C44_2 C 0.2847(5) 0.6143(5) 0.7363(7)
H26_2 H 0.2951 0.5728 0.7906
C24_4 C 1.0000 0.9232(12) 0.4744(14)
H14_4 H 1.0000 0.8878 0.5379
C25_4 C 1.0000 0.9403(11) 0.2855(15)
H15_4 H 1.0000 0.9174 0.2119
loop_
_geom_bond_atom_site_label_1
_geom_bond_atom_site_label_2
_geom_bond_site_symmetry_1
_geom_bond_site_symmetry_2
N3 C24 1_555 1_555
C25 N3 1_555 1_555
H15 C25 1_555 1_555
Zn9 N3 1_555 1_555
Zn5 O1 1_555 1_555
Zn9 O3 1_555 1_555
O1 C5 1_555 1_555
O3 C5 1_555 1_555
N1 Zn5 1_555 1_555
N2 N4 1_555 1_555
N4 C1 1_555 1_555
C1 C23 1_555 1_555
C2 C3 1_555 1_555
C4 C5 1_555 1_555
C6 C12 1_555 1_555
C7 H1 1_555 1_555
C8 C11 1_555 1_555
C9 N1 1_555 1_555
C10 N1 1_555 1_555
H3 C10 1_555 1_555
C11 C12 1_555 1_555
C12 C15 1_555 1_555
C13 C4 1_555 1_555
H4 C13 1_555 1_555
C14 C11 1_555 1_555
H5 C14 1_555 1_555
C15 H6 1_555 1_555
C16 C6 1_555 1_555
H7 C16 1_555 1_555
C17 C4 1_555 1_555
H8 C17 1_555 1_555
C18 C8 1_555 1_555
H9 C18 1_555 1_555
C19 N2 1_555 1_555
C20 C2 1_555 1_555
H10 C20 1_555 1_555
C21 C9 1_555 1_555
C22 C6 1_555 1_555
H12 C22 1_555 1_555
C26 C2 1_555 1_555
H16 C26 1_555 1_555
C27 C1 1_555 1_555
H17 C27 1_555 1_555
C28 C8 1_555 1_555
H18 C28 1_555 1_555
Zn5_2 O5 1_555 1_555
Zn9_2 O10 1_555 1_555
O5 C32 1_555 1_555
O8 Zn5 1_555 1_555
O10 C32 1_555 1_555
O13 Zn9 1_555 1_555
C29 C30 1_555 1_555
C31 C32 1_555 1_555
C33 C36 1_555 1_555
C34 C35 1_555 1_555
C35 C14 1_555 1_555
C36 C15 1_555 1_555
C37 C31 1_555 1_555
H19 C37 1_555 1_555
C38 C33 1_555 1_555
H20 C38 1_555 1_555
C39 C31 1_555 1_555
H21 C39 1_555 1_555
C40 C34 1_555 1_555
H22 C40 1_555 1_555
C41 C29 1_555 1_555
H23 C41 1_555 1_555
C42 C33 1_555 1_555
H24 C42 1_555 1_555
C43 C29 1_555 1_555
H25 C43 1_555 1_555
C44 C34 1_555 1_555
H26 C44 1_555 1_555
C7 C10 1_555 1_555
C7 C19 1_555 1_555
C13 C22 1_555 1_555
C16 C17 1_555 1_555
C18 C20 1_555 1_555
C19 C21 1_555 1_555
C26 C28 1_555 1_555
C35 C36 1_555 1_555
C37 C42 1_555 1_555
C38 C39 1_555 1_555
C40 C41 1_555 1_555
C43 C44 1_555 1_555
Zn5_2 O7 1_555 1_555
Zn9_2 O12 1_555 1_555
N3_2 C24_2 1_555 1_555
C25_2 N3_2 1_555 1_555
H15_2 C25_2 1_555 1_555
Zn9_2 N3_2 1_555 1_555
N1_2 Zn5_2 1_555 1_555
N2_2 N4_2 1_555 1_555
N4_2 C1_2 1_555 1_555
C1_2 C23_2 1_555 1_555
C7_2 H1_2 1_555 1_555
C9_2 N1_2 1_555 1_555
C10_2 N1_2 1_555 1_555
H3_2 C10_2 1_555 1_555
C19_2 N2_2 1_555 1_555
C21_2 C9_2 1_555 1_555
C27_2 C1_2 1_555 1_555
H17_2 C27_2 1_555 1_555
C7_2 C10_2 1_555 1_555
C7_2 C19_2 1_555 1_555
C19_2 C21_2 1_555 1_555
N1_3 Zn1 1_555 1_555
N2_3 N4_3 1_555 1_555
N4_3 C1_3 1_555 1_555
C1_3 C23_3 1_555 1_555
C7_3 H1_3 1_555 1_555
C9_3 N1_3 1_555 1_555
H2_3 C9_3 1_555 1_555
C10_3 N1_3 1_555 1_555
H3_3 C10_3 1_555 1_555
C19_3 N2_3 1_555 1_555
C21_3 C9_3 1_555 1_555
H11_3 C21_3 1_555 1_555
C23_3 H13_3 1_555 1_555
C27_3 C1_3 1_555 1_555
H17_3 C27_3 1_555 1_555
O6 Zn1 1_555 1_555
O9 Zn1 1_555 1_555
O11 Zn2 1_555 1_555
O14 Zn2 1_555 1_555
N5 Zn2 1_555 1_555
C7_3 C10_3 1_555 1_555
C7_3 C19_3 1_555 1_555
C19_3 C21_3 1_555 1_555
N5 C24_3 1_555 1_555
H14_3 C24_3 1_555 1_555
C25_3 N5 1_555 1_555
H15_3 C25_3 1_555 1_555
Zn1_2 O1_2 1_555 1_555
Zn2_2 O3_2 1_555 1_555
O1_2 C5_2 1_555 1_555
O3_2 C5_2 1_555 1_555
N1_4 Zn1_2 1_555 1_555
N2_4 N4_4 1_555 1_555
N4_4 C1_4 1_555 1_555
C1_4 C23_4 1_555 1_555
C4_2 C5_2 1_555 1_555
C7_4 H1_4 1_555 1_555
C9_4 N1_4 1_555 1_555
H2_4 C9_4 1_555 1_555
C10_4 N1_4 1_555 1_555
H3_4 C10_4 1_555 1_555
C13_2 C4_2 1_555 1_555
H4_2 C13_2 1_555 1_555
C17_2 C4_2 1_555 1_555
H8_2 C17_2 1_555 1_555
C19_4 N2_4 1_555 1_555
C21_4 C9_4 1_555 1_555
H11_4 C21_4 1_555 1_555
H12_2 C22_2 1_555 1_555
C23_4 H13_4 1_555 1_555
C27_4 C1_4 1_555 1_555
H17_4 C27_4 1_555 1_555
O6 C32_2 1_555 1_555
O8_2 Zn1_2 1_555 1_555
O11 C32_2 1_555 1_555
O13_2 Zn2_2 1_555 1_555
N5_2 Zn2_2 1_555 1_555
C31_2 C32_2 1_555 1_555
C37_2 C31_2 1_555 1_555
H19_2 C37_2 1_555 1_555
C39_2 C31_2 1_555 1_555
H21_2 C39_2 1_555 1_555
H24_2 C42_2 1_555 1_555
C7_4 C10_4 1_555 1_555
C7_4 C19_4 1_555 1_555
C13_2 C22_2 1_555 1_555
C19_4 C21_4 1_555 1_555
C37_2 C42_2 1_555 1_555
O8_2 C3_2 1_555 1_555
O13_2 C3_2 1_555 1_555
C2_2 C3_2 1_555 1_555
C6_2 C12_2 1_555 1_555
C8_2 C11_2 1_555 1_555
C11_2 C12_2 1_555 1_555
C12_2 C15_2 1_555 1_555
C14_2 C11_2 1_555 1_555
H5_2 C14_2 1_555 1_555
C16_2 C6_2 1_555 1_555
H7_2 C16_2 1_555 1_555
C18_2 C8_2 1_555 1_555
H9_2 C18_2 1_555 1_555
C20_2 C2_2 1_555 1_555
H10_2 C20_2 1_555 1_555
C26_2 C2_2 1_555 1_555
H16_2 C26_2 1_555 1_555
C28_2 C8_2 1_555 1_555
H18_2 C28_2 1_555 1_555
O9 C30_2 1_555 1_555
O14 C30_2 1_555 1_555
C29_2 C30_2 1_555 1_555
C33_2 C36_2 1_555 1_555
C34_2 C35_2 1_555 1_555
C35_2 C14_2 1_555 1_555
C36_2 C15_2 1_555 1_555
C38_2 C33_2 1_555 1_555
H20_2 C38_2 1_555 1_555
C40_2 C34_2 1_555 1_555
H22_2 C40_2 1_555 1_555
C41_2 C29_2 1_555 1_555
H23_2 C41_2 1_555 1_555
C43_2 C29_2 1_555 1_555
H25_2 C43_2 1_555 1_555
C44_2 C34_2 1_555 1_555
H26_2 C44_2 1_555 1_555
C18_2 C20_2 1_555 1_555
C26_2 C28_2 1_555 1_555
C35_2 C36_2 1_555 1_555
C40_2 C41_2 1_555 1_555
C43_2 C44_2 1_555 1_555
N5_2 C24_4 1_555 1_555
H14_4 C24_4 1_555 1_555
C25_4 N5_2 1_555 1_555
H15_4 C25_4 1_555 1_555

#END
