
###############################################################################
#
# This file contains modified crystal structure data generated from the
# MOF subset of the Cambridge Structural Database (CSD) v543 
# hosted by the Cambridge Crystallographic Data Centre (CCDC).
#
# This work is licensed under the Creative Commons
# Attribution-NonCommercial-ShareAlike 4.0 International License.
# To view a copy of this license, visit
# http://creativecommons.org/licenses/by-nc-sa/4.0/
# or send a letter to
# Creative Commons, PO Box 1866, Mountain View, CA 94042, USA.
#
# CIF created using the CSD Python API on 29 September 2022
# The structure has been converted into the P1 space group
# The structure has a 3D framework
# The original CSD entry FUNFOL is in the triclinic crystal system
# The framework has been calculated to contain at least 10.0% void space
# The void calculation uses a probe of radius 1.32A, grid spacing 0.4
#
###############################################################################

data_FUNFOL
_chemical_formula_moiety         '(C66 H46 Co4 N20 O14)n'
_symmetry_cell_setting           triclinic
_symmetry_space_group_name_H-M   'P 1'
_symmetry_Int_Tables_number      1
_space_group_name_Hall           'P 1'
loop_
_symmetry_equiv_pos_site_id
_symmetry_equiv_pos_as_xyz
1 x,y,z
_cell_length_a                   10.0510(8)
_cell_length_b                   17.7700(13)
_cell_length_c                   17.9534(13)
_cell_angle_alpha                67.2500(10)
_cell_angle_beta                 74.9280(10)
_cell_angle_gamma                81.5690(10)
_cell_volume                     2851.57
loop_
_atom_site_label
_atom_site_type_symbol
_atom_site_fract_x
_atom_site_fract_y
_atom_site_fract_z
H15 H 0.3526 0.0228 0.6783
Co10 Co 0.5000 0.0000 0.5000
H30 H 0.1561 0.5232 0.0236
C48 C 0.1957(4) 0.4088(2) 0.0253(2)
C51 C 0.0903(4) 0.3006(2) 0.1557(2)
C52 C 0.0966(4) 0.2526(3) 0.2372(2)
H33 H 0.1591 0.2636 0.2614
C53 C 0.0100(4) 0.1885(3) 0.2823(2)
H34 H 0.0146 0.1566 0.3366
C59 C 0.2036(4) 0.4126(2) 0.1587(2)
C60 C 0.1061(4) 0.4289(2) 0.2210(2)
H39 H 0.0168 0.4120 0.2341
C61 C 0.1395(4) 0.4698(2) 0.2641(2)
H40 H 0.0730 0.4806 0.3061
C62 C 0.2709(3) 0.4946(2) 0.2452(2)
C63 C 0.3694(4) 0.4806(2) 0.1816(2)
H41 H 0.4582 0.4983 0.1681
C64 C 0.3342(4) 0.4405(2) 0.1386(2)
H42 H 0.3996 0.4318 0.0950
C65 C 0.2413(3) 0.54036(19) 0.36416(19)
H43 H 0.1527 0.5233 0.3921
C66 C 0.4353(4) 0.5898(3) 0.3288(2)
H44 H 0.5092 0.6153 0.3295
N14 N 0.1709(3) 0.36933(18) 0.11335(16)
N18 N 0.3195(3) 0.57481(16) 0.38960(16)
N19 N 0.3085(3) 0.53378(17) 0.29236(16)
N20 N 0.4349(3) 0.5653(2) 0.26878(19)
Co7 Co 0.29772(4) 0.56891(2) 0.51300(2)
C2 C 0.0869(3) 0.33172(17) 0.49231(19)
C3 C 0.1332(3) 0.26144(18) 0.4759(2)
H1 H 0.0743 0.2352 0.4627
C4 C 0.2677(3) 0.22972(18) 0.4792(2)
C5 C 0.3562(3) 0.27110(18) 0.4956(2)
H2 H 0.4473 0.2514 0.4951
C6 C 0.3115(3) 0.34150(16) 0.51279(18)
C7 C 0.1746(3) 0.37131(17) 0.51218(19)
H3 H 0.1423 0.4176 0.5251
C8 C 0.3161(3) 0.15142(19) 0.4631(2)
C9 C 0.4079(3) 0.38854(17) 0.52785(18)
O3 O 0.2376(3) 0.12202(16) 0.4393(2)
O4 O 0.4314(2) 0.12114(12) 0.47670(16)
O5 O 0.3600(2) 0.44917(12) 0.54775(13)
O6 O 0.5328(2) 0.36432(12) 0.51821(14)
H22 H 0.3645 0.0351 0.3834
C34 C 0.0567(3) 0.63302(18) 0.51166(19)
C43 C 0.2535(3) 0.5026(2) 0.7089(2)
H27 H 0.2345 0.4497 0.7177
C44 C 0.2980(5) 0.6265(2) 0.6546(2)
H28 H 0.3180 0.6780 0.6145
C45 C 0.2417(3) 0.4864(2) 0.8556(2)
C46 C 0.2034(4) 0.5318(2) 0.9062(2)
H29 H 0.1928 0.5884 0.8833
C47 C 0.1814(4) 0.4926(2) 0.9897(2)
C49 C 0.2374(4) 0.3642(2) 0.9740(2)
H31 H 0.2514 0.3077 0.9967
C50 C 0.2582(4) 0.4034(2) 0.8891(2)
H32 H 0.2833 0.3732 0.8548
N11 N 0.2774(3) 0.56284(16) 0.63574(16)
N12 N 0.2608(3) 0.52872(16) 0.76788(16)
N13 N 0.2876(4) 0.61026(18) 0.73313(18)
O8 O 0.1535(2) 0.67885(13) 0.49528(15)
O9 O 0.0792(2) 0.55699(12) 0.53115(13)
O14 O 0.6244(3) 0.01584(15) 0.57253(17)
H46 H 0.7132 0.0333 0.5380
Co5 Co 0.70228(4) 0.43109(2) 0.48700(2)
N22 N 0.6628(3) 0.03751(17) 0.39329(19)
O17 O 0.4672(2) 0.63568(12) 0.48179(14)
C21 C 0.0819(4) 0.8279(2) 0.7527(2)
C22 C 0.0859(4) 0.7828(2) 0.8341(2)
H12 H 0.1457 0.7957 0.8587
C23 C 0.0007(4) 0.7185(2) 0.8788(2)
H13 H 0.0051 0.6875 0.9334
C24 C 0.2534(4) 0.9040(2) 0.6286(2)
H14 H 0.2475 0.8760 0.5954
C25 C 0.3074(5) 0.9826(3) 0.6750(3)
N5 N 0.1786(3) 0.89019(19) 0.7042(2)
N6 N 0.2122(5) 0.9421(3) 0.7350(3)
N7 N 0.3372(3) 0.96249(17) 0.60671(19)
Co10_2 Co 0.5000 1.0000 0.5000
O7 O 0.3756(3) 0.98416(15) 0.42747(17)
H23 H 0.2868 0.9667 0.4620
H45 H 0.6355 0.9649 0.6166
O15 O 0.5686(2) 0.87886(12) 0.52330(16)
C54 C 0.9181(4) 0.1721(2) 0.2473(2)
C55 C 0.9141(4) 0.2172(2) 0.1659(2)
H35 H 0.8543 0.2043 0.1413
C56 C 0.9993(4) 0.2815(2) 0.1212(2)
H36 H 0.9949 0.3125 0.0666
C57 C 0.7466(4) 0.0960(2) 0.3714(2)
H37 H 0.7525 0.1240 0.4046
C58 C 0.6926(5) 0.0174(3) 0.3250(3)
N15 N 0.8214(3) 0.10981(19) 0.2958(2)
N16 N 0.7878(5) 0.0579(3) 0.2650(3)
C1 C 0.9433(3) 0.36698(18) 0.48834(19)
C10 C 0.7465(3) 0.4974(2) 0.2911(2)
H4 H 0.7655 0.5503 0.2823
C11 C 0.7020(5) 0.3735(2) 0.3454(2)
H5 H 0.6820 0.3220 0.3855
C12 C 0.7583(3) 0.5136(2) 0.1444(2)
C13 C 0.7966(4) 0.4682(2) 0.0938(2)
H6 H 0.8072 0.4116 0.1167
C14 C 0.8186(4) 0.5074(2) 0.0103(2)
C16 C 0.7626(4) 0.6358(2) 0.0260(2)
H8 H 0.7486 0.6923 0.0033
C17 C 0.7418(4) 0.5966(2) 0.1109(2)
H9 H 0.7167 0.6268 0.1452
N1 N 0.7226(3) 0.43716(16) 0.36426(16)
N2 N 0.7392(3) 0.47128(16) 0.23212(16)
N3 N 0.7124(4) 0.38974(18) 0.26687(18)
O1 O 0.8465(2) 0.32115(13) 0.50472(15)
O2 O 0.9208(2) 0.44301(12) 0.46885(13)
C35 C 0.9131(3) 0.66828(17) 0.50769(19)
C36 C 0.8668(3) 0.73856(18) 0.5241(2)
H24 H 0.9257 0.7648 0.5373
C37 C 0.7323(3) 0.77028(18) 0.5208(2)
C38 C 0.6438(3) 0.72890(18) 0.5044(2)
H25 H 0.5527 0.7486 0.5049
C39 C 0.6885(3) 0.65850(16) 0.48721(18)
C40 C 0.8254(3) 0.62869(17) 0.48782(19)
H26 H 0.8577 0.5824 0.4749
C41 C 0.6839(3) 0.84858(19) 0.5369(2)
C42 C 0.5921(3) 0.61146(17) 0.47215(18)
O10 O 0.7624(3) 0.87798(16) 0.5607(2)
O12 O 0.6400(2) 0.55083(12) 0.45225(13)
N23 N 0.6805(3) 0.42519(16) 0.61040(16)
H7 H 0.8439 0.4768 0.9764
C15 C 0.8043(4) 0.5912(2) 0.9747(2)
C18 C 0.9097(4) 0.6994(2) 0.8443(2)
C19 C 0.9034(4) 0.7474(3) 0.7628(2)
H10 H 0.8409 0.7364 0.7386
C20 C 0.9900(4) 0.8115(3) 0.7177(2)
H11 H 0.9854 0.8434 0.6634
C26 C 0.7964(4) 0.5874(2) 0.8413(2)
C27 C 0.8939(4) 0.5711(2) 0.7790(2)
H16 H 0.9832 0.5880 0.7659
C28 C 0.8605(4) 0.5302(2) 0.7359(2)
H17 H 0.9270 0.5194 0.6939
C29 C 0.7291(3) 0.5054(2) 0.7548(2)
C30 C 0.6306(4) 0.5194(2) 0.8184(2)
H18 H 0.5418 0.5017 0.8319
C31 C 0.6658(4) 0.5595(2) 0.8614(2)
H19 H 0.6004 0.5682 0.9050
C32 C 0.7587(3) 0.45964(19) 0.63584(19)
H20 H 0.8473 0.4767 0.6079
C33 C 0.5647(4) 0.4102(3) 0.6712(2)
H21 H 0.4908 0.3847 0.6705
N4 N 0.8291(3) 0.63067(18) 0.88665(16)
N9 N 0.6915(3) 0.46622(17) 0.70764(16)
N10 N 0.5651(3) 0.4347(2) 0.73122(19)
H38 H 0.6474 0.9772 0.3217
loop_
_geom_bond_atom_site_label_1
_geom_bond_atom_site_label_2
_geom_bond_site_symmetry_1
_geom_bond_site_symmetry_2
C51 C52 1_555 1_555
C52 H33 1_555 1_555
C53 C52 1_555 1_555
H34 C53 1_555 1_555
C59 C60 1_555 1_555
C60 H39 1_555 1_555
C61 C60 1_555 1_555
H40 C61 1_555 1_555
C62 C61 1_555 1_555
C63 C62 1_555 1_555
H41 C63 1_555 1_555
C64 C59 1_555 1_555
H42 C64 1_555 1_555
C65 H43 1_555 1_555
C66 H44 1_555 1_555
N14 C48 1_555 1_555
N18 C65 1_555 1_555
N19 C62 1_555 1_555
N20 C66 1_555 1_555
Co7 N18 1_555 1_555
C51 N14 1_555 1_555
C59 N14 1_555 1_555
C63 C64 1_555 1_555
C65 N19 1_555 1_555
C66 N18 1_555 1_555
N19 N20 1_555 1_555
Co10 O4 1_555 1_555
C2 C3 1_555 1_555
C3 H1 1_555 1_555
C4 C3 1_555 1_555
C5 C4 1_555 1_555
H2 C5 1_555 1_555
C6 C5 1_555 1_555
C7 C2 1_555 1_555
H3 C7 1_555 1_555
C8 C4 1_555 1_555
C9 C6 1_555 1_555
O3 C8 1_555 1_555
O4 C8 1_555 1_555
O5 C9 1_555 1_555
O6 C9 1_555 1_555
Co7 O5 1_555 1_555
C43 H27 1_555 1_555
C44 H28 1_555 1_555
C45 C46 1_555 1_555
C46 H29 1_555 1_555
C47 C46 1_555 1_555
H31 C49 1_555 1_555
C50 C45 1_555 1_555
H32 C50 1_555 1_555
N11 Co7 1_555 1_555
N12 C43 1_555 1_555
N13 C44 1_555 1_555
O8 Co7 1_555 1_555
O9 Co7 1_555 1_555
O14 Co10 1_555 1_555
H46 O14 1_555 1_555
Co5 O6 1_555 1_555
N22 Co10 1_555 1_555
O17 Co7 1_555 1_555
C6 C7 1_555 1_555
C34 O8 1_555 1_555
C34 O9 1_555 1_555
C43 N11 1_555 1_555
C44 N11 1_555 1_555
C45 N12 1_555 1_555
C49 C50 1_555 1_555
N12 N13 1_555 1_555
C22 C21 1_555 1_555
H12 C22 1_555 1_555
H13 C23 1_555 1_555
C24 H14 1_555 1_555
N5 C21 1_555 1_555
N6 C25 1_555 1_555
N7 C24 1_555 1_555
Co10_2 N7 1_555 1_555
C22 C23 1_555 1_555
C24 N5 1_555 1_555
C25 N7 1_555 1_555
N5 N6 1_555 1_555
O7 Co10_2 1_555 1_555
H23 O7 1_555 1_555
O15 Co10_2 1_555 1_555
C55 C54 1_555 1_555
H35 C55 1_555 1_555
H36 C56 1_555 1_555
C57 H37 1_555 1_555
N15 C54 1_555 1_555
N16 C58 1_555 1_555
N22 C57 1_555 1_555
C55 C56 1_555 1_555
C57 N15 1_555 1_555
C58 N22 1_555 1_555
N15 N16 1_555 1_555
Co5 N1 1_555 1_555
C10 H4 1_555 1_555
C11 H5 1_555 1_555
C12 C13 1_555 1_555
C13 H6 1_555 1_555
C14 C13 1_555 1_555
H8 C16 1_555 1_555
C17 C12 1_555 1_555
H9 C17 1_555 1_555
N1 C10 1_555 1_555
N2 C10 1_555 1_555
N3 C11 1_555 1_555
O1 Co5 1_555 1_555
O2 Co5 1_555 1_555
C35 C36 1_555 1_555
C36 H24 1_555 1_555
C37 C36 1_555 1_555
C38 C37 1_555 1_555
H25 C38 1_555 1_555
C39 C38 1_555 1_555
C40 C35 1_555 1_555
H26 C40 1_555 1_555
C41 C37 1_555 1_555
C42 C39 1_555 1_555
O10 C41 1_555 1_555
O15 C41 1_555 1_555
O12 Co5 1_555 1_555
O17 C42 1_555 1_555
N23 Co5 1_555 1_555
C1 O1 1_555 1_555
C1 O2 1_555 1_555
C11 N1 1_555 1_555
C12 N2 1_555 1_555
C16 C17 1_555 1_555
N2 N3 1_555 1_555
C39 C40 1_555 1_555
C42 O12 1_555 1_555
C18 C19 1_555 1_555
C19 H10 1_555 1_555
C20 C19 1_555 1_555
H11 C20 1_555 1_555
C26 C27 1_555 1_555
C27 H16 1_555 1_555
C28 C27 1_555 1_555
H17 C28 1_555 1_555
C29 C28 1_555 1_555
C30 C29 1_555 1_555
H18 C30 1_555 1_555
C31 C26 1_555 1_555
H19 C31 1_555 1_555
C32 H20 1_555 1_555
C33 H21 1_555 1_555
N4 C15 1_555 1_555
N23 C32 1_555 1_555
N9 C29 1_555 1_555
N10 C33 1_555 1_555
C18 N4 1_555 1_555
C26 N4 1_555 1_555
C30 C31 1_555 1_555
C32 N9 1_555 1_555
C33 N23 1_555 1_555
N9 N10 1_555 1_555

#END
