
###############################################################################
#
# This file contains modified crystal structure data generated from the
# MOF subset of the Cambridge Structural Database (CSD) v543 
# hosted by the Cambridge Crystallographic Data Centre (CCDC).
#
# This work is licensed under the Creative Commons
# Attribution-NonCommercial-ShareAlike 4.0 International License.
# To view a copy of this license, visit
# http://creativecommons.org/licenses/by-nc-sa/4.0/
# or send a letter to
# Creative Commons, PO Box 1866, Mountain View, CA 94042, USA.
#
# CIF created using the CSD Python API on 29 September 2022
# The structure has been converted into the P1 space group
# The structure has a 3D framework
# The original CSD entry FUNGAY is in the monoclinic crystal system
# The framework has been calculated to contain at least 10.0% void space
# The void calculation uses a probe of radius 1.32A, grid spacing 0.4
#
###############################################################################

data_FUNGAY
_chemical_formula_moiety         '(C248 H176 Co8 N88 O40)n'
_symmetry_cell_setting           triclinic
_symmetry_space_group_name_H-M   'P 1'
_symmetry_Int_Tables_number      1
_space_group_name_Hall           'P 1'
loop_
_symmetry_equiv_pos_site_id
_symmetry_equiv_pos_as_xyz
1 x,y,z
_cell_length_a                   28.6457(12)
_cell_length_b                   12.5440(5)
_cell_length_c                   21.6016(9)
_cell_angle_alpha                90
_cell_angle_beta                 103.1950(10)
_cell_angle_gamma                90
_cell_volume                     7557.21
loop_
_atom_site_label
_atom_site_type_symbol
_atom_site_fract_x
_atom_site_fract_y
_atom_site_fract_z
H39 H 0.5816 0.3261 0.0002
C59 C 0.66230(12) 0.0374(3) 0.00187(16)
H42 H 0.6948 0.0321 0.0026
C39 C 0.32263(12) 0.0519(3) 0.67745(16)
H27 H 0.2955 0.0783 0.6495
C41 C 0.65485(11) 0.6273(2) 0.85953(15)
H29 H 0.6674 0.5834 0.8327
C42 C 0.63924(14) 0.7574(3) 0.91148(19)
H30 H 0.6395 0.8262 0.9277
C45 C 0.43108(10) 0.0770(2) 0.78584(14)
C46 C 0.46788(12) 0.0065(3) 0.80844(18)
C47 C 0.50849(12) 0.0399(3) 0.85113(19)
C48 C 0.51354(11) 0.1462(3) 0.87111(16)
C49 C 0.47608(12) 0.2159(3) 0.84825(17)
H35 H 0.4787 0.2867 0.8614
C50 C 0.43478(12) 0.1818(2) 0.80607(16)
H36 H 0.4097 0.2292 0.7915
C51 C 0.60510(11) 0.4922(2) 0.89765(16)
C52 C 0.59297(14) 0.4292(3) 0.84431(17)
H37 H 0.5958 0.4553 0.8050
C53 C 0.57650(15) 0.3266(3) 0.84956(18)
H38 H 0.5684 0.2834 0.8137
C54 C 0.57216(11) 0.2884(3) 0.90753(16)
C55 C 0.58467(13) 0.3520(3) 0.96103(17)
C56 C 0.60166(13) 0.4539(3) 0.95632(16)
H40 H 0.6107 0.4964 0.9924
C57 C 0.58502(11) 0.1128(3) 0.95716(16)
C58 C 0.63299(12) 0.1040(3) 0.95860(16)
H41 H 0.6460 0.1432 0.9301
C62 C 0.56626(13) 0.0530(4) 0.9998(2)
H44 H 0.5338 0.0577 0.9993
N13 N 0.38846(9) 0.04228(19) 0.74247(12)
N14 N 0.35671(10) 0.1140(2) 0.70850(14)
N15 N 0.66548(9) 0.7291(2) 0.87003(12)
N16 N 0.62368(9) 0.5967(2) 0.89284(13)
N17 N 0.61310(13) 0.6803(2) 0.92744(18)
N21 N 0.55528(10) 0.1824(2) 0.91338(16)
Co6 Co 0.71807(2) 0.81672(3) 0.83777(2)
C1 C 0.17737(12) 0.4481(3) 0.32255(16)
H1 H 0.2045 0.4217 0.3505
C2 C 0.12864(12) 0.5558(3) 0.26967(17)
H2 H 0.1135 0.6176 0.2516
C7 C 0.06892(10) 0.4230(2) 0.21416(14)
C8 C 0.03212(12) 0.4935(3) 0.19156(18)
H7 H 0.0348 0.5640 0.2052
C11 C 0.02392(12) 0.2841(3) 0.15175(17)
H9 H 0.0213 0.2133 0.1386
C12 C 0.06522(12) 0.3182(2) 0.19393(16)
H10 H 0.0903 0.2708 0.2085
C25 C 0.22478(12) 0.6987(2) 0.22225(14)
C26 C 0.23224(12) 0.7132(3) 0.15632(14)
C27 C 0.20353(13) 0.7808(3) 0.11428(15)
H19 H 0.1788 0.8167 0.1267
C28 C 0.21074(13) 0.7965(3) 0.05360(15)
H20 H 0.1911 0.8438 0.0263
C29 C 0.24668(11) 0.7430(3) 0.03296(13)
C30 C 0.27608(14) 0.6773(3) 0.07654(17)
H21 H 0.3015 0.6426 0.0649
C31 C 0.26868(14) 0.6621(3) 0.13678(16)
H22 H 0.2888 0.6164 0.1647
Co1 Co 0.21807(2) 0.68328(3) 0.33777(2)
N1 N 0.17036(9) 0.5528(2) 0.31125(12)
N2 N 0.11154(9) 0.45772(19) 0.25753(12)
N3 N 0.14329(10) 0.3860(2) 0.29150(14)
N11 N 0.27356(11) 0.5802(2) 0.44624(13)
O1 O 0.24990(9) 0.63271(18) 0.25978(10)
O2 O 0.19471(9) 0.75593(19) 0.24154(10)
O3 O 0.23461(10) 0.6275(2) 0.43393(13)
O4 O 0.2904(2) 0.5636(3) 0.4007(2)
O5 O 0.29002(12) 0.5507(3) 0.50014(14)
C43 C 0.69716(18) 0.8303(4) 0.1741(2)
H31 H 0.6998 0.8050 0.2152
C44 C 0.71212(11) 0.8567(3) 0.08618(14)
H32 H 0.7264 0.8571 0.0516
C60 C 0.64298(11) 0.9796(3) 0.04352(15)
C61 C 0.59532(13) 0.9870(4) 0.0426(2)
H43 H 0.5825 0.9472 0.0711
N18 N 0.72788(10) 0.8017(2) 0.13866(13)
N19 N 0.66312(15) 0.8962(4) 0.14692(18)
N20 N 0.67299(10) 0.9118(2) 0.08911(12)
Co4 Co 0.78193(2) 0.68328(3) 0.16223(2)
N23 N 0.16548(9) 0.7709(2) 0.37003(12)
N26 N 0.27212(10) 0.8017(2) 0.36134(13)
C5 C 0.80284(18) 0.6697(4) 0.8259(2)
H5 H 0.8002 0.6950 0.7848
C6 C 0.78788(11) 0.6433(3) 0.91382(14)
H6 H 0.7736 0.6429 0.9484
H13 H 0.9184 0.1739 0.9998
C21 C 0.83770(12) 0.4626(3) 0.99813(16)
H16 H 0.8052 0.4679 0.9974
C22 C 0.85702(11) 0.5204(3) 0.95648(15)
C23 C 0.90468(13) 0.5130(4) 0.9574(2)
H17 H 0.9175 0.5528 0.9289
N7 N 0.77212(10) 0.6983(2) 0.86134(13)
N8 N 0.83688(15) 0.6038(4) 0.85308(18)
N9 N 0.82701(10) 0.5882(2) 0.91089(12)
C3 C 0.84515(11) 0.8727(2) 0.14047(15)
H3 H 0.8326 0.9166 0.1673
C4 C 0.86076(14) 0.7426(3) 0.08852(19)
H4 H 0.8605 0.6738 0.0723
N4 N 0.83452(9) 0.7709(2) 0.12997(12)
N5 N 0.87632(9) 0.9033(2) 0.10716(13)
N6 N 0.88690(13) 0.8197(2) 0.07256(18)
C3_2 C 0.15485(11) 0.8727(2) 0.35953(15)
H3_2 H 0.1674 0.9166 0.3327
C4_2 C 0.13924(14) 0.7426(3) 0.41148(19)
H4_2 H 0.1395 0.6738 0.4277
N5_2 N 0.12368(9) 0.9033(2) 0.39284(13)
N6_2 N 0.11310(13) 0.8197(2) 0.42744(18)
C1_2 C 0.82263(12) 0.4481(3) 0.17745(16)
H1_2 H 0.7955 0.4217 0.1495
C2_2 C 0.87136(12) 0.5558(3) 0.23033(17)
H2_2 H 0.8865 0.6176 0.2484
C7_2 C 0.93108(10) 0.4230(2) 0.28584(14)
C8_2 C 0.96788(12) 0.4935(3) 0.30844(18)
H7_2 H 0.9652 0.5640 0.2948
C11_2 C 0.97608(12) 0.2841(3) 0.34825(17)
H9_2 H 0.9787 0.2133 0.3614
C12_2 C 0.93478(12) 0.3182(2) 0.30607(16)
H10_2 H 0.9097 0.2708 0.2915
C25_2 C 0.77522(12) 0.6987(2) 0.27775(14)
C26_2 C 0.76776(12) 0.7132(3) 0.34368(14)
C27_2 C 0.79647(13) 0.7808(3) 0.38572(15)
H19_2 H 0.8212 0.8167 0.3733
C28_2 C 0.78926(13) 0.7965(3) 0.44640(15)
H20_2 H 0.8089 0.8438 0.4737
C29_2 C 0.75332(11) 0.7430(3) 0.46704(13)
C30_2 C 0.72392(14) 0.6773(3) 0.42346(17)
H21_2 H 0.6985 0.6426 0.4351
C31_2 C 0.73132(14) 0.6621(3) 0.36322(16)
H22_2 H 0.7112 0.6164 0.3353
N1_2 N 0.82964(9) 0.5528(2) 0.18875(12)
N2_2 N 0.88846(9) 0.45772(19) 0.24247(12)
N3_2 N 0.85671(10) 0.3860(2) 0.20850(14)
N11_2 N 0.72644(11) 0.5802(2) 0.05376(13)
O1_2 O 0.75010(9) 0.63271(18) 0.24022(10)
O2_2 O 0.80529(9) 0.75593(19) 0.25846(10)
O3_2 O 0.76539(10) 0.6275(2) 0.06607(13)
O4_2 O 0.7096(2) 0.5636(3) 0.0993(2)
C32 C 0.72478(12) 0.8013(2) 0.72225(14)
C33 C 0.73224(12) 0.7868(3) 0.65632(14)
C34 C 0.70353(13) 0.7192(3) 0.61428(15)
H23 H 0.6788 0.6833 0.6267
C35 C 0.71074(13) 0.7035(3) 0.55360(15)
H24 H 0.6911 0.6562 0.5263
C36 C 0.74668(11) 0.7570(3) 0.53296(13)
C37 C 0.77608(14) 0.8227(3) 0.57654(17)
H25 H 0.8015 0.8574 0.5649
C38 C 0.76868(14) 0.8379(3) 0.63678(16)
H26 H 0.7888 0.8836 0.6647
O6 O 0.74990(9) 0.86729(18) 0.75978(10)
O7 O 0.69471(9) 0.74407(19) 0.74154(10)
C40 C 0.62864(12) 0.9442(3) 0.76967(17)
H28 H 0.6135 0.8824 0.7516
C43_2 C 0.30284(18) 0.8303(4) 0.3259(2)
H31_2 H 0.3002 0.8050 0.2848
C44_2 C 0.28788(11) 0.8567(3) 0.41382(14)
H32_2 H 0.2736 0.8571 0.4484
H33 H 0.5348 0.9360 0.7052
H34 H 0.4672 0.9914 0.6331
C60_2 C 0.35702(11) 0.9796(3) 0.45648(15)
C61_2 C 0.40468(13) 0.9870(4) 0.4574(2)
H43_2 H 0.4175 0.9472 0.4289
N12 N 0.67036(9) 0.9472(2) 0.81125(12)
N19_2 N 0.33688(15) 0.8962(4) 0.35308(18)
N20_2 N 0.32701(10) 0.9118(2) 0.41089(12)
N22 N 0.77356(11) 0.9198(2) 0.94624(13)
O8 O 0.73461(10) 0.8725(2) 0.93393(13)
O9 O 0.7904(2) 0.9364(3) 0.9007(2)
C32_2 C 0.27522(12) 0.8013(2) 0.77775(14)
C33_2 C 0.26776(12) 0.7868(3) 0.84368(14)
C34_2 C 0.29647(13) 0.7192(3) 0.88572(15)
H23_2 H 0.3212 0.6833 0.8733
C35_2 C 0.28926(13) 0.7035(3) 0.94640(15)
H24_2 H 0.3089 0.6562 0.9737
C36_2 C 0.25332(11) 0.7570(3) 0.96704(13)
C37_2 C 0.22392(14) 0.8227(3) 0.92346(17)
H25_2 H 0.1985 0.8574 0.9351
C38_2 C 0.23132(14) 0.8379(3) 0.86322(16)
H26_2 H 0.2112 0.8836 0.8353
O6_2 O 0.25010(9) 0.86729(18) 0.74022(10)
O7_2 O 0.30529(9) 0.74407(19) 0.75846(10)
C40_2 C 0.37136(12) 0.9442(3) 0.73033(17)
H28_2 H 0.3865 0.8824 0.7484
H33_2 H 0.4652 0.9360 0.7948
H34_2 H 0.5328 0.9914 0.8669
Co2 Co 0.28193(2) 0.81672(3) 0.66223(2)
N12_2 N 0.32964(9) 0.9472(2) 0.68875(12)
N22_2 N 0.22644(11) 0.9198(2) 0.55376(13)
O8_2 O 0.26539(10) 0.8725(2) 0.56607(13)
O9_2 O 0.2096(2) 0.9364(3) 0.5993(2)
O10 O 0.20998(12) 0.9493(3) 0.49986(14)
N24 N 0.33452(9) 0.7291(2) 0.62997(12)
N25 N 0.22788(10) 0.6983(2) 0.63866(13)
C5_2 C 0.19716(18) 0.6697(4) 0.6741(2)
H5_2 H 0.1998 0.6950 0.7152
C6_2 C 0.21212(11) 0.6433(3) 0.58618(14)
H6_2 H 0.2264 0.6429 0.5516
C9 C 0.00849(12) 0.4601(3) 0.35113(19)
H8 H 0.0328 0.5086 0.3669
C10 C 0.01354(11) 0.3538(3) 0.37111(16)
C13 C 0.10510(11) 0.0078(2) 0.39765(16)
C14 C 0.09297(14) 0.0708(3) 0.34431(17)
H11 H 0.0958 0.0447 0.3050
C15 C 0.07650(15) 0.1734(3) 0.34956(18)
H12 H 0.0684 0.2166 0.3137
C16 C 0.07216(11) 0.2116(3) 0.40753(16)
C17 C 0.08467(13) 0.1480(3) 0.46103(17)
H13_2 H 0.0816 0.1739 0.5002
C18 C 0.10166(13) 0.0461(3) 0.45632(16)
H14 H 0.1107 0.0036 0.4924
C19 C 0.08502(11) 0.3872(3) 0.45716(16)
C20 C 0.13299(12) 0.3960(3) 0.45860(16)
H15 H 0.1460 0.3568 0.4301
C21_2 C 0.16230(12) 0.4626(3) 0.50187(16)
H16_2 H 0.1948 0.4679 0.5026
C22_2 C 0.14298(11) 0.5204(3) 0.54352(15)
C23_2 C 0.09532(13) 0.5130(4) 0.5426(2)
H17_2 H 0.0825 0.5528 0.5711
C24 C 0.06626(13) 0.4470(4) 0.4998(2)
H18 H 0.0338 0.4423 0.4993
N8_2 N 0.16312(15) 0.6038(4) 0.64692(18)
N9_2 N 0.17299(10) 0.5882(2) 0.58911(12)
N10 N 0.05528(10) 0.3176(2) 0.41338(16)
C39_2 C 0.67737(12) 0.0519(3) 0.82255(16)
H27_2 H 0.7045 0.0783 0.8505
C41_2 C 0.34515(11) 0.6273(2) 0.64047(15)
H29_2 H 0.3326 0.5834 0.6673
C42_2 C 0.36076(14) 0.7574(3) 0.58852(19)
H30_2 H 0.3605 0.8262 0.5723
C45_2 C 0.56892(10) 0.0770(2) 0.71416(14)
C46_2 C 0.53212(12) 0.0065(3) 0.69156(18)
C47_2 C 0.49151(12) 0.0399(3) 0.64887(19)
C48_2 C 0.48646(11) 0.1462(3) 0.62889(16)
C49_2 C 0.52392(12) 0.2159(3) 0.65175(17)
H35_2 H 0.5213 0.2867 0.6386
C50_2 C 0.56522(12) 0.1818(2) 0.69393(16)
H36_2 H 0.5903 0.2292 0.7085
C51_2 C 0.39490(11) 0.4922(2) 0.60235(16)
C52_2 C 0.40703(14) 0.4292(3) 0.65569(17)
H37_2 H 0.4042 0.4553 0.6950
C53_2 C 0.42350(15) 0.3266(3) 0.65044(18)
H38_2 H 0.4316 0.2834 0.6863
C54_2 C 0.42784(11) 0.2884(3) 0.59247(16)
C55_2 C 0.41533(13) 0.3520(3) 0.53897(17)
H39_2 H 0.4184 0.3261 0.4998
C56_2 C 0.39834(13) 0.4539(3) 0.54368(16)
H40_2 H 0.3893 0.4964 0.5076
C57_2 C 0.41498(11) 0.1128(3) 0.54284(16)
C58_2 C 0.36701(12) 0.1040(3) 0.54140(16)
H41_2 H 0.3540 0.1432 0.5699
C59_2 C 0.33770(12) 0.0374(3) 0.49813(16)
H42_2 H 0.3052 0.0321 0.4974
C62_2 C 0.43374(13) 0.0530(4) 0.5002(2)
H44_2 H 0.4662 0.0577 0.5007
N13_2 N 0.61154(9) 0.04228(19) 0.75753(12)
N14_2 N 0.64329(10) 0.1140(2) 0.79150(14)
N16_2 N 0.37632(9) 0.5967(2) 0.60716(13)
N17_2 N 0.38690(13) 0.6803(2) 0.57256(18)
N21_2 N 0.44472(10) 0.1824(2) 0.58662(16)
C9_2 C 0.99151(12) 0.4601(3) 0.14887(19)
H8_2 H 0.9672 0.5086 0.1331
C10_2 C 0.98646(11) 0.3538(3) 0.12889(16)
C13_2 C 0.89490(11) 0.0078(2) 0.10235(16)
C14_2 C 0.90703(14) 0.0708(3) 0.15569(17)
H11_2 H 0.9042 0.0447 0.1950
C15_2 C 0.92350(15) 0.1734(3) 0.15044(18)
H12_2 H 0.9316 0.2166 0.1863
C16_2 C 0.92784(11) 0.2116(3) 0.09247(16)
C17_2 C 0.91533(13) 0.1480(3) 0.03897(17)
C18_2 C 0.89834(13) 0.0461(3) 0.04368(16)
H14_2 H 0.8893 0.0036 0.0076
C19_2 C 0.91498(11) 0.3872(3) 0.04284(16)
C20_2 C 0.86701(12) 0.3960(3) 0.04140(16)
H15_2 H 0.8540 0.3568 0.0699
C24_2 C 0.93374(13) 0.4470(4) 0.0002(2)
H18_2 H 0.9662 0.4423 0.0007
N10_2 N 0.94472(10) 0.3176(2) 0.08662(16)
O10_2 O 0.79002(12) 0.9493(3) 0.00014(14)
O5_2 O 0.70998(12) 0.5507(3) 0.99986(14)
C41_3 C 0.15485(11) 0.1273(2) 0.85953(15)
H29_3 H 0.1674 0.0834 0.8327
C42_3 C 0.13924(14) 0.2574(3) 0.91148(19)
H30_3 H 0.1395 0.3262 0.9277
N15_2 N 0.16548(9) 0.2291(2) 0.87003(12)
N16_3 N 0.12368(9) 0.0967(2) 0.89284(13)
N17_3 N 0.11310(13) 0.1803(2) 0.92744(18)
Co6_2 Co 0.21807(2) 0.31672(3) 0.83777(2)
C43_3 C 0.19716(18) 0.3303(4) 0.1741(2)
H31_3 H 0.1998 0.3050 0.2152
C44_3 C 0.21212(11) 0.3567(3) 0.08618(14)
H32_3 H 0.2264 0.3571 0.0516
H39_3 H 0.0816 0.8261 0.0002
C59_3 C 0.16230(12) 0.5374(3) 0.00187(16)
H42_3 H 0.1948 0.5321 0.0026
C60_3 C 0.14298(11) 0.4796(3) 0.04352(15)
C61_3 C 0.09532(13) 0.4870(4) 0.0426(2)
H43_3 H 0.0825 0.4472 0.0711
N18_2 N 0.22788(10) 0.3017(2) 0.13866(13)
N19_3 N 0.16312(15) 0.3962(4) 0.14692(18)
N20_3 N 0.17299(10) 0.4118(2) 0.08911(12)
Co4_2 Co 0.28193(2) 0.18328(3) 0.16223(2)
C5_3 C 0.30284(18) 0.1697(4) 0.8259(2)
H5_3 H 0.3002 0.1950 0.7848
C6_3 C 0.28788(11) 0.1433(3) 0.91382(14)
H6_3 H 0.2736 0.1429 0.9484
C22_3 C 0.35702(11) 0.0204(3) 0.95648(15)
C23_3 C 0.40468(13) 0.0130(4) 0.9574(2)
H17_3 H 0.4175 0.0528 0.9289
N7_2 N 0.27212(10) 0.1983(2) 0.86134(13)
N8_3 N 0.33688(15) 0.1038(4) 0.85308(18)
N9_3 N 0.32701(10) 0.0882(2) 0.91089(12)
C32_3 C 0.77522(12) 0.3013(2) 0.77775(14)
C33_3 C 0.76776(12) 0.2868(3) 0.84368(14)
C34_3 C 0.79647(13) 0.2192(3) 0.88572(15)
H23_3 H 0.8212 0.1833 0.8733
C35_3 C 0.78926(13) 0.2035(3) 0.94640(15)
H24_3 H 0.8089 0.1562 0.9737
C36_3 C 0.75332(11) 0.2570(3) 0.96704(13)
C37_3 C 0.72392(14) 0.3227(3) 0.92346(17)
H25_3 H 0.6985 0.3574 0.9351
C38_3 C 0.73132(14) 0.3379(3) 0.86322(16)
H26_3 H 0.7112 0.3836 0.8353
O6_3 O 0.75010(9) 0.36729(18) 0.74022(10)
O7_3 O 0.80529(9) 0.24407(19) 0.75846(10)
C39_3 C 0.82263(12) 0.5519(3) 0.67745(16)
H27_3 H 0.7955 0.5783 0.6495
C40_3 C 0.87136(12) 0.4442(3) 0.73033(17)
H28_3 H 0.8865 0.3824 0.7484
C45_3 C 0.93108(10) 0.5770(2) 0.78584(14)
C46_3 C 0.96788(12) 0.5065(3) 0.80844(18)
H33_3 H 0.9652 0.4360 0.7948
C49_3 C 0.97608(12) 0.7159(3) 0.84825(17)
H35_3 H 0.9787 0.7867 0.8614
C50_3 C 0.93478(12) 0.6818(2) 0.80607(16)
H36_3 H 0.9097 0.7292 0.7915
Co2_2 Co 0.78193(2) 0.31672(3) 0.66223(2)
N12_3 N 0.82964(9) 0.4472(2) 0.68875(12)
N13_3 N 0.88846(9) 0.54228(19) 0.74247(12)
N14_3 N 0.85671(10) 0.6140(2) 0.70850(14)
N22_3 N 0.72644(11) 0.4198(2) 0.55376(13)
O8_3 O 0.76539(10) 0.3725(2) 0.56607(13)
O9_3 O 0.7096(2) 0.4364(3) 0.5993(2)
O10_3 O 0.70998(12) 0.4493(3) 0.49986(14)
N24_2 N 0.83452(9) 0.2291(2) 0.62997(12)
N25_2 N 0.72788(10) 0.1983(2) 0.63866(13)
C1_3 C 0.67737(12) 0.9481(3) 0.32255(16)
H1_3 H 0.7045 0.9217 0.3505
C3_3 C 0.34515(11) 0.3727(2) 0.14047(15)
H3_3 H 0.3326 0.4166 0.1673
C4_3 C 0.36076(14) 0.2426(3) 0.08852(19)
H4_3 H 0.3605 0.1738 0.0723
C7_3 C 0.56892(10) 0.9230(2) 0.21416(14)
C8_3 C 0.53212(12) 0.9935(3) 0.19156(18)
C9_3 C 0.49151(12) 0.9601(3) 0.14887(19)
C10_3 C 0.48646(11) 0.8538(3) 0.12889(16)
C11_3 C 0.52392(12) 0.7841(3) 0.15175(17)
H9_3 H 0.5213 0.7133 0.1386
C12_3 C 0.56522(12) 0.8182(2) 0.19393(16)
H10_3 H 0.5903 0.7708 0.2085
C13_3 C 0.39490(11) 0.5078(2) 0.10235(16)
C14_3 C 0.40703(14) 0.5708(3) 0.15569(17)
H11_3 H 0.4042 0.5447 0.1950
C15_3 C 0.42350(15) 0.6734(3) 0.15044(18)
H12_3 H 0.4316 0.7166 0.1863
C16_3 C 0.42784(11) 0.7116(3) 0.09247(16)
C17_3 C 0.41533(13) 0.6480(3) 0.03897(17)
C18_3 C 0.39834(13) 0.5461(3) 0.04368(16)
H14_3 H 0.3893 0.5036 0.0076
C19_3 C 0.41498(11) 0.8872(3) 0.04284(16)
C20_3 C 0.36701(12) 0.8960(3) 0.04140(16)
H15_3 H 0.3540 0.8568 0.0699
C24_3 C 0.43374(13) 0.9470(4) 0.0002(2)
H18_3 H 0.4662 0.9423 0.0007
N2_3 N 0.61154(9) 0.95772(19) 0.25753(12)
N3_3 N 0.64329(10) 0.8860(2) 0.29150(14)
N4_2 N 0.33452(9) 0.2709(2) 0.12997(12)
N5_3 N 0.37632(9) 0.4033(2) 0.10716(13)
N6_3 N 0.38690(13) 0.3197(2) 0.07256(18)
N10_3 N 0.44472(10) 0.8176(2) 0.08662(16)
C2_3 C 0.37136(12) 0.0558(3) 0.23033(17)
H2_3 H 0.3865 0.1176 0.2484
C5_4 C 0.69716(18) 0.1697(4) 0.6741(2)
H5_4 H 0.6998 0.1950 0.7152
C6_4 C 0.71212(11) 0.1433(3) 0.58618(14)
H6_4 H 0.7264 0.1429 0.5516
H7_3 H 0.4652 0.0640 0.2948
H8_3 H 0.5328 0.0086 0.3669
C22_4 C 0.64298(11) 0.0204(3) 0.54352(15)
C23_4 C 0.59532(13) 0.0130(4) 0.5426(2)
H17_4 H 0.5825 0.0528 0.5711
C25_3 C 0.27522(12) 0.1987(2) 0.27775(14)
C26_3 C 0.26776(12) 0.2132(3) 0.34368(14)
C27_3 C 0.29647(13) 0.2808(3) 0.38572(15)
H19_3 H 0.3212 0.3167 0.3733
C28_3 C 0.28926(13) 0.2965(3) 0.44640(15)
H20_3 H 0.3089 0.3438 0.4737
C29_3 C 0.25332(11) 0.2430(3) 0.46704(13)
C30_3 C 0.22392(14) 0.1773(3) 0.42346(17)
H21_3 H 0.1985 0.1426 0.4351
C31_3 C 0.23132(14) 0.1621(3) 0.36322(16)
H22_3 H 0.2112 0.1164 0.3353
N1_3 N 0.32964(9) 0.0528(2) 0.18875(12)
N8_4 N 0.66312(15) 0.1038(4) 0.64692(18)
N9_4 N 0.67299(10) 0.0882(2) 0.58911(12)
N11_3 N 0.22644(11) 0.0802(2) 0.05376(13)
O1_3 O 0.25010(9) 0.13271(18) 0.24022(10)
O2_3 O 0.30529(9) 0.25593(19) 0.25846(10)
O3_3 O 0.26539(10) 0.1275(2) 0.06607(13)
O4_3 O 0.2096(2) 0.0636(3) 0.0993(2)
C32_4 C 0.22478(12) 0.3013(2) 0.72225(14)
C33_4 C 0.23224(12) 0.2868(3) 0.65632(14)
C34_4 C 0.20353(13) 0.2192(3) 0.61428(15)
H23_4 H 0.1788 0.1833 0.6267
C35_4 C 0.21074(13) 0.2035(3) 0.55360(15)
H24_4 H 0.1911 0.1562 0.5263
C36_4 C 0.24668(11) 0.2570(3) 0.53296(13)
C37_4 C 0.27608(14) 0.3227(3) 0.57654(17)
H25_4 H 0.3015 0.3574 0.5649
C38_4 C 0.26868(14) 0.3379(3) 0.63678(16)
H26_4 H 0.2888 0.3836 0.6647
O6_4 O 0.24990(9) 0.36729(18) 0.75978(10)
O7_4 O 0.19471(9) 0.24407(19) 0.74154(10)
C39_4 C 0.17737(12) 0.5519(3) 0.82255(16)
H27_4 H 0.2045 0.5783 0.8505
C40_4 C 0.12864(12) 0.4442(3) 0.76967(17)
H28_4 H 0.1135 0.3824 0.7516
C45_4 C 0.06892(10) 0.5770(2) 0.71416(14)
C46_4 C 0.03212(12) 0.5065(3) 0.69156(18)
H33_4 H 0.0348 0.4360 0.7052
C49_4 C 0.02392(12) 0.7159(3) 0.65175(17)
H35_4 H 0.0213 0.7867 0.6386
C50_4 C 0.06522(12) 0.6818(2) 0.69393(16)
H36_4 H 0.0903 0.7292 0.7085
N12_4 N 0.17036(9) 0.4472(2) 0.81125(12)
N13_4 N 0.11154(9) 0.54228(19) 0.75753(12)
N14_4 N 0.14329(10) 0.6140(2) 0.79150(14)
N22_4 N 0.27356(11) 0.4198(2) 0.94624(13)
O8_4 O 0.23461(10) 0.3725(2) 0.93393(13)
O9_4 O 0.2904(2) 0.4364(3) 0.9007(2)
C41_4 C 0.84515(11) 0.1273(2) 0.64047(15)
H29_4 H 0.8326 0.0834 0.6673
C42_4 C 0.86076(14) 0.2574(3) 0.58852(19)
H30_4 H 0.8605 0.3262 0.5723
N16_4 N 0.87632(9) 0.0967(2) 0.60716(13)
N17_4 N 0.88690(13) 0.1803(2) 0.57256(18)
C47_3 C 0.00849(12) 0.5399(3) 0.85113(19)
H34_3 H 0.0328 0.4914 0.8669
C48_3 C 0.01354(11) 0.6462(3) 0.87111(16)
C51_3 C 0.10510(11) 0.9922(2) 0.89765(16)
C52_3 C 0.09297(14) 0.9292(3) 0.84431(17)
H37_3 H 0.0958 0.9553 0.8050
C53_3 C 0.07650(15) 0.8266(3) 0.84956(18)
H38_3 H 0.0684 0.7834 0.8137
C54_3 C 0.07216(11) 0.7884(3) 0.90753(16)
C55_3 C 0.08467(13) 0.8520(3) 0.96103(17)
C56_3 C 0.10166(13) 0.9539(3) 0.95632(16)
H40_3 H 0.1107 0.9964 0.9924
C57_3 C 0.08502(11) 0.6128(3) 0.95716(16)
C58_3 C 0.13299(12) 0.6040(3) 0.95860(16)
H41_3 H 0.1460 0.6432 0.9301
C62_3 C 0.06626(13) 0.5530(4) 0.9998(2)
H44_3 H 0.0338 0.5577 0.9993
N21_3 N 0.05528(10) 0.6824(2) 0.91338(16)
C2_4 C 0.62864(12) 0.0558(3) 0.26967(17)
H2_4 H 0.6135 0.1176 0.2516
H7_4 H 0.5348 0.0640 0.2052
H8_4 H 0.4672 0.0086 0.1331
C25_4 C 0.72478(12) 0.1987(2) 0.22225(14)
C26_4 C 0.73224(12) 0.2132(3) 0.15632(14)
C27_4 C 0.70353(13) 0.2808(3) 0.11428(15)
H19_4 H 0.6788 0.3167 0.1267
C28_4 C 0.71074(13) 0.2965(3) 0.05360(15)
H20_4 H 0.6911 0.3438 0.0263
C29_4 C 0.74668(11) 0.2430(3) 0.03296(13)
C30_4 C 0.77608(14) 0.1773(3) 0.07654(17)
H21_4 H 0.8015 0.1426 0.0649
C31_4 C 0.76868(14) 0.1621(3) 0.13678(16)
H22_4 H 0.7888 0.1164 0.1647
Co1_2 Co 0.71807(2) 0.18328(3) 0.33777(2)
N1_4 N 0.67036(9) 0.0528(2) 0.31125(12)
N11_4 N 0.77356(11) 0.0802(2) 0.44624(13)
O1_4 O 0.74990(9) 0.13271(18) 0.25978(10)
O2_4 O 0.69471(9) 0.25593(19) 0.24154(10)
O3_4 O 0.73461(10) 0.1275(2) 0.43393(13)
O4_4 O 0.7904(2) 0.0636(3) 0.4007(2)
O5_3 O 0.79002(12) 0.0507(3) 0.50014(14)
N23_2 N 0.66548(9) 0.2709(2) 0.37003(12)
N26_2 N 0.77212(10) 0.3017(2) 0.36134(13)
C1_4 C 0.32263(12) 0.9481(3) 0.17745(16)
H1_4 H 0.2955 0.9217 0.1495
C3_4 C 0.65485(11) 0.3727(2) 0.35953(15)
H3_4 H 0.6674 0.4166 0.3327
C4_4 C 0.63924(14) 0.2426(3) 0.41148(19)
H4_4 H 0.6395 0.1738 0.4277
C7_4 C 0.43108(10) 0.9230(2) 0.28584(14)
C8_4 C 0.46788(12) 0.9935(3) 0.30844(18)
C9_4 C 0.50849(12) 0.9601(3) 0.35113(19)
C10_4 C 0.51354(11) 0.8538(3) 0.37111(16)
C11_4 C 0.47608(12) 0.7841(3) 0.34825(17)
H9_4 H 0.4787 0.7133 0.3614
C12_4 C 0.43478(12) 0.8182(2) 0.30607(16)
H10_4 H 0.4097 0.7708 0.2915
C13_4 C 0.60510(11) 0.5078(2) 0.39765(16)
C14_4 C 0.59297(14) 0.5708(3) 0.34431(17)
H11_4 H 0.5958 0.5447 0.3050
C15_4 C 0.57650(15) 0.6734(3) 0.34956(18)
H12_4 H 0.5684 0.7166 0.3137
C16_4 C 0.57216(11) 0.7116(3) 0.40753(16)
C17_4 C 0.58467(13) 0.6480(3) 0.46103(17)
H13_3 H 0.5816 0.6739 0.5002
C18_4 C 0.60166(13) 0.5461(3) 0.45632(16)
H14_4 H 0.6107 0.5036 0.4924
C19_4 C 0.58502(11) 0.8872(3) 0.45716(16)
C20_4 C 0.63299(12) 0.8960(3) 0.45860(16)
H15_4 H 0.6460 0.8568 0.4301
C21_3 C 0.66230(12) 0.9626(3) 0.50187(16)
H16_3 H 0.6948 0.9679 0.5026
C24_4 C 0.56626(13) 0.9470(4) 0.4998(2)
H18_4 H 0.5338 0.9423 0.4993
N2_4 N 0.38846(9) 0.95772(19) 0.24247(12)
N3_4 N 0.35671(10) 0.8860(2) 0.20850(14)
N5_4 N 0.62368(9) 0.4033(2) 0.39284(13)
N6_4 N 0.61310(13) 0.3197(2) 0.42744(18)
N10_4 N 0.55528(10) 0.8176(2) 0.41338(16)
C43_4 C 0.80284(18) 0.3303(4) 0.3259(2)
H31_4 H 0.8002 0.3050 0.2848
C44_4 C 0.78788(11) 0.3567(3) 0.41382(14)
H32_4 H 0.7736 0.3571 0.4484
C47_4 C 0.99151(12) 0.5399(3) 0.64887(19)
H34_4 H 0.9672 0.4914 0.6331
C48_4 C 0.98646(11) 0.6462(3) 0.62889(16)
C51_4 C 0.89490(11) 0.9922(2) 0.60235(16)
C52_4 C 0.90703(14) 0.9292(3) 0.65569(17)
H37_4 H 0.9042 0.9553 0.6950
C53_4 C 0.92350(15) 0.8266(3) 0.65044(18)
H38_4 H 0.9316 0.7834 0.6863
C54_4 C 0.92784(11) 0.7884(3) 0.59247(16)
C55_4 C 0.91533(13) 0.8520(3) 0.53897(17)
H39_4 H 0.9184 0.8261 0.4998
C56_4 C 0.89834(13) 0.9539(3) 0.54368(16)
H40_4 H 0.8893 0.9964 0.5076
C57_4 C 0.91498(11) 0.6128(3) 0.54284(16)
C58_4 C 0.86701(12) 0.6040(3) 0.54140(16)
H41_4 H 0.8540 0.6432 0.5699
C59_4 C 0.83770(12) 0.5374(3) 0.49813(16)
H42_4 H 0.8052 0.5321 0.4974
C60_4 C 0.85702(11) 0.4796(3) 0.45648(15)
C61_4 C 0.90468(13) 0.4870(4) 0.4574(2)
H43_4 H 0.9175 0.4472 0.4289
C62_4 C 0.93374(13) 0.5530(4) 0.5002(2)
H44_4 H 0.9662 0.5577 0.5007
N19_4 N 0.83688(15) 0.3962(4) 0.35308(18)
N20_4 N 0.82701(10) 0.4118(2) 0.41089(12)
N21_4 N 0.94472(10) 0.6824(2) 0.58662(16)
H13_4 H 0.4184 0.6739 0.9998
C21_4 C 0.33770(12) 0.9626(3) 0.99813(16)
H16_4 H 0.3052 0.9679 0.9974
O10_4 O 0.29002(12) 0.4493(3) 0.00014(14)
O5_4 O 0.20998(12) 0.0507(3) 0.99986(14)
loop_
_geom_bond_atom_site_label_1
_geom_bond_atom_site_label_2
_geom_bond_site_symmetry_1
_geom_bond_site_symmetry_2
H42 C59 1_555 1_555
C39 H27 1_555 1_555
C41 H29 1_555 1_555
C42 H30 1_555 1_555
C45 C46 1_555 1_555
C47 C46 1_555 1_555
C48 C47 1_555 1_555
C49 C48 1_555 1_555
H35 C49 1_555 1_555
C50 C45 1_555 1_555
H36 C50 1_555 1_555
C51 C52 1_555 1_555
C52 H37 1_555 1_555
C53 C52 1_555 1_555
H38 C53 1_555 1_555
C54 C53 1_555 1_555
C55 C54 1_555 1_555
C56 C51 1_555 1_555
H40 C56 1_555 1_555
C57 C58 1_555 1_555
C58 H41 1_555 1_555
C62 C57 1_555 1_555
H44 C62 1_555 1_555
N14 C39 1_555 1_555
N15 C41 1_555 1_555
N16 C41 1_555 1_555
N17 C42 1_555 1_555
N21 C48 1_555 1_555
Co6 N15 1_555 1_555
C42 N15 1_555 1_555
C45 N13 1_555 1_555
C49 C50 1_555 1_555
C51 N16 1_555 1_555
C54 N21 1_555 1_555
C55 C56 1_555 1_555
C57 N21 1_555 1_555
N13 N14 1_555 1_555
N16 N17 1_555 1_555
C1 H1 1_555 1_555
C2 H2 1_555 1_555
C7 C8 1_555 1_555
C8 H7 1_555 1_555
H9 C11 1_555 1_555
C12 C7 1_555 1_555
H10 C12 1_555 1_555
C25 C26 1_555 1_555
C26 C27 1_555 1_555
C27 H19 1_555 1_555
C28 C27 1_555 1_555
H20 C28 1_555 1_555
C29 C28 1_555 1_555
C30 C29 1_555 1_555
H21 C30 1_555 1_555
C31 C26 1_555 1_555
H22 C31 1_555 1_555
Co1 N1 1_555 1_555
N1 C1 1_555 1_555
N2 C2 1_555 1_555
N3 C1 1_555 1_555
N11 O3 1_555 1_555
O1 C25 1_555 1_555
O2 C25 1_555 1_555
O3 Co1 1_555 1_555
O4 N11 1_555 1_555
O5 N11 1_555 1_555
C43 H31 1_555 1_555
C44 H32 1_555 1_555
C61 C60 1_555 1_555
H43 C61 1_555 1_555
N18 C43 1_555 1_555
N19 C43 1_555 1_555
N20 C44 1_555 1_555
Co4 N18 1_555 1_555
N23 Co1 1_555 1_555
N26 Co1 1_555 1_555
C2 N1 1_555 1_555
C7 N2 1_555 1_555
C11 C12 1_555 1_555
C30 C31 1_555 1_555
Co1 O1 1_555 1_555
Co1 O2 1_555 1_555
N2 N3 1_555 1_555
C44 N18 1_555 1_555
C60 N20 1_555 1_555
N19 N20 1_555 1_555
C5 H5 1_555 1_555
C6 H6 1_555 1_555
H16 C21 1_555 1_555
C22 C21 1_555 1_555
C23 C22 1_555 1_555
H17 C23 1_555 1_555
N7 C5 1_555 1_555
N8 C5 1_555 1_555
N9 C6 1_555 1_555
Co6 N7 1_555 1_555
C6 N7 1_555 1_555
C22 N9 1_555 1_555
N8 N9 1_555 1_555
C3 H3 1_555 1_555
C4 H4 1_555 1_555
N4 C3 1_555 1_555
N5 C3 1_555 1_555
N6 C4 1_555 1_555
Co4 N4 1_555 1_555
C4 N4 1_555 1_555
N5 N6 1_555 1_555
C3_2 H3_2 1_555 1_555
C4_2 H4_2 1_555 1_555
N23 C3_2 1_555 1_555
N5_2 C3_2 1_555 1_555
N6_2 C4_2 1_555 1_555
C4_2 N23 1_555 1_555
N5_2 N6_2 1_555 1_555
C1_2 H1_2 1_555 1_555
C2_2 H2_2 1_555 1_555
C7_2 C8_2 1_555 1_555
C8_2 H7_2 1_555 1_555
H9_2 C11_2 1_555 1_555
C12_2 C7_2 1_555 1_555
H10_2 C12_2 1_555 1_555
C25_2 C26_2 1_555 1_555
C26_2 C27_2 1_555 1_555
C27_2 H19_2 1_555 1_555
C28_2 C27_2 1_555 1_555
H20_2 C28_2 1_555 1_555
C29_2 C28_2 1_555 1_555
C30_2 C29_2 1_555 1_555
H21_2 C30_2 1_555 1_555
C31_2 C26_2 1_555 1_555
H22_2 C31_2 1_555 1_555
Co4 N1_2 1_555 1_555
N1_2 C1_2 1_555 1_555
N2_2 C2_2 1_555 1_555
N3_2 C1_2 1_555 1_555
N11_2 O3_2 1_555 1_555
O1_2 C25_2 1_555 1_555
O2_2 C25_2 1_555 1_555
O3_2 Co4 1_555 1_555
O4_2 N11_2 1_555 1_555
C32 C33 1_555 1_555
C33 C34 1_555 1_555
C34 H23 1_555 1_555
C35 C34 1_555 1_555
H24 C35 1_555 1_555
C36 C29_2 1_555 1_555
C37 C36 1_555 1_555
H25 C37 1_555 1_555
C38 C33 1_555 1_555
H26 C38 1_555 1_555
O6 C32 1_555 1_555
O7 C32 1_555 1_555
C40 H28 1_555 1_555
C43_2 H31_2 1_555 1_555
C44_2 H32_2 1_555 1_555
C61_2 C60_2 1_555 1_555
H43_2 C61_2 1_555 1_555
Co6 O6 1_555 1_555
N26 C43_2 1_555 1_555
N19_2 C43_2 1_555 1_555
N20_2 C44_2 1_555 1_555
N22 O8 1_555 1_555
O8 Co6 1_555 1_555
O9 N22 1_555 1_555
C2_2 N1_2 1_555 1_555
C7_2 N2_2 1_555 1_555
C11_2 C12_2 1_555 1_555
C30_2 C31_2 1_555 1_555
Co4 O1_2 1_555 1_555
Co4 O2_2 1_555 1_555
N2_2 N3_2 1_555 1_555
C35 C36 1_555 1_555
C37 C38 1_555 1_555
O7 Co6 1_555 1_555
C40 N12 1_555 1_555
C44_2 N26 1_555 1_555
C60_2 N20_2 1_555 1_555
Co6 N12 1_555 1_555
N19_2 N20_2 1_555 1_555
C32_2 C33_2 1_555 1_555
C33_2 C34_2 1_555 1_555
C34_2 H23_2 1_555 1_555
C35_2 C34_2 1_555 1_555
H24_2 C35_2 1_555 1_555
C37_2 C36_2 1_555 1_555
H25_2 C37_2 1_555 1_555
C38_2 C33_2 1_555 1_555
H26_2 C38_2 1_555 1_555
O6_2 C32_2 1_555 1_555
O7_2 C32_2 1_555 1_555
C40_2 H28_2 1_555 1_555
Co2 O6_2 1_555 1_555
N22_2 O8_2 1_555 1_555
O8_2 Co2 1_555 1_555
O9_2 N22_2 1_555 1_555
O10 N22_2 1_555 1_555
N24 Co2 1_555 1_555
N25 Co2 1_555 1_555
C35_2 C36_2 1_555 1_555
C37_2 C38_2 1_555 1_555
O7_2 Co2 1_555 1_555
C40_2 N12_2 1_555 1_555
Co2 N12_2 1_555 1_555
C5_2 H5_2 1_555 1_555
C6_2 H6_2 1_555 1_555
H8 C9 1_555 1_555
C10 C9 1_555 1_555
C13 C14 1_555 1_555
C14 H11 1_555 1_555
C15 C14 1_555 1_555
H12 C15 1_555 1_555
C16 C15 1_555 1_555
C17 C16 1_555 1_555
H13_2 C17 1_555 1_555
C18 C13 1_555 1_555
H14 C18 1_555 1_555
C19 C20 1_555 1_555
C20 H15 1_555 1_555
C21_2 C20 1_555 1_555
H16_2 C21_2 1_555 1_555
C22_2 C21_2 1_555 1_555
C23_2 C22_2 1_555 1_555
H17_2 C23_2 1_555 1_555
C24 C19 1_555 1_555
H18 C24 1_555 1_555
N25 C5_2 1_555 1_555
N8_2 C5_2 1_555 1_555
N9_2 C6_2 1_555 1_555
N10 C10 1_555 1_555
C6_2 N25 1_555 1_555
C16 N10 1_555 1_555
C17 C18 1_555 1_555
C19 N10 1_555 1_555
C22_2 N9_2 1_555 1_555
C23_2 C24 1_555 1_555
N8_2 N9_2 1_555 1_555
C39_2 H27_2 1_555 1_555
C41_2 H29_2 1_555 1_555
C42_2 H30_2 1_555 1_555
C45_2 C46_2 1_555 1_555
C47_2 C46_2 1_555 1_555
C48_2 C47_2 1_555 1_555
C49_2 C48_2 1_555 1_555
H35_2 C49_2 1_555 1_555
C50_2 C45_2 1_555 1_555
H36_2 C50_2 1_555 1_555
C51_2 C52_2 1_555 1_555
C52_2 H37_2 1_555 1_555
C53_2 C52_2 1_555 1_555
H38_2 C53_2 1_555 1_555
C54_2 C53_2 1_555 1_555
C55_2 C54_2 1_555 1_555
H39_2 C55_2 1_555 1_555
C56_2 C51_2 1_555 1_555
H40_2 C56_2 1_555 1_555
C57_2 C58_2 1_555 1_555
C58_2 H41_2 1_555 1_555
C59_2 C58_2 1_555 1_555
H42_2 C59_2 1_555 1_555
C62_2 C57_2 1_555 1_555
H44_2 C62_2 1_555 1_555
N14_2 C39_2 1_555 1_555
N24 C41_2 1_555 1_555
N16_2 C41_2 1_555 1_555
N17_2 C42_2 1_555 1_555
N21_2 C48_2 1_555 1_555
C42_2 N24 1_555 1_555
C45_2 N13_2 1_555 1_555
C49_2 C50_2 1_555 1_555
C51_2 N16_2 1_555 1_555
C54_2 N21_2 1_555 1_555
C55_2 C56_2 1_555 1_555
C57_2 N21_2 1_555 1_555
N13_2 N14_2 1_555 1_555
N16_2 N17_2 1_555 1_555
H8_2 C9_2 1_555 1_555
C10_2 C9_2 1_555 1_555
C13_2 C14_2 1_555 1_555
C14_2 H11_2 1_555 1_555
C15_2 C14_2 1_555 1_555
H12_2 C15_2 1_555 1_555
C16_2 C15_2 1_555 1_555
C17_2 C16_2 1_555 1_555
C18_2 C13_2 1_555 1_555
H14_2 C18_2 1_555 1_555
C19_2 C20_2 1_555 1_555
C20_2 H15_2 1_555 1_555
C24_2 C19_2 1_555 1_555
H18_2 C24_2 1_555 1_555
N10_2 C10_2 1_555 1_555
C16_2 N10_2 1_555 1_555
C17_2 C18_2 1_555 1_555
C19_2 N10_2 1_555 1_555
C41_3 H29_3 1_555 1_555
C42_3 H30_3 1_555 1_555
N15_2 C41_3 1_555 1_555
N16_3 C41_3 1_555 1_555
N17_3 C42_3 1_555 1_555
Co6_2 N15_2 1_555 1_555
C42_3 N15_2 1_555 1_555
N16_3 N17_3 1_555 1_555
C43_3 H31_3 1_555 1_555
C44_3 H32_3 1_555 1_555
H42_3 C59_3 1_555 1_555
C60_3 C59_3 1_555 1_555
C61_3 C60_3 1_555 1_555
H43_3 C61_3 1_555 1_555
N18_2 C43_3 1_555 1_555
N19_3 C43_3 1_555 1_555
N20_3 C44_3 1_555 1_555
Co4_2 N18_2 1_555 1_555
C44_3 N18_2 1_555 1_555
C60_3 N20_3 1_555 1_555
N19_3 N20_3 1_555 1_555
C5_3 H5_3 1_555 1_555
C6_3 H6_3 1_555 1_555
C23_3 C22_3 1_555 1_555
H17_3 C23_3 1_555 1_555
N7_2 C5_3 1_555 1_555
N8_3 C5_3 1_555 1_555
N9_3 C6_3 1_555 1_555
C32_3 C33_3 1_555 1_555
C33_3 C34_3 1_555 1_555
C34_3 H23_3 1_555 1_555
C35_3 C34_3 1_555 1_555
H24_3 C35_3 1_555 1_555
C37_3 C36_3 1_555 1_555
H25_3 C37_3 1_555 1_555
C38_3 C33_3 1_555 1_555
H26_3 C38_3 1_555 1_555
O6_3 C32_3 1_555 1_555
O7_3 C32_3 1_555 1_555
C39_3 H27_3 1_555 1_555
C40_3 H28_3 1_555 1_555
C45_3 C46_3 1_555 1_555
C46_3 H33_3 1_555 1_555
H35_3 C49_3 1_555 1_555
C50_3 C45_3 1_555 1_555
H36_3 C50_3 1_555 1_555
Co2_2 O6_3 1_555 1_555
N12_3 C39_3 1_555 1_555
N13_3 C40_3 1_555 1_555
N14_3 C39_3 1_555 1_555
N22_3 O8_3 1_555 1_555
O8_3 Co2_2 1_555 1_555
O9_3 N22_3 1_555 1_555
O10_3 N22_3 1_555 1_555
Co6_2 N7_2 1_555 1_555
N24_2 Co2_2 1_555 1_555
N25_2 Co2_2 1_555 1_555
C6_3 N7_2 1_555 1_555
C22_3 N9_3 1_555 1_555
N8_3 N9_3 1_555 1_555
C35_3 C36_3 1_555 1_555
C37_3 C38_3 1_555 1_555
O7_3 Co2_2 1_555 1_555
C40_3 N12_3 1_555 1_555
C45_3 N13_3 1_555 1_555
C49_3 C50_3 1_555 1_555
Co2_2 N12_3 1_555 1_555
N13_3 N14_3 1_555 1_555
C1_3 H1_3 1_555 1_555
C3_3 H3_3 1_555 1_555
C4_3 H4_3 1_555 1_555
C7_3 C8_3 1_555 1_555
C9_3 C8_3 1_555 1_555
C10_3 C9_3 1_555 1_555
C11_3 C10_3 1_555 1_555
H9_3 C11_3 1_555 1_555
C12_3 C7_3 1_555 1_555
H10_3 C12_3 1_555 1_555
C13_3 C14_3 1_555 1_555
C14_3 H11_3 1_555 1_555
C15_3 C14_3 1_555 1_555
H12_3 C15_3 1_555 1_555
C16_3 C15_3 1_555 1_555
C17_3 C16_3 1_555 1_555
C18_3 C13_3 1_555 1_555
H14_3 C18_3 1_555 1_555
C19_3 C20_3 1_555 1_555
C20_3 H15_3 1_555 1_555
C24_3 C19_3 1_555 1_555
H18_3 C24_3 1_555 1_555
N3_3 C1_3 1_555 1_555
N4_2 C3_3 1_555 1_555
N5_3 C3_3 1_555 1_555
N6_3 C4_3 1_555 1_555
N10_3 C10_3 1_555 1_555
Co4_2 N4_2 1_555 1_555
C4_3 N4_2 1_555 1_555
C7_3 N2_3 1_555 1_555
C11_3 C12_3 1_555 1_555
C13_3 N5_3 1_555 1_555
C16_3 N10_3 1_555 1_555
C17_3 C18_3 1_555 1_555
C19_3 N10_3 1_555 1_555
N2_3 N3_3 1_555 1_555
N5_3 N6_3 1_555 1_555
C2_3 H2_3 1_555 1_555
C5_4 H5_4 1_555 1_555
C6_4 H6_4 1_555 1_555
C23_4 C22_4 1_555 1_555
H17_4 C23_4 1_555 1_555
C25_3 C26_3 1_555 1_555
C26_3 C27_3 1_555 1_555
C27_3 H19_3 1_555 1_555
C28_3 C27_3 1_555 1_555
H20_3 C28_3 1_555 1_555
C29_3 C28_3 1_555 1_555
C30_3 C29_3 1_555 1_555
H21_3 C30_3 1_555 1_555
C31_3 C26_3 1_555 1_555
H22_3 C31_3 1_555 1_555
Co4_2 N1_3 1_555 1_555
N25_2 C5_4 1_555 1_555
N8_4 C5_4 1_555 1_555
N9_4 C6_4 1_555 1_555
N11_3 O3_3 1_555 1_555
O1_3 C25_3 1_555 1_555
O2_3 C25_3 1_555 1_555
O3_3 Co4_2 1_555 1_555
O4_3 N11_3 1_555 1_555
C32_4 C33_4 1_555 1_555
C33_4 C34_4 1_555 1_555
C34_4 H23_4 1_555 1_555
C35_4 C34_4 1_555 1_555
H24_4 C35_4 1_555 1_555
C36_4 C29_3 1_555 1_555
C37_4 C36_4 1_555 1_555
H25_4 C37_4 1_555 1_555
C38_4 C33_4 1_555 1_555
H26_4 C38_4 1_555 1_555
O6_4 C32_4 1_555 1_555
O7_4 C32_4 1_555 1_555
C39_4 H27_4 1_555 1_555
C40_4 H28_4 1_555 1_555
C45_4 C46_4 1_555 1_555
C46_4 H33_4 1_555 1_555
H35_4 C49_4 1_555 1_555
C50_4 C45_4 1_555 1_555
H36_4 C50_4 1_555 1_555
Co6_2 O6_4 1_555 1_555
N12_4 C39_4 1_555 1_555
N13_4 C40_4 1_555 1_555
N14_4 C39_4 1_555 1_555
N22_4 O8_4 1_555 1_555
O8_4 Co6_2 1_555 1_555
O9_4 N22_4 1_555 1_555
C2_3 N1_3 1_555 1_555
C6_4 N25_2 1_555 1_555
C22_4 N9_4 1_555 1_555
C30_3 C31_3 1_555 1_555
Co4_2 O1_3 1_555 1_555
Co4_2 O2_3 1_555 1_555
N8_4 N9_4 1_555 1_555
C35_4 C36_4 1_555 1_555
C37_4 C38_4 1_555 1_555
O7_4 Co6_2 1_555 1_555
C40_4 N12_4 1_555 1_555
C45_4 N13_4 1_555 1_555
C49_4 C50_4 1_555 1_555
Co6_2 N12_4 1_555 1_555
N13_4 N14_4 1_555 1_555
C41_4 H29_4 1_555 1_555
C42_4 H30_4 1_555 1_555
N24_2 C41_4 1_555 1_555
N16_4 C41_4 1_555 1_555
N17_4 C42_4 1_555 1_555
C42_4 N24_2 1_555 1_555
N16_4 N17_4 1_555 1_555
H34_3 C47_3 1_555 1_555
C48_3 C47_3 1_555 1_555
C51_3 C52_3 1_555 1_555
C52_3 H37_3 1_555 1_555
C53_3 C52_3 1_555 1_555
H38_3 C53_3 1_555 1_555
C54_3 C53_3 1_555 1_555
C55_3 C54_3 1_555 1_555
C56_3 C51_3 1_555 1_555
H40_3 C56_3 1_555 1_555
C57_3 C58_3 1_555 1_555
C58_3 H41_3 1_555 1_555
C62_3 C57_3 1_555 1_555
H44_3 C62_3 1_555 1_555
N21_3 C48_3 1_555 1_555
C54_3 N21_3 1_555 1_555
C55_3 C56_3 1_555 1_555
C57_3 N21_3 1_555 1_555
C2_4 H2_4 1_555 1_555
C25_4 C26_4 1_555 1_555
C26_4 C27_4 1_555 1_555
C27_4 H19_4 1_555 1_555
C28_4 C27_4 1_555 1_555
H20_4 C28_4 1_555 1_555
C29_4 C28_4 1_555 1_555
C30_4 C29_4 1_555 1_555
H21_4 C30_4 1_555 1_555
C31_4 C26_4 1_555 1_555
H22_4 C31_4 1_555 1_555
Co1_2 N1_4 1_555 1_555
N11_4 O3_4 1_555 1_555
O1_4 C25_4 1_555 1_555
O2_4 C25_4 1_555 1_555
O3_4 Co1_2 1_555 1_555
O4_4 N11_4 1_555 1_555
O5_3 N11_4 1_555 1_555
N23_2 Co1_2 1_555 1_555
N26_2 Co1_2 1_555 1_555
C2_4 N1_4 1_555 1_555
C30_4 C31_4 1_555 1_555
Co1_2 O1_4 1_555 1_555
Co1_2 O2_4 1_555 1_555
C1_4 H1_4 1_555 1_555
C3_4 H3_4 1_555 1_555
C4_4 H4_4 1_555 1_555
C7_4 C8_4 1_555 1_555
C9_4 C8_4 1_555 1_555
C10_4 C9_4 1_555 1_555
C11_4 C10_4 1_555 1_555
H9_4 C11_4 1_555 1_555
C12_4 C7_4 1_555 1_555
H10_4 C12_4 1_555 1_555
C13_4 C14_4 1_555 1_555
C14_4 H11_4 1_555 1_555
C15_4 C14_4 1_555 1_555
H12_4 C15_4 1_555 1_555
C16_4 C15_4 1_555 1_555
C17_4 C16_4 1_555 1_555
H13_3 C17_4 1_555 1_555
C18_4 C13_4 1_555 1_555
H14_4 C18_4 1_555 1_555
C19_4 C20_4 1_555 1_555
C20_4 H15_4 1_555 1_555
C21_3 C20_4 1_555 1_555
H16_3 C21_3 1_555 1_555
C24_4 C19_4 1_555 1_555
H18_4 C24_4 1_555 1_555
N3_4 C1_4 1_555 1_555
N23_2 C3_4 1_555 1_555
N5_4 C3_4 1_555 1_555
N6_4 C4_4 1_555 1_555
N10_4 C10_4 1_555 1_555
C4_4 N23_2 1_555 1_555
C7_4 N2_4 1_555 1_555
C11_4 C12_4 1_555 1_555
C13_4 N5_4 1_555 1_555
C16_4 N10_4 1_555 1_555
C17_4 C18_4 1_555 1_555
C19_4 N10_4 1_555 1_555
N2_4 N3_4 1_555 1_555
N5_4 N6_4 1_555 1_555
C43_4 H31_4 1_555 1_555
C44_4 H32_4 1_555 1_555
H34_4 C47_4 1_555 1_555
C48_4 C47_4 1_555 1_555
C51_4 C52_4 1_555 1_555
C52_4 H37_4 1_555 1_555
C53_4 C52_4 1_555 1_555
H38_4 C53_4 1_555 1_555
C54_4 C53_4 1_555 1_555
C55_4 C54_4 1_555 1_555
H39_4 C55_4 1_555 1_555
C56_4 C51_4 1_555 1_555
H40_4 C56_4 1_555 1_555
C57_4 C58_4 1_555 1_555
C58_4 H41_4 1_555 1_555
C59_4 C58_4 1_555 1_555
H42_4 C59_4 1_555 1_555
C60_4 C59_4 1_555 1_555
C61_4 C60_4 1_555 1_555
H43_4 C61_4 1_555 1_555
C62_4 C57_4 1_555 1_555
H44_4 C62_4 1_555 1_555
N26_2 C43_4 1_555 1_555
N19_4 C43_4 1_555 1_555
N20_4 C44_4 1_555 1_555
N21_4 C48_4 1_555 1_555
C44_4 N26_2 1_555 1_555
C54_4 N21_4 1_555 1_555
C55_4 C56_4 1_555 1_555
C57_4 N21_4 1_555 1_555
C60_4 N20_4 1_555 1_555
C61_4 C62_4 1_555 1_555
N19_4 N20_4 1_555 1_555
H16_4 C21_4 1_555 1_555

#END
