
###############################################################################
#
# This file contains modified crystal structure data generated from the
# MOF subset of the Cambridge Structural Database (CSD) v543 
# hosted by the Cambridge Crystallographic Data Centre (CCDC).
#
# This work is licensed under the Creative Commons
# Attribution-NonCommercial-ShareAlike 4.0 International License.
# To view a copy of this license, visit
# http://creativecommons.org/licenses/by-nc-sa/4.0/
# or send a letter to
# Creative Commons, PO Box 1866, Mountain View, CA 94042, USA.
#
# CIF created using the CSD Python API on 29 September 2022
# The structure has been converted into the P1 space group
# The structure has a 3D framework
# The original CSD entry FUNKAD is in the orthorhombic crystal system
# The framework has been calculated to contain at least 10.0% void space
# The void calculation uses a probe of radius 1.32A, grid spacing 0.4
#
###############################################################################

data_FUNKAD
_chemical_formula_moiety         '(C64 H32 Gd6 O34)n'
_symmetry_cell_setting           triclinic
_symmetry_space_group_name_H-M   'P 1'
_symmetry_Int_Tables_number      1
_space_group_name_Hall           'P 1'
loop_
_symmetry_equiv_pos_site_id
_symmetry_equiv_pos_as_xyz
1 x,y,z
_cell_length_a                   9.1875(6)
_cell_length_b                   13.1939(8)
_cell_length_c                   14.4346(9)
_cell_angle_alpha                90
_cell_angle_beta                 90
_cell_angle_gamma                90
_cell_volume                     1749.75
loop_
_atom_site_label
_atom_site_type_symbol
_atom_site_fract_x
_atom_site_fract_y
_atom_site_fract_z
Gd6 Gd 0.2500 -0.0000 0.09614(2)
O3 O 0.2500 0.5000 0.0138(3)
C6 C 0.1382(4) 0.6602(3) 0.0002(3)
H3 H 0.1871 0.6804 0.0535
O4 O 0.1049(3) 0.8583(2) 0.0601(2)
C14 C 0.3618(4) 0.3398(3) 0.0002(3)
H7 H 0.3129 0.3196 0.0535
O9 O 0.3951(3) 0.1417(2) 0.0601(2)
Gd6_2 Gd 0.2500 1.0000 0.09614(2)
C2 C 0.0896(5) 0.5344(3) 0.8844(3)
H1 H 0.1059 0.4702 0.8600
C5 C 0.1603(4) 0.5643(3) 0.9645(3)
C7 C 0.0433(4) 0.7264(3) 0.9567(3)
C8 C 0.0237(4) 0.8327(3) 0.9940(3)
O7 O 0.6988(3) 0.3903(2) 0.73145(19)
O8 O 0.5311(3) 0.5064(2) 0.7081(2)
C9 C 0.5053(4) 0.3998(3) 0.8406(3)
C10 C 0.4104(5) 0.4656(3) 0.8844(3)
H5 H 0.3941 0.5298 0.8600
C11 C 0.5827(5) 0.4342(3) 0.7546(3)
C12 C 0.5304(4) 0.3036(3) 0.8770(3)
H6 H 0.5957 0.2598 0.8484
C13 C 0.3397(4) 0.4357(3) 0.9645(3)
C15 C 0.4567(4) 0.2736(3) 0.9567(3)
C16 C 0.4763(4) 0.1673(3) 0.9940(3)
O10 O 0.5689(4) 0.1116(2) 0.9573(2)
Gd2 Gd 0.7500 0.5000 0.59614(2)
Gd4 Gd 0.7500 -0.0000 0.90386(2)
Gd4_2 Gd 0.7500 1.0000 0.90386(2)
O1 O 0.8012(3) 0.6097(2) 0.73145(19)
O2 O 0.9689(3) 0.4936(2) 0.7081(2)
C1 C 0.9947(4) 0.6002(3) 0.8406(3)
C3 C 0.9173(5) 0.5658(3) 0.7546(3)
C4 C 0.9696(4) 0.6964(3) 0.8770(3)
H2 H 0.9043 0.7402 0.8484
O5 O 0.9311(4) 0.8884(2) 0.9573(2)
O6 O 0.7500 0.5000 0.4173(3)
H4 H 0.8368 0.5056 0.3977
H8 H 0.6632 0.4944 0.3977
O13 O 0.6049(3) 0.6417(2) 0.5601(2)
O14 O 0.8951(3) 0.3583(2) 0.5601(2)
O15 O 0.5689(4) 0.3884(2) 0.5427(2)
O16 O 0.9311(4) 0.6116(2) 0.5427(2)
O1_2 O 0.6988(3) 0.1097(2) 0.76855(19)
C1_2 C 0.5053(4) 0.1002(3) 0.6594(3)
C2_2 C 0.4104(5) 0.0344(3) 0.6156(3)
C3_2 C 0.5827(5) 0.0658(3) 0.7454(3)
O3_2 O 0.2500 -0.0000 0.4862(3)
C4_2 C 0.5304(4) 0.1964(3) 0.6230(3)
H2_2 H 0.5957 0.2402 0.6516
C5_2 C 0.3397(4) 0.0643(3) 0.5355(3)
C6_2 C 0.3618(4) 0.1602(3) 0.4998(3)
H3_2 H 0.3129 0.1804 0.4465
C7_2 C 0.4567(4) 0.2264(3) 0.5433(3)
C8_2 C 0.4763(4) 0.3327(3) 0.5060(3)
O4_2 O 0.3951(3) 0.3583(2) 0.4399(2)
H5_2 H 0.1059 0.0298 0.6400
Gd6_3 Gd 0.2500 0.5000 0.40386(2)
O12 O 0.9689(3) 0.0064(2) 0.7919(2)
O13_2 O 0.8951(3) 0.1417(2) 0.9399(2)
O2_2 O 0.5311(3) 0.9936(2) 0.7919(2)
H1_2 H 0.3941 0.9702 0.6400
O3_3 O 0.2500 1.0000 0.4862(3)
C10_2 C 0.0896(5) 0.9656(3) 0.6156(3)
C13_2 C 0.1603(4) 0.9357(3) 0.5355(3)
C14_2 C 0.1382(4) 0.8398(3) 0.4998(3)
H7_2 H 0.1871 0.8196 0.4465
C15_2 C 0.0433(4) 0.7736(3) 0.5433(3)
C16_2 C 0.0237(4) 0.6673(3) 0.5060(3)
O9_2 O 0.1049(3) 0.6417(2) 0.4399(2)
O11 O 0.8012(3) 0.8903(2) 0.76855(19)
O14_2 O 0.6049(3) 0.8583(2) 0.9399(2)
C9_2 C 0.9947(4) 0.8998(3) 0.6594(3)
C11_2 C 0.9173(5) 0.9342(3) 0.7454(3)
C12_2 C 0.9696(4) 0.8036(3) 0.6230(3)
H6_2 H 0.9043 0.7598 0.6516
O1_3 O 0.1988(3) 0.3903(2) 0.26855(19)
O2_3 O 0.0311(3) 0.5064(2) 0.2919(2)
C1_3 C 0.0053(4) 0.3998(3) 0.1594(3)
C3_3 C 0.0827(5) 0.4342(3) 0.2454(3)
C4_3 C 0.0304(4) 0.3036(3) 0.1230(3)
H2_3 H 0.0957 0.2598 0.1516
O5_2 O 0.0689(4) 0.1116(2) 0.0427(2)
O6_2 O 0.2500 0.5000 0.5827(3)
H4_2 H 0.1632 0.4944 0.6023
H8_2 H 0.3368 0.5056 0.6023
O11_2 O 0.3012(3) 0.6097(2) 0.26855(19)
O12_2 O 0.4689(3) 0.4936(2) 0.2919(2)
O15_2 O 0.4311(4) 0.6116(2) 0.4573(2)
O16_2 O 0.0689(4) 0.3884(2) 0.4573(2)
C2_3 C 0.9104(5) 0.4656(3) 0.1156(3)
H1_3 H 0.8941 0.5298 0.1400
C5_3 C 0.8397(4) 0.4357(3) 0.0355(3)
C7_3 C 0.9567(4) 0.2736(3) 0.0433(3)
C8_3 C 0.9763(4) 0.1673(3) 0.0060(3)
C9_3 C 0.4947(4) 0.6002(3) 0.1594(3)
C10_3 C 0.5896(5) 0.5344(3) 0.1156(3)
H5_3 H 0.6059 0.4702 0.1400
C11_3 C 0.4173(5) 0.5658(3) 0.2454(3)
C12_3 C 0.4696(4) 0.6964(3) 0.1230(3)
H6_3 H 0.4043 0.7402 0.1516
C13_3 C 0.6603(4) 0.5643(3) 0.0355(3)
C15_3 C 0.5433(4) 0.7264(3) 0.0433(3)
C16_3 C 0.5237(4) 0.8327(3) 0.0060(3)
O10_2 O 0.4311(4) 0.8884(2) 0.0427(2)
O3_4 O 0.7500 0.5000 0.9862(3)
C6_3 C 0.8618(4) 0.3398(3) 0.9998(3)
H3_3 H 0.8129 0.3196 0.9465
C14_3 C 0.6382(4) 0.6602(3) 0.9998(3)
H7_3 H 0.6871 0.6804 0.9465
O7_2 O 0.1988(3) 0.1097(2) 0.23145(19)
C9_4 C 0.0053(4) 0.1002(3) 0.3406(3)
C11_4 C 0.0827(5) 0.0658(3) 0.2546(3)
C12_4 C 0.0304(4) 0.1964(3) 0.3770(3)
H6_4 H 0.0957 0.2402 0.3484
O8_2 O 0.0311(3) 0.9936(2) 0.2081(2)
O2_4 O 0.4689(3) 0.0064(2) 0.2081(2)
H1_4 H 0.6059 0.0298 0.3600
O3_5 O 0.7500 0.0000 0.5138(3)
C10_4 C 0.9104(5) 0.0344(3) 0.3844(3)
C13_4 C 0.8397(4) 0.0643(3) 0.4645(3)
C14_4 C 0.8618(4) 0.1602(3) 0.5002(3)
H7_4 H 0.8129 0.1804 0.5535
C15_4 C 0.9567(4) 0.2264(3) 0.4567(3)
C16_4 C 0.9763(4) 0.3327(3) 0.4940(3)
O1_4 O 0.3012(3) 0.8903(2) 0.23145(19)
C1_4 C 0.4947(4) 0.8998(3) 0.3406(3)
C2_4 C 0.5896(5) 0.9656(3) 0.3844(3)
C3_4 C 0.4173(5) 0.9342(3) 0.2546(3)
O3_6 O 0.7500 1.0000 0.5138(3)
C4_4 C 0.4696(4) 0.8036(3) 0.3770(3)
H2_4 H 0.4043 0.7598 0.3484
C5_4 C 0.6603(4) 0.9357(3) 0.4645(3)
C6_4 C 0.6382(4) 0.8398(3) 0.5002(3)
H3_4 H 0.6871 0.8196 0.5535
C7_4 C 0.5433(4) 0.7736(3) 0.4567(3)
C8_4 C 0.5237(4) 0.6673(3) 0.4940(3)
H5_4 H 0.8941 0.9702 0.3600
O6_3 O 0.7500 -0.0000 0.0827(3)
H4_3 H 0.6632 0.0056 0.1023
O6_4 O 0.7500 1.0000 0.0827(3)
H8_3 H 0.8368 0.9944 0.1023
O6_5 O 0.2500 0.0000 0.9173(3)
H8_4 H 0.1632 0.0056 0.8977
O6_6 O 0.2500 1.0000 0.9173(3)
H4_4 H 0.3368 0.9944 0.8977
loop_
_geom_bond_atom_site_label_1
_geom_bond_atom_site_label_2
_geom_bond_site_symmetry_1
_geom_bond_site_symmetry_2
H3 C6 1_555 1_555
H7 C14 1_555 1_555
Gd6 O9 1_555 1_555
Gd6_2 O4 1_555 1_555
C2 H1 1_555 1_555
C5 C2 1_555 1_555
C8 C7 1_555 1_555
O7 C11 1_555 1_555
O8 C11 1_555 1_555
C9 C10 1_555 1_555
C10 H5 1_555 1_555
C11 C9 1_555 1_555
C12 C9 1_555 1_555
H6 C12 1_555 1_555
C15 C12 1_555 1_555
C16 C15 1_555 1_555
O10 C16 1_555 1_555
Gd2 O7 1_555 1_555
Gd4 O10 1_555 1_555
O8 Gd2 1_555 1_555
C10 C13 1_555 1_555
Gd2 O1 1_555 1_555
O1 C3 1_555 1_555
O2 Gd2 1_555 1_555
C3 O2 1_555 1_555
C4 C1 1_555 1_555
H2 C4 1_555 1_555
O6 Gd2 1_555 1_555
H4 O6 1_555 1_555
H8 O6 1_555 1_555
Gd4_2 O5 1_555 1_555
O13 Gd2 1_555 1_555
O14 Gd2 1_555 1_555
O15 Gd2 1_555 1_555
O16 Gd2 1_555 1_555
C1 C3 1_555 1_555
Gd4 O1_2 1_555 1_555
O1_2 C3_2 1_555 1_555
C1_2 C2_2 1_555 1_555
O3_2 C5_2 1_555 1_555
C4_2 C1_2 1_555 1_555
H2_2 C4_2 1_555 1_555
C5_2 C2_2 1_555 1_555
C6_2 C5_2 1_555 1_555
H3_2 C6_2 1_555 1_555
C7_2 C4_2 1_555 1_555
C8_2 C7_2 1_555 1_555
O4_2 C8_2 1_555 1_555
O15 C8_2 1_555 1_555
Gd6_3 O4_2 1_555 1_555
O12 Gd4 1_555 1_555
O13_2 Gd4 1_555 1_555
C1_2 C3_2 1_555 1_555
C6_2 C7_2 1_555 1_555
O2_2 Gd4_2 1_555 1_555
C13_2 O3_3 1_555 1_555
C14_2 C13_2 1_555 1_555
H7_2 C14_2 1_555 1_555
C16_2 C15_2 1_555 1_555
O9_2 C16_2 1_555 1_555
Gd6_3 O9_2 1_555 1_555
O11 Gd4_2 1_555 1_555
O14_2 Gd4_2 1_555 1_555
C10_2 C13_2 1_555 1_555
C14_2 C15_2 1_555 1_555
O11 C11_2 1_555 1_555
C11_2 C9_2 1_555 1_555
C12_2 C9_2 1_555 1_555
H6_2 C12_2 1_555 1_555
Gd6_3 O1_3 1_555 1_555
O1_3 C3_3 1_555 1_555
O2_3 Gd6_3 1_555 1_555
C3_3 O2_3 1_555 1_555
C4_3 C1_3 1_555 1_555
H2_3 C4_3 1_555 1_555
O6_2 Gd6_3 1_555 1_555
H4_2 O6_2 1_555 1_555
H8_2 O6_2 1_555 1_555
Gd6 O5_2 1_555 1_555
O11_2 Gd6_3 1_555 1_555
O12_2 Gd6_3 1_555 1_555
O15_2 Gd6_3 1_555 1_555
O16_2 Gd6_3 1_555 1_555
C1_3 C3_3 1_555 1_555
C2_3 H1_3 1_555 1_555
C5_3 C2_3 1_555 1_555
C8_3 C7_3 1_555 1_555
O11_2 C11_3 1_555 1_555
O12_2 C11_3 1_555 1_555
C9_3 C10_3 1_555 1_555
C10_3 H5_3 1_555 1_555
C11_3 C9_3 1_555 1_555
C12_3 C9_3 1_555 1_555
H6_3 C12_3 1_555 1_555
C15_3 C12_3 1_555 1_555
C16_3 C15_3 1_555 1_555
O10_2 C16_3 1_555 1_555
Gd6_2 O10_2 1_555 1_555
C10_3 C13_3 1_555 1_555
H3_3 C6_3 1_555 1_555
H7_3 C14_3 1_555 1_555
O7_2 C11_4 1_555 1_555
C11_4 C9_4 1_555 1_555
C12_4 C9_4 1_555 1_555
H6_4 C12_4 1_555 1_555
Gd6 O7_2 1_555 1_555
O8_2 Gd6_2 1_555 1_555
O2_4 Gd6 1_555 1_555
C13_4 O3_5 1_555 1_555
C14_4 C13_4 1_555 1_555
H7_4 C14_4 1_555 1_555
C16_4 C15_4 1_555 1_555
O14 C16_4 1_555 1_555
C10_4 C13_4 1_555 1_555
C14_4 C15_4 1_555 1_555
Gd6_2 O1_4 1_555 1_555
O1_4 C3_4 1_555 1_555
C1_4 C2_4 1_555 1_555
O3_6 C5_4 1_555 1_555
C4_4 C1_4 1_555 1_555
H2_4 C4_4 1_555 1_555
C5_4 C2_4 1_555 1_555
C6_4 C5_4 1_555 1_555
H3_4 C6_4 1_555 1_555
C7_4 C4_4 1_555 1_555
C8_4 C7_4 1_555 1_555
O13 C8_4 1_555 1_555
O15_2 C8_4 1_555 1_555
C1_4 C3_4 1_555 1_555
C6_4 C7_4 1_555 1_555
H4_3 O6_3 1_555 1_555
H8_3 O6_4 1_555 1_555
H8_4 O6_5 1_555 1_555
H4_4 O6_6 1_555 1_555

#END
