
###############################################################################
#
# This file contains modified crystal structure data generated from the
# MOF subset of the Cambridge Structural Database (CSD) v543 
# hosted by the Cambridge Crystallographic Data Centre (CCDC).
#
# This work is licensed under the Creative Commons
# Attribution-NonCommercial-ShareAlike 4.0 International License.
# To view a copy of this license, visit
# http://creativecommons.org/licenses/by-nc-sa/4.0/
# or send a letter to
# Creative Commons, PO Box 1866, Mountain View, CA 94042, USA.
#
# CIF created using the CSD Python API on 29 September 2022
# The structure has been converted into the P1 space group
# The structure has a 3D framework
# The original CSD entry FUNKUW is in the monoclinic crystal system
# The framework has been calculated to contain at least 10.0% void space
# The void calculation uses a probe of radius 1.32A, grid spacing 0.4
#
###############################################################################

data_FUNKUW
_chemical_formula_moiety         '(C120 H80 N4 O16 Zn4)n'
_symmetry_cell_setting           triclinic
_symmetry_space_group_name_H-M   'P 1'
_symmetry_Int_Tables_number      1
_space_group_name_Hall           'P 1'
loop_
_symmetry_equiv_pos_site_id
_symmetry_equiv_pos_as_xyz
1 x,y,z
_cell_length_a                   9.3342(7)
_cell_length_b                   16.2033(13)
_cell_length_c                   19.0664(13)
_cell_angle_alpha                90
_cell_angle_beta                 101.826(2)
_cell_angle_gamma                90
_cell_volume                     2822.49
loop_
_atom_site_label
_atom_site_type_symbol
_atom_site_fract_x
_atom_site_fract_y
_atom_site_fract_z
O3 O 0.28696(15) 0.06995(9) 0.98608(8)
O4 O 0.40861(15) 0.07786(9) 0.89668(8)
C12 C 0.0416(2) 0.14495(15) 0.90419(12)
H8 H 0.0403 0.1312 0.9525
C13 C 0.1684(2) 0.13065(13) 0.87779(12)
C14 C 0.1693(2) 0.15172(15) 0.80729(12)
H9 H 0.2549 0.1430 0.7886
C15 C 0.0456(2) 0.18545(15) 0.76419(13)
H10 H 0.0481 0.2002 0.7162
C16 C 0.2985(2) 0.09032(12) 0.92386(11)
Zn7 Zn 0.57968(2) 0.003151(14) 0.941141(12)
O6 O 0.68725(16) 0.09983(9) 0.99659(8)
C34 C 0.6727(2) 0.00471(15) 0.73304(11)
H23 H 0.6164 0.0158 0.6866
C35 C 0.6095(2) 0.00918(14) 0.79157(11)
H24 H 0.5089 0.0236 0.7845
C37 C 0.8439(2) 0.00548(13) 0.61612(11)
H26 H 0.7483 0.0286 0.6063
C38 C 0.9232(2) 0.00159(13) 0.55681(10)
C39 C 0.9458(2) 0.07506(13) 0.52156(11)
C43 C 0.9210(2) 0.22447(14) 0.51057(12)
H29 H 0.8849 0.2751 0.5252
C44 C 0.8960(2) 0.15281(13) 0.54272(11)
H30 H 0.8437 0.1543 0.5805
Zn4 Zn 0.42032(2) 0.996849(14) 0.058859(12)
O7 O 0.71304(15) 0.93005(9) 0.01392(8)
O8 O 0.59139(15) 0.92214(9) 0.10332(8)
C56 C 0.9584(2) 0.85505(15) 0.09581(12)
H38 H 0.9597 0.8688 0.0475
C57 C 0.8316(2) 0.86935(13) 0.12221(12)
C58 C 0.8307(2) 0.84828(15) 0.19271(12)
H39 H 0.7451 0.8570 0.2114
C59 C 0.9544(2) 0.81455(15) 0.23581(13)
H40 H 0.9519 0.7998 0.2838
C60 C 0.7015(2) 0.90968(12) 0.07614(11)
O2 O 0.31275(16) 0.90017(9) 0.00341(8)
C20 C 0.3273(2) 0.99529(15) 0.26696(11)
H13 H 0.3836 0.9842 0.3134
C21 C 0.3905(2) 0.99082(14) 0.20843(11)
H14 H 0.4911 0.9764 0.2155
C23 C 0.1561(2) 0.99452(13) 0.38388(11)
H16 H 0.2517 0.9714 0.3937
C24 C 0.0768(2) 0.99841(13) 0.44319(10)
C25 C 0.0542(2) 0.92494(13) 0.47844(11)
C29 C 0.0790(2) 0.77553(14) 0.48943(12)
H19 H 0.1151 0.7249 0.4748
C30 C 0.1040(2) 0.84719(13) 0.45728(11)
H20 H 0.1563 0.8457 0.4195
Zn1 Zn 0.07968(2) 0.496849(14) 0.441141(12)
O1 O 0.06483(16) 0.40784(9) 0.58586(8)
O2_2 O 0.18725(16) 0.40017(9) 0.49659(8)
N1 N 0.18286(18) 0.50590(10) 0.35854(9)
C1 C 0.1686(2) 0.38336(13) 0.55864(12)
C2 C 0.2855(2) 0.33431(13) 0.60598(12)
C3 C 0.2812(2) 0.32127(14) 0.67768(12)
H1 H 0.1977 0.3378 0.6955
C4 C 0.3985(2) 0.28417(15) 0.72316(13)
H2 H 0.3938 0.2750 0.7719
C5 C 0.5229(2) 0.26019(14) 0.69885(12)
C6 C 0.5228(2) 0.26931(14) 0.62600(12)
H3 H 0.6039 0.2499 0.6076
C7 C 0.4062(2) 0.30624(14) 0.58024(12)
H4 H 0.4084 0.3125 0.5309
C8 C 0.6504(3) 0.22898(14) 0.75068(13)
H5 H 0.6342 0.2066 0.7945
C9 C 0.7877(3) 0.23002(14) 0.74018(13)
H6 H 0.8026 0.2536 0.6966
C10 C 0.9176(2) 0.19824(14) 0.78961(12)
C11 C 0.9183(3) 0.17865(15) 0.86136(12)
H7 H 0.8337 0.1886 0.8805
C17 C 0.3238(2) 0.52667(14) 0.36725(12)
H11 H 0.3772 0.5376 0.4143
C18 C 0.3950(2) 0.53288(14) 0.31128(12)
H12 H 0.4952 0.5485 0.3200
C19 C 0.3206(2) 0.51630(12) 0.24181(11)
C20_2 C 0.1727(2) 0.49529(15) 0.23304(11)
H13_2 H 0.1164 0.4842 0.1866
C21_2 C 0.1095(2) 0.49082(14) 0.29157(11)
H14_2 H 0.0089 0.4764 0.2845
C22 C 0.3963(2) 0.52099(13) 0.18223(11)
H15 H 0.4912 0.5450 0.1915
C23_2 C 0.3439(2) 0.49452(13) 0.11612(11)
H16_2 H 0.2483 0.4714 0.1063
C24_2 C 0.4232(2) 0.49841(13) 0.05681(10)
C25_2 C 0.4458(2) 0.42494(13) 0.02156(11)
C29_2 C 0.4210(2) 0.27553(14) 0.01057(12)
H19_2 H 0.3849 0.2249 0.0252
C30_2 C 0.3960(2) 0.34719(13) 0.04272(11)
H20_2 H 0.3437 0.3457 0.0805
C40 C 0.4756(2) 0.57397(13) 0.03570(11)
C41 C 0.4485(2) 0.65147(13) 0.06668(11)
H27 H 0.3938 0.6524 0.1035
C42 C 0.4988(2) 0.72358(14) 0.04497(12)
H28 H 0.4802 0.7738 0.0671
O9 O 0.21304(15) 0.56995(9) 0.51392(8)
O11 O 0.09139(15) 0.57786(9) 0.60332(8)
C5_2 C 0.9771(2) 0.76019(14) 0.80115(12)
C6_2 C 0.9772(2) 0.76931(14) 0.87400(12)
H3_2 H 0.8961 0.7499 0.8924
C8_2 C 0.8496(3) 0.72898(14) 0.74932(13)
H5_2 H 0.8658 0.7066 0.7055
C9_2 C 0.7123(3) 0.73002(14) 0.75982(13)
H6_2 H 0.6974 0.7536 0.8034
C10_2 C 0.5824(2) 0.69824(14) 0.71039(12)
C11_2 C 0.5817(3) 0.67865(15) 0.63864(12)
H7_2 H 0.6663 0.6886 0.6195
C12_2 C 0.4584(2) 0.64495(15) 0.59581(12)
H8_2 H 0.4597 0.6312 0.5475
C13_2 C 0.3316(2) 0.63065(13) 0.62221(12)
C14_2 C 0.3307(2) 0.65172(15) 0.69271(12)
H9_2 H 0.2451 0.6430 0.7114
C15_2 C 0.4544(2) 0.68545(15) 0.73581(13)
H10_2 H 0.4519 0.7002 0.7838
C16_2 C 0.2015(2) 0.59032(12) 0.57614(11)
C26 C 0.5244(2) 0.42603(13) 0.96430(11)
C27 C 0.5515(2) 0.34853(13) 0.93332(11)
H17 H 0.6062 0.3476 0.8965
C28 C 0.5012(2) 0.27642(14) 0.95503(12)
H18 H 0.5198 0.2262 0.9329
N2 N 0.81714(18) 0.49410(10) 0.64146(9)
C31 C 0.6762(2) 0.47333(14) 0.63275(12)
H21 H 0.6228 0.4624 0.5857
C32 C 0.6050(2) 0.46712(14) 0.68872(12)
H22 H 0.5048 0.4515 0.6800
C33 C 0.6794(2) 0.48370(12) 0.75819(11)
C34_2 C 0.8273(2) 0.50471(15) 0.76696(11)
H23_2 H 0.8836 0.5158 0.8134
C35_2 C 0.8905(2) 0.50918(14) 0.70843(11)
H24_2 H 0.9911 0.5236 0.7155
C36 C 0.6037(2) 0.47901(13) 0.81777(11)
H25 H 0.5088 0.4550 0.8085
C37_2 C 0.6561(2) 0.50548(13) 0.88388(11)
H26_2 H 0.7517 0.5286 0.8937
C38_2 C 0.5768(2) 0.50159(13) 0.94319(10)
C39_2 C 0.5542(2) 0.57506(13) 0.97844(11)
C43_2 C 0.5790(2) 0.72447(14) 0.98943(12)
H29_2 H 0.6151 0.7751 0.9748
C44_2 C 0.6040(2) 0.65281(13) 0.95728(11)
H30_2 H 0.6563 0.6543 0.9195
Zn5 Zn 0.92032(2) 0.503151(14) 0.558859(12)
O5 O 0.93517(16) 0.59216(9) 0.41414(8)
O6_2 O 0.81275(16) 0.59983(9) 0.50341(8)
C45 C 0.8314(2) 0.61664(13) 0.44136(12)
C46 C 0.7145(2) 0.66569(13) 0.39402(12)
C47 C 0.7188(2) 0.67873(14) 0.32232(12)
H31 H 0.8023 0.6622 0.3045
C48 C 0.6015(2) 0.71583(15) 0.27684(13)
H32 H 0.6062 0.7250 0.2281
C49 C 0.4771(2) 0.73981(14) 0.30115(12)
C50 C 0.4772(2) 0.73069(14) 0.37400(12)
H33 H 0.3961 0.7501 0.3924
C51 C 0.5938(2) 0.69376(14) 0.41976(12)
H34 H 0.5916 0.6875 0.4691
C52 C 0.3496(3) 0.77102(14) 0.24932(13)
H35 H 0.3658 0.7934 0.2055
C53 C 0.2123(3) 0.76998(14) 0.25982(13)
H36 H 0.1974 0.7464 0.3034
C54 C 0.0824(2) 0.80176(14) 0.21039(12)
C55 C 0.0817(3) 0.82135(15) 0.13864(12)
H37 H 0.1663 0.8114 0.1195
O10 O 0.78696(15) 0.43005(9) 0.48608(8)
O12 O 0.90861(15) 0.42214(9) 0.39668(8)
C49_2 C 0.0229(2) 0.23981(14) 0.19885(12)
C50_2 C 0.0228(2) 0.23069(14) 0.12600(12)
H33_2 H 0.1039 0.2501 0.1076
C52_2 C 0.1504(3) 0.27102(14) 0.25068(13)
H35_2 H 0.1342 0.2934 0.2945
C53_2 C 0.2877(3) 0.26998(14) 0.24018(13)
H36_2 H 0.3026 0.2464 0.1966
C54_2 C 0.4176(2) 0.30176(14) 0.28961(12)
C55_2 C 0.4183(3) 0.32135(15) 0.36136(12)
H37_2 H 0.3337 0.3114 0.3805
C56_2 C 0.5416(2) 0.35505(15) 0.40419(12)
H38_2 H 0.5403 0.3688 0.4525
C57_2 C 0.6684(2) 0.36935(13) 0.37779(12)
C58_2 C 0.6693(2) 0.34828(15) 0.30729(12)
H39_2 H 0.7549 0.3570 0.2886
C59_2 C 0.5456(2) 0.31455(15) 0.26419(13)
H40_2 H 0.5481 0.2998 0.2162
C60_2 C 0.7985(2) 0.40968(12) 0.42386(11)
N1_2 N 0.31714(18) 0.00590(10) 0.14146(9)
C17_2 C 0.1762(2) 0.02667(14) 0.13275(12)
H11_2 H 0.1228 0.0376 0.0857
C18_2 C 0.1050(2) 0.03288(14) 0.18872(12)
H12_2 H 0.0048 0.0485 0.1800
C19_2 C 0.1794(2) 0.01630(12) 0.25819(11)
C22_2 C 0.1037(2) 0.02099(13) 0.31777(11)
H15_2 H 0.0088 0.0450 0.3085
C40_2 C 0.0244(2) 0.07397(13) 0.46430(11)
C41_2 C 0.0515(2) 0.15147(13) 0.43332(11)
H27_2 H 0.1062 0.1524 0.3965
C42_2 C 0.0012(2) 0.22358(14) 0.45503(12)
H28_2 H 0.0198 0.2738 0.4329
O5_2 O 0.56483(16) 0.09216(9) 0.08586(8)
C45_2 C 0.6686(2) 0.11664(13) 0.05864(12)
C46_2 C 0.7855(2) 0.16569(13) 0.10598(12)
C47_2 C 0.7812(2) 0.17873(14) 0.17768(12)
H31_2 H 0.6977 0.1622 0.1955
C48_2 C 0.8985(2) 0.21583(15) 0.22316(13)
H32_2 H 0.8938 0.2250 0.2719
C51_2 C 0.9062(2) 0.19376(14) 0.08024(12)
H34_2 H 0.9084 0.1875 0.0309
O1_2 O 0.43517(16) 0.90784(9) 0.91414(8)
C1_2 C 0.3314(2) 0.88336(13) 0.94136(12)
C2_2 C 0.2145(2) 0.83431(13) 0.89402(12)
C3_2 C 0.2188(2) 0.82127(14) 0.82232(12)
H1_2 H 0.3023 0.8378 0.8045
C4_2 C 0.1015(2) 0.78417(15) 0.77684(13)
H2_2 H 0.1062 0.7750 0.7281
C7_2 C 0.0938(2) 0.80624(14) 0.91976(12)
H4_2 H 0.0916 0.8125 0.9691
N3 N 0.68286(18) 0.99410(10) 0.85854(9)
C26_2 C 0.9756(2) 0.92603(13) 0.53570(11)
C27_2 C 0.9485(2) 0.84853(13) 0.56668(11)
H17_2 H 0.8938 0.8476 0.6035
C28_2 C 0.9988(2) 0.77642(14) 0.54497(12)
H18_2 H 0.9802 0.7262 0.5671
C31_2 C 0.8238(2) 0.97333(14) 0.86725(12)
H21_2 H 0.8772 0.9624 0.9143
C32_2 C 0.8950(2) 0.96712(14) 0.81128(12)
H22_2 H 0.9952 0.9515 0.8200
C33_2 C 0.8206(2) 0.98370(12) 0.74181(11)
C36_2 C 0.8963(2) 0.97901(13) 0.68223(11)
H25_2 H 0.9912 0.9550 0.6915
loop_
_geom_bond_atom_site_label_1
_geom_bond_atom_site_label_2
_geom_bond_site_symmetry_1
_geom_bond_site_symmetry_2
O3 C16 1_555 1_555
O4 C16 1_555 1_555
H8 C12 1_555 1_555
C13 C12 1_555 1_555
C14 C13 1_555 1_555
H9 C14 1_555 1_555
H10 C15 1_555 1_555
C16 C13 1_555 1_555
Zn7 O4 1_555 1_555
C14 C15 1_555 1_555
O6 Zn7 1_555 1_555
H23 C34 1_555 1_555
H24 C35 1_555 1_555
H26 C37 1_555 1_555
C39 C38 1_555 1_555
H29 C43 1_555 1_555
C44 C39 1_555 1_555
H30 C44 1_555 1_555
C34 C35 1_555 1_555
C37 C38 1_555 1_555
C43 C44 1_555 1_555
O7 C60 1_555 1_555
O8 C60 1_555 1_555
H38 C56 1_555 1_555
C57 C56 1_555 1_555
C58 C57 1_555 1_555
H39 C58 1_555 1_555
H40 C59 1_555 1_555
C60 C57 1_555 1_555
Zn4 O8 1_555 1_555
C58 C59 1_555 1_555
Zn4 O2 1_555 1_555
H13 C20 1_555 1_555
H14 C21 1_555 1_555
H16 C23 1_555 1_555
C24 C23 1_555 1_555
C25 C24 1_555 1_555
H19 C29 1_555 1_555
C30 C25 1_555 1_555
H20 C30 1_555 1_555
C20 C21 1_555 1_555
C29 C30 1_555 1_555
Zn1 O2_2 1_555 1_555
O1 C1 1_555 1_555
O2_2 C1 1_555 1_555
N1 Zn1 1_555 1_555
C1 C2 1_555 1_555
C2 C3 1_555 1_555
C3 H1 1_555 1_555
C4 C3 1_555 1_555
H2 C4 1_555 1_555
C5 C4 1_555 1_555
C6 C5 1_555 1_555
H3 C6 1_555 1_555
C7 C2 1_555 1_555
H4 C7 1_555 1_555
C8 C5 1_555 1_555
H5 C8 1_555 1_555
C9 C8 1_555 1_555
H6 C9 1_555 1_555
C10 C9 1_555 1_555
C11 C10 1_555 1_555
H7 C11 1_555 1_555
C17 N1 1_555 1_555
H11 C17 1_555 1_555
C18 C17 1_555 1_555
H12 C18 1_555 1_555
C19 C18 1_555 1_555
C20_2 C19 1_555 1_555
H13_2 C20_2 1_555 1_555
C21_2 N1 1_555 1_555
H14_2 C21_2 1_555 1_555
C22 C19 1_555 1_555
H15 C22 1_555 1_555
C23_2 C22 1_555 1_555
H16_2 C23_2 1_555 1_555
C24_2 C23_2 1_555 1_555
C25_2 C24_2 1_555 1_555
H19_2 C29_2 1_555 1_555
C30_2 C25_2 1_555 1_555
H20_2 C30_2 1_555 1_555
C40 C24_2 1_555 1_555
C41 C40 1_555 1_555
H27 C41 1_555 1_555
C42 C41 1_555 1_555
H28 C42 1_555 1_555
O9 Zn1 1_555 1_555
C6 C7 1_555 1_555
C20_2 C21_2 1_555 1_555
C29_2 C30_2 1_555 1_555
O9 C16_2 1_555 1_555
O11 C16_2 1_555 1_555
C6_2 C5_2 1_555 1_555
H3_2 C6_2 1_555 1_555
C8_2 C5_2 1_555 1_555
H5_2 C8_2 1_555 1_555
C9_2 C8_2 1_555 1_555
H6_2 C9_2 1_555 1_555
C10_2 C9_2 1_555 1_555
C11_2 C10_2 1_555 1_555
H7_2 C11_2 1_555 1_555
C12_2 C11_2 1_555 1_555
H8_2 C12_2 1_555 1_555
C13_2 C12_2 1_555 1_555
C14_2 C13_2 1_555 1_555
H9_2 C14_2 1_555 1_555
C15_2 C10_2 1_555 1_555
H10_2 C15_2 1_555 1_555
C16_2 C13_2 1_555 1_555
C14_2 C15_2 1_555 1_555
C27 C26 1_555 1_555
H17 C27 1_555 1_555
C28 C27 1_555 1_555
H18 C28 1_555 1_555
N2 C31 1_555 1_555
C31 H21 1_555 1_555
C32 C31 1_555 1_555
H22 C32 1_555 1_555
C33 C32 1_555 1_555
C34_2 C33 1_555 1_555
H23_2 C34_2 1_555 1_555
C35_2 N2 1_555 1_555
H24_2 C35_2 1_555 1_555
C36 C33 1_555 1_555
H25 C36 1_555 1_555
C37_2 C36 1_555 1_555
H26_2 C37_2 1_555 1_555
C38_2 C26 1_555 1_555
C39_2 C38_2 1_555 1_555
H29_2 C43_2 1_555 1_555
C44_2 C39_2 1_555 1_555
H30_2 C44_2 1_555 1_555
Zn5 N2 1_555 1_555
C34_2 C35_2 1_555 1_555
C37_2 C38_2 1_555 1_555
C43_2 C44_2 1_555 1_555
O6_2 Zn5 1_555 1_555
C45 O5 1_555 1_555
C46 C45 1_555 1_555
C47 C46 1_555 1_555
H31 C47 1_555 1_555
C48 C47 1_555 1_555
H32 C48 1_555 1_555
C49 C48 1_555 1_555
C50 C49 1_555 1_555
H33 C50 1_555 1_555
C51 C46 1_555 1_555
H34 C51 1_555 1_555
C52 C49 1_555 1_555
H35 C52 1_555 1_555
C53 C52 1_555 1_555
H36 C53 1_555 1_555
C54 C53 1_555 1_555
C55 C54 1_555 1_555
H37 C55 1_555 1_555
O10 Zn5 1_555 1_555
O6_2 C45 1_555 1_555
C50 C51 1_555 1_555
O10 C60_2 1_555 1_555
O12 C60_2 1_555 1_555
C50_2 C49_2 1_555 1_555
H33_2 C50_2 1_555 1_555
C52_2 C49_2 1_555 1_555
H35_2 C52_2 1_555 1_555
C53_2 C52_2 1_555 1_555
H36_2 C53_2 1_555 1_555
C54_2 C53_2 1_555 1_555
C55_2 C54_2 1_555 1_555
H37_2 C55_2 1_555 1_555
C56_2 C55_2 1_555 1_555
H38_2 C56_2 1_555 1_555
C57_2 C56_2 1_555 1_555
C58_2 C57_2 1_555 1_555
H39_2 C58_2 1_555 1_555
C59_2 C54_2 1_555 1_555
H40_2 C59_2 1_555 1_555
C60_2 C57_2 1_555 1_555
C58_2 C59_2 1_555 1_555
C17_2 N1_2 1_555 1_555
H11_2 C17_2 1_555 1_555
C18_2 C17_2 1_555 1_555
H12_2 C18_2 1_555 1_555
C19_2 C18_2 1_555 1_555
C22_2 C19_2 1_555 1_555
H15_2 C22_2 1_555 1_555
C41_2 C40_2 1_555 1_555
H27_2 C41_2 1_555 1_555
C42_2 C41_2 1_555 1_555
H28_2 C42_2 1_555 1_555
C45_2 O5_2 1_555 1_555
C46_2 C45_2 1_555 1_555
C47_2 C46_2 1_555 1_555
H31_2 C47_2 1_555 1_555
C48_2 C47_2 1_555 1_555
H32_2 C48_2 1_555 1_555
C51_2 C46_2 1_555 1_555
H34_2 C51_2 1_555 1_555
O1_2 C1_2 1_555 1_555
C1_2 C2_2 1_555 1_555
C2_2 C3_2 1_555 1_555
C3_2 H1_2 1_555 1_555
C4_2 C3_2 1_555 1_555
H2_2 C4_2 1_555 1_555
C7_2 C2_2 1_555 1_555
H4_2 C7_2 1_555 1_555
C27_2 C26_2 1_555 1_555
H17_2 C27_2 1_555 1_555
C28_2 C27_2 1_555 1_555
H18_2 C28_2 1_555 1_555
N3 C31_2 1_555 1_555
C31_2 H21_2 1_555 1_555
C32_2 C31_2 1_555 1_555
H22_2 C32_2 1_555 1_555
C33_2 C32_2 1_555 1_555
C36_2 C33_2 1_555 1_555
H25_2 C36_2 1_555 1_555

#END
