
###############################################################################
#
# This file contains modified crystal structure data generated from the
# MOF subset of the Cambridge Structural Database (CSD) v543 
# hosted by the Cambridge Crystallographic Data Centre (CCDC).
#
# This work is licensed under the Creative Commons
# Attribution-NonCommercial-ShareAlike 4.0 International License.
# To view a copy of this license, visit
# http://creativecommons.org/licenses/by-nc-sa/4.0/
# or send a letter to
# Creative Commons, PO Box 1866, Mountain View, CA 94042, USA.
#
# CIF created using the CSD Python API on 29 September 2022
# The structure has been converted into the P1 space group
# The structure has a 3D framework
# The original CSD entry FUQJUX is in the cubic crystal system
# The framework has been calculated to contain at least 10.0% void space
# The void calculation uses a probe of radius 1.32A, grid spacing 0.4
#
###############################################################################

data_FUQJUX
_chemical_formula_moiety         '(C624 H384 Cu120 N504 O62)n'
_symmetry_cell_setting           triclinic
_symmetry_space_group_name_H-M   'P 1'
_symmetry_Int_Tables_number      1
_space_group_name_Hall           'P 1'
loop_
_symmetry_equiv_pos_site_id
_symmetry_equiv_pos_as_xyz
1 x,y,z
_cell_length_a                   36.2713(6)
_cell_length_b                   36.2713(6)
_cell_length_c                   36.2713(6)
_cell_angle_alpha                90
_cell_angle_beta                 90
_cell_angle_gamma                90
_cell_volume                     47718.8
loop_
_atom_site_label
_atom_site_type_symbol
_atom_site_fract_x
_atom_site_fract_y
_atom_site_fract_z
Cu1 Cu 0.0000 0.288388(10) 0.038388(10)
O1 O 0.0000 0.2500 0.0000
N1 N 0.04412(9) 0.30966(9) 0.01440(10)
N2 N 0.06310(10) 0.33916(9) 0.02427(10)
N3 N 0.17264(7) 0.42264(7) 0.0000
C1 C 0.09044(8) 0.34044(8) 0.0000
C2 C 0.11892(8) 0.36892(8) 0.0000
Cu4 Cu 0.211612(10) 0.461612(10) 0.0000
Cu7 Cu 0.038388(10) 0.461612(10) 0.2500
N8 N 0.01440(10) 0.44034(9) 0.20588(9)
N15 N 0.02427(10) 0.41084(9) 0.18690(10)
N17 N 0.0000 0.32736(7) 0.07736(7)
C6 C 0.0000 0.40956(8) 0.15956(8)
C8 C -0.0000 0.38108(8) 0.13108(8)
C9 C 0.12288(12) 0.39254(10) 0.02964(11)
C12 C 0.02964(11) 0.35746(10) 0.12712(12)
H3 H 0.1072 0.3904 0.0505
H6 H 0.0505 0.3596 0.1428
C14 C 0.15000(12) 0.41926(11) 0.02849(11)
C17 C 0.02849(11) 0.33074(11) 0.10000(12)
H8 H 0.1525 0.4357 0.0487
H11 H 0.0487 0.3143 0.0975
O1_2 O -0.0000 0.2500 1.0000
N3_2 N 0.17264(7) 0.42264(7) 1.0000
C1_2 C 0.09044(8) 0.34044(8) 1.0000
C2_2 C 0.11892(8) 0.36892(8) 1.0000
C3 C 0.14254(10) 0.37288(12) 0.97036(11)
H1 H 0.1404 0.3572 0.9495
C4 C 0.16926(11) 0.40000(12) 0.97151(11)
H2 H 0.1857 0.4025 0.9513
Cu2 Cu 0.038388(10) 0.2500 0.961612(10)
Cu4_2 Cu 0.211612(10) 0.461612(10) 1.0000
N4 N 0.05966(9) 0.29412(9) 0.98560(10)
N9 N 0.01440(10) 0.20588(9) 0.94034(9)
N11 N 0.08916(9) 0.31310(10) 0.97573(10)
N18 N 0.07736(7) 0.2500 0.92264(7)
Cu1_2 Cu 1.0000 0.288388(10) 0.038388(10)
O1_3 O 1.0000 0.2500 0.0000
Cu3 Cu 0.961612(10) 0.211612(10) 0.0000
Cu5 Cu 0.788388(10) 0.2500 0.211612(10)
Cu6 Cu 0.961612(10) 0.5000 0.211612(10)
N5 N 0.95588(9) 0.26440(10) 0.05966(9)
N6 N 0.94034(9) 0.23560(10) 0.04412(9)
N7 N 0.98560(10) 0.45588(9) 0.19034(9)
N12 N 0.93690(10) 0.27427(10) 0.08916(9)
N13 N 0.91084(9) 0.22573(10) 0.06310(10)
N14 N 0.97573(10) 0.43690(10) 0.16084(9)
N16 N 0.82736(7) 0.2500 0.17264(7)
N17_2 N 1.0000 0.32736(7) 0.07736(7)
N19 N 0.92264(7) 0.17264(7) 0.0000
C5 C 0.90956(8) 0.2500 0.09044(8)
C6_2 C 1.0000 0.40956(8) 0.15956(8)
C7 C 0.88108(8) 0.2500 0.11892(8)
C8_2 C 1.0000 0.38108(8) 0.13108(8)
C10 C 0.85746(10) 0.22036(11) 0.12288(12)
C11 C 0.87712(12) 0.27964(11) 0.14254(10)
C13 C 0.97036(11) 0.37712(12) 0.10746(10)
H4 H 0.8596 0.1995 0.1072
H5 H 0.8928 0.3005 0.1404
H7 H 0.9495 0.3928 0.1096
C15 C 0.83074(11) 0.22151(11) 0.15000(12)
C16 C 0.85000(12) 0.27849(11) 0.16926(11)
C18 C 0.97151(11) 0.35000(12) 0.08074(11)
H9 H 0.8143 0.2013 0.1525
H10 H 0.8475 0.2987 0.1857
H12 H 0.9513 0.3475 0.0643
O1_4 O 1.0000 0.2500 1.0000
Cu3_2 Cu 0.961612(10) 0.211612(10) 1.0000
N10 N 0.98560(10) 0.19034(9) 0.95588(9)
N19_2 N 0.92264(7) 0.17264(7) 1.0000
Cu1_3 Cu 0.038388(10) 0.0000 0.288388(10)
O1_5 O 0.0000 0.0000 0.2500
N1_2 N 0.01440(10) 0.04412(9) 0.30966(9)
N2_2 N 0.02427(10) 0.06310(10) 0.33916(9)
N3_3 N -0.0000 0.17264(7) 0.42264(7)
C1_3 C -0.0000 0.09044(8) 0.34044(8)
C2_3 C 0.0000 0.11892(8) 0.36892(8)
Cu4_3 Cu 0.0000 0.211612(10) 0.461612(10)
Cu7_2 Cu 0.2500 0.038388(10) 0.461612(10)
N8_2 N 0.20588(9) 0.01440(10) 0.44034(9)
N15_2 N 0.18690(10) 0.02427(10) 0.41084(9)
N17_3 N 0.07736(7) 0.0000 0.32736(7)
C6_3 C 0.15956(8) 0.0000 0.40956(8)
C8_3 C 0.13108(8) 0.0000 0.38108(8)
C9_2 C 0.02964(11) 0.12288(12) 0.39254(10)
C12_2 C 0.12712(12) 0.02964(11) 0.35746(10)
H3_2 H 0.0505 0.1072 0.3904
H6_2 H 0.1428 0.0505 0.3596
C14_2 C 0.02849(11) 0.15000(12) 0.41926(11)
C17_2 C 0.10000(12) 0.02849(11) 0.33074(11)
H8_2 H 0.0487 0.1525 0.4357
H11_2 H 0.0975 0.0487 0.3143
Cu1_4 Cu 0.038388(10) 1.0000 0.288388(10)
O1_6 O -0.0000 1.0000 0.2500
Cu3_3 Cu 0.0000 0.961612(10) 0.211612(10)
Cu5_2 Cu 0.211612(10) 0.788388(10) 0.2500
Cu6_2 Cu 0.211612(10) 0.961612(10) 0.5000
N5_2 N 0.05966(9) 0.95588(9) 0.26440(10)
N6_2 N 0.04412(9) 0.94034(9) 0.23560(10)
N7_2 N 0.19034(9) 0.98560(10) 0.45588(9)
N12_2 N 0.08916(9) 0.93690(10) 0.27427(10)
N13_2 N 0.06310(10) 0.91084(9) 0.22573(10)
N14_2 N 0.16084(9) 0.97573(10) 0.43690(10)
N16_2 N 0.17264(7) 0.82736(7) 0.2500
N17_4 N 0.07736(7) 1.0000 0.32736(7)
N19_3 N 0.0000 0.92264(7) 0.17264(7)
C5_2 C 0.09044(8) 0.90956(8) 0.2500
C6_4 C 0.15956(8) 1.0000 0.40956(8)
C7_2 C 0.11892(8) 0.88108(8) 0.2500
C8_4 C 0.13108(8) 1.0000 0.38108(8)
C10_2 C 0.12288(12) 0.85746(10) 0.22036(11)
C11_2 C 0.14254(10) 0.87712(12) 0.27964(11)
C13_2 C 0.10746(10) 0.97036(11) 0.37712(12)
H4_2 H 0.1072 0.8596 0.1995
H5_2 H 0.1404 0.8928 0.3005
H7_2 H 0.1096 0.9495 0.3928
C15_2 C 0.15000(12) 0.83074(11) 0.22151(11)
C16_2 C 0.16926(11) 0.85000(12) 0.27849(11)
C18_2 C 0.08074(11) 0.97151(11) 0.35000(12)
H9_2 H 0.1525 0.8143 0.2013
H10_2 H 0.1857 0.8475 0.2987
H12_2 H 0.0643 0.9513 0.3475
O1_7 O 1.0000 0.0000 0.2500
N3_4 N 1.0000 0.17264(7) 0.42264(7)
C1_4 C 1.0000 0.09044(8) 0.34044(8)
C2_4 C 1.0000 0.11892(8) 0.36892(8)
C3_2 C 0.97036(11) 0.14254(10) 0.37288(12)
H1_2 H 0.9495 0.1404 0.3572
C4_2 C 0.97151(11) 0.16926(11) 0.40000(12)
H2_2 H 0.9513 0.1857 0.4025
Cu2_2 Cu 0.961612(10) 0.038388(10) 0.2500
Cu4_4 Cu 1.0000 0.211612(10) 0.461612(10)
N4_2 N 0.98560(10) 0.05966(9) 0.29412(9)
N9_2 N 0.94034(9) 0.01440(10) 0.20588(9)
N11_2 N 0.97573(10) 0.08916(9) 0.31310(10)
N18_2 N 0.92264(7) 0.07736(7) 0.2500
O1_8 O 1.0000 1.0000 0.2500
Cu3_4 Cu 1.0000 0.961612(10) 0.211612(10)
N10_2 N 0.95588(9) 0.98560(10) 0.19034(9)
N19_4 N 1.0000 0.92264(7) 0.17264(7)
Cu1_5 Cu 0.288388(10) 0.038388(10) 0.0000
O1_9 O 0.2500 0.0000 0.0000
N1_3 N 0.30966(9) 0.01440(10) 0.04412(9)
N2_3 N 0.33916(9) 0.02427(10) 0.06310(10)
N3_5 N 0.42264(7) -0.0000 0.17264(7)
C1_5 C 0.34044(8) 0.0000 0.09044(8)
C2_5 C 0.36892(8) 0.0000 0.11892(8)
Cu4_5 Cu 0.461612(10) 0.0000 0.211612(10)
Cu7_3 Cu 0.461612(10) 0.2500 0.038388(10)
N8_3 N 0.44034(9) 0.20588(9) 0.01440(10)
N15_3 N 0.41084(9) 0.18690(10) 0.02427(10)
N17_5 N 0.32736(7) 0.07736(7) 0.0000
C6_5 C 0.40956(8) 0.15956(8) 0.0000
C8_5 C 0.38108(8) 0.13108(8) 0.0000
C9_3 C 0.39254(10) 0.02964(11) 0.12288(12)
C12_3 C 0.35746(10) 0.12712(12) 0.02964(11)
H3_3 H 0.3904 0.0505 0.1072
H6_3 H 0.3596 0.1428 0.0505
C14_3 C 0.41926(11) 0.02849(11) 0.15000(12)
C17_3 C 0.33074(11) 0.10000(12) 0.02849(11)
H8_3 H 0.4357 0.0487 0.1525
H11_3 H 0.3143 0.0975 0.0487
Cu1_6 Cu 0.288388(10) 0.038388(10) 1.0000
O1_10 O 0.2500 0.0000 1.0000
Cu3_5 Cu 0.211612(10) 0.0000 0.961612(10)
Cu5_3 Cu 0.2500 0.211612(10) 0.788388(10)
Cu6_3 Cu 0.5000 0.211612(10) 0.961612(10)
N5_3 N 0.26440(10) 0.05966(9) 0.95588(9)
N6_3 N 0.23560(10) 0.04412(9) 0.94034(9)
N7_3 N 0.45588(9) 0.19034(9) 0.98560(10)
N12_3 N 0.27427(10) 0.08916(9) 0.93690(10)
N13_3 N 0.22573(10) 0.06310(10) 0.91084(9)
N14_3 N 0.43690(10) 0.16084(9) 0.97573(10)
N16_3 N 0.2500 0.17264(7) 0.82736(7)
N17_6 N 0.32736(7) 0.07736(7) 1.0000
N19_5 N 0.17264(7) 0.0000 0.92264(7)
C5_3 C 0.2500 0.09044(8) 0.90956(8)
C6_6 C 0.40956(8) 0.15956(8) 1.0000
C7_3 C 0.2500 0.11892(8) 0.88108(8)
C8_6 C 0.38108(8) 0.13108(8) 1.0000
C10_3 C 0.22036(11) 0.12288(12) 0.85746(10)
C11_3 C 0.27964(11) 0.14254(10) 0.87712(12)
C13_3 C 0.37712(12) 0.10746(10) 0.97036(11)
H4_3 H 0.1995 0.1072 0.8596
H5_3 H 0.3005 0.1404 0.8928
H7_3 H 0.3928 0.1096 0.9495
C15_3 C 0.22151(11) 0.15000(12) 0.83074(11)
C16_3 C 0.27849(11) 0.16926(11) 0.85000(12)
C18_3 C 0.35000(12) 0.08074(11) 0.97151(11)
H9_3 H 0.2013 0.1525 0.8143
H10_3 H 0.2987 0.1857 0.8475
H12_3 H 0.3475 0.0643 0.9513
O1_11 O 0.2500 1.0000 0.0000
N3_6 N 0.42264(7) 1.0000 0.17264(7)
C1_6 C 0.34044(8) 1.0000 0.09044(8)
C2_6 C 0.36892(8) 1.0000 0.11892(8)
C3_3 C 0.37288(12) 0.97036(11) 0.14254(10)
H1_3 H 0.3572 0.9495 0.1404
C4_3 C 0.40000(12) 0.97151(11) 0.16926(11)
H2_3 H 0.4025 0.9513 0.1857
Cu2_3 Cu 0.2500 0.961612(10) 0.038388(10)
Cu4_6 Cu 0.461612(10) 1.0000 0.211612(10)
N4_3 N 0.29412(9) 0.98560(10) 0.05966(9)
N9_3 N 0.20588(9) 0.94034(9) 0.01440(10)
N11_3 N 0.31310(10) 0.97573(10) 0.08916(9)
N18_3 N 0.2500 0.92264(7) 0.07736(7)
O1_12 O 0.2500 1.0000 1.0000
Cu3_6 Cu 0.211612(10) 1.0000 0.961612(10)
N10_3 N 0.19034(9) 0.95588(9) 0.98560(10)
N19_6 N 0.17264(7) 1.0000 0.92264(7)
Cu5_4 Cu -0.0000 0.038388(10) 0.788388(10)
Cu7_4 Cu 0.211612(10) 0.288388(10) 0.7500
N7_4 N 0.20588(9) 0.23560(10) 0.80966(9)
N8_4 N 0.19034(9) 0.26440(10) 0.79412(9)
N12_4 N 0.02427(10) 0.18690(10) 0.91084(9)
N14_4 N 0.18690(10) 0.22573(10) 0.83916(9)
N15_4 N 0.16084(9) 0.27427(10) 0.81310(10)
N16_4 N -0.0000 0.07736(7) 0.82736(7)
C5_4 C -0.0000 0.15956(8) 0.90956(8)
C6_7 C 0.15956(8) 0.2500 0.84044(8)
C7_4 C -0.0000 0.13108(8) 0.88108(8)
C8_7 C 0.13108(8) 0.2500 0.86892(8)
C11_4 C 0.02964(11) 0.12712(12) 0.85746(10)
C12_4 C 0.10746(10) 0.27964(11) 0.87288(12)
C13_4 C 0.12712(12) 0.22036(11) 0.89254(10)
H5_4 H 0.0505 0.1428 0.8596
H6_4 H 0.1096 0.3005 0.8572
H7_4 H 0.1428 0.1995 0.8904
C16_4 C 0.02849(11) 0.10000(12) 0.83074(11)
C17_4 C 0.08074(11) 0.27849(11) 0.90000(12)
C18_4 C 0.10000(12) 0.22151(11) 0.91926(11)
H10_4 H 0.0487 0.0975 0.8143
H11_4 H 0.0643 0.2987 0.9025
H12_4 H 0.0975 0.2013 0.9357
Cu5_5 Cu 1.0000 0.038388(10) 0.788388(10)
N13_4 N 0.97573(10) 0.16084(9) 0.93690(10)
N16_5 N 1.0000 0.07736(7) 0.82736(7)
C5_5 C 1.0000 0.15956(8) 0.90956(8)
C7_5 C 1.0000 0.13108(8) 0.88108(8)
C10_4 C 0.97036(11) 0.10746(10) 0.87712(12)
H4_4 H 0.9495 0.1096 0.8928
C15_4 C 0.97151(11) 0.08074(11) 0.85000(12)
H9_4 H 0.9513 0.0643 0.8475
Cu1_7 Cu 0.538388(10) 0.0000 0.788388(10)
O1_13 O 0.5000 -0.0000 0.7500
Cu3_7 Cu 0.461612(10) 0.038388(10) 0.7500
Cu6_4 Cu 0.7500 0.038388(10) 0.961612(10)
N5_4 N 0.51440(10) 0.04412(9) 0.80966(9)
N6_4 N 0.48560(10) 0.05966(9) 0.79412(9)
N7_5 N 0.70588(9) 0.01440(10) 0.94034(9)
N10_4 N 0.44034(9) 0.01440(10) 0.70588(9)
N12_5 N 0.52427(10) 0.06310(10) 0.83916(9)
N13_5 N 0.47573(10) 0.08916(9) 0.81310(10)
N14_5 N 0.68690(10) 0.02427(10) 0.91084(9)
N16_6 N 0.5000 0.17264(7) 0.92264(7)
N17_7 N 0.57736(7) 0.0000 0.82736(7)
N19_7 N 0.42264(7) 0.07736(7) 0.7500
C5_6 C 0.5000 0.09044(8) 0.84044(8)
C6_8 C 0.65956(8) 0.0000 0.90956(8)
C7_6 C 0.5000 0.11892(8) 0.86892(8)
C8_8 C 0.63108(8) 0.0000 0.88108(8)
C10_5 C 0.47036(11) 0.14254(10) 0.87288(12)
C11_5 C 0.52964(11) 0.12288(12) 0.89254(10)
C13_5 C 0.62712(12) 0.02964(11) 0.85746(10)
H4_5 H 0.4495 0.1404 0.8572
H5_5 H 0.5505 0.1072 0.8904
H7_5 H 0.6428 0.0505 0.8596
C15_5 C 0.47151(11) 0.16926(11) 0.90000(12)
C16_5 C 0.52849(11) 0.15000(12) 0.91926(11)
C18_5 C 0.60000(12) 0.02849(11) 0.83074(11)
H9_5 H 0.4513 0.1857 0.9025
H10_5 H 0.5487 0.1525 0.9357
H12_5 H 0.5975 0.0487 0.8143
Cu7_5 Cu 0.711612(10) 0.961612(10) -0.0000
Cu1_8 Cu 0.538388(10) 1.0000 0.788388(10)
O1_14 O 0.5000 1.0000 0.7500
N1_4 N 0.55966(9) 0.95588(9) 0.76440(10)
N2_4 N 0.58916(9) 0.93690(10) 0.77427(10)
N3_7 N 0.67264(7) 0.82736(7) 0.7500
C1_7 C 0.59044(8) 0.90956(8) 0.7500
C2_7 C 0.61892(8) 0.88108(8) 0.7500
C3_4 C 0.62288(12) 0.85746(10) 0.72036(11)
H1_4 H 0.6072 0.8596 0.6995
C4_4 C 0.65000(12) 0.83074(11) 0.72151(11)
H2_4 H 0.6525 0.8143 0.7013
Cu2_4 Cu 0.5000 0.961612(10) 0.711612(10)
Cu4_7 Cu 0.711612(10) 0.788388(10) 0.7500
Cu7_6 Cu 0.711612(10) 0.961612(10) 1.0000
N4_4 N 0.54412(9) 0.94034(9) 0.73560(10)
N8_5 N 0.69034(9) 0.98560(10) 0.95588(9)
N9_4 N 0.45588(9) 0.98560(10) 0.69034(9)
N11_4 N 0.56310(10) 0.91084(9) 0.72573(10)
N15_5 N 0.66084(9) 0.97573(10) 0.93690(10)
N17_8 N 0.57736(7) 1.0000 0.82736(7)
N18_4 N 0.5000 0.92264(7) 0.67264(7)
C6_9 C 0.65956(8) 1.0000 0.90956(8)
C8_9 C 0.63108(8) 1.0000 0.88108(8)
C9_4 C 0.64254(10) 0.87712(12) 0.77964(11)
C12_5 C 0.60746(10) 0.97036(11) 0.87712(12)
H3_4 H 0.6404 0.8928 0.8005
H6_5 H 0.6096 0.9495 0.8928
C14_4 C 0.66926(11) 0.85000(12) 0.77849(11)
C17_5 C 0.58074(11) 0.97151(11) 0.85000(12)
H8_4 H 0.6857 0.8475 0.7987
H11_5 H 0.5643 0.9513 0.8475
Cu1_9 Cu 0.711612(10) 0.7500 0.288388(10)
O1_15 O 0.7500 0.7500 0.2500
N1_5 N 0.69034(9) 0.79412(9) 0.26440(10)
N2_5 N 0.66084(9) 0.81310(10) 0.27427(10)
N3_8 N 0.57736(7) 0.92264(7) 0.2500
C1_8 C 0.65956(8) 0.84044(8) 0.2500
C2_8 C 0.63108(8) 0.86892(8) 0.2500
C3_5 C 0.62712(12) 0.89254(10) 0.22036(11)
H1_5 H 0.6428 0.8904 0.1995
C4_5 C 0.60000(12) 0.91926(11) 0.22151(11)
H2_5 H 0.5975 0.9357 0.2013
Cu2_5 Cu 0.7500 0.788388(10) 0.211612(10)
Cu3_8 Cu 0.788388(10) 0.711612(10) 0.2500
Cu4_8 Cu 0.538388(10) 0.961612(10) 0.2500
Cu5_6 Cu 0.7500 0.538388(10) 0.461612(10)
Cu6_5 Cu 0.5000 0.711612(10) 0.461612(10)
Cu7_7 Cu 0.538388(10) 0.788388(10) 0.5000
N4_5 N 0.70588(9) 0.80966(9) 0.23560(10)
N5_5 N 0.73560(10) 0.70588(9) 0.30966(9)
N6_5 N 0.76440(10) 0.69034(9) 0.29412(9)
N7_6 N 0.54412(9) 0.73560(10) 0.44034(9)
N8_6 N 0.55966(9) 0.76440(10) 0.45588(9)
N9_5 N 0.79412(9) 0.76440(10) 0.19034(9)
N10_5 N 0.80966(9) 0.73560(10) 0.20588(9)
N11_5 N 0.68690(10) 0.83916(9) 0.22573(10)
N12_6 N 0.72573(10) 0.68690(10) 0.33916(9)
N13_6 N 0.77427(10) 0.66084(9) 0.31310(10)
N14_6 N 0.56310(10) 0.72573(10) 0.41084(9)
N15_6 N 0.58916(9) 0.77427(10) 0.43690(10)
N16_7 N 0.7500 0.57736(7) 0.42264(7)
N17_9 N 0.67264(7) 0.7500 0.32736(7)
N18_5 N 0.7500 0.82736(7) 0.17264(7)
N19_8 N 0.82736(7) 0.67264(7) 0.2500
C5_7 C 0.7500 0.65956(8) 0.34044(8)
C6_10 C 0.59044(8) 0.7500 0.40956(8)
C7_7 C 0.7500 0.63108(8) 0.36892(8)
C8_10 C 0.61892(8) 0.7500 0.38108(8)
C9_5 C 0.60746(10) 0.87288(12) 0.27964(11)
C10_6 C 0.77964(11) 0.60746(10) 0.37288(12)
C11_6 C 0.72036(11) 0.62712(12) 0.39254(10)
C12_6 C 0.64254(10) 0.77964(11) 0.37712(12)
C13_6 C 0.62288(12) 0.72036(11) 0.35746(10)
H3_5 H 0.6096 0.8572 0.3005
H4_6 H 0.8005 0.6096 0.3572
H5_6 H 0.6995 0.6428 0.3904
H6_6 H 0.6404 0.8005 0.3928
H7_6 H 0.6072 0.6995 0.3596
C14_5 C 0.58074(11) 0.90000(12) 0.27849(11)
C15_6 C 0.77849(11) 0.58074(11) 0.40000(12)
C16_6 C 0.72151(11) 0.60000(12) 0.41926(11)
C17_6 C 0.66926(11) 0.77849(11) 0.35000(12)
C18_6 C 0.65000(12) 0.72151(11) 0.33074(11)
H8_5 H 0.5643 0.9025 0.2987
H9_6 H 0.7987 0.5643 0.4025
H10_6 H 0.7013 0.5975 0.4357
H11_6 H 0.6857 0.7987 0.3475
H12_6 H 0.6525 0.7013 0.3143
Cu1_10 Cu 0.7500 0.288388(10) 0.711612(10)
O1_16 O 0.7500 0.2500 0.7500
N1_6 N 0.79412(9) 0.26440(10) 0.69034(9)
N2_6 N 0.81310(10) 0.27427(10) 0.66084(9)
N3_9 N 0.92264(7) 0.2500 0.57736(7)
C1_9 C 0.84044(8) 0.2500 0.65956(8)
C2_9 C 0.86892(8) 0.2500 0.63108(8)
C3_6 C 0.89254(10) 0.22036(11) 0.62712(12)
H1_6 H 0.8904 0.1995 0.6428
C4_6 C 0.91926(11) 0.22151(11) 0.60000(12)
H2_6 H 0.9357 0.2013 0.5975
Cu2_6 Cu 0.788388(10) 0.211612(10) 0.7500
Cu3_9 Cu 0.711612(10) 0.2500 0.788388(10)
Cu4_9 Cu 0.961612(10) 0.2500 0.538388(10)
Cu5_7 Cu 0.538388(10) 0.461612(10) 0.7500
Cu6_6 Cu 0.711612(10) 0.461612(10) 0.5000
Cu7_8 Cu 0.788388(10) 0.5000 0.538388(10)
N4_6 N 0.80966(9) 0.23560(10) 0.70588(9)
N5_6 N 0.70588(9) 0.30966(9) 0.73560(10)
N6_6 N 0.69034(9) 0.29412(9) 0.76440(10)
N7_7 N 0.73560(10) 0.44034(9) 0.54412(9)
N8_7 N 0.76440(10) 0.45588(9) 0.55966(9)
N9_6 N 0.76440(10) 0.19034(9) 0.79412(9)
N10_6 N 0.73560(10) 0.20588(9) 0.80966(9)
N11_6 N 0.83916(9) 0.22573(10) 0.68690(10)
N12_7 N 0.68690(10) 0.33916(9) 0.72573(10)
N13_7 N 0.66084(9) 0.31310(10) 0.77427(10)
N14_7 N 0.72573(10) 0.41084(9) 0.56310(10)
N15_7 N 0.77427(10) 0.43690(10) 0.58916(9)
N16_8 N 0.57736(7) 0.42264(7) 0.7500
N17_10 N 0.7500 0.32736(7) 0.67264(7)
N18_6 N 0.82736(7) 0.17264(7) 0.7500
N19_9 N 0.67264(7) 0.2500 0.82736(7)
C5_8 C 0.65956(8) 0.34044(8) 0.7500
C6_11 C 0.7500 0.40956(8) 0.59044(8)
C7_8 C 0.63108(8) 0.36892(8) 0.7500
C8_11 C 0.7500 0.38108(8) 0.61892(8)
C9_6 C 0.87288(12) 0.27964(11) 0.60746(10)
C10_7 C 0.60746(10) 0.37288(12) 0.77964(11)
C11_7 C 0.62712(12) 0.39254(10) 0.72036(11)
C12_7 C 0.77964(11) 0.37712(12) 0.64254(10)
C13_7 C 0.72036(11) 0.35746(10) 0.62288(12)
H3_6 H 0.8572 0.3005 0.6096
H4_7 H 0.6096 0.3572 0.8005
H5_7 H 0.6428 0.3904 0.6995
H6_7 H 0.8005 0.3928 0.6404
H7_7 H 0.6995 0.3596 0.6072
C14_6 C 0.90000(12) 0.27849(11) 0.58074(11)
C15_7 C 0.58074(11) 0.40000(12) 0.77849(11)
C16_7 C 0.60000(12) 0.41926(11) 0.72151(11)
C17_7 C 0.77849(11) 0.35000(12) 0.66926(11)
C18_7 C 0.72151(11) 0.33074(11) 0.65000(12)
H8_6 H 0.9025 0.2987 0.5643
H9_7 H 0.5643 0.4025 0.7987
H10_7 H 0.5975 0.4357 0.7013
H11_7 H 0.7987 0.3475 0.6857
H12_7 H 0.7013 0.3143 0.6525
Cu1_11 Cu 0.0000 0.788388(10) 0.538388(10)
O1_17 O -0.0000 0.7500 0.5000
Cu3_10 Cu 0.038388(10) 0.7500 0.461612(10)
Cu6_7 Cu 0.038388(10) 0.961612(10) 0.7500
N5_7 N 0.04412(9) 0.80966(9) 0.51440(10)
N6_7 N 0.05966(9) 0.79412(9) 0.48560(10)
N7_8 N 0.01440(10) 0.94034(9) 0.70588(9)
N10_7 N 0.01440(10) 0.70588(9) 0.44034(9)
N12_8 N 0.06310(10) 0.83916(9) 0.52427(10)
N13_8 N 0.08916(9) 0.81310(10) 0.47573(10)
N14_8 N 0.02427(10) 0.91084(9) 0.68690(10)
N16_9 N 0.17264(7) 0.92264(7) 0.5000
N17_11 N -0.0000 0.82736(7) 0.57736(7)
N19_10 N 0.07736(7) 0.7500 0.42264(7)
C5_9 C 0.09044(8) 0.84044(8) 0.5000
C6_12 C 0.0000 0.90956(8) 0.65956(8)
C7_9 C 0.11892(8) 0.86892(8) 0.5000
C8_12 C -0.0000 0.88108(8) 0.63108(8)
C10_8 C 0.14254(10) 0.87288(12) 0.47036(11)
C11_8 C 0.12288(12) 0.89254(10) 0.52964(11)
C13_8 C 0.02964(11) 0.85746(10) 0.62712(12)
H4_8 H 0.1404 0.8572 0.4495
H5_8 H 0.1072 0.8904 0.5505
H7_8 H 0.0505 0.8596 0.6428
C15_8 C 0.16926(11) 0.90000(12) 0.47151(11)
C16_8 C 0.15000(12) 0.91926(11) 0.52849(11)
C18_8 C 0.02849(11) 0.83074(11) 0.60000(12)
H9_8 H 0.1857 0.9025 0.4513
H10_8 H 0.1525 0.9357 0.5487
H12_8 H 0.0487 0.8143 0.5975
Cu7_9 Cu 0.961612(10) -0.0000 0.711612(10)
Cu1_12 Cu 1.0000 0.788388(10) 0.538388(10)
O1_18 O 1.0000 0.7500 0.5000
N1_7 N 0.95588(9) 0.76440(10) 0.55966(9)
N2_7 N 0.93690(10) 0.77427(10) 0.58916(9)
N3_10 N 0.82736(7) 0.7500 0.67264(7)
C1_10 C 0.90956(8) 0.7500 0.59044(8)
C2_10 C 0.88108(8) 0.7500 0.61892(8)
C3_7 C 0.85746(10) 0.72036(11) 0.62288(12)
H1_7 H 0.8596 0.6995 0.6072
C4_7 C 0.83074(11) 0.72151(11) 0.65000(12)
H2_7 H 0.8143 0.7013 0.6525
Cu2_7 Cu 0.961612(10) 0.711612(10) 0.5000
Cu4_10 Cu 0.788388(10) 0.7500 0.711612(10)
Cu7_10 Cu 0.961612(10) 1.0000 0.711612(10)
N4_7 N 0.94034(9) 0.73560(10) 0.54412(9)
N8_8 N 0.98560(10) 0.95588(9) 0.69034(9)
N9_7 N 0.98560(10) 0.69034(9) 0.45588(9)
N11_7 N 0.91084(9) 0.72573(10) 0.56310(10)
N15_8 N 0.97573(10) 0.93690(10) 0.66084(9)
N17_12 N 1.0000 0.82736(7) 0.57736(7)
N18_7 N 0.92264(7) 0.67264(7) 0.5000
C6_13 C 1.0000 0.90956(8) 0.65956(8)
C8_13 C 1.0000 0.88108(8) 0.63108(8)
C9_7 C 0.87712(12) 0.77964(11) 0.64254(10)
C12_8 C 0.97036(11) 0.87712(12) 0.60746(10)
H3_7 H 0.8928 0.8005 0.6404
H6_8 H 0.9495 0.8928 0.6096
C14_7 C 0.85000(12) 0.77849(11) 0.66926(11)
C17_8 C 0.97151(11) 0.85000(12) 0.58074(11)
H8_7 H 0.8475 0.7987 0.6857
H11_8 H 0.9513 0.8475 0.5643
Cu5_8 Cu 0.038388(10) 0.788388(10) -0.0000
Cu7_11 Cu 0.288388(10) 0.7500 0.211612(10)
N7_9 N 0.23560(10) 0.80966(9) 0.20588(9)
N8_9 N 0.26440(10) 0.79412(9) 0.19034(9)
N12_9 N 0.18690(10) 0.91084(9) 0.02427(10)
N14_9 N 0.22573(10) 0.83916(9) 0.18690(10)
N15_9 N 0.27427(10) 0.81310(10) 0.16084(9)
N16_10 N 0.07736(7) 0.82736(7) -0.0000
C5_10 C 0.15956(8) 0.90956(8) -0.0000
C6_14 C 0.2500 0.84044(8) 0.15956(8)
C7_10 C 0.13108(8) 0.88108(8) -0.0000
C8_14 C 0.2500 0.86892(8) 0.13108(8)
C11_9 C 0.12712(12) 0.85746(10) 0.02964(11)
C12_9 C 0.27964(11) 0.87288(12) 0.10746(10)
C13_9 C 0.22036(11) 0.89254(10) 0.12712(12)
H5_9 H 0.1428 0.8596 0.0505
H6_9 H 0.3005 0.8572 0.1096
H7_9 H 0.1995 0.8904 0.1428
C16_9 C 0.10000(12) 0.83074(11) 0.02849(11)
C17_9 C 0.27849(11) 0.90000(12) 0.08074(11)
C18_9 C 0.22151(11) 0.91926(11) 0.10000(12)
H10_9 H 0.0975 0.8143 0.0487
H11_9 H 0.2987 0.9025 0.0643
H12_9 H 0.2013 0.9357 0.0975
Cu5_9 Cu 0.038388(10) 0.788388(10) 1.0000
N13_9 N 0.16084(9) 0.93690(10) 0.97573(10)
N16_11 N 0.07736(7) 0.82736(7) 1.0000
C5_11 C 0.15956(8) 0.90956(8) 1.0000
C7_11 C 0.13108(8) 0.88108(8) 1.0000
C10_9 C 0.10746(10) 0.87712(12) 0.97036(11)
H4_9 H 0.1096 0.8928 0.9495
C15_9 C 0.08074(11) 0.85000(12) 0.97151(11)
H9_9 H 0.0643 0.8475 0.9513
Cu7_12 Cu -0.0000 0.711612(10) 0.961612(10)
Cu1_13 Cu 0.788388(10) 0.538388(10) 0.0000
O1_19 O 0.7500 0.5000 0.0000
Cu3_11 Cu 0.7500 0.461612(10) 0.038388(10)
Cu6_8 Cu 0.961612(10) 0.7500 0.038388(10)
N5_8 N 0.80966(9) 0.51440(10) 0.04412(9)
N6_8 N 0.79412(9) 0.48560(10) 0.05966(9)
N7_10 N 0.94034(9) 0.70588(9) 0.01440(10)
N10_8 N 0.70588(9) 0.44034(9) 0.01440(10)
N12_10 N 0.83916(9) 0.52427(10) 0.06310(10)
N13_10 N 0.81310(10) 0.47573(10) 0.08916(9)
N14_10 N 0.91084(9) 0.68690(10) 0.02427(10)
N16_12 N 0.92264(7) 0.5000 0.17264(7)
N17_13 N 0.82736(7) 0.57736(7) -0.0000
N19_11 N 0.7500 0.42264(7) 0.07736(7)
C5_12 C 0.84044(8) 0.5000 0.09044(8)
C6_15 C 0.90956(8) 0.65956(8) -0.0000
C7_12 C 0.86892(8) 0.5000 0.11892(8)
C8_15 C 0.88108(8) 0.63108(8) 0.0000
C10_10 C 0.87288(12) 0.47036(11) 0.14254(10)
C11_10 C 0.89254(10) 0.52964(11) 0.12288(12)
C13_10 C 0.85746(10) 0.62712(12) 0.02964(11)
H4_10 H 0.8572 0.4495 0.1404
H5_10 H 0.8904 0.5505 0.1072
H7_10 H 0.8596 0.6428 0.0505
C15_10 C 0.90000(12) 0.47151(11) 0.16926(11)
C16_10 C 0.91926(11) 0.52849(11) 0.15000(12)
C18_10 C 0.83074(11) 0.60000(12) 0.02849(11)
H9_10 H 0.9025 0.4513 0.1857
H10_10 H 0.9357 0.5487 0.1525
H12_10 H 0.8143 0.5975 0.0487
Cu1_14 Cu 0.788388(10) 0.538388(10) 1.0000
O1_20 O 0.7500 0.5000 1.0000
N1_8 N 0.76440(10) 0.55966(9) 0.95588(9)
N2_8 N 0.77427(10) 0.58916(9) 0.93690(10)
N3_11 N 0.7500 0.67264(7) 0.82736(7)
C1_11 C 0.7500 0.59044(8) 0.90956(8)
C2_11 C 0.7500 0.61892(8) 0.88108(8)
C3_8 C 0.72036(11) 0.62288(12) 0.85746(10)
H1_8 H 0.6995 0.6072 0.8596
C4_8 C 0.72151(11) 0.65000(12) 0.83074(11)
H2_8 H 0.7013 0.6525 0.8143
Cu2_8 Cu 0.711612(10) 0.5000 0.961612(10)
Cu4_11 Cu 0.7500 0.711612(10) 0.788388(10)
Cu7_13 Cu 1.0000 0.711612(10) 0.961612(10)
N4_8 N 0.73560(10) 0.54412(9) 0.94034(9)
N8_10 N 0.95588(9) 0.69034(9) 0.98560(10)
N9_8 N 0.69034(9) 0.45588(9) 0.98560(10)
N11_8 N 0.72573(10) 0.56310(10) 0.91084(9)
N15_10 N 0.93690(10) 0.66084(9) 0.97573(10)
N17_14 N 0.82736(7) 0.57736(7) 1.0000
N18_8 N 0.67264(7) 0.5000 0.92264(7)
C6_16 C 0.90956(8) 0.65956(8) 1.0000
C8_16 C 0.88108(8) 0.63108(8) 1.0000
C9_8 C 0.77964(11) 0.64254(10) 0.87712(12)
C12_10 C 0.87712(12) 0.60746(10) 0.97036(11)
H3_8 H 0.8005 0.6404 0.8928
H6_10 H 0.8928 0.6096 0.9495
C14_8 C 0.77849(11) 0.66926(11) 0.85000(12)
C17_10 C 0.85000(12) 0.58074(11) 0.97151(11)
H8_8 H 0.7987 0.6857 0.8475
H11_10 H 0.8475 0.5643 0.9513
Cu1_15 Cu 0.288388(10) 0.711612(10) 0.7500
O1_21 O 0.2500 0.7500 0.7500
N1_9 N 0.26440(10) 0.69034(9) 0.79412(9)
N2_9 N 0.27427(10) 0.66084(9) 0.81310(10)
N3_12 N 0.2500 0.57736(7) 0.92264(7)
C1_12 C 0.2500 0.65956(8) 0.84044(8)
C2_12 C 0.2500 0.63108(8) 0.86892(8)
C3_9 C 0.22036(11) 0.62712(12) 0.89254(10)
H1_9 H 0.1995 0.6428 0.8904
C4_9 C 0.22151(11) 0.60000(12) 0.91926(11)
H2_9 H 0.2013 0.5975 0.9357
Cu2_9 Cu 0.211612(10) 0.7500 0.788388(10)
Cu3_12 Cu 0.2500 0.788388(10) 0.711612(10)
Cu4_12 Cu 0.2500 0.538388(10) 0.961612(10)
Cu5_10 Cu 0.461612(10) 0.7500 0.538388(10)
Cu6_9 Cu 0.461612(10) 0.5000 0.711612(10)
Cu7_14 Cu 0.5000 0.538388(10) 0.788388(10)
N4_9 N 0.23560(10) 0.70588(9) 0.80966(9)
N5_9 N 0.30966(9) 0.73560(10) 0.70588(9)
N6_9 N 0.29412(9) 0.76440(10) 0.69034(9)
N7_11 N 0.44034(9) 0.54412(9) 0.73560(10)
N8_11 N 0.45588(9) 0.55966(9) 0.76440(10)
N9_9 N 0.19034(9) 0.79412(9) 0.76440(10)
N10_9 N 0.20588(9) 0.80966(9) 0.73560(10)
N11_9 N 0.22573(10) 0.68690(10) 0.83916(9)
N12_11 N 0.33916(9) 0.72573(10) 0.68690(10)
N13_11 N 0.31310(10) 0.77427(10) 0.66084(9)
N14_11 N 0.41084(9) 0.56310(10) 0.72573(10)
N15_11 N 0.43690(10) 0.58916(9) 0.77427(10)
N16_13 N 0.42264(7) 0.7500 0.57736(7)
N17_15 N 0.32736(7) 0.67264(7) 0.7500
N18_9 N 0.17264(7) 0.7500 0.82736(7)
N19_12 N 0.2500 0.82736(7) 0.67264(7)
C5_13 C 0.34044(8) 0.7500 0.65956(8)
C6_17 C 0.40956(8) 0.59044(8) 0.7500
C7_13 C 0.36892(8) 0.7500 0.63108(8)
C8_17 C 0.38108(8) 0.61892(8) 0.7500
C9_9 C 0.27964(11) 0.60746(10) 0.87288(12)
C10_11 C 0.37288(12) 0.77964(11) 0.60746(10)
C11_11 C 0.39254(10) 0.72036(11) 0.62712(12)
C12_11 C 0.37712(12) 0.64254(10) 0.77964(11)
C13_11 C 0.35746(10) 0.62288(12) 0.72036(11)
H3_9 H 0.3005 0.6096 0.8572
H4_11 H 0.3572 0.8005 0.6096
H5_11 H 0.3904 0.6995 0.6428
H6_11 H 0.3928 0.6404 0.8005
H7_11 H 0.3596 0.6072 0.6995
C14_9 C 0.27849(11) 0.58074(11) 0.90000(12)
C15_11 C 0.40000(12) 0.77849(11) 0.58074(11)
C16_11 C 0.41926(11) 0.72151(11) 0.60000(12)
C17_11 C 0.35000(12) 0.66926(11) 0.77849(11)
C18_11 C 0.33074(11) 0.65000(12) 0.72151(11)
H8_9 H 0.2987 0.5643 0.9025
H9_11 H 0.4025 0.7987 0.5643
H10_11 H 0.4357 0.7013 0.5975
H11_11 H 0.3475 0.6857 0.7987
H12_11 H 0.3143 0.6525 0.7013
Cu5_11 Cu 0.788388(10) -0.0000 0.038388(10)
Cu7_15 Cu 0.7500 0.211612(10) 0.288388(10)
N7_12 N 0.80966(9) 0.20588(9) 0.23560(10)
N8_12 N 0.79412(9) 0.19034(9) 0.26440(10)
N12_12 N 0.91084(9) 0.02427(10) 0.18690(10)
N14_12 N 0.83916(9) 0.18690(10) 0.22573(10)
N15_12 N 0.81310(10) 0.16084(9) 0.27427(10)
N16_14 N 0.82736(7) -0.0000 0.07736(7)
C5_14 C 0.90956(8) -0.0000 0.15956(8)
C6_18 C 0.84044(8) 0.15956(8) 0.2500
C7_14 C 0.88108(8) -0.0000 0.13108(8)
C8_18 C 0.86892(8) 0.13108(8) 0.2500
C11_12 C 0.85746(10) 0.02964(11) 0.12712(12)
C12_12 C 0.87288(12) 0.10746(10) 0.27964(11)
C13_12 C 0.89254(10) 0.12712(12) 0.22036(11)
H5_12 H 0.8596 0.0505 0.1428
H6_12 H 0.8572 0.1096 0.3005
H7_12 H 0.8904 0.1428 0.1995
C16_12 C 0.83074(11) 0.02849(11) 0.10000(12)
C17_12 C 0.90000(12) 0.08074(11) 0.27849(11)
C18_12 C 0.91926(11) 0.10000(12) 0.22151(11)
H10_12 H 0.8143 0.0487 0.0975
H11_12 H 0.9025 0.0643 0.2987
H12_12 H 0.9357 0.0975 0.2013
Cu5_12 Cu 0.788388(10) 1.0000 0.038388(10)
N13_12 N 0.93690(10) 0.97573(10) 0.16084(9)
N16_15 N 0.82736(7) 1.0000 0.07736(7)
C5_15 C 0.90956(8) 1.0000 0.15956(8)
C7_15 C 0.88108(8) 1.0000 0.13108(8)
C10_12 C 0.87712(12) 0.97036(11) 0.10746(10)
H4_12 H 0.8928 0.9495 0.1096
C15_12 C 0.85000(12) 0.97151(11) 0.08074(11)
H9_12 H 0.8475 0.9513 0.0643
Cu1_16 Cu 0.038388(10) 0.5000 0.788388(10)
O1_22 O -0.0000 0.5000 0.7500
N1_10 N 0.01440(10) 0.54412(9) 0.80966(9)
N2_10 N 0.02427(10) 0.56310(10) 0.83916(9)
N3_13 N 0.0000 0.67264(7) 0.92264(7)
C1_13 C 0.0000 0.59044(8) 0.84044(8)
C2_13 C 0.0000 0.61892(8) 0.86892(8)
Cu3_13 Cu 0.0000 0.461612(10) 0.711612(10)
N5_10 N 0.05966(9) 0.45588(9) 0.76440(10)
N6_10 N 0.04412(9) 0.44034(9) 0.73560(10)
N7_13 N 0.19034(9) 0.48560(10) 0.95588(9)
N8_13 N 0.20588(9) 0.51440(10) 0.94034(9)
N12_13 N 0.08916(9) 0.43690(10) 0.77427(10)
N13_13 N 0.06310(10) 0.41084(9) 0.72573(10)
N14_13 N 0.16084(9) 0.47573(10) 0.93690(10)
N15_13 N 0.18690(10) 0.52427(10) 0.91084(9)
N16_16 N 0.17264(7) 0.32736(7) 0.7500
N17_16 N 0.07736(7) 0.5000 0.82736(7)
N19_13 N -0.0000 0.42264(7) 0.67264(7)
C5_16 C 0.09044(8) 0.40956(8) 0.7500
C6_19 C 0.15956(8) 0.5000 0.90956(8)
C7_16 C 0.11892(8) 0.38108(8) 0.7500
C8_19 C 0.13108(8) 0.5000 0.88108(8)
C9_10 C 0.02964(11) 0.62288(12) 0.89254(10)
C10_13 C 0.12288(12) 0.35746(10) 0.72036(11)
C11_13 C 0.14254(10) 0.37712(12) 0.77964(11)
C12_13 C 0.12712(12) 0.52964(11) 0.85746(10)
C13_13 C 0.10746(10) 0.47036(11) 0.87712(12)
H3_10 H 0.0505 0.6072 0.8904
H4_13 H 0.1072 0.3596 0.6995
H5_13 H 0.1404 0.3928 0.8005
H6_13 H 0.1428 0.5505 0.8596
H7_13 H 0.1096 0.4495 0.8928
C14_10 C 0.02849(11) 0.65000(12) 0.91926(11)
C15_13 C 0.15000(12) 0.33074(11) 0.72151(11)
C16_13 C 0.16926(11) 0.35000(12) 0.77849(11)
C17_13 C 0.10000(12) 0.52849(11) 0.83074(11)
C18_13 C 0.08074(11) 0.47151(11) 0.85000(12)
H8_10 H 0.0487 0.6525 0.9357
H9_13 H 0.1525 0.3143 0.7013
H10_13 H 0.1857 0.3475 0.7987
H11_13 H 0.0975 0.5487 0.8143
H12_13 H 0.0643 0.4513 0.8475
O1_23 O 1.0000 0.5000 0.7500
N3_14 N 1.0000 0.67264(7) 0.92264(7)
C1_14 C 1.0000 0.59044(8) 0.84044(8)
C2_14 C 1.0000 0.61892(8) 0.86892(8)
C3_10 C 0.97036(11) 0.64254(10) 0.87288(12)
H1_10 H 0.9495 0.6404 0.8572
C4_10 C 0.97151(11) 0.66926(11) 0.90000(12)
H2_10 H 0.9513 0.6857 0.9025
Cu2_10 Cu 0.961612(10) 0.538388(10) 0.7500
Cu3_14 Cu 1.0000 0.461612(10) 0.711612(10)
N4_10 N 0.98560(10) 0.55966(9) 0.79412(9)
N9_10 N 0.94034(9) 0.51440(10) 0.70588(9)
N10_10 N 0.95588(9) 0.48560(10) 0.69034(9)
N11_10 N 0.97573(10) 0.58916(9) 0.81310(10)
N18_10 N 0.92264(7) 0.57736(7) 0.7500
N19_14 N 1.0000 0.42264(7) 0.67264(7)
Cu1_17 Cu 0.211612(10) 0.2500 0.288388(10)
O1_24 O 0.2500 0.2500 0.2500
N1_11 N 0.23560(10) 0.20588(9) 0.30966(9)
N2_11 N 0.22573(10) 0.18690(10) 0.33916(9)
N3_15 N 0.2500 0.07736(7) 0.42264(7)
C1_15 C 0.2500 0.15956(8) 0.34044(8)
C2_15 C 0.2500 0.13108(8) 0.36892(8)
C3_11 C 0.27964(11) 0.10746(10) 0.37288(12)
H1_11 H 0.3005 0.1096 0.3572
C4_11 C 0.27849(11) 0.08074(11) 0.40000(12)
H2_11 H 0.2987 0.0643 0.4025
Cu2_11 Cu 0.288388(10) 0.211612(10) 0.2500
Cu3_15 Cu 0.2500 0.288388(10) 0.211612(10)
Cu6_10 Cu 0.038388(10) 0.288388(10) 0.5000
N4_11 N 0.26440(10) 0.19034(9) 0.29412(9)
N5_11 N 0.19034(9) 0.29412(9) 0.26440(10)
N6_11 N 0.20588(9) 0.30966(9) 0.23560(10)
N7_14 N 0.05966(9) 0.26440(10) 0.45588(9)
N8_14 N 0.04412(9) 0.23560(10) 0.44034(9)
N9_11 N 0.30966(9) 0.23560(10) 0.20588(9)
N10_11 N 0.29412(9) 0.26440(10) 0.19034(9)
N11_11 N 0.27427(10) 0.16084(9) 0.31310(10)
N12_14 N 0.16084(9) 0.31310(10) 0.27427(10)
N13_14 N 0.18690(10) 0.33916(9) 0.22573(10)
N14_14 N 0.08916(9) 0.27427(10) 0.43690(10)
N15_14 N 0.06310(10) 0.22573(10) 0.41084(9)
N16_17 N 0.07736(7) 0.42264(7) 0.2500
N17_17 N 0.17264(7) 0.2500 0.32736(7)
N18_11 N 0.32736(7) 0.17264(7) 0.2500
N19_15 N 0.2500 0.32736(7) 0.17264(7)
C5_17 C 0.15956(8) 0.34044(8) 0.2500
C6_20 C 0.09044(8) 0.2500 0.40956(8)
C7_17 C 0.13108(8) 0.36892(8) 0.2500
C8_20 C 0.11892(8) 0.2500 0.38108(8)
C9_11 C 0.22036(11) 0.12712(12) 0.39254(10)
C10_14 C 0.12712(12) 0.39254(10) 0.22036(11)
C11_14 C 0.10746(10) 0.37288(12) 0.27964(11)
C12_14 C 0.12288(12) 0.22036(11) 0.35746(10)
C13_14 C 0.14254(10) 0.27964(11) 0.37712(12)
H3_11 H 0.1995 0.1428 0.3904
H4_14 H 0.1428 0.3904 0.1995
H5_14 H 0.1096 0.3572 0.3005
H6_14 H 0.1072 0.1995 0.3596
H7_14 H 0.1404 0.3005 0.3928
C14_11 C 0.22151(11) 0.10000(12) 0.41926(11)
C15_14 C 0.10000(12) 0.41926(11) 0.22151(11)
C16_14 C 0.08074(11) 0.40000(12) 0.27849(11)
C17_14 C 0.15000(12) 0.22151(11) 0.33074(11)
C18_14 C 0.16926(11) 0.27849(11) 0.35000(12)
H8_11 H 0.2013 0.0975 0.4357
H9_14 H 0.0975 0.4357 0.2013
H10_14 H 0.0643 0.4025 0.2987
H11_14 H 0.1525 0.2013 0.3143
H12_14 H 0.1857 0.2987 0.3475
Cu1_18 Cu 0.288388(10) 0.538388(10) 0.5000
O1_25 O 0.2500 0.5000 0.5000
N1_12 N 0.30966(9) 0.51440(10) 0.54412(9)
N2_12 N 0.33916(9) 0.52427(10) 0.56310(10)
N3_16 N 0.42264(7) 0.5000 0.67264(7)
C1_16 C 0.34044(8) 0.5000 0.59044(8)
C2_16 C 0.36892(8) 0.5000 0.61892(8)
C3_12 C 0.37288(12) 0.47036(11) 0.64254(10)
H1_12 H 0.3572 0.4495 0.6404
C4_12 C 0.40000(12) 0.47151(11) 0.66926(11)
H2_12 H 0.4025 0.4513 0.6857
Cu2_12 Cu 0.2500 0.461612(10) 0.538388(10)
Cu3_16 Cu 0.211612(10) 0.5000 0.461612(10)
Cu5_13 Cu 0.2500 0.711612(10) 0.288388(10)
N4_12 N 0.29412(9) 0.48560(10) 0.55966(9)
N5_12 N 0.26440(10) 0.55966(9) 0.45588(9)
N6_12 N 0.23560(10) 0.54412(9) 0.44034(9)
N7_15 N 0.45588(9) 0.69034(9) 0.48560(10)
N8_15 N 0.44034(9) 0.70588(9) 0.51440(10)
N9_12 N 0.20588(9) 0.44034(9) 0.51440(10)
N10_12 N 0.19034(9) 0.45588(9) 0.48560(10)
N11_12 N 0.31310(10) 0.47573(10) 0.58916(9)
N12_15 N 0.27427(10) 0.58916(9) 0.43690(10)
N13_15 N 0.22573(10) 0.56310(10) 0.41084(9)
N14_15 N 0.43690(10) 0.66084(9) 0.47573(10)
N15_15 N 0.41084(9) 0.68690(10) 0.52427(10)
N16_18 N 0.2500 0.67264(7) 0.32736(7)
N17_18 N 0.32736(7) 0.57736(7) 0.5000
N18_12 N 0.2500 0.42264(7) 0.57736(7)
N19_16 N 0.17264(7) 0.5000 0.42264(7)
C5_18 C 0.2500 0.59044(8) 0.40956(8)
C6_21 C 0.40956(8) 0.65956(8) 0.5000
C7_18 C 0.2500 0.61892(8) 0.38108(8)
C8_21 C 0.38108(8) 0.63108(8) 0.5000
C9_12 C 0.39254(10) 0.52964(11) 0.62288(12)
C10_15 C 0.22036(11) 0.62288(12) 0.35746(10)
C11_15 C 0.27964(11) 0.64254(10) 0.37712(12)
C12_15 C 0.35746(10) 0.62712(12) 0.52964(11)
C13_15 C 0.37712(12) 0.60746(10) 0.47036(11)
H3_12 H 0.3904 0.5505 0.6072
H4_15 H 0.1995 0.6072 0.3596
H5_15 H 0.3005 0.6404 0.3928
H6_15 H 0.3596 0.6428 0.5505
H7_15 H 0.3928 0.6096 0.4495
C14_12 C 0.41926(11) 0.52849(11) 0.65000(12)
C15_15 C 0.22151(11) 0.65000(12) 0.33074(11)
C16_15 C 0.27849(11) 0.66926(11) 0.35000(12)
C17_15 C 0.33074(11) 0.60000(12) 0.52849(11)
C18_15 C 0.35000(12) 0.58074(11) 0.47151(11)
H8_12 H 0.4357 0.5487 0.6525
H9_15 H 0.2013 0.6525 0.3143
H10_15 H 0.2987 0.6857 0.3475
H11_15 H 0.3143 0.5975 0.5487
H12_15 H 0.3475 0.5643 0.4513
N8_16 N 0.80966(9) 0.04412(9) 0.01440(10)
N15_16 N 0.83916(9) 0.06310(10) 0.02427(10)
C6_22 C 0.84044(8) 0.09044(8) 0.0000
C8_22 C 0.86892(8) 0.11892(8) 0.0000
C12_16 C 0.89254(10) 0.12288(12) 0.02964(11)
H6_16 H 0.8904 0.1072 0.0505
C17_16 C 0.91926(11) 0.15000(12) 0.02849(11)
H11_16 H 0.9357 0.1525 0.0487
N7_16 N 0.79412(9) 0.05966(9) 0.98560(10)
N14_16 N 0.81310(10) 0.08916(9) 0.97573(10)
C6_23 C 0.84044(8) 0.09044(8) 1.0000
C8_23 C 0.86892(8) 0.11892(8) 1.0000
C13_16 C 0.87288(12) 0.14254(10) 0.97036(11)
H7_16 H 0.8572 0.1404 0.9495
C18_16 C 0.90000(12) 0.16926(11) 0.97151(11)
H12_16 H 0.9025 0.1857 0.9513
Cu1_19 Cu 0.538388(10) 0.5000 0.288388(10)
O1_26 O 0.5000 0.5000 0.2500
N1_13 N 0.55966(9) 0.45588(9) 0.26440(10)
N2_13 N 0.58916(9) 0.43690(10) 0.27427(10)
N3_17 N 0.67264(7) 0.32736(7) 0.2500
C1_17 C 0.59044(8) 0.40956(8) 0.2500
C2_17 C 0.61892(8) 0.38108(8) 0.2500
C3_13 C 0.62288(12) 0.35746(10) 0.22036(11)
H1_13 H 0.6072 0.3596 0.1995
C4_13 C 0.65000(12) 0.33074(11) 0.22151(11)
H2_13 H 0.6525 0.3143 0.2013
Cu2_13 Cu 0.5000 0.461612(10) 0.211612(10)
Cu3_17 Cu 0.461612(10) 0.538388(10) 0.2500
Cu4_13 Cu 0.711612(10) 0.288388(10) 0.2500
N4_13 N 0.54412(9) 0.44034(9) 0.23560(10)
N5_13 N 0.51440(10) 0.54412(9) 0.30966(9)
N6_13 N 0.48560(10) 0.55966(9) 0.29412(9)
N7_17 N 0.70588(9) 0.51440(10) 0.44034(9)
N8_17 N 0.69034(9) 0.48560(10) 0.45588(9)
N9_13 N 0.45588(9) 0.48560(10) 0.19034(9)
N10_13 N 0.44034(9) 0.51440(10) 0.20588(9)
N11_13 N 0.56310(10) 0.41084(9) 0.22573(10)
N12_16 N 0.52427(10) 0.56310(10) 0.33916(9)
N13_16 N 0.47573(10) 0.58916(9) 0.31310(10)
N14_17 N 0.68690(10) 0.52427(10) 0.41084(9)
N15_17 N 0.66084(9) 0.47573(10) 0.43690(10)
N16_19 N 0.5000 0.67264(7) 0.42264(7)
N17_19 N 0.57736(7) 0.5000 0.32736(7)
N18_13 N 0.5000 0.42264(7) 0.17264(7)
N19_17 N 0.42264(7) 0.57736(7) 0.2500
C5_19 C 0.5000 0.59044(8) 0.34044(8)
C6_24 C 0.65956(8) 0.5000 0.40956(8)
C7_19 C 0.5000 0.61892(8) 0.36892(8)
C8_24 C 0.63108(8) 0.5000 0.38108(8)
C9_13 C 0.64254(10) 0.37712(12) 0.27964(11)
C10_16 C 0.47036(11) 0.64254(10) 0.37288(12)
C11_16 C 0.52964(11) 0.62288(12) 0.39254(10)
C12_17 C 0.60746(10) 0.47036(11) 0.37712(12)
C13_17 C 0.62712(12) 0.52964(11) 0.35746(10)
H3_13 H 0.6404 0.3928 0.3005
H4_16 H 0.4495 0.6404 0.3572
H5_16 H 0.5505 0.6072 0.3904
H6_17 H 0.6096 0.4495 0.3928
H7_17 H 0.6428 0.5505 0.3596
C14_13 C 0.66926(11) 0.35000(12) 0.27849(11)
C15_16 C 0.47151(11) 0.66926(11) 0.40000(12)
C16_16 C 0.52849(11) 0.65000(12) 0.41926(11)
C17_17 C 0.58074(11) 0.47151(11) 0.35000(12)
C18_17 C 0.60000(12) 0.52849(11) 0.33074(11)
H8_13 H 0.6857 0.3475 0.2987
H9_16 H 0.4513 0.6857 0.4025
H10_16 H 0.5487 0.6525 0.4357
H11_17 H 0.5643 0.4513 0.3475
H12_17 H 0.5975 0.5487 0.3143
Cu7_16 Cu 0.538388(10) 0.288388(10) -0.0000
Cu7_17 Cu 0.538388(10) 0.288388(10) 1.0000
N7_18 N 0.54412(9) 0.23560(10) 0.94034(9)
N8_18 N 0.55966(9) 0.26440(10) 0.95588(9)
N12_17 N 0.72573(10) 0.18690(10) 0.83916(9)
N13_17 N 0.77427(10) 0.16084(9) 0.81310(10)
N14_18 N 0.56310(10) 0.22573(10) 0.91084(9)
N15_18 N 0.58916(9) 0.27427(10) 0.93690(10)
N16_20 N 0.7500 0.07736(7) 0.92264(7)
C5_20 C 0.7500 0.15956(8) 0.84044(8)
C6_25 C 0.59044(8) 0.2500 0.90956(8)
C7_20 C 0.7500 0.13108(8) 0.86892(8)
C8_25 C 0.61892(8) 0.2500 0.88108(8)
C10_17 C 0.77964(11) 0.10746(10) 0.87288(12)
C11_17 C 0.72036(11) 0.12712(12) 0.89254(10)
C12_18 C 0.64254(10) 0.27964(11) 0.87712(12)
C13_18 C 0.62288(12) 0.22036(11) 0.85746(10)
H4_17 H 0.8005 0.1096 0.8572
H5_17 H 0.6995 0.1428 0.8904
H6_18 H 0.6404 0.3005 0.8928
H7_18 H 0.6072 0.1995 0.8596
C15_17 C 0.77849(11) 0.08074(11) 0.90000(12)
C16_17 C 0.72151(11) 0.10000(12) 0.91926(11)
C17_18 C 0.66926(11) 0.27849(11) 0.85000(12)
C18_18 C 0.65000(12) 0.22151(11) 0.83074(11)
H9_17 H 0.7987 0.0643 0.9025
H10_17 H 0.7013 0.0975 0.9357
H11_18 H 0.6857 0.2987 0.8475
H12_18 H 0.6525 0.2013 0.8143
Cu7_18 Cu 0.288388(10) 0.2500 0.711612(10)
N7_19 N 0.23560(10) 0.30966(9) 0.70588(9)
N8_19 N 0.26440(10) 0.29412(9) 0.69034(9)
N12_18 N 0.18690(10) 0.41084(9) 0.52427(10)
N13_18 N 0.16084(9) 0.43690(10) 0.47573(10)
N14_19 N 0.22573(10) 0.33916(9) 0.68690(10)
N15_19 N 0.27427(10) 0.31310(10) 0.66084(9)
N16_21 N 0.07736(7) 0.32736(7) 0.5000
C5_21 C 0.15956(8) 0.40956(8) 0.5000
C6_26 C 0.2500 0.34044(8) 0.65956(8)
C7_21 C 0.13108(8) 0.38108(8) 0.5000
C8_26 C 0.2500 0.36892(8) 0.63108(8)
C10_18 C 0.10746(10) 0.37712(12) 0.47036(11)
C11_18 C 0.12712(12) 0.35746(10) 0.52964(11)
C12_19 C 0.27964(11) 0.37288(12) 0.60746(10)
C13_19 C 0.22036(11) 0.39254(10) 0.62712(12)
H4_18 H 0.1096 0.3928 0.4495
H5_18 H 0.1428 0.3596 0.5505
H6_19 H 0.3005 0.3572 0.6096
H7_19 H 0.1995 0.3904 0.6428
C15_18 C 0.08074(11) 0.35000(12) 0.47151(11)
C16_18 C 0.10000(12) 0.33074(11) 0.52849(11)
C17_19 C 0.27849(11) 0.40000(12) 0.58074(11)
C18_19 C 0.22151(11) 0.41926(11) 0.60000(12)
H9_18 H 0.0643 0.3475 0.4513
H10_18 H 0.0975 0.3143 0.5487
H11_19 H 0.2987 0.4025 0.5643
H12_19 H 0.2013 0.4357 0.5975
Cu7_19 Cu 0.5000 0.038388(10) 0.288388(10)
N7_20 N 0.44034(9) 0.04412(9) 0.23560(10)
N8_20 N 0.45588(9) 0.05966(9) 0.26440(10)
N12_19 N 0.33916(9) 0.22573(10) 0.18690(10)
N13_19 N 0.31310(10) 0.27427(10) 0.16084(9)
N14_20 N 0.41084(9) 0.06310(10) 0.22573(10)
N15_20 N 0.43690(10) 0.08916(9) 0.27427(10)
N16_22 N 0.42264(7) 0.2500 0.07736(7)
C5_22 C 0.34044(8) 0.2500 0.15956(8)
C6_27 C 0.40956(8) 0.09044(8) 0.2500
C7_22 C 0.36892(8) 0.2500 0.13108(8)
C8_27 C 0.38108(8) 0.11892(8) 0.2500
C10_19 C 0.37288(12) 0.27964(11) 0.10746(10)
C11_19 C 0.39254(10) 0.22036(11) 0.12712(12)
C12_20 C 0.37712(12) 0.14254(10) 0.27964(11)
C13_20 C 0.35746(10) 0.12288(12) 0.22036(11)
H4_19 H 0.3572 0.3005 0.1096
H5_19 H 0.3904 0.1995 0.1428
H6_20 H 0.3928 0.1404 0.3005
H7_20 H 0.3596 0.1072 0.1995
C15_19 C 0.40000(12) 0.27849(11) 0.08074(11)
C16_19 C 0.41926(11) 0.22151(11) 0.10000(12)
C17_20 C 0.35000(12) 0.16926(11) 0.27849(11)
C18_20 C 0.33074(11) 0.15000(12) 0.22151(11)
H9_19 H 0.4025 0.2987 0.0643
H10_19 H 0.4357 0.2013 0.0975
H11_20 H 0.3475 0.1857 0.2987
H12_20 H 0.3143 0.1525 0.2013
N7_21 N 0.80966(9) 0.70588(9) 0.73560(10)
N8_21 N 0.79412(9) 0.69034(9) 0.76440(10)
N12_20 N 0.91084(9) 0.52427(10) 0.68690(10)
N13_20 N 0.93690(10) 0.47573(10) 0.66084(9)
N14_21 N 0.83916(9) 0.68690(10) 0.72573(10)
N15_21 N 0.81310(10) 0.66084(9) 0.77427(10)
N16_23 N 0.82736(7) 0.5000 0.57736(7)
C5_23 C 0.90956(8) 0.5000 0.65956(8)
C6_28 C 0.84044(8) 0.65956(8) 0.7500
C7_23 C 0.88108(8) 0.5000 0.63108(8)
C8_28 C 0.86892(8) 0.63108(8) 0.7500
C10_20 C 0.87712(12) 0.47036(11) 0.60746(10)
C11_20 C 0.85746(10) 0.52964(11) 0.62712(12)
C12_21 C 0.87288(12) 0.60746(10) 0.77964(11)
C13_21 C 0.89254(10) 0.62712(12) 0.72036(11)
H4_20 H 0.8928 0.4495 0.6096
H5_20 H 0.8596 0.5505 0.6428
H6_21 H 0.8572 0.6096 0.8005
H7_21 H 0.8904 0.6428 0.6995
C15_20 C 0.85000(12) 0.47151(11) 0.58074(11)
C16_20 C 0.83074(11) 0.52849(11) 0.60000(12)
C17_21 C 0.90000(12) 0.58074(11) 0.77849(11)
C18_21 C 0.91926(11) 0.60000(12) 0.72151(11)
H9_20 H 0.8475 0.4513 0.5643
H10_20 H 0.8143 0.5487 0.5975
H11_21 H 0.9025 0.5643 0.7987
H12_21 H 0.9357 0.5975 0.7013
Cu1_20 Cu 0.5000 0.288388(10) 0.538388(10)
O1_27 O 0.5000 0.2500 0.5000
N1_14 N 0.54412(9) 0.30966(9) 0.51440(10)
N2_14 N 0.56310(10) 0.33916(9) 0.52427(10)
N3_18 N 0.67264(7) 0.42264(7) 0.5000
C1_18 C 0.59044(8) 0.34044(8) 0.5000
C2_18 C 0.61892(8) 0.36892(8) 0.5000
C3_14 C 0.64254(10) 0.37288(12) 0.47036(11)
H1_14 H 0.6404 0.3572 0.4495
C4_14 C 0.66926(11) 0.40000(12) 0.47151(11)
H2_14 H 0.6857 0.4025 0.4513
Cu2_14 Cu 0.538388(10) 0.2500 0.461612(10)
Cu3_18 Cu 0.461612(10) 0.211612(10) 0.5000
N4_14 N 0.55966(9) 0.29412(9) 0.48560(10)
N5_14 N 0.45588(9) 0.26440(10) 0.55966(9)
N6_14 N 0.44034(9) 0.23560(10) 0.54412(9)
N7_22 N 0.48560(10) 0.45588(9) 0.69034(9)
N8_22 N 0.51440(10) 0.44034(9) 0.70588(9)
N9_14 N 0.51440(10) 0.20588(9) 0.44034(9)
N10_14 N 0.48560(10) 0.19034(9) 0.45588(9)
N11_14 N 0.58916(9) 0.31310(10) 0.47573(10)
N12_21 N 0.43690(10) 0.27427(10) 0.58916(9)
N13_21 N 0.41084(9) 0.22573(10) 0.56310(10)
N14_22 N 0.47573(10) 0.43690(10) 0.66084(9)
N15_22 N 0.52427(10) 0.41084(9) 0.68690(10)
N16_24 N 0.32736(7) 0.2500 0.67264(7)
N17_20 N 0.5000 0.32736(7) 0.57736(7)
N18_14 N 0.57736(7) 0.2500 0.42264(7)
N19_18 N 0.42264(7) 0.17264(7) 0.5000
C5_24 C 0.40956(8) 0.2500 0.59044(8)
C6_29 C 0.5000 0.40956(8) 0.65956(8)
C7_24 C 0.38108(8) 0.2500 0.61892(8)
C8_29 C 0.5000 0.38108(8) 0.63108(8)
C9_14 C 0.62288(12) 0.39254(10) 0.52964(11)
C10_21 C 0.35746(10) 0.22036(11) 0.62288(12)
C11_21 C 0.37712(12) 0.27964(11) 0.64254(10)
C12_22 C 0.52964(11) 0.35746(10) 0.62712(12)
C13_22 C 0.47036(11) 0.37712(12) 0.60746(10)
H3_14 H 0.6072 0.3904 0.5505
H4_21 H 0.3596 0.1995 0.6072
H5_21 H 0.3928 0.3005 0.6404
H6_22 H 0.5505 0.3596 0.6428
H7_22 H 0.4495 0.3928 0.6096
C14_14 C 0.65000(12) 0.41926(11) 0.52849(11)
C15_21 C 0.33074(11) 0.22151(11) 0.65000(12)
C16_21 C 0.35000(12) 0.27849(11) 0.66926(11)
C17_22 C 0.52849(11) 0.33074(11) 0.60000(12)
C18_22 C 0.47151(11) 0.35000(12) 0.58074(11)
H8_14 H 0.6525 0.4357 0.5487
H9_21 H 0.3143 0.2013 0.6525
H10_21 H 0.3475 0.2987 0.6857
H11_22 H 0.5487 0.3143 0.5975
H12_22 H 0.4513 0.3475 0.5643
N8_23 N 0.01440(10) 0.80966(9) 0.04412(9)
N15_23 N 0.02427(10) 0.83916(9) 0.06310(10)
C6_30 C 0.0000 0.84044(8) 0.09044(8)
C8_30 C -0.0000 0.86892(8) 0.11892(8)
C12_23 C 0.02964(11) 0.89254(10) 0.12288(12)
H6_23 H 0.0505 0.8904 0.1072
C17_23 C 0.02849(11) 0.91926(11) 0.15000(12)
H11_23 H 0.0487 0.9357 0.1525
N7_23 N 0.98560(10) 0.79412(9) 0.05966(9)
N14_23 N 0.97573(10) 0.81310(10) 0.08916(9)
C6_31 C 1.0000 0.84044(8) 0.09044(8)
C8_31 C 1.0000 0.86892(8) 0.11892(8)
C13_23 C 0.97036(11) 0.87288(12) 0.14254(10)
H7_23 H 0.9495 0.8572 0.1404
C18_23 C 0.97151(11) 0.90000(12) 0.16926(11)
H12_23 H 0.9513 0.9025 0.1857
Cu1_21 Cu 0.788388(10) 0.038388(10) 0.5000
O1_28 O 0.7500 0.0000 0.5000
N1_15 N 0.80966(9) 0.01440(10) 0.54412(9)
N2_15 N 0.83916(9) 0.02427(10) 0.56310(10)
N3_19 N 0.92264(7) 0.0000 0.67264(7)
C1_19 C 0.84044(8) 0.0000 0.59044(8)
C2_19 C 0.86892(8) 0.0000 0.61892(8)
Cu3_19 Cu 0.711612(10) 0.0000 0.461612(10)
N5_15 N 0.76440(10) 0.05966(9) 0.45588(9)
N6_15 N 0.73560(10) 0.04412(9) 0.44034(9)
N7_24 N 0.95588(9) 0.19034(9) 0.48560(10)
N8_24 N 0.94034(9) 0.20588(9) 0.51440(10)
N12_22 N 0.77427(10) 0.08916(9) 0.43690(10)
N13_22 N 0.72573(10) 0.06310(10) 0.41084(9)
N14_24 N 0.93690(10) 0.16084(9) 0.47573(10)
N15_24 N 0.91084(9) 0.18690(10) 0.52427(10)
N16_25 N 0.7500 0.17264(7) 0.32736(7)
N17_21 N 0.82736(7) 0.07736(7) 0.5000
N19_19 N 0.67264(7) 0.0000 0.42264(7)
C5_25 C 0.7500 0.09044(8) 0.40956(8)
C6_32 C 0.90956(8) 0.15956(8) 0.5000
C7_25 C 0.7500 0.11892(8) 0.38108(8)
C8_32 C 0.88108(8) 0.13108(8) 0.5000
C9_15 C 0.89254(10) 0.02964(11) 0.62288(12)
C10_22 C 0.72036(11) 0.12288(12) 0.35746(10)
C11_22 C 0.77964(11) 0.14254(10) 0.37712(12)
C12_24 C 0.85746(10) 0.12712(12) 0.52964(11)
C13_24 C 0.87712(12) 0.10746(10) 0.47036(11)
H3_15 H 0.8904 0.0505 0.6072
H4_22 H 0.6995 0.1072 0.3596
H5_22 H 0.8005 0.1404 0.3928
H6_24 H 0.8596 0.1428 0.5505
H7_24 H 0.8928 0.1096 0.4495
C14_15 C 0.91926(11) 0.02849(11) 0.65000(12)
C15_22 C 0.72151(11) 0.15000(12) 0.33074(11)
C16_22 C 0.77849(11) 0.16926(11) 0.35000(12)
C17_24 C 0.83074(11) 0.10000(12) 0.52849(11)
C18_24 C 0.85000(12) 0.08074(11) 0.47151(11)
H8_15 H 0.9357 0.0487 0.6525
H9_22 H 0.7013 0.1525 0.3143
H10_22 H 0.7987 0.1857 0.3475
H11_24 H 0.8143 0.0975 0.5487
H12_24 H 0.8475 0.0643 0.4513
O1_29 O 0.7500 1.0000 0.5000
N3_20 N 0.92264(7) 1.0000 0.67264(7)
C1_20 C 0.84044(8) 1.0000 0.59044(8)
C2_20 C 0.86892(8) 1.0000 0.61892(8)
C3_15 C 0.87288(12) 0.97036(11) 0.64254(10)
H1_15 H 0.8572 0.9495 0.6404
C4_15 C 0.90000(12) 0.97151(11) 0.66926(11)
H2_15 H 0.9025 0.9513 0.6857
Cu2_15 Cu 0.7500 0.961612(10) 0.538388(10)
Cu3_20 Cu 0.711612(10) 1.0000 0.461612(10)
N4_15 N 0.79412(9) 0.98560(10) 0.55966(9)
N9_15 N 0.70588(9) 0.94034(9) 0.51440(10)
N10_15 N 0.69034(9) 0.95588(9) 0.48560(10)
N11_15 N 0.81310(10) 0.97573(10) 0.58916(9)
N18_15 N 0.7500 0.92264(7) 0.57736(7)
N19_20 N 0.67264(7) 1.0000 0.42264(7)
N7_25 N 0.70588(9) 0.23560(10) 0.30966(9)
N8_25 N 0.69034(9) 0.26440(10) 0.29412(9)
N12_23 N 0.52427(10) 0.18690(10) 0.41084(9)
N13_23 N 0.47573(10) 0.16084(9) 0.43690(10)
N14_25 N 0.68690(10) 0.22573(10) 0.33916(9)
N15_25 N 0.66084(9) 0.27427(10) 0.31310(10)
N16_26 N 0.5000 0.07736(7) 0.32736(7)
C5_26 C 0.5000 0.15956(8) 0.40956(8)
C6_33 C 0.65956(8) 0.2500 0.34044(8)
C7_26 C 0.5000 0.13108(8) 0.38108(8)
C8_33 C 0.63108(8) 0.2500 0.36892(8)
C10_23 C 0.47036(11) 0.10746(10) 0.37712(12)
C11_23 C 0.52964(11) 0.12712(12) 0.35746(10)
C12_25 C 0.60746(10) 0.27964(11) 0.37288(12)
C13_25 C 0.62712(12) 0.22036(11) 0.39254(10)
H4_23 H 0.4495 0.1096 0.3928
H5_23 H 0.5505 0.1428 0.3596
H6_25 H 0.6096 0.3005 0.3572
H7_25 H 0.6428 0.1995 0.3904
C15_23 C 0.47151(11) 0.08074(11) 0.35000(12)
C16_23 C 0.52849(11) 0.10000(12) 0.33074(11)
C17_25 C 0.58074(11) 0.27849(11) 0.40000(12)
C18_25 C 0.60000(12) 0.22151(11) 0.41926(11)
H9_23 H 0.4513 0.0643 0.3475
H10_23 H 0.5487 0.0975 0.3143
H11_25 H 0.5643 0.2987 0.4025
H12_25 H 0.5975 0.2013 0.4357
Cu7_20 Cu 0.288388(10) 0.5000 0.038388(10)
N7_26 N 0.23560(10) 0.44034(9) 0.04412(9)
N8_26 N 0.26440(10) 0.45588(9) 0.05966(9)
N14_26 N 0.22573(10) 0.41084(9) 0.06310(10)
N15_26 N 0.27427(10) 0.43690(10) 0.08916(9)
C6_34 C 0.2500 0.40956(8) 0.09044(8)
C8_34 C 0.2500 0.38108(8) 0.11892(8)
C12_26 C 0.27964(11) 0.37712(12) 0.14254(10)
C13_26 C 0.22036(11) 0.35746(10) 0.12288(12)
H6_26 H 0.3005 0.3928 0.1404
H7_26 H 0.1995 0.3596 0.1072
C17_26 C 0.27849(11) 0.35000(12) 0.16926(11)
C18_26 C 0.22151(11) 0.33074(11) 0.15000(12)
H11_26 H 0.2987 0.3475 0.1857
H12_26 H 0.2013 0.3143 0.1525
N7_27 N 0.73560(10) 0.80966(9) 0.70588(9)
N8_27 N 0.76440(10) 0.79412(9) 0.69034(9)
N12_24 N 0.68690(10) 0.91084(9) 0.52427(10)
N13_24 N 0.66084(9) 0.93690(10) 0.47573(10)
N14_27 N 0.72573(10) 0.83916(9) 0.68690(10)
N15_27 N 0.77427(10) 0.81310(10) 0.66084(9)
N16_27 N 0.57736(7) 0.82736(7) 0.5000
C5_27 C 0.65956(8) 0.90956(8) 0.5000
C6_35 C 0.7500 0.84044(8) 0.65956(8)
C7_27 C 0.63108(8) 0.88108(8) 0.5000
C8_35 C 0.7500 0.86892(8) 0.63108(8)
C10_24 C 0.60746(10) 0.87712(12) 0.47036(11)
C11_24 C 0.62712(12) 0.85746(10) 0.52964(11)
C12_27 C 0.77964(11) 0.87288(12) 0.60746(10)
C13_27 C 0.72036(11) 0.89254(10) 0.62712(12)
H4_24 H 0.6096 0.8928 0.4495
H5_24 H 0.6428 0.8596 0.5505
H6_27 H 0.8005 0.8572 0.6096
H7_27 H 0.6995 0.8904 0.6428
C15_24 C 0.58074(11) 0.85000(12) 0.47151(11)
C16_24 C 0.60000(12) 0.83074(11) 0.52849(11)
C17_27 C 0.77849(11) 0.90000(12) 0.58074(11)
C18_27 C 0.72151(11) 0.91926(11) 0.60000(12)
H9_24 H 0.5643 0.8475 0.4513
H10_24 H 0.5975 0.8143 0.5487
H11_27 H 0.7987 0.9025 0.5643
H12_27 H 0.7013 0.9357 0.5975
Cu7_21 Cu -0.0000 0.538388(10) 0.288388(10)
Cu7_22 Cu 1.0000 0.538388(10) 0.288388(10)
N7_28 N 0.94034(9) 0.54412(9) 0.23560(10)
N8_28 N 0.95588(9) 0.55966(9) 0.26440(10)
N12_25 N 0.83916(9) 0.72573(10) 0.18690(10)
N13_25 N 0.81310(10) 0.77427(10) 0.16084(9)
N14_28 N 0.91084(9) 0.56310(10) 0.22573(10)
N15_28 N 0.93690(10) 0.58916(9) 0.27427(10)
N16_28 N 0.92264(7) 0.7500 0.07736(7)
C5_28 C 0.84044(8) 0.7500 0.15956(8)
C6_36 C 0.90956(8) 0.59044(8) 0.2500
C7_28 C 0.86892(8) 0.7500 0.13108(8)
C8_36 C 0.88108(8) 0.61892(8) 0.2500
C10_25 C 0.87288(12) 0.77964(11) 0.10746(10)
C11_25 C 0.89254(10) 0.72036(11) 0.12712(12)
C12_28 C 0.87712(12) 0.64254(10) 0.27964(11)
C13_28 C 0.85746(10) 0.62288(12) 0.22036(11)
H4_25 H 0.8572 0.8005 0.1096
H5_25 H 0.8904 0.6995 0.1428
H6_28 H 0.8928 0.6404 0.3005
H7_28 H 0.8596 0.6072 0.1995
C15_25 C 0.90000(12) 0.77849(11) 0.08074(11)
C16_25 C 0.91926(11) 0.72151(11) 0.10000(12)
C17_28 C 0.85000(12) 0.66926(11) 0.27849(11)
C18_28 C 0.83074(11) 0.65000(12) 0.22151(11)
H9_25 H 0.9025 0.7987 0.0643
H10_25 H 0.9357 0.7013 0.0975
H11_28 H 0.8475 0.6857 0.2987
H12_28 H 0.8143 0.6525 0.2013
Cu1_22 Cu 0.5000 0.788388(10) 0.038388(10)
O1_30 O 0.5000 0.7500 0.0000
N1_16 N 0.54412(9) 0.80966(9) 0.01440(10)
N2_16 N 0.56310(10) 0.83916(9) 0.02427(10)
N3_21 N 0.67264(7) 0.92264(7) 0.0000
C1_21 C 0.59044(8) 0.84044(8) 0.0000
C2_21 C 0.61892(8) 0.86892(8) 0.0000
Cu3_21 Cu 0.461612(10) 0.711612(10) 0.0000
N5_16 N 0.45588(9) 0.76440(10) 0.05966(9)
N6_16 N 0.44034(9) 0.73560(10) 0.04412(9)
N7_29 N 0.48560(10) 0.95588(9) 0.19034(9)
N8_29 N 0.51440(10) 0.94034(9) 0.20588(9)
N12_26 N 0.43690(10) 0.77427(10) 0.08916(9)
N13_26 N 0.41084(9) 0.72573(10) 0.06310(10)
N14_29 N 0.47573(10) 0.93690(10) 0.16084(9)
N15_29 N 0.52427(10) 0.91084(9) 0.18690(10)
N16_29 N 0.32736(7) 0.7500 0.17264(7)
N17_22 N 0.5000 0.82736(7) 0.07736(7)
N19_21 N 0.42264(7) 0.67264(7) 0.0000
C5_29 C 0.40956(8) 0.7500 0.09044(8)
C6_37 C 0.5000 0.90956(8) 0.15956(8)
C7_29 C 0.38108(8) 0.7500 0.11892(8)
C8_37 C 0.5000 0.88108(8) 0.13108(8)
C9_16 C 0.62288(12) 0.89254(10) 0.02964(11)
C10_26 C 0.35746(10) 0.72036(11) 0.12288(12)
C11_26 C 0.37712(12) 0.77964(11) 0.14254(10)
C12_29 C 0.52964(11) 0.85746(10) 0.12712(12)
C13_29 C 0.47036(11) 0.87712(12) 0.10746(10)
H3_16 H 0.6072 0.8904 0.0505
H4_26 H 0.3596 0.6995 0.1072
H5_26 H 0.3928 0.8005 0.1404
H6_29 H 0.5505 0.8596 0.1428
H7_29 H 0.4495 0.8928 0.1096
C14_16 C 0.65000(12) 0.91926(11) 0.02849(11)
C15_26 C 0.33074(11) 0.72151(11) 0.15000(12)
C16_26 C 0.35000(12) 0.77849(11) 0.16926(11)
C17_29 C 0.52849(11) 0.83074(11) 0.10000(12)
C18_29 C 0.47151(11) 0.85000(12) 0.08074(11)
H8_16 H 0.6525 0.9357 0.0487
H9_26 H 0.3143 0.7013 0.1525
H10_26 H 0.3475 0.7987 0.1857
H11_29 H 0.5487 0.8143 0.0975
H12_29 H 0.4513 0.8475 0.0643
O1_31 O 0.5000 0.7500 1.0000
N3_22 N 0.67264(7) 0.92264(7) 1.0000
C1_22 C 0.59044(8) 0.84044(8) 1.0000
C2_22 C 0.61892(8) 0.86892(8) 1.0000
C3_16 C 0.64254(10) 0.87288(12) 0.97036(11)
H1_16 H 0.6404 0.8572 0.9495
C4_16 C 0.66926(11) 0.90000(12) 0.97151(11)
H2_16 H 0.6857 0.9025 0.9513
Cu2_16 Cu 0.538388(10) 0.7500 0.961612(10)
Cu3_22 Cu 0.461612(10) 0.711612(10) 1.0000
N4_16 N 0.55966(9) 0.79412(9) 0.98560(10)
N9_16 N 0.51440(10) 0.70588(9) 0.94034(9)
N10_16 N 0.48560(10) 0.69034(9) 0.95588(9)
N11_16 N 0.58916(9) 0.81310(10) 0.97573(10)
N18_16 N 0.57736(7) 0.7500 0.92264(7)
N19_22 N 0.42264(7) 0.67264(7) 1.0000
N8_30 N 0.04412(9) 0.01440(10) 0.80966(9)
N15_30 N 0.06310(10) 0.02427(10) 0.83916(9)
C6_38 C 0.09044(8) 0.0000 0.84044(8)
C8_38 C 0.11892(8) -0.0000 0.86892(8)
C12_30 C 0.12288(12) 0.02964(11) 0.89254(10)
H6_30 H 0.1072 0.0505 0.8904
C17_30 C 0.15000(12) 0.02849(11) 0.91926(11)
H11_30 H 0.1525 0.0487 0.9357
N7_30 N 0.05966(9) 0.98560(10) 0.79412(9)
N14_30 N 0.08916(9) 0.97573(10) 0.81310(10)
C6_39 C 0.09044(8) 1.0000 0.84044(8)
C8_39 C 0.11892(8) 1.0000 0.86892(8)
C13_30 C 0.14254(10) 0.97036(11) 0.87288(12)
H7_30 H 0.1404 0.9495 0.8572
C18_30 C 0.16926(11) 0.97151(11) 0.90000(12)
H12_30 H 0.1857 0.9513 0.9025
N7_31 N 0.70588(9) 0.73560(10) 0.80966(9)
N8_31 N 0.69034(9) 0.76440(10) 0.79412(9)
N12_27 N 0.52427(10) 0.68690(10) 0.91084(9)
N13_27 N 0.47573(10) 0.66084(9) 0.93690(10)
N14_31 N 0.68690(10) 0.72573(10) 0.83916(9)
N15_31 N 0.66084(9) 0.77427(10) 0.81310(10)
N16_30 N 0.5000 0.57736(7) 0.82736(7)
C5_30 C 0.5000 0.65956(8) 0.90956(8)
C6_40 C 0.65956(8) 0.7500 0.84044(8)
C7_30 C 0.5000 0.63108(8) 0.88108(8)
C8_40 C 0.63108(8) 0.7500 0.86892(8)
C10_27 C 0.47036(11) 0.60746(10) 0.87712(12)
C11_27 C 0.52964(11) 0.62712(12) 0.85746(10)
C12_31 C 0.60746(10) 0.77964(11) 0.87288(12)
C13_31 C 0.62712(12) 0.72036(11) 0.89254(10)
H4_27 H 0.4495 0.6096 0.8928
H5_27 H 0.5505 0.6428 0.8596
H6_31 H 0.6096 0.8005 0.8572
H7_31 H 0.6428 0.6995 0.8904
C15_27 C 0.47151(11) 0.58074(11) 0.85000(12)
C16_27 C 0.52849(11) 0.60000(12) 0.83074(11)
C17_31 C 0.58074(11) 0.77849(11) 0.90000(12)
C18_31 C 0.60000(12) 0.72151(11) 0.91926(11)
H9_27 H 0.4513 0.5643 0.8475
H10_27 H 0.5487 0.5975 0.8143
H11_31 H 0.5643 0.7987 0.9025
H12_31 H 0.5975 0.7013 0.9357
Cu7_23 Cu 0.288388(10) -0.0000 0.538388(10)
Cu7_24 Cu 0.288388(10) 1.0000 0.538388(10)
N7_32 N 0.23560(10) 0.94034(9) 0.54412(9)
N8_32 N 0.26440(10) 0.95588(9) 0.55966(9)
N12_28 N 0.18690(10) 0.83916(9) 0.72573(10)
N13_28 N 0.16084(9) 0.81310(10) 0.77427(10)
N14_32 N 0.22573(10) 0.91084(9) 0.56310(10)
N15_32 N 0.27427(10) 0.93690(10) 0.58916(9)
N16_31 N 0.07736(7) 0.92264(7) 0.7500
C5_31 C 0.15956(8) 0.84044(8) 0.7500
C6_41 C 0.2500 0.90956(8) 0.59044(8)
C7_31 C 0.13108(8) 0.86892(8) 0.7500
C8_41 C 0.2500 0.88108(8) 0.61892(8)
C10_28 C 0.10746(10) 0.87288(12) 0.77964(11)
C11_28 C 0.12712(12) 0.89254(10) 0.72036(11)
C12_32 C 0.27964(11) 0.87712(12) 0.64254(10)
C13_32 C 0.22036(11) 0.85746(10) 0.62288(12)
H4_28 H 0.1096 0.8572 0.8005
H5_28 H 0.1428 0.8904 0.6995
H6_32 H 0.3005 0.8928 0.6404
H7_32 H 0.1995 0.8596 0.6072
C15_28 C 0.08074(11) 0.90000(12) 0.77849(11)
C16_28 C 0.10000(12) 0.91926(11) 0.72151(11)
C17_32 C 0.27849(11) 0.85000(12) 0.66926(11)
C18_32 C 0.22151(11) 0.83074(11) 0.65000(12)
H9_28 H 0.0643 0.9025 0.7987
H10_28 H 0.0975 0.9357 0.7013
H11_32 H 0.2987 0.8475 0.6857
H12_32 H 0.2013 0.8143 0.6525
N7_33 N 0.30966(9) 0.70588(9) 0.23560(10)
N8_33 N 0.29412(9) 0.69034(9) 0.26440(10)
N12_29 N 0.41084(9) 0.52427(10) 0.18690(10)
N13_29 N 0.43690(10) 0.47573(10) 0.16084(9)
N14_33 N 0.33916(9) 0.68690(10) 0.22573(10)
N15_33 N 0.31310(10) 0.66084(9) 0.27427(10)
N16_32 N 0.32736(7) 0.5000 0.07736(7)
C5_32 C 0.40956(8) 0.5000 0.15956(8)
C6_42 C 0.34044(8) 0.65956(8) 0.2500
C7_32 C 0.38108(8) 0.5000 0.13108(8)
C8_42 C 0.36892(8) 0.63108(8) 0.2500
C10_29 C 0.37712(12) 0.47036(11) 0.10746(10)
C11_29 C 0.35746(10) 0.52964(11) 0.12712(12)
C12_33 C 0.37288(12) 0.60746(10) 0.27964(11)
C13_33 C 0.39254(10) 0.62712(12) 0.22036(11)
H4_29 H 0.3928 0.4495 0.1096
H5_29 H 0.3596 0.5505 0.1428
H6_33 H 0.3572 0.6096 0.3005
H7_33 H 0.3904 0.6428 0.1995
C15_29 C 0.35000(12) 0.47151(11) 0.08074(11)
C16_29 C 0.33074(11) 0.52849(11) 0.10000(12)
C17_33 C 0.40000(12) 0.58074(11) 0.27849(11)
C18_33 C 0.41926(11) 0.60000(12) 0.22151(11)
H9_29 H 0.3475 0.4513 0.0643
H10_29 H 0.3143 0.5487 0.0975
H11_33 H 0.4025 0.5643 0.2987
H12_33 H 0.4357 0.5975 0.2013
N7_34 N 0.76440(10) 0.95588(9) 0.05966(9)
N8_34 N 0.73560(10) 0.94034(9) 0.04412(9)
N14_34 N 0.77427(10) 0.93690(10) 0.08916(9)
N15_34 N 0.72573(10) 0.91084(9) 0.06310(10)
C6_43 C 0.7500 0.90956(8) 0.09044(8)
C8_43 C 0.7500 0.88108(8) 0.11892(8)
C12_34 C 0.72036(11) 0.85746(10) 0.12288(12)
C13_34 C 0.77964(11) 0.87712(12) 0.14254(10)
H6_34 H 0.6995 0.8596 0.1072
H7_34 H 0.8005 0.8928 0.1404
C17_34 C 0.72151(11) 0.83074(11) 0.15000(12)
C18_34 C 0.77849(11) 0.85000(12) 0.16926(11)
H11_34 H 0.7013 0.8143 0.1525
H12_34 H 0.7987 0.8475 0.1857
N13_30 N 0.41084(9) 0.02427(10) 0.68690(10)
N16_33 N 0.32736(7) 0.0000 0.57736(7)
C5_33 C 0.40956(8) 0.0000 0.65956(8)
C7_33 C 0.38108(8) 0.0000 0.63108(8)
C10_30 C 0.35746(10) 0.02964(11) 0.62712(12)
H4_30 H 0.3596 0.0505 0.6428
C15_30 C 0.33074(11) 0.02849(11) 0.60000(12)
H9_30 H 0.3143 0.0487 0.5975
N7_35 N 0.48560(10) 0.79412(9) 0.55966(9)
N8_35 N 0.51440(10) 0.80966(9) 0.54412(9)
N12_30 N 0.43690(10) 0.97573(10) 0.66084(9)
N14_35 N 0.47573(10) 0.81310(10) 0.58916(9)
N15_35 N 0.52427(10) 0.83916(9) 0.56310(10)
N16_34 N 0.32736(7) 1.0000 0.57736(7)
C5_34 C 0.40956(8) 1.0000 0.65956(8)
C6_44 C 0.5000 0.84044(8) 0.59044(8)
C7_34 C 0.38108(8) 1.0000 0.63108(8)
C8_44 C 0.5000 0.86892(8) 0.61892(8)
C11_30 C 0.37712(12) 0.97036(11) 0.60746(10)
C12_35 C 0.52964(11) 0.89254(10) 0.62288(12)
C13_35 C 0.47036(11) 0.87288(12) 0.64254(10)
H5_30 H 0.3928 0.9495 0.6096
H6_35 H 0.5505 0.8904 0.6072
H7_35 H 0.4495 0.8572 0.6404
C16_30 C 0.35000(12) 0.97151(11) 0.58074(11)
C17_35 C 0.52849(11) 0.91926(11) 0.65000(12)
C18_35 C 0.47151(11) 0.90000(12) 0.66926(11)
H10_30 H 0.3475 0.9513 0.5643
H11_35 H 0.5487 0.9357 0.6525
H12_35 H 0.4513 0.9025 0.6857
N7_36 N 0.05966(9) 0.76440(10) 0.95588(9)
N8_36 N 0.04412(9) 0.73560(10) 0.94034(9)
N14_36 N 0.08916(9) 0.77427(10) 0.93690(10)
N15_36 N 0.06310(10) 0.72573(10) 0.91084(9)
C6_45 C 0.09044(8) 0.7500 0.90956(8)
C8_45 C 0.11892(8) 0.7500 0.88108(8)
C12_36 C 0.12288(12) 0.72036(11) 0.85746(10)
C13_36 C 0.14254(10) 0.77964(11) 0.87712(12)
H6_36 H 0.1072 0.6995 0.8596
H7_36 H 0.1404 0.8005 0.8928
C17_36 C 0.15000(12) 0.72151(11) 0.83074(11)
C18_36 C 0.16926(11) 0.77849(11) 0.85000(12)
H11_36 H 0.1525 0.7013 0.8143
H12_36 H 0.1857 0.7987 0.8475
N13_31 N 0.68690(10) 0.41084(9) 0.02427(10)
N16_35 N 0.57736(7) 0.32736(7) 0.0000
C5_35 C 0.65956(8) 0.40956(8) 0.0000
C7_35 C 0.63108(8) 0.38108(8) 0.0000
C10_31 C 0.62712(12) 0.35746(10) 0.02964(11)
H4_31 H 0.6428 0.3596 0.0505
C15_31 C 0.60000(12) 0.33074(11) 0.02849(11)
H9_31 H 0.5975 0.3143 0.0487
N7_37 N 0.55966(9) 0.48560(10) 0.79412(9)
N8_37 N 0.54412(9) 0.51440(10) 0.80966(9)
N12_31 N 0.66084(9) 0.43690(10) 0.97573(10)
N14_37 N 0.58916(9) 0.47573(10) 0.81310(10)
N15_37 N 0.56310(10) 0.52427(10) 0.83916(9)
N16_36 N 0.57736(7) 0.32736(7) 1.0000
C5_36 C 0.65956(8) 0.40956(8) 1.0000
C6_46 C 0.59044(8) 0.5000 0.84044(8)
C7_36 C 0.63108(8) 0.38108(8) 1.0000
C8_46 C 0.61892(8) 0.5000 0.86892(8)
C11_31 C 0.60746(10) 0.37712(12) 0.97036(11)
C12_37 C 0.62288(12) 0.52964(11) 0.89254(10)
C13_37 C 0.64254(10) 0.47036(11) 0.87288(12)
H5_31 H 0.6096 0.3928 0.9495
H6_37 H 0.6072 0.5505 0.8904
H7_37 H 0.6404 0.4495 0.8572
C16_31 C 0.58074(11) 0.35000(12) 0.97151(11)
C17_37 C 0.65000(12) 0.52849(11) 0.91926(11)
C18_37 C 0.66926(11) 0.47151(11) 0.90000(12)
H10_31 H 0.5643 0.3475 0.9513
H11_37 H 0.6525 0.5487 0.9357
H12_37 H 0.6857 0.4513 0.9025
N7_38 N 0.95588(9) 0.05966(9) 0.76440(10)
N8_38 N 0.94034(9) 0.04412(9) 0.73560(10)
N14_38 N 0.93690(10) 0.08916(9) 0.77427(10)
N15_38 N 0.91084(9) 0.06310(10) 0.72573(10)
C6_47 C 0.90956(8) 0.09044(8) 0.7500
C8_47 C 0.88108(8) 0.11892(8) 0.7500
C12_38 C 0.85746(10) 0.12288(12) 0.72036(11)
C13_38 C 0.87712(12) 0.14254(10) 0.77964(11)
H6_38 H 0.8596 0.1072 0.6995
H7_38 H 0.8928 0.1404 0.8005
C17_38 C 0.83074(11) 0.15000(12) 0.72151(11)
C18_38 C 0.85000(12) 0.16926(11) 0.77849(11)
H11_38 H 0.8143 0.1525 0.7013
H12_38 H 0.8475 0.1857 0.7987
N13_32 N 0.02427(10) 0.68690(10) 0.41084(9)
N16_37 N 0.0000 0.57736(7) 0.32736(7)
C5_37 C 0.0000 0.65956(8) 0.40956(8)
C7_37 C 0.0000 0.63108(8) 0.38108(8)
C10_32 C 0.02964(11) 0.62712(12) 0.35746(10)
H4_32 H 0.0505 0.6428 0.3596
C15_32 C 0.02849(11) 0.60000(12) 0.33074(11)
H9_32 H 0.0487 0.5975 0.3143
N7_39 N 0.79412(9) 0.55966(9) 0.48560(10)
N8_39 N 0.80966(9) 0.54412(9) 0.51440(10)
N12_32 N 0.97573(10) 0.66084(9) 0.43690(10)
N14_39 N 0.81310(10) 0.58916(9) 0.47573(10)
N15_39 N 0.83916(9) 0.56310(10) 0.52427(10)
N16_38 N 1.0000 0.57736(7) 0.32736(7)
C5_38 C 1.0000 0.65956(8) 0.40956(8)
C6_48 C 0.84044(8) 0.59044(8) 0.5000
C7_38 C 1.0000 0.63108(8) 0.38108(8)
C8_48 C 0.86892(8) 0.61892(8) 0.5000
C11_32 C 0.97036(11) 0.60746(10) 0.37712(12)
C12_39 C 0.89254(10) 0.62288(12) 0.52964(11)
C13_39 C 0.87288(12) 0.64254(10) 0.47036(11)
H5_32 H 0.9495 0.6096 0.3928
H6_39 H 0.8904 0.6072 0.5505
H7_39 H 0.8572 0.6404 0.4495
C16_32 C 0.97151(11) 0.58074(11) 0.35000(12)
C17_39 C 0.91926(11) 0.65000(12) 0.52849(11)
C18_39 C 0.90000(12) 0.66926(11) 0.47151(11)
H10_32 H 0.9513 0.5643 0.3475
H11_39 H 0.9357 0.6525 0.5487
H12_39 H 0.9025 0.6857 0.4513
N7_40 N 0.04412(9) 0.51440(10) 0.30966(9)
N8_40 N 0.05966(9) 0.48560(10) 0.29412(9)
N14_40 N 0.06310(10) 0.52427(10) 0.33916(9)
N15_40 N 0.08916(9) 0.47573(10) 0.31310(10)
C6_49 C 0.09044(8) 0.5000 0.34044(8)
C8_49 C 0.11892(8) 0.5000 0.36892(8)
C12_40 C 0.14254(10) 0.47036(11) 0.37288(12)
C13_40 C 0.12288(12) 0.52964(11) 0.39254(10)
H6_40 H 0.1404 0.4495 0.3572
H7_40 H 0.1072 0.5505 0.3904
C17_40 C 0.16926(11) 0.47151(11) 0.40000(12)
C18_40 C 0.15000(12) 0.52849(11) 0.41926(11)
H11_40 H 0.1857 0.4513 0.4025
H12_40 H 0.1525 0.5487 0.4357
N7_41 N 0.51440(10) 0.30966(9) 0.04412(9)
N8_41 N 0.48560(10) 0.29412(9) 0.05966(9)
N14_41 N 0.52427(10) 0.33916(9) 0.06310(10)
N15_41 N 0.47573(10) 0.31310(10) 0.08916(9)
C6_50 C 0.5000 0.34044(8) 0.09044(8)
C8_50 C 0.5000 0.36892(8) 0.11892(8)
C12_41 C 0.47036(11) 0.37288(12) 0.14254(10)
C13_41 C 0.52964(11) 0.39254(10) 0.12288(12)
H6_41 H 0.4495 0.3572 0.1404
H7_41 H 0.5505 0.3904 0.1072
C17_41 C 0.47151(11) 0.40000(12) 0.16926(11)
C18_41 C 0.52849(11) 0.41926(11) 0.15000(12)
H11_41 H 0.4513 0.4025 0.1857
H12_41 H 0.5487 0.4357 0.1525
N7_42 N 0.30966(9) 0.04412(9) 0.51440(10)
N8_42 N 0.29412(9) 0.05966(9) 0.48560(10)
N14_42 N 0.33916(9) 0.06310(10) 0.52427(10)
N15_42 N 0.31310(10) 0.08916(9) 0.47573(10)
C6_51 C 0.34044(8) 0.09044(8) 0.5000
C8_51 C 0.36892(8) 0.11892(8) 0.5000
C12_42 C 0.37288(12) 0.14254(10) 0.47036(11)
C13_42 C 0.39254(10) 0.12288(12) 0.52964(11)
H6_42 H 0.3572 0.1404 0.4495
H7_42 H 0.3904 0.1072 0.5505
C17_42 C 0.40000(12) 0.16926(11) 0.47151(11)
C18_42 C 0.41926(11) 0.15000(12) 0.52849(11)
H11_42 H 0.4025 0.1857 0.4513
H12_42 H 0.4357 0.1525 0.5487
N8_43 N 0.54412(9) 0.01440(10) 0.30966(9)
N15_43 N 0.56310(10) 0.02427(10) 0.33916(9)
C6_52 C 0.59044(8) 0.0000 0.34044(8)
C8_52 C 0.61892(8) 0.0000 0.36892(8)
C12_43 C 0.62288(12) 0.02964(11) 0.39254(10)
H6_43 H 0.6072 0.0505 0.3904
C17_43 C 0.65000(12) 0.02849(11) 0.41926(11)
H11_43 H 0.6525 0.0487 0.4357
N7_43 N 0.55966(9) 0.98560(10) 0.29412(9)
N14_43 N 0.58916(9) 0.97573(10) 0.31310(10)
C6_53 C 0.59044(8) 1.0000 0.34044(8)
C8_53 C 0.61892(8) 1.0000 0.36892(8)
C13_43 C 0.64254(10) 0.97036(11) 0.37288(12)
H7_43 H 0.6404 0.9495 0.3572
C18_43 C 0.66926(11) 0.97151(11) 0.40000(12)
H12_43 H 0.6857 0.9513 0.4025
N7_44 N 0.29412(9) 0.19034(9) 0.76440(10)
N8_44 N 0.30966(9) 0.20588(9) 0.73560(10)
N14_44 N 0.31310(10) 0.16084(9) 0.77427(10)
N15_44 N 0.33916(9) 0.18690(10) 0.72573(10)
C6_54 C 0.34044(8) 0.15956(8) 0.7500
C8_54 C 0.36892(8) 0.13108(8) 0.7500
C12_44 C 0.39254(10) 0.12712(12) 0.72036(11)
C13_44 C 0.37288(12) 0.10746(10) 0.77964(11)
H6_44 H 0.3904 0.1428 0.6995
H7_44 H 0.3572 0.1096 0.8005
C17_44 C 0.41926(11) 0.10000(12) 0.72151(11)
C18_44 C 0.40000(12) 0.08074(11) 0.77849(11)
H11_44 H 0.4357 0.0975 0.7013
H12_44 H 0.4025 0.0643 0.7987
N7_45 N 0.20588(9) 0.73560(10) 0.30966(9)
N8_45 N 0.19034(9) 0.76440(10) 0.29412(9)
N14_45 N 0.18690(10) 0.72573(10) 0.33916(9)
N15_45 N 0.16084(9) 0.77427(10) 0.31310(10)
C6_55 C 0.15956(8) 0.7500 0.34044(8)
C8_55 C 0.13108(8) 0.7500 0.36892(8)
C12_45 C 0.10746(10) 0.77964(11) 0.37288(12)
C13_45 C 0.12712(12) 0.72036(11) 0.39254(10)
H6_45 H 0.1096 0.8005 0.3572
H7_45 H 0.1428 0.6995 0.3904
C17_45 C 0.08074(11) 0.77849(11) 0.40000(12)
C18_45 C 0.10000(12) 0.72151(11) 0.41926(11)
H11_45 H 0.0643 0.7987 0.4025
H12_45 H 0.0975 0.7013 0.4357
N7_46 N 0.30966(9) 0.54412(9) 0.01440(10)
N14_46 N 0.33916(9) 0.56310(10) 0.02427(10)
C6_56 C 0.34044(8) 0.59044(8) -0.0000
C8_56 C 0.36892(8) 0.61892(8) 0.0000
C13_46 C 0.39254(10) 0.62288(12) 0.02964(11)
H7_46 H 0.3904 0.6072 0.0505
C18_46 C 0.41926(11) 0.65000(12) 0.02849(11)
H12_46 H 0.4357 0.6525 0.0487
N8_46 N 0.29412(9) 0.55966(9) 0.98560(10)
N15_46 N 0.31310(10) 0.58916(9) 0.97573(10)
C6_57 C 0.34044(8) 0.59044(8) 1.0000
C8_57 C 0.36892(8) 0.61892(8) 1.0000
C12_46 C 0.37288(12) 0.64254(10) 0.97036(11)
H6_46 H 0.3572 0.6404 0.9495
C17_46 C 0.40000(12) 0.66926(11) 0.97151(11)
H11_46 H 0.4025 0.6857 0.9513
N7_47 N 0.76440(10) 0.29412(9) 0.19034(9)
N8_47 N 0.73560(10) 0.30966(9) 0.20588(9)
N14_47 N 0.77427(10) 0.31310(10) 0.16084(9)
N15_47 N 0.72573(10) 0.33916(9) 0.18690(10)
C6_58 C 0.7500 0.34044(8) 0.15956(8)
C8_58 C 0.7500 0.36892(8) 0.13108(8)
C12_47 C 0.72036(11) 0.39254(10) 0.12712(12)
C13_47 C 0.77964(11) 0.37288(12) 0.10746(10)
H6_47 H 0.6995 0.3904 0.1428
H7_47 H 0.8005 0.3572 0.1096
C17_47 C 0.72151(11) 0.41926(11) 0.10000(12)
C18_47 C 0.77849(11) 0.40000(12) 0.08074(11)
H11_47 H 0.7013 0.4357 0.0975
H12_47 H 0.7987 0.4025 0.0643
N7_48 N 0.01440(10) 0.30966(9) 0.54412(9)
N14_48 N 0.02427(10) 0.33916(9) 0.56310(10)
C6_59 C -0.0000 0.34044(8) 0.59044(8)
C8_59 C 0.0000 0.36892(8) 0.61892(8)
C13_48 C 0.02964(11) 0.39254(10) 0.62288(12)
H7_48 H 0.0505 0.3904 0.6072
C18_48 C 0.02849(11) 0.41926(11) 0.65000(12)
H12_48 H 0.0487 0.4357 0.6525
N8_48 N 0.98560(10) 0.29412(9) 0.55966(9)
N15_48 N 0.97573(10) 0.31310(10) 0.58916(9)
C6_60 C 1.0000 0.34044(8) 0.59044(8)
C8_60 C 1.0000 0.36892(8) 0.61892(8)
C12_48 C 0.97036(11) 0.37288(12) 0.64254(10)
H6_48 H 0.9495 0.3572 0.6404
C17_48 C 0.97151(11) 0.40000(12) 0.66926(11)
H11_48 H 0.9513 0.4025 0.6857
O1_32 O -0.0000 0.7500 0.0000
O1_33 O -0.0000 0.7500 1.0000
O1_34 O 1.0000 0.7500 0.0000
O1_35 O 1.0000 0.7500 1.0000
O1_36 O -0.0000 -0.0000 0.7500
O1_37 O -0.0000 1.0000 0.7500
O1_38 O 1.0000 -0.0000 0.7500
O1_39 O 1.0000 1.0000 0.7500
O1_40 O 0.7500 0.0000 0.0000
O1_41 O 0.7500 0.0000 1.0000
O1_42 O 0.7500 1.0000 0.0000
O1_43 O 0.7500 1.0000 1.0000
O1_44 O 0.5000 0.0000 0.2500
O1_45 O 0.5000 1.0000 0.2500
O1_46 O 0.2500 0.2500 0.7500
O1_47 O 0.2500 0.7500 0.2500
O1_48 O -0.0000 0.2500 0.5000
O1_49 O 1.0000 0.2500 0.5000
O1_50 O 0.2500 0.5000 0.0000
O1_51 O 0.2500 0.5000 1.0000
O1_52 O 0.7500 0.2500 0.2500
O1_53 O -0.0000 0.5000 0.2500
O1_54 O 1.0000 0.5000 0.2500
O1_55 O 0.7500 0.7500 0.7500
O1_56 O 0.7500 0.5000 0.5000
O1_57 O 0.5000 0.5000 0.7500
O1_58 O 0.5000 0.7500 0.5000
O1_59 O 0.2500 0.0000 0.5000
O1_60 O 0.2500 1.0000 0.5000
O1_61 O 0.5000 0.2500 0.0000
O1_62 O 0.5000 0.2500 1.0000
loop_
_geom_bond_atom_site_label_1
_geom_bond_atom_site_label_2
_geom_bond_site_symmetry_1
_geom_bond_site_symmetry_2
Cu1 O1 1_555 1_555
N1 Cu1 1_555 1_555
N2 N1 1_555 1_555
C1 N2 1_555 1_555
C2 C1 1_555 1_555
Cu4 N3 1_555 1_555
Cu7 N8 1_555 1_555
N8 N15 1_555 1_555
N15 C6 1_555 1_555
N17 Cu1 1_555 1_555
C8 C6 1_555 1_555
C9 C2 1_555 1_555
C12 C8 1_555 1_555
H3 C9 1_555 1_555
H6 C12 1_555 1_555
C14 N3 1_555 1_555
C17 N17 1_555 1_555
H8 C14 1_555 1_555
H11 C17 1_555 1_555
C9 C14 1_555 1_555
C12 C17 1_555 1_555
O1_2 Cu2 1_555 1_555
N3_2 C4 1_555 1_555
C2_2 C1_2 1_555 1_555
C3 C2_2 1_555 1_555
H1 C3 1_555 1_555
C4 C3 1_555 1_555
H2 C4 1_555 1_555
Cu2 N4 1_555 1_555
Cu4_2 N3_2 1_555 1_555
N9 Cu2 1_555 1_555
N11 C1_2 1_555 1_555
N18 Cu2 1_555 1_555
N4 N11 1_555 1_555
Cu1_2 O1_3 1_555 1_555
Cu3 O1_3 1_555 1_555
Cu5 N16 1_555 1_555
Cu6 N7 1_555 1_555
N5 Cu1_2 1_555 1_555
N6 Cu3 1_555 1_555
N12 N5 1_555 1_555
N13 N6 1_555 1_555
N14 N7 1_555 1_555
N16 C15 1_555 1_555
N17_2 Cu1_2 1_555 1_555
N19 Cu3 1_555 1_555
C5 N12 1_555 1_555
C6_2 N14 1_555 1_555
C7 C5 1_555 1_555
C8_2 C6_2 1_555 1_555
C10 C7 1_555 1_555
C11 C7 1_555 1_555
C13 C8_2 1_555 1_555
H4 C10 1_555 1_555
H5 C11 1_555 1_555
H7 C13 1_555 1_555
C15 C10 1_555 1_555
C16 N16 1_555 1_555
C18 N17_2 1_555 1_555
H9 C15 1_555 1_555
H10 C16 1_555 1_555
H12 C18 1_555 1_555
N5 N6 1_555 1_555
N13 C5 1_555 1_555
C11 C16 1_555 1_555
C13 C18 1_555 1_555
Cu3_2 O1_4 1_555 1_555
N10 Cu3_2 1_555 1_555
N19_2 Cu3_2 1_555 1_555
Cu1_3 O1_5 1_555 1_555
N1_2 Cu1_3 1_555 1_555
N2_2 N1_2 1_555 1_555
C1_3 N2_2 1_555 1_555
C2_3 C1_3 1_555 1_555
Cu4_3 N3_3 1_555 1_555
Cu7_2 N8_2 1_555 1_555
N8_2 N15_2 1_555 1_555
N15_2 C6_3 1_555 1_555
N17_3 Cu1_3 1_555 1_555
C8_3 C6_3 1_555 1_555
C9_2 C2_3 1_555 1_555
C12_2 C8_3 1_555 1_555
H3_2 C9_2 1_555 1_555
H6_2 C12_2 1_555 1_555
C14_2 N3_3 1_555 1_555
C17_2 N17_3 1_555 1_555
H8_2 C14_2 1_555 1_555
H11_2 C17_2 1_555 1_555
C9_2 C14_2 1_555 1_555
C12_2 C17_2 1_555 1_555
Cu1_4 O1_6 1_555 1_555
Cu3_3 O1_6 1_555 1_555
Cu5_2 N16_2 1_555 1_555
Cu6_2 N7_2 1_555 1_555
N5_2 Cu1_4 1_555 1_555
N6_2 Cu3_3 1_555 1_555
N12_2 N5_2 1_555 1_555
N13_2 N6_2 1_555 1_555
N14_2 N7_2 1_555 1_555
N16_2 C15_2 1_555 1_555
N17_4 Cu1_4 1_555 1_555
N19_3 Cu3_3 1_555 1_555
C5_2 N12_2 1_555 1_555
C6_4 N14_2 1_555 1_555
C7_2 C5_2 1_555 1_555
C8_4 C6_4 1_555 1_555
C10_2 C7_2 1_555 1_555
C11_2 C7_2 1_555 1_555
C13_2 C8_4 1_555 1_555
H4_2 C10_2 1_555 1_555
H5_2 C11_2 1_555 1_555
H7_2 C13_2 1_555 1_555
C15_2 C10_2 1_555 1_555
C16_2 N16_2 1_555 1_555
C18_2 N17_4 1_555 1_555
H9_2 C15_2 1_555 1_555
H10_2 C16_2 1_555 1_555
H12_2 C18_2 1_555 1_555
N5_2 N6_2 1_555 1_555
N13_2 C5_2 1_555 1_555
C11_2 C16_2 1_555 1_555
C13_2 C18_2 1_555 1_555
O1_7 Cu2_2 1_555 1_555
N3_4 C4_2 1_555 1_555
C2_4 C1_4 1_555 1_555
C3_2 C2_4 1_555 1_555
H1_2 C3_2 1_555 1_555
C4_2 C3_2 1_555 1_555
H2_2 C4_2 1_555 1_555
Cu2_2 N4_2 1_555 1_555
Cu4_4 N3_4 1_555 1_555
N9_2 Cu2_2 1_555 1_555
N11_2 C1_4 1_555 1_555
N18_2 Cu2_2 1_555 1_555
N4_2 N11_2 1_555 1_555
Cu3_4 O1_8 1_555 1_555
N10_2 Cu3_4 1_555 1_555
N19_4 Cu3_4 1_555 1_555
Cu1_5 O1_9 1_555 1_555
N1_3 Cu1_5 1_555 1_555
N2_3 N1_3 1_555 1_555
C1_5 N2_3 1_555 1_555
C2_5 C1_5 1_555 1_555
Cu4_5 N3_5 1_555 1_555
Cu7_3 N8_3 1_555 1_555
N8_3 N15_3 1_555 1_555
N15_3 C6_5 1_555 1_555
N17_5 Cu1_5 1_555 1_555
C8_5 C6_5 1_555 1_555
C9_3 C2_5 1_555 1_555
C12_3 C8_5 1_555 1_555
H3_3 C9_3 1_555 1_555
H6_3 C12_3 1_555 1_555
C14_3 N3_5 1_555 1_555
C17_3 N17_5 1_555 1_555
H8_3 C14_3 1_555 1_555
H11_3 C17_3 1_555 1_555
C9_3 C14_3 1_555 1_555
C12_3 C17_3 1_555 1_555
Cu1_6 O1_10 1_555 1_555
Cu3_5 O1_10 1_555 1_555
Cu5_3 N16_3 1_555 1_555
Cu6_3 N7_3 1_555 1_555
N5_3 Cu1_6 1_555 1_555
N6_3 Cu3_5 1_555 1_555
N12_3 N5_3 1_555 1_555
N13_3 N6_3 1_555 1_555
N14_3 N7_3 1_555 1_555
N16_3 C15_3 1_555 1_555
N17_6 Cu1_6 1_555 1_555
N19_5 Cu3_5 1_555 1_555
C5_3 N12_3 1_555 1_555
C6_6 N14_3 1_555 1_555
C7_3 C5_3 1_555 1_555
C8_6 C6_6 1_555 1_555
C10_3 C7_3 1_555 1_555
C11_3 C7_3 1_555 1_555
C13_3 C8_6 1_555 1_555
H4_3 C10_3 1_555 1_555
H5_3 C11_3 1_555 1_555
H7_3 C13_3 1_555 1_555
C15_3 C10_3 1_555 1_555
C16_3 N16_3 1_555 1_555
C18_3 N17_6 1_555 1_555
H9_3 C15_3 1_555 1_555
H10_3 C16_3 1_555 1_555
H12_3 C18_3 1_555 1_555
N5_3 N6_3 1_555 1_555
N13_3 C5_3 1_555 1_555
C11_3 C16_3 1_555 1_555
C13_3 C18_3 1_555 1_555
O1_11 Cu2_3 1_555 1_555
N3_6 C4_3 1_555 1_555
C2_6 C1_6 1_555 1_555
C3_3 C2_6 1_555 1_555
H1_3 C3_3 1_555 1_555
C4_3 C3_3 1_555 1_555
H2_3 C4_3 1_555 1_555
Cu2_3 N4_3 1_555 1_555
Cu4_6 N3_6 1_555 1_555
N9_3 Cu2_3 1_555 1_555
N11_3 C1_6 1_555 1_555
N18_3 Cu2_3 1_555 1_555
N4_3 N11_3 1_555 1_555
Cu3_6 O1_12 1_555 1_555
N10_3 Cu3_6 1_555 1_555
N19_6 Cu3_6 1_555 1_555
Cu5_4 N16_4 1_555 1_555
Cu5_3 N7_4 1_555 1_555
Cu7_4 N8_4 1_555 1_555
N7_4 N8_4 1_555 1_555
N8_4 N15_4 1_555 1_555
N12_4 N9 1_555 1_555
N14_4 N7_4 1_555 1_555
N15_4 C6_7 1_555 1_555
C5_4 N12_4 1_555 1_555
C6_7 N14_4 1_555 1_555
C7_4 C5_4 1_555 1_555
C8_7 C6_7 1_555 1_555
C11_4 C7_4 1_555 1_555
C12_4 C8_7 1_555 1_555
C13_4 C8_7 1_555 1_555
H5_4 C11_4 1_555 1_555
H6_4 C12_4 1_555 1_555
H7_4 C13_4 1_555 1_555
C16_4 N16_4 1_555 1_555
C17_4 N18 1_555 1_555
C18_4 N18 1_555 1_555
H10_4 C16_4 1_555 1_555
H11_4 C17_4 1_555 1_555
H12_4 C18_4 1_555 1_555
C11_4 C16_4 1_555 1_555
C12_4 C17_4 1_555 1_555
C13_4 C18_4 1_555 1_555
Cu5_5 N16_5 1_555 1_555
N13_4 N10 1_555 1_555
N16_5 C15_4 1_555 1_555
C7_5 C5_5 1_555 1_555
C10_4 C7_5 1_555 1_555
H4_4 C10_4 1_555 1_555
C15_4 C10_4 1_555 1_555
H9_4 C15_4 1_555 1_555
N13_4 C5_5 1_555 1_555
Cu1_7 O1_13 1_555 1_555
Cu3_7 O1_13 1_555 1_555
Cu6_3 N16_6 1_555 1_555
Cu6_4 N7_5 1_555 1_555
N5_4 Cu1_7 1_555 1_555
N6_4 Cu3_7 1_555 1_555
N10_4 Cu3_7 1_555 1_555
N12_5 N5_4 1_555 1_555
N13_5 N6_4 1_555 1_555
N14_5 N7_5 1_555 1_555
N16_6 C15_5 1_555 1_555
N17_7 Cu1_7 1_555 1_555
N19_7 Cu3_7 1_555 1_555
C5_6 N12_5 1_555 1_555
C6_8 N14_5 1_555 1_555
C7_6 C5_6 1_555 1_555
C8_8 C6_8 1_555 1_555
C10_5 C7_6 1_555 1_555
C11_5 C7_6 1_555 1_555
C13_5 C8_8 1_555 1_555
H4_5 C10_5 1_555 1_555
H5_5 C11_5 1_555 1_555
H7_5 C13_5 1_555 1_555
C15_5 C10_5 1_555 1_555
C16_5 N16_6 1_555 1_555
C18_5 N17_7 1_555 1_555
H9_5 C15_5 1_555 1_555
H10_5 C16_5 1_555 1_555
H12_5 C18_5 1_555 1_555
N5_4 N6_4 1_555 1_555
N13_5 C5_6 1_555 1_555
C11_5 C16_5 1_555 1_555
C13_5 C18_5 1_555 1_555
Cu1_8 O1_14 1_555 1_555
O1_14 Cu2_4 1_555 1_555
N1_4 Cu1_8 1_555 1_555
N2_4 N1_4 1_555 1_555
N3_7 C4_4 1_555 1_555
C1_7 N2_4 1_555 1_555
C2_7 C1_7 1_555 1_555
C3_4 C2_7 1_555 1_555
H1_4 C3_4 1_555 1_555
C4_4 C3_4 1_555 1_555
H2_4 C4_4 1_555 1_555
Cu2_4 N4_4 1_555 1_555
Cu4_7 N3_7 1_555 1_555
Cu7_6 N8_5 1_555 1_555
N4_4 N1_4 1_555 1_555
N8_5 N15_5 1_555 1_555
N9_4 Cu2_4 1_555 1_555
N11_4 C1_7 1_555 1_555
N15_5 C6_9 1_555 1_555
N17_8 Cu1_8 1_555 1_555
N18_4 Cu2_4 1_555 1_555
C8_9 C6_9 1_555 1_555
C9_4 C2_7 1_555 1_555
C12_5 C8_9 1_555 1_555
H3_4 C9_4 1_555 1_555
H6_5 C12_5 1_555 1_555
C14_4 N3_7 1_555 1_555
C17_5 N17_8 1_555 1_555
H8_4 C14_4 1_555 1_555
H11_5 C17_5 1_555 1_555
N4_4 N11_4 1_555 1_555
C9_4 C14_4 1_555 1_555
C12_5 C17_5 1_555 1_555
Cu1_9 O1_15 1_555 1_555
O1_15 Cu2_5 1_555 1_555
N1_5 Cu1_9 1_555 1_555
N2_5 N1_5 1_555 1_555
N3_8 C4_5 1_555 1_555
C1_8 N2_5 1_555 1_555
C2_8 C1_8 1_555 1_555
C3_5 C2_8 1_555 1_555
H1_5 C3_5 1_555 1_555
C4_5 C3_5 1_555 1_555
H2_5 C4_5 1_555 1_555
Cu2_5 N4_5 1_555 1_555
Cu3_8 O1_15 1_555 1_555
Cu4_8 N3_8 1_555 1_555
Cu5_6 N16_7 1_555 1_555
Cu6_5 N7_6 1_555 1_555
Cu7_7 N8_6 1_555 1_555
N4_5 N1_5 1_555 1_555
N5_5 Cu1_9 1_555 1_555
N6_5 Cu3_8 1_555 1_555
N7_6 N8_6 1_555 1_555
N8_6 N15_6 1_555 1_555
N9_5 Cu2_5 1_555 1_555
N10_5 Cu3_8 1_555 1_555
N11_5 C1_8 1_555 1_555
N12_6 N5_5 1_555 1_555
N13_6 N6_5 1_555 1_555
N14_6 N7_6 1_555 1_555
N15_6 C6_10 1_555 1_555
N16_7 C15_6 1_555 1_555
N17_9 Cu1_9 1_555 1_555
N18_5 Cu2_5 1_555 1_555
N19_8 Cu3_8 1_555 1_555
C5_7 N12_6 1_555 1_555
C6_10 N14_6 1_555 1_555
C7_7 C5_7 1_555 1_555
C8_10 C6_10 1_555 1_555
C9_5 C2_8 1_555 1_555
C10_6 C7_7 1_555 1_555
C11_6 C7_7 1_555 1_555
C12_6 C8_10 1_555 1_555
C13_6 C8_10 1_555 1_555
H3_5 C9_5 1_555 1_555
H4_6 C10_6 1_555 1_555
H5_6 C11_6 1_555 1_555
H6_6 C12_6 1_555 1_555
H7_6 C13_6 1_555 1_555
C14_5 N3_8 1_555 1_555
C15_6 C10_6 1_555 1_555
C16_6 N16_7 1_555 1_555
C17_6 N17_9 1_555 1_555
C18_6 N17_9 1_555 1_555
H8_5 C14_5 1_555 1_555
H9_6 C15_6 1_555 1_555
H10_6 C16_6 1_555 1_555
H11_6 C17_6 1_555 1_555
H12_6 C18_6 1_555 1_555
N4_5 N11_5 1_555 1_555
N5_5 N6_5 1_555 1_555
N9_5 N10_5 1_555 1_555
N13_6 C5_7 1_555 1_555
C9_5 C14_5 1_555 1_555
C11_6 C16_6 1_555 1_555
C12_6 C17_6 1_555 1_555
C13_6 C18_6 1_555 1_555
Cu1_10 O1_16 1_555 1_555
O1_16 Cu2_6 1_555 1_555
N1_6 Cu1_10 1_555 1_555
N2_6 N1_6 1_555 1_555
N3_9 C4_6 1_555 1_555
C1_9 N2_6 1_555 1_555
C2_9 C1_9 1_555 1_555
C3_6 C2_9 1_555 1_555
H1_6 C3_6 1_555 1_555
C4_6 C3_6 1_555 1_555
H2_6 C4_6 1_555 1_555
Cu2_6 N4_6 1_555 1_555
Cu3_9 O1_16 1_555 1_555
Cu4_9 N3_9 1_555 1_555
Cu5_7 N16_8 1_555 1_555
Cu6_6 N7_7 1_555 1_555
Cu7_8 N8_7 1_555 1_555
N4_6 N1_6 1_555 1_555
N5_6 Cu1_10 1_555 1_555
N6_6 Cu3_9 1_555 1_555
N7_7 N8_7 1_555 1_555
N8_7 N15_7 1_555 1_555
N9_6 Cu2_6 1_555 1_555
N10_6 Cu3_9 1_555 1_555
N11_6 C1_9 1_555 1_555
N12_7 N5_6 1_555 1_555
N13_7 N6_6 1_555 1_555
N14_7 N7_7 1_555 1_555
N15_7 C6_11 1_555 1_555
N16_8 C15_7 1_555 1_555
N17_10 Cu1_10 1_555 1_555
N18_6 Cu2_6 1_555 1_555
N19_9 Cu3_9 1_555 1_555
C5_8 N12_7 1_555 1_555
C6_11 N14_7 1_555 1_555
C7_8 C5_8 1_555 1_555
C8_11 C6_11 1_555 1_555
C9_6 C2_9 1_555 1_555
C10_7 C7_8 1_555 1_555
C11_7 C7_8 1_555 1_555
C12_7 C8_11 1_555 1_555
C13_7 C8_11 1_555 1_555
H3_6 C9_6 1_555 1_555
H4_7 C10_7 1_555 1_555
H5_7 C11_7 1_555 1_555
H6_7 C12_7 1_555 1_555
H7_7 C13_7 1_555 1_555
C14_6 N3_9 1_555 1_555
C15_7 C10_7 1_555 1_555
C16_7 N16_8 1_555 1_555
C17_7 N17_10 1_555 1_555
C18_7 N17_10 1_555 1_555
H8_6 C14_6 1_555 1_555
H9_7 C15_7 1_555 1_555
H10_7 C16_7 1_555 1_555
H11_7 C17_7 1_555 1_555
H12_7 C18_7 1_555 1_555
N4_6 N11_6 1_555 1_555
N5_6 N6_6 1_555 1_555
N9_6 N10_6 1_555 1_555
N13_7 C5_8 1_555 1_555
C9_6 C14_6 1_555 1_555
C11_7 C16_7 1_555 1_555
C12_7 C17_7 1_555 1_555
C13_7 C18_7 1_555 1_555
Cu1_11 O1_17 1_555 1_555
Cu3_10 O1_17 1_555 1_555
Cu6_2 N16_9 1_555 1_555
Cu6_7 N7_8 1_555 1_555
N5_7 Cu1_11 1_555 1_555
N6_7 Cu3_10 1_555 1_555
N10_7 Cu3_10 1_555 1_555
N12_8 N5_7 1_555 1_555
N13_8 N6_7 1_555 1_555
N14_8 N7_8 1_555 1_555
N16_9 C15_8 1_555 1_555
N17_11 Cu1_11 1_555 1_555
N19_10 Cu3_10 1_555 1_555
C5_9 N12_8 1_555 1_555
C6_12 N14_8 1_555 1_555
C7_9 C5_9 1_555 1_555
C8_12 C6_12 1_555 1_555
C10_8 C7_9 1_555 1_555
C11_8 C7_9 1_555 1_555
C13_8 C8_12 1_555 1_555
H4_8 C10_8 1_555 1_555
H5_8 C11_8 1_555 1_555
H7_8 C13_8 1_555 1_555
C15_8 C10_8 1_555 1_555
C16_8 N16_9 1_555 1_555
C18_8 N17_11 1_555 1_555
H9_8 C15_8 1_555 1_555
H10_8 C16_8 1_555 1_555
H12_8 C18_8 1_555 1_555
N5_7 N6_7 1_555 1_555
N13_8 C5_9 1_555 1_555
C11_8 C16_8 1_555 1_555
C13_8 C18_8 1_555 1_555
Cu1_12 O1_18 1_555 1_555
O1_18 Cu2_7 1_555 1_555
N1_7 Cu1_12 1_555 1_555
N2_7 N1_7 1_555 1_555
N3_10 C4_7 1_555 1_555
C1_10 N2_7 1_555 1_555
C2_10 C1_10 1_555 1_555
C3_7 C2_10 1_555 1_555
H1_7 C3_7 1_555 1_555
C4_7 C3_7 1_555 1_555
H2_7 C4_7 1_555 1_555
Cu2_7 N4_7 1_555 1_555
Cu4_10 N3_10 1_555 1_555
Cu7_10 N8_8 1_555 1_555
N4_7 N1_7 1_555 1_555
N8_8 N15_8 1_555 1_555
N9_7 Cu2_7 1_555 1_555
N11_7 C1_10 1_555 1_555
N15_8 C6_13 1_555 1_555
N17_12 Cu1_12 1_555 1_555
N18_7 Cu2_7 1_555 1_555
C8_13 C6_13 1_555 1_555
C9_7 C2_10 1_555 1_555
C12_8 C8_13 1_555 1_555
H3_7 C9_7 1_555 1_555
H6_8 C12_8 1_555 1_555
C14_7 N3_10 1_555 1_555
C17_8 N17_12 1_555 1_555
H8_7 C14_7 1_555 1_555
H11_8 C17_8 1_555 1_555
N4_7 N11_7 1_555 1_555
C9_7 C14_7 1_555 1_555
C12_8 C17_8 1_555 1_555
Cu5_8 N16_10 1_555 1_555
Cu5_2 N7_9 1_555 1_555
Cu7_11 N8_9 1_555 1_555
N7_9 N8_9 1_555 1_555
N8_9 N15_9 1_555 1_555
N12_9 N9_3 1_555 1_555
N14_9 N7_9 1_555 1_555
N15_9 C6_14 1_555 1_555
C5_10 N12_9 1_555 1_555
C6_14 N14_9 1_555 1_555
C7_10 C5_10 1_555 1_555
C8_14 C6_14 1_555 1_555
C11_9 C7_10 1_555 1_555
C12_9 C8_14 1_555 1_555
C13_9 C8_14 1_555 1_555
H5_9 C11_9 1_555 1_555
H6_9 C12_9 1_555 1_555
H7_9 C13_9 1_555 1_555
C16_9 N16_10 1_555 1_555
C17_9 N18_3 1_555 1_555
C18_9 N18_3 1_555 1_555
H10_9 C16_9 1_555 1_555
H11_9 C17_9 1_555 1_555
H12_9 C18_9 1_555 1_555
C11_9 C16_9 1_555 1_555
C12_9 C17_9 1_555 1_555
C13_9 C18_9 1_555 1_555
Cu5_9 N16_11 1_555 1_555
N13_9 N10_3 1_555 1_555
N16_11 C15_9 1_555 1_555
C7_11 C5_11 1_555 1_555
C10_9 C7_11 1_555 1_555
H4_9 C10_9 1_555 1_555
C15_9 C10_9 1_555 1_555
H9_9 C15_9 1_555 1_555
N13_9 C5_11 1_555 1_555
Cu1_13 O1_19 1_555 1_555
Cu3_11 O1_19 1_555 1_555
Cu6 N16_12 1_555 1_555
Cu6_8 N7_10 1_555 1_555
N5_8 Cu1_13 1_555 1_555
N6_8 Cu3_11 1_555 1_555
N10_8 Cu3_11 1_555 1_555
N12_10 N5_8 1_555 1_555
N13_10 N6_8 1_555 1_555
N14_10 N7_10 1_555 1_555
N16_12 C15_10 1_555 1_555
N17_13 Cu1_13 1_555 1_555
N19_11 Cu3_11 1_555 1_555
C5_12 N12_10 1_555 1_555
C6_15 N14_10 1_555 1_555
C7_12 C5_12 1_555 1_555
C8_15 C6_15 1_555 1_555
C10_10 C7_12 1_555 1_555
C11_10 C7_12 1_555 1_555
C13_10 C8_15 1_555 1_555
H4_10 C10_10 1_555 1_555
H5_10 C11_10 1_555 1_555
H7_10 C13_10 1_555 1_555
C15_10 C10_10 1_555 1_555
C16_10 N16_12 1_555 1_555
C18_10 N17_13 1_555 1_555
H9_10 C15_10 1_555 1_555
H10_10 C16_10 1_555 1_555
H12_10 C18_10 1_555 1_555
N5_8 N6_8 1_555 1_555
N13_10 C5_12 1_555 1_555
C11_10 C16_10 1_555 1_555
C13_10 C18_10 1_555 1_555
Cu1_14 O1_20 1_555 1_555
O1_20 Cu2_8 1_555 1_555
N1_8 Cu1_14 1_555 1_555
N2_8 N1_8 1_555 1_555
N3_11 C4_8 1_555 1_555
C1_11 N2_8 1_555 1_555
C2_11 C1_11 1_555 1_555
C3_8 C2_11 1_555 1_555
H1_8 C3_8 1_555 1_555
C4_8 C3_8 1_555 1_555
H2_8 C4_8 1_555 1_555
Cu2_8 N4_8 1_555 1_555
Cu4_11 N3_11 1_555 1_555
Cu7_13 N8_10 1_555 1_555
N4_8 N1_8 1_555 1_555
N8_10 N15_10 1_555 1_555
N9_8 Cu2_8 1_555 1_555
N11_8 C1_11 1_555 1_555
N15_10 C6_16 1_555 1_555
N17_14 Cu1_14 1_555 1_555
N18_8 Cu2_8 1_555 1_555
C8_16 C6_16 1_555 1_555
C9_8 C2_11 1_555 1_555
C12_10 C8_16 1_555 1_555
H3_8 C9_8 1_555 1_555
H6_10 C12_10 1_555 1_555
C14_8 N3_11 1_555 1_555
C17_10 N17_14 1_555 1_555
H8_8 C14_8 1_555 1_555
H11_10 C17_10 1_555 1_555
N4_8 N11_8 1_555 1_555
C9_8 C14_8 1_555 1_555
C12_10 C17_10 1_555 1_555
Cu1_15 O1_21 1_555 1_555
O1_21 Cu2_9 1_555 1_555
N1_9 Cu1_15 1_555 1_555
N2_9 N1_9 1_555 1_555
N3_12 C4_9 1_555 1_555
C1_12 N2_9 1_555 1_555
C2_12 C1_12 1_555 1_555
C3_9 C2_12 1_555 1_555
H1_9 C3_9 1_555 1_555
C4_9 C3_9 1_555 1_555
H2_9 C4_9 1_555 1_555
Cu2_9 N4_9 1_555 1_555
Cu3_12 O1_21 1_555 1_555
Cu4_12 N3_12 1_555 1_555
Cu5_10 N16_13 1_555 1_555
Cu6_9 N7_11 1_555 1_555
Cu7_14 N8_11 1_555 1_555
N4_9 N1_9 1_555 1_555
N5_9 Cu1_15 1_555 1_555
N6_9 Cu3_12 1_555 1_555
N7_11 N8_11 1_555 1_555
N8_11 N15_11 1_555 1_555
N9_9 Cu2_9 1_555 1_555
N10_9 Cu3_12 1_555 1_555
N11_9 C1_12 1_555 1_555
N12_11 N5_9 1_555 1_555
N13_11 N6_9 1_555 1_555
N14_11 N7_11 1_555 1_555
N15_11 C6_17 1_555 1_555
N16_13 C15_11 1_555 1_555
N17_15 Cu1_15 1_555 1_555
N18_9 Cu2_9 1_555 1_555
N19_12 Cu3_12 1_555 1_555
C5_13 N12_11 1_555 1_555
C6_17 N14_11 1_555 1_555
C7_13 C5_13 1_555 1_555
C8_17 C6_17 1_555 1_555
C9_9 C2_12 1_555 1_555
C10_11 C7_13 1_555 1_555
C11_11 C7_13 1_555 1_555
C12_11 C8_17 1_555 1_555
C13_11 C8_17 1_555 1_555
H3_9 C9_9 1_555 1_555
H4_11 C10_11 1_555 1_555
H5_11 C11_11 1_555 1_555
H6_11 C12_11 1_555 1_555
H7_11 C13_11 1_555 1_555
C14_9 N3_12 1_555 1_555
C15_11 C10_11 1_555 1_555
C16_11 N16_13 1_555 1_555
C17_11 N17_15 1_555 1_555
C18_11 N17_15 1_555 1_555
H8_9 C14_9 1_555 1_555
H9_11 C15_11 1_555 1_555
H10_11 C16_11 1_555 1_555
H11_11 C17_11 1_555 1_555
H12_11 C18_11 1_555 1_555
N4_9 N11_9 1_555 1_555
N5_9 N6_9 1_555 1_555
N9_9 N10_9 1_555 1_555
N13_11 C5_13 1_555 1_555
C9_9 C14_9 1_555 1_555
C11_11 C16_11 1_555 1_555
C12_11 C17_11 1_555 1_555
C13_11 C18_11 1_555 1_555
Cu5_11 N16_14 1_555 1_555
Cu5 N7_12 1_555 1_555
Cu7_15 N8_12 1_555 1_555
N7_12 N8_12 1_555 1_555
N8_12 N15_12 1_555 1_555
N12_12 N9_2 1_555 1_555
N14_12 N7_12 1_555 1_555
N15_12 C6_18 1_555 1_555
C5_14 N12_12 1_555 1_555
C6_18 N14_12 1_555 1_555
C7_14 C5_14 1_555 1_555
C8_18 C6_18 1_555 1_555
C11_12 C7_14 1_555 1_555
C12_12 C8_18 1_555 1_555
C13_12 C8_18 1_555 1_555
H5_12 C11_12 1_555 1_555
H6_12 C12_12 1_555 1_555
H7_12 C13_12 1_555 1_555
C16_12 N16_14 1_555 1_555
C17_12 N18_2 1_555 1_555
C18_12 N18_2 1_555 1_555
H10_12 C16_12 1_555 1_555
H11_12 C17_12 1_555 1_555
H12_12 C18_12 1_555 1_555
C11_12 C16_12 1_555 1_555
C12_12 C17_12 1_555 1_555
C13_12 C18_12 1_555 1_555
Cu5_12 N16_15 1_555 1_555
N13_12 N10_2 1_555 1_555
N16_15 C15_12 1_555 1_555
C7_15 C5_15 1_555 1_555
C10_12 C7_15 1_555 1_555
H4_12 C10_12 1_555 1_555
C15_12 C10_12 1_555 1_555
H9_12 C15_12 1_555 1_555
N13_12 C5_15 1_555 1_555
Cu1_16 O1_22 1_555 1_555
N1_10 Cu1_16 1_555 1_555
N2_10 N1_10 1_555 1_555
C1_13 N2_10 1_555 1_555
C2_13 C1_13 1_555 1_555
Cu3_13 O1_22 1_555 1_555
Cu7_12 N3_13 1_555 1_555
Cu7_4 N16_16 1_555 1_555
Cu4_2 N7_13 1_555 1_555
Cu4_12 N8_13 1_555 1_555
N5_10 Cu1_16 1_555 1_555
N6_10 Cu3_13 1_555 1_555
N7_13 N8_13 1_555 1_555
N8_13 N15_13 1_555 1_555
N12_13 N5_10 1_555 1_555
N13_13 N6_10 1_555 1_555
N14_13 N7_13 1_555 1_555
N15_13 C6_19 1_555 1_555
N16_16 C15_13 1_555 1_555
N17_16 Cu1_16 1_555 1_555
N19_13 Cu3_13 1_555 1_555
C5_16 N12_13 1_555 1_555
C6_19 N14_13 1_555 1_555
C7_16 C5_16 1_555 1_555
C8_19 C6_19 1_555 1_555
C9_10 C2_13 1_555 1_555
C10_13 C7_16 1_555 1_555
C11_13 C7_16 1_555 1_555
C12_13 C8_19 1_555 1_555
C13_13 C8_19 1_555 1_555
H3_10 C9_10 1_555 1_555
H4_13 C10_13 1_555 1_555
H5_13 C11_13 1_555 1_555
H6_13 C12_13 1_555 1_555
H7_13 C13_13 1_555 1_555
C14_10 N3_13 1_555 1_555
C15_13 C10_13 1_555 1_555
C16_13 N16_16 1_555 1_555
C17_13 N17_16 1_555 1_555
C18_13 N17_16 1_555 1_555
H8_10 C14_10 1_555 1_555
H9_13 C15_13 1_555 1_555
H10_13 C16_13 1_555 1_555
H11_13 C17_13 1_555 1_555
H12_13 C18_13 1_555 1_555
N5_10 N6_10 1_555 1_555
N13_13 C5_16 1_555 1_555
C9_10 C14_10 1_555 1_555
C11_13 C16_13 1_555 1_555
C12_13 C17_13 1_555 1_555
C13_13 C18_13 1_555 1_555
O1_23 Cu2_10 1_555 1_555
N3_14 C4_10 1_555 1_555
C2_14 C1_14 1_555 1_555
C3_10 C2_14 1_555 1_555
H1_10 C3_10 1_555 1_555
C4_10 C3_10 1_555 1_555
H2_10 C4_10 1_555 1_555
Cu2_10 N4_10 1_555 1_555
Cu3_14 O1_23 1_555 1_555
Cu7_13 N3_14 1_555 1_555
N9_10 Cu2_10 1_555 1_555
N10_10 Cu3_14 1_555 1_555
N11_10 C1_14 1_555 1_555
N18_10 Cu2_10 1_555 1_555
N19_14 Cu3_14 1_555 1_555
N4_10 N11_10 1_555 1_555
N9_10 N10_10 1_555 1_555
Cu1_17 O1_24 1_555 1_555
O1_24 Cu2_11 1_555 1_555
N1_11 Cu1_17 1_555 1_555
N2_11 N1_11 1_555 1_555
N3_15 C4_11 1_555 1_555
C1_15 N2_11 1_555 1_555
C2_15 C1_15 1_555 1_555
C3_11 C2_15 1_555 1_555
H1_11 C3_11 1_555 1_555
C4_11 C3_11 1_555 1_555
H2_11 C4_11 1_555 1_555
Cu2_11 N4_11 1_555 1_555
Cu3_15 O1_24 1_555 1_555
Cu7_2 N3_15 1_555 1_555
Cu7 N16_17 1_555 1_555
Cu6_10 N7_14 1_555 1_555
Cu4_3 N8_14 1_555 1_555
N4_11 N1_11 1_555 1_555
N5_11 Cu1_17 1_555 1_555
N6_11 Cu3_15 1_555 1_555
N7_14 N8_14 1_555 1_555
N8_14 N15_14 1_555 1_555
N9_11 Cu2_11 1_555 1_555
N10_11 Cu3_15 1_555 1_555
N11_11 C1_15 1_555 1_555
N12_14 N5_11 1_555 1_555
N13_14 N6_11 1_555 1_555
N14_14 N7_14 1_555 1_555
N15_14 C6_20 1_555 1_555
N16_17 C15_14 1_555 1_555
N17_17 Cu1_17 1_555 1_555
N18_11 Cu2_11 1_555 1_555
N19_15 Cu3_15 1_555 1_555
C5_17 N12_14 1_555 1_555
C6_20 N14_14 1_555 1_555
C7_17 C5_17 1_555 1_555
C8_20 C6_20 1_555 1_555
C9_11 C2_15 1_555 1_555
C10_14 C7_17 1_555 1_555
C11_14 C7_17 1_555 1_555
C12_14 C8_20 1_555 1_555
C13_14 C8_20 1_555 1_555
H3_11 C9_11 1_555 1_555
H4_14 C10_14 1_555 1_555
H5_14 C11_14 1_555 1_555
H6_14 C12_14 1_555 1_555
H7_14 C13_14 1_555 1_555
C14_11 N3_15 1_555 1_555
C15_14 C10_14 1_555 1_555
C16_14 N16_17 1_555 1_555
C17_14 N17_17 1_555 1_555
C18_14 N17_17 1_555 1_555
H8_11 C14_11 1_555 1_555
H9_14 C15_14 1_555 1_555
H10_14 C16_14 1_555 1_555
H11_14 C17_14 1_555 1_555
H12_14 C18_14 1_555 1_555
N4_11 N11_11 1_555 1_555
N5_11 N6_11 1_555 1_555
N9_11 N10_11 1_555 1_555
N13_14 C5_17 1_555 1_555
C9_11 C14_11 1_555 1_555
C11_14 C16_14 1_555 1_555
C12_14 C17_14 1_555 1_555
C13_14 C18_14 1_555 1_555
Cu1_18 O1_25 1_555 1_555
O1_25 Cu2_12 1_555 1_555
N1_12 Cu1_18 1_555 1_555
N2_12 N1_12 1_555 1_555
N3_16 C4_12 1_555 1_555
C1_16 N2_12 1_555 1_555
C2_16 C1_16 1_555 1_555
C3_12 C2_16 1_555 1_555
H1_12 C3_12 1_555 1_555
C4_12 C3_12 1_555 1_555
H2_12 C4_12 1_555 1_555
Cu2_12 N4_12 1_555 1_555
Cu3_16 O1_25 1_555 1_555
Cu6_9 N3_16 1_555 1_555
Cu5_13 N16_18 1_555 1_555
Cu6_5 N7_15 1_555 1_555
Cu5_10 N8_15 1_555 1_555
N4_12 N1_12 1_555 1_555
N5_12 Cu1_18 1_555 1_555
N6_12 Cu3_16 1_555 1_555
N7_15 N8_15 1_555 1_555
N8_15 N15_15 1_555 1_555
N9_12 Cu2_12 1_555 1_555
N10_12 Cu3_16 1_555 1_555
N11_12 C1_16 1_555 1_555
N12_15 N5_12 1_555 1_555
N13_15 N6_12 1_555 1_555
N14_15 N7_15 1_555 1_555
N15_15 C6_21 1_555 1_555
N16_18 C15_15 1_555 1_555
N17_18 Cu1_18 1_555 1_555
N18_12 Cu2_12 1_555 1_555
N19_16 Cu3_16 1_555 1_555
C5_18 N12_15 1_555 1_555
C6_21 N14_15 1_555 1_555
C7_18 C5_18 1_555 1_555
C8_21 C6_21 1_555 1_555
C9_12 C2_16 1_555 1_555
C10_15 C7_18 1_555 1_555
C11_15 C7_18 1_555 1_555
C12_15 C8_21 1_555 1_555
C13_15 C8_21 1_555 1_555
H3_12 C9_12 1_555 1_555
H4_15 C10_15 1_555 1_555
H5_15 C11_15 1_555 1_555
H6_15 C12_15 1_555 1_555
H7_15 C13_15 1_555 1_555
C14_12 N3_16 1_555 1_555
C15_15 C10_15 1_555 1_555
C16_15 N16_18 1_555 1_555
C17_15 N17_18 1_555 1_555
C18_15 N17_18 1_555 1_555
H8_12 C14_12 1_555 1_555
H9_15 C15_15 1_555 1_555
H10_15 C16_15 1_555 1_555
H11_15 C17_15 1_555 1_555
H12_15 C18_15 1_555 1_555
N4_12 N11_12 1_555 1_555
N5_12 N6_12 1_555 1_555
N9_12 N10_12 1_555 1_555
N13_15 C5_18 1_555 1_555
C9_12 C14_12 1_555 1_555
C11_15 C16_15 1_555 1_555
C12_15 C17_15 1_555 1_555
C13_15 C18_15 1_555 1_555
Cu5_11 N8_16 1_555 1_555
N8_16 N15_16 1_555 1_555
N15_16 C6_22 1_555 1_555
C8_22 C6_22 1_555 1_555
C12_16 C8_22 1_555 1_555
H6_16 C12_16 1_555 1_555
C17_16 N19 1_555 1_555
H11_16 C17_16 1_555 1_555
C12_16 C17_16 1_555 1_555
Cu6_4 N7_16 1_555 1_555
N14_16 N7_16 1_555 1_555
C6_23 N14_16 1_555 1_555
C8_23 C6_23 1_555 1_555
C13_16 C8_23 1_555 1_555
H7_16 C13_16 1_555 1_555
C18_16 N19_2 1_555 1_555
H12_16 C18_16 1_555 1_555
C13_16 C18_16 1_555 1_555
Cu1_19 O1_26 1_555 1_555
O1_26 Cu2_13 1_555 1_555
N1_13 Cu1_19 1_555 1_555
N2_13 N1_13 1_555 1_555
N3_17 C4_13 1_555 1_555
C1_17 N2_13 1_555 1_555
C2_17 C1_17 1_555 1_555
C3_13 C2_17 1_555 1_555
H1_13 C3_13 1_555 1_555
C4_13 C3_13 1_555 1_555
H2_13 C4_13 1_555 1_555
Cu2_13 N4_13 1_555 1_555
Cu3_17 O1_26 1_555 1_555
Cu4_13 N3_17 1_555 1_555
Cu6_5 N16_19 1_555 1_555
Cu5_6 N7_17 1_555 1_555
Cu6_6 N8_17 1_555 1_555
N4_13 N1_13 1_555 1_555
N5_13 Cu1_19 1_555 1_555
N6_13 Cu3_17 1_555 1_555
N7_17 N8_17 1_555 1_555
N8_17 N15_17 1_555 1_555
N9_13 Cu2_13 1_555 1_555
N10_13 Cu3_17 1_555 1_555
N11_13 C1_17 1_555 1_555
N12_16 N5_13 1_555 1_555
N13_16 N6_13 1_555 1_555
N14_17 N7_17 1_555 1_555
N15_17 C6_24 1_555 1_555
N16_19 C15_16 1_555 1_555
N17_19 Cu1_19 1_555 1_555
N18_13 Cu2_13 1_555 1_555
N19_17 Cu3_17 1_555 1_555
C5_19 N12_16 1_555 1_555
C6_24 N14_17 1_555 1_555
C7_19 C5_19 1_555 1_555
C8_24 C6_24 1_555 1_555
C9_13 C2_17 1_555 1_555
C10_16 C7_19 1_555 1_555
C11_16 C7_19 1_555 1_555
C12_17 C8_24 1_555 1_555
C13_17 C8_24 1_555 1_555
H3_13 C9_13 1_555 1_555
H4_16 C10_16 1_555 1_555
H5_16 C11_16 1_555 1_555
H6_17 C12_17 1_555 1_555
H7_17 C13_17 1_555 1_555
C14_13 N3_17 1_555 1_555
C15_16 C10_16 1_555 1_555
C16_16 N16_19 1_555 1_555
C17_17 N17_19 1_555 1_555
C18_17 N17_19 1_555 1_555
H8_13 C14_13 1_555 1_555
H9_16 C15_16 1_555 1_555
H10_16 C16_16 1_555 1_555
H11_17 C17_17 1_555 1_555
H12_17 C18_17 1_555 1_555
N4_13 N11_13 1_555 1_555
N5_13 N6_13 1_555 1_555
N9_13 N10_13 1_555 1_555
N13_16 C5_19 1_555 1_555
C9_13 C14_13 1_555 1_555
C11_16 C16_16 1_555 1_555
C12_17 C17_17 1_555 1_555
C13_17 C18_17 1_555 1_555
Cu6_4 N16_20 1_555 1_555
Cu6_3 N7_18 1_555 1_555
Cu7_17 N8_18 1_555 1_555
N7_18 N8_18 1_555 1_555
N8_18 N15_18 1_555 1_555
N12_17 N10_6 1_555 1_555
N13_17 N9_6 1_555 1_555
N14_18 N7_18 1_555 1_555
N15_18 C6_25 1_555 1_555
N16_20 C15_17 1_555 1_555
C5_20 N12_17 1_555 1_555
C6_25 N14_18 1_555 1_555
C7_20 C5_20 1_555 1_555
C8_25 C6_25 1_555 1_555
C10_17 C7_20 1_555 1_555
C11_17 C7_20 1_555 1_555
C12_18 C8_25 1_555 1_555
C13_18 C8_25 1_555 1_555
H4_17 C10_17 1_555 1_555
H5_17 C11_17 1_555 1_555
H6_18 C12_18 1_555 1_555
H7_18 C13_18 1_555 1_555
C15_17 C10_17 1_555 1_555
C16_17 N16_20 1_555 1_555
C17_18 N19_9 1_555 1_555
C18_18 N19_9 1_555 1_555
H9_17 C15_17 1_555 1_555
H10_17 C16_17 1_555 1_555
H11_18 C17_18 1_555 1_555
H12_18 C18_18 1_555 1_555
N13_17 C5_20 1_555 1_555
C11_17 C16_17 1_555 1_555
C12_18 C17_18 1_555 1_555
C13_18 C18_18 1_555 1_555
Cu6_10 N16_21 1_555 1_555
Cu7_4 N7_19 1_555 1_555
Cu7_18 N8_19 1_555 1_555
N7_19 N8_19 1_555 1_555
N8_19 N15_19 1_555 1_555
N12_18 N9_12 1_555 1_555
N13_18 N10_12 1_555 1_555
N14_19 N7_19 1_555 1_555
N15_19 C6_26 1_555 1_555
N16_21 C15_18 1_555 1_555
C5_21 N12_18 1_555 1_555
C6_26 N14_19 1_555 1_555
C7_21 C5_21 1_555 1_555
C8_26 C6_26 1_555 1_555
C10_18 C7_21 1_555 1_555
C11_18 C7_21 1_555 1_555
C12_19 C8_26 1_555 1_555
C13_19 C8_26 1_555 1_555
H4_18 C10_18 1_555 1_555
H5_18 C11_18 1_555 1_555
H6_19 C12_19 1_555 1_555
H7_19 C13_19 1_555 1_555
C15_18 C10_18 1_555 1_555
C16_18 N16_21 1_555 1_555
C17_19 N18_12 1_555 1_555
C18_19 N18_12 1_555 1_555
H9_18 C15_18 1_555 1_555
H10_18 C16_18 1_555 1_555
H11_19 C17_19 1_555 1_555
H12_19 C18_19 1_555 1_555
N13_18 C5_21 1_555 1_555
C11_18 C16_18 1_555 1_555
C12_19 C17_19 1_555 1_555
C13_19 C18_19 1_555 1_555
Cu7_3 N16_22 1_555 1_555
Cu4_5 N7_20 1_555 1_555
Cu7_19 N8_20 1_555 1_555
N7_20 N8_20 1_555 1_555
N8_20 N15_20 1_555 1_555
N12_19 N9_11 1_555 1_555
N13_19 N10_11 1_555 1_555
N14_20 N7_20 1_555 1_555
N15_20 C6_27 1_555 1_555
N16_22 C15_19 1_555 1_555
C5_22 N12_19 1_555 1_555
C6_27 N14_20 1_555 1_555
C7_22 C5_22 1_555 1_555
C8_27 C6_27 1_555 1_555
C10_19 C7_22 1_555 1_555
C11_19 C7_22 1_555 1_555
C12_20 C8_27 1_555 1_555
C13_20 C8_27 1_555 1_555
H4_19 C10_19 1_555 1_555
H5_19 C11_19 1_555 1_555
H6_20 C12_20 1_555 1_555
H7_20 C13_20 1_555 1_555
C15_19 C10_19 1_555 1_555
C16_19 N16_22 1_555 1_555
C17_20 N18_11 1_555 1_555
C18_20 N18_11 1_555 1_555
H9_19 C15_19 1_555 1_555
H10_19 C16_19 1_555 1_555
H11_20 C17_20 1_555 1_555
H12_20 C18_20 1_555 1_555
N13_19 C5_22 1_555 1_555
C11_19 C16_19 1_555 1_555
C12_20 C17_20 1_555 1_555
C13_20 C18_20 1_555 1_555
Cu7_8 N16_23 1_555 1_555
Cu4_10 N7_21 1_555 1_555
Cu4_11 N8_21 1_555 1_555
N7_21 N8_21 1_555 1_555
N8_21 N15_21 1_555 1_555
N12_20 N9_10 1_555 1_555
N13_20 N10_10 1_555 1_555
N14_21 N7_21 1_555 1_555
N15_21 C6_28 1_555 1_555
N16_23 C15_20 1_555 1_555
C5_23 N12_20 1_555 1_555
C6_28 N14_21 1_555 1_555
C7_23 C5_23 1_555 1_555
C8_28 C6_28 1_555 1_555
C10_20 C7_23 1_555 1_555
C11_20 C7_23 1_555 1_555
C12_21 C8_28 1_555 1_555
C13_21 C8_28 1_555 1_555
H4_20 C10_20 1_555 1_555
H5_20 C11_20 1_555 1_555
H6_21 C12_21 1_555 1_555
H7_21 C13_21 1_555 1_555
C15_20 C10_20 1_555 1_555
C16_20 N16_23 1_555 1_555
C17_21 N18_10 1_555 1_555
C18_21 N18_10 1_555 1_555
H9_20 C15_20 1_555 1_555
H10_20 C16_20 1_555 1_555
H11_21 C17_21 1_555 1_555
H12_21 C18_21 1_555 1_555
N13_20 C5_23 1_555 1_555
C11_20 C16_20 1_555 1_555
C12_21 C17_21 1_555 1_555
C13_21 C18_21 1_555 1_555
Cu1_20 O1_27 1_555 1_555
O1_27 Cu2_14 1_555 1_555
N1_14 Cu1_20 1_555 1_555
N2_14 N1_14 1_555 1_555
N3_18 C4_14 1_555 1_555
C1_18 N2_14 1_555 1_555
C2_18 C1_18 1_555 1_555
C3_14 C2_18 1_555 1_555
H1_14 C3_14 1_555 1_555
C4_14 C3_14 1_555 1_555
H2_14 C4_14 1_555 1_555
Cu2_14 N4_14 1_555 1_555
Cu3_18 O1_27 1_555 1_555
Cu6_6 N3_18 1_555 1_555
Cu7_18 N16_24 1_555 1_555
Cu6_9 N7_22 1_555 1_555
Cu5_7 N8_22 1_555 1_555
N4_14 N1_14 1_555 1_555
N5_14 Cu1_20 1_555 1_555
N6_14 Cu3_18 1_555 1_555
N7_22 N8_22 1_555 1_555
N8_22 N15_22 1_555 1_555
N9_14 Cu2_14 1_555 1_555
N10_14 Cu3_18 1_555 1_555
N11_14 C1_18 1_555 1_555
N12_21 N5_14 1_555 1_555
N13_21 N6_14 1_555 1_555
N14_22 N7_22 1_555 1_555
N15_22 C6_29 1_555 1_555
N16_24 C15_21 1_555 1_555
N17_20 Cu1_20 1_555 1_555
N18_14 Cu2_14 1_555 1_555
N19_18 Cu3_18 1_555 1_555
C5_24 N12_21 1_555 1_555
C6_29 N14_22 1_555 1_555
C7_24 C5_24 1_555 1_555
C8_29 C6_29 1_555 1_555
C9_14 C2_18 1_555 1_555
C10_21 C7_24 1_555 1_555
C11_21 C7_24 1_555 1_555
C12_22 C8_29 1_555 1_555
C13_22 C8_29 1_555 1_555
H3_14 C9_14 1_555 1_555
H4_21 C10_21 1_555 1_555
H5_21 C11_21 1_555 1_555
H6_22 C12_22 1_555 1_555
H7_22 C13_22 1_555 1_555
C14_14 N3_18 1_555 1_555
C15_21 C10_21 1_555 1_555
C16_21 N16_24 1_555 1_555
C17_22 N17_20 1_555 1_555
C18_22 N17_20 1_555 1_555
H8_14 C14_14 1_555 1_555
H9_21 C15_21 1_555 1_555
H10_21 C16_21 1_555 1_555
H11_22 C17_22 1_555 1_555
H12_22 C18_22 1_555 1_555
N4_14 N11_14 1_555 1_555
N5_14 N6_14 1_555 1_555
N9_14 N10_14 1_555 1_555
N13_21 C5_24 1_555 1_555
C9_14 C14_14 1_555 1_555
C11_21 C16_21 1_555 1_555
C12_22 C17_22 1_555 1_555
C13_22 C18_22 1_555 1_555
Cu5_8 N8_23 1_555 1_555
N8_23 N15_23 1_555 1_555
N15_23 C6_30 1_555 1_555
C8_30 C6_30 1_555 1_555
C12_23 C8_30 1_555 1_555
H6_23 C12_23 1_555 1_555
C17_23 N19_3 1_555 1_555
H11_23 C17_23 1_555 1_555
C12_23 C17_23 1_555 1_555
Cu6_8 N7_23 1_555 1_555
N14_23 N7_23 1_555 1_555
C6_31 N14_23 1_555 1_555
C8_31 C6_31 1_555 1_555
C13_23 C8_31 1_555 1_555
H7_23 C13_23 1_555 1_555
C18_23 N19_4 1_555 1_555
H12_23 C18_23 1_555 1_555
C13_23 C18_23 1_555 1_555
Cu1_21 O1_28 1_555 1_555
N1_15 Cu1_21 1_555 1_555
N2_15 N1_15 1_555 1_555
C1_19 N2_15 1_555 1_555
C2_19 C1_19 1_555 1_555
Cu3_19 O1_28 1_555 1_555
Cu7_9 N3_19 1_555 1_555
Cu7_15 N16_25 1_555 1_555
Cu4_4 N7_24 1_555 1_555
Cu4_9 N8_24 1_555 1_555
N5_15 Cu1_21 1_555 1_555
N6_15 Cu3_19 1_555 1_555
N7_24 N8_24 1_555 1_555
N8_24 N15_24 1_555 1_555
N12_22 N5_15 1_555 1_555
N13_22 N6_15 1_555 1_555
N14_24 N7_24 1_555 1_555
N15_24 C6_32 1_555 1_555
N16_25 C15_22 1_555 1_555
N17_21 Cu1_21 1_555 1_555
N19_19 Cu3_19 1_555 1_555
C5_25 N12_22 1_555 1_555
C6_32 N14_24 1_555 1_555
C7_25 C5_25 1_555 1_555
C8_32 C6_32 1_555 1_555
C9_15 C2_19 1_555 1_555
C10_22 C7_25 1_555 1_555
C11_22 C7_25 1_555 1_555
C12_24 C8_32 1_555 1_555
C13_24 C8_32 1_555 1_555
H3_15 C9_15 1_555 1_555
H4_22 C10_22 1_555 1_555
H5_22 C11_22 1_555 1_555
H6_24 C12_24 1_555 1_555
H7_24 C13_24 1_555 1_555
C14_15 N3_19 1_555 1_555
C15_22 C10_22 1_555 1_555
C16_22 N16_25 1_555 1_555
C17_24 N17_21 1_555 1_555
C18_24 N17_21 1_555 1_555
H8_15 C14_15 1_555 1_555
H9_22 C15_22 1_555 1_555
H10_22 C16_22 1_555 1_555
H11_24 C17_24 1_555 1_555
H12_24 C18_24 1_555 1_555
N5_15 N6_15 1_555 1_555
N13_22 C5_25 1_555 1_555
C9_15 C14_15 1_555 1_555
C11_22 C16_22 1_555 1_555
C12_24 C17_24 1_555 1_555
C13_24 C18_24 1_555 1_555
O1_29 Cu2_15 1_555 1_555
N3_20 C4_15 1_555 1_555
C2_20 C1_20 1_555 1_555
C3_15 C2_20 1_555 1_555
H1_15 C3_15 1_555 1_555
C4_15 C3_15 1_555 1_555
H2_15 C4_15 1_555 1_555
Cu2_15 N4_15 1_555 1_555
Cu3_20 O1_29 1_555 1_555
Cu7_10 N3_20 1_555 1_555
N9_15 Cu2_15 1_555 1_555
N10_15 Cu3_20 1_555 1_555
N11_15 C1_20 1_555 1_555
N18_15 Cu2_15 1_555 1_555
N19_20 Cu3_20 1_555 1_555
N4_15 N11_15 1_555 1_555
N9_15 N10_15 1_555 1_555
Cu7_19 N16_26 1_555 1_555
Cu7_15 N7_25 1_555 1_555
Cu4_13 N8_25 1_555 1_555
N7_25 N8_25 1_555 1_555
N8_25 N15_25 1_555 1_555
N12_23 N9_14 1_555 1_555
N13_23 N10_14 1_555 1_555
N14_25 N7_25 1_555 1_555
N15_25 C6_33 1_555 1_555
N16_26 C15_23 1_555 1_555
C5_26 N12_23 1_555 1_555
C6_33 N14_25 1_555 1_555
C7_26 C5_26 1_555 1_555
C8_33 C6_33 1_555 1_555
C10_23 C7_26 1_555 1_555
C11_23 C7_26 1_555 1_555
C12_25 C8_33 1_555 1_555
C13_25 C8_33 1_555 1_555
H4_23 C10_23 1_555 1_555
H5_23 C11_23 1_555 1_555
H6_25 C12_25 1_555 1_555
H7_25 C13_25 1_555 1_555
C15_23 C10_23 1_555 1_555
C16_23 N16_26 1_555 1_555
C17_25 N18_14 1_555 1_555
C18_25 N18_14 1_555 1_555
H9_23 C15_23 1_555 1_555
H10_23 C16_23 1_555 1_555
H11_25 C17_25 1_555 1_555
H12_25 C18_25 1_555 1_555
N13_23 C5_26 1_555 1_555
C11_23 C16_23 1_555 1_555
C12_25 C17_25 1_555 1_555
C13_25 C18_25 1_555 1_555
Cu4 N7_26 1_555 1_555
Cu7_20 N8_26 1_555 1_555
N7_26 N8_26 1_555 1_555
N8_26 N15_26 1_555 1_555
N14_26 N7_26 1_555 1_555
N15_26 C6_34 1_555 1_555
C6_34 N14_26 1_555 1_555
C8_34 C6_34 1_555 1_555
C12_26 C8_34 1_555 1_555
C13_26 C8_34 1_555 1_555
H6_26 C12_26 1_555 1_555
H7_26 C13_26 1_555 1_555
C17_26 N19_15 1_555 1_555
C18_26 N19_15 1_555 1_555
H11_26 C17_26 1_555 1_555
H12_26 C18_26 1_555 1_555
C12_26 C17_26 1_555 1_555
C13_26 C18_26 1_555 1_555
Cu7_7 N16_27 1_555 1_555
Cu4_7 N7_27 1_555 1_555
Cu4_10 N8_27 1_555 1_555
N7_27 N8_27 1_555 1_555
N8_27 N15_27 1_555 1_555
N12_24 N9_15 1_555 1_555
N13_24 N10_15 1_555 1_555
N14_27 N7_27 1_555 1_555
N15_27 C6_35 1_555 1_555
N16_27 C15_24 1_555 1_555
C5_27 N12_24 1_555 1_555
C6_35 N14_27 1_555 1_555
C7_27 C5_27 1_555 1_555
C8_35 C6_35 1_555 1_555
C10_24 C7_27 1_555 1_555
C11_24 C7_27 1_555 1_555
C12_27 C8_35 1_555 1_555
C13_27 C8_35 1_555 1_555
H4_24 C10_24 1_555 1_555
H5_24 C11_24 1_555 1_555
H6_27 C12_27 1_555 1_555
H7_27 C13_27 1_555 1_555
C15_24 C10_24 1_555 1_555
C16_24 N16_27 1_555 1_555
C17_27 N18_15 1_555 1_555
C18_27 N18_15 1_555 1_555
H9_24 C15_24 1_555 1_555
H10_24 C16_24 1_555 1_555
H11_27 C17_27 1_555 1_555
H12_27 C18_27 1_555 1_555
N13_24 C5_27 1_555 1_555
C11_24 C16_24 1_555 1_555
C12_27 C17_27 1_555 1_555
C13_27 C18_27 1_555 1_555
Cu6_8 N16_28 1_555 1_555
Cu6 N7_28 1_555 1_555
Cu7_22 N8_28 1_555 1_555
N7_28 N8_28 1_555 1_555
N8_28 N15_28 1_555 1_555
N12_25 N10_5 1_555 1_555
N13_25 N9_5 1_555 1_555
N14_28 N7_28 1_555 1_555
N15_28 C6_36 1_555 1_555
N16_28 C15_25 1_555 1_555
C5_28 N12_25 1_555 1_555
C6_36 N14_28 1_555 1_555
C7_28 C5_28 1_555 1_555
C8_36 C6_36 1_555 1_555
C10_25 C7_28 1_555 1_555
C11_25 C7_28 1_555 1_555
C12_28 C8_36 1_555 1_555
C13_28 C8_36 1_555 1_555
H4_25 C10_25 1_555 1_555
H5_25 C11_25 1_555 1_555
H6_28 C12_28 1_555 1_555
H7_28 C13_28 1_555 1_555
C15_25 C10_25 1_555 1_555
C16_25 N16_28 1_555 1_555
C17_28 N19_8 1_555 1_555
C18_28 N19_8 1_555 1_555
H9_25 C15_25 1_555 1_555
H10_25 C16_25 1_555 1_555
H11_28 C17_28 1_555 1_555
H12_28 C18_28 1_555 1_555
N13_25 C5_28 1_555 1_555
C11_25 C16_25 1_555 1_555
C12_28 C17_28 1_555 1_555
C13_28 C18_28 1_555 1_555
Cu1_22 O1_30 1_555 1_555
N1_16 Cu1_22 1_555 1_555
N2_16 N1_16 1_555 1_555
C1_21 N2_16 1_555 1_555
C2_21 C1_21 1_555 1_555
Cu3_21 O1_30 1_555 1_555
Cu7_5 N3_21 1_555 1_555
Cu7_11 N16_29 1_555 1_555
Cu4_6 N7_29 1_555 1_555
Cu4_8 N8_29 1_555 1_555
N5_16 Cu1_22 1_555 1_555
N6_16 Cu3_21 1_555 1_555
N7_29 N8_29 1_555 1_555
N8_29 N15_29 1_555 1_555
N12_26 N5_16 1_555 1_555
N13_26 N6_16 1_555 1_555
N14_29 N7_29 1_555 1_555
N15_29 C6_37 1_555 1_555
N16_29 C15_26 1_555 1_555
N17_22 Cu1_22 1_555 1_555
N19_21 Cu3_21 1_555 1_555
C5_29 N12_26 1_555 1_555
C6_37 N14_29 1_555 1_555
C7_29 C5_29 1_555 1_555
C8_37 C6_37 1_555 1_555
C9_16 C2_21 1_555 1_555
C10_26 C7_29 1_555 1_555
C11_26 C7_29 1_555 1_555
C12_29 C8_37 1_555 1_555
C13_29 C8_37 1_555 1_555
H3_16 C9_16 1_555 1_555
H4_26 C10_26 1_555 1_555
H5_26 C11_26 1_555 1_555
H6_29 C12_29 1_555 1_555
H7_29 C13_29 1_555 1_555
C14_16 N3_21 1_555 1_555
C15_26 C10_26 1_555 1_555
C16_26 N16_29 1_555 1_555
C17_29 N17_22 1_555 1_555
C18_29 N17_22 1_555 1_555
H8_16 C14_16 1_555 1_555
H9_26 C15_26 1_555 1_555
H10_26 C16_26 1_555 1_555
H11_29 C17_29 1_555 1_555
H12_29 C18_29 1_555 1_555
N5_16 N6_16 1_555 1_555
N13_26 C5_29 1_555 1_555
C9_16 C14_16 1_555 1_555
C11_26 C16_26 1_555 1_555
C12_29 C17_29 1_555 1_555
C13_29 C18_29 1_555 1_555
O1_31 Cu2_16 1_555 1_555
N3_22 C4_16 1_555 1_555
C2_22 C1_22 1_555 1_555
C3_16 C2_22 1_555 1_555
H1_16 C3_16 1_555 1_555
C4_16 C3_16 1_555 1_555
H2_16 C4_16 1_555 1_555
Cu2_16 N4_16 1_555 1_555
Cu3_22 O1_31 1_555 1_555
Cu7_6 N3_22 1_555 1_555
N9_16 Cu2_16 1_555 1_555
N10_16 Cu3_22 1_555 1_555
N11_16 C1_22 1_555 1_555
N18_16 Cu2_16 1_555 1_555
N19_22 Cu3_22 1_555 1_555
N4_16 N11_16 1_555 1_555
N9_16 N10_16 1_555 1_555
Cu5_4 N8_30 1_555 1_555
N8_30 N15_30 1_555 1_555
N15_30 C6_38 1_555 1_555
C8_38 C6_38 1_555 1_555
C12_30 C8_38 1_555 1_555
H6_30 C12_30 1_555 1_555
C17_30 N19_5 1_555 1_555
H11_30 C17_30 1_555 1_555
C12_30 C17_30 1_555 1_555
Cu6_7 N7_30 1_555 1_555
N14_30 N7_30 1_555 1_555
C6_39 N14_30 1_555 1_555
C8_39 C6_39 1_555 1_555
C13_30 C8_39 1_555 1_555
H7_30 C13_30 1_555 1_555
C18_30 N19_6 1_555 1_555
H12_30 C18_30 1_555 1_555
C13_30 C18_30 1_555 1_555
Cu7_14 N16_30 1_555 1_555
Cu4_11 N7_31 1_555 1_555
Cu4_7 N8_31 1_555 1_555
N7_31 N8_31 1_555 1_555
N8_31 N15_31 1_555 1_555
N12_27 N9_16 1_555 1_555
N13_27 N10_16 1_555 1_555
N14_31 N7_31 1_555 1_555
N15_31 C6_40 1_555 1_555
N16_30 C15_27 1_555 1_555
C5_30 N12_27 1_555 1_555
C6_40 N14_31 1_555 1_555
C7_30 C5_30 1_555 1_555
C8_40 C6_40 1_555 1_555
C10_27 C7_30 1_555 1_555
C11_27 C7_30 1_555 1_555
C12_31 C8_40 1_555 1_555
C13_31 C8_40 1_555 1_555
H4_27 C10_27 1_555 1_555
H5_27 C11_27 1_555 1_555
H6_31 C12_31 1_555 1_555
H7_31 C13_31 1_555 1_555
C15_27 C10_27 1_555 1_555
C16_27 N16_30 1_555 1_555
C17_31 N18_16 1_555 1_555
C18_31 N18_16 1_555 1_555
H9_27 C15_27 1_555 1_555
H10_27 C16_27 1_555 1_555
H11_31 C17_31 1_555 1_555
H12_31 C18_31 1_555 1_555
N13_27 C5_30 1_555 1_555
C11_27 C16_27 1_555 1_555
C12_31 C17_31 1_555 1_555
C13_31 C18_31 1_555 1_555
Cu6_7 N16_31 1_555 1_555
Cu6_2 N7_32 1_555 1_555
Cu7_24 N8_32 1_555 1_555
N7_32 N8_32 1_555 1_555
N8_32 N15_32 1_555 1_555
N12_28 N10_9 1_555 1_555
N13_28 N9_9 1_555 1_555
N14_32 N7_32 1_555 1_555
N15_32 C6_41 1_555 1_555
N16_31 C15_28 1_555 1_555
C5_31 N12_28 1_555 1_555
C6_41 N14_32 1_555 1_555
C7_31 C5_31 1_555 1_555
C8_41 C6_41 1_555 1_555
C10_28 C7_31 1_555 1_555
C11_28 C7_31 1_555 1_555
C12_32 C8_41 1_555 1_555
C13_32 C8_41 1_555 1_555
H4_28 C10_28 1_555 1_555
H5_28 C11_28 1_555 1_555
H6_32 C12_32 1_555 1_555
H7_32 C13_32 1_555 1_555
C15_28 C10_28 1_555 1_555
C16_28 N16_31 1_555 1_555
C17_32 N19_12 1_555 1_555
C18_32 N19_12 1_555 1_555
H9_28 C15_28 1_555 1_555
H10_28 C16_28 1_555 1_555
H11_32 C17_32 1_555 1_555
H12_32 C18_32 1_555 1_555
N13_28 C5_31 1_555 1_555
C11_28 C16_28 1_555 1_555
C12_32 C17_32 1_555 1_555
C13_32 C18_32 1_555 1_555
Cu7_20 N16_32 1_555 1_555
Cu7_11 N7_33 1_555 1_555
Cu5_13 N8_33 1_555 1_555
N7_33 N8_33 1_555 1_555
N8_33 N15_33 1_555 1_555
N12_29 N10_13 1_555 1_555
N13_29 N9_13 1_555 1_555
N14_33 N7_33 1_555 1_555
N15_33 C6_42 1_555 1_555
N16_32 C15_29 1_555 1_555
C5_32 N12_29 1_555 1_555
C6_42 N14_33 1_555 1_555
C7_32 C5_32 1_555 1_555
C8_42 C6_42 1_555 1_555
C10_29 C7_32 1_555 1_555
C11_29 C7_32 1_555 1_555
C12_33 C8_42 1_555 1_555
C13_33 C8_42 1_555 1_555
H4_29 C10_29 1_555 1_555
H5_29 C11_29 1_555 1_555
H6_33 C12_33 1_555 1_555
H7_33 C13_33 1_555 1_555
C15_29 C10_29 1_555 1_555
C16_29 N16_32 1_555 1_555
C17_33 N19_17 1_555 1_555
C18_33 N19_17 1_555 1_555
H9_29 C15_29 1_555 1_555
H10_29 C16_29 1_555 1_555
H11_33 C17_33 1_555 1_555
H12_33 C18_33 1_555 1_555
N13_29 C5_32 1_555 1_555
C11_29 C16_29 1_555 1_555
C12_33 C17_33 1_555 1_555
C13_33 C18_33 1_555 1_555
Cu5_12 N7_34 1_555 1_555
Cu7_5 N8_34 1_555 1_555
N7_34 N8_34 1_555 1_555
N8_34 N15_34 1_555 1_555
N14_34 N7_34 1_555 1_555
N15_34 C6_43 1_555 1_555
C6_43 N14_34 1_555 1_555
C8_43 C6_43 1_555 1_555
C12_34 C8_43 1_555 1_555
C13_34 C8_43 1_555 1_555
H6_34 C12_34 1_555 1_555
H7_34 C13_34 1_555 1_555
C17_34 N18_5 1_555 1_555
C18_34 N18_5 1_555 1_555
H11_34 C17_34 1_555 1_555
H12_34 C18_34 1_555 1_555
C12_34 C17_34 1_555 1_555
C13_34 C18_34 1_555 1_555
Cu7_23 N16_33 1_555 1_555
N13_30 N10_4 1_555 1_555
N16_33 C15_30 1_555 1_555
C7_33 C5_33 1_555 1_555
C10_30 C7_33 1_555 1_555
H4_30 C10_30 1_555 1_555
C15_30 C10_30 1_555 1_555
H9_30 C15_30 1_555 1_555
N13_30 C5_33 1_555 1_555
Cu7_24 N16_34 1_555 1_555
Cu5_10 N7_35 1_555 1_555
Cu7_7 N8_35 1_555 1_555
N7_35 N8_35 1_555 1_555
N8_35 N15_35 1_555 1_555
N12_30 N9_4 1_555 1_555
N14_35 N7_35 1_555 1_555
N15_35 C6_44 1_555 1_555
C5_34 N12_30 1_555 1_555
C6_44 N14_35 1_555 1_555
C7_34 C5_34 1_555 1_555
C8_44 C6_44 1_555 1_555
C11_30 C7_34 1_555 1_555
C12_35 C8_44 1_555 1_555
C13_35 C8_44 1_555 1_555
H5_30 C11_30 1_555 1_555
H6_35 C12_35 1_555 1_555
H7_35 C13_35 1_555 1_555
C16_30 N16_34 1_555 1_555
C17_35 N18_4 1_555 1_555
C18_35 N18_4 1_555 1_555
H10_30 C16_30 1_555 1_555
H11_35 C17_35 1_555 1_555
H12_35 C18_35 1_555 1_555
C11_30 C16_30 1_555 1_555
C12_35 C17_35 1_555 1_555
C13_35 C18_35 1_555 1_555
Cu5_9 N7_36 1_555 1_555
Cu7_12 N8_36 1_555 1_555
N7_36 N8_36 1_555 1_555
N8_36 N15_36 1_555 1_555
N14_36 N7_36 1_555 1_555
N15_36 C6_45 1_555 1_555
C6_45 N14_36 1_555 1_555
C8_45 C6_45 1_555 1_555
C12_36 C8_45 1_555 1_555
C13_36 C8_45 1_555 1_555
H6_36 C12_36 1_555 1_555
H7_36 C13_36 1_555 1_555
C17_36 N18_9 1_555 1_555
C18_36 N18_9 1_555 1_555
H11_36 C17_36 1_555 1_555
H12_36 C18_36 1_555 1_555
C12_36 C17_36 1_555 1_555
C13_36 C18_36 1_555 1_555
Cu7_16 N16_35 1_555 1_555
N13_31 N10_8 1_555 1_555
N16_35 C15_31 1_555 1_555
C7_35 C5_35 1_555 1_555
C10_31 C7_35 1_555 1_555
H4_31 C10_31 1_555 1_555
C15_31 C10_31 1_555 1_555
H9_31 C15_31 1_555 1_555
N13_31 C5_35 1_555 1_555
Cu7_17 N16_36 1_555 1_555
Cu5_7 N7_37 1_555 1_555
Cu7_14 N8_37 1_555 1_555
N7_37 N8_37 1_555 1_555
N8_37 N15_37 1_555 1_555
N12_31 N9_8 1_555 1_555
N14_37 N7_37 1_555 1_555
N15_37 C6_46 1_555 1_555
C5_36 N12_31 1_555 1_555
C6_46 N14_37 1_555 1_555
C7_36 C5_36 1_555 1_555
C8_46 C6_46 1_555 1_555
C11_31 C7_36 1_555 1_555
C12_37 C8_46 1_555 1_555
C13_37 C8_46 1_555 1_555
H5_31 C11_31 1_555 1_555
H6_37 C12_37 1_555 1_555
H7_37 C13_37 1_555 1_555
C16_31 N16_36 1_555 1_555
C17_37 N18_8 1_555 1_555
C18_37 N18_8 1_555 1_555
H10_31 C16_31 1_555 1_555
H11_37 C17_37 1_555 1_555
H12_37 C18_37 1_555 1_555
C11_31 C16_31 1_555 1_555
C12_37 C17_37 1_555 1_555
C13_37 C18_37 1_555 1_555
Cu5_5 N7_38 1_555 1_555
Cu7_9 N8_38 1_555 1_555
N7_38 N8_38 1_555 1_555
N8_38 N15_38 1_555 1_555
N14_38 N7_38 1_555 1_555
N15_38 C6_47 1_555 1_555
C6_47 N14_38 1_555 1_555
C8_47 C6_47 1_555 1_555
C12_38 C8_47 1_555 1_555
C13_38 C8_47 1_555 1_555
H6_38 C12_38 1_555 1_555
H7_38 C13_38 1_555 1_555
C17_38 N18_6 1_555 1_555
C18_38 N18_6 1_555 1_555
H11_38 C17_38 1_555 1_555
H12_38 C18_38 1_555 1_555
C12_38 C17_38 1_555 1_555
C13_38 C18_38 1_555 1_555
Cu7_21 N16_37 1_555 1_555
N13_32 N10_7 1_555 1_555
N16_37 C15_32 1_555 1_555
C7_37 C5_37 1_555 1_555
C10_32 C7_37 1_555 1_555
H4_32 C10_32 1_555 1_555
C15_32 C10_32 1_555 1_555
H9_32 C15_32 1_555 1_555
N13_32 C5_37 1_555 1_555
Cu7_22 N16_38 1_555 1_555
Cu5_6 N7_39 1_555 1_555
Cu7_8 N8_39 1_555 1_555
N7_39 N8_39 1_555 1_555
N8_39 N15_39 1_555 1_555
N12_32 N9_7 1_555 1_555
N14_39 N7_39 1_555 1_555
N15_39 C6_48 1_555 1_555
C5_38 N12_32 1_555 1_555
C6_48 N14_39 1_555 1_555
C7_38 C5_38 1_555 1_555
C8_48 C6_48 1_555 1_555
C11_32 C7_38 1_555 1_555
C12_39 C8_48 1_555 1_555
C13_39 C8_48 1_555 1_555
H5_32 C11_32 1_555 1_555
H6_39 C12_39 1_555 1_555
H7_39 C13_39 1_555 1_555
C16_32 N16_38 1_555 1_555
C17_39 N18_7 1_555 1_555
C18_39 N18_7 1_555 1_555
H10_32 C16_32 1_555 1_555
H11_39 C17_39 1_555 1_555
H12_39 C18_39 1_555 1_555
C11_32 C16_32 1_555 1_555
C12_39 C17_39 1_555 1_555
C13_39 C18_39 1_555 1_555
Cu7_21 N7_40 1_555 1_555
Cu7 N8_40 1_555 1_555
N7_40 N8_40 1_555 1_555
N8_40 N15_40 1_555 1_555
N14_40 N7_40 1_555 1_555
N15_40 C6_49 1_555 1_555
C6_49 N14_40 1_555 1_555
C8_49 C6_49 1_555 1_555
C12_40 C8_49 1_555 1_555
C13_40 C8_49 1_555 1_555
H6_40 C12_40 1_555 1_555
H7_40 C13_40 1_555 1_555
C17_40 N19_16 1_555 1_555
C18_40 N19_16 1_555 1_555
H11_40 C17_40 1_555 1_555
H12_40 C18_40 1_555 1_555
C12_40 C17_40 1_555 1_555
C13_40 C18_40 1_555 1_555
Cu7_16 N7_41 1_555 1_555
Cu7_3 N8_41 1_555 1_555
N7_41 N8_41 1_555 1_555
N8_41 N15_41 1_555 1_555
N14_41 N7_41 1_555 1_555
N15_41 C6_50 1_555 1_555
C6_50 N14_41 1_555 1_555
C8_50 C6_50 1_555 1_555
C12_41 C8_50 1_555 1_555
C13_41 C8_50 1_555 1_555
H6_41 C12_41 1_555 1_555
H7_41 C13_41 1_555 1_555
C17_41 N18_13 1_555 1_555
C18_41 N18_13 1_555 1_555
H11_41 C17_41 1_555 1_555
H12_41 C18_41 1_555 1_555
C12_41 C17_41 1_555 1_555
C13_41 C18_41 1_555 1_555
Cu7_23 N7_42 1_555 1_555
Cu7_2 N8_42 1_555 1_555
N7_42 N8_42 1_555 1_555
N8_42 N15_42 1_555 1_555
N14_42 N7_42 1_555 1_555
N15_42 C6_51 1_555 1_555
C6_51 N14_42 1_555 1_555
C8_51 C6_51 1_555 1_555
C12_42 C8_51 1_555 1_555
C13_42 C8_51 1_555 1_555
H6_42 C12_42 1_555 1_555
H7_42 C13_42 1_555 1_555
C17_42 N19_18 1_555 1_555
C18_42 N19_18 1_555 1_555
H11_42 C17_42 1_555 1_555
H12_42 C18_42 1_555 1_555
C12_42 C17_42 1_555 1_555
C13_42 C18_42 1_555 1_555
Cu7_19 N8_43 1_555 1_555
N8_43 N15_43 1_555 1_555
N15_43 C6_52 1_555 1_555
C8_52 C6_52 1_555 1_555
C12_43 C8_52 1_555 1_555
H6_43 C12_43 1_555 1_555
C17_43 N19_19 1_555 1_555
H11_43 C17_43 1_555 1_555
C12_43 C17_43 1_555 1_555
Cu4_8 N7_43 1_555 1_555
N14_43 N7_43 1_555 1_555
C6_53 N14_43 1_555 1_555
C8_53 C6_53 1_555 1_555
C13_43 C8_53 1_555 1_555
H7_43 C13_43 1_555 1_555
C18_43 N19_20 1_555 1_555
H12_43 C18_43 1_555 1_555
C13_43 C18_43 1_555 1_555
Cu5_3 N7_44 1_555 1_555
Cu7_18 N8_44 1_555 1_555
N7_44 N8_44 1_555 1_555
N8_44 N15_44 1_555 1_555
N14_44 N7_44 1_555 1_555
N15_44 C6_54 1_555 1_555
C6_54 N14_44 1_555 1_555
C8_54 C6_54 1_555 1_555
C12_44 C8_54 1_555 1_555
C13_44 C8_54 1_555 1_555
H6_44 C12_44 1_555 1_555
H7_44 C13_44 1_555 1_555
C17_44 N19_7 1_555 1_555
C18_44 N19_7 1_555 1_555
H11_44 C17_44 1_555 1_555
H12_44 C18_44 1_555 1_555
C12_44 C17_44 1_555 1_555
C13_44 C18_44 1_555 1_555
Cu5_13 N7_45 1_555 1_555
Cu5_2 N8_45 1_555 1_555
N7_45 N8_45 1_555 1_555
N8_45 N15_45 1_555 1_555
N14_45 N7_45 1_555 1_555
N15_45 C6_55 1_555 1_555
C6_55 N14_45 1_555 1_555
C8_55 C6_55 1_555 1_555
C12_45 C8_55 1_555 1_555
C13_45 C8_55 1_555 1_555
H6_45 C12_45 1_555 1_555
H7_45 C13_45 1_555 1_555
C17_45 N19_10 1_555 1_555
C18_45 N19_10 1_555 1_555
H11_45 C17_45 1_555 1_555
H12_45 C18_45 1_555 1_555
C12_45 C17_45 1_555 1_555
C13_45 C18_45 1_555 1_555
Cu7_20 N7_46 1_555 1_555
N14_46 N7_46 1_555 1_555
C6_56 N14_46 1_555 1_555
C8_56 C6_56 1_555 1_555
C13_46 C8_56 1_555 1_555
H7_46 C13_46 1_555 1_555
C18_46 N19_21 1_555 1_555
H12_46 C18_46 1_555 1_555
C13_46 C18_46 1_555 1_555
Cu4_12 N8_46 1_555 1_555
N8_46 N15_46 1_555 1_555
N15_46 C6_57 1_555 1_555
C8_57 C6_57 1_555 1_555
C12_46 C8_57 1_555 1_555
H6_46 C12_46 1_555 1_555
C17_46 N19_22 1_555 1_555
H11_46 C17_46 1_555 1_555
C12_46 C17_46 1_555 1_555
Cu5 N7_47 1_555 1_555
Cu4_13 N8_47 1_555 1_555
N7_47 N8_47 1_555 1_555
N8_47 N15_47 1_555 1_555
N14_47 N7_47 1_555 1_555
N15_47 C6_58 1_555 1_555
C6_58 N14_47 1_555 1_555
C8_58 C6_58 1_555 1_555
C12_47 C8_58 1_555 1_555
C13_47 C8_58 1_555 1_555
H6_47 C12_47 1_555 1_555
H7_47 C13_47 1_555 1_555
C17_47 N19_11 1_555 1_555
C18_47 N19_11 1_555 1_555
H11_47 C17_47 1_555 1_555
H12_47 C18_47 1_555 1_555
C12_47 C17_47 1_555 1_555
C13_47 C18_47 1_555 1_555
Cu6_10 N7_48 1_555 1_555
N14_48 N7_48 1_555 1_555
C6_59 N14_48 1_555 1_555
C8_59 C6_59 1_555 1_555
C13_48 C8_59 1_555 1_555
H7_48 C13_48 1_555 1_555
C18_48 N19_13 1_555 1_555
H12_48 C18_48 1_555 1_555
C13_48 C18_48 1_555 1_555
Cu4_9 N8_48 1_555 1_555
N8_48 N15_48 1_555 1_555
N15_48 C6_60 1_555 1_555
C8_60 C6_60 1_555 1_555
C12_48 C8_60 1_555 1_555
H6_48 C12_48 1_555 1_555
C17_48 N19_14 1_555 1_555
H11_48 C17_48 1_555 1_555
C12_48 C17_48 1_555 1_555
Cu5_8 O1_32 1_555 1_555
Cu7_12 O1_33 1_555 1_555
Cu5_9 O1_33 1_555 1_555
O1_34 Cu6_8 1_555 1_555
Cu7_13 O1_35 1_555 1_555
Cu5_4 O1_36 1_555 1_555
O1_37 Cu6_7 1_555 1_555
Cu7_9 O1_38 1_555 1_555
Cu5_5 O1_38 1_555 1_555
Cu7_10 O1_39 1_555 1_555
Cu5_11 O1_40 1_555 1_555
O1_41 Cu6_4 1_555 1_555
Cu7_5 O1_42 1_555 1_555
Cu5_12 O1_42 1_555 1_555
Cu7_6 O1_43 1_555 1_555
Cu4_5 O1_44 1_555 1_555
O1_44 Cu7_19 1_555 1_555
Cu4_6 O1_45 1_555 1_555
Cu4_8 O1_45 1_555 1_555
Cu7_18 O1_46 1_555 1_555
O1_46 Cu5_3 1_555 1_555
Cu7_4 O1_46 1_555 1_555
Cu5_13 O1_47 1_555 1_555
O1_47 Cu5_2 1_555 1_555
Cu7_11 O1_47 1_555 1_555
Cu4_3 O1_48 1_555 1_555
O1_48 Cu6_10 1_555 1_555
Cu4_4 O1_49 1_555 1_555
Cu4_9 O1_49 1_555 1_555
Cu4 O1_50 1_555 1_555
O1_50 Cu7_20 1_555 1_555
Cu4_2 O1_51 1_555 1_555
Cu4_12 O1_51 1_555 1_555
Cu4_13 O1_52 1_555 1_555
O1_52 Cu5 1_555 1_555
Cu7_15 O1_52 1_555 1_555
O1_53 Cu7 1_555 1_555
Cu7_21 O1_53 1_555 1_555
Cu6 O1_54 1_555 1_555
Cu7_22 O1_54 1_555 1_555
Cu4_10 O1_55 1_555 1_555
O1_55 Cu4_7 1_555 1_555
Cu4_11 O1_55 1_555 1_555
Cu6_6 O1_56 1_555 1_555
O1_56 Cu5_6 1_555 1_555
Cu7_8 O1_56 1_555 1_555
Cu6_9 O1_57 1_555 1_555
O1_57 Cu7_14 1_555 1_555
Cu5_7 O1_57 1_555 1_555
Cu6_5 O1_58 1_555 1_555
O1_58 Cu5_10 1_555 1_555
Cu7_7 O1_58 1_555 1_555
O1_59 Cu7_2 1_555 1_555
Cu7_23 O1_59 1_555 1_555
Cu6_2 O1_60 1_555 1_555
Cu7_24 O1_60 1_555 1_555
O1_61 Cu7_3 1_555 1_555
Cu7_16 O1_61 1_555 1_555
Cu6_3 O1_62 1_555 1_555
Cu7_17 O1_62 1_555 1_555

#END
