
###############################################################################
#
# This file contains modified crystal structure data generated from the
# MOF subset of the Cambridge Structural Database (CSD) v543 
# hosted by the Cambridge Crystallographic Data Centre (CCDC).
#
# This work is licensed under the Creative Commons
# Attribution-NonCommercial-ShareAlike 4.0 International License.
# To view a copy of this license, visit
# http://creativecommons.org/licenses/by-nc-sa/4.0/
# or send a letter to
# Creative Commons, PO Box 1866, Mountain View, CA 94042, USA.
#
# CIF created using the CSD Python API on 29 September 2022
# The structure has been converted into the P1 space group
# The structure has a 3D framework
# The original CSD entry FUQVOF is in the tetragonal crystal system
# The framework has been calculated to contain at least 10.0% void space
# The void calculation uses a probe of radius 1.32A, grid spacing 0.4
#
###############################################################################

data_FUQVOF
_chemical_formula_moiety         '(C272 H208 Cu16 N48 O64)n'
_symmetry_cell_setting           triclinic
_symmetry_space_group_name_H-M   'P 1'
_symmetry_Int_Tables_number      1
_space_group_name_Hall           'P 1'
loop_
_symmetry_equiv_pos_site_id
_symmetry_equiv_pos_as_xyz
1 x,y,z
_cell_length_a                   22.9424(8)
_cell_length_b                   22.9424(8)
_cell_length_c                   14.7967(6)
_cell_angle_alpha                90
_cell_angle_beta                 90
_cell_angle_gamma                90
_cell_volume                     7788.3
loop_
_atom_site_label
_atom_site_type_symbol
_atom_site_fract_x
_atom_site_fract_y
_atom_site_fract_z
Cu1 Cu 0.10622(2) 0.66051(2) 0.33366(2)
O2 O 0.31359(6) 0.63942(7) 0.14688(10)
O3 O 0.02376(6) 0.65371(7) 0.33678(9)
O4 O 0.18709(6) 0.68306(7) 0.33744(9)
N1 N 0.16322(7) 0.62605(7) 0.16771(11)
N2 N 0.11400(7) 0.63474(7) 0.20890(11)
N3 N 0.28185(8) 0.69044(8) 0.29806(12)
C1 C 0.06608(9) 0.61546(9) 0.15439(13)
C2 C 0.30480(9) 0.71897(9) 0.37545(14)
C3 C 0.21587(9) 0.64126(9) 0.19691(14)
C4 C 0.26230(9) 0.62471(9) 0.13456(14)
C5 C 0.00765(9) 0.62081(9) 0.18311(14)
C6 C 0.07667(10) 0.59094(11) 0.06899(15)
H1 H 0.1149 0.5872 0.0490
C9 C 0.29886(11) 0.76513(10) 0.52092(16)
H3 H 0.2767 0.7784 0.5694
C10 C 0.22701(9) 0.67290(9) 0.28160(14)
C11 C 0.27143(10) 0.73911(10) 0.44777(15)
H4 H 0.2311 0.7351 0.4470
C12 C 0.36516(9) 0.72643(10) 0.37695(16)
H5 H 0.3876 0.7139 0.3283
C13 C 0.03208(10) 0.57241(12) 0.01429(16)
C14 C 0.35874(11) 0.77163(11) 0.52275(17)
H7 H 0.3768 0.7888 0.5723
C16 C 0.39169(10) 0.75238(10) 0.45045(17)
H9 H 0.4320 0.7569 0.4513
C17 C 0.24744(10) 0.58812(11) 0.05366(16)
H10 H 0.2263 0.6113 0.0107
H11 H 0.2238 0.5557 0.0722
H12 H 0.2827 0.5740 0.0263
H13 H 0.3041(10) 0.6804(9) 0.2565(16)
Cu2 Cu 0.41051(2) 0.64378(2) 0.08366(2)
O5 O 0.10566(6) 0.68394(6) 0.46219(9)
O6 O 0.11058(7) 0.56359(6) 0.39688(10)
O1 O 0.93394(6) 0.64434(6) 0.28781(9)
C7 C 0.98812(9) 0.64195(8) 0.27415(13)
C8 C 0.96319(9) 0.60205(10) 0.12479(15)
H2 H 0.9246 0.6059 0.1432
C15 C 0.97470(10) 0.57828(12) 0.04158(16)
H8 H 0.9444 0.5663 0.0041
Cu3 Cu 0.91051(2) 0.64378(2) 0.41634(2)
Cu1_2 Cu 0.39378(2) 0.33949(2) 0.83366(2)
O1_2 O 0.56606(6) 0.35566(6) 0.78781(9)
O2_2 O 0.18641(6) 0.36058(7) 0.64688(10)
O3_2 O 0.47624(6) 0.34629(7) 0.83678(9)
O4_2 O 0.31291(6) 0.31694(7) 0.83744(9)
N1_2 N 0.33678(7) 0.37395(7) 0.66771(11)
N2_2 N 0.38600(7) 0.36526(7) 0.70890(11)
N3_2 N 0.21815(8) 0.30956(8) 0.79806(12)
C1_2 C 0.43392(9) 0.38454(9) 0.65439(13)
C2_2 C 0.19520(9) 0.28103(9) 0.87545(14)
C3_2 C 0.28413(9) 0.35874(9) 0.69691(14)
C4_2 C 0.23770(9) 0.37529(9) 0.63456(14)
C5_2 C 0.49235(9) 0.37919(9) 0.68311(14)
C6_2 C 0.42333(10) 0.40906(11) 0.56899(15)
H1_2 H 0.3851 0.4128 0.5490
C7_2 C 0.51188(9) 0.35805(8) 0.77415(13)
C8_2 C 0.53681(9) 0.39795(10) 0.62479(15)
H2_2 H 0.5754 0.3941 0.6432
C10_2 C 0.27299(9) 0.32710(9) 0.78160(14)
C11_2 C 0.22857(10) 0.26089(10) 0.94777(15)
H4_2 H 0.2689 0.2649 0.9470
C12_2 C 0.13484(9) 0.27357(10) 0.87695(16)
H5_2 H 0.1124 0.2861 0.8283
C13_2 C 0.46792(10) 0.42759(12) 0.51429(16)
H6 H 0.4595 0.4442 0.4585
C15_2 C 0.52530(10) 0.42172(12) 0.54158(16)
H8_2 H 0.5556 0.4337 0.5041
C16_2 C 0.10831(10) 0.24762(10) 0.95045(17)
H9_2 H 0.0680 0.2431 0.9513
C17_2 C 0.25256(10) 0.41188(11) 0.55366(16)
H10_2 H 0.2737 0.3887 0.5107
H11_2 H 0.2762 0.4443 0.5722
H12_2 H 0.2173 0.4260 0.5263
H13_2 H 0.1959(10) 0.3196(9) 0.7565(16)
Cu2_2 Cu 0.08949(2) 0.35622(2) 0.58366(2)
Cu3_2 Cu 0.58949(2) 0.35622(2) 0.91634(2)
O5_2 O 0.39434(6) 0.31606(6) 0.96219(9)
O6_2 O 0.38942(7) 0.43641(6) 0.89688(10)
O1_3 O 0.10566(6) 0.18394(6) 0.53781(9)
O3_3 O 0.09629(7) 0.27376(6) 0.58678(9)
O4_3 O 0.06694(7) 0.43709(6) 0.58744(9)
N1_3 N 0.12395(7) 0.41322(7) 0.41771(11)
N2_3 N 0.11526(7) 0.36400(7) 0.45890(11)
N3_3 N 0.05956(8) 0.53185(8) 0.54806(12)
C1_3 C 0.13454(9) 0.31608(9) 0.40439(13)
C2_3 C 0.03103(9) 0.55480(9) 0.62545(14)
C3_3 C 0.10874(9) 0.46587(9) 0.44691(14)
C4_3 C 0.12529(9) 0.51230(9) 0.38456(14)
C5_3 C 0.12919(9) 0.25765(9) 0.43311(14)
C6_3 C 0.15906(11) 0.32667(10) 0.31899(15)
H1_3 H 0.1628 0.3649 0.2990
C7_3 C 0.10805(8) 0.23812(9) 0.52415(13)
C8_3 C 0.14795(10) 0.21319(9) 0.37479(15)
H2_3 H 0.1441 0.1746 0.3932
C10_3 C 0.07710(9) 0.47701(9) 0.53160(14)
C11_3 C 0.01089(10) 0.52143(10) 0.69777(15)
H4_3 H 0.0149 0.4811 0.6970
C12_3 C 0.02357(10) 0.61516(9) 0.62695(16)
H5_3 H 0.0361 0.6376 0.5783
C13_3 C 0.17759(12) 0.28208(10) 0.26429(16)
H6_2 H 0.1942 0.2905 0.2085
C15_3 C 0.17172(12) 0.22470(10) 0.29158(16)
H8_3 H 0.1837 0.1944 0.2541
C17_3 C 0.16188(11) 0.49744(10) 0.30366(16)
H10_3 H 0.1387 0.4763 0.2607
H11_3 H 0.1943 0.4738 0.3222
H12_3 H 0.1760 0.5327 0.2763
H13_3 H 0.0696(9) 0.5541(10) 0.5065(16)
Cu3_3 Cu 0.10622(2) 0.16051(2) 0.66634(2)
O5_3 O 0.06606(6) 0.35566(6) 0.71219(9)
O1_4 O 0.39434(6) 0.81606(6) 0.03781(9)
O3_4 O 0.40371(7) 0.72624(6) 0.08678(9)
O4_4 O 0.43306(7) 0.56291(6) 0.08744(9)
N3_4 N 0.44044(8) 0.46815(8) 0.04806(12)
C2_4 C 0.46897(9) 0.44520(9) 0.12545(14)
C7_4 C 0.39195(8) 0.76188(9) 0.02415(13)
C9_2 C 0.51513(10) 0.45114(11) 0.27092(16)
H3_2 H 0.5284 0.4733 0.3194
C10_4 C 0.42290(9) 0.52299(9) 0.03160(14)
C11_4 C 0.48911(10) 0.47857(10) 0.19777(15)
H4_4 H 0.4851 0.5189 0.1970
C12_4 C 0.47643(10) 0.38484(9) 0.12695(16)
H5_4 H 0.4639 0.3624 0.0783
C14_2 C 0.52163(11) 0.39126(11) 0.27275(17)
H7_2 H 0.5388 0.3732 0.3223
C16_3 C 0.50238(10) 0.35831(10) 0.20045(17)
H9_3 H 0.5069 0.3180 0.2013
H13_4 H 0.4304(9) 0.4459(10) 0.0065(16)
Cu3_4 Cu 0.39378(2) 0.83949(2) 0.16634(2)
O5_4 O 0.43394(6) 0.64434(6) 0.21219(9)
N1_4 N 0.37605(7) 0.58678(7) 0.91771(11)
N2_4 N 0.38474(7) 0.63600(7) 0.95890(11)
C1_4 C 0.36546(9) 0.68392(9) 0.90439(13)
C3_4 C 0.39126(9) 0.53413(9) 0.94691(14)
C4_4 C 0.37471(9) 0.48770(9) 0.88456(14)
C5_4 C 0.37081(9) 0.74235(9) 0.93311(14)
C6_4 C 0.34094(11) 0.67333(10) 0.81899(15)
H1_4 H 0.3372 0.6351 0.7990
C8_4 C 0.35205(10) 0.78681(9) 0.87479(15)
H2_4 H 0.3559 0.8254 0.8932
C13_4 C 0.32241(12) 0.71792(10) 0.76429(16)
H6_3 H 0.3058 0.7095 0.7085
C15_4 C 0.32828(12) 0.77530(10) 0.79158(16)
H8_4 H 0.3163 0.8056 0.7541
C17_4 C 0.33812(11) 0.50256(10) 0.80366(16)
H10_4 H 0.3613 0.5237 0.7607
H11_4 H 0.3057 0.5262 0.8222
H12_4 H 0.3240 0.4673 0.7763
Cu1_3 Cu 0.60622(2) 0.16051(2) 0.83366(2)
O1_5 O 0.43394(6) 0.14434(6) 0.78781(9)
O2_3 O 0.81359(6) 0.13942(7) 0.64688(10)
O3_5 O 0.52376(6) 0.15371(7) 0.83678(9)
O4_5 O 0.68709(6) 0.18306(7) 0.83744(9)
N1_5 N 0.66322(7) 0.12605(7) 0.66771(11)
N2_5 N 0.61400(7) 0.13474(7) 0.70890(11)
N3_5 N 0.78185(8) 0.19044(8) 0.79806(12)
C1_5 C 0.56608(9) 0.11546(9) 0.65439(13)
C2_5 C 0.80480(9) 0.21897(9) 0.87545(14)
C3_5 C 0.71587(9) 0.14126(9) 0.69691(14)
C4_5 C 0.76230(9) 0.12471(9) 0.63456(14)
C5_5 C 0.50765(9) 0.12081(9) 0.68311(14)
C6_5 C 0.57667(10) 0.09094(11) 0.56899(15)
H1_5 H 0.6149 0.0872 0.5490
C7_5 C 0.48812(9) 0.14195(8) 0.77415(13)
C8_5 C 0.46319(9) 0.10205(10) 0.62479(15)
H2_5 H 0.4246 0.1059 0.6432
C10_5 C 0.72701(9) 0.17290(9) 0.78160(14)
C11_5 C 0.77143(10) 0.23911(10) 0.94777(15)
H4_5 H 0.7311 0.2351 0.9470
C12_5 C 0.86516(9) 0.22643(10) 0.87695(16)
H5_5 H 0.8876 0.2139 0.8283
C13_5 C 0.53208(10) 0.07241(12) 0.51429(16)
H6_4 H 0.5405 0.0558 0.4585
C15_5 C 0.47470(10) 0.07828(12) 0.54158(16)
H8_5 H 0.4444 0.0663 0.5041
C16_4 C 0.89169(10) 0.25238(10) 0.95045(17)
H9_4 H 0.9320 0.2569 0.9513
C17_5 C 0.74744(10) 0.08812(11) 0.55366(16)
H10_5 H 0.7263 0.1113 0.5107
H11_5 H 0.7238 0.0557 0.5722
H12_5 H 0.7827 0.0740 0.5263
H13_5 H 0.8041(10) 0.1804(9) 0.7565(16)
Cu2_3 Cu 0.91051(2) 0.14378(2) 0.58366(2)
Cu3_5 Cu 0.41051(2) 0.14378(2) 0.91634(2)
O5_5 O 0.60566(6) 0.18394(6) 0.96219(9)
O6_3 O 0.61058(7) 0.06359(6) 0.89688(10)
O1_6 O 0.06606(6) 0.85566(6) 0.28781(9)
C7_6 C 0.01188(9) 0.85805(8) 0.27415(13)
C8_6 C 0.03681(9) 0.89795(10) 0.12479(15)
H2_6 H 0.0754 0.8941 0.1432
C15_6 C 0.02530(10) 0.92172(12) 0.04158(16)
H8_6 H 0.0556 0.9337 0.0041
Cu3_6 Cu 0.08949(2) 0.85622(2) 0.41634(2)
Cu1_4 Cu 0.89378(2) 0.83949(2) 0.33366(2)
O2_4 O 0.68641(6) 0.86058(7) 0.14688(10)
O3_6 O 0.97624(6) 0.84629(7) 0.33678(9)
O4_6 O 0.81291(6) 0.81694(7) 0.33744(9)
N1_6 N 0.83678(7) 0.87395(7) 0.16771(11)
N2_6 N 0.88600(7) 0.86526(7) 0.20890(11)
N3_6 N 0.71815(8) 0.80956(8) 0.29806(12)
C1_6 C 0.93392(9) 0.88454(9) 0.15439(13)
C2_6 C 0.69520(9) 0.78103(9) 0.37545(14)
C3_6 C 0.78413(9) 0.85874(9) 0.19691(14)
C4_6 C 0.73770(9) 0.87529(9) 0.13456(14)
C5_6 C 0.99235(9) 0.87919(9) 0.18311(14)
C6_6 C 0.92333(10) 0.90906(11) 0.06899(15)
H1_6 H 0.8851 0.9128 0.0490
C9_3 C 0.70114(11) 0.73487(10) 0.52092(16)
H3_3 H 0.7233 0.7216 0.5694
C10_6 C 0.77299(9) 0.82710(9) 0.28160(14)
C11_6 C 0.72857(10) 0.76089(10) 0.44777(15)
H4_6 H 0.7689 0.7649 0.4470
C12_6 C 0.63484(9) 0.77357(10) 0.37695(16)
H5_6 H 0.6124 0.7861 0.3283
C13_6 C 0.96792(10) 0.92759(12) 0.01429(16)
C14_3 C 0.64126(11) 0.72837(11) 0.52275(17)
H7_3 H 0.6232 0.7112 0.5723
C16_5 C 0.60831(10) 0.74762(10) 0.45045(17)
H9_5 H 0.5680 0.7431 0.4513
C17_6 C 0.75256(10) 0.91188(11) 0.05366(16)
H10_6 H 0.7737 0.8887 0.0107
H11_6 H 0.7762 0.9443 0.0722
H12_6 H 0.7173 0.9260 0.0263
H13_6 H 0.6959(10) 0.8196(9) 0.2565(16)
Cu2_4 Cu 0.58949(2) 0.85622(2) 0.08366(2)
O5_6 O 0.89434(6) 0.81606(6) 0.46219(9)
O6_4 O 0.88942(7) 0.93641(6) 0.39688(10)
C4_7 C 0.62529(9) 0.01230(9) 0.88456(14)
H12_7 H 0.6760 0.0327 0.7763
O1_7 O 0.60566(6) 0.68394(6) 0.03781(9)
O3_7 O 0.59629(7) 0.77376(6) 0.08678(9)
O4_7 O 0.56694(7) 0.93709(6) 0.08744(9)
C7_7 C 0.60805(8) 0.73812(9) 0.02415(13)
C10_7 C 0.57710(9) 0.97701(9) 0.03160(14)
H4_7 H 0.5149 0.9811 0.1970
Cu3_7 Cu 0.60622(2) 0.66051(2) 0.16634(2)
O5_7 O 0.56606(6) 0.85566(6) 0.21219(9)
O1_8 O 0.89434(6) 0.31606(6) 0.53781(9)
O3_8 O 0.90371(7) 0.22624(6) 0.58678(9)
O4_8 O 0.93306(7) 0.06291(6) 0.58744(9)
N1_7 N 0.87605(7) 0.08678(7) 0.41771(11)
N2_7 N 0.88474(7) 0.13600(7) 0.45890(11)
C1_7 C 0.86546(9) 0.18392(9) 0.40439(13)
C3_7 C 0.89126(9) 0.03413(9) 0.44691(14)
C5_7 C 0.87081(9) 0.24235(9) 0.43311(14)
C6_7 C 0.84094(11) 0.17333(10) 0.31899(15)
H1_7 H 0.8372 0.1351 0.2990
C7_8 C 0.89195(8) 0.26188(9) 0.52415(13)
C8_7 C 0.85205(10) 0.28681(9) 0.37479(15)
H2_7 H 0.8559 0.3254 0.3932
C10_8 C 0.92290(9) 0.02299(9) 0.53160(14)
H4_8 H 0.9851 0.0189 0.6970
C13_7 C 0.82241(12) 0.21792(10) 0.26429(16)
H6_5 H 0.8058 0.2095 0.2085
C15_7 C 0.82828(12) 0.27530(10) 0.29158(16)
H8_7 H 0.8163 0.3056 0.2541
C17_7 C 0.83812(11) 0.00256(10) 0.30366(16)
H10_7 H 0.8613 0.0237 0.2607
H11_7 H 0.8057 0.0262 0.3222
Cu3_8 Cu 0.89378(2) 0.33949(2) 0.66634(2)
O5_8 O 0.93394(6) 0.14434(6) 0.71219(9)
N3_7 N 0.94044(8) 0.96815(8) 0.54806(12)
C2_7 C 0.96897(9) 0.94520(9) 0.62545(14)
C4_8 C 0.87471(9) 0.98770(9) 0.38456(14)
C11_7 C 0.98911(10) 0.97857(10) 0.69777(15)
C12_7 C 0.97643(10) 0.88484(9) 0.62695(16)
H5_7 H 0.9639 0.8624 0.5783
H12_8 H 0.8240 0.9673 0.2763
H13_7 H 0.9304(9) 0.9459(10) 0.5065(16)
C7_9 C 0.01188(9) 0.35805(8) 0.72585(13)
C8_8 C 0.03681(9) 0.39795(10) 0.87521(15)
H2_8 H 0.0754 0.3941 0.8568
C15_8 C 0.02530(10) 0.42172(12) 0.95842(16)
H8_8 H 0.0556 0.4337 0.9959
O2_5 O 0.68641(6) 0.36058(7) 0.85312(10)
O3_9 O 0.97624(6) 0.34629(7) 0.66322(9)
O4_9 O 0.81291(6) 0.31694(7) 0.66256(9)
N1_8 N 0.83678(7) 0.37395(7) 0.83229(11)
N2_8 N 0.88600(7) 0.36526(7) 0.79110(11)
N3_8 N 0.71815(8) 0.30956(8) 0.70194(12)
C1_8 C 0.93392(9) 0.38454(9) 0.84561(13)
C2_8 C 0.69520(9) 0.28103(9) 0.62455(14)
C3_8 C 0.78413(9) 0.35874(9) 0.80309(14)
C4_9 C 0.73770(9) 0.37529(9) 0.86544(14)
C5_8 C 0.99235(9) 0.37919(9) 0.81689(14)
C6_8 C 0.92333(10) 0.40906(11) 0.93101(15)
H1_8 H 0.8851 0.4128 0.9510
C9_4 C 0.70114(11) 0.23487(10) 0.47908(16)
H3_4 H 0.7233 0.2216 0.4306
C10_9 C 0.77299(9) 0.32710(9) 0.71840(14)
C11_8 C 0.72857(10) 0.26089(10) 0.55223(15)
H4_9 H 0.7689 0.2649 0.5530
C12_8 C 0.63484(9) 0.27357(10) 0.62305(16)
H5_8 H 0.6124 0.2861 0.6717
C13_8 C 0.96792(10) 0.42759(12) 0.98571(16)
C14_4 C 0.64126(11) 0.22837(11) 0.47725(17)
H7_4 H 0.6232 0.2112 0.4277
C16_6 C 0.60831(10) 0.24762(10) 0.54955(17)
H9_6 H 0.5680 0.2431 0.5487
C17_8 C 0.75256(10) 0.41188(11) 0.94634(16)
H10_8 H 0.7737 0.3887 0.9893
H11_8 H 0.7762 0.4443 0.9278
H12_9 H 0.7173 0.4260 0.9737
H13_8 H 0.6959(10) 0.3196(9) 0.7435(16)
O6_5 O 0.88942(7) 0.43641(6) 0.60312(10)
O2_6 O 0.81359(6) 0.63942(7) 0.35312(10)
O3_10 O 0.52376(6) 0.65371(7) 0.16322(9)
O4_10 O 0.68709(6) 0.68306(7) 0.16256(9)
N1_9 N 0.66322(7) 0.62605(7) 0.33229(11)
N2_9 N 0.61400(7) 0.63474(7) 0.29110(11)
N3_9 N 0.78185(8) 0.69044(8) 0.20194(12)
C1_9 C 0.56608(9) 0.61546(9) 0.34561(13)
C2_9 C 0.80480(9) 0.71897(9) 0.12455(14)
C3_9 C 0.71587(9) 0.64126(9) 0.30309(14)
C4_10 C 0.76230(9) 0.62471(9) 0.36544(14)
C5_9 C 0.50765(9) 0.62081(9) 0.31689(14)
C6_9 C 0.57667(10) 0.59094(11) 0.43101(15)
H1_9 H 0.6149 0.5872 0.4510
C7_10 C 0.48812(9) 0.64195(8) 0.22585(13)
C8_9 C 0.46319(9) 0.60205(10) 0.37521(15)
H2_9 H 0.4246 0.6059 0.3568
C10_10 C 0.72701(9) 0.67290(9) 0.21840(14)
C11_9 C 0.77143(10) 0.73911(10) 0.05223(15)
H4_10 H 0.7311 0.7351 0.0530
C12_9 C 0.86516(9) 0.72643(10) 0.12305(16)
H5_9 H 0.8876 0.7139 0.1717
C13_9 C 0.53208(10) 0.57241(12) 0.48571(16)
H6_6 H 0.5405 0.5558 0.5415
C15_9 C 0.47470(10) 0.57828(12) 0.45842(16)
H8_9 H 0.4444 0.5663 0.4959
C16_7 C 0.89169(10) 0.75238(10) 0.04955(17)
H9_7 H 0.9320 0.7569 0.0487
C17_9 C 0.74744(10) 0.58812(11) 0.44634(16)
H10_9 H 0.7263 0.6113 0.4893
H11_9 H 0.7238 0.5557 0.4278
H12_10 H 0.7827 0.5740 0.4737
H13_9 H 0.8041(10) 0.6804(9) 0.2435(16)
O6_6 O 0.61058(7) 0.56359(6) 0.10312(10)
O3_11 O 0.90371(7) 0.72624(6) 0.41322(9)
O4_11 O 0.93306(7) 0.56291(6) 0.41256(9)
N1_10 N 0.87605(7) 0.58678(7) 0.58229(11)
N2_10 N 0.88474(7) 0.63600(7) 0.54110(11)
N3_10 N 0.94044(8) 0.46815(8) 0.45194(12)
C1_10 C 0.86546(9) 0.68392(9) 0.59561(13)
C2_10 C 0.96897(9) 0.44520(9) 0.37455(14)
C3_10 C 0.89126(9) 0.53413(9) 0.55309(14)
C4_11 C 0.87471(9) 0.48770(9) 0.61544(14)
C5_10 C 0.87081(9) 0.74235(9) 0.56689(14)
C6_10 C 0.84094(11) 0.67333(10) 0.68101(15)
H1_10 H 0.8372 0.6351 0.7010
C7_11 C 0.89195(8) 0.76188(9) 0.47585(13)
C8_10 C 0.85205(10) 0.78681(9) 0.62521(15)
H2_10 H 0.8559 0.8254 0.6068
C10_11 C 0.92290(9) 0.52299(9) 0.46840(14)
C11_10 C 0.98911(10) 0.47857(10) 0.30223(15)
H4_11 H 0.9851 0.5189 0.3030
C12_10 C 0.97643(10) 0.38484(9) 0.37305(16)
H5_10 H 0.9639 0.3624 0.4217
C13_10 C 0.82241(12) 0.71792(10) 0.73571(16)
H6_7 H 0.8058 0.7095 0.7915
C15_10 C 0.82828(12) 0.77530(10) 0.70842(16)
H8_10 H 0.8163 0.8056 0.7459
C17_10 C 0.83812(11) 0.50256(10) 0.69634(16)
H10_10 H 0.8613 0.5237 0.7393
H11_10 H 0.8057 0.5262 0.6778
H12_11 H 0.8240 0.4673 0.7237
H13_10 H 0.9304(9) 0.4459(10) 0.4935(16)
N1_11 N 0.62395(7) 0.41322(7) 0.08229(11)
N2_11 N 0.61526(7) 0.36400(7) 0.04110(11)
C1_11 C 0.63454(9) 0.31608(9) 0.09561(13)
C3_11 C 0.60874(9) 0.46587(9) 0.05309(14)
C4_12 C 0.62529(9) 0.51230(9) 0.11544(14)
C5_11 C 0.62919(9) 0.25765(9) 0.06689(14)
C6_11 C 0.65906(11) 0.32667(10) 0.18101(15)
H1_11 H 0.6628 0.3649 0.2010
C8_11 C 0.64795(10) 0.21319(9) 0.12521(15)
H2_11 H 0.6441 0.1746 0.1068
C13_11 C 0.67759(12) 0.28208(10) 0.23571(16)
H6_8 H 0.6942 0.2905 0.2915
C15_11 C 0.67172(12) 0.22470(10) 0.20842(16)
H8_11 H 0.6837 0.1944 0.2459
C17_11 C 0.66188(11) 0.49744(10) 0.19634(16)
H10_11 H 0.6387 0.4763 0.2393
H11_11 H 0.6943 0.4738 0.1778
H12_12 H 0.6760 0.5327 0.2237
O3_12 O 0.59629(7) 0.27376(6) 0.91322(9)
O4_12 O 0.56694(7) 0.43709(6) 0.91256(9)
N3_11 N 0.55956(8) 0.53185(8) 0.95194(12)
C2_11 C 0.53103(9) 0.55480(9) 0.87455(14)
C7_12 C 0.60805(8) 0.23812(9) 0.97585(13)
C9_5 C 0.48487(10) 0.54886(11) 0.72908(16)
H3_5 H 0.4716 0.5267 0.6806
C10_12 C 0.57710(9) 0.47701(9) 0.96840(14)
C11_11 C 0.51089(10) 0.52143(10) 0.80223(15)
H4_12 H 0.5149 0.4811 0.8030
C12_11 C 0.52357(10) 0.61516(9) 0.87305(16)
H5_11 H 0.5361 0.6376 0.9217
C14_5 C 0.47837(11) 0.60874(11) 0.72725(17)
H7_5 H 0.4612 0.6268 0.6777
C16_8 C 0.49762(10) 0.64169(10) 0.79955(17)
H9_8 H 0.4931 0.6820 0.7987
H13_11 H 0.5696(9) 0.5541(10) 0.9935(16)
O2_7 O 0.18641(6) 0.86058(7) 0.35312(10)
O3_13 O 0.47624(6) 0.84629(7) 0.16322(9)
O4_13 O 0.31291(6) 0.81694(7) 0.16256(9)
N1_12 N 0.33678(7) 0.87395(7) 0.33229(11)
N2_12 N 0.38600(7) 0.86526(7) 0.29110(11)
N3_12 N 0.21815(8) 0.80956(8) 0.20194(12)
C1_12 C 0.43392(9) 0.88454(9) 0.34561(13)
C2_12 C 0.19520(9) 0.78103(9) 0.12455(14)
C3_12 C 0.28413(9) 0.85874(9) 0.30309(14)
C4_13 C 0.23770(9) 0.87529(9) 0.36544(14)
C5_12 C 0.49235(9) 0.87919(9) 0.31689(14)
C6_12 C 0.42333(10) 0.90906(11) 0.43101(15)
H1_12 H 0.3851 0.9128 0.4510
C7_13 C 0.51188(9) 0.85805(8) 0.22585(13)
C8_12 C 0.53681(9) 0.89795(10) 0.37521(15)
H2_12 H 0.5754 0.8941 0.3568
C10_13 C 0.27299(9) 0.82710(9) 0.21840(14)
C11_12 C 0.22857(10) 0.76089(10) 0.05223(15)
H4_13 H 0.2689 0.7649 0.0530
C12_12 C 0.13484(9) 0.77357(10) 0.12305(16)
H5_12 H 0.1124 0.7861 0.1717
C13_12 C 0.46792(10) 0.92759(12) 0.48571(16)
H6_9 H 0.4595 0.9442 0.5415
C15_12 C 0.52530(10) 0.92172(12) 0.45842(16)
H8_12 H 0.5556 0.9337 0.4959
C16_9 C 0.10831(10) 0.74762(10) 0.04955(17)
H9_9 H 0.0680 0.7431 0.0487
C17_12 C 0.25256(10) 0.91188(11) 0.44634(16)
H10_12 H 0.2737 0.8887 0.4893
H11_12 H 0.2762 0.9443 0.4278
H12_13 H 0.2173 0.9260 0.4737
H13_12 H 0.1959(10) 0.8196(9) 0.2435(16)
O6_7 O 0.38942(7) 0.93641(6) 0.10312(10)
O2_8 O 0.31359(6) 0.13942(7) 0.85312(10)
O3_14 O 0.02376(6) 0.15371(7) 0.66322(9)
O4_14 O 0.18709(6) 0.18306(7) 0.66256(9)
N1_13 N 0.16322(7) 0.12605(7) 0.83229(11)
N2_13 N 0.11400(7) 0.13474(7) 0.79110(11)
N3_13 N 0.28185(8) 0.19044(8) 0.70194(12)
C1_13 C 0.06608(9) 0.11546(9) 0.84561(13)
C2_13 C 0.30480(9) 0.21897(9) 0.62455(14)
C3_13 C 0.21587(9) 0.14126(9) 0.80309(14)
C4_14 C 0.26230(9) 0.12471(9) 0.86544(14)
C5_13 C 0.00765(9) 0.12081(9) 0.81689(14)
C6_13 C 0.07667(10) 0.09094(11) 0.93101(15)
H1_13 H 0.1149 0.0872 0.9510
C9_6 C 0.29886(11) 0.26513(10) 0.47908(16)
H3_6 H 0.2767 0.2784 0.4306
C10_14 C 0.22701(9) 0.17290(9) 0.71840(14)
C11_13 C 0.27143(10) 0.23911(10) 0.55223(15)
H4_14 H 0.2311 0.2351 0.5530
C12_13 C 0.36516(9) 0.22643(10) 0.62305(16)
H5_13 H 0.3876 0.2139 0.6717
C13_13 C 0.03208(10) 0.07241(12) 0.98571(16)
C14_6 C 0.35874(11) 0.27163(11) 0.47725(17)
H7_6 H 0.3768 0.2888 0.4277
C16_10 C 0.39169(10) 0.25238(10) 0.54955(17)
H9_10 H 0.4320 0.2569 0.5487
C17_13 C 0.24744(10) 0.08812(11) 0.94634(16)
H10_13 H 0.2263 0.1113 0.9893
H11_13 H 0.2238 0.0557 0.9278
H12_14 H 0.2827 0.0740 0.9737
H13_13 H 0.3041(10) 0.1804(9) 0.7435(16)
O6_8 O 0.11058(7) 0.06359(6) 0.60312(10)
C7_14 C 0.98812(9) 0.14195(8) 0.72585(13)
C8_13 C 0.96319(9) 0.10205(10) 0.87521(15)
H2_13 H 0.9246 0.1059 0.8568
C15_13 C 0.97470(10) 0.07828(12) 0.95842(16)
H8_13 H 0.9444 0.0663 0.9959
O3_15 O 0.40371(7) 0.22624(6) 0.91322(9)
O4_15 O 0.43306(7) 0.06291(6) 0.91256(9)
C7_15 C 0.39195(8) 0.26188(9) 0.97585(13)
C10_15 C 0.42290(9) 0.02299(9) 0.96840(14)
H4_15 H 0.4851 0.0189 0.8030
C4_15 C 0.37471(9) 0.98770(9) 0.11544(14)
H12_15 H 0.3240 0.9673 0.2237
N3_14 N 0.05956(8) 0.03185(8) 0.45194(12)
C2_14 C 0.03103(9) 0.05480(9) 0.37455(14)
C4_16 C 0.12529(9) 0.01230(9) 0.61544(14)
C11_14 C 0.01089(10) 0.02143(10) 0.30223(15)
C12_14 C 0.02357(10) 0.11516(9) 0.37305(16)
H5_14 H 0.0361 0.1376 0.4217
H12_16 H 0.1760 0.0327 0.7237
H13_14 H 0.0696(9) 0.0541(10) 0.4935(16)
O3_16 O 0.09629(7) 0.77376(6) 0.41322(9)
O4_16 O 0.06694(7) 0.93709(6) 0.41256(9)
N1_14 N 0.12395(7) 0.91322(7) 0.58229(11)
N2_14 N 0.11526(7) 0.86400(7) 0.54110(11)
C1_14 C 0.13454(9) 0.81608(9) 0.59561(13)
C3_14 C 0.10874(9) 0.96587(9) 0.55309(14)
C5_14 C 0.12919(9) 0.75765(9) 0.56689(14)
C6_14 C 0.15906(11) 0.82667(10) 0.68101(15)
H1_14 H 0.1628 0.8649 0.7010
C7_16 C 0.10805(8) 0.73812(9) 0.47585(13)
C8_14 C 0.14795(10) 0.71319(9) 0.62521(15)
H2_14 H 0.1441 0.6746 0.6068
C10_16 C 0.07710(9) 0.97701(9) 0.46840(14)
H4_16 H 0.0149 0.9811 0.3030
C13_14 C 0.17759(12) 0.78208(10) 0.73571(16)
H6_10 H 0.1942 0.7905 0.7915
C15_14 C 0.17172(12) 0.72470(10) 0.70842(16)
H8_14 H 0.1837 0.6944 0.7459
C17_14 C 0.16188(11) 0.99744(10) 0.69634(16)
H10_14 H 0.1387 0.9763 0.7393
H11_14 H 0.1943 0.9738 0.6778
H6_11 H 0.0405 0.5558 0.9585
C9_7 C 0.20114(11) 0.23487(10) 0.02092(16)
H3_7 H 0.2233 0.2216 0.0694
C14_7 C 0.14126(11) 0.22837(11) 0.02275(17)
H7_7 H 0.1232 0.2112 0.0723
C9_8 C 0.98487(10) 0.54886(11) 0.77092(16)
H3_8 H 0.9716 0.5267 0.8194
C14_8 C 0.97837(11) 0.60874(11) 0.77275(17)
H7_8 H 0.9612 0.6268 0.8223
C16_11 C 0.99762(10) 0.64169(10) 0.70045(17)
H9_11 H 0.9931 0.6820 0.7013
C9_9 C 0.79886(11) 0.26513(10) 0.02092(16)
H3_9 H 0.7767 0.2784 0.0694
C14_9 C 0.85874(11) 0.27163(11) 0.02275(17)
H7_9 H 0.8768 0.2888 0.0723
H6_12 H 0.9595 0.9442 0.9585
N3_15 N 0.55956(8) 0.03185(8) 0.04806(12)
C2_15 C 0.53103(9) 0.05480(9) 0.12545(14)
C9_10 C 0.48487(10) 0.04886(11) 0.27092(16)
H3_10 H 0.4716 0.0267 0.3194
C11_15 C 0.51089(10) 0.02143(10) 0.19777(15)
C12_15 C 0.52357(10) 0.11516(9) 0.12695(16)
H5_15 H 0.5361 0.1376 0.0783
C14_10 C 0.47837(11) 0.10874(11) 0.27275(17)
H7_10 H 0.4612 0.1268 0.3223
C16_12 C 0.49762(10) 0.14169(10) 0.20045(17)
H9_12 H 0.4931 0.1820 0.2013
H13_15 H 0.5696(9) 0.0541(10) 0.0065(16)
N1_15 N 0.62395(7) 0.91322(7) 0.91771(11)
N2_15 N 0.61526(7) 0.86400(7) 0.95890(11)
C1_15 C 0.63454(9) 0.81608(9) 0.90439(13)
C3_15 C 0.60874(9) 0.96587(9) 0.94691(14)
C5_15 C 0.62919(9) 0.75765(9) 0.93311(14)
C6_15 C 0.65906(11) 0.82667(10) 0.81899(15)
H1_15 H 0.6628 0.8649 0.7990
C8_15 C 0.64795(10) 0.71319(9) 0.87479(15)
H2_15 H 0.6441 0.6746 0.8932
C13_15 C 0.67759(12) 0.78208(10) 0.76429(16)
H6_13 H 0.6942 0.7905 0.7085
C15_15 C 0.67172(12) 0.72470(10) 0.79158(16)
H8_15 H 0.6837 0.6944 0.7541
C17_15 C 0.66188(11) 0.99744(10) 0.80366(16)
H10_15 H 0.6387 0.9763 0.7607
H11_15 H 0.6943 0.9738 0.8222
C9_11 C 0.01513(10) 0.95114(11) 0.77092(16)
H3_11 H 0.0284 0.9733 0.8194
C14_11 C 0.02163(11) 0.89126(11) 0.77275(17)
H7_11 H 0.0388 0.8732 0.8223
C16_13 C 0.00238(10) 0.85831(10) 0.70045(17)
H9_13 H 0.0069 0.8180 0.7013
H6_14 H 0.9595 0.4442 0.0415
C9_12 C 0.79886(11) 0.76513(10) 0.97908(16)
H3_12 H 0.7767 0.7784 0.9306
C14_12 C 0.85874(11) 0.77163(11) 0.97725(17)
H7_12 H 0.8768 0.7888 0.9277
C9_13 C 0.01513(10) 0.45114(11) 0.22908(16)
H3_13 H 0.0284 0.4733 0.1806
C14_13 C 0.02163(11) 0.39126(11) 0.22725(17)
H7_13 H 0.0388 0.3732 0.1777
C16_14 C 0.00238(10) 0.35831(10) 0.29955(17)
H9_14 H 0.0069 0.3180 0.2987
C9_14 C 0.20114(11) 0.73487(10) 0.97908(16)
H3_14 H 0.2233 0.7216 0.9306
C14_14 C 0.14126(11) 0.72837(11) 0.97725(17)
H7_14 H 0.1232 0.7112 0.9277
H6_15 H 0.0405 0.0558 0.0415
N1_16 N 0.37605(7) 0.08678(7) 0.08229(11)
N2_16 N 0.38474(7) 0.13600(7) 0.04110(11)
C1_16 C 0.36546(9) 0.18392(9) 0.09561(13)
C3_16 C 0.39126(9) 0.03413(9) 0.05309(14)
C5_16 C 0.37081(9) 0.24235(9) 0.06689(14)
C6_16 C 0.34094(11) 0.17333(10) 0.18101(15)
H1_16 H 0.3372 0.1351 0.2010
C8_16 C 0.35205(10) 0.28681(9) 0.12521(15)
H2_16 H 0.3559 0.3254 0.1068
C13_16 C 0.32241(12) 0.21792(10) 0.23571(16)
H6_16 H 0.3058 0.2095 0.2915
C15_16 C 0.32828(12) 0.27530(10) 0.20842(16)
H8_16 H 0.3163 0.3056 0.2459
C17_16 C 0.33812(11) 0.00256(10) 0.19634(16)
H10_16 H 0.3613 0.0237 0.2393
H11_16 H 0.3057 0.0262 0.1778
N3_16 N 0.44044(8) 0.96815(8) 0.95194(12)
C2_16 C 0.46897(9) 0.94520(9) 0.87455(14)
C9_15 C 0.51513(10) 0.95114(11) 0.72908(16)
H3_15 H 0.5284 0.9733 0.6806
C11_16 C 0.48911(10) 0.97857(10) 0.80223(15)
C12_16 C 0.47643(10) 0.88484(9) 0.87305(16)
H5_16 H 0.4639 0.8624 0.9217
C14_15 C 0.52163(11) 0.89126(11) 0.72725(17)
H7_15 H 0.5388 0.8732 0.6777
C16_15 C 0.50238(10) 0.85831(10) 0.79955(17)
H9_15 H 0.5069 0.8180 0.7987
H13_16 H 0.4304(9) 0.9459(10) 0.9935(16)
C9_16 C 0.98487(10) 0.04886(11) 0.22908(16)
H3_16 H 0.9716 0.0267 0.1806
C14_16 C 0.97837(11) 0.10874(11) 0.22725(17)
H7_16 H 0.9612 0.1268 0.1777
C16_16 C 0.99762(10) 0.14169(10) 0.29955(17)
H9_16 H 0.9931 0.1820 0.2987
loop_
_geom_bond_atom_site_label_1
_geom_bond_atom_site_label_2
_geom_bond_site_symmetry_1
_geom_bond_site_symmetry_2
Cu1 O3 1_555 1_555
O2 C4 1_555 1_555
O4 Cu1 1_555 1_555
N1 N2 1_555 1_555
N2 Cu1 1_555 1_555
N3 C2 1_555 1_555
C1 N2 1_555 1_555
C2 C11 1_555 1_555
C3 N1 1_555 1_555
C4 C3 1_555 1_555
C5 C1 1_555 1_555
C6 C1 1_555 1_555
H1 C6 1_555 1_555
C9 H3 1_555 1_555
C10 O4 1_555 1_555
C11 C9 1_555 1_555
H4 C11 1_555 1_555
C12 C2 1_555 1_555
H5 C12 1_555 1_555
C13 C6 1_555 1_555
C14 C9 1_555 1_555
H7 C14 1_555 1_555
C16 C12 1_555 1_555
H9 C16 1_555 1_555
C17 C4 1_555 1_555
H10 C17 1_555 1_555
H11 C17 1_555 1_555
H12 C17 1_555 1_555
H13 N3 1_555 1_555
Cu2 O2 1_555 1_555
O5 Cu1 1_555 1_555
O6 Cu1 1_555 1_555
N3 C10 1_555 1_555
C3 C10 1_555 1_555
C14 C16 1_555 1_555
O1 C7 1_555 1_555
H2 C8 1_555 1_555
C15 C8 1_555 1_555
H8 C15 1_555 1_555
Cu3 O1 1_555 1_555
Cu1_2 O3_2 1_555 1_555
O1_2 C7_2 1_555 1_555
O2_2 C4_2 1_555 1_555
O3_2 C7_2 1_555 1_555
O4_2 Cu1_2 1_555 1_555
N1_2 N2_2 1_555 1_555
N2_2 Cu1_2 1_555 1_555
N3_2 C2_2 1_555 1_555
C1_2 N2_2 1_555 1_555
C2_2 C11_2 1_555 1_555
C3_2 N1_2 1_555 1_555
C4_2 C3_2 1_555 1_555
C5_2 C1_2 1_555 1_555
C6_2 C1_2 1_555 1_555
H1_2 C6_2 1_555 1_555
C7_2 C5_2 1_555 1_555
C8_2 C5_2 1_555 1_555
H2_2 C8_2 1_555 1_555
C10_2 O4_2 1_555 1_555
H4_2 C11_2 1_555 1_555
C12_2 C2_2 1_555 1_555
H5_2 C12_2 1_555 1_555
C13_2 C6_2 1_555 1_555
H6 C13_2 1_555 1_555
C15_2 C8_2 1_555 1_555
H8_2 C15_2 1_555 1_555
C16_2 C12_2 1_555 1_555
H9_2 C16_2 1_555 1_555
C17_2 C4_2 1_555 1_555
H10_2 C17_2 1_555 1_555
H11_2 C17_2 1_555 1_555
H12_2 C17_2 1_555 1_555
H13_2 N3_2 1_555 1_555
Cu2_2 O2_2 1_555 1_555
Cu3_2 O1_2 1_555 1_555
O5_2 Cu1_2 1_555 1_555
O6_2 Cu1_2 1_555 1_555
N3_2 C10_2 1_555 1_555
C3_2 C10_2 1_555 1_555
C13_2 C15_2 1_555 1_555
Cu2_2 O3_3 1_555 1_555
O1_3 C7_3 1_555 1_555
O6 C4_3 1_555 1_555
O3_3 C7_3 1_555 1_555
O4_3 Cu2_2 1_555 1_555
N1_3 N2_3 1_555 1_555
N2_3 Cu2_2 1_555 1_555
N3_3 C2_3 1_555 1_555
C1_3 N2_3 1_555 1_555
C2_3 C11_3 1_555 1_555
C3_3 N1_3 1_555 1_555
C4_3 C3_3 1_555 1_555
C5_3 C1_3 1_555 1_555
C6_3 C1_3 1_555 1_555
H1_3 C6_3 1_555 1_555
C7_3 C5_3 1_555 1_555
C8_3 C5_3 1_555 1_555
H2_3 C8_3 1_555 1_555
C10_3 O4_3 1_555 1_555
H4_3 C11_3 1_555 1_555
C12_3 C2_3 1_555 1_555
H5_3 C12_3 1_555 1_555
C13_3 C6_3 1_555 1_555
H6_2 C13_3 1_555 1_555
C15_3 C8_3 1_555 1_555
H8_3 C15_3 1_555 1_555
C17_3 C4_3 1_555 1_555
H10_3 C17_3 1_555 1_555
H11_3 C17_3 1_555 1_555
H12_3 C17_3 1_555 1_555
H13_3 N3_3 1_555 1_555
Cu3_3 O1_3 1_555 1_555
O5_3 Cu2_2 1_555 1_555
N3_3 C10_3 1_555 1_555
C3_3 C10_3 1_555 1_555
C13_3 C15_3 1_555 1_555
Cu2 O3_4 1_555 1_555
O1_4 C7_4 1_555 1_555
O3_4 C7_4 1_555 1_555
O4_4 Cu2 1_555 1_555
N3_4 C2_4 1_555 1_555
C2_4 C11_4 1_555 1_555
C9_2 H3_2 1_555 1_555
C10_4 O4_4 1_555 1_555
C11_4 C9_2 1_555 1_555
H4_4 C11_4 1_555 1_555
C12_4 C2_4 1_555 1_555
H5_4 C12_4 1_555 1_555
C14_2 C9_2 1_555 1_555
H7_2 C14_2 1_555 1_555
C16_3 C12_4 1_555 1_555
H9_3 C16_3 1_555 1_555
H13_4 N3_4 1_555 1_555
Cu3_4 O1_4 1_555 1_555
O5_4 Cu2 1_555 1_555
N3_4 C10_4 1_555 1_555
C14_2 C16_3 1_555 1_555
O6_2 C4_4 1_555 1_555
N1_4 N2_4 1_555 1_555
C1_4 N2_4 1_555 1_555
C3_4 N1_4 1_555 1_555
C4_4 C3_4 1_555 1_555
C5_4 C1_4 1_555 1_555
C6_4 C1_4 1_555 1_555
H1_4 C6_4 1_555 1_555
C8_4 C5_4 1_555 1_555
H2_4 C8_4 1_555 1_555
C13_4 C6_4 1_555 1_555
H6_3 C13_4 1_555 1_555
C15_4 C8_4 1_555 1_555
H8_4 C15_4 1_555 1_555
C17_4 C4_4 1_555 1_555
H10_4 C17_4 1_555 1_555
H11_4 C17_4 1_555 1_555
H12_4 C17_4 1_555 1_555
C13_4 C15_4 1_555 1_555
Cu1_3 O3_5 1_555 1_555
O1_5 C7_5 1_555 1_555
O2_3 C4_5 1_555 1_555
O3_5 C7_5 1_555 1_555
O4_5 Cu1_3 1_555 1_555
N1_5 N2_5 1_555 1_555
N2_5 Cu1_3 1_555 1_555
N3_5 C2_5 1_555 1_555
C1_5 N2_5 1_555 1_555
C2_5 C11_5 1_555 1_555
C3_5 N1_5 1_555 1_555
C4_5 C3_5 1_555 1_555
C5_5 C1_5 1_555 1_555
C6_5 C1_5 1_555 1_555
H1_5 C6_5 1_555 1_555
C7_5 C5_5 1_555 1_555
C8_5 C5_5 1_555 1_555
H2_5 C8_5 1_555 1_555
C10_5 O4_5 1_555 1_555
H4_5 C11_5 1_555 1_555
C12_5 C2_5 1_555 1_555
H5_5 C12_5 1_555 1_555
C13_5 C6_5 1_555 1_555
H6_4 C13_5 1_555 1_555
C15_5 C8_5 1_555 1_555
H8_5 C15_5 1_555 1_555
C16_4 C12_5 1_555 1_555
H9_4 C16_4 1_555 1_555
C17_5 C4_5 1_555 1_555
H10_5 C17_5 1_555 1_555
H11_5 C17_5 1_555 1_555
H12_5 C17_5 1_555 1_555
H13_5 N3_5 1_555 1_555
Cu2_3 O2_3 1_555 1_555
Cu3_5 O1_5 1_555 1_555
O5_5 Cu1_3 1_555 1_555
O6_3 Cu1_3 1_555 1_555
N3_5 C10_5 1_555 1_555
C3_5 C10_5 1_555 1_555
C13_5 C15_5 1_555 1_555
O1_6 C7_6 1_555 1_555
H2_6 C8_6 1_555 1_555
C15_6 C8_6 1_555 1_555
H8_6 C15_6 1_555 1_555
Cu3_6 O1_6 1_555 1_555
Cu1_4 O3_6 1_555 1_555
O2_4 C4_6 1_555 1_555
O4_6 Cu1_4 1_555 1_555
N1_6 N2_6 1_555 1_555
N2_6 Cu1_4 1_555 1_555
N3_6 C2_6 1_555 1_555
C1_6 N2_6 1_555 1_555
C2_6 C11_6 1_555 1_555
C3_6 N1_6 1_555 1_555
C4_6 C3_6 1_555 1_555
C5_6 C1_6 1_555 1_555
C6_6 C1_6 1_555 1_555
H1_6 C6_6 1_555 1_555
C9_3 H3_3 1_555 1_555
C10_6 O4_6 1_555 1_555
C11_6 C9_3 1_555 1_555
H4_6 C11_6 1_555 1_555
C12_6 C2_6 1_555 1_555
H5_6 C12_6 1_555 1_555
C13_6 C6_6 1_555 1_555
C14_3 C9_3 1_555 1_555
H7_3 C14_3 1_555 1_555
C16_5 C12_6 1_555 1_555
H9_5 C16_5 1_555 1_555
C17_6 C4_6 1_555 1_555
H10_6 C17_6 1_555 1_555
H11_6 C17_6 1_555 1_555
H12_6 C17_6 1_555 1_555
H13_6 N3_6 1_555 1_555
Cu2_4 O2_4 1_555 1_555
O5_6 Cu1_4 1_555 1_555
O6_4 Cu1_4 1_555 1_555
N3_6 C10_6 1_555 1_555
C3_6 C10_6 1_555 1_555
C14_3 C16_5 1_555 1_555
O6_3 C4_7 1_555 1_555
Cu2_4 O3_7 1_555 1_555
O1_7 C7_7 1_555 1_555
O3_7 C7_7 1_555 1_555
O4_7 Cu2_4 1_555 1_555
C10_7 O4_7 1_555 1_555
Cu3_7 O1_7 1_555 1_555
O5_7 Cu2_4 1_555 1_555
Cu2_3 O3_8 1_555 1_555
O1_8 C7_8 1_555 1_555
O3_8 C7_8 1_555 1_555
O4_8 Cu2_3 1_555 1_555
N1_7 N2_7 1_555 1_555
N2_7 Cu2_3 1_555 1_555
C1_7 N2_7 1_555 1_555
C3_7 N1_7 1_555 1_555
C5_7 C1_7 1_555 1_555
C6_7 C1_7 1_555 1_555
H1_7 C6_7 1_555 1_555
C7_8 C5_7 1_555 1_555
C8_7 C5_7 1_555 1_555
H2_7 C8_7 1_555 1_555
C10_8 O4_8 1_555 1_555
C13_7 C6_7 1_555 1_555
H6_5 C13_7 1_555 1_555
C15_7 C8_7 1_555 1_555
H8_7 C15_7 1_555 1_555
H10_7 C17_7 1_555 1_555
H11_7 C17_7 1_555 1_555
Cu3_8 O1_8 1_555 1_555
O5_8 Cu2_3 1_555 1_555
C3_7 C10_8 1_555 1_555
C13_7 C15_7 1_555 1_555
O6_4 C4_8 1_555 1_555
N3_7 C2_7 1_555 1_555
C2_7 C11_7 1_555 1_555
C12_7 C2_7 1_555 1_555
H5_7 C12_7 1_555 1_555
H13_7 N3_7 1_555 1_555
O5_3 C7_9 1_555 1_555
H2_8 C8_8 1_555 1_555
C15_8 C8_8 1_555 1_555
H8_8 C15_8 1_555 1_555
Cu3_8 O3_9 1_555 1_555
O2_5 C4_9 1_555 1_555
O4_9 Cu3_8 1_555 1_555
N1_8 N2_8 1_555 1_555
N2_8 Cu3_8 1_555 1_555
N3_8 C2_8 1_555 1_555
C1_8 N2_8 1_555 1_555
C2_8 C11_8 1_555 1_555
C3_8 N1_8 1_555 1_555
C4_9 C3_8 1_555 1_555
C5_8 C1_8 1_555 1_555
C6_8 C1_8 1_555 1_555
H1_8 C6_8 1_555 1_555
C9_4 H3_4 1_555 1_555
C10_9 O4_9 1_555 1_555
C11_8 C9_4 1_555 1_555
H4_9 C11_8 1_555 1_555
C12_8 C2_8 1_555 1_555
H5_8 C12_8 1_555 1_555
C13_8 C6_8 1_555 1_555
C14_4 C9_4 1_555 1_555
H7_4 C14_4 1_555 1_555
C16_6 C12_8 1_555 1_555
H9_6 C16_6 1_555 1_555
C17_8 C4_9 1_555 1_555
H10_8 C17_8 1_555 1_555
H11_8 C17_8 1_555 1_555
H12_9 C17_8 1_555 1_555
H13_8 N3_8 1_555 1_555
Cu3_2 O2_5 1_555 1_555
O6_5 Cu3_8 1_555 1_555
N3_8 C10_9 1_555 1_555
C3_8 C10_9 1_555 1_555
C14_4 C16_6 1_555 1_555
Cu3_7 O3_10 1_555 1_555
O5_4 C7_10 1_555 1_555
O2_6 C4_10 1_555 1_555
O3_10 C7_10 1_555 1_555
O4_10 Cu3_7 1_555 1_555
N1_9 N2_9 1_555 1_555
N2_9 Cu3_7 1_555 1_555
N3_9 C2_9 1_555 1_555
C1_9 N2_9 1_555 1_555
C2_9 C11_9 1_555 1_555
C3_9 N1_9 1_555 1_555
C4_10 C3_9 1_555 1_555
C5_9 C1_9 1_555 1_555
C6_9 C1_9 1_555 1_555
H1_9 C6_9 1_555 1_555
C7_10 C5_9 1_555 1_555
C8_9 C5_9 1_555 1_555
H2_9 C8_9 1_555 1_555
C10_10 O4_10 1_555 1_555
H4_10 C11_9 1_555 1_555
C12_9 C2_9 1_555 1_555
H5_9 C12_9 1_555 1_555
C13_9 C6_9 1_555 1_555
H6_6 C13_9 1_555 1_555
C15_9 C8_9 1_555 1_555
H8_9 C15_9 1_555 1_555
C16_7 C12_9 1_555 1_555
H9_7 C16_7 1_555 1_555
C17_9 C4_10 1_555 1_555
H10_9 C17_9 1_555 1_555
H11_9 C17_9 1_555 1_555
H12_10 C17_9 1_555 1_555
H13_9 N3_9 1_555 1_555
Cu3 O2_6 1_555 1_555
O6_6 Cu3_7 1_555 1_555
N3_9 C10_10 1_555 1_555
C3_9 C10_10 1_555 1_555
C13_9 C15_9 1_555 1_555
Cu3 O3_11 1_555 1_555
O5_6 C7_11 1_555 1_555
O6_5 C4_11 1_555 1_555
O3_11 C7_11 1_555 1_555
O4_11 Cu3 1_555 1_555
N1_10 N2_10 1_555 1_555
N2_10 Cu3 1_555 1_555
N3_10 C2_10 1_555 1_555
C1_10 N2_10 1_555 1_555
C2_10 C11_10 1_555 1_555
C3_10 N1_10 1_555 1_555
C4_11 C3_10 1_555 1_555
C5_10 C1_10 1_555 1_555
C6_10 C1_10 1_555 1_555
H1_10 C6_10 1_555 1_555
C7_11 C5_10 1_555 1_555
C8_10 C5_10 1_555 1_555
H2_10 C8_10 1_555 1_555
C10_11 O4_11 1_555 1_555
H4_11 C11_10 1_555 1_555
C12_10 C2_10 1_555 1_555
H5_10 C12_10 1_555 1_555
C13_10 C6_10 1_555 1_555
H6_7 C13_10 1_555 1_555
C15_10 C8_10 1_555 1_555
H8_10 C15_10 1_555 1_555
C17_10 C4_11 1_555 1_555
H10_10 C17_10 1_555 1_555
H11_10 C17_10 1_555 1_555
H12_11 C17_10 1_555 1_555
H13_10 N3_10 1_555 1_555
N3_10 C10_11 1_555 1_555
C3_10 C10_11 1_555 1_555
C13_10 C15_10 1_555 1_555
O6_6 C4_12 1_555 1_555
N1_11 N2_11 1_555 1_555
C1_11 N2_11 1_555 1_555
C3_11 N1_11 1_555 1_555
C4_12 C3_11 1_555 1_555
C5_11 C1_11 1_555 1_555
C6_11 C1_11 1_555 1_555
H1_11 C6_11 1_555 1_555
C8_11 C5_11 1_555 1_555
H2_11 C8_11 1_555 1_555
C13_11 C6_11 1_555 1_555
H6_8 C13_11 1_555 1_555
C15_11 C8_11 1_555 1_555
H8_11 C15_11 1_555 1_555
C17_11 C4_12 1_555 1_555
H10_11 C17_11 1_555 1_555
H11_11 C17_11 1_555 1_555
H12_12 C17_11 1_555 1_555
C13_11 C15_11 1_555 1_555
Cu3_2 O3_12 1_555 1_555
O5_5 C7_12 1_555 1_555
O3_12 C7_12 1_555 1_555
O4_12 Cu3_2 1_555 1_555
N3_11 C2_11 1_555 1_555
C2_11 C11_11 1_555 1_555
C9_5 H3_5 1_555 1_555
C10_12 O4_12 1_555 1_555
C11_11 C9_5 1_555 1_555
H4_12 C11_11 1_555 1_555
C12_11 C2_11 1_555 1_555
H5_11 C12_11 1_555 1_555
C14_5 C9_5 1_555 1_555
H7_5 C14_5 1_555 1_555
C16_8 C12_11 1_555 1_555
H9_8 C16_8 1_555 1_555
H13_11 N3_11 1_555 1_555
N3_11 C10_12 1_555 1_555
C14_5 C16_8 1_555 1_555
Cu3_4 O3_13 1_555 1_555
O5_7 C7_13 1_555 1_555
O2_7 C4_13 1_555 1_555
O3_13 C7_13 1_555 1_555
O4_13 Cu3_4 1_555 1_555
N1_12 N2_12 1_555 1_555
N2_12 Cu3_4 1_555 1_555
N3_12 C2_12 1_555 1_555
C1_12 N2_12 1_555 1_555
C2_12 C11_12 1_555 1_555
C3_12 N1_12 1_555 1_555
C4_13 C3_12 1_555 1_555
C5_12 C1_12 1_555 1_555
C6_12 C1_12 1_555 1_555
H1_12 C6_12 1_555 1_555
C7_13 C5_12 1_555 1_555
C8_12 C5_12 1_555 1_555
H2_12 C8_12 1_555 1_555
C10_13 O4_13 1_555 1_555
H4_13 C11_12 1_555 1_555
C12_12 C2_12 1_555 1_555
H5_12 C12_12 1_555 1_555
C13_12 C6_12 1_555 1_555
H6_9 C13_12 1_555 1_555
C15_12 C8_12 1_555 1_555
H8_12 C15_12 1_555 1_555
C16_9 C12_12 1_555 1_555
H9_9 C16_9 1_555 1_555
C17_12 C4_13 1_555 1_555
H10_12 C17_12 1_555 1_555
H11_12 C17_12 1_555 1_555
H12_13 C17_12 1_555 1_555
H13_12 N3_12 1_555 1_555
Cu3_6 O2_7 1_555 1_555
O6_7 Cu3_4 1_555 1_555
N3_12 C10_13 1_555 1_555
C3_12 C10_13 1_555 1_555
C13_12 C15_12 1_555 1_555
Cu3_3 O3_14 1_555 1_555
O2_8 C4_14 1_555 1_555
O4_14 Cu3_3 1_555 1_555
N1_13 N2_13 1_555 1_555
N2_13 Cu3_3 1_555 1_555
N3_13 C2_13 1_555 1_555
C1_13 N2_13 1_555 1_555
C2_13 C11_13 1_555 1_555
C3_13 N1_13 1_555 1_555
C4_14 C3_13 1_555 1_555
C5_13 C1_13 1_555 1_555
C6_13 C1_13 1_555 1_555
H1_13 C6_13 1_555 1_555
C9_6 H3_6 1_555 1_555
C10_14 O4_14 1_555 1_555
C11_13 C9_6 1_555 1_555
H4_14 C11_13 1_555 1_555
C12_13 C2_13 1_555 1_555
H5_13 C12_13 1_555 1_555
C13_13 C6_13 1_555 1_555
C14_6 C9_6 1_555 1_555
H7_6 C14_6 1_555 1_555
C16_10 C12_13 1_555 1_555
H9_10 C16_10 1_555 1_555
C17_13 C4_14 1_555 1_555
H10_13 C17_13 1_555 1_555
H11_13 C17_13 1_555 1_555
H12_14 C17_13 1_555 1_555
H13_13 N3_13 1_555 1_555
Cu3_5 O2_8 1_555 1_555
O6_8 Cu3_3 1_555 1_555
N3_13 C10_14 1_555 1_555
C3_13 C10_14 1_555 1_555
C14_6 C16_10 1_555 1_555
O5_8 C7_14 1_555 1_555
H2_13 C8_13 1_555 1_555
C15_13 C8_13 1_555 1_555
H8_13 C15_13 1_555 1_555
Cu3_5 O3_15 1_555 1_555
O5_2 C7_15 1_555 1_555
O3_15 C7_15 1_555 1_555
O4_15 Cu3_5 1_555 1_555
C10_15 O4_15 1_555 1_555
O6_7 C4_15 1_555 1_555
O6_8 C4_16 1_555 1_555
N3_14 C2_14 1_555 1_555
C2_14 C11_14 1_555 1_555
C12_14 C2_14 1_555 1_555
H5_14 C12_14 1_555 1_555
H13_14 N3_14 1_555 1_555
Cu3_6 O3_16 1_555 1_555
O5 C7_16 1_555 1_555
O3_16 C7_16 1_555 1_555
O4_16 Cu3_6 1_555 1_555
N1_14 N2_14 1_555 1_555
N2_14 Cu3_6 1_555 1_555
C1_14 N2_14 1_555 1_555
C3_14 N1_14 1_555 1_555
C5_14 C1_14 1_555 1_555
C6_14 C1_14 1_555 1_555
H1_14 C6_14 1_555 1_555
C7_16 C5_14 1_555 1_555
C8_14 C5_14 1_555 1_555
H2_14 C8_14 1_555 1_555
C10_16 O4_16 1_555 1_555
C13_14 C6_14 1_555 1_555
H6_10 C13_14 1_555 1_555
C15_14 C8_14 1_555 1_555
H8_14 C15_14 1_555 1_555
H10_14 C17_14 1_555 1_555
H11_14 C17_14 1_555 1_555
C3_14 C10_16 1_555 1_555
C13_14 C15_14 1_555 1_555
C9_7 H3_7 1_555 1_555
C14_7 C9_7 1_555 1_555
H7_7 C14_7 1_555 1_555
C9_8 H3_8 1_555 1_555
C14_8 C9_8 1_555 1_555
H7_8 C14_8 1_555 1_555
H9_11 C16_11 1_555 1_555
C14_8 C16_11 1_555 1_555
C9_9 H3_9 1_555 1_555
C14_9 C9_9 1_555 1_555
H7_9 C14_9 1_555 1_555
N3_15 C2_15 1_555 1_555
C2_15 C11_15 1_555 1_555
C9_10 H3_10 1_555 1_555
C11_15 C9_10 1_555 1_555
C12_15 C2_15 1_555 1_555
H5_15 C12_15 1_555 1_555
C14_10 C9_10 1_555 1_555
H7_10 C14_10 1_555 1_555
C16_12 C12_15 1_555 1_555
H9_12 C16_12 1_555 1_555
H13_15 N3_15 1_555 1_555
C14_10 C16_12 1_555 1_555
N1_15 N2_15 1_555 1_555
C1_15 N2_15 1_555 1_555
C3_15 N1_15 1_555 1_555
C5_15 C1_15 1_555 1_555
C6_15 C1_15 1_555 1_555
H1_15 C6_15 1_555 1_555
C8_15 C5_15 1_555 1_555
H2_15 C8_15 1_555 1_555
C13_15 C6_15 1_555 1_555
H6_13 C13_15 1_555 1_555
C15_15 C8_15 1_555 1_555
H8_15 C15_15 1_555 1_555
H10_15 C17_15 1_555 1_555
H11_15 C17_15 1_555 1_555
C13_15 C15_15 1_555 1_555
C9_11 H3_11 1_555 1_555
C14_11 C9_11 1_555 1_555
H7_11 C14_11 1_555 1_555
H9_13 C16_13 1_555 1_555
C14_11 C16_13 1_555 1_555
C9_12 H3_12 1_555 1_555
C14_12 C9_12 1_555 1_555
H7_12 C14_12 1_555 1_555
C9_13 H3_13 1_555 1_555
C14_13 C9_13 1_555 1_555
H7_13 C14_13 1_555 1_555
H9_14 C16_14 1_555 1_555
C14_13 C16_14 1_555 1_555
C9_14 H3_14 1_555 1_555
C14_14 C9_14 1_555 1_555
H7_14 C14_14 1_555 1_555
N1_16 N2_16 1_555 1_555
C1_16 N2_16 1_555 1_555
C3_16 N1_16 1_555 1_555
C5_16 C1_16 1_555 1_555
C6_16 C1_16 1_555 1_555
H1_16 C6_16 1_555 1_555
C8_16 C5_16 1_555 1_555
H2_16 C8_16 1_555 1_555
C13_16 C6_16 1_555 1_555
H6_16 C13_16 1_555 1_555
C15_16 C8_16 1_555 1_555
H8_16 C15_16 1_555 1_555
H10_16 C17_16 1_555 1_555
H11_16 C17_16 1_555 1_555
C13_16 C15_16 1_555 1_555
N3_16 C2_16 1_555 1_555
C2_16 C11_16 1_555 1_555
C9_15 H3_15 1_555 1_555
C11_16 C9_15 1_555 1_555
C12_16 C2_16 1_555 1_555
H5_16 C12_16 1_555 1_555
C14_15 C9_15 1_555 1_555
H7_15 C14_15 1_555 1_555
C16_15 C12_16 1_555 1_555
H9_15 C16_15 1_555 1_555
H13_16 N3_16 1_555 1_555
C14_15 C16_15 1_555 1_555
C9_16 H3_16 1_555 1_555
C14_16 C9_16 1_555 1_555
H7_16 C14_16 1_555 1_555
H9_16 C16_16 1_555 1_555
C14_16 C16_16 1_555 1_555

#END
