
###############################################################################
#
# This file contains modified crystal structure data generated from the
# MOF subset of the Cambridge Structural Database (CSD) v543 
# hosted by the Cambridge Crystallographic Data Centre (CCDC).
#
# This work is licensed under the Creative Commons
# Attribution-NonCommercial-ShareAlike 4.0 International License.
# To view a copy of this license, visit
# http://creativecommons.org/licenses/by-nc-sa/4.0/
# or send a letter to
# Creative Commons, PO Box 1866, Mountain View, CA 94042, USA.
#
# CIF created using the CSD Python API on 29 September 2022
# The structure has been converted into the P1 space group
# The structure has a 3D framework
# The original CSD entry FURFOP is in the triclinic crystal system
# The framework has been calculated to contain at least 10.0% void space
# The void calculation uses a probe of radius 1.32A, grid spacing 0.4
#
###############################################################################

data_FURFOP
_chemical_formula_moiety         '(C64 H64 N16 O16 S4 Zn4)n'
_symmetry_cell_setting           triclinic
_symmetry_space_group_name_H-M   'P 1'
_symmetry_Int_Tables_number      1
_space_group_name_Hall           'P 1'
loop_
_symmetry_equiv_pos_site_id
_symmetry_equiv_pos_as_xyz
1 x,y,z
_cell_length_a                   9.1337(4)
_cell_length_b                   14.4635(6)
_cell_length_c                   18.0343(9)
_cell_angle_alpha                93.353(4)
_cell_angle_beta                 102.988(4)
_cell_angle_gamma                91.068(4)
_cell_volume                     2316.27
loop_
_atom_site_label
_atom_site_type_symbol
_atom_site_fract_x
_atom_site_fract_y
_atom_site_fract_z
_atom_site_U_iso_or_equiv
_atom_site_thermal_displace_type
Zn9 Zn 0.14622(6) 0.72539(3) 0.07534(3) 0.0379 Uani
C17 C 0.1312(6) 0.2317(3) 0.8668(3) 0.0598 Uani
H17 H 0.0831 0.1877 0.8291 0.0720 Uiso
C18 C 0.2763(7) 0.2599(4) 0.8793(3) 0.0708 Uani
H18 H 0.3461 0.2388 0.8524 0.0850 Uiso
C19 C 0.1741(6) 0.3327(4) 0.9608(3) 0.0612 Uani
C20 C 0.4425(6) 0.3715(4) 0.9759(4) 0.0778 Uani
H20 H 0.5203 0.3524 0.9500 0.0930 Uiso
C21 C 0.4299(5) 0.4759(4) 0.9759(3) 0.0659 Uani
H22 H 0.4146 0.4947 0.9240 0.0790 Uiso
H23 H 0.3436 0.4942 0.9956 0.0790 Uiso
N5 N 0.0664(4) 0.2778(3) 0.9182(2) 0.0492 Uani
N6 N 0.3018(5) 0.3248(3) 0.9384(2) 0.0569 Uani
H35 H 0.8384 0.6281 0.9986 0.0740 Uiso
H37 H 0.5286 0.6464 0.9719 0.0930 Uiso
Zn3 Zn 0.83969(5) 0.26561(3) 0.40058(3) 0.0354 Uani
C46 C 0.6194(6) 0.0278(3) 0.2037(3) 0.0548 Uani
H48 H 0.7031 0.0497 0.1878 0.0660 Uiso
C47 C 0.5832(5) 0.0593(3) 0.2694(2) 0.0427 Uani
C48 C 0.6580(5) 0.1302(3) 0.3278(3) 0.0485 Uani
O11 O 0.7866(4) 0.1599(2) 0.32346(19) 0.0593 Uani
O12 O 0.5950(4) 0.1576(2) 0.37841(19) 0.0679 Uani
S3 S 0.42366(15) 0.00422(9) 0.28028(7) 0.0524 Uani
O18 O 0.7212(4) 0.3585(2) 0.34502(18) 0.0609 Uani
N18 N 0.8319(4) 0.2661(2) 0.51014(19) 0.0445 Uani
C43 C 0.2835(6) 0.8704(3) 0.1703(3) 0.0532 Uani
C44 C 0.4077(6) 0.9398(3) 0.1962(2) 0.0462 Uani
C45 C 0.5207(6) 0.9606(3) 0.1627(3) 0.0570 Uani
H47 H 0.5310 0.9324 0.1166 0.0680 Uiso
C59 C 0.2905(6) 0.5588(4) 0.1507(3) 0.0568 Uani
C60 C 0.4225(5) 0.5516(3) 0.2153(3) 0.0482 Uani
C61 C 0.5016(6) 0.6230(3) 0.2591(3) 0.0592 Uani
H63 H 0.4794 0.6848 0.2525 0.0710 Uiso
C62 C 0.6199(6) 0.5938(3) 0.3151(3) 0.0619 Uani
H64 H 0.6851 0.6342 0.3498 0.0740 Uiso
C63 C 0.6294(5) 0.5014(3) 0.3134(2) 0.0454 Uani
C64 C 0.7394(5) 0.4442(3) 0.3629(2) 0.0453 Uani
O9 O 0.2711(5) 0.8358(2) 0.10326(18) 0.0794 Uani
O10 O 0.2020(5) 0.8508(3) 0.2126(2) 0.0796 Uani
O13 O 0.2548(5) 0.6407(3) 0.1400(2) 0.1057 Uani
O14 O 0.2309(4) 0.4899(3) 0.1149(2) 0.0788 Uani
O15 O 0.8367(4) 0.4805(2) 0.41532(18) 0.0625 Uani
S4 S 0.49261(14) 0.44813(8) 0.24231(7) 0.0488 Uani
H52 H 0.9077 0.6112 0.7694 0.0810 Uiso
C54 C 0.9438(6) 0.4496(4) 0.7065(2) 0.0612 Uani
H56 H 0.9738 0.4726 0.6626 0.0730 Uiso
H57 H 0.8390 0.4636 0.7026 0.0730 Uiso
C55 C 0.9598(6) 0.3491(4) 0.7057(2) 0.0655 Uani
H59 H 0.9175 0.3247 0.7456 0.0780 Uiso
C56 C 0.7745(6) 0.2378(3) 0.6187(3) 0.0584 Uani
H60 H 0.7288 0.2128 0.6546 0.0710 Uiso
C57 C 0.7450(6) 0.2148(3) 0.5444(3) 0.0553 Uani
H61 H 0.6742 0.1697 0.5195 0.0660 Uiso
C58 C 0.9155(6) 0.3190(4) 0.5658(3) 0.0609 Uani
H62 H 0.9883 0.3617 0.5594 0.0730 Uiso
N15 N 0.8836(5) 0.3042(3) 0.63198(19) 0.0504 Uani
H6 H 0.0923 0.3888 0.2306 0.0810 Uiso
C12 C 0.0562(6) 0.5504(4) 0.2935(2) 0.0612 Uani
H10 H 0.0262 0.5274 0.3374 0.0730 Uiso
H11 H 0.1610 0.5364 0.2974 0.0730 Uiso
C13 C 0.0402(6) 0.6509(4) 0.2943(2) 0.0655 Uani
H13 H 0.0825 0.6753 0.2544 0.0780 Uiso
C14 C 0.2255(6) 0.7622(3) 0.3813(3) 0.0584 Uani
H14 H 0.2712 0.7872 0.3454 0.0710 Uiso
C15 C 0.2550(6) 0.7852(3) 0.4556(3) 0.0553 Uani
H15 H 0.3258 0.8303 0.4805 0.0660 Uiso
C16 C 0.0845(6) 0.6810(4) 0.4342(3) 0.0609 Uani
H16 H 0.0117 0.6383 0.4406 0.0730 Uiso
H19 H 0.1616 0.3719 0.0014 0.0740 Uiso
H21 H 0.4714 0.3536 0.0281 0.0930 Uiso
N3 N 0.1164(5) 0.6958(3) 0.36802(19) 0.0504 Uani
N4 N 0.1681(4) 0.7339(2) 0.48986(19) 0.0445 Uani
C33 C 0.8688(6) 0.7683(3) 0.1332(3) 0.0598 Uani
H33 H 0.9169 0.8123 0.1709 0.0720 Uiso
C34 C 0.7237(7) 0.7401(4) 0.1207(3) 0.0708 Uani
H34 H 0.6539 0.7612 0.1476 0.0850 Uiso
C35 C 0.8259(6) 0.6673(4) 0.0392(3) 0.0612 Uani
C36 C 0.5575(6) 0.6285(4) 0.0241(4) 0.0778 Uani
H36 H 0.4797 0.6476 0.0500 0.0930 Uiso
C37 C 0.5701(5) 0.5241(4) 0.0241(3) 0.0659 Uani
H38 H 0.5854 0.5053 0.0760 0.0790 Uiso
H39 H 0.6564 0.5058 0.0044 0.0790 Uiso
N9 N 0.9336(4) 0.7222(3) 0.0818(2) 0.0492 Uani
N10 N 0.6982(5) 0.6752(3) 0.0616(2) 0.0569 Uani
Zn6 Zn 0.16031(5) 0.73439(3) 0.59942(3) 0.0354 Uani
Zn2 Zn 0.85378(6) 0.27461(3) 0.92466(3) 0.0379 Uani
C1 C 0.7165(6) 0.1296(3) 0.8297(3) 0.0532 Uani
C2 C 0.5923(6) 0.0602(3) 0.8038(2) 0.0462 Uani
C3 C 0.4793(6) 0.0394(3) 0.8373(3) 0.0570 Uani
H1 H 0.4690 0.0676 0.8834 0.0680 Uiso
C27 C 0.7095(6) 0.4412(4) 0.8493(3) 0.0568 Uani
C28 C 0.5775(5) 0.4484(3) 0.7847(3) 0.0482 Uani
C29 C 0.4984(6) 0.3770(3) 0.7409(3) 0.0592 Uani
H31 H 0.5206 0.3152 0.7475 0.0710 Uiso
C30 C 0.3801(6) 0.4062(3) 0.6849(3) 0.0619 Uani
H32 H 0.3149 0.3658 0.6502 0.0740 Uiso
C31 C 0.3706(5) 0.4986(3) 0.6866(2) 0.0454 Uani
C32 C 0.2606(5) 0.5558(3) 0.6371(2) 0.0453 Uani
O1 O 0.7289(5) 0.1642(2) 0.89674(18) 0.0794 Uani
O2 O 0.7980(5) 0.1492(3) 0.7874(2) 0.0796 Uani
O5 O 0.7452(5) 0.3593(3) 0.8600(2) 0.1057 Uani
O6 O 0.7691(4) 0.5101(3) 0.8851(2) 0.0788 Uani
O7 O 0.1633(4) 0.5195(2) 0.58468(18) 0.0625 Uani
O8 O 0.2788(4) 0.6415(2) 0.65498(18) 0.0609 Uani
S2 S 0.50739(14) 0.55187(8) 0.75769(7) 0.0488 Uani
C4 C 0.3806(6) 0.9722(3) 0.7963(3) 0.0548 Uani
H2 H 0.2969 0.9503 0.8122 0.0660 Uiso
C5 C 0.4168(5) 0.9407(3) 0.7306(2) 0.0427 Uani
C6 C 0.3420(5) 0.8698(3) 0.6722(3) 0.0485 Uani
O3 O 0.2134(4) 0.8401(2) 0.67654(19) 0.0593 Uani
O4 O 0.4050(4) 0.8424(2) 0.62159(19) 0.0679 Uani
S1 S 0.57634(15) 0.99578(9) 0.71972(7) 0.0524 Uani
C7 C 0.7611(5) 0.2497(3) 0.0727(3) 0.0498 Uani
H3 H 0.6909 0.2025 0.0515 0.0600 Uiso
C8 C 0.7958(6) 0.2799(3) 0.1461(3) 0.0582 Uani
H4 H 0.7536 0.2590 0.1847 0.0700 Uiso
C9 C 0.9291(5) 0.3566(3) 0.0851(2) 0.0492 Uani
H5 H 0.9979 0.3992 0.0745 0.0590 Uiso
C10 C 0.9856(6) 0.3994(4) 0.2233(3) 0.0673 Uani
H7 H 0.9526 0.3767 0.2666 0.0810 Uiso
C11 C 0.9611(6) 0.5013(3) 0.2210(2) 0.0582 Uani
H8 H 0.8556 0.5132 0.2174 0.0700 Uiso
H9 H 0.9895 0.5244 0.1766 0.0700 Uiso
H12 H 0.9343 0.6648 0.2839 0.0780 Uiso
N1 N 0.8443(4) 0.2985(2) 0.03375(19) 0.0420 Uani
N2 N 0.9047(5) 0.3471(3) 0.1536(2) 0.0511 Uani
C22 C 0.8604(6) 0.7750(4) 0.6352(3) 0.0580 Uani
H24 H 0.8996 0.8274 0.6661 0.0700 Uiso
C23 C 0.7165(6) 0.7464(4) 0.6192(3) 0.0717 Uani
H25 H 0.6388 0.7744 0.6367 0.0860 Uiso
C24 C 0.8440(5) 0.6525(3) 0.5620(3) 0.0512 Uani
H26 H 0.8678 0.6029 0.5322 0.0610 Uiso
C25 C 0.5636(6) 0.6214(5) 0.5307(4) 0.0928 Uani
H27 H 0.4843 0.6376 0.5565 0.1110 Uiso
H28 H 0.5363 0.6431 0.4797 0.1110 Uiso
C26 C 0.5748(6) 0.5222(4) 0.5256(3) 0.0769 Uani
H29 H 0.5918 0.4990 0.5761 0.0930 Uiso
H30 H 0.6590 0.5055 0.5035 0.0930 Uiso
N7 N 0.9416(4) 0.7163(2) 0.59971(19) 0.0411 Uani
N8 N 0.7058(5) 0.6686(3) 0.5723(2) 0.0606 Uani
C38 C 0.1396(6) 0.2250(4) 0.3648(3) 0.0580 Uani
H40 H 0.1004 0.1726 0.3339 0.0700 Uiso
C39 C 0.2835(6) 0.2536(4) 0.3808(3) 0.0717 Uani
H41 H 0.3612 0.2256 0.3633 0.0860 Uiso
C40 C 0.1560(5) 0.3475(3) 0.4380(3) 0.0512 Uani
H42 H 0.1322 0.3971 0.4678 0.0610 Uiso
C41 C 0.4364(6) 0.3786(5) 0.4693(4) 0.0928 Uani
H43 H 0.5157 0.3624 0.4435 0.1110 Uiso
H44 H 0.4637 0.3569 0.5203 0.1110 Uiso
C42 C 0.4252(6) 0.4778(4) 0.4744(3) 0.0769 Uani
H45 H 0.4082 0.5010 0.4239 0.0930 Uiso
H46 H 0.3410 0.4945 0.4965 0.0930 Uiso
N11 N 0.0584(4) 0.2837(2) 0.40029(19) 0.0411 Uani
N12 N 0.2942(5) 0.3314(3) 0.4277(2) 0.0606 Uani
C49 C 0.2389(5) 0.7503(3) 0.9273(3) 0.0498 Uani
H49 H 0.3091 0.7975 0.9485 0.0600 Uiso
C50 C 0.2042(6) 0.7201(3) 0.8539(3) 0.0582 Uani
H50 H 0.2464 0.7410 0.8153 0.0700 Uiso
C51 C 0.0709(5) 0.6434(3) 0.9149(2) 0.0492 Uani
H51 H 0.0021 0.6008 0.9255 0.0590 Uiso
C52 C 0.0144(6) 0.6006(4) 0.7767(3) 0.0673 Uani
H53 H 0.0474 0.6233 0.7334 0.0810 Uiso
C53 C 0.0389(6) 0.4987(3) 0.7790(2) 0.0582 Uani
H54 H 0.1444 0.4868 0.7826 0.0700 Uiso
H55 H 0.0105 0.4756 0.8234 0.0700 Uiso
H58 H 0.0657 0.3352 0.7161 0.0780 Uiso
N13 N 0.1557(4) 0.7015(2) 0.96625(19) 0.0420 Uani
N14 N 0.0953(5) 0.6529(3) 0.8464(2) 0.0511 Uani
loop_
_atom_site_aniso_label
_atom_site_aniso_U_11
_atom_site_aniso_U_22
_atom_site_aniso_U_33
_atom_site_aniso_U_23
_atom_site_aniso_U_13
_atom_site_aniso_U_12
Zn9 0.0397 0.0353 0.0341 -0.0035 0.0007 -0.009
C17 0.066 0.062 0.053 -0.002 0.018 0.003
C18 0.062 0.083 0.074 -0.004 0.031 0.01
C19 0.039 0.089 0.053 -0.02 0.012 -0.007
C20 0.036 0.099 0.099 0.001 0.018 0
C21 0.033 0.098 0.069 0.01 0.016 -0.006
N5 0.041 0.064 0.041 -0.0046 0.0081 0.001
N6 0.039 0.073 0.061 0.001 0.017 0.002
Zn3 0.0327 0.0395 0.0309 -0.0053 0.003 -0.0044
C46 0.052 0.058 0.054 -0.011 0.016 -0.009
C47 0.036 0.038 0.048 -0.006 -0.001 -0.004
C48 0.038 0.046 0.051 -0.007 -0.009 -0.002
O11 0.05 0.052 0.069 -0.0244 0.0069 -0.0095
O12 0.058 0.078 0.06 -0.0369 0.0087 -0.0093
S3 0.0524 0.0589 0.0407 -0.0139 0.0056 -0.0156
O18 0.062 0.053 0.058 0.0032 -0.0076 0.0087
N18 0.044 0.052 0.036 -0.0048 0.0086 -0.0075
C43 0.069 0.046 0.037 -0.004 0 -0.023
C44 0.056 0.04 0.037 -0.005 0.002 -0.013
C45 0.068 0.051 0.051 -0.01 0.016 -0.012
C59 0.051 0.075 0.048 0.016 0.015 0.012
C60 0.055 0.046 0.05 0.011 0.023 0.008
C61 0.069 0.041 0.063 0.004 0.005 0.001
C62 0.065 0.041 0.071 -0.007 0 -0.003
C63 0.038 0.051 0.047 0.001 0.01 -0.001
C64 0.037 0.063 0.037 0.004 0.01 0.004
O9 0.122 0.072 0.039 -0.0167 0.017 -0.057
O10 0.083 0.094 0.06 -0.014 0.021 -0.047
O13 0.115 0.099 0.091 0.035 -0.013 0.047
O14 0.056 0.113 0.06 -0.004 0.001 -0.013
O15 0.051 0.073 0.055 -0.0037 -0.0034 -0.0073
S4 0.0494 0.0423 0.0495 -0.0002 0.001 -0.0016
C54 0.074 0.078 0.03 -0.011 0.013 -0.01
C55 0.083 0.083 0.027 -0.004 0.008 -0.008
C56 0.08 0.06 0.039 0.002 0.023 -0.016
C57 0.063 0.053 0.049 -0.006 0.015 -0.02
C58 0.063 0.082 0.034 -0.01 0.01 -0.036
N15 0.06 0.063 0.026 -0.0051 0.0083 -0.014
C12 0.074 0.078 0.03 -0.011 0.013 -0.01
C13 0.083 0.083 0.027 -0.004 0.008 -0.008
C14 0.08 0.06 0.039 0.002 0.023 -0.016
C15 0.063 0.053 0.049 -0.006 0.015 -0.02
C16 0.063 0.082 0.034 -0.01 0.01 -0.036
N3 0.06 0.063 0.026 -0.0051 0.0083 -0.014
N4 0.044 0.052 0.036 -0.0048 0.0086 -0.0075
C33 0.066 0.062 0.053 -0.002 0.018 0.003
C34 0.062 0.083 0.074 -0.004 0.031 0.01
C35 0.039 0.089 0.053 -0.02 0.012 -0.007
C36 0.036 0.099 0.099 0.001 0.018 0
C37 0.033 0.098 0.069 0.01 0.016 -0.006
N9 0.041 0.064 0.041 -0.0046 0.0081 0.001
N10 0.039 0.073 0.061 0.001 0.017 0.002
Zn6 0.0327 0.0395 0.0309 -0.0053 0.003 -0.0044
Zn2 0.0397 0.0353 0.0341 -0.0035 0.0007 -0.009
C1 0.069 0.046 0.037 -0.004 0 -0.023
C2 0.056 0.04 0.037 -0.005 0.002 -0.013
C3 0.068 0.051 0.051 -0.01 0.016 -0.012
C27 0.051 0.075 0.048 0.016 0.015 0.012
C28 0.055 0.046 0.05 0.011 0.023 0.008
C29 0.069 0.041 0.063 0.004 0.005 0.001
C30 0.065 0.041 0.071 -0.007 0 -0.003
C31 0.038 0.051 0.047 0.001 0.01 -0.001
C32 0.037 0.063 0.037 0.004 0.01 0.004
O1 0.122 0.072 0.039 -0.0167 0.017 -0.057
O2 0.083 0.094 0.06 -0.014 0.021 -0.047
O5 0.115 0.099 0.091 0.035 -0.013 0.047
O6 0.056 0.113 0.06 -0.004 0.001 -0.013
O7 0.051 0.073 0.055 -0.0037 -0.0034 -0.0073
O8 0.062 0.053 0.058 0.0032 -0.0076 0.0087
S2 0.0494 0.0423 0.0495 -0.0002 0.001 -0.0016
C4 0.052 0.058 0.054 -0.011 0.016 -0.009
C5 0.036 0.038 0.048 -0.006 -0.001 -0.004
C6 0.038 0.046 0.051 -0.007 -0.009 -0.002
O3 0.05 0.052 0.069 -0.0244 0.0069 -0.0095
O4 0.058 0.078 0.06 -0.0369 0.0087 -0.0093
S1 0.0524 0.0589 0.0407 -0.0139 0.0056 -0.0156
C7 0.038 0.056 0.052 -0.008 0.007 -0.013
C8 0.059 0.07 0.052 0.008 0.026 -0.011
C9 0.054 0.059 0.035 -0.007 0.015 -0.016
C10 0.077 0.089 0.031 -0.01 0.007 -0.02
C11 0.063 0.08 0.03 -0.016 0.014 -0.021
N1 0.045 0.046 0.0317 -0.0109 0.0062 -0.0097
N2 0.057 0.062 0.034 -0.0059 0.0133 -0.011
C22 0.052 0.065 0.057 -0.011 0.016 0.003
C23 0.05 0.09 0.079 -0.018 0.028 0.009
C24 0.032 0.063 0.057 -0.017 0.013 -0.012
C25 0.036 0.109 0.131 -0.018 0.022 -0.015
C26 0.048 0.102 0.079 -0.016 0.018 -0.017
N7 0.033 0.05 0.04 -0.0073 0.0107 -0.0048
N8 0.036 0.079 0.066 -0.012 0.015 -0.01
C38 0.052 0.065 0.057 -0.011 0.016 0.003
C39 0.05 0.09 0.079 -0.018 0.028 0.009
C40 0.032 0.063 0.057 -0.017 0.013 -0.012
C41 0.036 0.109 0.131 -0.018 0.022 -0.015
C42 0.048 0.102 0.079 -0.016 0.018 -0.017
N11 0.033 0.05 0.04 -0.0073 0.0107 -0.0048
N12 0.036 0.079 0.066 -0.012 0.015 -0.01
C49 0.038 0.056 0.052 -0.008 0.007 -0.013
C50 0.059 0.07 0.052 0.008 0.026 -0.011
C51 0.054 0.059 0.035 -0.007 0.015 -0.016
C52 0.077 0.089 0.031 -0.01 0.007 -0.02
C53 0.063 0.08 0.03 -0.016 0.014 -0.021
N13 0.045 0.046 0.0317 -0.0109 0.0062 -0.0097
N14 0.057 0.062 0.034 -0.0059 0.0133 -0.011
loop_
_geom_bond_atom_site_label_1
_geom_bond_atom_site_label_2
_geom_bond_site_symmetry_1
_geom_bond_site_symmetry_2
C17 H17 1_555 1_555
C18 C17 1_555 1_555
H18 C18 1_555 1_555
C20 H20 1_555 1_555
C21 C20 1_555 1_555
H22 C21 1_555 1_555
H23 C21 1_555 1_555
N6 C18 1_555 1_555
C17 N5 1_555 1_555
C19 N5 1_555 1_555
C19 N6 1_555 1_555
C20 N6 1_555 1_555
H48 C46 1_555 1_555
C47 C46 1_555 1_555
C48 C47 1_555 1_555
O11 Zn3 1_555 1_555
O12 C48 1_555 1_555
O18 Zn3 1_555 1_555
N18 Zn3 1_555 1_555
C47 S3 1_555 1_555
C48 O11 1_555 1_555
Zn9 O9 1_555 1_555
C43 C44 1_555 1_555
C44 C45 1_555 1_555
C45 H47 1_555 1_555
C59 C60 1_555 1_555
C60 C61 1_555 1_555
C61 H63 1_555 1_555
C62 C61 1_555 1_555
H64 C62 1_555 1_555
C63 C62 1_555 1_555
C64 C63 1_555 1_555
O9 C43 1_555 1_555
O10 C43 1_555 1_555
O13 Zn9 1_555 1_555
O14 C59 1_555 1_555
O15 C64 1_555 1_555
O18 C64 1_555 1_555
S4 C60 1_555 1_555
C59 O13 1_555 1_555
C63 S4 1_555 1_555
H56 C54 1_555 1_555
H57 C54 1_555 1_555
C55 C54 1_555 1_555
H59 C55 1_555 1_555
C56 H60 1_555 1_555
C57 C56 1_555 1_555
H61 C57 1_555 1_555
C58 H62 1_555 1_555
N15 C55 1_555 1_555
N18 C57 1_555 1_555
C56 N15 1_555 1_555
C58 N15 1_555 1_555
C58 N18 1_555 1_555
H10 C12 1_555 1_555
H11 C12 1_555 1_555
C13 C12 1_555 1_555
H13 C13 1_555 1_555
C14 H14 1_555 1_555
C15 C14 1_555 1_555
H15 C15 1_555 1_555
C16 H16 1_555 1_555
N3 C13 1_555 1_555
N4 C15 1_555 1_555
C33 H33 1_555 1_555
C34 C33 1_555 1_555
H34 C34 1_555 1_555
C36 H36 1_555 1_555
H38 C37 1_555 1_555
H39 C37 1_555 1_555
N9 C33 1_555 1_555
N10 C34 1_555 1_555
Zn6 N4 1_555 1_555
C14 N3 1_555 1_555
C16 N3 1_555 1_555
C16 N4 1_555 1_555
C35 N9 1_555 1_555
C35 N10 1_555 1_555
C36 C37 1_555 1_555
C36 N10 1_555 1_555
Zn2 O1 1_555 1_555
C1 C2 1_555 1_555
C2 C3 1_555 1_555
C3 H1 1_555 1_555
C27 C28 1_555 1_555
C28 C29 1_555 1_555
C29 H31 1_555 1_555
C30 C29 1_555 1_555
H32 C30 1_555 1_555
C31 C30 1_555 1_555
C32 C31 1_555 1_555
O1 C1 1_555 1_555
O2 C1 1_555 1_555
O5 Zn2 1_555 1_555
O6 C27 1_555 1_555
O7 C32 1_555 1_555
O8 C32 1_555 1_555
S2 C28 1_555 1_555
Zn6 O8 1_555 1_555
C27 O5 1_555 1_555
C31 S2 1_555 1_555
Zn6 O3 1_555 1_555
H2 C4 1_555 1_555
C5 C4 1_555 1_555
C6 C5 1_555 1_555
O3 C6 1_555 1_555
O4 C6 1_555 1_555
C5 S1 1_555 1_555
C7 H3 1_555 1_555
C8 C7 1_555 1_555
H4 C8 1_555 1_555
C9 H5 1_555 1_555
H7 C10 1_555 1_555
C11 C10 1_555 1_555
H8 C11 1_555 1_555
H9 C11 1_555 1_555
N2 C8 1_555 1_555
C7 N1 1_555 1_555
C9 N1 1_555 1_555
C9 N2 1_555 1_555
C10 N2 1_555 1_555
C22 H24 1_555 1_555
C23 C22 1_555 1_555
H25 C23 1_555 1_555
C24 H26 1_555 1_555
C25 H27 1_555 1_555
H28 C25 1_555 1_555
C26 C25 1_555 1_555
H29 C26 1_555 1_555
H30 C26 1_555 1_555
N8 C23 1_555 1_555
C38 H40 1_555 1_555
C39 C38 1_555 1_555
H41 C39 1_555 1_555
C40 H42 1_555 1_555
C41 H43 1_555 1_555
H44 C41 1_555 1_555
C42 C26 1_555 1_555
H45 C42 1_555 1_555
H46 C42 1_555 1_555
N11 C38 1_555 1_555
N12 C39 1_555 1_555
C22 N7 1_555 1_555
C24 N7 1_555 1_555
C24 N8 1_555 1_555
C25 N8 1_555 1_555
C40 N11 1_555 1_555
C40 N12 1_555 1_555
C41 C42 1_555 1_555
C41 N12 1_555 1_555
C49 H49 1_555 1_555
C50 C49 1_555 1_555
H50 C50 1_555 1_555
C51 H51 1_555 1_555
H53 C52 1_555 1_555
C53 C52 1_555 1_555
H54 C53 1_555 1_555
H55 C53 1_555 1_555
N14 C50 1_555 1_555
C49 N13 1_555 1_555
C51 N13 1_555 1_555
C51 N14 1_555 1_555
C52 N14 1_555 1_555

#END
