
###############################################################################
#
# This file contains modified crystal structure data generated from the
# MOF subset of the Cambridge Structural Database (CSD) v543 
# hosted by the Cambridge Crystallographic Data Centre (CCDC).
#
# This work is licensed under the Creative Commons
# Attribution-NonCommercial-ShareAlike 4.0 International License.
# To view a copy of this license, visit
# http://creativecommons.org/licenses/by-nc-sa/4.0/
# or send a letter to
# Creative Commons, PO Box 1866, Mountain View, CA 94042, USA.
#
# CIF created using the CSD Python API on 29 September 2022
# The structure has been converted into the P1 space group
# The structure has a 3D framework
# The original CSD entry FUSQUH is in the monoclinic crystal system
# The framework has been calculated to contain at least 10.0% void space
# The void calculation uses a probe of radius 1.32A, grid spacing 0.4
# H atom positions have been added when not included in the experimental data
#
###############################################################################

data_FUSQUH
_chemical_formula_moiety         '(C544 H480 Co16 N64 O94)n'
_symmetry_cell_setting           triclinic
_symmetry_space_group_name_H-M   'P 1'
_symmetry_Int_Tables_number      1
_space_group_name_Hall           'P 1'
loop_
_symmetry_equiv_pos_site_id
_symmetry_equiv_pos_as_xyz
1 x,y,z
_cell_length_a                   38.226(7)
_cell_length_b                   13.456(2)
_cell_length_c                   33.945(7)
_cell_angle_alpha                90
_cell_angle_beta                 110.132(11)
_cell_angle_gamma                90
_cell_volume                     16393.5
loop_
_atom_site_label
_atom_site_type_symbol
_atom_site_fract_x
_atom_site_fract_y
_atom_site_fract_z
Co1 Co 0.00961(2) 0.31545(6) 0.04214(3)
Co2 Co 0.28975(2) 0.38202(6) 0.46733(3)
O1 O 0.26213(12) 0.3689(3) 0.40031(12)
O3 O 0.11850(11) 0.2859(3) 0.04194(14)
H1 H 0.0982 0.2988 0.0440
O4 O 0.22392(13) 0.3805(4) 0.32096(13)
H2 H 0.2405 0.3934 0.3432
O5 O 0.02423(13) 0.3761(4) 0.09889(14)
O6 O 0.04867(10) 0.3215(3) 0.01738(14)
O8 O 0.06344(13) 0.2583(4) 0.10729(14)
O9 O 0.23739(10) 0.2982(3) 0.44170(13)
C1 C 0.20679(17) 0.2742(5) 0.36923(18)
O10 O 0.12198(12) 0.2473(4) 0.17259(13)
H4 H 0.1073 0.2328 0.1493
C3 C 0.18163(16) 0.2321(5) 0.0282(2)
H5 H 0.1974 0.1889 0.0187
H6 H 0.1762 0.1979 0.0506
C4 C 0.22082(17) 0.3739(5) 0.0217(2)
C5 C 0.23677(17) 0.3173(5) 0.40486(19)
C6 C 0.16667(19) 0.3165(6) 0.2504(2)
H7 H 0.1707 0.2640 0.2329
H8 H 0.1857 0.3665 0.2533
C10 C 0.11463(17) 0.2767(4) 0.0012(2)
C11 C 0.0519(2) 0.3294(5) 0.1215(2)
C14 C 0.20161(19) 0.3086(5) 0.3273(2)
C16 C 0.20357(16) 0.3268(5) 0.0463(2)
C17 C 0.22706(18) 0.4570(6) 0.0990(2)
H11 H 0.0115 0.1345 0.0989
C18 C 0.1501(2) 0.1946(6) 0.2993(2)
C20 C 0.20718(16) 0.3679(6) 0.0862(2)
C21 C 0.24482(16) 0.5018(5) 0.0737(2)
H12 H 0.2585 0.5596 0.0828
C22 C 0.07356(18) 0.3670(5) 0.16410(19)
C23 C 0.1292(2) 0.3630(6) 0.2274(2)
C24 C 0.17271(19) 0.2733(6) 0.29326(19)
C27 C 0.19001(18) 0.3242(6) 0.1131(2)
H13 H 0.1763 0.2660 0.1050
C29 C 0.10813(19) 0.3264(6) 0.1883(2)
C31 C 0.24231(16) 0.4619(5) 0.0359(2)
C35 C 0.1557(2) 0.1588(6) 0.3398(2)
C36 C 0.1332(3) 0.0842(7) 0.3474(3)
H20 H 0.1373 0.0616 0.3745
C39 C 0.2311(2) 0.4984(8) 0.1383(3)
H24 H 0.2450 0.5561 0.1471
C42 C 0.1212(3) 0.1520(6) 0.2660(2)
H26 H 0.1169 0.1735 0.2387
C43 C 0.1937(2) 0.3679(8) 0.1510(3)
H27 H 0.1819 0.3392 0.1680
C44 C 0.1832(2) 0.2017(5) 0.3739(2)
H28 H 0.1857 0.1806 0.4008
C46 C 0.0993(3) 0.0796(8) 0.2732(3)
H30 H 0.0802 0.0527 0.2507
C48 C 0.0794(3) 0.4811(7) 0.2216(3)
C49 C 0.0595(2) 0.4426(6) 0.1805(2)
H34 H 0.0366 0.4701 0.1648
C50 C 0.2142(3) 0.4528(9) 0.1641(3)
H35 H 0.2169 0.4799 0.1902
C51 C 0.1151(3) 0.4434(6) 0.2437(2)
C52 C 0.0647(3) 0.5605(9) 0.2386(3)
H36 H 0.0411 0.5850 0.2239
C54 C 0.1046(3) 0.0446(9) 0.3135(4)
C55 C 0.1345(3) 0.4876(7) 0.2831(3)
H41 H 0.1580 0.4645 0.2991
C56 C 0.1188(4) 0.5637(9) 0.2976(3)
H42 H 0.1319 0.5913 0.3237
C57 C 0.0847(4) 0.6004(10) 0.2755(4)
H43 H 0.0752 0.6537 0.2860
C62 C 0.26144(17) 0.5136(5) 0.0090(2)
O11 O 0.28146(12) 0.5891(3) 0.02358(13)
N9 N 0.33500(12) 0.4599(4) 0.46607(16)
O13 O 0.28146(12) 0.4109(3) 0.52358(13)
O14 O 0.25726(11) 0.5207(3) 0.47330(14)
N10 N 0.31531(13) 0.2478(4) 0.48428(16)
O2 O 0.21829(11) 0.3357(3) 0.98424(14)
O7 O 0.01632(12) 0.3453(4) 0.94995(15)
C7 C 0.14530(16) 0.2475(4) 0.9921(2)
C8 C 0.04568(18) 0.3240(5) 0.9786(2)
C9 C 0.07974(16) 0.2963(4) 0.9690(2)
C15 C 0.14134(19) 0.2272(5) 0.9499(2)
C25 C 0.1068(2) 0.2492(5) 0.9162(2)
C28 C 0.1701(2) 0.1826(5) 0.9373(3)
H14 H 0.1928 0.1660 0.9577
C33 C 0.1014(2) 0.2303(6) 0.8738(2)
H18 H 0.0789 0.2445 0.8526
C34 C 0.07717(18) 0.2852(5) 0.9281(2)
H19 H 0.0549 0.3022 0.9072
C41 C 0.1311(3) 0.1896(7) 0.8649(3)
H25 H 0.1287 0.1786 0.8370
C45 C 0.1647(2) 0.1644(6) 0.8965(3)
H29 H 0.1835 0.1347 0.8892
O12 O 0.25726(11) 0.4793(3) 0.97330(14)
Co3 Co 0.28975(2) 0.61798(6) 0.96733(3)
H60 H 0.191702 0.332487 0.965943
N1 N 0.95600(14) 0.4194(4) 0.96868(18)
H3 H 0.9709 0.4132 0.9548
C26 C 0.92140(19) 0.4504(4) 0.9520(2)
C32 C 0.9038(2) 0.4768(6) 0.9068(2)
H15 H 0.9214 0.4667 0.8927
H16 H 0.8962 0.5452 0.9044
H17 H 0.8824 0.4354 0.8942
C37 C 0.90676(16) 0.4528(4) 0.9844(2)
C38 C 0.9524(2) 0.1607(6) 0.9643(2)
H21 H 0.9628 0.2250 0.9629
H22 H 0.9257 0.1654 0.9548
H23 H 0.9597 0.1151 0.9468
C58 C 0.86909(18) 0.0250(4) 0.9955(2)
N5 N 0.83849(14) 0.0075(4) 0.92972(16)
H44 H 0.8209 0.0088 0.9057
N6 N 0.83500(12) 0.0401(4) 0.96607(16)
C63 C 0.86751(15) 0.4810(5) 0.9816(2)
H52 H 0.8541 0.5057 0.9536
C64 C 0.84646(16) 0.3974(5) 0.9907(2)
C66 C 0.83437(17) 0.3108(5) 0.9667(2)
N8 N 0.81531(13) 0.2522(4) 0.98428(16)
C68 C 0.8412(2) 0.2818(5) 0.9273(2)
H57 H 0.8296 0.2190 0.9176
H58 H 0.8676 0.2764 0.9330
H59 H 0.8310 0.3314 0.9062
Co4 Co 0.78975(2) 0.11798(6) 0.96733(3)
C21_2 C 0.74482(16) 0.0018(5) 0.0737(2)
H12_2 H 0.7585 0.0596 0.0828
H24_2 H 0.7450 0.0561 0.1471
C52_2 C 0.5647(3) 0.0605(9) 0.2386(3)
H36_2 H 0.5411 0.0850 0.2239
C56_2 C 0.6188(4) 0.0637(9) 0.2976(3)
H42_2 H 0.6319 0.0913 0.3237
C57_2 C 0.5847(4) 0.1004(10) 0.2755(4)
H43_2 H 0.5752 0.1537 0.2860
C62_2 C 0.76144(17) 0.0136(5) 0.0090(2)
O11_2 O 0.78146(12) 0.0891(3) 0.02358(13)
H51 H 0.3689 0.0345 0.0012
H54 H 0.3501 0.0144 0.0583
O14_2 O 0.75726(11) 0.0207(3) 0.47330(14)
H16_2 H 0.3962 0.0452 0.9044
H52_2 H 0.3541 0.0057 0.9536
Co1_2 Co 0.50961(2) 0.81545(6) 0.04214(3)
Co2_2 Co 0.78975(2) 0.88202(6) 0.46733(3)
O1_2 O 0.76213(12) 0.8689(3) 0.40031(12)
O3_2 O 0.61850(11) 0.7859(3) 0.04194(14)
H1_2 H 0.5982 0.7988 0.0440
O4_2 O 0.72392(13) 0.8805(4) 0.32096(13)
H2_2 H 0.7405 0.8934 0.3432
O5_2 O 0.52423(13) 0.8761(4) 0.09889(14)
O6_2 O 0.54867(10) 0.8215(3) 0.01738(14)
O8_2 O 0.56344(13) 0.7583(4) 0.10729(14)
O9_2 O 0.73739(10) 0.7982(3) 0.44170(13)
C1_2 C 0.70679(17) 0.7742(5) 0.36923(18)
N2 N 0.46571(13) 0.8983(4) 0.00986(17)
O10_2 O 0.62198(12) 0.7473(4) 0.17259(13)
H4_2 H 0.6073 0.7328 0.1493
C2 C 0.43528(17) 0.9190(5) 0.0196(2)
C3_2 C 0.68163(16) 0.7321(5) 0.0282(2)
H5_2 H 0.6974 0.6889 0.0187
H6_2 H 0.6762 0.6979 0.0506
C4_2 C 0.72082(17) 0.8739(5) 0.0217(2)
C5_2 C 0.73677(17) 0.8173(5) 0.40486(19)
C6_2 C 0.66667(19) 0.8165(6) 0.2504(2)
H7_2 H 0.6707 0.7640 0.2329
H8_2 H 0.6857 0.8665 0.2533
N3 N 0.48970(14) 0.6768(4) 0.04049(18)
C10_2 C 0.61463(17) 0.7767(4) 0.0012(2)
C11_2 C 0.5519(2) 0.8294(5) 0.1215(2)
H10 H 0.4332 0.3983 0.0184
C13 C 0.45828(17) 0.5337(5) 0.0243(2)
C14_2 C 0.70161(19) 0.8086(5) 0.3273(2)
C16_2 C 0.70357(16) 0.8268(5) 0.0463(2)
C17_2 C 0.72706(18) 0.9570(6) 0.0990(2)
N4 N 0.49661(15) 0.6184(5) 0.0743(2)
H11_2 H 0.5115 0.6345 0.0989
C18_2 C 0.6501(2) 0.6946(6) 0.2993(2)
C19 C 0.46667(17) 0.6237(5) 0.0095(2)
C20_2 C 0.70718(16) 0.8679(6) 0.0862(2)
C22_2 C 0.57356(18) 0.8670(5) 0.16410(19)
C23_2 C 0.6292(2) 0.8630(6) 0.2274(2)
C24_2 C 0.67271(19) 0.7733(6) 0.29326(19)
C27_2 C 0.69001(18) 0.8242(6) 0.1131(2)
H13_2 H 0.6763 0.7660 0.1050
C29_2 C 0.60813(19) 0.8264(6) 0.1883(2)
C31_2 C 0.74231(16) 0.9619(5) 0.0359(2)
C35_2 C 0.6557(2) 0.6588(6) 0.3398(2)
C36_2 C 0.6332(3) 0.5842(7) 0.3474(3)
H20_2 H 0.6373 0.5616 0.3745
C39_2 C 0.7311(2) 0.9984(8) 0.1383(3)
C40 C 0.4781(2) 0.5333(6) 0.0660(2)
C42_2 C 0.6212(3) 0.6520(6) 0.2660(2)
H26_2 H 0.6169 0.6735 0.2387
C43_2 C 0.6937(2) 0.8679(8) 0.1510(3)
H27_2 H 0.6819 0.8392 0.1680
C44_2 C 0.6832(2) 0.7017(5) 0.3739(2)
H28_2 H 0.6857 0.6806 0.4008
C46_2 C 0.5993(3) 0.5796(8) 0.2732(3)
H30_2 H 0.5802 0.5527 0.2507
C47 C 0.43480(18) 0.9070(6) 0.0631(2)
H31 H 0.4585 0.8824 0.0810
H32 H 0.4156 0.8607 0.0629
H33 H 0.4299 0.9700 0.0734
C48_2 C 0.5794(3) 0.9811(7) 0.2216(3)
C49_2 C 0.5595(2) 0.9426(6) 0.1805(2)
H34_2 H 0.5366 0.9701 0.1648
C50_2 C 0.7142(3) 0.9528(9) 0.1641(3)
H35_2 H 0.7169 0.9799 0.1902
C51_2 C 0.6151(3) 0.9434(6) 0.2437(2)
C53 C 0.4810(3) 0.4604(7) 0.1008(3)
H37 H 0.4981 0.4855 0.1268
H38 H 0.4899 0.3977 0.0945
H39 H 0.4569 0.4515 0.1032
C54_2 C 0.6046(3) 0.5446(9) 0.3135(4)
H40 H 0.5893 0.4953 0.3177
C55_2 C 0.6345(3) 0.9876(7) 0.2831(3)
H41_2 H 0.6580 0.9645 0.2991
C60 C 0.37526(18) 0.5547(5) 0.0386(2)
H45 H 0.3526 0.5811 0.0406
H46 H 0.3943 0.6046 0.0470
H47 H 0.3829 0.4980 0.0567
C65 C 0.33318(16) 0.8896(5) 0.0235(2)
N7 N 0.31483(13) 0.8008(4) 0.01855(17)
H53 H 0.3042 0.7787 0.0354
C67 C 0.33652(18) 0.9556(5) 0.0600(2)
H55 H 0.3495 0.9210 0.0856
H56 H 0.3121 0.9738 0.0595
N9_2 N 0.83500(12) 0.9599(4) 0.46607(16)
O13_2 O 0.78146(12) 0.9109(3) 0.52358(13)
N10_2 N 0.81531(13) 0.7478(4) 0.48428(16)
O2_2 O 0.71829(11) 0.8357(3) 0.98424(14)
N1_2 N 0.45600(14) 0.9194(4) 0.96868(18)
H3_2 H 0.4709 0.9132 0.9548
O7_2 O 0.51632(12) 0.8453(4) 0.94995(15)
C7_2 C 0.64530(16) 0.7475(4) 0.9921(2)
C8_2 C 0.54568(18) 0.8240(5) 0.9786(2)
C9_2 C 0.57974(16) 0.7963(4) 0.9690(2)
C12 C 0.43292(17) 0.4527(5) 0.9995(2)
H9 H 0.4430 0.4277 0.9788
C15_2 C 0.64134(19) 0.7272(5) 0.9499(2)
C25_2 C 0.6068(2) 0.7492(5) 0.9162(2)
C26_2 C 0.42140(19) 0.9504(4) 0.9520(2)
C28_2 C 0.6701(2) 0.6826(5) 0.9373(3)
H14_2 H 0.6928 0.6660 0.9577
C30 C 0.39342(16) 0.4832(4) 0.9774(2)
C32_2 C 0.4038(2) 0.9768(6) 0.9068(2)
H15_2 H 0.4214 0.9667 0.8927
H17_2 H 0.3824 0.9354 0.8942
C33_2 C 0.6014(2) 0.7303(6) 0.8738(2)
H18_2 H 0.5789 0.7445 0.8526
C34_2 C 0.57717(18) 0.7852(5) 0.9281(2)
H19_2 H 0.5549 0.8022 0.9072
C37_2 C 0.40676(16) 0.9528(4) 0.9844(2)
C38_2 C 0.4524(2) 0.6607(6) 0.9643(2)
H21_2 H 0.4628 0.7250 0.9629
H22_2 H 0.4257 0.6654 0.9548
H23_2 H 0.4597 0.6151 0.9468
C41_2 C 0.6311(3) 0.6896(7) 0.8649(3)
H25_2 H 0.6287 0.6786 0.8370
C45_2 C 0.6647(2) 0.6644(6) 0.8965(3)
H29_2 H 0.6835 0.6347 0.8892
C58_2 C 0.36909(18) 0.5250(4) 0.9955(2)
C59 C 0.37331(19) 0.4727(5) 0.9361(2)
N5_2 N 0.33849(14) 0.5075(4) 0.92972(16)
H44_2 H 0.3209 0.5088 0.9057
N6_2 N 0.33500(12) 0.5401(4) 0.96607(16)
C61 C 0.3830(2) 0.4300(6) 0.9004(2)
H48 H 0.3619 0.4355 0.8749
H49 H 0.3897 0.3613 0.9059
H50 H 0.4037 0.4659 0.8974
O12_2 O 0.75726(11) 0.9793(3) 0.97330(14)
C63_2 C 0.36751(15) 0.9810(5) 0.9816(2)
C64_2 C 0.34646(16) 0.8974(5) 0.9907(2)
C66_2 C 0.33437(17) 0.8108(5) 0.9667(2)
N8_2 N 0.31531(13) 0.7522(4) 0.98428(16)
C68_2 C 0.3412(2) 0.7818(5) 0.9273(2)
H57_2 H 0.3296 0.7190 0.9176
H58_2 H 0.3676 0.7764 0.9330
H59_2 H 0.3310 0.8314 0.9062
H60_2 H 0.691702 0.832487 0.965943
Co1_3 Co 0.00961(2) 0.68455(6) 0.54214(3)
O1_3 O 0.26213(12) 0.6311(3) 0.90031(12)
O2_3 O 0.21829(11) 0.6643(3) 0.48424(14)
O3_3 O 0.11850(11) 0.7141(3) 0.54194(14)
H1_3 H 0.0982 0.7012 0.5440
O4_3 O 0.22392(13) 0.6195(4) 0.82096(13)
H2_3 H 0.2405 0.6066 0.8432
O5_3 O 0.02423(13) 0.6239(4) 0.59889(14)
O6_3 O 0.04867(10) 0.6785(3) 0.51738(14)
O7_3 O 0.01632(12) 0.6547(4) 0.44995(15)
O8_3 O 0.06344(13) 0.7417(4) 0.60729(14)
O9_3 O 0.23739(10) 0.7018(3) 0.94170(13)
C1_3 C 0.20679(17) 0.7258(5) 0.86923(18)
O10_3 O 0.12198(12) 0.7527(4) 0.67259(13)
H4_3 H 0.1073 0.7672 0.6493
C3_3 C 0.18163(16) 0.7679(5) 0.5282(2)
H5_3 H 0.1974 0.8111 0.5187
H6_3 H 0.1762 0.8021 0.5506
C4_3 C 0.22082(17) 0.6261(5) 0.5217(2)
C5_3 C 0.23677(17) 0.6827(5) 0.90486(19)
C6_3 C 0.16667(19) 0.6835(6) 0.7504(2)
H7_3 H 0.1707 0.7360 0.7329
H8_3 H 0.1857 0.6335 0.7533
C7_3 C 0.14530(16) 0.7525(4) 0.4921(2)
C8_3 C 0.04568(18) 0.6760(5) 0.4786(2)
C9_3 C 0.07974(16) 0.7037(4) 0.4690(2)
C10_3 C 0.11463(17) 0.7233(4) 0.5012(2)
C11_3 C 0.0519(2) 0.6706(5) 0.6215(2)
C14_3 C 0.20161(19) 0.6914(5) 0.8273(2)
C15_3 C 0.14134(19) 0.7728(5) 0.4499(2)
C16_3 C 0.20357(16) 0.6732(5) 0.5463(2)
C17_3 C 0.22706(18) 0.5430(6) 0.5990(2)
H11_3 H 0.0115 0.8655 0.5989
C18_3 C 0.1501(2) 0.8054(6) 0.7993(2)
C20_3 C 0.20718(16) 0.6321(6) 0.5862(2)
C21_3 C 0.24482(16) 0.4982(5) 0.5737(2)
H12_3 H 0.2585 0.4404 0.5828
C22_3 C 0.07356(18) 0.6330(5) 0.66410(19)
C23_3 C 0.1292(2) 0.6370(6) 0.7274(2)
C24_3 C 0.17271(19) 0.7267(6) 0.79326(19)
C25_3 C 0.1068(2) 0.7508(5) 0.4162(2)
C27_3 C 0.19001(18) 0.6758(6) 0.6131(2)
H13_3 H 0.1763 0.7340 0.6050
C28_3 C 0.1701(2) 0.8174(5) 0.4373(3)
H14_3 H 0.1928 0.8340 0.4577
C29_3 C 0.10813(19) 0.6736(6) 0.6883(2)
C31_3 C 0.24231(16) 0.5381(5) 0.5359(2)
C33_3 C 0.1014(2) 0.7697(6) 0.3738(2)
H18_3 H 0.0789 0.7555 0.3526
C34_3 C 0.07717(18) 0.7148(5) 0.4281(2)
H19_3 H 0.0549 0.6978 0.4072
C35_3 C 0.1557(2) 0.8412(6) 0.8398(2)
C36_3 C 0.1332(3) 0.9158(7) 0.8474(3)
H20_3 H 0.1373 0.9384 0.8745
C39_3 C 0.2311(2) 0.5016(8) 0.6383(3)
H24_3 H 0.2450 0.4439 0.6471
C41_3 C 0.1311(3) 0.8104(7) 0.3649(3)
H25_3 H 0.1287 0.8214 0.3370
C42_3 C 0.1212(3) 0.8480(6) 0.7660(2)
H26_3 H 0.1169 0.8265 0.7387
C43_3 C 0.1937(2) 0.6321(8) 0.6510(3)
H27_3 H 0.1819 0.6608 0.6680
C44_3 C 0.1832(2) 0.7983(5) 0.8739(2)
H28_3 H 0.1857 0.8194 0.9008
C45_3 C 0.1647(2) 0.8356(6) 0.3965(3)
H29_3 H 0.1835 0.8653 0.3892
C46_3 C 0.0993(3) 0.9204(8) 0.7732(3)
H30_3 H 0.0802 0.9473 0.7507
C48_3 C 0.0794(3) 0.5189(7) 0.7216(3)
C49_3 C 0.0595(2) 0.5574(6) 0.6805(2)
H34_3 H 0.0366 0.5299 0.6648
C50_3 C 0.2142(3) 0.5472(9) 0.6641(3)
H35_3 H 0.2169 0.5201 0.6902
C51_3 C 0.1151(3) 0.5566(6) 0.7437(2)
C52_3 C 0.0647(3) 0.4395(9) 0.7386(3)
H36_3 H 0.0411 0.4150 0.7239
C54_3 C 0.1046(3) 0.9554(9) 0.8135(4)
C55_3 C 0.1345(3) 0.5124(7) 0.7831(3)
H41_3 H 0.1580 0.5355 0.7991
C56_3 C 0.1188(4) 0.4363(9) 0.7976(3)
H42_3 H 0.1319 0.4087 0.8237
C57_3 C 0.0847(4) 0.3996(10) 0.7755(4)
H43_3 H 0.0752 0.3463 0.7860
C62_3 C 0.26144(17) 0.4864(5) 0.5090(2)
H60_3 H 0.191702 0.667513 0.465943
N1_3 N 0.95600(14) 0.5806(4) 0.46868(18)
H3_3 H 0.9709 0.5868 0.4548
N2_2 N 0.96571(13) 0.6017(4) 0.50986(17)
C2_2 C 0.93528(17) 0.5810(5) 0.5196(2)
N3_2 N 0.98970(14) 0.8232(4) 0.54049(18)
C13_2 C 0.95828(17) 0.9663(5) 0.5243(2)
N4_2 N 0.99661(15) 0.8816(5) 0.5743(2)
C19_2 C 0.96667(17) 0.8763(5) 0.5095(2)
C26_3 C 0.92140(19) 0.5496(4) 0.4520(2)
C32_3 C 0.9038(2) 0.5232(6) 0.4068(2)
H15_3 H 0.9214 0.5333 0.3927
H16_3 H 0.8962 0.4548 0.4044
H17_3 H 0.8824 0.5646 0.3942
C37_3 C 0.90676(16) 0.5472(4) 0.4844(2)
C38_3 C 0.9524(2) 0.8393(6) 0.4643(2)
H21_3 H 0.9628 0.7750 0.4629
H22_3 H 0.9257 0.8346 0.4548
H23_3 H 0.9597 0.8849 0.4468
C40_2 C 0.9781(2) 0.9667(6) 0.5660(2)
C47_2 C 0.93480(18) 0.5930(6) 0.5631(2)
H31_2 H 0.9585 0.6176 0.5810
H32_2 H 0.9156 0.6393 0.5629
H33_2 H 0.9299 0.5300 0.5734
C58_3 C 0.86909(18) 0.9750(4) 0.4955(2)
N5_3 N 0.83849(14) 0.9925(4) 0.42972(16)
H44_3 H 0.8209 0.9912 0.4057
C60_2 C 0.87526(18) 0.9453(5) 0.5386(2)
H45_2 H 0.8526 0.9189 0.5406
H46_2 H 0.8943 0.8954 0.5470
C63_3 C 0.86751(15) 0.5190(5) 0.4816(2)
H51_2 H 0.8689 0.4655 0.5012
H52_3 H 0.8541 0.4943 0.4536
C64_3 C 0.84646(16) 0.6026(5) 0.4907(2)
C65_2 C 0.83318(16) 0.6104(5) 0.5235(2)
C66_3 C 0.83437(17) 0.6892(5) 0.4667(2)
N7_2 N 0.81483(13) 0.6992(4) 0.51855(17)
H53_2 H 0.8042 0.7213 0.5354
C67_2 C 0.83652(18) 0.5444(5) 0.5600(2)
H54_2 H 0.8501 0.4856 0.5583
H55_2 H 0.8495 0.5790 0.5856
H56_2 H 0.8121 0.5262 0.5595
C68_3 C 0.8412(2) 0.7182(5) 0.4273(2)
H57_3 H 0.8296 0.7810 0.4176
H58_3 H 0.8676 0.7236 0.4330
H59_3 H 0.8310 0.6686 0.4062
Co1_4 Co 0.50961(2) 0.18455(6) 0.54214(3)
O1_4 O 0.76213(12) 0.1311(3) 0.90031(12)
O2_4 O 0.71829(11) 0.1643(3) 0.48424(14)
O3_4 O 0.61850(11) 0.2141(3) 0.54194(14)
H1_4 H 0.5982 0.2012 0.5440
O4_4 O 0.72392(13) 0.1195(4) 0.82096(13)
H2_4 H 0.7405 0.1066 0.8432
O5_4 O 0.52423(13) 0.1239(4) 0.59889(14)
O6_4 O 0.54867(10) 0.1785(3) 0.51738(14)
N1_4 N 0.45600(14) 0.0806(4) 0.46868(18)
H3_4 H 0.4709 0.0868 0.4548
O7_4 O 0.51632(12) 0.1547(4) 0.44995(15)
O8_4 O 0.56344(13) 0.2417(4) 0.60729(14)
O9_4 O 0.73739(10) 0.2018(3) 0.94170(13)
C1_4 C 0.70679(17) 0.2258(5) 0.86923(18)
N2_3 N 0.46571(13) 0.1017(4) 0.50986(17)
O10_4 O 0.62198(12) 0.2527(4) 0.67259(13)
H4_4 H 0.6073 0.2672 0.6493
C2_3 C 0.43528(17) 0.0810(5) 0.5196(2)
C3_4 C 0.68163(16) 0.2679(5) 0.5282(2)
H5_4 H 0.6974 0.3111 0.5187
H6_4 H 0.6762 0.3021 0.5506
C4_4 C 0.72082(17) 0.1261(5) 0.5217(2)
C5_4 C 0.73677(17) 0.1827(5) 0.90486(19)
C6_4 C 0.66667(19) 0.1835(6) 0.7504(2)
H7_4 H 0.6707 0.2360 0.7329
H8_4 H 0.6857 0.1335 0.7533
N3_3 N 0.48970(14) 0.3232(4) 0.54049(18)
C7_4 C 0.64530(16) 0.2525(4) 0.4921(2)
C8_4 C 0.54568(18) 0.1760(5) 0.4786(2)
C9_4 C 0.57974(16) 0.2037(4) 0.4690(2)
C10_4 C 0.61463(17) 0.2233(4) 0.5012(2)
C11_4 C 0.5519(2) 0.1706(5) 0.6215(2)
C12_2 C 0.43292(17) 0.5473(5) 0.4995(2)
H9_2 H 0.4430 0.5723 0.4788
H10_2 H 0.4332 0.6017 0.5184
C13_3 C 0.45828(17) 0.4663(5) 0.5243(2)
C14_4 C 0.70161(19) 0.1914(5) 0.8273(2)
C15_4 C 0.64134(19) 0.2728(5) 0.4499(2)
C16_4 C 0.70357(16) 0.1732(5) 0.5463(2)
C17_4 C 0.72706(18) 0.0430(6) 0.5990(2)
N4_3 N 0.49661(15) 0.3816(5) 0.5743(2)
H11_4 H 0.5115 0.3655 0.5989
C18_4 C 0.6501(2) 0.3054(6) 0.7993(2)
C19_3 C 0.46667(17) 0.3763(5) 0.5095(2)
C20_4 C 0.70718(16) 0.1321(6) 0.5862(2)
C22_4 C 0.57356(18) 0.1330(5) 0.66410(19)
C23_4 C 0.6292(2) 0.1370(6) 0.7274(2)
C24_4 C 0.67271(19) 0.2267(6) 0.79326(19)
C25_4 C 0.6068(2) 0.2508(5) 0.4162(2)
C26_4 C 0.42140(19) 0.0496(4) 0.4520(2)
C27_4 C 0.69001(18) 0.1758(6) 0.6131(2)
H13_4 H 0.6763 0.2340 0.6050
C28_4 C 0.6701(2) 0.3174(5) 0.4373(3)
H14_4 H 0.6928 0.3340 0.4577
C29_4 C 0.60813(19) 0.1736(6) 0.6883(2)
C30_2 C 0.39342(16) 0.5168(4) 0.4774(2)
C31_4 C 0.74231(16) 0.0381(5) 0.5359(2)
C32_4 C 0.4038(2) 0.0232(6) 0.4068(2)
H15_4 H 0.4214 0.0333 0.3927
H17_4 H 0.3824 0.0646 0.3942
C33_4 C 0.6014(2) 0.2697(6) 0.3738(2)
H18_4 H 0.5789 0.2555 0.3526
C34_4 C 0.57717(18) 0.2148(5) 0.4281(2)
H19_4 H 0.5549 0.1978 0.4072
C35_4 C 0.6557(2) 0.3412(6) 0.8398(2)
C36_4 C 0.6332(3) 0.4158(7) 0.8474(3)
H20_4 H 0.6373 0.4384 0.8745
C37_4 C 0.40676(16) 0.0472(4) 0.4844(2)
C38_4 C 0.4524(2) 0.3393(6) 0.4643(2)
H21_4 H 0.4628 0.2750 0.4629
H22_4 H 0.4257 0.3346 0.4548
H23_4 H 0.4597 0.3849 0.4468
C39_4 C 0.7311(2) 0.0016(8) 0.6383(3)
C40_3 C 0.4781(2) 0.4667(6) 0.5660(2)
C41_4 C 0.6311(3) 0.3104(7) 0.3649(3)
H25_4 H 0.6287 0.3214 0.3370
C42_4 C 0.6212(3) 0.3480(6) 0.7660(2)
H26_4 H 0.6169 0.3265 0.7387
C43_4 C 0.6937(2) 0.1321(8) 0.6510(3)
H27_4 H 0.6819 0.1608 0.6680
C44_4 C 0.6832(2) 0.2983(5) 0.8739(2)
H28_4 H 0.6857 0.3194 0.9008
C45_4 C 0.6647(2) 0.3356(6) 0.3965(3)
H29_4 H 0.6835 0.3653 0.3892
C46_4 C 0.5993(3) 0.4204(8) 0.7732(3)
H30_4 H 0.5802 0.4473 0.7507
C47_3 C 0.43480(18) 0.0930(6) 0.5631(2)
H31_3 H 0.4585 0.1176 0.5810
H32_3 H 0.4156 0.1393 0.5629
H33_3 H 0.4299 0.0300 0.5734
C48_4 C 0.5794(3) 0.0189(7) 0.7216(3)
C49_4 C 0.5595(2) 0.0574(6) 0.6805(2)
H34_4 H 0.5366 0.0299 0.6648
C50_4 C 0.7142(3) 0.0472(9) 0.6641(3)
H35_4 H 0.7169 0.0201 0.6902
C51_4 C 0.6151(3) 0.0566(6) 0.7437(2)
C53_2 C 0.4810(3) 0.5396(7) 0.6008(3)
H37_2 H 0.4981 0.5145 0.6268
H38_2 H 0.4899 0.6023 0.5945
H39_2 H 0.4569 0.5485 0.6032
C54_4 C 0.6046(3) 0.4554(9) 0.8135(4)
H40_2 H 0.5893 0.5047 0.8177
C55_4 C 0.6345(3) 0.0124(7) 0.7831(3)
H41_4 H 0.6580 0.0355 0.7991
C58_4 C 0.36909(18) 0.4750(4) 0.4955(2)
C59_2 C 0.37331(19) 0.5273(5) 0.4361(2)
N5_4 N 0.33849(14) 0.4925(4) 0.42972(16)
H44_4 H 0.3209 0.4912 0.4057
C60_3 C 0.37526(18) 0.4453(5) 0.5386(2)
H45_3 H 0.3526 0.4189 0.5406
H46_3 H 0.3943 0.3954 0.5470
H47_2 H 0.3829 0.5020 0.5567
C61_2 C 0.3830(2) 0.5700(6) 0.4004(2)
H48_2 H 0.3619 0.5645 0.3749
H49_2 H 0.3897 0.6387 0.4059
H50_2 H 0.4037 0.5341 0.3974
C63_4 C 0.36751(15) 0.0190(5) 0.4816(2)
C64_4 C 0.34646(16) 0.1026(5) 0.4907(2)
C65_3 C 0.33318(16) 0.1104(5) 0.5235(2)
C66_4 C 0.33437(17) 0.1892(5) 0.4667(2)
N7_3 N 0.31483(13) 0.1992(4) 0.51855(17)
H53_3 H 0.3042 0.2213 0.5354
C67_3 C 0.33652(18) 0.0444(5) 0.5600(2)
H55_3 H 0.3495 0.0790 0.5856
H56_3 H 0.3121 0.0262 0.5595
C68_4 C 0.3412(2) 0.2182(5) 0.4273(2)
H57_4 H 0.3296 0.2810 0.4176
H58_4 H 0.3676 0.2236 0.4330
H59_4 H 0.3310 0.1686 0.4062
H60_4 H 0.691702 0.167513 0.465943
C21_4 C 0.74482(16) 0.9982(5) 0.5737(2)
H12_4 H 0.7585 0.9404 0.5828
H16_4 H 0.3962 0.9548 0.4044
H24_4 H 0.7450 0.9439 0.6471
C52_4 C 0.5647(3) 0.9395(9) 0.7386(3)
H36_4 H 0.5411 0.9150 0.7239
C56_4 C 0.6188(4) 0.9363(9) 0.7976(3)
H42_4 H 0.6319 0.9087 0.8237
C57_4 C 0.5847(4) 0.8996(10) 0.7755(4)
H43_4 H 0.5752 0.8463 0.7860
C62_4 C 0.76144(17) 0.9864(5) 0.5090(2)
H51_3 H 0.3689 0.9655 0.5012
H52_4 H 0.3541 0.9943 0.4536
H54_3 H 0.3501 0.9856 0.5583
H40_3 H 0.0893 0.9953 0.3177
N2_4 N 0.96571(13) 0.3983(4) 0.00986(17)
C2_4 C 0.93528(17) 0.4190(5) 0.0196(2)
N3_4 N 0.98970(14) 0.1768(4) 0.04049(18)
C13_4 C 0.95828(17) 0.0337(5) 0.0243(2)
N4_4 N 0.99661(15) 0.1184(5) 0.0743(2)
C19_4 C 0.96667(17) 0.1237(5) 0.0095(2)
C40_4 C 0.9781(2) 0.0333(6) 0.0660(2)
C47_4 C 0.93480(18) 0.4070(6) 0.0631(2)
H31_4 H 0.9585 0.3824 0.0810
H32_4 H 0.9156 0.3607 0.0629
H33_4 H 0.9299 0.4700 0.0734
C60_4 C 0.87526(18) 0.0547(5) 0.0386(2)
H45_4 H 0.8526 0.0811 0.0406
H46_4 H 0.8943 0.1046 0.0470
H51_4 H 0.8689 0.5345 0.0012
C65_4 C 0.83318(16) 0.3896(5) 0.0235(2)
N7_4 N 0.81483(13) 0.3008(4) 0.01855(17)
H53_4 H 0.8042 0.2787 0.0354
C67_4 C 0.83652(18) 0.4556(5) 0.0600(2)
H54_4 H 0.8501 0.5144 0.0583
H55_4 H 0.8495 0.4210 0.0856
H56_4 H 0.8121 0.4738 0.0595
H10_3 H 0.9332 0.8983 0.0184
C53_3 C 0.9810(3) 0.9604(7) 0.1008(3)
H37_3 H 0.9981 0.9855 0.1268
H38_3 H 0.9899 0.8977 0.0945
H39_3 H 0.9569 0.9515 0.1032
H47_3 H 0.8829 0.9980 0.0567
C12_3 C 0.93292(17) 0.9527(5) 0.9995(2)
H9_3 H 0.9430 0.9277 0.9788
C30_3 C 0.89342(16) 0.9832(4) 0.9774(2)
C59_3 C 0.87331(19) 0.9727(5) 0.9361(2)
C61_3 C 0.8830(2) 0.9300(6) 0.9004(2)
H48_3 H 0.8619 0.9355 0.8749
H49_3 H 0.8897 0.8613 0.9059
H50_3 H 0.9037 0.9659 0.8974
N1_5 N 0.04400(14) 0.4194(4) 0.53132(18)
H3_5 H 0.0291 0.4132 0.5452
N2_5 N 0.03429(13) 0.3983(4) 0.49014(17)
C2_5 C 0.06472(17) 0.4190(5) 0.4804(2)
N3_5 N 0.01030(14) 0.1768(4) 0.45951(18)
C13_5 C 0.04172(17) 0.0337(5) 0.4757(2)
N4_5 N 0.00339(15) 0.1184(5) 0.4257(2)
C19_5 C 0.03333(17) 0.1237(5) 0.4905(2)
C26_5 C 0.07860(19) 0.4504(4) 0.5480(2)
C32_5 C 0.0962(2) 0.4768(6) 0.5932(2)
H15_5 H 0.0786 0.4667 0.6073
H16_5 H 0.1038 0.5452 0.5956
H17_5 H 0.1176 0.4354 0.6058
C37_5 C 0.09324(16) 0.4528(4) 0.5156(2)
C38_5 C 0.0476(2) 0.1607(6) 0.5357(2)
H21_5 H 0.0372 0.2250 0.5371
H22_5 H 0.0743 0.1654 0.5452
H23_5 H 0.0403 0.1151 0.5532
C40_5 C 0.0219(2) 0.0333(6) 0.4340(2)
C47_5 C 0.06520(18) 0.4070(6) 0.4369(2)
H31_5 H 0.0415 0.3824 0.4190
H32_5 H 0.0844 0.3607 0.4371
H33_5 H 0.0701 0.4700 0.4266
C58_5 C 0.13091(18) 0.0250(4) 0.5045(2)
N5_5 N 0.16151(14) 0.0075(4) 0.57028(16)
H44_5 H 0.1791 0.0088 0.5943
N6_3 N 0.16500(12) 0.0401(4) 0.53393(16)
C60_5 C 0.12474(18) 0.0547(5) 0.4614(2)
H45_5 H 0.1474 0.0811 0.4594
H46_5 H 0.1057 0.1046 0.4530
C63_5 C 0.13249(15) 0.4810(5) 0.5184(2)
H51_5 H 0.1311 0.5345 0.4988
H52_5 H 0.1459 0.5057 0.5464
C64_5 C 0.15354(16) 0.3974(5) 0.5093(2)
C65_5 C 0.16682(16) 0.3896(5) 0.4765(2)
C66_5 C 0.16563(17) 0.3108(5) 0.5333(2)
N7_5 N 0.18517(13) 0.3008(4) 0.48145(17)
H53_5 H 0.1958 0.2787 0.4646
N8_3 N 0.18469(13) 0.2522(4) 0.51572(16)
C67_5 C 0.16348(18) 0.4556(5) 0.4400(2)
H54_5 H 0.1499 0.5144 0.4417
H55_5 H 0.1505 0.4210 0.4144
H56_5 H 0.1879 0.4738 0.4405
C68_5 C 0.1588(2) 0.2818(5) 0.5727(2)
H57_5 H 0.1704 0.2190 0.5824
H58_5 H 0.1324 0.2764 0.5670
H59_5 H 0.1690 0.3314 0.5938
Co4_2 Co 0.21025(2) 0.11798(6) 0.53267(3)
Co1_5 Co 0.99039(2) 0.31545(6) 0.45786(3)
Co2_3 Co 0.71025(2) 0.38202(6) 0.03267(3)
O1_5 O 0.73787(12) 0.3689(3) 0.09969(12)
O2_5 O 0.78171(11) 0.3357(3) 0.51576(14)
O3_5 O 0.88150(11) 0.2859(3) 0.45806(14)
H1_5 H 0.9018 0.2988 0.4560
O4_5 O 0.77608(13) 0.3805(4) 0.17904(13)
H2_5 H 0.7595 0.3934 0.1568
O5_5 O 0.97577(13) 0.3761(4) 0.40111(14)
O6_5 O 0.95133(10) 0.3215(3) 0.48262(14)
O7_5 O 0.98368(12) 0.3453(4) 0.55005(15)
O8_5 O 0.93656(13) 0.2583(4) 0.39271(14)
O9_5 O 0.76261(10) 0.2982(3) 0.05830(13)
C1_5 C 0.79321(17) 0.2742(5) 0.13077(18)
O10_5 O 0.87802(12) 0.2473(4) 0.32741(13)
H4_5 H 0.8927 0.2328 0.3507
C3_5 C 0.81837(16) 0.2321(5) 0.4718(2)
H5_5 H 0.8026 0.1889 0.4813
H6_5 H 0.8238 0.1979 0.4494
C4_5 C 0.77918(17) 0.3739(5) 0.4783(2)
C5_5 C 0.76323(17) 0.3173(5) 0.09514(19)
C6_5 C 0.83333(19) 0.3165(6) 0.2496(2)
H7_5 H 0.8293 0.2640 0.2671
H8_5 H 0.8143 0.3665 0.2467
C7_5 C 0.85470(16) 0.2475(4) 0.5079(2)
C8_5 C 0.95432(18) 0.3240(5) 0.5214(2)
C9_5 C 0.92026(16) 0.2963(4) 0.5310(2)
C10_5 C 0.88537(17) 0.2767(4) 0.4988(2)
C11_5 C 0.9481(2) 0.3294(5) 0.3785(2)
C14_5 C 0.79839(19) 0.3086(5) 0.1727(2)
C15_5 C 0.85866(19) 0.2272(5) 0.5501(2)
C16_5 C 0.79643(16) 0.3268(5) 0.4537(2)
C17_5 C 0.77294(18) 0.4570(6) 0.4010(2)
H11_5 H 0.9885 0.1345 0.4011
C18_5 C 0.8499(2) 0.1946(6) 0.2007(2)
C20_5 C 0.79282(16) 0.3679(6) 0.4138(2)
C21_5 C 0.75518(16) 0.5018(5) 0.4263(2)
H12_5 H 0.7415 0.5596 0.4172
C22_5 C 0.92644(18) 0.3670(5) 0.33590(19)
C23_5 C 0.8708(2) 0.3630(6) 0.2726(2)
C24_5 C 0.82729(19) 0.2733(6) 0.20674(19)
C25_5 C 0.8932(2) 0.2492(5) 0.5838(2)
C27_5 C 0.80999(18) 0.3242(6) 0.3869(2)
H13_5 H 0.8237 0.2660 0.3950
C28_5 C 0.8299(2) 0.1826(5) 0.5627(3)
H14_5 H 0.8072 0.1660 0.5423
C29_5 C 0.89187(19) 0.3264(6) 0.3117(2)
C31_5 C 0.75769(16) 0.4619(5) 0.4641(2)
C33_5 C 0.8986(2) 0.2303(6) 0.6262(2)
H18_5 H 0.9211 0.2445 0.6474
C34_5 C 0.92283(18) 0.2852(5) 0.5719(2)
H19_5 H 0.9451 0.3022 0.5928
C35_5 C 0.8443(2) 0.1588(6) 0.1602(2)
C36_5 C 0.8668(3) 0.0842(7) 0.1526(3)
H20_5 H 0.8627 0.0616 0.1255
C39_5 C 0.7689(2) 0.4984(8) 0.3617(3)
H24_5 H 0.7550 0.5561 0.3529
C41_5 C 0.8689(3) 0.1896(7) 0.6351(3)
H25_5 H 0.8713 0.1786 0.6630
C42_5 C 0.8788(3) 0.1520(6) 0.2340(2)
H26_5 H 0.8831 0.1735 0.2613
C43_5 C 0.8063(2) 0.3679(8) 0.3490(3)
H27_5 H 0.8181 0.3392 0.3320
C44_5 C 0.8168(2) 0.2017(5) 0.1261(2)
H28_5 H 0.8143 0.1806 0.0992
C45_5 C 0.8353(2) 0.1644(6) 0.6035(3)
H29_5 H 0.8165 0.1347 0.6108
C46_5 C 0.9007(3) 0.0796(8) 0.2268(3)
H30_5 H 0.9198 0.0527 0.2493
C48_5 C 0.9206(3) 0.4811(7) 0.2784(3)
C49_5 C 0.9405(2) 0.4426(6) 0.3195(2)
H34_5 H 0.9634 0.4701 0.3352
C50_5 C 0.7858(3) 0.4528(9) 0.3359(3)
H35_5 H 0.7831 0.4799 0.3098
C51_5 C 0.8849(3) 0.4434(6) 0.2563(2)
C52_5 C 0.9353(3) 0.5605(9) 0.2614(3)
H36_5 H 0.9589 0.5850 0.2761
C54_5 C 0.8954(3) 0.0446(9) 0.1865(4)
C55_5 C 0.8655(3) 0.4876(7) 0.2169(3)
H41_5 H 0.8420 0.4645 0.2009
C56_5 C 0.8812(4) 0.5637(9) 0.2024(3)
H42_5 H 0.8681 0.5913 0.1763
C57_5 C 0.9153(4) 0.6004(10) 0.2245(4)
H43_5 H 0.9248 0.6537 0.2140
C62_5 C 0.73856(17) 0.5136(5) 0.4910(2)
O11_3 O 0.71854(12) 0.5891(3) 0.47642(13)
O12_3 O 0.74274(11) 0.4793(3) 0.52670(14)
Co3_2 Co 0.71025(2) 0.61798(6) 0.53267(3)
N9_3 N 0.66500(12) 0.4599(4) 0.03393(16)
O14_3 O 0.74274(11) 0.5207(3) 0.02670(14)
N10_3 N 0.68469(13) 0.2478(4) 0.01572(16)
H60_5 H 0.808298 0.332487 0.534057
O13_3 O 0.71854(12) 0.4109(3) 0.97642(13)
C21_6 C 0.25518(16) 0.0018(5) 0.4263(2)
H12_6 H 0.2415 0.0596 0.4172
H16_6 H 0.6038 0.0452 0.5956
H24_6 H 0.2550 0.0561 0.3529
C52_6 C 0.4353(3) 0.0605(9) 0.2614(3)
H36_6 H 0.4589 0.0850 0.2761
C56_6 C 0.3812(4) 0.0637(9) 0.2024(3)
H42_6 H 0.3681 0.0913 0.1763
C57_6 C 0.4153(4) 0.1004(10) 0.2245(4)
H43_6 H 0.4248 0.1537 0.2140
C62_6 C 0.23856(17) 0.0136(5) 0.4910(2)
O11_4 O 0.21854(12) 0.0891(3) 0.47642(13)
H51_6 H 0.6311 0.0345 0.4988
H52_6 H 0.6459 0.0057 0.5464
H54_6 H 0.6499 0.0144 0.4417
O14_4 O 0.24274(11) 0.0207(3) 0.02670(14)
Co1_6 Co 0.49039(2) 0.81545(6) 0.45786(3)
Co2_4 Co 0.21025(2) 0.88202(6) 0.03267(3)
O1_6 O 0.23787(12) 0.8689(3) 0.09969(12)
O2_6 O 0.28171(11) 0.8357(3) 0.51576(14)
O3_6 O 0.38150(11) 0.7859(3) 0.45806(14)
H1_6 H 0.4018 0.7988 0.4560
O4_6 O 0.27608(13) 0.8805(4) 0.17904(13)
H2_6 H 0.2595 0.8934 0.1568
O5_6 O 0.47577(13) 0.8761(4) 0.40111(14)
O6_6 O 0.45133(10) 0.8215(3) 0.48262(14)
N1_6 N 0.54400(14) 0.9194(4) 0.53132(18)
H3_6 H 0.5291 0.9132 0.5452
O7_6 O 0.48368(12) 0.8453(4) 0.55005(15)
O8_6 O 0.43656(13) 0.7583(4) 0.39271(14)
O9_6 O 0.26261(10) 0.7982(3) 0.05830(13)
C1_6 C 0.29321(17) 0.7742(5) 0.13077(18)
N2_6 N 0.53429(13) 0.8983(4) 0.49014(17)
O10_6 O 0.37802(12) 0.7473(4) 0.32741(13)
H4_6 H 0.3927 0.7328 0.3507
C2_6 C 0.56472(17) 0.9190(5) 0.4804(2)
C3_6 C 0.31837(16) 0.7321(5) 0.4718(2)
H5_6 H 0.3026 0.6889 0.4813
H6_6 H 0.3238 0.6979 0.4494
C4_6 C 0.27918(17) 0.8739(5) 0.4783(2)
C5_6 C 0.26323(17) 0.8173(5) 0.09514(19)
C6_6 C 0.33333(19) 0.8165(6) 0.2496(2)
H7_6 H 0.3293 0.7640 0.2671
H8_6 H 0.3143 0.8665 0.2467
N3_6 N 0.51030(14) 0.6768(4) 0.45951(18)
C7_6 C 0.35470(16) 0.7475(4) 0.5079(2)
C8_6 C 0.45432(18) 0.8240(5) 0.5214(2)
C9_6 C 0.42026(16) 0.7963(4) 0.5310(2)
C10_6 C 0.38537(17) 0.7767(4) 0.4988(2)
C11_6 C 0.4481(2) 0.8294(5) 0.3785(2)
C12_4 C 0.56708(17) 0.4527(5) 0.5005(2)
H9_4 H 0.5570 0.4277 0.5212
H10_4 H 0.5668 0.3983 0.4816
C13_6 C 0.54172(17) 0.5337(5) 0.4757(2)
C14_6 C 0.29839(19) 0.8086(5) 0.1727(2)
C15_6 C 0.35866(19) 0.7272(5) 0.5501(2)
C16_6 C 0.29643(16) 0.8268(5) 0.4537(2)
C17_6 C 0.27294(18) 0.9570(6) 0.4010(2)
N4_6 N 0.50339(15) 0.6184(5) 0.4257(2)
H11_6 H 0.4885 0.6345 0.4011
C18_6 C 0.3499(2) 0.6946(6) 0.2007(2)
C19_6 C 0.53333(17) 0.6237(5) 0.4905(2)
C20_6 C 0.29282(16) 0.8679(6) 0.4138(2)
C22_6 C 0.42644(18) 0.8670(5) 0.33590(19)
C23_6 C 0.3708(2) 0.8630(6) 0.2726(2)
C24_6 C 0.32729(19) 0.7733(6) 0.20674(19)
C25_6 C 0.3932(2) 0.7492(5) 0.5838(2)
C26_6 C 0.57860(19) 0.9504(4) 0.5480(2)
C27_6 C 0.30999(18) 0.8242(6) 0.3869(2)
H13_6 H 0.3237 0.7660 0.3950
C28_6 C 0.3299(2) 0.6826(5) 0.5627(3)
H14_6 H 0.3072 0.6660 0.5423
C29_6 C 0.39187(19) 0.8264(6) 0.3117(2)
C30_4 C 0.60658(16) 0.4832(4) 0.5226(2)
C31_6 C 0.25769(16) 0.9619(5) 0.4641(2)
C32_6 C 0.5962(2) 0.9768(6) 0.5932(2)
H15_6 H 0.5786 0.9667 0.6073
H17_6 H 0.6176 0.9354 0.6058
C33_6 C 0.3986(2) 0.7303(6) 0.6262(2)
H18_6 H 0.4211 0.7445 0.6474
C34_6 C 0.42283(18) 0.7852(5) 0.5719(2)
H19_6 H 0.4451 0.8022 0.5928
C35_6 C 0.3443(2) 0.6588(6) 0.1602(2)
C36_6 C 0.3668(3) 0.5842(7) 0.1526(3)
H20_6 H 0.3627 0.5616 0.1255
C37_6 C 0.59324(16) 0.9528(4) 0.5156(2)
C38_6 C 0.5476(2) 0.6607(6) 0.5357(2)
H21_6 H 0.5372 0.7250 0.5371
H22_6 H 0.5743 0.6654 0.5452
H23_6 H 0.5403 0.6151 0.5532
C39_6 C 0.2689(2) 0.9984(8) 0.3617(3)
C40_6 C 0.5219(2) 0.5333(6) 0.4340(2)
C41_6 C 0.3689(3) 0.6896(7) 0.6351(3)
H25_6 H 0.3713 0.6786 0.6630
C42_6 C 0.3788(3) 0.6520(6) 0.2340(2)
H26_6 H 0.3831 0.6735 0.2613
C43_6 C 0.3063(2) 0.8679(8) 0.3490(3)
H27_6 H 0.3181 0.8392 0.3320
C44_6 C 0.3168(2) 0.7017(5) 0.1261(2)
H28_6 H 0.3143 0.6806 0.0992
C45_6 C 0.3353(2) 0.6644(6) 0.6035(3)
H29_6 H 0.3165 0.6347 0.6108
C46_6 C 0.4007(3) 0.5796(8) 0.2268(3)
H30_6 H 0.4198 0.5527 0.2493
C47_6 C 0.56520(18) 0.9070(6) 0.4369(2)
H31_6 H 0.5415 0.8824 0.4190
H32_6 H 0.5844 0.8607 0.4371
H33_6 H 0.5701 0.9700 0.4266
C48_6 C 0.4206(3) 0.9811(7) 0.2784(3)
C49_6 C 0.4405(2) 0.9426(6) 0.3195(2)
H34_6 H 0.4634 0.9701 0.3352
C50_6 C 0.2858(3) 0.9528(9) 0.3359(3)
H35_6 H 0.2831 0.9799 0.3098
C51_6 C 0.3849(3) 0.9434(6) 0.2563(2)
C53_4 C 0.5190(3) 0.4604(7) 0.3992(3)
H37_4 H 0.5019 0.4855 0.3732
H38_4 H 0.5101 0.3977 0.4055
H39_4 H 0.5431 0.4515 0.3968
C54_6 C 0.3954(3) 0.5446(9) 0.1865(4)
H40_4 H 0.4107 0.4953 0.1823
C55_6 C 0.3655(3) 0.9876(7) 0.2169(3)
H41_6 H 0.3420 0.9645 0.2009
C58_6 C 0.63091(18) 0.5250(4) 0.5045(2)
C59_4 C 0.62669(19) 0.4727(5) 0.5639(2)
N5_6 N 0.66151(14) 0.5075(4) 0.57028(16)
H44_6 H 0.6791 0.5088 0.5943
N6_4 N 0.66500(12) 0.5401(4) 0.53393(16)
C60_6 C 0.62474(18) 0.5547(5) 0.4614(2)
H45_6 H 0.6474 0.5811 0.4594
H46_6 H 0.6057 0.6046 0.4530
H47_4 H 0.6171 0.4980 0.4433
C61_4 C 0.6170(2) 0.4300(6) 0.5996(2)
H48_4 H 0.6381 0.4355 0.6251
H49_4 H 0.6103 0.3613 0.5941
H50_4 H 0.5963 0.4659 0.6026
O12_4 O 0.24274(11) 0.9793(3) 0.52670(14)
C63_6 C 0.63249(15) 0.9810(5) 0.5184(2)
C64_6 C 0.65354(16) 0.8974(5) 0.5093(2)
C65_6 C 0.66682(16) 0.8896(5) 0.4765(2)
C66_6 C 0.66563(17) 0.8108(5) 0.5333(2)
N7_6 N 0.68517(13) 0.8008(4) 0.48145(17)
H53_6 H 0.6958 0.7787 0.4646
N8_4 N 0.68469(13) 0.7522(4) 0.51572(16)
C67_6 C 0.66348(18) 0.9556(5) 0.4400(2)
H55_6 H 0.6505 0.9210 0.4144
H56_6 H 0.6879 0.9738 0.4405
C68_6 C 0.6588(2) 0.7818(5) 0.5727(2)
H57_6 H 0.6704 0.7190 0.5824
H58_6 H 0.6324 0.7764 0.5670
H59_6 H 0.6690 0.8314 0.5938
N9_4 N 0.16500(12) 0.9599(4) 0.03393(16)
N10_4 N 0.18469(13) 0.7478(4) 0.01572(16)
H60_6 H 0.308298 0.832487 0.534057
O13_4 O 0.21854(12) 0.9109(3) 0.97642(13)
N1_7 N 0.04400(14) 0.5806(4) 0.03132(18)
H3_7 H 0.0291 0.5868 0.0452
C26_7 C 0.07860(19) 0.5496(4) 0.0480(2)
C32_7 C 0.0962(2) 0.5232(6) 0.0932(2)
H15_7 H 0.0786 0.5333 0.1073
H16_7 H 0.1038 0.4548 0.0956
H17_7 H 0.1176 0.5646 0.1058
C37_7 C 0.09324(16) 0.5472(4) 0.0156(2)
C38_7 C 0.0476(2) 0.8393(6) 0.0357(2)
H21_7 H 0.0372 0.7750 0.0371
H22_7 H 0.0743 0.8346 0.0452
H23_7 H 0.0403 0.8849 0.0532
C58_7 C 0.13091(18) 0.9750(4) 0.0045(2)
N5_7 N 0.16151(14) 0.9925(4) 0.07028(16)
H44_7 H 0.1791 0.9912 0.0943
C63_7 C 0.13249(15) 0.5190(5) 0.0184(2)
H52_7 H 0.1459 0.4943 0.0464
C64_7 C 0.15354(16) 0.6026(5) 0.0093(2)
C66_7 C 0.16563(17) 0.6892(5) 0.0333(2)
C68_7 C 0.1588(2) 0.7182(5) 0.0727(2)
H57_7 H 0.1704 0.7810 0.0824
H58_7 H 0.1324 0.7236 0.0670
H59_7 H 0.1690 0.6686 0.0938
O2_7 O 0.78171(11) 0.6643(3) 0.01576(14)
O7_7 O 0.98368(12) 0.6547(4) 0.05005(15)
C7_7 C 0.85470(16) 0.7525(4) 0.0079(2)
C8_7 C 0.95432(18) 0.6760(5) 0.0214(2)
C9_7 C 0.92026(16) 0.7037(4) 0.0310(2)
C15_7 C 0.85866(19) 0.7728(5) 0.0501(2)
C25_7 C 0.8932(2) 0.7508(5) 0.0838(2)
C28_7 C 0.8299(2) 0.8174(5) 0.0627(3)
H14_7 H 0.8072 0.8340 0.0423
C33_7 C 0.8986(2) 0.7697(6) 0.1262(2)
H18_7 H 0.9211 0.7555 0.1474
C34_7 C 0.92283(18) 0.7148(5) 0.0719(2)
H19_7 H 0.9451 0.6978 0.0928
C41_7 C 0.8689(3) 0.8104(7) 0.1351(3)
H25_7 H 0.8713 0.8214 0.1630
C45_7 C 0.8353(2) 0.8356(6) 0.1035(3)
H29_7 H 0.8165 0.8653 0.1108
H60_7 H 0.808298 0.667513 0.0340571
Co1_7 Co 0.99039(2) 0.68455(6) 0.95786(3)
O1_7 O 0.73787(12) 0.6311(3) 0.59969(12)
O3_7 O 0.88150(11) 0.7141(3) 0.95806(14)
H1_7 H 0.9018 0.7012 0.9560
O4_7 O 0.77608(13) 0.6195(4) 0.67904(13)
H2_7 H 0.7595 0.6066 0.6568
O5_7 O 0.97577(13) 0.6239(4) 0.90111(14)
O6_7 O 0.95133(10) 0.6785(3) 0.98262(14)
O8_7 O 0.93656(13) 0.7417(4) 0.89271(14)
O9_7 O 0.76261(10) 0.7018(3) 0.55830(13)
C1_7 C 0.79321(17) 0.7258(5) 0.63077(18)
O10_7 O 0.87802(12) 0.7527(4) 0.82741(13)
H4_7 H 0.8927 0.7672 0.8507
C3_7 C 0.81837(16) 0.7679(5) 0.9718(2)
H5_7 H 0.8026 0.8111 0.9813
H6_7 H 0.8238 0.8021 0.9494
C4_7 C 0.77918(17) 0.6261(5) 0.9783(2)
C5_7 C 0.76323(17) 0.6827(5) 0.59514(19)
C6_7 C 0.83333(19) 0.6835(6) 0.7496(2)
H7_7 H 0.8293 0.7360 0.7671
H8_7 H 0.8143 0.6335 0.7467
C10_7 C 0.88537(17) 0.7233(4) 0.9988(2)
C11_7 C 0.9481(2) 0.6706(5) 0.8785(2)
C14_7 C 0.79839(19) 0.6914(5) 0.6727(2)
C16_7 C 0.79643(16) 0.6732(5) 0.9537(2)
C17_7 C 0.77294(18) 0.5430(6) 0.9010(2)
H11_7 H 0.9885 0.8655 0.9011
C18_7 C 0.8499(2) 0.8054(6) 0.7007(2)
C20_7 C 0.79282(16) 0.6321(6) 0.9138(2)
C21_7 C 0.75518(16) 0.4982(5) 0.9263(2)
H12_7 H 0.7415 0.4404 0.9172
C22_7 C 0.92644(18) 0.6330(5) 0.83590(19)
C23_7 C 0.8708(2) 0.6370(6) 0.7726(2)
C24_7 C 0.82729(19) 0.7267(6) 0.70674(19)
C27_7 C 0.80999(18) 0.6758(6) 0.8869(2)
H13_7 H 0.8237 0.7340 0.8950
C29_7 C 0.89187(19) 0.6736(6) 0.8117(2)
C31_7 C 0.75769(16) 0.5381(5) 0.9641(2)
C35_7 C 0.8443(2) 0.8412(6) 0.6602(2)
C36_7 C 0.8668(3) 0.9158(7) 0.6526(3)
H20_7 H 0.8627 0.9384 0.6255
C39_7 C 0.7689(2) 0.5016(8) 0.8617(3)
H24_7 H 0.7550 0.4439 0.8529
C42_7 C 0.8788(3) 0.8480(6) 0.7340(2)
H26_7 H 0.8831 0.8265 0.7613
C43_7 C 0.8063(2) 0.6321(8) 0.8490(3)
H27_7 H 0.8181 0.6608 0.8320
C44_7 C 0.8168(2) 0.7983(5) 0.6261(2)
H28_7 H 0.8143 0.8194 0.5992
C46_7 C 0.9007(3) 0.9204(8) 0.7268(3)
H30_7 H 0.9198 0.9473 0.7493
C48_7 C 0.9206(3) 0.5189(7) 0.7784(3)
C49_7 C 0.9405(2) 0.5574(6) 0.8195(2)
H34_7 H 0.9634 0.5299 0.8352
C50_7 C 0.7858(3) 0.5472(9) 0.8359(3)
H35_7 H 0.7831 0.5201 0.8098
C51_7 C 0.8849(3) 0.5566(6) 0.7563(2)
C52_7 C 0.9353(3) 0.4395(9) 0.7614(3)
H36_7 H 0.9589 0.4150 0.7761
C54_7 C 0.8954(3) 0.9554(9) 0.6865(4)
C55_7 C 0.8655(3) 0.5124(7) 0.7169(3)
H41_7 H 0.8420 0.5355 0.7009
C56_7 C 0.8812(4) 0.4363(9) 0.7024(3)
H42_7 H 0.8681 0.4087 0.6763
C57_7 C 0.9153(4) 0.3996(10) 0.7245(4)
H43_7 H 0.9248 0.3463 0.7140
C62_7 C 0.73856(17) 0.4864(5) 0.9910(2)
O2_8 O 0.28171(11) 0.1643(3) 0.01576(14)
N1_8 N 0.54400(14) 0.0806(4) 0.03132(18)
H3_8 H 0.5291 0.0868 0.0452
O7_8 O 0.48368(12) 0.1547(4) 0.05005(15)
C7_8 C 0.35470(16) 0.2525(4) 0.0079(2)
C8_8 C 0.45432(18) 0.1760(5) 0.0214(2)
C9_8 C 0.42026(16) 0.2037(4) 0.0310(2)
C12_5 C 0.56708(17) 0.5473(5) 0.0005(2)
H9_5 H 0.5570 0.5723 0.0212
C15_8 C 0.35866(19) 0.2728(5) 0.0501(2)
C25_8 C 0.3932(2) 0.2508(5) 0.0838(2)
C26_8 C 0.57860(19) 0.0496(4) 0.0480(2)
C28_8 C 0.3299(2) 0.3174(5) 0.0627(3)
H14_8 H 0.3072 0.3340 0.0423
C30_5 C 0.60658(16) 0.5168(4) 0.0226(2)
C32_8 C 0.5962(2) 0.0232(6) 0.0932(2)
H15_8 H 0.5786 0.0333 0.1073
H17_8 H 0.6176 0.0646 0.1058
C33_8 C 0.3986(2) 0.2697(6) 0.1262(2)
H18_8 H 0.4211 0.2555 0.1474
C34_8 C 0.42283(18) 0.2148(5) 0.0719(2)
H19_8 H 0.4451 0.1978 0.0928
C37_8 C 0.59324(16) 0.0472(4) 0.0156(2)
C38_8 C 0.5476(2) 0.3393(6) 0.0357(2)
H21_8 H 0.5372 0.2750 0.0371
H22_8 H 0.5743 0.3346 0.0452
H23_8 H 0.5403 0.3849 0.0532
C41_8 C 0.3689(3) 0.3104(7) 0.1351(3)
H25_8 H 0.3713 0.3214 0.1630
C45_8 C 0.3353(2) 0.3356(6) 0.1035(3)
H29_8 H 0.3165 0.3653 0.1108
C58_8 C 0.63091(18) 0.4750(4) 0.0045(2)
C59_5 C 0.62669(19) 0.5273(5) 0.0639(2)
N5_8 N 0.66151(14) 0.4925(4) 0.07028(16)
H44_8 H 0.6791 0.4912 0.0943
C61_5 C 0.6170(2) 0.5700(6) 0.0996(2)
H48_5 H 0.6381 0.5645 0.1251
H49_5 H 0.6103 0.6387 0.0941
H50_5 H 0.5963 0.5341 0.1026
C63_8 C 0.63249(15) 0.0190(5) 0.0184(2)
C64_8 C 0.65354(16) 0.1026(5) 0.0093(2)
C66_8 C 0.66563(17) 0.1892(5) 0.0333(2)
C68_8 C 0.6588(2) 0.2182(5) 0.0727(2)
H57_8 H 0.6704 0.2810 0.0824
H58_8 H 0.6324 0.2236 0.0670
H59_8 H 0.6690 0.1686 0.0938
H60_8 H 0.308298 0.167513 0.0340571
Co1_8 Co 0.49039(2) 0.18455(6) 0.95786(3)
O1_8 O 0.23787(12) 0.1311(3) 0.59969(12)
O3_8 O 0.38150(11) 0.2141(3) 0.95806(14)
H1_8 H 0.4018 0.2012 0.9560
O4_8 O 0.27608(13) 0.1195(4) 0.67904(13)
H2_8 H 0.2595 0.1066 0.6568
O5_8 O 0.47577(13) 0.1239(4) 0.90111(14)
O6_8 O 0.45133(10) 0.1785(3) 0.98262(14)
O8_8 O 0.43656(13) 0.2417(4) 0.89271(14)
O9_8 O 0.26261(10) 0.2018(3) 0.55830(13)
C1_8 C 0.29321(17) 0.2258(5) 0.63077(18)
N2_7 N 0.53429(13) 0.1017(4) 0.99014(17)
O10_8 O 0.37802(12) 0.2527(4) 0.82741(13)
H4_8 H 0.3927 0.2672 0.8507
C2_7 C 0.56472(17) 0.0810(5) 0.9804(2)
C3_8 C 0.31837(16) 0.2679(5) 0.9718(2)
H5_8 H 0.3026 0.3111 0.9813
H6_8 H 0.3238 0.3021 0.9494
C4_8 C 0.27918(17) 0.1261(5) 0.9783(2)
C5_8 C 0.26323(17) 0.1827(5) 0.59514(19)
C6_8 C 0.33333(19) 0.1835(6) 0.7496(2)
H7_8 H 0.3293 0.2360 0.7671
H8_8 H 0.3143 0.1335 0.7467
N3_7 N 0.51030(14) 0.3232(4) 0.95951(18)
C10_8 C 0.38537(17) 0.2233(4) 0.9988(2)
C11_8 C 0.4481(2) 0.1706(5) 0.8785(2)
H10_5 H 0.5668 0.6017 0.9816
C13_7 C 0.54172(17) 0.4663(5) 0.9757(2)
C14_8 C 0.29839(19) 0.1914(5) 0.6727(2)
C16_8 C 0.29643(16) 0.1732(5) 0.9537(2)
C17_8 C 0.27294(18) 0.0430(6) 0.9010(2)
N4_7 N 0.50339(15) 0.3816(5) 0.9257(2)
H11_8 H 0.4885 0.3655 0.9011
C18_8 C 0.3499(2) 0.3054(6) 0.7007(2)
C19_7 C 0.53333(17) 0.3763(5) 0.9905(2)
C20_8 C 0.29282(16) 0.1321(6) 0.9138(2)
C22_8 C 0.42644(18) 0.1330(5) 0.83590(19)
C23_8 C 0.3708(2) 0.1370(6) 0.7726(2)
C24_8 C 0.32729(19) 0.2267(6) 0.70674(19)
C27_8 C 0.30999(18) 0.1758(6) 0.8869(2)
H13_8 H 0.3237 0.2340 0.8950
C29_8 C 0.39187(19) 0.1736(6) 0.8117(2)
C31_8 C 0.25769(16) 0.0381(5) 0.9641(2)
C35_8 C 0.3443(2) 0.3412(6) 0.6602(2)
C36_8 C 0.3668(3) 0.4158(7) 0.6526(3)
H20_8 H 0.3627 0.4384 0.6255
C39_8 C 0.2689(2) 0.0016(8) 0.8617(3)
C40_7 C 0.5219(2) 0.4667(6) 0.9340(2)
C42_8 C 0.3788(3) 0.3480(6) 0.7340(2)
H26_8 H 0.3831 0.3265 0.7613
C43_8 C 0.3063(2) 0.1321(8) 0.8490(3)
H27_8 H 0.3181 0.1608 0.8320
C44_8 C 0.3168(2) 0.2983(5) 0.6261(2)
H28_8 H 0.3143 0.3194 0.5992
C46_8 C 0.4007(3) 0.4204(8) 0.7268(3)
H30_8 H 0.4198 0.4473 0.7493
C47_7 C 0.56520(18) 0.0930(6) 0.9369(2)
H31_7 H 0.5415 0.1176 0.9190
H32_7 H 0.5844 0.1393 0.9371
H33_7 H 0.5701 0.0300 0.9266
C48_8 C 0.4206(3) 0.0189(7) 0.7784(3)
C49_8 C 0.4405(2) 0.0574(6) 0.8195(2)
H34_8 H 0.4634 0.0299 0.8352
C50_8 C 0.2858(3) 0.0472(9) 0.8359(3)
H35_8 H 0.2831 0.0201 0.8098
C51_8 C 0.3849(3) 0.0566(6) 0.7563(2)
C53_5 C 0.5190(3) 0.5396(7) 0.8992(3)
H37_5 H 0.5019 0.5145 0.8732
H38_5 H 0.5101 0.6023 0.9055
H39_5 H 0.5431 0.5485 0.8968
C54_8 C 0.3954(3) 0.4554(9) 0.6865(4)
H40_5 H 0.4107 0.5047 0.6823
C55_8 C 0.3655(3) 0.0124(7) 0.7169(3)
H41_8 H 0.3420 0.0355 0.7009
C60_7 C 0.62474(18) 0.4453(5) 0.9614(2)
H45_7 H 0.6474 0.4189 0.9594
H46_7 H 0.6057 0.3954 0.9530
H47_5 H 0.6171 0.5020 0.9433
C65_7 C 0.66682(16) 0.1104(5) 0.9765(2)
N7_7 N 0.68517(13) 0.1992(4) 0.98145(17)
H53_7 H 0.6958 0.2213 0.9646
C67_7 C 0.66348(18) 0.0444(5) 0.9400(2)
H55_7 H 0.6505 0.0790 0.9144
H56_7 H 0.6879 0.0262 0.9405
H16_8 H 0.6038 0.9548 0.0956
H52_8 H 0.6459 0.9943 0.0464
C21_8 C 0.25518(16) 0.9982(5) 0.9263(2)
H12_8 H 0.2415 0.9404 0.9172
H24_8 H 0.2550 0.9439 0.8529
C52_8 C 0.4353(3) 0.9395(9) 0.7614(3)
H36_8 H 0.4589 0.9150 0.7761
C56_8 C 0.3812(4) 0.9363(9) 0.7024(3)
H42_8 H 0.3681 0.9087 0.6763
C57_8 C 0.4153(4) 0.8996(10) 0.7245(4)
H43_8 H 0.4248 0.8463 0.7140
C62_8 C 0.23856(17) 0.9864(5) 0.9910(2)
H51_7 H 0.6311 0.9655 0.9988
H54_7 H 0.6499 0.9856 0.9417
C12_6 C 0.06708(17) 0.9527(5) 0.5005(2)
H9_6 H 0.0570 0.9277 0.5212
H10_6 H 0.0668 0.8983 0.4816
C30_6 C 0.10658(16) 0.9832(4) 0.5226(2)
C53_6 C 0.0190(3) 0.9604(7) 0.3992(3)
H37_6 H 0.0019 0.9855 0.3732
H38_6 H 0.0101 0.8977 0.4055
H39_6 H 0.0431 0.9515 0.3968
C59_6 C 0.12669(19) 0.9727(5) 0.5639(2)
H47_6 H 0.1171 0.9980 0.4433
C61_6 C 0.1170(2) 0.9300(6) 0.5996(2)
H48_6 H 0.1381 0.9355 0.6251
H49_6 H 0.1103 0.8613 0.5941
H50_6 H 0.0963 0.9659 0.6026
H40_6 H 0.9107 0.9953 0.1823
C12_7 C 0.06708(17) 0.0473(5) 0.0005(2)
H9_7 H 0.0570 0.0723 0.0212
C30_7 C 0.10658(16) 0.0168(4) 0.0226(2)
C59_7 C 0.12669(19) 0.0273(5) 0.0639(2)
C61_7 C 0.1170(2) 0.0700(6) 0.0996(2)
H48_7 H 0.1381 0.0645 0.1251
H49_7 H 0.1103 0.1387 0.0941
H50_7 H 0.0963 0.0341 0.1026
H10_7 H 0.0668 0.1017 0.9816
C53_7 C 0.0190(3) 0.0396(7) 0.8992(3)
H37_7 H 0.0019 0.0145 0.8732
H38_7 H 0.0101 0.1023 0.9055
H39_7 H 0.0431 0.0485 0.8968
H47_7 H 0.1171 0.0020 0.9433
N2_8 N 0.03429(13) 0.6017(4) 0.99014(17)
C2_8 C 0.06472(17) 0.5810(5) 0.9804(2)
N3_8 N 0.01030(14) 0.8232(4) 0.95951(18)
C13_8 C 0.04172(17) 0.9663(5) 0.9757(2)
N4_8 N 0.00339(15) 0.8816(5) 0.9257(2)
C19_8 C 0.03333(17) 0.8763(5) 0.9905(2)
C40_8 C 0.0219(2) 0.9667(6) 0.9340(2)
C47_8 C 0.06520(18) 0.5930(6) 0.9369(2)
H31_8 H 0.0415 0.6176 0.9190
H32_8 H 0.0844 0.6393 0.9371
H33_8 H 0.0701 0.5300 0.9266
C60_8 C 0.12474(18) 0.9453(5) 0.9614(2)
H45_8 H 0.1474 0.9189 0.9594
H46_8 H 0.1057 0.8954 0.9530
H51_8 H 0.1311 0.4655 0.9988
C65_8 C 0.16682(16) 0.6104(5) 0.9765(2)
N7_8 N 0.18517(13) 0.6992(4) 0.98145(17)
H53_8 H 0.1958 0.7213 0.9646
C67_8 C 0.16348(18) 0.5444(5) 0.9400(2)
H54_8 H 0.1499 0.4856 0.9417
H55_8 H 0.1505 0.5790 0.9144
H56_8 H 0.1879 0.5262 0.9405
H40_7 H 0.9107 0.0047 0.6823
H40_8 H 0.0893 0.0047 0.8177
C12_8 C 0.93292(17) 0.0473(5) 0.4995(2)
H9_8 H 0.9430 0.0723 0.4788
H10_8 H 0.9332 0.1017 0.5184
C30_8 C 0.89342(16) 0.0168(4) 0.4774(2)
C53_8 C 0.9810(3) 0.0396(7) 0.6008(3)
H37_8 H 0.9981 0.0145 0.6268
H38_8 H 0.9899 0.1023 0.5945
H39_8 H 0.9569 0.0485 0.6032
C59_8 C 0.87331(19) 0.0273(5) 0.4361(2)
H47_8 H 0.8829 0.0020 0.5567
C61_8 C 0.8830(2) 0.0700(6) 0.4004(2)
H48_8 H 0.8619 0.0645 0.3749
H49_8 H 0.8897 0.1387 0.4059
H50_8 H 0.9037 0.0341 0.3974
loop_
_geom_bond_atom_site_label_1
_geom_bond_atom_site_label_2
_geom_bond_site_symmetry_1
_geom_bond_site_symmetry_2
Co1 O5 1_555 1_555
Co2 O1 1_555 1_555
O1 C5 1_555 1_555
O3 H1 1_555 1_555
O4 H2 1_555 1_555
O5 C11 1_555 1_555
O6 Co1 1_555 1_555
O8 C11 1_555 1_555
O9 Co2 1_555 1_555
C1 C5 1_555 1_555
O10 H4 1_555 1_555
C3 H5 1_555 1_555
H6 C3 1_555 1_555
C4 C16 1_555 1_555
C5 O9 1_555 1_555
C6 H7 1_555 1_555
H8 C6 1_555 1_555
C10 O3 1_555 1_555
C11 C22 1_555 1_555
C14 O4 1_555 1_555
C16 C3 1_555 1_555
C17 C20 1_555 1_555
C18 C24 1_555 1_555
C20 C16 1_555 1_555
C21 C17 1_555 1_555
H12 C21 1_555 1_555
C22 C29 1_555 1_555
C23 C6 1_555 1_555
C24 C6 1_555 1_555
C27 C20 1_555 1_555
H13 C27 1_555 1_555
C29 O10 1_555 1_555
C31 C4 1_555 1_555
C35 C18 1_555 1_555
C36 C35 1_555 1_555
H20 C36 1_555 1_555
C39 C17 1_555 1_555
H24 C39 1_555 1_555
C42 C18 1_555 1_555
H26 C42 1_555 1_555
C43 C27 1_555 1_555
H27 C43 1_555 1_555
C44 C1 1_555 1_555
H28 C44 1_555 1_555
C46 C42 1_555 1_555
H30 C46 1_555 1_555
C48 C49 1_555 1_555
C49 C22 1_555 1_555
H34 C49 1_555 1_555
C50 C39 1_555 1_555
H35 C50 1_555 1_555
C51 C23 1_555 1_555
C52 C48 1_555 1_555
H36 C52 1_555 1_555
C54 C36 1_555 1_555
C55 C51 1_555 1_555
H41 C55 1_555 1_555
C56 C55 1_555 1_555
H42 C56 1_555 1_555
C57 C52 1_555 1_555
H43 C57 1_555 1_555
C62 C31 1_555 1_555
O11 C62 1_555 1_555
N9 Co2 1_555 1_555
O13 Co2 1_555 1_555
O14 Co2 1_555 1_555
N10 Co2 1_555 1_555
C1 C14 1_555 1_555
C14 C24 1_555 1_555
C21 C31 1_555 1_555
C23 C29 1_555 1_555
C35 C44 1_555 1_555
C43 C50 1_555 1_555
C46 C54 1_555 1_555
C48 C51 1_555 1_555
C56 C57 1_555 1_555
O7 C8 1_555 1_555
C9 C8 1_555 1_555
C15 C7 1_555 1_555
C25 C15 1_555 1_555
C28 C15 1_555 1_555
H14 C28 1_555 1_555
C33 C25 1_555 1_555
H18 C33 1_555 1_555
C34 C9 1_555 1_555
H19 C34 1_555 1_555
C41 C33 1_555 1_555
H25 C41 1_555 1_555
C45 C28 1_555 1_555
H29 C45 1_555 1_555
C25 C34 1_555 1_555
C41 C45 1_555 1_555
O12 Co3 1_555 1_555
O2 H60 1_555 1_555
N1 H3 1_555 1_555
C26 N1 1_555 1_555
C32 C26 1_555 1_555
H15 C32 1_555 1_555
H16 C32 1_555 1_555
H17 C32 1_555 1_555
H21 C38 1_555 1_555
H22 C38 1_555 1_555
H23 C38 1_555 1_555
H44 N5 1_555 1_555
N6 C58 1_555 1_555
C63 C37 1_555 1_555
H52 C63 1_555 1_555
C64 C63 1_555 1_555
C66 C64 1_555 1_555
N8 C66 1_555 1_555
C68 C66 1_555 1_555
H57 C68 1_555 1_555
H58 C68 1_555 1_555
H59 C68 1_555 1_555
Co4 N6 1_555 1_555
C26 C37 1_555 1_555
N5 N6 1_555 1_555
N8 Co4 1_555 1_555
H12_2 C21_2 1_555 1_555
H36_2 C52_2 1_555 1_555
H42_2 C56_2 1_555 1_555
C57_2 C52_2 1_555 1_555
H43_2 C57_2 1_555 1_555
O11_2 C62_2 1_555 1_555
C56_2 C57_2 1_555 1_555
Co1_2 O5_2 1_555 1_555
Co2_2 O1_2 1_555 1_555
O1_2 C5_2 1_555 1_555
O3_2 H1_2 1_555 1_555
O4_2 H2_2 1_555 1_555
O5_2 C11_2 1_555 1_555
O6_2 Co1_2 1_555 1_555
O8_2 C11_2 1_555 1_555
O9_2 Co2_2 1_555 1_555
C1_2 C5_2 1_555 1_555
N2 Co1_2 1_555 1_555
O10_2 H4_2 1_555 1_555
C2 N2 1_555 1_555
C3_2 H5_2 1_555 1_555
H6_2 C3_2 1_555 1_555
C4_2 C16_2 1_555 1_555
C5_2 O9_2 1_555 1_555
C6_2 H7_2 1_555 1_555
H8_2 C6_2 1_555 1_555
N3 Co1_2 1_555 1_555
C10_2 O3_2 1_555 1_555
C11_2 C22_2 1_555 1_555
C14_2 O4_2 1_555 1_555
C16_2 C3_2 1_555 1_555
C17_2 C20_2 1_555 1_555
N4 N3 1_555 1_555
H11_2 N4 1_555 1_555
C18_2 C24_2 1_555 1_555
C19 N3 1_555 1_555
C20_2 C16_2 1_555 1_555
C22_2 C29_2 1_555 1_555
C23_2 C6_2 1_555 1_555
C24_2 C6_2 1_555 1_555
C27_2 C20_2 1_555 1_555
H13_2 C27_2 1_555 1_555
C29_2 O10_2 1_555 1_555
C31_2 C4_2 1_555 1_555
C35_2 C18_2 1_555 1_555
C36_2 C35_2 1_555 1_555
H20_2 C36_2 1_555 1_555
C39_2 C17_2 1_555 1_555
C40 C13 1_555 1_555
C42_2 C18_2 1_555 1_555
H26_2 C42_2 1_555 1_555
C43_2 C27_2 1_555 1_555
H27_2 C43_2 1_555 1_555
C44_2 C1_2 1_555 1_555
H28_2 C44_2 1_555 1_555
C46_2 C42_2 1_555 1_555
H30_2 C46_2 1_555 1_555
C47 C2 1_555 1_555
H31 C47 1_555 1_555
H32 C47 1_555 1_555
H33 C47 1_555 1_555
C48_2 C49_2 1_555 1_555
C49_2 C22_2 1_555 1_555
H34_2 C49_2 1_555 1_555
C50_2 C39_2 1_555 1_555
H35_2 C50_2 1_555 1_555
C51_2 C23_2 1_555 1_555
C53 C40 1_555 1_555
H37 C53 1_555 1_555
H38 C53 1_555 1_555
H39 C53 1_555 1_555
C54_2 C36_2 1_555 1_555
H40 C54_2 1_555 1_555
C55_2 C51_2 1_555 1_555
H41_2 C55_2 1_555 1_555
H45 C60 1_555 1_555
H46 C60 1_555 1_555
H47 C60 1_555 1_555
N7 C65 1_555 1_555
H53 N7 1_555 1_555
C67 C65 1_555 1_555
H55 C67 1_555 1_555
H56 C67 1_555 1_555
N9_2 Co2_2 1_555 1_555
O13_2 Co2_2 1_555 1_555
N10_2 Co2_2 1_555 1_555
C1_2 C14_2 1_555 1_555
C13 C19 1_555 1_555
C14_2 C24_2 1_555 1_555
N4 C40 1_555 1_555
C23_2 C29_2 1_555 1_555
C35_2 C44_2 1_555 1_555
C43_2 C50_2 1_555 1_555
C46_2 C54_2 1_555 1_555
C48_2 C51_2 1_555 1_555
N1_2 H3_2 1_555 1_555
O7_2 C8_2 1_555 1_555
C9_2 C8_2 1_555 1_555
C12 H9 1_555 1_555
C15_2 C7_2 1_555 1_555
C25_2 C15_2 1_555 1_555
C26_2 N1_2 1_555 1_555
C28_2 C15_2 1_555 1_555
H14_2 C28_2 1_555 1_555
C30 C12 1_555 1_555
C32_2 C26_2 1_555 1_555
H15_2 C32_2 1_555 1_555
H17_2 C32_2 1_555 1_555
C33_2 C25_2 1_555 1_555
H18_2 C33_2 1_555 1_555
C34_2 C9_2 1_555 1_555
H19_2 C34_2 1_555 1_555
H21_2 C38_2 1_555 1_555
H22_2 C38_2 1_555 1_555
H23_2 C38_2 1_555 1_555
C41_2 C33_2 1_555 1_555
H25_2 C41_2 1_555 1_555
C45_2 C28_2 1_555 1_555
H29_2 C45_2 1_555 1_555
C58_2 C30 1_555 1_555
C59 C30 1_555 1_555
N5_2 C59 1_555 1_555
H44_2 N5_2 1_555 1_555
N6_2 C58_2 1_555 1_555
C61 C59 1_555 1_555
H48 C61 1_555 1_555
H49 C61 1_555 1_555
H50 C61 1_555 1_555
C63_2 C37_2 1_555 1_555
C64_2 C63_2 1_555 1_555
C66_2 C64_2 1_555 1_555
N8_2 C66_2 1_555 1_555
C68_2 C66_2 1_555 1_555
H57_2 C68_2 1_555 1_555
H58_2 C68_2 1_555 1_555
H59_2 C68_2 1_555 1_555
Co3 N6_2 1_555 1_555
C25_2 C34_2 1_555 1_555
C26_2 C37_2 1_555 1_555
C41_2 C45_2 1_555 1_555
N5_2 N6_2 1_555 1_555
N8_2 Co3 1_555 1_555
O2_2 H60_2 1_555 1_555
Co1_3 O5_3 1_555 1_555
Co3 O1_3 1_555 1_555
O1_3 C5_3 1_555 1_555
O2_3 C4_3 1_555 1_555
O3_3 H1_3 1_555 1_555
O4_3 H2_3 1_555 1_555
O5_3 C11_3 1_555 1_555
O6_3 Co1_3 1_555 1_555
O7_3 C8_3 1_555 1_555
O8_3 C11_3 1_555 1_555
O9_3 Co3 1_555 1_555
C1_3 C5_3 1_555 1_555
O10_3 H4_3 1_555 1_555
C3_3 H5_3 1_555 1_555
H6_3 C3_3 1_555 1_555
C4_3 C16_3 1_555 1_555
C5_3 O9_3 1_555 1_555
C6_3 H7_3 1_555 1_555
H8_3 C6_3 1_555 1_555
C7_3 C3_3 1_555 1_555
C8_3 O6_3 1_555 1_555
C9_3 C8_3 1_555 1_555
C10_3 O3_3 1_555 1_555
C11_3 C22_3 1_555 1_555
C14_3 O4_3 1_555 1_555
C15_3 C7_3 1_555 1_555
C16_3 C3_3 1_555 1_555
C17_3 C20_3 1_555 1_555
C18_3 C24_3 1_555 1_555
C20_3 C16_3 1_555 1_555
C21_3 C17_3 1_555 1_555
H12_3 C21_3 1_555 1_555
C22_3 C29_3 1_555 1_555
C23_3 C6_3 1_555 1_555
C24_3 C6_3 1_555 1_555
C25_3 C15_3 1_555 1_555
C27_3 C20_3 1_555 1_555
H13_3 C27_3 1_555 1_555
C28_3 C15_3 1_555 1_555
H14_3 C28_3 1_555 1_555
C29_3 O10_3 1_555 1_555
C31_3 C4_3 1_555 1_555
C33_3 C25_3 1_555 1_555
H18_3 C33_3 1_555 1_555
C34_3 C9_3 1_555 1_555
H19_3 C34_3 1_555 1_555
C35_3 C18_3 1_555 1_555
C36_3 C35_3 1_555 1_555
H20_3 C36_3 1_555 1_555
C39_3 C17_3 1_555 1_555
H24_3 C39_3 1_555 1_555
C41_3 C33_3 1_555 1_555
H25_3 C41_3 1_555 1_555
C42_3 C18_3 1_555 1_555
H26_3 C42_3 1_555 1_555
C43_3 C27_3 1_555 1_555
H27_3 C43_3 1_555 1_555
C44_3 C1_3 1_555 1_555
H28_3 C44_3 1_555 1_555
C45_3 C28_3 1_555 1_555
H29_3 C45_3 1_555 1_555
C46_3 C42_3 1_555 1_555
H30_3 C46_3 1_555 1_555
C48_3 C49_3 1_555 1_555
C49_3 C22_3 1_555 1_555
H34_3 C49_3 1_555 1_555
C50_3 C39_3 1_555 1_555
H35_3 C50_3 1_555 1_555
C51_3 C23_3 1_555 1_555
C52_3 C48_3 1_555 1_555
H36_3 C52_3 1_555 1_555
C54_3 C36_3 1_555 1_555
C55_3 C51_3 1_555 1_555
H41_3 C55_3 1_555 1_555
C56_3 C55_3 1_555 1_555
H42_3 C56_3 1_555 1_555
C57_3 C52_3 1_555 1_555
H43_3 C57_3 1_555 1_555
C62_3 C31_3 1_555 1_555
O13 C62_3 1_555 1_555
O14 C62_3 1_555 1_555
C1_3 C14_3 1_555 1_555
C7_3 C10_3 1_555 1_555
C9_3 C10_3 1_555 1_555
C14_3 C24_3 1_555 1_555
C21_3 C31_3 1_555 1_555
C23_3 C29_3 1_555 1_555
C25_3 C34_3 1_555 1_555
C35_3 C44_3 1_555 1_555
C41_3 C45_3 1_555 1_555
C43_3 C50_3 1_555 1_555
C46_3 C54_3 1_555 1_555
C48_3 C51_3 1_555 1_555
C56_3 C57_3 1_555 1_555
O2_3 H60_3 1_555 1_555
N1_3 H3_3 1_555 1_555
C2_2 N2_2 1_555 1_555
N4_2 N3_2 1_555 1_555
C19_2 N3_2 1_555 1_555
C26_3 N1_3 1_555 1_555
C32_3 C26_3 1_555 1_555
H15_3 C32_3 1_555 1_555
H16_3 C32_3 1_555 1_555
H17_3 C32_3 1_555 1_555
C37_3 C2_2 1_555 1_555
C38_3 C19_2 1_555 1_555
H21_3 C38_3 1_555 1_555
H22_3 C38_3 1_555 1_555
H23_3 C38_3 1_555 1_555
C40_2 C13_2 1_555 1_555
C47_2 C2_2 1_555 1_555
H31_2 C47_2 1_555 1_555
H32_2 C47_2 1_555 1_555
H33_2 C47_2 1_555 1_555
H44_3 N5_3 1_555 1_555
N9_2 C58_3 1_555 1_555
C60_2 C58_3 1_555 1_555
H45_2 C60_2 1_555 1_555
H46_2 C60_2 1_555 1_555
C63_3 C37_3 1_555 1_555
H51_2 C63_3 1_555 1_555
H52_3 C63_3 1_555 1_555
C64_3 C63_3 1_555 1_555
C65_2 C64_3 1_555 1_555
C66_3 C64_3 1_555 1_555
N7_2 C65_2 1_555 1_555
H53_2 N7_2 1_555 1_555
N10_2 C66_3 1_555 1_555
C67_2 C65_2 1_555 1_555
H54_2 C67_2 1_555 1_555
H55_2 C67_2 1_555 1_555
H56_2 C67_2 1_555 1_555
C68_3 C66_3 1_555 1_555
H57_3 C68_3 1_555 1_555
H58_3 C68_3 1_555 1_555
H59_3 C68_3 1_555 1_555
N1_3 N2_2 1_555 1_555
C13_2 C19_2 1_555 1_555
N4_2 C40_2 1_555 1_555
C26_3 C37_3 1_555 1_555
N5_3 N9_2 1_555 1_555
N7_2 N10_2 1_555 1_555
Co1_4 O5_4 1_555 1_555
Co4 O1_4 1_555 1_555
O1_4 C5_4 1_555 1_555
O2_4 C4_4 1_555 1_555
O3_4 H1_4 1_555 1_555
O4_4 H2_4 1_555 1_555
O5_4 C11_4 1_555 1_555
O6_4 Co1_4 1_555 1_555
N1_4 H3_4 1_555 1_555
O7_4 C8_4 1_555 1_555
O8_4 C11_4 1_555 1_555
O9_4 Co4 1_555 1_555
C1_4 C5_4 1_555 1_555
N2_3 Co1_4 1_555 1_555
O10_4 H4_4 1_555 1_555
C2_3 N2_3 1_555 1_555
C3_4 H5_4 1_555 1_555
H6_4 C3_4 1_555 1_555
C4_4 C16_4 1_555 1_555
C5_4 O9_4 1_555 1_555
C6_4 H7_4 1_555 1_555
H8_4 C6_4 1_555 1_555
N3_3 Co1_4 1_555 1_555
C7_4 C3_4 1_555 1_555
C8_4 O6_4 1_555 1_555
C9_4 C8_4 1_555 1_555
C10_4 O3_4 1_555 1_555
C11_4 C22_4 1_555 1_555
C12_2 H9_2 1_555 1_555
H10_2 C12_2 1_555 1_555
C13_3 C12_2 1_555 1_555
C14_4 O4_4 1_555 1_555
C15_4 C7_4 1_555 1_555
C16_4 C3_4 1_555 1_555
C17_4 C20_4 1_555 1_555
N4_3 N3_3 1_555 1_555
H11_4 N4_3 1_555 1_555
C18_4 C24_4 1_555 1_555
C19_3 N3_3 1_555 1_555
C20_4 C16_4 1_555 1_555
C22_4 C29_4 1_555 1_555
C23_4 C6_4 1_555 1_555
C24_4 C6_4 1_555 1_555
C25_4 C15_4 1_555 1_555
C26_4 N1_4 1_555 1_555
C27_4 C20_4 1_555 1_555
H13_4 C27_4 1_555 1_555
C28_4 C15_4 1_555 1_555
H14_4 C28_4 1_555 1_555
C29_4 O10_4 1_555 1_555
C30_2 C12_2 1_555 1_555
C31_4 C4_4 1_555 1_555
C32_4 C26_4 1_555 1_555
H15_4 C32_4 1_555 1_555
H17_4 C32_4 1_555 1_555
C33_4 C25_4 1_555 1_555
H18_4 C33_4 1_555 1_555
C34_4 C9_4 1_555 1_555
H19_4 C34_4 1_555 1_555
C35_4 C18_4 1_555 1_555
C36_4 C35_4 1_555 1_555
H20_4 C36_4 1_555 1_555
C37_4 C2_3 1_555 1_555
C38_4 C19_3 1_555 1_555
H21_4 C38_4 1_555 1_555
H22_4 C38_4 1_555 1_555
H23_4 C38_4 1_555 1_555
C39_4 C17_4 1_555 1_555
C40_3 C13_3 1_555 1_555
C41_4 C33_4 1_555 1_555
H25_4 C41_4 1_555 1_555
C42_4 C18_4 1_555 1_555
H26_4 C42_4 1_555 1_555
C43_4 C27_4 1_555 1_555
H27_4 C43_4 1_555 1_555
C44_4 C1_4 1_555 1_555
H28_4 C44_4 1_555 1_555
C45_4 C28_4 1_555 1_555
H29_4 C45_4 1_555 1_555
C46_4 C42_4 1_555 1_555
H30_4 C46_4 1_555 1_555
C47_3 C2_3 1_555 1_555
H31_3 C47_3 1_555 1_555
H32_3 C47_3 1_555 1_555
H33_3 C47_3 1_555 1_555
C48_4 C49_4 1_555 1_555
C49_4 C22_4 1_555 1_555
H34_4 C49_4 1_555 1_555
C50_4 C39_4 1_555 1_555
H35_4 C50_4 1_555 1_555
C51_4 C23_4 1_555 1_555
C53_2 C40_3 1_555 1_555
H37_2 C53_2 1_555 1_555
H38_2 C53_2 1_555 1_555
H39_2 C53_2 1_555 1_555
C54_4 C36_4 1_555 1_555
H40_2 C54_4 1_555 1_555
C55_4 C51_4 1_555 1_555
H41_4 C55_4 1_555 1_555
C58_4 C30_2 1_555 1_555
C59_2 C30_2 1_555 1_555
N5_4 C59_2 1_555 1_555
H44_4 N5_4 1_555 1_555
N9 C58_4 1_555 1_555
C60_3 C58_4 1_555 1_555
H45_3 C60_3 1_555 1_555
H46_3 C60_3 1_555 1_555
H47_2 C60_3 1_555 1_555
C61_2 C59_2 1_555 1_555
H48_2 C61_2 1_555 1_555
H49_2 C61_2 1_555 1_555
H50_2 C61_2 1_555 1_555
C63_4 C37_4 1_555 1_555
C64_4 C63_4 1_555 1_555
C65_3 C64_4 1_555 1_555
C66_4 C64_4 1_555 1_555
N7_3 C65_3 1_555 1_555
H53_3 N7_3 1_555 1_555
N10 C66_4 1_555 1_555
C67_3 C65_3 1_555 1_555
H55_3 C67_3 1_555 1_555
H56_3 C67_3 1_555 1_555
C68_4 C66_4 1_555 1_555
H57_4 C68_4 1_555 1_555
H58_4 C68_4 1_555 1_555
H59_4 C68_4 1_555 1_555
N1_4 N2_3 1_555 1_555
C1_4 C14_4 1_555 1_555
C7_4 C10_4 1_555 1_555
C9_4 C10_4 1_555 1_555
C13_3 C19_3 1_555 1_555
C14_4 C24_4 1_555 1_555
N4_3 C40_3 1_555 1_555
C23_4 C29_4 1_555 1_555
C25_4 C34_4 1_555 1_555
C26_4 C37_4 1_555 1_555
C35_4 C44_4 1_555 1_555
C41_4 C45_4 1_555 1_555
C43_4 C50_4 1_555 1_555
C46_4 C54_4 1_555 1_555
C48_4 C51_4 1_555 1_555
N5_4 N9 1_555 1_555
N7_3 N10 1_555 1_555
O2_4 H60_4 1_555 1_555
H12_4 C21_4 1_555 1_555
H36_4 C52_4 1_555 1_555
H42_4 C56_4 1_555 1_555
C57_4 C52_4 1_555 1_555
H43_4 C57_4 1_555 1_555
O13_2 C62_4 1_555 1_555
C56_4 C57_4 1_555 1_555
C2_4 N2_4 1_555 1_555
N4_4 N3_4 1_555 1_555
C19_4 N3_4 1_555 1_555
C40_4 C13_4 1_555 1_555
C47_4 C2_4 1_555 1_555
H31_4 C47_4 1_555 1_555
H32_4 C47_4 1_555 1_555
H33_4 C47_4 1_555 1_555
H45_4 C60_4 1_555 1_555
H46_4 C60_4 1_555 1_555
N7_4 C65_4 1_555 1_555
H53_4 N7_4 1_555 1_555
C67_4 C65_4 1_555 1_555
H54_4 C67_4 1_555 1_555
H55_4 C67_4 1_555 1_555
H56_4 C67_4 1_555 1_555
C13_4 C19_4 1_555 1_555
N4_4 C40_4 1_555 1_555
H37_3 C53_3 1_555 1_555
H38_3 C53_3 1_555 1_555
H39_3 C53_3 1_555 1_555
C12_3 H9_3 1_555 1_555
C30_3 C12_3 1_555 1_555
C59_3 C30_3 1_555 1_555
C61_3 C59_3 1_555 1_555
H48_3 C61_3 1_555 1_555
H49_3 C61_3 1_555 1_555
H50_3 C61_3 1_555 1_555
N1_5 H3_5 1_555 1_555
C2_5 N2_5 1_555 1_555
N4_5 N3_5 1_555 1_555
C19_5 N3_5 1_555 1_555
C26_5 N1_5 1_555 1_555
C32_5 C26_5 1_555 1_555
H15_5 C32_5 1_555 1_555
H16_5 C32_5 1_555 1_555
H17_5 C32_5 1_555 1_555
C37_5 C2_5 1_555 1_555
C38_5 C19_5 1_555 1_555
H21_5 C38_5 1_555 1_555
H22_5 C38_5 1_555 1_555
H23_5 C38_5 1_555 1_555
C40_5 C13_5 1_555 1_555
C47_5 C2_5 1_555 1_555
H31_5 C47_5 1_555 1_555
H32_5 C47_5 1_555 1_555
H33_5 C47_5 1_555 1_555
H44_5 N5_5 1_555 1_555
N6_3 C58_5 1_555 1_555
C60_5 C58_5 1_555 1_555
H45_5 C60_5 1_555 1_555
H46_5 C60_5 1_555 1_555
C63_5 C37_5 1_555 1_555
H51_5 C63_5 1_555 1_555
H52_5 C63_5 1_555 1_555
C64_5 C63_5 1_555 1_555
C65_5 C64_5 1_555 1_555
C66_5 C64_5 1_555 1_555
N7_5 C65_5 1_555 1_555
H53_5 N7_5 1_555 1_555
N8_3 C66_5 1_555 1_555
C67_5 C65_5 1_555 1_555
H54_5 C67_5 1_555 1_555
H55_5 C67_5 1_555 1_555
H56_5 C67_5 1_555 1_555
C68_5 C66_5 1_555 1_555
H57_5 C68_5 1_555 1_555
H58_5 C68_5 1_555 1_555
H59_5 C68_5 1_555 1_555
Co4_2 N6_3 1_555 1_555
N1_5 N2_5 1_555 1_555
C13_5 C19_5 1_555 1_555
N4_5 C40_5 1_555 1_555
C26_5 C37_5 1_555 1_555
N5_5 N6_3 1_555 1_555
N7_5 N8_3 1_555 1_555
N8_3 Co4_2 1_555 1_555
Co1_5 O5_5 1_555 1_555
Co2_3 O1_5 1_555 1_555
O1_5 C5_5 1_555 1_555
O2_5 C4_5 1_555 1_555
O3_5 H1_5 1_555 1_555
O4_5 H2_5 1_555 1_555
O5_5 C11_5 1_555 1_555
O6_5 Co1_5 1_555 1_555
O7_5 C8_5 1_555 1_555
O8_5 C11_5 1_555 1_555
O9_5 Co2_3 1_555 1_555
C1_5 C5_5 1_555 1_555
O10_5 H4_5 1_555 1_555
C3_5 H5_5 1_555 1_555
H6_5 C3_5 1_555 1_555
C4_5 C16_5 1_555 1_555
C5_5 O9_5 1_555 1_555
C6_5 H7_5 1_555 1_555
H8_5 C6_5 1_555 1_555
C7_5 C3_5 1_555 1_555
C8_5 O6_5 1_555 1_555
C9_5 C8_5 1_555 1_555
C10_5 O3_5 1_555 1_555
C11_5 C22_5 1_555 1_555
C14_5 O4_5 1_555 1_555
C15_5 C7_5 1_555 1_555
C16_5 C3_5 1_555 1_555
C17_5 C20_5 1_555 1_555
C18_5 C24_5 1_555 1_555
C20_5 C16_5 1_555 1_555
C21_5 C17_5 1_555 1_555
H12_5 C21_5 1_555 1_555
C22_5 C29_5 1_555 1_555
C23_5 C6_5 1_555 1_555
C24_5 C6_5 1_555 1_555
C25_5 C15_5 1_555 1_555
C27_5 C20_5 1_555 1_555
H13_5 C27_5 1_555 1_555
C28_5 C15_5 1_555 1_555
H14_5 C28_5 1_555 1_555
C29_5 O10_5 1_555 1_555
C31_5 C4_5 1_555 1_555
C33_5 C25_5 1_555 1_555
H18_5 C33_5 1_555 1_555
C34_5 C9_5 1_555 1_555
H19_5 C34_5 1_555 1_555
C35_5 C18_5 1_555 1_555
C36_5 C35_5 1_555 1_555
H20_5 C36_5 1_555 1_555
C39_5 C17_5 1_555 1_555
H24_5 C39_5 1_555 1_555
C41_5 C33_5 1_555 1_555
H25_5 C41_5 1_555 1_555
C42_5 C18_5 1_555 1_555
H26_5 C42_5 1_555 1_555
C43_5 C27_5 1_555 1_555
H27_5 C43_5 1_555 1_555
C44_5 C1_5 1_555 1_555
H28_5 C44_5 1_555 1_555
C45_5 C28_5 1_555 1_555
H29_5 C45_5 1_555 1_555
C46_5 C42_5 1_555 1_555
H30_5 C46_5 1_555 1_555
C48_5 C49_5 1_555 1_555
C49_5 C22_5 1_555 1_555
H34_5 C49_5 1_555 1_555
C50_5 C39_5 1_555 1_555
H35_5 C50_5 1_555 1_555
C51_5 C23_5 1_555 1_555
C52_5 C48_5 1_555 1_555
H36_5 C52_5 1_555 1_555
C54_5 C36_5 1_555 1_555
C55_5 C51_5 1_555 1_555
H41_5 C55_5 1_555 1_555
C56_5 C55_5 1_555 1_555
H42_5 C56_5 1_555 1_555
C57_5 C52_5 1_555 1_555
H43_5 C57_5 1_555 1_555
C62_5 C31_5 1_555 1_555
O11_3 C62_5 1_555 1_555
O12_3 C62_5 1_555 1_555
Co3_2 O11_3 1_555 1_555
N9_3 Co2_3 1_555 1_555
O14_3 Co2_3 1_555 1_555
N10_3 Co2_3 1_555 1_555
C1_5 C14_5 1_555 1_555
C7_5 C10_5 1_555 1_555
C9_5 C10_5 1_555 1_555
C14_5 C24_5 1_555 1_555
C21_5 C31_5 1_555 1_555
C23_5 C29_5 1_555 1_555
C25_5 C34_5 1_555 1_555
C35_5 C44_5 1_555 1_555
C41_5 C45_5 1_555 1_555
C43_5 C50_5 1_555 1_555
C46_5 C54_5 1_555 1_555
C48_5 C51_5 1_555 1_555
C56_5 C57_5 1_555 1_555
O12_3 Co3_2 1_555 1_555
O2_5 H60_5 1_555 1_555
H12_6 C21_6 1_555 1_555
H36_6 C52_6 1_555 1_555
H42_6 C56_6 1_555 1_555
C57_6 C52_6 1_555 1_555
H43_6 C57_6 1_555 1_555
O11_4 C62_6 1_555 1_555
Co4_2 O11_4 1_555 1_555
C56_6 C57_6 1_555 1_555
Co1_6 O5_6 1_555 1_555
Co2_4 O1_6 1_555 1_555
O1_6 C5_6 1_555 1_555
O2_6 C4_6 1_555 1_555
O3_6 H1_6 1_555 1_555
O4_6 H2_6 1_555 1_555
O5_6 C11_6 1_555 1_555
O6_6 Co1_6 1_555 1_555
N1_6 H3_6 1_555 1_555
O7_6 C8_6 1_555 1_555
O8_6 C11_6 1_555 1_555
O9_6 Co2_4 1_555 1_555
C1_6 C5_6 1_555 1_555
N2_6 Co1_6 1_555 1_555
O10_6 H4_6 1_555 1_555
C2_6 N2_6 1_555 1_555
C3_6 H5_6 1_555 1_555
H6_6 C3_6 1_555 1_555
C4_6 C16_6 1_555 1_555
C5_6 O9_6 1_555 1_555
C6_6 H7_6 1_555 1_555
H8_6 C6_6 1_555 1_555
N3_6 Co1_6 1_555 1_555
C7_6 C3_6 1_555 1_555
C8_6 O6_6 1_555 1_555
C9_6 C8_6 1_555 1_555
C10_6 O3_6 1_555 1_555
C11_6 C22_6 1_555 1_555
C12_4 H9_4 1_555 1_555
H10_4 C12_4 1_555 1_555
C13_6 C12_4 1_555 1_555
C14_6 O4_6 1_555 1_555
C15_6 C7_6 1_555 1_555
C16_6 C3_6 1_555 1_555
C17_6 C20_6 1_555 1_555
N4_6 N3_6 1_555 1_555
H11_6 N4_6 1_555 1_555
C18_6 C24_6 1_555 1_555
C19_6 N3_6 1_555 1_555
C20_6 C16_6 1_555 1_555
C22_6 C29_6 1_555 1_555
C23_6 C6_6 1_555 1_555
C24_6 C6_6 1_555 1_555
C25_6 C15_6 1_555 1_555
C26_6 N1_6 1_555 1_555
C27_6 C20_6 1_555 1_555
H13_6 C27_6 1_555 1_555
C28_6 C15_6 1_555 1_555
H14_6 C28_6 1_555 1_555
C29_6 O10_6 1_555 1_555
C30_4 C12_4 1_555 1_555
C31_6 C4_6 1_555 1_555
C32_6 C26_6 1_555 1_555
H15_6 C32_6 1_555 1_555
H17_6 C32_6 1_555 1_555
C33_6 C25_6 1_555 1_555
H18_6 C33_6 1_555 1_555
C34_6 C9_6 1_555 1_555
H19_6 C34_6 1_555 1_555
C35_6 C18_6 1_555 1_555
C36_6 C35_6 1_555 1_555
H20_6 C36_6 1_555 1_555
C37_6 C2_6 1_555 1_555
C38_6 C19_6 1_555 1_555
H21_6 C38_6 1_555 1_555
H22_6 C38_6 1_555 1_555
H23_6 C38_6 1_555 1_555
C39_6 C17_6 1_555 1_555
C40_6 C13_6 1_555 1_555
C41_6 C33_6 1_555 1_555
H25_6 C41_6 1_555 1_555
C42_6 C18_6 1_555 1_555
H26_6 C42_6 1_555 1_555
C43_6 C27_6 1_555 1_555
H27_6 C43_6 1_555 1_555
C44_6 C1_6 1_555 1_555
H28_6 C44_6 1_555 1_555
C45_6 C28_6 1_555 1_555
H29_6 C45_6 1_555 1_555
C46_6 C42_6 1_555 1_555
H30_6 C46_6 1_555 1_555
C47_6 C2_6 1_555 1_555
H31_6 C47_6 1_555 1_555
H32_6 C47_6 1_555 1_555
H33_6 C47_6 1_555 1_555
C48_6 C49_6 1_555 1_555
C49_6 C22_6 1_555 1_555
H34_6 C49_6 1_555 1_555
C50_6 C39_6 1_555 1_555
H35_6 C50_6 1_555 1_555
C51_6 C23_6 1_555 1_555
C53_4 C40_6 1_555 1_555
H37_4 C53_4 1_555 1_555
H38_4 C53_4 1_555 1_555
H39_4 C53_4 1_555 1_555
C54_6 C36_6 1_555 1_555
H40_4 C54_6 1_555 1_555
C55_6 C51_6 1_555 1_555
H41_6 C55_6 1_555 1_555
C58_6 C30_4 1_555 1_555
C59_4 C30_4 1_555 1_555
N5_6 C59_4 1_555 1_555
H44_6 N5_6 1_555 1_555
N6_4 C58_6 1_555 1_555
C60_6 C58_6 1_555 1_555
H45_6 C60_6 1_555 1_555
H46_6 C60_6 1_555 1_555
H47_4 C60_6 1_555 1_555
C61_4 C59_4 1_555 1_555
H48_4 C61_4 1_555 1_555
H49_4 C61_4 1_555 1_555
H50_4 C61_4 1_555 1_555
C63_6 C37_6 1_555 1_555
C64_6 C63_6 1_555 1_555
C65_6 C64_6 1_555 1_555
C66_6 C64_6 1_555 1_555
N7_6 C65_6 1_555 1_555
H53_6 N7_6 1_555 1_555
N8_4 C66_6 1_555 1_555
C67_6 C65_6 1_555 1_555
H55_6 C67_6 1_555 1_555
H56_6 C67_6 1_555 1_555
C68_6 C66_6 1_555 1_555
H57_6 C68_6 1_555 1_555
H58_6 C68_6 1_555 1_555
H59_6 C68_6 1_555 1_555
Co3_2 N6_4 1_555 1_555
N9_4 Co2_4 1_555 1_555
N10_4 Co2_4 1_555 1_555
N1_6 N2_6 1_555 1_555
C1_6 C14_6 1_555 1_555
C7_6 C10_6 1_555 1_555
C9_6 C10_6 1_555 1_555
C13_6 C19_6 1_555 1_555
C14_6 C24_6 1_555 1_555
N4_6 C40_6 1_555 1_555
C23_6 C29_6 1_555 1_555
C25_6 C34_6 1_555 1_555
C26_6 C37_6 1_555 1_555
C35_6 C44_6 1_555 1_555
C41_6 C45_6 1_555 1_555
C43_6 C50_6 1_555 1_555
C46_6 C54_6 1_555 1_555
C48_6 C51_6 1_555 1_555
N5_6 N6_4 1_555 1_555
N7_6 N8_4 1_555 1_555
N8_4 Co3_2 1_555 1_555
O2_6 H60_6 1_555 1_555
N1_7 H3_7 1_555 1_555
C26_7 N1_7 1_555 1_555
C32_7 C26_7 1_555 1_555
H15_7 C32_7 1_555 1_555
H16_7 C32_7 1_555 1_555
H17_7 C32_7 1_555 1_555
H21_7 C38_7 1_555 1_555
H22_7 C38_7 1_555 1_555
H23_7 C38_7 1_555 1_555
H44_7 N5_7 1_555 1_555
N9_4 C58_7 1_555 1_555
C63_7 C37_7 1_555 1_555
H52_7 C63_7 1_555 1_555
C64_7 C63_7 1_555 1_555
C66_7 C64_7 1_555 1_555
N10_4 C66_7 1_555 1_555
C68_7 C66_7 1_555 1_555
H57_7 C68_7 1_555 1_555
H58_7 C68_7 1_555 1_555
H59_7 C68_7 1_555 1_555
C26_7 C37_7 1_555 1_555
N5_7 N9_4 1_555 1_555
O7_7 C8_7 1_555 1_555
C9_7 C8_7 1_555 1_555
C15_7 C7_7 1_555 1_555
C25_7 C15_7 1_555 1_555
C28_7 C15_7 1_555 1_555
H14_7 C28_7 1_555 1_555
C33_7 C25_7 1_555 1_555
H18_7 C33_7 1_555 1_555
C34_7 C9_7 1_555 1_555
H19_7 C34_7 1_555 1_555
C41_7 C33_7 1_555 1_555
H25_7 C41_7 1_555 1_555
C45_7 C28_7 1_555 1_555
H29_7 C45_7 1_555 1_555
C25_7 C34_7 1_555 1_555
C41_7 C45_7 1_555 1_555
O2_7 H60_7 1_555 1_555
Co1_7 O5_7 1_555 1_555
Co3_2 O1_7 1_555 1_555
O1_7 C5_7 1_555 1_555
O3_7 H1_7 1_555 1_555
O4_7 H2_7 1_555 1_555
O5_7 C11_7 1_555 1_555
O6_7 Co1_7 1_555 1_555
O8_7 C11_7 1_555 1_555
O9_7 Co3_2 1_555 1_555
C1_7 C5_7 1_555 1_555
O10_7 H4_7 1_555 1_555
C3_7 H5_7 1_555 1_555
H6_7 C3_7 1_555 1_555
C4_7 C16_7 1_555 1_555
C5_7 O9_7 1_555 1_555
C6_7 H7_7 1_555 1_555
H8_7 C6_7 1_555 1_555
C10_7 O3_7 1_555 1_555
C11_7 C22_7 1_555 1_555
C14_7 O4_7 1_555 1_555
C16_7 C3_7 1_555 1_555
C17_7 C20_7 1_555 1_555
C18_7 C24_7 1_555 1_555
C20_7 C16_7 1_555 1_555
C21_7 C17_7 1_555 1_555
H12_7 C21_7 1_555 1_555
C22_7 C29_7 1_555 1_555
C23_7 C6_7 1_555 1_555
C24_7 C6_7 1_555 1_555
C27_7 C20_7 1_555 1_555
H13_7 C27_7 1_555 1_555
C29_7 O10_7 1_555 1_555
C31_7 C4_7 1_555 1_555
C35_7 C18_7 1_555 1_555
C36_7 C35_7 1_555 1_555
H20_7 C36_7 1_555 1_555
C39_7 C17_7 1_555 1_555
H24_7 C39_7 1_555 1_555
C42_7 C18_7 1_555 1_555
H26_7 C42_7 1_555 1_555
C43_7 C27_7 1_555 1_555
H27_7 C43_7 1_555 1_555
C44_7 C1_7 1_555 1_555
H28_7 C44_7 1_555 1_555
C46_7 C42_7 1_555 1_555
H30_7 C46_7 1_555 1_555
C48_7 C49_7 1_555 1_555
C49_7 C22_7 1_555 1_555
H34_7 C49_7 1_555 1_555
C50_7 C39_7 1_555 1_555
H35_7 C50_7 1_555 1_555
C51_7 C23_7 1_555 1_555
C52_7 C48_7 1_555 1_555
H36_7 C52_7 1_555 1_555
C54_7 C36_7 1_555 1_555
C55_7 C51_7 1_555 1_555
H41_7 C55_7 1_555 1_555
C56_7 C55_7 1_555 1_555
H42_7 C56_7 1_555 1_555
C57_7 C52_7 1_555 1_555
H43_7 C57_7 1_555 1_555
C62_7 C31_7 1_555 1_555
O13_3 C62_7 1_555 1_555
C1_7 C14_7 1_555 1_555
C14_7 C24_7 1_555 1_555
C21_7 C31_7 1_555 1_555
C23_7 C29_7 1_555 1_555
C35_7 C44_7 1_555 1_555
C43_7 C50_7 1_555 1_555
C46_7 C54_7 1_555 1_555
C48_7 C51_7 1_555 1_555
C56_7 C57_7 1_555 1_555
N1_8 H3_8 1_555 1_555
O7_8 C8_8 1_555 1_555
C9_8 C8_8 1_555 1_555
C12_5 H9_5 1_555 1_555
C15_8 C7_8 1_555 1_555
C25_8 C15_8 1_555 1_555
C26_8 N1_8 1_555 1_555
C28_8 C15_8 1_555 1_555
H14_8 C28_8 1_555 1_555
C30_5 C12_5 1_555 1_555
C32_8 C26_8 1_555 1_555
H15_8 C32_8 1_555 1_555
H17_8 C32_8 1_555 1_555
C33_8 C25_8 1_555 1_555
H18_8 C33_8 1_555 1_555
C34_8 C9_8 1_555 1_555
H19_8 C34_8 1_555 1_555
H21_8 C38_8 1_555 1_555
H22_8 C38_8 1_555 1_555
H23_8 C38_8 1_555 1_555
C41_8 C33_8 1_555 1_555
H25_8 C41_8 1_555 1_555
C45_8 C28_8 1_555 1_555
H29_8 C45_8 1_555 1_555
C58_8 C30_5 1_555 1_555
C59_5 C30_5 1_555 1_555
N5_8 C59_5 1_555 1_555
H44_8 N5_8 1_555 1_555
N9_3 C58_8 1_555 1_555
C61_5 C59_5 1_555 1_555
H48_5 C61_5 1_555 1_555
H49_5 C61_5 1_555 1_555
H50_5 C61_5 1_555 1_555
C63_8 C37_8 1_555 1_555
C64_8 C63_8 1_555 1_555
C66_8 C64_8 1_555 1_555
N10_3 C66_8 1_555 1_555
C68_8 C66_8 1_555 1_555
H57_8 C68_8 1_555 1_555
H58_8 C68_8 1_555 1_555
H59_8 C68_8 1_555 1_555
C25_8 C34_8 1_555 1_555
C26_8 C37_8 1_555 1_555
C41_8 C45_8 1_555 1_555
N5_8 N9_3 1_555 1_555
O2_8 H60_8 1_555 1_555
Co1_8 O5_8 1_555 1_555
Co4_2 O1_8 1_555 1_555
O1_8 C5_8 1_555 1_555
O3_8 H1_8 1_555 1_555
O4_8 H2_8 1_555 1_555
O5_8 C11_8 1_555 1_555
O6_8 Co1_8 1_555 1_555
O8_8 C11_8 1_555 1_555
O9_8 Co4_2 1_555 1_555
C1_8 C5_8 1_555 1_555
N2_7 Co1_8 1_555 1_555
O10_8 H4_8 1_555 1_555
C2_7 N2_7 1_555 1_555
C3_8 H5_8 1_555 1_555
H6_8 C3_8 1_555 1_555
C4_8 C16_8 1_555 1_555
C5_8 O9_8 1_555 1_555
C6_8 H7_8 1_555 1_555
H8_8 C6_8 1_555 1_555
N3_7 Co1_8 1_555 1_555
C10_8 O3_8 1_555 1_555
C11_8 C22_8 1_555 1_555
C14_8 O4_8 1_555 1_555
C16_8 C3_8 1_555 1_555
C17_8 C20_8 1_555 1_555
N4_7 N3_7 1_555 1_555
H11_8 N4_7 1_555 1_555
C18_8 C24_8 1_555 1_555
C19_7 N3_7 1_555 1_555
C20_8 C16_8 1_555 1_555
C22_8 C29_8 1_555 1_555
C23_8 C6_8 1_555 1_555
C24_8 C6_8 1_555 1_555
C27_8 C20_8 1_555 1_555
H13_8 C27_8 1_555 1_555
C29_8 O10_8 1_555 1_555
C31_8 C4_8 1_555 1_555
C35_8 C18_8 1_555 1_555
C36_8 C35_8 1_555 1_555
H20_8 C36_8 1_555 1_555
C39_8 C17_8 1_555 1_555
C40_7 C13_7 1_555 1_555
C42_8 C18_8 1_555 1_555
H26_8 C42_8 1_555 1_555
C43_8 C27_8 1_555 1_555
H27_8 C43_8 1_555 1_555
C44_8 C1_8 1_555 1_555
H28_8 C44_8 1_555 1_555
C46_8 C42_8 1_555 1_555
H30_8 C46_8 1_555 1_555
C47_7 C2_7 1_555 1_555
H31_7 C47_7 1_555 1_555
H32_7 C47_7 1_555 1_555
H33_7 C47_7 1_555 1_555
C48_8 C49_8 1_555 1_555
C49_8 C22_8 1_555 1_555
H34_8 C49_8 1_555 1_555
C50_8 C39_8 1_555 1_555
H35_8 C50_8 1_555 1_555
C51_8 C23_8 1_555 1_555
C53_5 C40_7 1_555 1_555
H37_5 C53_5 1_555 1_555
H38_5 C53_5 1_555 1_555
H39_5 C53_5 1_555 1_555
C54_8 C36_8 1_555 1_555
H40_5 C54_8 1_555 1_555
C55_8 C51_8 1_555 1_555
H41_8 C55_8 1_555 1_555
H45_7 C60_7 1_555 1_555
H46_7 C60_7 1_555 1_555
H47_5 C60_7 1_555 1_555
N7_7 C65_7 1_555 1_555
H53_7 N7_7 1_555 1_555
C67_7 C65_7 1_555 1_555
H55_7 C67_7 1_555 1_555
H56_7 C67_7 1_555 1_555
C1_8 C14_8 1_555 1_555
C13_7 C19_7 1_555 1_555
C14_8 C24_8 1_555 1_555
N4_7 C40_7 1_555 1_555
C23_8 C29_8 1_555 1_555
C35_8 C44_8 1_555 1_555
C43_8 C50_8 1_555 1_555
C46_8 C54_8 1_555 1_555
C48_8 C51_8 1_555 1_555
H12_8 C21_8 1_555 1_555
H36_8 C52_8 1_555 1_555
H42_8 C56_8 1_555 1_555
C57_8 C52_8 1_555 1_555
H43_8 C57_8 1_555 1_555
O13_4 C62_8 1_555 1_555
C56_8 C57_8 1_555 1_555
C12_6 H9_6 1_555 1_555
H10_6 C12_6 1_555 1_555
C30_6 C12_6 1_555 1_555
H37_6 C53_6 1_555 1_555
H38_6 C53_6 1_555 1_555
H39_6 C53_6 1_555 1_555
C59_6 C30_6 1_555 1_555
C61_6 C59_6 1_555 1_555
H48_6 C61_6 1_555 1_555
H49_6 C61_6 1_555 1_555
H50_6 C61_6 1_555 1_555
C12_7 H9_7 1_555 1_555
C30_7 C12_7 1_555 1_555
C59_7 C30_7 1_555 1_555
C61_7 C59_7 1_555 1_555
H48_7 C61_7 1_555 1_555
H49_7 C61_7 1_555 1_555
H50_7 C61_7 1_555 1_555
H37_7 C53_7 1_555 1_555
H38_7 C53_7 1_555 1_555
H39_7 C53_7 1_555 1_555
C2_8 N2_8 1_555 1_555
N4_8 N3_8 1_555 1_555
C19_8 N3_8 1_555 1_555
C40_8 C13_8 1_555 1_555
C47_8 C2_8 1_555 1_555
H31_8 C47_8 1_555 1_555
H32_8 C47_8 1_555 1_555
H33_8 C47_8 1_555 1_555
H45_8 C60_8 1_555 1_555
H46_8 C60_8 1_555 1_555
N7_8 C65_8 1_555 1_555
H53_8 N7_8 1_555 1_555
C67_8 C65_8 1_555 1_555
H54_8 C67_8 1_555 1_555
H55_8 C67_8 1_555 1_555
H56_8 C67_8 1_555 1_555
C13_8 C19_8 1_555 1_555
N4_8 C40_8 1_555 1_555
C12_8 H9_8 1_555 1_555
H10_8 C12_8 1_555 1_555
C30_8 C12_8 1_555 1_555
H37_8 C53_8 1_555 1_555
H38_8 C53_8 1_555 1_555
H39_8 C53_8 1_555 1_555
C59_8 C30_8 1_555 1_555
C61_8 C59_8 1_555 1_555
H48_8 C61_8 1_555 1_555
H49_8 C61_8 1_555 1_555
H50_8 C61_8 1_555 1_555

#END
