
###############################################################################
#
# This file contains modified crystal structure data generated from the
# MOF subset of the Cambridge Structural Database (CSD) v543 
# hosted by the Cambridge Crystallographic Data Centre (CCDC).
#
# This work is licensed under the Creative Commons
# Attribution-NonCommercial-ShareAlike 4.0 International License.
# To view a copy of this license, visit
# http://creativecommons.org/licenses/by-nc-sa/4.0/
# or send a letter to
# Creative Commons, PO Box 1866, Mountain View, CA 94042, USA.
#
# CIF created using the CSD Python API on 29 September 2022
# The structure has been converted into the P1 space group
# The structure has a 3D framework
# The original CSD entry FUSRES is in the monoclinic crystal system
# The framework has been calculated to contain at least 10.0% void space
# The void calculation uses a probe of radius 1.32A, grid spacing 0.4
#
###############################################################################

data_FUSRES
_chemical_formula_moiety         '(C152 H160 Co8 N32 O32)n'
_symmetry_cell_setting           triclinic
_symmetry_space_group_name_H-M   'P 1'
_symmetry_Int_Tables_number      1
_space_group_name_Hall           'P 1'
loop_
_symmetry_equiv_pos_site_id
_symmetry_equiv_pos_as_xyz
1 x,y,z
_cell_length_a                   19.2342(13)
_cell_length_b                   13.4738(10)
_cell_length_c                   18.5923(13)
_cell_angle_alpha                90
_cell_angle_beta                 116.139(2)
_cell_angle_gamma                90
_cell_volume                     4325.56
loop_
_atom_site_label
_atom_site_type_symbol
_atom_site_fract_x
_atom_site_fract_y
_atom_site_fract_z
Co1 Co 0.05157(4) 0.28208(7) 0.05482(4)
N1 N 0.1203(2) 0.4723(5) 0.1207(3)
H1 H 0.1070 0.4920 0.0723
N2 N 0.1071(2) 0.3815(4) 0.1394(3)
C1 C 0.1374(3) 0.3798(6) 0.2210(3)
C2 C 0.1706(3) 0.4732(6) 0.2510(3)
N3 N 0.3849(3) 0.6563(5) 0.4111(3)
C3 C 0.2865(4) 0.5499(7) 0.3648(3)
C4 C 0.1733(5) 0.6387(7) 0.1781(4)
H2 H 0.2005 0.6674 0.2304
H3 H 0.1252 0.6731 0.1492
H4 H 0.2043 0.6443 0.1496
C5 C 0.1312(4) 0.2894(6) 0.2632(4)
H5 H 0.1045 0.2385 0.2248
H6 H 0.1028 0.3046 0.2934
H7 H 0.1821 0.2665 0.2989
N4 N 0.4108(3) 0.5696(5) 0.3963(3)
H8 H 0.4575 0.5599 0.4033
C8 C 0.1573(3) 0.5307(6) 0.1860(4)
C9 C 0.3074(3) 0.6460(6) 0.3906(3)
C10 C 0.3543(4) 0.4990(6) 0.3692(3)
C13 C 0.2615(5) 0.7262(8) 0.3992(5)
H10 H 0.2090 0.7044 0.3811
H11 H 0.2629 0.7819 0.3676
H12 H 0.2823 0.7455 0.4544
C14 C 0.2088(4) 0.5023(7) 0.3393(4)
H13 H 0.1751 0.5479 0.3494
H14 H 0.2147 0.4434 0.3716
C19 C 0.3668(6) 0.4014(7) 0.3484(5)
H18 H 0.4202 0.3938 0.3596
H19 H 0.3347 0.3903 0.2924
H20 H 0.3539 0.3542 0.3793
Co4 Co 0.44843(4) 0.78208(7) 0.44518(4)
N10 N 0.1151(3) 0.1563(5) 0.0889(3)
H15 H 0.5217 0.0350 0.8200
H23 H 0.4783 0.0350 0.6800
C30 C 0.2135(4) 0.0499(7) 0.1352(3)
C31 C 0.3267(5) 0.1387(7) 0.3219(4)
H26 H 0.2995 0.1674 0.2696
H27 H 0.3748 0.1731 0.3508
H28 H 0.2957 0.1443 0.3504
N8 N 0.0892(3) 0.0696(5) 0.1037(3)
H32 H 0.0425 0.0599 0.0967
C33 C 0.3427(3) 0.0307(6) 0.3140(4)
C34 C 0.1926(3) 0.1460(6) 0.1094(3)
C36 C 0.2385(5) 0.2262(8) 0.1008(5)
H33 H 0.2910 0.2044 0.1189
H34 H 0.2371 0.2819 0.1324
H35 H 0.2177 0.2455 0.0456
C37 C 0.2912(4) 0.0023(7) 0.1607(4)
H36 H 0.3249 0.0479 0.1506
O1 O 0.5716(3) 0.9707(5) 0.9586(3)
O2 O 0.5481(4) 0.8147(6) 0.9526(3)
C11 C 0.5512(4) 0.8929(7) 0.9254(4)
C12 C 0.5233(4) 0.8894(7) 0.8325(4)
C15 C 0.5126(4) 0.9751(7) 0.7924(3)
C16 C 0.2213(4) 0.8484(8) 0.9821(4)
H16 H 0.2045 0.9138 0.9708
C18 C 0.5122(5) 0.8006(8) 0.7926(5)
H17 H 0.5204 0.7410 0.8204
C20 C 0.1976(4) 0.6773(8) 0.9936(4)
H21 H 0.1622 0.6279 0.9891
C21 C 0.1728(4) 0.7772(8) 0.9767(4)
O5 O 0.0623(3) 0.8855(6) 0.9331(4)
O6 O 0.0498(3) 0.7361(6) 0.9544(5)
C23 C 0.0835(5) 0.7951(10) 0.9510(4)
O7 O 0.4284(3) 0.9707(5) 0.5414(3)
O8 O 0.4519(4) 0.8147(6) 0.5474(3)
C24 C 0.4488(4) 0.8929(7) 0.5746(4)
C25 C 0.4767(4) 0.8894(7) 0.6675(4)
C26 C 0.4874(4) 0.9751(7) 0.7076(3)
C27 C 0.4878(5) 0.8006(8) 0.7074(5)
H24 H 0.4796 0.7410 0.6796
N5 N 0.3797(2) 0.9723(5) 0.3793(3)
H25 H 0.3930 0.9920 0.4277
N6 N 0.3929(2) 0.8815(4) 0.3606(3)
C28 C 0.3626(3) 0.8798(6) 0.2790(3)
C29 C 0.3294(3) 0.9732(6) 0.2490(3)
C32 C 0.3688(4) 0.7894(6) 0.2368(4)
H29 H 0.3955 0.7385 0.2752
H30 H 0.3972 0.8046 0.2066
H31 H 0.3179 0.7665 0.2011
C35 C 0.1457(4) 0.9990(6) 0.1308(3)
H37 H 0.2853 0.9434 0.1284
C38 C 0.1332(6) 0.9014(7) 0.1516(5)
H38 H 0.0798 0.8938 0.1404
H39 H 0.1653 0.8903 0.2076
H40 H 0.1461 0.8542 0.1207
O9 O 0.5498(3) 0.7639(6) 0.4544(5)
C6 C 0.6976(4) 0.8227(8) 0.4936(4)
H9 H 0.6622 0.8721 0.4891
C7 C 0.6728(4) 0.7228(8) 0.4767(4)
O3 O 0.5623(3) 0.6145(6) 0.4331(4)
C16_2 C 0.7787(4) 0.8484(8) 0.5179(4)
H16_2 H 0.7955 0.9138 0.5292
C17 C 0.5835(5) 0.7049(10) 0.4510(4)
C20_2 C 0.8024(4) 0.6773(8) 0.5064(4)
H21_2 H 0.8378 0.6279 0.5109
C21_2 C 0.8272(4) 0.7772(8) 0.5233(4)
O5_2 O 0.9377(3) 0.8855(6) 0.5669(4)
O6_2 O 0.9502(3) 0.7361(6) 0.5456(5)
C22 C 0.7213(4) 0.6516(8) 0.4821(4)
H22 H 0.7045 0.5862 0.4708
C23_2 C 0.9165(5) 0.7951(10) 0.5490(4)
O1_2 O 0.9284(3) 0.5293(5) 0.0414(3)
O2_2 O 0.9519(4) 0.6853(6) 0.0474(3)
C11_2 C 0.9488(4) 0.6071(7) 0.0746(4)
C12_2 C 0.9767(4) 0.6106(7) 0.1675(4)
C15_2 C 0.9874(4) 0.5249(7) 0.2076(3)
H15_2 H 0.9783 0.4650 0.1800
C18_2 C 0.9878(5) 0.6994(8) 0.2074(5)
H17_2 H 0.9796 0.7590 0.1796
O1_3 O 0.0716(3) 0.4707(5) 0.9586(3)
O2_3 O 0.0481(4) 0.3147(6) 0.9526(3)
C11_3 C 0.0512(4) 0.3929(7) 0.9254(4)
C12_3 C 0.0233(4) 0.3894(7) 0.8325(4)
C15_3 C 0.0126(4) 0.4751(7) 0.7924(3)
H15_3 H 0.0217 0.5350 0.8200
C18_3 C 0.0122(5) 0.3006(8) 0.7926(5)
H17_3 H 0.0204 0.2410 0.8204
O9_2 O 0.0498(3) 0.2639(6) 0.4544(5)
C6_2 C 0.8024(4) 0.3227(8) 0.0064(4)
H9_2 H 0.8378 0.3721 0.0109
C7_2 C 0.8272(4) 0.2228(8) 0.0233(4)
O3_2 O 0.9377(3) 0.1145(6) 0.0669(4)
O4 O 0.9502(3) 0.2639(6) 0.0456(5)
C17_2 C 0.9165(5) 0.2049(10) 0.0490(4)
C22_2 C 0.7787(4) 0.1516(8) 0.0179(4)
H22_2 H 0.7955 0.0862 0.0292
C6_3 C 0.1976(4) 0.3227(8) 0.4936(4)
H9_3 H 0.1622 0.3721 0.4891
C7_3 C 0.1728(4) 0.2228(8) 0.4767(4)
O3_3 O 0.0623(3) 0.1145(6) 0.4331(4)
C16_3 C 0.2787(4) 0.3484(8) 0.5179(4)
H16_3 H 0.2955 0.4138 0.5292
C17_3 C 0.0835(5) 0.2049(10) 0.4510(4)
C20_3 C 0.3024(4) 0.1773(8) 0.5064(4)
H21_3 H 0.3378 0.1279 0.5109
C21_3 C 0.3272(4) 0.2772(8) 0.5233(4)
O5_3 O 0.4377(3) 0.3855(6) 0.5669(4)
O6_3 O 0.4502(3) 0.2361(6) 0.5456(5)
C22_3 C 0.2213(4) 0.1516(8) 0.4821(4)
H22_3 H 0.2045 0.0862 0.4708
C23_3 C 0.4165(5) 0.2951(10) 0.5490(4)
Co5 Co 0.55157(4) 0.21792(7) 0.55482(4)
Co5_2 Co 0.94843(4) 0.71792(7) 0.94518(4)
N1_2 N 0.8797(2) 0.5277(5) 0.8793(3)
H1_2 H 0.8930 0.5080 0.9277
N2_2 N 0.8929(2) 0.6185(4) 0.8606(3)
C1_2 C 0.8626(3) 0.6202(6) 0.7790(3)
C2_2 C 0.8294(3) 0.5268(6) 0.7490(3)
N3_2 N 0.6151(3) 0.3437(5) 0.5889(3)
C3_2 C 0.7135(4) 0.4501(7) 0.6352(3)
C4_2 C 0.8267(5) 0.3613(7) 0.8219(4)
H2_2 H 0.7995 0.3326 0.7696
H3_2 H 0.8748 0.3269 0.8508
H4_2 H 0.7957 0.3557 0.8504
C5_2 C 0.8688(4) 0.7106(6) 0.7368(4)
H5_2 H 0.8955 0.7615 0.7752
H6_2 H 0.8972 0.6954 0.7066
H7_2 H 0.8179 0.7335 0.7011
N4_2 N 0.5892(3) 0.4304(5) 0.6037(3)
H8_2 H 0.5425 0.4401 0.5967
C8_2 C 0.8427(3) 0.4693(6) 0.8140(4)
C9_2 C 0.6926(3) 0.3540(6) 0.6094(3)
C10_2 C 0.6457(4) 0.5010(6) 0.6308(3)
C13_2 C 0.7385(5) 0.2738(8) 0.6008(5)
H10_2 H 0.7910 0.2956 0.6189
H11_2 H 0.7371 0.2181 0.6324
H12_2 H 0.7177 0.2545 0.5456
C14_2 C 0.7912(4) 0.4977(7) 0.6607(4)
H13_2 H 0.8249 0.4521 0.6506
H14_2 H 0.7853 0.5566 0.6284
C19_2 C 0.6332(6) 0.5986(7) 0.6516(5)
H18_2 H 0.5798 0.6062 0.6404
H19_2 H 0.6653 0.6097 0.7076
H20_2 H 0.6461 0.6458 0.6207
N10_2 N 0.8849(3) 0.8437(5) 0.9111(3)
O1_4 O 0.4284(3) 0.0293(5) 0.0414(3)
O2_4 O 0.4519(4) 0.1853(6) 0.0474(3)
C11_4 C 0.4488(4) 0.1071(7) 0.0746(4)
C12_4 C 0.4767(4) 0.1106(7) 0.1675(4)
C15_4 C 0.4874(4) 0.0249(7) 0.2076(3)
C18_4 C 0.4878(5) 0.1994(8) 0.2074(5)
H17_4 H 0.4796 0.2590 0.1796
O7_2 O 0.5716(3) 0.0293(5) 0.4586(3)
O8_2 O 0.5481(4) 0.1853(6) 0.4526(3)
C24_2 C 0.5512(4) 0.1071(7) 0.4254(4)
C25_2 C 0.5233(4) 0.1106(7) 0.3325(4)
C26_2 C 0.5126(4) 0.0249(7) 0.2924(3)
C27_2 C 0.5122(5) 0.1994(8) 0.2926(5)
H24_2 H 0.5204 0.2590 0.3204
N5_2 N 0.6203(2) 0.0277(5) 0.6207(3)
H25_2 H 0.6070 0.0080 0.5723
N6_2 N 0.6071(2) 0.1185(4) 0.6394(3)
C28_2 C 0.6374(3) 0.1202(6) 0.7210(3)
C29_2 C 0.6706(3) 0.0268(6) 0.7510(3)
C32_2 C 0.6312(4) 0.2106(6) 0.7632(4)
H29_2 H 0.6045 0.2615 0.7248
H30_2 H 0.6028 0.1954 0.7934
H31_2 H 0.6821 0.2335 0.7989
C35_2 C 0.8543(4) 0.0010(6) 0.8692(3)
H37_2 H 0.7147 0.0566 0.8716
C38_2 C 0.8668(6) 0.0986(7) 0.8484(5)
H38_2 H 0.9202 0.1062 0.8596
H39_2 H 0.8347 0.1097 0.7924
H40_2 H 0.8539 0.1458 0.8793
H15_4 H 0.4783 0.9650 0.1800
H23_2 H 0.5217 0.9650 0.3200
C30_2 C 0.7865(4) 0.9501(7) 0.8648(3)
C31_2 C 0.6733(5) 0.8613(7) 0.6781(4)
H26_2 H 0.7005 0.8326 0.7304
H27_2 H 0.6252 0.8269 0.6492
H28_2 H 0.7043 0.8557 0.6496
N8_2 N 0.9108(3) 0.9304(5) 0.8963(3)
H32_2 H 0.9575 0.9401 0.9033
C33_2 C 0.6573(3) 0.9693(6) 0.6860(4)
C34_2 C 0.8074(3) 0.8540(6) 0.8906(3)
C36_2 C 0.7615(5) 0.7738(8) 0.8992(5)
H33_2 H 0.7090 0.7956 0.8811
H34_2 H 0.7629 0.7181 0.8676
H35_2 H 0.7823 0.7545 0.9544
C37_2 C 0.7088(4) 0.9977(7) 0.8393(4)
H36_2 H 0.6751 0.9521 0.8494
C16_4 C 0.7213(4) 0.3484(8) 0.9821(4)
H16_4 H 0.7045 0.4138 0.9708
C20_4 C 0.6976(4) 0.1773(8) 0.9936(4)
H21_4 H 0.6622 0.1279 0.9891
C21_4 C 0.6728(4) 0.2772(8) 0.9767(4)
O5_4 O 0.5623(3) 0.3855(6) 0.9331(4)
O6_4 O 0.5498(3) 0.2361(6) 0.9544(5)
C23_4 C 0.5835(5) 0.2951(10) 0.9510(4)
O7_3 O 0.9284(3) 0.4707(5) 0.5414(3)
O8_3 O 0.9519(4) 0.3147(6) 0.5474(3)
C24_3 C 0.9488(4) 0.3929(7) 0.5746(4)
C25_3 C 0.9767(4) 0.3894(7) 0.6675(4)
C26_3 C 0.9874(4) 0.4751(7) 0.7076(3)
H23_3 H 0.9783 0.5350 0.6800
C27_3 C 0.9878(5) 0.3006(8) 0.7074(5)
H24_3 H 0.9796 0.2410 0.6796
Co2 Co 0.94843(4) 0.28208(7) 0.44518(4)
N5_3 N 0.8797(2) 0.4723(5) 0.3793(3)
H25_3 H 0.8930 0.4920 0.4277
N6_3 N 0.8929(2) 0.3815(4) 0.3606(3)
C28_3 C 0.8626(3) 0.3798(6) 0.2790(3)
C29_3 C 0.8294(3) 0.4732(6) 0.2490(3)
N7 N 0.6151(3) 0.6563(5) 0.0889(3)
C30_3 C 0.7135(4) 0.5499(7) 0.1352(3)
C31_3 C 0.8267(5) 0.6387(7) 0.3219(4)
H26_3 H 0.7995 0.6674 0.2696
H27_3 H 0.8748 0.6731 0.3508
H28_3 H 0.7957 0.6443 0.3504
C32_3 C 0.8688(4) 0.2894(6) 0.2368(4)
H29_3 H 0.8955 0.2385 0.2752
H30_3 H 0.8972 0.3046 0.2066
H31_3 H 0.8179 0.2665 0.2011
N8_3 N 0.5892(3) 0.5696(5) 0.1037(3)
H32_3 H 0.5425 0.5599 0.0967
C33_3 C 0.8427(3) 0.5307(6) 0.3140(4)
C34_3 C 0.6926(3) 0.6460(6) 0.1094(3)
C35_3 C 0.6457(4) 0.4990(6) 0.1308(3)
C36_3 C 0.7385(5) 0.7262(8) 0.1008(5)
H33_3 H 0.7910 0.7044 0.1189
H34_3 H 0.7371 0.7819 0.1324
H35_3 H 0.7177 0.7455 0.0456
C37_3 C 0.7912(4) 0.5023(7) 0.1607(4)
H36_3 H 0.8249 0.5479 0.1506
H37_3 H 0.7853 0.4434 0.1284
C38_3 C 0.6332(6) 0.4014(7) 0.1516(5)
H38_3 H 0.5798 0.3938 0.1404
H39_3 H 0.6653 0.3903 0.2076
H40_3 H 0.6461 0.3542 0.1207
Co3 Co 0.55157(4) 0.78208(7) 0.05482(4)
Co5_3 Co 0.44843(4) 0.21792(7) 0.94518(4)
N9 N 0.8849(3) 0.1563(5) 0.4111(3)
C3_3 C 0.7865(4) 0.0499(7) 0.3648(3)
C4_3 C 0.6733(5) 0.1387(7) 0.1781(4)
H2_3 H 0.7005 0.1674 0.2304
H3_3 H 0.6252 0.1731 0.1492
H4_3 H 0.7043 0.1443 0.1496
N4_3 N 0.9108(3) 0.0696(5) 0.3963(3)
H8_3 H 0.9575 0.0599 0.4033
C8_3 C 0.6573(3) 0.0307(6) 0.1860(4)
C9_3 C 0.8074(3) 0.1460(6) 0.3906(3)
C13_3 C 0.7615(5) 0.2262(8) 0.3992(5)
H10_3 H 0.7090 0.2044 0.3811
H11_3 H 0.7629 0.2819 0.3676
H12_3 H 0.7823 0.2455 0.4544
C14_3 C 0.7088(4) 0.0023(7) 0.3393(4)
H13_3 H 0.6751 0.0479 0.3494
N1_3 N 0.6203(2) 0.9723(5) 0.1207(3)
H1_3 H 0.6070 0.9920 0.0723
N2_3 N 0.6071(2) 0.8815(4) 0.1394(3)
C1_3 C 0.6374(3) 0.8798(6) 0.2210(3)
C2_3 C 0.6706(3) 0.9732(6) 0.2510(3)
C5_3 C 0.6312(4) 0.7894(6) 0.2632(4)
H5_3 H 0.6045 0.7385 0.2248
H6_3 H 0.6028 0.8046 0.2934
H7_3 H 0.6821 0.7665 0.2989
C6_4 C 0.3024(4) 0.8227(8) 0.0064(4)
H9_4 H 0.3378 0.8721 0.0109
C7_4 C 0.3272(4) 0.7228(8) 0.0233(4)
C10_3 C 0.8543(4) 0.9990(6) 0.3692(3)
O3_4 O 0.4377(3) 0.6145(6) 0.0669(4)
H14_3 H 0.7147 0.9434 0.3716
O4_2 O 0.4502(3) 0.7639(6) 0.0456(5)
C17_4 C 0.4165(5) 0.7049(10) 0.0490(4)
C19_3 C 0.8668(6) 0.9014(7) 0.3484(5)
H18_3 H 0.9202 0.8938 0.3596
H19_3 H 0.8347 0.8903 0.2924
H20_3 H 0.8539 0.8542 0.3793
C22_4 C 0.2787(4) 0.6516(8) 0.0179(4)
H22_4 H 0.2955 0.5862 0.0292
Co5_4 Co 0.05157(4) 0.71792(7) 0.55482(4)
O7_4 O 0.0716(3) 0.5293(5) 0.4586(3)
O8_4 O 0.0481(4) 0.6853(6) 0.4526(3)
C24_4 C 0.0512(4) 0.6071(7) 0.4254(4)
C25_4 C 0.0233(4) 0.6106(7) 0.3325(4)
C26_4 C 0.0126(4) 0.5249(7) 0.2924(3)
H23_4 H 0.0217 0.4650 0.3200
C27_4 C 0.0122(5) 0.6994(8) 0.2926(5)
H24_4 H 0.0204 0.7590 0.3204
N5_4 N 0.1203(2) 0.5277(5) 0.6207(3)
H25_4 H 0.1070 0.5080 0.5723
N6_4 N 0.1071(2) 0.6185(4) 0.6394(3)
C28_4 C 0.1374(3) 0.6202(6) 0.7210(3)
C29_4 C 0.1706(3) 0.5268(6) 0.7510(3)
N7_2 N 0.3849(3) 0.3437(5) 0.9111(3)
C30_4 C 0.2865(4) 0.4501(7) 0.8648(3)
C31_4 C 0.1733(5) 0.3613(7) 0.6781(4)
H26_4 H 0.2005 0.3326 0.7304
H27_4 H 0.1252 0.3269 0.6492
H28_4 H 0.2043 0.3557 0.6496
C32_4 C 0.1312(4) 0.7106(6) 0.7632(4)
H29_4 H 0.1045 0.7615 0.7248
H30_4 H 0.1028 0.6954 0.7934
H31_4 H 0.1821 0.7335 0.7989
N8_4 N 0.4108(3) 0.4304(5) 0.8963(3)
H32_4 H 0.4575 0.4401 0.9033
C33_4 C 0.1573(3) 0.4693(6) 0.6860(4)
C34_4 C 0.3074(3) 0.3540(6) 0.8906(3)
C35_4 C 0.3543(4) 0.5010(6) 0.8692(3)
C36_4 C 0.2615(5) 0.2738(8) 0.8992(5)
H33_4 H 0.2090 0.2956 0.8811
H34_4 H 0.2629 0.2181 0.8676
H35_4 H 0.2823 0.2545 0.9544
C37_4 C 0.2088(4) 0.4977(7) 0.8393(4)
H36_4 H 0.1751 0.4521 0.8494
H37_4 H 0.2147 0.5566 0.8716
C38_4 C 0.3668(6) 0.5986(7) 0.8484(5)
H38_4 H 0.4202 0.6062 0.8596
H39_4 H 0.3347 0.6097 0.7924
H40_4 H 0.3539 0.6458 0.8793
N9_2 N 0.1151(3) 0.8437(5) 0.5889(3)
N1_4 N 0.3797(2) 0.0277(5) 0.8793(3)
H1_4 H 0.3930 0.0080 0.9277
N2_4 N 0.3929(2) 0.1185(4) 0.8606(3)
C1_4 C 0.3626(3) 0.1202(6) 0.7790(3)
C2_4 C 0.3294(3) 0.0268(6) 0.7490(3)
C5_4 C 0.3688(4) 0.2106(6) 0.7368(4)
H5_4 H 0.3955 0.2615 0.7752
H6_4 H 0.3972 0.1954 0.7066
H7_4 H 0.3179 0.2335 0.7011
C10_4 C 0.1457(4) 0.0010(6) 0.6308(3)
H14_4 H 0.2853 0.0566 0.6284
C19_4 C 0.1332(6) 0.0986(7) 0.6516(5)
H18_4 H 0.0798 0.1062 0.6404
H19_4 H 0.1653 0.1097 0.7076
H20_4 H 0.1461 0.1458 0.6207
C3_4 C 0.2135(4) 0.9501(7) 0.6352(3)
C4_4 C 0.3267(5) 0.8613(7) 0.8219(4)
H2_4 H 0.2995 0.8326 0.7696
H3_4 H 0.3748 0.8269 0.8508
H4_4 H 0.2957 0.8557 0.8504
N4_4 N 0.0892(3) 0.9304(5) 0.6037(3)
H8_4 H 0.0425 0.9401 0.5967
C8_4 C 0.3427(3) 0.9693(6) 0.8140(4)
C9_4 C 0.1926(3) 0.8540(6) 0.6094(3)
C13_4 C 0.2385(5) 0.7738(8) 0.6008(5)
H10_4 H 0.2910 0.7956 0.6189
H11_4 H 0.2371 0.7181 0.6324
H12_4 H 0.2177 0.7545 0.5456
C14_4 C 0.2912(4) 0.9977(7) 0.6607(4)
H13_4 H 0.3249 0.9521 0.6506
loop_
_geom_bond_atom_site_label_1
_geom_bond_atom_site_label_2
_geom_bond_site_symmetry_1
_geom_bond_site_symmetry_2
Co1 N2 1_555 1_555
N1 H1 1_555 1_555
N2 N1 1_555 1_555
C1 N2 1_555 1_555
C2 C1 1_555 1_555
N3 N4 1_555 1_555
C3 C9 1_555 1_555
C4 H2 1_555 1_555
H3 C4 1_555 1_555
H4 C4 1_555 1_555
C5 C1 1_555 1_555
H5 C5 1_555 1_555
H6 C5 1_555 1_555
H7 C5 1_555 1_555
N4 H8 1_555 1_555
C8 N1 1_555 1_555
C9 N3 1_555 1_555
C10 C3 1_555 1_555
C13 C9 1_555 1_555
H10 C13 1_555 1_555
H11 C13 1_555 1_555
H12 C13 1_555 1_555
C14 C2 1_555 1_555
H13 C14 1_555 1_555
H14 C14 1_555 1_555
C19 C10 1_555 1_555
H18 C19 1_555 1_555
H19 C19 1_555 1_555
H20 C19 1_555 1_555
Co4 N3 1_555 1_555
N10 Co1 1_555 1_555
C2 C8 1_555 1_555
C3 C14 1_555 1_555
C4 C8 1_555 1_555
N4 C10 1_555 1_555
N10 N8 1_555 1_555
C30 C34 1_555 1_555
C31 H26 1_555 1_555
H27 C31 1_555 1_555
H28 C31 1_555 1_555
N8 H32 1_555 1_555
C34 N10 1_555 1_555
C36 C34 1_555 1_555
H33 C36 1_555 1_555
H34 C36 1_555 1_555
H35 C36 1_555 1_555
H36 C37 1_555 1_555
C30 C37 1_555 1_555
C31 C33 1_555 1_555
O1 C11 1_555 1_555
C11 O2 1_555 1_555
C12 C11 1_555 1_555
C15 C12 1_555 1_555
H16 C16 1_555 1_555
C18 C12 1_555 1_555
H17 C18 1_555 1_555
C20 H21 1_555 1_555
C21 C16 1_555 1_555
O5 C23 1_555 1_555
O6 C23 1_555 1_555
C23 C21 1_555 1_555
O7 C24 1_555 1_555
O8 C24 1_555 1_555
C24 C25 1_555 1_555
C25 C26 1_555 1_555
C26 C15 1_555 1_555
C27 C18 1_555 1_555
H24 C27 1_555 1_555
Co4 O8 1_555 1_555
N5 H25 1_555 1_555
N6 Co4 1_555 1_555
C28 N6 1_555 1_555
C29 C28 1_555 1_555
C32 C28 1_555 1_555
H29 C32 1_555 1_555
H30 C32 1_555 1_555
H31 C32 1_555 1_555
C38 C35 1_555 1_555
H38 C38 1_555 1_555
H39 C38 1_555 1_555
H40 C38 1_555 1_555
O9 Co4 1_555 1_555
C20 C21 1_555 1_555
C25 C27 1_555 1_555
N5 N6 1_555 1_555
C6 H9 1_555 1_555
C7 C6 1_555 1_555
O3 C17 1_555 1_555
C16_2 C6 1_555 1_555
H16_2 C16_2 1_555 1_555
C17 C7 1_555 1_555
C20_2 H21_2 1_555 1_555
C21_2 C16_2 1_555 1_555
O5_2 C23_2 1_555 1_555
O6_2 C23_2 1_555 1_555
C22 C7 1_555 1_555
H22 C22 1_555 1_555
C23_2 C21_2 1_555 1_555
O9 C17 1_555 1_555
C20_2 C21_2 1_555 1_555
C20_2 C22 1_555 1_555
O1_2 C11_2 1_555 1_555
C11_2 O2_2 1_555 1_555
C12_2 C11_2 1_555 1_555
C15_2 C12_2 1_555 1_555
H15_2 C15_2 1_555 1_555
C18_2 C12_2 1_555 1_555
H17_2 C18_2 1_555 1_555
O1_3 C11_3 1_555 1_555
C11_3 O2_3 1_555 1_555
C12_3 C11_3 1_555 1_555
C15_3 C12_3 1_555 1_555
H15_3 C15_3 1_555 1_555
C18_3 C12_3 1_555 1_555
H17_3 C18_3 1_555 1_555
C6_2 H9_2 1_555 1_555
C7_2 C6_2 1_555 1_555
O3_2 C17_2 1_555 1_555
C17_2 C7_2 1_555 1_555
C22_2 C7_2 1_555 1_555
H22_2 C22_2 1_555 1_555
O4 C17_2 1_555 1_555
C6_3 H9_3 1_555 1_555
C7_3 C6_3 1_555 1_555
O3_3 C17_3 1_555 1_555
C16_3 C6_3 1_555 1_555
H16_3 C16_3 1_555 1_555
C17_3 C7_3 1_555 1_555
C20_3 H21_3 1_555 1_555
C21_3 C16_3 1_555 1_555
O5_3 C23_3 1_555 1_555
O6_3 C23_3 1_555 1_555
C22_3 C7_3 1_555 1_555
H22_3 C22_3 1_555 1_555
C23_3 C21_3 1_555 1_555
Co5 O6_3 1_555 1_555
O9_2 C17_3 1_555 1_555
C20_3 C21_3 1_555 1_555
C20_3 C22_3 1_555 1_555
Co5_2 N2_2 1_555 1_555
N1_2 H1_2 1_555 1_555
N2_2 N1_2 1_555 1_555
C1_2 N2_2 1_555 1_555
C2_2 C1_2 1_555 1_555
N3_2 N4_2 1_555 1_555
C3_2 C9_2 1_555 1_555
C4_2 H2_2 1_555 1_555
H3_2 C4_2 1_555 1_555
H4_2 C4_2 1_555 1_555
C5_2 C1_2 1_555 1_555
H5_2 C5_2 1_555 1_555
H6_2 C5_2 1_555 1_555
H7_2 C5_2 1_555 1_555
N4_2 H8_2 1_555 1_555
C8_2 N1_2 1_555 1_555
C9_2 N3_2 1_555 1_555
C10_2 C3_2 1_555 1_555
C13_2 C9_2 1_555 1_555
H10_2 C13_2 1_555 1_555
H11_2 C13_2 1_555 1_555
H12_2 C13_2 1_555 1_555
C14_2 C2_2 1_555 1_555
H13_2 C14_2 1_555 1_555
H14_2 C14_2 1_555 1_555
C19_2 C10_2 1_555 1_555
H18_2 C19_2 1_555 1_555
H19_2 C19_2 1_555 1_555
H20_2 C19_2 1_555 1_555
Co5 N3_2 1_555 1_555
N10_2 Co5_2 1_555 1_555
C2_2 C8_2 1_555 1_555
C3_2 C14_2 1_555 1_555
C4_2 C8_2 1_555 1_555
N4_2 C10_2 1_555 1_555
O1_4 C11_4 1_555 1_555
C11_4 O2_4 1_555 1_555
C12_4 C11_4 1_555 1_555
C15_4 C12_4 1_555 1_555
C18_4 C12_4 1_555 1_555
H17_4 C18_4 1_555 1_555
O7_2 C24_2 1_555 1_555
O8_2 C24_2 1_555 1_555
C24_2 C25_2 1_555 1_555
C25_2 C26_2 1_555 1_555
C26_2 C15_4 1_555 1_555
C27_2 C18_4 1_555 1_555
H24_2 C27_2 1_555 1_555
Co5 O8_2 1_555 1_555
N5_2 H25_2 1_555 1_555
N6_2 Co5 1_555 1_555
C28_2 N6_2 1_555 1_555
C29_2 C28_2 1_555 1_555
C32_2 C28_2 1_555 1_555
H29_2 C32_2 1_555 1_555
H30_2 C32_2 1_555 1_555
H31_2 C32_2 1_555 1_555
C38_2 C35_2 1_555 1_555
H38_2 C38_2 1_555 1_555
H39_2 C38_2 1_555 1_555
H40_2 C38_2 1_555 1_555
C25_2 C27_2 1_555 1_555
N5_2 N6_2 1_555 1_555
N10_2 N8_2 1_555 1_555
C30_2 C34_2 1_555 1_555
C31_2 H26_2 1_555 1_555
H27_2 C31_2 1_555 1_555
H28_2 C31_2 1_555 1_555
N8_2 H32_2 1_555 1_555
C34_2 N10_2 1_555 1_555
C36_2 C34_2 1_555 1_555
H33_2 C36_2 1_555 1_555
H34_2 C36_2 1_555 1_555
H35_2 C36_2 1_555 1_555
H36_2 C37_2 1_555 1_555
C30_2 C37_2 1_555 1_555
C31_2 C33_2 1_555 1_555
H16_4 C16_4 1_555 1_555
C20_4 H21_4 1_555 1_555
C21_4 C16_4 1_555 1_555
O5_4 C23_4 1_555 1_555
O6_4 C23_4 1_555 1_555
C23_4 C21_4 1_555 1_555
O7_3 C24_3 1_555 1_555
O8_3 C24_3 1_555 1_555
C24_3 C25_3 1_555 1_555
C25_3 C26_3 1_555 1_555
H23_3 C26_3 1_555 1_555
H24_3 C27_3 1_555 1_555
Co2 O8_3 1_555 1_555
N5_3 H25_3 1_555 1_555
N6_3 Co2 1_555 1_555
C28_3 N6_3 1_555 1_555
C29_3 C28_3 1_555 1_555
N7 N8_3 1_555 1_555
C30_3 C34_3 1_555 1_555
C31_3 H26_3 1_555 1_555
H27_3 C31_3 1_555 1_555
H28_3 C31_3 1_555 1_555
C32_3 C28_3 1_555 1_555
H29_3 C32_3 1_555 1_555
H30_3 C32_3 1_555 1_555
H31_3 C32_3 1_555 1_555
N8_3 H32_3 1_555 1_555
C33_3 N5_3 1_555 1_555
C34_3 N7 1_555 1_555
C35_3 C30_3 1_555 1_555
C36_3 C34_3 1_555 1_555
H33_3 C36_3 1_555 1_555
H34_3 C36_3 1_555 1_555
H35_3 C36_3 1_555 1_555
C37_3 C29_3 1_555 1_555
H36_3 C37_3 1_555 1_555
H37_3 C37_3 1_555 1_555
C38_3 C35_3 1_555 1_555
H38_3 C38_3 1_555 1_555
H39_3 C38_3 1_555 1_555
H40_3 C38_3 1_555 1_555
Co3 N7 1_555 1_555
Co5_3 O6_4 1_555 1_555
N9 Co2 1_555 1_555
C20_4 C21_4 1_555 1_555
C25_3 C27_3 1_555 1_555
N5_3 N6_3 1_555 1_555
C29_3 C33_3 1_555 1_555
C30_3 C37_3 1_555 1_555
C31_3 C33_3 1_555 1_555
N8_3 C35_3 1_555 1_555
N9 N4_3 1_555 1_555
C3_3 C9_3 1_555 1_555
C4_3 H2_3 1_555 1_555
H3_3 C4_3 1_555 1_555
H4_3 C4_3 1_555 1_555
N4_3 H8_3 1_555 1_555
C9_3 N9 1_555 1_555
C13_3 C9_3 1_555 1_555
H10_3 C13_3 1_555 1_555
H11_3 C13_3 1_555 1_555
H12_3 C13_3 1_555 1_555
H13_3 C14_3 1_555 1_555
C3_3 C14_3 1_555 1_555
C4_3 C8_3 1_555 1_555
Co3 N2_3 1_555 1_555
N1_3 H1_3 1_555 1_555
N2_3 N1_3 1_555 1_555
C1_3 N2_3 1_555 1_555
C2_3 C1_3 1_555 1_555
C5_3 C1_3 1_555 1_555
H5_3 C5_3 1_555 1_555
H6_3 C5_3 1_555 1_555
H7_3 C5_3 1_555 1_555
C6_4 H9_4 1_555 1_555
C7_4 C6_4 1_555 1_555
O3_4 C17_4 1_555 1_555
O4_2 Co3 1_555 1_555
C17_4 C7_4 1_555 1_555
C19_3 C10_3 1_555 1_555
H18_3 C19_3 1_555 1_555
H19_3 C19_3 1_555 1_555
H20_3 C19_3 1_555 1_555
C22_4 C7_4 1_555 1_555
H22_4 C22_4 1_555 1_555
O4_2 C17_4 1_555 1_555
O7_4 C24_4 1_555 1_555
O8_4 C24_4 1_555 1_555
C24_4 C25_4 1_555 1_555
C25_4 C26_4 1_555 1_555
H23_4 C26_4 1_555 1_555
H24_4 C27_4 1_555 1_555
Co5_4 O8_4 1_555 1_555
N5_4 H25_4 1_555 1_555
N6_4 Co5_4 1_555 1_555
C28_4 N6_4 1_555 1_555
C29_4 C28_4 1_555 1_555
N7_2 N8_4 1_555 1_555
C30_4 C34_4 1_555 1_555
C31_4 H26_4 1_555 1_555
H27_4 C31_4 1_555 1_555
H28_4 C31_4 1_555 1_555
C32_4 C28_4 1_555 1_555
H29_4 C32_4 1_555 1_555
H30_4 C32_4 1_555 1_555
H31_4 C32_4 1_555 1_555
N8_4 H32_4 1_555 1_555
C33_4 N5_4 1_555 1_555
C34_4 N7_2 1_555 1_555
C35_4 C30_4 1_555 1_555
C36_4 C34_4 1_555 1_555
H33_4 C36_4 1_555 1_555
H34_4 C36_4 1_555 1_555
H35_4 C36_4 1_555 1_555
C37_4 C29_4 1_555 1_555
H36_4 C37_4 1_555 1_555
H37_4 C37_4 1_555 1_555
C38_4 C35_4 1_555 1_555
H38_4 C38_4 1_555 1_555
H39_4 C38_4 1_555 1_555
H40_4 C38_4 1_555 1_555
Co5_3 N7_2 1_555 1_555
N9_2 Co5_4 1_555 1_555
C25_4 C27_4 1_555 1_555
N5_4 N6_4 1_555 1_555
C29_4 C33_4 1_555 1_555
C30_4 C37_4 1_555 1_555
C31_4 C33_4 1_555 1_555
N8_4 C35_4 1_555 1_555
Co5_3 N2_4 1_555 1_555
N1_4 H1_4 1_555 1_555
N2_4 N1_4 1_555 1_555
C1_4 N2_4 1_555 1_555
C2_4 C1_4 1_555 1_555
C5_4 C1_4 1_555 1_555
H5_4 C5_4 1_555 1_555
H6_4 C5_4 1_555 1_555
H7_4 C5_4 1_555 1_555
C19_4 C10_4 1_555 1_555
H18_4 C19_4 1_555 1_555
H19_4 C19_4 1_555 1_555
H20_4 C19_4 1_555 1_555
N9_2 N4_4 1_555 1_555
C3_4 C9_4 1_555 1_555
C4_4 H2_4 1_555 1_555
H3_4 C4_4 1_555 1_555
H4_4 C4_4 1_555 1_555
N4_4 H8_4 1_555 1_555
C9_4 N9_2 1_555 1_555
C13_4 C9_4 1_555 1_555
H10_4 C13_4 1_555 1_555
H11_4 C13_4 1_555 1_555
H12_4 C13_4 1_555 1_555
H13_4 C14_4 1_555 1_555
C3_4 C14_4 1_555 1_555
C4_4 C8_4 1_555 1_555

#END
