
###############################################################################
#
# This file contains modified crystal structure data generated from the
# MOF subset of the Cambridge Structural Database (CSD) v543 
# hosted by the Cambridge Crystallographic Data Centre (CCDC).
#
# This work is licensed under the Creative Commons
# Attribution-NonCommercial-ShareAlike 4.0 International License.
# To view a copy of this license, visit
# http://creativecommons.org/licenses/by-nc-sa/4.0/
# or send a letter to
# Creative Commons, PO Box 1866, Mountain View, CA 94042, USA.
#
# CIF created using the CSD Python API on 29 September 2022
# The structure has been converted into the P1 space group
# The structure has a 3D framework
# The original CSD entry FUSVUN is in the trigonal crystal system
# The framework has been calculated to contain at least 10.0% void space
# The void calculation uses a probe of radius 1.32A, grid spacing 0.4
#
###############################################################################

data_FUSVUN
_chemical_formula_moiety         '(C84 H60 Mn15 N12 O66 Y4)n'
_symmetry_cell_setting           triclinic
_symmetry_space_group_name_H-M   'P 1'
_symmetry_Int_Tables_number      1
_space_group_name_Hall           'P 1'
loop_
_symmetry_equiv_pos_site_id
_symmetry_equiv_pos_as_xyz
1 x,y,z
_cell_length_a                   15.214(5)
_cell_length_b                   15.214
_cell_length_c                   15.809(6)
_cell_angle_alpha                90
_cell_angle_beta                 90
_cell_angle_gamma                120
_cell_volume                     3169
loop_
_atom_site_label
_atom_site_type_symbol
_atom_site_fract_x
_atom_site_fract_y
_atom_site_fract_z
Mn12 Mn 0.000000 0.500000 0.500000
Mn2 Mn 0.500000 0.000000 0.500000
O10 O 0.6542(2) 0.1436(2) 0.5003(2)
H9 H 0.652(4) 0.175(5) 0.548(4)
H10 H 0.655(4) 0.169(4) 0.467(4)
O63 O 0.4503(2) 0.0661(2) 0.40692(19)
O75 O 0.4504(2) 0.0662(2) 0.59315(18)
Y1 Y 0.666667 0.333333 0.24999(3)
Y2 Y 0.333333 0.666667 0.24999(3)
Mn1 Mn 0.500000 0.500000 0.000000
Mn2_2 Mn 0.500000 1.000000 0.500000
O1 O 0.58851(18) 0.20102(18) 0.35478(16)
O3 O 0.58863(17) 0.38746(18) 0.14509(15)
O4 O 0.4504(2) 0.3840(2) 0.09300(19)
O5 O 0.5496(2) 0.6159(2) 0.09291(18)
O6 O 0.41134(17) 0.61246(18) 0.14529(16)
O7 O 0.41148(18) 0.79897(18) 0.35475(16)
O8 O 0.5496(2) 0.9338(2) 0.40685(18)
O9 O 0.34572(19) 0.4896(2) 0.00004(19)
N1 N 0.4797(2) 0.23987(19) 0.24986(17)
N2 N 0.5201(2) 0.76007(19) 0.24998(17)
C1 C 0.4940(3) 0.1410(2) 0.3599(2)
C2 C 0.4286(2) 0.1629(2) 0.3030(2)
C3 C 0.3242(3) 0.1093(3) 0.3053(3)
H1 H 0.290002 0.056247 0.343357
C4 C 0.2714(3) 0.1357(3) 0.2500(3)
H2 H 0.200838 0.100467 0.250064
C5 C 0.3241(3) 0.2148(3) 0.1948(3)
H3 H 0.289877 0.233710 0.156832
C6 C 0.4287(2) 0.2657(3) 0.1968(2)
C7 C 0.4939(3) 0.3532(3) 0.1402(2)
C8 C 0.5061(3) 0.6470(3) 0.1402(2)
C9 C 0.5713(2) 0.7342(3) 0.1970(2)
C10 C 0.6759(3) 0.7852(3) 0.1946(3)
H4 H 0.710136 0.766698 0.156337
C11 C 0.7285(3) 0.8642(3) 0.2502(3)
H5 H 0.799128 0.899487 0.250422
C12 C 0.6756(3) 0.8904(3) 0.3054(3)
H6 H 0.709815 0.943417 0.343516
C13 C 0.5713(2) 0.8371(2) 0.3033(2)
C14 C 0.5060(3) 0.8590(3) 0.3596(2)
H7 H 0.347(4) 0.524(4) 0.050(4)
Mn3 Mn 0.500000 0.000000 0.000000
O11 O 0.79898(18) 0.38749(25) 0.35478(16)
O12 O 0.9339(2) 0.3842(3) 0.40692(19)
O13 O 0.61254(18) 0.20117(25) 0.14509(15)
O14 O 0.6160(2) 0.0664(3) 0.09300(19)
N3 N 0.76013(19) 0.23983(28) 0.24986(17)
C15 C 0.8590(2) 0.3530(4) 0.3599(2)
C16 C 0.8371(2) 0.2657(3) 0.3030(2)
C17 C 0.8907(3) 0.2149(4) 0.3053(3)
H11 H 0.943753 0.233755 0.343357
C18 C 0.8643(3) 0.1357(4) 0.2500(3)
H12 H 0.899533 0.100371 0.250064
C19 C 0.7852(3) 0.1093(4) 0.1948(3)
H13 H 0.766290 0.056167 0.156832
C20 C 0.7343(3) 0.1630(4) 0.1968(2)
C21 C 0.6468(3) 0.1407(4) 0.1402(2)
Mn5 Mn -0.000000 0.500000 0.000000
Mn6 Mn 0.500000 0.500000 0.500000
O25 O 0.0663(3) 0.4504(2) 0.09291(18)
O26 O 0.20112(25) 0.58866(17) 0.14529(16)
O27 O 0.38749(25) 0.58852(18) 0.35475(16)
O28 O 0.3842(3) 0.4504(2) 0.40685(18)
O29 O 0.14388(28) 0.65428(19) 0.00004(19)
O30 O 0.4894(3) 0.3458(2) 0.5003(2)
N6 N 0.23997(28) 0.4799(2) 0.24998(17)
C36 C 0.1409(4) 0.4939(3) 0.1402(2)
C37 C 0.1629(4) 0.4287(2) 0.1970(2)
C38 C 0.1093(4) 0.3241(3) 0.1946(3)
H24 H 0.056562 0.289864 0.156337
C39 C 0.1357(4) 0.2715(3) 0.2502(3)
H25 H 0.100359 0.200872 0.250422
C40 C 0.2148(4) 0.3244(3) 0.3054(3)
H26 H 0.233602 0.290185 0.343516
C41 C 0.2658(3) 0.4287(2) 0.3033(2)
C42 C 0.3530(4) 0.4940(3) 0.3596(2)
H27 H 0.177(6) 0.653(4) 0.050(4)
H29 H 0.523(6) 0.348(4) 0.548(4)
H30 H 0.514(6) 0.345(4) 0.467(4)
O39 O 0.65428(19) 0.5104(2) -0.00004(19)
H38 H 0.654(4) 0.481(4) 0.044(4)
O48 O 0.4896(2) 0.14388(28) -0.00004(19)
H46 H 0.519(4) 0.173(6) 0.044(4)
O58 O 0.3458(2) 0.8564(2) 0.4997(2)
H55 H 0.348(4) 0.825(5) 0.452(4)
H56 H 0.345(4) 0.831(4) 0.533(4)
O60 O 0.5106(3) 0.6542(2) 0.4997(2)
H59 H 0.477(6) 0.652(4) 0.452(4)
H60 H 0.486(6) 0.655(4) 0.533(4)
Mn12_2 Mn 1.000000 0.500000 0.500000
O61 O 0.61251(25) 0.41149(18) 0.35478(16)
O65 O 0.6158(3) 0.5497(2) 0.40692(19)
O66 O 0.5497(2) 0.9339(2) 0.59308(19)
O68 O 0.3842(3) 0.4503(2) 0.59308(19)
O69 O 0.79883(25) 0.41137(17) 0.14509(15)
O71 O 0.38754(18) 0.79888(25) 0.14529(16)
O73 O 0.20103(18) 0.61251(25) 0.35475(16)
O77 O 0.6158(3) 0.5496(2) 0.59315(18)
N13 N 0.76017(28) 0.5203(2) 0.24986(17)
N15 N 0.23993(19) 0.76003(28) 0.24998(17)
Mn1_2 Mn 0.500000 0.500000 1.000000
O9_2 O 0.34572(19) 0.4896(2) 1.00004(19)
H8 H 0.346(4) 0.519(4) 0.956(4)
Mn3_2 Mn 0.500000 0.000000 1.000000
Mn5_2 Mn -0.000000 0.500000 1.000000
O29_2 O 0.14388(28) 0.65428(19) 1.00004(19)
H28 H 0.173(6) 0.654(4) 0.956(4)
Y3 Y 0.333333 0.666667 0.75001(3)
Y4 Y 0.666667 0.333333 0.75001(3)
O31 O 0.41149(18) 0.79898(18) 0.64522(16)
O33 O 0.41137(17) 0.61254(18) 0.85491(15)
O34 O 0.5496(2) 0.6160(2) 0.90700(19)
O35 O 0.4504(2) 0.3841(2) 0.90709(18)
O36 O 0.58866(17) 0.38754(18) 0.85471(16)
O37 O 0.58852(18) 0.20103(18) 0.64525(16)
O39_2 O 0.65428(19) 0.5104(2) 0.99996(19)
N7 N 0.5203(2) 0.76013(19) 0.75014(17)
N8 N 0.4799(2) 0.23993(19) 0.75002(17)
C43 C 0.5060(3) 0.8590(2) 0.6401(2)
C44 C 0.5714(2) 0.8371(2) 0.6970(2)
C45 C 0.6758(3) 0.8907(3) 0.6947(3)
H31 H 0.709998 0.943753 0.656643
C46 C 0.7286(3) 0.8643(3) 0.7500(3)
H32 H 0.799162 0.899533 0.749936
C47 C 0.6759(3) 0.7852(3) 0.8052(3)
H33 H 0.710123 0.766290 0.843168
C48 C 0.5713(2) 0.7343(3) 0.8032(2)
C49 C 0.5061(3) 0.6468(3) 0.8598(2)
C50 C 0.4939(3) 0.3530(3) 0.8598(2)
C51 C 0.4287(2) 0.2658(3) 0.8030(2)
C52 C 0.3241(3) 0.2148(3) 0.8054(3)
H34 H 0.289864 0.233302 0.843663
C53 C 0.2715(3) 0.1358(3) 0.7498(3)
H35 H 0.200872 0.100513 0.749578
C54 C 0.3244(3) 0.1096(3) 0.6946(3)
H36 H 0.290185 0.056583 0.656484
C55 C 0.4287(2) 0.1629(2) 0.6967(2)
C56 C 0.4940(3) 0.1410(3) 0.6404(2)
H37 H 0.653(4) 0.476(4) 0.950(4)
O44 O 0.6159(2) 0.0663(3) 0.90709(18)
O45 O 0.61246(18) 0.20112(25) 0.85471(16)
O46 O 0.79897(18) 0.38749(25) 0.64525(16)
O47 O 0.9338(2) 0.3842(3) 0.59315(18)
O48_2 O 0.4896(2) 0.14388(28) 0.99996(19)
N10 N 0.76007(19) 0.23997(28) 0.75002(17)
C64 C 0.6470(3) 0.1409(4) 0.8598(2)
C65 C 0.7342(3) 0.1629(4) 0.8030(2)
C66 C 0.7852(3) 0.1093(4) 0.8054(3)
H42 H 0.766698 0.056562 0.843663
C67 C 0.8642(3) 0.1357(4) 0.7498(3)
H43 H 0.899487 0.100359 0.749578
C68 C 0.8904(3) 0.2148(4) 0.6946(3)
H44 H 0.943417 0.233602 0.656484
C69 C 0.8371(2) 0.2658(3) 0.6967(2)
C70 C 0.8590(3) 0.3530(4) 0.6404(2)
H45 H 0.524(4) 0.177(6) 0.950(4)
O49 O 0.38749(25) 0.58851(18) 0.64522(16)
O51 O 0.20117(25) 0.58863(17) 0.85491(15)
O52 O 0.0664(3) 0.4504(2) 0.90700(19)
N11 N 0.23983(28) 0.4797(2) 0.75014(17)
C71 C 0.3530(4) 0.4940(3) 0.6401(2)
C72 C 0.2657(3) 0.4286(2) 0.6970(2)
C73 C 0.2149(4) 0.3242(3) 0.6947(3)
H47 H 0.233755 0.290002 0.656643
C74 C 0.1357(4) 0.2714(3) 0.7500(3)
H48 H 0.100371 0.200838 0.749936
C75 C 0.1093(4) 0.3241(3) 0.8052(3)
H49 H 0.056167 0.289877 0.843168
C76 C 0.1630(4) 0.4287(2) 0.8032(2)
C77 C 0.1407(4) 0.4939(3) 0.8598(2)
O62 O 0.20102(18) 0.61251(25) 0.64522(16)
O70 O 0.38746(18) 0.79883(25) 0.85491(15)
O72 O 0.79888(25) 0.41134(17) 0.85471(16)
O74 O 0.61251(25) 0.41148(18) 0.64525(16)
N14 N 0.23987(19) 0.76017(28) 0.75014(17)
N16 N 0.76003(28) 0.5201(2) 0.75002(17)
Mn3_3 Mn 0.500000 1.000000 0.000000
O15 O 0.3841(2) 0.9337(3) 0.09291(18)
O18 O 0.0662(2) 0.6158(3) 0.40685(18)
O19 O 0.5104(2) 0.85612(28) 0.00004(19)
C22 C 0.3530(3) 0.8591(4) 0.1402(2)
C23 C 0.2658(3) 0.8371(4) 0.1970(2)
C24 C 0.2148(3) 0.8907(4) 0.1946(3)
H14 H 0.233302 0.943438 0.156337
C25 C 0.1358(3) 0.8643(4) 0.2502(3)
H15 H 0.100513 0.899641 0.250422
C26 C 0.1096(3) 0.7852(4) 0.3054(3)
H16 H 0.056583 0.766398 0.343516
C27 C 0.1629(2) 0.7342(3) 0.3033(2)
C28 C 0.1410(3) 0.6470(4) 0.3596(2)
H17 H 0.476(4) 0.823(6) 0.050(4)
O59 O 0.1436(2) 0.4894(3) 0.4997(2)
H57 H 0.175(5) 0.523(6) 0.452(4)
H58 H 0.169(4) 0.514(6) 0.533(4)
O67 O 0.0661(2) 0.6158(3) 0.59308(19)
Mn3_4 Mn 0.500000 1.000000 1.000000
O19_2 O 0.5104(2) 0.85612(28) 1.00004(19)
H18 H 0.481(4) 0.827(6) 0.956(4)
O43 O 0.3840(2) 0.9336(3) 0.90700(19)
C57 C 0.1410(2) 0.6470(4) 0.6401(2)
C58 C 0.1629(2) 0.7343(3) 0.6970(2)
C59 C 0.1093(3) 0.7851(4) 0.6947(3)
H39 H 0.056247 0.766245 0.656643
C60 C 0.1357(3) 0.8643(4) 0.7500(3)
H40 H 0.100467 0.899629 0.749936
C61 C 0.2148(3) 0.8907(4) 0.8052(3)
H41 H 0.233710 0.943833 0.843168
C62 C 0.2657(3) 0.8370(4) 0.8032(2)
C63 C 0.3532(3) 0.8593(4) 0.8598(2)
Mn5_3 Mn 1.000000 0.500000 0.000000
O24 O 0.9336(3) 0.5496(2) 0.09300(19)
C29 C 0.6470(4) 0.5060(3) 0.3599(2)
C30 C 0.7343(3) 0.5714(2) 0.3030(2)
C31 C 0.7851(4) 0.6758(3) 0.3053(3)
H21 H 0.766245 0.709998 0.343357
C32 C 0.8643(4) 0.7286(3) 0.2500(3)
H22 H 0.899629 0.799162 0.250064
C33 C 0.8907(4) 0.6759(3) 0.1948(3)
H23 H 0.943833 0.710123 0.156832
C34 C 0.8370(4) 0.5713(2) 0.1968(2)
C35 C 0.8593(4) 0.5061(3) 0.1402(2)
O57 O 0.85612(28) 0.34572(19) -0.00004(19)
H54 H 0.827(6) 0.346(4) 0.044(4)
Mn5_4 Mn 1.000000 0.500000 1.000000
O53 O 0.9337(3) 0.5496(2) 0.90709(18)
O57_2 O 0.85612(28) 0.34572(19) 0.99996(19)
C78 C 0.8591(4) 0.5061(3) 0.8598(2)
C79 C 0.8371(4) 0.5713(2) 0.8030(2)
C80 C 0.8907(4) 0.6759(3) 0.8054(3)
H50 H 0.943438 0.710136 0.843663
C81 C 0.8643(4) 0.7285(3) 0.7498(3)
H51 H 0.899641 0.799128 0.749578
C82 C 0.7852(4) 0.6756(3) 0.6946(3)
H52 H 0.766398 0.709815 0.656484
C83 C 0.7342(3) 0.5713(2) 0.6967(2)
C84 C 0.6470(4) 0.5060(3) 0.6404(2)
H53 H 0.823(6) 0.347(4) 0.950(4)
O20 O 0.8564(2) 0.5106(3) 0.5003(2)
H19 H 0.825(5) 0.477(6) 0.548(4)
H20 H 0.831(4) 0.486(6) 0.467(4)
loop_
_geom_bond_atom_site_label_1
_geom_bond_atom_site_label_2
_geom_bond_site_symmetry_1
_geom_bond_site_symmetry_2
O10 Mn2 1_555 1_555
H9 O10 1_555 1_555
H10 O10 1_555 1_555
O63 Mn2 1_555 1_555
O75 Mn2 1_555 1_555
Y1 O1 1_555 1_555
Y2 O6 1_555 1_555
Mn1 O4 1_555 1_555
Mn2_2 O8 1_555 1_555
O1 C1 1_555 1_555
O63 C1 1_555 1_555
O3 Y1 1_555 1_555
O4 C7 1_555 1_555
O5 Mn1 1_555 1_555
O6 C8 1_555 1_555
O7 Y2 1_555 1_555
O8 C14 1_555 1_555
O9 Mn1 1_555 1_555
N1 Y1 1_555 1_555
N2 Y2 1_555 1_555
C1 C2 1_555 1_555
C2 N1 1_555 1_555
C3 C2 1_555 1_555
H1 C3 1_555 1_555
C4 C3 1_555 1_555
H2 C4 1_555 1_555
C5 C4 1_555 1_555
H3 C5 1_555 1_555
C6 N1 1_555 1_555
C7 O3 1_555 1_555
C8 O5 1_555 1_555
C9 N2 1_555 1_555
C10 C9 1_555 1_555
H4 C10 1_555 1_555
C11 C10 1_555 1_555
H5 C11 1_555 1_555
C12 C11 1_555 1_555
H6 C12 1_555 1_555
C13 N2 1_555 1_555
C14 O7 1_555 1_555
H7 O9 1_555 1_555
Mn3 O14 1_555 1_555
O11 Y1 1_555 1_555
O12 C15 1_555 1_555
O13 Y1 1_555 1_555
O14 C21 1_555 1_555
N3 Y1 1_555 1_555
C15 O11 1_555 1_555
C16 N3 1_555 1_555
C17 C16 1_555 1_555
H11 C17 1_555 1_555
C18 C17 1_555 1_555
H12 C18 1_555 1_555
C19 C18 1_555 1_555
H13 C19 1_555 1_555
C20 N3 1_555 1_555
C21 O13 1_555 1_555
Mn6 O28 1_555 1_555
O25 Mn5 1_555 1_555
O26 Y2 1_555 1_555
O27 Y2 1_555 1_555
O28 C42 1_555 1_555
O29 Mn5 1_555 1_555
O30 Mn6 1_555 1_555
N6 Y2 1_555 1_555
C36 O25 1_555 1_555
C37 N6 1_555 1_555
C38 C37 1_555 1_555
H24 C38 1_555 1_555
C39 C38 1_555 1_555
H25 C39 1_555 1_555
C40 C39 1_555 1_555
H26 C40 1_555 1_555
C41 N6 1_555 1_555
C42 O27 1_555 1_555
H27 O29 1_555 1_555
H29 O30 1_555 1_555
H30 O30 1_555 1_555
O39 Mn1 1_555 1_555
H38 O39 1_555 1_555
O48 Mn3 1_555 1_555
H46 O48 1_555 1_555
O58 Mn2_2 1_555 1_555
H55 O58 1_555 1_555
H56 O58 1_555 1_555
O60 Mn6 1_555 1_555
H59 O60 1_555 1_555
H60 O60 1_555 1_555
Mn12_2 O12 1_555 1_555
O61 Y1 1_555 1_555
O65 Mn6 1_555 1_555
O66 Mn2_2 1_555 1_555
O68 Mn6 1_555 1_555
O69 Y1 1_555 1_555
O71 Y2 1_555 1_555
O73 Y2 1_555 1_555
O77 Mn6 1_555 1_555
N13 Y1 1_555 1_555
N15 Y2 1_555 1_555
C5 C6 1_555 1_555
C6 C7 1_555 1_555
C8 C9 1_555 1_555
C12 C13 1_555 1_555
C13 C14 1_555 1_555
C15 C16 1_555 1_555
C19 C20 1_555 1_555
C20 C21 1_555 1_555
O26 C36 1_555 1_555
C36 C37 1_555 1_555
C40 C41 1_555 1_555
C41 C42 1_555 1_555
O9_2 Mn1_2 1_555 1_555
H8 O9_2 1_555 1_555
O29_2 Mn5_2 1_555 1_555
H28 O29_2 1_555 1_555
Y3 O31 1_555 1_555
Y4 O36 1_555 1_555
O31 C43 1_555 1_555
O66 C43 1_555 1_555
O33 Y3 1_555 1_555
O34 Mn1_2 1_555 1_555
O35 Mn1_2 1_555 1_555
O36 C50 1_555 1_555
O37 Y4 1_555 1_555
O75 C56 1_555 1_555
O39_2 Mn1_2 1_555 1_555
N7 Y3 1_555 1_555
N8 Y4 1_555 1_555
C43 C44 1_555 1_555
C44 N7 1_555 1_555
C45 C44 1_555 1_555
H31 C45 1_555 1_555
C46 C45 1_555 1_555
H32 C46 1_555 1_555
C47 C46 1_555 1_555
H33 C47 1_555 1_555
C48 N7 1_555 1_555
C49 O33 1_555 1_555
C50 O35 1_555 1_555
C51 N8 1_555 1_555
C52 C51 1_555 1_555
H34 C52 1_555 1_555
C53 C52 1_555 1_555
H35 C53 1_555 1_555
C54 C53 1_555 1_555
H36 C54 1_555 1_555
C55 N8 1_555 1_555
C56 O37 1_555 1_555
H37 O39_2 1_555 1_555
O44 Mn3_2 1_555 1_555
O45 Y4 1_555 1_555
O46 Y4 1_555 1_555
O47 C70 1_555 1_555
O48_2 Mn3_2 1_555 1_555
N10 Y4 1_555 1_555
C64 O44 1_555 1_555
C65 N10 1_555 1_555
C66 C65 1_555 1_555
H42 C66 1_555 1_555
C67 C66 1_555 1_555
H43 C67 1_555 1_555
C68 C67 1_555 1_555
H44 C68 1_555 1_555
C69 N10 1_555 1_555
C70 O46 1_555 1_555
H45 O48_2 1_555 1_555
O49 Y3 1_555 1_555
O68 C71 1_555 1_555
O51 Y3 1_555 1_555
O52 Mn5_2 1_555 1_555
N11 Y3 1_555 1_555
C71 O49 1_555 1_555
C72 N11 1_555 1_555
C73 C72 1_555 1_555
H47 C73 1_555 1_555
C74 C73 1_555 1_555
H48 C74 1_555 1_555
C75 C74 1_555 1_555
H49 C75 1_555 1_555
C76 N11 1_555 1_555
C77 O51 1_555 1_555
Mn12_2 O47 1_555 1_555
O62 Y3 1_555 1_555
O70 Y3 1_555 1_555
O72 Y4 1_555 1_555
O74 Y4 1_555 1_555
N14 Y3 1_555 1_555
N16 Y4 1_555 1_555
O34 C49 1_555 1_555
C47 C48 1_555 1_555
C48 C49 1_555 1_555
C50 C51 1_555 1_555
C54 C55 1_555 1_555
C55 C56 1_555 1_555
O45 C64 1_555 1_555
C64 C65 1_555 1_555
C68 C69 1_555 1_555
C69 C70 1_555 1_555
O52 C77 1_555 1_555
C71 C72 1_555 1_555
C75 C76 1_555 1_555
C76 C77 1_555 1_555
Mn12 O18 1_555 1_555
O15 Mn3_3 1_555 1_555
O71 C22 1_555 1_555
O73 C28 1_555 1_555
O18 C28 1_555 1_555
O19 Mn3_3 1_555 1_555
N15 C23 1_555 1_555
C22 O15 1_555 1_555
C23 C22 1_555 1_555
C24 C23 1_555 1_555
H14 C24 1_555 1_555
C25 C24 1_555 1_555
H15 C25 1_555 1_555
C26 C25 1_555 1_555
H16 C26 1_555 1_555
C27 N15 1_555 1_555
C28 C27 1_555 1_555
H17 O19 1_555 1_555
O59 Mn12 1_555 1_555
H57 O59 1_555 1_555
H58 O59 1_555 1_555
O67 Mn12 1_555 1_555
C26 C27 1_555 1_555
O19_2 Mn3_4 1_555 1_555
H18 O19_2 1_555 1_555
O62 C57 1_555 1_555
O67 C57 1_555 1_555
O70 C63 1_555 1_555
O43 Mn3_4 1_555 1_555
N14 C58 1_555 1_555
C57 C58 1_555 1_555
C58 C59 1_555 1_555
C59 H39 1_555 1_555
C60 C59 1_555 1_555
H40 C60 1_555 1_555
C61 C60 1_555 1_555
H41 C61 1_555 1_555
C62 N14 1_555 1_555
C63 O43 1_555 1_555
C61 C62 1_555 1_555
C62 C63 1_555 1_555
Mn5_3 O24 1_555 1_555
O61 C29 1_555 1_555
O65 C29 1_555 1_555
O69 C35 1_555 1_555
O24 C35 1_555 1_555
N13 C30 1_555 1_555
C29 C30 1_555 1_555
C30 C31 1_555 1_555
C31 H21 1_555 1_555
C32 C31 1_555 1_555
H22 C32 1_555 1_555
C33 C32 1_555 1_555
H23 C33 1_555 1_555
C34 N13 1_555 1_555
C35 C34 1_555 1_555
O57 Mn5_3 1_555 1_555
H54 O57 1_555 1_555
C33 C34 1_555 1_555
O53 Mn5_4 1_555 1_555
O72 C78 1_555 1_555
O74 C84 1_555 1_555
O77 C84 1_555 1_555
O57_2 Mn5_4 1_555 1_555
N16 C79 1_555 1_555
C78 O53 1_555 1_555
C79 C78 1_555 1_555
C80 C79 1_555 1_555
H50 C80 1_555 1_555
C81 C80 1_555 1_555
H51 C81 1_555 1_555
C82 C81 1_555 1_555
H52 C82 1_555 1_555
C83 N16 1_555 1_555
C84 C83 1_555 1_555
H53 O57_2 1_555 1_555
C82 C83 1_555 1_555
O20 Mn12_2 1_555 1_555
H19 O20 1_555 1_555
H20 O20 1_555 1_555

#END
