
###############################################################################
#
# This file contains modified crystal structure data generated from the
# MOF subset of the Cambridge Structural Database (CSD) v543 
# hosted by the Cambridge Crystallographic Data Centre (CCDC).
#
# This work is licensed under the Creative Commons
# Attribution-NonCommercial-ShareAlike 4.0 International License.
# To view a copy of this license, visit
# http://creativecommons.org/licenses/by-nc-sa/4.0/
# or send a letter to
# Creative Commons, PO Box 1866, Mountain View, CA 94042, USA.
#
# CIF created using the CSD Python API on 29 September 2022
# The structure has been converted into the P1 space group
# The structure has a 3D framework
# The original CSD entry FUTDII is in the rhombohedral crystal system
# The framework has been calculated to contain at least 10.0% void space
# The void calculation uses a probe of radius 1.32A, grid spacing 0.4
# The framework is charged, counterions have been retained in the structure
#
###############################################################################

data_FUTDII
_chemical_formula_moiety         '(C282 H166 Cl10 Fe18 O82 2+)n'
_symmetry_cell_setting           triclinic
_symmetry_space_group_name_H-M   'P 1'
_symmetry_Int_Tables_number      1
_space_group_name_Hall           'P 1'
loop_
_symmetry_equiv_pos_site_id
_symmetry_equiv_pos_as_xyz
1 x,y,z
_cell_length_a                   27.1117(9)
_cell_length_b                   27.1117(9)
_cell_length_c                   16.5413(13)
_cell_angle_alpha                90
_cell_angle_beta                 90
_cell_angle_gamma                120
_cell_volume                     10529.6
loop_
_atom_site_label
_atom_site_type_symbol
_atom_site_fract_x
_atom_site_fract_y
_atom_site_fract_z
Cl1 Cl 0.0000 0.0000 0.0000
Cl1_2 Cl 0.0000 0.0000 1.0000
Cl1_3 Cl 0.0000 1.0000 0.0000
Cl1_4 Cl 0.0000 1.0000 1.0000
Cl1_5 Cl 1.0000 0.0000 0.0000
Cl1_6 Cl 1.0000 0.0000 1.0000
Cl1_7 Cl 1.0000 1.0000 0.0000
Cl1_8 Cl 1.0000 1.0000 1.0000
Cl1_9 Cl 0.6667 0.3333 0.3333
Cl1_10 Cl 0.3333 0.6667 0.6667
C3 C 0.2896 0.0000(3) 0.5000
H2 H 0.2546 0.0000 0.5000
C5 C 0.3931 0.0000(3) 0.5000
C6 C 0.4485 0.0000(3) 0.5000
C7 C 0.4821(3) 0.0178(3) 0.4298(4)
C8 C 0.4660(3) 0.0362(3) 0.3615(5)
H4 H 0.4299 0.0338 0.3561
C9 C 0.5085(3) 0.0587(3) 0.3007(7)
H5 H 0.5013 0.0756 0.2553
Fe2 Fe 0.39905(4) 0.19953(4) 0.67336(7)
Fe4 Fe 0.80048(2) 0.19953(4) 0.67336(7)
Fe7 Fe 0.26762(4) 0.13381(2) 0.65997(7)
Fe9 Fe 0.86620(4) 0.13381(2) 0.65997(7)
Fe11 Fe 0.13380(4) 0.26762(4) 0.34003(7)
Fe12 Fe 0.19952(2) 0.39905(4) 0.32664(7)
Fe14 Fe 0.46715(2) 0.53286(4) 0.00669(7)
O4 O 0.38157(44) 0.13752(34) 0.5892(3)
O6 O 0.75595(28) 0.13752(34) 0.5892(3)
O8 O 0.47085(34) 0.04824(44) 0.0775(3)
O9 O 0.19581(34) 0.28510(44) 0.2559(3)
O10 O 0.47085(34) 0.42262(28) 0.0775(3)
O15 O 0.38157(44) 0.24405(28) 0.5892(3)
O17 O 0.86248(34) 0.24405(28) 0.5892(3)
O19 O 0.57738(28) 0.04824(44) 0.0775(3)
O20 O 0.2868(5) 0.0900(4) 0.5758(3)
O22 O 0.8032(3) 0.0900(4) 0.5758(3)
O25 O 0.2433(4) 0.3799(5) 0.2425(3)
O26 O 0.4233(4) 0.4699(3) 0.0909(3)
O32 O 0.3799(5) 0.1365(3) 0.7575(3)
O33 O 0.3799(5) 0.2433(4) 0.7575(3)
O36 O 0.7567(4) 0.1365(3) 0.7575(3)
O37 O 0.8635(3) 0.2433(4) 0.7575(3)
O40 O 0.49651(30) 0.24821(22) 0.6719(4)
O42 O 0.7517(2) 0.24821(22) 0.6719(4)
H7 H 0.5158 0.2788 0.6388
H8 H 0.5158 0.2370 0.6388
H11 H 0.7630 0.2788 0.6388
H12 H 0.7212 0.2370 0.6388
H15 H 0.6121 0.1825 0.0279
H16 H 0.5703 0.1825 0.0279
C10 C 0.3358(4) 0.0950(3) 0.5691(4)
C12 C 0.7592(3) 0.0950(3) 0.5691(4)
C14 C 0.4283(3) 0.0025(4) 0.0976(4)
C15 C 0.2383(3) 0.3309(4) 0.2358(4)
C16 C 0.4283(3) 0.4259(3) 0.0976(4)
C21 C 0.3386(4) 0.0464(3) 0.5323(4)
C23 C 0.7078(2) 0.0464(3) 0.5323(4)
C25 C 0.3797(3) 0.0053(4) 0.1344(4)
C26 C 0.2869(3) 0.3281(4) 0.1990(4)
C27 C 0.3797(3) 0.3745(2) 0.1344(4)
C32 C 0.7104 0.0000(3) 0.5000
C34 C 0.3333(3) 0.3771(3) 0.1667
H17 H 0.7454 0.0000 0.5000
H19 H 0.3333 0.4121 0.1667
C37 C 0.3898(4) 0.0468(3) 0.5284(4)
C39 C 0.6570(2) 0.0468(3) 0.5284(4)
C40 C 0.2865(3) 0.0097(2) 0.1951(4)
C41 C 0.3801(3) 0.0565(4) 0.1383(4)
C42 C 0.2865(3) 0.2769(4) 0.1951(4)
C43 C 0.3801(3) 0.3237(2) 0.1383(4)
H22 H 0.4237 0.0799 0.5454
H23 H 0.6562 0.0799 0.5454
H25 H 0.2534 0.0105 0.2121
H26 H 0.4132 0.0904 0.1213
H27 H 0.4132 0.3229 0.1213
H28 H 0.2534 0.2430 0.2121
C48 C 0.6069 0.0000(3) 0.5000
C49 C 0.3333(3) 0.0598(3) 0.1667
C50 C 0.3333(3) 0.2736(3) 0.1667
C53 C 0.5515 0.0000(3) 0.5000
C54 C 0.3333(3) 0.1152(3) 0.1667
C55 C 0.3333(3) 0.2182(3) 0.1667
C58 C 0.5357(4) 0.0178(3) 0.4298(4)
C61 C 0.3511(3) 0.1488(3) 0.2369(4)
C62 C 0.3511(3) 0.2024(4) 0.2369(4)
C63 C 0.3155(3) 0.1846(3) 0.0965(4)
C64 C 0.3155(3) 0.1310(4) 0.0965(4)
C69 C 0.5702(4) 0.0362(3) 0.3615(5)
C72 C 0.3695(3) 0.1327(3) 0.3052(5)
C73 C 0.3695(3) 0.2369(4) 0.3052(5)
C74 C 0.2971(3) 0.2007(3) 0.0282(5)
C75 C 0.2971(3) 0.0965(4) 0.0282(5)
H35 H 0.6039 0.0338 0.3561
H36 H 0.3671 0.0966 0.3106
H37 H 0.2995 0.2368 0.0228
H38 H 0.2995 0.0628 0.0228
H39 H 0.3671 0.2706 0.3106
C80 C 0.5502(4) 0.0587(3) 0.3007(7)
C83 C 0.3920(3) 0.1752(3) 0.3660(7)
C84 C 0.3920(3) 0.2169(4) 0.3660(7)
H46 H 0.5743 0.0756 0.2553
H47 H 0.4089 0.1680 0.4114
H50 H 0.4089 0.2410 0.4114
Fe6 Fe 0.53286(4) 0.06572(4) 0.99331(7)
Fe13 Fe 0.53286(4) 0.46715(2) 0.99331(7)
O38 O 0.4699(3) 0.0465(5) 0.9091(3)
O39 O 0.5767(4) 0.0465(5) 0.9091(3)
O44 O 0.58154(22) 0.16318(30) 0.9948(4)
C85 C 0.2746(3) 0.1582(3) 0.9674(7)
C86 C 0.2746(3) 0.1165(4) 0.9674(7)
H48 H 0.2577 0.1654 0.9220
H49 H 0.2577 0.0924 0.9220
Fe1 Fe 0.19952(2) 0.80047(4) 0.32664(7)
O1 O 0.24405(28) 0.86248(34) 0.4108(3)
O2 O 0.1968(3) 0.9100(4) 0.4242(3)
O3 O 0.2483(2) 0.75179(22) 0.3281(4)
H1 H 0.2370 0.7212 0.3612
C1 C 0.2408(3) 0.9050(3) 0.4309(4)
C2 C 0.2922(2) 0.9536(3) 0.4677(4)
C3_2 C 0.2896 1.0000(3) 0.5000
H2_2 H 0.2546 1.0000 0.5000
C4 C 0.3430(2) 0.9532(3) 0.4716(4)
H3 H 0.3438 0.9201 0.4546
C5_2 C 0.3931 1.0000(3) 0.5000
C6_2 C 0.4485 1.0000(3) 0.5000
Fe3 Fe 0.60095(4) 0.80047(4) 0.32664(7)
Fe5 Fe 0.13380(4) 0.86619(2) 0.34003(7)
Fe8 Fe 0.73238(4) 0.86619(2) 0.34003(7)
Fe10 Fe 0.46715(2) 0.93428(4) 0.00669(7)
O5 O 0.61843(44) 0.86248(34) 0.4108(3)
O7 O 0.19581(34) 0.91072(28) 0.2559(3)
O11 O 0.13752(34) 0.75595(28) 0.4108(3)
O13 O 0.13752(34) 0.38157(44) 0.4108(3)
O16 O 0.61843(44) 0.75595(28) 0.4108(3)
O18 O 0.08928(28) 0.80419(34) 0.2559(3)
O21 O 0.7132(5) 0.9100(4) 0.4242(3)
O23 O 0.2433(4) 0.8635(3) 0.2425(3)
O24 O 0.4233(4) 0.9535(5) 0.0909(3)
O27 O 0.0900(4) 0.8032(3) 0.4242(3)
O29 O 0.0900(4) 0.2868(5) 0.4242(3)
O31 O 0.1365(3) 0.7567(4) 0.2425(3)
O34 O 0.6201(5) 0.8635(3) 0.2425(3)
O35 O 0.6201(5) 0.7567(4) 0.2425(3)
O41 O 0.50349(30) 0.75179(22) 0.3281(4)
O43 O 0.08512(22) 0.9150(2) 0.3386(4)
H6 H 0.2788 0.7630 0.3612
H9 H 0.4842 0.7212 0.3612
H10 H 0.4842 0.7630 0.3612
H13 H 0.0545 0.9037 0.3055
H14 H 0.0963 0.9455 0.3055
C11 C 0.6642(4) 0.9050(3) 0.4309(4)
C13 C 0.2383(3) 0.9075(3) 0.2358(4)
C17 C 0.0950(3) 0.7592(3) 0.4309(4)
C19 C 0.0950(3) 0.3358(4) 0.4309(4)
C22 C 0.6614(4) 0.9536(3) 0.4677(4)
C24 C 0.2869(3) 0.9589(2) 0.1990(4)
C28 C 0.0464(3) 0.7078(2) 0.4677(4)
C30 C 0.0464(3) 0.3386(4) 0.4677(4)
C32_2 C 0.7104 1.0000(3) 0.5000
C33 C 0.3333(3) 0.9563(3) 0.1667
C35 C -0.0000(3) 0.7104(3) 0.5000
C36 C -0.0000(3) 0.2896(3) 0.5000
H17_2 H 0.7454 1.0000 0.5000
H18 H 0.3333 0.9213 0.1667
H20 H -0.0000 0.7454 0.5000
H21 H -0.0000 0.2546 0.5000
C38 C 0.6102(4) 0.9532(3) 0.4716(4)
C44 C 0.0468(3) 0.6570(2) 0.4716(4)
C46 C 0.0468(3) 0.3898(4) 0.4716(4)
H24 H 0.5763 0.9201 0.4546
H29 H 0.0799 0.6562 0.4546
H32 H 0.0799 0.4237 0.4546
C48_2 C 0.6069 1.0000(3) 0.5000
C51 C -0.0000(3) 0.6069(3) 0.5000
C52 C -0.0000(3) 0.3931(3) 0.5000
C53_2 C 0.5515 1.0000(3) 0.5000
C56 C 0.0000(3) 0.5515(3) 0.5000
C57 C -0.0000(3) 0.4485(3) 0.5000
C59 C 0.5179(3) 0.9822(3) 0.5702(4)
C60 C 0.4643(4) 0.9822(3) 0.5702(4)
C67 C 0.0178(3) 0.4821(3) 0.5702(4)
C68 C 0.0178(3) 0.5357(4) 0.5702(4)
C70 C 0.5340(3) 0.9638(3) 0.6385(5)
C71 C 0.4298(4) 0.9638(3) 0.6385(5)
C78 C 0.0362(3) 0.4660(3) 0.6385(5)
C79 C 0.0362(3) 0.5702(4) 0.6385(5)
H33 H 0.5701 0.9662 0.6439
H34 H 0.3961 0.9662 0.6439
H41 H 0.0338 0.4299 0.6439
H42 H 0.0338 0.6039 0.6439
C81 C 0.4915(3) 0.9413(3) 0.6993(7)
C82 C 0.4498(4) 0.9413(3) 0.6993(7)
C89 C 0.0587(3) 0.5085(3) 0.6993(7)
C90 C 0.0587(3) 0.5502(4) 0.6993(7)
H44 H 0.4987 0.9244 0.7447
H45 H 0.4257 0.9244 0.7447
H52 H 0.0756 0.5013 0.7447
H53 H 0.0756 0.5743 0.7447
Fe15 Fe 0.80047(4) 0.60095(4) 0.67336(7)
Fe16 Fe 0.86619(2) 0.73238(4) 0.65997(7)
O12 O 0.86248(34) 0.61843(44) 0.5892(3)
O28 O 0.9100(4) 0.7132(5) 0.5758(3)
O30 O 0.9100(4) 0.1968(3) 0.5758(3)
C18 C 0.9050(3) 0.6642(4) 0.5691(4)
C20 C 0.9050(3) 0.2408(3) 0.5691(4)
C29 C 0.9536(3) 0.6614(4) 0.5323(4)
C31 C 0.9536(3) 0.2922(2) 0.5323(4)
C35_2 C 1.0000(3) 0.7104(3) 0.5000
C36_2 C 1.0000(3) 0.2896(3) 0.5000
H20_2 H 1.0000 0.7454 0.5000
H21_2 H 1.0000 0.2546 0.5000
C45 C 0.9532(3) 0.6102(4) 0.5284(4)
C47 C 0.9532(3) 0.3430(2) 0.5284(4)
H30 H 0.9201 0.5763 0.5454
H31 H 0.9201 0.3438 0.5454
C51_2 C 1.0000(3) 0.6069(3) 0.5000
C52_2 C 1.0000(3) 0.3931(3) 0.5000
C56_2 C 1.0000(3) 0.5515(3) 0.5000
C57_2 C 1.0000(3) 0.4485(3) 0.5000
C65 C 0.9822(3) 0.5179(3) 0.4298(4)
C66 C 0.9822(3) 0.4643(4) 0.4298(4)
C76 C 0.9638(3) 0.5340(3) 0.3615(5)
C77 C 0.9638(3) 0.4298(4) 0.3615(5)
H40 H 0.9662 0.5701 0.3561
H43 H 0.9662 0.3961 0.3561
C87 C 0.9413(3) 0.4915(3) 0.3007(7)
C88 C 0.9413(3) 0.4498(4) 0.3007(7)
H51 H 0.9244 0.4987 0.2553
H54 H 0.9244 0.4257 0.2553
O3_2 O 0.24821(22) 0.49651(30) 0.3281(4)
H1_2 H 0.2788 0.5158 0.3612
Fe10_2 Fe 0.06572(4) 0.53286(4) 0.00669(7)
O7_2 O 0.08928(28) 0.28510(44) 0.2559(3)
O11_2 O 0.24405(28) 0.38157(44) 0.4108(3)
O14 O 0.75595(28) 0.61843(44) 0.5892(3)
O23_2 O 0.1365(3) 0.3799(5) 0.2425(3)
O24_2 O 0.0465(5) 0.4699(6) 0.0909(3)
O27_2 O 0.1968(3) 0.2868(5) 0.4242(3)
O28_2 O 0.2868(5) 0.1968(6) 0.5758(3)
O29_2 O 0.7132(5) 0.8032(6) 0.4242(3)
O30_2 O 0.8032(3) 0.7132(5) 0.5758(3)
O43_2 O 0.0850(2) 0.17016(30) 0.3386(4)
H6_2 H 0.2370 0.5158 0.3612
H13_2 H 0.0963 0.1509 0.3055
H14_2 H 0.0545 0.1509 0.3055
C13_2 C 0.0925(3) 0.3309(4) 0.2358(4)
C17_2 C 0.2408(3) 0.3358(4) 0.4309(4)
C18_2 C 0.3358(4) 0.2408(5) 0.5691(4)
C19_2 C 0.6642(4) 0.7592(5) 0.4309(4)
C20_2 C 0.7592(3) 0.6642(4) 0.5691(4)
C24_2 C 0.0411(2) 0.3281(4) 0.1990(4)
C28_2 C 0.2922(2) 0.3386(4) 0.4677(4)
C29_2 C 0.3386(4) 0.2922(5) 0.5323(4)
C30_2 C 0.6614(4) 0.7078(5) 0.4677(4)
C31_2 C 0.7078(2) 0.6614(4) 0.5323(4)
C33_2 C 0.0437(3) 0.3771(4) 0.1667
C35_3 C 0.2896(3) 0.2896(4) 0.5000
C36_3 C 0.7104(3) 0.7104(4) 0.5000
H18_2 H 0.0787 0.4121 0.1667
H20_3 H 0.2546 0.2546 0.5000
H21_3 H 0.7454 0.7454 0.5000
C44_2 C 0.3430(2) 0.3898(4) 0.4716(4)
C45_2 C 0.3898(4) 0.3430(5) 0.5284(4)
C46_2 C 0.6102(4) 0.6570(5) 0.4716(4)
C47_2 C 0.6570(2) 0.6102(4) 0.5284(4)
H29_2 H 0.3438 0.4237 0.4546
H30_2 H 0.4237 0.3438 0.5454
H31_2 H 0.6562 0.5763 0.5454
H32_2 H 0.5763 0.6562 0.4546
C51_3 C 0.3931(3) 0.3931(4) 0.5000
C52_3 C 0.6069(3) 0.6069(4) 0.5000
C56_3 C 0.4485(3) 0.4485(4) 0.5000
C57_3 C 0.5515(3) 0.5515(4) 0.5000
C65_2 C 0.4821(3) 0.4643(4) 0.4298(4)
C66_2 C 0.5357(4) 0.5179(5) 0.4298(4)
C67_2 C 0.5179(3) 0.5357(4) 0.5702(4)
C68_2 C 0.4643(4) 0.4821(5) 0.5702(4)
C76_2 C 0.4660(3) 0.4298(4) 0.3615(5)
C77_2 C 0.5702(4) 0.5340(5) 0.3615(5)
C78_2 C 0.5340(3) 0.5702(4) 0.6385(5)
C79_2 C 0.4298(4) 0.4660(5) 0.6385(5)
H40_2 H 0.4299 0.3961 0.3561
H41_2 H 0.5701 0.6039 0.6439
H42_2 H 0.3961 0.4299 0.6439
H43_2 H 0.6039 0.5701 0.3561
C87_2 C 0.5085(3) 0.4498(4) 0.3007(7)
C88_2 C 0.5502(4) 0.4915(5) 0.3007(7)
C89_2 C 0.4915(3) 0.5502(4) 0.6993(7)
C90_2 C 0.4498(4) 0.5085(5) 0.6993(7)
H51_2 H 0.5013 0.4257 0.2553
H52_2 H 0.4987 0.5743 0.7447
H53_2 H 0.4257 0.5013 0.7447
H54_2 H 0.5743 0.4987 0.2553
O8_2 O 0.95176(44) 0.42262(56) 0.0775(3)
O19_2 O 0.95176(44) 0.52915(52) 0.0775(3)
O36_2 O 0.8635(3) 0.6201(5) 0.7575(3)
O37_2 O 0.7567(4) 0.6201(5) 0.7575(3)
O42_2 O 0.75179(22) 0.50349(30) 0.6719(4)
H11_2 H 0.7212 0.4842 0.6388
H12_2 H 0.7630 0.4842 0.6388
H15_2 H 0.8175 0.4297 0.0279
H16_2 H 0.8175 0.3879 0.0279
C14_2 C 0.9975(4) 0.4259(5) 0.0976(4)
C16_2 C 0.5741(3) 0.0025(4) 0.0976(4)
C25_2 C 0.9947(4) 0.3745(5) 0.1344(4)
C27_2 C 0.6255(2) 0.0053(4) 0.1344(4)
C40_2 C 0.9903(2) 0.2769(4) 0.1951(4)
C41_2 C 0.9435(4) 0.3237(5) 0.1383(4)
C42_2 C 0.7231(4) 0.0097(5) 0.1951(4)
C43_2 C 0.6763(2) 0.0565(4) 0.1383(4)
H25_2 H 0.9895 0.2430 0.2121
H26_2 H 0.9096 0.3229 0.1213
H27_2 H 0.6771 0.0904 0.1213
H28_2 H 0.7570 0.0105 0.2121
C49_2 C 0.9402(3) 0.2736(4) 0.1667
C50_2 C 0.7264(3) 0.0598(4) 0.1667
C54_2 C 0.8848(3) 0.2182(4) 0.1667
C55_2 C 0.7818(3) 0.1152(4) 0.1667
C61_2 C 0.8512(3) 0.2024(4) 0.2369(4)
C62_2 C 0.7976(4) 0.1488(5) 0.2369(4)
C63_2 C 0.8154(3) 0.1310(4) 0.0965(4)
C64_2 C 0.8690(4) 0.1846(5) 0.0965(4)
C72_2 C 0.8673(3) 0.2369(4) 0.3052(5)
C73_2 C 0.7631(4) 0.1327(5) 0.3052(5)
C74_2 C 0.7993(3) 0.0965(4) 0.0282(5)
C75_2 C 0.9035(4) 0.2007(5) 0.0282(5)
H36_2 H 0.9034 0.2706 0.3106
H37_2 H 0.7632 0.0628 0.0228
H38_2 H 0.9372 0.2368 0.0228
H39_2 H 0.7294 0.0966 0.3106
C83_2 C 0.8248(3) 0.2169(4) 0.3660(7)
C84_2 C 0.7831(4) 0.1752(5) 0.3660(7)
H47_2 H 0.8320 0.2410 0.4114
H50_2 H 0.7590 0.1680 0.4114
Fe6_2 Fe 0.93428(4) 0.46715(6) 0.99331(7)
O38_2 O 0.9535(5) 0.4233(6) 0.9091(3)
O39_2 O 0.9535(5) 0.5301(6) 0.9091(3)
O44_2 O 0.83682(30) 0.41837(37) 0.9948(4)
C85_2 C 0.8418(3) 0.1165(4) 0.9674(7)
C86_2 C 0.8835(4) 0.1582(5) 0.9674(7)
H48_2 H 0.8346 0.0924 0.9220
H49_2 H 0.9076 0.1654 0.9220
O9_2 O 0.71490(44) 0.91072(56) 0.2559(3)
O26_2 O 0.5301(3) 0.9535(5) 0.0909(3)
C15_2 C 0.6691(4) 0.9075(5) 0.2358(4)
C26_2 C 0.6719(4) 0.9589(5) 0.1990(4)
C34_2 C 0.6229(3) 0.9563(4) 0.1667
H19_2 H 0.5879 0.9213 0.1667
O26_3 O 0.0465(5) 0.5767(4) 0.0909(3)
C15_3 C 0.0925(5) 0.7617(3) 0.2358(4)
C26_3 C 0.0411(5) 0.7131(3) 0.1990(4)
C34_3 C 0.0437(4) 0.6667(3) 0.1667
H19_3 H 0.0787 0.6667 0.1667
O7_3 O 0.71490(44) 0.80419(34) 0.2559(3)
O8_3 O 0.57738(56) 0.52915(34) 0.0775(3)
O24_3 O 0.5301(6) 0.5767(4) 0.0909(3)
O43_3 O 0.82984(30) 0.91488(22) 0.3386(4)
H13_3 H 0.8491 0.9455 0.3055
H14_3 H 0.8491 0.9037 0.3055
H15_3 H 0.5703 0.3879 0.0279
H16_3 H 0.6121 0.4297 0.0279
C13_3 C 0.6691(4) 0.7617(3) 0.2358(4)
C14_3 C 0.5741(5) 0.5717(3) 0.0976(4)
C16_3 C 0.9975(4) 0.5717(3) 0.0976(4)
C24_3 C 0.6719(4) 0.7131(3) 0.1990(4)
C25_3 C 0.6255(5) 0.6203(3) 0.1344(4)
C27_3 C 0.9947(4) 0.6203(3) 0.1344(4)
C33_3 C 0.6229(4) 0.6667(3) 0.1667
H18_3 H 0.5879 0.6667 0.1667
C40_3 C 0.7231(4) 0.7135(3) 0.1951(4)
C41_3 C 0.6763(5) 0.6199(3) 0.1383(4)
C42_3 C 0.9903(5) 0.7135(3) 0.1951(4)
C43_3 C 0.9435(4) 0.6199(3) 0.1383(4)
H25_3 H 0.7570 0.7466 0.2121
H26_3 H 0.6771 0.5868 0.1213
H27_3 H 0.9096 0.5868 0.1213
H28_3 H 0.9895 0.7466 0.2121
C49_3 C 0.7264(4) 0.6667(3) 0.1667
C50_3 C 0.9402(4) 0.6667(3) 0.1667
C54_3 C 0.7818(4) 0.6667(3) 0.1667
C55_3 C 0.8848(4) 0.6667(3) 0.1667
C61_3 C 0.7976(4) 0.6489(3) 0.2369(4)
C62_3 C 0.8512(5) 0.6489(3) 0.2369(4)
C63_3 C 0.8690(4) 0.6845(3) 0.0965(4)
C64_3 C 0.8154(5) 0.6845(3) 0.0965(4)
C72_3 C 0.7631(4) 0.6305(3) 0.3052(5)
C73_3 C 0.8673(5) 0.6305(3) 0.3052(5)
C74_3 C 0.9035(4) 0.7029(3) 0.0282(5)
C75_3 C 0.7993(5) 0.7029(3) 0.0282(5)
H36_3 H 0.7294 0.6329 0.3106
H37_3 H 0.9372 0.7005 0.0228
H38_3 H 0.7632 0.7005 0.0228
H39_3 H 0.9034 0.6329 0.3106
C83_3 C 0.7831(4) 0.6080(3) 0.3660(7)
C84_3 C 0.8248(5) 0.6080(3) 0.3660(7)
H47_3 H 0.7590 0.5911 0.4114
H50_3 H 0.8320 0.5911 0.4114
O38_3 O 0.5767(6) 0.5301(3) 0.9091(3)
O39_3 O 0.4699(6) 0.4233(4) 0.9091(3)
O44_3 O 0.58163(37) 0.41846(22) 0.9948(4)
C85_3 C 0.8835(4) 0.7254(3) 0.9674(7)
C86_3 C 0.8418(5) 0.7254(3) 0.9674(7)
H48_3 H 0.9076 0.7423 0.9220
H49_3 H 0.8346 0.7423 0.9220
O7_4 O 0.28510(44) 0.08928(28) 0.7441(3)
O18_2 O 0.28510(44) 0.19581(34) 0.7441(3)
O43_4 O 0.17016(30) 0.0850(2) 0.6614(4)
H13_4 H 0.1509 0.0963 0.6945
H14_4 H 0.1509 0.0545 0.6945
C13_4 C 0.3309(4) 0.0925(3) 0.7642(4)
C24_4 C 0.3281(4) 0.0411(2) 0.8010(4)
C33_4 C 0.3771(4) 0.0437(3) 0.8333
H18_4 H 0.4121 0.0787 0.8333
O44_4 O 0.41837(37) 0.83682(30) 0.0052(4)
C85_4 C 0.1165(4) 0.8418(3) 0.0326(7)
C86_4 C 0.1582(5) 0.8835(4) 0.0326(7)
H48_4 H 0.0924 0.8346 0.0780
H49_4 H 0.1654 0.9076 0.0780
O8_4 O 0.42262(56) 0.95176(44) 0.9225(3)
O10_2 O 0.04824(44) 0.57738(28) 0.9225(3)
O19_3 O 0.52915(52) 0.95176(44) 0.9225(3)
H15_4 H 0.4297 0.8175 0.9721
H16_4 H 0.3879 0.8175 0.9721
C14_4 C 0.4259(5) 0.9975(4) 0.9024(4)
C16_4 C 0.0025(4) 0.5741(3) 0.9024(4)
C25_4 C 0.3745(5) 0.9947(4) 0.8656(4)
C27_4 C 0.0053(4) 0.6255(2) 0.8656(4)
C40_4 C 0.2769(4) 0.9903(2) 0.8049(4)
C41_4 C 0.3237(5) 0.9435(4) 0.8617(4)
C42_4 C 0.0097(5) 0.7231(4) 0.8049(4)
C43_4 C 0.0565(4) 0.6763(2) 0.8617(4)
H25_4 H 0.2430 0.9895 0.7879
H26_4 H 0.3229 0.9096 0.8787
H27_4 H 0.0904 0.6771 0.8787
H28_4 H 0.0105 0.7570 0.7879
C49_4 C 0.2736(4) 0.9402(3) 0.8333
C50_4 C 0.0598(4) 0.7264(3) 0.8333
C54_4 C 0.2182(4) 0.8848(3) 0.8333
C55_4 C 0.1152(4) 0.7818(3) 0.8333
C61_4 C 0.2024(4) 0.8512(3) 0.7631(4)
C62_4 C 0.1488(5) 0.7976(4) 0.7631(4)
C63_4 C 0.1310(4) 0.8154(3) 0.9035(4)
C64_4 C 0.1846(5) 0.8690(4) 0.9035(4)
C72_4 C 0.2369(4) 0.8673(3) 0.6948(5)
C73_4 C 0.1327(5) 0.7631(4) 0.6948(5)
C74_4 C 0.0965(4) 0.7993(3) 0.9718(5)
C75_4 C 0.2007(5) 0.9035(4) 0.9718(5)
H36_4 H 0.2706 0.9034 0.6894
H37_4 H 0.0628 0.7632 0.9772
H38_4 H 0.2368 0.9372 0.9772
H39_4 H 0.0966 0.7294 0.6894
C83_4 C 0.2169(4) 0.8248(3) 0.6340(7)
C84_4 C 0.1752(5) 0.7831(4) 0.6340(7)
H47_4 H 0.2410 0.8320 0.5886
H50_4 H 0.1680 0.7590 0.5886
O9_3 O 0.91072(56) 0.71490(44) 0.7441(3)
C15_4 C 0.9075(5) 0.6691(4) 0.7642(4)
C26_4 C 0.9589(5) 0.6719(4) 0.8010(4)
C34_4 C 0.9563(4) 0.6229(3) 0.8333
H19_4 H 0.9213 0.5879 0.8333
O9_4 O 0.80419(34) 0.08928(56) 0.7441(3)
C15_5 C 0.7617(3) 0.0925(5) 0.7642(4)
C26_5 C 0.7131(3) 0.0411(5) 0.8010(4)
C34_5 C 0.6667(3) 0.0437(4) 0.8333
H19_5 H 0.6667 0.0787 0.8333
O44_5 O 0.41846(22) 0.58163(37) 0.0052(4)
C85_5 C 0.7254(3) 0.8835(4) 0.0326(7)
C86_5 C 0.7254(3) 0.8418(5) 0.0326(7)
H48_5 H 0.7423 0.9076 0.0780
H49_5 H 0.7423 0.8346 0.0780
O7_5 O 0.80419(34) 0.71490(44) 0.7441(3)
O8_5 O 0.52915(34) 0.57738(56) 0.9225(3)
O19_4 O 0.42262(28) 0.47085(52) 0.9225(3)
O43_5 O 0.91488(22) 0.82984(30) 0.6614(4)
H13_5 H 0.9455 0.8491 0.6945
H14_5 H 0.9037 0.8491 0.6945
H15_5 H 0.3879 0.5703 0.9721
H16_5 H 0.4297 0.6121 0.9721
C13_5 C 0.7617(3) 0.6691(4) 0.7642(4)
C14_5 C 0.5717(3) 0.5741(5) 0.9024(4)
C16_5 C 0.5717(3) 0.9975(4) 0.9024(4)
C24_5 C 0.7131(3) 0.6719(4) 0.8010(4)
C25_5 C 0.6203(3) 0.6255(5) 0.8656(4)
C27_5 C 0.6203(3) 0.9947(4) 0.8656(4)
C33_5 C 0.6667(3) 0.6229(4) 0.8333
H18_5 H 0.6667 0.5879 0.8333
C40_5 C 0.7135(3) 0.7231(4) 0.8049(4)
C41_5 C 0.6199(3) 0.6763(5) 0.8617(4)
C42_5 C 0.7135(3) 0.9903(5) 0.8049(4)
C43_5 C 0.6199(3) 0.9435(4) 0.8617(4)
H25_5 H 0.7466 0.7570 0.7879
H26_5 H 0.5868 0.6771 0.8787
H27_5 H 0.5868 0.9096 0.8787
H28_5 H 0.7466 0.9895 0.7879
C49_5 C 0.6667(3) 0.7264(4) 0.8333
C50_5 C 0.6667(3) 0.9402(4) 0.8333
C54_5 C 0.6667(3) 0.7818(4) 0.8333
C55_5 C 0.6667(3) 0.8848(4) 0.8333
C61_5 C 0.6489(3) 0.7976(4) 0.7631(4)
C62_5 C 0.6489(3) 0.8512(5) 0.7631(4)
C63_5 C 0.6845(3) 0.8690(4) 0.9035(4)
C64_5 C 0.6845(3) 0.8154(5) 0.9035(4)
C72_5 C 0.6305(3) 0.7631(4) 0.6948(5)
C73_5 C 0.6305(3) 0.8673(5) 0.6948(5)
C74_5 C 0.7029(3) 0.9035(4) 0.9718(5)
C75_5 C 0.7029(3) 0.7993(5) 0.9718(5)
H36_5 H 0.6329 0.7294 0.6894
H37_5 H 0.7005 0.9372 0.9772
H38_5 H 0.7005 0.7632 0.9772
H39_5 H 0.6329 0.9034 0.6894
C83_5 C 0.6080(3) 0.7831(4) 0.6340(7)
C84_5 C 0.6080(3) 0.8248(5) 0.6340(7)
H47_5 H 0.5911 0.7590 0.5886
H50_5 H 0.5911 0.8320 0.5886
O44_6 O 0.16318(30) 0.58154(22) 0.0052(4)
C85_6 C 0.1582(3) 0.2746(3) 0.0326(7)
C86_6 C 0.1165(4) 0.2746(3) 0.0326(7)
H48_6 H 0.1654 0.2577 0.0780
H49_6 H 0.0924 0.2577 0.0780
O8_6 O 0.04824(44) 0.47085(34) 0.9225(3)
H15_6 H 0.1825 0.6121 0.9721
H16_6 H 0.1825 0.5703 0.9721
C14_6 C 0.0025(4) 0.4283(3) 0.9024(4)
C15_6 C 0.3309(4) 0.2383(3) 0.7642(4)
C16_6 C 0.4259(3) 0.4283(3) 0.9024(4)
C25_6 C 0.0053(4) 0.3797(3) 0.8656(4)
C26_6 C 0.3281(4) 0.2869(3) 0.8010(4)
C27_6 C 0.3745(2) 0.3797(3) 0.8656(4)
C34_6 C 0.3771(3) 0.3333(3) 0.8333
H19_6 H 0.4121 0.3333 0.8333
C40_6 C 0.0097(2) 0.2865(3) 0.8049(4)
C41_6 C 0.0565(4) 0.3801(3) 0.8617(4)
C42_6 C 0.2769(4) 0.2865(3) 0.8049(4)
C43_6 C 0.3237(2) 0.3801(3) 0.8617(4)
H25_6 H 0.0105 0.2534 0.7879
H26_6 H 0.0904 0.4132 0.8787
H27_6 H 0.3229 0.4132 0.8787
H28_6 H 0.2430 0.2534 0.7879
C49_6 C 0.0598(3) 0.3333(3) 0.8333
C50_6 C 0.2736(3) 0.3333(3) 0.8333
C54_6 C 0.1152(3) 0.3333(3) 0.8333
C55_6 C 0.2182(3) 0.3333(3) 0.8333
C61_6 C 0.1488(3) 0.3511(3) 0.7631(4)
C62_6 C 0.2024(4) 0.3511(3) 0.7631(4)
C63_6 C 0.1846(3) 0.3155(3) 0.9035(4)
C64_6 C 0.1310(4) 0.3155(3) 0.9035(4)
C72_6 C 0.1327(3) 0.3695(3) 0.6948(5)
C73_6 C 0.2369(4) 0.3695(3) 0.6948(5)
C74_6 C 0.2007(3) 0.2971(3) 0.9718(5)
C75_6 C 0.0965(4) 0.2971(3) 0.9718(5)
H36_6 H 0.0966 0.3671 0.6894
H37_6 H 0.2368 0.2995 0.9772
H38_6 H 0.0628 0.2995 0.9772
H39_6 H 0.2706 0.3671 0.6894
C83_6 C 0.1752(3) 0.3920(3) 0.6340(7)
C84_6 C 0.2169(4) 0.3920(3) 0.6340(7)
H47_6 H 0.1680 0.4089 0.5886
H50_6 H 0.2410 0.4089 0.5886
O7_6 O 0.91072(28) 0.19581(34) 0.7441(3)
O43_6 O 0.9150(2) 0.08512(22) 0.6614(4)
H13_6 H 0.9037 0.0545 0.6945
H14_6 H 0.9455 0.0963 0.6945
C13_6 C 0.9075(3) 0.2383(3) 0.7642(4)
C24_6 C 0.9589(2) 0.2869(3) 0.8010(4)
C33_6 C 0.9563(3) 0.3333(3) 0.8333
H18_6 H 0.9213 0.3333 0.8333
loop_
_geom_bond_atom_site_label_1
_geom_bond_atom_site_label_2
_geom_bond_site_symmetry_1
_geom_bond_site_symmetry_2
C3 H2 1_555 1_555
C6 C5 1_555 1_555
C7 C6 1_555 1_555
C8 C7 1_555 1_555
H4 C8 1_555 1_555
C9 C8 1_555 1_555
H5 C9 1_555 1_555
Fe2 Fe7 1_555 1_555
Fe4 Fe9 1_555 1_555
Fe7 O20 1_555 1_555
Fe9 O22 1_555 1_555
Fe11 Fe12 1_555 1_555
Fe12 O25 1_555 1_555
Fe14 O26 1_555 1_555
O4 Fe2 1_555 1_555
O6 Fe4 1_555 1_555
O9 Fe11 1_555 1_555
O15 Fe2 1_555 1_555
O17 Fe4 1_555 1_555
O20 C10 1_555 1_555
O22 C12 1_555 1_555
O25 C15 1_555 1_555
O26 C16 1_555 1_555
O32 Fe2 1_555 1_555
O33 Fe2 1_555 1_555
O36 Fe4 1_555 1_555
O37 Fe4 1_555 1_555
O40 Fe2 1_555 1_555
O42 Fe4 1_555 1_555
H7 O40 1_555 1_555
H8 O40 1_555 1_555
H11 O42 1_555 1_555
H12 O42 1_555 1_555
C10 O4 1_555 1_555
C12 O6 1_555 1_555
C14 O8 1_555 1_555
C15 O9 1_555 1_555
C16 O10 1_555 1_555
C21 C3 1_555 1_555
C23 C12 1_555 1_555
C25 C14 1_555 1_555
C26 C15 1_555 1_555
C27 C16 1_555 1_555
C34 C26 1_555 1_555
H17 C32 1_555 1_555
H19 C34 1_555 1_555
C37 C5 1_555 1_555
C39 C23 1_555 1_555
C41 C25 1_555 1_555
C42 C26 1_555 1_555
C43 C27 1_555 1_555
H22 C37 1_555 1_555
H23 C39 1_555 1_555
H25 C40 1_555 1_555
H26 C41 1_555 1_555
H27 C43 1_555 1_555
H28 C42 1_555 1_555
C49 C40 1_555 1_555
C50 C42 1_555 1_555
C53 C48 1_555 1_555
C54 C49 1_555 1_555
C55 C50 1_555 1_555
C58 C7 1_555 1_555
C61 C54 1_555 1_555
C62 C55 1_555 1_555
C63 C55 1_555 1_555
C64 C54 1_555 1_555
C69 C58 1_555 1_555
C72 C61 1_555 1_555
C73 C62 1_555 1_555
C74 C63 1_555 1_555
C75 C64 1_555 1_555
H35 C69 1_555 1_555
H36 C72 1_555 1_555
H37 C74 1_555 1_555
H38 C75 1_555 1_555
H39 C73 1_555 1_555
C80 C9 1_555 1_555
C83 C72 1_555 1_555
C84 C73 1_555 1_555
H46 C80 1_555 1_555
H47 C83 1_555 1_555
H50 C84 1_555 1_555
C10 C21 1_555 1_555
C21 C37 1_555 1_555
C23 C32 1_555 1_555
C27 C34 1_555 1_555
C39 C48 1_555 1_555
C41 C49 1_555 1_555
C43 C50 1_555 1_555
C53 C58 1_555 1_555
C61 C62 1_555 1_555
C63 C64 1_555 1_555
C69 C80 1_555 1_555
C83 C84 1_555 1_555
O38 Fe6 1_555 1_555
O39 Fe6 1_555 1_555
O44 Fe6 1_555 1_555
H48 C85 1_555 1_555
H49 C86 1_555 1_555
C85 C86 1_555 1_555
Fe1 O1 1_555 1_555
O1 C1 1_555 1_555
O2 C1 1_555 1_555
O3 Fe1 1_555 1_555
H1 O3 1_555 1_555
C1 C2 1_555 1_555
C2 C3_2 1_555 1_555
C3_2 H2_2 1_555 1_555
C4 C2 1_555 1_555
H3 C4 1_555 1_555
C5_2 C4 1_555 1_555
C6_2 C5_2 1_555 1_555
Fe3 Fe8 1_555 1_555
Fe5 Fe1 1_555 1_555
Fe8 O21 1_555 1_555
Fe10 O24 1_555 1_555
Fe11 O29 1_555 1_555
O5 Fe3 1_555 1_555
O7 Fe5 1_555 1_555
O11 Fe1 1_555 1_555
O13 Fe12 1_555 1_555
O16 Fe3 1_555 1_555
O18 Fe5 1_555 1_555
O21 C11 1_555 1_555
O23 Fe1 1_555 1_555
O27 Fe5 1_555 1_555
O29 C19 1_555 1_555
O31 Fe1 1_555 1_555
O34 Fe3 1_555 1_555
O35 Fe3 1_555 1_555
O41 Fe3 1_555 1_555
O43 Fe5 1_555 1_555
H6 O3 1_555 1_555
H9 O41 1_555 1_555
H10 O41 1_555 1_555
H13 O43 1_555 1_555
H14 O43 1_555 1_555
C11 O5 1_555 1_555
C13 O7 1_555 1_555
C17 O11 1_555 1_555
C19 O13 1_555 1_555
C22 C11 1_555 1_555
C24 C13 1_555 1_555
C28 C17 1_555 1_555
C30 C19 1_555 1_555
C32_2 C22 1_555 1_555
C33 C24 1_555 1_555
C35 C28 1_555 1_555
C36 C30 1_555 1_555
H17_2 C32_2 1_555 1_555
H18 C33 1_555 1_555
H20 C35 1_555 1_555
H21 C36 1_555 1_555
C38 C22 1_555 1_555
C44 C28 1_555 1_555
C46 C30 1_555 1_555
H24 C38 1_555 1_555
H29 C44 1_555 1_555
H32 C46 1_555 1_555
C48_2 C38 1_555 1_555
C51 C44 1_555 1_555
C52 C46 1_555 1_555
C53_2 C48_2 1_555 1_555
C56 C51 1_555 1_555
C57 C52 1_555 1_555
C59 C53_2 1_555 1_555
C60 C6_2 1_555 1_555
C67 C57 1_555 1_555
C68 C56 1_555 1_555
C70 C59 1_555 1_555
C71 C60 1_555 1_555
C78 C67 1_555 1_555
C79 C68 1_555 1_555
H33 C70 1_555 1_555
H34 C71 1_555 1_555
H41 C78 1_555 1_555
H42 C79 1_555 1_555
C81 C70 1_555 1_555
C82 C71 1_555 1_555
C89 C78 1_555 1_555
C90 C79 1_555 1_555
H44 C81 1_555 1_555
H45 C82 1_555 1_555
H52 C89 1_555 1_555
H53 C90 1_555 1_555
O2 Fe5 1_555 1_555
O23 C13 1_555 1_555
O27 C17 1_555 1_555
C59 C60 1_555 1_555
C67 C68 1_555 1_555
C81 C82 1_555 1_555
C89 C90 1_555 1_555
Fe15 Fe16 1_555 1_555
Fe16 O28 1_555 1_555
Fe9 O30 1_555 1_555
O12 Fe15 1_555 1_555
O28 C18 1_555 1_555
O30 C20 1_555 1_555
C18 O12 1_555 1_555
C20 O17 1_555 1_555
C29 C18 1_555 1_555
C31 C20 1_555 1_555
H20_2 C35_2 1_555 1_555
H21_2 C36_2 1_555 1_555
C45 C29 1_555 1_555
C47 C31 1_555 1_555
H30 C45 1_555 1_555
H31 C47 1_555 1_555
C56_2 C51_2 1_555 1_555
C57_2 C52_2 1_555 1_555
C65 C56_2 1_555 1_555
C66 C57_2 1_555 1_555
C76 C65 1_555 1_555
C77 C66 1_555 1_555
H40 C76 1_555 1_555
H43 C77 1_555 1_555
C87 C76 1_555 1_555
C88 C77 1_555 1_555
H51 C87 1_555 1_555
H54 C88 1_555 1_555
C29 C35_2 1_555 1_555
C31 C36_2 1_555 1_555
C45 C51_2 1_555 1_555
C47 C52_2 1_555 1_555
C65 C66 1_555 1_555
C87 C88 1_555 1_555
O3_2 Fe12 1_555 1_555
H1_2 O3_2 1_555 1_555
Fe10_2 O24_2 1_555 1_555
Fe7 O28_2 1_555 1_555
Fe8 O29_2 1_555 1_555
Fe16 O30_2 1_555 1_555
O7_2 Fe11 1_555 1_555
O11_2 Fe12 1_555 1_555
O14 Fe15 1_555 1_555
O23_2 Fe12 1_555 1_555
O27_2 Fe11 1_555 1_555
O28_2 C18_2 1_555 1_555
O29_2 C19_2 1_555 1_555
O30_2 C20_2 1_555 1_555
O43_2 Fe11 1_555 1_555
H6_2 O3_2 1_555 1_555
H13_2 O43_2 1_555 1_555
H14_2 O43_2 1_555 1_555
C13_2 O7_2 1_555 1_555
C17_2 O11_2 1_555 1_555
C18_2 O15 1_555 1_555
C19_2 O16 1_555 1_555
C20_2 O14 1_555 1_555
C24_2 C13_2 1_555 1_555
C28_2 C17_2 1_555 1_555
C29_2 C18_2 1_555 1_555
C30_2 C19_2 1_555 1_555
C31_2 C20_2 1_555 1_555
C33_2 C24_2 1_555 1_555
C35_3 C28_2 1_555 1_555
C36_3 C30_2 1_555 1_555
H18_2 C33_2 1_555 1_555
H20_3 C35_3 1_555 1_555
H21_3 C36_3 1_555 1_555
C44_2 C28_2 1_555 1_555
C45_2 C29_2 1_555 1_555
C46_2 C30_2 1_555 1_555
C47_2 C31_2 1_555 1_555
H29_2 C44_2 1_555 1_555
H30_2 C45_2 1_555 1_555
H31_2 C47_2 1_555 1_555
H32_2 C46_2 1_555 1_555
C51_3 C44_2 1_555 1_555
C52_3 C46_2 1_555 1_555
C56_3 C51_3 1_555 1_555
C57_3 C52_3 1_555 1_555
C65_2 C56_3 1_555 1_555
C66_2 C57_3 1_555 1_555
C67_2 C57_3 1_555 1_555
C68_2 C56_3 1_555 1_555
C76_2 C65_2 1_555 1_555
C77_2 C66_2 1_555 1_555
C78_2 C67_2 1_555 1_555
C79_2 C68_2 1_555 1_555
H40_2 C76_2 1_555 1_555
H41_2 C78_2 1_555 1_555
H42_2 C79_2 1_555 1_555
H43_2 C77_2 1_555 1_555
C87_2 C76_2 1_555 1_555
C88_2 C77_2 1_555 1_555
C89_2 C78_2 1_555 1_555
C90_2 C79_2 1_555 1_555
H51_2 C87_2 1_555 1_555
H52_2 C89_2 1_555 1_555
H53_2 C90_2 1_555 1_555
H54_2 C88_2 1_555 1_555
O23_2 C13_2 1_555 1_555
O27_2 C17_2 1_555 1_555
C29_2 C35_3 1_555 1_555
C31_2 C36_3 1_555 1_555
C45_2 C51_3 1_555 1_555
C47_2 C52_3 1_555 1_555
C65_2 C66_2 1_555 1_555
C67_2 C68_2 1_555 1_555
C87_2 C88_2 1_555 1_555
C89_2 C90_2 1_555 1_555
O36_2 Fe15 1_555 1_555
O37_2 Fe15 1_555 1_555
O42_2 Fe15 1_555 1_555
H11_2 O42_2 1_555 1_555
H12_2 O42_2 1_555 1_555
C14_2 O8_2 1_555 1_555
C16_2 O19 1_555 1_555
C25_2 C14_2 1_555 1_555
C27_2 C16_2 1_555 1_555
C41_2 C25_2 1_555 1_555
C43_2 C27_2 1_555 1_555
H25_2 C40_2 1_555 1_555
H26_2 C41_2 1_555 1_555
H27_2 C43_2 1_555 1_555
H28_2 C42_2 1_555 1_555
C49_2 C40_2 1_555 1_555
C50_2 C42_2 1_555 1_555
C54_2 C49_2 1_555 1_555
C55_2 C50_2 1_555 1_555
C61_2 C54_2 1_555 1_555
C62_2 C55_2 1_555 1_555
C63_2 C55_2 1_555 1_555
C64_2 C54_2 1_555 1_555
C72_2 C61_2 1_555 1_555
C73_2 C62_2 1_555 1_555
C74_2 C63_2 1_555 1_555
C75_2 C64_2 1_555 1_555
H36_2 C72_2 1_555 1_555
H37_2 C74_2 1_555 1_555
H38_2 C75_2 1_555 1_555
H39_2 C73_2 1_555 1_555
C83_2 C72_2 1_555 1_555
C84_2 C73_2 1_555 1_555
H47_2 C83_2 1_555 1_555
H50_2 C84_2 1_555 1_555
C41_2 C49_2 1_555 1_555
C43_2 C50_2 1_555 1_555
C61_2 C62_2 1_555 1_555
C63_2 C64_2 1_555 1_555
C83_2 C84_2 1_555 1_555
O38_2 Fe6_2 1_555 1_555
O39_2 Fe6_2 1_555 1_555
O44_2 Fe6_2 1_555 1_555
H48_2 C85_2 1_555 1_555
H49_2 C86_2 1_555 1_555
C85_2 C86_2 1_555 1_555
Fe10 O26_2 1_555 1_555
O9_2 Fe8 1_555 1_555
O34 C15_2 1_555 1_555
C15_2 O9_2 1_555 1_555
C26_2 C15_2 1_555 1_555
C34_2 C26_2 1_555 1_555
H19_2 C34_2 1_555 1_555
Fe10_2 O26_3 1_555 1_555
O31 C15_3 1_555 1_555
C15_3 O18 1_555 1_555
C26_3 C15_3 1_555 1_555
C34_3 C26_3 1_555 1_555
H19_3 C34_3 1_555 1_555
Fe14 O24_3 1_555 1_555
O7_3 Fe8 1_555 1_555
O24_3 C14_3 1_555 1_555
O43_3 Fe8 1_555 1_555
H13_3 O43_3 1_555 1_555
H14_3 O43_3 1_555 1_555
C13_3 O7_3 1_555 1_555
C14_3 O8_3 1_555 1_555
C16_3 O19_2 1_555 1_555
C24_3 C13_3 1_555 1_555
C25_3 C14_3 1_555 1_555
C27_3 C16_3 1_555 1_555
C33_3 C24_3 1_555 1_555
H18_3 C33_3 1_555 1_555
C40_3 C24_3 1_555 1_555
C41_3 C25_3 1_555 1_555
C43_3 C27_3 1_555 1_555
H25_3 C40_3 1_555 1_555
H26_3 C41_3 1_555 1_555
H27_3 C43_3 1_555 1_555
H28_3 C42_3 1_555 1_555
C49_3 C40_3 1_555 1_555
C50_3 C42_3 1_555 1_555
C54_3 C49_3 1_555 1_555
C55_3 C50_3 1_555 1_555
C61_3 C54_3 1_555 1_555
C62_3 C55_3 1_555 1_555
C63_3 C55_3 1_555 1_555
C64_3 C54_3 1_555 1_555
C72_3 C61_3 1_555 1_555
C73_3 C62_3 1_555 1_555
C74_3 C63_3 1_555 1_555
C75_3 C64_3 1_555 1_555
H36_3 C72_3 1_555 1_555
H37_3 C74_3 1_555 1_555
H38_3 C75_3 1_555 1_555
H39_3 C73_3 1_555 1_555
C83_3 C72_3 1_555 1_555
C84_3 C73_3 1_555 1_555
H47_3 C83_3 1_555 1_555
H50_3 C84_3 1_555 1_555
O35 C13_3 1_555 1_555
C25_3 C33_3 1_555 1_555
C41_3 C49_3 1_555 1_555
C43_3 C50_3 1_555 1_555
C61_3 C62_3 1_555 1_555
C63_3 C64_3 1_555 1_555
C83_3 C84_3 1_555 1_555
O38_3 Fe13 1_555 1_555
O39_3 Fe13 1_555 1_555
O44_3 Fe13 1_555 1_555
H48_3 C85_3 1_555 1_555
H49_3 C86_3 1_555 1_555
C85_3 C86_3 1_555 1_555
O7_4 Fe7 1_555 1_555
O18_2 Fe7 1_555 1_555
O43_4 Fe7 1_555 1_555
H13_4 O43_4 1_555 1_555
H14_4 O43_4 1_555 1_555
C13_4 O7_4 1_555 1_555
C24_4 C13_4 1_555 1_555
C33_4 C24_4 1_555 1_555
H18_4 C33_4 1_555 1_555
O32 C13_4 1_555 1_555
O44_4 Fe10 1_555 1_555
H48_4 C85_4 1_555 1_555
H49_4 C86_4 1_555 1_555
C85_4 C86_4 1_555 1_555
C14_4 O8_4 1_555 1_555
C16_4 O10_2 1_555 1_555
C25_4 C14_4 1_555 1_555
C27_4 C16_4 1_555 1_555
C41_4 C25_4 1_555 1_555
C43_4 C27_4 1_555 1_555
H25_4 C40_4 1_555 1_555
H26_4 C41_4 1_555 1_555
H27_4 C43_4 1_555 1_555
H28_4 C42_4 1_555 1_555
C49_4 C40_4 1_555 1_555
C50_4 C42_4 1_555 1_555
C54_4 C49_4 1_555 1_555
C55_4 C50_4 1_555 1_555
C61_4 C54_4 1_555 1_555
C62_4 C55_4 1_555 1_555
C63_4 C55_4 1_555 1_555
C64_4 C54_4 1_555 1_555
C72_4 C61_4 1_555 1_555
C73_4 C62_4 1_555 1_555
C74_4 C63_4 1_555 1_555
C75_4 C64_4 1_555 1_555
H36_4 C72_4 1_555 1_555
H37_4 C74_4 1_555 1_555
H38_4 C75_4 1_555 1_555
H39_4 C73_4 1_555 1_555
C83_4 C72_4 1_555 1_555
C84_4 C73_4 1_555 1_555
H47_4 C83_4 1_555 1_555
H50_4 C84_4 1_555 1_555
C41_4 C49_4 1_555 1_555
C43_4 C50_4 1_555 1_555
C61_4 C62_4 1_555 1_555
C63_4 C64_4 1_555 1_555
C83_4 C84_4 1_555 1_555
O9_3 Fe16 1_555 1_555
O36_2 C15_4 1_555 1_555
C15_4 O9_3 1_555 1_555
C26_4 C15_4 1_555 1_555
C34_4 C26_4 1_555 1_555
H19_4 C34_4 1_555 1_555
O9_4 Fe9 1_555 1_555
O36 C15_5 1_555 1_555
C15_5 O9_4 1_555 1_555
C26_5 C15_5 1_555 1_555
C34_5 C26_5 1_555 1_555
H19_5 C34_5 1_555 1_555
O44_5 Fe14 1_555 1_555
H48_5 C85_5 1_555 1_555
H49_5 C86_5 1_555 1_555
C85_5 C86_5 1_555 1_555
O7_5 Fe16 1_555 1_555
O38_3 C14_5 1_555 1_555
O43_5 Fe16 1_555 1_555
H13_5 O43_5 1_555 1_555
H14_5 O43_5 1_555 1_555
C13_5 O7_5 1_555 1_555
C14_5 O8_5 1_555 1_555
C16_5 O19_3 1_555 1_555
C24_5 C13_5 1_555 1_555
C25_5 C14_5 1_555 1_555
C27_5 C16_5 1_555 1_555
C33_5 C24_5 1_555 1_555
H18_5 C33_5 1_555 1_555
C40_5 C24_5 1_555 1_555
C41_5 C25_5 1_555 1_555
C43_5 C27_5 1_555 1_555
H25_5 C40_5 1_555 1_555
H26_5 C41_5 1_555 1_555
H27_5 C43_5 1_555 1_555
H28_5 C42_5 1_555 1_555
C49_5 C40_5 1_555 1_555
C50_5 C42_5 1_555 1_555
C54_5 C49_5 1_555 1_555
C55_5 C50_5 1_555 1_555
C61_5 C54_5 1_555 1_555
C62_5 C55_5 1_555 1_555
C63_5 C55_5 1_555 1_555
C64_5 C54_5 1_555 1_555
C72_5 C61_5 1_555 1_555
C73_5 C62_5 1_555 1_555
C74_5 C63_5 1_555 1_555
C75_5 C64_5 1_555 1_555
H36_5 C72_5 1_555 1_555
H37_5 C74_5 1_555 1_555
H38_5 C75_5 1_555 1_555
H39_5 C73_5 1_555 1_555
C83_5 C72_5 1_555 1_555
C84_5 C73_5 1_555 1_555
H47_5 C83_5 1_555 1_555
H50_5 C84_5 1_555 1_555
O37_2 C13_5 1_555 1_555
C25_5 C33_5 1_555 1_555
C41_5 C49_5 1_555 1_555
C43_5 C50_5 1_555 1_555
C61_5 C62_5 1_555 1_555
C63_5 C64_5 1_555 1_555
C83_5 C84_5 1_555 1_555
O44_6 Fe10_2 1_555 1_555
H48_6 C85_6 1_555 1_555
H49_6 C86_6 1_555 1_555
C85_6 C86_6 1_555 1_555
O33 C15_6 1_555 1_555
O39_3 C16_6 1_555 1_555
C14_6 O8_6 1_555 1_555
C15_6 O18_2 1_555 1_555
C16_6 O19_4 1_555 1_555
C25_6 C14_6 1_555 1_555
C26_6 C15_6 1_555 1_555
C27_6 C16_6 1_555 1_555
C34_6 C26_6 1_555 1_555
H19_6 C34_6 1_555 1_555
C41_6 C25_6 1_555 1_555
C42_6 C26_6 1_555 1_555
C43_6 C27_6 1_555 1_555
H25_6 C40_6 1_555 1_555
H26_6 C41_6 1_555 1_555
H27_6 C43_6 1_555 1_555
H28_6 C42_6 1_555 1_555
C49_6 C40_6 1_555 1_555
C50_6 C42_6 1_555 1_555
C54_6 C49_6 1_555 1_555
C55_6 C50_6 1_555 1_555
C61_6 C54_6 1_555 1_555
C62_6 C55_6 1_555 1_555
C63_6 C55_6 1_555 1_555
C64_6 C54_6 1_555 1_555
C72_6 C61_6 1_555 1_555
C73_6 C62_6 1_555 1_555
C74_6 C63_6 1_555 1_555
C75_6 C64_6 1_555 1_555
H36_6 C72_6 1_555 1_555
H37_6 C74_6 1_555 1_555
H38_6 C75_6 1_555 1_555
H39_6 C73_6 1_555 1_555
C83_6 C72_6 1_555 1_555
C84_6 C73_6 1_555 1_555
H47_6 C83_6 1_555 1_555
H50_6 C84_6 1_555 1_555
C27_6 C34_6 1_555 1_555
C41_6 C49_6 1_555 1_555
C43_6 C50_6 1_555 1_555
C61_6 C62_6 1_555 1_555
C63_6 C64_6 1_555 1_555
C83_6 C84_6 1_555 1_555
O7_6 Fe9 1_555 1_555
O43_6 Fe9 1_555 1_555
H13_6 O43_6 1_555 1_555
H14_6 O43_6 1_555 1_555
C13_6 O7_6 1_555 1_555
C24_6 C13_6 1_555 1_555
C33_6 C24_6 1_555 1_555
H18_6 C33_6 1_555 1_555
O37 C13_6 1_555 1_555

#END
