
###############################################################################
#
# This file contains modified crystal structure data generated from the
# MOF subset of the Cambridge Structural Database (CSD) v543 
# hosted by the Cambridge Crystallographic Data Centre (CCDC).
#
# This work is licensed under the Creative Commons
# Attribution-NonCommercial-ShareAlike 4.0 International License.
# To view a copy of this license, visit
# http://creativecommons.org/licenses/by-nc-sa/4.0/
# or send a letter to
# Creative Commons, PO Box 1866, Mountain View, CA 94042, USA.
#
# CIF created using the CSD Python API on 29 September 2022
# The structure has been converted into the P1 space group
# The structure has a 3D framework
# The original CSD entry FUTTOF is in the hexagonal crystal system
# The framework has been calculated to contain at least 10.0% void space
# The void calculation uses a probe of radius 1.32A, grid spacing 0.4
# The framework is charged, counterions have been retained in the structure
#
###############################################################################

data_FUTTOF
_chemical_formula_moiety         '(C60 H48 N4 O36 Zn4 4-)n'
_symmetry_cell_setting           triclinic
_symmetry_space_group_name_H-M   'P 1'
_symmetry_Int_Tables_number      1
_space_group_name_Hall           'P 1'
loop_
_symmetry_equiv_pos_site_id
_symmetry_equiv_pos_as_xyz
1 x,y,z
_cell_length_a                   18.018(3)
_cell_length_b                   18.018(3)
_cell_length_c                   20.174(4)
_cell_angle_alpha                90
_cell_angle_beta                 90
_cell_angle_gamma                120
_cell_volume                     5671.99
loop_
_atom_site_label
_atom_site_type_symbol
_atom_site_fract_x
_atom_site_fract_y
_atom_site_fract_z
O16 O 0.2227(4) 0.6337(3) 0.45307(16)
O17 O 0.1716(4) 0.5108(3) 0.3971(2)
O18 O 0.0167(4) 0.3913(3) 0.4135(2)
H23 H 0.0668 0.4142 0.3983
C27 C 0.1645(6) 0.5585(5) 0.4379(3)
C28 C 0.0774(5) 0.5279(4) 0.4706(3)
C29 C 0.0102(5) 0.4481(4) 0.4569(2)
C30 C 0.0685(4) 0.5820(3) 0.5146(2)
H24 H 0.1148 0.6374 0.5244
Zn4 Zn 0.3333 0.6667 0.41426(4)
Zn1 Zn 0.6667 0.3333 0.58574(4)
N1 N 0.6667 0.3333 0.6860(3)
O1 O 0.6337(3) 0.4110(2) 0.54693(16)
O2 O 0.5108(3) 0.3392(3) 0.6029(2)
O3 O 0.3913(3) 0.3746(3) 0.5865(2)
H1 H 0.4142 0.3474 0.6017
C1 C 0.5585(5) 0.3940(4) 0.5621(3)
C2 C 0.5279(4) 0.4505(3) 0.5294(3)
C3 C 0.4481(4) 0.4379(3) 0.5431(2)
C4 C 0.5820(3) 0.5135(3) 0.4854(2)
H2 H 0.6374 0.5226 0.4756
C5 C 0.5854(3) 0.2607(3) 0.7121(2)
H3 H 0.5788 0.2059 0.6957
H4 H 0.5362 0.2656 0.6957
C6 C 0.7393(3) 0.3247(4) 0.7121(2)
H5 H 0.7941 0.3729 0.6957
H6 H 0.7344 0.2706 0.6957
C7 C 0.6753(4) 0.4146(3) 0.7121(2)
H7 H 0.6271 0.4212 0.6957
H8 H 0.7294 0.4638 0.6957
N2 N 0.6667 0.3333 0.8140(3)
C8 C 0.5854(3) 0.2607(3) 0.7879(2)
H9 H 0.5788 0.2059 0.8043
H10 H 0.5362 0.2656 0.8043
C9 C 0.7393(3) 0.3247(4) 0.7879(2)
H11 H 0.7941 0.3729 0.8043
H12 H 0.7344 0.2706 0.8043
C10 C 0.6753(4) 0.4146(3) 0.7879(2)
H13 H 0.6271 0.4212 0.8043
H14 H 0.7294 0.4638 0.8043
O4 O 0.3663(3) 0.5890(2) 0.45307(16)
O5 O 0.4892(3) 0.6608(3) 0.3971(2)
O6 O 0.6087(3) 0.6254(3) 0.4135(2)
H15 H 0.5858 0.6526 0.3983
C11 C 0.4415(5) 0.6060(4) 0.4379(3)
C12 C 0.4721(4) 0.5495(3) 0.4706(3)
C13 C 0.5519(4) 0.5621(3) 0.4569(2)
C14 C 0.4180(3) 0.4865(3) 0.5146(2)
H16 H 0.3626 0.4774 0.5244
O7 O 0.5890(2) 0.2227(4) 0.54693(16)
O8 O 0.6608(3) 0.1716(4) 0.6029(2)
O9 O 0.6254(3) 0.0167(4) 0.5865(2)
H17 H 0.6526 0.0668 0.6017
C15 C 0.6060(4) 0.1645(6) 0.5621(3)
C16 C 0.5495(3) 0.0774(5) 0.5294(3)
C17 C 0.5621(3) 0.0102(5) 0.5431(2)
C18 C 0.4865(3) 0.0685(4) 0.4854(2)
H18 H 0.4774 0.1148 0.4756
O13 O 0.7773(4) 0.3663(3) 0.54693(16)
O14 O 0.8284(4) 0.4892(3) 0.6029(2)
O15 O 0.9833(4) 0.6087(3) 0.5865(2)
H21 H 0.9332 0.5858 0.6017
C23 C 0.8355(6) 0.4415(5) 0.5621(3)
C24 C 0.9226(5) 0.4721(4) 0.5294(3)
C25 C 0.9898(5) 0.5519(4) 0.5431(2)
C26 C 0.9315(4) 0.4180(3) 0.4854(2)
H22 H 0.8852 0.3626 0.4756
Zn5 Zn 0.6667 0.3333 0.91426(4)
N3 N 0.3333 0.6667 0.3140(3)
O19 O 0.4110(2) 0.7773(4) 0.45307(16)
O11 O 0.3392(3) 0.8284(4) 0.3971(2)
O12 O 0.3746(3) 0.9833(4) 0.4135(2)
H19 H 0.3474 0.9332 0.3983
C19 C 0.3940(4) 0.8355(6) 0.4379(3)
C20 C 0.4505(3) 0.9226(5) 0.4706(3)
C21 C 0.4379(3) 0.9898(5) 0.4569(2)
C22 C 0.5135(3) 0.9315(4) 0.5146(2)
H20 H 0.5226 0.8852 0.5244
C22_2 C 0.4865(3) 0.0685(4) 0.0146(2)
H20_2 H 0.4774 0.1148 0.0244
O10 O 0.5890(2) 0.2227(4) 0.95307(16)
O11_2 O 0.6608(3) 0.1716(4) 0.8971(2)
O12_2 O 0.6254(3) 0.0167(4) 0.9135(2)
H19_2 H 0.6526 0.0668 0.8983
C19_2 C 0.6060(4) 0.1645(6) 0.9379(3)
C20_2 C 0.5495(3) 0.0774(5) 0.9706(3)
C21_2 C 0.5621(3) 0.0102(5) 0.9569(2)
Zn1_2 Zn 0.3333 0.6667 0.08574(4)
N1_2 N 0.3333 0.6667 0.1860(3)
O1_2 O 0.3663(3) 0.5890(2) 0.04693(16)
O2_2 O 0.4892(3) 0.6608(3) 0.1029(2)
O3_2 O 0.6087(3) 0.6254(3) 0.0865(2)
H1_2 H 0.5858 0.6526 0.1017
C1_2 C 0.4415(5) 0.6060(4) 0.0621(3)
C2_2 C 0.4721(4) 0.5495(3) 0.0294(3)
C3_2 C 0.5519(4) 0.5621(3) 0.0431(2)
C5_2 C 0.4146(3) 0.7393(3) 0.2121(2)
H3_2 H 0.4212 0.7941 0.1957
H4_2 H 0.4638 0.7344 0.1957
C6_2 C 0.2607(3) 0.6753(4) 0.2121(2)
H5_2 H 0.2059 0.6271 0.1957
H6_2 H 0.2656 0.7294 0.1957
C7_2 C 0.3247(4) 0.5854(3) 0.2121(2)
H7_2 H 0.3729 0.5788 0.1957
H8_2 H 0.2706 0.5362 0.1957
C8_2 C 0.4146(3) 0.7393(3) 0.2879(2)
H9_2 H 0.4212 0.7941 0.3043
H10_2 H 0.4638 0.7344 0.3043
C9_2 C 0.2607(3) 0.6753(4) 0.2879(2)
H11_2 H 0.2059 0.6271 0.3043
H12_2 H 0.2656 0.7294 0.3043
C10_2 C 0.3247(4) 0.5854(3) 0.2879(2)
H13_2 H 0.3729 0.5788 0.3043
H14_2 H 0.2706 0.5362 0.3043
C14_2 C 0.5820(3) 0.5135(3) 0.0146(2)
H16_2 H 0.6374 0.5226 0.0244
O7_2 O 0.4110(2) 0.7773(4) 0.04693(16)
O8_2 O 0.3392(3) 0.8284(4) 0.1029(2)
O9_2 O 0.3746(3) 0.9833(4) 0.0865(2)
H17_2 H 0.3474 0.9332 0.1017
C15_2 C 0.3940(4) 0.8355(6) 0.0621(3)
C16_2 C 0.4505(3) 0.9226(5) 0.0294(3)
C17_2 C 0.4379(3) 0.9898(5) 0.0431(2)
O13_2 O 0.2227(4) 0.6337(3) 0.04693(16)
O14_2 O 0.1716(4) 0.5108(3) 0.1029(2)
O15_2 O 0.0167(4) 0.3913(3) 0.0865(2)
H21_2 H 0.0668 0.4142 0.1017
C23_2 C 0.1645(6) 0.5585(5) 0.0621(3)
C24_2 C 0.0774(5) 0.5279(4) 0.0294(3)
C25_2 C 0.0102(5) 0.4481(4) 0.0431(2)
C4_2 C 0.4180(3) 0.4865(3) 0.9854(2)
H2_2 H 0.3626 0.4774 0.9756
O4_2 O 0.6337(3) 0.4110(2) 0.95307(16)
O5_2 O 0.5108(3) 0.3392(3) 0.8971(2)
O6_2 O 0.3913(3) 0.3746(3) 0.9135(2)
H15_2 H 0.4142 0.3474 0.8983
C11_2 C 0.5585(5) 0.3940(4) 0.9379(3)
C12_2 C 0.5279(4) 0.4505(3) 0.9706(3)
C13_2 C 0.4481(4) 0.4379(3) 0.9569(2)
C18_2 C 0.5135(3) 0.9315(4) 0.9854(2)
H18_2 H 0.5226 0.8852 0.9756
C26_2 C 0.0685(4) 0.5820(3) 0.9854(2)
H22_2 H 0.1148 0.6374 0.9756
O20 O 0.7773(4) 0.3663(3) 0.95307(16)
C30_2 C 0.9315(4) 0.4180(3) 0.0146(2)
H24_2 H 0.8852 0.3626 0.0244
O17_2 O 0.8284(4) 0.4892(3) 0.8971(2)
O18_2 O 0.9833(4) 0.6087(3) 0.9135(2)
H23_2 H 0.9332 0.5858 0.8983
C27_2 C 0.8355(6) 0.4415(5) 0.9379(3)
C28_2 C 0.9226(5) 0.4721(4) 0.9706(3)
C29_2 C 0.9898(5) 0.5519(4) 0.9569(2)
loop_
_geom_bond_atom_site_label_1
_geom_bond_atom_site_label_2
_geom_bond_site_symmetry_1
_geom_bond_site_symmetry_2
O16 C27 1_555 1_555
O17 C27 1_555 1_555
O18 H23 1_555 1_555
C27 C28 1_555 1_555
C28 C29 1_555 1_555
H24 C30 1_555 1_555
Zn4 O16 1_555 1_555
O18 C29 1_555 1_555
C28 C30 1_555 1_555
Zn1 N1 1_555 1_555
N1 C5 1_555 1_555
O1 Zn1 1_555 1_555
O2 C1 1_555 1_555
O3 H1 1_555 1_555
C1 O1 1_555 1_555
C2 C1 1_555 1_555
C3 O3 1_555 1_555
C4 C2 1_555 1_555
H2 C4 1_555 1_555
C5 H3 1_555 1_555
H4 C5 1_555 1_555
C6 N1 1_555 1_555
H5 C6 1_555 1_555
H6 C6 1_555 1_555
C7 N1 1_555 1_555
H7 C7 1_555 1_555
H8 C7 1_555 1_555
N2 C8 1_555 1_555
C8 C5 1_555 1_555
H9 C8 1_555 1_555
H10 C8 1_555 1_555
C9 C6 1_555 1_555
H11 C9 1_555 1_555
H12 C9 1_555 1_555
C10 C7 1_555 1_555
H13 C10 1_555 1_555
H14 C10 1_555 1_555
O4 C11 1_555 1_555
O5 C11 1_555 1_555
O6 H15 1_555 1_555
C11 C12 1_555 1_555
C12 C13 1_555 1_555
C13 C4 1_555 1_555
C14 C3 1_555 1_555
H16 C14 1_555 1_555
O7 Zn1 1_555 1_555
O8 C15 1_555 1_555
O9 H17 1_555 1_555
C15 O7 1_555 1_555
C16 C15 1_555 1_555
C17 O9 1_555 1_555
C18 C16 1_555 1_555
H18 C18 1_555 1_555
O13 Zn1 1_555 1_555
O14 C23 1_555 1_555
O15 H21 1_555 1_555
C23 O13 1_555 1_555
C24 C23 1_555 1_555
C25 O15 1_555 1_555
C26 C24 1_555 1_555
H22 C26 1_555 1_555
Zn4 O4 1_555 1_555
Zn5 N2 1_555 1_555
N3 Zn4 1_555 1_555
O19 Zn4 1_555 1_555
C2 C3 1_555 1_555
N2 C9 1_555 1_555
N2 C10 1_555 1_555
O6 C13 1_555 1_555
C12 C14 1_555 1_555
C16 C17 1_555 1_555
C24 C25 1_555 1_555
O19 C19 1_555 1_555
O11 C19 1_555 1_555
O12 H19 1_555 1_555
C19 C20 1_555 1_555
C20 C21 1_555 1_555
H20 C22 1_555 1_555
O12 C21 1_555 1_555
C20 C22 1_555 1_555
H20_2 C22_2 1_555 1_555
O10 C19_2 1_555 1_555
O11_2 C19_2 1_555 1_555
O12_2 H19_2 1_555 1_555
C19_2 C20_2 1_555 1_555
C20_2 C21_2 1_555 1_555
Zn5 O10 1_555 1_555
O12_2 C21_2 1_555 1_555
Zn1_2 N1_2 1_555 1_555
N1_2 C5_2 1_555 1_555
O1_2 Zn1_2 1_555 1_555
O2_2 C1_2 1_555 1_555
O3_2 H1_2 1_555 1_555
C1_2 O1_2 1_555 1_555
C2_2 C1_2 1_555 1_555
C3_2 O3_2 1_555 1_555
C5_2 H3_2 1_555 1_555
H4_2 C5_2 1_555 1_555
C6_2 N1_2 1_555 1_555
H5_2 C6_2 1_555 1_555
H6_2 C6_2 1_555 1_555
C7_2 N1_2 1_555 1_555
H7_2 C7_2 1_555 1_555
H8_2 C7_2 1_555 1_555
N3 C8_2 1_555 1_555
C8_2 C5_2 1_555 1_555
H9_2 C8_2 1_555 1_555
H10_2 C8_2 1_555 1_555
C9_2 C6_2 1_555 1_555
H11_2 C9_2 1_555 1_555
H12_2 C9_2 1_555 1_555
C10_2 C7_2 1_555 1_555
H13_2 C10_2 1_555 1_555
H14_2 C10_2 1_555 1_555
C14_2 C3_2 1_555 1_555
H16_2 C14_2 1_555 1_555
O7_2 Zn1_2 1_555 1_555
O8_2 C15_2 1_555 1_555
O9_2 H17_2 1_555 1_555
C15_2 O7_2 1_555 1_555
C16_2 C15_2 1_555 1_555
C17_2 O9_2 1_555 1_555
O13_2 Zn1_2 1_555 1_555
O14_2 C23_2 1_555 1_555
O15_2 H21_2 1_555 1_555
C23_2 O13_2 1_555 1_555
C24_2 C23_2 1_555 1_555
C25_2 O15_2 1_555 1_555
C2_2 C3_2 1_555 1_555
N3 C9_2 1_555 1_555
N3 C10_2 1_555 1_555
C16_2 C17_2 1_555 1_555
C24_2 C25_2 1_555 1_555
H2_2 C4_2 1_555 1_555
O4_2 C11_2 1_555 1_555
O5_2 C11_2 1_555 1_555
O6_2 H15_2 1_555 1_555
C11_2 C12_2 1_555 1_555
C12_2 C13_2 1_555 1_555
C13_2 C4_2 1_555 1_555
H18_2 C18_2 1_555 1_555
H22_2 C26_2 1_555 1_555
Zn5 O4_2 1_555 1_555
O20 Zn5 1_555 1_555
O6_2 C13_2 1_555 1_555
H24_2 C30_2 1_555 1_555
O20 C27_2 1_555 1_555
O17_2 C27_2 1_555 1_555
O18_2 H23_2 1_555 1_555
C27_2 C28_2 1_555 1_555
C28_2 C29_2 1_555 1_555
O18_2 C29_2 1_555 1_555

#END
