
###############################################################################
#
# This file contains modified crystal structure data generated from the
# MOF subset of the Cambridge Structural Database (CSD) v543 
# hosted by the Cambridge Crystallographic Data Centre (CCDC).
#
# This work is licensed under the Creative Commons
# Attribution-NonCommercial-ShareAlike 4.0 International License.
# To view a copy of this license, visit
# http://creativecommons.org/licenses/by-nc-sa/4.0/
# or send a letter to
# Creative Commons, PO Box 1866, Mountain View, CA 94042, USA.
#
# CIF created using the CSD Python API on 29 September 2022
# The structure has been converted into the P1 space group
# The structure has a 3D framework
# The original CSD entry FUTYOK is in the monoclinic crystal system
# The framework has been calculated to contain at least 10.0% void space
# The void calculation uses a probe of radius 1.32A, grid spacing 0.4
#
###############################################################################

data_FUTYOK
_chemical_formula_moiety         '(C52 H60 N4 O24 Zn4)n'
_symmetry_cell_setting           triclinic
_symmetry_space_group_name_H-M   'P 1'
_symmetry_Int_Tables_number      1
_space_group_name_Hall           'P 1'
loop_
_symmetry_equiv_pos_site_id
_symmetry_equiv_pos_as_xyz
1 x,y,z
_cell_length_a                   9.509(3)
_cell_length_b                   15.180(4)
_cell_length_c                   12.246(3)
_cell_angle_alpha                90
_cell_angle_beta                 93.835(4)
_cell_angle_gamma                90
_cell_volume                     1763.71
loop_
_atom_site_label
_atom_site_type_symbol
_atom_site_fract_x
_atom_site_fract_y
_atom_site_fract_z
Zn2 Zn 0.14215(2) 0.078275(16) 0.447606(19)
O1 O 0.97616(15) 0.07106(10) 0.34236(12)
O2 O 0.31380(16) 0.06654(10) 0.37070(13)
O3 O 0.82106(16) 0.02645(11) 0.45990(14)
O4 O 0.58776(16) 0.32560(11) 0.04185(13)
C1 C 0.5192(2) 0.20645(16) 0.20338(19)
H1 H 0.4469 0.2400 0.1694
C2 C 0.3405(2) 0.13600(15) 0.31792(18)
O5 O 0.25548(17) 0.19676(13) 0.29921(16)
C3 C 0.4880(2) 0.14399(15) 0.28116(18)
C4 C 0.7356(2) 0.10802(15) 0.30724(17)
C5 C 0.5962(2) 0.09459(14) 0.33271(17)
H2 H 0.5757 0.0524 0.3844
C6 C 0.6576(2) 0.21942(16) 0.17573(19)
C7 C 0.8530(2) 0.06370(14) 0.37421(17)
O6 O 0.81628(19) 0.31415(15) 0.08961(18)
C8 C 0.7654(2) 0.16964(15) 0.22781(19)
H3 H 0.8578 0.1776 0.2094
C9 C 0.6919(2) 0.29087(17) 0.0968(2)
O9 O 0.08776(16) 0.17440(11) 0.54185(13)
Zn4 Zn 0.64215(2) 0.421725(16) 0.947606(19)
Zn3 Zn 0.85785(2) 0.921725(16) 0.552394(19)
O8 O 0.17894(16) 0.97355(11) 0.54010(14)
Zn1 Zn 0.35785(2) 0.578275(16) 0.052394(19)
O2_2 O 0.18620(16) 0.56654(10) 0.12930(13)
H1_2 H 0.0531 0.7400 0.3306
C2_2 C 0.1595(2) 0.63600(15) 0.18208(18)
O5_2 O 0.24452(17) 0.69676(13) 0.20079(16)
C3_2 C 0.0120(2) 0.64399(15) 0.21884(18)
O7 O 0.52384(15) 0.57106(10) 0.15764(12)
O8_2 O 0.32106(16) 0.47355(11) 0.95990(14)
O9_2 O 0.41224(16) 0.67440(11) 0.95815(13)
O3_2 O 0.67894(16) 0.52645(11) 0.04010(14)
O4_2 O 0.91224(16) 0.82560(11) 0.45815(13)
C1_2 C 0.9808(2) 0.70645(16) 0.29662(19)
C4_2 C 0.7644(2) 0.60802(15) 0.19276(17)
C5_2 C 0.9038(2) 0.59459(14) 0.16729(17)
H2_2 H 0.9243 0.5524 0.1156
C6_2 C 0.8424(2) 0.71942(16) 0.32427(19)
C7_2 C 0.6470(2) 0.56370(14) 0.12579(17)
O6_2 O 0.68372(19) 0.81415(15) 0.41039(18)
C8_2 C 0.7346(2) 0.66964(15) 0.27219(19)
H3_2 H 0.6422 0.6776 0.2906
C9_2 C 0.8081(2) 0.79087(17) 0.4032(2)
O7_2 O 0.02384(15) 0.92894(10) 0.65764(12)
O2_3 O 0.68620(16) 0.93346(10) 0.62930(13)
C1_3 C 0.4808(2) 0.79355(16) 0.79662(19)
H1_3 H 0.5531 0.7600 0.8306
C2_3 C 0.6595(2) 0.86400(15) 0.68208(18)
O5_3 O 0.74452(17) 0.80324(13) 0.70079(16)
C3_3 C 0.5120(2) 0.85601(15) 0.71884(18)
C4_3 C 0.2644(2) 0.89198(15) 0.69276(17)
C5_3 C 0.4038(2) 0.90541(14) 0.66729(17)
H2_3 H 0.4243 0.9476 0.6156
C6_3 C 0.3424(2) 0.78058(16) 0.82427(19)
C7_3 C 0.1470(2) 0.93630(14) 0.62579(17)
O6_3 O 0.18372(19) 0.68585(15) 0.91039(18)
C8_3 C 0.2346(2) 0.83036(15) 0.77219(19)
H3_3 H 0.1422 0.8224 0.7906
C9_3 C 0.3081(2) 0.70913(17) 0.9032(2)
O1_2 O 0.47616(15) 0.42894(10) 0.84236(12)
C1_4 C 0.0192(2) 0.29355(16) 0.70338(19)
C4_4 C 0.2356(2) 0.39198(15) 0.80724(17)
C5_4 C 0.0962(2) 0.40541(14) 0.83271(17)
H2_4 H 0.0757 0.4476 0.8844
C6_4 C 0.1576(2) 0.28058(16) 0.67573(19)
C7_4 C 0.3530(2) 0.43630(14) 0.87421(17)
O6_4 O 0.31628(19) 0.18585(15) 0.58961(18)
C8_4 C 0.2654(2) 0.33036(15) 0.72781(19)
H3_4 H 0.3578 0.3224 0.7094
C9_4 C 0.1919(2) 0.20913(17) 0.5968(2)
O2_4 O 0.81380(16) 0.43346(10) 0.87070(13)
H1_4 H 0.9469 0.2600 0.6694
C2_4 C 0.8405(2) 0.36400(15) 0.81792(18)
O5_4 O 0.75548(17) 0.30324(13) 0.79921(16)
C3_4 C 0.9880(2) 0.35601(15) 0.78116(18)
N1 N 0.5723(3) 0.18204(17) 0.7078(2)
H4 H 0.4836 0.1903 0.6792
H5 H 0.6016 0.2330 0.7392
C10 C 0.6632(3) 0.1613(2) 0.6183(3)
H6 H 0.6270 0.1098 0.5788
H7 H 0.7578 0.1480 0.6484
C11 C 0.6677(4) 0.2374(3) 0.5419(3)
H8 H 0.5754 0.2473 0.5075
H9 H 0.7323 0.2249 0.4869
H10 H 0.6983 0.2891 0.5819
C12 C 0.5707(5) 0.1136(2) 0.7933(3)
H11 H 0.6638 0.1079 0.8302
H12 H 0.5448 0.0572 0.7604
C13 C 0.4660(5) 0.1389(3) 0.8743(3)
H13 H 0.4957 0.1926 0.9103
H14 H 0.4603 0.0930 0.9277
H15 H 0.3752 0.1474 0.8368
H4_2 H 0.0164 0.6903 0.8208
C13_2 C 0.0340(5) 0.6389(3) 0.6257(3)
H13_2 H 0.0043 0.6926 0.5897
H14_2 H 0.0397 0.5930 0.5723
H15_2 H 0.1248 0.6474 0.6632
H9_2 H 0.7677 0.7249 0.0131
N1_2 N 0.9277(3) 0.68204(17) 0.7922(2)
H5_2 H 0.8984 0.7330 0.7608
C10_2 C 0.8368(3) 0.6613(2) 0.8817(3)
H6_2 H 0.8730 0.6098 0.9212
H7_2 H 0.7422 0.6480 0.8516
C11_2 C 0.8323(4) 0.7374(3) 0.9581(3)
H8_2 H 0.9246 0.7473 0.9925
H10_2 H 0.8017 0.7891 0.9181
C12_2 C 0.9293(5) 0.6136(2) 0.7067(3)
H11_2 H 0.8362 0.6079 0.6698
H12_2 H 0.9552 0.5572 0.7396
N1_3 N 0.4277(3) 0.81796(17) 0.2922(2)
H4_3 H 0.5164 0.8097 0.3208
H5_3 H 0.3984 0.7670 0.2608
C10_3 C 0.3368(3) 0.8387(2) 0.3817(3)
H6_3 H 0.3730 0.8902 0.4212
H7_3 H 0.2422 0.8520 0.3516
C11_3 C 0.3323(4) 0.7626(3) 0.4581(3)
H8_3 H 0.4246 0.7527 0.4925
H9_3 H 0.2677 0.7751 0.5131
H10_3 H 0.3017 0.7109 0.4181
C12_3 C 0.4293(5) 0.8864(2) 0.2067(3)
H11_3 H 0.3362 0.8921 0.1698
H12_3 H 0.4552 0.9428 0.2396
C13_3 C 0.5340(5) 0.8611(3) 0.1257(3)
H13_3 H 0.5043 0.8074 0.0897
H14_3 H 0.5397 0.9070 0.0723
H15_3 H 0.6248 0.8526 0.1632
N1_4 N 0.0723(3) 0.31796(17) 0.2078(2)
H5_4 H 0.1016 0.2670 0.2392
C10_4 C 0.1632(3) 0.3387(2) 0.1183(3)
H6_4 H 0.1270 0.3902 0.0788
H7_4 H 0.2578 0.3520 0.1484
C11_4 C 0.1677(4) 0.2626(3) 0.0419(3)
H8_4 H 0.0754 0.2527 0.0075
H10_4 H 0.1983 0.2109 0.0819
C12_4 C 0.0707(5) 0.3864(2) 0.2933(3)
H11_4 H 0.1638 0.3921 0.3302
H12_4 H 0.0448 0.4428 0.2604
H9_4 H 0.2323 0.2751 0.9869
H4_4 H 0.9836 0.3097 0.1792
C13_4 C 0.9660(5) 0.3611(3) 0.3743(3)
H13_4 H 0.9957 0.3074 0.4103
H14_4 H 0.9603 0.4070 0.4277
H15_4 H 0.8752 0.3526 0.3368
loop_
_geom_bond_atom_site_label_1
_geom_bond_atom_site_label_2
_geom_bond_site_symmetry_1
_geom_bond_site_symmetry_2
Zn2 O2 1_555 1_555
O1 C7 1_555 1_555
O2 C2 1_555 1_555
O3 C7 1_555 1_555
O4 C9 1_555 1_555
C1 H1 1_555 1_555
C2 O5 1_555 1_555
C3 C1 1_555 1_555
C4 C5 1_555 1_555
C5 C3 1_555 1_555
H2 C5 1_555 1_555
C6 C1 1_555 1_555
C7 C4 1_555 1_555
O6 C9 1_555 1_555
C8 C4 1_555 1_555
H3 C8 1_555 1_555
C9 C6 1_555 1_555
O9 Zn2 1_555 1_555
C2 C3 1_555 1_555
C6 C8 1_555 1_555
Zn1 O2_2 1_555 1_555
O2_2 C2_2 1_555 1_555
C2_2 O5_2 1_555 1_555
O7 Zn1 1_555 1_555
C2_2 C3_2 1_555 1_555
O7 C7_2 1_555 1_555
O3_2 C7_2 1_555 1_555
O4_2 C9_2 1_555 1_555
C4_2 C5_2 1_555 1_555
H2_2 C5_2 1_555 1_555
C6_2 C1_2 1_555 1_555
C7_2 C4_2 1_555 1_555
O6_2 C9_2 1_555 1_555
C8_2 C4_2 1_555 1_555
H3_2 C8_2 1_555 1_555
C9_2 C6_2 1_555 1_555
Zn3 O4_2 1_555 1_555
C6_2 C8_2 1_555 1_555
Zn3 O2_3 1_555 1_555
O7_2 C7_3 1_555 1_555
O2_3 C2_3 1_555 1_555
O8 C7_3 1_555 1_555
O9_2 C9_3 1_555 1_555
C1_3 H1_3 1_555 1_555
C2_3 O5_3 1_555 1_555
C3_3 C1_3 1_555 1_555
C4_3 C5_3 1_555 1_555
C5_3 C3_3 1_555 1_555
H2_3 C5_3 1_555 1_555
C6_3 C1_3 1_555 1_555
C7_3 C4_3 1_555 1_555
O6_3 C9_3 1_555 1_555
C8_3 C4_3 1_555 1_555
H3_3 C8_3 1_555 1_555
C9_3 C6_3 1_555 1_555
C2_3 C3_3 1_555 1_555
C6_3 C8_3 1_555 1_555
O1_2 C7_4 1_555 1_555
O8_2 C7_4 1_555 1_555
O9 C9_4 1_555 1_555
C4_4 C5_4 1_555 1_555
H2_4 C5_4 1_555 1_555
C6_4 C1_4 1_555 1_555
C7_4 C4_4 1_555 1_555
O6_4 C9_4 1_555 1_555
C8_4 C4_4 1_555 1_555
H3_4 C8_4 1_555 1_555
C9_4 C6_4 1_555 1_555
Zn4 O1_2 1_555 1_555
C6_4 C8_4 1_555 1_555
Zn4 O2_4 1_555 1_555
O2_4 C2_4 1_555 1_555
C2_4 O5_4 1_555 1_555
C2_4 C3_4 1_555 1_555
N1 H4 1_555 1_555
H5 N1 1_555 1_555
C10 N1 1_555 1_555
H6 C10 1_555 1_555
H7 C10 1_555 1_555
C11 C10 1_555 1_555
H8 C11 1_555 1_555
H9 C11 1_555 1_555
H10 C11 1_555 1_555
C12 N1 1_555 1_555
H11 C12 1_555 1_555
H12 C12 1_555 1_555
C13 C12 1_555 1_555
H13 C13 1_555 1_555
H14 C13 1_555 1_555
H15 C13 1_555 1_555
H13_2 C13_2 1_555 1_555
H14_2 C13_2 1_555 1_555
H15_2 C13_2 1_555 1_555
H5_2 N1_2 1_555 1_555
C10_2 N1_2 1_555 1_555
H6_2 C10_2 1_555 1_555
H7_2 C10_2 1_555 1_555
C11_2 C10_2 1_555 1_555
H8_2 C11_2 1_555 1_555
H10_2 C11_2 1_555 1_555
C12_2 N1_2 1_555 1_555
H11_2 C12_2 1_555 1_555
H12_2 C12_2 1_555 1_555
N1_3 H4_3 1_555 1_555
H5_3 N1_3 1_555 1_555
C10_3 N1_3 1_555 1_555
H6_3 C10_3 1_555 1_555
H7_3 C10_3 1_555 1_555
C11_3 C10_3 1_555 1_555
H8_3 C11_3 1_555 1_555
H9_3 C11_3 1_555 1_555
H10_3 C11_3 1_555 1_555
C12_3 N1_3 1_555 1_555
H11_3 C12_3 1_555 1_555
H12_3 C12_3 1_555 1_555
C13_3 C12_3 1_555 1_555
H13_3 C13_3 1_555 1_555
H14_3 C13_3 1_555 1_555
H15_3 C13_3 1_555 1_555
H5_4 N1_4 1_555 1_555
C10_4 N1_4 1_555 1_555
H6_4 C10_4 1_555 1_555
H7_4 C10_4 1_555 1_555
C11_4 C10_4 1_555 1_555
H8_4 C11_4 1_555 1_555
H10_4 C11_4 1_555 1_555
C12_4 N1_4 1_555 1_555
H11_4 C12_4 1_555 1_555
H12_4 C12_4 1_555 1_555
H13_4 C13_4 1_555 1_555
H14_4 C13_4 1_555 1_555
H15_4 C13_4 1_555 1_555

#END
