
###############################################################################
#
# This file contains modified crystal structure data generated from the
# MOF subset of the Cambridge Structural Database (CSD) v543 
# hosted by the Cambridge Crystallographic Data Centre (CCDC).
#
# This work is licensed under the Creative Commons
# Attribution-NonCommercial-ShareAlike 4.0 International License.
# To view a copy of this license, visit
# http://creativecommons.org/licenses/by-nc-sa/4.0/
# or send a letter to
# Creative Commons, PO Box 1866, Mountain View, CA 94042, USA.
#
# CIF created using the CSD Python API on 29 September 2022
# The structure has been converted into the P1 space group
# The structure has a 3D framework
# The original CSD entry FUTZOL is in the monoclinic crystal system
# The framework has been calculated to contain at least 10.0% void space
# The void calculation uses a probe of radius 1.32A, grid spacing 0.4
# The framework is charged, counterions have been retained in the structure
#
###############################################################################

data_FUTZOL
_chemical_formula_moiety         '(C344 H456 N32 O144 Zn20)n'
_symmetry_cell_setting           triclinic
_symmetry_space_group_name_H-M   'P 1'
_symmetry_Int_Tables_number      1
_space_group_name_Hall           'P 1'
loop_
_symmetry_equiv_pos_site_id
_symmetry_equiv_pos_as_xyz
1 x,y,z
_cell_length_a                   23.31(2)
_cell_length_b                   18.952(18)
_cell_length_c                   26.57(2)
_cell_angle_alpha                90
_cell_angle_beta                 94.757(14)
_cell_angle_gamma                90
_cell_volume                     11697.4
loop_
_atom_site_label
_atom_site_type_symbol
_atom_site_fract_x
_atom_site_fract_y
_atom_site_fract_z
Zn2 Zn 0.03422(7) 0.26088(9) 0.31804(6)
O7 O 0.0358(4) 0.2310(5) 0.2006(3)
O8 O 0.0833(4) 0.2881(5) 0.2654(3)
O10 O 0.0113(5) 0.1623(6) 0.3131(4)
O12 O 0.1045(5) 0.1419(5) 0.3069(4)
O27 O 0.3411(5) 0.2257(6) 0.2187(4)
O28 O 0.2945(4) 0.2438(5) 0.2873(4)
O33 O 0.2255(5) 0.1348(6) 0.0677(4)
O34 O 0.1426(5) 0.1905(6) 0.0460(4)
C12 C 0.0811(7) 0.2562(8) 0.2237(6)
C13 C 0.1369(6) 0.2415(7) 0.2008(5)
C14 C 0.1370(6) 0.2230(7) 0.1503(5)
H5 H 0.1029 0.2250 0.1296
C15 C 0.1876(6) 0.2464(7) 0.2288(5)
H6 H 0.1877 0.2626 0.2619
C17 C 0.0529(9) 0.1232(9) 0.3051(6)
C18 C 0.0388(6) 0.0467(8) 0.2920(5)
C23 C 0.0795(7) 0.0019(7) 0.2738(5)
H9 H 0.1169 0.0182 0.2722
C25 C 0.2968(8) 0.2319(8) 0.2386(7)
C28 C 0.2369(7) 0.2050(7) 0.1607(7)
H10 H 0.2707 0.1907 0.1474
C51 C 0.1844(9) 0.1744(9) 0.0767(6)
C53 C 0.2393(7) 0.2285(7) 0.2106(6)
C54 C 0.1861(7) 0.2022(8) 0.1306(6)
Zn9 Zn 0.37047(7) 0.26305(9) 0.32119(6)
Zn13 Zn 0.22263(8) 0.09011(9) 0.00160(6)
O38 O 0.0652(5) 0.2757(7) 0.3879(4)
Zn4 Zn 0.12953(7) 0.76305(9) 0.17881(6)
O13 O 0.0876(4) 0.8414(6) 0.2058(4)
O14 O 0.1617(5) 0.9035(6) 0.2419(4)
O23 O 0.0720(4) 0.6882(7) 0.1832(4)
O24 O 0.1252(5) 0.5880(6) 0.1922(4)
C21 C 0.0122(6) 0.9086(8) 0.2650(5)
H8 H 0.0026 0.8628 0.2548
C22 C 0.0664(6) 0.9350(8) 0.2583(5)
C26 C 0.1087(9) 0.8906(9) 0.2336(6)
C43 C 0.0153(8) 0.5187(10) 0.2053(5)
H16 H 0.0426 0.4901 0.1918
C44 C 0.0265(7) 0.5903(9) 0.2137(6)
C46 C 0.0801(9) 0.6220(12) 0.1951(6)
O39 O 0.1271(5) 0.7688(6) 0.1036(4)
O41 O 0.2055(4) 0.7438(5) 0.2127(4)
Zn1 Zn 0.95932(7) 0.27808(9) 0.19323(6)
O1 O 0.9222(4) 0.2241(5) 0.1390(4)
O2 O 0.9227(5) 0.3088(6) 0.0798(4)
O5 O 0.9146(4) 0.2497(5) 0.2504(4)
O6 O 0.9589(4) 0.3087(5) 0.3157(4)
O25 O 0.6529(5) 0.2883(8) 0.2867(4)
O26 O 0.7046(4) 0.2889(5) 0.2195(4)
O35 O 0.8437(5) 0.3524(7) 0.4641(4)
O36 O 0.7485(4) 0.3467(5) 0.4510(3)
C1 C 0.9144(6) 0.2479(10) 0.0922(7)
C2 C 0.8935(6) 0.1910(8) 0.0539(5)
C3 C 0.9150(7) 0.2826(9) 0.2912(7)
C4 C 0.8828(6) 0.2109(8) 0.0018(5)
C7 C 0.8703(6) 0.0693(8) 0.0341(5)
C8 C 0.8889(6) 0.1231(8) 0.0692(6)
H3 H 0.8980 0.1116 0.1030
C10 C 0.8581(7) 0.2913(8) 0.3126(6)
C11 C 0.8554(6) 0.3083(8) 0.3639(6)
H4 H 0.8889 0.3105 0.3854
C19 C 0.9841(6) 0.0199(8) 0.2989(5)
H7 H 0.9563 0.0489 0.3113
C36 C 0.6987(8) 0.2925(9) 0.2681(7)
C37 C 0.7544(7) 0.2995(7) 0.3009(6)
C38 C 0.8077(7) 0.2894(7) 0.2826(6)
H14 H 0.8092 0.2808 0.2483
C48 C 0.7993(8) 0.3427(8) 0.4371(6)
C49 C 0.8018(6) 0.3218(8) 0.3826(6)
C50 C 0.7524(6) 0.3176(8) 0.3511(6)
H18 H 0.7171 0.3269 0.3636
Zn8 Zn 0.63175(7) 0.27568(9) 0.18116(7)
Zn11 Zn 0.72263(8) 0.40989(9) 0.50160(6)
O37 O 0.9887(5) 0.3752(5) 0.1935(4)
O21 O 0.8729(5) 0.2312(6) 0.8964(4)
O22 O 0.8291(5) 0.1286(7) 0.8850(4)
H1 H 0.8886 0.2570 0.9913
C5 C 0.8634(6) 0.1581(8) 0.9675(6)
C6 C 0.8567(6) 0.0901(8) 0.9843(5)
H2 H 0.8423 0.0563 0.9612
C52 C 0.8533(8) 0.1731(11) 0.9128(6)
Zn10 Zn 0.87047(7) 0.23695(9) 0.82119(6)
Zn3 Zn 0.86825(7) 0.77568(9) 0.31884(7)
O3 O 0.8985(5) 0.3935(6) 0.2079(4)
O9 O 0.9348(5) 0.7243(7) 0.6121(4)
O11 O 0.9057(4) 0.6190(6) 0.6353(4)
O15 O 0.8714(5) 0.9515(6) 0.3021(4)
O16 O 0.9226(4) 0.8525(7) 0.3141(4)
O17 O 0.9147(8) 0.7944(9) 0.4307(5)
O18 O 0.8400(5) 0.7504(5) 0.3832(4)
O19 O 0.9179(4) 0.6984(6) 0.3021(4)
O20 O 0.8455(5) 0.6223(6) 0.2855(5)
O29 O 0.7729(5) 0.4898(5) 0.5176(4)
O30 O 0.7578(4) 0.5212(6) 0.4360(5)
O31 O 0.8541(4) 0.9474(6) 0.0174(4)
O32 O 0.8925(5) 0.9805(5) 0.0936(5)
C9 C 0.9487(9) 0.4115(10) 0.2063(6)
C16 C 0.9101(7) 0.6656(11) 0.6033(7)
C20 C 0.9714(6) 0.9510(8) 0.2872(5)
C24 C 0.9162(8) 0.9175(11) 0.3021(5)
C27 C 0.8734(9) 0.7532(11) 0.4229(8)
C29 C 0.8638(7) 0.7017(9) 0.4641(6)
C30 C 0.8912(7) 0.7081(9) 0.5125(8)
H11 H 0.9167 0.7452 0.5193
C31 C 0.8816(7) 0.6612(9) 0.5509(6)
C32 C 0.8451(8) 0.6047(10) 0.5396(7)
H12 H 0.8390 0.5720 0.5647
C33 C 0.8167(7) 0.5950(9) 0.4910(7)
C34 C 0.8267(6) 0.6439(9) 0.4543(6)
H13 H 0.8084 0.6385 0.4220
C35 C 0.7793(6) 0.5324(10) 0.4797(8)
C39 C 0.8963(10) 0.6433(11) 0.2822(6)
C40 C 0.9378(8) 0.6024(9) 0.2523(6)
C41 C 0.9231(7) 0.5326(11) 0.2399(6)
H15 H 0.8874 0.5145 0.2466
C42 C 0.9632(9) 0.4906(9) 0.2174(6)
C45 C 0.9880(8) 0.6305(9) 0.2378(6)
H17 H 0.9963 0.6778 0.2445
C47 C 0.8720(7) 0.9938(8) 0.0516(7)
Zn7 Zn 0.96578(7) 0.73912(9) 0.68196(6)
O40 O 0.7954(4) 0.7889(5) 0.2805(4)
O42 O 0.6459(4) 0.4474(6) 0.4826(4)
O43 O 0.7255(5) 0.3652(6) 0.5677(4)
Zn12 Zn 0.77737(8) 0.90989(9) 0.99840(6)
Zn1_2 Zn 0.54068(7) 0.77808(9) 0.30677(6)
Zn2_2 Zn 0.46578(7) 0.76088(9) 0.18196(6)
O1_2 O 0.5778(4) 0.7241(5) 0.3610(4)
O2_2 O 0.5773(5) 0.8088(6) 0.4202(4)
O5_2 O 0.5854(4) 0.7497(5) 0.2496(4)
O6_2 O 0.5411(4) 0.8087(5) 0.1843(4)
O7_2 O 0.4642(4) 0.7310(5) 0.2994(3)
O8_2 O 0.4167(4) 0.7881(5) 0.2346(3)
O10_2 O 0.4887(5) 0.6623(6) 0.1869(4)
O12_2 O 0.3955(5) 0.6419(5) 0.1931(4)
O13_2 O 0.4124(4) 0.3414(6) 0.2942(4)
O14_2 O 0.3383(5) 0.4035(6) 0.2581(4)
O15_2 O 0.6286(5) 0.4515(6) 0.1979(4)
O16_2 O 0.5774(4) 0.3525(7) 0.1859(4)
O17_2 O 0.5853(8) 0.2944(9) 0.0693(5)
O18_2 O 0.6600(5) 0.2504(5) 0.1168(4)
O19_2 O 0.5821(4) 0.1984(6) 0.1979(4)
O20_2 O 0.6545(5) 0.1223(6) 0.2145(5)
O21_2 O 0.6271(5) 0.7312(6) 0.6036(4)
O22_2 O 0.6709(5) 0.6286(7) 0.6150(4)
O23_2 O 0.4280(4) 0.1882(7) 0.3168(4)
O24_2 O 0.3748(5) 0.0880(6) 0.3078(4)
O25_2 O 0.8471(5) 0.7883(8) 0.2133(4)
O27_2 O 0.1589(5) 0.7257(6) 0.2813(4)
O30_2 O 0.7422(4) 0.0212(6) 0.0640(5)
O32_2 O 0.6075(5) 0.4805(5) 0.4064(5)
O33_2 O 0.2745(5) 0.6348(6) 0.4323(4)
O34_2 O 0.3574(5) 0.6905(6) 0.4540(4)
O35_2 O 0.6563(5) 0.8524(7) 0.0359(4)
O36_2 O 0.7515(4) 0.8467(5) 0.0490(3)
C1_2 C 0.5856(6) 0.7479(10) 0.4078(7)
C2_2 C 0.6065(6) 0.6910(8) 0.4461(5)
C3_2 C 0.5850(7) 0.7826(9) 0.2088(7)
C4_2 C 0.6172(6) 0.7109(8) 0.4982(5)
H1_2 H 0.6114 0.7570 0.5087
C5_2 C 0.6366(6) 0.6581(8) 0.5325(6)
C6_2 C 0.6433(6) 0.5901(8) 0.5157(5)
H2_2 H 0.6577 0.5563 0.5388
C7_2 C 0.6297(6) 0.5693(8) 0.4659(5)
C8_2 C 0.6111(6) 0.6231(8) 0.4308(6)
H3_2 H 0.6020 0.6116 0.3970
C10_2 C 0.6419(7) 0.7913(8) 0.1874(6)
C11_2 C 0.6446(6) 0.8083(8) 0.1361(6)
H4_2 H 0.6111 0.8105 0.1146
C12_2 C 0.4189(7) 0.7562(8) 0.2763(6)
C13_2 C 0.3631(6) 0.7415(7) 0.2992(5)
C14_2 C 0.3630(6) 0.7230(7) 0.3497(5)
H5_2 H 0.3971 0.7250 0.3704
C15_2 C 0.3124(6) 0.7464(7) 0.2712(5)
H6_2 H 0.3123 0.7626 0.2381
C17_2 C 0.4471(9) 0.6232(9) 0.1949(6)
C18_2 C 0.4612(6) 0.5467(8) 0.2080(5)
C19_2 C 0.5159(6) 0.5199(8) 0.2011(5)
H7_2 H 0.5437 0.5489 0.1887
C20_2 C 0.5286(6) 0.4510(8) 0.2128(5)
C21_2 C 0.4878(6) 0.4086(8) 0.2350(5)
H8_2 H 0.4974 0.3628 0.2452
C22_2 C 0.4336(6) 0.4350(8) 0.2417(5)
C23_2 C 0.4205(7) 0.5019(7) 0.2262(5)
H9_2 H 0.3831 0.5182 0.2278
C24_2 C 0.5838(8) 0.4175(11) 0.1979(5)
C25_2 C 0.2032(8) 0.7319(8) 0.2614(7)
C26_2 C 0.3913(9) 0.3906(9) 0.2664(6)
C27_2 C 0.6266(9) 0.2532(11) 0.0771(8)
C28_2 C 0.2631(7) 0.7050(7) 0.3393(7)
H10_2 H 0.2293 0.6907 0.3526
C29_2 C 0.6362(7) 0.2017(9) 0.0359(6)
C33_2 C 0.6833(7) 0.0950(9) 0.0090(7)
C34_2 C 0.6733(6) 0.1439(9) 0.0457(6)
H13_2 H 0.6916 0.1385 0.0780
C35_2 C 0.7207(6) 0.0324(10) 0.0203(8)
C36_2 C 0.8013(8) 0.7925(9) 0.2319(7)
C37_2 C 0.7456(7) 0.7995(7) 0.1991(6)
C38_2 C 0.6923(7) 0.7894(7) 0.2174(6)
H14_2 H 0.6908 0.7808 0.2517
C39_2 C 0.6037(10) 0.1433(11) 0.2178(6)
C40_2 C 0.5622(8) 0.1024(9) 0.2477(6)
C41_2 C 0.5769(7) 0.0326(11) 0.2601(6)
H15_2 H 0.6126 0.0145 0.2534
C43_2 C 0.4847(8) 0.0187(10) 0.2947(5)
C44_2 C 0.4735(7) 0.0903(9) 0.2863(6)
C45_2 C 0.5120(8) 0.1305(9) 0.2622(6)
H17_2 H 0.5037 0.1778 0.2555
C46_2 C 0.4199(9) 0.1220(12) 0.3049(6)
C47_2 C 0.6280(7) 0.4938(8) 0.4484(7)
C48_2 C 0.7007(8) 0.8427(8) 0.0629(6)
C49_2 C 0.6982(6) 0.8218(8) 0.1174(6)
C50_2 C 0.7476(6) 0.8176(8) 0.1489(6)
H18_2 H 0.7829 0.8269 0.1364
C51_2 C 0.3156(9) 0.6744(9) 0.4233(6)
C52_2 C 0.6467(8) 0.6731(11) 0.5872(6)
C53_2 C 0.2607(7) 0.7285(7) 0.2894(6)
C54_2 C 0.3139(7) 0.7022(8) 0.3694(6)
Zn10_2 Zn 0.62953(7) 0.73695(9) 0.67881(6)
Zn13_2 Zn 0.27737(8) 0.59011(9) 0.49840(6)
O37_2 O 0.5113(5) 0.8752(5) 0.3065(4)
O38_2 O 0.4348(5) 0.7757(7) 0.1121(4)
O39_2 O 0.3729(5) 0.2688(6) 0.3964(4)
O9_2 O 0.5652(5) 0.2243(7) 0.8879(4)
O11_2 O 0.5943(4) 0.1190(6) 0.8647(4)
C16_2 C 0.5899(7) 0.1656(11) 0.8967(7)
C30_2 C 0.6088(7) 0.2081(9) 0.9875(8)
H11_2 H 0.5833 0.2452 0.9807
C31_2 C 0.6184(7) 0.1612(9) 0.9491(6)
C32_2 C 0.6549(8) 0.1047(10) 0.9604(7)
H12_2 H 0.6610 0.0720 0.9353
Zn7_2 Zn 0.53422(7) 0.23912(9) 0.81804(6)
O3_2 O 0.6015(5) 0.8935(6) 0.2921(4)
C9_2 C 0.5513(9) 0.9115(10) 0.2937(6)
C42_2 C 0.5368(9) 0.9906(9) 0.2826(6)
H16_2 H 0.4574 0.9901 0.3082
O29_2 O 0.7271(5) 0.9898(5) 0.9824(4)
O43_2 O 0.7745(5) 0.8652(6) 0.9323(4)
Zn3_2 Zn 0.13175(7) 0.22432(9) 0.68116(7)
O3_3 O 0.1015(5) 0.6065(6) 0.7921(4)
O4 O 0.0113(5) 0.6248(5) 0.8065(4)
O11_3 O 0.0943(4) 0.3810(6) 0.3647(4)
O15_3 O 0.1286(5) 0.0485(6) 0.6979(4)
O16_3 O 0.0774(4) 0.1475(7) 0.6859(4)
O17_3 O 0.0853(8) 0.2056(9) 0.5693(5)
O18_3 O 0.1600(5) 0.2496(5) 0.6168(4)
O19_3 O 0.0821(4) 0.3016(6) 0.6979(4)
O20_3 O 0.1545(5) 0.3777(6) 0.7145(5)
O29_3 O 0.2271(5) 0.5102(5) 0.4824(4)
O30_3 O 0.2422(4) 0.4788(6) 0.5640(5)
O31_2 O 0.1459(4) 0.0526(6) 0.9826(4)
O32_3 O 0.1075(5) 0.0195(5) 0.9064(5)
C9_3 C 0.0513(9) 0.5885(10) 0.7937(6)
C16_3 C 0.0899(7) 0.3344(11) 0.3967(7)
C20_3 C 0.0286(6) 0.0490(8) 0.7128(5)
C24_3 C 0.0838(8) 0.0825(11) 0.6979(5)
C27_3 C 0.1266(9) 0.2468(11) 0.5771(8)
C29_3 C 0.1362(7) 0.2983(9) 0.5359(6)
C30_3 C 0.1088(7) 0.2919(9) 0.4875(8)
H11_3 H 0.0833 0.2548 0.4807
C31_3 C 0.1184(7) 0.3388(9) 0.4491(6)
C32_3 C 0.1549(8) 0.3953(10) 0.4604(7)
H12_3 H 0.1610 0.4280 0.4353
C33_3 C 0.1833(7) 0.4050(9) 0.5090(7)
C34_3 C 0.1733(6) 0.3561(9) 0.5457(6)
H13_3 H 0.1916 0.3615 0.5780
C35_3 C 0.2207(6) 0.4676(10) 0.5203(8)
C39_3 C 0.1037(10) 0.3567(11) 0.7178(6)
C40_3 C 0.0622(8) 0.3976(9) 0.7477(6)
C41_3 C 0.0769(7) 0.4674(11) 0.7601(6)
H15_3 H 0.1126 0.4855 0.7534
C42_3 C 0.0368(9) 0.5094(9) 0.7826(6)
C45_3 C 0.0120(8) 0.3695(9) 0.7622(6)
H17_3 H 0.0037 0.3222 0.7555
C47_3 C 0.1280(7) 0.0062(8) 0.9484(7)
Zn6 Zn 0.04068(7) 0.72192(9) 0.80677(6)
O40_2 O 0.2046(4) 0.2111(5) 0.7195(4)
O42_2 O 0.3541(4) 0.5526(6) 0.5174(4)
O44 O 0.2515(4) 0.6533(5) 0.5490(3)
O22_3 O 0.1709(5) 0.8714(7) 0.1150(4)
H1_3 H 0.1114 0.7430 0.0087
C5_3 C 0.1366(6) 0.8419(8) 0.0325(6)
C6_3 C 0.1433(6) 0.9099(8) 0.0157(5)
H2_3 H 0.1577 0.9437 0.0388
C52_3 C 0.1467(8) 0.8269(11) 0.0872(6)
O1_3 O 0.0778(4) 0.7759(5) 0.8610(4)
O2_3 O 0.0773(5) 0.6912(6) 0.9202(4)
O5_3 O 0.0854(4) 0.7503(5) 0.7496(4)
O6_3 O 0.0411(4) 0.6913(5) 0.6843(4)
O25_3 O 0.3471(5) 0.7117(8) 0.7133(4)
O26_2 O 0.2954(4) 0.7111(5) 0.7805(4)
O35_3 O 0.1563(5) 0.6476(7) 0.5359(4)
C1_3 C 0.0856(6) 0.7521(10) 0.9078(7)
C2_3 C 0.1065(6) 0.8090(8) 0.9461(5)
C3_3 C 0.0850(7) 0.7174(9) 0.7088(7)
C4_3 C 0.1172(6) 0.7891(8) 0.9982(5)
C7_3 C 0.1297(6) 0.9307(8) 0.9659(5)
C8_3 C 0.1111(6) 0.8769(8) 0.9308(6)
H3_3 H 0.1020 0.8884 0.8970
C10_3 C 0.1419(7) 0.7087(8) 0.6874(6)
C11_3 C 0.1446(6) 0.6917(8) 0.6361(6)
H4_3 H 0.1111 0.6895 0.6146
C19_3 C 0.0159(6) 0.9801(8) 0.7011(5)
H7_3 H 0.0437 0.9511 0.6887
C36_3 C 0.3013(8) 0.7075(9) 0.7319(7)
C37_3 C 0.2456(7) 0.7005(7) 0.6991(6)
C38_3 C 0.1923(7) 0.7106(7) 0.7174(6)
H14_3 H 0.1908 0.7192 0.7517
C48_3 C 0.2007(8) 0.6573(8) 0.5629(6)
C49_3 C 0.1982(6) 0.6782(8) 0.6174(6)
C50_3 C 0.2476(6) 0.6824(8) 0.6489(6)
H18_3 H 0.2829 0.6731 0.6364
Zn8_2 Zn 0.36825(7) 0.72432(9) 0.81884(7)
O13_3 O 0.9124(4) 0.1586(6) 0.7942(4)
O14_3 O 0.8383(5) 0.0965(6) 0.7581(4)
O23_3 O 0.9280(4) 0.3118(7) 0.8168(4)
O24_3 O 0.8748(5) 0.4120(6) 0.8078(4)
C21_3 C 0.9878(6) 0.0914(8) 0.7350(5)
H8_3 H 0.9974 0.1372 0.7452
C22_3 C 0.9336(6) 0.0650(8) 0.7417(5)
C26_3 C 0.8913(9) 0.1094(9) 0.7664(6)
C43_3 C 0.9847(8) 0.4813(10) 0.7947(5)
H16_3 H 0.9574 0.5099 0.8082
C44_3 C 0.9735(7) 0.4097(9) 0.7863(6)
C46_3 C 0.9199(9) 0.3780(12) 0.8049(6)
O41_2 O 0.7945(4) 0.2562(5) 0.7873(4)
O7_3 O 0.9642(4) 0.7690(5) 0.7994(3)
O8_3 O 0.9167(4) 0.7119(5) 0.7346(3)
O10_3 O 0.9887(5) 0.8377(6) 0.6869(4)
O12_3 O 0.8955(5) 0.8581(5) 0.6931(4)
O27_3 O 0.6589(5) 0.7743(6) 0.7813(4)
O28_2 O 0.7055(4) 0.7562(5) 0.7127(4)
O34_3 O 0.8574(5) 0.8095(6) 0.9540(4)
C12_3 C 0.9189(7) 0.7438(8) 0.7763(6)
C13_3 C 0.8631(6) 0.7585(7) 0.7992(5)
C14_3 C 0.8630(6) 0.7770(7) 0.8497(5)
H5_3 H 0.8971 0.7750 0.8704
C15_3 C 0.8124(6) 0.7536(7) 0.7712(5)
H6_3 H 0.8123 0.7374 0.7381
C17_3 C 0.9471(9) 0.8768(9) 0.6949(6)
C18_3 C 0.9612(6) 0.9533(8) 0.7080(5)
C23_3 C 0.9205(7) 0.9981(7) 0.7262(5)
H9_3 H 0.8831 0.9818 0.7278
C25_3 C 0.7032(8) 0.7681(8) 0.7614(7)
C28_3 C 0.7631(7) 0.7950(7) 0.8393(7)
H10_3 H 0.7293 0.8093 0.8526
C51_3 C 0.8156(9) 0.8256(9) 0.9233(6)
C53_3 C 0.7607(7) 0.7715(7) 0.7894(6)
C54_3 C 0.8139(7) 0.7978(8) 0.8694(6)
O29_4 O 0.2729(5) 0.0102(5) 0.0176(4)
O3_4 O 0.3985(5) 0.1065(6) 0.7079(4)
O4_2 O 0.4887(5) 0.1248(5) 0.6935(4)
C9_4 C 0.4487(9) 0.0885(10) 0.7063(6)
C42_4 C 0.4632(9) 0.0094(9) 0.7174(6)
H16_4 H 0.5426 0.0099 0.6918
Zn6_2 Zn 0.45932(7) 0.22192(9) 0.69323(6)
O44_2 O 0.2485(4) 0.1533(5) 0.9510(3)
O11_4 O 0.4057(4) 0.8810(6) 0.1353(4)
C16_4 C 0.4101(7) 0.8344(11) 0.1033(7)
C30_4 C 0.3912(7) 0.7919(9) 0.0125(8)
H11_4 H 0.4167 0.7548 0.0193
C31_4 C 0.3816(7) 0.8388(9) 0.0509(6)
C32_4 C 0.3451(8) 0.8953(10) 0.0396(7)
H12_4 H 0.3390 0.9280 0.0647
O1_4 O 0.4222(4) 0.2759(5) 0.6390(4)
O2_4 O 0.4227(5) 0.1912(6) 0.5798(4)
O5_4 O 0.4146(4) 0.2503(5) 0.7504(4)
O6_4 O 0.4589(4) 0.1913(5) 0.8157(4)
O7_4 O 0.5358(4) 0.2690(5) 0.7006(3)
O8_4 O 0.5833(4) 0.2119(5) 0.7654(3)
O10_4 O 0.5113(5) 0.3377(6) 0.8131(4)
O12_4 O 0.6045(5) 0.3581(5) 0.8069(4)
O13_4 O 0.5876(4) 0.6586(6) 0.7058(4)
O14_4 O 0.6617(5) 0.5965(6) 0.7419(4)
O15_4 O 0.3714(5) 0.5485(6) 0.8021(4)
O16_4 O 0.4226(4) 0.6475(7) 0.8141(4)
O17_4 O 0.4147(8) 0.7056(9) 0.9307(5)
O18_4 O 0.3400(5) 0.7496(5) 0.8832(4)
O19_4 O 0.4179(4) 0.8016(6) 0.8021(4)
O20_4 O 0.3455(5) 0.8777(6) 0.7855(5)
O22_4 O 0.3291(5) 0.3714(7) 0.3850(4)
O23_4 O 0.5720(4) 0.8118(7) 0.6832(4)
O24_4 O 0.6252(5) 0.9120(6) 0.6922(4)
O25_4 O 0.1529(5) 0.2117(8) 0.7867(4)
O27_4 O 0.8411(5) 0.2743(6) 0.7187(4)
O30_4 O 0.2578(4) 0.9788(6) 0.9360(5)
O32_4 O 0.3925(5) 0.5195(5) 0.5936(5)
O34_4 O 0.6426(5) 0.3095(6) 0.5460(4)
O35_4 O 0.3437(5) 0.1476(7) 0.9641(4)
C1_4 C 0.4144(6) 0.2521(10) 0.5922(7)
C2_4 C 0.3935(6) 0.3090(8) 0.5539(5)
C3_4 C 0.4150(7) 0.2174(9) 0.7912(7)
C4_4 C 0.3828(6) 0.2891(8) 0.5018(5)
H1_4 H 0.3886 0.2430 0.4913
C5_4 C 0.3634(6) 0.3419(8) 0.4675(6)
C6_4 C 0.3567(6) 0.4099(8) 0.4843(5)
H2_4 H 0.3423 0.4437 0.4612
C7_4 C 0.3703(6) 0.4307(8) 0.5341(5)
C8_4 C 0.3889(6) 0.3769(8) 0.5692(6)
H3_4 H 0.3980 0.3884 0.6030
C10_4 C 0.3581(7) 0.2087(8) 0.8126(6)
C11_4 C 0.3554(6) 0.1917(8) 0.8639(6)
H4_4 H 0.3889 0.1895 0.8854
C12_4 C 0.5811(7) 0.2438(8) 0.7237(6)
C13_4 C 0.6369(6) 0.2585(7) 0.7008(5)
C14_4 C 0.6370(6) 0.2770(7) 0.6503(5)
H5_4 H 0.6029 0.2750 0.6296
C15_4 C 0.6876(6) 0.2536(7) 0.7288(5)
H6_4 H 0.6877 0.2374 0.7619
C17_4 C 0.5529(9) 0.3768(9) 0.8051(6)
C18_4 C 0.5388(6) 0.4533(8) 0.7920(5)
C19_4 C 0.4841(6) 0.4801(8) 0.7989(5)
H7_4 H 0.4563 0.4511 0.8113
C20_4 C 0.4714(6) 0.5490(8) 0.7872(5)
C21_4 C 0.5122(6) 0.5914(8) 0.7650(5)
H8_4 H 0.5026 0.6372 0.7548
C22_4 C 0.5664(6) 0.5650(8) 0.7583(5)
C23_4 C 0.5795(7) 0.4981(7) 0.7738(5)
H9_4 H 0.6169 0.4818 0.7722
C24_4 C 0.4162(8) 0.5825(11) 0.8021(5)
C25_4 C 0.7968(8) 0.2681(8) 0.7386(7)
C26_4 C 0.6087(9) 0.6094(9) 0.7336(6)
C27_4 C 0.3734(9) 0.7468(11) 0.9229(8)
C28_4 C 0.7369(7) 0.2950(7) 0.6607(7)
H10_4 H 0.7707 0.3093 0.6474
C29_4 C 0.3638(7) 0.7983(9) 0.9641(6)
C33_4 C 0.3167(7) 0.9050(9) 0.9910(7)
C34_4 C 0.3267(6) 0.8561(9) 0.9543(6)
H13_4 H 0.3084 0.8615 0.9220
C35_4 C 0.2793(6) 0.9676(10) 0.9797(8)
C36_4 C 0.1987(8) 0.2075(9) 0.7681(7)
C37_4 C 0.2544(7) 0.2005(7) 0.8009(6)
C38_4 C 0.3077(7) 0.2106(7) 0.7826(6)
H14_4 H 0.3092 0.2192 0.7483
C39_4 C 0.3963(10) 0.8567(11) 0.7822(6)
C40_4 C 0.4378(8) 0.8976(9) 0.7523(6)
C41_4 C 0.4231(7) 0.9674(11) 0.7399(6)
H15_4 H 0.3874 0.9855 0.7466
C43_4 C 0.5153(8) 0.9813(10) 0.7053(5)
C44_4 C 0.5265(7) 0.9097(9) 0.7137(6)
C45_4 C 0.4880(8) 0.8695(9) 0.7378(6)
H17_4 H 0.4963 0.8222 0.7445
C46_4 C 0.5801(9) 0.8780(12) 0.6951(6)
C47_4 C 0.3720(7) 0.5062(8) 0.5516(7)
C48_4 C 0.2993(8) 0.1573(8) 0.9371(6)
C49_4 C 0.3018(6) 0.1782(8) 0.8826(6)
C50_4 C 0.2524(6) 0.1824(8) 0.8511(6)
H18_4 H 0.2171 0.1731 0.8636
C51_4 C 0.6844(9) 0.3256(9) 0.5767(6)
C52_4 C 0.3533(8) 0.3269(11) 0.4128(6)
C53_4 C 0.7393(7) 0.2715(7) 0.7106(6)
C54_4 C 0.6861(7) 0.2978(8) 0.6306(6)
C57 C 0.3466(8) 0.0233(11) 0.1839(7)
H25 H 0.3655 0.0551 0.2080
H26 H 0.3282 0.0497 0.1563
C58 C 0.2617(8) 0.0301(10) 0.2313(7)
H28 H 0.2321 0.0032 0.2455
H29 H 0.2445 0.0610 0.2056
H30 H 0.2820 0.0576 0.2574
N1 N 0.3024(6) 0.9815(7) 0.2087(5)
C55 C 0.2707(9) 0.9374(11) 0.1687(7)
H19 H 0.2973 0.9066 0.1539
H20 H 0.2526 0.9676 0.1431
H21 H 0.2420 0.9098 0.1835
C56 C 0.3295(9) 0.9348(10) 0.2481(9)
H22 H 0.3446 0.9626 0.2764
H23 H 0.3603 0.9090 0.2347
H24 H 0.3014 0.9023 0.2588
H27 H 0.3744 0.9918 0.1715
N1_2 N 0.1976(6) 0.4815(7) 0.2913(5)
C55_2 C 0.2293(9) 0.4374(11) 0.3313(7)
H19_2 H 0.2027 0.4066 0.3461
H20_2 H 0.2474 0.4676 0.3569
H21_2 H 0.2580 0.4098 0.3165
C56_2 C 0.1705(9) 0.4348(10) 0.2519(9)
H22_2 H 0.1554 0.4626 0.2236
H23_2 H 0.1397 0.4090 0.2653
H24_2 H 0.1986 0.4023 0.2412
C57_2 C 0.1534(8) 0.5233(11) 0.3161(7)
H25_2 H 0.1345 0.5551 0.2920
H26_2 H 0.1718 0.5497 0.3437
H27_2 H 0.1256 0.4918 0.3285
C58_2 C 0.2383(8) 0.5301(10) 0.2687(7)
H28_2 H 0.2679 0.5032 0.2545
H29_2 H 0.2555 0.5610 0.2944
H30_2 H 0.2180 0.5576 0.2426
N1_3 N 0.6976(6) 0.0185(7) 0.7913(5)
C55_3 C 0.7293(9) 0.0626(11) 0.8313(7)
H19_3 H 0.7027 0.0934 0.8461
H20_3 H 0.7474 0.0324 0.8569
H21_3 H 0.7580 0.0902 0.8165
C56_3 C 0.6705(9) 0.0652(10) 0.7519(9)
H22_3 H 0.6554 0.0374 0.7236
H23_3 H 0.6397 0.0910 0.7653
H24_3 H 0.6986 0.0977 0.7412
H27_3 H 0.6256 0.0082 0.8285
C57_3 C 0.6534(8) 0.9767(11) 0.8161(7)
H25_3 H 0.6345 0.9449 0.7920
H26_3 H 0.6718 0.9503 0.8437
C58_3 C 0.7383(8) 0.9699(10) 0.7687(7)
H28_3 H 0.7679 0.9968 0.7545
H29_3 H 0.7555 0.9390 0.7944
H30_3 H 0.7180 0.9424 0.7426
N1_4 N 0.8024(6) 0.5185(7) 0.7087(5)
C55_4 C 0.7707(9) 0.5626(11) 0.6687(7)
H19_4 H 0.7973 0.5934 0.6539
H20_4 H 0.7526 0.5324 0.6431
H21_4 H 0.7420 0.5902 0.6835
C56_4 C 0.8295(9) 0.5652(10) 0.7481(9)
H22_4 H 0.8446 0.5374 0.7764
H23_4 H 0.8603 0.5910 0.7347
H24_4 H 0.8014 0.5977 0.7588
C57_4 C 0.8466(8) 0.4767(11) 0.6839(7)
H25_4 H 0.8655 0.4449 0.7080
H26_4 H 0.8282 0.4503 0.6563
H27_4 H 0.8744 0.5082 0.6715
C58_4 C 0.7617(8) 0.4699(10) 0.7313(7)
H28_4 H 0.7321 0.4968 0.7455
H29_4 H 0.7445 0.4390 0.7056
H30_4 H 0.7820 0.4424 0.7574
N2 N 0.0440(6) 0.5093(8) 0.6011(5)
C59 C 0.1040(7) 0.5156(10) 0.6271(6)
H31 H 0.1307 0.5265 0.6026
H32 H 0.1147 0.4718 0.6434
H33 H 0.1047 0.5526 0.6519
C60 C 0.0282(8) 0.5773(10) 0.5749(7)
H34 H 0.0553 0.5873 0.5505
H35 H 0.0290 0.6147 0.5993
C61 C 0.0416(7) 0.4503(9) 0.5640(7)
H37 H 0.0028 0.4447 0.5494
H38 H 0.0541 0.4075 0.5808
H39 H 0.0663 0.4607 0.5378
C62 C 0.0005(7) 0.4970(10) 0.6398(7)
H40 H 0.0067 0.5306 0.6667
H41 H 0.0050 0.4501 0.6532
H36 H 0.9903 0.5735 0.5581
H42 H 0.9622 0.5024 0.6239
N2_2 N 0.4560(6) 0.0093(8) 0.8989(5)
C59_2 C 0.3960(7) 0.0156(10) 0.8729(6)
H31_2 H 0.3693 0.0265 0.8974
H33_2 H 0.3953 0.0526 0.8481
C60_2 C 0.4718(8) 0.0773(10) 0.9251(7)
H34_2 H 0.4447 0.0873 0.9495
H35_2 H 0.4710 0.1147 0.9007
H36_2 H 0.5097 0.0735 0.9419
H40_2 H 0.4933 0.0306 0.8333
H42_2 H 0.5378 0.0024 0.8761
H32_2 H 0.3853 0.9718 0.8566
C61_2 C 0.4584(7) 0.9503(9) 0.9360(7)
H37_2 H 0.4972 0.9447 0.9506
H38_2 H 0.4459 0.9075 0.9192
H39_2 H 0.4337 0.9607 0.9622
C62_2 C 0.4995(7) 0.9970(10) 0.8602(7)
H41_2 H 0.4950 0.9501 0.8468
H36_3 H 0.0097 0.4265 0.4419
H42_3 H 0.0378 0.4976 0.3761
N2_3 N 0.9560(6) 0.4907(8) 0.3989(5)
C59_3 C 0.8960(7) 0.4844(10) 0.3729(6)
H31_3 H 0.8693 0.4735 0.3974
H32_3 H 0.8853 0.5282 0.3566
H33_3 H 0.8953 0.4474 0.3481
C60_3 C 0.9718(8) 0.4227(10) 0.4251(7)
H34_3 H 0.9447 0.4127 0.4495
H35_3 H 0.9710 0.3853 0.4007
C61_3 C 0.9584(7) 0.5497(9) 0.4360(7)
H37_3 H 0.9972 0.5553 0.4506
H38_3 H 0.9459 0.5925 0.4192
H39_3 H 0.9337 0.5393 0.4622
C62_3 C 0.9995(7) 0.5030(10) 0.3602(7)
H40_3 H 0.9933 0.4694 0.3333
H41_3 H 0.9950 0.5499 0.3468
H32_4 H 0.6147 0.0282 0.1434
C61_4 C 0.5416(7) 0.0497(9) 0.0640(7)
H37_4 H 0.5028 0.0553 0.0494
H38_4 H 0.5541 0.0925 0.0808
H39_4 H 0.5663 0.0393 0.0378
C62_4 C 0.5005(7) 0.0030(10) 0.1398(7)
H41_4 H 0.5050 0.0499 0.1532
N2_4 N 0.5440(6) 0.9907(8) 0.1011(5)
C59_4 C 0.6040(7) 0.9844(10) 0.1271(6)
H31_4 H 0.6307 0.9735 0.1026
H33_4 H 0.6047 0.9474 0.1519
C60_4 C 0.5282(8) 0.9227(10) 0.0749(7)
H34_4 H 0.5553 0.9127 0.0505
H35_4 H 0.5290 0.8853 0.0993
H36_4 H 0.4903 0.9265 0.0581
H40_4 H 0.5067 0.9694 0.1667
H42_4 H 0.4622 0.9976 0.1239
N3 N 0.2230(6) 0.1669(7) 0.4002(5)
C63 C 0.1701(7) 0.1408(10) 0.4227(6)
H43 H 0.1601 0.1729 0.4485
H44 H 0.1775 0.0949 0.4372
H45 H 0.1389 0.1377 0.3969
C64 C 0.2362(7) 0.1187(9) 0.3572(7)
H46 H 0.2447 0.0722 0.3701
H47 H 0.2688 0.1366 0.3414
H48 H 0.2035 0.1167 0.3328
C65 C 0.2723(8) 0.1702(10) 0.4383(7)
H49 H 0.2650 0.2049 0.4633
H50 H 0.3063 0.1829 0.4224
H51 H 0.2778 0.1249 0.4542
C66 C 0.2116(7) 0.2374(10) 0.3785(7)
H52 H 0.1806 0.2346 0.3524
H53 H 0.2456 0.2546 0.3645
H54 H 0.2011 0.2689 0.4045
N3_2 N 0.2770(6) 0.6669(7) 0.0998(5)
C63_2 C 0.3299(7) 0.6408(10) 0.0773(6)
H43_2 H 0.3399 0.6729 0.0515
H44_2 H 0.3225 0.5949 0.0628
H45_2 H 0.3611 0.6377 0.1031
C64_2 C 0.2638(7) 0.6187(9) 0.1428(7)
H46_2 H 0.2553 0.5722 0.1299
H47_2 H 0.2312 0.6366 0.1586
H48_2 H 0.2965 0.6167 0.1672
C65_2 C 0.2277(8) 0.6702(10) 0.0617(7)
H49_2 H 0.2350 0.7049 0.0367
H50_2 H 0.1937 0.6829 0.0776
H51_2 H 0.2222 0.6249 0.0458
C66_2 C 0.2884(7) 0.7374(10) 0.1215(7)
H52_2 H 0.3194 0.7346 0.1476
H53_2 H 0.2544 0.7546 0.1355
H54_2 H 0.2989 0.7689 0.0955
N3_3 N 0.7770(6) 0.8331(7) 0.5998(5)
C63_3 C 0.8299(7) 0.8592(10) 0.5773(6)
H43_3 H 0.8399 0.8271 0.5515
H44_3 H 0.8225 0.9051 0.5628
H45_3 H 0.8611 0.8623 0.6031
C64_3 C 0.7638(7) 0.8813(9) 0.6428(7)
H46_3 H 0.7553 0.9278 0.6299
H47_3 H 0.7312 0.8634 0.6586
H48_3 H 0.7965 0.8833 0.6672
C65_3 C 0.7277(8) 0.8298(10) 0.5617(7)
H49_3 H 0.7350 0.7951 0.5367
H50_3 H 0.6937 0.8171 0.5776
H51_3 H 0.7222 0.8751 0.5458
C66_3 C 0.7884(7) 0.7626(10) 0.6215(7)
H52_3 H 0.8194 0.7654 0.6476
H53_3 H 0.7544 0.7454 0.6355
H54_3 H 0.7989 0.7311 0.5955
N3_4 N 0.7230(6) 0.3331(7) 0.9002(5)
C63_4 C 0.6701(7) 0.3592(10) 0.9227(6)
H43_4 H 0.6601 0.3271 0.9485
H44_4 H 0.6775 0.4051 0.9372
H45_4 H 0.6389 0.3623 0.8969
C64_4 C 0.7362(7) 0.3813(9) 0.8572(7)
H46_4 H 0.7447 0.4278 0.8701
H47_4 H 0.7688 0.3634 0.8414
H48_4 H 0.7035 0.3833 0.8328
C65_4 C 0.7723(8) 0.3298(10) 0.9383(7)
H49_4 H 0.7650 0.2951 0.9633
H50_4 H 0.8063 0.3171 0.9224
H51_4 H 0.7778 0.3751 0.9542
C66_4 C 0.7116(7) 0.2626(10) 0.8785(7)
H52_4 H 0.6806 0.2654 0.8524
H53_4 H 0.7456 0.2454 0.8645
H54_4 H 0.7011 0.2311 0.9045
N4 N 0.7760(6) 0.4022(10) 0.1210(6)
C67 C 0.7207(8) 0.4112(17) 0.0896(11)
H55 H 0.7253 0.3959 0.0558
H56 H 0.7098 0.4601 0.0893
H57 H 0.6914 0.3836 0.1035
C68 C 0.7897(9) 0.3290(13) 0.1295(8)
H58 H 0.7912 0.3055 0.0976
H59 H 0.7607 0.3075 0.1480
H60 H 0.8264 0.3251 0.1485
C69 C 0.8238(9) 0.4385(13) 0.1000(9)
H61 H 0.8588 0.4291 0.1207
H62 H 0.8166 0.4883 0.0993
H63 H 0.8276 0.4218 0.0663
C70 C 0.7658(10) 0.4361(11) 0.1706(9)
H64 H 0.7332 0.4144 0.1841
H65 H 0.7584 0.4855 0.1655
H66 H 0.7992 0.4301 0.1938
N4_2 N 0.7240(6) 0.9022(10) 0.3790(6)
C67_2 C 0.7793(8) 0.9112(17) 0.4104(11)
H55_2 H 0.7747 0.8959 0.4442
H56_2 H 0.7902 0.9601 0.4107
H57_2 H 0.8086 0.8836 0.3965
C68_2 C 0.7103(9) 0.8290(13) 0.3705(8)
H58_2 H 0.7088 0.8055 0.4024
H59_2 H 0.7393 0.8075 0.3520
H60_2 H 0.6736 0.8251 0.3515
C69_2 C 0.6762(9) 0.9385(13) 0.4000(9)
H61_2 H 0.6412 0.9291 0.3793
H62_2 H 0.6834 0.9883 0.4007
H63_2 H 0.6724 0.9218 0.4337
C70_2 C 0.7342(10) 0.9361(11) 0.3294(9)
H64_2 H 0.7668 0.9144 0.3159
H65_2 H 0.7416 0.9855 0.3345
H66_2 H 0.7008 0.9301 0.3062
N4_3 N 0.2240(6) 0.5978(10) 0.8790(6)
C67_3 C 0.2793(8) 0.5888(17) 0.9104(11)
H55_3 H 0.2747 0.6041 0.9442
H56_3 H 0.2902 0.5399 0.9107
H57_3 H 0.3086 0.6164 0.8965
C68_3 C 0.2103(9) 0.6710(13) 0.8705(8)
H58_3 H 0.2088 0.6945 0.9024
H59_3 H 0.2393 0.6925 0.8520
H60_3 H 0.1736 0.6749 0.8515
C69_3 C 0.1762(9) 0.5615(13) 0.9000(9)
H61_3 H 0.1412 0.5709 0.8793
H62_3 H 0.1834 0.5117 0.9007
H63_3 H 0.1724 0.5782 0.9337
C70_3 C 0.2342(10) 0.5639(11) 0.8294(9)
H64_3 H 0.2668 0.5856 0.8159
H65_3 H 0.2416 0.5145 0.8345
H66_3 H 0.2008 0.5699 0.8062
N4_4 N 0.2760(6) 0.0978(10) 0.6210(6)
C67_4 C 0.2207(8) 0.0888(17) 0.5896(11)
H55_4 H 0.2253 0.1041 0.5558
H56_4 H 0.2098 0.0399 0.5893
H57_4 H 0.1914 0.1164 0.6035
C68_4 C 0.2897(9) 0.1710(13) 0.6295(8)
H58_4 H 0.2912 0.1945 0.5976
H59_4 H 0.2607 0.1925 0.6480
H60_4 H 0.3264 0.1749 0.6485
C69_4 C 0.3238(9) 0.0615(13) 0.6000(9)
H61_4 H 0.3588 0.0709 0.6207
H62_4 H 0.3166 0.0117 0.5993
H63_4 H 0.3276 0.0782 0.5663
C70_4 C 0.2658(10) 0.0639(11) 0.6706(9)
H64_4 H 0.2332 0.0856 0.6841
H65_4 H 0.2584 0.0145 0.6655
H66_4 H 0.2992 0.0699 0.6938
N5 N 0.6972(6) 0.5758(7) 0.2943(5)
C71 C 0.7161(7) 0.6299(9) 0.3322(6)
H67 H 0.7140 0.6109 0.3655
H68 H 0.6914 0.6704 0.3280
H69 H 0.7550 0.6436 0.3278
C72 C 0.7328(7) 0.5111(9) 0.3040(6)
H70 H 0.7722 0.5216 0.2990
H71 H 0.7191 0.4745 0.2810
H72 H 0.7300 0.4957 0.3381
C73 C 0.6355(7) 0.5565(10) 0.3003(6)
H73 H 0.6329 0.5347 0.3326
H74 H 0.6222 0.5242 0.2741
H75 H 0.6123 0.5983 0.2980
C74 C 0.7031(8) 0.6013(10) 0.2424(6)
H76 H 0.6790 0.6419 0.2359
H77 H 0.6916 0.5647 0.2187
H78 H 0.7425 0.6139 0.2390
N5_2 N 0.8028(6) 0.0758(7) 0.2057(5)
C71_2 C 0.7839(7) 0.1299(9) 0.1678(6)
H67_2 H 0.7860 0.1109 0.1345
H68_2 H 0.8086 0.1704 0.1720
H69_2 H 0.7450 0.1436 0.1722
C72_2 C 0.7672(7) 0.0111(9) 0.1960(6)
H70_2 H 0.7278 0.0216 0.2010
C73_2 C 0.8645(7) 0.0565(10) 0.1997(6)
H73_2 H 0.8671 0.0347 0.1674
H74_2 H 0.8778 0.0242 0.2259
H75_2 H 0.8877 0.0983 0.2020
C74_2 C 0.7969(8) 0.1013(10) 0.2576(6)
H76_2 H 0.8210 0.1419 0.2641
H77_2 H 0.8084 0.0647 0.2813
H78_2 H 0.7575 0.1139 0.2610
H71_2 H 0.7809 0.9745 0.2190
H72_2 H 0.7700 0.9957 0.1619
N5_3 N 0.3028(6) 0.4242(7) 0.7057(5)
C71_3 C 0.2839(7) 0.3701(9) 0.6678(6)
H67_3 H 0.2860 0.3891 0.6345
H68_3 H 0.3086 0.3296 0.6720
H69_3 H 0.2450 0.3564 0.6722
C72_3 C 0.2672(7) 0.4889(9) 0.6960(6)
H70_3 H 0.2278 0.4784 0.7010
H71_3 H 0.2809 0.5255 0.7190
H72_3 H 0.2700 0.5043 0.6619
C73_3 C 0.3645(7) 0.4435(10) 0.6997(6)
H73_3 H 0.3671 0.4653 0.6674
H74_3 H 0.3778 0.4758 0.7259
H75_3 H 0.3877 0.4017 0.7020
C74_3 C 0.2969(8) 0.3987(10) 0.7576(6)
H76_3 H 0.3210 0.3581 0.7641
H77_3 H 0.3084 0.4353 0.7813
H78_3 H 0.2575 0.3861 0.7610
H71_4 H 0.2191 0.0255 0.7810
H72_4 H 0.2300 0.0043 0.8381
N5_4 N 0.1972(6) 0.9242(7) 0.7943(5)
C71_4 C 0.2161(7) 0.8701(9) 0.8322(6)
H67_4 H 0.2140 0.8891 0.8655
H68_4 H 0.1914 0.8296 0.8280
H69_4 H 0.2550 0.8564 0.8278
C72_4 C 0.2328(7) 0.9889(9) 0.8040(6)
H70_4 H 0.2722 0.9784 0.7990
C73_4 C 0.1355(7) 0.9435(10) 0.8003(6)
H73_4 H 0.1329 0.9653 0.8326
H74_4 H 0.1222 0.9758 0.7741
H75_4 H 0.1123 0.9017 0.7980
C74_4 C 0.2031(8) 0.8987(10) 0.7424(6)
H76_4 H 0.1790 0.8581 0.7359
H77_4 H 0.1916 0.9353 0.7187
H78_4 H 0.2425 0.8861 0.7390
N6 N 0.0531(6) 0.0310(7) 0.1168(5)
C75 C 0.1139(7) 0.0314(9) 0.1376(6)
H79 H 0.1261 0.0791 0.1443
H80 H 0.1375 0.0106 0.1136
H81 H 0.1177 0.0047 0.1685
C76 C 0.0164(7) 0.0600(9) 0.1546(6)
H82 H 0.0216 0.0326 0.1851
H84 H 0.0271 0.1081 0.1617
C78 C 0.0452(8) 0.0721(9) 0.0689(6)
H88 H 0.0583 0.1196 0.0749
H89 H 0.0052 0.0725 0.0570
H90 H 0.0671 0.0505 0.0440
C77 C 0.0340(7) 0.9556(10) 0.1042(7)
H85 H 0.0537 0.9388 0.0762
H87 H 0.0432 0.9259 0.1330
H83 H 0.9768 0.0580 0.1416
H86 H 0.9932 0.9547 0.0955
N6_2 N 0.4469(6) 0.5310(7) 0.3832(5)
C75_2 C 0.3861(7) 0.5314(9) 0.3624(6)
H79_2 H 0.3739 0.5791 0.3557
H80_2 H 0.3625 0.5106 0.3864
H81_2 H 0.3823 0.5047 0.3315
C76_2 C 0.4836(7) 0.5600(9) 0.3454(6)
H82_2 H 0.4784 0.5326 0.3149
H83_2 H 0.5232 0.5580 0.3584
H84_2 H 0.4729 0.6081 0.3383
C77_2 C 0.4660(7) 0.4556(10) 0.3958(7)
H85_2 H 0.4463 0.4388 0.4238
H86_2 H 0.5068 0.4547 0.4045
H87_2 H 0.4568 0.4259 0.3670
C78_2 C 0.4548(8) 0.5721(9) 0.4311(6)
H88_2 H 0.4417 0.6196 0.4251
H89_2 H 0.4948 0.5725 0.4430
H90_2 H 0.4329 0.5505 0.4560
H86_3 H 0.0068 0.0453 0.9045
H83_3 H 0.0232 0.9420 0.8584
C77_3 C 0.9660(7) 0.0444(10) 0.8958(7)
H85_3 H 0.9463 0.0612 0.9238
H87_3 H 0.9568 0.0741 0.8670
N6_3 N 0.9469(6) 0.9690(7) 0.8832(5)
C75_3 C 0.8861(7) 0.9686(9) 0.8624(6)
H79_3 H 0.8739 0.9209 0.8557
H80_3 H 0.8625 0.9894 0.8864
H81_3 H 0.8823 0.9953 0.8315
C76_3 C 0.9836(7) 0.9400(9) 0.8454(6)
H82_3 H 0.9784 0.9674 0.8149
H84_3 H 0.9729 0.8919 0.8383
C78_3 C 0.9548(8) 0.9279(9) 0.9311(6)
H88_3 H 0.9417 0.8804 0.9251
H89_3 H 0.9948 0.9275 0.9430
H90_3 H 0.9329 0.9495 0.9560
N6_4 N 0.5531(6) 0.4690(7) 0.6168(5)
C75_4 C 0.6139(7) 0.4686(9) 0.6376(6)
H79_4 H 0.6261 0.4209 0.6443
H80_4 H 0.6375 0.4894 0.6136
H81_4 H 0.6177 0.4953 0.6685
C76_4 C 0.5164(7) 0.4400(9) 0.6546(6)
H82_4 H 0.5216 0.4674 0.6851
H83_4 H 0.4768 0.4420 0.6416
H84_4 H 0.5271 0.3919 0.6617
C77_4 C 0.5340(7) 0.5444(10) 0.6042(7)
H85_4 H 0.5537 0.5612 0.5762
H86_4 H 0.4932 0.5453 0.5955
H87_4 H 0.5432 0.5741 0.6330
C78_4 C 0.5452(8) 0.4279(9) 0.5689(6)
H88_4 H 0.5583 0.3804 0.5749
H89_4 H 0.5052 0.4275 0.5570
H90_4 H 0.5671 0.4495 0.5440
N7 N 0.0731(7) 0.7502(10) 0.3919(6)
C79 C 0.0410(10) 0.7434(13) 0.4373(9)
H91 H 0.0068 0.7719 0.4334
H92 H 0.0648 0.7590 0.4664
H93 H 0.0305 0.6949 0.4417
C80 C 0.0540(10) 0.8121(14) 0.3657(9)
H94 H 0.0678 0.8122 0.3327
H95 H 0.0685 0.8528 0.3841
H96 H 0.0127 0.8133 0.3627
C81 C 0.1356(10) 0.7532(13) 0.4069(9)
H97 H 0.1555 0.7213 0.3862
H98 H 0.1426 0.7399 0.4417
H99 H 0.1494 0.8003 0.4024
C82 C 0.0640(10) 0.6873(14) 0.3605(10)
H100 H 0.0239 0.6751 0.3577
H101 H 0.0860 0.6488 0.3756
H102 H 0.0762 0.6965 0.3274
N7_2 N 0.4269(7) 0.2502(10) 0.1081(6)
C79_2 C 0.4590(10) 0.2434(13) 0.0627(9)
H91_2 H 0.4932 0.2719 0.0666
H92_2 H 0.4352 0.2590 0.0336
H93_2 H 0.4695 0.1949 0.0583
C80_2 C 0.4460(10) 0.3121(14) 0.1343(9)
H94_2 H 0.4322 0.3122 0.1673
H95_2 H 0.4315 0.3528 0.1159
H96_2 H 0.4873 0.3133 0.1373
C81_2 C 0.3644(10) 0.2532(13) 0.0931(9)
H97_2 H 0.3445 0.2213 0.1138
H98_2 H 0.3574 0.2399 0.0583
H99_2 H 0.3506 0.3003 0.0976
C82_2 C 0.4360(10) 0.1873(14) 0.1395(10)
H100_2 H 0.4761 0.1751 0.1423
H101_2 H 0.4140 0.1488 0.1244
H102_2 H 0.4238 0.1965 0.1726
N7_3 N 0.9269(7) 0.2498(10) 0.6081(6)
C79_3 C 0.9590(10) 0.2566(13) 0.5627(9)
H91_3 H 0.9932 0.2281 0.5666
H92_3 H 0.9352 0.2410 0.5336
H93_3 H 0.9695 0.3051 0.5583
C80_3 C 0.9460(10) 0.1879(14) 0.6343(9)
H94_3 H 0.9322 0.1878 0.6673
H95_3 H 0.9315 0.1472 0.6159
H96_3 H 0.9873 0.1867 0.6373
C81_3 C 0.8644(10) 0.2468(13) 0.5931(9)
H97_3 H 0.8445 0.2787 0.6138
H98_3 H 0.8574 0.2601 0.5583
H99_3 H 0.8506 0.1997 0.5976
C82_3 C 0.9360(10) 0.3127(14) 0.6395(10)
H100_3 H 0.9761 0.3249 0.6423
H101_3 H 0.9140 0.3512 0.6244
H102_3 H 0.9238 0.3035 0.6726
N7_4 N 0.5731(7) 0.7498(10) 0.8919(6)
C79_4 C 0.5410(10) 0.7566(13) 0.9373(9)
H91_4 H 0.5068 0.7281 0.9334
H92_4 H 0.5648 0.7410 0.9664
H93_4 H 0.5305 0.8051 0.9417
C80_4 C 0.5540(10) 0.6879(14) 0.8657(9)
H94_4 H 0.5678 0.6878 0.8327
H95_4 H 0.5685 0.6472 0.8841
H96_4 H 0.5127 0.6867 0.8627
C81_4 C 0.6356(10) 0.7468(13) 0.9069(9)
H97_4 H 0.6555 0.7787 0.8862
H98_4 H 0.6426 0.7601 0.9417
H99_4 H 0.6494 0.6997 0.9024
C82_4 C 0.5640(10) 0.8127(14) 0.8605(10)
H100_4 H 0.5239 0.8249 0.8577
H101_4 H 0.5860 0.8512 0.8756
H102_4 H 0.5762 0.8035 0.8274
H104 H 0.0176 0.7750 0.0783
N8 N 0.9371(6) 0.7619(9) 0.1013(5)
C83 C 0.9793(10) 0.7728(19) 0.0621(9)
H103 H 0.9765 0.7343 0.0386
H105 H 0.9706 0.8162 0.0444
C84 C 0.8796(8) 0.7802(12) 0.0780(8)
H106 H 0.8747 0.7605 0.0446
H107 H 0.8758 0.8306 0.0761
H108 H 0.8509 0.7613 0.0981
C85 C 0.9395(12) 0.6885(12) 0.1173(9)
H109 H 0.9033 0.6754 0.1295
H110 H 0.9696 0.6827 0.1439
H111 H 0.9471 0.6590 0.0893
C86 C 0.9514(8) 0.8074(10) 0.1446(7)
H112 H 0.9203 0.8071 0.1661
H113 H 0.9577 0.8546 0.1333
H114 H 0.9857 0.7903 0.1632
N8_2 N 0.5629(6) 0.2619(9) 0.3987(5)
C83_2 C 0.5207(10) 0.2728(19) 0.4379(9)
H103_2 H 0.5235 0.2343 0.4614
H104_2 H 0.4824 0.2750 0.4217
H105_2 H 0.5294 0.3162 0.4556
C84_2 C 0.6204(8) 0.2802(12) 0.4220(8)
H106_2 H 0.6253 0.2605 0.4554
H107_2 H 0.6242 0.3306 0.4239
H108_2 H 0.6491 0.2613 0.4019
C85_2 C 0.5605(12) 0.1885(12) 0.3827(9)
H109_2 H 0.5967 0.1754 0.3705
H110_2 H 0.5304 0.1827 0.3561
H111_2 H 0.5529 0.1590 0.4107
C86_2 C 0.5486(8) 0.3074(10) 0.3554(7)
H112_2 H 0.5797 0.3071 0.3339
H113_2 H 0.5423 0.3546 0.3667
H114_2 H 0.5143 0.2903 0.3368
N8_3 N 0.0629(6) 0.2381(9) 0.8987(5)
C83_3 C 0.0207(10) 0.2272(19) 0.9379(9)
H103_3 H 0.0235 0.2657 0.9614
H105_3 H 0.0294 0.1838 0.9556
C84_3 C 0.1204(8) 0.2198(12) 0.9220(8)
H106_3 H 0.1253 0.2395 0.9554
H107_3 H 0.1242 0.1694 0.9239
H108_3 H 0.1491 0.2387 0.9019
C85_3 C 0.0605(12) 0.3115(12) 0.8827(9)
H109_3 H 0.0967 0.3246 0.8705
H110_3 H 0.0304 0.3173 0.8561
H111_3 H 0.0529 0.3410 0.9107
C86_3 C 0.0486(8) 0.1926(10) 0.8554(7)
H112_3 H 0.0797 0.1929 0.8339
H113_3 H 0.0423 0.1454 0.8667
H114_3 H 0.0143 0.2097 0.8368
H104_3 H 0.9824 0.2250 0.9217
N8_4 N 0.4371(6) 0.7381(9) 0.6013(5)
C83_4 C 0.4793(10) 0.7272(19) 0.5621(9)
H103_4 H 0.4765 0.7657 0.5386
H104_4 H 0.5176 0.7250 0.5783
H105_4 H 0.4706 0.6838 0.5444
C84_4 C 0.3796(8) 0.7198(12) 0.5780(8)
H106_4 H 0.3747 0.7395 0.5446
H107_4 H 0.3758 0.6694 0.5761
H108_4 H 0.3509 0.7387 0.5981
C85_4 C 0.4395(12) 0.8115(12) 0.6173(9)
H109_4 H 0.4033 0.8246 0.6295
H110_4 H 0.4696 0.8173 0.6439
H111_4 H 0.4471 0.8410 0.5893
C86_4 C 0.4514(8) 0.6926(10) 0.6446(7)
H112_4 H 0.4203 0.6929 0.6661
H113_4 H 0.4577 0.6454 0.6333
H114_4 H 0.4857 0.7097 0.6632
loop_
_geom_bond_atom_site_label_1
_geom_bond_atom_site_label_2
_geom_bond_site_symmetry_1
_geom_bond_site_symmetry_2
O8 Zn2 1_555 1_555
O10 Zn2 1_555 1_555
O12 C17 1_555 1_555
O27 C25 1_555 1_555
O28 C25 1_555 1_555
O33 C51 1_555 1_555
O34 C51 1_555 1_555
C12 O7 1_555 1_555
C13 C12 1_555 1_555
C14 C13 1_555 1_555
H5 C14 1_555 1_555
C15 C13 1_555 1_555
H6 C15 1_555 1_555
C17 O10 1_555 1_555
C18 C17 1_555 1_555
C23 C18 1_555 1_555
H9 C23 1_555 1_555
C25 C53 1_555 1_555
C28 H10 1_555 1_555
C51 C54 1_555 1_555
C53 C15 1_555 1_555
C54 C14 1_555 1_555
Zn9 O28 1_555 1_555
Zn13 O33 1_555 1_555
O38 Zn2 1_555 1_555
O8 C12 1_555 1_555
C28 C53 1_555 1_555
C28 C54 1_555 1_555
Zn4 O13 1_555 1_555
O13 C26 1_555 1_555
O14 C26 1_555 1_555
O23 Zn4 1_555 1_555
O24 C46 1_555 1_555
H8 C21 1_555 1_555
C22 C21 1_555 1_555
C26 C22 1_555 1_555
H16 C43 1_555 1_555
C44 C43 1_555 1_555
C46 O23 1_555 1_555
O39 Zn4 1_555 1_555
O41 Zn4 1_555 1_555
C44 C46 1_555 1_555
Zn1 O1 1_555 1_555
O1 C1 1_555 1_555
O2 C1 1_555 1_555
O5 Zn1 1_555 1_555
O6 C3 1_555 1_555
O25 C36 1_555 1_555
O26 C36 1_555 1_555
O35 C48 1_555 1_555
O36 C48 1_555 1_555
C1 C2 1_555 1_555
C2 C4 1_555 1_555
C3 O5 1_555 1_555
C8 C2 1_555 1_555
H3 C8 1_555 1_555
C10 C3 1_555 1_555
C11 C10 1_555 1_555
H4 C11 1_555 1_555
H7 C19 1_555 1_555
C36 C37 1_555 1_555
C37 C38 1_555 1_555
C38 C10 1_555 1_555
H14 C38 1_555 1_555
C48 C49 1_555 1_555
C49 C11 1_555 1_555
C50 C37 1_555 1_555
H18 C50 1_555 1_555
Zn8 O26 1_555 1_555
Zn11 O36 1_555 1_555
O37 Zn1 1_555 1_555
C7 C8 1_555 1_555
C49 C50 1_555 1_555
O21 C52 1_555 1_555
O22 C52 1_555 1_555
C6 C5 1_555 1_555
H2 C6 1_555 1_555
C52 C5 1_555 1_555
Zn10 O21 1_555 1_555
Zn3 O16 1_555 1_555
Zn11 O29 1_555 1_555
O3 C9 1_555 1_555
O37 C9 1_555 1_555
O9 C16 1_555 1_555
O11 C16 1_555 1_555
O15 C24 1_555 1_555
O16 C24 1_555 1_555
O17 C27 1_555 1_555
O18 Zn3 1_555 1_555
O19 Zn3 1_555 1_555
O20 C39 1_555 1_555
O29 C35 1_555 1_555
O30 C35 1_555 1_555
O31 C47 1_555 1_555
O32 C47 1_555 1_555
C9 C42 1_555 1_555
C16 C31 1_555 1_555
C24 C20 1_555 1_555
C27 O18 1_555 1_555
C29 C27 1_555 1_555
C30 C29 1_555 1_555
H11 C30 1_555 1_555
C31 C30 1_555 1_555
C32 C31 1_555 1_555
H12 C32 1_555 1_555
C33 C32 1_555 1_555
C34 C29 1_555 1_555
H13 C34 1_555 1_555
C35 C33 1_555 1_555
C39 O19 1_555 1_555
C40 C39 1_555 1_555
C41 C40 1_555 1_555
H15 C41 1_555 1_555
C42 C41 1_555 1_555
C45 C40 1_555 1_555
H17 C45 1_555 1_555
Zn7 O9 1_555 1_555
O40 Zn3 1_555 1_555
O42 Zn11 1_555 1_555
O43 Zn11 1_555 1_555
C33 C34 1_555 1_555
Zn1_2 O1_2 1_555 1_555
Zn2_2 O6_2 1_555 1_555
Zn8 O16_2 1_555 1_555
Zn9 O13_2 1_555 1_555
O1_2 C1_2 1_555 1_555
O2_2 C1_2 1_555 1_555
O5_2 Zn1_2 1_555 1_555
O6_2 C3_2 1_555 1_555
O7_2 Zn1_2 1_555 1_555
O8_2 Zn2_2 1_555 1_555
O10_2 Zn2_2 1_555 1_555
O12_2 C17_2 1_555 1_555
O13_2 C26_2 1_555 1_555
O14_2 C26_2 1_555 1_555
O15_2 C24_2 1_555 1_555
O16_2 C24_2 1_555 1_555
O17_2 C27_2 1_555 1_555
O18_2 Zn8 1_555 1_555
O19_2 Zn8 1_555 1_555
O20_2 C39_2 1_555 1_555
O21_2 C52_2 1_555 1_555
O22_2 C52_2 1_555 1_555
O23_2 Zn9 1_555 1_555
O24_2 C46_2 1_555 1_555
O25_2 C36_2 1_555 1_555
O40 C36_2 1_555 1_555
O27_2 C25_2 1_555 1_555
O41 C25_2 1_555 1_555
O30_2 C35_2 1_555 1_555
O42 C47_2 1_555 1_555
O32_2 C47_2 1_555 1_555
O33_2 C51_2 1_555 1_555
O34_2 C51_2 1_555 1_555
O35_2 C48_2 1_555 1_555
O36_2 C48_2 1_555 1_555
C1_2 C2_2 1_555 1_555
C2_2 C4_2 1_555 1_555
C3_2 O5_2 1_555 1_555
C4_2 H1_2 1_555 1_555
C5_2 C4_2 1_555 1_555
C6_2 C5_2 1_555 1_555
H2_2 C6_2 1_555 1_555
C7_2 C6_2 1_555 1_555
C8_2 C2_2 1_555 1_555
H3_2 C8_2 1_555 1_555
C10_2 C3_2 1_555 1_555
C11_2 C10_2 1_555 1_555
H4_2 C11_2 1_555 1_555
C12_2 O7_2 1_555 1_555
C13_2 C12_2 1_555 1_555
C14_2 C13_2 1_555 1_555
H5_2 C14_2 1_555 1_555
C15_2 C13_2 1_555 1_555
H6_2 C15_2 1_555 1_555
C17_2 O10_2 1_555 1_555
C18_2 C17_2 1_555 1_555
C19_2 C18_2 1_555 1_555
H7_2 C19_2 1_555 1_555
C20_2 C19_2 1_555 1_555
C21_2 C20_2 1_555 1_555
H8_2 C21_2 1_555 1_555
C22_2 C21_2 1_555 1_555
C23_2 C18_2 1_555 1_555
H9_2 C23_2 1_555 1_555
C24_2 C20_2 1_555 1_555
C25_2 C53_2 1_555 1_555
C26_2 C22_2 1_555 1_555
C27_2 O18_2 1_555 1_555
C28_2 H10_2 1_555 1_555
C29_2 C27_2 1_555 1_555
C34_2 C29_2 1_555 1_555
H13_2 C34_2 1_555 1_555
C35_2 C33_2 1_555 1_555
C36_2 C37_2 1_555 1_555
C37_2 C38_2 1_555 1_555
C38_2 C10_2 1_555 1_555
H14_2 C38_2 1_555 1_555
C39_2 O19_2 1_555 1_555
C40_2 C39_2 1_555 1_555
C41_2 C40_2 1_555 1_555
H15_2 C41_2 1_555 1_555
C44_2 C43_2 1_555 1_555
C45_2 C40_2 1_555 1_555
H17_2 C45_2 1_555 1_555
C46_2 O23_2 1_555 1_555
C47_2 C7_2 1_555 1_555
C48_2 C49_2 1_555 1_555
C49_2 C11_2 1_555 1_555
C50_2 C37_2 1_555 1_555
H18_2 C50_2 1_555 1_555
C51_2 C54_2 1_555 1_555
C52_2 C5_2 1_555 1_555
C53_2 C15_2 1_555 1_555
C54_2 C14_2 1_555 1_555
Zn10_2 O21_2 1_555 1_555
Zn13_2 O33_2 1_555 1_555
O37_2 Zn1_2 1_555 1_555
O38_2 Zn2_2 1_555 1_555
O39_2 Zn9 1_555 1_555
O8_2 C12_2 1_555 1_555
C7_2 C8_2 1_555 1_555
C22_2 C23_2 1_555 1_555
C28_2 C53_2 1_555 1_555
C28_2 C54_2 1_555 1_555
C33_2 C34_2 1_555 1_555
C44_2 C45_2 1_555 1_555
C44_2 C46_2 1_555 1_555
C49_2 C50_2 1_555 1_555
O9_2 C16_2 1_555 1_555
O11_2 C16_2 1_555 1_555
C16_2 C31_2 1_555 1_555
H11_2 C30_2 1_555 1_555
C31_2 C30_2 1_555 1_555
C32_2 C31_2 1_555 1_555
H12_2 C32_2 1_555 1_555
Zn7_2 O9_2 1_555 1_555
O3_2 C9_2 1_555 1_555
O37_2 C9_2 1_555 1_555
C9_2 C42_2 1_555 1_555
Zn12 O29_2 1_555 1_555
O43_2 Zn12 1_555 1_555
Zn3_2 O16_3 1_555 1_555
Zn13_2 O29_3 1_555 1_555
O3_3 C9_3 1_555 1_555
O4 C9_3 1_555 1_555
O38 C16_3 1_555 1_555
O11_3 C16_3 1_555 1_555
O15_3 C24_3 1_555 1_555
O16_3 C24_3 1_555 1_555
O17_3 C27_3 1_555 1_555
O18_3 Zn3_2 1_555 1_555
O19_3 Zn3_2 1_555 1_555
O20_3 C39_3 1_555 1_555
O29_3 C35_3 1_555 1_555
O30_3 C35_3 1_555 1_555
O31_2 C47_3 1_555 1_555
O32_3 C47_3 1_555 1_555
C9_3 C42_3 1_555 1_555
C16_3 C31_3 1_555 1_555
C24_3 C20_3 1_555 1_555
C27_3 O18_3 1_555 1_555
C29_3 C27_3 1_555 1_555
C30_3 C29_3 1_555 1_555
H11_3 C30_3 1_555 1_555
C31_3 C30_3 1_555 1_555
C32_3 C31_3 1_555 1_555
H12_3 C32_3 1_555 1_555
C33_3 C32_3 1_555 1_555
C34_3 C29_3 1_555 1_555
H13_3 C34_3 1_555 1_555
C35_3 C33_3 1_555 1_555
C39_3 O19_3 1_555 1_555
C40_3 C39_3 1_555 1_555
C41_3 C40_3 1_555 1_555
H15_3 C41_3 1_555 1_555
C42_3 C41_3 1_555 1_555
C45_3 C40_3 1_555 1_555
H17_3 C45_3 1_555 1_555
Zn6 O4 1_555 1_555
O40_2 Zn3_2 1_555 1_555
O42_2 Zn13_2 1_555 1_555
O44 Zn13_2 1_555 1_555
C33_3 C34_3 1_555 1_555
O39 C52_3 1_555 1_555
O22_3 C52_3 1_555 1_555
C6_3 C5_3 1_555 1_555
H2_3 C6_3 1_555 1_555
C52_3 C5_3 1_555 1_555
Zn6 O1_3 1_555 1_555
O1_3 C1_3 1_555 1_555
O2_3 C1_3 1_555 1_555
O5_3 Zn6 1_555 1_555
O6_3 C3_3 1_555 1_555
O25_3 C36_3 1_555 1_555
O26_2 C36_3 1_555 1_555
O35_3 C48_3 1_555 1_555
O44 C48_3 1_555 1_555
C1_3 C2_3 1_555 1_555
C2_3 C4_3 1_555 1_555
C3_3 O5_3 1_555 1_555
C8_3 C2_3 1_555 1_555
H3_3 C8_3 1_555 1_555
C10_3 C3_3 1_555 1_555
C11_3 C10_3 1_555 1_555
H4_3 C11_3 1_555 1_555
H7_3 C19_3 1_555 1_555
C36_3 C37_3 1_555 1_555
C37_3 C38_3 1_555 1_555
C38_3 C10_3 1_555 1_555
H14_3 C38_3 1_555 1_555
C48_3 C49_3 1_555 1_555
C49_3 C11_3 1_555 1_555
C50_3 C37_3 1_555 1_555
H18_3 C50_3 1_555 1_555
Zn8_2 O26_2 1_555 1_555
C7_3 C8_3 1_555 1_555
C49_3 C50_3 1_555 1_555
Zn10 O13_3 1_555 1_555
O13_3 C26_3 1_555 1_555
O14_3 C26_3 1_555 1_555
O23_3 Zn10 1_555 1_555
O24_3 C46_3 1_555 1_555
H8_3 C21_3 1_555 1_555
C22_3 C21_3 1_555 1_555
C26_3 C22_3 1_555 1_555
H16_3 C43_3 1_555 1_555
C44_3 C43_3 1_555 1_555
C46_3 O23_3 1_555 1_555
O41_2 Zn10 1_555 1_555
C44_3 C46_3 1_555 1_555
O8_3 Zn7 1_555 1_555
O10_3 Zn7 1_555 1_555
O12_3 C17_3 1_555 1_555
O27_3 C25_3 1_555 1_555
O28_2 C25_3 1_555 1_555
O43_2 C51_3 1_555 1_555
O34_3 C51_3 1_555 1_555
C12_3 O7_3 1_555 1_555
C13_3 C12_3 1_555 1_555
C14_3 C13_3 1_555 1_555
H5_3 C14_3 1_555 1_555
C15_3 C13_3 1_555 1_555
H6_3 C15_3 1_555 1_555
C17_3 O10_3 1_555 1_555
C18_3 C17_3 1_555 1_555
C23_3 C18_3 1_555 1_555
H9_3 C23_3 1_555 1_555
C25_3 C53_3 1_555 1_555
C28_3 H10_3 1_555 1_555
C51_3 C54_3 1_555 1_555
C53_3 C15_3 1_555 1_555
C54_3 C14_3 1_555 1_555
Zn10_2 O28_2 1_555 1_555
O8_3 C12_3 1_555 1_555
C28_3 C53_3 1_555 1_555
C28_3 C54_3 1_555 1_555
Zn13 O29_4 1_555 1_555
O3_4 C9_4 1_555 1_555
O4_2 C9_4 1_555 1_555
C9_4 C42_4 1_555 1_555
Zn6_2 O4_2 1_555 1_555
O38_2 C16_4 1_555 1_555
O11_4 C16_4 1_555 1_555
C16_4 C31_4 1_555 1_555
H11_4 C30_4 1_555 1_555
C31_4 C30_4 1_555 1_555
C32_4 C31_4 1_555 1_555
H12_4 C32_4 1_555 1_555
Zn6_2 O1_4 1_555 1_555
Zn7_2 O6_4 1_555 1_555
Zn8_2 O16_4 1_555 1_555
Zn10_2 O13_4 1_555 1_555
O1_4 C1_4 1_555 1_555
O2_4 C1_4 1_555 1_555
O5_4 Zn6_2 1_555 1_555
O6_4 C3_4 1_555 1_555
O7_4 Zn6_2 1_555 1_555
O8_4 Zn7_2 1_555 1_555
O10_4 Zn7_2 1_555 1_555
O12_4 C17_4 1_555 1_555
O13_4 C26_4 1_555 1_555
O14_4 C26_4 1_555 1_555
O15_4 C24_4 1_555 1_555
O16_4 C24_4 1_555 1_555
O17_4 C27_4 1_555 1_555
O18_4 Zn8_2 1_555 1_555
O19_4 Zn8_2 1_555 1_555
O20_4 C39_4 1_555 1_555
O39_2 C52_4 1_555 1_555
O22_4 C52_4 1_555 1_555
O23_4 Zn10_2 1_555 1_555
O24_4 C46_4 1_555 1_555
O25_4 C36_4 1_555 1_555
O40_2 C36_4 1_555 1_555
O27_4 C25_4 1_555 1_555
O41_2 C25_4 1_555 1_555
O30_4 C35_4 1_555 1_555
O42_2 C47_4 1_555 1_555
O32_4 C47_4 1_555 1_555
O43 C51_4 1_555 1_555
O34_4 C51_4 1_555 1_555
O35_4 C48_4 1_555 1_555
O44_2 C48_4 1_555 1_555
C1_4 C2_4 1_555 1_555
C2_4 C4_4 1_555 1_555
C3_4 O5_4 1_555 1_555
C4_4 H1_4 1_555 1_555
C5_4 C4_4 1_555 1_555
C6_4 C5_4 1_555 1_555
H2_4 C6_4 1_555 1_555
C7_4 C6_4 1_555 1_555
C8_4 C2_4 1_555 1_555
H3_4 C8_4 1_555 1_555
C10_4 C3_4 1_555 1_555
C11_4 C10_4 1_555 1_555
H4_4 C11_4 1_555 1_555
C12_4 O7_4 1_555 1_555
C13_4 C12_4 1_555 1_555
C14_4 C13_4 1_555 1_555
H5_4 C14_4 1_555 1_555
C15_4 C13_4 1_555 1_555
H6_4 C15_4 1_555 1_555
C17_4 O10_4 1_555 1_555
C18_4 C17_4 1_555 1_555
C19_4 C18_4 1_555 1_555
H7_4 C19_4 1_555 1_555
C20_4 C19_4 1_555 1_555
C21_4 C20_4 1_555 1_555
H8_4 C21_4 1_555 1_555
C22_4 C21_4 1_555 1_555
C23_4 C18_4 1_555 1_555
H9_4 C23_4 1_555 1_555
C24_4 C20_4 1_555 1_555
C25_4 C53_4 1_555 1_555
C26_4 C22_4 1_555 1_555
C27_4 O18_4 1_555 1_555
C28_4 H10_4 1_555 1_555
C29_4 C27_4 1_555 1_555
C34_4 C29_4 1_555 1_555
H13_4 C34_4 1_555 1_555
C35_4 C33_4 1_555 1_555
C36_4 C37_4 1_555 1_555
C37_4 C38_4 1_555 1_555
C38_4 C10_4 1_555 1_555
H14_4 C38_4 1_555 1_555
C39_4 O19_4 1_555 1_555
C40_4 C39_4 1_555 1_555
C41_4 C40_4 1_555 1_555
H15_4 C41_4 1_555 1_555
C44_4 C43_4 1_555 1_555
C45_4 C40_4 1_555 1_555
H17_4 C45_4 1_555 1_555
C46_4 O23_4 1_555 1_555
C47_4 C7_4 1_555 1_555
C48_4 C49_4 1_555 1_555
C49_4 C11_4 1_555 1_555
C50_4 C37_4 1_555 1_555
H18_4 C50_4 1_555 1_555
C51_4 C54_4 1_555 1_555
C52_4 C5_4 1_555 1_555
C53_4 C15_4 1_555 1_555
C54_4 C14_4 1_555 1_555
O8_4 C12_4 1_555 1_555
C7_4 C8_4 1_555 1_555
C22_4 C23_4 1_555 1_555
C28_4 C53_4 1_555 1_555
C28_4 C54_4 1_555 1_555
C33_4 C34_4 1_555 1_555
C44_4 C45_4 1_555 1_555
C44_4 C46_4 1_555 1_555
C49_4 C50_4 1_555 1_555
H25 C57 1_555 1_555
H26 C57 1_555 1_555
H28 C58 1_555 1_555
H29 C58 1_555 1_555
H30 C58 1_555 1_555
N1 C55 1_555 1_555
C55 H19 1_555 1_555
H20 C55 1_555 1_555
H21 C55 1_555 1_555
C56 N1 1_555 1_555
H22 C56 1_555 1_555
H23 C56 1_555 1_555
H24 C56 1_555 1_555
N1_2 C55_2 1_555 1_555
C55_2 H19_2 1_555 1_555
H20_2 C55_2 1_555 1_555
H21_2 C55_2 1_555 1_555
C56_2 N1_2 1_555 1_555
H22_2 C56_2 1_555 1_555
H23_2 C56_2 1_555 1_555
H24_2 C56_2 1_555 1_555
C57_2 N1_2 1_555 1_555
H25_2 C57_2 1_555 1_555
H26_2 C57_2 1_555 1_555
H27_2 C57_2 1_555 1_555
C58_2 N1_2 1_555 1_555
H28_2 C58_2 1_555 1_555
H29_2 C58_2 1_555 1_555
H30_2 C58_2 1_555 1_555
N1_3 C55_3 1_555 1_555
C55_3 H19_3 1_555 1_555
H20_3 C55_3 1_555 1_555
H21_3 C55_3 1_555 1_555
C56_3 N1_3 1_555 1_555
H22_3 C56_3 1_555 1_555
H23_3 C56_3 1_555 1_555
H24_3 C56_3 1_555 1_555
H25_3 C57_3 1_555 1_555
H26_3 C57_3 1_555 1_555
H28_3 C58_3 1_555 1_555
H29_3 C58_3 1_555 1_555
H30_3 C58_3 1_555 1_555
N1_4 C55_4 1_555 1_555
C55_4 H19_4 1_555 1_555
H20_4 C55_4 1_555 1_555
H21_4 C55_4 1_555 1_555
C56_4 N1_4 1_555 1_555
H22_4 C56_4 1_555 1_555
H23_4 C56_4 1_555 1_555
H24_4 C56_4 1_555 1_555
C57_4 N1_4 1_555 1_555
H25_4 C57_4 1_555 1_555
H26_4 C57_4 1_555 1_555
H27_4 C57_4 1_555 1_555
C58_4 N1_4 1_555 1_555
H28_4 C58_4 1_555 1_555
H29_4 C58_4 1_555 1_555
H30_4 C58_4 1_555 1_555
N2 C59 1_555 1_555
C59 H31 1_555 1_555
H32 C59 1_555 1_555
H33 C59 1_555 1_555
C60 N2 1_555 1_555
H34 C60 1_555 1_555
H35 C60 1_555 1_555
C61 N2 1_555 1_555
H37 C61 1_555 1_555
H38 C61 1_555 1_555
H39 C61 1_555 1_555
C62 N2 1_555 1_555
H40 C62 1_555 1_555
H41 C62 1_555 1_555
N2_2 C59_2 1_555 1_555
C59_2 H31_2 1_555 1_555
H33_2 C59_2 1_555 1_555
C60_2 N2_2 1_555 1_555
H34_2 C60_2 1_555 1_555
H35_2 C60_2 1_555 1_555
H36_2 C60_2 1_555 1_555
H37_2 C61_2 1_555 1_555
H38_2 C61_2 1_555 1_555
H39_2 C61_2 1_555 1_555
H41_2 C62_2 1_555 1_555
N2_3 C59_3 1_555 1_555
C59_3 H31_3 1_555 1_555
H32_3 C59_3 1_555 1_555
H33_3 C59_3 1_555 1_555
C60_3 N2_3 1_555 1_555
H34_3 C60_3 1_555 1_555
H35_3 C60_3 1_555 1_555
C61_3 N2_3 1_555 1_555
H37_3 C61_3 1_555 1_555
H38_3 C61_3 1_555 1_555
H39_3 C61_3 1_555 1_555
C62_3 N2_3 1_555 1_555
H40_3 C62_3 1_555 1_555
H41_3 C62_3 1_555 1_555
H37_4 C61_4 1_555 1_555
H38_4 C61_4 1_555 1_555
H39_4 C61_4 1_555 1_555
H41_4 C62_4 1_555 1_555
N2_4 C59_4 1_555 1_555
C59_4 H31_4 1_555 1_555
H33_4 C59_4 1_555 1_555
C60_4 N2_4 1_555 1_555
H34_4 C60_4 1_555 1_555
H35_4 C60_4 1_555 1_555
H36_4 C60_4 1_555 1_555
N3 C63 1_555 1_555
C63 H43 1_555 1_555
H44 C63 1_555 1_555
H45 C63 1_555 1_555
C64 N3 1_555 1_555
H46 C64 1_555 1_555
H47 C64 1_555 1_555
H48 C64 1_555 1_555
C65 N3 1_555 1_555
H49 C65 1_555 1_555
H50 C65 1_555 1_555
H51 C65 1_555 1_555
C66 N3 1_555 1_555
H52 C66 1_555 1_555
H53 C66 1_555 1_555
H54 C66 1_555 1_555
N3_2 C63_2 1_555 1_555
C63_2 H43_2 1_555 1_555
H44_2 C63_2 1_555 1_555
H45_2 C63_2 1_555 1_555
C64_2 N3_2 1_555 1_555
H46_2 C64_2 1_555 1_555
H47_2 C64_2 1_555 1_555
H48_2 C64_2 1_555 1_555
C65_2 N3_2 1_555 1_555
H49_2 C65_2 1_555 1_555
H50_2 C65_2 1_555 1_555
H51_2 C65_2 1_555 1_555
C66_2 N3_2 1_555 1_555
H52_2 C66_2 1_555 1_555
H53_2 C66_2 1_555 1_555
H54_2 C66_2 1_555 1_555
N3_3 C63_3 1_555 1_555
C63_3 H43_3 1_555 1_555
H44_3 C63_3 1_555 1_555
H45_3 C63_3 1_555 1_555
C64_3 N3_3 1_555 1_555
H46_3 C64_3 1_555 1_555
H47_3 C64_3 1_555 1_555
H48_3 C64_3 1_555 1_555
C65_3 N3_3 1_555 1_555
H49_3 C65_3 1_555 1_555
H50_3 C65_3 1_555 1_555
H51_3 C65_3 1_555 1_555
C66_3 N3_3 1_555 1_555
H52_3 C66_3 1_555 1_555
H53_3 C66_3 1_555 1_555
H54_3 C66_3 1_555 1_555
N3_4 C63_4 1_555 1_555
C63_4 H43_4 1_555 1_555
H44_4 C63_4 1_555 1_555
H45_4 C63_4 1_555 1_555
C64_4 N3_4 1_555 1_555
H46_4 C64_4 1_555 1_555
H47_4 C64_4 1_555 1_555
H48_4 C64_4 1_555 1_555
C65_4 N3_4 1_555 1_555
H49_4 C65_4 1_555 1_555
H50_4 C65_4 1_555 1_555
H51_4 C65_4 1_555 1_555
C66_4 N3_4 1_555 1_555
H52_4 C66_4 1_555 1_555
H53_4 C66_4 1_555 1_555
H54_4 C66_4 1_555 1_555
N4 C67 1_555 1_555
C67 H55 1_555 1_555
H56 C67 1_555 1_555
H57 C67 1_555 1_555
C68 N4 1_555 1_555
H58 C68 1_555 1_555
H59 C68 1_555 1_555
H60 C68 1_555 1_555
C69 N4 1_555 1_555
H61 C69 1_555 1_555
H62 C69 1_555 1_555
H63 C69 1_555 1_555
C70 N4 1_555 1_555
H64 C70 1_555 1_555
H65 C70 1_555 1_555
H66 C70 1_555 1_555
N4_2 C67_2 1_555 1_555
C67_2 H55_2 1_555 1_555
H56_2 C67_2 1_555 1_555
H57_2 C67_2 1_555 1_555
C68_2 N4_2 1_555 1_555
H58_2 C68_2 1_555 1_555
H59_2 C68_2 1_555 1_555
H60_2 C68_2 1_555 1_555
C69_2 N4_2 1_555 1_555
H61_2 C69_2 1_555 1_555
H62_2 C69_2 1_555 1_555
H63_2 C69_2 1_555 1_555
C70_2 N4_2 1_555 1_555
H64_2 C70_2 1_555 1_555
H65_2 C70_2 1_555 1_555
H66_2 C70_2 1_555 1_555
N4_3 C67_3 1_555 1_555
C67_3 H55_3 1_555 1_555
H56_3 C67_3 1_555 1_555
H57_3 C67_3 1_555 1_555
C68_3 N4_3 1_555 1_555
H58_3 C68_3 1_555 1_555
H59_3 C68_3 1_555 1_555
H60_3 C68_3 1_555 1_555
C69_3 N4_3 1_555 1_555
H61_3 C69_3 1_555 1_555
H62_3 C69_3 1_555 1_555
H63_3 C69_3 1_555 1_555
C70_3 N4_3 1_555 1_555
H64_3 C70_3 1_555 1_555
H65_3 C70_3 1_555 1_555
H66_3 C70_3 1_555 1_555
N4_4 C67_4 1_555 1_555
C67_4 H55_4 1_555 1_555
H56_4 C67_4 1_555 1_555
H57_4 C67_4 1_555 1_555
C68_4 N4_4 1_555 1_555
H58_4 C68_4 1_555 1_555
H59_4 C68_4 1_555 1_555
H60_4 C68_4 1_555 1_555
C69_4 N4_4 1_555 1_555
H61_4 C69_4 1_555 1_555
H62_4 C69_4 1_555 1_555
H63_4 C69_4 1_555 1_555
C70_4 N4_4 1_555 1_555
H64_4 C70_4 1_555 1_555
H65_4 C70_4 1_555 1_555
H66_4 C70_4 1_555 1_555
N5 C71 1_555 1_555
C71 H67 1_555 1_555
H68 C71 1_555 1_555
H69 C71 1_555 1_555
C72 N5 1_555 1_555
H70 C72 1_555 1_555
H71 C72 1_555 1_555
H72 C72 1_555 1_555
C73 N5 1_555 1_555
H73 C73 1_555 1_555
H74 C73 1_555 1_555
H75 C73 1_555 1_555
C74 N5 1_555 1_555
H76 C74 1_555 1_555
H77 C74 1_555 1_555
H78 C74 1_555 1_555
N5_2 C71_2 1_555 1_555
C71_2 H67_2 1_555 1_555
H68_2 C71_2 1_555 1_555
H69_2 C71_2 1_555 1_555
C72_2 N5_2 1_555 1_555
H70_2 C72_2 1_555 1_555
C73_2 N5_2 1_555 1_555
H73_2 C73_2 1_555 1_555
H74_2 C73_2 1_555 1_555
H75_2 C73_2 1_555 1_555
C74_2 N5_2 1_555 1_555
H76_2 C74_2 1_555 1_555
H77_2 C74_2 1_555 1_555
H78_2 C74_2 1_555 1_555
N5_3 C71_3 1_555 1_555
C71_3 H67_3 1_555 1_555
H68_3 C71_3 1_555 1_555
H69_3 C71_3 1_555 1_555
C72_3 N5_3 1_555 1_555
H70_3 C72_3 1_555 1_555
H71_3 C72_3 1_555 1_555
H72_3 C72_3 1_555 1_555
C73_3 N5_3 1_555 1_555
H73_3 C73_3 1_555 1_555
H74_3 C73_3 1_555 1_555
H75_3 C73_3 1_555 1_555
C74_3 N5_3 1_555 1_555
H76_3 C74_3 1_555 1_555
H77_3 C74_3 1_555 1_555
H78_3 C74_3 1_555 1_555
N5_4 C71_4 1_555 1_555
C71_4 H67_4 1_555 1_555
H68_4 C71_4 1_555 1_555
H69_4 C71_4 1_555 1_555
C72_4 N5_4 1_555 1_555
H70_4 C72_4 1_555 1_555
C73_4 N5_4 1_555 1_555
H73_4 C73_4 1_555 1_555
H74_4 C73_4 1_555 1_555
H75_4 C73_4 1_555 1_555
C74_4 N5_4 1_555 1_555
H76_4 C74_4 1_555 1_555
H77_4 C74_4 1_555 1_555
H78_4 C74_4 1_555 1_555
N6 C75 1_555 1_555
C75 H79 1_555 1_555
H80 C75 1_555 1_555
H81 C75 1_555 1_555
C76 N6 1_555 1_555
H82 C76 1_555 1_555
H84 C76 1_555 1_555
C78 N6 1_555 1_555
H88 C78 1_555 1_555
H89 C78 1_555 1_555
H90 C78 1_555 1_555
H85 C77 1_555 1_555
H87 C77 1_555 1_555
N6_2 C75_2 1_555 1_555
C75_2 H79_2 1_555 1_555
H80_2 C75_2 1_555 1_555
H81_2 C75_2 1_555 1_555
C76_2 N6_2 1_555 1_555
H82_2 C76_2 1_555 1_555
H83_2 C76_2 1_555 1_555
H84_2 C76_2 1_555 1_555
C77_2 N6_2 1_555 1_555
H85_2 C77_2 1_555 1_555
H86_2 C77_2 1_555 1_555
H87_2 C77_2 1_555 1_555
C78_2 N6_2 1_555 1_555
H88_2 C78_2 1_555 1_555
H89_2 C78_2 1_555 1_555
H90_2 C78_2 1_555 1_555
H85_3 C77_3 1_555 1_555
H87_3 C77_3 1_555 1_555
N6_3 C75_3 1_555 1_555
C75_3 H79_3 1_555 1_555
H80_3 C75_3 1_555 1_555
H81_3 C75_3 1_555 1_555
C76_3 N6_3 1_555 1_555
H82_3 C76_3 1_555 1_555
H84_3 C76_3 1_555 1_555
C78_3 N6_3 1_555 1_555
H88_3 C78_3 1_555 1_555
H89_3 C78_3 1_555 1_555
H90_3 C78_3 1_555 1_555
N6_4 C75_4 1_555 1_555
C75_4 H79_4 1_555 1_555
H80_4 C75_4 1_555 1_555
H81_4 C75_4 1_555 1_555
C76_4 N6_4 1_555 1_555
H82_4 C76_4 1_555 1_555
H83_4 C76_4 1_555 1_555
H84_4 C76_4 1_555 1_555
C77_4 N6_4 1_555 1_555
H85_4 C77_4 1_555 1_555
H86_4 C77_4 1_555 1_555
H87_4 C77_4 1_555 1_555
C78_4 N6_4 1_555 1_555
H88_4 C78_4 1_555 1_555
H89_4 C78_4 1_555 1_555
H90_4 C78_4 1_555 1_555
N7 C79 1_555 1_555
C79 H91 1_555 1_555
H92 C79 1_555 1_555
H93 C79 1_555 1_555
C80 N7 1_555 1_555
H94 C80 1_555 1_555
H95 C80 1_555 1_555
H96 C80 1_555 1_555
C81 N7 1_555 1_555
H97 C81 1_555 1_555
H98 C81 1_555 1_555
H99 C81 1_555 1_555
C82 N7 1_555 1_555
H100 C82 1_555 1_555
H101 C82 1_555 1_555
H102 C82 1_555 1_555
N7_2 C79_2 1_555 1_555
C79_2 H91_2 1_555 1_555
H92_2 C79_2 1_555 1_555
H93_2 C79_2 1_555 1_555
C80_2 N7_2 1_555 1_555
H94_2 C80_2 1_555 1_555
H95_2 C80_2 1_555 1_555
H96_2 C80_2 1_555 1_555
C81_2 N7_2 1_555 1_555
H97_2 C81_2 1_555 1_555
H98_2 C81_2 1_555 1_555
H99_2 C81_2 1_555 1_555
C82_2 N7_2 1_555 1_555
H100_2 C82_2 1_555 1_555
H101_2 C82_2 1_555 1_555
H102_2 C82_2 1_555 1_555
N7_3 C79_3 1_555 1_555
C79_3 H91_3 1_555 1_555
H92_3 C79_3 1_555 1_555
H93_3 C79_3 1_555 1_555
C80_3 N7_3 1_555 1_555
H94_3 C80_3 1_555 1_555
H95_3 C80_3 1_555 1_555
H96_3 C80_3 1_555 1_555
C81_3 N7_3 1_555 1_555
H97_3 C81_3 1_555 1_555
H98_3 C81_3 1_555 1_555
H99_3 C81_3 1_555 1_555
C82_3 N7_3 1_555 1_555
H100_3 C82_3 1_555 1_555
H101_3 C82_3 1_555 1_555
H102_3 C82_3 1_555 1_555
N7_4 C79_4 1_555 1_555
C79_4 H91_4 1_555 1_555
H92_4 C79_4 1_555 1_555
H93_4 C79_4 1_555 1_555
C80_4 N7_4 1_555 1_555
H94_4 C80_4 1_555 1_555
H95_4 C80_4 1_555 1_555
H96_4 C80_4 1_555 1_555
C81_4 N7_4 1_555 1_555
H97_4 C81_4 1_555 1_555
H98_4 C81_4 1_555 1_555
H99_4 C81_4 1_555 1_555
C82_4 N7_4 1_555 1_555
H100_4 C82_4 1_555 1_555
H101_4 C82_4 1_555 1_555
H102_4 C82_4 1_555 1_555
N8 C83 1_555 1_555
C83 H103 1_555 1_555
H105 C83 1_555 1_555
C84 N8 1_555 1_555
H106 C84 1_555 1_555
H107 C84 1_555 1_555
H108 C84 1_555 1_555
C85 N8 1_555 1_555
H109 C85 1_555 1_555
H110 C85 1_555 1_555
H111 C85 1_555 1_555
C86 N8 1_555 1_555
H112 C86 1_555 1_555
H113 C86 1_555 1_555
H114 C86 1_555 1_555
N8_2 C83_2 1_555 1_555
C83_2 H103_2 1_555 1_555
H104_2 C83_2 1_555 1_555
H105_2 C83_2 1_555 1_555
C84_2 N8_2 1_555 1_555
H106_2 C84_2 1_555 1_555
H107_2 C84_2 1_555 1_555
H108_2 C84_2 1_555 1_555
C85_2 N8_2 1_555 1_555
H109_2 C85_2 1_555 1_555
H110_2 C85_2 1_555 1_555
H111_2 C85_2 1_555 1_555
C86_2 N8_2 1_555 1_555
H112_2 C86_2 1_555 1_555
H113_2 C86_2 1_555 1_555
H114_2 C86_2 1_555 1_555
N8_3 C83_3 1_555 1_555
C83_3 H103_3 1_555 1_555
H105_3 C83_3 1_555 1_555
C84_3 N8_3 1_555 1_555
H106_3 C84_3 1_555 1_555
H107_3 C84_3 1_555 1_555
H108_3 C84_3 1_555 1_555
C85_3 N8_3 1_555 1_555
H109_3 C85_3 1_555 1_555
H110_3 C85_3 1_555 1_555
H111_3 C85_3 1_555 1_555
C86_3 N8_3 1_555 1_555
H112_3 C86_3 1_555 1_555
H113_3 C86_3 1_555 1_555
H114_3 C86_3 1_555 1_555
N8_4 C83_4 1_555 1_555
C83_4 H103_4 1_555 1_555
H104_4 C83_4 1_555 1_555
H105_4 C83_4 1_555 1_555
C84_4 N8_4 1_555 1_555
H106_4 C84_4 1_555 1_555
H107_4 C84_4 1_555 1_555
H108_4 C84_4 1_555 1_555
C85_4 N8_4 1_555 1_555
H109_4 C85_4 1_555 1_555
H110_4 C85_4 1_555 1_555
H111_4 C85_4 1_555 1_555
C86_4 N8_4 1_555 1_555
H112_4 C86_4 1_555 1_555
H113_4 C86_4 1_555 1_555
H114_4 C86_4 1_555 1_555

#END
