
###############################################################################
#
# This file contains modified crystal structure data generated from the
# MOF subset of the Cambridge Structural Database (CSD) v543 
# hosted by the Cambridge Crystallographic Data Centre (CCDC).
#
# This work is licensed under the Creative Commons
# Attribution-NonCommercial-ShareAlike 4.0 International License.
# To view a copy of this license, visit
# http://creativecommons.org/licenses/by-nc-sa/4.0/
# or send a letter to
# Creative Commons, PO Box 1866, Mountain View, CA 94042, USA.
#
# CIF created using the CSD Python API on 29 September 2022
# The structure has been converted into the P1 space group
# The structure has a 3D framework
# The original CSD entry FUVKEP is in the hexagonal crystal system
# The framework has been calculated to contain at least 10.0% void space
# The void calculation uses a probe of radius 1.32A, grid spacing 0.4
#
###############################################################################

data_FUVKEP
_chemical_formula_moiety         '(C170 H113 Co20 N26 O41)n'
_symmetry_cell_setting           triclinic
_symmetry_space_group_name_H-M   'P 1'
_symmetry_Int_Tables_number      1
_space_group_name_Hall           'P 1'
loop_
_symmetry_equiv_pos_site_id
_symmetry_equiv_pos_as_xyz
1 x,y,z
_cell_length_a                   17.7315(9)
_cell_length_b                   17.7315(9)
_cell_length_c                   26.666(3)
_cell_angle_alpha                90
_cell_angle_beta                 90
_cell_angle_gamma                120
_cell_volume                     7260.72
loop_
_atom_site_label
_atom_site_type_symbol
_atom_site_fract_x
_atom_site_fract_y
_atom_site_fract_z
Co1 Co -0.000000 0.12914(4) 0.46102(3)
N1 N -0.000000 0.1439(4) 0.3823(2)
C3 C 0.000000 0.1537(7) 0.2776(3)
N3 N 0.000000 0.14390(40) 0.1177(2)
C25 C 0.000000 0.15370(70) 0.2224(3)
C26 C 0.0702(6) 0.1825(9) 0.1435(3)
H16 H 0.122504 0.208173 0.125903
C27 C 0.0752(6) 0.1894(9) 0.1955(3)
H17 H 0.128936 0.217900 0.211615
C30 C 0.0702(6) 0.1825(9) 0.3565(3)
H20 H 0.122504 0.208173 0.374097
C31 C 0.0752(6) 0.1894(9) 0.3045(3)
H21 H 0.128936 0.217900 0.288385
O16 O -0.000000 0.0981(2) 0.53896(12)
H52 H -0.000000 0.146254 0.556960
O17 O 0.09810(20) 0.000000 0.53896(12)
H53 H 0.146254 0.000000 0.556960
Co6 Co 0.129140(40) 0.12914(4) 0.53898(3)
Co11 Co 0.129140(40) 0.000000 0.46102(3)
Co14 Co -0.000000 0.129140(40) 0.03898(3)
Co18 Co -0.000000 0.870860(40) 0.53898(3)
O20 O 0.09810(20) 0.0981(2) 0.46104(12)
O22 O 0.2582(3) 0.1663(2) 0.53390(11)
O24 O 0.1663(2) 0.2582(3) 0.53390(11)
O28 O 0.0919(2) 0.2582(3) 0.46610(11)
N10 N 0.14390(40) 0.1439(4) 0.6177(2)
O8 O 0.000000 0.90190(20) 0.46104(12)
H22 H -0.000000 0.853746 0.443040
O17_2 O 0.09810(20) 1.000000 0.53896(12)
H53_2 H 0.146254 1.000000 0.556960
Co11_2 Co 0.129140(40) 1.000000 0.46102(3)
O23 O 0.0919(2) 0.8337(2) 0.53390(11)
N11 N -0.000000 0.85610(40) 0.6177(2)
Co1_2 Co 1.000000 0.12914(4) 0.46102(3)
O1 O 0.9019(2) 0.000000 0.46104(12)
H1 H 0.853746 0.000000 0.443040
O2 O 0.9081(2) 0.1663(2) 0.46610(11)
N1_2 N 1.000000 0.1439(4) 0.3823(2)
C1 C 0.8525(2) 0.1475(2) 0.500000
C2 C 0.8037(2) 0.1963(2) 0.500000
C3_2 C 1.000000 0.1537(7) 0.2776(3)
N2 N 0.666667 0.333333 0.500000
C4 C 0.8298(4) 0.2690(4) 0.4700(2)
H2 H 0.878089 0.287468 0.449272
C5 C 0.7128(2) 0.2872(2) 0.500000
C6 C 0.7854(4) 0.3145(4) 0.4703(3)
H3 H 0.804659 0.363725 0.450323
C7 C 0.9298(6) 0.1123(7) 0.3565(3)
H4 H 0.877496 0.085669 0.374097
C8 C 0.9248(6) 0.1142(7) 0.3045(3)
H5 H 0.871064 0.088964 0.288385
O3 O 0.8337(2) 0.7418(3) 0.46610(11)
C9 C 0.8525(2) 0.7050(3) 0.500000
C10 C 0.8037(2) 0.6074(3) 0.500000
C11 C 0.7310(4) 0.5608(6) 0.4700(2)
H6 H 0.712532 0.590621 0.449272
C12 C 0.7128(2) 0.4256(3) 0.500000
C13 C 0.6855(4) 0.4709(6) 0.4703(3)
H7 H 0.636275 0.440934 0.450323
O4 O 0.2582(3) 0.0919(2) 0.46610(11)
C14 C 0.2950(3) 0.1475(2) 0.500000
C15 C 0.3926(3) 0.1963(2) 0.500000
C16 C 0.4392(6) 0.1702(4) 0.4700(2)
H8 H 0.409379 0.121911 0.449272
C17 C 0.5744(3) 0.2872(2) 0.500000
C18 C 0.5291(6) 0.2146(4) 0.4703(3)
H9 H 0.559066 0.195341 0.450323
O5 O 0.8337(2) 0.0919(2) 0.53390(11)
C19 C 0.7310(4) 0.1702(4) 0.5300(2)
H10 H 0.712532 0.121911 0.550728
C20 C 0.6855(4) 0.2146(4) 0.5297(3)
H11 H 0.636275 0.195341 0.549677
C21 C 0.4392(6) 0.2690(4) 0.5300(2)
H12 H 0.409379 0.287468 0.550728
C22 C 0.5291(6) 0.3145(4) 0.5297(3)
H13 H 0.559066 0.363725 0.549677
O7 O 0.9081(2) 0.7418(3) 0.53390(11)
C23 C 0.8298(4) 0.5608(6) 0.5300(2)
H14 H 0.878089 0.590621 0.550728
C24 C 0.7854(4) 0.4709(6) 0.5297(3)
H15 H 0.804659 0.440934 0.549677
N3_2 N 1.000000 0.14390(40) 0.1177(2)
C25_2 C 1.000000 0.15370(70) 0.2224(3)
C28 C 0.9298(6) 0.1123(7) 0.1435(3)
H18 H 0.877496 0.085669 0.125903
C29 C 0.9248(6) 0.1142(7) 0.1955(3)
H19 H 0.871064 0.088964 0.211615
H43 H 0.146254 0.146254 0.443040
N7 N 0.14390(40) 0.000000 0.3823(2)
C63 C 0.15370(70) 0.000000 0.2776(3)
C64 C 0.1825(9) 0.0702(6) 0.3565(3)
H44 H 0.208173 0.122504 0.374097
C65 C 0.1894(9) 0.0752(6) 0.3045(3)
H45 H 0.217900 0.128936 0.288385
N8 N 0.1439(4) 0.000000 0.1177(2)
C66 C 0.1537(7) 0.000000 0.2224(3)
C69 C 0.1825(9) 0.0702(6) 0.1435(3)
H48 H 0.208173 0.122504 0.125903
C70 C 0.1894(9) 0.0752(6) 0.1955(3)
H49 H 0.217900 0.128936 0.211615
Co4 Co 0.87086(4) 0.000000 0.53898(3)
O16_2 O 1.000000 0.0981(2) 0.53896(12)
H52_2 H 1.000000 0.146254 0.556960
Co9 Co 0.87086(4) 0.870860(40) 0.46102(3)
Co12 Co 0.12914(4) 0.000000 0.03898(3)
Co14_2 Co 1.000000 0.129140(40) 0.03898(3)
Co18_2 Co 1.000000 0.870860(40) 0.53898(3)
N9 N 0.8561(4) 0.000000 0.6177(2)
O1_2 O 0.9019(2) 1.000000 0.46104(12)
H1_2 H 0.853746 1.000000 0.443040
O8_2 O 1.000000 0.90190(20) 0.46104(12)
H22_2 H 1.000000 0.853746 0.443040
N4 N 0.8561(4) 0.85610(40) 0.3823(2)
C34 C 0.8463(7) 0.84630(70) 0.2776(3)
C38 C 0.8877(7) 0.8175(9) 0.3565(3)
H25 H 0.914331 0.791827 0.374097
C39 C 0.8858(7) 0.8106(9) 0.3045(3)
H26 H 0.911036 0.782100 0.288385
N6 N 0.85610(40) 0.8561(4) 0.1177(2)
C56 C 0.84630(70) 0.8463(7) 0.2224(3)
C57 C 0.8175(9) 0.8877(7) 0.1435(3)
H37 H 0.791827 0.914331 0.125903
C58 C 0.8106(9) 0.8858(7) 0.1955(3)
H38 H 0.782100 0.911036 0.211615
C59 C 0.8877(7) 0.8175(9) 0.1435(3)
H39 H 0.914331 0.791827 0.125903
C60 C 0.8858(7) 0.8106(9) 0.1955(3)
H40 H 0.911036 0.782100 0.211615
C61 C 0.8175(9) 0.8877(7) 0.3565(3)
H41 H 0.791827 0.914331 0.374097
C62 C 0.8106(9) 0.8858(7) 0.3045(3)
H42 H 0.782100 0.911036 0.288385
N7_2 N 0.14390(40) 1.000000 0.3823(2)
C63_2 C 0.15370(70) 1.000000 0.2776(3)
N8_2 N 0.1439(4) 1.000000 0.1177(2)
C66_2 C 0.1537(7) 1.000000 0.2224(3)
C67 C 0.1123(7) 0.9298(6) 0.1435(3)
H46 H 0.085669 0.877496 0.125903
C68 C 0.1142(7) 0.9248(6) 0.1955(3)
H47 H 0.088964 0.871064 0.211615
C71 C 0.1123(7) 0.9298(6) 0.3565(3)
H50 H 0.085669 0.877496 0.374097
C72 C 0.1142(7) 0.9248(6) 0.3045(3)
H51 H 0.088964 0.871064 0.288385
Co4_2 Co 0.87086(4) 1.000000 0.53898(3)
O18 O 0.9019(2) 0.90190(20) 0.53896(12)
H54 H 0.853746 0.853746 0.556960
Co12_2 Co 0.12914(4) 1.000000 0.03898(3)
Co13 Co 0.870860(40) 0.87086(4) 0.03898(3)
O25 O 0.7418(3) 0.9081(2) 0.53390(11)
O26 O 0.1663(2) 0.9081(2) 0.46610(11)
O27 O 0.7418(3) 0.8337(2) 0.46610(11)
N9_2 N 0.8561(4) 1.000000 0.6177(2)
N11_2 N 1.000000 0.85610(40) 0.6177(2)
O19 O 0.000000 0.09810(20) 0.96104(12)
Co7 Co 0.000000 0.87086(4) 0.96102(3)
Co10 Co 0.870860(40) 0.000000 0.96102(3)
C32 C 0.1475(2) 0.2950(3) -0.000000
C33 C 0.1963(2) 0.3926(3) -0.000000
N5 N 0.333333 0.666667 -0.000000
C36 C 0.2872(2) 0.5744(3) -0.000000
C40 C 0.7050(3) 0.8525(2) -0.000000
C41 C 0.6074(3) 0.8037(2) -0.000000
C43 C 0.4256(3) 0.7128(2) -0.000000
C45 C 0.1475(2) 0.8525(2) -0.000000
C46 C 0.1963(2) 0.8037(2) -0.000000
C48 C 0.2872(2) 0.7128(2) -0.000000
O12 O 0.0919(2) 0.2582(3) 0.03390(11)
C50 C 0.1702(4) 0.4392(6) 0.0300(2)
H31 H 0.121911 0.409379 0.050728
C51 C 0.2146(4) 0.5291(6) 0.0297(3)
H32 H 0.195341 0.559066 0.049677
O13 O 0.1663(2) 0.9081(2) 0.03390(11)
C52 C 0.2690(4) 0.8298(4) 0.0300(2)
H33 H 0.287468 0.878089 0.050728
C53 C 0.3145(4) 0.7854(4) 0.0297(3)
H34 H 0.363725 0.804659 0.049677
O14 O 0.7418(3) 0.8337(2) 0.03390(11)
C54 C 0.5608(6) 0.7310(4) 0.0300(2)
H35 H 0.590621 0.712532 0.050728
C55 C 0.4709(6) 0.6855(4) 0.0297(3)
H36 H 0.440934 0.636275 0.049677
O18_2 O 0.0981(2) 0.09810(20) 0.03896(12)
H54_2 H 0.146254 0.146254 0.056960
O21 O 0.90190(20) -0.000000 0.03896(12)
O25_2 O 0.2582(3) 0.0919(2) 0.03390(11)
O1_3 O 0.0981(2) 0.000000 0.96104(12)
H1_3 H 0.146254 0.000000 0.943040
Co2 Co 0.12914(4) 0.129140(40) 0.96102(3)
H22_3 H 0.000000 0.146254 0.943040
O9 O 0.1663(2) 0.2582(3) 0.96610(11)
N4_2 N 0.1439(4) 0.14390(40) 0.8823(2)
C32_2 C 0.1475(2) 0.2950(3) 1.000000
C33_2 C 0.1963(2) 0.3926(3) 1.000000
C34_2 C 0.1537(7) 0.15370(70) 0.7776(3)
N5_2 N 0.333333 0.666667 1.000000
C35 C 0.2690(4) 0.4392(6) 0.9700(2)
H23 H 0.287468 0.409379 0.949272
C36_2 C 0.2872(2) 0.5744(3) 1.000000
C37 C 0.3145(4) 0.5291(6) 0.9703(3)
H24 H 0.363725 0.559066 0.950323
C38_2 C 0.1123(7) 0.1825(9) 0.8565(3)
H25_2 H 0.085669 0.208173 0.874097
C39_2 C 0.1142(7) 0.1894(9) 0.8045(3)
H26_2 H 0.088964 0.217900 0.788385
O10 O 0.7418(3) 0.9081(2) 0.96610(11)
C40_2 C 0.7050(3) 0.8525(2) 1.000000
C41_2 C 0.6074(3) 0.8037(2) 1.000000
C42 C 0.5608(6) 0.8298(4) 0.9700(2)
H27 H 0.590621 0.878089 0.949272
C43_2 C 0.4256(3) 0.7128(2) 1.000000
C44 C 0.4709(6) 0.7854(4) 0.9703(3)
H28 H 0.440934 0.804659 0.950323
O11 O 0.0919(2) 0.8337(2) 0.96610(11)
C45_2 C 0.1475(2) 0.8525(2) 1.000000
C46_2 C 0.1963(2) 0.8037(2) 1.000000
C47 C 0.1702(4) 0.7310(4) 0.9700(2)
H29 H 0.121911 0.712532 0.949272
C48_2 C 0.2872(2) 0.7128(2) 1.000000
C49 C 0.2146(4) 0.6855(4) 0.9703(3)
H30 H 0.195341 0.636275 0.950323
C56_2 C 0.15370(70) 0.1537(7) 0.7224(3)
C57_2 C 0.1825(9) 0.1123(7) 0.6435(3)
H37_2 H 0.208173 0.085669 0.625903
C58_2 C 0.1894(9) 0.1142(7) 0.6955(3)
H38_2 H 0.217900 0.088964 0.711615
C59_2 C 0.1123(7) 0.1825(9) 0.6435(3)
H39_2 H 0.085669 0.208173 0.625903
C60_2 C 0.1142(7) 0.1894(9) 0.6955(3)
H40_2 H 0.088964 0.217900 0.711615
C61_2 C 0.1825(9) 0.1123(7) 0.8565(3)
H41_2 H 0.208173 0.085669 0.874097
C62_2 C 0.1894(9) 0.1142(7) 0.8045(3)
H42_2 H 0.217900 0.088964 0.788385
N7_3 N 0.85610(40) 0.000000 0.8823(2)
C63_3 C 0.84630(70) 0.000000 0.7776(3)
C66_3 C 0.8463(7) 0.000000 0.7224(3)
C67_2 C 0.8877(7) 0.0702(6) 0.6435(3)
H46_2 H 0.914331 0.122504 0.625903
C68_2 C 0.8858(7) 0.0752(6) 0.6955(3)
H47_2 H 0.911036 0.128936 0.711615
C71_2 C 0.8877(7) 0.0702(6) 0.8565(3)
H50_2 H 0.914331 0.122504 0.874097
C72_2 C 0.8858(7) 0.0752(6) 0.8045(3)
H51_2 H 0.911036 0.128936 0.788385
Co10_2 Co 0.870860(40) 1.000000 0.96102(3)
O19_2 O 1.000000 0.09810(20) 0.96104(12)
O26_2 O 0.8337(2) 0.0919(2) 0.96610(11)
O27_2 O 0.2582(3) 0.1663(2) 0.96610(11)
O16_3 O 0.000000 0.9019(2) 0.03896(12)
H52_3 H 0.000000 0.853746 0.056960
O21_2 O 0.90190(20) 1.000000 0.03896(12)
O1_4 O 0.0981(2) 1.000000 0.96104(12)
H1_4 H 0.146254 1.000000 0.943040
N1_3 N 0.000000 0.8561(4) 0.8823(2)
C3_3 C 0.000000 0.8463(7) 0.7776(3)
C7_2 C 0.0702(6) 0.8877(7) 0.8565(3)
H4_2 H 0.122504 0.914331 0.874097
C8_2 C 0.0752(6) 0.8858(7) 0.8045(3)
H5_2 H 0.128936 0.911036 0.788385
C25_3 C 0.000000 0.84630(70) 0.7224(3)
C28_2 C 0.0702(6) 0.8877(7) 0.6435(3)
H18_2 H 0.122504 0.914331 0.625903
C29_2 C 0.0752(6) 0.8858(7) 0.6955(3)
H19_2 H 0.128936 0.911036 0.711615
O15 O 0.90190(20) 0.9019(2) 0.96104(12)
H43_2 H 0.853746 0.853746 0.943040
N7_4 N 0.85610(40) 1.000000 0.8823(2)
C63_4 C 0.84630(70) 1.000000 0.7776(3)
C64_2 C 0.8175(9) 0.9298(6) 0.8565(3)
H44_2 H 0.791827 0.877496 0.874097
C65_2 C 0.8106(9) 0.9248(6) 0.8045(3)
H45_2 H 0.782100 0.871064 0.788385
C66_4 C 0.8463(7) 1.000000 0.7224(3)
C69_2 C 0.8175(9) 0.9298(6) 0.6435(3)
H48_2 H 0.791827 0.877496 0.625903
C70_2 C 0.8106(9) 0.9248(6) 0.6955(3)
H49_2 H 0.782100 0.871064 0.711615
Co7_2 Co 1.000000 0.87086(4) 0.96102(3)
H53_3 H 0.853746 -0.000000 0.056960
O23_2 O 0.9081(2) 0.1663(2) 0.03390(11)
H22_4 H 1.000000 0.146254 0.943040
O16_4 O 1.000000 0.9019(2) 0.03896(12)
H52_4 H 1.000000 0.853746 0.056960
H53_4 H 0.853746 1.000000 0.056960
O24_2 O 0.8337(2) 0.7418(3) 0.03390(11)
N1_4 N 1.000000 0.8561(4) 0.8823(2)
C3_4 C 1.000000 0.8463(7) 0.7776(3)
C25_4 C 1.000000 0.84630(70) 0.7224(3)
C26_2 C 0.9298(6) 0.8175(9) 0.6435(3)
H16_2 H 0.877496 0.791827 0.625903
C27_2 C 0.9248(6) 0.8106(9) 0.6955(3)
H17_2 H 0.871064 0.782100 0.711615
C30_2 C 0.9298(6) 0.8175(9) 0.8565(3)
H20_2 H 0.877496 0.791827 0.874097
C31_2 C 0.9248(6) 0.8106(9) 0.8045(3)
H21_2 H 0.871064 0.782100 0.788385
O28_2 O 0.9081(2) 0.7418(3) 0.96610(11)
C32_3 C 0.1475(2) 0.2950(3) 0.500000
C33_3 C 0.1963(2) 0.3926(3) 0.500000
N5_3 N 0.333333 0.666667 0.500000
C35_2 C 0.2690(4) 0.4392(6) 0.5300(2)
H23_2 H 0.287468 0.409379 0.550728
C36_3 C 0.2872(2) 0.5744(3) 0.500000
C37_2 C 0.3145(4) 0.5291(6) 0.5297(3)
H24_2 H 0.363725 0.559066 0.549677
C40_3 C 0.7050(3) 0.8525(2) 0.500000
C41_3 C 0.6074(3) 0.8037(2) 0.500000
C42_2 C 0.5608(6) 0.8298(4) 0.5300(2)
H27_2 H 0.590621 0.878089 0.550728
C43_3 C 0.4256(3) 0.7128(2) 0.500000
C44_2 C 0.4709(6) 0.7854(4) 0.5297(3)
H28_2 H 0.440934 0.804659 0.549677
C45_3 C 0.1475(2) 0.8525(2) 0.500000
C46_3 C 0.1963(2) 0.8037(2) 0.500000
C47_2 C 0.1702(4) 0.7310(4) 0.5300(2)
H29_2 H 0.121911 0.712532 0.550728
C48_3 C 0.2872(2) 0.7128(2) 0.500000
C49_2 C 0.2146(4) 0.6855(4) 0.5297(3)
H30_2 H 0.195341 0.636275 0.549677
C50_2 C 0.1702(4) 0.4392(6) 0.4700(2)
H31_2 H 0.121911 0.409379 0.449272
C51_2 C 0.2146(4) 0.5291(6) 0.4703(3)
H32_2 H 0.195341 0.559066 0.450323
C52_2 C 0.2690(4) 0.8298(4) 0.4700(2)
H33_2 H 0.287468 0.878089 0.449272
C53_2 C 0.3145(4) 0.7854(4) 0.4703(3)
H34_2 H 0.363725 0.804659 0.450323
C54_2 C 0.5608(6) 0.7310(4) 0.4700(2)
H35_2 H 0.590621 0.712532 0.449272
C55_2 C 0.4709(6) 0.6855(4) 0.4703(3)
H36_2 H 0.440934 0.636275 0.450323
C1_2 C 0.8525(2) 0.1475(2) 0.000000
C2_2 C 0.8037(2) 0.1963(2) 0.000000
N2_2 N 0.666667 0.333333 0.000000
C4_2 C 0.8298(4) 0.2690(4) 0.0300(2)
H2_2 H 0.878089 0.287468 0.050728
C5_2 C 0.7128(2) 0.2872(2) 0.000000
C6_2 C 0.7854(4) 0.3145(4) 0.0297(3)
H3_2 H 0.804659 0.363725 0.049677
C9_2 C 0.8525(2) 0.7050(3) 0.000000
C10_2 C 0.8037(2) 0.6074(3) 0.000000
C11_2 C 0.7310(4) 0.5608(6) 0.0300(2)
H6_2 H 0.712532 0.590621 0.050728
C12_2 C 0.7128(2) 0.4256(3) 0.000000
C13_2 C 0.6855(4) 0.4709(6) 0.0297(3)
H7_2 H 0.636275 0.440934 0.049677
C14_2 C 0.2950(3) 0.1475(2) 0.000000
C15_2 C 0.3926(3) 0.1963(2) 0.000000
C16_2 C 0.4392(6) 0.1702(4) 0.0300(2)
H8_2 H 0.409379 0.121911 0.050728
C17_2 C 0.5744(3) 0.2872(2) 0.000000
C18_2 C 0.5291(6) 0.2146(4) 0.0297(3)
H9_2 H 0.559066 0.195341 0.049677
C1_3 C 0.8525(2) 0.1475(2) 1.000000
C2_3 C 0.8037(2) 0.1963(2) 1.000000
N2_3 N 0.666667 0.333333 1.000000
C5_3 C 0.7128(2) 0.2872(2) 1.000000
C9_3 C 0.8525(2) 0.7050(3) 1.000000
C10_3 C 0.8037(2) 0.6074(3) 1.000000
C12_3 C 0.7128(2) 0.4256(3) 1.000000
C14_3 C 0.2950(3) 0.1475(2) 1.000000
C15_3 C 0.3926(3) 0.1963(2) 1.000000
C17_3 C 0.5744(3) 0.2872(2) 1.000000
C19_2 C 0.7310(4) 0.1702(4) 0.9700(2)
H10_2 H 0.712532 0.121911 0.949272
C20_2 C 0.6855(4) 0.2146(4) 0.9703(3)
H11_2 H 0.636275 0.195341 0.950323
C21_2 C 0.4392(6) 0.2690(4) 0.9700(2)
H12_2 H 0.409379 0.287468 0.949272
C22_2 C 0.5291(6) 0.3145(4) 0.9703(3)
H13_2 H 0.559066 0.363725 0.950323
C23_2 C 0.8298(4) 0.5608(6) 0.9700(2)
H14_2 H 0.878089 0.590621 0.949272
C24_2 C 0.7854(4) 0.4709(6) 0.9703(3)
H15_2 H 0.804659 0.440934 0.950323
loop_
_geom_bond_atom_site_label_1
_geom_bond_atom_site_label_2
_geom_bond_site_symmetry_1
_geom_bond_site_symmetry_2
N1 Co1 1_555 1_555
N3 C26 1_555 1_555
C25 C3 1_555 1_555
C26 H16 1_555 1_555
C27 C25 1_555 1_555
H17 C27 1_555 1_555
C30 N1 1_555 1_555
H20 C30 1_555 1_555
C31 C3 1_555 1_555
H21 C31 1_555 1_555
O16 Co1 1_555 1_555
H52 O16 1_555 1_555
H53 O17 1_555 1_555
Co6 O16 1_555 1_555
Co14 N3 1_555 1_555
O20 Co1 1_555 1_555
O22 Co6 1_555 1_555
O24 Co6 1_555 1_555
O28 Co1 1_555 1_555
N10 Co6 1_555 1_555
C26 C27 1_555 1_555
C30 C31 1_555 1_555
O17 Co6 1_555 1_555
O17 Co11 1_555 1_555
Co6 O20 1_555 1_555
Co11 O20 1_555 1_555
H22 O8 1_555 1_555
Co18 O8 1_555 1_555
O17_2 Co18 1_555 1_555
H53_2 O17_2 1_555 1_555
Co11_2 O8 1_555 1_555
O23 Co18 1_555 1_555
N11 Co18 1_555 1_555
O17_2 Co11_2 1_555 1_555
Co1_2 O1 1_555 1_555
O1 H1 1_555 1_555
O2 Co1_2 1_555 1_555
N1_2 Co1_2 1_555 1_555
C1 O2 1_555 1_555
C2 C1 1_555 1_555
C3_2 C8 1_555 1_555
N2 C5 1_555 1_555
C4 C2 1_555 1_555
H2 C4 1_555 1_555
C5 C6 1_555 1_555
C6 C4 1_555 1_555
H3 C6 1_555 1_555
C7 N1_2 1_555 1_555
H4 C7 1_555 1_555
C8 C7 1_555 1_555
H5 C8 1_555 1_555
O3 C9 1_555 1_555
C9 C10 1_555 1_555
C10 C11 1_555 1_555
C11 H6 1_555 1_555
C12 N2 1_555 1_555
C13 C11 1_555 1_555
H7 C13 1_555 1_555
O4 C14 1_555 1_555
C14 C15 1_555 1_555
C15 C16 1_555 1_555
C16 H8 1_555 1_555
C17 N2 1_555 1_555
C18 C16 1_555 1_555
H9 C18 1_555 1_555
O5 C1 1_555 1_555
C19 C2 1_555 1_555
H10 C19 1_555 1_555
C20 C5 1_555 1_555
H11 C20 1_555 1_555
O22 C14 1_555 1_555
C21 C15 1_555 1_555
H12 C21 1_555 1_555
C22 C17 1_555 1_555
H13 C22 1_555 1_555
O7 C9 1_555 1_555
C23 C10 1_555 1_555
H14 C23 1_555 1_555
C24 C12 1_555 1_555
H15 C24 1_555 1_555
C25_2 C3_2 1_555 1_555
C28 N3_2 1_555 1_555
H18 C28 1_555 1_555
C29 C25_2 1_555 1_555
H19 C29 1_555 1_555
Co11 O4 1_555 1_555
H43 O20 1_555 1_555
N7 Co11 1_555 1_555
C63 C65 1_555 1_555
C64 N7 1_555 1_555
H44 C64 1_555 1_555
C65 C64 1_555 1_555
H45 C65 1_555 1_555
C66 C63 1_555 1_555
C69 N8 1_555 1_555
H48 C69 1_555 1_555
C70 C66 1_555 1_555
H49 C70 1_555 1_555
Co4 O1 1_555 1_555
O16_2 Co1_2 1_555 1_555
H52_2 O16_2 1_555 1_555
Co9 O3 1_555 1_555
Co12 N8 1_555 1_555
Co14_2 N3_2 1_555 1_555
Co18_2 O7 1_555 1_555
N9 Co4 1_555 1_555
C12 C13 1_555 1_555
C17 C18 1_555 1_555
O5 Co4 1_555 1_555
C19 C20 1_555 1_555
C21 C22 1_555 1_555
C23 C24 1_555 1_555
C28 C29 1_555 1_555
C69 C70 1_555 1_555
Co4 O16_2 1_555 1_555
O1_2 H1_2 1_555 1_555
Co9 O1_2 1_555 1_555
O8_2 Co9 1_555 1_555
H22_2 O8_2 1_555 1_555
N4 Co9 1_555 1_555
C34 C39 1_555 1_555
C38 N4 1_555 1_555
H25 C38 1_555 1_555
C39 C38 1_555 1_555
H26 C39 1_555 1_555
N6 C57 1_555 1_555
C56 C34 1_555 1_555
C57 H37 1_555 1_555
C58 C56 1_555 1_555
H38 C58 1_555 1_555
C59 N6 1_555 1_555
H39 C59 1_555 1_555
C60 C56 1_555 1_555
H40 C60 1_555 1_555
C61 N4 1_555 1_555
H41 C61 1_555 1_555
C62 C34 1_555 1_555
H42 C62 1_555 1_555
N7_2 Co11_2 1_555 1_555
N8_2 C67 1_555 1_555
C66_2 C63_2 1_555 1_555
C67 H46 1_555 1_555
C68 C66_2 1_555 1_555
H47 C68 1_555 1_555
C71 N7_2 1_555 1_555
H50 C71 1_555 1_555
C72 C63_2 1_555 1_555
H51 C72 1_555 1_555
Co4_2 O1_2 1_555 1_555
Co18_2 O8_2 1_555 1_555
O18 Co9 1_555 1_555
H54 O18 1_555 1_555
Co12_2 N8_2 1_555 1_555
Co13 N6 1_555 1_555
O25 Co4_2 1_555 1_555
O26 Co11_2 1_555 1_555
O27 Co9 1_555 1_555
N9_2 Co4_2 1_555 1_555
N11_2 Co18_2 1_555 1_555
C57 C58 1_555 1_555
C59 C60 1_555 1_555
C61 C62 1_555 1_555
C67 C68 1_555 1_555
C71 C72 1_555 1_555
Co4_2 O18 1_555 1_555
Co18_2 O18 1_555 1_555
C33 C32 1_555 1_555
N5 C36 1_555 1_555
C40 C41 1_555 1_555
C43 N5 1_555 1_555
C45 C46 1_555 1_555
C48 N5 1_555 1_555
O12 C32 1_555 1_555
C50 C33 1_555 1_555
H31 C50 1_555 1_555
C51 C36 1_555 1_555
H32 C51 1_555 1_555
O13 C45 1_555 1_555
C52 C46 1_555 1_555
H33 C52 1_555 1_555
C53 C48 1_555 1_555
H34 C53 1_555 1_555
O14 C40 1_555 1_555
C54 C41 1_555 1_555
H35 C54 1_555 1_555
C55 C43 1_555 1_555
H36 C55 1_555 1_555
H54_2 O18_2 1_555 1_555
Co12_2 O13 1_555 1_555
Co13 O14 1_555 1_555
O25_2 Co12 1_555 1_555
O12 Co14 1_555 1_555
C50 C51 1_555 1_555
C52 C53 1_555 1_555
C54 C55 1_555 1_555
Co12 O18_2 1_555 1_555
Co14 O18_2 1_555 1_555
O1_3 H1_3 1_555 1_555
Co2 O1_3 1_555 1_555
O19 Co2 1_555 1_555
H22_3 O19 1_555 1_555
O9 Co2 1_555 1_555
N4_2 Co2 1_555 1_555
C32_2 O9 1_555 1_555
C33_2 C32_2 1_555 1_555
C34_2 C39_2 1_555 1_555
N5_2 C36_2 1_555 1_555
C35 C33_2 1_555 1_555
H23 C35 1_555 1_555
C36_2 C37 1_555 1_555
C37 C35 1_555 1_555
H24 C37 1_555 1_555
C38_2 N4_2 1_555 1_555
H25_2 C38_2 1_555 1_555
C39_2 C38_2 1_555 1_555
H26_2 C39_2 1_555 1_555
O10 C40_2 1_555 1_555
C40_2 C41_2 1_555 1_555
C41_2 C42 1_555 1_555
C42 H27 1_555 1_555
C43_2 N5_2 1_555 1_555
C44 C42 1_555 1_555
H28 C44 1_555 1_555
O11 C45_2 1_555 1_555
C45_2 C46_2 1_555 1_555
C46_2 C47 1_555 1_555
C47 H29 1_555 1_555
C48_2 N5_2 1_555 1_555
C49 C47 1_555 1_555
H30 C49 1_555 1_555
N10 C57_2 1_555 1_555
C56_2 C34_2 1_555 1_555
C57_2 H37_2 1_555 1_555
C58_2 C56_2 1_555 1_555
H38_2 C58_2 1_555 1_555
C59_2 N10 1_555 1_555
H39_2 C59_2 1_555 1_555
C60_2 C56_2 1_555 1_555
H40_2 C60_2 1_555 1_555
C61_2 N4_2 1_555 1_555
H41_2 C61_2 1_555 1_555
C62_2 C34_2 1_555 1_555
H42_2 C62_2 1_555 1_555
N7_3 Co10 1_555 1_555
N9 C67_2 1_555 1_555
C66_3 C63_3 1_555 1_555
C67_2 H46_2 1_555 1_555
C68_2 C66_3 1_555 1_555
H47_2 C68_2 1_555 1_555
C71_2 N7_3 1_555 1_555
H50_2 C71_2 1_555 1_555
C72_2 C63_3 1_555 1_555
H51_2 C72_2 1_555 1_555
Co7 O11 1_555 1_555
Co10_2 O10 1_555 1_555
O19_2 Co10 1_555 1_555
O26_2 Co10 1_555 1_555
O27_2 Co2 1_555 1_555
C43_2 C44 1_555 1_555
C48_2 C49 1_555 1_555
C57_2 C58_2 1_555 1_555
C59_2 C60_2 1_555 1_555
C61_2 C62_2 1_555 1_555
C67_2 C68_2 1_555 1_555
C71_2 C72_2 1_555 1_555
H52_3 O16_3 1_555 1_555
Co12_2 O16_3 1_555 1_555
Co13 O21_2 1_555 1_555
Co7 O1_4 1_555 1_555
O1_4 H1_4 1_555 1_555
N1_3 Co7 1_555 1_555
C3_3 C8_2 1_555 1_555
C7_2 N1_3 1_555 1_555
H4_2 C7_2 1_555 1_555
C8_2 C7_2 1_555 1_555
H5_2 C8_2 1_555 1_555
C25_3 C3_3 1_555 1_555
C28_2 N11 1_555 1_555
H18_2 C28_2 1_555 1_555
C29_2 C25_3 1_555 1_555
H19_2 C29_2 1_555 1_555
O15 Co10_2 1_555 1_555
H43_2 O15 1_555 1_555
N7_4 Co10_2 1_555 1_555
C63_4 C65_2 1_555 1_555
C64_2 N7_4 1_555 1_555
H44_2 C64_2 1_555 1_555
C65_2 C64_2 1_555 1_555
H45_2 C65_2 1_555 1_555
C66_4 C63_4 1_555 1_555
C69_2 N9_2 1_555 1_555
H48_2 C69_2 1_555 1_555
C70_2 C66_4 1_555 1_555
H49_2 C70_2 1_555 1_555
Co7_2 O15 1_555 1_555
C28_2 C29_2 1_555 1_555
C69_2 C70_2 1_555 1_555
O21 Co14_2 1_555 1_555
H53_3 O21 1_555 1_555
O23_2 Co14_2 1_555 1_555
H22_4 O19_2 1_555 1_555
H52_4 O16_4 1_555 1_555
H53_4 O21_2 1_555 1_555
Co13 O16_4 1_555 1_555
O24_2 Co13 1_555 1_555
N1_4 Co7_2 1_555 1_555
N11_2 C26_2 1_555 1_555
C25_4 C3_4 1_555 1_555
C26_2 H16_2 1_555 1_555
C27_2 C25_4 1_555 1_555
H17_2 C27_2 1_555 1_555
C30_2 N1_4 1_555 1_555
H20_2 C30_2 1_555 1_555
C31_2 C3_4 1_555 1_555
H21_2 C31_2 1_555 1_555
O28_2 Co7_2 1_555 1_555
C26_2 C27_2 1_555 1_555
C30_2 C31_2 1_555 1_555
C32_3 O24 1_555 1_555
C33_3 C32_3 1_555 1_555
N5_3 C36_3 1_555 1_555
C35_2 C33_3 1_555 1_555
H23_2 C35_2 1_555 1_555
C36_3 C37_2 1_555 1_555
C37_2 C35_2 1_555 1_555
H24_2 C37_2 1_555 1_555
O25 C40_3 1_555 1_555
C40_3 C41_3 1_555 1_555
C41_3 C42_2 1_555 1_555
C42_2 H27_2 1_555 1_555
C43_3 N5_3 1_555 1_555
C44_2 C42_2 1_555 1_555
H28_2 C44_2 1_555 1_555
O23 C45_3 1_555 1_555
C45_3 C46_3 1_555 1_555
C46_3 C47_2 1_555 1_555
C47_2 H29_2 1_555 1_555
C48_3 N5_3 1_555 1_555
C49_2 C47_2 1_555 1_555
H30_2 C49_2 1_555 1_555
O28 C32_3 1_555 1_555
C50_2 C33_3 1_555 1_555
H31_2 C50_2 1_555 1_555
C51_2 C36_3 1_555 1_555
H32_2 C51_2 1_555 1_555
O26 C45_3 1_555 1_555
C52_2 C46_3 1_555 1_555
H33_2 C52_2 1_555 1_555
C53_2 C48_3 1_555 1_555
H34_2 C53_2 1_555 1_555
O27 C40_3 1_555 1_555
C54_2 C41_3 1_555 1_555
H35_2 C54_2 1_555 1_555
C55_2 C43_3 1_555 1_555
H36_2 C55_2 1_555 1_555
C43_3 C44_2 1_555 1_555
C48_3 C49_2 1_555 1_555
C50_2 C51_2 1_555 1_555
C52_2 C53_2 1_555 1_555
C54_2 C55_2 1_555 1_555
C1_2 O23_2 1_555 1_555
C2_2 C1_2 1_555 1_555
N2_2 C5_2 1_555 1_555
C4_2 C2_2 1_555 1_555
H2_2 C4_2 1_555 1_555
C5_2 C6_2 1_555 1_555
C6_2 C4_2 1_555 1_555
H3_2 C6_2 1_555 1_555
O24_2 C9_2 1_555 1_555
C9_2 C10_2 1_555 1_555
C10_2 C11_2 1_555 1_555
C11_2 H6_2 1_555 1_555
C12_2 N2_2 1_555 1_555
C13_2 C11_2 1_555 1_555
H7_2 C13_2 1_555 1_555
O25_2 C14_2 1_555 1_555
C14_2 C15_2 1_555 1_555
C15_2 C16_2 1_555 1_555
C16_2 H8_2 1_555 1_555
C17_2 N2_2 1_555 1_555
C18_2 C16_2 1_555 1_555
H9_2 C18_2 1_555 1_555
C12_2 C13_2 1_555 1_555
C17_2 C18_2 1_555 1_555
C2_3 C1_3 1_555 1_555
N2_3 C5_3 1_555 1_555
C9_3 C10_3 1_555 1_555
C12_3 N2_3 1_555 1_555
C14_3 C15_3 1_555 1_555
C17_3 N2_3 1_555 1_555
O26_2 C1_3 1_555 1_555
C19_2 C2_3 1_555 1_555
H10_2 C19_2 1_555 1_555
C20_2 C5_3 1_555 1_555
H11_2 C20_2 1_555 1_555
O27_2 C14_3 1_555 1_555
C21_2 C15_3 1_555 1_555
H12_2 C21_2 1_555 1_555
C22_2 C17_3 1_555 1_555
H13_2 C22_2 1_555 1_555
O28_2 C9_3 1_555 1_555
C23_2 C10_3 1_555 1_555
H14_2 C23_2 1_555 1_555
C24_2 C12_3 1_555 1_555
H15_2 C24_2 1_555 1_555
C19_2 C20_2 1_555 1_555
C21_2 C22_2 1_555 1_555
C23_2 C24_2 1_555 1_555

#END
