
###############################################################################
#
# This file contains modified crystal structure data generated from the
# MOF subset of the Cambridge Structural Database (CSD) v543 
# hosted by the Cambridge Crystallographic Data Centre (CCDC).
#
# This work is licensed under the Creative Commons
# Attribution-NonCommercial-ShareAlike 4.0 International License.
# To view a copy of this license, visit
# http://creativecommons.org/licenses/by-nc-sa/4.0/
# or send a letter to
# Creative Commons, PO Box 1866, Mountain View, CA 94042, USA.
#
# CIF created using the CSD Python API on 29 September 2022
# The structure has been converted into the P1 space group
# The structure has a 3D framework
# The original CSD entry FUVVOK is in the monoclinic crystal system
# The original CSD entry FUVVOK is in a Sohncke space group
# The framework has been calculated to contain at least 10.0% void space
# The void calculation uses a probe of radius 1.32A, grid spacing 0.4
#
###############################################################################

data_FUVVOK
_chemical_formula_moiety         '(C184 H152 Cd6 N24 O40)n'
_symmetry_cell_setting           triclinic
_symmetry_space_group_name_H-M   'P 1'
_symmetry_Int_Tables_number      1
_space_group_name_Hall           'P 1'
loop_
_symmetry_equiv_pos_site_id
_symmetry_equiv_pos_as_xyz
1 x,y,z
_cell_length_a                   14.28090(10)
_cell_length_b                   15.02500(10)
_cell_length_c                   23.69270(10)
_cell_angle_alpha                90
_cell_angle_beta                 101.5730(10)
_cell_angle_gamma                90
_cell_volume                     4980.4
loop_
_atom_site_label
_atom_site_type_symbol
_atom_site_fract_x
_atom_site_fract_y
_atom_site_fract_z
Cd3 Cd 0.11479(3) 0.44701(3) 0.46228(2)
O12 O 0.0295(4) 0.5384(4) 0.3950(2)
N5 N 0.0992(4) 0.5400(4) 0.5380(2)
N10 N 0.1508(4) 0.8497(4) 0.8889(2)
C9 C 0.1275(5) 0.6848(5) 0.7391(3)
H9 H 0.1358 0.6227 0.7460
C14 C 0.1085(5) 0.7109(5) 0.6835(3)
H13 H 0.0976 0.7724 0.6756
C18 C 0.1127(5) 0.5591(5) 0.6402(3)
H15 H 0.1199 0.5325 0.6771
C22 C 0.1367(5) 0.7420(5) 0.7898(3)
C23 C 0.0890(5) 0.6859(5) 0.5785(3)
H18 H 0.0805 0.7481 0.5724
C25 C 0.1037(5) 0.6503(5) 0.6348(3)
C30 C 0.0872(5) 0.6288(5) 0.5324(3)
H21 H 0.0770 0.6536 0.4948
C33 C 0.1113(5) 0.5059(5) 0.5920(3)
H24 H 0.1192 0.4435 0.5971
C42 C 0.1260(5) 0.8368(5) 0.7855(3)
H30 H 0.1129 0.8653 0.7490
C43 C 0.1548(5) 0.7071(5) 0.8446(3)
H31 H 0.1634 0.6447 0.8497
C53 C 0.1352(5) 0.8859(5) 0.8360(3)
H36 H 0.1302 0.9488 0.8330
C89 C 0.1605(5) 0.7615(5) 0.8923(3)
H74 H 0.1721 0.7347 0.9293
Cd10 Cd 0.13273(3) 0.94353(3) 0.96584(2)
O22 O 0.0876(3) 0.3088(3) 0.5088(2)
O24 O 0.2619(4) 0.5152(4) 0.4554(2)
O25 O 0.2305(3) 0.3698(3) 0.5313(2)
N13 N 0.1334(4) 0.3505(4) 0.3855(2)
O3 O 0.6127(4) 0.5444(4) 0.1599(2)
O7 O 0.7187(4) 0.5154(4) 0.0375(2)
O10 O 0.5648(3) 0.5439(3) 0.0116(2)
O15 O 0.9369(4) 0.4245(4) 0.4104(2)
N3 N 0.7206(4) 0.6325(4) 0.1318(2)
H1 H 0.7772 0.6580 0.1400
N4 N 0.6333(4) 0.0033(4) 0.3861(2)
N7 N 0.5859(4) 0.3240(4) 0.0402(2)
C5 C 0.6486(5) 0.0913(5) 0.3909(3)
H7 H 0.6612 0.1168 0.4283
C6 C 0.6468(5) 0.5623(5) 0.0400(3)
C7 C 0.5967(5) 0.2103(5) 0.1351(3)
C16 C 0.6146(5) 0.0202(5) 0.2837(3)
C27 C 0.5738(5) 0.2364(5) 0.0331(3)
C28 C 0.6280(5) 0.1109(5) 0.2886(3)
C37 C 0.5777(5) 0.1784(5) 0.0789(3)
H28 H 0.5674 0.1165 0.0718
C45 C 0.6234(5) 0.1721(5) 0.2394(3)
H32 H 0.6347 0.2334 0.2477
C46 C 0.7588(5) 0.5631(5) 0.2265(3)
C47 C 0.9048(5) 0.5864(6) 0.2933(3)
H33 H 0.9636 0.6176 0.3040
C51 C 0.6924(5) 0.5798(5) 0.1702(3)
C59 C 0.6573(5) 0.6481(4) 0.0758(3)
H43 H 0.5929 0.6658 0.0824
C60 C 0.8827(5) 0.5195(6) 0.3289(3)
C61 C 0.9527(5) 0.4926(6) 0.3818(3)
C66 C 0.8443(5) 0.6078(5) 0.2435(3)
H48 H 0.8608 0.6541 0.2199
C67 C 0.6045(5) 0.1480(5) 0.1839(3)
H49 H 0.5955 0.0864 0.1754
C72 C 0.6058(6) 0.3030(5) 0.1426(3)
H52 H 0.6152 0.3283 0.1801
C73 C 0.6471(5) 0.1469(5) 0.3440(3)
H53 H 0.6589 0.2088 0.3496
C74 C 0.6945(6) 0.7211(5) 0.0431(3)
H54 H 0.7085 0.7738 0.0677
H55 H 0.6462 0.7362 0.0088
H56 H 0.7530 0.7012 0.0313
C83 C 0.7327(5) 0.4965(6) 0.2617(3)
H68 H 0.6738 0.4658 0.2503
C84 C 0.7943(5) 0.4757(5) 0.3135(3)
H69 H 0.7766 0.4319 0.3383
C86 C 0.6008(5) 0.3570(5) 0.0947(3)
H71 H 0.6082 0.4195 0.1001
Cd9 Cd 0.86727(3) 0.44353(3) 0.03416(2)
Cd1 Cd 0.38561(3) 0.41476(3) 0.53470(2)
Cd2 Cd 0.59653(3) 0.41742(3) 0.96384(2)
O1 O 0.3676(4) 0.5362(4) 0.3383(2)
O2 O 0.8932(3) 0.3051(3) 0.9883(2)
O5 O 0.4473(3) 0.2948(4) 0.6011(2)
O6 O 0.1248(4) 0.2884(4) 0.6465(2)
O8 O 0.5472(3) 0.3984(4) 0.58486(19)
O11 O 0.4158(4) 0.5418(4) 0.4895(2)
O13 O 0.8458(4) 0.2963(4) 0.8518(2)
O16 O 0.5208(4) 0.3134(4) 0.8981(2)
O17 O 0.4255(4) 0.4268(4) 0.9085(2)
O18 O 0.7487(3) 0.3612(3) 0.9649(2)
N6 N 0.2669(4) 0.6354(4) 0.3655(2)
H2 H 0.2135 0.6661 0.3565
N8 N 0.2607(4) 0.2375(4) 0.6226(2)
H3 H 0.3218 0.2257 0.6349
N9 N 0.3757(4) 0.0065(4) 0.1122(2)
O20 O 0.0417(4) 0.4290(5) 0.0863(2)
C1 C 0.1736(5) 0.3051(5) 0.5325(3)
N11 N 0.7212(4) 0.2233(4) 0.8755(2)
H5 H 0.6627 0.2029 0.8638
N12 N 0.3983(4) 0.3197(4) 0.4586(3)
C3 C 0.3586(5) 0.0943(5) 0.1077(3)
H6 H 0.3484 0.1205 0.0704
C4 C 0.8075(5) 0.2983(5) 0.9635(3)
C8 C 0.6292(5) 0.2207(5) 0.7555(3)
H8 H 0.6145 0.1717 0.7775
C10 C 0.6779(5) 0.3579(5) 0.6890(3)
H10 H 0.6966 0.4033 0.6656
C12 C 0.3970(4) 0.2071(5) 0.3635(3)
C15 C 0.3357(5) 0.5612(5) 0.4568(3)
C17 C 0.5257(5) 0.3338(6) 0.6145(3)
C19 C 0.3840(5) 0.0207(5) 0.2145(3)
C24 C 0.7319(5) 0.3416(5) 0.7410(3)
H19 H 0.7880 0.3758 0.7541
C26 C 0.4453(5) 0.3594(6) 0.8827(3)
H20 H 0.5621 0.2128 0.9951
C31 C 0.3763(5) 0.2975(5) 0.3570(3)
H22 H 0.3627 0.3232 0.3197
C32 C 0.4224(5) 0.1755(5) 0.4203(3)
H23 H 0.4399 0.1149 0.4272
C34 C 0.5721(5) 0.2390(5) 0.7009(3)
H25 H 0.5180 0.2029 0.6864
C36 C 0.4219(5) 0.2326(5) 0.4662(3)
H27 H 0.4387 0.2098 0.5043
C38 C 0.3710(5) 0.1117(5) 0.2098(3)
C39 C 0.7068(5) 0.2748(5) 0.7766(3)
C40 C 0.0992(6) 0.5202(6) 0.1694(3)
C44 C 0.2918(5) 0.5767(5) 0.3278(3)
C49 C 0.2673(5) 0.2883(5) 0.7202(3)
C50 C 0.2227(5) 0.5626(6) 0.2715(3)
C52 C 0.3551(5) 0.1487(5) 0.1543(3)
H35 H 0.3420 0.2104 0.1489
C54 C 0.7687(5) 0.2110(5) 0.9364(3)
H37 H 0.7186 0.1906 0.9575
C55 C 0.2101(5) 0.2711(5) 0.6602(3)
C56 C 0.2995(6) 0.7227(5) 0.4540(3)
H38 H 0.2961 0.7771 0.4309
H39 H 0.3456 0.7309 0.4902
H40 H 0.2363 0.7097 0.4623
C62 C 0.3756(5) 0.3499(5) 0.4050(3)
H44 H 0.3579 0.4106 0.3992
C63 C 0.2908(5) 0.3723(6) 0.8084(3)
H45 H 0.2693 0.4163 0.8317
C64 C 0.3524(5) 0.2426(6) 0.7407(3)
H46 H 0.3726 0.1969 0.7181
C65 C 0.3306(4) 0.6465(4) 0.4211(3)
H47 H 0.3961 0.6599 0.4144
C68 C 0.5946(5) 0.3094(5) 0.6684(3)
C71 C 0.7650(5) 0.2650(5) 0.8374(3)
C75 C 0.2346(5) 0.3499(5) 0.7545(3)
H57 H 0.1741 0.3774 0.7418
C77 C 0.3781(5) 0.3297(6) 0.8276(3)
C78 C 0.3703(5) 0.1705(5) 0.2594(3)
H59 H 0.3509 0.2305 0.2517
C79 C 0.2176(4) 0.2199(5) 0.5620(3)
H60 H 0.2704 0.2018 0.5424
C80 C 0.3951(5) 0.1453(5) 0.3151(3)
H61 H 0.4122 0.0849 0.3235
C81 C 0.8429(6) 0.1383(5) 0.9423(3)
H62 H 0.8127 0.0827 0.9265
H63 H 0.8717 0.1299 0.9831
H64 H 0.8927 0.1551 0.9212
C82 C 0.1473(6) 0.1438(5) 0.5556(3)
H65 H 0.1792 0.0906 0.5743
H66 H 0.1234 0.1316 0.5146
H67 H 0.0937 0.1597 0.5738
C85 C 0.2498(6) 0.4981(6) 0.2343(3)
H70 H 0.3098 0.4688 0.2439
C87 C 0.1852(6) 0.4788(6) 0.1826(3)
H72 H 0.2020 0.4362 0.1567
C88 C 0.4081(5) 0.2643(6) 0.7950(3)
H73 H 0.4664 0.2337 0.8090
C90 C 0.0277(6) 0.4947(7) 0.1154(3)
C91 C 0.0752(6) 0.5869(9) 0.2060(4)
H75 H 0.0163 0.6179 0.1956
C92 C 0.1367(6) 0.6067(8) 0.2564(3)
H76 H 0.1201 0.6512 0.2812
N14 N 0.3667(4) 0.5033(4) 0.6139(2)
N15 N 0.6243(4) 0.5065(4) 0.8878(2)
H14 H 0.6027 0.9927 0.2468
C41 C 0.6186(5) 0.9694(5) 0.3327(3)
H29 H 0.6105 0.9068 0.3283
Cd5 Cd 0.61439(3) 0.91476(3) 0.46530(2)
C11 C 0.3872(5) 0.9698(5) 0.1654(3)
H11 H 0.3977 0.9075 0.1696
H16 H 0.3908 0.9926 0.2510
Cd6 Cd 0.40347(3) 0.91742(3) 0.03616(2)
O19 O 0.9508(5) 0.5406(5) 0.1027(2)
H42 H 0.9271 0.6402 0.0057
N16 N 0.8492(4) 0.3497(4) 0.1111(2)
N1 N 0.8666(4) 0.8505(4) 0.6145(2)
N2 N 0.8901(4) 0.5330(4) 0.9604(2)
C2 C 0.8787(5) 0.6833(5) 0.7617(3)
H4 H 0.8659 0.6222 0.7532
C13 C 0.8987(5) 0.7065(5) 0.8174(3)
H12 H 0.9144 0.7669 0.8266
C20 C 0.8747(4) 0.7432(5) 0.7130(3)
C21 C 0.9186(5) 0.6768(6) 0.9221(3)
H17 H 0.9357 0.7374 0.9297
C29 C 0.8982(5) 0.6444(5) 0.8656(3)
C35 C 0.8598(5) 0.7075(5) 0.6576(3)
H26 H 0.8513 0.6452 0.6523
C48 C 0.8753(6) 0.5546(6) 0.8581(3)
H34 H 0.8615 0.5297 0.8205
C57 C 0.8806(5) 0.8858(5) 0.6674(3)
H41 H 0.8878 0.9485 0.6713
C58 C 0.9132(5) 0.6175(6) 0.9675(3)
C69 C 0.8852(5) 0.8348(5) 0.7169(3)
H50 H 0.8956 0.8628 0.7536
C70 C 0.8726(5) 0.5016(5) 0.9057(3)
H51 H 0.8577 0.4403 0.8997
C76 C 0.8573(5) 0.7622(5) 0.6101(3)
H58 H 0.8486 0.7358 0.5729
Cd8 Cd 0.88521(3) 0.94701(3) 0.53772(2)
N2_2 N 0.1099(4) 0.0330(4) 0.0396(2)
C2_2 C 0.1213(5) 0.1833(5) 0.2383(3)
H4_2 H 0.1341 0.1222 0.2468
C13_2 C 0.1013(5) 0.2065(5) 0.1826(3)
H12_2 H 0.0856 0.2669 0.1734
C20_2 C 0.1253(4) 0.2432(5) 0.2870(3)
C21_2 C 0.0814(5) 0.1768(6) 0.0779(3)
H17_2 H 0.0643 0.2374 0.0703
C29_2 C 0.1018(5) 0.1444(5) 0.1344(3)
C35_2 C 0.1402(5) 0.2075(5) 0.3424(3)
H26_2 H 0.1487 0.1452 0.3477
C48_2 C 0.1247(6) 0.0546(6) 0.1419(3)
H34_2 H 0.1385 0.0297 0.1795
C57_2 C 0.1194(5) 0.3858(5) 0.3326(3)
H41_2 H 0.1122 0.4485 0.3287
C58_2 C 0.0868(5) 0.1175(6) 0.0325(3)
C69_2 C 0.1148(5) 0.3348(5) 0.2831(3)
H50_2 H 0.1044 0.3628 0.2464
C70_2 C 0.1274(5) 0.0016(5) 0.0943(3)
C76_2 C 0.1427(5) 0.2622(5) 0.3899(3)
H58_2 H 0.1514 0.2358 0.4271
H51_2 H 0.1423 0.9403 0.1003
O21 O 0.1068(3) 0.8051(3) 0.0117(2)
O26 O 0.2513(3) 0.8612(3) 0.0351(2)
O1_2 O 0.6324(4) 0.0362(4) 0.6617(2)
O9 O 0.7381(4) 0.0152(4) 0.5446(2)
O11_2 O 0.5842(4) 0.0418(4) 0.5105(2)
N6_2 N 0.7331(4) 0.1354(4) 0.6345(2)
H2_2 H 0.7865 0.1661 0.6435
C15_2 C 0.6643(5) 0.0612(5) 0.5432(3)
C40_2 C 0.9008(6) 0.0202(6) 0.8306(3)
C44_2 C 0.7082(5) 0.0767(5) 0.6722(3)
C50_2 C 0.7773(5) 0.0626(6) 0.7285(3)
C56_2 C 0.7005(6) 0.2227(5) 0.5460(3)
H38_2 H 0.7039 0.2771 0.5691
H39_2 H 0.6544 0.2309 0.5098
H40_2 H 0.7637 0.2097 0.5377
C65_2 C 0.6694(4) 0.1465(4) 0.5789(3)
H47_2 H 0.6039 0.1599 0.5856
C91_2 C 0.9248(6) 0.0869(9) 0.7940(4)
H75_2 H 0.9837 0.1179 0.8044
C92_2 C 0.8633(6) 0.1067(8) 0.7436(3)
H76_2 H 0.8799 0.1512 0.7188
O4 O 0.9124(3) 0.8088(3) 0.4912(2)
O5_2 O 0.5527(3) 0.7948(4) 0.3989(2)
O6_2 O 0.8752(4) 0.7884(4) 0.3535(2)
O8_2 O 0.4528(3) 0.8984(4) 0.41514(19)
O13_2 O 0.1542(4) 0.7963(4) 0.1482(2)
O14 O 0.7695(3) 0.8698(3) 0.4687(2)
O16_2 O 0.4792(4) 0.8134(4) 0.1019(2)
O17_2 O 0.5745(4) 0.9268(4) 0.0915(2)
N8_2 N 0.7393(4) 0.7375(4) 0.3774(2)
H3_2 H 0.6782 0.7257 0.3651
O20_2 O 0.9583(4) 0.9290(5) 0.9137(2)
C1_2 C 0.8264(5) 0.8051(5) 0.4675(3)
N11_2 N 0.2788(4) 0.7233(4) 0.1245(2)
H5_2 H 0.3373 0.7029 0.1362
N12_2 N 0.6017(4) 0.8197(4) 0.5414(3)
C3_2 C 0.6414(5) 0.5943(5) 0.8923(3)
H6_2 H 0.6516 0.6205 0.9296
C4_2 C 0.1925(5) 0.7983(5) 0.0365(3)
C8_2 C 0.3708(5) 0.7207(5) 0.2445(3)
H8_2 H 0.3855 0.6717 0.2225
C10_2 C 0.3221(5) 0.8579(5) 0.3110(3)
H10_2 H 0.3034 0.9033 0.3344
C11_2 C 0.6128(5) 0.4698(5) 0.8346(3)
H11_2 H 0.6023 0.4075 0.8304
C12_2 C 0.6030(4) 0.7071(5) 0.6365(3)
C17_2 C 0.4743(5) 0.8338(6) 0.3855(3)
C19_2 C 0.6160(5) 0.5207(5) 0.7855(3)
H16_2 H 0.6092 0.4926 0.7490
C24_2 C 0.2681(5) 0.8416(5) 0.2590(3)
H19_2 H 0.2120 0.8758 0.2459
C26_2 C 0.5547(5) 0.8594(6) 0.1173(3)
H20_2 H 0.4379 0.7128 0.0049
C31_2 C 0.6237(5) 0.7975(5) 0.6430(3)
H22_2 H 0.6373 0.8232 0.6803
C32_2 C 0.5776(5) 0.6755(5) 0.5797(3)
H23_2 H 0.5601 0.6149 0.5728
C34_2 C 0.4279(5) 0.7390(5) 0.2991(3)
H25_2 H 0.4820 0.7029 0.3136
C36_2 C 0.5781(5) 0.7326(5) 0.5338(3)
H27_2 H 0.5613 0.7098 0.4957
C38_2 C 0.6290(5) 0.6117(5) 0.7902(3)
C39_2 C 0.2932(5) 0.7748(5) 0.2234(3)
C49_2 C 0.7327(5) 0.7883(5) 0.2798(3)
C52_2 C 0.6449(5) 0.6487(5) 0.8457(3)
H35_2 H 0.6580 0.7104 0.8511
C54_2 C 0.2313(5) 0.7110(5) 0.0636(3)
H37_2 H 0.2814 0.6906 0.0425
C55_2 C 0.7899(5) 0.7711(5) 0.3398(3)
C62_2 C 0.6244(5) 0.8499(5) 0.5950(3)
H44_2 H 0.6421 0.9106 0.6008
C63_2 C 0.7092(5) 0.8723(6) 0.1916(3)
H45_2 H 0.7307 0.9163 0.1683
C64_2 C 0.6476(5) 0.7426(6) 0.2593(3)
H46_2 H 0.6274 0.6969 0.2819
C68_2 C 0.4054(5) 0.8094(5) 0.3316(3)
C71_2 C 0.2350(5) 0.7650(5) 0.1626(3)
C75_2 C 0.7654(5) 0.8499(5) 0.2455(3)
H57_2 H 0.8259 0.8774 0.2582
C77_2 C 0.6219(5) 0.8297(6) 0.1724(3)
C78_2 C 0.6297(5) 0.6705(5) 0.7406(3)
H59_2 H 0.6491 0.7305 0.7483
C79_2 C 0.7824(4) 0.7199(5) 0.4380(3)
H60_2 H 0.7296 0.7018 0.4576
C80_2 C 0.6049(5) 0.6453(5) 0.6849(3)
H61_2 H 0.5878 0.5849 0.6765
C81_2 C 0.1571(6) 0.6383(5) 0.0577(3)
H62_2 H 0.1873 0.5827 0.0735
H63_2 H 0.1283 0.6299 0.0169
H64_2 H 0.1073 0.6551 0.0788
C82_2 C 0.8527(6) 0.6438(5) 0.4444(3)
H65_2 H 0.8208 0.5906 0.4257
H66_2 H 0.8766 0.6316 0.4854
H67_2 H 0.9063 0.6597 0.4262
C85_2 C 0.7502(6) 0.9981(6) 0.7657(3)
H70_2 H 0.6902 0.9688 0.7561
C87_2 C 0.8148(6) 0.9788(6) 0.8174(3)
H72_2 H 0.7980 0.9362 0.8433
C88_2 C 0.5919(5) 0.7643(6) 0.2050(3)
H73_2 H 0.5336 0.7337 0.1910
C90_2 C 0.9723(6) 0.9947(7) 0.8846(3)
O15_2 O 0.0631(4) 0.9245(4) 0.5896(2)
N7_2 N 0.4141(4) 0.8240(4) 0.9598(2)
C5_2 C 0.3514(5) 0.5913(5) 0.6091(3)
H7_2 H 0.3388 0.6168 0.5717
C7_2 C 0.4033(5) 0.7103(5) 0.8649(3)
C16_2 C 0.3854(5) 0.5202(5) 0.7163(3)
H14_2 H 0.3973 0.4927 0.7532
C27_2 C 0.4262(5) 0.7364(5) 0.9669(3)
C28_2 C 0.3720(5) 0.6109(5) 0.7114(3)
C37_2 C 0.4223(5) 0.6784(5) 0.9211(3)
H28_2 H 0.4326 0.6165 0.9282
C41_2 C 0.3814(5) 0.4694(5) 0.6673(3)
H29_2 H 0.3895 0.4068 0.6717
C45_2 C 0.3766(5) 0.6721(5) 0.7606(3)
H32_2 H 0.3653 0.7334 0.7523
C61_2 C 0.0473(5) 0.9926(6) 0.6182(3)
C67_2 C 0.3955(5) 0.6480(5) 0.8161(3)
H49_2 H 0.4045 0.5864 0.8246
C72_2 C 0.3942(6) 0.8030(5) 0.8574(3)
H52_2 H 0.3848 0.8283 0.8199
C73_2 C 0.3529(5) 0.6469(5) 0.6560(3)
H53_2 H 0.3411 0.7088 0.6504
C83_2 C 0.2673(5) 0.9965(6) 0.7383(3)
H68_2 H 0.3262 0.9658 0.7497
C84_2 C 0.2057(5) 0.9757(5) 0.6865(3)
H69_2 H 0.2234 0.9319 0.6617
C86_2 C 0.3992(5) 0.8570(5) 0.9053(3)
H71_2 H 0.3918 0.9195 0.8999
O12_2 O 0.9705(4) 0.0384(4) 0.6050(2)
N5_2 N 0.9008(4) 0.0400(4) 0.4620(2)
C9_2 C 0.8725(5) 0.1848(5) 0.2609(3)
H9_2 H 0.8642 0.1227 0.2540
C14_2 C 0.8915(5) 0.2109(5) 0.3165(3)
H13_2 H 0.9024 0.2724 0.3244
C18_2 C 0.8873(5) 0.0591(5) 0.3598(3)
H15_2 H 0.8801 0.0325 0.3229
C22_2 C 0.8633(5) 0.2420(5) 0.2102(3)
C23_2 C 0.9110(5) 0.1859(5) 0.4215(3)
H18_2 H 0.9195 0.2481 0.4276
C25_2 C 0.8963(5) 0.1503(5) 0.3652(3)
C30_2 C 0.9128(5) 0.1288(5) 0.4676(3)
H21_2 H 0.9230 0.1536 0.5052
C33_2 C 0.8887(5) 0.0059(5) 0.4080(3)
C42_2 C 0.8740(5) 0.3368(5) 0.2145(3)
H30_2 H 0.8871 0.3653 0.2510
C43_2 C 0.8452(5) 0.2071(5) 0.1554(3)
H31_2 H 0.8366 0.1447 0.1503
C53_2 C 0.8648(5) 0.3859(5) 0.1640(3)
H36_2 H 0.8698 0.4488 0.1670
C89_2 C 0.8395(5) 0.2615(5) 0.1077(3)
H74_2 H 0.8279 0.2347 0.0707
H24_2 H 0.8808 0.9435 0.4029
O19_2 O 0.0492(5) 0.0406(5) 0.8973(2)
H42_2 H 0.0729 0.1402 0.9943
O23 O 0.2813(4) 0.0154(4) 0.9625(2)
O3_2 O 0.3873(4) 0.0444(4) 0.8401(2)
O10_2 O 0.4352(3) 0.0439(3) 0.9884(2)
N3_2 N 0.2794(4) 0.1325(4) 0.8682(2)
H1_2 H 0.2228 0.1580 0.8600
C6_2 C 0.3532(5) 0.0623(5) 0.9600(3)
C46_2 C 0.2412(5) 0.0631(5) 0.7735(3)
C47_2 C 0.0952(5) 0.0864(6) 0.7067(3)
H33_2 H 0.0364 0.1176 0.6960
C51_2 C 0.3076(5) 0.0798(5) 0.8298(3)
C59_2 C 0.3427(5) 0.1481(4) 0.9242(3)
H43_2 H 0.4071 0.1658 0.9176
C60_2 C 0.1173(5) 0.0195(6) 0.6711(3)
C66_2 C 0.1557(5) 0.1078(5) 0.7565(3)
H48_2 H 0.1392 0.1541 0.7801
C74_2 C 0.3055(6) 0.2211(5) 0.9569(3)
H54_2 H 0.2915 0.2738 0.9323
H55_2 H 0.3538 0.2362 0.9912
H56_2 H 0.2470 0.2012 0.9687
loop_
_geom_bond_atom_site_label_1
_geom_bond_atom_site_label_2
_geom_bond_site_symmetry_1
_geom_bond_site_symmetry_2
Cd3 O12 1_555 1_555
N5 Cd3 1_555 1_555
N10 C53 1_555 1_555
C9 H9 1_555 1_555
C14 C9 1_555 1_555
H13 C14 1_555 1_555
C18 H15 1_555 1_555
C22 C9 1_555 1_555
C23 H18 1_555 1_555
C25 C14 1_555 1_555
C30 N5 1_555 1_555
H21 C30 1_555 1_555
C33 N5 1_555 1_555
H24 C33 1_555 1_555
C42 C22 1_555 1_555
H30 C42 1_555 1_555
C43 C22 1_555 1_555
H31 C43 1_555 1_555
C53 C42 1_555 1_555
H36 C53 1_555 1_555
C89 N10 1_555 1_555
H74 C89 1_555 1_555
Cd10 N10 1_555 1_555
O22 Cd3 1_555 1_555
O24 Cd3 1_555 1_555
O25 Cd3 1_555 1_555
N13 Cd3 1_555 1_555
C18 C25 1_555 1_555
C18 C33 1_555 1_555
C23 C25 1_555 1_555
C23 C30 1_555 1_555
C43 C89 1_555 1_555
O3 C51 1_555 1_555
O7 C6 1_555 1_555
N3 H1 1_555 1_555
N4 C5 1_555 1_555
C5 H7 1_555 1_555
C6 O10 1_555 1_555
C7 C37 1_555 1_555
C27 N7 1_555 1_555
C28 C16 1_555 1_555
C37 C27 1_555 1_555
H28 C37 1_555 1_555
C45 C28 1_555 1_555
H32 C45 1_555 1_555
C46 C51 1_555 1_555
C47 H33 1_555 1_555
C51 N3 1_555 1_555
C59 N3 1_555 1_555
H43 C59 1_555 1_555
C60 C47 1_555 1_555
C61 O15 1_555 1_555
C66 C46 1_555 1_555
H48 C66 1_555 1_555
C67 C7 1_555 1_555
H49 C67 1_555 1_555
C72 C7 1_555 1_555
H52 C72 1_555 1_555
C73 C5 1_555 1_555
H53 C73 1_555 1_555
C74 C59 1_555 1_555
H54 C74 1_555 1_555
H55 C74 1_555 1_555
H56 C74 1_555 1_555
C83 C46 1_555 1_555
H68 C83 1_555 1_555
C84 C60 1_555 1_555
H69 C84 1_555 1_555
C86 N7 1_555 1_555
H71 C86 1_555 1_555
O7 Cd9 1_555 1_555
C6 C59 1_555 1_555
C28 C73 1_555 1_555
C45 C67 1_555 1_555
C47 C66 1_555 1_555
C60 C61 1_555 1_555
C72 C86 1_555 1_555
C83 C84 1_555 1_555
Cd1 O5 1_555 1_555
O1 C44 1_555 1_555
O2 C4 1_555 1_555
O22 C1 1_555 1_555
O5 C17 1_555 1_555
O6 C55 1_555 1_555
O8 Cd1 1_555 1_555
O24 Cd1 1_555 1_555
O11 Cd1 1_555 1_555
O13 C71 1_555 1_555
O25 Cd1 1_555 1_555
O16 Cd2 1_555 1_555
O17 Cd2 1_555 1_555
O18 Cd2 1_555 1_555
N6 H2 1_555 1_555
N8 H3 1_555 1_555
N9 C3 1_555 1_555
C1 O25 1_555 1_555
N11 H5 1_555 1_555
N12 Cd1 1_555 1_555
C3 H6 1_555 1_555
C4 O18 1_555 1_555
C8 H8 1_555 1_555
C10 H10 1_555 1_555
C12 C31 1_555 1_555
C15 O24 1_555 1_555
C17 O8 1_555 1_555
C24 C10 1_555 1_555
H19 C24 1_555 1_555
C26 O16 1_555 1_555
C31 H22 1_555 1_555
C32 C12 1_555 1_555
H23 C32 1_555 1_555
C34 C8 1_555 1_555
H25 C34 1_555 1_555
C36 N12 1_555 1_555
H27 C36 1_555 1_555
C38 C19 1_555 1_555
C39 C8 1_555 1_555
C40 C87 1_555 1_555
C44 N6 1_555 1_555
C49 C55 1_555 1_555
C50 C44 1_555 1_555
C52 C3 1_555 1_555
H35 C52 1_555 1_555
C54 N11 1_555 1_555
H37 C54 1_555 1_555
C55 N8 1_555 1_555
C56 H38 1_555 1_555
H39 C56 1_555 1_555
H40 C56 1_555 1_555
C62 N12 1_555 1_555
H44 C62 1_555 1_555
C63 H45 1_555 1_555
C64 C49 1_555 1_555
H46 C64 1_555 1_555
C65 N6 1_555 1_555
H47 C65 1_555 1_555
C68 C10 1_555 1_555
C71 N11 1_555 1_555
C75 C49 1_555 1_555
H57 C75 1_555 1_555
C77 C26 1_555 1_555
C78 C38 1_555 1_555
H59 C78 1_555 1_555
C79 N8 1_555 1_555
H60 C79 1_555 1_555
C80 C12 1_555 1_555
H61 C80 1_555 1_555
C81 C54 1_555 1_555
H62 C81 1_555 1_555
H63 C81 1_555 1_555
H64 C81 1_555 1_555
C82 C79 1_555 1_555
H65 C82 1_555 1_555
H66 C82 1_555 1_555
H67 C82 1_555 1_555
C85 C50 1_555 1_555
H70 C85 1_555 1_555
C87 C85 1_555 1_555
H72 C87 1_555 1_555
C88 C64 1_555 1_555
H73 C88 1_555 1_555
C91 C40 1_555 1_555
H75 C91 1_555 1_555
C92 C50 1_555 1_555
H76 C92 1_555 1_555
N14 Cd1 1_555 1_555
N15 Cd2 1_555 1_555
O11 C15 1_555 1_555
O17 C26 1_555 1_555
O20 C90 1_555 1_555
C1 C79 1_555 1_555
C4 C54 1_555 1_555
C15 C65 1_555 1_555
C17 C68 1_555 1_555
C24 C39 1_555 1_555
C31 C62 1_555 1_555
C32 C36 1_555 1_555
C34 C68 1_555 1_555
C38 C52 1_555 1_555
C39 C71 1_555 1_555
C40 C90 1_555 1_555
C56 C65 1_555 1_555
C63 C75 1_555 1_555
C63 C77 1_555 1_555
C77 C88 1_555 1_555
C78 C80 1_555 1_555
C91 C92 1_555 1_555
H29 C41 1_555 1_555
H11 C11 1_555 1_555
O19 Cd9 1_555 1_555
N16 Cd9 1_555 1_555
N1 C57 1_555 1_555
N2 C58 1_555 1_555
C2 H4 1_555 1_555
C13 C2 1_555 1_555
H12 C13 1_555 1_555
C20 C2 1_555 1_555
C21 H17 1_555 1_555
C29 C13 1_555 1_555
C35 C20 1_555 1_555
H26 C35 1_555 1_555
C48 C29 1_555 1_555
H34 C48 1_555 1_555
C57 H41 1_555 1_555
C58 C21 1_555 1_555
C69 C20 1_555 1_555
H50 C69 1_555 1_555
C70 N2 1_555 1_555
H51 C70 1_555 1_555
C76 N1 1_555 1_555
H58 C76 1_555 1_555
Cd8 N1 1_555 1_555
C21 C29 1_555 1_555
C35 C76 1_555 1_555
C48 C70 1_555 1_555
C57 C69 1_555 1_555
N13 C57_2 1_555 1_555
N2_2 C58_2 1_555 1_555
C2_2 H4_2 1_555 1_555
C13_2 C2_2 1_555 1_555
H12_2 C13_2 1_555 1_555
C20_2 C2_2 1_555 1_555
C21_2 H17_2 1_555 1_555
C29_2 C13_2 1_555 1_555
C35_2 C20_2 1_555 1_555
H26_2 C35_2 1_555 1_555
C48_2 C29_2 1_555 1_555
H34_2 C48_2 1_555 1_555
C57_2 H41_2 1_555 1_555
C58_2 C21_2 1_555 1_555
C69_2 C20_2 1_555 1_555
H50_2 C69_2 1_555 1_555
C70_2 N2_2 1_555 1_555
C76_2 N13 1_555 1_555
H58_2 C76_2 1_555 1_555
C21_2 C29_2 1_555 1_555
C35_2 C76_2 1_555 1_555
C48_2 C70_2 1_555 1_555
C57_2 C69_2 1_555 1_555
O1_2 C44_2 1_555 1_555
N6_2 H2_2 1_555 1_555
C15_2 O9 1_555 1_555
C44_2 N6_2 1_555 1_555
C50_2 C44_2 1_555 1_555
C56_2 H38_2 1_555 1_555
H39_2 C56_2 1_555 1_555
H40_2 C56_2 1_555 1_555
C65_2 N6_2 1_555 1_555
H47_2 C65_2 1_555 1_555
C91_2 C40_2 1_555 1_555
H75_2 C91_2 1_555 1_555
C92_2 C50_2 1_555 1_555
H76_2 C92_2 1_555 1_555
O11_2 C15_2 1_555 1_555
C15_2 C65_2 1_555 1_555
C56_2 C65_2 1_555 1_555
C91_2 C92_2 1_555 1_555
Cd5 O5_2 1_555 1_555
O21 C4_2 1_555 1_555
O4 C1_2 1_555 1_555
O5_2 C17_2 1_555 1_555
O6_2 C55_2 1_555 1_555
O8_2 Cd5 1_555 1_555
O13_2 C71_2 1_555 1_555
O14 Cd5 1_555 1_555
O16_2 Cd6 1_555 1_555
O17_2 Cd6 1_555 1_555
O26 Cd6 1_555 1_555
N8_2 H3_2 1_555 1_555
N15 C3_2 1_555 1_555
C1_2 O14 1_555 1_555
N11_2 H5_2 1_555 1_555
N12_2 Cd5 1_555 1_555
C3_2 H6_2 1_555 1_555
C4_2 O26 1_555 1_555
C8_2 H8_2 1_555 1_555
C10_2 H10_2 1_555 1_555
C11_2 N15 1_555 1_555
H11_2 C11_2 1_555 1_555
C12_2 C31_2 1_555 1_555
C17_2 O8_2 1_555 1_555
C19_2 C11_2 1_555 1_555
H16_2 C19_2 1_555 1_555
C24_2 C10_2 1_555 1_555
H19_2 C24_2 1_555 1_555
C26_2 O16_2 1_555 1_555
C31_2 H22_2 1_555 1_555
C32_2 C12_2 1_555 1_555
H23_2 C32_2 1_555 1_555
C34_2 C8_2 1_555 1_555
H25_2 C34_2 1_555 1_555
C36_2 N12_2 1_555 1_555
H27_2 C36_2 1_555 1_555
C38_2 C19_2 1_555 1_555
C39_2 C8_2 1_555 1_555
C49_2 C55_2 1_555 1_555
C52_2 C3_2 1_555 1_555
H35_2 C52_2 1_555 1_555
C54_2 N11_2 1_555 1_555
H37_2 C54_2 1_555 1_555
C55_2 N8_2 1_555 1_555
C62_2 N12_2 1_555 1_555
H44_2 C62_2 1_555 1_555
C63_2 H45_2 1_555 1_555
C64_2 C49_2 1_555 1_555
H46_2 C64_2 1_555 1_555
C68_2 C10_2 1_555 1_555
C71_2 N11_2 1_555 1_555
C75_2 C49_2 1_555 1_555
H57_2 C75_2 1_555 1_555
C77_2 C26_2 1_555 1_555
C78_2 C38_2 1_555 1_555
H59_2 C78_2 1_555 1_555
C79_2 N8_2 1_555 1_555
H60_2 C79_2 1_555 1_555
C80_2 C12_2 1_555 1_555
H61_2 C80_2 1_555 1_555
C81_2 C54_2 1_555 1_555
H62_2 C81_2 1_555 1_555
H63_2 C81_2 1_555 1_555
H64_2 C81_2 1_555 1_555
C82_2 C79_2 1_555 1_555
H65_2 C82_2 1_555 1_555
H66_2 C82_2 1_555 1_555
H67_2 C82_2 1_555 1_555
H70_2 C85_2 1_555 1_555
C87_2 C85_2 1_555 1_555
H72_2 C87_2 1_555 1_555
C88_2 C64_2 1_555 1_555
H73_2 C88_2 1_555 1_555
Cd8 O4 1_555 1_555
O14 Cd8 1_555 1_555
O17_2 C26_2 1_555 1_555
O20_2 C90_2 1_555 1_555
C1_2 C79_2 1_555 1_555
C4_2 C54_2 1_555 1_555
C17_2 C68_2 1_555 1_555
C24_2 C39_2 1_555 1_555
C31_2 C62_2 1_555 1_555
C32_2 C36_2 1_555 1_555
C34_2 C68_2 1_555 1_555
C38_2 C52_2 1_555 1_555
C39_2 C71_2 1_555 1_555
C63_2 C75_2 1_555 1_555
C63_2 C77_2 1_555 1_555
C77_2 C88_2 1_555 1_555
C78_2 C80_2 1_555 1_555
N14 C5_2 1_555 1_555
C5_2 H7_2 1_555 1_555
C7_2 C37_2 1_555 1_555
C16_2 H14_2 1_555 1_555
C27_2 N7_2 1_555 1_555
C28_2 C16_2 1_555 1_555
C37_2 C27_2 1_555 1_555
H28_2 C37_2 1_555 1_555
C41_2 N14 1_555 1_555
H29_2 C41_2 1_555 1_555
C45_2 C28_2 1_555 1_555
H32_2 C45_2 1_555 1_555
C61_2 O15_2 1_555 1_555
C67_2 C7_2 1_555 1_555
H49_2 C67_2 1_555 1_555
C72_2 C7_2 1_555 1_555
H52_2 C72_2 1_555 1_555
C73_2 C5_2 1_555 1_555
H53_2 C73_2 1_555 1_555
H68_2 C83_2 1_555 1_555
H69_2 C84_2 1_555 1_555
C86_2 N7_2 1_555 1_555
H71_2 C86_2 1_555 1_555
C16_2 C41_2 1_555 1_555
C28_2 C73_2 1_555 1_555
C45_2 C67_2 1_555 1_555
C72_2 C86_2 1_555 1_555
C83_2 C84_2 1_555 1_555
N16 C53_2 1_555 1_555
C9_2 H9_2 1_555 1_555
C14_2 C9_2 1_555 1_555
H13_2 C14_2 1_555 1_555
C18_2 H15_2 1_555 1_555
C22_2 C9_2 1_555 1_555
C23_2 H18_2 1_555 1_555
C25_2 C14_2 1_555 1_555
C30_2 N5_2 1_555 1_555
H21_2 C30_2 1_555 1_555
C33_2 N5_2 1_555 1_555
C42_2 C22_2 1_555 1_555
H30_2 C42_2 1_555 1_555
C43_2 C22_2 1_555 1_555
H31_2 C43_2 1_555 1_555
C53_2 C42_2 1_555 1_555
H36_2 C53_2 1_555 1_555
C89_2 N16 1_555 1_555
H74_2 C89_2 1_555 1_555
C18_2 C25_2 1_555 1_555
C18_2 C33_2 1_555 1_555
C23_2 C25_2 1_555 1_555
C23_2 C30_2 1_555 1_555
C43_2 C89_2 1_555 1_555
O3_2 C51_2 1_555 1_555
O23 C6_2 1_555 1_555
N3_2 H1_2 1_555 1_555
C6_2 O10_2 1_555 1_555
C46_2 C51_2 1_555 1_555
C47_2 H33_2 1_555 1_555
C51_2 N3_2 1_555 1_555
C59_2 N3_2 1_555 1_555
H43_2 C59_2 1_555 1_555
C60_2 C47_2 1_555 1_555
C66_2 C46_2 1_555 1_555
H48_2 C66_2 1_555 1_555
C74_2 C59_2 1_555 1_555
H54_2 C74_2 1_555 1_555
H55_2 C74_2 1_555 1_555
H56_2 C74_2 1_555 1_555
C6_2 C59_2 1_555 1_555
C47_2 C66_2 1_555 1_555

#END
