
###############################################################################
#
# This file contains modified crystal structure data generated from the
# MOF subset of the Cambridge Structural Database (CSD) v543 
# hosted by the Cambridge Crystallographic Data Centre (CCDC).
#
# This work is licensed under the Creative Commons
# Attribution-NonCommercial-ShareAlike 4.0 International License.
# To view a copy of this license, visit
# http://creativecommons.org/licenses/by-nc-sa/4.0/
# or send a letter to
# Creative Commons, PO Box 1866, Mountain View, CA 94042, USA.
#
# CIF created using the CSD Python API on 29 September 2022
# The structure has been converted into the P1 space group
# The structure has a 3D framework
# The original CSD entry FUVWAX is in the tetragonal crystal system
# The original CSD entry FUVWAX is in a Sohncke space group
# The framework has been calculated to contain at least 10.0% void space
# The void calculation uses a probe of radius 1.32A, grid spacing 0.4
# H atom positions have been added when not included in the experimental data
#
###############################################################################

data_FUVWAX
_chemical_formula_moiety         '(C464 H368 Cd16 N48 O94)n'
_symmetry_cell_setting           triclinic
_symmetry_space_group_name_H-M   'P 1'
_symmetry_Int_Tables_number      1
_space_group_name_Hall           'P 1'
loop_
_symmetry_equiv_pos_site_id
_symmetry_equiv_pos_as_xyz
1 x,y,z
_cell_length_a                   19.4835(4)
_cell_length_b                   19.4835(4)
_cell_length_c                   50.6104(11)
_cell_angle_alpha                90
_cell_angle_beta                 90
_cell_angle_gamma                90
_cell_volume                     19212.1
loop_
_atom_site_label
_atom_site_type_symbol
_atom_site_fract_x
_atom_site_fract_y
_atom_site_fract_z
O3 O 0.3122(5) 0.0476(5) 0.27315(18)
N3 N 0.7967(7) 0.2961(7) 0.4529(2)
C6 C 0.2730(8) 0.0061(8) 0.2662(3)
H7 H 0.1722 0.0255 0.3024
H8 H 0.1387 0.0009 0.2750
C15 C 0.6944(8) 0.1898(7) 0.4584(3)
C20 C 0.6456(9) 0.0750(8) 0.4669(3)
H13 H 0.6898 0.0581 0.4714
C24 C 0.8073(9) 0.2267(8) 0.4535(3)
H16 H 0.8538 0.2124 0.4525
C29 C 0.7638(8) 0.1794(9) 0.4552(3)
H21 H 0.7799 0.1334 0.4542
C31 C 0.6761(8) 0.2634(7) 0.4583(3)
H22 H 0.6298 0.2786 0.4588
C33 C 0.6452(9) 0.1413(8) 0.4624(3)
H24 H 0.6001 0.1598 0.4618
C34 C 0.7301(8) 0.3081(9) 0.4574(3)
H25 H 0.7186 0.3548 0.4605
C41 C 0.5943(4) 0.0228(4) 0.46658(18)
C42 C 0.5249(5) 0.0386(3) 0.46832(18)
H31 H 0.5102 0.0849 0.4669
Cd3 Cd 0.33773(6) 0.08159(6) 0.22605(2)
Cd5 Cd 0.87833(6) 0.37829(6) 0.45098(2)
Cd7 Cd 0.37833(6) 0.12171(6) 0.29902(2)
Cd1 Cd 0.41841(6) 0.83773(6) 0.47605(2)
O1 O 0.2597(6) 0.9947(5) 0.23999(18)
N2 N 0.3382(4) 0.7526(4) 0.47360(16)
C1 C 0.2692(4) 0.7703(3) 0.47229(18)
H1 H 0.2561 0.8173 0.4723
C2 C 0.2194(3) 0.7194(4) 0.47091(19)
H2 H 0.1722 0.7315 0.4700
C3 C 0.2386(4) 0.6507(4) 0.47085(18)
C4 C 0.3076(5) 0.6329(3) 0.47217(18)
H3 H 0.3207 0.5859 0.4721
C5 C 0.3574(3) 0.6838(4) 0.47354(18)
H4 H 0.4045 0.6717 0.4744
N4 N 0.2729(7) 0.9439(7) 0.3071(2)
H5 H 0.2749 0.9778 0.3186
O5 O 0.3715(5) 0.8829(5) 0.43804(18)
O6 O 0.1377(5) 0.3996(5) 0.65505(18)
O7 O 0.4435(5) 0.8030(5) 0.42719(18)
O8 O 0.3175(5) 0.8418(5) 0.29647(18)
N5 N 0.0023(7) 0.2708(7) 0.5316(2)
C7 C 0.3991(8) 0.8478(8) 0.4206(3)
C8 C 0.2353(8) 0.9559(8) 0.2818(3)
H6 H 0.2292 0.9120 0.2718
O9 O 0.0759(5) 0.3116(5) 0.66530(18)
C9 C 0.3299(8) 0.8750(8) 0.3411(3)
C10 C 0.3057(8) 0.8813(8) 0.3136(3)
C11 C 0.1650(8) 0.9855(8) 0.2907(3)
O10 O 0.0058(6) 0.7996(5) 0.34993(18)
H9 H 0.0044 0.7608 0.3427
C12 C 0.1011(8) 0.3537(8) 0.6498(3)
C13 C 0.1864(8) 0.5980(8) 0.4648(3)
H10 H 0.2023 0.5520 0.4638
H11 H 0.0230 0.2358 0.4985
C17 C 0.3781(8) 0.8533(8) 0.3920(3)
C18 C 0.1255(8) 0.9313(8) 0.3051(3)
C19 C 0.0884(8) 0.8810(8) 0.2933(3)
H12 H 0.0882 0.8768 0.2746
C21 C 0.0702(8) 0.5507(8) 0.4603(3)
C22 C 0.0502(8) 0.8348(8) 0.3089(3)
H14 H 0.0278 0.7972 0.3007
C25 C 0.1007(8) 0.3778(8) 0.6030(3)
H17 H 0.1126 0.4229 0.6085
C26 C 0.0267(8) 0.4400(9) 0.4573(3)
H18 H 0.0367 0.3923 0.4571
C27 C 0.3821(8) 0.8354(8) 0.3472(3)
H19 H 0.4029 0.8104 0.3333
C28 C 0.0885(8) 0.3668(8) 0.5747(3)
H20 H 0.1042 0.3998 0.5623
C30 C 0.0580(8) 0.3148(8) 0.5669(3)
C32 C 0.1228(8) 0.6070(8) 0.4608(3)
H23 H 0.1073 0.6526 0.4579
C35 C 0.0050(8) 0.5712(9) 0.4614(3)
C36 C 0.0869(9) 0.4912(8) 0.4608(3)
H27 H 0.1332 0.4768 0.4630
C37 C 0.0966(8) 0.3336(8) 0.6201(3)
C38 C 0.3217(8) 0.8922(8) 0.3886(3)
H28 H 0.2952 0.9070 0.4033
C39 C 0.5681(4) 0.9030(3) 0.47248(17)
H29 H 0.5828 0.8567 0.4739
C40 C 0.6159(3) 0.9550(5) 0.46867(18)
H30 H 0.6634 0.9442 0.4675
C43 C 0.4771(3) 0.9866(4) 0.47214(18)
H32 H 0.4296 0.9974 0.4733
N6 N 0.4986(4) 0.9188(4) 0.47422(16)
C44 C 0.0446(8) 0.8428(8) 0.3350(3)
C45 C 0.4095(9) 0.8269(8) 0.3720(3)
H33 H 0.4509 0.8020 0.3744
C46 C 0.3025(8) 0.9111(8) 0.3619(3)
H34 H 0.2714 0.9479 0.3588
C48 C 0.0507(8) 0.2553(8) 0.5862(3)
H37 H 0.0364 0.2112 0.5804
C49 C 0.0663(8) 0.2683(8) 0.6136(3)
H38 H 0.0569 0.2351 0.6269
C50 C 0.0697(8) 0.8998(8) 0.3468(3)
H39 H 0.0566 0.9125 0.3642
C51 C 0.1124(8) 0.9359(8) 0.3331(3)
H40 H 0.1381 0.9693 0.3426
O11 O 0.0796(6) 0.3330(5) 0.52042(18)
C52 C 0.0369(8) 0.3031(8) 0.5393(2)
C57 C 0.0557(6) 0.1069(7) 0.5259(3)
H44 H 0.0787 0.1496 0.5278
C58 C 0.0881(7) 0.0491(6) 0.5344(3)
H45 H 0.1366 0.0467 0.5362
Cd6 Cd 0.12171(6) 0.37833(6) 0.70098(2)
O13 O 0.5053(5) 0.7597(6) 0.48999(18)
O14 O 0.4524(5) 0.8122(5) 0.52315(18)
O16 O 0.3441(5) 0.9102(6) 0.50019(18)
O2 O 0.9594(6) 0.2973(5) 0.46447(18)
N1 N 0.9661(7) 0.4583(7) 0.4548(2)
O4 O 0.9102(6) 0.3441(5) 0.49981(18)
C14 C 0.9490(8) 0.2925(8) 0.4886(3)
C16 C 0.9777(9) 0.2434(8) 0.5073(3)
C23 C 0.9461(9) 0.5268(8) 0.4596(3)
H15 H 0.8999 0.5416 0.4613
H26 H 0.9967 0.6189 0.4636
C47 C 0.9467(8) 0.1691(7) 0.5034(3)
H35 H 0.9394 0.1614 0.4843
H36 H 0.9012 0.1675 0.5121
C55 C 0.9539(7) 0.0491(6) 0.5188(3)
H43 H 0.9078 0.0475 0.5127
C56 C 0.9930(6) 0.1067(6) 0.5148(3)
Cd4 Cd 0.83773(6) 0.41841(6) 0.52395(2)
O15 O 0.8122(5) 0.4524(5) 0.47685(18)
O17 O 0.8996(5) 0.3623(5) 0.40505(18)
O18 O 0.8116(5) 0.4241(5) 0.41530(18)
H46 H 0.974665 0.249983 0.546593
C16_2 C 0.0223(9) 0.7566(8) 0.0073(3)
C47_2 C 0.0533(8) 0.8309(7) 0.0034(3)
H36_2 H 0.0988 0.8325 0.0121
C55_2 C 0.0461(7) 0.9509(6) 0.0188(3)
H43_2 H 0.0922 0.9525 0.0127
C56_2 C 0.0070(6) 0.8933(6) 0.0148(3)
Cd4_2 Cd 0.16227(6) 0.58159(6) 0.02395(2)
H46_2 H 0.0253353 0.750017 0.0465934
Cd2 Cd 0.12167(6) 0.62171(6) 0.95098(2)
O2_2 O 0.0406(6) 0.7027(5) 0.96447(18)
N1_2 N 0.0339(7) 0.5417(7) 0.9548(2)
O4_2 O 0.0898(6) 0.6559(5) 0.99981(18)
C14_2 C 0.0510(8) 0.7075(8) 0.9886(3)
C23_2 C 0.0539(9) 0.4732(8) 0.9596(3)
H15_2 H 0.1001 0.4584 0.9613
H26_2 H 0.0033 0.3811 0.9636
H35_2 H 0.0606 0.8386 0.9843
O15_2 O 0.1878(5) 0.5476(5) 0.97685(18)
N7 N 0.2033(7) 0.7039(7) 0.9529(2)
O17_2 O 0.1004(5) 0.6377(5) 0.90505(18)
O18_2 O 0.1884(5) 0.5759(5) 0.91530(18)
O6_2 O 0.8623(5) 0.6004(5) 0.15505(18)
N5_2 N 0.9977(7) 0.7292(7) 0.0316(2)
O9_2 O 0.9241(5) 0.6884(5) 0.16530(18)
C12_2 C 0.8989(8) 0.6463(8) 0.1498(3)
C25_2 C 0.8993(8) 0.6222(8) 0.1030(3)
H17_2 H 0.8874 0.5771 0.1085
C28_2 C 0.9115(8) 0.6332(8) 0.0747(3)
H20_2 H 0.8958 0.6002 0.0623
C30_2 C 0.9420(8) 0.6852(8) 0.0669(3)
C37_2 C 0.9034(8) 0.6664(8) 0.1201(3)
C48_2 C 0.9493(8) 0.7447(8) 0.0862(3)
H37_2 H 0.9636 0.7888 0.0804
C49_2 C 0.9337(8) 0.7317(8) 0.1136(3)
H38_2 H 0.9431 0.7649 0.1269
O11_2 O 0.9204(6) 0.6670(5) 0.02042(18)
C52_2 C 0.9631(8) 0.6969(8) 0.0393(2)
C57_2 C 0.9443(6) 0.8931(7) 0.0259(3)
H44_2 H 0.9213 0.8504 0.0278
C58_2 C 0.9119(7) 0.9509(6) 0.0344(3)
H45_2 H 0.8634 0.9533 0.0362
Cd6_2 Cd 0.87829(6) 0.62167(6) 0.20098(2)
O14_2 O 0.5476(5) 0.1878(5) 0.02315(18)
O16_2 O 0.6559(5) 0.0898(6) 0.00019(18)
Cd1_2 Cd 0.58159(6) 0.16227(6) 0.97605(2)
O1_2 O 0.7403(6) 0.0053(5) 0.73999(18)
N2_2 N 0.6618(4) 0.2474(4) 0.97360(16)
C1_2 C 0.7308(4) 0.2297(3) 0.97229(18)
H1_2 H 0.7439 0.1827 0.9723
C2_2 C 0.7806(3) 0.2806(4) 0.97091(19)
H2_2 H 0.8278 0.2685 0.9700
C3_2 C 0.7614(4) 0.3493(4) 0.97085(18)
C4_2 C 0.6924(5) 0.3671(3) 0.97217(18)
H3_2 H 0.6793 0.4141 0.9721
C5_2 C 0.6426(3) 0.3162(4) 0.97354(18)
H4_2 H 0.5955 0.3283 0.9744
N4_2 N 0.7271(7) 0.0561(7) 0.8071(2)
H5_2 H 0.7251 0.0222 0.8186
O5_2 O 0.6285(5) 0.1171(5) 0.93804(18)
O7_2 O 0.5565(5) 0.1970(5) 0.92719(18)
O8_2 O 0.6825(5) 0.1582(5) 0.79647(18)
C7_2 C 0.6009(8) 0.1522(8) 0.9206(3)
C8_2 C 0.7647(8) 0.0441(8) 0.7818(3)
H6_2 H 0.7708 0.0880 0.7718
C9_2 C 0.6701(8) 0.1250(8) 0.8411(3)
C10_2 C 0.6943(8) 0.1187(8) 0.8136(3)
C11_2 C 0.8350(8) 0.0145(8) 0.7907(3)
O10_2 O 0.9942(6) 0.2004(5) 0.84993(18)
H9_2 H 0.9956 0.2392 0.8427
C13_2 C 0.8136(8) 0.4020(8) 0.9648(3)
H10_2 H 0.7977 0.4480 0.9638
H11_2 H 0.9770 0.7642 0.9985
C17_2 C 0.6219(8) 0.1467(8) 0.8920(3)
C18_2 C 0.8745(8) 0.0687(8) 0.8051(3)
C19_2 C 0.9116(8) 0.1190(8) 0.7933(3)
H12_2 H 0.9118 0.1232 0.7746
C21_2 C 0.9298(8) 0.4493(8) 0.9603(3)
C22_2 C 0.9498(8) 0.1652(8) 0.8089(3)
H14_2 H 0.9722 0.2028 0.8007
C26_2 C 0.9733(8) 0.5600(9) 0.9573(3)
H18_2 H 0.9633 0.6077 0.9571
C27_2 C 0.6179(8) 0.1646(8) 0.8472(3)
H19_2 H 0.5971 0.1896 0.8333
C32_2 C 0.8772(8) 0.3930(8) 0.9608(3)
H23_2 H 0.8927 0.3474 0.9579
C35_2 C 0.9950(8) 0.4288(9) 0.9614(3)
C36_2 C 0.9131(9) 0.5088(8) 0.9608(3)
H27_2 H 0.8668 0.5232 0.9630
C38_2 C 0.6783(8) 0.1078(8) 0.8886(3)
H28_2 H 0.7048 0.0930 0.9033
C39_2 C 0.4319(4) 0.0970(3) 0.97248(17)
H29_2 H 0.4172 0.1433 0.9739
C40_2 C 0.3841(3) 0.0450(5) 0.96867(18)
H30_2 H 0.3366 0.0558 0.9675
C43_2 C 0.5229(3) 0.0134(4) 0.97214(18)
H32_2 H 0.5704 0.0026 0.9733
N6_2 N 0.5014(4) 0.0812(4) 0.97422(16)
C44_2 C 0.9554(8) 0.1572(8) 0.8350(3)
C45_2 C 0.5905(9) 0.1731(8) 0.8720(3)
H33_2 H 0.5491 0.1980 0.8744
C46_2 C 0.6975(8) 0.0889(8) 0.8619(3)
H34_2 H 0.7286 0.0521 0.8588
C50_2 C 0.9303(8) 0.1002(8) 0.8468(3)
H39_2 H 0.9434 0.0875 0.8642
C51_2 C 0.8876(8) 0.0641(8) 0.8331(3)
H40_2 H 0.8619 0.0307 0.8426
O13_2 O 0.4947(5) 0.2403(6) 0.98999(18)
O3_2 O 0.6878(5) 0.9524(5) 0.77315(18)
C6_2 C 0.7270(8) 0.9939(8) 0.7662(3)
H7_2 H 0.8278 0.9745 0.8024
H8_2 H 0.8613 0.9991 0.7750
C15_2 C 0.3056(8) 0.8102(7) 0.9584(3)
C20_2 C 0.3544(9) 0.9250(8) 0.9669(3)
H13_2 H 0.3102 0.9419 0.9714
C24_2 C 0.1927(9) 0.7733(8) 0.9535(3)
H16_2 H 0.1462 0.7876 0.9525
C29_2 C 0.2362(8) 0.8206(9) 0.9552(3)
H21_2 H 0.2201 0.8666 0.9542
C31_2 C 0.3239(8) 0.7366(7) 0.9583(3)
H22_2 H 0.3702 0.7214 0.9588
C33_2 C 0.3548(9) 0.8587(8) 0.9624(3)
H24_2 H 0.3999 0.8402 0.9618
C34_2 C 0.2699(8) 0.6919(9) 0.9574(3)
H25_2 H 0.2814 0.6452 0.9605
C41_2 C 0.4057(4) 0.9772(4) 0.96658(18)
C42_2 C 0.4751(5) 0.9614(3) 0.96832(18)
H31_2 H 0.4898 0.9151 0.9669
Cd3_2 Cd 0.66227(6) 0.91841(6) 0.72605(2)
Cd7_2 Cd 0.62167(6) 0.87829(6) 0.79902(2)
O2_3 O 0.2027(5) 0.4594(6) 0.71447(18)
N1_3 N 0.0417(7) 0.4661(7) 0.7048(2)
O4_3 O 0.1559(5) 0.4102(6) 0.74981(18)
N5_3 N 0.2292(7) 0.5023(7) 0.7816(2)
C12_3 C 0.1463(8) 0.6011(8) 0.8998(3)
C14_3 C 0.2075(8) 0.4490(8) 0.7386(3)
C16_3 C 0.2566(8) 0.4777(9) 0.7573(3)
H11_3 H 0.2642 0.5230 0.7485
C25_3 C 0.1222(8) 0.6007(8) 0.8530(3)
H17_3 H 0.0771 0.6126 0.8585
C26_3 C 0.0600(9) 0.5267(8) 0.7073(3)
H18_3 H 0.1077 0.5367 0.7071
C28_3 C 0.1332(8) 0.5885(8) 0.8247(3)
H20_3 H 0.1002 0.6042 0.8123
C30_3 C 0.1852(8) 0.5580(8) 0.8169(3)
C36_3 C 0.0088(8) 0.5869(9) 0.7108(3)
H27_3 H 0.0232 0.6332 0.7130
C37_3 C 0.1664(8) 0.5966(8) 0.8701(3)
C47_3 C 0.3309(7) 0.4467(8) 0.7534(3)
H35_3 H 0.3386 0.4394 0.7343
H36_3 H 0.3325 0.4012 0.7621
C48_3 C 0.2447(8) 0.5507(8) 0.8362(3)
H37_3 H 0.2888 0.5364 0.8304
C49_3 C 0.2317(8) 0.5663(8) 0.8636(3)
H38_3 H 0.2649 0.5569 0.8769
O11_3 O 0.1670(5) 0.5796(6) 0.77042(18)
C52_3 C 0.1969(8) 0.5369(8) 0.7893(2)
O12 O 0.5623(5) 0.5888(5) 0.79784(18)
H41 H 0.5610 0.5957 0.8142
C53 C 0.5052(7) 0.5463(6) 0.7902(2)
C54 C 0.5054(7) 0.4816(6) 0.7815(2)
H42 H 0.5450 0.4541 0.7844
C55_3 C 0.4509(6) 0.4539(7) 0.7688(3)
H43_3 H 0.4525 0.4078 0.7627
C56_3 C 0.3933(6) 0.4930(6) 0.7648(3)
C57_3 C 0.3931(7) 0.5557(6) 0.7759(3)
H44_3 H 0.3504 0.5787 0.7778
C58_3 C 0.4509(6) 0.5881(7) 0.7844(3)
H45_3 H 0.4533 0.6366 0.7862
Cd4_3 Cd 0.08159(6) 0.33773(6) 0.77395(2)
O15_3 O 0.0476(5) 0.3122(5) 0.72685(18)
N7_2 N 0.2039(7) 0.2967(7) 0.7029(2)
H46_3 H 0.250017 0.474665 0.796593
C15_3 C 0.3102(7) 0.1944(8) 0.7084(3)
C20_3 C 0.4250(8) 0.1456(9) 0.7169(3)
H13_3 H 0.4419 0.1898 0.7214
C24_3 C 0.2733(8) 0.3073(9) 0.7035(3)
H16_3 H 0.2876 0.3538 0.7025
C29_3 C 0.3206(9) 0.2638(8) 0.7052(3)
H21_3 H 0.3666 0.2799 0.7042
C31_3 C 0.2366(7) 0.1761(8) 0.7083(3)
H22_3 H 0.2214 0.1298 0.7088
C33_3 C 0.3587(8) 0.1452(9) 0.7124(3)
H24_3 H 0.3402 0.1001 0.7118
C34_3 C 0.1919(9) 0.2301(8) 0.7074(3)
H25_3 H 0.1452 0.2186 0.7105
C39_3 C 0.5970(3) 0.0681(4) 0.72248(17)
H29_3 H 0.6433 0.0828 0.7239
C40_3 C 0.5450(5) 0.1159(3) 0.71867(18)
H30_3 H 0.5558 0.1634 0.7175
C41_3 C 0.4772(4) 0.0943(4) 0.71658(18)
C42_3 C 0.4614(3) 0.0249(5) 0.71832(18)
H31_3 H 0.4151 0.0102 0.7169
N2_3 N 0.7474(4) 0.8382(4) 0.72360(16)
C1_3 C 0.7297(3) 0.7692(4) 0.72229(18)
H1_3 H 0.6827 0.7561 0.7223
C2_3 C 0.7806(4) 0.7194(3) 0.72091(19)
H2_3 H 0.7685 0.6722 0.7200
C3_3 C 0.8493(4) 0.7386(4) 0.72085(18)
C4_3 C 0.8671(3) 0.8076(5) 0.72217(18)
H3_3 H 0.9141 0.8207 0.7221
C5_3 C 0.8162(4) 0.8574(3) 0.72354(18)
H4_3 H 0.8283 0.9045 0.7244
N4_3 N 0.5561(7) 0.7729(7) 0.5571(2)
H5_3 H 0.5222 0.7749 0.5686
O5_3 O 0.6171(5) 0.8715(5) 0.68804(18)
O7_3 O 0.6970(5) 0.9435(5) 0.67719(18)
O8_3 O 0.6582(5) 0.8175(5) 0.54647(18)
C6_3 C 0.4939(8) 0.7730(8) 0.5162(3)
C7_3 C 0.6522(8) 0.8991(8) 0.6706(3)
C8_3 C 0.5441(8) 0.7353(8) 0.5318(3)
H6_3 H 0.5880 0.7292 0.5218
C9_3 C 0.6250(8) 0.8299(8) 0.5911(3)
C10_3 C 0.6187(8) 0.8057(8) 0.5636(3)
C11_3 C 0.5145(8) 0.6650(8) 0.5407(3)
H7_3 H 0.4745 0.6722 0.5524
H8_3 H 0.4991 0.6387 0.5250
O10_3 O 0.7004(5) 0.5058(6) 0.59993(18)
H9_3 H 0.7392 0.5044 0.5927
C13_3 C 0.9020(8) 0.6864(8) 0.7148(3)
H10_3 H 0.9480 0.7023 0.7138
C17_3 C 0.6467(8) 0.8781(8) 0.6420(3)
C18_3 C 0.5687(8) 0.6255(8) 0.5551(3)
C19_3 C 0.6190(8) 0.5884(8) 0.5433(3)
H12_3 H 0.6232 0.5882 0.5246
C21_3 C 0.9493(8) 0.5702(8) 0.7103(3)
C22_3 C 0.6652(8) 0.5502(8) 0.5589(3)
H14_3 H 0.7028 0.5278 0.5507
C23_3 C 0.9732(8) 0.4461(9) 0.7096(3)
H15_3 H 0.9584 0.3999 0.7113
C27_3 C 0.6646(8) 0.8821(8) 0.5972(3)
H19_3 H 0.6896 0.9029 0.5833
C32_3 C 0.8930(8) 0.6228(8) 0.7108(3)
H23_3 H 0.8474 0.6073 0.7079
C35_3 C 0.9288(9) 0.5050(8) 0.7114(3)
H26_3 H 0.8811 0.4967 0.7136
C38_3 C 0.6078(8) 0.8217(8) 0.6386(3)
H28_3 H 0.5930 0.7952 0.6533
C43_3 C 0.5134(4) 0.9771(3) 0.72214(18)
H32_3 H 0.5026 0.9296 0.7233
N6_3 N 0.5812(4) 0.9986(4) 0.72422(16)
C44_3 C 0.6572(8) 0.5446(8) 0.5850(3)
C45_3 C 0.6731(8) 0.9095(9) 0.6220(3)
H33_3 H 0.6980 0.9509 0.6244
C46_3 C 0.5889(8) 0.8025(8) 0.6119(3)
H34_3 H 0.5521 0.7714 0.6088
C50_3 C 0.6002(8) 0.5697(8) 0.5968(3)
H39_3 H 0.5875 0.5566 0.6142
C51_3 C 0.5641(8) 0.6124(8) 0.5831(3)
H40_3 H 0.5307 0.6381 0.5926
Cd7_3 Cd 0.37829(6) 0.87833(6) 0.54902(2)
O16_3 O 0.5898(6) 0.8441(5) 0.75019(18)
N2_4 N 0.2526(4) 0.1618(4) 0.22360(16)
C1_4 C 0.2703(3) 0.2308(4) 0.22229(18)
H1_4 H 0.3173 0.2439 0.2223
C2_4 C 0.2194(4) 0.2806(3) 0.22091(19)
H2_4 H 0.2315 0.3278 0.2200
C3_4 C 0.1507(4) 0.2614(4) 0.22085(18)
C4_4 C 0.1329(3) 0.1924(5) 0.22217(18)
H3_4 H 0.0859 0.1793 0.2221
C5_4 C 0.1838(4) 0.1426(3) 0.22354(18)
H4_4 H 0.1717 0.0955 0.2244
N4_4 N 0.4439(7) 0.2271(7) 0.0571(2)
H5_4 H 0.4778 0.2251 0.0686
O5_4 O 0.3829(5) 0.1285(5) 0.18804(18)
O7_4 O 0.3030(5) 0.0565(5) 0.17719(18)
O8_4 O 0.3418(5) 0.1825(5) 0.04647(18)
C6_4 C 0.5061(8) 0.2270(8) 0.0162(3)
C7_4 C 0.3478(8) 0.1009(8) 0.1706(3)
C8_4 C 0.4559(8) 0.2647(8) 0.0318(3)
H6_4 H 0.4120 0.2708 0.0218
C9_4 C 0.3750(8) 0.1701(8) 0.0911(3)
C10_4 C 0.3813(8) 0.1943(8) 0.0636(3)
C11_4 C 0.4855(8) 0.3350(8) 0.0407(3)
H7_4 H 0.5255 0.3278 0.0524
H8_4 H 0.5009 0.3613 0.0250
O10_4 O 0.2996(5) 0.4942(6) 0.09993(18)
H9_4 H 0.2608 0.4956 0.0927
C13_4 C 0.0980(8) 0.3136(8) 0.2148(3)
H10_4 H 0.0520 0.2977 0.2138
C17_4 C 0.3533(8) 0.1219(8) 0.1420(3)
C18_4 C 0.4313(8) 0.3745(8) 0.0551(3)
C19_4 C 0.3810(8) 0.4116(8) 0.0433(3)
H12_4 H 0.3768 0.4118 0.0246
C21_4 C 0.0507(8) 0.4298(8) 0.2103(3)
C22_4 C 0.3348(8) 0.4498(8) 0.0589(3)
H14_4 H 0.2972 0.4722 0.0507
C23_4 C 0.0268(8) 0.5539(9) 0.2096(3)
H15_4 H 0.0416 0.6001 0.2113
C27_4 C 0.3354(8) 0.1179(8) 0.0972(3)
H19_4 H 0.3104 0.0971 0.0833
C32_4 C 0.1070(8) 0.3772(8) 0.2108(3)
H23_4 H 0.1526 0.3927 0.2079
C35_4 C 0.0712(9) 0.4950(8) 0.2114(3)
H26_4 H 0.1189 0.5033 0.2136
C38_4 C 0.3922(8) 0.1783(8) 0.1386(3)
H28_4 H 0.4070 0.2048 0.1533
C43_4 C 0.4866(4) 0.0229(3) 0.22214(18)
H32_4 H 0.4974 0.0704 0.2233
N6_4 N 0.4188(4) 0.0014(4) 0.22422(16)
C44_4 C 0.3428(8) 0.4554(8) 0.0850(3)
C45_4 C 0.3269(8) 0.0905(9) 0.1220(3)
H33_4 H 0.3020 0.0491 0.1244
C46_4 C 0.4111(8) 0.1975(8) 0.1119(3)
H34_4 H 0.4479 0.2286 0.1088
C50_4 C 0.3998(8) 0.4303(8) 0.0968(3)
H39_4 H 0.4125 0.4434 0.1142
C51_4 C 0.4359(8) 0.3876(8) 0.0831(3)
H40_4 H 0.4693 0.3619 0.0926
Cd7_4 Cd 0.62171(6) 0.12167(6) 0.04902(2)
O16_4 O 0.4102(6) 0.1559(5) 0.25019(18)
N3_2 N 0.7961(7) 0.7033(7) 0.2029(2)
C15_4 C 0.6898(7) 0.8056(8) 0.2084(3)
C20_4 C 0.5750(8) 0.8544(9) 0.2169(3)
H13_4 H 0.5581 0.8102 0.2214
C24_4 C 0.7267(8) 0.6927(9) 0.2035(3)
H16_4 H 0.7124 0.6462 0.2025
C29_4 C 0.6794(9) 0.7362(8) 0.2052(3)
H21_4 H 0.6334 0.7201 0.2042
C31_4 C 0.7634(7) 0.8239(8) 0.2083(3)
H22_4 H 0.7786 0.8702 0.2088
C33_4 C 0.6413(8) 0.8548(9) 0.2124(3)
H24_4 H 0.6598 0.8999 0.2118
C34_4 C 0.8081(9) 0.7699(8) 0.2074(3)
H25_4 H 0.8548 0.7814 0.2105
C39_4 C 0.4030(3) 0.9319(4) 0.22248(17)
H29_4 H 0.3567 0.9172 0.2239
C40_4 C 0.4550(5) 0.8841(3) 0.21867(18)
H30_4 H 0.4442 0.8366 0.2175
C41_4 C 0.5228(4) 0.9057(4) 0.21658(18)
C42_4 C 0.5386(3) 0.9751(5) 0.21832(18)
H31_4 H 0.5849 0.9898 0.2169
O2_4 O 0.7973(5) 0.5406(6) 0.21447(18)
N1_4 N 0.9583(7) 0.5339(7) 0.2048(2)
O4_4 O 0.8441(5) 0.5898(6) 0.24981(18)
N5_4 N 0.7708(7) 0.4977(7) 0.2816(2)
C12_4 C 0.8537(8) 0.3989(8) 0.3998(3)
C14_4 C 0.7925(8) 0.5510(8) 0.2386(3)
C16_4 C 0.7434(8) 0.5223(9) 0.2573(3)
H11_4 H 0.7358 0.4770 0.2485
C25_4 C 0.8778(8) 0.3993(8) 0.3530(3)
H17_4 H 0.9229 0.3874 0.3585
C26_4 C 0.9400(9) 0.4733(8) 0.2073(3)
H18_4 H 0.8923 0.4633 0.2071
C28_4 C 0.8668(8) 0.4115(8) 0.3247(3)
H20_4 H 0.8998 0.3958 0.3123
C30_4 C 0.8148(8) 0.4420(8) 0.3169(3)
C36_4 C 0.9912(8) 0.4131(9) 0.2108(3)
H27_4 H 0.9768 0.3668 0.2130
C37_4 C 0.8336(8) 0.4034(8) 0.3701(3)
C47_4 C 0.6691(7) 0.5533(8) 0.2534(3)
H35_4 H 0.6614 0.5606 0.2343
H36_4 H 0.6675 0.5988 0.2621
C48_4 C 0.7553(8) 0.4493(8) 0.3362(3)
H37_4 H 0.7112 0.4636 0.3304
C49_4 C 0.7683(8) 0.4337(8) 0.3636(3)
H38_4 H 0.7351 0.4431 0.3769
O11_4 O 0.8330(5) 0.4204(6) 0.27042(18)
C52_4 C 0.8031(8) 0.4631(8) 0.2893(2)
O12_2 O 0.4377(5) 0.4112(5) 0.29784(18)
H41_2 H 0.4390 0.4043 0.3142
C53_2 C 0.4948(7) 0.4537(6) 0.2902(2)
C54_2 C 0.4946(7) 0.5184(6) 0.2815(2)
H42_2 H 0.4550 0.5459 0.2844
C55_4 C 0.5491(6) 0.5461(7) 0.2688(3)
H43_4 H 0.5475 0.5922 0.2627
C56_4 C 0.6067(6) 0.5070(6) 0.2648(3)
C57_4 C 0.6069(7) 0.4443(6) 0.2759(3)
H44_4 H 0.6496 0.4213 0.2778
C58_4 C 0.5491(6) 0.4119(7) 0.2844(3)
H45_4 H 0.5467 0.3634 0.2862
Cd4_4 Cd 0.91841(6) 0.66227(6) 0.27395(2)
O15_4 O 0.9524(5) 0.6878(5) 0.22685(18)
H46_4 H 0.749983 0.525335 0.296593
O1_3 O 0.2403(6) 0.4947(5) 0.01001(18)
N2_5 N 0.1618(4) 0.2526(4) 0.77640(16)
C1_5 C 0.2308(4) 0.2703(3) 0.77771(18)
H1_5 H 0.2439 0.3173 0.7777
C2_5 C 0.2806(3) 0.2194(4) 0.77909(19)
H2_5 H 0.3278 0.2315 0.7800
C3_5 C 0.2614(4) 0.1507(4) 0.77915(18)
C4_5 C 0.1924(5) 0.1329(3) 0.77783(18)
H3_5 H 0.1793 0.0859 0.7779
C5_5 C 0.1426(3) 0.1838(4) 0.77646(18)
H4_5 H 0.0955 0.1717 0.7756
N4_5 N 0.2271(7) 0.4439(7) 0.9429(2)
H5_5 H 0.2251 0.4778 0.9314
O5_5 O 0.1285(5) 0.3829(5) 0.81196(18)
O7_5 O 0.0565(5) 0.3030(5) 0.82281(18)
O8_5 O 0.1825(5) 0.3418(5) 0.95353(18)
C6_5 C 0.2270(8) 0.5061(8) 0.9838(3)
C7_5 C 0.1009(8) 0.3478(8) 0.8294(3)
C8_5 C 0.2647(8) 0.4559(8) 0.9682(3)
H6_5 H 0.2708 0.4120 0.9782
C9_5 C 0.1701(8) 0.3750(8) 0.9089(3)
C10_5 C 0.1943(8) 0.3813(8) 0.9364(3)
C11_5 C 0.3350(8) 0.4855(8) 0.9593(3)
H7_5 H 0.3278 0.5255 0.9476
H8_5 H 0.3613 0.5009 0.9750
O10_5 O 0.4942(6) 0.2996(5) 0.90007(18)
H9_5 H 0.4956 0.2608 0.9073
C13_5 C 0.3136(8) 0.0980(8) 0.7852(3)
H10_5 H 0.2977 0.0520 0.7862
C17_5 C 0.1219(8) 0.3533(8) 0.8580(3)
C18_5 C 0.3745(8) 0.4313(8) 0.9449(3)
C19_5 C 0.4116(8) 0.3810(8) 0.9567(3)
H12_5 H 0.4118 0.3768 0.9754
C21_5 C 0.4298(8) 0.0507(8) 0.7897(3)
C22_5 C 0.4498(8) 0.3348(8) 0.9411(3)
H14_5 H 0.4722 0.2972 0.9493
C23_5 C 0.5539(9) 0.0268(8) 0.7904(3)
H15_5 H 0.6001 0.0416 0.7887
C27_5 C 0.1179(8) 0.3354(8) 0.9028(3)
H19_5 H 0.0971 0.3104 0.9167
C32_5 C 0.3772(8) 0.1070(8) 0.7892(3)
H23_5 H 0.3927 0.1526 0.7921
C35_5 C 0.4950(8) 0.0712(9) 0.7886(3)
H26_5 H 0.5033 0.1189 0.7864
C38_5 C 0.1783(8) 0.3922(8) 0.8614(3)
H28_5 H 0.2048 0.4070 0.8467
C43_5 C 0.0229(3) 0.4866(4) 0.77786(18)
H32_5 H 0.0704 0.4974 0.7767
N6_5 N 0.0014(4) 0.4188(4) 0.77578(16)
C44_5 C 0.4554(8) 0.3428(8) 0.9150(3)
C45_5 C 0.0905(9) 0.3269(8) 0.8780(3)
H33_5 H 0.0491 0.3020 0.8756
C46_5 C 0.1975(8) 0.4111(8) 0.8881(3)
H34_5 H 0.2286 0.4479 0.8912
C50_5 C 0.4303(8) 0.3998(8) 0.9032(3)
H39_5 H 0.4434 0.4125 0.8858
C51_5 C 0.3876(8) 0.4359(8) 0.9169(3)
H40_5 H 0.3619 0.4693 0.9074
O2_5 O 0.5406(6) 0.7973(5) 0.78553(18)
N1_5 N 0.5339(7) 0.9583(7) 0.7952(2)
O6_3 O 0.3623(5) 0.8996(5) 0.59495(18)
N5_5 N 0.4977(7) 0.7708(7) 0.7184(2)
O9_3 O 0.4241(5) 0.8116(5) 0.58470(18)
C12_5 C 0.3989(8) 0.8537(8) 0.6002(3)
C14_5 C 0.5510(8) 0.7925(8) 0.7614(3)
C16_5 C 0.5223(9) 0.7434(8) 0.7427(3)
H11_5 H 0.4770 0.7358 0.7515
C25_5 C 0.3993(8) 0.8778(8) 0.6470(3)
H17_5 H 0.3874 0.9229 0.6415
C26_5 C 0.4733(8) 0.9400(9) 0.7927(3)
H18_5 H 0.4633 0.8923 0.7929
C28_5 C 0.4115(8) 0.8668(8) 0.6753(3)
H20_5 H 0.3958 0.8998 0.6877
C30_5 C 0.4420(8) 0.8148(8) 0.6831(3)
C36_5 C 0.4131(9) 0.9912(8) 0.7892(3)
H27_5 H 0.3668 0.9768 0.7870
C37_5 C 0.4034(8) 0.8336(8) 0.6299(3)
C47_5 C 0.5533(8) 0.6691(7) 0.7466(3)
H35_5 H 0.5606 0.6614 0.7657
H36_5 H 0.5988 0.6675 0.7379
C48_5 C 0.4493(8) 0.7553(8) 0.6638(3)
H37_5 H 0.4636 0.7112 0.6696
C49_5 C 0.4337(8) 0.7683(8) 0.6364(3)
H38_5 H 0.4431 0.7351 0.6231
O11_5 O 0.4204(6) 0.8330(5) 0.72958(18)
C52_5 C 0.4631(8) 0.8031(8) 0.7107(2)
O12_3 O 0.4112(5) 0.4377(5) 0.70216(18)
H41_3 H 0.4043 0.4390 0.6858
C53_3 C 0.4537(6) 0.4948(7) 0.7098(2)
C54_3 C 0.5184(6) 0.4946(7) 0.7185(2)
H42_3 H 0.5459 0.4550 0.7156
C55_5 C 0.5461(7) 0.5491(6) 0.7312(3)
H43_5 H 0.5922 0.5475 0.7373
C56_5 C 0.5070(6) 0.6067(6) 0.7352(3)
C57_5 C 0.4443(6) 0.6069(7) 0.7241(3)
H44_5 H 0.4213 0.6496 0.7222
C58_5 C 0.4119(7) 0.5491(6) 0.7156(3)
H45_5 H 0.3634 0.5467 0.7138
N7_3 N 0.7033(7) 0.7961(7) 0.7971(2)
O17_3 O 0.6004(5) 0.8623(5) 0.84495(18)
O18_3 O 0.6884(5) 0.9241(5) 0.83470(18)
H46_5 H 0.525335 0.749983 0.703407
C15_5 C 0.8056(8) 0.6898(7) 0.7916(3)
C20_5 C 0.8544(9) 0.5750(8) 0.7831(3)
H13_5 H 0.8102 0.5581 0.7786
C24_5 C 0.6927(9) 0.7267(8) 0.7965(3)
H16_5 H 0.6462 0.7124 0.7975
C29_5 C 0.7362(8) 0.6794(9) 0.7948(3)
H21_5 H 0.7201 0.6334 0.7958
C31_5 C 0.8239(8) 0.7634(7) 0.7917(3)
H22_5 H 0.8702 0.7786 0.7912
C33_5 C 0.8548(9) 0.6413(8) 0.7876(3)
H24_5 H 0.8999 0.6598 0.7882
C34_5 C 0.7699(8) 0.8081(9) 0.7926(3)
H25_5 H 0.7814 0.8548 0.7895
C39_5 C 0.9319(4) 0.4030(3) 0.77752(17)
H29_5 H 0.9172 0.3567 0.7761
C40_5 C 0.8841(3) 0.4550(5) 0.78133(18)
H30_5 H 0.8366 0.4442 0.7825
C41_5 C 0.9057(4) 0.5228(4) 0.78342(18)
C42_5 C 0.9751(5) 0.5386(3) 0.78168(18)
H31_5 H 0.9898 0.5849 0.7831
O13_3 O 0.9947(5) 0.2597(6) 0.76001(18)
N3_3 N 0.2967(7) 0.2039(7) 0.2971(2)
C15_6 C 0.1944(8) 0.3102(7) 0.2916(3)
C20_6 C 0.1456(9) 0.4250(8) 0.2831(3)
H13_6 H 0.1898 0.4419 0.2786
C24_6 C 0.3073(9) 0.2733(8) 0.2965(3)
H16_6 H 0.3538 0.2876 0.2975
C29_6 C 0.2638(8) 0.3206(9) 0.2948(3)
H21_6 H 0.2799 0.3666 0.2958
C31_6 C 0.1761(8) 0.2366(7) 0.2917(3)
H22_6 H 0.1298 0.2214 0.2912
C33_6 C 0.1452(9) 0.3587(8) 0.2876(3)
H24_6 H 0.1001 0.3402 0.2882
C34_6 C 0.2301(8) 0.1919(9) 0.2926(3)
H25_6 H 0.2186 0.1452 0.2895
C39_6 C 0.0681(4) 0.5970(3) 0.27752(17)
H29_6 H 0.0828 0.6433 0.2761
C40_6 C 0.1159(3) 0.5450(5) 0.28133(18)
H30_6 H 0.1634 0.5558 0.2825
C41_6 C 0.0943(4) 0.4772(4) 0.28342(18)
C42_6 C 0.0249(5) 0.4614(3) 0.28168(18)
H31_6 H 0.0102 0.4151 0.2831
O13_4 O 0.0053(5) 0.7403(6) 0.26001(18)
O2_6 O 0.4594(6) 0.2027(5) 0.28553(18)
N1_6 N 0.4661(7) 0.0417(7) 0.2952(2)
O6_4 O 0.6377(5) 0.1004(5) 0.09495(18)
N5_6 N 0.5023(7) 0.2292(7) 0.2184(2)
O9_4 O 0.5759(5) 0.1884(5) 0.08470(18)
C12_6 C 0.6011(8) 0.1463(8) 0.1002(3)
C14_6 C 0.4490(8) 0.2075(8) 0.2614(3)
C16_6 C 0.4777(9) 0.2566(8) 0.2427(3)
H11_6 H 0.5230 0.2642 0.2515
C25_6 C 0.6007(8) 0.1222(8) 0.1470(3)
H17_6 H 0.6126 0.0771 0.1415
C26_6 C 0.5267(8) 0.0600(9) 0.2927(3)
H18_6 H 0.5367 0.1077 0.2929
C28_6 C 0.5885(8) 0.1332(8) 0.1753(3)
H20_6 H 0.6042 0.1002 0.1877
C30_6 C 0.5580(8) 0.1852(8) 0.1831(3)
C36_6 C 0.5869(9) 0.0088(8) 0.2892(3)
H27_6 H 0.6332 0.0232 0.2870
C37_6 C 0.5966(8) 0.1664(8) 0.1299(3)
C47_6 C 0.4467(8) 0.3309(7) 0.2466(3)
H35_6 H 0.4394 0.3386 0.2657
H36_6 H 0.4012 0.3325 0.2379
C48_6 C 0.5507(8) 0.2447(8) 0.1638(3)
H37_6 H 0.5364 0.2888 0.1696
C49_6 C 0.5663(8) 0.2317(8) 0.1364(3)
H38_6 H 0.5569 0.2649 0.1231
O11_6 O 0.5796(6) 0.1670(5) 0.22958(18)
C52_6 C 0.5369(8) 0.1969(8) 0.2107(2)
O12_4 O 0.5888(5) 0.5623(5) 0.20216(18)
H41_4 H 0.5957 0.5610 0.1858
C53_4 C 0.5463(6) 0.5052(7) 0.2098(2)
C54_4 C 0.4816(6) 0.5054(7) 0.2185(2)
H42_4 H 0.4541 0.5450 0.2156
C55_6 C 0.4539(7) 0.4509(6) 0.2312(3)
H43_6 H 0.4078 0.4525 0.2373
C56_6 C 0.4930(6) 0.3933(6) 0.2352(3)
C57_6 C 0.5557(6) 0.3931(7) 0.2241(3)
H44_6 H 0.5787 0.3504 0.2222
C58_6 C 0.5881(7) 0.4509(6) 0.2156(3)
H45_6 H 0.6366 0.4533 0.2138
O17_4 O 0.3996(5) 0.1377(5) 0.34495(18)
O18_4 O 0.3116(5) 0.0759(5) 0.33470(18)
H46_6 H 0.474665 0.250017 0.203407
O1_4 O 0.7597(6) 0.5053(5) 0.51001(18)
N2_6 N 0.8382(4) 0.7474(4) 0.27640(16)
C1_6 C 0.7692(4) 0.7297(3) 0.27771(18)
H1_6 H 0.7561 0.6827 0.2777
C2_6 C 0.7194(3) 0.7806(4) 0.27909(19)
H2_6 H 0.6722 0.7685 0.2800
C3_6 C 0.7386(4) 0.8493(4) 0.27915(18)
C4_6 C 0.8076(5) 0.8671(3) 0.27783(18)
H3_6 H 0.8207 0.9141 0.2779
C5_6 C 0.8574(3) 0.8162(4) 0.27646(18)
H4_6 H 0.9045 0.8283 0.2756
N4_6 N 0.7729(7) 0.5561(7) 0.4429(2)
H5_6 H 0.7749 0.5222 0.4314
O5_6 O 0.8715(5) 0.6171(5) 0.31196(18)
O7_6 O 0.9435(5) 0.6970(5) 0.32281(18)
O8_6 O 0.8175(5) 0.6582(5) 0.45353(18)
C6_6 C 0.7730(8) 0.4939(8) 0.4838(3)
C7_6 C 0.8991(8) 0.6522(8) 0.3294(3)
C8_6 C 0.7353(8) 0.5441(8) 0.4682(3)
H6_6 H 0.7292 0.5880 0.4782
C9_6 C 0.8299(8) 0.6250(8) 0.4089(3)
C10_6 C 0.8057(8) 0.6187(8) 0.4364(3)
C11_6 C 0.6650(8) 0.5145(8) 0.4593(3)
H7_6 H 0.6722 0.4745 0.4476
H8_6 H 0.6387 0.4991 0.4750
O10_6 O 0.5058(6) 0.7004(5) 0.40007(18)
H9_6 H 0.5044 0.7392 0.4073
C13_6 C 0.6864(8) 0.9020(8) 0.2852(3)
H10_6 H 0.7023 0.9480 0.2862
C17_6 C 0.8781(8) 0.6467(8) 0.3580(3)
C18_6 C 0.6255(8) 0.5687(8) 0.4449(3)
C19_6 C 0.5884(8) 0.6190(8) 0.4567(3)
H12_6 H 0.5882 0.6232 0.4754
C21_6 C 0.5702(8) 0.9493(8) 0.2897(3)
C22_6 C 0.5502(8) 0.6652(8) 0.4411(3)
H14_6 H 0.5278 0.7028 0.4493
C23_6 C 0.4461(9) 0.9732(8) 0.2904(3)
H15_6 H 0.3999 0.9584 0.2887
C27_6 C 0.8821(8) 0.6646(8) 0.4028(3)
H19_6 H 0.9029 0.6896 0.4167
C32_6 C 0.6228(8) 0.8930(8) 0.2892(3)
H23_6 H 0.6073 0.8474 0.2921
C35_6 C 0.5050(8) 0.9288(9) 0.2886(3)
H26_6 H 0.4967 0.8811 0.2864
C38_6 C 0.8217(8) 0.6078(8) 0.3614(3)
H28_6 H 0.7952 0.5930 0.3467
C43_6 C 0.9771(3) 0.5134(4) 0.27786(18)
H32_6 H 0.9296 0.5026 0.2767
N6_6 N 0.9986(4) 0.5812(4) 0.27578(16)
C44_6 C 0.5446(8) 0.6572(8) 0.4150(3)
C45_6 C 0.9095(9) 0.6731(8) 0.3780(3)
H33_6 H 0.9509 0.6980 0.3756
C46_6 C 0.8025(8) 0.5889(8) 0.3881(3)
H34_6 H 0.7714 0.5521 0.3912
C50_6 C 0.5697(8) 0.6002(8) 0.4032(3)
H39_6 H 0.5566 0.5875 0.3858
C51_6 C 0.6124(8) 0.5641(8) 0.4169(3)
H40_6 H 0.6381 0.5307 0.4074
N3_4 N 0.2961(7) 0.7967(7) 0.5471(2)
C6_7 C 0.0061(8) 0.2730(8) 0.7338(3)
H7_7 H 0.0255 0.1722 0.6976
H8_7 H 0.0009 0.1387 0.7250
C15_7 C 0.1898(7) 0.6944(8) 0.5416(3)
C20_7 C 0.0750(8) 0.6456(9) 0.5331(3)
H13_7 H 0.0581 0.6898 0.5286
C24_7 C 0.2267(8) 0.8073(9) 0.5465(3)
H16_7 H 0.2124 0.8538 0.5475
C29_7 C 0.1794(9) 0.7638(8) 0.5448(3)
H21_7 H 0.1334 0.7799 0.5458
C31_7 C 0.2634(7) 0.6761(8) 0.5417(3)
H22_7 H 0.2786 0.6298 0.5412
C33_7 C 0.1413(8) 0.6452(9) 0.5376(3)
H24_7 H 0.1598 0.6001 0.5382
C34_7 C 0.3081(9) 0.7301(8) 0.5426(3)
H25_7 H 0.3548 0.7186 0.5395
C41_7 C 0.0228(4) 0.5943(4) 0.53342(18)
C42_7 C 0.0386(3) 0.5249(5) 0.53168(18)
H31_7 H 0.0849 0.5102 0.5331
N2_7 N 0.7526(4) 0.3382(4) 0.52640(16)
C1_7 C 0.7703(3) 0.2692(4) 0.52771(18)
H1_7 H 0.8173 0.2561 0.5277
C2_7 C 0.7194(4) 0.2194(3) 0.52909(19)
H2_7 H 0.7315 0.1722 0.5300
C3_7 C 0.6507(4) 0.2386(4) 0.52915(18)
C4_7 C 0.6329(3) 0.3076(5) 0.52783(18)
H3_7 H 0.5859 0.3207 0.5279
C5_7 C 0.6838(4) 0.3574(3) 0.52646(18)
H4_7 H 0.6717 0.4045 0.5256
N4_7 N 0.9439(7) 0.2729(7) 0.6929(2)
H5_7 H 0.9778 0.2749 0.6814
O5_7 O 0.8829(5) 0.3715(5) 0.56196(18)
O7_7 O 0.8030(5) 0.4435(5) 0.57281(18)
O8_7 O 0.8418(5) 0.3175(5) 0.70353(18)
N5_7 N 0.2708(7) 0.0023(7) 0.4684(2)
C7_7 C 0.8478(8) 0.3991(8) 0.5794(3)
C8_7 C 0.9559(8) 0.2353(8) 0.7182(3)
H6_7 H 0.9120 0.2292 0.7282
C9_7 C 0.8750(8) 0.3299(8) 0.6589(3)
C10_7 C 0.8813(8) 0.3057(8) 0.6864(3)
C11_7 C 0.9855(8) 0.1650(8) 0.7093(3)
O10_7 O 0.7996(5) 0.0058(6) 0.65007(18)
H9_7 H 0.7608 0.0044 0.6573
C12_7 C 0.3537(8) 0.1011(8) 0.3502(3)
C13_7 C 0.5980(8) 0.1864(8) 0.5352(3)
H10_7 H 0.5520 0.2023 0.5362
H11_7 H 0.2358 0.0230 0.5015
C17_7 C 0.8533(8) 0.3781(8) 0.6080(3)
C18_7 C 0.9313(8) 0.1255(8) 0.6949(3)
C19_7 C 0.8810(8) 0.0884(8) 0.7067(3)
H12_7 H 0.8768 0.0882 0.7254
C21_7 C 0.5507(8) 0.0702(8) 0.5397(3)
C22_7 C 0.8348(8) 0.0502(8) 0.6911(3)
H14_7 H 0.7972 0.0278 0.6993
C25_7 C 0.3778(8) 0.1007(8) 0.3970(3)
H17_7 H 0.4229 0.1126 0.3915
C26_7 C 0.4400(9) 0.0267(8) 0.5427(3)
H18_7 H 0.3923 0.0367 0.5429
C27_7 C 0.8354(8) 0.3821(8) 0.6528(3)
H19_7 H 0.8104 0.4029 0.6667
C28_7 C 0.3668(8) 0.0885(8) 0.4253(3)
H20_7 H 0.3998 0.1042 0.4377
C30_7 C 0.3148(8) 0.0580(8) 0.4331(3)
C32_7 C 0.6070(8) 0.1228(8) 0.5392(3)
H23_7 H 0.6526 0.1073 0.5421
C35_7 C 0.5712(9) 0.0050(8) 0.5386(3)
C36_7 C 0.4912(8) 0.0869(9) 0.5392(3)
H27_7 H 0.4768 0.1332 0.5370
C37_7 C 0.3336(8) 0.0966(8) 0.3799(3)
C38_7 C 0.8922(8) 0.3217(8) 0.6114(3)
H28_7 H 0.9070 0.2952 0.5967
C39_7 C 0.9030(3) 0.5681(4) 0.52752(17)
H29_7 H 0.8567 0.5828 0.5261
C40_7 C 0.9550(5) 0.6159(3) 0.53133(18)
H30_7 H 0.9442 0.6634 0.5325
C43_7 C 0.9866(4) 0.4771(3) 0.52786(18)
H32_7 H 0.9974 0.4296 0.5267
N6_7 N 0.9188(4) 0.4986(4) 0.52578(16)
C44_7 C 0.8428(8) 0.0446(8) 0.6650(3)
C45_7 C 0.8269(8) 0.4095(9) 0.6280(3)
H33_7 H 0.8020 0.4509 0.6256
C46_7 C 0.9111(8) 0.3025(8) 0.6381(3)
H34_7 H 0.9479 0.2714 0.6412
C48_7 C 0.2553(8) 0.0507(8) 0.4138(3)
H37_7 H 0.2112 0.0364 0.4196
C49_7 C 0.2683(8) 0.0663(8) 0.3864(3)
H38_7 H 0.2351 0.0569 0.3731
C50_7 C 0.8998(8) 0.0697(8) 0.6532(3)
H39_7 H 0.9125 0.0566 0.6358
C51_7 C 0.9359(8) 0.1124(8) 0.6669(3)
H40_7 H 0.9693 0.1381 0.6574
O11_7 O 0.3330(5) 0.0796(6) 0.47958(18)
C52_7 C 0.3031(8) 0.0369(8) 0.4607(2)
C57_7 C 0.1069(7) 0.0557(6) 0.4741(3)
H44_7 H 0.1496 0.0787 0.4722
C58_7 C 0.0491(6) 0.0881(7) 0.4656(3)
H45_7 H 0.0467 0.1366 0.4638
O2_7 O 0.2973(5) 0.9594(6) 0.53553(18)
N1_7 N 0.4583(7) 0.9661(7) 0.5452(2)
C14_7 C 0.2925(8) 0.9490(8) 0.5114(3)
C16_7 C 0.2434(8) 0.9777(9) 0.4927(3)
C23_7 C 0.5268(8) 0.9461(9) 0.5404(3)
H15_7 H 0.5416 0.8999 0.5387
H26_7 H 0.6189 0.9967 0.5364
C47_7 C 0.1691(7) 0.9467(8) 0.4966(3)
H35_7 H 0.1614 0.9394 0.5157
H36_7 H 0.1675 0.9012 0.4879
C55_7 C 0.0491(6) 0.9539(7) 0.4812(3)
H43_7 H 0.0475 0.9078 0.4873
C56_7 C 0.1067(6) 0.9930(6) 0.4852(3)
H46_7 H 0.249983 0.974665 0.453407
O2_8 O 0.7027(5) 0.0406(6) 0.03553(18)
N1_8 N 0.5417(7) 0.0339(7) 0.0452(2)
C14_8 C 0.7075(8) 0.0510(8) 0.0114(3)
C23_8 C 0.4732(8) 0.0539(9) 0.0404(3)
H15_8 H 0.4584 0.1001 0.0387
H26_8 H 0.3811 0.0033 0.0364
H35_8 H 0.8386 0.0606 0.0157
N7_4 N 0.7039(7) 0.2033(7) 0.0471(2)
C16_8 C 0.7566(8) 0.0223(9) 0.9927(3)
C47_8 C 0.8309(7) 0.0533(8) 0.9966(3)
H36_8 H 0.8325 0.0988 0.9879
C55_8 C 0.9509(6) 0.0461(7) 0.9812(3)
H43_8 H 0.9525 0.0922 0.9873
C56_8 C 0.8933(6) 0.0070(6) 0.9852(3)
H46_8 H 0.750017 0.0253353 0.953407
N2_8 N 0.2474(4) 0.6618(4) 0.02640(16)
C1_8 C 0.2297(3) 0.7308(4) 0.02771(18)
H1_8 H 0.1827 0.7439 0.0277
C2_8 C 0.2806(4) 0.7806(3) 0.02909(19)
H2_8 H 0.2685 0.8278 0.0300
C3_8 C 0.3493(4) 0.7614(4) 0.02915(18)
C4_8 C 0.3671(3) 0.6924(5) 0.02783(18)
H3_8 H 0.4141 0.6793 0.0279
C5_8 C 0.3162(4) 0.6426(3) 0.02646(18)
H4_8 H 0.3283 0.5955 0.0256
N4_8 N 0.0561(7) 0.7271(7) 0.1929(2)
H5_8 H 0.0222 0.7251 0.1814
O5_8 O 0.1171(5) 0.6285(5) 0.06196(18)
O7_8 O 0.1970(5) 0.5565(5) 0.07281(18)
O8_8 O 0.1582(5) 0.6825(5) 0.20353(18)
C7_8 C 0.1522(8) 0.6009(8) 0.0794(3)
C8_8 C 0.0441(8) 0.7647(8) 0.2182(3)
H6_8 H 0.0880 0.7708 0.2282
C9_8 C 0.1250(8) 0.6701(8) 0.1589(3)
C10_8 C 0.1187(8) 0.6943(8) 0.1864(3)
C11_8 C 0.0145(8) 0.8350(8) 0.2093(3)
O10_8 O 0.2004(5) 0.9942(6) 0.15007(18)
H9_8 H 0.2392 0.9956 0.1573
C13_8 C 0.4020(8) 0.8136(8) 0.0352(3)
H10_8 H 0.4480 0.7977 0.0362
H11_8 H 0.7642 0.9770 0.0015
C17_8 C 0.1467(8) 0.6219(8) 0.1080(3)
C18_8 C 0.0687(8) 0.8745(8) 0.1949(3)
C19_8 C 0.1190(8) 0.9116(8) 0.2067(3)
H12_8 H 0.1232 0.9118 0.2254
C21_8 C 0.4493(8) 0.9298(8) 0.0397(3)
C22_8 C 0.1652(8) 0.9498(8) 0.1911(3)
H14_8 H 0.2028 0.9722 0.1993
C26_8 C 0.5600(9) 0.9733(8) 0.0427(3)
H18_8 H 0.6077 0.9633 0.0429
C27_8 C 0.1646(8) 0.6179(8) 0.1528(3)
H19_8 H 0.1896 0.5971 0.1667
C32_8 C 0.3930(8) 0.8772(8) 0.0392(3)
H23_8 H 0.3474 0.8927 0.0421
C35_8 C 0.4288(9) 0.9950(8) 0.0386(3)
C36_8 C 0.5088(8) 0.9131(9) 0.0392(3)
H27_8 H 0.5232 0.8668 0.0370
C38_8 C 0.1078(8) 0.6783(8) 0.1114(3)
H28_8 H 0.0930 0.7048 0.0967
C39_8 C 0.0970(3) 0.4319(4) 0.02752(17)
H29_8 H 0.1433 0.4172 0.0261
C40_8 C 0.0450(5) 0.3841(3) 0.03133(18)
H30_8 H 0.0558 0.3366 0.0325
C43_8 C 0.0134(4) 0.5229(3) 0.02786(18)
H32_8 H 0.0026 0.5704 0.0267
N6_8 N 0.0812(4) 0.5014(4) 0.02578(16)
C44_8 C 0.1572(8) 0.9554(8) 0.1650(3)
C45_8 C 0.1731(8) 0.5905(9) 0.1280(3)
H33_8 H 0.1980 0.5491 0.1256
C46_8 C 0.0889(8) 0.6975(8) 0.1381(3)
H34_8 H 0.0521 0.7286 0.1412
C50_8 C 0.1002(8) 0.9303(8) 0.1532(3)
H39_8 H 0.0875 0.9434 0.1358
C51_8 C 0.0641(8) 0.8876(8) 0.1669(3)
H40_8 H 0.0307 0.8619 0.1574
N5_8 N 0.7292(7) 0.9977(7) 0.9684(2)
C12_8 C 0.6463(8) 0.8989(8) 0.8502(3)
C25_8 C 0.6222(8) 0.8993(8) 0.8970(3)
H17_8 H 0.5771 0.8874 0.8915
C28_8 C 0.6332(8) 0.9115(8) 0.9253(3)
H20_8 H 0.6002 0.8958 0.9377
C30_8 C 0.6852(8) 0.9420(8) 0.9331(3)
C37_8 C 0.6664(8) 0.9034(8) 0.8799(3)
C48_8 C 0.7447(8) 0.9493(8) 0.9138(3)
H37_8 H 0.7888 0.9636 0.9196
C49_8 C 0.7317(8) 0.9337(8) 0.8864(3)
H38_8 H 0.7649 0.9431 0.8731
O11_8 O 0.6670(5) 0.9204(6) 0.97958(18)
C52_8 C 0.6969(8) 0.9631(8) 0.9607(2)
C57_8 C 0.8931(7) 0.9443(6) 0.9741(3)
H44_8 H 0.8504 0.9213 0.9722
C58_8 C 0.9509(6) 0.9119(7) 0.9656(3)
H45_8 H 0.9533 0.8634 0.9638
C6_8 C 0.9939(8) 0.7270(8) 0.2338(3)
H7_8 H 0.9745 0.8278 0.1976
H8_8 H 0.9991 0.8613 0.2250
C15_8 C 0.8102(7) 0.3056(8) 0.0416(3)
C20_8 C 0.9250(8) 0.3544(9) 0.0331(3)
H13_8 H 0.9419 0.3102 0.0286
C24_8 C 0.7733(8) 0.1927(9) 0.0465(3)
H16_8 H 0.7876 0.1462 0.0475
C29_8 C 0.8206(9) 0.2362(8) 0.0448(3)
H21_8 H 0.8666 0.2201 0.0458
C31_8 C 0.7366(7) 0.3239(8) 0.0417(3)
H22_8 H 0.7214 0.3702 0.0412
C33_8 C 0.8587(8) 0.3548(9) 0.0376(3)
H24_8 H 0.8402 0.3999 0.0382
C34_8 C 0.6919(9) 0.2699(8) 0.0426(3)
H25_8 H 0.6452 0.2814 0.0395
C41_8 C 0.9772(4) 0.4057(4) 0.03342(18)
C42_8 C 0.9614(3) 0.4751(5) 0.03168(18)
H31_8 H 0.9151 0.4898 0.0331
O12_5 O 0.0888(5) 0.9377(5) 0.54784(18)
H41_5 H 0.0957 0.9390 0.5642
C53_5 C 0.0463(6) 0.9948(7) 0.5402(2)
C54_5 C 0.9816(6) 0.9946(7) 0.5315(2)
H42_5 H 0.9541 0.9550 0.5344
C54_6 C 0.0184(6) 0.0054(7) 0.0315(2)
H42_6 H 0.0459 0.0450 0.0344
O12_6 O 0.9112(5) 0.0623(5) 0.04784(18)
H41_6 H 0.9043 0.0610 0.0642
C53_6 C 0.9537(6) 0.0052(7) 0.0402(2)
O12_7 O 0.9377(5) 0.0888(5) 0.45216(18)
H41_7 H 0.9390 0.0957 0.4358
C53_7 C 0.9948(7) 0.0463(6) 0.4598(2)
C54_7 C 0.9946(7) 0.9816(6) 0.4685(2)
H42_7 H 0.9550 0.9541 0.4656
C54_8 C 0.0054(7) 0.0184(6) 0.9685(2)
H42_8 H 0.0450 0.0459 0.9656
O12_8 O 0.0623(5) 0.9112(5) 0.95216(18)
H41_8 H 0.0610 0.9043 0.9358
C53_8 C 0.0052(7) 0.9537(6) 0.9598(2)
loop_
_geom_bond_atom_site_label_1
_geom_bond_atom_site_label_2
_geom_bond_site_symmetry_1
_geom_bond_site_symmetry_2
O3 C6 1_555 1_555
N3 C24 1_555 1_555
C15 C29 1_555 1_555
C20 H13 1_555 1_555
C24 H16 1_555 1_555
C29 C24 1_555 1_555
H21 C29 1_555 1_555
C31 C15 1_555 1_555
H22 C31 1_555 1_555
C33 C15 1_555 1_555
H24 C33 1_555 1_555
C34 N3 1_555 1_555
H25 C34 1_555 1_555
C41 C20 1_555 1_555
C42 C41 1_555 1_555
H31 C42 1_555 1_555
Cd5 N3 1_555 1_555
Cd7 O3 1_555 1_555
O3 Cd3 1_555 1_555
C20 C33 1_555 1_555
C31 C34 1_555 1_555
Cd1 N2 1_555 1_555
N2 C1 1_555 1_555
C1 H1 1_555 1_555
C2 C1 1_555 1_555
H2 C2 1_555 1_555
C3 C2 1_555 1_555
C4 C3 1_555 1_555
H3 C4 1_555 1_555
C5 N2 1_555 1_555
H4 C5 1_555 1_555
N4 H5 1_555 1_555
O5 Cd1 1_555 1_555
O6 C12 1_555 1_555
O7 Cd1 1_555 1_555
O8 C10 1_555 1_555
C7 O5 1_555 1_555
C8 N4 1_555 1_555
H6 C8 1_555 1_555
O9 C12 1_555 1_555
C9 C10 1_555 1_555
C10 N4 1_555 1_555
C11 C8 1_555 1_555
O10 H9 1_555 1_555
C12 C37 1_555 1_555
C13 C3 1_555 1_555
H10 C13 1_555 1_555
C17 C7 1_555 1_555
C18 C11 1_555 1_555
C19 C18 1_555 1_555
H12 C19 1_555 1_555
C21 C32 1_555 1_555
C22 C19 1_555 1_555
H14 C22 1_555 1_555
C25 H17 1_555 1_555
H18 C26 1_555 1_555
C27 C9 1_555 1_555
H19 C27 1_555 1_555
C28 C25 1_555 1_555
H20 C28 1_555 1_555
C30 C28 1_555 1_555
C32 C13 1_555 1_555
H23 C32 1_555 1_555
C35 C21 1_555 1_555
C36 C21 1_555 1_555
H27 C36 1_555 1_555
C37 C25 1_555 1_555
C38 C17 1_555 1_555
H28 C38 1_555 1_555
C39 H29 1_555 1_555
C40 C39 1_555 1_555
H30 C40 1_555 1_555
H32 C43 1_555 1_555
N6 Cd1 1_555 1_555
C44 O10 1_555 1_555
C45 C17 1_555 1_555
H33 C45 1_555 1_555
C46 C9 1_555 1_555
H34 C46 1_555 1_555
C48 C30 1_555 1_555
H37 C48 1_555 1_555
C49 C37 1_555 1_555
H38 C49 1_555 1_555
C50 C44 1_555 1_555
H39 C50 1_555 1_555
C51 C18 1_555 1_555
H40 C51 1_555 1_555
O11 C52 1_555 1_555
C52 N5 1_555 1_555
H44 C57 1_555 1_555
H45 C58 1_555 1_555
Cd6 O6 1_555 1_555
O13 Cd1 1_555 1_555
O14 Cd1 1_555 1_555
O16 Cd1 1_555 1_555
C4 C5 1_555 1_555
O7 C7 1_555 1_555
O9 Cd6 1_555 1_555
C22 C44 1_555 1_555
C26 C36 1_555 1_555
C27 C45 1_555 1_555
C30 C52 1_555 1_555
C38 C46 1_555 1_555
C39 N6 1_555 1_555
C43 N6 1_555 1_555
C48 C49 1_555 1_555
C50 C51 1_555 1_555
C57 C58 1_555 1_555
Cd5 O2 1_555 1_555
O2 C14 1_555 1_555
N1 Cd5 1_555 1_555
O4 Cd5 1_555 1_555
C14 O4 1_555 1_555
C16 C14 1_555 1_555
C23 N1 1_555 1_555
H15 C23 1_555 1_555
C47 C16 1_555 1_555
H35 C47 1_555 1_555
H36 C47 1_555 1_555
H43 C55 1_555 1_555
C56 C47 1_555 1_555
Cd4 O4 1_555 1_555
O15 Cd5 1_555 1_555
O17 Cd5 1_555 1_555
O18 Cd5 1_555 1_555
C55 C56 1_555 1_555
Cd4 O15 1_555 1_555
C47_2 C16_2 1_555 1_555
H36_2 C47_2 1_555 1_555
H43_2 C55_2 1_555 1_555
C56_2 C47_2 1_555 1_555
C55_2 C56_2 1_555 1_555
Cd2 O2_2 1_555 1_555
O2_2 C14_2 1_555 1_555
N1_2 Cd2 1_555 1_555
O4_2 Cd2 1_555 1_555
C14_2 O4_2 1_555 1_555
C23_2 N1_2 1_555 1_555
H15_2 C23_2 1_555 1_555
O15_2 Cd2 1_555 1_555
N7 Cd2 1_555 1_555
O17_2 Cd2 1_555 1_555
O18_2 Cd2 1_555 1_555
O6_2 C12_2 1_555 1_555
O9_2 C12_2 1_555 1_555
C12_2 C37_2 1_555 1_555
C25_2 H17_2 1_555 1_555
C28_2 C25_2 1_555 1_555
H20_2 C28_2 1_555 1_555
C30_2 C28_2 1_555 1_555
C37_2 C25_2 1_555 1_555
C48_2 C30_2 1_555 1_555
H37_2 C48_2 1_555 1_555
C49_2 C37_2 1_555 1_555
H38_2 C49_2 1_555 1_555
O11_2 C52_2 1_555 1_555
C52_2 N5_2 1_555 1_555
H44_2 C57_2 1_555 1_555
H45_2 C58_2 1_555 1_555
Cd6_2 O6_2 1_555 1_555
O9_2 Cd6_2 1_555 1_555
C30_2 C52_2 1_555 1_555
C48_2 C49_2 1_555 1_555
C57_2 C58_2 1_555 1_555
Cd1_2 N2_2 1_555 1_555
N2_2 C1_2 1_555 1_555
C1_2 H1_2 1_555 1_555
C2_2 C1_2 1_555 1_555
H2_2 C2_2 1_555 1_555
C3_2 C2_2 1_555 1_555
C4_2 C3_2 1_555 1_555
H3_2 C4_2 1_555 1_555
C5_2 N2_2 1_555 1_555
H4_2 C5_2 1_555 1_555
N4_2 H5_2 1_555 1_555
O5_2 Cd1_2 1_555 1_555
O7_2 Cd1_2 1_555 1_555
O8_2 C10_2 1_555 1_555
C7_2 O5_2 1_555 1_555
C8_2 N4_2 1_555 1_555
H6_2 C8_2 1_555 1_555
C9_2 C10_2 1_555 1_555
C10_2 N4_2 1_555 1_555
C11_2 C8_2 1_555 1_555
O10_2 H9_2 1_555 1_555
C13_2 C3_2 1_555 1_555
H10_2 C13_2 1_555 1_555
C17_2 C7_2 1_555 1_555
C18_2 C11_2 1_555 1_555
C19_2 C18_2 1_555 1_555
H12_2 C19_2 1_555 1_555
C21_2 C32_2 1_555 1_555
C22_2 C19_2 1_555 1_555
H14_2 C22_2 1_555 1_555
H18_2 C26_2 1_555 1_555
C27_2 C9_2 1_555 1_555
H19_2 C27_2 1_555 1_555
C32_2 C13_2 1_555 1_555
H23_2 C32_2 1_555 1_555
C35_2 C21_2 1_555 1_555
C36_2 C21_2 1_555 1_555
H27_2 C36_2 1_555 1_555
C38_2 C17_2 1_555 1_555
H28_2 C38_2 1_555 1_555
C39_2 H29_2 1_555 1_555
C40_2 C39_2 1_555 1_555
H30_2 C40_2 1_555 1_555
H32_2 C43_2 1_555 1_555
N6_2 Cd1_2 1_555 1_555
C44_2 O10_2 1_555 1_555
C45_2 C17_2 1_555 1_555
H33_2 C45_2 1_555 1_555
C46_2 C9_2 1_555 1_555
H34_2 C46_2 1_555 1_555
C50_2 C44_2 1_555 1_555
H39_2 C50_2 1_555 1_555
C51_2 C18_2 1_555 1_555
H40_2 C51_2 1_555 1_555
O13_2 Cd1_2 1_555 1_555
C4_2 C5_2 1_555 1_555
O7_2 C7_2 1_555 1_555
C22_2 C44_2 1_555 1_555
C26_2 C36_2 1_555 1_555
C27_2 C45_2 1_555 1_555
C38_2 C46_2 1_555 1_555
C39_2 N6_2 1_555 1_555
C43_2 N6_2 1_555 1_555
C50_2 C51_2 1_555 1_555
O3_2 C6_2 1_555 1_555
N7 C24_2 1_555 1_555
C15_2 C29_2 1_555 1_555
C20_2 H13_2 1_555 1_555
C24_2 H16_2 1_555 1_555
C29_2 C24_2 1_555 1_555
H21_2 C29_2 1_555 1_555
C31_2 C15_2 1_555 1_555
H22_2 C31_2 1_555 1_555
C33_2 C15_2 1_555 1_555
H24_2 C33_2 1_555 1_555
C34_2 N7 1_555 1_555
H25_2 C34_2 1_555 1_555
C41_2 C20_2 1_555 1_555
C42_2 C41_2 1_555 1_555
H31_2 C42_2 1_555 1_555
Cd7_2 O3_2 1_555 1_555
O3_2 Cd3_2 1_555 1_555
C20_2 C33_2 1_555 1_555
C31_2 C34_2 1_555 1_555
Cd6 O2_3 1_555 1_555
O2_3 C14_3 1_555 1_555
N1_3 Cd6 1_555 1_555
O4_3 Cd6 1_555 1_555
O17_2 C12_3 1_555 1_555
N5_3 C16_3 1_555 1_555
O18_2 C12_3 1_555 1_555
C12_3 C37_3 1_555 1_555
C14_3 O4_3 1_555 1_555
C16_3 C14_3 1_555 1_555
H11_3 C16_3 1_555 1_555
C25_3 H17_3 1_555 1_555
C26_3 N1_3 1_555 1_555
H18_3 C26_3 1_555 1_555
C28_3 C25_3 1_555 1_555
H20_3 C28_3 1_555 1_555
C30_3 C28_3 1_555 1_555
H27_3 C36_3 1_555 1_555
C37_3 C25_3 1_555 1_555
C47_3 C16_3 1_555 1_555
H35_3 C47_3 1_555 1_555
H36_3 C47_3 1_555 1_555
C48_3 C30_3 1_555 1_555
H37_3 C48_3 1_555 1_555
C49_3 C37_3 1_555 1_555
H38_3 C49_3 1_555 1_555
O11_3 C52_3 1_555 1_555
C52_3 N5_3 1_555 1_555
O12 H41 1_555 1_555
C53 O12 1_555 1_555
C54 C53 1_555 1_555
H42 C54 1_555 1_555
C55_3 C54 1_555 1_555
H43_3 C55_3 1_555 1_555
C56_3 C47_3 1_555 1_555
C57_3 C56_3 1_555 1_555
H44_3 C57_3 1_555 1_555
C58_3 C53 1_555 1_555
H45_3 C58_3 1_555 1_555
Cd4_3 O4_3 1_555 1_555
O15_3 Cd6 1_555 1_555
N7_2 Cd6 1_555 1_555
C26_3 C36_3 1_555 1_555
C30_3 C52_3 1_555 1_555
C48_3 C49_3 1_555 1_555
C55_3 C56_3 1_555 1_555
C57_3 C58_3 1_555 1_555
Cd4_3 O15_3 1_555 1_555
N5_3 H46_3 1_555 1_555
N7_2 C24_3 1_555 1_555
C15_3 C29_3 1_555 1_555
C20_3 H13_3 1_555 1_555
C24_3 H16_3 1_555 1_555
C29_3 C24_3 1_555 1_555
H21_3 C29_3 1_555 1_555
C31_3 C15_3 1_555 1_555
H22_3 C31_3 1_555 1_555
C33_3 C15_3 1_555 1_555
H24_3 C33_3 1_555 1_555
C34_3 N7_2 1_555 1_555
H25_3 C34_3 1_555 1_555
C39_3 H29_3 1_555 1_555
C40_3 C39_3 1_555 1_555
H30_3 C40_3 1_555 1_555
C41_3 C20_3 1_555 1_555
C42_3 C41_3 1_555 1_555
H31_3 C42_3 1_555 1_555
C20_3 C33_3 1_555 1_555
C31_3 C34_3 1_555 1_555
C40_3 C41_3 1_555 1_555
Cd3_2 N2_3 1_555 1_555
O13 C6_3 1_555 1_555
O14 C6_3 1_555 1_555
N2_3 C1_3 1_555 1_555
C1_3 H1_3 1_555 1_555
C2_3 C1_3 1_555 1_555
H2_3 C2_3 1_555 1_555
C3_3 C2_3 1_555 1_555
C4_3 C3_3 1_555 1_555
H3_3 C4_3 1_555 1_555
C5_3 N2_3 1_555 1_555
H4_3 C5_3 1_555 1_555
N4_3 H5_3 1_555 1_555
O5_3 Cd3_2 1_555 1_555
O7_3 Cd3_2 1_555 1_555
O8_3 C10_3 1_555 1_555
C6_3 C8_3 1_555 1_555
C7_3 O5_3 1_555 1_555
C8_3 N4_3 1_555 1_555
H6_3 C8_3 1_555 1_555
C9_3 C10_3 1_555 1_555
C10_3 N4_3 1_555 1_555
C11_3 C8_3 1_555 1_555
H7_3 C11_3 1_555 1_555
H8_3 C11_3 1_555 1_555
O10_3 H9_3 1_555 1_555
C13_3 C3_3 1_555 1_555
H10_3 C13_3 1_555 1_555
C17_3 C7_3 1_555 1_555
C18_3 C11_3 1_555 1_555
C19_3 C18_3 1_555 1_555
H12_3 C19_3 1_555 1_555
C21_3 C32_3 1_555 1_555
C22_3 C19_3 1_555 1_555
H14_3 C22_3 1_555 1_555
H15_3 C23_3 1_555 1_555
C27_3 C9_3 1_555 1_555
H19_3 C27_3 1_555 1_555
C32_3 C13_3 1_555 1_555
H23_3 C32_3 1_555 1_555
C35_3 C21_3 1_555 1_555
H26_3 C35_3 1_555 1_555
C38_3 C17_3 1_555 1_555
H28_3 C38_3 1_555 1_555
H32_3 C43_3 1_555 1_555
N6_3 Cd3_2 1_555 1_555
C44_3 O10_3 1_555 1_555
C45_3 C17_3 1_555 1_555
H33_3 C45_3 1_555 1_555
C46_3 C9_3 1_555 1_555
H34_3 C46_3 1_555 1_555
C50_3 C44_3 1_555 1_555
H39_3 C50_3 1_555 1_555
C51_3 C18_3 1_555 1_555
H40_3 C51_3 1_555 1_555
Cd7_3 O14 1_555 1_555
O16_3 Cd3_2 1_555 1_555
C4_3 C5_3 1_555 1_555
O7_3 C7_3 1_555 1_555
C22_3 C44_3 1_555 1_555
C23_3 C35_3 1_555 1_555
C27_3 C45_3 1_555 1_555
C38_3 C46_3 1_555 1_555
C43_3 N6_3 1_555 1_555
C50_3 C51_3 1_555 1_555
Cd3 N2_4 1_555 1_555
O14_2 C6_4 1_555 1_555
N2_4 C1_4 1_555 1_555
C1_4 H1_4 1_555 1_555
C2_4 C1_4 1_555 1_555
H2_4 C2_4 1_555 1_555
C3_4 C2_4 1_555 1_555
C4_4 C3_4 1_555 1_555
H3_4 C4_4 1_555 1_555
C5_4 N2_4 1_555 1_555
H4_4 C5_4 1_555 1_555
N4_4 H5_4 1_555 1_555
O5_4 Cd3 1_555 1_555
O7_4 Cd3 1_555 1_555
O8_4 C10_4 1_555 1_555
C6_4 C8_4 1_555 1_555
C7_4 O5_4 1_555 1_555
C8_4 N4_4 1_555 1_555
H6_4 C8_4 1_555 1_555
C9_4 C10_4 1_555 1_555
C10_4 N4_4 1_555 1_555
C11_4 C8_4 1_555 1_555
H7_4 C11_4 1_555 1_555
H8_4 C11_4 1_555 1_555
O10_4 H9_4 1_555 1_555
C13_4 C3_4 1_555 1_555
H10_4 C13_4 1_555 1_555
C17_4 C7_4 1_555 1_555
C18_4 C11_4 1_555 1_555
C19_4 C18_4 1_555 1_555
H12_4 C19_4 1_555 1_555
C21_4 C32_4 1_555 1_555
C22_4 C19_4 1_555 1_555
H14_4 C22_4 1_555 1_555
H15_4 C23_4 1_555 1_555
C27_4 C9_4 1_555 1_555
H19_4 C27_4 1_555 1_555
C32_4 C13_4 1_555 1_555
H23_4 C32_4 1_555 1_555
C35_4 C21_4 1_555 1_555
H26_4 C35_4 1_555 1_555
C38_4 C17_4 1_555 1_555
H28_4 C38_4 1_555 1_555
H32_4 C43_4 1_555 1_555
N6_4 Cd3 1_555 1_555
C44_4 O10_4 1_555 1_555
C45_4 C17_4 1_555 1_555
H33_4 C45_4 1_555 1_555
C46_4 C9_4 1_555 1_555
H34_4 C46_4 1_555 1_555
C50_4 C44_4 1_555 1_555
H39_4 C50_4 1_555 1_555
C51_4 C18_4 1_555 1_555
H40_4 C51_4 1_555 1_555
Cd7_4 O14_2 1_555 1_555
O16_4 Cd3 1_555 1_555
C4_4 C5_4 1_555 1_555
O7_4 C7_4 1_555 1_555
C22_4 C44_4 1_555 1_555
C23_4 C35_4 1_555 1_555
C27_4 C45_4 1_555 1_555
C38_4 C46_4 1_555 1_555
C43_4 N6_4 1_555 1_555
C50_4 C51_4 1_555 1_555
N3_2 C24_4 1_555 1_555
C15_4 C29_4 1_555 1_555
C20_4 H13_4 1_555 1_555
C24_4 H16_4 1_555 1_555
C29_4 C24_4 1_555 1_555
H21_4 C29_4 1_555 1_555
C31_4 C15_4 1_555 1_555
H22_4 C31_4 1_555 1_555
C33_4 C15_4 1_555 1_555
H24_4 C33_4 1_555 1_555
C34_4 N3_2 1_555 1_555
H25_4 C34_4 1_555 1_555
C39_4 H29_4 1_555 1_555
C40_4 C39_4 1_555 1_555
H30_4 C40_4 1_555 1_555
C41_4 C20_4 1_555 1_555
C42_4 C41_4 1_555 1_555
H31_4 C42_4 1_555 1_555
Cd6_2 N3_2 1_555 1_555
C20_4 C33_4 1_555 1_555
C31_4 C34_4 1_555 1_555
C40_4 C41_4 1_555 1_555
Cd6_2 O2_4 1_555 1_555
O2_4 C14_4 1_555 1_555
N1_4 Cd6_2 1_555 1_555
O4_4 Cd6_2 1_555 1_555
O17 C12_4 1_555 1_555
N5_4 C16_4 1_555 1_555
O18 C12_4 1_555 1_555
C12_4 C37_4 1_555 1_555
C14_4 O4_4 1_555 1_555
C16_4 C14_4 1_555 1_555
H11_4 C16_4 1_555 1_555
C25_4 H17_4 1_555 1_555
C26_4 N1_4 1_555 1_555
H18_4 C26_4 1_555 1_555
C28_4 C25_4 1_555 1_555
H20_4 C28_4 1_555 1_555
C30_4 C28_4 1_555 1_555
H27_4 C36_4 1_555 1_555
C37_4 C25_4 1_555 1_555
C47_4 C16_4 1_555 1_555
H35_4 C47_4 1_555 1_555
H36_4 C47_4 1_555 1_555
C48_4 C30_4 1_555 1_555
H37_4 C48_4 1_555 1_555
C49_4 C37_4 1_555 1_555
H38_4 C49_4 1_555 1_555
O11_4 C52_4 1_555 1_555
C52_4 N5_4 1_555 1_555
O12_2 H41_2 1_555 1_555
C53_2 O12_2 1_555 1_555
C54_2 C53_2 1_555 1_555
H42_2 C54_2 1_555 1_555
C55_4 C54_2 1_555 1_555
H43_4 C55_4 1_555 1_555
C56_4 C47_4 1_555 1_555
C57_4 C56_4 1_555 1_555
H44_4 C57_4 1_555 1_555
C58_4 C53_2 1_555 1_555
H45_4 C58_4 1_555 1_555
Cd4_4 O4_4 1_555 1_555
O15_4 Cd6_2 1_555 1_555
C26_4 C36_4 1_555 1_555
C30_4 C52_4 1_555 1_555
C48_4 C49_4 1_555 1_555
C55_4 C56_4 1_555 1_555
C57_4 C58_4 1_555 1_555
Cd4_4 O15_4 1_555 1_555
N5_4 H46_4 1_555 1_555
Cd4_2 O1_3 1_555 1_555
Cd4_3 N2_5 1_555 1_555
O15_2 C6_5 1_555 1_555
N2_5 C1_5 1_555 1_555
C1_5 H1_5 1_555 1_555
C2_5 C1_5 1_555 1_555
H2_5 C2_5 1_555 1_555
C3_5 C2_5 1_555 1_555
C4_5 C3_5 1_555 1_555
H3_5 C4_5 1_555 1_555
C5_5 N2_5 1_555 1_555
H4_5 C5_5 1_555 1_555
N4_5 H5_5 1_555 1_555
O5_5 Cd4_3 1_555 1_555
O7_5 Cd4_3 1_555 1_555
O8_5 C10_5 1_555 1_555
C6_5 C8_5 1_555 1_555
C7_5 O5_5 1_555 1_555
C8_5 N4_5 1_555 1_555
H6_5 C8_5 1_555 1_555
C9_5 C10_5 1_555 1_555
C10_5 N4_5 1_555 1_555
C11_5 C8_5 1_555 1_555
H7_5 C11_5 1_555 1_555
H8_5 C11_5 1_555 1_555
O10_5 H9_5 1_555 1_555
C13_5 C3_5 1_555 1_555
H10_5 C13_5 1_555 1_555
C17_5 C7_5 1_555 1_555
C18_5 C11_5 1_555 1_555
C19_5 C18_5 1_555 1_555
H12_5 C19_5 1_555 1_555
C21_5 C32_5 1_555 1_555
C22_5 C19_5 1_555 1_555
H14_5 C22_5 1_555 1_555
H15_5 C23_5 1_555 1_555
C27_5 C9_5 1_555 1_555
H19_5 C27_5 1_555 1_555
C32_5 C13_5 1_555 1_555
H23_5 C32_5 1_555 1_555
C35_5 C21_5 1_555 1_555
H26_5 C35_5 1_555 1_555
C38_5 C17_5 1_555 1_555
H28_5 C38_5 1_555 1_555
H32_5 C43_5 1_555 1_555
N6_5 Cd4_3 1_555 1_555
C44_5 O10_5 1_555 1_555
C45_5 C17_5 1_555 1_555
H33_5 C45_5 1_555 1_555
C46_5 C9_5 1_555 1_555
H34_5 C46_5 1_555 1_555
C50_5 C44_5 1_555 1_555
H39_5 C50_5 1_555 1_555
C51_5 C18_5 1_555 1_555
H40_5 C51_5 1_555 1_555
C4_5 C5_5 1_555 1_555
O7_5 C7_5 1_555 1_555
C22_5 C44_5 1_555 1_555
C23_5 C35_5 1_555 1_555
C27_5 C45_5 1_555 1_555
C38_5 C46_5 1_555 1_555
C43_5 N6_5 1_555 1_555
C50_5 C51_5 1_555 1_555
Cd7_2 O2_5 1_555 1_555
O2_5 C14_5 1_555 1_555
N1_5 Cd7_2 1_555 1_555
O16_3 Cd7_2 1_555 1_555
O6_3 C12_5 1_555 1_555
N5_5 C16_5 1_555 1_555
O9_3 C12_5 1_555 1_555
C12_5 C37_5 1_555 1_555
C14_5 O16_3 1_555 1_555
C16_5 C14_5 1_555 1_555
H11_5 C16_5 1_555 1_555
C25_5 H17_5 1_555 1_555
C26_5 N1_5 1_555 1_555
H18_5 C26_5 1_555 1_555
C28_5 C25_5 1_555 1_555
H20_5 C28_5 1_555 1_555
C30_5 C28_5 1_555 1_555
H27_5 C36_5 1_555 1_555
C37_5 C25_5 1_555 1_555
C47_5 C16_5 1_555 1_555
H35_5 C47_5 1_555 1_555
H36_5 C47_5 1_555 1_555
C48_5 C30_5 1_555 1_555
H37_5 C48_5 1_555 1_555
C49_5 C37_5 1_555 1_555
H38_5 C49_5 1_555 1_555
O11_5 C52_5 1_555 1_555
C52_5 N5_5 1_555 1_555
O12_3 H41_3 1_555 1_555
C53_3 O12_3 1_555 1_555
C54_3 C53_3 1_555 1_555
H42_3 C54_3 1_555 1_555
C55_5 C54_3 1_555 1_555
H43_5 C55_5 1_555 1_555
C56_5 C47_5 1_555 1_555
C57_5 C56_5 1_555 1_555
H44_5 C57_5 1_555 1_555
C58_5 C53_3 1_555 1_555
H45_5 C58_5 1_555 1_555
Cd7_3 O6_3 1_555 1_555
N7_3 Cd7_2 1_555 1_555
O17_3 Cd7_2 1_555 1_555
O18_3 Cd7_2 1_555 1_555
O9_3 Cd7_3 1_555 1_555
C26_5 C36_5 1_555 1_555
C30_5 C52_5 1_555 1_555
C48_5 C49_5 1_555 1_555
C55_5 C56_5 1_555 1_555
C57_5 C58_5 1_555 1_555
N5_5 H46_5 1_555 1_555
N7_3 C24_5 1_555 1_555
C15_5 C29_5 1_555 1_555
C20_5 H13_5 1_555 1_555
C24_5 H16_5 1_555 1_555
C29_5 C24_5 1_555 1_555
H21_5 C29_5 1_555 1_555
C31_5 C15_5 1_555 1_555
H22_5 C31_5 1_555 1_555
C33_5 C15_5 1_555 1_555
H24_5 C33_5 1_555 1_555
C34_5 N7_3 1_555 1_555
H25_5 C34_5 1_555 1_555
C39_5 H29_5 1_555 1_555
C40_5 C39_5 1_555 1_555
H30_5 C40_5 1_555 1_555
C41_5 C20_5 1_555 1_555
C42_5 C41_5 1_555 1_555
H31_5 C42_5 1_555 1_555
C20_5 C33_5 1_555 1_555
C31_5 C34_5 1_555 1_555
C40_5 C41_5 1_555 1_555
N3_3 C24_6 1_555 1_555
C15_6 C29_6 1_555 1_555
C20_6 H13_6 1_555 1_555
C24_6 H16_6 1_555 1_555
C29_6 C24_6 1_555 1_555
H21_6 C29_6 1_555 1_555
C31_6 C15_6 1_555 1_555
H22_6 C31_6 1_555 1_555
C33_6 C15_6 1_555 1_555
H24_6 C33_6 1_555 1_555
C34_6 N3_3 1_555 1_555
H25_6 C34_6 1_555 1_555
C39_6 H29_6 1_555 1_555
C40_6 C39_6 1_555 1_555
H30_6 C40_6 1_555 1_555
C41_6 C20_6 1_555 1_555
C42_6 C41_6 1_555 1_555
H31_6 C42_6 1_555 1_555
Cd7 N3_3 1_555 1_555
C20_6 C33_6 1_555 1_555
C31_6 C34_6 1_555 1_555
C40_6 C41_6 1_555 1_555
Cd7 O2_6 1_555 1_555
O2_6 C14_6 1_555 1_555
N1_6 Cd7 1_555 1_555
O16_4 Cd7 1_555 1_555
O6_4 C12_6 1_555 1_555
N5_6 C16_6 1_555 1_555
O9_4 C12_6 1_555 1_555
C12_6 C37_6 1_555 1_555
C14_6 O16_4 1_555 1_555
C16_6 C14_6 1_555 1_555
H11_6 C16_6 1_555 1_555
C25_6 H17_6 1_555 1_555
C26_6 N1_6 1_555 1_555
H18_6 C26_6 1_555 1_555
C28_6 C25_6 1_555 1_555
H20_6 C28_6 1_555 1_555
C30_6 C28_6 1_555 1_555
H27_6 C36_6 1_555 1_555
C37_6 C25_6 1_555 1_555
C47_6 C16_6 1_555 1_555
H35_6 C47_6 1_555 1_555
H36_6 C47_6 1_555 1_555
C48_6 C30_6 1_555 1_555
H37_6 C48_6 1_555 1_555
C49_6 C37_6 1_555 1_555
H38_6 C49_6 1_555 1_555
O11_6 C52_6 1_555 1_555
C52_6 N5_6 1_555 1_555
O12_4 H41_4 1_555 1_555
C53_4 O12_4 1_555 1_555
C54_4 C53_4 1_555 1_555
H42_4 C54_4 1_555 1_555
C55_6 C54_4 1_555 1_555
H43_6 C55_6 1_555 1_555
C56_6 C47_6 1_555 1_555
C57_6 C56_6 1_555 1_555
H44_6 C57_6 1_555 1_555
C58_6 C53_4 1_555 1_555
H45_6 C58_6 1_555 1_555
Cd7_4 O6_4 1_555 1_555
O17_4 Cd7 1_555 1_555
O18_4 Cd7 1_555 1_555
O9_4 Cd7_4 1_555 1_555
C26_6 C36_6 1_555 1_555
C30_6 C52_6 1_555 1_555
C48_6 C49_6 1_555 1_555
C55_6 C56_6 1_555 1_555
C57_6 C58_6 1_555 1_555
N5_6 H46_6 1_555 1_555
Cd4_4 N2_6 1_555 1_555
O1_4 C6_6 1_555 1_555
O15 C6_6 1_555 1_555
N2_6 C1_6 1_555 1_555
C1_6 H1_6 1_555 1_555
C2_6 C1_6 1_555 1_555
H2_6 C2_6 1_555 1_555
C3_6 C2_6 1_555 1_555
C4_6 C3_6 1_555 1_555
H3_6 C4_6 1_555 1_555
C5_6 N2_6 1_555 1_555
H4_6 C5_6 1_555 1_555
N4_6 H5_6 1_555 1_555
O5_6 Cd4_4 1_555 1_555
O7_6 Cd4_4 1_555 1_555
O8_6 C10_6 1_555 1_555
C6_6 C8_6 1_555 1_555
C7_6 O5_6 1_555 1_555
C8_6 N4_6 1_555 1_555
H6_6 C8_6 1_555 1_555
C9_6 C10_6 1_555 1_555
C10_6 N4_6 1_555 1_555
C11_6 C8_6 1_555 1_555
H7_6 C11_6 1_555 1_555
H8_6 C11_6 1_555 1_555
O10_6 H9_6 1_555 1_555
C13_6 C3_6 1_555 1_555
H10_6 C13_6 1_555 1_555
C17_6 C7_6 1_555 1_555
C18_6 C11_6 1_555 1_555
C19_6 C18_6 1_555 1_555
H12_6 C19_6 1_555 1_555
C21_6 C32_6 1_555 1_555
C22_6 C19_6 1_555 1_555
H14_6 C22_6 1_555 1_555
H15_6 C23_6 1_555 1_555
C27_6 C9_6 1_555 1_555
H19_6 C27_6 1_555 1_555
C32_6 C13_6 1_555 1_555
H23_6 C32_6 1_555 1_555
C35_6 C21_6 1_555 1_555
H26_6 C35_6 1_555 1_555
C38_6 C17_6 1_555 1_555
H28_6 C38_6 1_555 1_555
H32_6 C43_6 1_555 1_555
N6_6 Cd4_4 1_555 1_555
C44_6 O10_6 1_555 1_555
C45_6 C17_6 1_555 1_555
H33_6 C45_6 1_555 1_555
C46_6 C9_6 1_555 1_555
H34_6 C46_6 1_555 1_555
C50_6 C44_6 1_555 1_555
H39_6 C50_6 1_555 1_555
C51_6 C18_6 1_555 1_555
H40_6 C51_6 1_555 1_555
Cd4 O1_4 1_555 1_555
C4_6 C5_6 1_555 1_555
O7_6 C7_6 1_555 1_555
C22_6 C44_6 1_555 1_555
C23_6 C35_6 1_555 1_555
C27_6 C45_6 1_555 1_555
C38_6 C46_6 1_555 1_555
C43_6 N6_6 1_555 1_555
C50_6 C51_6 1_555 1_555
O15_3 C6_7 1_555 1_555
N3_4 C24_7 1_555 1_555
C15_7 C29_7 1_555 1_555
C20_7 H13_7 1_555 1_555
C24_7 H16_7 1_555 1_555
C29_7 C24_7 1_555 1_555
H21_7 C29_7 1_555 1_555
C31_7 C15_7 1_555 1_555
H22_7 C31_7 1_555 1_555
C33_7 C15_7 1_555 1_555
H24_7 C33_7 1_555 1_555
C34_7 N3_4 1_555 1_555
H25_7 C34_7 1_555 1_555
C41_7 C20_7 1_555 1_555
C42_7 C41_7 1_555 1_555
H31_7 C42_7 1_555 1_555
Cd7_3 N3_4 1_555 1_555
C20_7 C33_7 1_555 1_555
C31_7 C34_7 1_555 1_555
Cd4 N2_7 1_555 1_555
N2_7 C1_7 1_555 1_555
C1_7 H1_7 1_555 1_555
C2_7 C1_7 1_555 1_555
H2_7 C2_7 1_555 1_555
C3_7 C2_7 1_555 1_555
C4_7 C3_7 1_555 1_555
H3_7 C4_7 1_555 1_555
C5_7 N2_7 1_555 1_555
H4_7 C5_7 1_555 1_555
N4_7 H5_7 1_555 1_555
O5_7 Cd4 1_555 1_555
O17_4 C12_7 1_555 1_555
O7_7 Cd4 1_555 1_555
O8_7 C10_7 1_555 1_555
C7_7 O5_7 1_555 1_555
C8_7 N4_7 1_555 1_555
H6_7 C8_7 1_555 1_555
O18_4 C12_7 1_555 1_555
C9_7 C10_7 1_555 1_555
C10_7 N4_7 1_555 1_555
C11_7 C8_7 1_555 1_555
O10_7 H9_7 1_555 1_555
C12_7 C37_7 1_555 1_555
C13_7 C3_7 1_555 1_555
H10_7 C13_7 1_555 1_555
C17_7 C7_7 1_555 1_555
C18_7 C11_7 1_555 1_555
C19_7 C18_7 1_555 1_555
H12_7 C19_7 1_555 1_555
C21_7 C32_7 1_555 1_555
C22_7 C19_7 1_555 1_555
H14_7 C22_7 1_555 1_555
C25_7 H17_7 1_555 1_555
H18_7 C26_7 1_555 1_555
C27_7 C9_7 1_555 1_555
H19_7 C27_7 1_555 1_555
C28_7 C25_7 1_555 1_555
H20_7 C28_7 1_555 1_555
C30_7 C28_7 1_555 1_555
C32_7 C13_7 1_555 1_555
H23_7 C32_7 1_555 1_555
C35_7 C21_7 1_555 1_555
C36_7 C21_7 1_555 1_555
H27_7 C36_7 1_555 1_555
C37_7 C25_7 1_555 1_555
C38_7 C17_7 1_555 1_555
H28_7 C38_7 1_555 1_555
C39_7 H29_7 1_555 1_555
C40_7 C39_7 1_555 1_555
H30_7 C40_7 1_555 1_555
H32_7 C43_7 1_555 1_555
N6_7 Cd4 1_555 1_555
C44_7 O10_7 1_555 1_555
C45_7 C17_7 1_555 1_555
H33_7 C45_7 1_555 1_555
C46_7 C9_7 1_555 1_555
H34_7 C46_7 1_555 1_555
C48_7 C30_7 1_555 1_555
H37_7 C48_7 1_555 1_555
C49_7 C37_7 1_555 1_555
H38_7 C49_7 1_555 1_555
C50_7 C44_7 1_555 1_555
H39_7 C50_7 1_555 1_555
C51_7 C18_7 1_555 1_555
H40_7 C51_7 1_555 1_555
O11_7 C52_7 1_555 1_555
C52_7 N5_7 1_555 1_555
H44_7 C57_7 1_555 1_555
H45_7 C58_7 1_555 1_555
C4_7 C5_7 1_555 1_555
O7_7 C7_7 1_555 1_555
C22_7 C44_7 1_555 1_555
C26_7 C36_7 1_555 1_555
C27_7 C45_7 1_555 1_555
C30_7 C52_7 1_555 1_555
C38_7 C46_7 1_555 1_555
C39_7 N6_7 1_555 1_555
C43_7 N6_7 1_555 1_555
C48_7 C49_7 1_555 1_555
C50_7 C51_7 1_555 1_555
C57_7 C58_7 1_555 1_555
Cd7_3 O2_7 1_555 1_555
O2_7 C14_7 1_555 1_555
N1_7 Cd7_3 1_555 1_555
O16 Cd7_3 1_555 1_555
C14_7 O16 1_555 1_555
C16_7 C14_7 1_555 1_555
C23_7 N1_7 1_555 1_555
H15_7 C23_7 1_555 1_555
C47_7 C16_7 1_555 1_555
H35_7 C47_7 1_555 1_555
H36_7 C47_7 1_555 1_555
H43_7 C55_7 1_555 1_555
C56_7 C47_7 1_555 1_555
C55_7 C56_7 1_555 1_555
Cd7_4 O2_8 1_555 1_555
O2_8 C14_8 1_555 1_555
N1_8 Cd7_4 1_555 1_555
O16_2 Cd7_4 1_555 1_555
C14_8 O16_2 1_555 1_555
C23_8 N1_8 1_555 1_555
H15_8 C23_8 1_555 1_555
N7_4 Cd7_4 1_555 1_555
C47_8 C16_8 1_555 1_555
H36_8 C47_8 1_555 1_555
H43_8 C55_8 1_555 1_555
C56_8 C47_8 1_555 1_555
C55_8 C56_8 1_555 1_555
Cd4_2 N2_8 1_555 1_555
N2_8 C1_8 1_555 1_555
C1_8 H1_8 1_555 1_555
C2_8 C1_8 1_555 1_555
H2_8 C2_8 1_555 1_555
C3_8 C2_8 1_555 1_555
C4_8 C3_8 1_555 1_555
H3_8 C4_8 1_555 1_555
C5_8 N2_8 1_555 1_555
H4_8 C5_8 1_555 1_555
N4_8 H5_8 1_555 1_555
O5_8 Cd4_2 1_555 1_555
O7_8 Cd4_2 1_555 1_555
O8_8 C10_8 1_555 1_555
C7_8 O5_8 1_555 1_555
C8_8 N4_8 1_555 1_555
H6_8 C8_8 1_555 1_555
C9_8 C10_8 1_555 1_555
C10_8 N4_8 1_555 1_555
C11_8 C8_8 1_555 1_555
O10_8 H9_8 1_555 1_555
C13_8 C3_8 1_555 1_555
H10_8 C13_8 1_555 1_555
C17_8 C7_8 1_555 1_555
C18_8 C11_8 1_555 1_555
C19_8 C18_8 1_555 1_555
H12_8 C19_8 1_555 1_555
C21_8 C32_8 1_555 1_555
C22_8 C19_8 1_555 1_555
H14_8 C22_8 1_555 1_555
H18_8 C26_8 1_555 1_555
C27_8 C9_8 1_555 1_555
H19_8 C27_8 1_555 1_555
C32_8 C13_8 1_555 1_555
H23_8 C32_8 1_555 1_555
C35_8 C21_8 1_555 1_555
C36_8 C21_8 1_555 1_555
H27_8 C36_8 1_555 1_555
C38_8 C17_8 1_555 1_555
H28_8 C38_8 1_555 1_555
C39_8 H29_8 1_555 1_555
C40_8 C39_8 1_555 1_555
H30_8 C40_8 1_555 1_555
H32_8 C43_8 1_555 1_555
N6_8 Cd4_2 1_555 1_555
C44_8 O10_8 1_555 1_555
C45_8 C17_8 1_555 1_555
H33_8 C45_8 1_555 1_555
C46_8 C9_8 1_555 1_555
H34_8 C46_8 1_555 1_555
C50_8 C44_8 1_555 1_555
H39_8 C50_8 1_555 1_555
C51_8 C18_8 1_555 1_555
H40_8 C51_8 1_555 1_555
C4_8 C5_8 1_555 1_555
O7_8 C7_8 1_555 1_555
C22_8 C44_8 1_555 1_555
C26_8 C36_8 1_555 1_555
C27_8 C45_8 1_555 1_555
C38_8 C46_8 1_555 1_555
C39_8 N6_8 1_555 1_555
C43_8 N6_8 1_555 1_555
C50_8 C51_8 1_555 1_555
O17_3 C12_8 1_555 1_555
O18_3 C12_8 1_555 1_555
C12_8 C37_8 1_555 1_555
C25_8 H17_8 1_555 1_555
C28_8 C25_8 1_555 1_555
H20_8 C28_8 1_555 1_555
C30_8 C28_8 1_555 1_555
C37_8 C25_8 1_555 1_555
C48_8 C30_8 1_555 1_555
H37_8 C48_8 1_555 1_555
C49_8 C37_8 1_555 1_555
H38_8 C49_8 1_555 1_555
O11_8 C52_8 1_555 1_555
C52_8 N5_8 1_555 1_555
H44_8 C57_8 1_555 1_555
H45_8 C58_8 1_555 1_555
C30_8 C52_8 1_555 1_555
C48_8 C49_8 1_555 1_555
C57_8 C58_8 1_555 1_555
O15_4 C6_8 1_555 1_555
N7_4 C24_8 1_555 1_555
C15_8 C29_8 1_555 1_555
C20_8 H13_8 1_555 1_555
C24_8 H16_8 1_555 1_555
C29_8 C24_8 1_555 1_555
H21_8 C29_8 1_555 1_555
C31_8 C15_8 1_555 1_555
H22_8 C31_8 1_555 1_555
C33_8 C15_8 1_555 1_555
H24_8 C33_8 1_555 1_555
C34_8 N7_4 1_555 1_555
H25_8 C34_8 1_555 1_555
C41_8 C20_8 1_555 1_555
C42_8 C41_8 1_555 1_555
H31_8 C42_8 1_555 1_555
C20_8 C33_8 1_555 1_555
C31_8 C34_8 1_555 1_555
O12_5 H41_5 1_555 1_555
C53_5 O12_5 1_555 1_555
H42_5 C54_5 1_555 1_555
H42_6 C54_6 1_555 1_555
O12_6 H41_6 1_555 1_555
C53_6 O12_6 1_555 1_555
O12_7 H41_7 1_555 1_555
C53_7 O12_7 1_555 1_555
H42_7 C54_7 1_555 1_555
H42_8 C54_8 1_555 1_555
O12_8 H41_8 1_555 1_555
C53_8 O12_8 1_555 1_555

#END
