
###############################################################################
#
# This file contains modified crystal structure data generated from the
# MOF subset of the Cambridge Structural Database (CSD) v543 
# hosted by the Cambridge Crystallographic Data Centre (CCDC).
#
# This work is licensed under the Creative Commons
# Attribution-NonCommercial-ShareAlike 4.0 International License.
# To view a copy of this license, visit
# http://creativecommons.org/licenses/by-nc-sa/4.0/
# or send a letter to
# Creative Commons, PO Box 1866, Mountain View, CA 94042, USA.
#
# CIF created using the CSD Python API on 29 September 2022
# The structure has been converted into the P1 space group
# The structure has a 3D framework
# The original CSD entry FUWFOU is in the monoclinic crystal system
# The framework has been calculated to contain at least 10.0% void space
# The void calculation uses a probe of radius 1.32A, grid spacing 0.4
#
###############################################################################

data_FUWFOU
_chemical_formula_moiety         '(C100 H76 Cd14 N78 O7)n'
_symmetry_cell_setting           triclinic
_symmetry_space_group_name_H-M   'P 1'
_symmetry_Int_Tables_number      1
_space_group_name_Hall           'P 1'
loop_
_symmetry_equiv_pos_site_id
_symmetry_equiv_pos_as_xyz
1 x,y,z
_cell_length_a                   12.6177(19)
_cell_length_b                   12.5869(18)
_cell_length_c                   28.561(4)
_cell_angle_alpha                90
_cell_angle_beta                 96.843(2)
_cell_angle_gamma                90
_cell_volume                     4503.68
loop_
_atom_site_label
_atom_site_type_symbol
_atom_site_fract_x
_atom_site_fract_y
_atom_site_fract_z
Cd15 Cd 0.14406(8) 0.04012(9) 0.89126(4)
N7 N 0.5248(11) 0.1596(11) 0.5790(5)
C9 C 0.6003(13) 0.0997(13) 0.5633(6)
H4 H 0.6645 0.1316 0.5584
C10 C 0.4121(13) 0.0108(13) 0.5771(6)
C13 C 0.4320(13) 0.1167(13) 0.5845(6)
H7 H 0.3782 0.1597 0.5936
Cd7 Cd 0.56515(8) 0.33110(9) 0.61116(4)
Cd2 Cd 0.35594(8) 0.54012(9) 0.60874(4)
Cd3 Cd 0.5000 0.5000 0.5000
O1 O 0.4420(8) 0.4281(9) 0.5636(4)
N1 N 0.9758(11) 0.0660(11) 0.8464(5)
N2 N 0.5274(10) 0.7658(11) 0.5331(5)
N4 N 0.9455(11) 0.1368(11) 0.8120(5)
N5 N 0.6794(10) 0.2432(10) 0.6700(5)
N6 N 0.3229(11) 0.5288(11) 0.4609(5)
N8 N 0.0800(11) 0.8125(11) 0.8414(5)
N9 N 0.2130(11) 0.8703(11) 0.8076(5)
N10 N 0.3902(11) 0.7835(11) 0.5742(5)
N11 N 0.4820(11) 0.6687(11) 0.5362(5)
N12 N 0.2014(11) 0.6292(11) 0.4236(5)
N13 N 0.1518(11) 0.8879(11) 0.8420(5)
N14 N 0.4020(10) 0.6805(10) 0.5613(5)
C1 C 0.8527(13) 0.1011(13) 0.7919(6)
N15 N 0.8214(11) 0.0124(11) 0.8121(5)
C2 C 0.1580(13) 0.5437(13) 0.4432(6)
C3 C 0.1741(13) 0.7794(13) 0.7874(6)
N16 N 0.0923(11) 0.7426(11) 0.8087(5)
C4 C 0.8302(12) 0.2434(13) 0.7293(5)
H1 H 0.8914 0.2775 0.7432
N17 N 0.2808(10) 0.6435(10) 0.6643(5)
C5 C 0.7930(13) 0.1502(13) 0.7503(6)
C6 C 0.6939(13) 0.1110(13) 0.7311(5)
H2 H 0.6625 0.0543 0.7451
N18 N 0.2303(11) 0.4812(11) 0.4663(5)
N19 N 0.3047(11) 0.6153(11) 0.4363(5)
C8 C 0.0400(13) 0.5290(13) 0.4374(6)
H5 H 0.3461 0.9826 0.5819
C11 C 0.4916(12) 0.9443(13) 0.5622(6)
C12 C 0.7761(12) 0.2829(13) 0.6887(5)
H6 H 0.8061 0.3385 0.6734
C14 C 0.5875(13) 0.9925(13) 0.5540(6)
H8 H 0.6414 0.9533 0.5426
C15 C 0.2139(13) 0.7326(13) 0.7467(6)
C16 C 0.4702(13) 0.8317(13) 0.5561(6)
C17 C 0.1650(13) 0.6422(13) 0.7250(6)
H9 H 0.1083 0.6103 0.7376
C19 C 0.2961(13) 0.7775(13) 0.7246(6)
H11 H 0.3291 0.8395 0.7366
C20 C 0.6438(13) 0.1578(12) 0.6910(5)
H12 H 0.5802 0.1277 0.6774
C21 C 0.1995(13) 0.6009(13) 0.6855(6)
H13 H 0.1659 0.5404 0.6724
C23 C 0.3289(13) 0.7304(13) 0.6849(6)
H15 H 0.3863 0.7598 0.6719
H16 H 0.0389 0.3706 0.4548
C25 C 0.2906(12) 0.2864(12) 0.5153(5)
H17 H 0.3206 0.2164 0.5147
H18 H 0.2241 0.2884 0.4951
H19 H 0.2785 0.3039 0.5469
O2 O 0.3658(9) 0.3645(9) 0.4983(4)
C32 C 0.0301(13) 0.3918(13) 0.5775(6)
H22 H 0.0038 0.3249 0.5838
N40 N 0.1794(11) 0.5069(11) 0.5771(5)
C43 C 0.1126(13) 0.5849(13) 0.5617(6)
H29 H 0.1409 0.6509 0.5555
C47 C 0.1368(13) 0.4085(13) 0.5832(6)
H33 H 0.1824 0.3517 0.5916
C49 C 0.0051(13) 0.5722(13) 0.5549(6)
C50 C 0.7094(12) 0.7136(12) 0.4847(5)
H36 H 0.6794 0.7836 0.4853
H37 H 0.7759 0.7116 0.5049
H38 H 0.7215 0.6961 0.4531
O4 O 0.6342(9) 0.6355(9) 0.5017(4)
Cd11 Cd 0.43485(8) 0.66890(9) 0.38884(4)
Cd13 Cd 0.06515(8) 0.16890(9) 0.11116(4)
O5 O 0.5580(8) 0.5719(9) 0.4364(4)
N41 N 0.5242(11) 0.5660(11) 0.6536(5)
N43 N 0.6000(11) 0.4911(11) 0.6548(5)
N45 N 0.6771(11) 0.4712(11) 0.5391(5)
N48 N 0.4200(11) 0.3125(11) 0.6586(5)
N50 N 0.5180(11) 0.3313(11) 0.4638(5)
N51 N 0.3482(11) 0.3879(11) 0.6580(5)
N54 N 0.6953(11) 0.3847(11) 0.5637(5)
N3 N 0.9000(11) 0.9911(11) 0.8452(5)
Cd9 Cd 0.93485(8) 0.83110(9) 0.88884(4)
N23 N 0.1000(11) 0.0089(11) 0.1548(5)
C7 C 0.9699(13) 0.6082(13) 0.4225(6)
H3 H 0.9962 0.6751 0.4162
N20 N 0.8206(11) 0.4931(11) 0.4229(5)
C18 C 0.8874(13) 0.4151(13) 0.4383(6)
H10 H 0.8591 0.3491 0.4445
C22 C 0.8632(13) 0.5915(13) 0.4168(6)
H14 H 0.8176 0.6483 0.4084
C24 C 0.9949(13) 0.4278(13) 0.4451(6)
Cd5 Cd 0.64406(8) 0.45988(9) 0.39126(4)
N21 N 0.0242(11) 0.9340(11) 0.1536(5)
N22 N 0.4726(10) 0.2342(11) 0.4669(5)
N24 N 0.0545(11) 0.8632(11) 0.1880(5)
N25 N 0.3206(10) 0.7568(10) 0.3300(5)
N28 N 0.9200(11) 0.1875(11) 0.1586(5)
N29 N 0.7870(11) 0.1297(11) 0.1924(5)
N30 N 0.6098(11) 0.2165(11) 0.4258(5)
N32 N 0.7986(11) 0.3708(11) 0.5764(5)
N33 N 0.8482(11) 0.1121(11) 0.1580(5)
N34 N 0.5980(10) 0.3195(10) 0.4387(5)
C26 C 0.1473(13) 0.8989(13) 0.2081(6)
N35 N 0.1786(11) 0.9876(11) 0.1879(5)
C27 C 0.8420(13) 0.4563(13) 0.5568(6)
C28 C 0.8259(13) 0.2206(13) 0.2126(6)
N36 N 0.9077(11) 0.2574(11) 0.1913(5)
C29 C 0.1698(12) 0.7566(13) 0.2707(5)
H20 H 0.1086 0.7225 0.2568
N37 N 0.7192(10) 0.3565(10) 0.3357(5)
C30 C 0.2070(13) 0.8498(13) 0.2497(6)
C31 C 0.3061(13) 0.8890(13) 0.2689(5)
H21 H 0.3375 0.9457 0.2549
N38 N 0.7697(11) 0.5188(11) 0.5337(5)
C33 C 0.9600(13) 0.4710(13) 0.5626(6)
H24 H 0.6539 0.0174 0.4181
C36 C 0.5084(12) 0.0557(13) 0.4378(6)
C37 C 0.2239(12) 0.7171(13) 0.3113(5)
H25 H 0.1939 0.6615 0.3266
C39 C 0.4125(13) 0.0075(13) 0.4460(6)
H27 H 0.3586 0.0467 0.4574
C40 C 0.7861(13) 0.2674(13) 0.2533(6)
C41 C 0.5298(13) 0.1683(13) 0.4439(6)
C42 C 0.8350(13) 0.3578(13) 0.2750(6)
H28 H 0.8917 0.3897 0.2624
C44 C 0.7039(13) 0.2225(13) 0.2754(6)
H30 H 0.6709 0.1605 0.2634
C45 C 0.3562(13) 0.8422(12) 0.3090(5)
H31 H 0.4198 0.8723 0.3226
C46 C 0.8005(13) 0.3991(13) 0.3145(6)
H32 H 0.8341 0.4596 0.3276
C48 C 0.6711(13) 0.2696(13) 0.3151(6)
H34 H 0.6137 0.2402 0.3281
H35 H 0.9611 0.6294 0.5452
N42 N 0.4758(11) 0.4340(11) 0.3464(5)
N44 N 0.4000(11) 0.5089(11) 0.3452(5)
N47 N 0.4752(11) 0.8404(11) 0.4210(5)
N49 N 0.5800(11) 0.6875(11) 0.3414(5)
N52 N 0.6518(11) 0.6121(11) 0.3420(5)
C34 C 0.3997(13) 0.9003(13) 0.4367(6)
H23 H 0.3355 0.8684 0.4416
C35 C 0.5879(13) 0.9892(13) 0.4229(6)
C38 C 0.5680(13) 0.8833(13) 0.4155(6)
H26 H 0.6218 0.8403 0.4064
Cd17 Cd 0.85594(8) 0.95988(9) 0.10874(4)
N24_2 N 0.4455(11) 0.3632(11) 0.3120(5)
N25_2 N 0.1794(10) 0.2568(10) 0.1700(5)
C26_2 C 0.3527(13) 0.3989(13) 0.2919(6)
N35_2 N 0.3214(11) 0.4876(11) 0.3121(5)
C29_2 C 0.3302(12) 0.2566(13) 0.2293(5)
H20_2 H 0.3914 0.2225 0.2432
C30_2 C 0.2930(13) 0.3498(13) 0.2503(6)
C31_2 C 0.1939(13) 0.3890(13) 0.2311(5)
H21_2 H 0.1625 0.4457 0.2451
C37_2 C 0.2761(12) 0.2171(13) 0.1887(5)
H25_2 H 0.3061 0.1615 0.1734
C45_2 C 0.1438(13) 0.3422(12) 0.1910(5)
H31_2 H 0.0802 0.3723 0.1774
Cd18 Cd 0.0000 0.0000 0.0000
N47_2 N 0.0248(11) 0.3404(11) 0.0790(5)
N53 N 0.1953(11) 0.1153(11) 0.0637(5)
Cd18_2 Cd 0.0000 0.0000 1.0000
N22_2 N 0.0274(10) 0.7342(11) 0.0331(5)
C34_2 C 0.1003(13) 0.4003(13) 0.0633(6)
H23_2 H 0.1645 0.3684 0.0584
C39_2 C 0.0875(13) 0.5075(13) 0.0540(6)
H27_2 H 0.1414 0.5467 0.0426
Cd18_3 Cd -0.0000 1.0000 0.0000
Cd18_4 Cd 0.0000 1.0000 1.0000
N6_2 N 0.1771(11) 0.0288(11) 0.0391(5)
N12_2 N 0.2986(11) 0.1292(11) 0.0764(5)
C2_2 C 0.3420(13) 0.0437(13) 0.0568(6)
C7_2 C 0.5301(13) 0.1082(13) 0.0775(6)
H3_2 H 0.5038 0.1751 0.0838
C8_2 C 0.4600(13) 0.0290(13) 0.0626(6)
C22_2 C 0.6368(13) 0.0915(13) 0.0832(6)
H14_2 H 0.6824 0.1483 0.0916
O3 O 0.9420(8) 0.0719(9) 0.0636(4)
Cd18_5 Cd 1.0000 0.0000 0.0000
N9_2 N 0.2870(11) 0.3703(11) 0.6924(5)
N10_2 N 0.1098(11) 0.2835(11) 0.9258(5)
N11_2 N 0.0180(11) 0.1687(11) 0.9638(5)
N14_2 N 0.0980(10) 0.1805(10) 0.9387(5)
C3_2 C 0.3259(13) 0.2794(13) 0.7126(6)
N16_2 N 0.4077(11) 0.2426(11) 0.6913(5)
N17_2 N 0.2192(10) 0.1435(10) 0.8357(5)
C10_2 C 0.0879(13) 0.5108(13) 0.9229(6)
H5_2 H 0.1539 0.4826 0.9181
C11_2 C 0.0084(12) 0.4443(13) 0.9378(6)
C13_2 C 0.0680(13) 0.6167(13) 0.9155(6)
H7_2 H 0.1218 0.6597 0.9064
C15_2 C 0.2861(13) 0.2326(13) 0.7533(6)
C16_2 C 0.0298(13) 0.3317(13) 0.9439(6)
C17_2 C 0.3350(13) 0.1422(13) 0.7750(6)
H9_2 H 0.3917 0.1103 0.7624
C19_2 C 0.2039(13) 0.2775(13) 0.7754(6)
H11_2 H 0.1709 0.3395 0.7634
C21_2 C 0.3005(13) 0.1009(13) 0.8145(6)
H13_2 H 0.3341 0.0404 0.8276
C23_2 C 0.1711(13) 0.2304(13) 0.8151(6)
H15_2 H 0.1137 0.2598 0.8281
N38_2 N 0.7303(11) 0.0188(11) 0.9663(5)
N40_2 N 0.3206(11) 0.0069(11) 0.9229(5)
C43_2 C 0.3874(13) 0.0849(13) 0.9383(6)
H29_2 H 0.3591 0.1509 0.9445
C49_2 C 0.4949(13) 0.0722(13) 0.9451(6)
H35_2 H 0.5389 0.1294 0.9548
Cd18_6 Cd 1.0000 0.0000 1.0000
N18_2 N 0.2697(11) 0.9812(11) 0.0337(5)
N20_2 N 0.6794(11) 0.9931(11) 0.0771(5)
C18_2 C 0.6126(13) 0.9151(13) 0.0617(6)
H10_2 H 0.6409 0.8491 0.0555
C24_2 C 0.5051(13) 0.9278(13) 0.0549(6)
H16_2 H 0.4611 0.8706 0.0452
H18_2 H 0.2759 0.7884 0.0049
O2_2 O 0.1342(9) 0.8645(9) 0.0017(4)
N29_2 N 0.7130(11) 0.6297(11) 0.3076(5)
N30_2 N 0.8902(11) 0.7165(11) 0.0742(5)
N31 N 0.9820(11) 0.8313(11) 0.0362(5)
N34_2 N 0.9020(10) 0.8195(10) 0.0613(5)
C28_2 C 0.6741(13) 0.7206(13) 0.2874(6)
N36_2 N 0.5923(11) 0.7574(11) 0.3087(5)
N37_2 N 0.7808(10) 0.8565(10) 0.1643(5)
C35_2 C 0.9121(13) 0.4892(13) 0.0771(6)
H24_2 H 0.8461 0.5174 0.0819
C36_2 C 0.9916(12) 0.5557(13) 0.0622(6)
C38_2 C 0.9320(13) 0.3833(13) 0.0845(6)
H26_2 H 0.8782 0.3403 0.0936
C40_2 C 0.7139(13) 0.7674(13) 0.2467(6)
C41_2 C 0.9702(13) 0.6683(13) 0.0561(6)
C42_2 C 0.6650(13) 0.8578(13) 0.2250(6)
H28_2 H 0.6083 0.8897 0.2376
C44_2 C 0.7961(13) 0.7225(13) 0.2246(6)
H30_2 H 0.8291 0.6605 0.2366
C46_2 C 0.6995(13) 0.8991(13) 0.1855(6)
H32_2 H 0.6659 0.9596 0.1724
C48_2 C 0.8289(13) 0.7696(13) 0.1849(6)
H34_2 H 0.8863 0.7402 0.1719
Cd18_7 Cd 1.0000 1.0000 0.0000
O1_2 O 0.0580(8) 0.9281(9) 0.9364(4)
C25_2 C 0.2094(12) 0.7864(12) 0.9847(5)
H17_2 H 0.1794 0.7164 0.9853
H19_2 H 0.2215 0.8039 0.9531
N26 N 0.8229(11) 0.9712(11) 0.9609(5)
N32_2 N 0.7014(11) 0.8708(11) 0.9236(5)
C27_2 C 0.6580(13) 0.9563(13) 0.9432(6)
C32_2 C 0.4699(13) 0.8918(13) 0.9225(6)
H22_2 H 0.4962 0.8249 0.9162
N39 N 0.8047(11) 0.8847(11) 0.9363(5)
C33_2 C 0.5400(13) 0.9710(13) 0.9374(6)
C47_2 C 0.3632(13) 0.9085(13) 0.9168(6)
H33_2 H 0.3176 0.8517 0.9084
Cd18_8 Cd 1.0000 1.0000 1.0000
C50_2 C 0.7906(12) 0.2136(12) 0.0153(5)
H36_2 H 0.8206 0.2836 0.0147
H38_2 H 0.7785 0.1961 0.0469
N2_2 N 0.9726(10) 0.2658(11) 0.9669(5)
N7_2 N 0.9752(11) 0.6596(11) 0.9210(5)
C9_2 C 0.8997(13) 0.5997(13) 0.9367(6)
H4_2 H 0.8355 0.6316 0.9416
C14_2 C 0.9125(13) 0.4925(13) 0.9460(6)
H8_2 H 0.8586 0.4533 0.9574
H37_2 H 0.7241 0.2116 0.9951
O4_2 O 0.8658(9) 0.1355(9) 0.9983(4)
N4_2 N 0.5545(11) 0.6368(11) 0.6880(5)
N5_2 N 0.8206(10) 0.7432(10) 0.8300(5)
C1_2 C 0.6473(13) 0.6011(13) 0.7081(6)
N15_2 N 0.6786(11) 0.5124(11) 0.6879(5)
C4_2 C 0.6698(12) 0.7434(13) 0.7707(5)
H1_2 H 0.6086 0.7775 0.7568
C5_2 C 0.7070(13) 0.6502(13) 0.7497(6)
C6_2 C 0.8061(13) 0.6110(13) 0.7689(5)
H2_2 H 0.8375 0.5543 0.7549
C12_2 C 0.7239(12) 0.7829(13) 0.8113(5)
H6_2 H 0.6939 0.8385 0.8266
C20_2 C 0.8562(13) 0.6578(12) 0.8090(5)
H12_2 H 0.9198 0.6277 0.8226
loop_
_geom_bond_atom_site_label_1
_geom_bond_atom_site_label_2
_geom_bond_site_symmetry_1
_geom_bond_site_symmetry_2
N7 C9 1_555 1_555
C9 H4 1_555 1_555
C13 N7 1_555 1_555
H7 C13 1_555 1_555
Cd7 N7 1_555 1_555
C10 C13 1_555 1_555
Cd7 O1 1_555 1_555
Cd2 O1 1_555 1_555
Cd3 O1 1_555 1_555
N2 N11 1_555 1_555
N4 N1 1_555 1_555
N5 Cd7 1_555 1_555
N6 Cd3 1_555 1_555
N8 N13 1_555 1_555
N9 N13 1_555 1_555
N10 N14 1_555 1_555
N11 Cd3 1_555 1_555
N12 C2 1_555 1_555
N14 Cd2 1_555 1_555
C1 N4 1_555 1_555
N15 C1 1_555 1_555
C2 N18 1_555 1_555
C3 N9 1_555 1_555
N16 N8 1_555 1_555
C4 H1 1_555 1_555
N17 Cd2 1_555 1_555
C5 C1 1_555 1_555
C6 C5 1_555 1_555
H2 C6 1_555 1_555
N18 N6 1_555 1_555
N19 N6 1_555 1_555
C8 C2 1_555 1_555
C12 N5 1_555 1_555
H6 C12 1_555 1_555
H8 C14 1_555 1_555
C15 C3 1_555 1_555
C16 N2 1_555 1_555
C17 C15 1_555 1_555
H9 C17 1_555 1_555
C19 C15 1_555 1_555
H11 C19 1_555 1_555
C20 N5 1_555 1_555
H12 C20 1_555 1_555
C21 N17 1_555 1_555
H13 C21 1_555 1_555
C23 N17 1_555 1_555
H15 C23 1_555 1_555
C25 H17 1_555 1_555
H18 C25 1_555 1_555
H19 C25 1_555 1_555
O2 Cd3 1_555 1_555
C32 H22 1_555 1_555
N40 Cd2 1_555 1_555
C43 N40 1_555 1_555
H29 C43 1_555 1_555
C47 C32 1_555 1_555
H33 C47 1_555 1_555
C50 H36 1_555 1_555
H37 C50 1_555 1_555
H38 C50 1_555 1_555
O4 Cd3 1_555 1_555
Cd11 N19 1_555 1_555
O5 Cd3 1_555 1_555
N41 Cd2 1_555 1_555
N43 Cd7 1_555 1_555
N45 Cd3 1_555 1_555
N48 Cd7 1_555 1_555
N50 Cd3 1_555 1_555
N51 Cd2 1_555 1_555
N54 Cd7 1_555 1_555
N10 C16 1_555 1_555
N11 N14 1_555 1_555
N12 N19 1_555 1_555
C3 N16 1_555 1_555
C4 C5 1_555 1_555
C4 C12 1_555 1_555
C6 C20 1_555 1_555
C11 C14 1_555 1_555
C11 C16 1_555 1_555
C17 C21 1_555 1_555
C19 C23 1_555 1_555
C25 O2 1_555 1_555
N40 C47 1_555 1_555
C43 C49 1_555 1_555
C50 O4 1_555 1_555
Cd11 O5 1_555 1_555
N41 N43 1_555 1_555
N45 N54 1_555 1_555
N48 N51 1_555 1_555
Cd9 N3 1_555 1_555
Cd13 N23 1_555 1_555
C7 H3 1_555 1_555
N20 C18 1_555 1_555
C18 H10 1_555 1_555
C22 C7 1_555 1_555
H14 C22 1_555 1_555
Cd5 N20 1_555 1_555
O5 Cd5 1_555 1_555
N22 N50 1_555 1_555
N24 N21 1_555 1_555
N25 Cd11 1_555 1_555
N45 N38 1_555 1_555
N28 N33 1_555 1_555
N29 N33 1_555 1_555
N30 N34 1_555 1_555
N50 N34 1_555 1_555
N32 C27 1_555 1_555
N34 Cd5 1_555 1_555
C26 N24 1_555 1_555
N35 C26 1_555 1_555
C27 N38 1_555 1_555
C28 N29 1_555 1_555
N36 N28 1_555 1_555
C29 H20 1_555 1_555
N37 Cd5 1_555 1_555
C30 C26 1_555 1_555
C31 C30 1_555 1_555
H21 C31 1_555 1_555
C33 C27 1_555 1_555
C37 N25 1_555 1_555
H25 C37 1_555 1_555
H27 C39 1_555 1_555
C40 C28 1_555 1_555
C41 N22 1_555 1_555
C42 C40 1_555 1_555
H28 C42 1_555 1_555
C44 C40 1_555 1_555
H30 C44 1_555 1_555
C45 N25 1_555 1_555
H31 C45 1_555 1_555
C46 N37 1_555 1_555
H32 C46 1_555 1_555
C48 N37 1_555 1_555
H34 C48 1_555 1_555
N42 Cd5 1_555 1_555
N44 Cd11 1_555 1_555
N47 Cd11 1_555 1_555
N49 Cd11 1_555 1_555
N52 Cd5 1_555 1_555
N20 C22 1_555 1_555
C18 C24 1_555 1_555
N30 C41 1_555 1_555
N32 N54 1_555 1_555
C28 N36 1_555 1_555
C29 C30 1_555 1_555
C29 C37 1_555 1_555
C31 C45 1_555 1_555
C36 C39 1_555 1_555
C36 C41 1_555 1_555
C42 C46 1_555 1_555
C44 C48 1_555 1_555
N42 N44 1_555 1_555
N49 N52 1_555 1_555
N47 C34 1_555 1_555
C34 H23 1_555 1_555
C38 N47 1_555 1_555
H26 C38 1_555 1_555
C35 C38 1_555 1_555
N44 N35_2 1_555 1_555
N24_2 N42 1_555 1_555
N25_2 Cd13 1_555 1_555
C26_2 N24_2 1_555 1_555
N35_2 C26_2 1_555 1_555
C29_2 H20_2 1_555 1_555
C30_2 C26_2 1_555 1_555
C31_2 C30_2 1_555 1_555
H21_2 C31_2 1_555 1_555
C37_2 N25_2 1_555 1_555
H25_2 C37_2 1_555 1_555
C45_2 N25_2 1_555 1_555
H31_2 C45_2 1_555 1_555
N47_2 Cd13 1_555 1_555
N53 Cd13 1_555 1_555
C29_2 C30_2 1_555 1_555
C29_2 C37_2 1_555 1_555
C31_2 C45_2 1_555 1_555
N47_2 C34_2 1_555 1_555
C34_2 H23_2 1_555 1_555
C39_2 C34_2 1_555 1_555
H27_2 C39_2 1_555 1_555
N6_2 Cd18 1_555 1_555
N12_2 C2_2 1_555 1_555
C7_2 H3_2 1_555 1_555
N53 N6_2 1_555 1_555
C8_2 C2_2 1_555 1_555
C22_2 C7_2 1_555 1_555
H14_2 C22_2 1_555 1_555
Cd18_5 O3 1_555 1_555
N12_2 N53 1_555 1_555
C7_2 C8_2 1_555 1_555
N9_2 N51 1_555 1_555
N10_2 N14_2 1_555 1_555
N11_2 Cd18_2 1_555 1_555
N14_2 Cd15 1_555 1_555
C3_2 N9_2 1_555 1_555
N16_2 N48 1_555 1_555
N17_2 Cd15 1_555 1_555
C10_2 H5_2 1_555 1_555
C11_2 C10_2 1_555 1_555
H7_2 C13_2 1_555 1_555
C15_2 C3_2 1_555 1_555
C17_2 C15_2 1_555 1_555
H9_2 C17_2 1_555 1_555
C19_2 C15_2 1_555 1_555
H11_2 C19_2 1_555 1_555
C21_2 N17_2 1_555 1_555
H13_2 C21_2 1_555 1_555
C23_2 N17_2 1_555 1_555
H15_2 C23_2 1_555 1_555
N40_2 Cd15 1_555 1_555
C43_2 N40_2 1_555 1_555
H29_2 C43_2 1_555 1_555
H35_2 C49_2 1_555 1_555
N10_2 C16_2 1_555 1_555
N11_2 N14_2 1_555 1_555
C3_2 N16_2 1_555 1_555
C10_2 C13_2 1_555 1_555
C11_2 C16_2 1_555 1_555
C17_2 C21_2 1_555 1_555
C19_2 C23_2 1_555 1_555
C43_2 C49_2 1_555 1_555
N20_2 C18_2 1_555 1_555
C18_2 H10_2 1_555 1_555
H16_2 C24_2 1_555 1_555
O2_2 Cd18_3 1_555 1_555
Cd17 N20_2 1_555 1_555
N29_2 N52 1_555 1_555
N30_2 N34_2 1_555 1_555
N31 N34_2 1_555 1_555
N34_2 Cd17 1_555 1_555
C28_2 N29_2 1_555 1_555
N36_2 N49 1_555 1_555
N37_2 Cd17 1_555 1_555
C35_2 H24_2 1_555 1_555
C36_2 C35_2 1_555 1_555
H26_2 C38_2 1_555 1_555
C40_2 C28_2 1_555 1_555
C42_2 C40_2 1_555 1_555
H28_2 C42_2 1_555 1_555
C44_2 C40_2 1_555 1_555
H30_2 C44_2 1_555 1_555
C46_2 N37_2 1_555 1_555
H32_2 C46_2 1_555 1_555
C48_2 N37_2 1_555 1_555
H34_2 C48_2 1_555 1_555
C18_2 C24_2 1_555 1_555
N30_2 C41_2 1_555 1_555
N31 Cd18_7 1_555 1_555
C28_2 N36_2 1_555 1_555
C35_2 C38_2 1_555 1_555
C36_2 C41_2 1_555 1_555
C42_2 C46_2 1_555 1_555
C44_2 C48_2 1_555 1_555
Cd18_4 O1_2 1_555 1_555
C25_2 H17_2 1_555 1_555
H19_2 C25_2 1_555 1_555
N32_2 C27_2 1_555 1_555
C32_2 H22_2 1_555 1_555
N39 N26 1_555 1_555
C33_2 C27_2 1_555 1_555
C47_2 C32_2 1_555 1_555
H33_2 C47_2 1_555 1_555
Cd9 N39 1_555 1_555
N26 Cd18_8 1_555 1_555
N32_2 N39 1_555 1_555
C32_2 C33_2 1_555 1_555
C50_2 H36_2 1_555 1_555
H38_2 C50_2 1_555 1_555
N7_2 C9_2 1_555 1_555
C9_2 H4_2 1_555 1_555
C14_2 C9_2 1_555 1_555
H8_2 C14_2 1_555 1_555
O4_2 Cd18_6 1_555 1_555
Cd9 N7_2 1_555 1_555
N43 N15_2 1_555 1_555
N4_2 N41 1_555 1_555
N5_2 Cd9 1_555 1_555
C1_2 N4_2 1_555 1_555
N15_2 C1_2 1_555 1_555
C4_2 H1_2 1_555 1_555
C5_2 C1_2 1_555 1_555
C6_2 C5_2 1_555 1_555
H2_2 C6_2 1_555 1_555
C12_2 N5_2 1_555 1_555
H6_2 C12_2 1_555 1_555
C20_2 N5_2 1_555 1_555
H12_2 C20_2 1_555 1_555
C4_2 C5_2 1_555 1_555
C4_2 C12_2 1_555 1_555
C6_2 C20_2 1_555 1_555

#END
