
###############################################################################
#
# This file contains modified crystal structure data generated from the
# MOF subset of the Cambridge Structural Database (CSD) v543 
# hosted by the Cambridge Crystallographic Data Centre (CCDC).
#
# This work is licensed under the Creative Commons
# Attribution-NonCommercial-ShareAlike 4.0 International License.
# To view a copy of this license, visit
# http://creativecommons.org/licenses/by-nc-sa/4.0/
# or send a letter to
# Creative Commons, PO Box 1866, Mountain View, CA 94042, USA.
#
# CIF created using the CSD Python API on 29 September 2022
# The structure has been converted into the P1 space group
# The structure has a 3D framework
# The original CSD entry FUWFIO is in the orthorhombic crystal system
# The framework has been calculated to contain at least 10.0% void space
# The void calculation uses a probe of radius 1.32A, grid spacing 0.4
# H atom positions have been added when not included in the experimental data
# Generated hydrogen atom positions removed from atoms on special positions
#
###############################################################################

data_FUWFIO
_chemical_formula_moiety         '(C120 H112 Cd10 N100 O10)n'
_symmetry_cell_setting           triclinic
_symmetry_space_group_name_H-M   'P 1'
_symmetry_Int_Tables_number      1
_space_group_name_Hall           'P 1'
loop_
_symmetry_equiv_pos_site_id
_symmetry_equiv_pos_as_xyz
1 x,y,z
_cell_length_a                   14.044(3)
_cell_length_b                   20.297(4)
_cell_length_c                   23.635(5)
_cell_angle_alpha                90
_cell_angle_beta                 90
_cell_angle_gamma                90
_cell_volume                     6737.18
loop_
_atom_site_label
_atom_site_type_symbol
_atom_site_fract_x
_atom_site_fract_y
_atom_site_fract_z
N16 N 0.0204(5) 0.2960(4) 0.0832(3)
C20 C 0.0590(8) 0.2794(7) 0.0333(5)
H14 H 0.1207 0.2628 0.0328
Cd5 Cd 0.10001(5) 0.26930(4) 0.16864(3)
C29 C 0.0121(7) 0.2857(6) 0.9835(4)
H19 H 0.0436 0.2766 0.9498
N11 N 0.0392(6) 0.7525(4) 0.7793(3)
N12 N 0.1275(6) 0.7494(5) 0.7973(4)
N13 N 0.4861(7) 0.7500 0.7500
C13 C 0.1804(9) 0.7500 0.7500
C14 C 0.2839(10) 0.7500 0.7500
C15 C 0.4370(8) 0.7644(5) 0.7969(5)
H9 H 0.4701 0.7747 0.8298
C16 C 0.3406(10) 0.7644(7) 0.7980(6)
H10 H 0.3101 0.7743 0.8319
N14 N 0.0392(6) 0.7475(4) 0.7207(3)
N15 N 0.1275(6) 0.7506(5) 0.7027(4)
C17 C 0.4370(8) 0.7356(5) 0.7031(5)
H11 H 0.4701 0.7253 0.6702
C18 C 0.3406(10) 0.7356(7) 0.7020(6)
H12 H 0.3101 0.7257 0.6681
Cd7 Cd 0.65567(7) 0.7500 0.7500
N6 N 0.8553(6) 0.1433(4) 0.7886(3)
C4 C 0.8742(7) 0.0129(5) 0.8287(4)
C5 C 0.8654(8) 0.0653(5) 0.8658(4)
H3 H 0.8655 0.0581 0.9046
C6 C 0.8712(10) 0.0285(6) 0.7700(5)
C7 C 0.8564(9) 0.1295(6) 0.8443(4)
H5 H 0.8509 0.1642 0.8698
C8 C 0.8654(10) 0.0916(6) 0.7547(4)
H6 H 0.8688 0.1004 0.7162
Cd3 Cd 0.60001(5) 0.26930(4) 0.83136(3)
N17 N 0.6130(6) 0.1573(4) 0.8565(3)
N18 N 0.6186(8) 0.1361(5) 0.9071(4)
N19 N 0.6251(7) 0.0713(5) 0.9041(4)
N20 N 0.6154(5) 0.1090(4) 0.8181(3)
N22 N 0.7496(6) 0.2977(4) 0.8719(3)
N23 N 0.8325(6) 0.2928(4) 0.8432(3)
N24 N 0.9062(5) 0.2961(4) 0.8782(3)
N25 N 0.7706(5) 0.3062(5) 0.9263(3)
O3 O 0.5792(6) 0.3791(4) 0.8012(3)
C21 C 0.6189(7) 0.0552(5) 0.8499(4)
H16 H 0.6268 0.0046 0.7428
C27 C 0.8660(6) 0.3036(5) 0.9305(3)
C28 C 0.9193(5) 0.3053(4) 0.9821(3)
N26 N 0.5204(5) 0.2960(4) 0.9168(3)
Cd8 Cd 0.84433(7) 0.2500 0.7500
O4 O 0.6845(8) 0.2500 0.7500
N30 N 0.4608(6) 0.2475(4) 0.7793(3)
N1 N 0.4796(5) 0.7040(4) 0.0832(3)
C1 C 0.5646(8) 0.6832(6) 0.0805(5)
H1 H 0.5923 0.6708 0.1147
C2 C 0.4410(8) 0.7206(7) 0.0333(5)
H2 H 0.3793 0.7372 0.0328
C12 C 0.6221(8) 0.6766(6) 0.0319(4)
H8 H 0.6842 0.6609 0.0337
Cd6 Cd 0.39999(5) 0.73070(4) 0.16864(3)
Cd1 Cd 0.89999(5) 0.73070(4) 0.83136(3)
O1 O 0.8155(8) 0.7500 0.7500
N2 N 0.8870(6) 0.8427(4) 0.8565(3)
N3 N 0.8814(8) 0.8639(5) 0.9071(4)
N4 N 0.8749(7) 0.9287(5) 0.9041(4)
N5 N 0.8846(5) 0.8910(4) 0.8181(3)
N7 N 0.7504(6) 0.7023(4) 0.8719(3)
N8 N 0.6675(6) 0.7072(4) 0.8432(3)
N9 N 0.5938(5) 0.7039(4) 0.8782(3)
N10 N 0.7294(5) 0.6938(5) 0.9263(3)
O2 O 0.9208(6) 0.6209(4) 0.8012(3)
C3 C 0.8811(7) 0.9448(5) 0.8499(4)
H4 H 0.8732 0.9954 0.7428
C9 C 0.6340(6) 0.6964(5) 0.9305(3)
C10 C 0.5807(5) 0.6947(4) 0.9821(3)
C11 C 0.4879(7) 0.7143(6) 0.9835(4)
H7 H 0.4564 0.7234 0.9498
N21 N 0.6447(6) 0.8567(4) 0.7886(3)
C22 C 0.6258(7) 0.9871(5) 0.8287(4)
C23 C 0.6346(8) 0.9347(5) 0.8658(4)
H15 H 0.6345 0.9419 0.9046
C24 C 0.6288(10) 0.9715(6) 0.7700(5)
C25 C 0.6436(9) 0.8705(6) 0.8443(4)
H17 H 0.6491 0.8358 0.8698
C26 C 0.6346(10) 0.9084(6) 0.7547(4)
H18 H 0.6312 0.8996 0.7162
N27 N 0.9796(5) 0.7040(4) 0.9168(3)
Cd4 Cd 0.89999(5) 0.76930(4) 0.66864(3)
N28 N 0.6447(6) 0.6433(4) 0.7114(3)
N29 N 0.6675(6) 0.7928(4) 0.6568(3)
N31 N 0.0139(7) 0.2500 0.7500
N12_2 N 0.3725(6) 0.2506(5) 0.7973(4)
C13_2 C 0.3196(9) 0.2500 0.7500
C14_2 C 0.2161(10) 0.2500 0.7500
C15_2 C 0.0630(8) 0.2356(5) 0.7969(5)
H9_2 H 0.0299 0.2253 0.8298
C16_2 C 0.1594(10) 0.2356(7) 0.7980(6)
H10_2 H 0.1899 0.2257 0.8319
N14_2 N 0.4608(6) 0.2525(4) 0.7207(3)
N15_2 N 0.3725(6) 0.2494(5) 0.7027(4)
C17_2 C 0.0630(8) 0.2644(5) 0.7031(5)
H11_2 H 0.0299 0.2747 0.6702
C18_2 C 0.1594(10) 0.2644(7) 0.7020(6)
H12_2 H 0.1899 0.2743 0.6681
Cd4_2 Cd 0.60001(5) 0.23070(4) 0.66864(3)
N28_2 N 0.8553(6) 0.3567(4) 0.7114(3)
N29_2 N 0.8325(6) 0.2072(4) 0.6568(3)
N16_2 N 0.0204(5) 0.2040(4) 0.4168(3)
C20_2 C 0.0590(8) 0.2206(7) 0.4667(5)
H14_2 H 0.1207 0.2372 0.4672
C29_2 C 0.0121(7) 0.2143(6) 0.5165(4)
H19_2 H 0.0436 0.2234 0.5502
Cd5_2 Cd 0.10001(5) 0.23070(4) 0.33136(3)
N1_2 N 0.4796(5) 0.7960(4) 0.4168(3)
C1_2 C 0.5646(8) 0.8168(6) 0.4195(5)
H1_2 H 0.5923 0.8292 0.3853
C2_2 C 0.4410(8) 0.7794(7) 0.4667(5)
H2_2 H 0.3793 0.7628 0.4672
N2_2 N 0.8870(6) 0.6573(4) 0.6435(3)
N3_2 N 0.8814(8) 0.6361(5) 0.5929(4)
N4_2 N 0.8749(7) 0.5713(5) 0.5959(4)
N5_2 N 0.8846(5) 0.6090(4) 0.6819(3)
N7_2 N 0.7504(6) 0.7977(4) 0.6281(3)
N9_2 N 0.5938(5) 0.7961(4) 0.6218(3)
N10_2 N 0.7294(5) 0.8062(5) 0.5737(3)
O2_2 O 0.9208(6) 0.8791(4) 0.6988(3)
C3_2 C 0.8811(7) 0.5552(5) 0.6501(4)
C4_2 C 0.8742(7) 0.4871(5) 0.6713(4)
C5_2 C 0.8654(8) 0.4347(5) 0.6342(4)
H3_2 H 0.8655 0.4419 0.5954
C6_2 C 0.8712(10) 0.4715(6) 0.7300(5)
H4_2 H 0.8732 0.5046 0.7572
C7_2 C 0.8564(9) 0.3705(6) 0.6557(4)
H5_2 H 0.8509 0.3358 0.6302
C8_2 C 0.8654(10) 0.4084(6) 0.7453(4)
H6_2 H 0.8688 0.3996 0.7838
C9_2 C 0.6340(6) 0.8036(5) 0.5695(3)
C10_2 C 0.5807(5) 0.8053(4) 0.5179(3)
C11_2 C 0.4879(7) 0.7857(6) 0.5165(4)
H7_2 H 0.4564 0.7766 0.5502
C12_2 C 0.6221(8) 0.8234(6) 0.4681(4)
H8_2 H 0.6842 0.8391 0.4663
C19 C 0.9354(8) 0.1832(6) 0.4195(5)
H13 H 0.9077 0.1708 0.3853
N17_2 N 0.6130(6) 0.3427(4) 0.6435(3)
N18_2 N 0.6186(8) 0.3639(5) 0.5929(4)
N19_2 N 0.6251(7) 0.4287(5) 0.5959(4)
N20_2 N 0.6154(5) 0.3910(4) 0.6819(3)
N22_2 N 0.7496(6) 0.2023(4) 0.6281(3)
N24_2 N 0.9062(5) 0.2039(4) 0.6218(3)
N25_2 N 0.7706(5) 0.1938(5) 0.5737(3)
O3_2 O 0.5792(6) 0.1209(4) 0.6988(3)
C21_2 C 0.6189(7) 0.4448(5) 0.6501(4)
C22_2 C 0.6258(7) 0.5129(5) 0.6713(4)
C23_2 C 0.6346(8) 0.5653(5) 0.6342(4)
H15_2 H 0.6345 0.5581 0.5954
C24_2 C 0.6288(10) 0.5285(6) 0.7300(5)
H16_2 H 0.6268 0.4954 0.7572
C25_2 C 0.6436(9) 0.6295(6) 0.6557(4)
H17_2 H 0.6491 0.6642 0.6302
C26_2 C 0.6346(10) 0.5916(6) 0.7453(4)
H18_2 H 0.6312 0.6004 0.7838
C27_2 C 0.8660(6) 0.1964(5) 0.5695(3)
C28_2 C 0.9193(5) 0.1947(4) 0.5179(3)
C30 C 0.8779(8) 0.1766(6) 0.4681(4)
H20 H 0.8158 0.1609 0.4663
N26_2 N 0.5204(5) 0.2040(4) 0.5832(3)
N27_2 N 0.9796(5) 0.7960(4) 0.5832(3)
Cd6_2 Cd 0.39999(5) 0.76930(4) 0.33136(3)
Cd2 Cd 0.34433(7) 0.2500 0.2500
O1_2 O 0.1845(8) 0.2500 0.2500
N2_3 N 0.1130(6) 0.1573(4) 0.1435(3)
N3_3 N 0.1186(8) 0.1361(5) 0.0929(4)
N4_3 N 0.1251(7) 0.0713(5) 0.0959(4)
N5_3 N 0.1154(5) 0.1090(4) 0.1819(3)
N7_3 N 0.2496(6) 0.2977(4) 0.1281(3)
N8_2 N 0.3325(6) 0.2928(4) 0.1568(3)
N9_3 N 0.4062(5) 0.2961(4) 0.1218(3)
N10_3 N 0.2706(5) 0.3062(5) 0.0737(3)
O2_3 O 0.0792(6) 0.3791(4) 0.1988(3)
C3_3 C 0.1189(7) 0.0552(5) 0.1501(4)
H4_3 H 0.1268 0.0046 0.2572
C9_3 C 0.3660(6) 0.3036(5) 0.0695(3)
C10_3 C 0.4193(5) 0.3053(4) 0.0179(3)
C11_3 C 0.5121(7) 0.2857(6) 0.0165(4)
H7_3 H 0.5436 0.2766 0.0502
N21_2 N 0.3553(6) 0.1433(4) 0.2114(3)
C22_3 C 0.3742(7) 0.0129(5) 0.1713(4)
C23_3 C 0.3654(8) 0.0653(5) 0.1342(4)
H15_3 H 0.3655 0.0581 0.0954
C24_3 C 0.3712(10) 0.0285(6) 0.2300(5)
C25_3 C 0.3564(9) 0.1295(6) 0.1557(4)
H17_3 H 0.3509 0.1642 0.1302
C26_3 C 0.3654(10) 0.0916(6) 0.2453(4)
H18_3 H 0.3688 0.1004 0.2838
N28_3 N 0.3553(6) 0.3567(4) 0.2886(3)
N29_3 N 0.3325(6) 0.2072(4) 0.3432(3)
N31_2 N 0.5139(7) 0.2500 0.2500
C1_3 C 0.4354(8) 0.3168(6) 0.9195(5)
H1_3 H 0.4077 0.3292 0.8853
C2_3 C 0.5590(8) 0.2794(7) 0.9667(5)
H2_3 H 0.6207 0.2628 0.9672
C12_3 C 0.3779(8) 0.3234(6) 0.9681(4)
H8_3 H 0.3158 0.3391 0.9663
N6_2 N 0.1447(6) 0.8567(4) 0.2114(3)
C4_3 C 0.1258(7) 0.9871(5) 0.1713(4)
C5_3 C 0.1346(8) 0.9347(5) 0.1342(4)
H3_3 H 0.1345 0.9419 0.0954
C6_3 C 0.1288(10) 0.9715(6) 0.2300(5)
C7_3 C 0.1436(9) 0.8705(6) 0.1557(4)
H5_3 H 0.1491 0.8358 0.1302
C8_3 C 0.1346(10) 0.9084(6) 0.2453(4)
H6_3 H 0.1312 0.8996 0.2838
N17_3 N 0.3870(6) 0.8427(4) 0.1435(3)
N18_3 N 0.3814(8) 0.8639(5) 0.0929(4)
N19_3 N 0.3749(7) 0.9287(5) 0.0959(4)
N20_3 N 0.3846(5) 0.8910(4) 0.1819(3)
N22_3 N 0.2504(6) 0.7023(4) 0.1281(3)
N23_2 N 0.1675(6) 0.7072(4) 0.1568(3)
N24_3 N 0.0938(5) 0.7039(4) 0.1218(3)
N25_3 N 0.2294(5) 0.6938(5) 0.0737(3)
O3_3 O 0.4208(6) 0.6209(4) 0.1988(3)
C21_3 C 0.3811(7) 0.9448(5) 0.1501(4)
H16_3 H 0.3732 0.9954 0.2572
C27_3 C 0.1340(6) 0.6964(5) 0.0695(3)
C28_3 C 0.0807(5) 0.6947(4) 0.0179(3)
Cd8_2 Cd 0.15567(7) 0.7500 0.2500
O4_2 O 0.3155(8) 0.7500 0.2500
N30_2 N 0.5392(6) 0.7525(4) 0.2207(3)
N11_2 N 0.9608(6) 0.2475(4) 0.2207(3)
N12_3 N 0.8725(6) 0.2506(5) 0.2027(4)
C13_3 C 0.8196(9) 0.2500 0.2500
C14_3 C 0.7161(10) 0.2500 0.2500
C15_3 C 0.5630(8) 0.2356(5) 0.2031(5)
H9_3 H 0.5299 0.2253 0.1702
C16_3 C 0.6594(10) 0.2356(7) 0.2020(6)
H10_3 H 0.6899 0.2257 0.1681
N14_3 N 0.9608(6) 0.2525(4) 0.2793(3)
N15_3 N 0.8725(6) 0.2494(5) 0.2973(4)
C17_3 C 0.5630(8) 0.2644(5) 0.2969(5)
H11_3 H 0.5299 0.2747 0.3298
C18_3 C 0.6594(10) 0.2644(7) 0.2980(6)
H12_3 H 0.6899 0.2743 0.3319
C29_3 C 0.9879(7) 0.7143(6) 0.0165(4)
H19_3 H 0.9564 0.7234 0.0502
C20_3 C 0.9410(8) 0.7206(7) 0.9667(5)
H14_3 H 0.8793 0.7372 0.9672
N12_4 N 0.6275(6) 0.7494(5) 0.2027(4)
N13_2 N 0.9861(7) 0.7500 0.2500
C13_4 C 0.6804(9) 0.7500 0.2500
C14_4 C 0.7839(10) 0.7500 0.2500
C15_4 C 0.9370(8) 0.7644(5) 0.2031(5)
H9_4 H 0.9701 0.7747 0.1702
C16_4 C 0.8406(10) 0.7644(7) 0.2020(6)
H10_4 H 0.8101 0.7743 0.1681
N14_4 N 0.5392(6) 0.7475(4) 0.2793(3)
N15_4 N 0.6275(6) 0.7506(5) 0.2973(4)
C17_4 C 0.9370(8) 0.7356(5) 0.2969(5)
H11_4 H 0.9701 0.7253 0.3298
C18_4 C 0.8406(10) 0.7356(7) 0.2980(6)
H12_4 H 0.8101 0.7257 0.3319
N28_4 N 0.1447(6) 0.6433(4) 0.2886(3)
N29_4 N 0.1675(6) 0.7928(4) 0.3432(3)
C1_4 C 0.4354(8) 0.1832(6) 0.5805(5)
H1_4 H 0.4077 0.1708 0.6147
C2_4 C 0.5590(8) 0.2206(7) 0.5333(5)
H2_4 H 0.6207 0.2372 0.5328
N2_4 N 0.1130(6) 0.3427(4) 0.3565(3)
N3_4 N 0.1186(8) 0.3639(5) 0.4071(4)
N4_4 N 0.1251(7) 0.4287(5) 0.4041(4)
N5_4 N 0.1154(5) 0.3910(4) 0.3181(3)
N7_4 N 0.2496(6) 0.2023(4) 0.3719(3)
N9_4 N 0.4062(5) 0.2039(4) 0.3782(3)
N10_4 N 0.2706(5) 0.1938(5) 0.4263(3)
O2_4 O 0.0792(6) 0.1209(4) 0.3012(3)
C3_4 C 0.1189(7) 0.4448(5) 0.3499(4)
C4_4 C 0.1258(7) 0.5129(5) 0.3287(4)
C5_4 C 0.1346(8) 0.5653(5) 0.3658(4)
H3_4 H 0.1345 0.5581 0.4046
C6_4 C 0.1288(10) 0.5285(6) 0.2700(5)
H4_4 H 0.1268 0.4954 0.2428
C7_4 C 0.1436(9) 0.6295(6) 0.3443(4)
H5_4 H 0.1491 0.6642 0.3698
C8_4 C 0.1346(10) 0.5916(6) 0.2547(4)
H6_4 H 0.1312 0.6004 0.2162
C9_4 C 0.3660(6) 0.1964(5) 0.4305(3)
C10_4 C 0.4193(5) 0.1947(4) 0.4821(3)
C11_4 C 0.5121(7) 0.2143(6) 0.4835(4)
H7_4 H 0.5436 0.2234 0.4498
C12_4 C 0.3779(8) 0.1766(6) 0.5319(4)
H8_4 H 0.3158 0.1609 0.5337
C19_2 C 0.0646(8) 0.8168(6) 0.5805(5)
H13_2 H 0.0923 0.8292 0.6147
N17_4 N 0.3870(6) 0.6573(4) 0.3565(3)
N18_4 N 0.3814(8) 0.6361(5) 0.4071(4)
N19_4 N 0.3749(7) 0.5713(5) 0.4041(4)
N20_4 N 0.3846(5) 0.6090(4) 0.3181(3)
N22_4 N 0.2504(6) 0.7977(4) 0.3719(3)
N24_4 N 0.0938(5) 0.7961(4) 0.3782(3)
N25_4 N 0.2294(5) 0.8062(5) 0.4263(3)
O3_4 O 0.4208(6) 0.8791(4) 0.3012(3)
C21_4 C 0.3811(7) 0.5552(5) 0.3499(4)
C22_4 C 0.3742(7) 0.4871(5) 0.3287(4)
C23_4 C 0.3654(8) 0.4347(5) 0.3658(4)
H15_4 H 0.3655 0.4419 0.4046
C24_4 C 0.3712(10) 0.4715(6) 0.2700(5)
H16_4 H 0.3732 0.5046 0.2428
C25_4 C 0.3564(9) 0.3705(6) 0.3443(4)
H17_4 H 0.3509 0.3358 0.3698
C26_4 C 0.3654(10) 0.4084(6) 0.2547(4)
H18_4 H 0.3688 0.3996 0.2162
C27_4 C 0.1340(6) 0.8036(5) 0.4305(3)
C28_4 C 0.0807(5) 0.8053(4) 0.4821(3)
C30_2 C 0.1221(8) 0.8234(6) 0.5319(4)
H20_2 H 0.1842 0.8391 0.5337
C20_4 C 0.9410(8) 0.7794(7) 0.5333(5)
H14_4 H 0.8793 0.7628 0.5328
C29_4 C 0.9879(7) 0.7857(6) 0.4835(4)
H19_4 H 0.9564 0.7766 0.4498
C19_3 C 0.9354(8) 0.3168(6) 0.0805(5)
H13_3 H 0.9077 0.3292 0.1147
C30_3 C 0.8779(8) 0.3234(6) 0.0319(4)
H20_3 H 0.8158 0.3391 0.0337
C19_4 C 0.0646(8) 0.6832(6) 0.9195(5)
H13_4 H 0.0923 0.6708 0.8853
C30_4 C 0.1221(8) 0.6766(6) 0.9681(4)
H20_4 H 0.1842 0.6609 0.9663
loop_
_geom_bond_atom_site_label_1
_geom_bond_atom_site_label_2
_geom_bond_site_symmetry_1
_geom_bond_site_symmetry_2
C20 N16 1_555 1_555
H14 C20 1_555 1_555
Cd5 N16 1_555 1_555
H19 C29 1_555 1_555
N12 N11 1_555 1_555
N13 C15 1_555 1_555
C13 N12 1_555 1_555
C14 C13 1_555 1_555
C15 H9 1_555 1_555
C16 C14 1_555 1_555
H10 C16 1_555 1_555
N14 N11 1_555 1_555
N15 C13 1_555 1_555
C17 N13 1_555 1_555
H11 C17 1_555 1_555
C18 C14 1_555 1_555
H12 C18 1_555 1_555
Cd7 N13 1_555 1_555
C15 C16 1_555 1_555
N14 N15 1_555 1_555
C17 C18 1_555 1_555
N6 C7 1_555 1_555
C5 C4 1_555 1_555
H3 C5 1_555 1_555
C6 C4 1_555 1_555
C7 C5 1_555 1_555
H5 C7 1_555 1_555
C8 N6 1_555 1_555
H6 C8 1_555 1_555
Cd3 N17 1_555 1_555
N17 N18 1_555 1_555
N18 N19 1_555 1_555
N19 C21 1_555 1_555
N20 N17 1_555 1_555
N22 Cd3 1_555 1_555
N23 N22 1_555 1_555
N24 N23 1_555 1_555
N25 N22 1_555 1_555
O3 Cd3 1_555 1_555
C21 N20 1_555 1_555
C27 N24 1_555 1_555
C28 C27 1_555 1_555
N26 Cd3 1_555 1_555
Cd8 N6 1_555 1_555
O4 Cd3 1_555 1_555
N30 Cd3 1_555 1_555
C6 C8 1_555 1_555
N23 Cd8 1_555 1_555
N25 C27 1_555 1_555
Cd8 O4 1_555 1_555
N1 C1 1_555 1_555
C1 H1 1_555 1_555
C2 N1 1_555 1_555
H2 C2 1_555 1_555
C12 C1 1_555 1_555
H8 C12 1_555 1_555
Cd6 N1 1_555 1_555
Cd1 O1 1_555 1_555
Cd7 O1 1_555 1_555
O1 Cd4 1_555 1_555
N2 Cd1 1_555 1_555
N3 N2 1_555 1_555
N4 N3 1_555 1_555
N5 N2 1_555 1_555
N7 Cd1 1_555 1_555
N8 Cd7 1_555 1_555
N9 N8 1_555 1_555
N10 N7 1_555 1_555
O2 Cd1 1_555 1_555
C3 N4 1_555 1_555
C9 N9 1_555 1_555
C10 C9 1_555 1_555
H7 C11 1_555 1_555
N21 Cd7 1_555 1_555
C23 C22 1_555 1_555
H15 C23 1_555 1_555
C24 C22 1_555 1_555
C25 N21 1_555 1_555
H17 C25 1_555 1_555
C26 N21 1_555 1_555
H18 C26 1_555 1_555
N27 Cd1 1_555 1_555
N28 Cd7 1_555 1_555
N29 Cd7 1_555 1_555
N5 C3 1_555 1_555
N7 N8 1_555 1_555
N10 C9 1_555 1_555
C10 C11 1_555 1_555
C23 C25 1_555 1_555
C24 C26 1_555 1_555
O4 Cd4_2 1_555 1_555
N12_2 N30 1_555 1_555
N31 C15_2 1_555 1_555
C13_2 N12_2 1_555 1_555
C14_2 C13_2 1_555 1_555
C15_2 H9_2 1_555 1_555
C16_2 C14_2 1_555 1_555
H10_2 C16_2 1_555 1_555
N14_2 N30 1_555 1_555
N15_2 C13_2 1_555 1_555
C17_2 N31 1_555 1_555
H11_2 C17_2 1_555 1_555
C18_2 C14_2 1_555 1_555
H12_2 C18_2 1_555 1_555
Cd4_2 N14_2 1_555 1_555
N28_2 Cd8 1_555 1_555
N29_2 Cd8 1_555 1_555
C15_2 C16_2 1_555 1_555
N14_2 N15_2 1_555 1_555
C17_2 C18_2 1_555 1_555
C20_2 N16_2 1_555 1_555
H14_2 C20_2 1_555 1_555
C29_2 C20_2 1_555 1_555
H19_2 C29_2 1_555 1_555
Cd5_2 N16_2 1_555 1_555
N1_2 C1_2 1_555 1_555
C1_2 H1_2 1_555 1_555
C2_2 N1_2 1_555 1_555
H2_2 C2_2 1_555 1_555
N2_2 Cd4 1_555 1_555
N3_2 N2_2 1_555 1_555
N4_2 N3_2 1_555 1_555
N5_2 N2_2 1_555 1_555
N28_2 C7_2 1_555 1_555
N7_2 Cd4 1_555 1_555
N9_2 N29 1_555 1_555
N10_2 N7_2 1_555 1_555
O2_2 Cd4 1_555 1_555
C3_2 N4_2 1_555 1_555
C4_2 C3_2 1_555 1_555
C5_2 C4_2 1_555 1_555
H3_2 C5_2 1_555 1_555
C6_2 C4_2 1_555 1_555
H4_2 C6_2 1_555 1_555
C7_2 C5_2 1_555 1_555
H5_2 C7_2 1_555 1_555
C8_2 N28_2 1_555 1_555
H6_2 C8_2 1_555 1_555
C9_2 N9_2 1_555 1_555
C10_2 C9_2 1_555 1_555
C11_2 C2_2 1_555 1_555
H7_2 C11_2 1_555 1_555
C12_2 C1_2 1_555 1_555
H8_2 C12_2 1_555 1_555
C19 H13 1_555 1_555
Cd4_2 N17_2 1_555 1_555
N17_2 N18_2 1_555 1_555
N18_2 N19_2 1_555 1_555
N19_2 C21_2 1_555 1_555
N20_2 N17_2 1_555 1_555
N22_2 Cd4_2 1_555 1_555
N29_2 N22_2 1_555 1_555
N24_2 N29_2 1_555 1_555
N25_2 N22_2 1_555 1_555
O3_2 Cd4_2 1_555 1_555
C21_2 N20_2 1_555 1_555
C22_2 C21_2 1_555 1_555
C23_2 C22_2 1_555 1_555
H15_2 C23_2 1_555 1_555
C24_2 C22_2 1_555 1_555
H16_2 C24_2 1_555 1_555
C25_2 N28 1_555 1_555
H17_2 C25_2 1_555 1_555
C26_2 N28 1_555 1_555
H18_2 C26_2 1_555 1_555
C27_2 N24_2 1_555 1_555
C28_2 C27_2 1_555 1_555
C30 C19 1_555 1_555
H20 C30 1_555 1_555
N26_2 Cd4_2 1_555 1_555
N27_2 Cd4 1_555 1_555
Cd6_2 N1_2 1_555 1_555
N5_2 C3_2 1_555 1_555
N7_2 N29 1_555 1_555
N10_2 C9_2 1_555 1_555
C6_2 C8_2 1_555 1_555
C10_2 C11_2 1_555 1_555
C10_2 C12_2 1_555 1_555
N25_2 C27_2 1_555 1_555
C23_2 C25_2 1_555 1_555
C24_2 C26_2 1_555 1_555
C28_2 C30 1_555 1_555
Cd5 O1_2 1_555 1_555
Cd2 O1_2 1_555 1_555
O1_2 Cd5_2 1_555 1_555
N2_3 Cd5 1_555 1_555
N3_3 N2_3 1_555 1_555
N4_3 N3_3 1_555 1_555
N5_3 N2_3 1_555 1_555
N7_3 Cd5 1_555 1_555
N8_2 Cd2 1_555 1_555
N9_3 N8_2 1_555 1_555
N10_3 N7_3 1_555 1_555
O2_3 Cd5 1_555 1_555
C3_3 N4_3 1_555 1_555
C9_3 N9_3 1_555 1_555
C10_3 C9_3 1_555 1_555
H7_3 C11_3 1_555 1_555
N21_2 Cd2 1_555 1_555
C23_3 C22_3 1_555 1_555
H15_3 C23_3 1_555 1_555
C24_3 C22_3 1_555 1_555
C25_3 N21_2 1_555 1_555
H17_3 C25_3 1_555 1_555
C26_3 N21_2 1_555 1_555
H18_3 C26_3 1_555 1_555
N28_3 Cd2 1_555 1_555
N29_3 Cd2 1_555 1_555
N31_2 Cd2 1_555 1_555
N5_3 C3_3 1_555 1_555
N7_3 N8_2 1_555 1_555
N10_3 C9_3 1_555 1_555
C10_3 C11_3 1_555 1_555
C23_3 C25_3 1_555 1_555
C24_3 C26_3 1_555 1_555
N26 C1_3 1_555 1_555
C1_3 H1_3 1_555 1_555
C2_3 N26 1_555 1_555
H2_3 C2_3 1_555 1_555
C12_3 C1_3 1_555 1_555
H8_3 C12_3 1_555 1_555
N6_2 C7_3 1_555 1_555
C5_3 C4_3 1_555 1_555
H3_3 C5_3 1_555 1_555
C6_3 C4_3 1_555 1_555
C7_3 C5_3 1_555 1_555
H5_3 C7_3 1_555 1_555
C8_3 N6_2 1_555 1_555
H6_3 C8_3 1_555 1_555
Cd6 N17_3 1_555 1_555
N17_3 N18_3 1_555 1_555
N18_3 N19_3 1_555 1_555
N19_3 C21_3 1_555 1_555
N20_3 N17_3 1_555 1_555
N22_3 Cd6 1_555 1_555
N23_2 N22_3 1_555 1_555
N24_3 N23_2 1_555 1_555
N25_3 N22_3 1_555 1_555
O3_3 Cd6 1_555 1_555
C21_3 N20_3 1_555 1_555
C27_3 N24_3 1_555 1_555
C28_3 C27_3 1_555 1_555
Cd8_2 N6_2 1_555 1_555
O4_2 Cd6 1_555 1_555
N30_2 Cd6 1_555 1_555
C6_3 C8_3 1_555 1_555
N23_2 Cd8_2 1_555 1_555
N25_3 C27_3 1_555 1_555
Cd8_2 O4_2 1_555 1_555
N12_3 N11_2 1_555 1_555
N31_2 C15_3 1_555 1_555
C13_3 N12_3 1_555 1_555
C14_3 C13_3 1_555 1_555
C15_3 H9_3 1_555 1_555
C16_3 C14_3 1_555 1_555
H10_3 C16_3 1_555 1_555
N14_3 N11_2 1_555 1_555
N15_3 C13_3 1_555 1_555
C17_3 N31_2 1_555 1_555
H11_3 C17_3 1_555 1_555
C18_3 C14_3 1_555 1_555
H12_3 C18_3 1_555 1_555
C15_3 C16_3 1_555 1_555
N14_3 N15_3 1_555 1_555
C17_3 C18_3 1_555 1_555
H19_3 C29_3 1_555 1_555
C20_3 N27 1_555 1_555
H14_3 C20_3 1_555 1_555
O4_2 Cd6_2 1_555 1_555
N12_4 N30_2 1_555 1_555
N13_2 C15_4 1_555 1_555
C13_4 N12_4 1_555 1_555
C14_4 C13_4 1_555 1_555
C15_4 H9_4 1_555 1_555
C16_4 C14_4 1_555 1_555
H10_4 C16_4 1_555 1_555
N14_4 N30_2 1_555 1_555
N15_4 C13_4 1_555 1_555
C17_4 N13_2 1_555 1_555
H11_4 C17_4 1_555 1_555
C18_4 C14_4 1_555 1_555
H12_4 C18_4 1_555 1_555
Cd6_2 N14_4 1_555 1_555
N28_4 Cd8_2 1_555 1_555
N29_4 Cd8_2 1_555 1_555
C15_4 C16_4 1_555 1_555
N14_4 N15_4 1_555 1_555
C17_4 C18_4 1_555 1_555
N26_2 C1_4 1_555 1_555
C1_4 H1_4 1_555 1_555
C2_4 N26_2 1_555 1_555
H2_4 C2_4 1_555 1_555
N2_4 Cd5_2 1_555 1_555
N3_4 N2_4 1_555 1_555
N4_4 N3_4 1_555 1_555
N5_4 N2_4 1_555 1_555
N28_4 C7_4 1_555 1_555
N7_4 Cd5_2 1_555 1_555
N9_4 N29_3 1_555 1_555
N10_4 N7_4 1_555 1_555
O2_4 Cd5_2 1_555 1_555
C3_4 N4_4 1_555 1_555
C4_4 C3_4 1_555 1_555
C5_4 C4_4 1_555 1_555
H3_4 C5_4 1_555 1_555
C6_4 C4_4 1_555 1_555
H4_4 C6_4 1_555 1_555
C7_4 C5_4 1_555 1_555
H5_4 C7_4 1_555 1_555
C8_4 N28_4 1_555 1_555
H6_4 C8_4 1_555 1_555
C9_4 N9_4 1_555 1_555
C10_4 C9_4 1_555 1_555
C11_4 C2_4 1_555 1_555
H7_4 C11_4 1_555 1_555
C12_4 C1_4 1_555 1_555
H8_4 C12_4 1_555 1_555
C19_2 H13_2 1_555 1_555
Cd6_2 N17_4 1_555 1_555
N17_4 N18_4 1_555 1_555
N18_4 N19_4 1_555 1_555
N19_4 C21_4 1_555 1_555
N20_4 N17_4 1_555 1_555
N22_4 Cd6_2 1_555 1_555
N29_4 N22_4 1_555 1_555
N24_4 N29_4 1_555 1_555
N25_4 N22_4 1_555 1_555
O3_4 Cd6_2 1_555 1_555
C21_4 N20_4 1_555 1_555
C22_4 C21_4 1_555 1_555
C23_4 C22_4 1_555 1_555
H15_4 C23_4 1_555 1_555
C24_4 C22_4 1_555 1_555
H16_4 C24_4 1_555 1_555
C25_4 N28_3 1_555 1_555
H17_4 C25_4 1_555 1_555
C26_4 N28_3 1_555 1_555
H18_4 C26_4 1_555 1_555
C27_4 N24_4 1_555 1_555
C28_4 C27_4 1_555 1_555
C30_2 C19_2 1_555 1_555
H20_2 C30_2 1_555 1_555
N5_4 C3_4 1_555 1_555
N7_4 N29_3 1_555 1_555
N10_4 C9_4 1_555 1_555
C6_4 C8_4 1_555 1_555
C10_4 C11_4 1_555 1_555
C10_4 C12_4 1_555 1_555
N25_4 C27_4 1_555 1_555
C23_4 C25_4 1_555 1_555
C24_4 C26_4 1_555 1_555
C28_4 C30_2 1_555 1_555
C20_4 N27_2 1_555 1_555
H14_4 C20_4 1_555 1_555
C29_4 C20_4 1_555 1_555
H19_4 C29_4 1_555 1_555
C19_3 H13_3 1_555 1_555
C30_3 C19_3 1_555 1_555
H20_3 C30_3 1_555 1_555
C19_4 H13_4 1_555 1_555
C30_4 C19_4 1_555 1_555
H20_4 C30_4 1_555 1_555

#END
