
###############################################################################
#
# This file contains modified crystal structure data generated from the
# MOF subset of the Cambridge Structural Database (CSD) v543 
# hosted by the Cambridge Crystallographic Data Centre (CCDC).
#
# This work is licensed under the Creative Commons
# Attribution-NonCommercial-ShareAlike 4.0 International License.
# To view a copy of this license, visit
# http://creativecommons.org/licenses/by-nc-sa/4.0/
# or send a letter to
# Creative Commons, PO Box 1866, Mountain View, CA 94042, USA.
#
# CIF created using the CSD Python API on 29 September 2022
# The structure has been converted into the P1 space group
# The structure has a 3D framework
# The original CSD entry FUWXIF is in the cubic crystal system
# The framework has been calculated to contain at least 10.0% void space
# The void calculation uses a probe of radius 1.32A, grid spacing 0.4
# The framework is charged, counterions have been retained in the structure
#
###############################################################################

data_FUWXIF
_chemical_formula_moiety         '(C264 H72 N96 O196 Zn47 66-)n'
_symmetry_cell_setting           triclinic
_symmetry_space_group_name_H-M   'P 1'
_symmetry_Int_Tables_number      1
_space_group_name_Hall           'P 1'
loop_
_symmetry_equiv_pos_site_id
_symmetry_equiv_pos_as_xyz
1 x,y,z
_cell_length_a                   22.0003(7)
_cell_length_b                   22.0003(7)
_cell_length_c                   22.0003(7)
_cell_angle_alpha                90
_cell_angle_beta                 90
_cell_angle_gamma                90
_cell_volume                     10648.4
loop_
_atom_site_label
_atom_site_type_symbol
_atom_site_fract_x
_atom_site_fract_y
_atom_site_fract_z
N1 N 0.3500(2) 0.3450(2) 0.0508(2)
Zn1 Zn 0.35702(3) 0.35702(3) 0.14298(3)
Zn2 Zn 0.30268(4) 0.19732(4) 0.19732(4)
O1 O 0.3281(2) 0.25815(18) 0.13368(16)
O2 O 0.3130(3) 0.1861(2) 0.0626(2)
O3 O 0.2500 0.2500 0.2500
C1 C 0.3248(2) 0.2396(2) 0.0783(2)
C2 C 0.3366(2) 0.2860(2) 0.03171(18)
C3 C 0.3576(3) 0.3778(4) 0.0000
H1 H 0.387(4) 0.424(4) 0.0000
N3 N 0.4492(2) 0.3500(2) 0.1550(2)
N4 N 0.5508(2) 0.3500(2) 0.1550(2)
N5 N 0.3450(2) 0.4492(2) 0.1500(2)
N6 N 0.3450(2) 0.5508(2) 0.1500(2)
N7 N 0.1550(2) 0.0508(2) 0.1500(2)
N9 N 0.4492(2) 0.1500(2) 0.3450(2)
N10 N 0.5508(2) 0.1500(2) 0.3450(2)
N14 N 0.6550(2) 0.4492(2) 0.1500(2)
N15 N 0.6500(2) 0.3450(2) 0.0508(2)
N16 N 0.3500(2) 0.6550(2) 0.0508(2)
N17 N 0.4492(2) 0.6500(2) 0.1550(2)
Zn4 Zn 0.64298(3) 0.35702(3) 0.14298(3)
Zn5 Zn 0.35702(3) 0.64298(3) 0.14298(3)
Zn6 Zn 0.14298(3) 0.14298(3) 0.14298(3)
Zn8 Zn 0.35702(3) 0.14298(3) 0.35702(3)
Zn9 Zn 0.64298(3) 0.14298(3) 0.35702(3)
Zn12 Zn 0.30268(4) 0.30268(4) 0.30268(4)
Zn13 Zn 0.69732(4) 0.30268(4) 0.30268(4)
Zn14 Zn 0.19732(4) 0.30268(4) 0.19732(4)
Zn15 Zn 0.19732(4) 0.19732(4) 0.30268(4)
Zn16 Zn 0.19732(4) 0.69732(4) 0.19732(4)
Zn18 Zn 0.69732(4) 0.19732(4) 0.19732(4)
O5 O 0.36632(16) 0.3281(2) 0.24185(18)
O6 O 0.63368(16) 0.3281(2) 0.24185(18)
O7 O 0.25815(18) 0.36632(16) 0.1719(2)
O8 O 0.25815(18) 0.63368(16) 0.1719(2)
O9 O 0.24185(18) 0.13368(16) 0.1719(2)
O11 O 0.36632(16) 0.1719(2) 0.25815(18)
O12 O 0.63368(16) 0.1719(2) 0.25815(18)
O16 O 0.74185(18) 0.36632(16) 0.1719(2)
O17 O 0.6719(2) 0.25815(18) 0.13368(16)
O18 O 0.3281(2) 0.74185(18) 0.13368(16)
O19 O 0.36632(16) 0.6719(2) 0.24185(18)
O22 O 0.3281(2) 0.24185(18) 0.36632(16)
O23 O 0.24185(18) 0.36632(16) 0.3281(2)
O24 O 0.6719(2) 0.24185(18) 0.36632(16)
O25 O 0.75815(18) 0.36632(16) 0.3281(2)
O27 O 0.4374(2) 0.3130(3) 0.3139(2)
O28 O 0.5626(2) 0.3130(3) 0.3139(2)
O29 O 0.1861(2) 0.4374(2) 0.1870(3)
O30 O 0.1861(2) 0.5626(2) 0.1870(3)
O31 O 0.3139(2) 0.0626(2) 0.1870(3)
O33 O 0.4374(2) 0.1870(3) 0.1861(2)
O34 O 0.5626(2) 0.1870(3) 0.1861(2)
O38 O 0.7500 0.2500 0.2500
C5 C 0.4217(2) 0.3248(2) 0.2604(2)
C6 C 0.5783(2) 0.3248(2) 0.2604(2)
C7 C 0.2396(2) 0.4217(2) 0.1752(2)
C8 C 0.2396(2) 0.5783(2) 0.1752(2)
C9 C 0.2604(2) 0.0783(2) 0.1752(2)
C11 C 0.4217(2) 0.1752(2) 0.2396(2)
C12 C 0.5783(2) 0.1752(2) 0.2396(2)
C16 C 0.46829(18) 0.3366(2) 0.2140(2)
C17 C 0.53171(18) 0.3366(2) 0.2140(2)
C18 C 0.2860(2) 0.46829(18) 0.1634(2)
C19 C 0.2860(2) 0.53171(18) 0.1634(2)
C20 C 0.2140(2) 0.03171(18) 0.1634(2)
C22 C 0.46829(18) 0.1634(2) 0.2860(2)
C23 C 0.53171(18) 0.1634(2) 0.2860(2)
C26 C 0.5000 0.3576(3) 0.1222(4)
C27 C 0.3778(4) 0.5000 0.1424(3)
C28 C 0.1222(4) -0.0000 0.1424(3)
C29 C 0.5000 0.1424(3) 0.3778(4)
H2 H 0.5000 0.387(4) 0.076(4)
H3 H 0.424(4) 0.5000 0.113(4)
H4 H 0.076(4) -0.0000 0.113(4)
H5 H 0.5000 0.113(4) 0.424(4)
C3_2 C 0.3576(3) 0.3778(4) 1.0000
H1_2 H 0.387(4) 0.424(4) 1.0000
N2 N 0.3500(2) 0.3450(2) 0.9492(2)
N11 N 0.4492(2) 0.3500(2) 0.8450(2)
N12 N 0.5508(2) 0.3500(2) 0.8450(2)
N13 N 0.3450(2) 0.4492(2) 0.8500(2)
Zn3 Zn 0.35702(3) 0.35702(3) 0.85702(3)
Zn10 Zn 0.64298(3) 0.35702(3) 0.85702(3)
Zn11 Zn 0.30268(4) 0.19732(4) 0.80268(4)
Zn19 Zn 0.30268(4) 0.30268(4) 0.69732(4)
Zn20 Zn 0.69732(4) 0.30268(4) 0.69732(4)
O4 O 0.3281(2) 0.25815(18) 0.86632(16)
O13 O 0.36632(16) 0.3281(2) 0.75815(18)
O14 O 0.63368(16) 0.3281(2) 0.75815(18)
O15 O 0.25815(18) 0.36632(16) 0.8281(2)
O20 O 0.24185(18) 0.13368(16) 0.8281(2)
O21 O 0.36632(16) 0.1719(2) 0.74185(18)
O26 O 0.3130(3) 0.1861(2) 0.9374(2)
O35 O 0.4374(2) 0.3130(3) 0.6861(2)
O36 O 0.5626(2) 0.3130(3) 0.6861(2)
O37 O 0.2500 0.2500 0.7500
C4 C 0.3248(2) 0.2396(2) 0.9217(2)
C13 C 0.4217(2) 0.3248(2) 0.7396(2)
C14 C 0.5783(2) 0.3248(2) 0.7396(2)
C15 C 0.3366(2) 0.2860(2) 0.96829(18)
C24 C 0.46829(18) 0.3366(2) 0.7860(2)
C25 C 0.53171(18) 0.3366(2) 0.7860(2)
C30 C 0.5000 0.3576(3) 0.8778(4)
H6 H 0.5000 0.387(4) 0.924(4)
N8 N 0.1550(2) 0.9492(2) 0.1500(2)
Zn7 Zn 0.14298(3) 0.85702(3) 0.14298(3)
Zn17 Zn 0.30268(4) 0.80268(4) 0.19732(4)
O10 O 0.24185(18) 0.86632(16) 0.1719(2)
O32 O 0.3139(2) 0.9374(2) 0.1870(3)
C10 C 0.2604(2) 0.9217(2) 0.1752(2)
C21 C 0.2140(2) 0.96829(18) 0.1634(2)
C28_2 C 0.1222(4) 1.0000 0.1424(3)
H4_2 H 0.076(4) 1.0000 0.113(4)
N8_2 N 0.8450(2) 0.0508(2) 0.1500(2)
Zn7_2 Zn 0.85702(3) 0.14298(3) 0.14298(3)
O10_2 O 0.75815(18) 0.13368(16) 0.1719(2)
O32_2 O 0.6861(2) 0.0626(2) 0.1870(3)
C10_2 C 0.7396(2) 0.0783(2) 0.1752(2)
C21_2 C 0.7860(2) 0.03171(18) 0.1634(2)
C28_3 C 0.8778(4) 0.0000 0.1424(3)
H4_3 H 0.924(4) 0.0000 0.113(4)
N1_2 N 0.6500(2) 0.6550(2) 0.0508(2)
Zn1_2 Zn 0.64298(3) 0.64298(3) 0.14298(3)
Zn2_2 Zn 0.69732(4) 0.80268(4) 0.19732(4)
O1_2 O 0.6719(2) 0.74185(18) 0.13368(16)
O2_2 O 0.6870(3) 0.8139(2) 0.0626(2)
O3_2 O 0.7500 0.7500 0.2500
C1_2 C 0.6752(2) 0.7604(2) 0.0783(2)
C2_2 C 0.6634(2) 0.7140(2) 0.03171(18)
C3_3 C 0.6424(3) 0.6222(4) 0.0000
H1_3 H 0.613(4) 0.576(4) 0.0000
N3_2 N 0.5508(2) 0.6500(2) 0.1550(2)
N5_2 N 0.6550(2) 0.5508(2) 0.1500(2)
N7_2 N 0.8450(2) 0.9492(2) 0.1500(2)
N9_2 N 0.5508(2) 0.8500(2) 0.3450(2)
N10_2 N 0.4492(2) 0.8500(2) 0.3450(2)
Zn6_2 Zn 0.85702(3) 0.85702(3) 0.14298(3)
Zn8_2 Zn 0.64298(3) 0.85702(3) 0.35702(3)
Zn9_2 Zn 0.35702(3) 0.85702(3) 0.35702(3)
Zn12_2 Zn 0.69732(4) 0.69732(4) 0.30268(4)
Zn13_2 Zn 0.30268(4) 0.69732(4) 0.30268(4)
Zn14_2 Zn 0.80268(4) 0.69732(4) 0.19732(4)
Zn15_2 Zn 0.80268(4) 0.80268(4) 0.30268(4)
Zn16_2 Zn 0.80268(4) 0.30268(4) 0.19732(4)
O5_2 O 0.63368(16) 0.6719(2) 0.24185(18)
O7_2 O 0.74185(18) 0.63368(16) 0.1719(2)
O9_2 O 0.75815(18) 0.86632(16) 0.1719(2)
O11_2 O 0.63368(16) 0.8281(2) 0.25815(18)
O12_2 O 0.36632(16) 0.8281(2) 0.25815(18)
O22_2 O 0.6719(2) 0.75815(18) 0.36632(16)
O23_2 O 0.75815(18) 0.63368(16) 0.3281(2)
O24_2 O 0.3281(2) 0.75815(18) 0.36632(16)
O25_2 O 0.24185(18) 0.63368(16) 0.3281(2)
O27_2 O 0.5626(2) 0.6870(3) 0.3139(2)
O28_2 O 0.4374(2) 0.6870(3) 0.3139(2)
O29_2 O 0.8139(2) 0.5626(2) 0.1870(3)
O30_2 O 0.8139(2) 0.4374(2) 0.1870(3)
O31_2 O 0.6861(2) 0.9374(2) 0.1870(3)
O33_2 O 0.5626(2) 0.8130(3) 0.1861(2)
O34_2 O 0.4374(2) 0.8130(3) 0.1861(2)
O38_2 O 0.2500 0.7500 0.2500
C5_2 C 0.5783(2) 0.6752(2) 0.2604(2)
C6_2 C 0.4217(2) 0.6752(2) 0.2604(2)
C7_2 C 0.7604(2) 0.5783(2) 0.1752(2)
C8_2 C 0.7604(2) 0.4217(2) 0.1752(2)
C9_2 C 0.7396(2) 0.9217(2) 0.1752(2)
C11_2 C 0.5783(2) 0.8248(2) 0.2396(2)
C12_2 C 0.4217(2) 0.8248(2) 0.2396(2)
C16_2 C 0.53171(18) 0.6634(2) 0.2140(2)
C17_2 C 0.46829(18) 0.6634(2) 0.2140(2)
C18_2 C 0.7140(2) 0.53171(18) 0.1634(2)
C19_2 C 0.7140(2) 0.46829(18) 0.1634(2)
C20_2 C 0.7860(2) 0.96829(18) 0.1634(2)
C22_2 C 0.53171(18) 0.8366(2) 0.2860(2)
C23_2 C 0.46829(18) 0.8366(2) 0.2860(2)
C26_2 C 0.5000 0.6424(3) 0.1222(4)
C27_2 C 0.6222(4) 0.5000 0.1424(3)
C28_4 C 0.8778(4) 1.0000 0.1424(3)
C29_2 C 0.5000 0.8576(3) 0.3778(4)
H2_2 H 0.5000 0.613(4) 0.076(4)
H3_2 H 0.576(4) 0.5000 0.113(4)
H4_4 H 0.924(4) 1.0000 0.113(4)
H5_2 H 0.5000 0.887(4) 0.424(4)
C3_4 C 0.6424(3) 0.6222(4) 1.0000
H1_4 H 0.613(4) 0.576(4) 1.0000
N2_2 N 0.6500(2) 0.6550(2) 0.9492(2)
N11_2 N 0.5508(2) 0.6500(2) 0.8450(2)
N12_2 N 0.4492(2) 0.6500(2) 0.8450(2)
N13_2 N 0.6550(2) 0.5508(2) 0.8500(2)
Zn3_2 Zn 0.64298(3) 0.64298(3) 0.85702(3)
Zn10_2 Zn 0.35702(3) 0.64298(3) 0.85702(3)
Zn11_2 Zn 0.69732(4) 0.80268(4) 0.80268(4)
Zn19_2 Zn 0.69732(4) 0.69732(4) 0.69732(4)
Zn20_2 Zn 0.30268(4) 0.69732(4) 0.69732(4)
O4_2 O 0.6719(2) 0.74185(18) 0.86632(16)
O13_2 O 0.63368(16) 0.6719(2) 0.75815(18)
O14_2 O 0.36632(16) 0.6719(2) 0.75815(18)
O15_2 O 0.74185(18) 0.63368(16) 0.8281(2)
O20_2 O 0.75815(18) 0.86632(16) 0.8281(2)
O21_2 O 0.63368(16) 0.8281(2) 0.74185(18)
O26_2 O 0.6870(3) 0.8139(2) 0.9374(2)
O35_2 O 0.5626(2) 0.6870(3) 0.6861(2)
O36_2 O 0.4374(2) 0.6870(3) 0.6861(2)
O37_2 O 0.7500 0.7500 0.7500
C4_2 C 0.6752(2) 0.7604(2) 0.9217(2)
C13_2 C 0.5783(2) 0.6752(2) 0.7396(2)
C14_2 C 0.4217(2) 0.6752(2) 0.7396(2)
C15_2 C 0.6634(2) 0.7140(2) 0.96829(18)
C24_2 C 0.53171(18) 0.6634(2) 0.7860(2)
C25_2 C 0.46829(18) 0.6634(2) 0.7860(2)
C30_2 C 0.5000 0.6424(3) 0.8778(4)
H6_2 H 0.5000 0.613(4) 0.924(4)
C3_5 C 0.6424(3) 0.3778(4) 0.0000
H1_5 H 0.613(4) 0.424(4) 0.0000
O26_3 O 0.6870(3) 0.1861(2) 0.0626(2)
C4_3 C 0.6752(2) 0.2396(2) 0.0783(2)
C15_3 C 0.6634(2) 0.2860(2) 0.03171(18)
N1_3 N 0.6500(2) 0.3450(2) 0.9492(2)
Zn2_3 Zn 0.69732(4) 0.19732(4) 0.80268(4)
O1_3 O 0.6719(2) 0.25815(18) 0.86632(16)
O2_3 O 0.6870(3) 0.1861(2) 0.9374(2)
O3_3 O 0.7500 0.2500 0.7500
C1_3 C 0.6752(2) 0.2396(2) 0.9217(2)
C2_3 C 0.6634(2) 0.2860(2) 0.96829(18)
C3_6 C 0.6424(3) 0.3778(4) 1.0000
H1_6 H 0.613(4) 0.424(4) 1.0000
N5_3 N 0.6550(2) 0.4492(2) 0.8500(2)
N7_3 N 0.8450(2) 0.0508(2) 0.8500(2)
N9_3 N 0.5508(2) 0.1500(2) 0.6550(2)
N10_3 N 0.4492(2) 0.1500(2) 0.6550(2)
Zn6_3 Zn 0.85702(3) 0.14298(3) 0.85702(3)
Zn8_3 Zn 0.64298(3) 0.14298(3) 0.64298(3)
Zn9_3 Zn 0.35702(3) 0.14298(3) 0.64298(3)
Zn14_3 Zn 0.80268(4) 0.30268(4) 0.80268(4)
Zn15_3 Zn 0.80268(4) 0.19732(4) 0.69732(4)
Zn16_3 Zn 0.80268(4) 0.69732(4) 0.80268(4)
O7_3 O 0.74185(18) 0.36632(16) 0.8281(2)
O9_3 O 0.75815(18) 0.13368(16) 0.8281(2)
O11_3 O 0.63368(16) 0.1719(2) 0.74185(18)
O22_3 O 0.6719(2) 0.24185(18) 0.63368(16)
O23_3 O 0.75815(18) 0.36632(16) 0.6719(2)
O24_3 O 0.3281(2) 0.24185(18) 0.63368(16)
O25_3 O 0.24185(18) 0.36632(16) 0.6719(2)
O29_3 O 0.8139(2) 0.4374(2) 0.8130(3)
O30_3 O 0.8139(2) 0.5626(2) 0.8130(3)
O31_3 O 0.6861(2) 0.0626(2) 0.8130(3)
O33_3 O 0.5626(2) 0.1870(3) 0.8139(2)
O34_3 O 0.4374(2) 0.1870(3) 0.8139(2)
C7_3 C 0.7604(2) 0.4217(2) 0.8248(2)
C8_3 C 0.7604(2) 0.5783(2) 0.8248(2)
C9_3 C 0.7396(2) 0.0783(2) 0.8248(2)
C11_3 C 0.5783(2) 0.1752(2) 0.7604(2)
C12_3 C 0.4217(2) 0.1752(2) 0.7604(2)
C18_3 C 0.7140(2) 0.46829(18) 0.8366(2)
C19_3 C 0.7140(2) 0.53171(18) 0.8366(2)
C20_3 C 0.7860(2) 0.03171(18) 0.8366(2)
C22_3 C 0.53171(18) 0.1634(2) 0.7140(2)
C23_3 C 0.46829(18) 0.1634(2) 0.7140(2)
C27_3 C 0.6222(4) 0.5000 0.8576(3)
C28_5 C 0.8778(4) -0.0000 0.8576(3)
C29_3 C 0.5000 0.1424(3) 0.6222(4)
H3_3 H 0.576(4) 0.5000 0.887(4)
H4_5 H 0.924(4) -0.0000 0.887(4)
H5_3 H 0.5000 0.113(4) 0.576(4)
N8_3 N 0.8450(2) 0.9492(2) 0.8500(2)
Zn7_3 Zn 0.85702(3) 0.85702(3) 0.85702(3)
O32_3 O 0.6861(2) 0.9374(2) 0.8130(3)
C10_3 C 0.7396(2) 0.9217(2) 0.8248(2)
C21_3 C 0.7860(2) 0.96829(18) 0.8366(2)
C28_6 C 0.8778(4) 1.0000 0.8576(3)
H4_6 H 0.924(4) 1.0000 0.887(4)
N8_4 N 0.1550(2) 0.0508(2) 0.8500(2)
Zn7_4 Zn 0.14298(3) 0.14298(3) 0.85702(3)
O32_4 O 0.3139(2) 0.0626(2) 0.8130(3)
C10_4 C 0.2604(2) 0.0783(2) 0.8248(2)
C21_4 C 0.2140(2) 0.03171(18) 0.8366(2)
C28_7 C 0.1222(4) -0.0000 0.8576(3)
H4_7 H 0.076(4) -0.0000 0.887(4)
C3_7 C 0.3576(3) 0.6222(4) 0.0000
H1_7 H 0.387(4) 0.576(4) 0.0000
O26_4 O 0.3130(3) 0.8139(2) 0.0626(2)
C4_4 C 0.3248(2) 0.7604(2) 0.0783(2)
C15_4 C 0.3366(2) 0.7140(2) 0.03171(18)
N1_4 N 0.3500(2) 0.6550(2) 0.9492(2)
Zn2_4 Zn 0.30268(4) 0.80268(4) 0.80268(4)
O1_4 O 0.3281(2) 0.74185(18) 0.86632(16)
O2_4 O 0.3130(3) 0.8139(2) 0.9374(2)
O3_4 O 0.2500 0.7500 0.7500
C1_4 C 0.3248(2) 0.7604(2) 0.9217(2)
C2_4 C 0.3366(2) 0.7140(2) 0.96829(18)
C3_8 C 0.3576(3) 0.6222(4) 1.0000
H1_8 H 0.387(4) 0.576(4) 1.0000
N5_4 N 0.3450(2) 0.5508(2) 0.8500(2)
N7_4 N 0.1550(2) 0.9492(2) 0.8500(2)
N9_4 N 0.4492(2) 0.8500(2) 0.6550(2)
N10_4 N 0.5508(2) 0.8500(2) 0.6550(2)
Zn6_4 Zn 0.14298(3) 0.85702(3) 0.85702(3)
Zn8_4 Zn 0.35702(3) 0.85702(3) 0.64298(3)
Zn9_4 Zn 0.64298(3) 0.85702(3) 0.64298(3)
Zn14_4 Zn 0.19732(4) 0.69732(4) 0.80268(4)
Zn15_4 Zn 0.19732(4) 0.80268(4) 0.69732(4)
Zn16_4 Zn 0.19732(4) 0.30268(4) 0.80268(4)
O7_4 O 0.25815(18) 0.63368(16) 0.8281(2)
O9_4 O 0.24185(18) 0.86632(16) 0.8281(2)
O11_4 O 0.36632(16) 0.8281(2) 0.74185(18)
O22_4 O 0.3281(2) 0.75815(18) 0.63368(16)
O23_4 O 0.24185(18) 0.63368(16) 0.6719(2)
O24_4 O 0.6719(2) 0.75815(18) 0.63368(16)
O25_4 O 0.75815(18) 0.63368(16) 0.6719(2)
O29_4 O 0.1861(2) 0.5626(2) 0.8130(3)
O30_4 O 0.1861(2) 0.4374(2) 0.8130(3)
O31_4 O 0.3139(2) 0.9374(2) 0.8130(3)
O33_4 O 0.4374(2) 0.8130(3) 0.8139(2)
O34_4 O 0.5626(2) 0.8130(3) 0.8139(2)
C7_4 C 0.2396(2) 0.5783(2) 0.8248(2)
C8_4 C 0.2396(2) 0.4217(2) 0.8248(2)
C9_4 C 0.2604(2) 0.9217(2) 0.8248(2)
C11_4 C 0.4217(2) 0.8248(2) 0.7604(2)
C12_4 C 0.5783(2) 0.8248(2) 0.7604(2)
C18_4 C 0.2860(2) 0.53171(18) 0.8366(2)
C19_4 C 0.2860(2) 0.46829(18) 0.8366(2)
C20_4 C 0.2140(2) 0.96829(18) 0.8366(2)
C22_4 C 0.46829(18) 0.8366(2) 0.7140(2)
C23_4 C 0.53171(18) 0.8366(2) 0.7140(2)
C27_4 C 0.3778(4) 0.5000 0.8576(3)
C28_8 C 0.1222(4) 1.0000 0.8576(3)
C29_4 C 0.5000 0.8576(3) 0.6222(4)
H3_4 H 0.424(4) 0.5000 0.887(4)
H4_8 H 0.076(4) 1.0000 0.887(4)
H5_4 H 0.5000 0.887(4) 0.576(4)
N1_5 N 0.0508(2) 0.3500(2) 0.3450(2)
Zn1_3 Zn 0.14298(3) 0.35702(3) 0.35702(3)
O1_5 O 0.13368(16) 0.3281(2) 0.25815(18)
O2_5 O 0.0626(2) 0.3130(3) 0.1861(2)
C1_5 C 0.0783(2) 0.3248(2) 0.2396(2)
C2_5 C 0.03171(18) 0.3366(2) 0.2860(2)
C3_9 C -0.0000 0.3576(3) 0.3778(4)
H1_9 H -0.0000 0.387(4) 0.424(4)
N3_3 N 0.1550(2) 0.4492(2) 0.3500(2)
N4_2 N 0.1550(2) 0.5508(2) 0.3500(2)
N5_5 N 0.1500(2) 0.3450(2) 0.4492(2)
N6_2 N 0.1500(2) 0.3450(2) 0.5508(2)
N7_5 N 0.1500(2) 0.1550(2) 0.0508(2)
N14_2 N 0.1500(2) 0.6550(2) 0.4492(2)
N15_2 N 0.0508(2) 0.6500(2) 0.3450(2)
N16_2 N 0.0508(2) 0.3500(2) 0.6550(2)
N17_2 N 0.1550(2) 0.4492(2) 0.6500(2)
Zn4_2 Zn 0.14298(3) 0.64298(3) 0.35702(3)
Zn5_2 Zn 0.14298(3) 0.35702(3) 0.64298(3)
Zn16_5 Zn 0.19732(4) 0.19732(4) 0.69732(4)
O7_5 O 0.1719(2) 0.25815(18) 0.36632(16)
O8_2 O 0.1719(2) 0.25815(18) 0.63368(16)
O9_5 O 0.1719(2) 0.24185(18) 0.13368(16)
O16_2 O 0.1719(2) 0.74185(18) 0.36632(16)
O17_2 O 0.13368(16) 0.6719(2) 0.25815(18)
O18_2 O 0.13368(16) 0.3281(2) 0.74185(18)
O27_3 O 0.3139(2) 0.4374(2) 0.3130(3)
O28_3 O 0.3139(2) 0.5626(2) 0.3130(3)
O29_5 O 0.1870(3) 0.1861(2) 0.4374(2)
O30_5 O 0.1870(3) 0.1861(2) 0.5626(2)
O31_5 O 0.1870(3) 0.3139(2) 0.0626(2)
C5_3 C 0.2604(2) 0.4217(2) 0.3248(2)
C6_3 C 0.2604(2) 0.5783(2) 0.3248(2)
C7_5 C 0.1752(2) 0.2396(2) 0.4217(2)
C8_5 C 0.1752(2) 0.2396(2) 0.5783(2)
C9_5 C 0.1752(2) 0.2604(2) 0.0783(2)
C16_3 C 0.2140(2) 0.46829(18) 0.3366(2)
C17_3 C 0.2140(2) 0.53171(18) 0.3366(2)
C18_5 C 0.1634(2) 0.2860(2) 0.46829(18)
C19_5 C 0.1634(2) 0.2860(2) 0.53171(18)
C20_5 C 0.1634(2) 0.2140(2) 0.03171(18)
C26_3 C 0.1222(4) 0.5000 0.3576(3)
C27_5 C 0.1424(3) 0.3778(4) 0.5000
C28_9 C 0.1424(3) 0.1222(4) -0.0000
H2_3 H 0.076(4) 0.5000 0.387(4)
H3_5 H 0.113(4) 0.424(4) 0.5000
H4_9 H 0.113(4) 0.076(4) -0.0000
N8_5 N 0.1500(2) 0.1550(2) 0.9492(2)
O10_3 O 0.1719(2) 0.24185(18) 0.86632(16)
O32_5 O 0.1870(3) 0.3139(2) 0.9374(2)
C10_5 C 0.1752(2) 0.2604(2) 0.9217(2)
C21_5 C 0.1634(2) 0.2140(2) 0.96829(18)
C28_10 C 0.1424(3) 0.1222(4) 1.0000
H4_10 H 0.113(4) 0.076(4) 1.0000
C3_10 C 1.0000 0.3576(3) 0.3778(4)
H1_10 H 1.0000 0.387(4) 0.424(4)
N2_3 N 0.9492(2) 0.3500(2) 0.3450(2)
N11_3 N 0.8450(2) 0.4492(2) 0.3500(2)
N12_3 N 0.8450(2) 0.5508(2) 0.3500(2)
N13_3 N 0.8500(2) 0.3450(2) 0.4492(2)
Zn3_3 Zn 0.85702(3) 0.35702(3) 0.35702(3)
Zn10_3 Zn 0.85702(3) 0.64298(3) 0.35702(3)
O4_3 O 0.86632(16) 0.3281(2) 0.25815(18)
O15_3 O 0.8281(2) 0.25815(18) 0.36632(16)
O20_3 O 0.8281(2) 0.24185(18) 0.13368(16)
O26_5 O 0.9374(2) 0.3130(3) 0.1861(2)
O35_3 O 0.6861(2) 0.4374(2) 0.3130(3)
O36_3 O 0.6861(2) 0.5626(2) 0.3130(3)
C4_5 C 0.9217(2) 0.3248(2) 0.2396(2)
C13_3 C 0.7396(2) 0.4217(2) 0.3248(2)
C14_3 C 0.7396(2) 0.5783(2) 0.3248(2)
C15_5 C 0.96829(18) 0.3366(2) 0.2860(2)
C24_3 C 0.7860(2) 0.46829(18) 0.3366(2)
C25_3 C 0.7860(2) 0.53171(18) 0.3366(2)
C30_3 C 0.8778(4) 0.5000 0.3576(3)
H6_3 H 0.924(4) 0.5000 0.387(4)
N8_6 N 0.1500(2) 0.8450(2) 0.0508(2)
O10_4 O 0.1719(2) 0.75815(18) 0.13368(16)
O32_6 O 0.1870(3) 0.6861(2) 0.0626(2)
C10_6 C 0.1752(2) 0.7396(2) 0.0783(2)
C21_6 C 0.1634(2) 0.7860(2) 0.03171(18)
C28_11 C 0.1424(3) 0.8778(4) 0.0000
H4_11 H 0.113(4) 0.924(4) 0.0000
N1_6 N 0.0508(2) 0.6500(2) 0.6550(2)
Zn1_4 Zn 0.14298(3) 0.64298(3) 0.64298(3)
O1_6 O 0.13368(16) 0.6719(2) 0.74185(18)
O2_6 O 0.0626(2) 0.6870(3) 0.8139(2)
C1_6 C 0.0783(2) 0.6752(2) 0.7604(2)
C2_6 C 0.03171(18) 0.6634(2) 0.7140(2)
C3_11 C -0.0000 0.6424(3) 0.6222(4)
H1_11 H -0.0000 0.613(4) 0.576(4)
N3_4 N 0.1550(2) 0.5508(2) 0.6500(2)
N5_6 N 0.1500(2) 0.6550(2) 0.5508(2)
N7_6 N 0.1500(2) 0.8450(2) 0.9492(2)
Zn16_6 Zn 0.19732(4) 0.80268(4) 0.30268(4)
O7_6 O 0.1719(2) 0.74185(18) 0.63368(16)
O9_6 O 0.1719(2) 0.75815(18) 0.86632(16)
O27_4 O 0.3139(2) 0.5626(2) 0.6870(3)
O28_4 O 0.3139(2) 0.4374(2) 0.6870(3)
O29_6 O 0.1870(3) 0.8139(2) 0.5626(2)
O30_6 O 0.1870(3) 0.8139(2) 0.4374(2)
O31_6 O 0.1870(3) 0.6861(2) 0.9374(2)
C5_4 C 0.2604(2) 0.5783(2) 0.6752(2)
C6_4 C 0.2604(2) 0.4217(2) 0.6752(2)
C7_6 C 0.1752(2) 0.7604(2) 0.5783(2)
C8_6 C 0.1752(2) 0.7604(2) 0.4217(2)
C9_6 C 0.1752(2) 0.7396(2) 0.9217(2)
C16_4 C 0.2140(2) 0.53171(18) 0.6634(2)
C17_4 C 0.2140(2) 0.46829(18) 0.6634(2)
C18_6 C 0.1634(2) 0.7140(2) 0.53171(18)
C19_6 C 0.1634(2) 0.7140(2) 0.46829(18)
C20_6 C 0.1634(2) 0.7860(2) 0.96829(18)
C26_4 C 0.1222(4) 0.5000 0.6424(3)
C27_6 C 0.1424(3) 0.6222(4) 0.5000
C28_12 C 0.1424(3) 0.8778(4) 1.0000
H2_4 H 0.076(4) 0.5000 0.613(4)
H3_6 H 0.113(4) 0.576(4) 0.5000
H4_12 H 0.113(4) 0.924(4) 1.0000
C3_12 C 1.0000 0.6424(3) 0.6222(4)
H1_12 H 1.0000 0.613(4) 0.576(4)
N2_4 N 0.9492(2) 0.6500(2) 0.6550(2)
N11_4 N 0.8450(2) 0.5508(2) 0.6500(2)
N12_4 N 0.8450(2) 0.4492(2) 0.6500(2)
N13_4 N 0.8500(2) 0.6550(2) 0.5508(2)
Zn3_4 Zn 0.85702(3) 0.64298(3) 0.64298(3)
Zn10_4 Zn 0.85702(3) 0.35702(3) 0.64298(3)
O4_4 O 0.86632(16) 0.6719(2) 0.74185(18)
O15_4 O 0.8281(2) 0.74185(18) 0.63368(16)
O20_4 O 0.8281(2) 0.75815(18) 0.86632(16)
O26_6 O 0.9374(2) 0.6870(3) 0.8139(2)
O35_4 O 0.6861(2) 0.5626(2) 0.6870(3)
O36_4 O 0.6861(2) 0.4374(2) 0.6870(3)
C4_6 C 0.9217(2) 0.6752(2) 0.7604(2)
C13_4 C 0.7396(2) 0.5783(2) 0.6752(2)
C14_4 C 0.7396(2) 0.4217(2) 0.6752(2)
C15_6 C 0.96829(18) 0.6634(2) 0.7140(2)
C24_4 C 0.7860(2) 0.53171(18) 0.6634(2)
C25_4 C 0.7860(2) 0.46829(18) 0.6634(2)
C30_4 C 0.8778(4) 0.5000 0.6424(3)
H6_4 H 0.924(4) 0.5000 0.613(4)
C3_13 C -0.0000 0.6424(3) 0.3778(4)
H1_13 H -0.0000 0.613(4) 0.424(4)
O26_7 O 0.0626(2) 0.6870(3) 0.1861(2)
C4_7 C 0.0783(2) 0.6752(2) 0.2396(2)
C15_7 C 0.03171(18) 0.6634(2) 0.2860(2)
N1_7 N 0.9492(2) 0.6500(2) 0.3450(2)
O1_7 O 0.86632(16) 0.6719(2) 0.25815(18)
O2_7 O 0.9374(2) 0.6870(3) 0.1861(2)
C1_7 C 0.9217(2) 0.6752(2) 0.2396(2)
C2_7 C 0.96829(18) 0.6634(2) 0.2860(2)
C3_14 C 1.0000 0.6424(3) 0.3778(4)
H1_14 H 1.0000 0.613(4) 0.424(4)
N5_7 N 0.8500(2) 0.6550(2) 0.4492(2)
N7_7 N 0.8500(2) 0.8450(2) 0.0508(2)
Zn16_7 Zn 0.80268(4) 0.80268(4) 0.69732(4)
O7_7 O 0.8281(2) 0.74185(18) 0.36632(16)
O9_7 O 0.8281(2) 0.75815(18) 0.13368(16)
O29_7 O 0.8130(3) 0.8139(2) 0.4374(2)
O30_7 O 0.8130(3) 0.8139(2) 0.5626(2)
O31_7 O 0.8130(3) 0.6861(2) 0.0626(2)
C7_7 C 0.8248(2) 0.7604(2) 0.4217(2)
C8_7 C 0.8248(2) 0.7604(2) 0.5783(2)
C9_7 C 0.8248(2) 0.7396(2) 0.0783(2)
C18_7 C 0.8366(2) 0.7140(2) 0.46829(18)
C19_7 C 0.8366(2) 0.7140(2) 0.53171(18)
C20_7 C 0.8366(2) 0.7860(2) 0.03171(18)
C27_7 C 0.8576(3) 0.6222(4) 0.5000
C28_13 C 0.8576(3) 0.8778(4) -0.0000
H3_7 H 0.887(4) 0.576(4) 0.5000
H4_13 H 0.887(4) 0.924(4) -0.0000
N8_7 N 0.8500(2) 0.8450(2) 0.9492(2)
O32_7 O 0.8130(3) 0.6861(2) 0.9374(2)
C10_7 C 0.8248(2) 0.7396(2) 0.9217(2)
C21_7 C 0.8366(2) 0.7860(2) 0.96829(18)
C28_14 C 0.8576(3) 0.8778(4) 1.0000
H4_14 H 0.887(4) 0.924(4) 1.0000
C3_15 C -0.0000 0.3576(3) 0.6222(4)
H1_15 H 0.0000 0.387(4) 0.576(4)
O26_8 O 0.0626(2) 0.3130(3) 0.8139(2)
C4_8 C 0.0783(2) 0.3248(2) 0.7604(2)
C15_8 C 0.03171(18) 0.3366(2) 0.7140(2)
N8_8 N 0.8500(2) 0.1550(2) 0.0508(2)
O32_8 O 0.8130(3) 0.3139(2) 0.0626(2)
C10_8 C 0.8248(2) 0.2604(2) 0.0783(2)
C21_8 C 0.8366(2) 0.2140(2) 0.03171(18)
C28_15 C 0.8576(3) 0.1222(4) 0.0000
H4_15 H 0.887(4) 0.076(4) 0.0000
N1_8 N 0.9492(2) 0.3500(2) 0.6550(2)
O1_8 O 0.86632(16) 0.3281(2) 0.74185(18)
O2_8 O 0.9374(2) 0.3130(3) 0.8139(2)
C1_8 C 0.9217(2) 0.3248(2) 0.7604(2)
C2_8 C 0.96829(18) 0.3366(2) 0.7140(2)
C3_16 C 1.0000 0.3576(3) 0.6222(4)
H1_16 H 1.0000 0.387(4) 0.576(4)
N5_8 N 0.8500(2) 0.3450(2) 0.5508(2)
N7_8 N 0.8500(2) 0.1550(2) 0.9492(2)
Zn16_8 Zn 0.80268(4) 0.19732(4) 0.30268(4)
O7_8 O 0.8281(2) 0.25815(18) 0.63368(16)
O9_8 O 0.8281(2) 0.24185(18) 0.86632(16)
O29_8 O 0.8130(3) 0.1861(2) 0.5626(2)
O30_8 O 0.8130(3) 0.1861(2) 0.4374(2)
O31_8 O 0.8130(3) 0.3139(2) 0.9374(2)
C7_8 C 0.8248(2) 0.2396(2) 0.5783(2)
C8_8 C 0.8248(2) 0.2396(2) 0.4217(2)
C9_8 C 0.8248(2) 0.2604(2) 0.9217(2)
C18_8 C 0.8366(2) 0.2860(2) 0.53171(18)
C19_8 C 0.8366(2) 0.2860(2) 0.46829(18)
C20_8 C 0.8366(2) 0.2140(2) 0.96829(18)
C27_8 C 0.8576(3) 0.3778(4) 0.5000
C28_16 C 0.8576(3) 0.1222(4) 1.0000
H3_8 H 0.887(4) 0.424(4) 0.5000
H4_16 H 0.887(4) 0.076(4) 1.0000
N1_9 N 0.3450(2) 0.0508(2) 0.3500(2)
O1_9 O 0.25815(18) 0.13368(16) 0.3281(2)
O2_9 O 0.1861(2) 0.0626(2) 0.3130(3)
C1_9 C 0.2396(2) 0.0783(2) 0.3248(2)
C2_9 C 0.2860(2) 0.03171(18) 0.3366(2)
C3_17 C 0.3778(4) -0.0000 0.3576(3)
H1_17 H 0.424(4) -0.0000 0.387(4)
N3_5 N 0.3500(2) 0.1550(2) 0.4492(2)
N4_3 N 0.3500(2) 0.1550(2) 0.5508(2)
N7_9 N 0.0508(2) 0.1500(2) 0.1550(2)
N15_3 N 0.3450(2) 0.0508(2) 0.6500(2)
N16_3 N 0.6550(2) 0.0508(2) 0.3500(2)
N17_3 N 0.6500(2) 0.1550(2) 0.4492(2)
O9_9 O 0.13368(16) 0.1719(2) 0.24185(18)
O17_3 O 0.25815(18) 0.13368(16) 0.6719(2)
O18_3 O 0.74185(18) 0.13368(16) 0.3281(2)
O27_5 O 0.3130(3) 0.3139(2) 0.4374(2)
O28_5 O 0.3130(3) 0.3139(2) 0.5626(2)
O31_9 O 0.0626(2) 0.1870(3) 0.3139(2)
C5_5 C 0.3248(2) 0.2604(2) 0.4217(2)
C6_5 C 0.3248(2) 0.2604(2) 0.5783(2)
C9_9 C 0.0783(2) 0.1752(2) 0.2604(2)
C16_5 C 0.3366(2) 0.2140(2) 0.46829(18)
C17_5 C 0.3366(2) 0.2140(2) 0.53171(18)
C20_9 C 0.03171(18) 0.1634(2) 0.2140(2)
C26_5 C 0.3576(3) 0.1222(4) 0.5000
C28_17 C -0.0000 0.1424(3) 0.1222(4)
H2_5 H 0.387(4) 0.076(4) 0.5000
H4_17 H -0.0000 0.113(4) 0.076(4)
C3_18 C 0.3778(4) 1.0000 0.3576(3)
H1_18 H 0.424(4) 1.0000 0.387(4)
N2_5 N 0.3450(2) 0.9492(2) 0.3500(2)
N11_5 N 0.3500(2) 0.8450(2) 0.4492(2)
N12_5 N 0.3500(2) 0.8450(2) 0.5508(2)
O4_5 O 0.25815(18) 0.86632(16) 0.3281(2)
O20_5 O 0.13368(16) 0.8281(2) 0.24185(18)
O26_9 O 0.1861(2) 0.9374(2) 0.3130(3)
O35_5 O 0.3130(3) 0.6861(2) 0.4374(2)
O36_5 O 0.3130(3) 0.6861(2) 0.5626(2)
C4_9 C 0.2396(2) 0.9217(2) 0.3248(2)
C13_5 C 0.3248(2) 0.7396(2) 0.4217(2)
C14_5 C 0.3248(2) 0.7396(2) 0.5783(2)
C15_9 C 0.2860(2) 0.96829(18) 0.3366(2)
C24_5 C 0.3366(2) 0.7860(2) 0.46829(18)
C25_5 C 0.3366(2) 0.7860(2) 0.53171(18)
C30_5 C 0.3576(3) 0.8778(4) 0.5000
H6_5 H 0.387(4) 0.924(4) 0.5000
N8_9 N 0.9492(2) 0.1500(2) 0.1550(2)
O10_5 O 0.86632(16) 0.1719(2) 0.24185(18)
O32_9 O 0.9374(2) 0.1870(3) 0.3139(2)
C10_9 C 0.9217(2) 0.1752(2) 0.2604(2)
C21_9 C 0.96829(18) 0.1634(2) 0.2140(2)
C28_18 C 1.0000 0.1424(3) 0.1222(4)
H4_18 H 1.0000 0.113(4) 0.076(4)
N8_10 N 0.0508(2) 0.1500(2) 0.8450(2)
O10_6 O 0.13368(16) 0.1719(2) 0.75815(18)
O32_10 O 0.0626(2) 0.1870(3) 0.6861(2)
C10_10 C 0.0783(2) 0.1752(2) 0.7396(2)
C21_10 C 0.03171(18) 0.1634(2) 0.7860(2)
C28_19 C 0.0000 0.1424(3) 0.8778(4)
H4_19 H -0.0000 0.113(4) 0.924(4)
N1_10 N 0.6550(2) 0.0508(2) 0.6500(2)
O1_10 O 0.74185(18) 0.13368(16) 0.6719(2)
O2_10 O 0.8139(2) 0.0626(2) 0.6870(3)
C1_10 C 0.7604(2) 0.0783(2) 0.6752(2)
C2_10 C 0.7140(2) 0.03171(18) 0.6634(2)
C3_19 C 0.6222(4) -0.0000 0.6424(3)
H1_19 H 0.576(4) -0.0000 0.613(4)
N3_6 N 0.6500(2) 0.1550(2) 0.5508(2)
N7_10 N 0.9492(2) 0.1500(2) 0.8450(2)
O9_10 O 0.86632(16) 0.1719(2) 0.75815(18)
O27_6 O 0.6870(3) 0.3139(2) 0.5626(2)
O28_6 O 0.6870(3) 0.3139(2) 0.4374(2)
O31_10 O 0.9374(2) 0.1870(3) 0.6861(2)
C5_6 C 0.6752(2) 0.2604(2) 0.5783(2)
C6_6 C 0.6752(2) 0.2604(2) 0.4217(2)
C9_10 C 0.9217(2) 0.1752(2) 0.7396(2)
C16_6 C 0.6634(2) 0.2140(2) 0.53171(18)
C17_6 C 0.6634(2) 0.2140(2) 0.46829(18)
C20_10 C 0.96829(18) 0.1634(2) 0.7860(2)
C26_6 C 0.6424(3) 0.1222(4) 0.5000
C28_20 C 1.0000 0.1424(3) 0.8778(4)
H2_6 H 0.613(4) 0.076(4) 0.5000
H4_20 H 1.0000 0.113(4) 0.924(4)
C3_20 C 0.6222(4) 1.0000 0.6424(3)
H1_20 H 0.576(4) 1.0000 0.613(4)
N2_6 N 0.6550(2) 0.9492(2) 0.6500(2)
N11_6 N 0.6500(2) 0.8450(2) 0.5508(2)
N12_6 N 0.6500(2) 0.8450(2) 0.4492(2)
O4_6 O 0.74185(18) 0.86632(16) 0.6719(2)
O20_6 O 0.86632(16) 0.8281(2) 0.75815(18)
O26_10 O 0.8139(2) 0.9374(2) 0.6870(3)
O35_6 O 0.6870(3) 0.6861(2) 0.5626(2)
O36_6 O 0.6870(3) 0.6861(2) 0.4374(2)
C4_10 C 0.7604(2) 0.9217(2) 0.6752(2)
C13_6 C 0.6752(2) 0.7396(2) 0.5783(2)
C14_6 C 0.6752(2) 0.7396(2) 0.4217(2)
C15_10 C 0.7140(2) 0.96829(18) 0.6634(2)
C24_6 C 0.6634(2) 0.7860(2) 0.53171(18)
C25_6 C 0.6634(2) 0.7860(2) 0.46829(18)
C30_6 C 0.6424(3) 0.8778(4) 0.5000
H6_6 H 0.613(4) 0.924(4) 0.5000
C3_21 C 0.3778(4) -0.0000 0.6424(3)
H1_21 H 0.424(4) -0.0000 0.613(4)
O26_11 O 0.1861(2) 0.0626(2) 0.6870(3)
C4_11 C 0.2396(2) 0.0783(2) 0.6752(2)
C15_11 C 0.2860(2) 0.03171(18) 0.6634(2)
N1_11 N 0.3450(2) 0.9492(2) 0.6500(2)
O1_11 O 0.25815(18) 0.86632(16) 0.6719(2)
O2_11 O 0.1861(2) 0.9374(2) 0.6870(3)
C1_11 C 0.2396(2) 0.9217(2) 0.6752(2)
C2_11 C 0.2860(2) 0.96829(18) 0.6634(2)
C3_22 C 0.3778(4) 1.0000 0.6424(3)
H1_22 H 0.424(4) 1.0000 0.613(4)
N7_11 N 0.0508(2) 0.8500(2) 0.8450(2)
O9_11 O 0.13368(16) 0.8281(2) 0.75815(18)
O31_11 O 0.0626(2) 0.8130(3) 0.6861(2)
C9_11 C 0.0783(2) 0.8248(2) 0.7396(2)
C20_11 C 0.03171(18) 0.8366(2) 0.7860(2)
C28_21 C -0.0000 0.8576(3) 0.8778(4)
H4_21 H -0.0000 0.887(4) 0.924(4)
N8_11 N 0.9492(2) 0.8500(2) 0.8450(2)
O32_11 O 0.9374(2) 0.8130(3) 0.6861(2)
C10_11 C 0.9217(2) 0.8248(2) 0.7396(2)
C21_11 C 0.96829(18) 0.8366(2) 0.7860(2)
C28_22 C 1.0000 0.8576(3) 0.8778(4)
H4_22 H 1.0000 0.887(4) 0.924(4)
N8_12 N 0.0508(2) 0.8500(2) 0.1550(2)
O32_12 O 0.0626(2) 0.8130(3) 0.3139(2)
C10_12 C 0.0783(2) 0.8248(2) 0.2604(2)
C21_12 C 0.03171(18) 0.8366(2) 0.2140(2)
C28_23 C -0.0000 0.8576(3) 0.1222(4)
H4_23 H -0.0000 0.887(4) 0.076(4)
C3_23 C 0.6222(4) -0.0000 0.3576(3)
H1_23 H 0.576(4) -0.0000 0.387(4)
O26_12 O 0.8139(2) 0.0626(2) 0.3130(3)
C4_12 C 0.7604(2) 0.0783(2) 0.3248(2)
C15_12 C 0.7140(2) 0.03171(18) 0.3366(2)
N1_12 N 0.6550(2) 0.9492(2) 0.3500(2)
O1_12 O 0.74185(18) 0.86632(16) 0.3281(2)
O2_12 O 0.8139(2) 0.9374(2) 0.3130(3)
C1_12 C 0.7604(2) 0.9217(2) 0.3248(2)
C2_12 C 0.7140(2) 0.96829(18) 0.3366(2)
C3_24 C 0.6222(4) 1.0000 0.3576(3)
H1_24 H 0.576(4) 1.0000 0.387(4)
N7_12 N 0.9492(2) 0.8500(2) 0.1550(2)
O9_12 O 0.86632(16) 0.8281(2) 0.24185(18)
O31_12 O 0.9374(2) 0.8130(3) 0.3139(2)
C9_12 C 0.9217(2) 0.8248(2) 0.2604(2)
C20_12 C 0.96829(18) 0.8366(2) 0.2140(2)
C28_24 C 1.0000 0.8576(3) 0.1222(4)
H4_24 H 1.0000 0.887(4) 0.076(4)
loop_
_geom_bond_atom_site_label_1
_geom_bond_atom_site_label_2
_geom_bond_site_symmetry_1
_geom_bond_site_symmetry_2
N1 Zn1 1_555 1_555
Zn1 O1 1_555 1_555
Zn2 O1 1_555 1_555
O1 C1 1_555 1_555
O2 C1 1_555 1_555
O3 Zn2 1_555 1_555
C1 C2 1_555 1_555
C2 N1 1_555 1_555
C3 N1 1_555 1_555
H1 C3 1_555 1_555
N3 Zn1 1_555 1_555
N4 Zn4 1_555 1_555
N5 Zn1 1_555 1_555
N6 Zn5 1_555 1_555
N7 Zn6 1_555 1_555
N9 Zn8 1_555 1_555
N10 Zn9 1_555 1_555
N14 Zn4 1_555 1_555
N15 Zn4 1_555 1_555
N16 Zn5 1_555 1_555
N17 Zn5 1_555 1_555
Zn4 O6 1_555 1_555
Zn5 O8 1_555 1_555
Zn6 O9 1_555 1_555
Zn8 O11 1_555 1_555
Zn9 O12 1_555 1_555
Zn12 O3 1_555 1_555
Zn13 O6 1_555 1_555
Zn14 O3 1_555 1_555
Zn15 O3 1_555 1_555
Zn16 O8 1_555 1_555
Zn18 O12 1_555 1_555
O5 Zn1 1_555 1_555
O6 C6 1_555 1_555
O7 Zn1 1_555 1_555
O8 C8 1_555 1_555
O9 Zn2 1_555 1_555
O11 Zn2 1_555 1_555
O12 C12 1_555 1_555
O16 Zn4 1_555 1_555
O17 Zn4 1_555 1_555
O18 Zn5 1_555 1_555
O19 Zn5 1_555 1_555
O22 Zn8 1_555 1_555
O23 Zn12 1_555 1_555
O24 Zn9 1_555 1_555
O25 Zn13 1_555 1_555
O27 C5 1_555 1_555
O28 C6 1_555 1_555
O29 C7 1_555 1_555
O30 C8 1_555 1_555
O31 C9 1_555 1_555
O33 C11 1_555 1_555
O34 C12 1_555 1_555
O38 Zn13 1_555 1_555
C5 O5 1_555 1_555
C6 C17 1_555 1_555
C7 O7 1_555 1_555
C8 C19 1_555 1_555
C9 O9 1_555 1_555
C11 O11 1_555 1_555
C12 C23 1_555 1_555
C16 N3 1_555 1_555
C17 N4 1_555 1_555
C18 N5 1_555 1_555
C19 N6 1_555 1_555
C20 N7 1_555 1_555
C22 N9 1_555 1_555
C23 N10 1_555 1_555
C26 N3 1_555 1_555
C27 N5 1_555 1_555
C28 N7 1_555 1_555
C29 N9 1_555 1_555
H2 C26 1_555 1_555
H3 C27 1_555 1_555
H4 C28 1_555 1_555
H5 C29 1_555 1_555
N4 C26 1_555 1_555
N6 C27 1_555 1_555
N10 C29 1_555 1_555
Zn12 O5 1_555 1_555
Zn12 O22 1_555 1_555
Zn13 O24 1_555 1_555
Zn14 O7 1_555 1_555
Zn18 O17 1_555 1_555
Zn18 O38 1_555 1_555
C5 C16 1_555 1_555
C7 C18 1_555 1_555
C9 C20 1_555 1_555
C11 C22 1_555 1_555
C16 C17 1_555 1_555
C18 C19 1_555 1_555
C22 C23 1_555 1_555
H1_2 C3_2 1_555 1_555
N2 C3_2 1_555 1_555
N11 Zn3 1_555 1_555
N12 Zn10 1_555 1_555
N13 Zn3 1_555 1_555
Zn3 N2 1_555 1_555
Zn10 O14 1_555 1_555
Zn11 O4 1_555 1_555
Zn19 O13 1_555 1_555
Zn20 O14 1_555 1_555
O4 Zn3 1_555 1_555
O13 Zn3 1_555 1_555
O14 C14 1_555 1_555
O15 Zn3 1_555 1_555
O20 Zn11 1_555 1_555
O21 Zn11 1_555 1_555
O26 C4 1_555 1_555
O35 C13 1_555 1_555
O36 C14 1_555 1_555
O37 Zn11 1_555 1_555
C4 O4 1_555 1_555
C13 O13 1_555 1_555
C14 C25 1_555 1_555
C24 N11 1_555 1_555
C25 N12 1_555 1_555
C30 N11 1_555 1_555
H6 C30 1_555 1_555
N2 C15 1_555 1_555
N12 C30 1_555 1_555
Zn19 O37 1_555 1_555
C4 C15 1_555 1_555
C13 C24 1_555 1_555
C24 C25 1_555 1_555
N8 Zn7 1_555 1_555
Zn7 O10 1_555 1_555
Zn17 O10 1_555 1_555
O10 C10 1_555 1_555
O32 C10 1_555 1_555
C10 C21 1_555 1_555
C21 N8 1_555 1_555
H4_2 C28_2 1_555 1_555
N8 C28_2 1_555 1_555
N8_2 Zn7_2 1_555 1_555
Zn7_2 O10_2 1_555 1_555
Zn18 O10_2 1_555 1_555
O10_2 C10_2 1_555 1_555
O32_2 C10_2 1_555 1_555
C10_2 C21_2 1_555 1_555
C21_2 N8_2 1_555 1_555
H4_3 C28_3 1_555 1_555
N8_2 C28_3 1_555 1_555
N1_2 Zn1_2 1_555 1_555
Zn1_2 O1_2 1_555 1_555
Zn2_2 O1_2 1_555 1_555
O1_2 C1_2 1_555 1_555
O2_2 C1_2 1_555 1_555
O3_2 Zn2_2 1_555 1_555
C1_2 C2_2 1_555 1_555
C2_2 N1_2 1_555 1_555
C3_3 N1_2 1_555 1_555
H1_3 C3_3 1_555 1_555
N3_2 Zn1_2 1_555 1_555
N5_2 Zn1_2 1_555 1_555
N7_2 Zn6_2 1_555 1_555
N9_2 Zn8_2 1_555 1_555
N10_2 Zn9_2 1_555 1_555
Zn6_2 O9_2 1_555 1_555
Zn8_2 O11_2 1_555 1_555
Zn9_2 O12_2 1_555 1_555
Zn12_2 O3_2 1_555 1_555
Zn13_2 O19 1_555 1_555
Zn14_2 O3_2 1_555 1_555
Zn15_2 O3_2 1_555 1_555
Zn16_2 O16 1_555 1_555
Zn17 O12_2 1_555 1_555
O5_2 Zn1_2 1_555 1_555
O19 C6_2 1_555 1_555
O7_2 Zn1_2 1_555 1_555
O16 C8_2 1_555 1_555
O9_2 Zn2_2 1_555 1_555
O11_2 Zn2_2 1_555 1_555
O12_2 C12_2 1_555 1_555
O22_2 Zn8_2 1_555 1_555
O23_2 Zn12_2 1_555 1_555
O24_2 Zn9_2 1_555 1_555
O25_2 Zn13_2 1_555 1_555
O27_2 C5_2 1_555 1_555
O28_2 C6_2 1_555 1_555
O29_2 C7_2 1_555 1_555
O30_2 C8_2 1_555 1_555
O31_2 C9_2 1_555 1_555
O33_2 C11_2 1_555 1_555
O34_2 C12_2 1_555 1_555
O38_2 Zn13_2 1_555 1_555
C5_2 O5_2 1_555 1_555
C6_2 C17_2 1_555 1_555
C7_2 O7_2 1_555 1_555
C8_2 C19_2 1_555 1_555
C9_2 O9_2 1_555 1_555
C11_2 O11_2 1_555 1_555
C12_2 C23_2 1_555 1_555
C16_2 N3_2 1_555 1_555
C17_2 N17 1_555 1_555
C18_2 N5_2 1_555 1_555
C19_2 N14 1_555 1_555
C20_2 N7_2 1_555 1_555
C22_2 N9_2 1_555 1_555
C23_2 N10_2 1_555 1_555
C26_2 N3_2 1_555 1_555
C27_2 N5_2 1_555 1_555
C28_4 N7_2 1_555 1_555
C29_2 N9_2 1_555 1_555
H2_2 C26_2 1_555 1_555
H3_2 C27_2 1_555 1_555
H4_4 C28_4 1_555 1_555
H5_2 C29_2 1_555 1_555
N17 C26_2 1_555 1_555
N14 C27_2 1_555 1_555
N10_2 C29_2 1_555 1_555
Zn12_2 O5_2 1_555 1_555
Zn12_2 O22_2 1_555 1_555
Zn13_2 O24_2 1_555 1_555
Zn14_2 O7_2 1_555 1_555
Zn17 O18 1_555 1_555
Zn17 O38_2 1_555 1_555
C5_2 C16_2 1_555 1_555
C7_2 C18_2 1_555 1_555
C9_2 C20_2 1_555 1_555
C11_2 C22_2 1_555 1_555
C16_2 C17_2 1_555 1_555
C18_2 C19_2 1_555 1_555
C22_2 C23_2 1_555 1_555
H1_4 C3_4 1_555 1_555
N2_2 C3_4 1_555 1_555
N11_2 Zn3_2 1_555 1_555
N12_2 Zn10_2 1_555 1_555
N13_2 Zn3_2 1_555 1_555
Zn3_2 N2_2 1_555 1_555
Zn10_2 O14_2 1_555 1_555
Zn11_2 O4_2 1_555 1_555
Zn19_2 O13_2 1_555 1_555
Zn20_2 O14_2 1_555 1_555
O4_2 Zn3_2 1_555 1_555
O13_2 Zn3_2 1_555 1_555
O14_2 C14_2 1_555 1_555
O15_2 Zn3_2 1_555 1_555
O20_2 Zn11_2 1_555 1_555
O21_2 Zn11_2 1_555 1_555
O26_2 C4_2 1_555 1_555
O35_2 C13_2 1_555 1_555
O36_2 C14_2 1_555 1_555
O37_2 Zn11_2 1_555 1_555
C4_2 O4_2 1_555 1_555
C13_2 O13_2 1_555 1_555
C14_2 C25_2 1_555 1_555
C24_2 N11_2 1_555 1_555
C25_2 N12_2 1_555 1_555
C30_2 N11_2 1_555 1_555
H6_2 C30_2 1_555 1_555
N2_2 C15_2 1_555 1_555
N12_2 C30_2 1_555 1_555
Zn19_2 O37_2 1_555 1_555
C4_2 C15_2 1_555 1_555
C13_2 C24_2 1_555 1_555
C24_2 C25_2 1_555 1_555
H1_5 C3_5 1_555 1_555
N15 C3_5 1_555 1_555
O26_3 C4_3 1_555 1_555
C4_3 O17 1_555 1_555
N15 C15_3 1_555 1_555
C4_3 C15_3 1_555 1_555
N1_3 Zn10 1_555 1_555
Zn10 O1_3 1_555 1_555
Zn2_3 O1_3 1_555 1_555
O1_3 C1_3 1_555 1_555
O2_3 C1_3 1_555 1_555
O3_3 Zn2_3 1_555 1_555
C1_3 C2_3 1_555 1_555
C2_3 N1_3 1_555 1_555
C3_6 N1_3 1_555 1_555
H1_6 C3_6 1_555 1_555
N5_3 Zn10 1_555 1_555
N7_3 Zn6_3 1_555 1_555
N9_3 Zn8_3 1_555 1_555
N10_3 Zn9_3 1_555 1_555
Zn6_3 O9_3 1_555 1_555
Zn8_3 O11_3 1_555 1_555
Zn9_3 O21 1_555 1_555
Zn20 O3_3 1_555 1_555
Zn14_3 O3_3 1_555 1_555
Zn15_3 O3_3 1_555 1_555
Zn16_3 O15_2 1_555 1_555
O7_3 Zn10 1_555 1_555
O15_2 C8_3 1_555 1_555
O9_3 Zn2_3 1_555 1_555
O11_3 Zn2_3 1_555 1_555
O21 C12_3 1_555 1_555
O22_3 Zn8_3 1_555 1_555
O23_3 Zn20 1_555 1_555
O24_3 Zn9_3 1_555 1_555
O25_3 Zn19 1_555 1_555
O29_3 C7_3 1_555 1_555
O30_3 C8_3 1_555 1_555
O31_3 C9_3 1_555 1_555
O33_3 C11_3 1_555 1_555
O34_3 C12_3 1_555 1_555
C7_3 O7_3 1_555 1_555
C8_3 C19_3 1_555 1_555
C9_3 O9_3 1_555 1_555
C11_3 O11_3 1_555 1_555
C12_3 C23_3 1_555 1_555
C18_3 N5_3 1_555 1_555
C19_3 N13_2 1_555 1_555
C20_3 N7_3 1_555 1_555
C22_3 N9_3 1_555 1_555
C23_3 N10_3 1_555 1_555
C27_3 N5_3 1_555 1_555
C28_5 N7_3 1_555 1_555
C29_3 N9_3 1_555 1_555
H3_3 C27_3 1_555 1_555
H4_5 C28_5 1_555 1_555
H5_3 C29_3 1_555 1_555
N13_2 C27_3 1_555 1_555
N10_3 C29_3 1_555 1_555
Zn20 O22_3 1_555 1_555
Zn19 O24_3 1_555 1_555
Zn14_3 O7_3 1_555 1_555
C7_3 C18_3 1_555 1_555
C9_3 C20_3 1_555 1_555
C11_3 C22_3 1_555 1_555
C18_3 C19_3 1_555 1_555
C22_3 C23_3 1_555 1_555
N8_3 Zn7_3 1_555 1_555
Zn7_3 O20_2 1_555 1_555
O20_2 C10_3 1_555 1_555
O32_3 C10_3 1_555 1_555
C10_3 C21_3 1_555 1_555
C21_3 N8_3 1_555 1_555
H4_6 C28_6 1_555 1_555
N8_3 C28_6 1_555 1_555
N8_4 Zn7_4 1_555 1_555
Zn7_4 O20 1_555 1_555
O20 C10_4 1_555 1_555
O32_4 C10_4 1_555 1_555
C10_4 C21_4 1_555 1_555
C21_4 N8_4 1_555 1_555
H4_7 C28_7 1_555 1_555
N8_4 C28_7 1_555 1_555
H1_7 C3_7 1_555 1_555
N16 C3_7 1_555 1_555
O26_4 C4_4 1_555 1_555
C4_4 O18 1_555 1_555
N16 C15_4 1_555 1_555
C4_4 C15_4 1_555 1_555
N1_4 Zn10_2 1_555 1_555
Zn10_2 O1_4 1_555 1_555
Zn2_4 O1_4 1_555 1_555
O1_4 C1_4 1_555 1_555
O2_4 C1_4 1_555 1_555
O3_4 Zn2_4 1_555 1_555
C1_4 C2_4 1_555 1_555
C2_4 N1_4 1_555 1_555
C3_8 N1_4 1_555 1_555
H1_8 C3_8 1_555 1_555
N5_4 Zn10_2 1_555 1_555
N7_4 Zn6_4 1_555 1_555
N9_4 Zn8_4 1_555 1_555
N10_4 Zn9_4 1_555 1_555
Zn6_4 O9_4 1_555 1_555
Zn8_4 O11_4 1_555 1_555
Zn9_4 O21_2 1_555 1_555
Zn20_2 O3_4 1_555 1_555
Zn14_4 O3_4 1_555 1_555
Zn15_4 O3_4 1_555 1_555
Zn16_4 O15 1_555 1_555
O7_4 Zn10_2 1_555 1_555
O15 C8_4 1_555 1_555
O9_4 Zn2_4 1_555 1_555
O11_4 Zn2_4 1_555 1_555
O21_2 C12_4 1_555 1_555
O22_4 Zn8_4 1_555 1_555
O23_4 Zn20_2 1_555 1_555
O24_4 Zn9_4 1_555 1_555
O25_4 Zn19_2 1_555 1_555
O29_4 C7_4 1_555 1_555
O30_4 C8_4 1_555 1_555
O31_4 C9_4 1_555 1_555
O33_4 C11_4 1_555 1_555
O34_4 C12_4 1_555 1_555
C7_4 O7_4 1_555 1_555
C8_4 C19_4 1_555 1_555
C9_4 O9_4 1_555 1_555
C11_4 O11_4 1_555 1_555
C12_4 C23_4 1_555 1_555
C18_4 N5_4 1_555 1_555
C19_4 N13 1_555 1_555
C20_4 N7_4 1_555 1_555
C22_4 N9_4 1_555 1_555
C23_4 N10_4 1_555 1_555
C27_4 N5_4 1_555 1_555
C28_8 N7_4 1_555 1_555
C29_4 N9_4 1_555 1_555
H3_4 C27_4 1_555 1_555
H4_8 C28_8 1_555 1_555
H5_4 C29_4 1_555 1_555
N13 C27_4 1_555 1_555
N10_4 C29_4 1_555 1_555
Zn20_2 O22_4 1_555 1_555
Zn19_2 O24_4 1_555 1_555
Zn14_4 O7_4 1_555 1_555
C7_4 C18_4 1_555 1_555
C9_4 C20_4 1_555 1_555
C11_4 C22_4 1_555 1_555
C18_4 C19_4 1_555 1_555
C22_4 C23_4 1_555 1_555
N1_5 Zn1_3 1_555 1_555
Zn1_3 O1_5 1_555 1_555
Zn14 O1_5 1_555 1_555
O1_5 C1_5 1_555 1_555
O2_5 C1_5 1_555 1_555
C1_5 C2_5 1_555 1_555
C2_5 N1_5 1_555 1_555
C3_9 N1_5 1_555 1_555
H1_9 C3_9 1_555 1_555
N3_3 Zn1_3 1_555 1_555
N4_2 Zn4_2 1_555 1_555
N5_5 Zn1_3 1_555 1_555
N6_2 Zn5_2 1_555 1_555
N7_5 Zn6 1_555 1_555
N14_2 Zn4_2 1_555 1_555
N15_2 Zn4_2 1_555 1_555
N16_2 Zn5_2 1_555 1_555
N17_2 Zn5_2 1_555 1_555
Zn4_2 O25_2 1_555 1_555
Zn5_2 O8_2 1_555 1_555
Zn6 O9_5 1_555 1_555
Zn16_5 O8_2 1_555 1_555
O23 Zn1_3 1_555 1_555
O25_2 C6_3 1_555 1_555
O7_5 Zn1_3 1_555 1_555
O8_2 C8_5 1_555 1_555
O9_5 Zn14 1_555 1_555
O16_2 Zn4_2 1_555 1_555
O17_2 Zn4_2 1_555 1_555
O18_2 Zn5_2 1_555 1_555
O25_3 Zn5_2 1_555 1_555
O27_3 C5_3 1_555 1_555
O28_3 C6_3 1_555 1_555
O29_5 C7_5 1_555 1_555
O30_5 C8_5 1_555 1_555
O31_5 C9_5 1_555 1_555
C5_3 O23 1_555 1_555
C6_3 C17_3 1_555 1_555
C7_5 O7_5 1_555 1_555
C8_5 C19_5 1_555 1_555
C9_5 O9_5 1_555 1_555
C16_3 N3_3 1_555 1_555
C17_3 N4_2 1_555 1_555
C18_5 N5_5 1_555 1_555
C19_5 N6_2 1_555 1_555
C20_5 N7_5 1_555 1_555
C26_3 N3_3 1_555 1_555
C27_5 N5_5 1_555 1_555
C28_9 N7_5 1_555 1_555
H2_3 C26_3 1_555 1_555
H3_5 C27_5 1_555 1_555
H4_9 C28_9 1_555 1_555
N4_2 C26_3 1_555 1_555
N6_2 C27_5 1_555 1_555
Zn15 O7_5 1_555 1_555
Zn16 O17_2 1_555 1_555
Zn16 O38_2 1_555 1_555
C5_3 C16_3 1_555 1_555
C7_5 C18_5 1_555 1_555
C9_5 C20_5 1_555 1_555
C16_3 C17_3 1_555 1_555
C18_5 C19_5 1_555 1_555
N8_5 Zn7_4 1_555 1_555
Zn7_4 O10_3 1_555 1_555
Zn16_4 O10_3 1_555 1_555
O10_3 C10_5 1_555 1_555
O32_5 C10_5 1_555 1_555
C10_5 C21_5 1_555 1_555
C21_5 N8_5 1_555 1_555
H4_10 C28_10 1_555 1_555
N8_5 C28_10 1_555 1_555
H1_10 C3_10 1_555 1_555
N2_3 C3_10 1_555 1_555
N11_3 Zn3_3 1_555 1_555
N12_3 Zn10_3 1_555 1_555
N13_3 Zn3_3 1_555 1_555
Zn3_3 N2_3 1_555 1_555
Zn10_3 O23_2 1_555 1_555
Zn16_2 O4_3 1_555 1_555
O4_3 Zn3_3 1_555 1_555
O25 Zn3_3 1_555 1_555
O23_2 C14_3 1_555 1_555
O15_3 Zn3_3 1_555 1_555
O20_3 Zn16_2 1_555 1_555
O26_5 C4_5 1_555 1_555
O35_3 C13_3 1_555 1_555
O36_3 C14_3 1_555 1_555
O38 Zn16_2 1_555 1_555
C4_5 O4_3 1_555 1_555
C13_3 O25 1_555 1_555
C14_3 C25_3 1_555 1_555
C24_3 N11_3 1_555 1_555
C25_3 N12_3 1_555 1_555
C30_3 N11_3 1_555 1_555
H6_3 C30_3 1_555 1_555
N2_3 C15_5 1_555 1_555
N12_3 C30_3 1_555 1_555
C4_5 C15_5 1_555 1_555
C13_3 C24_3 1_555 1_555
C24_3 C25_3 1_555 1_555
N8_6 Zn7 1_555 1_555
Zn7 O10_4 1_555 1_555
Zn16 O10_4 1_555 1_555
O10_4 C10_6 1_555 1_555
O32_6 C10_6 1_555 1_555
C10_6 C21_6 1_555 1_555
C21_6 N8_6 1_555 1_555
H4_11 C28_11 1_555 1_555
N8_6 C28_11 1_555 1_555
N1_6 Zn1_4 1_555 1_555
Zn1_4 O1_6 1_555 1_555
Zn14_4 O1_6 1_555 1_555
O1_6 C1_6 1_555 1_555
O2_6 C1_6 1_555 1_555
C1_6 C2_6 1_555 1_555
C2_6 N1_6 1_555 1_555
C3_11 N1_6 1_555 1_555
H1_11 C3_11 1_555 1_555
N3_4 Zn1_4 1_555 1_555
N5_6 Zn1_4 1_555 1_555
N7_6 Zn6_4 1_555 1_555
Zn6_4 O9_6 1_555 1_555
Zn16_6 O16_2 1_555 1_555
O23_4 Zn1_4 1_555 1_555
O25_3 C6_4 1_555 1_555
O7_6 Zn1_4 1_555 1_555
O16_2 C8_6 1_555 1_555
O9_6 Zn14_4 1_555 1_555
O27_4 C5_4 1_555 1_555
O28_4 C6_4 1_555 1_555
O29_6 C7_6 1_555 1_555
O30_6 C8_6 1_555 1_555
O31_6 C9_6 1_555 1_555
C5_4 O23_4 1_555 1_555
C6_4 C17_4 1_555 1_555
C7_6 O7_6 1_555 1_555
C8_6 C19_6 1_555 1_555
C9_6 O9_6 1_555 1_555
C16_4 N3_4 1_555 1_555
C17_4 N17_2 1_555 1_555
C18_6 N5_6 1_555 1_555
C19_6 N14_2 1_555 1_555
C20_6 N7_6 1_555 1_555
C26_4 N3_4 1_555 1_555
C27_6 N5_6 1_555 1_555
C28_12 N7_6 1_555 1_555
H2_4 C26_4 1_555 1_555
H3_6 C27_6 1_555 1_555
H4_12 C28_12 1_555 1_555
N17_2 C26_4 1_555 1_555
N14_2 C27_6 1_555 1_555
Zn15_4 O7_6 1_555 1_555
Zn16_4 O18_2 1_555 1_555
Zn16_4 O37 1_555 1_555
C5_4 C16_4 1_555 1_555
C7_6 C18_6 1_555 1_555
C9_6 C20_6 1_555 1_555
C16_4 C17_4 1_555 1_555
C18_6 C19_6 1_555 1_555
H1_12 C3_12 1_555 1_555
N2_4 C3_12 1_555 1_555
N11_4 Zn3_4 1_555 1_555
N12_4 Zn10_4 1_555 1_555
N13_4 Zn3_4 1_555 1_555
Zn3_4 N2_4 1_555 1_555
Zn10_4 O23_3 1_555 1_555
Zn16_3 O4_4 1_555 1_555
O4_4 Zn3_4 1_555 1_555
O25_4 Zn3_4 1_555 1_555
O23_3 C14_4 1_555 1_555
O15_4 Zn3_4 1_555 1_555
O20_4 Zn16_3 1_555 1_555
O26_6 C4_6 1_555 1_555
O35_4 C13_4 1_555 1_555
O36_4 C14_4 1_555 1_555
O37_2 Zn16_3 1_555 1_555
C4_6 O4_4 1_555 1_555
C13_4 O25_4 1_555 1_555
C14_4 C25_4 1_555 1_555
C24_4 N11_4 1_555 1_555
C25_4 N12_4 1_555 1_555
C30_4 N11_4 1_555 1_555
H6_4 C30_4 1_555 1_555
N2_4 C15_6 1_555 1_555
N12_4 C30_4 1_555 1_555
C4_6 C15_6 1_555 1_555
C13_4 C24_4 1_555 1_555
C24_4 C25_4 1_555 1_555
H1_13 C3_13 1_555 1_555
N15_2 C3_13 1_555 1_555
O26_7 C4_7 1_555 1_555
C4_7 O17_2 1_555 1_555
N15_2 C15_7 1_555 1_555
C4_7 C15_7 1_555 1_555
N1_7 Zn10_3 1_555 1_555
Zn10_3 O1_7 1_555 1_555
Zn14_2 O1_7 1_555 1_555
O1_7 C1_7 1_555 1_555
O2_7 C1_7 1_555 1_555
C1_7 C2_7 1_555 1_555
C2_7 N1_7 1_555 1_555
C3_14 N1_7 1_555 1_555
H1_14 C3_14 1_555 1_555
N5_7 Zn10_3 1_555 1_555
N7_7 Zn6_2 1_555 1_555
Zn6_2 O9_7 1_555 1_555
Zn16_7 O15_4 1_555 1_555
O7_7 Zn10_3 1_555 1_555
O15_4 C8_7 1_555 1_555
O9_7 Zn14_2 1_555 1_555
O29_7 C7_7 1_555 1_555
O30_7 C8_7 1_555 1_555
O31_7 C9_7 1_555 1_555
C7_7 O7_7 1_555 1_555
C8_7 C19_7 1_555 1_555
C9_7 O9_7 1_555 1_555
C18_7 N5_7 1_555 1_555
C19_7 N13_4 1_555 1_555
C20_7 N7_7 1_555 1_555
C27_7 N5_7 1_555 1_555
C28_13 N7_7 1_555 1_555
H3_7 C27_7 1_555 1_555
H4_13 C28_13 1_555 1_555
N13_4 C27_7 1_555 1_555
Zn15_2 O7_7 1_555 1_555
C7_7 C18_7 1_555 1_555
C9_7 C20_7 1_555 1_555
C18_7 C19_7 1_555 1_555
N8_7 Zn7_3 1_555 1_555
Zn7_3 O20_4 1_555 1_555
O20_4 C10_7 1_555 1_555
O32_7 C10_7 1_555 1_555
C10_7 C21_7 1_555 1_555
C21_7 N8_7 1_555 1_555
H4_14 C28_14 1_555 1_555
N8_7 C28_14 1_555 1_555
H1_15 C3_15 1_555 1_555
N16_2 C3_15 1_555 1_555
O26_8 C4_8 1_555 1_555
C4_8 O18_2 1_555 1_555
N16_2 C15_8 1_555 1_555
C4_8 C15_8 1_555 1_555
N8_8 Zn7_2 1_555 1_555
Zn7_2 O20_3 1_555 1_555
O20_3 C10_8 1_555 1_555
O32_8 C10_8 1_555 1_555
C10_8 C21_8 1_555 1_555
C21_8 N8_8 1_555 1_555
H4_15 C28_15 1_555 1_555
N8_8 C28_15 1_555 1_555
N1_8 Zn10_4 1_555 1_555
Zn10_4 O1_8 1_555 1_555
Zn14_3 O1_8 1_555 1_555
O1_8 C1_8 1_555 1_555
O2_8 C1_8 1_555 1_555
C1_8 C2_8 1_555 1_555
C2_8 N1_8 1_555 1_555
C3_16 N1_8 1_555 1_555
H1_16 C3_16 1_555 1_555
N5_8 Zn10_4 1_555 1_555
N7_8 Zn6_3 1_555 1_555
Zn6_3 O9_8 1_555 1_555
Zn16_8 O15_3 1_555 1_555
O7_8 Zn10_4 1_555 1_555
O15_3 C8_8 1_555 1_555
O9_8 Zn14_3 1_555 1_555
O29_8 C7_8 1_555 1_555
O30_8 C8_8 1_555 1_555
O31_8 C9_8 1_555 1_555
C7_8 O7_8 1_555 1_555
C8_8 C19_8 1_555 1_555
C9_8 O9_8 1_555 1_555
C18_8 N5_8 1_555 1_555
C19_8 N13_3 1_555 1_555
C20_8 N7_8 1_555 1_555
C27_8 N5_8 1_555 1_555
C28_16 N7_8 1_555 1_555
H3_8 C27_8 1_555 1_555
H4_16 C28_16 1_555 1_555
N13_3 C27_8 1_555 1_555
Zn15_3 O7_8 1_555 1_555
C7_8 C18_8 1_555 1_555
C9_8 C20_8 1_555 1_555
C18_8 C19_8 1_555 1_555
N1_9 Zn8 1_555 1_555
Zn8 O1_9 1_555 1_555
Zn15 O1_9 1_555 1_555
O1_9 C1_9 1_555 1_555
O2_9 C1_9 1_555 1_555
C1_9 C2_9 1_555 1_555
C2_9 N1_9 1_555 1_555
C3_17 N1_9 1_555 1_555
H1_17 C3_17 1_555 1_555
N3_5 Zn8 1_555 1_555
N4_3 Zn9_3 1_555 1_555
N7_9 Zn6 1_555 1_555
N15_3 Zn9_3 1_555 1_555
N16_3 Zn9 1_555 1_555
N17_3 Zn9 1_555 1_555
Zn6 O9_9 1_555 1_555
O24_3 C6_5 1_555 1_555
O9_9 Zn15 1_555 1_555
O17_3 Zn9_3 1_555 1_555
O18_3 Zn9 1_555 1_555
O27_5 C5_5 1_555 1_555
O28_5 C6_5 1_555 1_555
O31_9 C9_9 1_555 1_555
C5_5 O22 1_555 1_555
C6_5 C17_5 1_555 1_555
C9_9 O9_9 1_555 1_555
C16_5 N3_5 1_555 1_555
C17_5 N4_3 1_555 1_555
C20_9 N7_9 1_555 1_555
C26_5 N3_5 1_555 1_555
C28_17 N7_9 1_555 1_555
H2_5 C26_5 1_555 1_555
H4_17 C28_17 1_555 1_555
N4_3 C26_5 1_555 1_555
Zn16_5 O17_3 1_555 1_555
Zn16_5 O37 1_555 1_555
C5_5 C16_5 1_555 1_555
C9_9 C20_9 1_555 1_555
C16_5 C17_5 1_555 1_555
H1_18 C3_18 1_555 1_555
N2_5 C3_18 1_555 1_555
N11_5 Zn9_2 1_555 1_555
N12_5 Zn8_4 1_555 1_555
Zn9_2 N2_5 1_555 1_555
Zn16_6 O4_5 1_555 1_555
O4_5 Zn9_2 1_555 1_555
O22_4 C14_5 1_555 1_555
O20_5 Zn16_6 1_555 1_555
O26_9 C4_9 1_555 1_555
O35_5 C13_5 1_555 1_555
O36_5 C14_5 1_555 1_555
O38_2 Zn16_6 1_555 1_555
C4_9 O4_5 1_555 1_555
C13_5 O24_2 1_555 1_555
C14_5 C25_5 1_555 1_555
C24_5 N11_5 1_555 1_555
C25_5 N12_5 1_555 1_555
C30_5 N11_5 1_555 1_555
H6_5 C30_5 1_555 1_555
N2_5 C15_9 1_555 1_555
N12_5 C30_5 1_555 1_555
C4_9 C15_9 1_555 1_555
C13_5 C24_5 1_555 1_555
C24_5 C25_5 1_555 1_555
N8_9 Zn7_2 1_555 1_555
Zn7_2 O10_5 1_555 1_555
Zn16_8 O10_5 1_555 1_555
O10_5 C10_9 1_555 1_555
O32_9 C10_9 1_555 1_555
C10_9 C21_9 1_555 1_555
C21_9 N8_9 1_555 1_555
H4_18 C28_18 1_555 1_555
N8_9 C28_18 1_555 1_555
N8_10 Zn7_4 1_555 1_555
Zn7_4 O10_6 1_555 1_555
Zn16_5 O10_6 1_555 1_555
O10_6 C10_10 1_555 1_555
O32_10 C10_10 1_555 1_555
C10_10 C21_10 1_555 1_555
C21_10 N8_10 1_555 1_555
H4_19 C28_19 1_555 1_555
N8_10 C28_19 1_555 1_555
N1_10 Zn8_3 1_555 1_555
Zn8_3 O1_10 1_555 1_555
Zn15_3 O1_10 1_555 1_555
O1_10 C1_10 1_555 1_555
O2_10 C1_10 1_555 1_555
C1_10 C2_10 1_555 1_555
C2_10 N1_10 1_555 1_555
C3_19 N1_10 1_555 1_555
H1_19 C3_19 1_555 1_555
N3_6 Zn8_3 1_555 1_555
N7_10 Zn6_3 1_555 1_555
Zn6_3 O9_10 1_555 1_555
O24 C6_6 1_555 1_555
O9_10 Zn15_3 1_555 1_555
O27_6 C5_6 1_555 1_555
O28_6 C6_6 1_555 1_555
O31_10 C9_10 1_555 1_555
C5_6 O22_3 1_555 1_555
C6_6 C17_6 1_555 1_555
C9_10 O9_10 1_555 1_555
C16_6 N3_6 1_555 1_555
C17_6 N17_3 1_555 1_555
C20_10 N7_10 1_555 1_555
C26_6 N3_6 1_555 1_555
C28_20 N7_10 1_555 1_555
H2_6 C26_6 1_555 1_555
H4_20 C28_20 1_555 1_555
N17_3 C26_6 1_555 1_555
Zn16_8 O18_3 1_555 1_555
Zn16_8 O38 1_555 1_555
C5_6 C16_6 1_555 1_555
C9_10 C20_10 1_555 1_555
C16_6 C17_6 1_555 1_555
H1_20 C3_20 1_555 1_555
N2_6 C3_20 1_555 1_555
N11_6 Zn9_4 1_555 1_555
N12_6 Zn8_2 1_555 1_555
Zn9_4 N2_6 1_555 1_555
Zn16_7 O4_6 1_555 1_555
O4_6 Zn9_4 1_555 1_555
O22_2 C14_6 1_555 1_555
O20_6 Zn16_7 1_555 1_555
O26_10 C4_10 1_555 1_555
O35_6 C13_6 1_555 1_555
O36_6 C14_6 1_555 1_555
O37_2 Zn16_7 1_555 1_555
C4_10 O4_6 1_555 1_555
C13_6 O24_4 1_555 1_555
C14_6 C25_6 1_555 1_555
C24_6 N11_6 1_555 1_555
C25_6 N12_6 1_555 1_555
C30_6 N11_6 1_555 1_555
H6_6 C30_6 1_555 1_555
N2_6 C15_10 1_555 1_555
N12_6 C30_6 1_555 1_555
C4_10 C15_10 1_555 1_555
C13_6 C24_6 1_555 1_555
C24_6 C25_6 1_555 1_555
H1_21 C3_21 1_555 1_555
N15_3 C3_21 1_555 1_555
O26_11 C4_11 1_555 1_555
C4_11 O17_3 1_555 1_555
N15_3 C15_11 1_555 1_555
C4_11 C15_11 1_555 1_555
N1_11 Zn8_4 1_555 1_555
Zn8_4 O1_11 1_555 1_555
Zn15_4 O1_11 1_555 1_555
O1_11 C1_11 1_555 1_555
O2_11 C1_11 1_555 1_555
C1_11 C2_11 1_555 1_555
C2_11 N1_11 1_555 1_555
C3_22 N1_11 1_555 1_555
H1_22 C3_22 1_555 1_555
N7_11 Zn6_4 1_555 1_555
Zn6_4 O9_11 1_555 1_555
O9_11 Zn15_4 1_555 1_555
O31_11 C9_11 1_555 1_555
C9_11 O9_11 1_555 1_555
C20_11 N7_11 1_555 1_555
C28_21 N7_11 1_555 1_555
H4_21 C28_21 1_555 1_555
C9_11 C20_11 1_555 1_555
N8_11 Zn7_3 1_555 1_555
Zn7_3 O20_6 1_555 1_555
O20_6 C10_11 1_555 1_555
O32_11 C10_11 1_555 1_555
C10_11 C21_11 1_555 1_555
C21_11 N8_11 1_555 1_555
H4_22 C28_22 1_555 1_555
N8_11 C28_22 1_555 1_555
N8_12 Zn7 1_555 1_555
Zn7 O20_5 1_555 1_555
O20_5 C10_12 1_555 1_555
O32_12 C10_12 1_555 1_555
C10_12 C21_12 1_555 1_555
C21_12 N8_12 1_555 1_555
H4_23 C28_23 1_555 1_555
N8_12 C28_23 1_555 1_555
H1_23 C3_23 1_555 1_555
N16_3 C3_23 1_555 1_555
O26_12 C4_12 1_555 1_555
C4_12 O18_3 1_555 1_555
N16_3 C15_12 1_555 1_555
C4_12 C15_12 1_555 1_555
N1_12 Zn8_2 1_555 1_555
Zn8_2 O1_12 1_555 1_555
Zn15_2 O1_12 1_555 1_555
O1_12 C1_12 1_555 1_555
O2_12 C1_12 1_555 1_555
C1_12 C2_12 1_555 1_555
C2_12 N1_12 1_555 1_555
C3_24 N1_12 1_555 1_555
H1_24 C3_24 1_555 1_555
N7_12 Zn6_2 1_555 1_555
Zn6_2 O9_12 1_555 1_555
O9_12 Zn15_2 1_555 1_555
O31_12 C9_12 1_555 1_555
C9_12 O9_12 1_555 1_555
C20_12 N7_12 1_555 1_555
C28_24 N7_12 1_555 1_555
H4_24 C28_24 1_555 1_555
C9_12 C20_12 1_555 1_555

#END
