
###############################################################################
#
# This file contains modified crystal structure data generated from the
# MOF subset of the Cambridge Structural Database (CSD) v543 
# hosted by the Cambridge Crystallographic Data Centre (CCDC).
#
# This work is licensed under the Creative Commons
# Attribution-NonCommercial-ShareAlike 4.0 International License.
# To view a copy of this license, visit
# http://creativecommons.org/licenses/by-nc-sa/4.0/
# or send a letter to
# Creative Commons, PO Box 1866, Mountain View, CA 94042, USA.
#
# CIF created using the CSD Python API on 29 September 2022
# The structure has been converted into the P1 space group
# The structure has a 3D framework
# The original CSD entry FUWYII03 is in the rhombohedral crystal system
# The framework has been calculated to contain at least 10.0% void space
# The void calculation uses a probe of radius 1.32A, grid spacing 0.4
#
###############################################################################

data_FUWYII03
_chemical_formula_moiety         '(C648 H576 Cu32 N72 O144)n'
_symmetry_cell_setting           triclinic
_symmetry_space_group_name_H-M   'P 1'
_symmetry_Int_Tables_number      1
_space_group_name_Hall           'P 1'
loop_
_symmetry_equiv_pos_site_id
_symmetry_equiv_pos_as_xyz
1 x,y,z
_cell_length_a                   49.169(3)
_cell_length_b                   49.169(3)
_cell_length_c                   7.7897(5)
_cell_angle_alpha                90
_cell_angle_beta                 90
_cell_angle_gamma                120
_cell_volume                     16309.3
loop_
_atom_site_label
_atom_site_type_symbol
_atom_site_fract_x
_atom_site_fract_y
_atom_site_fract_z
_atom_site_U_iso_or_equiv
_atom_site_thermal_displace_type
Cu2 Cu 0.41297(11) 0.32643(10) 0.3343(5) 0.0167 Uiso
C1 C 0.6481(7) 0.4043(8) 0.006(4) 0.0450 Uiso
C10 C 0.5842(8) 0.5161(6) 0.687(3) 0.0330 Uiso
C11 C 0.6028(8) 0.5288(5) 0.520(3) 0.0320 Uiso
C12 C 0.6050(7) 0.5076(4) 0.408(3) 0.0310 Uiso
C13 C 0.6221(6) 0.5154(4) 0.259(3) 0.0300 Uiso
C14 C 0.6146(3) 0.4904(4) 0.1259(19) 0.0300 Uiso
C15 C 0.5928(3) 0.4592(4) 0.156(2) 0.0300 Uiso
C16 C 0.5841(3) 0.4382(4) 0.023(2) 0.0310 Uiso
C19 C 0.4335(7) 0.4099(7) 0.663(3) 0.0340 Uiso
C20 C 0.4198(6) 0.3842(6) 0.527(3) 0.0340 Uiso
C21 C 0.3975(7) 0.3838(7) 0.413(3) 0.0340 Uiso
C22 C 0.3871(7) 0.3667(5) 0.265(2) 0.0340 Uiso
C23 C 0.3742(2) 0.3782(3) 0.1247(16) 0.0340 Uiso
C24 C 0.3704(2) 0.4037(3) 0.1516(19) 0.0340 Uiso
C25 C 0.3626(2) 0.4160(3) 0.015(2) 0.0340 Uiso
C33 C 0.4973(4) 0.3597(2) 0.044(2) 0.0370 Uiso
C34 C 0.4757(5) 0.3491(2) 0.1737(18) 0.0370 Uiso
N2 N 0.4468(5) 0.3441(2) 0.151(2) 0.0360 Uiso
O3 O 0.6145(6) 0.5576(4) 0.495(3) 0.0320 Uiso
O4 O 0.6430(5) 0.5429(4) 0.213(2) 0.0290 Uiso
O5 O 0.4341(5) 0.3694(5) 0.505(3) 0.0330 Uiso
O6 O 0.3917(6) 0.3443(5) 0.220(2) 0.0340 Uiso
H1 H 0.6706 0.4171 0.0072 0.0473 Uiso
H2 H 0.6396 0.4079 0.1091 0.0473 Uiso
H3 H 0.6424 0.3826 0.0006 0.0473 Uiso
H9 H 0.5737 0.4936 0.6889 0.0533 Uiso
H10 H 0.5994 0.5244 0.7779 0.0533 Uiso
H11 H 0.5690 0.5228 0.7019 0.0533 Uiso
H12 H 0.5935 0.4861 0.4396 0.0538 Uiso
H13 H 0.5839 0.4528 0.2672 0.0536 Uiso
H14 H 0.5684 0.4170 0.0425 0.0534 Uiso
H17 H 0.4221 0.4210 0.6616 0.0597 Uiso
H18 H 0.4557 0.4247 0.6588 0.0597 Uiso
H19 H 0.4287 0.3977 0.7660 0.0597 Uiso
H20 H 0.3863 0.3936 0.4540 0.0598 Uiso
H21 H 0.3735 0.4130 0.2618 0.0586 Uiso
H22 H 0.3597 0.4335 0.0318 0.0584 Uiso
H29 H 0.5177 0.3629 0.0650 0.0589 Uiso
H30 H 0.4811 0.3448 0.2835 0.0592 Uiso
Cu4 Cu 0.65976(10) 0.58013(15) 0.3324(5) 0.0167 Uiso
N6 N 0.3787(4) 0.3084(2) 0.525(2) 0.0340 Uiso
O9 O 0.3902(7) 0.2812(6) 0.172(3) 0.0320 Uiso
O10 O 0.4334(6) 0.3097(5) 0.454(2) 0.0290 Uiso
Cu3 Cu 0.74631(11) 0.49881(16) 0.9898(6) 0.0286 Uiso
Cu1 Cu 0.91417(11) 0.07965(11) 0.3436(6) 0.0286 Uiso
C1_2 C 0.9814(7) 0.0710(8) 0.673(4) 0.0450 Uiso
C2 C 0.9674(5) 0.0783(7) 0.517(3) 0.0440 Uiso
C3 C 0.9875(5) 0.1038(6) 0.413(2) 0.0440 Uiso
C4 C 0.9795(5) 0.1113(8) 0.259(3) 0.0440 Uiso
C13_2 C 0.9554(6) 0.1821(4) 0.926(3) 0.0300 Uiso
C14_2 C 0.9479(3) 0.1571(4) 0.7926(19) 0.0300 Uiso
C15_2 C 0.9261(3) 0.1259(4) 0.823(2) 0.0300 Uiso
C16_2 C 0.9174(3) 0.1049(4) 0.690(2) 0.0310 Uiso
C17 C 0.9509(4) 0.1448(5) 0.507(2) 0.0310 Uiso
C18 C 0.9600(4) 0.1663(5) 0.638(3) 0.0300 Uiso
C22_2 C 0.7204(7) 0.0334(5) 0.932(2) 0.0340 Uiso
C23_2 C 0.7075(2) 0.0449(3) 0.7914(16) 0.0340 Uiso
C24_2 C 0.7037(2) 0.0704(3) 0.8183(19) 0.0340 Uiso
C25_2 C 0.6959(2) 0.0827(3) 0.682(2) 0.0340 Uiso
C26 C 0.6952(2) 0.0456(4) 0.4993(18) 0.0340 Uiso
C27 C 0.7031(2) 0.0322(3) 0.6307(19) 0.0340 Uiso
C29 C 0.8610(5) 0.0840(6) 0.166(2) 0.0390 Uiso
C30 C 0.8402(4) 0.0591(6) 0.271(3) 0.0380 Uiso
C31 C 0.8477(4) 0.0495(7) 0.420(3) 0.0370 Uiso
C32 C 0.8224(4) 0.0321(2) 0.5516(17) 0.0370 Uiso
C33_2 C 0.8306(4) 0.0264(2) 0.711(2) 0.0370 Uiso
C34_2 C 0.8090(5) 0.0158(2) 0.8404(18) 0.0370 Uiso
C35 C 0.7719(4) 0.0162(2) 0.663(2) 0.0360 Uiso
C36 C 0.7927(4) 0.0270(2) 0.528(2) 0.0370 Uiso
N2_2 N 0.7801(5) 0.0108(2) 0.818(2) 0.0360 Uiso
N3 N 0.6916(2) 0.0704(4) 0.525(2) 0.0340 Uiso
N4 N 0.9300(4) 0.1147(5) 0.535(2) 0.0310 Uiso
O1 O 0.9382(5) 0.0627(6) 0.503(3) 0.0440 Uiso
O2 O 0.9524(5) 0.1069(7) 0.217(3) 0.0440 Uiso
O4_2 O 0.9763(5) 0.2096(4) 0.880(2) 0.0290 Uiso
O6_2 O 0.7250(6) 0.0110(5) 0.887(2) 0.0340 Uiso
O7 O 0.8899(5) 0.0999(5) 0.189(3) 0.0390 Uiso
O8 O 0.8752(4) 0.0569(6) 0.470(2) 0.0370 Uiso
H2_2 H 0.9729 0.0746 0.7758 0.0473 Uiso
H3_2 H 0.9757 0.0493 0.6673 0.0473 Uiso
H13_2 H 0.9172 0.1195 0.9339 0.0536 Uiso
H14_2 H 0.9017 0.0837 0.7092 0.0534 Uiso
H15 H 0.9596 0.1511 0.3951 0.0537 Uiso
H16 H 0.9759 0.1873 0.6160 0.0536 Uiso
H21_2 H 0.7068 0.0797 0.9285 0.0586 Uiso
H22_2 H 0.6930 0.1002 0.6985 0.0584 Uiso
H23 H 0.6920 0.0365 0.3882 0.0582 Uiso
H24 H 0.7058 0.0146 0.6112 0.0585 Uiso
H28 H 0.8193 0.0464 0.2310 0.0581 Uiso
H29_2 H 0.8510 0.0296 0.7317 0.0589 Uiso
H30_2 H 0.8144 0.0115 0.9502 0.0592 Uiso
H31 H 0.7513 0.0127 0.6447 0.0590 Uiso
H32 H 0.7867 0.0311 0.4191 0.0589 Uiso
Cu4_2 Cu 0.99310(10) 0.24679(15) 0.9990(5) 0.0167 Uiso
Cu5 Cu 0.67357(10) 0.08654(15) 0.3343(5) 0.0167 Uiso
N5 N 0.8984(5) 0.0456(5) 0.146(2) 0.0450 Uiso
O9_2 O 0.7236(7) 0.9478(6) 0.838(3) 0.0320 Uiso
C4_2 C 0.3129(5) 0.7779(8) 0.925(3) 0.0440 Uiso
C5 C 0.3374(4) 0.7927(2) 0.7865(18) 0.0450 Uiso
C6 C 0.3672(4) 0.7969(2) 0.807(2) 0.0450 Uiso
C7 C 0.3876(4) 0.8076(3) 0.671(3) 0.0450 Uiso
C8 C 0.3505(5) 0.8100(2) 0.4980(19) 0.0450 Uiso
C9 C 0.3292(4) 0.7993(2) 0.630(2) 0.0450 Uiso
C28 C 0.1829(7) 0.7529(8) 0.653(3) 0.0400 Uiso
C29_2 C 0.1944(5) 0.7506(6) 0.832(2) 0.0390 Uiso
C30_2 C 0.1736(4) 0.7257(6) 0.937(3) 0.0380 Uiso
N1 N 0.3790(5) 0.8139(2) 0.520(2) 0.0450 Uiso
O2_2 O 0.2858(5) 0.7735(7) 0.883(3) 0.0440 Uiso
O7_2 O 0.2233(5) 0.7665(5) 0.855(3) 0.0390 Uiso
H5 H 0.3737 0.7929 0.9145 0.0465 Uiso
H6 H 0.4083 0.8110 0.6840 0.0465 Uiso
H7 H 0.3446 0.8142 0.3893 0.0467 Uiso
H8 H 0.3086 0.7961 0.6135 0.0467 Uiso
H25 H 0.1604 0.7400 0.6492 0.0579 Uiso
H26 H 0.1888 0.7744 0.6319 0.0579 Uiso
H27 H 0.1921 0.7460 0.5679 0.0579 Uiso
H28_2 H 0.1527 0.7130 0.8976 0.0581 Uiso
Cu3_2 Cu 0.41298(11) 0.83214(16) 0.3231(6) 0.0286 Uiso
N5_2 N 0.2317(5) 0.7123(5) 0.813(2) 0.0450 Uiso
C1_3 C 0.5957(8) 0.2438(11) 0.006(4) 0.0450 Uiso
C10_2 C 0.4839(6) 0.0681(10) 0.687(3) 0.0330 Uiso
C11_2 C 0.4712(5) 0.0740(9) 0.520(3) 0.0320 Uiso
C12_2 C 0.4924(4) 0.0974(8) 0.408(3) 0.0310 Uiso
C13_3 C 0.4846(4) 0.1067(7) 0.259(3) 0.0300 Uiso
C14_3 C 0.5096(4) 0.1242(5) 0.1259(19) 0.0300 Uiso
C15_3 C 0.5408(4) 0.1336(5) 0.156(2) 0.0300 Uiso
C16_3 C 0.5618(4) 0.1459(5) 0.023(2) 0.0310 Uiso
C19_2 C 0.5901(7) 0.0236(10) 0.663(3) 0.0340 Uiso
C20_2 C 0.6158(6) 0.0356(8) 0.527(3) 0.0340 Uiso
C21_2 C 0.6162(7) 0.0137(10) 0.413(3) 0.0340 Uiso
C22_3 C 0.6333(5) 0.0204(9) 0.265(2) 0.0340 Uiso
C33_3 C 0.6403(2) 0.1376(4) 0.044(2) 0.0370 Uiso
C34_3 C 0.6509(2) 0.1266(5) 0.1737(18) 0.0370 Uiso
N2_3 N 0.6559(2) 0.1027(5) 0.151(2) 0.0360 Uiso
O3_2 O 0.4424(4) 0.0569(7) 0.495(3) 0.0320 Uiso
O4_3 O 0.4571(4) 0.1001(6) 0.213(2) 0.0290 Uiso
O5_2 O 0.6306(5) 0.0647(7) 0.505(3) 0.0330 Uiso
O6_3 O 0.6557(5) 0.0474(8) 0.220(2) 0.0340 Uiso
H1_2 H 0.5829 0.2535 0.0072 0.0473 Uiso
H2_3 H 0.5921 0.2317 0.1091 0.0473 Uiso
H3_3 H 0.6174 0.2598 0.0006 0.0473 Uiso
H9_2 H 0.5064 0.0801 0.6889 0.0533 Uiso
H10_2 H 0.4756 0.0750 0.7779 0.0533 Uiso
H11_2 H 0.4772 0.0462 0.7019 0.0533 Uiso
H12_2 H 0.5139 0.1074 0.4396 0.0538 Uiso
H13_3 H 0.5472 0.1311 0.2672 0.0536 Uiso
H14_3 H 0.5830 0.1514 0.0425 0.0534 Uiso
H17_2 H 0.5790 0.0011 0.6616 0.0597 Uiso
H18_2 H 0.5753 0.0310 0.6588 0.0597 Uiso
H19_2 H 0.6023 0.0310 0.7660 0.0597 Uiso
H29_3 H 0.6371 0.1548 0.0650 0.0589 Uiso
H30_3 H 0.6552 0.1363 0.2835 0.0592 Uiso
Cu4_3 Cu 0.41987(15) 0.07964(18) 0.3324(5) 0.0167 Uiso
O9_3 O 0.7188(6) 0.1091(9) 0.172(3) 0.0320 Uiso
O10_2 O 0.6903(5) 0.1238(8) 0.454(2) 0.0290 Uiso
Cu3_3 Cu 0.50119(16) 0.24751(19) 0.9898(6) 0.0286 Uiso
Cu1_2 Cu 0.92035(11) 0.83453(16) 0.3436(6) 0.0286 Uiso
C1_4 C 0.9290(8) 0.9105(11) 0.673(4) 0.0450 Uiso
C2_2 C 0.9217(7) 0.8892(9) 0.517(3) 0.0440 Uiso
C3_2 C 0.8962(6) 0.8838(8) 0.413(2) 0.0440 Uiso
C4_3 C 0.8887(8) 0.8683(9) 0.259(3) 0.0440 Uiso
C5_2 C 0.8739(2) 0.8780(4) 0.1199(18) 0.0450 Uiso
C6_2 C 0.8697(2) 0.9036(4) 0.141(2) 0.0450 Uiso
C7_2 C 0.8590(3) 0.9133(5) 0.005(3) 0.0450 Uiso
C13_4 C 0.8179(4) 0.7734(7) 0.926(3) 0.0300 Uiso
C14_4 C 0.8429(4) 0.7909(5) 0.7926(19) 0.0300 Uiso
C15_4 C 0.8741(4) 0.8003(5) 0.823(2) 0.0300 Uiso
C16_4 C 0.8951(4) 0.8126(5) 0.690(2) 0.0310 Uiso
C17_2 C 0.8552(5) 0.8062(6) 0.507(2) 0.0310 Uiso
C18_2 C 0.8337(5) 0.7938(6) 0.638(3) 0.0300 Uiso
C22_4 C 0.9666(5) 0.6871(9) 0.932(2) 0.0340 Uiso
C23_3 C 0.9551(3) 0.6627(4) 0.7914(16) 0.0340 Uiso
C24_3 C 0.9296(3) 0.6334(4) 0.8183(19) 0.0340 Uiso
C25_3 C 0.9173(3) 0.6133(4) 0.682(2) 0.0340 Uiso
C26_2 C 0.9544(4) 0.6497(4) 0.4993(18) 0.0340 Uiso
C27_2 C 0.9678(3) 0.6710(4) 0.6307(19) 0.0340 Uiso
C29_3 C 0.9160(6) 0.7771(8) 0.166(2) 0.0390 Uiso
C30_3 C 0.9409(6) 0.7812(7) 0.271(3) 0.0380 Uiso
C31_2 C 0.9505(7) 0.7983(8) 0.420(3) 0.0370 Uiso
C32_2 C 0.9679(2) 0.7904(4) 0.5516(17) 0.0370 Uiso
C33_4 C 0.9736(2) 0.8043(4) 0.711(2) 0.0370 Uiso
C34_4 C 0.9842(2) 0.7933(5) 0.8404(18) 0.0370 Uiso
C35_2 C 0.9838(2) 0.7558(4) 0.663(2) 0.0360 Uiso
C36_2 C 0.9730(2) 0.7658(4) 0.528(2) 0.0370 Uiso
N2_4 N 0.9892(2) 0.7694(5) 0.818(2) 0.0360 Uiso
N3_2 N 0.9296(4) 0.6213(4) 0.525(2) 0.0340 Uiso
N4_2 N 0.8853(5) 0.8154(6) 0.535(2) 0.0310 Uiso
O1_2 O 0.9373(6) 0.8756(8) 0.503(3) 0.0440 Uiso
O2_3 O 0.8931(7) 0.8456(9) 0.217(3) 0.0440 Uiso
O4_4 O 0.7904(4) 0.7668(6) 0.880(2) 0.0290 Uiso
O6_4 O 0.9890(5) 0.7141(8) 0.887(2) 0.0340 Uiso
O7_3 O 0.9001(5) 0.7901(7) 0.189(3) 0.0390 Uiso
O8_2 O 0.9431(6) 0.8184(7) 0.470(2) 0.0370 Uiso
H1_3 H 0.9162 0.9202 0.6739 0.0473 Uiso
H2_4 H 0.9254 0.8984 0.7758 0.0473 Uiso
H3_4 H 0.9507 0.9265 0.6673 0.0473 Uiso
H4 H 0.8844 0.8933 0.4485 0.0473 Uiso
H5_2 H 0.8737 0.9141 0.2479 0.0465 Uiso
H6_2 H 0.8556 0.9306 0.0174 0.0465 Uiso
H13_4 H 0.8805 0.7978 0.9339 0.0536 Uiso
H14_4 H 0.9163 0.8181 0.7092 0.0534 Uiso
H15_2 H 0.8489 0.8086 0.3951 0.0537 Uiso
H16_2 H 0.8127 0.7887 0.6160 0.0536 Uiso
H21_3 H 0.9203 0.6272 0.9285 0.0586 Uiso
H22_3 H 0.8998 0.5929 0.6985 0.0584 Uiso
H23_2 H 0.9635 0.6556 0.3882 0.0582 Uiso
H24_2 H 0.9854 0.6913 0.6112 0.0585 Uiso
H28_3 H 0.9536 0.7730 0.2310 0.0581 Uiso
H29_4 H 0.9704 0.8215 0.7317 0.0589 Uiso
H30_4 H 0.9885 0.8030 0.9502 0.0592 Uiso
H31_2 H 0.9873 0.7387 0.6447 0.0590 Uiso
H32_2 H 0.9689 0.7557 0.4191 0.0589 Uiso
Cu4_4 Cu 0.75321(15) 0.74630(18) 0.9990(5) 0.0167 Uiso
Cu5_2 Cu 0.91346(15) 0.58703(18) 0.3343(5) 0.0167 Uiso
N5_3 N 0.9544(5) 0.8527(7) 0.146(2) 0.0450 Uiso
C4_4 C 0.2221(8) 0.5349(9) 0.925(3) 0.0440 Uiso
C5_3 C 0.2073(2) 0.5446(4) 0.7865(18) 0.0450 Uiso
C6_3 C 0.2031(2) 0.5702(4) 0.807(2) 0.0450 Uiso
C7_3 C 0.1924(3) 0.5799(5) 0.671(3) 0.0450 Uiso
C8_2 C 0.1900(2) 0.5404(5) 0.4980(19) 0.0450 Uiso
C9_2 C 0.2007(2) 0.5298(4) 0.630(2) 0.0450 Uiso
C28_2 C 0.2471(8) 0.4299(11) 0.653(3) 0.0400 Uiso
C29_4 C 0.2494(6) 0.4437(8) 0.832(2) 0.0390 Uiso
C30_4 C 0.2743(6) 0.4478(7) 0.937(3) 0.0380 Uiso
N1_2 N 0.1861(2) 0.5650(5) 0.520(2) 0.0450 Uiso
O2_4 O 0.2265(7) 0.5122(9) 0.883(3) 0.0440 Uiso
O7_4 O 0.2335(5) 0.4567(7) 0.855(3) 0.0390 Uiso
H5_3 H 0.2071 0.5807 0.9145 0.0465 Uiso
H6_3 H 0.1890 0.5972 0.6840 0.0465 Uiso
H7_2 H 0.1858 0.5303 0.3893 0.0467 Uiso
H8_2 H 0.2039 0.5124 0.6135 0.0467 Uiso
H25_2 H 0.2600 0.4203 0.6492 0.0579 Uiso
H26_2 H 0.2256 0.4143 0.6319 0.0579 Uiso
H27_2 H 0.2540 0.4460 0.5679 0.0579 Uiso
H28_4 H 0.2870 0.4396 0.8976 0.0581 Uiso
Cu3_4 Cu 0.16786(16) 0.58084(19) 0.3231(6) 0.0286 Uiso
N5_4 N 0.2877(5) 0.5194(7) 0.813(2) 0.0450 Uiso
C1_5 C 0.7562(11) 0.3519(7) 0.006(4) 0.0450 Uiso
C10_3 C 0.9319(10) 0.4158(8) 0.687(3) 0.0330 Uiso
C11_3 C 0.9260(9) 0.3972(8) 0.520(3) 0.0320 Uiso
C12_3 C 0.9026(8) 0.3950(7) 0.408(3) 0.0310 Uiso
C13_5 C 0.8933(7) 0.3779(6) 0.259(3) 0.0300 Uiso
C14_5 C 0.8758(5) 0.3854(3) 0.1259(19) 0.0300 Uiso
C15_5 C 0.8664(5) 0.4072(3) 0.156(2) 0.0300 Uiso
C16_5 C 0.8541(5) 0.4159(3) 0.023(2) 0.0310 Uiso
C19_3 C 0.9764(10) 0.5665(7) 0.663(3) 0.0340 Uiso
C20_3 C 0.9644(8) 0.5802(6) 0.527(3) 0.0340 Uiso
C21_3 C 0.9863(10) 0.6025(7) 0.413(3) 0.0340 Uiso
C22_5 C 0.9796(9) 0.6129(7) 0.265(2) 0.0340 Uiso
C33_5 C 0.8624(4) 0.5027(4) 0.044(2) 0.0370 Uiso
C34_5 C 0.8734(5) 0.5243(5) 0.1737(18) 0.0370 Uiso
N2_5 N 0.8973(5) 0.5532(5) 0.151(2) 0.0360 Uiso
O3_3 O 0.9431(7) 0.3855(6) 0.495(3) 0.0320 Uiso
O4_5 O 0.8999(6) 0.3570(5) 0.213(2) 0.0290 Uiso
O5_3 O 0.9353(7) 0.5659(5) 0.505(3) 0.0330 Uiso
O6_5 O 0.9526(8) 0.6083(6) 0.220(2) 0.0340 Uiso
H1_4 H 0.7465 0.3294 0.0072 0.0473 Uiso
H2_5 H 0.7683 0.3604 0.1091 0.0473 Uiso
H3_5 H 0.7402 0.3576 0.0006 0.0473 Uiso
H9_3 H 0.9199 0.4263 0.6889 0.0533 Uiso
H10_3 H 0.9250 0.4006 0.7779 0.0533 Uiso
H11_3 H 0.9538 0.4310 0.7019 0.0533 Uiso
H12_3 H 0.8926 0.4065 0.4396 0.0538 Uiso
H13_5 H 0.8689 0.4161 0.2672 0.0536 Uiso
H14_5 H 0.8486 0.4316 0.0425 0.0534 Uiso
H17_3 H 0.9989 0.5779 0.6616 0.0597 Uiso
H18_3 H 0.9690 0.5443 0.6588 0.0597 Uiso
H19_3 H 0.9690 0.5713 0.7660 0.0597 Uiso
H29_5 H 0.8452 0.4823 0.0650 0.0589 Uiso
H30_5 H 0.8637 0.5189 0.2835 0.0592 Uiso
Cu4_5 Cu 0.92036(18) 0.34024(10) 0.3324(5) 0.0167 Uiso
O9_4 O 0.8909(9) 0.6098(7) 0.172(3) 0.0320 Uiso
O10_3 O 0.8762(8) 0.5666(6) 0.454(2) 0.0290 Uiso
Cu3_5 Cu 0.75249(19) 0.25369(11) 0.9898(6) 0.0286 Uiso
Cu1_3 Cu 0.16547(16) 0.08583(11) 0.3436(6) 0.0286 Uiso
C1_6 C 0.0895(11) 0.0186(7) 0.673(4) 0.0450 Uiso
C2_3 C 0.1108(9) 0.0326(5) 0.517(3) 0.0440 Uiso
C3_3 C 0.1162(8) 0.0125(5) 0.413(2) 0.0440 Uiso
C4_5 C 0.1317(9) 0.0205(5) 0.259(3) 0.0440 Uiso
C13_6 C 0.2266(7) 0.0446(6) 0.926(3) 0.0300 Uiso
C14_6 C 0.2091(5) 0.0521(3) 0.7926(19) 0.0300 Uiso
C15_6 C 0.1997(5) 0.0739(3) 0.823(2) 0.0300 Uiso
C16_6 C 0.1874(5) 0.0826(3) 0.690(2) 0.0310 Uiso
C17_3 C 0.1938(6) 0.0491(4) 0.507(2) 0.0310 Uiso
C18_3 C 0.2062(6) 0.0400(4) 0.638(3) 0.0300 Uiso
C22_6 C 0.3129(9) 0.2796(7) 0.932(2) 0.0340 Uiso
C23_4 C 0.3373(4) 0.2925(2) 0.7914(16) 0.0340 Uiso
C24_4 C 0.3666(4) 0.2963(2) 0.8183(19) 0.0340 Uiso
C25_4 C 0.3867(4) 0.3041(2) 0.682(2) 0.0340 Uiso
C26_3 C 0.3503(4) 0.3048(2) 0.4993(18) 0.0340 Uiso
C27_3 C 0.3290(4) 0.2969(2) 0.6307(19) 0.0340 Uiso
C29_5 C 0.2229(8) 0.1390(5) 0.166(2) 0.0390 Uiso
C30_5 C 0.2188(7) 0.1598(4) 0.271(3) 0.0380 Uiso
C31_3 C 0.2017(8) 0.1523(4) 0.420(3) 0.0370 Uiso
C32_3 C 0.2096(4) 0.1776(4) 0.5516(17) 0.0370 Uiso
C33_6 C 0.1957(4) 0.1694(4) 0.711(2) 0.0370 Uiso
C34_6 C 0.2067(5) 0.1910(5) 0.8404(18) 0.0370 Uiso
C35_3 C 0.2442(4) 0.2281(4) 0.663(2) 0.0360 Uiso
C36_3 C 0.2342(4) 0.2073(4) 0.528(2) 0.0370 Uiso
N2_6 N 0.2306(5) 0.2199(5) 0.818(2) 0.0360 Uiso
N4_3 N 0.1846(6) 0.0700(4) 0.535(2) 0.0310 Uiso
O1_3 O 0.1244(8) 0.0618(5) 0.503(3) 0.0440 Uiso
O2_5 O 0.1544(9) 0.0476(5) 0.217(3) 0.0440 Uiso
O4_6 O 0.2332(6) 0.0237(5) 0.880(2) 0.0290 Uiso
O6_6 O 0.2859(8) 0.2750(6) 0.887(2) 0.0340 Uiso
O7_5 O 0.2099(7) 0.1101(5) 0.189(3) 0.0390 Uiso
O8_3 O 0.1816(7) 0.1248(4) 0.470(2) 0.0370 Uiso
H2_6 H 0.1016 0.0271 0.7758 0.0473 Uiso
H3_6 H 0.0735 0.0243 0.6673 0.0473 Uiso
H13_6 H 0.2022 0.0828 0.9339 0.0536 Uiso
H14_6 H 0.1819 0.0983 0.7092 0.0534 Uiso
H15_3 H 0.1914 0.0404 0.3951 0.0537 Uiso
H16_3 H 0.2113 0.0241 0.6160 0.0536 Uiso
H21_4 H 0.3728 0.2932 0.9285 0.0586 Uiso
H22_4 H 0.4071 0.3070 0.6985 0.0584 Uiso
H23_3 H 0.3444 0.3080 0.3882 0.0582 Uiso
H24_3 H 0.3087 0.2942 0.6112 0.0585 Uiso
H28_5 H 0.2270 0.1807 0.2310 0.0581 Uiso
H29_6 H 0.1785 0.1490 0.7317 0.0589 Uiso
H30_6 H 0.1970 0.1856 0.9502 0.0592 Uiso
H31_3 H 0.2613 0.2487 0.6447 0.0590 Uiso
H32_3 H 0.2443 0.2133 0.4191 0.0589 Uiso
Cu4_6 Cu 0.25370(18) 0.00690(10) 0.9990(5) 0.0167 Uiso
N5_5 N 0.1473(7) 0.1016(5) 0.146(2) 0.0450 Uiso
O9_5 O 0.2243(9) 0.2764(7) 0.838(3) 0.0320 Uiso
C4_6 C 0.4651(9) 0.6871(5) 0.925(3) 0.0440 Uiso
C5_4 C 0.4554(4) 0.6626(4) 0.7865(18) 0.0450 Uiso
C6_4 C 0.4298(4) 0.6328(4) 0.807(2) 0.0450 Uiso
C7_4 C 0.4201(5) 0.6124(4) 0.671(3) 0.0450 Uiso
C8_3 C 0.4596(5) 0.6495(5) 0.4980(19) 0.0450 Uiso
C9_3 C 0.4702(4) 0.6708(4) 0.630(2) 0.0450 Uiso
C28_3 C 0.5701(11) 0.8171(7) 0.653(3) 0.0400 Uiso
C29_6 C 0.5563(8) 0.8056(5) 0.832(2) 0.0390 Uiso
C30_6 C 0.5522(7) 0.8264(4) 0.937(3) 0.0380 Uiso
N1_3 N 0.4350(5) 0.6210(5) 0.520(2) 0.0450 Uiso
O2_6 O 0.4878(9) 0.7142(5) 0.883(3) 0.0440 Uiso
O7_6 O 0.5433(7) 0.7767(5) 0.855(3) 0.0390 Uiso
H5_4 H 0.4193 0.6263 0.9145 0.0465 Uiso
H6_4 H 0.4028 0.5917 0.6840 0.0465 Uiso
H7_3 H 0.4697 0.6554 0.3893 0.0467 Uiso
H8_3 H 0.4876 0.6914 0.6135 0.0467 Uiso
H25_3 H 0.5797 0.8396 0.6492 0.0579 Uiso
H26_3 H 0.5857 0.8112 0.6319 0.0579 Uiso
H27_3 H 0.5540 0.8079 0.5679 0.0579 Uiso
H28_6 H 0.5604 0.8473 0.8976 0.0581 Uiso
Cu3_6 Cu 0.41916(19) 0.58702(11) 0.3231(6) 0.0286 Uiso
N5_6 N 0.4806(7) 0.7683(5) 0.813(2) 0.0450 Uiso
C2_4 C 0.3659(5) 0.5884(7) 0.150(3) 0.0440 Uiso
C3_4 C 0.3458(5) 0.5629(6) 0.254(2) 0.0440 Uiso
C4_7 C 0.3538(5) 0.5554(8) 0.408(3) 0.0440 Uiso
C5_5 C 0.3293(4) 0.5406(2) 0.5468(18) 0.0450 Uiso
C6_5 C 0.2995(4) 0.5364(2) 0.526(2) 0.0450 Uiso
C7_5 C 0.2791(4) 0.5257(3) 0.662(3) 0.0450 Uiso
C8_4 C 0.3162(5) 0.5233(2) 0.8353(19) 0.0450 Uiso
C9_4 C 0.3375(4) 0.5340(2) 0.703(2) 0.0450 Uiso
C17_4 C 0.3824(4) 0.5219(5) 0.160(2) 0.0310 Uiso
C18_4 C 0.3733(4) 0.5004(5) 0.029(3) 0.0300 Uiso
C26_4 C 0.6381(2) 0.6211(4) 0.1674(18) 0.0340 Uiso
C27_4 C 0.6302(2) 0.6345(3) 0.0360(19) 0.0340 Uiso
C28_4 C 0.4838(7) 0.5804(8) 0.680(3) 0.0400 Uiso
C29_7 C 0.4723(5) 0.5827(6) 0.501(2) 0.0390 Uiso
C30_7 C 0.4931(4) 0.6076(6) 0.396(3) 0.0380 Uiso
C31_4 C 0.4856(4) 0.6172(7) 0.247(3) 0.0370 Uiso
C32_4 C 0.5109(4) 0.6346(2) 0.1151(17) 0.0370 Uiso
C35_4 C 0.5614(4) 0.6505(2) 0.004(2) 0.0360 Uiso
C36_4 C 0.5406(4) 0.6397(2) 0.139(2) 0.0370 Uiso
N3_3 N 0.6417(2) 0.5963(4) 0.142(2) 0.0340 Uiso
N4_4 N 0.4033(4) 0.5520(5) 0.132(2) 0.0310 Uiso
O1_4 O 0.3951(5) 0.6040(6) 0.164(3) 0.0440 Uiso
O2_7 O 0.3809(5) 0.5598(7) 0.450(3) 0.0440 Uiso
O7_7 O 0.4434(5) 0.5668(5) 0.478(3) 0.0390 Uiso
O8_4 O 0.4581(4) 0.6098(6) 0.197(2) 0.0370 Uiso
H4_2 H 0.3245 0.5511 0.2182 0.0473 Uiso
H5_5 H 0.2930 0.5404 0.4188 0.0465 Uiso
H6_5 H 0.2584 0.5223 0.6493 0.0465 Uiso
H7_4 H 0.3221 0.5191 0.9440 0.0467 Uiso
H8_4 H 0.3581 0.5372 0.7198 0.0467 Uiso
H15_4 H 0.3737 0.5156 0.2716 0.0537 Uiso
H16_4 H 0.3574 0.4794 0.0507 0.0536 Uiso
H23_4 H 0.6413 0.6302 0.2785 0.0582 Uiso
H24_4 H 0.6275 0.6521 0.0555 0.0585 Uiso
H25_4 H 0.5063 0.5933 0.6841 0.0579 Uiso
H26_4 H 0.4779 0.5589 0.7014 0.0579 Uiso
H27_4 H 0.4746 0.5873 0.7654 0.0579 Uiso
H28_7 H 0.5140 0.6203 0.4357 0.0581 Uiso
H31_4 H 0.5820 0.6540 0.0220 0.0590 Uiso
H32_4 H 0.5466 0.6356 0.2476 0.0589 Uiso
N6_2 N 0.2879(4) 0.0250(2) 0.809(2) 0.0340 Uiso
C8_5 C 0.9829(5) 0.8566(2) 0.1686(19) 0.0450 Uiso
H7_5 H 0.9888 0.8524 0.2773 0.0467 Uiso
C1_7 C 0.6852(7) 0.2624(8) 0.661(4) 0.0450 Uiso
C2_5 C 0.6992(5) 0.2551(7) 0.817(3) 0.0440 Uiso
C3_5 C 0.6791(5) 0.2296(6) 0.921(2) 0.0440 Uiso
C11_4 C 0.7305(8) 0.1379(5) 0.147(3) 0.0320 Uiso
C12_4 C 0.7283(7) 0.1591(4) 0.259(3) 0.0310 Uiso
C13_7 C 0.7112(6) 0.1513(4) 0.408(3) 0.0300 Uiso
C14_7 C 0.7187(3) 0.1763(4) 0.5408(19) 0.0300 Uiso
C15_7 C 0.7405(3) 0.2075(4) 0.511(2) 0.0300 Uiso
C16_7 C 0.7492(3) 0.2285(4) 0.644(2) 0.0310 Uiso
C17_5 C 0.7157(4) 0.1886(5) 0.827(2) 0.0310 Uiso
C18_5 C 0.7066(4) 0.1671(5) 0.696(3) 0.0300 Uiso
C19_4 C 0.8998(7) 0.2568(7) 0.004(3) 0.0340 Uiso
C20_4 C 0.9135(6) 0.2825(6) 0.140(3) 0.0340 Uiso
C21_4 C 0.9358(7) 0.2829(7) 0.254(3) 0.0340 Uiso
C22_7 C 0.9462(7) 0.3000(5) 0.402(2) 0.0340 Uiso
C23_5 C 0.9591(2) 0.2885(3) 0.5420(16) 0.0340 Uiso
C24_5 C 0.9629(2) 0.2630(3) 0.5151(19) 0.0340 Uiso
C25_5 C 0.9707(2) 0.2507(3) 0.652(2) 0.0340 Uiso
C26_5 C 0.9714(2) 0.2878(4) 0.8341(18) 0.0340 Uiso
C27_5 C 0.9635(2) 0.3012(3) 0.7027(19) 0.0340 Uiso
C31_5 C 0.8189(4) 0.2839(7) 0.914(3) 0.0370 Uiso
C32_5 C 0.8442(4) 0.3013(2) 0.7818(17) 0.0370 Uiso
C33_7 C 0.8360(4) 0.3070(2) 0.623(2) 0.0370 Uiso
C34_7 C 0.8576(5) 0.3176(2) 0.4930(18) 0.0370 Uiso
C35_5 C 0.8947(4) 0.3172(2) 0.671(2) 0.0360 Uiso
C36_5 C 0.8739(4) 0.3064(2) 0.806(2) 0.0370 Uiso
N2_7 N 0.8865(5) 0.3226(2) 0.516(2) 0.0360 Uiso
N3_4 N 0.9750(2) 0.2630(4) 0.809(2) 0.0340 Uiso
N4_5 N 0.7366(4) 0.2187(5) 0.799(2) 0.0310 Uiso
O1_5 O 0.7284(5) 0.2707(6) 0.831(3) 0.0440 Uiso
O5_4 O 0.8992(5) 0.2973(5) 0.162(3) 0.0330 Uiso
O6_7 O 0.9416(6) 0.3224(5) 0.447(2) 0.0340 Uiso
O8_5 O 0.7914(4) 0.2765(6) 0.864(2) 0.0370 Uiso
H1_5 H 0.6627 0.2496 0.6595 0.0473 Uiso
H2_7 H 0.6937 0.2588 0.5576 0.0473 Uiso
H3_7 H 0.6909 0.2841 0.6661 0.0473 Uiso
H4_3 H 0.6578 0.2178 0.8849 0.0473 Uiso
H12_4 H 0.7398 0.1806 0.2271 0.0538 Uiso
H13_7 H 0.7494 0.2139 0.3995 0.0536 Uiso
H14_7 H 0.7649 0.2497 0.6242 0.0534 Uiso
H15_5 H 0.7070 0.1823 0.9383 0.0537 Uiso
H16_5 H 0.6907 0.1461 0.7174 0.0536 Uiso
H17_4 H 0.9112 0.2457 0.0051 0.0597 Uiso
H18_4 H 0.8776 0.2420 0.0079 0.0597 Uiso
H20_2 H 0.9470 0.2731 0.2127 0.0598 Uiso
H21_5 H 0.9598 0.2537 0.4049 0.0586 Uiso
H22_5 H 0.9736 0.2332 0.6349 0.0584 Uiso
H23_5 H 0.9746 0.2969 0.9452 0.0582 Uiso
H24_5 H 0.9608 0.3188 0.7222 0.0585 Uiso
H29_7 H 0.8156 0.3038 0.6017 0.0589 Uiso
H30_7 H 0.8522 0.3219 0.3832 0.0592 Uiso
H31_5 H 0.9153 0.3207 0.6887 0.0590 Uiso
H32_5 H 0.8799 0.3023 0.9143 0.0589 Uiso
N6_3 N 0.9546(4) 0.3583(2) 0.142(2) 0.0340 Uiso
C26_6 C 0.3789(4) 0.0170(4) 0.1674(18) 0.0340 Uiso
N3_5 N 0.4037(4) 0.0454(4) 0.142(2) 0.0340 Uiso
H23_6 H 0.3698 0.0111 0.2785 0.0582 Uiso
C2_6 C 0.4116(7) 0.7775(9) 0.150(3) 0.0440 Uiso
C3_6 C 0.4371(6) 0.7829(8) 0.254(2) 0.0440 Uiso
C4_8 C 0.4446(8) 0.7984(9) 0.408(3) 0.0440 Uiso
C5_6 C 0.4594(2) 0.7887(4) 0.5468(18) 0.0450 Uiso
C6_6 C 0.4636(2) 0.7631(4) 0.526(2) 0.0450 Uiso
C7_6 C 0.4743(3) 0.7534(5) 0.662(3) 0.0450 Uiso
C8_6 C 0.4767(2) 0.7929(5) 0.8353(19) 0.0450 Uiso
C9_5 C 0.4660(2) 0.8035(4) 0.703(2) 0.0450 Uiso
C17_6 C 0.4781(5) 0.8605(6) 0.160(2) 0.0310 Uiso
C18_6 C 0.4996(5) 0.8729(6) 0.029(3) 0.0300 Uiso
C27_6 C 0.3655(3) 0.9957(4) 0.0360(19) 0.0340 Uiso
C28_5 C 0.4196(8) 0.9034(11) 0.680(3) 0.0400 Uiso
C29_8 C 0.4173(6) 0.8896(8) 0.501(2) 0.0390 Uiso
C30_8 C 0.3924(6) 0.8855(7) 0.396(3) 0.0380 Uiso
C31_6 C 0.3828(7) 0.8684(8) 0.247(3) 0.0370 Uiso
C32_6 C 0.3654(2) 0.8763(4) 0.1151(17) 0.0370 Uiso
C35_6 C 0.3495(2) 0.9109(4) 0.004(2) 0.0360 Uiso
C36_6 C 0.3603(2) 0.9009(4) 0.139(2) 0.0370 Uiso
N4_6 N 0.4480(5) 0.8513(6) 0.132(2) 0.0310 Uiso
O1_6 O 0.3960(6) 0.7911(8) 0.164(3) 0.0440 Uiso
O2_8 O 0.4402(7) 0.8211(9) 0.450(3) 0.0440 Uiso
O7_8 O 0.4332(5) 0.8766(7) 0.478(3) 0.0390 Uiso
O8_6 O 0.3902(6) 0.8483(7) 0.197(2) 0.0370 Uiso
H4_4 H 0.4489 0.7734 0.2182 0.0473 Uiso
H5_6 H 0.4596 0.7526 0.4188 0.0465 Uiso
H6_6 H 0.4777 0.7361 0.6493 0.0465 Uiso
H7_6 H 0.4809 0.8030 0.9440 0.0467 Uiso
H8_5 H 0.4628 0.8209 0.7198 0.0467 Uiso
H15_6 H 0.4844 0.8581 0.2716 0.0537 Uiso
H16_6 H 0.5206 0.8780 0.0507 0.0536 Uiso
H24_6 H 0.3479 0.9754 0.0555 0.0585 Uiso
H25_5 H 0.4067 0.9130 0.6841 0.0579 Uiso
H26_5 H 0.4411 0.9190 0.7014 0.0579 Uiso
H27_5 H 0.4127 0.8873 0.7654 0.0579 Uiso
H28_8 H 0.3797 0.8937 0.4357 0.0581 Uiso
H31_6 H 0.3460 0.9280 0.0220 0.0590 Uiso
H32_6 H 0.3644 0.9110 0.2476 0.0589 Uiso
C8_7 C 0.1434(2) 0.1262(5) 0.1686(19) 0.0450 Uiso
C9_6 C 0.1327(2) 0.1368(4) 0.036(2) 0.0450 Uiso
C28_6 C 0.0863(8) 0.2367(11) 0.013(3) 0.0400 Uiso
H7_7 H 0.1476 0.1363 0.2773 0.0467 Uiso
H8_6 H 0.1295 0.1542 0.0531 0.0467 Uiso
H25_6 H 0.0734 0.2463 0.0174 0.0579 Uiso
H26_6 H 0.1078 0.2523 0.0347 0.0579 Uiso
H27_6 H 0.0794 0.2206 0.0987 0.0579 Uiso
C10_4 C 0.1828(6) 0.2652(10) 0.646(3) 0.0330 Uiso
C11_5 C 0.1955(5) 0.2593(9) 0.813(3) 0.0320 Uiso
C12_5 C 0.1743(4) 0.2359(8) 0.925(3) 0.0310 Uiso
C19_5 C 0.0766(7) 0.3097(10) 0.670(3) 0.0340 Uiso
C20_5 C 0.0509(6) 0.2977(8) 0.806(3) 0.0340 Uiso
C21_5 C 0.0505(7) 0.3196(10) 0.920(3) 0.0340 Uiso
O5_5 O 0.0361(5) 0.2686(7) 0.828(3) 0.0330 Uiso
H9_4 H 0.1603 0.2532 0.6444 0.0533 Uiso
H10_4 H 0.1911 0.2583 0.5554 0.0533 Uiso
H11_4 H 0.1895 0.2871 0.6314 0.0533 Uiso
H12_5 H 0.1528 0.2259 0.8937 0.0538 Uiso
H17_5 H 0.0877 0.3322 0.6717 0.0597 Uiso
H18_5 H 0.0914 0.3023 0.6745 0.0597 Uiso
H19_4 H 0.0644 0.3023 0.5673 0.0597 Uiso
H20_3 H 0.0603 0.3406 0.8793 0.0598 Uiso
C1_8 C 0.7376(8) 0.4229(11) 0.661(4) 0.0450 Uiso
C2_7 C 0.7449(7) 0.4442(9) 0.817(3) 0.0440 Uiso
C3_7 C 0.7704(6) 0.4496(8) 0.921(2) 0.0440 Uiso
C11_6 C 0.8621(5) 0.5927(9) 0.147(3) 0.0320 Uiso
C12_6 C 0.8409(4) 0.5693(8) 0.259(3) 0.0310 Uiso
C13_8 C 0.8487(4) 0.5600(7) 0.408(3) 0.0300 Uiso
C14_8 C 0.8237(4) 0.5425(5) 0.5408(19) 0.0300 Uiso
C15_8 C 0.7925(4) 0.5331(5) 0.511(2) 0.0300 Uiso
C16_8 C 0.7715(4) 0.5208(5) 0.644(2) 0.0310 Uiso
C17_7 C 0.8114(5) 0.5272(6) 0.827(2) 0.0310 Uiso
C18_7 C 0.8329(5) 0.5396(6) 0.696(3) 0.0300 Uiso
C19_6 C 0.7432(7) 0.6431(10) 0.004(3) 0.0340 Uiso
C20_6 C 0.7175(6) 0.6311(8) 0.140(3) 0.0340 Uiso
C21_6 C 0.7171(7) 0.6530(10) 0.254(3) 0.0340 Uiso
C22_8 C 0.7000(5) 0.6463(9) 0.402(2) 0.0340 Uiso
C23_6 C 0.7115(3) 0.6707(4) 0.5420(16) 0.0340 Uiso
C24_6 C 0.7370(3) 0.7000(4) 0.5151(19) 0.0340 Uiso
C25_6 C 0.7493(3) 0.7201(4) 0.652(2) 0.0340 Uiso
C26_7 C 0.7122(4) 0.6837(4) 0.8341(18) 0.0340 Uiso
C27_7 C 0.6988(3) 0.6624(4) 0.7027(19) 0.0340 Uiso
C31_7 C 0.7161(7) 0.5351(8) 0.914(3) 0.0370 Uiso
C32_7 C 0.6987(2) 0.5430(4) 0.7818(17) 0.0370 Uiso
C33_8 C 0.6930(2) 0.5291(4) 0.623(2) 0.0370 Uiso
C34_8 C 0.6824(2) 0.5401(5) 0.4930(18) 0.0370 Uiso
C35_7 C 0.6828(2) 0.5776(4) 0.671(2) 0.0360 Uiso
C36_7 C 0.6936(2) 0.5676(4) 0.806(2) 0.0370 Uiso
N2_8 N 0.6774(2) 0.5640(5) 0.516(2) 0.0360 Uiso
N3_6 N 0.7370(4) 0.7121(4) 0.809(2) 0.0340 Uiso
N4_7 N 0.7813(5) 0.5180(6) 0.799(2) 0.0310 Uiso
O1_7 O 0.7293(6) 0.4578(8) 0.831(3) 0.0440 Uiso
O5_6 O 0.7027(5) 0.6020(7) 0.162(3) 0.0330 Uiso
O6_8 O 0.6776(5) 0.6193(8) 0.447(2) 0.0340 Uiso
O8_7 O 0.7235(6) 0.5150(7) 0.864(2) 0.0370 Uiso
H1_6 H 0.7504 0.4132 0.6595 0.0473 Uiso
H2_8 H 0.7412 0.4350 0.5576 0.0473 Uiso
H3_8 H 0.7159 0.4069 0.6661 0.0473 Uiso
H4_5 H 0.7822 0.4401 0.8849 0.0473 Uiso
H12_6 H 0.8194 0.5593 0.2271 0.0538 Uiso
H13_8 H 0.7861 0.5356 0.3995 0.0536 Uiso
H14_8 H 0.7503 0.5153 0.6242 0.0534 Uiso
H15_7 H 0.8177 0.5248 0.9383 0.0537 Uiso
H16_7 H 0.8539 0.5447 0.7174 0.0536 Uiso
H17_6 H 0.7543 0.6656 0.0051 0.0597 Uiso
H18_6 H 0.7580 0.6357 0.0079 0.0597 Uiso
H20_4 H 0.7269 0.6740 0.2127 0.0598 Uiso
H21_6 H 0.7463 0.7062 0.4049 0.0586 Uiso
H22_6 H 0.7668 0.7405 0.6349 0.0584 Uiso
H23_7 H 0.7031 0.6778 0.9452 0.0582 Uiso
H24_7 H 0.6812 0.6421 0.7222 0.0585 Uiso
H29_8 H 0.6962 0.5119 0.6017 0.0589 Uiso
H30_8 H 0.6781 0.5304 0.3832 0.0592 Uiso
H31_7 H 0.6793 0.5947 0.6887 0.0590 Uiso
H32_7 H 0.6977 0.5777 0.9143 0.0589 Uiso
C2_8 C 0.2225(9) 0.6341(5) 0.150(3) 0.0440 Uiso
C3_8 C 0.2171(8) 0.6542(5) 0.254(2) 0.0440 Uiso
C4_9 C 0.2016(9) 0.6462(5) 0.408(3) 0.0440 Uiso
C5_7 C 0.2113(4) 0.6707(4) 0.5468(18) 0.0450 Uiso
C6_7 C 0.2369(4) 0.7005(4) 0.526(2) 0.0450 Uiso
C7_7 C 0.2466(5) 0.7209(4) 0.662(3) 0.0450 Uiso
C8_8 C 0.2071(5) 0.6838(5) 0.8353(19) 0.0450 Uiso
C9_7 C 0.1965(4) 0.6625(4) 0.703(2) 0.0450 Uiso
C17_8 C 0.1395(6) 0.6176(4) 0.160(2) 0.0310 Uiso
C18_8 C 0.1271(6) 0.6267(4) 0.029(3) 0.0300 Uiso
C27_8 C 0.0043(4) 0.3698(2) 0.0360(19) 0.0340 Uiso
C28_7 C 0.0966(11) 0.5162(7) 0.680(3) 0.0400 Uiso
C29_9 C 0.1104(8) 0.5277(5) 0.501(2) 0.0390 Uiso
C30_9 C 0.1145(7) 0.5069(4) 0.396(3) 0.0380 Uiso
C31_8 C 0.1316(8) 0.5144(4) 0.247(3) 0.0370 Uiso
C32_8 C 0.1237(4) 0.4891(4) 0.1151(17) 0.0370 Uiso
C35_8 C 0.0891(4) 0.4386(4) 0.004(2) 0.0360 Uiso
C36_8 C 0.0991(4) 0.4594(4) 0.139(2) 0.0370 Uiso
N4_8 N 0.1487(6) 0.5967(4) 0.132(2) 0.0310 Uiso
O1_8 O 0.2089(8) 0.6049(5) 0.164(3) 0.0440 Uiso
O2_9 O 0.1789(9) 0.6191(5) 0.450(3) 0.0440 Uiso
O7_9 O 0.1234(7) 0.5566(5) 0.478(3) 0.0390 Uiso
O8_8 O 0.1517(7) 0.5419(4) 0.197(2) 0.0370 Uiso
H4_6 H 0.2266 0.6755 0.2182 0.0473 Uiso
H5_7 H 0.2474 0.7070 0.4188 0.0465 Uiso
H6_7 H 0.2639 0.7416 0.6493 0.0465 Uiso
H7_8 H 0.1970 0.6779 0.9440 0.0467 Uiso
H8_7 H 0.1791 0.6419 0.7198 0.0467 Uiso
H15_8 H 0.1419 0.6263 0.2716 0.0537 Uiso
H16_8 H 0.1220 0.6426 0.0507 0.0536 Uiso
H24_8 H 0.0246 0.3725 0.0555 0.0585 Uiso
H25_7 H 0.0870 0.4937 0.6841 0.0579 Uiso
H26_7 H 0.0810 0.5221 0.7014 0.0579 Uiso
H27_7 H 0.1127 0.5254 0.7654 0.0579 Uiso
H28_9 H 0.1063 0.4860 0.4357 0.0581 Uiso
H31_8 H 0.0720 0.4180 0.0220 0.0590 Uiso
H32_8 H 0.0890 0.4534 0.2476 0.0589 Uiso
C26_8 C 0.9830(4) 0.3619(2) 0.1674(18) 0.0340 Uiso
H23_8 H 0.9889 0.3587 0.2785 0.0582 Uiso
C8_9 C 0.8738(5) 0.0171(5) 0.1686(19) 0.0450 Uiso
H7_9 H 0.8637 0.0112 0.2773 0.0467 Uiso
C10_5 C 0.7348(10) 0.9175(8) 0.646(3) 0.0330 Uiso
C11_7 C 0.7407(9) 0.9361(8) 0.813(3) 0.0320 Uiso
C12_7 C 0.7641(8) 0.9383(7) 0.925(3) 0.0310 Uiso
C19_7 C 0.6903(10) 0.7668(7) 0.670(3) 0.0340 Uiso
C20_7 C 0.7023(8) 0.7531(6) 0.806(3) 0.0340 Uiso
C21_7 C 0.6804(10) 0.7308(7) 0.920(3) 0.0340 Uiso
O5_7 O 0.7314(7) 0.7674(5) 0.828(3) 0.0330 Uiso
H9_5 H 0.7468 0.9070 0.6444 0.0533 Uiso
H10_5 H 0.7417 0.9327 0.5554 0.0533 Uiso
H11_5 H 0.7129 0.9023 0.6314 0.0533 Uiso
H12_7 H 0.7741 0.9268 0.8937 0.0538 Uiso
H17_7 H 0.6678 0.7554 0.6717 0.0597 Uiso
H18_7 H 0.6977 0.7890 0.6745 0.0597 Uiso
H19_5 H 0.6977 0.7620 0.5673 0.0597 Uiso
H20_5 H 0.6594 0.7196 0.8793 0.0598 Uiso
C1_9 C 0.5771(11) 0.3148(7) 0.661(4) 0.0450 Uiso
C2_9 C 0.5558(9) 0.3008(5) 0.817(3) 0.0440 Uiso
C3_9 C 0.5504(8) 0.3209(5) 0.921(2) 0.0440 Uiso
C11_8 C 0.4073(9) 0.2695(8) 0.147(3) 0.0320 Uiso
C12_8 C 0.4307(8) 0.2717(7) 0.259(3) 0.0310 Uiso
C13_9 C 0.4400(7) 0.2888(6) 0.408(3) 0.0300 Uiso
C14_9 C 0.4575(5) 0.2813(3) 0.5408(19) 0.0300 Uiso
C15_9 C 0.4669(5) 0.2595(3) 0.511(2) 0.0300 Uiso
C16_9 C 0.4792(5) 0.2508(3) 0.644(2) 0.0310 Uiso
C17_9 C 0.4728(6) 0.2843(4) 0.827(2) 0.0310 Uiso
C18_9 C 0.4604(6) 0.2934(4) 0.696(3) 0.0300 Uiso
C19_8 C 0.3569(10) 0.1002(7) 0.004(3) 0.0340 Uiso
C20_8 C 0.3689(8) 0.0865(6) 0.140(3) 0.0340 Uiso
C21_8 C 0.3470(10) 0.0642(7) 0.254(3) 0.0340 Uiso
C22_9 C 0.3537(9) 0.0538(7) 0.402(2) 0.0340 Uiso
C23_7 C 0.3293(4) 0.0409(2) 0.5420(16) 0.0340 Uiso
C24_7 C 0.3000(4) 0.0371(2) 0.5151(19) 0.0340 Uiso
C25_7 C 0.2799(4) 0.0293(2) 0.652(2) 0.0340 Uiso
C26_9 C 0.3163(4) 0.0286(2) 0.8341(18) 0.0340 Uiso
C27_9 C 0.3376(4) 0.0365(2) 0.7027(19) 0.0340 Uiso
C31_9 C 0.4649(8) 0.1811(4) 0.914(3) 0.0370 Uiso
C32_9 C 0.4570(4) 0.1558(4) 0.7818(17) 0.0370 Uiso
C33_9 C 0.4709(4) 0.1640(4) 0.623(2) 0.0370 Uiso
C34_9 C 0.4599(5) 0.1424(5) 0.4930(18) 0.0370 Uiso
C35_9 C 0.4224(4) 0.1053(4) 0.671(2) 0.0360 Uiso
C36_9 C 0.4324(4) 0.1261(4) 0.806(2) 0.0370 Uiso
N2_9 N 0.4360(5) 0.1135(5) 0.516(2) 0.0360 Uiso
N4_9 N 0.4820(6) 0.2634(4) 0.799(2) 0.0310 Uiso
O1_9 O 0.5422(8) 0.2716(5) 0.831(3) 0.0440 Uiso
O5_8 O 0.3980(7) 0.1008(5) 0.162(3) 0.0330 Uiso
O6_9 O 0.3807(8) 0.0584(6) 0.447(2) 0.0340 Uiso
O8_9 O 0.4850(7) 0.2086(4) 0.864(2) 0.0370 Uiso
H1_7 H 0.5868 0.3373 0.6595 0.0473 Uiso
H2_9 H 0.5650 0.3063 0.5576 0.0473 Uiso
H3_9 H 0.5931 0.3091 0.6661 0.0473 Uiso
H4_7 H 0.5599 0.3422 0.8849 0.0473 Uiso
H12_8 H 0.4407 0.2602 0.2271 0.0538 Uiso
H13_9 H 0.4644 0.2506 0.3995 0.0536 Uiso
H14_9 H 0.4847 0.2351 0.6242 0.0534 Uiso
H15_9 H 0.4752 0.2930 0.9383 0.0537 Uiso
H16_9 H 0.4553 0.3093 0.7174 0.0536 Uiso
H17_8 H 0.3344 0.0888 0.0051 0.0597 Uiso
H18_8 H 0.3643 0.1224 0.0079 0.0597 Uiso
H20_6 H 0.3260 0.0530 0.2127 0.0598 Uiso
H21_7 H 0.2938 0.0402 0.4049 0.0586 Uiso
H22_7 H 0.2595 0.0264 0.6349 0.0584 Uiso
H23_9 H 0.3222 0.0254 0.9452 0.0582 Uiso
H24_9 H 0.3579 0.0392 0.7222 0.0585 Uiso
H29_9 H 0.4881 0.1844 0.6017 0.0589 Uiso
H30_9 H 0.4696 0.1478 0.3832 0.0592 Uiso
H31_9 H 0.4053 0.0847 0.6887 0.0590 Uiso
H32_9 H 0.4223 0.1201 0.9143 0.0589 Uiso
Cu1_4 Cu 0.58084(11) 0.41298(11) 0.6769(6) 0.0286 Uiso
C2_10 C 0.6341(5) 0.4116(7) 0.850(3) 0.0440 Uiso
C3_10 C 0.6542(5) 0.4371(6) 0.746(2) 0.0440 Uiso
C4_10 C 0.6462(5) 0.4446(8) 0.592(3) 0.0440 Uiso
C5_8 C 0.6707(4) 0.4594(2) 0.4532(18) 0.0450 Uiso
C6_8 C 0.7005(4) 0.4636(2) 0.474(2) 0.0450 Uiso
C7_8 C 0.7209(4) 0.4743(3) 0.338(3) 0.0450 Uiso
C8_10 C 0.6838(5) 0.4767(2) 0.1647(19) 0.0450 Uiso
C9_8 C 0.6625(4) 0.4660(2) 0.297(2) 0.0450 Uiso
C17_10 C 0.6176(4) 0.4781(5) 0.840(2) 0.0310 Uiso
C18_10 C 0.6267(4) 0.4996(5) 0.971(3) 0.0300 Uiso
C26_10 C 0.3619(2) 0.3789(4) 0.8326(18) 0.0340 Uiso
C27_10 C 0.3698(2) 0.3655(3) 0.9640(19) 0.0340 Uiso
C28_8 C 0.5162(7) 0.4196(8) 0.320(3) 0.0400 Uiso
C29_10 C 0.5277(5) 0.4173(6) 0.499(2) 0.0390 Uiso
C30_10 C 0.5069(4) 0.3924(6) 0.604(3) 0.0380 Uiso
C31_10 C 0.5144(4) 0.3828(7) 0.753(3) 0.0370 Uiso
C32_10 C 0.4891(4) 0.3654(2) 0.8849(17) 0.0370 Uiso
C35_10 C 0.4386(4) 0.3495(2) 0.996(2) 0.0360 Uiso
C36_10 C 0.4594(4) 0.3603(2) 0.861(2) 0.0370 Uiso
N1_4 N 0.7123(5) 0.4806(2) 0.187(2) 0.0450 Uiso
N3_7 N 0.3583(2) 0.4037(4) 0.858(2) 0.0340 Uiso
N4_10 N 0.5967(4) 0.4480(5) 0.868(2) 0.0310 Uiso
O1_10 O 0.6049(5) 0.3960(6) 0.836(3) 0.0440 Uiso
O2_10 O 0.6191(5) 0.4402(7) 0.550(3) 0.0440 Uiso
O7_10 O 0.5566(5) 0.4332(5) 0.522(3) 0.0390 Uiso
O8_10 O 0.5419(4) 0.3902(6) 0.803(2) 0.0370 Uiso
H4_8 H 0.6755 0.4489 0.7818 0.0473 Uiso
H5_8 H 0.7070 0.4596 0.5812 0.0465 Uiso
H6_8 H 0.7416 0.4777 0.3507 0.0465 Uiso
H7_10 H 0.6779 0.4809 0.0560 0.0467 Uiso
H8_8 H 0.6419 0.4628 0.2802 0.0467 Uiso
H15_10 H 0.6263 0.4844 0.7284 0.0537 Uiso
H16_10 H 0.6426 0.5206 0.9493 0.0536 Uiso
H23_10 H 0.3587 0.3698 0.7215 0.0582 Uiso
H24_10 H 0.3725 0.3479 0.9445 0.0585 Uiso
H25_8 H 0.4937 0.4067 0.3159 0.0579 Uiso
H26_8 H 0.5221 0.4411 0.2986 0.0579 Uiso
H27_8 H 0.5254 0.4127 0.2346 0.0579 Uiso
H28_10 H 0.4860 0.3797 0.5643 0.0581 Uiso
H31_10 H 0.4180 0.3460 0.9780 0.0590 Uiso
H32_10 H 0.4534 0.3644 0.7524 0.0589 Uiso
Cu5_3 Cu 0.34024(10) 0.41987(15) 0.6676(5) 0.0167 Uiso
N5_7 N 0.5650(5) 0.3790(5) 0.480(2) 0.0450 Uiso
C8_11 C 0.0171(5) 0.1434(2) 0.8314(19) 0.0450 Uiso
N1_5 N 0.0456(5) 0.1473(2) 0.854(2) 0.0450 Uiso
H7_11 H 0.0112 0.1476 0.7227 0.0467 Uiso
Cu3_7 Cu 0.07965(11) 0.16547(16) 0.6564(6) 0.0286 Uiso
Cu2_2 Cu 0.74630(11) 0.99310(10) 0.0010(5) 0.0167 Uiso
N6_4 N 0.7121(4) 0.9750(2) 0.191(2) 0.0340 Uiso
O10_4 O 0.7668(6) 0.9763(5) 0.120(2) 0.0290 Uiso
Cu1_5 Cu 0.24751(11) 0.74631(11) 0.0102(6) 0.0286 Uiso
Cu2_3 Cu 0.07964(11) 0.65976(10) 0.6676(5) 0.0167 Uiso
C1_10 C 0.3148(7) 0.7376(8) 0.339(4) 0.0450 Uiso
C2_11 C 0.3008(5) 0.7449(7) 0.183(3) 0.0440 Uiso
C3_11 C 0.3209(5) 0.7704(6) 0.079(2) 0.0440 Uiso
C11_9 C 0.2695(8) 0.8621(5) 0.853(3) 0.0320 Uiso
C12_9 C 0.2717(7) 0.8409(4) 0.741(3) 0.0310 Uiso
C13_10 C 0.2888(6) 0.8487(4) 0.592(3) 0.0300 Uiso
C14_10 C 0.2813(3) 0.8237(4) 0.4592(19) 0.0300 Uiso
C15_10 C 0.2595(3) 0.7925(4) 0.489(2) 0.0300 Uiso
C16_10 C 0.2508(3) 0.7715(4) 0.356(2) 0.0310 Uiso
C17_11 C 0.2843(4) 0.8114(5) 0.173(2) 0.0310 Uiso
C18_11 C 0.2934(4) 0.8329(5) 0.304(3) 0.0300 Uiso
C19_9 C 0.1002(7) 0.7432(7) 0.996(3) 0.0340 Uiso
C20_9 C 0.0865(6) 0.7175(6) 0.860(3) 0.0340 Uiso
C21_9 C 0.0642(7) 0.7171(7) 0.746(3) 0.0340 Uiso
C22_10 C 0.0538(7) 0.7000(5) 0.598(2) 0.0340 Uiso
C23_8 C 0.0409(2) 0.7115(3) 0.4580(16) 0.0340 Uiso
C24_8 C 0.0371(2) 0.7370(3) 0.4849(19) 0.0340 Uiso
C25_8 C 0.0293(2) 0.7493(3) 0.348(2) 0.0340 Uiso
C26_11 C 0.0286(2) 0.7122(4) 0.1659(18) 0.0340 Uiso
C27_11 C 0.0365(2) 0.6988(3) 0.2973(19) 0.0340 Uiso
C31_11 C 0.1811(4) 0.7161(7) 0.086(3) 0.0370 Uiso
C32_11 C 0.1558(4) 0.6987(2) 0.2182(17) 0.0370 Uiso
C33_10 C 0.1640(4) 0.6930(2) 0.377(2) 0.0370 Uiso
C34_10 C 0.1424(5) 0.6824(2) 0.5070(18) 0.0370 Uiso
C35_11 C 0.1053(4) 0.6828(2) 0.329(2) 0.0360 Uiso
C36_11 C 0.1261(4) 0.6936(2) 0.194(2) 0.0370 Uiso
N2_10 N 0.1135(5) 0.6774(2) 0.484(2) 0.0360 Uiso
N3_8 N 0.0250(2) 0.7370(4) 0.191(2) 0.0340 Uiso
N4_11 N 0.2634(4) 0.7813(5) 0.201(2) 0.0310 Uiso
O1_11 O 0.2716(5) 0.7293(6) 0.169(3) 0.0440 Uiso
O3_4 O 0.2812(6) 0.8909(4) 0.828(3) 0.0320 Uiso
O4_7 O 0.3097(5) 0.8762(4) 0.546(2) 0.0290 Uiso
O5_9 O 0.1008(5) 0.7027(5) 0.838(3) 0.0330 Uiso
O6_10 O 0.0584(6) 0.6776(5) 0.553(2) 0.0340 Uiso
O8_11 O 0.2086(4) 0.7235(6) 0.136(2) 0.0370 Uiso
H1_8 H 0.3373 0.7504 0.3405 0.0473 Uiso
H2_10 H 0.3063 0.7412 0.4424 0.0473 Uiso
H3_10 H 0.3091 0.7159 0.3339 0.0473 Uiso
H4_9 H 0.3422 0.7822 0.1151 0.0473 Uiso
H12_9 H 0.2602 0.8194 0.7729 0.0538 Uiso
H13_10 H 0.2506 0.7861 0.6005 0.0536 Uiso
H14_10 H 0.2351 0.7503 0.3758 0.0534 Uiso
H15_11 H 0.2930 0.8177 0.0617 0.0537 Uiso
H16_11 H 0.3093 0.8539 0.2826 0.0536 Uiso
H17_9 H 0.0888 0.7543 0.9949 0.0597 Uiso
H18_9 H 0.1224 0.7580 0.9921 0.0597 Uiso
H20_7 H 0.0530 0.7269 0.7873 0.0598 Uiso
H21_8 H 0.0402 0.7463 0.5951 0.0586 Uiso
H22_8 H 0.0264 0.7668 0.3651 0.0584 Uiso
H23_11 H 0.0254 0.7031 0.0548 0.0582 Uiso
H24_11 H 0.0392 0.6812 0.2778 0.0585 Uiso
H29_10 H 0.1844 0.6962 0.3983 0.0589 Uiso
H30_10 H 0.1478 0.6781 0.6168 0.0592 Uiso
H31_11 H 0.0847 0.6793 0.3113 0.0590 Uiso
H32_11 H 0.1201 0.6977 0.0857 0.0589 Uiso
Cu4_7 Cu 0.32643(10) 0.91346(15) 0.6657(5) 0.0167 Uiso
Cu5_4 Cu 0.00690(10) 0.75321(15) 0.0010(5) 0.0167 Uiso
N6_5 N 0.0454(4) 0.6417(2) 0.858(2) 0.0340 Uiso
O9_6 O 0.0569(7) 0.6145(6) 0.505(3) 0.0320 Uiso
O10_5 O 0.1001(6) 0.6430(5) 0.787(2) 0.0290 Uiso
Cu1_6 Cu 0.58702(11) 0.16786(16) 0.6769(6) 0.0286 Uiso
C2_12 C 0.5884(7) 0.2225(9) 0.850(3) 0.0440 Uiso
C3_12 C 0.5629(6) 0.2171(8) 0.746(2) 0.0440 Uiso
C4_11 C 0.5554(8) 0.2016(9) 0.592(3) 0.0440 Uiso
C5_9 C 0.5406(2) 0.2113(4) 0.4532(18) 0.0450 Uiso
C6_9 C 0.5364(2) 0.2369(4) 0.474(2) 0.0450 Uiso
C7_9 C 0.5257(3) 0.2466(5) 0.338(3) 0.0450 Uiso
C8_12 C 0.5233(2) 0.2071(5) 0.1647(19) 0.0450 Uiso
C9_9 C 0.5340(2) 0.1965(4) 0.297(2) 0.0450 Uiso
C17_12 C 0.5219(5) 0.1395(6) 0.840(2) 0.0310 Uiso
C18_12 C 0.5004(5) 0.1271(6) 0.971(3) 0.0300 Uiso
C27_12 C 0.6345(3) 0.0043(4) 0.9640(19) 0.0340 Uiso
C28_9 C 0.5804(8) 0.0966(11) 0.320(3) 0.0400 Uiso
C29_11 C 0.5827(6) 0.1104(8) 0.499(2) 0.0390 Uiso
C30_11 C 0.6076(6) 0.1145(7) 0.604(3) 0.0380 Uiso
C31_12 C 0.6172(7) 0.1316(8) 0.753(3) 0.0370 Uiso
C32_12 C 0.6346(2) 0.1237(4) 0.8849(17) 0.0370 Uiso
C35_12 C 0.6505(2) 0.0891(4) 0.996(2) 0.0360 Uiso
C36_12 C 0.6397(2) 0.0991(4) 0.861(2) 0.0370 Uiso
N1_6 N 0.5194(2) 0.2317(5) 0.187(2) 0.0450 Uiso
N4_12 N 0.5520(5) 0.1487(6) 0.868(2) 0.0310 Uiso
O1_12 O 0.6040(6) 0.2089(8) 0.836(3) 0.0440 Uiso
O2_11 O 0.5598(7) 0.1789(9) 0.550(3) 0.0440 Uiso
O7_11 O 0.5668(5) 0.1234(7) 0.522(3) 0.0390 Uiso
O8_12 O 0.6098(6) 0.1517(7) 0.803(2) 0.0370 Uiso
H4_10 H 0.5511 0.2266 0.7818 0.0473 Uiso
H5_9 H 0.5404 0.2474 0.5812 0.0465 Uiso
H6_9 H 0.5223 0.2639 0.3507 0.0465 Uiso
H7_12 H 0.5191 0.1970 0.0560 0.0467 Uiso
H8_9 H 0.5372 0.1791 0.2802 0.0467 Uiso
H15_12 H 0.5156 0.1419 0.7284 0.0537 Uiso
H16_12 H 0.4794 0.1220 0.9493 0.0536 Uiso
H24_12 H 0.6521 0.0246 0.9445 0.0585 Uiso
H25_9 H 0.5933 0.0870 0.3159 0.0579 Uiso
H26_9 H 0.5589 0.0810 0.2986 0.0579 Uiso
H27_9 H 0.5873 0.1127 0.2346 0.0579 Uiso
H28_11 H 0.6203 0.1063 0.5643 0.0581 Uiso
H31_12 H 0.6540 0.0720 0.9780 0.0590 Uiso
H32_12 H 0.6356 0.0890 0.7524 0.0589 Uiso
N5_8 N 0.6210(5) 0.1861(7) 0.480(2) 0.0450 Uiso
C26_12 C 0.6211(4) 0.9830(4) 0.8326(18) 0.0340 Uiso
N3_9 N 0.5963(4) 0.9546(4) 0.858(2) 0.0340 Uiso
H23_12 H 0.6302 0.9889 0.7215 0.0582 Uiso
Cu5_5 Cu 0.58013(15) 0.92036(18) 0.6676(5) 0.0167 Uiso
O10_6 O 0.0237(5) 0.7904(8) 0.120(2) 0.0290 Uiso
C10_6 C 0.8172(6) 0.7348(10) 0.354(3) 0.0330 Uiso
C11_10 C 0.8045(5) 0.7407(9) 0.187(3) 0.0320 Uiso
C12_10 C 0.8257(4) 0.7641(8) 0.075(3) 0.0310 Uiso
C19_10 C 0.9234(7) 0.6903(10) 0.330(3) 0.0340 Uiso
C20_10 C 0.9491(6) 0.7023(8) 0.194(3) 0.0340 Uiso
C21_10 C 0.9495(7) 0.6804(10) 0.080(3) 0.0340 Uiso
O3_5 O 0.7757(4) 0.7236(7) 0.162(3) 0.0320 Uiso
O5_10 O 0.9639(5) 0.7314(7) 0.172(3) 0.0330 Uiso
H9_6 H 0.8397 0.7468 0.3556 0.0533 Uiso
H10_6 H 0.8089 0.7417 0.4446 0.0533 Uiso
H11_6 H 0.8105 0.7129 0.3686 0.0533 Uiso
H12_10 H 0.8472 0.7741 0.1063 0.0538 Uiso
H17_10 H 0.9123 0.6678 0.3283 0.0597 Uiso
H18_10 H 0.9086 0.6977 0.3255 0.0597 Uiso
H19_6 H 0.9356 0.6977 0.4327 0.0597 Uiso
H20_8 H 0.9397 0.6594 0.1207 0.0598 Uiso
C8_13 C 0.8566(2) 0.8738(5) 0.8314(19) 0.0450 Uiso
C9_10 C 0.8673(2) 0.8632(4) 0.964(2) 0.0450 Uiso
C28_10 C 0.9137(8) 0.7633(11) 0.987(3) 0.0400 Uiso
N1_7 N 0.8527(2) 0.8984(5) 0.854(2) 0.0450 Uiso
H7_13 H 0.8524 0.8637 0.7227 0.0467 Uiso
H8_10 H 0.8705 0.8458 0.9469 0.0467 Uiso
H25_10 H 0.9266 0.7537 0.9826 0.0579 Uiso
H26_10 H 0.8922 0.7477 0.9653 0.0579 Uiso
H27_10 H 0.9206 0.7794 0.9013 0.0579 Uiso
Cu3_8 Cu 0.83453(16) 0.91417(19) 0.6564(6) 0.0286 Uiso
Cu1_7 Cu 0.25369(11) 0.50119(16) 0.0102(6) 0.0286 Uiso
C1_11 C 0.2624(8) 0.5771(11) 0.339(4) 0.0450 Uiso
C2_13 C 0.2551(7) 0.5558(9) 0.183(3) 0.0440 Uiso
C3_13 C 0.2296(6) 0.5504(8) 0.079(2) 0.0440 Uiso
C11_11 C 0.1379(5) 0.4073(9) 0.853(3) 0.0320 Uiso
C12_11 C 0.1591(4) 0.4307(8) 0.741(3) 0.0310 Uiso
C13_11 C 0.1513(4) 0.4400(7) 0.592(3) 0.0300 Uiso
C14_11 C 0.1763(4) 0.4575(5) 0.4592(19) 0.0300 Uiso
C15_11 C 0.2075(4) 0.4669(5) 0.489(2) 0.0300 Uiso
C16_11 C 0.2285(4) 0.4792(5) 0.356(2) 0.0310 Uiso
C17_13 C 0.1886(5) 0.4728(6) 0.173(2) 0.0310 Uiso
C18_13 C 0.1671(5) 0.4604(6) 0.304(3) 0.0300 Uiso
C19_11 C 0.2568(7) 0.3569(10) 0.996(3) 0.0340 Uiso
C20_11 C 0.2825(6) 0.3689(8) 0.860(3) 0.0340 Uiso
C21_11 C 0.2829(7) 0.3470(10) 0.746(3) 0.0340 Uiso
C22_11 C 0.3000(5) 0.3537(9) 0.598(2) 0.0340 Uiso
C23_9 C 0.2885(3) 0.3293(4) 0.4580(16) 0.0340 Uiso
C24_9 C 0.2630(3) 0.3000(4) 0.4849(19) 0.0340 Uiso
C25_9 C 0.2507(3) 0.2799(4) 0.348(2) 0.0340 Uiso
C26_13 C 0.2878(4) 0.3163(4) 0.1659(18) 0.0340 Uiso
C27_13 C 0.3012(3) 0.3376(4) 0.2973(19) 0.0340 Uiso
C31_13 C 0.2839(7) 0.4649(8) 0.086(3) 0.0370 Uiso
C32_13 C 0.3013(2) 0.4570(4) 0.2182(17) 0.0370 Uiso
C33_11 C 0.3070(2) 0.4709(4) 0.377(2) 0.0370 Uiso
C34_11 C 0.3176(2) 0.4599(5) 0.5070(18) 0.0370 Uiso
C35_13 C 0.3172(2) 0.4224(4) 0.329(2) 0.0360 Uiso
C36_13 C 0.3064(2) 0.4324(4) 0.194(2) 0.0370 Uiso
N2_11 N 0.3226(2) 0.4360(5) 0.484(2) 0.0360 Uiso
N3_10 N 0.2630(4) 0.2879(4) 0.191(2) 0.0340 Uiso
N4_13 N 0.2187(5) 0.4820(6) 0.201(2) 0.0310 Uiso
O1_13 O 0.2707(6) 0.5422(8) 0.169(3) 0.0440 Uiso
O3_6 O 0.1091(4) 0.3902(7) 0.828(3) 0.0320 Uiso
O4_8 O 0.1238(4) 0.4334(6) 0.546(2) 0.0290 Uiso
O5_11 O 0.2973(5) 0.3980(7) 0.838(3) 0.0330 Uiso
O6_11 O 0.3224(5) 0.3807(8) 0.553(2) 0.0340 Uiso
O8_13 O 0.2765(6) 0.4850(7) 0.136(2) 0.0370 Uiso
H1_9 H 0.2496 0.5868 0.3405 0.0473 Uiso
H2_11 H 0.2588 0.5650 0.4424 0.0473 Uiso
H3_11 H 0.2841 0.5931 0.3339 0.0473 Uiso
H4_11 H 0.2178 0.5599 0.1151 0.0473 Uiso
H12_11 H 0.1806 0.4407 0.7729 0.0538 Uiso
H13_11 H 0.2139 0.4644 0.6005 0.0536 Uiso
H14_11 H 0.2497 0.4847 0.3758 0.0534 Uiso
H15_13 H 0.1823 0.4752 0.0617 0.0537 Uiso
H16_13 H 0.1461 0.4553 0.2826 0.0536 Uiso
H17_11 H 0.2457 0.3344 0.9949 0.0597 Uiso
H18_11 H 0.2420 0.3643 0.9921 0.0597 Uiso
H20_9 H 0.2731 0.3260 0.7873 0.0598 Uiso
H21_9 H 0.2537 0.2938 0.5951 0.0586 Uiso
H22_9 H 0.2332 0.2595 0.3651 0.0584 Uiso
H23_13 H 0.2969 0.3222 0.0548 0.0582 Uiso
H24_13 H 0.3188 0.3579 0.2778 0.0585 Uiso
H29_11 H 0.3038 0.4881 0.3983 0.0589 Uiso
H30_11 H 0.3219 0.4696 0.6168 0.0592 Uiso
H31_13 H 0.3207 0.4053 0.3113 0.0590 Uiso
H32_13 H 0.3023 0.4223 0.0857 0.0589 Uiso
Cu4_8 Cu 0.08654(15) 0.41297(18) 0.6657(5) 0.0167 Uiso
Cu5_6 Cu 0.24679(15) 0.25370(18) 0.0010(5) 0.0167 Uiso
O9_7 O 0.3855(6) 0.4424(9) 0.505(3) 0.0320 Uiso
O10_7 O 0.3570(5) 0.4571(8) 0.787(2) 0.0290 Uiso
C26_14 C 0.0170(4) 0.6381(2) 0.8326(18) 0.0340 Uiso
H23_14 H 0.0111 0.6413 0.7215 0.0582 Uiso
Cu1_8 Cu 0.83214(16) 0.41916(11) 0.6769(6) 0.0286 Uiso
C2_14 C 0.7775(9) 0.3659(5) 0.850(3) 0.0440 Uiso
C3_14 C 0.7829(8) 0.3458(5) 0.746(2) 0.0440 Uiso
C4_12 C 0.7984(9) 0.3538(5) 0.592(3) 0.0440 Uiso
C5_10 C 0.7887(4) 0.3293(4) 0.4532(18) 0.0450 Uiso
C6_10 C 0.7631(4) 0.2995(4) 0.474(2) 0.0450 Uiso
C7_10 C 0.7534(5) 0.2791(4) 0.338(3) 0.0450 Uiso
C8_14 C 0.7929(5) 0.3162(5) 0.1647(19) 0.0450 Uiso
C9_11 C 0.8035(4) 0.3375(4) 0.297(2) 0.0450 Uiso
C17_14 C 0.8605(6) 0.3824(4) 0.840(2) 0.0310 Uiso
C18_14 C 0.8729(6) 0.3733(4) 0.971(3) 0.0300 Uiso
C27_14 C 0.9957(4) 0.6302(2) 0.9640(19) 0.0340 Uiso
C28_11 C 0.9034(11) 0.4838(7) 0.320(3) 0.0400 Uiso
C29_12 C 0.8896(8) 0.4723(5) 0.499(2) 0.0390 Uiso
C30_12 C 0.8855(7) 0.4931(4) 0.604(3) 0.0380 Uiso
C31_14 C 0.8684(8) 0.4856(4) 0.753(3) 0.0370 Uiso
C32_14 C 0.8763(4) 0.5109(4) 0.8849(17) 0.0370 Uiso
C35_14 C 0.9109(4) 0.5614(4) 0.996(2) 0.0360 Uiso
C36_14 C 0.9009(4) 0.5406(4) 0.861(2) 0.0370 Uiso
N1_8 N 0.7683(5) 0.2877(5) 0.187(2) 0.0450 Uiso
N4_14 N 0.8513(6) 0.4033(4) 0.868(2) 0.0310 Uiso
O1_14 O 0.7911(8) 0.3951(5) 0.836(3) 0.0440 Uiso
O2_12 O 0.8211(9) 0.3809(5) 0.550(3) 0.0440 Uiso
O7_12 O 0.8766(7) 0.4434(5) 0.522(3) 0.0390 Uiso
O8_14 O 0.8483(7) 0.4581(4) 0.803(2) 0.0370 Uiso
H4_12 H 0.7734 0.3245 0.7818 0.0473 Uiso
H5_10 H 0.7526 0.2930 0.5812 0.0465 Uiso
H6_10 H 0.7361 0.2584 0.3507 0.0465 Uiso
H7_14 H 0.8030 0.3221 0.0560 0.0467 Uiso
H8_11 H 0.8209 0.3581 0.2802 0.0467 Uiso
H15_14 H 0.8581 0.3737 0.7284 0.0537 Uiso
H16_14 H 0.8780 0.3574 0.9493 0.0536 Uiso
H24_14 H 0.9754 0.6275 0.9445 0.0585 Uiso
H25_11 H 0.9130 0.5063 0.3159 0.0579 Uiso
H26_11 H 0.9190 0.4779 0.2986 0.0579 Uiso
H27_11 H 0.8873 0.4746 0.2346 0.0579 Uiso
H28_12 H 0.8937 0.5140 0.5643 0.0581 Uiso
H31_14 H 0.9280 0.5820 0.9780 0.0590 Uiso
H32_14 H 0.9110 0.5466 0.7524 0.0589 Uiso
N5_9 N 0.8139(7) 0.4350(5) 0.480(2) 0.0450 Uiso
C10_7 C 0.2652(10) 0.0825(8) 0.354(3) 0.0330 Uiso
C11_12 C 0.2593(9) 0.0639(8) 0.187(3) 0.0320 Uiso
C12_12 C 0.2359(8) 0.0617(7) 0.075(3) 0.0310 Uiso
C19_12 C 0.3097(10) 0.2332(7) 0.330(3) 0.0340 Uiso
C20_12 C 0.2977(8) 0.2469(6) 0.194(3) 0.0340 Uiso
C21_12 C 0.3196(10) 0.2692(7) 0.080(3) 0.0340 Uiso
O3_7 O 0.2764(7) 0.0522(6) 0.162(3) 0.0320 Uiso
O5_12 O 0.2686(7) 0.2326(5) 0.172(3) 0.0330 Uiso
H9_7 H 0.2532 0.0930 0.3556 0.0533 Uiso
H10_7 H 0.2583 0.0673 0.4446 0.0533 Uiso
H11_7 H 0.2871 0.0977 0.3686 0.0533 Uiso
H12_12 H 0.2259 0.0732 0.1063 0.0538 Uiso
H17_12 H 0.3322 0.2446 0.3283 0.0597 Uiso
H18_12 H 0.3023 0.2110 0.3255 0.0597 Uiso
H19_7 H 0.3023 0.2380 0.4327 0.0597 Uiso
H20_10 H 0.3406 0.2804 0.1207 0.0598 Uiso
O10_8 O 0.2096(8) 0.2332(6) 0.120(2) 0.0290 Uiso
C8_15 C 0.1262(5) 0.9829(5) 0.8314(19) 0.0450 Uiso
N1_9 N 0.1016(5) 0.9544(5) 0.854(2) 0.0450 Uiso
H7_15 H 0.1363 0.9888 0.7227 0.0467 Uiso
Cu3_9 Cu 0.08583(19) 0.92035(11) 0.6564(6) 0.0286 Uiso
Cu1_9 Cu 0.49881(16) 0.75249(11) 0.0102(6) 0.0286 Uiso
C1_12 C 0.4229(11) 0.6852(7) 0.339(4) 0.0450 Uiso
C2_15 C 0.4442(9) 0.6992(5) 0.183(3) 0.0440 Uiso
C3_15 C 0.4496(8) 0.6791(5) 0.079(2) 0.0440 Uiso
C11_13 C 0.5927(9) 0.7305(8) 0.853(3) 0.0320 Uiso
C12_13 C 0.5693(8) 0.7283(7) 0.741(3) 0.0310 Uiso
C13_12 C 0.5600(7) 0.7112(6) 0.592(3) 0.0300 Uiso
C14_12 C 0.5425(5) 0.7187(3) 0.4592(19) 0.0300 Uiso
C15_12 C 0.5331(5) 0.7405(3) 0.489(2) 0.0300 Uiso
C16_12 C 0.5208(5) 0.7492(3) 0.356(2) 0.0310 Uiso
C17_15 C 0.5272(6) 0.7157(4) 0.173(2) 0.0310 Uiso
C18_15 C 0.5396(6) 0.7066(4) 0.304(3) 0.0300 Uiso
C19_13 C 0.6431(10) 0.8998(7) 0.996(3) 0.0340 Uiso
C20_13 C 0.6311(8) 0.9135(6) 0.860(3) 0.0340 Uiso
C21_13 C 0.6530(10) 0.9358(7) 0.746(3) 0.0340 Uiso
C22_12 C 0.6463(9) 0.9462(7) 0.598(2) 0.0340 Uiso
C23_10 C 0.6707(4) 0.9591(2) 0.4580(16) 0.0340 Uiso
C24_10 C 0.7000(4) 0.9629(2) 0.4849(19) 0.0340 Uiso
C25_10 C 0.7201(4) 0.9707(2) 0.348(2) 0.0340 Uiso
C26_15 C 0.6837(4) 0.9714(2) 0.1659(18) 0.0340 Uiso
C27_15 C 0.6624(4) 0.9635(2) 0.2973(19) 0.0340 Uiso
C31_15 C 0.5351(8) 0.8189(4) 0.086(3) 0.0370 Uiso
C32_15 C 0.5430(4) 0.8442(4) 0.2182(17) 0.0370 Uiso
C33_12 C 0.5291(4) 0.8360(4) 0.377(2) 0.0370 Uiso
C34_12 C 0.5401(5) 0.8576(5) 0.5070(18) 0.0370 Uiso
C35_15 C 0.5776(4) 0.8947(4) 0.329(2) 0.0360 Uiso
C36_15 C 0.5676(4) 0.8739(4) 0.194(2) 0.0370 Uiso
N2_12 N 0.5640(5) 0.8865(5) 0.484(2) 0.0360 Uiso
N4_15 N 0.5180(6) 0.7366(4) 0.201(2) 0.0310 Uiso
O1_15 O 0.4578(8) 0.7284(5) 0.169(3) 0.0440 Uiso
O3_8 O 0.6098(7) 0.7188(6) 0.828(3) 0.0320 Uiso
O4_9 O 0.5666(6) 0.6903(5) 0.546(2) 0.0290 Uiso
O5_13 O 0.6020(7) 0.8992(5) 0.838(3) 0.0330 Uiso
O6_12 O 0.6193(8) 0.9416(6) 0.553(2) 0.0340 Uiso
O8_15 O 0.5150(7) 0.7914(4) 0.136(2) 0.0370 Uiso
H1_10 H 0.4132 0.6627 0.3405 0.0473 Uiso
H2_12 H 0.4350 0.6937 0.4424 0.0473 Uiso
H3_12 H 0.4069 0.6909 0.3339 0.0473 Uiso
H4_13 H 0.4401 0.6578 0.1151 0.0473 Uiso
H12_13 H 0.5593 0.7398 0.7729 0.0538 Uiso
H13_12 H 0.5356 0.7494 0.6005 0.0536 Uiso
H14_12 H 0.5153 0.7649 0.3758 0.0534 Uiso
H15_15 H 0.5248 0.7070 0.0617 0.0537 Uiso
H16_15 H 0.5447 0.6907 0.2826 0.0536 Uiso
H17_13 H 0.6656 0.9112 0.9949 0.0597 Uiso
H18_13 H 0.6357 0.8776 0.9921 0.0597 Uiso
H20_11 H 0.6740 0.9470 0.7873 0.0598 Uiso
H21_10 H 0.7062 0.9598 0.5951 0.0586 Uiso
H22_10 H 0.7405 0.9736 0.3651 0.0584 Uiso
H23_15 H 0.6778 0.9746 0.0548 0.0582 Uiso
H24_15 H 0.6421 0.9608 0.2778 0.0585 Uiso
H29_12 H 0.5119 0.8156 0.3983 0.0589 Uiso
H30_12 H 0.5304 0.8522 0.6168 0.0592 Uiso
H31_15 H 0.5947 0.9153 0.3113 0.0590 Uiso
H32_15 H 0.5777 0.8799 0.0857 0.0589 Uiso
Cu4_9 Cu 0.58703(18) 0.67357(10) 0.6657(5) 0.0167 Uiso
O9_8 O 0.5576(9) 0.9431(7) 0.505(3) 0.0320 Uiso
O10_9 O 0.5429(8) 0.8999(6) 0.787(2) 0.0290 Uiso
C1_13 C 0.3519(7) 0.5957(8) 0.994(4) 0.0450 Uiso
C10_8 C 0.4158(8) 0.4839(6) 0.313(3) 0.0330 Uiso
C11_14 C 0.3972(8) 0.4712(5) 0.480(3) 0.0320 Uiso
C12_14 C 0.3950(7) 0.4924(4) 0.592(3) 0.0310 Uiso
C13_13 C 0.3779(6) 0.4846(4) 0.741(3) 0.0300 Uiso
C14_13 C 0.3854(3) 0.5096(4) 0.8741(19) 0.0300 Uiso
C15_13 C 0.4072(3) 0.5408(4) 0.844(2) 0.0300 Uiso
C16_13 C 0.4159(3) 0.5618(4) 0.977(2) 0.0310 Uiso
C19_14 C 0.5665(7) 0.5901(7) 0.337(3) 0.0340 Uiso
C20_14 C 0.5802(6) 0.6158(6) 0.473(3) 0.0340 Uiso
C21_14 C 0.6025(7) 0.6162(7) 0.587(3) 0.0340 Uiso
C22_13 C 0.6129(7) 0.6333(5) 0.735(2) 0.0340 Uiso
C23_11 C 0.6258(2) 0.6218(3) 0.8753(16) 0.0340 Uiso
C24_11 C 0.6296(2) 0.5963(3) 0.8484(19) 0.0340 Uiso
C25_11 C 0.6374(2) 0.5840(3) 0.985(2) 0.0340 Uiso
C33_13 C 0.5027(4) 0.6403(2) 0.956(2) 0.0370 Uiso
C34_13 C 0.5243(5) 0.6509(2) 0.8263(18) 0.0370 Uiso
N2_13 N 0.5532(5) 0.6559(2) 0.849(2) 0.0360 Uiso
O5_14 O 0.5659(5) 0.6306(5) 0.495(3) 0.0330 Uiso
O6_13 O 0.6083(6) 0.6557(5) 0.780(2) 0.0340 Uiso
H1_11 H 0.3294 0.5829 0.9928 0.0473 Uiso
H2_13 H 0.3604 0.5921 0.8909 0.0473 Uiso
H3_13 H 0.3576 0.6174 0.9994 0.0473 Uiso
H9_8 H 0.4263 0.5064 0.3111 0.0533 Uiso
H10_8 H 0.4006 0.4756 0.2221 0.0533 Uiso
H11_8 H 0.4310 0.4772 0.2981 0.0533 Uiso
H12_14 H 0.4065 0.5139 0.5604 0.0538 Uiso
H13_13 H 0.4161 0.5472 0.7328 0.0536 Uiso
H14_13 H 0.4316 0.5830 0.9575 0.0534 Uiso
H17_14 H 0.5779 0.5790 0.3384 0.0597 Uiso
H18_14 H 0.5443 0.5753 0.3412 0.0597 Uiso
H19_8 H 0.5713 0.6023 0.2340 0.0597 Uiso
H20_12 H 0.6137 0.6064 0.5460 0.0598 Uiso
H21_11 H 0.6265 0.5870 0.7382 0.0586 Uiso
H22_11 H 0.6403 0.5665 0.9682 0.0584 Uiso
H29_13 H 0.4823 0.6371 0.9350 0.0589 Uiso
H30_13 H 0.5189 0.6552 0.7165 0.0592 Uiso
N6_6 N 0.6213(4) 0.6916(2) 0.475(2) 0.0340 Uiso
C1_14 C 0.0186(7) 0.9290(8) 0.327(4) 0.0450 Uiso
C2_16 C 0.0326(5) 0.9217(7) 0.483(3) 0.0440 Uiso
C3_16 C 0.0125(5) 0.8962(6) 0.587(2) 0.0440 Uiso
C4_13 C 0.0205(5) 0.8887(8) 0.741(3) 0.0440 Uiso
C13_14 C 0.0446(6) 0.8179(4) 0.074(3) 0.0300 Uiso
C14_14 C 0.0521(3) 0.8429(4) 0.2074(19) 0.0300 Uiso
C15_14 C 0.0739(3) 0.8741(4) 0.177(2) 0.0300 Uiso
C16_14 C 0.0826(3) 0.8951(4) 0.310(2) 0.0310 Uiso
C17_16 C 0.0491(4) 0.8552(5) 0.493(2) 0.0310 Uiso
C18_16 C 0.0400(4) 0.8337(5) 0.362(3) 0.0300 Uiso
C22_14 C 0.2796(7) 0.9666(5) 0.068(2) 0.0340 Uiso
C23_12 C 0.2925(2) 0.9551(3) 0.2086(16) 0.0340 Uiso
C24_12 C 0.2963(2) 0.9296(3) 0.1817(19) 0.0340 Uiso
C25_12 C 0.3041(2) 0.9173(3) 0.318(2) 0.0340 Uiso
C26_16 C 0.3048(2) 0.9544(4) 0.5007(18) 0.0340 Uiso
C27_16 C 0.2969(2) 0.9678(3) 0.3693(19) 0.0340 Uiso
C29_13 C 0.1390(5) 0.9160(6) 0.834(2) 0.0390 Uiso
C30_13 C 0.1598(4) 0.9409(6) 0.729(3) 0.0380 Uiso
C31_16 C 0.1523(4) 0.9505(7) 0.580(3) 0.0370 Uiso
C32_16 C 0.1776(4) 0.9679(2) 0.4484(17) 0.0370 Uiso
C33_14 C 0.1694(4) 0.9736(2) 0.289(2) 0.0370 Uiso
C34_14 C 0.1910(5) 0.9842(2) 0.1596(18) 0.0370 Uiso
C35_16 C 0.2281(4) 0.9838(2) 0.337(2) 0.0360 Uiso
C36_16 C 0.2073(4) 0.9730(2) 0.472(2) 0.0370 Uiso
N2_14 N 0.2199(5) 0.9892(2) 0.182(2) 0.0360 Uiso
N3_11 N 0.3084(2) 0.9296(4) 0.475(2) 0.0340 Uiso
N4_16 N 0.0700(4) 0.8853(5) 0.465(2) 0.0310 Uiso
O1_16 O 0.0618(5) 0.9373(6) 0.497(3) 0.0440 Uiso
O2_13 O 0.0476(5) 0.8931(7) 0.783(3) 0.0440 Uiso
O6_14 O 0.2750(6) 0.9890(5) 0.113(2) 0.0340 Uiso
O7_13 O 0.1101(5) 0.9001(5) 0.811(3) 0.0390 Uiso
O8_16 O 0.1248(4) 0.9431(6) 0.530(2) 0.0370 Uiso
H2_14 H 0.0271 0.9254 0.2242 0.0473 Uiso
H3_14 H 0.0243 0.9507 0.3327 0.0473 Uiso
H13_14 H 0.0828 0.8805 0.0661 0.0536 Uiso
H14_14 H 0.0983 0.9163 0.2908 0.0534 Uiso
H15_16 H 0.0404 0.8489 0.6049 0.0537 Uiso
H16_16 H 0.0241 0.8127 0.3840 0.0536 Uiso
H21_12 H 0.2932 0.9203 0.0715 0.0586 Uiso
H22_12 H 0.3070 0.8998 0.3015 0.0584 Uiso
H23_16 H 0.3080 0.9635 0.6118 0.0582 Uiso
H24_16 H 0.2942 0.9854 0.3888 0.0585 Uiso
H28_13 H 0.1807 0.9536 0.7690 0.0581 Uiso
H29_14 H 0.1490 0.9704 0.2683 0.0589 Uiso
H30_14 H 0.1856 0.9885 0.0498 0.0592 Uiso
H31_16 H 0.2487 0.9873 0.3553 0.0590 Uiso
H32_16 H 0.2133 0.9689 0.5809 0.0589 Uiso
C4_14 C 0.6871(5) 0.2221(8) 0.075(3) 0.0440 Uiso
C5_11 C 0.6626(4) 0.2073(2) 0.2135(18) 0.0450 Uiso
C6_11 C 0.6328(4) 0.2031(2) 0.193(2) 0.0450 Uiso
C7_11 C 0.6124(4) 0.1924(3) 0.329(3) 0.0450 Uiso
C8_16 C 0.6495(5) 0.1900(2) 0.5020(19) 0.0450 Uiso
C9_12 C 0.6708(4) 0.2007(2) 0.370(2) 0.0450 Uiso
C28_12 C 0.8171(7) 0.2471(8) 0.347(3) 0.0400 Uiso
C29_14 C 0.8056(5) 0.2494(6) 0.168(2) 0.0390 Uiso
C30_14 C 0.8264(4) 0.2743(6) 0.063(3) 0.0380 Uiso
O2_14 O 0.7142(5) 0.2265(7) 0.117(3) 0.0440 Uiso
O7_14 O 0.7767(5) 0.2335(5) 0.145(3) 0.0390 Uiso
H5_11 H 0.6263 0.2071 0.0855 0.0465 Uiso
H6_11 H 0.5917 0.1890 0.3160 0.0465 Uiso
H7_16 H 0.6554 0.1858 0.6107 0.0467 Uiso
H8_12 H 0.6914 0.2039 0.3865 0.0467 Uiso
H25_12 H 0.8396 0.2600 0.3508 0.0579 Uiso
H26_12 H 0.8112 0.2256 0.3681 0.0579 Uiso
H27_12 H 0.8079 0.2540 0.4321 0.0579 Uiso
H28_14 H 0.8473 0.2870 0.1024 0.0581 Uiso
C1_15 C 0.4043(8) 0.7562(11) 0.994(4) 0.0450 Uiso
C10_9 C 0.5161(6) 0.9319(10) 0.313(3) 0.0330 Uiso
C11_15 C 0.5288(5) 0.9260(9) 0.480(3) 0.0320 Uiso
C12_15 C 0.5076(4) 0.9026(8) 0.592(3) 0.0310 Uiso
C13_15 C 0.5154(4) 0.8933(7) 0.741(3) 0.0300 Uiso
C14_15 C 0.4904(4) 0.8758(5) 0.8741(19) 0.0300 Uiso
C15_15 C 0.4592(4) 0.8664(5) 0.844(2) 0.0300 Uiso
C16_15 C 0.4382(4) 0.8541(5) 0.977(2) 0.0310 Uiso
C19_15 C 0.4099(7) 0.9764(10) 0.337(3) 0.0340 Uiso
C20_15 C 0.3842(6) 0.9644(8) 0.473(3) 0.0340 Uiso
C21_15 C 0.3838(7) 0.9863(10) 0.587(3) 0.0340 Uiso
C22_15 C 0.3667(5) 0.9796(9) 0.735(2) 0.0340 Uiso
C33_15 C 0.3597(2) 0.8624(4) 0.956(2) 0.0370 Uiso
C34_15 C 0.3491(2) 0.8734(5) 0.8263(18) 0.0370 Uiso
N2_15 N 0.3441(2) 0.8973(5) 0.849(2) 0.0360 Uiso
O5_15 O 0.3694(5) 0.9353(7) 0.495(3) 0.0330 Uiso
O6_15 O 0.3443(5) 0.9526(8) 0.780(2) 0.0340 Uiso
H1_12 H 0.4171 0.7465 0.9928 0.0473 Uiso
H2_15 H 0.4079 0.7683 0.8909 0.0473 Uiso
H3_15 H 0.3826 0.7402 0.9994 0.0473 Uiso
H9_9 H 0.4936 0.9199 0.3111 0.0533 Uiso
H10_9 H 0.5244 0.9250 0.2221 0.0533 Uiso
H11_9 H 0.5228 0.9538 0.2981 0.0533 Uiso
H12_15 H 0.4861 0.8926 0.5604 0.0538 Uiso
H13_15 H 0.4528 0.8689 0.7328 0.0536 Uiso
H14_15 H 0.4170 0.8486 0.9575 0.0534 Uiso
H17_15 H 0.4210 0.9989 0.3384 0.0597 Uiso
H18_15 H 0.4247 0.9690 0.3412 0.0597 Uiso
H19_9 H 0.3977 0.9690 0.2340 0.0597 Uiso
H29_15 H 0.3629 0.8452 0.9350 0.0589 Uiso
H30_15 H 0.3448 0.8637 0.7165 0.0592 Uiso
C1_16 C 0.0710(8) 0.0895(11) 0.327(4) 0.0450 Uiso
C2_17 C 0.0783(7) 0.1108(9) 0.483(3) 0.0440 Uiso
C3_17 C 0.1038(6) 0.1162(8) 0.587(2) 0.0440 Uiso
C4_15 C 0.1113(8) 0.1317(9) 0.741(3) 0.0440 Uiso
C5_12 C 0.1261(2) 0.1220(4) 0.8801(18) 0.0450 Uiso
C6_12 C 0.1303(2) 0.0964(4) 0.859(2) 0.0450 Uiso
C7_12 C 0.1410(3) 0.0867(5) 0.995(3) 0.0450 Uiso
C13_16 C 0.1821(4) 0.2266(7) 0.074(3) 0.0300 Uiso
C14_16 C 0.1571(4) 0.2091(5) 0.2074(19) 0.0300 Uiso
C15_16 C 0.1259(4) 0.1997(5) 0.177(2) 0.0300 Uiso
C16_16 C 0.1049(4) 0.1874(5) 0.310(2) 0.0310 Uiso
C17_17 C 0.1448(5) 0.1938(6) 0.493(2) 0.0310 Uiso
C18_17 C 0.1663(5) 0.2062(6) 0.362(3) 0.0300 Uiso
C22_16 C 0.0334(5) 0.3129(9) 0.068(2) 0.0340 Uiso
C23_13 C 0.0449(3) 0.3373(4) 0.2086(16) 0.0340 Uiso
C24_13 C 0.0704(3) 0.3666(4) 0.1817(19) 0.0340 Uiso
C25_13 C 0.0827(3) 0.3867(4) 0.318(2) 0.0340 Uiso
C26_17 C 0.0456(4) 0.3503(4) 0.5007(18) 0.0340 Uiso
C27_17 C 0.0322(3) 0.3290(4) 0.3693(19) 0.0340 Uiso
C29_15 C 0.0840(6) 0.2229(8) 0.834(2) 0.0390 Uiso
C30_15 C 0.0591(6) 0.2188(7) 0.729(3) 0.0380 Uiso
C31_17 C 0.0495(7) 0.2017(8) 0.580(3) 0.0370 Uiso
C32_17 C 0.0321(2) 0.2096(4) 0.4484(17) 0.0370 Uiso
C33_16 C 0.0264(2) 0.1957(4) 0.289(2) 0.0370 Uiso
C34_16 C 0.0158(2) 0.2067(5) 0.1596(18) 0.0370 Uiso
C35_17 C 0.0162(2) 0.2442(4) 0.337(2) 0.0360 Uiso
C36_17 C 0.0270(2) 0.2342(4) 0.472(2) 0.0370 Uiso
N2_16 N 0.0108(2) 0.2306(5) 0.182(2) 0.0360 Uiso
N3_12 N 0.0704(4) 0.3787(4) 0.475(2) 0.0340 Uiso
N4_17 N 0.1147(5) 0.1846(6) 0.465(2) 0.0310 Uiso
O1_17 O 0.0627(6) 0.1244(8) 0.497(3) 0.0440 Uiso
O2_15 O 0.1069(7) 0.1544(9) 0.783(3) 0.0440 Uiso
O6_16 O 0.0110(5) 0.2859(8) 0.113(2) 0.0340 Uiso
O7_15 O 0.0999(5) 0.2099(7) 0.811(3) 0.0390 Uiso
O8_17 O 0.0569(6) 0.1816(7) 0.530(2) 0.0370 Uiso
H1_13 H 0.0838 0.0798 0.3261 0.0473 Uiso
H2_16 H 0.0746 0.1016 0.2242 0.0473 Uiso
H3_16 H 0.0493 0.0735 0.3327 0.0473 Uiso
H4_14 H 0.1156 0.1067 0.5515 0.0473 Uiso
H5_12 H 0.1263 0.0859 0.7521 0.0465 Uiso
H6_12 H 0.1444 0.0694 0.9826 0.0465 Uiso
H13_16 H 0.1195 0.2022 0.0661 0.0536 Uiso
H14_16 H 0.0837 0.1819 0.2908 0.0534 Uiso
H15_17 H 0.1511 0.1914 0.6049 0.0537 Uiso
H16_17 H 0.1873 0.2113 0.3840 0.0536 Uiso
H21_13 H 0.0797 0.3728 0.0715 0.0586 Uiso
H22_13 H 0.1002 0.4071 0.3015 0.0584 Uiso
H23_17 H 0.0365 0.3444 0.6118 0.0582 Uiso
H24_17 H 0.0146 0.3087 0.3888 0.0585 Uiso
H28_15 H 0.0464 0.2270 0.7690 0.0581 Uiso
H29_16 H 0.0296 0.1785 0.2683 0.0589 Uiso
H30_16 H 0.0115 0.1970 0.0498 0.0592 Uiso
H31_17 H 0.0127 0.2613 0.3553 0.0590 Uiso
H32_17 H 0.0311 0.2443 0.5809 0.0589 Uiso
C4_16 C 0.7779(8) 0.4651(9) 0.075(3) 0.0440 Uiso
C5_13 C 0.7927(2) 0.4554(4) 0.2135(18) 0.0450 Uiso
C6_13 C 0.7969(2) 0.4298(4) 0.193(2) 0.0450 Uiso
C7_13 C 0.8076(3) 0.4201(5) 0.329(3) 0.0450 Uiso
C8_17 C 0.8100(2) 0.4596(5) 0.5020(19) 0.0450 Uiso
C9_13 C 0.7993(2) 0.4702(4) 0.370(2) 0.0450 Uiso
C28_13 C 0.7529(8) 0.5701(11) 0.347(3) 0.0400 Uiso
C29_16 C 0.7506(6) 0.5563(8) 0.168(2) 0.0390 Uiso
C30_16 C 0.7257(6) 0.5522(7) 0.063(3) 0.0380 Uiso
O2_16 O 0.7735(7) 0.4878(9) 0.117(3) 0.0440 Uiso
O7_16 O 0.7665(5) 0.5433(7) 0.145(3) 0.0390 Uiso
H5_13 H 0.7929 0.4193 0.0855 0.0465 Uiso
H6_13 H 0.8110 0.4028 0.3160 0.0465 Uiso
H7_17 H 0.8142 0.4697 0.6107 0.0467 Uiso
H8_13 H 0.7961 0.4876 0.3865 0.0467 Uiso
H25_13 H 0.7400 0.5797 0.3508 0.0579 Uiso
H26_13 H 0.7744 0.5857 0.3681 0.0579 Uiso
H27_13 H 0.7460 0.5540 0.4321 0.0579 Uiso
H28_16 H 0.7130 0.5604 0.1024 0.0581 Uiso
C1_17 C 0.2438(11) 0.6481(7) 0.994(4) 0.0450 Uiso
C10_10 C 0.0681(10) 0.5842(8) 0.313(3) 0.0330 Uiso
C11_16 C 0.0740(9) 0.6028(8) 0.480(3) 0.0320 Uiso
C12_16 C 0.0974(8) 0.6050(7) 0.592(3) 0.0310 Uiso
C13_17 C 0.1067(7) 0.6221(6) 0.741(3) 0.0300 Uiso
C14_17 C 0.1242(5) 0.6146(3) 0.8741(19) 0.0300 Uiso
C15_17 C 0.1336(5) 0.5928(3) 0.844(2) 0.0300 Uiso
C16_17 C 0.1459(5) 0.5841(3) 0.977(2) 0.0310 Uiso
C19_16 C 0.0236(10) 0.4335(7) 0.337(3) 0.0340 Uiso
C20_16 C 0.0356(8) 0.4198(6) 0.473(3) 0.0340 Uiso
C21_16 C 0.0137(10) 0.3975(7) 0.587(3) 0.0340 Uiso
C22_17 C 0.0204(9) 0.3871(7) 0.735(2) 0.0340 Uiso
C33_17 C 0.1376(4) 0.4973(4) 0.956(2) 0.0370 Uiso
C34_17 C 0.1266(5) 0.4757(5) 0.8263(18) 0.0370 Uiso
N2_17 N 0.1027(5) 0.4468(5) 0.849(2) 0.0360 Uiso
O5_16 O 0.0647(7) 0.4341(5) 0.495(3) 0.0330 Uiso
O6_17 O 0.0474(8) 0.3917(6) 0.780(2) 0.0340 Uiso
H1_14 H 0.2535 0.6706 0.9928 0.0473 Uiso
H2_17 H 0.2317 0.6396 0.8909 0.0473 Uiso
H3_17 H 0.2598 0.6424 0.9994 0.0473 Uiso
H9_10 H 0.0801 0.5737 0.3111 0.0533 Uiso
H10_10 H 0.0750 0.5994 0.2221 0.0533 Uiso
H11_10 H 0.0462 0.5690 0.2981 0.0533 Uiso
H12_16 H 0.1074 0.5935 0.5604 0.0538 Uiso
H13_17 H 0.1311 0.5839 0.7328 0.0536 Uiso
H14_17 H 0.1514 0.5684 0.9575 0.0534 Uiso
H17_16 H 0.0011 0.4221 0.3384 0.0597 Uiso
H18_16 H 0.0310 0.4557 0.3412 0.0597 Uiso
H19_10 H 0.0310 0.4287 0.2340 0.0597 Uiso
H29_17 H 0.1548 0.5177 0.9350 0.0589 Uiso
H30_17 H 0.1363 0.4811 0.7165 0.0592 Uiso
C1_18 C 0.9105(11) 0.9814(7) 0.327(4) 0.0450 Uiso
C2_18 C 0.8892(9) 0.9674(5) 0.483(3) 0.0440 Uiso
C3_18 C 0.8838(8) 0.9875(5) 0.587(2) 0.0440 Uiso
C4_17 C 0.8683(9) 0.9795(5) 0.741(3) 0.0440 Uiso
C13_18 C 0.7734(7) 0.9554(6) 0.074(3) 0.0300 Uiso
C14_18 C 0.7909(5) 0.9479(3) 0.2074(19) 0.0300 Uiso
C15_18 C 0.8003(5) 0.9261(3) 0.177(2) 0.0300 Uiso
C16_18 C 0.8126(5) 0.9174(3) 0.310(2) 0.0310 Uiso
C17_18 C 0.8062(6) 0.9509(4) 0.493(2) 0.0310 Uiso
C18_18 C 0.7938(6) 0.9600(4) 0.362(3) 0.0300 Uiso
C22_18 C 0.6871(9) 0.7204(7) 0.068(2) 0.0340 Uiso
C23_14 C 0.6627(4) 0.7075(2) 0.2086(16) 0.0340 Uiso
C24_14 C 0.6334(4) 0.7037(2) 0.1817(19) 0.0340 Uiso
C25_14 C 0.6133(4) 0.6959(2) 0.318(2) 0.0340 Uiso
C26_18 C 0.6497(4) 0.6952(2) 0.5007(18) 0.0340 Uiso
C27_18 C 0.6710(4) 0.7031(2) 0.3693(19) 0.0340 Uiso
C29_17 C 0.7771(8) 0.8610(5) 0.834(2) 0.0390 Uiso
C30_17 C 0.7812(7) 0.8402(4) 0.729(3) 0.0380 Uiso
C31_18 C 0.7983(8) 0.8477(4) 0.580(3) 0.0370 Uiso
C32_18 C 0.7904(4) 0.8224(4) 0.4484(17) 0.0370 Uiso
C33_18 C 0.8043(4) 0.8306(4) 0.289(2) 0.0370 Uiso
C34_18 C 0.7933(5) 0.8090(5) 0.1596(18) 0.0370 Uiso
C35_18 C 0.7558(4) 0.7719(4) 0.337(2) 0.0360 Uiso
C36_18 C 0.7658(4) 0.7927(4) 0.472(2) 0.0370 Uiso
N2_18 N 0.7694(5) 0.7801(5) 0.182(2) 0.0360 Uiso
N4_18 N 0.8154(6) 0.9300(4) 0.465(2) 0.0310 Uiso
O1_18 O 0.8756(8) 0.9382(5) 0.497(3) 0.0440 Uiso
O2_17 O 0.8456(9) 0.9524(5) 0.783(3) 0.0440 Uiso
O6_18 O 0.7141(8) 0.7250(6) 0.113(2) 0.0340 Uiso
O7_17 O 0.7901(7) 0.8899(5) 0.811(3) 0.0390 Uiso
O8_18 O 0.8184(7) 0.8752(4) 0.530(2) 0.0370 Uiso
H2_18 H 0.8984 0.9729 0.2242 0.0473 Uiso
H3_18 H 0.9265 0.9757 0.3327 0.0473 Uiso
H13_18 H 0.7978 0.9172 0.0661 0.0536 Uiso
H14_18 H 0.8181 0.9017 0.2908 0.0534 Uiso
H15_18 H 0.8086 0.9596 0.6049 0.0537 Uiso
H16_18 H 0.7887 0.9759 0.3840 0.0536 Uiso
H21_14 H 0.6272 0.7068 0.0715 0.0586 Uiso
H22_14 H 0.5929 0.6930 0.3015 0.0584 Uiso
H23_18 H 0.6556 0.6920 0.6118 0.0582 Uiso
H24_18 H 0.6913 0.7058 0.3888 0.0585 Uiso
H28_17 H 0.7730 0.8193 0.7690 0.0581 Uiso
H29_18 H 0.8215 0.8510 0.2683 0.0589 Uiso
H30_18 H 0.8030 0.8144 0.0498 0.0592 Uiso
H31_18 H 0.7387 0.7513 0.3553 0.0590 Uiso
H32_18 H 0.7557 0.7867 0.5809 0.0589 Uiso
C4_18 C 0.5349(9) 0.3129(5) 0.075(3) 0.0440 Uiso
C5_14 C 0.5446(4) 0.3374(4) 0.2135(18) 0.0450 Uiso
C6_14 C 0.5702(4) 0.3672(4) 0.193(2) 0.0450 Uiso
C7_14 C 0.5799(5) 0.3876(4) 0.329(3) 0.0450 Uiso
C8_18 C 0.5404(5) 0.3505(5) 0.5020(19) 0.0450 Uiso
C9_14 C 0.5298(4) 0.3292(4) 0.370(2) 0.0450 Uiso
C28_14 C 0.4299(11) 0.1829(7) 0.347(3) 0.0400 Uiso
C29_18 C 0.4437(8) 0.1944(5) 0.168(2) 0.0390 Uiso
C30_18 C 0.4478(7) 0.1736(4) 0.063(3) 0.0380 Uiso
O2_18 O 0.5122(9) 0.2858(5) 0.117(3) 0.0440 Uiso
O7_18 O 0.4567(7) 0.2233(5) 0.145(3) 0.0390 Uiso
H5_14 H 0.5807 0.3737 0.0855 0.0465 Uiso
H6_14 H 0.5972 0.4083 0.3160 0.0465 Uiso
H7_18 H 0.5303 0.3446 0.6107 0.0467 Uiso
H8_14 H 0.5124 0.3086 0.3865 0.0467 Uiso
H25_14 H 0.4203 0.1604 0.3508 0.0579 Uiso
H26_14 H 0.4143 0.1888 0.3681 0.0579 Uiso
H27_14 H 0.4460 0.1921 0.4321 0.0579 Uiso
H28_18 H 0.4396 0.1527 0.1024 0.0581 Uiso
C5_15 C 0.0040(4) 0.1261(2) 0.1199(18) 0.0450 Uiso
C6_15 C 0.0338(4) 0.1303(2) 0.141(2) 0.0450 Uiso
C7_15 C 0.0542(4) 0.1410(3) 0.005(3) 0.0450 Uiso
H1_15 H 0.0039 0.0838 0.6739 0.0473 Uiso
H4_15 H 0.0088 0.1156 0.4485 0.0473 Uiso
H5_15 H 0.0403 0.1263 0.2479 0.0465 Uiso
H6_15 H 0.0749 0.1444 0.0174 0.0465 Uiso
C10_11 C 0.9175(8) 0.1828(6) 0.354(3) 0.0330 Uiso
C11_17 C 0.9361(8) 0.1955(5) 0.187(3) 0.0320 Uiso
C12_17 C 0.9383(7) 0.1743(4) 0.075(3) 0.0310 Uiso
C19_17 C 0.7668(7) 0.0766(7) 0.330(3) 0.0340 Uiso
C20_17 C 0.7531(6) 0.0509(6) 0.194(3) 0.0340 Uiso
C21_17 C 0.7308(7) 0.0505(7) 0.080(3) 0.0340 Uiso
O3_9 O 0.9478(6) 0.2243(4) 0.162(3) 0.0320 Uiso
O5_17 O 0.7674(5) 0.0361(5) 0.172(3) 0.0330 Uiso
H9_11 H 0.9070 0.1603 0.3556 0.0533 Uiso
H10_11 H 0.9327 0.1911 0.4446 0.0533 Uiso
H11_11 H 0.9023 0.1895 0.3686 0.0533 Uiso
H12_17 H 0.9268 0.1528 0.1063 0.0538 Uiso
H17_17 H 0.7554 0.0877 0.3283 0.0597 Uiso
H18_17 H 0.7890 0.0914 0.3255 0.0597 Uiso
H19_11 H 0.7620 0.0644 0.4327 0.0597 Uiso
H20_13 H 0.7196 0.0603 0.1207 0.0598 Uiso
C9_15 C 0.9958(4) 0.1327(2) 0.964(2) 0.0450 Uiso
C28_15 C 0.8495(7) 0.0863(8) 0.987(3) 0.0400 Uiso
H8_15 H 0.9752 0.1295 0.9469 0.0467 Uiso
H25_15 H 0.8270 0.0734 0.9826 0.0579 Uiso
H26_15 H 0.8554 0.1078 0.9653 0.0579 Uiso
H27_15 H 0.8587 0.0794 0.9013 0.0579 Uiso
C10_12 C 0.2509(8) 0.8494(6) 0.020(3) 0.0330 Uiso
H9_12 H 0.2404 0.8269 0.0222 0.0533 Uiso
H10_12 H 0.2661 0.8577 0.1112 0.0533 Uiso
H11_12 H 0.2357 0.8561 0.0352 0.0533 Uiso
H19_12 H 0.0954 0.7310 0.0993 0.0597 Uiso
C23_15 C 0.6218(3) 0.9960(4) 0.1247(16) 0.0340 Uiso
C24_15 C 0.5963(3) 0.9667(4) 0.1516(19) 0.0340 Uiso
C25_15 C 0.5840(3) 0.9466(4) 0.015(2) 0.0340 Uiso
H20_14 H 0.6064 0.9927 0.4540 0.0598 Uiso
H21_15 H 0.5870 0.9605 0.2618 0.0586 Uiso
H22_15 H 0.5665 0.9262 0.0318 0.0584 Uiso
O9_9 O 0.0522(6) 0.7757(9) 0.838(3) 0.0320 Uiso
C10_13 C 0.0825(8) 0.8172(6) 0.646(3) 0.0330 Uiso
C11_18 C 0.0639(8) 0.8045(5) 0.813(3) 0.0320 Uiso
C12_18 C 0.0617(7) 0.8257(4) 0.925(3) 0.0310 Uiso
C19_18 C 0.2332(7) 0.9234(7) 0.670(3) 0.0340 Uiso
C20_18 C 0.2469(6) 0.9491(6) 0.806(3) 0.0340 Uiso
C21_18 C 0.2692(7) 0.9495(7) 0.920(3) 0.0340 Uiso
O5_18 O 0.2326(5) 0.9639(5) 0.828(3) 0.0330 Uiso
H9_13 H 0.0930 0.8397 0.6444 0.0533 Uiso
H10_13 H 0.0673 0.8089 0.5554 0.0533 Uiso
H11_13 H 0.0977 0.8105 0.6314 0.0533 Uiso
H12_18 H 0.0732 0.8472 0.8937 0.0538 Uiso
H17_18 H 0.2446 0.9123 0.6717 0.0597 Uiso
H18_18 H 0.2110 0.9086 0.6745 0.0597 Uiso
H19_13 H 0.2380 0.9356 0.5673 0.0597 Uiso
H20_15 H 0.2804 0.9397 0.8793 0.0598 Uiso
C10_14 C 0.1506(6) 0.4014(10) 0.020(3) 0.0330 Uiso
H9_14 H 0.1731 0.4134 0.0222 0.0533 Uiso
H10_14 H 0.1423 0.4083 0.1112 0.0533 Uiso
H11_14 H 0.1439 0.3795 0.0352 0.0533 Uiso
H19_14 H 0.2690 0.3643 0.0993 0.0597 Uiso
C23_16 C 0.0040(4) 0.6258(2) 0.1247(16) 0.0340 Uiso
C24_16 C 0.0333(4) 0.6296(2) 0.1516(19) 0.0340 Uiso
C25_16 C 0.0534(4) 0.6374(2) 0.015(2) 0.0340 Uiso
H20_16 H 0.0073 0.6137 0.4540 0.0598 Uiso
H21_16 H 0.0395 0.6265 0.2618 0.0586 Uiso
H22_16 H 0.0738 0.6403 0.0318 0.0584 Uiso
C9_16 C 0.1368(4) 0.0042(4) 0.964(2) 0.0450 Uiso
C28_16 C 0.2367(11) 0.1505(7) 0.987(3) 0.0400 Uiso
H8_16 H 0.1542 0.0248 0.9469 0.0467 Uiso
H25_16 H 0.2463 0.1730 0.9826 0.0579 Uiso
H26_16 H 0.2523 0.1446 0.9653 0.0579 Uiso
H27_16 H 0.2206 0.1413 0.9013 0.0579 Uiso
C5_16 C 0.1220(4) 0.9960(4) 0.1199(18) 0.0450 Uiso
C6_16 C 0.0964(4) 0.9662(4) 0.141(2) 0.0450 Uiso
C7_16 C 0.0867(5) 0.9458(4) 0.005(3) 0.0450 Uiso
H1_16 H 0.0798 0.9961 0.6739 0.0473 Uiso
H4_16 H 0.1067 0.9912 0.4485 0.0473 Uiso
H5_16 H 0.0859 0.9597 0.2479 0.0465 Uiso
H6_16 H 0.0694 0.9251 0.0174 0.0465 Uiso
C10_15 C 0.5986(10) 0.7491(8) 0.020(3) 0.0330 Uiso
H9_15 H 0.5866 0.7596 0.0222 0.0533 Uiso
H10_15 H 0.5917 0.7339 0.1112 0.0533 Uiso
H11_15 H 0.6205 0.7643 0.0352 0.0533 Uiso
H19_15 H 0.6357 0.9046 0.0993 0.0597 Uiso
C9_17 C 0.0042(4) 0.8673(2) 0.036(2) 0.0450 Uiso
C28_17 C 0.1505(7) 0.9137(8) 0.013(3) 0.0400 Uiso
H8_17 H 0.0248 0.8705 0.0531 0.0467 Uiso
H25_17 H 0.1730 0.9266 0.0174 0.0579 Uiso
H26_17 H 0.1446 0.8922 0.0347 0.0579 Uiso
H27_17 H 0.1413 0.9206 0.0987 0.0579 Uiso
C5_17 C 0.9960(4) 0.8739(2) 0.8801(18) 0.0450 Uiso
C6_17 C 0.9662(4) 0.8697(2) 0.859(2) 0.0450 Uiso
C7_17 C 0.9458(4) 0.8590(3) 0.995(3) 0.0450 Uiso
H1_17 H 0.9961 0.9162 0.3261 0.0473 Uiso
H4_17 H 0.9912 0.8844 0.5515 0.0473 Uiso
H5_17 H 0.9597 0.8737 0.7521 0.0465 Uiso
H6_17 H 0.9251 0.8556 0.9826 0.0465 Uiso
C10_16 C 0.7491(8) 0.1506(6) 0.980(3) 0.0330 Uiso
H9_16 H 0.7596 0.1731 0.9778 0.0533 Uiso
H10_16 H 0.7339 0.1423 0.8888 0.0533 Uiso
H11_16 H 0.7643 0.1439 0.9648 0.0533 Uiso
H19_16 H 0.9046 0.2690 0.9007 0.0597 Uiso
C23_17 C 0.3782(3) 0.0040(4) 0.8753(16) 0.0340 Uiso
C24_17 C 0.4037(3) 0.0333(4) 0.8484(19) 0.0340 Uiso
C25_17 C 0.4160(3) 0.0534(4) 0.985(2) 0.0340 Uiso
H20_17 H 0.3936 0.0073 0.5460 0.0598 Uiso
H21_17 H 0.4130 0.0395 0.7382 0.0586 Uiso
H22_17 H 0.4335 0.0738 0.9682 0.0584 Uiso
C10_17 C 0.8494(6) 0.5986(10) 0.980(3) 0.0330 Uiso
H9_17 H 0.8269 0.5866 0.9778 0.0533 Uiso
H10_17 H 0.8577 0.5917 0.8888 0.0533 Uiso
H11_17 H 0.8561 0.6205 0.9648 0.0533 Uiso
H19_17 H 0.7310 0.6357 0.9007 0.0597 Uiso
C23_18 C 0.9960(4) 0.3742(2) 0.8753(16) 0.0340 Uiso
C24_18 C 0.9667(4) 0.3704(2) 0.8484(19) 0.0340 Uiso
C25_18 C 0.9466(4) 0.3626(2) 0.985(2) 0.0340 Uiso
H20_18 H 0.9927 0.3863 0.5460 0.0598 Uiso
H21_18 H 0.9605 0.3735 0.7382 0.0586 Uiso
H22_18 H 0.9262 0.3597 0.9682 0.0584 Uiso
C5_18 C 0.8780(4) 0.0040(4) 0.8801(18) 0.0450 Uiso
C6_18 C 0.9036(4) 0.0338(4) 0.859(2) 0.0450 Uiso
C7_18 C 0.9133(5) 0.0542(4) 0.995(3) 0.0450 Uiso
H1_18 H 0.9202 0.0039 0.3261 0.0473 Uiso
H4_18 H 0.8933 0.0088 0.5515 0.0473 Uiso
H5_18 H 0.9141 0.0403 0.7521 0.0465 Uiso
H6_18 H 0.9306 0.0749 0.9826 0.0465 Uiso
C9_18 C 0.8632(4) 0.9958(4) 0.036(2) 0.0450 Uiso
C28_18 C 0.7633(11) 0.8495(7) 0.013(3) 0.0400 Uiso
H8_18 H 0.8458 0.9752 0.0531 0.0467 Uiso
H25_18 H 0.7537 0.8270 0.0174 0.0579 Uiso
H26_18 H 0.7477 0.8554 0.0347 0.0579 Uiso
H27_18 H 0.7794 0.8587 0.0987 0.0579 Uiso
C10_18 C 0.4014(10) 0.2509(8) 0.980(3) 0.0330 Uiso
H9_18 H 0.4134 0.2404 0.9778 0.0533 Uiso
H10_18 H 0.4083 0.2661 0.8888 0.0533 Uiso
H11_18 H 0.3795 0.2357 0.9648 0.0533 Uiso
H19_18 H 0.3643 0.0954 0.9007 0.0597 Uiso
loop_
_geom_bond_atom_site_label_1
_geom_bond_atom_site_label_2
_geom_bond_site_symmetry_1
_geom_bond_site_symmetry_2
Cu2 N2 1_555 1_555
C10 C11 1_555 1_555
C11 C12 1_555 1_555
C12 C13 1_555 1_555
C13 C14 1_555 1_555
C14 C15 1_555 1_555
C15 C16 1_555 1_555
C19 C20 1_555 1_555
C20 C21 1_555 1_555
C21 C22 1_555 1_555
C22 C23 1_555 1_555
C23 C24 1_555 1_555
C24 C25 1_555 1_555
C33 C34 1_555 1_555
C34 N2 1_555 1_555
O3 C11 1_555 1_555
O4 C13 1_555 1_555
O5 Cu2 1_555 1_555
O6 Cu2 1_555 1_555
H1 C1 1_555 1_555
H2 C1 1_555 1_555
H3 C1 1_555 1_555
H9 C10 1_555 1_555
H10 C10 1_555 1_555
H11 C10 1_555 1_555
H12 C12 1_555 1_555
H13 C15 1_555 1_555
H14 C16 1_555 1_555
H17 C19 1_555 1_555
H18 C19 1_555 1_555
H19 C19 1_555 1_555
H20 C21 1_555 1_555
H21 C24 1_555 1_555
H22 C25 1_555 1_555
H29 C33 1_555 1_555
H30 C34 1_555 1_555
Cu4 O3 1_555 1_555
N6 Cu2 1_555 1_555
O9 Cu2 1_555 1_555
O10 Cu2 1_555 1_555
C20 O5 1_555 1_555
C22 O6 1_555 1_555
O4 Cu4 1_555 1_555
Cu1 N4 1_555 1_555
C1_2 C2 1_555 1_555
C2 C3 1_555 1_555
C3 C4 1_555 1_555
C13_2 C14_2 1_555 1_555
C14_2 C15_2 1_555 1_555
C15_2 C16_2 1_555 1_555
C16_2 N4 1_555 1_555
C17 C18 1_555 1_555
C18 C14_2 1_555 1_555
C22_2 C23_2 1_555 1_555
C23_2 C24_2 1_555 1_555
C24_2 C25_2 1_555 1_555
C25_2 N3 1_555 1_555
C26 C27 1_555 1_555
C27 C23_2 1_555 1_555
C29 C30 1_555 1_555
C30 C31 1_555 1_555
C31 C32 1_555 1_555
C32 C33_2 1_555 1_555
C33_2 C34_2 1_555 1_555
C34_2 N2_2 1_555 1_555
C35 C36 1_555 1_555
C36 C32 1_555 1_555
N2_2 C35 1_555 1_555
N3 C26 1_555 1_555
N4 C17 1_555 1_555
O1 Cu1 1_555 1_555
O2 Cu1 1_555 1_555
O4_2 C13_2 1_555 1_555
O7 Cu1 1_555 1_555
O8 Cu1 1_555 1_555
H2_2 C1_2 1_555 1_555
H3_2 C1_2 1_555 1_555
H13_2 C15_2 1_555 1_555
H14_2 C16_2 1_555 1_555
H15 C17 1_555 1_555
H16 C18 1_555 1_555
H21_2 C24_2 1_555 1_555
H22_2 C25_2 1_555 1_555
H23 C26 1_555 1_555
H24 C27 1_555 1_555
H28 C30 1_555 1_555
H29_2 C33_2 1_555 1_555
H30_2 C34_2 1_555 1_555
H31 C35 1_555 1_555
H32 C36 1_555 1_555
Cu5 N3 1_555 1_555
N5 Cu1 1_555 1_555
C2 O1 1_555 1_555
C4 O2 1_555 1_555
C22_2 O6_2 1_555 1_555
C29 O7 1_555 1_555
C31 O8 1_555 1_555
O4_2 Cu4_2 1_555 1_555
C4_2 C5 1_555 1_555
C5 C6 1_555 1_555
C6 C7 1_555 1_555
C7 N1 1_555 1_555
C8 C9 1_555 1_555
C9 C5 1_555 1_555
C28 C29_2 1_555 1_555
C29_2 C30_2 1_555 1_555
N1 C8 1_555 1_555
H5 C6 1_555 1_555
H6 C7 1_555 1_555
H7 C8 1_555 1_555
H8 C9 1_555 1_555
H25 C28 1_555 1_555
H26 C28 1_555 1_555
H27 C28 1_555 1_555
H28_2 C30_2 1_555 1_555
Cu3_2 N1 1_555 1_555
C4_2 O2_2 1_555 1_555
C29_2 O7_2 1_555 1_555
Cu5 N2_3 1_555 1_555
C10_2 C11_2 1_555 1_555
C11_2 C12_2 1_555 1_555
C12_2 C13_3 1_555 1_555
C13_3 C14_3 1_555 1_555
C14_3 C15_3 1_555 1_555
C15_3 C16_3 1_555 1_555
C19_2 C20_2 1_555 1_555
C20_2 C21_2 1_555 1_555
C21_2 C22_3 1_555 1_555
C33_3 C34_3 1_555 1_555
C34_3 N2_3 1_555 1_555
O3_2 C11_2 1_555 1_555
O4_3 C13_3 1_555 1_555
O5_2 Cu5 1_555 1_555
O6_3 Cu5 1_555 1_555
H1_2 C1_3 1_555 1_555
H2_3 C1_3 1_555 1_555
H3_3 C1_3 1_555 1_555
H9_2 C10_2 1_555 1_555
H10_2 C10_2 1_555 1_555
H11_2 C10_2 1_555 1_555
H12_2 C12_2 1_555 1_555
H13_3 C15_3 1_555 1_555
H14_3 C16_3 1_555 1_555
H17_2 C19_2 1_555 1_555
H18_2 C19_2 1_555 1_555
H19_2 C19_2 1_555 1_555
H29_3 C33_3 1_555 1_555
H30_3 C34_3 1_555 1_555
Cu4_3 O3_2 1_555 1_555
O9_3 Cu5 1_555 1_555
O10_2 Cu5 1_555 1_555
C20_2 O5_2 1_555 1_555
C22_3 O6_3 1_555 1_555
O4_3 Cu4_3 1_555 1_555
Cu1_2 N4_2 1_555 1_555
C1_4 C2_2 1_555 1_555
C2_2 C3_2 1_555 1_555
C3_2 C4_3 1_555 1_555
C4_3 C5_2 1_555 1_555
C5_2 C6_2 1_555 1_555
C6_2 C7_2 1_555 1_555
C13_4 C14_4 1_555 1_555
C14_4 C15_4 1_555 1_555
C15_4 C16_4 1_555 1_555
C16_4 N4_2 1_555 1_555
C17_2 C18_2 1_555 1_555
C18_2 C14_4 1_555 1_555
C22_4 C23_3 1_555 1_555
C23_3 C24_3 1_555 1_555
C24_3 C25_3 1_555 1_555
C25_3 N3_2 1_555 1_555
C26_2 C27_2 1_555 1_555
C27_2 C23_3 1_555 1_555
C29_3 C30_3 1_555 1_555
C30_3 C31_2 1_555 1_555
C31_2 C32_2 1_555 1_555
C32_2 C33_4 1_555 1_555
C33_4 C34_4 1_555 1_555
C34_4 N2_4 1_555 1_555
C35_2 C36_2 1_555 1_555
C36_2 C32_2 1_555 1_555
N2_4 C35_2 1_555 1_555
N3_2 C26_2 1_555 1_555
N4_2 C17_2 1_555 1_555
O1_2 Cu1_2 1_555 1_555
O2_3 Cu1_2 1_555 1_555
O4_4 C13_4 1_555 1_555
O7_3 Cu1_2 1_555 1_555
O8_2 Cu1_2 1_555 1_555
H1_3 C1_4 1_555 1_555
H2_4 C1_4 1_555 1_555
H3_4 C1_4 1_555 1_555
H4 C3_2 1_555 1_555
H5_2 C6_2 1_555 1_555
H6_2 C7_2 1_555 1_555
H13_4 C15_4 1_555 1_555
H14_4 C16_4 1_555 1_555
H15_2 C17_2 1_555 1_555
H16_2 C18_2 1_555 1_555
H21_3 C24_3 1_555 1_555
H22_3 C25_3 1_555 1_555
H23_2 C26_2 1_555 1_555
H24_2 C27_2 1_555 1_555
H28_3 C30_3 1_555 1_555
H29_4 C33_4 1_555 1_555
H30_4 C34_4 1_555 1_555
H31_2 C35_2 1_555 1_555
H32_2 C36_2 1_555 1_555
Cu5_2 N3_2 1_555 1_555
N5_3 Cu1_2 1_555 1_555
C2_2 O1_2 1_555 1_555
C4_3 O2_3 1_555 1_555
C22_4 O6_4 1_555 1_555
C29_3 O7_3 1_555 1_555
C31_2 O8_2 1_555 1_555
O4_4 Cu4_4 1_555 1_555
C4_4 C5_3 1_555 1_555
C5_3 C6_3 1_555 1_555
C6_3 C7_3 1_555 1_555
C7_3 N1_2 1_555 1_555
C8_2 C9_2 1_555 1_555
C9_2 C5_3 1_555 1_555
C28_2 C29_4 1_555 1_555
C29_4 C30_4 1_555 1_555
N1_2 C8_2 1_555 1_555
H5_3 C6_3 1_555 1_555
H6_3 C7_3 1_555 1_555
H7_2 C8_2 1_555 1_555
H8_2 C9_2 1_555 1_555
H25_2 C28_2 1_555 1_555
H26_2 C28_2 1_555 1_555
H27_2 C28_2 1_555 1_555
H28_4 C30_4 1_555 1_555
Cu3_4 N1_2 1_555 1_555
C4_4 O2_4 1_555 1_555
C29_4 O7_4 1_555 1_555
Cu5_2 N2_5 1_555 1_555
C10_3 C11_3 1_555 1_555
C11_3 C12_3 1_555 1_555
C12_3 C13_5 1_555 1_555
C13_5 C14_5 1_555 1_555
C14_5 C15_5 1_555 1_555
C15_5 C16_5 1_555 1_555
C19_3 C20_3 1_555 1_555
C20_3 C21_3 1_555 1_555
C21_3 C22_5 1_555 1_555
C33_5 C34_5 1_555 1_555
C34_5 N2_5 1_555 1_555
O3_3 C11_3 1_555 1_555
O4_5 C13_5 1_555 1_555
O5_3 Cu5_2 1_555 1_555
O6_5 Cu5_2 1_555 1_555
H1_4 C1_5 1_555 1_555
H2_5 C1_5 1_555 1_555
H3_5 C1_5 1_555 1_555
H9_3 C10_3 1_555 1_555
H10_3 C10_3 1_555 1_555
H11_3 C10_3 1_555 1_555
H12_3 C12_3 1_555 1_555
H13_5 C15_5 1_555 1_555
H14_5 C16_5 1_555 1_555
H17_3 C19_3 1_555 1_555
H18_3 C19_3 1_555 1_555
H19_3 C19_3 1_555 1_555
H29_5 C33_5 1_555 1_555
H30_5 C34_5 1_555 1_555
Cu4_5 O3_3 1_555 1_555
O9_4 Cu5_2 1_555 1_555
O10_3 Cu5_2 1_555 1_555
C20_3 O5_3 1_555 1_555
C22_5 O6_5 1_555 1_555
O4_5 Cu4_5 1_555 1_555
Cu1_3 N4_3 1_555 1_555
C1_6 C2_3 1_555 1_555
C2_3 C3_3 1_555 1_555
C3_3 C4_5 1_555 1_555
C13_6 C14_6 1_555 1_555
C14_6 C15_6 1_555 1_555
C15_6 C16_6 1_555 1_555
C16_6 N4_3 1_555 1_555
C17_3 C18_3 1_555 1_555
C18_3 C14_6 1_555 1_555
C22_6 C23_4 1_555 1_555
C23_4 C24_4 1_555 1_555
C24_4 C25_4 1_555 1_555
C25_4 N6 1_555 1_555
C26_3 C27_3 1_555 1_555
C27_3 C23_4 1_555 1_555
C29_5 C30_5 1_555 1_555
C30_5 C31_3 1_555 1_555
C31_3 C32_3 1_555 1_555
C32_3 C33_6 1_555 1_555
C33_6 C34_6 1_555 1_555
C34_6 N2_6 1_555 1_555
C35_3 C36_3 1_555 1_555
C36_3 C32_3 1_555 1_555
N2_6 C35_3 1_555 1_555
N6 C26_3 1_555 1_555
N4_3 C17_3 1_555 1_555
O1_3 Cu1_3 1_555 1_555
O2_5 Cu1_3 1_555 1_555
O4_6 C13_6 1_555 1_555
O7_5 Cu1_3 1_555 1_555
O8_3 Cu1_3 1_555 1_555
H2_6 C1_6 1_555 1_555
H3_6 C1_6 1_555 1_555
H13_6 C15_6 1_555 1_555
H14_6 C16_6 1_555 1_555
H15_3 C17_3 1_555 1_555
H16_3 C18_3 1_555 1_555
H21_4 C24_4 1_555 1_555
H22_4 C25_4 1_555 1_555
H23_3 C26_3 1_555 1_555
H24_3 C27_3 1_555 1_555
H28_5 C30_5 1_555 1_555
H29_6 C33_6 1_555 1_555
H30_6 C34_6 1_555 1_555
H31_3 C35_3 1_555 1_555
H32_3 C36_3 1_555 1_555
N5_5 Cu1_3 1_555 1_555
C2_3 O1_3 1_555 1_555
C4_5 O2_5 1_555 1_555
C22_6 O6_6 1_555 1_555
C29_5 O7_5 1_555 1_555
C31_3 O8_3 1_555 1_555
O4_6 Cu4_6 1_555 1_555
C4_6 C5_4 1_555 1_555
C5_4 C6_4 1_555 1_555
C6_4 C7_4 1_555 1_555
C7_4 N1_3 1_555 1_555
C8_3 C9_3 1_555 1_555
C9_3 C5_4 1_555 1_555
C28_3 C29_6 1_555 1_555
C29_6 C30_6 1_555 1_555
N1_3 C8_3 1_555 1_555
H5_4 C6_4 1_555 1_555
H6_4 C7_4 1_555 1_555
H7_3 C8_3 1_555 1_555
H8_3 C9_3 1_555 1_555
H25_3 C28_3 1_555 1_555
H26_3 C28_3 1_555 1_555
H27_3 C28_3 1_555 1_555
H28_6 C30_6 1_555 1_555
Cu3_6 N1_3 1_555 1_555
C4_6 O2_6 1_555 1_555
C29_6 O7_6 1_555 1_555
Cu3_6 N4_4 1_555 1_555
C2_4 C3_4 1_555 1_555
C3_4 C4_7 1_555 1_555
C4_7 C5_5 1_555 1_555
C5_5 C6_5 1_555 1_555
C6_5 C7_5 1_555 1_555
C7_5 N5_4 1_555 1_555
C8_4 C9_4 1_555 1_555
C9_4 C5_5 1_555 1_555
C17_4 C18_4 1_555 1_555
C26_4 C27_4 1_555 1_555
C28_4 C29_7 1_555 1_555
C29_7 C30_7 1_555 1_555
C30_7 C31_4 1_555 1_555
C31_4 C32_4 1_555 1_555
C35_4 C36_4 1_555 1_555
C36_4 C32_4 1_555 1_555
N5_4 C8_4 1_555 1_555
N3_3 C26_4 1_555 1_555
N4_4 C17_4 1_555 1_555
O1_4 Cu3_6 1_555 1_555
O2_7 Cu3_6 1_555 1_555
O7_7 Cu3_6 1_555 1_555
O8_4 Cu3_6 1_555 1_555
H4_2 C3_4 1_555 1_555
H5_5 C6_5 1_555 1_555
H6_5 C7_5 1_555 1_555
H7_4 C8_4 1_555 1_555
H8_4 C9_4 1_555 1_555
H15_4 C17_4 1_555 1_555
H16_4 C18_4 1_555 1_555
H23_4 C26_4 1_555 1_555
H24_4 C27_4 1_555 1_555
H25_4 C28_4 1_555 1_555
H26_4 C28_4 1_555 1_555
H27_4 C28_4 1_555 1_555
H28_7 C30_7 1_555 1_555
H31_4 C35_4 1_555 1_555
H32_4 C36_4 1_555 1_555
Cu4 N3_3 1_555 1_555
C2_4 O1_4 1_555 1_555
C4_7 O2_7 1_555 1_555
C29_7 O7_7 1_555 1_555
C31_4 O8_4 1_555 1_555
N6_2 Cu4_6 1_555 1_555
N5_3 C8_5 1_555 1_555
H7_5 C8_5 1_555 1_555
Cu3_5 N4_5 1_555 1_555
Cu4_5 N2_7 1_555 1_555
C1_7 C2_5 1_555 1_555
C2_5 C3_5 1_555 1_555
C11_4 C12_4 1_555 1_555
C12_4 C13_7 1_555 1_555
C13_7 C14_7 1_555 1_555
C14_7 C15_7 1_555 1_555
C15_7 C16_7 1_555 1_555
C16_7 N4_5 1_555 1_555
C17_5 C18_5 1_555 1_555
C18_5 C14_7 1_555 1_555
C19_4 C20_4 1_555 1_555
C20_4 C21_4 1_555 1_555
C21_4 C22_7 1_555 1_555
C22_7 C23_5 1_555 1_555
C23_5 C24_5 1_555 1_555
C24_5 C25_5 1_555 1_555
C25_5 N3_4 1_555 1_555
C26_5 C27_5 1_555 1_555
C27_5 C23_5 1_555 1_555
C31_5 C32_5 1_555 1_555
C32_5 C33_7 1_555 1_555
C33_7 C34_7 1_555 1_555
C34_7 N2_7 1_555 1_555
C35_5 C36_5 1_555 1_555
C36_5 C32_5 1_555 1_555
N2_7 C35_5 1_555 1_555
N3_4 C26_5 1_555 1_555
N4_5 C17_5 1_555 1_555
O1_5 Cu3_5 1_555 1_555
O9_3 C11_4 1_555 1_555
O10_2 C13_7 1_555 1_555
O5_4 Cu4_5 1_555 1_555
O6_7 Cu4_5 1_555 1_555
O8_5 Cu3_5 1_555 1_555
H1_5 C1_7 1_555 1_555
H2_7 C1_7 1_555 1_555
H3_7 C1_7 1_555 1_555
H4_3 C3_5 1_555 1_555
H12_4 C12_4 1_555 1_555
H13_7 C15_7 1_555 1_555
H14_7 C16_7 1_555 1_555
H15_5 C17_5 1_555 1_555
H16_5 C18_5 1_555 1_555
H17_4 C19_4 1_555 1_555
H18_4 C19_4 1_555 1_555
H20_2 C21_4 1_555 1_555
H21_5 C24_5 1_555 1_555
H22_5 C25_5 1_555 1_555
H23_5 C26_5 1_555 1_555
H24_5 C27_5 1_555 1_555
H29_7 C33_7 1_555 1_555
H30_7 C34_7 1_555 1_555
H31_5 C35_5 1_555 1_555
H32_5 C36_5 1_555 1_555
Cu4_2 N3_4 1_555 1_555
N6_3 Cu4_5 1_555 1_555
C2_5 O1_5 1_555 1_555
C20_4 O5_4 1_555 1_555
C22_7 O6_7 1_555 1_555
C31_5 O8_5 1_555 1_555
N3_5 C26_6 1_555 1_555
H23_6 C26_6 1_555 1_555
Cu4_3 N3_5 1_555 1_555
Cu3_2 N4_6 1_555 1_555
C2_6 C3_6 1_555 1_555
C3_6 C4_8 1_555 1_555
C4_8 C5_6 1_555 1_555
C5_6 C6_6 1_555 1_555
C6_6 C7_6 1_555 1_555
C7_6 N5_6 1_555 1_555
C8_6 C9_5 1_555 1_555
C9_5 C5_6 1_555 1_555
C17_6 C18_6 1_555 1_555
C28_5 C29_8 1_555 1_555
C29_8 C30_8 1_555 1_555
C30_8 C31_6 1_555 1_555
C31_6 C32_6 1_555 1_555
C35_6 C36_6 1_555 1_555
C36_6 C32_6 1_555 1_555
N5_6 C8_6 1_555 1_555
N4_6 C17_6 1_555 1_555
O1_6 Cu3_2 1_555 1_555
O2_8 Cu3_2 1_555 1_555
O7_8 Cu3_2 1_555 1_555
O8_6 Cu3_2 1_555 1_555
H4_4 C3_6 1_555 1_555
H5_6 C6_6 1_555 1_555
H6_6 C7_6 1_555 1_555
H7_6 C8_6 1_555 1_555
H8_5 C9_5 1_555 1_555
H15_6 C17_6 1_555 1_555
H16_6 C18_6 1_555 1_555
H24_6 C27_6 1_555 1_555
H25_5 C28_5 1_555 1_555
H26_5 C28_5 1_555 1_555
H27_5 C28_5 1_555 1_555
H28_8 C30_8 1_555 1_555
H31_6 C35_6 1_555 1_555
H32_6 C36_6 1_555 1_555
C2_6 O1_6 1_555 1_555
C4_8 O2_8 1_555 1_555
C29_8 O7_8 1_555 1_555
C31_6 O8_6 1_555 1_555
C8_7 C9_6 1_555 1_555
N5_5 C8_7 1_555 1_555
H7_7 C8_7 1_555 1_555
H8_6 C9_6 1_555 1_555
H25_6 C28_6 1_555 1_555
H26_6 C28_6 1_555 1_555
H27_6 C28_6 1_555 1_555
C10_4 C11_5 1_555 1_555
C11_5 C12_5 1_555 1_555
C19_5 C20_5 1_555 1_555
C20_5 C21_5 1_555 1_555
O9_5 C11_5 1_555 1_555
H9_4 C10_4 1_555 1_555
H10_4 C10_4 1_555 1_555
H11_4 C10_4 1_555 1_555
H12_5 C12_5 1_555 1_555
H17_5 C19_5 1_555 1_555
H18_5 C19_5 1_555 1_555
H19_4 C19_5 1_555 1_555
H20_3 C21_5 1_555 1_555
C20_5 O5_5 1_555 1_555
Cu3 N4_7 1_555 1_555
Cu4 N2_8 1_555 1_555
C1_8 C2_7 1_555 1_555
C2_7 C3_7 1_555 1_555
C11_6 C12_6 1_555 1_555
C12_6 C13_8 1_555 1_555
C13_8 C14_8 1_555 1_555
C14_8 C15_8 1_555 1_555
C15_8 C16_8 1_555 1_555
C16_8 N4_7 1_555 1_555
C17_7 C18_7 1_555 1_555
C18_7 C14_8 1_555 1_555
C19_6 C20_6 1_555 1_555
C20_6 C21_6 1_555 1_555
C21_6 C22_8 1_555 1_555
C22_8 C23_6 1_555 1_555
C23_6 C24_6 1_555 1_555
C24_6 C25_6 1_555 1_555
C25_6 N3_6 1_555 1_555
C26_7 C27_7 1_555 1_555
C27_7 C23_6 1_555 1_555
C31_7 C32_7 1_555 1_555
C32_7 C33_8 1_555 1_555
C33_8 C34_8 1_555 1_555
C34_8 N2_8 1_555 1_555
C35_7 C36_7 1_555 1_555
C36_7 C32_7 1_555 1_555
N2_8 C35_7 1_555 1_555
N3_6 C26_7 1_555 1_555
N4_7 C17_7 1_555 1_555
O1_7 Cu3 1_555 1_555
O9_4 C11_6 1_555 1_555
O10_3 C13_8 1_555 1_555
O5_6 Cu4 1_555 1_555
O6_8 Cu4 1_555 1_555
O8_7 Cu3 1_555 1_555
H1_6 C1_8 1_555 1_555
H2_8 C1_8 1_555 1_555
H3_8 C1_8 1_555 1_555
H4_5 C3_7 1_555 1_555
H12_6 C12_6 1_555 1_555
H13_8 C15_8 1_555 1_555
H14_8 C16_8 1_555 1_555
H15_7 C17_7 1_555 1_555
H16_7 C18_7 1_555 1_555
H17_6 C19_6 1_555 1_555
H18_6 C19_6 1_555 1_555
H20_4 C21_6 1_555 1_555
H21_6 C24_6 1_555 1_555
H22_6 C25_6 1_555 1_555
H23_7 C26_7 1_555 1_555
H24_7 C27_7 1_555 1_555
H29_8 C33_8 1_555 1_555
H30_8 C34_8 1_555 1_555
H31_7 C35_7 1_555 1_555
H32_7 C36_7 1_555 1_555
Cu4_4 N3_6 1_555 1_555
C2_7 O1_7 1_555 1_555
C20_6 O5_6 1_555 1_555
C22_8 O6_8 1_555 1_555
C31_7 O8_7 1_555 1_555
Cu3_4 N4_8 1_555 1_555
C2_8 C3_8 1_555 1_555
C3_8 C4_9 1_555 1_555
C4_9 C5_7 1_555 1_555
C5_7 C6_7 1_555 1_555
C6_7 C7_7 1_555 1_555
C7_7 N5_2 1_555 1_555
C8_8 C9_7 1_555 1_555
C9_7 C5_7 1_555 1_555
C17_8 C18_8 1_555 1_555
C28_7 C29_9 1_555 1_555
C29_9 C30_9 1_555 1_555
C30_9 C31_8 1_555 1_555
C31_8 C32_8 1_555 1_555
C35_8 C36_8 1_555 1_555
C36_8 C32_8 1_555 1_555
N5_2 C8_8 1_555 1_555
N4_8 C17_8 1_555 1_555
O1_8 Cu3_4 1_555 1_555
O2_9 Cu3_4 1_555 1_555
O7_9 Cu3_4 1_555 1_555
O8_8 Cu3_4 1_555 1_555
H4_6 C3_8 1_555 1_555
H5_7 C6_7 1_555 1_555
H6_7 C7_7 1_555 1_555
H7_8 C8_8 1_555 1_555
H8_7 C9_7 1_555 1_555
H15_8 C17_8 1_555 1_555
H16_8 C18_8 1_555 1_555
H24_8 C27_8 1_555 1_555
H25_7 C28_7 1_555 1_555
H26_7 C28_7 1_555 1_555
H27_7 C28_7 1_555 1_555
H28_9 C30_9 1_555 1_555
H31_8 C35_8 1_555 1_555
H32_8 C36_8 1_555 1_555
C2_8 O1_8 1_555 1_555
C4_9 O2_9 1_555 1_555
C29_9 O7_9 1_555 1_555
C31_8 O8_8 1_555 1_555
N6_3 C26_8 1_555 1_555
H23_8 C26_8 1_555 1_555
N5 C8_9 1_555 1_555
H7_9 C8_9 1_555 1_555
C10_5 C11_7 1_555 1_555
C11_7 C12_7 1_555 1_555
C19_7 C20_7 1_555 1_555
C20_7 C21_7 1_555 1_555
O9_2 C11_7 1_555 1_555
O5_7 Cu4_4 1_555 1_555
H9_5 C10_5 1_555 1_555
H10_5 C10_5 1_555 1_555
H11_5 C10_5 1_555 1_555
H12_7 C12_7 1_555 1_555
H17_7 C19_7 1_555 1_555
H18_7 C19_7 1_555 1_555
H19_5 C19_7 1_555 1_555
H20_5 C21_7 1_555 1_555
C20_7 O5_7 1_555 1_555
Cu3_3 N4_9 1_555 1_555
Cu4_3 N2_9 1_555 1_555
C1_9 C2_9 1_555 1_555
C2_9 C3_9 1_555 1_555
C11_8 C12_8 1_555 1_555
C12_8 C13_9 1_555 1_555
C13_9 C14_9 1_555 1_555
C14_9 C15_9 1_555 1_555
C15_9 C16_9 1_555 1_555
C16_9 N4_9 1_555 1_555
C17_9 C18_9 1_555 1_555
C18_9 C14_9 1_555 1_555
C19_8 C20_8 1_555 1_555
C20_8 C21_8 1_555 1_555
C21_8 C22_9 1_555 1_555
C22_9 C23_7 1_555 1_555
C23_7 C24_7 1_555 1_555
C24_7 C25_7 1_555 1_555
C25_7 N6_2 1_555 1_555
C26_9 C27_9 1_555 1_555
C27_9 C23_7 1_555 1_555
C31_9 C32_9 1_555 1_555
C32_9 C33_9 1_555 1_555
C33_9 C34_9 1_555 1_555
C34_9 N2_9 1_555 1_555
C35_9 C36_9 1_555 1_555
C36_9 C32_9 1_555 1_555
N2_9 C35_9 1_555 1_555
N6_2 C26_9 1_555 1_555
N4_9 C17_9 1_555 1_555
O1_9 Cu3_3 1_555 1_555
O9 C11_8 1_555 1_555
O10 C13_9 1_555 1_555
O5_8 Cu4_3 1_555 1_555
O6_9 Cu4_3 1_555 1_555
O8_9 Cu3_3 1_555 1_555
H1_7 C1_9 1_555 1_555
H2_9 C1_9 1_555 1_555
H3_9 C1_9 1_555 1_555
H4_7 C3_9 1_555 1_555
H12_8 C12_8 1_555 1_555
H13_9 C15_9 1_555 1_555
H14_9 C16_9 1_555 1_555
H15_9 C17_9 1_555 1_555
H16_9 C18_9 1_555 1_555
H17_8 C19_8 1_555 1_555
H18_8 C19_8 1_555 1_555
H20_6 C21_8 1_555 1_555
H21_7 C24_7 1_555 1_555
H22_7 C25_7 1_555 1_555
H23_9 C26_9 1_555 1_555
H24_9 C27_9 1_555 1_555
H29_9 C33_9 1_555 1_555
H30_9 C34_9 1_555 1_555
H31_9 C35_9 1_555 1_555
H32_9 C36_9 1_555 1_555
C2_9 O1_9 1_555 1_555
C20_8 O5_8 1_555 1_555
C22_9 O6_9 1_555 1_555
C31_9 O8_9 1_555 1_555
Cu1_4 N4_10 1_555 1_555
C2_10 C3_10 1_555 1_555
C3_10 C4_10 1_555 1_555
C4_10 C5_8 1_555 1_555
C5_8 C6_8 1_555 1_555
C6_8 C7_8 1_555 1_555
C7_8 N1_4 1_555 1_555
C8_10 C9_8 1_555 1_555
C9_8 C5_8 1_555 1_555
C17_10 C18_10 1_555 1_555
C26_10 C27_10 1_555 1_555
C28_8 C29_10 1_555 1_555
C29_10 C30_10 1_555 1_555
C30_10 C31_10 1_555 1_555
C31_10 C32_10 1_555 1_555
C35_10 C36_10 1_555 1_555
C36_10 C32_10 1_555 1_555
N1_4 C8_10 1_555 1_555
N3_7 C26_10 1_555 1_555
N4_10 C17_10 1_555 1_555
O1_10 Cu1_4 1_555 1_555
O2_10 Cu1_4 1_555 1_555
O7_10 Cu1_4 1_555 1_555
O8_10 Cu1_4 1_555 1_555
H4_8 C3_10 1_555 1_555
H5_8 C6_8 1_555 1_555
H6_8 C7_8 1_555 1_555
H7_10 C8_10 1_555 1_555
H8_8 C9_8 1_555 1_555
H15_10 C17_10 1_555 1_555
H16_10 C18_10 1_555 1_555
H23_10 C26_10 1_555 1_555
H24_10 C27_10 1_555 1_555
H25_8 C28_8 1_555 1_555
H26_8 C28_8 1_555 1_555
H27_8 C28_8 1_555 1_555
H28_10 C30_10 1_555 1_555
H31_10 C35_10 1_555 1_555
H32_10 C36_10 1_555 1_555
Cu5_3 N3_7 1_555 1_555
N5_7 Cu1_4 1_555 1_555
C2_10 O1_10 1_555 1_555
C4_10 O2_10 1_555 1_555
C29_10 O7_10 1_555 1_555
C31_10 O8_10 1_555 1_555
N1_5 C8_11 1_555 1_555
H7_11 C8_11 1_555 1_555
Cu3_7 N1_5 1_555 1_555
N6_4 Cu2_2 1_555 1_555
O10_4 Cu2_2 1_555 1_555
Cu1_5 N4_11 1_555 1_555
Cu2_3 N2_10 1_555 1_555
C1_10 C2_11 1_555 1_555
C2_11 C3_11 1_555 1_555
C11_9 C12_9 1_555 1_555
C12_9 C13_10 1_555 1_555
C13_10 C14_10 1_555 1_555
C14_10 C15_10 1_555 1_555
C15_10 C16_10 1_555 1_555
C16_10 N4_11 1_555 1_555
C17_11 C18_11 1_555 1_555
C18_11 C14_10 1_555 1_555
C19_9 C20_9 1_555 1_555
C20_9 C21_9 1_555 1_555
C21_9 C22_10 1_555 1_555
C22_10 C23_8 1_555 1_555
C23_8 C24_8 1_555 1_555
C24_8 C25_8 1_555 1_555
C25_8 N3_8 1_555 1_555
C26_11 C27_11 1_555 1_555
C27_11 C23_8 1_555 1_555
C31_11 C32_11 1_555 1_555
C32_11 C33_10 1_555 1_555
C33_10 C34_10 1_555 1_555
C34_10 N2_10 1_555 1_555
C35_11 C36_11 1_555 1_555
C36_11 C32_11 1_555 1_555
N2_10 C35_11 1_555 1_555
N3_8 C26_11 1_555 1_555
N4_11 C17_11 1_555 1_555
O1_11 Cu1_5 1_555 1_555
O3_4 C11_9 1_555 1_555
O4_7 C13_10 1_555 1_555
O5_9 Cu2_3 1_555 1_555
O6_10 Cu2_3 1_555 1_555
O8_11 Cu1_5 1_555 1_555
H1_8 C1_10 1_555 1_555
H2_10 C1_10 1_555 1_555
H3_10 C1_10 1_555 1_555
H4_9 C3_11 1_555 1_555
H12_9 C12_9 1_555 1_555
H13_10 C15_10 1_555 1_555
H14_10 C16_10 1_555 1_555
H15_11 C17_11 1_555 1_555
H16_11 C18_11 1_555 1_555
H17_9 C19_9 1_555 1_555
H18_9 C19_9 1_555 1_555
H20_7 C21_9 1_555 1_555
H21_8 C24_8 1_555 1_555
H22_8 C25_8 1_555 1_555
H23_11 C26_11 1_555 1_555
H24_11 C27_11 1_555 1_555
H29_10 C33_10 1_555 1_555
H30_10 C34_10 1_555 1_555
H31_11 C35_11 1_555 1_555
H32_11 C36_11 1_555 1_555
Cu4_7 O3_4 1_555 1_555
Cu5_4 N3_8 1_555 1_555
N6_5 Cu2_3 1_555 1_555
O9_6 Cu2_3 1_555 1_555
O10_5 Cu2_3 1_555 1_555
C2_11 O1_11 1_555 1_555
C20_9 O5_9 1_555 1_555
C22_10 O6_10 1_555 1_555
C31_11 O8_11 1_555 1_555
O4_7 Cu4_7 1_555 1_555
Cu1_6 N4_12 1_555 1_555
C2_12 C3_12 1_555 1_555
C3_12 C4_11 1_555 1_555
C4_11 C5_9 1_555 1_555
C5_9 C6_9 1_555 1_555
C6_9 C7_9 1_555 1_555
C7_9 N1_6 1_555 1_555
C8_12 C9_9 1_555 1_555
C9_9 C5_9 1_555 1_555
C17_12 C18_12 1_555 1_555
C28_9 C29_11 1_555 1_555
C29_11 C30_11 1_555 1_555
C30_11 C31_12 1_555 1_555
C31_12 C32_12 1_555 1_555
C35_12 C36_12 1_555 1_555
C36_12 C32_12 1_555 1_555
N1_6 C8_12 1_555 1_555
N4_12 C17_12 1_555 1_555
O1_12 Cu1_6 1_555 1_555
O2_11 Cu1_6 1_555 1_555
O7_11 Cu1_6 1_555 1_555
O8_12 Cu1_6 1_555 1_555
H4_10 C3_12 1_555 1_555
H5_9 C6_9 1_555 1_555
H6_9 C7_9 1_555 1_555
H7_12 C8_12 1_555 1_555
H8_9 C9_9 1_555 1_555
H15_12 C17_12 1_555 1_555
H16_12 C18_12 1_555 1_555
H24_12 C27_12 1_555 1_555
H25_9 C28_9 1_555 1_555
H26_9 C28_9 1_555 1_555
H27_9 C28_9 1_555 1_555
H28_11 C30_11 1_555 1_555
H31_12 C35_12 1_555 1_555
H32_12 C36_12 1_555 1_555
N5_8 Cu1_6 1_555 1_555
C2_12 O1_12 1_555 1_555
C4_11 O2_11 1_555 1_555
C29_11 O7_11 1_555 1_555
C31_12 O8_12 1_555 1_555
N3_9 C26_12 1_555 1_555
H23_12 C26_12 1_555 1_555
Cu5_5 N3_9 1_555 1_555
O10_6 Cu5_4 1_555 1_555
C10_6 C11_10 1_555 1_555
C11_10 C12_10 1_555 1_555
C19_10 C20_10 1_555 1_555
C20_10 C21_10 1_555 1_555
O3_5 C11_10 1_555 1_555
H9_6 C10_6 1_555 1_555
H10_6 C10_6 1_555 1_555
H11_6 C10_6 1_555 1_555
H12_10 C12_10 1_555 1_555
H17_10 C19_10 1_555 1_555
H18_10 C19_10 1_555 1_555
H19_6 C19_10 1_555 1_555
H20_8 C21_10 1_555 1_555
C20_10 O5_10 1_555 1_555
C8_13 C9_10 1_555 1_555
N1_7 C8_13 1_555 1_555
H7_13 C8_13 1_555 1_555
H8_10 C9_10 1_555 1_555
H25_10 C28_10 1_555 1_555
H26_10 C28_10 1_555 1_555
H27_10 C28_10 1_555 1_555
Cu3_8 N1_7 1_555 1_555
Cu1_7 N4_13 1_555 1_555
Cu5_3 N2_11 1_555 1_555
C1_11 C2_13 1_555 1_555
C2_13 C3_13 1_555 1_555
C11_11 C12_11 1_555 1_555
C12_11 C13_11 1_555 1_555
C13_11 C14_11 1_555 1_555
C14_11 C15_11 1_555 1_555
C15_11 C16_11 1_555 1_555
C16_11 N4_13 1_555 1_555
C17_13 C18_13 1_555 1_555
C18_13 C14_11 1_555 1_555
C19_11 C20_11 1_555 1_555
C20_11 C21_11 1_555 1_555
C21_11 C22_11 1_555 1_555
C22_11 C23_9 1_555 1_555
C23_9 C24_9 1_555 1_555
C24_9 C25_9 1_555 1_555
C25_9 N3_10 1_555 1_555
C26_13 C27_13 1_555 1_555
C27_13 C23_9 1_555 1_555
C31_13 C32_13 1_555 1_555
C32_13 C33_11 1_555 1_555
C33_11 C34_11 1_555 1_555
C34_11 N2_11 1_555 1_555
C35_13 C36_13 1_555 1_555
C36_13 C32_13 1_555 1_555
N2_11 C35_13 1_555 1_555
N3_10 C26_13 1_555 1_555
N4_13 C17_13 1_555 1_555
O1_13 Cu1_7 1_555 1_555
O3_6 C11_11 1_555 1_555
O4_8 C13_11 1_555 1_555
O5_11 Cu5_3 1_555 1_555
O6_11 Cu5_3 1_555 1_555
O8_13 Cu1_7 1_555 1_555
H1_9 C1_11 1_555 1_555
H2_11 C1_11 1_555 1_555
H3_11 C1_11 1_555 1_555
H4_11 C3_13 1_555 1_555
H12_11 C12_11 1_555 1_555
H13_11 C15_11 1_555 1_555
H14_11 C16_11 1_555 1_555
H15_13 C17_13 1_555 1_555
H16_13 C18_13 1_555 1_555
H17_11 C19_11 1_555 1_555
H18_11 C19_11 1_555 1_555
H20_9 C21_11 1_555 1_555
H21_9 C24_9 1_555 1_555
H22_9 C25_9 1_555 1_555
H23_13 C26_13 1_555 1_555
H24_13 C27_13 1_555 1_555
H29_11 C33_11 1_555 1_555
H30_11 C34_11 1_555 1_555
H31_13 C35_13 1_555 1_555
H32_13 C36_13 1_555 1_555
Cu4_8 O3_6 1_555 1_555
Cu5_6 N3_10 1_555 1_555
O9_7 Cu5_3 1_555 1_555
O10_7 Cu5_3 1_555 1_555
C2_13 O1_13 1_555 1_555
C20_11 O5_11 1_555 1_555
C22_11 O6_11 1_555 1_555
C31_13 O8_13 1_555 1_555
O4_8 Cu4_8 1_555 1_555
N6_5 C26_14 1_555 1_555
H23_14 C26_14 1_555 1_555
Cu1_8 N4_14 1_555 1_555
C2_14 C3_14 1_555 1_555
C3_14 C4_12 1_555 1_555
C4_12 C5_10 1_555 1_555
C5_10 C6_10 1_555 1_555
C6_10 C7_10 1_555 1_555
C7_10 N1_8 1_555 1_555
C8_14 C9_11 1_555 1_555
C9_11 C5_10 1_555 1_555
C17_14 C18_14 1_555 1_555
C28_11 C29_12 1_555 1_555
C29_12 C30_12 1_555 1_555
C30_12 C31_14 1_555 1_555
C31_14 C32_14 1_555 1_555
C35_14 C36_14 1_555 1_555
C36_14 C32_14 1_555 1_555
N1_8 C8_14 1_555 1_555
N4_14 C17_14 1_555 1_555
O1_14 Cu1_8 1_555 1_555
O2_12 Cu1_8 1_555 1_555
O7_12 Cu1_8 1_555 1_555
O8_14 Cu1_8 1_555 1_555
H4_12 C3_14 1_555 1_555
H5_10 C6_10 1_555 1_555
H6_10 C7_10 1_555 1_555
H7_14 C8_14 1_555 1_555
H8_11 C9_11 1_555 1_555
H15_14 C17_14 1_555 1_555
H16_14 C18_14 1_555 1_555
H24_14 C27_14 1_555 1_555
H25_11 C28_11 1_555 1_555
H26_11 C28_11 1_555 1_555
H27_11 C28_11 1_555 1_555
H28_12 C30_12 1_555 1_555
H31_14 C35_14 1_555 1_555
H32_14 C36_14 1_555 1_555
N5_9 Cu1_8 1_555 1_555
C2_14 O1_14 1_555 1_555
C4_12 O2_12 1_555 1_555
C29_12 O7_12 1_555 1_555
C31_14 O8_14 1_555 1_555
C10_7 C11_12 1_555 1_555
C11_12 C12_12 1_555 1_555
C19_12 C20_12 1_555 1_555
C20_12 C21_12 1_555 1_555
O3_7 C11_12 1_555 1_555
O5_12 Cu5_6 1_555 1_555
H9_7 C10_7 1_555 1_555
H10_7 C10_7 1_555 1_555
H11_7 C10_7 1_555 1_555
H12_12 C12_12 1_555 1_555
H17_12 C19_12 1_555 1_555
H18_12 C19_12 1_555 1_555
H19_7 C19_12 1_555 1_555
H20_10 C21_12 1_555 1_555
O10_8 Cu5_6 1_555 1_555
C20_12 O5_12 1_555 1_555
N1_9 C8_15 1_555 1_555
H7_15 C8_15 1_555 1_555
Cu3_9 N1_9 1_555 1_555
Cu1_9 N4_15 1_555 1_555
Cu5_5 N2_12 1_555 1_555
C1_12 C2_15 1_555 1_555
C2_15 C3_15 1_555 1_555
C11_13 C12_13 1_555 1_555
C12_13 C13_12 1_555 1_555
C13_12 C14_12 1_555 1_555
C14_12 C15_12 1_555 1_555
C15_12 C16_12 1_555 1_555
C16_12 N4_15 1_555 1_555
C17_15 C18_15 1_555 1_555
C18_15 C14_12 1_555 1_555
C19_13 C20_13 1_555 1_555
C20_13 C21_13 1_555 1_555
C21_13 C22_12 1_555 1_555
C22_12 C23_10 1_555 1_555
C23_10 C24_10 1_555 1_555
C24_10 C25_10 1_555 1_555
C25_10 N6_4 1_555 1_555
C26_15 C27_15 1_555 1_555
C27_15 C23_10 1_555 1_555
C31_15 C32_15 1_555 1_555
C32_15 C33_12 1_555 1_555
C33_12 C34_12 1_555 1_555
C34_12 N2_12 1_555 1_555
C35_15 C36_15 1_555 1_555
C36_15 C32_15 1_555 1_555
N2_12 C35_15 1_555 1_555
N6_4 C26_15 1_555 1_555
N4_15 C17_15 1_555 1_555
O1_15 Cu1_9 1_555 1_555
O3_8 C11_13 1_555 1_555
O4_9 C13_12 1_555 1_555
O5_13 Cu5_5 1_555 1_555
O6_12 Cu5_5 1_555 1_555
O8_15 Cu1_9 1_555 1_555
H1_10 C1_12 1_555 1_555
H2_12 C1_12 1_555 1_555
H3_12 C1_12 1_555 1_555
H4_13 C3_15 1_555 1_555
H12_13 C12_13 1_555 1_555
H13_12 C15_12 1_555 1_555
H14_12 C16_12 1_555 1_555
H15_15 C17_15 1_555 1_555
H16_15 C18_15 1_555 1_555
H17_13 C19_13 1_555 1_555
H18_13 C19_13 1_555 1_555
H20_11 C21_13 1_555 1_555
H21_10 C24_10 1_555 1_555
H22_10 C25_10 1_555 1_555
H23_15 C26_15 1_555 1_555
H24_15 C27_15 1_555 1_555
H29_12 C33_12 1_555 1_555
H30_12 C34_12 1_555 1_555
H31_15 C35_15 1_555 1_555
H32_15 C36_15 1_555 1_555
Cu4_9 O3_8 1_555 1_555
O9_8 Cu5_5 1_555 1_555
O10_9 Cu5_5 1_555 1_555
C2_15 O1_15 1_555 1_555
C20_13 O5_13 1_555 1_555
C22_12 O6_12 1_555 1_555
C31_15 O8_15 1_555 1_555
O4_9 Cu4_9 1_555 1_555
Cu4_9 N2_13 1_555 1_555
C10_8 C11_14 1_555 1_555
C11_14 C12_14 1_555 1_555
C12_14 C13_13 1_555 1_555
C13_13 C14_13 1_555 1_555
C14_13 C15_13 1_555 1_555
C15_13 C16_13 1_555 1_555
C19_14 C20_14 1_555 1_555
C20_14 C21_14 1_555 1_555
C21_14 C22_13 1_555 1_555
C22_13 C23_11 1_555 1_555
C23_11 C24_11 1_555 1_555
C24_11 C25_11 1_555 1_555
C33_13 C34_13 1_555 1_555
C34_13 N2_13 1_555 1_555
O9_7 C11_14 1_555 1_555
O10_7 C13_13 1_555 1_555
O5_14 Cu4_9 1_555 1_555
O6_13 Cu4_9 1_555 1_555
H1_11 C1_13 1_555 1_555
H2_13 C1_13 1_555 1_555
H3_13 C1_13 1_555 1_555
H9_8 C10_8 1_555 1_555
H10_8 C10_8 1_555 1_555
H11_8 C10_8 1_555 1_555
H12_14 C12_14 1_555 1_555
H13_13 C15_13 1_555 1_555
H14_13 C16_13 1_555 1_555
H17_14 C19_14 1_555 1_555
H18_14 C19_14 1_555 1_555
H19_8 C19_14 1_555 1_555
H20_12 C21_14 1_555 1_555
H21_11 C24_11 1_555 1_555
H22_11 C25_11 1_555 1_555
H29_13 C33_13 1_555 1_555
H30_13 C34_13 1_555 1_555
N6_6 Cu4_9 1_555 1_555
C20_14 O5_14 1_555 1_555
C22_13 O6_13 1_555 1_555
Cu3_9 N4_16 1_555 1_555
C1_14 C2_16 1_555 1_555
C2_16 C3_16 1_555 1_555
C3_16 C4_13 1_555 1_555
C13_14 C14_14 1_555 1_555
C14_14 C15_14 1_555 1_555
C15_14 C16_14 1_555 1_555
C16_14 N4_16 1_555 1_555
C17_16 C18_16 1_555 1_555
C18_16 C14_14 1_555 1_555
C22_14 C23_12 1_555 1_555
C23_12 C24_12 1_555 1_555
C24_12 C25_12 1_555 1_555
C25_12 N3_11 1_555 1_555
C26_16 C27_16 1_555 1_555
C27_16 C23_12 1_555 1_555
C29_13 C30_13 1_555 1_555
C30_13 C31_16 1_555 1_555
C31_16 C32_16 1_555 1_555
C32_16 C33_14 1_555 1_555
C33_14 C34_14 1_555 1_555
C34_14 N2_14 1_555 1_555
C35_16 C36_16 1_555 1_555
C36_16 C32_16 1_555 1_555
N2_14 C35_16 1_555 1_555
N3_11 C26_16 1_555 1_555
N4_16 C17_16 1_555 1_555
O1_16 Cu3_9 1_555 1_555
O2_13 Cu3_9 1_555 1_555
O10_6 C13_14 1_555 1_555
O7_13 Cu3_9 1_555 1_555
O8_16 Cu3_9 1_555 1_555
H2_14 C1_14 1_555 1_555
H3_14 C1_14 1_555 1_555
H13_14 C15_14 1_555 1_555
H14_14 C16_14 1_555 1_555
H15_16 C17_16 1_555 1_555
H16_16 C18_16 1_555 1_555
H21_12 C24_12 1_555 1_555
H22_12 C25_12 1_555 1_555
H23_16 C26_16 1_555 1_555
H24_16 C27_16 1_555 1_555
H28_13 C30_13 1_555 1_555
H29_14 C33_14 1_555 1_555
H30_14 C34_14 1_555 1_555
H31_16 C35_16 1_555 1_555
H32_16 C36_16 1_555 1_555
Cu4_7 N3_11 1_555 1_555
C2_16 O1_16 1_555 1_555
C4_13 O2_13 1_555 1_555
C22_14 O6_14 1_555 1_555
C29_13 O7_13 1_555 1_555
C31_16 O8_16 1_555 1_555
C4_14 C5_11 1_555 1_555
C5_11 C6_11 1_555 1_555
C6_11 C7_11 1_555 1_555
C7_11 N5_8 1_555 1_555
C8_16 C9_12 1_555 1_555
C9_12 C5_11 1_555 1_555
C28_12 C29_14 1_555 1_555
C29_14 C30_14 1_555 1_555
N5_8 C8_16 1_555 1_555
H5_11 C6_11 1_555 1_555
H6_11 C7_11 1_555 1_555
H7_16 C8_16 1_555 1_555
H8_12 C9_12 1_555 1_555
H25_12 C28_12 1_555 1_555
H26_12 C28_12 1_555 1_555
H27_12 C28_12 1_555 1_555
H28_14 C30_14 1_555 1_555
C4_14 O2_14 1_555 1_555
C29_14 O7_14 1_555 1_555
Cu4_7 N2_15 1_555 1_555
C10_9 C11_15 1_555 1_555
C11_15 C12_15 1_555 1_555
C12_15 C13_15 1_555 1_555
C13_15 C14_15 1_555 1_555
C14_15 C15_15 1_555 1_555
C15_15 C16_15 1_555 1_555
C19_15 C20_15 1_555 1_555
C20_15 C21_15 1_555 1_555
C21_15 C22_15 1_555 1_555
C33_15 C34_15 1_555 1_555
C34_15 N2_15 1_555 1_555
O9_8 C11_15 1_555 1_555
O10_9 C13_15 1_555 1_555
O5_15 Cu4_7 1_555 1_555
O6_15 Cu4_7 1_555 1_555
H1_12 C1_15 1_555 1_555
H2_15 C1_15 1_555 1_555
H3_15 C1_15 1_555 1_555
H9_9 C10_9 1_555 1_555
H10_9 C10_9 1_555 1_555
H11_9 C10_9 1_555 1_555
H12_15 C12_15 1_555 1_555
H13_15 C15_15 1_555 1_555
H14_15 C16_15 1_555 1_555
H17_15 C19_15 1_555 1_555
H18_15 C19_15 1_555 1_555
H19_9 C19_15 1_555 1_555
H29_15 C33_15 1_555 1_555
H30_15 C34_15 1_555 1_555
C20_15 O5_15 1_555 1_555
C22_15 O6_15 1_555 1_555
Cu3_7 N4_17 1_555 1_555
C1_16 C2_17 1_555 1_555
C2_17 C3_17 1_555 1_555
C3_17 C4_15 1_555 1_555
C4_15 C5_12 1_555 1_555
C5_12 C6_12 1_555 1_555
C6_12 C7_12 1_555 1_555
C13_16 C14_16 1_555 1_555
C14_16 C15_16 1_555 1_555
C15_16 C16_16 1_555 1_555
C16_16 N4_17 1_555 1_555
C17_17 C18_17 1_555 1_555
C18_17 C14_16 1_555 1_555
C22_16 C23_13 1_555 1_555
C23_13 C24_13 1_555 1_555
C24_13 C25_13 1_555 1_555
C25_13 N3_12 1_555 1_555
C26_17 C27_17 1_555 1_555
C27_17 C23_13 1_555 1_555
C29_15 C30_15 1_555 1_555
C30_15 C31_17 1_555 1_555
C31_17 C32_17 1_555 1_555
C32_17 C33_16 1_555 1_555
C33_16 C34_16 1_555 1_555
C34_16 N2_16 1_555 1_555
C35_17 C36_17 1_555 1_555
C36_17 C32_17 1_555 1_555
N2_16 C35_17 1_555 1_555
N3_12 C26_17 1_555 1_555
N4_17 C17_17 1_555 1_555
O1_17 Cu3_7 1_555 1_555
O2_15 Cu3_7 1_555 1_555
O10_8 C13_16 1_555 1_555
O7_15 Cu3_7 1_555 1_555
O8_17 Cu3_7 1_555 1_555
H1_13 C1_16 1_555 1_555
H2_16 C1_16 1_555 1_555
H3_16 C1_16 1_555 1_555
H4_14 C3_17 1_555 1_555
H5_12 C6_12 1_555 1_555
H6_12 C7_12 1_555 1_555
H13_16 C15_16 1_555 1_555
H14_16 C16_16 1_555 1_555
H15_17 C17_17 1_555 1_555
H16_17 C18_17 1_555 1_555
H21_13 C24_13 1_555 1_555
H22_13 C25_13 1_555 1_555
H23_17 C26_17 1_555 1_555
H24_17 C27_17 1_555 1_555
H28_15 C30_15 1_555 1_555
H29_16 C33_16 1_555 1_555
H30_16 C34_16 1_555 1_555
H31_17 C35_17 1_555 1_555
H32_17 C36_17 1_555 1_555
Cu4_8 N3_12 1_555 1_555
C2_17 O1_17 1_555 1_555
C4_15 O2_15 1_555 1_555
C22_16 O6_16 1_555 1_555
C29_15 O7_15 1_555 1_555
C31_17 O8_17 1_555 1_555
C4_16 C5_13 1_555 1_555
C5_13 C6_13 1_555 1_555
C6_13 C7_13 1_555 1_555
C7_13 N5_9 1_555 1_555
C8_17 C9_13 1_555 1_555
C9_13 C5_13 1_555 1_555
C28_13 C29_16 1_555 1_555
C29_16 C30_16 1_555 1_555
N5_9 C8_17 1_555 1_555
H5_13 C6_13 1_555 1_555
H6_13 C7_13 1_555 1_555
H7_17 C8_17 1_555 1_555
H8_13 C9_13 1_555 1_555
H25_13 C28_13 1_555 1_555
H26_13 C28_13 1_555 1_555
H27_13 C28_13 1_555 1_555
H28_16 C30_16 1_555 1_555
C4_16 O2_16 1_555 1_555
C29_16 O7_16 1_555 1_555
Cu4_8 N2_17 1_555 1_555
C10_10 C11_16 1_555 1_555
C11_16 C12_16 1_555 1_555
C12_16 C13_17 1_555 1_555
C13_17 C14_17 1_555 1_555
C14_17 C15_17 1_555 1_555
C15_17 C16_17 1_555 1_555
C19_16 C20_16 1_555 1_555
C20_16 C21_16 1_555 1_555
C21_16 C22_17 1_555 1_555
C33_17 C34_17 1_555 1_555
C34_17 N2_17 1_555 1_555
O9_6 C11_16 1_555 1_555
O10_5 C13_17 1_555 1_555
O5_16 Cu4_8 1_555 1_555
O6_17 Cu4_8 1_555 1_555
H1_14 C1_17 1_555 1_555
H2_17 C1_17 1_555 1_555
H3_17 C1_17 1_555 1_555
H9_10 C10_10 1_555 1_555
H10_10 C10_10 1_555 1_555
H11_10 C10_10 1_555 1_555
H12_16 C12_16 1_555 1_555
H13_17 C15_17 1_555 1_555
H14_17 C16_17 1_555 1_555
H17_16 C19_16 1_555 1_555
H18_16 C19_16 1_555 1_555
H19_10 C19_16 1_555 1_555
H29_17 C33_17 1_555 1_555
H30_17 C34_17 1_555 1_555
C20_16 O5_16 1_555 1_555
C22_17 O6_17 1_555 1_555
Cu3_8 N4_18 1_555 1_555
C1_18 C2_18 1_555 1_555
C2_18 C3_18 1_555 1_555
C3_18 C4_17 1_555 1_555
C13_18 C14_18 1_555 1_555
C14_18 C15_18 1_555 1_555
C15_18 C16_18 1_555 1_555
C16_18 N4_18 1_555 1_555
C17_18 C18_18 1_555 1_555
C18_18 C14_18 1_555 1_555
C22_18 C23_14 1_555 1_555
C23_14 C24_14 1_555 1_555
C24_14 C25_14 1_555 1_555
C25_14 N6_6 1_555 1_555
C26_18 C27_18 1_555 1_555
C27_18 C23_14 1_555 1_555
C29_17 C30_17 1_555 1_555
C30_17 C31_18 1_555 1_555
C31_18 C32_18 1_555 1_555
C32_18 C33_18 1_555 1_555
C33_18 C34_18 1_555 1_555
C34_18 N2_18 1_555 1_555
C35_18 C36_18 1_555 1_555
C36_18 C32_18 1_555 1_555
N2_18 C35_18 1_555 1_555
N6_6 C26_18 1_555 1_555
N4_18 C17_18 1_555 1_555
O1_18 Cu3_8 1_555 1_555
O2_17 Cu3_8 1_555 1_555
O10_4 C13_18 1_555 1_555
O7_17 Cu3_8 1_555 1_555
O8_18 Cu3_8 1_555 1_555
H2_18 C1_18 1_555 1_555
H3_18 C1_18 1_555 1_555
H13_18 C15_18 1_555 1_555
H14_18 C16_18 1_555 1_555
H15_18 C17_18 1_555 1_555
H16_18 C18_18 1_555 1_555
H21_14 C24_14 1_555 1_555
H22_14 C25_14 1_555 1_555
H23_18 C26_18 1_555 1_555
H24_18 C27_18 1_555 1_555
H28_17 C30_17 1_555 1_555
H29_18 C33_18 1_555 1_555
H30_18 C34_18 1_555 1_555
H31_18 C35_18 1_555 1_555
H32_18 C36_18 1_555 1_555
C2_18 O1_18 1_555 1_555
C4_17 O2_17 1_555 1_555
C22_18 O6_18 1_555 1_555
C29_17 O7_17 1_555 1_555
C31_18 O8_18 1_555 1_555
C4_18 C5_14 1_555 1_555
C5_14 C6_14 1_555 1_555
C6_14 C7_14 1_555 1_555
C7_14 N5_7 1_555 1_555
C8_18 C9_14 1_555 1_555
C9_14 C5_14 1_555 1_555
C28_14 C29_18 1_555 1_555
C29_18 C30_18 1_555 1_555
N5_7 C8_18 1_555 1_555
H5_14 C6_14 1_555 1_555
H6_14 C7_14 1_555 1_555
H7_18 C8_18 1_555 1_555
H8_14 C9_14 1_555 1_555
H25_14 C28_14 1_555 1_555
H26_14 C28_14 1_555 1_555
H27_14 C28_14 1_555 1_555
H28_18 C30_18 1_555 1_555
C4_18 O2_18 1_555 1_555
C29_18 O7_18 1_555 1_555
C5_15 C6_15 1_555 1_555
C6_15 C7_15 1_555 1_555
H5_15 C6_15 1_555 1_555
H6_15 C7_15 1_555 1_555
C10_11 C11_17 1_555 1_555
C11_17 C12_17 1_555 1_555
C19_17 C20_17 1_555 1_555
C20_17 C21_17 1_555 1_555
O3_9 C11_17 1_555 1_555
H9_11 C10_11 1_555 1_555
H10_11 C10_11 1_555 1_555
H11_11 C10_11 1_555 1_555
H12_17 C12_17 1_555 1_555
H17_17 C19_17 1_555 1_555
H18_17 C19_17 1_555 1_555
H19_11 C19_17 1_555 1_555
H20_13 C21_17 1_555 1_555
C20_17 O5_17 1_555 1_555
H8_15 C9_15 1_555 1_555
H25_15 C28_15 1_555 1_555
H26_15 C28_15 1_555 1_555
H27_15 C28_15 1_555 1_555
H9_12 C10_12 1_555 1_555
H10_12 C10_12 1_555 1_555
H11_12 C10_12 1_555 1_555
C23_15 C24_15 1_555 1_555
C24_15 C25_15 1_555 1_555
H21_15 C24_15 1_555 1_555
H22_15 C25_15 1_555 1_555
C10_13 C11_18 1_555 1_555
C11_18 C12_18 1_555 1_555
C19_18 C20_18 1_555 1_555
C20_18 C21_18 1_555 1_555
O9_9 C11_18 1_555 1_555
H9_13 C10_13 1_555 1_555
H10_13 C10_13 1_555 1_555
H11_13 C10_13 1_555 1_555
H12_18 C12_18 1_555 1_555
H17_18 C19_18 1_555 1_555
H18_18 C19_18 1_555 1_555
H19_13 C19_18 1_555 1_555
H20_15 C21_18 1_555 1_555
C20_18 O5_18 1_555 1_555
H9_14 C10_14 1_555 1_555
H10_14 C10_14 1_555 1_555
H11_14 C10_14 1_555 1_555
C23_16 C24_16 1_555 1_555
C24_16 C25_16 1_555 1_555
H21_16 C24_16 1_555 1_555
H22_16 C25_16 1_555 1_555
H8_16 C9_16 1_555 1_555
H25_16 C28_16 1_555 1_555
H26_16 C28_16 1_555 1_555
H27_16 C28_16 1_555 1_555
C5_16 C6_16 1_555 1_555
C6_16 C7_16 1_555 1_555
H5_16 C6_16 1_555 1_555
H6_16 C7_16 1_555 1_555
H9_15 C10_15 1_555 1_555
H10_15 C10_15 1_555 1_555
H11_15 C10_15 1_555 1_555
H8_17 C9_17 1_555 1_555
H25_17 C28_17 1_555 1_555
H26_17 C28_17 1_555 1_555
H27_17 C28_17 1_555 1_555
C5_17 C6_17 1_555 1_555
C6_17 C7_17 1_555 1_555
H5_17 C6_17 1_555 1_555
H6_17 C7_17 1_555 1_555
H9_16 C10_16 1_555 1_555
H10_16 C10_16 1_555 1_555
H11_16 C10_16 1_555 1_555
C23_17 C24_17 1_555 1_555
C24_17 C25_17 1_555 1_555
H21_17 C24_17 1_555 1_555
H22_17 C25_17 1_555 1_555
H9_17 C10_17 1_555 1_555
H10_17 C10_17 1_555 1_555
H11_17 C10_17 1_555 1_555
C23_18 C24_18 1_555 1_555
C24_18 C25_18 1_555 1_555
H21_18 C24_18 1_555 1_555
H22_18 C25_18 1_555 1_555
C5_18 C6_18 1_555 1_555
C6_18 C7_18 1_555 1_555
H5_18 C6_18 1_555 1_555
H6_18 C7_18 1_555 1_555
H8_18 C9_18 1_555 1_555
H25_18 C28_18 1_555 1_555
H26_18 C28_18 1_555 1_555
H27_18 C28_18 1_555 1_555
H9_18 C10_18 1_555 1_555
H10_18 C10_18 1_555 1_555
H11_18 C10_18 1_555 1_555

#END
