
###############################################################################
#
# This file contains modified crystal structure data generated from the
# MOF subset of the Cambridge Structural Database (CSD) v543 
# hosted by the Cambridge Crystallographic Data Centre (CCDC).
#
# This work is licensed under the Creative Commons
# Attribution-NonCommercial-ShareAlike 4.0 International License.
# To view a copy of this license, visit
# http://creativecommons.org/licenses/by-nc-sa/4.0/
# or send a letter to
# Creative Commons, PO Box 1866, Mountain View, CA 94042, USA.
#
# CIF created using the CSD Python API on 29 September 2022
# The structure has been converted into the P1 space group
# The structure has a 3D framework
# The original CSD entry FUWYII01 is in the rhombohedral crystal system
# The framework has been calculated to contain at least 10.0% void space
# The void calculation uses a probe of radius 1.32A, grid spacing 0.4
#
###############################################################################

data_FUWYII01
_chemical_formula_moiety         '(C162 H144 Cu16 N18 O36)n'
_symmetry_cell_setting           triclinic
_symmetry_space_group_name_H-M   'P 1'
_symmetry_Int_Tables_number      1
_space_group_name_Hall           'P 1'
loop_
_symmetry_equiv_pos_site_id
_symmetry_equiv_pos_as_xyz
1 x,y,z
_cell_length_a                   25.1855(18)
_cell_length_b                   25.1855(18)
_cell_length_c                   7.7300(6)
_cell_angle_alpha                90
_cell_angle_beta                 90
_cell_angle_gamma                120
_cell_volume                     4246.31
loop_
_atom_site_label
_atom_site_type_symbol
_atom_site_fract_x
_atom_site_fract_y
_atom_site_fract_z
C13 C 0.0407(3) 0.7566(4) 0.1736(8)
N2 N 0.0981(3) 0.8005(3) 0.1477(6)
H10 H 0.0291 0.7395 0.2861
Cu2 Cu 0.1666 0.8333 0.3333
Cu3 Cu 0.4999 0.5000 1.0000
Cu1 Cu 0.1666 0.3334 0.3334
O1 O 0.0901(2) 0.3014(2) 0.2039(6)
C1 C 0.0376(2) 0.2577(3) 0.2517(7)
C7 C 0.0246(3) 0.2254(4) 0.4043(8)
C8 C 0.0670(3) 0.2202(4) 0.5119(8)
O2 O 0.1236(2) 0.2493(3) 0.4915(7)
C9 C 0.0421(5) 0.1734(5) 0.6544(14)
H6 H 0.0761 0.1745 0.7189
H7 H 0.0171 0.1826 0.7328
H8 H 0.0167 0.1325 0.6042
O3 O 0.2432(2) 0.3653(2) 0.4628(6)
C10 C 0.2957(2) 0.4090(3) 0.4150(7)
C11 C 0.3452(2) 0.4267(3) 0.5475(7)
C12 C 0.3303(3) 0.4015(4) 0.7121(8)
C13_2 C 0.3740(3) 0.4233(4) 0.8403(8)
N2_2 N 0.4314(3) 0.4672(3) 0.8144(6)
C14 C 0.4460(3) 0.4896(4) 0.6538(8)
C15 C 0.4054(3) 0.4717(4) 0.5195(7)
C16 C 0.3087(3) 0.4413(4) 0.2624(8)
C17 C 0.2663(3) 0.4465(4) 0.1548(8)
O4 O 0.2097(2) 0.4174(3) 0.1752(7)
C18 C 0.2912(5) 0.4933(5) 0.0123(14)
H9 H 0.2900 0.3691 0.7362
H10_2 H 0.3624 0.4062 0.9528
H11 H 0.4874 0.5199 0.6315
H12 H 0.4183 0.4899 0.4085
H13 H 0.3503 0.4620 0.2258
H16 H 0.3166 0.5342 0.0625
N3 N 0.1339(3) 0.3691(4) 0.5189(6)
N4 N 0.1995(3) 0.2975(4) 0.1477(6)
Cu1_2 Cu 0.5000 1.0000 1.0000
O1_2 O 0.4235(2) 0.9680(2) 0.8705(6)
C1_2 C 0.3710(2) 0.9243(3) 0.9183(7)
C2 C 0.3215(2) 0.9066(3) 0.7858(7)
C3 C 0.3364(3) 0.9318(4) 0.6212(8)
C4 C 0.2927(3) 0.9100(4) 0.4930(8)
N1 N 0.2353(3) 0.8661(3) 0.5189(6)
C5 C 0.2207(3) 0.8437(4) 0.6795(8)
C6 C 0.2613(3) 0.8616(4) 0.8138(7)
H1 H 0.3767 0.9642 0.5971
H2 H 0.3043 0.9271 0.3805
H3 H 0.1793 0.8134 0.7018
H4 H 0.2484 0.8434 0.9248
N4_2 N 0.5328(3) 0.9642(4) 0.8144(6)
H6_2 H 0.4922 0.2350 0.0522
H7_2 H 0.4841 0.1679 0.0661
C12_2 C 0.2652(4) 0.2621(5) 0.0454(8)
C13_3 C 0.2434(4) 0.2840(5) 0.1736(8)
H9_2 H 0.2976 0.2542 0.0695
H10_3 H 0.2605 0.2895 0.2861
Cu1_3 Cu 0.6666 0.8333 0.3334
O1_3 O 0.6986(2) 0.7888(3) 0.2039(6)
C1_3 C 0.7423(3) 0.7800(4) 0.2517(7)
C2_2 C 0.7600(3) 0.7482(4) 0.1192(7)
C5_2 C 0.8229(4) 0.7103(5) 0.0129(8)
C6_2 C 0.8050(4) 0.7330(5) 0.1472(7)
C7_2 C 0.7746(4) 0.7993(5) 0.4043(8)
C8_2 C 0.7798(4) 0.8469(5) 0.5119(8)
O2_2 O 0.7507(3) 0.8744(4) 0.4915(7)
C9_2 C 0.8266(5) 0.8688(7) 0.6544(14)
H3_2 H 0.8532 0.6992 0.0352
H4_2 H 0.8232 0.7383 0.2582
H5 H 0.7953 0.7784 0.4409
H6_3 H 0.8255 0.9017 0.7189
H7_3 H 0.8174 0.8346 0.7328
H8_2 H 0.8675 0.8843 0.6042
O3_2 O 0.6347(2) 0.8779(3) 0.4628(6)
C10_2 C 0.5910(3) 0.8867(4) 0.4150(7)
C11_2 C 0.5733(3) 0.9185(4) 0.5475(7)
C12_3 C 0.5985(4) 0.9288(5) 0.7121(8)
C13_4 C 0.5767(4) 0.9507(5) 0.8403(8)
C14_2 C 0.5104(4) 0.9564(5) 0.6538(8)
C15_2 C 0.5283(4) 0.9337(5) 0.5195(7)
C16_2 C 0.5587(4) 0.8674(5) 0.2624(8)
C17_2 C 0.5535(4) 0.8198(5) 0.1548(8)
O4_2 O 0.5826(3) 0.7923(4) 0.1752(7)
C18_2 C 0.5067(5) 0.7979(7) 0.0123(14)
H9_3 H 0.6309 0.9209 0.7362
H10_4 H 0.5938 0.9562 0.9528
H11_2 H 0.4801 0.9675 0.6315
H12_2 H 0.5101 0.9284 0.4085
H13_2 H 0.5380 0.8883 0.2258
H16_2 H 0.4658 0.7824 0.0625
N3_2 N 0.6309(4) 0.7647(5) 0.5189(6)
N4_3 N 0.7025(4) 0.9019(5) 0.1477(6)
Cu1_4 Cu -0.0000 0.4999 1.0000
O1_4 O 0.0320(2) 0.4554(3) 0.8705(6)
C1_4 C 0.0757(3) 0.4466(4) 0.9183(7)
C2_3 C 0.0934(3) 0.4148(4) 0.7858(7)
C3_2 C 0.0682(4) 0.4045(5) 0.6212(8)
C4_2 C 0.0900(4) 0.3826(5) 0.4930(8)
C5_3 C 0.1563(4) 0.3769(5) 0.6795(8)
C6_3 C 0.1384(4) 0.3996(5) 0.8138(7)
H1_2 H 0.0358 0.4124 0.5971
H2_2 H 0.0729 0.3771 0.3805
H3_3 H 0.1866 0.3658 0.7018
H4_3 H 0.1566 0.4049 0.9248
N4_4 N 0.0358(4) 0.5686(5) 0.8144(6)
C13_5 C 0.7160(5) 0.9593(3) 0.1736(8)
H10_5 H 0.7105 0.9709 0.2861
O1_5 O 0.2112(3) 0.9099(2) 0.2039(6)
C1_5 C 0.2200(4) 0.9624(2) 0.2517(7)
C7_3 C 0.2007(5) 0.9754(3) 0.4043(8)
C8_3 C 0.1531(5) 0.9330(3) 0.5119(8)
O2_3 O 0.1256(4) 0.8764(2) 0.4915(7)
C9_3 C 0.1312(7) 0.9579(5) 0.6544(14)
H6_4 H 0.0983 0.9239 0.7189
H7_4 H 0.1654 0.9829 0.7328
H8_3 H 0.1157 0.9833 0.6042
O3_3 O 0.1221(3) 0.7568(2) 0.4628(6)
C10_3 C 0.1133(4) 0.7043(2) 0.4150(7)
C11_3 C 0.0815(4) 0.6548(2) 0.5475(7)
C12_4 C 0.0712(5) 0.6697(3) 0.7121(8)
C13_6 C 0.0493(5) 0.6260(3) 0.8403(8)
C14_3 C 0.0436(5) 0.5540(3) 0.6538(8)
C15_3 C 0.0663(5) 0.5946(3) 0.5195(7)
C16_3 C 0.1326(5) 0.6913(3) 0.2624(8)
C17_3 C 0.1802(5) 0.7337(3) 0.1548(8)
O4_3 O 0.2077(4) 0.7903(2) 0.1752(7)
C18_3 C 0.2021(7) 0.7088(5) 0.0123(14)
H9_4 H 0.0791 0.7100 0.7362
H10_6 H 0.0438 0.6376 0.9528
H11_3 H 0.0325 0.5126 0.6315
H12_3 H 0.0716 0.5817 0.4085
H13_3 H 0.1117 0.6497 0.2258
H16_3 H 0.2176 0.6834 0.0625
O1_6 O 0.5446(3) 0.5765(2) 0.8705(6)
C1_6 C 0.5534(4) 0.6290(2) 0.9183(7)
C2_4 C 0.5852(4) 0.6785(2) 0.7858(7)
C3_3 C 0.5955(5) 0.6636(3) 0.6212(8)
C4_3 C 0.6174(5) 0.7073(3) 0.4930(8)
C5_4 C 0.6231(5) 0.7793(3) 0.6795(8)
C6_4 C 0.6004(5) 0.7387(3) 0.8138(7)
H1_3 H 0.5876 0.6233 0.5971
H2_3 H 0.6229 0.6957 0.3805
H3_4 H 0.6342 0.8207 0.7018
H4_4 H 0.5951 0.7516 0.9248
C16_4 C 0.4659(5) 0.3580(3) 0.9291(8)
C17_4 C 0.5135(5) 0.4004(3) 0.8215(8)
O4_4 O 0.5410(4) 0.4570(2) 0.8419(7)
C18_4 C 0.5354(7) 0.3755(5) 0.6790(14)
H13_4 H 0.4450 0.3164 0.8925
H14 H 0.5683 0.4095 0.6145
H15 H 0.5012 0.3505 0.6006
H16_4 H 0.5509 0.3501 0.7292
C11_4 C 0.0119(2) 0.7600(3) 0.8808(7)
C14_4 C 0.1127(3) 0.8229(4) 0.9871(8)
C15_4 C 0.0721(3) 0.8050(4) 0.8528(7)
H11_4 H 0.1541 0.8532 0.9648
H12_4 H 0.0850 0.8232 0.7418
H13_5 H 0.0170 0.7953 0.5591
H6_5 H 0.7428 0.5078 0.0522
H7_5 H 0.6838 0.5159 0.0661
C12_5 C 0.9970(3) 0.7348(4) 0.0454(8)
H9_5 H 0.9567 0.7024 0.0695
Cu1_5 Cu 0.8333 0.6667 0.6667
O1_7 O 0.7568(2) 0.6347(2) 0.5372(6)
C1_7 C 0.7043(2) 0.5910(3) 0.5850(7)
C2_5 C 0.6548(2) 0.5733(3) 0.4525(7)
C3_4 C 0.6697(3) 0.5985(4) 0.2879(8)
C4_4 C 0.6260(3) 0.5767(4) 0.1597(8)
N1_2 N 0.5686(3) 0.5328(3) 0.1856(6)
C5_5 C 0.5540(3) 0.5104(4) 0.3462(8)
C6_5 C 0.5946(3) 0.5283(4) 0.4805(7)
C7_4 C 0.6913(3) 0.5587(4) 0.7376(8)
C8_4 C 0.7337(3) 0.5535(4) 0.8452(8)
O2_4 O 0.7903(2) 0.5826(3) 0.8248(7)
C9_4 C 0.7088(5) 0.5067(5) 0.9877(14)
H1_4 H 0.7100 0.6309 0.2638
H2_4 H 0.6376 0.5938 0.0472
H3_5 H 0.5126 0.4801 0.3685
H4_5 H 0.5817 0.5101 0.5915
H5_2 H 0.6497 0.5380 0.7742
H8_4 H 0.6834 0.4658 0.9375
O3_4 O 0.9099(2) 0.6986(2) 0.7961(6)
C10_4 C 0.9624(2) 0.7423(3) 0.7483(7)
C16_5 C 0.9754(3) 0.7746(4) 0.5957(8)
C17_5 C 0.9330(3) 0.7798(4) 0.4881(8)
O4_5 O 0.8764(2) 0.7507(3) 0.5085(7)
C18_5 C 0.9579(5) 0.8266(5) 0.3456(14)
H14_2 H 0.9239 0.8255 0.2811
H15_2 H 0.9829 0.8174 0.2672
H16_5 H 0.9833 0.8675 0.3958
Cu3_2 Cu 0.4999 0.5000 -0.0000
N3_3 N 0.8005(3) 0.7025(4) 0.8523(6)
N4_5 N 0.8661(3) 0.6309(4) 0.4811(6)
C4_5 C 0.9593(3) 0.2434(4) 0.8264(8)
N1_3 N 0.9019(3) 0.1995(3) 0.8523(6)
H2_5 H 0.9709 0.2605 0.7139
Cu3_3 Cu 0.8333 0.1666 0.6666
Cu1_6 Cu 0.5000 0.0000 0.0000
O3_5 O 0.5765(2) 0.0320(2) 0.1295(6)
C10_5 C 0.6290(2) 0.0757(3) 0.0817(7)
C11_5 C 0.6785(2) 0.0934(3) 0.2142(7)
C12_6 C 0.6636(3) 0.0682(4) 0.3788(8)
C13_7 C 0.7073(3) 0.0900(4) 0.5070(8)
N2_3 N 0.7647(3) 0.1339(3) 0.4811(6)
C14_5 C 0.7793(3) 0.1563(4) 0.3205(8)
C15_5 C 0.7387(3) 0.1384(4) 0.1862(7)
H9_6 H 0.6233 0.0358 0.4029
H10_7 H 0.6957 0.0729 0.6195
H11_5 H 0.8207 0.1866 0.2982
H12_5 H 0.7516 0.1566 0.0752
N3_4 N 0.4672(3) 0.0358(4) 0.1856(6)
Cu1_7 Cu 0.3333 0.1666 0.6667
O1_8 O 0.3653(2) 0.1221(3) 0.5372(6)
C1_8 C 0.4090(3) 0.1133(4) 0.5850(7)
C2_6 C 0.4267(3) 0.0815(4) 0.4525(7)
C3_5 C 0.4015(4) 0.0712(5) 0.2879(8)
C4_6 C 0.4233(4) 0.0493(5) 0.1597(8)
C5_6 C 0.4896(4) 0.0436(5) 0.3462(8)
C6_6 C 0.4717(4) 0.0663(5) 0.4805(7)
C7_5 C 0.4413(4) 0.1326(5) 0.7376(8)
C8_5 C 0.4465(4) 0.1802(5) 0.8452(8)
O2_5 O 0.4174(3) 0.2077(4) 0.8248(7)
C9_5 C 0.4933(5) 0.2021(7) 0.9877(14)
H1_5 H 0.3691 0.0791 0.2638
H2_6 H 0.4062 0.0438 0.0472
H3_6 H 0.5199 0.0325 0.3685
H4_6 H 0.4899 0.0716 0.5915
H5_3 H 0.4620 0.1117 0.7742
H8_5 H 0.5342 0.2176 0.9375
O3_6 O 0.3014(2) 0.2112(3) 0.7961(6)
C10_6 C 0.2577(3) 0.2200(4) 0.7483(7)
C11_6 C 0.2400(3) 0.2518(4) 0.8808(7)
C14_6 C 0.1771(4) 0.2897(5) 0.9871(8)
C15_6 C 0.1950(4) 0.2670(5) 0.8528(7)
C16_6 C 0.2254(4) 0.2007(5) 0.5957(8)
C17_6 C 0.2202(4) 0.1531(5) 0.4881(8)
O4_6 O 0.2493(3) 0.1256(4) 0.5085(7)
C18_6 C 0.1734(5) 0.1312(7) 0.3456(14)
H11_6 H 0.1468 0.3008 0.9648
H12_6 H 0.1768 0.2617 0.7418
H13_6 H 0.2047 0.2216 0.5591
H14_3 H 0.1745 0.0983 0.2811
H15_3 H 0.1826 0.1654 0.2672
H16_6 H 0.1325 0.1157 0.3958
N3_5 N 0.2975(4) 0.0981(5) 0.8523(6)
N4_6 N 0.3691(4) 0.2353(5) 0.4811(6)
C3_6 C 0.7348(4) 0.7379(5) 0.9546(8)
C4_7 C 0.7566(4) 0.7160(5) 0.8264(8)
H1_6 H 0.7024 0.7458 0.9305
H2_7 H 0.7395 0.7105 0.7139
H14_4 H 0.5078 0.7650 0.9478
H15_4 H 0.5159 0.8321 0.9339
Cu1_8 Cu 1.0000 0.4999 0.0000
O3_7 O 0.9680(2) 0.5446(3) 0.1295(6)
C10_7 C 0.9243(3) 0.5534(4) 0.0817(7)
C11_7 C 0.9066(3) 0.5852(4) 0.2142(7)
C12_7 C 0.9318(4) 0.5955(5) 0.3788(8)
C13_8 C 0.9100(4) 0.6174(5) 0.5070(8)
C14_7 C 0.8437(4) 0.6231(5) 0.3205(8)
C15_7 C 0.8616(4) 0.6004(5) 0.1862(7)
H9_7 H 0.9642 0.5876 0.4029
H10_8 H 0.9271 0.6229 0.6195
H11_7 H 0.8134 0.6342 0.2982
H12_7 H 0.8434 0.5951 0.0752
N3_6 N 0.9642(4) 0.4314(5) 0.1856(6)
O1_9 O 0.8779(3) 0.2432(2) 0.5372(6)
C1_9 C 0.8867(4) 0.2957(2) 0.5850(7)
C2_7 C 0.9185(4) 0.3452(2) 0.4525(7)
C3_7 C 0.9288(5) 0.3303(3) 0.2879(8)
C4_8 C 0.9507(5) 0.3740(3) 0.1597(8)
C5_7 C 0.9564(5) 0.4460(3) 0.3462(8)
C6_7 C 0.9337(5) 0.4054(3) 0.4805(7)
C7_6 C 0.8674(5) 0.3087(3) 0.7376(8)
C8_6 C 0.8198(5) 0.2663(3) 0.8452(8)
O2_6 O 0.7923(4) 0.2097(2) 0.8248(7)
C9_6 C 0.7979(7) 0.2912(5) 0.9877(14)
H1_7 H 0.9209 0.2900 0.2638
H2_8 H 0.9562 0.3624 0.0472
H3_7 H 0.9675 0.4874 0.3685
H4_7 H 0.9284 0.4183 0.5915
H5_4 H 0.8883 0.3503 0.7742
H8_6 H 0.7824 0.3166 0.9375
O3_8 O 0.7888(3) 0.0901(2) 0.7961(6)
C10_8 C 0.7800(4) 0.0376(2) 0.7483(7)
C16_7 C 0.7993(5) 0.0246(3) 0.5957(8)
C17_7 C 0.8469(5) 0.0670(3) 0.4881(8)
O4_7 O 0.8744(4) 0.1236(2) 0.5085(7)
C18_7 C 0.8688(7) 0.0421(5) 0.3456(14)
H14_5 H 0.9017 0.0761 0.2811
H15_5 H 0.8346 0.0171 0.2672
H16_7 H 0.8843 0.0167 0.3958
C4_9 C 0.2840(5) 0.0407(3) 0.8264(8)
H2_9 H 0.2895 0.0291 0.7139
C7_7 C 0.5341(5) 0.6420(3) 0.0709(8)
C8_7 C 0.4865(5) 0.5996(3) 0.1785(8)
O2_7 O 0.4590(4) 0.5430(2) 0.1581(7)
C9_7 C 0.4646(7) 0.6245(5) 0.3210(14)
H5_5 H 0.5550 0.6836 0.1075
H6_6 H 0.4317 0.5905 0.3855
H7_6 H 0.4988 0.6495 0.3994
H8_7 H 0.4491 0.6499 0.2708
O3_9 O 0.4554(3) 0.4235(2) 0.1295(6)
C10_9 C 0.4466(4) 0.3710(2) 0.0817(7)
C11_8 C 0.4148(4) 0.3215(2) 0.2142(7)
C12_8 C 0.4045(5) 0.3364(3) 0.3788(8)
C13_9 C 0.3826(5) 0.2927(3) 0.5070(8)
C14_8 C 0.3769(5) 0.2207(3) 0.3205(8)
C15_8 C 0.3996(5) 0.2613(3) 0.1862(7)
H9_8 H 0.4124 0.3767 0.4029
H10_9 H 0.3771 0.3043 0.6195
H11_8 H 0.3658 0.1793 0.2982
H12_8 H 0.4049 0.2484 0.0752
C3_8 C 0.0030(3) 0.2652(4) 0.9546(8)
H1_8 H 0.0433 0.2976 0.9305
H14_6 H 0.2572 0.4922 0.9478
H15_6 H 0.3162 0.4841 0.9339
C2_8 C 0.9881(2) 0.2400(3) 0.1192(7)
C5_8 C 0.8873(3) 0.1771(4) 0.0129(8)
C6_8 C 0.9279(3) 0.1950(4) 0.1472(7)
H3_8 H 0.8459 0.1468 0.0352
H4_8 H 0.9150 0.1768 0.2582
H5_6 H 0.9830 0.2047 0.4409
Cu1_9 Cu 0.5000 0.0000 1.0000
C16_8 C 0.6420(3) 0.1080(4) 0.9291(8)
C17_8 C 0.5996(3) 0.1132(4) 0.8215(8)
O4_8 O 0.5430(2) 0.0841(3) 0.8419(7)
C18_8 C 0.6245(5) 0.1600(5) 0.6790(14)
H13_7 H 0.6836 0.1287 0.8925
H14_7 H 0.5905 0.1589 0.6145
H15_7 H 0.6495 0.1508 0.6006
H16_8 H 0.6499 0.2009 0.7292
Cu1_10 Cu 0.5000 1.0000 0.0000
C7_8 C 0.3580(3) 0.8920(4) 0.0709(8)
C8_8 C 0.4004(3) 0.8868(4) 0.1785(8)
O2_8 O 0.4570(2) 0.9159(3) 0.1581(7)
C9_8 C 0.3755(5) 0.8400(5) 0.3210(14)
H5_7 H 0.3164 0.8713 0.1075
H6_7 H 0.4095 0.8411 0.3855
H7_7 H 0.3505 0.8492 0.3994
H8_8 H 0.3501 0.7991 0.2708
Cu1_11 Cu -0.0000 0.4999 0.0000
C7_9 C 0.1080(4) 0.4659(5) 0.0709(8)
C8_9 C 0.1132(4) 0.5135(5) 0.1785(8)
O2_9 O 0.0841(3) 0.5410(4) 0.1581(7)
C9_9 C 0.1600(5) 0.5354(7) 0.3210(14)
H5_8 H 0.1287 0.4450 0.1075
H6_8 H 0.1589 0.5683 0.3855
H7_8 H 0.1508 0.5012 0.3994
H8_9 H 0.2009 0.5509 0.2708
Cu1_12 Cu 1.0000 0.4999 1.0000
C16_9 C 0.8920(4) 0.5341(5) 0.9291(8)
C17_9 C 0.8868(4) 0.4865(5) 0.8215(8)
O4_9 O 0.9159(3) 0.4590(4) 0.8419(7)
C18_9 C 0.8400(5) 0.4646(7) 0.6790(14)
H13_8 H 0.8713 0.5550 0.8925
H14_8 H 0.8411 0.4317 0.6145
H15_8 H 0.8492 0.4988 0.6006
H16_9 H 0.7991 0.4491 0.7292
H6_9 H 0.7650 0.2572 0.0522
H7_9 H 0.8321 0.3162 0.0661
C12_9 C 0.7379(5) 0.0030(3) 0.0454(8)
H9_9 H 0.7458 0.0433 0.0695
C11_9 C 0.7482(4) 0.9881(2) 0.8808(7)
C14_9 C 0.7103(5) 0.8873(3) 0.9871(8)
C15_9 C 0.7330(5) 0.9279(3) 0.8528(7)
H11_9 H 0.6992 0.8459 0.9648
H12_9 H 0.7383 0.9150 0.7418
H13_9 H 0.7784 0.9830 0.5591
C2_9 C 0.2518(4) 0.0119(2) 0.1192(7)
C5_9 C 0.2897(5) 0.1127(3) 0.0129(8)
C6_9 C 0.2670(5) 0.0721(3) 0.1472(7)
H3_9 H 0.3008 0.1541 0.0352
H4_9 H 0.2617 0.0850 0.2582
H5_9 H 0.2216 0.0170 0.4409
C3_9 C 0.2621(5) 0.9970(3) 0.9546(8)
H1_9 H 0.2542 0.9567 0.9305
H14_9 H 0.2350 0.7428 0.9478
H15_9 H 0.1679 0.6838 0.9339
loop_
_geom_bond_atom_site_label_1
_geom_bond_atom_site_label_2
_geom_bond_site_symmetry_1
_geom_bond_site_symmetry_2
N2 C13 1_555 1_555
H10 C13 1_555 1_555
Cu2 N2 1_555 1_555
Cu1 O1 1_555 1_555
O1 C1 1_555 1_555
C7 C1 1_555 1_555
C8 C7 1_555 1_555
O2 Cu1 1_555 1_555
C9 C8 1_555 1_555
H6 C9 1_555 1_555
H7 C9 1_555 1_555
H8 C9 1_555 1_555
O3 Cu1 1_555 1_555
C10 O3 1_555 1_555
C11 C10 1_555 1_555
C12 C11 1_555 1_555
C13_2 C12 1_555 1_555
N2_2 C13_2 1_555 1_555
C14 N2_2 1_555 1_555
C15 C11 1_555 1_555
C16 C10 1_555 1_555
C17 C16 1_555 1_555
O4 Cu1 1_555 1_555
C18 C17 1_555 1_555
H9 C12 1_555 1_555
H10_2 C13_2 1_555 1_555
H11 C14 1_555 1_555
H12 C15 1_555 1_555
H13 C16 1_555 1_555
H16 C18 1_555 1_555
Cu3 N2_2 1_555 1_555
N3 Cu1 1_555 1_555
N4 Cu1 1_555 1_555
C8 O2 1_555 1_555
C14 C15 1_555 1_555
C17 O4 1_555 1_555
Cu1_2 O1_2 1_555 1_555
O1_2 C1_2 1_555 1_555
C1_2 C2 1_555 1_555
C2 C3 1_555 1_555
C3 C4 1_555 1_555
C4 N1 1_555 1_555
N1 C5 1_555 1_555
C5 C6 1_555 1_555
C6 C2 1_555 1_555
H1 C3 1_555 1_555
H2 C4 1_555 1_555
H3 C5 1_555 1_555
H4 C6 1_555 1_555
Cu2 N1 1_555 1_555
N4_2 Cu1_2 1_555 1_555
C13_3 C12_2 1_555 1_555
N4 C13_3 1_555 1_555
H9_2 C12_2 1_555 1_555
H10_3 C13_3 1_555 1_555
Cu1_3 O1_3 1_555 1_555
O1_3 C1_3 1_555 1_555
C1_3 C2_2 1_555 1_555
C5_2 C6_2 1_555 1_555
C6_2 C2_2 1_555 1_555
C7_2 C1_3 1_555 1_555
C8_2 C7_2 1_555 1_555
O2_2 Cu1_3 1_555 1_555
C9_2 C8_2 1_555 1_555
H3_2 C5_2 1_555 1_555
H4_2 C6_2 1_555 1_555
H5 C7_2 1_555 1_555
H6_3 C9_2 1_555 1_555
H7_3 C9_2 1_555 1_555
H8_2 C9_2 1_555 1_555
O3_2 Cu1_3 1_555 1_555
C10_2 O3_2 1_555 1_555
C11_2 C10_2 1_555 1_555
C12_3 C11_2 1_555 1_555
C13_4 C12_3 1_555 1_555
N4_2 C13_4 1_555 1_555
C14_2 N4_2 1_555 1_555
C15_2 C11_2 1_555 1_555
C16_2 C10_2 1_555 1_555
C17_2 C16_2 1_555 1_555
O4_2 Cu1_3 1_555 1_555
C18_2 C17_2 1_555 1_555
H9_3 C12_3 1_555 1_555
H10_4 C13_4 1_555 1_555
H11_2 C14_2 1_555 1_555
H12_2 C15_2 1_555 1_555
H13_2 C16_2 1_555 1_555
H16_2 C18_2 1_555 1_555
N3_2 Cu1_3 1_555 1_555
N4_3 Cu1_3 1_555 1_555
C8_2 O2_2 1_555 1_555
C14_2 C15_2 1_555 1_555
C17_2 O4_2 1_555 1_555
Cu1_4 O1_4 1_555 1_555
O1_4 C1_4 1_555 1_555
C1_4 C2_3 1_555 1_555
C2_3 C3_2 1_555 1_555
C3_2 C4_2 1_555 1_555
C4_2 N3 1_555 1_555
N3 C5_3 1_555 1_555
C5_3 C6_3 1_555 1_555
C6_3 C2_3 1_555 1_555
H1_2 C3_2 1_555 1_555
H2_2 C4_2 1_555 1_555
H3_3 C5_3 1_555 1_555
H4_3 C6_3 1_555 1_555
N4_4 Cu1_4 1_555 1_555
N4_3 C13_5 1_555 1_555
H10_5 C13_5 1_555 1_555
Cu2 O1_5 1_555 1_555
O1_5 C1_5 1_555 1_555
C7_3 C1_5 1_555 1_555
C8_3 C7_3 1_555 1_555
O2_3 Cu2 1_555 1_555
C9_3 C8_3 1_555 1_555
H6_4 C9_3 1_555 1_555
H7_4 C9_3 1_555 1_555
H8_3 C9_3 1_555 1_555
O3_3 Cu2 1_555 1_555
C10_3 O3_3 1_555 1_555
C11_3 C10_3 1_555 1_555
C12_4 C11_3 1_555 1_555
C13_6 C12_4 1_555 1_555
N4_4 C13_6 1_555 1_555
C14_3 N4_4 1_555 1_555
C15_3 C11_3 1_555 1_555
C16_3 C10_3 1_555 1_555
C17_3 C16_3 1_555 1_555
O4_3 Cu2 1_555 1_555
C18_3 C17_3 1_555 1_555
H9_4 C12_4 1_555 1_555
H10_6 C13_6 1_555 1_555
H11_3 C14_3 1_555 1_555
H12_3 C15_3 1_555 1_555
H13_3 C16_3 1_555 1_555
H16_3 C18_3 1_555 1_555
C8_3 O2_3 1_555 1_555
C14_3 C15_3 1_555 1_555
C17_3 O4_3 1_555 1_555
Cu3 O1_6 1_555 1_555
O1_6 C1_6 1_555 1_555
C1_6 C2_4 1_555 1_555
C2_4 C3_3 1_555 1_555
C3_3 C4_3 1_555 1_555
C4_3 N3_2 1_555 1_555
N3_2 C5_4 1_555 1_555
C5_4 C6_4 1_555 1_555
C6_4 C2_4 1_555 1_555
H1_3 C3_3 1_555 1_555
H2_3 C4_3 1_555 1_555
H3_4 C5_4 1_555 1_555
H4_4 C6_4 1_555 1_555
C17_4 C16_4 1_555 1_555
O4_4 Cu3 1_555 1_555
C18_4 C17_4 1_555 1_555
H13_4 C16_4 1_555 1_555
H14 C18_4 1_555 1_555
H15 C18_4 1_555 1_555
H16_4 C18_4 1_555 1_555
C17_4 O4_4 1_555 1_555
C15_4 C11_4 1_555 1_555
H11_4 C14_4 1_555 1_555
H12_4 C15_4 1_555 1_555
C14_4 C15_4 1_555 1_555
H9_5 C12_5 1_555 1_555
Cu1_5 O1_7 1_555 1_555
O1_7 C1_7 1_555 1_555
C1_7 C2_5 1_555 1_555
C2_5 C3_4 1_555 1_555
C3_4 C4_4 1_555 1_555
C4_4 N1_2 1_555 1_555
N1_2 C5_5 1_555 1_555
C5_5 C6_5 1_555 1_555
C6_5 C2_5 1_555 1_555
C7_4 C1_7 1_555 1_555
C8_4 C7_4 1_555 1_555
O2_4 Cu1_5 1_555 1_555
C9_4 C8_4 1_555 1_555
H1_4 C3_4 1_555 1_555
H2_4 C4_4 1_555 1_555
H3_5 C5_5 1_555 1_555
H4_5 C6_5 1_555 1_555
H5_2 C7_4 1_555 1_555
H8_4 C9_4 1_555 1_555
O3_4 Cu1_5 1_555 1_555
C10_4 O3_4 1_555 1_555
C16_5 C10_4 1_555 1_555
C17_5 C16_5 1_555 1_555
O4_5 Cu1_5 1_555 1_555
C18_5 C17_5 1_555 1_555
H14_2 C18_5 1_555 1_555
H15_2 C18_5 1_555 1_555
H16_5 C18_5 1_555 1_555
Cu3_2 N1_2 1_555 1_555
N3_3 Cu1_5 1_555 1_555
N4_5 Cu1_5 1_555 1_555
C8_4 O2_4 1_555 1_555
C17_5 O4_5 1_555 1_555
C4_5 N1_3 1_555 1_555
H2_5 C4_5 1_555 1_555
Cu3_3 N1_3 1_555 1_555
O3_5 Cu1_6 1_555 1_555
C10_5 O3_5 1_555 1_555
C11_5 C10_5 1_555 1_555
C12_6 C11_5 1_555 1_555
C13_7 C12_6 1_555 1_555
N2_3 C13_7 1_555 1_555
C14_5 N2_3 1_555 1_555
C15_5 C11_5 1_555 1_555
H9_6 C12_6 1_555 1_555
H10_7 C13_7 1_555 1_555
H11_5 C14_5 1_555 1_555
H12_5 C15_5 1_555 1_555
Cu3_3 N2_3 1_555 1_555
N3_4 Cu1_6 1_555 1_555
C14_5 C15_5 1_555 1_555
Cu1_7 O1_8 1_555 1_555
O1_8 C1_8 1_555 1_555
C1_8 C2_6 1_555 1_555
C2_6 C3_5 1_555 1_555
C3_5 C4_6 1_555 1_555
C4_6 N3_4 1_555 1_555
N3_4 C5_6 1_555 1_555
C5_6 C6_6 1_555 1_555
C6_6 C2_6 1_555 1_555
C7_5 C1_8 1_555 1_555
C8_5 C7_5 1_555 1_555
O2_5 Cu1_7 1_555 1_555
C9_5 C8_5 1_555 1_555
H1_5 C3_5 1_555 1_555
H2_6 C4_6 1_555 1_555
H3_6 C5_6 1_555 1_555
H4_6 C6_6 1_555 1_555
H5_3 C7_5 1_555 1_555
H8_5 C9_5 1_555 1_555
O3_6 Cu1_7 1_555 1_555
C10_6 O3_6 1_555 1_555
C11_6 C10_6 1_555 1_555
C15_6 C11_6 1_555 1_555
C16_6 C10_6 1_555 1_555
C17_6 C16_6 1_555 1_555
O4_6 Cu1_7 1_555 1_555
C18_6 C17_6 1_555 1_555
H11_6 C14_6 1_555 1_555
H12_6 C15_6 1_555 1_555
H13_6 C16_6 1_555 1_555
H14_3 C18_6 1_555 1_555
H15_3 C18_6 1_555 1_555
H16_6 C18_6 1_555 1_555
N3_5 Cu1_7 1_555 1_555
N4_6 Cu1_7 1_555 1_555
C8_5 O2_5 1_555 1_555
C14_6 C15_6 1_555 1_555
C17_6 O4_6 1_555 1_555
C3_6 C4_7 1_555 1_555
C4_7 N3_3 1_555 1_555
H1_6 C3_6 1_555 1_555
H2_7 C4_7 1_555 1_555
O3_7 Cu1_8 1_555 1_555
C10_7 O3_7 1_555 1_555
C11_7 C10_7 1_555 1_555
C12_7 C11_7 1_555 1_555
C13_8 C12_7 1_555 1_555
N4_5 C13_8 1_555 1_555
C14_7 N4_5 1_555 1_555
C15_7 C11_7 1_555 1_555
H9_7 C12_7 1_555 1_555
H10_8 C13_8 1_555 1_555
H11_7 C14_7 1_555 1_555
H12_7 C15_7 1_555 1_555
N3_6 Cu1_8 1_555 1_555
C14_7 C15_7 1_555 1_555
Cu3_3 O1_9 1_555 1_555
O1_9 C1_9 1_555 1_555
C1_9 C2_7 1_555 1_555
C2_7 C3_7 1_555 1_555
C3_7 C4_8 1_555 1_555
C4_8 N3_6 1_555 1_555
N3_6 C5_7 1_555 1_555
C5_7 C6_7 1_555 1_555
C6_7 C2_7 1_555 1_555
C7_6 C1_9 1_555 1_555
C8_6 C7_6 1_555 1_555
O2_6 Cu3_3 1_555 1_555
C9_6 C8_6 1_555 1_555
H1_7 C3_7 1_555 1_555
H2_8 C4_8 1_555 1_555
H3_7 C5_7 1_555 1_555
H4_7 C6_7 1_555 1_555
H5_4 C7_6 1_555 1_555
H8_6 C9_6 1_555 1_555
O3_8 Cu3_3 1_555 1_555
C10_8 O3_8 1_555 1_555
C16_7 C10_8 1_555 1_555
C17_7 C16_7 1_555 1_555
O4_7 Cu3_3 1_555 1_555
C18_7 C17_7 1_555 1_555
H14_5 C18_7 1_555 1_555
H15_5 C18_7 1_555 1_555
H16_7 C18_7 1_555 1_555
C8_6 O2_6 1_555 1_555
C17_7 O4_7 1_555 1_555
C4_9 N3_5 1_555 1_555
H2_9 C4_9 1_555 1_555
C8_7 C7_7 1_555 1_555
O2_7 Cu3_2 1_555 1_555
C9_7 C8_7 1_555 1_555
H5_5 C7_7 1_555 1_555
H6_6 C9_7 1_555 1_555
H7_6 C9_7 1_555 1_555
H8_7 C9_7 1_555 1_555
O3_9 Cu3_2 1_555 1_555
C10_9 O3_9 1_555 1_555
C11_8 C10_9 1_555 1_555
C12_8 C11_8 1_555 1_555
C13_9 C12_8 1_555 1_555
N4_6 C13_9 1_555 1_555
C14_8 N4_6 1_555 1_555
C15_8 C11_8 1_555 1_555
H9_8 C12_8 1_555 1_555
H10_9 C13_9 1_555 1_555
H11_8 C14_8 1_555 1_555
H12_8 C15_8 1_555 1_555
C8_7 O2_7 1_555 1_555
C14_8 C15_8 1_555 1_555
H1_8 C3_8 1_555 1_555
C5_8 C6_8 1_555 1_555
C6_8 C2_8 1_555 1_555
H3_8 C5_8 1_555 1_555
H4_8 C6_8 1_555 1_555
C17_8 C16_8 1_555 1_555
O4_8 Cu1_9 1_555 1_555
C18_8 C17_8 1_555 1_555
H13_7 C16_8 1_555 1_555
H14_7 C18_8 1_555 1_555
H15_7 C18_8 1_555 1_555
H16_8 C18_8 1_555 1_555
C17_8 O4_8 1_555 1_555
C8_8 C7_8 1_555 1_555
O2_8 Cu1_10 1_555 1_555
C9_8 C8_8 1_555 1_555
H5_7 C7_8 1_555 1_555
H6_7 C9_8 1_555 1_555
H7_7 C9_8 1_555 1_555
H8_8 C9_8 1_555 1_555
C8_8 O2_8 1_555 1_555
C8_9 C7_9 1_555 1_555
O2_9 Cu1_11 1_555 1_555
C9_9 C8_9 1_555 1_555
H5_8 C7_9 1_555 1_555
H6_8 C9_9 1_555 1_555
H7_8 C9_9 1_555 1_555
H8_9 C9_9 1_555 1_555
C8_9 O2_9 1_555 1_555
C17_9 C16_9 1_555 1_555
O4_9 Cu1_12 1_555 1_555
C18_9 C17_9 1_555 1_555
H13_8 C16_9 1_555 1_555
H14_8 C18_9 1_555 1_555
H15_8 C18_9 1_555 1_555
H16_9 C18_9 1_555 1_555
C17_9 O4_9 1_555 1_555
H9_9 C12_9 1_555 1_555
C15_9 C11_9 1_555 1_555
H11_9 C14_9 1_555 1_555
H12_9 C15_9 1_555 1_555
C14_9 C15_9 1_555 1_555
C5_9 C6_9 1_555 1_555
C6_9 C2_9 1_555 1_555
H3_9 C5_9 1_555 1_555
H4_9 C6_9 1_555 1_555
H1_9 C3_9 1_555 1_555

#END
