
###############################################################################
#
# This file contains modified crystal structure data generated from the
# MOF subset of the Cambridge Structural Database (CSD) v543 
# hosted by the Cambridge Crystallographic Data Centre (CCDC).
#
# This work is licensed under the Creative Commons
# Attribution-NonCommercial-ShareAlike 4.0 International License.
# To view a copy of this license, visit
# http://creativecommons.org/licenses/by-nc-sa/4.0/
# or send a letter to
# Creative Commons, PO Box 1866, Mountain View, CA 94042, USA.
#
# CIF created using the CSD Python API on 29 September 2022
# The structure has been converted into the P1 space group
# The structure has a 3D framework
# The original CSD entry FUWYII02 is in the rhombohedral crystal system
# The framework has been calculated to contain at least 10.0% void space
# The void calculation uses a probe of radius 1.32A, grid spacing 0.4
#
###############################################################################

data_FUWYII02
_chemical_formula_moiety         '(C162 H144 Cu16 N18 O36)n'
_symmetry_cell_setting           triclinic
_symmetry_space_group_name_H-M   'P 1'
_symmetry_Int_Tables_number      1
_space_group_name_Hall           'P 1'
loop_
_symmetry_equiv_pos_site_id
_symmetry_equiv_pos_as_xyz
1 x,y,z
_cell_length_a                   24.8906(16)
_cell_length_b                   24.8906(16)
_cell_length_c                   7.7570(5)
_cell_angle_alpha                90
_cell_angle_beta                 90
_cell_angle_gamma                120
_cell_volume                     4161.93
loop_
_atom_site_label
_atom_site_type_symbol
_atom_site_fract_x
_atom_site_fract_y
_atom_site_fract_z
C13 C 0.0408(3) 0.7554(4) 0.1707(8)
N2 N 0.0988(3) 0.8012(3) 0.1475(6)
H10 H 0.0287 0.7375 0.2822
Cu2 Cu 0.1666 0.8333 0.3333
Cu3 Cu 0.4999 0.5000 1.0000
Cu1 Cu 0.1666 0.3334 0.3334
O1 O 0.0891(2) 0.3010(3) 0.2065(5)
C1 C 0.0362(3) 0.2576(3) 0.2549(7)
C7 C 0.0223(3) 0.2251(4) 0.4087(8)
C8 C 0.0651(3) 0.2204(4) 0.5159(8)
O2 O 0.1220(3) 0.2475(3) 0.4943(6)
C9 C 0.0410(5) 0.1756(5) 0.6644(12)
H6 H 0.0760 0.1771 0.7268
H7 H 0.0176 0.1874 0.7423
H8 H 0.0138 0.1335 0.6216
O3 O 0.2442(2) 0.3657(3) 0.4602(5)
C10 C 0.2971(3) 0.4091(3) 0.4118(7)
C11 C 0.3466(3) 0.4272(3) 0.5451(6)
C12 C 0.3304(3) 0.4003(4) 0.7079(8)
C13_2 C 0.3741(3) 0.4221(4) 0.8374(8)
N2_2 N 0.4321(3) 0.4679(3) 0.8142(6)
C14 C 0.4480(3) 0.4916(4) 0.6550(7)
C15 C 0.4067(3) 0.4734(4) 0.5208(7)
C16 C 0.3110(3) 0.4416(4) 0.2580(8)
C17 C 0.2682(3) 0.4463(4) 0.1508(8)
O4 O 0.2113(3) 0.4192(3) 0.1724(6)
C18 C 0.2923(5) 0.4911(5) 0.0023(12)
H9 H 0.2898 0.3670 0.7298
H10_2 H 0.3620 0.4042 0.9489
H11 H 0.4899 0.5222 0.6340
H12 H 0.4194 0.4936 0.4123
H13 H 0.3531 0.4622 0.2212
H16 H 0.3195 0.5332 0.0451
N3 N 0.1346(3) 0.3691(4) 0.5191(6)
N4 N 0.1988(3) 0.2975(4) 0.1475(6)
Cu1_2 Cu 0.5000 1.0000 1.0000
O1_2 O 0.4225(2) 0.9676(3) 0.8731(5)
C1_2 C 0.3696(3) 0.9242(3) 0.9215(7)
C2 C 0.3201(3) 0.9061(3) 0.7882(6)
C3 C 0.3363(3) 0.9330(4) 0.6254(8)
C4 C 0.2926(3) 0.9112(4) 0.4959(8)
N1 N 0.2346(3) 0.8654(3) 0.5191(6)
C5 C 0.2187(3) 0.8417(4) 0.6783(7)
C6 C 0.2600(3) 0.8599(4) 0.8125(7)
H1 H 0.3769 0.9663 0.6035
H2 H 0.3047 0.9291 0.3844
H3 H 0.1768 0.8111 0.6993
H4 H 0.2473 0.8397 0.9210
N4_2 N 0.5321(3) 0.9642(4) 0.8142(6)
H6_2 H 0.4896 0.2323 0.0601
H7_2 H 0.4793 0.1636 0.0756
C12_2 C 0.2664(4) 0.2634(5) 0.0412(8)
C13_3 C 0.2446(4) 0.2853(5) 0.1707(8)
H9_2 H 0.2997 0.2561 0.0631
H10_3 H 0.2625 0.2911 0.2822
Cu1_3 Cu 0.6666 0.8333 0.3334
O1_3 O 0.6990(3) 0.7882(4) 0.2065(5)
C1_3 C 0.7424(3) 0.7787(4) 0.2549(7)
C2_2 C 0.7605(3) 0.7473(4) 0.1216(6)
C5_2 C 0.8249(4) 0.7103(5) 0.0117(7)
C6_2 C 0.8067(4) 0.7334(5) 0.1459(7)
C7_2 C 0.7749(4) 0.7973(5) 0.4087(8)
C8_2 C 0.7796(4) 0.8448(5) 0.5159(8)
O2_2 O 0.7525(3) 0.8746(4) 0.4943(6)
C9_2 C 0.8244(5) 0.8655(7) 0.6644(12)
H3_2 H 0.8555 0.6990 0.0327
H4_2 H 0.8269 0.7409 0.2544
H5 H 0.7955 0.7758 0.4455
H6_3 H 0.8229 0.8990 0.7268
H7_3 H 0.8126 0.8303 0.7423
H8_2 H 0.8665 0.8804 0.6216
O3_2 O 0.6343(3) 0.8785(4) 0.4602(5)
C10_2 C 0.5909(3) 0.8880(4) 0.4118(7)
C11_2 C 0.5728(3) 0.9194(4) 0.5451(6)
C12_3 C 0.5997(4) 0.9301(5) 0.7079(8)
C13_4 C 0.5779(4) 0.9520(5) 0.8374(8)
C14_2 C 0.5084(4) 0.9564(5) 0.6550(7)
C15_2 C 0.5266(4) 0.9333(5) 0.5208(7)
C16_2 C 0.5584(4) 0.8694(5) 0.2580(8)
C17_2 C 0.5537(4) 0.8219(5) 0.1508(8)
O4_2 O 0.5808(3) 0.7921(4) 0.1724(6)
C18_2 C 0.5089(5) 0.8012(7) 0.0023(12)
H9_3 H 0.6330 0.9228 0.7298
H10_4 H 0.5958 0.9578 0.9489
H11_2 H 0.4778 0.9677 0.6340
H12_2 H 0.5064 0.9258 0.4123
H13_2 H 0.5378 0.8909 0.2212
H16_2 H 0.4668 0.7863 0.0451
N3_2 N 0.6309(4) 0.7654(5) 0.5191(6)
N4_3 N 0.7025(4) 0.9012(5) 0.1475(6)
Cu1_4 Cu -0.0000 0.4999 1.0000
O1_4 O 0.0324(3) 0.4548(4) 0.8731(5)
C1_4 C 0.0758(3) 0.4453(4) 0.9215(7)
C2_3 C 0.0939(3) 0.4139(4) 0.7882(6)
C3_2 C 0.0670(4) 0.4032(5) 0.6254(8)
C4_2 C 0.0888(4) 0.3813(5) 0.4959(8)
C5_3 C 0.1583(4) 0.3769(5) 0.6783(7)
C6_3 C 0.1401(4) 0.4000(5) 0.8125(7)
H1_2 H 0.0337 0.4105 0.6035
H2_2 H 0.0709 0.3755 0.3844
H3_3 H 0.1889 0.3656 0.6993
H4_3 H 0.1603 0.4075 0.9210
N4_4 N 0.0358(4) 0.5679(5) 0.8142(6)
C13_5 C 0.7147(5) 0.9592(3) 0.1707(8)
H10_5 H 0.7089 0.9713 0.2822
O1_5 O 0.2118(4) 0.9109(2) 0.2065(5)
C1_5 C 0.2213(4) 0.9638(3) 0.2549(7)
C7_3 C 0.2027(5) 0.9777(3) 0.4087(8)
C8_3 C 0.1552(5) 0.9349(3) 0.5159(8)
O2_3 O 0.1254(4) 0.8780(3) 0.4943(6)
C9_3 C 0.1345(7) 0.9590(5) 0.6644(12)
H6_4 H 0.1010 0.9240 0.7268
H7_4 H 0.1697 0.9824 0.7423
H8_3 H 0.1196 0.9862 0.6216
O3_3 O 0.1215(4) 0.7558(2) 0.4602(5)
C10_3 C 0.1120(4) 0.7029(3) 0.4118(7)
C11_3 C 0.0806(4) 0.6534(3) 0.5451(6)
C12_4 C 0.0699(5) 0.6696(3) 0.7079(8)
C13_6 C 0.0480(5) 0.6259(3) 0.8374(8)
C14_3 C 0.0436(5) 0.5520(3) 0.6550(7)
C15_3 C 0.0667(5) 0.5933(3) 0.5208(7)
C16_3 C 0.1306(5) 0.6890(3) 0.2580(8)
C17_3 C 0.1781(5) 0.7318(3) 0.1508(8)
O4_3 O 0.2079(4) 0.7887(3) 0.1724(6)
C18_3 C 0.1988(7) 0.7077(5) 0.0023(12)
H9_4 H 0.0772 0.7102 0.7298
H10_6 H 0.0422 0.6380 0.9489
H11_3 H 0.0323 0.5101 0.6340
H12_3 H 0.0742 0.5806 0.4123
H13_3 H 0.1091 0.6469 0.2212
H16_3 H 0.2137 0.6805 0.0451
O1_6 O 0.5452(4) 0.5775(2) 0.8731(5)
C1_6 C 0.5547(4) 0.6304(3) 0.9215(7)
C2_4 C 0.5861(4) 0.6799(3) 0.7882(6)
C3_3 C 0.5968(5) 0.6637(3) 0.6254(8)
C4_3 C 0.6187(5) 0.7074(3) 0.4959(8)
C5_4 C 0.6231(5) 0.7813(3) 0.6783(7)
C6_4 C 0.6000(5) 0.7400(3) 0.8125(7)
H1_3 H 0.5895 0.6231 0.6035
H2_3 H 0.6245 0.6953 0.3844
H3_4 H 0.6344 0.8232 0.6993
H4_4 H 0.5925 0.7527 0.9210
C16_4 C 0.4639(5) 0.3557(3) 0.9247(8)
C17_4 C 0.5114(5) 0.3985(3) 0.8175(8)
O4_4 O 0.5412(4) 0.4554(3) 0.8391(6)
C18_4 C 0.5321(7) 0.3744(5) 0.6690(12)
H13_4 H 0.4424 0.3136 0.8879
H14 H 0.5656 0.4094 0.6066
H15 H 0.4969 0.3510 0.5911
H16_4 H 0.5470 0.3472 0.7118
C11_4 C 0.0133(3) 0.7605(3) 0.8784(6)
C14_4 C 0.1147(3) 0.8249(4) 0.9883(7)
C15_4 C 0.0734(3) 0.8067(4) 0.8541(7)
H11_4 H 0.1566 0.8555 0.9673
H12_4 H 0.0861 0.8269 0.7456
H13_5 H 0.0198 0.7955 0.5545
H6_5 H 0.7427 0.5104 0.0601
H7_5 H 0.6843 0.5207 0.0756
C12_5 C 0.9971(3) 0.7336(4) 0.0412(8)
H9_5 H 0.9565 0.7003 0.0631
Cu1_5 Cu 0.8333 0.6667 0.6667
O1_7 O 0.7558(2) 0.6343(3) 0.5398(5)
C1_7 C 0.7029(3) 0.5909(3) 0.5882(7)
C2_5 C 0.6534(3) 0.5728(3) 0.4549(6)
C3_4 C 0.6696(3) 0.5997(4) 0.2921(8)
C4_4 C 0.6259(3) 0.5779(4) 0.1626(8)
N1_2 N 0.5679(3) 0.5321(3) 0.1858(6)
C5_5 C 0.5520(3) 0.5084(4) 0.3450(7)
C6_5 C 0.5933(3) 0.5266(4) 0.4792(7)
C7_4 C 0.6890(3) 0.5584(4) 0.7420(8)
C8_4 C 0.7318(3) 0.5537(4) 0.8492(8)
O2_4 O 0.7887(3) 0.5808(3) 0.8276(6)
C9_4 C 0.7077(5) 0.5089(5) 0.9977(12)
H1_4 H 0.7102 0.6330 0.2702
H2_4 H 0.6380 0.5958 0.0511
H3_5 H 0.5101 0.4778 0.3660
H4_5 H 0.5806 0.5064 0.5877
H5_2 H 0.6469 0.5378 0.7788
H8_4 H 0.6805 0.4668 0.9549
O3_4 O 0.9109(2) 0.6990(3) 0.7935(5)
C10_4 C 0.9638(3) 0.7424(3) 0.7451(7)
C16_5 C 0.9777(3) 0.7749(4) 0.5913(8)
C17_5 C 0.9349(3) 0.7796(4) 0.4841(8)
O4_5 O 0.8780(3) 0.7525(3) 0.5057(6)
C18_5 C 0.9590(5) 0.8244(5) 0.3356(12)
H14_2 H 0.9240 0.8229 0.2732
H15_2 H 0.9824 0.8126 0.2577
H16_5 H 0.9862 0.8665 0.3784
Cu3_2 Cu 0.4999 0.5000 -0.0000
N3_3 N 0.8012(3) 0.7025(4) 0.8525(6)
N4_5 N 0.8654(3) 0.6309(4) 0.4809(6)
C4_5 C 0.9592(3) 0.2446(4) 0.8293(8)
N1_3 N 0.9012(3) 0.1988(3) 0.8525(6)
H2_5 H 0.9713 0.2625 0.7178
Cu3_3 Cu 0.8333 0.1666 0.6666
Cu1_6 Cu 0.5000 0.0000 0.0000
O3_5 O 0.5775(2) 0.0324(3) 0.1269(5)
C10_5 C 0.6304(3) 0.0758(3) 0.0785(7)
C11_5 C 0.6799(3) 0.0939(3) 0.2118(6)
C12_6 C 0.6637(3) 0.0670(4) 0.3746(8)
C13_7 C 0.7074(3) 0.0888(4) 0.5041(8)
N2_3 N 0.7654(3) 0.1346(3) 0.4809(6)
C14_5 C 0.7813(3) 0.1583(4) 0.3217(7)
C15_5 C 0.7400(3) 0.1401(4) 0.1875(7)
H9_6 H 0.6231 0.0337 0.3965
H10_7 H 0.6953 0.0709 0.6156
H11_5 H 0.8232 0.1889 0.3007
H12_5 H 0.7527 0.1603 0.0790
N3_4 N 0.4679(3) 0.0358(4) 0.1858(6)
Cu1_7 Cu 0.3333 0.1666 0.6667
O1_8 O 0.3657(3) 0.1215(4) 0.5398(5)
C1_8 C 0.4091(3) 0.1120(4) 0.5882(7)
C2_6 C 0.4272(3) 0.0806(4) 0.4549(6)
C3_5 C 0.4003(4) 0.0699(5) 0.2921(8)
C4_6 C 0.4221(4) 0.0480(5) 0.1626(8)
C5_6 C 0.4916(4) 0.0436(5) 0.3450(7)
C6_6 C 0.4734(4) 0.0667(5) 0.4792(7)
C7_5 C 0.4416(4) 0.1306(5) 0.7420(8)
C8_5 C 0.4463(4) 0.1781(5) 0.8492(8)
O2_5 O 0.4192(3) 0.2079(4) 0.8276(6)
C9_5 C 0.4911(5) 0.1988(7) 0.9977(12)
H1_5 H 0.3670 0.0772 0.2702
H2_6 H 0.4042 0.0422 0.0511
H3_6 H 0.5222 0.0323 0.3660
H4_6 H 0.4936 0.0742 0.5877
H5_3 H 0.4622 0.1091 0.7788
H8_5 H 0.5332 0.2137 0.9549
O3_6 O 0.3010(3) 0.2118(4) 0.7935(5)
C10_6 C 0.2576(3) 0.2213(4) 0.7451(7)
C11_6 C 0.2395(3) 0.2527(4) 0.8784(6)
C14_6 C 0.1751(4) 0.2897(5) 0.9883(7)
C15_6 C 0.1933(4) 0.2666(5) 0.8541(7)
C16_6 C 0.2251(4) 0.2027(5) 0.5913(8)
C17_6 C 0.2204(4) 0.1552(5) 0.4841(8)
O4_6 O 0.2475(3) 0.1254(4) 0.5057(6)
C18_6 C 0.1756(5) 0.1345(7) 0.3356(12)
H11_6 H 0.1445 0.3010 0.9673
H12_6 H 0.1731 0.2591 0.7456
H13_6 H 0.2045 0.2242 0.5545
H14_3 H 0.1771 0.1010 0.2732
H15_3 H 0.1874 0.1697 0.2577
H16_6 H 0.1335 0.1196 0.3784
N3_5 N 0.2975(4) 0.0988(5) 0.8525(6)
N4_6 N 0.3691(4) 0.2346(5) 0.4809(6)
C3_6 C 0.7336(4) 0.7366(5) 0.9588(8)
C4_7 C 0.7554(4) 0.7147(5) 0.8293(8)
H1_6 H 0.7003 0.7439 0.9369
H2_7 H 0.7375 0.7089 0.7178
H14_4 H 0.5104 0.7677 0.9399
H15_4 H 0.5207 0.8364 0.9244
Cu1_8 Cu 1.0000 0.4999 0.0000
O3_7 O 0.9676(3) 0.5452(4) 0.1269(5)
C10_7 C 0.9242(3) 0.5547(4) 0.0785(7)
C11_7 C 0.9061(3) 0.5861(4) 0.2118(6)
C12_7 C 0.9330(4) 0.5968(5) 0.3746(8)
C13_8 C 0.9112(4) 0.6187(5) 0.5041(8)
C14_7 C 0.8417(4) 0.6231(5) 0.3217(7)
C15_7 C 0.8599(4) 0.6000(5) 0.1875(7)
H9_7 H 0.9663 0.5895 0.3965
H10_8 H 0.9291 0.6245 0.6156
H11_7 H 0.8111 0.6344 0.3007
H12_7 H 0.8397 0.5925 0.0790
N3_6 N 0.9642(4) 0.4321(5) 0.1858(6)
O1_9 O 0.8785(4) 0.2442(2) 0.5398(5)
C1_9 C 0.8880(4) 0.2971(3) 0.5882(7)
C2_7 C 0.9194(4) 0.3466(3) 0.4549(6)
C3_7 C 0.9301(5) 0.3304(3) 0.2921(8)
C4_8 C 0.9520(5) 0.3741(3) 0.1626(8)
C5_7 C 0.9564(5) 0.4480(3) 0.3450(7)
C6_7 C 0.9333(5) 0.4067(3) 0.4792(7)
C7_6 C 0.8694(5) 0.3110(3) 0.7420(8)
C8_6 C 0.8219(5) 0.2682(3) 0.8492(8)
O2_6 O 0.7921(4) 0.2113(3) 0.8276(6)
C9_6 C 0.8012(7) 0.2923(5) 0.9977(12)
H1_7 H 0.9228 0.2898 0.2702
H2_8 H 0.9578 0.3620 0.0511
H3_7 H 0.9677 0.4899 0.3660
H4_7 H 0.9258 0.4194 0.5877
H5_4 H 0.8909 0.3531 0.7788
H8_6 H 0.7863 0.3195 0.9549
O3_8 O 0.7882(4) 0.0891(2) 0.7935(5)
C10_8 C 0.7787(4) 0.0362(3) 0.7451(7)
C16_7 C 0.7973(5) 0.0223(3) 0.5913(8)
C17_7 C 0.8448(5) 0.0651(3) 0.4841(8)
O4_7 O 0.8746(4) 0.1220(3) 0.5057(6)
C18_7 C 0.8655(7) 0.0410(5) 0.3356(12)
H14_5 H 0.8990 0.0760 0.2732
H15_5 H 0.8303 0.0176 0.2577
H16_7 H 0.8804 0.0138 0.3784
C4_9 C 0.2853(5) 0.0408(3) 0.8293(8)
H2_9 H 0.2911 0.0287 0.7178
C7_7 C 0.5361(5) 0.6443(3) 0.0753(8)
C8_7 C 0.4886(5) 0.6015(3) 0.1825(8)
O2_7 O 0.4588(4) 0.5446(3) 0.1609(6)
C9_7 C 0.4679(7) 0.6256(5) 0.3310(12)
H5_5 H 0.5576 0.6864 0.1121
H6_6 H 0.4344 0.5906 0.3934
H7_6 H 0.5031 0.6490 0.4089
H8_7 H 0.4530 0.6528 0.2882
O3_9 O 0.4548(4) 0.4225(2) 0.1269(5)
C10_9 C 0.4453(4) 0.3696(3) 0.0785(7)
C11_8 C 0.4139(4) 0.3201(3) 0.2118(6)
C12_8 C 0.4032(5) 0.3363(3) 0.3746(8)
C13_9 C 0.3813(5) 0.2926(3) 0.5041(8)
C14_8 C 0.3769(5) 0.2187(3) 0.3217(7)
C15_8 C 0.4000(5) 0.2600(3) 0.1875(7)
H9_8 H 0.4105 0.3769 0.3965
H10_9 H 0.3755 0.3047 0.6156
H11_8 H 0.3656 0.1768 0.3007
H12_8 H 0.4075 0.2473 0.0790
C3_8 C 0.0029(3) 0.2664(4) 0.9588(8)
H1_8 H 0.0435 0.2997 0.9369
H14_6 H 0.2573 0.4896 0.9399
H15_6 H 0.3157 0.4793 0.9244
C2_8 C 0.9867(3) 0.2395(3) 0.1216(6)
C5_8 C 0.8853(3) 0.1751(4) 0.0117(7)
C6_8 C 0.9266(3) 0.1933(4) 0.1459(7)
H3_8 H 0.8434 0.1445 0.0327
H4_8 H 0.9139 0.1731 0.2544
H5_6 H 0.9802 0.2045 0.4455
Cu1_9 Cu 0.5000 0.0000 1.0000
C16_8 C 0.6443(3) 0.1083(4) 0.9247(8)
C17_8 C 0.6015(3) 0.1130(4) 0.8175(8)
O4_8 O 0.5446(3) 0.0859(3) 0.8391(6)
C18_8 C 0.6256(5) 0.1578(5) 0.6690(12)
H13_7 H 0.6864 0.1289 0.8879
H14_7 H 0.5906 0.1563 0.6066
H15_7 H 0.6490 0.1460 0.5911
H16_8 H 0.6528 0.1999 0.7118
Cu1_10 Cu 0.5000 1.0000 0.0000
C7_8 C 0.3557(3) 0.8917(4) 0.0753(8)
C8_8 C 0.3985(3) 0.8870(4) 0.1825(8)
O2_8 O 0.4554(3) 0.9141(3) 0.1609(6)
C9_8 C 0.3744(5) 0.8422(5) 0.3310(12)
H5_7 H 0.3136 0.8711 0.1121
H6_7 H 0.4094 0.8437 0.3934
H7_7 H 0.3510 0.8540 0.4089
H8_8 H 0.3472 0.8001 0.2882
Cu1_11 Cu -0.0000 0.4999 0.0000
C7_9 C 0.1083(4) 0.4639(5) 0.0753(8)
C8_9 C 0.1130(4) 0.5114(5) 0.1825(8)
O2_9 O 0.0859(3) 0.5412(4) 0.1609(6)
C9_9 C 0.1578(5) 0.5321(7) 0.3310(12)
H5_8 H 0.1289 0.4424 0.1121
H6_8 H 0.1563 0.5656 0.3934
H7_8 H 0.1460 0.4969 0.4089
H8_9 H 0.1999 0.5470 0.2882
Cu1_12 Cu 1.0000 0.4999 1.0000
C16_9 C 0.8917(4) 0.5361(5) 0.9247(8)
C17_9 C 0.8870(4) 0.4886(5) 0.8175(8)
O4_9 O 0.9141(3) 0.4588(4) 0.8391(6)
C18_9 C 0.8422(5) 0.4679(7) 0.6690(12)
H13_8 H 0.8711 0.5576 0.8879
H14_8 H 0.8437 0.4344 0.6066
H15_8 H 0.8540 0.5031 0.5911
H16_9 H 0.8001 0.4530 0.7118
H6_9 H 0.7677 0.2573 0.0601
H7_9 H 0.8364 0.3157 0.0756
C12_9 C 0.7366(5) 0.0029(3) 0.0412(8)
H9_9 H 0.7439 0.0435 0.0631
C11_9 C 0.7473(4) 0.9867(3) 0.8784(6)
C14_9 C 0.7103(5) 0.8853(3) 0.9883(7)
C15_9 C 0.7334(5) 0.9266(3) 0.8541(7)
H11_9 H 0.6990 0.8434 0.9673
H12_9 H 0.7409 0.9139 0.7456
H13_9 H 0.7758 0.9802 0.5545
C2_9 C 0.2527(4) 0.0133(3) 0.1216(6)
C5_9 C 0.2897(5) 0.1147(3) 0.0117(7)
C6_9 C 0.2666(5) 0.0734(3) 0.1459(7)
H3_9 H 0.3010 0.1566 0.0327
H4_9 H 0.2591 0.0861 0.2544
H5_9 H 0.2242 0.0198 0.4455
C3_9 C 0.2634(5) 0.9971(3) 0.9588(8)
H1_9 H 0.2561 0.9565 0.9369
H14_9 H 0.2323 0.7427 0.9399
H15_9 H 0.1636 0.6843 0.9244
loop_
_geom_bond_atom_site_label_1
_geom_bond_atom_site_label_2
_geom_bond_site_symmetry_1
_geom_bond_site_symmetry_2
N2 C13 1_555 1_555
H10 C13 1_555 1_555
Cu2 N2 1_555 1_555
Cu1 O1 1_555 1_555
O1 C1 1_555 1_555
C7 C1 1_555 1_555
C8 C7 1_555 1_555
O2 Cu1 1_555 1_555
C9 C8 1_555 1_555
H6 C9 1_555 1_555
H7 C9 1_555 1_555
H8 C9 1_555 1_555
O3 Cu1 1_555 1_555
C10 O3 1_555 1_555
C11 C10 1_555 1_555
C12 C11 1_555 1_555
C13_2 C12 1_555 1_555
N2_2 C13_2 1_555 1_555
C14 N2_2 1_555 1_555
C15 C11 1_555 1_555
C16 C10 1_555 1_555
C17 C16 1_555 1_555
O4 Cu1 1_555 1_555
C18 C17 1_555 1_555
H9 C12 1_555 1_555
H10_2 C13_2 1_555 1_555
H11 C14 1_555 1_555
H12 C15 1_555 1_555
H13 C16 1_555 1_555
H16 C18 1_555 1_555
Cu3 N2_2 1_555 1_555
N3 Cu1 1_555 1_555
N4 Cu1 1_555 1_555
C8 O2 1_555 1_555
C14 C15 1_555 1_555
C17 O4 1_555 1_555
Cu1_2 O1_2 1_555 1_555
O1_2 C1_2 1_555 1_555
C1_2 C2 1_555 1_555
C2 C3 1_555 1_555
C3 C4 1_555 1_555
C4 N1 1_555 1_555
N1 C5 1_555 1_555
C5 C6 1_555 1_555
C6 C2 1_555 1_555
H1 C3 1_555 1_555
H2 C4 1_555 1_555
H3 C5 1_555 1_555
H4 C6 1_555 1_555
Cu2 N1 1_555 1_555
N4_2 Cu1_2 1_555 1_555
C13_3 C12_2 1_555 1_555
N4 C13_3 1_555 1_555
H9_2 C12_2 1_555 1_555
H10_3 C13_3 1_555 1_555
Cu1_3 O1_3 1_555 1_555
O1_3 C1_3 1_555 1_555
C1_3 C2_2 1_555 1_555
C5_2 C6_2 1_555 1_555
C6_2 C2_2 1_555 1_555
C7_2 C1_3 1_555 1_555
C8_2 C7_2 1_555 1_555
O2_2 Cu1_3 1_555 1_555
C9_2 C8_2 1_555 1_555
H3_2 C5_2 1_555 1_555
H4_2 C6_2 1_555 1_555
H5 C7_2 1_555 1_555
H6_3 C9_2 1_555 1_555
H7_3 C9_2 1_555 1_555
H8_2 C9_2 1_555 1_555
O3_2 Cu1_3 1_555 1_555
C10_2 O3_2 1_555 1_555
C11_2 C10_2 1_555 1_555
C12_3 C11_2 1_555 1_555
C13_4 C12_3 1_555 1_555
N4_2 C13_4 1_555 1_555
C14_2 N4_2 1_555 1_555
C15_2 C11_2 1_555 1_555
C16_2 C10_2 1_555 1_555
C17_2 C16_2 1_555 1_555
O4_2 Cu1_3 1_555 1_555
C18_2 C17_2 1_555 1_555
H9_3 C12_3 1_555 1_555
H10_4 C13_4 1_555 1_555
H11_2 C14_2 1_555 1_555
H12_2 C15_2 1_555 1_555
H13_2 C16_2 1_555 1_555
H16_2 C18_2 1_555 1_555
N3_2 Cu1_3 1_555 1_555
N4_3 Cu1_3 1_555 1_555
C8_2 O2_2 1_555 1_555
C14_2 C15_2 1_555 1_555
C17_2 O4_2 1_555 1_555
Cu1_4 O1_4 1_555 1_555
O1_4 C1_4 1_555 1_555
C1_4 C2_3 1_555 1_555
C2_3 C3_2 1_555 1_555
C3_2 C4_2 1_555 1_555
C4_2 N3 1_555 1_555
N3 C5_3 1_555 1_555
C5_3 C6_3 1_555 1_555
C6_3 C2_3 1_555 1_555
H1_2 C3_2 1_555 1_555
H2_2 C4_2 1_555 1_555
H3_3 C5_3 1_555 1_555
H4_3 C6_3 1_555 1_555
N4_4 Cu1_4 1_555 1_555
N4_3 C13_5 1_555 1_555
H10_5 C13_5 1_555 1_555
Cu2 O1_5 1_555 1_555
O1_5 C1_5 1_555 1_555
C7_3 C1_5 1_555 1_555
C8_3 C7_3 1_555 1_555
O2_3 Cu2 1_555 1_555
C9_3 C8_3 1_555 1_555
H6_4 C9_3 1_555 1_555
H7_4 C9_3 1_555 1_555
H8_3 C9_3 1_555 1_555
O3_3 Cu2 1_555 1_555
C10_3 O3_3 1_555 1_555
C11_3 C10_3 1_555 1_555
C12_4 C11_3 1_555 1_555
C13_6 C12_4 1_555 1_555
N4_4 C13_6 1_555 1_555
C14_3 N4_4 1_555 1_555
C15_3 C11_3 1_555 1_555
C16_3 C10_3 1_555 1_555
C17_3 C16_3 1_555 1_555
O4_3 Cu2 1_555 1_555
C18_3 C17_3 1_555 1_555
H9_4 C12_4 1_555 1_555
H10_6 C13_6 1_555 1_555
H11_3 C14_3 1_555 1_555
H12_3 C15_3 1_555 1_555
H13_3 C16_3 1_555 1_555
H16_3 C18_3 1_555 1_555
C8_3 O2_3 1_555 1_555
C14_3 C15_3 1_555 1_555
C17_3 O4_3 1_555 1_555
Cu3 O1_6 1_555 1_555
O1_6 C1_6 1_555 1_555
C1_6 C2_4 1_555 1_555
C2_4 C3_3 1_555 1_555
C3_3 C4_3 1_555 1_555
C4_3 N3_2 1_555 1_555
N3_2 C5_4 1_555 1_555
C5_4 C6_4 1_555 1_555
C6_4 C2_4 1_555 1_555
H1_3 C3_3 1_555 1_555
H2_3 C4_3 1_555 1_555
H3_4 C5_4 1_555 1_555
H4_4 C6_4 1_555 1_555
C17_4 C16_4 1_555 1_555
O4_4 Cu3 1_555 1_555
C18_4 C17_4 1_555 1_555
H13_4 C16_4 1_555 1_555
H14 C18_4 1_555 1_555
H15 C18_4 1_555 1_555
H16_4 C18_4 1_555 1_555
C17_4 O4_4 1_555 1_555
C15_4 C11_4 1_555 1_555
H11_4 C14_4 1_555 1_555
H12_4 C15_4 1_555 1_555
C14_4 C15_4 1_555 1_555
H9_5 C12_5 1_555 1_555
Cu1_5 O1_7 1_555 1_555
O1_7 C1_7 1_555 1_555
C1_7 C2_5 1_555 1_555
C2_5 C3_4 1_555 1_555
C3_4 C4_4 1_555 1_555
C4_4 N1_2 1_555 1_555
N1_2 C5_5 1_555 1_555
C5_5 C6_5 1_555 1_555
C6_5 C2_5 1_555 1_555
C7_4 C1_7 1_555 1_555
C8_4 C7_4 1_555 1_555
O2_4 Cu1_5 1_555 1_555
C9_4 C8_4 1_555 1_555
H1_4 C3_4 1_555 1_555
H2_4 C4_4 1_555 1_555
H3_5 C5_5 1_555 1_555
H4_5 C6_5 1_555 1_555
H5_2 C7_4 1_555 1_555
H8_4 C9_4 1_555 1_555
O3_4 Cu1_5 1_555 1_555
C10_4 O3_4 1_555 1_555
C16_5 C10_4 1_555 1_555
C17_5 C16_5 1_555 1_555
O4_5 Cu1_5 1_555 1_555
C18_5 C17_5 1_555 1_555
H14_2 C18_5 1_555 1_555
H15_2 C18_5 1_555 1_555
H16_5 C18_5 1_555 1_555
Cu3_2 N1_2 1_555 1_555
N3_3 Cu1_5 1_555 1_555
N4_5 Cu1_5 1_555 1_555
C8_4 O2_4 1_555 1_555
C17_5 O4_5 1_555 1_555
C4_5 N1_3 1_555 1_555
H2_5 C4_5 1_555 1_555
Cu3_3 N1_3 1_555 1_555
O3_5 Cu1_6 1_555 1_555
C10_5 O3_5 1_555 1_555
C11_5 C10_5 1_555 1_555
C12_6 C11_5 1_555 1_555
C13_7 C12_6 1_555 1_555
N2_3 C13_7 1_555 1_555
C14_5 N2_3 1_555 1_555
C15_5 C11_5 1_555 1_555
H9_6 C12_6 1_555 1_555
H10_7 C13_7 1_555 1_555
H11_5 C14_5 1_555 1_555
H12_5 C15_5 1_555 1_555
Cu3_3 N2_3 1_555 1_555
N3_4 Cu1_6 1_555 1_555
C14_5 C15_5 1_555 1_555
Cu1_7 O1_8 1_555 1_555
O1_8 C1_8 1_555 1_555
C1_8 C2_6 1_555 1_555
C2_6 C3_5 1_555 1_555
C3_5 C4_6 1_555 1_555
C4_6 N3_4 1_555 1_555
N3_4 C5_6 1_555 1_555
C5_6 C6_6 1_555 1_555
C6_6 C2_6 1_555 1_555
C7_5 C1_8 1_555 1_555
C8_5 C7_5 1_555 1_555
O2_5 Cu1_7 1_555 1_555
C9_5 C8_5 1_555 1_555
H1_5 C3_5 1_555 1_555
H2_6 C4_6 1_555 1_555
H3_6 C5_6 1_555 1_555
H4_6 C6_6 1_555 1_555
H5_3 C7_5 1_555 1_555
H8_5 C9_5 1_555 1_555
O3_6 Cu1_7 1_555 1_555
C10_6 O3_6 1_555 1_555
C11_6 C10_6 1_555 1_555
C15_6 C11_6 1_555 1_555
C16_6 C10_6 1_555 1_555
C17_6 C16_6 1_555 1_555
O4_6 Cu1_7 1_555 1_555
C18_6 C17_6 1_555 1_555
H11_6 C14_6 1_555 1_555
H12_6 C15_6 1_555 1_555
H13_6 C16_6 1_555 1_555
H14_3 C18_6 1_555 1_555
H15_3 C18_6 1_555 1_555
H16_6 C18_6 1_555 1_555
N3_5 Cu1_7 1_555 1_555
N4_6 Cu1_7 1_555 1_555
C8_5 O2_5 1_555 1_555
C14_6 C15_6 1_555 1_555
C17_6 O4_6 1_555 1_555
C3_6 C4_7 1_555 1_555
C4_7 N3_3 1_555 1_555
H1_6 C3_6 1_555 1_555
H2_7 C4_7 1_555 1_555
O3_7 Cu1_8 1_555 1_555
C10_7 O3_7 1_555 1_555
C11_7 C10_7 1_555 1_555
C12_7 C11_7 1_555 1_555
C13_8 C12_7 1_555 1_555
N4_5 C13_8 1_555 1_555
C14_7 N4_5 1_555 1_555
C15_7 C11_7 1_555 1_555
H9_7 C12_7 1_555 1_555
H10_8 C13_8 1_555 1_555
H11_7 C14_7 1_555 1_555
H12_7 C15_7 1_555 1_555
N3_6 Cu1_8 1_555 1_555
C14_7 C15_7 1_555 1_555
Cu3_3 O1_9 1_555 1_555
O1_9 C1_9 1_555 1_555
C1_9 C2_7 1_555 1_555
C2_7 C3_7 1_555 1_555
C3_7 C4_8 1_555 1_555
C4_8 N3_6 1_555 1_555
N3_6 C5_7 1_555 1_555
C5_7 C6_7 1_555 1_555
C6_7 C2_7 1_555 1_555
C7_6 C1_9 1_555 1_555
C8_6 C7_6 1_555 1_555
O2_6 Cu3_3 1_555 1_555
C9_6 C8_6 1_555 1_555
H1_7 C3_7 1_555 1_555
H2_8 C4_8 1_555 1_555
H3_7 C5_7 1_555 1_555
H4_7 C6_7 1_555 1_555
H5_4 C7_6 1_555 1_555
H8_6 C9_6 1_555 1_555
O3_8 Cu3_3 1_555 1_555
C10_8 O3_8 1_555 1_555
C16_7 C10_8 1_555 1_555
C17_7 C16_7 1_555 1_555
O4_7 Cu3_3 1_555 1_555
C18_7 C17_7 1_555 1_555
H14_5 C18_7 1_555 1_555
H15_5 C18_7 1_555 1_555
H16_7 C18_7 1_555 1_555
C8_6 O2_6 1_555 1_555
C17_7 O4_7 1_555 1_555
C4_9 N3_5 1_555 1_555
H2_9 C4_9 1_555 1_555
C8_7 C7_7 1_555 1_555
O2_7 Cu3_2 1_555 1_555
C9_7 C8_7 1_555 1_555
H5_5 C7_7 1_555 1_555
H6_6 C9_7 1_555 1_555
H7_6 C9_7 1_555 1_555
H8_7 C9_7 1_555 1_555
O3_9 Cu3_2 1_555 1_555
C10_9 O3_9 1_555 1_555
C11_8 C10_9 1_555 1_555
C12_8 C11_8 1_555 1_555
C13_9 C12_8 1_555 1_555
N4_6 C13_9 1_555 1_555
C14_8 N4_6 1_555 1_555
C15_8 C11_8 1_555 1_555
H9_8 C12_8 1_555 1_555
H10_9 C13_9 1_555 1_555
H11_8 C14_8 1_555 1_555
H12_8 C15_8 1_555 1_555
C8_7 O2_7 1_555 1_555
C14_8 C15_8 1_555 1_555
H1_8 C3_8 1_555 1_555
C5_8 C6_8 1_555 1_555
C6_8 C2_8 1_555 1_555
H3_8 C5_8 1_555 1_555
H4_8 C6_8 1_555 1_555
C17_8 C16_8 1_555 1_555
O4_8 Cu1_9 1_555 1_555
C18_8 C17_8 1_555 1_555
H13_7 C16_8 1_555 1_555
H14_7 C18_8 1_555 1_555
H15_7 C18_8 1_555 1_555
H16_8 C18_8 1_555 1_555
C17_8 O4_8 1_555 1_555
C8_8 C7_8 1_555 1_555
O2_8 Cu1_10 1_555 1_555
C9_8 C8_8 1_555 1_555
H5_7 C7_8 1_555 1_555
H6_7 C9_8 1_555 1_555
H7_7 C9_8 1_555 1_555
H8_8 C9_8 1_555 1_555
C8_8 O2_8 1_555 1_555
C8_9 C7_9 1_555 1_555
O2_9 Cu1_11 1_555 1_555
C9_9 C8_9 1_555 1_555
H5_8 C7_9 1_555 1_555
H6_8 C9_9 1_555 1_555
H7_8 C9_9 1_555 1_555
H8_9 C9_9 1_555 1_555
C8_9 O2_9 1_555 1_555
C17_9 C16_9 1_555 1_555
O4_9 Cu1_12 1_555 1_555
C18_9 C17_9 1_555 1_555
H13_8 C16_9 1_555 1_555
H14_8 C18_9 1_555 1_555
H15_8 C18_9 1_555 1_555
H16_9 C18_9 1_555 1_555
C17_9 O4_9 1_555 1_555
H9_9 C12_9 1_555 1_555
C15_9 C11_9 1_555 1_555
H11_9 C14_9 1_555 1_555
H12_9 C15_9 1_555 1_555
C14_9 C15_9 1_555 1_555
C5_9 C6_9 1_555 1_555
C6_9 C2_9 1_555 1_555
H3_9 C5_9 1_555 1_555
H4_9 C6_9 1_555 1_555
H1_9 C3_9 1_555 1_555

#END
