
###############################################################################
#
# This file contains modified crystal structure data generated from the
# MOF subset of the Cambridge Structural Database (CSD) v543 
# hosted by the Cambridge Crystallographic Data Centre (CCDC).
#
# This work is licensed under the Creative Commons
# Attribution-NonCommercial-ShareAlike 4.0 International License.
# To view a copy of this license, visit
# http://creativecommons.org/licenses/by-nc-sa/4.0/
# or send a letter to
# Creative Commons, PO Box 1866, Mountain View, CA 94042, USA.
#
# CIF created using the CSD Python API on 29 September 2022
# The structure has been converted into the P1 space group
# The structure has a 3D framework
# The original CSD entry FUWYII is in the rhombohedral crystal system
# The framework has been calculated to contain at least 10.0% void space
# The void calculation uses a probe of radius 1.32A, grid spacing 0.4
#
###############################################################################

data_FUWYII
_chemical_formula_moiety         '(C162 H144 Cu16 N18 O36)n'
_symmetry_cell_setting           triclinic
_symmetry_space_group_name_H-M   'P 1'
_symmetry_Int_Tables_number      1
_space_group_name_Hall           'P 1'
loop_
_symmetry_equiv_pos_site_id
_symmetry_equiv_pos_as_xyz
1 x,y,z
_cell_length_a                   25.3023(7)
_cell_length_b                   25.3023(7)
_cell_length_c                   7.7337(3)
_cell_angle_alpha                90
_cell_angle_beta                 90
_cell_angle_gamma                120
_cell_volume                     4287.83
loop_
_atom_site_label
_atom_site_type_symbol
_atom_site_fract_x
_atom_site_fract_y
_atom_site_fract_z
C13 C 0.0402(2) 0.7569(2) 0.1744(6)
N2 N 0.09729(16) 0.80001(17) 0.1475(4)
H10 H 0.0288 0.7391 0.2862
Cu2 Cu 0.1666 0.8333 0.3333
Cu3 Cu 0.4999 0.5000 1.0000
Cu1 Cu 0.1666 0.3334 0.3334
O1 O 0.09037(13) 0.30153(15) 0.2029(4)
C1 C 0.03836(17) 0.25795(19) 0.2502(5)
C7 C 0.0253(2) 0.2247(2) 0.4013(6)
C8 C 0.0682(2) 0.2211(2) 0.5099(6)
O2 O 0.12471(15) 0.25071(16) 0.4910(4)
C9 C 0.0439(3) 0.1741(3) 0.6511(8)
H6 H 0.0776 0.1755 0.7173
H7 H 0.0185 0.1826 0.7286
H8 H 0.0193 0.1332 0.6014
O3 O 0.24296(13) 0.36514(15) 0.4638(4)
C10 C 0.29497(17) 0.40872(19) 0.4165(5)
C11 C 0.34428(17) 0.42699(19) 0.5482(5)
C12 C 0.3295(2) 0.4024(2) 0.7142(6)
C13_2 C 0.3735(2) 0.4236(2) 0.8411(6)
N2_2 N 0.43062(16) 0.46668(17) 0.8142(4)
C14 C 0.4448(2) 0.4888(2) 0.6534(5)
C15 C 0.40438(19) 0.4704(2) 0.5191(5)
C16 C 0.3080(2) 0.4420(2) 0.2654(6)
C17 C 0.2651(2) 0.4456(2) 0.1568(6)
O4 O 0.20862(15) 0.41596(16) 0.1757(4)
C18 C 0.2894(3) 0.4926(3) 0.0156(8)
H9 H 0.2889 0.3714 0.7394
H10_2 H 0.3621 0.4058 0.9529
H11 H 0.4858 0.5196 0.6315
H12 H 0.4177 0.4873 0.4071
H13 H 0.3496 0.4645 0.2313
H16 H 0.3140 0.5335 0.0653
N3 N 0.13335(17) 0.36939(23) 0.5191(4)
N4 N 0.19999(17) 0.29727(23) 0.1475(4)
Cu1_2 Cu 0.5000 1.0000 1.0000
O1_2 O 0.42371(13) 0.96819(15) 0.8695(4)
C1_2 C 0.37170(17) 0.92461(19) 0.9168(5)
C2 C 0.32239(17) 0.90634(19) 0.7851(5)
C3 C 0.3372(2) 0.9309(2) 0.6191(6)
C4 C 0.2932(2) 0.9097(2) 0.4922(6)
N1 N 0.23605(16) 0.86665(17) 0.5191(4)
C5 C 0.2219(2) 0.8445(2) 0.6799(5)
C6 C 0.26229(19) 0.8629(2) 0.8142(5)
H1 H 0.3778 0.9619 0.5939
H2 H 0.3046 0.9275 0.3804
H3 H 0.1809 0.8137 0.7018
H4 H 0.2490 0.8460 0.9262
N4_2 N 0.53332(17) 0.96394(23) 0.8142(4)
H6_2 H 0.4912 0.2355 0.0506
H7_2 H 0.4841 0.1693 0.0619
C12_2 C 0.2643(2) 0.2604(3) 0.0475(6)
C13_3 C 0.2431(2) 0.2832(3) 0.1744(6)
H9_2 H 0.2953 0.2508 0.0727
H10_3 H 0.2609 0.2896 0.2862
Cu1_3 Cu 0.6666 0.8333 0.3334
O1_3 O 0.69847(15) 0.78885(20) 0.2029(4)
C1_3 C 0.74205(19) 0.78042(25) 0.2502(5)
C2_2 C 0.76032(19) 0.74938(25) 0.1185(5)
C5_2 C 0.8221(2) 0.7107(3) 0.0133(5)
C6_2 C 0.8037(2) 0.73269(28) 0.1476(5)
C7_2 C 0.7753(2) 0.8007(3) 0.4013(6)
C8_2 C 0.7789(2) 0.8472(3) 0.5099(6)
O2_2 O 0.74929(16) 0.87401(22) 0.4910(4)
C9_2 C 0.8259(3) 0.8699(4) 0.6511(8)
H3_2 H 0.8529 0.7005 0.0352
H4_2 H 0.8206 0.7363 0.2596
H5 H 0.7978 0.7816 0.4354
H6_3 H 0.8245 0.9022 0.7173
H7_3 H 0.8174 0.8360 0.7286
H8_2 H 0.8668 0.8862 0.6014
O3_2 O 0.63486(15) 0.87782(20) 0.4638(4)
C10_2 C 0.59128(19) 0.88625(25) 0.4165(5)
C11_2 C 0.57301(19) 0.91729(25) 0.5482(5)
C12_3 C 0.5976(2) 0.9271(3) 0.7142(6)
C13_4 C 0.5764(2) 0.9499(3) 0.8411(6)
C14_2 C 0.5112(2) 0.9560(3) 0.6534(5)
C15_2 C 0.5296(2) 0.93398(28) 0.5191(5)
C16_2 C 0.5580(2) 0.8660(3) 0.2654(6)
C17_2 C 0.5544(2) 0.8195(3) 0.1568(6)
O4_2 O 0.58404(16) 0.79266(22) 0.1757(4)
C18_2 C 0.5074(3) 0.7968(4) 0.0156(8)
H9_3 H 0.6286 0.9175 0.7394
H10_4 H 0.5942 0.9563 0.9529
H11_2 H 0.4804 0.9662 0.6315
H12_2 H 0.5127 0.9304 0.4071
H13_2 H 0.5355 0.8851 0.2313
H16_2 H 0.4665 0.7805 0.0653
N3_2 N 0.63061(23) 0.76395(29) 0.5191(4)
N4_3 N 0.70273(23) 0.90271(29) 0.1475(4)
Cu1_4 Cu -0.0000 0.4999 1.0000
O1_4 O 0.03181(15) 0.45551(20) 0.8695(4)
C1_4 C 0.07539(19) 0.44708(25) 0.9168(5)
C2_3 C 0.09366(19) 0.41604(25) 0.7851(5)
C3_2 C 0.0691(2) 0.4062(3) 0.6191(6)
C4_2 C 0.0903(2) 0.3834(3) 0.4922(6)
C5_3 C 0.1555(2) 0.3773(3) 0.6799(5)
C6_3 C 0.1371(2) 0.39935(28) 0.8142(5)
H1_2 H 0.0381 0.4158 0.5939
H2_2 H 0.0725 0.3770 0.3804
H3_3 H 0.1863 0.3671 0.7018
H4_3 H 0.1540 0.4029 0.9262
N4_4 N 0.03606(23) 0.56938(29) 0.8142(4)
C13_5 C 0.7168(3) 0.9598(2) 0.1744(6)
H10_5 H 0.7104 0.9712 0.2862
O1_5 O 0.21115(20) 0.90963(13) 0.2029(4)
C1_5 C 0.21958(25) 0.96164(17) 0.2502(5)
C7_3 C 0.1993(3) 0.9747(2) 0.4013(6)
C8_3 C 0.1528(3) 0.9318(2) 0.5099(6)
O2_3 O 0.12599(22) 0.87529(15) 0.4910(4)
C9_3 C 0.1301(4) 0.9561(3) 0.6511(8)
H6_4 H 0.0978 0.9224 0.7173
H7_4 H 0.1640 0.9815 0.7286
H8_3 H 0.1138 0.9807 0.6014
O3_3 O 0.12218(20) 0.75704(13) 0.4638(4)
C10_3 C 0.11375(25) 0.70503(17) 0.4165(5)
C11_3 C 0.08271(25) 0.65572(17) 0.5482(5)
C12_4 C 0.0729(3) 0.6705(2) 0.7142(6)
C13_6 C 0.0501(3) 0.6265(2) 0.8411(6)
C14_3 C 0.0440(3) 0.5552(2) 0.6534(5)
C15_3 C 0.06602(28) 0.59562(19) 0.5191(5)
C16_3 C 0.1340(3) 0.6920(2) 0.2654(6)
C17_3 C 0.1805(3) 0.7349(2) 0.1568(6)
O4_3 O 0.20734(22) 0.79138(15) 0.1757(4)
C18_3 C 0.2032(4) 0.7106(3) 0.0156(8)
H9_4 H 0.0825 0.7111 0.7394
H10_6 H 0.0437 0.6379 0.9529
H11_3 H 0.0338 0.5142 0.6315
H12_3 H 0.0696 0.5823 0.4071
H13_3 H 0.1149 0.6504 0.2313
H16_3 H 0.2195 0.6860 0.0653
O1_6 O 0.54449(20) 0.57629(13) 0.8695(4)
C1_6 C 0.55292(25) 0.62830(17) 0.9168(5)
C2_4 C 0.58396(25) 0.67761(17) 0.7851(5)
C3_3 C 0.5938(3) 0.6628(2) 0.6191(6)
C4_3 C 0.6166(3) 0.7068(2) 0.4922(6)
C5_4 C 0.6227(3) 0.7781(2) 0.6799(5)
C6_4 C 0.60065(28) 0.73771(19) 0.8142(5)
H1_3 H 0.5842 0.6222 0.5939
H2_3 H 0.6230 0.6954 0.3804
H3_4 H 0.6329 0.8191 0.7018
H4_4 H 0.5971 0.7510 0.9262
C16_4 C 0.4673(3) 0.3587(2) 0.9321(6)
C17_4 C 0.5138(3) 0.4016(2) 0.8235(6)
O4_4 O 0.54067(22) 0.45805(15) 0.8424(4)
C18_4 C 0.5365(4) 0.3773(3) 0.6823(8)
H13_4 H 0.4482 0.3171 0.8980
H14 H 0.5688 0.4110 0.6161
H15 H 0.5026 0.3519 0.6048
H16_4 H 0.5528 0.3527 0.7320
C11_4 C 0.01095(17) 0.76032(19) 0.8815(5)
C14_4 C 0.1115(2) 0.8221(2) 0.9867(5)
C15_4 C 0.07105(19) 0.8037(2) 0.8524(5)
H11_4 H 0.1525 0.8529 0.9648
H12_4 H 0.0844 0.8206 0.7404
H13_5 H 0.0163 0.7978 0.5646
H6_5 H 0.7443 0.5088 0.0506
H7_5 H 0.6852 0.5159 0.0619
C12_5 C 0.9962(2) 0.7357(2) 0.0475(6)
H9_5 H 0.9556 0.7047 0.0727
Cu1_5 Cu 0.8333 0.6667 0.6667
O1_7 O 0.75704(13) 0.63486(15) 0.5362(4)
C1_7 C 0.70503(17) 0.59128(19) 0.5835(5)
C2_5 C 0.65572(17) 0.57301(19) 0.4518(5)
C3_4 C 0.6705(2) 0.5976(2) 0.2858(6)
C4_4 C 0.6265(2) 0.5764(2) 0.1589(6)
N1_2 N 0.56938(16) 0.53332(17) 0.1858(4)
C5_5 C 0.5552(2) 0.5112(2) 0.3466(5)
C6_5 C 0.59562(19) 0.5296(2) 0.4809(5)
C7_4 C 0.6920(2) 0.5580(2) 0.7346(6)
C8_4 C 0.7349(2) 0.5544(2) 0.8432(6)
O2_4 O 0.79138(15) 0.58404(16) 0.8243(4)
C9_4 C 0.7106(3) 0.5074(3) 0.9844(8)
H1_4 H 0.7111 0.6286 0.2606
H2_4 H 0.6379 0.5942 0.0471
H3_5 H 0.5142 0.4804 0.3685
H4_5 H 0.5823 0.5127 0.5929
H5_2 H 0.6504 0.5355 0.7687
H8_4 H 0.6860 0.4665 0.9347
O3_4 O 0.90963(13) 0.69847(15) 0.7971(4)
C10_4 C 0.96164(17) 0.74205(19) 0.7498(5)
C16_5 C 0.9747(2) 0.7753(2) 0.5987(6)
C17_5 C 0.9318(2) 0.7789(2) 0.4901(6)
O4_5 O 0.87529(15) 0.74929(16) 0.5090(4)
C18_5 C 0.9561(3) 0.8259(3) 0.3489(8)
H14_2 H 0.9224 0.8245 0.2827
H15_2 H 0.9815 0.8174 0.2714
H16_5 H 0.9807 0.8668 0.3986
Cu3_2 Cu 0.4999 0.5000 -0.0000
N3_3 N 0.80001(17) 0.70273(23) 0.8525(4)
N4_5 N 0.86665(17) 0.63061(23) 0.4809(4)
C4_5 C 0.9598(2) 0.2431(2) 0.8256(6)
N1_3 N 0.90271(16) 0.19999(17) 0.8525(4)
H2_5 H 0.9712 0.2609 0.7138
Cu3_3 Cu 0.8333 0.1666 0.6666
Cu1_6 Cu 0.5000 0.0000 0.0000
O3_5 O 0.57629(13) 0.03181(15) 0.1305(4)
C10_5 C 0.62830(17) 0.07539(19) 0.0832(5)
C11_5 C 0.67761(17) 0.09366(19) 0.2149(5)
C12_6 C 0.6628(2) 0.0691(2) 0.3809(6)
C13_7 C 0.7068(2) 0.0903(2) 0.5078(6)
N2_3 N 0.76395(16) 0.13335(17) 0.4809(4)
C14_5 C 0.7781(2) 0.1555(2) 0.3201(5)
C15_5 C 0.73771(19) 0.1371(2) 0.1858(5)
H9_6 H 0.6222 0.0381 0.4061
H10_7 H 0.6954 0.0725 0.6196
H11_5 H 0.8191 0.1863 0.2982
H12_5 H 0.7510 0.1540 0.0738
N3_4 N 0.46668(17) 0.03606(23) 0.1858(4)
Cu1_7 Cu 0.3333 0.1666 0.6667
O1_8 O 0.36514(15) 0.12218(20) 0.5362(4)
C1_8 C 0.40872(19) 0.11375(25) 0.5835(5)
C2_6 C 0.42699(19) 0.08271(25) 0.4518(5)
C3_5 C 0.4024(2) 0.0729(3) 0.2858(6)
C4_6 C 0.4236(2) 0.0501(3) 0.1589(6)
C5_6 C 0.4888(2) 0.0440(3) 0.3466(5)
C6_6 C 0.4704(2) 0.06602(28) 0.4809(5)
C7_5 C 0.4420(2) 0.1340(3) 0.7346(6)
C8_5 C 0.4456(2) 0.1805(3) 0.8432(6)
O2_5 O 0.41596(16) 0.20734(22) 0.8243(4)
C9_5 C 0.4926(3) 0.2032(4) 0.9844(8)
H1_5 H 0.3714 0.0825 0.2606
H2_6 H 0.4058 0.0437 0.0471
H3_6 H 0.5196 0.0338 0.3685
H4_6 H 0.4873 0.0696 0.5929
H5_3 H 0.4645 0.1149 0.7687
H8_5 H 0.5335 0.2195 0.9347
O3_6 O 0.30153(15) 0.21115(20) 0.7971(4)
C10_6 C 0.25795(19) 0.21958(25) 0.7498(5)
C11_6 C 0.23968(19) 0.25062(25) 0.8815(5)
C14_6 C 0.1779(2) 0.2893(3) 0.9867(5)
C15_6 C 0.1963(2) 0.26731(28) 0.8524(5)
C16_6 C 0.2247(2) 0.1993(3) 0.5987(6)
C17_6 C 0.2211(2) 0.1528(3) 0.4901(6)
O4_6 O 0.25071(16) 0.12599(22) 0.5090(4)
C18_6 C 0.1741(3) 0.1301(4) 0.3489(8)
H11_6 H 0.1471 0.2995 0.9648
H12_6 H 0.1794 0.2637 0.7404
H13_6 H 0.2022 0.2184 0.5646
H14_3 H 0.1755 0.0978 0.2827
H15_3 H 0.1826 0.1640 0.2714
H16_6 H 0.1332 0.1138 0.3986
N3_5 N 0.29727(23) 0.09729(29) 0.8525(4)
N4_6 N 0.36939(23) 0.23605(29) 0.4809(4)
C3_6 C 0.7357(2) 0.7396(3) 0.9525(6)
C4_7 C 0.7569(2) 0.7168(3) 0.8256(6)
H1_6 H 0.7047 0.7492 0.9273
H2_7 H 0.7391 0.7104 0.7138
H14_4 H 0.5088 0.7645 0.9494
H15_4 H 0.5159 0.8307 0.9381
Cu1_8 Cu 1.0000 0.4999 0.0000
O3_7 O 0.96819(15) 0.54449(20) 0.1305(4)
C10_7 C 0.92461(19) 0.55292(25) 0.0832(5)
C11_7 C 0.90634(19) 0.58396(25) 0.2149(5)
C12_7 C 0.9309(2) 0.5938(3) 0.3809(6)
C13_8 C 0.9097(2) 0.6166(3) 0.5078(6)
C14_7 C 0.8445(2) 0.6227(3) 0.3201(5)
C15_7 C 0.8629(2) 0.60065(28) 0.1858(5)
H9_7 H 0.9619 0.5842 0.4061
H10_8 H 0.9275 0.6230 0.6196
H11_7 H 0.8137 0.6329 0.2982
H12_7 H 0.8460 0.5971 0.0738
N3_6 N 0.96394(23) 0.43062(29) 0.1858(4)
O1_9 O 0.87782(20) 0.24296(13) 0.5362(4)
C1_9 C 0.88625(25) 0.29497(17) 0.5835(5)
C2_7 C 0.91729(25) 0.34428(17) 0.4518(5)
C3_7 C 0.9271(3) 0.3295(2) 0.2858(6)
C4_8 C 0.9499(3) 0.3735(2) 0.1589(6)
C5_7 C 0.9560(3) 0.4448(2) 0.3466(5)
C6_7 C 0.93398(28) 0.40438(19) 0.4809(5)
C7_6 C 0.8660(3) 0.3080(2) 0.7346(6)
C8_6 C 0.8195(3) 0.2651(2) 0.8432(6)
O2_6 O 0.79266(22) 0.20862(15) 0.8243(4)
C9_6 C 0.7968(4) 0.2894(3) 0.9844(8)
H1_7 H 0.9175 0.2889 0.2606
H2_8 H 0.9563 0.3621 0.0471
H3_7 H 0.9662 0.4858 0.3685
H4_7 H 0.9304 0.4177 0.5929
H5_4 H 0.8851 0.3496 0.7687
H8_6 H 0.7805 0.3140 0.9347
O3_8 O 0.78885(20) 0.09037(13) 0.7971(4)
C10_8 C 0.78042(25) 0.03836(17) 0.7498(5)
C16_7 C 0.8007(3) 0.0253(2) 0.5987(6)
C17_7 C 0.8472(3) 0.0682(2) 0.4901(6)
O4_7 O 0.87401(22) 0.12471(15) 0.5090(4)
C18_7 C 0.8699(4) 0.0439(3) 0.3489(8)
H14_5 H 0.9022 0.0776 0.2827
H15_5 H 0.8360 0.0185 0.2714
H16_7 H 0.8862 0.0193 0.3986
C4_9 C 0.2832(3) 0.0402(2) 0.8256(6)
H2_9 H 0.2896 0.0288 0.7138
C7_7 C 0.5327(3) 0.6413(2) 0.0679(6)
C8_7 C 0.4862(3) 0.5984(2) 0.1765(6)
O2_7 O 0.45933(22) 0.54195(15) 0.1576(4)
C9_7 C 0.4635(4) 0.6227(3) 0.3177(8)
H5_5 H 0.5518 0.6829 0.1020
H6_6 H 0.4312 0.5890 0.3839
H7_6 H 0.4974 0.6481 0.3952
H8_7 H 0.4472 0.6473 0.2680
O3_9 O 0.45551(20) 0.42371(13) 0.1305(4)
C10_9 C 0.44708(25) 0.37170(17) 0.0832(5)
C11_8 C 0.41604(25) 0.32239(17) 0.2149(5)
C12_8 C 0.4062(3) 0.3372(2) 0.3809(6)
C13_9 C 0.3834(3) 0.2932(2) 0.5078(6)
C14_8 C 0.3773(3) 0.2219(2) 0.3201(5)
C15_8 C 0.39935(28) 0.26229(19) 0.1858(5)
H9_8 H 0.4158 0.3778 0.4061
H10_9 H 0.3770 0.3046 0.6196
H11_8 H 0.3671 0.1809 0.2982
H12_8 H 0.4029 0.2490 0.0738
C3_8 C 0.0038(2) 0.2643(2) 0.9525(6)
H1_8 H 0.0444 0.2953 0.9273
H14_6 H 0.2557 0.4912 0.9494
H15_6 H 0.3148 0.4841 0.9381
C2_8 C 0.98905(17) 0.23968(19) 0.1185(5)
C5_8 C 0.8885(2) 0.1779(2) 0.0133(5)
C6_8 C 0.92895(19) 0.1963(2) 0.1476(5)
H3_8 H 0.8475 0.1471 0.0352
H4_8 H 0.9156 0.1794 0.2596
H5_6 H 0.9837 0.2022 0.4354
Cu1_9 Cu 0.5000 0.0000 1.0000
C16_8 C 0.6413(2) 0.1087(2) 0.9321(6)
C17_8 C 0.5984(2) 0.1123(2) 0.8235(6)
O4_8 O 0.54195(15) 0.08263(16) 0.8424(4)
C18_8 C 0.6227(3) 0.1593(3) 0.6823(8)
H13_7 H 0.6829 0.1312 0.8980
H14_7 H 0.5890 0.1579 0.6161
H15_7 H 0.6481 0.1508 0.6048
H16_8 H 0.6473 0.2002 0.7320
Cu1_10 Cu 0.5000 1.0000 0.0000
C7_8 C 0.3587(2) 0.8913(2) 0.0679(6)
C8_8 C 0.4016(2) 0.8877(2) 0.1765(6)
O2_8 O 0.45805(15) 0.91737(16) 0.1576(4)
C9_8 C 0.3773(3) 0.8407(3) 0.3177(8)
H5_7 H 0.3171 0.8688 0.1020
H6_7 H 0.4110 0.8421 0.3839
H7_7 H 0.3519 0.8492 0.3952
H8_8 H 0.3527 0.7998 0.2680
Cu1_11 Cu -0.0000 0.4999 0.0000
C7_9 C 0.1087(2) 0.4673(3) 0.0679(6)
C8_9 C 0.1123(2) 0.5138(3) 0.1765(6)
O2_9 O 0.08263(16) 0.54067(22) 0.1576(4)
C9_9 C 0.1593(3) 0.5365(4) 0.3177(8)
H5_8 H 0.1312 0.4482 0.1020
H6_8 H 0.1579 0.5688 0.3839
H7_8 H 0.1508 0.5026 0.3952
H8_9 H 0.2002 0.5528 0.2680
Cu1_12 Cu 1.0000 0.4999 1.0000
C16_9 C 0.8913(2) 0.5327(3) 0.9321(6)
C17_9 C 0.8877(2) 0.4862(3) 0.8235(6)
O4_9 O 0.91737(16) 0.45933(22) 0.8424(4)
C18_9 C 0.8407(3) 0.4635(4) 0.6823(8)
H13_8 H 0.8688 0.5518 0.8980
H14_8 H 0.8421 0.4312 0.6161
H15_8 H 0.8492 0.4974 0.6048
H16_9 H 0.7998 0.4472 0.7320
H6_9 H 0.7645 0.2557 0.0506
H7_9 H 0.8307 0.3148 0.0619
C12_9 C 0.7396(3) 0.0038(2) 0.0475(6)
H9_9 H 0.7492 0.0444 0.0727
C11_9 C 0.74938(25) 0.98905(17) 0.8815(5)
C14_9 C 0.7107(3) 0.8885(2) 0.9867(5)
C15_9 C 0.73269(28) 0.92895(19) 0.8524(5)
H11_9 H 0.7005 0.8475 0.9648
H12_9 H 0.7363 0.9156 0.7404
H13_9 H 0.7816 0.9837 0.5646
C2_9 C 0.25062(25) 0.01095(17) 0.1185(5)
C5_9 C 0.2893(3) 0.1115(2) 0.0133(5)
C6_9 C 0.26731(28) 0.07105(19) 0.1476(5)
H3_9 H 0.2995 0.1525 0.0352
H4_9 H 0.2637 0.0844 0.2596
H5_9 H 0.2184 0.0163 0.4354
C3_9 C 0.2604(3) 0.9962(2) 0.9525(6)
H1_9 H 0.2508 0.9556 0.9273
H14_9 H 0.2355 0.7443 0.9494
H15_9 H 0.1693 0.6852 0.9381
loop_
_geom_bond_atom_site_label_1
_geom_bond_atom_site_label_2
_geom_bond_site_symmetry_1
_geom_bond_site_symmetry_2
N2 C13 1_555 1_555
H10 C13 1_555 1_555
Cu2 N2 1_555 1_555
Cu1 O1 1_555 1_555
O1 C1 1_555 1_555
C7 C1 1_555 1_555
C8 C7 1_555 1_555
O2 Cu1 1_555 1_555
C9 C8 1_555 1_555
H6 C9 1_555 1_555
H7 C9 1_555 1_555
H8 C9 1_555 1_555
O3 Cu1 1_555 1_555
C10 O3 1_555 1_555
C11 C10 1_555 1_555
C12 C11 1_555 1_555
C13_2 C12 1_555 1_555
N2_2 C13_2 1_555 1_555
C14 N2_2 1_555 1_555
C15 C11 1_555 1_555
C16 C10 1_555 1_555
C17 C16 1_555 1_555
O4 Cu1 1_555 1_555
C18 C17 1_555 1_555
H9 C12 1_555 1_555
H10_2 C13_2 1_555 1_555
H11 C14 1_555 1_555
H12 C15 1_555 1_555
H13 C16 1_555 1_555
H16 C18 1_555 1_555
Cu3 N2_2 1_555 1_555
N3 Cu1 1_555 1_555
N4 Cu1 1_555 1_555
C8 O2 1_555 1_555
C14 C15 1_555 1_555
C17 O4 1_555 1_555
Cu1_2 O1_2 1_555 1_555
O1_2 C1_2 1_555 1_555
C1_2 C2 1_555 1_555
C2 C3 1_555 1_555
C3 C4 1_555 1_555
C4 N1 1_555 1_555
N1 C5 1_555 1_555
C5 C6 1_555 1_555
C6 C2 1_555 1_555
H1 C3 1_555 1_555
H2 C4 1_555 1_555
H3 C5 1_555 1_555
H4 C6 1_555 1_555
Cu2 N1 1_555 1_555
N4_2 Cu1_2 1_555 1_555
C13_3 C12_2 1_555 1_555
N4 C13_3 1_555 1_555
H9_2 C12_2 1_555 1_555
H10_3 C13_3 1_555 1_555
Cu1_3 O1_3 1_555 1_555
O1_3 C1_3 1_555 1_555
C1_3 C2_2 1_555 1_555
C5_2 C6_2 1_555 1_555
C6_2 C2_2 1_555 1_555
C7_2 C1_3 1_555 1_555
C8_2 C7_2 1_555 1_555
O2_2 Cu1_3 1_555 1_555
C9_2 C8_2 1_555 1_555
H3_2 C5_2 1_555 1_555
H4_2 C6_2 1_555 1_555
H5 C7_2 1_555 1_555
H6_3 C9_2 1_555 1_555
H7_3 C9_2 1_555 1_555
H8_2 C9_2 1_555 1_555
O3_2 Cu1_3 1_555 1_555
C10_2 O3_2 1_555 1_555
C11_2 C10_2 1_555 1_555
C12_3 C11_2 1_555 1_555
C13_4 C12_3 1_555 1_555
N4_2 C13_4 1_555 1_555
C14_2 N4_2 1_555 1_555
C15_2 C11_2 1_555 1_555
C16_2 C10_2 1_555 1_555
C17_2 C16_2 1_555 1_555
O4_2 Cu1_3 1_555 1_555
C18_2 C17_2 1_555 1_555
H9_3 C12_3 1_555 1_555
H10_4 C13_4 1_555 1_555
H11_2 C14_2 1_555 1_555
H12_2 C15_2 1_555 1_555
H13_2 C16_2 1_555 1_555
H16_2 C18_2 1_555 1_555
N3_2 Cu1_3 1_555 1_555
N4_3 Cu1_3 1_555 1_555
C8_2 O2_2 1_555 1_555
C14_2 C15_2 1_555 1_555
C17_2 O4_2 1_555 1_555
Cu1_4 O1_4 1_555 1_555
O1_4 C1_4 1_555 1_555
C1_4 C2_3 1_555 1_555
C2_3 C3_2 1_555 1_555
C3_2 C4_2 1_555 1_555
C4_2 N3 1_555 1_555
N3 C5_3 1_555 1_555
C5_3 C6_3 1_555 1_555
C6_3 C2_3 1_555 1_555
H1_2 C3_2 1_555 1_555
H2_2 C4_2 1_555 1_555
H3_3 C5_3 1_555 1_555
H4_3 C6_3 1_555 1_555
N4_4 Cu1_4 1_555 1_555
N4_3 C13_5 1_555 1_555
H10_5 C13_5 1_555 1_555
Cu2 O1_5 1_555 1_555
O1_5 C1_5 1_555 1_555
C7_3 C1_5 1_555 1_555
C8_3 C7_3 1_555 1_555
O2_3 Cu2 1_555 1_555
C9_3 C8_3 1_555 1_555
H6_4 C9_3 1_555 1_555
H7_4 C9_3 1_555 1_555
H8_3 C9_3 1_555 1_555
O3_3 Cu2 1_555 1_555
C10_3 O3_3 1_555 1_555
C11_3 C10_3 1_555 1_555
C12_4 C11_3 1_555 1_555
C13_6 C12_4 1_555 1_555
N4_4 C13_6 1_555 1_555
C14_3 N4_4 1_555 1_555
C15_3 C11_3 1_555 1_555
C16_3 C10_3 1_555 1_555
C17_3 C16_3 1_555 1_555
O4_3 Cu2 1_555 1_555
C18_3 C17_3 1_555 1_555
H9_4 C12_4 1_555 1_555
H10_6 C13_6 1_555 1_555
H11_3 C14_3 1_555 1_555
H12_3 C15_3 1_555 1_555
H13_3 C16_3 1_555 1_555
H16_3 C18_3 1_555 1_555
C8_3 O2_3 1_555 1_555
C14_3 C15_3 1_555 1_555
C17_3 O4_3 1_555 1_555
Cu3 O1_6 1_555 1_555
O1_6 C1_6 1_555 1_555
C1_6 C2_4 1_555 1_555
C2_4 C3_3 1_555 1_555
C3_3 C4_3 1_555 1_555
C4_3 N3_2 1_555 1_555
N3_2 C5_4 1_555 1_555
C5_4 C6_4 1_555 1_555
C6_4 C2_4 1_555 1_555
H1_3 C3_3 1_555 1_555
H2_3 C4_3 1_555 1_555
H3_4 C5_4 1_555 1_555
H4_4 C6_4 1_555 1_555
C17_4 C16_4 1_555 1_555
O4_4 Cu3 1_555 1_555
C18_4 C17_4 1_555 1_555
H13_4 C16_4 1_555 1_555
H14 C18_4 1_555 1_555
H15 C18_4 1_555 1_555
H16_4 C18_4 1_555 1_555
C17_4 O4_4 1_555 1_555
C15_4 C11_4 1_555 1_555
H11_4 C14_4 1_555 1_555
H12_4 C15_4 1_555 1_555
C14_4 C15_4 1_555 1_555
H9_5 C12_5 1_555 1_555
Cu1_5 O1_7 1_555 1_555
O1_7 C1_7 1_555 1_555
C1_7 C2_5 1_555 1_555
C2_5 C3_4 1_555 1_555
C3_4 C4_4 1_555 1_555
C4_4 N1_2 1_555 1_555
N1_2 C5_5 1_555 1_555
C5_5 C6_5 1_555 1_555
C6_5 C2_5 1_555 1_555
C7_4 C1_7 1_555 1_555
C8_4 C7_4 1_555 1_555
O2_4 Cu1_5 1_555 1_555
C9_4 C8_4 1_555 1_555
H1_4 C3_4 1_555 1_555
H2_4 C4_4 1_555 1_555
H3_5 C5_5 1_555 1_555
H4_5 C6_5 1_555 1_555
H5_2 C7_4 1_555 1_555
H8_4 C9_4 1_555 1_555
O3_4 Cu1_5 1_555 1_555
C10_4 O3_4 1_555 1_555
C16_5 C10_4 1_555 1_555
C17_5 C16_5 1_555 1_555
O4_5 Cu1_5 1_555 1_555
C18_5 C17_5 1_555 1_555
H14_2 C18_5 1_555 1_555
H15_2 C18_5 1_555 1_555
H16_5 C18_5 1_555 1_555
Cu3_2 N1_2 1_555 1_555
N3_3 Cu1_5 1_555 1_555
N4_5 Cu1_5 1_555 1_555
C8_4 O2_4 1_555 1_555
C17_5 O4_5 1_555 1_555
C4_5 N1_3 1_555 1_555
H2_5 C4_5 1_555 1_555
Cu3_3 N1_3 1_555 1_555
O3_5 Cu1_6 1_555 1_555
C10_5 O3_5 1_555 1_555
C11_5 C10_5 1_555 1_555
C12_6 C11_5 1_555 1_555
C13_7 C12_6 1_555 1_555
N2_3 C13_7 1_555 1_555
C14_5 N2_3 1_555 1_555
C15_5 C11_5 1_555 1_555
H9_6 C12_6 1_555 1_555
H10_7 C13_7 1_555 1_555
H11_5 C14_5 1_555 1_555
H12_5 C15_5 1_555 1_555
Cu3_3 N2_3 1_555 1_555
N3_4 Cu1_6 1_555 1_555
C14_5 C15_5 1_555 1_555
Cu1_7 O1_8 1_555 1_555
O1_8 C1_8 1_555 1_555
C1_8 C2_6 1_555 1_555
C2_6 C3_5 1_555 1_555
C3_5 C4_6 1_555 1_555
C4_6 N3_4 1_555 1_555
N3_4 C5_6 1_555 1_555
C5_6 C6_6 1_555 1_555
C6_6 C2_6 1_555 1_555
C7_5 C1_8 1_555 1_555
C8_5 C7_5 1_555 1_555
O2_5 Cu1_7 1_555 1_555
C9_5 C8_5 1_555 1_555
H1_5 C3_5 1_555 1_555
H2_6 C4_6 1_555 1_555
H3_6 C5_6 1_555 1_555
H4_6 C6_6 1_555 1_555
H5_3 C7_5 1_555 1_555
H8_5 C9_5 1_555 1_555
O3_6 Cu1_7 1_555 1_555
C10_6 O3_6 1_555 1_555
C11_6 C10_6 1_555 1_555
C15_6 C11_6 1_555 1_555
C16_6 C10_6 1_555 1_555
C17_6 C16_6 1_555 1_555
O4_6 Cu1_7 1_555 1_555
C18_6 C17_6 1_555 1_555
H11_6 C14_6 1_555 1_555
H12_6 C15_6 1_555 1_555
H13_6 C16_6 1_555 1_555
H14_3 C18_6 1_555 1_555
H15_3 C18_6 1_555 1_555
H16_6 C18_6 1_555 1_555
N3_5 Cu1_7 1_555 1_555
N4_6 Cu1_7 1_555 1_555
C8_5 O2_5 1_555 1_555
C14_6 C15_6 1_555 1_555
C17_6 O4_6 1_555 1_555
C3_6 C4_7 1_555 1_555
C4_7 N3_3 1_555 1_555
H1_6 C3_6 1_555 1_555
H2_7 C4_7 1_555 1_555
O3_7 Cu1_8 1_555 1_555
C10_7 O3_7 1_555 1_555
C11_7 C10_7 1_555 1_555
C12_7 C11_7 1_555 1_555
C13_8 C12_7 1_555 1_555
N4_5 C13_8 1_555 1_555
C14_7 N4_5 1_555 1_555
C15_7 C11_7 1_555 1_555
H9_7 C12_7 1_555 1_555
H10_8 C13_8 1_555 1_555
H11_7 C14_7 1_555 1_555
H12_7 C15_7 1_555 1_555
N3_6 Cu1_8 1_555 1_555
C14_7 C15_7 1_555 1_555
Cu3_3 O1_9 1_555 1_555
O1_9 C1_9 1_555 1_555
C1_9 C2_7 1_555 1_555
C2_7 C3_7 1_555 1_555
C3_7 C4_8 1_555 1_555
C4_8 N3_6 1_555 1_555
N3_6 C5_7 1_555 1_555
C5_7 C6_7 1_555 1_555
C6_7 C2_7 1_555 1_555
C7_6 C1_9 1_555 1_555
C8_6 C7_6 1_555 1_555
O2_6 Cu3_3 1_555 1_555
C9_6 C8_6 1_555 1_555
H1_7 C3_7 1_555 1_555
H2_8 C4_8 1_555 1_555
H3_7 C5_7 1_555 1_555
H4_7 C6_7 1_555 1_555
H5_4 C7_6 1_555 1_555
H8_6 C9_6 1_555 1_555
O3_8 Cu3_3 1_555 1_555
C10_8 O3_8 1_555 1_555
C16_7 C10_8 1_555 1_555
C17_7 C16_7 1_555 1_555
O4_7 Cu3_3 1_555 1_555
C18_7 C17_7 1_555 1_555
H14_5 C18_7 1_555 1_555
H15_5 C18_7 1_555 1_555
H16_7 C18_7 1_555 1_555
C8_6 O2_6 1_555 1_555
C17_7 O4_7 1_555 1_555
C4_9 N3_5 1_555 1_555
H2_9 C4_9 1_555 1_555
C8_7 C7_7 1_555 1_555
O2_7 Cu3_2 1_555 1_555
C9_7 C8_7 1_555 1_555
H5_5 C7_7 1_555 1_555
H6_6 C9_7 1_555 1_555
H7_6 C9_7 1_555 1_555
H8_7 C9_7 1_555 1_555
O3_9 Cu3_2 1_555 1_555
C10_9 O3_9 1_555 1_555
C11_8 C10_9 1_555 1_555
C12_8 C11_8 1_555 1_555
C13_9 C12_8 1_555 1_555
N4_6 C13_9 1_555 1_555
C14_8 N4_6 1_555 1_555
C15_8 C11_8 1_555 1_555
H9_8 C12_8 1_555 1_555
H10_9 C13_9 1_555 1_555
H11_8 C14_8 1_555 1_555
H12_8 C15_8 1_555 1_555
C8_7 O2_7 1_555 1_555
C14_8 C15_8 1_555 1_555
H1_8 C3_8 1_555 1_555
C5_8 C6_8 1_555 1_555
C6_8 C2_8 1_555 1_555
H3_8 C5_8 1_555 1_555
H4_8 C6_8 1_555 1_555
C17_8 C16_8 1_555 1_555
O4_8 Cu1_9 1_555 1_555
C18_8 C17_8 1_555 1_555
H13_7 C16_8 1_555 1_555
H14_7 C18_8 1_555 1_555
H15_7 C18_8 1_555 1_555
H16_8 C18_8 1_555 1_555
C17_8 O4_8 1_555 1_555
C8_8 C7_8 1_555 1_555
O2_8 Cu1_10 1_555 1_555
C9_8 C8_8 1_555 1_555
H5_7 C7_8 1_555 1_555
H6_7 C9_8 1_555 1_555
H7_7 C9_8 1_555 1_555
H8_8 C9_8 1_555 1_555
C8_8 O2_8 1_555 1_555
C8_9 C7_9 1_555 1_555
O2_9 Cu1_11 1_555 1_555
C9_9 C8_9 1_555 1_555
H5_8 C7_9 1_555 1_555
H6_8 C9_9 1_555 1_555
H7_8 C9_9 1_555 1_555
H8_9 C9_9 1_555 1_555
C8_9 O2_9 1_555 1_555
C17_9 C16_9 1_555 1_555
O4_9 Cu1_12 1_555 1_555
C18_9 C17_9 1_555 1_555
H13_8 C16_9 1_555 1_555
H14_8 C18_9 1_555 1_555
H15_8 C18_9 1_555 1_555
H16_9 C18_9 1_555 1_555
C17_9 O4_9 1_555 1_555
H9_9 C12_9 1_555 1_555
C15_9 C11_9 1_555 1_555
H11_9 C14_9 1_555 1_555
H12_9 C15_9 1_555 1_555
C14_9 C15_9 1_555 1_555
C5_9 C6_9 1_555 1_555
C6_9 C2_9 1_555 1_555
H3_9 C5_9 1_555 1_555
H4_9 C6_9 1_555 1_555
H1_9 C3_9 1_555 1_555

#END
