
###############################################################################
#
# This file contains modified crystal structure data generated from the
# MOF subset of the Cambridge Structural Database (CSD) v543 
# hosted by the Cambridge Crystallographic Data Centre (CCDC).
#
# This work is licensed under the Creative Commons
# Attribution-NonCommercial-ShareAlike 4.0 International License.
# To view a copy of this license, visit
# http://creativecommons.org/licenses/by-nc-sa/4.0/
# or send a letter to
# Creative Commons, PO Box 1866, Mountain View, CA 94042, USA.
#
# CIF created using the CSD Python API on 29 September 2022
# The structure has been converted into the P1 space group
# The structure has a 3D framework
# The original CSD entry FUWYAY is in the orthorhombic crystal system
# The framework has been calculated to contain at least 10.0% void space
# The void calculation uses a probe of radius 1.32A, grid spacing 0.4
# H atom positions have been added when not included in the experimental data
# Generated hydrogen atom positions removed from atoms on special positions
#
###############################################################################

data_FUWYAY
_chemical_formula_moiety         '(C4 H30 Mn10 N20 O22 S4)n'
_symmetry_cell_setting           triclinic
_symmetry_space_group_name_H-M   'P 1'
_symmetry_Int_Tables_number      1
_space_group_name_Hall           'P 1'
loop_
_symmetry_equiv_pos_site_id
_symmetry_equiv_pos_as_xyz
1 x,y,z
_cell_length_a                   9.2400(18)
_cell_length_b                   6.9128(14)
_cell_length_c                   16.095(3)
_cell_angle_alpha                90
_cell_angle_beta                 90
_cell_angle_gamma                90
_cell_volume                     1028.06
loop_
_atom_site_label
_atom_site_type_symbol
_atom_site_fract_x
_atom_site_fract_y
_atom_site_fract_z
Mn8 Mn 0.0000 0.0000 0.0000
Mn8_2 Mn 0.0000 0.0000 1.0000
Mn6 Mn 0.0000 0.5000 0.0000
Mn8_3 Mn 0.0000 1.0000 0.0000
Mn6_2 Mn 0.0000 0.5000 1.0000
Mn8_4 Mn 0.0000 1.0000 1.0000
O8 O 0.0308(4) 0.2500 0.8046(2)
Mn8_5 Mn 1.0000 0.0000 0.0000
Mn4 Mn 0.80221(7) 0.2500 0.83479(4)
Mn8_6 Mn 1.0000 0.0000 1.0000
Mn6_3 Mn 1.0000 0.5000 0.0000
Mn8_7 Mn 1.0000 1.0000 0.0000
Mn2 Mn 0.5000 0.5000 0.5000
S1 S 0.66319(11) 0.2500 0.64474(7)
O1 O 0.6677(3) 0.4234(4) 0.59208(16)
O2 O 0.5308(4) 0.2500 0.6954(2)
O3 O 0.7893(4) 0.2500 0.7008(2)
O4 O 0.8738(3) 0.2500 0.96502(19)
O5 O 0.5778(5) 0.2500 0.8736(3)
N1 N 0.8813(3) 0.6566(4) 0.89981(16)
N2 N 0.8012(3) 0.5890(4) 0.83702(18)
N3 N 0.6628(10) 0.7500 0.7328(5)
H1 H 0.6333 0.8577 0.7121
H2 H 0.6352 0.6423 0.7112
C1 C 0.7530(7) 0.7500 0.7996(4)
H4 H 0.504(3) 0.2500 0.844(3)
H5 H 0.554(5) 0.2500 0.9232(10)
Mn3 Mn 0.30221(7) 0.2500 0.66521(4)
Mn6_4 Mn 1.0000 0.5000 1.0000
Mn7 Mn 0.5000 0.0000 0.5000
Mn8_8 Mn 1.0000 1.0000 1.0000
O6 O 0.6677(3) 0.0766(4) 0.59208(16)
O7 O 0.3323(3) 0.5766(4) 0.40792(16)
O9 O 0.3738(3) 0.2500 0.53498(19)
O10 O 0.6262(3) 0.7500 0.46502(19)
N4 N 0.8813(3) 0.8434(4) 0.89981(16)
N5 N 0.3813(3) 0.6566(4) 0.60019(16)
N6 N 0.6187(3) 0.3434(4) 0.39981(16)
N7 N 0.8012(3) 0.9110(4) 0.83702(18)
Mn7_2 Mn 0.5000 1.0000 0.5000
Mn3_2 Mn 0.19779(7) 0.7500 0.16521(4)
O9_2 O 0.1262(3) 0.7500 0.03498(19)
N5_2 N 0.1187(3) 0.3434(4) 0.10019(16)
O7_2 O 0.1677(3) 0.4234(4) 0.90792(16)
N8 N 0.6988(3) 0.0890(4) 0.33702(18)
Mn1 Mn 0.69779(7) 0.7500 0.33479(4)
S1_2 S 0.83681(11) 0.7500 0.14474(7)
O1_2 O 0.8323(3) 0.5766(4) 0.09208(16)
O2_2 O 0.9692(4) 0.7500 0.1954(2)
O3_2 O 0.7107(4) 0.7500 0.2008(2)
O5_2 O 0.9222(5) 0.7500 0.3736(3)
N2_2 N 0.6988(3) 0.4110(4) 0.33702(18)
N3_2 N 0.8372(10) 0.2500 0.2328(5)
H1_2 H 0.8667 0.1423 0.2121
H2_2 H 0.8648 0.3577 0.2112
C1_2 C 0.7470(7) 0.2500 0.2996(4)
H4_2 H 0.996(3) 0.7500 0.344(3)
H5_2 H 0.946(5) 0.7500 0.4232(10)
O6_2 O 0.8323(3) 0.9234(4) 0.09208(16)
O8_2 O 0.4692(4) 0.7500 0.3046(2)
N4_2 N 0.6187(3) 0.1566(4) 0.39981(16)
N6_2 N 0.1187(3) 0.1566(4) 0.10019(16)
S1_3 S 0.16319(11) 0.2500 0.85526(7)
O1_3 O 0.1677(3) 0.0766(4) 0.90792(16)
O3_3 O 0.2893(4) 0.2500 0.7992(2)
O5_3 O 0.0778(5) 0.2500 0.6264(3)
H4_3 H 0.004(3) 0.2500 0.656(3)
H5_3 H 0.054(5) 0.2500 0.5768(10)
N8_2 N 0.3012(3) 0.5890(4) 0.66298(18)
N1_2 N 0.3813(3) 0.8434(4) 0.60019(16)
N2_3 N 0.3012(3) 0.9110(4) 0.66298(18)
N3_3 N 0.1628(10) 0.7500 0.7672(5)
H1_3 H 0.1333 0.6423 0.7879
H2_3 H 0.1352 0.8577 0.7888
C1_3 C 0.2530(7) 0.7500 0.7004(4)
N2_4 N 0.1988(3) 0.0890(4) 0.16298(18)
N3_4 N 0.3372(10) 0.2500 0.2672(5)
H1_4 H 0.3667 0.3577 0.2879
H2_4 H 0.3648 0.1423 0.2888
C1_4 C 0.2470(7) 0.2500 0.2004(4)
N7_2 N 0.1988(3) 0.4110(4) 0.16298(18)
S1_4 S 0.33681(11) 0.7500 0.35526(7)
O1_4 O 0.3323(3) 0.9234(4) 0.40792(16)
O3_4 O 0.2107(4) 0.7500 0.2992(2)
O5_4 O 0.4222(5) 0.7500 0.1264(3)
H4_4 H 0.496(3) 0.7500 0.156(3)
H5_4 H 0.446(5) 0.7500 0.0768(10)
H1_5 H 0.3667 0.1423 0.2879
H2_5 H 0.3648 0.3577 0.2888
H1_6 H 0.1333 0.8577 0.7879
H2_6 H 0.1352 0.6423 0.7888
H1_7 H 0.8667 0.3577 0.2121
H2_7 H 0.8648 0.1423 0.2112
H1_8 H 0.6333 0.6423 0.7121
H2_8 H 0.6352 0.8577 0.7112
loop_
_geom_bond_atom_site_label_1
_geom_bond_atom_site_label_2
_geom_bond_site_symmetry_1
_geom_bond_site_symmetry_2
Mn4 O3 1_555 1_555
Mn2 O1 1_555 1_555
S1 O1 1_555 1_555
O2 S1 1_555 1_555
O3 S1 1_555 1_555
O4 Mn4 1_555 1_555
O5 Mn4 1_555 1_555
N1 N2 1_555 1_555
N2 Mn4 1_555 1_555
N3 H1 1_555 1_555
H2 N3 1_555 1_555
C1 N2 1_555 1_555
H4 O5 1_555 1_555
H5 O5 1_555 1_555
Mn3 O2 1_555 1_555
Mn8_6 O4 1_555 1_555
Mn6_4 O4 1_555 1_555
Mn7 O6 1_555 1_555
Mn8_8 N4 1_555 1_555
O6 S1 1_555 1_555
O7 Mn2 1_555 1_555
O9 Mn2 1_555 1_555
O10 Mn2 1_555 1_555
N4 N1 1_555 1_555
N5 Mn2 1_555 1_555
N6 Mn2 1_555 1_555
N7 C1 1_555 1_555
N1 Mn6_4 1_555 1_555
N3 C1 1_555 1_555
Mn3 O9 1_555 1_555
Mn7 O9 1_555 1_555
N4 N7 1_555 1_555
O9_2 Mn6 1_555 1_555
N5_2 Mn6 1_555 1_555
Mn3_2 O9_2 1_555 1_555
Mn8_3 O9_2 1_555 1_555
O7_2 Mn6_2 1_555 1_555
Mn1 O3_2 1_555 1_555
Mn6_3 O1_2 1_555 1_555
S1_2 O1_2 1_555 1_555
O2_2 S1_2 1_555 1_555
O3_2 S1_2 1_555 1_555
O10 Mn1 1_555 1_555
O5_2 Mn1 1_555 1_555
N6 N2_2 1_555 1_555
N2_2 Mn1 1_555 1_555
N3_2 H1_2 1_555 1_555
H2_2 N3_2 1_555 1_555
C1_2 N2_2 1_555 1_555
H4_2 O5_2 1_555 1_555
H5_2 O5_2 1_555 1_555
Mn7_2 O10 1_555 1_555
Mn8_7 O6_2 1_555 1_555
Mn7 N4_2 1_555 1_555
O6_2 S1_2 1_555 1_555
O8_2 Mn1 1_555 1_555
N4_2 N6 1_555 1_555
N8 C1_2 1_555 1_555
N3_2 C1_2 1_555 1_555
N4_2 N8 1_555 1_555
N6_2 Mn8 1_555 1_555
Mn3 O3_3 1_555 1_555
Mn8_2 O1_3 1_555 1_555
S1_3 O1_3 1_555 1_555
O8 S1_3 1_555 1_555
O3_3 S1_3 1_555 1_555
O5_3 Mn3 1_555 1_555
H4_3 O5_3 1_555 1_555
H5_3 O5_3 1_555 1_555
O7_2 S1_3 1_555 1_555
N8_2 Mn3 1_555 1_555
N1_2 N2_3 1_555 1_555
N3_3 H1_3 1_555 1_555
H2_3 N3_3 1_555 1_555
C1_3 N2_3 1_555 1_555
N5 N1_2 1_555 1_555
N8_2 C1_3 1_555 1_555
N1_2 Mn7_2 1_555 1_555
N3_3 C1_3 1_555 1_555
N5 N8_2 1_555 1_555
N6_2 N2_4 1_555 1_555
N3_4 H1_4 1_555 1_555
H2_4 N3_4 1_555 1_555
C1_4 N2_4 1_555 1_555
Mn3_2 N7_2 1_555 1_555
N5_2 N6_2 1_555 1_555
N7_2 C1_4 1_555 1_555
N3_4 C1_4 1_555 1_555
N5_2 N7_2 1_555 1_555
Mn3_2 O3_4 1_555 1_555
Mn7_2 O1_4 1_555 1_555
S1_4 O1_4 1_555 1_555
O8_2 S1_4 1_555 1_555
O3_4 S1_4 1_555 1_555
O5_4 Mn3_2 1_555 1_555
H4_4 O5_4 1_555 1_555
H5_4 O5_4 1_555 1_555
O7 S1_4 1_555 1_555
N3_4 H1_5 1_555 1_555
H2_5 N3_4 1_555 1_555
N3_3 H1_6 1_555 1_555
H2_6 N3_3 1_555 1_555
N3_2 H1_7 1_555 1_555
H2_7 N3_2 1_555 1_555
N3 H1_8 1_555 1_555
H2_8 N3 1_555 1_555

#END
