
###############################################################################
#
# This file contains modified crystal structure data generated from the
# MOF subset of the Cambridge Structural Database (CSD) v543 
# hosted by the Cambridge Crystallographic Data Centre (CCDC).
#
# This work is licensed under the Creative Commons
# Attribution-NonCommercial-ShareAlike 4.0 International License.
# To view a copy of this license, visit
# http://creativecommons.org/licenses/by-nc-sa/4.0/
# or send a letter to
# Creative Commons, PO Box 1866, Mountain View, CA 94042, USA.
#
# CIF created using the CSD Python API on 29 September 2022
# The structure has been converted into the P1 space group
# The structure has a 3D framework
# The original CSD entry FUXCUZ is in the triclinic crystal system
# The framework has been calculated to contain at least 10.0% void space
# The void calculation uses a probe of radius 1.32A, grid spacing 0.4
# H atom positions have been added when not included in the experimental data
#
###############################################################################

data_FUXCUZ
_chemical_formula_moiety         '(C32 H16 Ce4 O16)n'
_symmetry_cell_setting           triclinic
_symmetry_space_group_name_H-M   'P 1'
_symmetry_Int_Tables_number      1
_space_group_name_Hall           'P 1'
loop_
_symmetry_equiv_pos_site_id
_symmetry_equiv_pos_as_xyz
1 x,y,z
_cell_length_a                   8.16902(31)
_cell_length_b                   11.55156(34)
_cell_length_c                   13.98690(52)
_cell_angle_alpha                113.0986(26)
_cell_angle_beta                 102.3311(39)
_cell_angle_gamma                90.4878(47)
_cell_volume                     1179.78
loop_
_atom_site_label
_atom_site_type_symbol
_atom_site_fract_x
_atom_site_fract_y
_atom_site_fract_z
_atom_site_U_iso_or_equiv
_atom_site_thermal_displace_type
Ce12 Ce 0.17482(99) 0.04721(54) 0.11475(57) 0.0142 Uiso
O12 O 0.1147(32) 0.0193(20) 0.2686(15) 0.0051 Uiso
C18 C 0.002433 0.033882 0.412864 0.0243 Uiso
O7 O 0.1337(31) 0.8873(17) 0.7163(22) 0.0051 Uiso
C9 C 0.007087 0.941053 0.68763 0.0243 Uiso
C12 C 0.108005 0.914408 0.518908 0.0243 Uiso
C19 C 0.119834 0.958046 0.442605 0.0243 Uiso
Ce7 Ce 0.33965(90) 0.92724(49) 0.87803(62) 0.0142 Uiso
O21 O 0.1009(46) 0.9469(51) 0.9152(39) 0.0051 Uiso
H6 H 0.223809 0.933344 0.40328 . .
H7 H 0.183234 0.840078 0.527297 . .
Ce9 Ce 0.66035(90) 0.07276(49) 0.12197(62) 0.0142 Uiso
O2 O 0.8991(46) 0.0531(51) 0.0848(39) 0.0051 Uiso
O3 O 0.7060(32) 0.2522(26) 0.0784(16) 0.0051 Uiso
C2 C 0.744316 0.393407 0.006901 0.0243 Uiso
C5 C 0.733969 0.645632 0.024617 0.0243 Uiso
C6 C 0.697242 0.612354 0.104723 0.0243 Uiso
C7 C 0.702234 0.487833 0.095914 0.0243 Uiso
C8 C 0.727986 0.777380 0.033188 0.0243 Uiso
O5 O 0.6778(33) 0.8740(25) 0.0999(19) 0.0051 Uiso
O9 O 0.5907(28) 0.2764(30) 0.2757(17) 0.0051 Uiso
O10 O 0.3038(29) 0.2143(21) 0.2584(24) 0.0051 Uiso
C13 C 0.452301 0.264720 0.298528 0.0243 Uiso
C14 C 0.485120 0.384433 0.405539 0.0243 Uiso
C15 C 0.62396 0.477031 0.439113 0.0243 Uiso
C16 C 0.375522 0.409266 0.476220 0.0243 Uiso
O13 O 0.4093(28) 0.7236(30) 0.7243(17) 0.0051 Uiso
O14 O 0.6962(29) 0.7857(21) 0.7416(24) 0.0051 Uiso
C21 C 0.547699 0.735280 0.701472 0.0243 Uiso
C22 C 0.514880 0.615567 0.594461 0.0243 Uiso
C23 C 0.37604 0.522969 0.560887 0.0243 Uiso
C24 C 0.624478 0.590734 0.523780 0.0243 Uiso
O15 O 0.3978(39) 0.0342(46) 0.0600(34) 0.0051 Uiso
Ce15 Ce 0.82518(99) 0.95279(54) 0.88525(57) 0.0142 Uiso
O25 O 0.2053(31) 0.2276(20) 0.0451(17) 0.0051 Uiso
O27 O 0.8663(31) 0.1127(17) 0.2837(22) 0.0051 Uiso
H1 H 0.664631 0.684194 0.174218 . .
H2 H 0.673236 0.463489 0.158632 . .
H5 H 0.727555 0.458931 0.399137 . .
H10 H 0.283558 0.332203 0.462416 . .
H11 H 0.272445 0.541069 0.600863 . .
H12 H 0.716442 0.667797 0.537584 . .
O4 O 0.7905(31) 0.1756(21) 0.9173(20) 0.0051 Uiso
C1 C 0.750509 0.261646 0.998523 0.0243 Uiso
C3 C 0.781347 0.426684 0.92689 0.0243 Uiso
C4 C 0.776145 0.551311 0.93561 0.0243 Uiso
O6 O 0.7947(31) 0.7724(20) 0.9549(17) 0.0051 Uiso
C11 C 0.880166 0.041954 0.557395 0.0243 Uiso
C17 C 0.992913 0.058947 0.31237 0.0243 Uiso
C20 C 0.891995 0.085592 0.481092 0.0243 Uiso
O23 O 0.3222(33) 0.1260(25) 0.9001(19) 0.0051 Uiso
H3 H 0.814362 0.354886 0.857534 . .
H4 H 0.805032 0.575664 0.87287 . .
H8 H 0.776191 0.0666558 0.59672 . .
H9 H 0.816766 0.159922 0.472703 . .
O18 O 0.2095(31) 0.8244(21) 0.0827(20) 0.0051 Uiso
C25 C 0.249491 0.738354 0.001477 0.0243 Uiso
C27 C 0.218653 0.573316 0.07311 0.0243 Uiso
C28 C 0.223855 0.448689 0.06439 0.0243 Uiso
H14 H 0.185638 0.645114 0.142466 . .
H15 H 0.194968 0.424336 0.12713 . .
O1 O 0.6022(39) 0.9658(46) 0.9400(34) 0.0051 Uiso
O8 O 0.8853(32) 0.9807(20) 0.7314(15) 0.0051 Uiso
C10 C 0.997567 0.966118 0.587136 0.0243 Uiso
O17 O 0.2940(32) 0.7478(26) 0.9216(16) 0.0051 Uiso
C26 C 0.255684 0.606593 0.993099 0.0243 Uiso
C29 C 0.266031 0.354368 0.975383 0.0243 Uiso
C30 C 0.302758 0.387646 0.895277 0.0243 Uiso
C31 C 0.297766 0.512167 0.904086 0.0243 Uiso
C32 C 0.272014 0.222620 0.966812 0.0243 Uiso
H13 H 0.335369 0.315806 0.825782 . .
H16 H 0.326764 0.536511 0.841368 . .
loop_
_geom_bond_atom_site_label_1
_geom_bond_atom_site_label_2
_geom_bond_site_symmetry_1
_geom_bond_site_symmetry_2
Ce12 O12 1_555 1_555
O7 C9 1_555 1_555
C19 C12 1_555 1_555
Ce7 O7 1_555 1_555
Ce7 O21 1_555 1_555
C19 H6 1_555 1_555
C12 H7 1_555 1_555
O2 Ce9 1_555 1_555
O3 Ce9 1_555 1_555
C6 C5 1_555 1_555
C7 C2 1_555 1_555
C8 C5 1_555 1_555
O5 C8 1_555 1_555
O9 Ce9 1_555 1_555
O10 C13 1_555 1_555
C13 O9 1_555 1_555
C14 C13 1_555 1_555
C15 C14 1_555 1_555
C16 C14 1_555 1_555
O13 C21 1_555 1_555
O14 C21 1_555 1_555
C21 C22 1_555 1_555
C22 C23 1_555 1_555
C23 C16 1_555 1_555
C24 C15 1_555 1_555
Ce12 O10 1_555 1_555
O15 Ce9 1_555 1_555
Ce7 O13 1_555 1_555
Ce15 O14 1_555 1_555
O25 Ce12 1_555 1_555
O27 Ce9 1_555 1_555
C6 C7 1_555 1_555
C22 C24 1_555 1_555
Ce12 O15 1_555 1_555
C6 H1 1_555 1_555
C7 H2 1_555 1_555
C15 H5 1_555 1_555
C16 H10 1_555 1_555
C23 H11 1_555 1_555
C24 H12 1_555 1_555
C4 C3 1_555 1_555
O27 C17 1_555 1_555
C20 C11 1_555 1_555
Ce15 O6 1_555 1_555
O4 C1 1_555 1_555
C3 H3 1_555 1_555
C4 H4 1_555 1_555
C11 H8 1_555 1_555
C20 H9 1_555 1_555
C28 C27 1_555 1_555
O18 C25 1_555 1_555
C27 H14 1_555 1_555
C28 H15 1_555 1_555
Ce15 O1 1_555 1_555
O1 Ce7 1_555 1_555
O8 Ce15 1_555 1_555
O17 Ce7 1_555 1_555
C30 C29 1_555 1_555
C31 C26 1_555 1_555
C32 C29 1_555 1_555
O23 C32 1_555 1_555
C30 C31 1_555 1_555
C30 H13 1_555 1_555
C31 H16 1_555 1_555

#END
