
###############################################################################
#
# This file contains modified crystal structure data generated from the
# MOF subset of the Cambridge Structural Database (CSD) v543 
# hosted by the Cambridge Crystallographic Data Centre (CCDC).
#
# This work is licensed under the Creative Commons
# Attribution-NonCommercial-ShareAlike 4.0 International License.
# To view a copy of this license, visit
# http://creativecommons.org/licenses/by-nc-sa/4.0/
# or send a letter to
# Creative Commons, PO Box 1866, Mountain View, CA 94042, USA.
#
# CIF created using the CSD Python API on 29 September 2022
# The structure has been converted into the P1 space group
# The structure has a 3D framework
# The original CSD entry FUXXIH is in the monoclinic crystal system
# The original CSD entry FUXXIH is in a Sohncke space group
# The framework has been calculated to contain at least 10.0% void space
# The void calculation uses a probe of radius 1.32A, grid spacing 0.4
# H atom positions have been added when not included in the experimental data
#
###############################################################################

data_FUXXIH
_chemical_formula_moiety         '(C140 H144 N4 Ni12 O63)n'
_symmetry_cell_setting           triclinic
_symmetry_space_group_name_H-M   'P 1'
_symmetry_Int_Tables_number      1
_space_group_name_Hall           'P 1'
loop_
_symmetry_equiv_pos_site_id
_symmetry_equiv_pos_as_xyz
1 x,y,z
_cell_length_a                   24.274(4)
_cell_length_b                   25.634(4)
_cell_length_c                   11.0898(15)
_cell_angle_alpha                90
_cell_angle_beta                 114.924(10)
_cell_angle_gamma                90
_cell_volume                     6257.85
loop_
_atom_site_label
_atom_site_type_symbol
_atom_site_fract_x
_atom_site_fract_y
_atom_site_fract_z
C51 C 0.0231(5) 0.7123(4) 0.0511(11)
O21 O 0.1824(3) 0.4963(3) 0.2017(7)
C52 C 0.0567(5) 0.7573(4) 0.1259(11)
C53 C 0.0744(5) 0.6221(4) 0.0316(11)
C54 C 0.0211(5) 0.7933(4) 0.1650(11)
C55 C 0.0886(5) 0.6541(4) 0.2518(10)
H46 H 0.0856 0.6797 0.3084
C56 C 0.1150(6) 0.8458(5) 0.2687(11)
C57 C 0.0604(5) 0.6616(4) 0.1056(11)
C58 C 0.1355(5) 0.5704(4) 0.2213(8)
C59 C 0.1192(5) 0.6086(4) 0.3009(10)
H47 H 0.1306 0.6012 0.3903
C60 C 0.1083(5) 0.5821(4) 0.0821(10)
H48 H 0.1155 0.5594 0.0248
O22 O 0.1909(4) 0.5148(4) 0.4026(7)
C61 C 0.0602(5) 0.8381(5) 0.2357(10)
H49 H 0.0403 0.8646 0.2590
C62 C 0.1445(6) 0.8087(5) 0.2290(11)
H50 H 0.1854 0.8127 0.2479
C63 C 0.1149(5) 0.7681(4) 0.1650(10)
H51 H 0.1375 0.7433 0.1438
C64 C 0.1754(6) 0.5239(5) 0.2768(12)
O23 O 0.1042(4) 0.9255(3) 0.3762(8)
C65 C 0.1357(6) 0.9009(5) 0.3498(12)
O24 O 0.2056(3) 0.9007(3) 0.3643(7)
Ni9 Ni 0.24421(9) 0.46172(6) 0.51766(17)
Ni10 Ni 0.25579(9) 0.96172(6) 0.48234(17)
Ni12 Ni 0.25092(12) 0.43908(11) 0.2502(2)
H4 H 0.0195 0.7891 0.8516
H44 H 0.0578 0.6257 0.9396
Ni1 Ni 0.74394(10) 0.42056(6) 0.02015(17)
H3 H 0.9422 0.6257 0.0604
O9 O 0.7783(5) 0.3600(4) 0.1591(8)
H24 H 0.7503 0.3383 0.1495
H25 H 0.8067 0.3448 0.1471
O12 O 0.6781(5) 0.4463(5) 0.0872(10)
H34 H 0.6587 0.4207 0.0990
H35 H 0.6531 0.4656 0.0266
H45 H 0.9805 0.7891 0.1484
O36 O 0.8147(4) 0.4705(3) 0.1516(7)
Ni2 Ni 0.75579(9) 0.46172(6) 0.48234(17)
Ni3 Ni 0.74908(12) 0.43908(11) 0.7498(2)
O1 O 0.6992(4) 0.3773(3) 0.7137(7)
C1 C 0.5278(5) 0.0869(4) 0.6589(10)
H1 H 0.4869 0.0936 0.6353
C2 C 0.9769(5) 0.7123(4) 0.9489(11)
C3 C 0.5251(4) 0.1740(4) 0.5498(10)
C4 C 0.5543(5) 0.1225(4) 0.6173(11)
O2 O 0.8176(3) 0.4963(3) 0.7983(7)
C5 C 0.9433(5) 0.7573(4) 0.8741(11)
C6 C 0.5709(5) 0.2571(5) 0.5316(12)
H2 H 0.5511 0.2529 0.4399
C7 C 0.9256(5) 0.6221(4) 0.9684(11)
C8 C 0.5631(5) 0.2224(5) 0.6105(11)
C9 C 0.9789(5) 0.7933(4) 0.8350(11)
O3 O 0.6885(5) 0.3606(4) 0.9109(8)
C10 C 0.9114(5) 0.6541(4) 0.7482(10)
H5 H 0.9144 0.6797 0.6916
C11 C 0.6346(6) 0.3056(5) 0.7268(11)
C12 C 0.8850(6) 0.8458(5) 0.7313(11)
C13 C 0.9396(5) 0.6616(4) 0.8944(11)
C14 C 0.8645(5) 0.5704(4) 0.7787(8)
C15 C 0.5873(5) 0.2315(5) 0.7439(11)
H6 H 0.5772 0.2093 0.7978
C16 C 0.6273(6) 0.2738(5) 0.8036(12)
H7 H 0.6470 0.2776 0.8955
C17 C 0.8808(5) 0.6086(4) 0.6991(10)
H8 H 0.8694 0.6012 0.6097
C18 C 0.6120(6) 0.0294(5) 0.7607(12)
C19 C 0.8917(5) 0.5821(4) 0.9179(10)
H9 H 0.8845 0.5594 0.9752
O4 O 0.8091(4) 0.5148(4) 0.5974(7)
C20 C 0.6108(6) 0.3027(5) 0.5874(11)
H10 H 0.6192 0.3271 0.5355
O5 O 0.7100(3) 0.4701(3) 0.8712(6)
H11 H 0.7233 0.5055 0.8987
H12 H 0.6660 0.4688 0.8284
C21 C 0.9398(5) 0.8381(5) 0.7643(10)
H13 H 0.9597 0.8646 0.7410
C22 C 0.5482(5) 0.0406(4) 0.7314(10)
H14 H 0.5241 0.0195 0.7581
C23 C 0.6735(6) 0.3515(5) 0.7845(12)
C24 C 0.8555(6) 0.8087(5) 0.7710(11)
H15 H 0.8146 0.8127 0.7521
O6 O 0.6935(3) 0.4701(3) 0.5684(8)
H16 H 0.6832 0.5063 0.5745
H17 H 0.6568 0.4498 0.5227
O7 O 0.8021(3) 0.3991(3) 0.9305(7)
H18 H 0.8037 0.3617 0.9189
H19 H 0.8428 0.4132 0.9763
C25 C 0.6483(6) 0.0643(5) 0.7240(12)
H20 H 0.6887 0.0560 0.7465
C26 C 0.6224(4) 0.1146(5) 0.6492(10)
H21 H 0.6451 0.1382 0.6250
O8 O 0.7219(4) 0.5090(4) 0.3216(8)
H22 H 0.6932 0.5271 0.3248
H23 H 0.7085 0.4908 0.2509
N1 N 0.8174(4) 0.4286(4) 0.4322(9)
O10 O 0.8275(4) 0.3314(4) 0.6713(8)
C27 C 0.8174(5) 0.3666(5) 0.6111(10)
O11 O 0.7845(4) 0.3998(4) 0.6389(8)
C28 C 0.8784(4) 0.4541(3) 0.4831(10)
H26 H 0.8772 0.4833 0.4265
H27 H 0.8894 0.4672 0.5724
C29 C 0.8851(5) 0.7681(4) 0.8350(10)
H28 H 0.8625 0.7433 0.8562
C30 C 0.9243(5) 0.4151(4) 0.4841(12)
H29 H 0.9653 0.4251 0.5439
H30 H 0.9221 0.4090 0.3958
C31 C 0.8336(5) 0.3764(5) 0.4943(11)
H31 H 0.8118 0.3505 0.4257
C32 C 0.9021(5) 0.3681(4) 0.5360(12)
H32 H 0.9235 0.3659 0.6320
H33 H 0.9089 0.3361 0.4977
C33 C 0.8246(6) 0.5239(5) 0.7232(12)
O15 O 0.8958(4) 0.9255(3) 0.6238(8)
C35 C 0.8643(6) 0.9009(5) 0.6502(12)
O16 O 0.7944(3) 0.9007(3) 0.6357(7)
O17 O 0.3008(4) 0.3773(3) 0.2863(7)
C36 C 0.4722(5) 0.0869(4) 0.3411(10)
H36 H 0.5131 0.0936 0.3647
C37 C 0.4749(4) 0.1740(4) 0.4502(10)
C38 C 0.4457(5) 0.1225(4) 0.3827(11)
C39 C 0.4291(5) 0.2571(5) 0.4684(12)
H37 H 0.4489 0.2529 0.5601
C40 C 0.4369(5) 0.2224(5) 0.3895(11)
O18 O 0.3115(5) 0.3606(4) 0.0891(8)
C41 C 0.3654(6) 0.3056(5) 0.2732(11)
C42 C 0.4127(5) 0.2315(5) 0.2561(11)
H38 H 0.4228 0.2093 0.2022
C43 C 0.3727(6) 0.2738(5) 0.1964(12)
H39 H 0.3530 0.2776 0.1045
C44 C 0.3880(6) 0.0294(5) 0.2393(12)
C45 C 0.3892(6) 0.3027(5) 0.4126(11)
H40 H 0.3808 0.3271 0.4645
C46 C 0.4518(5) 0.0406(4) 0.2686(10)
H41 H 0.4759 0.0195 0.2419
C47 C 0.3265(6) 0.3515(5) 0.2155(12)
C48 C 0.3517(6) 0.0643(5) 0.2760(12)
H42 H 0.3113 0.0560 0.2535
C49 C 0.3776(4) 0.1146(5) 0.3508(10)
H43 H 0.3549 0.1382 0.3750
O25 O 0.2900(3) 0.4701(3) 0.1288(6)
H52 H 0.2767 0.5055 0.1013
H53 H 0.3340 0.4688 0.1716
O26 O 0.3065(3) 0.4701(3) 0.4316(8)
H54 H 0.3168 0.5063 0.4255
H55 H 0.3432 0.4498 0.4773
O27 O 0.1979(3) 0.3991(3) 0.0695(7)
H56 H 0.1963 0.3617 0.0811
H57 H 0.1572 0.4132 0.0237
O28 O 0.2781(4) 0.5090(4) 0.6784(8)
H58 H 0.3068 0.5271 0.6752
H59 H 0.2915 0.4908 0.7491
N2 N 0.1826(4) 0.4286(4) 0.5678(9)
O30 O 0.1725(4) 0.3314(4) 0.3287(8)
C66 C 0.1826(5) 0.3666(5) 0.3889(10)
O31 O 0.2155(4) 0.3998(4) 0.3611(8)
C67 C 0.1216(4) 0.4541(3) 0.5169(10)
H62 H 0.1228 0.4833 0.5735
H63 H 0.1106 0.4672 0.4276
C68 C 0.0757(5) 0.4151(4) 0.5159(12)
H64 H 0.0347 0.4251 0.4561
H65 H 0.0779 0.4090 0.6042
C69 C 0.1664(5) 0.3764(5) 0.5057(11)
H66 H 0.1882 0.3505 0.5743
C70 C 0.0979(5) 0.3681(4) 0.4640(12)
H67 H 0.0765 0.3659 0.3680
H68 H 0.0911 0.3361 0.5023
Ni11 Ni 0.74421(9) 0.96172(6) 0.51766(17)
O37 O 0.2944(3) 0.4007(3) 0.6357(7)
O38 O 0.7056(3) 0.4007(3) 0.3643(7)
H71 H 0.800283 0.425079 0.331816
H72 H 0.199717 0.425079 0.668184
Ni4 Ni 0.25606(10) 0.42056(6) 0.97985(17)
O29 O 0.2217(5) 0.3600(4) 0.8409(8)
H60 H 0.2497 0.3383 0.8505
H61 H 0.1933 0.3448 0.8529
O32 O 0.3219(5) 0.4463(5) 0.9128(10)
H69 H 0.3413 0.4207 0.9010
H70 H 0.3469 0.4656 0.9734
O35 O 0.1853(4) 0.4705(3) 0.8484(7)
O13 O 0.6214(3) 0.9600(3) 0.9037(8)
C34 C 0.6461(6) 0.9870(5) 0.8402(11)
O14 O 0.6853(4) 0.9705(3) 0.8484(7)
O19 O 0.3786(3) 0.9600(3) 0.0963(8)
C50 C 0.3539(6) 0.9870(5) 0.1598(11)
O20 O 0.3147(4) 0.9705(3) 0.1516(7)
Ni7 Ni 0.24394(10) 0.92056(6) 0.02015(17)
Ni8 Ni 0.75606(10) 0.92056(6) 0.97985(17)
H3_2 H 0.4422 0.1257 0.0604
C51_2 C 0.5231(5) 0.2123(4) 0.0511(11)
C52_2 C 0.5567(5) 0.2573(4) 0.1259(11)
C53_2 C 0.5744(5) 0.1221(4) 0.0316(11)
C54_2 C 0.5211(5) 0.2933(4) 0.1650(11)
H45_2 H 0.4805 0.2891 0.1484
C55_2 C 0.5886(5) 0.1541(4) 0.2518(10)
H46_2 H 0.5856 0.1797 0.3084
C56_2 C 0.6150(6) 0.3458(5) 0.2687(11)
C57_2 C 0.5604(5) 0.1616(4) 0.1056(11)
C58_2 C 0.6355(5) 0.0704(4) 0.2213(8)
C59_2 C 0.6192(5) 0.1086(4) 0.3009(10)
H47_2 H 0.6306 0.1012 0.3903
C60_2 C 0.6083(5) 0.0821(4) 0.0821(10)
H48_2 H 0.6155 0.0594 0.0248
O22_2 O 0.6909(4) 0.0148(4) 0.4026(7)
C61_2 C 0.5602(5) 0.3381(5) 0.2357(10)
H49_2 H 0.5403 0.3646 0.2590
C62_2 C 0.6445(6) 0.3087(5) 0.2290(11)
H50_2 H 0.6854 0.3127 0.2479
C63_2 C 0.6149(5) 0.2681(4) 0.1650(10)
H51_2 H 0.6375 0.2433 0.1438
C64_2 C 0.6754(6) 0.0239(5) 0.2768(12)
O23_2 O 0.6042(4) 0.4255(3) 0.3762(8)
C65_2 C 0.6357(6) 0.4009(5) 0.3498(12)
C2_2 C 0.4769(5) 0.2123(4) 0.9489(11)
C5_2 C 0.4433(5) 0.2573(4) 0.8741(11)
C7_2 C 0.4256(5) 0.1221(4) 0.9684(11)
C9_2 C 0.4789(5) 0.2933(4) 0.8350(11)
H4_2 H 0.5195 0.2891 0.8516
C10_2 C 0.4114(5) 0.1541(4) 0.7482(10)
H5_2 H 0.4144 0.1797 0.6916
C12_2 C 0.3850(6) 0.3458(5) 0.7313(11)
C13_2 C 0.4396(5) 0.1616(4) 0.8944(11)
C14_2 C 0.3645(5) 0.0704(4) 0.7787(8)
C17_2 C 0.3808(5) 0.1086(4) 0.6991(10)
H8_2 H 0.3694 0.1012 0.6097
C19_2 C 0.3917(5) 0.0821(4) 0.9179(10)
H9_2 H 0.3845 0.0594 0.9752
O4_2 O 0.3091(4) 0.0148(4) 0.5974(7)
H11_2 H 0.2233 0.0055 0.8987
C21_2 C 0.4398(5) 0.3381(5) 0.7643(10)
H13_2 H 0.4597 0.3646 0.7410
C24_2 C 0.3555(6) 0.3087(5) 0.7710(11)
H15_2 H 0.3146 0.3127 0.7521
H16_2 H 0.1832 0.0063 0.5745
O8_2 O 0.2219(4) 0.0090(4) 0.3216(8)
H22_2 H 0.1932 0.0271 0.3248
C29_2 C 0.3851(5) 0.2681(4) 0.8350(10)
H28_2 H 0.3625 0.2433 0.8562
C33_2 C 0.3246(6) 0.0239(5) 0.7232(12)
O15_2 O 0.3958(4) 0.4255(3) 0.6238(8)
C35_2 C 0.3643(6) 0.4009(5) 0.6502(12)
H44_2 H 0.5578 0.1257 0.9396
O9_2 O 0.2783(5) 0.8600(4) 0.1591(8)
H24_2 H 0.2503 0.8383 0.1495
H25_2 H 0.3067 0.8448 0.1471
O12_2 O 0.1781(5) 0.9463(5) 0.0872(10)
H34_2 H 0.1587 0.9207 0.0990
H35_2 H 0.1531 0.9656 0.0266
O21_2 O 0.6824(3) 0.9963(3) 0.2017(7)
Ni12_2 Ni 0.75092(12) 0.93908(11) 0.2502(2)
Ni3_2 Ni 0.24908(12) 0.93908(11) 0.7498(2)
O1_2 O 0.1992(4) 0.8773(3) 0.7137(7)
C1_2 C 0.0278(5) 0.5869(4) 0.6589(10)
C3_2 C 0.0251(4) 0.6740(4) 0.5498(10)
C4_2 C 0.0543(5) 0.6225(4) 0.6173(11)
O2_2 O 0.3176(3) 0.9963(3) 0.7983(7)
C6_2 C 0.0709(5) 0.7571(5) 0.5316(12)
H2_2 H 0.0511 0.7529 0.4399
C8_2 C 0.0631(5) 0.7224(5) 0.6105(11)
O3_2 O 0.1885(5) 0.8606(4) 0.9109(8)
C11_2 C 0.1346(6) 0.8056(5) 0.7268(11)
C15_2 C 0.0873(5) 0.7315(5) 0.7439(11)
H6_2 H 0.0772 0.7093 0.7978
C16_2 C 0.1273(6) 0.7738(5) 0.8036(12)
H7_2 H 0.1470 0.7776 0.8955
C18_2 C 0.1120(6) 0.5294(5) 0.7607(12)
C20_2 C 0.1108(6) 0.8027(5) 0.5874(11)
H10_2 H 0.1192 0.8271 0.5355
O5_2 O 0.2100(3) 0.9701(3) 0.8712(6)
H12_2 H 0.1660 0.9688 0.8284
C22_2 C 0.0482(5) 0.5406(4) 0.7314(10)
H14_2 H 0.0241 0.5195 0.7581
C23_2 C 0.1735(6) 0.8515(5) 0.7845(12)
O6_2 O 0.1935(3) 0.9701(3) 0.5684(8)
H17_2 H 0.1568 0.9498 0.5227
O7_2 O 0.3021(3) 0.8991(3) 0.9305(7)
H18_2 H 0.3037 0.8617 0.9189
H19_2 H 0.3428 0.9132 0.9763
C25_2 C 0.1483(6) 0.5643(5) 0.7240(12)
H20_2 H 0.1887 0.5560 0.7465
C26_2 C 0.1224(4) 0.6146(5) 0.6492(10)
H21_2 H 0.1451 0.6382 0.6250
H23_2 H 0.2085 0.9908 0.2509
N1_2 N 0.3174(4) 0.9286(4) 0.4322(9)
O10_2 O 0.3275(4) 0.8314(4) 0.6713(8)
C27_2 C 0.3174(5) 0.8666(5) 0.6111(10)
O11_2 O 0.2845(4) 0.8998(4) 0.6389(8)
C28_2 C 0.3784(4) 0.9541(3) 0.4831(10)
H26_2 H 0.3772 0.9833 0.4265
H27_2 H 0.3894 0.9672 0.5724
C30_2 C 0.4243(5) 0.9151(4) 0.4841(12)
H29_2 H 0.4653 0.9251 0.5439
H30_2 H 0.4221 0.9090 0.3958
C31_2 C 0.3336(5) 0.8764(5) 0.4943(11)
H31_2 H 0.3118 0.8505 0.4257
C32_2 C 0.4021(5) 0.8681(4) 0.5360(12)
H32_2 H 0.4235 0.8659 0.6320
H33_2 H 0.4089 0.8361 0.4977
O13_2 O 0.1214(3) 0.4600(3) 0.9037(8)
C34_2 C 0.1461(6) 0.4870(5) 0.8402(11)
H36_2 H 0.0131 0.5936 0.3647
H71_2 H 0.300283 0.925079 0.331816
H52_2 H 0.7767 0.0055 0.1013
H54_2 H 0.8168 0.0063 0.4255
O28_2 O 0.7781(4) 0.0090(4) 0.6784(8)
H58_2 H 0.8068 0.0271 0.6752
H1_2 H 0.9869 0.5936 0.6353
O17_2 O 0.8008(4) 0.8773(3) 0.2863(7)
C36_2 C 0.9722(5) 0.5869(4) 0.3411(10)
C37_2 C 0.9749(4) 0.6740(4) 0.4502(10)
C38_2 C 0.9457(5) 0.6225(4) 0.3827(11)
C39_2 C 0.9291(5) 0.7571(5) 0.4684(12)
H37_2 H 0.9489 0.7529 0.5601
C40_2 C 0.9369(5) 0.7224(5) 0.3895(11)
O18_2 O 0.8115(5) 0.8606(4) 0.0891(8)
C41_2 C 0.8654(6) 0.8056(5) 0.2732(11)
C42_2 C 0.9127(5) 0.7315(5) 0.2561(11)
H38_2 H 0.9228 0.7093 0.2022
C43_2 C 0.8727(6) 0.7738(5) 0.1964(12)
H39_2 H 0.8530 0.7776 0.1045
C44_2 C 0.8880(6) 0.5294(5) 0.2393(12)
C45_2 C 0.8892(6) 0.8027(5) 0.4126(11)
H40_2 H 0.8808 0.8271 0.4645
C46_2 C 0.9518(5) 0.5406(4) 0.2686(10)
H41_2 H 0.9759 0.5195 0.2419
C47_2 C 0.8265(6) 0.8515(5) 0.2155(12)
C48_2 C 0.8517(6) 0.5643(5) 0.2760(12)
H42_2 H 0.8113 0.5560 0.2535
C49_2 C 0.8776(4) 0.6146(5) 0.3508(10)
H43_2 H 0.8549 0.6382 0.3750
O19_2 O 0.8786(3) 0.4600(3) 0.0963(8)
C50_2 C 0.8539(6) 0.4870(5) 0.1598(11)
O25_2 O 0.7900(3) 0.9701(3) 0.1288(6)
H53_2 H 0.8340 0.9688 0.1716
O26_2 O 0.8065(3) 0.9701(3) 0.4316(8)
H55_2 H 0.8432 0.9498 0.4773
O27_2 O 0.6979(3) 0.8991(3) 0.0695(7)
H56_2 H 0.6963 0.8617 0.0811
H57_2 H 0.6572 0.9132 0.0237
H59_2 H 0.7915 0.9908 0.7491
N2_2 N 0.6826(4) 0.9286(4) 0.5678(9)
O30_2 O 0.6725(4) 0.8314(4) 0.3287(8)
C66_2 C 0.6826(5) 0.8666(5) 0.3889(10)
O31_2 O 0.7155(4) 0.8998(4) 0.3611(8)
C67_2 C 0.6216(4) 0.9541(3) 0.5169(10)
H62_2 H 0.6228 0.9833 0.5735
H63_2 H 0.6106 0.9672 0.4276
C68_2 C 0.5757(5) 0.9151(4) 0.5159(12)
H64_2 H 0.5347 0.9251 0.4561
H65_2 H 0.5779 0.9090 0.6042
C69_2 C 0.6664(5) 0.8764(5) 0.5057(11)
H66_2 H 0.6882 0.8505 0.5743
C70_2 C 0.5979(5) 0.8681(4) 0.4640(12)
H67_2 H 0.5765 0.8659 0.3680
H68_2 H 0.5911 0.8361 0.5023
H72_2 H 0.699717 0.925079 0.668184
O29_2 O 0.7217(5) 0.8600(4) 0.8409(8)
H60_2 H 0.7497 0.8383 0.8505
H61_2 H 0.6933 0.8448 0.8529
O32_2 O 0.8219(5) 0.9463(5) 0.9128(10)
H69_2 H 0.8413 0.9207 0.9010
H70_2 H 0.8469 0.9656 0.9734
loop_
_geom_bond_atom_site_label_1
_geom_bond_atom_site_label_2
_geom_bond_site_symmetry_1
_geom_bond_site_symmetry_2
O21 C64 1_555 1_555
C52 C51 1_555 1_555
C54 C52 1_555 1_555
C55 H46 1_555 1_555
C56 C61 1_555 1_555
C57 C51 1_555 1_555
C58 C59 1_555 1_555
C59 C55 1_555 1_555
H47 C59 1_555 1_555
C60 C53 1_555 1_555
H48 C60 1_555 1_555
O22 C64 1_555 1_555
C61 C54 1_555 1_555
H49 C61 1_555 1_555
C62 C56 1_555 1_555
H50 C62 1_555 1_555
C63 C52 1_555 1_555
H51 C63 1_555 1_555
C64 C58 1_555 1_555
O23 C65 1_555 1_555
C65 C56 1_555 1_555
O24 C65 1_555 1_555
Ni9 O22 1_555 1_555
Ni10 O24 1_555 1_555
Ni12 O21 1_555 1_555
C53 C57 1_555 1_555
C55 C57 1_555 1_555
C58 C60 1_555 1_555
C62 C63 1_555 1_555
O9 Ni1 1_555 1_555
H24 O9 1_555 1_555
H25 O9 1_555 1_555
O12 Ni1 1_555 1_555
H34 O12 1_555 1_555
H35 O12 1_555 1_555
O36 Ni1 1_555 1_555
Ni2 O4 1_555 1_555
Ni3 O1 1_555 1_555
O1 C23 1_555 1_555
C1 H1 1_555 1_555
C2 C5 1_555 1_555
C3 C4 1_555 1_555
C4 C1 1_555 1_555
O2 Ni3 1_555 1_555
C5 C9 1_555 1_555
C6 H2 1_555 1_555
C8 C3 1_555 1_555
O3 C23 1_555 1_555
C10 H5 1_555 1_555
C11 C16 1_555 1_555
C12 C21 1_555 1_555
C13 C2 1_555 1_555
C14 C17 1_555 1_555
C15 C8 1_555 1_555
H6 C15 1_555 1_555
C16 C15 1_555 1_555
H7 C16 1_555 1_555
C17 C10 1_555 1_555
H8 C17 1_555 1_555
C18 C22 1_555 1_555
C19 C7 1_555 1_555
H9 C19 1_555 1_555
O4 C33 1_555 1_555
C20 C6 1_555 1_555
H10 C20 1_555 1_555
H11 O5 1_555 1_555
H12 O5 1_555 1_555
C21 C9 1_555 1_555
H13 C21 1_555 1_555
C22 C1 1_555 1_555
H14 C22 1_555 1_555
C23 C11 1_555 1_555
C24 C12 1_555 1_555
H15 C24 1_555 1_555
O6 Ni2 1_555 1_555
H16 O6 1_555 1_555
H17 O6 1_555 1_555
H18 O7 1_555 1_555
H19 O7 1_555 1_555
C25 C18 1_555 1_555
H20 C25 1_555 1_555
C26 C4 1_555 1_555
H21 C26 1_555 1_555
O8 Ni2 1_555 1_555
H22 O8 1_555 1_555
H23 O8 1_555 1_555
N1 Ni2 1_555 1_555
O10 C27 1_555 1_555
C27 O11 1_555 1_555
O11 Ni2 1_555 1_555
C28 N1 1_555 1_555
H26 C28 1_555 1_555
H27 C28 1_555 1_555
C29 C5 1_555 1_555
H28 C29 1_555 1_555
C30 C28 1_555 1_555
H29 C30 1_555 1_555
H30 C30 1_555 1_555
C31 N1 1_555 1_555
H31 C31 1_555 1_555
C32 C30 1_555 1_555
H32 C32 1_555 1_555
H33 C32 1_555 1_555
C33 O2 1_555 1_555
O15 C35 1_555 1_555
C35 C12 1_555 1_555
O16 C35 1_555 1_555
O17 C47 1_555 1_555
C36 H36 1_555 1_555
C37 C3 1_555 1_555
C38 C36 1_555 1_555
C39 H37 1_555 1_555
C40 C37 1_555 1_555
O18 C47 1_555 1_555
C41 C43 1_555 1_555
C42 C40 1_555 1_555
H38 C42 1_555 1_555
C43 C42 1_555 1_555
H39 C43 1_555 1_555
C44 C46 1_555 1_555
C45 C39 1_555 1_555
H40 C45 1_555 1_555
C46 C36 1_555 1_555
H41 C46 1_555 1_555
C47 C41 1_555 1_555
C48 C44 1_555 1_555
H42 C48 1_555 1_555
C49 C38 1_555 1_555
H43 C49 1_555 1_555
Ni9 O26 1_555 1_555
Ni12 O17 1_555 1_555
H52 O25 1_555 1_555
H53 O25 1_555 1_555
O26 Ni12 1_555 1_555
H54 O26 1_555 1_555
H55 O26 1_555 1_555
H56 O27 1_555 1_555
H57 O27 1_555 1_555
O28 Ni9 1_555 1_555
H58 O28 1_555 1_555
H59 O28 1_555 1_555
N2 Ni9 1_555 1_555
O30 C66 1_555 1_555
C66 O31 1_555 1_555
O31 Ni9 1_555 1_555
C67 N2 1_555 1_555
H62 C67 1_555 1_555
H63 C67 1_555 1_555
C68 C67 1_555 1_555
H64 C68 1_555 1_555
H65 C68 1_555 1_555
C69 N2 1_555 1_555
H66 C69 1_555 1_555
C70 C68 1_555 1_555
H67 C70 1_555 1_555
H68 C70 1_555 1_555
Ni11 O16 1_555 1_555
O37 Ni9 1_555 1_555
O38 Ni2 1_555 1_555
Ni3 O5 1_555 1_555
Ni3 O6 1_555 1_555
Ni3 O7 1_555 1_555
Ni3 O11 1_555 1_555
C6 C8 1_555 1_555
C7 C13 1_555 1_555
C10 C13 1_555 1_555
C11 C20 1_555 1_555
C14 C19 1_555 1_555
C14 C33 1_555 1_555
C24 C29 1_555 1_555
C25 C26 1_555 1_555
C27 C31 1_555 1_555
C31 C32 1_555 1_555
C37 C38 1_555 1_555
C39 C40 1_555 1_555
C41 C45 1_555 1_555
C48 C49 1_555 1_555
Ni12 O25 1_555 1_555
Ni12 O27 1_555 1_555
Ni12 O31 1_555 1_555
C66 C69 1_555 1_555
C69 C70 1_555 1_555
N1 H71 1_555 1_555
N2 H72 1_555 1_555
O29 Ni4 1_555 1_555
H60 O29 1_555 1_555
H61 O29 1_555 1_555
O32 Ni4 1_555 1_555
H69 O32 1_555 1_555
H70 O32 1_555 1_555
O35 Ni4 1_555 1_555
O13 C34 1_555 1_555
O14 C34 1_555 1_555
O19 C50 1_555 1_555
O20 C50 1_555 1_555
Ni7 O20 1_555 1_555
Ni8 O14 1_555 1_555
C52_2 C51_2 1_555 1_555
C54_2 C52_2 1_555 1_555
H45_2 C54_2 1_555 1_555
C55_2 H46_2 1_555 1_555
C56_2 C61_2 1_555 1_555
C57_2 C51_2 1_555 1_555
C58_2 C59_2 1_555 1_555
C59_2 C55_2 1_555 1_555
H47_2 C59_2 1_555 1_555
C60_2 C53_2 1_555 1_555
H48_2 C60_2 1_555 1_555
O22_2 C64_2 1_555 1_555
C61_2 C54_2 1_555 1_555
H49_2 C61_2 1_555 1_555
C62_2 C56_2 1_555 1_555
H50_2 C62_2 1_555 1_555
C63_2 C52_2 1_555 1_555
H51_2 C63_2 1_555 1_555
C64_2 C58_2 1_555 1_555
O23_2 C65_2 1_555 1_555
C65_2 C56_2 1_555 1_555
O38 C65_2 1_555 1_555
C53_2 C57_2 1_555 1_555
C55_2 C57_2 1_555 1_555
C58_2 C60_2 1_555 1_555
C62_2 C63_2 1_555 1_555
C2_2 C5_2 1_555 1_555
C5_2 C9_2 1_555 1_555
C9_2 H4_2 1_555 1_555
C10_2 H5_2 1_555 1_555
C12_2 C21_2 1_555 1_555
C13_2 C2_2 1_555 1_555
C14_2 C17_2 1_555 1_555
C17_2 C10_2 1_555 1_555
H8_2 C17_2 1_555 1_555
C19_2 C7_2 1_555 1_555
H9_2 C19_2 1_555 1_555
O4_2 C33_2 1_555 1_555
C21_2 C9_2 1_555 1_555
H13_2 C21_2 1_555 1_555
C24_2 C12_2 1_555 1_555
H15_2 C24_2 1_555 1_555
H22_2 O8_2 1_555 1_555
C29_2 C5_2 1_555 1_555
H28_2 C29_2 1_555 1_555
O15_2 C35_2 1_555 1_555
C35_2 C12_2 1_555 1_555
O37 C35_2 1_555 1_555
C7_2 C13_2 1_555 1_555
C10_2 C13_2 1_555 1_555
C14_2 C19_2 1_555 1_555
C14_2 C33_2 1_555 1_555
C24_2 C29_2 1_555 1_555
O9_2 Ni7 1_555 1_555
H24_2 O9_2 1_555 1_555
H25_2 O9_2 1_555 1_555
O12_2 Ni7 1_555 1_555
H34_2 O12_2 1_555 1_555
H35_2 O12_2 1_555 1_555
Ni12_2 O21_2 1_555 1_555
Ni3_2 O1_2 1_555 1_555
O1_2 C23_2 1_555 1_555
C3_2 C4_2 1_555 1_555
C4_2 C1_2 1_555 1_555
O2_2 Ni3_2 1_555 1_555
C6_2 H2_2 1_555 1_555
C8_2 C3_2 1_555 1_555
O3_2 C23_2 1_555 1_555
C11_2 C16_2 1_555 1_555
C15_2 C8_2 1_555 1_555
H6_2 C15_2 1_555 1_555
C16_2 C15_2 1_555 1_555
H7_2 C16_2 1_555 1_555
C18_2 C22_2 1_555 1_555
C20_2 C6_2 1_555 1_555
H10_2 C20_2 1_555 1_555
H12_2 O5_2 1_555 1_555
C22_2 C1_2 1_555 1_555
H14_2 C22_2 1_555 1_555
C23_2 C11_2 1_555 1_555
O6_2 Ni10 1_555 1_555
H17_2 O6_2 1_555 1_555
H18_2 O7_2 1_555 1_555
H19_2 O7_2 1_555 1_555
C25_2 C18_2 1_555 1_555
H20_2 C25_2 1_555 1_555
C26_2 C4_2 1_555 1_555
H21_2 C26_2 1_555 1_555
N1_2 Ni10 1_555 1_555
O10_2 C27_2 1_555 1_555
C27_2 O11_2 1_555 1_555
O11_2 Ni10 1_555 1_555
C28_2 N1_2 1_555 1_555
H26_2 C28_2 1_555 1_555
H27_2 C28_2 1_555 1_555
C30_2 C28_2 1_555 1_555
H29_2 C30_2 1_555 1_555
H30_2 C30_2 1_555 1_555
C31_2 N1_2 1_555 1_555
H31_2 C31_2 1_555 1_555
C32_2 C30_2 1_555 1_555
H32_2 C32_2 1_555 1_555
H33_2 C32_2 1_555 1_555
O13_2 C34_2 1_555 1_555
C34_2 C18_2 1_555 1_555
O35 C34_2 1_555 1_555
Ni3_2 O5_2 1_555 1_555
Ni3_2 O6_2 1_555 1_555
Ni3_2 O7_2 1_555 1_555
Ni3_2 O11_2 1_555 1_555
C6_2 C8_2 1_555 1_555
C11_2 C20_2 1_555 1_555
C25_2 C26_2 1_555 1_555
C27_2 C31_2 1_555 1_555
C31_2 C32_2 1_555 1_555
N1_2 H71_2 1_555 1_555
H58_2 O28_2 1_555 1_555
O17_2 C47_2 1_555 1_555
C38_2 C36_2 1_555 1_555
C39_2 H37_2 1_555 1_555
C40_2 C37_2 1_555 1_555
O18_2 C47_2 1_555 1_555
C41_2 C43_2 1_555 1_555
C42_2 C40_2 1_555 1_555
H38_2 C42_2 1_555 1_555
C43_2 C42_2 1_555 1_555
H39_2 C43_2 1_555 1_555
C44_2 C46_2 1_555 1_555
C45_2 C39_2 1_555 1_555
H40_2 C45_2 1_555 1_555
C46_2 C36_2 1_555 1_555
H41_2 C46_2 1_555 1_555
C47_2 C41_2 1_555 1_555
C48_2 C44_2 1_555 1_555
H42_2 C48_2 1_555 1_555
C49_2 C38_2 1_555 1_555
H43_2 C49_2 1_555 1_555
O19_2 C50_2 1_555 1_555
C50_2 C44_2 1_555 1_555
O36 C50_2 1_555 1_555
Ni11 O26_2 1_555 1_555
Ni12_2 O17_2 1_555 1_555
H53_2 O25_2 1_555 1_555
O26_2 Ni12_2 1_555 1_555
H55_2 O26_2 1_555 1_555
H56_2 O27_2 1_555 1_555
H57_2 O27_2 1_555 1_555
N2_2 Ni11 1_555 1_555
O30_2 C66_2 1_555 1_555
C66_2 O31_2 1_555 1_555
O31_2 Ni11 1_555 1_555
C67_2 N2_2 1_555 1_555
H62_2 C67_2 1_555 1_555
H63_2 C67_2 1_555 1_555
C68_2 C67_2 1_555 1_555
H64_2 C68_2 1_555 1_555
H65_2 C68_2 1_555 1_555
C69_2 N2_2 1_555 1_555
H66_2 C69_2 1_555 1_555
C70_2 C68_2 1_555 1_555
H67_2 C70_2 1_555 1_555
H68_2 C70_2 1_555 1_555
C37_2 C38_2 1_555 1_555
C39_2 C40_2 1_555 1_555
C41_2 C45_2 1_555 1_555
C48_2 C49_2 1_555 1_555
Ni12_2 O25_2 1_555 1_555
Ni12_2 O27_2 1_555 1_555
Ni12_2 O31_2 1_555 1_555
C66_2 C69_2 1_555 1_555
C69_2 C70_2 1_555 1_555
N2_2 H72_2 1_555 1_555
O29_2 Ni8 1_555 1_555
H60_2 O29_2 1_555 1_555
H61_2 O29_2 1_555 1_555
O32_2 Ni8 1_555 1_555
H69_2 O32_2 1_555 1_555
H70_2 O32_2 1_555 1_555

#END
