
###############################################################################
#
# This file contains modified crystal structure data generated from the
# MOF subset of the Cambridge Structural Database (CSD) v543 
# hosted by the Cambridge Crystallographic Data Centre (CCDC).
#
# This work is licensed under the Creative Commons
# Attribution-NonCommercial-ShareAlike 4.0 International License.
# To view a copy of this license, visit
# http://creativecommons.org/licenses/by-nc-sa/4.0/
# or send a letter to
# Creative Commons, PO Box 1866, Mountain View, CA 94042, USA.
#
# CIF created using the CSD Python API on 29 September 2022
# The structure has been converted into the P1 space group
# The structure has a 3D framework
# The original CSD entry FUYCIN is in the cubic crystal system
# The original CSD entry FUYCIN is in a Sohncke space group
# The framework has been calculated to contain at least 10.0% void space
# The void calculation uses a probe of radius 1.32A, grid spacing 0.4
# The framework is charged, counterions have been retained in the structure
# H atom positions have been added when not included in the experimental data
#
###############################################################################

data_FUYCIN
_chemical_formula_moiety         '(C120 H216 N24 O24 V4 12+)n'
_symmetry_cell_setting           triclinic
_symmetry_space_group_name_H-M   'P 1'
_symmetry_Int_Tables_number      1
_space_group_name_Hall           'P 1'
loop_
_symmetry_equiv_pos_site_id
_symmetry_equiv_pos_as_xyz
1 x,y,z
_cell_length_a                   17.7658
_cell_length_b                   17.7658
_cell_length_c                   17.7658
_cell_angle_alpha                90
_cell_angle_beta                 90
_cell_angle_gamma                90
_cell_volume                     5607.31
loop_
_atom_site_label
_atom_site_type_symbol
_atom_site_fract_x
_atom_site_fract_y
_atom_site_fract_z
_atom_site_U_iso_or_equiv
_atom_site_thermal_displace_type
C1 C 0.46457 0.75577 0.65706 0.0000 Uiso
C2 C 0.55779 0.65880 0.65908 0.0000 Uiso
C3 C 0.49499 0.69276 0.69060 0.0000 Uiso
O1 O 0.40730 0.79113 0.68152 0.0000 Uiso
H1 H 0.46858 0.66892 0.74382 0.0000 Uiso
V1 V 0.87500 0.62500 0.37500 0.0000 Uiso
C4 C 0.49423 0.78543 0.59294 0.0000 Uiso
C5 C 0.59120 0.69221 0.59092 0.0000 Uiso
C6 C 0.55724 0.75501 0.55940 0.0000 Uiso
H2 H 0.58108 0.78142 0.50618 0.0000 Uiso
O2 O 0.45887 0.84270 0.56848 0.0000 Uiso
C7 C 0.59294 0.49423 0.78543 0.0000 Uiso
C8 C 0.59092 0.59120 0.69221 0.0000 Uiso
C9 C 0.55940 0.55724 0.75501 0.0000 Uiso
H3 H 0.50618 0.58108 0.78142 0.0000 Uiso
O3 O 0.56848 0.45887 0.84270 0.0000 Uiso
C10 C 0.65706 0.46457 0.75577 0.0000 Uiso
C11 C 0.65908 0.55779 0.65880 0.0000 Uiso
C12 C 0.69060 0.49499 0.69276 0.0000 Uiso
H4 H 0.74382 0.46858 0.66892 0.0000 Uiso
O4 O 0.68152 0.40730 0.79113 0.0000 Uiso
C13 C 0.75577 0.65706 0.46457 0.0000 Uiso
C14 C 0.65880 0.65908 0.55779 0.0000 Uiso
C15 C 0.69276 0.69060 0.49499 0.0000 Uiso
H5 H 0.66892 0.74382 0.46858 0.0000 Uiso
O5 O 0.79113 0.68152 0.40730 0.0000 Uiso
C16 C 0.78543 0.59294 0.49423 0.0000 Uiso
C17 C 0.69221 0.59092 0.59120 0.0000 Uiso
C18 C 0.75501 0.55940 0.55724 0.0000 Uiso
H6 H 0.78142 0.50618 0.58108 0.0000 Uiso
O6 O 0.84270 0.56848 0.45887 0.0000 Uiso
O7 O 0.90730 0.70887 0.31848 0.0000 Uiso
O8 O 0.81848 0.59270 0.29113 0.0000 Uiso
O9 O 0.95887 0.65730 0.43152 0.0000 Uiso
O10 O 0.93152 0.54113 0.34270 0.0000 Uiso
V2 V 0.62500 0.37500 0.87500 0.0000 Uiso
V3 V 0.37500 0.87500 0.62500 0.0000 Uiso
C2_2 C 0.94221 0.34120 0.15908 0.0000 Uiso
C5_2 C 0.90880 0.30779 0.09092 0.0000 Uiso
C6_2 C 0.94276 0.24499 0.05940 0.0000 Uiso
H2_2 H 0.91892 0.21858 0.00618 0.0000 Uiso
C7_2 C 0.90706 0.50577 0.28543 0.0000 Uiso
C8_2 C 0.90908 0.40880 0.19221 0.0000 Uiso
C9_2 C 0.94060 0.44276 0.25501 0.0000 Uiso
H3_2 H 0.99382 0.41892 0.28142 0.0000 Uiso
C10_2 C 0.84294 0.53543 0.25577 0.0000 Uiso
C11_2 C 0.84092 0.44221 0.15880 0.0000 Uiso
C12_2 C 0.80940 0.50501 0.19276 0.0000 Uiso
H4_2 H 0.75618 0.53142 0.16892 0.0000 Uiso
C14_2 C 0.84120 0.34092 0.05779 0.0000 Uiso
C17_2 C 0.80779 0.40908 0.09120 0.0000 Uiso
C18_2 C 0.74499 0.44060 0.05724 0.0000 Uiso
H6_2 H 0.71858 0.49382 0.08108 0.0000 Uiso
C13_2 C 0.74423 0.34294 0.96457 0.0000 Uiso
C15_2 C 0.80724 0.30940 0.99499 0.0000 Uiso
H5_2 H 0.83108 0.25618 0.96858 0.0000 Uiso
O5_2 O 0.70887 0.31848 0.90730 0.0000 Uiso
C16_2 C 0.71457 0.40706 0.99423 0.0000 Uiso
O6_2 O 0.65730 0.43152 0.95887 0.0000 Uiso
O7_2 O 0.59270 0.29113 0.81848 0.0000 Uiso
O9_2 O 0.54113 0.34270 0.93152 0.0000 Uiso
C1_2 C 0.53543 0.25577 0.84294 0.0000 Uiso
C2_3 C 0.44221 0.15880 0.84092 0.0000 Uiso
C3_2 C 0.50501 0.19276 0.80940 0.0000 Uiso
H1_2 H 0.53142 0.16892 0.75618 0.0000 Uiso
C4_2 C 0.50577 0.28543 0.90706 0.0000 Uiso
C5_3 C 0.40880 0.19221 0.90908 0.0000 Uiso
C6_3 C 0.44276 0.25501 0.94060 0.0000 Uiso
H2_3 H 0.41892 0.28142 0.99382 0.0000 Uiso
C8_3 C 0.40908 0.09120 0.80779 0.0000 Uiso
C9_3 C 0.44060 0.05724 0.74499 0.0000 Uiso
H3_3 H 0.49382 0.08108 0.71858 0.0000 Uiso
C11_3 C 0.34092 0.05779 0.84120 0.0000 Uiso
C14_3 C 0.34120 0.15908 0.94221 0.0000 Uiso
C17_3 C 0.30779 0.09092 0.90880 0.0000 Uiso
C18_3 C 0.24499 0.05940 0.94276 0.0000 Uiso
H6_3 H 0.21858 0.00618 0.91892 0.0000 Uiso
C7_3 C 0.40706 0.99423 0.71457 0.0000 Uiso
O3_2 O 0.43152 0.95887 0.65730 0.0000 Uiso
C10_3 C 0.34294 0.96457 0.74423 0.0000 Uiso
C12_3 C 0.30940 0.99499 0.80724 0.0000 Uiso
H4_3 H 0.25618 0.96858 0.83108 0.0000 Uiso
O4_2 O 0.31848 0.90730 0.70887 0.0000 Uiso
C2_4 C 0.05779 0.84120 0.34092 0.0000 Uiso
C5_4 C 0.09120 0.80779 0.40908 0.0000 Uiso
C6_4 C 0.05724 0.74499 0.44060 0.0000 Uiso
H2_4 H 0.08108 0.71858 0.49382 0.0000 Uiso
C8_4 C 0.09092 0.90880 0.30779 0.0000 Uiso
C9_4 C 0.05940 0.94276 0.24499 0.0000 Uiso
H3_4 H 0.00618 0.91892 0.21858 0.0000 Uiso
C11_4 C 0.15908 0.94221 0.34120 0.0000 Uiso
C13_3 C 0.25577 0.84294 0.53543 0.0000 Uiso
C14_4 C 0.15880 0.84092 0.44221 0.0000 Uiso
C15_3 C 0.19276 0.80940 0.50501 0.0000 Uiso
H5_3 H 0.16892 0.75618 0.53142 0.0000 Uiso
O5_3 O 0.29113 0.81848 0.59270 0.0000 Uiso
C16_3 C 0.28543 0.90706 0.50577 0.0000 Uiso
C17_4 C 0.19221 0.90908 0.40880 0.0000 Uiso
C18_4 C 0.25501 0.94060 0.44276 0.0000 Uiso
H6_4 H 0.28142 0.99382 0.41892 0.0000 Uiso
O6_3 O 0.34270 0.93152 0.54113 0.0000 Uiso
C1_3 C 0.96457 0.74423 0.34294 0.0000 Uiso
C3_3 C 0.99499 0.80724 0.30940 0.0000 Uiso
H1_3 H 0.96858 0.83108 0.25618 0.0000 Uiso
C4_3 C 0.99423 0.71457 0.40706 0.0000 Uiso
C1_4 C 0.03543 0.24423 0.15706 0.0000 Uiso
C3_4 C 0.00501 0.30724 0.19060 0.0000 Uiso
O1_2 O 0.09270 0.20887 0.18152 0.0000 Uiso
H1_4 H 0.03142 0.33108 0.24382 0.0000 Uiso
C4_4 C 0.00577 0.21457 0.09294 0.0000 Uiso
O2_2 O 0.04113 0.15730 0.06848 0.0000 Uiso
V3_2 V 0.12500 0.12500 0.12500 0.0000 Uiso
C13_4 C 0.24423 0.15706 0.03543 0.0000 Uiso
C15_4 C 0.30724 0.19060 0.00501 0.0000 Uiso
H5_4 H 0.33108 0.24382 0.03142 0.0000 Uiso
O5_4 O 0.20887 0.18152 0.09270 0.0000 Uiso
C16_4 C 0.21457 0.09294 0.00577 0.0000 Uiso
O6_4 O 0.15730 0.06848 0.04113 0.0000 Uiso
O8_2 O 0.18152 0.09270 0.20887 0.0000 Uiso
O10_2 O 0.06848 0.04113 0.15730 0.0000 Uiso
C7_4 C 0.09294 0.00577 0.21457 0.0000 Uiso
C10_4 C 0.15706 0.03543 0.24423 0.0000 Uiso
C12_4 C 0.19060 0.00501 0.30724 0.0000 Uiso
H4_4 H 0.24382 0.03142 0.33108 0.0000 Uiso
H11 H 0.00817 0.09201 0.00093 0.0000 Uiso
N1 N 0.09782 0.12828 0.92593 0.0000 Uiso
C19 C 0.09508 0.19328 0.87124 0.0000 Uiso
C20 C 0.01908 0.13716 0.95666 0.0000 Uiso
H7 H 0.10844 0.07522 0.89470 0.0000 Uiso
H8 H 0.05518 0.17903 0.82305 0.0000 Uiso
H9 H 0.15386 0.20406 0.84786 0.0000 Uiso
H10 H 0.07414 0.24584 0.90152 0.0000 Uiso
H13 H 0.01295 0.19520 0.98335 0.0000 Uiso
H14 H 0.137123 0.136815 0.966507 . .
H12 H 0.97666 0.13099 0.90891 0.0000 Uiso
N1_2 N 0.40218 0.87172 0.42593 0.0000 Uiso
C19_2 C 0.40492 0.80672 0.37124 0.0000 Uiso
C20_2 C 0.48092 0.86284 0.45666 0.0000 Uiso
H7_2 H 0.39156 0.92478 0.39470 0.0000 Uiso
H8_2 H 0.44482 0.82097 0.32305 0.0000 Uiso
H9_2 H 0.34614 0.79594 0.34786 0.0000 Uiso
H10_2 H 0.42586 0.75416 0.40152 0.0000 Uiso
H11_2 H 0.49183 0.90799 0.50093 0.0000 Uiso
H12_2 H 0.52334 0.86901 0.40891 0.0000 Uiso
H13_2 H 0.48705 0.80480 0.48335 0.0000 Uiso
H14_2 H 0.362877 0.863185 0.466507 . .
H12_3 H 0.02334 0.63099 0.59109 0.0000 Uiso
N1_3 N 0.90218 0.62828 0.57407 0.0000 Uiso
C19_3 C 0.90492 0.69328 0.62876 0.0000 Uiso
C20_3 C 0.98092 0.63716 0.54334 0.0000 Uiso
H7_3 H 0.89156 0.57522 0.60530 0.0000 Uiso
H8_3 H 0.94482 0.67903 0.67695 0.0000 Uiso
H9_3 H 0.84614 0.70406 0.65214 0.0000 Uiso
H10_3 H 0.92586 0.74584 0.59848 0.0000 Uiso
H11_3 H 0.99183 0.59201 0.49907 0.0000 Uiso
H13_3 H 0.98705 0.69520 0.51665 0.0000 Uiso
H14_3 H 0.862877 0.636815 0.533493 . .
N1_4 N 0.59782 0.37172 0.07407 0.0000 Uiso
C19_4 C 0.59508 0.30672 0.12876 0.0000 Uiso
C20_4 C 0.51908 0.36284 0.04334 0.0000 Uiso
H7_4 H 0.60844 0.42478 0.10530 0.0000 Uiso
H8_4 H 0.55518 0.32097 0.17695 0.0000 Uiso
H9_4 H 0.65386 0.29594 0.15214 0.0000 Uiso
H10_4 H 0.57414 0.25416 0.09848 0.0000 Uiso
H12_4 H 0.47666 0.36901 0.09109 0.0000 Uiso
H13_4 H 0.51295 0.30480 0.01665 0.0000 Uiso
H14_4 H 0.637123 0.363185 0.0334931 . .
H11_4 H 0.50817 0.40799 0.99907 0.0000 Uiso
H11_5 H 0.00093 0.00817 0.09201 0.0000 Uiso
N1_5 N 0.92593 0.09782 0.12828 0.0000 Uiso
C19_5 C 0.87124 0.09508 0.19328 0.0000 Uiso
C20_5 C 0.95666 0.01908 0.13716 0.0000 Uiso
H7_5 H 0.89470 0.10844 0.07522 0.0000 Uiso
H8_5 H 0.82305 0.05518 0.17903 0.0000 Uiso
H9_5 H 0.84786 0.15386 0.20406 0.0000 Uiso
H10_5 H 0.90152 0.07414 0.24584 0.0000 Uiso
H13_5 H 0.98335 0.01295 0.19520 0.0000 Uiso
H14_5 H 0.966507 0.137123 0.136815 . .
H12_5 H 0.90891 0.97666 0.13099 0.0000 Uiso
N1_6 N 0.42593 0.40218 0.87172 0.0000 Uiso
C19_6 C 0.37124 0.40492 0.80672 0.0000 Uiso
C20_6 C 0.45666 0.48092 0.86284 0.0000 Uiso
H7_6 H 0.39470 0.39156 0.92478 0.0000 Uiso
H8_6 H 0.32305 0.44482 0.82097 0.0000 Uiso
H9_6 H 0.34786 0.34614 0.79594 0.0000 Uiso
H10_6 H 0.40152 0.42586 0.75416 0.0000 Uiso
H11_6 H 0.50093 0.49183 0.90799 0.0000 Uiso
H12_6 H 0.40891 0.52334 0.86901 0.0000 Uiso
H13_6 H 0.48335 0.48705 0.80480 0.0000 Uiso
H14_6 H 0.466507 0.362877 0.863185 . .
H12_7 H 0.59109 0.02334 0.63099 0.0000 Uiso
N1_7 N 0.57407 0.90218 0.62828 0.0000 Uiso
C19_7 C 0.62876 0.90492 0.69328 0.0000 Uiso
C20_7 C 0.54334 0.98092 0.63716 0.0000 Uiso
H7_7 H 0.60530 0.89156 0.57522 0.0000 Uiso
H8_7 H 0.67695 0.94482 0.67903 0.0000 Uiso
H9_7 H 0.65214 0.84614 0.70406 0.0000 Uiso
H10_7 H 0.59848 0.92586 0.74584 0.0000 Uiso
H11_7 H 0.49907 0.99183 0.59201 0.0000 Uiso
H13_7 H 0.51665 0.98705 0.69520 0.0000 Uiso
H14_7 H 0.533493 0.862877 0.636815 . .
N1_8 N 0.07407 0.59782 0.37172 0.0000 Uiso
C19_8 C 0.12876 0.59508 0.30672 0.0000 Uiso
C20_8 C 0.04334 0.51908 0.36284 0.0000 Uiso
H7_8 H 0.10530 0.60844 0.42478 0.0000 Uiso
H8_8 H 0.17695 0.55518 0.32097 0.0000 Uiso
H9_8 H 0.15214 0.65386 0.29594 0.0000 Uiso
H10_8 H 0.09848 0.57414 0.25416 0.0000 Uiso
H12_8 H 0.09109 0.47666 0.36901 0.0000 Uiso
H13_8 H 0.01665 0.51295 0.30480 0.0000 Uiso
H14_8 H 0.0334931 0.637123 0.363185 . .
H11_8 H 0.99907 0.50817 0.40799 0.0000 Uiso
H11_9 H 0.09201 0.00093 0.00817 0.0000 Uiso
N1_9 N 0.12828 0.92593 0.09782 0.0000 Uiso
C19_9 C 0.19328 0.87124 0.09508 0.0000 Uiso
C20_9 C 0.13716 0.95666 0.01908 0.0000 Uiso
H7_9 H 0.07522 0.89470 0.10844 0.0000 Uiso
H8_9 H 0.17903 0.82305 0.05518 0.0000 Uiso
H9_9 H 0.20406 0.84786 0.15386 0.0000 Uiso
H10_9 H 0.24584 0.90152 0.07414 0.0000 Uiso
H13_9 H 0.19520 0.98335 0.01295 0.0000 Uiso
H14_9 H 0.136815 0.966507 0.137123 . .
H12_9 H 0.13099 0.90891 0.97666 0.0000 Uiso
N1_10 N 0.87172 0.42593 0.40218 0.0000 Uiso
C19_10 C 0.80672 0.37124 0.40492 0.0000 Uiso
C20_10 C 0.86284 0.45666 0.48092 0.0000 Uiso
H7_10 H 0.92478 0.39470 0.39156 0.0000 Uiso
H8_10 H 0.82097 0.32305 0.44482 0.0000 Uiso
H9_10 H 0.79594 0.34786 0.34614 0.0000 Uiso
H10_10 H 0.75416 0.40152 0.42586 0.0000 Uiso
H11_10 H 0.90799 0.50093 0.49183 0.0000 Uiso
H12_10 H 0.86901 0.40891 0.52334 0.0000 Uiso
H13_10 H 0.80480 0.48335 0.48705 0.0000 Uiso
H14_10 H 0.863185 0.466507 0.362877 . .
H12_11 H 0.63099 0.59109 0.02334 0.0000 Uiso
N1_11 N 0.62828 0.57407 0.90218 0.0000 Uiso
C19_11 C 0.69328 0.62876 0.90492 0.0000 Uiso
C20_11 C 0.63716 0.54334 0.98092 0.0000 Uiso
H7_11 H 0.57522 0.60530 0.89156 0.0000 Uiso
H8_11 H 0.67903 0.67695 0.94482 0.0000 Uiso
H9_11 H 0.70406 0.65214 0.84614 0.0000 Uiso
H10_11 H 0.74584 0.59848 0.92586 0.0000 Uiso
H11_11 H 0.59201 0.49907 0.99183 0.0000 Uiso
H13_11 H 0.69520 0.51665 0.98705 0.0000 Uiso
H14_11 H 0.636815 0.533493 0.862877 . .
N1_12 N 0.37172 0.07407 0.59782 0.0000 Uiso
C19_12 C 0.30672 0.12876 0.59508 0.0000 Uiso
C20_12 C 0.36284 0.04334 0.51908 0.0000 Uiso
H7_12 H 0.42478 0.10530 0.60844 0.0000 Uiso
H8_12 H 0.32097 0.17695 0.55518 0.0000 Uiso
H9_12 H 0.29594 0.15214 0.65386 0.0000 Uiso
H10_12 H 0.25416 0.09848 0.57414 0.0000 Uiso
H12_12 H 0.36901 0.09109 0.47666 0.0000 Uiso
H13_12 H 0.30480 0.01665 0.51295 0.0000 Uiso
H14_12 H 0.363185 0.0334931 0.637123 . .
H11_12 H 0.40799 0.99907 0.50817 0.0000 Uiso
N1_13 N 0.37828 0.84782 0.82407 0.0000 Uiso
C19_13 C 0.44328 0.84508 0.87876 0.0000 Uiso
C20_13 C 0.38716 0.76908 0.79334 0.0000 Uiso
H7_13 H 0.32522 0.85844 0.85530 0.0000 Uiso
H8_13 H 0.42903 0.80518 0.92695 0.0000 Uiso
H9_13 H 0.45406 0.90386 0.90214 0.0000 Uiso
H10_13 H 0.49584 0.82414 0.84848 0.0000 Uiso
H11_13 H 0.34201 0.75817 0.74907 0.0000 Uiso
H12_13 H 0.38099 0.72666 0.84109 0.0000 Uiso
H13_13 H 0.44520 0.76295 0.76665 0.0000 Uiso
H14_13 H 0.386815 0.887123 0.783493 . .
N1_14 N 0.12172 0.15218 0.32407 0.0000 Uiso
C19_14 C 0.05672 0.15492 0.37876 0.0000 Uiso
C20_14 C 0.11284 0.23092 0.29334 0.0000 Uiso
H7_14 H 0.17478 0.14156 0.35530 0.0000 Uiso
H8_14 H 0.07097 0.19482 0.42695 0.0000 Uiso
H9_14 H 0.04594 0.09614 0.40214 0.0000 Uiso
H10_14 H 0.00416 0.17586 0.34848 0.0000 Uiso
H11_14 H 0.15799 0.24183 0.24907 0.0000 Uiso
H12_14 H 0.11901 0.27334 0.34109 0.0000 Uiso
H13_14 H 0.05480 0.23705 0.26665 0.0000 Uiso
H14_14 H 0.113185 0.112877 0.283493 . .
N1_15 N 0.87828 0.65218 0.17593 0.0000 Uiso
C19_15 C 0.94328 0.65492 0.12124 0.0000 Uiso
C20_15 C 0.88716 0.73092 0.20666 0.0000 Uiso
H7_15 H 0.82522 0.64156 0.14470 0.0000 Uiso
H8_15 H 0.92903 0.69482 0.07305 0.0000 Uiso
H9_15 H 0.95406 0.59614 0.09786 0.0000 Uiso
H10_15 H 0.99584 0.67586 0.15152 0.0000 Uiso
H11_15 H 0.84201 0.74183 0.25093 0.0000 Uiso
H12_15 H 0.88099 0.77334 0.15891 0.0000 Uiso
H13_15 H 0.94520 0.73705 0.23335 0.0000 Uiso
H14_15 H 0.886815 0.612877 0.216507 . .
N1_16 N 0.62172 0.34782 0.67593 0.0000 Uiso
C19_16 C 0.55672 0.34508 0.62124 0.0000 Uiso
C20_16 C 0.61284 0.26908 0.70666 0.0000 Uiso
H7_16 H 0.67478 0.35844 0.64470 0.0000 Uiso
H8_16 H 0.57097 0.30518 0.57305 0.0000 Uiso
H9_16 H 0.54594 0.40386 0.59786 0.0000 Uiso
H10_16 H 0.50416 0.32414 0.65152 0.0000 Uiso
H11_16 H 0.65799 0.25817 0.75093 0.0000 Uiso
H12_16 H 0.61901 0.22666 0.65891 0.0000 Uiso
H13_16 H 0.55480 0.26295 0.73335 0.0000 Uiso
H14_16 H 0.613185 0.387123 0.716507 . .
N1_17 N 0.34782 0.67593 0.62172 0.0000 Uiso
C19_17 C 0.34508 0.62124 0.55672 0.0000 Uiso
C20_17 C 0.26908 0.70666 0.61284 0.0000 Uiso
H7_17 H 0.35844 0.64470 0.67478 0.0000 Uiso
H8_17 H 0.30518 0.57305 0.57097 0.0000 Uiso
H9_17 H 0.40386 0.59786 0.54594 0.0000 Uiso
H10_17 H 0.32414 0.65152 0.50416 0.0000 Uiso
H11_17 H 0.25817 0.75093 0.65799 0.0000 Uiso
H12_17 H 0.22666 0.65891 0.61901 0.0000 Uiso
H13_17 H 0.26295 0.73335 0.55480 0.0000 Uiso
H14_17 H 0.387123 0.716507 0.613185 . .
N1_18 N 0.65218 0.17593 0.87828 0.0000 Uiso
C19_18 C 0.65492 0.12124 0.94328 0.0000 Uiso
C20_18 C 0.73092 0.20666 0.88716 0.0000 Uiso
H7_18 H 0.64156 0.14470 0.82522 0.0000 Uiso
H8_18 H 0.69482 0.07305 0.92903 0.0000 Uiso
H9_18 H 0.59614 0.09786 0.95406 0.0000 Uiso
H10_18 H 0.67586 0.15152 0.99584 0.0000 Uiso
H11_18 H 0.74183 0.25093 0.84201 0.0000 Uiso
H12_18 H 0.77334 0.15891 0.88099 0.0000 Uiso
H13_18 H 0.73705 0.23335 0.94520 0.0000 Uiso
H14_18 H 0.612877 0.216507 0.886815 . .
N1_19 N 0.15218 0.32407 0.12172 0.0000 Uiso
C19_19 C 0.15492 0.37876 0.05672 0.0000 Uiso
C20_19 C 0.23092 0.29334 0.11284 0.0000 Uiso
H7_19 H 0.14156 0.35530 0.17478 0.0000 Uiso
H8_19 H 0.19482 0.42695 0.07097 0.0000 Uiso
H9_19 H 0.09614 0.40214 0.04594 0.0000 Uiso
H10_19 H 0.17586 0.34848 0.00416 0.0000 Uiso
H11_19 H 0.24183 0.24907 0.15799 0.0000 Uiso
H12_19 H 0.27334 0.34109 0.11901 0.0000 Uiso
H13_19 H 0.23705 0.26665 0.05480 0.0000 Uiso
H14_19 H 0.112877 0.283493 0.113185 . .
N1_20 N 0.84782 0.82407 0.37828 0.0000 Uiso
C19_20 C 0.84508 0.87876 0.44328 0.0000 Uiso
C20_20 C 0.76908 0.79334 0.38716 0.0000 Uiso
H7_20 H 0.85844 0.85530 0.32522 0.0000 Uiso
H8_20 H 0.80518 0.92695 0.42903 0.0000 Uiso
H9_20 H 0.90386 0.90214 0.45406 0.0000 Uiso
H10_20 H 0.82414 0.84848 0.49584 0.0000 Uiso
H11_20 H 0.75817 0.74907 0.34201 0.0000 Uiso
H12_20 H 0.72666 0.84109 0.38099 0.0000 Uiso
H13_20 H 0.76295 0.76665 0.44520 0.0000 Uiso
H14_20 H 0.887123 0.783493 0.386815 . .
N1_21 N 0.17593 0.87828 0.65218 0.0000 Uiso
C19_21 C 0.12124 0.94328 0.65492 0.0000 Uiso
C20_21 C 0.20666 0.88716 0.73092 0.0000 Uiso
H7_21 H 0.14470 0.82522 0.64156 0.0000 Uiso
H8_21 H 0.07305 0.92903 0.69482 0.0000 Uiso
H9_21 H 0.09786 0.95406 0.59614 0.0000 Uiso
H10_21 H 0.15152 0.99584 0.67586 0.0000 Uiso
H11_21 H 0.25093 0.84201 0.74183 0.0000 Uiso
H12_21 H 0.15891 0.88099 0.77334 0.0000 Uiso
H13_21 H 0.23335 0.94520 0.73705 0.0000 Uiso
H14_21 H 0.216507 0.886815 0.612877 . .
N1_22 N 0.67593 0.62172 0.34782 0.0000 Uiso
C19_22 C 0.62124 0.55672 0.34508 0.0000 Uiso
C20_22 C 0.70666 0.61284 0.26908 0.0000 Uiso
H7_22 H 0.64470 0.67478 0.35844 0.0000 Uiso
H8_22 H 0.57305 0.57097 0.30518 0.0000 Uiso
H9_22 H 0.59786 0.54594 0.40386 0.0000 Uiso
H10_22 H 0.65152 0.50416 0.32414 0.0000 Uiso
H11_22 H 0.75093 0.65799 0.25817 0.0000 Uiso
H12_22 H 0.65891 0.61901 0.22666 0.0000 Uiso
H13_22 H 0.73335 0.55480 0.26295 0.0000 Uiso
H14_22 H 0.716507 0.613185 0.387123 . .
N1_23 N 0.82407 0.37828 0.84782 0.0000 Uiso
C19_23 C 0.87876 0.44328 0.84508 0.0000 Uiso
C20_23 C 0.79334 0.38716 0.76908 0.0000 Uiso
H7_23 H 0.85530 0.32522 0.85844 0.0000 Uiso
H8_23 H 0.92695 0.42903 0.80518 0.0000 Uiso
H9_23 H 0.90214 0.45406 0.90386 0.0000 Uiso
H10_23 H 0.84848 0.49584 0.82414 0.0000 Uiso
H11_23 H 0.74907 0.34201 0.75817 0.0000 Uiso
H12_23 H 0.84109 0.38099 0.72666 0.0000 Uiso
H13_23 H 0.76665 0.44520 0.76295 0.0000 Uiso
H14_23 H 0.783493 0.386815 0.887123 . .
N1_24 N 0.32407 0.12172 0.15218 0.0000 Uiso
C19_24 C 0.37876 0.05672 0.15492 0.0000 Uiso
C20_24 C 0.29334 0.11284 0.23092 0.0000 Uiso
H7_24 H 0.35530 0.17478 0.14156 0.0000 Uiso
H8_24 H 0.42695 0.07097 0.19482 0.0000 Uiso
H9_24 H 0.40214 0.04594 0.09614 0.0000 Uiso
H10_24 H 0.34848 0.00416 0.17586 0.0000 Uiso
H11_24 H 0.24907 0.15799 0.24183 0.0000 Uiso
H12_24 H 0.34109 0.11901 0.27334 0.0000 Uiso
H13_24 H 0.26665 0.05480 0.23705 0.0000 Uiso
H14_24 H 0.283493 0.113185 0.112877 . .
loop_
_geom_bond_atom_site_label_1
_geom_bond_atom_site_label_2
_geom_bond_site_symmetry_1
_geom_bond_site_symmetry_2
C1 C3 1_555 1_555
C2 C3 1_555 1_555
C3 H1 1_555 1_555
O1 C1 1_555 1_555
V1 O5 1_555 1_555
C4 C1 1_555 1_555
C5 C2 1_555 1_555
C6 C4 1_555 1_555
H2 C6 1_555 1_555
O2 C4 1_555 1_555
C7 C9 1_555 1_555
C8 C2 1_555 1_555
C9 C8 1_555 1_555
H3 C9 1_555 1_555
O3 C7 1_555 1_555
C10 C7 1_555 1_555
C11 C8 1_555 1_555
C12 C10 1_555 1_555
H4 C12 1_555 1_555
O4 C10 1_555 1_555
C13 C15 1_555 1_555
C14 C5 1_555 1_555
C15 C14 1_555 1_555
H5 C15 1_555 1_555
O5 C13 1_555 1_555
C16 C13 1_555 1_555
C17 C11 1_555 1_555
C18 C16 1_555 1_555
H6 C18 1_555 1_555
O6 V1 1_555 1_555
O7 V1 1_555 1_555
O8 V1 1_555 1_555
O9 V1 1_555 1_555
O10 V1 1_555 1_555
V2 O3 1_555 1_555
V3 O1 1_555 1_555
C5 C6 1_555 1_555
O2 V3 1_555 1_555
C11 C12 1_555 1_555
O4 V2 1_555 1_555
C14 C17 1_555 1_555
C16 O6 1_555 1_555
C17 C18 1_555 1_555
C5_2 C2_2 1_555 1_555
H2_2 C6_2 1_555 1_555
C7_2 C9_2 1_555 1_555
C8_2 C2_2 1_555 1_555
C9_2 C8_2 1_555 1_555
H3_2 C9_2 1_555 1_555
O10 C7_2 1_555 1_555
C10_2 C7_2 1_555 1_555
C11_2 C8_2 1_555 1_555
C12_2 C10_2 1_555 1_555
H4_2 C12_2 1_555 1_555
O8 C10_2 1_555 1_555
C14_2 C5_2 1_555 1_555
C17_2 C11_2 1_555 1_555
H6_2 C18_2 1_555 1_555
C5_2 C6_2 1_555 1_555
C11_2 C12_2 1_555 1_555
C14_2 C17_2 1_555 1_555
C17_2 C18_2 1_555 1_555
V2 O5_2 1_555 1_555
C13_2 C15_2 1_555 1_555
H5_2 C15_2 1_555 1_555
O5_2 C13_2 1_555 1_555
C16_2 C13_2 1_555 1_555
O6_2 V2 1_555 1_555
O7_2 V2 1_555 1_555
O9_2 V2 1_555 1_555
C16_2 O6_2 1_555 1_555
C1_2 C3_2 1_555 1_555
C2_3 C3_2 1_555 1_555
C3_2 H1_2 1_555 1_555
O7_2 C1_2 1_555 1_555
C4_2 C1_2 1_555 1_555
C5_3 C2_3 1_555 1_555
C6_3 C4_2 1_555 1_555
H2_3 C6_3 1_555 1_555
O9_2 C4_2 1_555 1_555
C8_3 C2_3 1_555 1_555
C9_3 C8_3 1_555 1_555
H3_3 C9_3 1_555 1_555
C11_3 C8_3 1_555 1_555
C14_3 C5_3 1_555 1_555
C17_3 C11_3 1_555 1_555
H6_3 C18_3 1_555 1_555
C5_3 C6_3 1_555 1_555
C14_3 C17_3 1_555 1_555
C17_3 C18_3 1_555 1_555
O3_2 C7_3 1_555 1_555
C10_3 C7_3 1_555 1_555
C12_3 C10_3 1_555 1_555
H4_3 C12_3 1_555 1_555
O4_2 C10_3 1_555 1_555
V3 O3_2 1_555 1_555
O4_2 V3 1_555 1_555
V3 O5_3 1_555 1_555
C5_4 C2_4 1_555 1_555
H2_4 C6_4 1_555 1_555
C8_4 C2_4 1_555 1_555
C9_4 C8_4 1_555 1_555
H3_4 C9_4 1_555 1_555
C11_4 C8_4 1_555 1_555
C13_3 C15_3 1_555 1_555
C14_4 C5_4 1_555 1_555
C15_3 C14_4 1_555 1_555
H5_3 C15_3 1_555 1_555
O5_3 C13_3 1_555 1_555
C16_3 C13_3 1_555 1_555
C17_4 C11_4 1_555 1_555
C18_4 C16_3 1_555 1_555
H6_4 C18_4 1_555 1_555
O6_3 V3 1_555 1_555
C5_4 C6_4 1_555 1_555
C14_4 C17_4 1_555 1_555
C16_3 O6_3 1_555 1_555
C17_4 C18_4 1_555 1_555
C1_3 C3_3 1_555 1_555
C3_3 H1_3 1_555 1_555
O7 C1_3 1_555 1_555
C4_3 C1_3 1_555 1_555
O9 C4_3 1_555 1_555
C1_4 C3_4 1_555 1_555
C3_4 H1_4 1_555 1_555
O1_2 C1_4 1_555 1_555
C4_4 C1_4 1_555 1_555
O2_2 C4_4 1_555 1_555
V3_2 O1_2 1_555 1_555
O2_2 V3_2 1_555 1_555
V3_2 O5_4 1_555 1_555
C13_4 C15_4 1_555 1_555
H5_4 C15_4 1_555 1_555
O5_4 C13_4 1_555 1_555
C16_4 C13_4 1_555 1_555
O6_4 V3_2 1_555 1_555
O8_2 V3_2 1_555 1_555
O10_2 V3_2 1_555 1_555
C16_4 O6_4 1_555 1_555
O10_2 C7_4 1_555 1_555
C10_4 C7_4 1_555 1_555
C12_4 C10_4 1_555 1_555
H4_4 C12_4 1_555 1_555
O8_2 C10_4 1_555 1_555
N1 C19 1_555 1_555
C19 H8 1_555 1_555
C20 N1 1_555 1_555
H7 N1 1_555 1_555
H9 C19 1_555 1_555
H10 C19 1_555 1_555
H13 C20 1_555 1_555
N1 H14 1_555 1_555
N1_2 C19_2 1_555 1_555
C19_2 H8_2 1_555 1_555
C20_2 N1_2 1_555 1_555
H7_2 N1_2 1_555 1_555
H9_2 C19_2 1_555 1_555
H10_2 C19_2 1_555 1_555
H11_2 C20_2 1_555 1_555
H12_2 C20_2 1_555 1_555
H13_2 C20_2 1_555 1_555
N1_2 H14_2 1_555 1_555
N1_3 C19_3 1_555 1_555
C19_3 H8_3 1_555 1_555
C20_3 N1_3 1_555 1_555
H7_3 N1_3 1_555 1_555
H9_3 C19_3 1_555 1_555
H10_3 C19_3 1_555 1_555
H11_3 C20_3 1_555 1_555
H13_3 C20_3 1_555 1_555
N1_3 H14_3 1_555 1_555
N1_4 C19_4 1_555 1_555
C19_4 H8_4 1_555 1_555
C20_4 N1_4 1_555 1_555
H7_4 N1_4 1_555 1_555
H9_4 C19_4 1_555 1_555
H10_4 C19_4 1_555 1_555
H12_4 C20_4 1_555 1_555
H13_4 C20_4 1_555 1_555
N1_4 H14_4 1_555 1_555
N1_5 C19_5 1_555 1_555
C19_5 H8_5 1_555 1_555
C20_5 N1_5 1_555 1_555
H7_5 N1_5 1_555 1_555
H9_5 C19_5 1_555 1_555
H10_5 C19_5 1_555 1_555
H13_5 C20_5 1_555 1_555
N1_5 H14_5 1_555 1_555
N1_6 C19_6 1_555 1_555
C19_6 H8_6 1_555 1_555
C20_6 N1_6 1_555 1_555
H7_6 N1_6 1_555 1_555
H9_6 C19_6 1_555 1_555
H10_6 C19_6 1_555 1_555
H11_6 C20_6 1_555 1_555
H12_6 C20_6 1_555 1_555
H13_6 C20_6 1_555 1_555
N1_6 H14_6 1_555 1_555
N1_7 C19_7 1_555 1_555
C19_7 H8_7 1_555 1_555
C20_7 N1_7 1_555 1_555
H7_7 N1_7 1_555 1_555
H9_7 C19_7 1_555 1_555
H10_7 C19_7 1_555 1_555
H11_7 C20_7 1_555 1_555
H13_7 C20_7 1_555 1_555
N1_7 H14_7 1_555 1_555
N1_8 C19_8 1_555 1_555
C19_8 H8_8 1_555 1_555
C20_8 N1_8 1_555 1_555
H7_8 N1_8 1_555 1_555
H9_8 C19_8 1_555 1_555
H10_8 C19_8 1_555 1_555
H12_8 C20_8 1_555 1_555
H13_8 C20_8 1_555 1_555
N1_8 H14_8 1_555 1_555
N1_9 C19_9 1_555 1_555
C19_9 H8_9 1_555 1_555
C20_9 N1_9 1_555 1_555
H7_9 N1_9 1_555 1_555
H9_9 C19_9 1_555 1_555
H10_9 C19_9 1_555 1_555
H13_9 C20_9 1_555 1_555
N1_9 H14_9 1_555 1_555
N1_10 C19_10 1_555 1_555
C19_10 H8_10 1_555 1_555
C20_10 N1_10 1_555 1_555
H7_10 N1_10 1_555 1_555
H9_10 C19_10 1_555 1_555
H10_10 C19_10 1_555 1_555
H11_10 C20_10 1_555 1_555
H12_10 C20_10 1_555 1_555
H13_10 C20_10 1_555 1_555
N1_10 H14_10 1_555 1_555
N1_11 C19_11 1_555 1_555
C19_11 H8_11 1_555 1_555
C20_11 N1_11 1_555 1_555
H7_11 N1_11 1_555 1_555
H9_11 C19_11 1_555 1_555
H10_11 C19_11 1_555 1_555
H11_11 C20_11 1_555 1_555
H13_11 C20_11 1_555 1_555
N1_11 H14_11 1_555 1_555
N1_12 C19_12 1_555 1_555
C19_12 H8_12 1_555 1_555
C20_12 N1_12 1_555 1_555
H7_12 N1_12 1_555 1_555
H9_12 C19_12 1_555 1_555
H10_12 C19_12 1_555 1_555
H12_12 C20_12 1_555 1_555
H13_12 C20_12 1_555 1_555
N1_12 H14_12 1_555 1_555
N1_13 C19_13 1_555 1_555
C19_13 H8_13 1_555 1_555
C20_13 N1_13 1_555 1_555
H7_13 N1_13 1_555 1_555
H9_13 C19_13 1_555 1_555
H10_13 C19_13 1_555 1_555
H11_13 C20_13 1_555 1_555
H12_13 C20_13 1_555 1_555
H13_13 C20_13 1_555 1_555
N1_13 H14_13 1_555 1_555
N1_14 C19_14 1_555 1_555
C19_14 H8_14 1_555 1_555
C20_14 N1_14 1_555 1_555
H7_14 N1_14 1_555 1_555
H9_14 C19_14 1_555 1_555
H10_14 C19_14 1_555 1_555
H11_14 C20_14 1_555 1_555
H12_14 C20_14 1_555 1_555
H13_14 C20_14 1_555 1_555
N1_14 H14_14 1_555 1_555
N1_15 C19_15 1_555 1_555
C19_15 H8_15 1_555 1_555
C20_15 N1_15 1_555 1_555
H7_15 N1_15 1_555 1_555
H9_15 C19_15 1_555 1_555
H10_15 C19_15 1_555 1_555
H11_15 C20_15 1_555 1_555
H12_15 C20_15 1_555 1_555
H13_15 C20_15 1_555 1_555
N1_15 H14_15 1_555 1_555
N1_16 C19_16 1_555 1_555
C19_16 H8_16 1_555 1_555
C20_16 N1_16 1_555 1_555
H7_16 N1_16 1_555 1_555
H9_16 C19_16 1_555 1_555
H10_16 C19_16 1_555 1_555
H11_16 C20_16 1_555 1_555
H12_16 C20_16 1_555 1_555
H13_16 C20_16 1_555 1_555
N1_16 H14_16 1_555 1_555
N1_17 C19_17 1_555 1_555
C19_17 H8_17 1_555 1_555
C20_17 N1_17 1_555 1_555
H7_17 N1_17 1_555 1_555
H9_17 C19_17 1_555 1_555
H10_17 C19_17 1_555 1_555
H11_17 C20_17 1_555 1_555
H12_17 C20_17 1_555 1_555
H13_17 C20_17 1_555 1_555
N1_17 H14_17 1_555 1_555
N1_18 C19_18 1_555 1_555
C19_18 H8_18 1_555 1_555
C20_18 N1_18 1_555 1_555
H7_18 N1_18 1_555 1_555
H9_18 C19_18 1_555 1_555
H10_18 C19_18 1_555 1_555
H11_18 C20_18 1_555 1_555
H12_18 C20_18 1_555 1_555
H13_18 C20_18 1_555 1_555
N1_18 H14_18 1_555 1_555
N1_19 C19_19 1_555 1_555
C19_19 H8_19 1_555 1_555
C20_19 N1_19 1_555 1_555
H7_19 N1_19 1_555 1_555
H9_19 C19_19 1_555 1_555
H10_19 C19_19 1_555 1_555
H11_19 C20_19 1_555 1_555
H12_19 C20_19 1_555 1_555
H13_19 C20_19 1_555 1_555
N1_19 H14_19 1_555 1_555
N1_20 C19_20 1_555 1_555
C19_20 H8_20 1_555 1_555
C20_20 N1_20 1_555 1_555
H7_20 N1_20 1_555 1_555
H9_20 C19_20 1_555 1_555
H10_20 C19_20 1_555 1_555
H11_20 C20_20 1_555 1_555
H12_20 C20_20 1_555 1_555
H13_20 C20_20 1_555 1_555
N1_20 H14_20 1_555 1_555
N1_21 C19_21 1_555 1_555
C19_21 H8_21 1_555 1_555
C20_21 N1_21 1_555 1_555
H7_21 N1_21 1_555 1_555
H9_21 C19_21 1_555 1_555
H10_21 C19_21 1_555 1_555
H11_21 C20_21 1_555 1_555
H12_21 C20_21 1_555 1_555
H13_21 C20_21 1_555 1_555
N1_21 H14_21 1_555 1_555
N1_22 C19_22 1_555 1_555
C19_22 H8_22 1_555 1_555
C20_22 N1_22 1_555 1_555
H7_22 N1_22 1_555 1_555
H9_22 C19_22 1_555 1_555
H10_22 C19_22 1_555 1_555
H11_22 C20_22 1_555 1_555
H12_22 C20_22 1_555 1_555
H13_22 C20_22 1_555 1_555
N1_22 H14_22 1_555 1_555
N1_23 C19_23 1_555 1_555
C19_23 H8_23 1_555 1_555
C20_23 N1_23 1_555 1_555
H7_23 N1_23 1_555 1_555
H9_23 C19_23 1_555 1_555
H10_23 C19_23 1_555 1_555
H11_23 C20_23 1_555 1_555
H12_23 C20_23 1_555 1_555
H13_23 C20_23 1_555 1_555
N1_23 H14_23 1_555 1_555
N1_24 C19_24 1_555 1_555
C19_24 H8_24 1_555 1_555
C20_24 N1_24 1_555 1_555
H7_24 N1_24 1_555 1_555
H9_24 C19_24 1_555 1_555
H10_24 C19_24 1_555 1_555
H11_24 C20_24 1_555 1_555
H12_24 C20_24 1_555 1_555
H13_24 C20_24 1_555 1_555
N1_24 H14_24 1_555 1_555

#END
