
###############################################################################
#
# This file contains modified crystal structure data generated from the
# MOF subset of the Cambridge Structural Database (CSD) v543 
# hosted by the Cambridge Crystallographic Data Centre (CCDC).
#
# This work is licensed under the Creative Commons
# Attribution-NonCommercial-ShareAlike 4.0 International License.
# To view a copy of this license, visit
# http://creativecommons.org/licenses/by-nc-sa/4.0/
# or send a letter to
# Creative Commons, PO Box 1866, Mountain View, CA 94042, USA.
#
# CIF created using the CSD Python API on 29 September 2022
# The structure has been converted into the P1 space group
# The structure has a 3D framework
# The original CSD entry FUYCEJ is in the cubic crystal system
# The original CSD entry FUYCEJ is in a Sohncke space group
# The framework has been calculated to contain at least 10.0% void space
# The void calculation uses a probe of radius 1.32A, grid spacing 0.4
# The framework is charged, counterions have been retained in the structure
# H atom positions have been added when not included in the experimental data
#
###############################################################################

data_FUYCEJ
_chemical_formula_moiety         '(C168 H144 N12 O48 Ti8 4+)n'
_symmetry_cell_setting           triclinic
_symmetry_space_group_name_H-M   'P 1'
_symmetry_Int_Tables_number      1
_space_group_name_Hall           'P 1'
loop_
_symmetry_equiv_pos_site_id
_symmetry_equiv_pos_as_xyz
1 x,y,z
_cell_length_a                   17.9960
_cell_length_b                   17.9960
_cell_length_c                   17.9960
_cell_angle_alpha                90
_cell_angle_beta                 90
_cell_angle_gamma                90
_cell_volume                     5828.11
loop_
_atom_site_label
_atom_site_type_symbol
_atom_site_fract_x
_atom_site_fract_y
_atom_site_fract_z
C3 C 0.28168 0.58996 0.00771
C6 C 0.25845 0.66006 0.03109
O1 O 0.29891 0.69599 0.08687
O2 O 0.33737 0.55382 0.04811
H2 H 0.17424 0.74792 0.02147
Ti1 Ti 0.37525 0.62475 0.12475
O7 O 0.41313 0.70109 0.19599
O8 O 0.30401 0.58687 0.20109
O9 O 0.45189 0.66263 0.05382
O10 O 0.44618 0.54811 0.16263
C1 C 0.24919 0.55749 0.94459
C2 C 0.18915 0.59228 0.90749
C4 C 0.19539 0.69272 0.99869
C5 C 0.15818 0.65812 0.93860
H1 H 0.27186 0.50229 0.92332
C7 C 0.05541 0.74919 0.94251
C8 C 0.09251 0.68915 0.90772
C10 C 0.00131 0.69539 0.80728
C11 C 0.06140 0.65818 0.84188
H3 H 0.07668 0.77186 0.99771
C13 C 0.05749 0.55541 0.75081
C14 C 0.09228 0.59251 0.81085
C15 C 0.08996 0.49229 0.71832
C16 C 0.19272 0.50131 0.80461
C17 C 0.15812 0.56140 0.84182
C18 C 0.16006 0.46891 0.74155
O5 O 0.19599 0.41313 0.70109
O6 O 0.05382 0.45189 0.66263
H5 H 0.00229 0.57668 0.72814
H6 H 0.24792 0.47853 0.82576
Ti2 Ti 0.12475 0.37525 0.62475
C1_2 C 0.25081 0.44251 0.44459
C2_2 C 0.31085 0.40772 0.40749
C3_2 C 0.21832 0.41004 0.50771
C4_2 C 0.30461 0.30728 0.49869
C5_2 C 0.34182 0.34188 0.43860
C6_2 C 0.24155 0.33994 0.53109
O1_2 O 0.20109 0.30401 0.58687
O2_2 O 0.16263 0.44618 0.54811
H1_2 H 0.22814 0.49771 0.42332
H2_2 H 0.32576 0.25208 0.52147
C7_2 C 0.44459 0.25081 0.44251
C8_2 C 0.40749 0.31085 0.40772
C9 C 0.50771 0.21832 0.41004
C10_2 C 0.49869 0.30461 0.30728
C11_2 C 0.43860 0.34182 0.34188
C12 C 0.53109 0.24155 0.33994
O3 O 0.58687 0.20109 0.30401
O4 O 0.54811 0.16263 0.44618
H3_2 H 0.42332 0.22814 0.49771
H4 H 0.52147 0.32576 0.25208
C13_2 C 0.44251 0.44459 0.25081
C14_2 C 0.40772 0.40749 0.31085
C15_2 C 0.41004 0.50771 0.21832
C16_2 C 0.30728 0.49869 0.30461
C17_2 C 0.34188 0.43860 0.34182
C18_2 C 0.33994 0.53109 0.24155
H5_2 H 0.49771 0.42332 0.22814
H6_2 H 0.25208 0.52147 0.32576
O7_2 O 0.08687 0.29891 0.69599
O9_2 O 0.04811 0.33737 0.55382
Ti3 Ti 0.62475 0.12475 0.37525
C9_2 C 0.00771 0.28168 0.58996
C12_2 C 0.03109 0.25845 0.66006
H4_2 H 0.02147 0.17424 0.74792
C1_3 C 0.75081 0.05749 0.55541
C2_3 C 0.81085 0.09228 0.59251
C3_3 C 0.71832 0.08996 0.49229
C4_3 C 0.80461 0.19272 0.50131
C5_3 C 0.84182 0.15812 0.56140
C6_3 C 0.74155 0.16006 0.46891
O1_3 O 0.70109 0.19599 0.41313
O2_3 O 0.66263 0.05382 0.45189
H1_3 H 0.72814 0.00229 0.57668
H2_3 H 0.82576 0.24792 0.47853
C7_3 C 0.94459 0.24919 0.55749
C8_3 C 0.90749 0.18915 0.59228
C10_3 C 0.99869 0.19539 0.69272
C11_3 C 0.93860 0.15818 0.65812
H3_3 H 0.92332 0.27186 0.50229
C13_3 C 0.94251 0.05541 0.74919
C14_3 C 0.90772 0.09251 0.68915
C16_3 C 0.80728 0.00131 0.69539
C17_3 C 0.84188 0.06140 0.65818
H5_3 H 0.99771 0.07668 0.77186
O8_2 O 0.69599 0.08687 0.29891
O10_2 O 0.55382 0.04811 0.33737
C15_3 C 0.58996 0.00771 0.28168
C18_3 C 0.66006 0.03109 0.25845
H6_3 H 0.74792 0.02147 0.17424
C1_4 C 0.74919 0.94251 0.05541
C2_4 C 0.68915 0.90772 0.09251
C4_4 C 0.69539 0.80728 0.00131
C5_4 C 0.65818 0.84188 0.06140
H1_4 H 0.77186 0.99771 0.07668
C7_4 C 0.55541 0.75081 0.05749
C8_4 C 0.59251 0.81085 0.09228
C9_3 C 0.49229 0.71832 0.08996
C10_4 C 0.50131 0.80461 0.19272
C11_4 C 0.56140 0.84182 0.15812
C12_3 C 0.46891 0.74155 0.16006
H3_4 H 0.57668 0.72814 0.00229
H4_3 H 0.47853 0.82576 0.24792
C13_4 C 0.55749 0.94459 0.24919
C14_4 C 0.59228 0.90749 0.18915
C16_4 C 0.69272 0.99869 0.19539
C17_4 C 0.65812 0.93860 0.15818
H5_4 H 0.50229 0.92332 0.27186
C9_4 C 0.99229 0.78168 0.91004
C12_4 C 0.96891 0.75845 0.83994
O3_2 O 0.91313 0.79891 0.80401
O4_2 O 0.95189 0.83737 0.94618
H4_4 H 0.97853 0.67424 0.75208
Ti3_2 Ti 0.87525 0.87525 0.87525
C15_4 C 0.91004 0.99229 0.78168
C18_4 C 0.83994 0.96891 0.75845
O5_2 O 0.80401 0.91313 0.79891
O6_2 O 0.94618 0.95189 0.83737
H6_4 H 0.75208 0.97853 0.67424
C3_4 C 0.78168 0.91004 0.99229
C6_4 C 0.75845 0.83994 0.96891
O1_4 O 0.79891 0.80401 0.91313
O2_4 O 0.83737 0.94618 0.95189
H2_4 H 0.67424 0.75208 0.97853
C27 C 0.00775 0.21835 0.08995
C30 C 0.03111 0.24158 0.16006
O13 O 0.08689 0.20112 0.19599
O14 O 0.04814 0.16265 0.05382
H10 H 0.02149 0.32581 0.24790
Ti6 Ti 0.12477 0.12477 0.12477
C33 C 0.08995 0.00775 0.21835
C36 C 0.16006 0.03111 0.24158
O15 O 0.19599 0.08689 0.20112
O16 O 0.05382 0.04814 0.16265
H12 H 0.24790 0.02149 0.32581
C21 C 0.21835 0.08995 0.00775
C24 C 0.24158 0.16006 0.03111
O11 O 0.20112 0.19599 0.08689
O12 O 0.16265 0.05382 0.04814
H8 H 0.32581 0.24790 0.02149
C19 C 0.75084 0.44253 0.05537
C20 C 0.81088 0.40775 0.09247
C22 C 0.80465 0.30729 0.00129
C23 C 0.84185 0.34191 0.06136
H7 H 0.72816 0.49773 0.07664
C25 C 0.94463 0.25084 0.05747
C26 C 0.90753 0.31088 0.09225
C28 C 0.99871 0.30465 0.19271
C29 C 0.93864 0.34185 0.15809
H9 H 0.92336 0.22816 0.00227
C31 C 0.94253 0.44463 0.24916
C32 C 0.90775 0.40753 0.18912
C33_2 C 0.91005 0.50775 0.28165
C34 C 0.80729 0.49871 0.19535
C35 C 0.84191 0.43864 0.15815
C36_2 C 0.83994 0.53111 0.25842
O15_2 O 0.80401 0.58689 0.29888
O16_2 O 0.94618 0.54814 0.33735
H11 H 0.99773 0.42336 0.27184
H12_2 H 0.75210 0.52149 0.17419
Ti5 Ti 0.87523 0.62477 0.37523
C21_2 C 0.71835 0.41005 0.99225
C24_2 C 0.74158 0.33994 0.96889
O11_2 O 0.70112 0.30401 0.91311
O12_2 O 0.66265 0.44618 0.95186
H8_2 H 0.82581 0.25210 0.97851
Ti4 Ti 0.62477 0.37523 0.87523
O17 O 0.58689 0.29888 0.80401
O18 O 0.69599 0.41311 0.79888
O19 O 0.54814 0.33735 0.94618
O20 O 0.55382 0.45186 0.83735
C19_2 C 0.74916 0.55747 0.55537
C20_2 C 0.68912 0.59225 0.59247
C21_3 C 0.78165 0.58995 0.49225
C22_2 C 0.69535 0.69271 0.50129
C23_2 C 0.65815 0.65809 0.56136
C24_3 C 0.75842 0.66006 0.46889
O11_3 O 0.79888 0.69599 0.41311
O12_3 O 0.83735 0.55382 0.45186
H7_2 H 0.77184 0.50227 0.57664
H8_3 H 0.67419 0.74790 0.47851
C25_2 C 0.55537 0.74916 0.55747
C26_2 C 0.59247 0.68912 0.59225
C27_2 C 0.49225 0.78165 0.58995
C28_2 C 0.50129 0.69535 0.69271
C29_2 C 0.56136 0.65815 0.65809
C30_2 C 0.46889 0.75842 0.66006
O13_2 O 0.41311 0.79888 0.69599
O14_2 O 0.45186 0.83735 0.55382
H9_2 H 0.57664 0.77184 0.50227
H10_2 H 0.47851 0.67419 0.74790
C31_2 C 0.55747 0.55537 0.74916
C32_2 C 0.59225 0.59247 0.68912
C33_3 C 0.58995 0.49225 0.78165
C34_2 C 0.69271 0.50129 0.69535
C35_2 C 0.65809 0.56136 0.65815
C36_3 C 0.66006 0.46889 0.75842
H11_2 H 0.50227 0.57664 0.77184
H12_3 H 0.74790 0.47851 0.67419
O17_2 O 0.91311 0.70112 0.30401
O19_2 O 0.95186 0.66265 0.44618
Ti6_2 Ti 0.37523 0.87523 0.62477
C19_3 C 0.24916 0.94253 0.44463
C20_3 C 0.18912 0.90775 0.40753
C21_4 C 0.28165 0.91005 0.50775
C22_3 C 0.19535 0.80729 0.49871
C23_3 C 0.15815 0.84191 0.43864
C24_4 C 0.25842 0.83994 0.53111
O11_4 O 0.29888 0.80401 0.58689
O12_4 O 0.33735 0.94618 0.54814
H7_3 H 0.27184 0.99773 0.42336
H8_4 H 0.17419 0.75210 0.52149
C25_3 C 0.05537 0.75084 0.44253
C26_3 C 0.09247 0.81088 0.40775
C28_3 C 0.00129 0.80465 0.30729
C29_3 C 0.06136 0.84185 0.34191
H9_3 H 0.07664 0.72816 0.49773
C31_3 C 0.05747 0.94463 0.25084
C32_3 C 0.09225 0.90753 0.31088
C34_3 C 0.19271 0.99871 0.30465
C35_3 C 0.15809 0.93864 0.34185
H11_3 H 0.00227 0.92336 0.22816
O18_2 O 0.30401 0.91311 0.70112
O20_2 O 0.44618 0.95186 0.66265
C27_3 C 0.99225 0.71835 0.41005
C30_3 C 0.96889 0.74158 0.33994
H10_3 H 0.97851 0.82581 0.25210
C19_4 C 0.25084 0.05747 0.94463
C20_4 C 0.31088 0.09225 0.90753
C22_4 C 0.30465 0.19271 0.99871
C23_4 C 0.34185 0.15809 0.93864
H7_4 H 0.22816 0.00227 0.92336
C25_4 C 0.44463 0.24916 0.94253
C26_4 C 0.40753 0.18912 0.90775
C27_4 C 0.50775 0.28165 0.91005
C28_4 C 0.49871 0.19535 0.80729
C29_4 C 0.43864 0.15815 0.84191
C30_4 C 0.53111 0.25842 0.83994
H9_4 H 0.42336 0.27184 0.99773
H10_4 H 0.52149 0.17419 0.75210
C31_4 C 0.44253 0.05537 0.75084
C32_4 C 0.40775 0.09247 0.81088
C34_4 C 0.30729 0.00129 0.80465
C35_4 C 0.34191 0.06136 0.84185
H11_4 H 0.49773 0.07664 0.72816
C33_4 C 0.41005 0.99225 0.71835
C36_4 C 0.33994 0.96889 0.74158
H12_4 H 0.25210 0.97851 0.82581
N1 N 0.60233 0.34325 0.53237
C37 C 0.53587 0.39447 0.53203
C38 C 0.62816 0.35938 0.45418
H13 H 0.64127 0.36039 0.57702
H14 H 0.55560 0.45467 0.53184
H15 H 0.50081 0.38391 0.58373
H16 H 0.50102 0.38351 0.48028
H17 H 0.68004 0.32527 0.44162
H18 H 0.64159 0.42104 0.44867
H19 H 0.58235 0.34400 0.41321
H20 H 0.586757 0.289356 0.538202
N1_2 N 0.89767 0.65675 0.03237
C37_2 C 0.96413 0.60553 0.03203
H13_2 H 0.85873 0.63961 0.07702
H14_2 H 0.94440 0.54533 0.03184
H15_2 H 0.99919 0.61609 0.08373
H20_2 H 0.913243 0.710644 0.0382019
C38_2 C 0.87184 0.64062 0.95418
H16_2 H 0.99898 0.61649 0.98028
H17_2 H 0.81996 0.67473 0.94162
H18_2 H 0.85841 0.57896 0.94867
H19_2 H 0.91765 0.65600 0.91321
C38_3 C 0.37184 0.85938 0.04582
H16_3 H 0.49898 0.88351 0.01972
H17_3 H 0.31996 0.82527 0.05838
H18_3 H 0.35841 0.92104 0.05133
H19_3 H 0.41765 0.84400 0.08679
N1_3 N 0.39767 0.84325 0.96763
C37_3 C 0.46413 0.89447 0.96797
H13_3 H 0.35873 0.86039 0.92298
H14_3 H 0.44440 0.95467 0.96816
H15_3 H 0.49919 0.88391 0.91627
H20_3 H 0.413243 0.789356 0.961798
N1_4 N 0.10233 0.15675 0.46763
C37_4 C 0.03587 0.10553 0.46797
C38_4 C 0.12816 0.14062 0.54582
H13_4 H 0.14127 0.13961 0.42298
H14_4 H 0.05560 0.04533 0.46816
H15_4 H 0.00081 0.11609 0.41627
H16_4 H 0.00102 0.11649 0.51972
H17_4 H 0.18004 0.17473 0.55838
H18_4 H 0.14159 0.07896 0.55133
H19_4 H 0.08235 0.15600 0.58679
H20_4 H 0.0867574 0.210644 0.461798
N1_5 N 0.53237 0.60233 0.34325
C37_5 C 0.53203 0.53587 0.39447
C38_5 C 0.45418 0.62816 0.35938
H13_5 H 0.57702 0.64127 0.36039
H14_5 H 0.53184 0.55560 0.45467
H15_5 H 0.58373 0.50081 0.38391
H16_5 H 0.48028 0.50102 0.38351
H17_5 H 0.44162 0.68004 0.32527
H18_5 H 0.44867 0.64159 0.42104
H19_5 H 0.41321 0.58235 0.34400
H20_5 H 0.538202 0.586757 0.289356
N1_6 N 0.03237 0.89767 0.65675
C37_6 C 0.03203 0.96413 0.60553
H13_6 H 0.07702 0.85873 0.63961
H14_6 H 0.03184 0.94440 0.54533
H15_6 H 0.08373 0.99919 0.61609
H20_6 H 0.0382019 0.913243 0.710644
C38_6 C 0.95418 0.87184 0.64062
H16_6 H 0.98028 0.99898 0.61649
H17_6 H 0.94162 0.81996 0.67473
H18_6 H 0.94867 0.85841 0.57896
H19_6 H 0.91321 0.91765 0.65600
C38_7 C 0.04582 0.37184 0.85938
H16_7 H 0.01972 0.49898 0.88351
H17_7 H 0.05838 0.31996 0.82527
H18_7 H 0.05133 0.35841 0.92104
H19_7 H 0.08679 0.41765 0.84400
N1_7 N 0.96763 0.39767 0.84325
C37_7 C 0.96797 0.46413 0.89447
H13_7 H 0.92298 0.35873 0.86039
H14_7 H 0.96816 0.44440 0.95467
H15_7 H 0.91627 0.49919 0.88391
H20_7 H 0.961798 0.413243 0.789356
N1_8 N 0.46763 0.10233 0.15675
C37_8 C 0.46797 0.03587 0.10553
C38_8 C 0.54582 0.12816 0.14062
H13_8 H 0.42298 0.14127 0.13961
H14_8 H 0.46816 0.05560 0.04533
H15_8 H 0.41627 0.00081 0.11609
H16_8 H 0.51972 0.00102 0.11649
H17_8 H 0.55838 0.18004 0.17473
H18_8 H 0.55133 0.14159 0.07896
H19_8 H 0.58679 0.08235 0.15600
H20_8 H 0.461798 0.0867574 0.210644
N1_9 N 0.34325 0.53237 0.60233
C37_9 C 0.39447 0.53203 0.53587
C38_9 C 0.35938 0.45418 0.62816
H13_9 H 0.36039 0.57702 0.64127
H14_9 H 0.45467 0.53184 0.55560
H15_9 H 0.38391 0.58373 0.50081
H16_9 H 0.38351 0.48028 0.50102
H17_9 H 0.32527 0.44162 0.68004
H18_9 H 0.42104 0.44867 0.64159
H19_9 H 0.34400 0.41321 0.58235
H20_9 H 0.289356 0.538202 0.586757
N1_10 N 0.65675 0.03237 0.89767
C37_10 C 0.60553 0.03203 0.96413
H13_10 H 0.63961 0.07702 0.85873
H14_10 H 0.54533 0.03184 0.94440
H15_10 H 0.61609 0.08373 0.99919
H20_10 H 0.710644 0.0382019 0.913243
C38_10 C 0.64062 0.95418 0.87184
H16_10 H 0.61649 0.98028 0.99898
H17_10 H 0.67473 0.94162 0.81996
H18_10 H 0.57896 0.94867 0.85841
H19_10 H 0.65600 0.91321 0.91765
C38_11 C 0.85938 0.04582 0.37184
H16_11 H 0.88351 0.01972 0.49898
H17_11 H 0.82527 0.05838 0.31996
H18_11 H 0.92104 0.05133 0.35841
H19_11 H 0.84400 0.08679 0.41765
N1_11 N 0.84325 0.96763 0.39767
C37_11 C 0.89447 0.96797 0.46413
H13_11 H 0.86039 0.92298 0.35873
H14_11 H 0.95467 0.96816 0.44440
H15_11 H 0.88391 0.91627 0.49919
H20_11 H 0.789356 0.961798 0.413243
N1_12 N 0.15675 0.46763 0.10233
C37_12 C 0.10553 0.46797 0.03587
C38_12 C 0.14062 0.54582 0.12816
H13_12 H 0.13961 0.42298 0.14127
H14_12 H 0.04533 0.46816 0.05560
H15_12 H 0.11609 0.41627 0.00081
H16_12 H 0.11649 0.51972 0.00102
H17_12 H 0.17473 0.55838 0.18004
H18_12 H 0.07896 0.55133 0.14159
H19_12 H 0.15600 0.58679 0.08235
H20_12 H 0.210644 0.461798 0.0867574
loop_
_geom_bond_atom_site_label_1
_geom_bond_atom_site_label_2
_geom_bond_site_symmetry_1
_geom_bond_site_symmetry_2
C6 C3 1_555 1_555
O1 C6 1_555 1_555
O2 C3 1_555 1_555
Ti1 O1 1_555 1_555
O7 Ti1 1_555 1_555
O8 Ti1 1_555 1_555
O9 Ti1 1_555 1_555
O10 Ti1 1_555 1_555
O2 Ti1 1_555 1_555
C1 C2 1_555 1_555
C2 C5 1_555 1_555
C4 C5 1_555 1_555
C5 C8 1_555 1_555
H1 C1 1_555 1_555
C7 C8 1_555 1_555
C8 C11 1_555 1_555
C10 C11 1_555 1_555
C11 C14 1_555 1_555
H3 C7 1_555 1_555
C13 C14 1_555 1_555
C14 C17 1_555 1_555
C15 C13 1_555 1_555
C16 C17 1_555 1_555
C17 C2 1_555 1_555
C18 C15 1_555 1_555
O5 C18 1_555 1_555
O6 C15 1_555 1_555
H5 C13 1_555 1_555
H6 C16 1_555 1_555
Ti2 O5 1_555 1_555
C16 C18 1_555 1_555
O6 Ti2 1_555 1_555
C1_2 C2_2 1_555 1_555
C2_2 C5_2 1_555 1_555
C3_2 C1_2 1_555 1_555
C4_2 C5_2 1_555 1_555
C5_2 C8_2 1_555 1_555
C6_2 C3_2 1_555 1_555
O1_2 C6_2 1_555 1_555
O2_2 C3_2 1_555 1_555
H1_2 C1_2 1_555 1_555
H2_2 C4_2 1_555 1_555
Ti2 O1_2 1_555 1_555
C7_2 C8_2 1_555 1_555
C8_2 C11_2 1_555 1_555
C9 C7_2 1_555 1_555
C10_2 C11_2 1_555 1_555
C11_2 C14_2 1_555 1_555
C12 C9 1_555 1_555
O3 C12 1_555 1_555
O4 C9 1_555 1_555
H3_2 C7_2 1_555 1_555
H4 C10_2 1_555 1_555
C13_2 C14_2 1_555 1_555
C14_2 C17_2 1_555 1_555
C15_2 C13_2 1_555 1_555
C16_2 C17_2 1_555 1_555
C17_2 C2_2 1_555 1_555
C18_2 C15_2 1_555 1_555
O8 C18_2 1_555 1_555
O10 C15_2 1_555 1_555
H5_2 C13_2 1_555 1_555
H6_2 C16_2 1_555 1_555
O7_2 Ti2 1_555 1_555
O9_2 Ti2 1_555 1_555
Ti3 O3 1_555 1_555
C4_2 C6_2 1_555 1_555
O2_2 Ti2 1_555 1_555
C10_2 C12 1_555 1_555
O4 Ti3 1_555 1_555
C16_2 C18_2 1_555 1_555
C12_2 C9_2 1_555 1_555
O7_2 C12_2 1_555 1_555
O9_2 C9_2 1_555 1_555
C1_3 C2_3 1_555 1_555
C2_3 C5_3 1_555 1_555
C3_3 C1_3 1_555 1_555
C4_3 C5_3 1_555 1_555
C5_3 C8_3 1_555 1_555
C6_3 C3_3 1_555 1_555
O1_3 C6_3 1_555 1_555
O2_3 C3_3 1_555 1_555
H1_3 C1_3 1_555 1_555
H2_3 C4_3 1_555 1_555
Ti3 O1_3 1_555 1_555
C7_3 C8_3 1_555 1_555
C8_3 C11_3 1_555 1_555
C10_3 C11_3 1_555 1_555
C11_3 C14_3 1_555 1_555
H3_3 C7_3 1_555 1_555
C13_3 C14_3 1_555 1_555
C14_3 C17_3 1_555 1_555
C16_3 C17_3 1_555 1_555
C17_3 C2_3 1_555 1_555
H5_3 C13_3 1_555 1_555
O8_2 Ti3 1_555 1_555
O10_2 Ti3 1_555 1_555
C4_3 C6_3 1_555 1_555
O2_3 Ti3 1_555 1_555
C18_3 C15_3 1_555 1_555
O8_2 C18_3 1_555 1_555
O10_2 C15_3 1_555 1_555
C1_4 C2_4 1_555 1_555
C2_4 C5_4 1_555 1_555
C4_4 C5_4 1_555 1_555
C5_4 C8_4 1_555 1_555
H1_4 C1_4 1_555 1_555
C7_4 C8_4 1_555 1_555
C8_4 C11_4 1_555 1_555
C9_3 C7_4 1_555 1_555
C10_4 C11_4 1_555 1_555
C11_4 C14_4 1_555 1_555
C12_3 C9_3 1_555 1_555
O7 C12_3 1_555 1_555
O9 C9_3 1_555 1_555
H3_4 C7_4 1_555 1_555
H4_3 C10_4 1_555 1_555
C13_4 C14_4 1_555 1_555
C14_4 C17_4 1_555 1_555
C16_4 C17_4 1_555 1_555
C17_4 C2_4 1_555 1_555
H5_4 C13_4 1_555 1_555
C10_4 C12_3 1_555 1_555
C12_4 C9_4 1_555 1_555
O3_2 C12_4 1_555 1_555
O4_2 C9_4 1_555 1_555
Ti3_2 O3_2 1_555 1_555
O4_2 Ti3_2 1_555 1_555
C18_4 C15_4 1_555 1_555
O5_2 C18_4 1_555 1_555
O6_2 C15_4 1_555 1_555
Ti3_2 O5_2 1_555 1_555
O6_2 Ti3_2 1_555 1_555
C6_4 C3_4 1_555 1_555
O1_4 C6_4 1_555 1_555
O2_4 C3_4 1_555 1_555
Ti3_2 O1_4 1_555 1_555
O2_4 Ti3_2 1_555 1_555
C30 C27 1_555 1_555
O13 C30 1_555 1_555
O14 C27 1_555 1_555
Ti6 O13 1_555 1_555
O14 Ti6 1_555 1_555
C36 C33 1_555 1_555
O15 C36 1_555 1_555
O16 C33 1_555 1_555
Ti6 O15 1_555 1_555
O16 Ti6 1_555 1_555
C24 C21 1_555 1_555
O11 C24 1_555 1_555
O12 C21 1_555 1_555
Ti6 O11 1_555 1_555
O12 Ti6 1_555 1_555
C19 C20 1_555 1_555
C20 C23 1_555 1_555
C22 C23 1_555 1_555
C23 C26 1_555 1_555
H7 C19 1_555 1_555
C25 C26 1_555 1_555
C26 C29 1_555 1_555
C28 C29 1_555 1_555
C29 C32 1_555 1_555
H9 C25 1_555 1_555
C31 C32 1_555 1_555
C32 C35 1_555 1_555
C33_2 C31 1_555 1_555
C34 C35 1_555 1_555
C35 C20 1_555 1_555
C36_2 C33_2 1_555 1_555
O15_2 C36_2 1_555 1_555
O16_2 C33_2 1_555 1_555
H11 C31 1_555 1_555
H12_2 C34 1_555 1_555
Ti5 O15_2 1_555 1_555
C34 C36_2 1_555 1_555
O16_2 Ti5 1_555 1_555
C24_2 C21_2 1_555 1_555
O11_2 C24_2 1_555 1_555
O12_2 C21_2 1_555 1_555
Ti4 O11_2 1_555 1_555
O17 Ti4 1_555 1_555
O18 Ti4 1_555 1_555
O19 Ti4 1_555 1_555
O20 Ti4 1_555 1_555
O12_2 Ti4 1_555 1_555
C19_2 C20_2 1_555 1_555
C20_2 C23_2 1_555 1_555
C21_3 C19_2 1_555 1_555
C22_2 C23_2 1_555 1_555
C23_2 C26_2 1_555 1_555
C24_3 C21_3 1_555 1_555
O11_3 C24_3 1_555 1_555
O12_3 C21_3 1_555 1_555
H7_2 C19_2 1_555 1_555
H8_3 C22_2 1_555 1_555
Ti5 O11_3 1_555 1_555
C25_2 C26_2 1_555 1_555
C26_2 C29_2 1_555 1_555
C27_2 C25_2 1_555 1_555
C28_2 C29_2 1_555 1_555
C29_2 C32_2 1_555 1_555
C30_2 C27_2 1_555 1_555
O13_2 C30_2 1_555 1_555
O14_2 C27_2 1_555 1_555
H9_2 C25_2 1_555 1_555
H10_2 C28_2 1_555 1_555
C31_2 C32_2 1_555 1_555
C32_2 C35_2 1_555 1_555
C33_3 C31_2 1_555 1_555
C34_2 C35_2 1_555 1_555
C35_2 C20_2 1_555 1_555
C36_3 C33_3 1_555 1_555
O18 C36_3 1_555 1_555
O20 C33_3 1_555 1_555
H11_2 C31_2 1_555 1_555
H12_3 C34_2 1_555 1_555
O17_2 Ti5 1_555 1_555
O19_2 Ti5 1_555 1_555
Ti6_2 O13_2 1_555 1_555
C22_2 C24_3 1_555 1_555
O12_3 Ti5 1_555 1_555
C28_2 C30_2 1_555 1_555
O14_2 Ti6_2 1_555 1_555
C34_2 C36_3 1_555 1_555
C19_3 C20_3 1_555 1_555
C20_3 C23_3 1_555 1_555
C21_4 C19_3 1_555 1_555
C22_3 C23_3 1_555 1_555
C23_3 C26_3 1_555 1_555
C24_4 C21_4 1_555 1_555
O11_4 C24_4 1_555 1_555
O12_4 C21_4 1_555 1_555
H7_3 C19_3 1_555 1_555
H8_4 C22_3 1_555 1_555
Ti6_2 O11_4 1_555 1_555
C25_3 C26_3 1_555 1_555
C26_3 C29_3 1_555 1_555
C28_3 C29_3 1_555 1_555
C29_3 C32_3 1_555 1_555
H9_3 C25_3 1_555 1_555
C31_3 C32_3 1_555 1_555
C32_3 C35_3 1_555 1_555
C34_3 C35_3 1_555 1_555
C35_3 C20_3 1_555 1_555
H11_3 C31_3 1_555 1_555
O18_2 Ti6_2 1_555 1_555
O20_2 Ti6_2 1_555 1_555
C22_3 C24_4 1_555 1_555
O12_4 Ti6_2 1_555 1_555
C30_3 C27_3 1_555 1_555
O17_2 C30_3 1_555 1_555
O19_2 C27_3 1_555 1_555
C19_4 C20_4 1_555 1_555
C20_4 C23_4 1_555 1_555
C22_4 C23_4 1_555 1_555
C23_4 C26_4 1_555 1_555
H7_4 C19_4 1_555 1_555
C25_4 C26_4 1_555 1_555
C26_4 C29_4 1_555 1_555
C27_4 C25_4 1_555 1_555
C28_4 C29_4 1_555 1_555
C29_4 C32_4 1_555 1_555
C30_4 C27_4 1_555 1_555
O17 C30_4 1_555 1_555
O19 C27_4 1_555 1_555
H9_4 C25_4 1_555 1_555
H10_4 C28_4 1_555 1_555
C31_4 C32_4 1_555 1_555
C32_4 C35_4 1_555 1_555
C34_4 C35_4 1_555 1_555
C35_4 C20_4 1_555 1_555
H11_4 C31_4 1_555 1_555
C28_4 C30_4 1_555 1_555
C36_4 C33_4 1_555 1_555
O18_2 C36_4 1_555 1_555
O20_2 C33_4 1_555 1_555
N1 C37 1_555 1_555
C37 H14 1_555 1_555
C38 N1 1_555 1_555
H13 N1 1_555 1_555
H15 C37 1_555 1_555
H16 C37 1_555 1_555
H17 C38 1_555 1_555
H18 C38 1_555 1_555
H19 C38 1_555 1_555
N1 H20 1_555 1_555
N1_2 C37_2 1_555 1_555
C37_2 H14_2 1_555 1_555
H13_2 N1_2 1_555 1_555
H15_2 C37_2 1_555 1_555
N1_2 H20_2 1_555 1_555
H17_2 C38_2 1_555 1_555
H18_2 C38_2 1_555 1_555
H19_2 C38_2 1_555 1_555
H17_3 C38_3 1_555 1_555
H18_3 C38_3 1_555 1_555
H19_3 C38_3 1_555 1_555
N1_3 C37_3 1_555 1_555
C37_3 H14_3 1_555 1_555
H13_3 N1_3 1_555 1_555
H15_3 C37_3 1_555 1_555
N1_3 H20_3 1_555 1_555
N1_4 C37_4 1_555 1_555
C37_4 H14_4 1_555 1_555
C38_4 N1_4 1_555 1_555
H13_4 N1_4 1_555 1_555
H15_4 C37_4 1_555 1_555
H16_4 C37_4 1_555 1_555
H17_4 C38_4 1_555 1_555
H18_4 C38_4 1_555 1_555
H19_4 C38_4 1_555 1_555
N1_4 H20_4 1_555 1_555
N1_5 C37_5 1_555 1_555
C37_5 H14_5 1_555 1_555
C38_5 N1_5 1_555 1_555
H13_5 N1_5 1_555 1_555
H15_5 C37_5 1_555 1_555
H16_5 C37_5 1_555 1_555
H17_5 C38_5 1_555 1_555
H18_5 C38_5 1_555 1_555
H19_5 C38_5 1_555 1_555
N1_5 H20_5 1_555 1_555
N1_6 C37_6 1_555 1_555
C37_6 H14_6 1_555 1_555
H13_6 N1_6 1_555 1_555
H15_6 C37_6 1_555 1_555
N1_6 H20_6 1_555 1_555
H17_6 C38_6 1_555 1_555
H18_6 C38_6 1_555 1_555
H19_6 C38_6 1_555 1_555
H17_7 C38_7 1_555 1_555
H18_7 C38_7 1_555 1_555
H19_7 C38_7 1_555 1_555
N1_7 C37_7 1_555 1_555
C37_7 H14_7 1_555 1_555
H13_7 N1_7 1_555 1_555
H15_7 C37_7 1_555 1_555
N1_7 H20_7 1_555 1_555
N1_8 C37_8 1_555 1_555
C37_8 H14_8 1_555 1_555
C38_8 N1_8 1_555 1_555
H13_8 N1_8 1_555 1_555
H15_8 C37_8 1_555 1_555
H16_8 C37_8 1_555 1_555
H17_8 C38_8 1_555 1_555
H18_8 C38_8 1_555 1_555
H19_8 C38_8 1_555 1_555
N1_8 H20_8 1_555 1_555
N1_9 C37_9 1_555 1_555
C37_9 H14_9 1_555 1_555
C38_9 N1_9 1_555 1_555
H13_9 N1_9 1_555 1_555
H15_9 C37_9 1_555 1_555
H16_9 C37_9 1_555 1_555
H17_9 C38_9 1_555 1_555
H18_9 C38_9 1_555 1_555
H19_9 C38_9 1_555 1_555
N1_9 H20_9 1_555 1_555
N1_10 C37_10 1_555 1_555
C37_10 H14_10 1_555 1_555
H13_10 N1_10 1_555 1_555
H15_10 C37_10 1_555 1_555
N1_10 H20_10 1_555 1_555
H17_10 C38_10 1_555 1_555
H18_10 C38_10 1_555 1_555
H19_10 C38_10 1_555 1_555
H17_11 C38_11 1_555 1_555
H18_11 C38_11 1_555 1_555
H19_11 C38_11 1_555 1_555
N1_11 C37_11 1_555 1_555
C37_11 H14_11 1_555 1_555
H13_11 N1_11 1_555 1_555
H15_11 C37_11 1_555 1_555
N1_11 H20_11 1_555 1_555
N1_12 C37_12 1_555 1_555
C37_12 H14_12 1_555 1_555
C38_12 N1_12 1_555 1_555
H13_12 N1_12 1_555 1_555
H15_12 C37_12 1_555 1_555
H16_12 C37_12 1_555 1_555
H17_12 C38_12 1_555 1_555
H18_12 C38_12 1_555 1_555
H19_12 C38_12 1_555 1_555
N1_12 H20_12 1_555 1_555

#END
