
###############################################################################
#
# This file contains modified crystal structure data generated from the
# MOF subset of the Cambridge Structural Database (CSD) v543 
# hosted by the Cambridge Crystallographic Data Centre (CCDC).
#
# This work is licensed under the Creative Commons
# Attribution-NonCommercial-ShareAlike 4.0 International License.
# To view a copy of this license, visit
# http://creativecommons.org/licenses/by-nc-sa/4.0/
# or send a letter to
# Creative Commons, PO Box 1866, Mountain View, CA 94042, USA.
#
# CIF created using the CSD Python API on 29 September 2022
# The structure has been converted into the P1 space group
# The structure has a 3D framework
# The original CSD entry FUYKER is in the monoclinic crystal system
# The framework has been calculated to contain at least 10.0% void space
# The void calculation uses a probe of radius 1.32A, grid spacing 0.4
# The framework is charged, counterions have been retained in the structure
#
###############################################################################

data_FUYKER
_chemical_formula_moiety         '(C208 H144 Cl16 Mn16 N80 O40)n'
_symmetry_cell_setting           triclinic
_symmetry_space_group_name_H-M   'P 1'
_symmetry_Int_Tables_number      1
_space_group_name_Hall           'P 1'
loop_
_symmetry_equiv_pos_site_id
_symmetry_equiv_pos_as_xyz
1 x,y,z
_cell_length_a                   31.609(5)
_cell_length_b                   9.8716(15)
_cell_length_c                   24.738(4)
_cell_angle_alpha                90
_cell_angle_beta                 104.669(2)
_cell_angle_gamma                90
_cell_volume                     7467.43
loop_
_atom_site_label
_atom_site_type_symbol
_atom_site_fract_x
_atom_site_fract_y
_atom_site_fract_z
Cl1 Cl 0.44691(2) 0.68175(9) 0.48442(3)
Cl1_2 Cl 0.55309(2) 0.68175(9) 0.01558(3)
Cl1_3 Cl 0.94691(2) 0.18175(9) 0.48442(3)
Cl1_4 Cl 0.05309(2) 0.18175(9) 0.01558(3)
Cl1_5 Cl 0.55309(2) 0.31825(9) 0.51558(3)
Cl1_6 Cl 0.44691(2) 0.31825(9) 0.98442(3)
Cl1_7 Cl 0.05309(2) 0.81825(9) 0.51558(3)
Cl1_8 Cl 0.94691(2) 0.81825(9) 0.98442(3)
Mn6 Mn 0.288736(12) 0.02708(4) 0.159170(15)
O1 O 0.08653(7) 0.7956(2) 0.40807(10)
H1 H 0.0775 0.8092 0.4373
H2 H 0.0851 0.8713 0.3914
O4 O 0.36216(7) 0.0983(2) 0.60421(9)
O5 O 0.29482(7) 0.1448(2) 0.60964(9)
Mn1 Mn 0.120025(13) 0.60878(4) 0.402903(16)
Mn2 Mn 0.211264(12) 0.52708(4) 0.340830(15)
Cl2 Cl 0.19351(2) 0.71309(8) 0.40111(3)
N1 N 0.14964(7) 0.5735(3) 0.49917(9)
N2 N 0.18427(10) 0.4638(3) 0.60588(11)
N3 N 0.06407(7) 0.5106(2) 0.43894(9)
N4 N 0.05513(8) 0.3809(3) 0.51059(10)
N5 N 0.01857(8) 0.3816(3) 0.46806(10)
N6 N 0.23109(7) 0.6779(2) 0.27730(9)
N7 N 0.26108(7) 0.8680(2) 0.21180(9)
N8 N 0.28431(7) 0.5894(2) 0.37888(8)
N9 N 0.34059(7) 0.7163(3) 0.36539(10)
N10 N 0.35286(7) 0.6448(2) 0.41359(9)
H4 H 0.3786 0.6469 0.4360
C1 C 0.19045(10) 0.6016(3) 0.52924(12)
H5 H 0.2077 0.6598 0.5144
C2 C 0.20738(11) 0.5464(4) 0.58148(14)
H6 H 0.2360 0.5675 0.6004
C3 C 0.14374(11) 0.4364(4) 0.57677(13)
H7 H 0.1265 0.3793 0.5922
C4 C 0.12615(9) 0.4912(3) 0.52335(11)
C5 C 0.08135(9) 0.4607(3) 0.49125(11)
C6 C 0.02360(9) 0.4601(3) 0.42548(11)
H11 H 0.0213 0.6274 0.3422
C14 C 0.20654(9) 0.7161(3) 0.22734(11)
H12 H 0.1788 0.6792 0.2141
C15 C 0.22172(9) 0.8099(3) 0.19484(12)
H13 H 0.2039 0.8332 0.1601
C16 C 0.28569(9) 0.8285(3) 0.26157(11)
H14 H 0.3132 0.8666 0.2751
C17 C 0.27116(9) 0.7320(3) 0.29348(10)
C18 C 0.29923(8) 0.6809(3) 0.34609(11)
C19 C 0.31939(9) 0.5699(3) 0.42166(11)
C20 C 0.32282(9) 0.4786(3) 0.46969(11)
C21 C 0.36212(9) 0.4162(3) 0.49442(13)
H15 H 0.3872 0.4386 0.4832
C22 C 0.36416(9) 0.3207(3) 0.53586(13)
H16 H 0.3906 0.2784 0.5520
C23 C 0.32698(9) 0.2868(3) 0.55376(11)
C24 C 0.28842(10) 0.3573(3) 0.53164(12)
H17 H 0.2639 0.3408 0.5450
C25 C 0.28629(10) 0.4525(3) 0.48941(12)
H18 H 0.2603 0.4987 0.4744
C26 C 0.32834(10) 0.1648(3) 0.59347(12)
O6 O 0.09846(6) 0.6155(2) 0.31508(7)
O7 O 0.14998(6) 0.5202(2) 0.27955(7)
O8 O 0.13784(7) 0.4017(2) 0.39579(9)
O9 O 0.20518(7) 0.3552(2) 0.39036(9)
N11 N 0.23892(7) 0.3680(2) 0.28820(9)
Mn4 Mn 0.379975(13) 0.89122(4) 0.597097(16)
Mn7 Mn 0.288736(12) 0.97292(4) 0.659170(15)
O2 O 0.90154(6) 0.6155(2) 0.18492(7)
O3 O 0.85002(6) 0.5202(2) 0.22045(7)
H3 H 0.9951 0.3376 0.4681
C7 C 0.98881(9) 0.4866(3) 0.37486(11)
C8 C 0.94849(10) 0.4213(4) 0.36569(12)
H8 H 0.9435 0.3599 0.3919
C9 C 0.91577(10) 0.4475(4) 0.31770(12)
H9 H 0.8890 0.4037 0.3123
C10 C 0.92239(8) 0.5379(3) 0.27766(11)
C11 C 0.96200(9) 0.6056(3) 0.28829(12)
H10 H 0.9666 0.6694 0.2627
C12 C 0.99499(10) 0.5807(3) 0.33616(12)
C13 C 0.88859(8) 0.5598(3) 0.22352(11)
Mn3 Mn 0.879975(13) 0.60878(4) 0.097097(16)
Mn5 Mn 0.788736(12) 0.52708(4) 0.159170(15)
H3_2 H 0.0049 0.3376 0.0319
C7_2 C 0.01119(9) 0.4866(3) 0.12514(11)
C8_2 C 0.05151(10) 0.4213(4) 0.13431(12)
H8_2 H 0.0565 0.3599 0.1081
C9_2 C 0.08423(10) 0.4475(4) 0.18230(12)
H9_2 H 0.1110 0.4037 0.1877
C10_2 C 0.07761(8) 0.5379(3) 0.22234(11)
C11_2 C 0.03800(9) 0.6056(3) 0.21171(12)
H10_2 H 0.0334 0.6694 0.2373
C12_2 C 0.00501(10) 0.5807(3) 0.16384(12)
C13_2 C 0.11141(8) 0.5598(3) 0.27648(11)
Mn6_2 Mn 0.711264(12) 0.02708(4) 0.340830(15)
O1_2 O 0.91347(7) 0.7956(2) 0.09193(10)
H1_2 H 0.9225 0.8092 0.0627
H2_2 H 0.9149 0.8713 0.1086
Cl2_2 Cl 0.80649(2) 0.71309(8) 0.09889(3)
N1_2 N 0.85036(7) 0.5735(3) 0.00083(9)
N3_2 N 0.93593(7) 0.5106(2) 0.06106(9)
N5_2 N 0.98143(8) 0.3816(3) 0.03194(10)
N6_2 N 0.76891(7) 0.6779(2) 0.22270(9)
N7_2 N 0.73892(7) 0.8680(2) 0.28820(9)
N8_2 N 0.71569(7) 0.5894(2) 0.12112(8)
N9_2 N 0.65941(7) 0.7163(3) 0.13461(10)
N10_2 N 0.64714(7) 0.6448(2) 0.08641(9)
H4_2 H 0.6214 0.6469 0.0640
C5_2 C 0.91865(9) 0.4607(3) 0.00875(11)
C6_2 C 0.97640(9) 0.4601(3) 0.07452(11)
H11_2 H 0.9787 0.6274 0.1578
C14_2 C 0.79346(9) 0.7161(3) 0.27266(11)
H12_2 H 0.8212 0.6792 0.2859
C15_2 C 0.77828(9) 0.8099(3) 0.30516(12)
H13_2 H 0.7961 0.8332 0.3399
C16_2 C 0.71431(9) 0.8285(3) 0.23843(11)
H14_2 H 0.6868 0.8666 0.2249
C17_2 C 0.72884(9) 0.7320(3) 0.20652(10)
C18_2 C 0.70077(8) 0.6809(3) 0.15391(11)
C19_2 C 0.68061(9) 0.5699(3) 0.07834(11)
C20_2 C 0.67718(9) 0.4786(3) 0.03031(11)
C21_2 C 0.63788(9) 0.4162(3) 0.00558(13)
H15_2 H 0.6128 0.4386 0.0168
C25_2 C 0.71371(10) 0.4525(3) 0.01059(12)
H18_2 H 0.7397 0.4987 0.0256
O8_2 O 0.86216(7) 0.4017(2) 0.10421(9)
O9_2 O 0.79482(7) 0.3552(2) 0.10964(9)
N11_2 N 0.76108(7) 0.3680(2) 0.21180(9)
O4_2 O 0.63784(7) 0.0983(2) 0.89579(9)
O5_2 O 0.70518(7) 0.1448(2) 0.89036(9)
N2_2 N 0.81573(10) 0.4638(3) 0.89412(11)
N4_2 N 0.94487(8) 0.3809(3) 0.98941(10)
C1_2 C 0.80955(10) 0.6016(3) 0.97076(12)
H5_2 H 0.7923 0.6598 0.9856
C2_2 C 0.79262(11) 0.5464(4) 0.91852(14)
H6_2 H 0.7640 0.5675 0.8996
C3_2 C 0.85626(11) 0.4364(4) 0.92323(13)
H7_2 H 0.8735 0.3793 0.9078
C4_2 C 0.87385(9) 0.4912(3) 0.97665(11)
C22_2 C 0.63584(9) 0.3207(3) 0.96414(13)
H16_2 H 0.6094 0.2784 0.9480
C23_2 C 0.67302(9) 0.2868(3) 0.94624(11)
C24_2 C 0.71158(10) 0.3573(3) 0.96836(12)
H17_2 H 0.7361 0.3408 0.9550
C26_2 C 0.67166(10) 0.1648(3) 0.90653(12)
Mn4_2 Mn 0.620025(13) 0.89122(4) 0.902903(16)
Mn7_2 Mn 0.711264(12) 0.97292(4) 0.840830(15)
O1_3 O 0.58653(7) 0.2956(2) 0.40807(10)
H1_3 H 0.5775 0.3092 0.4373
H2_3 H 0.5851 0.3713 0.3914
O2_2 O 0.40154(6) 0.1155(2) 0.18492(7)
O3_2 O 0.35002(6) 0.0202(2) 0.22045(7)
Mn1_2 Mn 0.620025(13) 0.10878(4) 0.402903(16)
Cl2_3 Cl 0.69351(2) 0.21309(8) 0.40111(3)
N1_3 N 0.64964(7) 0.0735(3) 0.49917(9)
N3_3 N 0.56407(7) 0.0106(2) 0.43894(9)
N6_3 N 0.73109(7) 0.1779(2) 0.27730(9)
N8_3 N 0.78431(7) 0.0894(2) 0.37888(8)
N9_3 N 0.84059(7) 0.2163(3) 0.36539(10)
N10_3 N 0.85286(7) 0.1448(2) 0.41359(9)
H4_3 H 0.8786 0.1469 0.4360
C1_3 C 0.69045(10) 0.1016(3) 0.52924(12)
H5_3 H 0.7077 0.1598 0.5144
C2_3 C 0.70738(11) 0.0464(4) 0.58148(14)
H6_3 H 0.7360 0.0675 0.6004
C10_3 C 0.42239(8) 0.0379(3) 0.27766(11)
C11_3 C 0.46200(9) 0.1056(3) 0.28829(12)
H10_3 H 0.4666 0.1694 0.2627
C12_3 C 0.49499(10) 0.0807(3) 0.33616(12)
H11_3 H 0.5213 0.1274 0.3422
C13_3 C 0.38859(8) 0.0598(3) 0.22352(11)
C14_3 C 0.70654(9) 0.2161(3) 0.22734(11)
H12_3 H 0.6788 0.1792 0.2141
C15_3 C 0.72172(9) 0.3099(3) 0.19484(12)
H13_3 H 0.7039 0.3332 0.1601
C16_3 C 0.78569(9) 0.3285(3) 0.26157(11)
H14_3 H 0.8132 0.3666 0.2751
C17_3 C 0.77116(9) 0.2320(3) 0.29348(10)
C18_3 C 0.79923(8) 0.1809(3) 0.34609(11)
C19_3 C 0.81939(9) 0.0699(3) 0.42166(11)
O6_2 O 0.59846(6) 0.1155(2) 0.31508(7)
O7_2 O 0.64998(6) 0.0202(2) 0.27955(7)
Mn3_2 Mn 0.379975(13) 0.10878(4) 0.097097(16)
O4_3 O 0.86216(7) 0.5983(2) 0.60421(9)
O5_3 O 0.79482(7) 0.6448(2) 0.60964(9)
N2_3 N 0.68427(10) 0.9638(3) 0.60588(11)
N4_3 N 0.55513(8) 0.8809(3) 0.51059(10)
N5_3 N 0.51857(8) 0.8816(3) 0.46806(10)
H3_3 H 0.4951 0.8376 0.4681
C3_3 C 0.64374(11) 0.9364(4) 0.57677(13)
H7_3 H 0.6265 0.8793 0.5922
C4_3 C 0.62615(9) 0.9912(3) 0.52335(11)
C5_3 C 0.58135(9) 0.9607(3) 0.49125(11)
C6_3 C 0.52360(9) 0.9601(3) 0.42548(11)
C7_3 C 0.48881(9) 0.9866(3) 0.37486(11)
C8_3 C 0.44849(10) 0.9213(4) 0.36569(12)
H8_3 H 0.4435 0.8599 0.3919
C9_3 C 0.41577(10) 0.9475(4) 0.31770(12)
H9_3 H 0.3890 0.9037 0.3123
C20_3 C 0.82282(9) 0.9786(3) 0.46969(11)
C21_3 C 0.86212(9) 0.9162(3) 0.49442(13)
H15_3 H 0.8872 0.9386 0.4832
C22_3 C 0.86416(9) 0.8207(3) 0.53586(13)
H16_3 H 0.8906 0.7784 0.5520
C23_3 C 0.82698(9) 0.7868(3) 0.55376(11)
C24_3 C 0.78842(10) 0.8573(3) 0.53164(12)
H17_3 H 0.7639 0.8408 0.5450
C25_3 C 0.78629(10) 0.9525(3) 0.48941(12)
H18_3 H 0.7603 0.9987 0.4744
C26_3 C 0.82834(10) 0.6648(3) 0.59347(12)
O8_3 O 0.63784(7) 0.9017(2) 0.39579(9)
O9_3 O 0.70518(7) 0.8552(2) 0.39036(9)
Mn4_3 Mn 0.879975(13) 0.39122(4) 0.597097(16)
Mn7_3 Mn 0.788736(12) 0.47292(4) 0.659170(15)
O1_4 O 0.41347(7) 0.2956(2) 0.09193(10)
H1_4 H 0.4225 0.3092 0.0627
H2_4 H 0.4149 0.3713 0.1086
Cl2_4 Cl 0.30649(2) 0.21309(8) 0.09889(3)
N1_4 N 0.35036(7) 0.0735(3) 0.00083(9)
N3_4 N 0.43593(7) 0.0106(2) 0.06106(9)
N6_4 N 0.26891(7) 0.1779(2) 0.22270(9)
N8_4 N 0.21569(7) 0.0894(2) 0.12112(8)
N9_4 N 0.15941(7) 0.2163(3) 0.13461(10)
N10_4 N 0.14714(7) 0.1448(2) 0.08641(9)
H4_4 H 0.1214 0.1469 0.0640
C10_4 C 0.57761(8) 0.0379(3) 0.22234(11)
C11_4 C 0.53800(9) 0.1056(3) 0.21171(12)
H10_4 H 0.5334 0.1694 0.2373
C12_4 C 0.50501(10) 0.0807(3) 0.16384(12)
H11_4 H 0.4787 0.1274 0.1578
C13_4 C 0.61141(8) 0.0598(3) 0.27648(11)
C14_4 C 0.29346(9) 0.2161(3) 0.27266(11)
H12_4 H 0.3212 0.1792 0.2859
C15_4 C 0.27828(9) 0.3099(3) 0.30516(12)
H13_4 H 0.2961 0.3332 0.3399
C16_4 C 0.21431(9) 0.3285(3) 0.23843(11)
H14_4 H 0.1868 0.3666 0.2249
C17_4 C 0.22884(9) 0.2320(3) 0.20652(10)
C18_4 C 0.20077(8) 0.1809(3) 0.15391(11)
C19_4 C 0.18061(9) 0.0699(3) 0.07834(11)
N5_4 N 0.48143(8) 0.8816(3) 0.03194(10)
H3_4 H 0.5049 0.8376 0.0319
C5_4 C 0.41865(9) 0.9607(3) 0.00875(11)
C6_4 C 0.47640(9) 0.9601(3) 0.07452(11)
C7_4 C 0.51119(9) 0.9866(3) 0.12514(11)
C8_4 C 0.55151(10) 0.9213(4) 0.13431(12)
H8_4 H 0.5565 0.8599 0.1081
C9_4 C 0.58423(10) 0.9475(4) 0.18230(12)
H9_4 H 0.6110 0.9037 0.1877
C20_4 C 0.17718(9) 0.9786(3) 0.03031(11)
C21_4 C 0.13788(9) 0.9162(3) 0.00558(13)
H15_4 H 0.1128 0.9386 0.0168
C25_4 C 0.21371(10) 0.9525(3) 0.01059(12)
H18_4 H 0.2397 0.9987 0.0256
O8_4 O 0.36216(7) 0.9017(2) 0.10421(9)
O9_4 O 0.29482(7) 0.8552(2) 0.10964(9)
O4_4 O 0.13784(7) 0.5983(2) 0.89579(9)
O5_4 O 0.20518(7) 0.6448(2) 0.89036(9)
N2_4 N 0.31573(10) 0.9638(3) 0.89412(11)
N4_4 N 0.44487(8) 0.8809(3) 0.98941(10)
C3_4 C 0.35626(11) 0.9364(4) 0.92323(13)
H7_4 H 0.3735 0.8793 0.9078
C4_4 C 0.37385(9) 0.9912(3) 0.97665(11)
C22_4 C 0.13584(9) 0.8207(3) 0.96414(13)
H16_4 H 0.1094 0.7784 0.9480
C23_4 C 0.17302(9) 0.7868(3) 0.94624(11)
C24_4 C 0.21158(10) 0.8573(3) 0.96836(12)
H17_4 H 0.2361 0.8408 0.9550
C26_4 C 0.17166(10) 0.6648(3) 0.90653(12)
Mn4_4 Mn 0.120025(13) 0.39122(4) 0.902903(16)
Mn7_4 Mn 0.211264(12) 0.47292(4) 0.840830(15)
O2_3 O 0.09846(6) 0.3845(2) 0.81508(7)
O3_3 O 0.14998(6) 0.4798(2) 0.77955(7)
H3_5 H 0.0049 0.6624 0.5319
C7_5 C 0.01119(9) 0.5134(3) 0.62514(11)
C8_5 C 0.05151(10) 0.5787(4) 0.63431(12)
H8_5 H 0.0565 0.6401 0.6081
C9_5 C 0.08423(10) 0.5525(4) 0.68230(12)
H9_5 H 0.1110 0.5963 0.6877
C10_5 C 0.07761(8) 0.4621(3) 0.72234(11)
C11_5 C 0.03800(9) 0.3944(3) 0.71171(12)
H10_5 H 0.0334 0.3306 0.7373
C12_5 C 0.00501(10) 0.4193(3) 0.66384(12)
C13_5 C 0.11141(8) 0.4402(3) 0.77648(11)
O1_5 O 0.91347(7) 0.2044(2) 0.59193(10)
H1_5 H 0.9225 0.1908 0.5627
H2_5 H 0.9149 0.1287 0.6086
Cl2_5 Cl 0.80649(2) 0.28691(8) 0.59889(3)
N1_5 N 0.85036(7) 0.4265(3) 0.50083(9)
N2_5 N 0.81573(10) 0.5362(3) 0.39412(11)
N3_5 N 0.93593(7) 0.4894(2) 0.56106(9)
N4_5 N 0.94487(8) 0.6191(3) 0.48941(10)
N5_5 N 0.98143(8) 0.6184(3) 0.53194(10)
N6_5 N 0.76891(7) 0.3221(2) 0.72270(9)
N7_3 N 0.73892(7) 0.1320(2) 0.78820(9)
N8_5 N 0.71569(7) 0.4106(2) 0.62112(8)
N9_5 N 0.65941(7) 0.2837(3) 0.63461(10)
N10_5 N 0.64714(7) 0.3552(2) 0.58641(9)
H4_5 H 0.6214 0.3531 0.5640
C1_4 C 0.80955(10) 0.3984(3) 0.47076(12)
H5_4 H 0.7923 0.3402 0.4856
C2_4 C 0.79262(11) 0.4536(4) 0.41852(14)
H6_4 H 0.7640 0.4325 0.3996
C3_5 C 0.85626(11) 0.5636(4) 0.42323(13)
H7_5 H 0.8735 0.6207 0.4078
C4_5 C 0.87385(9) 0.5088(3) 0.47665(11)
C5_5 C 0.91865(9) 0.5393(3) 0.50875(11)
C6_5 C 0.97640(9) 0.5399(3) 0.57452(11)
H11_5 H 0.9787 0.3726 0.6578
C14_5 C 0.79346(9) 0.2839(3) 0.77266(11)
H12_5 H 0.8212 0.3208 0.7859
C15_5 C 0.77828(9) 0.1901(3) 0.80516(12)
H13_5 H 0.7961 0.1668 0.8399
C16_5 C 0.71431(9) 0.1715(3) 0.73843(11)
H14_5 H 0.6868 0.1334 0.7249
C17_5 C 0.72884(9) 0.2680(3) 0.70652(10)
C18_5 C 0.70077(8) 0.3191(3) 0.65391(11)
C19_5 C 0.68061(9) 0.4301(3) 0.57834(11)
C20_5 C 0.67718(9) 0.5214(3) 0.53031(11)
C21_5 C 0.63788(9) 0.5838(3) 0.50558(13)
H15_5 H 0.6128 0.5614 0.5168
C22_5 C 0.63584(9) 0.6793(3) 0.46414(13)
H16_5 H 0.6094 0.7216 0.4480
C23_5 C 0.67302(9) 0.7132(3) 0.44624(11)
C24_5 C 0.71158(10) 0.6427(3) 0.46836(12)
H17_5 H 0.7361 0.6592 0.4550
C25_5 C 0.71371(10) 0.5475(3) 0.51059(12)
H18_5 H 0.7397 0.5013 0.5256
C26_5 C 0.67166(10) 0.8352(3) 0.40653(12)
O6_3 O 0.90154(6) 0.3845(2) 0.68492(7)
O7_3 O 0.85002(6) 0.4798(2) 0.72045(7)
N11_3 N 0.76108(7) 0.6320(2) 0.71180(9)
N2_6 N 0.18427(10) 0.5362(3) 0.10588(11)
N4_6 N 0.05513(8) 0.6191(3) 0.01059(10)
C1_5 C 0.19045(10) 0.3984(3) 0.02924(12)
H5_5 H 0.2077 0.3402 0.0144
C2_5 C 0.20738(11) 0.4536(4) 0.08148(14)
H6_5 H 0.2360 0.4325 0.1004
C3_6 C 0.14374(11) 0.5636(4) 0.07677(13)
H7_6 H 0.1265 0.6207 0.0922
C4_6 C 0.12615(9) 0.5088(3) 0.02335(11)
C22_6 C 0.36416(9) 0.6793(3) 0.03586(13)
H16_6 H 0.3906 0.7216 0.0520
C23_6 C 0.32698(9) 0.7132(3) 0.05376(11)
C24_6 C 0.28842(10) 0.6427(3) 0.03164(12)
H17_6 H 0.2639 0.6592 0.0450
C26_6 C 0.32834(10) 0.8352(3) 0.09347(12)
O1_6 O 0.08653(7) 0.2044(2) 0.90807(10)
H1_6 H 0.0775 0.1908 0.9373
H2_6 H 0.0851 0.1287 0.8914
Cl2_6 Cl 0.19351(2) 0.28691(8) 0.90111(3)
N1_6 N 0.14964(7) 0.4265(3) 0.99917(9)
N3_6 N 0.06407(7) 0.4894(2) 0.93894(9)
N5_6 N 0.01857(8) 0.6184(3) 0.96806(10)
N6_6 N 0.23109(7) 0.3221(2) 0.77730(9)
N7_4 N 0.26108(7) 0.1320(2) 0.71180(9)
N8_6 N 0.28431(7) 0.4106(2) 0.87888(8)
N9_6 N 0.34059(7) 0.2837(3) 0.86539(10)
N10_6 N 0.35286(7) 0.3552(2) 0.91359(9)
H4_6 H 0.3786 0.3531 0.9360
C5_6 C 0.08135(9) 0.5393(3) 0.99125(11)
C6_6 C 0.02360(9) 0.5399(3) 0.92548(11)
H11_6 H 0.0213 0.3726 0.8422
C14_6 C 0.20654(9) 0.2839(3) 0.72734(11)
H12_6 H 0.1788 0.3208 0.7141
C15_6 C 0.22172(9) 0.1901(3) 0.69484(12)
H13_6 H 0.2039 0.1668 0.6601
C16_6 C 0.28569(9) 0.1715(3) 0.76157(11)
H14_6 H 0.3132 0.1334 0.7751
C17_6 C 0.27116(9) 0.2680(3) 0.79348(10)
C18_6 C 0.29923(8) 0.3191(3) 0.84609(11)
C19_6 C 0.31939(9) 0.4301(3) 0.92166(11)
C20_6 C 0.32282(9) 0.5214(3) 0.96969(11)
C21_6 C 0.36212(9) 0.5838(3) 0.99442(13)
H15_6 H 0.3872 0.5614 0.9832
C25_6 C 0.28629(10) 0.5475(3) 0.98941(12)
H18_6 H 0.2603 0.5013 0.9744
N11_4 N 0.23892(7) 0.6320(2) 0.78820(9)
H3_6 H 0.9951 0.6624 0.9681
C7_6 C 0.98881(9) 0.5134(3) 0.87486(11)
C8_6 C 0.94849(10) 0.5787(4) 0.86569(12)
H8_6 H 0.9435 0.6401 0.8919
C9_6 C 0.91577(10) 0.5525(4) 0.81770(12)
H9_6 H 0.8890 0.5963 0.8123
C10_6 C 0.92239(8) 0.4621(3) 0.77766(11)
C11_6 C 0.96200(9) 0.3944(3) 0.78829(12)
H10_6 H 0.9666 0.3306 0.7627
C12_6 C 0.99499(10) 0.4193(3) 0.83616(12)
C13_6 C 0.88859(8) 0.4402(3) 0.72352(11)
N2_7 N 0.31573(10) 0.0362(3) 0.39412(11)
N4_7 N 0.44487(8) 0.1191(3) 0.48941(10)
N5_7 N 0.48143(8) 0.1184(3) 0.53194(10)
H3_7 H 0.5049 0.1624 0.5319
C3_7 C 0.35626(11) 0.0636(4) 0.42323(13)
H7_7 H 0.3735 0.1207 0.4078
C4_7 C 0.37385(9) 0.0088(3) 0.47665(11)
C5_7 C 0.41865(9) 0.0393(3) 0.50875(11)
C6_7 C 0.47640(9) 0.0399(3) 0.57452(11)
C7_7 C 0.51119(9) 0.0134(3) 0.62514(11)
C8_7 C 0.55151(10) 0.0787(4) 0.63431(12)
H8_7 H 0.5565 0.1401 0.6081
C9_7 C 0.58423(10) 0.0525(4) 0.68230(12)
H9_7 H 0.6110 0.0963 0.6877
C20_7 C 0.17718(9) 0.0214(3) 0.53031(11)
C21_7 C 0.13788(9) 0.0838(3) 0.50558(13)
H15_7 H 0.1128 0.0614 0.5168
C22_7 C 0.13584(9) 0.1793(3) 0.46414(13)
H16_7 H 0.1094 0.2216 0.4480
C23_7 C 0.17302(9) 0.2132(3) 0.44624(11)
C24_7 C 0.21158(10) 0.1427(3) 0.46836(12)
H17_7 H 0.2361 0.1592 0.4550
C25_7 C 0.21371(10) 0.0475(3) 0.51059(12)
H18_7 H 0.2397 0.0013 0.5256
C26_7 C 0.17166(10) 0.3352(3) 0.40653(12)
O1_7 O 0.41347(7) 0.7044(2) 0.59193(10)
H1_7 H 0.4225 0.6908 0.5627
H2_7 H 0.4149 0.6287 0.6086
O2_4 O 0.59846(6) 0.8845(2) 0.81508(7)
O3_4 O 0.64998(6) 0.9798(2) 0.77955(7)
Cl2_7 Cl 0.30649(2) 0.78691(8) 0.59889(3)
N1_7 N 0.35036(7) 0.9265(3) 0.50083(9)
N3_7 N 0.43593(7) 0.9894(2) 0.56106(9)
N6_7 N 0.26891(7) 0.8221(2) 0.72270(9)
N8_7 N 0.21569(7) 0.9106(2) 0.62112(8)
N9_7 N 0.15941(7) 0.7837(3) 0.63461(10)
N10_7 N 0.14714(7) 0.8552(2) 0.58641(9)
H4_7 H 0.1214 0.8531 0.5640
C1_6 C 0.30955(10) 0.8984(3) 0.47076(12)
H5_6 H 0.2923 0.8402 0.4856
C2_6 C 0.29262(11) 0.9536(4) 0.41852(14)
H6_6 H 0.2640 0.9325 0.3996
C10_7 C 0.57761(8) 0.9621(3) 0.72234(11)
C11_7 C 0.53800(9) 0.8944(3) 0.71171(12)
H10_7 H 0.5334 0.8306 0.7373
C12_7 C 0.50501(10) 0.9193(3) 0.66384(12)
H11_7 H 0.4787 0.8726 0.6578
C13_7 C 0.61141(8) 0.9402(3) 0.77648(11)
C14_7 C 0.29346(9) 0.7839(3) 0.77266(11)
H12_7 H 0.3212 0.8208 0.7859
C15_7 C 0.27828(9) 0.6901(3) 0.80516(12)
H13_7 H 0.2961 0.6668 0.8399
C16_7 C 0.21431(9) 0.6715(3) 0.73843(11)
H14_7 H 0.1868 0.6334 0.7249
C17_7 C 0.22884(9) 0.7680(3) 0.70652(10)
C18_7 C 0.20077(8) 0.8191(3) 0.65391(11)
C19_7 C 0.18061(9) 0.9301(3) 0.57834(11)
O6_4 O 0.40154(6) 0.8845(2) 0.68492(7)
O7_4 O 0.35002(6) 0.9798(2) 0.72045(7)
N2_8 N 0.68427(10) 0.0362(3) 0.10588(11)
N4_8 N 0.55513(8) 0.1191(3) 0.01059(10)
C3_8 C 0.64374(11) 0.0636(4) 0.07677(13)
H7_8 H 0.6265 0.1207 0.0922
C4_8 C 0.62615(9) 0.0088(3) 0.02335(11)
C22_8 C 0.86416(9) 0.1793(3) 0.03586(13)
H16_8 H 0.8906 0.2216 0.0520
C23_8 C 0.82698(9) 0.2132(3) 0.05376(11)
C24_8 C 0.78842(10) 0.1427(3) 0.03164(12)
H17_8 H 0.7639 0.1592 0.0450
C26_8 C 0.82834(10) 0.3352(3) 0.09347(12)
N5_8 N 0.51857(8) 0.1184(3) 0.96806(10)
H3_8 H 0.4951 0.1624 0.9681
C5_8 C 0.58135(9) 0.0393(3) 0.99125(11)
C6_8 C 0.52360(9) 0.0399(3) 0.92548(11)
C7_8 C 0.48881(9) 0.0134(3) 0.87486(11)
C8_8 C 0.44849(10) 0.0787(4) 0.86569(12)
H8_8 H 0.4435 0.1401 0.8919
C9_8 C 0.41577(10) 0.0525(4) 0.81770(12)
H9_8 H 0.3890 0.0963 0.8123
C20_8 C 0.82282(9) 0.0214(3) 0.96969(11)
C21_8 C 0.86212(9) 0.0838(3) 0.99442(13)
H15_8 H 0.8872 0.0614 0.9832
C25_8 C 0.78629(10) 0.0475(3) 0.98941(12)
H18_8 H 0.7603 0.0013 0.9744
O1_8 O 0.58653(7) 0.7044(2) 0.90807(10)
H1_8 H 0.5775 0.6908 0.9373
H2_8 H 0.5851 0.6287 0.8914
Cl2_8 Cl 0.69351(2) 0.78691(8) 0.90111(3)
N1_8 N 0.64964(7) 0.9265(3) 0.99917(9)
N3_8 N 0.56407(7) 0.9894(2) 0.93894(9)
N6_8 N 0.73109(7) 0.8221(2) 0.77730(9)
N8_8 N 0.78431(7) 0.9106(2) 0.87888(8)
N9_8 N 0.84059(7) 0.7837(3) 0.86539(10)
N10_8 N 0.85286(7) 0.8552(2) 0.91359(9)
H4_8 H 0.8786 0.8531 0.9360
C10_8 C 0.42239(8) 0.9621(3) 0.77766(11)
C11_8 C 0.46200(9) 0.8944(3) 0.78829(12)
H10_8 H 0.4666 0.8306 0.7627
C12_8 C 0.49499(10) 0.9193(3) 0.83616(12)
H11_8 H 0.5213 0.8726 0.8422
C13_8 C 0.38859(8) 0.9402(3) 0.72352(11)
C14_8 C 0.70654(9) 0.7839(3) 0.72734(11)
H12_8 H 0.6788 0.8208 0.7141
C15_8 C 0.72172(9) 0.6901(3) 0.69484(12)
H13_8 H 0.7039 0.6668 0.6601
C16_8 C 0.78569(9) 0.6715(3) 0.76157(11)
H14_8 H 0.8132 0.6334 0.7751
C17_8 C 0.77116(9) 0.7680(3) 0.79348(10)
C18_8 C 0.79923(8) 0.8191(3) 0.84609(11)
C19_8 C 0.81939(9) 0.9301(3) 0.92166(11)
C1_7 C 0.30955(10) 0.1016(3) 0.97076(12)
H5_7 H 0.2923 0.1598 0.9856
C2_7 C 0.29262(11) 0.0464(4) 0.91852(14)
H6_7 H 0.2640 0.0675 0.8996
C1_8 C 0.69045(10) 0.8984(3) 0.02924(12)
H5_8 H 0.7077 0.8402 0.0144
C2_8 C 0.70738(11) 0.9536(4) 0.08148(14)
H6_8 H 0.7360 0.9325 0.1004
loop_
_geom_bond_atom_site_label_1
_geom_bond_atom_site_label_2
_geom_bond_site_symmetry_1
_geom_bond_site_symmetry_2
O1 H1 1_555 1_555
H2 O1 1_555 1_555
O4 C26 1_555 1_555
O5 C26 1_555 1_555
Mn1 O1 1_555 1_555
Mn2 Cl2 1_555 1_555
Cl2 Mn1 1_555 1_555
N1 Mn1 1_555 1_555
N2 C2 1_555 1_555
N3 Mn1 1_555 1_555
N4 N5 1_555 1_555
N6 Mn2 1_555 1_555
N7 C15 1_555 1_555
N8 Mn2 1_555 1_555
N9 N10 1_555 1_555
N10 H4 1_555 1_555
C1 N1 1_555 1_555
H5 C1 1_555 1_555
C2 C1 1_555 1_555
H6 C2 1_555 1_555
C3 N2 1_555 1_555
H7 C3 1_555 1_555
C4 N1 1_555 1_555
C5 N3 1_555 1_555
C6 N3 1_555 1_555
C14 N6 1_555 1_555
H12 C14 1_555 1_555
C15 C14 1_555 1_555
H13 C15 1_555 1_555
C16 N7 1_555 1_555
H14 C16 1_555 1_555
C17 N6 1_555 1_555
C18 N8 1_555 1_555
C19 N8 1_555 1_555
C20 C19 1_555 1_555
C21 C20 1_555 1_555
H15 C21 1_555 1_555
C22 C21 1_555 1_555
H16 C22 1_555 1_555
C23 C22 1_555 1_555
C24 C23 1_555 1_555
H17 C24 1_555 1_555
C25 C20 1_555 1_555
H18 C25 1_555 1_555
C26 C23 1_555 1_555
O6 Mn1 1_555 1_555
O7 Mn2 1_555 1_555
O8 Mn1 1_555 1_555
O9 Mn2 1_555 1_555
N11 Mn2 1_555 1_555
N4 C5 1_555 1_555
N5 C6 1_555 1_555
N9 C18 1_555 1_555
N10 C19 1_555 1_555
C3 C4 1_555 1_555
C4 C5 1_555 1_555
C16 C17 1_555 1_555
C17 C18 1_555 1_555
C24 C25 1_555 1_555
O2 C13 1_555 1_555
O3 C13 1_555 1_555
C8 C7 1_555 1_555
H8 C8 1_555 1_555
C9 C8 1_555 1_555
H9 C9 1_555 1_555
C10 C9 1_555 1_555
C11 C10 1_555 1_555
H10 C11 1_555 1_555
C12 C7 1_555 1_555
C13 C10 1_555 1_555
Mn3 O2 1_555 1_555
Mn5 O3 1_555 1_555
C11 C12 1_555 1_555
O6 C13_2 1_555 1_555
O7 C13_2 1_555 1_555
C8_2 C7_2 1_555 1_555
H8_2 C8_2 1_555 1_555
C9_2 C8_2 1_555 1_555
H9_2 C9_2 1_555 1_555
C10_2 C9_2 1_555 1_555
C11_2 C10_2 1_555 1_555
H10_2 C11_2 1_555 1_555
C12_2 C7_2 1_555 1_555
C13_2 C10_2 1_555 1_555
C11_2 C12_2 1_555 1_555
O1_2 H1_2 1_555 1_555
H2_2 O1_2 1_555 1_555
Mn3 O1_2 1_555 1_555
Mn5 Cl2_2 1_555 1_555
Cl2_2 Mn3 1_555 1_555
N1_2 Mn3 1_555 1_555
N3_2 Mn3 1_555 1_555
N6_2 Mn5 1_555 1_555
N7_2 C15_2 1_555 1_555
N8_2 Mn5 1_555 1_555
N9_2 N10_2 1_555 1_555
N10_2 H4_2 1_555 1_555
C5_2 N3_2 1_555 1_555
C6_2 N3_2 1_555 1_555
C14_2 N6_2 1_555 1_555
H12_2 C14_2 1_555 1_555
C15_2 C14_2 1_555 1_555
H13_2 C15_2 1_555 1_555
C16_2 N7_2 1_555 1_555
H14_2 C16_2 1_555 1_555
C17_2 N6_2 1_555 1_555
C18_2 N8_2 1_555 1_555
C19_2 N8_2 1_555 1_555
C20_2 C19_2 1_555 1_555
C21_2 C20_2 1_555 1_555
H15_2 C21_2 1_555 1_555
C25_2 C20_2 1_555 1_555
H18_2 C25_2 1_555 1_555
O8_2 Mn3 1_555 1_555
O9_2 Mn5 1_555 1_555
N11_2 Mn5 1_555 1_555
N5_2 C6_2 1_555 1_555
N9_2 C18_2 1_555 1_555
N10_2 C19_2 1_555 1_555
C16_2 C17_2 1_555 1_555
C17_2 C18_2 1_555 1_555
O4_2 C26_2 1_555 1_555
O5_2 C26_2 1_555 1_555
N2_2 C2_2 1_555 1_555
H5_2 C1_2 1_555 1_555
C2_2 C1_2 1_555 1_555
H6_2 C2_2 1_555 1_555
C3_2 N2_2 1_555 1_555
H7_2 C3_2 1_555 1_555
H16_2 C22_2 1_555 1_555
C23_2 C22_2 1_555 1_555
C24_2 C23_2 1_555 1_555
H17_2 C24_2 1_555 1_555
C26_2 C23_2 1_555 1_555
C3_2 C4_2 1_555 1_555
O1_3 H1_3 1_555 1_555
H2_3 O1_3 1_555 1_555
O2_2 C13_3 1_555 1_555
O3_2 C13_3 1_555 1_555
Mn1_2 O1_3 1_555 1_555
Mn6_2 Cl2_3 1_555 1_555
Cl2_3 Mn1_2 1_555 1_555
N1_3 Mn1_2 1_555 1_555
N3_3 Mn1_2 1_555 1_555
N6_3 Mn6_2 1_555 1_555
N11_2 C15_3 1_555 1_555
N8_3 Mn6_2 1_555 1_555
N9_3 N10_3 1_555 1_555
N10_3 H4_3 1_555 1_555
C1_3 N1_3 1_555 1_555
H5_3 C1_3 1_555 1_555
C2_3 C1_3 1_555 1_555
H6_3 C2_3 1_555 1_555
C11_3 C10_3 1_555 1_555
H10_3 C11_3 1_555 1_555
H11_3 C12_3 1_555 1_555
C13_3 C10_3 1_555 1_555
C14_3 N6_3 1_555 1_555
H12_3 C14_3 1_555 1_555
C15_3 C14_3 1_555 1_555
H13_3 C15_3 1_555 1_555
C16_3 N11_2 1_555 1_555
H14_3 C16_3 1_555 1_555
C17_3 N6_3 1_555 1_555
C18_3 N8_3 1_555 1_555
C19_3 N8_3 1_555 1_555
O6_2 Mn1_2 1_555 1_555
O7_2 Mn6_2 1_555 1_555
Mn3_2 O2_2 1_555 1_555
Mn6 O3_2 1_555 1_555
N9_3 C18_3 1_555 1_555
N10_3 C19_3 1_555 1_555
C11_3 C12_3 1_555 1_555
C16_3 C17_3 1_555 1_555
C17_3 C18_3 1_555 1_555
O4_3 C26_3 1_555 1_555
O5_3 C26_3 1_555 1_555
N4_3 N5_3 1_555 1_555
N5_3 H3_3 1_555 1_555
C3_3 N2_3 1_555 1_555
H7_3 C3_3 1_555 1_555
C7_3 C6_3 1_555 1_555
C8_3 C7_3 1_555 1_555
H8_3 C8_3 1_555 1_555
C9_3 C8_3 1_555 1_555
H9_3 C9_3 1_555 1_555
C21_3 C20_3 1_555 1_555
H15_3 C21_3 1_555 1_555
C22_3 C21_3 1_555 1_555
H16_3 C22_3 1_555 1_555
C23_3 C22_3 1_555 1_555
C24_3 C23_3 1_555 1_555
H17_3 C24_3 1_555 1_555
C25_3 C20_3 1_555 1_555
H18_3 C25_3 1_555 1_555
C26_3 C23_3 1_555 1_555
Mn4_3 O4_3 1_555 1_555
Mn7_3 O5_3 1_555 1_555
N4_3 C5_3 1_555 1_555
N5_3 C6_3 1_555 1_555
C3_3 C4_3 1_555 1_555
C4_3 C5_3 1_555 1_555
C24_3 C25_3 1_555 1_555
O1_4 H1_4 1_555 1_555
H2_4 O1_4 1_555 1_555
O6_2 C13_4 1_555 1_555
O7_2 C13_4 1_555 1_555
Mn3_2 O1_4 1_555 1_555
Mn6 Cl2_4 1_555 1_555
Cl2_4 Mn3_2 1_555 1_555
N1_4 Mn3_2 1_555 1_555
N3_4 Mn3_2 1_555 1_555
N6_4 Mn6 1_555 1_555
N11 C15_4 1_555 1_555
N8_4 Mn6 1_555 1_555
N9_4 N10_4 1_555 1_555
N10_4 H4_4 1_555 1_555
C11_4 C10_4 1_555 1_555
H10_4 C11_4 1_555 1_555
H11_4 C12_4 1_555 1_555
C13_4 C10_4 1_555 1_555
C14_4 N6_4 1_555 1_555
H12_4 C14_4 1_555 1_555
C15_4 C14_4 1_555 1_555
H13_4 C15_4 1_555 1_555
C16_4 N11 1_555 1_555
H14_4 C16_4 1_555 1_555
C17_4 N6_4 1_555 1_555
C18_4 N8_4 1_555 1_555
C19_4 N8_4 1_555 1_555
N9_4 C18_4 1_555 1_555
N10_4 C19_4 1_555 1_555
C11_4 C12_4 1_555 1_555
C16_4 C17_4 1_555 1_555
C17_4 C18_4 1_555 1_555
N5_4 H3_4 1_555 1_555
C7_4 C6_4 1_555 1_555
C8_4 C7_4 1_555 1_555
H8_4 C8_4 1_555 1_555
C9_4 C8_4 1_555 1_555
H9_4 C9_4 1_555 1_555
C21_4 C20_4 1_555 1_555
H15_4 C21_4 1_555 1_555
C25_4 C20_4 1_555 1_555
H18_4 C25_4 1_555 1_555
N5_4 C6_4 1_555 1_555
O4_4 C26_4 1_555 1_555
O5_4 C26_4 1_555 1_555
C3_4 N2_4 1_555 1_555
H7_4 C3_4 1_555 1_555
H16_4 C22_4 1_555 1_555
C23_4 C22_4 1_555 1_555
C24_4 C23_4 1_555 1_555
H17_4 C24_4 1_555 1_555
C26_4 C23_4 1_555 1_555
Mn4_4 O4_4 1_555 1_555
Mn7_4 O5_4 1_555 1_555
C3_4 C4_4 1_555 1_555
O2_3 C13_5 1_555 1_555
O3_3 C13_5 1_555 1_555
C8_5 C7_5 1_555 1_555
H8_5 C8_5 1_555 1_555
C9_5 C8_5 1_555 1_555
H9_5 C9_5 1_555 1_555
C10_5 C9_5 1_555 1_555
C11_5 C10_5 1_555 1_555
H10_5 C11_5 1_555 1_555
C12_5 C7_5 1_555 1_555
C13_5 C10_5 1_555 1_555
Mn4_4 O2_3 1_555 1_555
Mn7_4 O3_3 1_555 1_555
C11_5 C12_5 1_555 1_555
O1_5 H1_5 1_555 1_555
H2_5 O1_5 1_555 1_555
O8_3 C26_5 1_555 1_555
O9_3 C26_5 1_555 1_555
Mn4_3 O1_5 1_555 1_555
Mn7_3 Cl2_5 1_555 1_555
Cl2_5 Mn4_3 1_555 1_555
N1_5 Mn4_3 1_555 1_555
N2_5 C2_4 1_555 1_555
N3_5 Mn4_3 1_555 1_555
N4_5 N5_5 1_555 1_555
N6_5 Mn7_3 1_555 1_555
N7_3 C15_5 1_555 1_555
N8_5 Mn7_3 1_555 1_555
N9_5 N10_5 1_555 1_555
N10_5 H4_5 1_555 1_555
C1_4 N1_5 1_555 1_555
H5_4 C1_4 1_555 1_555
C2_4 C1_4 1_555 1_555
H6_4 C2_4 1_555 1_555
C3_5 N2_5 1_555 1_555
H7_5 C3_5 1_555 1_555
C4_5 N1_5 1_555 1_555
C5_5 N3_5 1_555 1_555
C6_5 N3_5 1_555 1_555
C14_5 N6_5 1_555 1_555
H12_5 C14_5 1_555 1_555
C15_5 C14_5 1_555 1_555
H13_5 C15_5 1_555 1_555
C16_5 N7_3 1_555 1_555
H14_5 C16_5 1_555 1_555
C17_5 N6_5 1_555 1_555
C18_5 N8_5 1_555 1_555
C19_5 N8_5 1_555 1_555
C20_5 C19_5 1_555 1_555
C21_5 C20_5 1_555 1_555
H15_5 C21_5 1_555 1_555
C22_5 C21_5 1_555 1_555
H16_5 C22_5 1_555 1_555
C23_5 C22_5 1_555 1_555
C24_5 C23_5 1_555 1_555
H17_5 C24_5 1_555 1_555
C25_5 C20_5 1_555 1_555
H18_5 C25_5 1_555 1_555
C26_5 C23_5 1_555 1_555
O6_3 Mn4_3 1_555 1_555
O7_3 Mn7_3 1_555 1_555
N11_3 Mn7_3 1_555 1_555
N4_5 C5_5 1_555 1_555
N5_5 C6_5 1_555 1_555
N9_5 C18_5 1_555 1_555
N10_5 C19_5 1_555 1_555
C3_5 C4_5 1_555 1_555
C4_5 C5_5 1_555 1_555
C16_5 C17_5 1_555 1_555
C17_5 C18_5 1_555 1_555
C24_5 C25_5 1_555 1_555
O8_4 C26_6 1_555 1_555
O9_4 C26_6 1_555 1_555
N2_6 C2_5 1_555 1_555
H5_5 C1_5 1_555 1_555
C2_5 C1_5 1_555 1_555
H6_5 C2_5 1_555 1_555
C3_6 N2_6 1_555 1_555
H7_6 C3_6 1_555 1_555
H16_6 C22_6 1_555 1_555
C23_6 C22_6 1_555 1_555
C24_6 C23_6 1_555 1_555
H17_6 C24_6 1_555 1_555
C26_6 C23_6 1_555 1_555
C3_6 C4_6 1_555 1_555
O1_6 H1_6 1_555 1_555
H2_6 O1_6 1_555 1_555
Mn4_4 O1_6 1_555 1_555
Mn7_4 Cl2_6 1_555 1_555
Cl2_6 Mn4_4 1_555 1_555
N1_6 Mn4_4 1_555 1_555
N3_6 Mn4_4 1_555 1_555
N6_6 Mn7_4 1_555 1_555
N7_4 C15_6 1_555 1_555
N8_6 Mn7_4 1_555 1_555
N9_6 N10_6 1_555 1_555
N10_6 H4_6 1_555 1_555
C5_6 N3_6 1_555 1_555
C6_6 N3_6 1_555 1_555
C14_6 N6_6 1_555 1_555
H12_6 C14_6 1_555 1_555
C15_6 C14_6 1_555 1_555
H13_6 C15_6 1_555 1_555
C16_6 N7_4 1_555 1_555
H14_6 C16_6 1_555 1_555
C17_6 N6_6 1_555 1_555
C18_6 N8_6 1_555 1_555
C19_6 N8_6 1_555 1_555
C20_6 C19_6 1_555 1_555
C21_6 C20_6 1_555 1_555
H15_6 C21_6 1_555 1_555
C25_6 C20_6 1_555 1_555
H18_6 C25_6 1_555 1_555
N11_4 Mn7_4 1_555 1_555
N5_6 C6_6 1_555 1_555
N9_6 C18_6 1_555 1_555
N10_6 C19_6 1_555 1_555
C16_6 C17_6 1_555 1_555
C17_6 C18_6 1_555 1_555
O6_3 C13_6 1_555 1_555
O7_3 C13_6 1_555 1_555
C8_6 C7_6 1_555 1_555
H8_6 C8_6 1_555 1_555
C9_6 C8_6 1_555 1_555
H9_6 C9_6 1_555 1_555
C10_6 C9_6 1_555 1_555
C11_6 C10_6 1_555 1_555
H10_6 C11_6 1_555 1_555
C12_6 C7_6 1_555 1_555
C13_6 C10_6 1_555 1_555
C11_6 C12_6 1_555 1_555
O8 C26_7 1_555 1_555
O9 C26_7 1_555 1_555
N4_7 N5_7 1_555 1_555
N5_7 H3_7 1_555 1_555
C3_7 N2_7 1_555 1_555
H7_7 C3_7 1_555 1_555
C7_7 C6_7 1_555 1_555
C8_7 C7_7 1_555 1_555
H8_7 C8_7 1_555 1_555
C9_7 C8_7 1_555 1_555
H9_7 C9_7 1_555 1_555
C21_7 C20_7 1_555 1_555
H15_7 C21_7 1_555 1_555
C22_7 C21_7 1_555 1_555
H16_7 C22_7 1_555 1_555
C23_7 C22_7 1_555 1_555
C24_7 C23_7 1_555 1_555
H17_7 C24_7 1_555 1_555
C25_7 C20_7 1_555 1_555
H18_7 C25_7 1_555 1_555
C26_7 C23_7 1_555 1_555
N4_7 C5_7 1_555 1_555
N5_7 C6_7 1_555 1_555
C3_7 C4_7 1_555 1_555
C4_7 C5_7 1_555 1_555
C24_7 C25_7 1_555 1_555
O1_7 H1_7 1_555 1_555
H2_7 O1_7 1_555 1_555
O2_4 C13_7 1_555 1_555
O3_4 C13_7 1_555 1_555
Mn4 O1_7 1_555 1_555
Mn7 Cl2_7 1_555 1_555
Cl2_7 Mn4 1_555 1_555
N1_7 Mn4 1_555 1_555
N3_7 Mn4 1_555 1_555
N6_7 Mn7 1_555 1_555
N11_4 C15_7 1_555 1_555
N8_7 Mn7 1_555 1_555
N9_7 N10_7 1_555 1_555
N10_7 H4_7 1_555 1_555
C1_6 N1_7 1_555 1_555
H5_6 C1_6 1_555 1_555
C2_6 C1_6 1_555 1_555
H6_6 C2_6 1_555 1_555
C11_7 C10_7 1_555 1_555
H10_7 C11_7 1_555 1_555
H11_7 C12_7 1_555 1_555
C13_7 C10_7 1_555 1_555
C14_7 N6_7 1_555 1_555
H12_7 C14_7 1_555 1_555
C15_7 C14_7 1_555 1_555
H13_7 C15_7 1_555 1_555
C16_7 N11_4 1_555 1_555
H14_7 C16_7 1_555 1_555
C17_7 N6_7 1_555 1_555
C18_7 N8_7 1_555 1_555
C19_7 N8_7 1_555 1_555
O6_4 Mn4 1_555 1_555
O7_4 Mn7 1_555 1_555
Mn4_2 O2_4 1_555 1_555
Mn7_2 O3_4 1_555 1_555
N9_7 C18_7 1_555 1_555
N10_7 C19_7 1_555 1_555
C11_7 C12_7 1_555 1_555
C16_7 C17_7 1_555 1_555
C17_7 C18_7 1_555 1_555
O8_2 C26_8 1_555 1_555
O9_2 C26_8 1_555 1_555
C3_8 N2_8 1_555 1_555
H7_8 C3_8 1_555 1_555
H16_8 C22_8 1_555 1_555
C23_8 C22_8 1_555 1_555
C24_8 C23_8 1_555 1_555
H17_8 C24_8 1_555 1_555
C26_8 C23_8 1_555 1_555
C3_8 C4_8 1_555 1_555
N5_8 H3_8 1_555 1_555
C7_8 C6_8 1_555 1_555
C8_8 C7_8 1_555 1_555
H8_8 C8_8 1_555 1_555
C9_8 C8_8 1_555 1_555
H9_8 C9_8 1_555 1_555
C21_8 C20_8 1_555 1_555
H15_8 C21_8 1_555 1_555
C25_8 C20_8 1_555 1_555
H18_8 C25_8 1_555 1_555
N5_8 C6_8 1_555 1_555
O1_8 H1_8 1_555 1_555
H2_8 O1_8 1_555 1_555
O6_4 C13_8 1_555 1_555
O7_4 C13_8 1_555 1_555
Mn4_2 O1_8 1_555 1_555
Mn7_2 Cl2_8 1_555 1_555
Cl2_8 Mn4_2 1_555 1_555
N1_8 Mn4_2 1_555 1_555
N3_8 Mn4_2 1_555 1_555
N6_8 Mn7_2 1_555 1_555
N11_3 C15_8 1_555 1_555
N8_8 Mn7_2 1_555 1_555
N9_8 N10_8 1_555 1_555
N10_8 H4_8 1_555 1_555
C11_8 C10_8 1_555 1_555
H10_8 C11_8 1_555 1_555
H11_8 C12_8 1_555 1_555
C13_8 C10_8 1_555 1_555
C14_8 N6_8 1_555 1_555
H12_8 C14_8 1_555 1_555
C15_8 C14_8 1_555 1_555
H13_8 C15_8 1_555 1_555
C16_8 N11_3 1_555 1_555
H14_8 C16_8 1_555 1_555
C17_8 N6_8 1_555 1_555
C18_8 N8_8 1_555 1_555
C19_8 N8_8 1_555 1_555
N9_8 C18_8 1_555 1_555
N10_8 C19_8 1_555 1_555
C11_8 C12_8 1_555 1_555
C16_8 C17_8 1_555 1_555
C17_8 C18_8 1_555 1_555
H5_7 C1_7 1_555 1_555
C2_7 C1_7 1_555 1_555
H6_7 C2_7 1_555 1_555
H5_8 C1_8 1_555 1_555
C2_8 C1_8 1_555 1_555
H6_8 C2_8 1_555 1_555

#END
