
###############################################################################
#
# This file contains modified crystal structure data generated from the
# MOF subset of the Cambridge Structural Database (CSD) v543 
# hosted by the Cambridge Crystallographic Data Centre (CCDC).
#
# This work is licensed under the Creative Commons
# Attribution-NonCommercial-ShareAlike 4.0 International License.
# To view a copy of this license, visit
# http://creativecommons.org/licenses/by-nc-sa/4.0/
# or send a letter to
# Creative Commons, PO Box 1866, Mountain View, CA 94042, USA.
#
# CIF created using the CSD Python API on 29 September 2022
# The structure has been converted into the P1 space group
# The structure has a 3D framework
# The original CSD entry FUYNOF is in the orthorhombic crystal system
# The framework has been calculated to contain at least 10.0% void space
# The void calculation uses a probe of radius 1.32A, grid spacing 0.4
#
###############################################################################

data_FUYNOF
_chemical_formula_moiety         '(C192 H160 N64 Ni16 O64)n'
_symmetry_cell_setting           triclinic
_symmetry_space_group_name_H-M   'P 1'
_symmetry_Int_Tables_number      1
_space_group_name_Hall           'P 1'
loop_
_symmetry_equiv_pos_site_id
_symmetry_equiv_pos_as_xyz
1 x,y,z
_cell_length_a                   12.6490(12)
_cell_length_b                   22.289(2)
_cell_length_c                   23.949(2)
_cell_angle_alpha                90
_cell_angle_beta                 90
_cell_angle_gamma                90
_cell_volume                     6752.03
loop_
_atom_site_label
_atom_site_type_symbol
_atom_site_fract_x
_atom_site_fract_y
_atom_site_fract_z
C7 C 0.05295(13) 0.02348(8) 0.31813(7)
N4 N 0.12003(12) 0.05279(9) 0.35210(7)
H9 H 0.095807 0.075396 0.378234
H10 H 0.187164 0.048923 0.347684
C8 C 0.09393(13) 0.98517(8) 0.27617(7)
H6 H 0.166406 0.983212 0.269910
C9 C 0.02618(13) 0.95108(7) 0.24491(6)
C12 C 0.06935(13) 0.90928(7) 0.20095(6)
O3 O 0.00916(9) 0.86894(5) 0.18145(4)
O4 O 0.16278(9) 0.91431(5) 0.18408(5)
Ni3 Ni 0.125000 0.84318(2) 0.125000
Ni1 Ni 0.875000 0.09318(2) 0.375000
N1 N 0.80227(10) 0.02989(6) 0.42454(5)
C1 C 0.69705(13) 0.02348(8) 0.43187(7)
N2 N 0.62997(12) 0.05279(9) 0.39790(7)
H4 H 0.654193 0.075396 0.371766
H5 H 0.562836 0.048923 0.402316
N3 N 0.94773(10) 0.02989(6) 0.32546(5)
O5 O 0.99084(9) 0.11894(5) 0.43145(4)
O6 O 0.75916(9) 0.11894(5) 0.31855(4)
O7 O 0.83722(9) 0.16431(5) 0.43408(5)
O8 O 0.91278(9) 0.16431(5) 0.31592(5)
C2 C 0.65607(13) 0.98517(8) 0.47383(7)
H1 H 0.583594 0.983212 0.480090
C3 C 0.72382(13) 0.95108(7) 0.50509(6)
C4 C 0.83291(13) 0.95520(7) 0.49539(7)
H2 H 0.880511 0.931705 0.515335
C5 C 0.86731(13) 0.99495(8) 0.45556(7)
H3 H 0.939717 0.998095 0.449501
C6 C 0.68065(13) 0.90928(7) 0.54905(6)
O1 O 0.74084(9) 0.86894(5) 0.56855(4)
O2 O 0.58722(9) 0.91431(5) 0.56592(5)
C10 C 0.91709(13) 0.95520(7) 0.25461(7)
H7 H 0.869489 0.931705 0.234665
C11 C 0.88269(13) 0.99495(8) 0.29444(7)
H8 H 0.810283 0.998095 0.300499
Ni2 Ni 0.625000 0.84318(2) 0.625000
Ni1_2 Ni 0.375000 0.09318(2) 0.875000
N1_2 N 0.44773(10) 0.02989(6) 0.82546(5)
C1_2 C 0.55295(13) 0.02348(8) 0.81813(7)
N2_2 N 0.62003(12) 0.05279(9) 0.85210(7)
H4_2 H 0.595807 0.075396 0.878234
H5_2 H 0.687164 0.048923 0.847684
N3_2 N 0.30227(10) 0.02989(6) 0.92454(5)
C7_2 C 0.19705(13) 0.02348(8) 0.93187(7)
N4_2 N 0.12997(12) 0.05279(9) 0.89790(7)
H9_2 H 0.154193 0.075396 0.871766
H10_2 H 0.062836 0.048923 0.902316
O5_2 O 0.25916(9) 0.11894(5) 0.81855(4)
O6_2 O 0.49084(9) 0.11894(5) 0.93145(4)
O7_2 O 0.41278(9) 0.16431(5) 0.81592(5)
O8_2 O 0.33722(9) 0.16431(5) 0.93408(5)
C9_2 C 0.22382(13) 0.95108(7) 0.00509(6)
H7_2 H 0.380511 0.931705 0.015335
C12_2 C 0.18065(13) 0.90928(7) 0.04905(6)
O3_2 O 0.24084(9) 0.86894(5) 0.06855(4)
O4_2 O 0.08722(9) 0.91431(5) 0.06592(5)
C2_2 C 0.59393(13) 0.98517(8) 0.77617(7)
H1_2 H 0.666406 0.983212 0.769910
C3_2 C 0.52618(13) 0.95108(7) 0.74491(6)
C4_2 C 0.41709(13) 0.95520(7) 0.75461(7)
H2_2 H 0.369489 0.931705 0.734665
C5_2 C 0.38269(13) 0.99495(8) 0.79444(7)
H3_2 H 0.310283 0.998095 0.800499
C6_2 C 0.56935(13) 0.90928(7) 0.70095(6)
O1_2 O 0.50916(9) 0.86894(5) 0.68145(4)
O2_2 O 0.66278(9) 0.91431(5) 0.68408(5)
C8_2 C 0.15607(13) 0.98517(8) 0.97383(7)
H6_2 H 0.083594 0.983212 0.980090
C10_2 C 0.33291(13) 0.95520(7) 0.99539(7)
C11_2 C 0.36731(13) 0.99495(8) 0.95556(7)
H8_2 H 0.439717 0.998095 0.949501
C7_3 C 0.05295(13) 0.52348(8) 0.81813(7)
C8_3 C 0.09393(13) 0.48517(8) 0.77617(7)
H6_3 H 0.166406 0.483212 0.769910
C9_3 C 0.02618(13) 0.45108(7) 0.74491(6)
C12_3 C 0.06935(13) 0.40928(7) 0.70095(6)
O3_3 O 0.00916(9) 0.36894(5) 0.68145(4)
O4_3 O 0.16278(9) 0.41431(5) 0.68408(5)
N4_3 N 0.12003(12) 0.55279(9) 0.85210(7)
H9_3 H 0.095807 0.575396 0.878234
H10_3 H 0.187164 0.548923 0.847684
Ni3_2 Ni 0.125000 0.34318(2) 0.625000
C3_3 C 0.72382(13) 0.45108(7) 0.00509(6)
H2_3 H 0.880511 0.431705 0.015335
C6_3 C 0.68065(13) 0.40928(7) 0.04905(6)
O1_3 O 0.74084(9) 0.36894(5) 0.06855(4)
O2_3 O 0.58722(9) 0.41431(5) 0.06592(5)
Ni2_2 Ni 0.625000 0.34318(2) 0.125000
Ni1_3 Ni 0.875000 0.59318(2) 0.875000
N1_3 N 0.80227(10) 0.52989(6) 0.92454(5)
C1_3 C 0.69705(13) 0.52348(8) 0.93187(7)
C2_3 C 0.65607(13) 0.48517(8) 0.97383(7)
H1_3 H 0.583594 0.483212 0.980090
C4_3 C 0.83291(13) 0.45520(7) 0.99539(7)
C5_3 C 0.86731(13) 0.49495(8) 0.95556(7)
H3_3 H 0.939717 0.498095 0.949501
N2_3 N 0.62997(12) 0.55279(9) 0.89790(7)
H4_3 H 0.654193 0.575396 0.871766
H5_3 H 0.562836 0.548923 0.902316
N3_3 N 0.94773(10) 0.52989(6) 0.82546(5)
C10_3 C 0.91709(13) 0.45520(7) 0.75461(7)
H7_3 H 0.869489 0.431705 0.734665
C11_3 C 0.88269(13) 0.49495(8) 0.79444(7)
H8_3 H 0.810283 0.498095 0.800499
O5_3 O 0.99084(9) 0.61894(5) 0.93145(4)
O6_3 O 0.75916(9) 0.61894(5) 0.81855(4)
O7_3 O 0.83722(9) 0.66431(5) 0.93408(5)
O8_3 O 0.91278(9) 0.66431(5) 0.81592(5)
Ni1_4 Ni 0.375000 0.59318(2) 0.375000
N1_4 N 0.44773(10) 0.52989(6) 0.32546(5)
C1_4 C 0.55295(13) 0.52348(8) 0.31813(7)
C2_4 C 0.59393(13) 0.48517(8) 0.27617(7)
H1_4 H 0.666406 0.483212 0.269910
C3_4 C 0.52618(13) 0.45108(7) 0.24491(6)
C4_4 C 0.41709(13) 0.45520(7) 0.25461(7)
H2_4 H 0.369489 0.431705 0.234665
C5_4 C 0.38269(13) 0.49495(8) 0.29444(7)
H3_4 H 0.310283 0.498095 0.300499
C6_4 C 0.56935(13) 0.40928(7) 0.20095(6)
O1_4 O 0.50916(9) 0.36894(5) 0.18145(4)
O2_4 O 0.66278(9) 0.41431(5) 0.18408(5)
N2_4 N 0.62003(12) 0.55279(9) 0.35210(7)
H4_4 H 0.595807 0.575396 0.378234
H5_4 H 0.687164 0.548923 0.347684
N3_4 N 0.30227(10) 0.52989(6) 0.42454(5)
C7_4 C 0.19705(13) 0.52348(8) 0.43187(7)
C8_4 C 0.15607(13) 0.48517(8) 0.47383(7)
H6_4 H 0.083594 0.483212 0.480090
C9_4 C 0.22382(13) 0.45108(7) 0.50509(6)
C10_4 C 0.33291(13) 0.45520(7) 0.49539(7)
H7_4 H 0.380511 0.431705 0.515335
C11_4 C 0.36731(13) 0.49495(8) 0.45556(7)
H8_4 H 0.439717 0.498095 0.449501
C12_4 C 0.18065(13) 0.40928(7) 0.54905(6)
O3_4 O 0.24084(9) 0.36894(5) 0.56855(4)
O4_4 O 0.08722(9) 0.41431(5) 0.56592(5)
N4_4 N 0.12997(12) 0.55279(9) 0.39790(7)
H9_4 H 0.154193 0.575396 0.371766
H10_4 H 0.062836 0.548923 0.402316
O5_4 O 0.25916(9) 0.61894(5) 0.31855(4)
O6_4 O 0.49084(9) 0.61894(5) 0.43145(4)
O7_4 O 0.41278(9) 0.66431(5) 0.31592(5)
O8_4 O 0.33722(9) 0.66431(5) 0.43408(5)
N1_5 N 0.55227(10) 0.77989(6) 0.57546(5)
C1_5 C 0.44705(13) 0.77348(8) 0.56813(7)
C2_5 C 0.40607(13) 0.73517(8) 0.52617(7)
H1_5 H 0.333594 0.733212 0.519910
C3_5 C 0.47382(13) 0.70108(7) 0.49491(6)
C4_5 C 0.58291(13) 0.70520(7) 0.50461(7)
H2_5 H 0.630511 0.681705 0.484665
C5_5 C 0.61731(13) 0.74495(8) 0.54444(7)
H3_5 H 0.689717 0.748095 0.550499
C6_5 C 0.43065(13) 0.65928(7) 0.45095(6)
N2_5 N 0.37997(12) 0.80279(9) 0.60210(7)
H4_5 H 0.404193 0.825396 0.628234
H5_5 H 0.312836 0.798923 0.597684
N3_5 N 0.69773(10) 0.77989(6) 0.67454(5)
C7_5 C 0.80295(13) 0.77348(8) 0.68187(7)
C8_5 C 0.84393(13) 0.73517(8) 0.72383(7)
H6_5 H 0.916406 0.733212 0.730090
C9_5 C 0.77618(13) 0.70108(7) 0.75509(6)
C10_5 C 0.66709(13) 0.70520(7) 0.74539(7)
H7_5 H 0.619489 0.681705 0.765335
C11_5 C 0.63269(13) 0.74495(8) 0.70556(7)
H8_5 H 0.560283 0.748095 0.699501
C12_5 C 0.81935(13) 0.65928(7) 0.79905(6)
N4_5 N 0.87003(12) 0.80279(9) 0.64790(7)
H9_5 H 0.845807 0.825396 0.621766
H10_5 H 0.937164 0.798923 0.652316
N1_6 N 0.19773(10) 0.77989(6) 0.17454(5)
C1_6 C 0.30295(13) 0.77348(8) 0.18187(7)
C2_6 C 0.34393(13) 0.73517(8) 0.22383(7)
H1_6 H 0.416406 0.733212 0.230090
C3_6 C 0.27618(13) 0.70108(7) 0.25509(6)
C4_6 C 0.16709(13) 0.70520(7) 0.24539(7)
H2_6 H 0.119489 0.681705 0.265335
C5_6 C 0.13269(13) 0.74495(8) 0.20556(7)
H3_6 H 0.060283 0.748095 0.199501
C6_6 C 0.31935(13) 0.65928(7) 0.29905(6)
N2_6 N 0.37003(12) 0.80279(9) 0.14790(7)
H4_6 H 0.345807 0.825396 0.121766
H5_6 H 0.437164 0.798923 0.152316
N3_6 N 0.05227(10) 0.77989(6) 0.07546(5)
C10_6 C 0.08291(13) 0.70520(7) 0.00461(7)
C11_6 C 0.11731(13) 0.74495(8) 0.04444(7)
H8_6 H 0.189717 0.748095 0.050499
C9_6 C 0.97382(13) 0.70108(7) 0.99491(6)
C12_6 C 0.93065(13) 0.65928(7) 0.95095(6)
N1_7 N 0.55227(10) 0.27989(6) 0.07546(5)
C1_7 C 0.44705(13) 0.27348(8) 0.06813(7)
C2_7 C 0.40607(13) 0.23517(8) 0.02617(7)
H1_7 H 0.333594 0.233212 0.019910
C4_7 C 0.58291(13) 0.20520(7) 0.00461(7)
C5_7 C 0.61731(13) 0.24495(8) 0.04444(7)
H3_7 H 0.689717 0.248095 0.050499
N2_7 N 0.37997(12) 0.30279(9) 0.10210(7)
H4_7 H 0.404193 0.325396 0.128234
H5_7 H 0.312836 0.298923 0.097684
N3_7 N 0.69773(10) 0.27989(6) 0.17454(5)
C7_6 C 0.80295(13) 0.27348(8) 0.18187(7)
C8_6 C 0.84393(13) 0.23517(8) 0.22383(7)
H6_6 H 0.916406 0.233212 0.230090
C9_7 C 0.77618(13) 0.20108(7) 0.25509(6)
C10_7 C 0.66709(13) 0.20520(7) 0.24539(7)
H7_6 H 0.619489 0.181705 0.265335
C11_7 C 0.63269(13) 0.24495(8) 0.20556(7)
H8_7 H 0.560283 0.248095 0.199501
C12_7 C 0.81935(13) 0.15928(7) 0.29905(6)
N4_6 N 0.87003(12) 0.30279(9) 0.14790(7)
H9_6 H 0.845807 0.325396 0.121766
H10_6 H 0.937164 0.298923 0.152316
C3_7 C 0.47382(13) 0.20108(7) 0.99491(6)
H2_7 H 0.630511 0.181705 0.984665
C6_7 C 0.43065(13) 0.15928(7) 0.95095(6)
N1_8 N 0.19773(10) 0.27989(6) 0.67454(5)
C1_8 C 0.30295(13) 0.27348(8) 0.68187(7)
C2_8 C 0.34393(13) 0.23517(8) 0.72383(7)
H1_8 H 0.416406 0.233212 0.730090
C3_8 C 0.27618(13) 0.20108(7) 0.75509(6)
C4_8 C 0.16709(13) 0.20520(7) 0.74539(7)
H2_8 H 0.119489 0.181705 0.765335
C5_8 C 0.13269(13) 0.24495(8) 0.70556(7)
H3_8 H 0.060283 0.248095 0.699501
C6_8 C 0.31935(13) 0.15928(7) 0.79905(6)
N2_8 N 0.37003(12) 0.30279(9) 0.64790(7)
H4_8 H 0.345807 0.325396 0.621766
H5_8 H 0.437164 0.298923 0.652316
N3_8 N 0.05227(10) 0.27989(6) 0.57546(5)
C10_8 C 0.08291(13) 0.20520(7) 0.50461(7)
H7_7 H 0.130511 0.181705 0.484665
C11_8 C 0.11731(13) 0.24495(8) 0.54444(7)
H8_8 H 0.189717 0.248095 0.550499
C7_7 C 0.94705(13) 0.27348(8) 0.56813(7)
C8_7 C 0.90607(13) 0.23517(8) 0.52617(7)
H6_7 H 0.833594 0.233212 0.519910
C9_8 C 0.97382(13) 0.20108(7) 0.49491(6)
C12_8 C 0.93065(13) 0.15928(7) 0.45095(6)
N4_7 N 0.87997(12) 0.30279(9) 0.60210(7)
H9_7 H 0.904193 0.325396 0.628234
H10_7 H 0.812836 0.298923 0.597684
Ni1_5 Ni 0.375000 0.15682(2) 0.375000
N1_9 N 0.44773(10) 0.22011(6) 0.42454(5)
C1_9 C 0.55295(13) 0.22652(8) 0.43187(7)
C2_9 C 0.59393(13) 0.26483(8) 0.47383(7)
H1_9 H 0.666406 0.266788 0.480090
C3_9 C 0.52618(13) 0.29892(7) 0.50509(6)
C4_9 C 0.41709(13) 0.29480(7) 0.49539(7)
H2_9 H 0.369489 0.318295 0.515335
C5_9 C 0.38269(13) 0.25505(8) 0.45556(7)
H3_9 H 0.310283 0.251905 0.449501
C6_9 C 0.56935(13) 0.34072(7) 0.54905(6)
O1_5 O 0.50916(9) 0.38106(5) 0.56855(4)
O2_5 O 0.66278(9) 0.33569(5) 0.56592(5)
N2_9 N 0.62003(12) 0.19721(9) 0.39790(7)
H4_9 H 0.595807 0.174604 0.371766
H5_9 H 0.687164 0.201077 0.402316
N3_9 N 0.30227(10) 0.22011(6) 0.32546(5)
C7_8 C 0.19705(13) 0.22652(8) 0.31813(7)
C8_8 C 0.15607(13) 0.26483(8) 0.27617(7)
H6_8 H 0.083594 0.266788 0.269910
C9_9 C 0.22382(13) 0.29892(7) 0.24491(6)
C10_9 C 0.33291(13) 0.29480(7) 0.25461(7)
H7_8 H 0.380511 0.318295 0.234665
C11_9 C 0.36731(13) 0.25505(8) 0.29444(7)
H8_9 H 0.439717 0.251905 0.300499
C12_9 C 0.18065(13) 0.34072(7) 0.20095(6)
O3_5 O 0.24084(9) 0.38106(5) 0.18145(4)
O4_5 O 0.08722(9) 0.33569(5) 0.18408(5)
N4_8 N 0.12997(12) 0.19721(9) 0.35210(7)
H9_8 H 0.154193 0.174604 0.378234
H10_8 H 0.062836 0.201077 0.347684
Ni2_3 Ni 0.625000 0.40682(2) 0.625000
Ni3_3 Ni 0.125000 0.40682(2) 0.125000
O5_5 O 0.25916(9) 0.13106(5) 0.43145(4)
O6_5 O 0.49084(9) 0.13106(5) 0.31855(4)
O7_5 O 0.41278(9) 0.08569(5) 0.43408(5)
O8_5 O 0.33722(9) 0.08569(5) 0.31592(5)
C9_10 C 0.02618(13) 0.29892(7) 0.00509(6)
C12_10 C 0.06935(13) 0.34072(7) 0.04905(6)
O3_6 O 0.00916(9) 0.38106(5) 0.06855(4)
O4_6 O 0.16278(9) 0.33569(5) 0.06592(5)
Ni1_6 Ni 0.875000 0.15682(2) 0.875000
N1_10 N 0.80227(10) 0.22011(6) 0.82546(5)
C1_10 C 0.69705(13) 0.22652(8) 0.81813(7)
C2_10 C 0.65607(13) 0.26483(8) 0.77617(7)
H1_10 H 0.583594 0.266788 0.769910
C3_10 C 0.72382(13) 0.29892(7) 0.74491(6)
C4_10 C 0.83291(13) 0.29480(7) 0.75461(7)
H2_10 H 0.880511 0.318295 0.734665
C5_10 C 0.86731(13) 0.25505(8) 0.79444(7)
H3_10 H 0.939717 0.251905 0.800499
C6_10 C 0.68065(13) 0.34072(7) 0.70095(6)
O1_6 O 0.74084(9) 0.38106(5) 0.68145(4)
O2_6 O 0.58722(9) 0.33569(5) 0.68408(5)
N2_10 N 0.62997(12) 0.19721(9) 0.85210(7)
H4_10 H 0.654193 0.174604 0.878234
H5_10 H 0.562836 0.201077 0.847684
N3_10 N 0.94773(10) 0.22011(6) 0.92454(5)
C10_10 C 0.91709(13) 0.29480(7) 0.99539(7)
C11_10 C 0.88269(13) 0.25505(8) 0.95556(7)
H8_10 H 0.810283 0.251905 0.949501
O5_6 O 0.99084(9) 0.13106(5) 0.81855(4)
O6_6 O 0.75916(9) 0.13106(5) 0.93145(4)
O7_6 O 0.83722(9) 0.08569(5) 0.81592(5)
O8_6 O 0.91278(9) 0.08569(5) 0.93408(5)
C3_11 C 0.52618(13) 0.79892(7) 0.00509(6)
H2_11 H 0.369489 0.818295 0.015335
C6_11 C 0.56935(13) 0.84072(7) 0.04905(6)
O1_7 O 0.50916(9) 0.88106(5) 0.06855(4)
O2_7 O 0.66278(9) 0.83569(5) 0.06592(5)
Ni2_4 Ni 0.625000 0.90682(2) 0.125000
Ni1_7 Ni 0.375000 0.65682(2) 0.875000
N1_11 N 0.44773(10) 0.72011(6) 0.92454(5)
C1_11 C 0.55295(13) 0.72652(8) 0.93187(7)
C2_11 C 0.59393(13) 0.76483(8) 0.97383(7)
H1_11 H 0.666406 0.766788 0.980090
C4_11 C 0.41709(13) 0.79480(7) 0.99539(7)
C5_11 C 0.38269(13) 0.75505(8) 0.95556(7)
H3_11 H 0.310283 0.751905 0.949501
N2_11 N 0.62003(12) 0.69721(9) 0.89790(7)
H4_11 H 0.595807 0.674604 0.871766
H5_11 H 0.687164 0.701077 0.902316
N3_11 N 0.30227(10) 0.72011(6) 0.82546(5)
C7_9 C 0.19705(13) 0.72652(8) 0.81813(7)
C8_9 C 0.15607(13) 0.76483(8) 0.77617(7)
H6_9 H 0.083594 0.766788 0.769910
C9_11 C 0.22382(13) 0.79892(7) 0.74491(6)
C10_11 C 0.33291(13) 0.79480(7) 0.75461(7)
H7_9 H 0.380511 0.818295 0.734665
C11_11 C 0.36731(13) 0.75505(8) 0.79444(7)
H8_11 H 0.439717 0.751905 0.800499
C12_11 C 0.18065(13) 0.84072(7) 0.70095(6)
O3_7 O 0.24084(9) 0.88106(5) 0.68145(4)
O4_7 O 0.08722(9) 0.83569(5) 0.68408(5)
N4_9 N 0.12997(12) 0.69721(9) 0.85210(7)
H9_9 H 0.154193 0.674604 0.878234
H10_9 H 0.062836 0.701077 0.847684
Ni3_4 Ni 0.125000 0.90682(2) 0.625000
O5_7 O 0.25916(9) 0.63106(5) 0.93145(4)
O6_7 O 0.49084(9) 0.63106(5) 0.81855(4)
O7_7 O 0.41278(9) 0.58569(5) 0.93408(5)
O8_7 O 0.33722(9) 0.58569(5) 0.81592(5)
C7_10 C 0.05295(13) 0.72652(8) 0.43187(7)
C8_10 C 0.09393(13) 0.76483(8) 0.47383(7)
H6_10 H 0.166406 0.766788 0.480090
C9_12 C 0.02618(13) 0.79892(7) 0.50509(6)
C12_12 C 0.06935(13) 0.84072(7) 0.54905(6)
O3_8 O 0.00916(9) 0.88106(5) 0.56855(4)
O4_8 O 0.16278(9) 0.83569(5) 0.56592(5)
N4_10 N 0.12003(12) 0.69721(9) 0.39790(7)
H9_10 H 0.095807 0.674604 0.371766
H10_10 H 0.187164 0.701077 0.402316
Ni1_8 Ni 0.875000 0.65682(2) 0.375000
N1_12 N 0.80227(10) 0.72011(6) 0.32546(5)
C1_12 C 0.69705(13) 0.72652(8) 0.31813(7)
C2_12 C 0.65607(13) 0.76483(8) 0.27617(7)
H1_12 H 0.583594 0.766788 0.269910
C3_12 C 0.72382(13) 0.79892(7) 0.24491(6)
C4_12 C 0.83291(13) 0.79480(7) 0.25461(7)
H2_12 H 0.880511 0.818295 0.234665
C5_12 C 0.86731(13) 0.75505(8) 0.29444(7)
H3_12 H 0.939717 0.751905 0.300499
C6_12 C 0.68065(13) 0.84072(7) 0.20095(6)
O1_8 O 0.74084(9) 0.88106(5) 0.18145(4)
O2_8 O 0.58722(9) 0.83569(5) 0.18408(5)
N2_12 N 0.62997(12) 0.69721(9) 0.35210(7)
H4_12 H 0.654193 0.674604 0.378234
H5_12 H 0.562836 0.701077 0.347684
N3_12 N 0.94773(10) 0.72011(6) 0.42454(5)
C10_12 C 0.91709(13) 0.79480(7) 0.49539(7)
H7_10 H 0.869489 0.818295 0.515335
C11_12 C 0.88269(13) 0.75505(8) 0.45556(7)
H8_12 H 0.810283 0.751905 0.449501
O5_8 O 0.99084(9) 0.63106(5) 0.31855(4)
O6_8 O 0.75916(9) 0.63106(5) 0.43145(4)
O7_8 O 0.83722(9) 0.58569(5) 0.31592(5)
O8_8 O 0.91278(9) 0.58569(5) 0.43408(5)
C2_13 C 0.34393(13) 0.01483(8) 0.52617(7)
H1_13 H 0.416406 0.016788 0.519910
C3_13 C 0.27618(13) 0.04892(7) 0.49491(6)
C4_13 C 0.16709(13) 0.04480(7) 0.50461(7)
H2_13 H 0.119489 0.068295 0.484665
C5_13 C 0.13269(13) 0.00505(8) 0.54444(7)
H3_13 H 0.060283 0.001905 0.550499
C6_13 C 0.31935(13) 0.09072(7) 0.45095(6)
C10_13 C 0.08291(13) 0.04480(7) 0.74539(7)
H7_11 H 0.130511 0.068295 0.765335
C11_13 C 0.11731(13) 0.00505(8) 0.70556(7)
H8_13 H 0.189717 0.001905 0.699501
N1_13 N 0.19773(10) 0.97011(6) 0.57546(5)
C1_13 C 0.30295(13) 0.97652(8) 0.56813(7)
N2_13 N 0.37003(12) 0.94721(9) 0.60210(7)
H4_13 H 0.345807 0.924604 0.628234
H5_13 H 0.437164 0.951077 0.597684
N3_13 N 0.05227(10) 0.97011(6) 0.67454(5)
C8_11 C 0.90607(13) 0.01483(8) 0.72383(7)
H6_11 H 0.833594 0.016788 0.730090
C9_13 C 0.97382(13) 0.04892(7) 0.75509(6)
C12_13 C 0.93065(13) 0.09072(7) 0.79905(6)
C2_14 C 0.40607(13) 0.01483(8) 0.22383(7)
H1_14 H 0.333594 0.016788 0.230090
C3_14 C 0.47382(13) 0.04892(7) 0.25509(6)
C4_14 C 0.58291(13) 0.04480(7) 0.24539(7)
H2_14 H 0.630511 0.068295 0.265335
C5_14 C 0.61731(13) 0.00505(8) 0.20556(7)
H3_14 H 0.689717 0.001905 0.199501
C6_14 C 0.43065(13) 0.09072(7) 0.29905(6)
C8_12 C 0.84393(13) 0.01483(8) 0.02617(7)
H6_12 H 0.916406 0.016788 0.019910
C10_14 C 0.66709(13) 0.04480(7) 0.00461(7)
C11_14 C 0.63269(13) 0.00505(8) 0.04444(7)
H8_14 H 0.560283 0.001905 0.050499
C9_14 C 0.77618(13) 0.04892(7) 0.99491(6)
H7_12 H 0.619489 0.068295 0.984665
C12_14 C 0.81935(13) 0.09072(7) 0.95095(6)
N1_14 N 0.55227(10) 0.97011(6) 0.17454(5)
C1_14 C 0.44705(13) 0.97652(8) 0.18187(7)
N2_14 N 0.37997(12) 0.94721(9) 0.14790(7)
H4_14 H 0.404193 0.924604 0.121766
H5_14 H 0.312836 0.951077 0.152316
N3_14 N 0.69773(10) 0.97011(6) 0.07546(5)
C7_11 C 0.80295(13) 0.97652(8) 0.06813(7)
N4_11 N 0.87003(12) 0.94721(9) 0.10210(7)
H9_11 H 0.845807 0.924604 0.128234
H10_11 H 0.937164 0.951077 0.097684
N1_15 N 0.19773(10) 0.47011(6) 0.07546(5)
C1_15 C 0.30295(13) 0.47652(8) 0.06813(7)
C2_15 C 0.34393(13) 0.51483(8) 0.02617(7)
H1_15 H 0.416406 0.516788 0.019910
C4_15 C 0.16709(13) 0.54480(7) 0.00461(7)
C5_15 C 0.13269(13) 0.50505(8) 0.04444(7)
H3_15 H 0.060283 0.501905 0.050499
N2_15 N 0.37003(12) 0.44721(9) 0.10210(7)
H4_15 H 0.345807 0.424604 0.128234
H5_15 H 0.437164 0.451077 0.097684
N3_15 N 0.05227(10) 0.47011(6) 0.17454(5)
C10_15 C 0.08291(13) 0.54480(7) 0.24539(7)
H7_13 H 0.130511 0.568295 0.265335
C11_15 C 0.11731(13) 0.50505(8) 0.20556(7)
H8_15 H 0.189717 0.501905 0.199501
C3_15 C 0.27618(13) 0.54892(7) 0.99491(6)
H2_15 H 0.119489 0.568295 0.984665
C6_15 C 0.31935(13) 0.59072(7) 0.95095(6)
C7_12 C 0.94705(13) 0.47652(8) 0.18187(7)
C8_13 C 0.90607(13) 0.51483(8) 0.22383(7)
H6_13 H 0.833594 0.516788 0.230090
C9_15 C 0.97382(13) 0.54892(7) 0.25509(6)
C12_15 C 0.93065(13) 0.59072(7) 0.29905(6)
N4_12 N 0.87997(12) 0.44721(9) 0.14790(7)
H9_12 H 0.904193 0.424604 0.121766
H10_12 H 0.812836 0.451077 0.152316
N1_16 N 0.55227(10) 0.47011(6) 0.67454(5)
C1_16 C 0.44705(13) 0.47652(8) 0.68187(7)
C2_16 C 0.40607(13) 0.51483(8) 0.72383(7)
H1_16 H 0.333594 0.516788 0.730090
C3_16 C 0.47382(13) 0.54892(7) 0.75509(6)
C4_16 C 0.58291(13) 0.54480(7) 0.74539(7)
H2_16 H 0.630511 0.568295 0.765335
C5_16 C 0.61731(13) 0.50505(8) 0.70556(7)
H3_16 H 0.689717 0.501905 0.699501
C6_16 C 0.43065(13) 0.59072(7) 0.79905(6)
N2_16 N 0.37997(12) 0.44721(9) 0.64790(7)
H4_16 H 0.404193 0.424604 0.621766
H5_16 H 0.312836 0.451077 0.652316
N3_16 N 0.69773(10) 0.47011(6) 0.57546(5)
C7_13 C 0.80295(13) 0.47652(8) 0.56813(7)
C8_14 C 0.84393(13) 0.51483(8) 0.52617(7)
H6_14 H 0.916406 0.516788 0.519910
C9_16 C 0.77618(13) 0.54892(7) 0.49491(6)
C10_16 C 0.66709(13) 0.54480(7) 0.50461(7)
H7_14 H 0.619489 0.568295 0.484665
C11_16 C 0.63269(13) 0.50505(8) 0.54444(7)
H8_16 H 0.560283 0.501905 0.550499
C12_16 C 0.81935(13) 0.59072(7) 0.45095(6)
N4_13 N 0.87003(12) 0.44721(9) 0.60210(7)
H9_13 H 0.845807 0.424604 0.628234
H10_13 H 0.937164 0.451077 0.597684
C7_14 C 0.05295(13) 0.22652(8) 0.93187(7)
C8_15 C 0.09393(13) 0.26483(8) 0.97383(7)
H6_15 H 0.166406 0.266788 0.980090
N4_14 N 0.12003(12) 0.19721(9) 0.89790(7)
H9_14 H 0.095807 0.174604 0.871766
H10_14 H 0.187164 0.201077 0.902316
H7_15 H 0.869489 0.318295 0.015335
C7_15 C 0.94705(13) 0.97652(8) 0.68187(7)
N4_15 N 0.87997(12) 0.94721(9) 0.64790(7)
H9_15 H 0.904193 0.924604 0.621766
H10_15 H 0.812836 0.951077 0.652316
H7_16 H 0.130511 0.681705 0.984665
C7_16 C 0.94705(13) 0.77348(8) 0.06813(7)
C8_16 C 0.90607(13) 0.73517(8) 0.02617(7)
H6_16 H 0.833594 0.733212 0.019910
N4_16 N 0.87997(12) 0.80279(9) 0.10210(7)
H9_16 H 0.904193 0.825396 0.128234
H10_16 H 0.812836 0.798923 0.097684
loop_
_geom_bond_atom_site_label_1
_geom_bond_atom_site_label_2
_geom_bond_site_symmetry_1
_geom_bond_site_symmetry_2
N4 C7 1_555 1_555
H9 N4 1_555 1_555
H10 N4 1_555 1_555
H6 C8 1_555 1_555
C9 C8 1_555 1_555
C12 C9 1_555 1_555
O3 C12 1_555 1_555
O4 C12 1_555 1_555
Ni3 O3 1_555 1_555
O4 Ni3 1_555 1_555
Ni1 N1 1_555 1_555
N1 C1 1_555 1_555
N2 C1 1_555 1_555
H4 N2 1_555 1_555
H5 N2 1_555 1_555
N3 Ni1 1_555 1_555
O5 Ni1 1_555 1_555
O6 Ni1 1_555 1_555
O7 Ni1 1_555 1_555
O8 Ni1 1_555 1_555
C2 H1 1_555 1_555
C3 C2 1_555 1_555
C4 C3 1_555 1_555
H2 C4 1_555 1_555
H3 C5 1_555 1_555
C6 C3 1_555 1_555
O1 C6 1_555 1_555
O2 C6 1_555 1_555
H7 C10 1_555 1_555
H8 C11 1_555 1_555
Ni2 O1 1_555 1_555
C4 C5 1_555 1_555
O2 Ni2 1_555 1_555
C10 C11 1_555 1_555
Ni1_2 N1_2 1_555 1_555
N1_2 C1_2 1_555 1_555
N2_2 C1_2 1_555 1_555
H4_2 N2_2 1_555 1_555
H5_2 N2_2 1_555 1_555
N3_2 Ni1_2 1_555 1_555
C7_2 N3_2 1_555 1_555
N4_2 C7_2 1_555 1_555
H9_2 N4_2 1_555 1_555
H10_2 N4_2 1_555 1_555
O5_2 Ni1_2 1_555 1_555
O6_2 Ni1_2 1_555 1_555
O7_2 Ni1_2 1_555 1_555
O8_2 Ni1_2 1_555 1_555
C12_2 C9_2 1_555 1_555
O3_2 C12_2 1_555 1_555
O4_2 C12_2 1_555 1_555
Ni3 O3_2 1_555 1_555
O4_2 Ni3 1_555 1_555
C2_2 H1_2 1_555 1_555
C3_2 C2_2 1_555 1_555
C4_2 C3_2 1_555 1_555
H2_2 C4_2 1_555 1_555
H3_2 C5_2 1_555 1_555
C6_2 C3_2 1_555 1_555
O1_2 C6_2 1_555 1_555
O2_2 C6_2 1_555 1_555
H6_2 C8_2 1_555 1_555
H8_2 C11_2 1_555 1_555
Ni2 O1_2 1_555 1_555
C4_2 C5_2 1_555 1_555
O2_2 Ni2 1_555 1_555
C10_2 C11_2 1_555 1_555
C8_3 C7_3 1_555 1_555
H6_3 C8_3 1_555 1_555
C9_3 C8_3 1_555 1_555
C12_3 C9_3 1_555 1_555
O3_3 C12_3 1_555 1_555
O4_3 C12_3 1_555 1_555
N4_3 C7_3 1_555 1_555
H9_3 N4_3 1_555 1_555
H10_3 N4_3 1_555 1_555
Ni3_2 O3_3 1_555 1_555
O4_3 Ni3_2 1_555 1_555
C6_3 C3_3 1_555 1_555
O1_3 C6_3 1_555 1_555
O2_3 C6_3 1_555 1_555
Ni2_2 O1_3 1_555 1_555
O2_3 Ni2_2 1_555 1_555
Ni1_3 N1_3 1_555 1_555
N1_3 C1_3 1_555 1_555
C1_3 C2_3 1_555 1_555
C2_3 H1_3 1_555 1_555
C5_3 N1_3 1_555 1_555
H3_3 C5_3 1_555 1_555
N2_3 C1_3 1_555 1_555
H4_3 N2_3 1_555 1_555
H5_3 N2_3 1_555 1_555
N3_3 Ni1_3 1_555 1_555
H7_3 C10_3 1_555 1_555
C11_3 N3_3 1_555 1_555
H8_3 C11_3 1_555 1_555
O5_3 Ni1_3 1_555 1_555
O6_3 Ni1_3 1_555 1_555
O7_3 Ni1_3 1_555 1_555
O8_3 Ni1_3 1_555 1_555
C4_3 C5_3 1_555 1_555
C10_3 C11_3 1_555 1_555
Ni1_4 N1_4 1_555 1_555
N1_4 C1_4 1_555 1_555
C1_4 C2_4 1_555 1_555
C2_4 H1_4 1_555 1_555
C3_4 C2_4 1_555 1_555
C4_4 C3_4 1_555 1_555
H2_4 C4_4 1_555 1_555
C5_4 N1_4 1_555 1_555
H3_4 C5_4 1_555 1_555
C6_4 C3_4 1_555 1_555
O1_4 C6_4 1_555 1_555
O2_4 C6_4 1_555 1_555
N2_4 C1_4 1_555 1_555
H4_4 N2_4 1_555 1_555
H5_4 N2_4 1_555 1_555
N3_4 Ni1_4 1_555 1_555
C7_4 N3_4 1_555 1_555
C8_4 C7_4 1_555 1_555
H6_4 C8_4 1_555 1_555
C9_4 C8_4 1_555 1_555
C10_4 C9_4 1_555 1_555
H7_4 C10_4 1_555 1_555
C11_4 N3_4 1_555 1_555
H8_4 C11_4 1_555 1_555
C12_4 C9_4 1_555 1_555
O3_4 C12_4 1_555 1_555
O4_4 C12_4 1_555 1_555
N4_4 C7_4 1_555 1_555
H9_4 N4_4 1_555 1_555
H10_4 N4_4 1_555 1_555
Ni2_2 O1_4 1_555 1_555
Ni3_2 O3_4 1_555 1_555
O5_4 Ni1_4 1_555 1_555
O6_4 Ni1_4 1_555 1_555
O7_4 Ni1_4 1_555 1_555
O8_4 Ni1_4 1_555 1_555
C4_4 C5_4 1_555 1_555
O2_4 Ni2_2 1_555 1_555
C10_4 C11_4 1_555 1_555
O4_4 Ni3_2 1_555 1_555
Ni2 N1_5 1_555 1_555
N1_5 C1_5 1_555 1_555
C1_5 C2_5 1_555 1_555
C2_5 H1_5 1_555 1_555
C3_5 C2_5 1_555 1_555
C4_5 C3_5 1_555 1_555
H2_5 C4_5 1_555 1_555
C5_5 N1_5 1_555 1_555
H3_5 C5_5 1_555 1_555
C6_5 C3_5 1_555 1_555
O6_4 C6_5 1_555 1_555
O8_4 C6_5 1_555 1_555
N2_5 C1_5 1_555 1_555
H4_5 N2_5 1_555 1_555
H5_5 N2_5 1_555 1_555
N3_5 Ni2 1_555 1_555
C7_5 N3_5 1_555 1_555
C8_5 C7_5 1_555 1_555
H6_5 C8_5 1_555 1_555
C9_5 C8_5 1_555 1_555
C10_5 C9_5 1_555 1_555
H7_5 C10_5 1_555 1_555
C11_5 N3_5 1_555 1_555
H8_5 C11_5 1_555 1_555
C12_5 C9_5 1_555 1_555
O6_3 C12_5 1_555 1_555
O8_3 C12_5 1_555 1_555
N4_5 C7_5 1_555 1_555
H9_5 N4_5 1_555 1_555
H10_5 N4_5 1_555 1_555
C4_5 C5_5 1_555 1_555
C10_5 C11_5 1_555 1_555
Ni3 N1_6 1_555 1_555
N1_6 C1_6 1_555 1_555
C1_6 C2_6 1_555 1_555
C2_6 H1_6 1_555 1_555
C3_6 C2_6 1_555 1_555
C4_6 C3_6 1_555 1_555
H2_6 C4_6 1_555 1_555
C5_6 N1_6 1_555 1_555
H3_6 C5_6 1_555 1_555
C6_6 C3_6 1_555 1_555
O5_4 C6_6 1_555 1_555
O7_4 C6_6 1_555 1_555
N2_6 C1_6 1_555 1_555
H4_6 N2_6 1_555 1_555
H5_6 N2_6 1_555 1_555
N3_6 Ni3 1_555 1_555
C11_6 N3_6 1_555 1_555
H8_6 C11_6 1_555 1_555
C4_6 C5_6 1_555 1_555
C10_6 C11_6 1_555 1_555
C12_6 C9_6 1_555 1_555
O5_3 C12_6 1_555 1_555
O7_3 C12_6 1_555 1_555
Ni2_2 N1_7 1_555 1_555
N1_7 C1_7 1_555 1_555
C1_7 C2_7 1_555 1_555
C2_7 H1_7 1_555 1_555
C5_7 N1_7 1_555 1_555
H3_7 C5_7 1_555 1_555
N2_7 C1_7 1_555 1_555
H4_7 N2_7 1_555 1_555
H5_7 N2_7 1_555 1_555
N3_7 Ni2_2 1_555 1_555
C7_6 N3_7 1_555 1_555
C8_6 C7_6 1_555 1_555
H6_6 C8_6 1_555 1_555
C9_7 C8_6 1_555 1_555
C10_7 C9_7 1_555 1_555
H7_6 C10_7 1_555 1_555
C11_7 N3_7 1_555 1_555
H8_7 C11_7 1_555 1_555
C12_7 C9_7 1_555 1_555
O6 C12_7 1_555 1_555
O8 C12_7 1_555 1_555
N4_6 C7_6 1_555 1_555
H9_6 N4_6 1_555 1_555
H10_6 N4_6 1_555 1_555
C4_7 C5_7 1_555 1_555
C10_7 C11_7 1_555 1_555
C6_7 C3_7 1_555 1_555
O6_2 C6_7 1_555 1_555
O8_2 C6_7 1_555 1_555
Ni3_2 N1_8 1_555 1_555
N1_8 C1_8 1_555 1_555
C1_8 C2_8 1_555 1_555
C2_8 H1_8 1_555 1_555
C3_8 C2_8 1_555 1_555
C4_8 C3_8 1_555 1_555
H2_8 C4_8 1_555 1_555
C5_8 N1_8 1_555 1_555
H3_8 C5_8 1_555 1_555
C6_8 C3_8 1_555 1_555
O5_2 C6_8 1_555 1_555
O7_2 C6_8 1_555 1_555
N2_8 C1_8 1_555 1_555
H4_8 N2_8 1_555 1_555
H5_8 N2_8 1_555 1_555
N3_8 Ni3_2 1_555 1_555
H7_7 C10_8 1_555 1_555
C11_8 N3_8 1_555 1_555
H8_8 C11_8 1_555 1_555
C4_8 C5_8 1_555 1_555
C10_8 C11_8 1_555 1_555
C8_7 C7_7 1_555 1_555
H6_7 C8_7 1_555 1_555
C9_8 C8_7 1_555 1_555
C12_8 C9_8 1_555 1_555
O5 C12_8 1_555 1_555
O7 C12_8 1_555 1_555
N4_7 C7_7 1_555 1_555
H9_7 N4_7 1_555 1_555
H10_7 N4_7 1_555 1_555
Ni1_5 N1_9 1_555 1_555
N1_9 C1_9 1_555 1_555
C1_9 C2_9 1_555 1_555
C2_9 H1_9 1_555 1_555
C3_9 C2_9 1_555 1_555
C4_9 C3_9 1_555 1_555
H2_9 C4_9 1_555 1_555
C5_9 N1_9 1_555 1_555
H3_9 C5_9 1_555 1_555
C6_9 C3_9 1_555 1_555
O1_5 C6_9 1_555 1_555
O2_5 C6_9 1_555 1_555
N2_9 C1_9 1_555 1_555
H4_9 N2_9 1_555 1_555
H5_9 N2_9 1_555 1_555
N3_9 Ni1_5 1_555 1_555
C7_8 N3_9 1_555 1_555
C8_8 C7_8 1_555 1_555
H6_8 C8_8 1_555 1_555
C9_9 C8_8 1_555 1_555
C10_9 C9_9 1_555 1_555
H7_8 C10_9 1_555 1_555
C11_9 N3_9 1_555 1_555
H8_9 C11_9 1_555 1_555
C12_9 C9_9 1_555 1_555
O3_5 C12_9 1_555 1_555
O4_5 C12_9 1_555 1_555
N4_8 C7_8 1_555 1_555
H9_8 N4_8 1_555 1_555
H10_8 N4_8 1_555 1_555
Ni2_3 O1_5 1_555 1_555
Ni3_3 O3_5 1_555 1_555
O5_5 Ni1_5 1_555 1_555
O6_5 Ni1_5 1_555 1_555
O7_5 Ni1_5 1_555 1_555
O8_5 Ni1_5 1_555 1_555
C4_9 C5_9 1_555 1_555
O2_5 Ni2_3 1_555 1_555
C10_9 C11_9 1_555 1_555
O4_5 Ni3_3 1_555 1_555
C12_10 C9_10 1_555 1_555
O3_6 C12_10 1_555 1_555
O4_6 C12_10 1_555 1_555
Ni3_3 O3_6 1_555 1_555
O4_6 Ni3_3 1_555 1_555
Ni1_6 N1_10 1_555 1_555
N1_10 C1_10 1_555 1_555
C1_10 C2_10 1_555 1_555
C2_10 H1_10 1_555 1_555
C3_10 C2_10 1_555 1_555
C4_10 C3_10 1_555 1_555
H2_10 C4_10 1_555 1_555
C5_10 N1_10 1_555 1_555
H3_10 C5_10 1_555 1_555
C6_10 C3_10 1_555 1_555
O1_6 C6_10 1_555 1_555
O2_6 C6_10 1_555 1_555
N2_10 C1_10 1_555 1_555
H4_10 N2_10 1_555 1_555
H5_10 N2_10 1_555 1_555
N3_10 Ni1_6 1_555 1_555
C11_10 N3_10 1_555 1_555
H8_10 C11_10 1_555 1_555
Ni2_3 O1_6 1_555 1_555
O5_6 Ni1_6 1_555 1_555
O6_6 Ni1_6 1_555 1_555
O7_6 Ni1_6 1_555 1_555
O8_6 Ni1_6 1_555 1_555
C4_10 C5_10 1_555 1_555
O2_6 Ni2_3 1_555 1_555
C10_10 C11_10 1_555 1_555
C6_11 C3_11 1_555 1_555
O1_7 C6_11 1_555 1_555
O2_7 C6_11 1_555 1_555
Ni2_4 O1_7 1_555 1_555
O2_7 Ni2_4 1_555 1_555
Ni1_7 N1_11 1_555 1_555
N1_11 C1_11 1_555 1_555
C1_11 C2_11 1_555 1_555
C2_11 H1_11 1_555 1_555
C5_11 N1_11 1_555 1_555
H3_11 C5_11 1_555 1_555
N2_11 C1_11 1_555 1_555
H4_11 N2_11 1_555 1_555
H5_11 N2_11 1_555 1_555
N3_11 Ni1_7 1_555 1_555
C7_9 N3_11 1_555 1_555
C8_9 C7_9 1_555 1_555
H6_9 C8_9 1_555 1_555
C9_11 C8_9 1_555 1_555
C10_11 C9_11 1_555 1_555
H7_9 C10_11 1_555 1_555
C11_11 N3_11 1_555 1_555
H8_11 C11_11 1_555 1_555
C12_11 C9_11 1_555 1_555
O3_7 C12_11 1_555 1_555
O4_7 C12_11 1_555 1_555
N4_9 C7_9 1_555 1_555
H9_9 N4_9 1_555 1_555
H10_9 N4_9 1_555 1_555
Ni3_4 O3_7 1_555 1_555
O5_7 Ni1_7 1_555 1_555
O6_7 Ni1_7 1_555 1_555
O7_7 Ni1_7 1_555 1_555
O8_7 Ni1_7 1_555 1_555
C4_11 C5_11 1_555 1_555
C10_11 C11_11 1_555 1_555
O4_7 Ni3_4 1_555 1_555
C8_10 C7_10 1_555 1_555
H6_10 C8_10 1_555 1_555
C9_12 C8_10 1_555 1_555
C12_12 C9_12 1_555 1_555
O3_8 C12_12 1_555 1_555
O4_8 C12_12 1_555 1_555
N4_10 C7_10 1_555 1_555
H9_10 N4_10 1_555 1_555
H10_10 N4_10 1_555 1_555
Ni3_4 O3_8 1_555 1_555
O4_8 Ni3_4 1_555 1_555
Ni1_8 N1_12 1_555 1_555
N1_12 C1_12 1_555 1_555
C1_12 C2_12 1_555 1_555
C2_12 H1_12 1_555 1_555
C3_12 C2_12 1_555 1_555
C4_12 C3_12 1_555 1_555
H2_12 C4_12 1_555 1_555
C5_12 N1_12 1_555 1_555
H3_12 C5_12 1_555 1_555
C6_12 C3_12 1_555 1_555
O1_8 C6_12 1_555 1_555
O2_8 C6_12 1_555 1_555
N2_12 C1_12 1_555 1_555
H4_12 N2_12 1_555 1_555
H5_12 N2_12 1_555 1_555
N3_12 Ni1_8 1_555 1_555
H7_10 C10_12 1_555 1_555
C11_12 N3_12 1_555 1_555
H8_12 C11_12 1_555 1_555
Ni2_4 O1_8 1_555 1_555
O5_8 Ni1_8 1_555 1_555
O6_8 Ni1_8 1_555 1_555
O7_8 Ni1_8 1_555 1_555
O8_8 Ni1_8 1_555 1_555
C4_12 C5_12 1_555 1_555
O2_8 Ni2_4 1_555 1_555
C10_12 C11_12 1_555 1_555
C2_13 H1_13 1_555 1_555
C3_13 C2_13 1_555 1_555
C4_13 C3_13 1_555 1_555
H2_13 C4_13 1_555 1_555
H3_13 C5_13 1_555 1_555
C6_13 C3_13 1_555 1_555
O5_5 C6_13 1_555 1_555
O7_5 C6_13 1_555 1_555
H7_11 C10_13 1_555 1_555
H8_13 C11_13 1_555 1_555
C4_13 C5_13 1_555 1_555
C10_13 C11_13 1_555 1_555
Ni3_4 N1_13 1_555 1_555
N1_13 C1_13 1_555 1_555
N2_13 C1_13 1_555 1_555
H4_13 N2_13 1_555 1_555
H5_13 N2_13 1_555 1_555
N3_13 Ni3_4 1_555 1_555
H6_11 C8_11 1_555 1_555
C9_13 C8_11 1_555 1_555
C12_13 C9_13 1_555 1_555
O5_6 C12_13 1_555 1_555
O7_6 C12_13 1_555 1_555
C2_14 H1_14 1_555 1_555
C3_14 C2_14 1_555 1_555
C4_14 C3_14 1_555 1_555
H2_14 C4_14 1_555 1_555
H3_14 C5_14 1_555 1_555
C6_14 C3_14 1_555 1_555
O6_5 C6_14 1_555 1_555
O8_5 C6_14 1_555 1_555
H6_12 C8_12 1_555 1_555
H8_14 C11_14 1_555 1_555
C4_14 C5_14 1_555 1_555
C10_14 C11_14 1_555 1_555
C12_14 C9_14 1_555 1_555
O6_6 C12_14 1_555 1_555
O8_6 C12_14 1_555 1_555
Ni2_4 N1_14 1_555 1_555
N1_14 C1_14 1_555 1_555
N2_14 C1_14 1_555 1_555
H4_14 N2_14 1_555 1_555
H5_14 N2_14 1_555 1_555
N3_14 Ni2_4 1_555 1_555
C7_11 N3_14 1_555 1_555
N4_11 C7_11 1_555 1_555
H9_11 N4_11 1_555 1_555
H10_11 N4_11 1_555 1_555
Ni3_3 N1_15 1_555 1_555
N1_15 C1_15 1_555 1_555
C1_15 C2_15 1_555 1_555
C2_15 H1_15 1_555 1_555
C5_15 N1_15 1_555 1_555
H3_15 C5_15 1_555 1_555
N2_15 C1_15 1_555 1_555
H4_15 N2_15 1_555 1_555
H5_15 N2_15 1_555 1_555
N3_15 Ni3_3 1_555 1_555
H7_13 C10_15 1_555 1_555
C11_15 N3_15 1_555 1_555
H8_15 C11_15 1_555 1_555
C4_15 C5_15 1_555 1_555
C10_15 C11_15 1_555 1_555
C6_15 C3_15 1_555 1_555
O5_7 C6_15 1_555 1_555
O7_7 C6_15 1_555 1_555
C8_13 C7_12 1_555 1_555
H6_13 C8_13 1_555 1_555
C9_15 C8_13 1_555 1_555
C12_15 C9_15 1_555 1_555
O5_8 C12_15 1_555 1_555
O7_8 C12_15 1_555 1_555
N4_12 C7_12 1_555 1_555
H9_12 N4_12 1_555 1_555
H10_12 N4_12 1_555 1_555
Ni2_3 N1_16 1_555 1_555
N1_16 C1_16 1_555 1_555
C1_16 C2_16 1_555 1_555
C2_16 H1_16 1_555 1_555
C3_16 C2_16 1_555 1_555
C4_16 C3_16 1_555 1_555
H2_16 C4_16 1_555 1_555
C5_16 N1_16 1_555 1_555
H3_16 C5_16 1_555 1_555
C6_16 C3_16 1_555 1_555
O6_7 C6_16 1_555 1_555
O8_7 C6_16 1_555 1_555
N2_16 C1_16 1_555 1_555
H4_16 N2_16 1_555 1_555
H5_16 N2_16 1_555 1_555
N3_16 Ni2_3 1_555 1_555
C7_13 N3_16 1_555 1_555
C8_14 C7_13 1_555 1_555
H6_14 C8_14 1_555 1_555
C9_16 C8_14 1_555 1_555
C10_16 C9_16 1_555 1_555
H7_14 C10_16 1_555 1_555
C11_16 N3_16 1_555 1_555
H8_16 C11_16 1_555 1_555
C12_16 C9_16 1_555 1_555
O6_8 C12_16 1_555 1_555
O8_8 C12_16 1_555 1_555
N4_13 C7_13 1_555 1_555
H9_13 N4_13 1_555 1_555
H10_13 N4_13 1_555 1_555
C4_16 C5_16 1_555 1_555
C10_16 C11_16 1_555 1_555
C8_15 C7_14 1_555 1_555
H6_15 C8_15 1_555 1_555
N4_14 C7_14 1_555 1_555
H9_14 N4_14 1_555 1_555
H10_14 N4_14 1_555 1_555
N4_15 C7_15 1_555 1_555
H9_15 N4_15 1_555 1_555
H10_15 N4_15 1_555 1_555
C8_16 C7_16 1_555 1_555
H6_16 C8_16 1_555 1_555
N4_16 C7_16 1_555 1_555
H9_16 N4_16 1_555 1_555
H10_16 N4_16 1_555 1_555

#END
