
###############################################################################
#
# This file contains modified crystal structure data generated from the
# MOF subset of the Cambridge Structural Database (CSD) v543 
# hosted by the Cambridge Crystallographic Data Centre (CCDC).
#
# This work is licensed under the Creative Commons
# Attribution-NonCommercial-ShareAlike 4.0 International License.
# To view a copy of this license, visit
# http://creativecommons.org/licenses/by-nc-sa/4.0/
# or send a letter to
# Creative Commons, PO Box 1866, Mountain View, CA 94042, USA.
#
# CIF created using the CSD Python API on 29 September 2022
# The structure has been converted into the P1 space group
# The structure has a 3D framework
# The original CSD entry FUYNIZ is in the orthorhombic crystal system
# The framework has been calculated to contain at least 10.0% void space
# The void calculation uses a probe of radius 1.32A, grid spacing 0.4
#
###############################################################################

data_FUYNIZ
_chemical_formula_moiety         '(C192 H160 Co16 N64 O64)n'
_symmetry_cell_setting           triclinic
_symmetry_space_group_name_H-M   'P 1'
_symmetry_Int_Tables_number      1
_space_group_name_Hall           'P 1'
loop_
_symmetry_equiv_pos_site_id
_symmetry_equiv_pos_as_xyz
1 x,y,z
_cell_length_a                   12.6929(10)
_cell_length_b                   22.7763(19)
_cell_length_c                   23.8472(19)
_cell_angle_alpha                90
_cell_angle_beta                 90
_cell_angle_gamma                90
_cell_volume                     6894.16
loop_
_atom_site_label
_atom_site_type_symbol
_atom_site_fract_x
_atom_site_fract_y
_atom_site_fract_z
Co1 Co 0.125000 0.33715(2) 0.125000
N1 N 0.04945(11) 0.27629(6) 0.07437(6)
C4 C 0.08005(15) 0.20329(8) 0.00322(8)
C5 C 0.11391(14) 0.24177(9) 0.04327(8)
H3 H 0.186031 0.244464 0.049647
N3 N 0.20055(11) 0.27629(6) 0.17563(6)
C7 C 0.30499(14) 0.27132(8) 0.18355(8)
C8 C 0.34609(15) 0.23321(9) 0.22503(8)
H6 H 0.418395 0.231177 0.231035
C9 C 0.27907(15) 0.19940(8) 0.25626(7)
C10 C 0.16995(15) 0.20329(8) 0.24678(8)
H7 H 0.122562 0.180497 0.267051
C11 C 0.13609(14) 0.24177(9) 0.20673(8)
H8 H 0.063969 0.244464 0.200353
C12 C 0.32386(14) 0.15826(8) 0.29944(7)
O3 O 0.41922(10) 0.16002(6) 0.31160(5)
O4 O 0.26202(9) 0.12145(5) 0.32234(5)
N4 N 0.37033(13) 0.30223(9) 0.15050(8)
H9 H 0.345108 0.324711 0.124821
H10 H 0.437376 0.299545 0.155021
Co2 Co 0.375000 0.08715(2) 0.375000
O5 O 0.08078(10) 0.41002(6) 0.06160(5)
O6 O 0.16922(10) 0.41002(6) 0.18840(5)
O7 O 0.23798(9) 0.37145(5) 0.07234(5)
O8 O 0.01202(9) 0.37145(5) 0.17766(5)
C3 C 0.97093(15) 0.19940(8) 0.99374(7)
C6 C 0.92614(14) 0.15826(8) 0.95056(7)
O1 O 0.83078(10) 0.16002(6) 0.93840(5)
O2 O 0.98798(9) 0.12145(5) 0.92766(5)
Co3 Co 0.875000 0.08715(2) 0.875000
Co1_2 Co 0.625000 0.33715(2) 0.625000
N1_2 N 0.70055(11) 0.27629(6) 0.67563(6)
C1 C 0.80499(14) 0.27132(8) 0.68355(8)
C2 C 0.84609(15) 0.23321(9) 0.72503(8)
H1 H 0.918395 0.231177 0.731035
C3_2 C 0.77907(15) 0.19940(8) 0.75626(7)
C4_2 C 0.66995(15) 0.20329(8) 0.74678(8)
H2 H 0.622562 0.180497 0.767051
C5_2 C 0.63609(14) 0.24177(9) 0.70673(8)
H3_2 H 0.563969 0.244464 0.700353
C6_2 C 0.82386(14) 0.15826(8) 0.79944(7)
O1_2 O 0.91922(10) 0.16002(6) 0.81160(5)
O2_2 O 0.76202(9) 0.12145(5) 0.82234(5)
N2 N 0.87033(13) 0.30223(9) 0.65050(8)
H4 H 0.845108 0.324711 0.624821
H5 H 0.937376 0.299545 0.655021
N3_2 N 0.54945(11) 0.27629(6) 0.57437(6)
C7_2 C 0.44501(14) 0.27132(8) 0.56645(8)
C8_2 C 0.40391(15) 0.23321(9) 0.52497(8)
H6_2 H 0.331605 0.231177 0.518965
C9_2 C 0.47093(15) 0.19940(8) 0.49374(7)
C10_2 C 0.58005(15) 0.20329(8) 0.50322(8)
H7_2 H 0.627438 0.180497 0.482949
C11_2 C 0.61391(14) 0.24177(9) 0.54327(8)
H8_2 H 0.686031 0.244464 0.549647
C12_2 C 0.42614(14) 0.15826(8) 0.45056(7)
O3_2 O 0.33078(10) 0.16002(6) 0.43840(5)
O4_2 O 0.48798(9) 0.12145(5) 0.42766(5)
N4_2 N 0.37967(13) 0.30223(9) 0.59950(8)
H9_2 H 0.404892 0.324711 0.625179
H10_2 H 0.312624 0.299545 0.594979
O5_2 O 0.66922(10) 0.41002(6) 0.68840(5)
O6_2 O 0.58078(10) 0.41002(6) 0.56160(5)
O7_2 O 0.51202(9) 0.37145(5) 0.67766(5)
O8_2 O 0.73798(9) 0.37145(5) 0.57234(5)
Co1_3 Co 0.125000 0.83715(2) 0.625000
N1_3 N 0.04945(11) 0.77629(6) 0.57437(6)
C4_3 C 0.08005(15) 0.70329(8) 0.50322(8)
H2_2 H 0.127438 0.680497 0.482949
C5_3 C 0.11391(14) 0.74177(9) 0.54327(8)
H3_3 H 0.186031 0.744464 0.549647
N3_3 N 0.20055(11) 0.77629(6) 0.67563(6)
C7_3 C 0.30499(14) 0.77132(8) 0.68355(8)
C8_3 C 0.34609(15) 0.73321(9) 0.72503(8)
H6_3 H 0.418395 0.731177 0.731035
C9_3 C 0.27907(15) 0.69940(8) 0.75626(7)
C10_3 C 0.16995(15) 0.70329(8) 0.74678(8)
H7_3 H 0.122562 0.680497 0.767051
C11_3 C 0.13609(14) 0.74177(9) 0.70673(8)
H8_3 H 0.063969 0.744464 0.700353
C12_3 C 0.32386(14) 0.65826(8) 0.79944(7)
O3_3 O 0.41922(10) 0.66002(6) 0.81160(5)
O4_3 O 0.26202(9) 0.62145(5) 0.82234(5)
N4_3 N 0.37033(13) 0.80223(9) 0.65050(8)
H9_3 H 0.345108 0.824711 0.624821
H10_3 H 0.437376 0.799545 0.655021
Co2_2 Co 0.375000 0.58715(2) 0.875000
O5_3 O 0.08078(10) 0.91002(6) 0.56160(5)
O6_3 O 0.16922(10) 0.91002(6) 0.68840(5)
O7_3 O 0.23798(9) 0.87145(5) 0.57234(5)
O8_3 O 0.01202(9) 0.87145(5) 0.67766(5)
C1_2 C 0.94501(14) 0.77132(8) 0.56645(8)
C2_2 C 0.90391(15) 0.73321(9) 0.52497(8)
H1_2 H 0.831605 0.731177 0.518965
C3_3 C 0.97093(15) 0.69940(8) 0.49374(7)
C6_3 C 0.92614(14) 0.65826(8) 0.45056(7)
O1_3 O 0.83078(10) 0.66002(6) 0.43840(5)
O2_3 O 0.98798(9) 0.62145(5) 0.42766(5)
N2_2 N 0.87967(13) 0.80223(9) 0.59950(8)
H4_2 H 0.904892 0.824711 0.625179
H5_2 H 0.812624 0.799545 0.594979
Co3_2 Co 0.875000 0.58715(2) 0.375000
Co1_4 Co 0.625000 0.83715(2) 0.125000
N1_4 N 0.70055(11) 0.77629(6) 0.17563(6)
C1_3 C 0.80499(14) 0.77132(8) 0.18355(8)
C2_3 C 0.84609(15) 0.73321(9) 0.22503(8)
H1_3 H 0.918395 0.731177 0.231035
C3_4 C 0.77907(15) 0.69940(8) 0.25626(7)
C4_4 C 0.66995(15) 0.70329(8) 0.24678(8)
H2_3 H 0.622562 0.680497 0.267051
C5_4 C 0.63609(14) 0.74177(9) 0.20673(8)
H3_4 H 0.563969 0.744464 0.200353
C6_4 C 0.82386(14) 0.65826(8) 0.29944(7)
O1_4 O 0.91922(10) 0.66002(6) 0.31160(5)
O2_4 O 0.76202(9) 0.62145(5) 0.32234(5)
N2_3 N 0.87033(13) 0.80223(9) 0.15050(8)
H4_3 H 0.845108 0.824711 0.124821
H5_3 H 0.937376 0.799545 0.155021
N3_4 N 0.54945(11) 0.77629(6) 0.07437(6)
C7_4 C 0.44501(14) 0.77132(8) 0.06645(8)
C8_4 C 0.40391(15) 0.73321(9) 0.02497(8)
H6_4 H 0.331605 0.731177 0.018965
C10_4 C 0.58005(15) 0.70329(8) 0.00322(8)
C11_4 C 0.61391(14) 0.74177(9) 0.04327(8)
H8_4 H 0.686031 0.744464 0.049647
N4_4 N 0.37967(13) 0.80223(9) 0.09950(8)
H9_4 H 0.404892 0.824711 0.125179
H10_4 H 0.312624 0.799545 0.094979
O5_4 O 0.66922(10) 0.91002(6) 0.18840(5)
O6_4 O 0.58078(10) 0.91002(6) 0.06160(5)
O7_4 O 0.51202(9) 0.87145(5) 0.17766(5)
O8_4 O 0.73798(9) 0.87145(5) 0.07234(5)
C9_4 C 0.47093(15) 0.69940(8) 0.99374(7)
H7_4 H 0.627438 0.680497 0.982949
C12_4 C 0.42614(14) 0.65826(8) 0.95056(7)
O3_4 O 0.33078(10) 0.66002(6) 0.93840(5)
O4_4 O 0.48798(9) 0.62145(5) 0.92766(5)
C3_5 C 0.22093(15) 0.44940(8) 0.00626(7)
H2_4 H 0.377438 0.430497 0.017051
C6_5 C 0.17614(14) 0.40826(8) 0.04944(7)
N1_5 N 0.29945(11) 0.52629(6) 0.92563(6)
C1_4 C 0.19501(14) 0.52132(8) 0.93355(8)
C2_4 C 0.15391(15) 0.48321(9) 0.97503(8)
H1_4 H 0.081605 0.481177 0.981035
C4_5 C 0.33005(15) 0.45329(8) 0.99678(8)
C5_5 C 0.36391(14) 0.49177(9) 0.95673(8)
H3_5 H 0.436031 0.494464 0.950353
N2_4 N 0.12967(13) 0.55223(9) 0.90050(8)
H4_4 H 0.154892 0.574711 0.874821
H5_4 H 0.062624 0.549545 0.905021
N3_5 N 0.45055(11) 0.52629(6) 0.82437(6)
C7_5 C 0.55499(14) 0.52132(8) 0.81645(8)
C8_5 C 0.59609(15) 0.48321(9) 0.77497(8)
H6_5 H 0.668395 0.481177 0.768965
C9_5 C 0.52907(15) 0.44940(8) 0.74374(7)
C10_5 C 0.41995(15) 0.45329(8) 0.75322(8)
H7_5 H 0.372562 0.430497 0.732949
C11_5 C 0.38609(14) 0.49177(9) 0.79327(8)
H8_5 H 0.313969 0.494464 0.799647
C12_5 C 0.57386(14) 0.40826(8) 0.70056(7)
N4_5 N 0.62033(13) 0.55223(9) 0.84950(8)
H9_5 H 0.595108 0.574711 0.875179
H10_5 H 0.687376 0.549545 0.844979
C1_5 C 0.05499(14) 0.52132(8) 0.31645(8)
C2_5 C 0.09609(15) 0.48321(9) 0.27497(8)
H1_5 H 0.168395 0.481177 0.268965
C3_6 C 0.02907(15) 0.44940(8) 0.24374(7)
C6_6 C 0.07386(14) 0.40826(8) 0.20056(7)
N2_5 N 0.12033(13) 0.55223(9) 0.34950(8)
H4_5 H 0.095108 0.574711 0.375179
H5_5 H 0.187376 0.549545 0.344979
N1_6 N 0.95055(11) 0.52629(6) 0.32437(6)
C4_6 C 0.91995(15) 0.45329(8) 0.25322(8)
H2_5 H 0.872562 0.430497 0.232949
C5_6 C 0.88609(14) 0.49177(9) 0.29327(8)
H3_6 H 0.813969 0.494464 0.299647
N3_6 N 0.79945(11) 0.52629(6) 0.42563(6)
C7_6 C 0.69501(14) 0.52132(8) 0.43355(8)
C8_6 C 0.65391(15) 0.48321(9) 0.47503(8)
H6_6 H 0.581605 0.481177 0.481035
C9_6 C 0.72093(15) 0.44940(8) 0.50626(7)
C10_6 C 0.83005(15) 0.45329(8) 0.49678(8)
H7_6 H 0.877438 0.430497 0.517051
C11_6 C 0.86391(14) 0.49177(9) 0.45673(8)
H8_6 H 0.936031 0.494464 0.450353
C12_6 C 0.67614(14) 0.40826(8) 0.54944(7)
N4_6 N 0.62967(13) 0.55223(9) 0.40050(8)
H9_6 H 0.654892 0.574711 0.374821
H10_6 H 0.562624 0.549545 0.405021
N1_7 N 0.29945(11) 0.02629(6) 0.42563(6)
C1_6 C 0.19501(14) 0.02132(8) 0.43355(8)
N2_6 N 0.12967(13) 0.05223(9) 0.40050(8)
H4_6 H 0.154892 0.074711 0.374821
H5_6 H 0.062624 0.049545 0.405021
N3_7 N 0.45055(11) 0.02629(6) 0.32437(6)
C7_7 C 0.55499(14) 0.02132(8) 0.31645(8)
N4_7 N 0.62033(13) 0.05223(9) 0.34950(8)
H9_7 H 0.595108 0.074711 0.375179
H10_7 H 0.687376 0.049545 0.344979
C2_6 C 0.15391(15) 0.98321(9) 0.47503(8)
H1_6 H 0.081605 0.981177 0.481035
C3_7 C 0.22093(15) 0.94940(8) 0.50626(7)
C4_7 C 0.33005(15) 0.95329(8) 0.49678(8)
H2_6 H 0.377438 0.930497 0.517051
C5_7 C 0.36391(14) 0.99177(9) 0.45673(8)
H3_7 H 0.436031 0.994464 0.450353
C6_7 C 0.17614(14) 0.90826(8) 0.54944(7)
C8_7 C 0.59609(15) 0.98321(9) 0.27497(8)
H6_7 H 0.668395 0.981177 0.268965
C9_7 C 0.52907(15) 0.94940(8) 0.24374(7)
C10_7 C 0.41995(15) 0.95329(8) 0.25322(8)
H7_7 H 0.372562 0.930497 0.232949
C11_7 C 0.38609(14) 0.99177(9) 0.29327(8)
H8_7 H 0.313969 0.994464 0.299647
C12_7 C 0.57386(14) 0.90826(8) 0.20056(7)
C2_7 C 0.09609(15) 0.98321(9) 0.77497(8)
H1_7 H 0.168395 0.981177 0.768965
C3_8 C 0.02907(15) 0.94940(8) 0.74374(7)
C6_8 C 0.07386(14) 0.90826(8) 0.70056(7)
N1_8 N 0.95055(11) 0.02629(6) 0.82437(6)
N3_8 N 0.79945(11) 0.02629(6) 0.92563(6)
C7_8 C 0.69501(14) 0.02132(8) 0.93355(8)
N4_8 N 0.62967(13) 0.05223(9) 0.90050(8)
H9_8 H 0.654892 0.074711 0.874821
H10_8 H 0.562624 0.049545 0.905021
C9_8 C 0.72093(15) 0.94940(8) 0.00626(7)
H7_8 H 0.877438 0.930497 0.017051
C12_8 C 0.67614(14) 0.90826(8) 0.04944(7)
H2_7 H 0.127438 0.180497 0.982949
C1_7 C 0.94501(14) 0.27132(8) 0.06645(8)
C2_8 C 0.90391(15) 0.23321(9) 0.02497(8)
H1_8 H 0.831605 0.231177 0.018965
N2_7 N 0.87967(13) 0.30223(9) 0.09950(8)
H4_7 H 0.904892 0.324711 0.125179
H5_7 H 0.812624 0.299545 0.094979
Co1_5 Co 0.625000 0.41285(2) 0.125000
N1_9 N 0.70055(11) 0.47371(6) 0.07437(6)
C1_8 C 0.80499(14) 0.47868(8) 0.06645(8)
C2_9 C 0.84609(15) 0.51679(9) 0.02497(8)
H1_9 H 0.918395 0.518823 0.018965
C4_8 C 0.66995(15) 0.54671(8) 0.00322(8)
C5_8 C 0.63609(14) 0.50823(9) 0.04327(8)
H3_8 H 0.563969 0.505536 0.049647
N2_8 N 0.87033(13) 0.44777(9) 0.09950(8)
H4_8 H 0.845108 0.425289 0.125179
H5_8 H 0.937376 0.450455 0.094979
N3_9 N 0.54945(11) 0.47371(6) 0.17563(6)
C7_9 C 0.44501(14) 0.47868(8) 0.18355(8)
C8_8 C 0.40391(15) 0.51679(9) 0.22503(8)
H6_8 H 0.331605 0.518823 0.231035
C9_9 C 0.47093(15) 0.55060(8) 0.25626(7)
C10_8 C 0.58005(15) 0.54671(8) 0.24678(8)
H7_9 H 0.627438 0.569503 0.267051
C11_8 C 0.61391(14) 0.50823(9) 0.20673(8)
H8_8 H 0.686031 0.505536 0.200353
C12_9 C 0.42614(14) 0.59174(8) 0.29944(7)
O3_5 O 0.33078(10) 0.58998(6) 0.31160(5)
O4_5 O 0.48798(9) 0.62855(5) 0.32234(5)
N4_9 N 0.37967(13) 0.44777(9) 0.15050(8)
H9_9 H 0.404892 0.425289 0.124821
H10_9 H 0.312624 0.450455 0.155021
Co2_3 Co 0.375000 0.66285(2) 0.375000
O5_5 O 0.66922(10) 0.33998(6) 0.06160(5)
O6_5 O 0.58078(10) 0.33998(6) 0.18840(5)
O7_5 O 0.51202(9) 0.37855(5) 0.07234(5)
O8_5 O 0.73798(9) 0.37855(5) 0.17766(5)
C3_9 C 0.77907(15) 0.55060(8) 0.99374(7)
H2_8 H 0.622562 0.569503 0.982949
C6_9 C 0.82386(14) 0.59174(8) 0.95056(7)
O1_5 O 0.91922(10) 0.58998(6) 0.93840(5)
O2_5 O 0.76202(9) 0.62855(5) 0.92766(5)
Co3_3 Co 0.875000 0.66285(2) 0.875000
Co1_6 Co 0.125000 0.41285(2) 0.625000
N1_10 N 0.04945(11) 0.47371(6) 0.67563(6)
C4_9 C 0.08005(15) 0.54671(8) 0.74678(8)
H2_9 H 0.127438 0.569503 0.767051
C5_9 C 0.11391(14) 0.50823(9) 0.70673(8)
H3_9 H 0.186031 0.505536 0.700353
N3_10 N 0.20055(11) 0.47371(6) 0.57437(6)
C7_10 C 0.30499(14) 0.47868(8) 0.56645(8)
C8_9 C 0.34609(15) 0.51679(9) 0.52497(8)
H6_9 H 0.418395 0.518823 0.518965
C9_10 C 0.27907(15) 0.55060(8) 0.49374(7)
C10_9 C 0.16995(15) 0.54671(8) 0.50322(8)
H7_10 H 0.122562 0.569503 0.482949
C11_9 C 0.13609(14) 0.50823(9) 0.54327(8)
H8_9 H 0.063969 0.505536 0.549647
C12_10 C 0.32386(14) 0.59174(8) 0.45056(7)
O3_6 O 0.41922(10) 0.58998(6) 0.43840(5)
O4_6 O 0.26202(9) 0.62855(5) 0.42766(5)
N4_10 N 0.37033(13) 0.44777(9) 0.59950(8)
H9_10 H 0.345108 0.425289 0.625179
H10_10 H 0.437376 0.450455 0.594979
O5_6 O 0.08078(10) 0.33998(6) 0.68840(5)
O6_6 O 0.16922(10) 0.33998(6) 0.56160(5)
O7_6 O 0.23798(9) 0.37855(5) 0.67766(5)
O8_6 O 0.01202(9) 0.37855(5) 0.57234(5)
C1_9 C 0.94501(14) 0.47868(8) 0.68355(8)
C2_10 C 0.90391(15) 0.51679(9) 0.72503(8)
H1_10 H 0.831605 0.518823 0.731035
C3_10 C 0.97093(15) 0.55060(8) 0.75626(7)
C6_10 C 0.92614(14) 0.59174(8) 0.79944(7)
O1_6 O 0.83078(10) 0.58998(6) 0.81160(5)
O2_6 O 0.98798(9) 0.62855(5) 0.82234(5)
N2_9 N 0.87967(13) 0.44777(9) 0.65050(8)
H4_9 H 0.904892 0.425289 0.624821
H5_9 H 0.812624 0.450455 0.655021
C2_11 C 0.84609(15) 0.01679(9) 0.52497(8)
H1_11 H 0.918395 0.018823 0.518965
C3_11 C 0.77907(15) 0.05060(8) 0.49374(7)
C4_10 C 0.66995(15) 0.04671(8) 0.50322(8)
H2_10 H 0.622562 0.069503 0.482949
C5_10 C 0.63609(14) 0.00823(9) 0.54327(8)
H3_10 H 0.563969 0.005536 0.549647
C6_11 C 0.82386(14) 0.09174(8) 0.45056(7)
O1_7 O 0.91922(10) 0.08998(6) 0.43840(5)
O2_7 O 0.76202(9) 0.12855(5) 0.42766(5)
C8_10 C 0.40391(15) 0.01679(9) 0.72503(8)
H6_10 H 0.331605 0.018823 0.731035
C9_11 C 0.47093(15) 0.05060(8) 0.75626(7)
C10_10 C 0.58005(15) 0.04671(8) 0.74678(8)
H7_11 H 0.627438 0.069503 0.767051
C11_10 C 0.61391(14) 0.00823(9) 0.70673(8)
H8_10 H 0.686031 0.005536 0.700353
C12_11 C 0.42614(14) 0.09174(8) 0.79944(7)
O3_7 O 0.33078(10) 0.08998(6) 0.81160(5)
O4_7 O 0.48798(9) 0.12855(5) 0.82234(5)
Co2_4 Co 0.375000 0.16285(2) 0.875000
Co3_4 Co 0.875000 0.16285(2) 0.375000
Co1_7 Co 0.625000 0.91285(2) 0.625000
N1_11 N 0.70055(11) 0.97371(6) 0.57437(6)
C1_10 C 0.80499(14) 0.97868(8) 0.56645(8)
N2_10 N 0.87033(13) 0.94777(9) 0.59950(8)
H4_10 H 0.845108 0.925289 0.625179
H5_10 H 0.937376 0.950455 0.594979
N3_11 N 0.54945(11) 0.97371(6) 0.67563(6)
C7_11 C 0.44501(14) 0.97868(8) 0.68355(8)
N4_11 N 0.37967(13) 0.94777(9) 0.65050(8)
H9_11 H 0.404892 0.925289 0.624821
H10_11 H 0.312624 0.950455 0.655021
O5_7 O 0.66922(10) 0.83998(6) 0.56160(5)
O6_7 O 0.58078(10) 0.83998(6) 0.68840(5)
O7_7 O 0.51202(9) 0.87855(5) 0.57234(5)
O8_7 O 0.73798(9) 0.87855(5) 0.67766(5)
C9_12 C 0.27907(15) 0.05060(8) 0.99374(7)
H7_12 H 0.122562 0.069503 0.982949
C12_12 C 0.32386(14) 0.09174(8) 0.95056(7)
O3_8 O 0.41922(10) 0.08998(6) 0.93840(5)
O4_8 O 0.26202(9) 0.12855(5) 0.92766(5)
Co1_8 Co 0.125000 0.91285(2) 0.125000
N1_12 N 0.04945(11) 0.97371(6) 0.17563(6)
N3_12 N 0.20055(11) 0.97371(6) 0.07437(6)
C7_12 C 0.30499(14) 0.97868(8) 0.06645(8)
N4_12 N 0.37033(13) 0.94777(9) 0.09950(8)
H9_12 H 0.345108 0.925289 0.125179
H10_12 H 0.437376 0.950455 0.094979
O5_8 O 0.08078(10) 0.83998(6) 0.18840(5)
O6_8 O 0.16922(10) 0.83998(6) 0.06160(5)
O7_8 O 0.23798(9) 0.87855(5) 0.17766(5)
O8_8 O 0.01202(9) 0.87855(5) 0.07234(5)
C2_12 C 0.90391(15) 0.01679(9) 0.22503(8)
H1_12 H 0.831605 0.018823 0.231035
C3_12 C 0.97093(15) 0.05060(8) 0.25626(7)
C6_12 C 0.92614(14) 0.09174(8) 0.29944(7)
O1_8 O 0.83078(10) 0.08998(6) 0.31160(5)
O2_8 O 0.98798(9) 0.12855(5) 0.32234(5)
C3_13 C 0.02907(15) 0.80060(8) 0.00626(7)
C6_13 C 0.07386(14) 0.84174(8) 0.04944(7)
N1_13 N 0.95055(11) 0.72371(6) 0.92563(6)
C4_11 C 0.91995(15) 0.79671(8) 0.99678(8)
C5_11 C 0.88609(14) 0.75823(9) 0.95673(8)
H3_11 H 0.813969 0.755536 0.950353
N3_13 N 0.79945(11) 0.72371(6) 0.82437(6)
C7_13 C 0.69501(14) 0.72868(8) 0.81645(8)
C8_11 C 0.65391(15) 0.76679(9) 0.77497(8)
H6_11 H 0.581605 0.768823 0.768965
C9_13 C 0.72093(15) 0.80060(8) 0.74374(7)
C10_11 C 0.83005(15) 0.79671(8) 0.75322(8)
H7_13 H 0.877438 0.819503 0.732949
C11_11 C 0.86391(14) 0.75823(9) 0.79327(8)
H8_11 H 0.936031 0.755536 0.799647
C12_13 C 0.67614(14) 0.84174(8) 0.70056(7)
N4_13 N 0.62967(13) 0.69777(9) 0.84950(8)
H9_13 H 0.654892 0.675289 0.875179
H10_13 H 0.562624 0.700455 0.844979
N1_14 N 0.29945(11) 0.72371(6) 0.32437(6)
C1_11 C 0.19501(14) 0.72868(8) 0.31645(8)
C2_13 C 0.15391(15) 0.76679(9) 0.27497(8)
H1_13 H 0.081605 0.768823 0.268965
C3_14 C 0.22093(15) 0.80060(8) 0.24374(7)
C4_12 C 0.33005(15) 0.79671(8) 0.25322(8)
H2_11 H 0.377438 0.819503 0.232949
C5_12 C 0.36391(14) 0.75823(9) 0.29327(8)
H3_12 H 0.436031 0.755536 0.299647
C6_14 C 0.17614(14) 0.84174(8) 0.20056(7)
N2_11 N 0.12967(13) 0.69777(9) 0.34950(8)
H4_11 H 0.154892 0.675289 0.375179
H5_11 H 0.062624 0.700455 0.344979
N3_14 N 0.45055(11) 0.72371(6) 0.42563(6)
C7_14 C 0.55499(14) 0.72868(8) 0.43355(8)
C8_12 C 0.59609(15) 0.76679(9) 0.47503(8)
H6_12 H 0.668395 0.768823 0.481035
C9_14 C 0.52907(15) 0.80060(8) 0.50626(7)
C10_12 C 0.41995(15) 0.79671(8) 0.49678(8)
H7_14 H 0.372562 0.819503 0.517051
C11_12 C 0.38609(14) 0.75823(9) 0.45673(8)
H8_12 H 0.313969 0.755536 0.450353
C12_14 C 0.57386(14) 0.84174(8) 0.54944(7)
N4_14 N 0.62033(13) 0.69777(9) 0.40050(8)
H9_14 H 0.595108 0.675289 0.374821
H10_14 H 0.687376 0.700455 0.405021
C1_12 C 0.05499(14) 0.22868(8) 0.43355(8)
C2_14 C 0.09609(15) 0.26679(9) 0.47503(8)
H1_14 H 0.168395 0.268823 0.481035
C3_15 C 0.02907(15) 0.30060(8) 0.50626(7)
C6_15 C 0.07386(14) 0.34174(8) 0.54944(7)
N2_12 N 0.12033(13) 0.19777(9) 0.40050(8)
H4_12 H 0.095108 0.175289 0.374821
H5_12 H 0.187376 0.200455 0.405021
N1_15 N 0.95055(11) 0.22371(6) 0.42563(6)
C4_13 C 0.91995(15) 0.29671(8) 0.49678(8)
H2_12 H 0.872562 0.319503 0.517051
C5_13 C 0.88609(14) 0.25823(9) 0.45673(8)
H3_13 H 0.813969 0.255536 0.450353
N3_15 N 0.79945(11) 0.22371(6) 0.32437(6)
C7_15 C 0.69501(14) 0.22868(8) 0.31645(8)
C8_13 C 0.65391(15) 0.26679(9) 0.27497(8)
H6_13 H 0.581605 0.268823 0.268965
C9_15 C 0.72093(15) 0.30060(8) 0.24374(7)
C10_13 C 0.83005(15) 0.29671(8) 0.25322(8)
H7_15 H 0.877438 0.319503 0.232949
C11_13 C 0.86391(14) 0.25823(9) 0.29327(8)
H8_13 H 0.936031 0.255536 0.299647
C12_15 C 0.67614(14) 0.34174(8) 0.20056(7)
N4_15 N 0.62967(13) 0.19777(9) 0.34950(8)
H9_15 H 0.654892 0.175289 0.375179
H10_15 H 0.562624 0.200455 0.344979
C9_16 C 0.52907(15) 0.30060(8) 0.00626(7)
H7_16 H 0.372562 0.319503 0.017051
C12_16 C 0.57386(14) 0.34174(8) 0.04944(7)
N1_16 N 0.29945(11) 0.22371(6) 0.82437(6)
C1_13 C 0.19501(14) 0.22868(8) 0.81645(8)
C2_15 C 0.15391(15) 0.26679(9) 0.77497(8)
H1_15 H 0.081605 0.268823 0.768965
C3_16 C 0.22093(15) 0.30060(8) 0.74374(7)
C4_14 C 0.33005(15) 0.29671(8) 0.75322(8)
H2_13 H 0.377438 0.319503 0.732949
C5_14 C 0.36391(14) 0.25823(9) 0.79327(8)
H3_14 H 0.436031 0.255536 0.799647
C6_16 C 0.17614(14) 0.34174(8) 0.70056(7)
N2_13 N 0.12967(13) 0.19777(9) 0.84950(8)
H4_13 H 0.154892 0.175289 0.875179
H5_13 H 0.062624 0.200455 0.844979
N3_16 N 0.45055(11) 0.22371(6) 0.92563(6)
C7_16 C 0.55499(14) 0.22868(8) 0.93355(8)
C8_14 C 0.59609(15) 0.26679(9) 0.97503(8)
H6_14 H 0.668395 0.268823 0.981035
C10_14 C 0.41995(15) 0.29671(8) 0.99678(8)
C11_14 C 0.38609(14) 0.25823(9) 0.95673(8)
H8_14 H 0.313969 0.255536 0.950353
N4_16 N 0.62033(13) 0.19777(9) 0.90050(8)
H9_16 H 0.595108 0.175289 0.874821
H10_16 H 0.687376 0.200455 0.905021
C4_15 C 0.08005(15) 0.04671(8) 0.24678(8)
H2_14 H 0.127438 0.069503 0.267051
C5_15 C 0.11391(14) 0.00823(9) 0.20673(8)
H3_15 H 0.186031 0.005536 0.200353
C8_15 C 0.34609(15) 0.01679(9) 0.02497(8)
H6_15 H 0.418395 0.018823 0.018965
C10_15 C 0.16995(15) 0.04671(8) 0.00322(8)
C11_15 C 0.13609(14) 0.00823(9) 0.04327(8)
H8_15 H 0.063969 0.005536 0.049647
C1_14 C 0.94501(14) 0.97868(8) 0.18355(8)
N2_14 N 0.87967(13) 0.94777(9) 0.15050(8)
H4_14 H 0.904892 0.925289 0.124821
H5_14 H 0.812624 0.950455 0.155021
C1_15 C 0.05499(14) 0.72868(8) 0.93355(8)
C2_16 C 0.09609(15) 0.76679(9) 0.97503(8)
H1_16 H 0.168395 0.768823 0.981035
N2_15 N 0.12033(13) 0.69777(9) 0.90050(8)
H4_15 H 0.095108 0.675289 0.874821
H5_15 H 0.187376 0.700455 0.905021
H2_15 H 0.872562 0.819503 0.017051
C1_16 C 0.05499(14) 0.02132(8) 0.81645(8)
N2_16 N 0.12033(13) 0.05223(9) 0.84950(8)
H4_16 H 0.095108 0.074711 0.875179
H5_16 H 0.187376 0.049545 0.844979
C4_16 C 0.91995(15) 0.95329(8) 0.75322(8)
H2_16 H 0.872562 0.930497 0.732949
C5_16 C 0.88609(14) 0.99177(9) 0.79327(8)
H3_16 H 0.813969 0.994464 0.799647
C8_16 C 0.65391(15) 0.98321(9) 0.97503(8)
H6_16 H 0.581605 0.981177 0.981035
C10_16 C 0.83005(15) 0.95329(8) 0.99678(8)
C11_16 C 0.86391(14) 0.99177(9) 0.95673(8)
H8_16 H 0.936031 0.994464 0.950353
loop_
_geom_bond_atom_site_label_1
_geom_bond_atom_site_label_2
_geom_bond_site_symmetry_1
_geom_bond_site_symmetry_2
Co1 N1 1_555 1_555
C5 N1 1_555 1_555
H3 C5 1_555 1_555
N3 Co1 1_555 1_555
C7 N3 1_555 1_555
C8 C7 1_555 1_555
H6 C8 1_555 1_555
C9 C8 1_555 1_555
C10 C9 1_555 1_555
H7 C10 1_555 1_555
C11 N3 1_555 1_555
H8 C11 1_555 1_555
C12 C9 1_555 1_555
O3 C12 1_555 1_555
O4 C12 1_555 1_555
N4 C7 1_555 1_555
H9 N4 1_555 1_555
H10 N4 1_555 1_555
Co2 O3 1_555 1_555
O5 Co1 1_555 1_555
O6 Co1 1_555 1_555
O7 Co1 1_555 1_555
O8 Co1 1_555 1_555
C4 C5 1_555 1_555
C10 C11 1_555 1_555
O4 Co2 1_555 1_555
C6 C3 1_555 1_555
O1 C6 1_555 1_555
O2 C6 1_555 1_555
Co3 O1 1_555 1_555
O2 Co3 1_555 1_555
Co1_2 N1_2 1_555 1_555
N1_2 C1 1_555 1_555
C1 C2 1_555 1_555
C2 H1 1_555 1_555
C3_2 C2 1_555 1_555
C4_2 C3_2 1_555 1_555
H2 C4_2 1_555 1_555
C5_2 N1_2 1_555 1_555
H3_2 C5_2 1_555 1_555
C6_2 C3_2 1_555 1_555
O1_2 C6_2 1_555 1_555
O2_2 C6_2 1_555 1_555
N2 C1 1_555 1_555
H4 N2 1_555 1_555
H5 N2 1_555 1_555
N3_2 Co1_2 1_555 1_555
C7_2 N3_2 1_555 1_555
C8_2 C7_2 1_555 1_555
H6_2 C8_2 1_555 1_555
C9_2 C8_2 1_555 1_555
C10_2 C9_2 1_555 1_555
H7_2 C10_2 1_555 1_555
C11_2 N3_2 1_555 1_555
H8_2 C11_2 1_555 1_555
C12_2 C9_2 1_555 1_555
O3_2 C12_2 1_555 1_555
O4_2 C12_2 1_555 1_555
N4_2 C7_2 1_555 1_555
H9_2 N4_2 1_555 1_555
H10_2 N4_2 1_555 1_555
Co2 O3_2 1_555 1_555
Co3 O1_2 1_555 1_555
O5_2 Co1_2 1_555 1_555
O6_2 Co1_2 1_555 1_555
O7_2 Co1_2 1_555 1_555
O8_2 Co1_2 1_555 1_555
C4_2 C5_2 1_555 1_555
O2_2 Co3 1_555 1_555
C10_2 C11_2 1_555 1_555
O4_2 Co2 1_555 1_555
Co1_3 N1_3 1_555 1_555
H2_2 C4_3 1_555 1_555
C5_3 N1_3 1_555 1_555
H3_3 C5_3 1_555 1_555
N3_3 Co1_3 1_555 1_555
C7_3 N3_3 1_555 1_555
C8_3 C7_3 1_555 1_555
H6_3 C8_3 1_555 1_555
C9_3 C8_3 1_555 1_555
C10_3 C9_3 1_555 1_555
H7_3 C10_3 1_555 1_555
C11_3 N3_3 1_555 1_555
H8_3 C11_3 1_555 1_555
C12_3 C9_3 1_555 1_555
O3_3 C12_3 1_555 1_555
O4_3 C12_3 1_555 1_555
N4_3 C7_3 1_555 1_555
H9_3 N4_3 1_555 1_555
H10_3 N4_3 1_555 1_555
Co2_2 O3_3 1_555 1_555
O5_3 Co1_3 1_555 1_555
O6_3 Co1_3 1_555 1_555
O7_3 Co1_3 1_555 1_555
O8_3 Co1_3 1_555 1_555
C4_3 C5_3 1_555 1_555
C10_3 C11_3 1_555 1_555
O4_3 Co2_2 1_555 1_555
C1_2 C2_2 1_555 1_555
C2_2 H1_2 1_555 1_555
C3_3 C2_2 1_555 1_555
C6_3 C3_3 1_555 1_555
O1_3 C6_3 1_555 1_555
O2_3 C6_3 1_555 1_555
N2_2 C1_2 1_555 1_555
H4_2 N2_2 1_555 1_555
H5_2 N2_2 1_555 1_555
Co3_2 O1_3 1_555 1_555
O2_3 Co3_2 1_555 1_555
Co1_4 N1_4 1_555 1_555
N1_4 C1_3 1_555 1_555
C1_3 C2_3 1_555 1_555
C2_3 H1_3 1_555 1_555
C3_4 C2_3 1_555 1_555
C4_4 C3_4 1_555 1_555
H2_3 C4_4 1_555 1_555
C5_4 N1_4 1_555 1_555
H3_4 C5_4 1_555 1_555
C6_4 C3_4 1_555 1_555
O1_4 C6_4 1_555 1_555
O2_4 C6_4 1_555 1_555
N2_3 C1_3 1_555 1_555
H4_3 N2_3 1_555 1_555
H5_3 N2_3 1_555 1_555
N3_4 Co1_4 1_555 1_555
C7_4 N3_4 1_555 1_555
C8_4 C7_4 1_555 1_555
H6_4 C8_4 1_555 1_555
C11_4 N3_4 1_555 1_555
H8_4 C11_4 1_555 1_555
N4_4 C7_4 1_555 1_555
H9_4 N4_4 1_555 1_555
H10_4 N4_4 1_555 1_555
Co3_2 O1_4 1_555 1_555
O5_4 Co1_4 1_555 1_555
O6_4 Co1_4 1_555 1_555
O7_4 Co1_4 1_555 1_555
O8_4 Co1_4 1_555 1_555
C4_4 C5_4 1_555 1_555
O2_4 Co3_2 1_555 1_555
C10_4 C11_4 1_555 1_555
C12_4 C9_4 1_555 1_555
O3_4 C12_4 1_555 1_555
O4_4 C12_4 1_555 1_555
Co2_2 O3_4 1_555 1_555
O4_4 Co2_2 1_555 1_555
C6_5 C3_5 1_555 1_555
O5 C6_5 1_555 1_555
O7 C6_5 1_555 1_555
Co2_2 N1_5 1_555 1_555
N1_5 C1_4 1_555 1_555
C1_4 C2_4 1_555 1_555
C2_4 H1_4 1_555 1_555
C5_5 N1_5 1_555 1_555
H3_5 C5_5 1_555 1_555
N2_4 C1_4 1_555 1_555
H4_4 N2_4 1_555 1_555
H5_4 N2_4 1_555 1_555
N3_5 Co2_2 1_555 1_555
C7_5 N3_5 1_555 1_555
C8_5 C7_5 1_555 1_555
H6_5 C8_5 1_555 1_555
C9_5 C8_5 1_555 1_555
C10_5 C9_5 1_555 1_555
H7_5 C10_5 1_555 1_555
C11_5 N3_5 1_555 1_555
H8_5 C11_5 1_555 1_555
C12_5 C9_5 1_555 1_555
O5_2 C12_5 1_555 1_555
O7_2 C12_5 1_555 1_555
N4_5 C7_5 1_555 1_555
H9_5 N4_5 1_555 1_555
H10_5 N4_5 1_555 1_555
C4_5 C5_5 1_555 1_555
C10_5 C11_5 1_555 1_555
C1_5 C2_5 1_555 1_555
C2_5 H1_5 1_555 1_555
C3_6 C2_5 1_555 1_555
C6_6 C3_6 1_555 1_555
O6 C6_6 1_555 1_555
O8 C6_6 1_555 1_555
N2_5 C1_5 1_555 1_555
H4_5 N2_5 1_555 1_555
H5_5 N2_5 1_555 1_555
Co3_2 N1_6 1_555 1_555
H2_5 C4_6 1_555 1_555
C5_6 N1_6 1_555 1_555
H3_6 C5_6 1_555 1_555
N3_6 Co3_2 1_555 1_555
C7_6 N3_6 1_555 1_555
C8_6 C7_6 1_555 1_555
H6_6 C8_6 1_555 1_555
C9_6 C8_6 1_555 1_555
C10_6 C9_6 1_555 1_555
H7_6 C10_6 1_555 1_555
C11_6 N3_6 1_555 1_555
H8_6 C11_6 1_555 1_555
C12_6 C9_6 1_555 1_555
O6_2 C12_6 1_555 1_555
O8_2 C12_6 1_555 1_555
N4_6 C7_6 1_555 1_555
H9_6 N4_6 1_555 1_555
H10_6 N4_6 1_555 1_555
C4_6 C5_6 1_555 1_555
C10_6 C11_6 1_555 1_555
Co2 N1_7 1_555 1_555
N1_7 C1_6 1_555 1_555
N2_6 C1_6 1_555 1_555
H4_6 N2_6 1_555 1_555
H5_6 N2_6 1_555 1_555
N3_7 Co2 1_555 1_555
C7_7 N3_7 1_555 1_555
N4_7 C7_7 1_555 1_555
H9_7 N4_7 1_555 1_555
H10_7 N4_7 1_555 1_555
C2_6 H1_6 1_555 1_555
C3_7 C2_6 1_555 1_555
C4_7 C3_7 1_555 1_555
H2_6 C4_7 1_555 1_555
H3_7 C5_7 1_555 1_555
C6_7 C3_7 1_555 1_555
O5_3 C6_7 1_555 1_555
O7_3 C6_7 1_555 1_555
H6_7 C8_7 1_555 1_555
C9_7 C8_7 1_555 1_555
C10_7 C9_7 1_555 1_555
H7_7 C10_7 1_555 1_555
H8_7 C11_7 1_555 1_555
C12_7 C9_7 1_555 1_555
O5_4 C12_7 1_555 1_555
O7_4 C12_7 1_555 1_555
C4_7 C5_7 1_555 1_555
C10_7 C11_7 1_555 1_555
C2_7 H1_7 1_555 1_555
C3_8 C2_7 1_555 1_555
C6_8 C3_8 1_555 1_555
O6_3 C6_8 1_555 1_555
O8_3 C6_8 1_555 1_555
Co3 N1_8 1_555 1_555
N3_8 Co3 1_555 1_555
C7_8 N3_8 1_555 1_555
N4_8 C7_8 1_555 1_555
H9_8 N4_8 1_555 1_555
H10_8 N4_8 1_555 1_555
C12_8 C9_8 1_555 1_555
O6_4 C12_8 1_555 1_555
O8_4 C12_8 1_555 1_555
C1_7 C2_8 1_555 1_555
C2_8 H1_8 1_555 1_555
N2_7 C1_7 1_555 1_555
H4_7 N2_7 1_555 1_555
H5_7 N2_7 1_555 1_555
Co1_5 N1_9 1_555 1_555
N1_9 C1_8 1_555 1_555
C1_8 C2_9 1_555 1_555
C2_9 H1_9 1_555 1_555
C5_8 N1_9 1_555 1_555
H3_8 C5_8 1_555 1_555
N2_8 C1_8 1_555 1_555
H4_8 N2_8 1_555 1_555
H5_8 N2_8 1_555 1_555
N3_9 Co1_5 1_555 1_555
C7_9 N3_9 1_555 1_555
C8_8 C7_9 1_555 1_555
H6_8 C8_8 1_555 1_555
C9_9 C8_8 1_555 1_555
C10_8 C9_9 1_555 1_555
H7_9 C10_8 1_555 1_555
C11_8 N3_9 1_555 1_555
H8_8 C11_8 1_555 1_555
C12_9 C9_9 1_555 1_555
O3_5 C12_9 1_555 1_555
O4_5 C12_9 1_555 1_555
N4_9 C7_9 1_555 1_555
H9_9 N4_9 1_555 1_555
H10_9 N4_9 1_555 1_555
Co2_3 O3_5 1_555 1_555
O5_5 Co1_5 1_555 1_555
O6_5 Co1_5 1_555 1_555
O7_5 Co1_5 1_555 1_555
O8_5 Co1_5 1_555 1_555
C4_8 C5_8 1_555 1_555
C10_8 C11_8 1_555 1_555
O4_5 Co2_3 1_555 1_555
C6_9 C3_9 1_555 1_555
O1_5 C6_9 1_555 1_555
O2_5 C6_9 1_555 1_555
Co3_3 O1_5 1_555 1_555
O2_5 Co3_3 1_555 1_555
Co1_6 N1_10 1_555 1_555
H2_9 C4_9 1_555 1_555
C5_9 N1_10 1_555 1_555
H3_9 C5_9 1_555 1_555
N3_10 Co1_6 1_555 1_555
C7_10 N3_10 1_555 1_555
C8_9 C7_10 1_555 1_555
H6_9 C8_9 1_555 1_555
C9_10 C8_9 1_555 1_555
C10_9 C9_10 1_555 1_555
H7_10 C10_9 1_555 1_555
C11_9 N3_10 1_555 1_555
H8_9 C11_9 1_555 1_555
C12_10 C9_10 1_555 1_555
O3_6 C12_10 1_555 1_555
O4_6 C12_10 1_555 1_555
N4_10 C7_10 1_555 1_555
H9_10 N4_10 1_555 1_555
H10_10 N4_10 1_555 1_555
Co2_3 O3_6 1_555 1_555
O5_6 Co1_6 1_555 1_555
O6_6 Co1_6 1_555 1_555
O7_6 Co1_6 1_555 1_555
O8_6 Co1_6 1_555 1_555
C4_9 C5_9 1_555 1_555
C10_9 C11_9 1_555 1_555
O4_6 Co2_3 1_555 1_555
C1_9 C2_10 1_555 1_555
C2_10 H1_10 1_555 1_555
C3_10 C2_10 1_555 1_555
C6_10 C3_10 1_555 1_555
O1_6 C6_10 1_555 1_555
O2_6 C6_10 1_555 1_555
N2_9 C1_9 1_555 1_555
H4_9 N2_9 1_555 1_555
H5_9 N2_9 1_555 1_555
Co3_3 O1_6 1_555 1_555
O2_6 Co3_3 1_555 1_555
C2_11 H1_11 1_555 1_555
C3_11 C2_11 1_555 1_555
C4_10 C3_11 1_555 1_555
H2_10 C4_10 1_555 1_555
H3_10 C5_10 1_555 1_555
C6_11 C3_11 1_555 1_555
O1_7 C6_11 1_555 1_555
O2_7 C6_11 1_555 1_555
H6_10 C8_10 1_555 1_555
C9_11 C8_10 1_555 1_555
C10_10 C9_11 1_555 1_555
H7_11 C10_10 1_555 1_555
H8_10 C11_10 1_555 1_555
C12_11 C9_11 1_555 1_555
O3_7 C12_11 1_555 1_555
O4_7 C12_11 1_555 1_555
Co2_4 O3_7 1_555 1_555
Co3_4 O1_7 1_555 1_555
C4_10 C5_10 1_555 1_555
O2_7 Co3_4 1_555 1_555
C10_10 C11_10 1_555 1_555
O4_7 Co2_4 1_555 1_555
Co1_7 N1_11 1_555 1_555
N1_11 C1_10 1_555 1_555
N2_10 C1_10 1_555 1_555
H4_10 N2_10 1_555 1_555
H5_10 N2_10 1_555 1_555
N3_11 Co1_7 1_555 1_555
C7_11 N3_11 1_555 1_555
N4_11 C7_11 1_555 1_555
H9_11 N4_11 1_555 1_555
H10_11 N4_11 1_555 1_555
O5_7 Co1_7 1_555 1_555
O6_7 Co1_7 1_555 1_555
O7_7 Co1_7 1_555 1_555
O8_7 Co1_7 1_555 1_555
C12_12 C9_12 1_555 1_555
O3_8 C12_12 1_555 1_555
O4_8 C12_12 1_555 1_555
Co2_4 O3_8 1_555 1_555
O4_8 Co2_4 1_555 1_555
Co1_8 N1_12 1_555 1_555
N3_12 Co1_8 1_555 1_555
C7_12 N3_12 1_555 1_555
N4_12 C7_12 1_555 1_555
H9_12 N4_12 1_555 1_555
H10_12 N4_12 1_555 1_555
O5_8 Co1_8 1_555 1_555
O6_8 Co1_8 1_555 1_555
O7_8 Co1_8 1_555 1_555
O8_8 Co1_8 1_555 1_555
C2_12 H1_12 1_555 1_555
C3_12 C2_12 1_555 1_555
C6_12 C3_12 1_555 1_555
O1_8 C6_12 1_555 1_555
O2_8 C6_12 1_555 1_555
Co3_4 O1_8 1_555 1_555
O2_8 Co3_4 1_555 1_555
C6_13 C3_13 1_555 1_555
O6_8 C6_13 1_555 1_555
O8_8 C6_13 1_555 1_555
Co3_3 N1_13 1_555 1_555
C5_11 N1_13 1_555 1_555
H3_11 C5_11 1_555 1_555
N3_13 Co3_3 1_555 1_555
C7_13 N3_13 1_555 1_555
C8_11 C7_13 1_555 1_555
H6_11 C8_11 1_555 1_555
C9_13 C8_11 1_555 1_555
C10_11 C9_13 1_555 1_555
H7_13 C10_11 1_555 1_555
C11_11 N3_13 1_555 1_555
H8_11 C11_11 1_555 1_555
C12_13 C9_13 1_555 1_555
O6_7 C12_13 1_555 1_555
O8_7 C12_13 1_555 1_555
N4_13 C7_13 1_555 1_555
H9_13 N4_13 1_555 1_555
H10_13 N4_13 1_555 1_555
C4_11 C5_11 1_555 1_555
C10_11 C11_11 1_555 1_555
Co2_3 N1_14 1_555 1_555
N1_14 C1_11 1_555 1_555
C1_11 C2_13 1_555 1_555
C2_13 H1_13 1_555 1_555
C3_14 C2_13 1_555 1_555
C4_12 C3_14 1_555 1_555
H2_11 C4_12 1_555 1_555
C5_12 N1_14 1_555 1_555
H3_12 C5_12 1_555 1_555
C6_14 C3_14 1_555 1_555
O5_8 C6_14 1_555 1_555
O7_8 C6_14 1_555 1_555
N2_11 C1_11 1_555 1_555
H4_11 N2_11 1_555 1_555
H5_11 N2_11 1_555 1_555
N3_14 Co2_3 1_555 1_555
C7_14 N3_14 1_555 1_555
C8_12 C7_14 1_555 1_555
H6_12 C8_12 1_555 1_555
C9_14 C8_12 1_555 1_555
C10_12 C9_14 1_555 1_555
H7_14 C10_12 1_555 1_555
C11_12 N3_14 1_555 1_555
H8_12 C11_12 1_555 1_555
C12_14 C9_14 1_555 1_555
O5_7 C12_14 1_555 1_555
O7_7 C12_14 1_555 1_555
N4_14 C7_14 1_555 1_555
H9_14 N4_14 1_555 1_555
H10_14 N4_14 1_555 1_555
C4_12 C5_12 1_555 1_555
C10_12 C11_12 1_555 1_555
C1_12 C2_14 1_555 1_555
C2_14 H1_14 1_555 1_555
C3_15 C2_14 1_555 1_555
C6_15 C3_15 1_555 1_555
O6_6 C6_15 1_555 1_555
O8_6 C6_15 1_555 1_555
N2_12 C1_12 1_555 1_555
H4_12 N2_12 1_555 1_555
H5_12 N2_12 1_555 1_555
Co3_4 N1_15 1_555 1_555
H2_12 C4_13 1_555 1_555
C5_13 N1_15 1_555 1_555
H3_13 C5_13 1_555 1_555
N3_15 Co3_4 1_555 1_555
C7_15 N3_15 1_555 1_555
C8_13 C7_15 1_555 1_555
H6_13 C8_13 1_555 1_555
C9_15 C8_13 1_555 1_555
C10_13 C9_15 1_555 1_555
H7_15 C10_13 1_555 1_555
C11_13 N3_15 1_555 1_555
H8_13 C11_13 1_555 1_555
C12_15 C9_15 1_555 1_555
O6_5 C12_15 1_555 1_555
O8_5 C12_15 1_555 1_555
N4_15 C7_15 1_555 1_555
H9_15 N4_15 1_555 1_555
H10_15 N4_15 1_555 1_555
C4_13 C5_13 1_555 1_555
C10_13 C11_13 1_555 1_555
C12_16 C9_16 1_555 1_555
O5_5 C12_16 1_555 1_555
O7_5 C12_16 1_555 1_555
Co2_4 N1_16 1_555 1_555
N1_16 C1_13 1_555 1_555
C1_13 C2_15 1_555 1_555
C2_15 H1_15 1_555 1_555
C3_16 C2_15 1_555 1_555
C4_14 C3_16 1_555 1_555
H2_13 C4_14 1_555 1_555
C5_14 N1_16 1_555 1_555
H3_14 C5_14 1_555 1_555
C6_16 C3_16 1_555 1_555
O5_6 C6_16 1_555 1_555
O7_6 C6_16 1_555 1_555
N2_13 C1_13 1_555 1_555
H4_13 N2_13 1_555 1_555
H5_13 N2_13 1_555 1_555
N3_16 Co2_4 1_555 1_555
C7_16 N3_16 1_555 1_555
C8_14 C7_16 1_555 1_555
H6_14 C8_14 1_555 1_555
C11_14 N3_16 1_555 1_555
H8_14 C11_14 1_555 1_555
N4_16 C7_16 1_555 1_555
H9_16 N4_16 1_555 1_555
H10_16 N4_16 1_555 1_555
C4_14 C5_14 1_555 1_555
C10_14 C11_14 1_555 1_555
H2_14 C4_15 1_555 1_555
H3_15 C5_15 1_555 1_555
H6_15 C8_15 1_555 1_555
H8_15 C11_15 1_555 1_555
C4_15 C5_15 1_555 1_555
C10_15 C11_15 1_555 1_555
N2_14 C1_14 1_555 1_555
H4_14 N2_14 1_555 1_555
H5_14 N2_14 1_555 1_555
C1_15 C2_16 1_555 1_555
C2_16 H1_16 1_555 1_555
N2_15 C1_15 1_555 1_555
H4_15 N2_15 1_555 1_555
H5_15 N2_15 1_555 1_555
N2_16 C1_16 1_555 1_555
H4_16 N2_16 1_555 1_555
H5_16 N2_16 1_555 1_555
H2_16 C4_16 1_555 1_555
H3_16 C5_16 1_555 1_555
H6_16 C8_16 1_555 1_555
H8_16 C11_16 1_555 1_555
C4_16 C5_16 1_555 1_555
C10_16 C11_16 1_555 1_555

#END
