
###############################################################################
#
# This file contains modified crystal structure data generated from the
# MOF subset of the Cambridge Structural Database (CSD) v543 
# hosted by the Cambridge Crystallographic Data Centre (CCDC).
#
# This work is licensed under the Creative Commons
# Attribution-NonCommercial-ShareAlike 4.0 International License.
# To view a copy of this license, visit
# http://creativecommons.org/licenses/by-nc-sa/4.0/
# or send a letter to
# Creative Commons, PO Box 1866, Mountain View, CA 94042, USA.
#
# CIF created using the CSD Python API on 29 September 2022
# The structure has been converted into the P1 space group
# The structure has a 3D framework
# The original CSD entry FUZKAN is in the orthorhombic crystal system
# The original CSD entry FUZKAN is in a Sohncke space group
# The framework has been calculated to contain at least 10.0% void space
# The void calculation uses a probe of radius 1.32A, grid spacing 0.4
# The framework is charged, counterions have been retained in the structure
#
###############################################################################

data_FUZKAN
_chemical_formula_moiety         '(C136 H120 N16 Ni6 O52)n'
_symmetry_cell_setting           triclinic
_symmetry_space_group_name_H-M   'P 1'
_symmetry_Int_Tables_number      1
_space_group_name_Hall           'P 1'
loop_
_symmetry_equiv_pos_site_id
_symmetry_equiv_pos_as_xyz
1 x,y,z
_cell_length_a                   10.4874(4)
_cell_length_b                   15.9036(5)
_cell_length_c                   26.1360(12)
_cell_angle_alpha                90
_cell_angle_beta                 90
_cell_angle_gamma                90
_cell_volume                     4359.16
loop_
_atom_site_label
_atom_site_type_symbol
_atom_site_fract_x
_atom_site_fract_y
_atom_site_fract_z
C1 C 0.5081(9) 0.1103(4) 0.4639(3)
C2 C 0.5268(6) 0.0179(3) 0.4763(3)
H1 H 0.4155 0.0170 0.5387
O5 O 0.5734(6) 0.1415(3) 0.4305(2)
O6 O 0.4205(6) 0.1488(3) 0.4861(2)
C3 C 0.4664(6) 0.9829(3) 0.5182(2)
C4 C 0.4794(5) 0.8997(3) 0.5306(2)
C5 C 0.4132(5) 0.8603(3) 0.5756(2)
C6 C 0.5524(5) 0.8480(3) 0.4980(2)
H2 H 0.5613 0.7911 0.5054
C7 C 0.6009(6) 0.9672(3) 0.4443(3)
H3 H 0.6430 0.9898 0.4161
C8 C 0.6102(5) 0.8808(3) 0.4558(2)
C9 C 0.6837(5) 0.8216(3) 0.4206(2)
C10 C 0.0201(5) 0.6419(4) 0.2910(2)
C11 C 0.1377(5) 0.5885(3) 0.2866(2)
C12 C 0.1335(5) 0.5117(3) 0.2609(2)
H4 H 0.0584 0.4942 0.2453
C13 C 0.2415(6) 0.4613(3) 0.2587(2)
C14 C 0.3527(5) 0.4862(3) 0.2814(2)
H5 H 0.4236 0.4511 0.2808
C15 C 0.3595(5) 0.5651(3) 0.3056(2)
C16 C 0.2486(5) 0.6137(3) 0.3081(2)
H6 H 0.2512 0.6650 0.3252
C17 C 0.2332(5) 0.3758(3) 0.2313(2)
C18 C 0.4778(5) 0.5948(3) 0.3297(2)
C19 C 0.4926(6) 0.6081(4) 0.4706(3)
H7 H 0.4751 0.6652 0.4681
C20 C 0.4269(8) 0.5599(5) 0.5066(3)
H8 H 0.3699 0.5847 0.5293
C21 C 0.4495(8) 0.4729(4) 0.5075(3)
H9 H 0.4031 0.4386 0.5295
C22 C 0.5380(6) 0.4392(4) 0.4765(3)
C23 C 0.6042(6) 0.4923(3) 0.4440(2)
H10 H 0.6691 0.4698 0.4240
C24 C 0.5633(8) 0.3467(4) 0.4744(3)
H11 H 0.6545 0.3370 0.4759
H12 H 0.5249 0.3199 0.5039
C25 C 0.3756(8) 0.3192(4) 0.4214(3)
H13 H 0.3569 0.3783 0.4162
H14 H 0.3334 0.3014 0.4526
C26 C 0.3233(8) 0.2687(4) 0.3764(4)
H15 H 0.3671 0.2860 0.3455
H16 H 0.3419 0.2096 0.3819
C27 C 0.1825(8) 0.2789(4) 0.3687(3)
H17 H 0.1645 0.3378 0.3625
H18 H 0.1392 0.2629 0.4000
C28 C 0.1282(8) 0.2278(4) 0.3250(3)
H19 H 0.1654 0.2471 0.2931
H20 H 0.0369 0.2372 0.3232
C29 C 0.0970(8) 0.0981(4) 0.3771(3)
H21 H 0.0056 0.1075 0.3766
H22 H 0.1313 0.1272 0.4067
C30 C 0.1224(6) 0.0037(4) 0.3829(3)
H23 H 0.2980 0.0094 0.4128
N1 N 0.5792(5) 0.5747(3) 0.4400(2)
O1 O 0.7639(3) 0.8533(2) 0.38986(15)
O2 O 0.6579(4) 0.7455(2) 0.42568(15)
O3 O 0.3330(4) 0.9059(2) 0.59938(15)
O4 O 0.4376(4) 0.7860(2) 0.58506(15)
O7 O 0.0310(4) 0.7099(2) 0.31458(16)
O9 O 0.3301(4) 0.3310(2) 0.23119(18)
O10 O 0.1285(3) 0.3589(2) 0.21124(15)
O11 O 0.4803(4) 0.6657(2) 0.35075(18)
O12 O 0.5801(4) 0.5501(2) 0.32943(17)
O13 O 0.7506(4) 0.7052(2) 0.32151(15)
Ni1 Ni 0.66178(6) 0.64378(4) 0.38119(3)
N3 N 0.5112(7) 0.3084(3) 0.4270(3)
H27 H 0.530(6) 0.2553(15) 0.426(3)
H28 H 0.568(5) 0.332(3) 0.406(2)
N4 N 0.1531(7) 0.1342(4) 0.3307(2)
H29 H 0.113(5) 0.111(4) 0.3056(19)
H30 H 0.231(3) 0.119(4) 0.329(3)
O15 O 0.8330(4) 0.5941(2) 0.40062(15)
Ni3 Ni 0.16178(6) 0.85622(4) 0.61881(3)
Ni4 Ni 0.89674(6) 0.78285(4) 0.35130(3)
Ni5 Ni 0.39674(6) 0.71715(4) 0.64870(3)
Ni7 Ni 0.10326(6) 0.28285(4) 0.14870(3)
C31 C 0.2326(9) 0.9728(5) 0.4036(4)
C32 C 0.2469(7) 0.8864(5) 0.4111(4)
H24 H 0.3187 0.8641 0.4270
C33 C 0.1496(7) 0.8358(4) 0.3939(3)
H25 H 0.1604 0.7779 0.3962
C34 C 0.0288(6) 0.9482(3) 0.3682(2)
N2 N 0.0415(4) 0.8642(3) 0.37417(19)
O8 O 0.9175(4) 0.6149(2) 0.27162(16)
H26 H 0.9543 0.9691 0.3537
O16 O 0.9376(4) 0.7140(2) 0.41494(15)
O18 O 0.8715(3) 0.8589(2) 0.28876(15)
C31_2 C 0.2674(9) 0.0272(5) 0.9036(4)
C32_2 C 0.2531(7) 0.1136(5) 0.9111(4)
H24_2 H 0.1813 0.1359 0.9270
C33_2 C 0.3504(7) 0.1642(4) 0.8939(3)
H25_2 H 0.3396 0.2221 0.8962
C34_2 C 0.4712(6) 0.0518(3) 0.8682(2)
H26_2 H 0.5457 0.0309 0.8537
N2_2 N 0.4585(4) 0.1358(3) 0.87417(19)
Ni2 Ni 0.60326(6) 0.21715(4) 0.85130(3)
O14 O 0.7361(3) 0.1467(2) 0.88986(15)
O16_2 O 0.5624(4) 0.2860(2) 0.91494(15)
O17 O 0.4690(4) 0.2901(2) 0.81458(16)
O18_2 O 0.6285(3) 0.1411(2) 0.78876(15)
O19 O 0.7494(4) 0.2948(2) 0.82151(15)
C3_2 C 0.0336(6) 0.0171(3) 0.0182(2)
C4_2 C 0.0206(5) 0.1003(3) 0.0306(2)
C5_2 C 0.0868(5) 0.1397(3) 0.0756(2)
C20_2 C 0.0731(8) 0.4401(5) 0.0066(3)
H8_2 H 0.1301 0.4153 0.0293
C21_2 C 0.0505(8) 0.5271(4) 0.0075(3)
H9_2 H 0.0969 0.5614 0.0295
O3_2 O 0.1670(4) 0.0941(2) 0.09938(15)
O4_2 O 0.0624(4) 0.2140(2) 0.08506(15)
Ni3_2 Ni 0.33822(6) 0.14378(4) 0.11881(3)
C10_2 C 0.4799(5) 0.3581(4) 0.7910(2)
C11_2 C 0.3623(5) 0.4115(3) 0.7866(2)
C12_2 C 0.3665(5) 0.4883(3) 0.7609(2)
H4_2 H 0.4416 0.5058 0.7453
C13_2 C 0.2585(6) 0.5387(3) 0.7587(2)
C14_2 C 0.1473(5) 0.5138(3) 0.7814(2)
H5_2 H 0.0764 0.5489 0.7808
C15_2 C 0.1405(5) 0.4349(3) 0.8056(2)
C16_2 C 0.2514(5) 0.3863(3) 0.8081(2)
H6_2 H 0.2488 0.3350 0.8252
C17_2 C 0.2668(5) 0.6242(3) 0.7313(2)
C18_2 C 0.0222(5) 0.4052(3) 0.8297(2)
C19_2 C 0.0074(6) 0.3919(4) 0.9706(3)
H7_2 H 0.0249 0.3348 0.9681
C25_2 C 0.1244(8) 0.6808(4) 0.9214(3)
H13_2 H 0.1431 0.6217 0.9162
H14_2 H 0.1666 0.6986 0.9526
C26_2 C 0.1767(8) 0.7313(4) 0.8764(4)
H15_2 H 0.1329 0.7140 0.8455
H16_2 H 0.1581 0.7904 0.8819
C27_2 C 0.3175(8) 0.7211(4) 0.8687(3)
H17_2 H 0.3355 0.6622 0.8625
H18_2 H 0.3608 0.7371 0.9000
C28_2 C 0.3718(8) 0.7722(4) 0.8250(3)
H19_2 H 0.3346 0.7529 0.7931
H20_2 H 0.4631 0.7628 0.8232
C29_2 C 0.4030(8) 0.9019(4) 0.8771(3)
H21_2 H 0.4944 0.8925 0.8766
H22_2 H 0.3687 0.8728 0.9067
C30_2 C 0.3776(6) 0.9963(4) 0.8829(3)
H23_2 H 0.2020 0.9906 0.9128
O8_2 O 0.5825(4) 0.3851(2) 0.77162(16)
O9_2 O 0.1699(4) 0.6690(2) 0.73119(18)
O10_2 O 0.3715(3) 0.6411(2) 0.71124(15)
O11_2 O 0.0197(4) 0.3343(2) 0.85075(18)
N4_2 N 0.3469(7) 0.8658(4) 0.8307(2)
H29_2 H 0.387(5) 0.889(4) 0.8056(19)
H30_2 H 0.269(3) 0.881(4) 0.829(3)
C6_2 C 0.9476(5) 0.1520(3) 0.9980(2)
C7_2 C 0.8991(6) 0.0328(3) 0.9443(3)
H3_2 H 0.8570 0.0102 0.9161
C8_2 C 0.8898(5) 0.1192(3) 0.9558(2)
C9_2 C 0.8163(5) 0.1784(3) 0.9206(2)
C22_2 C 0.9620(6) 0.5608(4) 0.9765(3)
C23_2 C 0.8958(6) 0.5077(3) 0.9440(2)
H10_2 H 0.8309 0.5302 0.9240
C24_2 C 0.9367(8) 0.6533(4) 0.9744(3)
H11_2 H 0.8455 0.6630 0.9759
N1_2 N 0.9208(5) 0.4253(3) 0.9400(2)
O2_2 O 0.8421(4) 0.2545(2) 0.92568(15)
O12_2 O 0.9199(4) 0.4499(2) 0.82943(17)
Ni1_2 Ni 0.83822(6) 0.35622(4) 0.88119(3)
N3_2 N 0.9888(7) 0.6916(3) 0.9270(3)
H27_2 H 0.970(6) 0.7447(15) 0.926(3)
H28_2 H 0.932(5) 0.668(3) 0.906(2)
O15_2 O 0.6670(4) 0.4059(2) 0.90062(15)
C1_2 C 0.0081(9) 0.3897(4) 0.5361(3)
C2_2 C 0.0268(6) 0.4821(3) 0.5237(3)
C6_3 C 0.0524(5) 0.6520(3) 0.5020(2)
H2_2 H 0.0613 0.7089 0.4946
C7_3 C 0.1009(6) 0.5328(3) 0.5557(3)
H3_3 H 0.1430 0.5102 0.5839
C8_3 C 0.1102(5) 0.6192(3) 0.5442(2)
C9_3 C 0.1837(5) 0.6784(3) 0.5794(2)
N1_3 N 0.0792(5) 0.9253(3) 0.5600(2)
O1_2 O 0.2639(3) 0.6467(2) 0.61014(15)
O2_3 O 0.1579(4) 0.7545(2) 0.57432(15)
O5_2 O 0.0734(6) 0.3585(3) 0.5695(2)
O12_3 O 0.0801(4) 0.9499(2) 0.67057(17)
O13_2 O 0.2506(4) 0.7948(2) 0.67849(15)
H4_3 H 0.5584 0.0058 0.7547
C13_3 C 0.7415(6) 0.0387(3) 0.7413(2)
C14_3 C 0.8527(5) 0.0138(3) 0.7186(2)
H5_3 H 0.9236 0.0489 0.7192
C17_3 C 0.7332(5) 0.1242(3) 0.7687(2)
C21_3 C 0.9495(8) 0.0271(4) 0.4925(3)
H9_3 H 0.9031 0.0614 0.4705
C25_3 C 0.8756(8) 0.1808(4) 0.5786(3)
H13_3 H 0.8569 0.1217 0.5838
H14_3 H 0.8334 0.1986 0.5474
C26_3 C 0.8233(8) 0.2313(4) 0.6236(4)
H15_3 H 0.8671 0.2140 0.6545
H16_3 H 0.8419 0.2904 0.6181
C27_3 C 0.6825(8) 0.2211(4) 0.6313(3)
H17_3 H 0.6645 0.1622 0.6375
H18_3 H 0.6392 0.2371 0.6000
C28_3 C 0.6282(8) 0.2722(4) 0.6750(3)
H19_3 H 0.6654 0.2529 0.7069
H20_3 H 0.5369 0.2628 0.6768
C29_3 C 0.5970(8) 0.4019(4) 0.6229(3)
H21_3 H 0.5056 0.3925 0.6234
H22_3 H 0.6313 0.3728 0.5933
C30_3 C 0.6224(6) 0.4963(4) 0.6171(3)
C31_3 C 0.7326(9) 0.5272(5) 0.5964(4)
H23_3 H 0.7980 0.4906 0.5872
C32_3 C 0.7469(7) 0.6136(5) 0.5889(4)
H24_3 H 0.8187 0.6359 0.5730
C33_3 C 0.6496(7) 0.6642(4) 0.6061(3)
H25_3 H 0.6604 0.7221 0.6038
C34_3 C 0.5288(6) 0.5518(3) 0.6318(2)
H26_3 H 0.4543 0.5309 0.6463
N2_3 N 0.5415(4) 0.6358(3) 0.62583(19)
O9_3 O 0.8301(4) 0.1690(2) 0.76881(18)
N4_3 N 0.6531(7) 0.3658(4) 0.6693(2)
H29_3 H 0.613(5) 0.389(4) 0.6944(19)
H30_3 H 0.731(3) 0.381(4) 0.671(3)
O17_2 O 0.5310(4) 0.7901(2) 0.68542(16)
C3_3 C 0.9664(6) 0.5171(3) 0.4818(2)
H1_2 H 0.9155 0.4830 0.4613
C4_3 C 0.9794(5) 0.6003(3) 0.4694(2)
C5_3 C 0.9132(5) 0.6397(3) 0.4244(2)
C10_3 C 0.5201(5) 0.8581(4) 0.7090(2)
C11_3 C 0.6377(5) 0.9115(3) 0.7134(2)
C12_3 C 0.6335(5) 0.9883(3) 0.7391(2)
C15_3 C 0.8595(5) 0.9349(3) 0.6944(2)
C16_3 C 0.7486(5) 0.8863(3) 0.6919(2)
H6_3 H 0.7512 0.8350 0.6748
C18_3 C 0.9778(5) 0.9052(3) 0.6703(2)
C19_3 C 0.9926(6) 0.8919(4) 0.5294(3)
H7_3 H 0.9751 0.8348 0.5319
C20_3 C 0.9269(8) 0.9401(5) 0.4934(3)
H8_3 H 0.8699 0.9153 0.4707
O6_2 O 0.9205(6) 0.3512(3) 0.5139(2)
O8_3 O 0.4175(4) 0.8851(2) 0.72838(16)
O11_3 O 0.9803(4) 0.8343(2) 0.64925(18)
O8_4 O 0.0825(4) 0.1149(2) 0.22838(16)
H26_4 H 0.0457 0.4691 0.1463
O14_2 O 0.2361(3) 0.3533(2) 0.11014(15)
O19_2 O 0.2494(4) 0.2052(2) 0.17849(15)
C1_3 C 0.4919(9) 0.6103(4) 0.0361(3)
C2_3 C 0.4732(6) 0.5179(3) 0.0237(3)
C6_4 C 0.4476(5) 0.3480(3) 0.0020(2)
C7_4 C 0.3991(6) 0.4672(3) 0.0557(3)
H3_4 H 0.3570 0.4898 0.0839
C8_4 C 0.3898(5) 0.3808(3) 0.0442(2)
C9_4 C 0.3163(5) 0.3216(3) 0.0794(2)
C10_4 C 0.9799(5) 0.1419(4) 0.2090(2)
C11_4 C 0.8623(5) 0.0885(3) 0.2134(2)
C12_4 C 0.8665(5) 0.0117(3) 0.2391(2)
C15_4 C 0.6405(5) 0.0651(3) 0.1944(2)
C16_4 C 0.7514(5) 0.1137(3) 0.1919(2)
H6_4 H 0.7488 0.1650 0.1748
C18_4 C 0.5222(5) 0.0948(3) 0.1703(2)
C19_4 C 0.5074(6) 0.1081(4) 0.0294(3)
H7_4 H 0.5249 0.1652 0.0319
N1_4 N 0.4208(5) 0.0747(3) 0.0600(2)
O2_4 O 0.3421(4) 0.2455(2) 0.07432(15)
O5_3 O 0.4266(6) 0.6415(3) 0.0695(2)
O6_3 O 0.5795(6) 0.6488(3) 0.0139(2)
O7_2 O 0.9690(4) 0.2099(2) 0.18542(16)
O11_4 O 0.5197(4) 0.1657(2) 0.14925(18)
O12_4 O 0.4199(4) 0.0501(2) 0.17057(17)
C3_4 C 0.5336(6) 0.4829(3) 0.9818(2)
H1_3 H 0.5845 0.5170 0.9613
C4_4 C 0.5206(5) 0.3997(3) 0.9694(2)
C5_4 C 0.5868(5) 0.3603(3) 0.9244(2)
H2_3 H 0.4387 0.2911 0.9946
C20_4 C 0.5731(8) 0.0599(5) 0.9934(3)
H8_4 H 0.6301 0.0847 0.9707
H4_4 H 0.9416 0.9942 0.2547
C13_4 C 0.7585(6) 0.9613(3) 0.2413(2)
C14_4 C 0.6473(5) 0.9862(3) 0.2186(2)
H5_4 H 0.5764 0.9511 0.2192
C17_4 C 0.7668(5) 0.8758(3) 0.2687(2)
C22_3 C 0.4620(6) 0.9392(4) 0.0235(3)
C23_3 C 0.3958(6) 0.9923(3) 0.0560(2)
H10_3 H 0.3309 0.9698 0.0760
C24_3 C 0.4367(8) 0.8467(4) 0.0256(3)
H11_3 H 0.3455 0.8370 0.0241
C25_4 C 0.6244(8) 0.8192(4) 0.0786(3)
H13_4 H 0.6431 0.8783 0.0838
H14_4 H 0.6666 0.8014 0.0474
C26_4 C 0.6767(8) 0.7687(4) 0.1236(4)
H15_4 H 0.6329 0.7860 0.1545
H16_4 H 0.6581 0.7096 0.1181
C27_4 C 0.8175(8) 0.7789(4) 0.1313(3)
H17_4 H 0.8355 0.8378 0.1375
H18_4 H 0.8608 0.7629 0.1000
C28_4 C 0.8718(8) 0.7278(4) 0.1750(3)
H19_4 H 0.8346 0.7471 0.2069
H20_4 H 0.9631 0.7372 0.1768
C29_4 C 0.9030(8) 0.5981(4) 0.1229(3)
H21_4 H 0.9944 0.6075 0.1234
H22_4 H 0.8687 0.6272 0.0933
C30_4 C 0.8776(6) 0.5037(4) 0.1171(3)
C31_4 C 0.7674(9) 0.4728(5) 0.0964(4)
H23_4 H 0.7020 0.5094 0.0872
C32_4 C 0.7531(7) 0.3864(5) 0.0889(4)
H24_4 H 0.6813 0.3641 0.0730
C33_4 C 0.8504(7) 0.3358(4) 0.1061(3)
H25_4 H 0.8396 0.2779 0.1038
C34_4 C 0.9712(6) 0.4482(3) 0.1318(2)
N2_4 N 0.9585(4) 0.3642(3) 0.12583(19)
O9_4 O 0.6699(4) 0.8310(2) 0.26881(18)
N3_3 N 0.4888(7) 0.8084(3) 0.0730(3)
H27_3 H 0.470(6) 0.7553(15) 0.074(3)
H28_3 H 0.432(5) 0.832(3) 0.094(2)
N4_4 N 0.8469(7) 0.6342(4) 0.1693(2)
H29_4 H 0.887(5) 0.611(4) 0.1944(19)
H30_4 H 0.769(3) 0.619(4) 0.171(3)
H1_4 H 0.0845 0.9830 0.0387
O6_4 O 0.0795(6) 0.8512(3) 0.9861(2)
H2_4 H 0.9387 0.2089 0.0054
H12_2 H 0.9751 0.6801 0.0039
C1_4 C 0.9919(9) 0.8897(4) 0.9639(3)
C2_4 C 0.9732(6) 0.9821(3) 0.9763(3)
O5_4 O 0.9266(6) 0.8585(3) 0.9305(2)
C22_4 C 0.0380(6) 0.0608(4) 0.5235(3)
C23_4 C 0.1042(6) 0.0077(3) 0.5560(2)
H10_4 H 0.1691 0.0302 0.5760
C24_4 C 0.0633(8) 0.1533(4) 0.5256(3)
H11_4 H 0.1545 0.1630 0.5241
H12_3 H 0.0249 0.1801 0.4961
N3_4 N 0.0112(7) 0.1916(3) 0.5730(3)
H27_4 H 0.030(6) 0.2447(15) 0.574(3)
H28_4 H 0.068(5) 0.168(3) 0.594(2)
C21_4 C 0.5505(8) 0.9729(4) 0.9925(3)
H9_4 H 0.5969 0.9386 0.9705
H12_4 H 0.4751 0.8199 0.9961
loop_
_geom_bond_atom_site_label_1
_geom_bond_atom_site_label_2
_geom_bond_site_symmetry_1
_geom_bond_site_symmetry_2
C1 C2 1_555 1_555
O5 C1 1_555 1_555
O6 C1 1_555 1_555
C4 C3 1_555 1_555
C5 C4 1_555 1_555
C6 C4 1_555 1_555
H2 C6 1_555 1_555
H3 C7 1_555 1_555
C8 C6 1_555 1_555
C9 C8 1_555 1_555
C10 C11 1_555 1_555
C11 C12 1_555 1_555
C12 H4 1_555 1_555
C13 C12 1_555 1_555
C14 C13 1_555 1_555
H5 C14 1_555 1_555
C15 C14 1_555 1_555
C16 C11 1_555 1_555
H6 C16 1_555 1_555
C17 C13 1_555 1_555
C18 C15 1_555 1_555
C19 H7 1_555 1_555
C20 C19 1_555 1_555
H8 C20 1_555 1_555
C21 C20 1_555 1_555
H9 C21 1_555 1_555
C22 C21 1_555 1_555
C23 C22 1_555 1_555
H10 C23 1_555 1_555
C24 C22 1_555 1_555
H11 C24 1_555 1_555
H12 C24 1_555 1_555
C25 H13 1_555 1_555
H14 C25 1_555 1_555
C26 C25 1_555 1_555
H15 C26 1_555 1_555
H16 C26 1_555 1_555
C27 C26 1_555 1_555
H17 C27 1_555 1_555
H18 C27 1_555 1_555
C28 C27 1_555 1_555
H19 C28 1_555 1_555
H20 C28 1_555 1_555
C29 H21 1_555 1_555
H22 C29 1_555 1_555
C30 C29 1_555 1_555
N1 C19 1_555 1_555
O1 C9 1_555 1_555
O2 C9 1_555 1_555
O3 C5 1_555 1_555
O4 C5 1_555 1_555
O7 C10 1_555 1_555
O9 C17 1_555 1_555
O10 C17 1_555 1_555
O11 C18 1_555 1_555
O12 C18 1_555 1_555
O13 Ni1 1_555 1_555
Ni1 N1 1_555 1_555
N3 C24 1_555 1_555
H27 N3 1_555 1_555
H28 N3 1_555 1_555
N4 C28 1_555 1_555
H29 N4 1_555 1_555
H30 N4 1_555 1_555
O15 Ni1 1_555 1_555
Ni3 O3 1_555 1_555
Ni4 O1 1_555 1_555
Ni5 O4 1_555 1_555
Ni7 O10 1_555 1_555
C7 C8 1_555 1_555
C15 C16 1_555 1_555
C23 N1 1_555 1_555
C25 N3 1_555 1_555
C29 N4 1_555 1_555
O2 Ni1 1_555 1_555
O11 Ni1 1_555 1_555
O12 Ni1 1_555 1_555
O13 Ni4 1_555 1_555
C32 C31 1_555 1_555
H24 C32 1_555 1_555
C33 C32 1_555 1_555
H25 C33 1_555 1_555
N2 C33 1_555 1_555
C34 N2 1_555 1_555
O16 Ni4 1_555 1_555
O18 Ni4 1_555 1_555
C32_2 C31_2 1_555 1_555
H24_2 C32_2 1_555 1_555
C33_2 C32_2 1_555 1_555
H25_2 C33_2 1_555 1_555
H26_2 C34_2 1_555 1_555
N2_2 C33_2 1_555 1_555
Ni2 N2_2 1_555 1_555
O14 Ni2 1_555 1_555
O16_2 Ni2 1_555 1_555
O17 Ni2 1_555 1_555
O18_2 Ni2 1_555 1_555
O19 Ni2 1_555 1_555
C34_2 N2_2 1_555 1_555
C4_2 C3_2 1_555 1_555
C5_2 C4_2 1_555 1_555
H8_2 C20_2 1_555 1_555
C21_2 C20_2 1_555 1_555
H9_2 C21_2 1_555 1_555
O3_2 C5_2 1_555 1_555
O4_2 C5_2 1_555 1_555
Ni3_2 O3_2 1_555 1_555
Ni7 O4_2 1_555 1_555
C10_2 C11_2 1_555 1_555
C11_2 C12_2 1_555 1_555
C12_2 H4_2 1_555 1_555
C13_2 C12_2 1_555 1_555
C14_2 C13_2 1_555 1_555
H5_2 C14_2 1_555 1_555
C15_2 C14_2 1_555 1_555
C16_2 C11_2 1_555 1_555
H6_2 C16_2 1_555 1_555
C17_2 C13_2 1_555 1_555
C18_2 C15_2 1_555 1_555
C19_2 H7_2 1_555 1_555
C25_2 H13_2 1_555 1_555
H14_2 C25_2 1_555 1_555
C26_2 C25_2 1_555 1_555
H15_2 C26_2 1_555 1_555
H16_2 C26_2 1_555 1_555
C27_2 C26_2 1_555 1_555
H17_2 C27_2 1_555 1_555
H18_2 C27_2 1_555 1_555
C28_2 C27_2 1_555 1_555
H19_2 C28_2 1_555 1_555
H20_2 C28_2 1_555 1_555
C29_2 H21_2 1_555 1_555
H22_2 C29_2 1_555 1_555
C30_2 C29_2 1_555 1_555
O17 C10_2 1_555 1_555
O8_2 C10_2 1_555 1_555
O9_2 C17_2 1_555 1_555
O10_2 C17_2 1_555 1_555
O11_2 C18_2 1_555 1_555
N4_2 C28_2 1_555 1_555
H29_2 N4_2 1_555 1_555
H30_2 N4_2 1_555 1_555
Ni5 O10_2 1_555 1_555
C15_2 C16_2 1_555 1_555
C29_2 N4_2 1_555 1_555
H3_2 C7_2 1_555 1_555
C8_2 C6_2 1_555 1_555
C9_2 C8_2 1_555 1_555
C23_2 C22_2 1_555 1_555
H10_2 C23_2 1_555 1_555
C24_2 C22_2 1_555 1_555
H11_2 C24_2 1_555 1_555
O14 C9_2 1_555 1_555
O2_2 C9_2 1_555 1_555
O19 Ni1_2 1_555 1_555
Ni1_2 N1_2 1_555 1_555
N3_2 C24_2 1_555 1_555
H27_2 N3_2 1_555 1_555
H28_2 N3_2 1_555 1_555
O15_2 Ni1_2 1_555 1_555
C7_2 C8_2 1_555 1_555
C23_2 N1_2 1_555 1_555
O2_2 Ni1_2 1_555 1_555
O12_2 Ni1_2 1_555 1_555
C1_2 C2_2 1_555 1_555
H2_2 C6_3 1_555 1_555
C7_3 C2_2 1_555 1_555
H3_3 C7_3 1_555 1_555
C8_3 C6_3 1_555 1_555
C9_3 C8_3 1_555 1_555
O1_2 C9_3 1_555 1_555
O2_3 C9_3 1_555 1_555
O5_2 C1_2 1_555 1_555
O13_2 Ni3 1_555 1_555
Ni3 N1_3 1_555 1_555
Ni5 O1_2 1_555 1_555
C7_3 C8_3 1_555 1_555
O2_3 Ni3 1_555 1_555
O12_3 Ni3 1_555 1_555
O13_2 Ni5 1_555 1_555
C14_3 C13_3 1_555 1_555
H5_3 C14_3 1_555 1_555
C17_3 C13_3 1_555 1_555
H9_3 C21_3 1_555 1_555
C25_3 H13_3 1_555 1_555
H14_3 C25_3 1_555 1_555
C26_3 C25_3 1_555 1_555
H15_3 C26_3 1_555 1_555
H16_3 C26_3 1_555 1_555
C27_3 C26_3 1_555 1_555
H17_3 C27_3 1_555 1_555
H18_3 C27_3 1_555 1_555
C28_3 C27_3 1_555 1_555
H19_3 C28_3 1_555 1_555
H20_3 C28_3 1_555 1_555
C29_3 H21_3 1_555 1_555
H22_3 C29_3 1_555 1_555
C30_3 C29_3 1_555 1_555
C31_3 C30_3 1_555 1_555
H23_3 C31_3 1_555 1_555
C32_3 C31_3 1_555 1_555
H24_3 C32_3 1_555 1_555
C33_3 C32_3 1_555 1_555
H25_3 C33_3 1_555 1_555
C34_3 C30_3 1_555 1_555
H26_3 C34_3 1_555 1_555
N2_3 C33_3 1_555 1_555
O9_3 C17_3 1_555 1_555
O18_2 C17_3 1_555 1_555
Ni5 N2_3 1_555 1_555
N4_3 C28_3 1_555 1_555
H29_3 N4_3 1_555 1_555
H30_3 N4_3 1_555 1_555
O17_2 Ni5 1_555 1_555
C29_3 N4_3 1_555 1_555
C34_3 N2_3 1_555 1_555
C3_3 H1_2 1_555 1_555
C4_3 C3_3 1_555 1_555
C5_3 C4_3 1_555 1_555
C10_3 C11_3 1_555 1_555
C11_3 C12_3 1_555 1_555
C16_3 C11_3 1_555 1_555
H6_3 C16_3 1_555 1_555
C18_3 C15_3 1_555 1_555
C19_3 H7_3 1_555 1_555
C20_3 C19_3 1_555 1_555
H8_3 C20_3 1_555 1_555
O15 C5_3 1_555 1_555
O16 C5_3 1_555 1_555
O17_2 C10_3 1_555 1_555
O8_3 C10_3 1_555 1_555
O11_3 C18_3 1_555 1_555
C15_3 C16_3 1_555 1_555
O14_2 Ni7 1_555 1_555
O19_2 Ni7 1_555 1_555
C1_3 C2_3 1_555 1_555
C7_4 C2_3 1_555 1_555
H3_4 C7_4 1_555 1_555
C8_4 C6_4 1_555 1_555
C9_4 C8_4 1_555 1_555
C10_4 C11_4 1_555 1_555
C11_4 C12_4 1_555 1_555
C16_4 C11_4 1_555 1_555
H6_4 C16_4 1_555 1_555
C18_4 C15_4 1_555 1_555
C19_4 H7_4 1_555 1_555
N1_4 C19_4 1_555 1_555
O14_2 C9_4 1_555 1_555
O2_4 C9_4 1_555 1_555
O5_3 C1_3 1_555 1_555
O6_3 C1_3 1_555 1_555
O7_2 C10_4 1_555 1_555
O11_4 C18_4 1_555 1_555
O12_4 C18_4 1_555 1_555
O19_2 Ni3_2 1_555 1_555
Ni3_2 N1_4 1_555 1_555
C7_4 C8_4 1_555 1_555
C15_4 C16_4 1_555 1_555
O2_4 Ni3_2 1_555 1_555
O11_4 Ni3_2 1_555 1_555
O12_4 Ni3_2 1_555 1_555
C3_4 H1_3 1_555 1_555
C4_4 C3_4 1_555 1_555
C5_4 C4_4 1_555 1_555
H8_4 C20_4 1_555 1_555
O15_2 C5_4 1_555 1_555
O16_2 C5_4 1_555 1_555
C14_4 C13_4 1_555 1_555
H5_4 C14_4 1_555 1_555
C17_4 C13_4 1_555 1_555
C23_3 C22_3 1_555 1_555
H10_3 C23_3 1_555 1_555
C24_3 C22_3 1_555 1_555
H11_3 C24_3 1_555 1_555
C25_4 H13_4 1_555 1_555
H14_4 C25_4 1_555 1_555
C26_4 C25_4 1_555 1_555
H15_4 C26_4 1_555 1_555
H16_4 C26_4 1_555 1_555
C27_4 C26_4 1_555 1_555
H17_4 C27_4 1_555 1_555
H18_4 C27_4 1_555 1_555
C28_4 C27_4 1_555 1_555
H19_4 C28_4 1_555 1_555
H20_4 C28_4 1_555 1_555
C29_4 H21_4 1_555 1_555
H22_4 C29_4 1_555 1_555
C30_4 C29_4 1_555 1_555
C31_4 C30_4 1_555 1_555
H23_4 C31_4 1_555 1_555
C32_4 C31_4 1_555 1_555
H24_4 C32_4 1_555 1_555
C33_4 C32_4 1_555 1_555
H25_4 C33_4 1_555 1_555
C34_4 C30_4 1_555 1_555
N2_4 C33_4 1_555 1_555
O9_4 C17_4 1_555 1_555
O18 C17_4 1_555 1_555
N3_3 C24_3 1_555 1_555
H27_3 N3_3 1_555 1_555
H28_3 N3_3 1_555 1_555
N4_4 C28_4 1_555 1_555
H29_4 N4_4 1_555 1_555
H30_4 N4_4 1_555 1_555
C25_4 N3_3 1_555 1_555
C29_4 N4_4 1_555 1_555
C34_4 N2_4 1_555 1_555
C1_4 C2_4 1_555 1_555
O5_4 C1_4 1_555 1_555
C23_4 C22_4 1_555 1_555
H10_4 C23_4 1_555 1_555
C24_4 C22_4 1_555 1_555
H11_4 C24_4 1_555 1_555
H12_3 C24_4 1_555 1_555
N3_4 C24_4 1_555 1_555
H27_4 N3_4 1_555 1_555
H28_4 N3_4 1_555 1_555
H9_4 C21_4 1_555 1_555

#END
