
###############################################################################
#
# This file contains modified crystal structure data generated from the
# MOF subset of the Cambridge Structural Database (CSD) v543 
# hosted by the Cambridge Crystallographic Data Centre (CCDC).
#
# This work is licensed under the Creative Commons
# Attribution-NonCommercial-ShareAlike 4.0 International License.
# To view a copy of this license, visit
# http://creativecommons.org/licenses/by-nc-sa/4.0/
# or send a letter to
# Creative Commons, PO Box 1866, Mountain View, CA 94042, USA.
#
# CIF created using the CSD Python API on 29 September 2022
# The structure has been converted into the P1 space group
# The structure has a 3D framework
# The original CSD entry GACPUX is in the orthorhombic crystal system
# The original CSD entry GACPUX is in a Sohncke space group
# The framework has been calculated to contain at least 10.0% void space
# The void calculation uses a probe of radius 1.32A, grid spacing 0.4
#
###############################################################################

data_GACPUX
_chemical_formula_moiety         '(C100 H84 N4 O32 Zn8)n'
_symmetry_cell_setting           triclinic
_symmetry_space_group_name_H-M   'P 1'
_symmetry_Int_Tables_number      1
_space_group_name_Hall           'P 1'
loop_
_symmetry_equiv_pos_site_id
_symmetry_equiv_pos_as_xyz
1 x,y,z
_cell_length_a                   10.1365(2)
_cell_length_b                   11.4134(3)
_cell_length_c                   29.2794(7)
_cell_angle_alpha                90
_cell_angle_beta                 90
_cell_angle_gamma                90
_cell_volume                     3387.39
loop_
_atom_site_label
_atom_site_type_symbol
_atom_site_fract_x
_atom_site_fract_y
_atom_site_fract_z
C23 C 0.0387(5) 0.3301(4) 0.02405(15)
N1 N 0.0909(4) 0.2244(4) 0.02459(13)
C24 C 0.0885(5) 0.1532(4) 0.06555(16)
H16 H 0.1313 0.0778 0.0594
H18 H 0.1358 0.1939 0.0901
Zn4 Zn 0.15861(4) 0.81538(4) 0.006979(16)
O10 O 0.1359(3) 0.6450(2) 0.00187(10)
O2 O 0.9809(3) 0.8943(2) 0.01236(10)
C1 C 0.8745(4) 0.8443(3) 0.00240(14)
H1 H 0.7508 0.9813 0.0221
O4 O 0.6799(3) 0.6087(3) 0.05416(10)
O5 O 0.8827(3) 0.5313(3) 0.05338(10)
C9 C 0.7767(4) 0.5632(4) 0.07316(13)
C10 C 0.7672(5) 0.5390(4) 0.12315(14)
C11 C 0.8814(5) 0.5158(4) 0.14845(16)
H7 H 0.9647 0.5124 0.1337
C12 C 0.8723(5) 0.4978(4) 0.19512(15)
H8 H 0.9500 0.4828 0.2123
C13 C 0.7509(5) 0.5013(4) 0.21719(15)
C14 C 0.6367(5) 0.5233(4) 0.19161(15)
H9 H 0.5531 0.5248 0.2063
C15 C 0.6455(5) 0.5430(4) 0.14481(14)
H10 H 0.5680 0.5591 0.1277
C16 C 0.7429(5) 0.4832(4) 0.26752(14)
C17 C 0.8191(5) 0.3992(4) 0.28916(15)
H11 H 0.8788 0.3534 0.2716
C18 C 0.8101(5) 0.3804(4) 0.33582(16)
H12 H 0.8649 0.3237 0.3501
C19 C 0.7207(5) 0.4447(4) 0.36164(14)
C20 C 0.6434(5) 0.5300(4) 0.34066(14)
H13 H 0.5830 0.5749 0.3582
C21 C 0.6548(5) 0.5495(4) 0.29387(14)
H14 H 0.6024 0.6081 0.2797
C22 C 0.7091(5) 0.4230(4) 0.41190(14)
O6 O 0.8061(3) 0.3709(3) 0.43022(10)
O7 O 0.6063(3) 0.4575(3) 0.43190(10)
H15 H 0.9997 0.3581 0.0515
H17 H 0.9969 0.1398 0.0749
Zn3 Zn 0.84139(4) 0.31538(4) 0.493021(16)
Zn5 Zn 0.53469(4) 0.43019(4) 0.493774(16)
Zn6 Zn 0.46531(4) 0.93019(4) 0.006226(16)
Zn1 Zn 0.65861(4) 0.68462(4) 0.993021(16)
Zn2 Zn 0.96531(4) 0.56981(4) 0.993774(16)
O1 O 0.8608(3) 0.7354(2) 0.99609(10)
O3 O 0.6359(3) 0.8550(2) 0.99813(10)
C2 C 0.7528(4) 0.9228(4) 0.99665(14)
C3 C 0.7715(5) 0.9875(4) 0.95140(15)
H5 H 0.7259 0.9674 0.8412
C8 C 0.7306(5) 0.9412(5) 0.91056(15)
H6 H 0.6856 0.8682 0.9102
O9 O 0.4809(3) 0.6057(2) 0.98764(10)
O11 O 0.6939(3) 0.6291(3) 0.93022(10)
O12 O 0.8937(3) 0.5425(3) 0.93190(10)
Zn6_2 Zn 0.03469(4) 0.06981(4) 0.506226(16)
O9_2 O 0.0191(3) 0.3943(2) 0.48764(10)
O1_2 O 0.6392(3) 0.2646(2) 0.49609(10)
O2_2 O 0.5191(3) 0.1057(2) 0.51236(10)
O3_2 O 0.8641(3) 0.1450(2) 0.49813(10)
C1_2 C 0.6255(4) 0.1557(3) 0.50240(14)
C2_2 C 0.7472(4) 0.0772(4) 0.49665(14)
H1_2 H 0.7492 0.0187 0.5221
C3_2 C 0.7285(5) 0.0125(4) 0.45140(15)
H5_2 H 0.7741 0.0326 0.3412
C8_2 C 0.7694(5) 0.0588(5) 0.41056(15)
H6_2 H 0.8144 0.1318 0.4102
O4_2 O 0.8201(3) 0.3913(3) 0.55416(10)
O5_2 O 0.6173(3) 0.4687(3) 0.55338(10)
C9_2 C 0.7233(4) 0.4368(4) 0.57316(13)
C10_2 C 0.7328(5) 0.4610(4) 0.62315(14)
C11_2 C 0.6186(5) 0.4842(4) 0.64845(16)
H7_2 H 0.5353 0.4876 0.6337
C12_2 C 0.6277(5) 0.5022(4) 0.69512(15)
H8_2 H 0.5500 0.5172 0.7123
C13_2 C 0.7491(5) 0.4987(4) 0.71719(15)
C14_2 C 0.8633(5) 0.4767(4) 0.69161(15)
H9_2 H 0.9469 0.4752 0.7063
C15_2 C 0.8545(5) 0.4570(4) 0.64481(14)
H10_2 H 0.9320 0.4409 0.6277
C16_2 C 0.7571(5) 0.5168(4) 0.76752(14)
C17_2 C 0.6809(5) 0.6008(4) 0.78916(15)
H11_2 H 0.6212 0.6466 0.7716
C18_2 C 0.6899(5) 0.6196(4) 0.83582(16)
H12_2 H 0.6351 0.6763 0.8501
C19_2 C 0.7793(5) 0.5553(4) 0.86164(14)
C20_2 C 0.8566(5) 0.4700(4) 0.84066(14)
H13_2 H 0.9170 0.4251 0.8582
C21_2 C 0.8452(5) 0.4505(4) 0.79387(14)
H14_2 H 0.8976 0.3919 0.7797
C22_2 C 0.7909(5) 0.5770(4) 0.91190(14)
O8 O 0.4632(3) 0.6040(2) 0.49028(10)
C23_2 C 0.4613(5) 0.6699(4) 0.52405(15)
H15_2 H 0.5003 0.6419 0.5515
N1_2 N 0.4091(4) 0.7756(4) 0.52459(13)
C24_2 C 0.4115(5) 0.8468(4) 0.56555(16)
H16_2 H 0.3687 0.9222 0.5594
H17_2 H 0.5031 0.8602 0.5749
H18_2 H 0.3642 0.8061 0.5901
C25 C 0.3374(5) 0.8244(4) 0.48527(14)
H19 H 0.3072 0.9038 0.4926
H20 H 0.2610 0.7747 0.4784
H21 H 0.3960 0.8270 0.4587
Zn4_2 Zn 0.34139(4) 0.18462(4) 0.506979(16)
O10_2 O 0.3641(3) 0.3550(2) 0.50187(10)
O1_3 O 0.1392(3) 0.2354(2) 0.50391(10)
C1_3 C 0.1255(4) 0.3443(3) 0.49760(14)
C2_3 C 0.2472(4) 0.4228(4) 0.50335(14)
H1_3 H 0.2492 0.4813 0.4779
C3_3 C 0.2285(5) 0.4875(4) 0.54860(15)
C4 C 0.1619(5) 0.5953(4) 0.54813(17)
H2 H 0.1339 0.6283 0.5200
C5 C 0.1367(6) 0.6543(5) 0.58905(17)
H3 H 0.0902 0.7265 0.5888
C6 C 0.1799(5) 0.6067(5) 0.63006(18)
H4 H 0.1645 0.6475 0.6578
C7 C 0.2455(6) 0.5002(5) 0.63071(17)
H5_3 H 0.2741 0.4674 0.6588
C8_3 C 0.2694(5) 0.4412(5) 0.58944(15)
H6_3 H 0.3144 0.3682 0.5898
O4_3 O 0.3201(3) 0.1087(3) 0.44584(10)
O5_3 O 0.1173(3) 0.0313(3) 0.44662(10)
C9_3 C 0.2233(4) 0.0632(4) 0.42684(13)
C10_3 C 0.2328(5) 0.0390(4) 0.37685(14)
C11_3 C 0.1186(5) 0.0158(4) 0.35155(16)
H7_3 H 0.0353 0.0124 0.3663
C13_3 C 0.2491(5) 0.0013(4) 0.28281(15)
C14_3 C 0.3633(5) 0.0233(4) 0.30839(15)
H9_3 H 0.4469 0.0248 0.2937
C15_3 C 0.3545(5) 0.0430(4) 0.35519(14)
H10_3 H 0.4320 0.0591 0.3723
C20_3 C 0.3566(5) 0.0300(4) 0.15934(14)
H13_3 H 0.4170 0.0749 0.1418
C21_3 C 0.3452(5) 0.0495(4) 0.20613(14)
H14_3 H 0.3976 0.1081 0.2203
O11_2 O 0.3061(3) 0.1291(3) 0.56978(10)
O12_2 O 0.1063(3) 0.0425(3) 0.56810(10)
C12_3 C 0.1277(5) 0.9978(4) 0.30488(15)
H8_3 H 0.0500 0.9828 0.2877
C16_3 C 0.2571(5) 0.9832(4) 0.23248(14)
C17_3 C 0.1809(5) 0.8992(4) 0.21084(15)
H11_3 H 0.1212 0.8534 0.2284
C18_3 C 0.1899(5) 0.8804(4) 0.16418(16)
H12_3 H 0.1351 0.8237 0.1499
C19_3 C 0.2793(5) 0.9447(4) 0.13836(14)
C22_3 C 0.2909(5) 0.9230(4) 0.08810(14)
O6_2 O 0.1939(3) 0.8709(3) 0.06978(10)
O7_2 O 0.3937(3) 0.9575(3) 0.06810(10)
H15_3 H 0.0003 0.8581 0.4485
H17_3 H 0.0031 0.6398 0.4251
C12_4 C 0.3723(5) 0.0022(4) 0.80488(15)
H8_4 H 0.4500 0.0172 0.7877
C16_4 C 0.2429(5) 0.0168(4) 0.73248(14)
C17_4 C 0.3191(5) 0.1008(4) 0.71084(15)
H11_4 H 0.3788 0.1466 0.7284
C18_4 C 0.3101(5) 0.1196(4) 0.66418(16)
H12_4 H 0.3649 0.1763 0.6499
C19_4 C 0.2207(5) 0.0553(4) 0.63836(14)
C22_4 C 0.2091(5) 0.0770(4) 0.58810(14)
C23_3 C 0.5387(5) 0.1699(4) 0.97595(15)
H15_4 H 0.4997 0.1419 0.9485
N1_3 N 0.5909(4) 0.2756(4) 0.97541(13)
C24_3 C 0.5885(5) 0.3468(4) 0.93445(16)
H16_3 H 0.6313 0.4222 0.9406
H17_4 H 0.4969 0.3602 0.9251
H18_3 H 0.6358 0.3061 0.9099
O1_4 O 0.3608(3) 0.7646(2) 0.00391(10)
C2_4 C 0.2528(4) 0.5772(4) 0.00335(14)
C3_4 C 0.2715(5) 0.5125(4) 0.04860(15)
C4_2 C 0.3381(5) 0.4047(4) 0.04813(17)
H2_2 H 0.3661 0.3717 0.0200
C5_2 C 0.3633(6) 0.3457(5) 0.08905(17)
H3_2 H 0.4098 0.2735 0.0888
C6_2 C 0.3201(5) 0.3933(5) 0.13006(18)
H4_2 H 0.3355 0.3525 0.1578
C7_2 C 0.2545(6) 0.4998(5) 0.13071(17)
H5_4 H 0.2259 0.5326 0.1588
C8_4 C 0.2306(5) 0.5588(5) 0.08944(15)
H6_4 H 0.1856 0.6318 0.0898
C1_4 C 0.3745(4) 0.6557(3) 0.99760(14)
H1_4 H 0.2508 0.5187 0.9779
O4_4 O 0.1799(3) 0.8913(3) 0.94584(10)
O5_4 O 0.3827(3) 0.9687(3) 0.94662(10)
C9_4 C 0.2767(4) 0.9368(4) 0.92684(13)
C10_4 C 0.2672(5) 0.9610(4) 0.87685(14)
C11_4 C 0.3814(5) 0.9842(4) 0.85155(16)
H7_4 H 0.4647 0.9876 0.8663
C13_4 C 0.2509(5) 0.9987(4) 0.78281(15)
C14_4 C 0.1367(5) 0.9767(4) 0.80839(15)
H9_4 H 0.0531 0.9752 0.7937
C15_4 C 0.1455(5) 0.9570(4) 0.85519(14)
H10_4 H 0.0680 0.9409 0.8723
C20_4 C 0.1434(5) 0.9700(4) 0.65934(14)
H13_4 H 0.0830 0.9251 0.6418
C21_4 C 0.1548(5) 0.9505(4) 0.70613(14)
H14_4 H 0.1024 0.8919 0.7203
O8_2 O 0.0368(3) 0.3960(2) 0.99028(10)
C25_2 C 0.1626(5) 0.1756(4) 0.98527(14)
H19_2 H 0.1928 0.0962 0.9926
H20_2 H 0.2390 0.2253 0.9784
H21_2 H 0.1040 0.1730 0.9587
C4_3 C 0.8381(5) 0.0953(4) 0.95187(17)
H2_3 H 0.8661 0.1283 0.9800
C5_3 C 0.8633(6) 0.1543(5) 0.91095(17)
H3_3 H 0.9098 0.2265 0.9112
C6_3 C 0.8201(5) 0.1067(5) 0.86994(18)
H4_3 H 0.8355 0.1475 0.8422
C7_3 C 0.7545(6) 0.0002(5) 0.86929(17)
C4_4 C 0.6619(5) 0.9047(4) 0.45187(17)
H2_4 H 0.6339 0.8717 0.4800
C5_4 C 0.6367(6) 0.8457(5) 0.41095(17)
H3_4 H 0.5902 0.7735 0.4112
C6_4 C 0.6799(5) 0.8933(5) 0.36994(18)
H4_4 H 0.6645 0.8525 0.3422
C7_4 C 0.7455(6) 0.9998(5) 0.36929(17)
O8_3 O 0.9632(3) 0.8960(2) 0.50972(10)
C23_4 C 0.9613(5) 0.8301(4) 0.47595(15)
N1_4 N 0.9091(4) 0.7244(4) 0.47541(13)
C24_4 C 0.9115(5) 0.6532(4) 0.43445(16)
H16_4 H 0.8687 0.5778 0.4406
H18_4 H 0.8642 0.6939 0.4099
C25_3 C 0.8374(5) 0.6756(4) 0.51473(14)
H19_3 H 0.8072 0.5962 0.5074
H20_3 H 0.7610 0.7253 0.5216
H21_3 H 0.8960 0.6730 0.5413
O8_4 O 0.5368(3) 0.1040(2) 0.00972(10)
C25_4 C 0.6626(5) 0.3244(4) 0.01473(14)
H19_4 H 0.6928 0.4038 0.0074
H20_4 H 0.7390 0.2747 0.0216
H21_4 H 0.6040 0.3270 0.0413
loop_
_geom_bond_atom_site_label_1
_geom_bond_atom_site_label_2
_geom_bond_site_symmetry_1
_geom_bond_site_symmetry_2
N1 C23 1_555 1_555
C24 N1 1_555 1_555
H16 C24 1_555 1_555
H18 C24 1_555 1_555
Zn4 O10 1_555 1_555
O2 C1 1_555 1_555
C9 O4 1_555 1_555
C10 C9 1_555 1_555
C11 C10 1_555 1_555
H7 C11 1_555 1_555
C12 C11 1_555 1_555
H8 C12 1_555 1_555
C13 C12 1_555 1_555
C14 C13 1_555 1_555
H9 C14 1_555 1_555
C15 C10 1_555 1_555
H10 C15 1_555 1_555
C16 C13 1_555 1_555
C17 C16 1_555 1_555
H11 C17 1_555 1_555
C18 C17 1_555 1_555
H12 C18 1_555 1_555
C19 C18 1_555 1_555
C20 C19 1_555 1_555
H13 C20 1_555 1_555
C21 C16 1_555 1_555
H14 C21 1_555 1_555
C22 C19 1_555 1_555
O6 C22 1_555 1_555
O7 C22 1_555 1_555
Zn3 O6 1_555 1_555
Zn5 O7 1_555 1_555
O5 C9 1_555 1_555
C14 C15 1_555 1_555
C20 C21 1_555 1_555
Zn1 O1 1_555 1_555
Zn2 O1 1_555 1_555
O3 Zn1 1_555 1_555
C2 O3 1_555 1_555
C3 C2 1_555 1_555
C8 C3 1_555 1_555
H6 C8 1_555 1_555
O9 Zn1 1_555 1_555
O11 Zn1 1_555 1_555
O12 Zn2 1_555 1_555
Zn3 O1_2 1_555 1_555
Zn5 O1_2 1_555 1_555
O1_2 C1_2 1_555 1_555
O2_2 C1_2 1_555 1_555
O3_2 Zn3 1_555 1_555
C1_2 C2_2 1_555 1_555
C2_2 O3_2 1_555 1_555
H1_2 C2_2 1_555 1_555
C3_2 C2_2 1_555 1_555
C8_2 C3_2 1_555 1_555
H6_2 C8_2 1_555 1_555
O4_2 Zn3 1_555 1_555
O5_2 Zn5 1_555 1_555
C9_2 O4_2 1_555 1_555
C10_2 C9_2 1_555 1_555
C11_2 C10_2 1_555 1_555
H7_2 C11_2 1_555 1_555
C12_2 C11_2 1_555 1_555
H8_2 C12_2 1_555 1_555
C13_2 C12_2 1_555 1_555
C14_2 C13_2 1_555 1_555
H9_2 C14_2 1_555 1_555
C15_2 C10_2 1_555 1_555
H10_2 C15_2 1_555 1_555
C16_2 C13_2 1_555 1_555
C17_2 C16_2 1_555 1_555
H11_2 C17_2 1_555 1_555
C18_2 C17_2 1_555 1_555
H12_2 C18_2 1_555 1_555
C19_2 C18_2 1_555 1_555
C20_2 C19_2 1_555 1_555
H13_2 C20_2 1_555 1_555
C21_2 C16_2 1_555 1_555
H14_2 C21_2 1_555 1_555
C22_2 C19_2 1_555 1_555
O11 C22_2 1_555 1_555
O12 C22_2 1_555 1_555
O8 Zn5 1_555 1_555
C23_2 O8 1_555 1_555
H15_2 C23_2 1_555 1_555
N1_2 C23_2 1_555 1_555
C24_2 N1_2 1_555 1_555
H16_2 C24_2 1_555 1_555
H17_2 C24_2 1_555 1_555
H18_2 C24_2 1_555 1_555
C25 N1_2 1_555 1_555
H19 C25 1_555 1_555
H20 C25 1_555 1_555
H21 C25 1_555 1_555
Zn4_2 O2_2 1_555 1_555
O10_2 Zn5 1_555 1_555
O5_2 C9_2 1_555 1_555
C14_2 C15_2 1_555 1_555
C20_2 C21_2 1_555 1_555
Zn4_2 O10_2 1_555 1_555
Zn4_2 O1_3 1_555 1_555
Zn6_2 O1_3 1_555 1_555
O1_3 C1_3 1_555 1_555
O9_2 C1_3 1_555 1_555
C1_3 C2_3 1_555 1_555
C2_3 O10_2 1_555 1_555
H1_3 C2_3 1_555 1_555
C3_3 C2_3 1_555 1_555
C4 C3_3 1_555 1_555
H2 C4 1_555 1_555
C5 C4 1_555 1_555
H3 C5 1_555 1_555
C6 C5 1_555 1_555
H4 C6 1_555 1_555
C7 C6 1_555 1_555
H5_3 C7 1_555 1_555
C8_3 C3_3 1_555 1_555
H6_3 C8_3 1_555 1_555
O4_3 Zn4_2 1_555 1_555
O5_3 Zn6_2 1_555 1_555
C9_3 O4_3 1_555 1_555
C10_3 C9_3 1_555 1_555
C11_3 C10_3 1_555 1_555
H7_3 C11_3 1_555 1_555
C14_3 C13_3 1_555 1_555
H9_3 C14_3 1_555 1_555
C15_3 C10_3 1_555 1_555
H10_3 C15_3 1_555 1_555
H13_3 C20_3 1_555 1_555
H14_3 C21_3 1_555 1_555
O11_2 Zn4_2 1_555 1_555
O12_2 Zn6_2 1_555 1_555
C7 C8_3 1_555 1_555
O5_3 C9_3 1_555 1_555
C14_3 C15_3 1_555 1_555
C20_3 C21_3 1_555 1_555
H8_3 C12_3 1_555 1_555
C17_3 C16_3 1_555 1_555
H11_3 C17_3 1_555 1_555
C18_3 C17_3 1_555 1_555
H12_3 C18_3 1_555 1_555
C19_3 C18_3 1_555 1_555
C22_3 C19_3 1_555 1_555
O6_2 C22_3 1_555 1_555
O7_2 C22_3 1_555 1_555
Zn4 O6_2 1_555 1_555
Zn6 O7_2 1_555 1_555
H8_4 C12_4 1_555 1_555
C17_4 C16_4 1_555 1_555
H11_4 C17_4 1_555 1_555
C18_4 C17_4 1_555 1_555
H12_4 C18_4 1_555 1_555
C19_4 C18_4 1_555 1_555
C22_4 C19_4 1_555 1_555
O11_2 C22_4 1_555 1_555
O12_2 C22_4 1_555 1_555
H15_4 C23_3 1_555 1_555
N1_3 C23_3 1_555 1_555
C24_3 N1_3 1_555 1_555
H16_3 C24_3 1_555 1_555
H17_4 C24_3 1_555 1_555
H18_3 C24_3 1_555 1_555
Zn4 O1_4 1_555 1_555
Zn6 O1_4 1_555 1_555
C2_4 O10 1_555 1_555
C3_4 C2_4 1_555 1_555
C4_2 C3_4 1_555 1_555
H2_2 C4_2 1_555 1_555
C5_2 C4_2 1_555 1_555
H3_2 C5_2 1_555 1_555
C6_2 C5_2 1_555 1_555
H4_2 C6_2 1_555 1_555
C7_2 C6_2 1_555 1_555
H5_4 C7_2 1_555 1_555
C8_4 C3_4 1_555 1_555
H6_4 C8_4 1_555 1_555
C7_2 C8_4 1_555 1_555
O9 C1_4 1_555 1_555
C9_4 O4_4 1_555 1_555
C10_4 C9_4 1_555 1_555
C11_4 C10_4 1_555 1_555
H7_4 C11_4 1_555 1_555
C14_4 C13_4 1_555 1_555
H9_4 C14_4 1_555 1_555
C15_4 C10_4 1_555 1_555
H10_4 C15_4 1_555 1_555
H13_4 C20_4 1_555 1_555
H14_4 C21_4 1_555 1_555
O5_4 C9_4 1_555 1_555
C14_4 C15_4 1_555 1_555
C20_4 C21_4 1_555 1_555
H19_2 C25_2 1_555 1_555
H20_2 C25_2 1_555 1_555
H21_2 C25_2 1_555 1_555
H2_3 C4_3 1_555 1_555
C5_3 C4_3 1_555 1_555
H3_3 C5_3 1_555 1_555
C6_3 C5_3 1_555 1_555
H4_3 C6_3 1_555 1_555
C7_3 C6_3 1_555 1_555
H2_4 C4_4 1_555 1_555
C5_4 C4_4 1_555 1_555
H3_4 C5_4 1_555 1_555
C6_4 C5_4 1_555 1_555
H4_4 C6_4 1_555 1_555
C7_4 C6_4 1_555 1_555
C23_4 O8_3 1_555 1_555
N1_4 C23_4 1_555 1_555
C24_4 N1_4 1_555 1_555
H16_4 C24_4 1_555 1_555
H18_4 C24_4 1_555 1_555
C25_3 N1_4 1_555 1_555
H19_3 C25_3 1_555 1_555
H20_3 C25_3 1_555 1_555
H21_3 C25_3 1_555 1_555
H19_4 C25_4 1_555 1_555
H20_4 C25_4 1_555 1_555
H21_4 C25_4 1_555 1_555

#END
