
###############################################################################
#
# This file contains modified crystal structure data generated from the
# MOF subset of the Cambridge Structural Database (CSD) v543 
# hosted by the Cambridge Crystallographic Data Centre (CCDC).
#
# This work is licensed under the Creative Commons
# Attribution-NonCommercial-ShareAlike 4.0 International License.
# To view a copy of this license, visit
# http://creativecommons.org/licenses/by-nc-sa/4.0/
# or send a letter to
# Creative Commons, PO Box 1866, Mountain View, CA 94042, USA.
#
# CIF created using the CSD Python API on 29 September 2022
# The structure has been converted into the P1 space group
# The structure has a 3D framework
# The original CSD entry GACVIS is in the orthorhombic crystal system
# The framework has been calculated to contain at least 10.0% void space
# The void calculation uses a probe of radius 1.32A, grid spacing 0.4
#
###############################################################################

data_GACVIS
_chemical_formula_moiety         '(C42 H28 Ni11 O40)n'
_symmetry_cell_setting           triclinic
_symmetry_space_group_name_H-M   'P 1'
_symmetry_Int_Tables_number      1
_space_group_name_Hall           'P 1'
loop_
_symmetry_equiv_pos_site_id
_symmetry_equiv_pos_as_xyz
1 x,y,z
_cell_length_a                   9.787(2)
_cell_length_b                   12.157(2)
_cell_length_c                   15.182(3)
_cell_angle_alpha                90
_cell_angle_beta                 90
_cell_angle_gamma                90
_cell_volume                     1806.36
loop_
_atom_site_label
_atom_site_type_symbol
_atom_site_fract_x
_atom_site_fract_y
_atom_site_fract_z
Ni4 Ni -0.0000 0.0000 0.86322(6)
Ni4_2 Ni -0.0000 1.0000 0.86322(6)
Ni3 Ni 0.16862(6) 0.0000 0.06020(4)
O10 O 0.3540(5) 0.0000 0.1311(3)
H8 H 0.3571 0.0569 0.1680
Ni5 Ni 0.83138(6) 0.0000 0.06020(4)
O24 O 0.1135(3) 0.1184(3) 0.1455(2)
O5 O -0.0000 0.0000 0.7277(4)
O6 O 0.0000 0.0000 0.9909(4)
H7 H -0.0000 0.0540 0.6822
C10 C 0.5000 0.1470(5) 0.8995(4)
H10 H 0.5000 0.1022 0.9508
C11 C 0.3785(4) 0.1794(4) 0.8623(3)
C12 C 0.3783(4) 0.2432(4) 0.7877(3)
H11 H 0.2945 0.2623 0.7601
C13 C 0.5000 0.2790(5) 0.7533(4)
C14 C 0.5000 0.3522(5) 0.6738(4)
C15 C 0.2485(4) 0.1345(4) 0.9025(3)
O11 O 0.1511(3) 0.1190(3) 0.8529(2)
O12 O 0.2553(3) 0.1156(3) 0.9825(2)
O13 O 0.3865(3) 0.3816(3) 0.6455(2)
C16 C 0.6215(4) 0.1794(4) 0.8623(3)
C17 C 0.6217(4) 0.2432(4) 0.7877(3)
H12 H 0.7055 0.2623 0.7601
C18 C 0.7515(4) 0.1345(4) 0.9025(3)
O14 O 0.8489(3) 0.1190(3) 0.8529(2)
O15 O 0.7447(3) 0.1156(3) 0.9825(2)
O16 O 0.6135(3) 0.3816(3) 0.6455(2)
Ni4_3 Ni 1.0000 0.0000 0.86322(6)
Ni7 Ni 0.33138(6) 0.5000 0.56020(4)
Ni9 Ni 0.66862(6) 0.5000 0.56020(4)
Ni3_2 Ni 0.16862(6) 1.0000 0.06020(4)
O10_2 O 0.3540(5) 1.0000 0.1311(3)
H9 H 0.3571 0.9431 0.1680
Ni5_2 Ni 0.83138(6) 1.0000 0.06020(4)
O22 O 0.1135(3) 0.8816(3) 0.1455(2)
C1 C 0.5000 0.8530(5) 0.8995(4)
H1 H 0.5000 0.8978 0.9508
C2 C 0.3785(4) 0.8206(4) 0.8623(3)
C3 C 0.3783(4) 0.7568(4) 0.7877(3)
H2 H 0.2945 0.7377 0.7601
C4 C 0.5000 0.7210(5) 0.7533(4)
C5 C 0.5000 0.6478(5) 0.6738(4)
C6 C 0.2485(4) 0.8655(4) 0.9025(3)
O1 O 0.1511(3) 0.8810(3) 0.8529(2)
O2 O 0.2553(3) 0.8844(3) 0.9825(2)
O3 O 0.3865(3) 0.6184(3) 0.6455(2)
O5_2 O -0.0000 1.0000 0.7277(4)
H4 H -0.0000 0.9460 0.6822
O6_2 O 0.0000 1.0000 0.9909(4)
C7 C 0.6215(4) 0.8206(4) 0.8623(3)
C8 C 0.6217(4) 0.7568(4) 0.7877(3)
H5 H 0.7055 0.7377 0.7601
C9 C 0.7515(4) 0.8655(4) 0.9025(3)
O7 O 0.8489(3) 0.8810(3) 0.8529(2)
O8 O 0.7447(3) 0.8844(3) 0.9825(2)
O9 O 0.6135(3) 0.6184(3) 0.6455(2)
Ni4_4 Ni 1.0000 1.0000 0.86322(6)
O4 O 0.6460(5) 0.0000 0.1311(3)
H6 H 0.6429 0.0569 0.1680
O21 O 0.8865(3) 0.1184(3) 0.1455(2)
O5_3 O 1.0000 0.0000 0.7277(4)
O6_3 O 1.0000 0.0000 0.9909(4)
H7_2 H 1.0000 0.0540 0.6822
O4_2 O 0.6460(5) 1.0000 0.1311(3)
H3 H 0.6429 0.9431 0.1680
O23 O 0.8865(3) 0.8816(3) 0.1455(2)
O5_4 O 1.0000 1.0000 0.7277(4)
H4_2 H 1.0000 0.9460 0.6822
O6_4 O 1.0000 1.0000 0.9909(4)
C1_2 C -0.0000 0.3530(5) 0.3995(4)
H1_2 H 0.0000 0.3978 0.4508
C4_2 C -0.0000 0.2210(5) 0.2533(4)
C5_2 C 0.0000 0.1478(5) 0.1738(4)
C7_2 C 0.1215(4) 0.3206(4) 0.3623(3)
C8_2 C 0.1217(4) 0.2568(4) 0.2877(3)
H5_2 H 0.2055 0.2377 0.2601
C9_2 C 0.2515(4) 0.3655(4) 0.4025(3)
O7_2 O 0.3489(3) 0.3810(3) 0.3529(2)
O8_2 O 0.2447(3) 0.3844(3) 0.4825(2)
C10_2 C -0.0000 0.6470(5) 0.3995(4)
H10_2 H 0.0000 0.6022 0.4508
C13_2 C 0.0000 0.7790(5) 0.2533(4)
C14_2 C -0.0000 0.8522(5) 0.1738(4)
C16_2 C 0.1215(4) 0.6794(4) 0.3623(3)
C17_2 C 0.1217(4) 0.7432(4) 0.2877(3)
H12_2 H 0.2055 0.7623 0.2601
C18_2 C 0.2515(4) 0.6345(4) 0.4025(3)
O14_2 O 0.3489(3) 0.6190(3) 0.3529(2)
O15_2 O 0.2447(3) 0.6156(3) 0.4825(2)
Ni4_5 Ni 0.5000 0.5000 0.36322(6)
C1_3 C 1.0000 0.3530(5) 0.3995(4)
H1_3 H 1.0000 0.3978 0.4508
C2_2 C 0.8785(4) 0.3206(4) 0.3623(3)
C3_2 C 0.8783(4) 0.2568(4) 0.2877(3)
H2_2 H 0.7945 0.2377 0.2601
C4_3 C 1.0000 0.2210(5) 0.2533(4)
C5_3 C 1.0000 0.1478(5) 0.1738(4)
C6_2 C 0.7485(4) 0.3655(4) 0.4025(3)
O1_2 O 0.6511(3) 0.3810(3) 0.3529(2)
O2_2 O 0.7553(3) 0.3844(3) 0.4825(2)
O4_3 O 0.1460(5) 0.5000 0.6311(3)
H3_2 H 0.1429 0.4431 0.6680
O5_5 O 0.5000 0.5000 0.2277(4)
H4_3 H 0.5000 0.4460 0.1822
O6_5 O 0.5000 0.5000 0.4909(4)
H6_2 H 0.1429 0.5569 0.6680
H7_3 H 0.5000 0.5540 0.1822
O10_3 O 0.8540(5) 0.5000 0.6311(3)
H8_2 H 0.8571 0.5569 0.6680
H9_2 H 0.8571 0.4431 0.6680
C10_3 C 1.0000 0.6470(5) 0.3995(4)
H10_3 H 1.0000 0.6022 0.4508
C11_2 C 0.8785(4) 0.6794(4) 0.3623(3)
C12_2 C 0.8783(4) 0.7432(4) 0.2877(3)
H11_2 H 0.7945 0.7623 0.2601
C13_3 C 1.0000 0.7790(5) 0.2533(4)
C14_3 C 1.0000 0.8522(5) 0.1738(4)
C15_2 C 0.7485(4) 0.6345(4) 0.4025(3)
O11_2 O 0.6511(3) 0.6190(3) 0.3529(2)
O12_2 O 0.7553(3) 0.6156(3) 0.4825(2)
loop_
_geom_bond_atom_site_label_1
_geom_bond_atom_site_label_2
_geom_bond_site_symmetry_1
_geom_bond_site_symmetry_2
O10 Ni3 1_555 1_555
H8 O10 1_555 1_555
O24 Ni3 1_555 1_555
O5 Ni4 1_555 1_555
O6 Ni4 1_555 1_555
H7 O5 1_555 1_555
C10 H10 1_555 1_555
C11 C10 1_555 1_555
C12 C11 1_555 1_555
H11 C12 1_555 1_555
C13 C12 1_555 1_555
C14 C13 1_555 1_555
C15 C11 1_555 1_555
O11 Ni4 1_555 1_555
O13 C14 1_555 1_555
C16 C10 1_555 1_555
C17 C13 1_555 1_555
H12 C17 1_555 1_555
C18 C16 1_555 1_555
O14 C18 1_555 1_555
O15 C18 1_555 1_555
O16 C14 1_555 1_555
Ni7 O13 1_555 1_555
Ni9 O16 1_555 1_555
C15 O11 1_555 1_555
C15 O12 1_555 1_555
C16 C17 1_555 1_555
O14 Ni4_3 1_555 1_555
O10_2 Ni3_2 1_555 1_555
H9 O10_2 1_555 1_555
O22 Ni3_2 1_555 1_555
C1 H1 1_555 1_555
C2 C1 1_555 1_555
C3 C2 1_555 1_555
H2 C3 1_555 1_555
C4 C3 1_555 1_555
C5 C4 1_555 1_555
C6 C2 1_555 1_555
Ni4_2 O1 1_555 1_555
O1 C6 1_555 1_555
O2 C6 1_555 1_555
O3 C5 1_555 1_555
O5_2 Ni4_2 1_555 1_555
H4 O5_2 1_555 1_555
O6_2 Ni4_2 1_555 1_555
C7 C1 1_555 1_555
C8 C4 1_555 1_555
H5 C8 1_555 1_555
C9 C7 1_555 1_555
O7 C9 1_555 1_555
O8 C9 1_555 1_555
O9 C5 1_555 1_555
Ni4_4 O7 1_555 1_555
Ni7 O3 1_555 1_555
Ni9 O9 1_555 1_555
C7 C8 1_555 1_555
Ni5 O4 1_555 1_555
H6 O4 1_555 1_555
O21 Ni5 1_555 1_555
O5_3 Ni4_3 1_555 1_555
O6_3 Ni4_3 1_555 1_555
H7_2 O5_3 1_555 1_555
Ni5_2 O4_2 1_555 1_555
O4_2 H3 1_555 1_555
O23 Ni5_2 1_555 1_555
O5_4 Ni4_4 1_555 1_555
H4_2 O5_4 1_555 1_555
O6_4 Ni4_4 1_555 1_555
C1_2 H1_2 1_555 1_555
C5_2 C4_2 1_555 1_555
C7_2 C1_2 1_555 1_555
C8_2 C4_2 1_555 1_555
H5_2 C8_2 1_555 1_555
C9_2 C7_2 1_555 1_555
O7_2 C9_2 1_555 1_555
O8_2 C9_2 1_555 1_555
O24 C5_2 1_555 1_555
C10_2 H10_2 1_555 1_555
C14_2 C13_2 1_555 1_555
C16_2 C10_2 1_555 1_555
C17_2 C13_2 1_555 1_555
H12_2 C17_2 1_555 1_555
C18_2 C16_2 1_555 1_555
O14_2 C18_2 1_555 1_555
O15_2 C18_2 1_555 1_555
O22 C14_2 1_555 1_555
Ni4_5 O7_2 1_555 1_555
Ni7 O8_2 1_555 1_555
C7_2 C8_2 1_555 1_555
C16_2 C17_2 1_555 1_555
O14_2 Ni4_5 1_555 1_555
O15_2 Ni7 1_555 1_555
C1_3 H1_3 1_555 1_555
C2_2 C1_3 1_555 1_555
C3_2 C2_2 1_555 1_555
H2_2 C3_2 1_555 1_555
C4_3 C3_2 1_555 1_555
C5_3 C4_3 1_555 1_555
C6_2 C2_2 1_555 1_555
Ni4_5 O1_2 1_555 1_555
Ni7 O4_3 1_555 1_555
O1_2 C6_2 1_555 1_555
O2_2 C6_2 1_555 1_555
O21 C5_3 1_555 1_555
O4_3 H3_2 1_555 1_555
O5_5 Ni4_5 1_555 1_555
H4_3 O5_5 1_555 1_555
O6_5 Ni4_5 1_555 1_555
H6_2 O4_3 1_555 1_555
H7_3 O5_5 1_555 1_555
Ni9 O2_2 1_555 1_555
O10_3 Ni9 1_555 1_555
H8_2 O10_3 1_555 1_555
H9_2 O10_3 1_555 1_555
C10_3 H10_3 1_555 1_555
C11_2 C10_3 1_555 1_555
C12_2 C11_2 1_555 1_555
H11_2 C12_2 1_555 1_555
C13_3 C12_2 1_555 1_555
C14_3 C13_3 1_555 1_555
C15_2 C11_2 1_555 1_555
O11_2 Ni4_5 1_555 1_555
O12_2 Ni9 1_555 1_555
O23 C14_3 1_555 1_555
Ni7 O6_5 1_555 1_555
O6_5 Ni9 1_555 1_555
C15_2 O11_2 1_555 1_555
C15_2 O12_2 1_555 1_555

#END
