
###############################################################################
#
# This file contains modified crystal structure data generated from the
# MOF subset of the Cambridge Structural Database (CSD) v543 
# hosted by the Cambridge Crystallographic Data Centre (CCDC).
#
# This work is licensed under the Creative Commons
# Attribution-NonCommercial-ShareAlike 4.0 International License.
# To view a copy of this license, visit
# http://creativecommons.org/licenses/by-nc-sa/4.0/
# or send a letter to
# Creative Commons, PO Box 1866, Mountain View, CA 94042, USA.
#
# CIF created using the CSD Python API on 29 September 2022
# The structure has been converted into the P1 space group
# The structure has a 3D framework
# The original CSD entry GADHIF is in the monoclinic crystal system
# The framework has been calculated to contain at least 10.0% void space
# The void calculation uses a probe of radius 1.32A, grid spacing 0.4
#
###############################################################################

data_GADHIF
_chemical_formula_moiety         '(C248 H168 N56 O48 Zn8)n'
_symmetry_cell_setting           triclinic
_symmetry_space_group_name_H-M   'P 1'
_symmetry_Int_Tables_number      1
_space_group_name_Hall           'P 1'
loop_
_symmetry_equiv_pos_site_id
_symmetry_equiv_pos_as_xyz
1 x,y,z
_cell_length_a                   30.8851(18)
_cell_length_b                   17.4665(10)
_cell_length_c                   20.3272(14)
_cell_angle_alpha                90
_cell_angle_beta                 127.705(6)
_cell_angle_gamma                90
_cell_volume                     8675.66
loop_
_atom_site_label
_atom_site_type_symbol
_atom_site_fract_x
_atom_site_fract_y
_atom_site_fract_z
C2 C 0.3041(3) 0.0020(3) 0.5582(5)
C3 C 0.2630(5) 0.0172(4) 0.4745(5)
C4 C 0.2415(5) 0.0906(5) 0.4493(5)
H2 H 0.2141 0.1008 0.3934
C5 C 0.2612(4) 0.1488(3) 0.5077(6)
C6 C 0.3022(5) 0.1337(4) 0.5914(6)
H3 H 0.3153 0.1726 0.6304
C7 C 0.3237(4) 0.0602(4) 0.6166(4)
H4 H 0.3512 0.0501 0.6725
C15 C 0.5582(3) 0.0616(5) 0.6153(5)
H10 H 0.4494 0.0124 0.5292
C21 C 0.7538(3) 0.0227(5) 0.8046(7)
C22 C 0.6148(4) 0.0906(5) 0.6510(6)
C23 C 0.6204(4) 0.1633(7) 0.6296(9)
H13 H 0.5901 0.1930 0.5908
C24 C 0.6742(5) 0.1903(8) 0.6696(11)
H14 H 0.6803 0.2399 0.6604
C25 C 0.7179(4) 0.1414(7) 0.7229(9)
H15 H 0.7534 0.1559 0.7448
C26 C 0.7082(4) 0.0714(5) 0.7431(7)
N5 N 0.6568(2) 0.0449(3) 0.7047(4)
N6 N 0.2387(8) 0.2253(5) 0.4799(14)
O5 O 0.5182(2) 0.1026(3) 0.5727(4)
O6 O 0.8014(2) 0.0492(4) 0.8551(6)
C32 C 0.1700(3) 0.5739(4) 0.4136(5)
C33 C 0.1959(3) 0.4980(3) 0.4418(5)
C34 C 0.2370(5) 0.4828(4) 0.5255(5)
H22 H 0.2501 0.5218 0.5645
C35 C 0.2585(5) 0.4094(5) 0.5507(5)
H23 H 0.2859 0.3992 0.6066
C36 C 0.2388(4) 0.3512(3) 0.4923(6)
C37 C 0.1978(5) 0.3663(4) 0.4086(6)
H24 H 0.1847 0.3274 0.3696
C38 C 0.1763(4) 0.4398(4) 0.3834(4)
H25 H 0.1488 0.4499 0.3275
N8 N 0.2613(8) 0.2747(5) 0.5201(14)
O7 O 0.1327(2) 0.5861(3) 0.3387(3)
O8 O 0.1866(2) 0.6218(3) 0.4688(4)
Zn4 Zn 0.12994(3) 0.70331(4) 0.41392(5)
C46 C 0.4418(3) 0.9384(5) 0.3847(5)
H31 H 0.5506 0.9876 0.4708
C52 C 0.2462(3) 0.9773(5) 0.1954(7)
C53 C 0.3852(4) 0.9094(5) 0.3490(6)
C54 C 0.3796(4) 0.8367(7) 0.3704(9)
H34 H 0.4099 0.8070 0.4092
C55 C 0.3258(5) 0.8097(8) 0.3304(11)
H35 H 0.3197 0.7601 0.3396
C56 C 0.2821(4) 0.8586(7) 0.2771(9)
H36 H 0.2466 0.8441 0.2552
C57 C 0.2918(4) 0.9286(5) 0.2569(7)
N14 N 0.3432(2) 0.9551(3) 0.2953(4)
O11 O 0.4818(2) 0.8974(3) 0.4273(4)
O12 O 0.1986(2) 0.9508(4) 0.1449(6)
C1 C 0.6700(3) 0.9261(4) 0.9136(5)
C8 C 0.6051(3) 0.7062(4) 0.7978(5)
C9 C 0.5818(3) 0.6537(4) 0.7259(5)
C10 C 0.5280(2) 0.6288(4) 0.6771(4)
H5 H 0.5052 0.6450 0.6897
C11 C 0.5077(3) 0.5812(4) 0.6112(5)
H6 H 0.4717 0.5644 0.5802
C12 C 0.5405(3) 0.5576(5) 0.5901(7)
C13 C 0.5949(4) 0.5791(8) 0.6379(9)
H7 H 0.6175 0.5629 0.6248
C14 C 0.6149(4) 0.6262(7) 0.7066(9)
H8 H 0.6517 0.6396 0.7406
C16 C 0.5795(3) 0.9211(5) 0.9502(5)
H9 H 0.6158 0.9363 0.9883
C17 C 0.5408(3) 0.9675(5) 0.9401(6)
C18 C 0.4860(3) 0.9466(4) 0.8826(4)
C19 C 0.4746(2) 0.8761(3) 0.8410(3)
H11 H 0.4388 0.8587 0.8040
C20 C 0.5168(2) 0.8338(3) 0.8558(3)
H12 H 0.5085 0.7879 0.8270
C27 C 0.1447(3) 0.8411(5) 0.5113(9)
H16 H 0.1069 0.8450 0.4712
C28 C 0.1708(3) 0.8993(5) 0.5692(8)
H17 H 0.1510 0.9395 0.5688
C29 C 0.2273(3) 0.8963(4) 0.6278(6)
C30 C 0.2534(2) 0.8331(4) 0.6254(5)
H18 H 0.2912 0.8285 0.6641
C31 C 0.2242(2) 0.7777(4) 0.5665(4)
H19 H 0.2429 0.7361 0.5662
N1 N 0.56977(19) 0.8544(3) 0.9095(3)
N2 N 0.4414(2) 0.9878(3) 0.8629(4)
N3 N 0.2602(2) 0.9510(4) 0.6889(5)
N4 N 0.1687(2) 0.7807(3) 0.5081(5)
N7 N 0.5248(3) 0.5063(5) 0.5224(6)
O1 O 0.57393(18) 0.7260(3) 0.8154(3)
O2 O 0.6542(3) 0.7252(4) 0.8421(5)
O3 O 0.6327(2) 0.9139(3) 0.8387(3)
O4 O 0.6866(2) 0.8782(3) 0.9688(4)
Zn1 Zn 0.62994(3) 0.79669(4) 0.91392(5)
H20 H 0.2925 0.9355 0.7270
H21 H 0.4168 0.9576 0.8540
C39 C 0.3949(3) 0.2938(4) 0.2022(5)
C40 C 0.4182(3) 0.3463(4) 0.2741(5)
C41 C 0.4720(2) 0.3712(4) 0.3229(4)
H26 H 0.4948 0.3550 0.3103
C42 C 0.4923(3) 0.4188(4) 0.3888(5)
H27 H 0.5283 0.4356 0.4198
C43 C 0.4595(3) 0.4424(5) 0.4099(7)
C44 C 0.4051(4) 0.4209(8) 0.3621(9)
H28 H 0.3825 0.4371 0.3752
C45 C 0.3851(4) 0.3738(7) 0.2934(9)
H29 H 0.3483 0.3604 0.2594
N9 N 0.4752(3) 0.4937(5) 0.4776(6)
O9 O 0.42607(18) 0.2740(3) 0.1846(3)
O10 O 0.3458(3) 0.2748(4) 0.1579(5)
C47 C 0.4205(3) 0.0789(5) 0.0498(5)
H30 H 0.3842 0.0637 0.0117
C48 C 0.4592(3) 0.0325(5) 0.0599(6)
C49 C 0.5140(3) 0.0534(4) 0.1174(4)
C50 C 0.5254(2) 0.1239(3) 0.1590(3)
H32 H 0.5612 0.1413 0.1960
C51 C 0.4832(2) 0.1662(3) 0.1442(3)
H33 H 0.4915 0.2121 0.1730
C58 C 0.8553(3) 0.1589(5) 0.4887(9)
H37 H 0.8931 0.1550 0.5288
C59 C 0.8292(3) 0.1007(5) 0.4308(8)
H38 H 0.8490 0.0605 0.4312
C60 C 0.7727(3) 0.1037(4) 0.3722(6)
C61 C 0.7466(2) 0.1669(4) 0.3746(5)
H39 H 0.7088 0.1715 0.3359
C62 C 0.7758(2) 0.2223(4) 0.4335(4)
H40 H 0.7571 0.2639 0.4338
N10 N 0.43023(19) 0.1456(3) 0.0905(3)
N11 N 0.5586(2) 0.0122(3) 0.1371(4)
N12 N 0.7398(2) 0.0490(4) 0.3111(5)
N13 N 0.8313(2) 0.2193(3) 0.4919(5)
Zn2 Zn 0.37006(3) 0.20331(4) 0.08608(5)
H41 H 0.7075 0.0645 0.2730
H42 H 0.5832 0.0424 0.1460
O13 O 0.3134(2) 0.1218(3) 0.0312(4)
Zn3 Zn 0.87006(3) 0.29669(4) 0.58608(5)
H16_2 H 0.3931 0.3450 0.0288
C39_2 C 0.1051(3) 0.7938(4) 0.2978(5)
C40_2 C 0.0818(3) 0.8463(4) 0.2259(5)
C41_2 C 0.0280(2) 0.8712(4) 0.1771(4)
H26_2 H 0.0052 0.8550 0.1897
C42_2 C 0.0077(3) 0.9188(4) 0.1112(5)
C43_2 C 0.0405(3) 0.9424(5) 0.0901(7)
C44_2 C 0.0949(4) 0.9209(8) 0.1379(9)
H28_2 H 0.1175 0.9371 0.1248
C45_2 C 0.1149(4) 0.8738(7) 0.2066(9)
H29_2 H 0.1517 0.8604 0.2406
N9_2 N 0.0248(3) 0.9937(5) 0.0224(6)
O9_2 O 0.07393(18) 0.7740(3) 0.3154(3)
O10_2 O 0.1542(3) 0.7748(4) 0.3421(5)
C47_2 C 0.0795(3) 0.5789(5) 0.4502(5)
H30_2 H 0.1158 0.5637 0.4883
C48_2 C 0.0408(3) 0.5325(5) 0.4401(6)
H31_2 H 0.0506 0.4876 0.4708
C51_2 C 0.0168(2) 0.6662(3) 0.3558(3)
H33_2 H 0.0085 0.7121 0.3270
N10_2 N 0.06977(19) 0.6456(3) 0.4095(3)
C1_2 C 0.8300(3) 0.4261(4) 0.5864(5)
C2_2 C 0.8041(3) 0.5020(3) 0.5582(5)
C3_2 C 0.7630(5) 0.5172(4) 0.4745(5)
H1 H 0.7499 0.4782 0.4355
C4_2 C 0.7415(5) 0.5906(5) 0.4493(5)
H2_2 H 0.7141 0.6008 0.3934
C5_2 C 0.7612(4) 0.6488(3) 0.5077(6)
C6_2 C 0.8022(5) 0.6337(4) 0.5914(6)
H3_2 H 0.8153 0.6726 0.6304
C7_2 C 0.8237(4) 0.5602(4) 0.6166(4)
H4_2 H 0.8512 0.5501 0.6725
C8_2 C 0.8949(3) 0.2062(4) 0.7022(5)
C9_2 C 0.9182(3) 0.1537(4) 0.7741(5)
C10_2 C 0.9720(2) 0.1288(4) 0.8229(4)
H5_2 H 0.9948 0.1450 0.8103
C11_2 C 0.9923(3) 0.0812(4) 0.8888(5)
C12_2 C 0.9595(3) 0.0576(5) 0.9099(7)
C13_2 C 0.9051(4) 0.0791(8) 0.8621(9)
H7_2 H 0.8825 0.0629 0.8752
C14_2 C 0.8851(4) 0.1262(7) 0.7934(9)
H8_2 H 0.8483 0.1396 0.7594
C16_2 C 0.9205(3) 0.4211(5) 0.5498(5)
H9_2 H 0.8842 0.4363 0.5117
C17_2 C 0.9592(3) 0.4675(5) 0.5599(6)
H10_2 H 0.9494 0.5124 0.5292
C20_2 C 0.9832(2) 0.3338(3) 0.6442(3)
H12_2 H 0.9915 0.2879 0.6730
N1_2 N 0.93023(19) 0.3544(3) 0.5905(3)
N6_2 N 0.7387(8) 0.7253(5) 0.4799(14)
N7_2 N 0.9752(3) 0.0063(5) 0.9776(6)
O1_2 O 0.92607(18) 0.2260(3) 0.6846(3)
O2_2 O 0.8458(3) 0.2252(4) 0.6579(5)
O3_2 O 0.8673(2) 0.4139(3) 0.6613(3)
O4_2 O 0.8134(2) 0.3782(3) 0.5312(4)
C33_2 C 0.6959(3) 0.9980(3) 0.4418(5)
C34_2 C 0.7370(5) 0.9828(4) 0.5255(5)
C35_2 C 0.7585(5) 0.9094(5) 0.5507(5)
H23_2 H 0.7859 0.8992 0.6066
C36_2 C 0.7388(4) 0.8512(3) 0.4923(6)
C37_2 C 0.6978(5) 0.8663(4) 0.4086(6)
H24_2 H 0.6847 0.8274 0.3696
C38_2 C 0.6763(4) 0.9398(4) 0.3834(4)
H25_2 H 0.6488 0.9499 0.3275
N8_2 N 0.7613(8) 0.7747(5) 0.5201(14)
H37_2 H 0.6069 0.6550 0.9712
C32_2 C 0.3300(3) 0.0739(4) 0.0864(5)
O7_2 O 0.3673(2) 0.0861(3) 0.1613(3)
H16_3 H 0.8931 0.8450 0.0288
C39_3 C 0.6051(3) 0.2938(4) 0.2978(5)
C40_3 C 0.5818(3) 0.3463(4) 0.2259(5)
C41_3 C 0.5280(2) 0.3712(4) 0.1771(4)
H26_3 H 0.5052 0.3550 0.1897
C42_3 C 0.5077(3) 0.4188(4) 0.1112(5)
H27_2 H 0.4717 0.4356 0.0802
C43_3 C 0.5405(3) 0.4424(5) 0.0901(7)
C44_3 C 0.5949(4) 0.4209(8) 0.1379(9)
H28_3 H 0.6175 0.4371 0.1248
C45_3 C 0.6149(4) 0.3738(7) 0.2066(9)
H29_3 H 0.6517 0.3604 0.2406
N9_3 N 0.5248(3) 0.4937(5) 0.0224(6)
O9_3 O 0.57393(18) 0.2740(3) 0.3154(3)
O10_3 O 0.6542(3) 0.2748(4) 0.3421(5)
C47_3 C 0.5795(3) 0.0789(5) 0.4502(5)
H30_3 H 0.6158 0.0637 0.4883
C48_3 C 0.5408(3) 0.0325(5) 0.4401(6)
C49_2 C 0.4860(3) 0.0534(4) 0.3826(4)
C50_2 C 0.4746(2) 0.1239(3) 0.3410(3)
H32_2 H 0.4388 0.1413 0.3040
C51_3 C 0.5168(2) 0.1662(3) 0.3558(3)
H33_3 H 0.5085 0.2121 0.3270
C58_2 C 0.1447(3) 0.1589(5) 0.0113(9)
C59_2 C 0.1708(3) 0.1007(5) 0.0692(8)
H38_2 H 0.1510 0.0605 0.0688
C60_2 C 0.2273(3) 0.1037(4) 0.1278(6)
C61_2 C 0.2534(2) 0.1669(4) 0.1254(5)
H39_2 H 0.2912 0.1715 0.1641
C62_2 C 0.2242(2) 0.2223(4) 0.0665(4)
H40_2 H 0.2429 0.2639 0.0662
N10_3 N 0.56977(19) 0.1456(3) 0.4095(3)
N11_2 N 0.4414(2) 0.0122(3) 0.3629(4)
N12_2 N 0.2602(2) 0.0490(4) 0.1889(5)
N13_2 N 0.1687(2) 0.2193(3) 0.0081(5)
Zn2_2 Zn 0.62994(3) 0.20331(4) 0.41392(5)
H41_2 H 0.2925 0.0645 0.2270
H42_2 H 0.4168 0.0424 0.3540
N15 N 0.6687(2) 0.2807(3) 0.5081(5)
O13_2 O 0.6866(2) 0.1218(3) 0.4688(4)
Zn5 Zn 0.87006(3) 0.70331(4) 0.08608(5)
C3_3 C 0.7370(5) 0.0172(4) 0.0255(5)
C4_3 C 0.7585(5) 0.0906(5) 0.0507(5)
H2_3 H 0.7859 0.1008 0.1066
N6_3 N 0.7613(8) 0.2253(5) 0.0201(14)
C32_3 C 0.8300(3) 0.5739(4) 0.0864(5)
C33_3 C 0.8041(3) 0.4980(3) 0.0582(5)
C36_3 C 0.7612(4) 0.3512(3) 0.0077(6)
C37_3 C 0.8022(5) 0.3663(4) 0.0914(6)
H24_3 H 0.8153 0.3274 0.1304
C38_3 C 0.8237(4) 0.4398(4) 0.1166(4)
H25_3 H 0.8512 0.4499 0.1725
O7_3 O 0.8673(2) 0.5861(3) 0.1613(3)
O8_2 O 0.8134(2) 0.6218(3) 0.0312(4)
C46_2 C 0.5582(3) 0.9384(5) 0.1153(5)
H31_3 H 0.4494 0.9876 0.0292
C52_2 C 0.7538(3) 0.9773(5) 0.3046(7)
C53_2 C 0.6148(4) 0.9094(5) 0.1510(6)
C54_2 C 0.6204(4) 0.8367(7) 0.1296(9)
H34_2 H 0.5901 0.8070 0.0908
C55_2 C 0.6742(5) 0.8097(8) 0.1696(11)
H35_2 H 0.6803 0.7601 0.1604
C56_2 C 0.7179(4) 0.8586(7) 0.2229(9)
H36_2 H 0.7534 0.8441 0.2448
C57_2 C 0.7082(4) 0.9286(5) 0.2431(7)
N14_2 N 0.6568(2) 0.9551(3) 0.2047(4)
O11_2 O 0.5182(2) 0.8974(3) 0.0727(4)
O12_2 O 0.8014(2) 0.9508(4) 0.3551(6)
C32_4 C 0.6700(3) 0.0739(4) 0.4136(5)
H22_2 H 0.7501 0.0218 0.5645
O7_4 O 0.6327(2) 0.0861(3) 0.3387(3)
C3_4 C 0.2370(5) 0.5172(4) 0.0255(5)
H1_2 H 0.2501 0.4782 0.0645
C4_4 C 0.2585(5) 0.5906(5) 0.0507(5)
H2_4 H 0.2859 0.6008 0.1066
N6_4 N 0.2613(8) 0.7253(5) 0.0201(14)
C33_4 C 0.3041(3) 0.9980(3) 0.0582(5)
C36_4 C 0.2612(4) 0.8512(3) 0.0077(6)
C37_4 C 0.3022(5) 0.8663(4) 0.0914(6)
H24_4 H 0.3153 0.8274 0.1304
C38_4 C 0.3237(4) 0.9398(4) 0.1166(4)
H25_4 H 0.3512 0.9499 0.1725
H6_2 H 0.9717 0.0644 0.5802
C15_2 C 0.9418(3) 0.5616(5) 0.8847(5)
C18_2 C 0.9860(3) 0.4466(4) 0.8826(4)
C19_2 C 0.9746(2) 0.3761(3) 0.8410(3)
H11_2 H 0.9388 0.3587 0.8040
C21_2 C 0.7462(3) 0.5227(5) 0.6954(7)
C22_2 C 0.8852(4) 0.5906(5) 0.8490(6)
C23_2 C 0.8796(4) 0.6633(7) 0.8704(9)
H13_2 H 0.9099 0.6930 0.9092
C24_2 C 0.8258(5) 0.6903(8) 0.8304(11)
H14_2 H 0.8197 0.7399 0.8396
C25_2 C 0.7821(4) 0.6414(7) 0.7771(9)
H15_2 H 0.7466 0.6559 0.7552
C26_2 C 0.7918(4) 0.5714(5) 0.7569(7)
C27_2 C 0.6447(3) 0.3411(5) 0.5113(9)
H16_4 H 0.6069 0.3450 0.4712
C28_2 C 0.6708(3) 0.3993(5) 0.5692(8)
H17_2 H 0.6510 0.4395 0.5688
C29_2 C 0.7273(3) 0.3963(4) 0.6278(6)
C30_2 C 0.7534(2) 0.3331(4) 0.6254(5)
H18_2 H 0.7912 0.3285 0.6641
C31_2 C 0.7242(2) 0.2777(4) 0.5665(4)
H19_2 H 0.7429 0.2361 0.5662
N2_2 N 0.9414(2) 0.4878(3) 0.8629(4)
N3_2 N 0.7602(2) 0.4510(4) 0.6889(5)
N5_2 N 0.8432(2) 0.5449(3) 0.7953(4)
O5_2 O 0.9818(2) 0.6026(3) 0.9273(4)
O6_2 O 0.6986(2) 0.5492(4) 0.6449(6)
H20_2 H 0.7925 0.4355 0.7270
H21_2 H 0.9168 0.4576 0.8540
C39_4 C 0.8949(3) 0.7938(4) 0.2022(5)
C40_4 C 0.9182(3) 0.8463(4) 0.2741(5)
C41_4 C 0.9720(2) 0.8712(4) 0.3229(4)
H26_4 H 0.9948 0.8550 0.3103
C42_4 C 0.9923(3) 0.9188(4) 0.3888(5)
C43_4 C 0.9595(3) 0.9424(5) 0.4099(7)
C44_4 C 0.9051(4) 0.9209(8) 0.3621(9)
H28_4 H 0.8825 0.9371 0.3752
C45_4 C 0.8851(4) 0.8738(7) 0.2934(9)
H29_4 H 0.8483 0.8604 0.2594
N9_4 N 0.9752(3) 0.9937(5) 0.4776(6)
O9_4 O 0.92607(18) 0.7740(3) 0.1846(3)
O10_4 O 0.8458(3) 0.7748(4) 0.1579(5)
C47_4 C 0.9205(3) 0.5789(5) 0.0498(5)
H30_4 H 0.8842 0.5637 0.0117
C48_4 C 0.9592(3) 0.5325(5) 0.0599(6)
H31_4 H 0.9494 0.4876 0.0292
C51_4 C 0.9832(2) 0.6662(3) 0.1442(3)
H33_4 H 0.9915 0.7121 0.1730
N10_4 N 0.93023(19) 0.6456(3) 0.0905(3)
C1_3 C 0.3300(3) 0.9261(4) 0.5864(5)
H1_3 H 0.2499 0.9782 0.4355
C8_3 C 0.3949(3) 0.7062(4) 0.7022(5)
C9_3 C 0.4182(3) 0.6537(4) 0.7741(5)
C10_3 C 0.4720(2) 0.6288(4) 0.8229(4)
H5_3 H 0.4948 0.6450 0.8103
C11_3 C 0.4923(3) 0.5812(4) 0.8888(5)
H6_3 H 0.5283 0.5644 0.9198
C12_3 C 0.4595(3) 0.5576(5) 0.9099(7)
C13_3 C 0.4051(4) 0.5791(8) 0.8621(9)
H7_3 H 0.3825 0.5629 0.8752
C14_3 C 0.3851(4) 0.6262(7) 0.7934(9)
H8_3 H 0.3483 0.6396 0.7594
C16_3 C 0.4205(3) 0.9211(5) 0.5498(5)
H9_3 H 0.3842 0.9363 0.5117
C17_3 C 0.4592(3) 0.9675(5) 0.5599(6)
C18_3 C 0.5140(3) 0.9466(4) 0.6174(4)
C19_3 C 0.5254(2) 0.8761(3) 0.6590(3)
H11_3 H 0.5612 0.8587 0.6960
C20_3 C 0.4832(2) 0.8338(3) 0.6442(3)
H12_3 H 0.4915 0.7879 0.6730
C27_3 C 0.8553(3) 0.8411(5) 0.9887(9)
C28_3 C 0.8292(3) 0.8993(5) 0.9308(8)
H17_3 H 0.8490 0.9395 0.9312
C29_3 C 0.7727(3) 0.8963(4) 0.8722(6)
C30_3 C 0.7466(2) 0.8331(4) 0.8746(5)
H18_3 H 0.7088 0.8285 0.8359
C31_3 C 0.7758(2) 0.7777(4) 0.9335(4)
H19_3 H 0.7571 0.7361 0.9338
N1_3 N 0.43023(19) 0.8544(3) 0.5905(3)
N2_3 N 0.5586(2) 0.9878(3) 0.6371(4)
N3_3 N 0.7398(2) 0.9510(4) 0.8111(5)
N4_2 N 0.8313(2) 0.7807(3) 0.9919(5)
N7_3 N 0.4752(3) 0.5063(5) 0.9776(6)
O1_3 O 0.42607(18) 0.7260(3) 0.6846(3)
O2_3 O 0.3458(3) 0.7252(4) 0.6579(5)
O3_3 O 0.3673(2) 0.9139(3) 0.6613(3)
O4_3 O 0.3134(2) 0.8782(3) 0.5312(4)
Zn1_2 Zn 0.37006(3) 0.79669(4) 0.58608(5)
H20_3 H 0.7075 0.9355 0.7730
H21_3 H 0.5832 0.9576 0.6460
H37_3 H 0.1069 0.1550 0.9712
N16 N 0.3313(2) 0.7193(3) 0.4919(5)
Zn3_2 Zn 0.12994(3) 0.29669(4) 0.91392(5)
C2_3 C 0.6959(3) 0.0020(3) 0.9418(5)
C5_3 C 0.7388(4) 0.1488(3) 0.9923(6)
C6_3 C 0.6978(5) 0.1337(4) 0.9086(6)
H3_3 H 0.6847 0.1726 0.8696
C7_3 C 0.6763(4) 0.0602(4) 0.8834(4)
H4_3 H 0.6488 0.0501 0.8275
C15_3 C 0.4418(3) 0.0616(5) 0.8847(5)
H10_3 H 0.5506 0.0124 0.9708
C21_3 C 0.2462(3) 0.0227(5) 0.6954(7)
C22_3 C 0.3852(4) 0.0906(5) 0.8490(6)
C23_3 C 0.3796(4) 0.1633(7) 0.8704(9)
H13_3 H 0.4099 0.1930 0.9092
C24_3 C 0.3258(5) 0.1903(8) 0.8304(11)
H14_3 H 0.3197 0.2399 0.8396
C25_3 C 0.2821(4) 0.1414(7) 0.7771(9)
H15_3 H 0.2466 0.1559 0.7552
C26_3 C 0.2918(4) 0.0714(5) 0.7569(7)
N5_3 N 0.3432(2) 0.0449(3) 0.7953(4)
O5_3 O 0.4818(2) 0.1026(3) 0.9273(4)
O6_3 O 0.1986(2) 0.0492(4) 0.6449(6)
C34_3 C 0.7630(5) 0.4828(4) 0.9745(5)
H22_3 H 0.7499 0.5218 0.9355
C35_3 C 0.7415(5) 0.4094(5) 0.9493(5)
H23_3 H 0.7141 0.3992 0.8934
N8_3 N 0.7387(8) 0.2747(5) 0.9799(14)
C1_4 C 0.1700(3) 0.4261(4) 0.9136(5)
C2_4 C 0.1959(3) 0.5020(3) 0.9418(5)
C5_4 C 0.2388(4) 0.6488(3) 0.9923(6)
C6_4 C 0.1978(5) 0.6337(4) 0.9086(6)
H3_4 H 0.1847 0.6726 0.8696
C7_4 C 0.1763(4) 0.5602(4) 0.8834(4)
H4_4 H 0.1488 0.5501 0.8275
C8_4 C 0.1051(3) 0.2062(4) 0.7978(5)
C9_4 C 0.0818(3) 0.1537(4) 0.7259(5)
C10_4 C 0.0280(2) 0.1288(4) 0.6771(4)
H5_4 H 0.0052 0.1450 0.6897
C11_4 C 0.0077(3) 0.0812(4) 0.6112(5)
C12_4 C 0.0405(3) 0.0576(5) 0.5901(7)
C13_4 C 0.0949(4) 0.0791(8) 0.6379(9)
H7_4 H 0.1175 0.0629 0.6248
C14_4 C 0.1149(4) 0.1262(7) 0.7066(9)
H8_4 H 0.1517 0.1396 0.7406
C16_4 C 0.0795(3) 0.4211(5) 0.9502(5)
H9_4 H 0.1158 0.4363 0.9883
C17_4 C 0.0408(3) 0.4675(5) 0.9401(6)
H10_4 H 0.0506 0.5124 0.9708
C20_4 C 0.0168(2) 0.3338(3) 0.8558(3)
H12_4 H 0.0085 0.2879 0.8270
N1_4 N 0.06977(19) 0.3544(3) 0.9095(3)
N7_4 N 0.0248(3) 0.0063(5) 0.5224(6)
O1_4 O 0.07393(18) 0.2260(3) 0.8154(3)
O2_4 O 0.1542(3) 0.2252(4) 0.8421(5)
O3_4 O 0.1327(2) 0.4139(3) 0.8387(3)
O4_4 O 0.1866(2) 0.3782(3) 0.9688(4)
C34_4 C 0.2630(5) 0.9828(4) 0.9745(5)
C35_4 C 0.2415(5) 0.9094(5) 0.9493(5)
H23_4 H 0.2141 0.8992 0.8934
N8_4 N 0.2387(8) 0.7747(5) 0.9799(14)
H27_3 H 0.0283 0.9356 0.4198
C46_3 C 0.0582(3) 0.4384(5) 0.1153(5)
C49_3 C 0.0140(3) 0.5534(4) 0.1174(4)
C50_3 C 0.0254(2) 0.6239(3) 0.1590(3)
H32_3 H 0.0612 0.6413 0.1960
C52_3 C 0.2538(3) 0.4773(5) 0.3046(7)
C53_3 C 0.1148(4) 0.4094(5) 0.1510(6)
C54_3 C 0.1204(4) 0.3367(7) 0.1296(9)
H34_3 H 0.0901 0.3070 0.0908
C55_3 C 0.1742(5) 0.3097(8) 0.1696(11)
H35_3 H 0.1803 0.2601 0.1604
C56_3 C 0.2179(4) 0.3586(7) 0.2229(9)
H36_3 H 0.2534 0.3441 0.2448
C57_3 C 0.2082(4) 0.4286(5) 0.2431(7)
C58_3 C 0.3553(3) 0.6589(5) 0.4887(9)
H37_4 H 0.3931 0.6550 0.5288
C59_3 C 0.3292(3) 0.6007(5) 0.4308(8)
H38_3 H 0.3490 0.5605 0.4312
C60_3 C 0.2727(3) 0.6037(4) 0.3722(6)
C61_3 C 0.2466(2) 0.6669(4) 0.3746(5)
H39_3 H 0.2088 0.6715 0.3359
C62_3 C 0.2758(2) 0.7223(4) 0.4335(4)
H40_3 H 0.2571 0.7639 0.4338
N11_3 N 0.0586(2) 0.5122(3) 0.1371(4)
N12_3 N 0.2398(2) 0.5490(4) 0.3111(5)
N14_3 N 0.1568(2) 0.4551(3) 0.2047(4)
O11_3 O 0.0182(2) 0.3974(3) 0.0727(4)
O12_3 O 0.3014(2) 0.4508(4) 0.3551(6)
H41_3 H 0.2075 0.5645 0.2730
H42_3 H 0.0832 0.5424 0.1460
H1_4 H 0.7501 0.9782 0.0645
N16_2 N 0.6687(2) 0.7193(3) 0.0081(5)
H27_4 H 0.9717 0.9356 0.0802
C46_4 C 0.9418(3) 0.4384(5) 0.3847(5)
C49_4 C 0.9860(3) 0.5534(4) 0.3826(4)
C50_4 C 0.9746(2) 0.6239(3) 0.3410(3)
H32_4 H 0.9388 0.6413 0.3040
C52_4 C 0.7462(3) 0.4773(5) 0.1954(7)
C53_4 C 0.8852(4) 0.4094(5) 0.3490(6)
C54_4 C 0.8796(4) 0.3367(7) 0.3704(9)
H34_4 H 0.9099 0.3070 0.4092
C55_4 C 0.8258(5) 0.3097(8) 0.3304(11)
H35_4 H 0.8197 0.2601 0.3396
C56_4 C 0.7821(4) 0.3586(7) 0.2771(9)
H36_4 H 0.7466 0.3441 0.2552
C57_4 C 0.7918(4) 0.4286(5) 0.2569(7)
C58_4 C 0.6447(3) 0.6589(5) 0.0113(9)
C59_4 C 0.6708(3) 0.6007(5) 0.0692(8)
H38_4 H 0.6510 0.5605 0.0688
C60_4 C 0.7273(3) 0.6037(4) 0.1278(6)
C61_4 C 0.7534(2) 0.6669(4) 0.1254(5)
H39_4 H 0.7912 0.6715 0.1641
C62_4 C 0.7242(2) 0.7223(4) 0.0665(4)
H40_4 H 0.7429 0.7639 0.0662
N11_4 N 0.9414(2) 0.5122(3) 0.3629(4)
N12_4 N 0.7602(2) 0.5490(4) 0.1889(5)
N14_4 N 0.8432(2) 0.4551(3) 0.2953(4)
O11_4 O 0.9818(2) 0.3974(3) 0.4273(4)
O12_4 O 0.6986(2) 0.4508(4) 0.1449(6)
H41_4 H 0.7925 0.5645 0.2270
H42_4 H 0.9168 0.5424 0.3540
N15_2 N 0.3313(2) 0.2807(3) 0.9919(5)
H6_4 H 0.0283 0.0644 0.9198
C15_4 C 0.0582(3) 0.5616(5) 0.6153(5)
C18_4 C 0.0140(3) 0.4466(4) 0.6174(4)
C19_4 C 0.0254(2) 0.3761(3) 0.6590(3)
H11_4 H 0.0612 0.3587 0.6960
C21_4 C 0.2538(3) 0.5227(5) 0.8046(7)
C22_4 C 0.1148(4) 0.5906(5) 0.6510(6)
C23_4 C 0.1204(4) 0.6633(7) 0.6296(9)
H13_4 H 0.0901 0.6930 0.5908
C24_4 C 0.1742(5) 0.6903(8) 0.6696(11)
H14_4 H 0.1803 0.7399 0.6604
C25_4 C 0.2179(4) 0.6414(7) 0.7229(9)
H15_4 H 0.2534 0.6559 0.7448
C26_4 C 0.2082(4) 0.5714(5) 0.7431(7)
C27_4 C 0.3553(3) 0.3411(5) 0.9887(9)
C28_4 C 0.3292(3) 0.3993(5) 0.9308(8)
H17_4 H 0.3490 0.4395 0.9312
C29_4 C 0.2727(3) 0.3963(4) 0.8722(6)
C30_4 C 0.2466(2) 0.3331(4) 0.8746(5)
H18_4 H 0.2088 0.3285 0.8359
C31_4 C 0.2758(2) 0.2777(4) 0.9335(4)
H19_4 H 0.2571 0.2361 0.9338
N2_4 N 0.0586(2) 0.4878(3) 0.6371(4)
N3_4 N 0.2398(2) 0.4510(4) 0.8111(5)
N5_4 N 0.1568(2) 0.5449(3) 0.7047(4)
O5_4 O 0.0182(2) 0.6026(3) 0.5727(4)
O6_4 O 0.3014(2) 0.5492(4) 0.8551(6)
H20_4 H 0.2075 0.4355 0.7730
H21_4 H 0.0832 0.4576 0.6460
H22_4 H 0.2499 0.0218 0.9355
loop_
_geom_bond_atom_site_label_1
_geom_bond_atom_site_label_2
_geom_bond_site_symmetry_1
_geom_bond_site_symmetry_2
C2 C3 1_555 1_555
C4 C3 1_555 1_555
H2 C4 1_555 1_555
C5 C4 1_555 1_555
C6 C5 1_555 1_555
H3 C6 1_555 1_555
C7 C2 1_555 1_555
H4 C7 1_555 1_555
C15 C22 1_555 1_555
C21 C26 1_555 1_555
C22 C23 1_555 1_555
C23 H13 1_555 1_555
C24 C23 1_555 1_555
H14 C24 1_555 1_555
C25 C24 1_555 1_555
H15 C25 1_555 1_555
C26 C25 1_555 1_555
N5 C22 1_555 1_555
N6 C5 1_555 1_555
O5 C15 1_555 1_555
O6 C21 1_555 1_555
C32 C33 1_555 1_555
C33 C34 1_555 1_555
C34 H22 1_555 1_555
C35 C34 1_555 1_555
H23 C35 1_555 1_555
C36 C35 1_555 1_555
C37 C36 1_555 1_555
H24 C37 1_555 1_555
C38 C33 1_555 1_555
H25 C38 1_555 1_555
N8 N6 1_555 1_555
O7 C32 1_555 1_555
O8 C32 1_555 1_555
Zn4 O8 1_555 1_555
C6 C7 1_555 1_555
C26 N5 1_555 1_555
C36 N8 1_555 1_555
C37 C38 1_555 1_555
C46 C53 1_555 1_555
C52 C57 1_555 1_555
C53 C54 1_555 1_555
C54 H34 1_555 1_555
C55 C54 1_555 1_555
H35 C55 1_555 1_555
C56 C55 1_555 1_555
H36 C56 1_555 1_555
C57 C56 1_555 1_555
N14 C53 1_555 1_555
O11 C46 1_555 1_555
O12 C52 1_555 1_555
C57 N14 1_555 1_555
C8 C9 1_555 1_555
C9 C10 1_555 1_555
C10 H5 1_555 1_555
C11 C10 1_555 1_555
H6 C11 1_555 1_555
C12 C11 1_555 1_555
C13 C12 1_555 1_555
H7 C13 1_555 1_555
C14 C9 1_555 1_555
H8 C14 1_555 1_555
C16 H9 1_555 1_555
C17 C16 1_555 1_555
C18 C17 1_555 1_555
C19 C18 1_555 1_555
H11 C19 1_555 1_555
C20 C19 1_555 1_555
H12 C20 1_555 1_555
C27 H16 1_555 1_555
C28 C27 1_555 1_555
H17 C28 1_555 1_555
C29 C28 1_555 1_555
C30 C29 1_555 1_555
H18 C30 1_555 1_555
C31 C30 1_555 1_555
H19 C31 1_555 1_555
N1 C16 1_555 1_555
N4 C27 1_555 1_555
N7 C12 1_555 1_555
O1 C8 1_555 1_555
O2 C8 1_555 1_555
O3 C1 1_555 1_555
O4 C1 1_555 1_555
Zn1 N1 1_555 1_555
H20 N3 1_555 1_555
H21 N2 1_555 1_555
C39 C40 1_555 1_555
C40 C41 1_555 1_555
C41 H26 1_555 1_555
C42 C41 1_555 1_555
H27 C42 1_555 1_555
C43 C42 1_555 1_555
C44 C43 1_555 1_555
H28 C44 1_555 1_555
C45 C40 1_555 1_555
H29 C45 1_555 1_555
N9 N7 1_555 1_555
O9 C39 1_555 1_555
O10 C39 1_555 1_555
C47 H30 1_555 1_555
C48 C47 1_555 1_555
C49 C48 1_555 1_555
C50 C49 1_555 1_555
H32 C50 1_555 1_555
C51 C50 1_555 1_555
H33 C51 1_555 1_555
C58 H37 1_555 1_555
C59 C58 1_555 1_555
H38 C59 1_555 1_555
C60 C59 1_555 1_555
C61 C60 1_555 1_555
H39 C61 1_555 1_555
C62 C61 1_555 1_555
H40 C62 1_555 1_555
N10 C47 1_555 1_555
N13 C58 1_555 1_555
Zn2 O9 1_555 1_555
H41 N12 1_555 1_555
H42 N11 1_555 1_555
O13 Zn2 1_555 1_555
Zn3 N13 1_555 1_555
Zn4 N4 1_555 1_555
C13 C14 1_555 1_555
C18 N2 1_555 1_555
C20 N1 1_555 1_555
C29 N3 1_555 1_555
C31 N4 1_555 1_555
O1 Zn1 1_555 1_555
O2 Zn1 1_555 1_555
O4 Zn1 1_555 1_555
C43 N9 1_555 1_555
C44 C45 1_555 1_555
O10 Zn2 1_555 1_555
C49 N11 1_555 1_555
C51 N10 1_555 1_555
C60 N12 1_555 1_555
C62 N13 1_555 1_555
N10 Zn2 1_555 1_555
C39_2 C40_2 1_555 1_555
C40_2 C41_2 1_555 1_555
C41_2 H26_2 1_555 1_555
C42_2 C41_2 1_555 1_555
C43_2 C42_2 1_555 1_555
C44_2 C43_2 1_555 1_555
H28_2 C44_2 1_555 1_555
C45_2 C40_2 1_555 1_555
H29_2 C45_2 1_555 1_555
O9_2 C39_2 1_555 1_555
O10_2 C39_2 1_555 1_555
C47_2 H30_2 1_555 1_555
C48_2 C47_2 1_555 1_555
H31_2 C48_2 1_555 1_555
H33_2 C51_2 1_555 1_555
N10_2 C47_2 1_555 1_555
Zn4 O9_2 1_555 1_555
C43_2 N9_2 1_555 1_555
C44_2 C45_2 1_555 1_555
O10_2 Zn4 1_555 1_555
C51_2 N10_2 1_555 1_555
N10_2 Zn4 1_555 1_555
C1_2 C2_2 1_555 1_555
C2_2 C3_2 1_555 1_555
C3_2 H1 1_555 1_555
C4_2 C3_2 1_555 1_555
H2_2 C4_2 1_555 1_555
C5_2 C4_2 1_555 1_555
C6_2 C5_2 1_555 1_555
H3_2 C6_2 1_555 1_555
C7_2 C2_2 1_555 1_555
H4_2 C7_2 1_555 1_555
C8_2 C9_2 1_555 1_555
C9_2 C10_2 1_555 1_555
C10_2 H5_2 1_555 1_555
C11_2 C10_2 1_555 1_555
C12_2 C11_2 1_555 1_555
C13_2 C12_2 1_555 1_555
H7_2 C13_2 1_555 1_555
C14_2 C9_2 1_555 1_555
H8_2 C14_2 1_555 1_555
C16_2 H9_2 1_555 1_555
C17_2 C16_2 1_555 1_555
H10_2 C17_2 1_555 1_555
H12_2 C20_2 1_555 1_555
N1_2 C16_2 1_555 1_555
N6_2 C5_2 1_555 1_555
N7_2 C12_2 1_555 1_555
O1_2 C8_2 1_555 1_555
O2_2 C8_2 1_555 1_555
O3_2 C1_2 1_555 1_555
O4_2 C1_2 1_555 1_555
Zn3 N1_2 1_555 1_555
C33_2 C34_2 1_555 1_555
C35_2 C34_2 1_555 1_555
H23_2 C35_2 1_555 1_555
C36_2 C35_2 1_555 1_555
C37_2 C36_2 1_555 1_555
H24_2 C37_2 1_555 1_555
C38_2 C33_2 1_555 1_555
H25_2 C38_2 1_555 1_555
N8_2 N6_2 1_555 1_555
C6_2 C7_2 1_555 1_555
C13_2 C14_2 1_555 1_555
C20_2 N1_2 1_555 1_555
O1_2 Zn3 1_555 1_555
O2_2 Zn3 1_555 1_555
O4_2 Zn3 1_555 1_555
C36_2 N8_2 1_555 1_555
C37_2 C38_2 1_555 1_555
O7_2 C32_2 1_555 1_555
O13 C32_2 1_555 1_555
C39_3 C40_3 1_555 1_555
C40_3 C41_3 1_555 1_555
C41_3 H26_3 1_555 1_555
C42_3 C41_3 1_555 1_555
H27_2 C42_3 1_555 1_555
C43_3 C42_3 1_555 1_555
C44_3 C43_3 1_555 1_555
H28_3 C44_3 1_555 1_555
C45_3 C40_3 1_555 1_555
H29_3 C45_3 1_555 1_555
O9_3 C39_3 1_555 1_555
O10_3 C39_3 1_555 1_555
C47_3 H30_3 1_555 1_555
C48_3 C47_3 1_555 1_555
C49_2 C48_3 1_555 1_555
C50_2 C49_2 1_555 1_555
H32_2 C50_2 1_555 1_555
C51_3 C50_2 1_555 1_555
H33_3 C51_3 1_555 1_555
C59_2 C58_2 1_555 1_555
H38_2 C59_2 1_555 1_555
C60_2 C59_2 1_555 1_555
C61_2 C60_2 1_555 1_555
H39_2 C61_2 1_555 1_555
C62_2 C61_2 1_555 1_555
H40_2 C62_2 1_555 1_555
N10_3 C47_3 1_555 1_555
N13_2 C58_2 1_555 1_555
Zn2_2 O9_3 1_555 1_555
H41_2 N12_2 1_555 1_555
H42_2 N11_2 1_555 1_555
N15 Zn2_2 1_555 1_555
O13_2 Zn2_2 1_555 1_555
C43_3 N9_3 1_555 1_555
C44_3 C45_3 1_555 1_555
O10_3 Zn2_2 1_555 1_555
C49_2 N11_2 1_555 1_555
C51_3 N10_3 1_555 1_555
C60_2 N12_2 1_555 1_555
C62_2 N13_2 1_555 1_555
N10_3 Zn2_2 1_555 1_555
C4_3 C3_3 1_555 1_555
H2_3 C4_3 1_555 1_555
C32_3 C33_3 1_555 1_555
C37_3 C36_3 1_555 1_555
H24_3 C37_3 1_555 1_555
C38_3 C33_3 1_555 1_555
H25_3 C38_3 1_555 1_555
O7_3 C32_3 1_555 1_555
O8_2 C32_3 1_555 1_555
Zn5 O8_2 1_555 1_555
C37_3 C38_3 1_555 1_555
C46_2 C53_2 1_555 1_555
C52_2 C57_2 1_555 1_555
C53_2 C54_2 1_555 1_555
C54_2 H34_2 1_555 1_555
C55_2 C54_2 1_555 1_555
H35_2 C55_2 1_555 1_555
C56_2 C55_2 1_555 1_555
H36_2 C56_2 1_555 1_555
C57_2 C56_2 1_555 1_555
N14_2 C53_2 1_555 1_555
O11_2 C46_2 1_555 1_555
O12_2 C52_2 1_555 1_555
C57_2 N14_2 1_555 1_555
O7_4 C32_4 1_555 1_555
O13_2 C32_4 1_555 1_555
C3_4 H1_2 1_555 1_555
C4_4 C3_4 1_555 1_555
H2_4 C4_4 1_555 1_555
C37_4 C36_4 1_555 1_555
H24_4 C37_4 1_555 1_555
C38_4 C33_4 1_555 1_555
H25_4 C38_4 1_555 1_555
C37_4 C38_4 1_555 1_555
C15_2 C22_2 1_555 1_555
C19_2 C18_2 1_555 1_555
H11_2 C19_2 1_555 1_555
C21_2 C26_2 1_555 1_555
C22_2 C23_2 1_555 1_555
C23_2 H13_2 1_555 1_555
C24_2 C23_2 1_555 1_555
H14_2 C24_2 1_555 1_555
C25_2 C24_2 1_555 1_555
H15_2 C25_2 1_555 1_555
C26_2 C25_2 1_555 1_555
C27_2 H16_4 1_555 1_555
C28_2 C27_2 1_555 1_555
H17_2 C28_2 1_555 1_555
C29_2 C28_2 1_555 1_555
C30_2 C29_2 1_555 1_555
H18_2 C30_2 1_555 1_555
C31_2 C30_2 1_555 1_555
H19_2 C31_2 1_555 1_555
N2_2 C15_2 1_555 1_555
N3_2 C21_2 1_555 1_555
N15 C27_2 1_555 1_555
N5_2 C22_2 1_555 1_555
O5_2 C15_2 1_555 1_555
O6_2 C21_2 1_555 1_555
H20_2 N3_2 1_555 1_555
H21_2 N2_2 1_555 1_555
C18_2 N2_2 1_555 1_555
C26_2 N5_2 1_555 1_555
C29_2 N3_2 1_555 1_555
C31_2 N15 1_555 1_555
C39_4 C40_4 1_555 1_555
C40_4 C41_4 1_555 1_555
C41_4 H26_4 1_555 1_555
C42_4 C41_4 1_555 1_555
C43_4 C42_4 1_555 1_555
C44_4 C43_4 1_555 1_555
H28_4 C44_4 1_555 1_555
C45_4 C40_4 1_555 1_555
H29_4 C45_4 1_555 1_555
O9_4 C39_4 1_555 1_555
O10_4 C39_4 1_555 1_555
C47_4 H30_4 1_555 1_555
C48_4 C47_4 1_555 1_555
H31_4 C48_4 1_555 1_555
H33_4 C51_4 1_555 1_555
N10_4 C47_4 1_555 1_555
Zn5 O9_4 1_555 1_555
C43_4 N9_4 1_555 1_555
C44_4 C45_4 1_555 1_555
O10_4 Zn5 1_555 1_555
C51_4 N10_4 1_555 1_555
N10_4 Zn5 1_555 1_555
C8_3 C9_3 1_555 1_555
C9_3 C10_3 1_555 1_555
C10_3 H5_3 1_555 1_555
C11_3 C10_3 1_555 1_555
H6_3 C11_3 1_555 1_555
C12_3 C11_3 1_555 1_555
C13_3 C12_3 1_555 1_555
H7_3 C13_3 1_555 1_555
C14_3 C9_3 1_555 1_555
H8_3 C14_3 1_555 1_555
C16_3 H9_3 1_555 1_555
C17_3 C16_3 1_555 1_555
C18_3 C17_3 1_555 1_555
C19_3 C18_3 1_555 1_555
H11_3 C19_3 1_555 1_555
C20_3 C19_3 1_555 1_555
H12_3 C20_3 1_555 1_555
C28_3 C27_3 1_555 1_555
H17_3 C28_3 1_555 1_555
C29_3 C28_3 1_555 1_555
C30_3 C29_3 1_555 1_555
H18_3 C30_3 1_555 1_555
C31_3 C30_3 1_555 1_555
H19_3 C31_3 1_555 1_555
N1_3 C16_3 1_555 1_555
N4_2 C27_3 1_555 1_555
N7_3 C12_3 1_555 1_555
O1_3 C8_3 1_555 1_555
O2_3 C8_3 1_555 1_555
O3_3 C1_3 1_555 1_555
O4_3 C1_3 1_555 1_555
Zn1_2 N1_3 1_555 1_555
H20_3 N3_3 1_555 1_555
H21_3 N2_3 1_555 1_555
N16 Zn1_2 1_555 1_555
C13_3 C14_3 1_555 1_555
C18_3 N2_3 1_555 1_555
C20_3 N1_3 1_555 1_555
C29_3 N3_3 1_555 1_555
C31_3 N4_2 1_555 1_555
O1_3 Zn1_2 1_555 1_555
O2_3 Zn1_2 1_555 1_555
O4_3 Zn1_2 1_555 1_555
C6_3 C5_3 1_555 1_555
H3_3 C6_3 1_555 1_555
C7_3 C2_3 1_555 1_555
H4_3 C7_3 1_555 1_555
C15_3 C22_3 1_555 1_555
C21_3 C26_3 1_555 1_555
C22_3 C23_3 1_555 1_555
C23_3 H13_3 1_555 1_555
C24_3 C23_3 1_555 1_555
H14_3 C24_3 1_555 1_555
C25_3 C24_3 1_555 1_555
H15_3 C25_3 1_555 1_555
C26_3 C25_3 1_555 1_555
N5_3 C22_3 1_555 1_555
O5_3 C15_3 1_555 1_555
O6_3 C21_3 1_555 1_555
C34_3 H22_3 1_555 1_555
C35_3 C34_3 1_555 1_555
H23_3 C35_3 1_555 1_555
C6_3 C7_3 1_555 1_555
C26_3 N5_3 1_555 1_555
C1_4 C2_4 1_555 1_555
C6_4 C5_4 1_555 1_555
H3_4 C6_4 1_555 1_555
C7_4 C2_4 1_555 1_555
H4_4 C7_4 1_555 1_555
C8_4 C9_4 1_555 1_555
C9_4 C10_4 1_555 1_555
C10_4 H5_4 1_555 1_555
C11_4 C10_4 1_555 1_555
C12_4 C11_4 1_555 1_555
C13_4 C12_4 1_555 1_555
H7_4 C13_4 1_555 1_555
C14_4 C9_4 1_555 1_555
H8_4 C14_4 1_555 1_555
C16_4 H9_4 1_555 1_555
C17_4 C16_4 1_555 1_555
H10_4 C17_4 1_555 1_555
H12_4 C20_4 1_555 1_555
N1_4 C16_4 1_555 1_555
N7_4 C12_4 1_555 1_555
O1_4 C8_4 1_555 1_555
O2_4 C8_4 1_555 1_555
O3_4 C1_4 1_555 1_555
O4_4 C1_4 1_555 1_555
Zn3_2 N1_4 1_555 1_555
C35_4 C34_4 1_555 1_555
H23_4 C35_4 1_555 1_555
C6_4 C7_4 1_555 1_555
C13_4 C14_4 1_555 1_555
C20_4 N1_4 1_555 1_555
O1_4 Zn3_2 1_555 1_555
O2_4 Zn3_2 1_555 1_555
O4_4 Zn3_2 1_555 1_555
C46_3 C53_3 1_555 1_555
C50_3 C49_3 1_555 1_555
H32_3 C50_3 1_555 1_555
C52_3 C57_3 1_555 1_555
C53_3 C54_3 1_555 1_555
C54_3 H34_3 1_555 1_555
C55_3 C54_3 1_555 1_555
H35_3 C55_3 1_555 1_555
C56_3 C55_3 1_555 1_555
H36_3 C56_3 1_555 1_555
C57_3 C56_3 1_555 1_555
C58_3 H37_4 1_555 1_555
C59_3 C58_3 1_555 1_555
H38_3 C59_3 1_555 1_555
C60_3 C59_3 1_555 1_555
C61_3 C60_3 1_555 1_555
H39_3 C61_3 1_555 1_555
C62_3 C61_3 1_555 1_555
H40_3 C62_3 1_555 1_555
N11_3 C46_3 1_555 1_555
N12_3 C52_3 1_555 1_555
N16 C58_3 1_555 1_555
N14_3 C53_3 1_555 1_555
O11_3 C46_3 1_555 1_555
O12_3 C52_3 1_555 1_555
H41_3 N12_3 1_555 1_555
H42_3 N11_3 1_555 1_555
C49_3 N11_3 1_555 1_555
C57_3 N14_3 1_555 1_555
C60_3 N12_3 1_555 1_555
C62_3 N16 1_555 1_555
C46_4 C53_4 1_555 1_555
C50_4 C49_4 1_555 1_555
H32_4 C50_4 1_555 1_555
C52_4 C57_4 1_555 1_555
C53_4 C54_4 1_555 1_555
C54_4 H34_4 1_555 1_555
C55_4 C54_4 1_555 1_555
H35_4 C55_4 1_555 1_555
C56_4 C55_4 1_555 1_555
H36_4 C56_4 1_555 1_555
C57_4 C56_4 1_555 1_555
C59_4 C58_4 1_555 1_555
H38_4 C59_4 1_555 1_555
C60_4 C59_4 1_555 1_555
C61_4 C60_4 1_555 1_555
H39_4 C61_4 1_555 1_555
C62_4 C61_4 1_555 1_555
H40_4 C62_4 1_555 1_555
N11_4 C46_4 1_555 1_555
N12_4 C52_4 1_555 1_555
N16_2 C58_4 1_555 1_555
N14_4 C53_4 1_555 1_555
O11_4 C46_4 1_555 1_555
O12_4 C52_4 1_555 1_555
H41_4 N12_4 1_555 1_555
H42_4 N11_4 1_555 1_555
C49_4 N11_4 1_555 1_555
C57_4 N14_4 1_555 1_555
C60_4 N12_4 1_555 1_555
C62_4 N16_2 1_555 1_555
C15_4 C22_4 1_555 1_555
C19_4 C18_4 1_555 1_555
H11_4 C19_4 1_555 1_555
C21_4 C26_4 1_555 1_555
C22_4 C23_4 1_555 1_555
C23_4 H13_4 1_555 1_555
C24_4 C23_4 1_555 1_555
H14_4 C24_4 1_555 1_555
C25_4 C24_4 1_555 1_555
H15_4 C25_4 1_555 1_555
C26_4 C25_4 1_555 1_555
C28_4 C27_4 1_555 1_555
H17_4 C28_4 1_555 1_555
C29_4 C28_4 1_555 1_555
C30_4 C29_4 1_555 1_555
H18_4 C30_4 1_555 1_555
C31_4 C30_4 1_555 1_555
H19_4 C31_4 1_555 1_555
N2_4 C15_4 1_555 1_555
N3_4 C21_4 1_555 1_555
N15_2 C27_4 1_555 1_555
N5_4 C22_4 1_555 1_555
O5_4 C15_4 1_555 1_555
O6_4 C21_4 1_555 1_555
H20_4 N3_4 1_555 1_555
H21_4 N2_4 1_555 1_555
C18_4 N2_4 1_555 1_555
C26_4 N5_4 1_555 1_555
C29_4 N3_4 1_555 1_555
C31_4 N15_2 1_555 1_555

#END
