
###############################################################################
#
# This file contains modified crystal structure data generated from the
# MOF subset of the Cambridge Structural Database (CSD) v543 
# hosted by the Cambridge Crystallographic Data Centre (CCDC).
#
# This work is licensed under the Creative Commons
# Attribution-NonCommercial-ShareAlike 4.0 International License.
# To view a copy of this license, visit
# http://creativecommons.org/licenses/by-nc-sa/4.0/
# or send a letter to
# Creative Commons, PO Box 1866, Mountain View, CA 94042, USA.
#
# CIF created using the CSD Python API on 29 September 2022
# The structure has been converted into the P1 space group
# The structure has a 3D framework
# The original CSD entry GADMUW is in the monoclinic crystal system
# The framework has been calculated to contain at least 10.0% void space
# The void calculation uses a probe of radius 1.32A, grid spacing 0.4
#
###############################################################################

data_GADMUW
_chemical_formula_moiety         '(C432 H272 N32 O96 Zn24)n'
_symmetry_cell_setting           triclinic
_symmetry_space_group_name_H-M   'P 1'
_symmetry_Int_Tables_number      1
_space_group_name_Hall           'P 1'
loop_
_symmetry_equiv_pos_site_id
_symmetry_equiv_pos_as_xyz
1 x,y,z
_cell_length_a                   47.928(4)
_cell_length_b                   13.828(1)
_cell_length_c                   26.187(2)
_cell_angle_alpha                90
_cell_angle_beta                 114.491(2)
_cell_angle_gamma                90
_cell_volume                     15793.9
loop_
_atom_site_label
_atom_site_type_symbol
_atom_site_fract_x
_atom_site_fract_y
_atom_site_fract_z
H31 H 0.0102 0.2627 0.0069
C51 C 0.00118(9) 0.2555(3) 0.96809(17)
N4 N 0.01870(6) 0.2468(2) 0.94138(11)
C53 C 0.00565(9) 0.2337(3) 0.88597(16)
H33 H 0.0181 0.2261 0.8669
Zn9 Zn 0.06605(2) 0.23682(3) 0.98314(2)
Zn1 Zn 0.64456(2) 0.24638(3) 0.54705(2)
Zn2 Zn 0.72092(2) 0.23642(3) 0.60915(2)
O1 O 0.66663(5) 0.34479(18) 0.51860(10)
O2 O 0.71670(5) 0.31775(19) 0.54563(9)
C1 C 0.69110(8) 0.3541(2) 0.51315(13)
C2 C 0.69057(8) 0.4111(3) 0.46474(13)
C3 C 0.66320(9) 0.4428(3) 0.42319(14)
H1 H 0.6450 0.4324 0.4269
C4 C 0.66267(9) 0.4897(3) 0.37637(16)
H2 H 0.6440 0.5110 0.3493
C5 C 0.68913(8) 0.5060(3) 0.36848(14)
C6 C 0.71695(8) 0.4750(3) 0.41186(14)
H3 H 0.7353 0.4865 0.4087
C7 C 0.71751(8) 0.4286(3) 0.45824(13)
H4 H 0.7362 0.4084 0.4859
C8 C 0.68884(8) 0.5509(3) 0.31694(13)
C9 C 0.66212(12) 0.5649(4) 0.2704(2)
H5 H 0.6438 0.5418 0.2702
C10 C 0.66169(11) 0.6133(5) 0.2231(2)
H6 H 0.6430 0.6303 0.1944
C11 C 0.68778(8) 0.6354(3) 0.21843(13)
C12 C 0.71426(10) 0.6125(5) 0.2625(2)
H7 H 0.7328 0.6259 0.2605
C13 C 0.71462(10) 0.5704(5) 0.3098(2)
H8 H 0.7334 0.5543 0.3385
C14 C 0.68776(8) 0.6812(2) 0.16696(13)
O3 O 0.66234(5) 0.7045(2) 0.12895(9)
O4 O 0.71347(5) 0.6926(2) 0.16551(10)
O5 O 0.68319(5) 0.14635(16) 0.56571(9)
O6 O 0.71912(6) 0.08524(19) 0.64124(13)
C15 C 0.69389(8) 0.0750(3) 0.59949(14)
H9 H 0.6439 0.0157 0.5140
N1 N 0.76762(6) 0.2309(2) 0.64543(11)
C43 C 0.78122(8) 0.1990(3) 0.69872(14)
H25 H 0.7691 0.1781 0.7166
C44 C 0.81238(8) 0.1967(3) 0.72712(15)
H26 H 0.8214 0.1754 0.7641
C45 C 0.83046(8) 0.2262(3) 0.70041(16)
C46 C 0.81627(8) 0.2570(3) 0.64586(16)
H27 H 0.8280 0.2763 0.6268
C47 C 0.78481(8) 0.2596(3) 0.61927(15)
H28 H 0.7754 0.2816 0.5825
C48 C 0.86437(8) 0.2263(3) 0.72981(17)
H29 H 0.8763 0.2352 0.7097
N2 N 0.87701(7) 0.2143(3) 0.78247(16)
N3 N 0.90939(8) 0.2162(3) 0.80306(15)
C49 C 0.92167(9) 0.2363(4) 0.85401(19)
H30 H 0.9096 0.2475 0.8736
C50 C 0.95558(9) 0.2424(4) 0.88342(17)
C52 C 0.96948(9) 0.2545(4) 0.94035(18)
H32 H 0.9576 0.2620 0.9605
C54 C 0.97454(9) 0.2309(4) 0.85632(17)
H34 H 0.9662 0.2213 0.8177
Zn6 Zn 0.64456(2) 0.75362(3) 0.04705(2)
Zn7 Zn 0.72092(2) 0.76358(3) 0.10915(2)
O13 O 0.66234(5) 0.2955(2) 0.62895(9)
O14 O 0.71347(5) 0.3074(2) 0.66551(10)
O15 O 0.60856(5) 0.34733(16) 0.53005(10)
O16 O 0.62092(6) 0.14771(18) 0.57188(10)
O18 O 0.62679(5) 0.18845(19) 0.46728(9)
Zn3 Zn 0.56605(2) 0.26318(3) 0.48314(2)
C16 C 0.67768(8) 0.9818(2) 0.58906(14)
C17 C 0.65183(8) 0.9660(3) 0.53990(15)
C18 C 0.63787(9) 0.8762(3) 0.52944(16)
H10 H 0.6212 0.8658 0.4954
C19 C 0.64801(8) 0.8007(3) 0.56826(16)
C20 C 0.67404(9) 0.8183(3) 0.61817(16)
H11 H 0.6817 0.7696 0.6449
C21 C 0.68844(9) 0.9073(3) 0.62807(16)
H12 H 0.7056 0.9175 0.6614
C22 C 0.63391(9) 0.7035(3) 0.55638(15)
C23 C 0.60275(9) 0.6931(3) 0.52080(18)
H13 H 0.5907 0.7478 0.5063
C24 C 0.58981(9) 0.6026(3) 0.50719(18)
H14 H 0.5692 0.5969 0.4829
C25 C 0.60692(8) 0.5199(3) 0.52895(15)
C26 C 0.63730(9) 0.5299(3) 0.56556(16)
H15 H 0.6489 0.4753 0.5817
C27 C 0.65063(9) 0.6207(3) 0.57845(16)
H16 H 0.6713 0.6260 0.6025
C28 C 0.59298(8) 0.4225(3) 0.51305(15)
O7 O 0.56443(6) 0.41515(19) 0.48266(12)
O9 O 0.57105(6) 0.1817(2) 0.54607(10)
C29 C 0.59645(8) 0.1423(3) 0.57782(13)
C30 C 0.59685(8) 0.0848(3) 0.62667(14)
C31 C 0.57082(9) 0.0767(4) 0.63671(17)
H17 H 0.5525 0.1037 0.6113
C32 C 0.57130(9) 0.0297(4) 0.68352(17)
H18 H 0.5534 0.0252 0.6892
C35 C 0.62336(9) 0.0421(3) 0.66399(16)
H20 H 0.6410 0.0462 0.6577
O17 O 0.57602(6) 0.2148(2) 0.42307(9)
N5 N 0.51870(6) 0.2532(2) 0.44138(11)
C33 C 0.59827(9) 0.9889(3) 0.72235(15)
C34 C 0.62430(9) 0.9933(3) 0.71077(16)
H19 H 0.6423 0.9632 0.7347
C36 C 0.59945(8) 0.9428(3) 0.77432(14)
C37 C 0.57407(9) 0.8951(3) 0.77439(15)
H21 H 0.5563 0.8913 0.7414
C38 C 0.57469(8) 0.8530(3) 0.82290(13)
H22 H 0.5575 0.8204 0.8221
C39 C 0.60110(8) 0.8596(3) 0.87299(13)
C40 C 0.62625(8) 0.9072(3) 0.87289(14)
H23 H 0.6440 0.9111 0.9059
C41 C 0.62550(8) 0.9492(3) 0.82441(14)
H24 H 0.6426 0.9822 0.8254
C42 C 0.60165(8) 0.8152(3) 0.92589(13)
O11 O 0.57602(6) 0.7852(2) 0.92307(9)
O12 O 0.62679(5) 0.81155(19) 0.96728(9)
Zn8 Zn 0.56605(2) 0.73682(3) 0.98314(2)
H2_2 H 0.1440 0.0110 0.3493
C5_2 C 0.18913(8) 0.0060(3) 0.36848(14)
C8_2 C 0.18884(8) 0.0509(3) 0.31694(13)
C9_2 C 0.16212(12) 0.0649(4) 0.2704(2)
H5_2 H 0.1438 0.0418 0.2702
C10_2 C 0.16169(11) 0.1133(5) 0.2231(2)
H6_2 H 0.1430 0.1303 0.1944
C11_2 C 0.18778(8) 0.1354(3) 0.21843(13)
C12_2 C 0.21426(10) 0.1125(5) 0.2625(2)
H7_2 H 0.2328 0.1259 0.2605
C13_2 C 0.21462(10) 0.0704(5) 0.3098(2)
H8_2 H 0.2334 0.0543 0.3385
C14_2 C 0.18776(8) 0.1812(2) 0.16696(13)
O3_2 O 0.16234(5) 0.2045(2) 0.12895(9)
O4_2 O 0.21347(5) 0.1926(2) 0.16551(10)
Zn6_2 Zn 0.14456(2) 0.25362(3) 0.04705(2)
Zn7_2 Zn 0.22092(2) 0.26358(3) 0.10915(2)
Zn1_2 Zn 0.14456(2) 0.74638(3) 0.54705(2)
Zn2_2 Zn 0.22092(2) 0.73642(3) 0.60915(2)
O1_2 O 0.16663(5) 0.84479(18) 0.51860(10)
O2_2 O 0.21670(5) 0.81775(19) 0.54563(9)
C1_2 C 0.19110(8) 0.8541(2) 0.51315(13)
C2_2 C 0.19057(8) 0.9111(3) 0.46474(13)
C3_2 C 0.16320(9) 0.9428(3) 0.42319(14)
H1_2 H 0.1450 0.9324 0.4269
C4_2 C 0.16267(9) 0.9897(3) 0.37637(16)
C6_2 C 0.21695(8) 0.9750(3) 0.41186(14)
H3_2 H 0.2353 0.9865 0.4087
C7_2 C 0.21751(8) 0.9286(3) 0.45824(13)
H4_2 H 0.2362 0.9084 0.4859
O5_2 O 0.18319(5) 0.64635(16) 0.56571(9)
O6_2 O 0.21912(6) 0.58524(19) 0.64124(13)
C15_2 C 0.19389(8) 0.5750(3) 0.59949(14)
C16_2 C 0.17768(8) 0.4818(2) 0.58906(14)
C17_2 C 0.15183(8) 0.4660(3) 0.53990(15)
H9_2 H 0.1439 0.5157 0.5140
C18_2 C 0.13787(9) 0.3762(3) 0.52944(16)
H10_2 H 0.1212 0.3658 0.4954
C19_2 C 0.14801(8) 0.3007(3) 0.56826(16)
C20_2 C 0.17404(9) 0.3183(3) 0.61817(16)
H11_2 H 0.1817 0.2696 0.6449
C21_2 C 0.18844(9) 0.4073(3) 0.62807(16)
H12_2 H 0.2056 0.4175 0.6614
C22_2 C 0.13391(9) 0.2035(3) 0.55638(15)
C23_2 C 0.10275(9) 0.1931(3) 0.52080(18)
H13_2 H 0.0907 0.2478 0.5063
C24_2 C 0.08981(9) 0.1026(3) 0.50719(18)
H14_2 H 0.0692 0.0969 0.4829
C25_2 C 0.10692(8) 0.0199(3) 0.52895(15)
C26_2 C 0.13730(9) 0.0299(3) 0.56556(16)
C27_2 C 0.15063(9) 0.1207(3) 0.57845(16)
H16_2 H 0.1713 0.1260 0.6025
N1_2 N 0.26762(6) 0.7309(2) 0.64543(11)
C43_2 C 0.28122(8) 0.6990(3) 0.69872(14)
H25_2 H 0.2691 0.6781 0.7166
C44_2 C 0.31238(8) 0.6967(3) 0.72712(15)
H26_2 H 0.3214 0.6754 0.7641
C45_2 C 0.33046(8) 0.7262(3) 0.70041(16)
C46_2 C 0.31627(8) 0.7570(3) 0.64586(16)
H27_2 H 0.3280 0.7763 0.6268
C47_2 C 0.28481(8) 0.7596(3) 0.61927(15)
H28_2 H 0.2754 0.7816 0.5825
C48_2 C 0.36437(8) 0.7263(3) 0.72981(17)
H29_2 H 0.3763 0.7352 0.7097
N2_2 N 0.37701(7) 0.7143(3) 0.78247(16)
N3_2 N 0.40939(8) 0.7162(3) 0.80306(15)
C49_2 C 0.42167(9) 0.7363(4) 0.85401(19)
H30_2 H 0.4096 0.7475 0.8736
C50_2 C 0.45558(9) 0.7424(4) 0.88342(17)
C51_2 C 0.50118(9) 0.7555(3) 0.96809(17)
C52_2 C 0.46948(9) 0.7545(4) 0.94035(18)
H32_2 H 0.4576 0.7620 0.9605
N4_2 N 0.51870(6) 0.7468(2) 0.94138(11)
C53_2 C 0.50565(9) 0.7337(3) 0.88597(16)
H33_2 H 0.5181 0.7261 0.8669
C54_2 C 0.47454(9) 0.7309(4) 0.85632(17)
H34_2 H 0.4662 0.7213 0.8177
O13_2 O 0.16234(5) 0.7955(2) 0.62895(9)
O14_2 O 0.21347(5) 0.8074(2) 0.66551(10)
O15_2 O 0.10856(5) 0.84733(16) 0.53005(10)
O16_2 O 0.12092(6) 0.64771(18) 0.57188(10)
O18_2 O 0.12679(5) 0.68845(19) 0.46728(9)
Zn3_2 Zn 0.06605(2) 0.76318(3) 0.48314(2)
H15_2 H 0.1489 0.9753 0.5817
C28_2 C 0.09298(8) 0.9225(3) 0.51305(15)
O7_2 O 0.06443(6) 0.91515(19) 0.48266(12)
O9_2 O 0.07105(6) 0.6817(2) 0.54607(10)
C29_2 C 0.09645(8) 0.6423(3) 0.57782(13)
C30_2 C 0.09685(8) 0.5848(3) 0.62667(14)
C31_2 C 0.07082(9) 0.5767(4) 0.63671(17)
H17_2 H 0.0525 0.6037 0.6113
C32_2 C 0.07130(9) 0.5297(4) 0.68352(17)
H18_2 H 0.0534 0.5252 0.6892
C33_2 C 0.09827(9) 0.4889(3) 0.72235(15)
C34_2 C 0.12430(9) 0.4933(3) 0.71077(16)
H19_2 H 0.1423 0.4632 0.7347
C35_2 C 0.12336(9) 0.5421(3) 0.66399(16)
H20_2 H 0.1410 0.5462 0.6577
C36_2 C 0.09945(8) 0.4428(3) 0.77432(14)
C37_2 C 0.07407(9) 0.3951(3) 0.77439(15)
H21_2 H 0.0563 0.3913 0.7414
C38_2 C 0.07469(8) 0.3530(3) 0.82290(13)
H22_2 H 0.0575 0.3204 0.8221
C39_2 C 0.10110(8) 0.3596(3) 0.87299(13)
C40_2 C 0.12625(8) 0.4072(3) 0.87289(14)
H23_2 H 0.1440 0.4111 0.9059
C41_2 C 0.12550(8) 0.4492(3) 0.82441(14)
H24_2 H 0.1426 0.4822 0.8254
C42_2 C 0.10165(8) 0.3152(3) 0.92589(13)
O11_2 O 0.07602(6) 0.2852(2) 0.92307(9)
O12_2 O 0.12679(5) 0.31155(19) 0.96728(9)
O17_2 O 0.07602(6) 0.7148(2) 0.42307(9)
N5_2 N 0.01870(6) 0.7532(2) 0.44138(11)
C51_3 C 0.00118(9) 0.7445(3) 0.46809(17)
H31_2 H 0.0102 0.7373 0.5069
C53_3 C 0.00565(9) 0.7663(3) 0.38597(16)
H33_3 H 0.0181 0.7739 0.3669
C33_3 C 0.59827(9) 0.0111(3) 0.22235(15)
C34_3 C 0.62430(9) 0.0067(3) 0.21077(16)
H19_3 H 0.6423 0.0368 0.2347
C36_3 C 0.59945(8) 0.0572(3) 0.27432(14)
C37_3 C 0.57407(9) 0.1049(3) 0.27439(15)
H21_3 H 0.5563 0.1087 0.2414
C38_3 C 0.57469(8) 0.1470(3) 0.32290(13)
H22_3 H 0.5575 0.1796 0.3221
C39_3 C 0.60110(8) 0.1404(3) 0.37299(13)
C40_3 C 0.62625(8) 0.0928(3) 0.37289(14)
H23_3 H 0.6440 0.0889 0.4059
C41_3 C 0.62550(8) 0.0508(3) 0.32441(14)
H24_3 H 0.6426 0.0178 0.3254
C42_3 C 0.60165(8) 0.1848(3) 0.42589(13)
C16_3 C 0.67768(8) 0.0182(2) 0.08906(14)
C17_3 C 0.65183(8) 0.0340(3) 0.03990(15)
C18_3 C 0.63787(9) 0.1238(3) 0.02944(16)
C19_3 C 0.64801(8) 0.1993(3) 0.06826(16)
C20_3 C 0.67404(9) 0.1817(3) 0.11817(16)
H11_3 H 0.6817 0.2304 0.1449
C21_3 C 0.68844(9) 0.0927(3) 0.12807(16)
H12_3 H 0.7056 0.0825 0.1614
C22_3 C 0.63391(9) 0.2965(3) 0.05638(15)
C23_3 C 0.60275(9) 0.3069(3) 0.02080(18)
H13_3 H 0.5907 0.2522 0.0063
C24_3 C 0.58981(9) 0.3974(3) 0.00719(18)
C25_3 C 0.60692(8) 0.4801(3) 0.02895(15)
C26_3 C 0.63730(9) 0.4701(3) 0.06556(16)
H15_3 H 0.6489 0.5247 0.0817
C27_3 C 0.65063(9) 0.3793(3) 0.07845(16)
H16_3 H 0.6713 0.3740 0.1025
C28_3 C 0.59298(8) 0.5775(3) 0.01305(15)
O8 O 0.60856(5) 0.65267(16) 0.03005(10)
O9_3 O 0.57105(6) 0.8183(2) 0.04607(10)
O10 O 0.62092(6) 0.85229(18) 0.07188(10)
C29_3 C 0.59645(8) 0.8577(3) 0.07782(13)
C30_3 C 0.59685(8) 0.9152(3) 0.12667(14)
C31_3 C 0.57082(9) 0.9233(4) 0.13671(17)
H17_3 H 0.5525 0.8963 0.1113
C32_3 C 0.57130(9) 0.9703(4) 0.18352(17)
H18_3 H 0.5534 0.9748 0.1892
C35_3 C 0.62336(9) 0.9579(3) 0.16399(16)
H20_3 H 0.6410 0.9538 0.1577
H10_3 H 0.6212 0.1342 0.9954
H14_3 H 0.5692 0.4031 0.9829
O7_3 O 0.56443(6) 0.58485(19) 0.98266(12)
O1_3 O 0.66663(5) 0.65521(18) 0.01860(10)
O2_3 O 0.71670(5) 0.68225(19) 0.04563(9)
C1_3 C 0.69110(8) 0.6459(2) 0.01315(13)
O5_3 O 0.68319(5) 0.85365(16) 0.06571(9)
O6_3 O 0.71912(6) 0.91476(19) 0.14124(13)
C15_3 C 0.69389(8) 0.9250(3) 0.09949(14)
H9_3 H 0.6439 0.9843 0.0140
N1_3 N 0.76762(6) 0.7691(2) 0.14543(11)
C43_3 C 0.78122(8) 0.8010(3) 0.19872(14)
H25_3 H 0.7691 0.8219 0.2166
C44_3 C 0.81238(8) 0.8033(3) 0.22712(15)
H26_3 H 0.8214 0.8246 0.2641
C45_3 C 0.83046(8) 0.7738(3) 0.20041(16)
C46_3 C 0.81627(8) 0.7430(3) 0.14586(16)
H27_3 H 0.8280 0.7237 0.1268
C47_3 C 0.78481(8) 0.7404(3) 0.11927(15)
H28_3 H 0.7754 0.7184 0.0825
C48_3 C 0.86437(8) 0.7737(3) 0.22981(17)
H29_3 H 0.8763 0.7648 0.2097
N2_3 N 0.87701(7) 0.7857(3) 0.28247(16)
N3_3 N 0.90939(8) 0.7838(3) 0.30306(15)
C49_3 C 0.92167(9) 0.7637(4) 0.35401(19)
H30_3 H 0.9096 0.7525 0.3736
C50_3 C 0.95558(9) 0.7576(4) 0.38342(17)
C52_3 C 0.96948(9) 0.7455(4) 0.44035(18)
H32_3 H 0.9576 0.7380 0.4605
C54_3 C 0.97454(9) 0.7691(4) 0.35632(17)
H34_3 H 0.9662 0.7787 0.3177
C2_3 C 0.69057(8) 0.5889(3) 0.96474(13)
C3_3 C 0.66320(9) 0.5572(3) 0.92319(14)
H1_3 H 0.6450 0.5676 0.9269
C4_3 C 0.66267(9) 0.5103(3) 0.87637(16)
H2_3 H 0.6440 0.4890 0.8493
C5_3 C 0.68913(8) 0.4940(3) 0.86848(14)
C6_3 C 0.71695(8) 0.5250(3) 0.91186(14)
H3_3 H 0.7353 0.5135 0.9087
C7_3 C 0.71751(8) 0.5714(3) 0.95824(13)
H4_3 H 0.7362 0.5916 0.9859
C8_3 C 0.68884(8) 0.4491(3) 0.81694(13)
C9_3 C 0.66212(12) 0.4351(4) 0.7704(2)
H5_3 H 0.6438 0.4582 0.7702
C10_3 C 0.66169(11) 0.3867(5) 0.7231(2)
H6_3 H 0.6430 0.3697 0.6944
C11_3 C 0.68778(8) 0.3646(3) 0.71843(13)
C12_3 C 0.71426(10) 0.3875(5) 0.7625(2)
H7_3 H 0.7328 0.3741 0.7605
C13_3 C 0.71462(10) 0.4296(5) 0.8098(2)
H8_3 H 0.7334 0.4457 0.8385
C14_3 C 0.68776(8) 0.3188(2) 0.66696(13)
H15_4 H 0.1489 0.0247 0.0817
C28_4 C 0.09298(8) 0.0775(3) 0.01305(15)
O8_2 O 0.10856(5) 0.15267(16) 0.03005(10)
O9_4 O 0.07105(6) 0.3183(2) 0.04607(10)
O10_2 O 0.12092(6) 0.35229(18) 0.07188(10)
C29_4 C 0.09645(8) 0.3577(3) 0.07782(13)
C30_4 C 0.09685(8) 0.4152(3) 0.12667(14)
C31_4 C 0.07082(9) 0.4233(4) 0.13671(17)
H17_4 H 0.0525 0.3963 0.1113
C32_4 C 0.07130(9) 0.4703(4) 0.18352(17)
H18_4 H 0.0534 0.4748 0.1892
C33_4 C 0.09827(9) 0.5111(3) 0.22235(15)
C34_4 C 0.12430(9) 0.5067(3) 0.21077(16)
H19_4 H 0.1423 0.5368 0.2347
C35_4 C 0.12336(9) 0.4579(3) 0.16399(16)
H20_4 H 0.1410 0.4538 0.1577
C36_4 C 0.09945(8) 0.5572(3) 0.27432(14)
C37_4 C 0.07407(9) 0.6049(3) 0.27439(15)
H21_4 H 0.0563 0.6087 0.2414
C38_4 C 0.07469(8) 0.6470(3) 0.32290(13)
H22_4 H 0.0575 0.6796 0.3221
C39_4 C 0.10110(8) 0.6404(3) 0.37299(13)
C40_4 C 0.12625(8) 0.5928(3) 0.37289(14)
H23_4 H 0.1440 0.5889 0.4059
C41_4 C 0.12550(8) 0.5508(3) 0.32441(14)
H24_4 H 0.1426 0.5178 0.3254
C42_4 C 0.10165(8) 0.6848(3) 0.42589(13)
O7_4 O 0.06443(6) 0.08485(19) 0.98266(12)
O1_4 O 0.16663(5) 0.15521(18) 0.01860(10)
O2_4 O 0.21670(5) 0.18225(19) 0.04563(9)
C1_4 C 0.19110(8) 0.1459(2) 0.01315(13)
O5_4 O 0.18319(5) 0.35365(16) 0.06571(9)
O6_4 O 0.21912(6) 0.41476(19) 0.14124(13)
C15_4 C 0.19389(8) 0.4250(3) 0.09949(14)
C16_4 C 0.17768(8) 0.5182(2) 0.08906(14)
C17_4 C 0.15183(8) 0.5340(3) 0.03990(15)
H9_4 H 0.1439 0.4843 0.0140
C18_4 C 0.13787(9) 0.6238(3) 0.02944(16)
C19_4 C 0.14801(8) 0.6993(3) 0.06826(16)
C20_4 C 0.17404(9) 0.6817(3) 0.11817(16)
H11_4 H 0.1817 0.7304 0.1449
C21_4 C 0.18844(9) 0.5927(3) 0.12807(16)
H12_4 H 0.2056 0.5825 0.1614
C22_4 C 0.13391(9) 0.7965(3) 0.05638(15)
C23_4 C 0.10275(9) 0.8069(3) 0.02080(18)
H13_4 H 0.0907 0.7522 0.0063
C24_4 C 0.08981(9) 0.8974(3) 0.00719(18)
C25_4 C 0.10692(8) 0.9801(3) 0.02895(15)
C26_4 C 0.13730(9) 0.9701(3) 0.06556(16)
C27_4 C 0.15063(9) 0.8793(3) 0.07845(16)
H16_4 H 0.1713 0.8740 0.1025
N1_4 N 0.26762(6) 0.2691(2) 0.14543(11)
C43_4 C 0.28122(8) 0.3010(3) 0.19872(14)
H25_4 H 0.2691 0.3219 0.2166
C44_4 C 0.31238(8) 0.3033(3) 0.22712(15)
H26_4 H 0.3214 0.3246 0.2641
C45_4 C 0.33046(8) 0.2738(3) 0.20041(16)
C46_4 C 0.31627(8) 0.2430(3) 0.14586(16)
H27_4 H 0.3280 0.2237 0.1268
C47_4 C 0.28481(8) 0.2404(3) 0.11927(15)
H28_4 H 0.2754 0.2184 0.0825
C48_4 C 0.36437(8) 0.2737(3) 0.22981(17)
H29_4 H 0.3763 0.2648 0.2097
N2_4 N 0.37701(7) 0.2857(3) 0.28247(16)
N3_4 N 0.40939(8) 0.2838(3) 0.30306(15)
C49_4 C 0.42167(9) 0.2637(4) 0.35401(19)
H30_4 H 0.4096 0.2525 0.3736
C50_4 C 0.45558(9) 0.2576(4) 0.38342(17)
C51_4 C 0.50118(9) 0.2445(3) 0.46809(17)
H31_3 H 0.5102 0.2373 0.5069
C52_4 C 0.46948(9) 0.2455(4) 0.44035(18)
H32_4 H 0.4576 0.2380 0.4605
C53_4 C 0.50565(9) 0.2663(3) 0.38597(16)
H33_4 H 0.5181 0.2739 0.3669
C54_4 C 0.47454(9) 0.2691(4) 0.35632(17)
H34_4 H 0.4662 0.2787 0.3177
C2_4 C 0.19057(8) 0.0889(3) 0.96474(13)
C3_4 C 0.16320(9) 0.0572(3) 0.92319(14)
H1_4 H 0.1450 0.0676 0.9269
C4_4 C 0.16267(9) 0.0103(3) 0.87637(16)
C6_4 C 0.21695(8) 0.0250(3) 0.91186(14)
H3_4 H 0.2353 0.0135 0.9087
C7_4 C 0.21751(8) 0.0714(3) 0.95824(13)
H4_4 H 0.2362 0.0916 0.9859
H10_4 H 0.1212 0.6342 0.9954
H14_4 H 0.0692 0.9031 0.9829
H2_4 H 0.1440 0.9890 0.8493
C5_4 C 0.18913(8) 0.9940(3) 0.86848(14)
C8_4 C 0.18884(8) 0.9491(3) 0.81694(13)
C9_4 C 0.16212(12) 0.9351(4) 0.7704(2)
H5_4 H 0.1438 0.9582 0.7702
C10_4 C 0.16169(11) 0.8867(5) 0.7231(2)
H6_4 H 0.1430 0.8697 0.6944
C11_4 C 0.18778(8) 0.8646(3) 0.71843(13)
C12_4 C 0.21426(10) 0.8875(5) 0.7625(2)
H7_4 H 0.2328 0.8741 0.7605
C13_4 C 0.21462(10) 0.9296(5) 0.8098(2)
H8_4 H 0.2334 0.9457 0.8385
C14_4 C 0.18776(8) 0.8188(2) 0.66696(13)
C2_5 C 0.30943(8) 0.4111(3) 0.03526(13)
C3_5 C 0.33680(9) 0.4428(3) 0.07681(14)
H1_5 H 0.3550 0.4324 0.0731
C4_5 C 0.33733(9) 0.4897(3) 0.12363(16)
H2_5 H 0.3560 0.5110 0.1507
C5_5 C 0.31087(8) 0.5060(3) 0.13152(14)
C6_5 C 0.28305(8) 0.4750(3) 0.08814(14)
H3_5 H 0.2647 0.4865 0.0913
C7_5 C 0.28249(8) 0.4286(3) 0.04176(13)
H4_5 H 0.2638 0.4084 0.0141
C8_5 C 0.31116(8) 0.5509(3) 0.18306(13)
C9_5 C 0.33788(12) 0.5649(4) 0.2296(2)
H5_5 H 0.3562 0.5418 0.2298
C10_5 C 0.33831(11) 0.6133(5) 0.2769(2)
H6_5 H 0.3570 0.6303 0.3056
C11_5 C 0.31222(8) 0.6354(3) 0.28157(13)
C12_5 C 0.28574(10) 0.6125(5) 0.2375(2)
H7_5 H 0.2672 0.6259 0.2395
C13_5 C 0.28538(10) 0.5704(5) 0.1902(2)
H8_5 H 0.2666 0.5543 0.1615
C14_5 C 0.31224(8) 0.6812(2) 0.33304(13)
O3_3 O 0.33766(5) 0.7045(2) 0.37105(9)
O4_3 O 0.28653(5) 0.6926(2) 0.33449(10)
Zn6_3 Zn 0.35544(2) 0.75362(3) 0.45295(2)
Zn7_3 Zn 0.27908(2) 0.76358(3) 0.39085(2)
O18_3 O 0.37321(5) 0.18845(19) 0.03272(9)
Zn1_3 Zn 0.35544(2) 0.24638(3) 0.95295(2)
Zn2_3 Zn 0.27908(2) 0.23642(3) 0.89085(2)
O1_5 O 0.33337(5) 0.34479(18) 0.98140(10)
O2_5 O 0.28330(5) 0.31775(19) 0.95437(9)
C1_5 C 0.30890(8) 0.3541(2) 0.98685(13)
O5_5 O 0.31681(5) 0.14635(16) 0.93429(9)
O6_5 O 0.28088(6) 0.08524(19) 0.85876(13)
C15_5 C 0.30611(8) 0.0750(3) 0.90051(14)
H9_5 H 0.3561 0.0157 0.9860
N1_5 N 0.23238(6) 0.2309(2) 0.85457(11)
C43_5 C 0.21878(8) 0.1990(3) 0.80128(14)
H25_5 H 0.2309 0.1781 0.7834
C44_5 C 0.18762(8) 0.1967(3) 0.77288(15)
H26_5 H 0.1786 0.1754 0.7359
C45_5 C 0.16954(8) 0.2262(3) 0.79959(16)
C46_5 C 0.18373(8) 0.2570(3) 0.85414(16)
H27_5 H 0.1720 0.2763 0.8732
C47_5 C 0.21519(8) 0.2596(3) 0.88073(15)
H28_5 H 0.2246 0.2816 0.9175
C48_5 C 0.13563(8) 0.2263(3) 0.77019(17)
H29_5 H 0.1237 0.2352 0.7903
N2_5 N 0.12299(7) 0.2143(3) 0.71753(16)
N3_5 N 0.09061(8) 0.2162(3) 0.69694(15)
C49_5 C 0.07833(9) 0.2363(4) 0.64599(19)
H30_5 H 0.0904 0.2475 0.6264
C50_5 C 0.04442(9) 0.2424(4) 0.61658(17)
C52_5 C 0.03052(9) 0.2545(4) 0.55965(18)
H32_5 H 0.0424 0.2620 0.5395
C54_5 C 0.02546(9) 0.2309(4) 0.64368(17)
H34_5 H 0.0338 0.2213 0.6823
O13_3 O 0.33766(5) 0.2955(2) 0.87105(9)
O14_3 O 0.28653(5) 0.3074(2) 0.83449(10)
O15_3 O 0.39144(5) 0.34733(16) 0.96995(10)
O16_3 O 0.37908(6) 0.14771(18) 0.92812(10)
Zn3_3 Zn 0.43395(2) 0.26318(3) 0.01686(2)
H10_5 H 0.3788 0.8658 0.0046
H14_5 H 0.4308 0.5969 0.0171
O7_5 O 0.43557(6) 0.41515(19) 0.01734(12)
O17_3 O 0.42398(6) 0.2148(2) 0.07693(9)
N5_3 N 0.48130(6) 0.2532(2) 0.05862(11)
C16_5 C 0.32232(8) 0.9818(2) 0.91094(14)
C17_5 C 0.34817(8) 0.9660(3) 0.96010(15)
C18_5 C 0.36213(9) 0.8762(3) 0.97056(16)
C19_5 C 0.35199(8) 0.8007(3) 0.93174(16)
C20_5 C 0.32596(9) 0.8183(3) 0.88183(16)
H11_5 H 0.3183 0.7696 0.8551
C21_5 C 0.31156(9) 0.9073(3) 0.87193(16)
H12_5 H 0.2944 0.9175 0.8386
C22_5 C 0.36609(9) 0.7035(3) 0.94362(15)
C23_5 C 0.39725(9) 0.6931(3) 0.97920(18)
H13_5 H 0.4093 0.7478 0.9937
C24_5 C 0.41019(9) 0.6026(3) 0.99281(18)
C25_5 C 0.39308(8) 0.5199(3) 0.97105(15)
C26_5 C 0.36270(9) 0.5299(3) 0.93444(16)
H15_5 H 0.3511 0.4753 0.9183
C27_5 C 0.34937(9) 0.6207(3) 0.92155(16)
H16_5 H 0.3287 0.6260 0.8975
C28_5 C 0.40702(8) 0.4225(3) 0.98695(15)
O9_5 O 0.42895(6) 0.1817(2) 0.95393(10)
C29_5 C 0.40355(8) 0.1423(3) 0.92218(13)
C30_5 C 0.40315(8) 0.0848(3) 0.87333(14)
C31_5 C 0.42918(9) 0.0767(4) 0.86329(17)
H17_5 H 0.4475 0.1037 0.8887
C32_5 C 0.42870(9) 0.0297(4) 0.81648(17)
H18_5 H 0.4466 0.0252 0.8108
C35_5 C 0.37664(9) 0.0421(3) 0.83601(16)
H20_5 H 0.3590 0.0462 0.8423
C33_5 C 0.40173(9) 0.9889(3) 0.77765(15)
C34_5 C 0.37570(9) 0.9933(3) 0.78923(16)
H19_5 H 0.3577 0.9632 0.7653
C36_5 C 0.40055(8) 0.9428(3) 0.72568(14)
C37_5 C 0.42593(9) 0.8951(3) 0.72561(15)
H21_5 H 0.4437 0.8913 0.7586
C38_5 C 0.42531(8) 0.8530(3) 0.67710(13)
H22_5 H 0.4425 0.8204 0.6779
C39_5 C 0.39890(8) 0.8596(3) 0.62701(13)
C40_5 C 0.37375(8) 0.9072(3) 0.62711(14)
H23_5 H 0.3560 0.9111 0.5941
C41_5 C 0.37450(8) 0.9492(3) 0.67559(14)
H24_5 H 0.3574 0.9822 0.6746
C42_5 C 0.39835(8) 0.8152(3) 0.57411(13)
O11_3 O 0.42398(6) 0.7852(2) 0.57693(9)
O12_3 O 0.37321(5) 0.81155(19) 0.53272(9)
Zn8_2 Zn 0.43395(2) 0.73682(3) 0.51686(2)
C51_5 C 0.99882(9) 0.2555(3) 0.53191(17)
H31_4 H 0.9898 0.2627 0.4931
N4_3 N 0.98130(6) 0.2468(2) 0.55862(11)
C53_5 C 0.99435(9) 0.2337(3) 0.61403(16)
H33_5 H 0.9819 0.2261 0.6331
Zn9_2 Zn 0.93395(2) 0.23682(3) 0.51686(2)
H2_6 H 0.8560 0.0110 0.1507
C5_6 C 0.81087(8) 0.0060(3) 0.13152(14)
C8_6 C 0.81116(8) 0.0509(3) 0.18306(13)
C9_6 C 0.83788(12) 0.0649(4) 0.2296(2)
H5_6 H 0.8562 0.0418 0.2298
C10_6 C 0.83831(11) 0.1133(5) 0.2769(2)
H6_6 H 0.8570 0.1303 0.3056
C11_6 C 0.81222(8) 0.1354(3) 0.28157(13)
C12_6 C 0.78574(10) 0.1125(5) 0.2375(2)
H7_6 H 0.7672 0.1259 0.2395
C13_6 C 0.78538(10) 0.0704(5) 0.1902(2)
H8_6 H 0.7666 0.0543 0.1615
C14_6 C 0.81224(8) 0.1812(2) 0.33304(13)
O3_4 O 0.83766(5) 0.2045(2) 0.37105(9)
O4_4 O 0.78653(5) 0.1926(2) 0.33449(10)
Zn6_4 Zn 0.85544(2) 0.25362(3) 0.45295(2)
Zn7_4 Zn 0.77908(2) 0.26358(3) 0.39085(2)
C2_6 C 0.80943(8) 0.9111(3) 0.03526(13)
C3_6 C 0.83680(9) 0.9428(3) 0.07681(14)
H1_6 H 0.8550 0.9324 0.0731
C4_6 C 0.83733(9) 0.9897(3) 0.12363(16)
C6_6 C 0.78305(8) 0.9750(3) 0.08814(14)
H3_6 H 0.7647 0.9865 0.0913
C7_6 C 0.78249(8) 0.9286(3) 0.04176(13)
H4_6 H 0.7638 0.9084 0.0141
H10_6 H 0.8788 0.3658 0.0046
H14_6 H 0.9308 0.0969 0.0171
O18_4 O 0.87321(5) 0.68845(19) 0.03272(9)
Zn1_4 Zn 0.85544(2) 0.74638(3) 0.95295(2)
Zn2_4 Zn 0.77908(2) 0.73642(3) 0.89085(2)
O1_6 O 0.83337(5) 0.84479(18) 0.98140(10)
O2_6 O 0.78330(5) 0.81775(19) 0.95437(9)
C1_6 C 0.80890(8) 0.8541(2) 0.98685(13)
O5_6 O 0.81681(5) 0.64635(16) 0.93429(9)
O6_6 O 0.78088(6) 0.58524(19) 0.85876(13)
C15_6 C 0.80611(8) 0.5750(3) 0.90051(14)
C16_6 C 0.82232(8) 0.4818(2) 0.91094(14)
C17_6 C 0.84817(8) 0.4660(3) 0.96010(15)
H9_6 H 0.8561 0.5157 0.9860
C18_6 C 0.86213(9) 0.3762(3) 0.97056(16)
C19_6 C 0.85199(8) 0.3007(3) 0.93174(16)
C20_6 C 0.82596(9) 0.3183(3) 0.88183(16)
H11_6 H 0.8183 0.2696 0.8551
C21_6 C 0.81156(9) 0.4073(3) 0.87193(16)
H12_6 H 0.7944 0.4175 0.8386
C22_6 C 0.86609(9) 0.2035(3) 0.94362(15)
C23_6 C 0.89725(9) 0.1931(3) 0.97920(18)
H13_6 H 0.9093 0.2478 0.9937
C24_6 C 0.91019(9) 0.1026(3) 0.99281(18)
C25_6 C 0.89308(8) 0.0199(3) 0.97105(15)
C26_6 C 0.86270(9) 0.0299(3) 0.93444(16)
C27_6 C 0.84937(9) 0.1207(3) 0.92155(16)
H16_6 H 0.8287 0.1260 0.8975
N1_6 N 0.73238(6) 0.7309(2) 0.85457(11)
C43_6 C 0.71878(8) 0.6990(3) 0.80128(14)
H25_6 H 0.7309 0.6781 0.7834
C44_6 C 0.68762(8) 0.6967(3) 0.77288(15)
H26_6 H 0.6786 0.6754 0.7359
C45_6 C 0.66954(8) 0.7262(3) 0.79959(16)
C46_6 C 0.68373(8) 0.7570(3) 0.85414(16)
H27_6 H 0.6720 0.7763 0.8732
C47_6 C 0.71519(8) 0.7596(3) 0.88073(15)
H28_6 H 0.7246 0.7816 0.9175
C48_6 C 0.63563(8) 0.7263(3) 0.77019(17)
H29_6 H 0.6237 0.7352 0.7903
N2_6 N 0.62299(7) 0.7143(3) 0.71753(16)
N3_6 N 0.59061(8) 0.7162(3) 0.69694(15)
C49_6 C 0.57833(9) 0.7363(4) 0.64599(19)
H30_6 H 0.5904 0.7475 0.6264
C50_6 C 0.54442(9) 0.7424(4) 0.61658(17)
C51_6 C 0.49882(9) 0.7555(3) 0.53191(17)
H31_5 H 0.4898 0.7627 0.4931
C52_6 C 0.53052(9) 0.7545(4) 0.55965(18)
H32_6 H 0.5424 0.7620 0.5395
N4_4 N 0.48130(6) 0.7468(2) 0.55862(11)
C53_6 C 0.49435(9) 0.7337(3) 0.61403(16)
H33_6 H 0.4819 0.7261 0.6331
C54_6 C 0.52546(9) 0.7309(4) 0.64368(17)
H34_6 H 0.5338 0.7213 0.6823
O13_4 O 0.83766(5) 0.7955(2) 0.87105(9)
O14_4 O 0.78653(5) 0.8074(2) 0.83449(10)
O15_4 O 0.89144(5) 0.84733(16) 0.96995(10)
O16_4 O 0.87908(6) 0.64771(18) 0.92812(10)
Zn3_4 Zn 0.93395(2) 0.76318(3) 0.01686(2)
O7_6 O 0.93557(6) 0.91515(19) 0.01734(12)
O17_4 O 0.92398(6) 0.7148(2) 0.07693(9)
N5_4 N 0.98130(6) 0.7532(2) 0.05862(11)
H15_6 H 0.8511 0.9753 0.9183
C28_6 C 0.90702(8) 0.9225(3) 0.98695(15)
O9_6 O 0.92895(6) 0.6817(2) 0.95393(10)
C29_6 C 0.90355(8) 0.6423(3) 0.92218(13)
C30_6 C 0.90315(8) 0.5848(3) 0.87333(14)
C31_6 C 0.92918(9) 0.5767(4) 0.86329(17)
H17_6 H 0.9475 0.6037 0.8887
C32_6 C 0.92870(9) 0.5297(4) 0.81648(17)
H18_6 H 0.9466 0.5252 0.8108
C33_6 C 0.90173(9) 0.4889(3) 0.77765(15)
C34_6 C 0.87570(9) 0.4933(3) 0.78923(16)
H19_6 H 0.8577 0.4632 0.7653
C35_6 C 0.87664(9) 0.5421(3) 0.83601(16)
H20_6 H 0.8590 0.5462 0.8423
C36_6 C 0.90055(8) 0.4428(3) 0.72568(14)
C37_6 C 0.92593(9) 0.3951(3) 0.72561(15)
H21_6 H 0.9437 0.3913 0.7586
C38_6 C 0.92531(8) 0.3530(3) 0.67710(13)
H22_6 H 0.9425 0.3204 0.6779
C39_6 C 0.89890(8) 0.3596(3) 0.62701(13)
C40_6 C 0.87375(8) 0.4072(3) 0.62711(14)
H23_6 H 0.8560 0.4111 0.5941
C41_6 C 0.87450(8) 0.4492(3) 0.67559(14)
H24_6 H 0.8574 0.4822 0.6746
C42_6 C 0.89835(8) 0.3152(3) 0.57411(13)
O11_4 O 0.92398(6) 0.2852(2) 0.57693(9)
O12_4 O 0.87321(5) 0.31155(19) 0.53272(9)
C33_7 C 0.40173(9) 0.0111(3) 0.27765(15)
C34_7 C 0.37570(9) 0.0067(3) 0.28923(16)
H19_7 H 0.3577 0.0368 0.2653
C36_7 C 0.40055(8) 0.0572(3) 0.22568(14)
C37_7 C 0.42593(9) 0.1049(3) 0.22561(15)
H21_7 H 0.4437 0.1087 0.2586
C38_7 C 0.42531(8) 0.1470(3) 0.17710(13)
H22_7 H 0.4425 0.1796 0.1779
C39_7 C 0.39890(8) 0.1404(3) 0.12701(13)
C40_7 C 0.37375(8) 0.0928(3) 0.12711(14)
H23_7 H 0.3560 0.0889 0.0941
C41_7 C 0.37450(8) 0.0508(3) 0.17559(14)
H24_7 H 0.3574 0.0178 0.1746
C42_7 C 0.39835(8) 0.1848(3) 0.07411(13)
C16_7 C 0.32232(8) 0.0182(2) 0.41094(14)
C17_7 C 0.34817(8) 0.0340(3) 0.46010(15)
C18_7 C 0.36213(9) 0.1238(3) 0.47056(16)
H10_7 H 0.3788 0.1342 0.5046
C19_7 C 0.35199(8) 0.1993(3) 0.43174(16)
C20_7 C 0.32596(9) 0.1817(3) 0.38183(16)
H11_7 H 0.3183 0.2304 0.3551
C21_7 C 0.31156(9) 0.0927(3) 0.37193(16)
H12_7 H 0.2944 0.0825 0.3386
C22_7 C 0.36609(9) 0.2965(3) 0.44362(15)
C23_7 C 0.39725(9) 0.3069(3) 0.47920(18)
H13_7 H 0.4093 0.2522 0.4937
C24_7 C 0.41019(9) 0.3974(3) 0.49281(18)
H14_7 H 0.4308 0.4031 0.5171
C25_7 C 0.39308(8) 0.4801(3) 0.47105(15)
C26_7 C 0.36270(9) 0.4701(3) 0.43444(16)
H15_7 H 0.3511 0.5247 0.4183
C27_7 C 0.34937(9) 0.3793(3) 0.42155(16)
H16_7 H 0.3287 0.3740 0.3975
C28_7 C 0.40702(8) 0.5775(3) 0.48695(15)
O7_7 O 0.43557(6) 0.58485(19) 0.51734(12)
O8_3 O 0.39144(5) 0.65267(16) 0.46995(10)
O9_7 O 0.42895(6) 0.8183(2) 0.45393(10)
O10_3 O 0.37908(6) 0.85229(18) 0.42812(10)
C29_7 C 0.40355(8) 0.8577(3) 0.42218(13)
C30_7 C 0.40315(8) 0.9152(3) 0.37333(14)
C31_7 C 0.42918(9) 0.9233(4) 0.36329(17)
H17_7 H 0.4475 0.8963 0.3887
C32_7 C 0.42870(9) 0.9703(4) 0.31648(17)
H18_7 H 0.4466 0.9748 0.3108
C35_7 C 0.37664(9) 0.9579(3) 0.33601(16)
H20_7 H 0.3590 0.9538 0.3423
O1_7 O 0.33337(5) 0.65521(18) 0.48140(10)
O2_7 O 0.28330(5) 0.68225(19) 0.45437(9)
C1_7 C 0.30890(8) 0.6459(2) 0.48685(13)
C2_7 C 0.30943(8) 0.5889(3) 0.53526(13)
C3_7 C 0.33680(9) 0.5572(3) 0.57681(14)
H1_7 H 0.3550 0.5676 0.5731
C4_7 C 0.33733(9) 0.5103(3) 0.62363(16)
H2_7 H 0.3560 0.4890 0.6507
C5_7 C 0.31087(8) 0.4940(3) 0.63152(14)
C6_7 C 0.28305(8) 0.5250(3) 0.58814(14)
H3_7 H 0.2647 0.5135 0.5913
C7_7 C 0.28249(8) 0.5714(3) 0.54176(13)
H4_7 H 0.2638 0.5916 0.5141
C8_7 C 0.31116(8) 0.4491(3) 0.68306(13)
C9_7 C 0.33788(12) 0.4351(4) 0.7296(2)
H5_7 H 0.3562 0.4582 0.7298
C10_7 C 0.33831(11) 0.3867(5) 0.7769(2)
H6_7 H 0.3570 0.3697 0.8056
C11_7 C 0.31222(8) 0.3646(3) 0.78157(13)
C12_7 C 0.28574(10) 0.3875(5) 0.7375(2)
H7_7 H 0.2672 0.3741 0.7395
C13_7 C 0.28538(10) 0.4296(5) 0.6902(2)
H8_7 H 0.2666 0.4457 0.6615
C14_7 C 0.31224(8) 0.3188(2) 0.83304(13)
O5_7 O 0.31681(5) 0.85365(16) 0.43429(9)
O6_7 O 0.28088(6) 0.91476(19) 0.35876(13)
C15_7 C 0.30611(8) 0.9250(3) 0.40051(14)
H9_7 H 0.3561 0.9843 0.4860
N1_7 N 0.23238(6) 0.7691(2) 0.35457(11)
C43_7 C 0.21878(8) 0.8010(3) 0.30128(14)
H25_7 H 0.2309 0.8219 0.2834
C44_7 C 0.18762(8) 0.8033(3) 0.27288(15)
H26_7 H 0.1786 0.8246 0.2359
C45_7 C 0.16954(8) 0.7738(3) 0.29959(16)
C46_7 C 0.18373(8) 0.7430(3) 0.35414(16)
H27_7 H 0.1720 0.7237 0.3732
C47_7 C 0.21519(8) 0.7404(3) 0.38073(15)
H28_7 H 0.2246 0.7184 0.4175
C48_7 C 0.13563(8) 0.7737(3) 0.27019(17)
H29_7 H 0.1237 0.7648 0.2903
N2_7 N 0.12299(7) 0.7857(3) 0.21753(16)
N3_7 N 0.09061(8) 0.7838(3) 0.19694(15)
C49_7 C 0.07833(9) 0.7637(4) 0.14599(19)
H30_7 H 0.0904 0.7525 0.1264
C50_7 C 0.04442(9) 0.7576(4) 0.11658(17)
C52_7 C 0.03052(9) 0.7455(4) 0.05965(18)
H32_7 H 0.0424 0.7380 0.0395
C54_7 C 0.02546(9) 0.7691(4) 0.14368(17)
H34_7 H 0.0338 0.7787 0.1823
C51_7 C 0.99882(9) 0.7445(3) 0.03191(17)
C53_7 C 0.99435(9) 0.7663(3) 0.11403(16)
H33_7 H 0.9819 0.7739 0.1331
H15_8 H 0.8511 0.0247 0.4183
C28_8 C 0.90702(8) 0.0775(3) 0.48695(15)
O7_8 O 0.93557(6) 0.08485(19) 0.51734(12)
O8_4 O 0.89144(5) 0.15267(16) 0.46995(10)
O9_8 O 0.92895(6) 0.3183(2) 0.45393(10)
O10_4 O 0.87908(6) 0.35229(18) 0.42812(10)
C29_8 C 0.90355(8) 0.3577(3) 0.42218(13)
C30_8 C 0.90315(8) 0.4152(3) 0.37333(14)
C31_8 C 0.92918(9) 0.4233(4) 0.36329(17)
H17_8 H 0.9475 0.3963 0.3887
C32_8 C 0.92870(9) 0.4703(4) 0.31648(17)
H18_8 H 0.9466 0.4748 0.3108
C33_8 C 0.90173(9) 0.5111(3) 0.27765(15)
C34_8 C 0.87570(9) 0.5067(3) 0.28923(16)
H19_8 H 0.8577 0.5368 0.2653
C35_8 C 0.87664(9) 0.4579(3) 0.33601(16)
H20_8 H 0.8590 0.4538 0.3423
C36_8 C 0.90055(8) 0.5572(3) 0.22568(14)
C37_8 C 0.92593(9) 0.6049(3) 0.22561(15)
H21_8 H 0.9437 0.6087 0.2586
C38_8 C 0.92531(8) 0.6470(3) 0.17710(13)
H22_8 H 0.9425 0.6796 0.1779
C39_8 C 0.89890(8) 0.6404(3) 0.12701(13)
C40_8 C 0.87375(8) 0.5928(3) 0.12711(14)
H23_8 H 0.8560 0.5889 0.0941
C41_8 C 0.87450(8) 0.5508(3) 0.17559(14)
H24_8 H 0.8574 0.5178 0.1746
C42_8 C 0.89835(8) 0.6848(3) 0.07411(13)
O1_8 O 0.83337(5) 0.15521(18) 0.48140(10)
O2_8 O 0.78330(5) 0.18225(19) 0.45437(9)
C1_8 C 0.80890(8) 0.1459(2) 0.48685(13)
C2_8 C 0.80943(8) 0.0889(3) 0.53526(13)
C3_8 C 0.83680(9) 0.0572(3) 0.57681(14)
H1_8 H 0.8550 0.0676 0.5731
C4_8 C 0.83733(9) 0.0103(3) 0.62363(16)
C6_8 C 0.78305(8) 0.0250(3) 0.58814(14)
H3_8 H 0.7647 0.0135 0.5913
C7_8 C 0.78249(8) 0.0714(3) 0.54176(13)
H4_8 H 0.7638 0.0916 0.5141
O5_8 O 0.81681(5) 0.35365(16) 0.43429(9)
O6_8 O 0.78088(6) 0.41476(19) 0.35876(13)
C15_8 C 0.80611(8) 0.4250(3) 0.40051(14)
C16_8 C 0.82232(8) 0.5182(2) 0.41094(14)
C17_8 C 0.84817(8) 0.5340(3) 0.46010(15)
H9_8 H 0.8561 0.4843 0.4860
C18_8 C 0.86213(9) 0.6238(3) 0.47056(16)
H10_8 H 0.8788 0.6342 0.5046
C19_8 C 0.85199(8) 0.6993(3) 0.43174(16)
C20_8 C 0.82596(9) 0.6817(3) 0.38183(16)
H11_8 H 0.8183 0.7304 0.3551
C21_8 C 0.81156(9) 0.5927(3) 0.37193(16)
H12_8 H 0.7944 0.5825 0.3386
C22_8 C 0.86609(9) 0.7965(3) 0.44362(15)
C23_8 C 0.89725(9) 0.8069(3) 0.47920(18)
H13_8 H 0.9093 0.7522 0.4937
C24_8 C 0.91019(9) 0.8974(3) 0.49281(18)
H14_8 H 0.9308 0.9031 0.5171
C25_8 C 0.89308(8) 0.9801(3) 0.47105(15)
C26_8 C 0.86270(9) 0.9701(3) 0.43444(16)
C27_8 C 0.84937(9) 0.8793(3) 0.42155(16)
H16_8 H 0.8287 0.8740 0.3975
N1_8 N 0.73238(6) 0.2691(2) 0.35457(11)
C43_8 C 0.71878(8) 0.3010(3) 0.30128(14)
H25_8 H 0.7309 0.3219 0.2834
C44_8 C 0.68762(8) 0.3033(3) 0.27288(15)
H26_8 H 0.6786 0.3246 0.2359
C45_8 C 0.66954(8) 0.2738(3) 0.29959(16)
C46_8 C 0.68373(8) 0.2430(3) 0.35414(16)
H27_8 H 0.6720 0.2237 0.3732
C47_8 C 0.71519(8) 0.2404(3) 0.38073(15)
H28_8 H 0.7246 0.2184 0.4175
C48_8 C 0.63563(8) 0.2737(3) 0.27019(17)
H29_8 H 0.6237 0.2648 0.2903
N2_8 N 0.62299(7) 0.2857(3) 0.21753(16)
N3_8 N 0.59061(8) 0.2838(3) 0.19694(15)
C49_8 C 0.57833(9) 0.2637(4) 0.14599(19)
H30_8 H 0.5904 0.2525 0.1264
C50_8 C 0.54442(9) 0.2576(4) 0.11658(17)
C51_8 C 0.49882(9) 0.2445(3) 0.03191(17)
C52_8 C 0.53052(9) 0.2455(4) 0.05965(18)
H32_8 H 0.5424 0.2380 0.0395
C53_8 C 0.49435(9) 0.2663(3) 0.11403(16)
H33_8 H 0.4819 0.2739 0.1331
C54_8 C 0.52546(9) 0.2691(4) 0.14368(17)
H34_8 H 0.5338 0.2787 0.1823
H2_8 H 0.8560 0.9890 0.6507
C5_8 C 0.81087(8) 0.9940(3) 0.63152(14)
C8_8 C 0.81116(8) 0.9491(3) 0.68306(13)
C9_8 C 0.83788(12) 0.9351(4) 0.7296(2)
H5_8 H 0.8562 0.9582 0.7298
C10_8 C 0.83831(11) 0.8867(5) 0.7769(2)
H6_8 H 0.8570 0.8697 0.8056
C11_8 C 0.81222(8) 0.8646(3) 0.78157(13)
C12_8 C 0.78574(10) 0.8875(5) 0.7375(2)
H7_8 H 0.7672 0.8741 0.7395
C13_8 C 0.78538(10) 0.9296(5) 0.6902(2)
H8_8 H 0.7666 0.9457 0.6615
C14_8 C 0.81224(8) 0.8188(2) 0.83304(13)
H31_6 H 0.5102 0.7627 0.0069
H31_7 H 0.9898 0.7373 0.9931
H31_8 H 0.4898 0.2373 0.9931
loop_
_geom_bond_atom_site_label_1
_geom_bond_atom_site_label_2
_geom_bond_site_symmetry_1
_geom_bond_site_symmetry_2
N4 C51 1_555 1_555
C53 N4 1_555 1_555
H33 C53 1_555 1_555
Zn9 N4 1_555 1_555
Zn1 O1 1_555 1_555
Zn2 O2 1_555 1_555
O1 C1 1_555 1_555
O2 C1 1_555 1_555
C1 C2 1_555 1_555
C2 C3 1_555 1_555
C3 H1 1_555 1_555
C4 C3 1_555 1_555
H2 C4 1_555 1_555
C5 C4 1_555 1_555
C6 C5 1_555 1_555
H3 C6 1_555 1_555
C7 C2 1_555 1_555
H4 C7 1_555 1_555
C8 C5 1_555 1_555
C9 C8 1_555 1_555
H5 C9 1_555 1_555
C10 C9 1_555 1_555
H6 C10 1_555 1_555
C11 C10 1_555 1_555
C12 C11 1_555 1_555
H7 C12 1_555 1_555
C13 C8 1_555 1_555
H8 C13 1_555 1_555
C14 C11 1_555 1_555
O3 C14 1_555 1_555
O4 C14 1_555 1_555
O5 Zn1 1_555 1_555
O6 Zn2 1_555 1_555
C15 O5 1_555 1_555
N1 Zn2 1_555 1_555
C43 N1 1_555 1_555
H25 C43 1_555 1_555
C44 C43 1_555 1_555
H26 C44 1_555 1_555
C45 C44 1_555 1_555
C46 C45 1_555 1_555
H27 C46 1_555 1_555
C47 N1 1_555 1_555
H28 C47 1_555 1_555
C48 C45 1_555 1_555
H29 C48 1_555 1_555
N2 C48 1_555 1_555
N3 N2 1_555 1_555
C49 N3 1_555 1_555
H30 C49 1_555 1_555
C50 C49 1_555 1_555
C52 C50 1_555 1_555
H32 C52 1_555 1_555
C54 C50 1_555 1_555
H34 C54 1_555 1_555
Zn6 O3 1_555 1_555
Zn7 O4 1_555 1_555
O13 Zn1 1_555 1_555
O14 Zn2 1_555 1_555
O15 Zn1 1_555 1_555
O16 Zn1 1_555 1_555
O18 Zn1 1_555 1_555
Zn2 O5 1_555 1_555
C6 C7 1_555 1_555
C12 C13 1_555 1_555
O6 C15 1_555 1_555
C46 C47 1_555 1_555
Zn3 O7 1_555 1_555
C17 C16 1_555 1_555
C18 C17 1_555 1_555
H10 C18 1_555 1_555
C19 C18 1_555 1_555
C20 C19 1_555 1_555
H11 C20 1_555 1_555
C21 C16 1_555 1_555
H12 C21 1_555 1_555
C22 C19 1_555 1_555
C23 C22 1_555 1_555
H13 C23 1_555 1_555
C24 C23 1_555 1_555
H14 C24 1_555 1_555
C25 C24 1_555 1_555
C26 C25 1_555 1_555
H15 C26 1_555 1_555
C27 C22 1_555 1_555
H16 C27 1_555 1_555
C28 C25 1_555 1_555
O7 C28 1_555 1_555
O15 Zn3 1_555 1_555
O9 Zn3 1_555 1_555
O16 C29 1_555 1_555
C29 O9 1_555 1_555
C30 C29 1_555 1_555
C31 C30 1_555 1_555
H17 C31 1_555 1_555
C32 C31 1_555 1_555
H18 C32 1_555 1_555
C35 C30 1_555 1_555
H20 C35 1_555 1_555
O17 Zn3 1_555 1_555
N5 Zn3 1_555 1_555
C20 C21 1_555 1_555
C26 C27 1_555 1_555
C28 O15 1_555 1_555
C34 C33 1_555 1_555
H19 C34 1_555 1_555
C36 C33 1_555 1_555
C37 C36 1_555 1_555
H21 C37 1_555 1_555
C38 C37 1_555 1_555
H22 C38 1_555 1_555
C39 C38 1_555 1_555
C40 C39 1_555 1_555
H23 C40 1_555 1_555
C41 C36 1_555 1_555
H24 C41 1_555 1_555
C42 C39 1_555 1_555
O11 C42 1_555 1_555
O12 C42 1_555 1_555
Zn8 O11 1_555 1_555
C40 C41 1_555 1_555
C8_2 C5_2 1_555 1_555
C9_2 C8_2 1_555 1_555
H5_2 C9_2 1_555 1_555
C10_2 C9_2 1_555 1_555
H6_2 C10_2 1_555 1_555
C11_2 C10_2 1_555 1_555
C12_2 C11_2 1_555 1_555
H7_2 C12_2 1_555 1_555
C13_2 C8_2 1_555 1_555
H8_2 C13_2 1_555 1_555
C14_2 C11_2 1_555 1_555
O3_2 C14_2 1_555 1_555
O4_2 C14_2 1_555 1_555
Zn6_2 O3_2 1_555 1_555
Zn7_2 O4_2 1_555 1_555
C12_2 C13_2 1_555 1_555
Zn1_2 O1_2 1_555 1_555
Zn2_2 O2_2 1_555 1_555
O1_2 C1_2 1_555 1_555
O2_2 C1_2 1_555 1_555
C1_2 C2_2 1_555 1_555
C2_2 C3_2 1_555 1_555
C3_2 H1_2 1_555 1_555
C4_2 C3_2 1_555 1_555
H3_2 C6_2 1_555 1_555
C7_2 C2_2 1_555 1_555
H4_2 C7_2 1_555 1_555
O5_2 Zn1_2 1_555 1_555
O6_2 Zn2_2 1_555 1_555
C15_2 O5_2 1_555 1_555
C16_2 C15_2 1_555 1_555
C17_2 C16_2 1_555 1_555
H9_2 C17_2 1_555 1_555
C18_2 C17_2 1_555 1_555
H10_2 C18_2 1_555 1_555
C19_2 C18_2 1_555 1_555
C20_2 C19_2 1_555 1_555
H11_2 C20_2 1_555 1_555
C21_2 C16_2 1_555 1_555
H12_2 C21_2 1_555 1_555
C22_2 C19_2 1_555 1_555
C23_2 C22_2 1_555 1_555
H13_2 C23_2 1_555 1_555
C24_2 C23_2 1_555 1_555
H14_2 C24_2 1_555 1_555
C25_2 C24_2 1_555 1_555
C26_2 C25_2 1_555 1_555
C27_2 C22_2 1_555 1_555
H16_2 C27_2 1_555 1_555
N1_2 Zn2_2 1_555 1_555
C43_2 N1_2 1_555 1_555
H25_2 C43_2 1_555 1_555
C44_2 C43_2 1_555 1_555
H26_2 C44_2 1_555 1_555
C45_2 C44_2 1_555 1_555
C46_2 C45_2 1_555 1_555
H27_2 C46_2 1_555 1_555
C47_2 N1_2 1_555 1_555
H28_2 C47_2 1_555 1_555
C48_2 C45_2 1_555 1_555
H29_2 C48_2 1_555 1_555
N2_2 C48_2 1_555 1_555
N3_2 N2_2 1_555 1_555
C49_2 N3_2 1_555 1_555
H30_2 C49_2 1_555 1_555
C50_2 C49_2 1_555 1_555
C52_2 C50_2 1_555 1_555
H32_2 C52_2 1_555 1_555
N4_2 C51_2 1_555 1_555
C53_2 N4_2 1_555 1_555
H33_2 C53_2 1_555 1_555
C54_2 C50_2 1_555 1_555
H34_2 C54_2 1_555 1_555
Zn8 N4_2 1_555 1_555
O13_2 Zn1_2 1_555 1_555
O14_2 Zn2_2 1_555 1_555
O15_2 Zn1_2 1_555 1_555
O16_2 Zn1_2 1_555 1_555
O18_2 Zn1_2 1_555 1_555
Zn2_2 O5_2 1_555 1_555
C6_2 C7_2 1_555 1_555
O6_2 C15_2 1_555 1_555
C20_2 C21_2 1_555 1_555
C26_2 C27_2 1_555 1_555
C46_2 C47_2 1_555 1_555
C51_2 C52_2 1_555 1_555
C53_2 C54_2 1_555 1_555
Zn3_2 O7_2 1_555 1_555
O7_2 C28_2 1_555 1_555
O15_2 Zn3_2 1_555 1_555
O9_2 Zn3_2 1_555 1_555
O16_2 C29_2 1_555 1_555
C29_2 O9_2 1_555 1_555
C30_2 C29_2 1_555 1_555
C31_2 C30_2 1_555 1_555
H17_2 C31_2 1_555 1_555
C32_2 C31_2 1_555 1_555
H18_2 C32_2 1_555 1_555
C33_2 C32_2 1_555 1_555
C34_2 C33_2 1_555 1_555
H19_2 C34_2 1_555 1_555
C35_2 C30_2 1_555 1_555
H20_2 C35_2 1_555 1_555
C36_2 C33_2 1_555 1_555
C37_2 C36_2 1_555 1_555
H21_2 C37_2 1_555 1_555
C38_2 C37_2 1_555 1_555
H22_2 C38_2 1_555 1_555
C39_2 C38_2 1_555 1_555
C40_2 C39_2 1_555 1_555
H23_2 C40_2 1_555 1_555
C41_2 C36_2 1_555 1_555
H24_2 C41_2 1_555 1_555
C42_2 C39_2 1_555 1_555
O11_2 C42_2 1_555 1_555
O12_2 C42_2 1_555 1_555
Zn9 O11_2 1_555 1_555
O17_2 Zn3_2 1_555 1_555
N5_2 Zn3_2 1_555 1_555
C28_2 O15_2 1_555 1_555
C34_2 C35_2 1_555 1_555
C40_2 C41_2 1_555 1_555
C51_3 H31_2 1_555 1_555
N5_2 C51_3 1_555 1_555
C53_3 N5_2 1_555 1_555
H33_3 C53_3 1_555 1_555
C34_3 C33_3 1_555 1_555
H19_3 C34_3 1_555 1_555
C36_3 C33_3 1_555 1_555
C37_3 C36_3 1_555 1_555
H21_3 C37_3 1_555 1_555
C38_3 C37_3 1_555 1_555
H22_3 C38_3 1_555 1_555
C39_3 C38_3 1_555 1_555
C40_3 C39_3 1_555 1_555
H23_3 C40_3 1_555 1_555
C41_3 C36_3 1_555 1_555
H24_3 C41_3 1_555 1_555
C42_3 C39_3 1_555 1_555
O17 C42_3 1_555 1_555
O18 C42_3 1_555 1_555
C40_3 C41_3 1_555 1_555
C17_3 C16_3 1_555 1_555
C18_3 C17_3 1_555 1_555
C19_3 C18_3 1_555 1_555
C20_3 C19_3 1_555 1_555
H11_3 C20_3 1_555 1_555
C21_3 C16_3 1_555 1_555
H12_3 C21_3 1_555 1_555
C22_3 C19_3 1_555 1_555
C23_3 C22_3 1_555 1_555
H13_3 C23_3 1_555 1_555
C24_3 C23_3 1_555 1_555
C25_3 C24_3 1_555 1_555
C26_3 C25_3 1_555 1_555
H15_3 C26_3 1_555 1_555
C27_3 C22_3 1_555 1_555
H16_3 C27_3 1_555 1_555
C28_3 C25_3 1_555 1_555
O10 C29_3 1_555 1_555
C29_3 O9_3 1_555 1_555
C30_3 C29_3 1_555 1_555
C31_3 C30_3 1_555 1_555
H17_3 C31_3 1_555 1_555
C32_3 C31_3 1_555 1_555
H18_3 C32_3 1_555 1_555
C35_3 C30_3 1_555 1_555
H20_3 C35_3 1_555 1_555
Zn6 O8 1_555 1_555
C20_3 C21_3 1_555 1_555
C26_3 C27_3 1_555 1_555
C28_3 O8 1_555 1_555
O10 Zn6 1_555 1_555
Zn8 O7_3 1_555 1_555
Zn6 O1_3 1_555 1_555
Zn7 O2_3 1_555 1_555
O1_3 C1_3 1_555 1_555
O2_3 C1_3 1_555 1_555
O5_3 Zn6 1_555 1_555
O6_3 Zn7 1_555 1_555
C15_3 O5_3 1_555 1_555
N1_3 Zn7 1_555 1_555
C43_3 N1_3 1_555 1_555
H25_3 C43_3 1_555 1_555
C44_3 C43_3 1_555 1_555
H26_3 C44_3 1_555 1_555
C45_3 C44_3 1_555 1_555
C46_3 C45_3 1_555 1_555
H27_3 C46_3 1_555 1_555
C47_3 N1_3 1_555 1_555
H28_3 C47_3 1_555 1_555
C48_3 C45_3 1_555 1_555
H29_3 C48_3 1_555 1_555
N2_3 C48_3 1_555 1_555
N3_3 N2_3 1_555 1_555
C49_3 N3_3 1_555 1_555
H30_3 C49_3 1_555 1_555
C50_3 C49_3 1_555 1_555
C52_3 C50_3 1_555 1_555
H32_3 C52_3 1_555 1_555
C54_3 C50_3 1_555 1_555
H34_3 C54_3 1_555 1_555
Zn7 O5_3 1_555 1_555
O6_3 C15_3 1_555 1_555
C46_3 C47_3 1_555 1_555
C2_3 C3_3 1_555 1_555
C3_3 H1_3 1_555 1_555
C4_3 C3_3 1_555 1_555
H2_3 C4_3 1_555 1_555
C5_3 C4_3 1_555 1_555
C6_3 C5_3 1_555 1_555
H3_3 C6_3 1_555 1_555
C7_3 C2_3 1_555 1_555
H4_3 C7_3 1_555 1_555
C8_3 C5_3 1_555 1_555
C9_3 C8_3 1_555 1_555
H5_3 C9_3 1_555 1_555
C10_3 C9_3 1_555 1_555
H6_3 C10_3 1_555 1_555
C11_3 C10_3 1_555 1_555
C12_3 C11_3 1_555 1_555
H7_3 C12_3 1_555 1_555
C13_3 C8_3 1_555 1_555
H8_3 C13_3 1_555 1_555
C14_3 C11_3 1_555 1_555
O13 C14_3 1_555 1_555
O14 C14_3 1_555 1_555
C6_3 C7_3 1_555 1_555
C12_3 C13_3 1_555 1_555
O10_2 C29_4 1_555 1_555
C29_4 O9_4 1_555 1_555
C30_4 C29_4 1_555 1_555
C31_4 C30_4 1_555 1_555
H17_4 C31_4 1_555 1_555
C32_4 C31_4 1_555 1_555
H18_4 C32_4 1_555 1_555
C33_4 C32_4 1_555 1_555
C34_4 C33_4 1_555 1_555
H19_4 C34_4 1_555 1_555
C35_4 C30_4 1_555 1_555
H20_4 C35_4 1_555 1_555
C36_4 C33_4 1_555 1_555
C37_4 C36_4 1_555 1_555
H21_4 C37_4 1_555 1_555
C38_4 C37_4 1_555 1_555
H22_4 C38_4 1_555 1_555
C39_4 C38_4 1_555 1_555
C40_4 C39_4 1_555 1_555
H23_4 C40_4 1_555 1_555
C41_4 C36_4 1_555 1_555
H24_4 C41_4 1_555 1_555
C42_4 C39_4 1_555 1_555
O17_2 C42_4 1_555 1_555
O18_2 C42_4 1_555 1_555
Zn6_2 O8_2 1_555 1_555
C28_4 O8_2 1_555 1_555
O10_2 Zn6_2 1_555 1_555
C34_4 C35_4 1_555 1_555
C40_4 C41_4 1_555 1_555
Zn9 O7_4 1_555 1_555
Zn6_2 O1_4 1_555 1_555
Zn7_2 O2_4 1_555 1_555
O1_4 C1_4 1_555 1_555
O2_4 C1_4 1_555 1_555
O5_4 Zn6_2 1_555 1_555
O6_4 Zn7_2 1_555 1_555
C15_4 O5_4 1_555 1_555
C16_4 C15_4 1_555 1_555
C17_4 C16_4 1_555 1_555
H9_4 C17_4 1_555 1_555
C18_4 C17_4 1_555 1_555
C19_4 C18_4 1_555 1_555
C20_4 C19_4 1_555 1_555
H11_4 C20_4 1_555 1_555
C21_4 C16_4 1_555 1_555
H12_4 C21_4 1_555 1_555
C22_4 C19_4 1_555 1_555
C23_4 C22_4 1_555 1_555
H13_4 C23_4 1_555 1_555
C24_4 C23_4 1_555 1_555
C25_4 C24_4 1_555 1_555
C26_4 C25_4 1_555 1_555
C27_4 C22_4 1_555 1_555
H16_4 C27_4 1_555 1_555
N1_4 Zn7_2 1_555 1_555
C43_4 N1_4 1_555 1_555
H25_4 C43_4 1_555 1_555
C44_4 C43_4 1_555 1_555
H26_4 C44_4 1_555 1_555
C45_4 C44_4 1_555 1_555
C46_4 C45_4 1_555 1_555
H27_4 C46_4 1_555 1_555
C47_4 N1_4 1_555 1_555
H28_4 C47_4 1_555 1_555
C48_4 C45_4 1_555 1_555
H29_4 C48_4 1_555 1_555
N2_4 C48_4 1_555 1_555
N3_4 N2_4 1_555 1_555
C49_4 N3_4 1_555 1_555
H30_4 C49_4 1_555 1_555
C50_4 C49_4 1_555 1_555
C51_4 H31_3 1_555 1_555
C52_4 C50_4 1_555 1_555
H32_4 C52_4 1_555 1_555
N5 C51_4 1_555 1_555
C53_4 N5 1_555 1_555
H33_4 C53_4 1_555 1_555
C54_4 C50_4 1_555 1_555
H34_4 C54_4 1_555 1_555
Zn7_2 O5_4 1_555 1_555
O6_4 C15_4 1_555 1_555
C20_4 C21_4 1_555 1_555
C26_4 C27_4 1_555 1_555
C46_4 C47_4 1_555 1_555
C51_4 C52_4 1_555 1_555
C53_4 C54_4 1_555 1_555
C2_4 C3_4 1_555 1_555
C3_4 H1_4 1_555 1_555
C4_4 C3_4 1_555 1_555
H3_4 C6_4 1_555 1_555
C7_4 C2_4 1_555 1_555
H4_4 C7_4 1_555 1_555
C6_4 C7_4 1_555 1_555
C8_4 C5_4 1_555 1_555
C9_4 C8_4 1_555 1_555
H5_4 C9_4 1_555 1_555
C10_4 C9_4 1_555 1_555
H6_4 C10_4 1_555 1_555
C11_4 C10_4 1_555 1_555
C12_4 C11_4 1_555 1_555
H7_4 C12_4 1_555 1_555
C13_4 C8_4 1_555 1_555
H8_4 C13_4 1_555 1_555
C14_4 C11_4 1_555 1_555
O13_2 C14_4 1_555 1_555
O14_2 C14_4 1_555 1_555
C12_4 C13_4 1_555 1_555
C2_5 C3_5 1_555 1_555
C3_5 H1_5 1_555 1_555
C4_5 C3_5 1_555 1_555
H2_5 C4_5 1_555 1_555
C5_5 C4_5 1_555 1_555
C6_5 C5_5 1_555 1_555
H3_5 C6_5 1_555 1_555
C7_5 C2_5 1_555 1_555
H4_5 C7_5 1_555 1_555
C8_5 C5_5 1_555 1_555
C9_5 C8_5 1_555 1_555
H5_5 C9_5 1_555 1_555
C10_5 C9_5 1_555 1_555
H6_5 C10_5 1_555 1_555
C11_5 C10_5 1_555 1_555
C12_5 C11_5 1_555 1_555
H7_5 C12_5 1_555 1_555
C13_5 C8_5 1_555 1_555
H8_5 C13_5 1_555 1_555
C14_5 C11_5 1_555 1_555
O3_3 C14_5 1_555 1_555
O4_3 C14_5 1_555 1_555
Zn6_3 O3_3 1_555 1_555
Zn7_3 O4_3 1_555 1_555
C6_5 C7_5 1_555 1_555
C12_5 C13_5 1_555 1_555
Zn1_3 O1_5 1_555 1_555
Zn2_3 O2_5 1_555 1_555
O1_5 C1_5 1_555 1_555
O2_5 C1_5 1_555 1_555
O5_5 Zn1_3 1_555 1_555
O6_5 Zn2_3 1_555 1_555
C15_5 O5_5 1_555 1_555
N1_5 Zn2_3 1_555 1_555
C43_5 N1_5 1_555 1_555
H25_5 C43_5 1_555 1_555
C44_5 C43_5 1_555 1_555
H26_5 C44_5 1_555 1_555
C45_5 C44_5 1_555 1_555
C46_5 C45_5 1_555 1_555
H27_5 C46_5 1_555 1_555
C47_5 N1_5 1_555 1_555
H28_5 C47_5 1_555 1_555
C48_5 C45_5 1_555 1_555
H29_5 C48_5 1_555 1_555
N2_5 C48_5 1_555 1_555
N3_5 N2_5 1_555 1_555
C49_5 N3_5 1_555 1_555
H30_5 C49_5 1_555 1_555
C50_5 C49_5 1_555 1_555
C52_5 C50_5 1_555 1_555
H32_5 C52_5 1_555 1_555
C54_5 C50_5 1_555 1_555
H34_5 C54_5 1_555 1_555
O13_3 Zn1_3 1_555 1_555
O14_3 Zn2_3 1_555 1_555
O15_3 Zn1_3 1_555 1_555
O16_3 Zn1_3 1_555 1_555
Zn2_3 O5_5 1_555 1_555
O6_5 C15_5 1_555 1_555
C46_5 C47_5 1_555 1_555
Zn3_3 O7_5 1_555 1_555
O17_3 Zn3_3 1_555 1_555
N5_3 Zn3_3 1_555 1_555
C17_5 C16_5 1_555 1_555
C18_5 C17_5 1_555 1_555
C19_5 C18_5 1_555 1_555
C20_5 C19_5 1_555 1_555
H11_5 C20_5 1_555 1_555
C21_5 C16_5 1_555 1_555
H12_5 C21_5 1_555 1_555
C22_5 C19_5 1_555 1_555
C23_5 C22_5 1_555 1_555
H13_5 C23_5 1_555 1_555
C24_5 C23_5 1_555 1_555
C25_5 C24_5 1_555 1_555
C26_5 C25_5 1_555 1_555
H15_5 C26_5 1_555 1_555
C27_5 C22_5 1_555 1_555
H16_5 C27_5 1_555 1_555
C28_5 C25_5 1_555 1_555
O16_3 C29_5 1_555 1_555
C29_5 O9_5 1_555 1_555
C30_5 C29_5 1_555 1_555
C31_5 C30_5 1_555 1_555
H17_5 C31_5 1_555 1_555
C32_5 C31_5 1_555 1_555
H18_5 C32_5 1_555 1_555
C35_5 C30_5 1_555 1_555
H20_5 C35_5 1_555 1_555
C20_5 C21_5 1_555 1_555
C26_5 C27_5 1_555 1_555
C28_5 O15_3 1_555 1_555
C34_5 C33_5 1_555 1_555
H19_5 C34_5 1_555 1_555
C36_5 C33_5 1_555 1_555
C37_5 C36_5 1_555 1_555
H21_5 C37_5 1_555 1_555
C38_5 C37_5 1_555 1_555
H22_5 C38_5 1_555 1_555
C39_5 C38_5 1_555 1_555
C40_5 C39_5 1_555 1_555
H23_5 C40_5 1_555 1_555
C41_5 C36_5 1_555 1_555
H24_5 C41_5 1_555 1_555
C42_5 C39_5 1_555 1_555
O11_3 C42_5 1_555 1_555
O12_3 C42_5 1_555 1_555
Zn6_3 O12_3 1_555 1_555
Zn8_2 O11_3 1_555 1_555
C40_5 C41_5 1_555 1_555
C51_5 H31_4 1_555 1_555
N4_3 C51_5 1_555 1_555
C53_5 N4_3 1_555 1_555
H33_5 C53_5 1_555 1_555
Zn9_2 N4_3 1_555 1_555
C8_6 C5_6 1_555 1_555
C9_6 C8_6 1_555 1_555
H5_6 C9_6 1_555 1_555
C10_6 C9_6 1_555 1_555
H6_6 C10_6 1_555 1_555
C11_6 C10_6 1_555 1_555
C12_6 C11_6 1_555 1_555
H7_6 C12_6 1_555 1_555
C13_6 C8_6 1_555 1_555
H8_6 C13_6 1_555 1_555
C14_6 C11_6 1_555 1_555
O3_4 C14_6 1_555 1_555
O4_4 C14_6 1_555 1_555
Zn6_4 O3_4 1_555 1_555
Zn7_4 O4_4 1_555 1_555
C12_6 C13_6 1_555 1_555
C2_6 C3_6 1_555 1_555
C3_6 H1_6 1_555 1_555
C4_6 C3_6 1_555 1_555
H3_6 C6_6 1_555 1_555
C7_6 C2_6 1_555 1_555
H4_6 C7_6 1_555 1_555
C6_6 C7_6 1_555 1_555
Zn1_4 O1_6 1_555 1_555
Zn2_4 O2_6 1_555 1_555
O1_6 C1_6 1_555 1_555
O2_6 C1_6 1_555 1_555
O5_6 Zn1_4 1_555 1_555
O6_6 Zn2_4 1_555 1_555
C15_6 O5_6 1_555 1_555
C16_6 C15_6 1_555 1_555
C17_6 C16_6 1_555 1_555
H9_6 C17_6 1_555 1_555
C18_6 C17_6 1_555 1_555
C19_6 C18_6 1_555 1_555
C20_6 C19_6 1_555 1_555
H11_6 C20_6 1_555 1_555
C21_6 C16_6 1_555 1_555
H12_6 C21_6 1_555 1_555
C22_6 C19_6 1_555 1_555
C23_6 C22_6 1_555 1_555
H13_6 C23_6 1_555 1_555
C24_6 C23_6 1_555 1_555
C25_6 C24_6 1_555 1_555
C26_6 C25_6 1_555 1_555
C27_6 C22_6 1_555 1_555
H16_6 C27_6 1_555 1_555
N1_6 Zn2_4 1_555 1_555
C43_6 N1_6 1_555 1_555
H25_6 C43_6 1_555 1_555
C44_6 C43_6 1_555 1_555
H26_6 C44_6 1_555 1_555
C45_6 C44_6 1_555 1_555
C46_6 C45_6 1_555 1_555
H27_6 C46_6 1_555 1_555
C47_6 N1_6 1_555 1_555
H28_6 C47_6 1_555 1_555
C48_6 C45_6 1_555 1_555
H29_6 C48_6 1_555 1_555
N2_6 C48_6 1_555 1_555
N3_6 N2_6 1_555 1_555
C49_6 N3_6 1_555 1_555
H30_6 C49_6 1_555 1_555
C50_6 C49_6 1_555 1_555
C51_6 H31_5 1_555 1_555
C52_6 C50_6 1_555 1_555
H32_6 C52_6 1_555 1_555
N4_4 C51_6 1_555 1_555
C53_6 N4_4 1_555 1_555
H33_6 C53_6 1_555 1_555
C54_6 C50_6 1_555 1_555
H34_6 C54_6 1_555 1_555
Zn8_2 N4_4 1_555 1_555
O13_4 Zn1_4 1_555 1_555
O14_4 Zn2_4 1_555 1_555
O15_4 Zn1_4 1_555 1_555
O16_4 Zn1_4 1_555 1_555
Zn2_4 O5_6 1_555 1_555
O6_6 C15_6 1_555 1_555
C20_6 C21_6 1_555 1_555
C26_6 C27_6 1_555 1_555
C46_6 C47_6 1_555 1_555
C51_6 C52_6 1_555 1_555
C53_6 C54_6 1_555 1_555
Zn3_4 O7_6 1_555 1_555
O17_4 Zn3_4 1_555 1_555
N5_4 Zn3_4 1_555 1_555
O16_4 C29_6 1_555 1_555
C29_6 O9_6 1_555 1_555
C30_6 C29_6 1_555 1_555
C31_6 C30_6 1_555 1_555
H17_6 C31_6 1_555 1_555
C32_6 C31_6 1_555 1_555
H18_6 C32_6 1_555 1_555
C33_6 C32_6 1_555 1_555
C34_6 C33_6 1_555 1_555
H19_6 C34_6 1_555 1_555
C35_6 C30_6 1_555 1_555
H20_6 C35_6 1_555 1_555
C36_6 C33_6 1_555 1_555
C37_6 C36_6 1_555 1_555
H21_6 C37_6 1_555 1_555
C38_6 C37_6 1_555 1_555
H22_6 C38_6 1_555 1_555
C39_6 C38_6 1_555 1_555
C40_6 C39_6 1_555 1_555
H23_6 C40_6 1_555 1_555
C41_6 C36_6 1_555 1_555
H24_6 C41_6 1_555 1_555
C42_6 C39_6 1_555 1_555
O11_4 C42_6 1_555 1_555
O12_4 C42_6 1_555 1_555
Zn6_4 O12_4 1_555 1_555
Zn9_2 O11_4 1_555 1_555
C28_6 O15_4 1_555 1_555
C34_6 C35_6 1_555 1_555
C40_6 C41_6 1_555 1_555
C34_7 C33_7 1_555 1_555
H19_7 C34_7 1_555 1_555
C36_7 C33_7 1_555 1_555
C37_7 C36_7 1_555 1_555
H21_7 C37_7 1_555 1_555
C38_7 C37_7 1_555 1_555
H22_7 C38_7 1_555 1_555
C39_7 C38_7 1_555 1_555
C40_7 C39_7 1_555 1_555
H23_7 C40_7 1_555 1_555
C41_7 C36_7 1_555 1_555
H24_7 C41_7 1_555 1_555
C42_7 C39_7 1_555 1_555
O17_3 C42_7 1_555 1_555
O18_3 C42_7 1_555 1_555
C40_7 C41_7 1_555 1_555
Zn8_2 O7_7 1_555 1_555
C17_7 C16_7 1_555 1_555
C18_7 C17_7 1_555 1_555
H10_7 C18_7 1_555 1_555
C19_7 C18_7 1_555 1_555
C20_7 C19_7 1_555 1_555
H11_7 C20_7 1_555 1_555
C21_7 C16_7 1_555 1_555
H12_7 C21_7 1_555 1_555
C22_7 C19_7 1_555 1_555
C23_7 C22_7 1_555 1_555
H13_7 C23_7 1_555 1_555
C24_7 C23_7 1_555 1_555
H14_7 C24_7 1_555 1_555
C25_7 C24_7 1_555 1_555
C26_7 C25_7 1_555 1_555
H15_7 C26_7 1_555 1_555
C27_7 C22_7 1_555 1_555
H16_7 C27_7 1_555 1_555
C28_7 C25_7 1_555 1_555
O7_7 C28_7 1_555 1_555
O8_3 Zn8_2 1_555 1_555
O9_7 Zn8_2 1_555 1_555
O10_3 C29_7 1_555 1_555
C29_7 O9_7 1_555 1_555
C30_7 C29_7 1_555 1_555
C31_7 C30_7 1_555 1_555
H17_7 C31_7 1_555 1_555
C32_7 C31_7 1_555 1_555
H18_7 C32_7 1_555 1_555
C35_7 C30_7 1_555 1_555
H20_7 C35_7 1_555 1_555
Zn6_3 O8_3 1_555 1_555
C20_7 C21_7 1_555 1_555
C26_7 C27_7 1_555 1_555
C28_7 O8_3 1_555 1_555
O10_3 Zn6_3 1_555 1_555
Zn6_3 O1_7 1_555 1_555
Zn7_3 O2_7 1_555 1_555
O1_7 C1_7 1_555 1_555
O2_7 C1_7 1_555 1_555
C1_7 C2_7 1_555 1_555
C2_7 C3_7 1_555 1_555
C3_7 H1_7 1_555 1_555
C4_7 C3_7 1_555 1_555
H2_7 C4_7 1_555 1_555
C5_7 C4_7 1_555 1_555
C6_7 C5_7 1_555 1_555
H3_7 C6_7 1_555 1_555
C7_7 C2_7 1_555 1_555
H4_7 C7_7 1_555 1_555
C8_7 C5_7 1_555 1_555
C9_7 C8_7 1_555 1_555
H5_7 C9_7 1_555 1_555
C10_7 C9_7 1_555 1_555
H6_7 C10_7 1_555 1_555
C11_7 C10_7 1_555 1_555
C12_7 C11_7 1_555 1_555
H7_7 C12_7 1_555 1_555
C13_7 C8_7 1_555 1_555
H8_7 C13_7 1_555 1_555
C14_7 C11_7 1_555 1_555
O13_3 C14_7 1_555 1_555
O14_3 C14_7 1_555 1_555
O5_7 Zn6_3 1_555 1_555
O6_7 Zn7_3 1_555 1_555
C15_7 O5_7 1_555 1_555
N1_7 Zn7_3 1_555 1_555
C43_7 N1_7 1_555 1_555
H25_7 C43_7 1_555 1_555
C44_7 C43_7 1_555 1_555
H26_7 C44_7 1_555 1_555
C45_7 C44_7 1_555 1_555
C46_7 C45_7 1_555 1_555
H27_7 C46_7 1_555 1_555
C47_7 N1_7 1_555 1_555
H28_7 C47_7 1_555 1_555
C48_7 C45_7 1_555 1_555
H29_7 C48_7 1_555 1_555
N2_7 C48_7 1_555 1_555
N3_7 N2_7 1_555 1_555
C49_7 N3_7 1_555 1_555
H30_7 C49_7 1_555 1_555
C50_7 C49_7 1_555 1_555
C52_7 C50_7 1_555 1_555
H32_7 C52_7 1_555 1_555
C54_7 C50_7 1_555 1_555
H34_7 C54_7 1_555 1_555
Zn7_3 O5_7 1_555 1_555
C6_7 C7_7 1_555 1_555
C12_7 C13_7 1_555 1_555
O6_7 C15_7 1_555 1_555
C46_7 C47_7 1_555 1_555
N5_4 C51_7 1_555 1_555
C53_7 N5_4 1_555 1_555
H33_7 C53_7 1_555 1_555
Zn9_2 O7_8 1_555 1_555
O7_8 C28_8 1_555 1_555
O8_4 Zn9_2 1_555 1_555
O9_8 Zn9_2 1_555 1_555
O10_4 C29_8 1_555 1_555
C29_8 O9_8 1_555 1_555
C30_8 C29_8 1_555 1_555
C31_8 C30_8 1_555 1_555
H17_8 C31_8 1_555 1_555
C32_8 C31_8 1_555 1_555
H18_8 C32_8 1_555 1_555
C33_8 C32_8 1_555 1_555
C34_8 C33_8 1_555 1_555
H19_8 C34_8 1_555 1_555
C35_8 C30_8 1_555 1_555
H20_8 C35_8 1_555 1_555
C36_8 C33_8 1_555 1_555
C37_8 C36_8 1_555 1_555
H21_8 C37_8 1_555 1_555
C38_8 C37_8 1_555 1_555
H22_8 C38_8 1_555 1_555
C39_8 C38_8 1_555 1_555
C40_8 C39_8 1_555 1_555
H23_8 C40_8 1_555 1_555
C41_8 C36_8 1_555 1_555
H24_8 C41_8 1_555 1_555
C42_8 C39_8 1_555 1_555
O17_4 C42_8 1_555 1_555
O18_4 C42_8 1_555 1_555
Zn6_4 O8_4 1_555 1_555
C28_8 O8_4 1_555 1_555
O10_4 Zn6_4 1_555 1_555
C34_8 C35_8 1_555 1_555
C40_8 C41_8 1_555 1_555
Zn6_4 O1_8 1_555 1_555
Zn7_4 O2_8 1_555 1_555
O1_8 C1_8 1_555 1_555
O2_8 C1_8 1_555 1_555
C1_8 C2_8 1_555 1_555
C2_8 C3_8 1_555 1_555
C3_8 H1_8 1_555 1_555
C4_8 C3_8 1_555 1_555
H3_8 C6_8 1_555 1_555
C7_8 C2_8 1_555 1_555
H4_8 C7_8 1_555 1_555
O5_8 Zn6_4 1_555 1_555
O6_8 Zn7_4 1_555 1_555
C15_8 O5_8 1_555 1_555
C16_8 C15_8 1_555 1_555
C17_8 C16_8 1_555 1_555
H9_8 C17_8 1_555 1_555
C18_8 C17_8 1_555 1_555
H10_8 C18_8 1_555 1_555
C19_8 C18_8 1_555 1_555
C20_8 C19_8 1_555 1_555
H11_8 C20_8 1_555 1_555
C21_8 C16_8 1_555 1_555
H12_8 C21_8 1_555 1_555
C22_8 C19_8 1_555 1_555
C23_8 C22_8 1_555 1_555
H13_8 C23_8 1_555 1_555
C24_8 C23_8 1_555 1_555
H14_8 C24_8 1_555 1_555
C25_8 C24_8 1_555 1_555
C26_8 C25_8 1_555 1_555
C27_8 C22_8 1_555 1_555
H16_8 C27_8 1_555 1_555
N1_8 Zn7_4 1_555 1_555
C43_8 N1_8 1_555 1_555
H25_8 C43_8 1_555 1_555
C44_8 C43_8 1_555 1_555
H26_8 C44_8 1_555 1_555
C45_8 C44_8 1_555 1_555
C46_8 C45_8 1_555 1_555
H27_8 C46_8 1_555 1_555
C47_8 N1_8 1_555 1_555
H28_8 C47_8 1_555 1_555
C48_8 C45_8 1_555 1_555
H29_8 C48_8 1_555 1_555
N2_8 C48_8 1_555 1_555
N3_8 N2_8 1_555 1_555
C49_8 N3_8 1_555 1_555
H30_8 C49_8 1_555 1_555
C50_8 C49_8 1_555 1_555
C52_8 C50_8 1_555 1_555
H32_8 C52_8 1_555 1_555
N5_3 C51_8 1_555 1_555
C53_8 N5_3 1_555 1_555
H33_8 C53_8 1_555 1_555
C54_8 C50_8 1_555 1_555
H34_8 C54_8 1_555 1_555
Zn7_4 O5_8 1_555 1_555
C6_8 C7_8 1_555 1_555
O6_8 C15_8 1_555 1_555
C20_8 C21_8 1_555 1_555
C26_8 C27_8 1_555 1_555
C46_8 C47_8 1_555 1_555
C51_8 C52_8 1_555 1_555
C53_8 C54_8 1_555 1_555
C8_8 C5_8 1_555 1_555
C9_8 C8_8 1_555 1_555
H5_8 C9_8 1_555 1_555
C10_8 C9_8 1_555 1_555
H6_8 C10_8 1_555 1_555
C11_8 C10_8 1_555 1_555
C12_8 C11_8 1_555 1_555
H7_8 C12_8 1_555 1_555
C13_8 C8_8 1_555 1_555
H8_8 C13_8 1_555 1_555
C14_8 C11_8 1_555 1_555
O13_4 C14_8 1_555 1_555
O14_4 C14_8 1_555 1_555
C12_8 C13_8 1_555 1_555

#END
