
###############################################################################
#
# This file contains modified crystal structure data generated from the
# MOF subset of the Cambridge Structural Database (CSD) v543 
# hosted by the Cambridge Crystallographic Data Centre (CCDC).
#
# This work is licensed under the Creative Commons
# Attribution-NonCommercial-ShareAlike 4.0 International License.
# To view a copy of this license, visit
# http://creativecommons.org/licenses/by-nc-sa/4.0/
# or send a letter to
# Creative Commons, PO Box 1866, Mountain View, CA 94042, USA.
#
# CIF created using the CSD Python API on 29 September 2022
# The structure has been converted into the P1 space group
# The structure has a 3D framework
# The original CSD entry GADSAH is in the monoclinic crystal system
# The framework has been calculated to contain at least 10.0% void space
# The void calculation uses a probe of radius 1.32A, grid spacing 0.4
#
###############################################################################

data_GADSAH
_chemical_formula_moiety         '(C120 H96 N20 Ni4 O20 S4)n'
_symmetry_cell_setting           triclinic
_symmetry_space_group_name_H-M   'P 1'
_symmetry_Int_Tables_number      1
_space_group_name_Hall           'P 1'
loop_
_symmetry_equiv_pos_site_id
_symmetry_equiv_pos_as_xyz
1 x,y,z
_cell_length_a                   12.7574(18)
_cell_length_b                   15.598(2)
_cell_length_c                   17.352(3)
_cell_angle_alpha                90
_cell_angle_beta                 104.505(2)
_cell_angle_gamma                90
_cell_volume                     3342.82
loop_
_atom_site_label
_atom_site_type_symbol
_atom_site_fract_x
_atom_site_fract_y
_atom_site_fract_z
C1 C 0.0540(3) 0.2552(2) 0.7342(2)
C2 C 0.0066(3) 0.2585(3) 0.6461(2)
C6 C 0.0138(3) 0.2251(2) 0.5122(2)
H3 H 0.0484 0.1976 0.4778
C7 C 0.0556(3) 0.2195(3) 0.5933(2)
H4 H 0.1188 0.1883 0.6130
O1 O 0.14502(18) 0.21877(16) 0.75801(13)
O2 O 0.00020(18) 0.28411(16) 0.77999(13)
Ni4 Ni 0.25864(3) 0.22096(3) 0.86522(2)
C16 C 0.0866(3) 0.0916(2) 0.8722(2)
H9 H 0.0734 0.0977 0.8173
C17 C 0.0217(3) 0.0379(3) 0.9018(2)
C18 C 0.0353(3) 0.0278(2) 0.9828(2)
C20 C 0.1867(3) 0.1230(3) 0.9965(2)
C21 C 0.3041(3) 0.3629(2) 0.7544(2)
H13 H 0.2290 0.3653 0.7376
C22 C 0.3625(3) 0.4200(2) 0.7217(2)
H14 H 0.3272 0.4581 0.6826
C23 C 0.4741(3) 0.4214(2) 0.7472(2)
C24 C 0.5208(3) 0.3598(2) 0.8029(2)
H15 H 0.5958 0.3568 0.8211
C25 C 0.4561(3) 0.3034(2) 0.8303(2)
H16 H 0.4896 0.2619 0.8667
C26 C 0.6824(3) 0.5892(2) 0.7447(2)
H17 H 0.7392 0.6155 0.7813
C27 C 0.6264(3) 0.5253(2) 0.7706(2)
H18 H 0.6464 0.5083 0.8237
C28 C 0.5405(3) 0.4858(2) 0.7187(2)
C29 C 0.5178(3) 0.5130(3) 0.6394(2)
H19 H 0.4610 0.4880 0.6018
C30 C 0.5798(3) 0.5748(2) 0.6183(2)
H20 H 0.5644 0.5902 0.5649
N3 N 0.3501(2) 0.30455(19) 0.80873(17)
N4 N 0.6602(2) 0.61548(18) 0.66876(17)
N5 N 0.1694(2) 0.13509(18) 0.91823(17)
O3 O 0.37742(18) 0.23194(16) 0.97105(14)
O4 O 0.3687(2) 0.37222(17) 0.99116(15)
O5 O 0.18294(19) 0.32417(16) 0.90166(14)
H23 H 0.2347 0.3516 0.9247
H24 H 0.1409 0.3472 0.8686
C56 C 0.3176(3) 0.0892(2) 0.7553(2)
H41 H 0.2608 0.1155 0.7187
C57 C 0.3736(3) 0.0253(2) 0.7294(2)
H42 H 0.3536 0.0083 0.6763
C59 C 0.4822(3) 0.0130(3) 0.8606(2)
C60 C 0.4202(3) 0.0748(2) 0.8817(2)
H44 H 0.4356 0.0902 0.9351
N10 N 0.3398(2) 0.11548(18) 0.83124(17)
Ni3 Ni 0.74136(3) 0.72096(3) 0.63478(2)
C51 C 0.6959(3) 0.8629(2) 0.7456(2)
H37 H 0.7710 0.8653 0.7624
C52 C 0.6375(3) 0.9200(2) 0.7783(2)
H38 H 0.6728 0.9581 0.8174
C53 C 0.5259(3) 0.9214(2) 0.7528(2)
C54 C 0.4792(3) 0.8598(2) 0.6971(2)
H39 H 0.4042 0.8568 0.6789
C55 C 0.5439(3) 0.8034(2) 0.6697(2)
H40 H 0.5104 0.7619 0.6333
C58 C 0.4595(3) 0.9858(2) 0.7813(2)
H43 H 0.5390 0.9880 0.8982
N8 N 0.6499(2) 0.80455(19) 0.69127(17)
C35 C 0.0815(3) 0.7688(3) 0.0174(2)
C38 C 0.2136(3) 0.7934(2) 0.1509(2)
C39 C 0.3110(3) 0.7823(3) 0.2949(2)
C40 C 0.3626(3) 0.8594(3) 0.3142(2)
H29 H 0.3374 0.9079 0.2841
C41 C 0.4517(3) 0.8648(3) 0.3764(2)
H30 H 0.4868 0.9172 0.3884
C42 C 0.4905(3) 0.7938(3) 0.42353(19)
C43 C 0.4341(3) 0.7177(3) 0.4058(2)
H31 H 0.4565 0.6696 0.4374
C44 C 0.3441(3) 0.7122(2) 0.3413(2)
H32 H 0.3076 0.6603 0.3299
C45 C 0.5900(3) 0.8002(2) 0.4918(2)
N6 N 0.1158(2) 0.7686(2) 0.09775(17)
H45 H 0.0671 0.7490 0.1231
N7 N 0.2207(2) 0.7730(2) 0.23243(16)
H46 H 0.1591 0.7537 0.2428
N13 N 0.8306(2) 0.63509(18) 0.58177(17)
O7 O 0.85498(18) 0.71877(16) 0.74199(13)
O9 O 0.62258(18) 0.73194(16) 0.52895(14)
O10 O 0.6313(2) 0.87222(17) 0.50884(15)
O11 O 0.81706(19) 0.82417(16) 0.59834(14)
H47 H 0.7653 0.8516 0.5753
H48 H 0.8591 0.8472 0.6314
S2 S 0.31486(8) 0.84109(7) 0.12412(6)
C16_2 C 0.9134(3) 0.5916(2) 0.6278(2)
H9_2 H 0.9266 0.5977 0.6827
C17_2 C 0.9783(3) 0.5379(3) 0.5982(2)
C18_2 C 0.9647(3) 0.5278(2) 0.5172(2)
C19 C 0.8770(3) 0.5714(2) 0.4702(2)
H11 H 0.8603 0.5650 0.4152
C20_2 C 0.8133(3) 0.6230(3) 0.5035(2)
H12 H 0.7554 0.6513 0.4699
C31 C 0.9460(3) 0.7552(2) 0.7658(2)
C32 C 0.9934(3) 0.7585(3) 0.8539(2)
C36 C 0.9862(3) 0.7251(2) 0.9878(2)
C37 C 0.9444(3) 0.7195(3) 0.9067(2)
H28 H 0.8812 0.6883 0.8870
H34 H 0.9655 0.4908 0.3668
O8 O 0.99980(18) 0.78411(16) 0.72001(13)
C3 C 0.9135(3) 0.1937(2) 0.1151(2)
H1 H 0.8808 0.1644 0.1495
C4 C 0.8690(3) 0.1881(3) 0.0335(2)
H2 H 0.8056 0.1570 0.0140
C3_2 C 0.9135(3) 0.3063(2) 0.6151(2)
H1_2 H 0.8808 0.3356 0.6495
C4_2 C 0.8690(3) 0.3119(3) 0.5335(2)
H2_2 H 0.8056 0.3430 0.5140
C5 C 0.9185(3) 0.2688(3) 0.4826(2)
C8 C 0.7864(3) 0.2934(2) 0.3491(2)
C9 C 0.6890(3) 0.2823(3) 0.2051(2)
C10 C 0.6374(3) 0.3594(3) 0.1858(2)
H5 H 0.6626 0.4079 0.2159
C11 C 0.5483(3) 0.3648(3) 0.1236(2)
H6 H 0.5132 0.4172 0.1116
C12 C 0.5095(3) 0.2938(3) 0.07647(19)
C13 C 0.5659(3) 0.2177(3) 0.0942(2)
H7 H 0.5435 0.1696 0.0626
C14 C 0.6559(3) 0.2122(2) 0.1587(2)
H8 H 0.6924 0.1603 0.1701
C15 C 0.4100(3) 0.3002(2) 0.0082(2)
C19_2 C 0.1230(3) 0.0714(2) 0.0298(2)
H11_2 H 0.1397 0.0650 0.0848
H12_2 H 0.2446 0.1513 0.0301
N1 N 0.8842(2) 0.2686(2) 0.40225(17)
H21 H 0.9329 0.2490 0.3769
N2 N 0.7793(2) 0.2730(2) 0.26757(16)
H22 H 0.8409 0.2537 0.2572
S1 S 0.68514(8) 0.34109(7) 0.37588(6)
H10 H 0.9655 0.0092 0.8668
H34_2 H 0.0345 0.9908 0.1332
C49 C 0.8770(3) 0.9286(2) 0.9702(2)
H35 H 0.8603 0.9350 0.9152
H36 H 0.7554 0.8487 0.9699
C33 C 0.0865(3) 0.6937(2) 0.3849(2)
H25 H 0.1192 0.6644 0.3505
C34 C 0.1310(3) 0.6881(3) 0.4665(2)
H26 H 0.1944 0.6570 0.4860
C35_2 C 0.0815(3) 0.7312(3) 0.5174(2)
C38_2 C 0.2136(3) 0.7066(2) 0.6509(2)
C39_2 C 0.3110(3) 0.7177(3) 0.7949(2)
C40_2 C 0.3626(3) 0.6406(3) 0.8142(2)
H29_2 H 0.3374 0.5921 0.7841
C41_2 C 0.4517(3) 0.6352(3) 0.8764(2)
H30_2 H 0.4868 0.5828 0.8884
C42_2 C 0.4905(3) 0.7062(3) 0.92353(19)
C43_2 C 0.4341(3) 0.7823(3) 0.9058(2)
H31_2 H 0.4565 0.8304 0.9374
C44_2 C 0.3441(3) 0.7878(2) 0.8413(2)
H32_2 H 0.3076 0.8397 0.8299
C45_2 C 0.5900(3) 0.6998(2) 0.9918(2)
N6_2 N 0.1158(2) 0.7314(2) 0.59775(17)
H45_2 H 0.0671 0.7510 0.6231
N7_2 N 0.2207(2) 0.7270(2) 0.73243(16)
H46_2 H 0.1591 0.7463 0.7428
S2_2 S 0.31486(8) 0.65891(7) 0.62412(6)
C46 C 0.9134(3) 0.9084(2) 0.1278(2)
H33 H 0.9266 0.9023 0.1827
C47 C 0.9783(3) 0.9621(3) 0.0982(2)
C48 C 0.9647(3) 0.9722(2) 0.0172(2)
C50 C 0.8133(3) 0.8770(3) 0.0035(2)
N12 N 0.8306(2) 0.86491(18) 0.08177(17)
Ni5 Ni 0.74136(3) 0.77904(3) 0.13478(2)
H10_2 H 0.0345 0.5092 0.6332
C33_2 C 0.0865(3) 0.8063(2) 0.8849(2)
H25_2 H 0.1192 0.8356 0.8505
C34_2 C 0.1310(3) 0.8119(3) 0.9665(2)
H26_2 H 0.1944 0.8430 0.9860
C46_2 C 0.0866(3) 0.4084(2) 0.3722(2)
H33_2 H 0.0734 0.4023 0.3173
C47_2 C 0.0217(3) 0.4621(3) 0.4018(2)
C48_2 C 0.0353(3) 0.4722(2) 0.4828(2)
C49_2 C 0.1230(3) 0.4286(2) 0.5298(2)
H35_2 H 0.1397 0.4350 0.5848
C50_2 C 0.1867(3) 0.3770(3) 0.4965(2)
H36_2 H 0.2446 0.3487 0.5301
N12_2 N 0.1694(2) 0.36491(18) 0.41823(17)
Ni5_2 Ni 0.25864(3) 0.27904(3) 0.36522(2)
N9 N 0.6499(2) 0.69545(19) 0.19127(17)
N11 N 0.6602(2) 0.88452(18) 0.16876(17)
O7_2 O 0.85498(18) 0.78123(16) 0.24199(13)
O9_2 O 0.62258(18) 0.76806(16) 0.02895(14)
O10_2 O 0.6313(2) 0.62778(17) 0.00884(15)
O11_2 O 0.81706(19) 0.67583(16) 0.09834(14)
H47_2 H 0.7653 0.6484 0.0753
H48_2 H 0.8591 0.6528 0.1314
C51_2 C 0.3041(3) 0.1371(2) 0.2544(2)
H37_2 H 0.2290 0.1347 0.2376
C52_2 C 0.3625(3) 0.0800(2) 0.2217(2)
H38_2 H 0.3272 0.0419 0.1826
C53_2 C 0.4741(3) 0.0786(2) 0.2472(2)
C54_2 C 0.5208(3) 0.1402(2) 0.3029(2)
H39_2 H 0.5958 0.1432 0.3211
C55_2 C 0.4561(3) 0.1966(2) 0.3303(2)
H40_2 H 0.4896 0.2381 0.3667
C58_2 C 0.5405(3) 0.0142(2) 0.2187(2)
H43_2 H 0.4610 0.0120 0.1018
N8_2 N 0.3501(2) 0.19545(19) 0.30873(17)
C21_2 C 0.6959(3) 0.6371(2) 0.2456(2)
H13_2 H 0.7710 0.6347 0.2624
C22_2 C 0.6375(3) 0.5800(2) 0.2783(2)
H14_2 H 0.6728 0.5419 0.3174
C23_2 C 0.5259(3) 0.5786(2) 0.2528(2)
C24_2 C 0.4792(3) 0.6402(2) 0.1971(2)
H15_2 H 0.4042 0.6432 0.1789
C25_2 C 0.5439(3) 0.6966(2) 0.1697(2)
H16_2 H 0.5104 0.7381 0.1333
C26_2 C 0.3176(3) 0.4108(2) 0.2553(2)
H17_2 H 0.2608 0.3845 0.2187
C27_2 C 0.3736(3) 0.4747(2) 0.2294(2)
H18_2 H 0.3536 0.4917 0.1763
C28_2 C 0.4595(3) 0.5142(2) 0.2813(2)
C29_2 C 0.4822(3) 0.4870(3) 0.3606(2)
H19_2 H 0.5390 0.5120 0.3982
C30_2 C 0.4202(3) 0.4252(2) 0.3817(2)
H20_2 H 0.4356 0.4098 0.4351
N4_2 N 0.3398(2) 0.38452(18) 0.33124(17)
C31_2 C 0.9460(3) 0.7448(2) 0.2658(2)
C32_2 C 0.9934(3) 0.7415(3) 0.3539(2)
C36_2 C 0.9862(3) 0.7749(2) 0.4878(2)
H27 H 0.9516 0.8024 0.5222
C37_2 C 0.9444(3) 0.7805(3) 0.4067(2)
H28_2 H 0.8812 0.8117 0.3870
C56_2 C 0.6824(3) 0.9108(2) 0.2447(2)
H41_2 H 0.7392 0.8845 0.2813
C57_2 C 0.6264(3) 0.9747(2) 0.2706(2)
H42_2 H 0.6464 0.9917 0.3237
C59_2 C 0.5178(3) 0.9870(3) 0.1394(2)
C60_2 C 0.5798(3) 0.9252(2) 0.1183(2)
H44_2 H 0.5644 0.9098 0.0649
O8_2 O 0.99980(18) 0.71589(16) 0.22001(13)
C1_2 C 0.0540(3) 0.2448(2) 0.2342(2)
C2_2 C 0.0066(3) 0.2415(3) 0.1461(2)
C6_2 C 0.0138(3) 0.2749(2) 0.0122(2)
C7_2 C 0.0556(3) 0.2805(3) 0.0933(2)
H4_2 H 0.1188 0.3117 0.1130
O1_2 O 0.14502(18) 0.28123(16) 0.25801(13)
O2_2 O 0.00020(18) 0.21589(16) 0.27999(13)
C5_2 C 0.9185(3) 0.2312(3) 0.9826(2)
C8_2 C 0.7864(3) 0.2066(2) 0.8491(2)
C9_2 C 0.6890(3) 0.2177(3) 0.7051(2)
C10_2 C 0.6374(3) 0.1406(3) 0.6858(2)
H5_2 H 0.6626 0.0921 0.7159
C11_2 C 0.5483(3) 0.1352(3) 0.6236(2)
H6_2 H 0.5132 0.0828 0.6116
C12_2 C 0.5095(3) 0.2062(3) 0.57647(19)
C13_2 C 0.5659(3) 0.2823(3) 0.5942(2)
H7_2 H 0.5435 0.3304 0.5626
C14_2 C 0.6559(3) 0.2878(2) 0.6587(2)
H8_2 H 0.6924 0.3397 0.6701
C15_2 C 0.4100(3) 0.1998(2) 0.5082(2)
N1_2 N 0.8842(2) 0.2314(2) 0.90225(17)
H21_2 H 0.9329 0.2510 0.8769
N2_2 N 0.7793(2) 0.2270(2) 0.76757(16)
H22_2 H 0.8409 0.2463 0.7572
O3_2 O 0.37742(18) 0.26806(16) 0.47105(14)
O4_2 O 0.3687(2) 0.12778(17) 0.49116(15)
O5_2 O 0.18294(19) 0.17583(16) 0.40166(14)
H23_2 H 0.2347 0.1484 0.4247
H24_2 H 0.1409 0.1528 0.3686
S1_2 S 0.68514(8) 0.15891(7) 0.87588(6)
H27_2 H 0.9516 0.6976 0.0222
H3_2 H 0.0484 0.3024 0.9778
loop_
_geom_bond_atom_site_label_1
_geom_bond_atom_site_label_2
_geom_bond_site_symmetry_1
_geom_bond_site_symmetry_2
C1 C2 1_555 1_555
H3 C6 1_555 1_555
C7 C2 1_555 1_555
H4 C7 1_555 1_555
O1 C1 1_555 1_555
O2 C1 1_555 1_555
Ni4 O1 1_555 1_555
C6 C7 1_555 1_555
C16 H9 1_555 1_555
C17 C16 1_555 1_555
C18 C17 1_555 1_555
C21 H13 1_555 1_555
C22 C21 1_555 1_555
H14 C22 1_555 1_555
C23 C22 1_555 1_555
C24 C23 1_555 1_555
H15 C24 1_555 1_555
C25 C24 1_555 1_555
H16 C25 1_555 1_555
C26 H17 1_555 1_555
C27 C26 1_555 1_555
H18 C27 1_555 1_555
C28 C23 1_555 1_555
C29 C28 1_555 1_555
H19 C29 1_555 1_555
C30 C29 1_555 1_555
H20 C30 1_555 1_555
N3 C21 1_555 1_555
N4 C26 1_555 1_555
N5 C16 1_555 1_555
Ni4 N3 1_555 1_555
O5 Ni4 1_555 1_555
H23 O5 1_555 1_555
H24 O5 1_555 1_555
C56 H41 1_555 1_555
C57 C56 1_555 1_555
H42 C57 1_555 1_555
C60 C59 1_555 1_555
H44 C60 1_555 1_555
N10 Ni4 1_555 1_555
Ni3 N4 1_555 1_555
C20 N5 1_555 1_555
C25 N3 1_555 1_555
C27 C28 1_555 1_555
C30 N4 1_555 1_555
N5 Ni4 1_555 1_555
Ni4 O3 1_555 1_555
C56 N10 1_555 1_555
C60 N10 1_555 1_555
C51 H37 1_555 1_555
C52 C51 1_555 1_555
H38 C52 1_555 1_555
C53 C52 1_555 1_555
C54 C53 1_555 1_555
H39 C54 1_555 1_555
C55 C54 1_555 1_555
H40 C55 1_555 1_555
C58 C53 1_555 1_555
N8 C51 1_555 1_555
Ni3 N8 1_555 1_555
C55 N8 1_555 1_555
C38 N6 1_555 1_555
C39 C40 1_555 1_555
C40 H29 1_555 1_555
C41 C40 1_555 1_555
H30 C41 1_555 1_555
C42 C41 1_555 1_555
C43 C42 1_555 1_555
H31 C43 1_555 1_555
C44 C39 1_555 1_555
H32 C44 1_555 1_555
C45 C42 1_555 1_555
N6 C35 1_555 1_555
H45 N6 1_555 1_555
N7 C38 1_555 1_555
H46 N7 1_555 1_555
N13 Ni3 1_555 1_555
Ni3 O7 1_555 1_555
O9 C45 1_555 1_555
O10 C45 1_555 1_555
O11 Ni3 1_555 1_555
H47 O11 1_555 1_555
H48 O11 1_555 1_555
S2 C38 1_555 1_555
C39 N7 1_555 1_555
C43 C44 1_555 1_555
Ni3 O9 1_555 1_555
C16_2 H9_2 1_555 1_555
C17_2 C16_2 1_555 1_555
C18_2 C17_2 1_555 1_555
C19 C18_2 1_555 1_555
H11 C19 1_555 1_555
C20_2 C19 1_555 1_555
H12 C20_2 1_555 1_555
N13 C16_2 1_555 1_555
C31 C32 1_555 1_555
C37 C32 1_555 1_555
H28 C37 1_555 1_555
O8 C31 1_555 1_555
C20_2 N13 1_555 1_555
C31 O7 1_555 1_555
C36 C37 1_555 1_555
C3 H1 1_555 1_555
C4 C3 1_555 1_555
H2 C4 1_555 1_555
C3_2 H1_2 1_555 1_555
C4_2 C3_2 1_555 1_555
H2_2 C4_2 1_555 1_555
C5 C4_2 1_555 1_555
C8 N1 1_555 1_555
C9 C10 1_555 1_555
C10 H5 1_555 1_555
C11 C10 1_555 1_555
H6 C11 1_555 1_555
C12 C11 1_555 1_555
C13 C12 1_555 1_555
H7 C13 1_555 1_555
C14 C9 1_555 1_555
H8 C14 1_555 1_555
C15 C12 1_555 1_555
H11_2 C19_2 1_555 1_555
N1 C5 1_555 1_555
H21 N1 1_555 1_555
N2 C8 1_555 1_555
H22 N2 1_555 1_555
S1 C8 1_555 1_555
C9 N2 1_555 1_555
C13 C14 1_555 1_555
H35 C49 1_555 1_555
C33 H25 1_555 1_555
C34 C33 1_555 1_555
H26 C34 1_555 1_555
C35_2 C34 1_555 1_555
C38_2 N6_2 1_555 1_555
C39_2 C40_2 1_555 1_555
C40_2 H29_2 1_555 1_555
C41_2 C40_2 1_555 1_555
H30_2 C41_2 1_555 1_555
C42_2 C41_2 1_555 1_555
C43_2 C42_2 1_555 1_555
H31_2 C43_2 1_555 1_555
C44_2 C39_2 1_555 1_555
H32_2 C44_2 1_555 1_555
C45_2 C42_2 1_555 1_555
N6_2 C35_2 1_555 1_555
H45_2 N6_2 1_555 1_555
N7_2 C38_2 1_555 1_555
H46_2 N7_2 1_555 1_555
S2_2 C38_2 1_555 1_555
C39_2 N7_2 1_555 1_555
C43_2 C44_2 1_555 1_555
C46 H33 1_555 1_555
C47 C46 1_555 1_555
N12 C46 1_555 1_555
Ni5 N12 1_555 1_555
C47 C48 1_555 1_555
C50 N12 1_555 1_555
C33_2 H25_2 1_555 1_555
C34_2 C33_2 1_555 1_555
H26_2 C34_2 1_555 1_555
C46_2 H33_2 1_555 1_555
C47_2 C46_2 1_555 1_555
C49_2 C48_2 1_555 1_555
H35_2 C49_2 1_555 1_555
C50_2 C49_2 1_555 1_555
H36_2 C50_2 1_555 1_555
N12_2 C46_2 1_555 1_555
Ni5_2 N12_2 1_555 1_555
C47_2 C48_2 1_555 1_555
C50_2 N12_2 1_555 1_555
N9 Ni5 1_555 1_555
N11 Ni5 1_555 1_555
Ni5 O7_2 1_555 1_555
O11_2 Ni5 1_555 1_555
H47_2 O11_2 1_555 1_555
H48_2 O11_2 1_555 1_555
Ni5 O9_2 1_555 1_555
C51_2 H37_2 1_555 1_555
C52_2 C51_2 1_555 1_555
H38_2 C52_2 1_555 1_555
C53_2 C52_2 1_555 1_555
C54_2 C53_2 1_555 1_555
H39_2 C54_2 1_555 1_555
C55_2 C54_2 1_555 1_555
H40_2 C55_2 1_555 1_555
C58_2 C53_2 1_555 1_555
N8_2 C51_2 1_555 1_555
Ni5_2 N8_2 1_555 1_555
C55_2 N8_2 1_555 1_555
C21_2 H13_2 1_555 1_555
C22_2 C21_2 1_555 1_555
H14_2 C22_2 1_555 1_555
C23_2 C22_2 1_555 1_555
C24_2 C23_2 1_555 1_555
H15_2 C24_2 1_555 1_555
C25_2 C24_2 1_555 1_555
H16_2 C25_2 1_555 1_555
C26_2 H17_2 1_555 1_555
C27_2 C26_2 1_555 1_555
H18_2 C27_2 1_555 1_555
C28_2 C23_2 1_555 1_555
C29_2 C28_2 1_555 1_555
H19_2 C29_2 1_555 1_555
C30_2 C29_2 1_555 1_555
H20_2 C30_2 1_555 1_555
N9 C21_2 1_555 1_555
N4_2 C26_2 1_555 1_555
C31_2 C32_2 1_555 1_555
H27 C36_2 1_555 1_555
C37_2 C32_2 1_555 1_555
H28_2 C37_2 1_555 1_555
C56_2 H41_2 1_555 1_555
C57_2 C56_2 1_555 1_555
H42_2 C57_2 1_555 1_555
C60_2 C59_2 1_555 1_555
H44_2 C60_2 1_555 1_555
Ni5_2 N4_2 1_555 1_555
O8_2 C31_2 1_555 1_555
C25_2 N9 1_555 1_555
C27_2 C28_2 1_555 1_555
C30_2 N4_2 1_555 1_555
C31_2 O7_2 1_555 1_555
C36_2 C37_2 1_555 1_555
C56_2 N11 1_555 1_555
C60_2 N11 1_555 1_555
C1_2 C2_2 1_555 1_555
C7_2 C2_2 1_555 1_555
H4_2 C7_2 1_555 1_555
O1_2 C1_2 1_555 1_555
O2_2 C1_2 1_555 1_555
Ni5_2 O1_2 1_555 1_555
C6_2 C7_2 1_555 1_555
C8_2 N1_2 1_555 1_555
C9_2 C10_2 1_555 1_555
C10_2 H5_2 1_555 1_555
C11_2 C10_2 1_555 1_555
H6_2 C11_2 1_555 1_555
C12_2 C11_2 1_555 1_555
C13_2 C12_2 1_555 1_555
H7_2 C13_2 1_555 1_555
C14_2 C9_2 1_555 1_555
H8_2 C14_2 1_555 1_555
C15_2 C12_2 1_555 1_555
N1_2 C5_2 1_555 1_555
H21_2 N1_2 1_555 1_555
N2_2 C8_2 1_555 1_555
H22_2 N2_2 1_555 1_555
O3_2 C15_2 1_555 1_555
O4_2 C15_2 1_555 1_555
O5_2 Ni5_2 1_555 1_555
H23_2 O5_2 1_555 1_555
H24_2 O5_2 1_555 1_555
S1_2 C8_2 1_555 1_555
C9_2 N2_2 1_555 1_555
C13_2 C14_2 1_555 1_555
Ni5_2 O3_2 1_555 1_555

#END
