
###############################################################################
#
# This file contains modified crystal structure data generated from the
# MOF subset of the Cambridge Structural Database (CSD) v543 
# hosted by the Cambridge Crystallographic Data Centre (CCDC).
#
# This work is licensed under the Creative Commons
# Attribution-NonCommercial-ShareAlike 4.0 International License.
# To view a copy of this license, visit
# http://creativecommons.org/licenses/by-nc-sa/4.0/
# or send a letter to
# Creative Commons, PO Box 1866, Mountain View, CA 94042, USA.
#
# CIF created using the CSD Python API on 29 September 2022
# The structure has been converted into the P1 space group
# The structure has a 3D framework
# The original CSD entry GAGSUF is in the hexagonal crystal system
# The framework has been calculated to contain at least 10.0% void space
# The void calculation uses a probe of radius 1.32A, grid spacing 0.4
# H atom positions have been added when not included in the experimental data
# Generated hydrogen atom positions removed from atoms on special positions
#
###############################################################################

data_GAGSUF
_chemical_formula_moiety         '(C54 H60 O44 Th6)n'
_symmetry_cell_setting           triclinic
_symmetry_space_group_name_H-M   'P 1'
_symmetry_Int_Tables_number      1
_space_group_name_Hall           'P 1'
loop_
_symmetry_equiv_pos_site_id
_symmetry_equiv_pos_as_xyz
1 x,y,z
_cell_length_a                   18.4448(6)
_cell_length_b                   18.4448(6)
_cell_length_c                   9.8084(3)
_cell_angle_alpha                90
_cell_angle_beta                 90
_cell_angle_gamma                120
_cell_volume                     2889.86
loop_
_atom_site_label
_atom_site_type_symbol
_atom_site_fract_x
_atom_site_fract_y
_atom_site_fract_z
O11 O 0.3122(3) 0.7738(5) 0.5044(4)
O12 O 0.2061(3) 0.6732(4) 0.6141(4)
C10 C 0.2406(4) 0.7108(7) 0.5045(5)
C11 C 0.0676(5) 0.5908(7) 0.2500
C13 C 0.1948(4) 0.6796(7) 0.3729(5)
C14 C 0.2367(5) 0.7101(9) 0.2500
H4 H 0.2930 0.7511 0.2500
C15 C 0.1109(4) 0.6195(6) 0.3733(5)
H5 H 0.0832 0.5982 0.4555
C17 C 0.1948(4) 0.6796(7) 0.1271(5)
C18 C 0.1109(4) 0.6195(6) 0.1267(5)
H6 H 0.0832 0.5982 0.0445
Th7 Th 0.35383(2) 0.79799(2) 0.7500
Th11 Th 0.20201(2) 0.55584(3) 0.7500
O14 O 0.3122(3) 0.7738(5) 0.9956(4)
O15 O 0.2061(3) 0.6732(4) 0.8859(4)
C16 C 0.2406(4) 0.7108(7) 0.9955(5)
Th1 Th 0.64617(2) 0.20201(2) 0.2500
O1 O 0.5686(4) 0.0623(3) 0.3610(4)
O2 O 0.6667 0.3333 0.2500
O3 O 0.7476(5) 0.1572(5) 0.2500
C3 C 0.5538(6) 0.0228(5) 0.2500
O6 O 0.5686(4) 0.0623(3) 0.1390(4)
Th2 Th 0.79799(2) 0.44416(3) 0.2500
O9 O 0.9377(3) 0.5063(5) 0.3610(4)
O10 O 0.8428(5) 0.5904(7) 0.2500
C12 C 0.9772(5) 0.5310(8) 0.2500
O13 O 0.9377(3) 0.5063(5) 0.1390(4)
Th3 Th 0.55584(3) 0.35383(2) 0.2500
O16 O 0.4937(5) 0.4314(4) 0.3610(4)
O17 O 0.4096(7) 0.2524(5) 0.2500
O18 O 0.2262(5) 0.5384(4) 0.5044(4)
O19 O 0.3268(4) 0.5329(2) 0.6141(4)
C19 C 0.2892(7) 0.5298(6) 0.5045(5)
C20 C 0.4092(7) 0.4768(5) 0.2500
C21 C 0.4690(8) 0.4462(6) 0.2500
C22 C 0.3204(7) 0.5152(6) 0.3729(5)
C23 C 0.2899(9) 0.5266(8) 0.2500
H7 H 0.2489 0.5419 0.2500
C24 C 0.3805(6) 0.4914(4) 0.3733(5)
H8 H 0.4018 0.4850 0.4555
O20 O 0.4937(5) 0.4314(4) 0.1390(4)
C26 C 0.3204(7) 0.5152(6) 0.1271(5)
C27 C 0.3805(6) 0.4914(4) 0.1267(5)
H9 H 0.4018 0.4850 0.0445
Th15 Th 0.44416(3) 0.64617(2) 0.7500
O23 O 0.5384(4) 0.3122(3) 0.0044(4)
O24 O 0.6878(3) 0.2262(5) 0.0044(4)
O25 O 0.7738(5) 0.4616(4) 0.0044(4)
O26 O 0.5384(4) 0.3122(3) 0.4956(4)
O27 O 0.6878(3) 0.2262(5) 0.4956(4)
O28 O 0.7738(5) 0.4616(4) 0.4956(4)
O29 O 0.5329(2) 0.2061(3) 0.1141(4)
O30 O 0.7939(3) 0.3268(4) 0.1141(4)
O31 O 0.6732(4) 0.4671(2) 0.1141(4)
O32 O 0.5329(2) 0.2061(3) 0.3859(4)
O33 O 0.7939(3) 0.3268(4) 0.3859(4)
O34 O 0.6732(4) 0.4671(2) 0.3859(4)
O21 O 0.2262(5) 0.5384(4) 0.9956(4)
O22 O 0.3268(4) 0.5329(2) 0.8859(4)
C25 C 0.2892(7) 0.5298(6) 0.9955(5)
O4 O 0.4616(4) 0.6878(3) 0.5044(4)
O5 O 0.4671(2) 0.7939(3) 0.6141(4)
C1 C 0.4702(6) 0.7594(4) 0.5045(5)
C2 C 0.5232(5) 0.9324(5) 0.2500
C4 C 0.4848(6) 0.8052(4) 0.3729(5)
C5 C 0.4734(8) 0.7633(5) 0.2500
H1 H 0.4581 0.7070 0.2500
C6 C 0.5086(4) 0.8891(4) 0.3733(5)
H2 H 0.5150 0.9168 0.4555
C8 C 0.4848(6) 0.8052(4) 0.1271(5)
C9 C 0.5086(4) 0.8891(4) 0.1267(5)
H3 H 0.5150 0.9168 0.0445
O7 O 0.4616(4) 0.6878(3) 0.9956(4)
O8 O 0.4671(2) 0.7939(3) 0.8859(4)
C7 C 0.4702(6) 0.7594(4) 0.9955(5)
C1_2 C 0.5298(6) 0.2406(4) 0.0045(5)
C2_2 C 0.4768(5) 0.0676(5) 0.7500
C4_2 C 0.5152(6) 0.1948(4) 0.8729(5)
C5_2 C 0.5266(8) 0.2367(5) 0.7500
H1_2 H 0.5419 0.2930 0.7500
C6_2 C 0.4914(4) 0.1109(4) 0.8733(5)
H2_2 H 0.4850 0.0832 0.9555
C7_2 C 0.5298(6) 0.2406(4) 0.4955(5)
C8_2 C 0.5152(6) 0.1948(4) 0.6271(5)
C9_2 C 0.4914(4) 0.1109(4) 0.6267(5)
H3_2 H 0.4850 0.0832 0.5445
C19_2 C 0.7108(7) 0.4702(6) 0.0045(5)
O1_2 O 0.4314(4) 0.9377(3) 0.8610(4)
O2_2 O 0.3333 0.6667 0.7500
O3_2 O 0.2524(5) 0.8428(5) 0.7500
C3_2 C 0.4462(6) 0.9772(5) 0.7500
O6_2 O 0.4314(4) 0.9377(3) 0.6390(4)
O9_2 O 0.0623(3) 0.4937(5) 0.8610(4)
O10_2 O 0.1572(5) 0.4096(7) 0.7500
C12_2 C 0.0228(5) 0.4690(8) 0.7500
O13_2 O 0.0623(3) 0.4937(5) 0.6390(4)
O16_2 O 0.5063(5) 0.5686(4) 0.8610(4)
O17_2 O 0.5904(7) 0.7476(5) 0.7500
C20_2 C 0.5908(7) 0.5232(5) 0.7500
C21_2 C 0.5310(8) 0.5538(6) 0.7500
C22_2 C 0.6796(7) 0.4848(6) 0.8729(5)
C23_2 C 0.7101(9) 0.4734(8) 0.7500
H7_2 H 0.7511 0.4581 0.7500
C24_2 C 0.6195(6) 0.5086(4) 0.8733(5)
H8_2 H 0.5982 0.5150 0.9555
O20_2 O 0.5063(5) 0.5686(4) 0.6390(4)
C25_2 C 0.7108(7) 0.4702(6) 0.4955(5)
C26_2 C 0.6796(7) 0.4848(6) 0.6271(5)
C27_2 C 0.6195(6) 0.5086(4) 0.6267(5)
H9_2 H 0.5982 0.5150 0.5445
C10_2 C 0.7594(4) 0.2892(7) 0.0045(5)
C11_2 C 0.9324(5) 0.4092(7) 0.7500
C13_2 C 0.8052(4) 0.3204(7) 0.8729(5)
C14_2 C 0.7633(5) 0.2899(9) 0.7500
H4_2 H 0.7070 0.2489 0.7500
C15_2 C 0.8891(4) 0.3805(6) 0.8733(5)
H5_2 H 0.9168 0.4018 0.9555
C16_2 C 0.7594(4) 0.2892(7) 0.4955(5)
C17_2 C 0.8052(4) 0.3204(7) 0.6271(5)
C18_2 C 0.8891(4) 0.3805(6) 0.6267(5)
H6_2 H 0.9168 0.4018 0.5445
loop_
_geom_bond_atom_site_label_1
_geom_bond_atom_site_label_2
_geom_bond_site_symmetry_1
_geom_bond_site_symmetry_2
O11 C10 1_555 1_555
O12 C10 1_555 1_555
C10 C13 1_555 1_555
C13 C14 1_555 1_555
C14 H4 1_555 1_555
C15 C11 1_555 1_555
H5 C15 1_555 1_555
C17 C14 1_555 1_555
C18 C11 1_555 1_555
H6 C18 1_555 1_555
Th7 O11 1_555 1_555
Th11 O12 1_555 1_555
O12 Th7 1_555 1_555
C13 C15 1_555 1_555
C17 C18 1_555 1_555
O14 C16 1_555 1_555
O15 C16 1_555 1_555
Th7 O14 1_555 1_555
Th11 O15 1_555 1_555
O15 Th7 1_555 1_555
Th1 O1 1_555 1_555
O1 C3 1_555 1_555
O2 Th1 1_555 1_555
O3 Th1 1_555 1_555
C3 O6 1_555 1_555
O6 Th1 1_555 1_555
Th2 O2 1_555 1_555
O9 Th2 1_555 1_555
O10 Th2 1_555 1_555
C12 O9 1_555 1_555
O13 Th2 1_555 1_555
Th3 O2 1_555 1_555
O16 Th3 1_555 1_555
O17 Th3 1_555 1_555
O18 C19 1_555 1_555
O19 C19 1_555 1_555
C19 C22 1_555 1_555
C20 C21 1_555 1_555
C21 O16 1_555 1_555
C22 C23 1_555 1_555
C23 H7 1_555 1_555
C24 C20 1_555 1_555
H8 C24 1_555 1_555
O20 Th3 1_555 1_555
C26 C23 1_555 1_555
C27 C20 1_555 1_555
H9 C27 1_555 1_555
Th11 O18 1_555 1_555
Th15 O19 1_555 1_555
O23 Th3 1_555 1_555
O24 Th1 1_555 1_555
O25 Th2 1_555 1_555
O26 Th3 1_555 1_555
O27 Th1 1_555 1_555
O28 Th2 1_555 1_555
O29 Th1 1_555 1_555
O30 Th1 1_555 1_555
O31 Th2 1_555 1_555
O32 Th1 1_555 1_555
O33 Th1 1_555 1_555
O34 Th2 1_555 1_555
Th2 O30 1_555 1_555
Th2 O33 1_555 1_555
C12 O13 1_555 1_555
Th3 O29 1_555 1_555
Th3 O31 1_555 1_555
Th3 O32 1_555 1_555
Th3 O34 1_555 1_555
O19 Th11 1_555 1_555
C21 O20 1_555 1_555
C22 C24 1_555 1_555
C26 C27 1_555 1_555
O21 C25 1_555 1_555
O22 C25 1_555 1_555
Th11 O21 1_555 1_555
Th15 O22 1_555 1_555
O22 Th11 1_555 1_555
O4 C1 1_555 1_555
O5 C1 1_555 1_555
C1 C4 1_555 1_555
C4 C5 1_555 1_555
C5 H1 1_555 1_555
C6 C2 1_555 1_555
H2 C6 1_555 1_555
C8 C5 1_555 1_555
C9 C2 1_555 1_555
H3 C9 1_555 1_555
Th7 O5 1_555 1_555
Th15 O4 1_555 1_555
O5 Th15 1_555 1_555
C4 C6 1_555 1_555
C8 C9 1_555 1_555
O7 C7 1_555 1_555
O8 C7 1_555 1_555
Th7 O8 1_555 1_555
Th15 O7 1_555 1_555
O8 Th15 1_555 1_555
O23 C1_2 1_555 1_555
O29 C1_2 1_555 1_555
C4_2 C5_2 1_555 1_555
C5_2 H1_2 1_555 1_555
C6_2 C2_2 1_555 1_555
H2_2 C6_2 1_555 1_555
O26 C7_2 1_555 1_555
O32 C7_2 1_555 1_555
C7_2 C8_2 1_555 1_555
C8_2 C5_2 1_555 1_555
C9_2 C2_2 1_555 1_555
H3_2 C9_2 1_555 1_555
C4_2 C6_2 1_555 1_555
C8_2 C9_2 1_555 1_555
O25 C19_2 1_555 1_555
O31 C19_2 1_555 1_555
Th7 O1_2 1_555 1_555
O1_2 C3_2 1_555 1_555
O2_2 Th7 1_555 1_555
O3_2 Th7 1_555 1_555
C3_2 O6_2 1_555 1_555
O6_2 Th7 1_555 1_555
Th11 O2_2 1_555 1_555
O9_2 Th11 1_555 1_555
O10_2 Th11 1_555 1_555
C12_2 O9_2 1_555 1_555
O13_2 Th11 1_555 1_555
Th15 O2_2 1_555 1_555
O16_2 Th15 1_555 1_555
O17_2 Th15 1_555 1_555
C20_2 C21_2 1_555 1_555
C21_2 O16_2 1_555 1_555
C22_2 C23_2 1_555 1_555
C23_2 H7_2 1_555 1_555
C24_2 C20_2 1_555 1_555
H8_2 C24_2 1_555 1_555
O20_2 Th15 1_555 1_555
O28 C25_2 1_555 1_555
O34 C25_2 1_555 1_555
C25_2 C26_2 1_555 1_555
C26_2 C23_2 1_555 1_555
C27_2 C20_2 1_555 1_555
H9_2 C27_2 1_555 1_555
C12_2 O13_2 1_555 1_555
C21_2 O20_2 1_555 1_555
C22_2 C24_2 1_555 1_555
C26_2 C27_2 1_555 1_555
O24 C10_2 1_555 1_555
O30 C10_2 1_555 1_555
C13_2 C14_2 1_555 1_555
C14_2 H4_2 1_555 1_555
C15_2 C11_2 1_555 1_555
H5_2 C15_2 1_555 1_555
O27 C16_2 1_555 1_555
O33 C16_2 1_555 1_555
C16_2 C17_2 1_555 1_555
C17_2 C14_2 1_555 1_555
C18_2 C11_2 1_555 1_555
H6_2 C18_2 1_555 1_555
C13_2 C15_2 1_555 1_555
C17_2 C18_2 1_555 1_555

#END
