
###############################################################################
#
# This file contains modified crystal structure data generated from the
# MOF subset of the Cambridge Structural Database (CSD) v543 
# hosted by the Cambridge Crystallographic Data Centre (CCDC).
#
# This work is licensed under the Creative Commons
# Attribution-NonCommercial-ShareAlike 4.0 International License.
# To view a copy of this license, visit
# http://creativecommons.org/licenses/by-nc-sa/4.0/
# or send a letter to
# Creative Commons, PO Box 1866, Mountain View, CA 94042, USA.
#
# CIF created using the CSD Python API on 29 September 2022
# The structure has been converted into the P1 space group
# The structure has a 3D framework
# The original CSD entry GAGTOA is in the rhombohedral crystal system
# The framework has been calculated to contain at least 10.0% void space
# The void calculation uses a probe of radius 1.32A, grid spacing 0.4
# H atom positions have been added when not included in the experimental data
# Generated hydrogen atom positions removed from atoms on special positions
#
###############################################################################

data_GAGTOA
_chemical_formula_moiety         '(C486 H270 O328 Th48)n'
_symmetry_cell_setting           triclinic
_symmetry_space_group_name_H-M   'P 1'
_symmetry_Int_Tables_number      1
_space_group_name_Hall           'P 1'
loop_
_symmetry_equiv_pos_site_id
_symmetry_equiv_pos_as_xyz
1 x,y,z
_cell_length_a                   25.5111(13)
_cell_length_b                   25.5111(13)
_cell_length_c                   24.095(2)
_cell_angle_alpha                90
_cell_angle_beta                 90
_cell_angle_gamma                120
_cell_volume                     13580.5
loop_
_atom_site_label
_atom_site_type_symbol
_atom_site_fract_x
_atom_site_fract_y
_atom_site_fract_z
Th14 Th 0.05230(2) 0.24315(3) 0.03821(2)
O6 O 0.0601(3) 0.3759(2) 0.9293(2)
O16 O 0.0449(2) 0.2849(3) 0.9509(2)
C20 C 0.0355(6) 0.3194(4) 0.9215(3)
H9 H 0.0235 0.3698 0.8277
Th19 Th 0.09018(3) 0.47582(2) 0.70488(2)
Th34 Th 0.09420(3) 0.47802(2) 0.95264(2)
Th37 Th 0.0000 -0.0000 0.63536(2)
Th37_2 Th 0.0000 1.0000 0.63536(2)
Th24 Th 0.61619(2) 0.09420(3) 0.04736(2)
O59 O 0.8634(2) 0.1482(4) 0.0064(2)
O87 O 0.7600(4) 0.0449(2) 0.0491(2)
Th1 Th 0.80915(2) 0.05230(2) 0.96179(2)
Th2 Th 0.81135(2) 0.05048(2) 0.71403(2)
O3 O 0.8311(2) 0.1156(2) 0.7916(2)
O4 O 0.9957(4) 0.3933(2) 0.7323(2)
O7 O 0.8402(3) 0.1196(2) 0.8836(2)
O9 O 0.9087(2) 0.3151(3) 0.7052(2)
C12 C 0.9049(4) 0.2069(4) 0.8331(3)
C14 C 0.8558(4) 0.1429(4) 0.8367(3)
C17 C 0.9470(4) 0.2330(3) 0.8762(3)
H6 H 0.9449 0.2096 0.9067
C21 C 0.9526(4) 0.3402(3) 0.7381(3)
C22 C 0.9085(4) 0.2427(4) 0.7878(3)
H8 H 0.8815 0.2257 0.7584
C24 C 0.9916(4) 0.2931(3) 0.8740(3)
C25 C 0.9940(4) 0.3291(4) 0.8289(3)
C26 C 0.9524(6) 0.3036(4) 0.7866(3)
O27 O 0.1625(4) 0.0893(5) 0.7415(2)
O30 O 0.0742(3) 0.0200(5) 0.7066(2)
O31 O 0.1740(4) 0.0864(5) 0.9443(2)
O32 O 0.1568(2) 0.0009(4) 0.9833(2)
C28 C 0.1141(6) 0.0398(7) 0.7442(3)
C30 C 0.1529(6) 0.0303(7) 0.9439(3)
C31 C 0.1038(6) 0.0023(7) 0.7940(3)
C33 C 0.1310(6) 0.0311(7) 0.8437(3)
H10 H 0.1549 0.0730 0.8446
Th10 Th 0.24315(3) 0.19085(2) 0.96179(2)
Th22 Th 0.23913(3) 0.18865(2) 0.71403(2)
Th26 Th 0.85532(2) 0.28285(2) 0.61930(2)
Th37_3 Th 1.0000 -0.0000 0.63536(2)
O62 O 0.7266(2) 0.0643(4) 0.9344(2)
O69 O 0.9107(5) 0.0732(3) 0.7415(2)
O70 O 0.7580(2) 0.0182(3) 0.6281(2)
O78 O 0.9136(5) 0.0876(3) 0.9443(2)
O84 O 0.7640(5) 0.1101(3) 0.6983(3)
O93 O 0.8834(5) 0.1307(3) 0.6558(2)
Th3 Th 0.3333 0.6667 0.03131(2)
O10 O 0.4382(3) 0.7014(3) 0.0411(3)
O15 O 0.5566(3) 0.9873(4) 0.0316(3)
O18 O 0.4640(3) 0.9139(4) 0.0109(2)
C7 C 0.6051(4) 0.9132(5) 0.0037(3)
C8 C 0.5440(4) 0.8906(6) 0.0151(4)
C11 C 0.5200(4) 0.9336(6) 0.0195(3)
C16 C 0.5891(4) 0.8115(4) 0.0024(4)
C18 C 0.5058(4) 0.8287(6) 0.0206(3)
H7 H 0.4650 0.8135 0.0285
C19 C 0.4882(4) 0.7222(4) 0.0175(4)
C23 C 0.5283(4) 0.7890(3) 0.0141(3)
O19 O 0.3608(4) 0.6184(4) 0.1090(4)
O29 O 0.2986(3) 0.7368(4) 0.0411(3)
O34 O 0.0127(4) 0.5693(5) 0.0316(3)
O37 O 0.0861(4) 0.5501(5) 0.0109(2)
C34 C 0.0868(5) 0.6919(6) 0.0037(3)
C35 C 0.1094(6) 0.6534(7) 0.0151(4)
C38 C 0.0664(6) 0.5864(7) 0.0195(3)
C43 C 0.1885(4) 0.7776(6) 0.0024(4)
C45 C 0.1713(6) 0.6771(7) 0.0206(3)
H16 H 0.1865 0.6515 0.0285
C46 C 0.2778(4) 0.7660(6) 0.0175(4)
C50 C 0.2110(3) 0.7393(5) 0.0141(3)
O38 O 0.3816(4) 0.7424(6) 0.1090(4)
O48 O 0.2632(4) 0.5618(3) 0.0411(3)
O53 O 0.4307(5) 0.4434(3) 0.0316(3)
O56 O 0.4499(5) 0.5360(3) 0.0109(2)
C61 C 0.3081(6) 0.3949(4) 0.0037(3)
C62 C 0.3466(7) 0.4560(4) 0.0151(4)
C65 C 0.4136(7) 0.4800(4) 0.0195(3)
C70 C 0.2224(6) 0.4109(4) 0.0024(4)
C72 C 0.3229(7) 0.4942(4) 0.0206(3)
H25 H 0.3485 0.5350 0.0285
C73 C 0.2340(6) 0.5118(4) 0.0175(4)
C77 C 0.2607(5) 0.4717(4) 0.0141(3)
O57 O 0.2576(6) 0.6392(4) 0.1090(4)
Th12 Th 0.19085(2) 0.94770(2) 0.03821(2)
Th16 Th 0.75685(3) 0.80915(2) 0.03821(2)
Th23 Th 0.47802(2) 0.38381(2) 0.04736(2)
O58 O 0.2848(3) 0.1366(2) 0.0064(2)
O79 O 0.1559(3) 0.1568(2) 0.0167(2)
O80 O 0.8432(2) 0.9991(4) 0.0167(2)
O81 O 0.0009(4) 0.8441(3) 0.0167(2)
O86 O 0.2849(3) 0.2400(4) 0.0491(2)
O1 O 0.7238(2) 0.9524(2) 0.9711(3)
O2 O 0.7152(3) 0.8634(2) 0.9936(2)
O5 O 0.8033(3) 0.9933(2) 0.8843(2)
O8 O 0.9268(3) 0.8375(4) 0.7415(2)
O11 O 0.9458(4) 0.9258(3) 0.7066(2)
O12 O 0.9124(3) 0.8260(4) 0.9443(2)
O13 O 0.8441(3) 0.8432(2) 0.9833(2)
O14 O 0.8044(3) 0.9904(3) 0.7925(2)
O17 O 0.5061(3) 0.6893(2) 0.9956(2)
C1 C 0.9257(4) 0.8859(6) 0.7442(3)
C2 C 0.8748(4) 0.8771(5) 0.8919(3)
C3 C 0.8774(4) 0.8471(6) 0.9439(3)
C4 C 0.8985(4) 0.8962(6) 0.7940(3)
C5 C 0.8455(4) 0.9395(4) 0.8412(3)
C6 C 0.9001(4) 0.8690(6) 0.8437(3)
H1 H 0.9181 0.8451 0.8446
H2 H 0.6307 0.9546 0.9998
C9 C 0.6281(4) 0.8738(4) 0.9981(3)
C10 C 0.8477(4) 0.9127(4) 0.8904(3)
H3 H 0.8310 0.9184 0.9225
C13 C 0.8712(4) 0.9316(4) 0.7930(3)
H4 H 0.8701 0.9501 0.7601
C15 C 0.6940(4) 0.8981(4) 0.9872(3)
H5 H 0.6038 0.7850 0.9975
C27 C 0.8157(3) 0.9771(3) 0.8388(3)
O20 O 0.0476(2) 0.7714(3) 0.9711(3)
O21 O 0.1366(2) 0.8518(4) 0.9936(2)
O24 O 0.0067(2) 0.8100(4) 0.8843(2)
O33 O 0.0096(3) 0.8140(4) 0.7925(2)
O36 O 0.3107(2) 0.8168(4) 0.9956(2)
C29 C 0.1229(5) 0.9977(6) 0.8919(3)
C32 C 0.0605(4) 0.9060(6) 0.8412(3)
H11 H 0.0454 0.6761 0.9998
C36 C 0.1262(4) 0.7543(6) 0.9981(3)
C37 C 0.0873(4) 0.9350(6) 0.8904(3)
H12 H 0.0816 0.9126 0.9225
C40 C 0.0684(4) 0.9396(6) 0.7930(3)
H13 H 0.0499 0.9200 0.7601
C42 C 0.1019(4) 0.7959(6) 0.9872(3)
H14 H 0.2150 0.8188 0.9975
C54 C 0.0229(3) 0.8386(4) 0.8388(3)
O39 O 0.2286(3) 0.2762(2) 0.9711(3)
O40 O 0.1482(4) 0.2848(3) 0.9936(2)
O41 O 0.2845(3) 0.1689(2) 0.7916(2)
O42 O 0.3976(4) 0.0043(4) 0.7323(2)
O43 O 0.1900(4) 0.1967(3) 0.8843(2)
O45 O 0.2794(4) 0.1598(3) 0.8836(2)
O47 O 0.4064(4) 0.0913(2) 0.7052(2)
O52 O 0.1860(4) 0.1956(3) 0.7925(2)
O55 O 0.1832(4) 0.4939(3) 0.9956(2)
C56 C 0.0023(6) 0.1252(4) 0.8919(3)
C59 C 0.0940(6) 0.1545(4) 0.8412(3)
H20 H 0.3239 0.3693 0.9998
C63 C 0.2457(6) 0.3719(4) 0.9981(3)
C64 C 0.0650(6) 0.1523(4) 0.8904(3)
H21 H 0.0874 0.1690 0.9225
C66 C 0.3020(6) 0.0951(4) 0.8331(3)
C67 C 0.0604(6) 0.1288(4) 0.7930(3)
H22 H 0.0800 0.1299 0.7601
C68 C 0.2871(6) 0.1442(4) 0.8367(3)
C69 C 0.2041(6) 0.3060(4) 0.9872(3)
H23 H 0.1812 0.3962 0.9975
C71 C 0.2860(5) 0.0530(4) 0.8762(3)
H24 H 0.2647 0.0551 0.9067
C75 C 0.3876(5) 0.0474(4) 0.7381(3)
C76 C 0.3342(6) 0.0915(4) 0.7878(3)
H26 H 0.3442 0.1185 0.7584
C78 C 0.3015(5) 0.0084(4) 0.8740(3)
C79 C 0.3351(6) 0.0060(4) 0.8289(3)
C80 C 0.3512(7) 0.0476(6) 0.7866(3)
C81 C 0.1614(4) 0.1843(3) 0.8388(3)
Th9 Th 0.94770(2) 0.75685(3) 0.96179(2)
Th21 Th 0.94952(2) 0.76087(3) 0.71403(2)
Th28 Th 0.42754(3) 0.14468(2) 0.61930(2)
Th30 Th 0.52198(2) 0.61619(2) 0.95264(2)
Th32 Th 0.38381(2) 0.90580(3) 0.95264(2)
Th37_4 Th 1.0000 1.0000 0.63536(2)
O61 O 0.3376(4) 0.2734(2) 0.9344(2)
O64 O 0.2732(3) 0.2908(2) 0.7374(2)
O65 O 0.7092(2) 0.9825(4) 0.7374(2)
O66 O 0.0175(4) 0.7268(3) 0.7374(2)
O72 O 0.2603(4) 0.2420(2) 0.6281(2)
O73 O 0.3875(4) 0.7409(3) 0.9601(2)
O74 O 0.2591(3) 0.6467(5) 0.9601(2)
O75 O 0.3533(5) 0.6125(4) 0.9601(2)
O83 O 0.3460(4) 0.2360(5) 0.6983(3)
O88 O 0.8272(3) 0.9774(2) 0.6711(2)
O89 O 0.0226(2) 0.8499(4) 0.6711(2)
O90 O 0.1501(4) 0.1728(3) 0.6711(2)
O92 O 0.2472(4) 0.1166(5) 0.6558(2)
O44 O 0.3158(4) 0.9399(3) 0.9293(2)
O54 O 0.2400(4) 0.9551(2) 0.9509(2)
C74 C 0.2839(7) 0.9645(6) 0.9215(3)
H27 H 0.3463 0.9765 0.8277
Th18 Th 0.38563(2) 0.90982(3) 0.70488(2)
Th25 Th 0.90580(3) 0.52198(2) 0.04736(2)
O60 O 0.8518(4) 0.7152(3) 0.0064(2)
O85 O 0.9551(2) 0.7151(3) 0.0491(2)
O22 O 0.8844(2) 0.7155(3) 0.7916(2)
O23 O 0.6067(2) 0.6024(4) 0.7323(2)
O25 O 0.6241(2) 0.6842(4) 0.9293(2)
O26 O 0.8804(2) 0.7206(4) 0.8836(2)
O28 O 0.6849(3) 0.5936(4) 0.7052(2)
O35 O 0.7151(3) 0.7600(4) 0.9509(2)
C39 C 0.7931(4) 0.6980(6) 0.8331(3)
C41 C 0.8571(4) 0.7129(6) 0.8367(3)
C44 C 0.7670(3) 0.7140(5) 0.8762(3)
H15 H 0.7904 0.7353 0.9067
C47 C 0.6806(4) 0.7161(7) 0.9215(3)
C48 C 0.6598(3) 0.6124(5) 0.7381(3)
C49 C 0.7573(4) 0.6658(6) 0.7878(3)
H17 H 0.7743 0.6558 0.7584
C51 C 0.7069(3) 0.6985(5) 0.8740(3)
C52 C 0.6709(4) 0.6649(6) 0.8289(3)
H18 H 0.6302 0.6537 0.8277
C53 C 0.6964(4) 0.6488(7) 0.7866(3)
O49 O 0.9800(5) 0.0542(4) 0.7066(2)
O51 O 0.9991(4) 0.1559(3) 0.9833(2)
C55 C 0.9602(7) 0.0743(4) 0.7442(3)
C57 C 0.9697(7) 0.1226(4) 0.9439(3)
C58 C 0.9977(7) 0.1015(4) 0.7940(3)
C60 C 0.9689(7) 0.0999(4) 0.8437(3)
H19 H 0.9270 0.0819 0.8446
Th17 Th 0.52418(2) 0.61437(2) 0.70488(2)
Th27 Th 0.71715(2) 0.57246(3) 0.61930(2)
O63 O 0.9357(4) 0.6624(4) 0.9344(2)
O71 O 0.9818(3) 0.7397(4) 0.6281(2)
O82 O 0.8899(3) 0.6540(4) 0.6983(3)
O91 O 0.8693(3) 0.7528(4) 0.6558(2)
Th1_2 Th 0.47582(2) 0.38563(2) 0.29512(2)
Th3_2 Th -0.0000 0.0000 0.36464(2)
O1_2 O 0.3905(2) 0.2857(2) 0.3044(3)
O2_2 O 0.3819(3) 0.1967(2) 0.3269(2)
O3_2 O 0.4978(2) 0.4489(2) 0.1249(2)
O4_2 O 0.6624(4) 0.7266(2) 0.0656(2)
O5_2 O 0.4700(3) 0.3266(2) 0.2176(2)
O6_2 O 0.7268(3) 0.7092(2) 0.2626(2)
O7_2 O 0.5069(3) 0.4529(2) 0.2169(2)
O8_2 O 0.5935(3) 0.1708(4) 0.0748(2)
O9_2 O 0.5754(2) 0.6484(3) 0.0385(2)
O10_2 O 0.1049(3) 0.0347(3) 0.3744(3)
O11_2 O 0.6125(4) 0.2591(3) 0.0399(2)
O12_2 O 0.5791(3) 0.1593(4) 0.2776(2)
O13_2 O 0.5108(3) 0.1765(2) 0.3166(2)
O14_2 O 0.4711(3) 0.3237(3) 0.1258(2)
O15_2 O 0.2233(3) 0.3206(4) 0.3649(3)
O16_2 O 0.7116(2) 0.6182(3) 0.2842(2)
O17_2 O 0.1728(3) 0.0226(2) 0.3289(2)
C1_2 C 0.5924(4) 0.2192(6) 0.0775(3)
C2_2 C 0.5415(4) 0.2104(5) 0.2252(3)
C3_2 C 0.5441(4) 0.1804(6) 0.2772(3)
C4_2 C 0.5652(4) 0.2295(6) 0.1273(3)
C5_2 C 0.5122(4) 0.2728(4) 0.1745(3)
C6_2 C 0.5668(4) 0.2023(6) 0.1770(3)
H1_2 H 0.5848 0.1784 0.1779
O18_2 O 0.1307(3) 0.2472(4) 0.3442(2)
C7_2 C 0.2718(4) 0.2465(5) 0.3370(3)
H2_2 H 0.2974 0.2879 0.3331
C8_2 C 0.2107(4) 0.2239(6) 0.3484(4)
C9_2 C 0.2948(4) 0.2071(4) 0.3314(3)
C10_2 C 0.5144(4) 0.2460(4) 0.2237(3)
H3_2 H 0.4977 0.2517 0.2558
C11_2 C 0.1867(4) 0.2669(6) 0.3528(3)
C12_2 C 0.5716(4) 0.5402(4) 0.1664(3)
C13_2 C 0.5379(4) 0.2649(4) 0.1263(3)
H4_2 H 0.5368 0.2834 0.0934
C14_2 C 0.5225(4) 0.4762(4) 0.1700(3)
C15_2 C 0.3607(4) 0.2314(4) 0.3205(3)
C16_2 C 0.2558(4) 0.1448(4) 0.3357(4)
H5_2 H 0.2705 0.1183 0.3308
C17_2 C 0.6137(4) 0.5663(3) 0.2095(3)
H6_2 H 0.6116 0.5429 0.2400
C18_2 C 0.1725(4) 0.1620(6) 0.3539(3)
H7_2 H 0.1317 0.1468 0.3618
C19_2 C 0.1549(4) 0.0555(4) 0.3508(4)
C20_2 C 0.7022(6) 0.6527(4) 0.2548(3)
C21_2 C 0.6193(4) 0.6735(3) 0.0714(3)
C22_2 C 0.5752(4) 0.5760(4) 0.1211(3)
H8_2 H 0.5482 0.5590 0.0917
C23_2 C 0.1950(4) 0.1223(3) 0.3474(3)
C24_2 C 0.6583(4) 0.6264(3) 0.2073(3)
C25_2 C 0.6607(4) 0.6624(4) 0.1622(3)
H9_2 H 0.6902 0.7031 0.1610
C26_2 C 0.6191(6) 0.6369(4) 0.1199(3)
C27_2 C 0.4824(3) 0.3104(3) 0.1721(3)
O38_2 O 0.0483(4) 0.0757(6) 0.4423(4)
Th9_2 Th 0.61437(2) 0.09018(3) 0.29512(2)
Th14_2 Th 0.71897(2) 0.57648(3) 0.37154(2)
Th16_2 Th 0.42352(3) 0.14248(2) 0.37154(2)
Th24_2 Th 0.28285(2) 0.42754(3) 0.38070(2)
Th32_2 Th 0.05048(2) 0.23913(3) 0.28597(2)
Th34_2 Th 0.76087(3) 0.81135(2) 0.28597(2)
O59_2 O 0.5301(2) 0.4815(4) 0.3397(2)
O62_2 O 0.3933(2) 0.3976(4) 0.2677(2)
O65_2 O 0.3759(2) 0.3158(4) 0.0707(2)
O69_2 O 0.5774(5) 0.4065(3) 0.0748(2)
O73_2 O 0.0542(4) 0.0742(3) 0.2934(2)
O78_2 O 0.5803(5) 0.4209(3) 0.2776(2)
O80_2 O 0.5099(2) 0.3324(4) 0.3500(2)
O87_2 O 0.4267(4) 0.3782(2) 0.3824(2)
O88_2 O 0.4939(3) 0.3107(2) 0.0044(2)
Th37_5 Th 0.6667 0.3333 0.96869(2)
O70_2 O 0.4246(2) 0.3516(3) 0.9615(2)
O93_2 O 0.5501(5) 0.4640(3) 0.9891(2)
Th3_3 Th -0.0000 1.0000 0.36464(2)
O19_2 O 0.0275(4) 0.9517(4) 0.4423(4)
O42_2 O 0.0643(4) 0.3376(4) 0.0656(2)
O47_2 O 0.0731(4) 0.4246(2) 0.0385(2)
O53_2 O 0.0974(5) 0.7767(3) 0.3649(3)
O56_2 O 0.1166(5) 0.8693(3) 0.3442(2)
C62_2 C 0.0133(7) 0.7893(4) 0.3484(4)
C65_2 C 0.0803(7) 0.8133(4) 0.3528(3)
H25_2 H 0.0152 0.8683 0.3618
C75_2 C 0.0543(5) 0.3807(4) 0.0714(3)
C76_2 C 0.0009(6) 0.4248(4) 0.1211(3)
H26_2 H 0.0109 0.4518 0.0917
C79_2 C 0.0018(6) 0.3393(4) 0.1622(3)
H27_2 H 0.0130 0.3098 0.1610
C80_2 C 0.0179(7) 0.3809(6) 0.1199(3)
Th23_2 Th 0.14468(2) 0.71715(2) 0.38070(2)
Th30_2 Th 0.18865(2) 0.94952(2) 0.28597(2)
O61_2 O 0.0043(4) 0.6067(2) 0.2677(2)
O75_2 O 0.0200(5) 0.9458(4) 0.2934(2)
Th3_4 Th 1.0000 0.0000 0.36464(2)
O20_2 O 0.7143(2) 0.1047(3) 0.3044(3)
O21_2 O 0.8033(2) 0.1851(4) 0.3269(2)
O22_2 O 0.5511(2) 0.0488(3) 0.1249(2)
O24_2 O 0.6734(2) 0.1433(4) 0.2176(2)
O25_2 O 0.2908(2) 0.0175(4) 0.2626(2)
O26_2 O 0.5471(2) 0.0539(4) 0.2169(2)
O27_2 O 0.8292(4) 0.4226(5) 0.0748(2)
O29_2 O 0.9653(3) 0.0701(4) 0.3744(3)
O30_2 O 0.7409(3) 0.3533(5) 0.0399(2)
O31_2 O 0.8407(4) 0.4197(5) 0.2776(2)
O32_2 O 0.8235(2) 0.3342(4) 0.3166(2)
O33_2 O 0.6763(3) 0.1473(4) 0.1258(2)
O35_2 O 0.3818(3) 0.0933(4) 0.2842(2)
O36_2 O 0.9774(2) 0.1501(4) 0.3289(2)
C28_2 C 0.7808(6) 0.3731(7) 0.0775(3)
C29_2 C 0.7896(5) 0.3310(6) 0.2252(3)
C30_2 C 0.8196(6) 0.3636(7) 0.2772(3)
C31_2 C 0.7705(6) 0.3356(7) 0.1273(3)
C32_2 C 0.7272(4) 0.2393(6) 0.1745(3)
C33_2 C 0.7977(6) 0.3644(7) 0.1770(3)
H10_2 H 0.8216 0.4063 0.1779
C34_2 C 0.7535(5) 0.0252(6) 0.3370(3)
H11_2 H 0.7121 0.0094 0.3331
C36_2 C 0.7929(4) 0.0876(6) 0.3314(3)
C37_2 C 0.7540(4) 0.2683(6) 0.2237(3)
H12_2 H 0.7483 0.2459 0.2558
C39_2 C 0.4598(4) 0.0313(6) 0.1664(3)
C40_2 C 0.7351(4) 0.2729(6) 0.1263(3)
H13_2 H 0.7166 0.2533 0.0934
C41_2 C 0.5238(4) 0.0462(6) 0.1700(3)
C42_2 C 0.7686(4) 0.1292(6) 0.3205(3)
C43_2 C 0.8552(4) 0.1109(6) 0.3357(4)
H14_2 H 0.8817 0.1521 0.3308
C44_2 C 0.4337(3) 0.0473(5) 0.2095(3)
H15_2 H 0.4571 0.0686 0.2400
C45_2 C 0.8380(6) 0.0104(7) 0.3539(3)
C46_2 C 0.9445(4) 0.0993(6) 0.3508(4)
C47_2 C 0.3473(4) 0.0494(7) 0.2548(3)
C50_2 C 0.8777(3) 0.0726(5) 0.3474(3)
C51_2 C 0.3736(3) 0.0318(5) 0.2073(3)
C54_2 C 0.6896(3) 0.1719(4) 0.1721(3)
Th10_2 Th 0.90982(3) 0.52418(2) 0.29512(2)
Th12_2 Th 0.85752(2) 0.28103(2) 0.37154(2)
O60_2 O 0.5185(4) 0.0485(3) 0.3397(2)
O66_2 O 0.6842(4) 0.0601(3) 0.0707(2)
O81_2 O 0.6676(4) 0.1774(3) 0.3500(2)
O85_2 O 0.6218(2) 0.0484(3) 0.3824(2)
O89_2 O 0.6893(2) 0.1832(4) 0.0044(2)
H32 H 0.936622 0.00832936 0.466555
O71_2 O 0.6484(3) 0.0731(4) 0.9615(2)
O91_2 O 0.5360(3) 0.0861(4) 0.9891(2)
Th3_5 Th 1.0000 1.0000 0.36464(2)
O23_2 O 0.2734(2) 0.9357(4) 0.0656(2)
O28_2 O 0.3516(3) 0.9269(4) 0.0385(2)
O34_2 O 0.6794(4) 0.9026(5) 0.3649(3)
O37_2 O 0.7528(4) 0.8834(5) 0.3442(2)
C35_2 C 0.7761(6) 0.9867(7) 0.3484(4)
C38_2 C 0.7331(6) 0.9197(7) 0.3528(3)
H16_2 H 0.8532 0.9848 0.3618
C48_2 C 0.3265(3) 0.9457(5) 0.0714(3)
C49_2 C 0.4240(4) 0.9991(6) 0.1211(3)
H17_2 H 0.4410 0.9891 0.0917
C52_2 C 0.3376(4) 0.9982(6) 0.1622(3)
H18_2 H 0.2969 0.9870 0.1610
C53_2 C 0.3631(4) 0.9821(7) 0.1199(3)
O39_2 O 0.8953(3) 0.6095(2) 0.3044(3)
O40_2 O 0.8149(4) 0.6181(3) 0.3269(2)
O41_2 O 0.9512(3) 0.5022(2) 0.1249(2)
O43_2 O 0.8567(4) 0.5300(3) 0.2176(2)
O44_2 O 0.9825(4) 0.2732(3) 0.2626(2)
O45_2 O 0.9461(4) 0.4931(3) 0.2169(2)
O48_2 O 0.9299(4) 0.8951(3) 0.3744(3)
O49_2 O 0.6467(5) 0.3875(4) 0.0399(2)
O51_2 O 0.6658(4) 0.4892(3) 0.3166(2)
O52_2 O 0.8527(4) 0.5289(3) 0.1258(2)
O54_2 O 0.9067(4) 0.2884(2) 0.2842(2)
O55_2 O 0.8499(4) 0.8272(3) 0.3289(2)
C55_2 C 0.6269(7) 0.4076(4) 0.0775(3)
C56_2 C 0.6690(6) 0.4585(4) 0.2252(3)
C57_2 C 0.6364(7) 0.4559(4) 0.2772(3)
C58_2 C 0.6644(7) 0.4348(4) 0.1273(3)
C59_2 C 0.7607(6) 0.4878(4) 0.1745(3)
C60_2 C 0.6356(7) 0.4332(4) 0.1770(3)
H19_2 H 0.5937 0.4152 0.1779
C61_2 C 0.9748(6) 0.7282(4) 0.3370(3)
H20_2 H 0.9906 0.7026 0.3331
C63_2 C 0.9124(6) 0.7052(4) 0.3314(3)
C64_2 C 0.7317(6) 0.4856(4) 0.2237(3)
H21_2 H 0.7541 0.5023 0.2558
C66_2 C 0.9687(6) 0.4284(4) 0.1664(3)
C67_2 C 0.7271(6) 0.4621(4) 0.1263(3)
H22_2 H 0.7467 0.4632 0.0934
C68_2 C 0.9538(6) 0.4775(4) 0.1700(3)
C69_2 C 0.8708(6) 0.6393(4) 0.3205(3)
C70_2 C 0.8891(6) 0.7442(4) 0.3357(4)
H23_2 H 0.8479 0.7295 0.3308
C71_2 C 0.9527(5) 0.3863(4) 0.2095(3)
H24_2 H 0.9314 0.3884 0.2400
C72_2 C 0.9896(7) 0.8275(4) 0.3539(3)
C73_2 C 0.9007(6) 0.8451(4) 0.3508(4)
C74_2 C 0.9506(7) 0.2978(6) 0.2548(3)
C77_2 C 0.9274(5) 0.8050(4) 0.3474(3)
C78_2 C 0.9682(5) 0.3417(4) 0.2073(3)
O57_2 O 0.9243(6) 0.9725(4) 0.4423(4)
C81_2 C 0.8281(4) 0.5176(3) 0.1721(3)
Th25_2 Th 0.57246(3) 0.85532(2) 0.38070(2)
O58_2 O 0.9515(3) 0.4699(2) 0.3397(2)
O63_2 O 0.6024(4) 0.9957(4) 0.2677(2)
O64_2 O 0.9399(3) 0.6241(2) 0.0707(2)
O74_2 O 0.9258(3) 0.9800(5) 0.2934(2)
O79_2 O 0.8226(3) 0.4901(2) 0.3500(2)
O86_2 O 0.9516(3) 0.5733(4) 0.3824(2)
O90_2 O 0.8168(4) 0.5061(3) 0.0044(2)
H29 H 0.990107 0.921772 0.461886
O72_2 O 0.9269(4) 0.5754(2) 0.9615(2)
O92_2 O 0.9139(4) 0.4499(5) 0.9891(2)
H32_2 H 0.991671 0.928293 0.466555
H29_2 H 0.931665 0.00989269 0.461886
O4_3 O 0.3290(4) 0.0600(2) 0.3990(2)
O6_3 O 0.3934(3) 0.0426(2) 0.5960(2)
C21_3 C 0.2859(4) 0.0069(3) 0.4048(3)
H9_3 H 0.3568 0.0365 0.4944
Th1_3 Th 0.14248(2) 0.71897(2) 0.62846(2)
O1_3 O 0.0571(2) 0.6191(2) 0.6378(3)
O2_3 O 0.0485(3) 0.5301(2) 0.6603(2)
O3_3 O 0.1644(2) 0.7823(2) 0.4583(2)
O5_3 O 0.1366(3) 0.6600(2) 0.5510(2)
O7_3 O 0.1735(3) 0.7863(2) 0.5503(2)
O8_3 O 0.2601(3) 0.5042(4) 0.4082(2)
O9_3 O 0.2420(2) 0.9818(3) 0.3719(2)
O11_3 O 0.2791(4) 0.5925(3) 0.3733(2)
O12_3 O 0.2457(3) 0.4927(4) 0.6110(2)
O13_3 O 0.1774(3) 0.5099(2) 0.6500(2)
O14_3 O 0.1377(3) 0.6571(3) 0.4592(2)
O16_3 O 0.3782(2) 0.9516(3) 0.6176(2)
C1_3 C 0.2590(4) 0.5526(6) 0.4109(3)
C2_3 C 0.2081(4) 0.5438(5) 0.5586(3)
C3_3 C 0.2107(4) 0.5138(6) 0.6106(3)
C4_3 C 0.2318(4) 0.5629(6) 0.4607(3)
C5_3 C 0.1788(4) 0.6062(4) 0.5079(3)
C6_3 C 0.2334(4) 0.5357(6) 0.5104(3)
H1_3 H 0.2514 0.5118 0.5113
C10_3 C 0.1810(4) 0.5794(4) 0.5571(3)
H3_3 H 0.1643 0.5851 0.5892
C12_3 C 0.2382(4) 0.8736(4) 0.4998(3)
C13_3 C 0.2045(4) 0.5983(4) 0.4597(3)
H4_3 H 0.2034 0.6168 0.4268
C14_3 C 0.1891(4) 0.8096(4) 0.5034(3)
C15_3 C 0.0273(4) 0.5648(4) 0.6539(3)
C17_3 C 0.2803(4) 0.8997(3) 0.5429(3)
H6_3 H 0.2782 0.8763 0.5734
C20_3 C 0.3688(6) 0.9861(4) 0.5882(3)
C22_3 C 0.2418(4) 0.9094(4) 0.4545(3)
H8_3 H 0.2148 0.8924 0.4251
C24_3 C 0.3249(4) 0.9598(3) 0.5407(3)
C25_3 C 0.3273(4) 0.9958(4) 0.4956(3)
C26_3 C 0.2857(6) 0.9703(4) 0.4533(3)
C27_3 C 0.1490(3) 0.6438(3) 0.5055(3)
Th9_3 Th 0.28103(2) 0.42352(3) 0.62846(2)
Th37_6 Th 0.3334 0.6666 0.30202(2)
O59_3 O 0.1967(2) 0.8149(4) 0.6731(2)
O62_3 O 0.0600(2) 0.7309(4) 0.6010(2)
O65_3 O 0.0426(2) 0.6491(4) 0.4040(2)
O69_3 O 0.2440(5) 0.7399(3) 0.4082(2)
O70_3 O 0.0913(2) 0.6849(3) 0.2948(2)
O78_3 O 0.2469(5) 0.7543(3) 0.6110(2)
O80_3 O 0.1765(2) 0.6658(4) 0.6834(2)
O87_3 O 0.0933(4) 0.7116(2) 0.7158(2)
O88_3 O 0.1606(3) 0.6440(2) 0.3377(2)
O93_3 O 0.2168(5) 0.7973(3) 0.3224(2)
Th3_6 Th 0.6666 0.3334 0.69798(2)
O10_3 O 0.7715(3) 0.3681(3) 0.7078(3)
O17_3 O 0.8394(3) 0.3560(2) 0.6623(2)
O18_3 O 0.7973(3) 0.5806(4) 0.6776(2)
C7_3 C 0.9384(4) 0.5799(5) 0.6704(3)
H2_3 H 0.9640 0.6213 0.6665
C8_3 C 0.8773(4) 0.5573(6) 0.6818(4)
C9_3 C 0.9614(4) 0.5405(4) 0.6648(3)
C11_3 C 0.8533(4) 0.6003(6) 0.6862(3)
C16_3 C 0.9224(4) 0.4782(4) 0.6691(4)
H5_3 H 0.9371 0.4517 0.6642
C18_3 C 0.8391(4) 0.4954(6) 0.6873(3)
H7_3 H 0.7983 0.4802 0.6952
C19_3 C 0.8215(4) 0.3889(4) 0.6842(4)
C23_3 C 0.8616(4) 0.4557(3) 0.6808(3)
O19_3 O 0.6941(4) 0.2851(4) 0.7757(4)
O20_3 O 0.3809(2) 0.4381(3) 0.6378(3)
O21_3 O 0.4699(2) 0.5185(4) 0.6603(2)
O22_3 O 0.2177(2) 0.3822(3) 0.4583(2)
O24_3 O 0.3400(2) 0.4767(4) 0.5510(2)
O26_3 O 0.2137(2) 0.3873(4) 0.5503(2)
O27_3 O 0.4958(4) 0.7560(5) 0.4082(2)
O28_3 O 0.0182(3) 0.2603(4) 0.3719(2)
O29_3 O 0.6319(3) 0.4035(4) 0.7078(3)
O30_3 O 0.4075(3) 0.6867(5) 0.3733(2)
O31_3 O 0.5073(4) 0.7531(5) 0.6110(2)
O32_3 O 0.4901(2) 0.6676(4) 0.6500(2)
O33_3 O 0.3429(3) 0.4807(4) 0.4592(2)
O35_3 O 0.0484(3) 0.4267(4) 0.6176(2)
O36_3 O 0.6440(2) 0.4835(4) 0.6623(2)
C28_3 C 0.4474(6) 0.7065(7) 0.4109(3)
C29_3 C 0.4562(5) 0.6644(6) 0.5586(3)
C30_3 C 0.4862(6) 0.6970(7) 0.6106(3)
C31_3 C 0.4371(6) 0.6690(7) 0.4607(3)
C32_3 C 0.3938(4) 0.5727(6) 0.5079(3)
C33_3 C 0.4643(6) 0.6978(7) 0.5104(3)
H10_3 H 0.4882 0.7397 0.5113
O37_3 O 0.4194(4) 0.2168(5) 0.6776(2)
C34_3 C 0.4201(5) 0.3586(6) 0.6704(3)
H11_3 H 0.3787 0.3428 0.6665
C35_3 C 0.4427(6) 0.3201(7) 0.6818(4)
C36_3 C 0.4595(4) 0.4210(6) 0.6648(3)
C37_3 C 0.4206(4) 0.6017(6) 0.5571(3)
H12_3 H 0.4149 0.5793 0.5892
C38_3 C 0.3997(6) 0.2531(7) 0.6862(3)
C39_3 C 0.1264(4) 0.3647(6) 0.4998(3)
C40_3 C 0.4017(4) 0.6063(6) 0.4597(3)
H13_3 H 0.3832 0.5867 0.4268
C41_3 C 0.1904(4) 0.3796(6) 0.5034(3)
C42_3 C 0.4352(4) 0.4626(6) 0.6539(3)
C43_3 C 0.5218(4) 0.4443(6) 0.6691(4)
H14_3 H 0.5483 0.4855 0.6642
C44_3 C 0.1003(3) 0.3807(5) 0.5429(3)
H15_3 H 0.1237 0.4020 0.5734
C45_3 C 0.5046(6) 0.3438(7) 0.6873(3)
H16_3 H 0.5198 0.3182 0.6952
C46_3 C 0.6111(4) 0.4327(6) 0.6842(4)
C47_3 C 0.0139(4) 0.3828(7) 0.5882(3)
C49_3 C 0.0906(4) 0.3325(6) 0.4545(3)
H17_3 H 0.1076 0.3225 0.4251
C50_3 C 0.5443(3) 0.4060(5) 0.6808(3)
C51_3 C 0.0402(3) 0.3652(5) 0.5407(3)
O38_3 O 0.7149(4) 0.4091(6) 0.7757(4)
C52_3 C 0.0042(4) 0.3316(6) 0.4956(3)
C53_3 C 0.0297(4) 0.3155(7) 0.4533(3)
C54_3 C 0.3562(3) 0.5053(4) 0.5055(3)
O48_3 O 0.5965(4) 0.2285(3) 0.7078(3)
O55_3 O 0.5165(4) 0.1606(3) 0.6623(2)
O56_3 O 0.7832(5) 0.2027(3) 0.6776(2)
C61_3 C 0.6414(6) 0.0616(4) 0.6704(3)
H20_3 H 0.6572 0.0360 0.6665
C62_3 C 0.6799(7) 0.1227(4) 0.6818(4)
C63_3 C 0.5790(6) 0.0386(4) 0.6648(3)
C65_3 C 0.7469(7) 0.1467(4) 0.6862(3)
C70_3 C 0.5557(6) 0.0776(4) 0.6691(4)
H23_3 H 0.5145 0.0629 0.6642
C72_3 C 0.6562(7) 0.1609(4) 0.6873(3)
H25_3 H 0.6818 0.2017 0.6952
C73_3 C 0.5673(6) 0.1785(4) 0.6842(4)
C77_3 C 0.5940(5) 0.1384(4) 0.6808(3)
O57_3 O 0.5909(6) 0.3059(4) 0.7757(4)
Th10_3 Th 0.57648(3) 0.85752(2) 0.62846(2)
O60_3 O 0.1851(4) 0.3819(3) 0.6731(2)
O63_3 O 0.2691(4) 0.3290(4) 0.6010(2)
O66_3 O 0.3509(4) 0.3934(3) 0.4040(2)
O71_3 O 0.3151(3) 0.4064(4) 0.2948(2)
O73_3 O 0.7209(4) 0.4075(3) 0.6267(2)
O74_3 O 0.5925(3) 0.3133(5) 0.6267(2)
O75_3 O 0.6867(5) 0.2791(4) 0.6267(2)
O81_3 O 0.3342(4) 0.5108(3) 0.6834(2)
O85_3 O 0.2884(2) 0.3818(3) 0.7158(2)
O89_3 O 0.3560(2) 0.5165(4) 0.3377(2)
O91_3 O 0.2027(3) 0.4194(4) 0.3224(2)
O39_3 O 0.5619(3) 0.9429(2) 0.6378(3)
O40_3 O 0.4815(4) 0.9515(3) 0.6603(2)
O41_3 O 0.6178(3) 0.8356(2) 0.4583(2)
O42_3 O 0.7309(4) 0.6710(4) 0.3990(2)
O43_3 O 0.5233(4) 0.8634(3) 0.5510(2)
O44_3 O 0.6491(4) 0.6066(3) 0.5960(2)
O45_3 O 0.6127(4) 0.8265(3) 0.5503(2)
O47_3 O 0.7397(4) 0.7580(2) 0.3719(2)
O49_3 O 0.3133(5) 0.7209(4) 0.3733(2)
O51_3 O 0.3324(4) 0.8226(3) 0.6500(2)
O52_3 O 0.5193(4) 0.8623(3) 0.4592(2)
O54_3 O 0.5733(4) 0.6218(2) 0.6176(2)
C55_3 C 0.2935(7) 0.7410(4) 0.4109(3)
C56_3 C 0.3356(6) 0.7919(4) 0.5586(3)
C57_3 C 0.3030(7) 0.7893(4) 0.6106(3)
C58_3 C 0.3310(7) 0.7682(4) 0.4607(3)
C59_3 C 0.4273(6) 0.8212(4) 0.5079(3)
C60_3 C 0.3022(7) 0.7666(4) 0.5104(3)
H19_3 H 0.2603 0.7486 0.5113
C64_3 C 0.3983(6) 0.8190(4) 0.5571(3)
H21_3 H 0.4207 0.8357 0.5892
C66_3 C 0.6353(6) 0.7618(4) 0.4998(3)
C67_3 C 0.3937(6) 0.7955(4) 0.4597(3)
H22_3 H 0.4133 0.7966 0.4268
C68_3 C 0.6204(6) 0.8109(4) 0.5034(3)
C69_3 C 0.5374(6) 0.9727(4) 0.6539(3)
C71_3 C 0.6193(5) 0.7197(4) 0.5429(3)
H24_3 H 0.5980 0.7218 0.5734
C74_3 C 0.6172(7) 0.6312(6) 0.5882(3)
C75_3 C 0.7209(5) 0.7141(4) 0.4048(3)
C76_3 C 0.6675(6) 0.7582(4) 0.4545(3)
H26_3 H 0.6775 0.7852 0.4251
C78_3 C 0.6348(5) 0.6751(4) 0.5407(3)
C79_3 C 0.6684(6) 0.6727(4) 0.4956(3)
H27_3 H 0.6796 0.6432 0.4944
C80_3 C 0.6845(7) 0.7143(6) 0.4533(3)
C81_3 C 0.4947(4) 0.8510(3) 0.5055(3)
O58_3 O 0.6181(3) 0.8033(2) 0.6731(2)
O61_3 O 0.6710(4) 0.9400(2) 0.6010(2)
O64_3 O 0.6066(3) 0.9574(2) 0.4040(2)
O72_3 O 0.5936(4) 0.9087(2) 0.2948(2)
O79_3 O 0.4892(3) 0.8235(2) 0.6834(2)
O86_3 O 0.6182(3) 0.9067(4) 0.7158(2)
O90_3 O 0.4835(4) 0.8394(3) 0.3377(2)
O92_3 O 0.5806(4) 0.7832(5) 0.3224(2)
O23_3 O 0.9400(2) 0.2691(4) 0.3990(2)
O25_3 O 0.9574(2) 0.3509(4) 0.5960(2)
C48_3 C 0.9931(3) 0.2791(5) 0.4048(3)
H18_3 H 0.9635 0.3204 0.4944
O22_4 O 0.1156(2) 0.2845(3) 0.2084(2)
O26_4 O 0.1196(2) 0.2794(4) 0.1164(2)
C39_4 C 0.2069(4) 0.3020(6) 0.1669(3)
C41_4 C 0.1429(4) 0.2871(6) 0.1633(3)
C44_4 C 0.2330(3) 0.2860(5) 0.1238(3)
H15_4 H 0.2096 0.2647 0.0933
C47_4 C 0.3194(4) 0.2839(7) 0.0785(3)
C48_4 C 0.3402(3) 0.3876(5) 0.2619(3)
C49_4 C 0.2427(4) 0.3342(6) 0.2122(3)
H17_4 H 0.2257 0.3442 0.2416
C51_4 C 0.2931(3) 0.3015(5) 0.1260(3)
C52_4 C 0.3291(4) 0.3351(6) 0.1711(3)
H18_4 H 0.3698 0.3463 0.1723
C53_4 C 0.3036(4) 0.3512(7) 0.2134(3)
O46 O 0.0893(5) 0.9268(3) 0.2585(2)
O50 O 0.0864(5) 0.9124(3) 0.0557(2)
C55_4 C 0.0398(7) 0.9257(4) 0.2558(3)
C57_4 C 0.0303(7) 0.8774(4) 0.0561(3)
C58_4 C 0.0023(7) 0.8985(4) 0.2060(3)
C60_4 C 0.0311(7) 0.9001(4) 0.1563(3)
H19_4 H 0.0730 0.9181 0.1554
O67 O 0.0732(3) 0.1625(4) 0.2585(2)
O76 O 0.0876(3) 0.1740(4) 0.0557(2)
O82_2 O 0.1101(3) 0.3460(4) 0.3017(3)
C74_4 C 0.7161(7) 0.0355(6) 0.0785(3)
H27_4 H 0.6537 0.0235 0.1723
O1_4 O 0.2762(2) 0.0476(2) 0.0289(3)
O5_4 O 0.1967(3) 0.0067(2) 0.1157(2)
O14_4 O 0.1956(3) 0.0096(3) 0.2075(2)
C1_4 C 0.0743(4) 0.1141(6) 0.2558(3)
C2_4 C 0.1252(4) 0.1229(5) 0.1081(3)
C3_4 C 0.1226(4) 0.1529(6) 0.0561(3)
C4_4 C 0.1015(4) 0.1038(6) 0.2060(3)
C5_4 C 0.1545(4) 0.0605(4) 0.1588(3)
C6_4 C 0.0999(4) 0.1310(6) 0.1563(3)
H1_4 H 0.0819 0.1549 0.1554
H2_4 H 0.3693 0.0454 0.0002
C9_4 C 0.3719(4) 0.1262(4) 0.0019(3)
C10_4 C 0.1523(4) 0.0873(4) 0.1096(3)
H3_4 H 0.1690 0.0816 0.0775
C13_4 C 0.1288(4) 0.0684(4) 0.2070(3)
H4_4 H 0.1299 0.0499 0.2399
C15_4 C 0.3060(4) 0.1019(4) 0.0128(3)
H5_4 H 0.3962 0.2150 0.0025
C27_4 C 0.1843(3) 0.0229(3) 0.1612(3)
O20_4 O 0.9524(2) 0.2286(3) 0.0289(3)
O24_4 O 0.9933(2) 0.1900(4) 0.1157(2)
O33_4 O 0.9904(3) 0.1860(4) 0.2075(2)
C29_4 C 0.8771(5) 0.0023(6) 0.1081(3)
C32_4 C 0.9395(4) 0.0940(6) 0.1588(3)
H11_4 H 0.9546 0.3239 0.0002
C36_4 C 0.8738(4) 0.2457(6) 0.0019(3)
C37_4 C 0.9127(4) 0.0650(6) 0.1096(3)
H12_4 H 0.9184 0.0874 0.0775
C40_4 C 0.9316(4) 0.0604(6) 0.2070(3)
H13_4 H 0.9501 0.0800 0.2399
C42_4 C 0.8981(4) 0.2041(6) 0.0128(3)
H14_4 H 0.7850 0.1812 0.0025
C54_4 C 0.9771(3) 0.1614(4) 0.1612(3)
O39_4 O 0.7714(3) 0.7238(2) 0.0289(3)
O41_4 O 0.7155(3) 0.8311(2) 0.2084(2)
O43_4 O 0.8100(4) 0.8033(3) 0.1157(2)
O45_4 O 0.7206(4) 0.8402(3) 0.1164(2)
O52_4 O 0.8140(4) 0.8044(3) 0.2075(2)
C56_4 C 0.9977(6) 0.8748(4) 0.1081(3)
C59_4 C 0.9060(6) 0.8455(4) 0.1588(3)
H20_4 H 0.6761 0.6307 0.0002
C63_4 C 0.7543(6) 0.6281(4) 0.0019(3)
C64_4 C 0.9350(6) 0.8477(4) 0.1096(3)
H21_4 H 0.9126 0.8310 0.0775
C66_4 C 0.6980(6) 0.9049(4) 0.1669(3)
C67_4 C 0.9396(6) 0.8712(4) 0.2070(3)
H22_4 H 0.9200 0.8701 0.2399
C68_4 C 0.7129(6) 0.8558(4) 0.1633(3)
C69_4 C 0.7959(6) 0.6940(4) 0.0128(3)
H23_4 H 0.8188 0.6038 0.0025
C71_4 C 0.7140(5) 0.9470(4) 0.1238(3)
H24_4 H 0.7353 0.9449 0.0933
C75_4 C 0.6124(5) 0.9526(4) 0.2619(3)
C76_4 C 0.6658(6) 0.9085(4) 0.2122(3)
H26_4 H 0.6558 0.8815 0.2416
C78_4 C 0.6985(5) 0.9916(4) 0.1260(3)
C79_4 C 0.6649(6) 0.9940(4) 0.1711(3)
C80_4 C 0.6488(7) 0.9524(6) 0.2134(3)
C81_4 C 0.8386(4) 0.8157(3) 0.1612(3)
O68 O 0.8375(4) 0.9107(5) 0.2585(2)
O77 O 0.8260(4) 0.9136(5) 0.0557(2)
O83_2 O 0.6540(4) 0.7640(5) 0.3017(3)
O10_4 O 0.5618(3) 0.2986(3) 0.9589(3)
O15_3 O 0.4434(3) 0.0127(4) 0.9684(3)
C7_4 C 0.3949(4) 0.0868(5) 0.9963(3)
C8_4 C 0.4560(4) 0.1094(6) 0.9849(4)
C11_4 C 0.4800(4) 0.0664(6) 0.9805(3)
C16_4 C 0.4109(4) 0.1885(4) 0.9976(4)
C18_4 C 0.4942(4) 0.1713(6) 0.9794(3)
H7_4 H 0.5350 0.1865 0.9715
C19_4 C 0.5118(4) 0.2778(4) 0.9825(4)
C23_4 C 0.4717(4) 0.2110(3) 0.9859(3)
O19_4 O 0.6392(4) 0.3816(4) 0.8910(4)
O29_4 O 0.7014(3) 0.2632(4) 0.9589(3)
O34_3 O 0.9873(4) 0.4307(5) 0.9684(3)
C34_4 C 0.9132(5) 0.3081(6) 0.9963(3)
C35_4 C 0.8906(6) 0.3466(7) 0.9849(4)
C38_4 C 0.9336(6) 0.4136(7) 0.9805(3)
C43_4 C 0.8115(4) 0.2224(6) 0.9976(4)
C45_4 C 0.8287(6) 0.3229(7) 0.9794(3)
H16_4 H 0.8135 0.3485 0.9715
C46_4 C 0.7222(4) 0.2340(6) 0.9825(4)
C50_4 C 0.7890(3) 0.2607(5) 0.9859(3)
O38_4 O 0.6184(4) 0.2576(6) 0.8910(4)
O48_4 O 0.7368(4) 0.4382(3) 0.9589(3)
O53_3 O 0.5693(5) 0.5566(3) 0.9684(3)
C61_4 C 0.6919(6) 0.6051(4) 0.9963(3)
C62_4 C 0.6534(7) 0.5440(4) 0.9849(4)
C65_4 C 0.5864(7) 0.5200(4) 0.9805(3)
C70_4 C 0.7776(6) 0.5891(4) 0.9976(4)
C72_4 C 0.6771(7) 0.5058(4) 0.9794(3)
H25_4 H 0.6515 0.4650 0.9715
C73_4 C 0.7660(6) 0.4882(4) 0.9825(4)
C77_4 C 0.7393(5) 0.5283(4) 0.9859(3)
O57_4 O 0.7424(6) 0.3608(4) 0.8910(4)
O3_4 O 0.1689(2) 0.8844(2) 0.2084(2)
O7_4 O 0.1598(3) 0.8804(2) 0.1164(2)
C12_4 C 0.0951(4) 0.7931(4) 0.1669(3)
C14_4 C 0.1442(4) 0.8571(4) 0.1633(3)
C17_4 C 0.0530(4) 0.7670(3) 0.1238(3)
H6_4 H 0.0551 0.7904 0.0933
C21_4 C 0.0474(4) 0.6598(3) 0.2619(3)
C22_4 C 0.0915(4) 0.7573(4) 0.2122(3)
H8_4 H 0.1185 0.7743 0.2416
C24_4 C 0.0084(4) 0.7069(3) 0.1260(3)
C25_4 C 0.0060(4) 0.6709(4) 0.1711(3)
C26_4 C 0.0476(6) 0.6964(4) 0.2134(3)
C28_4 C 0.8859(6) 0.9602(7) 0.2558(3)
C30_4 C 0.8471(6) 0.9697(7) 0.0561(3)
C31_4 C 0.8962(6) 0.9977(7) 0.2060(3)
C33_4 C 0.8690(6) 0.9689(7) 0.1563(3)
H10_4 H 0.8451 0.9270 0.1554
O84_2 O 0.2360(5) 0.8899(3) 0.3017(3)
C20_4 C 0.9645(6) 0.6806(4) 0.0785(3)
H9_4 H 0.9765 0.6302 0.1723
O34_4 O 0.3206(4) 0.0974(5) 0.6351(3)
C35_5 C 0.2239(6) 0.0133(7) 0.6516(4)
C38_5 C 0.2669(6) 0.0803(7) 0.6472(3)
H16_5 H 0.1468 0.0152 0.6382
C48_5 C 0.6735(3) 0.0543(5) 0.9286(3)
C49_5 C 0.5760(4) 0.0009(6) 0.8789(3)
H17_5 H 0.5590 0.0109 0.9083
C52_5 C 0.6624(4) 0.0018(6) 0.8378(3)
H18_5 H 0.7031 0.0130 0.8390
C53_5 C 0.6369(4) 0.0179(7) 0.8801(3)
O39_5 O 0.1047(3) 0.3905(2) 0.6956(3)
O41_5 O 0.0488(3) 0.4978(2) 0.8751(2)
O43_5 O 0.1433(4) 0.4700(3) 0.7824(2)
O45_5 O 0.0539(4) 0.5069(3) 0.7831(2)
O46_2 O 0.4226(5) 0.5935(3) 0.9252(2)
O48_5 O 0.0701(4) 0.1049(3) 0.6256(3)
O50_2 O 0.4197(5) 0.5791(3) 0.7224(2)
O52_5 O 0.1473(4) 0.4711(3) 0.8742(2)
C55_5 C 0.3731(7) 0.5924(4) 0.9225(3)
C56_5 C 0.3310(6) 0.5415(4) 0.7748(3)
C57_5 C 0.3636(7) 0.5441(4) 0.7228(3)
C58_5 C 0.3356(7) 0.5652(4) 0.8727(3)
C59_5 C 0.2393(6) 0.5122(4) 0.8255(3)
C60_5 C 0.3644(7) 0.5668(4) 0.8230(3)
H19_5 H 0.4063 0.5848 0.8221
C61_5 C 0.0252(6) 0.2718(4) 0.6630(3)
H20_5 H 0.0094 0.2974 0.6669
C63_5 C 0.0876(6) 0.2948(4) 0.6686(3)
C64_5 C 0.2683(6) 0.5144(4) 0.7763(3)
H21_5 H 0.2459 0.4977 0.7442
C66_5 C 0.0313(6) 0.5716(4) 0.8336(3)
C67_5 C 0.2729(6) 0.5379(4) 0.8737(3)
H22_5 H 0.2533 0.5368 0.9066
C68_5 C 0.0462(6) 0.5225(4) 0.8300(3)
C69_5 C 0.1292(6) 0.3607(4) 0.6795(3)
C70_5 C 0.1109(6) 0.2558(4) 0.6643(4)
H23_5 H 0.1521 0.2705 0.6692
C71_5 C 0.0473(5) 0.6137(4) 0.7905(3)
H24_5 H 0.0686 0.6116 0.7600
C72_5 C 0.0104(7) 0.1725(4) 0.6461(3)
C73_5 C 0.0993(6) 0.1549(4) 0.6492(4)
C74_5 C 0.0494(7) 0.7022(6) 0.7452(3)
C77_5 C 0.0726(5) 0.1950(4) 0.6526(3)
C78_5 C 0.0318(5) 0.6583(4) 0.7927(3)
O57_5 O 0.0757(6) 0.0275(4) 0.5577(4)
C81_5 C 0.1719(4) 0.4824(3) 0.8279(3)
O68_2 O 0.1708(4) 0.5774(5) 0.9252(2)
O77_2 O 0.1593(4) 0.5803(5) 0.7224(2)
H29_3 H 0.00989269 0.0782275 0.538114
O20_5 O 0.2857(2) 0.8953(3) 0.6956(3)
O22_5 O 0.4489(2) 0.9512(3) 0.8751(2)
O24_5 O 0.3266(2) 0.8567(4) 0.7824(2)
O26_5 O 0.4529(2) 0.9461(4) 0.7831(2)
O29_5 O 0.0347(3) 0.9299(4) 0.6256(3)
O33_5 O 0.3237(3) 0.8527(4) 0.8742(2)
C28_5 C 0.2192(6) 0.6269(7) 0.9225(3)
C29_5 C 0.2104(5) 0.6690(6) 0.7748(3)
C30_5 C 0.1804(6) 0.6364(7) 0.7228(3)
C31_5 C 0.2295(6) 0.6644(7) 0.8727(3)
C32_5 C 0.2728(4) 0.7607(6) 0.8255(3)
C33_5 C 0.2023(6) 0.6356(7) 0.8230(3)
H10_5 H 0.1784 0.5937 0.8221
C34_5 C 0.2465(5) 0.9748(6) 0.6630(3)
H11_5 H 0.2879 0.9906 0.6669
C36_5 C 0.2071(4) 0.9124(6) 0.6686(3)
C37_5 C 0.2460(4) 0.7317(6) 0.7763(3)
H12_5 H 0.2517 0.7541 0.7442
C39_5 C 0.5402(4) 0.9687(6) 0.8336(3)
C40_5 C 0.2649(4) 0.7271(6) 0.8737(3)
H13_5 H 0.2834 0.7467 0.9066
C41_5 C 0.4762(4) 0.9538(6) 0.8300(3)
C42_5 C 0.2314(4) 0.8708(6) 0.6795(3)
C43_5 C 0.1448(4) 0.8891(6) 0.6643(4)
H14_5 H 0.1183 0.8479 0.6692
C44_5 C 0.5663(3) 0.9527(5) 0.7905(3)
H15_5 H 0.5429 0.9314 0.7600
C45_5 C 0.1620(6) 0.9896(7) 0.6461(3)
C46_5 C 0.0555(4) 0.9007(6) 0.6492(4)
C47_5 C 0.6527(4) 0.9506(7) 0.7452(3)
C50_5 C 0.1223(3) 0.9274(5) 0.6526(3)
C51_5 C 0.6264(3) 0.9682(5) 0.7927(3)
C54_5 C 0.3104(3) 0.8281(4) 0.8279(3)
O67_2 O 0.4065(3) 0.8292(4) 0.9252(2)
O76_2 O 0.4209(3) 0.8407(4) 0.7224(2)
H32_3 H 0.0633779 0.991671 0.533445
O19_5 O 0.9725(4) 0.0483(4) 0.5577(4)
O53_4 O 0.9026(5) 0.2233(3) 0.6351(3)
C62_5 C 0.9867(7) 0.2107(4) 0.6516(4)
C65_5 C 0.9197(7) 0.1867(4) 0.6472(3)
H25_5 H 0.9848 0.1317 0.6382
C75_5 C 0.9457(5) 0.6193(4) 0.9286(3)
C76_5 C 0.9991(6) 0.5752(4) 0.8789(3)
H26_5 H 0.9891 0.5482 0.9083
C79_5 C 0.9982(6) 0.6607(4) 0.8378(3)
H27_5 H 0.9870 0.6902 0.8390
C80_5 C 0.9821(7) 0.6191(6) 0.8801(3)
O1_5 O 0.6095(2) 0.7143(2) 0.6956(3)
O3_5 O 0.5022(2) 0.5511(2) 0.8751(2)
O5_5 O 0.5300(3) 0.6734(2) 0.7824(2)
O7_5 O 0.4931(3) 0.5471(2) 0.7831(2)
O10_5 O 0.8951(3) 0.9653(3) 0.6256(3)
O14_5 O 0.5289(3) 0.6763(3) 0.8742(2)
O15_4 O 0.7767(3) 0.6794(4) 0.6351(3)
C1_5 C 0.4076(4) 0.7808(6) 0.9225(3)
C2_5 C 0.4585(4) 0.7896(5) 0.7748(3)
C3_5 C 0.4559(4) 0.8196(6) 0.7228(3)
C4_5 C 0.4348(4) 0.7705(6) 0.8727(3)
C5_5 C 0.4878(4) 0.7272(4) 0.8255(3)
C6_5 C 0.4332(4) 0.7977(6) 0.8230(3)
H1_5 H 0.4152 0.8216 0.8221
C7_5 C 0.7282(4) 0.7535(5) 0.6630(3)
H2_5 H 0.7026 0.7121 0.6669
C8_5 C 0.7893(4) 0.7761(6) 0.6516(4)
C9_5 C 0.7052(4) 0.7929(4) 0.6686(3)
C10_5 C 0.4856(4) 0.7540(4) 0.7763(3)
H3_5 H 0.5023 0.7483 0.7442
C11_5 C 0.8133(4) 0.7331(6) 0.6472(3)
C12_5 C 0.4284(4) 0.4598(4) 0.8336(3)
C13_5 C 0.4621(4) 0.7351(4) 0.8737(3)
H4_5 H 0.4632 0.7166 0.9066
C14_5 C 0.4775(4) 0.5238(4) 0.8300(3)
C15_5 C 0.6393(4) 0.7686(4) 0.6795(3)
C16_5 C 0.7442(4) 0.8552(4) 0.6643(4)
H5_5 H 0.7295 0.8817 0.6692
C17_5 C 0.3863(4) 0.4337(3) 0.7905(3)
H6_5 H 0.3884 0.4571 0.7600
C18_5 C 0.8275(4) 0.8380(6) 0.6461(3)
H7_5 H 0.8683 0.8532 0.6382
C19_5 C 0.8451(4) 0.9445(4) 0.6492(4)
C20_5 C 0.2978(6) 0.3473(4) 0.7452(3)
C21_5 C 0.3807(4) 0.3265(3) 0.9286(3)
C22_5 C 0.4248(4) 0.4240(4) 0.8789(3)
H8_5 H 0.4518 0.4410 0.9083
C23_5 C 0.8050(4) 0.8777(3) 0.6526(3)
C24_5 C 0.3417(4) 0.3736(3) 0.7927(3)
C25_5 C 0.3393(4) 0.3376(4) 0.8378(3)
H9_5 H 0.3098 0.2969 0.8390
C26_5 C 0.3809(6) 0.3631(4) 0.8801(3)
C27_5 C 0.5176(3) 0.6896(3) 0.8279(3)
O38_5 O 0.9517(4) 0.9243(6) 0.5577(4)
H32_4 H 0.00832936 0.0717073 0.533445
H29_4 H 0.0683348 0.990107 0.538114
C48_6 C 0.0069(3) 0.7209(5) 0.5952(3)
H18_6 H 0.0365 0.6796 0.5056
O39_6 O 0.4381(3) 0.0571(2) 0.3622(3)
O41_6 O 0.3822(3) 0.1644(2) 0.5417(2)
O43_6 O 0.4767(4) 0.1366(3) 0.4490(2)
O45_6 O 0.3873(4) 0.1735(3) 0.4497(2)
O46_3 O 0.7560(5) 0.2601(3) 0.5918(2)
O50_3 O 0.7531(5) 0.2457(3) 0.3890(2)
O52_6 O 0.4807(4) 0.1377(3) 0.5408(2)
C55_6 C 0.7065(7) 0.2590(4) 0.5891(3)
C56_6 C 0.6644(6) 0.2081(4) 0.4414(3)
C57_6 C 0.6970(7) 0.2107(4) 0.3894(3)
C58_6 C 0.6690(7) 0.2318(4) 0.5393(3)
C59_6 C 0.5727(6) 0.1788(4) 0.4921(3)
C60_6 C 0.6978(7) 0.2334(4) 0.4896(3)
H19_6 H 0.7397 0.2514 0.4887
C64_6 C 0.6017(6) 0.1810(4) 0.4429(3)
H21_6 H 0.5793 0.1643 0.4108
C66_6 C 0.3647(6) 0.2382(4) 0.5002(3)
C67_6 C 0.6063(6) 0.2045(4) 0.5403(3)
H22_6 H 0.5867 0.2034 0.5732
C68_6 C 0.3796(6) 0.1891(4) 0.4966(3)
C69_6 C 0.4626(6) 0.0273(4) 0.3461(3)
C71_6 C 0.3807(5) 0.2803(4) 0.4571(3)
H24_6 H 0.4020 0.2782 0.4266
C74_6 C 0.3828(7) 0.3688(6) 0.4118(3)
C75_6 C 0.2791(5) 0.2859(4) 0.5952(3)
C76_6 C 0.3325(6) 0.2418(4) 0.5455(3)
H26_6 H 0.3225 0.2148 0.5749
C78_6 C 0.3652(5) 0.3249(4) 0.4593(3)
C79_6 C 0.3316(6) 0.3273(4) 0.5044(3)
H27_6 H 0.3204 0.3568 0.5056
C80_6 C 0.3155(7) 0.2857(6) 0.5467(3)
C81_6 C 0.5053(4) 0.1490(3) 0.4945(3)
O68_3 O 0.5042(4) 0.2440(5) 0.5918(2)
O77_3 O 0.4927(4) 0.2469(5) 0.3890(2)
O10_6 O 0.2285(3) 0.6319(3) 0.2922(3)
C7_6 C 0.0616(4) 0.4201(5) 0.3296(3)
H2_6 H 0.0360 0.3787 0.3335
C8_6 C 0.1227(4) 0.4427(6) 0.3182(4)
C9_6 C 0.0386(4) 0.4595(4) 0.3352(3)
C11_6 C 0.1467(4) 0.3997(6) 0.3138(3)
C16_6 C 0.0776(4) 0.5218(4) 0.3309(4)
H5_6 H 0.0629 0.5483 0.3358
C18_6 C 0.1609(4) 0.5046(6) 0.3127(3)
H7_6 H 0.2017 0.5198 0.3048
C19_6 C 0.1785(4) 0.6111(4) 0.3158(4)
C23_6 C 0.1384(4) 0.5443(3) 0.3192(3)
O19_6 O 0.3059(4) 0.7149(4) 0.2243(4)
O20_6 O 0.6191(2) 0.5619(3) 0.3622(3)
O22_6 O 0.7823(2) 0.6178(3) 0.5417(2)
O24_6 O 0.6600(2) 0.5233(4) 0.4490(2)
O26_6 O 0.7863(2) 0.6127(4) 0.4497(2)
O29_6 O 0.3681(3) 0.5965(4) 0.2922(3)
O33_6 O 0.6571(3) 0.5193(4) 0.5408(2)
C28_6 C 0.5526(6) 0.2935(7) 0.5891(3)
C29_6 C 0.5438(5) 0.3356(6) 0.4414(3)
C30_6 C 0.5138(6) 0.3030(7) 0.3894(3)
C31_6 C 0.5629(6) 0.3310(7) 0.5393(3)
C32_6 C 0.6062(4) 0.4273(6) 0.4921(3)
C33_6 C 0.5357(6) 0.3022(7) 0.4896(3)
H10_6 H 0.5118 0.2603 0.4887
C34_6 C 0.5799(5) 0.6414(6) 0.3296(3)
H11_6 H 0.6213 0.6572 0.3335
C35_6 C 0.5573(6) 0.6799(7) 0.3182(4)
C36_6 C 0.5405(4) 0.5790(6) 0.3352(3)
C37_6 C 0.5794(4) 0.3983(6) 0.4429(3)
H12_6 H 0.5851 0.4207 0.4108
C38_6 C 0.6003(6) 0.7469(7) 0.3138(3)
C39_6 C 0.8736(4) 0.6353(6) 0.5002(3)
C40_6 C 0.5983(4) 0.3937(6) 0.5403(3)
H13_6 H 0.6168 0.4133 0.5732
C41_6 C 0.8096(4) 0.6204(6) 0.4966(3)
C42_6 C 0.5648(4) 0.5374(6) 0.3461(3)
C43_6 C 0.4782(4) 0.5557(6) 0.3309(4)
H14_6 H 0.4517 0.5145 0.3358
C44_6 C 0.8997(3) 0.6193(5) 0.4571(3)
H15_6 H 0.8763 0.5980 0.4266
C45_6 C 0.4954(6) 0.6562(7) 0.3127(3)
H16_6 H 0.4802 0.6818 0.3048
C46_6 C 0.3889(4) 0.5673(6) 0.3158(4)
C47_6 C 0.9861(4) 0.6172(7) 0.4118(3)
C49_6 C 0.9094(4) 0.6675(6) 0.5455(3)
H17_6 H 0.8924 0.6775 0.5749
C50_6 C 0.4557(3) 0.5940(5) 0.3192(3)
C51_6 C 0.9598(3) 0.6348(5) 0.4593(3)
O38_6 O 0.2851(4) 0.5909(6) 0.2243(4)
C52_6 C 0.9958(4) 0.6684(6) 0.5044(3)
C53_6 C 0.9703(4) 0.6845(7) 0.5467(3)
C54_6 C 0.6438(3) 0.4947(4) 0.4945(3)
O48_6 O 0.4035(4) 0.7715(3) 0.2922(3)
C61_6 C 0.3586(6) 0.9384(4) 0.3296(3)
H20_6 H 0.3428 0.9640 0.3335
C62_6 C 0.3201(7) 0.8773(4) 0.3182(4)
C63_6 C 0.4210(6) 0.9614(4) 0.3352(3)
C65_6 C 0.2531(7) 0.8533(4) 0.3138(3)
C70_6 C 0.4443(6) 0.9224(4) 0.3309(4)
H23_6 H 0.4855 0.9371 0.3358
C72_6 C 0.3438(7) 0.8391(4) 0.3127(3)
H25_6 H 0.3182 0.7983 0.3048
C73_6 C 0.4327(6) 0.8215(4) 0.3158(4)
C77_6 C 0.4060(5) 0.8616(4) 0.3192(3)
O57_6 O 0.4091(6) 0.6941(4) 0.2243(4)
O67_3 O 0.7399(3) 0.4958(4) 0.5918(2)
O76_3 O 0.7543(3) 0.5073(4) 0.3890(2)
O1_6 O 0.9429(2) 0.3809(2) 0.3622(3)
O3_6 O 0.8356(2) 0.2177(2) 0.5417(2)
O5_6 O 0.8634(3) 0.3400(2) 0.4490(2)
O7_6 O 0.8265(3) 0.2137(2) 0.4497(2)
O14_6 O 0.8623(3) 0.3429(3) 0.5408(2)
C1_6 C 0.7410(4) 0.4474(6) 0.5891(3)
C2_6 C 0.7919(4) 0.4562(5) 0.4414(3)
C3_6 C 0.7893(4) 0.4862(6) 0.3894(3)
C4_6 C 0.7682(4) 0.4371(6) 0.5393(3)
C5_6 C 0.8212(4) 0.3938(4) 0.4921(3)
C6_6 C 0.7666(4) 0.4643(6) 0.4896(3)
H1_6 H 0.7486 0.4882 0.4887
C10_6 C 0.8190(4) 0.4206(4) 0.4429(3)
H3_6 H 0.8357 0.4149 0.4108
C12_6 C 0.7618(4) 0.1264(4) 0.5002(3)
C13_6 C 0.7955(4) 0.4017(4) 0.5403(3)
H4_6 H 0.7966 0.3832 0.5732
C14_6 C 0.8109(4) 0.1904(4) 0.4966(3)
C15_6 C 0.9727(4) 0.4352(4) 0.3461(3)
C17_6 C 0.7197(4) 0.1003(3) 0.4571(3)
H6_6 H 0.7218 0.1237 0.4266
C20_6 C 0.6312(6) 0.0139(4) 0.4118(3)
C22_6 C 0.7582(4) 0.0906(4) 0.5455(3)
H8_6 H 0.7852 0.1076 0.5749
C24_6 C 0.6751(4) 0.0402(3) 0.4593(3)
C25_6 C 0.6727(4) 0.0042(4) 0.5044(3)
C26_6 C 0.7143(6) 0.0297(4) 0.5467(3)
C27_6 C 0.8510(3) 0.3562(3) 0.4945(3)
C21_6 C 0.7141(4) 0.9931(3) 0.5952(3)
H9_6 H 0.6432 0.9635 0.5056
loop_
_geom_bond_atom_site_label_1
_geom_bond_atom_site_label_2
_geom_bond_site_symmetry_1
_geom_bond_site_symmetry_2
O6 C20 1_555 1_555
O16 C20 1_555 1_555
Th34 O6 1_555 1_555
Th2 O3 1_555 1_555
O3 C14 1_555 1_555
O4 C21 1_555 1_555
O7 Th1 1_555 1_555
O9 C21 1_555 1_555
C12 C14 1_555 1_555
C14 O7 1_555 1_555
C17 C12 1_555 1_555
H6 C17 1_555 1_555
C21 C26 1_555 1_555
C22 C12 1_555 1_555
H8 C22 1_555 1_555
C24 C17 1_555 1_555
C25 C24 1_555 1_555
C26 C22 1_555 1_555
O27 C28 1_555 1_555
O30 C28 1_555 1_555
O31 C30 1_555 1_555
O32 C30 1_555 1_555
C28 C31 1_555 1_555
C31 C33 1_555 1_555
H10 C33 1_555 1_555
Th10 O31 1_555 1_555
Th22 O27 1_555 1_555
Th26 O9 1_555 1_555
Th37 O30 1_555 1_555
O62 Th1 1_555 1_555
O69 Th2 1_555 1_555
O70 Th2 1_555 1_555
O78 Th1 1_555 1_555
O84 Th2 1_555 1_555
O93 Th2 1_555 1_555
C25 C26 1_555 1_555
Th3 O10 1_555 1_555
O10 C19 1_555 1_555
O15 C11 1_555 1_555
O18 C11 1_555 1_555
C8 C7 1_555 1_555
C11 C8 1_555 1_555
C18 C8 1_555 1_555
H7 C18 1_555 1_555
C19 C23 1_555 1_555
C23 C16 1_555 1_555
O19 Th3 1_555 1_555
O29 Th3 1_555 1_555
O34 C38 1_555 1_555
O37 C38 1_555 1_555
C35 C34 1_555 1_555
C38 C35 1_555 1_555
C45 C35 1_555 1_555
H16 C45 1_555 1_555
C46 O29 1_555 1_555
C50 C43 1_555 1_555
O38 Th3 1_555 1_555
O48 Th3 1_555 1_555
O53 C65 1_555 1_555
O56 C65 1_555 1_555
C62 C61 1_555 1_555
C65 C62 1_555 1_555
C72 C62 1_555 1_555
H25 C72 1_555 1_555
C73 O48 1_555 1_555
C77 C70 1_555 1_555
O57 Th3 1_555 1_555
Th23 O53 1_555 1_555
C18 C23 1_555 1_555
C45 C50 1_555 1_555
C46 C50 1_555 1_555
C72 C77 1_555 1_555
C73 C77 1_555 1_555
O1 C15 1_555 1_555
O2 C15 1_555 1_555
O8 C1 1_555 1_555
O11 C1 1_555 1_555
O12 C3 1_555 1_555
O13 C3 1_555 1_555
C1 C4 1_555 1_555
C2 C3 1_555 1_555
C4 C6 1_555 1_555
C5 C10 1_555 1_555
C6 C2 1_555 1_555
H1 C6 1_555 1_555
C10 C2 1_555 1_555
H3 C10 1_555 1_555
C13 C4 1_555 1_555
H4 C13 1_555 1_555
C15 C9 1_555 1_555
C27 O5 1_555 1_555
O20 C42 1_555 1_555
O21 C42 1_555 1_555
C32 C37 1_555 1_555
C37 C29 1_555 1_555
H12 C37 1_555 1_555
H13 C40 1_555 1_555
C42 C36 1_555 1_555
C54 O24 1_555 1_555
Th10 O39 1_555 1_555
Th22 O41 1_555 1_555
O39 C69 1_555 1_555
O40 C69 1_555 1_555
O41 C68 1_555 1_555
O42 C75 1_555 1_555
O43 Th10 1_555 1_555
O45 Th10 1_555 1_555
O47 C75 1_555 1_555
O52 Th22 1_555 1_555
C59 C64 1_555 1_555
C64 C56 1_555 1_555
H21 C64 1_555 1_555
C66 C68 1_555 1_555
H22 C67 1_555 1_555
C68 O45 1_555 1_555
C69 C63 1_555 1_555
C71 C66 1_555 1_555
H24 C71 1_555 1_555
C75 C80 1_555 1_555
C76 C66 1_555 1_555
H26 C76 1_555 1_555
C78 C71 1_555 1_555
C79 C78 1_555 1_555
C80 C76 1_555 1_555
C81 O43 1_555 1_555
Th9 O12 1_555 1_555
Th21 O8 1_555 1_555
Th28 O47 1_555 1_555
Th30 O17 1_555 1_555
Th37_4 O11 1_555 1_555
O61 Th10 1_555 1_555
O64 Th22 1_555 1_555
O72 Th22 1_555 1_555
O83 Th22 1_555 1_555
O90 Th22 1_555 1_555
O92 Th22 1_555 1_555
O14 C27 1_555 1_555
C5 C13 1_555 1_555
C5 C27 1_555 1_555
O33 C54 1_555 1_555
O36 Th32 1_555 1_555
C32 C40 1_555 1_555
C32 C54 1_555 1_555
O52 C81 1_555 1_555
O55 Th34 1_555 1_555
C59 C67 1_555 1_555
C59 C81 1_555 1_555
C79 C80 1_555 1_555
O44 C74 1_555 1_555
O54 C74 1_555 1_555
Th32 O44 1_555 1_555
Th21 O22 1_555 1_555
O22 C41 1_555 1_555
O23 C48 1_555 1_555
O25 C47 1_555 1_555
O26 Th9 1_555 1_555
O28 C48 1_555 1_555
O35 C47 1_555 1_555
C39 C41 1_555 1_555
C41 O26 1_555 1_555
C44 C39 1_555 1_555
H15 C44 1_555 1_555
C47 C51 1_555 1_555
C48 C53 1_555 1_555
C49 C39 1_555 1_555
H17 C49 1_555 1_555
C51 C44 1_555 1_555
C52 C51 1_555 1_555
H18 C52 1_555 1_555
C53 C49 1_555 1_555
O69 C55 1_555 1_555
O49 C55 1_555 1_555
O78 C57 1_555 1_555
O51 C57 1_555 1_555
C55 C58 1_555 1_555
C58 C60 1_555 1_555
H19 C60 1_555 1_555
Th17 O23 1_555 1_555
Th27 O28 1_555 1_555
Th30 O25 1_555 1_555
Th37_3 O49 1_555 1_555
O63 Th9 1_555 1_555
O71 Th21 1_555 1_555
O82 Th21 1_555 1_555
O91 Th21 1_555 1_555
C52 C53 1_555 1_555
Th1_2 O1_2 1_555 1_555
Th23 O3_2 1_555 1_555
Th3_2 O10_2 1_555 1_555
O1_2 C15_2 1_555 1_555
O2_2 C15_2 1_555 1_555
O3_2 C14_2 1_555 1_555
O4_2 C21_2 1_555 1_555
O5_2 Th1_2 1_555 1_555
O6_2 C20_2 1_555 1_555
O7_2 Th1_2 1_555 1_555
O8_2 C1_2 1_555 1_555
O9_2 C21_2 1_555 1_555
O10_2 C19_2 1_555 1_555
O11_2 C1_2 1_555 1_555
O12_2 C3_2 1_555 1_555
O13_2 C3_2 1_555 1_555
O14_2 Th23 1_555 1_555
O15_2 C11_2 1_555 1_555
O16_2 C20_2 1_555 1_555
O17_2 C19_2 1_555 1_555
C1_2 C4_2 1_555 1_555
C2_2 C3_2 1_555 1_555
C4_2 C6_2 1_555 1_555
C5_2 C10_2 1_555 1_555
C6_2 C2_2 1_555 1_555
H1_2 C6_2 1_555 1_555
O18_2 C11_2 1_555 1_555
C7_2 H2_2 1_555 1_555
C8_2 C7_2 1_555 1_555
C9_2 C7_2 1_555 1_555
C10_2 C2_2 1_555 1_555
H3_2 C10_2 1_555 1_555
C11_2 C8_2 1_555 1_555
C12_2 C14_2 1_555 1_555
C13_2 C4_2 1_555 1_555
H4_2 C13_2 1_555 1_555
C14_2 O7_2 1_555 1_555
C15_2 C9_2 1_555 1_555
C16_2 C9_2 1_555 1_555
H5_2 C16_2 1_555 1_555
C17_2 C12_2 1_555 1_555
H6_2 C17_2 1_555 1_555
C18_2 C8_2 1_555 1_555
H7_2 C18_2 1_555 1_555
C19_2 C23_2 1_555 1_555
C20_2 C24_2 1_555 1_555
C21_2 C26_2 1_555 1_555
C22_2 C12_2 1_555 1_555
H8_2 C22_2 1_555 1_555
C23_2 C16_2 1_555 1_555
C24_2 C17_2 1_555 1_555
C25_2 C24_2 1_555 1_555
H9_2 C25_2 1_555 1_555
C26_2 C22_2 1_555 1_555
C27_2 O5_2 1_555 1_555
O38_2 Th3_2 1_555 1_555
Th9_2 O12_2 1_555 1_555
Th14_2 O16_2 1_555 1_555
Th16_2 O2_2 1_555 1_555
Th16 O4_2 1_555 1_555
Th24 O8_2 1_555 1_555
Th24_2 O15_2 1_555 1_555
Th32_2 O18_2 1_555 1_555
Th34_2 O6_2 1_555 1_555
O59_2 Th1_2 1_555 1_555
O62_2 Th1_2 1_555 1_555
O65_2 Th23 1_555 1_555
O69_2 Th23 1_555 1_555
O73_2 Th3_2 1_555 1_555
O78_2 Th1_2 1_555 1_555
O80_2 Th1_2 1_555 1_555
O87_2 Th1_2 1_555 1_555
O88_2 Th23 1_555 1_555
O13_2 Th16_2 1_555 1_555
O14_2 C27_2 1_555 1_555
C5_2 C13_2 1_555 1_555
C5_2 C27_2 1_555 1_555
C18_2 C23_2 1_555 1_555
C25_2 C26_2 1_555 1_555
O19_2 Th3_3 1_555 1_555
O42_2 C75_2 1_555 1_555
O47_2 C75_2 1_555 1_555
O53_2 C65_2 1_555 1_555
O56_2 C65_2 1_555 1_555
C65_2 C62_2 1_555 1_555
C75_2 C80_2 1_555 1_555
H26_2 C76_2 1_555 1_555
H27_2 C79_2 1_555 1_555
C80_2 C76_2 1_555 1_555
Th14 O42_2 1_555 1_555
Th23_2 O53_2 1_555 1_555
O75_2 Th3_3 1_555 1_555
O56_2 Th30_2 1_555 1_555
C79_2 C80_2 1_555 1_555
Th9_2 O20_2 1_555 1_555
Th24 O22_2 1_555 1_555
O20_2 C42_2 1_555 1_555
O21_2 C42_2 1_555 1_555
O22_2 C41_2 1_555 1_555
O24_2 Th9_2 1_555 1_555
O25_2 C47_2 1_555 1_555
O26_2 Th9_2 1_555 1_555
O27_2 C28_2 1_555 1_555
O29_2 Th3_4 1_555 1_555
O30_2 C28_2 1_555 1_555
O31_2 C30_2 1_555 1_555
O32_2 C30_2 1_555 1_555
O33_2 Th24 1_555 1_555
O35_2 C47_2 1_555 1_555
O36_2 C46_2 1_555 1_555
C28_2 C31_2 1_555 1_555
C29_2 C30_2 1_555 1_555
C31_2 C33_2 1_555 1_555
C32_2 C37_2 1_555 1_555
C33_2 C29_2 1_555 1_555
H10_2 C33_2 1_555 1_555
C34_2 H11_2 1_555 1_555
C36_2 C34_2 1_555 1_555
C37_2 C29_2 1_555 1_555
H12_2 C37_2 1_555 1_555
C39_2 C41_2 1_555 1_555
C40_2 C31_2 1_555 1_555
H13_2 C40_2 1_555 1_555
C41_2 O26_2 1_555 1_555
C42_2 C36_2 1_555 1_555
C43_2 C36_2 1_555 1_555
H14_2 C43_2 1_555 1_555
C44_2 C39_2 1_555 1_555
H15_2 C44_2 1_555 1_555
C46_2 O29_2 1_555 1_555
C47_2 C51_2 1_555 1_555
C50_2 C43_2 1_555 1_555
C51_2 C44_2 1_555 1_555
C54_2 O24_2 1_555 1_555
Th10_2 O31_2 1_555 1_555
Th12_2 O21_2 1_555 1_555
Th16_2 O35_2 1_555 1_555
Th25 O27_2 1_555 1_555
O60_2 Th9_2 1_555 1_555
O66_2 Th24 1_555 1_555
O81_2 Th9_2 1_555 1_555
O85_2 Th9_2 1_555 1_555
O89_2 Th24 1_555 1_555
O32_2 Th12_2 1_555 1_555
O33_2 C54_2 1_555 1_555
C32_2 C40_2 1_555 1_555
C32_2 C54_2 1_555 1_555
C45_2 C50_2 1_555 1_555
C46_2 C50_2 1_555 1_555
O23_2 C48_2 1_555 1_555
O28_2 C48_2 1_555 1_555
O34_2 C38_2 1_555 1_555
O37_2 C38_2 1_555 1_555
C38_2 C35_2 1_555 1_555
C48_2 C53_2 1_555 1_555
H17_2 C49_2 1_555 1_555
H18_2 C52_2 1_555 1_555
C53_2 C49_2 1_555 1_555
Th10_2 O39_2 1_555 1_555
Th25 O41_2 1_555 1_555
O39_2 C69_2 1_555 1_555
O40_2 C69_2 1_555 1_555
O41_2 C68_2 1_555 1_555
O43_2 Th10_2 1_555 1_555
O44_2 C74_2 1_555 1_555
O45_2 Th10_2 1_555 1_555
O69_2 C55_2 1_555 1_555
O48_2 Th3_5 1_555 1_555
O49_2 C55_2 1_555 1_555
O78_2 C57_2 1_555 1_555
O51_2 C57_2 1_555 1_555
O52_2 Th25 1_555 1_555
O54_2 C74_2 1_555 1_555
O55_2 C73_2 1_555 1_555
C55_2 C58_2 1_555 1_555
C56_2 C57_2 1_555 1_555
C58_2 C60_2 1_555 1_555
C59_2 C64_2 1_555 1_555
C60_2 C56_2 1_555 1_555
H19_2 C60_2 1_555 1_555
C61_2 H20_2 1_555 1_555
C63_2 C61_2 1_555 1_555
C64_2 C56_2 1_555 1_555
H21_2 C64_2 1_555 1_555
C66_2 C68_2 1_555 1_555
C67_2 C58_2 1_555 1_555
H22_2 C67_2 1_555 1_555
C68_2 O45_2 1_555 1_555
C69_2 C63_2 1_555 1_555
C70_2 C63_2 1_555 1_555
H23_2 C70_2 1_555 1_555
C71_2 C66_2 1_555 1_555
H24_2 C71_2 1_555 1_555
C73_2 O48_2 1_555 1_555
C74_2 C78_2 1_555 1_555
C77_2 C70_2 1_555 1_555
C78_2 C71_2 1_555 1_555
O57_2 Th3_5 1_555 1_555
C81_2 O43_2 1_555 1_555
Th12_2 O54_2 1_555 1_555
Th14_2 O40_2 1_555 1_555
Th12 O23_2 1_555 1_555
Th25_2 O34_2 1_555 1_555
Th34_2 O37_2 1_555 1_555
O58_2 Th10_2 1_555 1_555
O64_2 Th25 1_555 1_555
O74_2 Th3_5 1_555 1_555
O79_2 Th10_2 1_555 1_555
O86_2 Th10_2 1_555 1_555
O90_2 Th25 1_555 1_555
C52_2 C53_2 1_555 1_555
O51_2 Th14_2 1_555 1_555
O52_2 C81_2 1_555 1_555
O55_2 Th34_2 1_555 1_555
C59_2 C67_2 1_555 1_555
C59_2 C81_2 1_555 1_555
C72_2 C77_2 1_555 1_555
C73_2 C77_2 1_555 1_555
O4_3 C21_3 1_555 1_555
Th16_2 O4_3 1_555 1_555
Th28 O6_3 1_555 1_555
Th1_3 O1_3 1_555 1_555
Th23_2 O3_3 1_555 1_555
O1_3 C15_3 1_555 1_555
O2_3 C15_3 1_555 1_555
O3_3 C14_3 1_555 1_555
O5_3 Th1_3 1_555 1_555
O7_3 Th1_3 1_555 1_555
O8_3 C1_3 1_555 1_555
O11_3 C1_3 1_555 1_555
O12_3 C3_3 1_555 1_555
O13_3 C3_3 1_555 1_555
O14_3 Th23_2 1_555 1_555
O16_3 C20_3 1_555 1_555
C1_3 C4_3 1_555 1_555
C2_3 C3_3 1_555 1_555
C4_3 C6_3 1_555 1_555
C5_3 C10_3 1_555 1_555
C6_3 C2_3 1_555 1_555
H1_3 C6_3 1_555 1_555
C10_3 C2_3 1_555 1_555
H3_3 C10_3 1_555 1_555
C12_3 C14_3 1_555 1_555
C13_3 C4_3 1_555 1_555
H4_3 C13_3 1_555 1_555
C14_3 O7_3 1_555 1_555
C17_3 C12_3 1_555 1_555
H6_3 C17_3 1_555 1_555
C20_3 C24_3 1_555 1_555
C22_3 C12_3 1_555 1_555
H8_3 C22_3 1_555 1_555
C24_3 C17_3 1_555 1_555
C25_3 C24_3 1_555 1_555
C26_3 C22_3 1_555 1_555
C27_3 O5_3 1_555 1_555
Th9_3 O12_3 1_555 1_555
Th18 O16_3 1_555 1_555
Th19 O2_3 1_555 1_555
Th24_2 O8_3 1_555 1_555
Th30_2 O9_3 1_555 1_555
Th37_6 O11_3 1_555 1_555
O59_3 Th1_3 1_555 1_555
O62_3 Th1_3 1_555 1_555
O65_3 Th23_2 1_555 1_555
O69_3 Th23_2 1_555 1_555
O70_3 Th23_2 1_555 1_555
O78_3 Th1_3 1_555 1_555
O80_3 Th1_3 1_555 1_555
O87_3 Th1_3 1_555 1_555
O88_3 Th23_2 1_555 1_555
O93_3 Th23_2 1_555 1_555
O13_3 Th19 1_555 1_555
O14_3 C27_3 1_555 1_555
C5_3 C13_3 1_555 1_555
C5_3 C27_3 1_555 1_555
C25_3 C26_3 1_555 1_555
Th3_6 O10_3 1_555 1_555
O10_3 C19_3 1_555 1_555
O82 C11_3 1_555 1_555
O17_3 C19_3 1_555 1_555
O18_3 C11_3 1_555 1_555
C7_3 H2_3 1_555 1_555
C8_3 C7_3 1_555 1_555
C9_3 C7_3 1_555 1_555
C11_3 C8_3 1_555 1_555
C16_3 C9_3 1_555 1_555
H5_3 C16_3 1_555 1_555
C18_3 C8_3 1_555 1_555
H7_3 C18_3 1_555 1_555
C19_3 C23_3 1_555 1_555
C23_3 C16_3 1_555 1_555
O19_3 Th3_6 1_555 1_555
Th9_3 O20_3 1_555 1_555
Th24_2 O22_3 1_555 1_555
O20_3 C42_3 1_555 1_555
O21_3 C42_3 1_555 1_555
O22_3 C41_3 1_555 1_555
O24_3 Th9_3 1_555 1_555
O26_3 Th9_3 1_555 1_555
O27_3 C28_3 1_555 1_555
O29_3 Th3_6 1_555 1_555
O30_3 C28_3 1_555 1_555
O31_3 C30_3 1_555 1_555
O32_3 C30_3 1_555 1_555
O33_3 Th24_2 1_555 1_555
O83 C38_3 1_555 1_555
O35_3 C47_3 1_555 1_555
O36_3 C46_3 1_555 1_555
C28_3 C31_3 1_555 1_555
C29_3 C30_3 1_555 1_555
C31_3 C33_3 1_555 1_555
C32_3 C37_3 1_555 1_555
C33_3 C29_3 1_555 1_555
H10_3 C33_3 1_555 1_555
O37_3 C38_3 1_555 1_555
C34_3 H11_3 1_555 1_555
C35_3 C34_3 1_555 1_555
C36_3 C34_3 1_555 1_555
C37_3 C29_3 1_555 1_555
H12_3 C37_3 1_555 1_555
C38_3 C35_3 1_555 1_555
C39_3 C41_3 1_555 1_555
C40_3 C31_3 1_555 1_555
H13_3 C40_3 1_555 1_555
C41_3 O26_3 1_555 1_555
C42_3 C36_3 1_555 1_555
C43_3 C36_3 1_555 1_555
H14_3 C43_3 1_555 1_555
C44_3 C39_3 1_555 1_555
H15_3 C44_3 1_555 1_555
C45_3 C35_3 1_555 1_555
H16_3 C45_3 1_555 1_555
C46_3 O29_3 1_555 1_555
C47_3 C51_3 1_555 1_555
C49_3 C39_3 1_555 1_555
H17_3 C49_3 1_555 1_555
C50_3 C43_3 1_555 1_555
C51_3 C44_3 1_555 1_555
O38_3 Th3_6 1_555 1_555
C52_3 C51_3 1_555 1_555
C53_3 C49_3 1_555 1_555
C54_3 O24_3 1_555 1_555
O48_3 Th3_6 1_555 1_555
O84 C65_3 1_555 1_555
O55_3 C73_3 1_555 1_555
O56_3 C65_3 1_555 1_555
C61_3 H20_3 1_555 1_555
C62_3 C61_3 1_555 1_555
C63_3 C61_3 1_555 1_555
C65_3 C62_3 1_555 1_555
C70_3 C63_3 1_555 1_555
H23_3 C70_3 1_555 1_555
C72_3 C62_3 1_555 1_555
H25_3 C72_3 1_555 1_555
C73_3 O48_3 1_555 1_555
C77_3 C70_3 1_555 1_555
O57_3 Th3_6 1_555 1_555
Th10_3 O31_3 1_555 1_555
Th17 O21_3 1_555 1_555
Th19 O35_3 1_555 1_555
Th25_2 O27_3 1_555 1_555
Th32_2 O28_3 1_555 1_555
Th26 O17_3 1_555 1_555
Th27 O18_3 1_555 1_555
Th28 O37_3 1_555 1_555
Th37_6 O30_3 1_555 1_555
O60_3 Th9_3 1_555 1_555
O63_3 Th9_3 1_555 1_555
O66_3 Th24_2 1_555 1_555
O71_3 Th24_2 1_555 1_555
O73_3 Th3_6 1_555 1_555
O74_3 Th3_6 1_555 1_555
O75_3 Th3_6 1_555 1_555
O81_3 Th9_3 1_555 1_555
O85_3 Th9_3 1_555 1_555
O89_3 Th24_2 1_555 1_555
O91_3 Th24_2 1_555 1_555
C18_3 C23_3 1_555 1_555
O32_3 Th17 1_555 1_555
O33_3 C54_3 1_555 1_555
O36_3 Th27 1_555 1_555
C32_3 C40_3 1_555 1_555
C32_3 C54_3 1_555 1_555
C45_3 C50_3 1_555 1_555
C46_3 C50_3 1_555 1_555
C52_3 C53_3 1_555 1_555
O55_3 Th28 1_555 1_555
O56_3 Th26 1_555 1_555
C72_3 C77_3 1_555 1_555
C73_3 C77_3 1_555 1_555
Th10_3 O39_3 1_555 1_555
Th25_2 O41_3 1_555 1_555
O39_3 C69_3 1_555 1_555
O40_3 C69_3 1_555 1_555
O41_3 C68_3 1_555 1_555
O42_3 C75_3 1_555 1_555
O43_3 Th10_3 1_555 1_555
O44_3 C74_3 1_555 1_555
O45_3 Th10_3 1_555 1_555
O69_3 C55_3 1_555 1_555
O47_3 C75_3 1_555 1_555
O49_3 C55_3 1_555 1_555
O78_3 C57_3 1_555 1_555
O51_3 C57_3 1_555 1_555
O52_3 Th25_2 1_555 1_555
O54_3 C74_3 1_555 1_555
C55_3 C58_3 1_555 1_555
C56_3 C57_3 1_555 1_555
C58_3 C60_3 1_555 1_555
C59_3 C64_3 1_555 1_555
C60_3 C56_3 1_555 1_555
H19_3 C60_3 1_555 1_555
C64_3 C56_3 1_555 1_555
H21_3 C64_3 1_555 1_555
C66_3 C68_3 1_555 1_555
C67_3 C58_3 1_555 1_555
H22_3 C67_3 1_555 1_555
C68_3 O45_3 1_555 1_555
C71_3 C66_3 1_555 1_555
H24_3 C71_3 1_555 1_555
C74_3 C78_3 1_555 1_555
C75_3 C80_3 1_555 1_555
C76_3 C66_3 1_555 1_555
H26_3 C76_3 1_555 1_555
C78_3 C71_3 1_555 1_555
C79_3 C78_3 1_555 1_555
H27_3 C79_3 1_555 1_555
C80_3 C76_3 1_555 1_555
C81_3 O43_3 1_555 1_555
Th17 O54_3 1_555 1_555
Th18 O40_3 1_555 1_555
Th14_2 O42_3 1_555 1_555
Th34_2 O47_3 1_555 1_555
Th27 O44_3 1_555 1_555
Th37_6 O49_3 1_555 1_555
O58_3 Th10_3 1_555 1_555
O61_3 Th10_3 1_555 1_555
O64_3 Th25_2 1_555 1_555
O72_3 Th25_2 1_555 1_555
O79_3 Th10_3 1_555 1_555
O86_3 Th10_3 1_555 1_555
O90_3 Th25_2 1_555 1_555
O92_3 Th25_2 1_555 1_555
O51_3 Th18 1_555 1_555
O52_3 C81_3 1_555 1_555
C59_3 C67_3 1_555 1_555
C59_3 C81_3 1_555 1_555
C79_3 C80_3 1_555 1_555
O23_3 C48_3 1_555 1_555
Th12_2 O23_3 1_555 1_555
Th26 O25_3 1_555 1_555
Th32_2 O22_4 1_555 1_555
O22_4 C41_4 1_555 1_555
O62_2 C48_4 1_555 1_555
O65_2 C47_4 1_555 1_555
O26_4 Th14 1_555 1_555
O71_3 C48_4 1_555 1_555
O86 C47_4 1_555 1_555
C39_4 C41_4 1_555 1_555
C41_4 O26_4 1_555 1_555
C44_4 C39_4 1_555 1_555
H15_4 C44_4 1_555 1_555
C47_4 C51_4 1_555 1_555
C48_4 C53_4 1_555 1_555
C49_4 C39_4 1_555 1_555
H17_4 C49_4 1_555 1_555
C51_4 C44_4 1_555 1_555
C52_4 C51_4 1_555 1_555
H18_4 C52_4 1_555 1_555
C53_4 C49_4 1_555 1_555
O46 C55_4 1_555 1_555
O75_2 C55_4 1_555 1_555
O50 C57_4 1_555 1_555
O81 C57_4 1_555 1_555
C55_4 C58_4 1_555 1_555
C58_4 C60_4 1_555 1_555
H19_4 C60_4 1_555 1_555
Th12 O50 1_555 1_555
Th30_2 O46 1_555 1_555
O67 Th32_2 1_555 1_555
O76 Th14 1_555 1_555
O82_2 Th32_2 1_555 1_555
C52_4 C53_4 1_555 1_555
O66_2 C74_4 1_555 1_555
O87 C74_4 1_555 1_555
O1_4 C15_4 1_555 1_555
O58 C15_4 1_555 1_555
O67 C1_4 1_555 1_555
O73_2 C1_4 1_555 1_555
O76 C3_4 1_555 1_555
O79 C3_4 1_555 1_555
C1_4 C4_4 1_555 1_555
C2_4 C3_4 1_555 1_555
C4_4 C6_4 1_555 1_555
C5_4 C10_4 1_555 1_555
C6_4 C2_4 1_555 1_555
H1_4 C6_4 1_555 1_555
C10_4 C2_4 1_555 1_555
H3_4 C10_4 1_555 1_555
C13_4 C4_4 1_555 1_555
H4_4 C13_4 1_555 1_555
C15_4 C9_4 1_555 1_555
C27_4 O5_4 1_555 1_555
O20_4 C42_4 1_555 1_555
O59 C42_4 1_555 1_555
C32_4 C37_4 1_555 1_555
C37_4 C29_4 1_555 1_555
H12_4 C37_4 1_555 1_555
H13_4 C40_4 1_555 1_555
C42_4 C36_4 1_555 1_555
C54_4 O24_4 1_555 1_555
Th16 O39_4 1_555 1_555
Th34_2 O41_4 1_555 1_555
O39_4 C69_4 1_555 1_555
O60 C69_4 1_555 1_555
O41_4 C68_4 1_555 1_555
O63_2 C75_4 1_555 1_555
O43_4 Th16 1_555 1_555
O45_4 Th16 1_555 1_555
O72_3 C75_4 1_555 1_555
O52_4 Th34_2 1_555 1_555
C59_4 C64_4 1_555 1_555
C64_4 C56_4 1_555 1_555
H21_4 C64_4 1_555 1_555
C66_4 C68_4 1_555 1_555
H22_4 C67_4 1_555 1_555
C68_4 O45_4 1_555 1_555
C69_4 C63_4 1_555 1_555
C71_4 C66_4 1_555 1_555
H24_4 C71_4 1_555 1_555
C75_4 C80_4 1_555 1_555
C76_4 C66_4 1_555 1_555
H26_4 C76_4 1_555 1_555
C78_4 C71_4 1_555 1_555
C79_4 C78_4 1_555 1_555
C80_4 C76_4 1_555 1_555
C81_4 O43_4 1_555 1_555
O68 Th34_2 1_555 1_555
O77 Th16 1_555 1_555
O83_2 Th34_2 1_555 1_555
O14_4 C27_4 1_555 1_555
C5_4 C13_4 1_555 1_555
C5_4 C27_4 1_555 1_555
O33_4 C54_4 1_555 1_555
C32_4 C40_4 1_555 1_555
C32_4 C54_4 1_555 1_555
O52_4 C81_4 1_555 1_555
C59_4 C67_4 1_555 1_555
C59_4 C81_4 1_555 1_555
C79_4 C80_4 1_555 1_555
Th37_5 O10_4 1_555 1_555
O10_4 C19_4 1_555 1_555
O15_3 C11_4 1_555 1_555
O91_2 C11_4 1_555 1_555
C8_4 C7_4 1_555 1_555
C11_4 C8_4 1_555 1_555
C18_4 C8_4 1_555 1_555
H7_4 C18_4 1_555 1_555
C19_4 C23_4 1_555 1_555
C23_4 C16_4 1_555 1_555
O19_4 Th37_5 1_555 1_555
O29_4 Th37_5 1_555 1_555
O34_3 C38_4 1_555 1_555
O92_2 C38_4 1_555 1_555
C35_4 C34_4 1_555 1_555
C38_4 C35_4 1_555 1_555
C45_4 C35_4 1_555 1_555
H16_4 C45_4 1_555 1_555
C46_4 O29_4 1_555 1_555
C50_4 C43_4 1_555 1_555
O38_4 Th37_5 1_555 1_555
O48_4 Th37_5 1_555 1_555
O53_3 C65_4 1_555 1_555
O93_2 C65_4 1_555 1_555
C62_4 C61_4 1_555 1_555
C65_4 C62_4 1_555 1_555
C72_4 C62_4 1_555 1_555
H25_4 C72_4 1_555 1_555
C73_4 O48_4 1_555 1_555
C77_4 C70_4 1_555 1_555
O57_4 Th37_5 1_555 1_555
Th30 O53_3 1_555 1_555
C18_4 C23_4 1_555 1_555
C45_4 C50_4 1_555 1_555
C46_4 C50_4 1_555 1_555
C72_4 C77_4 1_555 1_555
C73_4 C77_4 1_555 1_555
Th30_2 O3_4 1_555 1_555
O3_4 C14_4 1_555 1_555
O61_2 C21_4 1_555 1_555
O7_4 Th12 1_555 1_555
O70_3 C21_4 1_555 1_555
C12_4 C14_4 1_555 1_555
C14_4 O7_4 1_555 1_555
C17_4 C12_4 1_555 1_555
H6_4 C17_4 1_555 1_555
C21_4 C26_4 1_555 1_555
C22_4 C12_4 1_555 1_555
H8_4 C22_4 1_555 1_555
C24_4 C17_4 1_555 1_555
C25_4 C24_4 1_555 1_555
C26_4 C22_4 1_555 1_555
O68 C28_4 1_555 1_555
O74_2 C28_4 1_555 1_555
O77 C30_4 1_555 1_555
O80 C30_4 1_555 1_555
C28_4 C31_4 1_555 1_555
C31_4 C33_4 1_555 1_555
H10_4 C33_4 1_555 1_555
O84_2 Th30_2 1_555 1_555
C25_4 C26_4 1_555 1_555
O64_2 C20_4 1_555 1_555
O85 C20_4 1_555 1_555
O62 C48_5 1_555 1_555
O71_2 C48_5 1_555 1_555
O34_4 C38_5 1_555 1_555
O92 C38_5 1_555 1_555
C38_5 C35_5 1_555 1_555
C48_5 C53_5 1_555 1_555
H17_5 C49_5 1_555 1_555
H18_5 C52_5 1_555 1_555
C53_5 C49_5 1_555 1_555
Th19 O39_5 1_555 1_555
Th34 O41_5 1_555 1_555
O39_5 C69_5 1_555 1_555
O60_3 C69_5 1_555 1_555
O41_5 C68_5 1_555 1_555
O43_5 Th19 1_555 1_555
O66 C74_5 1_555 1_555
O45_5 Th19 1_555 1_555
O46_2 C55_5 1_555 1_555
O48_5 Th37 1_555 1_555
O75 C55_5 1_555 1_555
O50_2 C57_5 1_555 1_555
O81_3 C57_5 1_555 1_555
O52_5 Th34 1_555 1_555
O87_3 C74_5 1_555 1_555
O90 C73_5 1_555 1_555
C55_5 C58_5 1_555 1_555
C56_5 C57_5 1_555 1_555
C58_5 C60_5 1_555 1_555
C59_5 C64_5 1_555 1_555
C60_5 C56_5 1_555 1_555
H19_5 C60_5 1_555 1_555
C61_5 H20_5 1_555 1_555
C63_5 C61_5 1_555 1_555
C64_5 C56_5 1_555 1_555
H21_5 C64_5 1_555 1_555
C66_5 C68_5 1_555 1_555
C67_5 C58_5 1_555 1_555
H22_5 C67_5 1_555 1_555
C68_5 O45_5 1_555 1_555
C69_5 C63_5 1_555 1_555
C70_5 C63_5 1_555 1_555
H23_5 C70_5 1_555 1_555
C71_5 C66_5 1_555 1_555
H24_5 C71_5 1_555 1_555
C73_5 O48_5 1_555 1_555
C74_5 C78_5 1_555 1_555
C77_5 C70_5 1_555 1_555
C78_5 C71_5 1_555 1_555
O57_5 Th37 1_555 1_555
C81_5 O43_5 1_555 1_555
Th17 O50_2 1_555 1_555
Th30 O46_2 1_555 1_555
Th28 O34_4 1_555 1_555
O68_2 Th34 1_555 1_555
O77_2 Th19 1_555 1_555
C52_5 C53_5 1_555 1_555
O52_5 C81_5 1_555 1_555
C59_5 C67_5 1_555 1_555
C59_5 C81_5 1_555 1_555
C72_5 C77_5 1_555 1_555
C73_5 C77_5 1_555 1_555
Th18 O20_5 1_555 1_555
Th32 O22_5 1_555 1_555
O20_5 C42_5 1_555 1_555
O59_3 C42_5 1_555 1_555
O22_5 C41_5 1_555 1_555
O24_5 Th18 1_555 1_555
O65 C47_5 1_555 1_555
O26_5 Th18 1_555 1_555
O68_2 C28_5 1_555 1_555
O29_5 Th37_2 1_555 1_555
O74 C28_5 1_555 1_555
O77_2 C30_5 1_555 1_555
O80_3 C30_5 1_555 1_555
O33_5 Th32 1_555 1_555
O86_3 C47_5 1_555 1_555
O89 C46_5 1_555 1_555
C28_5 C31_5 1_555 1_555
C29_5 C30_5 1_555 1_555
C31_5 C33_5 1_555 1_555
C32_5 C37_5 1_555 1_555
C33_5 C29_5 1_555 1_555
H10_5 C33_5 1_555 1_555
C34_5 H11_5 1_555 1_555
C36_5 C34_5 1_555 1_555
C37_5 C29_5 1_555 1_555
H12_5 C37_5 1_555 1_555
C39_5 C41_5 1_555 1_555
C40_5 C31_5 1_555 1_555
H13_5 C40_5 1_555 1_555
C41_5 O26_5 1_555 1_555
C42_5 C36_5 1_555 1_555
C43_5 C36_5 1_555 1_555
H14_5 C43_5 1_555 1_555
C44_5 C39_5 1_555 1_555
H15_5 C44_5 1_555 1_555
C46_5 O29_5 1_555 1_555
C47_5 C51_5 1_555 1_555
C50_5 C43_5 1_555 1_555
C51_5 C44_5 1_555 1_555
C54_5 O24_5 1_555 1_555
O67_2 Th32 1_555 1_555
O76_2 Th18 1_555 1_555
O33_5 C54_5 1_555 1_555
C32_5 C40_5 1_555 1_555
C32_5 C54_5 1_555 1_555
C45_5 C50_5 1_555 1_555
C46_5 C50_5 1_555 1_555
O19_5 Th37_3 1_555 1_555
O63 C75_5 1_555 1_555
O72_2 C75_5 1_555 1_555
O53_4 C65_5 1_555 1_555
O93 C65_5 1_555 1_555
C65_5 C62_5 1_555 1_555
C75_5 C80_5 1_555 1_555
H26_5 C76_5 1_555 1_555
H27_5 C79_5 1_555 1_555
C80_5 C76_5 1_555 1_555
Th26 O53_4 1_555 1_555
C79_5 C80_5 1_555 1_555
Th17 O1_5 1_555 1_555
Th30 O3_5 1_555 1_555
Th37_4 O10_5 1_555 1_555
O1_5 C15_5 1_555 1_555
O58_3 C15_5 1_555 1_555
O3_5 C14_5 1_555 1_555
O61 C21_5 1_555 1_555
O5_5 Th17 1_555 1_555
O64 C20_5 1_555 1_555
O7_5 Th17 1_555 1_555
O67_2 C1_5 1_555 1_555
O70_2 C21_5 1_555 1_555
O10_5 C19_5 1_555 1_555
O73 C1_5 1_555 1_555
O76_2 C3_5 1_555 1_555
O79_3 C3_5 1_555 1_555
O14_5 Th30 1_555 1_555
O15_4 C11_5 1_555 1_555
O85_3 C20_5 1_555 1_555
O88 C19_5 1_555 1_555
C1_5 C4_5 1_555 1_555
C2_5 C3_5 1_555 1_555
C4_5 C6_5 1_555 1_555
C5_5 C10_5 1_555 1_555
C6_5 C2_5 1_555 1_555
H1_5 C6_5 1_555 1_555
O91 C11_5 1_555 1_555
C7_5 H2_5 1_555 1_555
C8_5 C7_5 1_555 1_555
C9_5 C7_5 1_555 1_555
C10_5 C2_5 1_555 1_555
H3_5 C10_5 1_555 1_555
C11_5 C8_5 1_555 1_555
C12_5 C14_5 1_555 1_555
C13_5 C4_5 1_555 1_555
H4_5 C13_5 1_555 1_555
C14_5 O7_5 1_555 1_555
C15_5 C9_5 1_555 1_555
C16_5 C9_5 1_555 1_555
H5_5 C16_5 1_555 1_555
C17_5 C12_5 1_555 1_555
H6_5 C17_5 1_555 1_555
C18_5 C8_5 1_555 1_555
H7_5 C18_5 1_555 1_555
C19_5 C23_5 1_555 1_555
C20_5 C24_5 1_555 1_555
C21_5 C26_5 1_555 1_555
C22_5 C12_5 1_555 1_555
H8_5 C22_5 1_555 1_555
C23_5 C16_5 1_555 1_555
C24_5 C17_5 1_555 1_555
C25_5 C24_5 1_555 1_555
H9_5 C25_5 1_555 1_555
C26_5 C22_5 1_555 1_555
C27_5 O5_5 1_555 1_555
O38_5 Th37_4 1_555 1_555
Th27 O15_4 1_555 1_555
O14_5 C27_5 1_555 1_555
C5_5 C13_5 1_555 1_555
C5_5 C27_5 1_555 1_555
C18_5 C23_5 1_555 1_555
C25_5 C26_5 1_555 1_555
O62_3 C48_6 1_555 1_555
Th16_2 O39_6 1_555 1_555
Th28 O41_6 1_555 1_555
O39_6 C69_6 1_555 1_555
O60_2 C69_6 1_555 1_555
O41_6 C68_6 1_555 1_555
O63_3 C75_6 1_555 1_555
O43_6 Th16_2 1_555 1_555
O66_3 C74_6 1_555 1_555
O45_6 Th16_2 1_555 1_555
O46_3 C55_6 1_555 1_555
O72 C75_6 1_555 1_555
O75_3 C55_6 1_555 1_555
O50_3 C57_6 1_555 1_555
O81_2 C57_6 1_555 1_555
O52_6 Th28 1_555 1_555
O87_2 C74_6 1_555 1_555
C55_6 C58_6 1_555 1_555
C56_6 C57_6 1_555 1_555
C58_6 C60_6 1_555 1_555
C59_6 C64_6 1_555 1_555
C60_6 C56_6 1_555 1_555
H19_6 C60_6 1_555 1_555
C64_6 C56_6 1_555 1_555
H21_6 C64_6 1_555 1_555
C66_6 C68_6 1_555 1_555
C67_6 C58_6 1_555 1_555
H22_6 C67_6 1_555 1_555
C68_6 O45_6 1_555 1_555
C71_6 C66_6 1_555 1_555
H24_6 C71_6 1_555 1_555
C74_6 C78_6 1_555 1_555
C75_6 C80_6 1_555 1_555
C76_6 C66_6 1_555 1_555
H26_6 C76_6 1_555 1_555
C78_6 C71_6 1_555 1_555
C79_6 C78_6 1_555 1_555
H27_6 C79_6 1_555 1_555
C80_6 C76_6 1_555 1_555
C81_6 O43_6 1_555 1_555
Th12_2 O50_3 1_555 1_555
Th26 O46_3 1_555 1_555
O68_3 Th28 1_555 1_555
O77_3 Th16_2 1_555 1_555
O52_6 C81_6 1_555 1_555
C59_6 C67_6 1_555 1_555
C59_6 C81_6 1_555 1_555
C79_6 C80_6 1_555 1_555
Th37_6 O10_6 1_555 1_555
O10_6 C19_6 1_555 1_555
O82_2 C11_6 1_555 1_555
O88_3 C19_6 1_555 1_555
O91_3 C11_6 1_555 1_555
C7_6 H2_6 1_555 1_555
C8_6 C7_6 1_555 1_555
C9_6 C7_6 1_555 1_555
C11_6 C8_6 1_555 1_555
C16_6 C9_6 1_555 1_555
H5_6 C16_6 1_555 1_555
C18_6 C8_6 1_555 1_555
H7_6 C18_6 1_555 1_555
C19_6 C23_6 1_555 1_555
C23_6 C16_6 1_555 1_555
O19_6 Th37_6 1_555 1_555
Th14_2 O20_6 1_555 1_555
Th27 O22_6 1_555 1_555
O20_6 C42_6 1_555 1_555
O59_2 C42_6 1_555 1_555
O22_6 C41_6 1_555 1_555
O24_6 Th14_2 1_555 1_555
O26_6 Th14_2 1_555 1_555
O68_3 C28_6 1_555 1_555
O29_6 Th37_6 1_555 1_555
O74_3 C28_6 1_555 1_555
O77_3 C30_6 1_555 1_555
O80_2 C30_6 1_555 1_555
O33_6 Th27 1_555 1_555
O83_2 C38_6 1_555 1_555
O86_2 C47_6 1_555 1_555
O89_3 C46_6 1_555 1_555
C28_6 C31_6 1_555 1_555
C29_6 C30_6 1_555 1_555
C31_6 C33_6 1_555 1_555
C32_6 C37_6 1_555 1_555
C33_6 C29_6 1_555 1_555
H10_6 C33_6 1_555 1_555
O92_3 C38_6 1_555 1_555
C34_6 H11_6 1_555 1_555
C35_6 C34_6 1_555 1_555
C36_6 C34_6 1_555 1_555
C37_6 C29_6 1_555 1_555
H12_6 C37_6 1_555 1_555
C38_6 C35_6 1_555 1_555
C39_6 C41_6 1_555 1_555
C40_6 C31_6 1_555 1_555
H13_6 C40_6 1_555 1_555
C41_6 O26_6 1_555 1_555
C42_6 C36_6 1_555 1_555
C43_6 C36_6 1_555 1_555
H14_6 C43_6 1_555 1_555
C44_6 C39_6 1_555 1_555
H15_6 C44_6 1_555 1_555
C45_6 C35_6 1_555 1_555
H16_6 C45_6 1_555 1_555
C46_6 O29_6 1_555 1_555
C47_6 C51_6 1_555 1_555
C49_6 C39_6 1_555 1_555
H17_6 C49_6 1_555 1_555
C50_6 C43_6 1_555 1_555
C51_6 C44_6 1_555 1_555
O38_6 Th37_6 1_555 1_555
C52_6 C51_6 1_555 1_555
C53_6 C49_6 1_555 1_555
C54_6 O24_6 1_555 1_555
O48_6 Th37_6 1_555 1_555
O84_2 C65_6 1_555 1_555
O90_3 C73_6 1_555 1_555
O93_3 C65_6 1_555 1_555
C61_6 H20_6 1_555 1_555
C62_6 C61_6 1_555 1_555
C63_6 C61_6 1_555 1_555
C65_6 C62_6 1_555 1_555
C70_6 C63_6 1_555 1_555
H23_6 C70_6 1_555 1_555
C72_6 C62_6 1_555 1_555
H25_6 C72_6 1_555 1_555
C73_6 O48_6 1_555 1_555
C77_6 C70_6 1_555 1_555
O57_6 Th37_6 1_555 1_555
O67_3 Th27 1_555 1_555
O76_3 Th14_2 1_555 1_555
C18_6 C23_6 1_555 1_555
O33_6 C54_6 1_555 1_555
C32_6 C40_6 1_555 1_555
C32_6 C54_6 1_555 1_555
C45_6 C50_6 1_555 1_555
C46_6 C50_6 1_555 1_555
C52_6 C53_6 1_555 1_555
C72_6 C77_6 1_555 1_555
C73_6 C77_6 1_555 1_555
Th12_2 O1_6 1_555 1_555
Th26 O3_6 1_555 1_555
O1_6 C15_6 1_555 1_555
O58_2 C15_6 1_555 1_555
O3_6 C14_6 1_555 1_555
O5_6 Th12_2 1_555 1_555
O7_6 Th12_2 1_555 1_555
O67_3 C1_6 1_555 1_555
O73_3 C1_6 1_555 1_555
O76_3 C3_6 1_555 1_555
O79_2 C3_6 1_555 1_555
O14_6 Th26 1_555 1_555
O85_2 C20_6 1_555 1_555
C1_6 C4_6 1_555 1_555
C2_6 C3_6 1_555 1_555
C4_6 C6_6 1_555 1_555
C5_6 C10_6 1_555 1_555
C6_6 C2_6 1_555 1_555
H1_6 C6_6 1_555 1_555
C10_6 C2_6 1_555 1_555
H3_6 C10_6 1_555 1_555
C12_6 C14_6 1_555 1_555
C13_6 C4_6 1_555 1_555
H4_6 C13_6 1_555 1_555
C14_6 O7_6 1_555 1_555
C17_6 C12_6 1_555 1_555
H6_6 C17_6 1_555 1_555
C20_6 C24_6 1_555 1_555
C22_6 C12_6 1_555 1_555
H8_6 C22_6 1_555 1_555
C24_6 C17_6 1_555 1_555
C25_6 C24_6 1_555 1_555
C26_6 C22_6 1_555 1_555
C27_6 O5_6 1_555 1_555
O14_6 C27_6 1_555 1_555
C5_6 C13_6 1_555 1_555
C5_6 C27_6 1_555 1_555
C25_6 C26_6 1_555 1_555
O61_3 C21_6 1_555 1_555

#END
