
###############################################################################
#
# This file contains modified crystal structure data generated from the
# MOF subset of the Cambridge Structural Database (CSD) v543 
# hosted by the Cambridge Crystallographic Data Centre (CCDC).
#
# This work is licensed under the Creative Commons
# Attribution-NonCommercial-ShareAlike 4.0 International License.
# To view a copy of this license, visit
# http://creativecommons.org/licenses/by-nc-sa/4.0/
# or send a letter to
# Creative Commons, PO Box 1866, Mountain View, CA 94042, USA.
#
# CIF created using the CSD Python API on 29 September 2022
# The structure has been converted into the P1 space group
# The structure has a 3D framework
# The original CSD entry GAGXAP is in the monoclinic crystal system
# The framework has been calculated to contain at least 10.0% void space
# The void calculation uses a probe of radius 1.32A, grid spacing 0.4
# H atom positions have been added when not included in the experimental data
#
###############################################################################

data_GAGXAP
_chemical_formula_moiety         '(C176 H176 N16 Ni24 O116)n'
_symmetry_cell_setting           triclinic
_symmetry_space_group_name_H-M   'P 1'
_symmetry_Int_Tables_number      1
_space_group_name_Hall           'P 1'
loop_
_symmetry_equiv_pos_site_id
_symmetry_equiv_pos_as_xyz
1 x,y,z
_cell_length_a                   13.2005(10)
_cell_length_b                   11.6660(9)
_cell_length_c                   40.078(3)
_cell_angle_alpha                90
_cell_angle_beta                 94.9310(10)
_cell_angle_gamma                90
_cell_volume                     6149.05
loop_
_atom_site_label
_atom_site_type_symbol
_atom_site_fract_x
_atom_site_fract_y
_atom_site_fract_z
C3 C 0.1471(4) 0.4615(4) 0.24750(12)
H3 H 0.1505 0.5411 0.2475
C4 C 0.1751(4) 0.4019(4) 0.27671(11)
C5 C 0.2142(4) 0.4665(4) 0.30747(11)
Ni2 Ni 0.22100(5) 0.18958(5) 0.164150(14)
O2 O 0.1211(2) 0.0735(3) 0.14092(7)
O3 O 0.2315(3) 0.5710(3) 0.30299(7)
O4 O 0.2288(3) 0.4121(3) 0.33469(8)
O5 O 0.1754(3) 0.3200(3) 0.13360(9)
O6 O 0.1720(3) 0.0306(3) 0.07300(8)
N1 N 0.0816(3) 0.2266(3) 0.18667(9)
O10 O 0.0024(3) 0.0136(3) 0.07393(8)
O11 O 0.3227(3) 0.3066(3) 0.18751(10)
O13 O 0.0410(3) 0.4252(4) 0.11654(11)
C6 C 0.1685(4) 0.2843(4) 0.27596(12)
H4 H 0.1861 0.2429 0.2954
C7 C 0.0462(4) 0.0462(4) 0.15702(11)
C8 C 0.0344(4) 0.1121(4) 0.18883(12)
H5 H 0.0668 0.0706 0.2078
C9 C 0.0219(4) 0.2954(4) 0.16057(11)
C10 C 0.1076(4) 0.2868(4) 0.21791(11)
C12 C 0.1365(4) 0.2264(4) 0.24697(12)
H9 H 0.1344 0.1467 0.2469
C14 C 0.0679(4) 0.1078(5) 0.02837(11)
C16 C 0.1143(4) 0.4046(4) 0.21849(12)
H14 H 0.0964 0.4462 0.1991
C18 C 0.1509(5) 0.1249(6) 0.01016(13)
H15 H 0.2150 0.1015 0.0190
C20 C 0.0819(4) 0.0459(5) 0.06132(12)
C21 C 0.0846(4) 0.3522(4) 0.13492(12)
Ni4 Ni 0.27622(5) 0.47158(5) 0.381730(13)
Ni7 Ni 0.27900(5) 0.68958(5) 0.335850(14)
O16 O 0.2685(3) 0.0710(3) 0.19701(7)
O18 O 0.3116(2) 0.1186(3) 0.12935(7)
H21 H 0.284445 0.371592 0.196347
H22 H 0.363584 0.268319 0.206267
C1 C 0.1400(5) 0.1761(6) 0.97916(13)
H1 H 0.1968 0.1857 0.9672
O7 O 0.1884(2) 0.3814(3) 0.87065(7)
O9 O 0.0683(3) 0.2513(3) 0.86744(7)
N2 N 0.0338(4) 0.2599(4) 0.93175(10)
C11 C 0.1252(4) 0.3210(4) 0.88397(11)
C13 C 0.1209(5) 0.3277(5) 0.92150(12)
H10 H 0.1837 0.2982 0.9326
H11 H 0.1137 0.4070 0.9282
C22 C 0.0457(5) 0.2138(5) 0.96530(12)
Ni5 Ni 0.27622(5) 0.52842(5) 0.881730(13)
Ni8 Ni 0.27900(5) 0.31042(5) 0.835850(14)
Ni9 Ni 0.02195(5) 0.11690(6) 0.895380(14)
Ni1 Ni 0.22378(5) 0.97158(5) 0.118270(13)
O12 O 0.3426(3) 0.8934(3) 0.09749(8)
O17 O 0.2712(3) 0.9121(3) 0.16531(8)
O19 O 0.1266(3) 0.8322(3) 0.10853(8)
H19 H 0.40064 0.884664 0.114775
H20 H 0.320818 0.816685 0.0888646
C2 C 0.9624(5) 0.1972(5) 0.98341(13)
H2 H 0.8983 0.2210 0.9747
O8 O 0.8734(3) 0.1678(3) 0.89147(8)
C15 C 0.9393(5) 0.3273(5) 0.92377(13)
H12 H 0.9545 0.3904 0.9092
H13 H 0.9186 0.3600 0.9444
C17 C 0.8515(5) 0.2602(6) 0.90710(14)
O15 O 0.7646(4) 0.3000(4) 0.90826(14)
Ni6 Ni 0.77622(5) 0.02842(5) 0.881730(13)
Ni3 Ni 0.97805(5) 0.88310(6) 0.104620(14)
O1 O 0.9852(3) 0.9681(3) 0.14924(8)
O14 O 0.8231(3) 0.9286(4) 0.09675(10)
O20 O 0.9317(3) 0.7487(3) 0.13256(7)
N3 N 0.9662(4) 0.7401(4) 0.06825(10)
H18 H 0.794139 0.897122 0.0749632
C2_2 C 0.0376(5) 0.1972(5) 0.51659(13)
H2_2 H 0.1017 0.2210 0.5253
O8_2 O 0.1266(3) 0.1678(3) 0.60853(8)
H6 H 0.0372 0.1205 0.3079
H7 H 0.0281 0.2457 0.3512
H8 H 0.0147 0.3545 0.3284
C15_2 C 0.0607(5) 0.3273(5) 0.57623(13)
H12_2 H 0.0455 0.3904 0.5908
H13_2 H 0.0814 0.3600 0.5556
C17_2 C 0.1485(5) 0.2602(6) 0.59290(14)
C19 C 0.0256(4) 0.1447(5) 0.48516(13)
H16 H 0.0821 0.1345 0.4731
O15_2 O 0.2354(4) 0.3000(4) 0.59174(14)
Ni6_2 Ni 0.22378(5) 0.02842(5) 0.618270(13)
H17 H 0.183356 0.0134071 0.403501
Ni3_2 Ni 0.02195(5) 0.88310(6) 0.395380(14)
O1_2 O 0.0148(3) 0.9681(3) 0.35076(8)
O14_2 O 0.1769(3) 0.9286(4) 0.40325(10)
O20_2 O 0.0683(3) 0.7487(3) 0.36744(7)
N3_2 N 0.0338(4) 0.7401(4) 0.43175(10)
H18_2 H 0.205861 0.897122 0.425037
C1_2 C 0.8600(5) 0.1761(6) 0.52084(13)
H1_2 H 0.8032 0.1857 0.5328
C3_2 C 0.8529(4) 0.4615(4) 0.25250(12)
H3_2 H 0.8495 0.5411 0.2525
C4_2 C 0.8249(4) 0.4019(4) 0.22329(11)
C5_2 C 0.7858(4) 0.4665(4) 0.19253(11)
Ni2_2 Ni 0.77900(5) 0.18958(5) 0.335850(14)
O2_2 O 0.8789(2) 0.0735(3) 0.35908(7)
O3_2 O 0.7685(3) 0.5710(3) 0.19701(7)
O4_2 O 0.7712(3) 0.4121(3) 0.16531(8)
O5_2 O 0.8246(3) 0.3200(3) 0.36640(9)
O6_2 O 0.8280(3) 0.0306(3) 0.42700(8)
O7_2 O 0.8116(2) 0.3814(3) 0.62935(7)
N1_2 N 0.9184(3) 0.2266(3) 0.31333(9)
O9_2 O 0.9317(3) 0.2513(3) 0.63256(7)
O10_2 O 0.9976(3) 0.0136(3) 0.42607(8)
O11_2 O 0.6773(3) 0.3066(3) 0.31249(10)
O13_2 O 0.9590(3) 0.4252(4) 0.38346(11)
C6_2 C 0.8315(4) 0.2843(4) 0.22404(12)
H4_2 H 0.8139 0.2429 0.2046
C7_2 C 0.9538(4) 0.0462(4) 0.34298(11)
C8_2 C 0.9656(4) 0.1121(4) 0.31117(12)
H5_2 H 0.9332 0.0706 0.2922
N2_2 N 0.9662(4) 0.2599(4) 0.56825(10)
C9_2 C 0.9781(4) 0.2954(4) 0.33943(11)
C10_2 C 0.8924(4) 0.2868(4) 0.28209(11)
C11_2 C 0.8748(4) 0.3210(4) 0.61603(11)
C12_2 C 0.8635(4) 0.2264(4) 0.25303(12)
H9_2 H 0.8656 0.1467 0.2531
C13_2 C 0.8791(5) 0.3277(5) 0.57850(12)
H10_2 H 0.8163 0.2982 0.5674
H11_2 H 0.8863 0.4070 0.5718
C14_2 C 0.9321(4) 0.1078(5) 0.47163(11)
C16_2 C 0.8857(4) 0.4046(4) 0.28151(12)
H14_2 H 0.9036 0.4462 0.3009
C18_2 C 0.8491(5) 0.1249(6) 0.48984(13)
H15_2 H 0.7850 0.1015 0.4810
C20_2 C 0.9181(4) 0.0459(5) 0.43868(12)
C21_2 C 0.9154(4) 0.3522(4) 0.36508(12)
C22_2 C 0.9543(5) 0.2138(5) 0.53470(12)
Ni4_2 Ni 0.72378(5) 0.47158(5) 0.118270(13)
Ni5_2 Ni 0.72378(5) 0.52842(5) 0.618270(13)
Ni7_2 Ni 0.72100(5) 0.68958(5) 0.164150(14)
Ni8_2 Ni 0.72100(5) 0.31042(5) 0.664150(14)
Ni9_2 Ni 0.97805(5) 0.11690(6) 0.604620(14)
O16_2 O 0.7315(3) 0.0710(3) 0.30299(7)
O18_2 O 0.6884(2) 0.1186(3) 0.37065(7)
H21_2 H 0.715555 0.371592 0.303653
H22_2 H 0.636416 0.268319 0.293733
Ni1_2 Ni 0.77622(5) 0.97158(5) 0.381730(13)
O12_2 O 0.6574(3) 0.8934(3) 0.40251(8)
O17_2 O 0.7288(3) 0.9121(3) 0.33469(8)
O19_2 O 0.8734(3) 0.8322(3) 0.39147(8)
H19_2 H 0.59936 0.884664 0.385225
H20_2 H 0.679182 0.816685 0.411135
H3_3 H 0.6505 0.0411 0.2475
C3_3 C 0.6471(4) 0.9615(4) 0.24750(12)
C4_3 C 0.6751(4) 0.9019(4) 0.27671(11)
C5_3 C 0.7142(4) 0.9665(4) 0.30747(11)
Ni3_3 Ni 0.47805(5) 0.38310(6) 0.104620(14)
O1_3 O 0.4852(3) 0.4681(3) 0.14924(8)
O2_3 O 0.6211(2) 0.5735(3) 0.14092(7)
O5_3 O 0.6754(3) 0.8200(3) 0.13360(9)
O6_3 O 0.6720(3) 0.5306(3) 0.07300(8)
N1_3 N 0.5816(3) 0.7266(3) 0.18667(9)
O10_3 O 0.5024(3) 0.5136(3) 0.07393(8)
O11_3 O 0.8227(3) 0.8066(3) 0.18751(10)
O12_3 O 0.8426(3) 0.3934(3) 0.09749(8)
O13_3 O 0.5410(3) 0.9252(4) 0.11654(11)
C6_3 C 0.6685(4) 0.7843(4) 0.27596(12)
H4_3 H 0.6861 0.7429 0.2954
C7_3 C 0.5462(4) 0.5462(4) 0.15702(11)
C8_3 C 0.5344(4) 0.6121(4) 0.18883(12)
H5_3 H 0.5668 0.5706 0.2078
H6_2 H 0.4628 0.6205 0.1921
C9_3 C 0.5219(4) 0.7954(4) 0.16057(11)
H7_2 H 0.4719 0.7457 0.1488
H8_2 H 0.4853 0.8545 0.1716
C10_3 C 0.6076(4) 0.7868(4) 0.21791(11)
C12_3 C 0.6365(4) 0.7264(4) 0.24697(12)
H9_3 H 0.6344 0.6467 0.2469
C14_3 C 0.5679(4) 0.6078(5) 0.02837(11)
O14_3 O 0.3231(3) 0.4286(4) 0.09675(10)
C16_3 C 0.6143(4) 0.9046(4) 0.21849(12)
H14_3 H 0.5964 0.9462 0.1991
C18_3 C 0.6509(5) 0.6249(6) 0.01016(13)
H15_3 H 0.7150 0.6015 0.0190
C19_2 C 0.4744(4) 0.6447(5) 0.01484(13)
H16_2 H 0.4179 0.6345 0.0269
C20_3 C 0.5819(4) 0.5459(5) 0.06132(12)
C21_3 C 0.5846(4) 0.8522(4) 0.13492(12)
O18_3 O 0.8116(2) 0.6186(3) 0.12935(7)
O19_3 O 0.6266(3) 0.3322(3) 0.10853(8)
O20_3 O 0.4317(3) 0.2487(3) 0.13256(7)
N3_3 N 0.4662(4) 0.2401(4) 0.06825(10)
H17_2 H 0.316644 0.513407 0.096499
H18_3 H 0.294139 0.397122 0.0749632
H19_3 H 0.90064 0.384664 0.114775
H20_3 H 0.820818 0.316685 0.0888646
H21_3 H 0.784445 0.871592 0.196347
H22_3 H 0.863584 0.768319 0.206267
C1_3 C 0.6400(5) 0.6761(6) 0.97916(13)
H1_3 H 0.6968 0.6857 0.9672
C2_3 C 0.4624(5) 0.6972(5) 0.98341(13)
H2_3 H 0.3983 0.7210 0.9747
O7_3 O 0.6884(2) 0.8814(3) 0.87065(7)
O8_3 O 0.3734(3) 0.6678(3) 0.89147(8)
O9_3 O 0.5683(3) 0.7513(3) 0.86744(7)
N2_3 N 0.5338(4) 0.7599(4) 0.93175(10)
C11_3 C 0.6252(4) 0.8210(4) 0.88397(11)
C13_3 C 0.6209(5) 0.8277(5) 0.92150(12)
H10_3 H 0.6837 0.7982 0.9326
H11_3 H 0.6137 0.9070 0.9282
C15_3 C 0.4393(5) 0.8273(5) 0.92377(13)
H12_3 H 0.4545 0.8904 0.9092
H13_3 H 0.4186 0.8600 0.9444
C17_3 C 0.3515(5) 0.7602(6) 0.90710(14)
O15_3 O 0.2646(4) 0.8000(4) 0.90826(14)
C22_3 C 0.5457(5) 0.7138(5) 0.96530(12)
Ni8_3 Ni 0.77900(5) 0.81042(5) 0.835850(14)
Ni9_3 Ni 0.52195(5) 0.61690(6) 0.895380(14)
H3_4 H 0.3495 0.0411 0.2525
C1_4 C 0.3600(5) 0.6761(6) 0.52084(13)
H1_4 H 0.3032 0.6857 0.5328
C2_4 C 0.5376(5) 0.6972(5) 0.51659(13)
H2_4 H 0.6017 0.7210 0.5253
C3_4 C 0.3529(4) 0.9615(4) 0.25250(12)
C4_4 C 0.3249(4) 0.9019(4) 0.22329(11)
C5_4 C 0.2858(4) 0.9665(4) 0.19253(11)
Ni3_4 Ni 0.52195(5) 0.38310(6) 0.395380(14)
O1_4 O 0.5148(3) 0.4681(3) 0.35076(8)
O2_4 O 0.3789(2) 0.5735(3) 0.35908(7)
O5_4 O 0.3246(3) 0.8200(3) 0.36640(9)
O6_4 O 0.3280(3) 0.5306(3) 0.42700(8)
O7_4 O 0.3116(2) 0.8814(3) 0.62935(7)
O8_4 O 0.6266(3) 0.6678(3) 0.60853(8)
N1_4 N 0.4184(3) 0.7266(3) 0.31333(9)
O9_4 O 0.4317(3) 0.7513(3) 0.63256(7)
O10_4 O 0.4976(3) 0.5136(3) 0.42607(8)
O11_4 O 0.1773(3) 0.8066(3) 0.31249(10)
O12_4 O 0.1574(3) 0.3934(3) 0.40251(8)
O13_4 O 0.4590(3) 0.9252(4) 0.38346(11)
C6_4 C 0.3315(4) 0.7843(4) 0.22404(12)
H4_4 H 0.3139 0.7429 0.2046
C7_4 C 0.4538(4) 0.5462(4) 0.34298(11)
C8_4 C 0.4656(4) 0.6121(4) 0.31117(12)
H5_4 H 0.4332 0.5706 0.2922
H6_3 H 0.5372 0.6205 0.3079
N2_4 N 0.4662(4) 0.7599(4) 0.56825(10)
C9_4 C 0.4781(4) 0.7954(4) 0.33943(11)
H7_3 H 0.5281 0.7457 0.3512
H8_3 H 0.5147 0.8545 0.3284
C10_4 C 0.3924(4) 0.7868(4) 0.28209(11)
C11_4 C 0.3748(4) 0.8210(4) 0.61603(11)
C12_4 C 0.3635(4) 0.7264(4) 0.25303(12)
H9_4 H 0.3656 0.6467 0.2531
C13_4 C 0.3791(5) 0.8277(5) 0.57850(12)
H10_4 H 0.3163 0.7982 0.5674
H11_4 H 0.3863 0.9070 0.5718
C14_4 C 0.4321(4) 0.6078(5) 0.47163(11)
O14_4 O 0.6769(3) 0.4286(4) 0.40325(10)
C15_4 C 0.5607(5) 0.8273(5) 0.57623(13)
H12_4 H 0.5455 0.8904 0.5908
H13_4 H 0.5814 0.8600 0.5556
C16_4 C 0.3857(4) 0.9046(4) 0.28151(12)
H14_4 H 0.4036 0.9462 0.3009
C17_4 C 0.6485(5) 0.7602(6) 0.59290(14)
C18_4 C 0.3491(5) 0.6249(6) 0.48984(13)
H15_4 H 0.2850 0.6015 0.4810
C19_3 C 0.5256(4) 0.6447(5) 0.48516(13)
H16_3 H 0.5821 0.6345 0.4731
C20_4 C 0.4181(4) 0.5459(5) 0.43868(12)
C21_4 C 0.4154(4) 0.8522(4) 0.36508(12)
O15_4 O 0.7354(4) 0.8000(4) 0.59174(14)
C22_4 C 0.4543(5) 0.7138(5) 0.53470(12)
Ni8_4 Ni 0.22100(5) 0.81042(5) 0.664150(14)
Ni9_4 Ni 0.47805(5) 0.61690(6) 0.604620(14)
O18_4 O 0.1884(2) 0.6186(3) 0.37065(7)
O19_4 O 0.3734(3) 0.3322(3) 0.39147(8)
O20_4 O 0.5683(3) 0.2487(3) 0.36744(7)
N3_4 N 0.5338(4) 0.2401(4) 0.43175(10)
H17_3 H 0.683356 0.513407 0.403501
H18_4 H 0.705861 0.397122 0.425037
H19_4 H 0.0993598 0.384664 0.385225
H20_4 H 0.179182 0.316685 0.411135
H21_4 H 0.215555 0.871592 0.303653
H22_4 H 0.136416 0.768319 0.293733
O1_5 O 0.0148(3) 0.0319(3) 0.85076(8)
O14_5 O 0.1769(3) 0.0714(4) 0.90325(10)
H18_5 H 0.205861 0.102878 0.925037
C2_5 C 0.0376(5) 0.8028(5) 0.01659(13)
H2_5 H 0.1017 0.7790 0.0253
C15_5 C 0.0607(5) 0.6727(5) 0.07623(13)
H12_5 H 0.0455 0.6096 0.0908
H13_5 H 0.0814 0.6400 0.0556
C17_5 C 0.1485(5) 0.7398(6) 0.09290(14)
O15_5 O 0.2354(4) 0.7000(4) 0.09174(14)
O12_5 O 0.6574(3) 0.1066(3) 0.90251(8)
O17_3 O 0.7288(3) 0.0879(3) 0.83469(8)
H19_5 H 0.59936 0.115336 0.885225
H20_5 H 0.679182 0.183315 0.911135
C1_5 C 0.8600(5) 0.8239(6) 0.02084(13)
H1_5 H 0.8032 0.8143 0.0328
C11_5 C 0.8748(4) 0.6790(4) 0.11603(11)
C13_5 C 0.8791(5) 0.6723(5) 0.07850(12)
H10_5 H 0.8163 0.7018 0.0674
H11_5 H 0.8863 0.5930 0.0718
C22_5 C 0.9543(5) 0.7862(5) 0.03470(12)
C3_5 C 0.8529(4) 0.5385(4) 0.75250(12)
H3_5 H 0.8495 0.4589 0.7525
C4_5 C 0.8249(4) 0.5981(4) 0.72329(11)
C5_5 C 0.7858(4) 0.5335(4) 0.69253(11)
O2_5 O 0.8789(2) 0.9265(3) 0.85908(7)
O3_3 O 0.7685(3) 0.4290(3) 0.69701(7)
O4_3 O 0.7712(3) 0.5879(3) 0.66531(8)
O5_5 O 0.8246(3) 0.6800(3) 0.86640(9)
O6_5 O 0.8280(3) 0.9694(3) 0.92700(8)
N1_5 N 0.9184(3) 0.7734(3) 0.81333(9)
O10_5 O 0.9976(3) 0.9864(3) 0.92607(8)
O11_5 O 0.6773(3) 0.6934(3) 0.81249(10)
O13_5 O 0.9590(3) 0.5748(4) 0.88346(11)
C6_5 C 0.8315(4) 0.7157(4) 0.72404(12)
H4_5 H 0.8139 0.7571 0.7046
C7_5 C 0.9538(4) 0.9538(4) 0.84298(11)
C8_5 C 0.9656(4) 0.8879(4) 0.81117(12)
H5_5 H 0.9332 0.9294 0.7922
C9_5 C 0.9781(4) 0.7046(4) 0.83943(11)
C10_5 C 0.8924(4) 0.7132(4) 0.78209(11)
C12_5 C 0.8635(4) 0.7736(4) 0.75303(12)
H9_5 H 0.8656 0.8533 0.7531
C14_5 C 0.9321(4) 0.8922(5) 0.97163(11)
C16_5 C 0.8857(4) 0.5954(4) 0.78151(12)
H14_5 H 0.9036 0.5538 0.8009
C18_5 C 0.8491(5) 0.8751(6) 0.98984(13)
H15_5 H 0.7850 0.8985 0.9810
C20_5 C 0.9181(4) 0.9541(5) 0.93868(12)
C21_5 C 0.9154(4) 0.6478(4) 0.86508(12)
O16_3 O 0.7315(3) 0.9290(3) 0.80299(7)
H21_5 H 0.715555 0.628408 0.803653
H22_5 H 0.636416 0.731681 0.793733
O12_6 O 0.3426(3) 0.1066(3) 0.59749(8)
O17_4 O 0.2712(3) 0.0879(3) 0.66531(8)
H19_6 H 0.40064 0.115336 0.614775
H20_6 H 0.320818 0.183315 0.588865
C1_6 C 0.1400(5) 0.8239(6) 0.47916(13)
H1_6 H 0.1968 0.8143 0.4672
C3_6 C 0.1471(4) 0.5385(4) 0.74750(12)
H3_6 H 0.1505 0.4589 0.7475
C4_6 C 0.1751(4) 0.5981(4) 0.77671(11)
C5_6 C 0.2142(4) 0.5335(4) 0.80747(11)
O2_6 O 0.1211(2) 0.9265(3) 0.64092(7)
O3_4 O 0.2315(3) 0.4290(3) 0.80299(7)
O4_4 O 0.2288(3) 0.5879(3) 0.83469(8)
O5_6 O 0.1754(3) 0.6800(3) 0.63360(9)
O6_6 O 0.1720(3) 0.9694(3) 0.57300(8)
N1_6 N 0.0816(3) 0.7734(3) 0.68667(9)
O10_6 O 0.0024(3) 0.9864(3) 0.57393(8)
O11_6 O 0.3227(3) 0.6934(3) 0.68751(10)
O13_6 O 0.0410(3) 0.5748(4) 0.61654(11)
C6_6 C 0.1685(4) 0.7157(4) 0.77596(12)
H4_6 H 0.1861 0.7571 0.7954
C7_6 C 0.0462(4) 0.9538(4) 0.65702(11)
C8_6 C 0.0344(4) 0.8879(4) 0.68883(12)
H5_6 H 0.0668 0.9294 0.7078
C9_6 C 0.0219(4) 0.7046(4) 0.66057(11)
C10_6 C 0.1076(4) 0.7132(4) 0.71791(11)
C11_6 C 0.1252(4) 0.6790(4) 0.38397(11)
C12_6 C 0.1365(4) 0.7736(4) 0.74697(12)
H9_6 H 0.1344 0.8533 0.7469
C13_6 C 0.1209(5) 0.6723(5) 0.42150(12)
H10_6 H 0.1837 0.7018 0.4326
H11_6 H 0.1137 0.5930 0.4282
C14_6 C 0.0679(4) 0.8922(5) 0.52837(11)
C16_6 C 0.1143(4) 0.5954(4) 0.71849(12)
H14_6 H 0.0964 0.5538 0.6991
C18_6 C 0.1509(5) 0.8751(6) 0.51016(13)
H15_6 H 0.2150 0.8985 0.5190
C20_6 C 0.0819(4) 0.9541(5) 0.56132(12)
C21_6 C 0.0846(4) 0.6478(4) 0.63492(12)
C22_6 C 0.0457(5) 0.7862(5) 0.46530(12)
O16_4 O 0.2685(3) 0.9290(3) 0.69701(7)
H21_6 H 0.284445 0.628408 0.696347
H22_6 H 0.363584 0.731681 0.706267
O1_6 O 0.9852(3) 0.0319(3) 0.64924(8)
O14_6 O 0.8231(3) 0.0714(4) 0.59675(10)
H18_6 H 0.794139 0.102878 0.574963
C2_6 C 0.9624(5) 0.8028(5) 0.48341(13)
H2_6 H 0.8983 0.7790 0.4747
H6_4 H 0.9628 0.8795 0.6921
H7_4 H 0.9719 0.7543 0.6488
H8_4 H 0.9853 0.6455 0.6716
C15_6 C 0.9393(5) 0.6727(5) 0.42377(13)
H12_6 H 0.9545 0.6096 0.4092
H13_6 H 0.9186 0.6400 0.4444
C17_6 C 0.8515(5) 0.7398(6) 0.40710(14)
C19_4 C 0.9744(4) 0.8553(5) 0.51484(13)
H16_4 H 0.9179 0.8655 0.5269
O15_6 O 0.7646(4) 0.7000(4) 0.40826(14)
H17_4 H 0.816644 0.986593 0.596499
C1_7 C 0.3600(5) 0.3239(6) 0.02084(13)
H1_7 H 0.3032 0.3143 0.0328
C2_7 C 0.5376(5) 0.3028(5) 0.01659(13)
H2_7 H 0.6017 0.2790 0.0253
C11_7 C 0.3748(4) 0.1790(4) 0.11603(11)
C13_7 C 0.3791(5) 0.1723(5) 0.07850(12)
H10_7 H 0.3163 0.2018 0.0674
H11_7 H 0.3863 0.0930 0.0718
C15_7 C 0.5607(5) 0.1727(5) 0.07623(13)
H12_7 H 0.5455 0.1096 0.0908
H13_7 H 0.5814 0.1400 0.0556
C17_7 C 0.6485(5) 0.2398(6) 0.09290(14)
O15_7 O 0.7354(4) 0.2000(4) 0.09174(14)
C22_7 C 0.4543(5) 0.2862(5) 0.03470(12)
C3_7 C 0.3529(4) 0.0385(4) 0.75250(12)
C4_7 C 0.3249(4) 0.0981(4) 0.72329(11)
C5_7 C 0.2858(4) 0.0335(4) 0.69253(11)
O1_7 O 0.5148(3) 0.5319(3) 0.85076(8)
O2_7 O 0.3789(2) 0.4265(3) 0.85908(7)
O5_7 O 0.3246(3) 0.1800(3) 0.86640(9)
O6_7 O 0.3280(3) 0.4694(3) 0.92700(8)
N1_7 N 0.4184(3) 0.2734(3) 0.81333(9)
O10_7 O 0.4976(3) 0.4864(3) 0.92607(8)
O11_7 O 0.1773(3) 0.1934(3) 0.81249(10)
O12_7 O 0.1574(3) 0.6066(3) 0.90251(8)
O13_7 O 0.4590(3) 0.0748(4) 0.88346(11)
C6_7 C 0.3315(4) 0.2157(4) 0.72404(12)
H4_7 H 0.3139 0.2571 0.7046
C7_7 C 0.4538(4) 0.4538(4) 0.84298(11)
C8_7 C 0.4656(4) 0.3879(4) 0.81117(12)
H5_7 H 0.4332 0.4294 0.7922
H6_5 H 0.5372 0.3795 0.8079
C9_7 C 0.4781(4) 0.2046(4) 0.83943(11)
H7_5 H 0.5281 0.2543 0.8512
H8_5 H 0.5147 0.1455 0.8284
C10_7 C 0.3924(4) 0.2132(4) 0.78209(11)
C12_7 C 0.3635(4) 0.2736(4) 0.75303(12)
H9_7 H 0.3656 0.3533 0.7531
C14_7 C 0.4321(4) 0.3922(5) 0.97163(11)
O14_7 O 0.6769(3) 0.5714(4) 0.90325(10)
C16_7 C 0.3857(4) 0.0954(4) 0.78151(12)
H14_7 H 0.4036 0.0538 0.8009
C18_7 C 0.3491(5) 0.3751(6) 0.98984(13)
H15_7 H 0.2850 0.3985 0.9810
C19_5 C 0.5256(4) 0.3553(5) 0.98516(13)
H16_5 H 0.5821 0.3655 0.9731
C20_7 C 0.4181(4) 0.4541(5) 0.93868(12)
C21_7 C 0.4154(4) 0.1478(4) 0.86508(12)
H17_5 H 0.683356 0.486593 0.903501
H18_7 H 0.705861 0.602878 0.925037
H19_7 H 0.0993598 0.615336 0.885225
H20_7 H 0.179182 0.683315 0.911135
H21_7 H 0.215555 0.128408 0.803653
H22_7 H 0.136416 0.231681 0.793733
H3_7 H 0.3495 0.9589 0.7525
C1_8 C 0.6400(5) 0.3239(6) 0.47916(13)
H1_8 H 0.6968 0.3143 0.4672
C2_8 C 0.4624(5) 0.3028(5) 0.48341(13)
H2_8 H 0.3983 0.2790 0.4747
C3_8 C 0.6471(4) 0.0385(4) 0.74750(12)
C4_8 C 0.6751(4) 0.0981(4) 0.77671(11)
C5_8 C 0.7142(4) 0.0335(4) 0.80747(11)
O1_8 O 0.4852(3) 0.5319(3) 0.64924(8)
O2_8 O 0.6211(2) 0.4265(3) 0.64092(7)
O5_8 O 0.6754(3) 0.1800(3) 0.63360(9)
O6_8 O 0.6720(3) 0.4694(3) 0.57300(8)
N1_8 N 0.5816(3) 0.2734(3) 0.68667(9)
O10_8 O 0.5024(3) 0.4864(3) 0.57393(8)
O11_8 O 0.8227(3) 0.1934(3) 0.68751(10)
O12_8 O 0.8426(3) 0.6066(3) 0.59749(8)
O13_8 O 0.5410(3) 0.0748(4) 0.61654(11)
C6_8 C 0.6685(4) 0.2157(4) 0.77596(12)
H4_8 H 0.6861 0.2571 0.7954
C7_8 C 0.5462(4) 0.4538(4) 0.65702(11)
C8_8 C 0.5344(4) 0.3879(4) 0.68883(12)
H5_8 H 0.5668 0.4294 0.7078
H6_6 H 0.4628 0.3795 0.6921
C9_8 C 0.5219(4) 0.2046(4) 0.66057(11)
H7_6 H 0.4719 0.2543 0.6488
H8_6 H 0.4853 0.1455 0.6716
C10_8 C 0.6076(4) 0.2132(4) 0.71791(11)
C11_8 C 0.6252(4) 0.1790(4) 0.38397(11)
C12_8 C 0.6365(4) 0.2736(4) 0.74697(12)
H9_8 H 0.6344 0.3533 0.7469
C13_8 C 0.6209(5) 0.1723(5) 0.42150(12)
H10_8 H 0.6837 0.2018 0.4326
H11_8 H 0.6137 0.0930 0.4282
C14_8 C 0.5679(4) 0.3922(5) 0.52837(11)
O14_8 O 0.3231(3) 0.5714(4) 0.59675(10)
C15_8 C 0.4393(5) 0.1727(5) 0.42377(13)
H12_8 H 0.4545 0.1096 0.4092
H13_8 H 0.4186 0.1400 0.4444
C16_8 C 0.6143(4) 0.0954(4) 0.71849(12)
H14_8 H 0.5964 0.0538 0.6991
C17_8 C 0.3515(5) 0.2398(6) 0.40710(14)
C18_8 C 0.6509(5) 0.3751(6) 0.51016(13)
H15_8 H 0.7150 0.3985 0.5190
C19_6 C 0.4744(4) 0.3553(5) 0.51484(13)
H16_6 H 0.4179 0.3655 0.5269
C20_8 C 0.5819(4) 0.4541(5) 0.56132(12)
C21_8 C 0.5846(4) 0.1478(4) 0.63492(12)
O15_8 O 0.2646(4) 0.2000(4) 0.40826(14)
C22_8 C 0.5457(5) 0.2862(5) 0.46530(12)
H17_6 H 0.316644 0.486593 0.596499
H18_8 H 0.294139 0.602878 0.574963
H19_8 H 0.90064 0.615336 0.614775
H20_8 H 0.820818 0.683315 0.588865
H21_8 H 0.784445 0.128408 0.696347
H22_8 H 0.863584 0.231681 0.706267
H3_8 H 0.6505 0.9589 0.7475
H6_7 H 0.9628 0.1205 0.1921
H7_7 H 0.9719 0.2457 0.1488
H8_7 H 0.9853 0.3545 0.1716
C19_7 C 0.9744(4) 0.1447(5) 0.01484(13)
H16_7 H 0.9179 0.1345 0.0269
H17_7 H 0.816644 0.0134071 0.096499
H6_8 H 0.0372 0.8795 0.8079
H7_8 H 0.0281 0.7543 0.8512
H8_8 H 0.0147 0.6455 0.8284
C19_8 C 0.0256(4) 0.8553(5) 0.98516(13)
H16_8 H 0.0821 0.8655 0.9731
H17_8 H 0.183356 0.986593 0.903501
loop_
_geom_bond_atom_site_label_1
_geom_bond_atom_site_label_2
_geom_bond_site_symmetry_1
_geom_bond_site_symmetry_2
C3 H3 1_555 1_555
C4 C3 1_555 1_555
C5 C4 1_555 1_555
Ni2 O2 1_555 1_555
O2 C7 1_555 1_555
O3 C5 1_555 1_555
O4 C5 1_555 1_555
O5 Ni2 1_555 1_555
N1 Ni2 1_555 1_555
O11 Ni2 1_555 1_555
O13 C21 1_555 1_555
C6 C4 1_555 1_555
H4 C6 1_555 1_555
C7 C8 1_555 1_555
C8 N1 1_555 1_555
H5 C8 1_555 1_555
C9 N1 1_555 1_555
C10 N1 1_555 1_555
C12 C6 1_555 1_555
H9 C12 1_555 1_555
C14 C18 1_555 1_555
C16 C3 1_555 1_555
H14 C16 1_555 1_555
H15 C18 1_555 1_555
C20 O6 1_555 1_555
C21 O5 1_555 1_555
Ni4 O4 1_555 1_555
Ni7 O3 1_555 1_555
O16 Ni2 1_555 1_555
Ni2 O18 1_555 1_555
O10 C20 1_555 1_555
C9 C21 1_555 1_555
C10 C12 1_555 1_555
C10 C16 1_555 1_555
C14 C20 1_555 1_555
O11 H21 1_555 1_555
O11 H22 1_555 1_555
C1 H1 1_555 1_555
O7 C11 1_555 1_555
O9 C11 1_555 1_555
N2 C13 1_555 1_555
C11 C13 1_555 1_555
C13 H10 1_555 1_555
H11 C13 1_555 1_555
C22 C1 1_555 1_555
Ni5 O7 1_555 1_555
Ni8 O7 1_555 1_555
O9 Ni9 1_555 1_555
N2 C22 1_555 1_555
N2 Ni9 1_555 1_555
O12 Ni1 1_555 1_555
O17 Ni1 1_555 1_555
O19 Ni1 1_555 1_555
O12 H19 1_555 1_555
O12 H20 1_555 1_555
C2 H2 1_555 1_555
O8 C17 1_555 1_555
H12 C15 1_555 1_555
H13 C15 1_555 1_555
C17 C15 1_555 1_555
O15 C17 1_555 1_555
Ni6 O8 1_555 1_555
Ni3 O1 1_555 1_555
O14 Ni3 1_555 1_555
O20 Ni3 1_555 1_555
N3 Ni3 1_555 1_555
O14 H18 1_555 1_555
C2_2 H2_2 1_555 1_555
O8_2 C17_2 1_555 1_555
H12_2 C15_2 1_555 1_555
H13_2 C15_2 1_555 1_555
C17_2 C15_2 1_555 1_555
C19 C2_2 1_555 1_555
H16 C19 1_555 1_555
O15_2 C17_2 1_555 1_555
Ni6_2 O8_2 1_555 1_555
Ni3_2 O1_2 1_555 1_555
O14_2 Ni3_2 1_555 1_555
O20_2 Ni3_2 1_555 1_555
N3_2 Ni3_2 1_555 1_555
O14_2 H18_2 1_555 1_555
C1_2 H1_2 1_555 1_555
C3_2 H3_2 1_555 1_555
C4_2 C3_2 1_555 1_555
C5_2 C4_2 1_555 1_555
Ni2_2 O2_2 1_555 1_555
O2_2 C7_2 1_555 1_555
O3_2 C5_2 1_555 1_555
O4_2 C5_2 1_555 1_555
O5_2 Ni2_2 1_555 1_555
O7_2 C11_2 1_555 1_555
N1_2 Ni2_2 1_555 1_555
O9_2 C11_2 1_555 1_555
O11_2 Ni2_2 1_555 1_555
O13_2 C21_2 1_555 1_555
C6_2 C4_2 1_555 1_555
H4_2 C6_2 1_555 1_555
C7_2 C8_2 1_555 1_555
C8_2 N1_2 1_555 1_555
H5_2 C8_2 1_555 1_555
N2_2 C13_2 1_555 1_555
C9_2 N1_2 1_555 1_555
C10_2 N1_2 1_555 1_555
C11_2 C13_2 1_555 1_555
C12_2 C6_2 1_555 1_555
H9_2 C12_2 1_555 1_555
C13_2 H10_2 1_555 1_555
H11_2 C13_2 1_555 1_555
C14_2 C18_2 1_555 1_555
C16_2 C3_2 1_555 1_555
H14_2 C16_2 1_555 1_555
C18_2 C1_2 1_555 1_555
H15_2 C18_2 1_555 1_555
C20_2 O6_2 1_555 1_555
C21_2 O5_2 1_555 1_555
C22_2 C1_2 1_555 1_555
Ni4_2 O4_2 1_555 1_555
Ni5_2 O7_2 1_555 1_555
Ni7_2 O3_2 1_555 1_555
Ni8_2 O7_2 1_555 1_555
O16_2 Ni2_2 1_555 1_555
Ni2_2 O18_2 1_555 1_555
O9_2 Ni9_2 1_555 1_555
O10_2 C20_2 1_555 1_555
N2_2 C22_2 1_555 1_555
N2_2 Ni9_2 1_555 1_555
C9_2 C21_2 1_555 1_555
C10_2 C12_2 1_555 1_555
C10_2 C16_2 1_555 1_555
C14_2 C20_2 1_555 1_555
O11_2 H21_2 1_555 1_555
O11_2 H22_2 1_555 1_555
O12_2 Ni1_2 1_555 1_555
O17_2 Ni1_2 1_555 1_555
O19_2 Ni1_2 1_555 1_555
O12_2 H19_2 1_555 1_555
O12_2 H20_2 1_555 1_555
C4_3 C3_3 1_555 1_555
C5_3 C4_3 1_555 1_555
Ni4_2 O2_3 1_555 1_555
Ni7_2 O2_3 1_555 1_555
Ni3_3 O1_3 1_555 1_555
O1_3 C7_3 1_555 1_555
O2_3 C7_3 1_555 1_555
O17_2 C5_3 1_555 1_555
O5_3 Ni7_2 1_555 1_555
O6_3 Ni4_2 1_555 1_555
N1_3 Ni7_2 1_555 1_555
O10_3 Ni3_3 1_555 1_555
O11_3 Ni7_2 1_555 1_555
O12_3 Ni4_2 1_555 1_555
O13_3 C21_3 1_555 1_555
C6_3 C4_3 1_555 1_555
H4_3 C6_3 1_555 1_555
C7_3 C8_3 1_555 1_555
C8_3 N1_3 1_555 1_555
H5_3 C8_3 1_555 1_555
H6_2 C8_3 1_555 1_555
C9_3 N1_3 1_555 1_555
H7_2 C9_3 1_555 1_555
H8_2 C9_3 1_555 1_555
C10_3 N1_3 1_555 1_555
C12_3 C6_3 1_555 1_555
H9_3 C12_3 1_555 1_555
C14_3 C18_3 1_555 1_555
O14_3 Ni3_3 1_555 1_555
C16_3 C3_3 1_555 1_555
H14_3 C16_3 1_555 1_555
H15_3 C18_3 1_555 1_555
H16_2 C19_2 1_555 1_555
C20_3 O6_3 1_555 1_555
C21_3 O5_3 1_555 1_555
O18_3 Ni4_2 1_555 1_555
O19_3 Ni4_2 1_555 1_555
O20_3 Ni3_3 1_555 1_555
N3_3 Ni3_3 1_555 1_555
Ni7_2 O18_3 1_555 1_555
Ni3_3 O19_3 1_555 1_555
O10_3 C20_3 1_555 1_555
C9_3 C21_3 1_555 1_555
C10_3 C12_3 1_555 1_555
C10_3 C16_3 1_555 1_555
C14_3 C19_2 1_555 1_555
C14_3 C20_3 1_555 1_555
O14_3 H17_2 1_555 1_555
O14_3 H18_3 1_555 1_555
O12_3 H19_3 1_555 1_555
O12_3 H20_3 1_555 1_555
O11_3 H21_3 1_555 1_555
O11_3 H22_3 1_555 1_555
C1_3 H1_3 1_555 1_555
C2_3 H2_3 1_555 1_555
O7_3 C11_3 1_555 1_555
O8_3 C17_3 1_555 1_555
O9_3 C11_3 1_555 1_555
N2_3 C13_3 1_555 1_555
C11_3 C13_3 1_555 1_555
C13_3 H10_3 1_555 1_555
H11_3 C13_3 1_555 1_555
C15_3 N2_3 1_555 1_555
H12_3 C15_3 1_555 1_555
H13_3 C15_3 1_555 1_555
C17_3 C15_3 1_555 1_555
O15_3 C17_3 1_555 1_555
C22_3 C1_3 1_555 1_555
Ni5 O8_3 1_555 1_555
Ni8_3 O7_3 1_555 1_555
Ni9_3 O8_3 1_555 1_555
C2_3 C22_3 1_555 1_555
O9_3 Ni9_3 1_555 1_555
N2_3 C22_3 1_555 1_555
N2_3 Ni9_3 1_555 1_555
C1_4 H1_4 1_555 1_555
C2_4 H2_4 1_555 1_555
C4_4 C3_4 1_555 1_555
C5_4 C4_4 1_555 1_555
Ni4 O2_4 1_555 1_555
Ni7 O2_4 1_555 1_555
Ni3_4 O1_4 1_555 1_555
O1_4 C7_4 1_555 1_555
O2_4 C7_4 1_555 1_555
O17 C5_4 1_555 1_555
O5_4 Ni7 1_555 1_555
O6_4 Ni4 1_555 1_555
O7_4 C11_4 1_555 1_555
O8_4 C17_4 1_555 1_555
N1_4 Ni7 1_555 1_555
O9_4 C11_4 1_555 1_555
O10_4 Ni3_4 1_555 1_555
O11_4 Ni7 1_555 1_555
O12_4 Ni4 1_555 1_555
O13_4 C21_4 1_555 1_555
C6_4 C4_4 1_555 1_555
H4_4 C6_4 1_555 1_555
C7_4 C8_4 1_555 1_555
C8_4 N1_4 1_555 1_555
H5_4 C8_4 1_555 1_555
H6_3 C8_4 1_555 1_555
N2_4 C13_4 1_555 1_555
C9_4 N1_4 1_555 1_555
H7_3 C9_4 1_555 1_555
H8_3 C9_4 1_555 1_555
C10_4 N1_4 1_555 1_555
C11_4 C13_4 1_555 1_555
C12_4 C6_4 1_555 1_555
H9_4 C12_4 1_555 1_555
C13_4 H10_4 1_555 1_555
H11_4 C13_4 1_555 1_555
C14_4 C18_4 1_555 1_555
O14_4 Ni3_4 1_555 1_555
C15_4 N2_4 1_555 1_555
H12_4 C15_4 1_555 1_555
H13_4 C15_4 1_555 1_555
C16_4 C3_4 1_555 1_555
H14_4 C16_4 1_555 1_555
C17_4 C15_4 1_555 1_555
C18_4 C1_4 1_555 1_555
H15_4 C18_4 1_555 1_555
C19_3 C2_4 1_555 1_555
H16_3 C19_3 1_555 1_555
C20_4 O6_4 1_555 1_555
C21_4 O5_4 1_555 1_555
O15_4 C17_4 1_555 1_555
C22_4 C1_4 1_555 1_555
Ni5_2 O8_4 1_555 1_555
Ni8_4 O7_4 1_555 1_555
Ni9_4 O8_4 1_555 1_555
O18_4 Ni4 1_555 1_555
O19_4 Ni4 1_555 1_555
O20_4 Ni3_4 1_555 1_555
N3_4 Ni3_4 1_555 1_555
C2_4 C22_4 1_555 1_555
Ni7 O18_4 1_555 1_555
Ni3_4 O19_4 1_555 1_555
O9_4 Ni9_4 1_555 1_555
O10_4 C20_4 1_555 1_555
N2_4 C22_4 1_555 1_555
N2_4 Ni9_4 1_555 1_555
C9_4 C21_4 1_555 1_555
C10_4 C12_4 1_555 1_555
C10_4 C16_4 1_555 1_555
C14_4 C19_3 1_555 1_555
C14_4 C20_4 1_555 1_555
O14_4 H17_3 1_555 1_555
O14_4 H18_4 1_555 1_555
O12_4 H19_4 1_555 1_555
O12_4 H20_4 1_555 1_555
O11_4 H21_4 1_555 1_555
O11_4 H22_4 1_555 1_555
Ni9 O1_5 1_555 1_555
O14_5 Ni9 1_555 1_555
O14_5 H18_5 1_555 1_555
C2_5 H2_5 1_555 1_555
O19 C17_5 1_555 1_555
H12_5 C15_5 1_555 1_555
H13_5 C15_5 1_555 1_555
C17_5 C15_5 1_555 1_555
O15_5 C17_5 1_555 1_555
O12_5 Ni6 1_555 1_555
O17_3 Ni6 1_555 1_555
O12_5 H19_5 1_555 1_555
O12_5 H20_5 1_555 1_555
C1_5 H1_5 1_555 1_555
O18_3 C11_5 1_555 1_555
O20 C11_5 1_555 1_555
N3 C13_5 1_555 1_555
C11_5 C13_5 1_555 1_555
C13_5 H10_5 1_555 1_555
H11_5 C13_5 1_555 1_555
C22_5 C1_5 1_555 1_555
N3 C22_5 1_555 1_555
C3_5 H3_5 1_555 1_555
C4_5 C3_5 1_555 1_555
C5_5 C4_5 1_555 1_555
Ni8_3 O2_5 1_555 1_555
O2_5 C7_5 1_555 1_555
O3_3 C5_5 1_555 1_555
O4_3 C5_5 1_555 1_555
O5_5 Ni8_3 1_555 1_555
N1_5 Ni8_3 1_555 1_555
O11_5 Ni8_3 1_555 1_555
O13_5 C21_5 1_555 1_555
C6_5 C4_5 1_555 1_555
H4_5 C6_5 1_555 1_555
C7_5 C8_5 1_555 1_555
C8_5 N1_5 1_555 1_555
H5_5 C8_5 1_555 1_555
C9_5 N1_5 1_555 1_555
C10_5 N1_5 1_555 1_555
C12_5 C6_5 1_555 1_555
H9_5 C12_5 1_555 1_555
C14_5 C18_5 1_555 1_555
C16_5 C3_5 1_555 1_555
H14_5 C16_5 1_555 1_555
H15_5 C18_5 1_555 1_555
C20_5 O6_5 1_555 1_555
C21_5 O5_5 1_555 1_555
Ni5_2 O4_3 1_555 1_555
Ni8_2 O3_3 1_555 1_555
O16_3 Ni8_3 1_555 1_555
O10_5 C20_5 1_555 1_555
C9_5 C21_5 1_555 1_555
C10_5 C12_5 1_555 1_555
C10_5 C16_5 1_555 1_555
C14_5 C20_5 1_555 1_555
O11_5 H21_5 1_555 1_555
O11_5 H22_5 1_555 1_555
O12_6 Ni6_2 1_555 1_555
O17_4 Ni6_2 1_555 1_555
O12_6 H19_6 1_555 1_555
O12_6 H20_6 1_555 1_555
C1_6 H1_6 1_555 1_555
C3_6 H3_6 1_555 1_555
C4_6 C3_6 1_555 1_555
C5_6 C4_6 1_555 1_555
Ni8_4 O2_6 1_555 1_555
O2_6 C7_6 1_555 1_555
O3_4 C5_6 1_555 1_555
O4_4 C5_6 1_555 1_555
O5_6 Ni8_4 1_555 1_555
O18_4 C11_6 1_555 1_555
N1_6 Ni8_4 1_555 1_555
O20_2 C11_6 1_555 1_555
O11_6 Ni8_4 1_555 1_555
O13_6 C21_6 1_555 1_555
C6_6 C4_6 1_555 1_555
H4_6 C6_6 1_555 1_555
C7_6 C8_6 1_555 1_555
C8_6 N1_6 1_555 1_555
H5_6 C8_6 1_555 1_555
N3_2 C13_6 1_555 1_555
C9_6 N1_6 1_555 1_555
C10_6 N1_6 1_555 1_555
C11_6 C13_6 1_555 1_555
C12_6 C6_6 1_555 1_555
H9_6 C12_6 1_555 1_555
C13_6 H10_6 1_555 1_555
H11_6 C13_6 1_555 1_555
C14_6 C18_6 1_555 1_555
C16_6 C3_6 1_555 1_555
H14_6 C16_6 1_555 1_555
C18_6 C1_6 1_555 1_555
H15_6 C18_6 1_555 1_555
C20_6 O6_6 1_555 1_555
C21_6 O5_6 1_555 1_555
C22_6 C1_6 1_555 1_555
Ni5 O4_4 1_555 1_555
Ni8 O3_4 1_555 1_555
O16_4 Ni8_4 1_555 1_555
O10_6 C20_6 1_555 1_555
N3_2 C22_6 1_555 1_555
C9_6 C21_6 1_555 1_555
C10_6 C12_6 1_555 1_555
C10_6 C16_6 1_555 1_555
C14_6 C20_6 1_555 1_555
O11_6 H21_6 1_555 1_555
O11_6 H22_6 1_555 1_555
Ni9_2 O1_6 1_555 1_555
O14_6 Ni9_2 1_555 1_555
O14_6 H18_6 1_555 1_555
C2_6 H2_6 1_555 1_555
O19_2 C17_6 1_555 1_555
H12_6 C15_6 1_555 1_555
H13_6 C15_6 1_555 1_555
C17_6 C15_6 1_555 1_555
C19_4 C2_6 1_555 1_555
H16_4 C19_4 1_555 1_555
O15_6 C17_6 1_555 1_555
C1_7 H1_7 1_555 1_555
C2_7 H2_7 1_555 1_555
O18 C11_7 1_555 1_555
O19_3 C17_7 1_555 1_555
O20_3 C11_7 1_555 1_555
N3_3 C13_7 1_555 1_555
C11_7 C13_7 1_555 1_555
C13_7 H10_7 1_555 1_555
H11_7 C13_7 1_555 1_555
C15_7 N3_3 1_555 1_555
H12_7 C15_7 1_555 1_555
H13_7 C15_7 1_555 1_555
C17_7 C15_7 1_555 1_555
O15_7 C17_7 1_555 1_555
C22_7 C1_7 1_555 1_555
C2_7 C22_7 1_555 1_555
N3_3 C22_7 1_555 1_555
C4_7 C3_7 1_555 1_555
C5_7 C4_7 1_555 1_555
Ni5 O2_7 1_555 1_555
Ni8 O2_7 1_555 1_555
Ni9_3 O1_7 1_555 1_555
O1_7 C7_7 1_555 1_555
O2_7 C7_7 1_555 1_555
O17_4 C5_7 1_555 1_555
O5_7 Ni8 1_555 1_555
O6_7 Ni5 1_555 1_555
N1_7 Ni8 1_555 1_555
O10_7 Ni9_3 1_555 1_555
O11_7 Ni8 1_555 1_555
O12_7 Ni5 1_555 1_555
O13_7 C21_7 1_555 1_555
C6_7 C4_7 1_555 1_555
H4_7 C6_7 1_555 1_555
C7_7 C8_7 1_555 1_555
C8_7 N1_7 1_555 1_555
H5_7 C8_7 1_555 1_555
H6_5 C8_7 1_555 1_555
C9_7 N1_7 1_555 1_555
H7_5 C9_7 1_555 1_555
H8_5 C9_7 1_555 1_555
C10_7 N1_7 1_555 1_555
C12_7 C6_7 1_555 1_555
H9_7 C12_7 1_555 1_555
C14_7 C18_7 1_555 1_555
O14_7 Ni9_3 1_555 1_555
C16_7 C3_7 1_555 1_555
H14_7 C16_7 1_555 1_555
H15_7 C18_7 1_555 1_555
H16_5 C19_5 1_555 1_555
C20_7 O6_7 1_555 1_555
C21_7 O5_7 1_555 1_555
O10_7 C20_7 1_555 1_555
C9_7 C21_7 1_555 1_555
C10_7 C12_7 1_555 1_555
C10_7 C16_7 1_555 1_555
C14_7 C19_5 1_555 1_555
C14_7 C20_7 1_555 1_555
O14_7 H17_5 1_555 1_555
O14_7 H18_7 1_555 1_555
O12_7 H19_7 1_555 1_555
O12_7 H20_7 1_555 1_555
O11_7 H21_7 1_555 1_555
O11_7 H22_7 1_555 1_555
C1_8 H1_8 1_555 1_555
C2_8 H2_8 1_555 1_555
C4_8 C3_8 1_555 1_555
C5_8 C4_8 1_555 1_555
Ni5_2 O2_8 1_555 1_555
Ni8_2 O2_8 1_555 1_555
Ni9_4 O1_8 1_555 1_555
O1_8 C7_8 1_555 1_555
O2_8 C7_8 1_555 1_555
O17_3 C5_8 1_555 1_555
O5_8 Ni8_2 1_555 1_555
O6_8 Ni5_2 1_555 1_555
O18_2 C11_8 1_555 1_555
O19_4 C17_8 1_555 1_555
N1_8 Ni8_2 1_555 1_555
O20_4 C11_8 1_555 1_555
O10_8 Ni9_4 1_555 1_555
O11_8 Ni8_2 1_555 1_555
O12_8 Ni5_2 1_555 1_555
O13_8 C21_8 1_555 1_555
C6_8 C4_8 1_555 1_555
H4_8 C6_8 1_555 1_555
C7_8 C8_8 1_555 1_555
C8_8 N1_8 1_555 1_555
H5_8 C8_8 1_555 1_555
H6_6 C8_8 1_555 1_555
N3_4 C13_8 1_555 1_555
C9_8 N1_8 1_555 1_555
H7_6 C9_8 1_555 1_555
H8_6 C9_8 1_555 1_555
C10_8 N1_8 1_555 1_555
C11_8 C13_8 1_555 1_555
C12_8 C6_8 1_555 1_555
H9_8 C12_8 1_555 1_555
C13_8 H10_8 1_555 1_555
H11_8 C13_8 1_555 1_555
C14_8 C18_8 1_555 1_555
O14_8 Ni9_4 1_555 1_555
C15_8 N3_4 1_555 1_555
H12_8 C15_8 1_555 1_555
H13_8 C15_8 1_555 1_555
C16_8 C3_8 1_555 1_555
H14_8 C16_8 1_555 1_555
C17_8 C15_8 1_555 1_555
C18_8 C1_8 1_555 1_555
H15_8 C18_8 1_555 1_555
C19_6 C2_8 1_555 1_555
H16_6 C19_6 1_555 1_555
C20_8 O6_8 1_555 1_555
C21_8 O5_8 1_555 1_555
O15_8 C17_8 1_555 1_555
C22_8 C1_8 1_555 1_555
C2_8 C22_8 1_555 1_555
O10_8 C20_8 1_555 1_555
N3_4 C22_8 1_555 1_555
C9_8 C21_8 1_555 1_555
C10_8 C12_8 1_555 1_555
C10_8 C16_8 1_555 1_555
C14_8 C19_6 1_555 1_555
C14_8 C20_8 1_555 1_555
O14_8 H17_6 1_555 1_555
O14_8 H18_8 1_555 1_555
O12_8 H19_8 1_555 1_555
O12_8 H20_8 1_555 1_555
O11_8 H21_8 1_555 1_555
O11_8 H22_8 1_555 1_555
H16_7 C19_7 1_555 1_555
H16_8 C19_8 1_555 1_555

#END
