
###############################################################################
#
# This file contains modified crystal structure data generated from the
# MOF subset of the Cambridge Structural Database (CSD) v543 
# hosted by the Cambridge Crystallographic Data Centre (CCDC).
#
# This work is licensed under the Creative Commons
# Attribution-NonCommercial-ShareAlike 4.0 International License.
# To view a copy of this license, visit
# http://creativecommons.org/licenses/by-nc-sa/4.0/
# or send a letter to
# Creative Commons, PO Box 1866, Mountain View, CA 94042, USA.
#
# CIF created using the CSD Python API on 29 September 2022
# The structure has been converted into the P1 space group
# The structure has a 3D framework
# The original CSD entry GAHQIT is in the tetragonal crystal system
# The framework has been calculated to contain at least 10.0% void space
# The void calculation uses a probe of radius 1.32A, grid spacing 0.4
# The framework is charged, counterions have been retained in the structure
#
###############################################################################

data_GAHQIT
_chemical_formula_moiety         '(C352 H240 N80 O176 S48 Zn48 4-)n'
_symmetry_cell_setting           triclinic
_symmetry_space_group_name_H-M   'P 1'
_symmetry_Int_Tables_number      1
_space_group_name_Hall           'P 1'
loop_
_symmetry_equiv_pos_site_id
_symmetry_equiv_pos_as_xyz
1 x,y,z
_cell_length_a                   30.687(2)
_cell_length_b                   30.687(2)
_cell_length_c                   25.952(4)
_cell_angle_alpha                90
_cell_angle_beta                 90
_cell_angle_gamma                90
_cell_volume                     24438.8
loop_
_atom_site_label
_atom_site_type_symbol
_atom_site_fract_x
_atom_site_fract_y
_atom_site_fract_z
Zn1 Zn 0.51441(2) 0.26923(2) 0.20858(3)
Zn2 Zn 0.41492(2) 0.21966(2) 0.16721(3)
Zn3 Zn 0.36573(2) 0.12332(2) 0.20741(3)
N1 N 0.44483(13) 0.18043(13) 0.2170(2)
N2 N 0.42339(14) 0.14219(14) 0.2331(2)
N3 N 0.51849(12) 0.20663(13) 0.22993(19)
N4 N 0.56505(13) 0.15535(13) 0.2703(2)
S1 S 0.35673(4) 0.35673(4) 0.18682(12)
S2 S 0.47881(6) 0.23337(7) 0.0000
S3 S 0.27852(4) 0.27852(4) 0.22048(11)
S4 S 0.37852(7) 0.17594(8) 0.0000
S5 S 0.63509(5) 0.36491(5) 0.24623(10)
O1 O 0.46435(17) 0.30289(17) 0.2316(2)
O2 O 0.41283(14) 0.28235(13) 0.1739(2)
O3 O 0.51710(13) 0.27753(13) 0.13384(17)
O4 O 0.46829(12) 0.22569(12) 0.11399(17)
O5 O 0.35411(12) 0.21980(12) 0.21168(19)
O6 O 0.31833(13) 0.15901(13) 0.2316(3)
O7 O 0.38610(14) 0.18965(17) 0.1111(2)
O8 O 0.3623(2) 0.12382(19) 0.1333(3)
O9 O 0.56747(13) 0.29982(13) 0.2284(2)
O10 O 0.55031(19) 0.28723(19) 0.3106(2)
O11 O 0.54182(13) 0.09164(13) 0.3046(2)
C1 C 0.4299(2) 0.3083(2) 0.2079(3)
C2 C 0.40485(19) 0.34938(19) 0.2173(3)
C3 C 0.4136(2) 0.3820(2) 0.2506(4)
H1 H 0.4389 0.3829 0.2717
C4 C 0.49582(18) 0.25420(18) 0.1020(3)
C5 C 0.50522(17) 0.26261(18) 0.0481(3)
C6 C 0.5333(2) 0.2922(2) 0.0267(3)
H2 H 0.5512 0.3110 0.0467
C7 C 0.32083(18) 0.19930(19) 0.2246(3)
C8 C 0.28007(18) 0.22403(18) 0.2324(3)
C9 C 0.2403(2) 0.2085(2) 0.2458(5)
H3 H 0.2349 0.1788 0.2543
C10 C 0.3717(3) 0.1533(3) 0.1024(4)
C11 C 0.3639(3) 0.1417(3) 0.0470(4)
C12 C 0.3467(5) 0.1055(4) 0.0287(4)
H4 H 0.3357 0.0825 0.0494
C13 C 0.5720(2) 0.3055(2) 0.2764(3)
C14 C 0.6068(2) 0.3366(2) 0.2911(3)
C15 C 0.6190(4) 0.3476(4) 0.3392(4)
H5 H 0.6072 0.3350 0.3695
C16 C 0.48558(15) 0.17661(15) 0.2359(2)
C17 C 0.55629(15) 0.19300(16) 0.2479(2)
H6 H 0.5801 0.2126 0.2442
C18 C 0.53199(18) 0.12556(18) 0.2820(3)
C19 C 0.49030(16) 0.13765(17) 0.2625(3)
C20 C 0.45079(17) 0.11750(17) 0.2589(3)
H7 H 0.4441 0.0897 0.2730
O12 O 0.30289(17) 0.46435(17) 0.2316(2)
O13 O 0.28235(13) 0.41283(14) 0.1739(2)
C21 C 0.3083(2) 0.4299(2) 0.2079(3)
C22 C 0.34938(19) 0.40485(19) 0.2173(3)
C23 C 0.3820(2) 0.4136(2) 0.2506(4)
H8 H 0.3829 0.4389 0.2717
O16 O 0.21980(12) 0.35411(12) 0.21168(19)
O17 O 0.15901(13) 0.31833(13) 0.2316(3)
C27 C 0.19930(19) 0.32083(18) 0.2246(3)
C28 C 0.22403(18) 0.28007(18) 0.2324(3)
C29 C 0.2085(2) 0.2403(2) 0.2458(5)
H10 H 0.1788 0.2349 0.2543
O20 O 0.70018(13) 0.43253(13) 0.2284(2)
O21 O 0.71277(19) 0.44969(19) 0.3106(2)
C33 C 0.6945(2) 0.4280(2) 0.2764(3)
C34 C 0.6634(2) 0.3932(2) 0.2911(3)
C35 C 0.6524(4) 0.3810(4) 0.3392(4)
H12 H 0.6650 0.3928 0.3695
Zn7 Zn 0.73077(2) 0.48559(2) 0.20858(3)
Zn8 Zn 0.26923(2) 0.51441(2) 0.20858(3)
Zn9 Zn 0.21966(2) 0.41492(2) 0.16721(3)
Zn11 Zn 0.62332(2) 0.13427(2) 0.29259(3)
Zn12 Zn 0.12332(2) 0.36573(2) 0.20741(3)
N10 N 0.34465(13) 0.06505(13) 0.2297(2)
S2_2 S 0.47881(6) 0.23337(7) 1.0000
S4_2 S 0.37852(7) 0.17594(8) 1.0000
O14 O 0.51710(13) 0.27753(13) 0.86616(17)
O15 O 0.46829(12) 0.22569(12) 0.88601(17)
C24 C 0.49582(18) 0.25420(18) 0.8980(3)
C25 C 0.50522(17) 0.26261(18) 0.9519(3)
C26 C 0.5333(2) 0.2922(2) 0.9733(3)
H9 H 0.5512 0.3110 0.9533
O18 O 0.38610(14) 0.18965(17) 0.8889(2)
O19 O 0.3623(2) 0.12382(19) 0.8667(3)
C30 C 0.3717(3) 0.1533(3) 0.8976(4)
C31 C 0.3639(3) 0.1417(3) 0.9530(4)
C32 C 0.3467(5) 0.1055(4) 0.9713(4)
H11 H 0.3357 0.0825 0.9506
Zn4 Zn 0.51441(2) 0.26923(2) 0.79142(3)
Zn5 Zn 0.41492(2) 0.21966(2) 0.83279(3)
Zn6 Zn 0.36573(2) 0.12332(2) 0.79259(3)
N5 N 0.44483(13) 0.18043(13) 0.7830(2)
N6 N 0.42339(14) 0.14219(14) 0.7669(2)
N7 N 0.51849(12) 0.20663(13) 0.77007(19)
N8 N 0.56505(13) 0.15535(13) 0.7297(2)
O22 O 0.54182(13) 0.09164(13) 0.6954(2)
C36 C 0.48558(15) 0.17661(15) 0.7641(2)
C37 C 0.55629(15) 0.19300(16) 0.7521(2)
H13 H 0.5801 0.2126 0.7558
C38 C 0.53199(18) 0.12556(18) 0.7180(3)
C39 C 0.49030(16) 0.13765(17) 0.7375(3)
C40 C 0.45079(17) 0.11750(17) 0.7411(3)
H14 H 0.4441 0.0897 0.7270
Zn10 Zn 0.62332(2) 0.13427(2) 0.70741(3)
N9 N 0.34465(13) 0.06505(13) 0.7703(2)
O23 O 0.46435(17) 0.30289(17) 0.7684(2)
O24 O 0.41283(14) 0.28235(13) 0.8261(2)
O25 O 0.35411(12) 0.21980(12) 0.78832(19)
O26 O 0.31833(13) 0.15901(13) 0.7684(3)
O27 O 0.56747(13) 0.29982(13) 0.7716(2)
Zn1_2 Zn 0.48559(2) 0.73077(2) 0.20858(3)
Zn2_2 Zn 0.58508(2) 0.78034(2) 0.16721(3)
Zn3_2 Zn 0.63427(2) 0.87668(2) 0.20741(3)
N1_2 N 0.55517(13) 0.81957(13) 0.2170(2)
N2_2 N 0.57661(14) 0.85781(14) 0.2331(2)
N3_2 N 0.48151(12) 0.79337(13) 0.22993(19)
N4_2 N 0.43495(13) 0.84465(13) 0.2703(2)
S1_2 S 0.64327(4) 0.64327(4) 0.18682(12)
S2_3 S 0.52119(6) 0.76663(7) 0.0000
S3_2 S 0.72148(4) 0.72148(4) 0.22048(11)
S4_3 S 0.62148(7) 0.82406(8) 0.0000
S5_2 S 0.36491(5) 0.63509(5) 0.24623(10)
O1_2 O 0.53565(17) 0.69711(17) 0.2316(2)
O2_2 O 0.58717(14) 0.71765(13) 0.1739(2)
O3_2 O 0.48290(13) 0.72247(13) 0.13384(17)
O4_2 O 0.53171(12) 0.77431(12) 0.11399(17)
O5_2 O 0.64589(12) 0.78020(12) 0.21168(19)
O6_2 O 0.68167(13) 0.84099(13) 0.2316(3)
O7_2 O 0.61390(14) 0.81035(17) 0.1111(2)
O8_2 O 0.6377(2) 0.87618(19) 0.1333(3)
O9_2 O 0.43253(13) 0.70018(13) 0.2284(2)
O10_2 O 0.44969(19) 0.71277(19) 0.3106(2)
O11_2 O 0.45818(13) 0.90836(13) 0.3046(2)
C1_2 C 0.5701(2) 0.6917(2) 0.2079(3)
C2_2 C 0.59515(19) 0.65062(19) 0.2173(3)
C3_2 C 0.5864(2) 0.6180(2) 0.2506(4)
H1_2 H 0.5611 0.6171 0.2717
C4_2 C 0.50418(18) 0.74580(18) 0.1020(3)
C5_2 C 0.49478(17) 0.73739(18) 0.0481(3)
C6_2 C 0.4667(2) 0.7078(2) 0.0267(3)
H2_2 H 0.4488 0.6890 0.0467
C7_2 C 0.67917(18) 0.80070(19) 0.2246(3)
C8_2 C 0.71993(18) 0.77597(18) 0.2324(3)
C9_2 C 0.7597(2) 0.7915(2) 0.2458(5)
H3_2 H 0.7651 0.8212 0.2543
C10_2 C 0.6283(3) 0.8467(3) 0.1024(4)
C11_2 C 0.6361(3) 0.8583(3) 0.0470(4)
C12_2 C 0.6533(5) 0.8945(4) 0.0287(4)
H4_2 H 0.6643 0.9175 0.0494
C13_2 C 0.4280(2) 0.6945(2) 0.2764(3)
C14_2 C 0.3932(2) 0.6634(2) 0.2911(3)
C15_2 C 0.3810(4) 0.6524(4) 0.3392(4)
H5_2 H 0.3928 0.6650 0.3695
C16_2 C 0.51442(15) 0.82339(15) 0.2359(2)
C17_2 C 0.44371(15) 0.80700(16) 0.2479(2)
H6_2 H 0.4199 0.7874 0.2442
C18_2 C 0.46801(18) 0.87444(18) 0.2820(3)
C19_2 C 0.50970(16) 0.86235(17) 0.2625(3)
C20_2 C 0.54921(17) 0.88250(17) 0.2589(3)
H7_2 H 0.5559 0.9103 0.2730
O12_2 O 0.69711(17) 0.53565(17) 0.2316(2)
O13_2 O 0.71765(13) 0.58717(14) 0.1739(2)
C21_2 C 0.6917(2) 0.5701(2) 0.2079(3)
C22_2 C 0.65062(19) 0.59515(19) 0.2173(3)
C23_2 C 0.6180(2) 0.5864(2) 0.2506(4)
H8_2 H 0.6171 0.5611 0.2717
O16_2 O 0.78020(12) 0.64589(12) 0.21168(19)
O17_2 O 0.84099(13) 0.68167(13) 0.2316(3)
C27_2 C 0.80070(19) 0.67917(18) 0.2246(3)
C28_2 C 0.77597(18) 0.71993(18) 0.2324(3)
C29_2 C 0.7915(2) 0.7597(2) 0.2458(5)
H10_2 H 0.8212 0.7651 0.2543
O20_2 O 0.29982(13) 0.56747(13) 0.2284(2)
O21_2 O 0.28723(19) 0.55031(19) 0.3106(2)
C33_2 C 0.3055(2) 0.5720(2) 0.2764(3)
C34_2 C 0.3366(2) 0.6068(2) 0.2911(3)
C35_2 C 0.3476(4) 0.6190(4) 0.3392(4)
H12_2 H 0.3350 0.6072 0.3695
Zn9_2 Zn 0.78034(2) 0.58508(2) 0.16721(3)
Zn11_2 Zn 0.37668(2) 0.86573(2) 0.29259(3)
Zn12_2 Zn 0.87668(2) 0.63427(2) 0.20741(3)
N10_2 N 0.65535(13) 0.93495(13) 0.2297(2)
S2_4 S 0.52119(6) 0.76663(7) 1.0000
S4_4 S 0.62148(7) 0.82406(8) 1.0000
O14_2 O 0.48290(13) 0.72247(13) 0.86616(17)
O15_2 O 0.53171(12) 0.77431(12) 0.88601(17)
C24_2 C 0.50418(18) 0.74580(18) 0.8980(3)
C25_2 C 0.49478(17) 0.73739(18) 0.9519(3)
C26_2 C 0.4667(2) 0.7078(2) 0.9733(3)
H9_2 H 0.4488 0.6890 0.9533
O18_2 O 0.61390(14) 0.81035(17) 0.8889(2)
O19_2 O 0.6377(2) 0.87618(19) 0.8667(3)
C30_2 C 0.6283(3) 0.8467(3) 0.8976(4)
C31_2 C 0.6361(3) 0.8583(3) 0.9530(4)
C32_2 C 0.6533(5) 0.8945(4) 0.9713(4)
H11_2 H 0.6643 0.9175 0.9506
Zn4_2 Zn 0.48559(2) 0.73077(2) 0.79142(3)
Zn5_2 Zn 0.58508(2) 0.78034(2) 0.83279(3)
Zn6_2 Zn 0.63427(2) 0.87668(2) 0.79259(3)
N5_2 N 0.55517(13) 0.81957(13) 0.7830(2)
N6_2 N 0.57661(14) 0.85781(14) 0.7669(2)
N7_2 N 0.48151(12) 0.79337(13) 0.77007(19)
N8_2 N 0.43495(13) 0.84465(13) 0.7297(2)
O22_2 O 0.45818(13) 0.90836(13) 0.6954(2)
C36_2 C 0.51442(15) 0.82339(15) 0.7641(2)
C37_2 C 0.44371(15) 0.80700(16) 0.7521(2)
H13_2 H 0.4199 0.7874 0.7558
C38_2 C 0.46801(18) 0.87444(18) 0.7180(3)
C39_2 C 0.50970(16) 0.86235(17) 0.7375(3)
C40_2 C 0.54921(17) 0.88250(17) 0.7411(3)
H14_2 H 0.5559 0.9103 0.7270
Zn10_2 Zn 0.37668(2) 0.86573(2) 0.70741(3)
N9_2 N 0.65535(13) 0.93495(13) 0.7703(2)
O23_2 O 0.53565(17) 0.69711(17) 0.7684(2)
O24_2 O 0.58717(14) 0.71765(13) 0.8261(2)
O25_2 O 0.64589(12) 0.78020(12) 0.78832(19)
O26_2 O 0.68167(13) 0.84099(13) 0.7684(3)
O27_2 O 0.43253(13) 0.70018(13) 0.7716(2)
Zn1_3 Zn 0.23077(2) 0.01441(2) 0.70858(3)
N3_3 N 0.29337(13) 0.01849(12) 0.72993(19)
S5_3 S 0.13509(5) 0.13509(5) 0.74623(10)
O3_3 O 0.22247(13) 0.01710(13) 0.63384(17)
O9_3 O 0.20018(13) 0.06747(13) 0.7284(2)
O10_3 O 0.21277(19) 0.05031(19) 0.8106(2)
O11_3 O 0.40836(13) 0.04182(13) 0.8046(2)
C5_3 C 0.23739(18) 0.00522(17) 0.5481(3)
C6_3 C 0.2078(2) 0.0333(2) 0.5267(3)
H2_3 H 0.1890 0.0512 0.5467
C13_3 C 0.1945(2) 0.0720(2) 0.7764(3)
C14_3 C 0.1634(2) 0.1068(2) 0.7911(3)
C15_3 C 0.1524(4) 0.1190(4) 0.8392(4)
H5_3 H 0.1650 0.1072 0.8695
C17_3 C 0.30700(16) 0.05629(15) 0.7479(2)
H6_3 H 0.2874 0.0801 0.7442
C18_3 C 0.37444(18) 0.03199(18) 0.7820(3)
O14_3 O 0.22247(13) 0.01710(13) 0.36616(17)
C25_3 C 0.23739(18) 0.00522(17) 0.4519(3)
C26_3 C 0.2078(2) 0.0333(2) 0.4733(3)
H9_3 H 0.1890 0.0512 0.4533
O20_3 O 0.06747(13) 0.20018(13) 0.7284(2)
O21_3 O 0.05031(19) 0.21277(19) 0.8106(2)
C33_3 C 0.0720(2) 0.1945(2) 0.7764(3)
C34_3 C 0.1068(2) 0.1634(2) 0.7911(3)
C35_3 C 0.1190(4) 0.1524(4) 0.8392(4)
H12_3 H 0.1072 0.1650 0.8695
Zn4_3 Zn 0.23077(2) 0.01441(2) 0.29142(3)
N7_3 N 0.29337(13) 0.01849(12) 0.27007(19)
O22_3 O 0.40836(13) 0.04182(13) 0.1954(2)
C37_3 C 0.30700(16) 0.05629(15) 0.2521(2)
H13_3 H 0.2874 0.0801 0.2558
C38_3 C 0.37444(18) 0.03199(18) 0.2180(3)
Zn7_2 Zn 0.01441(2) 0.23077(2) 0.70858(3)
O27_3 O 0.20018(13) 0.06747(13) 0.2716(2)
Zn2_3 Zn 0.28034(2) 0.91492(2) 0.66721(3)
N1_3 N 0.31957(13) 0.94483(13) 0.7170(2)
N2_3 N 0.35781(14) 0.92339(14) 0.7331(2)
S1_3 S 0.14327(4) 0.85673(4) 0.68682(12)
S2_5 S 0.26663(7) 0.97881(6) 0.5000
S3_3 S 0.22148(4) 0.77852(4) 0.72048(11)
S4_5 S 0.32406(8) 0.87852(7) 0.5000
O1_3 O 0.19711(17) 0.96435(17) 0.7316(2)
O2_3 O 0.21765(13) 0.91283(14) 0.6739(2)
O4_3 O 0.27431(12) 0.96829(12) 0.61399(17)
O5_3 O 0.28020(12) 0.85411(12) 0.71168(19)
O6_3 O 0.34099(13) 0.81833(13) 0.7316(3)
O7_3 O 0.31035(17) 0.88610(14) 0.6111(2)
O8_3 O 0.37618(19) 0.8623(2) 0.6333(3)
C1_3 C 0.1917(2) 0.9299(2) 0.7079(3)
C2_3 C 0.15062(19) 0.90485(19) 0.7173(3)
C3_3 C 0.1180(2) 0.9136(2) 0.7506(4)
H1_3 H 0.1171 0.9389 0.7717
C4_3 C 0.24580(18) 0.99582(18) 0.6020(3)
C7_3 C 0.30070(19) 0.82083(18) 0.7246(3)
C8_3 C 0.27597(18) 0.78007(18) 0.7324(3)
C9_3 C 0.2915(2) 0.7403(2) 0.7458(5)
H3_3 H 0.3212 0.7349 0.7543
C10_3 C 0.3467(3) 0.8717(3) 0.6024(4)
C11_3 C 0.3583(3) 0.8639(3) 0.5470(4)
C12_3 C 0.3945(4) 0.8467(5) 0.5287(4)
H4_3 H 0.4175 0.8357 0.5494
C16_3 C 0.32339(15) 0.98558(15) 0.7359(2)
C19_3 C 0.36235(17) 0.99030(16) 0.7625(3)
C20_3 C 0.38250(17) 0.95079(17) 0.7589(3)
H7_3 H 0.4103 0.9441 0.7730
O12_3 O 0.03565(17) 0.80289(17) 0.7316(2)
O13_3 O 0.08717(14) 0.78235(13) 0.6739(2)
C21_3 C 0.0701(2) 0.8083(2) 0.7079(3)
C22_3 C 0.09515(19) 0.84938(19) 0.7173(3)
C23_3 C 0.0864(2) 0.8820(2) 0.7506(4)
H8_3 H 0.0611 0.8829 0.7717
O15_3 O 0.27431(12) 0.96829(12) 0.38601(17)
C24_3 C 0.24580(18) 0.99582(18) 0.3980(3)
O16_3 O 0.14589(12) 0.71980(12) 0.71168(19)
O17_3 O 0.18167(13) 0.65901(13) 0.7316(3)
C27_3 C 0.17917(18) 0.69930(19) 0.7246(3)
C28_3 C 0.21993(18) 0.72403(18) 0.7324(3)
C29_3 C 0.2597(2) 0.7085(2) 0.7458(5)
H10_3 H 0.2651 0.6788 0.7543
O18_3 O 0.31035(17) 0.88610(14) 0.3889(2)
O19_3 O 0.37618(19) 0.8623(2) 0.3667(3)
C30_3 C 0.3467(3) 0.8717(3) 0.3976(4)
C31_3 C 0.3583(3) 0.8639(3) 0.4530(4)
C32_3 C 0.3945(4) 0.8467(5) 0.4713(4)
H11_3 H 0.4175 0.8357 0.4506
Zn5_3 Zn 0.28034(2) 0.91492(2) 0.33279(3)
N5_3 N 0.31957(13) 0.94483(13) 0.2830(2)
N6_3 N 0.35781(14) 0.92339(14) 0.2669(2)
C36_3 C 0.32339(15) 0.98558(15) 0.2641(2)
C39_3 C 0.36235(17) 0.99030(16) 0.2375(3)
C40_3 C 0.38250(17) 0.95079(17) 0.2411(3)
H14_3 H 0.4103 0.9441 0.2270
Zn9_3 Zn 0.08508(2) 0.71966(2) 0.66721(3)
Zn12_3 Zn 0.13427(2) 0.62332(2) 0.70741(3)
O23_3 O 0.19711(17) 0.96435(17) 0.2684(2)
O24_3 O 0.21765(13) 0.91283(14) 0.3261(2)
O25_3 O 0.28020(12) 0.85411(12) 0.28832(19)
O26_3 O 0.34099(13) 0.81833(13) 0.2684(3)
Zn8_2 Zn 0.98559(2) 0.76923(2) 0.70858(3)
Zn2_4 Zn 0.71966(2) 0.08508(2) 0.66721(3)
N1_4 N 0.68043(13) 0.05517(13) 0.7170(2)
N2_4 N 0.64219(14) 0.07661(14) 0.7331(2)
S1_4 S 0.85673(4) 0.14327(4) 0.68682(12)
S2_6 S 0.73337(7) 0.02119(6) 0.5000
S3_4 S 0.77852(4) 0.22148(4) 0.72048(11)
S4_6 S 0.67594(8) 0.12148(7) 0.5000
O1_4 O 0.80289(17) 0.03565(17) 0.7316(2)
O2_4 O 0.78235(13) 0.08717(14) 0.6739(2)
O4_4 O 0.72569(12) 0.03171(12) 0.61399(17)
O5_4 O 0.71980(12) 0.14589(12) 0.71168(19)
O6_4 O 0.65901(13) 0.18167(13) 0.7316(3)
O7_4 O 0.68965(17) 0.11390(14) 0.6111(2)
O8_4 O 0.62382(19) 0.1377(2) 0.6333(3)
C1_4 C 0.8083(2) 0.0701(2) 0.7079(3)
C2_4 C 0.84938(19) 0.09515(19) 0.7173(3)
C3_4 C 0.8820(2) 0.0864(2) 0.7506(4)
H1_4 H 0.8829 0.0611 0.7717
C4_4 C 0.75420(18) 0.00418(18) 0.6020(3)
C7_4 C 0.69930(19) 0.17917(18) 0.7246(3)
C8_4 C 0.72403(18) 0.21993(18) 0.7324(3)
C9_4 C 0.7085(2) 0.2597(2) 0.7458(5)
H3_4 H 0.6788 0.2651 0.7543
C10_4 C 0.6533(3) 0.1283(3) 0.6024(4)
C11_4 C 0.6417(3) 0.1361(3) 0.5470(4)
C12_4 C 0.6055(4) 0.1533(5) 0.5287(4)
H4_4 H 0.5825 0.1643 0.5494
C16_4 C 0.67661(15) 0.01442(15) 0.7359(2)
C19_4 C 0.63765(17) 0.00970(16) 0.7625(3)
C20_4 C 0.61750(17) 0.04921(17) 0.7589(3)
H7_4 H 0.5897 0.0559 0.7730
O12_4 O 0.96435(17) 0.19711(17) 0.7316(2)
O13_4 O 0.91283(14) 0.21765(13) 0.6739(2)
C21_4 C 0.9299(2) 0.1917(2) 0.7079(3)
C22_4 C 0.90485(19) 0.15062(19) 0.7173(3)
C23_4 C 0.9136(2) 0.1180(2) 0.7506(4)
H8_4 H 0.9389 0.1171 0.7717
O15_4 O 0.72569(12) 0.03171(12) 0.38601(17)
C24_4 C 0.75420(18) 0.00418(18) 0.3980(3)
O16_4 O 0.85411(12) 0.28020(12) 0.71168(19)
O17_4 O 0.81833(13) 0.34099(13) 0.7316(3)
C27_4 C 0.82083(18) 0.30070(19) 0.7246(3)
C28_4 C 0.78007(18) 0.27597(18) 0.7324(3)
C29_4 C 0.7403(2) 0.2915(2) 0.7458(5)
H10_4 H 0.7349 0.3212 0.7543
O18_4 O 0.68965(17) 0.11390(14) 0.3889(2)
O19_4 O 0.62382(19) 0.1377(2) 0.3667(3)
C30_4 C 0.6533(3) 0.1283(3) 0.3976(4)
C31_4 C 0.6417(3) 0.1361(3) 0.4530(4)
C32_4 C 0.6055(4) 0.1533(5) 0.4713(4)
H11_4 H 0.5825 0.1643 0.4506
Zn5_4 Zn 0.71966(2) 0.08508(2) 0.33279(3)
N5_4 N 0.68043(13) 0.05517(13) 0.2830(2)
N6_4 N 0.64219(14) 0.07661(14) 0.2669(2)
C36_4 C 0.67661(15) 0.01442(15) 0.2641(2)
C39_4 C 0.63765(17) 0.00970(16) 0.2375(3)
C40_4 C 0.61750(17) 0.04921(17) 0.2411(3)
H14_4 H 0.5897 0.0559 0.2270
Zn9_4 Zn 0.91492(2) 0.28034(2) 0.66721(3)
Zn12_4 Zn 0.86573(2) 0.37668(2) 0.70741(3)
O23_4 O 0.80289(17) 0.03565(17) 0.2684(2)
O24_4 O 0.78235(13) 0.08717(14) 0.3261(2)
O25_4 O 0.71980(12) 0.14589(12) 0.28832(19)
O26_4 O 0.65901(13) 0.18167(13) 0.2684(3)
Zn1_4 Zn 0.76923(2) 0.98559(2) 0.70858(3)
N3_4 N 0.70663(13) 0.98151(12) 0.72993(19)
S5_4 S 0.86491(5) 0.86491(5) 0.74623(10)
O3_4 O 0.77753(13) 0.98290(13) 0.63384(17)
O9_4 O 0.79982(13) 0.93253(13) 0.7284(2)
O10_4 O 0.78723(19) 0.94969(19) 0.8106(2)
O11_4 O 0.59164(13) 0.95818(13) 0.8046(2)
C5_4 C 0.76261(18) 0.99478(17) 0.5481(3)
C6_4 C 0.7922(2) 0.9667(2) 0.5267(3)
H2_4 H 0.8110 0.9488 0.5467
C13_4 C 0.8055(2) 0.9280(2) 0.7764(3)
C14_4 C 0.8366(2) 0.8932(2) 0.7911(3)
C15_4 C 0.8476(4) 0.8810(4) 0.8392(4)
H5_4 H 0.8350 0.8928 0.8695
C17_4 C 0.69300(16) 0.94371(15) 0.7479(2)
H6_4 H 0.7126 0.9199 0.7442
C18_4 C 0.62556(18) 0.96801(18) 0.7820(3)
O14_4 O 0.77753(13) 0.98290(13) 0.36616(17)
C25_4 C 0.76261(18) 0.99478(17) 0.4519(3)
C26_4 C 0.7922(2) 0.9667(2) 0.4733(3)
H9_4 H 0.8110 0.9488 0.4533
O20_4 O 0.93253(13) 0.79982(13) 0.7284(2)
O21_4 O 0.94969(19) 0.78723(19) 0.8106(2)
C33_4 C 0.9280(2) 0.8055(2) 0.7764(3)
C34_4 C 0.8932(2) 0.8366(2) 0.7911(3)
C35_4 C 0.8810(4) 0.8476(4) 0.8392(4)
H12_4 H 0.8928 0.8350 0.8695
Zn4_4 Zn 0.76923(2) 0.98559(2) 0.29142(3)
N7_4 N 0.70663(13) 0.98151(12) 0.27007(19)
O22_4 O 0.59164(13) 0.95818(13) 0.1954(2)
C37_4 C 0.69300(16) 0.94371(15) 0.2521(2)
H13_4 H 0.7126 0.9199 0.2558
C38_4 C 0.62556(18) 0.96801(18) 0.2180(3)
O27_4 O 0.79982(13) 0.93253(13) 0.2716(2)
Zn2_5 Zn 0.08508(2) 0.71966(2) 0.33279(3)
Zn3_3 Zn 0.13427(2) 0.62332(2) 0.29259(3)
N1_5 N 0.05517(13) 0.68043(13) 0.2830(2)
N2_5 N 0.07661(14) 0.64219(14) 0.2669(2)
S1_5 S 0.14327(4) 0.85673(4) 0.31318(12)
S2_7 S 0.02119(6) 0.73337(7) 0.5000
S3_5 S 0.22148(4) 0.77852(4) 0.27952(11)
S4_7 S 0.12148(7) 0.67594(8) 0.5000
O1_5 O 0.03565(17) 0.80289(17) 0.2684(2)
O2_5 O 0.08717(14) 0.78235(13) 0.3261(2)
O4_5 O 0.03171(12) 0.72569(12) 0.38601(17)
O5_5 O 0.14589(12) 0.71980(12) 0.28832(19)
O6_5 O 0.18167(13) 0.65901(13) 0.2684(3)
O7_5 O 0.11390(14) 0.68965(17) 0.3889(2)
O8_5 O 0.1377(2) 0.62382(19) 0.3667(3)
C1_5 C 0.0701(2) 0.8083(2) 0.2921(3)
C2_5 C 0.09515(19) 0.84938(19) 0.2827(3)
C3_5 C 0.0864(2) 0.8820(2) 0.2494(4)
H1_5 H 0.0611 0.8829 0.2283
C4_5 C 0.00418(18) 0.75420(18) 0.3980(3)
C7_5 C 0.17917(18) 0.69930(19) 0.2754(3)
C8_5 C 0.21993(18) 0.72403(18) 0.2676(3)
C9_5 C 0.2597(2) 0.7085(2) 0.2542(5)
H3_5 H 0.2651 0.6788 0.2457
C10_5 C 0.1283(3) 0.6533(3) 0.3976(4)
C11_5 C 0.1361(3) 0.6417(3) 0.4530(4)
C12_5 C 0.1533(5) 0.6055(4) 0.4713(4)
H4_5 H 0.1643 0.5825 0.4506
C16_5 C 0.01442(15) 0.67661(15) 0.2641(2)
C19_5 C 0.00970(16) 0.63765(17) 0.2375(3)
C20_5 C 0.04921(17) 0.61750(17) 0.2411(3)
H7_5 H 0.0559 0.5897 0.2270
C21_5 C 0.1917(2) 0.9299(2) 0.2921(3)
C22_5 C 0.15062(19) 0.90485(19) 0.2827(3)
C23_5 C 0.1180(2) 0.9136(2) 0.2494(4)
H8_5 H 0.1171 0.9389 0.2283
O15_5 O 0.03171(12) 0.72569(12) 0.61399(17)
C24_5 C 0.00418(18) 0.75420(18) 0.6020(3)
C27_5 C 0.30070(19) 0.82083(18) 0.2754(3)
C28_5 C 0.27597(18) 0.78007(18) 0.2676(3)
C29_5 C 0.2915(2) 0.7403(2) 0.2542(5)
H10_5 H 0.3212 0.7349 0.2457
O18_5 O 0.11390(14) 0.68965(17) 0.6111(2)
O19_5 O 0.1377(2) 0.62382(19) 0.6333(3)
C30_5 C 0.1283(3) 0.6533(3) 0.6024(4)
C31_5 C 0.1361(3) 0.6417(3) 0.5470(4)
C32_5 C 0.1533(5) 0.6055(4) 0.5287(4)
H11_5 H 0.1643 0.5825 0.5494
N5_5 N 0.05517(13) 0.68043(13) 0.7170(2)
N6_5 N 0.07661(14) 0.64219(14) 0.7331(2)
C36_5 C 0.01442(15) 0.67661(15) 0.7359(2)
C39_5 C 0.00970(16) 0.63765(17) 0.7625(3)
C40_5 C 0.04921(17) 0.61750(17) 0.7589(3)
H14_5 H 0.0559 0.5897 0.7730
N9_3 N 0.15535(13) 0.56505(13) 0.7297(2)
N10_3 N 0.15535(13) 0.56505(13) 0.2703(2)
Zn1_5 Zn 0.98559(2) 0.76923(2) 0.29142(3)
N3_5 N 0.98151(12) 0.70663(13) 0.27007(19)
N4_3 N 0.93495(13) 0.65535(13) 0.2297(2)
S5_5 S 0.86491(5) 0.86491(5) 0.25377(10)
O3_5 O 0.98290(13) 0.77753(13) 0.36616(17)
O9_5 O 0.93253(13) 0.79982(13) 0.2716(2)
O10_5 O 0.94969(19) 0.78723(19) 0.1894(2)
O11_5 O 0.95818(13) 0.59164(13) 0.1954(2)
C5_5 C 0.99478(17) 0.76261(18) 0.4519(3)
C6_5 C 0.9667(2) 0.7922(2) 0.4733(3)
H2_5 H 0.9488 0.8110 0.4533
C13_5 C 0.9280(2) 0.8055(2) 0.2236(3)
C14_5 C 0.8932(2) 0.8366(2) 0.2089(3)
C15_5 C 0.8810(4) 0.8476(4) 0.1608(4)
H5_5 H 0.8928 0.8350 0.1305
C17_5 C 0.94371(15) 0.69300(16) 0.2521(2)
H6_5 H 0.9199 0.7126 0.2558
C18_5 C 0.96801(18) 0.62556(18) 0.2180(3)
O14_5 O 0.98290(13) 0.77753(13) 0.63384(17)
C25_5 C 0.99478(17) 0.76261(18) 0.5481(3)
C26_5 C 0.9667(2) 0.7922(2) 0.5267(3)
H9_5 H 0.9488 0.8110 0.5467
O21_5 O 0.78723(19) 0.94969(19) 0.1894(2)
C33_5 C 0.8055(2) 0.9280(2) 0.2236(3)
C34_5 C 0.8366(2) 0.8932(2) 0.2089(3)
C35_5 C 0.8476(4) 0.8810(4) 0.1608(4)
H12_5 H 0.8350 0.8928 0.1305
N7_5 N 0.98151(12) 0.70663(13) 0.72993(19)
N8_3 N 0.93495(13) 0.65535(13) 0.7703(2)
O22_5 O 0.95818(13) 0.59164(13) 0.8046(2)
C37_5 C 0.94371(15) 0.69300(16) 0.7479(2)
H13_5 H 0.9199 0.7126 0.7442
C38_5 C 0.96801(18) 0.62556(18) 0.7820(3)
Zn10_3 Zn 0.87668(2) 0.63427(2) 0.79259(3)
Zn1_6 Zn 0.01441(2) 0.23077(2) 0.29142(3)
N3_6 N 0.01849(12) 0.29337(13) 0.27007(19)
N4_4 N 0.06505(13) 0.34465(13) 0.2297(2)
S5_6 S 0.13509(5) 0.13509(5) 0.25377(10)
O3_6 O 0.01710(13) 0.22247(13) 0.36616(17)
O9_6 O 0.06747(13) 0.20018(13) 0.2716(2)
O10_6 O 0.05031(19) 0.21277(19) 0.1894(2)
O11_6 O 0.04182(13) 0.40836(13) 0.1954(2)
C5_6 C 0.00522(17) 0.23739(18) 0.4519(3)
C6_6 C 0.0333(2) 0.2078(2) 0.4733(3)
H2_6 H 0.0512 0.1890 0.4533
C13_6 C 0.0720(2) 0.1945(2) 0.2236(3)
C14_6 C 0.1068(2) 0.1634(2) 0.2089(3)
C15_6 C 0.1190(4) 0.1524(4) 0.1608(4)
H5_6 H 0.1072 0.1650 0.1305
C17_6 C 0.05629(15) 0.30700(16) 0.2521(2)
H6_6 H 0.0801 0.2874 0.2558
C18_6 C 0.03199(18) 0.37444(18) 0.2180(3)
O14_6 O 0.01710(13) 0.22247(13) 0.63384(17)
C25_6 C 0.00522(17) 0.23739(18) 0.5481(3)
C26_6 C 0.0333(2) 0.2078(2) 0.5267(3)
H9_6 H 0.0512 0.1890 0.5467
O21_6 O 0.21277(19) 0.05031(19) 0.1894(2)
C33_6 C 0.1945(2) 0.0720(2) 0.2236(3)
C34_6 C 0.1634(2) 0.1068(2) 0.2089(3)
C35_6 C 0.1524(4) 0.1190(4) 0.1608(4)
H12_6 H 0.1650 0.1072 0.1305
N7_6 N 0.01849(12) 0.29337(13) 0.72993(19)
N8_4 N 0.06505(13) 0.34465(13) 0.7703(2)
O22_6 O 0.04182(13) 0.40836(13) 0.8046(2)
C37_6 C 0.05629(15) 0.30700(16) 0.7479(2)
H13_6 H 0.0801 0.2874 0.7442
C38_6 C 0.03199(18) 0.37444(18) 0.7820(3)
Zn10_4 Zn 0.12332(2) 0.36573(2) 0.79259(3)
Zn2_6 Zn 0.91492(2) 0.28034(2) 0.33279(3)
Zn3_4 Zn 0.86573(2) 0.37668(2) 0.29259(3)
N1_6 N 0.94483(13) 0.31957(13) 0.2830(2)
N2_6 N 0.92339(14) 0.35781(14) 0.2669(2)
S1_6 S 0.85673(4) 0.14327(4) 0.31318(12)
S2_8 S 0.97881(6) 0.26663(7) 0.5000
S3_6 S 0.77852(4) 0.22148(4) 0.27952(11)
S4_8 S 0.87852(7) 0.32406(8) 0.5000
O1_6 O 0.96435(17) 0.19711(17) 0.2684(2)
O2_6 O 0.91283(14) 0.21765(13) 0.3261(2)
O4_6 O 0.96829(12) 0.27431(12) 0.38601(17)
O5_6 O 0.85411(12) 0.28020(12) 0.28832(19)
O6_6 O 0.81833(13) 0.34099(13) 0.2684(3)
O7_6 O 0.88610(14) 0.31035(17) 0.3889(2)
O8_6 O 0.8623(2) 0.37618(19) 0.3667(3)
C1_6 C 0.9299(2) 0.1917(2) 0.2921(3)
C2_6 C 0.90485(19) 0.15062(19) 0.2827(3)
C3_6 C 0.9136(2) 0.1180(2) 0.2494(4)
H1_6 H 0.9389 0.1171 0.2283
C4_6 C 0.99582(18) 0.24580(18) 0.3980(3)
C7_6 C 0.82083(18) 0.30070(19) 0.2754(3)
C8_6 C 0.78007(18) 0.27597(18) 0.2676(3)
C9_6 C 0.7403(2) 0.2915(2) 0.2542(5)
H3_6 H 0.7349 0.3212 0.2457
C10_6 C 0.8717(3) 0.3467(3) 0.3976(4)
C11_6 C 0.8639(3) 0.3583(3) 0.4530(4)
C12_6 C 0.8467(5) 0.3945(4) 0.4713(4)
H4_6 H 0.8357 0.4175 0.4506
C16_6 C 0.98558(15) 0.32339(15) 0.2641(2)
C19_6 C 0.99030(16) 0.36235(17) 0.2375(3)
C20_6 C 0.95079(17) 0.38250(17) 0.2411(3)
H7_6 H 0.9441 0.4103 0.2270
C21_6 C 0.8083(2) 0.0701(2) 0.2921(3)
C22_6 C 0.84938(19) 0.09515(19) 0.2827(3)
C23_6 C 0.8820(2) 0.0864(2) 0.2494(4)
H8_6 H 0.8829 0.0611 0.2283
O15_6 O 0.96829(12) 0.27431(12) 0.61399(17)
C24_6 C 0.99582(18) 0.24580(18) 0.6020(3)
C27_6 C 0.69930(19) 0.17917(18) 0.2754(3)
C28_6 C 0.72403(18) 0.21993(18) 0.2676(3)
C29_6 C 0.7085(2) 0.2597(2) 0.2542(5)
H10_6 H 0.6788 0.2651 0.2457
O18_6 O 0.88610(14) 0.31035(17) 0.6111(2)
O19_6 O 0.8623(2) 0.37618(19) 0.6333(3)
C30_6 C 0.8717(3) 0.3467(3) 0.6024(4)
C31_6 C 0.8639(3) 0.3583(3) 0.5470(4)
C32_6 C 0.8467(5) 0.3945(4) 0.5287(4)
H11_6 H 0.8357 0.4175 0.5494
N5_6 N 0.94483(13) 0.31957(13) 0.7170(2)
N6_6 N 0.92339(14) 0.35781(14) 0.7331(2)
C36_6 C 0.98558(15) 0.32339(15) 0.7359(2)
C39_6 C 0.99030(16) 0.36235(17) 0.7625(3)
C40_6 C 0.95079(17) 0.38250(17) 0.7589(3)
H14_6 H 0.9441 0.4103 0.7730
N9_4 N 0.84465(13) 0.43495(13) 0.7297(2)
N10_4 N 0.84465(13) 0.43495(13) 0.2703(2)
S2_9 S 0.23337(7) 0.47881(6) 0.0000
S4_9 S 0.17594(8) 0.37852(7) 0.0000
O14_7 O 0.27753(13) 0.51710(13) 0.13384(17)
O15_7 O 0.22569(12) 0.46829(12) 0.11399(17)
C24_7 C 0.25420(18) 0.49582(18) 0.1020(3)
C25_7 C 0.26261(18) 0.50522(17) 0.0481(3)
C26_7 C 0.2922(2) 0.5333(2) 0.0267(3)
H9_7 H 0.3110 0.5512 0.0467
O18_7 O 0.18965(17) 0.38610(14) 0.1111(2)
O19_7 O 0.12382(19) 0.3623(2) 0.1333(3)
C30_7 C 0.1533(3) 0.3717(3) 0.1024(4)
C31_7 C 0.1417(3) 0.3639(3) 0.0470(4)
C32_7 C 0.1055(4) 0.3467(5) 0.0287(4)
H11_7 H 0.0825 0.3357 0.0494
N5_7 N 0.18043(13) 0.44483(13) 0.2170(2)
N6_7 N 0.14219(14) 0.42339(14) 0.2331(2)
N7_7 N 0.20663(13) 0.51849(12) 0.22993(19)
O22_7 O 0.09164(13) 0.54182(13) 0.3046(2)
C36_7 C 0.17661(15) 0.48558(15) 0.2359(2)
C37_7 C 0.19300(16) 0.55629(15) 0.2479(2)
H13_7 H 0.2126 0.5801 0.2442
C38_7 C 0.12556(18) 0.53199(18) 0.2820(3)
C39_7 C 0.13765(17) 0.49030(16) 0.2625(3)
C40_7 C 0.11750(17) 0.45079(17) 0.2589(3)
H14_7 H 0.0897 0.4441 0.2730
Zn1_7 Zn 0.26923(2) 0.51441(2) 0.79142(3)
Zn2_7 Zn 0.21966(2) 0.41492(2) 0.83279(3)
N1_7 N 0.18043(13) 0.44483(13) 0.7830(2)
N2_7 N 0.14219(14) 0.42339(14) 0.7669(2)
N3_7 N 0.20663(13) 0.51849(12) 0.77007(19)
S1_7 S 0.35673(4) 0.35673(4) 0.81318(12)
S2_10 S 0.23337(7) 0.47881(6) 1.0000
S3_7 S 0.27852(4) 0.27852(4) 0.77952(11)
S4_10 S 0.17594(8) 0.37852(7) 1.0000
S5_7 S 0.36491(5) 0.63509(5) 0.75377(10)
O1_7 O 0.30289(17) 0.46435(17) 0.7684(2)
O2_7 O 0.28235(13) 0.41283(14) 0.8261(2)
O3_7 O 0.27753(13) 0.51710(13) 0.86616(17)
O4_7 O 0.22569(12) 0.46829(12) 0.88601(17)
O5_7 O 0.21980(12) 0.35411(12) 0.78832(19)
O6_7 O 0.15901(13) 0.31833(13) 0.7684(3)
O7_7 O 0.18965(17) 0.38610(14) 0.8889(2)
O8_7 O 0.12382(19) 0.3623(2) 0.8667(3)
O9_7 O 0.29982(13) 0.56747(13) 0.7716(2)
O10_7 O 0.28723(19) 0.55031(19) 0.6894(2)
O11_7 O 0.09164(13) 0.54182(13) 0.6954(2)
C1_7 C 0.3083(2) 0.4299(2) 0.7921(3)
C2_7 C 0.34938(19) 0.40485(19) 0.7827(3)
C3_7 C 0.3820(2) 0.4136(2) 0.7494(4)
H1_7 H 0.3829 0.4389 0.7283
C4_7 C 0.25420(18) 0.49582(18) 0.8980(3)
C5_7 C 0.26261(18) 0.50522(17) 0.9519(3)
C6_7 C 0.2922(2) 0.5333(2) 0.9733(3)
H2_7 H 0.3110 0.5512 0.9533
C7_7 C 0.19930(19) 0.32083(18) 0.7754(3)
C8_7 C 0.22403(18) 0.28007(18) 0.7676(3)
C9_7 C 0.2085(2) 0.2403(2) 0.7542(5)
H3_7 H 0.1788 0.2349 0.7457
C10_7 C 0.1533(3) 0.3717(3) 0.8976(4)
C11_7 C 0.1417(3) 0.3639(3) 0.9530(4)
C12_7 C 0.1055(4) 0.3467(5) 0.9713(4)
H4_7 H 0.0825 0.3357 0.9506
C13_7 C 0.3055(2) 0.5720(2) 0.7236(3)
C14_7 C 0.3366(2) 0.6068(2) 0.7089(3)
C15_7 C 0.3476(4) 0.6190(4) 0.6608(4)
H5_7 H 0.3350 0.6072 0.6305
C16_7 C 0.17661(15) 0.48558(15) 0.7641(2)
C17_7 C 0.19300(16) 0.55629(15) 0.7521(2)
H6_7 H 0.2126 0.5801 0.7558
C18_7 C 0.12556(18) 0.53199(18) 0.7180(3)
C19_7 C 0.13765(17) 0.49030(16) 0.7375(3)
C20_7 C 0.11750(17) 0.45079(17) 0.7411(3)
H7_7 H 0.0897 0.4441 0.7270
C21_7 C 0.4299(2) 0.3083(2) 0.7921(3)
C22_7 C 0.40485(19) 0.34938(19) 0.7827(3)
C23_7 C 0.4136(2) 0.3820(2) 0.7494(4)
H8_7 H 0.4389 0.3829 0.7283
C27_7 C 0.32083(18) 0.19930(19) 0.7754(3)
C28_7 C 0.28007(18) 0.22403(18) 0.7676(3)
C29_7 C 0.2403(2) 0.2085(2) 0.7542(5)
H10_7 H 0.2349 0.1788 0.7457
O21_7 O 0.44969(19) 0.71277(19) 0.6894(2)
C33_7 C 0.4280(2) 0.6945(2) 0.7236(3)
C34_7 C 0.3932(2) 0.6634(2) 0.7089(3)
C35_7 C 0.3810(4) 0.6524(4) 0.6608(4)
H12_7 H 0.3928 0.6650 0.6305
S2_11 S 0.76663(7) 0.52119(6) 0.0000
S4_11 S 0.82406(8) 0.62148(7) 0.0000
O14_8 O 0.72247(13) 0.48290(13) 0.13384(17)
O15_8 O 0.77431(12) 0.53171(12) 0.11399(17)
C24_8 C 0.74580(18) 0.50418(18) 0.1020(3)
C25_8 C 0.73739(18) 0.49478(17) 0.0481(3)
C26_8 C 0.7078(2) 0.4667(2) 0.0267(3)
H9_8 H 0.6890 0.4488 0.0467
O18_8 O 0.81035(17) 0.61390(14) 0.1111(2)
O19_8 O 0.87618(19) 0.6377(2) 0.1333(3)
C30_8 C 0.8467(3) 0.6283(3) 0.1024(4)
C31_8 C 0.8583(3) 0.6361(3) 0.0470(4)
C32_8 C 0.8945(4) 0.6533(5) 0.0287(4)
H11_8 H 0.9175 0.6643 0.0494
N5_8 N 0.81957(13) 0.55517(13) 0.2170(2)
N6_8 N 0.85781(14) 0.57661(14) 0.2331(2)
N7_8 N 0.79337(13) 0.48151(12) 0.22993(19)
O22_8 O 0.90836(13) 0.45818(13) 0.3046(2)
C36_8 C 0.82339(15) 0.51442(15) 0.2359(2)
C37_8 C 0.80700(16) 0.44371(15) 0.2479(2)
H13_8 H 0.7874 0.4199 0.2442
C38_8 C 0.87444(18) 0.46801(18) 0.2820(3)
C39_8 C 0.86235(17) 0.50970(16) 0.2625(3)
C40_8 C 0.88250(17) 0.54921(17) 0.2589(3)
H14_8 H 0.9103 0.5559 0.2730
Zn1_8 Zn 0.73077(2) 0.48559(2) 0.79142(3)
Zn2_8 Zn 0.78034(2) 0.58508(2) 0.83279(3)
N1_8 N 0.81957(13) 0.55517(13) 0.7830(2)
N2_8 N 0.85781(14) 0.57661(14) 0.7669(2)
N3_8 N 0.79337(13) 0.48151(12) 0.77007(19)
S1_8 S 0.64327(4) 0.64327(4) 0.81318(12)
S2_12 S 0.76663(7) 0.52119(6) 1.0000
S3_8 S 0.72148(4) 0.72148(4) 0.77952(11)
S4_12 S 0.82406(8) 0.62148(7) 1.0000
S5_8 S 0.63509(5) 0.36491(5) 0.75377(10)
O1_8 O 0.69711(17) 0.53565(17) 0.7684(2)
O2_8 O 0.71765(13) 0.58717(14) 0.8261(2)
O3_8 O 0.72247(13) 0.48290(13) 0.86616(17)
O4_8 O 0.77431(12) 0.53171(12) 0.88601(17)
O5_8 O 0.78020(12) 0.64589(12) 0.78832(19)
O6_8 O 0.84099(13) 0.68167(13) 0.7684(3)
O7_8 O 0.81035(17) 0.61390(14) 0.8889(2)
O8_8 O 0.87618(19) 0.6377(2) 0.8667(3)
O9_8 O 0.70018(13) 0.43253(13) 0.7716(2)
O10_8 O 0.71277(19) 0.44969(19) 0.6894(2)
O11_8 O 0.90836(13) 0.45818(13) 0.6954(2)
C1_8 C 0.6917(2) 0.5701(2) 0.7921(3)
C2_8 C 0.65062(19) 0.59515(19) 0.7827(3)
C3_8 C 0.6180(2) 0.5864(2) 0.7494(4)
H1_8 H 0.6171 0.5611 0.7283
C4_8 C 0.74580(18) 0.50418(18) 0.8980(3)
C5_8 C 0.73739(18) 0.49478(17) 0.9519(3)
C6_8 C 0.7078(2) 0.4667(2) 0.9733(3)
H2_8 H 0.6890 0.4488 0.9533
C7_8 C 0.80070(19) 0.67917(18) 0.7754(3)
C8_8 C 0.77597(18) 0.71993(18) 0.7676(3)
C9_8 C 0.7915(2) 0.7597(2) 0.7542(5)
H3_8 H 0.8212 0.7651 0.7457
C10_8 C 0.8467(3) 0.6283(3) 0.8976(4)
C11_8 C 0.8583(3) 0.6361(3) 0.9530(4)
C12_8 C 0.8945(4) 0.6533(5) 0.9713(4)
H4_8 H 0.9175 0.6643 0.9506
C13_8 C 0.6945(2) 0.4280(2) 0.7236(3)
C14_8 C 0.6634(2) 0.3932(2) 0.7089(3)
C15_8 C 0.6524(4) 0.3810(4) 0.6608(4)
H5_8 H 0.6650 0.3928 0.6305
C16_8 C 0.82339(15) 0.51442(15) 0.7641(2)
C17_8 C 0.80700(16) 0.44371(15) 0.7521(2)
H6_8 H 0.7874 0.4199 0.7558
C18_8 C 0.87444(18) 0.46801(18) 0.7180(3)
C19_8 C 0.86235(17) 0.50970(16) 0.7375(3)
C20_8 C 0.88250(17) 0.54921(17) 0.7411(3)
H7_8 H 0.9103 0.5559 0.7270
C21_8 C 0.5701(2) 0.6917(2) 0.7921(3)
C22_8 C 0.59515(19) 0.65062(19) 0.7827(3)
C23_8 C 0.5864(2) 0.6180(2) 0.7494(4)
H8_8 H 0.5611 0.6171 0.7283
C27_8 C 0.67917(18) 0.80070(19) 0.7754(3)
C28_8 C 0.71993(18) 0.77597(18) 0.7676(3)
C29_8 C 0.7597(2) 0.7915(2) 0.7542(5)
H10_8 H 0.7651 0.8212 0.7457
O21_8 O 0.55031(19) 0.28723(19) 0.6894(2)
C33_8 C 0.5720(2) 0.3055(2) 0.7236(3)
C34_8 C 0.6068(2) 0.3366(2) 0.7089(3)
C35_8 C 0.6190(4) 0.3476(4) 0.6608(4)
H12_8 H 0.6072 0.3350 0.6305
C41 C 0.5390(4) 0.0790(4) 0.1663(5)
H15 H 0.5159 0.0590 0.1773
H16 H 0.5648 0.0622 0.1560
H17 H 0.5466 0.0985 0.1948
C42 C 0.5623(6) 0.1349(6) 0.1083(7)
H18 H 0.5544 0.1534 0.0790
H19 H 0.5695 0.1533 0.1380
H20 H 0.5876 0.1170 0.0993
N11 N 0.5235(5) 0.1050(5) 0.1221(6)
H21 H 0.4997 0.1210 0.1309
H22 H 0.5165 0.0875 0.0951
C41_2 C 0.4610(4) 0.9210(4) 0.1663(5)
H15_2 H 0.4841 0.9410 0.1773
H16_2 H 0.4352 0.9378 0.1560
H17_2 H 0.4534 0.9015 0.1948
C42_2 C 0.4377(6) 0.8651(6) 0.1083(7)
H18_2 H 0.4456 0.8466 0.0790
H19_2 H 0.4305 0.8467 0.1380
H20_2 H 0.4124 0.8830 0.0993
N11_2 N 0.4765(5) 0.8950(5) 0.1221(6)
H21_2 H 0.5003 0.8790 0.1309
H22_2 H 0.4835 0.9125 0.0951
C41_3 C 0.4210(4) 0.0390(4) 0.6663(5)
H15_3 H 0.4410 0.0159 0.6773
H16_3 H 0.4378 0.0648 0.6560
H17_3 H 0.4015 0.0466 0.6948
C42_3 C 0.3651(6) 0.0623(6) 0.6083(7)
H18_3 H 0.3466 0.0544 0.5790
H19_3 H 0.3467 0.0695 0.6380
H20_3 H 0.3830 0.0876 0.5993
N11_3 N 0.3950(5) 0.0235(5) 0.6221(6)
H22_3 H 0.4125 0.0165 0.5951
H21_3 H 0.3790 0.9997 0.6309
H21_4 H 0.6210 0.0003 0.6309
C41_4 C 0.5790(4) 0.9610(4) 0.6663(5)
H15_4 H 0.5590 0.9841 0.6773
H16_4 H 0.5622 0.9352 0.6560
H17_4 H 0.5985 0.9534 0.6948
C42_4 C 0.6349(6) 0.9377(6) 0.6083(7)
H18_4 H 0.6534 0.9456 0.5790
H19_4 H 0.6533 0.9305 0.6380
H20_4 H 0.6170 0.9124 0.5993
N11_4 N 0.6050(5) 0.9765(5) 0.6221(6)
H22_4 H 0.5875 0.9835 0.5951
H21_5 H 0.0003 0.6210 0.3691
C41_5 C 0.9610(4) 0.5790(4) 0.3337(5)
H15_5 H 0.9841 0.5590 0.3227
H16_5 H 0.9352 0.5622 0.3440
H17_5 H 0.9534 0.5985 0.3052
C42_5 C 0.9377(6) 0.6349(6) 0.3917(7)
H18_5 H 0.9456 0.6534 0.4210
H19_5 H 0.9305 0.6533 0.3620
H20_5 H 0.9124 0.6170 0.4007
N11_5 N 0.9765(5) 0.6050(5) 0.3779(6)
H22_5 H 0.9835 0.5875 0.4049
C41_6 C 0.0390(4) 0.4210(4) 0.3337(5)
H15_6 H 0.0159 0.4410 0.3227
H16_6 H 0.0648 0.4378 0.3440
H17_6 H 0.0466 0.4015 0.3052
C42_6 C 0.0623(6) 0.3651(6) 0.3917(7)
H18_6 H 0.0544 0.3466 0.4210
H19_6 H 0.0695 0.3467 0.3620
H20_6 H 0.0876 0.3830 0.4007
N11_6 N 0.0235(5) 0.3950(5) 0.3779(6)
H22_6 H 0.0165 0.4125 0.4049
H21_6 H 0.9997 0.3790 0.3691
C41_7 C 0.0790(4) 0.5390(4) 0.8337(5)
H15_7 H 0.0590 0.5159 0.8227
H16_7 H 0.0622 0.5648 0.8440
H17_7 H 0.0985 0.5466 0.8052
C42_7 C 0.1349(6) 0.5623(6) 0.8917(7)
H18_7 H 0.1534 0.5544 0.9210
H19_7 H 0.1533 0.5695 0.8620
H20_7 H 0.1170 0.5876 0.9007
N11_7 N 0.1050(5) 0.5235(5) 0.8779(6)
H21_7 H 0.1210 0.4997 0.8691
H22_7 H 0.0875 0.5165 0.9049
C41_8 C 0.9210(4) 0.4610(4) 0.8337(5)
H15_8 H 0.9410 0.4841 0.8227
H16_8 H 0.9378 0.4352 0.8440
H17_8 H 0.9015 0.4534 0.8052
C42_8 C 0.8651(6) 0.4377(6) 0.8917(7)
H18_8 H 0.8466 0.4456 0.9210
H19_8 H 0.8467 0.4305 0.8620
H20_8 H 0.8830 0.4124 0.9007
N11_8 N 0.8950(5) 0.4765(5) 0.8779(6)
H21_8 H 0.8790 0.5003 0.8691
H22_8 H 0.9125 0.4835 0.9049
C41_9 C 0.4610(4) 0.9210(4) 0.8337(5)
H15_9 H 0.4841 0.9410 0.8227
H16_9 H 0.4352 0.9378 0.8440
H17_9 H 0.4534 0.9015 0.8052
C42_9 C 0.4377(6) 0.8651(6) 0.8917(7)
H18_9 H 0.4456 0.8466 0.9210
H19_9 H 0.4305 0.8467 0.8620
H20_9 H 0.4124 0.8830 0.9007
N11_9 N 0.4765(5) 0.8950(5) 0.8779(6)
H21_9 H 0.5003 0.8790 0.8691
H22_9 H 0.4835 0.9125 0.9049
C41_10 C 0.5390(4) 0.0790(4) 0.8337(5)
H15_10 H 0.5159 0.0590 0.8227
H16_10 H 0.5648 0.0622 0.8440
H17_10 H 0.5466 0.0985 0.8052
C42_10 C 0.5623(6) 0.1349(6) 0.8917(7)
H18_10 H 0.5544 0.1534 0.9210
H19_10 H 0.5695 0.1533 0.8620
H20_10 H 0.5876 0.1170 0.9007
N11_10 N 0.5235(5) 0.1050(5) 0.8779(6)
H21_10 H 0.4997 0.1210 0.8691
H22_10 H 0.5165 0.0875 0.9049
H21_11 H 0.6210 0.0003 0.3691
C41_11 C 0.5790(4) 0.9610(4) 0.3337(5)
H15_11 H 0.5590 0.9841 0.3227
H16_11 H 0.5622 0.9352 0.3440
H17_11 H 0.5985 0.9534 0.3052
C42_11 C 0.6349(6) 0.9377(6) 0.3917(7)
H18_11 H 0.6534 0.9456 0.4210
H19_11 H 0.6533 0.9305 0.3620
H20_11 H 0.6170 0.9124 0.4007
N11_11 N 0.6050(5) 0.9765(5) 0.3779(6)
H22_11 H 0.5875 0.9835 0.4049
C41_12 C 0.4210(4) 0.0390(4) 0.3337(5)
H15_12 H 0.4410 0.0159 0.3227
H16_12 H 0.4378 0.0648 0.3440
H17_12 H 0.4015 0.0466 0.3052
C42_12 C 0.3651(6) 0.0623(6) 0.3917(7)
H18_12 H 0.3466 0.0544 0.4210
H19_12 H 0.3467 0.0695 0.3620
H20_12 H 0.3830 0.0876 0.4007
N11_12 N 0.3950(5) 0.0235(5) 0.3779(6)
H22_12 H 0.4125 0.0165 0.4049
H21_12 H 0.3790 0.9997 0.3691
C41_13 C 0.0390(4) 0.4210(4) 0.6663(5)
H15_13 H 0.0159 0.4410 0.6773
H16_13 H 0.0648 0.4378 0.6560
H17_13 H 0.0466 0.4015 0.6948
C42_13 C 0.0623(6) 0.3651(6) 0.6083(7)
H18_13 H 0.0544 0.3466 0.5790
H19_13 H 0.0695 0.3467 0.6380
H20_13 H 0.0876 0.3830 0.5993
N11_13 N 0.0235(5) 0.3950(5) 0.6221(6)
H22_13 H 0.0165 0.4125 0.5951
H21_13 H 0.9997 0.3790 0.6309
H21_14 H 0.0003 0.6210 0.6309
C41_14 C 0.9610(4) 0.5790(4) 0.6663(5)
H15_14 H 0.9841 0.5590 0.6773
H16_14 H 0.9352 0.5622 0.6560
H17_14 H 0.9534 0.5985 0.6948
C42_14 C 0.9377(6) 0.6349(6) 0.6083(7)
H18_14 H 0.9456 0.6534 0.5790
H19_14 H 0.9305 0.6533 0.6380
H20_14 H 0.9124 0.6170 0.5993
N11_14 N 0.9765(5) 0.6050(5) 0.6221(6)
H22_14 H 0.9835 0.5875 0.5951
C41_15 C 0.9210(4) 0.4610(4) 0.1663(5)
H15_15 H 0.9410 0.4841 0.1773
H16_15 H 0.9378 0.4352 0.1560
H17_15 H 0.9015 0.4534 0.1948
C42_15 C 0.8651(6) 0.4377(6) 0.1083(7)
H18_15 H 0.8466 0.4456 0.0790
H19_15 H 0.8467 0.4305 0.1380
H20_15 H 0.8830 0.4124 0.0993
N11_15 N 0.8950(5) 0.4765(5) 0.1221(6)
H21_15 H 0.8790 0.5003 0.1309
H22_15 H 0.9125 0.4835 0.0951
C41_16 C 0.0790(4) 0.5390(4) 0.1663(5)
H15_16 H 0.0590 0.5159 0.1773
H16_16 H 0.0622 0.5648 0.1560
H17_16 H 0.0985 0.5466 0.1948
C42_16 C 0.1349(6) 0.5623(6) 0.1083(7)
H18_16 H 0.1534 0.5544 0.0790
H19_16 H 0.1533 0.5695 0.1380
H20_16 H 0.1170 0.5876 0.0993
N11_16 N 0.1050(5) 0.5235(5) 0.1221(6)
H21_16 H 0.1210 0.4997 0.1309
H22_16 H 0.0875 0.5165 0.0951
loop_
_geom_bond_atom_site_label_1
_geom_bond_atom_site_label_2
_geom_bond_site_symmetry_1
_geom_bond_site_symmetry_2
Zn1 N3 1_555 1_555
Zn2 N1 1_555 1_555
Zn3 N2 1_555 1_555
N1 N2 1_555 1_555
N2 C20 1_555 1_555
N3 C16 1_555 1_555
N4 C17 1_555 1_555
S1 C2 1_555 1_555
S2 C5 1_555 1_555
S3 C8 1_555 1_555
S4 C11 1_555 1_555
S5 C14 1_555 1_555
O1 Zn1 1_555 1_555
O2 Zn2 1_555 1_555
O3 Zn1 1_555 1_555
O4 Zn2 1_555 1_555
O5 Zn2 1_555 1_555
O6 Zn3 1_555 1_555
O7 Zn2 1_555 1_555
O8 Zn3 1_555 1_555
O9 Zn1 1_555 1_555
O10 C13 1_555 1_555
O11 C18 1_555 1_555
C1 O1 1_555 1_555
C2 C1 1_555 1_555
C3 C2 1_555 1_555
H1 C3 1_555 1_555
C4 O3 1_555 1_555
C5 C4 1_555 1_555
C6 C5 1_555 1_555
H2 C6 1_555 1_555
C7 O5 1_555 1_555
C8 C7 1_555 1_555
C9 C8 1_555 1_555
H3 C9 1_555 1_555
C10 O7 1_555 1_555
C11 C10 1_555 1_555
C12 C11 1_555 1_555
H4 C12 1_555 1_555
C13 O9 1_555 1_555
C14 C13 1_555 1_555
C15 C14 1_555 1_555
H5 C15 1_555 1_555
C16 N1 1_555 1_555
C17 N3 1_555 1_555
H6 C17 1_555 1_555
C18 N4 1_555 1_555
C19 C16 1_555 1_555
C20 C19 1_555 1_555
H7 C20 1_555 1_555
O12 C21 1_555 1_555
O13 C21 1_555 1_555
C21 C22 1_555 1_555
C22 S1 1_555 1_555
C23 C3 1_555 1_555
H8 C23 1_555 1_555
O16 C27 1_555 1_555
O17 C27 1_555 1_555
C27 C28 1_555 1_555
C28 S3 1_555 1_555
C29 C9 1_555 1_555
H10 C29 1_555 1_555
O20 C33 1_555 1_555
O21 C33 1_555 1_555
C33 C34 1_555 1_555
C34 S5 1_555 1_555
C35 C15 1_555 1_555
H12 C35 1_555 1_555
Zn7 O20 1_555 1_555
Zn8 O12 1_555 1_555
Zn9 O13 1_555 1_555
Zn11 N4 1_555 1_555
Zn12 O17 1_555 1_555
N10 Zn3 1_555 1_555
O2 C1 1_555 1_555
O4 C4 1_555 1_555
O6 C7 1_555 1_555
O8 C10 1_555 1_555
C18 C19 1_555 1_555
C22 C23 1_555 1_555
O16 Zn9 1_555 1_555
C28 C29 1_555 1_555
C34 C35 1_555 1_555
O14 C24 1_555 1_555
O15 C24 1_555 1_555
C24 C25 1_555 1_555
C25 S2_2 1_555 1_555
H9 C26 1_555 1_555
O18 C30 1_555 1_555
O19 C30 1_555 1_555
C30 C31 1_555 1_555
C31 S4_2 1_555 1_555
H11 C32 1_555 1_555
Zn4 O14 1_555 1_555
Zn5 O15 1_555 1_555
Zn6 O19 1_555 1_555
N5 Zn5 1_555 1_555
N6 Zn6 1_555 1_555
N7 Zn4 1_555 1_555
N8 C37 1_555 1_555
O22 C38 1_555 1_555
C36 N5 1_555 1_555
C37 N7 1_555 1_555
H13 C37 1_555 1_555
C38 N8 1_555 1_555
C39 C36 1_555 1_555
C40 N6 1_555 1_555
H14 C40 1_555 1_555
Zn10 N8 1_555 1_555
N9 Zn6 1_555 1_555
O23 Zn4 1_555 1_555
O24 Zn5 1_555 1_555
O25 Zn5 1_555 1_555
O26 Zn6 1_555 1_555
O27 Zn4 1_555 1_555
C25 C26 1_555 1_555
O18 Zn5 1_555 1_555
C31 C32 1_555 1_555
N5 N6 1_555 1_555
N7 C36 1_555 1_555
C38 C39 1_555 1_555
C39 C40 1_555 1_555
Zn1_2 N3_2 1_555 1_555
Zn2_2 N1_2 1_555 1_555
Zn3_2 N2_2 1_555 1_555
N1_2 N2_2 1_555 1_555
N2_2 C20_2 1_555 1_555
N3_2 C16_2 1_555 1_555
N4_2 C17_2 1_555 1_555
S1_2 C2_2 1_555 1_555
S2_3 C5_2 1_555 1_555
S3_2 C8_2 1_555 1_555
S4_3 C11_2 1_555 1_555
S5_2 C14_2 1_555 1_555
O1_2 Zn1_2 1_555 1_555
O2_2 Zn2_2 1_555 1_555
O3_2 Zn1_2 1_555 1_555
O4_2 Zn2_2 1_555 1_555
O5_2 Zn2_2 1_555 1_555
O6_2 Zn3_2 1_555 1_555
O7_2 Zn2_2 1_555 1_555
O8_2 Zn3_2 1_555 1_555
O9_2 Zn1_2 1_555 1_555
O10_2 C13_2 1_555 1_555
O11_2 C18_2 1_555 1_555
C1_2 O1_2 1_555 1_555
C2_2 C1_2 1_555 1_555
C3_2 C2_2 1_555 1_555
H1_2 C3_2 1_555 1_555
C4_2 O3_2 1_555 1_555
C5_2 C4_2 1_555 1_555
C6_2 C5_2 1_555 1_555
H2_2 C6_2 1_555 1_555
C7_2 O5_2 1_555 1_555
C8_2 C7_2 1_555 1_555
C9_2 C8_2 1_555 1_555
H3_2 C9_2 1_555 1_555
C10_2 O7_2 1_555 1_555
C11_2 C10_2 1_555 1_555
C12_2 C11_2 1_555 1_555
H4_2 C12_2 1_555 1_555
C13_2 O9_2 1_555 1_555
C14_2 C13_2 1_555 1_555
C15_2 C14_2 1_555 1_555
H5_2 C15_2 1_555 1_555
C16_2 N1_2 1_555 1_555
C17_2 N3_2 1_555 1_555
H6_2 C17_2 1_555 1_555
C18_2 N4_2 1_555 1_555
C19_2 C16_2 1_555 1_555
C20_2 C19_2 1_555 1_555
H7_2 C20_2 1_555 1_555
O12_2 C21_2 1_555 1_555
O13_2 C21_2 1_555 1_555
C21_2 C22_2 1_555 1_555
C22_2 S1_2 1_555 1_555
C23_2 C3_2 1_555 1_555
H8_2 C23_2 1_555 1_555
O16_2 C27_2 1_555 1_555
O17_2 C27_2 1_555 1_555
C27_2 C28_2 1_555 1_555
C28_2 S3_2 1_555 1_555
C29_2 C9_2 1_555 1_555
H10_2 C29_2 1_555 1_555
O20_2 C33_2 1_555 1_555
O21_2 C33_2 1_555 1_555
C33_2 C34_2 1_555 1_555
C34_2 S5_2 1_555 1_555
C35_2 C15_2 1_555 1_555
H12_2 C35_2 1_555 1_555
Zn8 O20_2 1_555 1_555
Zn7 O12_2 1_555 1_555
Zn9_2 O13_2 1_555 1_555
Zn11_2 N4_2 1_555 1_555
Zn12_2 O17_2 1_555 1_555
N10_2 Zn3_2 1_555 1_555
O2_2 C1_2 1_555 1_555
O4_2 C4_2 1_555 1_555
O6_2 C7_2 1_555 1_555
O8_2 C10_2 1_555 1_555
C18_2 C19_2 1_555 1_555
C22_2 C23_2 1_555 1_555
O16_2 Zn9_2 1_555 1_555
C28_2 C29_2 1_555 1_555
C34_2 C35_2 1_555 1_555
O14_2 C24_2 1_555 1_555
O15_2 C24_2 1_555 1_555
C24_2 C25_2 1_555 1_555
C25_2 S2_4 1_555 1_555
H9_2 C26_2 1_555 1_555
O18_2 C30_2 1_555 1_555
O19_2 C30_2 1_555 1_555
C30_2 C31_2 1_555 1_555
C31_2 S4_4 1_555 1_555
H11_2 C32_2 1_555 1_555
Zn4_2 O14_2 1_555 1_555
Zn5_2 O15_2 1_555 1_555
Zn6_2 O19_2 1_555 1_555
N5_2 Zn5_2 1_555 1_555
N6_2 Zn6_2 1_555 1_555
N7_2 Zn4_2 1_555 1_555
N8_2 C37_2 1_555 1_555
O22_2 C38_2 1_555 1_555
C36_2 N5_2 1_555 1_555
C37_2 N7_2 1_555 1_555
H13_2 C37_2 1_555 1_555
C38_2 N8_2 1_555 1_555
C39_2 C36_2 1_555 1_555
C40_2 N6_2 1_555 1_555
H14_2 C40_2 1_555 1_555
Zn10_2 N8_2 1_555 1_555
N9_2 Zn6_2 1_555 1_555
O23_2 Zn4_2 1_555 1_555
O24_2 Zn5_2 1_555 1_555
O25_2 Zn5_2 1_555 1_555
O26_2 Zn6_2 1_555 1_555
O27_2 Zn4_2 1_555 1_555
C25_2 C26_2 1_555 1_555
O18_2 Zn5_2 1_555 1_555
C31_2 C32_2 1_555 1_555
N5_2 N6_2 1_555 1_555
N7_2 C36_2 1_555 1_555
C38_2 C39_2 1_555 1_555
C39_2 C40_2 1_555 1_555
Zn1_3 N3_3 1_555 1_555
N9 C17_3 1_555 1_555
S5_3 C14_3 1_555 1_555
O3_3 Zn1_3 1_555 1_555
O9_3 Zn1_3 1_555 1_555
O10_3 C13_3 1_555 1_555
O11_3 C18_3 1_555 1_555
C6_3 C5_3 1_555 1_555
H2_3 C6_3 1_555 1_555
C13_3 O9_3 1_555 1_555
C14_3 C13_3 1_555 1_555
C15_3 C14_3 1_555 1_555
H5_3 C15_3 1_555 1_555
C17_3 N3_3 1_555 1_555
H6_3 C17_3 1_555 1_555
C18_3 N9 1_555 1_555
C26_3 C6_3 1_555 1_555
H9_3 C26_3 1_555 1_555
O20_3 C33_3 1_555 1_555
O21_3 C33_3 1_555 1_555
C33_3 C34_3 1_555 1_555
C34_3 S5_3 1_555 1_555
C35_3 C15_3 1_555 1_555
H12_3 C35_3 1_555 1_555
Zn4_3 O14_3 1_555 1_555
N7_3 Zn4_3 1_555 1_555
N10 C37_3 1_555 1_555
O22_3 C38_3 1_555 1_555
C37_3 N7_3 1_555 1_555
H13_3 C37_3 1_555 1_555
C38_3 N10 1_555 1_555
Zn7_2 O20_3 1_555 1_555
O27_3 Zn4_3 1_555 1_555
C25_3 C26_3 1_555 1_555
C34_3 C35_3 1_555 1_555
Zn2_3 N1_3 1_555 1_555
Zn10_2 N2_3 1_555 1_555
N1_3 N2_3 1_555 1_555
N2_3 C20_3 1_555 1_555
S1_3 C2_3 1_555 1_555
S3_3 C8_3 1_555 1_555
S4_5 C11_3 1_555 1_555
O2_3 Zn2_3 1_555 1_555
O4_3 Zn2_3 1_555 1_555
O5_3 Zn2_3 1_555 1_555
O6_3 Zn10_2 1_555 1_555
O7_3 Zn2_3 1_555 1_555
O8_3 Zn10_2 1_555 1_555
C1_3 O1_3 1_555 1_555
C2_3 C1_3 1_555 1_555
C3_3 C2_3 1_555 1_555
H1_3 C3_3 1_555 1_555
C7_3 O5_3 1_555 1_555
C8_3 C7_3 1_555 1_555
C9_3 C8_3 1_555 1_555
H3_3 C9_3 1_555 1_555
C10_3 O7_3 1_555 1_555
C11_3 C10_3 1_555 1_555
C12_3 C11_3 1_555 1_555
H4_3 C12_3 1_555 1_555
C16_3 N1_3 1_555 1_555
C19_3 C16_3 1_555 1_555
C20_3 C19_3 1_555 1_555
H7_3 C20_3 1_555 1_555
O12_3 C21_3 1_555 1_555
O13_3 C21_3 1_555 1_555
C21_3 C22_3 1_555 1_555
C22_3 S1_3 1_555 1_555
C23_3 C3_3 1_555 1_555
H8_3 C23_3 1_555 1_555
O15_3 C24_3 1_555 1_555
O16_3 C27_3 1_555 1_555
O17_3 C27_3 1_555 1_555
C27_3 C28_3 1_555 1_555
C28_3 S3_3 1_555 1_555
C29_3 C9_3 1_555 1_555
H10_3 C29_3 1_555 1_555
O18_3 C30_3 1_555 1_555
O19_3 C30_3 1_555 1_555
C30_3 C31_3 1_555 1_555
C31_3 S4_5 1_555 1_555
C32_3 C12_3 1_555 1_555
H11_3 C32_3 1_555 1_555
Zn5_3 O15_3 1_555 1_555
Zn11_2 O19_3 1_555 1_555
N5_3 Zn5_3 1_555 1_555
N6_3 Zn11_2 1_555 1_555
C36_3 N5_3 1_555 1_555
C39_3 C36_3 1_555 1_555
C40_3 N6_3 1_555 1_555
H14_3 C40_3 1_555 1_555
Zn9_3 O13_3 1_555 1_555
Zn12_3 O17_3 1_555 1_555
O24_3 Zn5_3 1_555 1_555
O25_3 Zn5_3 1_555 1_555
O26_3 Zn11_2 1_555 1_555
O2_3 C1_3 1_555 1_555
O4_3 C4_3 1_555 1_555
O6_3 C7_3 1_555 1_555
O8_3 C10_3 1_555 1_555
C22_3 C23_3 1_555 1_555
O16_3 Zn9_3 1_555 1_555
C28_3 C29_3 1_555 1_555
O18_3 Zn5_3 1_555 1_555
C31_3 C32_3 1_555 1_555
N5_3 N6_3 1_555 1_555
C39_3 C40_3 1_555 1_555
Zn2_4 N1_4 1_555 1_555
Zn10 N2_4 1_555 1_555
N1_4 N2_4 1_555 1_555
N2_4 C20_4 1_555 1_555
S1_4 C2_4 1_555 1_555
S3_4 C8_4 1_555 1_555
S4_6 C11_4 1_555 1_555
O2_4 Zn2_4 1_555 1_555
O4_4 Zn2_4 1_555 1_555
O5_4 Zn2_4 1_555 1_555
O6_4 Zn10 1_555 1_555
O7_4 Zn2_4 1_555 1_555
O8_4 Zn10 1_555 1_555
C1_4 O1_4 1_555 1_555
C2_4 C1_4 1_555 1_555
C3_4 C2_4 1_555 1_555
H1_4 C3_4 1_555 1_555
C7_4 O5_4 1_555 1_555
C8_4 C7_4 1_555 1_555
C9_4 C8_4 1_555 1_555
H3_4 C9_4 1_555 1_555
C10_4 O7_4 1_555 1_555
C11_4 C10_4 1_555 1_555
C12_4 C11_4 1_555 1_555
H4_4 C12_4 1_555 1_555
C16_4 N1_4 1_555 1_555
C19_4 C16_4 1_555 1_555
C20_4 C19_4 1_555 1_555
H7_4 C20_4 1_555 1_555
O12_4 C21_4 1_555 1_555
O13_4 C21_4 1_555 1_555
C21_4 C22_4 1_555 1_555
C22_4 S1_4 1_555 1_555
C23_4 C3_4 1_555 1_555
H8_4 C23_4 1_555 1_555
O15_4 C24_4 1_555 1_555
O16_4 C27_4 1_555 1_555
O17_4 C27_4 1_555 1_555
C27_4 C28_4 1_555 1_555
C28_4 S3_4 1_555 1_555
C29_4 C9_4 1_555 1_555
H10_4 C29_4 1_555 1_555
O18_4 C30_4 1_555 1_555
O19_4 C30_4 1_555 1_555
C30_4 C31_4 1_555 1_555
C31_4 S4_6 1_555 1_555
C32_4 C12_4 1_555 1_555
H11_4 C32_4 1_555 1_555
Zn5_4 O15_4 1_555 1_555
Zn11 O19_4 1_555 1_555
N5_4 Zn5_4 1_555 1_555
N6_4 Zn11 1_555 1_555
C36_4 N5_4 1_555 1_555
C39_4 C36_4 1_555 1_555
C40_4 N6_4 1_555 1_555
H14_4 C40_4 1_555 1_555
Zn9_4 O13_4 1_555 1_555
Zn12_4 O17_4 1_555 1_555
O24_4 Zn5_4 1_555 1_555
O25_4 Zn5_4 1_555 1_555
O26_4 Zn11 1_555 1_555
O2_4 C1_4 1_555 1_555
O4_4 C4_4 1_555 1_555
O6_4 C7_4 1_555 1_555
O8_4 C10_4 1_555 1_555
C22_4 C23_4 1_555 1_555
O16_4 Zn9_4 1_555 1_555
C28_4 C29_4 1_555 1_555
O18_4 Zn5_4 1_555 1_555
C31_4 C32_4 1_555 1_555
N5_4 N6_4 1_555 1_555
C39_4 C40_4 1_555 1_555
Zn1_4 N3_4 1_555 1_555
N9_2 C17_4 1_555 1_555
S5_4 C14_4 1_555 1_555
O3_4 Zn1_4 1_555 1_555
O9_4 Zn1_4 1_555 1_555
O10_4 C13_4 1_555 1_555
O11_4 C18_4 1_555 1_555
C6_4 C5_4 1_555 1_555
H2_4 C6_4 1_555 1_555
C13_4 O9_4 1_555 1_555
C14_4 C13_4 1_555 1_555
C15_4 C14_4 1_555 1_555
H5_4 C15_4 1_555 1_555
C17_4 N3_4 1_555 1_555
H6_4 C17_4 1_555 1_555
C18_4 N9_2 1_555 1_555
C26_4 C6_4 1_555 1_555
H9_4 C26_4 1_555 1_555
O20_4 C33_4 1_555 1_555
O21_4 C33_4 1_555 1_555
C33_4 C34_4 1_555 1_555
C34_4 S5_4 1_555 1_555
C35_4 C15_4 1_555 1_555
H12_4 C35_4 1_555 1_555
Zn4_4 O14_4 1_555 1_555
N7_4 Zn4_4 1_555 1_555
N10_2 C37_4 1_555 1_555
O22_4 C38_4 1_555 1_555
C37_4 N7_4 1_555 1_555
H13_4 C37_4 1_555 1_555
C38_4 N10_2 1_555 1_555
Zn8_2 O20_4 1_555 1_555
O27_4 Zn4_4 1_555 1_555
C25_4 C26_4 1_555 1_555
C34_4 C35_4 1_555 1_555
Zn2_5 N1_5 1_555 1_555
Zn3_3 N2_5 1_555 1_555
N1_5 N2_5 1_555 1_555
N2_5 C20_5 1_555 1_555
S1_5 C2_5 1_555 1_555
S3_5 C8_5 1_555 1_555
S4_7 C11_5 1_555 1_555
O2_5 Zn2_5 1_555 1_555
O4_5 Zn2_5 1_555 1_555
O5_5 Zn2_5 1_555 1_555
O6_5 Zn3_3 1_555 1_555
O7_5 Zn2_5 1_555 1_555
O8_5 Zn3_3 1_555 1_555
C1_5 O1_5 1_555 1_555
C2_5 C1_5 1_555 1_555
C3_5 C2_5 1_555 1_555
H1_5 C3_5 1_555 1_555
C7_5 O5_5 1_555 1_555
C8_5 C7_5 1_555 1_555
C9_5 C8_5 1_555 1_555
H3_5 C9_5 1_555 1_555
C10_5 O7_5 1_555 1_555
C11_5 C10_5 1_555 1_555
C12_5 C11_5 1_555 1_555
H4_5 C12_5 1_555 1_555
C16_5 N1_5 1_555 1_555
C19_5 C16_5 1_555 1_555
C20_5 C19_5 1_555 1_555
H7_5 C20_5 1_555 1_555
O23_3 C21_5 1_555 1_555
O24_3 C21_5 1_555 1_555
C21_5 C22_5 1_555 1_555
C22_5 S1_5 1_555 1_555
C23_5 C3_5 1_555 1_555
H8_5 C23_5 1_555 1_555
O15_5 C24_5 1_555 1_555
O25_3 C27_5 1_555 1_555
O26_3 C27_5 1_555 1_555
C27_5 C28_5 1_555 1_555
C28_5 S3_5 1_555 1_555
C29_5 C9_5 1_555 1_555
H10_5 C29_5 1_555 1_555
O18_5 C30_5 1_555 1_555
O19_5 C30_5 1_555 1_555
C30_5 C31_5 1_555 1_555
C31_5 S4_7 1_555 1_555
C32_5 C12_5 1_555 1_555
H11_5 C32_5 1_555 1_555
Zn9_3 O15_5 1_555 1_555
Zn12_3 O19_5 1_555 1_555
N5_5 Zn9_3 1_555 1_555
N6_5 Zn12_3 1_555 1_555
C36_5 N5_5 1_555 1_555
C39_5 C36_5 1_555 1_555
C40_5 N6_5 1_555 1_555
H14_5 C40_5 1_555 1_555
N9_3 Zn12_3 1_555 1_555
N10_3 Zn3_3 1_555 1_555
O2_5 C1_5 1_555 1_555
O4_5 C4_5 1_555 1_555
O6_5 C7_5 1_555 1_555
O8_5 C10_5 1_555 1_555
C22_5 C23_5 1_555 1_555
C28_5 C29_5 1_555 1_555
O18_5 Zn9_3 1_555 1_555
C31_5 C32_5 1_555 1_555
N5_5 N6_5 1_555 1_555
C39_5 C40_5 1_555 1_555
Zn1_5 N3_5 1_555 1_555
N4_3 C17_5 1_555 1_555
S5_5 C14_5 1_555 1_555
O3_5 Zn1_5 1_555 1_555
O9_5 Zn1_5 1_555 1_555
O10_5 C13_5 1_555 1_555
O11_5 C18_5 1_555 1_555
C6_5 C5_5 1_555 1_555
H2_5 C6_5 1_555 1_555
C13_5 O9_5 1_555 1_555
C14_5 C13_5 1_555 1_555
C15_5 C14_5 1_555 1_555
H5_5 C15_5 1_555 1_555
C17_5 N3_5 1_555 1_555
H6_5 C17_5 1_555 1_555
C18_5 N4_3 1_555 1_555
C26_5 C6_5 1_555 1_555
H9_5 C26_5 1_555 1_555
O27_4 C33_5 1_555 1_555
O21_5 C33_5 1_555 1_555
C33_5 C34_5 1_555 1_555
C34_5 S5_5 1_555 1_555
C35_5 C15_5 1_555 1_555
H12_5 C35_5 1_555 1_555
Zn8_2 O14_5 1_555 1_555
N7_5 Zn8_2 1_555 1_555
N8_3 C37_5 1_555 1_555
O22_5 C38_5 1_555 1_555
C37_5 N7_5 1_555 1_555
H13_5 C37_5 1_555 1_555
C38_5 N8_3 1_555 1_555
Zn10_3 N8_3 1_555 1_555
Zn12_2 N4_3 1_555 1_555
C25_5 C26_5 1_555 1_555
C34_5 C35_5 1_555 1_555
Zn1_6 N3_6 1_555 1_555
N4_4 C17_6 1_555 1_555
S5_6 C14_6 1_555 1_555
O3_6 Zn1_6 1_555 1_555
O9_6 Zn1_6 1_555 1_555
O10_6 C13_6 1_555 1_555
O11_6 C18_6 1_555 1_555
C6_6 C5_6 1_555 1_555
H2_6 C6_6 1_555 1_555
C13_6 O9_6 1_555 1_555
C14_6 C13_6 1_555 1_555
C15_6 C14_6 1_555 1_555
H5_6 C15_6 1_555 1_555
C17_6 N3_6 1_555 1_555
H6_6 C17_6 1_555 1_555
C18_6 N4_4 1_555 1_555
C26_6 C6_6 1_555 1_555
H9_6 C26_6 1_555 1_555
O27_3 C33_6 1_555 1_555
O21_6 C33_6 1_555 1_555
C33_6 C34_6 1_555 1_555
C34_6 S5_6 1_555 1_555
C35_6 C15_6 1_555 1_555
H12_6 C35_6 1_555 1_555
Zn7_2 O14_6 1_555 1_555
N7_6 Zn7_2 1_555 1_555
N8_4 C37_6 1_555 1_555
O22_6 C38_6 1_555 1_555
C37_6 N7_6 1_555 1_555
H13_6 C37_6 1_555 1_555
C38_6 N8_4 1_555 1_555
Zn10_4 N8_4 1_555 1_555
Zn12 N4_4 1_555 1_555
C25_6 C26_6 1_555 1_555
C34_6 C35_6 1_555 1_555
Zn2_6 N1_6 1_555 1_555
Zn3_4 N2_6 1_555 1_555
N1_6 N2_6 1_555 1_555
N2_6 C20_6 1_555 1_555
S1_6 C2_6 1_555 1_555
S3_6 C8_6 1_555 1_555
S4_8 C11_6 1_555 1_555
O2_6 Zn2_6 1_555 1_555
O4_6 Zn2_6 1_555 1_555
O5_6 Zn2_6 1_555 1_555
O6_6 Zn3_4 1_555 1_555
O7_6 Zn2_6 1_555 1_555
O8_6 Zn3_4 1_555 1_555
C1_6 O1_6 1_555 1_555
C2_6 C1_6 1_555 1_555
C3_6 C2_6 1_555 1_555
H1_6 C3_6 1_555 1_555
C7_6 O5_6 1_555 1_555
C8_6 C7_6 1_555 1_555
C9_6 C8_6 1_555 1_555
H3_6 C9_6 1_555 1_555
C10_6 O7_6 1_555 1_555
C11_6 C10_6 1_555 1_555
C12_6 C11_6 1_555 1_555
H4_6 C12_6 1_555 1_555
C16_6 N1_6 1_555 1_555
C19_6 C16_6 1_555 1_555
C20_6 C19_6 1_555 1_555
H7_6 C20_6 1_555 1_555
O23_4 C21_6 1_555 1_555
O24_4 C21_6 1_555 1_555
C21_6 C22_6 1_555 1_555
C22_6 S1_6 1_555 1_555
C23_6 C3_6 1_555 1_555
H8_6 C23_6 1_555 1_555
O15_6 C24_6 1_555 1_555
O25_4 C27_6 1_555 1_555
O26_4 C27_6 1_555 1_555
C27_6 C28_6 1_555 1_555
C28_6 S3_6 1_555 1_555
C29_6 C9_6 1_555 1_555
H10_6 C29_6 1_555 1_555
O18_6 C30_6 1_555 1_555
O19_6 C30_6 1_555 1_555
C30_6 C31_6 1_555 1_555
C31_6 S4_8 1_555 1_555
C32_6 C12_6 1_555 1_555
H11_6 C32_6 1_555 1_555
Zn9_4 O15_6 1_555 1_555
Zn12_4 O19_6 1_555 1_555
N5_6 Zn9_4 1_555 1_555
N6_6 Zn12_4 1_555 1_555
C36_6 N5_6 1_555 1_555
C39_6 C36_6 1_555 1_555
C40_6 N6_6 1_555 1_555
H14_6 C40_6 1_555 1_555
N9_4 Zn12_4 1_555 1_555
N10_4 Zn3_4 1_555 1_555
O2_6 C1_6 1_555 1_555
O4_6 C4_6 1_555 1_555
O6_6 C7_6 1_555 1_555
O8_6 C10_6 1_555 1_555
C22_6 C23_6 1_555 1_555
C28_6 C29_6 1_555 1_555
O18_6 Zn9_4 1_555 1_555
C31_6 C32_6 1_555 1_555
N5_6 N6_6 1_555 1_555
C39_6 C40_6 1_555 1_555
O14_7 C24_7 1_555 1_555
O15_7 C24_7 1_555 1_555
C24_7 C25_7 1_555 1_555
C25_7 S2_9 1_555 1_555
H9_7 C26_7 1_555 1_555
O18_7 C30_7 1_555 1_555
O19_7 C30_7 1_555 1_555
C30_7 C31_7 1_555 1_555
C31_7 S4_9 1_555 1_555
H11_7 C32_7 1_555 1_555
Zn8 O14_7 1_555 1_555
Zn9 O15_7 1_555 1_555
Zn12 O19_7 1_555 1_555
N5_7 Zn9 1_555 1_555
N6_7 Zn12 1_555 1_555
N7_7 Zn8 1_555 1_555
N10_3 C37_7 1_555 1_555
O22_7 C38_7 1_555 1_555
C36_7 N5_7 1_555 1_555
C37_7 N7_7 1_555 1_555
H13_7 C37_7 1_555 1_555
C38_7 N10_3 1_555 1_555
C39_7 C36_7 1_555 1_555
C40_7 N6_7 1_555 1_555
H14_7 C40_7 1_555 1_555
C25_7 C26_7 1_555 1_555
O18_7 Zn9 1_555 1_555
C31_7 C32_7 1_555 1_555
N5_7 N6_7 1_555 1_555
N7_7 C36_7 1_555 1_555
C38_7 C39_7 1_555 1_555
C39_7 C40_7 1_555 1_555
Zn1_7 N3_7 1_555 1_555
Zn2_7 N1_7 1_555 1_555
Zn10_4 N2_7 1_555 1_555
N1_7 N2_7 1_555 1_555
N2_7 C20_7 1_555 1_555
N3_7 C16_7 1_555 1_555
N9_3 C17_7 1_555 1_555
S1_7 C2_7 1_555 1_555
S2_10 C5_7 1_555 1_555
S3_7 C8_7 1_555 1_555
S4_10 C11_7 1_555 1_555
S5_7 C14_7 1_555 1_555
O1_7 Zn1_7 1_555 1_555
O2_7 Zn2_7 1_555 1_555
O3_7 Zn1_7 1_555 1_555
O4_7 Zn2_7 1_555 1_555
O5_7 Zn2_7 1_555 1_555
O6_7 Zn10_4 1_555 1_555
O7_7 Zn2_7 1_555 1_555
O8_7 Zn10_4 1_555 1_555
O9_7 Zn1_7 1_555 1_555
O10_7 C13_7 1_555 1_555
O11_7 C18_7 1_555 1_555
C1_7 O1_7 1_555 1_555
C2_7 C1_7 1_555 1_555
C3_7 C2_7 1_555 1_555
H1_7 C3_7 1_555 1_555
C4_7 O3_7 1_555 1_555
C5_7 C4_7 1_555 1_555
C6_7 C5_7 1_555 1_555
H2_7 C6_7 1_555 1_555
C7_7 O5_7 1_555 1_555
C8_7 C7_7 1_555 1_555
C9_7 C8_7 1_555 1_555
H3_7 C9_7 1_555 1_555
C10_7 O7_7 1_555 1_555
C11_7 C10_7 1_555 1_555
C12_7 C11_7 1_555 1_555
H4_7 C12_7 1_555 1_555
C13_7 O9_7 1_555 1_555
C14_7 C13_7 1_555 1_555
C15_7 C14_7 1_555 1_555
H5_7 C15_7 1_555 1_555
C16_7 N1_7 1_555 1_555
C17_7 N3_7 1_555 1_555
H6_7 C17_7 1_555 1_555
C18_7 N9_3 1_555 1_555
C19_7 C16_7 1_555 1_555
C20_7 C19_7 1_555 1_555
H7_7 C20_7 1_555 1_555
O23 C21_7 1_555 1_555
O24 C21_7 1_555 1_555
C21_7 C22_7 1_555 1_555
C22_7 S1_7 1_555 1_555
C23_7 C3_7 1_555 1_555
H8_7 C23_7 1_555 1_555
O25 C27_7 1_555 1_555
O26 C27_7 1_555 1_555
C27_7 C28_7 1_555 1_555
C28_7 S3_7 1_555 1_555
C29_7 C9_7 1_555 1_555
H10_7 C29_7 1_555 1_555
O27_2 C33_7 1_555 1_555
O21_7 C33_7 1_555 1_555
C33_7 C34_7 1_555 1_555
C34_7 S5_7 1_555 1_555
C35_7 C15_7 1_555 1_555
H12_7 C35_7 1_555 1_555
O2_7 C1_7 1_555 1_555
O4_7 C4_7 1_555 1_555
O6_7 C7_7 1_555 1_555
O8_7 C10_7 1_555 1_555
C18_7 C19_7 1_555 1_555
C22_7 C23_7 1_555 1_555
C28_7 C29_7 1_555 1_555
C34_7 C35_7 1_555 1_555
O14_8 C24_8 1_555 1_555
O15_8 C24_8 1_555 1_555
C24_8 C25_8 1_555 1_555
C25_8 S2_11 1_555 1_555
H9_8 C26_8 1_555 1_555
O18_8 C30_8 1_555 1_555
O19_8 C30_8 1_555 1_555
C30_8 C31_8 1_555 1_555
C31_8 S4_11 1_555 1_555
H11_8 C32_8 1_555 1_555
Zn7 O14_8 1_555 1_555
Zn9_2 O15_8 1_555 1_555
Zn12_2 O19_8 1_555 1_555
N5_8 Zn9_2 1_555 1_555
N6_8 Zn12_2 1_555 1_555
N7_8 Zn7 1_555 1_555
N10_4 C37_8 1_555 1_555
O22_8 C38_8 1_555 1_555
C36_8 N5_8 1_555 1_555
C37_8 N7_8 1_555 1_555
H13_8 C37_8 1_555 1_555
C38_8 N10_4 1_555 1_555
C39_8 C36_8 1_555 1_555
C40_8 N6_8 1_555 1_555
H14_8 C40_8 1_555 1_555
C25_8 C26_8 1_555 1_555
O18_8 Zn9_2 1_555 1_555
C31_8 C32_8 1_555 1_555
N5_8 N6_8 1_555 1_555
N7_8 C36_8 1_555 1_555
C38_8 C39_8 1_555 1_555
C39_8 C40_8 1_555 1_555
Zn1_8 N3_8 1_555 1_555
Zn2_8 N1_8 1_555 1_555
Zn10_3 N2_8 1_555 1_555
N1_8 N2_8 1_555 1_555
N2_8 C20_8 1_555 1_555
N3_8 C16_8 1_555 1_555
N9_4 C17_8 1_555 1_555
S1_8 C2_8 1_555 1_555
S2_12 C5_8 1_555 1_555
S3_8 C8_8 1_555 1_555
S4_12 C11_8 1_555 1_555
S5_8 C14_8 1_555 1_555
O1_8 Zn1_8 1_555 1_555
O2_8 Zn2_8 1_555 1_555
O3_8 Zn1_8 1_555 1_555
O4_8 Zn2_8 1_555 1_555
O5_8 Zn2_8 1_555 1_555
O6_8 Zn10_3 1_555 1_555
O7_8 Zn2_8 1_555 1_555
O8_8 Zn10_3 1_555 1_555
O9_8 Zn1_8 1_555 1_555
O10_8 C13_8 1_555 1_555
O11_8 C18_8 1_555 1_555
C1_8 O1_8 1_555 1_555
C2_8 C1_8 1_555 1_555
C3_8 C2_8 1_555 1_555
H1_8 C3_8 1_555 1_555
C4_8 O3_8 1_555 1_555
C5_8 C4_8 1_555 1_555
C6_8 C5_8 1_555 1_555
H2_8 C6_8 1_555 1_555
C7_8 O5_8 1_555 1_555
C8_8 C7_8 1_555 1_555
C9_8 C8_8 1_555 1_555
H3_8 C9_8 1_555 1_555
C10_8 O7_8 1_555 1_555
C11_8 C10_8 1_555 1_555
C12_8 C11_8 1_555 1_555
H4_8 C12_8 1_555 1_555
C13_8 O9_8 1_555 1_555
C14_8 C13_8 1_555 1_555
C15_8 C14_8 1_555 1_555
H5_8 C15_8 1_555 1_555
C16_8 N1_8 1_555 1_555
C17_8 N3_8 1_555 1_555
H6_8 C17_8 1_555 1_555
C18_8 N9_4 1_555 1_555
C19_8 C16_8 1_555 1_555
C20_8 C19_8 1_555 1_555
H7_8 C20_8 1_555 1_555
O23_2 C21_8 1_555 1_555
O24_2 C21_8 1_555 1_555
C21_8 C22_8 1_555 1_555
C22_8 S1_8 1_555 1_555
C23_8 C3_8 1_555 1_555
H8_8 C23_8 1_555 1_555
O25_2 C27_8 1_555 1_555
O26_2 C27_8 1_555 1_555
C27_8 C28_8 1_555 1_555
C28_8 S3_8 1_555 1_555
C29_8 C9_8 1_555 1_555
H10_8 C29_8 1_555 1_555
O27 C33_8 1_555 1_555
O21_8 C33_8 1_555 1_555
C33_8 C34_8 1_555 1_555
C34_8 S5_8 1_555 1_555
C35_8 C15_8 1_555 1_555
H12_8 C35_8 1_555 1_555
O2_8 C1_8 1_555 1_555
O4_8 C4_8 1_555 1_555
O6_8 C7_8 1_555 1_555
O8_8 C10_8 1_555 1_555
C18_8 C19_8 1_555 1_555
C22_8 C23_8 1_555 1_555
C28_8 C29_8 1_555 1_555
C34_8 C35_8 1_555 1_555
C41 H15 1_555 1_555
H16 C41 1_555 1_555
H17 C41 1_555 1_555
C42 H18 1_555 1_555
H19 C42 1_555 1_555
H20 C42 1_555 1_555
N11 C41 1_555 1_555
H21 N11 1_555 1_555
H22 N11 1_555 1_555
C42 N11 1_555 1_555
C41_2 H15_2 1_555 1_555
H16_2 C41_2 1_555 1_555
H17_2 C41_2 1_555 1_555
C42_2 H18_2 1_555 1_555
H19_2 C42_2 1_555 1_555
H20_2 C42_2 1_555 1_555
N11_2 C41_2 1_555 1_555
H21_2 N11_2 1_555 1_555
H22_2 N11_2 1_555 1_555
C42_2 N11_2 1_555 1_555
C41_3 H15_3 1_555 1_555
H16_3 C41_3 1_555 1_555
H17_3 C41_3 1_555 1_555
C42_3 H18_3 1_555 1_555
H19_3 C42_3 1_555 1_555
H20_3 C42_3 1_555 1_555
N11_3 C41_3 1_555 1_555
H22_3 N11_3 1_555 1_555
C42_3 N11_3 1_555 1_555
C41_4 H15_4 1_555 1_555
H16_4 C41_4 1_555 1_555
H17_4 C41_4 1_555 1_555
C42_4 H18_4 1_555 1_555
H19_4 C42_4 1_555 1_555
H20_4 C42_4 1_555 1_555
N11_4 C41_4 1_555 1_555
H22_4 N11_4 1_555 1_555
C42_4 N11_4 1_555 1_555
C41_5 H15_5 1_555 1_555
H16_5 C41_5 1_555 1_555
H17_5 C41_5 1_555 1_555
C42_5 H18_5 1_555 1_555
H19_5 C42_5 1_555 1_555
H20_5 C42_5 1_555 1_555
N11_5 C41_5 1_555 1_555
H22_5 N11_5 1_555 1_555
C42_5 N11_5 1_555 1_555
C41_6 H15_6 1_555 1_555
H16_6 C41_6 1_555 1_555
H17_6 C41_6 1_555 1_555
C42_6 H18_6 1_555 1_555
H19_6 C42_6 1_555 1_555
H20_6 C42_6 1_555 1_555
N11_6 C41_6 1_555 1_555
H22_6 N11_6 1_555 1_555
C42_6 N11_6 1_555 1_555
C41_7 H15_7 1_555 1_555
H16_7 C41_7 1_555 1_555
H17_7 C41_7 1_555 1_555
C42_7 H18_7 1_555 1_555
H19_7 C42_7 1_555 1_555
H20_7 C42_7 1_555 1_555
N11_7 C41_7 1_555 1_555
H21_7 N11_7 1_555 1_555
H22_7 N11_7 1_555 1_555
C42_7 N11_7 1_555 1_555
C41_8 H15_8 1_555 1_555
H16_8 C41_8 1_555 1_555
H17_8 C41_8 1_555 1_555
C42_8 H18_8 1_555 1_555
H19_8 C42_8 1_555 1_555
H20_8 C42_8 1_555 1_555
N11_8 C41_8 1_555 1_555
H21_8 N11_8 1_555 1_555
H22_8 N11_8 1_555 1_555
C42_8 N11_8 1_555 1_555
C41_9 H15_9 1_555 1_555
H16_9 C41_9 1_555 1_555
H17_9 C41_9 1_555 1_555
C42_9 H18_9 1_555 1_555
H19_9 C42_9 1_555 1_555
H20_9 C42_9 1_555 1_555
N11_9 C41_9 1_555 1_555
H21_9 N11_9 1_555 1_555
H22_9 N11_9 1_555 1_555
C42_9 N11_9 1_555 1_555
C41_10 H15_10 1_555 1_555
H16_10 C41_10 1_555 1_555
H17_10 C41_10 1_555 1_555
C42_10 H18_10 1_555 1_555
H19_10 C42_10 1_555 1_555
H20_10 C42_10 1_555 1_555
N11_10 C41_10 1_555 1_555
H21_10 N11_10 1_555 1_555
H22_10 N11_10 1_555 1_555
C42_10 N11_10 1_555 1_555
C41_11 H15_11 1_555 1_555
H16_11 C41_11 1_555 1_555
H17_11 C41_11 1_555 1_555
C42_11 H18_11 1_555 1_555
H19_11 C42_11 1_555 1_555
H20_11 C42_11 1_555 1_555
N11_11 C41_11 1_555 1_555
H22_11 N11_11 1_555 1_555
C42_11 N11_11 1_555 1_555
C41_12 H15_12 1_555 1_555
H16_12 C41_12 1_555 1_555
H17_12 C41_12 1_555 1_555
C42_12 H18_12 1_555 1_555
H19_12 C42_12 1_555 1_555
H20_12 C42_12 1_555 1_555
N11_12 C41_12 1_555 1_555
H22_12 N11_12 1_555 1_555
C42_12 N11_12 1_555 1_555
C41_13 H15_13 1_555 1_555
H16_13 C41_13 1_555 1_555
H17_13 C41_13 1_555 1_555
C42_13 H18_13 1_555 1_555
H19_13 C42_13 1_555 1_555
H20_13 C42_13 1_555 1_555
N11_13 C41_13 1_555 1_555
H22_13 N11_13 1_555 1_555
C42_13 N11_13 1_555 1_555
C41_14 H15_14 1_555 1_555
H16_14 C41_14 1_555 1_555
H17_14 C41_14 1_555 1_555
C42_14 H18_14 1_555 1_555
H19_14 C42_14 1_555 1_555
H20_14 C42_14 1_555 1_555
N11_14 C41_14 1_555 1_555
H22_14 N11_14 1_555 1_555
C42_14 N11_14 1_555 1_555
C41_15 H15_15 1_555 1_555
H16_15 C41_15 1_555 1_555
H17_15 C41_15 1_555 1_555
C42_15 H18_15 1_555 1_555
H19_15 C42_15 1_555 1_555
H20_15 C42_15 1_555 1_555
N11_15 C41_15 1_555 1_555
H21_15 N11_15 1_555 1_555
H22_15 N11_15 1_555 1_555
C42_15 N11_15 1_555 1_555
C41_16 H15_16 1_555 1_555
H16_16 C41_16 1_555 1_555
H17_16 C41_16 1_555 1_555
C42_16 H18_16 1_555 1_555
H19_16 C42_16 1_555 1_555
H20_16 C42_16 1_555 1_555
N11_16 C41_16 1_555 1_555
H21_16 N11_16 1_555 1_555
H22_16 N11_16 1_555 1_555
C42_16 N11_16 1_555 1_555

#END
