
###############################################################################
#
# This file contains modified crystal structure data generated from the
# MOF subset of the Cambridge Structural Database (CSD) v543 
# hosted by the Cambridge Crystallographic Data Centre (CCDC).
#
# This work is licensed under the Creative Commons
# Attribution-NonCommercial-ShareAlike 4.0 International License.
# To view a copy of this license, visit
# http://creativecommons.org/licenses/by-nc-sa/4.0/
# or send a letter to
# Creative Commons, PO Box 1866, Mountain View, CA 94042, USA.
#
# CIF created using the CSD Python API on 29 September 2022
# The structure has been converted into the P1 space group
# The structure has a 3D framework
# The original CSD entry GAHROZ is in the rhombohedral crystal system
# The framework has been calculated to contain at least 10.0% void space
# The void calculation uses a probe of radius 1.32A, grid spacing 0.4
# The framework is charged, counterions have been retained in the structure
#
###############################################################################

data_GAHROZ
_chemical_formula_moiety         '(C144 H144 Ag8 Cl18 N72 O72 10-)n'
_symmetry_cell_setting           triclinic
_symmetry_space_group_name_H-M   'P 1'
_symmetry_Int_Tables_number      1
_space_group_name_Hall           'P 1'
loop_
_symmetry_equiv_pos_site_id
_symmetry_equiv_pos_as_xyz
1 x,y,z
_cell_length_a                   22.456(7)
_cell_length_b                   22.456(7)
_cell_length_c                   14.570(12)
_cell_angle_alpha                90
_cell_angle_beta                 90
_cell_angle_gamma                120
_cell_volume                     6362.9
loop_
_atom_site_label
_atom_site_type_symbol
_atom_site_fract_x
_atom_site_fract_y
_atom_site_fract_z
Ag1 Ag 0.103240(17) 0.372977(18) 0.06184(2)
N5 N 0.23088(15) 0.40772(18) 0.0922(2)
N6 N 0.09762(17) 0.43688(23) 0.16778(19)
Ag1_2 Ag 0.627023(18) 0.730263(25) 0.06184(2)
N5_2 N 0.59228(18) 0.82317(23) 0.0922(2)
N6_2 N 0.56312(23) 0.66075(29) 0.16778(19)
Ag1_3 Ag 0.269737(25) 0.896760(17) 0.06184(2)
N5_3 N 0.17683(23) 0.76912(15) 0.0922(2)
N6_3 N 0.33925(29) 0.90238(17) 0.16778(19)
N1 N 0.71325(15) 0.54359(16) 0.95343(19)
N2 N 0.76912(15) 0.59228(18) 0.9078(2)
N3 N 0.67259(15) 0.56904(17) 0.83444(19)
C1 C 0.74275(19) 0.6063(2) 0.8365(3)
H1 H 0.7697 0.6391 0.7909
C2 C 0.65691(18) 0.5307(2) 0.9091(2)
H2 H 0.6115 0.4985 0.9282
Ag2 Ag 0.603070(25) 0.563427(17) 0.72851(2)
Ag3 Ag 0.896760(17) 0.627023(18) 0.93816(2)
N1_2 N 0.45641(16) 0.16965(22) 0.95343(19)
N2_2 N 0.40772(18) 0.17683(23) 0.9078(2)
N3_2 N 0.43096(17) 0.10354(23) 0.83444(19)
C1_2 C 0.3937(2) 0.13641(28) 0.8365(3)
H1_2 H 0.3609 0.1305 0.7909
C2_2 C 0.4693(2) 0.12617(27) 0.9091(2)
H2_2 H 0.5015 0.1129 0.9282
Ag2_2 Ag 0.436573(17) 0.039644(30) 0.72851(2)
Ag3_2 Ag 0.372977(18) 0.269737(25) 0.93816(2)
N1_3 N 0.83035(22) 0.28675(15) 0.95343(19)
N2_3 N 0.82317(23) 0.23088(15) 0.9078(2)
N3_3 N 0.89646(23) 0.32741(15) 0.83444(19)
C1_3 C 0.86359(28) 0.25725(19) 0.8365(3)
H1_3 H 0.8695 0.2303 0.7909
C2_3 C 0.87383(27) 0.34309(18) 0.9091(2)
H2_3 H 0.8871 0.3885 0.9282
Ag2_3 Ag 0.960356(30) 0.396930(25) 0.72851(2)
Ag3_3 Ag 0.730263(25) 0.103240(17) 0.93816(2)
H6 H 0.3755 0.0160 0.5333
N5_4 N 0.56422(15) 0.07438(18) 0.7588(2)
N1_4 N 0.37991(15) 0.87693(16) 0.28677(19)
N2_4 N 0.43578(15) 0.92562(18) 0.2412(2)
N4 N 0.41576(17) 0.97385(17) 0.6099(2)
C1_4 C 0.40941(19) 0.9397(2) 0.1699(3)
H1_4 H 0.4363 0.9725 0.1243
C2_4 C 0.32357(18) 0.8641(2) 0.2425(2)
H2_4 H 0.2781 0.8319 0.2616
C3 C 0.3876(2) 0.8489(2) 0.3737(2)
H3 H 0.4276 0.8417 0.3691
H4 H 0.3462 0.8035 0.3842
C4 C 0.39776(17) 0.89438(18) 0.4546(2)
C5 C 0.3804(3) 0.9446(2) 0.4554(3)
H5 H 0.3622 0.9536 0.4017
C6 C 0.3892(3) 0.9823(2) 0.5340(3)
C7 C 0.4343(3) 0.9262(3) 0.6091(3)
H7 H 0.4538 0.9192 0.6631
C8 C 0.4265(3) 0.8865(3) 0.5329(3)
H8 H 0.4411 0.8535 0.5348
Ag3_4 Ag 0.563427(17) 0.960356(18) 0.27149(2)
N1_5 N 0.12307(16) 0.50299(22) 0.28677(19)
N2_5 N 0.07438(18) 0.51017(23) 0.2412(2)
N4_2 N 0.02615(17) 0.44192(24) 0.6099(2)
C1_5 C 0.0603(2) 0.46975(28) 0.1699(3)
H1_5 H 0.0275 0.4639 0.1243
C2_5 C 0.1359(2) 0.45951(27) 0.2425(2)
H2_5 H 0.1681 0.4463 0.2616
C3_2 C 0.1511(2) 0.5388(3) 0.3737(2)
H3_2 H 0.1583 0.5860 0.3691
H4_2 H 0.1965 0.5428 0.3842
C4_2 C 0.10562(18) 0.50339(25) 0.4546(2)
C5_2 C 0.0554(2) 0.4359(4) 0.4554(3)
H5_2 H 0.0464 0.4087 0.4017
C6_2 C 0.0177(2) 0.4070(4) 0.5340(3)
C7_2 C 0.0738(3) 0.5082(4) 0.6091(3)
H7_2 H 0.0808 0.5347 0.6631
C8_2 C 0.1135(3) 0.5401(4) 0.5329(3)
H8_2 H 0.1465 0.5877 0.5348
Ag3_5 Ag 0.039644(18) 0.603070(25) 0.27149(2)
H6_2 H 0.9840 0.3596 0.5333
N5_5 N 0.92562(18) 0.48983(23) 0.7588(2)
N1_6 N 0.49701(22) 0.62009(15) 0.28677(19)
N2_6 N 0.48983(23) 0.56422(15) 0.2412(2)
N4_3 N 0.55808(24) 0.58424(17) 0.6099(2)
C1_6 C 0.53025(28) 0.59059(19) 0.1699(3)
H1_6 H 0.5361 0.5637 0.1243
C2_6 C 0.54049(27) 0.67643(18) 0.2425(2)
H2_6 H 0.5537 0.7219 0.2616
C3_3 C 0.4612(3) 0.6124(2) 0.3737(2)
H3_3 H 0.4140 0.5724 0.3691
H4_3 H 0.4572 0.6538 0.3842
C4_3 C 0.49661(25) 0.60224(17) 0.4546(2)
C5_3 C 0.5641(4) 0.6196(3) 0.4554(3)
H5_3 H 0.5913 0.6378 0.4017
C6_3 C 0.5930(4) 0.6108(3) 0.5340(3)
H6_3 H 0.6404 0.6245 0.5333
C7_3 C 0.4918(4) 0.5657(3) 0.6091(3)
H7_3 H 0.4653 0.5462 0.6631
C8_3 C 0.4599(4) 0.5735(3) 0.5329(3)
H8_3 H 0.4123 0.5589 0.5348
Ag3_6 Ag 0.396930(25) 0.436573(17) 0.27149(2)
N5_6 N 0.51017(23) 0.43578(15) 0.7588(2)
N6_4 N 0.90238(17) 0.56312(23) 0.83222(19)
N6_5 N 0.43688(23) 0.33925(29) 0.83222(19)
N6_6 N 0.66075(29) 0.09762(17) 0.83222(19)
N1_7 N 0.28675(15) 0.45641(16) 0.04657(19)
N3_4 N 0.32741(15) 0.43096(17) 0.16556(19)
C1_7 C 0.25725(19) 0.3937(2) 0.1635(3)
H1_7 H 0.2303 0.3609 0.2091
C2_7 C 0.34309(18) 0.4693(2) 0.0909(2)
H2_7 H 0.3885 0.5015 0.0718
N1_8 N 0.54359(16) 0.83035(22) 0.04657(19)
N3_5 N 0.56904(17) 0.89646(23) 0.16556(19)
C1_8 C 0.6063(2) 0.86359(28) 0.1635(3)
H1_8 H 0.6391 0.8695 0.2091
C2_8 C 0.5307(2) 0.87383(27) 0.0909(2)
H2_8 H 0.4985 0.8871 0.0718
N1_9 N 0.16965(22) 0.71325(15) 0.04657(19)
N3_6 N 0.10354(23) 0.67259(15) 0.16556(19)
C1_9 C 0.13641(28) 0.74275(19) 0.1635(3)
H1_9 H 0.1305 0.7697 0.2091
C2_9 C 0.12617(27) 0.65691(18) 0.0909(2)
H2_9 H 0.1129 0.6115 0.0718
N1_10 N 0.62009(15) 0.12307(16) 0.71323(19)
N4_4 N 0.58424(17) 0.02615(17) 0.3901(2)
C1_10 C 0.59059(19) 0.0603(2) 0.8301(3)
H1_10 H 0.5637 0.0275 0.8757
C2_10 C 0.67643(18) 0.1359(2) 0.7575(2)
H2_10 H 0.7219 0.1681 0.7384
C3_4 C 0.6124(2) 0.1511(2) 0.6263(2)
H3_4 H 0.5724 0.1583 0.6309
H4_4 H 0.6538 0.1965 0.6158
C4_4 C 0.60224(17) 0.10562(18) 0.5454(2)
C5_4 C 0.6196(3) 0.0554(2) 0.5446(3)
H5_4 H 0.6378 0.0464 0.5983
C6_4 C 0.6108(3) 0.0177(2) 0.4660(3)
C7_4 C 0.5657(3) 0.0738(3) 0.3909(3)
H7_4 H 0.5462 0.0808 0.3369
C8_4 C 0.5735(3) 0.1135(3) 0.4671(3)
H8_4 H 0.5589 0.1465 0.4652
H6_4 H 0.6245 0.9840 0.4667
H6_5 H 0.0160 0.6404 0.4667
N1_11 N 0.87693(16) 0.49701(22) 0.71323(19)
N4_5 N 0.97385(17) 0.55808(24) 0.3901(2)
C1_11 C 0.9397(2) 0.53025(28) 0.8301(3)
H1_11 H 0.9725 0.5361 0.8757
C2_11 C 0.8641(2) 0.54049(27) 0.7575(2)
H2_11 H 0.8319 0.5537 0.7384
C3_5 C 0.8489(2) 0.4612(3) 0.6263(2)
H3_5 H 0.8417 0.4140 0.6309
H4_5 H 0.8035 0.4572 0.6158
C4_5 C 0.89438(18) 0.49661(25) 0.5454(2)
C5_5 C 0.9446(2) 0.5641(4) 0.5446(3)
H5_5 H 0.9536 0.5913 0.5983
C6_5 C 0.9823(2) 0.5930(4) 0.4660(3)
C7_5 C 0.9262(3) 0.4918(4) 0.3909(3)
H7_5 H 0.9192 0.4653 0.3369
C8_5 C 0.8865(3) 0.4599(4) 0.4671(3)
H8_5 H 0.8535 0.4123 0.4652
N1_12 N 0.50299(22) 0.37991(15) 0.71323(19)
N4_6 N 0.44192(24) 0.41576(17) 0.3901(2)
C1_12 C 0.46975(28) 0.40941(19) 0.8301(3)
H1_12 H 0.4639 0.4363 0.8757
C2_12 C 0.45951(27) 0.32357(18) 0.7575(2)
H2_12 H 0.4463 0.2781 0.7384
C3_6 C 0.5388(3) 0.3876(2) 0.6263(2)
H3_6 H 0.5860 0.4276 0.6309
H4_6 H 0.5428 0.3462 0.6158
C4_6 C 0.50339(25) 0.39776(17) 0.5454(2)
C5_6 C 0.4359(4) 0.3804(3) 0.5446(3)
H5_6 H 0.4087 0.3622 0.5983
C6_6 C 0.4070(4) 0.3892(3) 0.4660(3)
H6_6 H 0.3596 0.3755 0.4667
C7_6 C 0.5082(4) 0.4343(3) 0.3909(3)
H7_6 H 0.5347 0.4538 0.3369
C8_6 C 0.5401(4) 0.4265(3) 0.4671(3)
H8_6 H 0.5877 0.4411 0.4652
N1_13 N 0.04658(15) 0.21026(16) 0.62010(19)
N2_7 N 0.10245(15) 0.25895(18) 0.5745(2)
N3_7 N 0.00592(15) 0.23571(17) 0.50111(19)
N4_7 N 0.08243(17) 0.30718(17) 0.9432(2)
C1_13 C 0.07608(19) 0.2730(2) 0.5032(3)
H1_13 H 0.1030 0.3058 0.4576
C3_7 C 0.0543(2) 0.1822(2) 0.7070(2)
H3_7 H 0.0943 0.1750 0.7024
H4_7 H 0.0129 0.1368 0.7175
C4_7 C 0.06443(17) 0.22771(18) 0.7879(2)
C5_7 C 0.0471(3) 0.2779(2) 0.7887(3)
H5_7 H 0.0289 0.2869 0.7350
C6_7 C 0.0559(3) 0.3156(2) 0.8673(3)
H6_7 H 0.0422 0.3493 0.8666
C7_7 C 0.1010(3) 0.2595(3) 0.9424(3)
H7_7 H 0.1205 0.2525 0.9964
C8_7 C 0.0932(3) 0.2198(3) 0.8662(3)
H8_7 H 0.1078 0.1868 0.8681
Ag3_7 Ag 0.230093(17) 0.293690(18) 0.60483(2)
C2_13 C 0.20716(27) 0.00976(18) 0.5758(2)
H2_13 H 0.2204 0.0552 0.5949
Ag2_4 Ag 0.293690(30) 0.063596(25) 0.39517(2)
N4_8 N 0.35949(17) 0.10858(24) 0.2765(2)
C3_8 C 0.4845(2) 0.2054(3) 0.0403(2)
H3_8 H 0.4917 0.2526 0.0357
H4_8 H 0.5299 0.2094 0.0508
C4_8 C 0.43896(18) 0.17005(25) 0.1212(2)
C5_8 C 0.3888(2) 0.1025(4) 0.1220(3)
H5_8 H 0.3798 0.0753 0.0683
C6_8 C 0.3511(2) 0.0736(4) 0.2006(3)
H6_8 H 0.3174 0.0262 0.1999
C7_8 C 0.4072(3) 0.1748(4) 0.2757(3)
H7_8 H 0.4142 0.2013 0.3297
C8_8 C 0.4469(3) 0.2067(4) 0.1995(3)
H8_8 H 0.4799 0.2543 0.2014
N5_7 N 0.25895(18) 0.15650(23) 0.4255(2)
N1_14 N 0.21026(16) 0.16368(22) 0.37990(19)
N3_8 N 0.23571(17) 0.22979(23) 0.49889(19)
N4_9 N 0.30718(17) 0.22475(24) 0.0568(2)
C1_14 C 0.2730(2) 0.19692(28) 0.4968(3)
H1_14 H 0.3058 0.2028 0.5424
C2_14 C 0.1974(2) 0.20716(27) 0.4242(2)
H2_14 H 0.1652 0.2204 0.4051
C3_9 C 0.1822(2) 0.1279(3) 0.2930(2)
H3_9 H 0.1750 0.0807 0.2976
H4_9 H 0.1368 0.1239 0.2825
C4_9 C 0.22771(18) 0.16328(25) 0.2121(2)
C5_9 C 0.2779(2) 0.2308(4) 0.2113(3)
H5_9 H 0.2869 0.2580 0.2650
C6_9 C 0.3156(2) 0.2597(4) 0.1327(3)
H6_9 H 0.3493 0.3071 0.1334
C7_9 C 0.2595(3) 0.1585(4) 0.0576(3)
H7_9 H 0.2525 0.1320 0.0036
C8_9 C 0.2198(3) 0.1266(4) 0.1338(3)
H8_9 H 0.1868 0.0790 0.1319
N4_10 N 0.25090(17) 0.35949(17) 0.7235(2)
C3_10 C 0.2790(2) 0.4845(2) 0.9597(2)
H3_10 H 0.2390 0.4917 0.9643
H4_10 H 0.3204 0.5299 0.9492
C4_10 C 0.26890(17) 0.43896(18) 0.8788(2)
C5_10 C 0.2862(3) 0.3888(2) 0.8780(3)
H5_10 H 0.3044 0.3798 0.9317
C6_10 C 0.2774(3) 0.3511(2) 0.7994(3)
H6_10 H 0.2911 0.3174 0.8001
C7_10 C 0.2323(3) 0.4072(3) 0.7243(3)
H7_10 H 0.2128 0.4142 0.6703
C8_10 C 0.2401(3) 0.4469(3) 0.8005(3)
H8_10 H 0.2255 0.4799 0.7986
C2_15 C 0.99024(18) 0.1974(2) 0.5758(2)
H2_15 H 0.9448 0.1652 0.5949
Ag2_5 Ag 0.936404(25) 0.230093(17) 0.39517(2)
N4_11 N 0.89142(24) 0.25090(17) 0.2765(2)
C3_11 C 0.7946(3) 0.2790(2) 0.0403(2)
H3_11 H 0.7474 0.2390 0.0357
H4_11 H 0.7906 0.3204 0.0508
C4_11 C 0.82995(25) 0.26890(17) 0.1212(2)
C5_11 C 0.8975(4) 0.2862(3) 0.1220(3)
H5_11 H 0.9247 0.3044 0.0683
C6_11 C 0.9264(4) 0.2774(3) 0.2006(3)
H6_11 H 0.9738 0.2911 0.1999
C7_11 C 0.8252(4) 0.2323(3) 0.2757(3)
H7_11 H 0.7987 0.2128 0.3297
C8_11 C 0.7933(4) 0.2401(3) 0.1995(3)
H8_11 H 0.7457 0.2255 0.2014
N5_8 N 0.84350(23) 0.10245(15) 0.4255(2)
N1_15 N 0.83632(22) 0.04658(15) 0.37990(19)
N3_9 N 0.77021(23) 0.00592(15) 0.49889(19)
N4_12 N 0.77525(24) 0.08243(17) 0.0568(2)
C1_15 C 0.80308(28) 0.07608(19) 0.4968(3)
H1_15 H 0.7972 0.1030 0.5424
C3_12 C 0.8721(3) 0.0543(2) 0.2930(2)
H3_12 H 0.9193 0.0943 0.2976
H4_12 H 0.8761 0.0129 0.2825
C4_12 C 0.83672(25) 0.06443(17) 0.2121(2)
C5_12 C 0.7692(4) 0.0471(3) 0.2113(3)
H5_12 H 0.7420 0.0289 0.2650
C6_12 C 0.7403(4) 0.0559(3) 0.1327(3)
H6_12 H 0.6929 0.0422 0.1334
C7_12 C 0.8415(4) 0.1010(3) 0.0576(3)
H7_12 H 0.8680 0.1205 0.0036
C8_12 C 0.8734(4) 0.0932(3) 0.1338(3)
H8_12 H 0.9210 0.1078 0.1319
N1_16 N 0.78974(16) 0.83632(22) 0.62010(19)
N2_8 N 0.74105(18) 0.84350(23) 0.5745(2)
N3_10 N 0.76429(17) 0.77021(23) 0.50111(19)
N4_13 N 0.69282(17) 0.77525(24) 0.9432(2)
C1_16 C 0.7270(2) 0.80308(28) 0.5032(3)
H1_16 H 0.6942 0.7972 0.4576
C2_16 C 0.8026(2) 0.79284(27) 0.5758(2)
H2_16 H 0.8348 0.7796 0.5949
C3_13 C 0.8178(2) 0.8721(3) 0.7070(2)
H3_13 H 0.8250 0.9193 0.7024
H4_13 H 0.8632 0.8761 0.7175
C4_13 C 0.77229(18) 0.83672(25) 0.7879(2)
C5_13 C 0.7221(2) 0.7692(4) 0.7887(3)
H5_13 H 0.7131 0.7420 0.7350
C6_13 C 0.6844(2) 0.7403(4) 0.8673(3)
H6_13 H 0.6507 0.6929 0.8666
C7_13 C 0.7405(3) 0.8415(4) 0.9424(3)
H7_13 H 0.7475 0.8680 0.9964
C8_13 C 0.7802(3) 0.8734(4) 0.8662(3)
H8_13 H 0.8132 0.9210 0.8681
Ag2_6 Ag 0.769907(17) 0.706310(30) 0.39517(2)
Ag3_8 Ag 0.706310(18) 0.936404(25) 0.60483(2)
N4_14 N 0.74910(17) 0.64051(17) 0.2765(2)
C3_14 C 0.7210(2) 0.5155(2) 0.0403(2)
H3_14 H 0.7610 0.5083 0.0357
H4_14 H 0.6796 0.4701 0.0508
C4_14 C 0.73110(17) 0.56104(18) 0.1212(2)
C5_14 C 0.7138(3) 0.6112(2) 0.1220(3)
H5_14 H 0.6956 0.6202 0.0683
C6_14 C 0.7226(3) 0.6489(2) 0.2006(3)
H6_14 H 0.7089 0.6826 0.1999
C7_14 C 0.7677(3) 0.5928(3) 0.2757(3)
H7_14 H 0.7872 0.5858 0.3297
C8_14 C 0.7599(3) 0.5531(3) 0.1995(3)
H8_14 H 0.7745 0.5201 0.2014
N5_9 N 0.89755(15) 0.74105(18) 0.4255(2)
N1_17 N 0.95342(15) 0.78974(16) 0.37990(19)
N3_11 N 0.99408(15) 0.76429(17) 0.49889(19)
N4_15 N 0.91757(17) 0.69282(17) 0.0568(2)
C1_17 C 0.92392(19) 0.7270(2) 0.4968(3)
H1_17 H 0.8970 0.6942 0.5424
C3_15 C 0.9457(2) 0.8178(2) 0.2930(2)
H3_15 H 0.9057 0.8250 0.2976
H4_15 H 0.9871 0.8632 0.2825
C4_15 C 0.93557(17) 0.77229(18) 0.2121(2)
C5_15 C 0.9529(3) 0.7221(2) 0.2113(3)
H5_15 H 0.9711 0.7131 0.2650
C6_15 C 0.9441(3) 0.6844(2) 0.1327(3)
H6_15 H 0.9578 0.6507 0.1334
C7_15 C 0.8990(3) 0.7405(3) 0.0576(3)
H7_15 H 0.8795 0.7475 0.0036
C8_15 C 0.9068(3) 0.7802(3) 0.1338(3)
H8_15 H 0.8922 0.8132 0.1319
C2_17 C 0.79284(27) 0.99024(18) 0.4242(2)
H2_17 H 0.7796 0.9448 0.4051
N4_16 N 0.64051(17) 0.89142(24) 0.7235(2)
C3_16 C 0.5155(2) 0.7946(3) 0.9597(2)
H3_16 H 0.5083 0.7474 0.9643
H4_16 H 0.4701 0.7906 0.9492
C4_16 C 0.56104(18) 0.82995(25) 0.8788(2)
C5_16 C 0.6112(2) 0.8975(4) 0.8780(3)
H5_16 H 0.6202 0.9247 0.9317
C6_16 C 0.6489(2) 0.9264(4) 0.7994(3)
H6_16 H 0.6826 0.9738 0.8001
C7_16 C 0.5928(3) 0.8252(4) 0.7243(3)
H7_16 H 0.5858 0.7987 0.6703
C8_16 C 0.5531(3) 0.7933(4) 0.8005(3)
H8_16 H 0.5201 0.7457 0.7986
N1_18 N 0.16368(22) 0.95342(15) 0.62010(19)
N2_9 N 0.15650(23) 0.89755(15) 0.5745(2)
N3_12 N 0.22979(23) 0.99408(15) 0.50111(19)
N4_17 N 0.22475(24) 0.91757(17) 0.9432(2)
C1_18 C 0.19692(28) 0.92392(19) 0.5032(3)
H1_18 H 0.2028 0.8970 0.4576
C3_17 C 0.1279(3) 0.9457(2) 0.7070(2)
H3_17 H 0.0807 0.9057 0.7024
H4_17 H 0.1239 0.9871 0.7175
C4_17 C 0.16328(25) 0.93557(17) 0.7879(2)
C5_17 C 0.2308(4) 0.9529(3) 0.7887(3)
H5_17 H 0.2580 0.9711 0.7350
C6_17 C 0.2597(4) 0.9441(3) 0.8673(3)
H6_17 H 0.3071 0.9578 0.8666
C7_17 C 0.1585(4) 0.8990(3) 0.9424(3)
H7_17 H 0.1320 0.8795 0.9964
C8_17 C 0.1266(4) 0.9068(3) 0.8662(3)
H8_17 H 0.0790 0.8922 0.8681
Ag3_9 Ag 0.063596(25) 0.769907(17) 0.60483(2)
C2_18 C 0.00976(18) 0.8026(2) 0.4242(2)
H2_18 H 0.0552 0.8348 0.4051
N4_18 N 0.10858(24) 0.74910(17) 0.7235(2)
C3_18 C 0.2054(3) 0.7210(2) 0.9597(2)
H3_18 H 0.2526 0.7610 0.9643
H4_18 H 0.2094 0.6796 0.9492
C4_18 C 0.17005(25) 0.73110(17) 0.8788(2)
C5_18 C 0.1025(4) 0.7138(3) 0.8780(3)
H5_18 H 0.0753 0.6956 0.9317
C6_18 C 0.0736(4) 0.7226(3) 0.7994(3)
H6_18 H 0.0262 0.7089 0.8001
C7_18 C 0.1748(4) 0.7677(3) 0.7243(3)
H7_18 H 0.2013 0.7872 0.6703
C8_18 C 0.2067(4) 0.7599(3) 0.8005(3)
H8_18 H 0.2543 0.7745 0.7986
Cl1 Cl 0.10081(7) 0.51007(6) 0.90185(7)
O1 O 0.1491(3) 0.5234(4) 0.9669(4)
O2 O 0.0357(3) 0.4533(3) 0.9353(5)
O3 O 0.0917(3) 0.5646(3) 0.8938(6)
O4 O 0.1088(5) 0.4837(4) 0.8218(5)
Cl1_2 Cl 0.48993(6) 0.59074(9) 0.90185(7)
O1_2 O 0.4766(4) 0.6257(5) 0.9669(4)
O2_2 O 0.5467(3) 0.5824(4) 0.9353(5)
O3_2 O 0.4354(3) 0.5271(4) 0.8938(6)
O4_2 O 0.5163(4) 0.6251(6) 0.8218(5)
Cl1_3 Cl 0.40926(9) 0.89919(7) 0.90185(7)
O1_3 O 0.3743(5) 0.8509(3) 0.9669(4)
O2_3 O 0.4176(4) 0.9643(3) 0.9353(5)
O3_3 O 0.4729(4) 0.9083(3) 0.8938(6)
O4_3 O 0.3749(6) 0.8912(5) 0.8218(5)
Cl1_4 Cl 0.76748(7) 0.84340(6) 0.23518(7)
O1_4 O 0.8158(3) 0.8567(4) 0.3002(4)
O2_4 O 0.7024(3) 0.7866(3) 0.2686(5)
O3_4 O 0.7584(3) 0.8979(3) 0.2271(6)
O4_4 O 0.7755(5) 0.8170(4) 0.1551(5)
Cl1_5 Cl 0.15660(6) 0.92407(9) 0.23518(7)
O1_5 O 0.1433(4) 0.9590(5) 0.3002(4)
O2_5 O 0.2134(3) 0.9157(4) 0.2686(5)
O3_5 O 0.1021(3) 0.8604(4) 0.2271(6)
O4_5 O 0.1830(4) 0.9584(6) 0.1551(5)
Cl1_6 Cl 0.07593(9) 0.23252(7) 0.23518(7)
O1_6 O 0.0410(5) 0.1842(3) 0.3002(4)
O2_6 O 0.0843(4) 0.2976(3) 0.2686(5)
O3_6 O 0.1396(4) 0.2416(3) 0.2271(6)
O4_6 O 0.0416(6) 0.2245(5) 0.1551(5)
Cl1_7 Cl 0.43414(7) 0.17674(6) 0.56852(7)
O1_7 O 0.4824(3) 0.1901(4) 0.6336(4)
O2_7 O 0.3690(3) 0.1200(3) 0.6020(5)
O3_7 O 0.4250(3) 0.2313(3) 0.5605(6)
O4_7 O 0.4421(5) 0.1504(4) 0.4885(5)
Cl1_8 Cl 0.82326(6) 0.25741(9) 0.56852(7)
O1_8 O 0.8099(4) 0.2924(5) 0.6336(4)
O2_8 O 0.8800(3) 0.2491(4) 0.6020(5)
O3_8 O 0.7687(3) 0.1938(4) 0.5605(6)
O4_8 O 0.8496(4) 0.2918(6) 0.4885(5)
Cl1_9 Cl 0.74259(9) 0.56586(7) 0.56852(7)
O1_9 O 0.7076(5) 0.5176(3) 0.6336(4)
O2_9 O 0.7509(4) 0.6310(3) 0.6020(5)
O3_9 O 0.8062(4) 0.5750(3) 0.5605(6)
O4_9 O 0.7082(6) 0.5579(5) 0.4885(5)
Cl1_10 Cl 0.89919(7) 0.48993(6) 0.09815(7)
O1_10 O 0.8509(3) 0.4766(4) 0.0331(4)
O2_10 O 0.9643(3) 0.5467(3) 0.0647(5)
O3_10 O 0.9083(3) 0.4354(3) 0.1062(6)
O4_10 O 0.8912(5) 0.5163(4) 0.1782(5)
Cl1_11 Cl 0.51007(6) 0.40926(9) 0.09815(7)
O1_11 O 0.5234(4) 0.3743(5) 0.0331(4)
O2_11 O 0.4533(3) 0.4176(4) 0.0647(5)
O3_11 O 0.5646(3) 0.4729(4) 0.1062(6)
O4_11 O 0.4837(4) 0.3749(6) 0.1782(5)
Cl1_12 Cl 0.59074(9) 0.10081(7) 0.09815(7)
O1_12 O 0.6257(5) 0.1491(3) 0.0331(4)
O2_12 O 0.5824(4) 0.0357(3) 0.0647(5)
O3_12 O 0.5271(4) 0.0917(3) 0.1062(6)
O4_12 O 0.6251(6) 0.1088(5) 0.1782(5)
Cl1_13 Cl 0.23252(7) 0.15660(6) 0.76482(7)
O1_13 O 0.1842(3) 0.1433(4) 0.6998(4)
O2_13 O 0.2976(3) 0.2134(3) 0.7314(5)
O3_13 O 0.2416(3) 0.1021(3) 0.7729(6)
O4_13 O 0.2245(5) 0.1830(4) 0.8449(5)
Cl1_14 Cl 0.84340(6) 0.07593(9) 0.76482(7)
O1_14 O 0.8567(4) 0.0410(5) 0.6998(4)
O2_14 O 0.7866(3) 0.0843(4) 0.7314(5)
O3_14 O 0.8979(3) 0.1396(4) 0.7729(6)
O4_14 O 0.8170(4) 0.0416(6) 0.8449(5)
Cl1_15 Cl 0.92407(9) 0.76748(7) 0.76482(7)
O1_15 O 0.9590(5) 0.8158(3) 0.6998(4)
O2_15 O 0.9157(4) 0.7024(3) 0.7314(5)
O3_15 O 0.8604(4) 0.7584(3) 0.7729(6)
O4_15 O 0.9584(6) 0.7755(5) 0.8449(5)
Cl1_16 Cl 0.56586(7) 0.82326(6) 0.43148(7)
O1_16 O 0.5176(3) 0.8099(4) 0.3664(4)
O2_16 O 0.6310(3) 0.8800(3) 0.3980(5)
O3_16 O 0.5750(3) 0.7687(3) 0.4395(6)
O4_16 O 0.5579(5) 0.8496(4) 0.5115(5)
Cl1_17 Cl 0.17674(6) 0.74259(9) 0.43148(7)
O1_17 O 0.1901(4) 0.7076(5) 0.3664(4)
O2_17 O 0.1200(3) 0.7509(4) 0.3980(5)
O3_17 O 0.2313(3) 0.8062(4) 0.4395(6)
O4_17 O 0.1504(4) 0.7082(6) 0.5115(5)
Cl1_18 Cl 0.25741(9) 0.43414(7) 0.43148(7)
O1_18 O 0.2924(5) 0.4824(3) 0.3664(4)
O2_18 O 0.2491(4) 0.3690(3) 0.3980(5)
O3_18 O 0.1938(4) 0.4250(3) 0.4395(6)
O4_18 O 0.2918(6) 0.4421(5) 0.5115(5)
loop_
_geom_bond_atom_site_label_1
_geom_bond_atom_site_label_2
_geom_bond_site_symmetry_1
_geom_bond_site_symmetry_2
N5 Ag1 1_555 1_555
N6 Ag1 1_555 1_555
N5_2 Ag1_2 1_555 1_555
N6_2 Ag1_2 1_555 1_555
N5_3 Ag1_3 1_555 1_555
N6_3 Ag1_3 1_555 1_555
N1 N2 1_555 1_555
N2 C1 1_555 1_555
N3 C1 1_555 1_555
C1 H1 1_555 1_555
C2 N1 1_555 1_555
H2 C2 1_555 1_555
Ag2 N3 1_555 1_555
Ag3 N2 1_555 1_555
N3 C2 1_555 1_555
N1_2 N2_2 1_555 1_555
N2_2 C1_2 1_555 1_555
N3_2 C1_2 1_555 1_555
C1_2 H1_2 1_555 1_555
C2_2 N1_2 1_555 1_555
H2_2 C2_2 1_555 1_555
Ag2_2 N3_2 1_555 1_555
Ag3_2 N2_2 1_555 1_555
N3_2 C2_2 1_555 1_555
N1_3 N2_3 1_555 1_555
N2_3 C1_3 1_555 1_555
N3_3 C1_3 1_555 1_555
C1_3 H1_3 1_555 1_555
C2_3 N1_3 1_555 1_555
H2_3 C2_3 1_555 1_555
Ag2_3 N3_3 1_555 1_555
Ag3_3 N2_3 1_555 1_555
N3_3 C2_3 1_555 1_555
N5_4 Ag2_2 1_555 1_555
N1_4 N2_4 1_555 1_555
N2_4 C1_4 1_555 1_555
N6_3 C1_4 1_555 1_555
N4 C6 1_555 1_555
C1_4 H1_4 1_555 1_555
C2_4 N1_4 1_555 1_555
H2_4 C2_4 1_555 1_555
C3 N1_4 1_555 1_555
H3 C3 1_555 1_555
H4 C3 1_555 1_555
C4 C3 1_555 1_555
C5 C4 1_555 1_555
H5 C5 1_555 1_555
C6 C5 1_555 1_555
C7 N4 1_555 1_555
H7 C7 1_555 1_555
C8 C4 1_555 1_555
H8 C8 1_555 1_555
Ag3_4 N2_4 1_555 1_555
N6_3 C2_4 1_555 1_555
C7 C8 1_555 1_555
N1_5 N2_5 1_555 1_555
N2_5 C1_5 1_555 1_555
N6 C1_5 1_555 1_555
N4_2 C6_2 1_555 1_555
C1_5 H1_5 1_555 1_555
C2_5 N1_5 1_555 1_555
H2_5 C2_5 1_555 1_555
C3_2 N1_5 1_555 1_555
H3_2 C3_2 1_555 1_555
H4_2 C3_2 1_555 1_555
C4_2 C3_2 1_555 1_555
C5_2 C4_2 1_555 1_555
H5_2 C5_2 1_555 1_555
C6_2 C5_2 1_555 1_555
C7_2 N4_2 1_555 1_555
H7_2 C7_2 1_555 1_555
C8_2 C4_2 1_555 1_555
H8_2 C8_2 1_555 1_555
Ag3_5 N2_5 1_555 1_555
N6 C2_5 1_555 1_555
C7_2 C8_2 1_555 1_555
N5_5 Ag2_3 1_555 1_555
Ag2 N4_3 1_555 1_555
N1_6 N2_6 1_555 1_555
N2_6 C1_6 1_555 1_555
N6_2 C1_6 1_555 1_555
N4_3 C6_3 1_555 1_555
C1_6 H1_6 1_555 1_555
C2_6 N1_6 1_555 1_555
H2_6 C2_6 1_555 1_555
C3_3 N1_6 1_555 1_555
H3_3 C3_3 1_555 1_555
H4_3 C3_3 1_555 1_555
C4_3 C3_3 1_555 1_555
C5_3 C4_3 1_555 1_555
H5_3 C5_3 1_555 1_555
C6_3 C5_3 1_555 1_555
H6_3 C6_3 1_555 1_555
C7_3 N4_3 1_555 1_555
H7_3 C7_3 1_555 1_555
C8_3 C4_3 1_555 1_555
H8_3 C8_3 1_555 1_555
Ag3_6 N2_6 1_555 1_555
N5_6 Ag2 1_555 1_555
N6_2 C2_6 1_555 1_555
C7_3 C8_3 1_555 1_555
N6_4 Ag3 1_555 1_555
N6_5 Ag3_2 1_555 1_555
N6_6 Ag3_3 1_555 1_555
N1_7 N5 1_555 1_555
N5 C1_7 1_555 1_555
N3_4 C1_7 1_555 1_555
C1_7 H1_7 1_555 1_555
C2_7 N1_7 1_555 1_555
H2_7 C2_7 1_555 1_555
Ag3_6 N3_4 1_555 1_555
N3_4 C2_7 1_555 1_555
N1_8 N5_2 1_555 1_555
N5_2 C1_8 1_555 1_555
N3_5 C1_8 1_555 1_555
C1_8 H1_8 1_555 1_555
C2_8 N1_8 1_555 1_555
H2_8 C2_8 1_555 1_555
Ag3_4 N3_5 1_555 1_555
N3_5 C2_8 1_555 1_555
N1_9 N5_3 1_555 1_555
N5_3 C1_9 1_555 1_555
N3_6 C1_9 1_555 1_555
C1_9 H1_9 1_555 1_555
C2_9 N1_9 1_555 1_555
H2_9 C2_9 1_555 1_555
Ag3_5 N3_6 1_555 1_555
N3_6 C2_9 1_555 1_555
N1_10 N5_4 1_555 1_555
N5_4 C1_10 1_555 1_555
N6_6 C1_10 1_555 1_555
N4_4 C6_4 1_555 1_555
C1_10 H1_10 1_555 1_555
C2_10 N1_10 1_555 1_555
H2_10 C2_10 1_555 1_555
C3_4 N1_10 1_555 1_555
H3_4 C3_4 1_555 1_555
H4_4 C3_4 1_555 1_555
C4_4 C3_4 1_555 1_555
C5_4 C4_4 1_555 1_555
H5_4 C5_4 1_555 1_555
C6_4 C5_4 1_555 1_555
C7_4 N4_4 1_555 1_555
H7_4 C7_4 1_555 1_555
C8_4 C4_4 1_555 1_555
H8_4 C8_4 1_555 1_555
N6_6 C2_10 1_555 1_555
C7_4 C8_4 1_555 1_555
N1_11 N5_5 1_555 1_555
N5_5 C1_11 1_555 1_555
N6_4 C1_11 1_555 1_555
N4_5 C6_5 1_555 1_555
C1_11 H1_11 1_555 1_555
C2_11 N1_11 1_555 1_555
H2_11 C2_11 1_555 1_555
C3_5 N1_11 1_555 1_555
H3_5 C3_5 1_555 1_555
H4_5 C3_5 1_555 1_555
C4_5 C3_5 1_555 1_555
C5_5 C4_5 1_555 1_555
H5_5 C5_5 1_555 1_555
C6_5 C5_5 1_555 1_555
C7_5 N4_5 1_555 1_555
H7_5 C7_5 1_555 1_555
C8_5 C4_5 1_555 1_555
H8_5 C8_5 1_555 1_555
N6_4 C2_11 1_555 1_555
C7_5 C8_5 1_555 1_555
Ag3_6 N4_6 1_555 1_555
N1_12 N5_6 1_555 1_555
N5_6 C1_12 1_555 1_555
N6_5 C1_12 1_555 1_555
N4_6 C6_6 1_555 1_555
C1_12 H1_12 1_555 1_555
C2_12 N1_12 1_555 1_555
H2_12 C2_12 1_555 1_555
C3_6 N1_12 1_555 1_555
H3_6 C3_6 1_555 1_555
H4_6 C3_6 1_555 1_555
C4_6 C3_6 1_555 1_555
C5_6 C4_6 1_555 1_555
H5_6 C5_6 1_555 1_555
C6_6 C5_6 1_555 1_555
H6_6 C6_6 1_555 1_555
C7_6 N4_6 1_555 1_555
H7_6 C7_6 1_555 1_555
C8_6 C4_6 1_555 1_555
H8_6 C8_6 1_555 1_555
N6_5 C2_12 1_555 1_555
C7_6 C8_6 1_555 1_555
N1_13 N2_7 1_555 1_555
N2_7 C1_13 1_555 1_555
N3_7 C1_13 1_555 1_555
N4_7 C6_7 1_555 1_555
C1_13 H1_13 1_555 1_555
C3_7 N1_13 1_555 1_555
H3_7 C3_7 1_555 1_555
H4_7 C3_7 1_555 1_555
C4_7 C3_7 1_555 1_555
C5_7 C4_7 1_555 1_555
H5_7 C5_7 1_555 1_555
C6_7 C5_7 1_555 1_555
H6_7 C6_7 1_555 1_555
C7_7 N4_7 1_555 1_555
H7_7 C7_7 1_555 1_555
C8_7 C4_7 1_555 1_555
H8_7 C8_7 1_555 1_555
Ag3_7 N2_7 1_555 1_555
C7_7 C8_7 1_555 1_555
H2_13 C2_13 1_555 1_555
Ag2_4 N4_8 1_555 1_555
N4_8 C6_8 1_555 1_555
H3_8 C3_8 1_555 1_555
H4_8 C3_8 1_555 1_555
C4_8 C3_8 1_555 1_555
C5_8 C4_8 1_555 1_555
H5_8 C5_8 1_555 1_555
C6_8 C5_8 1_555 1_555
H6_8 C6_8 1_555 1_555
C7_8 N4_8 1_555 1_555
H7_8 C7_8 1_555 1_555
C8_8 C4_8 1_555 1_555
H8_8 C8_8 1_555 1_555
N5_7 Ag2_4 1_555 1_555
C7_8 C8_8 1_555 1_555
N1_14 N5_7 1_555 1_555
N5_7 C1_14 1_555 1_555
N3_8 C1_14 1_555 1_555
N4_9 C6_9 1_555 1_555
C1_14 H1_14 1_555 1_555
C2_14 N1_14 1_555 1_555
H2_14 C2_14 1_555 1_555
C3_9 N1_14 1_555 1_555
H3_9 C3_9 1_555 1_555
H4_9 C3_9 1_555 1_555
C4_9 C3_9 1_555 1_555
C5_9 C4_9 1_555 1_555
H5_9 C5_9 1_555 1_555
C6_9 C5_9 1_555 1_555
H6_9 C6_9 1_555 1_555
C7_9 N4_9 1_555 1_555
H7_9 C7_9 1_555 1_555
C8_9 C4_9 1_555 1_555
H8_9 C8_9 1_555 1_555
Ag3_7 N3_8 1_555 1_555
N3_8 C2_14 1_555 1_555
C7_9 C8_9 1_555 1_555
Ag3_7 N4_10 1_555 1_555
N4_10 C6_10 1_555 1_555
H3_10 C3_10 1_555 1_555
H4_10 C3_10 1_555 1_555
C4_10 C3_10 1_555 1_555
C5_10 C4_10 1_555 1_555
H5_10 C5_10 1_555 1_555
C6_10 C5_10 1_555 1_555
H6_10 C6_10 1_555 1_555
C7_10 N4_10 1_555 1_555
H7_10 C7_10 1_555 1_555
C8_10 C4_10 1_555 1_555
H8_10 C8_10 1_555 1_555
C7_10 C8_10 1_555 1_555
H2_15 C2_15 1_555 1_555
Ag2_5 N4_11 1_555 1_555
N4_11 C6_11 1_555 1_555
H3_11 C3_11 1_555 1_555
H4_11 C3_11 1_555 1_555
C4_11 C3_11 1_555 1_555
C5_11 C4_11 1_555 1_555
H5_11 C5_11 1_555 1_555
C6_11 C5_11 1_555 1_555
H6_11 C6_11 1_555 1_555
C7_11 N4_11 1_555 1_555
H7_11 C7_11 1_555 1_555
C8_11 C4_11 1_555 1_555
H8_11 C8_11 1_555 1_555
N5_8 Ag2_5 1_555 1_555
C7_11 C8_11 1_555 1_555
N1_15 N5_8 1_555 1_555
N5_8 C1_15 1_555 1_555
N3_9 C1_15 1_555 1_555
N4_12 C6_12 1_555 1_555
C1_15 H1_15 1_555 1_555
C3_12 N1_15 1_555 1_555
H3_12 C3_12 1_555 1_555
H4_12 C3_12 1_555 1_555
C4_12 C3_12 1_555 1_555
C5_12 C4_12 1_555 1_555
H5_12 C5_12 1_555 1_555
C6_12 C5_12 1_555 1_555
H6_12 C6_12 1_555 1_555
C7_12 N4_12 1_555 1_555
H7_12 C7_12 1_555 1_555
C8_12 C4_12 1_555 1_555
H8_12 C8_12 1_555 1_555
C7_12 C8_12 1_555 1_555
N1_16 N2_8 1_555 1_555
N2_8 C1_16 1_555 1_555
N3_10 C1_16 1_555 1_555
N4_13 C6_13 1_555 1_555
C1_16 H1_16 1_555 1_555
C2_16 N1_16 1_555 1_555
H2_16 C2_16 1_555 1_555
C3_13 N1_16 1_555 1_555
H3_13 C3_13 1_555 1_555
H4_13 C3_13 1_555 1_555
C4_13 C3_13 1_555 1_555
C5_13 C4_13 1_555 1_555
H5_13 C5_13 1_555 1_555
C6_13 C5_13 1_555 1_555
H6_13 C6_13 1_555 1_555
C7_13 N4_13 1_555 1_555
H7_13 C7_13 1_555 1_555
C8_13 C4_13 1_555 1_555
H8_13 C8_13 1_555 1_555
Ag2_6 N3_10 1_555 1_555
Ag3_8 N2_8 1_555 1_555
N3_10 C2_16 1_555 1_555
C7_13 C8_13 1_555 1_555
Ag2_6 N4_14 1_555 1_555
N4_14 C6_14 1_555 1_555
H3_14 C3_14 1_555 1_555
H4_14 C3_14 1_555 1_555
C4_14 C3_14 1_555 1_555
C5_14 C4_14 1_555 1_555
H5_14 C5_14 1_555 1_555
C6_14 C5_14 1_555 1_555
H6_14 C6_14 1_555 1_555
C7_14 N4_14 1_555 1_555
H7_14 C7_14 1_555 1_555
C8_14 C4_14 1_555 1_555
H8_14 C8_14 1_555 1_555
N5_9 Ag2_6 1_555 1_555
C7_14 C8_14 1_555 1_555
N1_17 N5_9 1_555 1_555
N5_9 C1_17 1_555 1_555
N3_11 C1_17 1_555 1_555
N4_15 C6_15 1_555 1_555
C1_17 H1_17 1_555 1_555
C3_15 N1_17 1_555 1_555
H3_15 C3_15 1_555 1_555
H4_15 C3_15 1_555 1_555
C4_15 C3_15 1_555 1_555
C5_15 C4_15 1_555 1_555
H5_15 C5_15 1_555 1_555
C6_15 C5_15 1_555 1_555
H6_15 C6_15 1_555 1_555
C7_15 N4_15 1_555 1_555
H7_15 C7_15 1_555 1_555
C8_15 C4_15 1_555 1_555
H8_15 C8_15 1_555 1_555
C7_15 C8_15 1_555 1_555
H2_17 C2_17 1_555 1_555
Ag3_8 N4_16 1_555 1_555
N4_16 C6_16 1_555 1_555
H3_16 C3_16 1_555 1_555
H4_16 C3_16 1_555 1_555
C4_16 C3_16 1_555 1_555
C5_16 C4_16 1_555 1_555
H5_16 C5_16 1_555 1_555
C6_16 C5_16 1_555 1_555
H6_16 C6_16 1_555 1_555
C7_16 N4_16 1_555 1_555
H7_16 C7_16 1_555 1_555
C8_16 C4_16 1_555 1_555
H8_16 C8_16 1_555 1_555
C7_16 C8_16 1_555 1_555
N1_18 N2_9 1_555 1_555
N2_9 C1_18 1_555 1_555
N3_12 C1_18 1_555 1_555
N4_17 C6_17 1_555 1_555
C1_18 H1_18 1_555 1_555
C3_17 N1_18 1_555 1_555
H3_17 C3_17 1_555 1_555
H4_17 C3_17 1_555 1_555
C4_17 C3_17 1_555 1_555
C5_17 C4_17 1_555 1_555
H5_17 C5_17 1_555 1_555
C6_17 C5_17 1_555 1_555
H6_17 C6_17 1_555 1_555
C7_17 N4_17 1_555 1_555
H7_17 C7_17 1_555 1_555
C8_17 C4_17 1_555 1_555
H8_17 C8_17 1_555 1_555
Ag3_9 N2_9 1_555 1_555
C7_17 C8_17 1_555 1_555
H2_18 C2_18 1_555 1_555
Ag3_9 N4_18 1_555 1_555
N4_18 C6_18 1_555 1_555
H3_18 C3_18 1_555 1_555
H4_18 C3_18 1_555 1_555
C4_18 C3_18 1_555 1_555
C5_18 C4_18 1_555 1_555
H5_18 C5_18 1_555 1_555
C6_18 C5_18 1_555 1_555
H6_18 C6_18 1_555 1_555
C7_18 N4_18 1_555 1_555
H7_18 C7_18 1_555 1_555
C8_18 C4_18 1_555 1_555
H8_18 C8_18 1_555 1_555
C7_18 C8_18 1_555 1_555
Cl1 O1 1_555 1_555
O2 Cl1 1_555 1_555
O3 Cl1 1_555 1_555
O4 Cl1 1_555 1_555
Cl1_2 O1_2 1_555 1_555
O2_2 Cl1_2 1_555 1_555
O3_2 Cl1_2 1_555 1_555
O4_2 Cl1_2 1_555 1_555
Cl1_3 O1_3 1_555 1_555
O2_3 Cl1_3 1_555 1_555
O3_3 Cl1_3 1_555 1_555
O4_3 Cl1_3 1_555 1_555
Cl1_4 O1_4 1_555 1_555
O2_4 Cl1_4 1_555 1_555
O3_4 Cl1_4 1_555 1_555
O4_4 Cl1_4 1_555 1_555
Cl1_5 O1_5 1_555 1_555
O2_5 Cl1_5 1_555 1_555
O3_5 Cl1_5 1_555 1_555
O4_5 Cl1_5 1_555 1_555
Cl1_6 O1_6 1_555 1_555
O2_6 Cl1_6 1_555 1_555
O3_6 Cl1_6 1_555 1_555
O4_6 Cl1_6 1_555 1_555
Cl1_7 O1_7 1_555 1_555
O2_7 Cl1_7 1_555 1_555
O3_7 Cl1_7 1_555 1_555
O4_7 Cl1_7 1_555 1_555
Cl1_8 O1_8 1_555 1_555
O2_8 Cl1_8 1_555 1_555
O3_8 Cl1_8 1_555 1_555
O4_8 Cl1_8 1_555 1_555
Cl1_9 O1_9 1_555 1_555
O2_9 Cl1_9 1_555 1_555
O3_9 Cl1_9 1_555 1_555
O4_9 Cl1_9 1_555 1_555
Cl1_10 O1_10 1_555 1_555
O2_10 Cl1_10 1_555 1_555
O3_10 Cl1_10 1_555 1_555
O4_10 Cl1_10 1_555 1_555
Cl1_11 O1_11 1_555 1_555
O2_11 Cl1_11 1_555 1_555
O3_11 Cl1_11 1_555 1_555
O4_11 Cl1_11 1_555 1_555
Cl1_12 O1_12 1_555 1_555
O2_12 Cl1_12 1_555 1_555
O3_12 Cl1_12 1_555 1_555
O4_12 Cl1_12 1_555 1_555
Cl1_13 O1_13 1_555 1_555
O2_13 Cl1_13 1_555 1_555
O3_13 Cl1_13 1_555 1_555
O4_13 Cl1_13 1_555 1_555
Cl1_14 O1_14 1_555 1_555
O2_14 Cl1_14 1_555 1_555
O3_14 Cl1_14 1_555 1_555
O4_14 Cl1_14 1_555 1_555
Cl1_15 O1_15 1_555 1_555
O2_15 Cl1_15 1_555 1_555
O3_15 Cl1_15 1_555 1_555
O4_15 Cl1_15 1_555 1_555
Cl1_16 O1_16 1_555 1_555
O2_16 Cl1_16 1_555 1_555
O3_16 Cl1_16 1_555 1_555
O4_16 Cl1_16 1_555 1_555
Cl1_17 O1_17 1_555 1_555
O2_17 Cl1_17 1_555 1_555
O3_17 Cl1_17 1_555 1_555
O4_17 Cl1_17 1_555 1_555
Cl1_18 O1_18 1_555 1_555
O2_18 Cl1_18 1_555 1_555
O3_18 Cl1_18 1_555 1_555
O4_18 Cl1_18 1_555 1_555

#END
