
###############################################################################
#
# This file contains modified crystal structure data generated from the
# MOF subset of the Cambridge Structural Database (CSD) v543 
# hosted by the Cambridge Crystallographic Data Centre (CCDC).
#
# This work is licensed under the Creative Commons
# Attribution-NonCommercial-ShareAlike 4.0 International License.
# To view a copy of this license, visit
# http://creativecommons.org/licenses/by-nc-sa/4.0/
# or send a letter to
# Creative Commons, PO Box 1866, Mountain View, CA 94042, USA.
#
# CIF created using the CSD Python API on 29 September 2022
# The structure has been converted into the P1 space group
# The structure has a 3D framework
# The original CSD entry GAJTOC is in the monoclinic crystal system
# The framework has been calculated to contain at least 10.0% void space
# The void calculation uses a probe of radius 1.32A, grid spacing 0.4
#
###############################################################################

data_GAJTOC
_chemical_formula_moiety         '(C288 H224 Gd16 N48 O136 S48)n'
_symmetry_cell_setting           triclinic
_symmetry_space_group_name_H-M   'P 1'
_symmetry_Int_Tables_number      1
_space_group_name_Hall           'P 1'
loop_
_symmetry_equiv_pos_site_id
_symmetry_equiv_pos_as_xyz
1 x,y,z
_cell_length_a                   21.8010(17)
_cell_length_b                   13.5504(10)
_cell_length_c                   34.874(3)
_cell_angle_alpha                90
_cell_angle_beta                 98.8400(10)
_cell_angle_gamma                90
_cell_volume                     10179.8
loop_
_atom_site_label
_atom_site_type_symbol
_atom_site_fract_x
_atom_site_fract_y
_atom_site_fract_z
S1 S 0.66506(7) 0.50029(12) 0.17277(6)
C3 C 0.3528(2) 0.4674(4) 0.11935(15)
C4 C 0.4197(2) 0.4923(4) 0.11909(15)
C7 C 0.6748(2) 0.3777(4) 0.15640(17)
C10 C 0.2831(2) 0.1141(4) 0.10862(14)
C11 C 0.7114(2) 0.2179(4) 0.17326(16)
H2 H 0.7303 0.1726 0.1913
C12 C 0.6918(2) 0.1894(4) 0.13523(14)
C13 C 0.6641(2) 0.2595(4) 0.10980(15)
H3 H 0.6508 0.2405 0.0842
C14 C 0.5417(2) 0.5371(4) 0.12335(19)
C16 C 0.4622(2) 0.4788(4) 0.15224(16)
H4 H 0.4480 0.4529 0.1740
C17 C 0.2715(2) 0.2207(4) 0.11483(17)
C20 C 0.7007(2) 0.0860(4) 0.12201(17)
C23 C 0.4411(3) 0.5316(4) 0.08694(16)
H7 H 0.4138 0.5429 0.0641
C24 C 0.5033(3) 0.5539(4) 0.08910(19)
H8 H 0.5187 0.5798 0.0678
C27 C 0.3075(3) 0.0528(4) 0.13876(15)
H9 H 0.3177 0.0778 0.1638
C28 C 0.2692(3) 0.0723(4) 0.07244(15)
H10 H 0.2523 0.1128 0.0520
C36 C 0.7027(3) 0.3130(5) 0.18405(16)
H18 H 0.7153 0.3335 0.2095
Gd1 Gd 0.217684(11) 0.421458(18) 0.058597(7)
Gd2 Gd 0.260504(10) 0.391230(18) 0.184435(7)
S6 S 0.62153(7) 0.57115(11) 0.12547(6)
O1 O 0.33911(17) 0.4424(3) 0.15139(11)
O4 O 0.31584(16) 0.4733(3) 0.08833(11)
O6 O 0.34904(16) 0.3396(3) 0.22949(10)
H19 H 0.3665 0.2833 0.2309
H20 H 0.3786 0.3799 0.2361
O7 O 0.1146(2) 0.4588(3) 0.01406(12)
O8 O 0.29345(18) 0.3612(3) 0.01782(11)
H21 H 0.3201 0.3960 0.0086
H22 H 0.3098 0.3041 0.0187
O9 O 0.30749(18) 0.5382(3) 0.22059(11)
H23 H 0.3372 0.5777 0.2189
H24 H 0.2946 0.5589 0.2409
O10 O 0.69046(19) 0.0703(3) 0.08587(12)
O11 O 0.2395(2) 0.5541(3) 0.01566(11)
H26 H 0.2266 0.6133 0.0156
O12 O 0.71764(18) 0.0218(3) 0.14684(12)
O13 O 0.25549(19) 0.2733(3) 0.08606(12)
O14 O 0.23285(19) 0.2254(3) 0.21780(12)
H27 H 0.2039 0.2383 0.2308
H28 H 0.2646 0.2039 0.2327
O15 O 0.27992(19) 0.2502(3) 0.14929(12)
O16 O 0.16424(17) 0.3231(3) 0.00486(11)
N3 N 0.5232(2) 0.5009(4) 0.15516(15)
N6 N 0.6549(2) 0.3532(3) 0.11953(13)
O18 O 0.20366(16) 0.4332(3) 0.23376(10)
O19 O 0.14100(16) 0.3683(3) 0.09354(11)
O20 O 0.16068(17) 0.3366(3) 0.15682(11)
O21 O 0.19046(19) 0.5703(3) 0.08587(12)
O22 O 0.21764(18) 0.5218(3) 0.14684(12)
C5 C 0.1574(3) 0.5972(4) 0.74768(14)
C6 C 0.1179(2) 0.5207(4) 0.76311(14)
C9 C 0.1291(2) 0.4211(4) 0.75765(15)
H1 H 0.1603 0.4039 0.7435
C18 C 0.0049(2) 0.3366(4) 0.88801(15)
C19 C 0.0527(2) 0.3742(4) 0.79195(14)
C25 C 0.1208(3) 0.3831(5) 0.99439(16)
C26 C 0.0781(2) 0.3662(4) 0.95752(15)
C29 C 0.0912(3) 0.2976(5) 0.93103(17)
H11 H 0.1268 0.2595 0.9375
C32 C 0.0707(2) 0.5440(4) 0.78389(15)
H14 H 0.0609 0.6098 0.7876
C33 C 0.0382(2) 0.4712(4) 0.79905(15)
H15 H 0.0072 0.4864 0.8137
C35 C 0.0233(3) 0.4191(5) 0.94741(18)
H17 H 0.0115 0.4655 0.9645
S3 S 0.01586(7) 0.26746(11) 0.80748(4)
O2 O 0.20366(16) 0.5668(3) 0.73376(10)
H25 H 0.2307 0.5521 0.9892
O17 O 0.14314(19) 0.6867(3) 0.75037(12)
N1 N 0.09734(19) 0.3486(3) 0.77166(12)
N2 N 0.0558(2) 0.2813(4) 0.89585(14)
Gd4 Gd 0.260504(10) 0.608770(18) 0.684435(7)
C1 C 0.6255(2) 0.8432(4) 0.12494(16)
C2 C 0.5584(2) 0.8164(4) 0.12474(15)
C8 C 0.3018(2) 0.9205(4) 0.09419(15)
C15 C 0.4378(2) 0.7689(4) 0.12361(18)
C21 C 0.5378(2) 0.7788(4) 0.15720(16)
H5 H 0.5660 0.7705 0.1798
C22 C 0.5156(2) 0.8307(4) 0.09195(17)
H6 H 0.5284 0.8571 0.0698
C30 C 0.3165(3) 0.9539(4) 0.13154(15)
H12 H 0.3322 0.9112 0.1515
C31 C 0.4547(2) 0.8068(4) 0.09143(17)
H13 H 0.4257 0.8166 0.0693
S2 S 0.35969(6) 0.73234(11) 0.12679(5)
S5 S 0.30947(6) 0.79577(11) 0.07967(5)
O3 O 0.64100(16) 0.8683(3) 0.09354(11)
O5 O 0.66068(17) 0.8366(3) 0.15682(11)
N4 N 0.2784(2) 0.9772(3) 0.06463(12)
N5 N 0.4770(2) 0.7532(4) 0.15706(15)
Gd3 Gd 0.717684(11) 0.921458(18) 0.058597(7)
Gd5 Gd 0.760504(10) 0.891230(18) 0.184435(7)
C1_2 C 0.1255(2) 0.3432(4) 0.12494(16)
C2_2 C 0.0584(2) 0.3164(4) 0.12474(15)
C7_2 C 0.1748(2) 0.8777(4) 0.15640(17)
C11_2 C 0.2114(2) 0.7179(4) 0.17326(16)
H2_2 H 0.2303 0.6726 0.1913
C12_2 C 0.1918(2) 0.6894(4) 0.13523(14)
C13_2 C 0.1641(2) 0.7595(4) 0.10980(15)
H3_2 H 0.1508 0.7405 0.0842
C20_2 C 0.2007(2) 0.5860(4) 0.12201(17)
C21_2 C 0.0378(2) 0.2788(4) 0.15720(16)
H5_2 H 0.0660 0.2705 0.1798
C22_2 C 0.0156(2) 0.3307(4) 0.09195(17)
H6_2 H 0.0284 0.3571 0.0698
C36_2 C 0.2027(3) 0.8130(5) 0.18405(16)
H18_2 H 0.2153 0.8335 0.2095
N6_2 N 0.1549(2) 0.8532(3) 0.11953(13)
C23_2 C 0.9411(3) 0.0316(4) 0.08694(16)
H7_2 H 0.9138 0.0429 0.0641
O9_2 O 0.80749(18) 0.0382(3) 0.22059(11)
H23_2 H 0.8372 0.0777 0.2189
H24_2 H 0.7946 0.0589 0.2409
O11_2 O 0.7395(2) 0.0541(3) 0.01566(11)
H26_2 H 0.7266 0.1133 0.0156
C3_2 C 0.8528(2) 0.9674(4) 0.11935(15)
C4_2 C 0.9197(2) 0.9923(4) 0.11909(15)
C8_2 C 0.8018(2) 0.4205(4) 0.09419(15)
C10_2 C 0.7831(2) 0.6141(4) 0.10862(14)
C15_2 C 0.9378(2) 0.2689(4) 0.12361(18)
C16_2 C 0.9622(2) 0.9788(4) 0.15224(16)
H4_2 H 0.9480 0.9529 0.1740
C17_2 C 0.7715(2) 0.7207(4) 0.11483(17)
C27_2 C 0.8075(3) 0.5528(4) 0.13876(15)
H9_2 H 0.8177 0.5778 0.1638
C28_2 C 0.7692(3) 0.5723(4) 0.07244(15)
H10_2 H 0.7523 0.6128 0.0520
C30_2 C 0.8165(3) 0.4539(4) 0.13154(15)
H12_2 H 0.8322 0.4112 0.1515
C31_2 C 0.9547(2) 0.3068(4) 0.09143(17)
H13_2 H 0.9257 0.3166 0.0693
S2_2 S 0.85969(6) 0.23234(11) 0.12679(5)
S5_2 S 0.80947(6) 0.29577(11) 0.07967(5)
O1_2 O 0.83911(17) 0.9424(3) 0.15139(11)
O4_2 O 0.81584(16) 0.9733(3) 0.08833(11)
O6_2 O 0.84904(16) 0.8396(3) 0.22949(10)
H19_2 H 0.8665 0.7833 0.2309
H20_2 H 0.8786 0.8799 0.2361
O7_2 O 0.6146(2) 0.9588(3) 0.01406(12)
O8_2 O 0.79345(18) 0.8612(3) 0.01782(11)
H21_2 H 0.8201 0.8960 0.0086
H22_2 H 0.8098 0.8041 0.0187
O13_2 O 0.75549(19) 0.7733(3) 0.08606(12)
O14_2 O 0.73285(19) 0.7254(3) 0.21780(12)
H27_2 H 0.7039 0.7383 0.2308
H28_2 H 0.7646 0.7039 0.2327
O15_2 O 0.77992(19) 0.7502(3) 0.14929(12)
O16_2 O 0.66424(17) 0.8231(3) 0.00486(11)
N4_2 N 0.7784(2) 0.4772(3) 0.06463(12)
N5_2 N 0.9770(2) 0.2532(4) 0.15706(15)
O18_2 O 0.70366(16) 0.9332(3) 0.23376(10)
S1_2 S 0.66506(7) 0.49971(12) 0.67277(6)
C3_3 C 0.3528(2) 0.5326(4) 0.61935(15)
C4_3 C 0.4197(2) 0.5077(4) 0.61909(15)
C5_2 C 0.1574(3) 0.4028(4) 0.24768(14)
C6_2 C 0.1179(2) 0.4793(4) 0.26311(14)
C7_3 C 0.6748(2) 0.6223(4) 0.65640(17)
C9_2 C 0.1291(2) 0.5789(4) 0.25765(15)
H1_2 H 0.1603 0.5961 0.2435
C10_3 C 0.2831(2) 0.8859(4) 0.60862(14)
C11_3 C 0.7114(2) 0.7821(4) 0.67326(16)
H2_3 H 0.7303 0.8274 0.6913
C12_3 C 0.6918(2) 0.8106(4) 0.63523(14)
C13_3 C 0.6641(2) 0.7405(4) 0.60980(15)
H3_3 H 0.6508 0.7595 0.5842
C14_2 C 0.5417(2) 0.4629(4) 0.62335(19)
C16_3 C 0.4622(2) 0.5212(4) 0.65224(16)
H4_3 H 0.4480 0.5471 0.6740
C17_3 C 0.2715(2) 0.7793(4) 0.61483(17)
C18_2 C 0.0049(2) 0.6634(4) 0.38801(15)
C19_2 C 0.0527(2) 0.6258(4) 0.29195(14)
C20_3 C 0.7007(2) 0.9140(4) 0.62201(17)
C23_3 C 0.4411(3) 0.4684(4) 0.58694(16)
H7_3 H 0.4138 0.4571 0.5641
C24_2 C 0.5033(3) 0.4461(4) 0.58910(19)
H8_2 H 0.5187 0.4202 0.5678
C25_2 C 0.1208(3) 0.6169(5) 0.49439(16)
C26_2 C 0.0781(2) 0.6338(4) 0.45752(15)
C27_3 C 0.3075(3) 0.9472(4) 0.63876(15)
H9_3 H 0.3177 0.9222 0.6638
C28_3 C 0.2692(3) 0.9277(4) 0.57244(15)
H10_3 H 0.2523 0.8872 0.5520
C29_2 C 0.0912(3) 0.7024(5) 0.43103(17)
H11_2 H 0.1268 0.7405 0.4375
C32_2 C 0.0707(2) 0.4560(4) 0.28389(15)
H14_2 H 0.0609 0.3902 0.2876
C33_2 C 0.0382(2) 0.5288(4) 0.29905(15)
H15_2 H 0.0072 0.5136 0.3137
C35_2 C 0.0233(3) 0.5809(5) 0.44741(18)
H17_2 H 0.0115 0.5345 0.4645
C36_3 C 0.7027(3) 0.6870(5) 0.68405(16)
H18_3 H 0.7153 0.6665 0.7095
Gd1_2 Gd 0.217684(11) 0.578542(18) 0.558597(7)
S3_2 S 0.01586(7) 0.73254(11) 0.30748(4)
S6_2 S 0.62153(7) 0.42885(11) 0.62547(6)
O1_3 O 0.33911(17) 0.5576(3) 0.65139(11)
O4_3 O 0.31584(16) 0.5267(3) 0.58833(11)
O6_3 O 0.34904(16) 0.6604(3) 0.72949(10)
H19_3 H 0.3665 0.7167 0.7309
H20_3 H 0.3786 0.6201 0.7361
O7_3 O 0.1146(2) 0.5412(3) 0.51406(12)
O8_3 O 0.29345(18) 0.6388(3) 0.51782(11)
H21_3 H 0.3201 0.6040 0.5086
H22_3 H 0.3098 0.6959 0.5187
O9_3 O 0.30749(18) 0.4618(3) 0.72059(11)
H23_3 H 0.3372 0.4223 0.7189
H24_3 H 0.2946 0.4411 0.7409
O10_2 O 0.69046(19) 0.9297(3) 0.58587(12)
O11_3 O 0.2395(2) 0.4459(3) 0.51566(11)
H25_2 H 0.2307 0.4479 0.4892
H26_3 H 0.2266 0.3867 0.5156
O12_2 O 0.71764(18) 0.9782(3) 0.64684(12)
O13_3 O 0.25549(19) 0.7267(3) 0.58606(12)
O14_3 O 0.23285(19) 0.7746(3) 0.71780(12)
H27_3 H 0.2039 0.7617 0.7308
H28_3 H 0.2646 0.7961 0.7327
O15_3 O 0.27992(19) 0.7498(3) 0.64929(12)
O16_3 O 0.16424(17) 0.6769(3) 0.50486(11)
O17_2 O 0.14314(19) 0.3133(3) 0.25037(12)
N1_2 N 0.09734(19) 0.6514(3) 0.27166(12)
N2_2 N 0.0558(2) 0.7187(4) 0.39585(14)
N3_2 N 0.5232(2) 0.4991(4) 0.65516(15)
N6_3 N 0.6549(2) 0.6468(3) 0.61953(13)
O19_2 O 0.14100(16) 0.6317(3) 0.59354(11)
O20_2 O 0.16068(17) 0.6634(3) 0.65682(11)
O21_2 O 0.19046(19) 0.4297(3) 0.58587(12)
O22_2 O 0.21764(18) 0.4782(3) 0.64684(12)
C1_3 C 0.1255(2) 0.6568(4) 0.62494(16)
C2_3 C 0.0584(2) 0.6836(4) 0.62474(15)
C7_4 C 0.1748(2) 0.1223(4) 0.65640(17)
C11_4 C 0.2114(2) 0.2821(4) 0.67326(16)
H2_4 H 0.2303 0.3274 0.6913
C12_4 C 0.1918(2) 0.3106(4) 0.63523(14)
C13_4 C 0.1641(2) 0.2405(4) 0.60980(15)
H3_4 H 0.1508 0.2595 0.5842
C20_4 C 0.2007(2) 0.4140(4) 0.62201(17)
C21_3 C 0.0378(2) 0.7212(4) 0.65720(16)
H5_3 H 0.0660 0.7295 0.6798
C22_3 C 0.0156(2) 0.6693(4) 0.59195(17)
H6_3 H 0.0284 0.6429 0.5698
C36_4 C 0.2027(3) 0.1870(5) 0.68405(16)
H18_4 H 0.2153 0.1665 0.7095
N6_4 N 0.1549(2) 0.1468(3) 0.61953(13)
C5_3 C 0.6574(3) 0.9028(4) 0.24768(14)
C6_3 C 0.6179(2) 0.9793(4) 0.26311(14)
C23_4 C 0.9411(3) 0.9684(4) 0.58694(16)
H7_4 H 0.9138 0.9571 0.5641
C32_3 C 0.5707(2) 0.9560(4) 0.28389(15)
H14_3 H 0.5609 0.8902 0.2876
O9_4 O 0.80749(18) 0.9618(3) 0.72059(11)
H23_4 H 0.8372 0.9223 0.7189
H24_4 H 0.7946 0.9411 0.7409
O11_4 O 0.7395(2) 0.9459(3) 0.51566(11)
H25_3 H 0.7307 0.9479 0.4892
H26_4 H 0.7266 0.8867 0.5156
O17_3 O 0.64314(19) 0.8133(3) 0.25037(12)
C34 C 0.9865(3) 0.4034(5) 0.91234(17)
H16 H 0.9497 0.4381 0.9056
S4 S 0.95640(6) 0.31979(13) 0.84171(4)
C34_2 C 0.0135(3) 0.4034(5) 0.58766(17)
H16_2 H 0.0503 0.4381 0.5944
S4_2 S 0.04360(6) 0.31979(13) 0.65829(4)
S1_3 S 0.33494(7) 0.50029(12) 0.32723(6)
C3_4 C 0.6472(2) 0.4674(4) 0.38065(15)
C4_4 C 0.5803(2) 0.4923(4) 0.38091(15)
C5_4 C 0.8426(3) 0.5972(4) 0.75232(14)
C6_4 C 0.8821(2) 0.5207(4) 0.73689(14)
C7_5 C 0.3252(2) 0.3777(4) 0.34360(17)
C9_3 C 0.8709(2) 0.4211(4) 0.74235(15)
H1_3 H 0.8397 0.4039 0.7565
C10_4 C 0.7169(2) 0.1141(4) 0.39138(14)
C11_5 C 0.2886(2) 0.2179(4) 0.32674(16)
H2_5 H 0.2697 0.1726 0.3087
C12_5 C 0.3082(2) 0.1894(4) 0.36477(14)
C13_5 C 0.3359(2) 0.2595(4) 0.39020(15)
H3_5 H 0.3492 0.2405 0.4158
C14_3 C 0.4583(2) 0.5371(4) 0.37665(19)
C16_4 C 0.5378(2) 0.4788(4) 0.34776(16)
H4_4 H 0.5520 0.4529 0.3260
C17_4 C 0.7285(2) 0.2207(4) 0.38517(17)
C18_3 C 0.9951(2) 0.3366(4) 0.61199(15)
C19_3 C 0.9473(2) 0.3742(4) 0.70805(14)
C20_5 C 0.2993(2) 0.0860(4) 0.37799(17)
C23_5 C 0.5589(3) 0.5316(4) 0.41306(16)
H7_5 H 0.5862 0.5429 0.4359
C24_3 C 0.4967(3) 0.5539(4) 0.41090(19)
H8_3 H 0.4813 0.5798 0.4322
C25_3 C 0.8792(3) 0.3831(5) 0.50561(16)
C26_3 C 0.9219(2) 0.3662(4) 0.54248(15)
C27_4 C 0.6925(3) 0.0528(4) 0.36124(15)
H9_4 H 0.6823 0.0778 0.3362
C28_4 C 0.7308(3) 0.0723(4) 0.42756(15)
H10_4 H 0.7477 0.1128 0.4480
C29_3 C 0.9088(3) 0.2976(5) 0.56897(17)
H11_3 H 0.8732 0.2595 0.5625
C32_4 C 0.9293(2) 0.5440(4) 0.71611(15)
H14_4 H 0.9391 0.6098 0.7124
C33_3 C 0.9618(2) 0.4712(4) 0.70095(15)
H15_3 H 0.9928 0.4864 0.6863
C35_3 C 0.9767(3) 0.4191(5) 0.55259(18)
H17_3 H 0.9885 0.4655 0.5355
C36_5 C 0.2973(3) 0.3130(5) 0.31595(16)
H18_5 H 0.2847 0.3335 0.2905
Gd1_3 Gd 0.782316(11) 0.421458(18) 0.441403(7)
Gd2_2 Gd 0.739496(10) 0.391230(18) 0.315565(7)
S3_3 S 0.98414(7) 0.26746(11) 0.69252(4)
S6_3 S 0.37847(7) 0.57115(11) 0.37453(6)
O1_4 O 0.66089(17) 0.4424(3) 0.34861(11)
O2_2 O 0.79634(16) 0.5668(3) 0.76624(10)
O4_4 O 0.68416(16) 0.4733(3) 0.41167(11)
O6_4 O 0.65096(16) 0.3396(3) 0.27051(10)
H19_4 H 0.6335 0.2833 0.2691
H20_4 H 0.6214 0.3799 0.2639
O7_4 O 0.8854(2) 0.4588(3) 0.48594(12)
O8_4 O 0.70655(18) 0.3612(3) 0.48218(11)
H21_4 H 0.6799 0.3960 0.4914
H22_4 H 0.6902 0.3041 0.4813
O9_5 O 0.69251(18) 0.5382(3) 0.27941(11)
H23_5 H 0.6628 0.5777 0.2811
H24_5 H 0.7054 0.5589 0.2591
O10_3 O 0.30954(19) 0.0703(3) 0.41413(12)
O11_5 O 0.7605(2) 0.5541(3) 0.48434(11)
H25_4 H 0.7693 0.5521 0.5108
H26_5 H 0.7734 0.6133 0.4844
O12_3 O 0.28236(18) 0.0218(3) 0.35316(12)
O13_4 O 0.74451(19) 0.2733(3) 0.41394(12)
O14_4 O 0.76715(19) 0.2254(3) 0.28220(12)
H27_4 H 0.7961 0.2383 0.2692
H28_4 H 0.7354 0.2039 0.2673
O15_4 O 0.72008(19) 0.2502(3) 0.35071(12)
O16_4 O 0.83576(17) 0.3231(3) 0.49514(11)
O17_4 O 0.85686(19) 0.6867(3) 0.74963(12)
N1_3 N 0.90266(19) 0.3486(3) 0.72834(12)
N2_3 N 0.9442(2) 0.2813(4) 0.60415(14)
N3_3 N 0.4768(2) 0.5009(4) 0.34484(15)
N6_5 N 0.3451(2) 0.3532(3) 0.38047(13)
Gd4_2 Gd 0.739496(10) 0.608770(18) 0.815565(7)
O18_3 O 0.79634(16) 0.4332(3) 0.26624(10)
O19_3 O 0.85900(16) 0.3683(3) 0.40646(11)
O20_3 O 0.83932(17) 0.3366(3) 0.34318(11)
O21_3 O 0.80954(19) 0.5703(3) 0.41413(12)
O22_3 O 0.78236(18) 0.5218(3) 0.35316(12)
C5_5 C 0.3426(3) 0.0972(4) 0.75232(14)
C6_5 C 0.3821(2) 0.0207(4) 0.73689(14)
C23_6 C 0.0589(3) 0.0316(4) 0.41306(16)
H7_6 H 0.0862 0.0429 0.4359
C32_5 C 0.4293(2) 0.0440(4) 0.71611(15)
H14_5 H 0.4391 0.1098 0.7124
O2_3 O 0.29634(16) 0.0668(3) 0.76624(10)
O9_6 O 0.19251(18) 0.0382(3) 0.27941(11)
H23_6 H 0.1628 0.0777 0.2811
H24_6 H 0.2054 0.0589 0.2591
O11_6 O 0.2605(2) 0.0541(3) 0.48434(11)
H25_5 H 0.2693 0.0521 0.5108
H26_6 H 0.2734 0.1133 0.4844
O17_5 O 0.35686(19) 0.1867(3) 0.74963(12)
Gd4_3 Gd 0.239496(10) 0.108770(18) 0.815565(7)
C1_4 C 0.8745(2) 0.3432(4) 0.37506(16)
C2_4 C 0.9416(2) 0.3164(4) 0.37526(15)
C7_6 C 0.8252(2) 0.8777(4) 0.34360(17)
C11_6 C 0.7886(2) 0.7179(4) 0.32674(16)
H2_6 H 0.7697 0.6726 0.3087
C12_6 C 0.8082(2) 0.6894(4) 0.36477(14)
C13_6 C 0.8359(2) 0.7595(4) 0.39020(15)
H3_6 H 0.8492 0.7405 0.4158
C20_6 C 0.7993(2) 0.5860(4) 0.37799(17)
C21_4 C 0.9622(2) 0.2788(4) 0.34280(16)
H5_4 H 0.9340 0.2705 0.3202
C22_4 C 0.9844(2) 0.3307(4) 0.40805(17)
H6_4 H 0.9716 0.3571 0.4302
C36_6 C 0.7973(3) 0.8130(5) 0.31595(16)
H18_6 H 0.7847 0.8335 0.2905
N6_6 N 0.8451(2) 0.8532(3) 0.38047(13)
C1_5 C 0.3745(2) 0.1568(4) 0.87506(16)
C2_5 C 0.4416(2) 0.1836(4) 0.87526(15)
C8_3 C 0.6982(2) 0.0795(4) 0.90581(15)
C15_3 C 0.5622(2) 0.2311(4) 0.87639(18)
C21_5 C 0.4622(2) 0.2212(4) 0.84280(16)
H5_5 H 0.4340 0.2295 0.8202
C22_5 C 0.4844(2) 0.1693(4) 0.90805(17)
H6_5 H 0.4716 0.1429 0.9302
C30_3 C 0.6835(3) 0.0461(4) 0.86846(15)
H12_3 H 0.6678 0.0888 0.8485
C31_3 C 0.5453(2) 0.1932(4) 0.90857(17)
H13_3 H 0.5743 0.1834 0.9307
S2_3 S 0.64031(6) 0.26766(11) 0.87321(5)
S5_3 S 0.69053(6) 0.20423(11) 0.92033(5)
O3_2 O 0.35900(16) 0.1317(3) 0.90646(11)
O5_2 O 0.33932(17) 0.1634(3) 0.84318(11)
N4_3 N 0.7216(2) 0.0228(3) 0.93537(12)
N5_3 N 0.5230(2) 0.2468(4) 0.84294(15)
Gd3_2 Gd 0.282316(11) 0.078542(18) 0.941403(7)
C5_6 C 0.8426(3) 0.4028(4) 0.25232(14)
C6_6 C 0.8821(2) 0.4793(4) 0.23689(14)
C9_4 C 0.8709(2) 0.5789(4) 0.24235(15)
H1_4 H 0.8397 0.5961 0.2565
C18_4 C 0.9951(2) 0.6634(4) 0.11199(15)
C19_4 C 0.9473(2) 0.6258(4) 0.20805(14)
C25_4 C 0.8792(3) 0.6169(5) 0.00561(16)
C26_4 C 0.9219(2) 0.6338(4) 0.04248(15)
C29_4 C 0.9088(3) 0.7024(5) 0.06897(17)
H11_4 H 0.8732 0.7405 0.0625
C32_6 C 0.9293(2) 0.4560(4) 0.21611(15)
H14_6 H 0.9391 0.3902 0.2124
C33_4 C 0.9618(2) 0.5288(4) 0.20095(15)
H15_4 H 0.9928 0.5136 0.1863
C35_4 C 0.9767(3) 0.5809(5) 0.05259(18)
H17_4 H 0.9885 0.5345 0.0355
S3_4 S 0.98414(7) 0.73254(11) 0.19252(4)
H25_6 H 0.7693 0.4479 0.0108
O17_6 O 0.85686(19) 0.3133(3) 0.24963(12)
N1_4 N 0.90266(19) 0.6514(3) 0.22834(12)
N2_4 N 0.9442(2) 0.7187(4) 0.10415(14)
S1_4 S 0.33494(7) 0.49971(12) 0.82723(6)
C3_5 C 0.6472(2) 0.5326(4) 0.88065(15)
C4_5 C 0.5803(2) 0.5077(4) 0.88091(15)
C7_7 C 0.3252(2) 0.6223(4) 0.84360(17)
C10_5 C 0.7169(2) 0.8859(4) 0.89138(14)
C11_7 C 0.2886(2) 0.7821(4) 0.82674(16)
H2_7 H 0.2697 0.8274 0.8087
C12_7 C 0.3082(2) 0.8106(4) 0.86477(14)
C13_7 C 0.3359(2) 0.7405(4) 0.89020(15)
H3_7 H 0.3492 0.7595 0.9158
C14_4 C 0.4583(2) 0.4629(4) 0.87665(19)
C16_5 C 0.5378(2) 0.5212(4) 0.84776(16)
H4_5 H 0.5520 0.5471 0.8260
C17_5 C 0.7285(2) 0.7793(4) 0.88517(17)
C20_7 C 0.2993(2) 0.9140(4) 0.87799(17)
C23_7 C 0.5589(3) 0.4684(4) 0.91306(16)
H7_7 H 0.5862 0.4571 0.9359
C24_4 C 0.4967(3) 0.4461(4) 0.91090(19)
H8_4 H 0.4813 0.4202 0.9322
C27_5 C 0.6925(3) 0.9472(4) 0.86124(15)
H9_5 H 0.6823 0.9222 0.8362
C28_5 C 0.7308(3) 0.9277(4) 0.92756(15)
H10_5 H 0.7477 0.8872 0.9480
C36_7 C 0.2973(3) 0.6870(5) 0.81595(16)
H18_7 H 0.2847 0.6665 0.7905
Gd1_4 Gd 0.782316(11) 0.578542(18) 0.941403(7)
S6_4 S 0.37847(7) 0.42885(11) 0.87453(6)
O1_5 O 0.66089(17) 0.5576(3) 0.84861(11)
O4_5 O 0.68416(16) 0.5267(3) 0.91167(11)
O6_5 O 0.65096(16) 0.6604(3) 0.77051(10)
H19_5 H 0.6335 0.7167 0.7691
H20_5 H 0.6214 0.6201 0.7639
O7_5 O 0.8854(2) 0.5412(3) 0.98594(12)
O8_5 O 0.70655(18) 0.6388(3) 0.98218(11)
H21_5 H 0.6799 0.6040 0.9914
H22_5 H 0.6902 0.6959 0.9813
O9_7 O 0.69251(18) 0.4618(3) 0.77941(11)
H23_7 H 0.6628 0.4223 0.7811
H24_7 H 0.7054 0.4411 0.7591
O10_4 O 0.30954(19) 0.9297(3) 0.91413(12)
O11_7 O 0.7605(2) 0.4459(3) 0.98434(11)
H26_7 H 0.7734 0.3867 0.9844
O12_4 O 0.28236(18) 0.9782(3) 0.85316(12)
O13_5 O 0.74451(19) 0.7267(3) 0.91394(12)
O14_5 O 0.76715(19) 0.7746(3) 0.78220(12)
H27_5 H 0.7961 0.7617 0.7692
H28_5 H 0.7354 0.7961 0.7673
O15_5 O 0.72008(19) 0.7498(3) 0.85071(12)
O16_5 O 0.83576(17) 0.6769(3) 0.99514(11)
N3_4 N 0.4768(2) 0.4991(4) 0.84484(15)
N6_7 N 0.3451(2) 0.6468(3) 0.88047(13)
O19_4 O 0.85900(16) 0.6317(3) 0.90646(11)
O20_4 O 0.83932(17) 0.6634(3) 0.84318(11)
O21_4 O 0.80954(19) 0.4297(3) 0.91413(12)
O22_4 O 0.78236(18) 0.4782(3) 0.85316(12)
C3_6 C 0.1472(2) 0.0326(4) 0.88065(15)
C4_6 C 0.0803(2) 0.0077(4) 0.88091(15)
C8_4 C 0.1982(2) 0.5795(4) 0.90581(15)
C10_6 C 0.2169(2) 0.3859(4) 0.89138(14)
C15_4 C 0.0622(2) 0.7311(4) 0.87639(18)
C16_6 C 0.0378(2) 0.0212(4) 0.84776(16)
H4_6 H 0.0520 0.0471 0.8260
C17_6 C 0.2285(2) 0.2793(4) 0.88517(17)
C27_6 C 0.1925(3) 0.4472(4) 0.86124(15)
H9_6 H 0.1823 0.4222 0.8362
C28_6 C 0.2308(3) 0.4277(4) 0.92756(15)
H10_6 H 0.2477 0.3872 0.9480
C30_4 C 0.1835(3) 0.5461(4) 0.86846(15)
H12_4 H 0.1678 0.5888 0.8485
C31_4 C 0.0453(2) 0.6932(4) 0.90857(17)
H13_4 H 0.0743 0.6834 0.9307
S2_4 S 0.14031(6) 0.76766(11) 0.87321(5)
S5_4 S 0.19053(6) 0.70423(11) 0.92033(5)
O1_6 O 0.16089(17) 0.0576(3) 0.84861(11)
O4_6 O 0.18416(16) 0.0267(3) 0.91167(11)
O6_6 O 0.15096(16) 0.1604(3) 0.77051(10)
H19_6 H 0.1335 0.2167 0.7691
H20_6 H 0.1214 0.1201 0.7639
O7_6 O 0.3854(2) 0.0412(3) 0.98594(12)
O8_6 O 0.20655(18) 0.1388(3) 0.98218(11)
H21_6 H 0.1799 0.1040 0.9914
H22_6 H 0.1902 0.1959 0.9813
O13_6 O 0.24451(19) 0.2267(3) 0.91394(12)
O14_6 O 0.26715(19) 0.2746(3) 0.78220(12)
H27_6 H 0.2961 0.2617 0.7692
H28_6 H 0.2354 0.2961 0.7673
O15_6 O 0.22008(19) 0.2498(3) 0.85071(12)
O16_6 O 0.33576(17) 0.1769(3) 0.99514(11)
N4_4 N 0.2216(2) 0.5228(3) 0.93537(12)
N5_4 N 0.0230(2) 0.7468(4) 0.84294(15)
C23_8 C 0.0589(3) 0.9684(4) 0.91306(16)
H7_8 H 0.0862 0.9571 0.9359
O9_8 O 0.19251(18) 0.9618(3) 0.77941(11)
H23_8 H 0.1628 0.9223 0.7811
H24_8 H 0.2054 0.9411 0.7591
O11_8 O 0.2605(2) 0.9459(3) 0.98434(11)
H26_8 H 0.2734 0.8867 0.9844
C1_6 C 0.8745(2) 0.6568(4) 0.87506(16)
C2_6 C 0.9416(2) 0.6836(4) 0.87526(15)
C7_8 C 0.8252(2) 0.1223(4) 0.84360(17)
C11_8 C 0.7886(2) 0.2821(4) 0.82674(16)
H2_8 H 0.7697 0.3274 0.8087
C12_8 C 0.8082(2) 0.3106(4) 0.86477(14)
C13_8 C 0.8359(2) 0.2405(4) 0.89020(15)
H3_8 H 0.8492 0.2595 0.9158
C20_8 C 0.7993(2) 0.4140(4) 0.87799(17)
C21_6 C 0.9622(2) 0.7212(4) 0.84280(16)
H5_6 H 0.9340 0.7295 0.8202
C22_6 C 0.9844(2) 0.6693(4) 0.90805(17)
H6_6 H 0.9716 0.6429 0.9302
C36_8 C 0.7973(3) 0.1870(5) 0.81595(16)
H18_8 H 0.7847 0.1665 0.7905
N6_8 N 0.8451(2) 0.1468(3) 0.88047(13)
C1_7 C 0.3745(2) 0.8432(4) 0.37506(16)
C2_7 C 0.4416(2) 0.8164(4) 0.37526(15)
C8_5 C 0.6982(2) 0.9205(4) 0.40581(15)
C15_5 C 0.5622(2) 0.7689(4) 0.37639(18)
C21_7 C 0.4622(2) 0.7788(4) 0.34280(16)
H5_7 H 0.4340 0.7705 0.3202
C22_7 C 0.4844(2) 0.8307(4) 0.40805(17)
H6_7 H 0.4716 0.8571 0.4302
C30_5 C 0.6835(3) 0.9539(4) 0.36846(15)
H12_5 H 0.6678 0.9112 0.3485
C31_5 C 0.5453(2) 0.8068(4) 0.40857(17)
H13_5 H 0.5743 0.8166 0.4307
S2_5 S 0.64031(6) 0.73234(11) 0.37321(5)
S5_5 S 0.69053(6) 0.79577(11) 0.42033(5)
O3_3 O 0.35900(16) 0.8683(3) 0.40646(11)
O5_3 O 0.33932(17) 0.8366(3) 0.34318(11)
N4_5 N 0.7216(2) 0.9772(3) 0.43537(12)
N5_5 N 0.5230(2) 0.7532(4) 0.34294(15)
Gd3_3 Gd 0.282316(11) 0.921458(18) 0.441403(7)
Gd5_2 Gd 0.239496(10) 0.891230(18) 0.315565(7)
C3_7 C 0.1472(2) 0.9674(4) 0.38065(15)
C4_7 C 0.0803(2) 0.9923(4) 0.38091(15)
C8_6 C 0.1982(2) 0.4205(4) 0.40581(15)
C9_5 C 0.3709(2) 0.9211(4) 0.74235(15)
H1_5 H 0.3397 0.9039 0.7565
C10_7 C 0.2169(2) 0.6141(4) 0.39138(14)
C15_6 C 0.0622(2) 0.2689(4) 0.37639(18)
C16_7 C 0.0378(2) 0.9788(4) 0.34776(16)
H4_7 H 0.0520 0.9529 0.3260
C17_7 C 0.2285(2) 0.7207(4) 0.38517(17)
C18_5 C 0.4951(2) 0.8366(4) 0.61199(15)
C19_5 C 0.4473(2) 0.8742(4) 0.70805(14)
C25_5 C 0.3792(3) 0.8831(5) 0.50561(16)
C26_5 C 0.4219(2) 0.8662(4) 0.54248(15)
C27_7 C 0.1925(3) 0.5528(4) 0.36124(15)
H9_7 H 0.1823 0.5778 0.3362
C28_7 C 0.2308(3) 0.5723(4) 0.42756(15)
H10_7 H 0.2477 0.6128 0.4480
C29_5 C 0.4088(3) 0.7976(5) 0.56897(17)
H11_5 H 0.3732 0.7595 0.5625
C30_6 C 0.1835(3) 0.4539(4) 0.36846(15)
H12_6 H 0.1678 0.4112 0.3485
C31_6 C 0.0453(2) 0.3068(4) 0.40857(17)
H13_6 H 0.0743 0.3166 0.4307
C33_5 C 0.4618(2) 0.9712(4) 0.70095(15)
H15_5 H 0.4928 0.9864 0.6863
C34_3 C 0.5135(3) 0.9034(5) 0.58766(17)
H16_3 H 0.5503 0.9381 0.5944
C35_5 C 0.4767(3) 0.9191(5) 0.55259(18)
H17_5 H 0.4885 0.9655 0.5355
S2_6 S 0.14031(6) 0.23234(11) 0.37321(5)
S3_5 S 0.48414(7) 0.76746(11) 0.69252(4)
S4_3 S 0.54360(6) 0.81979(13) 0.65829(4)
S5_6 S 0.19053(6) 0.29577(11) 0.42033(5)
O1_7 O 0.16089(17) 0.9424(3) 0.34861(11)
O4_7 O 0.18416(16) 0.9733(3) 0.41167(11)
O6_7 O 0.15096(16) 0.8396(3) 0.27051(10)
H19_7 H 0.1335 0.7833 0.2691
H20_7 H 0.1214 0.8799 0.2639
O7_7 O 0.3854(2) 0.9588(3) 0.48594(12)
O8_7 O 0.20655(18) 0.8612(3) 0.48218(11)
H21_7 H 0.1799 0.8960 0.4914
H22_7 H 0.1902 0.8041 0.4813
O13_7 O 0.24451(19) 0.7733(3) 0.41394(12)
O14_7 O 0.26715(19) 0.7254(3) 0.28220(12)
H27_7 H 0.2961 0.7383 0.2692
H28_7 H 0.2354 0.7039 0.2673
O15_7 O 0.22008(19) 0.7502(3) 0.35071(12)
O16_7 O 0.33576(17) 0.8231(3) 0.49514(11)
N1_5 N 0.40266(19) 0.8486(3) 0.72834(12)
N2_5 N 0.4442(2) 0.7813(4) 0.60415(14)
N4_6 N 0.2216(2) 0.4772(3) 0.43537(12)
N5_6 N 0.0230(2) 0.2532(4) 0.34294(15)
O18_4 O 0.29634(16) 0.9332(3) 0.26624(10)
C5_7 C 0.3426(3) 0.9028(4) 0.25232(14)
C6_7 C 0.3821(2) 0.9793(4) 0.23689(14)
C32_7 C 0.4293(2) 0.9560(4) 0.21611(15)
H14_7 H 0.4391 0.8902 0.2124
H25_7 H 0.2693 0.9479 0.0108
O17_7 O 0.35686(19) 0.8133(3) 0.24963(12)
S1_5 S 0.16506(7) 0.00029(12) 0.17277(6)
C14_5 C 0.0417(2) 0.0371(4) 0.12335(19)
C24_5 C 0.0033(3) 0.0539(4) 0.08910(19)
H8_5 H 0.0187 0.0798 0.0678
S6_5 S 0.12153(7) 0.07115(11) 0.12547(6)
N3_5 N 0.0232(2) 0.0009(4) 0.15516(15)
C5_8 C 0.6574(3) 0.0972(4) 0.74768(14)
C6_8 C 0.6179(2) 0.0207(4) 0.76311(14)
C32_8 C 0.5707(2) 0.0440(4) 0.78389(15)
H14_8 H 0.5609 0.1098 0.7876
O2_4 O 0.70366(16) 0.0668(3) 0.73376(10)
H25_8 H 0.7307 0.0521 0.9892
O17_8 O 0.64314(19) 0.1867(3) 0.75037(12)
Gd4_4 Gd 0.760504(10) 0.108770(18) 0.684435(7)
C1_8 C 0.6255(2) 0.1568(4) 0.62494(16)
C2_8 C 0.5584(2) 0.1836(4) 0.62474(15)
C8_7 C 0.3018(2) 0.0795(4) 0.59419(15)
C15_7 C 0.4378(2) 0.2311(4) 0.62361(18)
C21_8 C 0.5378(2) 0.2212(4) 0.65720(16)
H5_8 H 0.5660 0.2295 0.6798
C22_8 C 0.5156(2) 0.1693(4) 0.59195(17)
H6_8 H 0.5284 0.1429 0.5698
C30_7 C 0.3165(3) 0.0461(4) 0.63154(15)
H12_7 H 0.3322 0.0888 0.6515
C31_7 C 0.4547(2) 0.1932(4) 0.59143(17)
H13_7 H 0.4257 0.1834 0.5693
S2_7 S 0.35969(6) 0.26766(11) 0.62679(5)
S5_7 S 0.30947(6) 0.20423(11) 0.57967(5)
O3_4 O 0.64100(16) 0.1317(3) 0.59354(11)
O5_4 O 0.66068(17) 0.1634(3) 0.65682(11)
N4_7 N 0.2784(2) 0.0228(3) 0.56463(12)
N5_7 N 0.4770(2) 0.2468(4) 0.65706(15)
Gd3_4 Gd 0.717684(11) 0.078542(18) 0.558597(7)
C3_8 C 0.8528(2) 0.0326(4) 0.61935(15)
C4_8 C 0.9197(2) 0.0077(4) 0.61909(15)
C8_8 C 0.8018(2) 0.5795(4) 0.59419(15)
C9_6 C 0.6291(2) 0.0789(4) 0.25765(15)
H1_6 H 0.6603 0.0961 0.2435
C10_8 C 0.7831(2) 0.3859(4) 0.60862(14)
C15_8 C 0.9378(2) 0.7311(4) 0.62361(18)
C16_8 C 0.9622(2) 0.0212(4) 0.65224(16)
H4_8 H 0.9480 0.0471 0.6740
C17_8 C 0.7715(2) 0.2793(4) 0.61483(17)
C18_6 C 0.5049(2) 0.1634(4) 0.38801(15)
C19_6 C 0.5527(2) 0.1258(4) 0.29195(14)
C25_6 C 0.6208(3) 0.1169(5) 0.49439(16)
C26_6 C 0.5781(2) 0.1338(4) 0.45752(15)
C27_8 C 0.8075(3) 0.4472(4) 0.63876(15)
H9_8 H 0.8177 0.4222 0.6638
C28_8 C 0.7692(3) 0.4277(4) 0.57244(15)
H10_8 H 0.7523 0.3872 0.5520
C29_6 C 0.5912(3) 0.2024(5) 0.43103(17)
H11_6 H 0.6268 0.2405 0.4375
C30_8 C 0.8165(3) 0.5461(4) 0.63154(15)
H12_8 H 0.8322 0.5888 0.6515
C31_8 C 0.9547(2) 0.6932(4) 0.59143(17)
H13_8 H 0.9257 0.6834 0.5693
C33_6 C 0.5382(2) 0.0288(4) 0.29905(15)
H15_6 H 0.5072 0.0136 0.3137
C34_4 C 0.4865(3) 0.0966(5) 0.41234(17)
H16_4 H 0.4497 0.0619 0.4056
C35_6 C 0.5233(3) 0.0809(5) 0.44741(18)
H17_6 H 0.5115 0.0345 0.4645
S2_8 S 0.85969(6) 0.76766(11) 0.62679(5)
S3_6 S 0.51586(7) 0.23254(11) 0.30748(4)
S4_4 S 0.45640(6) 0.18021(13) 0.34171(4)
S5_8 S 0.80947(6) 0.70423(11) 0.57967(5)
O1_8 O 0.83911(17) 0.0576(3) 0.65139(11)
O4_8 O 0.81584(16) 0.0267(3) 0.58833(11)
O6_8 O 0.84904(16) 0.1604(3) 0.72949(10)
H19_8 H 0.8665 0.2167 0.7309
H20_8 H 0.8786 0.1201 0.7361
O7_8 O 0.6146(2) 0.0412(3) 0.51406(12)
O8_8 O 0.79345(18) 0.1388(3) 0.51782(11)
H21_8 H 0.8201 0.1040 0.5086
H22_8 H 0.8098 0.1959 0.5187
O13_8 O 0.75549(19) 0.2267(3) 0.58606(12)
O14_8 O 0.73285(19) 0.2746(3) 0.71780(12)
H27_8 H 0.7039 0.2617 0.7308
H28_8 H 0.7646 0.2961 0.7327
O15_8 O 0.77992(19) 0.2498(3) 0.64929(12)
O16_8 O 0.66424(17) 0.1769(3) 0.50486(11)
N1_6 N 0.59734(19) 0.1514(3) 0.27166(12)
N2_6 N 0.5558(2) 0.2187(4) 0.39585(14)
N4_8 N 0.7784(2) 0.5228(3) 0.56463(12)
N5_8 N 0.9770(2) 0.7468(4) 0.65706(15)
C9_7 C 0.6291(2) 0.9211(4) 0.75765(15)
H1_7 H 0.6603 0.9039 0.7435
C18_7 C 0.5049(2) 0.8366(4) 0.88801(15)
C19_7 C 0.5527(2) 0.8742(4) 0.79195(14)
C25_7 C 0.6208(3) 0.8831(5) 0.99439(16)
C26_7 C 0.5781(2) 0.8662(4) 0.95752(15)
C29_7 C 0.5912(3) 0.7976(5) 0.93103(17)
H11_7 H 0.6268 0.7595 0.9375
C33_7 C 0.5382(2) 0.9712(4) 0.79905(15)
H15_7 H 0.5072 0.9864 0.8137
C34_5 C 0.4865(3) 0.9034(5) 0.91234(17)
H16_5 H 0.4497 0.9381 0.9056
C35_7 C 0.5233(3) 0.9191(5) 0.94741(18)
H17_7 H 0.5115 0.9655 0.9645
S3_7 S 0.51586(7) 0.76746(11) 0.80748(4)
S4_5 S 0.45640(6) 0.81979(13) 0.84171(4)
N1_7 N 0.59734(19) 0.8486(3) 0.77166(12)
N2_7 N 0.5558(2) 0.7813(4) 0.89585(14)
S1_6 S 0.83494(7) 0.00029(12) 0.32723(6)
C14_6 C 0.9583(2) 0.0371(4) 0.37665(19)
C24_6 C 0.9967(3) 0.0539(4) 0.41090(19)
H8_6 H 0.9813 0.0798 0.4322
S6_6 S 0.87847(7) 0.07115(11) 0.37453(6)
N3_6 N 0.9768(2) 0.0009(4) 0.34484(15)
C34_6 C 0.0135(3) 0.5966(5) 0.08766(17)
H16_6 H 0.0503 0.5619 0.0944
S4_6 S 0.04360(6) 0.68021(13) 0.15829(4)
C34_7 C 0.9865(3) 0.5966(5) 0.41234(17)
H16_7 H 0.9497 0.5619 0.4056
S4_7 S 0.95640(6) 0.68021(13) 0.34171(4)
C9_8 C 0.3709(2) 0.0789(4) 0.24235(15)
H1_8 H 0.3397 0.0961 0.2565
C18_8 C 0.4951(2) 0.1634(4) 0.11199(15)
C19_8 C 0.4473(2) 0.1258(4) 0.20805(14)
C25_8 C 0.3792(3) 0.1169(5) 0.00561(16)
C26_8 C 0.4219(2) 0.1338(4) 0.04248(15)
C29_8 C 0.4088(3) 0.2024(5) 0.06897(17)
H11_8 H 0.3732 0.2405 0.0625
C33_8 C 0.4618(2) 0.0288(4) 0.20095(15)
H15_8 H 0.4928 0.0136 0.1863
C34_8 C 0.5135(3) 0.0966(5) 0.08766(17)
H16_8 H 0.5503 0.0619 0.0944
C35_8 C 0.4767(3) 0.0809(5) 0.05259(18)
H17_8 H 0.4885 0.0345 0.0355
S3_8 S 0.48414(7) 0.23254(11) 0.19252(4)
S4_8 S 0.54360(6) 0.18021(13) 0.15829(4)
N1_8 N 0.40266(19) 0.1514(3) 0.22834(12)
N2_8 N 0.4442(2) 0.2187(4) 0.10415(14)
S1_7 S 0.83494(7) 0.99971(12) 0.82723(6)
C14_7 C 0.9583(2) 0.9629(4) 0.87665(19)
C24_7 C 0.9967(3) 0.9461(4) 0.91090(19)
H8_7 H 0.9813 0.9202 0.9322
S6_7 S 0.87847(7) 0.92885(11) 0.87453(6)
N3_7 N 0.9768(2) 0.9991(4) 0.84484(15)
S1_8 S 0.16506(7) 0.99971(12) 0.67277(6)
C14_8 C 0.0417(2) 0.9629(4) 0.62335(19)
C24_8 C 0.0033(3) 0.9461(4) 0.58910(19)
H8_8 H 0.0187 0.9202 0.5678
S6_8 S 0.12153(7) 0.92885(11) 0.62547(6)
N3_8 N 0.0232(2) 0.9991(4) 0.65516(15)
loop_
_geom_bond_atom_site_label_1
_geom_bond_atom_site_label_2
_geom_bond_site_symmetry_1
_geom_bond_site_symmetry_2
S1 C7 1_555 1_555
C3 C4 1_555 1_555
C4 C16 1_555 1_555
C7 C36 1_555 1_555
C10 C17 1_555 1_555
C11 H2 1_555 1_555
C12 C11 1_555 1_555
C13 C12 1_555 1_555
H3 C13 1_555 1_555
C14 C24 1_555 1_555
C16 H4 1_555 1_555
C17 O13 1_555 1_555
C20 C12 1_555 1_555
C23 C4 1_555 1_555
H7 C23 1_555 1_555
C24 C23 1_555 1_555
H8 C24 1_555 1_555
C27 C10 1_555 1_555
H9 C27 1_555 1_555
C28 C10 1_555 1_555
H10 C28 1_555 1_555
C36 C11 1_555 1_555
H18 C36 1_555 1_555
Gd1 O4 1_555 1_555
Gd2 O1 1_555 1_555
S6 S1 1_555 1_555
O1 C3 1_555 1_555
O4 C3 1_555 1_555
O6 Gd2 1_555 1_555
H19 O6 1_555 1_555
H20 O6 1_555 1_555
O8 Gd1 1_555 1_555
H21 O8 1_555 1_555
H22 O8 1_555 1_555
O9 Gd2 1_555 1_555
H23 O9 1_555 1_555
H24 O9 1_555 1_555
O10 C20 1_555 1_555
O11 Gd1 1_555 1_555
H26 O11 1_555 1_555
O12 C20 1_555 1_555
O13 Gd1 1_555 1_555
O14 Gd2 1_555 1_555
H27 O14 1_555 1_555
H28 O14 1_555 1_555
O15 C17 1_555 1_555
N3 C14 1_555 1_555
N6 C7 1_555 1_555
O18 Gd2 1_555 1_555
O19 Gd1 1_555 1_555
O20 Gd2 1_555 1_555
O21 Gd1 1_555 1_555
O22 Gd2 1_555 1_555
C13 N6 1_555 1_555
C14 S6 1_555 1_555
C16 N3 1_555 1_555
Gd1 O7 1_555 1_555
Gd1 O16 1_555 1_555
Gd2 O15 1_555 1_555
C5 C6 1_555 1_555
C6 C9 1_555 1_555
C9 H1 1_555 1_555
C19 C33 1_555 1_555
C25 C26 1_555 1_555
C26 C29 1_555 1_555
C29 H11 1_555 1_555
C32 C6 1_555 1_555
H14 C32 1_555 1_555
C33 C32 1_555 1_555
H15 C33 1_555 1_555
C35 C26 1_555 1_555
H17 C35 1_555 1_555
S3 C19 1_555 1_555
O2 C5 1_555 1_555
O17 C5 1_555 1_555
N1 C9 1_555 1_555
N2 C18 1_555 1_555
Gd4 O2 1_555 1_555
C19 N1 1_555 1_555
C29 N2 1_555 1_555
C1 C2 1_555 1_555
C2 C21 1_555 1_555
C8 C30 1_555 1_555
C15 C31 1_555 1_555
C21 H5 1_555 1_555
C22 C2 1_555 1_555
H6 C22 1_555 1_555
H12 C30 1_555 1_555
C31 C22 1_555 1_555
H13 C31 1_555 1_555
S2 C15 1_555 1_555
S5 C8 1_555 1_555
O3 C1 1_555 1_555
O5 C1 1_555 1_555
N4 C8 1_555 1_555
N5 C15 1_555 1_555
Gd3 O3 1_555 1_555
Gd5 O5 1_555 1_555
C21 N5 1_555 1_555
S2 S5 1_555 1_555
C1_2 C2_2 1_555 1_555
C2_2 C21_2 1_555 1_555
C7_2 C36_2 1_555 1_555
C11_2 H2_2 1_555 1_555
C12_2 C11_2 1_555 1_555
C13_2 C12_2 1_555 1_555
H3_2 C13_2 1_555 1_555
C20_2 C12_2 1_555 1_555
C21_2 H5_2 1_555 1_555
C22_2 C2_2 1_555 1_555
H6_2 C22_2 1_555 1_555
C36_2 C11_2 1_555 1_555
H18_2 C36_2 1_555 1_555
O19 C1_2 1_555 1_555
O20 C1_2 1_555 1_555
O21 C20_2 1_555 1_555
O22 C20_2 1_555 1_555
N6_2 C7_2 1_555 1_555
C13_2 N6_2 1_555 1_555
H7_2 C23_2 1_555 1_555
H23_2 O9_2 1_555 1_555
H24_2 O9_2 1_555 1_555
H26_2 O11_2 1_555 1_555
C3_2 C4_2 1_555 1_555
C4_2 C16_2 1_555 1_555
C8_2 C30_2 1_555 1_555
C10_2 C17_2 1_555 1_555
C15_2 C31_2 1_555 1_555
C16_2 H4_2 1_555 1_555
C17_2 O13_2 1_555 1_555
C27_2 C10_2 1_555 1_555
H9_2 C27_2 1_555 1_555
C28_2 C10_2 1_555 1_555
H10_2 C28_2 1_555 1_555
C30_2 C27_2 1_555 1_555
H12_2 C30_2 1_555 1_555
H13_2 C31_2 1_555 1_555
Gd3 O4_2 1_555 1_555
Gd5 O1_2 1_555 1_555
S2_2 C15_2 1_555 1_555
S5_2 C8_2 1_555 1_555
O1_2 C3_2 1_555 1_555
O4_2 C3_2 1_555 1_555
O6_2 Gd5 1_555 1_555
H19_2 O6_2 1_555 1_555
H20_2 O6_2 1_555 1_555
O8_2 Gd3 1_555 1_555
H21_2 O8_2 1_555 1_555
H22_2 O8_2 1_555 1_555
O13_2 Gd3 1_555 1_555
O14_2 Gd5 1_555 1_555
H27_2 O14_2 1_555 1_555
H28_2 O14_2 1_555 1_555
O15_2 C17_2 1_555 1_555
N4_2 C8_2 1_555 1_555
N5_2 C15_2 1_555 1_555
O18_2 Gd5 1_555 1_555
C28_2 N4_2 1_555 1_555
Gd3 O7_2 1_555 1_555
Gd3 O16_2 1_555 1_555
Gd5 O15_2 1_555 1_555
S2_2 S5_2 1_555 1_555
S1_2 C7_3 1_555 1_555
C3_3 C4_3 1_555 1_555
C4_3 C16_3 1_555 1_555
C5_2 C6_2 1_555 1_555
C6_2 C9_2 1_555 1_555
C7_3 C36_3 1_555 1_555
C9_2 H1_2 1_555 1_555
C10_3 C17_3 1_555 1_555
C11_3 H2_3 1_555 1_555
C12_3 C11_3 1_555 1_555
C13_3 C12_3 1_555 1_555
H3_3 C13_3 1_555 1_555
C14_2 C24_2 1_555 1_555
C16_3 H4_3 1_555 1_555
C17_3 O13_3 1_555 1_555
C19_2 C33_2 1_555 1_555
C20_3 C12_3 1_555 1_555
C23_3 C4_3 1_555 1_555
H7_3 C23_3 1_555 1_555
C24_2 C23_3 1_555 1_555
H8_2 C24_2 1_555 1_555
C25_2 C26_2 1_555 1_555
C26_2 C29_2 1_555 1_555
C27_3 C10_3 1_555 1_555
H9_3 C27_3 1_555 1_555
C28_3 C10_3 1_555 1_555
H10_3 C28_3 1_555 1_555
C29_2 H11_2 1_555 1_555
C32_2 C6_2 1_555 1_555
H14_2 C32_2 1_555 1_555
C33_2 C32_2 1_555 1_555
H15_2 C33_2 1_555 1_555
C35_2 C26_2 1_555 1_555
H17_2 C35_2 1_555 1_555
C36_3 C11_3 1_555 1_555
H18_3 C36_3 1_555 1_555
Gd1_2 O4_3 1_555 1_555
Gd4 O1_3 1_555 1_555
S3_2 C19_2 1_555 1_555
S6_2 S1_2 1_555 1_555
O1_3 C3_3 1_555 1_555
O18 C5_2 1_555 1_555
O4_3 C3_3 1_555 1_555
O6_3 Gd4 1_555 1_555
H19_3 O6_3 1_555 1_555
H20_3 O6_3 1_555 1_555
O7_3 C25_2 1_555 1_555
O8_3 Gd1_2 1_555 1_555
H21_3 O8_3 1_555 1_555
H22_3 O8_3 1_555 1_555
O9_3 Gd4 1_555 1_555
H23_3 O9_3 1_555 1_555
H24_3 O9_3 1_555 1_555
O10_2 C20_3 1_555 1_555
O11_3 Gd1_2 1_555 1_555
H25_2 O11_3 1_555 1_555
H26_3 O11_3 1_555 1_555
O12_2 C20_3 1_555 1_555
O13_3 Gd1_2 1_555 1_555
O14_3 Gd4 1_555 1_555
H27_3 O14_3 1_555 1_555
H28_3 O14_3 1_555 1_555
O15_3 C17_3 1_555 1_555
O16_3 C25_2 1_555 1_555
O17_2 C5_2 1_555 1_555
N1_2 C9_2 1_555 1_555
N2_2 C18_2 1_555 1_555
N3_2 C14_2 1_555 1_555
N6_3 C7_3 1_555 1_555
O19_2 Gd1_2 1_555 1_555
O20_2 Gd4 1_555 1_555
O21_2 Gd1_2 1_555 1_555
O22_2 Gd4 1_555 1_555
C13_3 N6_3 1_555 1_555
C14_2 S6_2 1_555 1_555
C16_3 N3_2 1_555 1_555
C19_2 N1_2 1_555 1_555
C29_2 N2_2 1_555 1_555
Gd1_2 O7_3 1_555 1_555
Gd1_2 O16_3 1_555 1_555
Gd4 O15_3 1_555 1_555
C1_3 C2_3 1_555 1_555
C2_3 C21_3 1_555 1_555
C7_4 C36_4 1_555 1_555
C11_4 H2_4 1_555 1_555
C12_4 C11_4 1_555 1_555
C13_4 C12_4 1_555 1_555
H3_4 C13_4 1_555 1_555
C20_4 C12_4 1_555 1_555
C21_3 H5_3 1_555 1_555
C22_3 C2_3 1_555 1_555
H6_3 C22_3 1_555 1_555
C36_4 C11_4 1_555 1_555
H18_4 C36_4 1_555 1_555
O19_2 C1_3 1_555 1_555
O20_2 C1_3 1_555 1_555
O21_2 C20_4 1_555 1_555
O22_2 C20_4 1_555 1_555
N6_4 C7_4 1_555 1_555
C13_4 N6_4 1_555 1_555
C5_3 C6_3 1_555 1_555
H7_4 C23_4 1_555 1_555
C32_3 C6_3 1_555 1_555
H14_3 C32_3 1_555 1_555
O18_2 C5_3 1_555 1_555
H23_4 O9_4 1_555 1_555
H24_4 O9_4 1_555 1_555
H25_3 O11_4 1_555 1_555
H26_4 O11_4 1_555 1_555
O17_3 C5_3 1_555 1_555
C34 H16 1_555 1_555
C34_2 H16_2 1_555 1_555
S1_3 C7_5 1_555 1_555
C3_4 C4_4 1_555 1_555
C4_4 C16_4 1_555 1_555
C5_4 C6_4 1_555 1_555
C6_4 C9_3 1_555 1_555
C7_5 C36_5 1_555 1_555
C9_3 H1_3 1_555 1_555
C10_4 C17_4 1_555 1_555
C11_5 H2_5 1_555 1_555
C12_5 C11_5 1_555 1_555
C13_5 C12_5 1_555 1_555
H3_5 C13_5 1_555 1_555
C14_3 C24_3 1_555 1_555
C16_4 H4_4 1_555 1_555
C17_4 O13_4 1_555 1_555
C19_3 C33_3 1_555 1_555
C20_5 C12_5 1_555 1_555
C23_5 C4_4 1_555 1_555
H7_5 C23_5 1_555 1_555
C24_3 C23_5 1_555 1_555
H8_3 C24_3 1_555 1_555
C25_3 C26_3 1_555 1_555
C26_3 C29_3 1_555 1_555
C27_4 C10_4 1_555 1_555
H9_4 C27_4 1_555 1_555
C28_4 C10_4 1_555 1_555
H10_4 C28_4 1_555 1_555
C29_3 H11_3 1_555 1_555
C32_4 C6_4 1_555 1_555
H14_4 C32_4 1_555 1_555
C33_3 C32_4 1_555 1_555
H15_3 C33_3 1_555 1_555
C35_3 C26_3 1_555 1_555
H17_3 C35_3 1_555 1_555
C36_5 C11_5 1_555 1_555
H18_5 C36_5 1_555 1_555
Gd1_3 O4_4 1_555 1_555
Gd2_2 O1_4 1_555 1_555
S3_3 C19_3 1_555 1_555
S6_3 S1_3 1_555 1_555
O1_4 C3_4 1_555 1_555
O2_2 C5_4 1_555 1_555
O4_4 C3_4 1_555 1_555
O6_4 Gd2_2 1_555 1_555
H19_4 O6_4 1_555 1_555
H20_4 O6_4 1_555 1_555
O7_4 C25_3 1_555 1_555
O8_4 Gd1_3 1_555 1_555
H21_4 O8_4 1_555 1_555
H22_4 O8_4 1_555 1_555
O9_5 Gd2_2 1_555 1_555
H23_5 O9_5 1_555 1_555
H24_5 O9_5 1_555 1_555
O10_3 C20_5 1_555 1_555
O11_5 Gd1_3 1_555 1_555
H25_4 O11_5 1_555 1_555
H26_5 O11_5 1_555 1_555
O12_3 C20_5 1_555 1_555
O13_4 Gd1_3 1_555 1_555
O14_4 Gd2_2 1_555 1_555
H27_4 O14_4 1_555 1_555
H28_4 O14_4 1_555 1_555
O15_4 C17_4 1_555 1_555
O16_4 C25_3 1_555 1_555
O17_4 C5_4 1_555 1_555
N1_3 C9_3 1_555 1_555
N2_3 C18_3 1_555 1_555
N3_3 C14_3 1_555 1_555
N6_5 C7_5 1_555 1_555
Gd4_2 O2_2 1_555 1_555
O18_3 Gd2_2 1_555 1_555
O19_3 Gd1_3 1_555 1_555
O20_3 Gd2_2 1_555 1_555
O21_3 Gd1_3 1_555 1_555
O22_3 Gd2_2 1_555 1_555
C13_5 N6_5 1_555 1_555
C14_3 S6_3 1_555 1_555
C16_4 N3_3 1_555 1_555
C19_3 N1_3 1_555 1_555
C29_3 N2_3 1_555 1_555
Gd1_3 O7_4 1_555 1_555
Gd1_3 O16_4 1_555 1_555
Gd2_2 O15_4 1_555 1_555
C5_5 C6_5 1_555 1_555
H7_6 C23_6 1_555 1_555
C32_5 C6_5 1_555 1_555
H14_5 C32_5 1_555 1_555
O2_3 C5_5 1_555 1_555
H23_6 O9_6 1_555 1_555
H24_6 O9_6 1_555 1_555
H25_5 O11_6 1_555 1_555
H26_6 O11_6 1_555 1_555
O17_5 C5_5 1_555 1_555
Gd4_3 O2_3 1_555 1_555
C1_4 C2_4 1_555 1_555
C2_4 C21_4 1_555 1_555
C7_6 C36_6 1_555 1_555
C11_6 H2_6 1_555 1_555
C12_6 C11_6 1_555 1_555
C13_6 C12_6 1_555 1_555
H3_6 C13_6 1_555 1_555
C20_6 C12_6 1_555 1_555
C21_4 H5_4 1_555 1_555
C22_4 C2_4 1_555 1_555
H6_4 C22_4 1_555 1_555
C36_6 C11_6 1_555 1_555
H18_6 C36_6 1_555 1_555
O19_3 C1_4 1_555 1_555
O20_3 C1_4 1_555 1_555
O21_3 C20_6 1_555 1_555
O22_3 C20_6 1_555 1_555
N6_6 C7_6 1_555 1_555
C13_6 N6_6 1_555 1_555
C1_5 C2_5 1_555 1_555
C2_5 C21_5 1_555 1_555
C8_3 C30_3 1_555 1_555
C15_3 C31_3 1_555 1_555
C21_5 H5_5 1_555 1_555
C22_5 C2_5 1_555 1_555
H6_5 C22_5 1_555 1_555
H12_3 C30_3 1_555 1_555
C31_3 C22_5 1_555 1_555
H13_3 C31_3 1_555 1_555
S2_3 C15_3 1_555 1_555
S5_3 C8_3 1_555 1_555
O3_2 C1_5 1_555 1_555
O5_2 C1_5 1_555 1_555
N4_3 C8_3 1_555 1_555
N5_3 C15_3 1_555 1_555
Gd3_2 O3_2 1_555 1_555
Gd4_3 O5_2 1_555 1_555
C21_5 N5_3 1_555 1_555
S2_3 S5_3 1_555 1_555
C5_6 C6_6 1_555 1_555
C6_6 C9_4 1_555 1_555
C9_4 H1_4 1_555 1_555
C19_4 C33_4 1_555 1_555
C25_4 C26_4 1_555 1_555
C26_4 C29_4 1_555 1_555
C29_4 H11_4 1_555 1_555
C32_6 C6_6 1_555 1_555
H14_6 C32_6 1_555 1_555
C33_4 C32_6 1_555 1_555
H15_4 C33_4 1_555 1_555
C35_4 C26_4 1_555 1_555
H17_4 C35_4 1_555 1_555
S3_4 C19_4 1_555 1_555
O18_3 C5_6 1_555 1_555
O17_6 C5_6 1_555 1_555
N1_4 C9_4 1_555 1_555
N2_4 C18_4 1_555 1_555
C19_4 N1_4 1_555 1_555
C29_4 N2_4 1_555 1_555
S1_4 C7_7 1_555 1_555
C3_5 C4_5 1_555 1_555
C4_5 C16_5 1_555 1_555
C7_7 C36_7 1_555 1_555
C10_5 C17_5 1_555 1_555
C11_7 H2_7 1_555 1_555
C12_7 C11_7 1_555 1_555
C13_7 C12_7 1_555 1_555
H3_7 C13_7 1_555 1_555
C14_4 C24_4 1_555 1_555
C16_5 H4_5 1_555 1_555
C17_5 O13_5 1_555 1_555
C20_7 C12_7 1_555 1_555
C23_7 C4_5 1_555 1_555
H7_7 C23_7 1_555 1_555
C24_4 C23_7 1_555 1_555
H8_4 C24_4 1_555 1_555
C27_5 C10_5 1_555 1_555
H9_5 C27_5 1_555 1_555
C28_5 C10_5 1_555 1_555
H10_5 C28_5 1_555 1_555
C36_7 C11_7 1_555 1_555
H18_7 C36_7 1_555 1_555
Gd1_4 O4_5 1_555 1_555
Gd4_2 O1_5 1_555 1_555
S6_4 S1_4 1_555 1_555
O1_5 C3_5 1_555 1_555
O4_5 C3_5 1_555 1_555
O6_5 Gd4_2 1_555 1_555
H19_5 O6_5 1_555 1_555
H20_5 O6_5 1_555 1_555
O8_5 Gd1_4 1_555 1_555
H21_5 O8_5 1_555 1_555
H22_5 O8_5 1_555 1_555
O9_7 Gd4_2 1_555 1_555
H23_7 O9_7 1_555 1_555
H24_7 O9_7 1_555 1_555
O10_4 C20_7 1_555 1_555
O11_7 Gd1_4 1_555 1_555
H26_7 O11_7 1_555 1_555
O12_4 C20_7 1_555 1_555
O13_5 Gd1_4 1_555 1_555
O14_5 Gd4_2 1_555 1_555
H27_5 O14_5 1_555 1_555
H28_5 O14_5 1_555 1_555
O15_5 C17_5 1_555 1_555
N3_4 C14_4 1_555 1_555
N6_7 C7_7 1_555 1_555
O19_4 Gd1_4 1_555 1_555
O20_4 Gd4_2 1_555 1_555
O21_4 Gd1_4 1_555 1_555
O22_4 Gd4_2 1_555 1_555
C13_7 N6_7 1_555 1_555
C14_4 S6_4 1_555 1_555
C16_5 N3_4 1_555 1_555
Gd1_4 O7_5 1_555 1_555
Gd1_4 O16_5 1_555 1_555
Gd4_2 O15_5 1_555 1_555
C3_6 C4_6 1_555 1_555
C4_6 C16_6 1_555 1_555
C8_4 C30_4 1_555 1_555
C10_6 C17_6 1_555 1_555
C15_4 C31_4 1_555 1_555
C16_6 H4_6 1_555 1_555
C17_6 O13_6 1_555 1_555
C27_6 C10_6 1_555 1_555
H9_6 C27_6 1_555 1_555
C28_6 C10_6 1_555 1_555
H10_6 C28_6 1_555 1_555
C30_4 C27_6 1_555 1_555
H12_4 C30_4 1_555 1_555
H13_4 C31_4 1_555 1_555
Gd3_2 O4_6 1_555 1_555
Gd4_3 O1_6 1_555 1_555
S2_4 C15_4 1_555 1_555
S5_4 C8_4 1_555 1_555
O1_6 C3_6 1_555 1_555
O4_6 C3_6 1_555 1_555
O6_6 Gd4_3 1_555 1_555
H19_6 O6_6 1_555 1_555
H20_6 O6_6 1_555 1_555
O8_6 Gd3_2 1_555 1_555
H21_6 O8_6 1_555 1_555
H22_6 O8_6 1_555 1_555
O13_6 Gd3_2 1_555 1_555
O14_6 Gd4_3 1_555 1_555
H27_6 O14_6 1_555 1_555
H28_6 O14_6 1_555 1_555
O15_6 C17_6 1_555 1_555
N4_4 C8_4 1_555 1_555
N5_4 C15_4 1_555 1_555
C28_6 N4_4 1_555 1_555
Gd3_2 O7_6 1_555 1_555
Gd3_2 O16_6 1_555 1_555
Gd4_3 O15_6 1_555 1_555
S2_4 S5_4 1_555 1_555
H7_8 C23_8 1_555 1_555
H23_8 O9_8 1_555 1_555
H24_8 O9_8 1_555 1_555
H26_8 O11_8 1_555 1_555
C1_6 C2_6 1_555 1_555
C2_6 C21_6 1_555 1_555
C7_8 C36_8 1_555 1_555
C11_8 H2_8 1_555 1_555
C12_8 C11_8 1_555 1_555
C13_8 C12_8 1_555 1_555
H3_8 C13_8 1_555 1_555
C20_8 C12_8 1_555 1_555
C21_6 H5_6 1_555 1_555
C22_6 C2_6 1_555 1_555
H6_6 C22_6 1_555 1_555
C36_8 C11_8 1_555 1_555
H18_8 C36_8 1_555 1_555
O19_4 C1_6 1_555 1_555
O20_4 C1_6 1_555 1_555
O21_4 C20_8 1_555 1_555
O22_4 C20_8 1_555 1_555
N6_8 C7_8 1_555 1_555
C13_8 N6_8 1_555 1_555
C1_7 C2_7 1_555 1_555
C2_7 C21_7 1_555 1_555
C8_5 C30_5 1_555 1_555
C15_5 C31_5 1_555 1_555
C21_7 H5_7 1_555 1_555
C22_7 C2_7 1_555 1_555
H6_7 C22_7 1_555 1_555
H12_5 C30_5 1_555 1_555
C31_5 C22_7 1_555 1_555
H13_5 C31_5 1_555 1_555
S2_5 C15_5 1_555 1_555
S5_5 C8_5 1_555 1_555
O3_3 C1_7 1_555 1_555
O5_3 C1_7 1_555 1_555
N4_5 C8_5 1_555 1_555
N5_5 C15_5 1_555 1_555
Gd3_3 O3_3 1_555 1_555
Gd5_2 O5_3 1_555 1_555
C21_7 N5_5 1_555 1_555
S2_5 S5_5 1_555 1_555
C3_7 C4_7 1_555 1_555
C4_7 C16_7 1_555 1_555
C8_6 C30_6 1_555 1_555
C9_5 H1_5 1_555 1_555
C10_7 C17_7 1_555 1_555
C15_6 C31_6 1_555 1_555
C16_7 H4_7 1_555 1_555
C17_7 O13_7 1_555 1_555
C18_5 C34_3 1_555 1_555
C19_5 C33_5 1_555 1_555
C25_5 C26_5 1_555 1_555
C26_5 C29_5 1_555 1_555
C27_7 C10_7 1_555 1_555
H9_7 C27_7 1_555 1_555
C28_7 C10_7 1_555 1_555
H10_7 C28_7 1_555 1_555
C29_5 H11_5 1_555 1_555
C30_6 C27_7 1_555 1_555
H12_6 C30_6 1_555 1_555
H13_6 C31_6 1_555 1_555
H15_5 C33_5 1_555 1_555
C34_3 H16_3 1_555 1_555
C35_5 C26_5 1_555 1_555
H17_5 C35_5 1_555 1_555
Gd3_3 O4_7 1_555 1_555
Gd5_2 O1_7 1_555 1_555
S2_6 C15_6 1_555 1_555
S3_5 C19_5 1_555 1_555
S4_3 C18_5 1_555 1_555
S5_6 C8_6 1_555 1_555
O1_7 C3_7 1_555 1_555
O4_7 C3_7 1_555 1_555
O6_7 Gd5_2 1_555 1_555
H19_7 O6_7 1_555 1_555
H20_7 O6_7 1_555 1_555
O7_7 C25_5 1_555 1_555
O8_7 Gd3_3 1_555 1_555
H21_7 O8_7 1_555 1_555
H22_7 O8_7 1_555 1_555
O13_7 Gd3_3 1_555 1_555
O14_7 Gd5_2 1_555 1_555
H27_7 O14_7 1_555 1_555
H28_7 O14_7 1_555 1_555
O15_7 C17_7 1_555 1_555
O16_7 C25_5 1_555 1_555
N1_5 C9_5 1_555 1_555
N2_5 C18_5 1_555 1_555
N4_6 C8_6 1_555 1_555
N5_6 C15_6 1_555 1_555
O18_4 Gd5_2 1_555 1_555
C19_5 N1_5 1_555 1_555
C28_7 N4_6 1_555 1_555
C29_5 N2_5 1_555 1_555
C34_3 C35_5 1_555 1_555
Gd3_3 O7_7 1_555 1_555
Gd3_3 O16_7 1_555 1_555
Gd5_2 O15_7 1_555 1_555
S2_6 S5_6 1_555 1_555
S3_5 S4_3 1_555 1_555
C5_7 C6_7 1_555 1_555
C32_7 C6_7 1_555 1_555
H14_7 C32_7 1_555 1_555
O18_4 C5_7 1_555 1_555
O17_7 C5_7 1_555 1_555
C14_5 C24_5 1_555 1_555
H8_5 C24_5 1_555 1_555
S6_5 S1_5 1_555 1_555
N3_5 C14_5 1_555 1_555
C14_5 S6_5 1_555 1_555
C5_8 C6_8 1_555 1_555
C32_8 C6_8 1_555 1_555
H14_8 C32_8 1_555 1_555
O2_4 C5_8 1_555 1_555
O17_8 C5_8 1_555 1_555
Gd4_4 O2_4 1_555 1_555
C1_8 C2_8 1_555 1_555
C2_8 C21_8 1_555 1_555
C8_7 C30_7 1_555 1_555
C15_7 C31_7 1_555 1_555
C21_8 H5_8 1_555 1_555
C22_8 C2_8 1_555 1_555
H6_8 C22_8 1_555 1_555
H12_7 C30_7 1_555 1_555
C31_7 C22_8 1_555 1_555
H13_7 C31_7 1_555 1_555
S2_7 C15_7 1_555 1_555
S5_7 C8_7 1_555 1_555
O3_4 C1_8 1_555 1_555
O5_4 C1_8 1_555 1_555
N4_7 C8_7 1_555 1_555
N5_7 C15_7 1_555 1_555
Gd3_4 O3_4 1_555 1_555
Gd4_4 O5_4 1_555 1_555
C21_8 N5_7 1_555 1_555
S2_7 S5_7 1_555 1_555
C3_8 C4_8 1_555 1_555
C4_8 C16_8 1_555 1_555
C8_8 C30_8 1_555 1_555
C9_6 H1_6 1_555 1_555
C10_8 C17_8 1_555 1_555
C15_8 C31_8 1_555 1_555
C16_8 H4_8 1_555 1_555
C17_8 O13_8 1_555 1_555
C18_6 C34_4 1_555 1_555
C19_6 C33_6 1_555 1_555
C25_6 C26_6 1_555 1_555
C26_6 C29_6 1_555 1_555
C27_8 C10_8 1_555 1_555
H9_8 C27_8 1_555 1_555
C28_8 C10_8 1_555 1_555
H10_8 C28_8 1_555 1_555
C29_6 H11_6 1_555 1_555
C30_8 C27_8 1_555 1_555
H12_8 C30_8 1_555 1_555
H13_8 C31_8 1_555 1_555
H15_6 C33_6 1_555 1_555
C34_4 H16_4 1_555 1_555
C35_6 C26_6 1_555 1_555
H17_6 C35_6 1_555 1_555
Gd3_4 O4_8 1_555 1_555
Gd4_4 O1_8 1_555 1_555
S2_8 C15_8 1_555 1_555
S3_6 C19_6 1_555 1_555
S4_4 C18_6 1_555 1_555
S5_8 C8_8 1_555 1_555
O1_8 C3_8 1_555 1_555
O4_8 C3_8 1_555 1_555
O6_8 Gd4_4 1_555 1_555
H19_8 O6_8 1_555 1_555
H20_8 O6_8 1_555 1_555
O7_8 C25_6 1_555 1_555
O8_8 Gd3_4 1_555 1_555
H21_8 O8_8 1_555 1_555
H22_8 O8_8 1_555 1_555
O13_8 Gd3_4 1_555 1_555
O14_8 Gd4_4 1_555 1_555
H27_8 O14_8 1_555 1_555
H28_8 O14_8 1_555 1_555
O15_8 C17_8 1_555 1_555
O16_8 C25_6 1_555 1_555
N1_6 C9_6 1_555 1_555
N2_6 C18_6 1_555 1_555
N4_8 C8_8 1_555 1_555
N5_8 C15_8 1_555 1_555
C19_6 N1_6 1_555 1_555
C28_8 N4_8 1_555 1_555
C29_6 N2_6 1_555 1_555
C34_4 C35_6 1_555 1_555
Gd3_4 O7_8 1_555 1_555
Gd3_4 O16_8 1_555 1_555
Gd4_4 O15_8 1_555 1_555
S2_8 S5_8 1_555 1_555
S3_6 S4_4 1_555 1_555
C9_7 H1_7 1_555 1_555
C18_7 C34_5 1_555 1_555
C19_7 C33_7 1_555 1_555
C25_7 C26_7 1_555 1_555
C26_7 C29_7 1_555 1_555
C29_7 H11_7 1_555 1_555
H15_7 C33_7 1_555 1_555
C34_5 H16_5 1_555 1_555
C35_7 C26_7 1_555 1_555
H17_7 C35_7 1_555 1_555
S3_7 C19_7 1_555 1_555
S4_5 C18_7 1_555 1_555
N1_7 C9_7 1_555 1_555
N2_7 C18_7 1_555 1_555
C19_7 N1_7 1_555 1_555
C29_7 N2_7 1_555 1_555
C34_5 C35_7 1_555 1_555
S3_7 S4_5 1_555 1_555
C14_6 C24_6 1_555 1_555
H8_6 C24_6 1_555 1_555
S6_6 S1_6 1_555 1_555
N3_6 C14_6 1_555 1_555
C14_6 S6_6 1_555 1_555
C34_6 H16_6 1_555 1_555
C34_7 H16_7 1_555 1_555
C9_8 H1_8 1_555 1_555
C18_8 C34_8 1_555 1_555
C19_8 C33_8 1_555 1_555
C25_8 C26_8 1_555 1_555
C26_8 C29_8 1_555 1_555
C29_8 H11_8 1_555 1_555
H15_8 C33_8 1_555 1_555
C34_8 H16_8 1_555 1_555
C35_8 C26_8 1_555 1_555
H17_8 C35_8 1_555 1_555
S3_8 C19_8 1_555 1_555
S4_8 C18_8 1_555 1_555
N1_8 C9_8 1_555 1_555
N2_8 C18_8 1_555 1_555
C19_8 N1_8 1_555 1_555
C29_8 N2_8 1_555 1_555
C34_8 C35_8 1_555 1_555
S3_8 S4_8 1_555 1_555
C14_7 C24_7 1_555 1_555
H8_7 C24_7 1_555 1_555
S6_7 S1_7 1_555 1_555
N3_7 C14_7 1_555 1_555
C14_7 S6_7 1_555 1_555
C14_8 C24_8 1_555 1_555
H8_8 C24_8 1_555 1_555
S6_8 S1_8 1_555 1_555
N3_8 C14_8 1_555 1_555
C14_8 S6_8 1_555 1_555

#END
