
###############################################################################
#
# This file contains modified crystal structure data generated from the
# MOF subset of the Cambridge Structural Database (CSD) v543 
# hosted by the Cambridge Crystallographic Data Centre (CCDC).
#
# This work is licensed under the Creative Commons
# Attribution-NonCommercial-ShareAlike 4.0 International License.
# To view a copy of this license, visit
# http://creativecommons.org/licenses/by-nc-sa/4.0/
# or send a letter to
# Creative Commons, PO Box 1866, Mountain View, CA 94042, USA.
#
# CIF created using the CSD Python API on 29 September 2022
# The structure has been converted into the P1 space group
# The structure has a 3D framework
# The original CSD entry GAJTUI is in the monoclinic crystal system
# The framework has been calculated to contain at least 10.0% void space
# The void calculation uses a probe of radius 1.32A, grid spacing 0.4
# H atom positions have been added when not included in the experimental data
#
###############################################################################

data_GAJTUI
_chemical_formula_moiety         '(C288 H224 N48 O136 S48 Tb16)n'
_symmetry_cell_setting           triclinic
_symmetry_space_group_name_H-M   'P 1'
_symmetry_Int_Tables_number      1
_space_group_name_Hall           'P 1'
loop_
_symmetry_equiv_pos_site_id
_symmetry_equiv_pos_as_xyz
1 x,y,z
_cell_length_a                   21.8113(12)
_cell_length_b                   13.5543(7)
_cell_length_c                   34.8725(19)
_cell_angle_alpha                90
_cell_angle_beta                 98.9540(10)
_cell_angle_gamma                90
_cell_volume                     10184
loop_
_atom_site_label
_atom_site_type_symbol
_atom_site_fract_x
_atom_site_fract_y
_atom_site_fract_z
Tb1 Tb 0.282864(10) 0.079212(16) 0.441157(6)
Tb2 Tb 0.239839(9) 0.109620(16) 0.315859(6)
C1 C 0.1480(2) 0.0340(3) 0.38027(14)
C2 C 0.0809(2) 0.0084(3) 0.38080(13)
C6 C 0.0384(2) 0.0226(4) 0.34794(15)
H3 H 0.0525 0.0490 0.3263
C16 C 0.4612(2) 0.0274(4) 0.70125(14)
H8 H 0.4924 0.0125 0.6868
C17 C 0.4462(2) 0.1242(4) 0.70829(13)
C18 C 0.3703(2) 0.0769(4) 0.74263(13)
H9 H 0.3394 0.0943 0.7570
C19 C 0.4943(2) 0.1628(4) 0.61232(14)
C20 C 0.5136(3) 0.0958(4) 0.58794(16)
H10 H 0.5507 0.0615 0.5947
C21 C 0.4764(3) 0.0801(5) 0.55258(18)
H11 H 0.4878 0.0334 0.5355
C22 C 0.4226(2) 0.1333(4) 0.54265(14)
C23 C 0.4087(3) 0.2026(5) 0.56914(15)
H12 H 0.3733 0.2410 0.5626
C24 C 0.3791(2) 0.1164(4) 0.50555(14)
C25 C 0.2292(2) 0.2795(4) 0.38518(15)
C26 C 0.2177(2) 0.3860(3) 0.39153(13)
C27 C 0.1935(2) 0.4475(4) 0.36096(14)
H13 H 0.1836 0.4224 0.3359
C28 C 0.1844(3) 0.5452(4) 0.36805(14)
H14 H 0.1689 0.5878 0.3480
C29 C 0.1988(2) 0.5794(3) 0.40586(14)
C30 C 0.2305(2) 0.4278(4) 0.42789(13)
H15 H 0.2466 0.3874 0.4486
C31 C 0.0621(2) 0.7312(3) 0.37571(16)
C32 C 0.0454(2) 0.6928(4) 0.40817(16)
H16 H 0.0745 0.6823 0.4302
N1 N 0.40161(19) 0.1491(3) 0.72842(11)
N2 N 0.4441(2) 0.2173(4) 0.60412(13)
N5 N 0.2212(2) 0.5222(3) 0.43522(11)
N6 N 0.0222(2) 0.7477(3) 0.34257(14)
O1 O 0.16169(16) 0.0581(3) 0.34830(10)
O2 O 0.18527(16) 0.0277(3) 0.41145(10)
O5 O 0.22072(18) 0.2491(3) 0.35087(12)
O6 O 0.24607(19) 0.2274(3) 0.41445(12)
O9 O 0.20747(17) 0.1408(3) 0.48194(10)
O11 O 0.15159(15) 0.1620(2) 0.27081(9)
O12 O 0.26631(19) 0.2756(3) 0.28199(12)
O16 O 0.33621(17) 0.1768(3) 0.49466(10)
O17 O 0.3852(2) 0.0411(3) 0.48556(11)
S3 S 0.19063(6) 0.70438(10) 0.41972(4)
S4 S 0.14014(6) 0.76735(10) 0.37250(5)
S5 S 0.48306(7) 0.23091(10) 0.69277(4)
S6 S 0.54291(6) 0.17865(12) 0.65864(4)
O20 O 0.33897(16) 0.1640(3) 0.34352(11)
O21 O 0.35941(16) 0.1327(3) 0.40666(10)
O22 O 0.29589(16) 0.0688(3) 0.26676(10)
H19 H 0.185125 0.0841301 0.491387
H20 H 0.229923 0.177611 0.504465
H23 H 0.271535 0.329717 0.301419
H24 H 0.305374 0.267144 0.271044
H27 H 0.12691 0.209756 0.283697
H28 H 0.165801 0.194064 0.248143
C28_2 C 0.6844(3) 0.0452(4) 0.36805(14)
H14_2 H 0.6689 0.0878 0.3480
C29_2 C 0.6988(2) 0.0794(3) 0.40586(14)
C31_2 C 0.5621(2) 0.2312(3) 0.37571(16)
C32_2 C 0.5454(2) 0.1928(4) 0.40817(16)
H16_2 H 0.5745 0.1823 0.4302
C33 C 0.4844(2) 0.1700(4) 0.40770(16)
H17 H 0.4717 0.1444 0.4299
C34 C 0.4415(2) 0.1840(3) 0.37507(13)
C35 C 0.3744(2) 0.1582(3) 0.37503(14)
C36 C 0.4615(2) 0.2222(4) 0.34261(15)
H18 H 0.4330 0.2310 0.3201
N5_2 N 0.7212(2) 0.0222(3) 0.43522(11)
N6_2 N 0.5222(2) 0.2477(3) 0.34257(14)
S3_2 S 0.69063(6) 0.20438(10) 0.41972(4)
S4_2 S 0.64014(6) 0.26735(10) 0.37250(5)
C13 C 0.3425(2) 0.0998(4) 0.25264(13)
C14 C 0.3811(2) 0.0228(3) 0.23731(12)
C15 C 0.4286(2) 0.0461(4) 0.21636(14)
H7 H 0.4383 0.1118 0.2126
O15 O 0.35669(19) 0.1882(3) 0.24998(12)
H22 H 0.2969 0.0594023 0.00585616
C3 C 0.0599(2) 0.9702(4) 0.41307(15)
H1 H 0.0870 0.9602 0.4361
C13_2 C 0.3425(2) 0.9002(4) 0.75264(13)
C14_2 C 0.3811(2) 0.9772(3) 0.73731(12)
C15_2 C 0.4286(2) 0.9539(4) 0.71636(14)
H7_2 H 0.4383 0.8882 0.7126
O10 O 0.2614(2) 0.9475(3) 0.48444(10)
O13 O 0.19268(17) 0.9631(3) 0.27962(10)
O14 O 0.29589(16) 0.9312(3) 0.76676(10)
O15_2 O 0.35669(19) 0.8118(3) 0.74998(12)
Tb5 Tb 0.239839(9) 0.890380(16) 0.815859(6)
O18 O 0.28289(17) 0.9801(3) 0.35320(11)
O19 O 0.30987(18) 0.9318(3) 0.41378(11)
H21 H 0.255312 0.884601 0.46974
H22_2 H 0.2969 0.940598 0.505856
H25 H 0.148109 0.976146 0.270104
H26 H 0.2145 0.949846 0.257197
C7 C 0.8261(2) 0.1245(4) 0.34296(15)
C8 C 0.7975(2) 0.1894(4) 0.31562(15)
H4 H 0.7843 0.1692 0.2902
C9 C 0.7888(2) 0.2840(4) 0.32661(14)
H5 H 0.7697 0.3293 0.3086
C10 C 0.8086(2) 0.3128(3) 0.36471(13)
C11 C 0.8367(2) 0.2420(3) 0.39013(13)
H6 H 0.8499 0.2605 0.4158
C12 C 0.7998(2) 0.4156(4) 0.37806(15)
C33_2 C 0.9844(2) 0.6700(4) 0.40770(16)
H17_2 H 0.9717 0.6444 0.4299
C34_2 C 0.9415(2) 0.6840(3) 0.37507(13)
C35_2 C 0.8744(2) 0.6582(3) 0.37503(14)
C36_2 C 0.9615(2) 0.7222(4) 0.34261(15)
H18_2 H 0.9330 0.7310 0.3201
N3 N 0.97790(19) 0.0010(3) 0.34477(13)
N4 N 0.8460(2) 0.1483(3) 0.38009(12)
O3 O 0.78289(17) 0.4801(3) 0.35320(11)
O4 O 0.80987(18) 0.4318(3) 0.41378(11)
O7 O 0.83897(16) 0.6640(3) 0.34352(11)
O8 O 0.85941(16) 0.6327(3) 0.40666(10)
S2 S 0.83558(6) 0.00183(11) 0.32675(5)
Tb3 Tb 0.782864(10) 0.579212(16) 0.441157(6)
Tb4 Tb 0.739839(9) 0.609620(16) 0.315859(6)
C1_2 C 0.6480(2) 0.5340(3) 0.38027(14)
C2_2 C 0.5809(2) 0.5084(3) 0.38080(13)
C3_2 C 0.5599(2) 0.4702(4) 0.41307(15)
H1_2 H 0.5870 0.4602 0.4361
C4 C 0.4974(2) 0.4472(4) 0.41029(16)
H2 H 0.4818 0.4202 0.4313
C5 C 0.4594(2) 0.4649(4) 0.37628(17)
C6_2 C 0.5384(2) 0.5226(4) 0.34794(15)
H3_2 H 0.5525 0.5490 0.3263
C7_2 C 0.3261(2) 0.6245(4) 0.34296(15)
C8_2 C 0.2975(2) 0.6894(4) 0.31562(15)
H4_2 H 0.2843 0.6692 0.2902
C9_2 C 0.2888(2) 0.7840(4) 0.32661(14)
H5_2 H 0.2697 0.8293 0.3086
C10_2 C 0.3086(2) 0.8128(3) 0.36471(13)
C11_2 C 0.3367(2) 0.7420(3) 0.39013(13)
H6_2 H 0.3499 0.7605 0.4158
C12_2 C 0.2998(2) 0.9156(4) 0.37806(15)
C13_3 C 0.8425(2) 0.4002(4) 0.75264(13)
C14_3 C 0.8811(2) 0.4772(3) 0.73731(12)
C15_3 C 0.9286(2) 0.4539(4) 0.71636(14)
H7_3 H 0.9383 0.3882 0.7126
C16_2 C 0.9612(2) 0.5274(4) 0.70125(14)
H8_2 H 0.9924 0.5125 0.6868
C17_2 C 0.9462(2) 0.6242(4) 0.70829(13)
C18_2 C 0.8703(2) 0.5769(4) 0.74263(13)
H9_2 H 0.8394 0.5943 0.7570
C19_2 C 0.9943(2) 0.6628(4) 0.61232(14)
C21_2 C 0.9764(3) 0.5801(5) 0.55258(18)
H11_2 H 0.9878 0.5334 0.5355
C22_2 C 0.9226(2) 0.6333(4) 0.54265(14)
C23_2 C 0.9087(3) 0.7026(5) 0.56914(15)
H12_2 H 0.8733 0.7410 0.5626
C24_2 C 0.8791(2) 0.6164(4) 0.50555(14)
C25_2 C 0.7292(2) 0.7795(4) 0.38518(15)
C26_2 C 0.7177(2) 0.8860(3) 0.39153(13)
C27_2 C 0.6935(2) 0.9475(4) 0.36096(14)
H13_2 H 0.6836 0.9224 0.3359
C30_2 C 0.7305(2) 0.9278(4) 0.42789(13)
H15_2 H 0.7466 0.8874 0.4486
N1_2 N 0.90161(19) 0.6491(3) 0.72842(11)
N2_2 N 0.9441(2) 0.7173(4) 0.60412(13)
N3_2 N 0.47790(19) 0.5010(3) 0.34477(13)
N4_2 N 0.3460(2) 0.6483(3) 0.38009(12)
O1_2 O 0.66169(16) 0.5581(3) 0.34830(10)
O2_2 O 0.68527(16) 0.5277(3) 0.41145(10)
O5_2 O 0.72072(18) 0.7491(3) 0.35087(12)
O6_2 O 0.74607(19) 0.7274(3) 0.41445(12)
O9_2 O 0.70747(17) 0.6408(3) 0.48194(10)
O10_2 O 0.7614(2) 0.4475(3) 0.48444(10)
O11_2 O 0.65159(15) 0.6620(2) 0.27081(9)
O12_2 O 0.76631(19) 0.7756(3) 0.28199(12)
O13_2 O 0.69268(17) 0.4631(3) 0.27962(10)
O14_2 O 0.79589(16) 0.4312(3) 0.76676(10)
O15_3 O 0.85669(19) 0.3118(3) 0.74998(12)
O16_2 O 0.83621(17) 0.6768(3) 0.49466(10)
O17_2 O 0.8852(2) 0.5411(3) 0.48556(11)
S1 S 0.37915(6) 0.43051(10) 0.37393(6)
S2_2 S 0.33558(6) 0.50183(11) 0.32675(5)
S5_2 S 0.98306(7) 0.73091(10) 0.69277(4)
Tb5_2 Tb 0.739839(9) 0.390380(16) 0.815859(6)
O22_2 O 0.79589(16) 0.5688(3) 0.26676(10)
H19_2 H 0.685125 0.58413 0.491387
H20_2 H 0.729923 0.677611 0.504465
H21_2 H 0.755312 0.384601 0.46974
H22_3 H 0.7969 0.440598 0.505856
H23_2 H 0.771535 0.829717 0.301419
H24_2 H 0.805374 0.767144 0.271044
H25_2 H 0.648109 0.476146 0.270104
H26_2 H 0.7145 0.449846 0.257197
H27_2 H 0.62691 0.709756 0.283697
H28_2 H 0.665801 0.694064 0.248143
C3_3 C 0.0599(2) 0.0298(4) 0.91307(15)
H1_3 H 0.0870 0.0398 0.9361
O10_3 O 0.2614(2) 0.0525(3) 0.98444(10)
O13_3 O 0.19268(17) 0.0369(3) 0.77962(10)
O18_2 O 0.28289(17) 0.0199(3) 0.85320(11)
O19_2 O 0.30987(18) 0.0682(3) 0.91378(11)
H21_3 H 0.255312 0.115399 0.96974
H25_3 H 0.148109 0.0238541 0.770104
H26_3 H 0.2145 0.0501537 0.757197
Tb1_2 Tb 0.282864(10) 0.920788(16) 0.941157(6)
C1_3 C 0.1480(2) 0.9660(3) 0.88027(14)
C2_3 C 0.0809(2) 0.9916(3) 0.88080(13)
C6_3 C 0.0384(2) 0.9774(4) 0.84794(15)
H3_3 H 0.0525 0.9510 0.8263
C25_3 C 0.2292(2) 0.7205(4) 0.88518(15)
C26_3 C 0.2177(2) 0.6140(3) 0.89153(13)
C27_3 C 0.1935(2) 0.5525(4) 0.86096(14)
H13_3 H 0.1836 0.5776 0.8359
C28_3 C 0.1844(3) 0.4548(4) 0.86805(14)
H14_3 H 0.1689 0.4122 0.8480
C29_3 C 0.1988(2) 0.4206(3) 0.90586(14)
C30_3 C 0.2305(2) 0.5722(4) 0.92789(13)
H15_3 H 0.2466 0.6126 0.9486
C31_3 C 0.0621(2) 0.2688(3) 0.87571(16)
C32_3 C 0.0454(2) 0.3072(4) 0.90817(16)
H16_3 H 0.0745 0.3177 0.9302
N5_3 N 0.2212(2) 0.4778(3) 0.93522(11)
N6_3 N 0.0222(2) 0.2523(3) 0.84257(14)
O1_3 O 0.16169(16) 0.9419(3) 0.84830(10)
O2_3 O 0.18527(16) 0.9723(3) 0.91145(10)
O5_3 O 0.22072(18) 0.7509(3) 0.85087(12)
O6_3 O 0.24607(19) 0.7726(3) 0.91445(12)
O9_3 O 0.20747(17) 0.8592(3) 0.98194(10)
O11_3 O 0.15159(15) 0.8380(2) 0.77081(9)
O12_3 O 0.26631(19) 0.7244(3) 0.78199(12)
O16_3 O 0.33621(17) 0.8232(3) 0.99466(10)
O17_3 O 0.3852(2) 0.9589(3) 0.98556(11)
S3_3 S 0.19063(6) 0.29562(10) 0.91972(4)
S4_3 S 0.14014(6) 0.23265(10) 0.87250(5)
O20_2 O 0.33897(16) 0.8360(3) 0.84352(11)
O21_2 O 0.35941(16) 0.8673(3) 0.90666(10)
H19_3 H 0.185125 0.91587 0.991387
H23_3 H 0.271535 0.670283 0.801419
H24_3 H 0.305374 0.732856 0.771044
H27_3 H 0.12691 0.790244 0.783697
H28_3 H 0.165801 0.805936 0.748143
C7_3 C 0.8261(2) 0.8755(4) 0.84296(15)
C8_3 C 0.7975(2) 0.8106(4) 0.81562(15)
H4_3 H 0.7843 0.8308 0.7902
C9_3 C 0.7888(2) 0.7160(4) 0.82661(14)
H5_3 H 0.7697 0.6707 0.8086
C10_3 C 0.8086(2) 0.6872(3) 0.86471(13)
C11_3 C 0.8367(2) 0.7580(3) 0.89013(13)
H6_3 H 0.8499 0.7395 0.9158
C12_3 C 0.7998(2) 0.5844(4) 0.87806(15)
C33_3 C 0.9844(2) 0.3300(4) 0.90770(16)
H17_3 H 0.9717 0.3556 0.9299
C34_3 C 0.9415(2) 0.3160(3) 0.87507(13)
C35_3 C 0.8744(2) 0.3418(3) 0.87503(14)
C36_3 C 0.9615(2) 0.2778(4) 0.84261(15)
H18_3 H 0.9330 0.2690 0.8201
N3_3 N 0.97790(19) 0.9990(3) 0.84477(13)
N4_3 N 0.8460(2) 0.8517(3) 0.88009(12)
O3_2 O 0.78289(17) 0.5199(3) 0.85320(11)
O4_2 O 0.80987(18) 0.5682(3) 0.91378(11)
O7_2 O 0.83897(16) 0.3360(3) 0.84352(11)
O8_2 O 0.85941(16) 0.3673(3) 0.90666(10)
S2_3 S 0.83558(6) 0.99817(11) 0.82675(5)
Tb3_2 Tb 0.782864(10) 0.420788(16) 0.941157(6)
C13_4 C 0.8425(2) 0.5998(4) 0.25264(13)
C14_4 C 0.8811(2) 0.5228(3) 0.23731(12)
C15_4 C 0.9286(2) 0.5461(4) 0.21636(14)
H7_4 H 0.9383 0.6118 0.2126
C16_3 C 0.9612(2) 0.4726(4) 0.20125(14)
H8_3 H 0.9924 0.4875 0.1868
C17_3 C 0.9462(2) 0.3758(4) 0.20829(13)
C18_3 C 0.8703(2) 0.4231(4) 0.24263(13)
H9_3 H 0.8394 0.4057 0.2570
C19_3 C 0.9943(2) 0.3372(4) 0.11232(14)
C21_3 C 0.9764(3) 0.4199(5) 0.05258(18)
H11_3 H 0.9878 0.4666 0.0355
C22_3 C 0.9226(2) 0.3667(4) 0.04265(14)
C23_3 C 0.9087(3) 0.2974(5) 0.06914(15)
H12_3 H 0.8733 0.2590 0.0626
C24_3 C 0.8791(2) 0.3836(4) 0.00555(14)
N1_3 N 0.90161(19) 0.3509(3) 0.22842(11)
N2_3 N 0.9441(2) 0.2827(4) 0.10412(13)
O15_4 O 0.85669(19) 0.6882(3) 0.24998(12)
S5_3 S 0.98306(7) 0.26909(10) 0.19277(4)
H20_3 H 0.729923 0.322389 0.00446501
H22_4 H 0.7969 0.559402 0.00585616
C1_4 C 0.6480(2) 0.4660(3) 0.88027(14)
C2_4 C 0.5809(2) 0.4916(3) 0.88080(13)
C3_4 C 0.5599(2) 0.5298(4) 0.91307(15)
H1_4 H 0.5870 0.5398 0.9361
C4_2 C 0.4974(2) 0.5528(4) 0.91029(16)
H2_2 H 0.4818 0.5798 0.9313
C5_2 C 0.4594(2) 0.5351(4) 0.87628(17)
C6_4 C 0.5384(2) 0.4774(4) 0.84794(15)
H3_4 H 0.5525 0.4510 0.8263
C7_4 C 0.3261(2) 0.3755(4) 0.84296(15)
C8_4 C 0.2975(2) 0.3106(4) 0.81562(15)
H4_4 H 0.2843 0.3308 0.7902
C9_4 C 0.2888(2) 0.2160(4) 0.82661(14)
H5_4 H 0.2697 0.1707 0.8086
C10_4 C 0.3086(2) 0.1872(3) 0.86471(13)
C11_4 C 0.3367(2) 0.2580(3) 0.89013(13)
H6_4 H 0.3499 0.2395 0.9158
C12_4 C 0.2998(2) 0.0844(4) 0.87806(15)
C25_4 C 0.7292(2) 0.2205(4) 0.88518(15)
C26_4 C 0.7177(2) 0.1140(3) 0.89153(13)
C27_4 C 0.6935(2) 0.0525(4) 0.86096(14)
H13_4 H 0.6836 0.0776 0.8359
C30_4 C 0.7305(2) 0.0722(4) 0.92789(13)
H15_4 H 0.7466 0.1126 0.9486
N3_4 N 0.47790(19) 0.4990(3) 0.84477(13)
N4_4 N 0.3460(2) 0.3517(3) 0.88009(12)
O1_4 O 0.66169(16) 0.4419(3) 0.84830(10)
O2_4 O 0.68527(16) 0.4723(3) 0.91145(10)
O5_4 O 0.72072(18) 0.2509(3) 0.85087(12)
O6_4 O 0.74607(19) 0.2726(3) 0.91445(12)
O9_4 O 0.70747(17) 0.3592(3) 0.98194(10)
O10_4 O 0.7614(2) 0.5525(3) 0.98444(10)
O11_4 O 0.65159(15) 0.3380(2) 0.77081(9)
O12_4 O 0.76631(19) 0.2244(3) 0.78199(12)
O13_4 O 0.69268(17) 0.5369(3) 0.77962(10)
O16_4 O 0.83621(17) 0.3232(3) 0.99466(10)
O17_4 O 0.8852(2) 0.4589(3) 0.98556(11)
S1_2 S 0.37915(6) 0.56949(10) 0.87393(6)
S2_4 S 0.33558(6) 0.49817(11) 0.82675(5)
H19_4 H 0.685125 0.41587 0.991387
H21_4 H 0.755312 0.615399 0.96974
H23_4 H 0.771535 0.170283 0.801419
H24_4 H 0.805374 0.232856 0.771044
H25_4 H 0.648109 0.523854 0.770104
H26_4 H 0.7145 0.550154 0.757197
H27_4 H 0.62691 0.290244 0.783697
H28_4 H 0.665801 0.305936 0.748143
C28_4 C 0.6844(3) 0.9548(4) 0.86805(14)
H14_4 H 0.6689 0.9122 0.8480
C29_4 C 0.6988(2) 0.9206(3) 0.90586(14)
C31_4 C 0.5621(2) 0.7688(3) 0.87571(16)
C32_4 C 0.5454(2) 0.8072(4) 0.90817(16)
H16_4 H 0.5745 0.8177 0.9302
C33_4 C 0.4844(2) 0.8300(4) 0.90770(16)
H17_4 H 0.4717 0.8556 0.9299
C34_4 C 0.4415(2) 0.8160(3) 0.87507(13)
C35_4 C 0.3744(2) 0.8418(3) 0.87503(14)
C36_4 C 0.4615(2) 0.7778(4) 0.84261(15)
H18_4 H 0.4330 0.7690 0.8201
N5_4 N 0.7212(2) 0.9778(3) 0.93522(11)
N6_4 N 0.5222(2) 0.7523(3) 0.84257(14)
S3_4 S 0.69063(6) 0.79562(10) 0.91972(4)
S4_4 S 0.64014(6) 0.73265(10) 0.87250(5)
C4_3 C 0.9974(2) 0.9472(4) 0.41029(16)
H2_3 H 0.9818 0.9202 0.4313
C5_3 C 0.9594(2) 0.9649(4) 0.37628(17)
S1_3 S 0.87915(6) 0.93051(10) 0.37393(6)
C7_5 C 0.1739(2) 0.1245(4) 0.15704(15)
C8_5 C 0.2025(2) 0.1894(4) 0.18438(15)
H4_5 H 0.2157 0.1692 0.2098
C9_5 C 0.2112(2) 0.2840(4) 0.17339(14)
H5_5 H 0.2303 0.3293 0.1914
C10_5 C 0.1914(2) 0.3128(3) 0.13529(13)
C11_5 C 0.1633(2) 0.2420(3) 0.10987(13)
H6_5 H 0.1501 0.2605 0.0842
C12_5 C 0.2002(2) 0.4156(4) 0.12194(15)
C33_5 C 0.0156(2) 0.6700(4) 0.09230(16)
H17_5 H 0.0283 0.6444 0.0701
C34_5 C 0.0585(2) 0.6840(3) 0.12493(13)
C35_5 C 0.1256(2) 0.6582(3) 0.12497(14)
C36_5 C 0.0385(2) 0.7222(4) 0.15739(15)
H18_5 H 0.0670 0.7310 0.1799
N3_5 N 0.02210(19) 0.0010(3) 0.15523(13)
N4_5 N 0.1540(2) 0.1483(3) 0.11991(12)
O3_3 O 0.21711(17) 0.4801(3) 0.14680(11)
O4_3 O 0.19013(18) 0.4318(3) 0.08622(11)
O7_3 O 0.16103(16) 0.6640(3) 0.15648(11)
O8_3 O 0.14059(16) 0.6327(3) 0.09334(10)
S2_5 S 0.16442(6) 0.00183(11) 0.17325(5)
Tb3_3 Tb 0.217136(10) 0.579212(16) 0.058843(6)
Tb4_2 Tb 0.260161(9) 0.609620(16) 0.184141(6)
Tb1_3 Tb 0.717136(10) 0.079212(16) 0.058843(6)
Tb2_2 Tb 0.760161(9) 0.109620(16) 0.184141(6)
C1_5 C 0.8520(2) 0.0340(3) 0.11973(14)
C2_5 C 0.9191(2) 0.0084(3) 0.11920(13)
C6_5 C 0.9616(2) 0.0226(4) 0.15206(15)
H3_5 H 0.9475 0.0490 0.1737
C25_5 C 0.7708(2) 0.2795(4) 0.11482(15)
C26_5 C 0.7823(2) 0.3860(3) 0.10847(13)
C27_5 C 0.8065(2) 0.4475(4) 0.13904(14)
H13_5 H 0.8164 0.4224 0.1641
C28_5 C 0.8156(3) 0.5452(4) 0.13195(14)
H14_5 H 0.8311 0.5878 0.1520
C29_5 C 0.8012(2) 0.5794(3) 0.09414(14)
C30_5 C 0.7695(2) 0.4278(4) 0.07211(13)
H15_5 H 0.7534 0.3874 0.0514
C31_5 C 0.9379(2) 0.7312(3) 0.12429(16)
C32_5 C 0.9546(2) 0.6928(4) 0.09183(16)
H16_5 H 0.9255 0.6823 0.0698
N5_5 N 0.7788(2) 0.5222(3) 0.06478(11)
N6_5 N 0.9778(2) 0.7477(3) 0.15743(14)
O1_5 O 0.83831(16) 0.0581(3) 0.15170(10)
O2_5 O 0.81473(16) 0.0277(3) 0.08855(10)
O5_5 O 0.77928(18) 0.2491(3) 0.14913(12)
O6_5 O 0.75393(19) 0.2274(3) 0.08555(12)
O9_5 O 0.79253(17) 0.1408(3) 0.01806(10)
O11_5 O 0.84841(15) 0.1620(2) 0.22919(9)
O12_5 O 0.73369(19) 0.2756(3) 0.21801(12)
O16_5 O 0.66379(17) 0.1768(3) 0.00534(10)
O17_5 O 0.6148(2) 0.0411(3) 0.01444(11)
S3_5 S 0.80937(6) 0.70438(10) 0.08028(4)
S4_5 S 0.85986(6) 0.76735(10) 0.12750(5)
O20_3 O 0.66103(16) 0.1640(3) 0.15648(11)
O21_3 O 0.64059(16) 0.1327(3) 0.09334(10)
O22_3 O 0.70411(16) 0.0688(3) 0.23324(10)
H19_5 H 0.814875 0.0841301 0.00861317
H23_5 H 0.728465 0.329717 0.198581
H24_5 H 0.694626 0.267144 0.228956
H27_5 H 0.87309 0.209756 0.216303
H28_5 H 0.834199 0.194064 0.251857
C3_5 C 0.9401(2) 0.9702(4) 0.08693(15)
H1_5 H 0.9130 0.9602 0.0639
O10_5 O 0.7386(2) 0.9475(3) 0.01556(10)
O13_5 O 0.80732(17) 0.9631(3) 0.22038(10)
O18_3 O 0.71711(17) 0.9801(3) 0.14680(11)
O19_3 O 0.69013(18) 0.9318(3) 0.08622(11)
H21_5 H 0.744688 0.884601 0.0302595
H25_5 H 0.851891 0.976146 0.229896
H26_5 H 0.7855 0.949846 0.242803
C28_6 C 0.3156(3) 0.0452(4) 0.13195(14)
H14_6 H 0.3311 0.0878 0.1520
C29_6 C 0.3012(2) 0.0794(3) 0.09414(14)
C31_6 C 0.4379(2) 0.2312(3) 0.12429(16)
C32_6 C 0.4546(2) 0.1928(4) 0.09183(16)
H16_6 H 0.4255 0.1823 0.0698
C33_6 C 0.5156(2) 0.1700(4) 0.09230(16)
H17_6 H 0.5283 0.1444 0.0701
C34_6 C 0.5585(2) 0.1840(3) 0.12493(13)
C35_6 C 0.6256(2) 0.1582(3) 0.12497(14)
C36_6 C 0.5385(2) 0.2222(4) 0.15739(15)
H18_6 H 0.5670 0.2310 0.1799
N5_6 N 0.2788(2) 0.0222(3) 0.06478(11)
N6_6 N 0.4778(2) 0.2477(3) 0.15743(14)
S3_6 S 0.30937(6) 0.20438(10) 0.08028(4)
S4_6 S 0.35986(6) 0.26735(10) 0.12750(5)
C1_6 C 0.3520(2) 0.5340(3) 0.11973(14)
C2_6 C 0.4191(2) 0.5084(3) 0.11920(13)
C3_6 C 0.4401(2) 0.4702(4) 0.08693(15)
H1_6 H 0.4130 0.4602 0.0639
C4_4 C 0.5026(2) 0.4472(4) 0.08971(16)
H2_4 H 0.5182 0.4202 0.0687
C5_4 C 0.5406(2) 0.4649(4) 0.12372(17)
C6_6 C 0.4616(2) 0.5226(4) 0.15206(15)
H3_6 H 0.4475 0.5490 0.1737
C7_6 C 0.6739(2) 0.6245(4) 0.15704(15)
C8_6 C 0.7025(2) 0.6894(4) 0.18438(15)
H4_6 H 0.7157 0.6692 0.2098
C9_6 C 0.7112(2) 0.7840(4) 0.17339(14)
H5_6 H 0.7303 0.8293 0.1914
C10_6 C 0.6914(2) 0.8128(3) 0.13529(13)
C11_6 C 0.6633(2) 0.7420(3) 0.10987(13)
H6_6 H 0.6501 0.7605 0.0842
C12_6 C 0.7002(2) 0.9156(4) 0.12194(15)
C25_6 C 0.2708(2) 0.7795(4) 0.11482(15)
C26_6 C 0.2823(2) 0.8860(3) 0.10847(13)
C27_6 C 0.3065(2) 0.9475(4) 0.13904(14)
H13_6 H 0.3164 0.9224 0.1641
C30_6 C 0.2695(2) 0.9278(4) 0.07211(13)
H15_6 H 0.2534 0.8874 0.0514
N3_6 N 0.52210(19) 0.5010(3) 0.15523(13)
N4_6 N 0.6540(2) 0.6483(3) 0.11991(12)
O1_6 O 0.33831(16) 0.5581(3) 0.15170(10)
O2_6 O 0.31473(16) 0.5277(3) 0.08855(10)
O5_6 O 0.27928(18) 0.7491(3) 0.14913(12)
O6_6 O 0.25393(19) 0.7274(3) 0.08555(12)
O9_6 O 0.29253(17) 0.6408(3) 0.01806(10)
O10_6 O 0.2386(2) 0.4475(3) 0.01556(10)
O11_6 O 0.34841(15) 0.6620(2) 0.22919(9)
O12_6 O 0.23369(19) 0.7756(3) 0.21801(12)
O13_6 O 0.30732(17) 0.4631(3) 0.22038(10)
O16_6 O 0.16379(17) 0.6768(3) 0.00534(10)
O17_6 O 0.1148(2) 0.5411(3) 0.01444(11)
S1_4 S 0.62085(6) 0.43051(10) 0.12607(6)
S2_6 S 0.66442(6) 0.50183(11) 0.17325(5)
O22_4 O 0.20411(16) 0.5688(3) 0.23324(10)
H19_6 H 0.314875 0.58413 0.00861317
H21_6 H 0.244688 0.384601 0.0302595
H23_6 H 0.228465 0.829717 0.198581
H24_6 H 0.194626 0.767144 0.228956
H25_6 H 0.351891 0.476146 0.229896
H26_6 H 0.2855 0.449846 0.242803
H27_6 H 0.37309 0.709756 0.216303
H28_6 H 0.334199 0.694064 0.251857
C13_5 C 0.1575(2) 0.4002(4) 0.74736(13)
C14_5 C 0.1189(2) 0.4772(3) 0.76269(12)
C15_5 C 0.0714(2) 0.4539(4) 0.78364(14)
H7_5 H 0.0617 0.3882 0.7874
C16_4 C 0.0388(2) 0.5274(4) 0.79875(14)
H8_4 H 0.0076 0.5125 0.8132
C17_4 C 0.0538(2) 0.6242(4) 0.79171(13)
C18_4 C 0.1297(2) 0.5769(4) 0.75737(13)
H9_4 H 0.1606 0.5943 0.7430
C19_4 C 0.0057(2) 0.6628(4) 0.88768(14)
C21_4 C 0.0236(3) 0.5801(5) 0.94742(18)
H11_4 H 0.0122 0.5334 0.9645
C22_4 C 0.0774(2) 0.6333(4) 0.95735(14)
C23_4 C 0.0913(3) 0.7026(5) 0.93086(15)
H12_4 H 0.1267 0.7410 0.9374
C24_4 C 0.1209(2) 0.6164(4) 0.99445(14)
N1_4 N 0.09839(19) 0.6491(3) 0.77158(11)
N2_4 N 0.0559(2) 0.7173(4) 0.89588(13)
O14_3 O 0.20411(16) 0.4312(3) 0.73324(10)
O15_5 O 0.14331(19) 0.3118(3) 0.75002(12)
S5_4 S 0.01694(7) 0.73091(10) 0.80723(4)
Tb5_3 Tb 0.260161(9) 0.390380(16) 0.684141(6)
H20_4 H 0.270077 0.677611 0.995535
H22_5 H 0.2031 0.440598 0.994144
C7_7 C 0.1739(2) 0.8755(4) 0.65704(15)
C8_7 C 0.2025(2) 0.8106(4) 0.68438(15)
H4_7 H 0.2157 0.8308 0.7098
C9_7 C 0.2112(2) 0.7160(4) 0.67339(14)
H5_7 H 0.2303 0.6707 0.6914
C10_7 C 0.1914(2) 0.6872(3) 0.63529(13)
C11_7 C 0.1633(2) 0.7580(3) 0.60987(13)
H6_7 H 0.1501 0.7395 0.5842
C12_7 C 0.2002(2) 0.5844(4) 0.62194(15)
C33_7 C 0.0156(2) 0.3300(4) 0.59230(16)
H17_7 H 0.0283 0.3556 0.5701
C34_7 C 0.0585(2) 0.3160(3) 0.62493(13)
C35_7 C 0.1256(2) 0.3418(3) 0.62497(14)
C36_7 C 0.0385(2) 0.2778(4) 0.65739(15)
H18_7 H 0.0670 0.2690 0.6799
N3_7 N 0.02210(19) 0.9990(3) 0.65523(13)
N4_7 N 0.1540(2) 0.8517(3) 0.61991(12)
O3_4 O 0.21711(17) 0.5199(3) 0.64680(11)
O4_4 O 0.19013(18) 0.5682(3) 0.58622(11)
O7_4 O 0.16103(16) 0.3360(3) 0.65648(11)
O8_4 O 0.14059(16) 0.3673(3) 0.59334(10)
S2_7 S 0.16442(6) 0.99817(11) 0.67325(5)
Tb3_4 Tb 0.217136(10) 0.420788(16) 0.558843(6)
C3_7 C 0.9401(2) 0.0298(4) 0.58693(15)
H1_7 H 0.9130 0.0398 0.5639
C13_6 C 0.6575(2) 0.0998(4) 0.24736(13)
C14_6 C 0.6189(2) 0.0228(3) 0.26269(12)
C15_6 C 0.5714(2) 0.0461(4) 0.28364(14)
H7_6 H 0.5617 0.1118 0.2874
O10_7 O 0.7386(2) 0.0525(3) 0.51556(10)
O13_7 O 0.80732(17) 0.0369(3) 0.72038(10)
O15_6 O 0.64331(19) 0.1882(3) 0.25002(12)
O18_4 O 0.71711(17) 0.0199(3) 0.64680(11)
O19_4 O 0.69013(18) 0.0682(3) 0.58622(11)
H21_7 H 0.744688 0.115399 0.53026
H22_6 H 0.7031 0.0594023 0.494144
H25_7 H 0.851891 0.0238541 0.729896
H26_7 H 0.7855 0.0501537 0.742803
C1_7 C 0.3520(2) 0.4660(3) 0.61973(14)
C2_7 C 0.4191(2) 0.4916(3) 0.61920(13)
C3_8 C 0.4401(2) 0.5298(4) 0.58693(15)
H1_8 H 0.4130 0.5398 0.5639
C4_5 C 0.5026(2) 0.5528(4) 0.58971(16)
H2_5 H 0.5182 0.5798 0.5687
C5_5 C 0.5406(2) 0.5351(4) 0.62372(17)
C6_7 C 0.4616(2) 0.4774(4) 0.65206(15)
H3_7 H 0.4475 0.4510 0.6737
C7_8 C 0.6739(2) 0.3755(4) 0.65704(15)
C8_8 C 0.7025(2) 0.3106(4) 0.68438(15)
H4_8 H 0.7157 0.3308 0.7098
C9_8 C 0.7112(2) 0.2160(4) 0.67339(14)
H5_8 H 0.7303 0.1707 0.6914
C10_8 C 0.6914(2) 0.1872(3) 0.63529(13)
C11_8 C 0.6633(2) 0.2580(3) 0.60987(13)
H6_8 H 0.6501 0.2395 0.5842
C12_8 C 0.7002(2) 0.0844(4) 0.62194(15)
C13_7 C 0.1575(2) 0.5998(4) 0.24736(13)
C14_7 C 0.1189(2) 0.5228(3) 0.26269(12)
C15_7 C 0.0714(2) 0.5461(4) 0.28364(14)
H7_7 H 0.0617 0.6118 0.2874
C16_5 C 0.0388(2) 0.4726(4) 0.29875(14)
H8_5 H 0.0076 0.4875 0.3132
C17_5 C 0.0538(2) 0.3758(4) 0.29171(13)
C18_5 C 0.1297(2) 0.4231(4) 0.25737(13)
H9_5 H 0.1606 0.4057 0.2430
C19_5 C 0.0057(2) 0.3372(4) 0.38768(14)
C21_5 C 0.0236(3) 0.4199(5) 0.44742(18)
H11_5 H 0.0122 0.4666 0.4645
C22_5 C 0.0774(2) 0.3667(4) 0.45735(14)
C23_5 C 0.0913(3) 0.2974(5) 0.43086(15)
H12_5 H 0.1267 0.2590 0.4374
C24_5 C 0.1209(2) 0.3836(4) 0.49445(14)
C25_7 C 0.2708(2) 0.2205(4) 0.61482(15)
C26_7 C 0.2823(2) 0.1140(3) 0.60847(13)
C27_7 C 0.3065(2) 0.0525(4) 0.63904(14)
H13_7 H 0.3164 0.0776 0.6641
C30_7 C 0.2695(2) 0.0722(4) 0.57211(13)
H15_7 H 0.2534 0.1126 0.5514
N1_5 N 0.09839(19) 0.3509(3) 0.27158(11)
N2_5 N 0.0559(2) 0.2827(4) 0.39588(13)
N3_8 N 0.52210(19) 0.4990(3) 0.65523(13)
N4_8 N 0.6540(2) 0.3517(3) 0.61991(12)
O1_7 O 0.33831(16) 0.4419(3) 0.65170(10)
O2_7 O 0.31473(16) 0.4723(3) 0.58855(10)
O5_7 O 0.27928(18) 0.2509(3) 0.64913(12)
O6_7 O 0.25393(19) 0.2726(3) 0.58555(12)
O9_7 O 0.29253(17) 0.3592(3) 0.51806(10)
O10_8 O 0.2386(2) 0.5525(3) 0.51556(10)
O11_7 O 0.34841(15) 0.3380(2) 0.72919(9)
O12_7 O 0.23369(19) 0.2244(3) 0.71801(12)
O13_8 O 0.30732(17) 0.5369(3) 0.72038(10)
O15_7 O 0.14331(19) 0.6882(3) 0.25002(12)
O16_7 O 0.16379(17) 0.3232(3) 0.50534(10)
O17_7 O 0.1148(2) 0.4589(3) 0.51444(11)
S1_5 S 0.62085(6) 0.56949(10) 0.62607(6)
S2_8 S 0.66442(6) 0.49817(11) 0.67325(5)
S5_5 S 0.01694(7) 0.26909(10) 0.30723(4)
H19_7 H 0.314875 0.41587 0.508613
H20_5 H 0.270077 0.322389 0.495535
H21_8 H 0.244688 0.615399 0.53026
H22_7 H 0.2031 0.559402 0.494144
H23_7 H 0.228465 0.170283 0.698581
H24_7 H 0.194626 0.232856 0.728956
H25_8 H 0.351891 0.523854 0.729896
H26_8 H 0.2855 0.550154 0.742803
H27_7 H 0.37309 0.290244 0.716303
H28_7 H 0.334199 0.305936 0.751857
C4_6 C 0.0026(2) 0.9472(4) 0.08971(16)
H2_6 H 0.0182 0.9202 0.0687
C5_6 C 0.0406(2) 0.9649(4) 0.12372(17)
S1_6 S 0.12085(6) 0.93051(10) 0.12607(6)
C16_6 C 0.5388(2) 0.0274(4) 0.79875(14)
H8_6 H 0.5076 0.0125 0.8132
C17_6 C 0.5538(2) 0.1242(4) 0.79171(13)
C18_6 C 0.6297(2) 0.0769(4) 0.75737(13)
H9_6 H 0.6606 0.0943 0.7430
C19_6 C 0.5057(2) 0.1628(4) 0.88768(14)
C20_2 C 0.4864(3) 0.0958(4) 0.91206(16)
H10_2 H 0.4493 0.0615 0.9053
C21_6 C 0.5236(3) 0.0801(5) 0.94742(18)
H11_6 H 0.5122 0.0334 0.9645
C22_6 C 0.5774(2) 0.1333(4) 0.95735(14)
C23_6 C 0.5913(3) 0.2026(5) 0.93086(15)
H12_6 H 0.6267 0.2410 0.9374
C24_6 C 0.6209(2) 0.1164(4) 0.99445(14)
N1_6 N 0.59839(19) 0.1491(3) 0.77158(11)
N2_6 N 0.5559(2) 0.2173(4) 0.89588(13)
S5_6 S 0.51694(7) 0.23091(10) 0.80723(4)
S6_2 S 0.45709(6) 0.17865(12) 0.84136(4)
H20_6 H 0.770077 0.177611 0.995535
C13_8 C 0.6575(2) 0.9002(4) 0.74736(13)
C14_8 C 0.6189(2) 0.9772(3) 0.76269(12)
C15_8 C 0.5714(2) 0.9539(4) 0.78364(14)
H7_8 H 0.5617 0.8882 0.7874
O14_4 O 0.70411(16) 0.9312(3) 0.73324(10)
O15_8 O 0.64331(19) 0.8118(3) 0.75002(12)
Tb5_4 Tb 0.760161(9) 0.890380(16) 0.684141(6)
H22_8 H 0.7031 0.940598 0.994144
Tb1_4 Tb 0.717136(10) 0.920788(16) 0.558843(6)
C1_8 C 0.8520(2) 0.9660(3) 0.61973(14)
C2_8 C 0.9191(2) 0.9916(3) 0.61920(13)
C6_8 C 0.9616(2) 0.9774(4) 0.65206(15)
H3_8 H 0.9475 0.9510 0.6737
C16_7 C 0.5388(2) 0.9726(4) 0.29875(14)
H8_7 H 0.5076 0.9875 0.3132
C17_7 C 0.5538(2) 0.8758(4) 0.29171(13)
C18_7 C 0.6297(2) 0.9231(4) 0.25737(13)
H9_7 H 0.6606 0.9057 0.2430
C19_7 C 0.5057(2) 0.8372(4) 0.38768(14)
C20_3 C 0.4864(3) 0.9042(4) 0.41206(16)
H10_3 H 0.4493 0.9385 0.4053
C21_7 C 0.5236(3) 0.9199(5) 0.44742(18)
H11_7 H 0.5122 0.9666 0.4645
C22_7 C 0.5774(2) 0.8667(4) 0.45735(14)
C23_7 C 0.5913(3) 0.7974(5) 0.43086(15)
H12_7 H 0.6267 0.7590 0.4374
C24_7 C 0.6209(2) 0.8836(4) 0.49445(14)
C25_8 C 0.7708(2) 0.7205(4) 0.61482(15)
C26_8 C 0.7823(2) 0.6140(3) 0.60847(13)
C27_8 C 0.8065(2) 0.5525(4) 0.63904(14)
H13_8 H 0.8164 0.5776 0.6641
C28_7 C 0.8156(3) 0.4548(4) 0.63195(14)
H14_7 H 0.8311 0.4122 0.6520
C29_7 C 0.8012(2) 0.4206(3) 0.59414(14)
C30_8 C 0.7695(2) 0.5722(4) 0.57211(13)
H15_8 H 0.7534 0.6126 0.5514
C31_7 C 0.9379(2) 0.2688(3) 0.62429(16)
C32_7 C 0.9546(2) 0.3072(4) 0.59183(16)
H16_7 H 0.9255 0.3177 0.5698
N1_7 N 0.59839(19) 0.8509(3) 0.27158(11)
N2_7 N 0.5559(2) 0.7827(4) 0.39588(13)
N5_7 N 0.7788(2) 0.4778(3) 0.56478(11)
N6_7 N 0.9778(2) 0.2523(3) 0.65743(14)
O1_8 O 0.83831(16) 0.9419(3) 0.65170(10)
O2_8 O 0.81473(16) 0.9723(3) 0.58855(10)
O5_8 O 0.77928(18) 0.7509(3) 0.64913(12)
O6_8 O 0.75393(19) 0.7726(3) 0.58555(12)
O9_8 O 0.79253(17) 0.8592(3) 0.51806(10)
O11_8 O 0.84841(15) 0.8380(2) 0.72919(9)
O12_8 O 0.73369(19) 0.7244(3) 0.71801(12)
O16_8 O 0.66379(17) 0.8232(3) 0.50534(10)
O17_8 O 0.6148(2) 0.9589(3) 0.51444(11)
S3_7 S 0.80937(6) 0.29562(10) 0.58028(4)
S4_7 S 0.85986(6) 0.23265(10) 0.62750(5)
S5_7 S 0.51694(7) 0.76909(10) 0.30723(4)
S6_3 S 0.45709(6) 0.82135(12) 0.34136(4)
O20_4 O 0.66103(16) 0.8360(3) 0.65648(11)
O21_4 O 0.64059(16) 0.8673(3) 0.59334(10)
H19_8 H 0.814875 0.91587 0.508613
H20_7 H 0.770077 0.822389 0.495535
H23_8 H 0.728465 0.670283 0.698581
H24_8 H 0.694626 0.732856 0.728956
H27_8 H 0.87309 0.790244 0.716303
H28_8 H 0.834199 0.805936 0.751857
C28_8 C 0.3156(3) 0.9548(4) 0.63195(14)
H14_8 H 0.3311 0.9122 0.6520
C29_8 C 0.3012(2) 0.9206(3) 0.59414(14)
C31_8 C 0.4379(2) 0.7688(3) 0.62429(16)
C32_8 C 0.4546(2) 0.8072(4) 0.59183(16)
H16_8 H 0.4255 0.8177 0.5698
C33_8 C 0.5156(2) 0.8300(4) 0.59230(16)
H17_8 H 0.5283 0.8556 0.5701
C34_8 C 0.5585(2) 0.8160(3) 0.62493(13)
C35_8 C 0.6256(2) 0.8418(3) 0.62497(14)
C36_8 C 0.5385(2) 0.7778(4) 0.65739(15)
H18_8 H 0.5670 0.7690 0.6799
N5_8 N 0.2788(2) 0.9778(3) 0.56478(11)
N6_8 N 0.4778(2) 0.7523(3) 0.65743(14)
S3_8 S 0.30937(6) 0.79562(10) 0.58028(4)
S4_8 S 0.35986(6) 0.73265(10) 0.62750(5)
C20_4 C 0.0136(3) 0.5958(4) 0.58794(16)
H10_4 H 0.0507 0.5615 0.5947
S6_4 S 0.04291(6) 0.67865(12) 0.65864(4)
C20_5 C 0.9864(3) 0.5958(4) 0.91206(16)
H10_5 H 0.9493 0.5615 0.9053
S6_5 S 0.95709(6) 0.67865(12) 0.84136(4)
C4_7 C 0.0026(2) 0.0528(4) 0.58971(16)
H2_7 H 0.0182 0.0798 0.5687
C5_7 C 0.0406(2) 0.0351(4) 0.62372(17)
S1_7 S 0.12085(6) 0.06949(10) 0.62607(6)
C16_8 C 0.4612(2) 0.9726(4) 0.20125(14)
H8_8 H 0.4924 0.9875 0.1868
C17_8 C 0.4462(2) 0.8758(4) 0.20829(13)
C18_8 C 0.3703(2) 0.9231(4) 0.24263(13)
H9_8 H 0.3394 0.9057 0.2570
C19_8 C 0.4943(2) 0.8372(4) 0.11232(14)
C20_6 C 0.5136(3) 0.9042(4) 0.08794(16)
H10_6 H 0.5507 0.9385 0.0947
C21_8 C 0.4764(3) 0.9199(5) 0.05258(18)
H11_8 H 0.4878 0.9666 0.0355
C22_8 C 0.4226(2) 0.8667(4) 0.04265(14)
C23_8 C 0.4087(3) 0.7974(5) 0.06914(15)
H12_8 H 0.3733 0.7590 0.0626
C24_8 C 0.3791(2) 0.8836(4) 0.00555(14)
N1_8 N 0.40161(19) 0.8509(3) 0.22842(11)
N2_8 N 0.4441(2) 0.7827(4) 0.10412(13)
S5_8 S 0.48306(7) 0.76909(10) 0.19277(4)
S6_6 S 0.54291(6) 0.82135(12) 0.15864(4)
H20_8 H 0.229923 0.822389 0.00446501
C4_8 C 0.9974(2) 0.0528(4) 0.91029(16)
H2_8 H 0.9818 0.0798 0.9313
C5_8 C 0.9594(2) 0.0351(4) 0.87628(17)
S1_8 S 0.87915(6) 0.06949(10) 0.87393(6)
C20_7 C 0.9864(3) 0.4042(4) 0.41206(16)
H10_7 H 0.9493 0.4385 0.4053
S6_7 S 0.95709(6) 0.32135(12) 0.34136(4)
C20_8 C 0.0136(3) 0.4042(4) 0.08794(16)
H10_8 H 0.0507 0.4385 0.0947
S6_8 S 0.04291(6) 0.32135(12) 0.15864(4)
loop_
_geom_bond_atom_site_label_1
_geom_bond_atom_site_label_2
_geom_bond_site_symmetry_1
_geom_bond_site_symmetry_2
Tb1 O2 1_555 1_555
Tb2 O1 1_555 1_555
C1 C2 1_555 1_555
C6 C2 1_555 1_555
H3 C6 1_555 1_555
H8 C16 1_555 1_555
C17 C16 1_555 1_555
H9 C18 1_555 1_555
C19 C20 1_555 1_555
C20 H10 1_555 1_555
C21 C20 1_555 1_555
H11 C21 1_555 1_555
C22 C21 1_555 1_555
C23 C22 1_555 1_555
H12 C23 1_555 1_555
C24 C22 1_555 1_555
C25 C26 1_555 1_555
C26 C27 1_555 1_555
C27 H13 1_555 1_555
C28 C27 1_555 1_555
H14 C28 1_555 1_555
C29 C28 1_555 1_555
C30 C26 1_555 1_555
H15 C30 1_555 1_555
C31 C32 1_555 1_555
C32 H16 1_555 1_555
N1 C17 1_555 1_555
N2 C19 1_555 1_555
N5 C29 1_555 1_555
N6 C31 1_555 1_555
O1 C1 1_555 1_555
O2 C1 1_555 1_555
O5 Tb2 1_555 1_555
O6 Tb1 1_555 1_555
O9 Tb1 1_555 1_555
O11 Tb2 1_555 1_555
O12 Tb2 1_555 1_555
O16 Tb1 1_555 1_555
O17 Tb1 1_555 1_555
S3 C29 1_555 1_555
S4 C31 1_555 1_555
S5 C17 1_555 1_555
S6 C19 1_555 1_555
O20 Tb2 1_555 1_555
O21 Tb1 1_555 1_555
O22 Tb2 1_555 1_555
C18 N1 1_555 1_555
C23 N2 1_555 1_555
C24 O16 1_555 1_555
C24 O17 1_555 1_555
C25 O5 1_555 1_555
C25 O6 1_555 1_555
C30 N5 1_555 1_555
S3 S4 1_555 1_555
S5 S6 1_555 1_555
O9 H19 1_555 1_555
O9 H20 1_555 1_555
O12 H23 1_555 1_555
O12 H24 1_555 1_555
O11 H27 1_555 1_555
O11 H28 1_555 1_555
H14_2 C28_2 1_555 1_555
C29_2 C28_2 1_555 1_555
C31_2 C32_2 1_555 1_555
C32_2 H16_2 1_555 1_555
C33 C32_2 1_555 1_555
H17 C33 1_555 1_555
C34 C33 1_555 1_555
C35 C34 1_555 1_555
C36 C34 1_555 1_555
H18 C36 1_555 1_555
N5_2 C29_2 1_555 1_555
N6_2 C31_2 1_555 1_555
O20 C35 1_555 1_555
O21 C35 1_555 1_555
S3_2 C29_2 1_555 1_555
S4_2 C31_2 1_555 1_555
C36 N6_2 1_555 1_555
S3_2 S4_2 1_555 1_555
C13 C14 1_555 1_555
C14 C15 1_555 1_555
C15 H7 1_555 1_555
O22 C13 1_555 1_555
O15 C13 1_555 1_555
C3 H1 1_555 1_555
C13_2 C14_2 1_555 1_555
C14_2 C15_2 1_555 1_555
C15_2 H7_2 1_555 1_555
O14 C13_2 1_555 1_555
O15_2 C13_2 1_555 1_555
Tb5 O14 1_555 1_555
O10 H21 1_555 1_555
O10 H22_2 1_555 1_555
O13 H25 1_555 1_555
O13 H26 1_555 1_555
C7 C8 1_555 1_555
C8 H4 1_555 1_555
C9 C8 1_555 1_555
H5 C9 1_555 1_555
C10 C9 1_555 1_555
C11 C10 1_555 1_555
H6 C11 1_555 1_555
C12 C10 1_555 1_555
H17_2 C33_2 1_555 1_555
C34_2 C33_2 1_555 1_555
C35_2 C34_2 1_555 1_555
C36_2 C34_2 1_555 1_555
H18_2 C36_2 1_555 1_555
N4 C7 1_555 1_555
O3 C12 1_555 1_555
O4 C12 1_555 1_555
O7 C35_2 1_555 1_555
O8 C35_2 1_555 1_555
S2 C7 1_555 1_555
Tb3 O4 1_555 1_555
Tb4 O3 1_555 1_555
C11 N4 1_555 1_555
O7 Tb4 1_555 1_555
O8 Tb3 1_555 1_555
Tb3 O2_2 1_555 1_555
Tb4 O1_2 1_555 1_555
C1_2 C2_2 1_555 1_555
C2_2 C3_2 1_555 1_555
C3_2 H1_2 1_555 1_555
C4 C3_2 1_555 1_555
H2 C4 1_555 1_555
C5 C4 1_555 1_555
C6_2 C2_2 1_555 1_555
H3_2 C6_2 1_555 1_555
C7_2 C8_2 1_555 1_555
C8_2 H4_2 1_555 1_555
C9_2 C8_2 1_555 1_555
H5_2 C9_2 1_555 1_555
C10_2 C9_2 1_555 1_555
C11_2 C10_2 1_555 1_555
H6_2 C11_2 1_555 1_555
C12_2 C10_2 1_555 1_555
C13_3 C14_3 1_555 1_555
C14_3 C15_3 1_555 1_555
C15_3 H7_3 1_555 1_555
C16_2 C15_3 1_555 1_555
H8_2 C16_2 1_555 1_555
C17_2 C16_2 1_555 1_555
C18_2 C14_3 1_555 1_555
H9_2 C18_2 1_555 1_555
H11_2 C21_2 1_555 1_555
C22_2 C21_2 1_555 1_555
C23_2 C22_2 1_555 1_555
H12_2 C23_2 1_555 1_555
C24_2 C22_2 1_555 1_555
C25_2 C26_2 1_555 1_555
C26_2 C27_2 1_555 1_555
C27_2 H13_2 1_555 1_555
C30_2 C26_2 1_555 1_555
H15_2 C30_2 1_555 1_555
N1_2 C17_2 1_555 1_555
N2_2 C19_2 1_555 1_555
N3_2 C5 1_555 1_555
N4_2 C7_2 1_555 1_555
O1_2 C1_2 1_555 1_555
O2_2 C1_2 1_555 1_555
O18 C12_2 1_555 1_555
O19 C12_2 1_555 1_555
O5_2 Tb4 1_555 1_555
O6_2 Tb3 1_555 1_555
O9_2 Tb3 1_555 1_555
O10_2 Tb3 1_555 1_555
O11_2 Tb4 1_555 1_555
O12_2 Tb4 1_555 1_555
O13_2 Tb4 1_555 1_555
O14_2 C13_3 1_555 1_555
O15_3 C13_3 1_555 1_555
O16_2 Tb3 1_555 1_555
O17_2 Tb3 1_555 1_555
S1 C5 1_555 1_555
S2_2 C7_2 1_555 1_555
S5_2 C17_2 1_555 1_555
Tb5_2 O14_2 1_555 1_555
O22_2 Tb4 1_555 1_555
C6_2 N3_2 1_555 1_555
C11_2 N4_2 1_555 1_555
C18_2 N1_2 1_555 1_555
C23_2 N2_2 1_555 1_555
C24_2 O16_2 1_555 1_555
C24_2 O17_2 1_555 1_555
C25_2 O5_2 1_555 1_555
C25_2 O6_2 1_555 1_555
S1 S2_2 1_555 1_555
O9_2 H19_2 1_555 1_555
O9_2 H20_2 1_555 1_555
O10_2 H21_2 1_555 1_555
O10_2 H22_3 1_555 1_555
O12_2 H23_2 1_555 1_555
O12_2 H24_2 1_555 1_555
O13_2 H25_2 1_555 1_555
O13_2 H26_2 1_555 1_555
O11_2 H27_2 1_555 1_555
O11_2 H28_2 1_555 1_555
C3_3 H1_3 1_555 1_555
O10_3 H21_3 1_555 1_555
O13_3 H25_3 1_555 1_555
O13_3 H26_3 1_555 1_555
Tb1_2 O2_3 1_555 1_555
Tb5 O1_3 1_555 1_555
C1_3 C2_3 1_555 1_555
C6_3 C2_3 1_555 1_555
H3_3 C6_3 1_555 1_555
C25_3 C26_3 1_555 1_555
C26_3 C27_3 1_555 1_555
C27_3 H13_3 1_555 1_555
C28_3 C27_3 1_555 1_555
H14_3 C28_3 1_555 1_555
C29_3 C28_3 1_555 1_555
C30_3 C26_3 1_555 1_555
H15_3 C30_3 1_555 1_555
C31_3 C32_3 1_555 1_555
C32_3 H16_3 1_555 1_555
N5_3 C29_3 1_555 1_555
N6_3 C31_3 1_555 1_555
O1_3 C1_3 1_555 1_555
O2_3 C1_3 1_555 1_555
O5_3 Tb5 1_555 1_555
O6_3 Tb1_2 1_555 1_555
O9_3 Tb1_2 1_555 1_555
O11_3 Tb5 1_555 1_555
O12_3 Tb5 1_555 1_555
O16_3 Tb1_2 1_555 1_555
O17_3 Tb1_2 1_555 1_555
S3_3 C29_3 1_555 1_555
S4_3 C31_3 1_555 1_555
O20_2 Tb5 1_555 1_555
O21_2 Tb1_2 1_555 1_555
C25_3 O5_3 1_555 1_555
C25_3 O6_3 1_555 1_555
C30_3 N5_3 1_555 1_555
S3_3 S4_3 1_555 1_555
O9_3 H19_3 1_555 1_555
O12_3 H23_3 1_555 1_555
O12_3 H24_3 1_555 1_555
O11_3 H27_3 1_555 1_555
O11_3 H28_3 1_555 1_555
C7_3 C8_3 1_555 1_555
C8_3 H4_3 1_555 1_555
C9_3 C8_3 1_555 1_555
H5_3 C9_3 1_555 1_555
C10_3 C9_3 1_555 1_555
C11_3 C10_3 1_555 1_555
H6_3 C11_3 1_555 1_555
C12_3 C10_3 1_555 1_555
H17_3 C33_3 1_555 1_555
C34_3 C33_3 1_555 1_555
C35_3 C34_3 1_555 1_555
C36_3 C34_3 1_555 1_555
H18_3 C36_3 1_555 1_555
N4_3 C7_3 1_555 1_555
O3_2 C12_3 1_555 1_555
O4_2 C12_3 1_555 1_555
O7_2 C35_3 1_555 1_555
O8_2 C35_3 1_555 1_555
S2_3 C7_3 1_555 1_555
Tb3_2 O4_2 1_555 1_555
Tb5_2 O3_2 1_555 1_555
C11_3 N4_3 1_555 1_555
O7_2 Tb5_2 1_555 1_555
O8_2 Tb3_2 1_555 1_555
C13_4 C14_4 1_555 1_555
C14_4 C15_4 1_555 1_555
C15_4 H7_4 1_555 1_555
C16_3 C15_4 1_555 1_555
H8_3 C16_3 1_555 1_555
C17_3 C16_3 1_555 1_555
C18_3 C14_4 1_555 1_555
H9_3 C18_3 1_555 1_555
H11_3 C21_3 1_555 1_555
C22_3 C21_3 1_555 1_555
C23_3 C22_3 1_555 1_555
H12_3 C23_3 1_555 1_555
C24_3 C22_3 1_555 1_555
N1_3 C17_3 1_555 1_555
N2_3 C19_3 1_555 1_555
O22_2 C13_4 1_555 1_555
O15_4 C13_4 1_555 1_555
S5_3 C17_3 1_555 1_555
C18_3 N1_3 1_555 1_555
C23_3 N2_3 1_555 1_555
Tb3_2 O2_4 1_555 1_555
Tb5_2 O1_4 1_555 1_555
C1_4 C2_4 1_555 1_555
C2_4 C3_4 1_555 1_555
C3_4 H1_4 1_555 1_555
C4_2 C3_4 1_555 1_555
H2_2 C4_2 1_555 1_555
C5_2 C4_2 1_555 1_555
C6_4 C2_4 1_555 1_555
H3_4 C6_4 1_555 1_555
C7_4 C8_4 1_555 1_555
C8_4 H4_4 1_555 1_555
C9_4 C8_4 1_555 1_555
H5_4 C9_4 1_555 1_555
C10_4 C9_4 1_555 1_555
C11_4 C10_4 1_555 1_555
H6_4 C11_4 1_555 1_555
C12_4 C10_4 1_555 1_555
C25_4 C26_4 1_555 1_555
C26_4 C27_4 1_555 1_555
C27_4 H13_4 1_555 1_555
C30_4 C26_4 1_555 1_555
H15_4 C30_4 1_555 1_555
N3_4 C5_2 1_555 1_555
N4_4 C7_4 1_555 1_555
O1_4 C1_4 1_555 1_555
O2_4 C1_4 1_555 1_555
O18_2 C12_4 1_555 1_555
O19_2 C12_4 1_555 1_555
O5_4 Tb5_2 1_555 1_555
O6_4 Tb3_2 1_555 1_555
O9_4 Tb3_2 1_555 1_555
O10_4 Tb3_2 1_555 1_555
O11_4 Tb5_2 1_555 1_555
O12_4 Tb5_2 1_555 1_555
O13_4 Tb5_2 1_555 1_555
O16_4 Tb3_2 1_555 1_555
O17_4 Tb3_2 1_555 1_555
S1_2 C5_2 1_555 1_555
S2_4 C7_4 1_555 1_555
C6_4 N3_4 1_555 1_555
C11_4 N4_4 1_555 1_555
C25_4 O5_4 1_555 1_555
C25_4 O6_4 1_555 1_555
S1_2 S2_4 1_555 1_555
O9_4 H19_4 1_555 1_555
O10_4 H21_4 1_555 1_555
O12_4 H23_4 1_555 1_555
O12_4 H24_4 1_555 1_555
O13_4 H25_4 1_555 1_555
O13_4 H26_4 1_555 1_555
O11_4 H27_4 1_555 1_555
O11_4 H28_4 1_555 1_555
H14_4 C28_4 1_555 1_555
C29_4 C28_4 1_555 1_555
C31_4 C32_4 1_555 1_555
C32_4 H16_4 1_555 1_555
C33_4 C32_4 1_555 1_555
H17_4 C33_4 1_555 1_555
C34_4 C33_4 1_555 1_555
C35_4 C34_4 1_555 1_555
C36_4 C34_4 1_555 1_555
H18_4 C36_4 1_555 1_555
N5_4 C29_4 1_555 1_555
N6_4 C31_4 1_555 1_555
O20_2 C35_4 1_555 1_555
O21_2 C35_4 1_555 1_555
S3_4 C29_4 1_555 1_555
S4_4 C31_4 1_555 1_555
C36_4 N6_4 1_555 1_555
S3_4 S4_4 1_555 1_555
H2_3 C4_3 1_555 1_555
C5_3 C4_3 1_555 1_555
S1_3 C5_3 1_555 1_555
C7_5 C8_5 1_555 1_555
C8_5 H4_5 1_555 1_555
C9_5 C8_5 1_555 1_555
H5_5 C9_5 1_555 1_555
C10_5 C9_5 1_555 1_555
C11_5 C10_5 1_555 1_555
H6_5 C11_5 1_555 1_555
C12_5 C10_5 1_555 1_555
H17_5 C33_5 1_555 1_555
C34_5 C33_5 1_555 1_555
C35_5 C34_5 1_555 1_555
C36_5 C34_5 1_555 1_555
H18_5 C36_5 1_555 1_555
N4_5 C7_5 1_555 1_555
O3_3 C12_5 1_555 1_555
O4_3 C12_5 1_555 1_555
O7_3 C35_5 1_555 1_555
O8_3 C35_5 1_555 1_555
S2_5 C7_5 1_555 1_555
Tb3_3 O4_3 1_555 1_555
Tb4_2 O3_3 1_555 1_555
C11_5 N4_5 1_555 1_555
O7_3 Tb4_2 1_555 1_555
O8_3 Tb3_3 1_555 1_555
Tb1_3 O2_5 1_555 1_555
Tb2_2 O1_5 1_555 1_555
C1_5 C2_5 1_555 1_555
C6_5 C2_5 1_555 1_555
H3_5 C6_5 1_555 1_555
C25_5 C26_5 1_555 1_555
C26_5 C27_5 1_555 1_555
C27_5 H13_5 1_555 1_555
C28_5 C27_5 1_555 1_555
H14_5 C28_5 1_555 1_555
C29_5 C28_5 1_555 1_555
C30_5 C26_5 1_555 1_555
H15_5 C30_5 1_555 1_555
C31_5 C32_5 1_555 1_555
C32_5 H16_5 1_555 1_555
N5_5 C29_5 1_555 1_555
N6_5 C31_5 1_555 1_555
O1_5 C1_5 1_555 1_555
O2_5 C1_5 1_555 1_555
O5_5 Tb2_2 1_555 1_555
O6_5 Tb1_3 1_555 1_555
O9_5 Tb1_3 1_555 1_555
O11_5 Tb2_2 1_555 1_555
O12_5 Tb2_2 1_555 1_555
O16_5 Tb1_3 1_555 1_555
O17_5 Tb1_3 1_555 1_555
S3_5 C29_5 1_555 1_555
S4_5 C31_5 1_555 1_555
O20_3 Tb2_2 1_555 1_555
O21_3 Tb1_3 1_555 1_555
O22_3 Tb2_2 1_555 1_555
C25_5 O5_5 1_555 1_555
C25_5 O6_5 1_555 1_555
C30_5 N5_5 1_555 1_555
S3_5 S4_5 1_555 1_555
O9_5 H19_5 1_555 1_555
O12_5 H23_5 1_555 1_555
O12_5 H24_5 1_555 1_555
O11_5 H27_5 1_555 1_555
O11_5 H28_5 1_555 1_555
C3_5 H1_5 1_555 1_555
O10_5 H21_5 1_555 1_555
O13_5 H25_5 1_555 1_555
O13_5 H26_5 1_555 1_555
H14_6 C28_6 1_555 1_555
C29_6 C28_6 1_555 1_555
C31_6 C32_6 1_555 1_555
C32_6 H16_6 1_555 1_555
C33_6 C32_6 1_555 1_555
H17_6 C33_6 1_555 1_555
C34_6 C33_6 1_555 1_555
C35_6 C34_6 1_555 1_555
C36_6 C34_6 1_555 1_555
H18_6 C36_6 1_555 1_555
N5_6 C29_6 1_555 1_555
N6_6 C31_6 1_555 1_555
O20_3 C35_6 1_555 1_555
O21_3 C35_6 1_555 1_555
S3_6 C29_6 1_555 1_555
S4_6 C31_6 1_555 1_555
C36_6 N6_6 1_555 1_555
S3_6 S4_6 1_555 1_555
Tb3_3 O2_6 1_555 1_555
Tb4_2 O1_6 1_555 1_555
C1_6 C2_6 1_555 1_555
C2_6 C3_6 1_555 1_555
C3_6 H1_6 1_555 1_555
C4_4 C3_6 1_555 1_555
H2_4 C4_4 1_555 1_555
C5_4 C4_4 1_555 1_555
C6_6 C2_6 1_555 1_555
H3_6 C6_6 1_555 1_555
C7_6 C8_6 1_555 1_555
C8_6 H4_6 1_555 1_555
C9_6 C8_6 1_555 1_555
H5_6 C9_6 1_555 1_555
C10_6 C9_6 1_555 1_555
C11_6 C10_6 1_555 1_555
H6_6 C11_6 1_555 1_555
C12_6 C10_6 1_555 1_555
C25_6 C26_6 1_555 1_555
C26_6 C27_6 1_555 1_555
C27_6 H13_6 1_555 1_555
C30_6 C26_6 1_555 1_555
H15_6 C30_6 1_555 1_555
N3_6 C5_4 1_555 1_555
N4_6 C7_6 1_555 1_555
O1_6 C1_6 1_555 1_555
O2_6 C1_6 1_555 1_555
O18_3 C12_6 1_555 1_555
O19_3 C12_6 1_555 1_555
O5_6 Tb4_2 1_555 1_555
O6_6 Tb3_3 1_555 1_555
O9_6 Tb3_3 1_555 1_555
O10_6 Tb3_3 1_555 1_555
O11_6 Tb4_2 1_555 1_555
O12_6 Tb4_2 1_555 1_555
O13_6 Tb4_2 1_555 1_555
O16_6 Tb3_3 1_555 1_555
O17_6 Tb3_3 1_555 1_555
S1_4 C5_4 1_555 1_555
S2_6 C7_6 1_555 1_555
O22_4 Tb4_2 1_555 1_555
C6_6 N3_6 1_555 1_555
C11_6 N4_6 1_555 1_555
C25_6 O5_6 1_555 1_555
C25_6 O6_6 1_555 1_555
S1_4 S2_6 1_555 1_555
O9_6 H19_6 1_555 1_555
O10_6 H21_6 1_555 1_555
O12_6 H23_6 1_555 1_555
O12_6 H24_6 1_555 1_555
O13_6 H25_6 1_555 1_555
O13_6 H26_6 1_555 1_555
O11_6 H27_6 1_555 1_555
O11_6 H28_6 1_555 1_555
C13_5 C14_5 1_555 1_555
C14_5 C15_5 1_555 1_555
C15_5 H7_5 1_555 1_555
C16_4 C15_5 1_555 1_555
H8_4 C16_4 1_555 1_555
C17_4 C16_4 1_555 1_555
C18_4 C14_5 1_555 1_555
H9_4 C18_4 1_555 1_555
H11_4 C21_4 1_555 1_555
C22_4 C21_4 1_555 1_555
C23_4 C22_4 1_555 1_555
H12_4 C23_4 1_555 1_555
C24_4 C22_4 1_555 1_555
N1_4 C17_4 1_555 1_555
N2_4 C19_4 1_555 1_555
O14_3 C13_5 1_555 1_555
O15_5 C13_5 1_555 1_555
S5_4 C17_4 1_555 1_555
Tb5_3 O14_3 1_555 1_555
C18_4 N1_4 1_555 1_555
C23_4 N2_4 1_555 1_555
C7_7 C8_7 1_555 1_555
C8_7 H4_7 1_555 1_555
C9_7 C8_7 1_555 1_555
H5_7 C9_7 1_555 1_555
C10_7 C9_7 1_555 1_555
C11_7 C10_7 1_555 1_555
H6_7 C11_7 1_555 1_555
C12_7 C10_7 1_555 1_555
H17_7 C33_7 1_555 1_555
C34_7 C33_7 1_555 1_555
C35_7 C34_7 1_555 1_555
C36_7 C34_7 1_555 1_555
H18_7 C36_7 1_555 1_555
N4_7 C7_7 1_555 1_555
O3_4 C12_7 1_555 1_555
O4_4 C12_7 1_555 1_555
O7_4 C35_7 1_555 1_555
O8_4 C35_7 1_555 1_555
S2_7 C7_7 1_555 1_555
Tb3_4 O4_4 1_555 1_555
Tb5_3 O3_4 1_555 1_555
C11_7 N4_7 1_555 1_555
O7_4 Tb5_3 1_555 1_555
O8_4 Tb3_4 1_555 1_555
C3_7 H1_7 1_555 1_555
C13_6 C14_6 1_555 1_555
C14_6 C15_6 1_555 1_555
C15_6 H7_6 1_555 1_555
O22_3 C13_6 1_555 1_555
O15_6 C13_6 1_555 1_555
O10_7 H21_7 1_555 1_555
O10_7 H22_6 1_555 1_555
O13_7 H25_7 1_555 1_555
O13_7 H26_7 1_555 1_555
Tb3_4 O2_7 1_555 1_555
Tb5_3 O1_7 1_555 1_555
C1_7 C2_7 1_555 1_555
C2_7 C3_8 1_555 1_555
C3_8 H1_8 1_555 1_555
C4_5 C3_8 1_555 1_555
H2_5 C4_5 1_555 1_555
C5_5 C4_5 1_555 1_555
C6_7 C2_7 1_555 1_555
H3_7 C6_7 1_555 1_555
C7_8 C8_8 1_555 1_555
C8_8 H4_8 1_555 1_555
C9_8 C8_8 1_555 1_555
H5_8 C9_8 1_555 1_555
C10_8 C9_8 1_555 1_555
C11_8 C10_8 1_555 1_555
H6_8 C11_8 1_555 1_555
C12_8 C10_8 1_555 1_555
C13_7 C14_7 1_555 1_555
C14_7 C15_7 1_555 1_555
C15_7 H7_7 1_555 1_555
C16_5 C15_7 1_555 1_555
H8_5 C16_5 1_555 1_555
C17_5 C16_5 1_555 1_555
C18_5 C14_7 1_555 1_555
H9_5 C18_5 1_555 1_555
H11_5 C21_5 1_555 1_555
C22_5 C21_5 1_555 1_555
C23_5 C22_5 1_555 1_555
H12_5 C23_5 1_555 1_555
C24_5 C22_5 1_555 1_555
C25_7 C26_7 1_555 1_555
C26_7 C27_7 1_555 1_555
C27_7 H13_7 1_555 1_555
C30_7 C26_7 1_555 1_555
H15_7 C30_7 1_555 1_555
N1_5 C17_5 1_555 1_555
N2_5 C19_5 1_555 1_555
N3_8 C5_5 1_555 1_555
N4_8 C7_8 1_555 1_555
O1_7 C1_7 1_555 1_555
O2_7 C1_7 1_555 1_555
O18_4 C12_8 1_555 1_555
O19_4 C12_8 1_555 1_555
O5_7 Tb5_3 1_555 1_555
O6_7 Tb3_4 1_555 1_555
O9_7 Tb3_4 1_555 1_555
O10_8 Tb3_4 1_555 1_555
O11_7 Tb5_3 1_555 1_555
O12_7 Tb5_3 1_555 1_555
O13_8 Tb5_3 1_555 1_555
O22_4 C13_7 1_555 1_555
O15_7 C13_7 1_555 1_555
O16_7 Tb3_4 1_555 1_555
O17_7 Tb3_4 1_555 1_555
S1_5 C5_5 1_555 1_555
S2_8 C7_8 1_555 1_555
S5_5 C17_5 1_555 1_555
C6_7 N3_8 1_555 1_555
C11_8 N4_8 1_555 1_555
C18_5 N1_5 1_555 1_555
C23_5 N2_5 1_555 1_555
C24_5 O16_7 1_555 1_555
C24_5 O17_7 1_555 1_555
C25_7 O5_7 1_555 1_555
C25_7 O6_7 1_555 1_555
S1_5 S2_8 1_555 1_555
O9_7 H19_7 1_555 1_555
O9_7 H20_5 1_555 1_555
O10_8 H21_8 1_555 1_555
O10_8 H22_7 1_555 1_555
O12_7 H23_7 1_555 1_555
O12_7 H24_7 1_555 1_555
O13_8 H25_8 1_555 1_555
O13_8 H26_8 1_555 1_555
O11_7 H27_7 1_555 1_555
O11_7 H28_7 1_555 1_555
H2_6 C4_6 1_555 1_555
C5_6 C4_6 1_555 1_555
S1_6 C5_6 1_555 1_555
H8_6 C16_6 1_555 1_555
C17_6 C16_6 1_555 1_555
H9_6 C18_6 1_555 1_555
C19_6 C20_2 1_555 1_555
C20_2 H10_2 1_555 1_555
C21_6 C20_2 1_555 1_555
H11_6 C21_6 1_555 1_555
C22_6 C21_6 1_555 1_555
C23_6 C22_6 1_555 1_555
H12_6 C23_6 1_555 1_555
C24_6 C22_6 1_555 1_555
N1_6 C17_6 1_555 1_555
N2_6 C19_6 1_555 1_555
S5_6 C17_6 1_555 1_555
S6_2 C19_6 1_555 1_555
C18_6 N1_6 1_555 1_555
C23_6 N2_6 1_555 1_555
S5_6 S6_2 1_555 1_555
C13_8 C14_8 1_555 1_555
C14_8 C15_8 1_555 1_555
C15_8 H7_8 1_555 1_555
O14_4 C13_8 1_555 1_555
O15_8 C13_8 1_555 1_555
Tb5_4 O14_4 1_555 1_555
Tb1_4 O2_8 1_555 1_555
Tb5_4 O1_8 1_555 1_555
C1_8 C2_8 1_555 1_555
C6_8 C2_8 1_555 1_555
H3_8 C6_8 1_555 1_555
H8_7 C16_7 1_555 1_555
C17_7 C16_7 1_555 1_555
H9_7 C18_7 1_555 1_555
C19_7 C20_3 1_555 1_555
C20_3 H10_3 1_555 1_555
C21_7 C20_3 1_555 1_555
H11_7 C21_7 1_555 1_555
C22_7 C21_7 1_555 1_555
C23_7 C22_7 1_555 1_555
H12_7 C23_7 1_555 1_555
C24_7 C22_7 1_555 1_555
C25_8 C26_8 1_555 1_555
C26_8 C27_8 1_555 1_555
C27_8 H13_8 1_555 1_555
C28_7 C27_8 1_555 1_555
H14_7 C28_7 1_555 1_555
C29_7 C28_7 1_555 1_555
C30_8 C26_8 1_555 1_555
H15_8 C30_8 1_555 1_555
C31_7 C32_7 1_555 1_555
C32_7 H16_7 1_555 1_555
N1_7 C17_7 1_555 1_555
N2_7 C19_7 1_555 1_555
N5_7 C29_7 1_555 1_555
N6_7 C31_7 1_555 1_555
O1_8 C1_8 1_555 1_555
O2_8 C1_8 1_555 1_555
O5_8 Tb5_4 1_555 1_555
O6_8 Tb1_4 1_555 1_555
O9_8 Tb1_4 1_555 1_555
O11_8 Tb5_4 1_555 1_555
O12_8 Tb5_4 1_555 1_555
O16_8 Tb1_4 1_555 1_555
O17_8 Tb1_4 1_555 1_555
S3_7 C29_7 1_555 1_555
S4_7 C31_7 1_555 1_555
S5_7 C17_7 1_555 1_555
S6_3 C19_7 1_555 1_555
O20_4 Tb5_4 1_555 1_555
O21_4 Tb1_4 1_555 1_555
C18_7 N1_7 1_555 1_555
C23_7 N2_7 1_555 1_555
C24_7 O16_8 1_555 1_555
C24_7 O17_8 1_555 1_555
C25_8 O5_8 1_555 1_555
C25_8 O6_8 1_555 1_555
C30_8 N5_7 1_555 1_555
S3_7 S4_7 1_555 1_555
S5_7 S6_3 1_555 1_555
O9_8 H19_8 1_555 1_555
O9_8 H20_7 1_555 1_555
O12_8 H23_8 1_555 1_555
O12_8 H24_8 1_555 1_555
O11_8 H27_8 1_555 1_555
O11_8 H28_8 1_555 1_555
H14_8 C28_8 1_555 1_555
C29_8 C28_8 1_555 1_555
C31_8 C32_8 1_555 1_555
C32_8 H16_8 1_555 1_555
C33_8 C32_8 1_555 1_555
H17_8 C33_8 1_555 1_555
C34_8 C33_8 1_555 1_555
C35_8 C34_8 1_555 1_555
C36_8 C34_8 1_555 1_555
H18_8 C36_8 1_555 1_555
N5_8 C29_8 1_555 1_555
N6_8 C31_8 1_555 1_555
O20_4 C35_8 1_555 1_555
O21_4 C35_8 1_555 1_555
S3_8 C29_8 1_555 1_555
S4_8 C31_8 1_555 1_555
C36_8 N6_8 1_555 1_555
S3_8 S4_8 1_555 1_555
C20_4 H10_4 1_555 1_555
C20_5 H10_5 1_555 1_555
H2_7 C4_7 1_555 1_555
C5_7 C4_7 1_555 1_555
S1_7 C5_7 1_555 1_555
H8_8 C16_8 1_555 1_555
C17_8 C16_8 1_555 1_555
H9_8 C18_8 1_555 1_555
C19_8 C20_6 1_555 1_555
C20_6 H10_6 1_555 1_555
C21_8 C20_6 1_555 1_555
H11_8 C21_8 1_555 1_555
C22_8 C21_8 1_555 1_555
C23_8 C22_8 1_555 1_555
H12_8 C23_8 1_555 1_555
C24_8 C22_8 1_555 1_555
N1_8 C17_8 1_555 1_555
N2_8 C19_8 1_555 1_555
S5_8 C17_8 1_555 1_555
S6_6 C19_8 1_555 1_555
C18_8 N1_8 1_555 1_555
C23_8 N2_8 1_555 1_555
S5_8 S6_6 1_555 1_555
H2_8 C4_8 1_555 1_555
C5_8 C4_8 1_555 1_555
S1_8 C5_8 1_555 1_555
C20_7 H10_7 1_555 1_555
C20_8 H10_8 1_555 1_555

#END
