
###############################################################################
#
# This file contains modified crystal structure data generated from the
# MOF subset of the Cambridge Structural Database (CSD) v543 
# hosted by the Cambridge Crystallographic Data Centre (CCDC).
#
# This work is licensed under the Creative Commons
# Attribution-NonCommercial-ShareAlike 4.0 International License.
# To view a copy of this license, visit
# http://creativecommons.org/licenses/by-nc-sa/4.0/
# or send a letter to
# Creative Commons, PO Box 1866, Mountain View, CA 94042, USA.
#
# CIF created using the CSD Python API on 29 September 2022
# The structure has been converted into the P1 space group
# The structure has a 3D framework
# The original CSD entry GAJVIY is in the orthorhombic crystal system
# The framework has been calculated to contain at least 10.0% void space
# The void calculation uses a probe of radius 1.32A, grid spacing 0.4
#
###############################################################################

data_GAJVIY
_chemical_formula_moiety         '(C240 H192 N8 O64 Zn10)n'
_symmetry_cell_setting           triclinic
_symmetry_space_group_name_H-M   'P 1'
_symmetry_Int_Tables_number      1
_space_group_name_Hall           'P 1'
loop_
_symmetry_equiv_pos_site_id
_symmetry_equiv_pos_as_xyz
1 x,y,z
_cell_length_a                   24.6744(5)
_cell_length_b                   14.5575(5)
_cell_length_c                   22.4021(6)
_cell_angle_alpha                90
_cell_angle_beta                 90
_cell_angle_gamma                90
_cell_volume                     8046.78
loop_
_atom_site_label
_atom_site_type_symbol
_atom_site_fract_x
_atom_site_fract_y
_atom_site_fract_z
C52 C 0.02299(13) 0.3189(2) 0.81977(15)
H30 H 0.0446 0.3265 0.7851
C53 C 0.03900(12) 0.3589(2) 0.87439(15)
C54 C 0.00759(13) 0.3451(2) 0.92453(15)
H31 H 0.0182 0.3719 0.9614
C56 C 0.09007(11) 0.41488(19) 0.87653(14)
O15 O 0.12255(8) 0.40765(14) 0.83425(10)
O16 O 0.09628(9) 0.46312(15) 0.92298(10)
Zn7 Zn 0.155975(10) 0.49643(2) 0.770978(18)
Zn10 Zn 0.160280(12) 0.53922(2) 0.935180(13)
Zn6 Zn 0.655975(10) 0.00357(2) 0.770978(18)
Zn1 Zn 0.656167(12) 0.04083(2) 0.613224(13)
O1 O 0.65132(10) 0.03415(18) 0.52673(12)
O2 O 0.73147(10) 0.10132(17) 0.51110(10)
C1 C 0.69009(13) 0.0617(2) 0.49399(14)
C2 C 0.68285(13) 0.0407(2) 0.42810(14)
C6 C 0.71524(15) 0.0506(3) 0.32674(16)
H3 H 0.7412 0.0723 0.2988
C7 C 0.72088(14) 0.0732(3) 0.38709(15)
H4 H 0.7503 0.1102 0.4001
O9 O 0.64380(10) 0.16820(15) 0.63659(11)
O10 O 0.68059(9) 0.12252(14) 0.72257(10)
C29 C 0.65856(12) 0.1818(2) 0.69070(16)
C30 C 0.65152(14) 0.2772(2) 0.71488(16)
C31 C 0.62846(16) 0.3462(2) 0.67993(17)
H17 H 0.6162 0.3329 0.6407
C32 C 0.62350(16) 0.4339(2) 0.70266(17)
H18 H 0.6083 0.4809 0.6785
C33 C 0.64043(14) 0.45476(19) 0.76042(15)
C34 C 0.66324(17) 0.3849(2) 0.79543(18)
H19 H 0.6753 0.3976 0.8349
C35 C 0.66806(16) 0.2971(2) 0.77197(17)
H20 H 0.6831 0.2497 0.7959
C36 C 0.63644(14) 0.5502(2) 0.78454(16)
C37 C 0.63928(17) 0.6252(2) 0.74741(16)
H21 H 0.6416 0.6154 0.7056
C38 C 0.63883(15) 0.7148(2) 0.76872(16)
H22 H 0.6396 0.7654 0.7420
C39 C 0.63722(13) 0.7288(2) 0.83038(14)
C40 C 0.63428(16) 0.6544(2) 0.86821(16)
H23 H 0.6332 0.6640 0.9101
C41 C 0.63290(18) 0.5657(2) 0.84598(17)
H24 H 0.6295 0.5152 0.8726
C42 C 0.63964(12) 0.8242(2) 0.85455(15)
O11 O 0.62917(10) 0.88950(15) 0.82003(11)
O12 O 0.65149(9) 0.83349(16) 0.90893(12)
O13 O 0.73119(9) 0.00993(17) 0.80991(11)
O14 O 0.72770(9) 0.01906(17) 0.90990(11)
C43 C 0.74865(12) 0.0349(2) 0.85947(14)
C44 C 0.79978(12) 0.0902(2) 0.86135(15)
C45 C 0.81427(13) 0.1441(2) 0.81244(15)
H25 H 0.7925 0.1441 0.7775
C46 C 0.86088(14) 0.1978(3) 0.81524(16)
H26 H 0.8705 0.2354 0.7822
C47 C 0.89361(13) 0.1972(2) 0.86585(15)
C48 C 0.87887(13) 0.1421(3) 0.91361(16)
H27 H 0.9013 0.1402 0.9480
C49 C 0.83249(12) 0.0904(2) 0.91213(16)
H28 H 0.8226 0.0545 0.9458
C50 C 0.94379(13) 0.2525(2) 0.86813(15)
C51 C 0.97539(14) 0.2684(2) 0.81721(16)
H29 H 0.9639 0.2440 0.7800
C55 C 0.96083(13) 0.2928(2) 0.92208(15)
H32 H 0.9399 0.2840 0.9572
Zn8 Zn 0.660280(12) 0.96078(2) 0.935180(13)
O22 O 0.62255(8) 0.09235(14) 0.83425(10)
O23 O 0.59628(9) 0.03688(15) 0.92298(10)
C3 C 0.64082(14) 0.9860(3) 0.40892(16)
H1 H 0.6154 0.9629 0.4370
C4 C 0.63534(15) 0.9644(3) 0.34942(15)
H2 H 0.6060 0.9267 0.3370
C5 C 0.67192(17) 0.9967(3) 0.30694(16)
C8 C 0.66523(16) 0.9753(3) 0.24238(17)
C9 C 0.61371(15) 0.9563(3) 0.21928(16)
H5 H 0.5835 0.9544 0.2455
C10 C 0.60607(14) 0.9402(3) 0.15933(15)
H6 H 0.5710 0.9252 0.1448
C11 C 0.64918(14) 0.9457(2) 0.12011(17)
C12 C 0.70067(15) 0.9610(3) 0.14272(17)
H7 H 0.7309 0.9623 0.1164
C13 C 0.70850(15) 0.9746(3) 0.20383(15)
H8 H 0.7441 0.9834 0.2189
C14 C 0.63907(14) 0.9367(3) 0.05411(15)
O3 O 0.59489(11) 0.9089(2) 0.03601(11)
O4 O 0.67835(11) 0.95846(18) 0.02030(10)
O5 O 0.59150(9) 0.96888(17) 0.62985(11)
O6 O 0.58202(9) 0.99810(16) 0.72784(11)
C15 C 0.56765(12) 0.9626(2) 0.67993(14)
C16 C 0.51619(12) 0.9060(2) 0.67999(14)
C17 C 0.49105(14) 0.8835(3) 0.62651(15)
H9 H 0.5063 0.9035 0.5898
C18 C 0.44416(14) 0.8323(3) 0.62630(16)
H10 H 0.4268 0.8185 0.5895
C19 C 0.42181(13) 0.8003(2) 0.67999(15)
C20 C 0.44787(15) 0.8221(3) 0.73331(15)
H11 H 0.4338 0.8001 0.7701
C21 C 0.49419(14) 0.8758(3) 0.73288(15)
H12 H 0.5110 0.8919 0.7696
C22 C 0.37198(13) 0.7425(2) 0.67905(15)
C23 C 0.36275(14) 0.6821(2) 0.63102(15)
H13 H 0.3882 0.6784 0.5993
C24 C 0.31667(13) 0.6279(2) 0.62996(14)
H14 H 0.3110 0.5869 0.5976
C25 C 0.27870(12) 0.6328(2) 0.67538(14)
C26 C 0.28737(13) 0.6929(2) 0.72297(15)
H15 H 0.2616 0.6965 0.7543
C27 C 0.33384(14) 0.7479(3) 0.72473(17)
H16 H 0.3394 0.7889 0.7571
C28 C 0.22839(11) 0.5753(2) 0.67267(13)
O7 O 0.22595(9) 0.51696(16) 0.63025(10)
O8 O 0.19221(8) 0.58875(13) 0.71039(9)
Zn4 Zn 0.156167(12) 0.45917(2) 0.613224(13)
O17 O 0.72595(9) 0.98304(16) 0.63025(10)
O18 O 0.69221(8) 0.91125(13) 0.71039(9)
O1_2 O 0.15132(10) 0.46585(18) 0.52673(12)
O2_2 O 0.23147(10) 0.39868(17) 0.51110(10)
C1_2 C 0.19009(13) 0.4383(2) 0.49399(14)
C2_2 C 0.18285(13) 0.4593(2) 0.42810(14)
C3_2 C 0.14082(14) 0.5140(3) 0.40892(16)
H1_2 H 0.1154 0.5371 0.4370
C4_2 C 0.13534(15) 0.5356(3) 0.34942(15)
H2_2 H 0.1060 0.5733 0.3370
C5_2 C 0.17192(17) 0.5033(3) 0.30694(16)
C6_2 C 0.21524(15) 0.4494(3) 0.32674(16)
H3_2 H 0.2412 0.4277 0.2988
C7_2 C 0.22088(14) 0.4268(3) 0.38709(15)
H4_2 H 0.2503 0.3898 0.4001
C8_2 C 0.16523(16) 0.5247(3) 0.24238(17)
C9_2 C 0.11371(15) 0.5437(3) 0.21928(16)
H5_2 H 0.0835 0.5456 0.2455
C10_2 C 0.10607(14) 0.5598(3) 0.15933(15)
H6_2 H 0.0710 0.5748 0.1448
C11_2 C 0.14918(14) 0.5543(2) 0.12011(17)
C12_2 C 0.20067(15) 0.5390(3) 0.14272(17)
H7_2 H 0.2309 0.5377 0.1164
C13_2 C 0.20850(15) 0.5254(3) 0.20383(15)
H8_2 H 0.2441 0.5166 0.2189
C14_2 C 0.13907(14) 0.5633(3) 0.05411(15)
O3_2 O 0.09489(11) 0.5911(2) 0.03601(11)
O4_2 O 0.17835(11) 0.54154(18) 0.02030(10)
O5_2 O 0.09150(9) 0.53112(17) 0.62985(11)
O6_2 O 0.08202(9) 0.50190(16) 0.72784(11)
C15_2 C 0.06765(12) 0.5374(2) 0.67993(14)
C16_2 C 0.01619(12) 0.5940(2) 0.67999(14)
H9_2 H 0.0063 0.5965 0.5898
H12_2 H 0.0110 0.6081 0.7696
O9_2 O 0.14380(10) 0.33180(15) 0.63659(11)
O10_2 O 0.18059(9) 0.37748(14) 0.72257(10)
C29_2 C 0.15856(12) 0.3182(2) 0.69070(16)
C30_2 C 0.15152(14) 0.2228(2) 0.71488(16)
C31_2 C 0.12846(16) 0.1538(2) 0.67993(17)
H17_2 H 0.1162 0.1671 0.6407
C32_2 C 0.12350(16) 0.0661(2) 0.70266(17)
H18_2 H 0.1083 0.0191 0.6785
C33_2 C 0.14043(14) 0.04524(19) 0.76042(15)
C34_2 C 0.16324(17) 0.1151(2) 0.79543(18)
H19_2 H 0.1753 0.1024 0.8349
C35_2 C 0.16806(16) 0.2029(2) 0.77197(17)
H20_2 H 0.1831 0.2503 0.7959
O13_2 O 0.23119(9) 0.49007(17) 0.80991(11)
O14_2 O 0.22770(9) 0.48094(17) 0.90990(11)
C43_2 C 0.24865(12) 0.4651(2) 0.85947(14)
C44_2 C 0.29978(12) 0.4098(2) 0.86135(15)
C45_2 C 0.31427(13) 0.3559(2) 0.81244(15)
H25_2 H 0.2925 0.3559 0.7775
C46_2 C 0.36088(14) 0.3022(3) 0.81524(16)
H26_2 H 0.3705 0.2646 0.7822
C47_2 C 0.39361(13) 0.3028(2) 0.86585(15)
C48_2 C 0.37887(13) 0.3579(3) 0.91361(16)
H27_2 H 0.4013 0.3598 0.9480
C49_2 C 0.33249(12) 0.4096(2) 0.91213(16)
H28_2 H 0.3226 0.4455 0.9458
C50_2 C 0.44379(13) 0.2475(2) 0.86813(15)
C51_2 C 0.47539(14) 0.2316(2) 0.81721(16)
H29_2 H 0.4639 0.2560 0.7800
C52_2 C 0.52299(13) 0.1811(2) 0.81977(15)
H30_2 H 0.5446 0.1735 0.7851
C53_2 C 0.53900(12) 0.1411(2) 0.87439(15)
C54_2 C 0.50759(13) 0.1549(2) 0.92453(15)
H31_2 H 0.5182 0.1281 0.9614
C55_2 C 0.46083(13) 0.2072(2) 0.92208(15)
H32_2 H 0.4399 0.2160 0.9572
C56_2 C 0.59007(11) 0.08512(19) 0.87653(14)
O19 O 0.12917(10) 0.61050(15) 0.82003(11)
O20 O 0.15149(9) 0.66651(16) 0.90893(12)
C36_2 C 0.13644(14) 0.9498(2) 0.78454(16)
C37_2 C 0.13928(17) 0.8748(2) 0.74741(16)
H21_2 H 0.1416 0.8846 0.7056
C38_2 C 0.13883(15) 0.7852(2) 0.76872(16)
H22_2 H 0.1396 0.7346 0.7420
C39_2 C 0.13722(13) 0.7712(2) 0.83038(14)
C40_2 C 0.13428(16) 0.8456(2) 0.86821(16)
H23_2 H 0.1332 0.8360 0.9101
C41_2 C 0.13290(18) 0.9343(2) 0.84598(17)
H24_2 H 0.1295 0.9848 0.8726
C42_2 C 0.13964(12) 0.6758(2) 0.85455(15)
C17_2 C 0.99105(14) 0.6165(3) 0.62651(15)
C18_2 C 0.94416(14) 0.6677(3) 0.62630(16)
H10_2 H 0.9268 0.6815 0.5895
C19_2 C 0.92181(13) 0.6997(2) 0.67999(15)
C20_2 C 0.94787(15) 0.6779(3) 0.73331(15)
H11_2 H 0.9338 0.6999 0.7701
C21_2 C 0.99419(14) 0.6242(3) 0.73288(15)
C22_2 C 0.87198(13) 0.7575(2) 0.67905(15)
C23_2 C 0.86275(14) 0.8179(2) 0.63102(15)
H13_2 H 0.8882 0.8216 0.5993
C24_2 C 0.81667(13) 0.8721(2) 0.62996(14)
H14_2 H 0.8110 0.9131 0.5976
C25_2 C 0.77870(12) 0.8672(2) 0.67538(14)
C26_2 C 0.78737(13) 0.8071(2) 0.72297(15)
H15_2 H 0.7616 0.8035 0.7543
C27_2 C 0.83384(14) 0.7521(3) 0.72473(17)
H16_2 H 0.8394 0.7111 0.7571
C28_2 C 0.72839(11) 0.9247(2) 0.67267(13)
O5_3 O 0.40850(9) 0.03112(17) 0.12985(11)
O6_3 O 0.41798(9) 0.00190(16) 0.22784(11)
C15_3 C 0.43235(12) 0.0374(2) 0.17993(14)
C16_3 C 0.48381(12) 0.0940(2) 0.17999(14)
C17_3 C 0.50895(14) 0.1165(3) 0.12651(15)
H9_3 H 0.4937 0.0965 0.0898
C18_3 C 0.55584(14) 0.1677(3) 0.12630(16)
H10_3 H 0.5732 0.1815 0.0895
C19_3 C 0.57819(13) 0.1997(2) 0.17999(15)
C20_3 C 0.55213(15) 0.1779(3) 0.23331(15)
H11_3 H 0.5662 0.1999 0.2701
C21_3 C 0.50581(14) 0.1242(3) 0.23288(15)
H12_3 H 0.4890 0.1081 0.2696
C22_3 C 0.62802(13) 0.2575(2) 0.17905(15)
C23_3 C 0.63725(14) 0.3179(2) 0.13102(15)
H13_3 H 0.6118 0.3216 0.0993
C24_3 C 0.68333(13) 0.3721(2) 0.12996(14)
H14_3 H 0.6890 0.4131 0.0976
C25_3 C 0.72130(12) 0.3672(2) 0.17538(14)
C26_3 C 0.71263(13) 0.3071(2) 0.22297(15)
H15_3 H 0.7384 0.3035 0.2543
C27_3 C 0.66616(14) 0.2521(3) 0.22473(17)
H16_3 H 0.6606 0.2111 0.2571
C28_3 C 0.77161(11) 0.4247(2) 0.17267(13)
O7_2 O 0.77405(9) 0.48304(16) 0.13025(10)
O8_2 O 0.80779(8) 0.41125(13) 0.21039(9)
Zn4_2 Zn 0.843833(12) 0.54083(2) 0.113224(13)
Zn5 Zn 0.844025(10) 0.50357(2) 0.270978(18)
Zn9 Zn 0.339720(12) 0.03922(2) 0.435180(13)
O17_2 O 0.27405(9) 0.01696(16) 0.13025(10)
O18_2 O 0.30779(8) 0.08875(13) 0.21039(9)
O19_2 O 0.37083(10) 0.11050(15) 0.32003(11)
C3_3 C 0.35918(14) 0.0140(3) 0.90892(16)
H1_3 H 0.3846 0.0371 0.9370
C4_3 C 0.36466(15) 0.0356(3) 0.84942(15)
H2_3 H 0.3940 0.0733 0.8370
C5_3 C 0.32808(17) 0.0033(3) 0.80694(16)
C8_3 C 0.33477(16) 0.0247(3) 0.74238(17)
C9_3 C 0.38629(15) 0.0437(3) 0.71928(16)
H5_3 H 0.4165 0.0456 0.7455
C10_3 C 0.39393(14) 0.0598(3) 0.65933(15)
H6_3 H 0.4290 0.0748 0.6448
C11_3 C 0.35082(14) 0.0543(2) 0.62011(17)
C12_3 C 0.29933(15) 0.0390(3) 0.64272(17)
H7_3 H 0.2691 0.0377 0.6164
C13_3 C 0.29150(15) 0.0254(3) 0.70383(15)
H8_3 H 0.2559 0.0166 0.7189
C14_3 C 0.36093(14) 0.0633(3) 0.55411(15)
O3_3 O 0.40511(11) 0.0911(2) 0.53601(11)
O4_3 O 0.32165(11) 0.04154(18) 0.52030(10)
O20_2 O 0.34851(9) 0.16651(16) 0.40893(12)
Zn1_2 Zn 0.343833(12) 0.95917(2) 0.113224(13)
Zn2 Zn 0.344025(10) 0.99643(2) 0.270978(18)
O1_3 O 0.34868(10) 0.96585(18) 0.02673(12)
O2_3 O 0.26853(10) 0.89868(17) 0.01110(10)
O9_3 O 0.35620(10) 0.83180(15) 0.13659(11)
O10_3 O 0.31941(9) 0.87748(14) 0.22257(10)
C29_3 C 0.34144(12) 0.8182(2) 0.19070(16)
C30_3 C 0.34848(14) 0.7228(2) 0.21488(16)
C31_3 C 0.37154(16) 0.6538(2) 0.17993(17)
H17_3 H 0.3838 0.6671 0.1407
C32_3 C 0.37650(16) 0.5661(2) 0.20266(17)
H18_3 H 0.3917 0.5191 0.1785
C33_3 C 0.35957(14) 0.54524(19) 0.26042(15)
C34_3 C 0.33676(17) 0.6151(2) 0.29543(18)
H19_3 H 0.3247 0.6024 0.3349
C35_3 C 0.33194(16) 0.7029(2) 0.27197(17)
H20_3 H 0.3169 0.7503 0.2959
C36_3 C 0.36356(14) 0.4498(2) 0.28454(16)
C37_3 C 0.36072(17) 0.3748(2) 0.24741(16)
H21_3 H 0.3584 0.3846 0.2056
C38_3 C 0.36117(15) 0.2852(2) 0.26872(16)
H22_3 H 0.3604 0.2346 0.2420
C39_3 C 0.36278(13) 0.2712(2) 0.33038(14)
C40_3 C 0.36572(16) 0.3456(2) 0.36821(16)
H23_3 H 0.3668 0.3360 0.4101
C41_3 C 0.36710(18) 0.4343(2) 0.34598(17)
H24_3 H 0.3705 0.4848 0.3726
C42_3 C 0.36036(12) 0.1758(2) 0.35455(15)
O13_3 O 0.26881(9) 0.99007(17) 0.30991(11)
O14_3 O 0.27230(9) 0.98094(17) 0.40990(11)
C43_3 C 0.25135(12) 0.9651(2) 0.35947(14)
C44_3 C 0.20022(12) 0.9098(2) 0.36135(15)
C45_3 C 0.18573(13) 0.8559(2) 0.31244(15)
H25_3 H 0.2075 0.8559 0.2775
C46_3 C 0.13912(14) 0.8022(3) 0.31524(16)
H26_3 H 0.1295 0.7646 0.2822
C47_3 C 0.10639(13) 0.8028(2) 0.36585(15)
C48_3 C 0.12113(13) 0.8579(3) 0.41361(16)
H27_3 H 0.0987 0.8598 0.4480
C49_3 C 0.16751(12) 0.9096(2) 0.41213(16)
H28_3 H 0.1774 0.9455 0.4458
C50_3 C 0.05621(13) 0.7475(2) 0.36813(15)
C51_3 C 0.02461(14) 0.7316(2) 0.31721(16)
H29_3 H 0.0361 0.7560 0.2800
C55_3 C 0.03917(13) 0.7072(2) 0.42208(15)
H32_3 H 0.0601 0.7160 0.4572
O22_2 O 0.37745(8) 0.90765(14) 0.33425(10)
C1_3 C 0.30991(13) 0.9383(2) 0.99399(14)
C2_3 C 0.31715(13) 0.9593(2) 0.92810(14)
C6_3 C 0.28476(15) 0.9494(3) 0.82674(16)
H3_3 H 0.2588 0.9277 0.7988
C7_3 C 0.27912(14) 0.9268(3) 0.88709(15)
H4_3 H 0.2497 0.8898 0.9001
O23_2 O 0.40372(9) 0.96312(15) 0.42298(10)
C52_3 C 0.97701(13) 0.6811(2) 0.31977(15)
H30_3 H 0.9554 0.6735 0.2851
C53_3 C 0.96100(12) 0.6411(2) 0.37439(15)
C54_3 C 0.99241(13) 0.6549(2) 0.42453(15)
H31_3 H 0.9818 0.6281 0.4614
C56_3 C 0.90993(11) 0.58512(19) 0.37653(14)
O15_2 O 0.87745(8) 0.59235(14) 0.33425(10)
O16_2 O 0.90372(9) 0.53688(15) 0.42298(10)
Zn10_2 Zn 0.839720(12) 0.46078(2) 0.435180(13)
C17_4 C 0.00895(14) 0.3835(3) 0.12651(15)
C18_4 C 0.05584(14) 0.3323(3) 0.12630(16)
H10_4 H 0.0732 0.3185 0.0895
C19_4 C 0.07819(13) 0.3003(2) 0.17999(15)
C20_4 C 0.05213(15) 0.3221(3) 0.23331(15)
H11_4 H 0.0662 0.3001 0.2701
C21_4 C 0.00581(14) 0.3758(3) 0.23288(15)
C22_4 C 0.12802(13) 0.2425(2) 0.17905(15)
C23_4 C 0.13725(14) 0.1821(2) 0.13102(15)
H13_4 H 0.1118 0.1784 0.0993
C24_4 C 0.18333(13) 0.1279(2) 0.12996(14)
H14_4 H 0.1890 0.0869 0.0976
C25_4 C 0.22130(12) 0.1328(2) 0.17538(14)
C26_4 C 0.21263(13) 0.1929(2) 0.22297(15)
H15_4 H 0.2384 0.1965 0.2543
C27_4 C 0.16616(14) 0.2479(3) 0.22473(17)
H16_4 H 0.1606 0.2889 0.2571
C28_4 C 0.27161(11) 0.0753(2) 0.17267(13)
C36_4 C 0.86356(14) 0.0502(2) 0.28454(16)
C37_4 C 0.86072(17) 0.1252(2) 0.24741(16)
H21_4 H 0.8584 0.1154 0.2056
C38_4 C 0.86117(15) 0.2148(2) 0.26872(16)
H22_4 H 0.8604 0.2654 0.2420
C39_4 C 0.86278(13) 0.2288(2) 0.33038(14)
C40_4 C 0.86572(16) 0.1544(2) 0.36821(16)
H23_4 H 0.8668 0.1640 0.4101
C41_4 C 0.86710(18) 0.0657(2) 0.34598(17)
H24_4 H 0.8705 0.0152 0.3726
C42_4 C 0.86036(12) 0.3242(2) 0.35455(15)
O11_2 O 0.87083(10) 0.38950(15) 0.32003(11)
O12_2 O 0.84851(9) 0.33349(16) 0.40893(12)
O1_4 O 0.84868(10) 0.53415(18) 0.02673(12)
O2_4 O 0.76853(10) 0.60132(17) 0.01110(10)
O5_4 O 0.90850(9) 0.46888(17) 0.12985(11)
O6_4 O 0.91798(9) 0.49810(16) 0.22784(11)
C15_4 C 0.93235(12) 0.4626(2) 0.17993(14)
C16_4 C 0.98381(12) 0.4060(2) 0.17999(14)
H9_4 H 0.9937 0.4035 0.0898
H12_4 H 0.9890 0.3919 0.2696
O9_4 O 0.85620(10) 0.66820(15) 0.13659(11)
O10_4 O 0.81941(9) 0.62252(14) 0.22257(10)
C29_4 C 0.84144(12) 0.6818(2) 0.19070(16)
C30_4 C 0.84848(14) 0.7772(2) 0.21488(16)
C31_4 C 0.87154(16) 0.8462(2) 0.17993(17)
H17_4 H 0.8838 0.8329 0.1407
C32_4 C 0.87650(16) 0.9339(2) 0.20266(17)
H18_4 H 0.8917 0.9809 0.1785
C33_4 C 0.85957(14) 0.95476(19) 0.26042(15)
C34_4 C 0.83676(17) 0.8849(2) 0.29543(18)
H19_4 H 0.8247 0.8976 0.3349
C35_4 C 0.83194(16) 0.7971(2) 0.27197(17)
H20_4 H 0.8169 0.7497 0.2959
O13_4 O 0.76881(9) 0.50993(17) 0.30991(11)
O14_4 O 0.77230(9) 0.51906(17) 0.40990(11)
C43_4 C 0.75135(12) 0.5349(2) 0.35947(14)
C44_4 C 0.70022(12) 0.5902(2) 0.36135(15)
C45_4 C 0.68573(13) 0.6441(2) 0.31244(15)
H25_4 H 0.7075 0.6441 0.2775
C46_4 C 0.63912(14) 0.6978(3) 0.31524(16)
H26_4 H 0.6295 0.7354 0.2822
C47_4 C 0.60639(13) 0.6972(2) 0.36585(15)
C48_4 C 0.62113(13) 0.6421(3) 0.41361(16)
H27_4 H 0.5987 0.6402 0.4480
C49_4 C 0.66751(12) 0.5904(2) 0.41213(16)
H28_4 H 0.6774 0.5545 0.4458
C50_4 C 0.55621(13) 0.7525(2) 0.36813(15)
C51_4 C 0.52461(14) 0.7684(2) 0.31721(16)
H29_4 H 0.5361 0.7440 0.2800
C52_4 C 0.47701(13) 0.8189(2) 0.31977(15)
H30_4 H 0.4554 0.8265 0.2851
C53_4 C 0.46100(12) 0.8589(2) 0.37439(15)
C54_4 C 0.49241(13) 0.8451(2) 0.42453(15)
H31_4 H 0.4818 0.8719 0.4614
C55_4 C 0.53917(13) 0.7928(2) 0.42208(15)
H32_4 H 0.5601 0.7840 0.4572
C56_4 C 0.40993(11) 0.91488(19) 0.37653(14)
C1_4 C 0.80991(13) 0.5617(2) 0.99399(14)
C2_4 C 0.81715(13) 0.5407(2) 0.92810(14)
C3_4 C 0.85918(14) 0.4860(3) 0.90892(16)
H1_4 H 0.8846 0.4629 0.9370
C4_4 C 0.86466(15) 0.4644(3) 0.84942(15)
H2_4 H 0.8940 0.4267 0.8370
C5_4 C 0.82808(17) 0.4967(3) 0.80694(16)
C6_4 C 0.78476(15) 0.5506(3) 0.82674(16)
H3_4 H 0.7588 0.5723 0.7988
C7_4 C 0.77912(14) 0.5732(3) 0.88709(15)
H4_4 H 0.7497 0.6102 0.9001
C8_4 C 0.83477(16) 0.4753(3) 0.74238(17)
C9_4 C 0.88629(15) 0.4563(3) 0.71928(16)
H5_4 H 0.9165 0.4544 0.7455
C10_4 C 0.89393(14) 0.4402(3) 0.65933(15)
H6_4 H 0.9290 0.4252 0.6448
C11_4 C 0.85082(14) 0.4457(2) 0.62011(17)
C12_4 C 0.79933(15) 0.4610(3) 0.64272(17)
H7_4 H 0.7691 0.4623 0.6164
C13_4 C 0.79150(15) 0.4746(3) 0.70383(15)
H8_4 H 0.7559 0.4834 0.7189
C14_4 C 0.86093(14) 0.4367(3) 0.55411(15)
O3_4 O 0.90511(11) 0.4089(2) 0.53601(11)
O4_4 O 0.82165(11) 0.45846(18) 0.52030(10)
N1 N 0.81304(12) 0.1353(2) 0.59180(14)
H33 H 0.7846 0.1054 0.5736
H34 H 0.8316 0.0927 0.6142
C57 C 0.79097(18) 0.2044(3) 0.6318(2)
H35 H 0.7676 0.1747 0.6614
H36 H 0.7698 0.2490 0.6088
H37 H 0.8207 0.2361 0.6523
C58 C 0.84934(18) 0.1698(4) 0.5455(2)
H38 H 0.8622 0.1184 0.5210
H39 H 0.8804 0.2005 0.5641
H40 H 0.8298 0.2137 0.5202
N1_2 N 0.18696(12) 0.8647(2) 0.09180(14)
H33_2 H 0.2154 0.8946 0.0736
H34_2 H 0.1684 0.9073 0.1142
C57_2 C 0.20903(18) 0.7956(3) 0.1318(2)
H35_2 H 0.2324 0.8253 0.1614
H36_2 H 0.2302 0.7510 0.1088
H37_2 H 0.1793 0.7639 0.1523
C58_2 C 0.15066(18) 0.8302(4) 0.0455(2)
H38_2 H 0.1378 0.8816 0.0210
H39_2 H 0.1196 0.7995 0.0641
H40_2 H 0.1702 0.7863 0.0202
N1_3 N 0.68696(12) 0.6353(2) 0.09180(14)
H33_3 H 0.7154 0.6054 0.0736
H34_3 H 0.6684 0.5927 0.1142
C57_3 C 0.70903(18) 0.7044(3) 0.1318(2)
H35_3 H 0.7324 0.6747 0.1614
H36_3 H 0.7302 0.7490 0.1088
H37_3 H 0.6793 0.7361 0.1523
C58_3 C 0.65066(18) 0.6698(4) 0.0455(2)
H38_3 H 0.6378 0.6184 0.0210
H39_3 H 0.6196 0.7005 0.0641
H40_3 H 0.6702 0.7137 0.0202
N1_4 N 0.31304(12) 0.3647(2) 0.59180(14)
H33_4 H 0.2846 0.3946 0.5736
H34_4 H 0.3316 0.4073 0.6142
C57_4 C 0.29097(18) 0.2956(3) 0.6318(2)
H35_4 H 0.2676 0.3253 0.6614
H36_4 H 0.2698 0.2510 0.6088
H37_4 H 0.3207 0.2639 0.6523
C58_4 C 0.34934(18) 0.3302(4) 0.5455(2)
H38_4 H 0.3622 0.3816 0.5210
H39_4 H 0.3804 0.2995 0.5641
H40_4 H 0.3298 0.2863 0.5202
C60 C 0.4698(2) 0.8924(4) 0.0055(2)
H46 H 0.4789 0.8754 0.0467
H48 H 0.4673 0.9594 0.0024
N2 N 0.51243(13) 0.8586(3) 0.96493(16)
H41 H 0.5451 0.8842 0.9758
H42 H 0.5154 0.7959 0.9691
C59 C 0.50151(18) 0.8804(4) 0.9018(2)
H43 H 0.5307 0.8558 0.8769
H44 H 0.4995 0.9472 0.8968
H45 H 0.4670 0.8527 0.8898
H47 H 0.4350 0.8649 0.9945
N2_2 N 0.48757(13) 0.1414(3) 0.46493(16)
H41_2 H 0.4549 0.1158 0.4758
H42_2 H 0.4846 0.2041 0.4691
C59_2 C 0.49849(18) 0.1196(4) 0.4018(2)
H43_2 H 0.4693 0.1442 0.3769
H44_2 H 0.5005 0.0528 0.3968
H45_2 H 0.5330 0.1473 0.3898
C60_2 C 0.5302(2) 0.1076(4) 0.5055(2)
H46_2 H 0.5211 0.1246 0.5467
H47_2 H 0.5650 0.1351 0.4945
H48_2 H 0.5327 0.0406 0.5024
H44_3 H 0.0005 0.4472 0.3968
H45_3 H 0.0330 0.3527 0.3898
C60_3 C 0.0302(2) 0.3924(4) 0.5055(2)
H46_3 H 0.0211 0.3754 0.5467
H47_3 H 0.0650 0.3649 0.4945
H48_3 H 0.0327 0.4594 0.5024
N2_3 N 0.98757(13) 0.3586(3) 0.46493(16)
H41_3 H 0.9549 0.3842 0.4758
H42_3 H 0.9846 0.2959 0.4691
C59_3 C 0.99849(18) 0.3804(4) 0.4018(2)
H43_3 H 0.9693 0.3558 0.3769
N2_4 N 0.01243(13) 0.6414(3) 0.96493(16)
H41_4 H 0.0451 0.6158 0.9758
H42_4 H 0.0154 0.7041 0.9691
C59_4 C 0.00151(18) 0.6196(4) 0.9018(2)
H43_4 H 0.0307 0.6442 0.8769
C60_4 C 0.9698(2) 0.6076(4) 0.0055(2)
H46_4 H 0.9789 0.6246 0.0467
H48_4 H 0.9673 0.5406 0.0024
H44_4 H 0.9995 0.5528 0.8968
H45_4 H 0.9670 0.6473 0.8898
H47_4 H 0.9350 0.6351 0.9945
loop_
_geom_bond_atom_site_label_1
_geom_bond_atom_site_label_2
_geom_bond_site_symmetry_1
_geom_bond_site_symmetry_2
H30 C52 1_555 1_555
C53 C52 1_555 1_555
C54 C53 1_555 1_555
H31 C54 1_555 1_555
C56 C53 1_555 1_555
O15 C56 1_555 1_555
O16 C56 1_555 1_555
Zn7 O15 1_555 1_555
Zn10 O16 1_555 1_555
Zn1 O1 1_555 1_555
O1 C1 1_555 1_555
O2 C1 1_555 1_555
C1 C2 1_555 1_555
H3 C6 1_555 1_555
C7 C2 1_555 1_555
H4 C7 1_555 1_555
O9 Zn1 1_555 1_555
O10 Zn6 1_555 1_555
C29 O9 1_555 1_555
C30 C29 1_555 1_555
C31 C30 1_555 1_555
H17 C31 1_555 1_555
C32 C31 1_555 1_555
H18 C32 1_555 1_555
C33 C32 1_555 1_555
C34 C33 1_555 1_555
H19 C34 1_555 1_555
C35 C30 1_555 1_555
H20 C35 1_555 1_555
C36 C33 1_555 1_555
C37 C36 1_555 1_555
H21 C37 1_555 1_555
C38 C37 1_555 1_555
H22 C38 1_555 1_555
C39 C38 1_555 1_555
C40 C39 1_555 1_555
H23 C40 1_555 1_555
C41 C36 1_555 1_555
H24 C41 1_555 1_555
C42 C39 1_555 1_555
O11 C42 1_555 1_555
O12 C42 1_555 1_555
O13 Zn6 1_555 1_555
O14 C43 1_555 1_555
C43 O13 1_555 1_555
C44 C43 1_555 1_555
C45 C44 1_555 1_555
H25 C45 1_555 1_555
C46 C45 1_555 1_555
H26 C46 1_555 1_555
C47 C46 1_555 1_555
C48 C47 1_555 1_555
H27 C48 1_555 1_555
C49 C44 1_555 1_555
H28 C49 1_555 1_555
C50 C47 1_555 1_555
C51 C50 1_555 1_555
H29 C51 1_555 1_555
C55 C50 1_555 1_555
H32 C55 1_555 1_555
Zn8 O12 1_555 1_555
O22 Zn6 1_555 1_555
C6 C7 1_555 1_555
O10 C29 1_555 1_555
C34 C35 1_555 1_555
C40 C41 1_555 1_555
C48 C49 1_555 1_555
C3 H1 1_555 1_555
C4 C3 1_555 1_555
H2 C4 1_555 1_555
C5 C4 1_555 1_555
C8 C5 1_555 1_555
C9 C8 1_555 1_555
H5 C9 1_555 1_555
C10 C9 1_555 1_555
H6 C10 1_555 1_555
C11 C10 1_555 1_555
C12 C11 1_555 1_555
H7 C12 1_555 1_555
C13 C8 1_555 1_555
H8 C13 1_555 1_555
C14 C11 1_555 1_555
O3 C14 1_555 1_555
O4 C14 1_555 1_555
O6 C15 1_555 1_555
C15 O5 1_555 1_555
C16 C15 1_555 1_555
C17 C16 1_555 1_555
H9 C17 1_555 1_555
C18 C17 1_555 1_555
H10 C18 1_555 1_555
C19 C18 1_555 1_555
C20 C19 1_555 1_555
H11 C20 1_555 1_555
C21 C16 1_555 1_555
H12 C21 1_555 1_555
C22 C19 1_555 1_555
C23 C22 1_555 1_555
H13 C23 1_555 1_555
C24 C23 1_555 1_555
H14 C24 1_555 1_555
C25 C24 1_555 1_555
C26 C25 1_555 1_555
H15 C26 1_555 1_555
C27 C22 1_555 1_555
H16 C27 1_555 1_555
C28 C25 1_555 1_555
O7 C28 1_555 1_555
O8 C28 1_555 1_555
Zn4 O7 1_555 1_555
Zn7 O8 1_555 1_555
C12 C13 1_555 1_555
C20 C21 1_555 1_555
C26 C27 1_555 1_555
Zn4 O1_2 1_555 1_555
Zn7 O6_2 1_555 1_555
O1_2 C1_2 1_555 1_555
O2_2 C1_2 1_555 1_555
C1_2 C2_2 1_555 1_555
C2_2 C3_2 1_555 1_555
C3_2 H1_2 1_555 1_555
C4_2 C3_2 1_555 1_555
H2_2 C4_2 1_555 1_555
C5_2 C4_2 1_555 1_555
C6_2 C5_2 1_555 1_555
H3_2 C6_2 1_555 1_555
C7_2 C2_2 1_555 1_555
H4_2 C7_2 1_555 1_555
C8_2 C5_2 1_555 1_555
C9_2 C8_2 1_555 1_555
H5_2 C9_2 1_555 1_555
C10_2 C9_2 1_555 1_555
H6_2 C10_2 1_555 1_555
C11_2 C10_2 1_555 1_555
C12_2 C11_2 1_555 1_555
H7_2 C12_2 1_555 1_555
C13_2 C8_2 1_555 1_555
H8_2 C13_2 1_555 1_555
C14_2 C11_2 1_555 1_555
O3_2 C14_2 1_555 1_555
O4_2 C14_2 1_555 1_555
O5_2 Zn4 1_555 1_555
O6_2 C15_2 1_555 1_555
C15_2 O5_2 1_555 1_555
C16_2 C15_2 1_555 1_555
O9_2 Zn4 1_555 1_555
O10_2 Zn7 1_555 1_555
C29_2 O9_2 1_555 1_555
C30_2 C29_2 1_555 1_555
C31_2 C30_2 1_555 1_555
H17_2 C31_2 1_555 1_555
C32_2 C31_2 1_555 1_555
H18_2 C32_2 1_555 1_555
C33_2 C32_2 1_555 1_555
C34_2 C33_2 1_555 1_555
H19_2 C34_2 1_555 1_555
C35_2 C30_2 1_555 1_555
H20_2 C35_2 1_555 1_555
O13_2 Zn7 1_555 1_555
O14_2 C43_2 1_555 1_555
C43_2 O13_2 1_555 1_555
C44_2 C43_2 1_555 1_555
C45_2 C44_2 1_555 1_555
H25_2 C45_2 1_555 1_555
C46_2 C45_2 1_555 1_555
H26_2 C46_2 1_555 1_555
C47_2 C46_2 1_555 1_555
C48_2 C47_2 1_555 1_555
H27_2 C48_2 1_555 1_555
C49_2 C44_2 1_555 1_555
H28_2 C49_2 1_555 1_555
C50_2 C47_2 1_555 1_555
C51_2 C50_2 1_555 1_555
H29_2 C51_2 1_555 1_555
C52_2 C51_2 1_555 1_555
H30_2 C52_2 1_555 1_555
C53_2 C52_2 1_555 1_555
C54_2 C53_2 1_555 1_555
H31_2 C54_2 1_555 1_555
C55_2 C50_2 1_555 1_555
H32_2 C55_2 1_555 1_555
C56_2 C53_2 1_555 1_555
O22 C56_2 1_555 1_555
O23 C56_2 1_555 1_555
Zn10 O14_2 1_555 1_555
O19 Zn7 1_555 1_555
C6_2 C7_2 1_555 1_555
C12_2 C13_2 1_555 1_555
O10_2 C29_2 1_555 1_555
C34_2 C35_2 1_555 1_555
C48_2 C49_2 1_555 1_555
C54_2 C55_2 1_555 1_555
O20 Zn10 1_555 1_555
C37_2 C36_2 1_555 1_555
H21_2 C37_2 1_555 1_555
C38_2 C37_2 1_555 1_555
H22_2 C38_2 1_555 1_555
C39_2 C38_2 1_555 1_555
C40_2 C39_2 1_555 1_555
H23_2 C40_2 1_555 1_555
C41_2 C36_2 1_555 1_555
H24_2 C41_2 1_555 1_555
C42_2 C39_2 1_555 1_555
O19 C42_2 1_555 1_555
O20 C42_2 1_555 1_555
C40_2 C41_2 1_555 1_555
C18_2 C17_2 1_555 1_555
H10_2 C18_2 1_555 1_555
C19_2 C18_2 1_555 1_555
C20_2 C19_2 1_555 1_555
H11_2 C20_2 1_555 1_555
C22_2 C19_2 1_555 1_555
C23_2 C22_2 1_555 1_555
H13_2 C23_2 1_555 1_555
C24_2 C23_2 1_555 1_555
H14_2 C24_2 1_555 1_555
C25_2 C24_2 1_555 1_555
C26_2 C25_2 1_555 1_555
H15_2 C26_2 1_555 1_555
C27_2 C22_2 1_555 1_555
H16_2 C27_2 1_555 1_555
C28_2 C25_2 1_555 1_555
O17 C28_2 1_555 1_555
O18 C28_2 1_555 1_555
C20_2 C21_2 1_555 1_555
C26_2 C27_2 1_555 1_555
O6_3 C15_3 1_555 1_555
C15_3 O5_3 1_555 1_555
C16_3 C15_3 1_555 1_555
C17_3 C16_3 1_555 1_555
H9_3 C17_3 1_555 1_555
C18_3 C17_3 1_555 1_555
H10_3 C18_3 1_555 1_555
C19_3 C18_3 1_555 1_555
C20_3 C19_3 1_555 1_555
H11_3 C20_3 1_555 1_555
C21_3 C16_3 1_555 1_555
H12_3 C21_3 1_555 1_555
C22_3 C19_3 1_555 1_555
C23_3 C22_3 1_555 1_555
H13_3 C23_3 1_555 1_555
C24_3 C23_3 1_555 1_555
H14_3 C24_3 1_555 1_555
C25_3 C24_3 1_555 1_555
C26_3 C25_3 1_555 1_555
H15_3 C26_3 1_555 1_555
C27_3 C22_3 1_555 1_555
H16_3 C27_3 1_555 1_555
C28_3 C25_3 1_555 1_555
O7_2 C28_3 1_555 1_555
O8_2 C28_3 1_555 1_555
Zn4_2 O7_2 1_555 1_555
Zn5 O8_2 1_555 1_555
C20_3 C21_3 1_555 1_555
C26_3 C27_3 1_555 1_555
Zn9 O4_3 1_555 1_555
C3_3 H1_3 1_555 1_555
C4_3 C3_3 1_555 1_555
H2_3 C4_3 1_555 1_555
C5_3 C4_3 1_555 1_555
C8_3 C5_3 1_555 1_555
C9_3 C8_3 1_555 1_555
H5_3 C9_3 1_555 1_555
C10_3 C9_3 1_555 1_555
H6_3 C10_3 1_555 1_555
C11_3 C10_3 1_555 1_555
C12_3 C11_3 1_555 1_555
H7_3 C12_3 1_555 1_555
C13_3 C8_3 1_555 1_555
H8_3 C13_3 1_555 1_555
C14_3 C11_3 1_555 1_555
O3_3 C14_3 1_555 1_555
O4_3 C14_3 1_555 1_555
O20_2 Zn9 1_555 1_555
C12_3 C13_3 1_555 1_555
Zn1_2 O1_3 1_555 1_555
O9_3 Zn1_2 1_555 1_555
O10_3 Zn2 1_555 1_555
C29_3 O9_3 1_555 1_555
C30_3 C29_3 1_555 1_555
C31_3 C30_3 1_555 1_555
H17_3 C31_3 1_555 1_555
C32_3 C31_3 1_555 1_555
H18_3 C32_3 1_555 1_555
C33_3 C32_3 1_555 1_555
C34_3 C33_3 1_555 1_555
H19_3 C34_3 1_555 1_555
C35_3 C30_3 1_555 1_555
H20_3 C35_3 1_555 1_555
C36_3 C33_3 1_555 1_555
C37_3 C36_3 1_555 1_555
H21_3 C37_3 1_555 1_555
C38_3 C37_3 1_555 1_555
H22_3 C38_3 1_555 1_555
C39_3 C38_3 1_555 1_555
C40_3 C39_3 1_555 1_555
H23_3 C40_3 1_555 1_555
C41_3 C36_3 1_555 1_555
H24_3 C41_3 1_555 1_555
C42_3 C39_3 1_555 1_555
O19_2 C42_3 1_555 1_555
O20_2 C42_3 1_555 1_555
O13_3 Zn2 1_555 1_555
O14_3 C43_3 1_555 1_555
C43_3 O13_3 1_555 1_555
C44_3 C43_3 1_555 1_555
C45_3 C44_3 1_555 1_555
H25_3 C45_3 1_555 1_555
C46_3 C45_3 1_555 1_555
H26_3 C46_3 1_555 1_555
C47_3 C46_3 1_555 1_555
C48_3 C47_3 1_555 1_555
H27_3 C48_3 1_555 1_555
C49_3 C44_3 1_555 1_555
H28_3 C49_3 1_555 1_555
C50_3 C47_3 1_555 1_555
C51_3 C50_3 1_555 1_555
H29_3 C51_3 1_555 1_555
C55_3 C50_3 1_555 1_555
H32_3 C55_3 1_555 1_555
O22_2 Zn2 1_555 1_555
O10_3 C29_3 1_555 1_555
C34_3 C35_3 1_555 1_555
C40_3 C41_3 1_555 1_555
C48_3 C49_3 1_555 1_555
C1_3 C2_3 1_555 1_555
H3_3 C6_3 1_555 1_555
C7_3 C2_3 1_555 1_555
H4_3 C7_3 1_555 1_555
C6_3 C7_3 1_555 1_555
H30_3 C52_3 1_555 1_555
C53_3 C52_3 1_555 1_555
C54_3 C53_3 1_555 1_555
H31_3 C54_3 1_555 1_555
C56_3 C53_3 1_555 1_555
O15_2 C56_3 1_555 1_555
O16_2 C56_3 1_555 1_555
Zn5 O15_2 1_555 1_555
Zn10_2 O16_2 1_555 1_555
C18_4 C17_4 1_555 1_555
H10_4 C18_4 1_555 1_555
C19_4 C18_4 1_555 1_555
C20_4 C19_4 1_555 1_555
H11_4 C20_4 1_555 1_555
C22_4 C19_4 1_555 1_555
C23_4 C22_4 1_555 1_555
H13_4 C23_4 1_555 1_555
C24_4 C23_4 1_555 1_555
H14_4 C24_4 1_555 1_555
C25_4 C24_4 1_555 1_555
C26_4 C25_4 1_555 1_555
H15_4 C26_4 1_555 1_555
C27_4 C22_4 1_555 1_555
H16_4 C27_4 1_555 1_555
C28_4 C25_4 1_555 1_555
O17_2 C28_4 1_555 1_555
O18_2 C28_4 1_555 1_555
C20_4 C21_4 1_555 1_555
C26_4 C27_4 1_555 1_555
C37_4 C36_4 1_555 1_555
H21_4 C37_4 1_555 1_555
C38_4 C37_4 1_555 1_555
H22_4 C38_4 1_555 1_555
C39_4 C38_4 1_555 1_555
C40_4 C39_4 1_555 1_555
H23_4 C40_4 1_555 1_555
C41_4 C36_4 1_555 1_555
H24_4 C41_4 1_555 1_555
C42_4 C39_4 1_555 1_555
O11_2 C42_4 1_555 1_555
O12_2 C42_4 1_555 1_555
Zn5 O11_2 1_555 1_555
Zn10_2 O12_2 1_555 1_555
C40_4 C41_4 1_555 1_555
Zn4_2 O1_4 1_555 1_555
Zn5 O6_4 1_555 1_555
O5_4 Zn4_2 1_555 1_555
O6_4 C15_4 1_555 1_555
C15_4 O5_4 1_555 1_555
C16_4 C15_4 1_555 1_555
O9_4 Zn4_2 1_555 1_555
O10_4 Zn5 1_555 1_555
C29_4 O9_4 1_555 1_555
C30_4 C29_4 1_555 1_555
C31_4 C30_4 1_555 1_555
H17_4 C31_4 1_555 1_555
C32_4 C31_4 1_555 1_555
H18_4 C32_4 1_555 1_555
C33_4 C32_4 1_555 1_555
C34_4 C33_4 1_555 1_555
H19_4 C34_4 1_555 1_555
C35_4 C30_4 1_555 1_555
H20_4 C35_4 1_555 1_555
O13_4 Zn5 1_555 1_555
O14_4 C43_4 1_555 1_555
C43_4 O13_4 1_555 1_555
C44_4 C43_4 1_555 1_555
C45_4 C44_4 1_555 1_555
H25_4 C45_4 1_555 1_555
C46_4 C45_4 1_555 1_555
H26_4 C46_4 1_555 1_555
C47_4 C46_4 1_555 1_555
C48_4 C47_4 1_555 1_555
H27_4 C48_4 1_555 1_555
C49_4 C44_4 1_555 1_555
H28_4 C49_4 1_555 1_555
C50_4 C47_4 1_555 1_555
C51_4 C50_4 1_555 1_555
H29_4 C51_4 1_555 1_555
C52_4 C51_4 1_555 1_555
H30_4 C52_4 1_555 1_555
C53_4 C52_4 1_555 1_555
C54_4 C53_4 1_555 1_555
H31_4 C54_4 1_555 1_555
C55_4 C50_4 1_555 1_555
H32_4 C55_4 1_555 1_555
C56_4 C53_4 1_555 1_555
O22_2 C56_4 1_555 1_555
O23_2 C56_4 1_555 1_555
Zn10_2 O14_4 1_555 1_555
O10_4 C29_4 1_555 1_555
C34_4 C35_4 1_555 1_555
C48_4 C49_4 1_555 1_555
C54_4 C55_4 1_555 1_555
Zn10_2 O4_4 1_555 1_555
C1_4 C2_4 1_555 1_555
C2_4 C3_4 1_555 1_555
C3_4 H1_4 1_555 1_555
C4_4 C3_4 1_555 1_555
H2_4 C4_4 1_555 1_555
C5_4 C4_4 1_555 1_555
C6_4 C5_4 1_555 1_555
H3_4 C6_4 1_555 1_555
C7_4 C2_4 1_555 1_555
H4_4 C7_4 1_555 1_555
C8_4 C5_4 1_555 1_555
C9_4 C8_4 1_555 1_555
H5_4 C9_4 1_555 1_555
C10_4 C9_4 1_555 1_555
H6_4 C10_4 1_555 1_555
C11_4 C10_4 1_555 1_555
C12_4 C11_4 1_555 1_555
H7_4 C12_4 1_555 1_555
C13_4 C8_4 1_555 1_555
H8_4 C13_4 1_555 1_555
C14_4 C11_4 1_555 1_555
O3_4 C14_4 1_555 1_555
O4_4 C14_4 1_555 1_555
C6_4 C7_4 1_555 1_555
C12_4 C13_4 1_555 1_555
N1 H33 1_555 1_555
H34 N1 1_555 1_555
C57 N1 1_555 1_555
H35 C57 1_555 1_555
H36 C57 1_555 1_555
H37 C57 1_555 1_555
C58 N1 1_555 1_555
H38 C58 1_555 1_555
H39 C58 1_555 1_555
H40 C58 1_555 1_555
N1_2 H33_2 1_555 1_555
H34_2 N1_2 1_555 1_555
C57_2 N1_2 1_555 1_555
H35_2 C57_2 1_555 1_555
H36_2 C57_2 1_555 1_555
H37_2 C57_2 1_555 1_555
C58_2 N1_2 1_555 1_555
H38_2 C58_2 1_555 1_555
H39_2 C58_2 1_555 1_555
H40_2 C58_2 1_555 1_555
N1_3 H33_3 1_555 1_555
H34_3 N1_3 1_555 1_555
C57_3 N1_3 1_555 1_555
H35_3 C57_3 1_555 1_555
H36_3 C57_3 1_555 1_555
H37_3 C57_3 1_555 1_555
C58_3 N1_3 1_555 1_555
H38_3 C58_3 1_555 1_555
H39_3 C58_3 1_555 1_555
H40_3 C58_3 1_555 1_555
N1_4 H33_4 1_555 1_555
H34_4 N1_4 1_555 1_555
C57_4 N1_4 1_555 1_555
H35_4 C57_4 1_555 1_555
H36_4 C57_4 1_555 1_555
H37_4 C57_4 1_555 1_555
C58_4 N1_4 1_555 1_555
H38_4 C58_4 1_555 1_555
H39_4 C58_4 1_555 1_555
H40_4 C58_4 1_555 1_555
H46 C60 1_555 1_555
H48 C60 1_555 1_555
N2 H41 1_555 1_555
H42 N2 1_555 1_555
C59 N2 1_555 1_555
H43 C59 1_555 1_555
H44 C59 1_555 1_555
H45 C59 1_555 1_555
N2_2 H41_2 1_555 1_555
H42_2 N2_2 1_555 1_555
C59_2 N2_2 1_555 1_555
H43_2 C59_2 1_555 1_555
H44_2 C59_2 1_555 1_555
H45_2 C59_2 1_555 1_555
C60_2 N2_2 1_555 1_555
H46_2 C60_2 1_555 1_555
H47_2 C60_2 1_555 1_555
H48_2 C60_2 1_555 1_555
H46_3 C60_3 1_555 1_555
H47_3 C60_3 1_555 1_555
H48_3 C60_3 1_555 1_555
N2_3 H41_3 1_555 1_555
H42_3 N2_3 1_555 1_555
C59_3 N2_3 1_555 1_555
H43_3 C59_3 1_555 1_555
N2_4 H41_4 1_555 1_555
H42_4 N2_4 1_555 1_555
C59_4 N2_4 1_555 1_555
H43_4 C59_4 1_555 1_555
H46_4 C60_4 1_555 1_555
H48_4 C60_4 1_555 1_555

#END
