
###############################################################################
#
# This file contains modified crystal structure data generated from the
# MOF subset of the Cambridge Structural Database (CSD) v543 
# hosted by the Cambridge Crystallographic Data Centre (CCDC).
#
# This work is licensed under the Creative Commons
# Attribution-NonCommercial-ShareAlike 4.0 International License.
# To view a copy of this license, visit
# http://creativecommons.org/licenses/by-nc-sa/4.0/
# or send a letter to
# Creative Commons, PO Box 1866, Mountain View, CA 94042, USA.
#
# CIF created using the CSD Python API on 29 September 2022
# The structure has been converted into the P1 space group
# The structure has a 3D framework
# The original CSD entry GAJVIY01 is in the orthorhombic crystal system
# The framework has been calculated to contain at least 10.0% void space
# The void calculation uses a probe of radius 1.32A, grid spacing 0.4
#
###############################################################################

data_GAJVIY01
_chemical_formula_moiety         '(C240 H192 N8 O64 Zn12)n'
_symmetry_cell_setting           triclinic
_symmetry_space_group_name_H-M   'P 1'
_symmetry_Int_Tables_number      1
_space_group_name_Hall           'P 1'
loop_
_symmetry_equiv_pos_site_id
_symmetry_equiv_pos_as_xyz
1 x,y,z
_cell_length_a                   24.7046(12)
_cell_length_b                   14.5230(9)
_cell_length_c                   22.3879(12)
_cell_angle_alpha                90
_cell_angle_beta                 90
_cell_angle_gamma                90
_cell_volume                     8032.44
loop_
_atom_site_label
_atom_site_type_symbol
_atom_site_fract_x
_atom_site_fract_y
_atom_site_fract_z
N1 N 0.1864(5) 0.8614(10) 0.6080(5)
H1 H 0.172434 0.905480 0.630862
H2 H 0.212770 0.887170 0.586646
C1 C 0.1478(7) 0.8354(17) 0.5696(8)
H3 H 0.152471 0.867540 0.532451
H4 H 0.112895 0.849867 0.585973
H5 H 0.150290 0.770320 0.562784
C2 C 0.2133(8) 0.7894(14) 0.6504(9)
H6 H 0.240194 0.755223 0.628757
H7 H 0.186192 0.747903 0.665222
H8 H 0.230092 0.820690 0.683305
N1_2 N 0.8136(5) 0.1386(10) 0.1080(5)
H1_2 H 0.827566 0.094520 0.130862
H2_2 H 0.787230 0.112830 0.086646
C1_2 C 0.8522(7) 0.1646(17) 0.0696(8)
H3_2 H 0.847529 0.132460 0.032451
H4_2 H 0.887105 0.150133 0.085973
H5_2 H 0.849710 0.229680 0.062784
C2_2 C 0.7867(8) 0.2106(14) 0.1504(9)
H6_2 H 0.759806 0.244777 0.128757
H7_2 H 0.813808 0.252097 0.165222
H8_2 H 0.769908 0.179310 0.183305
N1_3 N 0.6864(5) 0.6386(10) 0.6080(5)
H1_3 H 0.672434 0.594520 0.630862
H2_3 H 0.712770 0.612830 0.586646
C1_3 C 0.6478(7) 0.6646(17) 0.5696(8)
H3_3 H 0.652471 0.632460 0.532451
H4_3 H 0.612895 0.650133 0.585973
H5_3 H 0.650290 0.729680 0.562784
C2_3 C 0.7133(8) 0.7106(14) 0.6504(9)
H6_3 H 0.740194 0.744777 0.628757
H7_3 H 0.686192 0.752097 0.665222
H8_3 H 0.730092 0.679310 0.683305
N1_4 N 0.3136(5) 0.3614(10) 0.1080(5)
H1_4 H 0.327566 0.405480 0.130862
H2_4 H 0.287230 0.387170 0.086646
C1_4 C 0.3522(7) 0.3354(17) 0.0696(8)
H3_4 H 0.347529 0.367540 0.032451
H4_4 H 0.387105 0.349867 0.085973
H5_4 H 0.349710 0.270320 0.062784
C2_4 C 0.2867(8) 0.2894(14) 0.1504(9)
H6_4 H 0.259806 0.255223 0.128757
H7_4 H 0.313808 0.247903 0.165222
H8_4 H 0.269908 0.320690 0.183305
C3 C 0.5304(8) 0.095(2) 0.0194(9)
H12 H 0.517904 0.035006 0.031132
H13 H 0.537746 0.131061 0.054395
N2 N 0.4870(5) 0.1424(14) 0.9819(6)
H9 H 0.454217 0.122815 0.992251
H10 H 0.488467 0.203196 0.986848
H11 H 0.562968 0.088773 0.996291
C4 C 0.4994(7) 0.1168(16) 0.9175(7)
H14 H 0.475708 0.150112 0.891263
H15 H 0.494142 0.051896 0.912004
H16 H 0.536330 0.132344 0.908451
N2_2 N 0.5130(5) 0.8576(14) 0.4819(6)
H9_2 H 0.545783 0.877185 0.492251
H10_2 H 0.511533 0.796804 0.486848
C3_2 C 0.4696(8) 0.905(2) 0.5194(9)
H11_2 H 0.437032 0.911227 0.496291
H12_2 H 0.482096 0.964994 0.531132
H13_2 H 0.462254 0.868939 0.554395
C4_2 C 0.5006(7) 0.8832(16) 0.4175(7)
H14_2 H 0.524292 0.849888 0.391263
H15_2 H 0.505858 0.948104 0.412004
H16_2 H 0.463670 0.867656 0.408451
C3_3 C 0.0304(8) 0.405(2) 0.0194(9)
H12_3 H 0.017904 0.464994 0.031132
H13_3 H 0.037746 0.368939 0.054395
H11_3 H 0.062968 0.411227 0.996291
H16_3 H 0.036330 0.367656 0.908451
N2_3 N 0.9870(5) 0.3576(14) 0.9819(6)
H9_3 H 0.954217 0.377185 0.992251
H10_3 H 0.988467 0.296804 0.986848
C4_3 C 0.9994(7) 0.3832(16) 0.9175(7)
H14_3 H 0.975708 0.349888 0.891263
H15_3 H 0.994142 0.448104 0.912004
N2_4 N 0.0130(5) 0.6424(14) 0.4819(6)
H9_4 H 0.045783 0.622815 0.492251
H10_4 H 0.011533 0.703196 0.486848
C4_4 C 0.0006(7) 0.6168(16) 0.4175(7)
H14_4 H 0.024292 0.650112 0.391263
H15_4 H 0.005858 0.551896 0.412004
C3_4 C 0.9696(8) 0.595(2) 0.5194(9)
H11_4 H 0.937032 0.588773 0.496291
H12_4 H 0.982096 0.535006 0.531132
H13_4 H 0.962254 0.631061 0.554395
H16_4 H 0.963670 0.632344 0.408451
O15 O 0.4049(4) 0.0897(9) 0.0539(5)
O16 O 0.3210(4) 0.0413(7) 0.0377(5)
C49 C 0.3593(6) 0.0120(11) 0.4271(7)
H41 H 0.384362 0.033508 0.454767
C50 C 0.3638(6) 0.0335(12) 0.3637(7)
H42 H 0.390966 0.072842 0.350514
C54 C 0.3370(6) 0.0245(15) 0.2616(8)
C55 C 0.3861(6) 0.0428(11) 0.2347(7)
H45 H 0.416741 0.045341 0.258757
C56 C 0.3925(6) 0.0573(11) 0.1744(7)
H46 H 0.427306 0.071365 0.161299
C57 C 0.3483(6) 0.0528(11) 0.1266(8)
C58 C 0.2985(7) 0.0412(15) 0.1588(7)
H47 H 0.266918 0.045553 0.136297
C59 C 0.2917(6) 0.0243(13) 0.2192(7)
H48 H 0.257017 0.012227 0.233427
C60 C 0.3624(6) 0.0565(11) 0.0703(7)
O19 O 0.2738(4) 0.0176(7) 0.6468(4)
O21 O 0.4081(4) 0.0310(7) 0.6466(4)
Zn4 Zn 0.33974(5) 0.03638(11) 0.95093(6)
Zn3 Zn 0.34381(5) 0.95753(10) 0.62934(6)
O5 O 0.3697(4) 0.1086(7) 0.8351(5)
O6 O 0.3475(4) 0.1654(7) 0.9300(5)
O7 O 0.3070(3) 0.0861(6) 0.7266(4)
O11 O 0.3211(4) 0.8788(6) 0.7389(4)
O12 O 0.3559(4) 0.8317(6) 0.6549(4)
O13 O 0.3485(4) 0.9645(7) 0.5456(4)
O14 O 0.2686(4) 0.8996(8) 0.5288(4)
C19 C 0.2715(5) 0.0724(10) 0.6869(6)
C20 C 0.2210(6) 0.1308(11) 0.6920(6)
C21 C 0.1816(5) 0.1285(11) 0.6438(6)
H25 H 0.187801 0.091283 0.610739
C22 C 0.1371(5) 0.1785(11) 0.6465(6)
H26 H 0.111406 0.173526 0.616283
C23 C 0.1276(6) 0.2414(12) 0.6962(6)
C24 C 0.1655(6) 0.2458(12) 0.7413(7)
H27 H 0.159252 0.284784 0.773511
C25 C 0.2131(6) 0.1934(10) 0.7401(6)
H28 H 0.238909 0.199369 0.770016
C26 C 0.0775(6) 0.2999(13) 0.6954(6)
C27 C 0.0524(7) 0.3171(13) 0.7500(7)
H29 H 0.066395 0.293263 0.785317
C28 C 0.0033(7) 0.3738(13) 0.7503(7)
C30 C 0.0075(6) 0.3822(12) 0.6437(7)
C31 C 0.0561(6) 0.3284(12) 0.6423(6)
H32 H 0.072589 0.313243 0.606272
C33 C 0.3595(5) 0.1741(11) 0.8747(7)
C34 C 0.3626(5) 0.2698(10) 0.8457(7)
C35 C 0.3670(7) 0.3449(11) 0.8859(8)
H33 H 0.366545 0.335991 0.927053
C36 C 0.3720(8) 0.4315(12) 0.8614(8)
H34 H 0.380704 0.480519 0.886337
C37 C 0.3643(6) 0.4484(10) 0.8005(7)
C38 C 0.3577(7) 0.3727(10) 0.7611(7)
H35 H 0.352998 0.381415 0.720310
C39 C 0.3585(7) 0.2826(10) 0.7867(7)
H36 H 0.356009 0.231634 0.761753
C40 C 0.3616(6) 0.5448(9) 0.7759(7)
C41 C 0.3381(7) 0.6189(11) 0.8103(8)
H37 H 0.325813 0.606862 0.848758
C42 C 0.3336(6) 0.6999(10) 0.7895(7)
H38 H 0.320088 0.745950 0.814220
C43 C 0.3484(5) 0.7229(9) 0.7299(6)
C44 C 0.3738(7) 0.5625(10) 0.7189(7)
H39 H 0.383247 0.515508 0.692607
C45 C 0.3717(6) 0.6540(10) 0.7003(7)
H40 H 0.387981 0.668168 0.663949
C46 C 0.3430(5) 0.8191(10) 0.7086(7)
C47 C 0.3100(6) 0.9365(11) 0.5103(6)
C48 C 0.3160(5) 0.9585(9) 0.4439(6)
C51 C 0.3286(7) 0.9965(12) 0.3237(7)
C52 C 0.2850(6) 0.9462(10) 0.3443(6)
H43 H 0.258681 0.926595 0.317455
C53 C 0.2799(6) 0.9246(11) 0.4035(6)
H44 H 0.251783 0.886803 0.416224
Zn6 Zn 0.34370(5) 0.99497(10) 0.78634(8)
O20 O 0.4173(3) 0.0042(7) 0.7437(4)
O3 O 0.2726(4) 0.9789(8) 0.9266(5)
O4 O 0.2685(4) 0.9914(7) 0.8249(5)
C8 C 0.0375(5) 0.7090(10) 0.9364(7)
H18 H 0.057398 0.720347 0.970942
C9 C 0.0553(6) 0.7481(11) 0.8819(6)
C10 C 0.0239(6) 0.7330(12) 0.8314(7)
H19 H 0.034643 0.757045 0.794804
C12 C 0.1071(5) 0.8016(11) 0.8778(7)
C13 C 0.1210(5) 0.8582(10) 0.9254(7)
H21 H 0.097479 0.861131 0.957737
C14 C 0.1675(5) 0.9102(10) 0.9275(6)
H22 H 0.177439 0.943783 0.961132
C15 C 0.2000(5) 0.9087(11) 0.8735(6)
C16 C 0.1857(6) 0.8550(13) 0.8275(7)
H23 H 0.207467 0.851988 0.793653
C17 C 0.1382(5) 0.8038(11) 0.8304(7)
H24 H 0.128072 0.769448 0.797183
C18 C 0.2528(5) 0.9649(10) 0.8754(6)
O17 O 0.4047(4) 0.9593(6) 0.9396(4)
O18 O 0.3765(4) 0.9079(6) 0.8499(4)
O9 O 0.9173(3) 0.4958(7) 0.7437(4)
O10 O 0.9081(4) 0.4690(7) 0.6466(4)
H30 H 0.986381 0.387470 0.786316
C29 C 0.9817(5) 0.4075(11) 0.6971(6)
H31 H 0.992483 0.401170 0.607720
C32 C 0.9315(6) 0.4603(12) 0.6970(7)
Zn8 Zn 0.84370(5) 0.50503(10) 0.78634(8)
Zn10 Zn 0.84381(5) 0.54247(10) 0.62934(6)
O1 O 0.9047(4) 0.5407(6) 0.9396(4)
O2 O 0.8765(4) 0.5921(6) 0.8499(4)
C5 C 0.9114(6) 0.5869(10) 0.8884(6)
C6 C 0.9625(6) 0.6403(11) 0.8875(6)
C7 C 0.9924(5) 0.6556(11) 0.9403(6)
H17 H 0.981659 0.629930 0.976429
C11 C 0.9772(6) 0.6830(11) 0.8353(6)
H20 H 0.954942 0.677868 0.801988
Zn5 Zn 0.83974(5) 0.46362(11) 0.95093(6)
O23 O 0.8210(4) 0.4587(7) 0.0377(5)
O3_2 O 0.7726(4) 0.5211(8) 0.9266(5)
O4_2 O 0.7685(4) 0.5086(7) 0.8249(5)
O5_2 O 0.8697(4) 0.3914(7) 0.8351(5)
O6_2 O 0.8475(4) 0.3346(7) 0.9300(5)
O7_2 O 0.8070(3) 0.4139(6) 0.7266(4)
O8 O 0.7738(4) 0.4824(7) 0.6468(4)
C5_2 C 0.4114(6) 0.9131(10) 0.8884(6)
C6_2 C 0.4625(6) 0.8597(11) 0.8875(6)
C7_2 C 0.4924(5) 0.8444(11) 0.9403(6)
H17_2 H 0.481659 0.870070 0.976429
C8_2 C 0.5375(5) 0.7910(10) 0.9364(7)
H18_2 H 0.557398 0.779653 0.970942
C9_2 C 0.5553(6) 0.7519(11) 0.8819(6)
C10_2 C 0.5239(6) 0.7670(12) 0.8314(7)
H19_2 H 0.534643 0.742955 0.794804
C11_2 C 0.4772(6) 0.8170(11) 0.8353(6)
H20_2 H 0.454942 0.822132 0.801988
C12_2 C 0.6071(5) 0.6984(11) 0.8778(7)
C13_2 C 0.6210(5) 0.6418(10) 0.9254(7)
H21_2 H 0.597479 0.638869 0.957737
C14_2 C 0.6675(5) 0.5898(10) 0.9275(6)
H22_2 H 0.677439 0.556217 0.961132
C15_2 C 0.7000(5) 0.5913(11) 0.8735(6)
C16_2 C 0.6857(6) 0.6450(13) 0.8275(7)
H23_2 H 0.707467 0.648012 0.793653
C17_2 C 0.6382(5) 0.6962(11) 0.8304(7)
H24_2 H 0.628072 0.730552 0.797183
C18_2 C 0.7528(5) 0.5351(10) 0.8754(6)
C19_2 C 0.7715(5) 0.4276(10) 0.6869(6)
C20_2 C 0.7210(6) 0.3692(11) 0.6920(6)
C21_2 C 0.6816(5) 0.3715(11) 0.6438(6)
H25_2 H 0.687801 0.408717 0.610739
C22_2 C 0.6371(5) 0.3215(11) 0.6465(6)
H26_2 H 0.611406 0.326474 0.616283
C23_2 C 0.6276(6) 0.2586(12) 0.6962(6)
C24_2 C 0.6655(6) 0.2542(12) 0.7413(7)
H27_2 H 0.659252 0.215216 0.773511
C25_2 C 0.7131(6) 0.3066(10) 0.7401(6)
H28_2 H 0.738909 0.300631 0.770016
C26_2 C 0.5775(6) 0.2001(13) 0.6954(6)
C27_2 C 0.5524(7) 0.1829(13) 0.7500(7)
H29_2 H 0.566395 0.206737 0.785317
C28_2 C 0.5033(7) 0.1262(13) 0.7503(7)
H30_2 H 0.486381 0.112530 0.786316
C29_2 C 0.4817(5) 0.0925(11) 0.6971(6)
C30_2 C 0.5075(6) 0.1178(12) 0.6437(7)
H31_2 H 0.492483 0.098830 0.607720
C31_2 C 0.5561(6) 0.1716(12) 0.6423(6)
H32_2 H 0.572589 0.186757 0.606272
C32_2 C 0.4315(6) 0.0397(12) 0.6970(7)
C33_2 C 0.8595(5) 0.3259(11) 0.8747(7)
C34_2 C 0.8626(5) 0.2302(10) 0.8457(7)
C35_2 C 0.8670(7) 0.1551(11) 0.8859(8)
H33_2 H 0.866545 0.164009 0.927053
C36_2 C 0.8720(8) 0.0685(12) 0.8614(8)
H34_2 H 0.880704 0.019481 0.886337
C37_2 C 0.8643(6) 0.0516(10) 0.8005(7)
C38_2 C 0.8577(7) 0.1273(10) 0.7611(7)
H35_2 H 0.852998 0.118585 0.720310
C39_2 C 0.8585(7) 0.2174(10) 0.7867(7)
H36_2 H 0.856009 0.268366 0.761753
O22 O 0.8211(4) 0.6212(6) 0.7389(4)
O12_2 O 0.8559(4) 0.6683(6) 0.6549(4)
O13_2 O 0.8485(4) 0.5355(7) 0.5456(4)
O14_2 O 0.7686(4) 0.6004(8) 0.5288(4)
O15_2 O 0.9049(4) 0.4103(9) 0.0539(5)
C40_2 C 0.8616(6) 0.9552(9) 0.7759(7)
C41_2 C 0.8381(7) 0.8811(11) 0.8103(8)
H37_2 H 0.825813 0.893138 0.848758
C42_2 C 0.8336(6) 0.8001(10) 0.7895(7)
H38_2 H 0.820088 0.754050 0.814220
C43_2 C 0.8484(5) 0.7771(9) 0.7299(6)
C44_2 C 0.8738(7) 0.9375(10) 0.7189(7)
H39_2 H 0.883247 0.984492 0.692607
C45_2 C 0.8717(6) 0.8460(10) 0.7003(7)
H40_2 H 0.887981 0.831832 0.663949
C46_2 C 0.8430(5) 0.6809(10) 0.7086(7)
C47_2 C 0.8100(6) 0.5635(11) 0.5103(6)
C48_2 C 0.8160(5) 0.5415(9) 0.4439(6)
C49_2 C 0.8593(6) 0.4880(11) 0.4271(7)
H41_2 H 0.884362 0.466492 0.454767
C50_2 C 0.8638(6) 0.4665(12) 0.3637(7)
H42_2 H 0.890966 0.427158 0.350514
C51_2 C 0.8286(7) 0.5035(12) 0.3237(7)
C52_2 C 0.7850(6) 0.5538(10) 0.3443(6)
H43_2 H 0.758681 0.573405 0.317455
C53_2 C 0.7799(6) 0.5754(11) 0.4035(6)
H44_2 H 0.751783 0.613197 0.416224
C54_2 C 0.8370(6) 0.4755(15) 0.2616(8)
C55_2 C 0.8861(6) 0.4572(11) 0.2347(7)
H45_2 H 0.916741 0.454659 0.258757
C56_2 C 0.8925(6) 0.4427(11) 0.1744(7)
H46_2 H 0.927306 0.428635 0.161299
C57_2 C 0.8483(6) 0.4472(11) 0.1266(8)
C58_2 C 0.7985(7) 0.4588(15) 0.1588(7)
H47_2 H 0.766918 0.454447 0.136297
C59_2 C 0.7917(6) 0.4757(13) 0.2192(7)
H48_2 H 0.757017 0.487773 0.233427
C60_2 C 0.8624(6) 0.4435(11) 0.0703(7)
O1_2 O 0.0953(4) 0.4593(6) 0.4396(4)
O2_2 O 0.1235(4) 0.4079(6) 0.3499(4)
C5_3 C 0.0886(6) 0.4131(10) 0.3884(6)
C6_3 C 0.0375(6) 0.3597(11) 0.3875(6)
C7_3 C 0.0076(5) 0.3444(11) 0.4403(6)
H17_3 H 0.018341 0.370070 0.476429
C11_3 C 0.0228(6) 0.3170(11) 0.3353(6)
H20_3 H 0.045058 0.322132 0.301988
Zn5_2 Zn 0.16026(5) 0.53638(11) 0.45093(6)
Zn7 Zn 0.15630(5) 0.49497(10) 0.28634(8)
O9_2 O 0.0827(3) 0.5042(7) 0.2437(4)
O10_2 O 0.0919(4) 0.5310(7) 0.1466(4)
H30_3 H 0.013619 0.612530 0.286316
C29_3 C 0.0183(5) 0.5925(11) 0.1971(6)
H31_3 H 0.007517 0.598830 0.107720
C32_3 C 0.0685(6) 0.5397(12) 0.1970(7)
Zn10_2 Zn 0.15619(5) 0.45753(10) 0.12934(6)
Zn2 Zn 0.65630(5) 0.00503(10) 0.28634(8)
O3_3 O 0.7274(4) 0.0211(8) 0.4266(5)
O4_3 O 0.7315(4) 0.0086(7) 0.3249(5)
C8_3 C 0.9625(5) 0.2910(10) 0.4364(7)
H18_3 H 0.942602 0.279653 0.470942
C9_3 C 0.9447(6) 0.2519(11) 0.3819(6)
C10_3 C 0.9761(6) 0.2670(12) 0.3314(7)
H19_3 H 0.965357 0.242955 0.294804
C12_3 C 0.8929(5) 0.1984(11) 0.3778(7)
C13_3 C 0.8790(5) 0.1418(10) 0.4254(7)
H21_3 H 0.902521 0.138869 0.457737
C14_3 C 0.8325(5) 0.0898(10) 0.4275(6)
H22_3 H 0.822561 0.056217 0.461132
C15_3 C 0.8000(5) 0.0913(11) 0.3735(6)
C16_3 C 0.8143(6) 0.1450(13) 0.3275(7)
H23_3 H 0.792533 0.148012 0.293653
C17_3 C 0.8618(5) 0.1962(11) 0.3304(7)
H24_3 H 0.871928 0.230552 0.297183
C18_3 C 0.7472(5) 0.0351(10) 0.3754(6)
Zn9 Zn 0.65619(5) 0.04247(10) 0.12934(6)
O17_2 O 0.5953(4) 0.0407(6) 0.4396(4)
O18_2 O 0.6235(4) 0.0921(6) 0.3499(4)
O22_2 O 0.6789(4) 0.1212(6) 0.2389(4)
Zn1 Zn 0.66026(5) 0.96362(11) 0.45093(6)
O5_3 O 0.6303(4) 0.8914(7) 0.3351(5)
O6_3 O 0.6525(4) 0.8346(7) 0.4300(5)
O7_3 O 0.6930(3) 0.9139(6) 0.2266(4)
O8_2 O 0.7262(4) 0.9824(7) 0.1468(4)
O12_3 O 0.6441(4) 0.1683(6) 0.1549(4)
O13_3 O 0.6515(4) 0.0355(7) 0.0456(4)
O14_3 O 0.7314(4) 0.1004(8) 0.0288(4)
C19_3 C 0.7285(5) 0.9276(10) 0.1869(6)
C20_3 C 0.7790(6) 0.8692(11) 0.1920(6)
C21_3 C 0.8184(5) 0.8715(11) 0.1438(6)
H25_3 H 0.812199 0.908717 0.110739
C22_3 C 0.8629(5) 0.8215(11) 0.1465(6)
H26_3 H 0.888594 0.826474 0.116283
C23_3 C 0.8724(6) 0.7586(12) 0.1962(6)
C24_3 C 0.8345(6) 0.7542(12) 0.2413(7)
H27_3 H 0.840748 0.715216 0.273511
C25_3 C 0.7869(6) 0.8066(10) 0.2401(6)
H28_3 H 0.761091 0.800631 0.270016
C26_3 C 0.9225(6) 0.7001(13) 0.1954(6)
C27_3 C 0.9476(7) 0.6829(13) 0.2500(7)
H29_3 H 0.933605 0.706737 0.285317
C28_3 C 0.9967(7) 0.6262(13) 0.2503(7)
C30_3 C 0.9925(6) 0.6178(12) 0.1437(7)
C31_3 C 0.9439(6) 0.6716(12) 0.1423(6)
H32_3 H 0.927411 0.686757 0.106272
C33_3 C 0.6405(5) 0.8259(11) 0.3747(7)
C34_3 C 0.6374(5) 0.7302(10) 0.3457(7)
C35_3 C 0.6330(7) 0.6551(11) 0.3859(8)
H33_3 H 0.633455 0.664009 0.427053
C36_3 C 0.6280(8) 0.5685(12) 0.3614(8)
H34_3 H 0.619296 0.519481 0.386337
C37_3 C 0.6357(6) 0.5516(10) 0.3005(7)
C38_3 C 0.6423(7) 0.6273(10) 0.2611(7)
H35_3 H 0.647002 0.618585 0.220310
C39_3 C 0.6415(7) 0.7174(10) 0.2867(7)
H36_3 H 0.643991 0.768366 0.261753
C40_3 C 0.6384(6) 0.4552(9) 0.2759(7)
C41_3 C 0.6619(7) 0.3811(11) 0.3103(8)
H37_3 H 0.674187 0.393138 0.348758
C42_3 C 0.6664(6) 0.3001(10) 0.2895(7)
H38_3 H 0.679912 0.254050 0.314220
C43_3 C 0.6516(5) 0.2771(9) 0.2299(6)
C44_3 C 0.6262(7) 0.4375(10) 0.2189(7)
H39_3 H 0.616753 0.484492 0.192607
C45_3 C 0.6283(6) 0.3460(10) 0.2003(7)
H40_3 H 0.612019 0.331832 0.163949
C46_3 C 0.6570(5) 0.1809(10) 0.2086(7)
C47_3 C 0.6900(6) 0.0635(11) 0.0103(6)
O20_2 O 0.5827(3) 0.9958(7) 0.2437(4)
O23_2 O 0.6790(4) 0.9587(7) 0.5377(5)
O21_2 O 0.5919(4) 0.9690(7) 0.1466(4)
O15_3 O 0.5951(4) 0.9103(9) 0.5539(5)
C49_3 C 0.6407(6) 0.9880(11) 0.9271(7)
H41_3 H 0.615638 0.966492 0.954767
C50_3 C 0.6362(6) 0.9665(12) 0.8637(7)
H42_3 H 0.609034 0.927158 0.850514
C54_3 C 0.6630(6) 0.9755(15) 0.7616(8)
C55_3 C 0.6139(6) 0.9572(11) 0.7347(7)
H45_3 H 0.583259 0.954659 0.758757
C56_3 C 0.6075(6) 0.9427(11) 0.6744(7)
H46_3 H 0.572694 0.928635 0.661299
C57_3 C 0.6517(6) 0.9472(11) 0.6266(8)
C58_3 C 0.7015(7) 0.9588(15) 0.6588(7)
H47_3 H 0.733082 0.954447 0.636297
C59_3 C 0.7083(6) 0.9757(13) 0.7192(7)
H48_3 H 0.742983 0.987773 0.733427
C60_3 C 0.6376(6) 0.9435(11) 0.5703(7)
O11_2 O 0.1789(4) 0.3788(6) 0.2389(4)
O12_4 O 0.1441(4) 0.3317(6) 0.1549(4)
O13_4 O 0.1515(4) 0.4645(7) 0.0456(4)
O14_4 O 0.2314(4) 0.3996(8) 0.0288(4)
C40_4 C 0.1384(6) 0.0448(9) 0.2759(7)
C41_4 C 0.1619(7) 0.1189(11) 0.3103(8)
H37_4 H 0.174187 0.106862 0.348758
C42_4 C 0.1664(6) 0.1999(10) 0.2895(7)
H38_4 H 0.179912 0.245950 0.314220
C43_4 C 0.1516(5) 0.2229(9) 0.2299(6)
C44_4 C 0.1262(7) 0.0625(10) 0.2189(7)
H39_4 H 0.116753 0.015508 0.192607
C45_4 C 0.1283(6) 0.1540(10) 0.2003(7)
H40_4 H 0.112019 0.168168 0.163949
C46_4 C 0.1570(5) 0.3191(10) 0.2086(7)
C47_4 C 0.1900(6) 0.4365(11) 0.0103(6)
O19_2 O 0.2262(4) 0.5176(7) 0.1468(4)
O15_4 O 0.0951(4) 0.5897(9) 0.5539(5)
O16_2 O 0.1790(4) 0.5413(7) 0.5377(5)
C48_3 C 0.1840(5) 0.4585(9) 0.9439(6)
C49_4 C 0.1407(6) 0.5120(11) 0.9271(7)
H41_4 H 0.115638 0.533508 0.954767
C50_4 C 0.1362(6) 0.5335(12) 0.8637(7)
H42_4 H 0.109034 0.572842 0.850514
C51_3 C 0.1714(7) 0.4965(12) 0.8237(7)
C52_3 C 0.2150(6) 0.4462(10) 0.8443(6)
H43_3 H 0.241319 0.426595 0.817455
C53_3 C 0.2201(6) 0.4246(11) 0.9035(6)
H44_3 H 0.248217 0.386803 0.916224
C54_4 C 0.1630(6) 0.5245(15) 0.7616(8)
C55_4 C 0.1139(6) 0.5428(11) 0.7347(7)
H45_4 H 0.083259 0.545341 0.758757
C56_4 C 0.1075(6) 0.5573(11) 0.6744(7)
H46_4 H 0.072694 0.571365 0.661299
C57_4 C 0.1517(6) 0.5528(11) 0.6266(8)
C58_4 C 0.2015(7) 0.5412(15) 0.6588(7)
H47_4 H 0.233082 0.545553 0.636297
C59_4 C 0.2083(6) 0.5243(13) 0.7192(7)
H48_4 H 0.242983 0.512227 0.733427
C60_4 C 0.1376(6) 0.5565(11) 0.5703(7)
O3_4 O 0.2274(4) 0.4789(8) 0.4266(5)
O4_4 O 0.2315(4) 0.4914(7) 0.3249(5)
O5_4 O 0.1303(4) 0.6086(7) 0.3351(5)
O6_4 O 0.1525(4) 0.6654(7) 0.4300(5)
O7_4 O 0.1930(3) 0.5861(6) 0.2266(4)
C5_4 C 0.5886(6) 0.0869(10) 0.3884(6)
C6_4 C 0.5375(6) 0.1403(11) 0.3875(6)
C7_4 C 0.5076(5) 0.1556(11) 0.4403(6)
H17_4 H 0.518341 0.129930 0.476429
C8_4 C 0.4625(5) 0.2090(10) 0.4364(7)
H18_4 H 0.442602 0.220347 0.470942
C9_4 C 0.4447(6) 0.2481(11) 0.3819(6)
C10_4 C 0.4761(6) 0.2330(12) 0.3314(7)
H19_4 H 0.465357 0.257045 0.294804
C11_4 C 0.5228(6) 0.1830(11) 0.3353(6)
H20_4 H 0.545058 0.177868 0.301988
C12_4 C 0.3929(5) 0.3016(11) 0.3778(7)
C13_4 C 0.3790(5) 0.3582(10) 0.4254(7)
H21_4 H 0.402521 0.361131 0.457737
C14_4 C 0.3325(5) 0.4102(10) 0.4275(6)
H22_4 H 0.322561 0.443783 0.461132
C15_4 C 0.3000(5) 0.4087(11) 0.3735(6)
C16_4 C 0.3143(6) 0.3550(13) 0.3275(7)
H23_4 H 0.292533 0.351988 0.293653
C17_4 C 0.3618(5) 0.3038(11) 0.3304(7)
H24_4 H 0.371928 0.269448 0.297183
C18_4 C 0.2472(5) 0.4649(10) 0.3754(6)
C19_4 C 0.2285(5) 0.5724(10) 0.1869(6)
C20_4 C 0.2790(6) 0.6308(11) 0.1920(6)
C21_4 C 0.3184(5) 0.6285(11) 0.1438(6)
H25_4 H 0.312199 0.591283 0.110739
C22_4 C 0.3629(5) 0.6785(11) 0.1465(6)
H26_4 H 0.388594 0.673526 0.116283
C23_4 C 0.3724(6) 0.7414(12) 0.1962(6)
C24_4 C 0.3345(6) 0.7458(12) 0.2413(7)
H27_4 H 0.340748 0.784784 0.273511
C25_4 C 0.2869(6) 0.6934(10) 0.2401(6)
H28_4 H 0.261091 0.699369 0.270016
C26_4 C 0.4225(6) 0.7999(13) 0.1954(6)
C27_4 C 0.4476(7) 0.8171(13) 0.2500(7)
H29_4 H 0.433605 0.793263 0.285317
C28_4 C 0.4967(7) 0.8738(13) 0.2503(7)
H30_4 H 0.513619 0.887470 0.286316
C29_4 C 0.5183(5) 0.9075(11) 0.1971(6)
C30_4 C 0.4925(6) 0.8822(12) 0.1437(7)
H31_4 H 0.507517 0.901170 0.107720
C31_4 C 0.4439(6) 0.8284(12) 0.1423(6)
H32_4 H 0.427411 0.813243 0.106272
C32_4 C 0.5685(6) 0.9603(12) 0.1970(7)
C33_4 C 0.1405(5) 0.6741(11) 0.3747(7)
C34_4 C 0.1374(5) 0.7698(10) 0.3457(7)
C35_4 C 0.1330(7) 0.8449(11) 0.3859(8)
H33_4 H 0.133455 0.835991 0.427053
C36_4 C 0.1280(8) 0.9315(12) 0.3614(8)
H34_4 H 0.119296 0.980519 0.386337
C37_4 C 0.1357(6) 0.9484(10) 0.3005(7)
C38_4 C 0.1423(7) 0.8727(10) 0.2611(7)
H35_4 H 0.147002 0.881415 0.220310
C39_4 C 0.1415(7) 0.7826(10) 0.2867(7)
H36_4 H 0.143991 0.731634 0.261753
C48_4 C 0.6840(5) 0.0415(9) 0.9439(6)
C51_4 C 0.6714(7) 0.0035(12) 0.8237(7)
C52_4 C 0.7150(6) 0.0538(10) 0.8443(6)
H43_4 H 0.741319 0.073405 0.817455
C53_4 C 0.7201(6) 0.0754(11) 0.9035(6)
H44_4 H 0.748217 0.113197 0.916224
loop_
_geom_bond_atom_site_label_1
_geom_bond_atom_site_label_2
_geom_bond_site_symmetry_1
_geom_bond_site_symmetry_2
N1 H1 1_555 1_555
H2 N1 1_555 1_555
C1 N1 1_555 1_555
H3 C1 1_555 1_555
H4 C1 1_555 1_555
H5 C1 1_555 1_555
C2 N1 1_555 1_555
H6 C2 1_555 1_555
H7 C2 1_555 1_555
H8 C2 1_555 1_555
N1_2 H1_2 1_555 1_555
H2_2 N1_2 1_555 1_555
C1_2 N1_2 1_555 1_555
H3_2 C1_2 1_555 1_555
H4_2 C1_2 1_555 1_555
H5_2 C1_2 1_555 1_555
C2_2 N1_2 1_555 1_555
H6_2 C2_2 1_555 1_555
H7_2 C2_2 1_555 1_555
H8_2 C2_2 1_555 1_555
N1_3 H1_3 1_555 1_555
H2_3 N1_3 1_555 1_555
C1_3 N1_3 1_555 1_555
H3_3 C1_3 1_555 1_555
H4_3 C1_3 1_555 1_555
H5_3 C1_3 1_555 1_555
C2_3 N1_3 1_555 1_555
H6_3 C2_3 1_555 1_555
H7_3 C2_3 1_555 1_555
H8_3 C2_3 1_555 1_555
N1_4 H1_4 1_555 1_555
H2_4 N1_4 1_555 1_555
C1_4 N1_4 1_555 1_555
H3_4 C1_4 1_555 1_555
H4_4 C1_4 1_555 1_555
H5_4 C1_4 1_555 1_555
C2_4 N1_4 1_555 1_555
H6_4 C2_4 1_555 1_555
H7_4 C2_4 1_555 1_555
H8_4 C2_4 1_555 1_555
H12 C3 1_555 1_555
H13 C3 1_555 1_555
N2 H9 1_555 1_555
H10 N2 1_555 1_555
C4 N2 1_555 1_555
H14 C4 1_555 1_555
H15 C4 1_555 1_555
H16 C4 1_555 1_555
N2_2 H9_2 1_555 1_555
H10_2 N2_2 1_555 1_555
C3_2 N2_2 1_555 1_555
H11_2 C3_2 1_555 1_555
H12_2 C3_2 1_555 1_555
H13_2 C3_2 1_555 1_555
C4_2 N2_2 1_555 1_555
H14_2 C4_2 1_555 1_555
H15_2 C4_2 1_555 1_555
H16_2 C4_2 1_555 1_555
H12_3 C3_3 1_555 1_555
H13_3 C3_3 1_555 1_555
N2_3 H9_3 1_555 1_555
H10_3 N2_3 1_555 1_555
C4_3 N2_3 1_555 1_555
H14_3 C4_3 1_555 1_555
H15_3 C4_3 1_555 1_555
N2_4 H9_4 1_555 1_555
H10_4 N2_4 1_555 1_555
C4_4 N2_4 1_555 1_555
H14_4 C4_4 1_555 1_555
H15_4 C4_4 1_555 1_555
H11_4 C3_4 1_555 1_555
H12_4 C3_4 1_555 1_555
H13_4 C3_4 1_555 1_555
O15 C60 1_555 1_555
O16 C60 1_555 1_555
H41 C49 1_555 1_555
C50 C49 1_555 1_555
H42 C50 1_555 1_555
C55 C54 1_555 1_555
H45 C55 1_555 1_555
C56 C55 1_555 1_555
H46 C56 1_555 1_555
C57 C56 1_555 1_555
C58 C57 1_555 1_555
H47 C58 1_555 1_555
C59 C54 1_555 1_555
H48 C59 1_555 1_555
C60 C57 1_555 1_555
C58 C59 1_555 1_555
Zn3 O12 1_555 1_555
O6 Zn4 1_555 1_555
O19 C19 1_555 1_555
O11 C46 1_555 1_555
O12 C46 1_555 1_555
O13 Zn3 1_555 1_555
O14 C47 1_555 1_555
C19 O7 1_555 1_555
C20 C19 1_555 1_555
C21 C20 1_555 1_555
H25 C21 1_555 1_555
C22 C21 1_555 1_555
H26 C22 1_555 1_555
C23 C22 1_555 1_555
C24 C23 1_555 1_555
H27 C24 1_555 1_555
C25 C20 1_555 1_555
H28 C25 1_555 1_555
C26 C23 1_555 1_555
C27 C26 1_555 1_555
H29 C27 1_555 1_555
C28 C27 1_555 1_555
C31 C26 1_555 1_555
H32 C31 1_555 1_555
C33 O5 1_555 1_555
C34 C33 1_555 1_555
C35 C34 1_555 1_555
H33 C35 1_555 1_555
C36 C35 1_555 1_555
H34 C36 1_555 1_555
C37 C36 1_555 1_555
C38 C37 1_555 1_555
H35 C38 1_555 1_555
C39 C34 1_555 1_555
H36 C39 1_555 1_555
C40 C37 1_555 1_555
C41 C40 1_555 1_555
H37 C41 1_555 1_555
C42 C41 1_555 1_555
H38 C42 1_555 1_555
C43 C42 1_555 1_555
C44 C40 1_555 1_555
H39 C44 1_555 1_555
C45 C43 1_555 1_555
H40 C45 1_555 1_555
C46 C43 1_555 1_555
C47 O13 1_555 1_555
C48 C47 1_555 1_555
C52 C51 1_555 1_555
H43 C52 1_555 1_555
C53 C48 1_555 1_555
H44 C53 1_555 1_555
Zn6 O11 1_555 1_555
O6 C33 1_555 1_555
C24 C25 1_555 1_555
C30 C31 1_555 1_555
C38 C39 1_555 1_555
C44 C45 1_555 1_555
C52 C53 1_555 1_555
Zn6 O4 1_555 1_555
O3 C18 1_555 1_555
O4 C18 1_555 1_555
H18 C8 1_555 1_555
C9 C8 1_555 1_555
C10 C9 1_555 1_555
H19 C10 1_555 1_555
C12 C9 1_555 1_555
C13 C12 1_555 1_555
H21 C13 1_555 1_555
C14 C13 1_555 1_555
H22 C14 1_555 1_555
C15 C14 1_555 1_555
C16 C15 1_555 1_555
H23 C16 1_555 1_555
C17 C12 1_555 1_555
H24 C17 1_555 1_555
C18 C15 1_555 1_555
O18 Zn6 1_555 1_555
C16 C17 1_555 1_555
O9 C32 1_555 1_555
O10 C32 1_555 1_555
C32 C29 1_555 1_555
Zn8 O9 1_555 1_555
Zn10 O10 1_555 1_555
O1 C5 1_555 1_555
O2 C5 1_555 1_555
C5 C6 1_555 1_555
C6 C7 1_555 1_555
C7 H17 1_555 1_555
C11 C6 1_555 1_555
H20 C11 1_555 1_555
Zn5 O1 1_555 1_555
Zn8 O2 1_555 1_555
Zn5 O3_2 1_555 1_555
Zn8 O4_2 1_555 1_555
O17 C5_2 1_555 1_555
O18 C5_2 1_555 1_555
O3_2 C18_2 1_555 1_555
O4_2 C18_2 1_555 1_555
O5_2 Zn8 1_555 1_555
O6_2 Zn5 1_555 1_555
O7_2 Zn8 1_555 1_555
O8 C19_2 1_555 1_555
O20 C32_2 1_555 1_555
O21 C32_2 1_555 1_555
C5_2 C6_2 1_555 1_555
C6_2 C7_2 1_555 1_555
C7_2 H17_2 1_555 1_555
C8_2 C7_2 1_555 1_555
H18_2 C8_2 1_555 1_555
C9_2 C8_2 1_555 1_555
C10_2 C9_2 1_555 1_555
H19_2 C10_2 1_555 1_555
C11_2 C6_2 1_555 1_555
H20_2 C11_2 1_555 1_555
C12_2 C9_2 1_555 1_555
C13_2 C12_2 1_555 1_555
H21_2 C13_2 1_555 1_555
C14_2 C13_2 1_555 1_555
H22_2 C14_2 1_555 1_555
C15_2 C14_2 1_555 1_555
C16_2 C15_2 1_555 1_555
H23_2 C16_2 1_555 1_555
C17_2 C12_2 1_555 1_555
H24_2 C17_2 1_555 1_555
C18_2 C15_2 1_555 1_555
C19_2 O7_2 1_555 1_555
C20_2 C19_2 1_555 1_555
C21_2 C20_2 1_555 1_555
H25_2 C21_2 1_555 1_555
C22_2 C21_2 1_555 1_555
H26_2 C22_2 1_555 1_555
C23_2 C22_2 1_555 1_555
C24_2 C23_2 1_555 1_555
H27_2 C24_2 1_555 1_555
C25_2 C20_2 1_555 1_555
H28_2 C25_2 1_555 1_555
C26_2 C23_2 1_555 1_555
C27_2 C26_2 1_555 1_555
H29_2 C27_2 1_555 1_555
C28_2 C27_2 1_555 1_555
H30_2 C28_2 1_555 1_555
C29_2 C28_2 1_555 1_555
C30_2 C29_2 1_555 1_555
H31_2 C30_2 1_555 1_555
C31_2 C26_2 1_555 1_555
H32_2 C31_2 1_555 1_555
C32_2 C29_2 1_555 1_555
C33_2 O5_2 1_555 1_555
C34_2 C33_2 1_555 1_555
C35_2 C34_2 1_555 1_555
H33_2 C35_2 1_555 1_555
C36_2 C35_2 1_555 1_555
H34_2 C36_2 1_555 1_555
C37_2 C36_2 1_555 1_555
C38_2 C37_2 1_555 1_555
H35_2 C38_2 1_555 1_555
C39_2 C34_2 1_555 1_555
H36_2 C39_2 1_555 1_555
Zn10 O8 1_555 1_555
O22 Zn8 1_555 1_555
O6_2 C33_2 1_555 1_555
C10_2 C11_2 1_555 1_555
C16_2 C17_2 1_555 1_555
C24_2 C25_2 1_555 1_555
C30_2 C31_2 1_555 1_555
C38_2 C39_2 1_555 1_555
Zn10 O12_2 1_555 1_555
O22 C46_2 1_555 1_555
O12_2 C46_2 1_555 1_555
O13_2 Zn10 1_555 1_555
O14_2 C47_2 1_555 1_555
O15_2 C60_2 1_555 1_555
O23 C60_2 1_555 1_555
C41_2 C40_2 1_555 1_555
H37_2 C41_2 1_555 1_555
C42_2 C41_2 1_555 1_555
H38_2 C42_2 1_555 1_555
C43_2 C42_2 1_555 1_555
C44_2 C40_2 1_555 1_555
H39_2 C44_2 1_555 1_555
C45_2 C43_2 1_555 1_555
H40_2 C45_2 1_555 1_555
C46_2 C43_2 1_555 1_555
C47_2 O13_2 1_555 1_555
C48_2 C47_2 1_555 1_555
C49_2 C48_2 1_555 1_555
H41_2 C49_2 1_555 1_555
C50_2 C49_2 1_555 1_555
H42_2 C50_2 1_555 1_555
C51_2 C50_2 1_555 1_555
C52_2 C51_2 1_555 1_555
H43_2 C52_2 1_555 1_555
C53_2 C48_2 1_555 1_555
H44_2 C53_2 1_555 1_555
C54_2 C51_2 1_555 1_555
C55_2 C54_2 1_555 1_555
H45_2 C55_2 1_555 1_555
C56_2 C55_2 1_555 1_555
H46_2 C56_2 1_555 1_555
C57_2 C56_2 1_555 1_555
C58_2 C57_2 1_555 1_555
H47_2 C58_2 1_555 1_555
C59_2 C54_2 1_555 1_555
H48_2 C59_2 1_555 1_555
C60_2 C57_2 1_555 1_555
C44_2 C45_2 1_555 1_555
C52_2 C53_2 1_555 1_555
C58_2 C59_2 1_555 1_555
O1_2 C5_3 1_555 1_555
O2_2 C5_3 1_555 1_555
C5_3 C6_3 1_555 1_555
C6_3 C7_3 1_555 1_555
C7_3 H17_3 1_555 1_555
C11_3 C6_3 1_555 1_555
H20_3 C11_3 1_555 1_555
Zn5_2 O1_2 1_555 1_555
Zn7 O2_2 1_555 1_555
O9_2 C32_3 1_555 1_555
O10_2 C32_3 1_555 1_555
C32_3 C29_3 1_555 1_555
Zn7 O9_2 1_555 1_555
Zn10_2 O10_2 1_555 1_555
Zn2 O4_3 1_555 1_555
O3_3 C18_3 1_555 1_555
O4_3 C18_3 1_555 1_555
H18_3 C8_3 1_555 1_555
C9_3 C8_3 1_555 1_555
C10_3 C9_3 1_555 1_555
H19_3 C10_3 1_555 1_555
C12_3 C9_3 1_555 1_555
C13_3 C12_3 1_555 1_555
H21_3 C13_3 1_555 1_555
C14_3 C13_3 1_555 1_555
H22_3 C14_3 1_555 1_555
C15_3 C14_3 1_555 1_555
C16_3 C15_3 1_555 1_555
H23_3 C16_3 1_555 1_555
C17_3 C12_3 1_555 1_555
H24_3 C17_3 1_555 1_555
C18_3 C15_3 1_555 1_555
O18_2 Zn2 1_555 1_555
O22_2 Zn2 1_555 1_555
C16_3 C17_3 1_555 1_555
Zn9 O12_3 1_555 1_555
O6_3 Zn1 1_555 1_555
O8_2 C19_3 1_555 1_555
O22_2 C46_3 1_555 1_555
O12_3 C46_3 1_555 1_555
O13_3 Zn9 1_555 1_555
O14_3 C47_3 1_555 1_555
C19_3 O7_3 1_555 1_555
C20_3 C19_3 1_555 1_555
C21_3 C20_3 1_555 1_555
H25_3 C21_3 1_555 1_555
C22_3 C21_3 1_555 1_555
H26_3 C22_3 1_555 1_555
C23_3 C22_3 1_555 1_555
C24_3 C23_3 1_555 1_555
H27_3 C24_3 1_555 1_555
C25_3 C20_3 1_555 1_555
H28_3 C25_3 1_555 1_555
C26_3 C23_3 1_555 1_555
C27_3 C26_3 1_555 1_555
H29_3 C27_3 1_555 1_555
C28_3 C27_3 1_555 1_555
C31_3 C26_3 1_555 1_555
H32_3 C31_3 1_555 1_555
C33_3 O5_3 1_555 1_555
C34_3 C33_3 1_555 1_555
C35_3 C34_3 1_555 1_555
H33_3 C35_3 1_555 1_555
C36_3 C35_3 1_555 1_555
H34_3 C36_3 1_555 1_555
C37_3 C36_3 1_555 1_555
C38_3 C37_3 1_555 1_555
H35_3 C38_3 1_555 1_555
C39_3 C34_3 1_555 1_555
H36_3 C39_3 1_555 1_555
C40_3 C37_3 1_555 1_555
C41_3 C40_3 1_555 1_555
H37_3 C41_3 1_555 1_555
C42_3 C41_3 1_555 1_555
H38_3 C42_3 1_555 1_555
C43_3 C42_3 1_555 1_555
C44_3 C40_3 1_555 1_555
H39_3 C44_3 1_555 1_555
C45_3 C43_3 1_555 1_555
H40_3 C45_3 1_555 1_555
C46_3 C43_3 1_555 1_555
C47_3 O13_3 1_555 1_555
O23_2 Zn1 1_555 1_555
O6_3 C33_3 1_555 1_555
C24_3 C25_3 1_555 1_555
C30_3 C31_3 1_555 1_555
C38_3 C39_3 1_555 1_555
C44_3 C45_3 1_555 1_555
O15_3 C60_3 1_555 1_555
O23_2 C60_3 1_555 1_555
H41_3 C49_3 1_555 1_555
C50_3 C49_3 1_555 1_555
H42_3 C50_3 1_555 1_555
C55_3 C54_3 1_555 1_555
H45_3 C55_3 1_555 1_555
C56_3 C55_3 1_555 1_555
H46_3 C56_3 1_555 1_555
C57_3 C56_3 1_555 1_555
C58_3 C57_3 1_555 1_555
H47_3 C58_3 1_555 1_555
C59_3 C54_3 1_555 1_555
H48_3 C59_3 1_555 1_555
C60_3 C57_3 1_555 1_555
C58_3 C59_3 1_555 1_555
Zn10_2 O12_4 1_555 1_555
O11_2 C46_4 1_555 1_555
O12_4 C46_4 1_555 1_555
O13_4 Zn10_2 1_555 1_555
O14_4 C47_4 1_555 1_555
C41_4 C40_4 1_555 1_555
H37_4 C41_4 1_555 1_555
C42_4 C41_4 1_555 1_555
H38_4 C42_4 1_555 1_555
C43_4 C42_4 1_555 1_555
C44_4 C40_4 1_555 1_555
H39_4 C44_4 1_555 1_555
C45_4 C43_4 1_555 1_555
H40_4 C45_4 1_555 1_555
C46_4 C43_4 1_555 1_555
C47_4 O13_4 1_555 1_555
Zn7 O11_2 1_555 1_555
O19_2 Zn10_2 1_555 1_555
C44_4 C45_4 1_555 1_555
O15_4 C60_4 1_555 1_555
O16_2 C60_4 1_555 1_555
C49_4 C48_3 1_555 1_555
H41_4 C49_4 1_555 1_555
C50_4 C49_4 1_555 1_555
H42_4 C50_4 1_555 1_555
C51_3 C50_4 1_555 1_555
C52_3 C51_3 1_555 1_555
H43_3 C52_3 1_555 1_555
C53_3 C48_3 1_555 1_555
H44_3 C53_3 1_555 1_555
C54_4 C51_3 1_555 1_555
C55_4 C54_4 1_555 1_555
H45_4 C55_4 1_555 1_555
C56_4 C55_4 1_555 1_555
H46_4 C56_4 1_555 1_555
C57_4 C56_4 1_555 1_555
C58_4 C57_4 1_555 1_555
H47_4 C58_4 1_555 1_555
C59_4 C54_4 1_555 1_555
H48_4 C59_4 1_555 1_555
C60_4 C57_4 1_555 1_555
Zn5_2 O16_2 1_555 1_555
C52_3 C53_3 1_555 1_555
C58_4 C59_4 1_555 1_555
Zn5_2 O3_4 1_555 1_555
Zn7 O4_4 1_555 1_555
O17_2 C5_4 1_555 1_555
O18_2 C5_4 1_555 1_555
O3_4 C18_4 1_555 1_555
O4_4 C18_4 1_555 1_555
O5_4 Zn7 1_555 1_555
O6_4 Zn5_2 1_555 1_555
O7_4 Zn7 1_555 1_555
O19_2 C19_4 1_555 1_555
O20_2 C32_4 1_555 1_555
O21_2 C32_4 1_555 1_555
C5_4 C6_4 1_555 1_555
C6_4 C7_4 1_555 1_555
C7_4 H17_4 1_555 1_555
C8_4 C7_4 1_555 1_555
H18_4 C8_4 1_555 1_555
C9_4 C8_4 1_555 1_555
C10_4 C9_4 1_555 1_555
H19_4 C10_4 1_555 1_555
C11_4 C6_4 1_555 1_555
H20_4 C11_4 1_555 1_555
C12_4 C9_4 1_555 1_555
C13_4 C12_4 1_555 1_555
H21_4 C13_4 1_555 1_555
C14_4 C13_4 1_555 1_555
H22_4 C14_4 1_555 1_555
C15_4 C14_4 1_555 1_555
C16_4 C15_4 1_555 1_555
H23_4 C16_4 1_555 1_555
C17_4 C12_4 1_555 1_555
H24_4 C17_4 1_555 1_555
C18_4 C15_4 1_555 1_555
C19_4 O7_4 1_555 1_555
C20_4 C19_4 1_555 1_555
C21_4 C20_4 1_555 1_555
H25_4 C21_4 1_555 1_555
C22_4 C21_4 1_555 1_555
H26_4 C22_4 1_555 1_555
C23_4 C22_4 1_555 1_555
C24_4 C23_4 1_555 1_555
H27_4 C24_4 1_555 1_555
C25_4 C20_4 1_555 1_555
H28_4 C25_4 1_555 1_555
C26_4 C23_4 1_555 1_555
C27_4 C26_4 1_555 1_555
H29_4 C27_4 1_555 1_555
C28_4 C27_4 1_555 1_555
H30_4 C28_4 1_555 1_555
C29_4 C28_4 1_555 1_555
C30_4 C29_4 1_555 1_555
H31_4 C30_4 1_555 1_555
C31_4 C26_4 1_555 1_555
H32_4 C31_4 1_555 1_555
C32_4 C29_4 1_555 1_555
C33_4 O5_4 1_555 1_555
C34_4 C33_4 1_555 1_555
C35_4 C34_4 1_555 1_555
H33_4 C35_4 1_555 1_555
C36_4 C35_4 1_555 1_555
H34_4 C36_4 1_555 1_555
C37_4 C36_4 1_555 1_555
C38_4 C37_4 1_555 1_555
H35_4 C38_4 1_555 1_555
C39_4 C34_4 1_555 1_555
H36_4 C39_4 1_555 1_555
O6_4 C33_4 1_555 1_555
C10_4 C11_4 1_555 1_555
C16_4 C17_4 1_555 1_555
C24_4 C25_4 1_555 1_555
C30_4 C31_4 1_555 1_555
C38_4 C39_4 1_555 1_555
C52_4 C51_4 1_555 1_555
H43_4 C52_4 1_555 1_555
C53_4 C48_4 1_555 1_555
H44_4 C53_4 1_555 1_555
C52_4 C53_4 1_555 1_555

#END
