
###############################################################################
#
# This file contains modified crystal structure data generated from the
# MOF subset of the Cambridge Structural Database (CSD) v543 
# hosted by the Cambridge Crystallographic Data Centre (CCDC).
#
# This work is licensed under the Creative Commons
# Attribution-NonCommercial-ShareAlike 4.0 International License.
# To view a copy of this license, visit
# http://creativecommons.org/licenses/by-nc-sa/4.0/
# or send a letter to
# Creative Commons, PO Box 1866, Mountain View, CA 94042, USA.
#
# CIF created using the CSD Python API on 29 September 2022
# The structure has been converted into the P1 space group
# The structure has a 3D framework
# The original CSD entry GAJVEU is in the monoclinic crystal system
# The framework has been calculated to contain at least 10.0% void space
# The void calculation uses a probe of radius 1.32A, grid spacing 0.4
# The framework is charged, counterions have been retained in the structure
# H atom positions have been added when not included in the experimental data
#
###############################################################################

data_GAJVEU
_chemical_formula_moiety         '(C144 H128 N8 O59 Zn12)n'
_symmetry_cell_setting           triclinic
_symmetry_space_group_name_H-M   'P 1'
_symmetry_Int_Tables_number      1
_space_group_name_Hall           'P 1'
loop_
_symmetry_equiv_pos_site_id
_symmetry_equiv_pos_as_xyz
1 x,y,z
_cell_length_a                   33.1453(16)
_cell_length_b                   9.5959(4)
_cell_length_c                   18.4950(8)
_cell_angle_alpha                90
_cell_angle_beta                 90.467(1)
_cell_angle_gamma                90
_cell_volume                     5882.31
loop_
_atom_site_label
_atom_site_type_symbol
_atom_site_fract_x
_atom_site_fract_y
_atom_site_fract_z
C15 C 0.4764(2) 0.0753(9) 0.0461(5)
C22 C 0.5171(2) 0.1115(9) 0.0374(5)
O16 O 0.59811(11) 0.1607(5) 0.0230(2)
Zn8 Zn 0.653346(11) 0.21055(4) 0.00432(2)
O20 O 0.66089(9) 0.3377(4) 0.08558(15)
Zn9 Zn 0.7500 0.2500 0.0000
C25 C 0.69440(12) 0.3576(4) 0.11807(19)
O21 O 0.72866(9) 0.3192(3) 0.09677(14)
C26 C 0.69242(11) 0.4290(4) 0.1900(2)
C27 C 0.72699(12) 0.4393(5) 0.2335(2)
C28 C 0.65608(12) 0.4811(6) 0.2138(2)
C29 C 0.72519(12) 0.5020(5) 0.3010(2)
C30 C 0.65445(12) 0.5453(6) 0.2817(2)
C31 C 0.68878(11) 0.5564(4) 0.3246(2)
C32 C 0.68661(11) 0.6254(4) 0.39731(19)
O22 O 0.71594(9) 0.6144(3) 0.43925(15)
O23 O 0.65430(9) 0.6876(4) 0.41167(16)
Zn10 Zn 0.7500 0.7500 0.5000
Zn11 Zn 0.653346(11) 0.78945(4) 0.50432(2)
H5 H 0.458045 0.133833 0.0840767
H8 H 0.529866 0.200749 0.0658592
H13 H 0.755538 0.397809 0.214263
H14 H 0.629043 0.472419 0.180253
H15 H 0.752058 0.508478 0.335118
H16 H 0.625929 0.586917 0.30099
C23 C 0.54070(16) 0.0317(7) 0.9920(4)
C24 C 0.58490(16) 0.0672(7) 0.9834(4)
O17 O 0.6037(6) 0.0258(18) 0.9279(8)
O18 O 0.70149(8) 0.0931(3) 0.99388(15)
O19 O 0.65430(9) 0.3124(4) 0.91167(16)
Zn9_2 Zn 0.7500 0.2500 1.0000
Zn1 Zn 0.846654(11) 0.71055(4) 0.49568(2)
O1 O 0.79851(8) 0.5931(3) 0.50612(15)
C1 C 0.79923(13) 0.4866(4) 0.4615(2)
O2 O 0.77134(9) 0.8192(3) 0.40323(14)
O4 O 0.82012(13) 0.4847(4) 0.4078(2)
C2 C 0.77312(12) 0.3652(4) 0.4824(2)
C3 C 0.69440(12) 0.6424(4) 0.61807(19)
C4 C 0.76914(15) 0.2541(5) 0.4330(2)
C5 C 0.75414(13) 0.3600(4) 0.5488(2)
O5 O 0.66089(9) 0.6623(4) 0.58558(15)
C6 C 0.69242(11) 0.5710(4) 0.6900(2)
O7 O 0.59811(11) 0.8393(5) 0.5230(2)
C7 C 0.65608(12) 0.5189(6) 0.7138(2)
C8 C 0.72699(12) 0.5607(5) 0.7335(2)
C9 C 0.58490(16) 0.9328(7) 0.4834(4)
C10 C 0.65445(12) 0.4547(6) 0.7817(2)
C11 C 0.72519(12) 0.4980(5) 0.8010(2)
O8 O 0.6037(6) 0.9742(18) 0.4279(8)
C12 C 0.54070(16) 0.9683(7) 0.4920(4)
C13 C 0.68878(11) 0.4436(4) 0.8246(2)
C14 C 0.5171(2) 0.8885(9) 0.5374(5)
C16 C 0.68661(11) 0.3746(4) 0.89731(19)
O9 O 0.72866(9) 0.6808(3) 0.59677(14)
O10 O 0.78406(9) 0.8856(3) 0.56075(15)
O11 O 0.70149(8) 0.9069(3) 0.49388(15)
C17 C 0.74586(13) 0.1400(4) 0.4512(2)
C18 C 0.73086(15) 0.2459(5) 0.5670(2)
C19 C 0.72688(12) 0.1348(4) 0.5176(2)
C20 C 0.70077(13) 0.0134(4) 0.5385(2)
O13 O 0.67988(13) 0.0153(4) 0.5922(2)
C21 C 0.4764(2) 0.9247(9) 0.5461(5)
O15 O 0.71594(9) 0.3856(3) 0.93925(15)
H1 H 0.529866 0.799251 0.565859
H2 H 0.757564 0.446013 0.586767
H3 H 0.755538 0.602191 0.714263
H4 H 0.742436 0.0539867 0.413233
H6 H 0.715741 0.241906 0.619014
H7 H 0.458045 0.866167 0.584077
H9 H 0.629043 0.527581 0.680253
H10 H 0.625929 0.413083 0.80099
H11 H 0.752058 0.491522 0.835118
H12 H 0.784259 0.258094 0.380986
O3 O 0.78406(9) 0.1144(3) 0.06075(15)
O6 O 0.84570(9) 0.1876(4) 0.08833(16)
C9_2 C 0.91510(16) 0.4328(7) 0.0166(4)
O8_2 O 0.8963(6) 0.4742(18) 0.0721(8)
C12_2 C 0.95930(16) 0.4683(7) 0.0080(4)
C15_2 C 0.9764(2) 0.5753(9) 0.0461(5)
O11_2 O 0.79851(8) 0.4069(3) 0.00612(15)
H5_2 H 0.958045 0.633833 0.0840767
C3_2 C 0.80560(12) 0.1424(4) 0.88193(19)
O5_2 O 0.83911(9) 0.1623(4) 0.91442(15)
C6_2 C 0.80758(11) 0.0710(4) 0.8100(2)
O7_2 O 0.90189(11) 0.3393(5) 0.9770(2)
C7_2 C 0.84392(12) 0.0189(6) 0.7862(2)
C8_2 C 0.77301(12) 0.0607(5) 0.7665(2)
C14_2 C 0.9829(2) 0.3885(9) 0.9626(5)
O9_2 O 0.77134(9) 0.1808(3) 0.90323(14)
Zn3 Zn 0.846654(11) 0.28945(4) 0.99568(2)
H1_2 H 0.970134 0.299251 0.934141
H3_2 H 0.744462 0.102191 0.785737
H9_2 H 0.870957 0.0275811 0.819747
C1_2 C 0.70077(13) 0.9866(4) 0.0385(2)
O4_2 O 0.67988(13) 0.9847(4) 0.0922(2)
C2_2 C 0.72688(12) 0.8652(4) 0.0176(2)
C4_2 C 0.73086(15) 0.7541(5) 0.0670(2)
C17_2 C 0.75414(13) 0.6400(4) 0.0488(2)
H4_2 H 0.757564 0.553987 0.0867673
H12_2 H 0.715741 0.758094 0.119014
C5_2 C 0.74586(13) 0.8600(4) 0.9512(2)
C10_2 C 0.84555(12) 0.9547(6) 0.7183(2)
C11_2 C 0.77481(12) 0.9980(5) 0.6990(2)
C13_2 C 0.81122(11) 0.9436(4) 0.6754(2)
C16_2 C 0.81339(11) 0.8746(4) 0.60269(19)
C18_2 C 0.76914(15) 0.7459(5) 0.9330(2)
C19_2 C 0.77312(12) 0.6348(4) 0.9824(2)
C20_2 C 0.79923(13) 0.5134(4) 0.9615(2)
O13_2 O 0.82012(13) 0.5153(4) 0.9078(2)
O14 O 0.84570(9) 0.8124(4) 0.58833(16)
H2_2 H 0.742436 0.946013 0.913233
H6_2 H 0.784259 0.741906 0.880986
H10_2 H 0.874071 0.913083 0.69901
H11_2 H 0.747942 0.991522 0.664882
C29_2 C 0.77481(12) 0.0020(5) 0.1990(2)
C30_2 C 0.84555(12) 0.0453(6) 0.2183(2)
C31_2 C 0.81122(11) 0.0564(4) 0.1754(2)
C32_2 C 0.81339(11) 0.1254(4) 0.10269(19)
H15_2 H 0.747942 0.00847779 0.164882
H16_2 H 0.874071 0.0869167 0.19901
C21_2 C 0.9764(2) 0.4247(9) 0.5461(5)
C22_2 C 0.9829(2) 0.6115(9) 0.4626(5)
C23_2 C 0.95930(16) 0.5317(7) 0.5080(4)
C24_2 C 0.91510(16) 0.5672(7) 0.5166(4)
O16_2 O 0.90189(11) 0.6607(5) 0.4770(2)
O17_2 O 0.8963(6) 0.5258(18) 0.5721(8)
O20_2 O 0.83911(9) 0.8377(4) 0.41442(15)
C25_2 C 0.80560(12) 0.8576(4) 0.38193(19)
C26_2 C 0.80758(11) 0.9290(4) 0.3100(2)
C27_2 C 0.77301(12) 0.9393(5) 0.2665(2)
C28_2 C 0.84392(12) 0.9811(6) 0.2862(2)
H7_2 H 0.958045 0.366167 0.584077
H8_2 H 0.970134 0.700749 0.434141
H13_2 H 0.744462 0.897809 0.285737
H14_2 H 0.870957 0.972419 0.319747
Zn1_2 Zn 0.153346(11) 0.71055(4) 0.00432(2)
Zn2 Zn 0.2500 0.7500 0.0000
C1_3 C 0.20077(13) 0.4866(4) 0.0385(2)
O2_2 O 0.22866(9) 0.8192(3) 0.09677(14)
O3_2 O 0.28406(9) 0.6144(3) 0.06075(15)
O4_3 O 0.17988(13) 0.4847(4) 0.0922(2)
C2_3 C 0.22688(12) 0.3652(4) 0.0176(2)
C4_3 C 0.23086(15) 0.2541(5) 0.0670(2)
O6_2 O 0.34570(9) 0.6876(4) 0.08833(16)
C9_3 C 0.41510(16) 0.9328(7) 0.0166(4)
O8_3 O 0.3963(6) 0.9742(18) 0.0721(8)
C12_3 C 0.45930(16) 0.9683(7) 0.0080(4)
O11_3 O 0.29851(8) 0.9069(3) 0.00612(15)
C17_3 C 0.25414(13) 0.1400(4) 0.0488(2)
H4_3 H 0.257564 0.0539867 0.0867673
H12_3 H 0.215741 0.258094 0.119014
O1_2 O 0.20149(8) 0.5931(3) 0.99388(15)
Zn2_2 Zn 0.2500 0.7500 1.0000
C3_3 C 0.30560(12) 0.6424(4) 0.88193(19)
C5_3 C 0.24586(13) 0.3600(4) 0.9512(2)
O5_3 O 0.33911(9) 0.6623(4) 0.91442(15)
C6_3 C 0.30758(11) 0.5710(4) 0.8100(2)
O7_3 O 0.40189(11) 0.8393(5) 0.9770(2)
C7_3 C 0.34392(12) 0.5189(6) 0.7862(2)
C8_3 C 0.27301(12) 0.5607(5) 0.7665(2)
C10_3 C 0.34555(12) 0.4547(6) 0.7183(2)
C11_3 C 0.27481(12) 0.4980(5) 0.6990(2)
C13_3 C 0.31122(11) 0.4436(4) 0.6754(2)
C14_3 C 0.4829(2) 0.8885(9) 0.9626(5)
C16_3 C 0.31339(11) 0.3746(4) 0.60269(19)
O9_3 O 0.27134(9) 0.6808(3) 0.90323(14)
O10_2 O 0.21594(9) 0.8856(3) 0.93925(15)
Zn3_2 Zn 0.346654(11) 0.78945(4) 0.99568(2)
C18_3 C 0.26914(15) 0.2459(5) 0.9330(2)
C19_3 C 0.27312(12) 0.1348(4) 0.9824(2)
C20_3 C 0.29923(13) 0.0134(4) 0.9615(2)
O13_3 O 0.32012(13) 0.0153(4) 0.9078(2)
C21_3 C 0.5236(2) 0.9247(9) 0.9539(5)
O14_2 O 0.34570(9) 0.3124(4) 0.58833(16)
O15_2 O 0.28406(9) 0.3856(3) 0.56075(15)
Zn6 Zn 0.346654(11) 0.21055(4) 0.49568(2)
Zn7 Zn 0.2500 0.2500 0.5000
H1_3 H 0.470134 0.799251 0.934141
H2_3 H 0.242436 0.446013 0.913233
H3_3 H 0.244462 0.602191 0.785737
H6_3 H 0.284259 0.241906 0.880986
H7_3 H 0.541955 0.866167 0.915923
H9_3 H 0.370957 0.527581 0.819747
H10_3 H 0.374071 0.413083 0.69901
H11_3 H 0.247942 0.491522 0.664882
C15_3 C 0.5236(2) 0.0753(9) 0.4539(5)
C22_3 C 0.4829(2) 0.1115(9) 0.4626(5)
C23_3 C 0.45930(16) 0.0317(7) 0.5080(4)
C24_3 C 0.41510(16) 0.0672(7) 0.5166(4)
O16_3 O 0.40189(11) 0.1607(5) 0.4770(2)
O17_3 O 0.3963(6) 0.0258(18) 0.5721(8)
O18_2 O 0.29851(8) 0.0931(3) 0.50612(15)
O20_3 O 0.33911(9) 0.3377(4) 0.41442(15)
C25_3 C 0.30560(12) 0.3576(4) 0.38193(19)
O21_2 O 0.27134(9) 0.3192(3) 0.40323(14)
C26_3 C 0.30758(11) 0.4290(4) 0.3100(2)
C27_3 C 0.27301(12) 0.4393(5) 0.2665(2)
C28_3 C 0.34392(12) 0.4811(6) 0.2862(2)
C29_3 C 0.27481(12) 0.5020(5) 0.1990(2)
C30_3 C 0.34555(12) 0.5453(6) 0.2183(2)
C31_3 C 0.31122(11) 0.5564(4) 0.1754(2)
C32_3 C 0.31339(11) 0.6254(4) 0.10269(19)
H5_3 H 0.541955 0.133833 0.415923
H8_3 H 0.470134 0.200749 0.434141
H13_3 H 0.244462 0.397809 0.285737
H14_3 H 0.370957 0.472419 0.319747
H15_3 H 0.247942 0.508478 0.164882
H16_3 H 0.374071 0.586917 0.19901
C29_4 C 0.22519(12) 0.0020(5) 0.3010(2)
C30_4 C 0.15445(12) 0.0453(6) 0.2817(2)
C31_4 C 0.18878(11) 0.0564(4) 0.3246(2)
C32_4 C 0.18661(11) 0.1254(4) 0.39731(19)
O22_2 O 0.21594(9) 0.1144(3) 0.43925(15)
O23_2 O 0.15430(9) 0.1876(4) 0.41167(16)
Zn11_2 Zn 0.153346(11) 0.28945(4) 0.50432(2)
H15_4 H 0.252058 0.00847779 0.335118
H16_4 H 0.125929 0.0869167 0.30099
C22_4 C 0.0171(2) 0.6115(9) 0.0374(5)
O16_4 O 0.09811(11) 0.6607(5) 0.0230(2)
O20_4 O 0.16089(9) 0.8377(4) 0.08558(15)
C25_4 C 0.19440(12) 0.8576(4) 0.11807(19)
C26_4 C 0.19242(11) 0.9290(4) 0.1900(2)
C27_4 C 0.22699(12) 0.9393(5) 0.2335(2)
C28_4 C 0.15608(12) 0.9811(6) 0.2138(2)
H8_4 H 0.0298659 0.700749 0.0658592
H13_4 H 0.255538 0.897809 0.214263
H14_4 H 0.129043 0.972419 0.180253
C21_4 C 0.0236(2) 0.4247(9) 0.9539(5)
C23_4 C 0.04070(16) 0.5317(7) 0.9920(4)
C24_4 C 0.08490(16) 0.5672(7) 0.9834(4)
O17_4 O 0.1037(6) 0.5258(18) 0.9279(8)
O19_2 O 0.15430(9) 0.8124(4) 0.91167(16)
H7_4 H 0.0419551 0.366167 0.915923
C3_4 C 0.19440(12) 0.1424(4) 0.61807(19)
O5_4 O 0.16089(9) 0.1623(4) 0.58558(15)
C6_4 C 0.19242(11) 0.0710(4) 0.6900(2)
O7_4 O 0.09811(11) 0.3393(5) 0.5230(2)
C7_4 C 0.15608(12) 0.0189(6) 0.7138(2)
C8_4 C 0.22699(12) 0.0607(5) 0.7335(2)
C9_4 C 0.08490(16) 0.4328(7) 0.4834(4)
O8_4 O 0.1037(6) 0.4742(18) 0.4279(8)
C12_4 C 0.04070(16) 0.4683(7) 0.4920(4)
C14_4 C 0.0171(2) 0.3885(9) 0.5374(5)
C15_4 C 0.0236(2) 0.5753(9) 0.4539(5)
O9_4 O 0.22866(9) 0.1808(3) 0.59677(14)
O11_4 O 0.20149(8) 0.4069(3) 0.49388(15)
H1_4 H 0.0298659 0.299251 0.565859
H3_4 H 0.255538 0.102191 0.714263
H5_4 H 0.0419551 0.633833 0.415923
H9_4 H 0.129043 0.0275811 0.680253
C1_4 C 0.29923(13) 0.9866(4) 0.4615(2)
O4_4 O 0.32012(13) 0.9847(4) 0.4078(2)
C2_4 C 0.27312(12) 0.8652(4) 0.4824(2)
C4_4 C 0.26914(15) 0.7541(5) 0.4330(2)
C5_4 C 0.25414(13) 0.8600(4) 0.5488(2)
C10_4 C 0.15445(12) 0.9547(6) 0.7817(2)
C11_4 C 0.22519(12) 0.9980(5) 0.8010(2)
C13_4 C 0.18878(11) 0.9436(4) 0.8246(2)
C16_4 C 0.18661(11) 0.8746(4) 0.89731(19)
C17_4 C 0.24586(13) 0.6400(4) 0.4512(2)
C18_4 C 0.23086(15) 0.7459(5) 0.5670(2)
C19_4 C 0.22688(12) 0.6348(4) 0.5176(2)
C20_4 C 0.20077(13) 0.5134(4) 0.5385(2)
O13_4 O 0.17988(13) 0.5153(4) 0.5922(2)
H2_4 H 0.257564 0.946013 0.586767
H4_4 H 0.242436 0.553987 0.413233
H6_4 H 0.215741 0.741906 0.619014
H10_4 H 0.125929 0.913083 0.80099
H11_4 H 0.252058 0.991522 0.835118
H12_4 H 0.284259 0.758094 0.380986
N1 N 0.1262(3) 0.4483(10) 0.7746(5)
C33 C 0.1084(6) 0.390(2) 0.7022(9)
C34 C 0.1367(6) 0.5900(18) 0.7654(9)
H17 H 0.109935 0.649396 0.750292
H18 H 0.149109 0.630699 0.815846
H19 H 0.159142 0.599022 0.722977
H20 H 0.151145 0.392924 0.788677
H21 H 0.105281 0.439876 0.814135
H22 H 0.130847 0.399055 0.659787
H23 H 0.100308 0.280881 0.709249
H24 H 0.0816391 0.44943 0.687102
N1_2 N 0.8738(3) 0.4483(10) 0.7254(5)
C33_2 C 0.8916(6) 0.390(2) 0.7978(9)
C34_2 C 0.8633(6) 0.5900(18) 0.7346(9)
H17_2 H 0.890065 0.649396 0.749708
H18_2 H 0.850891 0.630699 0.684154
H19_2 H 0.840858 0.599022 0.777023
H20_2 H 0.848855 0.392924 0.711323
H21_2 H 0.894719 0.439876 0.685865
H22_2 H 0.869153 0.399055 0.840213
H23_2 H 0.899692 0.280881 0.790751
H24_2 H 0.918361 0.44943 0.812898
C34_3 C 0.6367(6) 0.0900(18) 0.7654(9)
H17_3 H 0.609935 0.149396 0.750292
H18_3 H 0.649109 0.130699 0.815846
H19_3 H 0.659142 0.0990215 0.722977
N1_3 N 0.6262(3) 0.9483(10) 0.7746(5)
C33_3 C 0.6084(6) 0.890(2) 0.7022(9)
H20_3 H 0.651145 0.892924 0.788677
H21_3 H 0.605281 0.939876 0.814135
H22_3 H 0.630847 0.899055 0.659787
H23_3 H 0.600308 0.780881 0.709249
H24_3 H 0.581639 0.94943 0.687102
C34_4 C 0.3633(6) 0.0900(18) 0.7346(9)
H17_4 H 0.390065 0.149396 0.749708
H18_4 H 0.350891 0.130699 0.684154
H19_4 H 0.340858 0.0990215 0.777023
N1_4 N 0.3738(3) 0.9483(10) 0.7254(5)
C33_4 C 0.3916(6) 0.890(2) 0.7978(9)
H20_4 H 0.348855 0.892924 0.711323
H21_4 H 0.394719 0.939876 0.685865
H22_4 H 0.369153 0.899055 0.840213
H23_4 H 0.399692 0.780881 0.790751
H24_4 H 0.418361 0.94943 0.812898
N1_5 N 0.8738(3) 0.5517(10) 0.2254(5)
C33_5 C 0.8916(6) 0.610(2) 0.2978(9)
C34_5 C 0.8633(6) 0.4100(18) 0.2346(9)
H17_5 H 0.890065 0.350604 0.249708
H18_5 H 0.850891 0.369301 0.184154
H19_5 H 0.840858 0.400978 0.277023
H20_5 H 0.848855 0.607076 0.211323
H21_5 H 0.894719 0.560124 0.185865
H22_5 H 0.869153 0.600945 0.340213
H23_5 H 0.899692 0.719119 0.290751
H24_5 H 0.918361 0.55057 0.312898
N1_6 N 0.1262(3) 0.5517(10) 0.2746(5)
C33_6 C 0.1084(6) 0.610(2) 0.2022(9)
C34_6 C 0.1367(6) 0.4100(18) 0.2654(9)
H17_6 H 0.109935 0.350604 0.250292
H18_6 H 0.149109 0.369301 0.315846
H19_6 H 0.159142 0.400978 0.222977
H20_6 H 0.151145 0.607076 0.288677
H21_6 H 0.105281 0.560124 0.314135
H22_6 H 0.130847 0.600945 0.159787
H23_6 H 0.100308 0.719119 0.209249
H24_6 H 0.0816391 0.55057 0.187102
N1_7 N 0.3738(3) 0.0517(10) 0.2254(5)
C33_7 C 0.3916(6) 0.110(2) 0.2978(9)
H20_7 H 0.348855 0.107076 0.211323
H21_7 H 0.394719 0.0601242 0.185865
H22_7 H 0.369153 0.100945 0.340213
H23_7 H 0.399692 0.219119 0.290751
H24_7 H 0.418361 0.0505703 0.312898
C34_7 C 0.3633(6) 0.9100(18) 0.2346(9)
H17_7 H 0.390065 0.850604 0.249708
H18_7 H 0.350891 0.869301 0.184154
H19_7 H 0.340858 0.900978 0.277023
N1_8 N 0.6262(3) 0.0517(10) 0.2746(5)
C33_8 C 0.6084(6) 0.110(2) 0.2022(9)
H20_8 H 0.651145 0.107076 0.288677
H21_8 H 0.605281 0.0601242 0.314135
H22_8 H 0.630847 0.100945 0.159787
H23_8 H 0.600308 0.219119 0.209249
H24_8 H 0.581639 0.0505703 0.187102
C34_8 C 0.6367(6) 0.9100(18) 0.2654(9)
H17_8 H 0.609935 0.850604 0.250292
H18_8 H 0.649109 0.869301 0.315846
H19_8 H 0.659142 0.900978 0.222977
loop_
_geom_bond_atom_site_label_1
_geom_bond_atom_site_label_2
_geom_bond_site_symmetry_1
_geom_bond_site_symmetry_2
C22 C15 1_555 1_555
Zn8 O16 1_555 1_555
O20 Zn8 1_555 1_555
C25 O20 1_555 1_555
O21 Zn9 1_555 1_555
C26 C25 1_555 1_555
C27 C26 1_555 1_555
C28 C26 1_555 1_555
C29 C27 1_555 1_555
C30 C28 1_555 1_555
C31 C29 1_555 1_555
C32 C31 1_555 1_555
O22 C32 1_555 1_555
O23 C32 1_555 1_555
Zn10 O22 1_555 1_555
Zn11 O23 1_555 1_555
C25 O21 1_555 1_555
C30 C31 1_555 1_555
C15 H5 1_555 1_555
C22 H8 1_555 1_555
C27 H13 1_555 1_555
C28 H14 1_555 1_555
C29 H15 1_555 1_555
C30 H16 1_555 1_555
C24 C23 1_555 1_555
O17 C24 1_555 1_555
Zn9_2 O18 1_555 1_555
Zn1 O1 1_555 1_555
O1 Zn10 1_555 1_555
Zn10 O2 1_555 1_555
C1 O1 1_555 1_555
O4 C1 1_555 1_555
C2 C1 1_555 1_555
C3 O5 1_555 1_555
C4 C2 1_555 1_555
C5 C2 1_555 1_555
O5 Zn11 1_555 1_555
C6 C3 1_555 1_555
O7 C9 1_555 1_555
C7 C6 1_555 1_555
C8 C6 1_555 1_555
C9 O8 1_555 1_555
C10 C7 1_555 1_555
C11 C8 1_555 1_555
C12 C9 1_555 1_555
C13 C10 1_555 1_555
C14 C12 1_555 1_555
C16 C13 1_555 1_555
O9 Zn10 1_555 1_555
O10 Zn10 1_555 1_555
O11 Zn10 1_555 1_555
Zn11 O7 1_555 1_555
C17 C4 1_555 1_555
C18 C5 1_555 1_555
C19 C17 1_555 1_555
C20 C19 1_555 1_555
O13 C20 1_555 1_555
C21 C14 1_555 1_555
O19 C16 1_555 1_555
O15 C16 1_555 1_555
Zn9_2 O15 1_555 1_555
C3 O9 1_555 1_555
C11 C13 1_555 1_555
O11 Zn11 1_555 1_555
C18 C19 1_555 1_555
C14 H1 1_555 1_555
C5 H2 1_555 1_555
C8 H3 1_555 1_555
C17 H4 1_555 1_555
C18 H6 1_555 1_555
C21 H7 1_555 1_555
C7 H9 1_555 1_555
C10 H10 1_555 1_555
C11 H11 1_555 1_555
C4 H12 1_555 1_555
O3 Zn9 1_555 1_555
C9_2 O8_2 1_555 1_555
C12_2 C9_2 1_555 1_555
C15_2 C12_2 1_555 1_555
O11_2 Zn9 1_555 1_555
C15_2 H5_2 1_555 1_555
C3_2 O5_2 1_555 1_555
O5_2 Zn3 1_555 1_555
C6_2 C3_2 1_555 1_555
C7_2 C6_2 1_555 1_555
C8_2 C6_2 1_555 1_555
O9_2 Zn9_2 1_555 1_555
Zn3 O7_2 1_555 1_555
C3_2 O9_2 1_555 1_555
C14_2 H1_2 1_555 1_555
C8_2 H3_2 1_555 1_555
C7_2 H9_2 1_555 1_555
O4_2 C1_2 1_555 1_555
C2_2 C1_2 1_555 1_555
C4_2 C2_2 1_555 1_555
C17_2 C4_2 1_555 1_555
C17_2 H4_2 1_555 1_555
C4_2 H12_2 1_555 1_555
C13_2 C10_2 1_555 1_555
C16_2 C13_2 1_555 1_555
C18_2 C5_2 1_555 1_555
C20_2 C19_2 1_555 1_555
O13_2 C20_2 1_555 1_555
O14 C16_2 1_555 1_555
O10 C16_2 1_555 1_555
Zn1 O14 1_555 1_555
C11_2 C13_2 1_555 1_555
C18_2 C19_2 1_555 1_555
C5_2 H2_2 1_555 1_555
C18_2 H6_2 1_555 1_555
C10_2 H10_2 1_555 1_555
C11_2 H11_2 1_555 1_555
C31_2 C29_2 1_555 1_555
C32_2 C31_2 1_555 1_555
O3 C32_2 1_555 1_555
O6 C32_2 1_555 1_555
C30_2 C31_2 1_555 1_555
C29_2 H15_2 1_555 1_555
C30_2 H16_2 1_555 1_555
C23_2 C21_2 1_555 1_555
C24_2 C23_2 1_555 1_555
O16_2 C24_2 1_555 1_555
O17_2 C24_2 1_555 1_555
Zn1 O16_2 1_555 1_555
O20_2 Zn1 1_555 1_555
C25_2 O20_2 1_555 1_555
C26_2 C25_2 1_555 1_555
C27_2 C26_2 1_555 1_555
C28_2 C26_2 1_555 1_555
C22_2 C23_2 1_555 1_555
C25_2 O2 1_555 1_555
C21_2 H7_2 1_555 1_555
C22_2 H8_2 1_555 1_555
C27_2 H13_2 1_555 1_555
C28_2 H14_2 1_555 1_555
Zn2 O2_2 1_555 1_555
O3_2 Zn2 1_555 1_555
O4_3 C1_3 1_555 1_555
C2_3 C1_3 1_555 1_555
C4_3 C2_3 1_555 1_555
C9_3 O8_3 1_555 1_555
C12_3 C9_3 1_555 1_555
O11_3 Zn2 1_555 1_555
C17_3 C4_3 1_555 1_555
C17_3 H4_3 1_555 1_555
C4_3 H12_3 1_555 1_555
O1_2 Zn2_2 1_555 1_555
C3_3 O5_3 1_555 1_555
O5_3 Zn3_2 1_555 1_555
C6_3 C3_3 1_555 1_555
C7_3 C6_3 1_555 1_555
C8_3 C6_3 1_555 1_555
C10_3 C7_3 1_555 1_555
C11_3 C8_3 1_555 1_555
C13_3 C10_3 1_555 1_555
C16_3 C13_3 1_555 1_555
O9_3 Zn2_2 1_555 1_555
O10_2 Zn2_2 1_555 1_555
Zn3_2 O7_3 1_555 1_555
C18_3 C5_3 1_555 1_555
C20_3 C19_3 1_555 1_555
O13_3 C20_3 1_555 1_555
C21_3 C14_3 1_555 1_555
O14_2 C16_3 1_555 1_555
O15_2 C16_3 1_555 1_555
Zn6 O14_2 1_555 1_555
Zn7 O15_2 1_555 1_555
C3_3 O9_3 1_555 1_555
C11_3 C13_3 1_555 1_555
C18_3 C19_3 1_555 1_555
C14_3 H1_3 1_555 1_555
C5_3 H2_3 1_555 1_555
C8_3 H3_3 1_555 1_555
C18_3 H6_3 1_555 1_555
C21_3 H7_3 1_555 1_555
C7_3 H9_3 1_555 1_555
C10_3 H10_3 1_555 1_555
C11_3 H11_3 1_555 1_555
C22_3 C15_3 1_555 1_555
C24_3 C23_3 1_555 1_555
O16_3 C24_3 1_555 1_555
O17_3 C24_3 1_555 1_555
Zn6 O16_3 1_555 1_555
O18_2 Zn6 1_555 1_555
O20_3 Zn6 1_555 1_555
Zn7 O18_2 1_555 1_555
C25_3 O20_3 1_555 1_555
O21_2 Zn7 1_555 1_555
C26_3 C25_3 1_555 1_555
C27_3 C26_3 1_555 1_555
C28_3 C26_3 1_555 1_555
C29_3 C27_3 1_555 1_555
C30_3 C28_3 1_555 1_555
C31_3 C29_3 1_555 1_555
C32_3 C31_3 1_555 1_555
O3_2 C32_3 1_555 1_555
O6_2 C32_3 1_555 1_555
C22_3 C23_3 1_555 1_555
C25_3 O21_2 1_555 1_555
C30_3 C31_3 1_555 1_555
C15_3 H5_3 1_555 1_555
C22_3 H8_3 1_555 1_555
C27_3 H13_3 1_555 1_555
C28_3 H14_3 1_555 1_555
C29_3 H15_3 1_555 1_555
C30_3 H16_3 1_555 1_555
C31_4 C29_4 1_555 1_555
C32_4 C31_4 1_555 1_555
O22_2 C32_4 1_555 1_555
O23_2 C32_4 1_555 1_555
Zn7 O22_2 1_555 1_555
Zn11_2 O23_2 1_555 1_555
C30_4 C31_4 1_555 1_555
C29_4 H15_4 1_555 1_555
C30_4 H16_4 1_555 1_555
Zn1_2 O16_4 1_555 1_555
O20_4 Zn1_2 1_555 1_555
C25_4 O20_4 1_555 1_555
C26_4 C25_4 1_555 1_555
C27_4 C26_4 1_555 1_555
C28_4 C26_4 1_555 1_555
C25_4 O2_2 1_555 1_555
C22_4 H8_4 1_555 1_555
C27_4 H13_4 1_555 1_555
C28_4 H14_4 1_555 1_555
C23_4 C21_4 1_555 1_555
C24_4 C23_4 1_555 1_555
O17_4 C24_4 1_555 1_555
C21_4 H7_4 1_555 1_555
C3_4 O5_4 1_555 1_555
O5_4 Zn11_2 1_555 1_555
C6_4 C3_4 1_555 1_555
O7_4 C9_4 1_555 1_555
C7_4 C6_4 1_555 1_555
C8_4 C6_4 1_555 1_555
C9_4 O8_4 1_555 1_555
C12_4 C9_4 1_555 1_555
C14_4 C12_4 1_555 1_555
C15_4 C12_4 1_555 1_555
O9_4 Zn7 1_555 1_555
O11_4 Zn7 1_555 1_555
Zn11_2 O7_4 1_555 1_555
C3_4 O9_4 1_555 1_555
O11_4 Zn11_2 1_555 1_555
C14_4 H1_4 1_555 1_555
C8_4 H3_4 1_555 1_555
C15_4 H5_4 1_555 1_555
C7_4 H9_4 1_555 1_555
O4_4 C1_4 1_555 1_555
C2_4 C1_4 1_555 1_555
C4_4 C2_4 1_555 1_555
C5_4 C2_4 1_555 1_555
C13_4 C10_4 1_555 1_555
C16_4 C13_4 1_555 1_555
C17_4 C4_4 1_555 1_555
C18_4 C5_4 1_555 1_555
C19_4 C17_4 1_555 1_555
C20_4 C19_4 1_555 1_555
O11_4 C20_4 1_555 1_555
O13_4 C20_4 1_555 1_555
O19_2 C16_4 1_555 1_555
O10_2 C16_4 1_555 1_555
C11_4 C13_4 1_555 1_555
C18_4 C19_4 1_555 1_555
C5_4 H2_4 1_555 1_555
C17_4 H4_4 1_555 1_555
C18_4 H6_4 1_555 1_555
C10_4 H10_4 1_555 1_555
C11_4 H11_4 1_555 1_555
C4_4 H12_4 1_555 1_555
N1 C33 1_555 1_555
C34 N1 1_555 1_555
C34 H17 1_555 1_555
C34 H18 1_555 1_555
C34 H19 1_555 1_555
N1 H20 1_555 1_555
N1 H21 1_555 1_555
C33 H22 1_555 1_555
C33 H23 1_555 1_555
C33 H24 1_555 1_555
N1_2 C33_2 1_555 1_555
C34_2 N1_2 1_555 1_555
C34_2 H17_2 1_555 1_555
C34_2 H18_2 1_555 1_555
C34_2 H19_2 1_555 1_555
N1_2 H20_2 1_555 1_555
N1_2 H21_2 1_555 1_555
C33_2 H22_2 1_555 1_555
C33_2 H23_2 1_555 1_555
C33_2 H24_2 1_555 1_555
C34_3 H17_3 1_555 1_555
C34_3 H18_3 1_555 1_555
C34_3 H19_3 1_555 1_555
N1_3 C33_3 1_555 1_555
N1_3 H20_3 1_555 1_555
N1_3 H21_3 1_555 1_555
C33_3 H22_3 1_555 1_555
C33_3 H23_3 1_555 1_555
C33_3 H24_3 1_555 1_555
C34_4 H17_4 1_555 1_555
C34_4 H18_4 1_555 1_555
C34_4 H19_4 1_555 1_555
N1_4 C33_4 1_555 1_555
N1_4 H20_4 1_555 1_555
N1_4 H21_4 1_555 1_555
C33_4 H22_4 1_555 1_555
C33_4 H23_4 1_555 1_555
C33_4 H24_4 1_555 1_555
N1_5 C33_5 1_555 1_555
C34_5 N1_5 1_555 1_555
C34_5 H17_5 1_555 1_555
C34_5 H18_5 1_555 1_555
C34_5 H19_5 1_555 1_555
N1_5 H20_5 1_555 1_555
N1_5 H21_5 1_555 1_555
C33_5 H22_5 1_555 1_555
C33_5 H23_5 1_555 1_555
C33_5 H24_5 1_555 1_555
N1_6 C33_6 1_555 1_555
C34_6 N1_6 1_555 1_555
C34_6 H17_6 1_555 1_555
C34_6 H18_6 1_555 1_555
C34_6 H19_6 1_555 1_555
N1_6 H20_6 1_555 1_555
N1_6 H21_6 1_555 1_555
C33_6 H22_6 1_555 1_555
C33_6 H23_6 1_555 1_555
C33_6 H24_6 1_555 1_555
N1_7 C33_7 1_555 1_555
N1_7 H20_7 1_555 1_555
N1_7 H21_7 1_555 1_555
C33_7 H22_7 1_555 1_555
C33_7 H23_7 1_555 1_555
C33_7 H24_7 1_555 1_555
C34_7 H17_7 1_555 1_555
C34_7 H18_7 1_555 1_555
C34_7 H19_7 1_555 1_555
N1_8 C33_8 1_555 1_555
N1_8 H20_8 1_555 1_555
N1_8 H21_8 1_555 1_555
C33_8 H22_8 1_555 1_555
C33_8 H23_8 1_555 1_555
C33_8 H24_8 1_555 1_555
C34_8 H17_8 1_555 1_555
C34_8 H18_8 1_555 1_555
C34_8 H19_8 1_555 1_555

#END
