
###############################################################################
#
# This file contains modified crystal structure data generated from the
# MOF subset of the Cambridge Structural Database (CSD) v543 
# hosted by the Cambridge Crystallographic Data Centre (CCDC).
#
# This work is licensed under the Creative Commons
# Attribution-NonCommercial-ShareAlike 4.0 International License.
# To view a copy of this license, visit
# http://creativecommons.org/licenses/by-nc-sa/4.0/
# or send a letter to
# Creative Commons, PO Box 1866, Mountain View, CA 94042, USA.
#
# CIF created using the CSD Python API on 29 September 2022
# The structure has been converted into the P1 space group
# The structure has a 3D framework
# The original CSD entry GAJVAQ is in the monoclinic crystal system
# The framework has been calculated to contain at least 10.0% void space
# The void calculation uses a probe of radius 1.32A, grid spacing 0.4
# H atom positions have been added when not included in the experimental data
#
###############################################################################

data_GAJVAQ
_chemical_formula_moiety         '(C288 H224 Er16 N48 O136 S48)n'
_symmetry_cell_setting           triclinic
_symmetry_space_group_name_H-M   'P 1'
_symmetry_Int_Tables_number      1
_space_group_name_Hall           'P 1'
loop_
_symmetry_equiv_pos_site_id
_symmetry_equiv_pos_as_xyz
1 x,y,z
_cell_length_a                   21.7268(14)
_cell_length_b                   13.5549(9)
_cell_length_c                   34.635(2)
_cell_angle_alpha                90
_cell_angle_beta                 98.9380(10)
_cell_angle_gamma                90
_cell_volume                     10076.3
loop_
_atom_site_label
_atom_site_type_symbol
_atom_site_fract_x
_atom_site_fract_y
_atom_site_fract_z
Er1 Er 0.717181(14) 0.57963(2) 0.059030(8)
Er2 Er 0.759667(14) 0.60811(2) 0.183843(8)
C1 C 0.6992(3) 0.4170(5) 0.1217(2)
C2 C 0.6906(3) 0.3131(5) 0.13454(18)
C3 C 0.6633(3) 0.2436(5) 0.10941(19)
H1 H 0.6499 0.2628 0.0837
C4 C 0.6738(3) 0.1252(5) 0.1560(2)
C5 C 0.7022(3) 0.1890(6) 0.1838(2)
H2 H 0.7156 0.1684 0.2093
C6 C 0.7100(3) 0.2833(6) 0.1727(2)
H3 H 0.7287 0.3287 0.1910
C10 C 0.4173(3) 0.0079(5) 0.1187(2)
C11 C 0.4617(3) 0.0227(5) 0.1520(2)
H6 H 0.4483 0.0499 0.1739
C12 C 0.3507(3) 0.0340(5) 0.1199(2)
C13 C 0.6273(3) 0.6579(5) 0.1250(2)
C14 C 0.5589(3) 0.6837(5) 0.1245(2)
C15 C 0.5159(3) 0.6696(6) 0.0921(2)
H7 H 0.5287 0.6440 0.0697
C16 C 0.4557(3) 0.6914(5) 0.0915(2)
H8 H 0.4267 0.6798 0.0692
C17 C 0.4380(3) 0.7305(5) 0.1239(2)
C18 C 0.5382(3) 0.7231(5) 0.1570(2)
H9 H 0.5668 0.7332 0.1795
C19 C 0.3017(3) 0.5759(5) 0.0942(2)
C20 C 0.3162(4) 0.5422(5) 0.1322(2)
H10 H 0.3317 0.5851 0.1524
C21 C 0.3075(3) 0.4444(5) 0.1395(2)
H11 H 0.3176 0.4195 0.1647
C22 C 0.2832(3) 0.3827(5) 0.10878(19)
C23 C 0.2693(4) 0.4246(5) 0.0724(2)
H12 H 0.2525 0.3844 0.0517
C24 C 0.2720(3) 0.2769(5) 0.1165(3)
N1 N 0.6543(3) 0.1492(4) 0.11868(17)
N2 N 0.5212(3) 0.0007(4) 0.15456(19)
N3 N 0.2785(3) 0.5192(4) 0.06501(17)
N4 N 0.4782(3) 0.7472(5) 0.1573(2)
O1 O 0.7158(2) 0.4804(4) 0.14736(15)
O2 O 0.6904(2) 0.4344(4) 0.08567(15)
O3 O 0.3375(2) 0.0584(4) 0.15189(15)
O4 O 0.3139(2) 0.0288(4) 0.08843(14)
O5 O 0.6622(2) 0.6634(4) 0.15670(15)
O6 O 0.6420(2) 0.6311(4) 0.09300(15)
O7 O 0.2797(3) 0.2475(4) 0.15048(18)
O8 O 0.2544(3) 0.2241(4) 0.08655(18)
O11 O 0.6166(3) 0.5412(4) 0.01488(16)
O12 O 0.6651(2) 0.6772(4) 0.00653(15)
O13 O 0.7384(3) 0.4506(4) 0.01605(15)
O14 O 0.7931(3) 0.6406(4) 0.01876(15)
O15 O 0.8076(2) 0.4657(3) 0.22050(15)
O16 O 0.8455(2) 0.6630(3) 0.22873(14)
O17 O 0.7315(3) 0.7810(5) 0.2183(2)
S1 S 0.66442(9) 0.00232(15) 0.17229(7)
S3 S 0.35914(9) 0.76525(14) 0.12662(7)
S4 S 0.30892(9) 0.70073(14) 0.07954(7)
Er3 Er 0.217181(14) 0.07963(2) 0.059030(8)
Er4 Er 0.259667(14) 0.10811(2) 0.183843(8)
O18 O 0.8375(2) 0.5584(4) 0.15189(15)
O19 O 0.8139(2) 0.5288(4) 0.08843(14)
O20 O 0.7797(3) 0.7475(4) 0.15048(18)
O21 O 0.7544(3) 0.7241(4) 0.08655(18)
O22 O 0.7038(2) 0.5714(3) 0.23247(14)
H20 H 0.787001 0.712534 0.0142734
H21 H 0.884087 0.656967 0.216849
H22 H 0.839167 0.733076 0.235491
H23 H 0.703108 0.767102 0.237507
H24 H 0.770415 0.811681 0.231904
H25 H 0.83119 0.426343 0.203536
H26 H 0.83643 0.489041 0.243788
H27 H 0.699294 0.414369 0.00643539
C25 C 0.6579(3) 0.3990(5) 0.7469(2)
C26 C 0.6196(3) 0.4764(5) 0.76217(19)
C27 C 0.5714(3) 0.4538(5) 0.7835(2)
H13 H 0.5614 0.3883 0.7875
C28 C 0.5390(3) 0.5281(5) 0.7984(2)
H14 H 0.5077 0.5134 0.8129
C29 C 0.5539(3) 0.6254(5) 0.7913(2)
C30 C 0.6317(3) 0.5756(5) 0.7568(2)
H15 H 0.6633 0.5924 0.7428
C31 C 0.5058(3) 0.6635(6) 0.8879(2)
C32 C 0.4881(4) 0.5969(6) 0.9124(2)
H16 H 0.4513 0.5619 0.9053
C33 C 0.5237(4) 0.5804(6) 0.9475(2)
H17 H 0.5119 0.5332 0.9644
C34 C 0.5782(3) 0.6349(5) 0.9580(2)
C35 C 0.5930(4) 0.7047(6) 0.9319(2)
H18 H 0.6287 0.7427 0.9385
C36 C 0.6225(4) 0.6174(6) 0.9953(2)
N5 N 0.5997(3) 0.6489(4) 0.77108(16)
N6 N 0.5557(3) 0.7194(5) 0.89616(19)
O9 O 0.6431(3) 0.3104(4) 0.74988(16)
O10 O 0.7038(2) 0.4286(3) 0.73247(14)
S5 S 0.45787(9) 0.68037(17) 0.84115(6)
S6 S 0.51806(9) 0.73149(14) 0.80697(5)
Er5 Er 0.759667(14) 0.39189(2) 0.683843(8)
H19 H 0.786904 0.605619 0.99326
H28 H 0.755357 0.479376 0.993521
C13_2 C 0.1273(3) 0.1579(5) 0.1250(2)
C14_2 C 0.0589(3) 0.1837(5) 0.1245(2)
C15_2 C 0.0159(3) 0.1696(6) 0.0921(2)
H7_2 H 0.0287 0.1440 0.0697
C18_2 C 0.0382(3) 0.2231(5) 0.1570(2)
H9_2 H 0.0668 0.2332 0.1795
O5_2 O 0.1622(2) 0.1634(4) 0.15670(15)
O6_2 O 0.1420(2) 0.1311(4) 0.09300(15)
O11_2 O 0.1166(3) 0.0412(4) 0.01488(16)
O12_2 O 0.1651(2) 0.1772(4) 0.00653(15)
O14_2 O 0.2931(3) 0.1406(4) 0.01876(15)
O16_2 O 0.3455(2) 0.1630(3) 0.22873(14)
O17_2 O 0.2315(3) 0.2810(5) 0.2183(2)
O22_2 O 0.2038(2) 0.0714(3) 0.23247(14)
H20_2 H 0.287001 0.212534 0.0142734
H21_2 H 0.384087 0.156967 0.216849
H22_2 H 0.339167 0.233076 0.235491
H23_2 H 0.203108 0.267102 0.237507
H24_2 H 0.270415 0.311681 0.231904
C25_2 C 0.1579(3) 0.8990(5) 0.7469(2)
C26_2 C 0.1196(3) 0.9764(5) 0.76217(19)
C27_2 C 0.0714(3) 0.9538(5) 0.7835(2)
H13_2 H 0.0614 0.8883 0.7875
O9_2 O 0.1431(3) 0.8104(4) 0.74988(16)
O10_2 O 0.2038(2) 0.9286(3) 0.73247(14)
Er5_2 Er 0.259667(14) 0.89189(2) 0.683843(8)
H28_2 H 0.255357 0.979376 0.993521
C9 C 0.9391(4) 0.4691(5) 0.0867(2)
H5 H 0.9117 0.4574 0.0637
C10_2 C 0.9173(3) 0.5079(5) 0.1187(2)
C11_2 C 0.9617(3) 0.5227(5) 0.1520(2)
H6_2 H 0.9483 0.5499 0.1739
C12_2 C 0.8507(3) 0.5340(5) 0.1199(2)
C21_2 C 0.8075(3) 0.9444(5) 0.1395(2)
H11_2 H 0.8176 0.9195 0.1647
C22_2 C 0.7832(3) 0.8827(5) 0.10878(19)
C23_2 C 0.7693(4) 0.9246(5) 0.0724(2)
H12_2 H 0.7525 0.8844 0.0517
C24_2 C 0.7720(3) 0.7769(5) 0.1165(3)
Er1_2 Er 0.717181(14) 0.42037(2) 0.559030(8)
C1_2 C 0.6992(3) 0.5830(5) 0.6217(2)
C2_2 C 0.6906(3) 0.6869(5) 0.63454(18)
C3_2 C 0.6633(3) 0.7564(5) 0.60941(19)
H1_2 H 0.6499 0.7372 0.5837
C4_2 C 0.6738(3) 0.8748(5) 0.6560(2)
C5_2 C 0.7022(3) 0.8110(6) 0.6838(2)
H2_2 H 0.7156 0.8316 0.7093
C6_2 C 0.7100(3) 0.7167(6) 0.6727(2)
H3_2 H 0.7287 0.6713 0.6910
C10_3 C 0.4173(3) 0.9921(5) 0.6187(2)
C11_3 C 0.4617(3) 0.9773(5) 0.6520(2)
H6_3 H 0.4483 0.9501 0.6739
C12_3 C 0.3507(3) 0.9660(5) 0.6199(2)
C13_3 C 0.6273(3) 0.3421(5) 0.6250(2)
C14_3 C 0.5589(3) 0.3163(5) 0.6245(2)
C15_3 C 0.5159(3) 0.3304(6) 0.5921(2)
H7_3 H 0.5287 0.3560 0.5697
C16_2 C 0.4557(3) 0.3086(5) 0.5915(2)
H8_2 H 0.4267 0.3202 0.5692
C17_2 C 0.4380(3) 0.2695(5) 0.6239(2)
C18_3 C 0.5382(3) 0.2769(5) 0.6570(2)
H9_3 H 0.5668 0.2668 0.6795
C19_2 C 0.3017(3) 0.4241(5) 0.5942(2)
C20_2 C 0.3162(4) 0.4578(5) 0.6322(2)
H10_2 H 0.3317 0.4149 0.6524
C21_3 C 0.3075(3) 0.5556(5) 0.6395(2)
H11_3 H 0.3176 0.5805 0.6647
C22_3 C 0.2832(3) 0.6173(5) 0.60878(19)
C23_3 C 0.2693(4) 0.5754(5) 0.5724(2)
H12_3 H 0.2525 0.6156 0.5517
C24_3 C 0.2720(3) 0.7231(5) 0.6165(3)
C25_3 C 0.6579(3) 0.6010(5) 0.2469(2)
C26_3 C 0.6196(3) 0.5236(5) 0.26217(19)
C27_3 C 0.5714(3) 0.5462(5) 0.2835(2)
H13_3 H 0.5614 0.6117 0.2875
C28_2 C 0.5390(3) 0.4719(5) 0.2984(2)
H14_2 H 0.5077 0.4866 0.3129
C29_2 C 0.5539(3) 0.3746(5) 0.2913(2)
C30_2 C 0.6317(3) 0.4244(5) 0.2568(2)
H15_2 H 0.6633 0.4076 0.2428
C31_2 C 0.5058(3) 0.3365(6) 0.3879(2)
C32_2 C 0.4881(4) 0.4031(6) 0.4124(2)
H16_2 H 0.4513 0.4381 0.4053
C33_2 C 0.5237(4) 0.4196(6) 0.4475(2)
H17_2 H 0.5119 0.4668 0.4644
C34_2 C 0.5782(3) 0.3651(5) 0.4580(2)
C35_2 C 0.5930(4) 0.2953(6) 0.4319(2)
H18_2 H 0.6287 0.2573 0.4385
C36_2 C 0.6225(4) 0.3826(6) 0.4953(2)
N1_2 N 0.6543(3) 0.8508(4) 0.61868(17)
N2_2 N 0.5212(3) 0.9993(4) 0.65456(19)
N3_2 N 0.2785(3) 0.4808(4) 0.56501(17)
N4_2 N 0.4782(3) 0.2528(5) 0.6573(2)
N5_2 N 0.5997(3) 0.3511(4) 0.27108(16)
N6_2 N 0.5557(3) 0.2806(5) 0.39616(19)
O1_2 O 0.7158(2) 0.5196(4) 0.64736(15)
O2_2 O 0.6904(2) 0.5656(4) 0.58567(15)
O3_2 O 0.3375(2) 0.9416(4) 0.65189(15)
O4_2 O 0.3139(2) 0.9712(4) 0.58843(14)
O5_3 O 0.6622(2) 0.3366(4) 0.65670(15)
O6_3 O 0.6420(2) 0.3689(4) 0.59300(15)
O7_2 O 0.2797(3) 0.7525(4) 0.65048(18)
O8_2 O 0.2544(3) 0.7759(4) 0.58655(18)
O9_3 O 0.6431(3) 0.6896(4) 0.24988(16)
O11_3 O 0.6166(3) 0.4588(4) 0.51488(16)
O12_3 O 0.6651(2) 0.3228(4) 0.50653(15)
O13_2 O 0.7384(3) 0.5494(4) 0.51605(15)
O14_3 O 0.7931(3) 0.3594(4) 0.51876(15)
O15_2 O 0.8076(2) 0.5343(3) 0.72050(15)
O16_3 O 0.8455(2) 0.3370(3) 0.72873(14)
O17_3 O 0.7315(3) 0.2190(5) 0.7183(2)
S1_2 S 0.66442(9) 0.99768(15) 0.67229(7)
S3_2 S 0.35914(9) 0.23475(14) 0.62662(7)
S4_2 S 0.30892(9) 0.29927(14) 0.57954(7)
S5_2 S 0.45787(9) 0.31963(17) 0.34115(6)
S6_2 S 0.51806(9) 0.26851(14) 0.30697(5)
Er3_2 Er 0.217181(14) 0.92037(2) 0.559030(8)
O18_2 O 0.8375(2) 0.4416(4) 0.65189(15)
O19_2 O 0.8139(2) 0.4712(4) 0.58843(14)
O20_2 O 0.7797(3) 0.2525(4) 0.65048(18)
O21_2 O 0.7544(3) 0.2759(4) 0.58655(18)
H19_2 H 0.786904 0.394381 0.49326
H20_3 H 0.787001 0.287466 0.514273
H21_3 H 0.884087 0.343033 0.716849
H22_3 H 0.839167 0.266924 0.735491
H23_3 H 0.703108 0.232898 0.737507
H24_3 H 0.770415 0.188319 0.731904
H25_2 H 0.83119 0.573657 0.703536
H26_2 H 0.83643 0.510959 0.743788
H27_2 H 0.699294 0.585631 0.506435
H28_3 H 0.755357 0.520624 0.493521
C1_3 C 0.1992(3) 0.0830(5) 0.6217(2)
C2_3 C 0.1906(3) 0.1869(5) 0.63454(18)
C3_3 C 0.1633(3) 0.2564(5) 0.60941(19)
H1_3 H 0.1499 0.2372 0.5837
C4_3 C 0.1738(3) 0.3748(5) 0.6560(2)
C5_3 C 0.2022(3) 0.3110(6) 0.6838(2)
H2_3 H 0.2156 0.3316 0.7093
C6_3 C 0.2100(3) 0.2167(6) 0.6727(2)
H3_3 H 0.2287 0.1713 0.6910
C7 C 0.0398(3) 0.5356(5) 0.6226(2)
C8 C 0.0018(4) 0.5524(6) 0.5886(2)
H4 H 0.0172 0.5777 0.5671
C25_4 C 0.1579(3) 0.1010(5) 0.2469(2)
C26_4 C 0.1196(3) 0.0236(5) 0.26217(19)
C27_4 C 0.0714(3) 0.0462(5) 0.2835(2)
H13_4 H 0.0614 0.1117 0.2875
N1_3 N 0.1543(3) 0.3508(4) 0.61868(17)
N2_3 N 0.0212(3) 0.4993(4) 0.65456(19)
O1_3 O 0.2158(2) 0.0196(4) 0.64736(15)
O2_3 O 0.1904(2) 0.0656(4) 0.58567(15)
O9_4 O 0.1431(3) 0.1896(4) 0.24988(16)
O13_3 O 0.2384(3) 0.0494(4) 0.51605(15)
O15_3 O 0.3076(2) 0.0343(3) 0.72050(15)
S1_3 S 0.16442(9) 0.49768(15) 0.67229(7)
S2 S 0.12072(10) 0.56887(14) 0.62470(8)
H25_3 H 0.33119 0.0736566 0.703536
H26_3 H 0.33643 0.0109588 0.743788
H27_3 H 0.199294 0.0856311 0.506435
H28_4 H 0.255357 0.0206245 0.493521
C13_4 C 0.1273(3) 0.8421(5) 0.6250(2)
C14_4 C 0.0589(3) 0.8163(5) 0.6245(2)
C15_4 C 0.0159(3) 0.8304(6) 0.5921(2)
H7_4 H 0.0287 0.8560 0.5697
C18_4 C 0.0382(3) 0.7769(5) 0.6570(2)
H9_4 H 0.0668 0.7668 0.6795
C28_3 C 0.0390(3) 0.9719(5) 0.2984(2)
H14_3 H 0.0077 0.9866 0.3129
C29_3 C 0.0539(3) 0.8746(5) 0.2913(2)
C30_3 C 0.1317(3) 0.9244(5) 0.2568(2)
H15_3 H 0.1633 0.9076 0.2428
C31_3 C 0.0058(3) 0.8365(6) 0.3879(2)
C33_3 C 0.0237(4) 0.9196(6) 0.4475(2)
H17_3 H 0.0119 0.9668 0.4644
C34_3 C 0.0782(3) 0.8651(5) 0.4580(2)
C35_3 C 0.0930(4) 0.7953(6) 0.4319(2)
H18_3 H 0.1287 0.7573 0.4385
C36_3 C 0.1225(4) 0.8826(6) 0.4953(2)
N5_3 N 0.0997(3) 0.8511(4) 0.27108(16)
N6_3 N 0.0557(3) 0.7806(5) 0.39616(19)
O5_4 O 0.1622(2) 0.8366(4) 0.65670(15)
O6_4 O 0.1420(2) 0.8689(4) 0.59300(15)
O11_4 O 0.1166(3) 0.9588(4) 0.51488(16)
O12_4 O 0.1651(2) 0.8228(4) 0.50653(15)
O14_4 O 0.2931(3) 0.8594(4) 0.51876(15)
O16_4 O 0.3455(2) 0.8370(3) 0.72873(14)
O17_4 O 0.2315(3) 0.7190(5) 0.7183(2)
S6_3 S 0.01806(9) 0.76851(14) 0.30697(5)
H19_3 H 0.286904 0.894381 0.49326
H20_4 H 0.287001 0.787466 0.514273
H21_4 H 0.384087 0.843033 0.716849
H22_4 H 0.339167 0.766924 0.735491
H23_4 H 0.203108 0.732898 0.737507
H24_4 H 0.270415 0.688319 0.731904
C9_2 C 0.9391(4) 0.5309(5) 0.5867(2)
H5_2 H 0.9117 0.5426 0.5637
C10_4 C 0.9173(3) 0.4921(5) 0.6187(2)
C11_4 C 0.9617(3) 0.4773(5) 0.6520(2)
H6_4 H 0.9483 0.4501 0.6739
C12_4 C 0.8507(3) 0.4660(5) 0.6199(2)
C21_4 C 0.8075(3) 0.0556(5) 0.6395(2)
H11_4 H 0.8176 0.0805 0.6647
C22_4 C 0.7832(3) 0.1173(5) 0.60878(19)
C23_4 C 0.7693(4) 0.0754(5) 0.5724(2)
H12_4 H 0.7525 0.1156 0.5517
C24_4 C 0.7720(3) 0.2231(5) 0.6165(3)
C7_2 C 0.5398(3) 0.9644(5) 0.1226(2)
C8_2 C 0.5018(4) 0.9476(6) 0.0886(2)
H4_2 H 0.5172 0.9223 0.0671
C9_3 C 0.4391(4) 0.9691(5) 0.0867(2)
H5_3 H 0.4117 0.9574 0.0637
S2_2 S 0.62072(10) 0.93113(14) 0.12470(8)
Er1_3 Er 0.282819(14) 0.57963(2) 0.440970(8)
Er2_2 Er 0.240333(14) 0.60811(2) 0.316157(8)
C1_4 C 0.3008(3) 0.4170(5) 0.3783(2)
C2_4 C 0.3094(3) 0.3131(5) 0.36546(18)
C3_4 C 0.3367(3) 0.2436(5) 0.39059(19)
H1_4 H 0.3501 0.2628 0.4163
C4_4 C 0.3262(3) 0.1252(5) 0.3440(2)
C5_4 C 0.2978(3) 0.1890(6) 0.3162(2)
H2_4 H 0.2844 0.1684 0.2907
C6_4 C 0.2900(3) 0.2833(6) 0.3273(2)
H3_4 H 0.2713 0.3287 0.3090
C10_5 C 0.5827(3) 0.0079(5) 0.3813(2)
C11_5 C 0.5383(3) 0.0227(5) 0.3480(2)
H6_5 H 0.5517 0.0499 0.3261
C12_5 C 0.6493(3) 0.0340(5) 0.3801(2)
C13_5 C 0.3727(3) 0.6579(5) 0.3750(2)
C14_5 C 0.4411(3) 0.6837(5) 0.3755(2)
C15_5 C 0.4841(3) 0.6696(6) 0.4079(2)
H7_5 H 0.4713 0.6440 0.4303
C16_3 C 0.5443(3) 0.6914(5) 0.4085(2)
H8_3 H 0.5733 0.6798 0.4308
C17_3 C 0.5620(3) 0.7305(5) 0.3761(2)
C18_5 C 0.4618(3) 0.7231(5) 0.3430(2)
H9_5 H 0.4332 0.7332 0.3205
C19_3 C 0.6983(3) 0.5759(5) 0.4058(2)
C20_3 C 0.6838(4) 0.5422(5) 0.3678(2)
H10_3 H 0.6683 0.5851 0.3476
C21_5 C 0.6925(3) 0.4444(5) 0.3605(2)
H11_5 H 0.6824 0.4195 0.3353
C22_5 C 0.7168(3) 0.3827(5) 0.39122(19)
C23_5 C 0.7307(4) 0.4246(5) 0.4276(2)
H12_5 H 0.7475 0.3844 0.4483
C24_5 C 0.7280(3) 0.2769(5) 0.3835(3)
C25_5 C 0.3421(3) 0.3990(5) 0.7531(2)
C26_5 C 0.3804(3) 0.4764(5) 0.73783(19)
C27_5 C 0.4286(3) 0.4538(5) 0.7165(2)
H13_5 H 0.4386 0.3883 0.7125
C28_4 C 0.4610(3) 0.5281(5) 0.7016(2)
H14_4 H 0.4923 0.5134 0.6871
C29_4 C 0.4461(3) 0.6254(5) 0.7087(2)
C30_4 C 0.3683(3) 0.5756(5) 0.7432(2)
H15_4 H 0.3367 0.5924 0.7572
C31_4 C 0.4942(3) 0.6635(6) 0.6121(2)
C32_3 C 0.5119(4) 0.5969(6) 0.5876(2)
H16_3 H 0.5487 0.5619 0.5947
C33_4 C 0.4763(4) 0.5804(6) 0.5525(2)
H17_4 H 0.4881 0.5332 0.5356
C34_4 C 0.4218(3) 0.6349(5) 0.5420(2)
C35_4 C 0.4070(4) 0.7047(6) 0.5681(2)
H18_4 H 0.3713 0.7427 0.5615
C36_4 C 0.3775(4) 0.6174(6) 0.5047(2)
N1_4 N 0.3457(3) 0.1492(4) 0.38132(17)
N2_4 N 0.4788(3) 0.0007(4) 0.34544(19)
N3_3 N 0.7215(3) 0.5192(4) 0.43499(17)
N4_3 N 0.5218(3) 0.7472(5) 0.3427(2)
N5_4 N 0.4003(3) 0.6489(4) 0.72892(16)
N6_4 N 0.4443(3) 0.7194(5) 0.60384(19)
O1_4 O 0.2842(2) 0.4804(4) 0.35264(15)
O2_4 O 0.3096(2) 0.4344(4) 0.41433(15)
O3_3 O 0.6625(2) 0.0584(4) 0.34811(15)
O4_3 O 0.6861(2) 0.0288(4) 0.41157(14)
O5_5 O 0.3378(2) 0.6634(4) 0.34330(15)
O6_5 O 0.3580(2) 0.6311(4) 0.40700(15)
O7_3 O 0.7203(3) 0.2475(4) 0.34952(18)
O8_3 O 0.7456(3) 0.2241(4) 0.41345(18)
O9_5 O 0.3569(3) 0.3104(4) 0.75012(16)
O10_3 O 0.2962(2) 0.4286(3) 0.76753(14)
O11_5 O 0.3834(3) 0.5412(4) 0.48512(16)
O12_5 O 0.3349(2) 0.6772(4) 0.49347(15)
O13_4 O 0.2616(3) 0.4506(4) 0.48395(15)
O14_5 O 0.2069(3) 0.6406(4) 0.48124(15)
O15_4 O 0.1924(2) 0.4657(3) 0.27950(15)
O16_5 O 0.1545(2) 0.6630(3) 0.27127(14)
O17_5 O 0.2685(3) 0.7810(5) 0.2817(2)
S1_4 S 0.33558(9) 0.00232(15) 0.32771(7)
S3_3 S 0.64086(9) 0.76525(14) 0.37338(7)
S4_3 S 0.69108(9) 0.70073(14) 0.42046(7)
S5_3 S 0.54213(9) 0.68037(17) 0.65885(6)
S6_4 S 0.48194(9) 0.73149(14) 0.69303(5)
Er3_3 Er 0.782819(14) 0.07963(2) 0.440970(8)
Er4_2 Er 0.740333(14) 0.10811(2) 0.316157(8)
Er5_3 Er 0.240333(14) 0.39189(2) 0.816157(8)
O18_3 O 0.1625(2) 0.5584(4) 0.34811(15)
O19_3 O 0.1861(2) 0.5288(4) 0.41157(14)
O20_3 O 0.2203(3) 0.7475(4) 0.34952(18)
O21_3 O 0.2456(3) 0.7241(4) 0.41345(18)
O22_3 O 0.2962(2) 0.5714(3) 0.26753(14)
H19_4 H 0.213096 0.605619 0.50674
H20_5 H 0.212999 0.712534 0.485727
H21_5 H 0.115913 0.656967 0.283151
H22_5 H 0.160833 0.733076 0.264509
H23_5 H 0.296892 0.767102 0.262493
H24_5 H 0.229585 0.811681 0.268096
H25_4 H 0.16881 0.426343 0.296464
H26_4 H 0.16357 0.489041 0.256212
H27_4 H 0.300706 0.414369 0.493565
H28_5 H 0.244643 0.479376 0.506479
C9_4 C 0.0609(4) 0.4691(5) 0.4133(2)
H5_4 H 0.0883 0.4574 0.4363
C10_6 C 0.0827(3) 0.5079(5) 0.3813(2)
C11_6 C 0.0383(3) 0.5227(5) 0.3480(2)
H6_6 H 0.0517 0.5499 0.3261
C12_6 C 0.1493(3) 0.5340(5) 0.3801(2)
C21_6 C 0.1925(3) 0.9444(5) 0.3605(2)
H11_6 H 0.1824 0.9195 0.3353
C22_6 C 0.2168(3) 0.8827(5) 0.39122(19)
C23_6 C 0.2307(4) 0.9246(5) 0.4276(2)
H12_6 H 0.2475 0.8844 0.4483
C24_6 C 0.2280(3) 0.7769(5) 0.3835(3)
C13_6 C 0.8727(3) 0.1579(5) 0.3750(2)
C14_6 C 0.9411(3) 0.1837(5) 0.3755(2)
C15_6 C 0.9841(3) 0.1696(6) 0.4079(2)
H7_6 H 0.9713 0.1440 0.4303
C18_6 C 0.9618(3) 0.2231(5) 0.3430(2)
H9_6 H 0.9332 0.2332 0.3205
C28_5 C 0.9610(3) 0.0281(5) 0.7016(2)
H14_5 H 0.9923 0.0134 0.6871
C29_5 C 0.9461(3) 0.1254(5) 0.7087(2)
C30_5 C 0.8683(3) 0.0756(5) 0.7432(2)
H15_5 H 0.8367 0.0924 0.7572
C31_5 C 0.9942(3) 0.1635(6) 0.6121(2)
C33_5 C 0.9763(4) 0.0804(6) 0.5525(2)
H17_5 H 0.9881 0.0332 0.5356
C34_5 C 0.9218(3) 0.1349(5) 0.5420(2)
C35_5 C 0.9070(4) 0.2047(6) 0.5681(2)
H18_5 H 0.8713 0.2427 0.5615
C36_5 C 0.8775(4) 0.1174(6) 0.5047(2)
N5_5 N 0.9003(3) 0.1489(4) 0.72892(16)
N6_5 N 0.9443(3) 0.2194(5) 0.60384(19)
O5_6 O 0.8378(2) 0.1634(4) 0.34330(15)
O6_6 O 0.8580(2) 0.1311(4) 0.40700(15)
O11_6 O 0.8834(3) 0.0412(4) 0.48512(16)
O12_6 O 0.8349(2) 0.1772(4) 0.49347(15)
O14_6 O 0.7069(3) 0.1406(4) 0.48124(15)
O16_6 O 0.6545(2) 0.1630(3) 0.27127(14)
O17_6 O 0.7685(3) 0.2810(5) 0.2817(2)
S6_5 S 0.98194(9) 0.23149(14) 0.69303(5)
O22_4 O 0.7962(2) 0.0714(3) 0.26753(14)
H19_5 H 0.713096 0.105619 0.50674
H20_6 H 0.712999 0.212534 0.485727
H21_6 H 0.615913 0.156967 0.283151
H22_6 H 0.660833 0.233076 0.264509
H23_6 H 0.796892 0.267102 0.262493
H24_6 H 0.729585 0.311681 0.268096
C1_5 C 0.8008(3) 0.9170(5) 0.3783(2)
C2_5 C 0.8094(3) 0.8131(5) 0.36546(18)
C3_5 C 0.8367(3) 0.7436(5) 0.39059(19)
H1_5 H 0.8501 0.7628 0.4163
C4_5 C 0.8262(3) 0.6252(5) 0.3440(2)
C5_5 C 0.7978(3) 0.6890(6) 0.3162(2)
H2_5 H 0.7844 0.6684 0.2907
C6_5 C 0.7900(3) 0.7833(6) 0.3273(2)
H3_5 H 0.7713 0.8287 0.3090
C7_3 C 0.9602(3) 0.4644(5) 0.3774(2)
C8_3 C 0.9982(4) 0.4476(6) 0.4114(2)
H4_3 H 0.9828 0.4223 0.4329
C25_6 C 0.8421(3) 0.8990(5) 0.7531(2)
C26_6 C 0.8804(3) 0.9764(5) 0.73783(19)
C27_6 C 0.9286(3) 0.9538(5) 0.7165(2)
H13_6 H 0.9386 0.8883 0.7125
N1_5 N 0.8457(3) 0.6492(4) 0.38132(17)
N2_5 N 0.9788(3) 0.5007(4) 0.34544(19)
O1_5 O 0.7842(2) 0.9804(4) 0.35264(15)
O2_5 O 0.8096(2) 0.9344(4) 0.41433(15)
O9_6 O 0.8569(3) 0.8104(4) 0.75012(16)
O10_4 O 0.7962(2) 0.9286(3) 0.76753(14)
O13_5 O 0.7616(3) 0.9506(4) 0.48395(15)
O15_5 O 0.6924(2) 0.9657(3) 0.27950(15)
S1_5 S 0.83558(9) 0.50232(15) 0.32771(7)
S2_3 S 0.87928(10) 0.43113(14) 0.37530(8)
Er5_4 Er 0.740333(14) 0.89189(2) 0.816157(8)
H25_5 H 0.66881 0.926343 0.296464
H26_5 H 0.66357 0.989041 0.256212
H27_5 H 0.800706 0.914369 0.493565
H28_6 H 0.744643 0.979376 0.506479
C25_7 C 0.3421(3) 0.6010(5) 0.2531(2)
C26_7 C 0.3804(3) 0.5236(5) 0.23783(19)
C27_7 C 0.4286(3) 0.5462(5) 0.2165(2)
H13_7 H 0.4386 0.6117 0.2125
C28_6 C 0.4610(3) 0.4719(5) 0.2016(2)
H14_6 H 0.4923 0.4866 0.1871
C29_6 C 0.4461(3) 0.3746(5) 0.2087(2)
C30_6 C 0.3683(3) 0.4244(5) 0.2432(2)
H15_6 H 0.3367 0.4076 0.2572
C31_6 C 0.4942(3) 0.3365(6) 0.1121(2)
C32_4 C 0.5119(4) 0.4031(6) 0.0876(2)
H16_4 H 0.5487 0.4381 0.0947
C33_6 C 0.4763(4) 0.4196(6) 0.0525(2)
H17_6 H 0.4881 0.4668 0.0356
C34_6 C 0.4218(3) 0.3651(5) 0.0420(2)
C35_6 C 0.4070(4) 0.2953(6) 0.0681(2)
H18_6 H 0.3713 0.2573 0.0615
C36_6 C 0.3775(4) 0.3826(6) 0.0047(2)
N5_6 N 0.4003(3) 0.3511(4) 0.22892(16)
N6_6 N 0.4443(3) 0.2806(5) 0.10384(19)
O9_7 O 0.3569(3) 0.6896(4) 0.25012(16)
S5_4 S 0.54213(9) 0.31963(17) 0.15885(6)
S6_6 S 0.48194(9) 0.26851(14) 0.19303(5)
H19_6 H 0.213096 0.394381 0.00674024
H28_7 H 0.244643 0.520624 0.00647891
Er1_4 Er 0.282819(14) 0.42037(2) 0.940970(8)
C1_6 C 0.3008(3) 0.5830(5) 0.8783(2)
C2_6 C 0.3094(3) 0.6869(5) 0.86546(18)
C3_6 C 0.3367(3) 0.7564(5) 0.89059(19)
H1_6 H 0.3501 0.7372 0.9163
C4_6 C 0.3262(3) 0.8748(5) 0.8440(2)
C5_6 C 0.2978(3) 0.8110(6) 0.8162(2)
H2_6 H 0.2844 0.8316 0.7907
C6_6 C 0.2900(3) 0.7167(6) 0.8273(2)
H3_6 H 0.2713 0.6713 0.8090
C10_7 C 0.5827(3) 0.9921(5) 0.8813(2)
C11_7 C 0.5383(3) 0.9773(5) 0.8480(2)
H6_7 H 0.5517 0.9501 0.8261
C12_7 C 0.6493(3) 0.9660(5) 0.8801(2)
C13_7 C 0.3727(3) 0.3421(5) 0.8750(2)
C14_7 C 0.4411(3) 0.3163(5) 0.8755(2)
C15_7 C 0.4841(3) 0.3304(6) 0.9079(2)
H7_7 H 0.4713 0.3560 0.9303
C16_4 C 0.5443(3) 0.3086(5) 0.9085(2)
H8_4 H 0.5733 0.3202 0.9308
C17_4 C 0.5620(3) 0.2695(5) 0.8761(2)
C18_7 C 0.4618(3) 0.2769(5) 0.8430(2)
H9_7 H 0.4332 0.2668 0.8205
C19_4 C 0.6983(3) 0.4241(5) 0.9058(2)
C20_4 C 0.6838(4) 0.4578(5) 0.8678(2)
H10_4 H 0.6683 0.4149 0.8476
C21_7 C 0.6925(3) 0.5556(5) 0.8605(2)
H11_7 H 0.6824 0.5805 0.8353
C22_7 C 0.7168(3) 0.6173(5) 0.89122(19)
C23_7 C 0.7307(4) 0.5754(5) 0.9276(2)
H12_7 H 0.7475 0.6156 0.9483
C24_7 C 0.7280(3) 0.7231(5) 0.8835(3)
N1_6 N 0.3457(3) 0.8508(4) 0.88132(17)
N2_6 N 0.4788(3) 0.9993(4) 0.84544(19)
N3_4 N 0.7215(3) 0.4808(4) 0.93499(17)
N4_4 N 0.5218(3) 0.2528(5) 0.8427(2)
O1_6 O 0.2842(2) 0.5196(4) 0.85264(15)
O2_6 O 0.3096(2) 0.5656(4) 0.91433(15)
O3_4 O 0.6625(2) 0.9416(4) 0.84811(15)
O4_4 O 0.6861(2) 0.9712(4) 0.91157(14)
O5_7 O 0.3378(2) 0.3366(4) 0.84330(15)
O6_7 O 0.3580(2) 0.3689(4) 0.90700(15)
O7_4 O 0.7203(3) 0.7525(4) 0.84952(18)
O8_4 O 0.7456(3) 0.7759(4) 0.91345(18)
O11_7 O 0.3834(3) 0.4588(4) 0.98512(16)
O12_7 O 0.3349(2) 0.3228(4) 0.99347(15)
O13_6 O 0.2616(3) 0.5494(4) 0.98395(15)
O14_7 O 0.2069(3) 0.3594(4) 0.98124(15)
O15_6 O 0.1924(2) 0.5343(3) 0.77950(15)
O16_7 O 0.1545(2) 0.3370(3) 0.77127(14)
O17_7 O 0.2685(3) 0.2190(5) 0.7817(2)
S1_6 S 0.33558(9) 0.99768(15) 0.82771(7)
S3_4 S 0.64086(9) 0.23475(14) 0.87338(7)
S4_4 S 0.69108(9) 0.29927(14) 0.92046(7)
Er3_4 Er 0.782819(14) 0.92037(2) 0.940970(8)
O18_4 O 0.1625(2) 0.4416(4) 0.84811(15)
O19_4 O 0.1861(2) 0.4712(4) 0.91157(14)
O20_4 O 0.2203(3) 0.2525(4) 0.84952(18)
O21_4 O 0.2456(3) 0.2759(4) 0.91345(18)
H20_7 H 0.212999 0.287466 0.985727
H21_7 H 0.115913 0.343033 0.783151
H22_7 H 0.160833 0.266924 0.764509
H23_7 H 0.296892 0.232898 0.762493
H24_7 H 0.229585 0.188319 0.768096
H25_6 H 0.16881 0.573657 0.796464
H26_6 H 0.16357 0.510959 0.756212
H27_6 H 0.300706 0.585631 0.993565
C9_5 C 0.0609(4) 0.5309(5) 0.9133(2)
H5_5 H 0.0883 0.5426 0.9363
C10_8 C 0.0827(3) 0.4921(5) 0.8813(2)
C11_8 C 0.0383(3) 0.4773(5) 0.8480(2)
H6_8 H 0.0517 0.4501 0.8261
C12_8 C 0.1493(3) 0.4660(5) 0.8801(2)
C21_8 C 0.1925(3) 0.0556(5) 0.8605(2)
H11_8 H 0.1824 0.0805 0.8353
C22_8 C 0.2168(3) 0.1173(5) 0.89122(19)
C23_8 C 0.2307(4) 0.0754(5) 0.9276(2)
H12_8 H 0.2475 0.1156 0.9483
C24_8 C 0.2280(3) 0.2231(5) 0.8835(3)
C25_8 C 0.8421(3) 0.1010(5) 0.2531(2)
C26_8 C 0.8804(3) 0.0236(5) 0.23783(19)
C27_8 C 0.9286(3) 0.0462(5) 0.2165(2)
H13_8 H 0.9386 0.1117 0.2125
O9_8 O 0.8569(3) 0.1896(4) 0.25012(16)
H28_8 H 0.744643 0.0206245 0.00647891
C13_8 C 0.8727(3) 0.8421(5) 0.8750(2)
C14_8 C 0.9411(3) 0.8163(5) 0.8755(2)
C15_8 C 0.9841(3) 0.8304(6) 0.9079(2)
H7_8 H 0.9713 0.8560 0.9303
C18_8 C 0.9618(3) 0.7769(5) 0.8430(2)
H9_8 H 0.9332 0.7668 0.8205
O5_8 O 0.8378(2) 0.8366(4) 0.84330(15)
O6_8 O 0.8580(2) 0.8689(4) 0.90700(15)
O11_8 O 0.8834(3) 0.9588(4) 0.98512(16)
O12_8 O 0.8349(2) 0.8228(4) 0.99347(15)
O14_8 O 0.7069(3) 0.8594(4) 0.98124(15)
O16_8 O 0.6545(2) 0.8370(3) 0.77127(14)
O17_8 O 0.7685(3) 0.7190(5) 0.7817(2)
H20_8 H 0.712999 0.787466 0.985727
H21_8 H 0.615913 0.843033 0.783151
H22_8 H 0.660833 0.766924 0.764509
H23_8 H 0.796892 0.732898 0.762493
H24_8 H 0.729585 0.688319 0.768096
C7_4 C 0.4602(3) 0.9644(5) 0.3774(2)
C8_4 C 0.4982(4) 0.9476(6) 0.4114(2)
H4_4 H 0.4828 0.9223 0.4329
C9_6 C 0.5609(4) 0.9691(5) 0.4133(2)
H5_6 H 0.5883 0.9574 0.4363
S2_4 S 0.37928(10) 0.93113(14) 0.37530(8)
C28_7 C 0.0390(3) 0.0281(5) 0.7984(2)
H14_7 H 0.0077 0.0134 0.8129
C29_7 C 0.0539(3) 0.1254(5) 0.7913(2)
C30_7 C 0.1317(3) 0.0756(5) 0.7568(2)
H15_7 H 0.1633 0.0924 0.7428
C31_7 C 0.0058(3) 0.1635(6) 0.8879(2)
C33_7 C 0.0237(4) 0.0804(6) 0.9475(2)
H17_7 H 0.0119 0.0332 0.9644
C34_7 C 0.0782(3) 0.1349(5) 0.9580(2)
C35_7 C 0.0930(4) 0.2047(6) 0.9319(2)
H18_7 H 0.1287 0.2427 0.9385
C36_7 C 0.1225(4) 0.1174(6) 0.9953(2)
N5_7 N 0.0997(3) 0.1489(4) 0.77108(16)
N6_7 N 0.0557(3) 0.2194(5) 0.89616(19)
S6_7 S 0.01806(9) 0.23149(14) 0.80697(5)
H19_7 H 0.286904 0.105619 0.99326
C1_7 C 0.1992(3) 0.9170(5) 0.1217(2)
C2_7 C 0.1906(3) 0.8131(5) 0.13454(18)
C3_7 C 0.1633(3) 0.7436(5) 0.10941(19)
H1_7 H 0.1499 0.7628 0.0837
C4_7 C 0.1738(3) 0.6252(5) 0.1560(2)
C5_7 C 0.2022(3) 0.6890(6) 0.1838(2)
H2_7 H 0.2156 0.6684 0.2093
C6_7 C 0.2100(3) 0.7833(6) 0.1727(2)
H3_7 H 0.2287 0.8287 0.1910
C7_5 C 0.0398(3) 0.4644(5) 0.1226(2)
C8_5 C 0.0018(4) 0.4476(6) 0.0886(2)
H4_5 H 0.0172 0.4223 0.0671
N1_7 N 0.1543(3) 0.6492(4) 0.11868(17)
N2_7 N 0.0212(3) 0.5007(4) 0.15456(19)
O1_7 O 0.2158(2) 0.9804(4) 0.14736(15)
O2_7 O 0.1904(2) 0.9344(4) 0.08567(15)
O13_7 O 0.2384(3) 0.9506(4) 0.01605(15)
O15_7 O 0.3076(2) 0.9657(3) 0.22050(15)
S1_7 S 0.16442(9) 0.50232(15) 0.17229(7)
S2_5 S 0.12072(10) 0.43113(14) 0.12470(8)
H25_7 H 0.33119 0.926343 0.203536
H26_7 H 0.33643 0.989041 0.243788
H27_7 H 0.199294 0.914369 0.00643539
C16_5 C 0.9557(3) 0.1914(5) 0.0915(2)
H8_5 H 0.9267 0.1798 0.0692
C17_5 C 0.9380(3) 0.2305(5) 0.1239(2)
C19_5 C 0.8017(3) 0.0759(5) 0.0942(2)
C20_5 C 0.8162(4) 0.0422(5) 0.1322(2)
H10_5 H 0.8317 0.0851 0.1524
N3_5 N 0.7785(3) 0.0192(4) 0.06501(17)
N4_5 N 0.9782(3) 0.2472(5) 0.1573(2)
S3_5 S 0.85914(9) 0.26525(14) 0.12662(7)
S4_5 S 0.80892(9) 0.20073(14) 0.07954(7)
C32_5 C 0.9881(4) 0.0969(6) 0.9124(2)
H16_5 H 0.9513 0.0619 0.9053
S5_5 S 0.95787(9) 0.18037(17) 0.84115(6)
C16_6 C 0.0443(3) 0.1914(5) 0.4085(2)
H8_6 H 0.0733 0.1798 0.4308
C17_6 C 0.0620(3) 0.2305(5) 0.3761(2)
C19_6 C 0.1983(3) 0.0759(5) 0.4058(2)
C20_6 C 0.1838(4) 0.0422(5) 0.3678(2)
H10_6 H 0.1683 0.0851 0.3476
C32_6 C 0.0119(4) 0.0969(6) 0.5876(2)
H16_6 H 0.0487 0.0619 0.5947
N3_6 N 0.2215(3) 0.0192(4) 0.43499(17)
N4_6 N 0.0218(3) 0.2472(5) 0.3427(2)
S3_6 S 0.14086(9) 0.26525(14) 0.37338(7)
S4_6 S 0.19108(9) 0.20073(14) 0.42046(7)
S5_6 S 0.04213(9) 0.18037(17) 0.65885(6)
C7_6 C 0.4602(3) 0.0356(5) 0.8774(2)
C8_6 C 0.4982(4) 0.0524(6) 0.9114(2)
H4_6 H 0.4828 0.0777 0.9329
C9_7 C 0.5609(4) 0.0309(5) 0.9133(2)
H5_7 H 0.5883 0.0426 0.9363
S2_6 S 0.37928(10) 0.06887(14) 0.87530(8)
C7_7 C 0.5398(3) 0.0356(5) 0.6226(2)
C8_7 C 0.5018(4) 0.0524(6) 0.5886(2)
H4_7 H 0.5172 0.0777 0.5671
C9_8 C 0.4391(4) 0.0309(5) 0.5867(2)
H5_8 H 0.4117 0.0426 0.5637
S2_7 S 0.62072(10) 0.06887(14) 0.62470(8)
C32_7 C 0.0119(4) 0.9031(6) 0.0876(2)
H16_7 H 0.0487 0.9381 0.0947
S5_7 S 0.04213(9) 0.81963(17) 0.15885(6)
C16_7 C 0.0443(3) 0.8086(5) 0.9085(2)
H8_7 H 0.0733 0.8202 0.9308
C17_7 C 0.0620(3) 0.7695(5) 0.8761(2)
C19_7 C 0.1983(3) 0.9241(5) 0.9058(2)
C20_7 C 0.1838(4) 0.9578(5) 0.8678(2)
H10_7 H 0.1683 0.9149 0.8476
N3_7 N 0.2215(3) 0.9808(4) 0.93499(17)
N4_7 N 0.0218(3) 0.7528(5) 0.8427(2)
S3_7 S 0.14086(9) 0.73475(14) 0.87338(7)
S4_7 S 0.19108(9) 0.79927(14) 0.92046(7)
C1_8 C 0.8008(3) 0.0830(5) 0.8783(2)
C2_8 C 0.8094(3) 0.1869(5) 0.86546(18)
C3_8 C 0.8367(3) 0.2564(5) 0.89059(19)
H1_8 H 0.8501 0.2372 0.9163
C4_8 C 0.8262(3) 0.3748(5) 0.8440(2)
C5_8 C 0.7978(3) 0.3110(6) 0.8162(2)
H2_8 H 0.7844 0.3316 0.7907
C6_8 C 0.7900(3) 0.2167(6) 0.8273(2)
H3_8 H 0.7713 0.1713 0.8090
C7_8 C 0.9602(3) 0.5356(5) 0.8774(2)
C8_8 C 0.9982(4) 0.5524(6) 0.9114(2)
H4_8 H 0.9828 0.5777 0.9329
N1_8 N 0.8457(3) 0.3508(4) 0.88132(17)
N2_8 N 0.9788(3) 0.4993(4) 0.84544(19)
O1_8 O 0.7842(2) 0.0196(4) 0.85264(15)
O2_8 O 0.8096(2) 0.0656(4) 0.91433(15)
O13_8 O 0.7616(3) 0.0494(4) 0.98395(15)
O15_8 O 0.6924(2) 0.0343(3) 0.77950(15)
S1_8 S 0.83558(9) 0.49768(15) 0.82771(7)
S2_8 S 0.87928(10) 0.56887(14) 0.87530(8)
H25_8 H 0.66881 0.0736566 0.796464
H26_8 H 0.66357 0.0109588 0.756212
H27_8 H 0.800706 0.0856311 0.993565
C28_8 C 0.9610(3) 0.9719(5) 0.2016(2)
H14_8 H 0.9923 0.9866 0.1871
C29_8 C 0.9461(3) 0.8746(5) 0.2087(2)
C30_8 C 0.8683(3) 0.9244(5) 0.2432(2)
H15_8 H 0.8367 0.9076 0.2572
C31_8 C 0.9942(3) 0.8365(6) 0.1121(2)
C33_8 C 0.9763(4) 0.9196(6) 0.0525(2)
H17_8 H 0.9881 0.9668 0.0356
C34_8 C 0.9218(3) 0.8651(5) 0.0420(2)
C35_8 C 0.9070(4) 0.7953(6) 0.0681(2)
H18_8 H 0.8713 0.7573 0.0615
C36_8 C 0.8775(4) 0.8826(6) 0.0047(2)
N5_8 N 0.9003(3) 0.8511(4) 0.22892(16)
N6_8 N 0.9443(3) 0.7806(5) 0.10384(19)
S6_8 S 0.98194(9) 0.76851(14) 0.19303(5)
H19_8 H 0.713096 0.894381 0.00674024
C16_8 C 0.9557(3) 0.8086(5) 0.5915(2)
H8_8 H 0.9267 0.8202 0.5692
C17_8 C 0.9380(3) 0.7695(5) 0.6239(2)
C19_8 C 0.8017(3) 0.9241(5) 0.5942(2)
C20_8 C 0.8162(4) 0.9578(5) 0.6322(2)
H10_8 H 0.8317 0.9149 0.6524
C32_8 C 0.9881(4) 0.9031(6) 0.4124(2)
H16_8 H 0.9513 0.9381 0.4053
N3_8 N 0.7785(3) 0.9808(4) 0.56501(17)
N4_8 N 0.9782(3) 0.7528(5) 0.6573(2)
S3_8 S 0.85914(9) 0.73475(14) 0.62662(7)
S4_8 S 0.80892(9) 0.79927(14) 0.57954(7)
S5_8 S 0.95787(9) 0.81963(17) 0.34115(6)
loop_
_geom_bond_atom_site_label_1
_geom_bond_atom_site_label_2
_geom_bond_site_symmetry_1
_geom_bond_site_symmetry_2
Er1 O2 1_555 1_555
Er2 O1 1_555 1_555
C1 C2 1_555 1_555
C2 C3 1_555 1_555
C3 H1 1_555 1_555
C4 C5 1_555 1_555
C5 H2 1_555 1_555
C6 C2 1_555 1_555
H3 C6 1_555 1_555
C11 C10 1_555 1_555
H6 C11 1_555 1_555
C12 C10 1_555 1_555
C13 C14 1_555 1_555
C14 C15 1_555 1_555
C15 H7 1_555 1_555
C16 C15 1_555 1_555
H8 C16 1_555 1_555
C17 C16 1_555 1_555
C18 C14 1_555 1_555
H9 C18 1_555 1_555
C19 C20 1_555 1_555
C20 H10 1_555 1_555
C21 C20 1_555 1_555
H11 C21 1_555 1_555
C22 C21 1_555 1_555
C23 C22 1_555 1_555
H12 C23 1_555 1_555
C24 C22 1_555 1_555
N1 C3 1_555 1_555
N3 C19 1_555 1_555
N4 C17 1_555 1_555
O1 C1 1_555 1_555
O2 C1 1_555 1_555
O3 C12 1_555 1_555
O4 C12 1_555 1_555
O5 Er2 1_555 1_555
O6 Er1 1_555 1_555
O7 C24 1_555 1_555
O8 C24 1_555 1_555
O11 Er1 1_555 1_555
O12 Er1 1_555 1_555
O13 Er1 1_555 1_555
O14 Er1 1_555 1_555
O15 Er2 1_555 1_555
O16 Er2 1_555 1_555
O17 Er2 1_555 1_555
S1 C4 1_555 1_555
S3 C17 1_555 1_555
S4 C19 1_555 1_555
Er3 O4 1_555 1_555
Er4 O3 1_555 1_555
O18 Er2 1_555 1_555
O19 Er1 1_555 1_555
O20 Er2 1_555 1_555
O21 Er1 1_555 1_555
O22 Er2 1_555 1_555
C4 N1 1_555 1_555
C5 C6 1_555 1_555
C11 N2 1_555 1_555
C13 O5 1_555 1_555
C13 O6 1_555 1_555
C18 N4 1_555 1_555
C23 N3 1_555 1_555
O7 Er4 1_555 1_555
O8 Er3 1_555 1_555
S3 S4 1_555 1_555
O14 H20 1_555 1_555
O16 H21 1_555 1_555
O16 H22 1_555 1_555
O17 H23 1_555 1_555
O17 H24 1_555 1_555
O15 H25 1_555 1_555
O15 H26 1_555 1_555
O13 H27 1_555 1_555
C25 C26 1_555 1_555
C26 C27 1_555 1_555
C27 H13 1_555 1_555
C28 C27 1_555 1_555
H14 C28 1_555 1_555
C29 C28 1_555 1_555
C30 C26 1_555 1_555
H15 C30 1_555 1_555
C31 C32 1_555 1_555
C32 H16 1_555 1_555
C33 C32 1_555 1_555
H17 C33 1_555 1_555
C34 C33 1_555 1_555
C35 C34 1_555 1_555
H18 C35 1_555 1_555
C36 C34 1_555 1_555
N5 C29 1_555 1_555
N6 C31 1_555 1_555
O9 C25 1_555 1_555
O10 C25 1_555 1_555
S5 C31 1_555 1_555
S6 C29 1_555 1_555
Er5 O10 1_555 1_555
C30 N5 1_555 1_555
C35 N6 1_555 1_555
S5 S6 1_555 1_555
C13_2 C14_2 1_555 1_555
C14_2 C15_2 1_555 1_555
C15_2 H7_2 1_555 1_555
C18_2 C14_2 1_555 1_555
H9_2 C18_2 1_555 1_555
O5_2 Er4 1_555 1_555
O6_2 Er3 1_555 1_555
O11_2 Er3 1_555 1_555
O12_2 Er3 1_555 1_555
O14_2 Er3 1_555 1_555
O16_2 Er4 1_555 1_555
O17_2 Er4 1_555 1_555
O22_2 Er4 1_555 1_555
C13_2 O5_2 1_555 1_555
C13_2 O6_2 1_555 1_555
O14_2 H20_2 1_555 1_555
O16_2 H21_2 1_555 1_555
O16_2 H22_2 1_555 1_555
O17_2 H23_2 1_555 1_555
O17_2 H24_2 1_555 1_555
C25_2 C26_2 1_555 1_555
C26_2 C27_2 1_555 1_555
C27_2 H13_2 1_555 1_555
O9_2 C25_2 1_555 1_555
O10_2 C25_2 1_555 1_555
Er5_2 O10_2 1_555 1_555
H5 C9 1_555 1_555
C10_2 C9 1_555 1_555
C11_2 C10_2 1_555 1_555
H6_2 C11_2 1_555 1_555
C12_2 C10_2 1_555 1_555
H11_2 C21_2 1_555 1_555
C22_2 C21_2 1_555 1_555
C23_2 C22_2 1_555 1_555
H12_2 C23_2 1_555 1_555
C24_2 C22_2 1_555 1_555
O18 C12_2 1_555 1_555
O19 C12_2 1_555 1_555
O20 C24_2 1_555 1_555
O21 C24_2 1_555 1_555
Er1_2 O2_2 1_555 1_555
Er5 O1_2 1_555 1_555
C1_2 C2_2 1_555 1_555
C2_2 C3_2 1_555 1_555
C3_2 H1_2 1_555 1_555
C4_2 C5_2 1_555 1_555
C5_2 H2_2 1_555 1_555
C6_2 C2_2 1_555 1_555
H3_2 C6_2 1_555 1_555
C11_3 C10_3 1_555 1_555
H6_3 C11_3 1_555 1_555
C12_3 C10_3 1_555 1_555
C13_3 C14_3 1_555 1_555
C14_3 C15_3 1_555 1_555
C15_3 H7_3 1_555 1_555
C16_2 C15_3 1_555 1_555
H8_2 C16_2 1_555 1_555
C17_2 C16_2 1_555 1_555
C18_3 C14_3 1_555 1_555
H9_3 C18_3 1_555 1_555
C19_2 C20_2 1_555 1_555
C20_2 H10_2 1_555 1_555
C21_3 C20_2 1_555 1_555
H11_3 C21_3 1_555 1_555
C22_3 C21_3 1_555 1_555
C23_3 C22_3 1_555 1_555
H12_3 C23_3 1_555 1_555
C24_3 C22_3 1_555 1_555
C25_3 C26_3 1_555 1_555
C26_3 C27_3 1_555 1_555
C27_3 H13_3 1_555 1_555
C28_2 C27_3 1_555 1_555
H14_2 C28_2 1_555 1_555
C29_2 C28_2 1_555 1_555
C30_2 C26_3 1_555 1_555
H15_2 C30_2 1_555 1_555
C31_2 C32_2 1_555 1_555
C32_2 H16_2 1_555 1_555
C33_2 C32_2 1_555 1_555
H17_2 C33_2 1_555 1_555
C34_2 C33_2 1_555 1_555
C35_2 C34_2 1_555 1_555
H18_2 C35_2 1_555 1_555
C36_2 C34_2 1_555 1_555
N1_2 C3_2 1_555 1_555
N3_2 C19_2 1_555 1_555
N4_2 C17_2 1_555 1_555
N5_2 C29_2 1_555 1_555
N6_2 C31_2 1_555 1_555
O1_2 C1_2 1_555 1_555
O2_2 C1_2 1_555 1_555
O3_2 C12_3 1_555 1_555
O4_2 C12_3 1_555 1_555
O5_3 Er5 1_555 1_555
O6_3 Er1_2 1_555 1_555
O7_2 C24_3 1_555 1_555
O8_2 C24_3 1_555 1_555
O9_3 C25_3 1_555 1_555
O22 C25_3 1_555 1_555
O11_3 Er1_2 1_555 1_555
O12_3 Er1_2 1_555 1_555
O13_2 Er1_2 1_555 1_555
O14_3 Er1_2 1_555 1_555
O15_2 Er5 1_555 1_555
O16_3 Er5 1_555 1_555
O17_3 Er5 1_555 1_555
S1_2 C4_2 1_555 1_555
S3_2 C17_2 1_555 1_555
S4_2 C19_2 1_555 1_555
S5_2 C31_2 1_555 1_555
S6_2 C29_2 1_555 1_555
Er3_2 O4_2 1_555 1_555
Er5_2 O3_2 1_555 1_555
O18_2 Er5 1_555 1_555
O19_2 Er1_2 1_555 1_555
O20_2 Er5 1_555 1_555
O21_2 Er1_2 1_555 1_555
C4_2 N1_2 1_555 1_555
C5_2 C6_2 1_555 1_555
C11_3 N2_2 1_555 1_555
C13_3 O5_3 1_555 1_555
C13_3 O6_3 1_555 1_555
C18_3 N4_2 1_555 1_555
C23_3 N3_2 1_555 1_555
C30_2 N5_2 1_555 1_555
C35_2 N6_2 1_555 1_555
C36_2 O11_3 1_555 1_555
C36_2 O12_3 1_555 1_555
O7_2 Er5_2 1_555 1_555
O8_2 Er3_2 1_555 1_555
S3_2 S4_2 1_555 1_555
S5_2 S6_2 1_555 1_555
O14_3 H19_2 1_555 1_555
O14_3 H20_3 1_555 1_555
O16_3 H21_3 1_555 1_555
O16_3 H22_3 1_555 1_555
O17_3 H23_3 1_555 1_555
O17_3 H24_3 1_555 1_555
O15_2 H25_2 1_555 1_555
O15_2 H26_2 1_555 1_555
O13_2 H27_2 1_555 1_555
O13_2 H28_3 1_555 1_555
C1_3 C2_3 1_555 1_555
C2_3 C3_3 1_555 1_555
C3_3 H1_3 1_555 1_555
C4_3 C5_3 1_555 1_555
C5_3 H2_3 1_555 1_555
C6_3 C2_3 1_555 1_555
H3_3 C6_3 1_555 1_555
C7 C8 1_555 1_555
C8 H4 1_555 1_555
C25_4 C26_4 1_555 1_555
C26_4 C27_4 1_555 1_555
C27_4 H13_4 1_555 1_555
N1_3 C3_3 1_555 1_555
N2_3 C7 1_555 1_555
O1_3 C1_3 1_555 1_555
O2_3 C1_3 1_555 1_555
O9_4 C25_4 1_555 1_555
O22_2 C25_4 1_555 1_555
S1_3 C4_3 1_555 1_555
S2 C7 1_555 1_555
C4_3 N1_3 1_555 1_555
C5_3 C6_3 1_555 1_555
S1_3 S2 1_555 1_555
O15_3 H25_3 1_555 1_555
O15_3 H26_3 1_555 1_555
O13_3 H27_3 1_555 1_555
O13_3 H28_4 1_555 1_555
C13_4 C14_4 1_555 1_555
C14_4 C15_4 1_555 1_555
C15_4 H7_4 1_555 1_555
C18_4 C14_4 1_555 1_555
H9_4 C18_4 1_555 1_555
H14_3 C28_3 1_555 1_555
C29_3 C28_3 1_555 1_555
H15_3 C30_3 1_555 1_555
H17_3 C33_3 1_555 1_555
C34_3 C33_3 1_555 1_555
C35_3 C34_3 1_555 1_555
H18_3 C35_3 1_555 1_555
C36_3 C34_3 1_555 1_555
N5_3 C29_3 1_555 1_555
N6_3 C31_3 1_555 1_555
O5_4 Er5_2 1_555 1_555
O6_4 Er3_2 1_555 1_555
O11_4 Er3_2 1_555 1_555
O12_4 Er3_2 1_555 1_555
O14_4 Er3_2 1_555 1_555
O16_4 Er5_2 1_555 1_555
O17_4 Er5_2 1_555 1_555
S6_3 C29_3 1_555 1_555
C13_4 O5_4 1_555 1_555
C13_4 O6_4 1_555 1_555
C30_3 N5_3 1_555 1_555
C35_3 N6_3 1_555 1_555
C36_3 O11_4 1_555 1_555
C36_3 O12_4 1_555 1_555
O14_4 H19_3 1_555 1_555
O14_4 H20_4 1_555 1_555
O16_4 H21_4 1_555 1_555
O16_4 H22_4 1_555 1_555
O17_4 H23_4 1_555 1_555
O17_4 H24_4 1_555 1_555
H5_2 C9_2 1_555 1_555
C10_4 C9_2 1_555 1_555
C11_4 C10_4 1_555 1_555
H6_4 C11_4 1_555 1_555
C12_4 C10_4 1_555 1_555
H11_4 C21_4 1_555 1_555
C22_4 C21_4 1_555 1_555
C23_4 C22_4 1_555 1_555
H12_4 C23_4 1_555 1_555
C24_4 C22_4 1_555 1_555
O18_2 C12_4 1_555 1_555
O19_2 C12_4 1_555 1_555
O20_2 C24_4 1_555 1_555
O21_2 C24_4 1_555 1_555
C7_2 C8_2 1_555 1_555
C8_2 H4_2 1_555 1_555
C9_3 C8_2 1_555 1_555
H5_3 C9_3 1_555 1_555
S2_2 C7_2 1_555 1_555
Er1_3 O2_4 1_555 1_555
Er2_2 O1_4 1_555 1_555
C1_4 C2_4 1_555 1_555
C2_4 C3_4 1_555 1_555
C3_4 H1_4 1_555 1_555
C4_4 C5_4 1_555 1_555
C5_4 H2_4 1_555 1_555
C6_4 C2_4 1_555 1_555
H3_4 C6_4 1_555 1_555
C11_5 C10_5 1_555 1_555
H6_5 C11_5 1_555 1_555
C12_5 C10_5 1_555 1_555
C13_5 C14_5 1_555 1_555
C14_5 C15_5 1_555 1_555
C15_5 H7_5 1_555 1_555
C16_3 C15_5 1_555 1_555
H8_3 C16_3 1_555 1_555
C17_3 C16_3 1_555 1_555
C18_5 C14_5 1_555 1_555
H9_5 C18_5 1_555 1_555
C19_3 C20_3 1_555 1_555
C20_3 H10_3 1_555 1_555
C21_5 C20_3 1_555 1_555
H11_5 C21_5 1_555 1_555
C22_5 C21_5 1_555 1_555
C23_5 C22_5 1_555 1_555
H12_5 C23_5 1_555 1_555
C24_5 C22_5 1_555 1_555
C25_5 C26_5 1_555 1_555
C26_5 C27_5 1_555 1_555
C27_5 H13_5 1_555 1_555
C28_4 C27_5 1_555 1_555
H14_4 C28_4 1_555 1_555
C29_4 C28_4 1_555 1_555
C30_4 C26_5 1_555 1_555
H15_4 C30_4 1_555 1_555
C31_4 C32_3 1_555 1_555
C32_3 H16_3 1_555 1_555
C33_4 C32_3 1_555 1_555
H17_4 C33_4 1_555 1_555
C34_4 C33_4 1_555 1_555
C35_4 C34_4 1_555 1_555
H18_4 C35_4 1_555 1_555
C36_4 C34_4 1_555 1_555
N1_4 C3_4 1_555 1_555
N3_3 C19_3 1_555 1_555
N4_3 C17_3 1_555 1_555
N5_4 C29_4 1_555 1_555
N6_4 C31_4 1_555 1_555
O1_4 C1_4 1_555 1_555
O2_4 C1_4 1_555 1_555
O3_3 C12_5 1_555 1_555
O4_3 C12_5 1_555 1_555
O5_5 Er2_2 1_555 1_555
O6_5 Er1_3 1_555 1_555
O7_3 C24_5 1_555 1_555
O8_3 C24_5 1_555 1_555
O9_5 C25_5 1_555 1_555
O10_3 C25_5 1_555 1_555
O11_5 Er1_3 1_555 1_555
O12_5 Er1_3 1_555 1_555
O13_4 Er1_3 1_555 1_555
O14_5 Er1_3 1_555 1_555
O15_4 Er2_2 1_555 1_555
O16_5 Er2_2 1_555 1_555
O17_5 Er2_2 1_555 1_555
S1_4 C4_4 1_555 1_555
S3_3 C17_3 1_555 1_555
S4_3 C19_3 1_555 1_555
S5_3 C31_4 1_555 1_555
S6_4 C29_4 1_555 1_555
Er3_3 O4_3 1_555 1_555
Er4_2 O3_3 1_555 1_555
Er5_3 O10_3 1_555 1_555
O18_3 Er2_2 1_555 1_555
O19_3 Er1_3 1_555 1_555
O20_3 Er2_2 1_555 1_555
O21_3 Er1_3 1_555 1_555
O22_3 Er2_2 1_555 1_555
C4_4 N1_4 1_555 1_555
C5_4 C6_4 1_555 1_555
C11_5 N2_4 1_555 1_555
C13_5 O5_5 1_555 1_555
C13_5 O6_5 1_555 1_555
C18_5 N4_3 1_555 1_555
C23_5 N3_3 1_555 1_555
C30_4 N5_4 1_555 1_555
C35_4 N6_4 1_555 1_555
C36_4 O11_5 1_555 1_555
C36_4 O12_5 1_555 1_555
O7_3 Er4_2 1_555 1_555
O8_3 Er3_3 1_555 1_555
S3_3 S4_3 1_555 1_555
S5_3 S6_4 1_555 1_555
O14_5 H19_4 1_555 1_555
O14_5 H20_5 1_555 1_555
O16_5 H21_5 1_555 1_555
O16_5 H22_5 1_555 1_555
O17_5 H23_5 1_555 1_555
O17_5 H24_5 1_555 1_555
O15_4 H25_4 1_555 1_555
O15_4 H26_4 1_555 1_555
O13_4 H27_4 1_555 1_555
O13_4 H28_5 1_555 1_555
H5_4 C9_4 1_555 1_555
C10_6 C9_4 1_555 1_555
C11_6 C10_6 1_555 1_555
H6_6 C11_6 1_555 1_555
C12_6 C10_6 1_555 1_555
H11_6 C21_6 1_555 1_555
C22_6 C21_6 1_555 1_555
C23_6 C22_6 1_555 1_555
H12_6 C23_6 1_555 1_555
C24_6 C22_6 1_555 1_555
O18_3 C12_6 1_555 1_555
O19_3 C12_6 1_555 1_555
O20_3 C24_6 1_555 1_555
O21_3 C24_6 1_555 1_555
C13_6 C14_6 1_555 1_555
C14_6 C15_6 1_555 1_555
C15_6 H7_6 1_555 1_555
C18_6 C14_6 1_555 1_555
H9_6 C18_6 1_555 1_555
H14_5 C28_5 1_555 1_555
C29_5 C28_5 1_555 1_555
H15_5 C30_5 1_555 1_555
H17_5 C33_5 1_555 1_555
C34_5 C33_5 1_555 1_555
C35_5 C34_5 1_555 1_555
H18_5 C35_5 1_555 1_555
C36_5 C34_5 1_555 1_555
N5_5 C29_5 1_555 1_555
N6_5 C31_5 1_555 1_555
O5_6 Er4_2 1_555 1_555
O6_6 Er3_3 1_555 1_555
O11_6 Er3_3 1_555 1_555
O12_6 Er3_3 1_555 1_555
O14_6 Er3_3 1_555 1_555
O16_6 Er4_2 1_555 1_555
O17_6 Er4_2 1_555 1_555
S6_5 C29_5 1_555 1_555
O22_4 Er4_2 1_555 1_555
C13_6 O5_6 1_555 1_555
C13_6 O6_6 1_555 1_555
C30_5 N5_5 1_555 1_555
C35_5 N6_5 1_555 1_555
C36_5 O11_6 1_555 1_555
C36_5 O12_6 1_555 1_555
O14_6 H19_5 1_555 1_555
O14_6 H20_6 1_555 1_555
O16_6 H21_6 1_555 1_555
O16_6 H22_6 1_555 1_555
O17_6 H23_6 1_555 1_555
O17_6 H24_6 1_555 1_555
C1_5 C2_5 1_555 1_555
C2_5 C3_5 1_555 1_555
C3_5 H1_5 1_555 1_555
C4_5 C5_5 1_555 1_555
C5_5 H2_5 1_555 1_555
C6_5 C2_5 1_555 1_555
H3_5 C6_5 1_555 1_555
C7_3 C8_3 1_555 1_555
C8_3 H4_3 1_555 1_555
C25_6 C26_6 1_555 1_555
C26_6 C27_6 1_555 1_555
C27_6 H13_6 1_555 1_555
N1_5 C3_5 1_555 1_555
N2_5 C7_3 1_555 1_555
O1_5 C1_5 1_555 1_555
O2_5 C1_5 1_555 1_555
O9_6 C25_6 1_555 1_555
O10_4 C25_6 1_555 1_555
S1_5 C4_5 1_555 1_555
S2_3 C7_3 1_555 1_555
Er5_4 O10_4 1_555 1_555
C4_5 N1_5 1_555 1_555
C5_5 C6_5 1_555 1_555
S1_5 S2_3 1_555 1_555
O15_5 H25_5 1_555 1_555
O15_5 H26_5 1_555 1_555
O13_5 H27_5 1_555 1_555
O13_5 H28_6 1_555 1_555
C25_7 C26_7 1_555 1_555
C26_7 C27_7 1_555 1_555
C27_7 H13_7 1_555 1_555
C28_6 C27_7 1_555 1_555
H14_6 C28_6 1_555 1_555
C29_6 C28_6 1_555 1_555
C30_6 C26_7 1_555 1_555
H15_6 C30_6 1_555 1_555
C31_6 C32_4 1_555 1_555
C32_4 H16_4 1_555 1_555
C33_6 C32_4 1_555 1_555
H17_6 C33_6 1_555 1_555
C34_6 C33_6 1_555 1_555
C35_6 C34_6 1_555 1_555
H18_6 C35_6 1_555 1_555
C36_6 C34_6 1_555 1_555
N5_6 C29_6 1_555 1_555
N6_6 C31_6 1_555 1_555
O9_7 C25_7 1_555 1_555
O22_3 C25_7 1_555 1_555
S5_4 C31_6 1_555 1_555
S6_6 C29_6 1_555 1_555
C30_6 N5_6 1_555 1_555
C35_6 N6_6 1_555 1_555
S5_4 S6_6 1_555 1_555
Er1_4 O2_6 1_555 1_555
Er5_3 O1_6 1_555 1_555
C1_6 C2_6 1_555 1_555
C2_6 C3_6 1_555 1_555
C3_6 H1_6 1_555 1_555
C4_6 C5_6 1_555 1_555
C5_6 H2_6 1_555 1_555
C6_6 C2_6 1_555 1_555
H3_6 C6_6 1_555 1_555
C11_7 C10_7 1_555 1_555
H6_7 C11_7 1_555 1_555
C12_7 C10_7 1_555 1_555
C13_7 C14_7 1_555 1_555
C14_7 C15_7 1_555 1_555
C15_7 H7_7 1_555 1_555
C16_4 C15_7 1_555 1_555
H8_4 C16_4 1_555 1_555
C17_4 C16_4 1_555 1_555
C18_7 C14_7 1_555 1_555
H9_7 C18_7 1_555 1_555
C19_4 C20_4 1_555 1_555
C20_4 H10_4 1_555 1_555
C21_7 C20_4 1_555 1_555
H11_7 C21_7 1_555 1_555
C22_7 C21_7 1_555 1_555
C23_7 C22_7 1_555 1_555
H12_7 C23_7 1_555 1_555
C24_7 C22_7 1_555 1_555
N1_6 C3_6 1_555 1_555
N3_4 C19_4 1_555 1_555
N4_4 C17_4 1_555 1_555
O1_6 C1_6 1_555 1_555
O2_6 C1_6 1_555 1_555
O3_4 C12_7 1_555 1_555
O4_4 C12_7 1_555 1_555
O5_7 Er5_3 1_555 1_555
O6_7 Er1_4 1_555 1_555
O7_4 C24_7 1_555 1_555
O8_4 C24_7 1_555 1_555
O11_7 Er1_4 1_555 1_555
O12_7 Er1_4 1_555 1_555
O13_6 Er1_4 1_555 1_555
O14_7 Er1_4 1_555 1_555
O15_6 Er5_3 1_555 1_555
O16_7 Er5_3 1_555 1_555
O17_7 Er5_3 1_555 1_555
S1_6 C4_6 1_555 1_555
S3_4 C17_4 1_555 1_555
S4_4 C19_4 1_555 1_555
Er3_4 O4_4 1_555 1_555
Er5_4 O3_4 1_555 1_555
O18_4 Er5_3 1_555 1_555
O19_4 Er1_4 1_555 1_555
O20_4 Er5_3 1_555 1_555
O21_4 Er1_4 1_555 1_555
C4_6 N1_6 1_555 1_555
C5_6 C6_6 1_555 1_555
C11_7 N2_6 1_555 1_555
C13_7 O5_7 1_555 1_555
C13_7 O6_7 1_555 1_555
C18_7 N4_4 1_555 1_555
C23_7 N3_4 1_555 1_555
O7_4 Er5_4 1_555 1_555
O8_4 Er3_4 1_555 1_555
S3_4 S4_4 1_555 1_555
O14_7 H20_7 1_555 1_555
O16_7 H21_7 1_555 1_555
O16_7 H22_7 1_555 1_555
O17_7 H23_7 1_555 1_555
O17_7 H24_7 1_555 1_555
O15_6 H25_6 1_555 1_555
O15_6 H26_6 1_555 1_555
O13_6 H27_6 1_555 1_555
H5_5 C9_5 1_555 1_555
C10_8 C9_5 1_555 1_555
C11_8 C10_8 1_555 1_555
H6_8 C11_8 1_555 1_555
C12_8 C10_8 1_555 1_555
H11_8 C21_8 1_555 1_555
C22_8 C21_8 1_555 1_555
C23_8 C22_8 1_555 1_555
H12_8 C23_8 1_555 1_555
C24_8 C22_8 1_555 1_555
O18_4 C12_8 1_555 1_555
O19_4 C12_8 1_555 1_555
O20_4 C24_8 1_555 1_555
O21_4 C24_8 1_555 1_555
C25_8 C26_8 1_555 1_555
C26_8 C27_8 1_555 1_555
C27_8 H13_8 1_555 1_555
O9_8 C25_8 1_555 1_555
O22_4 C25_8 1_555 1_555
C13_8 C14_8 1_555 1_555
C14_8 C15_8 1_555 1_555
C15_8 H7_8 1_555 1_555
C18_8 C14_8 1_555 1_555
H9_8 C18_8 1_555 1_555
O5_8 Er5_4 1_555 1_555
O6_8 Er3_4 1_555 1_555
O11_8 Er3_4 1_555 1_555
O12_8 Er3_4 1_555 1_555
O14_8 Er3_4 1_555 1_555
O16_8 Er5_4 1_555 1_555
O17_8 Er5_4 1_555 1_555
C13_8 O5_8 1_555 1_555
C13_8 O6_8 1_555 1_555
O14_8 H20_8 1_555 1_555
O16_8 H21_8 1_555 1_555
O16_8 H22_8 1_555 1_555
O17_8 H23_8 1_555 1_555
O17_8 H24_8 1_555 1_555
C7_4 C8_4 1_555 1_555
C8_4 H4_4 1_555 1_555
C9_6 C8_4 1_555 1_555
H5_6 C9_6 1_555 1_555
S2_4 C7_4 1_555 1_555
H14_7 C28_7 1_555 1_555
C29_7 C28_7 1_555 1_555
H15_7 C30_7 1_555 1_555
H17_7 C33_7 1_555 1_555
C34_7 C33_7 1_555 1_555
C35_7 C34_7 1_555 1_555
H18_7 C35_7 1_555 1_555
C36_7 C34_7 1_555 1_555
N5_7 C29_7 1_555 1_555
N6_7 C31_7 1_555 1_555
S6_7 C29_7 1_555 1_555
C30_7 N5_7 1_555 1_555
C35_7 N6_7 1_555 1_555
C1_7 C2_7 1_555 1_555
C2_7 C3_7 1_555 1_555
C3_7 H1_7 1_555 1_555
C4_7 C5_7 1_555 1_555
C5_7 H2_7 1_555 1_555
C6_7 C2_7 1_555 1_555
H3_7 C6_7 1_555 1_555
C7_5 C8_5 1_555 1_555
C8_5 H4_5 1_555 1_555
N1_7 C3_7 1_555 1_555
N2_7 C7_5 1_555 1_555
O1_7 C1_7 1_555 1_555
O2_7 C1_7 1_555 1_555
S1_7 C4_7 1_555 1_555
S2_5 C7_5 1_555 1_555
C4_7 N1_7 1_555 1_555
C5_7 C6_7 1_555 1_555
S1_7 S2_5 1_555 1_555
O15_7 H25_7 1_555 1_555
O15_7 H26_7 1_555 1_555
O13_7 H27_7 1_555 1_555
H8_5 C16_5 1_555 1_555
C17_5 C16_5 1_555 1_555
C19_5 C20_5 1_555 1_555
C20_5 H10_5 1_555 1_555
N3_5 C19_5 1_555 1_555
N4_5 C17_5 1_555 1_555
S3_5 C17_5 1_555 1_555
S4_5 C19_5 1_555 1_555
S3_5 S4_5 1_555 1_555
C32_5 H16_5 1_555 1_555
H8_6 C16_6 1_555 1_555
C17_6 C16_6 1_555 1_555
C19_6 C20_6 1_555 1_555
C20_6 H10_6 1_555 1_555
C32_6 H16_6 1_555 1_555
N3_6 C19_6 1_555 1_555
N4_6 C17_6 1_555 1_555
S3_6 C17_6 1_555 1_555
S4_6 C19_6 1_555 1_555
S3_6 S4_6 1_555 1_555
C7_6 C8_6 1_555 1_555
C8_6 H4_6 1_555 1_555
C9_7 C8_6 1_555 1_555
H5_7 C9_7 1_555 1_555
S2_6 C7_6 1_555 1_555
C7_7 C8_7 1_555 1_555
C8_7 H4_7 1_555 1_555
C9_8 C8_7 1_555 1_555
H5_8 C9_8 1_555 1_555
S2_7 C7_7 1_555 1_555
C32_7 H16_7 1_555 1_555
H8_7 C16_7 1_555 1_555
C17_7 C16_7 1_555 1_555
C19_7 C20_7 1_555 1_555
C20_7 H10_7 1_555 1_555
N3_7 C19_7 1_555 1_555
N4_7 C17_7 1_555 1_555
S3_7 C17_7 1_555 1_555
S4_7 C19_7 1_555 1_555
S3_7 S4_7 1_555 1_555
C1_8 C2_8 1_555 1_555
C2_8 C3_8 1_555 1_555
C3_8 H1_8 1_555 1_555
C4_8 C5_8 1_555 1_555
C5_8 H2_8 1_555 1_555
C6_8 C2_8 1_555 1_555
H3_8 C6_8 1_555 1_555
C7_8 C8_8 1_555 1_555
C8_8 H4_8 1_555 1_555
N1_8 C3_8 1_555 1_555
N2_8 C7_8 1_555 1_555
O1_8 C1_8 1_555 1_555
O2_8 C1_8 1_555 1_555
S1_8 C4_8 1_555 1_555
S2_8 C7_8 1_555 1_555
C4_8 N1_8 1_555 1_555
C5_8 C6_8 1_555 1_555
S1_8 S2_8 1_555 1_555
O15_8 H25_8 1_555 1_555
O15_8 H26_8 1_555 1_555
O13_8 H27_8 1_555 1_555
H14_8 C28_8 1_555 1_555
C29_8 C28_8 1_555 1_555
H15_8 C30_8 1_555 1_555
H17_8 C33_8 1_555 1_555
C34_8 C33_8 1_555 1_555
C35_8 C34_8 1_555 1_555
H18_8 C35_8 1_555 1_555
C36_8 C34_8 1_555 1_555
N5_8 C29_8 1_555 1_555
N6_8 C31_8 1_555 1_555
S6_8 C29_8 1_555 1_555
C30_8 N5_8 1_555 1_555
C35_8 N6_8 1_555 1_555
H8_8 C16_8 1_555 1_555
C17_8 C16_8 1_555 1_555
C19_8 C20_8 1_555 1_555
C20_8 H10_8 1_555 1_555
C32_8 H16_8 1_555 1_555
N3_8 C19_8 1_555 1_555
N4_8 C17_8 1_555 1_555
S3_8 C17_8 1_555 1_555
S4_8 C19_8 1_555 1_555
S3_8 S4_8 1_555 1_555

#END
