
###############################################################################
#
# This file contains modified crystal structure data generated from the
# MOF subset of the Cambridge Structural Database (CSD) v543 
# hosted by the Cambridge Crystallographic Data Centre (CCDC).
#
# This work is licensed under the Creative Commons
# Attribution-NonCommercial-ShareAlike 4.0 International License.
# To view a copy of this license, visit
# http://creativecommons.org/licenses/by-nc-sa/4.0/
# or send a letter to
# Creative Commons, PO Box 1866, Mountain View, CA 94042, USA.
#
# CIF created using the CSD Python API on 29 September 2022
# The structure has been converted into the P1 space group
# The structure has a 3D framework
# The original CSD entry GAJYUN is in the monoclinic crystal system
# The framework has been calculated to contain at least 10.0% void space
# The void calculation uses a probe of radius 1.32A, grid spacing 0.4
#
###############################################################################

data_GAJYUN
_chemical_formula_moiety         '(C28 H60 Ce4 N4 O22 P4)n'
_symmetry_cell_setting           triclinic
_symmetry_space_group_name_H-M   'P 1'
_symmetry_Int_Tables_number      1
_space_group_name_Hall           'P 1'
loop_
_symmetry_equiv_pos_site_id
_symmetry_equiv_pos_as_xyz
1 x,y,z
_cell_length_a                   5.6906(8)
_cell_length_b                   12.8000(18)
_cell_length_c                   21.550(3)
_cell_angle_alpha                90
_cell_angle_beta                 95.392(2)
_cell_angle_gamma                90
_cell_volume                     1562.75
loop_
_atom_site_label
_atom_site_type_symbol
_atom_site_fract_x
_atom_site_fract_y
_atom_site_fract_z
O1 O 0.3155(13) 0.0183(6) 0.9540(3)
H5 H 0.2654 0.0202 0.8252
Ce2 Ce 0.63155(11) 0.14376(5) 0.96900(3)
Ce1 Ce 0.36845(11) 0.85624(5) 0.03100(3)
O7 O 0.1441(17) 0.6930(8) 0.0360(5)
H3 H 0.2093 0.6573 0.0662
H4 H 0.0004 0.7067 0.0426
O8 O 0.6845(13) 0.9817(6) 0.0460(3)
O9 O 0.1091(13) 0.9522(7) 0.0921(3)
O10 O 0.7014(16) 0.7359(7) 0.0768(4)
O11 O 0.5010(16) 0.8118(8) 0.1451(4)
O3 O 0.8909(13) 0.0478(7) 0.9079(3)
O4 O 0.7014(16) 0.7641(7) 0.5768(4)
O5 O 0.5010(16) 0.6882(8) 0.6451(4)
C3 C 0.937(2) 0.8912(11) 0.6743(5)
H9 H 0.8025 0.9379 0.6713
C4 C 0.852(2) 0.7782(9) 0.6841(5)
H11 H 0.9902 0.7324 0.6839
C5 C 0.767(3) 0.7708(12) 0.7471(6)
H12 H 0.7233 0.6990 0.7547
H13 H 0.6268 0.8135 0.7482
C6 C 0.951(3) 0.8060(11) 0.7992(6)
H14 H 0.8856 0.8009 0.8390
C7 C 0.677(2) 0.7431(9) 0.6330(5)
Ce4 Ce 0.36845(11) 0.64376(5) 0.53100(3)
O3_2 O 0.1091(13) 0.5478(7) 0.5921(3)
O4_2 O 0.2986(16) 0.2641(7) 0.9232(4)
O5_2 O 0.4990(16) 0.1882(8) 0.8549(4)
C3_2 C 0.063(2) 0.3912(11) 0.8257(5)
H9_2 H 0.1975 0.4379 0.8287
C4_2 C 0.148(2) 0.2782(9) 0.8159(5)
H11_2 H 0.0098 0.2324 0.8161
C5_2 C 0.233(3) 0.2708(12) 0.7529(6)
H12_2 H 0.2767 0.1990 0.7453
H13_2 H 0.3732 0.3135 0.7518
C6_2 C 0.049(3) 0.3060(11) 0.7008(6)
H14_2 H 0.1144 0.3009 0.6610
C7_2 C 0.323(2) 0.2431(9) 0.8670(5)
Ce1_2 Ce 0.63155(11) 0.35624(5) 0.46900(3)
P1 P 0.9046(5) 0.4750(2) 0.58404(12)
O1_2 O 0.6845(13) 0.5183(6) 0.5460(3)
O2 O 0.9584(13) 0.3709(6) 0.5550(3)
O6 O 0.4078(15) 0.3055(8) 0.5579(4)
H1 H 0.3514 0.2472 0.5510
H2 H 0.5077 0.3050 0.5911
O7_2 O 0.8559(17) 0.1930(8) 0.4640(5)
H3_2 H 0.7907 0.1573 0.4338
H4_2 H 0.9996 0.2067 0.4574
N1 N 0.9740(15) 0.4155(7) 0.7109(4)
C1 C 0.7971(18) 0.4545(9) 0.6611(5)
H5_2 H 0.7346 0.5202 0.6748
H6 H 0.6673 0.4052 0.6564
C2 C 0.885(3) 0.4262(13) 0.7724(5)
H7 H 0.7424 0.3851 0.7731
H8 H 0.8445 0.4987 0.7788
H10 H 0.9904 0.3951 0.8646
H15 H 0.9121 0.2604 0.6996
O8_2 O 0.3155(13) 0.4817(6) 0.4540(3)
O9_2 O 0.8909(13) 0.4522(7) 0.4079(3)
O10_2 O 0.2986(16) 0.2359(7) 0.4232(4)
O11_2 O 0.4990(16) 0.3118(8) 0.3549(4)
C3_3 C 0.063(2) 0.1088(11) 0.3257(5)
H9_3 H 0.1975 0.0621 0.3287
C4_3 C 0.148(2) 0.2218(9) 0.3159(5)
H11_3 H 0.0098 0.2676 0.3161
C5_3 C 0.233(3) 0.2292(12) 0.2529(6)
H12_3 H 0.2767 0.3010 0.2453
H13_3 H 0.3732 0.1865 0.2518
C6_3 C 0.049(3) 0.1940(11) 0.2008(6)
H14_3 H 0.1144 0.1991 0.1610
C7_3 C 0.323(2) 0.2569(9) 0.3670(5)
O7_3 O 0.8559(17) 0.3070(8) 0.9640(5)
H3_3 H 0.7907 0.3427 0.9338
H4_3 H 0.9996 0.2933 0.9574
H5_3 H 0.7346 0.9798 0.1748
P1_2 P 0.0954(5) 0.5250(2) 0.41596(12)
O2_2 O 0.0416(13) 0.6291(6) 0.4450(3)
O6_2 O 0.5922(15) 0.6945(8) 0.4421(4)
H1_2 H 0.6486 0.7528 0.4490
H2_2 H 0.4923 0.6950 0.4089
O7_4 O 0.1441(17) 0.8070(8) 0.5360(5)
H3_4 H 0.2093 0.8427 0.5662
H4_4 H 0.0004 0.7933 0.5426
N1_2 N 0.0260(15) 0.5845(7) 0.2891(4)
C1_2 C 0.2029(18) 0.5455(9) 0.3389(5)
H5_4 H 0.2654 0.4798 0.3252
H6_2 H 0.3327 0.5948 0.3436
C2_2 C 0.115(3) 0.5738(13) 0.2276(5)
H7_2 H 0.2576 0.6149 0.2269
H8_2 H 0.1555 0.5013 0.2212
H10_2 H 0.0096 0.6049 0.1354
H15_2 H 0.0879 0.7396 0.3004
C3_4 C 0.937(2) 0.6088(11) 0.1743(5)
H9_4 H 0.8025 0.5621 0.1713
C4_4 C 0.852(2) 0.7218(9) 0.1841(5)
H11_4 H 0.9902 0.7676 0.1839
C5_4 C 0.767(3) 0.7292(12) 0.2471(6)
H12_4 H 0.7233 0.8010 0.2547
H13_4 H 0.6268 0.6865 0.2482
C6_4 C 0.951(3) 0.6940(11) 0.2992(6)
H14_4 H 0.8856 0.6991 0.3390
C7_4 C 0.677(2) 0.7569(9) 0.1330(5)
P1_3 P 0.0954(5) 0.9750(2) 0.91596(12)
O2_3 O 0.0416(13) 0.8709(6) 0.9450(3)
O6_3 O 0.5922(15) 0.8055(8) 0.9421(4)
H1_3 H 0.6486 0.7472 0.9490
H2_3 H 0.4923 0.8050 0.9089
N1_3 N 0.0260(15) 0.9155(7) 0.7891(4)
C1_3 C 0.2029(18) 0.9545(9) 0.8389(5)
H6_3 H 0.3327 0.9052 0.8436
C2_3 C 0.115(3) 0.9262(13) 0.7276(5)
H7_3 H 0.2576 0.8851 0.7269
H8_3 H 0.1555 0.9987 0.7212
H10_3 H 0.0096 0.8951 0.6354
H15_3 H 0.0879 0.7604 0.8004
P1_4 P 0.9046(5) 0.0250(2) 0.08404(12)
O2_4 O 0.9584(13) 0.1291(6) 0.0550(3)
O6_4 O 0.4078(15) 0.1945(8) 0.0579(4)
H1_4 H 0.3514 0.2528 0.0510
H2_4 H 0.5077 0.1950 0.0911
N1_4 N 0.9740(15) 0.0845(7) 0.2109(4)
C1_4 C 0.7971(18) 0.0455(9) 0.1611(5)
H6_4 H 0.6673 0.0948 0.1564
C2_4 C 0.885(3) 0.0738(13) 0.2724(5)
H7_4 H 0.7424 0.1149 0.2731
H8_4 H 0.8445 0.0013 0.2788
H10_4 H 0.9904 0.1049 0.3646
H15_4 H 0.9121 0.2396 0.1996
loop_
_geom_bond_atom_site_label_1
_geom_bond_atom_site_label_2
_geom_bond_site_symmetry_1
_geom_bond_site_symmetry_2
O1 Ce2 1_555 1_555
O7 Ce1 1_555 1_555
H3 O7 1_555 1_555
H4 O7 1_555 1_555
O8 Ce1 1_555 1_555
O9 Ce1 1_555 1_555
O10 Ce1 1_555 1_555
O11 Ce1 1_555 1_555
Ce2 O3 1_555 1_555
O4 C7 1_555 1_555
O5 C7 1_555 1_555
H9 C3 1_555 1_555
C4 C3 1_555 1_555
H11 C4 1_555 1_555
C5 C4 1_555 1_555
H12 C5 1_555 1_555
H13 C5 1_555 1_555
H14 C6 1_555 1_555
C7 C4 1_555 1_555
Ce4 O4 1_555 1_555
O5 Ce4 1_555 1_555
C5 C6 1_555 1_555
O4_2 C7_2 1_555 1_555
O5_2 C7_2 1_555 1_555
H9_2 C3_2 1_555 1_555
C4_2 C3_2 1_555 1_555
H11_2 C4_2 1_555 1_555
C5_2 C4_2 1_555 1_555
H12_2 C5_2 1_555 1_555
H13_2 C5_2 1_555 1_555
H14_2 C6_2 1_555 1_555
C7_2 C4_2 1_555 1_555
Ce4 O3_2 1_555 1_555
Ce2 O4_2 1_555 1_555
O5_2 Ce2 1_555 1_555
C5_2 C6_2 1_555 1_555
Ce1_2 O1_2 1_555 1_555
P1 O1_2 1_555 1_555
O1_2 Ce4 1_555 1_555
O2 Ce1_2 1_555 1_555
O6 Ce1_2 1_555 1_555
H1 O6 1_555 1_555
H2 O6 1_555 1_555
O7_2 Ce1_2 1_555 1_555
H3_2 O7_2 1_555 1_555
H4_2 O7_2 1_555 1_555
N1 C1 1_555 1_555
C1 P1 1_555 1_555
H5_2 C1 1_555 1_555
H6 C1 1_555 1_555
C2 N1 1_555 1_555
H7 C2 1_555 1_555
H8 C2 1_555 1_555
Ce4 O8_2 1_555 1_555
O8_2 Ce1_2 1_555 1_555
O9_2 Ce1_2 1_555 1_555
O10_2 Ce1_2 1_555 1_555
O11_2 Ce1_2 1_555 1_555
P1 O2 1_555 1_555
O10_2 C7_3 1_555 1_555
O11_2 C7_3 1_555 1_555
H9_3 C3_3 1_555 1_555
C4_3 C3_3 1_555 1_555
H11_3 C4_3 1_555 1_555
C5_3 C4_3 1_555 1_555
H12_3 C5_3 1_555 1_555
H13_3 C5_3 1_555 1_555
H14_3 C6_3 1_555 1_555
C7_3 C4_3 1_555 1_555
C5_3 C6_3 1_555 1_555
O7_3 Ce2 1_555 1_555
H3_3 O7_3 1_555 1_555
H4_3 O7_3 1_555 1_555
P1_2 O8_2 1_555 1_555
O2_2 Ce4 1_555 1_555
O6_2 Ce4 1_555 1_555
H1_2 O6_2 1_555 1_555
H2_2 O6_2 1_555 1_555
O7_4 Ce4 1_555 1_555
H3_4 O7_4 1_555 1_555
H4_4 O7_4 1_555 1_555
N1_2 C1_2 1_555 1_555
C1_2 P1_2 1_555 1_555
H5_4 C1_2 1_555 1_555
H6_2 C1_2 1_555 1_555
C2_2 N1_2 1_555 1_555
H7_2 C2_2 1_555 1_555
H8_2 C2_2 1_555 1_555
P1_2 O2_2 1_555 1_555
O10 C7_4 1_555 1_555
O11 C7_4 1_555 1_555
H9_4 C3_4 1_555 1_555
C4_4 C3_4 1_555 1_555
H11_4 C4_4 1_555 1_555
C5_4 C4_4 1_555 1_555
H12_4 C5_4 1_555 1_555
H13_4 C5_4 1_555 1_555
H14_4 C6_4 1_555 1_555
C7_4 C4_4 1_555 1_555
C5_4 C6_4 1_555 1_555
H1_3 O6_3 1_555 1_555
H2_3 O6_3 1_555 1_555
N1_3 C1_3 1_555 1_555
C1_3 P1_3 1_555 1_555
H6_3 C1_3 1_555 1_555
C2_3 N1_3 1_555 1_555
H7_3 C2_3 1_555 1_555
H8_3 C2_3 1_555 1_555
P1_3 O2_3 1_555 1_555
H1_4 O6_4 1_555 1_555
H2_4 O6_4 1_555 1_555
N1_4 C1_4 1_555 1_555
C1_4 P1_4 1_555 1_555
H6_4 C1_4 1_555 1_555
C2_4 N1_4 1_555 1_555
H7_4 C2_4 1_555 1_555
H8_4 C2_4 1_555 1_555
P1_4 O2_4 1_555 1_555

#END
