
###############################################################################
#
# This file contains modified crystal structure data generated from the
# MOF subset of the Cambridge Structural Database (CSD) v543 
# hosted by the Cambridge Crystallographic Data Centre (CCDC).
#
# This work is licensed under the Creative Commons
# Attribution-NonCommercial-ShareAlike 4.0 International License.
# To view a copy of this license, visit
# http://creativecommons.org/licenses/by-nc-sa/4.0/
# or send a letter to
# Creative Commons, PO Box 1866, Mountain View, CA 94042, USA.
#
# CIF created using the CSD Python API on 29 September 2022
# The structure has been converted into the P1 space group
# The structure has a 3D framework
# The original CSD entry GAJZEY is in the monoclinic crystal system
# The framework has been calculated to contain at least 10.0% void space
# The void calculation uses a probe of radius 1.32A, grid spacing 0.4
#
###############################################################################

data_GAJZEY
_chemical_formula_moiety         '(C28 H60 N4 Nd4 O22 P4)n'
_symmetry_cell_setting           triclinic
_symmetry_space_group_name_H-M   'P 1'
_symmetry_Int_Tables_number      1
_space_group_name_Hall           'P 1'
loop_
_symmetry_equiv_pos_site_id
_symmetry_equiv_pos_as_xyz
1 x,y,z
_cell_length_a                   5.5871(6)
_cell_length_b                   13.4240(15)
_cell_length_c                   21.157(2)
_cell_angle_alpha                90
_cell_angle_beta                 96.1480(10)
_cell_angle_gamma                90
_cell_volume                     1577.67
loop_
_atom_site_label
_atom_site_type_symbol
_atom_site_fract_x
_atom_site_fract_y
_atom_site_fract_z
O1 O 0.3142(7) 0.0174(3) 0.95352(19)
H5 H 0.2353 0.0255 0.8201
H8 H 0.1106 0.0032 0.7136
Nd2 Nd 0.62854(5) 0.13445(2) 0.971510(14)
Nd1 Nd 0.37146(5) 0.86555(2) 0.028490(14)
O7 O 0.1402(9) 0.7106(4) 0.0344(3)
H3 H 0.2055 0.6749 0.0647
O8 O 0.6858(7) 0.9826(3) 0.04648(19)
O9 O 0.1227(8) 0.9524(3) 0.0919(2)
O10 O 0.7008(8) 0.7444(4) 0.0706(2)
O11 O 0.5052(9) 0.8151(4) 0.1421(2)
O3 O 0.8773(8) 0.0476(3) 0.9081(2)
O4 O 0.7008(8) 0.7556(4) 0.5706(2)
O5 O 0.5052(9) 0.6849(4) 0.6421(2)
C3 C 0.9061(14) 0.8920(5) 0.6696(3)
H9 H 0.9665 0.9009 0.6287
H10 H 0.7569 0.9290 0.6691
C4 C 0.8560(12) 0.7812(5) 0.6796(3)
C5 C 0.7832(15) 0.7672(6) 0.7463(3)
H12 H 0.7638 0.6967 0.7544
H13 H 0.6295 0.7995 0.7492
C6 C 0.9717(15) 0.8109(5) 0.7968(3)
H14 H 0.9193 0.8017 0.8387
C7 C 0.6740(12) 0.7391(5) 0.6283(3)
Nd4 Nd 0.37146(5) 0.63445(2) 0.528490(14)
O3_2 O 0.1227(8) 0.5476(3) 0.5919(2)
O4_2 O 0.2992(8) 0.2556(4) 0.9294(2)
O5_2 O 0.4948(9) 0.1849(4) 0.8579(2)
H4 H 0.0035 0.2243 0.4589
C3_2 C 0.0939(14) 0.3920(5) 0.8304(3)
H9_2 H 0.0335 0.4009 0.8713
H10_2 H 0.2431 0.4290 0.8309
C4_2 C 0.1440(12) 0.2812(5) 0.8204(3)
C5_2 C 0.2168(15) 0.2672(6) 0.7537(3)
H12_2 H 0.2362 0.1967 0.7456
H13_2 H 0.3705 0.2995 0.7508
C6_2 C 0.0283(15) 0.3109(5) 0.7032(3)
H14_2 H 0.0807 0.3017 0.6613
C7_2 C 0.3260(12) 0.2391(5) 0.8717(3)
Nd1_2 Nd 0.62854(5) 0.36555(2) 0.471510(14)
P1 P 0.9122(3) 0.47693(11) 0.58680(7)
O1_2 O 0.6858(7) 0.5174(3) 0.54648(19)
O2 O 0.9632(8) 0.3767(3) 0.5574(2)
O6 O 0.4216(8) 0.3123(4) 0.5637(2)
H1 H 0.3652 0.2541 0.5568
H2 H 0.5214 0.3119 0.5969
O7_2 O 0.8598(9) 0.2106(4) 0.4656(3)
H3_2 H 0.7945 0.1749 0.4353
N1 N 0.9942(9) 0.4188(4) 0.7151(2)
C1 C 0.8149(11) 0.4611(5) 0.6653(3)
H5_2 H 0.7647 0.5255 0.6799
H6 H 0.6743 0.4182 0.6615
C2 C 0.9132(13) 0.4328(6) 0.7790(3)
H7 H 0.7601 0.3994 0.7806
H8_2 H 0.8894 0.5032 0.7864
H11 H 0.9924 0.2452 0.8225
H15 H 0.8765 0.2762 0.7043
O8_2 O 0.3142(7) 0.4826(3) 0.45352(19)
O9_2 O 0.8773(8) 0.4524(3) 0.4081(2)
O10_2 O 0.2992(8) 0.2444(4) 0.4294(2)
O11_2 O 0.4948(9) 0.3151(4) 0.3579(2)
C3_3 C 0.0939(14) 0.1080(5) 0.3304(3)
H9_3 H 0.0335 0.0991 0.3713
H10_3 H 0.2431 0.0710 0.3309
C4_3 C 0.1440(12) 0.2188(5) 0.3204(3)
C5_3 C 0.2168(15) 0.2328(6) 0.2537(3)
H12_3 H 0.2362 0.3033 0.2456
H13_3 H 0.3705 0.2005 0.2508
C6_3 C 0.0283(15) 0.1891(5) 0.2032(3)
H14_3 H 0.0807 0.1983 0.1613
C7_3 C 0.3260(12) 0.2609(5) 0.3717(3)
O7_3 O 0.8598(9) 0.2894(4) 0.9656(3)
H3_3 H 0.7945 0.3251 0.9353
H5_3 H 0.7647 0.9745 0.1799
H8_3 H 0.8894 0.9968 0.2864
P1_2 P 0.0878(3) 0.52307(11) 0.41320(7)
O2_2 O 0.0368(8) 0.6233(3) 0.4426(2)
O6_2 O 0.5784(8) 0.6877(4) 0.4363(2)
H1_2 H 0.6348 0.7459 0.4432
H2_2 H 0.4786 0.6881 0.4031
O7_4 O 0.1402(9) 0.7894(4) 0.5344(3)
H3_4 H 0.2055 0.8251 0.5647
N1_2 N 0.0058(9) 0.5812(4) 0.2849(2)
C1_2 C 0.1851(11) 0.5389(5) 0.3347(3)
H5_4 H 0.2353 0.4745 0.3201
H6_2 H 0.3257 0.5818 0.3385
C2_2 C 0.0868(13) 0.5672(6) 0.2210(3)
H7_2 H 0.2399 0.6006 0.2194
H8_4 H 0.1106 0.4968 0.2136
H11_2 H 0.0076 0.7548 0.1775
H15_2 H 0.1235 0.7238 0.2957
H4_2 H 0.9965 0.7757 0.5411
C3_4 C 0.9061(14) 0.6080(5) 0.1696(3)
H9_4 H 0.9665 0.5991 0.1287
H10_4 H 0.7569 0.5710 0.1691
C4_4 C 0.8560(12) 0.7188(5) 0.1796(3)
C5_4 C 0.7832(15) 0.7328(6) 0.2463(3)
H12_4 H 0.7638 0.8033 0.2544
H13_4 H 0.6295 0.7005 0.2492
C6_4 C 0.9717(15) 0.6891(5) 0.2968(3)
H14_4 H 0.9193 0.6983 0.3387
C7_4 C 0.6740(12) 0.7609(5) 0.1283(3)
P1_3 P 0.0878(3) 0.97693(11) 0.91320(7)
O2_3 O 0.0368(8) 0.8767(3) 0.9426(2)
O6_3 O 0.5784(8) 0.8123(4) 0.9363(2)
H1_3 H 0.6348 0.7541 0.9432
H2_3 H 0.4786 0.8119 0.9031
N1_3 N 0.0058(9) 0.9188(4) 0.7849(2)
C1_3 C 0.1851(11) 0.9611(5) 0.8347(3)
H6_3 H 0.3257 0.9182 0.8385
C2_3 C 0.0868(13) 0.9328(6) 0.7210(3)
H7_3 H 0.2399 0.8994 0.7194
H11_3 H 0.0076 0.7452 0.6775
H15_3 H 0.1235 0.7762 0.7957
H4_3 H 0.9965 0.7243 0.0411
H4_4 H 0.0035 0.2757 0.9589
P1_4 P 0.9122(3) 0.02307(11) 0.08680(7)
O2_4 O 0.9632(8) 0.1233(3) 0.0574(2)
O6_4 O 0.4216(8) 0.1877(4) 0.0637(2)
H1_4 H 0.3652 0.2459 0.0568
H2_4 H 0.5214 0.1881 0.0969
N1_4 N 0.9942(9) 0.0812(4) 0.2151(2)
C1_4 C 0.8149(11) 0.0389(5) 0.1653(3)
H6_4 H 0.6743 0.0818 0.1615
C2_4 C 0.9132(13) 0.0672(6) 0.2790(3)
H7_4 H 0.7601 0.1006 0.2806
H11_4 H 0.9924 0.2548 0.3225
H15_4 H 0.8765 0.2238 0.2043
loop_
_geom_bond_atom_site_label_1
_geom_bond_atom_site_label_2
_geom_bond_site_symmetry_1
_geom_bond_site_symmetry_2
O1 Nd2 1_555 1_555
O7 Nd1 1_555 1_555
H3 O7 1_555 1_555
O8 Nd1 1_555 1_555
O9 Nd1 1_555 1_555
O10 Nd1 1_555 1_555
O11 Nd1 1_555 1_555
Nd2 O3 1_555 1_555
O4 C7 1_555 1_555
O5 C7 1_555 1_555
H9 C3 1_555 1_555
H10 C3 1_555 1_555
C4 C3 1_555 1_555
C5 C4 1_555 1_555
H12 C5 1_555 1_555
H13 C5 1_555 1_555
H14 C6 1_555 1_555
C7 C4 1_555 1_555
Nd4 O4 1_555 1_555
O5 Nd4 1_555 1_555
C5 C6 1_555 1_555
O4_2 C7_2 1_555 1_555
O5_2 C7_2 1_555 1_555
H9_2 C3_2 1_555 1_555
H10_2 C3_2 1_555 1_555
C4_2 C3_2 1_555 1_555
C5_2 C4_2 1_555 1_555
H12_2 C5_2 1_555 1_555
H13_2 C5_2 1_555 1_555
H14_2 C6_2 1_555 1_555
C7_2 C4_2 1_555 1_555
Nd4 O3_2 1_555 1_555
Nd2 O4_2 1_555 1_555
O5_2 Nd2 1_555 1_555
C5_2 C6_2 1_555 1_555
Nd1_2 O1_2 1_555 1_555
P1 O1_2 1_555 1_555
O1_2 Nd4 1_555 1_555
O2 Nd1_2 1_555 1_555
O6 Nd1_2 1_555 1_555
H1 O6 1_555 1_555
H2 O6 1_555 1_555
O7_2 Nd1_2 1_555 1_555
H3_2 O7_2 1_555 1_555
N1 C1 1_555 1_555
C1 P1 1_555 1_555
H5_2 C1 1_555 1_555
H6 C1 1_555 1_555
C2 N1 1_555 1_555
H7 C2 1_555 1_555
H8_2 C2 1_555 1_555
Nd4 O8_2 1_555 1_555
O8_2 Nd1_2 1_555 1_555
O9_2 Nd1_2 1_555 1_555
O10_2 Nd1_2 1_555 1_555
O11_2 Nd1_2 1_555 1_555
P1 O2 1_555 1_555
O10_2 C7_3 1_555 1_555
O11_2 C7_3 1_555 1_555
H9_3 C3_3 1_555 1_555
H10_3 C3_3 1_555 1_555
C4_3 C3_3 1_555 1_555
C5_3 C4_3 1_555 1_555
H12_3 C5_3 1_555 1_555
H13_3 C5_3 1_555 1_555
H14_3 C6_3 1_555 1_555
C7_3 C4_3 1_555 1_555
C5_3 C6_3 1_555 1_555
O7_3 Nd2 1_555 1_555
H3_3 O7_3 1_555 1_555
P1_2 O8_2 1_555 1_555
O2_2 Nd4 1_555 1_555
O6_2 Nd4 1_555 1_555
H1_2 O6_2 1_555 1_555
H2_2 O6_2 1_555 1_555
O7_4 Nd4 1_555 1_555
H3_4 O7_4 1_555 1_555
N1_2 C1_2 1_555 1_555
C1_2 P1_2 1_555 1_555
H5_4 C1_2 1_555 1_555
H6_2 C1_2 1_555 1_555
C2_2 N1_2 1_555 1_555
H7_2 C2_2 1_555 1_555
H8_4 C2_2 1_555 1_555
P1_2 O2_2 1_555 1_555
O10 C7_4 1_555 1_555
O11 C7_4 1_555 1_555
H9_4 C3_4 1_555 1_555
H10_4 C3_4 1_555 1_555
C4_4 C3_4 1_555 1_555
C5_4 C4_4 1_555 1_555
H12_4 C5_4 1_555 1_555
H13_4 C5_4 1_555 1_555
H14_4 C6_4 1_555 1_555
C7_4 C4_4 1_555 1_555
C5_4 C6_4 1_555 1_555
H1_3 O6_3 1_555 1_555
H2_3 O6_3 1_555 1_555
N1_3 C1_3 1_555 1_555
C1_3 P1_3 1_555 1_555
H6_3 C1_3 1_555 1_555
C2_3 N1_3 1_555 1_555
H7_3 C2_3 1_555 1_555
P1_3 O2_3 1_555 1_555
H1_4 O6_4 1_555 1_555
H2_4 O6_4 1_555 1_555
N1_4 C1_4 1_555 1_555
C1_4 P1_4 1_555 1_555
H6_4 C1_4 1_555 1_555
C2_4 N1_4 1_555 1_555
H7_4 C2_4 1_555 1_555
P1_4 O2_4 1_555 1_555

#END
