
###############################################################################
#
# This file contains modified crystal structure data generated from the
# MOF subset of the Cambridge Structural Database (CSD) v543 
# hosted by the Cambridge Crystallographic Data Centre (CCDC).
#
# This work is licensed under the Creative Commons
# Attribution-NonCommercial-ShareAlike 4.0 International License.
# To view a copy of this license, visit
# http://creativecommons.org/licenses/by-nc-sa/4.0/
# or send a letter to
# Creative Commons, PO Box 1866, Mountain View, CA 94042, USA.
#
# CIF created using the CSD Python API on 29 September 2022
# The structure has been converted into the P1 space group
# The structure has a 3D framework
# The original CSD entry GAJZUO is in the monoclinic crystal system
# The framework has been calculated to contain at least 10.0% void space
# The void calculation uses a probe of radius 1.32A, grid spacing 0.4
#
###############################################################################

data_GAJZUO
_chemical_formula_moiety         '(C28 H60 N4 O22 P4 Y4)n'
_symmetry_cell_setting           triclinic
_symmetry_space_group_name_H-M   'P 1'
_symmetry_Int_Tables_number      1
_space_group_name_Hall           'P 1'
loop_
_symmetry_equiv_pos_site_id
_symmetry_equiv_pos_as_xyz
1 x,y,z
_cell_length_a                   5.5234(10)
_cell_length_b                   13.349(2)
_cell_length_c                   20.586(4)
_cell_angle_alpha                90
_cell_angle_beta                 95.290(2)
_cell_angle_gamma                90
_cell_volume                     1511.38
loop_
_atom_site_label
_atom_site_type_symbol
_atom_site_fract_x
_atom_site_fract_y
_atom_site_fract_z
O1 O 0.3202(9) 0.0201(4) 0.9545(2)
H5 H 0.2348 0.0282 0.8174
H8 H 0.1160 0.0010 0.7089
Y2 Y 0.62640(12) 0.13175(5) 0.97210(3)
Y1 Y 0.37360(12) 0.86825(5) 0.02790(3)
O7 O 0.1594(11) 0.7192(5) 0.0352(3)
H3 H 0.2247 0.6835 0.0655
H4 H 0.0158 0.7329 0.0419
O8 O 0.6798(9) 0.9799(4) 0.0455(2)
O9 O 0.1226(10) 0.9504(4) 0.0907(3)
O10 O 0.6973(10) 0.7488(4) 0.0658(3)
O11 O 0.5049(11) 0.8210(5) 0.1406(3)
O3 O 0.8774(10) 0.0496(4) 0.9093(3)
O4 O 0.6973(10) 0.7512(4) 0.5658(3)
O5 O 0.5049(11) 0.6790(5) 0.6406(3)
C3 C 0.9033(17) 0.8893(6) 0.6651(4)
H9 H 0.9617 0.8979 0.6225
H10 H 0.7526 0.9265 0.6658
C4 C 0.8558(15) 0.7784(6) 0.6768(4)
C5 C 0.7843(17) 0.7640(7) 0.7453(4)
H12 H 0.7698 0.6929 0.7539
H13 H 0.6265 0.7944 0.7487
C6 C 0.9672(17) 0.8096(6) 0.7960(4)
H14 H 0.9093 0.8018 0.8388
C7 C 0.6721(15) 0.7338(6) 0.6251(4)
Y4 Y 0.37360(12) 0.63175(5) 0.52790(3)
O3_2 O 0.1226(10) 0.5496(4) 0.5907(3)
O4_2 O 0.3027(10) 0.2512(4) 0.9342(3)
O5_2 O 0.4951(11) 0.1790(5) 0.8594(3)
C3_2 C 0.0967(17) 0.3893(6) 0.8349(4)
H9_2 H 0.0383 0.3979 0.8775
H10_2 H 0.2474 0.4265 0.8342
C4_2 C 0.1442(15) 0.2784(6) 0.8232(4)
C5_2 C 0.2157(17) 0.2640(7) 0.7547(4)
H12_2 H 0.2302 0.1929 0.7461
H13_2 H 0.3735 0.2944 0.7513
C6_2 C 0.0328(17) 0.3096(6) 0.7040(4)
H14_2 H 0.0907 0.3018 0.6612
C7_2 C 0.3279(15) 0.2338(6) 0.8749(4)
Y1_2 Y 0.62640(12) 0.36825(5) 0.47210(3)
P1 P 0.9084(3) 0.47953(14) 0.58510(9)
O1_2 O 0.6798(9) 0.5201(4) 0.5455(2)
O2 O 0.9575(9) 0.3781(4) 0.5541(3)
O6 O 0.4292(10) 0.3203(4) 0.5643(3)
H1 H 0.3728 0.2621 0.5574
H2 H 0.5291 0.3199 0.5976
O7_2 O 0.8406(11) 0.2192(5) 0.4648(3)
H3_2 H 0.7753 0.1835 0.4345
H4_2 H 0.9842 0.2329 0.4581
N1 N 0.9915(12) 0.4175(5) 0.7164(3)
C1 C 0.8111(13) 0.4631(6) 0.6666(3)
H5_2 H 0.7652 0.5282 0.6826
H6 H 0.6664 0.4216 0.6632
C2 C 0.9100(16) 0.4304(7) 0.7830(4)
H7 H 0.7566 0.3959 0.7854
H8_2 H 0.8840 0.5010 0.7911
H11 H 0.9902 0.2429 0.8260
H15 H 0.8798 0.2739 0.7040
O8_2 O 0.3202(9) 0.4799(4) 0.4545(2)
O9_2 O 0.8774(10) 0.4504(4) 0.4093(3)
O10_2 O 0.3027(10) 0.2488(4) 0.4342(3)
O11_2 O 0.4951(11) 0.3210(5) 0.3594(3)
C3_3 C 0.0967(17) 0.1107(6) 0.3349(4)
H9_3 H 0.0383 0.1021 0.3775
H10_3 H 0.2474 0.0735 0.3342
C4_3 C 0.1442(15) 0.2216(6) 0.3232(4)
C5_3 C 0.2157(17) 0.2360(7) 0.2547(4)
H12_3 H 0.2302 0.3071 0.2461
H13_3 H 0.3735 0.2056 0.2513
C6_3 C 0.0328(17) 0.1904(6) 0.2040(4)
H14_3 H 0.0907 0.1982 0.1612
C7_3 C 0.3279(15) 0.2662(6) 0.3749(4)
O7_3 O 0.8406(11) 0.2808(5) 0.9648(3)
H3_3 H 0.7753 0.3165 0.9345
H4_3 H 0.9842 0.2671 0.9581
H5_3 H 0.7652 0.9718 0.1826
H8_3 H 0.8840 0.9990 0.2911
P1_2 P 0.0916(3) 0.52047(14) 0.41490(9)
O2_2 O 0.0425(9) 0.6219(4) 0.4459(3)
O6_2 O 0.5708(10) 0.6797(4) 0.4357(3)
H1_2 H 0.6272 0.7379 0.4426
H2_2 H 0.4709 0.6801 0.4024
O7_4 O 0.1594(11) 0.7808(5) 0.5352(3)
H3_4 H 0.2247 0.8165 0.5655
H4_4 H 0.0158 0.7671 0.5419
N1_2 N 0.0085(12) 0.5825(5) 0.2836(3)
C1_2 C 0.1889(13) 0.5369(6) 0.3334(3)
H5_4 H 0.2348 0.4718 0.3174
H6_2 H 0.3336 0.5784 0.3368
C2_2 C 0.0900(16) 0.5696(7) 0.2170(4)
H7_2 H 0.2434 0.6041 0.2146
H8_4 H 0.1160 0.4990 0.2089
H11_2 H 0.0098 0.7571 0.1740
H15_2 H 0.1202 0.7261 0.2960
C3_4 C 0.9033(17) 0.6107(6) 0.1651(4)
H9_4 H 0.9617 0.6021 0.1225
H10_4 H 0.7526 0.5735 0.1658
C4_4 C 0.8558(15) 0.7216(6) 0.1768(4)
C5_4 C 0.7843(17) 0.7360(7) 0.2453(4)
H12_4 H 0.7698 0.8071 0.2539
H13_4 H 0.6265 0.7056 0.2487
C6_4 C 0.9672(17) 0.6904(6) 0.2960(4)
H14_4 H 0.9093 0.6982 0.3388
C7_4 C 0.6721(15) 0.7662(6) 0.1251(4)
P1_3 P 0.0916(3) 0.97953(14) 0.91490(9)
O2_3 O 0.0425(9) 0.8781(4) 0.9459(3)
O6_3 O 0.5708(10) 0.8203(4) 0.9357(3)
H1_3 H 0.6272 0.7621 0.9426
H2_3 H 0.4709 0.8199 0.9024
N1_3 N 0.0085(12) 0.9175(5) 0.7836(3)
C1_3 C 0.1889(13) 0.9631(6) 0.8334(3)
H6_3 H 0.3336 0.9216 0.8368
C2_3 C 0.0900(16) 0.9304(7) 0.7170(4)
H7_3 H 0.2434 0.8959 0.7146
H11_3 H 0.0098 0.7429 0.6740
H15_3 H 0.1202 0.7739 0.7960
P1_4 P 0.9084(3) 0.02047(14) 0.08510(9)
O2_4 O 0.9575(9) 0.1219(4) 0.0541(3)
O6_4 O 0.4292(10) 0.1797(4) 0.0643(3)
H1_4 H 0.3728 0.2379 0.0574
H2_4 H 0.5291 0.1801 0.0976
N1_4 N 0.9915(12) 0.0825(5) 0.2164(3)
C1_4 C 0.8111(13) 0.0369(6) 0.1666(3)
H6_4 H 0.6664 0.0784 0.1632
C2_4 C 0.9100(16) 0.0696(7) 0.2830(4)
H7_4 H 0.7566 0.1041 0.2854
H11_4 H 0.9902 0.2571 0.3260
H15_4 H 0.8798 0.2261 0.2040
loop_
_geom_bond_atom_site_label_1
_geom_bond_atom_site_label_2
_geom_bond_site_symmetry_1
_geom_bond_site_symmetry_2
O1 Y2 1_555 1_555
O7 Y1 1_555 1_555
H3 O7 1_555 1_555
H4 O7 1_555 1_555
O8 Y1 1_555 1_555
O9 Y1 1_555 1_555
O10 Y1 1_555 1_555
O11 Y1 1_555 1_555
Y2 O3 1_555 1_555
O4 C7 1_555 1_555
O5 C7 1_555 1_555
H9 C3 1_555 1_555
H10 C3 1_555 1_555
C4 C3 1_555 1_555
C5 C4 1_555 1_555
H12 C5 1_555 1_555
H13 C5 1_555 1_555
H14 C6 1_555 1_555
C7 C4 1_555 1_555
Y4 O4 1_555 1_555
O5 Y4 1_555 1_555
C5 C6 1_555 1_555
O4_2 C7_2 1_555 1_555
O5_2 C7_2 1_555 1_555
H9_2 C3_2 1_555 1_555
H10_2 C3_2 1_555 1_555
C4_2 C3_2 1_555 1_555
C5_2 C4_2 1_555 1_555
H12_2 C5_2 1_555 1_555
H13_2 C5_2 1_555 1_555
H14_2 C6_2 1_555 1_555
C7_2 C4_2 1_555 1_555
Y4 O3_2 1_555 1_555
Y2 O4_2 1_555 1_555
O5_2 Y2 1_555 1_555
C5_2 C6_2 1_555 1_555
Y1_2 O1_2 1_555 1_555
P1 O1_2 1_555 1_555
O1_2 Y4 1_555 1_555
O2 Y1_2 1_555 1_555
O6 Y1_2 1_555 1_555
H1 O6 1_555 1_555
H2 O6 1_555 1_555
O7_2 Y1_2 1_555 1_555
H3_2 O7_2 1_555 1_555
H4_2 O7_2 1_555 1_555
N1 C1 1_555 1_555
C1 P1 1_555 1_555
H5_2 C1 1_555 1_555
H6 C1 1_555 1_555
C2 N1 1_555 1_555
H7 C2 1_555 1_555
H8_2 C2 1_555 1_555
Y4 O8_2 1_555 1_555
O8_2 Y1_2 1_555 1_555
O9_2 Y1_2 1_555 1_555
O10_2 Y1_2 1_555 1_555
O11_2 Y1_2 1_555 1_555
P1 O2 1_555 1_555
O10_2 C7_3 1_555 1_555
O11_2 C7_3 1_555 1_555
H9_3 C3_3 1_555 1_555
H10_3 C3_3 1_555 1_555
C4_3 C3_3 1_555 1_555
C5_3 C4_3 1_555 1_555
H12_3 C5_3 1_555 1_555
H13_3 C5_3 1_555 1_555
H14_3 C6_3 1_555 1_555
C7_3 C4_3 1_555 1_555
C5_3 C6_3 1_555 1_555
O7_3 Y2 1_555 1_555
H3_3 O7_3 1_555 1_555
H4_3 O7_3 1_555 1_555
P1_2 O8_2 1_555 1_555
O2_2 Y4 1_555 1_555
O6_2 Y4 1_555 1_555
H1_2 O6_2 1_555 1_555
H2_2 O6_2 1_555 1_555
O7_4 Y4 1_555 1_555
H3_4 O7_4 1_555 1_555
H4_4 O7_4 1_555 1_555
N1_2 C1_2 1_555 1_555
C1_2 P1_2 1_555 1_555
H5_4 C1_2 1_555 1_555
H6_2 C1_2 1_555 1_555
C2_2 N1_2 1_555 1_555
H7_2 C2_2 1_555 1_555
H8_4 C2_2 1_555 1_555
P1_2 O2_2 1_555 1_555
O10 C7_4 1_555 1_555
O11 C7_4 1_555 1_555
H9_4 C3_4 1_555 1_555
H10_4 C3_4 1_555 1_555
C4_4 C3_4 1_555 1_555
C5_4 C4_4 1_555 1_555
H12_4 C5_4 1_555 1_555
H13_4 C5_4 1_555 1_555
H14_4 C6_4 1_555 1_555
C7_4 C4_4 1_555 1_555
C5_4 C6_4 1_555 1_555
H1_3 O6_3 1_555 1_555
H2_3 O6_3 1_555 1_555
N1_3 C1_3 1_555 1_555
C1_3 P1_3 1_555 1_555
H6_3 C1_3 1_555 1_555
C2_3 N1_3 1_555 1_555
H7_3 C2_3 1_555 1_555
P1_3 O2_3 1_555 1_555
H1_4 O6_4 1_555 1_555
H2_4 O6_4 1_555 1_555
N1_4 C1_4 1_555 1_555
C1_4 P1_4 1_555 1_555
H6_4 C1_4 1_555 1_555
C2_4 N1_4 1_555 1_555
H7_4 C2_4 1_555 1_555
P1_4 O2_4 1_555 1_555

#END
