
###############################################################################
#
# This file contains modified crystal structure data generated from the
# MOF subset of the Cambridge Structural Database (CSD) v543 
# hosted by the Cambridge Crystallographic Data Centre (CCDC).
#
# This work is licensed under the Creative Commons
# Attribution-NonCommercial-ShareAlike 4.0 International License.
# To view a copy of this license, visit
# http://creativecommons.org/licenses/by-nc-sa/4.0/
# or send a letter to
# Creative Commons, PO Box 1866, Mountain View, CA 94042, USA.
#
# CIF created using the CSD Python API on 29 September 2022
# The structure has been converted into the P1 space group
# The structure has a 3D framework
# The original CSD entry GAJZOI is in the monoclinic crystal system
# The framework has been calculated to contain at least 10.0% void space
# The void calculation uses a probe of radius 1.32A, grid spacing 0.4
#
###############################################################################

data_GAJZOI
_chemical_formula_moiety         '(C28 H60 Gd4 N4 O22 P4)n'
_symmetry_cell_setting           triclinic
_symmetry_space_group_name_H-M   'P 1'
_symmetry_Int_Tables_number      1
_space_group_name_Hall           'P 1'
loop_
_symmetry_equiv_pos_site_id
_symmetry_equiv_pos_as_xyz
1 x,y,z
_cell_length_a                   5.534(1)
_cell_length_b                   13.436(3)
_cell_length_c                   20.891(4)
_cell_angle_alpha                90
_cell_angle_beta                 96.159(3)
_cell_angle_gamma                90
_cell_volume                     1544.38
loop_
_atom_site_label
_atom_site_type_symbol
_atom_site_fract_x
_atom_site_fract_y
_atom_site_fract_z
O1 O 0.3179(15) 0.0187(6) 0.9544(4)
H5 H 0.2293 0.0262 0.8185
H8 H 0.0941 0.0051 0.7118
Gd2 Gd 0.62624(11) 0.13165(4) 0.97231(3)
Gd1 Gd 0.37376(11) 0.86835(4) 0.02769(3)
O7 O 0.1489(17) 0.7174(6) 0.0342(4)
H3 H 0.2142 0.6817 0.0644
H4 H 0.0053 0.7311 0.0408
O8 O 0.6821(15) 0.9813(6) 0.0456(4)
O9 O 0.1273(15) 0.9536(6) 0.0903(4)
O10 O 0.7024(17) 0.7478(7) 0.0669(4)
O11 O 0.5019(17) 0.8169(7) 0.1403(4)
O3 O 0.8727(15) 0.0464(6) 0.9097(4)
O4 O 0.7024(17) 0.7522(7) 0.5669(4)
O5 O 0.5019(17) 0.6831(7) 0.6403(4)
N1 N 0.9979(19) 0.9201(7) 0.7835(4)
C3 C 0.902(3) 0.8917(10) 0.6682(6)
H9 H 0.9637 0.9019 0.6269
H10 H 0.7485 0.9268 0.6673
C4 C 0.858(2) 0.7805(8) 0.6773(5)
C5 C 0.789(3) 0.7666(10) 0.7443(6)
H12 H 0.7731 0.6960 0.7526
H13 H 0.6316 0.7973 0.7472
C6 C 0.974(3) 0.8117(10) 0.7959(6)
H14 H 0.9210 0.8014 0.8382
C7 C 0.678(2) 0.7360(9) 0.6253(6)
Gd4 Gd 0.37376(11) 0.63165(4) 0.52769(3)
O3_2 O 0.1273(15) 0.5464(6) 0.5903(4)
O4_2 O 0.2976(17) 0.2522(7) 0.9331(4)
O5_2 O 0.4981(17) 0.1831(7) 0.8597(4)
N1_2 N 0.0021(19) 0.4201(7) 0.7165(4)
C3_2 C 0.098(3) 0.3917(10) 0.8318(6)
H9_2 H 0.0363 0.4019 0.8731
H10_2 H 0.2515 0.4268 0.8327
C4_2 C 0.142(2) 0.2805(8) 0.8227(5)
C5_2 C 0.211(3) 0.2666(10) 0.7557(6)
H12_2 H 0.2269 0.1960 0.7474
H13_2 H 0.3684 0.2973 0.7528
C6_2 C 0.026(3) 0.3117(10) 0.7041(6)
H14_2 H 0.0790 0.3014 0.6618
C7_2 C 0.322(2) 0.2360(9) 0.8747(6)
Gd1_2 Gd 0.62624(11) 0.36835(4) 0.47231(3)
P1 P 0.9136(6) 0.4777(2) 0.58645(14)
O1_2 O 0.6821(15) 0.5187(6) 0.5456(4)
O2 O 0.9592(14) 0.3776(6) 0.5573(3)
O6 O 0.4256(15) 0.3167(6) 0.5644(4)
H1 H 0.3692 0.2584 0.5575
H2 H 0.5255 0.3162 0.5976
O7_2 O 0.8511(17) 0.2174(6) 0.4658(4)
H3_2 H 0.7858 0.1817 0.4356
H4_2 H 0.9947 0.2311 0.4592
C1 C 0.821(2) 0.4618(9) 0.6667(5)
H5_2 H 0.7707 0.5262 0.6815
H6 H 0.6791 0.4189 0.6633
C2 C 0.924(3) 0.4344(11) 0.7804(5)
H7 H 0.7663 0.4034 0.7818
H8_2 H 0.9059 0.5051 0.7882
H11 H 0.9868 0.2465 0.8248
H15 H 0.8695 0.2793 0.7050
O8_2 O 0.3179(15) 0.4813(6) 0.4544(4)
O9_2 O 0.8727(15) 0.4536(6) 0.4097(4)
O10_2 O 0.2976(17) 0.2478(7) 0.4331(4)
O11_2 O 0.4981(17) 0.3169(7) 0.3597(4)
N1_3 N 0.0021(19) 0.0799(7) 0.2165(4)
C3_3 C 0.098(3) 0.1083(10) 0.3318(6)
H9_3 H 0.0363 0.0981 0.3731
H10_3 H 0.2515 0.0732 0.3327
C4_3 C 0.142(2) 0.2195(8) 0.3227(5)
C5_3 C 0.211(3) 0.2334(10) 0.2557(6)
H12_3 H 0.2269 0.3040 0.2474
H13_3 H 0.3684 0.2027 0.2528
C6_3 C 0.026(3) 0.1883(10) 0.2041(6)
H14_3 H 0.0790 0.1986 0.1618
C7_3 C 0.322(2) 0.2640(9) 0.3747(6)
O7_3 O 0.8511(17) 0.2826(6) 0.9658(4)
H3_3 H 0.7858 0.3183 0.9356
H4_3 H 0.9947 0.2689 0.9592
H5_3 H 0.7707 0.9738 0.1815
H8_3 H 0.9059 0.9949 0.2882
P1_2 P 0.0864(6) 0.5223(2) 0.41355(14)
O2_2 O 0.0408(14) 0.6224(6) 0.4427(3)
O6_2 O 0.5744(15) 0.6833(6) 0.4356(4)
H1_2 H 0.6308 0.7416 0.4425
H2_2 H 0.4745 0.6838 0.4024
O7_4 O 0.1489(17) 0.7826(6) 0.5342(4)
H3_4 H 0.2142 0.8183 0.5644
H4_4 H 0.0053 0.7689 0.5408
C1_2 C 0.179(2) 0.5382(9) 0.3333(5)
H5_4 H 0.2293 0.4738 0.3185
H6_2 H 0.3209 0.5811 0.3367
C2_2 C 0.076(3) 0.5656(11) 0.2196(5)
H7_2 H 0.2337 0.5966 0.2182
H8_4 H 0.0941 0.4949 0.2118
H11_2 H 0.0132 0.7535 0.1752
H15_2 H 0.1305 0.7207 0.2950
N1_4 N 0.9979(19) 0.5799(7) 0.2835(4)
C3_4 C 0.902(3) 0.6083(10) 0.1682(6)
H9_4 H 0.9637 0.5981 0.1269
H10_4 H 0.7485 0.5732 0.1673
C4_4 C 0.858(2) 0.7195(8) 0.1773(5)
C5_4 C 0.789(3) 0.7334(10) 0.2443(6)
H12_4 H 0.7731 0.8040 0.2526
H13_4 H 0.6316 0.7027 0.2472
C6_4 C 0.974(3) 0.6883(10) 0.2959(6)
H14_4 H 0.9210 0.6986 0.3382
C7_4 C 0.678(2) 0.7640(9) 0.1253(6)
P1_3 P 0.0864(6) 0.9777(2) 0.91355(14)
O2_3 O 0.0408(14) 0.8776(6) 0.9427(3)
O6_3 O 0.5744(15) 0.8167(6) 0.9356(4)
H1_3 H 0.6308 0.7584 0.9425
H2_3 H 0.4745 0.8162 0.9024
C1_3 C 0.179(2) 0.9618(9) 0.8333(5)
H6_3 H 0.3209 0.9189 0.8367
C2_3 C 0.076(3) 0.9344(11) 0.7196(5)
H7_3 H 0.2337 0.9034 0.7182
H11_3 H 0.0132 0.7465 0.6752
H15_3 H 0.1305 0.7793 0.7950
P1_4 P 0.9136(6) 0.0223(2) 0.08645(14)
O2_4 O 0.9592(14) 0.1224(6) 0.0573(3)
O6_4 O 0.4256(15) 0.1833(6) 0.0644(4)
H1_4 H 0.3692 0.2416 0.0575
H2_4 H 0.5255 0.1838 0.0976
C1_4 C 0.821(2) 0.0382(9) 0.1667(5)
H6_4 H 0.6791 0.0811 0.1633
C2_4 C 0.924(3) 0.0656(11) 0.2804(5)
H7_4 H 0.7663 0.0966 0.2818
H11_4 H 0.9868 0.2535 0.3248
H15_4 H 0.8695 0.2207 0.2050
loop_
_geom_bond_atom_site_label_1
_geom_bond_atom_site_label_2
_geom_bond_site_symmetry_1
_geom_bond_site_symmetry_2
O1 Gd2 1_555 1_555
O7 Gd1 1_555 1_555
H3 O7 1_555 1_555
H4 O7 1_555 1_555
O8 Gd1 1_555 1_555
O9 Gd1 1_555 1_555
O10 Gd1 1_555 1_555
O11 Gd1 1_555 1_555
Gd2 O3 1_555 1_555
O4 C7 1_555 1_555
O5 C7 1_555 1_555
H9 C3 1_555 1_555
H10 C3 1_555 1_555
C4 C3 1_555 1_555
C5 C4 1_555 1_555
H12 C5 1_555 1_555
H13 C5 1_555 1_555
C6 N1 1_555 1_555
H14 C6 1_555 1_555
C7 C4 1_555 1_555
Gd4 O4 1_555 1_555
O5 Gd4 1_555 1_555
C5 C6 1_555 1_555
O4_2 C7_2 1_555 1_555
O5_2 C7_2 1_555 1_555
H9_2 C3_2 1_555 1_555
H10_2 C3_2 1_555 1_555
C4_2 C3_2 1_555 1_555
C5_2 C4_2 1_555 1_555
H12_2 C5_2 1_555 1_555
H13_2 C5_2 1_555 1_555
C6_2 N1_2 1_555 1_555
H14_2 C6_2 1_555 1_555
C7_2 C4_2 1_555 1_555
Gd4 O3_2 1_555 1_555
Gd2 O4_2 1_555 1_555
O5_2 Gd2 1_555 1_555
C5_2 C6_2 1_555 1_555
Gd1_2 O1_2 1_555 1_555
P1 O1_2 1_555 1_555
O1_2 Gd4 1_555 1_555
O2 Gd1_2 1_555 1_555
O6 Gd1_2 1_555 1_555
H1 O6 1_555 1_555
H2 O6 1_555 1_555
O7_2 Gd1_2 1_555 1_555
H3_2 O7_2 1_555 1_555
H4_2 O7_2 1_555 1_555
C1 P1 1_555 1_555
H5_2 C1 1_555 1_555
H6 C1 1_555 1_555
H7 C2 1_555 1_555
H8_2 C2 1_555 1_555
Gd4 O8_2 1_555 1_555
O8_2 Gd1_2 1_555 1_555
O9_2 Gd1_2 1_555 1_555
O10_2 Gd1_2 1_555 1_555
O11_2 Gd1_2 1_555 1_555
P1 O2 1_555 1_555
O10_2 C7_3 1_555 1_555
O11_2 C7_3 1_555 1_555
H9_3 C3_3 1_555 1_555
H10_3 C3_3 1_555 1_555
C4_3 C3_3 1_555 1_555
C5_3 C4_3 1_555 1_555
H12_3 C5_3 1_555 1_555
H13_3 C5_3 1_555 1_555
C6_3 N1_3 1_555 1_555
H14_3 C6_3 1_555 1_555
C7_3 C4_3 1_555 1_555
C5_3 C6_3 1_555 1_555
O7_3 Gd2 1_555 1_555
H3_3 O7_3 1_555 1_555
H4_3 O7_3 1_555 1_555
P1_2 O8_2 1_555 1_555
O2_2 Gd4 1_555 1_555
O6_2 Gd4 1_555 1_555
H1_2 O6_2 1_555 1_555
H2_2 O6_2 1_555 1_555
O7_4 Gd4 1_555 1_555
H3_4 O7_4 1_555 1_555
H4_4 O7_4 1_555 1_555
C1_2 P1_2 1_555 1_555
H5_4 C1_2 1_555 1_555
H6_2 C1_2 1_555 1_555
H7_2 C2_2 1_555 1_555
H8_4 C2_2 1_555 1_555
P1_2 O2_2 1_555 1_555
O10 C7_4 1_555 1_555
O11 C7_4 1_555 1_555
H9_4 C3_4 1_555 1_555
H10_4 C3_4 1_555 1_555
C4_4 C3_4 1_555 1_555
C5_4 C4_4 1_555 1_555
H12_4 C5_4 1_555 1_555
H13_4 C5_4 1_555 1_555
C6_4 N1_4 1_555 1_555
H14_4 C6_4 1_555 1_555
C7_4 C4_4 1_555 1_555
C5_4 C6_4 1_555 1_555
H1_3 O6_3 1_555 1_555
H2_3 O6_3 1_555 1_555
C1_3 P1_3 1_555 1_555
H6_3 C1_3 1_555 1_555
H7_3 C2_3 1_555 1_555
P1_3 O2_3 1_555 1_555
H1_4 O6_4 1_555 1_555
H2_4 O6_4 1_555 1_555
C1_4 P1_4 1_555 1_555
H6_4 C1_4 1_555 1_555
H7_4 C2_4 1_555 1_555
P1_4 O2_4 1_555 1_555

#END
