
###############################################################################
#
# This file contains modified crystal structure data generated from the
# MOF subset of the Cambridge Structural Database (CSD) v543 
# hosted by the Cambridge Crystallographic Data Centre (CCDC).
#
# This work is licensed under the Creative Commons
# Attribution-NonCommercial-ShareAlike 4.0 International License.
# To view a copy of this license, visit
# http://creativecommons.org/licenses/by-nc-sa/4.0/
# or send a letter to
# Creative Commons, PO Box 1866, Mountain View, CA 94042, USA.
#
# CIF created using the CSD Python API on 29 September 2022
# The structure has been converted into the P1 space group
# The structure has a 3D framework
# The original CSD entry GAJZIC is in the monoclinic crystal system
# The framework has been calculated to contain at least 10.0% void space
# The void calculation uses a probe of radius 1.32A, grid spacing 0.4
#
###############################################################################

data_GAJZIC
_chemical_formula_moiety         '(C28 H60 N4 O22 P4 Sm4)n'
_symmetry_cell_setting           triclinic
_symmetry_space_group_name_H-M   'P 1'
_symmetry_Int_Tables_number      1
_space_group_name_Hall           'P 1'
loop_
_symmetry_equiv_pos_site_id
_symmetry_equiv_pos_as_xyz
1 x,y,z
_cell_length_a                   5.5462(10)
_cell_length_b                   13.343(3)
_cell_length_c                   21.164(4)
_cell_angle_alpha                90
_cell_angle_beta                 96.516(3)
_cell_angle_gamma                90
_cell_volume                     1556.08
loop_
_atom_site_label
_atom_site_type_symbol
_atom_site_fract_x
_atom_site_fract_y
_atom_site_fract_z
O1 O 0.3135(17) 0.0171(8) 0.9551(4)
H5 H 0.2282 0.0279 0.8197
H8 H 0.0935 0.0087 0.7145
Sm2 Sm 0.62667(14) 0.13256(6) 0.97225(4)
Sm1 Sm 0.37333(14) 0.86744(6) 0.02775(4)
O7 O 0.138(2) 0.7119(8) 0.0337(6)
H3 H 0.2030 0.6762 0.0640
O8 O 0.6865(17) 0.9829(8) 0.0449(4)
O9 O 0.1282(19) 0.9539(8) 0.0898(5)
O10 O 0.704(2) 0.7435(10) 0.0690(5)
O11 O 0.502(2) 0.8145(10) 0.1397(5)
O3 O 0.8718(19) 0.0461(8) 0.9102(5)
O4 O 0.704(2) 0.7565(10) 0.5690(5)
O5 O 0.502(2) 0.6855(10) 0.6397(5)
C3 C 0.908(3) 0.8957(12) 0.6704(8)
H9 H 0.9720 0.9068 0.6302
H10 H 0.7553 0.9319 0.6689
C4 C 0.857(3) 0.7832(13) 0.6772(7)
C5 C 0.791(3) 0.7639(15) 0.7445(8)
H12 H 0.7900 0.6922 0.7521
H13 H 0.6284 0.7889 0.7476
C6 C 0.970(3) 0.8145(13) 0.7964(8)
H14 H 0.9097 0.8060 0.8374
C7 C 0.677(3) 0.7382(13) 0.6262(8)
Sm4 Sm 0.37333(14) 0.63256(6) 0.52775(4)
O3_2 O 0.1282(19) 0.5461(8) 0.5898(5)
O4_2 O 0.296(2) 0.2565(10) 0.9310(5)
O5_2 O 0.498(2) 0.1855(10) 0.8603(5)
H4 H 0.0060 0.2256 0.4596
C3_2 C 0.092(3) 0.3957(12) 0.8296(8)
H9_2 H 0.0280 0.4068 0.8698
H10_2 H 0.2447 0.4319 0.8311
C4_2 C 0.143(3) 0.2832(13) 0.8228(7)
C5_2 C 0.209(3) 0.2639(15) 0.7555(8)
H12_2 H 0.2100 0.1922 0.7479
H13_2 H 0.3716 0.2889 0.7524
C6_2 C 0.030(3) 0.3145(13) 0.7036(8)
H14_2 H 0.0903 0.3060 0.6626
C7_2 C 0.323(3) 0.2382(13) 0.8738(8)
Sm1_2 Sm 0.62667(14) 0.36744(6) 0.47225(4)
P1 P 0.9159(7) 0.4767(3) 0.58711(19)
O1_2 O 0.6865(17) 0.5171(8) 0.5449(4)
O2 O 0.9626(18) 0.3761(8) 0.5581(5)
O6 O 0.428(2) 0.3109(10) 0.5630(5)
H1 H 0.3713 0.2527 0.5561
H2 H 0.5275 0.3105 0.5963
O7_2 O 0.862(2) 0.2119(8) 0.4663(6)
H3_2 H 0.7970 0.1762 0.4360
N1 N 0.996(2) 0.4214(10) 0.7148(6)
C1 C 0.820(3) 0.4626(12) 0.6661(7)
H5_2 H 0.7718 0.5279 0.6803
H6 H 0.6777 0.4200 0.6626
C2 C 0.923(3) 0.4373(14) 0.7785(7)
H7 H 0.7646 0.4070 0.7802
H8_2 H 0.9065 0.5087 0.7855
H11 H 0.9888 0.2488 0.8257
H15 H 0.8742 0.2811 0.7017
O8_2 O 0.3135(17) 0.4829(8) 0.4551(4)
O9_2 O 0.8718(19) 0.4539(8) 0.4102(5)
O10_2 O 0.296(2) 0.2435(10) 0.4310(5)
O11_2 O 0.498(2) 0.3145(10) 0.3603(5)
C3_3 C 0.092(3) 0.1043(12) 0.3296(8)
H9_3 H 0.0280 0.0932 0.3698
H10_3 H 0.2447 0.0681 0.3311
C4_3 C 0.143(3) 0.2168(13) 0.3228(7)
C5_3 C 0.209(3) 0.2361(15) 0.2555(8)
H12_3 H 0.2100 0.3078 0.2479
H13_3 H 0.3716 0.2111 0.2524
C6_3 C 0.030(3) 0.1855(13) 0.2036(8)
H14_3 H 0.0903 0.1940 0.1626
C7_3 C 0.323(3) 0.2618(13) 0.3738(8)
O7_3 O 0.862(2) 0.2881(8) 0.9663(6)
H3_3 H 0.7970 0.3238 0.9360
H5_3 H 0.7718 0.9721 0.1803
H8_3 H 0.9065 0.9913 0.2855
P1_2 P 0.0841(7) 0.5233(3) 0.41289(19)
O2_2 O 0.0374(18) 0.6239(8) 0.4419(5)
O6_2 O 0.572(2) 0.6891(10) 0.4370(5)
H1_2 H 0.6287 0.7473 0.4439
H2_2 H 0.4725 0.6895 0.4037
O7_4 O 0.138(2) 0.7881(8) 0.5337(6)
H3_4 H 0.2030 0.8238 0.5640
N1_2 N 0.004(2) 0.5786(10) 0.2852(6)
C1_2 C 0.180(3) 0.5374(12) 0.3339(7)
H5_4 H 0.2282 0.4721 0.3197
H6_2 H 0.3223 0.5800 0.3374
C2_2 C 0.077(3) 0.5627(14) 0.2215(7)
H7_2 H 0.2354 0.5930 0.2198
H8_4 H 0.0935 0.4913 0.2145
H11_2 H 0.0112 0.7512 0.1743
H15_2 H 0.1258 0.7189 0.2983
H4_2 H 0.9940 0.7744 0.5404
C3_4 C 0.908(3) 0.6043(12) 0.1704(8)
H9_4 H 0.9720 0.5932 0.1302
H10_4 H 0.7553 0.5681 0.1689
C4_4 C 0.857(3) 0.7168(13) 0.1772(7)
C5_4 C 0.791(3) 0.7361(15) 0.2445(8)
H12_4 H 0.7900 0.8078 0.2521
H13_4 H 0.6284 0.7111 0.2476
C6_4 C 0.970(3) 0.6855(13) 0.2964(8)
H14_4 H 0.9097 0.6940 0.3374
C7_4 C 0.677(3) 0.7618(13) 0.1262(8)
P1_3 P 0.0841(7) 0.9767(3) 0.91289(19)
O2_3 O 0.0374(18) 0.8761(8) 0.9419(5)
O6_3 O 0.572(2) 0.8109(10) 0.9370(5)
H1_3 H 0.6287 0.7527 0.9439
H2_3 H 0.4725 0.8105 0.9037
N1_3 N 0.004(2) 0.9214(10) 0.7852(6)
C1_3 C 0.180(3) 0.9626(12) 0.8339(7)
H6_3 H 0.3223 0.9200 0.8374
C2_3 C 0.077(3) 0.9373(14) 0.7215(7)
H7_3 H 0.2354 0.9070 0.7198
H11_3 H 0.0112 0.7488 0.6743
H15_3 H 0.1258 0.7811 0.7983
H4_3 H 0.9940 0.7256 0.0404
H4_4 H 0.0060 0.2744 0.9596
P1_4 P 0.9159(7) 0.0233(3) 0.08711(19)
O2_4 O 0.9626(18) 0.1239(8) 0.0581(5)
O6_4 O 0.428(2) 0.1891(10) 0.0630(5)
H1_4 H 0.3713 0.2473 0.0561
H2_4 H 0.5275 0.1895 0.0963
N1_4 N 0.996(2) 0.0786(10) 0.2148(6)
C1_4 C 0.820(3) 0.0374(12) 0.1661(7)
H6_4 H 0.6777 0.0800 0.1626
C2_4 C 0.923(3) 0.0627(14) 0.2785(7)
H7_4 H 0.7646 0.0930 0.2802
H11_4 H 0.9888 0.2512 0.3257
H15_4 H 0.8742 0.2189 0.2017
loop_
_geom_bond_atom_site_label_1
_geom_bond_atom_site_label_2
_geom_bond_site_symmetry_1
_geom_bond_site_symmetry_2
O1 Sm2 1_555 1_555
O7 Sm1 1_555 1_555
H3 O7 1_555 1_555
O8 Sm1 1_555 1_555
O9 Sm1 1_555 1_555
O10 Sm1 1_555 1_555
O11 Sm1 1_555 1_555
Sm2 O3 1_555 1_555
O4 C7 1_555 1_555
O5 C7 1_555 1_555
H9 C3 1_555 1_555
H10 C3 1_555 1_555
C4 C3 1_555 1_555
C5 C4 1_555 1_555
H12 C5 1_555 1_555
H13 C5 1_555 1_555
H14 C6 1_555 1_555
C7 C4 1_555 1_555
Sm4 O4 1_555 1_555
O5 Sm4 1_555 1_555
C5 C6 1_555 1_555
O4_2 C7_2 1_555 1_555
O5_2 C7_2 1_555 1_555
H9_2 C3_2 1_555 1_555
H10_2 C3_2 1_555 1_555
C4_2 C3_2 1_555 1_555
C5_2 C4_2 1_555 1_555
H12_2 C5_2 1_555 1_555
H13_2 C5_2 1_555 1_555
H14_2 C6_2 1_555 1_555
C7_2 C4_2 1_555 1_555
Sm4 O3_2 1_555 1_555
Sm2 O4_2 1_555 1_555
O5_2 Sm2 1_555 1_555
C5_2 C6_2 1_555 1_555
Sm1_2 O1_2 1_555 1_555
P1 O1_2 1_555 1_555
O1_2 Sm4 1_555 1_555
O2 Sm1_2 1_555 1_555
O6 Sm1_2 1_555 1_555
H1 O6 1_555 1_555
H2 O6 1_555 1_555
O7_2 Sm1_2 1_555 1_555
H3_2 O7_2 1_555 1_555
N1 C1 1_555 1_555
C1 P1 1_555 1_555
H5_2 C1 1_555 1_555
H6 C1 1_555 1_555
C2 N1 1_555 1_555
H7 C2 1_555 1_555
H8_2 C2 1_555 1_555
Sm4 O8_2 1_555 1_555
O8_2 Sm1_2 1_555 1_555
O9_2 Sm1_2 1_555 1_555
O10_2 Sm1_2 1_555 1_555
O11_2 Sm1_2 1_555 1_555
P1 O2 1_555 1_555
O10_2 C7_3 1_555 1_555
O11_2 C7_3 1_555 1_555
H9_3 C3_3 1_555 1_555
H10_3 C3_3 1_555 1_555
C4_3 C3_3 1_555 1_555
C5_3 C4_3 1_555 1_555
H12_3 C5_3 1_555 1_555
H13_3 C5_3 1_555 1_555
H14_3 C6_3 1_555 1_555
C7_3 C4_3 1_555 1_555
C5_3 C6_3 1_555 1_555
O7_3 Sm2 1_555 1_555
H3_3 O7_3 1_555 1_555
P1_2 O8_2 1_555 1_555
O2_2 Sm4 1_555 1_555
O6_2 Sm4 1_555 1_555
H1_2 O6_2 1_555 1_555
H2_2 O6_2 1_555 1_555
O7_4 Sm4 1_555 1_555
H3_4 O7_4 1_555 1_555
N1_2 C1_2 1_555 1_555
C1_2 P1_2 1_555 1_555
H5_4 C1_2 1_555 1_555
H6_2 C1_2 1_555 1_555
C2_2 N1_2 1_555 1_555
H7_2 C2_2 1_555 1_555
H8_4 C2_2 1_555 1_555
P1_2 O2_2 1_555 1_555
O10 C7_4 1_555 1_555
O11 C7_4 1_555 1_555
H9_4 C3_4 1_555 1_555
H10_4 C3_4 1_555 1_555
C4_4 C3_4 1_555 1_555
C5_4 C4_4 1_555 1_555
H12_4 C5_4 1_555 1_555
H13_4 C5_4 1_555 1_555
H14_4 C6_4 1_555 1_555
C7_4 C4_4 1_555 1_555
C5_4 C6_4 1_555 1_555
H1_3 O6_3 1_555 1_555
H2_3 O6_3 1_555 1_555
N1_3 C1_3 1_555 1_555
C1_3 P1_3 1_555 1_555
H6_3 C1_3 1_555 1_555
C2_3 N1_3 1_555 1_555
H7_3 C2_3 1_555 1_555
P1_3 O2_3 1_555 1_555
H1_4 O6_4 1_555 1_555
H2_4 O6_4 1_555 1_555
N1_4 C1_4 1_555 1_555
C1_4 P1_4 1_555 1_555
H6_4 C1_4 1_555 1_555
C2_4 N1_4 1_555 1_555
H7_4 C2_4 1_555 1_555
P1_4 O2_4 1_555 1_555

#END
