
###############################################################################
#
# This file contains modified crystal structure data generated from the
# MOF subset of the Cambridge Structural Database (CSD) v543 
# hosted by the Cambridge Crystallographic Data Centre (CCDC).
#
# This work is licensed under the Creative Commons
# Attribution-NonCommercial-ShareAlike 4.0 International License.
# To view a copy of this license, visit
# http://creativecommons.org/licenses/by-nc-sa/4.0/
# or send a letter to
# Creative Commons, PO Box 1866, Mountain View, CA 94042, USA.
#
# CIF created using the CSD Python API on 29 September 2022
# The structure has been converted into the P1 space group
# The structure has a 3D framework
# The original CSD entry GAJZEA is in the orthorhombic crystal system
# The original CSD entry GAJZEA is in a Sohncke space group
# The framework has been calculated to contain at least 10.0% void space
# The void calculation uses a probe of radius 1.32A, grid spacing 0.4
#
###############################################################################

data_GAJZEA
_chemical_formula_moiety         '(C200 H136 N48 Ni7 O17)n'
_symmetry_cell_setting           triclinic
_symmetry_space_group_name_H-M   'P 1'
_symmetry_Int_Tables_number      1
_space_group_name_Hall           'P 1'
loop_
_symmetry_equiv_pos_site_id
_symmetry_equiv_pos_as_xyz
1 x,y,z
_cell_length_a                   21.3732(8)
_cell_length_b                   21.6856(8)
_cell_length_c                   22.0379(8)
_cell_angle_alpha                90
_cell_angle_beta                 90
_cell_angle_gamma                90
_cell_volume                     10214.4
loop_
_atom_site_label
_atom_site_type_symbol
_atom_site_fract_x
_atom_site_fract_y
_atom_site_fract_z
Ni1 Ni 0.542171(12) 0.569975(11) 0.389939(12)
Ni2 Ni 0.549842(12) 0.411240(11) 0.385428(12)
O1 O 0.59231(5) 0.49267(5) 0.38027(5)
O2 O 0.46365(7) 0.53673(7) 0.34800(7)
O5 O 0.47920(7) 0.43705(7) 0.32821(7)
N2 N 0.50291(8) 0.32690(8) 0.39157(9)
N3 N 0.12403(9) 0.11413(8) 0.55724(8)
N4 N 0.29512(9) 0.11291(10) 0.39204(10)
N5 N 0.51496(8) 0.14891(8) 0.10064(8)
N6 N 0.42186(8) 0.09663(8) 0.19435(8)
N7 N 0.59517(8) 0.38515(8) 0.30488(8)
C1 C 0.43862(11) 0.12412(11) 0.29736(10)
H1 H 0.4672 0.1348 0.3287
C2 C 0.46964(11) 0.30684(11) 0.34355(10)
H2 H 0.4760 0.3263 0.3054
C3 C 0.62725(12) 0.31063(11) 0.23054(11)
H3 H 0.6332 0.2686 0.2199
C4 C 0.42698(11) 0.25960(11) 0.34700(10)
H4 H 0.4045 0.2466 0.3121
C5 C 0.06043(11) 0.51573(12) 0.03581(10)
N8 N 0.32823(11) 0.18363(11) 0.45750(10)
N9 N 0.69247(10) 0.29440(10) 0.04211(9)
C6 C 0.45983(11) 0.11191(10) 0.24034(9)
H5 H 0.5035 0.1143 0.2328
C7 C 0.38876(11) 0.48488(12) 0.28905(10)
N10 N 0.71066(11) 0.37506(11) 0.10116(10)
C8 C 0.08476(14) 0.57220(14) 0.05474(14)
H6 H 0.0702 0.6096 0.0372
C9 C 0.60627(11) 0.32597(11) 0.28694(11)
H7 H 0.5990 0.2937 0.3153
C10 C 0.37416(11) 0.12087(10) 0.30957(10)
N11 N 0.22819(12) 0.47673(12) 0.18128(12)
C11 C 0.63994(11) 0.35742(11) 0.18831(10)
C12 C 0.44896(10) 0.48646(11) 0.32500(9)
C13 C 0.36115(11) 0.09086(11) 0.20621(11)
H8 H 0.3342 0.0779 0.1744
C15 C 0.34876(11) 0.13855(11) 0.36933(10)
C16 C 0.54512(11) 0.25324(10) 0.11964(10)
H9 H 0.5339 0.2927 0.1349
C17 C 0.66358(12) 0.34227(12) 0.12842(11)
C18 C 0.41737(11) 0.23116(11) 0.40317(10)
C19 C 0.60420(12) 0.24440(11) 0.09437(10)
C20 C 0.50311(10) 0.20566(10) 0.12276(10)
H10 H 0.4637 0.2130 0.1414
C21 C 0.12826(13) 0.46281(13) 0.10697(15)
H11 H 0.1431 0.4256 0.1246
C22 C 0.36850(12) 0.18272(13) 0.40875(11)
C23 C 0.15272(13) 0.51816(14) 0.12441(14)
C24 C 0.61631(13) 0.18497(12) 0.07086(12)
H12 H 0.6552 0.1761 0.0520
C26 C 0.36495(13) 0.42919(14) 0.26839(14)
H14 H 0.3858 0.3919 0.2784
C27 C 0.35646(14) 0.53837(14) 0.27816(16)
H15 H 0.3712 0.5762 0.2947
C28 C 0.63017(12) 0.41795(12) 0.20698(11)
H16 H 0.6391 0.4511 0.1802
C29 C 0.17569(12) 0.10517(13) 0.46124(12)
H17 H 0.1736 0.0930 0.4199
C30 C 0.30288(16) 0.53773(16) 0.24348(18)
H18 H 0.2813 0.5751 0.2353
C31 C 0.31089(15) 0.42716(15) 0.23310(16)
H19 H 0.2953 0.3891 0.2181
C32 C 0.80653(13) 0.42143(13) 0.01525(12)
H20 H 0.7909 0.4513 0.0429
C33 C 0.28045(13) 0.48218(15) 0.22046(14)
C34 C 0.12414(13) 0.09848(13) 0.49862(11)
H21 H 0.0869 0.0819 0.4817
C35 C 0.72767(12) 0.34464(12) 0.05024(11)
C36 C 0.13157(15) 0.57318(14) 0.10050(16)
H22 H 0.1481 0.6113 0.1145
C37 C 0.57115(12) 0.14012(12) 0.07562(12)
H23 H 0.5805 0.1003 0.0601
C39 C 0.77880(12) 0.36303(12) 0.01101(11)
C40 C 0.23050(16) 0.1452(2) 0.54339(15)
H25 H 0.2673 0.1617 0.5613
C42 C 0.28478(12) 0.14060(13) 0.44468(12)
C43 C 0.33562(10) 0.10271(11) 0.26206(10)
H27 H 0.2918 0.0985 0.2682
C44 C 0.45161(12) 0.25097(11) 0.45267(10)
H28 H 0.4467 0.2322 0.4913
N12 N 0.20267(12) 0.52649(11) 0.16829(13)
C45 C 0.65128(11) 0.29280(11) 0.08997(11)
C46 C 0.60770(11) 0.42971(11) 0.26407(10)
H29 H 0.6006 0.4714 0.2754
C47 C 0.08159(13) 0.46119(13) 0.06326(13)
H30 H 0.0638 0.4228 0.0518
C48 C 0.49282(11) 0.29863(11) 0.44414(10)
H31 H 0.5159 0.3125 0.4784
C49 C 0.23020(12) 0.12966(12) 0.48446(11)
C50 C 0.17838(16) 0.1373(2) 0.57737(14)
H32 H 0.1805 0.1491 0.6188
H33 H 0.720(2) 0.400(2) 0.121(2)
H34 H 0.290(4) 0.085(3) 0.388(4)
Ni5 Ni 0.457829(12) 0.069975(11) 0.110061(12)
Ni7 Ni 0.049842(12) 0.088760(11) 0.614572(12)
O6 O 0.50707(7) 0.53901(7) 0.47079(7)
O7 O 0.49751(7) 0.43685(7) 0.45900(7)
N13 N 0.61927(8) 0.60470(8) 0.43858(8)
N14 N 0.62403(9) 0.38587(8) 0.44276(8)
N15 N 0.48504(8) 0.64891(8) 0.39936(8)
N16 N 0.57814(8) 0.59663(8) 0.30565(8)
O4 O 0.00249(7) 0.56315(7) 0.95900(7)
N1 N 0.88073(8) 0.39530(8) 0.93858(8)
C14 C 0.01458(9) 0.51381(11) 0.98449(9)
C25 C 0.85608(13) 0.43453(13) 0.97909(12)
H13 H 0.8746 0.4742 0.9827
C38 C 0.80117(13) 0.32520(12) 0.96576(12)
H24 H 0.7812 0.2869 0.9578
C41 C 0.85195(12) 0.34257(12) 0.93220(12)
H26 H 0.8672 0.3146 0.9025
Ni4 Ni 0.957829(12) 0.430025(11) 0.889939(12)
O3 O 0.99293(7) 0.46099(7) 0.97079(7)
Ni6 Ni 0.950158(12) 0.588760(11) 0.885428(12)
N3_2 N 0.37597(9) 0.88587(8) 0.05724(8)
C40_2 C 0.26950(16) 0.8548(2) 0.04339(15)
H25_2 H 0.2327 0.8383 0.0613
C50_2 C 0.32162(16) 0.8627(2) 0.07737(14)
H32_2 H 0.3195 0.8509 0.1188
Ni7_2 Ni 0.450158(12) 0.911240(11) 0.114572(12)
O2_2 O 0.03635(7) 0.46327(7) 0.84800(7)
O5_2 O 0.02080(7) 0.56295(7) 0.82821(7)
N4_2 N 0.20488(9) 0.88709(10) 0.89204(10)
N6_2 N 0.07814(8) 0.90337(8) 0.69435(8)
C1_2 C 0.06138(11) 0.87588(11) 0.79736(10)
H1_2 H 0.0328 0.8652 0.8287
C2_2 C 0.03036(11) 0.69316(11) 0.84355(10)
H2_2 H 0.0240 0.6737 0.8054
C4_2 C 0.07302(11) 0.74040(11) 0.84700(10)
H4_2 H 0.0955 0.7534 0.8121
C5_2 C 0.43957(11) 0.48427(12) 0.53581(10)
N8_2 N 0.17177(11) 0.81637(11) 0.95750(10)
C6_2 C 0.04017(11) 0.88809(10) 0.74034(9)
C7_2 C 0.11124(11) 0.51512(12) 0.78905(10)
C8_2 C 0.41524(14) 0.42780(14) 0.55474(14)
H6_2 H 0.4298 0.3904 0.5372
C10_2 C 0.12584(11) 0.87913(10) 0.80957(10)
N11_2 N 0.27181(12) 0.52327(12) 0.68128(12)
C12_2 C 0.05104(10) 0.51354(11) 0.82500(9)
C13_2 C 0.13885(11) 0.90914(11) 0.70621(11)
H8_2 H 0.1658 0.9221 0.6744
C14_2 C 0.48542(9) 0.48619(11) 0.48449(9)
C15_2 C 0.15124(11) 0.86145(11) 0.86933(10)
C18_2 C 0.08263(11) 0.76884(11) 0.90317(10)
H10_2 H 0.0363 0.7870 0.6414
C21_2 C 0.37174(13) 0.53719(13) 0.60697(15)
H11_2 H 0.3569 0.5744 0.6246
C22_2 C 0.13150(12) 0.81728(13) 0.90875(11)
C23_2 C 0.34728(13) 0.48184(14) 0.62441(14)
C26_2 C 0.13505(13) 0.57081(14) 0.76839(14)
H14_2 H 0.1142 0.6081 0.7784
C27_2 C 0.14354(14) 0.46163(14) 0.77816(16)
H15_2 H 0.1288 0.4238 0.7947
C29_2 C 0.32431(12) 0.89483(13) 0.96124(12)
H17_2 H 0.3264 0.9070 0.9199
C30_2 C 0.19712(16) 0.46227(16) 0.74348(18)
H18_2 H 0.2187 0.4249 0.7353
C31_2 C 0.18911(15) 0.57284(15) 0.73310(16)
H19_2 H 0.2047 0.6109 0.7181
C33_2 C 0.21955(13) 0.51782(15) 0.72046(14)
C34_2 C 0.37586(13) 0.90152(13) 0.99862(11)
H21_2 H 0.4131 0.9181 0.9817
C36_2 C 0.36843(15) 0.42682(14) 0.60050(16)
H22_2 H 0.3519 0.3887 0.6145
C42_2 C 0.21522(12) 0.85940(13) 0.94468(12)
C43_2 C 0.16438(10) 0.89729(11) 0.76206(10)
H27_2 H 0.2082 0.9015 0.7682
C44_2 C 0.04839(12) 0.74903(11) 0.95267(10)
H28_2 H 0.0533 0.7678 0.9913
N12_2 N 0.29733(12) 0.47351(11) 0.66829(13)
C47_2 C 0.41841(13) 0.53881(13) 0.56326(13)
H30_2 H 0.4362 0.5772 0.5518
C48_2 C 0.00718(11) 0.70137(11) 0.94414(10)
C49_2 C 0.26980(12) 0.87034(12) 0.98446(11)
H34_2 H 0.210(4) 0.915(3) 0.888(4)
Ni5_2 Ni 0.042171(12) 0.930025(11) 0.610061(12)
N15_2 N 0.01496(8) 0.35109(8) 0.89936(8)
O1_2 O 0.90769(5) 0.50733(5) 0.88027(5)
N2_2 N 0.99709(8) 0.67310(8) 0.89157(9)
N5_2 N 0.98504(8) 0.85109(8) 0.60064(8)
N7_2 N 0.90483(8) 0.61485(8) 0.80488(8)
C3_2 C 0.87275(12) 0.68937(11) 0.73054(11)
H3_2 H 0.8668 0.7314 0.7199
N9_2 N 0.80753(10) 0.70560(10) 0.54211(9)
H5_2 H 0.9965 0.8857 0.7328
N10_2 N 0.78934(11) 0.62494(11) 0.60116(10)
C9_2 C 0.89373(11) 0.67403(11) 0.78694(11)
H7_2 H 0.9010 0.7063 0.8153
C11_2 C 0.86006(11) 0.64258(11) 0.68831(10)
C16_2 C 0.95488(11) 0.74676(10) 0.61964(10)
H9_2 H 0.9661 0.7073 0.6349
C17_2 C 0.83642(12) 0.65773(12) 0.62842(11)
C19_2 C 0.89580(12) 0.75560(11) 0.59437(10)
C20_2 C 0.99689(10) 0.79434(10) 0.62276(10)
C24_2 C 0.88369(13) 0.81503(12) 0.57086(12)
H12_2 H 0.8448 0.8239 0.5520
C25_2 C 0.64392(13) 0.56547(13) 0.47909(12)
H13_2 H 0.6254 0.5258 0.4827
C28_2 C 0.86983(12) 0.58205(12) 0.70698(11)
H16_2 H 0.8609 0.5489 0.6802
C32_2 C 0.69347(13) 0.57857(13) 0.51525(12)
H20_2 H 0.7091 0.5487 0.5429
C35_2 C 0.77233(12) 0.65536(12) 0.55024(11)
C37_2 C 0.92885(12) 0.85988(12) 0.57562(12)
H23_2 H 0.9195 0.8997 0.5601
C38_2 C 0.69883(13) 0.67480(12) 0.46576(12)
H24_2 H 0.7188 0.7131 0.4578
C39_2 C 0.72120(12) 0.63697(12) 0.51101(11)
C41_2 C 0.64805(12) 0.65743(12) 0.43220(12)
H26_2 H 0.6328 0.6854 0.4025
C45_2 C 0.84872(11) 0.70720(11) 0.58997(11)
C46_2 C 0.89230(11) 0.57029(11) 0.76407(10)
H29_2 H 0.8994 0.5286 0.7754
H31_2 H 0.9841 0.6875 0.9784
H33_2 H 0.780(2) 0.600(2) 0.621(2)
N14_2 N 0.87597(9) 0.61413(8) 0.94276(8)
N16_2 N 0.92186(8) 0.40337(8) 0.80565(8)
N1_2 N 0.38073(8) 0.10470(8) 0.06142(8)
C25_3 C 0.35608(13) 0.06547(13) 0.02091(12)
H13_3 H 0.3746 0.0258 0.0173
C38_3 C 0.30117(13) 0.17480(12) 0.03424(12)
H24_3 H 0.2812 0.2131 0.0422
C41_3 C 0.35195(12) 0.15743(12) 0.06780(12)
H26_3 H 0.3672 0.1854 0.0975
O1_3 O 0.09231(5) 0.00733(5) 0.61973(5)
N2_3 N 0.00291(8) 0.17310(8) 0.60843(9)
N7_3 N 0.09517(8) 0.11485(8) 0.69512(8)
C3_3 C 0.12725(12) 0.18937(11) 0.76946(11)
H3_3 H 0.1332 0.2314 0.7801
N9_3 N 0.19247(10) 0.20560(10) 0.95789(9)
H5_3 H 0.0035 0.3857 0.7672
N10_3 N 0.21066(11) 0.12494(11) 0.89884(10)
C9_3 C 0.10627(11) 0.17403(11) 0.71306(11)
H7_3 H 0.0990 0.2063 0.6847
C11_3 C 0.13994(11) 0.14258(11) 0.81169(10)
C16_3 C 0.04512(11) 0.24676(10) 0.88036(10)
H9_3 H 0.0339 0.2073 0.8651
C17_3 C 0.16358(12) 0.15773(12) 0.87158(11)
C19_3 C 0.10420(12) 0.25560(11) 0.90563(10)
C20_3 C 0.00311(10) 0.29434(10) 0.87724(10)
C24_3 C 0.11631(13) 0.31503(12) 0.92914(12)
H12_3 H 0.1552 0.3239 0.9480
C28_3 C 0.13017(12) 0.08205(12) 0.79302(11)
H16_3 H 0.1391 0.0489 0.8198
C32_3 C 0.30653(13) 0.07857(13) 0.98475(12)
H20_3 H 0.2909 0.0487 0.9571
C35_3 C 0.22767(12) 0.15536(12) 0.94976(11)
C37_3 C 0.07115(12) 0.35988(12) 0.92438(12)
H23_3 H 0.0805 0.3997 0.9399
C39_3 C 0.27880(12) 0.13697(12) 0.98899(11)
C45_3 C 0.15128(11) 0.20720(11) 0.91003(11)
C46_3 C 0.10770(11) 0.07029(11) 0.73593(10)
H29_3 H 0.1006 0.0286 0.7246
H31_3 H 0.0159 0.1875 0.5216
H33_3 H 0.220(2) 0.100(2) 0.879(2)
O6_2 O 0.00707(7) 0.96099(7) 0.52921(7)
N13_2 N 0.11927(8) 0.89530(8) 0.56142(8)
O3_2 O 0.49293(7) 0.03901(7) 0.02921(7)
O5_3 O 0.97920(7) 0.06295(7) 0.67179(7)
N4_3 N 0.79512(9) 0.38709(10) 0.60796(10)
C1_3 C 0.93862(11) 0.37588(11) 0.70264(10)
H1_3 H 0.9672 0.3652 0.6713
C2_3 C 0.96964(11) 0.19316(11) 0.65645(10)
H2_3 H 0.9760 0.1737 0.6946
C4_3 C 0.92698(11) 0.24040(11) 0.65300(10)
H4_3 H 0.9045 0.2534 0.6879
N8_3 N 0.82823(11) 0.31637(11) 0.54250(10)
C6_3 C 0.95983(11) 0.38809(10) 0.75966(9)
C7_3 C 0.88876(11) 0.01512(12) 0.71095(10)
C10_3 C 0.87416(11) 0.37913(10) 0.69043(10)
N11_3 N 0.72819(12) 0.02327(12) 0.81872(12)
C12_3 C 0.94896(10) 0.01354(11) 0.67500(9)
C13_3 C 0.86115(11) 0.40914(11) 0.79379(11)
H8_3 H 0.8342 0.4221 0.8256
C15_3 C 0.84876(11) 0.36145(11) 0.63067(10)
C18_3 C 0.91737(11) 0.26884(11) 0.59683(10)
H10_3 H 0.9637 0.2870 0.8586
C21_3 C 0.62826(13) 0.03719(13) 0.89303(15)
H11_3 H 0.6431 0.0744 0.8754
C22_3 C 0.86850(12) 0.31728(13) 0.59125(11)
C26_3 C 0.86495(13) 0.07081(14) 0.73161(14)
H14_3 H 0.8858 0.1081 0.7216
C29_3 C 0.67569(12) 0.39483(13) 0.53876(12)
H17_3 H 0.6736 0.4070 0.5801
C31_3 C 0.81089(15) 0.07284(15) 0.76690(16)
H19_3 H 0.7953 0.1109 0.7819
C33_3 C 0.78045(13) 0.01782(15) 0.77954(14)
C34_3 C 0.62414(13) 0.40152(13) 0.50138(11)
H21_3 H 0.5869 0.4181 0.5183
C40_3 C 0.73050(16) 0.3548(2) 0.45661(15)
H25_3 H 0.7673 0.3383 0.4387
C42_3 C 0.78478(12) 0.35940(13) 0.55532(12)
C43_3 C 0.83562(10) 0.39729(11) 0.73794(10)
H27_3 H 0.7918 0.4015 0.7318
C44_3 C 0.95161(12) 0.24903(11) 0.54733(10)
H28_3 H 0.9467 0.2678 0.5087
C47_3 C 0.58159(13) 0.03881(13) 0.93674(13)
H30_3 H 0.5638 0.0772 0.9482
C48_3 C 0.99282(11) 0.20137(11) 0.55586(10)
C49_3 C 0.73020(12) 0.37034(12) 0.51554(11)
C50_3 C 0.67838(16) 0.3627(2) 0.42263(14)
H32_3 H 0.6805 0.3509 0.3812
H34_3 H 0.790(4) 0.415(3) 0.612(4)
O7_2 O 0.99751(7) 0.06315(7) 0.54100(7)
O4_2 O 0.50249(7) 0.93685(7) 0.04100(7)
C14_3 C 0.51458(9) 0.98619(11) 0.01551(9)
O2_3 O 0.96365(7) 0.96327(7) 0.65200(7)
C5_3 C 0.56043(11) 0.98427(12) 0.96419(10)
C8_3 C 0.58476(14) 0.92780(14) 0.94526(14)
H6_3 H 0.5702 0.8904 0.9628
C23_3 C 0.65272(13) 0.98184(14) 0.87559(14)
C27_3 C 0.85646(14) 0.96163(14) 0.72184(16)
H15_3 H 0.8712 0.9238 0.7053
C30_3 C 0.80288(16) 0.96227(16) 0.75652(18)
H18_3 H 0.7813 0.9249 0.7647
C36_3 C 0.63157(15) 0.92682(14) 0.89950(16)
H22_3 H 0.6481 0.8887 0.8855
N12_3 N 0.70267(12) 0.97351(11) 0.83171(13)
O2_4 O 0.53635(7) 0.03673(7) 0.15200(7)
C5_4 C 0.93957(11) 0.01573(12) 0.46419(10)
C8_4 C 0.91524(14) 0.07220(14) 0.44526(14)
H6_4 H 0.9298 0.1096 0.4628
C14_4 C 0.98542(9) 0.01381(11) 0.51551(9)
C23_4 C 0.84728(13) 0.01816(14) 0.37559(14)
C27_4 C 0.64354(14) 0.03837(14) 0.22184(16)
H15_4 H 0.6288 0.0762 0.2053
C30_4 C 0.69712(16) 0.03773(16) 0.25652(18)
H18_4 H 0.7187 0.0751 0.2647
C36_4 C 0.86843(15) 0.07318(14) 0.39950(16)
H22_4 H 0.8519 0.1113 0.3855
N12_4 N 0.79733(12) 0.02649(11) 0.33171(13)
O1_4 O 0.40769(5) 0.99267(5) 0.11973(5)
O5_4 O 0.52080(7) 0.93705(7) 0.17179(7)
N2_4 N 0.49709(8) 0.82690(8) 0.10843(9)
N4_4 N 0.70488(9) 0.61291(10) 0.10796(10)
N7_4 N 0.40483(8) 0.88515(8) 0.19512(8)
C1_4 C 0.56138(11) 0.62412(11) 0.20264(10)
H1_4 H 0.5328 0.6348 0.1713
C2_4 C 0.53036(11) 0.80684(11) 0.15645(10)
H2_4 H 0.5240 0.8263 0.1946
C3_4 C 0.37275(12) 0.81063(11) 0.26946(11)
H3_4 H 0.3668 0.7686 0.2801
C4_4 C 0.57302(11) 0.75960(11) 0.15300(10)
H4_4 H 0.5955 0.7466 0.1879
N8_4 N 0.67177(11) 0.68363(11) 0.04250(10)
N9_4 N 0.30753(10) 0.79440(10) 0.45789(9)
C6_4 C 0.54017(11) 0.61191(10) 0.25966(9)
H5_4 H 0.4965 0.6143 0.2672
C7_4 C 0.61124(11) 0.98488(12) 0.21095(10)
N10_4 N 0.28934(11) 0.87506(11) 0.39884(10)
C9_4 C 0.39373(11) 0.82597(11) 0.21306(11)
H7_4 H 0.4010 0.7937 0.1847
C10_4 C 0.62584(11) 0.62087(10) 0.19043(10)
N11_4 N 0.77181(12) 0.97673(12) 0.31872(12)
C11_4 C 0.36006(11) 0.85742(11) 0.31169(10)
C12_4 C 0.55104(10) 0.98646(11) 0.17500(9)
C13_4 C 0.63885(11) 0.59086(11) 0.29379(11)
H8_4 H 0.6658 0.5779 0.3256
C15_4 C 0.65124(11) 0.63855(11) 0.13067(10)
C16_4 C 0.45488(11) 0.75324(10) 0.38036(10)
H9_4 H 0.4661 0.7927 0.3651
C17_4 C 0.33642(12) 0.84227(12) 0.37158(11)
C18_4 C 0.58263(11) 0.73116(11) 0.09683(10)
C19_4 C 0.39580(12) 0.74440(11) 0.40563(10)
C20_4 C 0.49689(10) 0.70566(10) 0.37724(10)
H10_4 H 0.5363 0.7130 0.3586
C21_4 C 0.87174(13) 0.96281(13) 0.39303(15)
H11_4 H 0.8569 0.9256 0.3754
C22_4 C 0.63150(12) 0.68272(13) 0.09125(11)
C24_4 C 0.38369(13) 0.68497(12) 0.42914(12)
H12_4 H 0.3448 0.6761 0.4480
C25_4 C 0.14392(13) 0.93453(13) 0.52091(12)
H13_4 H 0.1254 0.9742 0.5173
C26_4 C 0.63505(13) 0.92919(14) 0.23161(14)
H14_4 H 0.6142 0.8919 0.2216
C28_4 C 0.36983(12) 0.91795(12) 0.29302(11)
H16_4 H 0.3609 0.9511 0.3198
C29_4 C 0.82431(12) 0.60517(13) 0.03876(12)
H17_4 H 0.8264 0.5930 0.0801
C31_4 C 0.68911(15) 0.92716(15) 0.26690(16)
H19_4 H 0.7047 0.8891 0.2819
C32_4 C 0.19347(13) 0.92143(13) 0.48475(12)
H20_4 H 0.2091 0.9513 0.4571
C33_4 C 0.71955(13) 0.98218(15) 0.27954(14)
C34_4 C 0.87586(13) 0.59848(13) 0.00138(11)
H21_4 H 0.9131 0.5819 0.0183
C35_4 C 0.27233(12) 0.84464(12) 0.44976(11)
C37_4 C 0.42885(12) 0.64012(12) 0.42438(12)
H23_4 H 0.4195 0.6003 0.4399
C38_4 C 0.19883(13) 0.82520(12) 0.53424(12)
H24_4 H 0.2188 0.7869 0.5422
C39_4 C 0.22120(12) 0.86303(12) 0.48899(11)
C41_4 C 0.14805(12) 0.84257(12) 0.56780(12)
H26_4 H 0.1328 0.8146 0.5975
C42_4 C 0.71522(12) 0.64060(13) 0.05532(12)
C43_4 C 0.66438(10) 0.60271(11) 0.23794(10)
H27_4 H 0.7082 0.5985 0.2318
C44_4 C 0.54839(12) 0.75097(11) 0.04733(10)
H28_4 H 0.5533 0.7322 0.0087
C45_4 C 0.34872(11) 0.79280(11) 0.41003(11)
C46_4 C 0.39230(11) 0.92971(11) 0.23593(10)
H29_4 H 0.3994 0.9714 0.2246
C47_4 C 0.91841(13) 0.96119(13) 0.43674(13)
H30_4 H 0.9362 0.9228 0.4482
C48_4 C 0.50718(11) 0.79863(11) 0.05586(10)
H31_4 H 0.4841 0.8125 0.0216
C49_4 C 0.76980(12) 0.62966(12) 0.01554(11)
H33_4 H 0.280(2) 0.900(2) 0.379(2)
H34_4 H 0.710(4) 0.585(3) 0.112(4)
C40_4 C 0.76950(16) 0.6452(2) 0.95661(15)
H25_4 H 0.7327 0.6617 0.9387
C50_4 C 0.82162(16) 0.6373(2) 0.92263(14)
H32_4 H 0.8195 0.6491 0.8812
loop_
_geom_bond_atom_site_label_1
_geom_bond_atom_site_label_2
_geom_bond_site_symmetry_1
_geom_bond_site_symmetry_2
Ni1 O1 1_555 1_555
Ni2 O1 1_555 1_555
O2 Ni1 1_555 1_555
O5 Ni2 1_555 1_555
N2 Ni2 1_555 1_555
N3 C34 1_555 1_555
N4 C15 1_555 1_555
N5 C20 1_555 1_555
N6 C6 1_555 1_555
N7 Ni2 1_555 1_555
C1 H1 1_555 1_555
C2 N2 1_555 1_555
H2 C2 1_555 1_555
C3 H3 1_555 1_555
C4 C2 1_555 1_555
H4 C4 1_555 1_555
C5 C8 1_555 1_555
N8 C22 1_555 1_555
N9 C35 1_555 1_555
C6 C1 1_555 1_555
H5 C6 1_555 1_555
C7 C12 1_555 1_555
N10 C17 1_555 1_555
C8 H6 1_555 1_555
C9 N7 1_555 1_555
H7 C9 1_555 1_555
C10 C1 1_555 1_555
N11 C33 1_555 1_555
C11 C3 1_555 1_555
C12 O2 1_555 1_555
C13 N6 1_555 1_555
H8 C13 1_555 1_555
C15 C10 1_555 1_555
C16 H9 1_555 1_555
C17 C11 1_555 1_555
C18 C4 1_555 1_555
C19 C16 1_555 1_555
C20 C16 1_555 1_555
H10 C20 1_555 1_555
C21 H11 1_555 1_555
C22 C15 1_555 1_555
C23 C21 1_555 1_555
C24 C19 1_555 1_555
H12 C24 1_555 1_555
C26 C7 1_555 1_555
H14 C26 1_555 1_555
C27 C7 1_555 1_555
H15 C27 1_555 1_555
C28 C11 1_555 1_555
H16 C28 1_555 1_555
C29 H17 1_555 1_555
C30 C27 1_555 1_555
H18 C30 1_555 1_555
C31 C26 1_555 1_555
H19 C31 1_555 1_555
H20 C32 1_555 1_555
C33 C30 1_555 1_555
C34 C29 1_555 1_555
H21 C34 1_555 1_555
C35 N10 1_555 1_555
C36 C8 1_555 1_555
H22 C36 1_555 1_555
C37 N5 1_555 1_555
H23 C37 1_555 1_555
C39 C32 1_555 1_555
C40 H25 1_555 1_555
C42 N4 1_555 1_555
C43 C10 1_555 1_555
H27 C43 1_555 1_555
C44 C18 1_555 1_555
H28 C44 1_555 1_555
N12 N11 1_555 1_555
C45 N9 1_555 1_555
C46 N7 1_555 1_555
H29 C46 1_555 1_555
C47 C5 1_555 1_555
H30 C47 1_555 1_555
C48 N2 1_555 1_555
H31 C48 1_555 1_555
C49 C29 1_555 1_555
C50 N3 1_555 1_555
H32 C50 1_555 1_555
H33 N10 1_555 1_555
H34 N4 1_555 1_555
Ni5 N5 1_555 1_555
Ni7 N3 1_555 1_555
O6 Ni1 1_555 1_555
O7 Ni2 1_555 1_555
N13 Ni1 1_555 1_555
N14 Ni2 1_555 1_555
N15 Ni1 1_555 1_555
N16 Ni1 1_555 1_555
O5 C12 1_555 1_555
N6 Ni5 1_555 1_555
C3 C9 1_555 1_555
N8 C42 1_555 1_555
C13 C43 1_555 1_555
C17 C45 1_555 1_555
C18 C22 1_555 1_555
C19 C45 1_555 1_555
C21 C47 1_555 1_555
C23 C36 1_555 1_555
C23 N12 1_555 1_555
C24 C37 1_555 1_555
C28 C46 1_555 1_555
C31 C33 1_555 1_555
C35 C39 1_555 1_555
C40 C49 1_555 1_555
C40 C50 1_555 1_555
C42 C49 1_555 1_555
C44 C48 1_555 1_555
O4 C14 1_555 1_555
N1 C25 1_555 1_555
C25 H13 1_555 1_555
C38 H24 1_555 1_555
C41 N1 1_555 1_555
H26 C41 1_555 1_555
Ni4 N1 1_555 1_555
C38 C41 1_555 1_555
Ni4 O3 1_555 1_555
C40_2 H25_2 1_555 1_555
C50_2 N3_2 1_555 1_555
H32_2 C50_2 1_555 1_555
Ni7_2 N3_2 1_555 1_555
C40_2 C50_2 1_555 1_555
O6 C14_2 1_555 1_555
O7 C14_2 1_555 1_555
N4_2 C15_2 1_555 1_555
N6_2 C6_2 1_555 1_555
C1_2 H1_2 1_555 1_555
H2_2 C2_2 1_555 1_555
C4_2 C2_2 1_555 1_555
H4_2 C4_2 1_555 1_555
C5_2 C8_2 1_555 1_555
N8_2 C22_2 1_555 1_555
C6_2 C1_2 1_555 1_555
C7_2 C12_2 1_555 1_555
C8_2 H6_2 1_555 1_555
C10_2 C1_2 1_555 1_555
N11_2 C33_2 1_555 1_555
C12_2 O2_2 1_555 1_555
C13_2 N6_2 1_555 1_555
H8_2 C13_2 1_555 1_555
C14_2 C5_2 1_555 1_555
C15_2 C10_2 1_555 1_555
C18_2 C4_2 1_555 1_555
C21_2 H11_2 1_555 1_555
C22_2 C15_2 1_555 1_555
C23_2 C21_2 1_555 1_555
C26_2 C7_2 1_555 1_555
H14_2 C26_2 1_555 1_555
C27_2 C7_2 1_555 1_555
H15_2 C27_2 1_555 1_555
C29_2 H17_2 1_555 1_555
C30_2 C27_2 1_555 1_555
H18_2 C30_2 1_555 1_555
C31_2 C26_2 1_555 1_555
H19_2 C31_2 1_555 1_555
C33_2 C30_2 1_555 1_555
C34_2 C29_2 1_555 1_555
H21_2 C34_2 1_555 1_555
C36_2 C8_2 1_555 1_555
H22_2 C36_2 1_555 1_555
C42_2 N4_2 1_555 1_555
C43_2 C10_2 1_555 1_555
H27_2 C43_2 1_555 1_555
C44_2 C18_2 1_555 1_555
H28_2 C44_2 1_555 1_555
N12_2 N11_2 1_555 1_555
C47_2 C5_2 1_555 1_555
H30_2 C47_2 1_555 1_555
C49_2 C29_2 1_555 1_555
H34_2 N4_2 1_555 1_555
O5_2 C12_2 1_555 1_555
N6_2 Ni5_2 1_555 1_555
N8_2 C42_2 1_555 1_555
C13_2 C43_2 1_555 1_555
C18_2 C22_2 1_555 1_555
C21_2 C47_2 1_555 1_555
C23_2 C36_2 1_555 1_555
C23_2 N12_2 1_555 1_555
C31_2 C33_2 1_555 1_555
C42_2 C49_2 1_555 1_555
C44_2 C48_2 1_555 1_555
Ni4 O1_2 1_555 1_555
Ni6 O1_2 1_555 1_555
N13 C25_2 1_555 1_555
N2_2 Ni6 1_555 1_555
N5_2 C20_2 1_555 1_555
N7_2 Ni6 1_555 1_555
C3_2 H3_2 1_555 1_555
N9_2 C35_2 1_555 1_555
N10_2 C17_2 1_555 1_555
C9_2 N7_2 1_555 1_555
H7_2 C9_2 1_555 1_555
C11_2 C3_2 1_555 1_555
C16_2 H9_2 1_555 1_555
C17_2 C11_2 1_555 1_555
C19_2 C16_2 1_555 1_555
C20_2 C16_2 1_555 1_555
C24_2 C19_2 1_555 1_555
H12_2 C24_2 1_555 1_555
C25_2 H13_2 1_555 1_555
C28_2 C11_2 1_555 1_555
H16_2 C28_2 1_555 1_555
C32_2 C25_2 1_555 1_555
H20_2 C32_2 1_555 1_555
C35_2 N10_2 1_555 1_555
C37_2 N5_2 1_555 1_555
H23_2 C37_2 1_555 1_555
C38_2 H24_2 1_555 1_555
C39_2 C32_2 1_555 1_555
C41_2 N13 1_555 1_555
H26_2 C41_2 1_555 1_555
C45_2 N9_2 1_555 1_555
C46_2 N7_2 1_555 1_555
H29_2 C46_2 1_555 1_555
H33_2 N10_2 1_555 1_555
N14_2 Ni6 1_555 1_555
N16_2 Ni4 1_555 1_555
C3_2 C9_2 1_555 1_555
C17_2 C45_2 1_555 1_555
C19_2 C45_2 1_555 1_555
C24_2 C37_2 1_555 1_555
C28_2 C46_2 1_555 1_555
C35_2 C39_2 1_555 1_555
C38_2 C39_2 1_555 1_555
C38_2 C41_2 1_555 1_555
N1_2 C25_3 1_555 1_555
C25_3 H13_3 1_555 1_555
C38_3 H24_3 1_555 1_555
C41_3 N1_2 1_555 1_555
H26_3 C41_3 1_555 1_555
Ni5 N1_2 1_555 1_555
C38_3 C41_3 1_555 1_555
Ni7 O1_3 1_555 1_555
N2_3 Ni7 1_555 1_555
N15_2 C20_3 1_555 1_555
N7_3 Ni7 1_555 1_555
C3_3 H3_3 1_555 1_555
N9_3 C35_3 1_555 1_555
N10_3 C17_3 1_555 1_555
C9_3 N7_3 1_555 1_555
H7_3 C9_3 1_555 1_555
C11_3 C3_3 1_555 1_555
C16_3 H9_3 1_555 1_555
C17_3 C11_3 1_555 1_555
C19_3 C16_3 1_555 1_555
C20_3 C16_3 1_555 1_555
C24_3 C19_3 1_555 1_555
H12_3 C24_3 1_555 1_555
C28_3 C11_3 1_555 1_555
H16_3 C28_3 1_555 1_555
H20_3 C32_3 1_555 1_555
C35_3 N10_3 1_555 1_555
C37_3 N15_2 1_555 1_555
H23_3 C37_3 1_555 1_555
C39_3 C32_3 1_555 1_555
C45_3 N9_3 1_555 1_555
C46_3 N7_3 1_555 1_555
H29_3 C46_3 1_555 1_555
H33_3 N10_3 1_555 1_555
C3_3 C9_3 1_555 1_555
C17_3 C45_3 1_555 1_555
C19_3 C45_3 1_555 1_555
C24_3 C37_3 1_555 1_555
C28_3 C46_3 1_555 1_555
C35_3 C39_3 1_555 1_555
O6_2 Ni5_2 1_555 1_555
N13_2 Ni5_2 1_555 1_555
Ni5 O3_2 1_555 1_555
N14 C34_3 1_555 1_555
N4_3 C15_3 1_555 1_555
N16_2 C6_3 1_555 1_555
C1_3 H1_3 1_555 1_555
H2_3 C2_3 1_555 1_555
C4_3 C2_3 1_555 1_555
H4_3 C4_3 1_555 1_555
N8_3 C22_3 1_555 1_555
C6_3 C1_3 1_555 1_555
C7_3 C12_3 1_555 1_555
C10_3 C1_3 1_555 1_555
N11_3 C33_3 1_555 1_555
C13_3 N16_2 1_555 1_555
H8_3 C13_3 1_555 1_555
C15_3 C10_3 1_555 1_555
C18_3 C4_3 1_555 1_555
C21_3 H11_3 1_555 1_555
C22_3 C15_3 1_555 1_555
C26_3 C7_3 1_555 1_555
H14_3 C26_3 1_555 1_555
C29_3 H17_3 1_555 1_555
C31_3 C26_3 1_555 1_555
H19_3 C31_3 1_555 1_555
C34_3 C29_3 1_555 1_555
H21_3 C34_3 1_555 1_555
C40_3 H25_3 1_555 1_555
C42_3 N4_3 1_555 1_555
C43_3 C10_3 1_555 1_555
H27_3 C43_3 1_555 1_555
C44_3 C18_3 1_555 1_555
H28_3 C44_3 1_555 1_555
H30_3 C47_3 1_555 1_555
C49_3 C29_3 1_555 1_555
C50_3 N14 1_555 1_555
H32_3 C50_3 1_555 1_555
H34_3 N4_3 1_555 1_555
O5_3 C12_3 1_555 1_555
N8_3 C42_3 1_555 1_555
C13_3 C43_3 1_555 1_555
C18_3 C22_3 1_555 1_555
C21_3 C47_3 1_555 1_555
C31_3 C33_3 1_555 1_555
C40_3 C49_3 1_555 1_555
C40_3 C50_3 1_555 1_555
C42_3 C49_3 1_555 1_555
C44_3 C48_3 1_555 1_555
O4_2 C14_3 1_555 1_555
Ni7_2 O4_2 1_555 1_555
C5_3 C8_3 1_555 1_555
C8_3 H6_3 1_555 1_555
H15_3 C27_3 1_555 1_555
C30_3 C27_3 1_555 1_555
H18_3 C30_3 1_555 1_555
C36_3 C8_3 1_555 1_555
H22_3 C36_3 1_555 1_555
C23_3 C36_3 1_555 1_555
C23_3 N12_3 1_555 1_555
O2_4 Ni5 1_555 1_555
O7_2 C14_4 1_555 1_555
C5_4 C8_4 1_555 1_555
C8_4 H6_4 1_555 1_555
C14_4 C5_4 1_555 1_555
H15_4 C27_4 1_555 1_555
C30_4 C27_4 1_555 1_555
H18_4 C30_4 1_555 1_555
C36_4 C8_4 1_555 1_555
H22_4 C36_4 1_555 1_555
C23_4 C36_4 1_555 1_555
C23_4 N12_4 1_555 1_555
Ni7_2 O1_4 1_555 1_555
O5_4 Ni7_2 1_555 1_555
N13_2 C25_4 1_555 1_555
N2_4 Ni7_2 1_555 1_555
N4_4 C15_4 1_555 1_555
N15 C20_4 1_555 1_555
N16 C6_4 1_555 1_555
N7_4 Ni7_2 1_555 1_555
C1_4 H1_4 1_555 1_555
C2_4 N2_4 1_555 1_555
H2_4 C2_4 1_555 1_555
C3_4 H3_4 1_555 1_555
C4_4 C2_4 1_555 1_555
H4_4 C4_4 1_555 1_555
N8_4 C22_4 1_555 1_555
N9_4 C35_4 1_555 1_555
C6_4 C1_4 1_555 1_555
H5_4 C6_4 1_555 1_555
C7_4 C12_4 1_555 1_555
N10_4 C17_4 1_555 1_555
C9_4 N7_4 1_555 1_555
H7_4 C9_4 1_555 1_555
C10_4 C1_4 1_555 1_555
N11_4 C33_4 1_555 1_555
C11_4 C3_4 1_555 1_555
C13_4 N16 1_555 1_555
H8_4 C13_4 1_555 1_555
C15_4 C10_4 1_555 1_555
C16_4 H9_4 1_555 1_555
C17_4 C11_4 1_555 1_555
C18_4 C4_4 1_555 1_555
C19_4 C16_4 1_555 1_555
C20_4 C16_4 1_555 1_555
H10_4 C20_4 1_555 1_555
C21_4 H11_4 1_555 1_555
C22_4 C15_4 1_555 1_555
C24_4 C19_4 1_555 1_555
H12_4 C24_4 1_555 1_555
C25_4 H13_4 1_555 1_555
C26_4 C7_4 1_555 1_555
H14_4 C26_4 1_555 1_555
C28_4 C11_4 1_555 1_555
H16_4 C28_4 1_555 1_555
C29_4 H17_4 1_555 1_555
C31_4 C26_4 1_555 1_555
H19_4 C31_4 1_555 1_555
C32_4 C25_4 1_555 1_555
H20_4 C32_4 1_555 1_555
C34_4 C29_4 1_555 1_555
H21_4 C34_4 1_555 1_555
C35_4 N10_4 1_555 1_555
C37_4 N15 1_555 1_555
H23_4 C37_4 1_555 1_555
C38_4 H24_4 1_555 1_555
C39_4 C32_4 1_555 1_555
C41_4 N13_2 1_555 1_555
H26_4 C41_4 1_555 1_555
C42_4 N4_4 1_555 1_555
C43_4 C10_4 1_555 1_555
H27_4 C43_4 1_555 1_555
C44_4 C18_4 1_555 1_555
H28_4 C44_4 1_555 1_555
C45_4 N9_4 1_555 1_555
C46_4 N7_4 1_555 1_555
H29_4 C46_4 1_555 1_555
H30_4 C47_4 1_555 1_555
C48_4 N2_4 1_555 1_555
H31_4 C48_4 1_555 1_555
C49_4 C29_4 1_555 1_555
H33_4 N10_4 1_555 1_555
H34_4 N4_4 1_555 1_555
O5_4 C12_4 1_555 1_555
C3_4 C9_4 1_555 1_555
N8_4 C42_4 1_555 1_555
C13_4 C43_4 1_555 1_555
C17_4 C45_4 1_555 1_555
C18_4 C22_4 1_555 1_555
C19_4 C45_4 1_555 1_555
C21_4 C47_4 1_555 1_555
C24_4 C37_4 1_555 1_555
C28_4 C46_4 1_555 1_555
C31_4 C33_4 1_555 1_555
C35_4 C39_4 1_555 1_555
C38_4 C39_4 1_555 1_555
C38_4 C41_4 1_555 1_555
C42_4 C49_4 1_555 1_555
C44_4 C48_4 1_555 1_555
C40_4 H25_4 1_555 1_555
C50_4 N14_2 1_555 1_555
H32_4 C50_4 1_555 1_555
C40_4 C50_4 1_555 1_555

#END
