
###############################################################################
#
# This file contains modified crystal structure data generated from the
# MOF subset of the Cambridge Structural Database (CSD) v543 
# hosted by the Cambridge Crystallographic Data Centre (CCDC).
#
# This work is licensed under the Creative Commons
# Attribution-NonCommercial-ShareAlike 4.0 International License.
# To view a copy of this license, visit
# http://creativecommons.org/licenses/by-nc-sa/4.0/
# or send a letter to
# Creative Commons, PO Box 1866, Mountain View, CA 94042, USA.
#
# CIF created using the CSD Python API on 29 September 2022
# The structure has been converted into the P1 space group
# The structure has a 3D framework
# The original CSD entry GAKBAX is in the monoclinic crystal system
# The framework has been calculated to contain at least 10.0% void space
# The void calculation uses a probe of radius 1.32A, grid spacing 0.4
#
###############################################################################

data_GAKBAX
_chemical_formula_moiety         '(C28 H60 Eu4 N4 O22 P4)n'
_symmetry_cell_setting           triclinic
_symmetry_space_group_name_H-M   'P 1'
_symmetry_Int_Tables_number      1
_space_group_name_Hall           'P 1'
loop_
_symmetry_equiv_pos_site_id
_symmetry_equiv_pos_as_xyz
1 x,y,z
_cell_length_a                   5.5313(7)
_cell_length_b                   13.3960(17)
_cell_length_c                   20.934(3)
_cell_angle_alpha                90
_cell_angle_beta                 96.177(2)
_cell_angle_gamma                90
_cell_volume                     1542.15
loop_
_atom_site_label
_atom_site_type_symbol
_atom_site_fract_x
_atom_site_fract_y
_atom_site_fract_z
O1 O 0.3165(15) 0.0177(6) 0.9545(4)
H5 H 0.2282 0.0285 0.8184
H8 H 0.1039 0.0047 0.7122
Eu2 Eu 0.62677(11) 0.13215(5) 0.97237(3)
Eu1 Eu 0.37323(11) 0.86785(5) 0.02763(3)
O7 O 0.1469(16) 0.7143(7) 0.0337(5)
H3 H 0.2121 0.6786 0.0640
H4 H 0.0032 0.7280 0.0404
O8 O 0.6835(15) 0.9823(6) 0.0455(4)
O9 O 0.1267(15) 0.9531(7) 0.0900(4)
O10 O 0.7035(17) 0.7464(7) 0.0676(4)
O11 O 0.5027(17) 0.8165(7) 0.1402(4)
O3 O 0.8733(15) 0.0469(7) 0.9100(4)
O4 O 0.7035(17) 0.7536(7) 0.5676(4)
O5 O 0.5027(17) 0.6835(7) 0.6402(4)
C3 C 0.904(3) 0.8924(11) 0.6693(6)
H9 H 0.9630 0.9025 0.6278
H10 H 0.7515 0.9284 0.6692
C4 C 0.857(2) 0.7821(9) 0.6783(5)
C5 C 0.789(3) 0.7656(11) 0.7461(6)
H12 H 0.6307 0.7949 0.7498
H13 H 0.7784 0.6946 0.7543
C6 C 0.976(3) 0.8123(10) 0.7956(6)
H14 H 0.9269 0.8018 0.8382
C7 C 0.674(2) 0.7370(10) 0.6266(6)
Eu4 Eu 0.37323(11) 0.63215(5) 0.52763(3)
O3_2 O 0.1267(15) 0.5469(7) 0.5900(4)
O4_2 O 0.2965(17) 0.2536(7) 0.9324(4)
O5_2 O 0.4973(17) 0.1835(7) 0.8598(4)
C3_2 C 0.096(3) 0.3924(11) 0.8307(6)
H9_2 H 0.0370 0.4025 0.8722
H10_2 H 0.2485 0.4284 0.8308
C4_2 C 0.143(2) 0.2821(9) 0.8217(5)
C5_2 C 0.211(3) 0.2656(11) 0.7539(6)
H12_2 H 0.3693 0.2949 0.7502
H13_2 H 0.2216 0.1946 0.7457
C6_2 C 0.024(3) 0.3123(10) 0.7044(6)
H14_2 H 0.0731 0.3018 0.6618
C7_2 C 0.326(2) 0.2370(10) 0.8734(6)
Eu1_2 Eu 0.62677(11) 0.36785(5) 0.47237(3)
P1 P 0.9131(6) 0.4777(2) 0.58659(15)
O1_2 O 0.6835(15) 0.5177(6) 0.5455(4)
O2 O 0.9613(14) 0.3780(6) 0.5572(4)
O6 O 0.4289(16) 0.3150(7) 0.5645(4)
H1 H 0.3129 0.2753 0.5525
H2 H 0.5314 0.2856 0.5913
O7_2 O 0.8531(16) 0.2143(7) 0.4663(5)
H3_2 H 0.7879 0.1786 0.4360
H4_2 H 0.9968 0.2280 0.4596
N1 N 0.9980(19) 0.4203(8) 0.7157(5)
C1 C 0.818(2) 0.4634(10) 0.6667(6)
H5_2 H 0.7718 0.5285 0.6816
H6 H 0.6741 0.4216 0.6635
C2 C 0.918(3) 0.4340(11) 0.7800(5)
H7 H 0.7621 0.4013 0.7816
H8_2 H 0.8961 0.5047 0.7878
H11 H 0.9877 0.2476 0.8244
H15 H 0.8683 0.2798 0.7063
O8_2 O 0.3165(15) 0.4823(6) 0.4545(4)
O9_2 O 0.8733(15) 0.4531(7) 0.4100(4)
O10_2 O 0.2965(17) 0.2464(7) 0.4324(4)
O11_2 O 0.4973(17) 0.3165(7) 0.3598(4)
C3_3 C 0.096(3) 0.1076(11) 0.3307(6)
H9_3 H 0.0370 0.0975 0.3722
H10_3 H 0.2485 0.0716 0.3308
C4_3 C 0.143(2) 0.2179(9) 0.3217(5)
C5_3 C 0.211(3) 0.2344(11) 0.2539(6)
H12_3 H 0.3693 0.2051 0.2502
H13_3 H 0.2216 0.3054 0.2457
C6_3 C 0.024(3) 0.1877(10) 0.2044(6)
H14_3 H 0.0731 0.1982 0.1618
C7_3 C 0.326(2) 0.2630(10) 0.3734(6)
O7_3 O 0.8531(16) 0.2857(7) 0.9663(5)
H3_3 H 0.7879 0.3214 0.9360
H4_3 H 0.9968 0.2720 0.9596
H5_3 H 0.7718 0.9715 0.1816
H8_3 H 0.8961 0.9953 0.2878
P1_2 P 0.0869(6) 0.5223(2) 0.41341(15)
O2_2 O 0.0387(14) 0.6220(6) 0.4428(4)
O6_2 O 0.5711(16) 0.6850(7) 0.4355(4)
H1_2 H 0.6871 0.7247 0.4475
H2_2 H 0.4686 0.7144 0.4087
O7_4 O 0.1469(16) 0.7857(7) 0.5337(5)
H3_4 H 0.2121 0.8214 0.5640
H4_4 H 0.0032 0.7720 0.5404
N1_2 N 0.0020(19) 0.5797(8) 0.2843(5)
C1_2 C 0.182(2) 0.5366(10) 0.3333(6)
H5_4 H 0.2282 0.4715 0.3184
H6_2 H 0.3259 0.5784 0.3365
C2_2 C 0.082(3) 0.5660(11) 0.2200(5)
H7_2 H 0.2379 0.5987 0.2184
H8_4 H 0.1039 0.4953 0.2122
H11_2 H 0.0123 0.7524 0.1756
H15_2 H 0.1317 0.7202 0.2937
C3_4 C 0.904(3) 0.6076(11) 0.1693(6)
H9_4 H 0.9630 0.5975 0.1278
H10_4 H 0.7515 0.5716 0.1692
C4_4 C 0.857(2) 0.7179(9) 0.1783(5)
C5_4 C 0.789(3) 0.7344(11) 0.2461(6)
H12_4 H 0.6307 0.7051 0.2498
H13_4 H 0.7784 0.8054 0.2543
C6_4 C 0.976(3) 0.6877(10) 0.2956(6)
H14_4 H 0.9269 0.6982 0.3382
C7_4 C 0.674(2) 0.7630(10) 0.1266(6)
P1_3 P 0.0869(6) 0.9777(2) 0.91341(15)
O2_3 O 0.0387(14) 0.8780(6) 0.9428(4)
O6_3 O 0.5711(16) 0.8150(7) 0.9355(4)
H1_3 H 0.6871 0.7753 0.9475
H2_3 H 0.4686 0.7856 0.9087
N1_3 N 0.0020(19) 0.9203(8) 0.7843(5)
C1_3 C 0.182(2) 0.9634(10) 0.8333(6)
H6_3 H 0.3259 0.9216 0.8365
C2_3 C 0.082(3) 0.9340(11) 0.7200(5)
H7_3 H 0.2379 0.9013 0.7184
H11_3 H 0.0123 0.7476 0.6756
H15_3 H 0.1317 0.7798 0.7937
P1_4 P 0.9131(6) 0.0223(2) 0.08659(15)
O2_4 O 0.9613(14) 0.1220(6) 0.0572(4)
O6_4 O 0.4289(16) 0.1850(7) 0.0645(4)
H1_4 H 0.3129 0.2247 0.0525
H2_4 H 0.5314 0.2144 0.0913
N1_4 N 0.9980(19) 0.0797(8) 0.2157(5)
C1_4 C 0.818(2) 0.0366(10) 0.1667(6)
H6_4 H 0.6741 0.0784 0.1635
C2_4 C 0.918(3) 0.0660(11) 0.2800(5)
H7_4 H 0.7621 0.0987 0.2816
H11_4 H 0.9877 0.2524 0.3244
H15_4 H 0.8683 0.2202 0.2063
loop_
_geom_bond_atom_site_label_1
_geom_bond_atom_site_label_2
_geom_bond_site_symmetry_1
_geom_bond_site_symmetry_2
O1 Eu2 1_555 1_555
O7 Eu1 1_555 1_555
H3 O7 1_555 1_555
H4 O7 1_555 1_555
O8 Eu1 1_555 1_555
O9 Eu1 1_555 1_555
O10 Eu1 1_555 1_555
O11 Eu1 1_555 1_555
Eu2 O3 1_555 1_555
O4 C7 1_555 1_555
O5 C7 1_555 1_555
H9 C3 1_555 1_555
H10 C3 1_555 1_555
C4 C3 1_555 1_555
C5 C4 1_555 1_555
H12 C5 1_555 1_555
H13 C5 1_555 1_555
H14 C6 1_555 1_555
C7 C4 1_555 1_555
Eu4 O4 1_555 1_555
O5 Eu4 1_555 1_555
C5 C6 1_555 1_555
O4_2 C7_2 1_555 1_555
O5_2 C7_2 1_555 1_555
H9_2 C3_2 1_555 1_555
H10_2 C3_2 1_555 1_555
C4_2 C3_2 1_555 1_555
C5_2 C4_2 1_555 1_555
H12_2 C5_2 1_555 1_555
H13_2 C5_2 1_555 1_555
H14_2 C6_2 1_555 1_555
C7_2 C4_2 1_555 1_555
Eu4 O3_2 1_555 1_555
Eu2 O4_2 1_555 1_555
O5_2 Eu2 1_555 1_555
C5_2 C6_2 1_555 1_555
Eu1_2 O1_2 1_555 1_555
P1 O1_2 1_555 1_555
O1_2 Eu4 1_555 1_555
O2 Eu1_2 1_555 1_555
O6 Eu1_2 1_555 1_555
H1 O6 1_555 1_555
H2 O6 1_555 1_555
O7_2 Eu1_2 1_555 1_555
H3_2 O7_2 1_555 1_555
H4_2 O7_2 1_555 1_555
N1 C1 1_555 1_555
C1 P1 1_555 1_555
H5_2 C1 1_555 1_555
H6 C1 1_555 1_555
C2 N1 1_555 1_555
H7 C2 1_555 1_555
H8_2 C2 1_555 1_555
Eu4 O8_2 1_555 1_555
O8_2 Eu1_2 1_555 1_555
O9_2 Eu1_2 1_555 1_555
O10_2 Eu1_2 1_555 1_555
O11_2 Eu1_2 1_555 1_555
P1 O2 1_555 1_555
O10_2 C7_3 1_555 1_555
O11_2 C7_3 1_555 1_555
H9_3 C3_3 1_555 1_555
H10_3 C3_3 1_555 1_555
C4_3 C3_3 1_555 1_555
C5_3 C4_3 1_555 1_555
H12_3 C5_3 1_555 1_555
H13_3 C5_3 1_555 1_555
H14_3 C6_3 1_555 1_555
C7_3 C4_3 1_555 1_555
C5_3 C6_3 1_555 1_555
O7_3 Eu2 1_555 1_555
H3_3 O7_3 1_555 1_555
H4_3 O7_3 1_555 1_555
P1_2 O8_2 1_555 1_555
O2_2 Eu4 1_555 1_555
O6_2 Eu4 1_555 1_555
H1_2 O6_2 1_555 1_555
H2_2 O6_2 1_555 1_555
O7_4 Eu4 1_555 1_555
H3_4 O7_4 1_555 1_555
H4_4 O7_4 1_555 1_555
N1_2 C1_2 1_555 1_555
C1_2 P1_2 1_555 1_555
H5_4 C1_2 1_555 1_555
H6_2 C1_2 1_555 1_555
C2_2 N1_2 1_555 1_555
H7_2 C2_2 1_555 1_555
H8_4 C2_2 1_555 1_555
P1_2 O2_2 1_555 1_555
O10 C7_4 1_555 1_555
O11 C7_4 1_555 1_555
H9_4 C3_4 1_555 1_555
H10_4 C3_4 1_555 1_555
C4_4 C3_4 1_555 1_555
C5_4 C4_4 1_555 1_555
H12_4 C5_4 1_555 1_555
H13_4 C5_4 1_555 1_555
H14_4 C6_4 1_555 1_555
C7_4 C4_4 1_555 1_555
C5_4 C6_4 1_555 1_555
H1_3 O6_3 1_555 1_555
H2_3 O6_3 1_555 1_555
N1_3 C1_3 1_555 1_555
C1_3 P1_3 1_555 1_555
H6_3 C1_3 1_555 1_555
C2_3 N1_3 1_555 1_555
H7_3 C2_3 1_555 1_555
P1_3 O2_3 1_555 1_555
H1_4 O6_4 1_555 1_555
H2_4 O6_4 1_555 1_555
N1_4 C1_4 1_555 1_555
C1_4 P1_4 1_555 1_555
H6_4 C1_4 1_555 1_555
C2_4 N1_4 1_555 1_555
H7_4 C2_4 1_555 1_555
P1_4 O2_4 1_555 1_555

#END
