
###############################################################################
#
# This file contains modified crystal structure data generated from the
# MOF subset of the Cambridge Structural Database (CSD) v543 
# hosted by the Cambridge Crystallographic Data Centre (CCDC).
#
# This work is licensed under the Creative Commons
# Attribution-NonCommercial-ShareAlike 4.0 International License.
# To view a copy of this license, visit
# http://creativecommons.org/licenses/by-nc-sa/4.0/
# or send a letter to
# Creative Commons, PO Box 1866, Mountain View, CA 94042, USA.
#
# CIF created using the CSD Python API on 29 September 2022
# The structure has been converted into the P1 space group
# The structure has a 3D framework
# The original CSD entry GALBUS is in the tetragonal crystal system
# The original CSD entry GALBUS is in a Sohncke space group
# The framework has been calculated to contain at least 10.0% void space
# The void calculation uses a probe of radius 1.32A, grid spacing 0.4
#
###############################################################################

data_GALBUS
_chemical_formula_moiety         '(C176 H112 N32 Ni8 O32)n'
_symmetry_cell_setting           triclinic
_symmetry_space_group_name_H-M   'P 1'
_symmetry_Int_Tables_number      1
_space_group_name_Hall           'P 1'
loop_
_symmetry_equiv_pos_site_id
_symmetry_equiv_pos_as_xyz
1 x,y,z
_cell_length_a                   22.3163(5)
_cell_length_b                   22.3163(5)
_cell_length_c                   12.7222(6)
_cell_angle_alpha                90
_cell_angle_beta                 90
_cell_angle_gamma                90
_cell_volume                     6335.88
loop_
_atom_site_label
_atom_site_type_symbol
_atom_site_fract_x
_atom_site_fract_y
_atom_site_fract_z
Ni1 Ni 0.260770(15) 0.747136(14) 0.24839(2)
C7 C 0.07908(16) 0.7732(2) 0.0466(2)
C8 C 0.12729(16) 0.7415(2) 0.0084(3)
C9 C 0.17809(15) 0.73464(19) 0.0701(3)
H5 H 0.2110 0.7126 0.0426
C10 C 0.13619(16) 0.78910(18) 0.2036(3)
H6 H 0.1391 0.8067 0.2714
C11 C 0.08379(17) 0.7968(2) 0.1459(3)
H7 H 0.0512 0.8185 0.1753
C12 C 0.23693(16) 0.34362(15) 0.6627(2)
C13 C 0.23263(19) 0.40007(15) 0.6000(2)
C14 C 0.2004(2) 0.44692(17) 0.6323(3)
H8 H 0.1781 0.4444 0.6957
C15 C 0.1995(2) 0.49867(17) 0.5742(3)
H9 H 0.1764 0.5319 0.5975
C16 C 0.2309(2) 0.50245(16) 0.4849(3)
C17 C 0.2628(2) 0.40455(18) 0.5059(3)
H10 H 0.2857 0.3715 0.4814
C18 C 0.23306(18) 0.55896(15) 0.4246(2)
C19 C 0.2240(2) 0.61280(16) 0.4748(3)
H11 H 0.2146 0.6138 0.5476
C20 C 0.22861(17) 0.66540(14) 0.4182(3)
H12 H 0.2217 0.7023 0.4534
C21 C 0.25040(18) 0.61447(15) 0.2694(2)
H13 H 0.2608 0.6145 0.1970
C22 C 0.2448(2) 0.56022(16) 0.3189(3)
H14 H 0.2489 0.5240 0.2804
N2 N 0.18260(11) 0.75761(13) 0.16625(18)
N3 N 0.2604(2) 0.45566(15) 0.4474(3)
N4 N 0.24230(12) 0.66666(11) 0.31620(19)
O3 O 0.21768(11) 0.34273(9) 0.75538(17)
O4 O 0.26071(10) 0.29765(9) 0.62287(15)
Ni3 Ni 0.239230(15) 0.247136(14) 0.75161(2)
O5 O 0.31171(9) 0.71799(10) 0.12463(15)
O6 O 0.35642(9) 0.73483(11) 0.27483(16)
O7 O 0.28232(11) 0.84273(9) 0.24462(17)
O8 O 0.23929(10) 0.79765(9) 0.37713(15)
C1 C 0.14108(14) 0.22282(15) 0.8215(2)
C2 C 0.08196(14) 0.21821(19) 0.8761(2)
C3 C 0.02933(16) 0.2246(2) 0.8207(3)
H1 H 0.0296 0.2274 0.7462
C6 C 0.07894(14) 0.20978(17) 0.9821(2)
O1 O 0.18829(9) 0.21799(10) 0.87537(15)
O2 O 0.14358(9) 0.23483(11) 0.72517(16)
H3 H 0.6152 0.2972 0.9806
C7_2 C 0.42092(16) 0.2732(2) 0.9534(2)
C8_2 C 0.37271(16) 0.2415(2) 0.9916(3)
C9_2 C 0.32191(15) 0.23464(19) 0.9299(3)
H5_2 H 0.2890 0.2126 0.9574
C10_2 C 0.36381(16) 0.28910(18) 0.7964(3)
H6_2 H 0.3609 0.3067 0.7286
C11_2 C 0.41621(17) 0.2968(2) 0.8541(3)
H7_2 H 0.4488 0.3185 0.8247
H9_2 H 0.3236 0.0319 0.4025
C16_2 C 0.2691(2) 0.00245(16) 0.5151(3)
C18_2 C 0.26694(18) 0.05896(15) 0.5754(2)
C19_2 C 0.2760(2) 0.11280(16) 0.5252(3)
H11_2 H 0.2854 0.1138 0.4524
C20_2 C 0.27139(17) 0.16540(14) 0.5818(3)
H12_2 H 0.2783 0.2023 0.5466
C21_2 C 0.24960(18) 0.11447(15) 0.7306(2)
H13_2 H 0.2392 0.1145 0.8030
C22_2 C 0.2552(2) 0.06022(16) 0.6811(3)
H14_2 H 0.2511 0.0240 0.7196
N1 N 0.52688(13) 0.28918(16) 0.9627(2)
N2_2 N 0.31740(11) 0.25761(13) 0.83375(18)
N4_2 N 0.25770(12) 0.16666(11) 0.68380(19)
C12_2 C 0.26307(16) 0.84362(15) 0.3373(2)
C13_2 C 0.26737(19) 0.90007(15) 0.4000(2)
C14_2 C 0.2996(2) 0.94692(17) 0.3677(3)
H8_2 H 0.3219 0.9444 0.3043
C15_2 C 0.3005(2) 0.99867(17) 0.4258(3)
C17_2 C 0.2372(2) 0.90455(18) 0.4941(3)
H10_2 H 0.2143 0.8715 0.5186
N3_2 N 0.2396(2) 0.95566(15) 0.5526(3)
C1_2 C 0.35892(14) 0.72282(15) 0.1785(2)
C2_2 C 0.41804(14) 0.71821(19) 0.1239(2)
C3_2 C 0.47067(16) 0.7246(2) 0.1793(3)
H1_2 H 0.4704 0.7274 0.2538
C4 C 0.52405(18) 0.7269(3) 0.1238(3)
H2 H 0.5609 0.7326 0.1598
C5 C 0.52342(16) 0.7207(2) 0.0162(3)
C6_2 C 0.42106(14) 0.70978(17) 0.0179(2)
H4 H 0.6258 0.7756 0.0599
C4_2 C 0.02405(18) 0.7731(3) 0.8762(3)
H2_2 H 0.0609 0.7674 0.8402
C5_2 C 0.02342(16) 0.7793(2) 0.9838(3)
H4_2 H 0.1258 0.7244 0.9401
H3_2 H 0.8848 0.7972 0.0194
N1_2 N 0.97312(13) 0.78918(16) 0.0373(2)
C1_3 C 0.85892(14) 0.77718(15) 0.8215(2)
C2_3 C 0.91804(14) 0.78179(19) 0.8761(2)
C3_3 C 0.97067(16) 0.7754(2) 0.8207(3)
H1_3 H 0.9704 0.7726 0.7462
C6_3 C 0.92106(14) 0.79022(17) 0.9821(2)
O1_2 O 0.81171(9) 0.78201(10) 0.87537(15)
O2_2 O 0.85642(9) 0.76517(11) 0.72517(16)
Ni2 Ni 0.760770(15) 0.752864(14) 0.75161(2)
Ni1_2 Ni 0.739230(15) 0.252864(14) 0.24839(2)
C7_3 C 0.92092(16) 0.2268(2) 0.0466(2)
C8_3 C 0.87271(16) 0.2585(2) 0.0084(3)
C9_3 C 0.82191(15) 0.26536(19) 0.0701(3)
H5_3 H 0.7890 0.2874 0.0426
C10_3 C 0.86381(16) 0.21090(18) 0.2036(3)
H6_3 H 0.8609 0.1933 0.2714
C11_3 C 0.91621(17) 0.2032(2) 0.1459(3)
H7_3 H 0.9488 0.1815 0.1753
C12_3 C 0.76307(16) 0.65638(15) 0.6627(2)
C13_3 C 0.76737(19) 0.59993(15) 0.6000(2)
C14_3 C 0.7996(2) 0.55308(17) 0.6323(3)
H8_3 H 0.8219 0.5556 0.6957
C15_3 C 0.8005(2) 0.50133(17) 0.5742(3)
H9_3 H 0.8236 0.4681 0.5975
C16_3 C 0.7691(2) 0.49755(16) 0.4849(3)
C17_3 C 0.7372(2) 0.59545(18) 0.5059(3)
H10_3 H 0.7143 0.6285 0.4814
C18_3 C 0.76694(18) 0.44104(15) 0.4246(2)
C19_3 C 0.7760(2) 0.38720(16) 0.4748(3)
H11_3 H 0.7854 0.3862 0.5476
C20_3 C 0.77139(17) 0.33460(14) 0.4182(3)
H12_3 H 0.7783 0.2977 0.4534
C21_3 C 0.74960(18) 0.38553(15) 0.2694(2)
H13_3 H 0.7392 0.3855 0.1970
C22_3 C 0.7552(2) 0.43978(16) 0.3189(3)
H14_3 H 0.7511 0.4760 0.2804
N2_3 N 0.81740(11) 0.24239(13) 0.16625(18)
N3_3 N 0.7396(2) 0.54434(15) 0.4474(3)
N4_3 N 0.75770(12) 0.33334(11) 0.31620(19)
O3_2 O 0.78232(11) 0.65727(9) 0.75538(17)
O4_2 O 0.73929(10) 0.70235(9) 0.62287(15)
O5_2 O 0.68829(9) 0.28201(10) 0.12463(15)
O6_2 O 0.64358(9) 0.26517(11) 0.27483(16)
O7_2 O 0.71768(11) 0.15727(9) 0.24462(17)
O8_2 O 0.76071(10) 0.20235(9) 0.37713(15)
C1_4 C 0.64108(14) 0.27718(15) 0.1785(2)
C2_4 C 0.58196(14) 0.28179(19) 0.1239(2)
C3_4 C 0.52933(16) 0.2754(2) 0.1793(3)
H1_4 H 0.5296 0.2726 0.2538
C4_3 C 0.47595(18) 0.2731(3) 0.1238(3)
H2_3 H 0.4391 0.2674 0.1598
C5_3 C 0.47658(16) 0.2793(2) 0.0162(3)
C6_4 C 0.57894(14) 0.29022(17) 0.0179(2)
H4_3 H 0.3742 0.2244 0.0599
C12_4 C 0.73693(16) 0.15638(15) 0.3373(2)
C13_4 C 0.73263(19) 0.09993(15) 0.4000(2)
C14_4 C 0.7004(2) 0.05308(17) 0.3677(3)
H8_4 H 0.6781 0.0556 0.3043
C15_4 C 0.6995(2) 0.00133(17) 0.4258(3)
C17_4 C 0.7628(2) 0.09545(18) 0.4941(3)
H10_4 H 0.7857 0.1285 0.5186
N3_4 N 0.7604(2) 0.04434(15) 0.5526(3)
H3_3 H 0.3848 0.7028 0.9806
C7_4 C 0.57908(16) 0.7268(2) 0.9534(2)
C8_4 C 0.62729(16) 0.7585(2) 0.9916(3)
C9_4 C 0.67809(15) 0.76536(19) 0.9299(3)
H5_4 H 0.7110 0.7874 0.9574
C10_4 C 0.63619(16) 0.71090(18) 0.7964(3)
H6_4 H 0.6391 0.6933 0.7286
C11_4 C 0.58379(17) 0.7032(2) 0.8541(3)
H7_4 H 0.5512 0.6815 0.8247
H9_4 H 0.6764 0.9681 0.4025
C16_4 C 0.7309(2) 0.99755(16) 0.5151(3)
C18_4 C 0.73306(18) 0.94104(15) 0.5754(2)
C19_4 C 0.7240(2) 0.88720(16) 0.5252(3)
H11_4 H 0.7146 0.8862 0.4524
C20_4 C 0.72861(17) 0.83460(14) 0.5818(3)
H12_4 H 0.7217 0.7977 0.5466
C21_4 C 0.75040(18) 0.88553(15) 0.7306(2)
H13_4 H 0.7608 0.8855 0.8030
C22_4 C 0.7448(2) 0.93978(16) 0.6811(3)
H14_4 H 0.7489 0.9760 0.7196
N1_3 N 0.47312(13) 0.71082(16) 0.9627(2)
N2_4 N 0.68260(11) 0.74239(13) 0.83375(18)
N4_4 N 0.74230(12) 0.83334(11) 0.68380(19)
H3_4 H 0.1152 0.2028 0.0194
N1_4 N 0.02688(13) 0.21082(16) 0.0373(2)
C4_4 C 0.97595(18) 0.2269(3) 0.8762(3)
H2_4 H 0.9391 0.2326 0.8402
C5_4 C 0.97658(16) 0.2207(2) 0.9838(3)
H4_4 H 0.8742 0.2756 0.9401
C12_5 C 0.15638(15) 0.73693(16) 0.6627(2)
C13_5 C 0.09993(15) 0.73263(19) 0.6000(2)
C14_5 C 0.05308(17) 0.7004(2) 0.6323(3)
H8_5 H 0.0556 0.6781 0.6957
C15_5 C 0.00133(17) 0.6995(2) 0.5742(3)
C17_5 C 0.09545(18) 0.7628(2) 0.5059(3)
H10_5 H 0.1285 0.7857 0.4814
N3_5 N 0.04434(15) 0.7604(2) 0.4474(3)
O3_3 O 0.15727(9) 0.71768(11) 0.75538(17)
O4_3 O 0.20235(9) 0.76071(10) 0.62287(15)
Ni3_2 Ni 0.252864(14) 0.739230(15) 0.75161(2)
Ni1_3 Ni 0.752864(14) 0.760770(15) 0.24839(2)
H3_5 H 0.7028 0.3848 0.0194
C7_5 C 0.7268(2) 0.57908(16) 0.0466(2)
C8_5 C 0.7585(2) 0.62729(16) 0.0084(3)
C9_5 C 0.76536(19) 0.67809(15) 0.0701(3)
H5_5 H 0.7874 0.7110 0.0426
C10_5 C 0.71090(18) 0.63619(16) 0.2036(3)
H6_5 H 0.6933 0.6391 0.2714
C11_5 C 0.7032(2) 0.58379(17) 0.1459(3)
H7_5 H 0.6815 0.5512 0.1753
H9_5 H 0.9681 0.6764 0.5975
C16_5 C 0.99755(16) 0.7309(2) 0.4849(3)
C18_5 C 0.94104(15) 0.73306(18) 0.4246(2)
C19_5 C 0.88720(16) 0.7240(2) 0.4748(3)
H11_5 H 0.8862 0.7146 0.5476
C20_5 C 0.83460(14) 0.72861(17) 0.4182(3)
H12_5 H 0.7977 0.7217 0.4534
C21_5 C 0.88553(15) 0.75040(18) 0.2694(2)
H13_5 H 0.8855 0.7608 0.1970
C22_5 C 0.93978(16) 0.7448(2) 0.3189(3)
H14_5 H 0.9760 0.7489 0.2804
N1_5 N 0.71082(16) 0.47312(13) 0.0373(2)
N2_5 N 0.74239(13) 0.68260(11) 0.16625(18)
N4_5 N 0.83334(11) 0.74230(12) 0.31620(19)
O5_3 O 0.78201(10) 0.81171(9) 0.12463(15)
O6_3 O 0.76517(11) 0.85642(9) 0.27483(16)
O7_3 O 0.65727(9) 0.78232(11) 0.24462(17)
O8_3 O 0.70235(9) 0.73929(10) 0.37713(15)
C1_5 C 0.27718(15) 0.64108(14) 0.8215(2)
C2_5 C 0.28179(19) 0.58196(14) 0.8761(2)
C3_5 C 0.2754(2) 0.52933(16) 0.8207(3)
H1_5 H 0.2726 0.5296 0.7462
C4_5 C 0.2731(3) 0.47595(18) 0.8762(3)
H2_5 H 0.2674 0.4391 0.8402
C5_5 C 0.2793(2) 0.47658(16) 0.9838(3)
C6_5 C 0.29022(17) 0.57894(14) 0.9821(2)
H4_5 H 0.2244 0.3742 0.9401
O1_3 O 0.28201(10) 0.68829(9) 0.87537(15)
O2_3 O 0.26517(11) 0.64358(9) 0.72517(16)
C1_6 C 0.77718(15) 0.85892(14) 0.1785(2)
C2_6 C 0.78179(19) 0.91804(14) 0.1239(2)
C3_6 C 0.7754(2) 0.97067(16) 0.1793(3)
H1_6 H 0.7726 0.9704 0.2538
C6_6 C 0.79022(17) 0.92106(14) 0.0179(2)
C7_6 C 0.2268(2) 0.92092(16) 0.9534(2)
C8_6 C 0.2585(2) 0.87271(16) 0.9916(3)
C9_6 C 0.26536(19) 0.82191(15) 0.9299(3)
H5_6 H 0.2874 0.7890 0.9574
C10_6 C 0.21090(18) 0.86381(16) 0.7964(3)
H6_6 H 0.1933 0.8609 0.7286
C11_6 C 0.2032(2) 0.91621(17) 0.8541(3)
H7_6 H 0.1815 0.9488 0.8247
C12_6 C 0.65638(15) 0.76307(16) 0.3373(2)
C13_6 C 0.59993(15) 0.76737(19) 0.4000(2)
C14_6 C 0.55308(17) 0.7996(2) 0.3677(3)
H8_6 H 0.5556 0.8219 0.3043
C15_6 C 0.50133(17) 0.8005(2) 0.4258(3)
H9_6 H 0.4681 0.8236 0.4025
C16_6 C 0.49755(16) 0.7691(2) 0.5151(3)
C17_6 C 0.59545(18) 0.7372(2) 0.4941(3)
H10_6 H 0.6285 0.7143 0.5186
C18_6 C 0.44104(15) 0.76694(18) 0.5754(2)
C19_6 C 0.38720(16) 0.7760(2) 0.5252(3)
H11_6 H 0.3862 0.7854 0.4524
C20_6 C 0.33460(14) 0.77139(17) 0.5818(3)
H12_6 H 0.2977 0.7783 0.5466
C21_6 C 0.38553(15) 0.74960(18) 0.7306(2)
H13_6 H 0.3855 0.7392 0.8030
C22_6 C 0.43978(16) 0.7552(2) 0.6811(3)
H14_6 H 0.4760 0.7511 0.7196
N2_6 N 0.24239(13) 0.81740(11) 0.83375(18)
N3_6 N 0.54434(15) 0.7396(2) 0.5526(3)
N4_6 N 0.33334(11) 0.75770(12) 0.68380(19)
C1_7 C 0.72282(15) 0.35892(14) 0.8215(2)
C2_7 C 0.71821(19) 0.41804(14) 0.8761(2)
C3_7 C 0.7246(2) 0.47067(16) 0.8207(3)
H1_7 H 0.7274 0.4704 0.7462
C4_6 C 0.7269(3) 0.52405(18) 0.8762(3)
H2_6 H 0.7326 0.5609 0.8402
C5_6 C 0.7207(2) 0.52342(16) 0.9838(3)
C6_7 C 0.70978(17) 0.42106(14) 0.9821(2)
H4_6 H 0.7756 0.6258 0.9401
O1_4 O 0.71799(10) 0.31171(9) 0.87537(15)
O2_4 O 0.73483(11) 0.35642(9) 0.72517(16)
Ni2_2 Ni 0.747136(14) 0.260770(15) 0.75161(2)
Ni1_4 Ni 0.247136(14) 0.239230(15) 0.24839(2)
H3_6 H 0.2972 0.6152 0.0194
C7_7 C 0.2732(2) 0.42092(16) 0.0466(2)
C8_7 C 0.2415(2) 0.37271(16) 0.0084(3)
C9_7 C 0.23464(19) 0.32191(15) 0.0701(3)
H5_7 H 0.2126 0.2890 0.0426
C10_7 C 0.28910(18) 0.36381(16) 0.2036(3)
H6_7 H 0.3067 0.3609 0.2714
C11_7 C 0.2968(2) 0.41621(17) 0.1459(3)
H7_7 H 0.3185 0.4488 0.1753
H9_7 H 0.0319 0.3236 0.5975
C16_7 C 0.00245(16) 0.2691(2) 0.4849(3)
C18_7 C 0.05896(15) 0.26694(18) 0.4246(2)
C19_7 C 0.11280(16) 0.2760(2) 0.4748(3)
H11_7 H 0.1138 0.2854 0.5476
C20_7 C 0.16540(14) 0.27139(17) 0.4182(3)
H12_7 H 0.2023 0.2783 0.4534
C21_7 C 0.11447(15) 0.24960(18) 0.2694(2)
H13_7 H 0.1145 0.2392 0.1970
C22_7 C 0.06022(16) 0.2552(2) 0.3189(3)
H14_7 H 0.0240 0.2511 0.2804
N1_6 N 0.28918(16) 0.52688(13) 0.0373(2)
N2_7 N 0.25761(13) 0.31740(11) 0.16625(18)
N4_7 N 0.16666(11) 0.25770(12) 0.31620(19)
O5_4 O 0.21799(10) 0.18829(9) 0.12463(15)
O6_4 O 0.23483(11) 0.14358(9) 0.27483(16)
O7_4 O 0.34273(9) 0.21768(11) 0.24462(17)
O8_4 O 0.29765(9) 0.26071(10) 0.37713(15)
C12_7 C 0.84362(15) 0.26307(16) 0.6627(2)
C13_7 C 0.90007(15) 0.26737(19) 0.6000(2)
C14_7 C 0.94692(17) 0.2996(2) 0.6323(3)
H8_7 H 0.9444 0.3219 0.6957
C15_7 C 0.99867(17) 0.3005(2) 0.5742(3)
C17_7 C 0.90455(18) 0.2372(2) 0.5059(3)
H10_7 H 0.8715 0.2143 0.4814
N3_7 N 0.95566(15) 0.2396(2) 0.4474(3)
O3_4 O 0.84273(9) 0.28232(11) 0.75538(17)
O4_4 O 0.79765(9) 0.23929(10) 0.62287(15)
C7_8 C 0.7732(2) 0.07908(16) 0.9534(2)
C8_8 C 0.7415(2) 0.12729(16) 0.9916(3)
C9_8 C 0.73464(19) 0.17809(15) 0.9299(3)
H5_8 H 0.7126 0.2110 0.9574
C10_8 C 0.78910(18) 0.13619(16) 0.7964(3)
H6_8 H 0.8067 0.1391 0.7286
C11_8 C 0.7968(2) 0.08379(17) 0.8541(3)
H7_8 H 0.8185 0.0512 0.8247
C12_8 C 0.34362(15) 0.23693(16) 0.3373(2)
C13_8 C 0.40007(15) 0.23263(19) 0.4000(2)
C14_8 C 0.44692(17) 0.2004(2) 0.3677(3)
H8_8 H 0.4444 0.1781 0.3043
C15_8 C 0.49867(17) 0.1995(2) 0.4258(3)
H9_8 H 0.5319 0.1764 0.4025
C16_8 C 0.50245(16) 0.2309(2) 0.5151(3)
C17_8 C 0.40455(18) 0.2628(2) 0.4941(3)
H10_8 H 0.3715 0.2857 0.5186
C18_8 C 0.55896(15) 0.23306(18) 0.5754(2)
C19_8 C 0.61280(16) 0.2240(2) 0.5252(3)
H11_8 H 0.6138 0.2146 0.4524
C20_8 C 0.66540(14) 0.22861(17) 0.5818(3)
H12_8 H 0.7023 0.2217 0.5466
C21_8 C 0.61447(15) 0.25040(18) 0.7306(2)
H13_8 H 0.6145 0.2608 0.8030
C22_8 C 0.56022(16) 0.2448(2) 0.6811(3)
H14_8 H 0.5240 0.2489 0.7196
N2_8 N 0.75761(13) 0.18260(11) 0.83375(18)
N3_8 N 0.45566(15) 0.2604(2) 0.5526(3)
N4_8 N 0.66666(11) 0.24230(12) 0.68380(19)
C1_8 C 0.22282(15) 0.14108(14) 0.1785(2)
C2_8 C 0.21821(19) 0.08196(14) 0.1239(2)
C3_8 C 0.2246(2) 0.02933(16) 0.1793(3)
H1_8 H 0.2274 0.0296 0.2538
C6_8 C 0.20978(17) 0.07894(14) 0.0179(2)
C4_7 C 0.7731(3) 0.02405(18) 0.1238(3)
H2_7 H 0.7674 0.0609 0.1598
C5_7 C 0.7793(2) 0.02342(16) 0.0162(3)
H4_7 H 0.7244 0.1258 0.0599
H3_7 H 0.7972 0.8848 0.9806
N1_7 N 0.78918(16) 0.97312(13) 0.9627(2)
H3_8 H 0.2028 0.1152 0.9806
N1_8 N 0.21082(16) 0.02688(13) 0.9627(2)
C4_8 C 0.2269(3) 0.97595(18) 0.1238(3)
H2_8 H 0.2326 0.9391 0.1598
C5_8 C 0.2207(2) 0.97658(16) 0.0162(3)
H4_8 H 0.2756 0.8742 0.0599
loop_
_geom_bond_atom_site_label_1
_geom_bond_atom_site_label_2
_geom_bond_site_symmetry_1
_geom_bond_site_symmetry_2
Ni1 N2 1_555 1_555
C8 C7 1_555 1_555
C9 C8 1_555 1_555
H5 C9 1_555 1_555
C10 H6 1_555 1_555
C11 C7 1_555 1_555
H7 C11 1_555 1_555
C12 C13 1_555 1_555
C13 C14 1_555 1_555
C14 H8 1_555 1_555
C15 C14 1_555 1_555
H9 C15 1_555 1_555
C16 C15 1_555 1_555
C17 C13 1_555 1_555
H10 C17 1_555 1_555
C18 C16 1_555 1_555
C19 C18 1_555 1_555
H11 C19 1_555 1_555
C20 C19 1_555 1_555
H12 C20 1_555 1_555
C21 H13 1_555 1_555
C22 C18 1_555 1_555
H14 C22 1_555 1_555
N2 C9 1_555 1_555
N3 C16 1_555 1_555
N4 Ni1 1_555 1_555
O3 C12 1_555 1_555
O4 C12 1_555 1_555
Ni3 O3 1_555 1_555
O5 Ni1 1_555 1_555
O6 Ni1 1_555 1_555
O7 Ni1 1_555 1_555
O8 Ni1 1_555 1_555
C10 C11 1_555 1_555
C10 N2 1_555 1_555
C17 N3 1_555 1_555
C20 N4 1_555 1_555
C21 C22 1_555 1_555
C21 N4 1_555 1_555
O4 Ni3 1_555 1_555
C1 C2 1_555 1_555
C2 C3 1_555 1_555
C3 H1 1_555 1_555
C6 C2 1_555 1_555
O1 C1 1_555 1_555
O2 C1 1_555 1_555
Ni3 O1 1_555 1_555
O2 Ni3 1_555 1_555
Ni3 N2_2 1_555 1_555
C8_2 C7_2 1_555 1_555
C9_2 C8_2 1_555 1_555
H5_2 C9_2 1_555 1_555
C10_2 H6_2 1_555 1_555
C11_2 C7_2 1_555 1_555
H7_2 C11_2 1_555 1_555
C18_2 C16_2 1_555 1_555
C19_2 C18_2 1_555 1_555
H11_2 C19_2 1_555 1_555
C20_2 C19_2 1_555 1_555
H12_2 C20_2 1_555 1_555
C21_2 H13_2 1_555 1_555
C22_2 C18_2 1_555 1_555
H14_2 C22_2 1_555 1_555
N2_2 C9_2 1_555 1_555
N4_2 Ni3 1_555 1_555
C10_2 C11_2 1_555 1_555
C10_2 N2_2 1_555 1_555
C20_2 N4_2 1_555 1_555
C21_2 C22_2 1_555 1_555
C21_2 N4_2 1_555 1_555
C12_2 C13_2 1_555 1_555
C13_2 C14_2 1_555 1_555
C14_2 H8_2 1_555 1_555
C15_2 C14_2 1_555 1_555
C17_2 C13_2 1_555 1_555
H10_2 C17_2 1_555 1_555
O7 C12_2 1_555 1_555
O8 C12_2 1_555 1_555
C17_2 N3_2 1_555 1_555
C1_2 C2_2 1_555 1_555
C2_2 C3_2 1_555 1_555
C3_2 H1_2 1_555 1_555
C4 C3_2 1_555 1_555
H2 C4 1_555 1_555
C5 C4 1_555 1_555
C6_2 C2_2 1_555 1_555
O5 C1_2 1_555 1_555
O6 C1_2 1_555 1_555
H2_2 C4_2 1_555 1_555
C5_2 C4_2 1_555 1_555
C1_3 C2_3 1_555 1_555
C2_3 C3_3 1_555 1_555
C3_3 H1_3 1_555 1_555
C6_3 C2_3 1_555 1_555
O1_2 C1_3 1_555 1_555
O2_2 C1_3 1_555 1_555
Ni2 O1_2 1_555 1_555
O2_2 Ni2 1_555 1_555
Ni1_2 N2_3 1_555 1_555
C8_3 C7_3 1_555 1_555
C9_3 C8_3 1_555 1_555
H5_3 C9_3 1_555 1_555
C10_3 H6_3 1_555 1_555
C11_3 C7_3 1_555 1_555
H7_3 C11_3 1_555 1_555
C12_3 C13_3 1_555 1_555
C13_3 C14_3 1_555 1_555
C14_3 H8_3 1_555 1_555
C15_3 C14_3 1_555 1_555
H9_3 C15_3 1_555 1_555
C16_3 C15_3 1_555 1_555
C17_3 C13_3 1_555 1_555
H10_3 C17_3 1_555 1_555
C18_3 C16_3 1_555 1_555
C19_3 C18_3 1_555 1_555
H11_3 C19_3 1_555 1_555
C20_3 C19_3 1_555 1_555
H12_3 C20_3 1_555 1_555
C21_3 H13_3 1_555 1_555
C22_3 C18_3 1_555 1_555
H14_3 C22_3 1_555 1_555
N2_3 C9_3 1_555 1_555
N3_3 C16_3 1_555 1_555
N4_3 Ni1_2 1_555 1_555
O3_2 C12_3 1_555 1_555
O4_2 C12_3 1_555 1_555
Ni2 O3_2 1_555 1_555
O5_2 Ni1_2 1_555 1_555
O6_2 Ni1_2 1_555 1_555
O7_2 Ni1_2 1_555 1_555
O8_2 Ni1_2 1_555 1_555
C10_3 C11_3 1_555 1_555
C10_3 N2_3 1_555 1_555
C17_3 N3_3 1_555 1_555
C20_3 N4_3 1_555 1_555
C21_3 C22_3 1_555 1_555
C21_3 N4_3 1_555 1_555
O4_2 Ni2 1_555 1_555
C1_4 C2_4 1_555 1_555
C2_4 C3_4 1_555 1_555
C3_4 H1_4 1_555 1_555
C4_3 C3_4 1_555 1_555
H2_3 C4_3 1_555 1_555
C5_3 C4_3 1_555 1_555
C6_4 C2_4 1_555 1_555
O5_2 C1_4 1_555 1_555
O6_2 C1_4 1_555 1_555
C12_4 C13_4 1_555 1_555
C13_4 C14_4 1_555 1_555
C14_4 H8_4 1_555 1_555
C15_4 C14_4 1_555 1_555
C17_4 C13_4 1_555 1_555
H10_4 C17_4 1_555 1_555
O7_2 C12_4 1_555 1_555
O8_2 C12_4 1_555 1_555
C17_4 N3_4 1_555 1_555
Ni2 N2_4 1_555 1_555
C8_4 C7_4 1_555 1_555
C9_4 C8_4 1_555 1_555
H5_4 C9_4 1_555 1_555
C10_4 H6_4 1_555 1_555
C11_4 C7_4 1_555 1_555
H7_4 C11_4 1_555 1_555
C18_4 C16_4 1_555 1_555
C19_4 C18_4 1_555 1_555
H11_4 C19_4 1_555 1_555
C20_4 C19_4 1_555 1_555
H12_4 C20_4 1_555 1_555
C21_4 H13_4 1_555 1_555
C22_4 C18_4 1_555 1_555
H14_4 C22_4 1_555 1_555
N2_4 C9_4 1_555 1_555
N4_4 Ni2 1_555 1_555
C10_4 C11_4 1_555 1_555
C10_4 N2_4 1_555 1_555
C20_4 N4_4 1_555 1_555
C21_4 C22_4 1_555 1_555
C21_4 N4_4 1_555 1_555
H2_4 C4_4 1_555 1_555
C5_4 C4_4 1_555 1_555
C12_5 C13_5 1_555 1_555
C13_5 C14_5 1_555 1_555
C14_5 H8_5 1_555 1_555
C15_5 C14_5 1_555 1_555
C17_5 C13_5 1_555 1_555
H10_5 C17_5 1_555 1_555
O3_3 C12_5 1_555 1_555
O4_3 C12_5 1_555 1_555
Ni3_2 O3_3 1_555 1_555
C17_5 N3_5 1_555 1_555
O4_3 Ni3_2 1_555 1_555
Ni1_3 N2_5 1_555 1_555
C8_5 C7_5 1_555 1_555
C9_5 C8_5 1_555 1_555
H5_5 C9_5 1_555 1_555
C10_5 H6_5 1_555 1_555
C11_5 C7_5 1_555 1_555
H7_5 C11_5 1_555 1_555
C18_5 C16_5 1_555 1_555
C19_5 C18_5 1_555 1_555
H11_5 C19_5 1_555 1_555
C20_5 C19_5 1_555 1_555
H12_5 C20_5 1_555 1_555
C21_5 H13_5 1_555 1_555
C22_5 C18_5 1_555 1_555
H14_5 C22_5 1_555 1_555
N2_5 C9_5 1_555 1_555
N4_5 Ni1_3 1_555 1_555
O5_3 Ni1_3 1_555 1_555
O6_3 Ni1_3 1_555 1_555
O7_3 Ni1_3 1_555 1_555
O8_3 Ni1_3 1_555 1_555
C10_5 C11_5 1_555 1_555
C10_5 N2_5 1_555 1_555
C20_5 N4_5 1_555 1_555
C21_5 C22_5 1_555 1_555
C21_5 N4_5 1_555 1_555
C1_5 C2_5 1_555 1_555
C2_5 C3_5 1_555 1_555
C3_5 H1_5 1_555 1_555
C4_5 C3_5 1_555 1_555
H2_5 C4_5 1_555 1_555
C5_5 C4_5 1_555 1_555
C6_5 C2_5 1_555 1_555
O1_3 C1_5 1_555 1_555
O2_3 C1_5 1_555 1_555
Ni3_2 O1_3 1_555 1_555
O2_3 Ni3_2 1_555 1_555
C1_6 C2_6 1_555 1_555
C2_6 C3_6 1_555 1_555
C3_6 H1_6 1_555 1_555
C6_6 C2_6 1_555 1_555
O5_3 C1_6 1_555 1_555
O6_3 C1_6 1_555 1_555
Ni3_2 N2_6 1_555 1_555
C8_6 C7_6 1_555 1_555
C9_6 C8_6 1_555 1_555
H5_6 C9_6 1_555 1_555
C10_6 H6_6 1_555 1_555
C11_6 C7_6 1_555 1_555
H7_6 C11_6 1_555 1_555
C12_6 C13_6 1_555 1_555
C13_6 C14_6 1_555 1_555
C14_6 H8_6 1_555 1_555
C15_6 C14_6 1_555 1_555
H9_6 C15_6 1_555 1_555
C16_6 C15_6 1_555 1_555
C17_6 C13_6 1_555 1_555
H10_6 C17_6 1_555 1_555
C18_6 C16_6 1_555 1_555
C19_6 C18_6 1_555 1_555
H11_6 C19_6 1_555 1_555
C20_6 C19_6 1_555 1_555
H12_6 C20_6 1_555 1_555
C21_6 H13_6 1_555 1_555
C22_6 C18_6 1_555 1_555
H14_6 C22_6 1_555 1_555
N2_6 C9_6 1_555 1_555
N3_6 C16_6 1_555 1_555
N4_6 Ni3_2 1_555 1_555
O7_3 C12_6 1_555 1_555
O8_3 C12_6 1_555 1_555
C10_6 C11_6 1_555 1_555
C10_6 N2_6 1_555 1_555
C17_6 N3_6 1_555 1_555
C20_6 N4_6 1_555 1_555
C21_6 C22_6 1_555 1_555
C21_6 N4_6 1_555 1_555
C1_7 C2_7 1_555 1_555
C2_7 C3_7 1_555 1_555
C3_7 H1_7 1_555 1_555
C4_6 C3_7 1_555 1_555
H2_6 C4_6 1_555 1_555
C5_6 C4_6 1_555 1_555
C6_7 C2_7 1_555 1_555
O1_4 C1_7 1_555 1_555
O2_4 C1_7 1_555 1_555
Ni2_2 O1_4 1_555 1_555
O2_4 Ni2_2 1_555 1_555
Ni1_4 N2_7 1_555 1_555
C8_7 C7_7 1_555 1_555
C9_7 C8_7 1_555 1_555
H5_7 C9_7 1_555 1_555
C10_7 H6_7 1_555 1_555
C11_7 C7_7 1_555 1_555
H7_7 C11_7 1_555 1_555
C18_7 C16_7 1_555 1_555
C19_7 C18_7 1_555 1_555
H11_7 C19_7 1_555 1_555
C20_7 C19_7 1_555 1_555
H12_7 C20_7 1_555 1_555
C21_7 H13_7 1_555 1_555
C22_7 C18_7 1_555 1_555
H14_7 C22_7 1_555 1_555
N2_7 C9_7 1_555 1_555
N4_7 Ni1_4 1_555 1_555
O5_4 Ni1_4 1_555 1_555
O6_4 Ni1_4 1_555 1_555
O7_4 Ni1_4 1_555 1_555
O8_4 Ni1_4 1_555 1_555
C10_7 C11_7 1_555 1_555
C10_7 N2_7 1_555 1_555
C20_7 N4_7 1_555 1_555
C21_7 C22_7 1_555 1_555
C21_7 N4_7 1_555 1_555
C12_7 C13_7 1_555 1_555
C13_7 C14_7 1_555 1_555
C14_7 H8_7 1_555 1_555
C15_7 C14_7 1_555 1_555
C17_7 C13_7 1_555 1_555
H10_7 C17_7 1_555 1_555
O3_4 C12_7 1_555 1_555
O4_4 C12_7 1_555 1_555
Ni2_2 O3_4 1_555 1_555
C17_7 N3_7 1_555 1_555
O4_4 Ni2_2 1_555 1_555
Ni2_2 N2_8 1_555 1_555
C8_8 C7_8 1_555 1_555
C9_8 C8_8 1_555 1_555
H5_8 C9_8 1_555 1_555
C10_8 H6_8 1_555 1_555
C11_8 C7_8 1_555 1_555
H7_8 C11_8 1_555 1_555
C12_8 C13_8 1_555 1_555
C13_8 C14_8 1_555 1_555
C14_8 H8_8 1_555 1_555
C15_8 C14_8 1_555 1_555
H9_8 C15_8 1_555 1_555
C16_8 C15_8 1_555 1_555
C17_8 C13_8 1_555 1_555
H10_8 C17_8 1_555 1_555
C18_8 C16_8 1_555 1_555
C19_8 C18_8 1_555 1_555
H11_8 C19_8 1_555 1_555
C20_8 C19_8 1_555 1_555
H12_8 C20_8 1_555 1_555
C21_8 H13_8 1_555 1_555
C22_8 C18_8 1_555 1_555
H14_8 C22_8 1_555 1_555
N2_8 C9_8 1_555 1_555
N3_8 C16_8 1_555 1_555
N4_8 Ni2_2 1_555 1_555
O7_4 C12_8 1_555 1_555
O8_4 C12_8 1_555 1_555
C10_8 C11_8 1_555 1_555
C10_8 N2_8 1_555 1_555
C17_8 N3_8 1_555 1_555
C20_8 N4_8 1_555 1_555
C21_8 C22_8 1_555 1_555
C21_8 N4_8 1_555 1_555
C1_8 C2_8 1_555 1_555
C2_8 C3_8 1_555 1_555
C3_8 H1_8 1_555 1_555
C6_8 C2_8 1_555 1_555
O5_4 C1_8 1_555 1_555
O6_4 C1_8 1_555 1_555
H2_7 C4_7 1_555 1_555
C5_7 C4_7 1_555 1_555
H2_8 C4_8 1_555 1_555
C5_8 C4_8 1_555 1_555

#END
