
###############################################################################
#
# This file contains modified crystal structure data generated from the
# MOF subset of the Cambridge Structural Database (CSD) v543 
# hosted by the Cambridge Crystallographic Data Centre (CCDC).
#
# This work is licensed under the Creative Commons
# Attribution-NonCommercial-ShareAlike 4.0 International License.
# To view a copy of this license, visit
# http://creativecommons.org/licenses/by-nc-sa/4.0/
# or send a letter to
# Creative Commons, PO Box 1866, Mountain View, CA 94042, USA.
#
# CIF created using the CSD Python API on 29 September 2022
# The structure has been converted into the P1 space group
# The structure has a 3D framework
# The original CSD entry GALCED is in the monoclinic crystal system
# The framework has been calculated to contain at least 10.0% void space
# The void calculation uses a probe of radius 1.32A, grid spacing 0.4
#
###############################################################################

data_GALCED
_chemical_formula_moiety         '(C88 H56 Cd2 N16 O16)n'
_symmetry_cell_setting           triclinic
_symmetry_space_group_name_H-M   'P 1'
_symmetry_Int_Tables_number      1
_space_group_name_Hall           'P 1'
loop_
_symmetry_equiv_pos_site_id
_symmetry_equiv_pos_as_xyz
1 x,y,z
_cell_length_a                   8.1191(5)
_cell_length_b                   18.8297(11)
_cell_length_c                   18.7331(12)
_cell_angle_alpha                90
_cell_angle_beta                 100.5740(10)
_cell_angle_gamma                90
_cell_volume                     2815.29
loop_
_atom_site_label
_atom_site_type_symbol
_atom_site_fract_x
_atom_site_fract_y
_atom_site_fract_z
C12 C 0.0963(6) 0.3144(2) 0.4383(2)
C13 C 0.0380(5) 0.2563(2) 0.3838(2)
C17 C 0.1134(6) 0.2451(3) 0.3257(2)
H10 H 0.2063 0.2744 0.3215
H14 H 0.0004 0.1548 0.1467
N3 N 0.0682(5) 0.1966(2) 0.27448(19)
O3 O 0.2245(4) 0.34734(14) 0.42490(14)
O4 O 0.0267(4) 0.32552(16) 0.48966(17)
Cd4 Cd 0.30712(3) 0.439848(11) 0.493449(12)
O5 O 0.5715(3) 0.05287(11) 0.95462(12)
O7 O 0.7920(4) 0.00778(13) 0.91842(13)
Cd1 Cd 0.69288(3) 0.939848(11) 0.006551(12)
C20 C 0.7573(6) 0.9981(2) 0.1694(2)
H12 H 0.6954 0.9564 0.1753
O6 O 0.4285(3) 0.94713(11) 0.04538(12)
O8 O 0.7755(4) 0.84734(14) 0.07510(14)
C1 C 0.3222(5) 0.55338(17) 0.58661(18)
C2 C 0.3365(5) 0.60830(17) 0.64448(18)
C3 C 0.2497(6) 0.6062(2) 0.7014(2)
H1 H 0.1678 0.5704 0.7030
C4 C 0.2828(6) 0.6564(2) 0.7559(2)
H2 H 0.2263 0.6546 0.7960
C5 C 0.3972(6) 0.7088(2) 0.7519(2)
C6 C 0.4478(5) 0.66408(17) 0.64430(19)
H3 H 0.5064 0.6670 0.6049
C7 C 0.4470(5) 0.76480(19) 0.80839(19)
C8 C 0.3993(6) 0.7627(2) 0.8749(2)
H4 H 0.3278 0.7261 0.8862
C9 C 0.4574(5) 0.8150(2) 0.9252(2)
H5 H 0.4229 0.8129 0.9709
C10 C 0.5988(7) 0.8696(2) 0.8487(2)
H6 H 0.6698 0.9069 0.8385
C11 C 0.5438(7) 0.8203(2) 0.7946(2)
H7 H 0.5736 0.8252 0.7481
N1 N 0.4784(4) 0.71386(15) 0.69542(16)
N2 N 0.5573(4) 0.86741(15) 0.91413(14)
O1 O 0.4285(3) 0.55287(11) 0.54538(12)
O2 O 0.2080(4) 0.50778(13) 0.58158(13)
Cd3 Cd 0.69288(3) 0.560152(11) 0.506551(12)
C1_2 C 0.6778(5) 0.05338(17) 0.91339(18)
C2_2 C 0.6635(5) 0.10830(17) 0.85552(18)
C3_2 C 0.7503(6) 0.1062(2) 0.7986(2)
H1_2 H 0.8322 0.0704 0.7970
C4_2 C 0.7172(6) 0.1564(2) 0.7441(2)
H2_2 H 0.7737 0.1546 0.7040
C5_2 C 0.6028(6) 0.2088(2) 0.7481(2)
C6_2 C 0.5522(5) 0.16408(17) 0.85570(19)
H3_2 H 0.4936 0.1670 0.8951
C7_2 C 0.5530(5) 0.26480(19) 0.69161(19)
C8_2 C 0.6007(6) 0.2627(2) 0.6251(2)
H4_2 H 0.6722 0.2261 0.6138
C9_2 C 0.5426(5) 0.3150(2) 0.5748(2)
H5_2 H 0.5771 0.3129 0.5291
C10_2 C 0.4012(7) 0.3696(2) 0.6513(2)
H6_2 H 0.3302 0.4069 0.6615
C11_2 C 0.4562(7) 0.3203(2) 0.7054(2)
H7_2 H 0.4264 0.3252 0.7519
C14 C 0.0953(5) 0.7129(2) 0.1103(2)
H8 H 0.1529 0.7186 0.0708
C15 C 0.1446(5) 0.6611(2) 0.1619(2)
H9 H 0.2346 0.6300 0.1578
C16 C 0.0607(5) 0.6552(2) 0.2197(2)
C18 C 0.1087(5) 0.6033(2) 0.2794(2)
C19 C 0.2001(6) 0.5418(3) 0.2719(2)
H11 H 0.2320 0.5305 0.2269
C20_2 C 0.2427(6) 0.4981(2) 0.3306(2)
H12_2 H 0.3046 0.4564 0.3247
C21 C 0.1148(5) 0.5678(2) 0.4018(2)
H13 H 0.0842 0.5774 0.4474
C22 C 0.0649(5) 0.6145(2) 0.3460(2)
N1_2 N 0.5216(4) 0.21386(15) 0.80458(16)
N2_2 N 0.4427(4) 0.36741(15) 0.58587(14)
N4 N 0.2032(4) 0.51007(15) 0.39560(15)
Cd3_2 Cd 0.30712(3) 0.060152(11) 0.993449(12)
O6_2 O 0.5715(3) 0.44713(11) 0.45462(12)
C12_2 C 0.9037(6) 0.8144(2) 0.0617(2)
C13_2 C 0.9620(5) 0.7563(2) 0.1162(2)
C17_2 C 0.8866(6) 0.7451(3) 0.1743(2)
H10_2 H 0.7937 0.7744 0.1785
H14_2 H 0.9996 0.6548 0.3533
N3_2 N 0.9318(5) 0.6966(2) 0.22552(19)
O4_2 O 0.9733(4) 0.82552(16) 0.01034(17)
C1_3 C 0.6778(5) 0.44662(17) 0.41339(18)
C2_3 C 0.6635(5) 0.39170(17) 0.35552(18)
C3_3 C 0.7503(6) 0.3938(2) 0.2986(2)
H1_3 H 0.8322 0.4296 0.2970
C4_3 C 0.7172(6) 0.3436(2) 0.2441(2)
H2_3 H 0.7737 0.3454 0.2040
C5_3 C 0.6028(6) 0.2912(2) 0.2481(2)
C6_3 C 0.5522(5) 0.33592(17) 0.35570(19)
H3_3 H 0.4936 0.3330 0.3951
C7_3 C 0.5530(5) 0.23520(19) 0.19161(19)
C8_3 C 0.6007(6) 0.2373(2) 0.1251(2)
H4_3 H 0.6722 0.2739 0.1138
C9_3 C 0.5426(5) 0.1850(2) 0.0748(2)
H5_3 H 0.5771 0.1871 0.0291
C10_3 C 0.4012(7) 0.1304(2) 0.1513(2)
H6_3 H 0.3302 0.0931 0.1615
C11_3 C 0.4562(7) 0.1797(2) 0.2054(2)
H7_3 H 0.4264 0.1748 0.2519
N1_3 N 0.5216(4) 0.28614(15) 0.30458(16)
N2_3 N 0.4427(4) 0.13259(15) 0.08587(14)
O2_2 O 0.7920(4) 0.49222(13) 0.41842(13)
C20_3 C 0.2427(6) 0.0019(2) 0.8306(2)
H12_3 H 0.3046 0.0436 0.8247
O8_2 O 0.2245(4) 0.15266(14) 0.92490(14)
O7_2 O 0.2080(4) 0.99222(13) 0.08158(13)
C12_3 C 0.9037(6) 0.6856(2) 0.5617(2)
C13_3 C 0.9620(5) 0.7437(2) 0.6162(2)
C17_3 C 0.8866(6) 0.7549(3) 0.6743(2)
H10_3 H 0.7937 0.7256 0.6785
H14_3 H 0.9996 0.8452 0.8533
N3_3 N 0.9318(5) 0.8034(2) 0.72552(19)
O3_2 O 0.7755(4) 0.65266(14) 0.57510(14)
O4_3 O 0.9733(4) 0.67448(16) 0.51034(17)
C12_4 C 0.0963(6) 0.1856(2) 0.9383(2)
C13_4 C 0.0380(5) 0.2437(2) 0.8838(2)
C17_4 C 0.1134(6) 0.2549(3) 0.8257(2)
H10_4 H 0.2063 0.2256 0.8215
H14_4 H 0.0004 0.3452 0.6467
N3_4 N 0.0682(5) 0.3034(2) 0.77448(19)
O4_4 O 0.0267(4) 0.17448(16) 0.98966(17)
C1_4 C 0.3222(5) 0.94662(17) 0.08661(18)
C2_4 C 0.3365(5) 0.89170(17) 0.14448(18)
C3_4 C 0.2497(6) 0.8938(2) 0.2014(2)
H1_4 H 0.1678 0.9296 0.2030
C4_4 C 0.2828(6) 0.8436(2) 0.2559(2)
H2_4 H 0.2263 0.8454 0.2960
C5_4 C 0.3972(6) 0.7912(2) 0.2519(2)
C6_4 C 0.4478(5) 0.83592(17) 0.14430(19)
H3_4 H 0.5064 0.8330 0.1049
C7_4 C 0.4470(5) 0.73520(19) 0.30839(19)
C8_4 C 0.3993(6) 0.7373(2) 0.3749(2)
H4_4 H 0.3278 0.7739 0.3862
C9_4 C 0.4574(5) 0.6850(2) 0.4252(2)
H5_4 H 0.4229 0.6871 0.4709
C10_4 C 0.5988(7) 0.6304(2) 0.3487(2)
H6_4 H 0.6698 0.5931 0.3385
C11_4 C 0.5438(7) 0.6797(2) 0.2946(2)
H7_4 H 0.5736 0.6748 0.2481
C14_2 C 0.9047(5) 0.2871(2) 0.8897(2)
H8_2 H 0.8471 0.2814 0.9292
C15_2 C 0.8554(5) 0.3389(2) 0.8381(2)
H9_2 H 0.7654 0.3700 0.8422
C16_2 C 0.9393(5) 0.3448(2) 0.7803(2)
C18_2 C 0.8913(5) 0.3967(2) 0.7206(2)
C19_2 C 0.7999(6) 0.4582(3) 0.7281(2)
H11_2 H 0.7680 0.4695 0.7731
C20_4 C 0.7573(6) 0.5019(2) 0.6694(2)
H12_4 H 0.6954 0.5436 0.6753
C21_2 C 0.8852(5) 0.4322(2) 0.5982(2)
H13_2 H 0.9158 0.4226 0.5526
C22_2 C 0.9351(5) 0.3855(2) 0.6540(2)
N1_4 N 0.4784(4) 0.78614(15) 0.19542(16)
N2_4 N 0.5573(4) 0.63259(15) 0.41413(14)
N4_2 N 0.7968(4) 0.48993(15) 0.60440(15)
C14_3 C 0.9047(5) 0.2129(2) 0.3897(2)
H8_3 H 0.8471 0.2186 0.4292
C15_3 C 0.8554(5) 0.1611(2) 0.3381(2)
H9_3 H 0.7654 0.1300 0.3422
C16_3 C 0.9393(5) 0.1552(2) 0.2803(2)
C18_3 C 0.8913(5) 0.1033(2) 0.2206(2)
C19_3 C 0.7999(6) 0.0418(3) 0.2281(2)
H11_3 H 0.7680 0.0305 0.2731
C21_3 C 0.8852(5) 0.0678(2) 0.0982(2)
H13_3 H 0.9158 0.0774 0.0526
C22_3 C 0.9351(5) 0.1145(2) 0.1540(2)
N4_3 N 0.7968(4) 0.01007(15) 0.10440(15)
C14_4 C 0.0953(5) 0.7871(2) 0.6103(2)
H8_4 H 0.1529 0.7814 0.5708
C15_4 C 0.1446(5) 0.8389(2) 0.6619(2)
H9_4 H 0.2346 0.8700 0.6578
C16_4 C 0.0607(5) 0.8448(2) 0.7197(2)
C18_4 C 0.1087(5) 0.8967(2) 0.7794(2)
C19_4 C 0.2001(6) 0.9582(3) 0.7719(2)
H11_4 H 0.2320 0.9695 0.7269
C21_4 C 0.1148(5) 0.9322(2) 0.9018(2)
H13_4 H 0.0842 0.9226 0.9474
C22_4 C 0.0649(5) 0.8855(2) 0.8460(2)
N4_4 N 0.2032(4) 0.98993(15) 0.89560(15)
loop_
_geom_bond_atom_site_label_1
_geom_bond_atom_site_label_2
_geom_bond_site_symmetry_1
_geom_bond_site_symmetry_2
C12 C13 1_555 1_555
C17 C13 1_555 1_555
H10 C17 1_555 1_555
O3 C12 1_555 1_555
O4 C12 1_555 1_555
Cd4 O3 1_555 1_555
C17 N3 1_555 1_555
H12 C20 1_555 1_555
O6 Cd1 1_555 1_555
O8 Cd1 1_555 1_555
C1 C2 1_555 1_555
C2 C3 1_555 1_555
C3 H1 1_555 1_555
C4 C3 1_555 1_555
H2 C4 1_555 1_555
C5 C4 1_555 1_555
C6 C2 1_555 1_555
H3 C6 1_555 1_555
C7 C5 1_555 1_555
C8 C7 1_555 1_555
H4 C8 1_555 1_555
C9 C8 1_555 1_555
H5 C9 1_555 1_555
C10 H6 1_555 1_555
C11 C7 1_555 1_555
H7 C11 1_555 1_555
N1 C5 1_555 1_555
N2 C9 1_555 1_555
O1 C1 1_555 1_555
O2 C1 1_555 1_555
Cd4 O1 1_555 1_555
Cd3 O1 1_555 1_555
C6 N1 1_555 1_555
C10 C11 1_555 1_555
C10 N2 1_555 1_555
O2 Cd4 1_555 1_555
Cd4 N2_2 1_555 1_555
C1_2 C2_2 1_555 1_555
C2_2 C3_2 1_555 1_555
C3_2 H1_2 1_555 1_555
C4_2 C3_2 1_555 1_555
H2_2 C4_2 1_555 1_555
C5_2 C4_2 1_555 1_555
C6_2 C2_2 1_555 1_555
H3_2 C6_2 1_555 1_555
C7_2 C5_2 1_555 1_555
C8_2 C7_2 1_555 1_555
H4_2 C8_2 1_555 1_555
C9_2 C8_2 1_555 1_555
H5_2 C9_2 1_555 1_555
C10_2 H6_2 1_555 1_555
C11_2 C7_2 1_555 1_555
H7_2 C11_2 1_555 1_555
C14 H8 1_555 1_555
C15 C14 1_555 1_555
H9 C15 1_555 1_555
C16 C15 1_555 1_555
C18 C16 1_555 1_555
C19 C18 1_555 1_555
H11 C19 1_555 1_555
C20_2 C19 1_555 1_555
H12_2 C20_2 1_555 1_555
C21 H13 1_555 1_555
C22 C18 1_555 1_555
N1_2 C5_2 1_555 1_555
N2_2 C9_2 1_555 1_555
N4 Cd4 1_555 1_555
O5 C1_2 1_555 1_555
O7 C1_2 1_555 1_555
Cd3_2 O5 1_555 1_555
O6_2 Cd4 1_555 1_555
C6_2 N1_2 1_555 1_555
C10_2 C11_2 1_555 1_555
C10_2 N2_2 1_555 1_555
C20_2 N4 1_555 1_555
C21 C22 1_555 1_555
C21 N4 1_555 1_555
C12_2 C13_2 1_555 1_555
C17_2 C13_2 1_555 1_555
H10_2 C17_2 1_555 1_555
O8 C12_2 1_555 1_555
O4_2 C12_2 1_555 1_555
C17_2 N3_2 1_555 1_555
C1_3 C2_3 1_555 1_555
C2_3 C3_3 1_555 1_555
C3_3 H1_3 1_555 1_555
C4_3 C3_3 1_555 1_555
H2_3 C4_3 1_555 1_555
C5_3 C4_3 1_555 1_555
C6_3 C2_3 1_555 1_555
H3_3 C6_3 1_555 1_555
C7_3 C5_3 1_555 1_555
C8_3 C7_3 1_555 1_555
H4_3 C8_3 1_555 1_555
C9_3 C8_3 1_555 1_555
H5_3 C9_3 1_555 1_555
C10_3 H6_3 1_555 1_555
C11_3 C7_3 1_555 1_555
H7_3 C11_3 1_555 1_555
N1_3 C5_3 1_555 1_555
N2_3 C9_3 1_555 1_555
O6_2 C1_3 1_555 1_555
O2_2 C1_3 1_555 1_555
Cd3 O6_2 1_555 1_555
C6_3 N1_3 1_555 1_555
C10_3 C11_3 1_555 1_555
C10_3 N2_3 1_555 1_555
O2_2 Cd3 1_555 1_555
H12_3 C20_3 1_555 1_555
O8_2 Cd3_2 1_555 1_555
C12_3 C13_3 1_555 1_555
C17_3 C13_3 1_555 1_555
H10_3 C17_3 1_555 1_555
O3_2 C12_3 1_555 1_555
O4_3 C12_3 1_555 1_555
Cd3 O3_2 1_555 1_555
C17_3 N3_3 1_555 1_555
C12_4 C13_4 1_555 1_555
C17_4 C13_4 1_555 1_555
H10_4 C17_4 1_555 1_555
O8_2 C12_4 1_555 1_555
O4_4 C12_4 1_555 1_555
C17_4 N3_4 1_555 1_555
Cd3 N2_4 1_555 1_555
C1_4 C2_4 1_555 1_555
C2_4 C3_4 1_555 1_555
C3_4 H1_4 1_555 1_555
C4_4 C3_4 1_555 1_555
H2_4 C4_4 1_555 1_555
C5_4 C4_4 1_555 1_555
C6_4 C2_4 1_555 1_555
H3_4 C6_4 1_555 1_555
C7_4 C5_4 1_555 1_555
C8_4 C7_4 1_555 1_555
H4_4 C8_4 1_555 1_555
C9_4 C8_4 1_555 1_555
H5_4 C9_4 1_555 1_555
C10_4 H6_4 1_555 1_555
C11_4 C7_4 1_555 1_555
H7_4 C11_4 1_555 1_555
C14_2 H8_2 1_555 1_555
C15_2 C14_2 1_555 1_555
H9_2 C15_2 1_555 1_555
C16_2 C15_2 1_555 1_555
C18_2 C16_2 1_555 1_555
C19_2 C18_2 1_555 1_555
H11_2 C19_2 1_555 1_555
C20_4 C19_2 1_555 1_555
H12_4 C20_4 1_555 1_555
C21_2 H13_2 1_555 1_555
C22_2 C18_2 1_555 1_555
N1_4 C5_4 1_555 1_555
N2_4 C9_4 1_555 1_555
N4_2 Cd3 1_555 1_555
O6 C1_4 1_555 1_555
O7_2 C1_4 1_555 1_555
C6_4 N1_4 1_555 1_555
C10_4 C11_4 1_555 1_555
C10_4 N2_4 1_555 1_555
C20_4 N4_2 1_555 1_555
C21_2 C22_2 1_555 1_555
C21_2 N4_2 1_555 1_555
C14_3 H8_3 1_555 1_555
C15_3 C14_3 1_555 1_555
H9_3 C15_3 1_555 1_555
C16_3 C15_3 1_555 1_555
C18_3 C16_3 1_555 1_555
C19_3 C18_3 1_555 1_555
H11_3 C19_3 1_555 1_555
C21_3 H13_3 1_555 1_555
C22_3 C18_3 1_555 1_555
C21_3 C22_3 1_555 1_555
C21_3 N4_3 1_555 1_555
C14_4 H8_4 1_555 1_555
C15_4 C14_4 1_555 1_555
H9_4 C15_4 1_555 1_555
C16_4 C15_4 1_555 1_555
C18_4 C16_4 1_555 1_555
C19_4 C18_4 1_555 1_555
H11_4 C19_4 1_555 1_555
C21_4 H13_4 1_555 1_555
C22_4 C18_4 1_555 1_555
C21_4 C22_4 1_555 1_555
C21_4 N4_4 1_555 1_555

#END
