
###############################################################################
#
# This file contains modified crystal structure data generated from the
# MOF subset of the Cambridge Structural Database (CSD) v543 
# hosted by the Cambridge Crystallographic Data Centre (CCDC).
#
# This work is licensed under the Creative Commons
# Attribution-NonCommercial-ShareAlike 4.0 International License.
# To view a copy of this license, visit
# http://creativecommons.org/licenses/by-nc-sa/4.0/
# or send a letter to
# Creative Commons, PO Box 1866, Mountain View, CA 94042, USA.
#
# CIF created using the CSD Python API on 29 September 2022
# The structure has been converted into the P1 space group
# The structure has a 3D framework
# The original CSD entry GALHUY is in the orthorhombic crystal system
# The framework has been calculated to contain at least 10.0% void space
# The void calculation uses a probe of radius 1.32A, grid spacing 0.4
#
###############################################################################

data_GALHUY
_chemical_formula_moiety         '(C896 H512 In32 O256)n'
_symmetry_cell_setting           triclinic
_symmetry_space_group_name_H-M   'P 1'
_symmetry_Int_Tables_number      1
_space_group_name_Hall           'P 1'
loop_
_symmetry_equiv_pos_site_id
_symmetry_equiv_pos_as_xyz
1 x,y,z
_cell_length_a                   23.088(3)
_cell_length_b                   39.262(5)
_cell_length_c                   41.133(5)
_cell_angle_alpha                90
_cell_angle_beta                 90
_cell_angle_gamma                90
_cell_volume                     37286.3
loop_
_atom_site_label
_atom_site_type_symbol
_atom_site_fract_x
_atom_site_fract_y
_atom_site_fract_z
In1 In 0.1250 0.490528(15) 0.1250
O1 O 0.1375(2) 0.45049(13) 0.08550(12)
O2 O 0.0508(2) 0.46450(12) 0.09992(11)
C1 C 0.0834(4) 0.44766(18) 0.08239(18)
C2 C 0.0609(4) 0.42398(18) 0.05759(18)
C3 C 0.0954(4) 0.4111(2) 0.0318(2)
H1 H 0.1336 0.4183 0.0298
C4 C 0.0734(4) 0.3881(2) 0.0098(2)
C5 C 0.0147(4) 0.3787(2) 0.01054(18)
C7 C 0.0026(4) 0.41463(19) 0.05817(17)
In2 In 0.3750 0.240528(15) 0.3750
O5 O 0.1125(2) 0.45049(13) 0.16450(12)
O6 O 0.1992(2) 0.46450(12) 0.15008(11)
O7 O 0.3856(3) 0.27883(16) 0.33316(14)
O8 O 0.1144(3) 0.52883(16) 0.08316(14)
O9 O 0.1356(3) 0.52883(16) 0.16684(14)
O10 O 0.3000(3) 0.26976(14) 0.35280(13)
O11 O 0.2000(3) 0.51976(14) 0.10280(13)
O12 O 0.0500(3) 0.51976(14) 0.14720(13)
C15 C 0.1666(4) 0.44766(18) 0.16761(18)
C16 C 0.1891(4) 0.42398(18) 0.19241(18)
C17 C 0.1546(4) 0.4111(2) 0.2182(2)
H9 H 0.1164 0.4183 0.2202
C18 C 0.1766(4) 0.3881(2) 0.2402(2)
H10 H 0.1523 0.3787 0.2559
C19 C 0.2353(4) 0.3787(2) 0.23946(18)
C20 C 0.2693(4) 0.39179(19) 0.2150(2)
H11 H 0.3080 0.3854 0.2139
C21 C 0.2474(4) 0.41463(19) 0.19183(17)
H12 H 0.2718 0.4236 0.1760
C22 C 0.2606(4) 0.3542(2) 0.26307(19)
C23 C 0.3144(5) 0.3463(3) 0.2639(3)
H13 H 0.3390 0.3565 0.2488
C24 C 0.3380(5) 0.3238(3) 0.2856(3)
H14 H 0.3773 0.3187 0.2842
C25 C 0.3068(5) 0.3091(2) 0.3084(2)
C26 C 0.2493(6) 0.3147(3) 0.3067(2)
H15 H 0.2245 0.3032 0.3208
C27 C 0.2272(5) 0.3372(3) 0.2844(2)
H16 H 0.1874 0.3409 0.2841
C28 C 0.3321(5) 0.2843(2) 0.3335(2)
O3 O 0.8644(3) 0.27883(16) 0.91684(14)
O4 O 0.9500(3) 0.26976(14) 0.89720(13)
C8 C 0.9894(4) 0.3542(2) 0.98693(19)
C9 C 0.9356(5) 0.3463(3) 0.9861(3)
C10 C 0.9120(5) 0.3238(3) 0.9644(3)
H6 H 0.8727 0.3187 0.9658
C11 C 0.9432(5) 0.3091(2) 0.9416(2)
C14 C 0.9179(5) 0.2843(2) 0.9165(2)
In3 In 0.8750 0.240528(15) 0.8750
In1_2 In 0.6250 0.490528(15) 0.6250
O1_2 O 0.6125(2) 0.45049(13) 0.66450(12)
O2_2 O 0.6992(2) 0.46450(12) 0.65008(11)
O3_2 O 0.8856(3) 0.27883(16) 0.83316(14)
O4_2 O 0.8000(3) 0.26976(14) 0.85280(13)
C1_2 C 0.6666(4) 0.44766(18) 0.66761(18)
C2_2 C 0.6891(4) 0.42398(18) 0.69241(18)
C3_2 C 0.6546(4) 0.4111(2) 0.7182(2)
H1_2 H 0.6164 0.4183 0.7202
C4_2 C 0.6766(4) 0.3881(2) 0.7402(2)
H2 H 0.6523 0.3787 0.7559
C5_2 C 0.7353(4) 0.3787(2) 0.73946(18)
C6 C 0.7693(4) 0.39179(19) 0.7150(2)
H3 H 0.8080 0.3854 0.7139
C7_2 C 0.7474(4) 0.41463(19) 0.69183(17)
H4 H 0.7718 0.4236 0.6760
C8_2 C 0.7606(4) 0.3542(2) 0.76307(19)
C9_2 C 0.8144(5) 0.3463(3) 0.7639(3)
H5 H 0.8390 0.3565 0.7488
C10_2 C 0.8380(5) 0.3238(3) 0.7856(3)
H6_2 H 0.8773 0.3187 0.7842
C11_2 C 0.8068(5) 0.3091(2) 0.8084(2)
C12 C 0.7493(6) 0.3147(3) 0.8067(2)
H7 H 0.7245 0.3032 0.8208
C13 C 0.7272(5) 0.3372(3) 0.7844(2)
H8 H 0.6874 0.3409 0.7841
C14_2 C 0.8321(5) 0.2843(2) 0.8335(2)
O5_2 O 0.6375(2) 0.45049(13) 0.58550(12)
O6_2 O 0.5508(2) 0.46450(12) 0.59992(11)
O7_2 O 0.3644(3) 0.27883(16) 0.41684(14)
O8_2 O 0.6356(3) 0.52883(16) 0.66684(14)
O9_2 O 0.6144(3) 0.52883(16) 0.58316(14)
O10_2 O 0.4500(3) 0.26976(14) 0.39720(13)
O11_2 O 0.5500(3) 0.51976(14) 0.64720(13)
O12_2 O 0.7000(3) 0.51976(14) 0.60280(13)
C15_2 C 0.5834(4) 0.44766(18) 0.58239(18)
C16_2 C 0.5609(4) 0.42398(18) 0.55759(18)
C17_2 C 0.5954(4) 0.4111(2) 0.5318(2)
H9_2 H 0.6336 0.4183 0.5298
C18_2 C 0.5734(4) 0.3881(2) 0.5098(2)
H10_2 H 0.5977 0.3787 0.4941
C19_2 C 0.5147(4) 0.3787(2) 0.51054(18)
C20_2 C 0.4807(4) 0.39179(19) 0.5350(2)
H11_2 H 0.4420 0.3854 0.5361
C21_2 C 0.5026(4) 0.41463(19) 0.55817(17)
H12_2 H 0.4782 0.4236 0.5740
C22_2 C 0.4894(4) 0.3542(2) 0.48693(19)
C23_2 C 0.4356(5) 0.3463(3) 0.4861(3)
H13_2 H 0.4110 0.3565 0.5012
C24_2 C 0.4120(5) 0.3238(3) 0.4644(3)
H14_2 H 0.3727 0.3187 0.4658
C25_2 C 0.4432(5) 0.3091(2) 0.4416(2)
C26_2 C 0.5007(6) 0.3147(3) 0.4433(2)
H15_2 H 0.5255 0.3032 0.4292
C27_2 C 0.5228(5) 0.3372(3) 0.4656(2)
H16_2 H 0.5626 0.3409 0.4659
C28_2 C 0.4179(5) 0.2843(2) 0.4165(2)
O8_3 O 0.1144(3) 0.02883(16) 0.58316(14)
O9_3 O 0.1356(3) 0.02883(16) 0.66684(14)
O11_3 O 0.2000(3) 0.01976(14) 0.60280(13)
O12_3 O 0.0500(3) 0.01976(14) 0.64720(13)
In1_3 In 0.1250 0.990528(15) 0.6250
O1_3 O 0.1375(2) 0.95049(13) 0.58550(12)
O2_3 O 0.0508(2) 0.96450(12) 0.59992(11)
C1_3 C 0.0834(4) 0.94766(18) 0.58239(18)
C2_3 C 0.0609(4) 0.92398(18) 0.55759(18)
C3_3 C 0.0954(4) 0.9111(2) 0.5318(2)
H1_3 H 0.1336 0.9183 0.5298
C4_3 C 0.0734(4) 0.8881(2) 0.5098(2)
H2_2 H 0.0977 0.8787 0.4941
C5_3 C 0.0147(4) 0.8787(2) 0.51054(18)
C7_3 C 0.0026(4) 0.91463(19) 0.55817(17)
C12_2 C 0.0007(6) 0.8147(3) 0.4433(2)
H7_2 H 0.0255 0.8032 0.4292
C13_2 C 0.0228(5) 0.8372(3) 0.4656(2)
H8_2 H 0.0626 0.8409 0.4659
In2_2 In 0.3750 0.740528(15) 0.8750
O5_3 O 0.1125(2) 0.95049(13) 0.66450(12)
O6_3 O 0.1992(2) 0.96450(12) 0.65008(11)
O7_3 O 0.3856(3) 0.77883(16) 0.83316(14)
O10_3 O 0.3000(3) 0.76976(14) 0.85280(13)
C15_3 C 0.1666(4) 0.94766(18) 0.66761(18)
C16_3 C 0.1891(4) 0.92398(18) 0.69241(18)
C17_3 C 0.1546(4) 0.9111(2) 0.7182(2)
H9_3 H 0.1164 0.9183 0.7202
C18_3 C 0.1766(4) 0.8881(2) 0.7402(2)
H10_3 H 0.1523 0.8787 0.7559
C19_3 C 0.2353(4) 0.8787(2) 0.73946(18)
C20_3 C 0.2693(4) 0.89179(19) 0.7150(2)
H11_3 H 0.3080 0.8854 0.7139
C21_3 C 0.2474(4) 0.91463(19) 0.69183(17)
H12_3 H 0.2718 0.9236 0.6760
C22_3 C 0.2606(4) 0.8542(2) 0.76307(19)
C23_3 C 0.3144(5) 0.8463(3) 0.7639(3)
H13_3 H 0.3390 0.8565 0.7488
C24_3 C 0.3380(5) 0.8238(3) 0.7856(3)
H14_3 H 0.3773 0.8187 0.7842
C25_3 C 0.3068(5) 0.8091(2) 0.8084(2)
C26_3 C 0.2493(6) 0.8147(3) 0.8067(2)
H15_3 H 0.2245 0.8032 0.8208
C27_3 C 0.2272(5) 0.8372(3) 0.7844(2)
H16_3 H 0.1874 0.8409 0.7841
C28_3 C 0.3321(5) 0.7843(2) 0.8335(2)
O3_3 O 0.8644(3) 0.77883(16) 0.41684(14)
O4_3 O 0.9500(3) 0.76976(14) 0.39720(13)
C6_2 C 0.9807(4) 0.89179(19) 0.5350(2)
H3_2 H 0.9420 0.8854 0.5361
H4_2 H 0.9782 0.9236 0.5740
C8_3 C 0.9894(4) 0.8542(2) 0.48693(19)
C9_3 C 0.9356(5) 0.8463(3) 0.4861(3)
H5_2 H 0.9110 0.8565 0.5012
C10_3 C 0.9120(5) 0.8238(3) 0.4644(3)
H6_3 H 0.8727 0.8187 0.4658
C11_3 C 0.9432(5) 0.8091(2) 0.4416(2)
C14_3 C 0.9179(5) 0.7843(2) 0.4165(2)
In3_2 In 0.8750 0.740528(15) 0.3750
O8_4 O 0.6356(3) 0.02883(16) 0.16684(14)
O9_4 O 0.6144(3) 0.02883(16) 0.08316(14)
O11_4 O 0.5500(3) 0.01976(14) 0.14720(13)
O12_4 O 0.7000(3) 0.01976(14) 0.10280(13)
In1_4 In 0.6250 0.990528(15) 0.1250
O1_4 O 0.6125(2) 0.95049(13) 0.16450(12)
O2_4 O 0.6992(2) 0.96450(12) 0.15008(11)
O3_4 O 0.8856(3) 0.77883(16) 0.33316(14)
O4_4 O 0.8000(3) 0.76976(14) 0.35280(13)
C1_4 C 0.6666(4) 0.94766(18) 0.16761(18)
C2_4 C 0.6891(4) 0.92398(18) 0.19241(18)
C3_4 C 0.6546(4) 0.9111(2) 0.2182(2)
H1_4 H 0.6164 0.9183 0.2202
C4_4 C 0.6766(4) 0.8881(2) 0.2402(2)
H2_3 H 0.6523 0.8787 0.2559
C5_4 C 0.7353(4) 0.8787(2) 0.23946(18)
C6_3 C 0.7693(4) 0.89179(19) 0.2150(2)
H3_3 H 0.8080 0.8854 0.2139
C7_4 C 0.7474(4) 0.91463(19) 0.19183(17)
H4_3 H 0.7718 0.9236 0.1760
C8_4 C 0.7606(4) 0.8542(2) 0.26307(19)
C9_4 C 0.8144(5) 0.8463(3) 0.2639(3)
H5_3 H 0.8390 0.8565 0.2488
C10_4 C 0.8380(5) 0.8238(3) 0.2856(3)
H6_4 H 0.8773 0.8187 0.2842
C11_4 C 0.8068(5) 0.8091(2) 0.3084(2)
C12_3 C 0.7493(6) 0.8147(3) 0.3067(2)
H7_3 H 0.7245 0.8032 0.3208
C13_3 C 0.7272(5) 0.8372(3) 0.2844(2)
H8_3 H 0.6874 0.8409 0.2841
C14_4 C 0.8321(5) 0.7843(2) 0.3335(2)
O5_4 O 0.6375(2) 0.95049(13) 0.08550(12)
O6_4 O 0.5508(2) 0.96450(12) 0.09992(11)
C15_4 C 0.5834(4) 0.94766(18) 0.08239(18)
C16_4 C 0.5609(4) 0.92398(18) 0.05759(18)
C17_4 C 0.5954(4) 0.9111(2) 0.0318(2)
H9_4 H 0.6336 0.9183 0.0298
C18_4 C 0.5734(4) 0.8881(2) 0.0098(2)
C19_4 C 0.5147(4) 0.8787(2) 0.01054(18)
C20_4 C 0.4807(4) 0.89179(19) 0.0350(2)
H11_4 H 0.4420 0.8854 0.0361
C21_4 C 0.5026(4) 0.91463(19) 0.05817(17)
H12_4 H 0.4782 0.9236 0.0740
H13_4 H 0.4110 0.8565 0.0012
O7_4 O 0.3644(3) 0.77883(16) 0.91684(14)
O10_4 O 0.4500(3) 0.76976(14) 0.89720(13)
H10_4 H 0.5977 0.8787 0.9941
C22_4 C 0.4894(4) 0.8542(2) 0.98693(19)
C23_4 C 0.4356(5) 0.8463(3) 0.9861(3)
C24_4 C 0.4120(5) 0.8238(3) 0.9644(3)
H14_4 H 0.3727 0.8187 0.9658
C25_4 C 0.4432(5) 0.8091(2) 0.9416(2)
C26_4 C 0.5007(6) 0.8147(3) 0.9433(2)
H15_4 H 0.5255 0.8032 0.9292
C27_4 C 0.5228(5) 0.8372(3) 0.9656(2)
H16_4 H 0.5626 0.8409 0.9659
C28_4 C 0.4179(5) 0.7843(2) 0.9165(2)
H2_4 H 0.3477 0.6287 0.0059
C8_5 C 0.2394(4) 0.6042(2) 0.01307(19)
C9_5 C 0.1856(5) 0.5963(3) 0.0139(3)
C10_5 C 0.1620(5) 0.5738(3) 0.0356(3)
H6_5 H 0.1227 0.5687 0.0342
C11_5 C 0.1932(5) 0.5591(2) 0.0584(2)
C12_4 C 0.2507(6) 0.5647(3) 0.0567(2)
H7_4 H 0.2755 0.5532 0.0708
C13_4 C 0.2728(5) 0.5872(3) 0.0344(2)
H8_4 H 0.3126 0.5909 0.0341
C14_5 C 0.1679(5) 0.5343(2) 0.0835(2)
O1_5 O 0.3875(2) 0.70049(13) 0.91450(12)
O2_5 O 0.3008(2) 0.71450(12) 0.90008(11)
C1_5 C 0.3334(4) 0.69766(18) 0.91761(18)
C2_5 C 0.3109(4) 0.67398(18) 0.94241(18)
C3_5 C 0.3454(4) 0.6611(2) 0.9682(2)
H1_5 H 0.3836 0.6683 0.9702
C4_5 C 0.3234(4) 0.6381(2) 0.9902(2)
C5_5 C 0.2647(4) 0.6287(2) 0.98946(18)
C6_4 C 0.2307(4) 0.64179(19) 0.9650(2)
H3_4 H 0.1920 0.6354 0.9639
C7_5 C 0.2526(4) 0.66463(19) 0.94183(17)
H4_4 H 0.2282 0.6736 0.9260
H5_4 H 0.1610 0.6065 0.9988
O5_5 O 0.3625(2) 0.70049(13) 0.83550(12)
O6_5 O 0.4492(2) 0.71450(12) 0.84992(11)
C15_5 C 0.4166(4) 0.69766(18) 0.83239(18)
C16_5 C 0.4391(4) 0.67398(18) 0.80759(18)
C17_5 C 0.4046(4) 0.6611(2) 0.7818(2)
H9_5 H 0.3664 0.6683 0.7798
C18_5 C 0.4266(4) 0.6381(2) 0.7598(2)
H10_5 H 0.4023 0.6287 0.7441
C19_5 C 0.4853(4) 0.6287(2) 0.76054(18)
C20_5 C 0.5193(4) 0.64179(19) 0.7850(2)
H11_5 H 0.5580 0.6354 0.7861
C21_5 C 0.4974(4) 0.66463(19) 0.80817(17)
H12_5 H 0.5218 0.6736 0.8240
C22_5 C 0.5106(4) 0.6042(2) 0.73693(19)
C23_5 C 0.5644(5) 0.5963(3) 0.7361(3)
H13_5 H 0.5890 0.6065 0.7512
C24_5 C 0.5880(5) 0.5738(3) 0.7144(3)
H14_5 H 0.6273 0.5687 0.7158
C25_5 C 0.5568(5) 0.5591(2) 0.6916(2)
C26_5 C 0.4993(6) 0.5647(3) 0.6933(2)
H15_5 H 0.4745 0.5532 0.6792
C27_5 C 0.4772(5) 0.5872(3) 0.7156(2)
H16_5 H 0.4374 0.5909 0.7159
C28_5 C 0.5821(5) 0.5343(2) 0.6665(2)
C6_5 C 0.0193(4) 0.64179(19) 0.2850(2)
H3_5 H 0.0580 0.6354 0.2861
H4_5 H 0.0218 0.6736 0.3240
C8_6 C 0.0106(4) 0.6042(2) 0.23693(19)
C9_6 C 0.0644(5) 0.5963(3) 0.2361(3)
H5_5 H 0.0890 0.6065 0.2512
C10_6 C 0.0880(5) 0.5738(3) 0.2144(3)
H6_6 H 0.1273 0.5687 0.2158
C11_6 C 0.0568(5) 0.5591(2) 0.1916(2)
C14_6 C 0.0821(5) 0.5343(2) 0.1665(2)
O1_6 O 0.8625(2) 0.70049(13) 0.33550(12)
O2_6 O 0.9492(2) 0.71450(12) 0.34992(11)
C1_6 C 0.9166(4) 0.69766(18) 0.33239(18)
C2_6 C 0.9391(4) 0.67398(18) 0.30759(18)
C3_6 C 0.9046(4) 0.6611(2) 0.2818(2)
H1_6 H 0.8664 0.6683 0.2798
C4_6 C 0.9266(4) 0.6381(2) 0.2598(2)
H2_5 H 0.9023 0.6287 0.2441
C5_6 C 0.9853(4) 0.6287(2) 0.26054(18)
C7_6 C 0.9974(4) 0.66463(19) 0.30817(17)
C12_5 C 0.9993(6) 0.5647(3) 0.1933(2)
H7_5 H 0.9745 0.5532 0.1792
C13_5 C 0.9772(5) 0.5872(3) 0.2156(2)
H8_5 H 0.9374 0.5909 0.2159
O5_6 O 0.8875(2) 0.70049(13) 0.41450(12)
O6_6 O 0.8008(2) 0.71450(12) 0.40008(11)
C15_6 C 0.8334(4) 0.69766(18) 0.41761(18)
C16_6 C 0.8109(4) 0.67398(18) 0.44241(18)
C17_6 C 0.8454(4) 0.6611(2) 0.4682(2)
H9_6 H 0.8836 0.6683 0.4702
C18_6 C 0.8234(4) 0.6381(2) 0.4902(2)
H10_6 H 0.8477 0.6287 0.5059
C19_6 C 0.7647(4) 0.6287(2) 0.48946(18)
C20_6 C 0.7307(4) 0.64179(19) 0.4650(2)
H11_6 H 0.6920 0.6354 0.4639
C21_6 C 0.7526(4) 0.66463(19) 0.44183(17)
H12_6 H 0.7282 0.6736 0.4260
C22_6 C 0.7394(4) 0.6042(2) 0.51307(19)
C23_6 C 0.6856(5) 0.5963(3) 0.5139(3)
H13_6 H 0.6610 0.6065 0.4988
C24_6 C 0.6620(5) 0.5738(3) 0.5356(3)
H14_6 H 0.6227 0.5687 0.5342
C25_6 C 0.6932(5) 0.5591(2) 0.5584(2)
C26_6 C 0.7507(6) 0.5647(3) 0.5567(2)
H15_6 H 0.7755 0.5532 0.5708
C27_6 C 0.7728(5) 0.5872(3) 0.5344(2)
H16_6 H 0.8126 0.5909 0.5341
C28_6 C 0.6679(5) 0.5343(2) 0.5835(2)
O1_7 O 0.3875(2) 0.20049(13) 0.41450(12)
O2_7 O 0.3008(2) 0.21450(12) 0.40008(11)
C1_7 C 0.3334(4) 0.19766(18) 0.41761(18)
C2_7 C 0.3109(4) 0.17398(18) 0.44241(18)
C3_7 C 0.3454(4) 0.1611(2) 0.4682(2)
H1_7 H 0.3836 0.1683 0.4702
C4_7 C 0.3234(4) 0.1381(2) 0.4902(2)
H2_6 H 0.3477 0.1287 0.5059
C5_7 C 0.2647(4) 0.1287(2) 0.48946(18)
C6_6 C 0.2307(4) 0.14179(19) 0.4650(2)
H3_6 H 0.1920 0.1354 0.4639
C7_7 C 0.2526(4) 0.16463(19) 0.44183(17)
H4_6 H 0.2282 0.1736 0.4260
C8_7 C 0.2394(4) 0.1042(2) 0.51307(19)
C9_7 C 0.1856(5) 0.0963(3) 0.5139(3)
H5_6 H 0.1610 0.1065 0.4988
C10_7 C 0.1620(5) 0.0738(3) 0.5356(3)
H6_7 H 0.1227 0.0687 0.5342
C11_7 C 0.1932(5) 0.0591(2) 0.5584(2)
C12_6 C 0.2507(6) 0.0647(3) 0.5567(2)
H7_6 H 0.2755 0.0532 0.5708
C13_6 C 0.2728(5) 0.0872(3) 0.5344(2)
H8_6 H 0.3126 0.0909 0.5341
C14_7 C 0.1679(5) 0.0343(2) 0.5835(2)
O5_7 O 0.3625(2) 0.20049(13) 0.33550(12)
O6_7 O 0.4492(2) 0.21450(12) 0.34992(11)
C15_7 C 0.4166(4) 0.19766(18) 0.33239(18)
C16_7 C 0.4391(4) 0.17398(18) 0.30759(18)
C17_7 C 0.4046(4) 0.1611(2) 0.2818(2)
H9_7 H 0.3664 0.1683 0.2798
C18_7 C 0.4266(4) 0.1381(2) 0.2598(2)
H10_7 H 0.4023 0.1287 0.2441
C19_7 C 0.4853(4) 0.1287(2) 0.26054(18)
C20_7 C 0.5193(4) 0.14179(19) 0.2850(2)
H11_7 H 0.5580 0.1354 0.2861
C21_7 C 0.4974(4) 0.16463(19) 0.30817(17)
H12_7 H 0.5218 0.1736 0.3240
C22_7 C 0.5106(4) 0.1042(2) 0.23693(19)
C23_7 C 0.5644(5) 0.0963(3) 0.2361(3)
H13_7 H 0.5890 0.1065 0.2512
C24_7 C 0.5880(5) 0.0738(3) 0.2144(3)
H14_7 H 0.6273 0.0687 0.2158
C25_7 C 0.5568(5) 0.0591(2) 0.1916(2)
C26_7 C 0.4993(6) 0.0647(3) 0.1933(2)
H15_7 H 0.4745 0.0532 0.1792
C27_7 C 0.4772(5) 0.0872(3) 0.2156(2)
H16_7 H 0.4374 0.0909 0.2159
C28_7 C 0.5821(5) 0.0343(2) 0.1665(2)
C6_7 C 0.0193(4) 0.14179(19) 0.7850(2)
H3_7 H 0.0580 0.1354 0.7861
H4_7 H 0.0218 0.1736 0.8240
C8_8 C 0.0106(4) 0.1042(2) 0.73693(19)
C9_8 C 0.0644(5) 0.0963(3) 0.7361(3)
H5_7 H 0.0890 0.1065 0.7512
C10_8 C 0.0880(5) 0.0738(3) 0.7144(3)
H6_8 H 0.1273 0.0687 0.7158
C11_8 C 0.0568(5) 0.0591(2) 0.6916(2)
C14_8 C 0.0821(5) 0.0343(2) 0.6665(2)
H10_8 H 0.8477 0.1287 0.0059
C22_8 C 0.7394(4) 0.1042(2) 0.01307(19)
C23_8 C 0.6856(5) 0.0963(3) 0.0139(3)
C24_8 C 0.6620(5) 0.0738(3) 0.0356(3)
H14_8 H 0.6227 0.0687 0.0342
C25_8 C 0.6932(5) 0.0591(2) 0.0584(2)
C26_8 C 0.7507(6) 0.0647(3) 0.0567(2)
H15_8 H 0.7755 0.0532 0.0708
C27_8 C 0.7728(5) 0.0872(3) 0.0344(2)
H16_8 H 0.8126 0.0909 0.0341
C28_8 C 0.6679(5) 0.0343(2) 0.0835(2)
O1_8 O 0.8625(2) 0.20049(13) 0.83550(12)
O2_8 O 0.9492(2) 0.21450(12) 0.84992(11)
C1_8 C 0.9166(4) 0.19766(18) 0.83239(18)
C2_8 C 0.9391(4) 0.17398(18) 0.80759(18)
C3_8 C 0.9046(4) 0.1611(2) 0.7818(2)
H1_8 H 0.8664 0.1683 0.7798
C4_8 C 0.9266(4) 0.1381(2) 0.7598(2)
H2_7 H 0.9023 0.1287 0.7441
C5_8 C 0.9853(4) 0.1287(2) 0.76054(18)
C7_8 C 0.9974(4) 0.16463(19) 0.80817(17)
C12_7 C 0.9993(6) 0.0647(3) 0.6933(2)
H7_7 H 0.9745 0.0532 0.6792
C13_7 C 0.9772(5) 0.0872(3) 0.7156(2)
H8_7 H 0.9374 0.0909 0.7159
O5_8 O 0.8875(2) 0.20049(13) 0.91450(12)
O6_8 O 0.8008(2) 0.21450(12) 0.90008(11)
C15_8 C 0.8334(4) 0.19766(18) 0.91761(18)
C16_8 C 0.8109(4) 0.17398(18) 0.94241(18)
C17_8 C 0.8454(4) 0.1611(2) 0.9682(2)
H9_8 H 0.8836 0.1683 0.9702
C18_8 C 0.8234(4) 0.1381(2) 0.9902(2)
C19_8 C 0.7647(4) 0.1287(2) 0.98946(18)
C20_8 C 0.7307(4) 0.14179(19) 0.9650(2)
H11_8 H 0.6920 0.1354 0.9639
C21_8 C 0.7526(4) 0.16463(19) 0.94183(17)
H12_8 H 0.7282 0.1736 0.9260
H13_8 H 0.6610 0.1065 0.9988
H2_8 H 0.0977 0.3787 0.9941
C12_8 C 0.0007(6) 0.3147(3) 0.9433(2)
H7_8 H 0.0255 0.3032 0.9292
C13_8 C 0.0228(5) 0.3372(3) 0.9656(2)
H8_8 H 0.0626 0.3409 0.9659
C6_8 C 0.9807(4) 0.39179(19) 0.0350(2)
H3_8 H 0.9420 0.3854 0.0361
H4_8 H 0.9782 0.4236 0.0740
H5_8 H 0.9110 0.3565 0.0012
In1_5 In 0.6250 0.259472(15) 0.1250
O1_9 O 0.6125(2) 0.29951(13) 0.08550(12)
O2_9 O 0.6992(2) 0.28550(12) 0.09992(11)
C1_9 C 0.6666(4) 0.30234(18) 0.08239(18)
C2_9 C 0.6891(4) 0.32602(18) 0.05759(18)
C3_9 C 0.6546(4) 0.3389(2) 0.0318(2)
H1_9 H 0.6164 0.3317 0.0298
C4_9 C 0.6766(4) 0.3619(2) 0.0098(2)
C5_9 C 0.7353(4) 0.3713(2) 0.01054(18)
C6_9 C 0.7693(4) 0.35821(19) 0.0350(2)
H3_9 H 0.8080 0.3646 0.0361
C7_9 C 0.7474(4) 0.33537(19) 0.05817(17)
H4_9 H 0.7718 0.3264 0.0740
H5_9 H 0.8390 0.3935 0.0012
In2_3 In 0.3750 0.509472(15) 0.3750
O5_9 O 0.6375(2) 0.29951(13) 0.16450(12)
O6_9 O 0.5508(2) 0.28550(12) 0.15008(11)
O7_5 O 0.3644(3) 0.47117(16) 0.33316(14)
O8_5 O 0.6356(3) 0.22117(16) 0.08316(14)
O9_5 O 0.6144(3) 0.22117(16) 0.16684(14)
O10_5 O 0.4500(3) 0.48024(14) 0.35280(13)
O11_5 O 0.5500(3) 0.23024(14) 0.10280(13)
O12_5 O 0.7000(3) 0.23024(14) 0.14720(13)
C15_9 C 0.5834(4) 0.30234(18) 0.16761(18)
C16_9 C 0.5609(4) 0.32602(18) 0.19241(18)
C17_9 C 0.5954(4) 0.3389(2) 0.2182(2)
H9_9 H 0.6336 0.3317 0.2202
C18_9 C 0.5734(4) 0.3619(2) 0.2402(2)
H10_9 H 0.5977 0.3713 0.2559
C19_9 C 0.5147(4) 0.3713(2) 0.23946(18)
C20_9 C 0.4807(4) 0.35821(19) 0.2150(2)
H11_9 H 0.4420 0.3646 0.2139
C21_9 C 0.5026(4) 0.33537(19) 0.19183(17)
H12_9 H 0.4782 0.3264 0.1760
C22_9 C 0.4894(4) 0.3958(2) 0.26307(19)
C23_9 C 0.4356(5) 0.4037(3) 0.2639(3)
H13_9 H 0.4110 0.3935 0.2488
C24_9 C 0.4120(5) 0.4262(3) 0.2856(3)
H14_9 H 0.3727 0.4313 0.2842
C25_9 C 0.4432(5) 0.4409(2) 0.3084(2)
C26_9 C 0.5007(6) 0.4353(3) 0.3067(2)
H15_9 H 0.5255 0.4468 0.3208
C27_9 C 0.5228(5) 0.4128(3) 0.2844(2)
H16_9 H 0.5626 0.4091 0.2841
C28_9 C 0.4179(5) 0.4657(2) 0.3335(2)
O3_5 O 0.8856(3) 0.47117(16) 0.91684(14)
O4_5 O 0.8000(3) 0.48024(14) 0.89720(13)
H2_9 H 0.6523 0.3713 0.9941
C8_9 C 0.7606(4) 0.3958(2) 0.98693(19)
C9_9 C 0.8144(5) 0.4037(3) 0.9861(3)
C10_9 C 0.8380(5) 0.4262(3) 0.9644(3)
H6_9 H 0.8773 0.4313 0.9658
C11_9 C 0.8068(5) 0.4409(2) 0.9416(2)
C12_9 C 0.7493(6) 0.4353(3) 0.9433(2)
H7_9 H 0.7245 0.4468 0.9292
C13_9 C 0.7272(5) 0.4128(3) 0.9656(2)
H8_9 H 0.6874 0.4091 0.9659
C14_9 C 0.8321(5) 0.4657(2) 0.9165(2)
In3_3 In 0.8750 0.509472(15) 0.8750
In1_6 In 0.1250 0.259472(15) 0.6250
O1_10 O 0.1375(2) 0.29951(13) 0.66450(12)
O2_10 O 0.0508(2) 0.28550(12) 0.65008(11)
C1_10 C 0.0834(4) 0.30234(18) 0.66761(18)
C2_10 C 0.0609(4) 0.32602(18) 0.69241(18)
C3_10 C 0.0954(4) 0.3389(2) 0.7182(2)
H1_10 H 0.1336 0.3317 0.7202
C4_10 C 0.0734(4) 0.3619(2) 0.7402(2)
H2_10 H 0.0977 0.3713 0.7559
C5_10 C 0.0147(4) 0.3713(2) 0.73946(18)
C7_10 C 0.0026(4) 0.33537(19) 0.69183(17)
C12_10 C 0.0007(6) 0.4353(3) 0.8067(2)
H7_10 H 0.0255 0.4468 0.8208
C13_10 C 0.0228(5) 0.4128(3) 0.7844(2)
H8_10 H 0.0626 0.4091 0.7841
O5_10 O 0.1125(2) 0.29951(13) 0.58550(12)
O6_10 O 0.1992(2) 0.28550(12) 0.59992(11)
O7_6 O 0.3856(3) 0.47117(16) 0.41684(14)
O8_6 O 0.1144(3) 0.22117(16) 0.66684(14)
O9_6 O 0.1356(3) 0.22117(16) 0.58316(14)
O10_6 O 0.3000(3) 0.48024(14) 0.39720(13)
O11_6 O 0.2000(3) 0.23024(14) 0.64720(13)
O12_6 O 0.0500(3) 0.23024(14) 0.60280(13)
C15_10 C 0.1666(4) 0.30234(18) 0.58239(18)
C16_10 C 0.1891(4) 0.32602(18) 0.55759(18)
C17_10 C 0.1546(4) 0.3389(2) 0.5318(2)
H9_10 H 0.1164 0.3317 0.5298
C18_10 C 0.1766(4) 0.3619(2) 0.5098(2)
H10_10 H 0.1523 0.3713 0.4941
C19_10 C 0.2353(4) 0.3713(2) 0.51054(18)
C20_10 C 0.2693(4) 0.35821(19) 0.5350(2)
H11_10 H 0.3080 0.3646 0.5361
C21_10 C 0.2474(4) 0.33537(19) 0.55817(17)
H12_10 H 0.2718 0.3264 0.5740
C22_10 C 0.2606(4) 0.3958(2) 0.48693(19)
C23_10 C 0.3144(5) 0.4037(3) 0.4861(3)
H13_10 H 0.3390 0.3935 0.5012
C24_10 C 0.3380(5) 0.4262(3) 0.4644(3)
H14_10 H 0.3773 0.4313 0.4658
C25_10 C 0.3068(5) 0.4409(2) 0.4416(2)
C26_10 C 0.2493(6) 0.4353(3) 0.4433(2)
H15_10 H 0.2245 0.4468 0.4292
C27_10 C 0.2272(5) 0.4128(3) 0.4656(2)
H16_10 H 0.1874 0.4091 0.4659
C28_10 C 0.3321(5) 0.4657(2) 0.4165(2)
O3_6 O 0.8644(3) 0.47117(16) 0.83316(14)
O4_6 O 0.9500(3) 0.48024(14) 0.85280(13)
C6_10 C 0.9807(4) 0.35821(19) 0.7150(2)
H3_10 H 0.9420 0.3646 0.7139
H4_10 H 0.9782 0.3264 0.6760
C8_10 C 0.9894(4) 0.3958(2) 0.76307(19)
C9_10 C 0.9356(5) 0.4037(3) 0.7639(3)
H5_10 H 0.9110 0.3935 0.7488
C10_10 C 0.9120(5) 0.4262(3) 0.7856(3)
H6_10 H 0.8727 0.4313 0.7842
C11_10 C 0.9432(5) 0.4409(2) 0.8084(2)
C14_10 C 0.9179(5) 0.4657(2) 0.8335(2)
In2_4 In 0.3750 0.009472(15) 0.8750
In3_4 In 0.8750 0.009472(15) 0.3750
In1_7 In 0.6250 0.759472(15) 0.6250
O1_11 O 0.6125(2) 0.79951(13) 0.58550(12)
O2_11 O 0.6992(2) 0.78550(12) 0.59992(11)
O3_7 O 0.8856(3) 0.97117(16) 0.41684(14)
O4_7 O 0.8000(3) 0.98024(14) 0.39720(13)
C1_11 C 0.6666(4) 0.80234(18) 0.58239(18)
C2_11 C 0.6891(4) 0.82602(18) 0.55759(18)
C3_11 C 0.6546(4) 0.8389(2) 0.5318(2)
H1_11 H 0.6164 0.8317 0.5298
C4_11 C 0.6766(4) 0.8619(2) 0.5098(2)
H2_11 H 0.6523 0.8713 0.4941
C5_11 C 0.7353(4) 0.8713(2) 0.51054(18)
C6_11 C 0.7693(4) 0.85821(19) 0.5350(2)
H3_11 H 0.8080 0.8646 0.5361
C7_11 C 0.7474(4) 0.83537(19) 0.55817(17)
H4_11 H 0.7718 0.8264 0.5740
C8_11 C 0.7606(4) 0.8958(2) 0.48693(19)
C9_11 C 0.8144(5) 0.9037(3) 0.4861(3)
H5_11 H 0.8390 0.8935 0.5012
C10_11 C 0.8380(5) 0.9262(3) 0.4644(3)
H6_11 H 0.8773 0.9313 0.4658
C11_11 C 0.8068(5) 0.9409(2) 0.4416(2)
C12_11 C 0.7493(6) 0.9353(3) 0.4433(2)
H7_11 H 0.7245 0.9468 0.4292
C13_11 C 0.7272(5) 0.9128(3) 0.4656(2)
H8_11 H 0.6874 0.9091 0.4659
C14_11 C 0.8321(5) 0.9657(2) 0.4165(2)
O5_11 O 0.6375(2) 0.79951(13) 0.66450(12)
O6_11 O 0.5508(2) 0.78550(12) 0.65008(11)
O7_7 O 0.3644(3) 0.97117(16) 0.83316(14)
O8_7 O 0.6356(3) 0.72117(16) 0.58316(14)
O9_7 O 0.6144(3) 0.72117(16) 0.66684(14)
O10_7 O 0.4500(3) 0.98024(14) 0.85280(13)
O11_7 O 0.5500(3) 0.73024(14) 0.60280(13)
O12_7 O 0.7000(3) 0.73024(14) 0.64720(13)
C15_11 C 0.5834(4) 0.80234(18) 0.66761(18)
C16_11 C 0.5609(4) 0.82602(18) 0.69241(18)
C17_11 C 0.5954(4) 0.8389(2) 0.7182(2)
H9_11 H 0.6336 0.8317 0.7202
C18_11 C 0.5734(4) 0.8619(2) 0.7402(2)
H10_11 H 0.5977 0.8713 0.7559
C19_11 C 0.5147(4) 0.8713(2) 0.73946(18)
C20_11 C 0.4807(4) 0.85821(19) 0.7150(2)
H11_11 H 0.4420 0.8646 0.7139
C21_11 C 0.5026(4) 0.83537(19) 0.69183(17)
H12_11 H 0.4782 0.8264 0.6760
C22_11 C 0.4894(4) 0.8958(2) 0.76307(19)
C23_11 C 0.4356(5) 0.9037(3) 0.7639(3)
H13_11 H 0.4110 0.8935 0.7488
C24_11 C 0.4120(5) 0.9262(3) 0.7856(3)
H14_11 H 0.3727 0.9313 0.7842
C25_11 C 0.4432(5) 0.9409(2) 0.8084(2)
C26_11 C 0.5007(6) 0.9353(3) 0.8067(2)
H15_11 H 0.5255 0.9468 0.8208
C27_11 C 0.5228(5) 0.9128(3) 0.7844(2)
H16_11 H 0.5626 0.9091 0.7841
C28_11 C 0.4179(5) 0.9657(2) 0.8335(2)
In1_8 In 0.1250 0.759472(15) 0.1250
O1_12 O 0.1375(2) 0.79951(13) 0.16450(12)
O2_12 O 0.0508(2) 0.78550(12) 0.15008(11)
C1_12 C 0.0834(4) 0.80234(18) 0.16761(18)
C2_12 C 0.0609(4) 0.82602(18) 0.19241(18)
C3_12 C 0.0954(4) 0.8389(2) 0.2182(2)
H1_12 H 0.1336 0.8317 0.2202
C4_12 C 0.0734(4) 0.8619(2) 0.2402(2)
H2_12 H 0.0977 0.8713 0.2559
C5_12 C 0.0147(4) 0.8713(2) 0.23946(18)
C7_12 C 0.0026(4) 0.83537(19) 0.19183(17)
C12_12 C 0.0007(6) 0.9353(3) 0.3067(2)
H7_12 H 0.0255 0.9468 0.3208
C13_12 C 0.0228(5) 0.9128(3) 0.2844(2)
H8_12 H 0.0626 0.9091 0.2841
O5_12 O 0.1125(2) 0.79951(13) 0.08550(12)
O6_12 O 0.1992(2) 0.78550(12) 0.09992(11)
O8_8 O 0.1144(3) 0.72117(16) 0.16684(14)
O9_8 O 0.1356(3) 0.72117(16) 0.08316(14)
O11_8 O 0.2000(3) 0.73024(14) 0.14720(13)
O12_8 O 0.0500(3) 0.73024(14) 0.10280(13)
C15_12 C 0.1666(4) 0.80234(18) 0.08239(18)
C16_12 C 0.1891(4) 0.82602(18) 0.05759(18)
C17_12 C 0.1546(4) 0.8389(2) 0.0318(2)
H9_12 H 0.1164 0.8317 0.0298
C18_12 C 0.1766(4) 0.8619(2) 0.0098(2)
C19_12 C 0.2353(4) 0.8713(2) 0.01054(18)
C20_12 C 0.2693(4) 0.85821(19) 0.0350(2)
H11_12 H 0.3080 0.8646 0.0361
C21_12 C 0.2474(4) 0.83537(19) 0.05817(17)
H12_12 H 0.2718 0.8264 0.0740
H13_12 H 0.3390 0.8935 0.0012
O7_8 O 0.3856(3) 0.97117(16) 0.91684(14)
O10_8 O 0.3000(3) 0.98024(14) 0.89720(13)
H10_12 H 0.1523 0.8713 0.9941
C22_12 C 0.2606(4) 0.8958(2) 0.98693(19)
C23_12 C 0.3144(5) 0.9037(3) 0.9861(3)
C24_12 C 0.3380(5) 0.9262(3) 0.9644(3)
H14_12 H 0.3773 0.9313 0.9658
C25_12 C 0.3068(5) 0.9409(2) 0.9416(2)
C26_12 C 0.2493(6) 0.9353(3) 0.9433(2)
H15_12 H 0.2245 0.9468 0.9292
C27_12 C 0.2272(5) 0.9128(3) 0.9656(2)
H16_12 H 0.1874 0.9091 0.9659
C28_12 C 0.3321(5) 0.9657(2) 0.9165(2)
O3_8 O 0.8644(3) 0.97117(16) 0.33316(14)
O4_8 O 0.9500(3) 0.98024(14) 0.35280(13)
C6_12 C 0.9807(4) 0.85821(19) 0.2150(2)
H3_12 H 0.9420 0.8646 0.2139
H4_12 H 0.9782 0.8264 0.1760
C8_12 C 0.9894(4) 0.8958(2) 0.26307(19)
C9_12 C 0.9356(5) 0.9037(3) 0.2639(3)
H5_12 H 0.9110 0.8935 0.2488
C10_12 C 0.9120(5) 0.9262(3) 0.2856(3)
H6_12 H 0.8727 0.9313 0.2842
C11_12 C 0.9432(5) 0.9409(2) 0.3084(2)
C14_12 C 0.9179(5) 0.9657(2) 0.3335(2)
C8_13 C 0.0106(4) 0.6458(2) 0.01307(19)
C9_13 C 0.0644(5) 0.6537(3) 0.0139(3)
C10_13 C 0.0880(5) 0.6762(3) 0.0356(3)
H6_13 H 0.1273 0.6813 0.0342
C11_13 C 0.0568(5) 0.6909(2) 0.0584(2)
C14_13 C 0.0821(5) 0.7157(2) 0.0835(2)
O1_13 O 0.8625(2) 0.54951(13) 0.91450(12)
O2_13 O 0.9492(2) 0.53550(12) 0.90008(11)
C1_13 C 0.9166(4) 0.55234(18) 0.91761(18)
C2_13 C 0.9391(4) 0.57602(18) 0.94241(18)
C3_13 C 0.9046(4) 0.5889(2) 0.9682(2)
H1_13 H 0.8664 0.5817 0.9702
C4_13 C 0.9266(4) 0.6119(2) 0.9902(2)
C5_13 C 0.9853(4) 0.6213(2) 0.98946(18)
C7_13 C 0.9974(4) 0.58537(19) 0.94183(17)
O5_13 O 0.8875(2) 0.54951(13) 0.83550(12)
O6_13 O 0.8008(2) 0.53550(12) 0.84992(11)
C15_13 C 0.8334(4) 0.55234(18) 0.83239(18)
C16_13 C 0.8109(4) 0.57602(18) 0.80759(18)
C17_13 C 0.8454(4) 0.5889(2) 0.7818(2)
H9_13 H 0.8836 0.5817 0.7798
C18_13 C 0.8234(4) 0.6119(2) 0.7598(2)
H10_13 H 0.8477 0.6213 0.7441
C19_13 C 0.7647(4) 0.6213(2) 0.76054(18)
C20_13 C 0.7307(4) 0.60821(19) 0.7850(2)
H11_13 H 0.6920 0.6146 0.7861
C21_13 C 0.7526(4) 0.58537(19) 0.80817(17)
H12_13 H 0.7282 0.5764 0.8240
C22_13 C 0.7394(4) 0.6458(2) 0.73693(19)
C23_13 C 0.6856(5) 0.6537(3) 0.7361(3)
H13_13 H 0.6610 0.6435 0.7512
C24_13 C 0.6620(5) 0.6762(3) 0.7144(3)
H14_13 H 0.6227 0.6813 0.7158
C25_13 C 0.6932(5) 0.6909(2) 0.6916(2)
C26_13 C 0.7507(6) 0.6853(3) 0.6933(2)
H15_13 H 0.7755 0.6968 0.6792
C27_13 C 0.7728(5) 0.6628(3) 0.7156(2)
H16_13 H 0.8126 0.6591 0.7159
C28_13 C 0.6679(5) 0.7157(2) 0.6665(2)
O1_14 O 0.3875(2) 0.54951(13) 0.33550(12)
O2_14 O 0.3008(2) 0.53550(12) 0.34992(11)
C1_14 C 0.3334(4) 0.55234(18) 0.33239(18)
C2_14 C 0.3109(4) 0.57602(18) 0.30759(18)
C3_14 C 0.3454(4) 0.5889(2) 0.2818(2)
H1_14 H 0.3836 0.5817 0.2798
C4_14 C 0.3234(4) 0.6119(2) 0.2598(2)
H2_13 H 0.3477 0.6213 0.2441
C5_14 C 0.2647(4) 0.6213(2) 0.26054(18)
C6_13 C 0.2307(4) 0.60821(19) 0.2850(2)
H3_13 H 0.1920 0.6146 0.2861
C7_14 C 0.2526(4) 0.58537(19) 0.30817(17)
H4_13 H 0.2282 0.5764 0.3240
C8_14 C 0.2394(4) 0.6458(2) 0.23693(19)
C9_14 C 0.1856(5) 0.6537(3) 0.2361(3)
H5_13 H 0.1610 0.6435 0.2512
C10_14 C 0.1620(5) 0.6762(3) 0.2144(3)
H6_14 H 0.1227 0.6813 0.2158
C11_14 C 0.1932(5) 0.6909(2) 0.1916(2)
C12_13 C 0.2507(6) 0.6853(3) 0.1933(2)
H7_13 H 0.2755 0.6968 0.1792
C13_13 C 0.2728(5) 0.6628(3) 0.2156(2)
H8_13 H 0.3126 0.6591 0.2159
C14_14 C 0.1679(5) 0.7157(2) 0.1665(2)
O5_14 O 0.3625(2) 0.54951(13) 0.41450(12)
O6_14 O 0.4492(2) 0.53550(12) 0.40008(11)
C15_14 C 0.4166(4) 0.55234(18) 0.41761(18)
C16_14 C 0.4391(4) 0.57602(18) 0.44241(18)
C17_14 C 0.4046(4) 0.5889(2) 0.4682(2)
H9_14 H 0.3664 0.5817 0.4702
C18_14 C 0.4266(4) 0.6119(2) 0.4902(2)
H10_14 H 0.4023 0.6213 0.5059
C19_14 C 0.4853(4) 0.6213(2) 0.48946(18)
C20_14 C 0.5193(4) 0.60821(19) 0.4650(2)
H11_14 H 0.5580 0.6146 0.4639
C21_14 C 0.4974(4) 0.58537(19) 0.44183(17)
H12_14 H 0.5218 0.5764 0.4260
C22_14 C 0.5106(4) 0.6458(2) 0.51307(19)
C23_14 C 0.5644(5) 0.6537(3) 0.5139(3)
H13_14 H 0.5890 0.6435 0.4988
C24_14 C 0.5880(5) 0.6762(3) 0.5356(3)
H14_14 H 0.6273 0.6813 0.5342
C25_14 C 0.5568(5) 0.6909(2) 0.5584(2)
C26_14 C 0.4993(6) 0.6853(3) 0.5567(2)
H15_14 H 0.4745 0.6968 0.5708
C27_14 C 0.4772(5) 0.6628(3) 0.5344(2)
H16_14 H 0.4374 0.6591 0.5341
C28_14 C 0.5821(5) 0.7157(2) 0.5835(2)
C6_14 C 0.0193(4) 0.10821(19) 0.4650(2)
H3_14 H 0.0580 0.1146 0.4639
H4_14 H 0.0218 0.0764 0.4260
C8_15 C 0.0106(4) 0.1458(2) 0.51307(19)
C9_15 C 0.0644(5) 0.1537(3) 0.5139(3)
H5_14 H 0.0890 0.1435 0.4988
C10_15 C 0.0880(5) 0.1762(3) 0.5356(3)
H6_15 H 0.1273 0.1813 0.5342
C11_15 C 0.0568(5) 0.1909(2) 0.5584(2)
C14_15 C 0.0821(5) 0.2157(2) 0.5835(2)
O1_15 O 0.8625(2) 0.04951(13) 0.41450(12)
O2_15 O 0.9492(2) 0.03550(12) 0.40008(11)
C1_15 C 0.9166(4) 0.05234(18) 0.41761(18)
C2_15 C 0.9391(4) 0.07602(18) 0.44241(18)
C3_15 C 0.9046(4) 0.0889(2) 0.4682(2)
H1_15 H 0.8664 0.0817 0.4702
C4_15 C 0.9266(4) 0.1119(2) 0.4902(2)
H2_14 H 0.9023 0.1213 0.5059
C5_15 C 0.9853(4) 0.1213(2) 0.48946(18)
C7_15 C 0.9974(4) 0.08537(19) 0.44183(17)
C12_14 C 0.9993(6) 0.1853(3) 0.5567(2)
H7_14 H 0.9745 0.1968 0.5708
C13_14 C 0.9772(5) 0.1628(3) 0.5344(2)
H8_14 H 0.9374 0.1591 0.5341
O5_15 O 0.8875(2) 0.04951(13) 0.33550(12)
O6_15 O 0.8008(2) 0.03550(12) 0.34992(11)
C15_15 C 0.8334(4) 0.05234(18) 0.33239(18)
C16_15 C 0.8109(4) 0.07602(18) 0.30759(18)
C17_15 C 0.8454(4) 0.0889(2) 0.2818(2)
H9_15 H 0.8836 0.0817 0.2798
C18_15 C 0.8234(4) 0.1119(2) 0.2598(2)
H10_15 H 0.8477 0.1213 0.2441
C19_15 C 0.7647(4) 0.1213(2) 0.26054(18)
C20_15 C 0.7307(4) 0.10821(19) 0.2850(2)
H11_15 H 0.6920 0.1146 0.2861
C21_15 C 0.7526(4) 0.08537(19) 0.30817(17)
H12_15 H 0.7282 0.0764 0.3240
C22_15 C 0.7394(4) 0.1458(2) 0.23693(19)
C23_15 C 0.6856(5) 0.1537(3) 0.2361(3)
H13_15 H 0.6610 0.1435 0.2512
C24_15 C 0.6620(5) 0.1762(3) 0.2144(3)
H14_15 H 0.6227 0.1813 0.2158
C25_15 C 0.6932(5) 0.1909(2) 0.1916(2)
C26_15 C 0.7507(6) 0.1853(3) 0.1933(2)
H15_15 H 0.7755 0.1968 0.1792
C27_15 C 0.7728(5) 0.1628(3) 0.2156(2)
H16_15 H 0.8126 0.1591 0.2159
C28_15 C 0.6679(5) 0.2157(2) 0.1665(2)
H10_16 H 0.4023 0.1213 0.0059
C22_16 C 0.5106(4) 0.1458(2) 0.01307(19)
C23_16 C 0.5644(5) 0.1537(3) 0.0139(3)
C24_16 C 0.5880(5) 0.1762(3) 0.0356(3)
H14_16 H 0.6273 0.1813 0.0342
C25_16 C 0.5568(5) 0.1909(2) 0.0584(2)
C26_16 C 0.4993(6) 0.1853(3) 0.0567(2)
H15_16 H 0.4745 0.1968 0.0708
C27_16 C 0.4772(5) 0.1628(3) 0.0344(2)
H16_16 H 0.4374 0.1591 0.0341
C28_16 C 0.5821(5) 0.2157(2) 0.0835(2)
O1_16 O 0.3875(2) 0.04951(13) 0.83550(12)
O2_16 O 0.3008(2) 0.03550(12) 0.84992(11)
C1_16 C 0.3334(4) 0.05234(18) 0.83239(18)
C2_16 C 0.3109(4) 0.07602(18) 0.80759(18)
C3_16 C 0.3454(4) 0.0889(2) 0.7818(2)
H1_16 H 0.3836 0.0817 0.7798
C4_16 C 0.3234(4) 0.1119(2) 0.7598(2)
H2_15 H 0.3477 0.1213 0.7441
C5_16 C 0.2647(4) 0.1213(2) 0.76054(18)
C6_15 C 0.2307(4) 0.10821(19) 0.7850(2)
H3_15 H 0.1920 0.1146 0.7861
C7_16 C 0.2526(4) 0.08537(19) 0.80817(17)
H4_15 H 0.2282 0.0764 0.8240
C8_16 C 0.2394(4) 0.1458(2) 0.73693(19)
C9_16 C 0.1856(5) 0.1537(3) 0.7361(3)
H5_15 H 0.1610 0.1435 0.7512
C10_16 C 0.1620(5) 0.1762(3) 0.7144(3)
H6_16 H 0.1227 0.1813 0.7158
C11_16 C 0.1932(5) 0.1909(2) 0.6916(2)
C12_15 C 0.2507(6) 0.1853(3) 0.6933(2)
H7_15 H 0.2755 0.1968 0.6792
C13_15 C 0.2728(5) 0.1628(3) 0.7156(2)
H8_15 H 0.3126 0.1591 0.7159
C14_16 C 0.1679(5) 0.2157(2) 0.6665(2)
O5_16 O 0.3625(2) 0.04951(13) 0.91450(12)
O6_16 O 0.4492(2) 0.03550(12) 0.90008(11)
C15_16 C 0.4166(4) 0.05234(18) 0.91761(18)
C16_16 C 0.4391(4) 0.07602(18) 0.94241(18)
C17_16 C 0.4046(4) 0.0889(2) 0.9682(2)
H9_16 H 0.3664 0.0817 0.9702
C18_16 C 0.4266(4) 0.1119(2) 0.9902(2)
C19_16 C 0.4853(4) 0.1213(2) 0.98946(18)
C20_16 C 0.5193(4) 0.10821(19) 0.9650(2)
H11_16 H 0.5580 0.1146 0.9639
C21_16 C 0.4974(4) 0.08537(19) 0.94183(17)
H12_16 H 0.5218 0.0764 0.9260
H13_16 H 0.5890 0.1435 0.9988
C6_16 C 0.0193(4) 0.60821(19) 0.9650(2)
H3_16 H 0.0580 0.6146 0.9639
H4_16 H 0.0218 0.5764 0.9260
H5_16 H 0.0890 0.6435 0.9988
H2_16 H 0.9023 0.6213 0.0059
C12_16 C 0.9993(6) 0.6853(3) 0.0567(2)
H7_16 H 0.9745 0.6968 0.0708
C13_16 C 0.9772(5) 0.6628(3) 0.0344(2)
H8_16 H 0.9374 0.6591 0.0341
C45 C 0.0089(4) 0.3063(2) 0.0697(2)
H25 H 0.0338 0.3201 0.0816
C46 C 0.0303(4) 0.2840(2) 0.0472(2)
H26 H 0.0703 0.2831 0.0446
C50 C 0.0220(4) 0.2389(2) 0.00344(19)
C51 C 0.0786(4) 0.2278(2) 0.0055(2)
H29 H 0.1021 0.2354 0.0224
In5 In 0.1250 0.1250 0.889063(15)
O19 O 0.0569(2) 0.15480(12) 0.91359(12)
O22 O 0.1437(3) 0.16427(14) 0.93131(13)
C52 C 0.1003(4) 0.2055(2) 0.9828(2)
H30 H 0.1385 0.1983 0.9845
C53 C 0.0662(4) 0.1937(2) 0.95730(18)
C54 C 0.0100(4) 0.2037(2) 0.95589(19)
C56 C 0.0900(5) 0.1698(2) 0.9330(2)
In4 In 0.8750 0.3750 0.139063(15)
O13 O 0.7938(2) 0.39944(14) 0.11578(12)
O14 O 0.8789(3) 0.41514(14) 0.10028(12)
C29 C 0.8228(5) 0.4173(2) 0.0986(2)
C30 C 0.7995(4) 0.4421(2) 0.07430(19)
C31 C 0.7411(4) 0.4437(2) 0.0697(2)
H17 H 0.7162 0.4299 0.0816
C32 C 0.7197(4) 0.4660(2) 0.0472(2)
H18 H 0.6797 0.4669 0.0446
C33 C 0.7525(4) 0.4869(2) 0.0283(2)
C34 C 0.8111(5) 0.4855(3) 0.0328(2)
H19 H 0.8352 0.4998 0.0209
C35 C 0.8357(4) 0.4620(3) 0.0559(2)
H20 H 0.8757 0.4603 0.0584
C36 C 0.7280(4) 0.5111(2) 0.00344(19)
C37 C 0.6714(4) 0.5222(2) 0.0055(2)
H21 H 0.6479 0.5146 0.0224
O17 O 0.9562(2) 0.35056(14) 0.11578(12)
O18 O 0.8711(3) 0.33486(14) 0.10028(12)
O20 O 0.9431(2) 0.40480(12) 0.16359(12)
O21 O 0.8069(2) 0.34520(12) 0.16359(12)
O23 O 0.8563(3) 0.41427(14) 0.18131(13)
O24 O 0.8937(3) 0.33573(14) 0.18131(13)
C43 C 0.9272(5) 0.3327(2) 0.0986(2)
C44 C 0.9505(4) 0.3079(2) 0.07430(19)
C47 C 0.9975(4) 0.2631(2) 0.0283(2)
C48 C 0.9389(5) 0.2645(3) 0.0328(2)
H27 H 0.9148 0.2502 0.0209
C49 C 0.9143(4) 0.2880(3) 0.0559(2)
H28 H 0.8743 0.2897 0.0584
O15 O 0.6931(2) 0.59520(12) 0.91359(12)
O16 O 0.6063(3) 0.58573(14) 0.93131(13)
C38 C 0.6497(4) 0.5445(2) 0.9828(2)
H22 H 0.6115 0.5517 0.9845
C39 C 0.6838(4) 0.5563(2) 0.95730(18)
C40 C 0.7400(4) 0.5463(2) 0.95589(19)
H23 H 0.7637 0.5545 0.9393
C41 C 0.7626(4) 0.52407(19) 0.9790(2)
H24 H 0.8014 0.5179 0.9779
C42 C 0.6600(5) 0.5802(2) 0.9330(2)
In6 In 0.6250 0.6250 0.889063(15)
H31 H 0.9863 0.1955 0.9393
C55 C 0.9874(4) 0.22593(19) 0.9790(2)
H32 H 0.9486 0.2321 0.9779
In5_2 In 0.1250 0.6250 0.389063(15)
O19_2 O 0.0569(2) 0.65480(12) 0.41359(12)
O22_2 O 0.1437(3) 0.66427(14) 0.43131(13)
C45_2 C 0.0089(4) 0.8063(2) 0.5697(2)
H25_2 H 0.0338 0.8201 0.5816
C46_2 C 0.0303(4) 0.7840(2) 0.5472(2)
H26_2 H 0.0703 0.7831 0.5446
C50_2 C 0.0220(4) 0.7389(2) 0.50344(19)
C51_2 C 0.0786(4) 0.7278(2) 0.5055(2)
H29_2 H 0.1021 0.7354 0.5224
C52_2 C 0.1003(4) 0.7055(2) 0.4828(2)
H30_2 H 0.1385 0.6983 0.4845
C53_2 C 0.0662(4) 0.6937(2) 0.45730(18)
C54_2 C 0.0100(4) 0.7037(2) 0.45589(19)
C56_2 C 0.0900(5) 0.6698(2) 0.4330(2)
O15_2 O 0.6931(2) 0.09520(12) 0.41359(12)
O16_2 O 0.6063(3) 0.08573(14) 0.43131(13)
C36_2 C 0.7280(4) 0.0111(2) 0.50344(19)
C37_2 C 0.6714(4) 0.0222(2) 0.5055(2)
H21_2 H 0.6479 0.0146 0.5224
C38_2 C 0.6497(4) 0.0445(2) 0.4828(2)
H22_2 H 0.6115 0.0517 0.4845
C39_2 C 0.6838(4) 0.0563(2) 0.45730(18)
C40_2 C 0.7400(4) 0.0463(2) 0.45589(19)
H23_2 H 0.7637 0.0545 0.4393
C41_2 C 0.7626(4) 0.02407(19) 0.4790(2)
H24_2 H 0.8014 0.0179 0.4779
C42_2 C 0.6600(5) 0.0802(2) 0.4330(2)
In6_2 In 0.6250 0.1250 0.389063(15)
In4_2 In 0.8750 0.8750 0.639063(15)
O13_2 O 0.7938(2) 0.89944(14) 0.61578(12)
O14_2 O 0.8789(3) 0.91514(14) 0.60028(12)
C29_2 C 0.8228(5) 0.9173(2) 0.5986(2)
C30_2 C 0.7995(4) 0.9421(2) 0.57430(19)
C31_2 C 0.7411(4) 0.9437(2) 0.5697(2)
H17_2 H 0.7162 0.9299 0.5816
C32_2 C 0.7197(4) 0.9660(2) 0.5472(2)
H18_2 H 0.6797 0.9669 0.5446
C33_2 C 0.7525(4) 0.9869(2) 0.5283(2)
C34_2 C 0.8111(5) 0.9855(3) 0.5328(2)
H19_2 H 0.8352 0.9998 0.5209
C35_2 C 0.8357(4) 0.9620(3) 0.5559(2)
H20_2 H 0.8757 0.9603 0.5584
O17_2 O 0.9562(2) 0.85056(14) 0.61578(12)
O18_2 O 0.8711(3) 0.83486(14) 0.60028(12)
O20_2 O 0.9431(2) 0.90480(12) 0.66359(12)
O21_2 O 0.8069(2) 0.84520(12) 0.66359(12)
O23_2 O 0.8563(3) 0.91427(14) 0.68131(13)
O24_2 O 0.8937(3) 0.83573(14) 0.68131(13)
C43_2 C 0.9272(5) 0.8327(2) 0.5986(2)
C44_2 C 0.9505(4) 0.8079(2) 0.57430(19)
C47_2 C 0.9975(4) 0.7631(2) 0.5283(2)
C48_2 C 0.9389(5) 0.7645(3) 0.5328(2)
H27_2 H 0.9148 0.7502 0.5209
C49_2 C 0.9143(4) 0.7880(3) 0.5559(2)
H28_2 H 0.8743 0.7897 0.5584
H31_2 H 0.9863 0.6955 0.4393
C55_2 C 0.9874(4) 0.72593(19) 0.4790(2)
H32_2 H 0.9486 0.7321 0.4779
In4_3 In 0.3750 0.3750 0.639063(15)
O13_3 O 0.2938(2) 0.39944(14) 0.61578(12)
O14_3 O 0.3789(3) 0.41514(14) 0.60028(12)
O15_3 O 0.1931(2) 0.59520(12) 0.41359(12)
O16_3 O 0.1063(3) 0.58573(14) 0.43131(13)
C29_3 C 0.3228(5) 0.4173(2) 0.5986(2)
C30_3 C 0.2995(4) 0.4421(2) 0.57430(19)
C31_3 C 0.2411(4) 0.4437(2) 0.5697(2)
H17_3 H 0.2162 0.4299 0.5816
C32_3 C 0.2197(4) 0.4660(2) 0.5472(2)
H18_3 H 0.1797 0.4669 0.5446
C33_3 C 0.2525(4) 0.4869(2) 0.5283(2)
C34_3 C 0.3111(5) 0.4855(3) 0.5328(2)
H19_3 H 0.3352 0.4998 0.5209
C35_3 C 0.3357(4) 0.4620(3) 0.5559(2)
H20_3 H 0.3757 0.4603 0.5584
C36_3 C 0.2280(4) 0.5111(2) 0.50344(19)
C37_3 C 0.1714(4) 0.5222(2) 0.5055(2)
H21_3 H 0.1479 0.5146 0.5224
C38_3 C 0.1497(4) 0.5445(2) 0.4828(2)
H22_3 H 0.1115 0.5517 0.4845
C39_3 C 0.1838(4) 0.5563(2) 0.45730(18)
C40_3 C 0.2400(4) 0.5463(2) 0.45589(19)
H23_3 H 0.2637 0.5545 0.4393
C41_3 C 0.2626(4) 0.52407(19) 0.4790(2)
H24_3 H 0.3014 0.5179 0.4779
C42_3 C 0.1600(5) 0.5802(2) 0.4330(2)
O17_3 O 0.4562(2) 0.35056(14) 0.61578(12)
O18_3 O 0.3711(3) 0.33486(14) 0.60028(12)
O19_3 O 0.5569(2) 0.15480(12) 0.41359(12)
O20_3 O 0.4431(2) 0.40480(12) 0.66359(12)
O21_3 O 0.3069(2) 0.34520(12) 0.66359(12)
O22_3 O 0.6437(3) 0.16427(14) 0.43131(13)
O23_3 O 0.3563(3) 0.41427(14) 0.68131(13)
O24_3 O 0.3937(3) 0.33573(14) 0.68131(13)
C43_3 C 0.4272(5) 0.3327(2) 0.5986(2)
C44_3 C 0.4505(4) 0.3079(2) 0.57430(19)
C45_3 C 0.5089(4) 0.3063(2) 0.5697(2)
H25_3 H 0.5338 0.3201 0.5816
C46_3 C 0.5303(4) 0.2840(2) 0.5472(2)
H26_3 H 0.5703 0.2831 0.5446
C47_3 C 0.4975(4) 0.2631(2) 0.5283(2)
C48_3 C 0.4389(5) 0.2645(3) 0.5328(2)
H27_3 H 0.4148 0.2502 0.5209
C49_3 C 0.4143(4) 0.2880(3) 0.5559(2)
H28_3 H 0.3743 0.2897 0.5584
C50_3 C 0.5220(4) 0.2389(2) 0.50344(19)
C51_3 C 0.5786(4) 0.2278(2) 0.5055(2)
H29_3 H 0.6021 0.2354 0.5224
C52_3 C 0.6003(4) 0.2055(2) 0.4828(2)
H30_3 H 0.6385 0.1983 0.4845
C53_3 C 0.5662(4) 0.1937(2) 0.45730(18)
C54_3 C 0.5100(4) 0.2037(2) 0.45589(19)
H31_3 H 0.4863 0.1955 0.4393
C55_3 C 0.4874(4) 0.22593(19) 0.4790(2)
H32_3 H 0.4486 0.2321 0.4779
C56_3 C 0.5900(5) 0.1698(2) 0.4330(2)
O15_4 O 0.1931(2) 0.09520(12) 0.91359(12)
O16_4 O 0.1063(3) 0.08573(14) 0.93131(13)
C38_4 C 0.1497(4) 0.0445(2) 0.9828(2)
H22_4 H 0.1115 0.0517 0.9845
C39_4 C 0.1838(4) 0.0563(2) 0.95730(18)
C40_4 C 0.2400(4) 0.0463(2) 0.95589(19)
H23_4 H 0.2637 0.0545 0.9393
C41_4 C 0.2626(4) 0.02407(19) 0.9790(2)
H24_4 H 0.3014 0.0179 0.9779
C42_4 C 0.1600(5) 0.0802(2) 0.9330(2)
In4_4 In 0.3750 0.8750 0.139063(15)
O13_4 O 0.2938(2) 0.89944(14) 0.11578(12)
O14_4 O 0.3789(3) 0.91514(14) 0.10028(12)
C29_4 C 0.3228(5) 0.9173(2) 0.0986(2)
C30_4 C 0.2995(4) 0.9421(2) 0.07430(19)
C31_4 C 0.2411(4) 0.9437(2) 0.0697(2)
H17_4 H 0.2162 0.9299 0.0816
C32_4 C 0.2197(4) 0.9660(2) 0.0472(2)
H18_4 H 0.1797 0.9669 0.0446
C33_4 C 0.2525(4) 0.9869(2) 0.0283(2)
C34_4 C 0.3111(5) 0.9855(3) 0.0328(2)
H19_4 H 0.3352 0.9998 0.0209
C35_4 C 0.3357(4) 0.9620(3) 0.0559(2)
H20_4 H 0.3757 0.9603 0.0584
O17_4 O 0.4562(2) 0.85056(14) 0.11578(12)
O18_4 O 0.3711(3) 0.83486(14) 0.10028(12)
O20_4 O 0.4431(2) 0.90480(12) 0.16359(12)
O21_4 O 0.3069(2) 0.84520(12) 0.16359(12)
O23_4 O 0.3563(3) 0.91427(14) 0.18131(13)
O24_4 O 0.3937(3) 0.83573(14) 0.18131(13)
C43_4 C 0.4272(5) 0.8327(2) 0.0986(2)
C44_4 C 0.4505(4) 0.8079(2) 0.07430(19)
C45_4 C 0.5089(4) 0.8063(2) 0.0697(2)
H25_4 H 0.5338 0.8201 0.0816
C46_4 C 0.5303(4) 0.7840(2) 0.0472(2)
H26_4 H 0.5703 0.7831 0.0446
C47_4 C 0.4975(4) 0.7631(2) 0.0283(2)
C48_4 C 0.4389(5) 0.7645(3) 0.0328(2)
H27_4 H 0.4148 0.7502 0.0209
C49_4 C 0.4143(4) 0.7880(3) 0.0559(2)
H28_4 H 0.3743 0.7897 0.0584
C50_4 C 0.5220(4) 0.7389(2) 0.00344(19)
C51_4 C 0.5786(4) 0.7278(2) 0.0055(2)
H29_4 H 0.6021 0.7354 0.0224
O19_4 O 0.5569(2) 0.65480(12) 0.91359(12)
O22_4 O 0.6437(3) 0.66427(14) 0.93131(13)
C52_4 C 0.6003(4) 0.7055(2) 0.9828(2)
H30_4 H 0.6385 0.6983 0.9845
C53_4 C 0.5662(4) 0.6937(2) 0.95730(18)
C54_4 C 0.5100(4) 0.7037(2) 0.95589(19)
H31_4 H 0.4863 0.6955 0.9393
C55_4 C 0.4874(4) 0.72593(19) 0.9790(2)
H32_4 H 0.4486 0.7321 0.9779
C56_4 C 0.5900(5) 0.6698(2) 0.9330(2)
O13_5 O 0.0438(2) 0.60056(14) 0.36578(12)
O14_5 O 0.1289(3) 0.58486(14) 0.35028(12)
C29_5 C 0.0728(5) 0.5827(2) 0.3486(2)
C30_5 C 0.0495(4) 0.5579(2) 0.32430(19)
C33_5 C 0.0025(4) 0.5131(2) 0.2783(2)
C34_5 C 0.0611(5) 0.5145(3) 0.2828(2)
H19_5 H 0.0852 0.5002 0.2709
C35_5 C 0.0857(4) 0.5380(3) 0.3059(2)
H20_5 H 0.1257 0.5397 0.3084
H23_5 H 0.0137 0.4455 0.1893
C41_5 C 0.0126(4) 0.47593(19) 0.2290(2)
H24_5 H 0.0514 0.4821 0.2279
O17_5 O 0.2062(2) 0.64944(14) 0.36578(12)
O18_5 O 0.1211(3) 0.66514(14) 0.35028(12)
C43_5 C 0.1772(5) 0.6673(2) 0.3486(2)
C44_5 C 0.2005(4) 0.6921(2) 0.32430(19)
C45_5 C 0.2589(4) 0.6937(2) 0.3197(2)
H25_5 H 0.2838 0.6799 0.3316
C46_5 C 0.2803(4) 0.7160(2) 0.2972(2)
H26_5 H 0.3203 0.7169 0.2946
C47_5 C 0.2475(4) 0.7369(2) 0.2783(2)
C48_5 C 0.1889(5) 0.7355(3) 0.2828(2)
H27_5 H 0.1648 0.7498 0.2709
C49_5 C 0.1643(4) 0.7120(3) 0.3059(2)
H28_5 H 0.1243 0.7103 0.3084
C50_5 C 0.2720(4) 0.7611(2) 0.25344(19)
C51_5 C 0.3286(4) 0.7722(2) 0.2555(2)
H29_5 H 0.3521 0.7646 0.2724
C52_5 C 0.3503(4) 0.7945(2) 0.2328(2)
H30_5 H 0.3885 0.8017 0.2345
C53_5 C 0.3162(4) 0.8063(2) 0.20730(18)
C54_5 C 0.2600(4) 0.7963(2) 0.20589(19)
H31_5 H 0.2363 0.8045 0.1893
C55_5 C 0.2374(4) 0.77407(19) 0.2290(2)
H32_5 H 0.1986 0.7679 0.2279
C56_5 C 0.3400(5) 0.8302(2) 0.1830(2)
C31_5 C 0.9911(4) 0.5563(2) 0.3197(2)
H17_5 H 0.9662 0.5701 0.3316
C32_5 C 0.9697(4) 0.5340(2) 0.2972(2)
H18_5 H 0.9297 0.5331 0.2946
C36_4 C 0.9780(4) 0.4889(2) 0.25344(19)
C37_4 C 0.9214(4) 0.4778(2) 0.2555(2)
H21_4 H 0.8979 0.4854 0.2724
C38_5 C 0.8997(4) 0.4555(2) 0.2328(2)
H22_5 H 0.8615 0.4483 0.2345
C39_5 C 0.9338(4) 0.4437(2) 0.20730(18)
C40_5 C 0.9900(4) 0.4537(2) 0.20589(19)
C42_5 C 0.9100(5) 0.4198(2) 0.1830(2)
O13_6 O 0.0438(2) 0.10056(14) 0.86578(12)
O14_6 O 0.1289(3) 0.08486(14) 0.85028(12)
C29_6 C 0.0728(5) 0.0827(2) 0.8486(2)
C30_6 C 0.0495(4) 0.0579(2) 0.82430(19)
C33_6 C 0.0025(4) 0.0131(2) 0.7783(2)
C34_6 C 0.0611(5) 0.0145(3) 0.7828(2)
H19_6 H 0.0852 0.0002 0.7709
C35_6 C 0.0857(4) 0.0380(3) 0.8059(2)
H20_6 H 0.1257 0.0397 0.8084
O17_6 O 0.2062(2) 0.14944(14) 0.86578(12)
O18_6 O 0.1211(3) 0.16514(14) 0.85028(12)
C43_6 C 0.1772(5) 0.1673(2) 0.8486(2)
C44_6 C 0.2005(4) 0.1921(2) 0.82430(19)
C45_6 C 0.2589(4) 0.1937(2) 0.8197(2)
H25_6 H 0.2838 0.1799 0.8316
C46_6 C 0.2803(4) 0.2160(2) 0.7972(2)
H26_6 H 0.3203 0.2169 0.7946
C47_6 C 0.2475(4) 0.2369(2) 0.7783(2)
C48_6 C 0.1889(5) 0.2355(3) 0.7828(2)
H27_6 H 0.1648 0.2498 0.7709
C49_6 C 0.1643(4) 0.2120(3) 0.8059(2)
H28_6 H 0.1243 0.2103 0.8084
C50_6 C 0.2720(4) 0.2611(2) 0.75344(19)
C51_6 C 0.3286(4) 0.2722(2) 0.7555(2)
H29_6 H 0.3521 0.2646 0.7724
C52_6 C 0.3503(4) 0.2945(2) 0.7328(2)
H30_6 H 0.3885 0.3017 0.7345
C53_6 C 0.3162(4) 0.3063(2) 0.70730(18)
C54_6 C 0.2600(4) 0.2963(2) 0.70589(19)
H31_6 H 0.2363 0.3045 0.6893
C55_6 C 0.2374(4) 0.27407(19) 0.7290(2)
H32_6 H 0.1986 0.2679 0.7279
C56_6 C 0.3400(5) 0.3302(2) 0.6830(2)
C36_5 C 0.9780(4) 0.9889(2) 0.75344(19)
C37_5 C 0.9214(4) 0.9778(2) 0.7555(2)
H21_5 H 0.8979 0.9854 0.7724
C38_6 C 0.8997(4) 0.9555(2) 0.7328(2)
H22_6 H 0.8615 0.9483 0.7345
C39_6 C 0.9338(4) 0.9437(2) 0.70730(18)
C40_6 C 0.9900(4) 0.9537(2) 0.70589(19)
C42_6 C 0.9100(5) 0.9198(2) 0.6830(2)
O13_7 O 0.5438(2) 0.60056(14) 0.86578(12)
O14_7 O 0.6289(3) 0.58486(14) 0.85028(12)
C29_7 C 0.5728(5) 0.5827(2) 0.8486(2)
C30_7 C 0.5495(4) 0.5579(2) 0.82430(19)
C31_6 C 0.4911(4) 0.5563(2) 0.8197(2)
H17_6 H 0.4662 0.5701 0.8316
C32_6 C 0.4697(4) 0.5340(2) 0.7972(2)
H18_6 H 0.4297 0.5331 0.7946
C33_7 C 0.5025(4) 0.5131(2) 0.7783(2)
C34_7 C 0.5611(5) 0.5145(3) 0.7828(2)
H19_7 H 0.5852 0.5002 0.7709
C35_7 C 0.5857(4) 0.5380(3) 0.8059(2)
H20_7 H 0.6257 0.5397 0.8084
C36_6 C 0.4780(4) 0.4889(2) 0.75344(19)
C37_6 C 0.4214(4) 0.4778(2) 0.7555(2)
H21_6 H 0.3979 0.4854 0.7724
C38_7 C 0.3997(4) 0.4555(2) 0.7328(2)
H22_7 H 0.3615 0.4483 0.7345
C39_7 C 0.4338(4) 0.4437(2) 0.70730(18)
C40_7 C 0.4900(4) 0.4537(2) 0.70589(19)
H23_6 H 0.5137 0.4455 0.6893
C41_6 C 0.5126(4) 0.47593(19) 0.7290(2)
H24_6 H 0.5514 0.4821 0.7279
C42_7 C 0.4100(5) 0.4198(2) 0.6830(2)
O17_7 O 0.7062(2) 0.64944(14) 0.86578(12)
O18_7 O 0.6211(3) 0.66514(14) 0.85028(12)
C43_7 C 0.6772(5) 0.6673(2) 0.8486(2)
C44_7 C 0.7005(4) 0.6921(2) 0.82430(19)
C45_7 C 0.7589(4) 0.6937(2) 0.8197(2)
H25_7 H 0.7838 0.6799 0.8316
C46_7 C 0.7803(4) 0.7160(2) 0.7972(2)
H26_7 H 0.8203 0.7169 0.7946
C47_7 C 0.7475(4) 0.7369(2) 0.7783(2)
C48_7 C 0.6889(5) 0.7355(3) 0.7828(2)
H27_7 H 0.6648 0.7498 0.7709
C49_7 C 0.6643(4) 0.7120(3) 0.8059(2)
H28_7 H 0.6243 0.7103 0.8084
C50_7 C 0.7720(4) 0.7611(2) 0.75344(19)
C51_7 C 0.8286(4) 0.7722(2) 0.7555(2)
H29_7 H 0.8521 0.7646 0.7724
C52_7 C 0.8503(4) 0.7945(2) 0.7328(2)
H30_7 H 0.8885 0.8017 0.7345
C53_7 C 0.8162(4) 0.8063(2) 0.70730(18)
C54_7 C 0.7600(4) 0.7963(2) 0.70589(19)
H31_7 H 0.7363 0.8045 0.6893
C55_7 C 0.7374(4) 0.77407(19) 0.7290(2)
H32_7 H 0.6986 0.7679 0.7279
C56_7 C 0.8400(5) 0.8302(2) 0.6830(2)
O13_8 O 0.5438(2) 0.10056(14) 0.36578(12)
O14_8 O 0.6289(3) 0.08486(14) 0.35028(12)
C29_8 C 0.5728(5) 0.0827(2) 0.3486(2)
C30_8 C 0.5495(4) 0.0579(2) 0.32430(19)
C31_7 C 0.4911(4) 0.0563(2) 0.3197(2)
H17_7 H 0.4662 0.0701 0.3316
C32_7 C 0.4697(4) 0.0340(2) 0.2972(2)
H18_7 H 0.4297 0.0331 0.2946
C33_8 C 0.5025(4) 0.0131(2) 0.2783(2)
C34_8 C 0.5611(5) 0.0145(3) 0.2828(2)
H19_8 H 0.5852 0.0002 0.2709
C35_8 C 0.5857(4) 0.0380(3) 0.3059(2)
H20_8 H 0.6257 0.0397 0.3084
O17_8 O 0.7062(2) 0.14944(14) 0.36578(12)
O18_8 O 0.6211(3) 0.16514(14) 0.35028(12)
C43_8 C 0.6772(5) 0.1673(2) 0.3486(2)
C44_8 C 0.7005(4) 0.1921(2) 0.32430(19)
C45_8 C 0.7589(4) 0.1937(2) 0.3197(2)
H25_8 H 0.7838 0.1799 0.3316
C46_8 C 0.7803(4) 0.2160(2) 0.2972(2)
H26_8 H 0.8203 0.2169 0.2946
C47_8 C 0.7475(4) 0.2369(2) 0.2783(2)
C48_8 C 0.6889(5) 0.2355(3) 0.2828(2)
H27_8 H 0.6648 0.2498 0.2709
C49_8 C 0.6643(4) 0.2120(3) 0.3059(2)
H28_8 H 0.6243 0.2103 0.3084
C50_8 C 0.7720(4) 0.2611(2) 0.25344(19)
C51_8 C 0.8286(4) 0.2722(2) 0.2555(2)
H29_8 H 0.8521 0.2646 0.2724
C52_8 C 0.8503(4) 0.2945(2) 0.2328(2)
H30_8 H 0.8885 0.3017 0.2345
C53_8 C 0.8162(4) 0.3063(2) 0.20730(18)
C54_8 C 0.7600(4) 0.2963(2) 0.20589(19)
H31_8 H 0.7363 0.3045 0.1893
C55_8 C 0.7374(4) 0.27407(19) 0.2290(2)
H32_8 H 0.6986 0.2679 0.2279
C56_8 C 0.8400(5) 0.3302(2) 0.1830(2)
C36_7 C 0.4780(4) 0.9889(2) 0.25344(19)
C37_7 C 0.4214(4) 0.9778(2) 0.2555(2)
H21_7 H 0.3979 0.9854 0.2724
C38_8 C 0.3997(4) 0.9555(2) 0.2328(2)
H22_8 H 0.3615 0.9483 0.2345
C39_8 C 0.4338(4) 0.9437(2) 0.20730(18)
C40_8 C 0.4900(4) 0.9537(2) 0.20589(19)
H23_7 H 0.5137 0.9455 0.1893
C41_7 C 0.5126(4) 0.97593(19) 0.2290(2)
H24_7 H 0.5514 0.9821 0.2279
C42_8 C 0.4100(5) 0.9198(2) 0.1830(2)
O15_5 O 0.0569(2) 0.59520(12) 0.83641(12)
O16_5 O 0.1437(3) 0.58573(14) 0.81869(13)
C31_8 C 0.0089(4) 0.4437(2) 0.6803(2)
H17_8 H 0.0338 0.4299 0.6684
C32_8 C 0.0303(4) 0.4660(2) 0.7028(2)
H18_8 H 0.0703 0.4669 0.7054
C36_8 C 0.0220(4) 0.5111(2) 0.74656(19)
C37_8 C 0.0786(4) 0.5222(2) 0.7445(2)
H21_8 H 0.1021 0.5146 0.7276
C38_9 C 0.1003(4) 0.5445(2) 0.7672(2)
H22_9 H 0.1385 0.5517 0.7655
C39_9 C 0.0662(4) 0.5563(2) 0.79270(18)
C40_9 C 0.0100(4) 0.5463(2) 0.79411(19)
C42_9 C 0.0900(5) 0.5802(2) 0.8170(2)
In6_3 In 0.1250 0.6250 0.860937(15)
In4_5 In 0.8750 0.3750 0.610937(15)
O13_9 O 0.9562(2) 0.39944(14) 0.63422(12)
O14_9 O 0.8711(3) 0.41514(14) 0.64972(12)
C29_9 C 0.9272(5) 0.4173(2) 0.6514(2)
C30_9 C 0.9505(4) 0.4421(2) 0.67570(19)
C33_9 C 0.9975(4) 0.4869(2) 0.7217(2)
C34_9 C 0.9389(5) 0.4855(3) 0.7172(2)
H19_9 H 0.9148 0.4998 0.7291
C35_9 C 0.9143(4) 0.4620(3) 0.6941(2)
H20_9 H 0.8743 0.4603 0.6916
H23_8 H 0.9863 0.5545 0.8107
C41_8 C 0.9874(4) 0.52407(19) 0.7710(2)
H24_8 H 0.9486 0.5179 0.7721
In5_3 In 0.6250 0.1250 0.860937(15)
O17_9 O 0.7938(2) 0.35056(14) 0.63422(12)
O18_9 O 0.8789(3) 0.33486(14) 0.64972(12)
O19_5 O 0.6931(2) 0.15480(12) 0.83641(12)
O20_5 O 0.8069(2) 0.40480(12) 0.58641(12)
O21_5 O 0.9431(2) 0.34520(12) 0.58641(12)
O22_5 O 0.6063(3) 0.16427(14) 0.81869(13)
O23_5 O 0.8937(3) 0.41427(14) 0.56869(13)
O24_5 O 0.8563(3) 0.33573(14) 0.56869(13)
C43_9 C 0.8228(5) 0.3327(2) 0.6514(2)
C44_9 C 0.7995(4) 0.3079(2) 0.67570(19)
C45_9 C 0.7411(4) 0.3063(2) 0.6803(2)
H25_9 H 0.7162 0.3201 0.6684
C46_9 C 0.7197(4) 0.2840(2) 0.7028(2)
H26_9 H 0.6797 0.2831 0.7054
C47_9 C 0.7525(4) 0.2631(2) 0.7217(2)
C48_9 C 0.8111(5) 0.2645(3) 0.7172(2)
H27_9 H 0.8352 0.2502 0.7291
C49_9 C 0.8357(4) 0.2880(3) 0.6941(2)
H28_9 H 0.8757 0.2897 0.6916
C50_9 C 0.7280(4) 0.2389(2) 0.74656(19)
C51_9 C 0.6714(4) 0.2278(2) 0.7445(2)
H29_9 H 0.6479 0.2354 0.7276
C52_9 C 0.6497(4) 0.2055(2) 0.7672(2)
H30_9 H 0.6115 0.1983 0.7655
C53_9 C 0.6838(4) 0.1937(2) 0.79270(18)
C54_9 C 0.7400(4) 0.2037(2) 0.79411(19)
H31_9 H 0.7637 0.1955 0.8107
C55_9 C 0.7626(4) 0.22593(19) 0.7710(2)
H32_9 H 0.8014 0.2321 0.7721
C56_9 C 0.6600(5) 0.1698(2) 0.8170(2)
O15_6 O 0.0569(2) 0.09520(12) 0.33641(12)
O16_6 O 0.1437(3) 0.08573(14) 0.31869(13)
C36_9 C 0.0220(4) 0.0111(2) 0.24656(19)
C37_9 C 0.0786(4) 0.0222(2) 0.2445(2)
H21_9 H 0.1021 0.0146 0.2276
C38_10 C 0.1003(4) 0.0445(2) 0.2672(2)
H22_10 H 0.1385 0.0517 0.2655
C39_10 C 0.0662(4) 0.0563(2) 0.29270(18)
C40_10 C 0.0100(4) 0.0463(2) 0.29411(19)
C42_10 C 0.0900(5) 0.0802(2) 0.3170(2)
In6_4 In 0.1250 0.1250 0.360937(15)
In4_6 In 0.8750 0.8750 0.110937(15)
O13_10 O 0.9562(2) 0.89944(14) 0.13422(12)
O14_10 O 0.8711(3) 0.91514(14) 0.14972(12)
C29_10 C 0.9272(5) 0.9173(2) 0.1514(2)
C30_10 C 0.9505(4) 0.9421(2) 0.17570(19)
C33_10 C 0.9975(4) 0.9869(2) 0.2217(2)
C34_10 C 0.9389(5) 0.9855(3) 0.2172(2)
H19_10 H 0.9148 0.9998 0.2291
C35_10 C 0.9143(4) 0.9620(3) 0.1941(2)
H20_10 H 0.8743 0.9603 0.1916
In5_4 In 0.6250 0.6250 0.360937(15)
O17_10 O 0.7938(2) 0.85056(14) 0.13422(12)
O18_10 O 0.8789(3) 0.83486(14) 0.14972(12)
O19_6 O 0.6931(2) 0.65480(12) 0.33641(12)
O20_6 O 0.8069(2) 0.90480(12) 0.08641(12)
O21_6 O 0.9431(2) 0.84520(12) 0.08641(12)
O22_6 O 0.6063(3) 0.66427(14) 0.31869(13)
O23_6 O 0.8937(3) 0.91427(14) 0.06869(13)
O24_6 O 0.8563(3) 0.83573(14) 0.06869(13)
C43_10 C 0.8228(5) 0.8327(2) 0.1514(2)
C44_10 C 0.7995(4) 0.8079(2) 0.17570(19)
C45_10 C 0.7411(4) 0.8063(2) 0.1803(2)
H25_10 H 0.7162 0.8201 0.1684
C46_10 C 0.7197(4) 0.7840(2) 0.2028(2)
H26_10 H 0.6797 0.7831 0.2054
C47_10 C 0.7525(4) 0.7631(2) 0.2217(2)
C48_10 C 0.8111(5) 0.7645(3) 0.2172(2)
H27_10 H 0.8352 0.7502 0.2291
C49_10 C 0.8357(4) 0.7880(3) 0.1941(2)
H28_10 H 0.8757 0.7897 0.1916
C50_10 C 0.7280(4) 0.7389(2) 0.24656(19)
C51_10 C 0.6714(4) 0.7278(2) 0.2445(2)
H29_10 H 0.6479 0.7354 0.2276
C52_10 C 0.6497(4) 0.7055(2) 0.2672(2)
H30_10 H 0.6115 0.6983 0.2655
C53_10 C 0.6838(4) 0.6937(2) 0.29270(18)
C54_10 C 0.7400(4) 0.7037(2) 0.29411(19)
H31_10 H 0.7637 0.6955 0.3107
C55_10 C 0.7626(4) 0.72593(19) 0.2710(2)
H32_10 H 0.8014 0.7321 0.2721
C56_10 C 0.6600(5) 0.6698(2) 0.3170(2)
In4_7 In 0.3750 0.3750 0.110937(15)
O13_11 O 0.4562(2) 0.39944(14) 0.13422(12)
O14_11 O 0.3711(3) 0.41514(14) 0.14972(12)
O15_7 O 0.5569(2) 0.59520(12) 0.33641(12)
O16_7 O 0.6437(3) 0.58573(14) 0.31869(13)
C29_11 C 0.4272(5) 0.4173(2) 0.1514(2)
C30_11 C 0.4505(4) 0.4421(2) 0.17570(19)
C31_9 C 0.5089(4) 0.4437(2) 0.1803(2)
H17_9 H 0.5338 0.4299 0.1684
C32_9 C 0.5303(4) 0.4660(2) 0.2028(2)
H18_9 H 0.5703 0.4669 0.2054
C33_11 C 0.4975(4) 0.4869(2) 0.2217(2)
C34_11 C 0.4389(5) 0.4855(3) 0.2172(2)
H19_11 H 0.4148 0.4998 0.2291
C35_11 C 0.4143(4) 0.4620(3) 0.1941(2)
H20_11 H 0.3743 0.4603 0.1916
C36_10 C 0.5220(4) 0.5111(2) 0.24656(19)
C37_10 C 0.5786(4) 0.5222(2) 0.2445(2)
H21_10 H 0.6021 0.5146 0.2276
C38_11 C 0.6003(4) 0.5445(2) 0.2672(2)
H22_11 H 0.6385 0.5517 0.2655
C39_11 C 0.5662(4) 0.5563(2) 0.29270(18)
C40_11 C 0.5100(4) 0.5463(2) 0.29411(19)
H23_9 H 0.4863 0.5545 0.3107
C41_9 C 0.4874(4) 0.52407(19) 0.2710(2)
H24_9 H 0.4486 0.5179 0.2721
C42_11 C 0.5900(5) 0.5802(2) 0.3170(2)
O17_11 O 0.2938(2) 0.35056(14) 0.13422(12)
O18_11 O 0.3789(3) 0.33486(14) 0.14972(12)
O19_7 O 0.1931(2) 0.15480(12) 0.33641(12)
O20_7 O 0.3069(2) 0.40480(12) 0.08641(12)
O21_7 O 0.4431(2) 0.34520(12) 0.08641(12)
O22_7 O 0.1063(3) 0.16427(14) 0.31869(13)
O23_7 O 0.3937(3) 0.41427(14) 0.06869(13)
O24_7 O 0.3563(3) 0.33573(14) 0.06869(13)
C43_11 C 0.3228(5) 0.3327(2) 0.1514(2)
C44_11 C 0.2995(4) 0.3079(2) 0.17570(19)
C45_11 C 0.2411(4) 0.3063(2) 0.1803(2)
H25_11 H 0.2162 0.3201 0.1684
C46_11 C 0.2197(4) 0.2840(2) 0.2028(2)
H26_11 H 0.1797 0.2831 0.2054
C47_11 C 0.2525(4) 0.2631(2) 0.2217(2)
C48_11 C 0.3111(5) 0.2645(3) 0.2172(2)
H27_11 H 0.3352 0.2502 0.2291
C49_11 C 0.3357(4) 0.2880(3) 0.1941(2)
H28_11 H 0.3757 0.2897 0.1916
C50_11 C 0.2280(4) 0.2389(2) 0.24656(19)
C51_11 C 0.1714(4) 0.2278(2) 0.2445(2)
H29_11 H 0.1479 0.2354 0.2276
C52_11 C 0.1497(4) 0.2055(2) 0.2672(2)
H30_11 H 0.1115 0.1983 0.2655
C53_11 C 0.1838(4) 0.1937(2) 0.29270(18)
C54_11 C 0.2400(4) 0.2037(2) 0.29411(19)
H31_11 H 0.2637 0.1955 0.3107
C55_11 C 0.2626(4) 0.22593(19) 0.2710(2)
H32_11 H 0.3014 0.2321 0.2721
C56_11 C 0.1600(5) 0.1698(2) 0.3170(2)
O15_8 O 0.5569(2) 0.09520(12) 0.83641(12)
O16_8 O 0.6437(3) 0.08573(14) 0.81869(13)
C36_11 C 0.5220(4) 0.0111(2) 0.74656(19)
C37_11 C 0.5786(4) 0.0222(2) 0.7445(2)
H21_11 H 0.6021 0.0146 0.7276
C38_12 C 0.6003(4) 0.0445(2) 0.7672(2)
H22_12 H 0.6385 0.0517 0.7655
C39_12 C 0.5662(4) 0.0563(2) 0.79270(18)
C40_12 C 0.5100(4) 0.0463(2) 0.79411(19)
H23_10 H 0.4863 0.0545 0.8107
C41_10 C 0.4874(4) 0.02407(19) 0.7710(2)
H24_10 H 0.4486 0.0179 0.7721
C42_12 C 0.5900(5) 0.0802(2) 0.8170(2)
In4_8 In 0.3750 0.8750 0.610937(15)
O13_12 O 0.4562(2) 0.89944(14) 0.63422(12)
O14_12 O 0.3711(3) 0.91514(14) 0.64972(12)
C29_12 C 0.4272(5) 0.9173(2) 0.6514(2)
C30_12 C 0.4505(4) 0.9421(2) 0.67570(19)
C31_10 C 0.5089(4) 0.9437(2) 0.6803(2)
H17_10 H 0.5338 0.9299 0.6684
C32_10 C 0.5303(4) 0.9660(2) 0.7028(2)
H18_10 H 0.5703 0.9669 0.7054
C33_12 C 0.4975(4) 0.9869(2) 0.7217(2)
C34_12 C 0.4389(5) 0.9855(3) 0.7172(2)
H19_12 H 0.4148 0.9998 0.7291
C35_12 C 0.4143(4) 0.9620(3) 0.6941(2)
H20_12 H 0.3743 0.9603 0.6916
O17_12 O 0.2938(2) 0.85056(14) 0.63422(12)
O18_12 O 0.3789(3) 0.83486(14) 0.64972(12)
O19_8 O 0.1931(2) 0.65480(12) 0.83641(12)
O20_8 O 0.3069(2) 0.90480(12) 0.58641(12)
O21_8 O 0.4431(2) 0.84520(12) 0.58641(12)
O22_8 O 0.1063(3) 0.66427(14) 0.81869(13)
O23_8 O 0.3937(3) 0.91427(14) 0.56869(13)
O24_8 O 0.3563(3) 0.83573(14) 0.56869(13)
C43_12 C 0.3228(5) 0.8327(2) 0.6514(2)
C44_12 C 0.2995(4) 0.8079(2) 0.67570(19)
C45_12 C 0.2411(4) 0.8063(2) 0.6803(2)
H25_12 H 0.2162 0.8201 0.6684
C46_12 C 0.2197(4) 0.7840(2) 0.7028(2)
H26_12 H 0.1797 0.7831 0.7054
C47_12 C 0.2525(4) 0.7631(2) 0.7217(2)
C48_12 C 0.3111(5) 0.7645(3) 0.7172(2)
H27_12 H 0.3352 0.7502 0.7291
C49_12 C 0.3357(4) 0.7880(3) 0.6941(2)
H28_12 H 0.3757 0.7897 0.6916
C50_12 C 0.2280(4) 0.7389(2) 0.74656(19)
C51_12 C 0.1714(4) 0.7278(2) 0.7445(2)
H29_12 H 0.1479 0.7354 0.7276
C52_12 C 0.1497(4) 0.7055(2) 0.7672(2)
H30_12 H 0.1115 0.6983 0.7655
C53_12 C 0.1838(4) 0.6937(2) 0.79270(18)
C54_12 C 0.2400(4) 0.7037(2) 0.79411(19)
H31_12 H 0.2637 0.6955 0.8107
C55_12 C 0.2626(4) 0.72593(19) 0.7710(2)
H32_12 H 0.3014 0.7321 0.7721
C56_12 C 0.1600(5) 0.6698(2) 0.8170(2)
C38_13 C 0.3503(4) 0.4555(2) 0.0172(2)
H22_13 H 0.3885 0.4483 0.0155
C39_13 C 0.3162(4) 0.4437(2) 0.04270(18)
C40_13 C 0.2600(4) 0.4537(2) 0.04411(19)
H23_11 H 0.2363 0.4455 0.0607
C41_11 C 0.2374(4) 0.47593(19) 0.0210(2)
H24_11 H 0.1986 0.4821 0.0221
C42_13 C 0.3400(5) 0.4198(2) 0.0670(2)
H31_13 H 0.0137 0.8045 0.0607
C55_13 C 0.0126(4) 0.77407(19) 0.0210(2)
H32_13 H 0.0514 0.7679 0.0221
O13_13 O 0.2062(2) 0.60056(14) 0.88422(12)
O14_13 O 0.1211(3) 0.58486(14) 0.89972(12)
C29_13 C 0.1772(5) 0.5827(2) 0.9014(2)
C30_13 C 0.2005(4) 0.5579(2) 0.92570(19)
C31_11 C 0.2589(4) 0.5563(2) 0.9303(2)
H17_11 H 0.2838 0.5701 0.9184
C32_11 C 0.2803(4) 0.5340(2) 0.9528(2)
H18_11 H 0.3203 0.5331 0.9554
C33_13 C 0.2475(4) 0.5131(2) 0.9717(2)
C34_13 C 0.1889(5) 0.5145(3) 0.9672(2)
H19_13 H 0.1648 0.5002 0.9791
C35_13 C 0.1643(4) 0.5380(3) 0.9441(2)
H20_13 H 0.1243 0.5397 0.9416
C36_12 C 0.2720(4) 0.4889(2) 0.99656(19)
C37_12 C 0.3286(4) 0.4778(2) 0.9945(2)
H21_12 H 0.3521 0.4854 0.9776
O17_13 O 0.0438(2) 0.64944(14) 0.88422(12)
O18_13 O 0.1289(3) 0.66514(14) 0.89972(12)
C43_13 C 0.0728(5) 0.6673(2) 0.9014(2)
C44_13 C 0.0495(4) 0.6921(2) 0.92570(19)
C47_13 C 0.0025(4) 0.7369(2) 0.9717(2)
C48_13 C 0.0611(5) 0.7355(3) 0.9672(2)
H27_13 H 0.0852 0.7498 0.9791
C49_13 C 0.0857(4) 0.7120(3) 0.9441(2)
H28_13 H 0.1257 0.7103 0.9416
C52_13 C 0.8997(4) 0.7945(2) 0.0172(2)
H30_13 H 0.8615 0.8017 0.0155
C53_13 C 0.9338(4) 0.8063(2) 0.04270(18)
C54_13 C 0.9900(4) 0.7963(2) 0.04411(19)
C56_13 C 0.9100(5) 0.8302(2) 0.0670(2)
O13_14 O 0.2062(2) 0.10056(14) 0.38422(12)
O14_14 O 0.1211(3) 0.08486(14) 0.39972(12)
C29_14 C 0.1772(5) 0.0827(2) 0.4014(2)
C30_14 C 0.2005(4) 0.0579(2) 0.42570(19)
C31_12 C 0.2589(4) 0.0563(2) 0.4303(2)
H17_12 H 0.2838 0.0701 0.4184
C32_12 C 0.2803(4) 0.0340(2) 0.4528(2)
H18_12 H 0.3203 0.0331 0.4554
C33_14 C 0.2475(4) 0.0131(2) 0.4717(2)
C34_14 C 0.1889(5) 0.0145(3) 0.4672(2)
H19_14 H 0.1648 0.0002 0.4791
C35_14 C 0.1643(4) 0.0380(3) 0.4441(2)
H20_14 H 0.1243 0.0397 0.4416
O17_14 O 0.0438(2) 0.14944(14) 0.38422(12)
O18_14 O 0.1289(3) 0.16514(14) 0.39972(12)
C43_14 C 0.0728(5) 0.1673(2) 0.4014(2)
C44_14 C 0.0495(4) 0.1921(2) 0.42570(19)
C47_14 C 0.0025(4) 0.2369(2) 0.4717(2)
C48_14 C 0.0611(5) 0.2355(3) 0.4672(2)
H27_14 H 0.0852 0.2498 0.4791
C49_14 C 0.0857(4) 0.2120(3) 0.4441(2)
H28_14 H 0.1257 0.2103 0.4416
H31_14 H 0.0137 0.3045 0.5607
C55_14 C 0.0126(4) 0.27407(19) 0.5210(2)
H32_14 H 0.0514 0.2679 0.5221
C36_13 C 0.2720(4) 0.9889(2) 0.49656(19)
C37_13 C 0.3286(4) 0.9778(2) 0.4945(2)
H21_13 H 0.3521 0.9854 0.4776
C38_14 C 0.3503(4) 0.9555(2) 0.5172(2)
H22_14 H 0.3885 0.9483 0.5155
C39_14 C 0.3162(4) 0.9437(2) 0.54270(18)
C40_14 C 0.2600(4) 0.9537(2) 0.54411(19)
H23_12 H 0.2363 0.9455 0.5607
C41_12 C 0.2374(4) 0.97593(19) 0.5210(2)
H24_12 H 0.1986 0.9821 0.5221
C42_14 C 0.3400(5) 0.9198(2) 0.5670(2)
C45_13 C 0.9911(4) 0.1937(2) 0.4303(2)
H25_13 H 0.9662 0.1799 0.4184
C46_13 C 0.9697(4) 0.2160(2) 0.4528(2)
H26_13 H 0.9297 0.2169 0.4554
C50_13 C 0.9780(4) 0.2611(2) 0.49656(19)
C51_13 C 0.9214(4) 0.2722(2) 0.4945(2)
H29_13 H 0.8979 0.2646 0.4776
C52_14 C 0.8997(4) 0.2945(2) 0.5172(2)
H30_14 H 0.8615 0.3017 0.5155
C53_14 C 0.9338(4) 0.3063(2) 0.54270(18)
C54_14 C 0.9900(4) 0.2963(2) 0.54411(19)
C56_14 C 0.9100(5) 0.3302(2) 0.5670(2)
O13_15 O 0.7062(2) 0.60056(14) 0.38422(12)
O14_15 O 0.6211(3) 0.58486(14) 0.39972(12)
C29_15 C 0.6772(5) 0.5827(2) 0.4014(2)
C30_15 C 0.7005(4) 0.5579(2) 0.42570(19)
C31_13 C 0.7589(4) 0.5563(2) 0.4303(2)
H17_13 H 0.7838 0.5701 0.4184
C32_13 C 0.7803(4) 0.5340(2) 0.4528(2)
H18_13 H 0.8203 0.5331 0.4554
C33_15 C 0.7475(4) 0.5131(2) 0.4717(2)
C34_15 C 0.6889(5) 0.5145(3) 0.4672(2)
H19_15 H 0.6648 0.5002 0.4791
C35_15 C 0.6643(4) 0.5380(3) 0.4441(2)
H20_15 H 0.6243 0.5397 0.4416
C36_14 C 0.7720(4) 0.4889(2) 0.49656(19)
C37_14 C 0.8286(4) 0.4778(2) 0.4945(2)
H21_14 H 0.8521 0.4854 0.4776
C38_15 C 0.8503(4) 0.4555(2) 0.5172(2)
H22_15 H 0.8885 0.4483 0.5155
C39_15 C 0.8162(4) 0.4437(2) 0.54270(18)
C40_15 C 0.7600(4) 0.4537(2) 0.54411(19)
H23_13 H 0.7363 0.4455 0.5607
C41_13 C 0.7374(4) 0.47593(19) 0.5210(2)
H24_13 H 0.6986 0.4821 0.5221
C42_15 C 0.8400(5) 0.4198(2) 0.5670(2)
O17_15 O 0.5438(2) 0.64944(14) 0.38422(12)
O18_15 O 0.6289(3) 0.66514(14) 0.39972(12)
C43_15 C 0.5728(5) 0.6673(2) 0.4014(2)
C44_15 C 0.5495(4) 0.6921(2) 0.42570(19)
C45_14 C 0.4911(4) 0.6937(2) 0.4303(2)
H25_14 H 0.4662 0.6799 0.4184
C46_14 C 0.4697(4) 0.7160(2) 0.4528(2)
H26_14 H 0.4297 0.7169 0.4554
C47_15 C 0.5025(4) 0.7369(2) 0.4717(2)
C48_15 C 0.5611(5) 0.7355(3) 0.4672(2)
H27_15 H 0.5852 0.7498 0.4791
C49_15 C 0.5857(4) 0.7120(3) 0.4441(2)
H28_15 H 0.6257 0.7103 0.4416
C50_14 C 0.4780(4) 0.7611(2) 0.49656(19)
C51_14 C 0.4214(4) 0.7722(2) 0.4945(2)
H29_14 H 0.3979 0.7646 0.4776
C52_15 C 0.3997(4) 0.7945(2) 0.5172(2)
H30_15 H 0.3615 0.8017 0.5155
C53_15 C 0.4338(4) 0.8063(2) 0.54270(18)
C54_15 C 0.4900(4) 0.7963(2) 0.54411(19)
H31_15 H 0.5137 0.8045 0.5607
C55_15 C 0.5126(4) 0.77407(19) 0.5210(2)
H32_15 H 0.5514 0.7679 0.5221
C56_15 C 0.4100(5) 0.8302(2) 0.5670(2)
C52_16 C 0.3997(4) 0.2945(2) 0.0172(2)
H30_16 H 0.3615 0.3017 0.0155
C53_16 C 0.4338(4) 0.3063(2) 0.04270(18)
C54_16 C 0.4900(4) 0.2963(2) 0.04411(19)
H31_16 H 0.5137 0.3045 0.0607
C55_16 C 0.5126(4) 0.27407(19) 0.0210(2)
H32_16 H 0.5514 0.2679 0.0221
C56_16 C 0.4100(5) 0.3302(2) 0.0670(2)
O13_16 O 0.7062(2) 0.10056(14) 0.88422(12)
O14_16 O 0.6211(3) 0.08486(14) 0.89972(12)
C29_16 C 0.6772(5) 0.0827(2) 0.9014(2)
C30_16 C 0.7005(4) 0.0579(2) 0.92570(19)
C31_14 C 0.7589(4) 0.0563(2) 0.9303(2)
H17_14 H 0.7838 0.0701 0.9184
C32_14 C 0.7803(4) 0.0340(2) 0.9528(2)
H18_14 H 0.8203 0.0331 0.9554
C33_16 C 0.7475(4) 0.0131(2) 0.9717(2)
C34_16 C 0.6889(5) 0.0145(3) 0.9672(2)
H19_16 H 0.6648 0.0002 0.9791
C35_16 C 0.6643(4) 0.0380(3) 0.9441(2)
H20_16 H 0.6243 0.0397 0.9416
O17_16 O 0.5438(2) 0.14944(14) 0.88422(12)
O18_16 O 0.6289(3) 0.16514(14) 0.89972(12)
C43_16 C 0.5728(5) 0.1673(2) 0.9014(2)
C44_16 C 0.5495(4) 0.1921(2) 0.92570(19)
C45_15 C 0.4911(4) 0.1937(2) 0.9303(2)
H25_15 H 0.4662 0.1799 0.9184
C46_15 C 0.4697(4) 0.2160(2) 0.9528(2)
H26_15 H 0.4297 0.2169 0.9554
C47_16 C 0.5025(4) 0.2369(2) 0.9717(2)
C48_16 C 0.5611(5) 0.2355(3) 0.9672(2)
H27_16 H 0.5852 0.2498 0.9791
C49_16 C 0.5857(4) 0.2120(3) 0.9441(2)
H28_16 H 0.6257 0.2103 0.9416
C50_15 C 0.4780(4) 0.2611(2) 0.99656(19)
C51_15 C 0.4214(4) 0.2722(2) 0.9945(2)
H29_15 H 0.3979 0.2646 0.9776
C38_16 C 0.8503(4) 0.9555(2) 0.0172(2)
H22_16 H 0.8885 0.9483 0.0155
C39_16 C 0.8162(4) 0.9437(2) 0.04270(18)
C40_16 C 0.7600(4) 0.9537(2) 0.04411(19)
H23_14 H 0.7363 0.9455 0.0607
C41_14 C 0.7374(4) 0.97593(19) 0.0210(2)
H24_14 H 0.6986 0.9821 0.0221
C42_16 C 0.8400(5) 0.9198(2) 0.0670(2)
C31_15 C 0.0089(4) 0.9437(2) 0.1803(2)
H17_15 H 0.0338 0.9299 0.1684
C32_15 C 0.0303(4) 0.9660(2) 0.2028(2)
H18_15 H 0.0703 0.9669 0.2054
H23_15 H 0.9863 0.0545 0.3107
C41_15 C 0.9874(4) 0.02407(19) 0.2710(2)
H24_15 H 0.9486 0.0179 0.2721
C36_15 C 0.2280(4) 0.0111(2) 0.00344(19)
C37_15 C 0.1714(4) 0.0222(2) 0.0055(2)
H21_15 H 0.1479 0.0146 0.0224
C45_16 C 0.9911(4) 0.6937(2) 0.9303(2)
H25_16 H 0.9662 0.6799 0.9184
C46_16 C 0.9697(4) 0.7160(2) 0.9528(2)
H26_16 H 0.9297 0.7169 0.9554
C50_16 C 0.9780(4) 0.7611(2) 0.99656(19)
C51_16 C 0.9214(4) 0.7722(2) 0.9945(2)
H29_16 H 0.8979 0.7646 0.9776
H23_16 H 0.0137 0.9455 0.6893
C41_16 C 0.0126(4) 0.97593(19) 0.7290(2)
H24_16 H 0.0514 0.9821 0.7279
C31_16 C 0.9911(4) 0.0563(2) 0.8197(2)
H17_16 H 0.9662 0.0701 0.8316
C32_16 C 0.9697(4) 0.0340(2) 0.7972(2)
H18_16 H 0.9297 0.0331 0.7946
C36_16 C 0.7720(4) 0.9889(2) 0.99656(19)
C37_16 C 0.8286(4) 0.9778(2) 0.9945(2)
H21_16 H 0.8521 0.9854 0.9776
loop_
_geom_bond_atom_site_label_1
_geom_bond_atom_site_label_2
_geom_bond_site_symmetry_1
_geom_bond_site_symmetry_2
In1 O1 1_555 1_555
O1 C1 1_555 1_555
O2 In1 1_555 1_555
C1 O2 1_555 1_555
C2 C1 1_555 1_555
C3 C2 1_555 1_555
H1 C3 1_555 1_555
C4 C3 1_555 1_555
C5 C4 1_555 1_555
C7 C2 1_555 1_555
In2 O7 1_555 1_555
O5 In1 1_555 1_555
O6 In1 1_555 1_555
O7 C28 1_555 1_555
O8 In1 1_555 1_555
O9 In1 1_555 1_555
O10 In2 1_555 1_555
O11 In1 1_555 1_555
O12 In1 1_555 1_555
C15 O5 1_555 1_555
C16 C15 1_555 1_555
C17 C16 1_555 1_555
H9 C17 1_555 1_555
C18 C17 1_555 1_555
H10 C18 1_555 1_555
C19 C18 1_555 1_555
C20 C19 1_555 1_555
H11 C20 1_555 1_555
C21 C16 1_555 1_555
H12 C21 1_555 1_555
C22 C19 1_555 1_555
C23 C22 1_555 1_555
H13 C23 1_555 1_555
C24 C23 1_555 1_555
H14 C24 1_555 1_555
C25 C24 1_555 1_555
C26 C25 1_555 1_555
H15 C26 1_555 1_555
C27 C22 1_555 1_555
H16 C27 1_555 1_555
C28 O10 1_555 1_555
O6 C15 1_555 1_555
C20 C21 1_555 1_555
C25 C28 1_555 1_555
C26 C27 1_555 1_555
O3 C14 1_555 1_555
O4 C14 1_555 1_555
C9 C8 1_555 1_555
C10 C9 1_555 1_555
H6 C10 1_555 1_555
C11 C10 1_555 1_555
C14 C11 1_555 1_555
In3 O3 1_555 1_555
O4 In3 1_555 1_555
In1_2 O1_2 1_555 1_555
O1_2 C1_2 1_555 1_555
O2_2 In1_2 1_555 1_555
O3_2 C14_2 1_555 1_555
O4_2 C14_2 1_555 1_555
C1_2 O2_2 1_555 1_555
C2_2 C1_2 1_555 1_555
C3_2 C2_2 1_555 1_555
H1_2 C3_2 1_555 1_555
C4_2 C3_2 1_555 1_555
H2 C4_2 1_555 1_555
C5_2 C4_2 1_555 1_555
C6 C5_2 1_555 1_555
H3 C6 1_555 1_555
C7_2 C2_2 1_555 1_555
H4 C7_2 1_555 1_555
C8_2 C5_2 1_555 1_555
C9_2 C8_2 1_555 1_555
H5 C9_2 1_555 1_555
C10_2 C9_2 1_555 1_555
H6_2 C10_2 1_555 1_555
C11_2 C10_2 1_555 1_555
C12 C11_2 1_555 1_555
H7 C12 1_555 1_555
C13 C8_2 1_555 1_555
H8 C13 1_555 1_555
C14_2 C11_2 1_555 1_555
In2 O7_2 1_555 1_555
In3 O3_2 1_555 1_555
O5_2 In1_2 1_555 1_555
O6_2 In1_2 1_555 1_555
O7_2 C28_2 1_555 1_555
O8_2 In1_2 1_555 1_555
O9_2 In1_2 1_555 1_555
O10_2 In2 1_555 1_555
O11_2 In1_2 1_555 1_555
O12_2 In1_2 1_555 1_555
C15_2 O5_2 1_555 1_555
C16_2 C15_2 1_555 1_555
C17_2 C16_2 1_555 1_555
H9_2 C17_2 1_555 1_555
C18_2 C17_2 1_555 1_555
H10_2 C18_2 1_555 1_555
C19_2 C18_2 1_555 1_555
C20_2 C19_2 1_555 1_555
H11_2 C20_2 1_555 1_555
C21_2 C16_2 1_555 1_555
H12_2 C21_2 1_555 1_555
C22_2 C19_2 1_555 1_555
C23_2 C22_2 1_555 1_555
H13_2 C23_2 1_555 1_555
C24_2 C23_2 1_555 1_555
H14_2 C24_2 1_555 1_555
C25_2 C24_2 1_555 1_555
C26_2 C25_2 1_555 1_555
H15_2 C26_2 1_555 1_555
C27_2 C22_2 1_555 1_555
H16_2 C27_2 1_555 1_555
C28_2 O10_2 1_555 1_555
O4_2 In3 1_555 1_555
C6 C7_2 1_555 1_555
C12 C13 1_555 1_555
O6_2 C15_2 1_555 1_555
C20_2 C21_2 1_555 1_555
C25_2 C28_2 1_555 1_555
C26_2 C27_2 1_555 1_555
In1_3 O1_3 1_555 1_555
O1_3 C1_3 1_555 1_555
O2_3 In1_3 1_555 1_555
C1_3 O2_3 1_555 1_555
C2_3 C1_3 1_555 1_555
C3_3 C2_3 1_555 1_555
H1_3 C3_3 1_555 1_555
C4_3 C3_3 1_555 1_555
H2_2 C4_3 1_555 1_555
C5_3 C4_3 1_555 1_555
C7_3 C2_3 1_555 1_555
H7_2 C12_2 1_555 1_555
H8_2 C13_2 1_555 1_555
In2_2 O7_3 1_555 1_555
O5_3 In1_3 1_555 1_555
O6_3 In1_3 1_555 1_555
O7_3 C28_3 1_555 1_555
O10_3 In2_2 1_555 1_555
C15_3 O5_3 1_555 1_555
C16_3 C15_3 1_555 1_555
C17_3 C16_3 1_555 1_555
H9_3 C17_3 1_555 1_555
C18_3 C17_3 1_555 1_555
H10_3 C18_3 1_555 1_555
C19_3 C18_3 1_555 1_555
C20_3 C19_3 1_555 1_555
H11_3 C20_3 1_555 1_555
C21_3 C16_3 1_555 1_555
H12_3 C21_3 1_555 1_555
C22_3 C19_3 1_555 1_555
C23_3 C22_3 1_555 1_555
H13_3 C23_3 1_555 1_555
C24_3 C23_3 1_555 1_555
H14_3 C24_3 1_555 1_555
C25_3 C24_3 1_555 1_555
C26_3 C25_3 1_555 1_555
H15_3 C26_3 1_555 1_555
C27_3 C22_3 1_555 1_555
H16_3 C27_3 1_555 1_555
C28_3 O10_3 1_555 1_555
C12_2 C13_2 1_555 1_555
O6_3 C15_3 1_555 1_555
C20_3 C21_3 1_555 1_555
C25_3 C28_3 1_555 1_555
C26_3 C27_3 1_555 1_555
O3_3 C14_3 1_555 1_555
O4_3 C14_3 1_555 1_555
H3_2 C6_2 1_555 1_555
C9_3 C8_3 1_555 1_555
H5_2 C9_3 1_555 1_555
C10_3 C9_3 1_555 1_555
H6_3 C10_3 1_555 1_555
C11_3 C10_3 1_555 1_555
C14_3 C11_3 1_555 1_555
In3_2 O3_3 1_555 1_555
O4_3 In3_2 1_555 1_555
In1_4 O1_4 1_555 1_555
O1_4 C1_4 1_555 1_555
O2_4 In1_4 1_555 1_555
O3_4 C14_4 1_555 1_555
O4_4 C14_4 1_555 1_555
C1_4 O2_4 1_555 1_555
C2_4 C1_4 1_555 1_555
C3_4 C2_4 1_555 1_555
H1_4 C3_4 1_555 1_555
C4_4 C3_4 1_555 1_555
H2_3 C4_4 1_555 1_555
C5_4 C4_4 1_555 1_555
C6_3 C5_4 1_555 1_555
H3_3 C6_3 1_555 1_555
C7_4 C2_4 1_555 1_555
H4_3 C7_4 1_555 1_555
C8_4 C5_4 1_555 1_555
C9_4 C8_4 1_555 1_555
H5_3 C9_4 1_555 1_555
C10_4 C9_4 1_555 1_555
H6_4 C10_4 1_555 1_555
C11_4 C10_4 1_555 1_555
C12_3 C11_4 1_555 1_555
H7_3 C12_3 1_555 1_555
C13_3 C8_4 1_555 1_555
H8_3 C13_3 1_555 1_555
C14_4 C11_4 1_555 1_555
In3_2 O3_4 1_555 1_555
O5_4 In1_4 1_555 1_555
O6_4 In1_4 1_555 1_555
C15_4 O5_4 1_555 1_555
C16_4 C15_4 1_555 1_555
C17_4 C16_4 1_555 1_555
H9_4 C17_4 1_555 1_555
C18_4 C17_4 1_555 1_555
C19_4 C18_4 1_555 1_555
C20_4 C19_4 1_555 1_555
H11_4 C20_4 1_555 1_555
C21_4 C16_4 1_555 1_555
H12_4 C21_4 1_555 1_555
O4_4 In3_2 1_555 1_555
C6_3 C7_4 1_555 1_555
C12_3 C13_3 1_555 1_555
O6_4 C15_4 1_555 1_555
C20_4 C21_4 1_555 1_555
In2_2 O7_4 1_555 1_555
O7_4 C28_4 1_555 1_555
O10_4 In2_2 1_555 1_555
C23_4 C22_4 1_555 1_555
C24_4 C23_4 1_555 1_555
H14_4 C24_4 1_555 1_555
C25_4 C24_4 1_555 1_555
C26_4 C25_4 1_555 1_555
H15_4 C26_4 1_555 1_555
C27_4 C22_4 1_555 1_555
H16_4 C27_4 1_555 1_555
C28_4 O10_4 1_555 1_555
C25_4 C28_4 1_555 1_555
C26_4 C27_4 1_555 1_555
O8 C14_5 1_555 1_555
O11 C14_5 1_555 1_555
C9_5 C8_5 1_555 1_555
C10_5 C9_5 1_555 1_555
H6_5 C10_5 1_555 1_555
C11_5 C10_5 1_555 1_555
C12_4 C11_5 1_555 1_555
H7_4 C12_4 1_555 1_555
C13_4 C8_5 1_555 1_555
H8_4 C13_4 1_555 1_555
C14_5 C11_5 1_555 1_555
C12_4 C13_4 1_555 1_555
In2_2 O1_5 1_555 1_555
O1_5 C1_5 1_555 1_555
O2_5 In2_2 1_555 1_555
C1_5 O2_5 1_555 1_555
C2_5 C1_5 1_555 1_555
C3_5 C2_5 1_555 1_555
H1_5 C3_5 1_555 1_555
C4_5 C3_5 1_555 1_555
C5_5 C4_5 1_555 1_555
C6_4 C5_5 1_555 1_555
H3_4 C6_4 1_555 1_555
C7_5 C2_5 1_555 1_555
H4_4 C7_5 1_555 1_555
O5_5 In2_2 1_555 1_555
O6_5 In2_2 1_555 1_555
O8_2 C28_5 1_555 1_555
C15_5 O5_5 1_555 1_555
C16_5 C15_5 1_555 1_555
C17_5 C16_5 1_555 1_555
H9_5 C17_5 1_555 1_555
C18_5 C17_5 1_555 1_555
H10_5 C18_5 1_555 1_555
C19_5 C18_5 1_555 1_555
C20_5 C19_5 1_555 1_555
H11_5 C20_5 1_555 1_555
C21_5 C16_5 1_555 1_555
H12_5 C21_5 1_555 1_555
C22_5 C19_5 1_555 1_555
C23_5 C22_5 1_555 1_555
H13_5 C23_5 1_555 1_555
C24_5 C23_5 1_555 1_555
H14_5 C24_5 1_555 1_555
C25_5 C24_5 1_555 1_555
C26_5 C25_5 1_555 1_555
H15_5 C26_5 1_555 1_555
C27_5 C22_5 1_555 1_555
H16_5 C27_5 1_555 1_555
C28_5 O11_2 1_555 1_555
C6_4 C7_5 1_555 1_555
O6_5 C15_5 1_555 1_555
C20_5 C21_5 1_555 1_555
C25_5 C28_5 1_555 1_555
C26_5 C27_5 1_555 1_555
O9 C14_6 1_555 1_555
O12 C14_6 1_555 1_555
H3_5 C6_5 1_555 1_555
C9_6 C8_6 1_555 1_555
H5_5 C9_6 1_555 1_555
C10_6 C9_6 1_555 1_555
H6_6 C10_6 1_555 1_555
C11_6 C10_6 1_555 1_555
C14_6 C11_6 1_555 1_555
In3_2 O1_6 1_555 1_555
O1_6 C1_6 1_555 1_555
O2_6 In3_2 1_555 1_555
C1_6 O2_6 1_555 1_555
C2_6 C1_6 1_555 1_555
C3_6 C2_6 1_555 1_555
H1_6 C3_6 1_555 1_555
C4_6 C3_6 1_555 1_555
H2_5 C4_6 1_555 1_555
C5_6 C4_6 1_555 1_555
C7_6 C2_6 1_555 1_555
H7_5 C12_5 1_555 1_555
H8_5 C13_5 1_555 1_555
O5_6 In3_2 1_555 1_555
O6_6 In3_2 1_555 1_555
O9_2 C28_6 1_555 1_555
C15_6 O5_6 1_555 1_555
C16_6 C15_6 1_555 1_555
C17_6 C16_6 1_555 1_555
H9_6 C17_6 1_555 1_555
C18_6 C17_6 1_555 1_555
H10_6 C18_6 1_555 1_555
C19_6 C18_6 1_555 1_555
C20_6 C19_6 1_555 1_555
H11_6 C20_6 1_555 1_555
C21_6 C16_6 1_555 1_555
H12_6 C21_6 1_555 1_555
C22_6 C19_6 1_555 1_555
C23_6 C22_6 1_555 1_555
H13_6 C23_6 1_555 1_555
C24_6 C23_6 1_555 1_555
H14_6 C24_6 1_555 1_555
C25_6 C24_6 1_555 1_555
C26_6 C25_6 1_555 1_555
H15_6 C26_6 1_555 1_555
C27_6 C22_6 1_555 1_555
H16_6 C27_6 1_555 1_555
C28_6 O12_2 1_555 1_555
C12_5 C13_5 1_555 1_555
O6_6 C15_6 1_555 1_555
C20_6 C21_6 1_555 1_555
C25_6 C28_6 1_555 1_555
C26_6 C27_6 1_555 1_555
In2 O1_7 1_555 1_555
O1_7 C1_7 1_555 1_555
O2_7 In2 1_555 1_555
O8_3 C14_7 1_555 1_555
O11_3 C14_7 1_555 1_555
C1_7 O2_7 1_555 1_555
C2_7 C1_7 1_555 1_555
C3_7 C2_7 1_555 1_555
H1_7 C3_7 1_555 1_555
C4_7 C3_7 1_555 1_555
H2_6 C4_7 1_555 1_555
C5_7 C4_7 1_555 1_555
C6_6 C5_7 1_555 1_555
H3_6 C6_6 1_555 1_555
C7_7 C2_7 1_555 1_555
H4_6 C7_7 1_555 1_555
C8_7 C5_7 1_555 1_555
C9_7 C8_7 1_555 1_555
H5_6 C9_7 1_555 1_555
C10_7 C9_7 1_555 1_555
H6_7 C10_7 1_555 1_555
C11_7 C10_7 1_555 1_555
C12_6 C11_7 1_555 1_555
H7_6 C12_6 1_555 1_555
C13_6 C8_7 1_555 1_555
H8_6 C13_6 1_555 1_555
C14_7 C11_7 1_555 1_555
O5_7 In2 1_555 1_555
O6_7 In2 1_555 1_555
O8_4 C28_7 1_555 1_555
C15_7 O5_7 1_555 1_555
C16_7 C15_7 1_555 1_555
C17_7 C16_7 1_555 1_555
H9_7 C17_7 1_555 1_555
C18_7 C17_7 1_555 1_555
H10_7 C18_7 1_555 1_555
C19_7 C18_7 1_555 1_555
C20_7 C19_7 1_555 1_555
H11_7 C20_7 1_555 1_555
C21_7 C16_7 1_555 1_555
H12_7 C21_7 1_555 1_555
C22_7 C19_7 1_555 1_555
C23_7 C22_7 1_555 1_555
H13_7 C23_7 1_555 1_555
C24_7 C23_7 1_555 1_555
H14_7 C24_7 1_555 1_555
C25_7 C24_7 1_555 1_555
C26_7 C25_7 1_555 1_555
H15_7 C26_7 1_555 1_555
C27_7 C22_7 1_555 1_555
H16_7 C27_7 1_555 1_555
C28_7 O11_4 1_555 1_555
C6_6 C7_7 1_555 1_555
C12_6 C13_6 1_555 1_555
O6_7 C15_7 1_555 1_555
C20_7 C21_7 1_555 1_555
C25_7 C28_7 1_555 1_555
C26_7 C27_7 1_555 1_555
O9_3 C14_8 1_555 1_555
O12_3 C14_8 1_555 1_555
H3_7 C6_7 1_555 1_555
C9_8 C8_8 1_555 1_555
H5_7 C9_8 1_555 1_555
C10_8 C9_8 1_555 1_555
H6_8 C10_8 1_555 1_555
C11_8 C10_8 1_555 1_555
C14_8 C11_8 1_555 1_555
O9_4 C28_8 1_555 1_555
C23_8 C22_8 1_555 1_555
C24_8 C23_8 1_555 1_555
H14_8 C24_8 1_555 1_555
C25_8 C24_8 1_555 1_555
C26_8 C25_8 1_555 1_555
H15_8 C26_8 1_555 1_555
C27_8 C22_8 1_555 1_555
H16_8 C27_8 1_555 1_555
C28_8 O12_4 1_555 1_555
C25_8 C28_8 1_555 1_555
C26_8 C27_8 1_555 1_555
In3 O1_8 1_555 1_555
O1_8 C1_8 1_555 1_555
O2_8 In3 1_555 1_555
C1_8 O2_8 1_555 1_555
C2_8 C1_8 1_555 1_555
C3_8 C2_8 1_555 1_555
H1_8 C3_8 1_555 1_555
C4_8 C3_8 1_555 1_555
H2_7 C4_8 1_555 1_555
C5_8 C4_8 1_555 1_555
C7_8 C2_8 1_555 1_555
H7_7 C12_7 1_555 1_555
H8_7 C13_7 1_555 1_555
O5_8 In3 1_555 1_555
O6_8 In3 1_555 1_555
C15_8 O5_8 1_555 1_555
C16_8 C15_8 1_555 1_555
C17_8 C16_8 1_555 1_555
H9_8 C17_8 1_555 1_555
C18_8 C17_8 1_555 1_555
C19_8 C18_8 1_555 1_555
C20_8 C19_8 1_555 1_555
H11_8 C20_8 1_555 1_555
C21_8 C16_8 1_555 1_555
H12_8 C21_8 1_555 1_555
C12_7 C13_7 1_555 1_555
O6_8 C15_8 1_555 1_555
C20_8 C21_8 1_555 1_555
H7_8 C12_8 1_555 1_555
H8_8 C13_8 1_555 1_555
C12_8 C13_8 1_555 1_555
H3_8 C6_8 1_555 1_555
In1_5 O1_9 1_555 1_555
O1_9 C1_9 1_555 1_555
O2_9 In1_5 1_555 1_555
C1_9 O2_9 1_555 1_555
C2_9 C1_9 1_555 1_555
C3_9 C2_9 1_555 1_555
H1_9 C3_9 1_555 1_555
C4_9 C3_9 1_555 1_555
C5_9 C4_9 1_555 1_555
C6_9 C5_9 1_555 1_555
H3_9 C6_9 1_555 1_555
C7_9 C2_9 1_555 1_555
H4_9 C7_9 1_555 1_555
In2_3 O7_5 1_555 1_555
O5_9 In1_5 1_555 1_555
O6_9 In1_5 1_555 1_555
O7_5 C28_9 1_555 1_555
O8_5 In1_5 1_555 1_555
O9_5 In1_5 1_555 1_555
O10_5 In2_3 1_555 1_555
O11_5 In1_5 1_555 1_555
O12_5 In1_5 1_555 1_555
C15_9 O5_9 1_555 1_555
C16_9 C15_9 1_555 1_555
C17_9 C16_9 1_555 1_555
H9_9 C17_9 1_555 1_555
C18_9 C17_9 1_555 1_555
H10_9 C18_9 1_555 1_555
C19_9 C18_9 1_555 1_555
C20_9 C19_9 1_555 1_555
H11_9 C20_9 1_555 1_555
C21_9 C16_9 1_555 1_555
H12_9 C21_9 1_555 1_555
C22_9 C19_9 1_555 1_555
C23_9 C22_9 1_555 1_555
H13_9 C23_9 1_555 1_555
C24_9 C23_9 1_555 1_555
H14_9 C24_9 1_555 1_555
C25_9 C24_9 1_555 1_555
C26_9 C25_9 1_555 1_555
H15_9 C26_9 1_555 1_555
C27_9 C22_9 1_555 1_555
H16_9 C27_9 1_555 1_555
C28_9 O10_5 1_555 1_555
C6_9 C7_9 1_555 1_555
O6_9 C15_9 1_555 1_555
C20_9 C21_9 1_555 1_555
C25_9 C28_9 1_555 1_555
C26_9 C27_9 1_555 1_555
O3_5 C14_9 1_555 1_555
O4_5 C14_9 1_555 1_555
C9_9 C8_9 1_555 1_555
C10_9 C9_9 1_555 1_555
H6_9 C10_9 1_555 1_555
C11_9 C10_9 1_555 1_555
C12_9 C11_9 1_555 1_555
H7_9 C12_9 1_555 1_555
C13_9 C8_9 1_555 1_555
H8_9 C13_9 1_555 1_555
C14_9 C11_9 1_555 1_555
In3_3 O3_5 1_555 1_555
O4_5 In3_3 1_555 1_555
C12_9 C13_9 1_555 1_555
In1_6 O1_10 1_555 1_555
O1_10 C1_10 1_555 1_555
O2_10 In1_6 1_555 1_555
C1_10 O2_10 1_555 1_555
C2_10 C1_10 1_555 1_555
C3_10 C2_10 1_555 1_555
H1_10 C3_10 1_555 1_555
C4_10 C3_10 1_555 1_555
H2_10 C4_10 1_555 1_555
C5_10 C4_10 1_555 1_555
C7_10 C2_10 1_555 1_555
H7_10 C12_10 1_555 1_555
H8_10 C13_10 1_555 1_555
In2_3 O7_6 1_555 1_555
O5_10 In1_6 1_555 1_555
O6_10 In1_6 1_555 1_555
O7_6 C28_10 1_555 1_555
O8_6 In1_6 1_555 1_555
O9_6 In1_6 1_555 1_555
O10_6 In2_3 1_555 1_555
O11_6 In1_6 1_555 1_555
O12_6 In1_6 1_555 1_555
C15_10 O5_10 1_555 1_555
C16_10 C15_10 1_555 1_555
C17_10 C16_10 1_555 1_555
H9_10 C17_10 1_555 1_555
C18_10 C17_10 1_555 1_555
H10_10 C18_10 1_555 1_555
C19_10 C18_10 1_555 1_555
C20_10 C19_10 1_555 1_555
H11_10 C20_10 1_555 1_555
C21_10 C16_10 1_555 1_555
H12_10 C21_10 1_555 1_555
C22_10 C19_10 1_555 1_555
C23_10 C22_10 1_555 1_555
H13_10 C23_10 1_555 1_555
C24_10 C23_10 1_555 1_555
H14_10 C24_10 1_555 1_555
C25_10 C24_10 1_555 1_555
C26_10 C25_10 1_555 1_555
H15_10 C26_10 1_555 1_555
C27_10 C22_10 1_555 1_555
H16_10 C27_10 1_555 1_555
C28_10 O10_6 1_555 1_555
C12_10 C13_10 1_555 1_555
O6_10 C15_10 1_555 1_555
C20_10 C21_10 1_555 1_555
C25_10 C28_10 1_555 1_555
C26_10 C27_10 1_555 1_555
O3_6 C14_10 1_555 1_555
O4_6 C14_10 1_555 1_555
H3_10 C6_10 1_555 1_555
C9_10 C8_10 1_555 1_555
H5_10 C9_10 1_555 1_555
C10_10 C9_10 1_555 1_555
H6_10 C10_10 1_555 1_555
C11_10 C10_10 1_555 1_555
C14_10 C11_10 1_555 1_555
In3_3 O3_6 1_555 1_555
O4_6 In3_3 1_555 1_555
In1_7 O1_11 1_555 1_555
O1_11 C1_11 1_555 1_555
O2_11 In1_7 1_555 1_555
O3_7 C14_11 1_555 1_555
O4_7 C14_11 1_555 1_555
C1_11 O2_11 1_555 1_555
C2_11 C1_11 1_555 1_555
C3_11 C2_11 1_555 1_555
H1_11 C3_11 1_555 1_555
C4_11 C3_11 1_555 1_555
H2_11 C4_11 1_555 1_555
C5_11 C4_11 1_555 1_555
C6_11 C5_11 1_555 1_555
H3_11 C6_11 1_555 1_555
C7_11 C2_11 1_555 1_555
H4_11 C7_11 1_555 1_555
C8_11 C5_11 1_555 1_555
C9_11 C8_11 1_555 1_555
H5_11 C9_11 1_555 1_555
C10_11 C9_11 1_555 1_555
H6_11 C10_11 1_555 1_555
C11_11 C10_11 1_555 1_555
C12_11 C11_11 1_555 1_555
H7_11 C12_11 1_555 1_555
C13_11 C8_11 1_555 1_555
H8_11 C13_11 1_555 1_555
C14_11 C11_11 1_555 1_555
O5_11 In1_7 1_555 1_555
O6_11 In1_7 1_555 1_555
O7_7 C28_11 1_555 1_555
O8_7 In1_7 1_555 1_555
O9_7 In1_7 1_555 1_555
O11_7 In1_7 1_555 1_555
O12_7 In1_7 1_555 1_555
C15_11 O5_11 1_555 1_555
C16_11 C15_11 1_555 1_555
C17_11 C16_11 1_555 1_555
H9_11 C17_11 1_555 1_555
C18_11 C17_11 1_555 1_555
H10_11 C18_11 1_555 1_555
C19_11 C18_11 1_555 1_555
C20_11 C19_11 1_555 1_555
H11_11 C20_11 1_555 1_555
C21_11 C16_11 1_555 1_555
H12_11 C21_11 1_555 1_555
C22_11 C19_11 1_555 1_555
C23_11 C22_11 1_555 1_555
H13_11 C23_11 1_555 1_555
C24_11 C23_11 1_555 1_555
H14_11 C24_11 1_555 1_555
C25_11 C24_11 1_555 1_555
C26_11 C25_11 1_555 1_555
H15_11 C26_11 1_555 1_555
C27_11 C22_11 1_555 1_555
H16_11 C27_11 1_555 1_555
C28_11 O10_7 1_555 1_555
C6_11 C7_11 1_555 1_555
C12_11 C13_11 1_555 1_555
O6_11 C15_11 1_555 1_555
C20_11 C21_11 1_555 1_555
C25_11 C28_11 1_555 1_555
C26_11 C27_11 1_555 1_555
In1_8 O1_12 1_555 1_555
O1_12 C1_12 1_555 1_555
O2_12 In1_8 1_555 1_555
C1_12 O2_12 1_555 1_555
C2_12 C1_12 1_555 1_555
C3_12 C2_12 1_555 1_555
H1_12 C3_12 1_555 1_555
C4_12 C3_12 1_555 1_555
H2_12 C4_12 1_555 1_555
C5_12 C4_12 1_555 1_555
C7_12 C2_12 1_555 1_555
H7_12 C12_12 1_555 1_555
H8_12 C13_12 1_555 1_555
O5_12 In1_8 1_555 1_555
O6_12 In1_8 1_555 1_555
O8_8 In1_8 1_555 1_555
O9_8 In1_8 1_555 1_555
O11_8 In1_8 1_555 1_555
O12_8 In1_8 1_555 1_555
C15_12 O5_12 1_555 1_555
C16_12 C15_12 1_555 1_555
C17_12 C16_12 1_555 1_555
H9_12 C17_12 1_555 1_555
C18_12 C17_12 1_555 1_555
C19_12 C18_12 1_555 1_555
C20_12 C19_12 1_555 1_555
H11_12 C20_12 1_555 1_555
C21_12 C16_12 1_555 1_555
H12_12 C21_12 1_555 1_555
C12_12 C13_12 1_555 1_555
O6_12 C15_12 1_555 1_555
C20_12 C21_12 1_555 1_555
O7_8 C28_12 1_555 1_555
C23_12 C22_12 1_555 1_555
C24_12 C23_12 1_555 1_555
H14_12 C24_12 1_555 1_555
C25_12 C24_12 1_555 1_555
C26_12 C25_12 1_555 1_555
H15_12 C26_12 1_555 1_555
C27_12 C22_12 1_555 1_555
H16_12 C27_12 1_555 1_555
C28_12 O10_8 1_555 1_555
C25_12 C28_12 1_555 1_555
C26_12 C27_12 1_555 1_555
O3_8 C14_12 1_555 1_555
O4_8 C14_12 1_555 1_555
H3_12 C6_12 1_555 1_555
C9_12 C8_12 1_555 1_555
H5_12 C9_12 1_555 1_555
C10_12 C9_12 1_555 1_555
H6_12 C10_12 1_555 1_555
C11_12 C10_12 1_555 1_555
C14_12 C11_12 1_555 1_555
O9_8 C14_13 1_555 1_555
O12_8 C14_13 1_555 1_555
C9_13 C8_13 1_555 1_555
C10_13 C9_13 1_555 1_555
H6_13 C10_13 1_555 1_555
C11_13 C10_13 1_555 1_555
C14_13 C11_13 1_555 1_555
In3_3 O1_13 1_555 1_555
O1_13 C1_13 1_555 1_555
O2_13 In3_3 1_555 1_555
C1_13 O2_13 1_555 1_555
C2_13 C1_13 1_555 1_555
C3_13 C2_13 1_555 1_555
H1_13 C3_13 1_555 1_555
C4_13 C3_13 1_555 1_555
C5_13 C4_13 1_555 1_555
C7_13 C2_13 1_555 1_555
O5_13 In3_3 1_555 1_555
O6_13 In3_3 1_555 1_555
O9_7 C28_13 1_555 1_555
C15_13 O5_13 1_555 1_555
C16_13 C15_13 1_555 1_555
C17_13 C16_13 1_555 1_555
H9_13 C17_13 1_555 1_555
C18_13 C17_13 1_555 1_555
H10_13 C18_13 1_555 1_555
C19_13 C18_13 1_555 1_555
C20_13 C19_13 1_555 1_555
H11_13 C20_13 1_555 1_555
C21_13 C16_13 1_555 1_555
H12_13 C21_13 1_555 1_555
C22_13 C19_13 1_555 1_555
C23_13 C22_13 1_555 1_555
H13_13 C23_13 1_555 1_555
C24_13 C23_13 1_555 1_555
H14_13 C24_13 1_555 1_555
C25_13 C24_13 1_555 1_555
C26_13 C25_13 1_555 1_555
H15_13 C26_13 1_555 1_555
C27_13 C22_13 1_555 1_555
H16_13 C27_13 1_555 1_555
C28_13 O12_7 1_555 1_555
O6_13 C15_13 1_555 1_555
C20_13 C21_13 1_555 1_555
C25_13 C28_13 1_555 1_555
C26_13 C27_13 1_555 1_555
In2_3 O1_14 1_555 1_555
O1_14 C1_14 1_555 1_555
O2_14 In2_3 1_555 1_555
O8_8 C14_14 1_555 1_555
O11_8 C14_14 1_555 1_555
C1_14 O2_14 1_555 1_555
C2_14 C1_14 1_555 1_555
C3_14 C2_14 1_555 1_555
H1_14 C3_14 1_555 1_555
C4_14 C3_14 1_555 1_555
H2_13 C4_14 1_555 1_555
C5_14 C4_14 1_555 1_555
C6_13 C5_14 1_555 1_555
H3_13 C6_13 1_555 1_555
C7_14 C2_14 1_555 1_555
H4_13 C7_14 1_555 1_555
C8_14 C5_14 1_555 1_555
C9_14 C8_14 1_555 1_555
H5_13 C9_14 1_555 1_555
C10_14 C9_14 1_555 1_555
H6_14 C10_14 1_555 1_555
C11_14 C10_14 1_555 1_555
C12_13 C11_14 1_555 1_555
H7_13 C12_13 1_555 1_555
C13_13 C8_14 1_555 1_555
H8_13 C13_13 1_555 1_555
C14_14 C11_14 1_555 1_555
O5_14 In2_3 1_555 1_555
O6_14 In2_3 1_555 1_555
O8_7 C28_14 1_555 1_555
C15_14 O5_14 1_555 1_555
C16_14 C15_14 1_555 1_555
C17_14 C16_14 1_555 1_555
H9_14 C17_14 1_555 1_555
C18_14 C17_14 1_555 1_555
H10_14 C18_14 1_555 1_555
C19_14 C18_14 1_555 1_555
C20_14 C19_14 1_555 1_555
H11_14 C20_14 1_555 1_555
C21_14 C16_14 1_555 1_555
H12_14 C21_14 1_555 1_555
C22_14 C19_14 1_555 1_555
C23_14 C22_14 1_555 1_555
H13_14 C23_14 1_555 1_555
C24_14 C23_14 1_555 1_555
H14_14 C24_14 1_555 1_555
C25_14 C24_14 1_555 1_555
C26_14 C25_14 1_555 1_555
H15_14 C26_14 1_555 1_555
C27_14 C22_14 1_555 1_555
H16_14 C27_14 1_555 1_555
C28_14 O11_7 1_555 1_555
C6_13 C7_14 1_555 1_555
C12_13 C13_13 1_555 1_555
O6_14 C15_14 1_555 1_555
C20_14 C21_14 1_555 1_555
C25_14 C28_14 1_555 1_555
C26_14 C27_14 1_555 1_555
O9_6 C14_15 1_555 1_555
O12_6 C14_15 1_555 1_555
H3_14 C6_14 1_555 1_555
C9_15 C8_15 1_555 1_555
H5_14 C9_15 1_555 1_555
C10_15 C9_15 1_555 1_555
H6_15 C10_15 1_555 1_555
C11_15 C10_15 1_555 1_555
C14_15 C11_15 1_555 1_555
In3_4 O1_15 1_555 1_555
O1_15 C1_15 1_555 1_555
O2_15 In3_4 1_555 1_555
C1_15 O2_15 1_555 1_555
C2_15 C1_15 1_555 1_555
C3_15 C2_15 1_555 1_555
H1_15 C3_15 1_555 1_555
C4_15 C3_15 1_555 1_555
H2_14 C4_15 1_555 1_555
C5_15 C4_15 1_555 1_555
C7_15 C2_15 1_555 1_555
H7_14 C12_14 1_555 1_555
H8_14 C13_14 1_555 1_555
O5_15 In3_4 1_555 1_555
O6_15 In3_4 1_555 1_555
O9_5 C28_15 1_555 1_555
C15_15 O5_15 1_555 1_555
C16_15 C15_15 1_555 1_555
C17_15 C16_15 1_555 1_555
H9_15 C17_15 1_555 1_555
C18_15 C17_15 1_555 1_555
H10_15 C18_15 1_555 1_555
C19_15 C18_15 1_555 1_555
C20_15 C19_15 1_555 1_555
H11_15 C20_15 1_555 1_555
C21_15 C16_15 1_555 1_555
H12_15 C21_15 1_555 1_555
C22_15 C19_15 1_555 1_555
C23_15 C22_15 1_555 1_555
H13_15 C23_15 1_555 1_555
C24_15 C23_15 1_555 1_555
H14_15 C24_15 1_555 1_555
C25_15 C24_15 1_555 1_555
C26_15 C25_15 1_555 1_555
H15_15 C26_15 1_555 1_555
C27_15 C22_15 1_555 1_555
H16_15 C27_15 1_555 1_555
C28_15 O12_5 1_555 1_555
C12_14 C13_14 1_555 1_555
O6_15 C15_15 1_555 1_555
C20_15 C21_15 1_555 1_555
C25_15 C28_15 1_555 1_555
C26_15 C27_15 1_555 1_555
O8_5 C28_16 1_555 1_555
C23_16 C22_16 1_555 1_555
C24_16 C23_16 1_555 1_555
H14_16 C24_16 1_555 1_555
C25_16 C24_16 1_555 1_555
C26_16 C25_16 1_555 1_555
H15_16 C26_16 1_555 1_555
C27_16 C22_16 1_555 1_555
H16_16 C27_16 1_555 1_555
C28_16 O11_5 1_555 1_555
C25_16 C28_16 1_555 1_555
C26_16 C27_16 1_555 1_555
In2_4 O1_16 1_555 1_555
O1_16 C1_16 1_555 1_555
O2_16 In2_4 1_555 1_555
O8_6 C14_16 1_555 1_555
O11_6 C14_16 1_555 1_555
C1_16 O2_16 1_555 1_555
C2_16 C1_16 1_555 1_555
C3_16 C2_16 1_555 1_555
H1_16 C3_16 1_555 1_555
C4_16 C3_16 1_555 1_555
H2_15 C4_16 1_555 1_555
C5_16 C4_16 1_555 1_555
C6_15 C5_16 1_555 1_555
H3_15 C6_15 1_555 1_555
C7_16 C2_16 1_555 1_555
H4_15 C7_16 1_555 1_555
C8_16 C5_16 1_555 1_555
C9_16 C8_16 1_555 1_555
H5_15 C9_16 1_555 1_555
C10_16 C9_16 1_555 1_555
H6_16 C10_16 1_555 1_555
C11_16 C10_16 1_555 1_555
C12_15 C11_16 1_555 1_555
H7_15 C12_15 1_555 1_555
C13_15 C8_16 1_555 1_555
H8_15 C13_15 1_555 1_555
C14_16 C11_16 1_555 1_555
O5_16 In2_4 1_555 1_555
O6_16 In2_4 1_555 1_555
C15_16 O5_16 1_555 1_555
C16_16 C15_16 1_555 1_555
C17_16 C16_16 1_555 1_555
H9_16 C17_16 1_555 1_555
C18_16 C17_16 1_555 1_555
C19_16 C18_16 1_555 1_555
C20_16 C19_16 1_555 1_555
H11_16 C20_16 1_555 1_555
C21_16 C16_16 1_555 1_555
H12_16 C21_16 1_555 1_555
C6_15 C7_16 1_555 1_555
C12_15 C13_15 1_555 1_555
O6_16 C15_16 1_555 1_555
C20_16 C21_16 1_555 1_555
H3_16 C6_16 1_555 1_555
H7_16 C12_16 1_555 1_555
H8_16 C13_16 1_555 1_555
C12_16 C13_16 1_555 1_555
H25 C45 1_555 1_555
C46 C45 1_555 1_555
H26 C46 1_555 1_555
C51 C50 1_555 1_555
H29 C51 1_555 1_555
In5 O19 1_555 1_555
O19 C56 1_555 1_555
O22 In5 1_555 1_555
H30 C52 1_555 1_555
C53 C52 1_555 1_555
C54 C53 1_555 1_555
C56 O22 1_555 1_555
C53 C56 1_555 1_555
In4 O13 1_555 1_555
O13 C29 1_555 1_555
O14 In4 1_555 1_555
C29 O14 1_555 1_555
C30 C29 1_555 1_555
C31 C30 1_555 1_555
H17 C31 1_555 1_555
C32 C31 1_555 1_555
H18 C32 1_555 1_555
C33 C32 1_555 1_555
C34 C33 1_555 1_555
H19 C34 1_555 1_555
C35 C30 1_555 1_555
H20 C35 1_555 1_555
C36 C33 1_555 1_555
C37 C36 1_555 1_555
H21 C37 1_555 1_555
O17 In4 1_555 1_555
O18 In4 1_555 1_555
O20 In4 1_555 1_555
O21 In4 1_555 1_555
O23 In4 1_555 1_555
O24 In4 1_555 1_555
C43 O17 1_555 1_555
C44 C43 1_555 1_555
C48 C47 1_555 1_555
H27 C48 1_555 1_555
C49 C44 1_555 1_555
H28 C49 1_555 1_555
C34 C35 1_555 1_555
O18 C43 1_555 1_555
C48 C49 1_555 1_555
O15 C42 1_555 1_555
O16 C42 1_555 1_555
H22 C38 1_555 1_555
C39 C38 1_555 1_555
C40 C39 1_555 1_555
H23 C40 1_555 1_555
H24 C41 1_555 1_555
C42 C39 1_555 1_555
In6 O15 1_555 1_555
H32 C55 1_555 1_555
O16 In6 1_555 1_555
C40 C41 1_555 1_555
In5_2 O19_2 1_555 1_555
O19_2 C56_2 1_555 1_555
O22_2 In5_2 1_555 1_555
H25_2 C45_2 1_555 1_555
C46_2 C45_2 1_555 1_555
H26_2 C46_2 1_555 1_555
C51_2 C50_2 1_555 1_555
H29_2 C51_2 1_555 1_555
C52_2 C51_2 1_555 1_555
H30_2 C52_2 1_555 1_555
C53_2 C52_2 1_555 1_555
C54_2 C53_2 1_555 1_555
C56_2 O22_2 1_555 1_555
C53_2 C56_2 1_555 1_555
O15_2 C42_2 1_555 1_555
O16_2 C42_2 1_555 1_555
C37_2 C36_2 1_555 1_555
H21_2 C37_2 1_555 1_555
C38_2 C37_2 1_555 1_555
H22_2 C38_2 1_555 1_555
C39_2 C38_2 1_555 1_555
C40_2 C39_2 1_555 1_555
H23_2 C40_2 1_555 1_555
C41_2 C36_2 1_555 1_555
H24_2 C41_2 1_555 1_555
C42_2 C39_2 1_555 1_555
In6_2 O15_2 1_555 1_555
O16_2 In6_2 1_555 1_555
C40_2 C41_2 1_555 1_555
In4_2 O13_2 1_555 1_555
O13_2 C29_2 1_555 1_555
O14_2 In4_2 1_555 1_555
C29_2 O14_2 1_555 1_555
C30_2 C29_2 1_555 1_555
C31_2 C30_2 1_555 1_555
H17_2 C31_2 1_555 1_555
C32_2 C31_2 1_555 1_555
H18_2 C32_2 1_555 1_555
C33_2 C32_2 1_555 1_555
C34_2 C33_2 1_555 1_555
H19_2 C34_2 1_555 1_555
C35_2 C30_2 1_555 1_555
H20_2 C35_2 1_555 1_555
O17_2 In4_2 1_555 1_555
O18_2 In4_2 1_555 1_555
O20_2 In4_2 1_555 1_555
O21_2 In4_2 1_555 1_555
O23_2 In4_2 1_555 1_555
O24_2 In4_2 1_555 1_555
C43_2 O17_2 1_555 1_555
C44_2 C43_2 1_555 1_555
C48_2 C47_2 1_555 1_555
H27_2 C48_2 1_555 1_555
C49_2 C44_2 1_555 1_555
H28_2 C49_2 1_555 1_555
H32_2 C55_2 1_555 1_555
C34_2 C35_2 1_555 1_555
O18_2 C43_2 1_555 1_555
C48_2 C49_2 1_555 1_555
In4_3 O13_3 1_555 1_555
O13_3 C29_3 1_555 1_555
O14_3 In4_3 1_555 1_555
O15_3 C42_3 1_555 1_555
O16_3 C42_3 1_555 1_555
C29_3 O14_3 1_555 1_555
C30_3 C29_3 1_555 1_555
C31_3 C30_3 1_555 1_555
H17_3 C31_3 1_555 1_555
C32_3 C31_3 1_555 1_555
H18_3 C32_3 1_555 1_555
C33_3 C32_3 1_555 1_555
C34_3 C33_3 1_555 1_555
H19_3 C34_3 1_555 1_555
C35_3 C30_3 1_555 1_555
H20_3 C35_3 1_555 1_555
C36_3 C33_3 1_555 1_555
C37_3 C36_3 1_555 1_555
H21_3 C37_3 1_555 1_555
C38_3 C37_3 1_555 1_555
H22_3 C38_3 1_555 1_555
C39_3 C38_3 1_555 1_555
C40_3 C39_3 1_555 1_555
H23_3 C40_3 1_555 1_555
C41_3 C36_3 1_555 1_555
H24_3 C41_3 1_555 1_555
C42_3 C39_3 1_555 1_555
In6_2 O19_3 1_555 1_555
In5_2 O15_3 1_555 1_555
O17_3 In4_3 1_555 1_555
O18_3 In4_3 1_555 1_555
O19_3 C56_3 1_555 1_555
O20_3 In4_3 1_555 1_555
O21_3 In4_3 1_555 1_555
O22_3 In6_2 1_555 1_555
O23_3 In4_3 1_555 1_555
O24_3 In4_3 1_555 1_555
C43_3 O17_3 1_555 1_555
C44_3 C43_3 1_555 1_555
C45_3 C44_3 1_555 1_555
H25_3 C45_3 1_555 1_555
C46_3 C45_3 1_555 1_555
H26_3 C46_3 1_555 1_555
C47_3 C46_3 1_555 1_555
C48_3 C47_3 1_555 1_555
H27_3 C48_3 1_555 1_555
C49_3 C44_3 1_555 1_555
H28_3 C49_3 1_555 1_555
C50_3 C47_3 1_555 1_555
C51_3 C50_3 1_555 1_555
H29_3 C51_3 1_555 1_555
C52_3 C51_3 1_555 1_555
H30_3 C52_3 1_555 1_555
C53_3 C52_3 1_555 1_555
C54_3 C53_3 1_555 1_555
H31_3 C54_3 1_555 1_555
C55_3 C50_3 1_555 1_555
H32_3 C55_3 1_555 1_555
C56_3 O22_3 1_555 1_555
O16_3 In5_2 1_555 1_555
C34_3 C35_3 1_555 1_555
C40_3 C41_3 1_555 1_555
O18_3 C43_3 1_555 1_555
C48_3 C49_3 1_555 1_555
C53_3 C56_3 1_555 1_555
C54_3 C55_3 1_555 1_555
O15_4 C42_4 1_555 1_555
O16_4 C42_4 1_555 1_555
H22_4 C38_4 1_555 1_555
C39_4 C38_4 1_555 1_555
C40_4 C39_4 1_555 1_555
H23_4 C40_4 1_555 1_555
H24_4 C41_4 1_555 1_555
C42_4 C39_4 1_555 1_555
In5 O15_4 1_555 1_555
O16_4 In5 1_555 1_555
C40_4 C41_4 1_555 1_555
In4_4 O13_4 1_555 1_555
O13_4 C29_4 1_555 1_555
O14_4 In4_4 1_555 1_555
C29_4 O14_4 1_555 1_555
C30_4 C29_4 1_555 1_555
C31_4 C30_4 1_555 1_555
H17_4 C31_4 1_555 1_555
C32_4 C31_4 1_555 1_555
H18_4 C32_4 1_555 1_555
C33_4 C32_4 1_555 1_555
C34_4 C33_4 1_555 1_555
H19_4 C34_4 1_555 1_555
C35_4 C30_4 1_555 1_555
H20_4 C35_4 1_555 1_555
O17_4 In4_4 1_555 1_555
O18_4 In4_4 1_555 1_555
O20_4 In4_4 1_555 1_555
O21_4 In4_4 1_555 1_555
O23_4 In4_4 1_555 1_555
O24_4 In4_4 1_555 1_555
C43_4 O17_4 1_555 1_555
C44_4 C43_4 1_555 1_555
C45_4 C44_4 1_555 1_555
H25_4 C45_4 1_555 1_555
C46_4 C45_4 1_555 1_555
H26_4 C46_4 1_555 1_555
C47_4 C46_4 1_555 1_555
C48_4 C47_4 1_555 1_555
H27_4 C48_4 1_555 1_555
C49_4 C44_4 1_555 1_555
H28_4 C49_4 1_555 1_555
C50_4 C47_4 1_555 1_555
C51_4 C50_4 1_555 1_555
H29_4 C51_4 1_555 1_555
C34_4 C35_4 1_555 1_555
O18_4 C43_4 1_555 1_555
C48_4 C49_4 1_555 1_555
In6 O19_4 1_555 1_555
O19_4 C56_4 1_555 1_555
O22_4 In6 1_555 1_555
H30_4 C52_4 1_555 1_555
C53_4 C52_4 1_555 1_555
C54_4 C53_4 1_555 1_555
H31_4 C54_4 1_555 1_555
H32_4 C55_4 1_555 1_555
C56_4 O22_4 1_555 1_555
C53_4 C56_4 1_555 1_555
C54_4 C55_4 1_555 1_555
In5_2 O13_5 1_555 1_555
O13_5 C29_5 1_555 1_555
O14_5 In5_2 1_555 1_555
C29_5 O14_5 1_555 1_555
C30_5 C29_5 1_555 1_555
C34_5 C33_5 1_555 1_555
H19_5 C34_5 1_555 1_555
C35_5 C30_5 1_555 1_555
H20_5 C35_5 1_555 1_555
H24_5 C41_5 1_555 1_555
O17_5 In5_2 1_555 1_555
O18_5 In5_2 1_555 1_555
O21_4 C56_5 1_555 1_555
C43_5 O17_5 1_555 1_555
C44_5 C43_5 1_555 1_555
C45_5 C44_5 1_555 1_555
H25_5 C45_5 1_555 1_555
C46_5 C45_5 1_555 1_555
H26_5 C46_5 1_555 1_555
C47_5 C46_5 1_555 1_555
C48_5 C47_5 1_555 1_555
H27_5 C48_5 1_555 1_555
C49_5 C44_5 1_555 1_555
H28_5 C49_5 1_555 1_555
C50_5 C47_5 1_555 1_555
C51_5 C50_5 1_555 1_555
H29_5 C51_5 1_555 1_555
C52_5 C51_5 1_555 1_555
H30_5 C52_5 1_555 1_555
C53_5 C52_5 1_555 1_555
C54_5 C53_5 1_555 1_555
H31_5 C54_5 1_555 1_555
C55_5 C50_5 1_555 1_555
H32_5 C55_5 1_555 1_555
C56_5 O24_4 1_555 1_555
C34_5 C35_5 1_555 1_555
O18_5 C43_5 1_555 1_555
C48_5 C49_5 1_555 1_555
C53_5 C56_5 1_555 1_555
C54_5 C55_5 1_555 1_555
O20 C42_5 1_555 1_555
O23 C42_5 1_555 1_555
H17_5 C31_5 1_555 1_555
C32_5 C31_5 1_555 1_555
H18_5 C32_5 1_555 1_555
C37_4 C36_4 1_555 1_555
H21_4 C37_4 1_555 1_555
C38_5 C37_4 1_555 1_555
H22_5 C38_5 1_555 1_555
C39_5 C38_5 1_555 1_555
C40_5 C39_5 1_555 1_555
C42_5 C39_5 1_555 1_555
In5 O13_6 1_555 1_555
O13_6 C29_6 1_555 1_555
O14_6 In5 1_555 1_555
C29_6 O14_6 1_555 1_555
C30_6 C29_6 1_555 1_555
C34_6 C33_6 1_555 1_555
H19_6 C34_6 1_555 1_555
C35_6 C30_6 1_555 1_555
H20_6 C35_6 1_555 1_555
O17_6 In5 1_555 1_555
O18_6 In5 1_555 1_555
O21_3 C56_6 1_555 1_555
C43_6 O17_6 1_555 1_555
C44_6 C43_6 1_555 1_555
C45_6 C44_6 1_555 1_555
H25_6 C45_6 1_555 1_555
C46_6 C45_6 1_555 1_555
H26_6 C46_6 1_555 1_555
C47_6 C46_6 1_555 1_555
C48_6 C47_6 1_555 1_555
H27_6 C48_6 1_555 1_555
C49_6 C44_6 1_555 1_555
H28_6 C49_6 1_555 1_555
C50_6 C47_6 1_555 1_555
C51_6 C50_6 1_555 1_555
H29_6 C51_6 1_555 1_555
C52_6 C51_6 1_555 1_555
H30_6 C52_6 1_555 1_555
C53_6 C52_6 1_555 1_555
C54_6 C53_6 1_555 1_555
H31_6 C54_6 1_555 1_555
C55_6 C50_6 1_555 1_555
H32_6 C55_6 1_555 1_555
C56_6 O24_3 1_555 1_555
C34_6 C35_6 1_555 1_555
O18_6 C43_6 1_555 1_555
C48_6 C49_6 1_555 1_555
C53_6 C56_6 1_555 1_555
C54_6 C55_6 1_555 1_555
O20_2 C42_6 1_555 1_555
O23_2 C42_6 1_555 1_555
C37_5 C36_5 1_555 1_555
H21_5 C37_5 1_555 1_555
C38_6 C37_5 1_555 1_555
H22_6 C38_6 1_555 1_555
C39_6 C38_6 1_555 1_555
C40_6 C39_6 1_555 1_555
C42_6 C39_6 1_555 1_555
In6 O13_7 1_555 1_555
O13_7 C29_7 1_555 1_555
O14_7 In6 1_555 1_555
O20_3 C42_7 1_555 1_555
O23_3 C42_7 1_555 1_555
C29_7 O14_7 1_555 1_555
C30_7 C29_7 1_555 1_555
C31_6 C30_7 1_555 1_555
H17_6 C31_6 1_555 1_555
C32_6 C31_6 1_555 1_555
H18_6 C32_6 1_555 1_555
C33_7 C32_6 1_555 1_555
C34_7 C33_7 1_555 1_555
H19_7 C34_7 1_555 1_555
C35_7 C30_7 1_555 1_555
H20_7 C35_7 1_555 1_555
C36_6 C33_7 1_555 1_555
C37_6 C36_6 1_555 1_555
H21_6 C37_6 1_555 1_555
C38_7 C37_6 1_555 1_555
H22_7 C38_7 1_555 1_555
C39_7 C38_7 1_555 1_555
C40_7 C39_7 1_555 1_555
H23_6 C40_7 1_555 1_555
C41_6 C36_6 1_555 1_555
H24_6 C41_6 1_555 1_555
C42_7 C39_7 1_555 1_555
O17_7 In6 1_555 1_555
O18_7 In6 1_555 1_555
O21_2 C56_7 1_555 1_555
C43_7 O17_7 1_555 1_555
C44_7 C43_7 1_555 1_555
C45_7 C44_7 1_555 1_555
H25_7 C45_7 1_555 1_555
C46_7 C45_7 1_555 1_555
H26_7 C46_7 1_555 1_555
C47_7 C46_7 1_555 1_555
C48_7 C47_7 1_555 1_555
H27_7 C48_7 1_555 1_555
C49_7 C44_7 1_555 1_555
H28_7 C49_7 1_555 1_555
C50_7 C47_7 1_555 1_555
C51_7 C50_7 1_555 1_555
H29_7 C51_7 1_555 1_555
C52_7 C51_7 1_555 1_555
H30_7 C52_7 1_555 1_555
C53_7 C52_7 1_555 1_555
C54_7 C53_7 1_555 1_555
H31_7 C54_7 1_555 1_555
C55_7 C50_7 1_555 1_555
H32_7 C55_7 1_555 1_555
C56_7 O24_2 1_555 1_555
C34_7 C35_7 1_555 1_555
C40_7 C41_6 1_555 1_555
O18_7 C43_7 1_555 1_555
C48_7 C49_7 1_555 1_555
C53_7 C56_7 1_555 1_555
C54_7 C55_7 1_555 1_555
In6_2 O13_8 1_555 1_555
O13_8 C29_8 1_555 1_555
O14_8 In6_2 1_555 1_555
C29_8 O14_8 1_555 1_555
C30_8 C29_8 1_555 1_555
C31_7 C30_8 1_555 1_555
H17_7 C31_7 1_555 1_555
C32_7 C31_7 1_555 1_555
H18_7 C32_7 1_555 1_555
C33_8 C32_7 1_555 1_555
C34_8 C33_8 1_555 1_555
H19_8 C34_8 1_555 1_555
C35_8 C30_8 1_555 1_555
H20_8 C35_8 1_555 1_555
O17_8 In6_2 1_555 1_555
O18_8 In6_2 1_555 1_555
O21 C56_8 1_555 1_555
C43_8 O17_8 1_555 1_555
C44_8 C43_8 1_555 1_555
C45_8 C44_8 1_555 1_555
H25_8 C45_8 1_555 1_555
C46_8 C45_8 1_555 1_555
H26_8 C46_8 1_555 1_555
C47_8 C46_8 1_555 1_555
C48_8 C47_8 1_555 1_555
H27_8 C48_8 1_555 1_555
C49_8 C44_8 1_555 1_555
H28_8 C49_8 1_555 1_555
C50_8 C47_8 1_555 1_555
C51_8 C50_8 1_555 1_555
H29_8 C51_8 1_555 1_555
C52_8 C51_8 1_555 1_555
H30_8 C52_8 1_555 1_555
C53_8 C52_8 1_555 1_555
C54_8 C53_8 1_555 1_555
H31_8 C54_8 1_555 1_555
C55_8 C50_8 1_555 1_555
H32_8 C55_8 1_555 1_555
C56_8 O24 1_555 1_555
C34_8 C35_8 1_555 1_555
O18_8 C43_8 1_555 1_555
C48_8 C49_8 1_555 1_555
C53_8 C56_8 1_555 1_555
C54_8 C55_8 1_555 1_555
O20_4 C42_8 1_555 1_555
O23_4 C42_8 1_555 1_555
C37_7 C36_7 1_555 1_555
H21_7 C37_7 1_555 1_555
C38_8 C37_7 1_555 1_555
H22_8 C38_8 1_555 1_555
C39_8 C38_8 1_555 1_555
C40_8 C39_8 1_555 1_555
H23_7 C40_8 1_555 1_555
C41_7 C36_7 1_555 1_555
H24_7 C41_7 1_555 1_555
C42_8 C39_8 1_555 1_555
C40_8 C41_7 1_555 1_555
O15_5 C42_9 1_555 1_555
O16_5 C42_9 1_555 1_555
H17_8 C31_8 1_555 1_555
C32_8 C31_8 1_555 1_555
H18_8 C32_8 1_555 1_555
C37_8 C36_8 1_555 1_555
H21_8 C37_8 1_555 1_555
C38_9 C37_8 1_555 1_555
H22_9 C38_9 1_555 1_555
C39_9 C38_9 1_555 1_555
C40_9 C39_9 1_555 1_555
C42_9 C39_9 1_555 1_555
In6_3 O15_5 1_555 1_555
O16_5 In6_3 1_555 1_555
In4_5 O13_9 1_555 1_555
O13_9 C29_9 1_555 1_555
O14_9 In4_5 1_555 1_555
C29_9 O14_9 1_555 1_555
C30_9 C29_9 1_555 1_555
C34_9 C33_9 1_555 1_555
H19_9 C34_9 1_555 1_555
C35_9 C30_9 1_555 1_555
H20_9 C35_9 1_555 1_555
H24_8 C41_8 1_555 1_555
In5_3 O19_5 1_555 1_555
O17_9 In4_5 1_555 1_555
O18_9 In4_5 1_555 1_555
O19_5 C56_9 1_555 1_555
O20_5 In4_5 1_555 1_555
O21_5 In4_5 1_555 1_555
O22_5 In5_3 1_555 1_555
O23_5 In4_5 1_555 1_555
O24_5 In4_5 1_555 1_555
C43_9 O17_9 1_555 1_555
C44_9 C43_9 1_555 1_555
C45_9 C44_9 1_555 1_555
H25_9 C45_9 1_555 1_555
C46_9 C45_9 1_555 1_555
H26_9 C46_9 1_555 1_555
C47_9 C46_9 1_555 1_555
C48_9 C47_9 1_555 1_555
H27_9 C48_9 1_555 1_555
C49_9 C44_9 1_555 1_555
H28_9 C49_9 1_555 1_555
C50_9 C47_9 1_555 1_555
C51_9 C50_9 1_555 1_555
H29_9 C51_9 1_555 1_555
C52_9 C51_9 1_555 1_555
H30_9 C52_9 1_555 1_555
C53_9 C52_9 1_555 1_555
C54_9 C53_9 1_555 1_555
H31_9 C54_9 1_555 1_555
C55_9 C50_9 1_555 1_555
H32_9 C55_9 1_555 1_555
C56_9 O22_5 1_555 1_555
C34_9 C35_9 1_555 1_555
O18_9 C43_9 1_555 1_555
C48_9 C49_9 1_555 1_555
C53_9 C56_9 1_555 1_555
C54_9 C55_9 1_555 1_555
O15_6 C42_10 1_555 1_555
O16_6 C42_10 1_555 1_555
C37_9 C36_9 1_555 1_555
H21_9 C37_9 1_555 1_555
C38_10 C37_9 1_555 1_555
H22_10 C38_10 1_555 1_555
C39_10 C38_10 1_555 1_555
C40_10 C39_10 1_555 1_555
C42_10 C39_10 1_555 1_555
In6_4 O15_6 1_555 1_555
O16_6 In6_4 1_555 1_555
In4_6 O13_10 1_555 1_555
O13_10 C29_10 1_555 1_555
O14_10 In4_6 1_555 1_555
C29_10 O14_10 1_555 1_555
C30_10 C29_10 1_555 1_555
C34_10 C33_10 1_555 1_555
H19_10 C34_10 1_555 1_555
C35_10 C30_10 1_555 1_555
H20_10 C35_10 1_555 1_555
In5_4 O19_6 1_555 1_555
O17_10 In4_6 1_555 1_555
O18_10 In4_6 1_555 1_555
O19_6 C56_10 1_555 1_555
O20_6 In4_6 1_555 1_555
O21_6 In4_6 1_555 1_555
O22_6 In5_4 1_555 1_555
O23_6 In4_6 1_555 1_555
O24_6 In4_6 1_555 1_555
C43_10 O17_10 1_555 1_555
C44_10 C43_10 1_555 1_555
C45_10 C44_10 1_555 1_555
H25_10 C45_10 1_555 1_555
C46_10 C45_10 1_555 1_555
H26_10 C46_10 1_555 1_555
C47_10 C46_10 1_555 1_555
C48_10 C47_10 1_555 1_555
H27_10 C48_10 1_555 1_555
C49_10 C44_10 1_555 1_555
H28_10 C49_10 1_555 1_555
C50_10 C47_10 1_555 1_555
C51_10 C50_10 1_555 1_555
H29_10 C51_10 1_555 1_555
C52_10 C51_10 1_555 1_555
H30_10 C52_10 1_555 1_555
C53_10 C52_10 1_555 1_555
C54_10 C53_10 1_555 1_555
H31_10 C54_10 1_555 1_555
C55_10 C50_10 1_555 1_555
H32_10 C55_10 1_555 1_555
C56_10 O22_6 1_555 1_555
C34_10 C35_10 1_555 1_555
O18_10 C43_10 1_555 1_555
C48_10 C49_10 1_555 1_555
C53_10 C56_10 1_555 1_555
C54_10 C55_10 1_555 1_555
In4_7 O13_11 1_555 1_555
O13_11 C29_11 1_555 1_555
O14_11 In4_7 1_555 1_555
O15_7 C42_11 1_555 1_555
O16_7 C42_11 1_555 1_555
C29_11 O14_11 1_555 1_555
C30_11 C29_11 1_555 1_555
C31_9 C30_11 1_555 1_555
H17_9 C31_9 1_555 1_555
C32_9 C31_9 1_555 1_555
H18_9 C32_9 1_555 1_555
C33_11 C32_9 1_555 1_555
C34_11 C33_11 1_555 1_555
H19_11 C34_11 1_555 1_555
C35_11 C30_11 1_555 1_555
H20_11 C35_11 1_555 1_555
C36_10 C33_11 1_555 1_555
C37_10 C36_10 1_555 1_555
H21_10 C37_10 1_555 1_555
C38_11 C37_10 1_555 1_555
H22_11 C38_11 1_555 1_555
C39_11 C38_11 1_555 1_555
C40_11 C39_11 1_555 1_555
H23_9 C40_11 1_555 1_555
C41_9 C36_10 1_555 1_555
H24_9 C41_9 1_555 1_555
C42_11 C39_11 1_555 1_555
In6_4 O19_7 1_555 1_555
In5_4 O15_7 1_555 1_555
O17_11 In4_7 1_555 1_555
O18_11 In4_7 1_555 1_555
O19_7 C56_11 1_555 1_555
O20_7 In4_7 1_555 1_555
O21_7 In4_7 1_555 1_555
O22_7 In6_4 1_555 1_555
O23_7 In4_7 1_555 1_555
O24_7 In4_7 1_555 1_555
C43_11 O17_11 1_555 1_555
C44_11 C43_11 1_555 1_555
C45_11 C44_11 1_555 1_555
H25_11 C45_11 1_555 1_555
C46_11 C45_11 1_555 1_555
H26_11 C46_11 1_555 1_555
C47_11 C46_11 1_555 1_555
C48_11 C47_11 1_555 1_555
H27_11 C48_11 1_555 1_555
C49_11 C44_11 1_555 1_555
H28_11 C49_11 1_555 1_555
C50_11 C47_11 1_555 1_555
C51_11 C50_11 1_555 1_555
H29_11 C51_11 1_555 1_555
C52_11 C51_11 1_555 1_555
H30_11 C52_11 1_555 1_555
C53_11 C52_11 1_555 1_555
C54_11 C53_11 1_555 1_555
H31_11 C54_11 1_555 1_555
C55_11 C50_11 1_555 1_555
H32_11 C55_11 1_555 1_555
C56_11 O22_7 1_555 1_555
O16_7 In5_4 1_555 1_555
C34_11 C35_11 1_555 1_555
C40_11 C41_9 1_555 1_555
O18_11 C43_11 1_555 1_555
C48_11 C49_11 1_555 1_555
C53_11 C56_11 1_555 1_555
C54_11 C55_11 1_555 1_555
O15_8 C42_12 1_555 1_555
O16_8 C42_12 1_555 1_555
C37_11 C36_11 1_555 1_555
H21_11 C37_11 1_555 1_555
C38_12 C37_11 1_555 1_555
H22_12 C38_12 1_555 1_555
C39_12 C38_12 1_555 1_555
C40_12 C39_12 1_555 1_555
H23_10 C40_12 1_555 1_555
C41_10 C36_11 1_555 1_555
H24_10 C41_10 1_555 1_555
C42_12 C39_12 1_555 1_555
In5_3 O15_8 1_555 1_555
O16_8 In5_3 1_555 1_555
C40_12 C41_10 1_555 1_555
In4_8 O13_12 1_555 1_555
O13_12 C29_12 1_555 1_555
O14_12 In4_8 1_555 1_555
C29_12 O14_12 1_555 1_555
C30_12 C29_12 1_555 1_555
C31_10 C30_12 1_555 1_555
H17_10 C31_10 1_555 1_555
C32_10 C31_10 1_555 1_555
H18_10 C32_10 1_555 1_555
C33_12 C32_10 1_555 1_555
C34_12 C33_12 1_555 1_555
H19_12 C34_12 1_555 1_555
C35_12 C30_12 1_555 1_555
H20_12 C35_12 1_555 1_555
In6_3 O19_8 1_555 1_555
O17_12 In4_8 1_555 1_555
O18_12 In4_8 1_555 1_555
O19_8 C56_12 1_555 1_555
O20_8 In4_8 1_555 1_555
O21_8 In4_8 1_555 1_555
O22_8 In6_3 1_555 1_555
O23_8 In4_8 1_555 1_555
O24_8 In4_8 1_555 1_555
C43_12 O17_12 1_555 1_555
C44_12 C43_12 1_555 1_555
C45_12 C44_12 1_555 1_555
H25_12 C45_12 1_555 1_555
C46_12 C45_12 1_555 1_555
H26_12 C46_12 1_555 1_555
C47_12 C46_12 1_555 1_555
C48_12 C47_12 1_555 1_555
H27_12 C48_12 1_555 1_555
C49_12 C44_12 1_555 1_555
H28_12 C49_12 1_555 1_555
C50_12 C47_12 1_555 1_555
C51_12 C50_12 1_555 1_555
H29_12 C51_12 1_555 1_555
C52_12 C51_12 1_555 1_555
H30_12 C52_12 1_555 1_555
C53_12 C52_12 1_555 1_555
C54_12 C53_12 1_555 1_555
H31_12 C54_12 1_555 1_555
C55_12 C50_12 1_555 1_555
H32_12 C55_12 1_555 1_555
C56_12 O22_8 1_555 1_555
C34_12 C35_12 1_555 1_555
O18_12 C43_12 1_555 1_555
C48_12 C49_12 1_555 1_555
C53_12 C56_12 1_555 1_555
C54_12 C55_12 1_555 1_555
O20_7 C42_13 1_555 1_555
O23_7 C42_13 1_555 1_555
H22_13 C38_13 1_555 1_555
C39_13 C38_13 1_555 1_555
C40_13 C39_13 1_555 1_555
H23_11 C40_13 1_555 1_555
H24_11 C41_11 1_555 1_555
C42_13 C39_13 1_555 1_555
H32_13 C55_13 1_555 1_555
C40_13 C41_11 1_555 1_555
In6_3 O13_13 1_555 1_555
O13_13 C29_13 1_555 1_555
O14_13 In6_3 1_555 1_555
C29_13 O14_13 1_555 1_555
C30_13 C29_13 1_555 1_555
C31_11 C30_13 1_555 1_555
H17_11 C31_11 1_555 1_555
C32_11 C31_11 1_555 1_555
H18_11 C32_11 1_555 1_555
C33_13 C32_11 1_555 1_555
C34_13 C33_13 1_555 1_555
H19_13 C34_13 1_555 1_555
C35_13 C30_13 1_555 1_555
H20_13 C35_13 1_555 1_555
C36_12 C33_13 1_555 1_555
C37_12 C36_12 1_555 1_555
H21_12 C37_12 1_555 1_555
O17_13 In6_3 1_555 1_555
O18_13 In6_3 1_555 1_555
C43_13 O17_13 1_555 1_555
C44_13 C43_13 1_555 1_555
C48_13 C47_13 1_555 1_555
H27_13 C48_13 1_555 1_555
C49_13 C44_13 1_555 1_555
H28_13 C49_13 1_555 1_555
C34_13 C35_13 1_555 1_555
O18_13 C43_13 1_555 1_555
C48_13 C49_13 1_555 1_555
O21_6 C56_13 1_555 1_555
H30_13 C52_13 1_555 1_555
C53_13 C52_13 1_555 1_555
C54_13 C53_13 1_555 1_555
C56_13 O24_6 1_555 1_555
C53_13 C56_13 1_555 1_555
In6_4 O13_14 1_555 1_555
O13_14 C29_14 1_555 1_555
O14_14 In6_4 1_555 1_555
C29_14 O14_14 1_555 1_555
C30_14 C29_14 1_555 1_555
C31_12 C30_14 1_555 1_555
H17_12 C31_12 1_555 1_555
C32_12 C31_12 1_555 1_555
H18_12 C32_12 1_555 1_555
C33_14 C32_12 1_555 1_555
C34_14 C33_14 1_555 1_555
H19_14 C34_14 1_555 1_555
C35_14 C30_14 1_555 1_555
H20_14 C35_14 1_555 1_555
O17_14 In6_4 1_555 1_555
O18_14 In6_4 1_555 1_555
C43_14 O17_14 1_555 1_555
C44_14 C43_14 1_555 1_555
C48_14 C47_14 1_555 1_555
H27_14 C48_14 1_555 1_555
C49_14 C44_14 1_555 1_555
H28_14 C49_14 1_555 1_555
H32_14 C55_14 1_555 1_555
C34_14 C35_14 1_555 1_555
O18_14 C43_14 1_555 1_555
C48_14 C49_14 1_555 1_555
O20_8 C42_14 1_555 1_555
O23_8 C42_14 1_555 1_555
C37_13 C36_13 1_555 1_555
H21_13 C37_13 1_555 1_555
C38_14 C37_13 1_555 1_555
H22_14 C38_14 1_555 1_555
C39_14 C38_14 1_555 1_555
C40_14 C39_14 1_555 1_555
H23_12 C40_14 1_555 1_555
C41_12 C36_13 1_555 1_555
H24_12 C41_12 1_555 1_555
C42_14 C39_14 1_555 1_555
C40_14 C41_12 1_555 1_555
O21_5 C56_14 1_555 1_555
H25_13 C45_13 1_555 1_555
C46_13 C45_13 1_555 1_555
H26_13 C46_13 1_555 1_555
C51_13 C50_13 1_555 1_555
H29_13 C51_13 1_555 1_555
C52_14 C51_13 1_555 1_555
H30_14 C52_14 1_555 1_555
C53_14 C52_14 1_555 1_555
C54_14 C53_14 1_555 1_555
C56_14 O24_5 1_555 1_555
C53_14 C56_14 1_555 1_555
In5_4 O13_15 1_555 1_555
O13_15 C29_15 1_555 1_555
O14_15 In5_4 1_555 1_555
O20_5 C42_15 1_555 1_555
O23_5 C42_15 1_555 1_555
C29_15 O14_15 1_555 1_555
C30_15 C29_15 1_555 1_555
C31_13 C30_15 1_555 1_555
H17_13 C31_13 1_555 1_555
C32_13 C31_13 1_555 1_555
H18_13 C32_13 1_555 1_555
C33_15 C32_13 1_555 1_555
C34_15 C33_15 1_555 1_555
H19_15 C34_15 1_555 1_555
C35_15 C30_15 1_555 1_555
H20_15 C35_15 1_555 1_555
C36_14 C33_15 1_555 1_555
C37_14 C36_14 1_555 1_555
H21_14 C37_14 1_555 1_555
C38_15 C37_14 1_555 1_555
H22_15 C38_15 1_555 1_555
C39_15 C38_15 1_555 1_555
C40_15 C39_15 1_555 1_555
H23_13 C40_15 1_555 1_555
C41_13 C36_14 1_555 1_555
H24_13 C41_13 1_555 1_555
C42_15 C39_15 1_555 1_555
O17_15 In5_4 1_555 1_555
O18_15 In5_4 1_555 1_555
O21_8 C56_15 1_555 1_555
C43_15 O17_15 1_555 1_555
C44_15 C43_15 1_555 1_555
C45_14 C44_15 1_555 1_555
H25_14 C45_14 1_555 1_555
C46_14 C45_14 1_555 1_555
H26_14 C46_14 1_555 1_555
C47_15 C46_14 1_555 1_555
C48_15 C47_15 1_555 1_555
H27_15 C48_15 1_555 1_555
C49_15 C44_15 1_555 1_555
H28_15 C49_15 1_555 1_555
C50_14 C47_15 1_555 1_555
C51_14 C50_14 1_555 1_555
H29_14 C51_14 1_555 1_555
C52_15 C51_14 1_555 1_555
H30_15 C52_15 1_555 1_555
C53_15 C52_15 1_555 1_555
C54_15 C53_15 1_555 1_555
H31_15 C54_15 1_555 1_555
C55_15 C50_14 1_555 1_555
H32_15 C55_15 1_555 1_555
C56_15 O24_8 1_555 1_555
C34_15 C35_15 1_555 1_555
C40_15 C41_13 1_555 1_555
O18_15 C43_15 1_555 1_555
C48_15 C49_15 1_555 1_555
C53_15 C56_15 1_555 1_555
C54_15 C55_15 1_555 1_555
O21_7 C56_16 1_555 1_555
H30_16 C52_16 1_555 1_555
C53_16 C52_16 1_555 1_555
C54_16 C53_16 1_555 1_555
H31_16 C54_16 1_555 1_555
H32_16 C55_16 1_555 1_555
C56_16 O24_7 1_555 1_555
C53_16 C56_16 1_555 1_555
C54_16 C55_16 1_555 1_555
In5_3 O13_16 1_555 1_555
O13_16 C29_16 1_555 1_555
O14_16 In5_3 1_555 1_555
C29_16 O14_16 1_555 1_555
C30_16 C29_16 1_555 1_555
C31_14 C30_16 1_555 1_555
H17_14 C31_14 1_555 1_555
C32_14 C31_14 1_555 1_555
H18_14 C32_14 1_555 1_555
C33_16 C32_14 1_555 1_555
C34_16 C33_16 1_555 1_555
H19_16 C34_16 1_555 1_555
C35_16 C30_16 1_555 1_555
H20_16 C35_16 1_555 1_555
O17_16 In5_3 1_555 1_555
O18_16 In5_3 1_555 1_555
C43_16 O17_16 1_555 1_555
C44_16 C43_16 1_555 1_555
C45_15 C44_16 1_555 1_555
H25_15 C45_15 1_555 1_555
C46_15 C45_15 1_555 1_555
H26_15 C46_15 1_555 1_555
C47_16 C46_15 1_555 1_555
C48_16 C47_16 1_555 1_555
H27_16 C48_16 1_555 1_555
C49_16 C44_16 1_555 1_555
H28_16 C49_16 1_555 1_555
C50_15 C47_16 1_555 1_555
C51_15 C50_15 1_555 1_555
H29_15 C51_15 1_555 1_555
C34_16 C35_16 1_555 1_555
O18_16 C43_16 1_555 1_555
C48_16 C49_16 1_555 1_555
O20_6 C42_16 1_555 1_555
O23_6 C42_16 1_555 1_555
H22_16 C38_16 1_555 1_555
C39_16 C38_16 1_555 1_555
C40_16 C39_16 1_555 1_555
H23_14 C40_16 1_555 1_555
H24_14 C41_14 1_555 1_555
C42_16 C39_16 1_555 1_555
C40_16 C41_14 1_555 1_555
H17_15 C31_15 1_555 1_555
C32_15 C31_15 1_555 1_555
H18_15 C32_15 1_555 1_555
H24_15 C41_15 1_555 1_555
C37_15 C36_15 1_555 1_555
H21_15 C37_15 1_555 1_555
H25_16 C45_16 1_555 1_555
C46_16 C45_16 1_555 1_555
H26_16 C46_16 1_555 1_555
C51_16 C50_16 1_555 1_555
H29_16 C51_16 1_555 1_555
H24_16 C41_16 1_555 1_555
H17_16 C31_16 1_555 1_555
C32_16 C31_16 1_555 1_555
H18_16 C32_16 1_555 1_555
C37_16 C36_16 1_555 1_555
H21_16 C37_16 1_555 1_555

#END
