
###############################################################################
#
# This file contains modified crystal structure data generated from the
# MOF subset of the Cambridge Structural Database (CSD) v543 
# hosted by the Cambridge Crystallographic Data Centre (CCDC).
#
# This work is licensed under the Creative Commons
# Attribution-NonCommercial-ShareAlike 4.0 International License.
# To view a copy of this license, visit
# http://creativecommons.org/licenses/by-nc-sa/4.0/
# or send a letter to
# Creative Commons, PO Box 1866, Mountain View, CA 94042, USA.
#
# CIF created using the CSD Python API on 29 September 2022
# The structure has been converted into the P1 space group
# The structure has a 3D framework
# The original CSD entry GALHOS is in the orthorhombic crystal system
# The framework has been calculated to contain at least 10.0% void space
# The void calculation uses a probe of radius 1.32A, grid spacing 0.4
# H atom positions have been added when not included in the experimental data
#
###############################################################################

data_GALHOS
_chemical_formula_moiety         '(C1024 H1024 In32 N64 O256 32+)n'
_symmetry_cell_setting           triclinic
_symmetry_space_group_name_H-M   'P 1'
_symmetry_Int_Tables_number      1
_space_group_name_Hall           'P 1'
loop_
_symmetry_equiv_pos_site_id
_symmetry_equiv_pos_as_xyz
1 x,y,z
_cell_length_a                   23.760(5)
_cell_length_b                   39.331(8)
_cell_length_c                   40.610(9)
_cell_angle_alpha                90
_cell_angle_beta                 90
_cell_angle_gamma                90
_cell_volume                     37950.2
loop_
_atom_site_label
_atom_site_type_symbol
_atom_site_fract_x
_atom_site_fract_y
_atom_site_fract_z
In1 In 0.1250 0.497220(13) 0.1250
O1 O 0.1366(2) 0.45797(11) 0.08330(12)
O2 O 0.05454(19) 0.46945(10) 0.10110(11)
C1 C 0.0844(3) 0.45391(16) 0.08222(18)
C2 C 0.0612(3) 0.43006(16) 0.05701(18)
C3 C 0.0934(3) 0.4173(2) 0.0311(2)
H1 H 0.1305 0.4243 0.0287
C4 C 0.0711(4) 0.39474(19) 0.0093(2)
C5 C 0.0144(4) 0.38435(17) 0.01068(18)
C7 C 0.0071(3) 0.42010(17) 0.06004(17)
In3 In 0.3750 0.247220(13) 0.3750
O5 O 0.1134(2) 0.45797(11) 0.16670(12)
O6 O 0.19546(19) 0.46945(10) 0.14890(11)
O7 O 0.3847(3) 0.28550(13) 0.33208(14)
O8 O 0.1153(3) 0.53550(13) 0.08208(14)
O9 O 0.1347(3) 0.53550(13) 0.16792(14)
O10 O 0.3028(2) 0.27690(13) 0.35404(13)
O11 O 0.1972(2) 0.52690(13) 0.10404(13)
O12 O 0.0528(2) 0.52690(13) 0.14596(13)
C15 C 0.1656(3) 0.45391(16) 0.16778(18)
C16 C 0.1888(3) 0.43006(16) 0.19299(18)
C17 C 0.1566(3) 0.4173(2) 0.2189(2)
H9 H 0.1195 0.4243 0.2213
C18 C 0.1789(4) 0.39474(19) 0.2407(2)
H10 H 0.1559 0.3858 0.2571
C19 C 0.2356(4) 0.38435(17) 0.23932(18)
C20 C 0.2651(3) 0.39653(18) 0.2140(2)
H11 H 0.3023 0.3895 0.2117
C21 C 0.2429(3) 0.42010(17) 0.18996(17)
H12 H 0.2653 0.4282 0.1729
C22 C 0.2601(4) 0.35985(17) 0.26177(18)
C23 C 0.3134(4) 0.3505(2) 0.2617(2)
H13 H 0.3366 0.3602 0.2458
C24 C 0.3372(4) 0.3284(2) 0.2826(2)
H14 H 0.3748 0.3225 0.2800
C25 C 0.3071(4) 0.31483(16) 0.30718(19)
C26 C 0.2525(5) 0.3211(2) 0.3064(2)
H15 H 0.2294 0.3098 0.3213
C27 C 0.2288(4) 0.3432(3) 0.2850(2)
H16 H 0.1903 0.3472 0.2862
C28 C 0.3317(4) 0.29096(17) 0.3329(2)
O3 O 0.8653(3) 0.28550(13) 0.91792(14)
O4 O 0.9472(2) 0.27690(13) 0.89596(13)
C8 C 0.9899(4) 0.35985(17) 0.98823(18)
C9 C 0.9366(4) 0.3505(2) 0.9883(2)
C10 C 0.9128(4) 0.3284(2) 0.9674(2)
H6 H 0.8752 0.3225 0.9700
C11 C 0.9429(4) 0.31483(16) 0.94282(19)
C12 C 0.9975(5) 0.3211(2) 0.9436(2)
C14 C 0.9183(4) 0.29096(17) 0.9171(2)
In2 In 0.8750 0.247220(13) 0.8750
In1_2 In 0.6250 0.497220(13) 0.6250
O1_2 O 0.6134(2) 0.45797(11) 0.66670(12)
O2_2 O 0.69546(19) 0.46945(10) 0.64890(11)
O3_2 O 0.8847(3) 0.28550(13) 0.83208(14)
O4_2 O 0.8028(2) 0.27690(13) 0.85404(13)
C1_2 C 0.6656(3) 0.45391(16) 0.66778(18)
C2_2 C 0.6888(3) 0.43006(16) 0.69299(18)
C3_2 C 0.6566(3) 0.4173(2) 0.7189(2)
H1_2 H 0.6195 0.4243 0.7213
C4_2 C 0.6789(4) 0.39474(19) 0.7407(2)
H2 H 0.6559 0.3858 0.7571
C5_2 C 0.7356(4) 0.38435(17) 0.73932(18)
C6 C 0.7651(3) 0.39653(18) 0.7140(2)
H3 H 0.8023 0.3895 0.7117
C7_2 C 0.7429(3) 0.42010(17) 0.68996(17)
H4 H 0.7653 0.4282 0.6729
C8_2 C 0.7601(4) 0.35985(17) 0.76177(18)
C9_2 C 0.8134(4) 0.3505(2) 0.7617(2)
H5 H 0.8366 0.3602 0.7458
C10_2 C 0.8372(4) 0.3284(2) 0.7826(2)
H6_2 H 0.8748 0.3225 0.7800
C11_2 C 0.8071(4) 0.31483(16) 0.80718(19)
C12_2 C 0.7525(5) 0.3211(2) 0.8064(2)
H7 H 0.7294 0.3098 0.8213
C13 C 0.7288(4) 0.3432(3) 0.7850(2)
H8 H 0.6903 0.3472 0.7862
C14_2 C 0.8317(4) 0.29096(17) 0.8329(2)
O5_2 O 0.6366(2) 0.45797(11) 0.58330(12)
O6_2 O 0.55454(19) 0.46945(10) 0.60110(11)
O7_2 O 0.3653(3) 0.28550(13) 0.41792(14)
O8_2 O 0.6347(3) 0.53550(13) 0.66792(14)
O9_2 O 0.6153(3) 0.53550(13) 0.58208(14)
O10_2 O 0.4472(2) 0.27690(13) 0.39596(13)
O11_2 O 0.5528(2) 0.52690(13) 0.64596(13)
O12_2 O 0.6972(2) 0.52690(13) 0.60404(13)
C15_2 C 0.5844(3) 0.45391(16) 0.58222(18)
C16_2 C 0.5612(3) 0.43006(16) 0.55701(18)
C17_2 C 0.5934(3) 0.4173(2) 0.5311(2)
H9_2 H 0.6305 0.4243 0.5287
C18_2 C 0.5711(4) 0.39474(19) 0.5093(2)
H10_2 H 0.5941 0.3858 0.4929
C19_2 C 0.5144(4) 0.38435(17) 0.51068(18)
C20_2 C 0.4849(3) 0.39653(18) 0.5360(2)
H11_2 H 0.4477 0.3895 0.5383
C21_2 C 0.5071(3) 0.42010(17) 0.56004(17)
H12_2 H 0.4847 0.4282 0.5771
C22_2 C 0.4899(4) 0.35985(17) 0.48823(18)
C23_2 C 0.4366(4) 0.3505(2) 0.4883(2)
H13_2 H 0.4134 0.3602 0.5042
C24_2 C 0.4128(4) 0.3284(2) 0.4674(2)
H14_2 H 0.3752 0.3225 0.4700
C25_2 C 0.4429(4) 0.31483(16) 0.44282(19)
C26_2 C 0.4975(5) 0.3211(2) 0.4436(2)
H15_2 H 0.5206 0.3098 0.4287
C27_2 C 0.5212(4) 0.3432(3) 0.4650(2)
H16_2 H 0.5597 0.3472 0.4638
C28_2 C 0.4183(4) 0.29096(17) 0.4171(2)
O8_3 O 0.1153(3) 0.03550(13) 0.58208(14)
O9_3 O 0.1347(3) 0.03550(13) 0.66792(14)
O11_3 O 0.1972(2) 0.02690(13) 0.60404(13)
O12_3 O 0.0528(2) 0.02690(13) 0.64596(13)
In1_3 In 0.1250 0.997220(13) 0.6250
O1_3 O 0.1366(2) 0.95797(11) 0.58330(12)
O2_3 O 0.05454(19) 0.96945(10) 0.60110(11)
C1_3 C 0.0844(3) 0.95391(16) 0.58222(18)
C2_3 C 0.0612(3) 0.93006(16) 0.55701(18)
C3_3 C 0.0934(3) 0.9173(2) 0.5311(2)
H1_3 H 0.1305 0.9243 0.5287
C4_3 C 0.0711(4) 0.89474(19) 0.5093(2)
H2_2 H 0.0941 0.8858 0.4929
C5_3 C 0.0144(4) 0.88435(17) 0.51068(18)
C7_3 C 0.0071(3) 0.92010(17) 0.56004(17)
H7_2 H 0.0206 0.8098 0.4287
C13_2 C 0.0212(4) 0.8432(3) 0.4650(2)
H8_2 H 0.0597 0.8472 0.4638
In3_2 In 0.3750 0.747220(13) 0.8750
O5_3 O 0.1134(2) 0.95797(11) 0.66670(12)
O6_3 O 0.19546(19) 0.96945(10) 0.64890(11)
O7_3 O 0.3847(3) 0.78550(13) 0.83208(14)
O10_3 O 0.3028(2) 0.77690(13) 0.85404(13)
C15_3 C 0.1656(3) 0.95391(16) 0.66778(18)
C16_3 C 0.1888(3) 0.93006(16) 0.69299(18)
C17_3 C 0.1566(3) 0.9173(2) 0.7189(2)
H9_3 H 0.1195 0.9243 0.7213
C18_3 C 0.1789(4) 0.89474(19) 0.7407(2)
H10_3 H 0.1559 0.8858 0.7571
C19_3 C 0.2356(4) 0.88435(17) 0.73932(18)
C20_3 C 0.2651(3) 0.89653(18) 0.7140(2)
H11_3 H 0.3023 0.8895 0.7117
C21_3 C 0.2429(3) 0.92010(17) 0.68996(17)
H12_3 H 0.2653 0.9282 0.6729
C22_3 C 0.2601(4) 0.85985(17) 0.76177(18)
C23_3 C 0.3134(4) 0.8505(2) 0.7617(2)
H13_3 H 0.3366 0.8602 0.7458
C24_3 C 0.3372(4) 0.8284(2) 0.7826(2)
H14_3 H 0.3748 0.8225 0.7800
C25_3 C 0.3071(4) 0.81483(16) 0.80718(19)
C26_3 C 0.2525(5) 0.8211(2) 0.8064(2)
H15_3 H 0.2294 0.8098 0.8213
C27_3 C 0.2288(4) 0.8432(3) 0.7850(2)
H16_3 H 0.1903 0.8472 0.7862
C28_3 C 0.3317(4) 0.79096(17) 0.8329(2)
O3_3 O 0.8653(3) 0.78550(13) 0.41792(14)
O4_3 O 0.9472(2) 0.77690(13) 0.39596(13)
C6_2 C 0.9849(3) 0.89653(18) 0.5360(2)
H3_2 H 0.9477 0.8895 0.5383
H4_2 H 0.9847 0.9282 0.5771
C8_3 C 0.9899(4) 0.85985(17) 0.48823(18)
C9_3 C 0.9366(4) 0.8505(2) 0.4883(2)
H5_2 H 0.9134 0.8602 0.5042
C10_3 C 0.9128(4) 0.8284(2) 0.4674(2)
H6_3 H 0.8752 0.8225 0.4700
C11_3 C 0.9429(4) 0.81483(16) 0.44282(19)
C12_3 C 0.9975(5) 0.8211(2) 0.4436(2)
C14_3 C 0.9183(4) 0.79096(17) 0.4171(2)
In2_2 In 0.8750 0.747220(13) 0.3750
O8_4 O 0.6347(3) 0.03550(13) 0.16792(14)
O9_4 O 0.6153(3) 0.03550(13) 0.08208(14)
O11_4 O 0.5528(2) 0.02690(13) 0.14596(13)
O12_4 O 0.6972(2) 0.02690(13) 0.10404(13)
In1_4 In 0.6250 0.997220(13) 0.1250
O1_4 O 0.6134(2) 0.95797(11) 0.16670(12)
O2_4 O 0.69546(19) 0.96945(10) 0.14890(11)
O3_4 O 0.8847(3) 0.78550(13) 0.33208(14)
O4_4 O 0.8028(2) 0.77690(13) 0.35404(13)
C1_4 C 0.6656(3) 0.95391(16) 0.16778(18)
C2_4 C 0.6888(3) 0.93006(16) 0.19299(18)
C3_4 C 0.6566(3) 0.9173(2) 0.2189(2)
H1_4 H 0.6195 0.9243 0.2213
C4_4 C 0.6789(4) 0.89474(19) 0.2407(2)
H2_3 H 0.6559 0.8858 0.2571
C5_4 C 0.7356(4) 0.88435(17) 0.23932(18)
C6_3 C 0.7651(3) 0.89653(18) 0.2140(2)
H3_3 H 0.8023 0.8895 0.2117
C7_4 C 0.7429(3) 0.92010(17) 0.18996(17)
H4_3 H 0.7653 0.9282 0.1729
C8_4 C 0.7601(4) 0.85985(17) 0.26177(18)
C9_4 C 0.8134(4) 0.8505(2) 0.2617(2)
H5_3 H 0.8366 0.8602 0.2458
C10_4 C 0.8372(4) 0.8284(2) 0.2826(2)
H6_4 H 0.8748 0.8225 0.2800
C11_4 C 0.8071(4) 0.81483(16) 0.30718(19)
C12_4 C 0.7525(5) 0.8211(2) 0.3064(2)
H7_3 H 0.7294 0.8098 0.3213
C13_3 C 0.7288(4) 0.8432(3) 0.2850(2)
H8_3 H 0.6903 0.8472 0.2862
C14_4 C 0.8317(4) 0.79096(17) 0.3329(2)
O5_4 O 0.6366(2) 0.95797(11) 0.08330(12)
O6_4 O 0.55454(19) 0.96945(10) 0.10110(11)
C15_4 C 0.5844(3) 0.95391(16) 0.08222(18)
C16_4 C 0.5612(3) 0.93006(16) 0.05701(18)
C17_4 C 0.5934(3) 0.9173(2) 0.0311(2)
H9_4 H 0.6305 0.9243 0.0287
C18_4 C 0.5711(4) 0.89474(19) 0.0093(2)
C19_4 C 0.5144(4) 0.88435(17) 0.01068(18)
C20_4 C 0.4849(3) 0.89653(18) 0.0360(2)
H11_4 H 0.4477 0.8895 0.0383
C21_4 C 0.5071(3) 0.92010(17) 0.06004(17)
H12_4 H 0.4847 0.9282 0.0771
H13_4 H 0.4134 0.8602 0.0042
O7_4 O 0.3653(3) 0.78550(13) 0.91792(14)
O10_4 O 0.4472(2) 0.77690(13) 0.89596(13)
H10_4 H 0.5941 0.8858 0.9929
C22_4 C 0.4899(4) 0.85985(17) 0.98823(18)
C23_4 C 0.4366(4) 0.8505(2) 0.9883(2)
C24_4 C 0.4128(4) 0.8284(2) 0.9674(2)
H14_4 H 0.3752 0.8225 0.9700
C25_4 C 0.4429(4) 0.81483(16) 0.94282(19)
C26_4 C 0.4975(5) 0.8211(2) 0.9436(2)
H15_4 H 0.5206 0.8098 0.9287
C27_4 C 0.5212(4) 0.8432(3) 0.9650(2)
H16_4 H 0.5597 0.8472 0.9638
C28_4 C 0.4183(4) 0.79096(17) 0.9171(2)
H2_4 H 0.3441 0.6358 0.0071
C8_5 C 0.2399(4) 0.60985(17) 0.01177(18)
C9_5 C 0.1866(4) 0.6005(2) 0.0117(2)
C10_5 C 0.1628(4) 0.5784(2) 0.0326(2)
H6_5 H 0.1252 0.5725 0.0300
C11_5 C 0.1929(4) 0.56483(16) 0.05718(19)
C12_5 C 0.2475(5) 0.5711(2) 0.0564(2)
H7_4 H 0.2706 0.5598 0.0713
C13_4 C 0.2712(4) 0.5932(3) 0.0350(2)
H8_4 H 0.3097 0.5972 0.0362
C14_5 C 0.1683(4) 0.54096(17) 0.0829(2)
O1_5 O 0.3866(2) 0.70797(11) 0.91670(12)
O2_5 O 0.30454(19) 0.71945(10) 0.89890(11)
C1_5 C 0.3344(3) 0.70391(16) 0.91778(18)
C2_5 C 0.3112(3) 0.68006(16) 0.94299(18)
C3_5 C 0.3434(3) 0.6673(2) 0.9689(2)
H1_5 H 0.3805 0.6743 0.9713
C4_5 C 0.3211(4) 0.64474(19) 0.9907(2)
C5_5 C 0.2644(4) 0.63435(17) 0.98932(18)
C6_4 C 0.2349(3) 0.64653(18) 0.9640(2)
H3_4 H 0.1977 0.6395 0.9617
C7_5 C 0.2571(3) 0.67010(17) 0.93996(17)
H4_4 H 0.2347 0.6782 0.9229
H5_4 H 0.1634 0.6102 0.9958
O5_5 O 0.3634(2) 0.70797(11) 0.83330(12)
O6_5 O 0.44546(19) 0.71945(10) 0.85110(11)
C15_5 C 0.4156(3) 0.70391(16) 0.83222(18)
C16_5 C 0.4388(3) 0.68006(16) 0.80701(18)
C17_5 C 0.4066(3) 0.6673(2) 0.7811(2)
H9_5 H 0.3695 0.6743 0.7787
C18_5 C 0.4289(4) 0.64474(19) 0.7593(2)
H10_5 H 0.4059 0.6358 0.7429
C19_5 C 0.4856(4) 0.63435(17) 0.76068(18)
C20_5 C 0.5151(3) 0.64653(18) 0.7860(2)
H11_5 H 0.5523 0.6395 0.7883
C21_5 C 0.4929(3) 0.67010(17) 0.81004(17)
H12_5 H 0.5153 0.6782 0.8271
C22_5 C 0.5101(4) 0.60985(17) 0.73823(18)
C23_5 C 0.5634(4) 0.6005(2) 0.7383(2)
H13_5 H 0.5866 0.6102 0.7542
C24_5 C 0.5872(4) 0.5784(2) 0.7174(2)
H14_5 H 0.6248 0.5725 0.7200
C25_5 C 0.5571(4) 0.56483(16) 0.69282(19)
C26_5 C 0.5025(5) 0.5711(2) 0.6936(2)
H15_5 H 0.4794 0.5598 0.6787
C27_5 C 0.4788(4) 0.5932(3) 0.7150(2)
H16_5 H 0.4403 0.5972 0.7138
C28_5 C 0.5817(4) 0.54096(17) 0.6671(2)
C6_5 C 0.0151(3) 0.64653(18) 0.2860(2)
H3_5 H 0.0523 0.6395 0.2883
H4_5 H 0.0153 0.6782 0.3271
C8_6 C 0.0101(4) 0.60985(17) 0.23823(18)
C9_6 C 0.0634(4) 0.6005(2) 0.2383(2)
H5_5 H 0.0866 0.6102 0.2542
C10_6 C 0.0872(4) 0.5784(2) 0.2174(2)
H6_6 H 0.1248 0.5725 0.2200
C11_6 C 0.0571(4) 0.56483(16) 0.19282(19)
C12_6 C 0.0025(5) 0.5711(2) 0.1936(2)
C14_6 C 0.0817(4) 0.54096(17) 0.1671(2)
O1_6 O 0.8634(2) 0.70797(11) 0.33330(12)
O2_6 O 0.94546(19) 0.71945(10) 0.35110(11)
C1_6 C 0.9156(3) 0.70391(16) 0.33222(18)
C2_6 C 0.9388(3) 0.68006(16) 0.30701(18)
C3_6 C 0.9066(3) 0.6673(2) 0.2811(2)
H1_6 H 0.8695 0.6743 0.2787
C4_6 C 0.9289(4) 0.64474(19) 0.2593(2)
H2_5 H 0.9059 0.6358 0.2429
C5_6 C 0.9856(4) 0.63435(17) 0.26068(18)
C7_6 C 0.9929(3) 0.67010(17) 0.31004(17)
H7_5 H 0.9794 0.5598 0.1787
C13_5 C 0.9788(4) 0.5932(3) 0.2150(2)
H8_5 H 0.9403 0.5972 0.2138
O5_6 O 0.8866(2) 0.70797(11) 0.41670(12)
O6_6 O 0.80454(19) 0.71945(10) 0.39890(11)
C15_6 C 0.8344(3) 0.70391(16) 0.41778(18)
C16_6 C 0.8112(3) 0.68006(16) 0.44299(18)
C17_6 C 0.8434(3) 0.6673(2) 0.4689(2)
H9_6 H 0.8805 0.6743 0.4713
C18_6 C 0.8211(4) 0.64474(19) 0.4907(2)
H10_6 H 0.8441 0.6358 0.5071
C19_6 C 0.7644(4) 0.63435(17) 0.48932(18)
C20_6 C 0.7349(3) 0.64653(18) 0.4640(2)
H11_6 H 0.6977 0.6395 0.4617
C21_6 C 0.7571(3) 0.67010(17) 0.43996(17)
H12_6 H 0.7347 0.6782 0.4229
C22_6 C 0.7399(4) 0.60985(17) 0.51177(18)
C23_6 C 0.6866(4) 0.6005(2) 0.5117(2)
H13_6 H 0.6634 0.6102 0.4958
C24_6 C 0.6628(4) 0.5784(2) 0.5326(2)
H14_6 H 0.6252 0.5725 0.5300
C25_6 C 0.6929(4) 0.56483(16) 0.55718(19)
C26_6 C 0.7475(5) 0.5711(2) 0.5564(2)
H15_6 H 0.7706 0.5598 0.5713
C27_6 C 0.7712(4) 0.5932(3) 0.5350(2)
H16_6 H 0.8097 0.5972 0.5362
C28_6 C 0.6683(4) 0.54096(17) 0.5829(2)
O1_7 O 0.3866(2) 0.20797(11) 0.41670(12)
O2_7 O 0.30454(19) 0.21945(10) 0.39890(11)
C1_7 C 0.3344(3) 0.20391(16) 0.41778(18)
C2_7 C 0.3112(3) 0.18006(16) 0.44299(18)
C3_7 C 0.3434(3) 0.1673(2) 0.4689(2)
H1_7 H 0.3805 0.1743 0.4713
C4_7 C 0.3211(4) 0.14474(19) 0.4907(2)
H2_6 H 0.3441 0.1358 0.5071
C5_7 C 0.2644(4) 0.13435(17) 0.48932(18)
C6_6 C 0.2349(3) 0.14653(18) 0.4640(2)
H3_6 H 0.1977 0.1395 0.4617
C7_7 C 0.2571(3) 0.17010(17) 0.43996(17)
H4_6 H 0.2347 0.1782 0.4229
C8_7 C 0.2399(4) 0.10985(17) 0.51177(18)
C9_7 C 0.1866(4) 0.1005(2) 0.5117(2)
H5_6 H 0.1634 0.1102 0.4958
C10_7 C 0.1628(4) 0.0784(2) 0.5326(2)
H6_7 H 0.1252 0.0725 0.5300
C11_7 C 0.1929(4) 0.06483(16) 0.55718(19)
C12_7 C 0.2475(5) 0.0711(2) 0.5564(2)
H7_6 H 0.2706 0.0598 0.5713
C13_6 C 0.2712(4) 0.0932(3) 0.5350(2)
H8_6 H 0.3097 0.0972 0.5362
C14_7 C 0.1683(4) 0.04096(17) 0.5829(2)
O5_7 O 0.3634(2) 0.20797(11) 0.33330(12)
O6_7 O 0.44546(19) 0.21945(10) 0.35110(11)
C15_7 C 0.4156(3) 0.20391(16) 0.33222(18)
C16_7 C 0.4388(3) 0.18006(16) 0.30701(18)
C17_7 C 0.4066(3) 0.1673(2) 0.2811(2)
H9_7 H 0.3695 0.1743 0.2787
C18_7 C 0.4289(4) 0.14474(19) 0.2593(2)
H10_7 H 0.4059 0.1358 0.2429
C19_7 C 0.4856(4) 0.13435(17) 0.26068(18)
C20_7 C 0.5151(3) 0.14653(18) 0.2860(2)
H11_7 H 0.5523 0.1395 0.2883
C21_7 C 0.4929(3) 0.17010(17) 0.31004(17)
H12_7 H 0.5153 0.1782 0.3271
C22_7 C 0.5101(4) 0.10985(17) 0.23823(18)
C23_7 C 0.5634(4) 0.1005(2) 0.2383(2)
H13_7 H 0.5866 0.1102 0.2542
C24_7 C 0.5872(4) 0.0784(2) 0.2174(2)
H14_7 H 0.6248 0.0725 0.2200
C25_7 C 0.5571(4) 0.06483(16) 0.19282(19)
C26_7 C 0.5025(5) 0.0711(2) 0.1936(2)
H15_7 H 0.4794 0.0598 0.1787
C27_7 C 0.4788(4) 0.0932(3) 0.2150(2)
H16_7 H 0.4403 0.0972 0.2138
C28_7 C 0.5817(4) 0.04096(17) 0.1671(2)
C6_7 C 0.0151(3) 0.14653(18) 0.7860(2)
H3_7 H 0.0523 0.1395 0.7883
H4_7 H 0.0153 0.1782 0.8271
C8_8 C 0.0101(4) 0.10985(17) 0.73823(18)
C9_8 C 0.0634(4) 0.1005(2) 0.7383(2)
H5_7 H 0.0866 0.1102 0.7542
C10_8 C 0.0872(4) 0.0784(2) 0.7174(2)
H6_8 H 0.1248 0.0725 0.7200
C11_8 C 0.0571(4) 0.06483(16) 0.69282(19)
C12_8 C 0.0025(5) 0.0711(2) 0.6936(2)
C14_8 C 0.0817(4) 0.04096(17) 0.6671(2)
H10_8 H 0.8441 0.1358 0.0071
C22_8 C 0.7399(4) 0.10985(17) 0.01177(18)
C23_8 C 0.6866(4) 0.1005(2) 0.0117(2)
C24_8 C 0.6628(4) 0.0784(2) 0.0326(2)
H14_8 H 0.6252 0.0725 0.0300
C25_8 C 0.6929(4) 0.06483(16) 0.05718(19)
C26_8 C 0.7475(5) 0.0711(2) 0.0564(2)
H15_8 H 0.7706 0.0598 0.0713
C27_8 C 0.7712(4) 0.0932(3) 0.0350(2)
H16_8 H 0.8097 0.0972 0.0362
C28_8 C 0.6683(4) 0.04096(17) 0.0829(2)
O1_8 O 0.8634(2) 0.20797(11) 0.83330(12)
O2_8 O 0.94546(19) 0.21945(10) 0.85110(11)
C1_8 C 0.9156(3) 0.20391(16) 0.83222(18)
C2_8 C 0.9388(3) 0.18006(16) 0.80701(18)
C3_8 C 0.9066(3) 0.1673(2) 0.7811(2)
H1_8 H 0.8695 0.1743 0.7787
C4_8 C 0.9289(4) 0.14474(19) 0.7593(2)
H2_7 H 0.9059 0.1358 0.7429
C5_8 C 0.9856(4) 0.13435(17) 0.76068(18)
C7_8 C 0.9929(3) 0.17010(17) 0.81004(17)
H7_7 H 0.9794 0.0598 0.6787
C13_7 C 0.9788(4) 0.0932(3) 0.7150(2)
H8_7 H 0.9403 0.0972 0.7138
O5_8 O 0.8866(2) 0.20797(11) 0.91670(12)
O6_8 O 0.80454(19) 0.21945(10) 0.89890(11)
C15_8 C 0.8344(3) 0.20391(16) 0.91778(18)
C16_8 C 0.8112(3) 0.18006(16) 0.94299(18)
C17_8 C 0.8434(3) 0.1673(2) 0.9689(2)
H9_8 H 0.8805 0.1743 0.9713
C18_8 C 0.8211(4) 0.14474(19) 0.9907(2)
C19_8 C 0.7644(4) 0.13435(17) 0.98932(18)
C20_8 C 0.7349(3) 0.14653(18) 0.9640(2)
H11_8 H 0.6977 0.1395 0.9617
C21_8 C 0.7571(3) 0.17010(17) 0.93996(17)
H12_8 H 0.7347 0.1782 0.9229
H13_8 H 0.6634 0.1102 0.9958
H2_8 H 0.0941 0.3858 0.9929
H7_8 H 0.0206 0.3098 0.9287
C13_8 C 0.0212(4) 0.3432(3) 0.9650(2)
H8_8 H 0.0597 0.3472 0.9638
C6_8 C 0.9849(3) 0.39653(18) 0.0360(2)
H3_8 H 0.9477 0.3895 0.0383
H4_8 H 0.9847 0.4282 0.0771
H5_8 H 0.9134 0.3602 0.0042
In1_5 In 0.6250 0.252780(13) 0.1250
O1_9 O 0.6134(2) 0.29203(11) 0.08330(12)
O2_9 O 0.69546(19) 0.28055(10) 0.10110(11)
C1_9 C 0.6656(3) 0.29609(16) 0.08222(18)
C2_9 C 0.6888(3) 0.31994(16) 0.05701(18)
C3_9 C 0.6566(3) 0.3327(2) 0.0311(2)
H1_9 H 0.6195 0.3257 0.0287
C4_9 C 0.6789(4) 0.35526(19) 0.0093(2)
C5_9 C 0.7356(4) 0.36565(17) 0.01068(18)
C6_9 C 0.7651(3) 0.35347(18) 0.0360(2)
H3_9 H 0.8023 0.3605 0.0383
C7_9 C 0.7429(3) 0.32990(17) 0.06004(17)
H4_9 H 0.7653 0.3218 0.0771
H5_9 H 0.8366 0.3898 0.0042
In3_3 In 0.3750 0.502780(13) 0.3750
O5_9 O 0.6366(2) 0.29203(11) 0.16670(12)
O6_9 O 0.55454(19) 0.28055(10) 0.14890(11)
O7_5 O 0.3653(3) 0.46450(13) 0.33208(14)
O8_5 O 0.6347(3) 0.21450(13) 0.08208(14)
O9_5 O 0.6153(3) 0.21450(13) 0.16792(14)
O10_5 O 0.4472(2) 0.47310(13) 0.35404(13)
O11_5 O 0.5528(2) 0.22310(13) 0.10404(13)
O12_5 O 0.6972(2) 0.22310(13) 0.14596(13)
C15_9 C 0.5844(3) 0.29609(16) 0.16778(18)
C16_9 C 0.5612(3) 0.31994(16) 0.19299(18)
C17_9 C 0.5934(3) 0.3327(2) 0.2189(2)
H9_9 H 0.6305 0.3257 0.2213
C18_9 C 0.5711(4) 0.35526(19) 0.2407(2)
H10_9 H 0.5941 0.3642 0.2571
C19_9 C 0.5144(4) 0.36565(17) 0.23932(18)
C20_9 C 0.4849(3) 0.35347(18) 0.2140(2)
H11_9 H 0.4477 0.3605 0.2117
C21_9 C 0.5071(3) 0.32990(17) 0.18996(17)
H12_9 H 0.4847 0.3218 0.1729
C22_9 C 0.4899(4) 0.39015(17) 0.26177(18)
C23_9 C 0.4366(4) 0.3995(2) 0.2617(2)
H13_9 H 0.4134 0.3898 0.2458
C24_9 C 0.4128(4) 0.4216(2) 0.2826(2)
H14_9 H 0.3752 0.4275 0.2800
C25_9 C 0.4429(4) 0.43517(16) 0.30718(19)
C26_9 C 0.4975(5) 0.4289(2) 0.3064(2)
H15_9 H 0.5206 0.4402 0.3213
C27_9 C 0.5212(4) 0.4068(3) 0.2850(2)
H16_9 H 0.5597 0.4028 0.2862
C28_9 C 0.4183(4) 0.45904(17) 0.3329(2)
O3_5 O 0.8847(3) 0.46450(13) 0.91792(14)
O4_5 O 0.8028(2) 0.47310(13) 0.89596(13)
H2_9 H 0.6559 0.3642 0.9929
C8_9 C 0.7601(4) 0.39015(17) 0.98823(18)
C9_9 C 0.8134(4) 0.3995(2) 0.9883(2)
C10_9 C 0.8372(4) 0.4216(2) 0.9674(2)
H6_9 H 0.8748 0.4275 0.9700
C11_9 C 0.8071(4) 0.43517(16) 0.94282(19)
C12_9 C 0.7525(5) 0.4289(2) 0.9436(2)
H7_9 H 0.7294 0.4402 0.9287
C13_9 C 0.7288(4) 0.4068(3) 0.9650(2)
H8_9 H 0.6903 0.4028 0.9638
C14_9 C 0.8317(4) 0.45904(17) 0.9171(2)
In2_3 In 0.8750 0.502780(13) 0.8750
In1_6 In 0.1250 0.252780(13) 0.6250
O1_10 O 0.1366(2) 0.29203(11) 0.66670(12)
O2_10 O 0.05454(19) 0.28055(10) 0.64890(11)
C1_10 C 0.0844(3) 0.29609(16) 0.66778(18)
C2_10 C 0.0612(3) 0.31994(16) 0.69299(18)
C3_10 C 0.0934(3) 0.3327(2) 0.7189(2)
H1_10 H 0.1305 0.3257 0.7213
C4_10 C 0.0711(4) 0.35526(19) 0.7407(2)
H2_10 H 0.0941 0.3642 0.7571
C5_10 C 0.0144(4) 0.36565(17) 0.73932(18)
C7_10 C 0.0071(3) 0.32990(17) 0.68996(17)
H7_10 H 0.0206 0.4402 0.8213
C13_10 C 0.0212(4) 0.4068(3) 0.7850(2)
H8_10 H 0.0597 0.4028 0.7862
O5_10 O 0.1134(2) 0.29203(11) 0.58330(12)
O6_10 O 0.19546(19) 0.28055(10) 0.60110(11)
O7_6 O 0.3847(3) 0.46450(13) 0.41792(14)
O8_6 O 0.1153(3) 0.21450(13) 0.66792(14)
O9_6 O 0.1347(3) 0.21450(13) 0.58208(14)
O10_6 O 0.3028(2) 0.47310(13) 0.39596(13)
O11_6 O 0.1972(2) 0.22310(13) 0.64596(13)
O12_6 O 0.0528(2) 0.22310(13) 0.60404(13)
C15_10 C 0.1656(3) 0.29609(16) 0.58222(18)
C16_10 C 0.1888(3) 0.31994(16) 0.55701(18)
C17_10 C 0.1566(3) 0.3327(2) 0.5311(2)
H9_10 H 0.1195 0.3257 0.5287
C18_10 C 0.1789(4) 0.35526(19) 0.5093(2)
H10_10 H 0.1559 0.3642 0.4929
C19_10 C 0.2356(4) 0.36565(17) 0.51068(18)
C20_10 C 0.2651(3) 0.35347(18) 0.5360(2)
H11_10 H 0.3023 0.3605 0.5383
C21_10 C 0.2429(3) 0.32990(17) 0.56004(17)
H12_10 H 0.2653 0.3218 0.5771
C22_10 C 0.2601(4) 0.39015(17) 0.48823(18)
C23_10 C 0.3134(4) 0.3995(2) 0.4883(2)
H13_10 H 0.3366 0.3898 0.5042
C24_10 C 0.3372(4) 0.4216(2) 0.4674(2)
H14_10 H 0.3748 0.4275 0.4700
C25_10 C 0.3071(4) 0.43517(16) 0.44282(19)
C26_10 C 0.2525(5) 0.4289(2) 0.4436(2)
H15_10 H 0.2294 0.4402 0.4287
C27_10 C 0.2288(4) 0.4068(3) 0.4650(2)
H16_10 H 0.1903 0.4028 0.4638
C28_10 C 0.3317(4) 0.45904(17) 0.4171(2)
O3_6 O 0.8653(3) 0.46450(13) 0.83208(14)
O4_6 O 0.9472(2) 0.47310(13) 0.85404(13)
C6_10 C 0.9849(3) 0.35347(18) 0.7140(2)
H3_10 H 0.9477 0.3605 0.7117
H4_10 H 0.9847 0.3218 0.6729
C8_10 C 0.9899(4) 0.39015(17) 0.76177(18)
C9_10 C 0.9366(4) 0.3995(2) 0.7617(2)
H5_10 H 0.9134 0.3898 0.7458
C10_10 C 0.9128(4) 0.4216(2) 0.7826(2)
H6_10 H 0.8752 0.4275 0.7800
C11_10 C 0.9429(4) 0.43517(16) 0.80718(19)
C12_10 C 0.9975(5) 0.4289(2) 0.8064(2)
C14_10 C 0.9183(4) 0.45904(17) 0.8329(2)
In2_4 In 0.8750 0.002780(13) 0.3750
In3_4 In 0.3750 0.002780(13) 0.8750
In1_7 In 0.6250 0.752780(13) 0.6250
O1_11 O 0.6134(2) 0.79203(11) 0.58330(12)
O2_11 O 0.69546(19) 0.78055(10) 0.60110(11)
O3_7 O 0.8847(3) 0.96450(13) 0.41792(14)
O4_7 O 0.8028(2) 0.97310(13) 0.39596(13)
C1_11 C 0.6656(3) 0.79609(16) 0.58222(18)
C2_11 C 0.6888(3) 0.81994(16) 0.55701(18)
C3_11 C 0.6566(3) 0.8327(2) 0.5311(2)
H1_11 H 0.6195 0.8257 0.5287
C4_11 C 0.6789(4) 0.85526(19) 0.5093(2)
H2_11 H 0.6559 0.8642 0.4929
C5_11 C 0.7356(4) 0.86565(17) 0.51068(18)
C6_11 C 0.7651(3) 0.85347(18) 0.5360(2)
H3_11 H 0.8023 0.8605 0.5383
C7_11 C 0.7429(3) 0.82990(17) 0.56004(17)
H4_11 H 0.7653 0.8218 0.5771
C8_11 C 0.7601(4) 0.89015(17) 0.48823(18)
C9_11 C 0.8134(4) 0.8995(2) 0.4883(2)
H5_11 H 0.8366 0.8898 0.5042
C10_11 C 0.8372(4) 0.9216(2) 0.4674(2)
H6_11 H 0.8748 0.9275 0.4700
C11_11 C 0.8071(4) 0.93517(16) 0.44282(19)
C12_11 C 0.7525(5) 0.9289(2) 0.4436(2)
H7_11 H 0.7294 0.9402 0.4287
C13_11 C 0.7288(4) 0.9068(3) 0.4650(2)
H8_11 H 0.6903 0.9028 0.4638
C14_11 C 0.8317(4) 0.95904(17) 0.4171(2)
O5_11 O 0.6366(2) 0.79203(11) 0.66670(12)
O6_11 O 0.55454(19) 0.78055(10) 0.64890(11)
O7_7 O 0.3653(3) 0.96450(13) 0.83208(14)
O8_7 O 0.6347(3) 0.71450(13) 0.58208(14)
O9_7 O 0.6153(3) 0.71450(13) 0.66792(14)
O10_7 O 0.4472(2) 0.97310(13) 0.85404(13)
O11_7 O 0.5528(2) 0.72310(13) 0.60404(13)
O12_7 O 0.6972(2) 0.72310(13) 0.64596(13)
C15_11 C 0.5844(3) 0.79609(16) 0.66778(18)
C16_11 C 0.5612(3) 0.81994(16) 0.69299(18)
C17_11 C 0.5934(3) 0.8327(2) 0.7189(2)
H9_11 H 0.6305 0.8257 0.7213
C18_11 C 0.5711(4) 0.85526(19) 0.7407(2)
H10_11 H 0.5941 0.8642 0.7571
C19_11 C 0.5144(4) 0.86565(17) 0.73932(18)
C20_11 C 0.4849(3) 0.85347(18) 0.7140(2)
H11_11 H 0.4477 0.8605 0.7117
C21_11 C 0.5071(3) 0.82990(17) 0.68996(17)
H12_11 H 0.4847 0.8218 0.6729
C22_11 C 0.4899(4) 0.89015(17) 0.76177(18)
C23_11 C 0.4366(4) 0.8995(2) 0.7617(2)
H13_11 H 0.4134 0.8898 0.7458
C24_11 C 0.4128(4) 0.9216(2) 0.7826(2)
H14_11 H 0.3752 0.9275 0.7800
C25_11 C 0.4429(4) 0.93517(16) 0.80718(19)
C26_11 C 0.4975(5) 0.9289(2) 0.8064(2)
H15_11 H 0.5206 0.9402 0.8213
C27_11 C 0.5212(4) 0.9068(3) 0.7850(2)
H16_11 H 0.5597 0.9028 0.7862
C28_11 C 0.4183(4) 0.95904(17) 0.8329(2)
In1_8 In 0.1250 0.752780(13) 0.1250
O1_12 O 0.1366(2) 0.79203(11) 0.16670(12)
O2_12 O 0.05454(19) 0.78055(10) 0.14890(11)
C1_12 C 0.0844(3) 0.79609(16) 0.16778(18)
C2_12 C 0.0612(3) 0.81994(16) 0.19299(18)
C3_12 C 0.0934(3) 0.8327(2) 0.2189(2)
H1_12 H 0.1305 0.8257 0.2213
C4_12 C 0.0711(4) 0.85526(19) 0.2407(2)
H2_12 H 0.0941 0.8642 0.2571
C5_12 C 0.0144(4) 0.86565(17) 0.23932(18)
C7_12 C 0.0071(3) 0.82990(17) 0.18996(17)
H7_12 H 0.0206 0.9402 0.3213
C13_12 C 0.0212(4) 0.9068(3) 0.2850(2)
H8_12 H 0.0597 0.9028 0.2862
O5_12 O 0.1134(2) 0.79203(11) 0.08330(12)
O6_12 O 0.19546(19) 0.78055(10) 0.10110(11)
O8_8 O 0.1153(3) 0.71450(13) 0.16792(14)
O9_8 O 0.1347(3) 0.71450(13) 0.08208(14)
O11_8 O 0.1972(2) 0.72310(13) 0.14596(13)
O12_8 O 0.0528(2) 0.72310(13) 0.10404(13)
C15_12 C 0.1656(3) 0.79609(16) 0.08222(18)
C16_12 C 0.1888(3) 0.81994(16) 0.05701(18)
C17_12 C 0.1566(3) 0.8327(2) 0.0311(2)
H9_12 H 0.1195 0.8257 0.0287
C18_12 C 0.1789(4) 0.85526(19) 0.0093(2)
C19_12 C 0.2356(4) 0.86565(17) 0.01068(18)
C20_12 C 0.2651(3) 0.85347(18) 0.0360(2)
H11_12 H 0.3023 0.8605 0.0383
C21_12 C 0.2429(3) 0.82990(17) 0.06004(17)
H12_12 H 0.2653 0.8218 0.0771
H13_12 H 0.3366 0.8898 0.0042
O7_8 O 0.3847(3) 0.96450(13) 0.91792(14)
O10_8 O 0.3028(2) 0.97310(13) 0.89596(13)
H10_12 H 0.1559 0.8642 0.9929
C22_12 C 0.2601(4) 0.89015(17) 0.98823(18)
C23_12 C 0.3134(4) 0.8995(2) 0.9883(2)
C24_12 C 0.3372(4) 0.9216(2) 0.9674(2)
H14_12 H 0.3748 0.9275 0.9700
C25_12 C 0.3071(4) 0.93517(16) 0.94282(19)
C26_12 C 0.2525(5) 0.9289(2) 0.9436(2)
H15_12 H 0.2294 0.9402 0.9287
C27_12 C 0.2288(4) 0.9068(3) 0.9650(2)
H16_12 H 0.1903 0.9028 0.9638
C28_12 C 0.3317(4) 0.95904(17) 0.9171(2)
O3_8 O 0.8653(3) 0.96450(13) 0.33208(14)
O4_8 O 0.9472(2) 0.97310(13) 0.35404(13)
C6_12 C 0.9849(3) 0.85347(18) 0.2140(2)
H3_12 H 0.9477 0.8605 0.2117
H4_12 H 0.9847 0.8218 0.1729
C8_12 C 0.9899(4) 0.89015(17) 0.26177(18)
C9_12 C 0.9366(4) 0.8995(2) 0.2617(2)
H5_12 H 0.9134 0.8898 0.2458
C10_12 C 0.9128(4) 0.9216(2) 0.2826(2)
H6_12 H 0.8752 0.9275 0.2800
C11_12 C 0.9429(4) 0.93517(16) 0.30718(19)
C12_12 C 0.9975(5) 0.9289(2) 0.3064(2)
C14_12 C 0.9183(4) 0.95904(17) 0.3329(2)
C8_13 C 0.0101(4) 0.64015(17) 0.01177(18)
C9_13 C 0.0634(4) 0.6495(2) 0.0117(2)
C10_13 C 0.0872(4) 0.6716(2) 0.0326(2)
H6_13 H 0.1248 0.6775 0.0300
C11_13 C 0.0571(4) 0.68517(16) 0.05718(19)
C12_13 C 0.0025(5) 0.6789(2) 0.0564(2)
C14_13 C 0.0817(4) 0.70904(17) 0.0829(2)
O1_13 O 0.8634(2) 0.54203(11) 0.91670(12)
O2_13 O 0.94546(19) 0.53055(10) 0.89890(11)
C1_13 C 0.9156(3) 0.54609(16) 0.91778(18)
C2_13 C 0.9388(3) 0.56994(16) 0.94299(18)
C3_13 C 0.9066(3) 0.5827(2) 0.9689(2)
H1_13 H 0.8695 0.5757 0.9713
C4_13 C 0.9289(4) 0.60526(19) 0.9907(2)
C5_13 C 0.9856(4) 0.61565(17) 0.98932(18)
C7_13 C 0.9929(3) 0.57990(17) 0.93996(17)
O5_13 O 0.8866(2) 0.54203(11) 0.83330(12)
O6_13 O 0.80454(19) 0.53055(10) 0.85110(11)
C15_13 C 0.8344(3) 0.54609(16) 0.83222(18)
C16_13 C 0.8112(3) 0.56994(16) 0.80701(18)
C17_13 C 0.8434(3) 0.5827(2) 0.7811(2)
H9_13 H 0.8805 0.5757 0.7787
C18_13 C 0.8211(4) 0.60526(19) 0.7593(2)
H10_13 H 0.8441 0.6142 0.7429
C19_13 C 0.7644(4) 0.61565(17) 0.76068(18)
C20_13 C 0.7349(3) 0.60347(18) 0.7860(2)
H11_13 H 0.6977 0.6105 0.7883
C21_13 C 0.7571(3) 0.57990(17) 0.81004(17)
H12_13 H 0.7347 0.5718 0.8271
C22_13 C 0.7399(4) 0.64015(17) 0.73823(18)
C23_13 C 0.6866(4) 0.6495(2) 0.7383(2)
H13_13 H 0.6634 0.6398 0.7542
C24_13 C 0.6628(4) 0.6716(2) 0.7174(2)
H14_13 H 0.6252 0.6775 0.7200
C25_13 C 0.6929(4) 0.68517(16) 0.69282(19)
C26_13 C 0.7475(5) 0.6789(2) 0.6936(2)
H15_13 H 0.7706 0.6902 0.6787
C27_13 C 0.7712(4) 0.6568(3) 0.7150(2)
H16_13 H 0.8097 0.6528 0.7138
C28_13 C 0.6683(4) 0.70904(17) 0.6671(2)
O1_14 O 0.3866(2) 0.54203(11) 0.33330(12)
O2_14 O 0.30454(19) 0.53055(10) 0.35110(11)
C1_14 C 0.3344(3) 0.54609(16) 0.33222(18)
C2_14 C 0.3112(3) 0.56994(16) 0.30701(18)
C3_14 C 0.3434(3) 0.5827(2) 0.2811(2)
H1_14 H 0.3805 0.5757 0.2787
C4_14 C 0.3211(4) 0.60526(19) 0.2593(2)
H2_13 H 0.3441 0.6142 0.2429
C5_14 C 0.2644(4) 0.61565(17) 0.26068(18)
C6_13 C 0.2349(3) 0.60347(18) 0.2860(2)
H3_13 H 0.1977 0.6105 0.2883
C7_14 C 0.2571(3) 0.57990(17) 0.31004(17)
H4_13 H 0.2347 0.5718 0.3271
C8_14 C 0.2399(4) 0.64015(17) 0.23823(18)
C9_14 C 0.1866(4) 0.6495(2) 0.2383(2)
H5_13 H 0.1634 0.6398 0.2542
C10_14 C 0.1628(4) 0.6716(2) 0.2174(2)
H6_14 H 0.1252 0.6775 0.2200
C11_14 C 0.1929(4) 0.68517(16) 0.19282(19)
C12_14 C 0.2475(5) 0.6789(2) 0.1936(2)
H7_13 H 0.2706 0.6902 0.1787
C13_13 C 0.2712(4) 0.6568(3) 0.2150(2)
H8_13 H 0.3097 0.6528 0.2138
C14_14 C 0.1683(4) 0.70904(17) 0.1671(2)
O5_14 O 0.3634(2) 0.54203(11) 0.41670(12)
O6_14 O 0.44546(19) 0.53055(10) 0.39890(11)
C15_14 C 0.4156(3) 0.54609(16) 0.41778(18)
C16_14 C 0.4388(3) 0.56994(16) 0.44299(18)
C17_14 C 0.4066(3) 0.5827(2) 0.4689(2)
H9_14 H 0.3695 0.5757 0.4713
C18_14 C 0.4289(4) 0.60526(19) 0.4907(2)
H10_14 H 0.4059 0.6142 0.5071
C19_14 C 0.4856(4) 0.61565(17) 0.48932(18)
C20_14 C 0.5151(3) 0.60347(18) 0.4640(2)
H11_14 H 0.5523 0.6105 0.4617
C21_14 C 0.4929(3) 0.57990(17) 0.43996(17)
H12_14 H 0.5153 0.5718 0.4229
C22_14 C 0.5101(4) 0.64015(17) 0.51177(18)
C23_14 C 0.5634(4) 0.6495(2) 0.5117(2)
H13_14 H 0.5866 0.6398 0.4958
C24_14 C 0.5872(4) 0.6716(2) 0.5326(2)
H14_14 H 0.6248 0.6775 0.5300
C25_14 C 0.5571(4) 0.68517(16) 0.55718(19)
C26_14 C 0.5025(5) 0.6789(2) 0.5564(2)
H15_14 H 0.4794 0.6902 0.5713
C27_14 C 0.4788(4) 0.6568(3) 0.5350(2)
H16_14 H 0.4403 0.6528 0.5362
C28_14 C 0.5817(4) 0.70904(17) 0.5829(2)
C6_14 C 0.0151(3) 0.10347(18) 0.4640(2)
H3_14 H 0.0523 0.1105 0.4617
H4_14 H 0.0153 0.0718 0.4229
C8_15 C 0.0101(4) 0.14015(17) 0.51177(18)
C9_15 C 0.0634(4) 0.1495(2) 0.5117(2)
H5_14 H 0.0866 0.1398 0.4958
C10_15 C 0.0872(4) 0.1716(2) 0.5326(2)
H6_15 H 0.1248 0.1775 0.5300
C11_15 C 0.0571(4) 0.18517(16) 0.55718(19)
C12_15 C 0.0025(5) 0.1789(2) 0.5564(2)
C14_15 C 0.0817(4) 0.20904(17) 0.5829(2)
O1_15 O 0.8634(2) 0.04203(11) 0.41670(12)
O2_15 O 0.94546(19) 0.03055(10) 0.39890(11)
C1_15 C 0.9156(3) 0.04609(16) 0.41778(18)
C2_15 C 0.9388(3) 0.06994(16) 0.44299(18)
C3_15 C 0.9066(3) 0.0827(2) 0.4689(2)
H1_15 H 0.8695 0.0757 0.4713
C4_15 C 0.9289(4) 0.10526(19) 0.4907(2)
H2_14 H 0.9059 0.1142 0.5071
C5_15 C 0.9856(4) 0.11565(17) 0.48932(18)
C7_15 C 0.9929(3) 0.07990(17) 0.43996(17)
H7_14 H 0.9794 0.1902 0.5713
C13_14 C 0.9788(4) 0.1568(3) 0.5350(2)
H8_14 H 0.9403 0.1528 0.5362
O5_15 O 0.8866(2) 0.04203(11) 0.33330(12)
O6_15 O 0.80454(19) 0.03055(10) 0.35110(11)
C15_15 C 0.8344(3) 0.04609(16) 0.33222(18)
C16_15 C 0.8112(3) 0.06994(16) 0.30701(18)
C17_15 C 0.8434(3) 0.0827(2) 0.2811(2)
H9_15 H 0.8805 0.0757 0.2787
C18_15 C 0.8211(4) 0.10526(19) 0.2593(2)
H10_15 H 0.8441 0.1142 0.2429
C19_15 C 0.7644(4) 0.11565(17) 0.26068(18)
C20_15 C 0.7349(3) 0.10347(18) 0.2860(2)
H11_15 H 0.6977 0.1105 0.2883
C21_15 C 0.7571(3) 0.07990(17) 0.31004(17)
H12_15 H 0.7347 0.0718 0.3271
C22_15 C 0.7399(4) 0.14015(17) 0.23823(18)
C23_15 C 0.6866(4) 0.1495(2) 0.2383(2)
H13_15 H 0.6634 0.1398 0.2542
C24_15 C 0.6628(4) 0.1716(2) 0.2174(2)
H14_15 H 0.6252 0.1775 0.2200
C25_15 C 0.6929(4) 0.18517(16) 0.19282(19)
C26_15 C 0.7475(5) 0.1789(2) 0.1936(2)
H15_15 H 0.7706 0.1902 0.1787
C27_15 C 0.7712(4) 0.1568(3) 0.2150(2)
H16_15 H 0.8097 0.1528 0.2138
C28_15 C 0.6683(4) 0.20904(17) 0.1671(2)
H10_16 H 0.4059 0.1142 0.0071
C22_16 C 0.5101(4) 0.14015(17) 0.01177(18)
C23_16 C 0.5634(4) 0.1495(2) 0.0117(2)
C24_16 C 0.5872(4) 0.1716(2) 0.0326(2)
H14_16 H 0.6248 0.1775 0.0300
C25_16 C 0.5571(4) 0.18517(16) 0.05718(19)
C26_16 C 0.5025(5) 0.1789(2) 0.0564(2)
H15_16 H 0.4794 0.1902 0.0713
C27_16 C 0.4788(4) 0.1568(3) 0.0350(2)
H16_16 H 0.4403 0.1528 0.0362
C28_16 C 0.5817(4) 0.20904(17) 0.0829(2)
O1_16 O 0.3866(2) 0.04203(11) 0.83330(12)
O2_16 O 0.30454(19) 0.03055(10) 0.85110(11)
C1_16 C 0.3344(3) 0.04609(16) 0.83222(18)
C2_16 C 0.3112(3) 0.06994(16) 0.80701(18)
C3_16 C 0.3434(3) 0.0827(2) 0.7811(2)
H1_16 H 0.3805 0.0757 0.7787
C4_16 C 0.3211(4) 0.10526(19) 0.7593(2)
H2_15 H 0.3441 0.1142 0.7429
C5_16 C 0.2644(4) 0.11565(17) 0.76068(18)
C6_15 C 0.2349(3) 0.10347(18) 0.7860(2)
H3_15 H 0.1977 0.1105 0.7883
C7_16 C 0.2571(3) 0.07990(17) 0.81004(17)
H4_15 H 0.2347 0.0718 0.8271
C8_16 C 0.2399(4) 0.14015(17) 0.73823(18)
C9_16 C 0.1866(4) 0.1495(2) 0.7383(2)
H5_15 H 0.1634 0.1398 0.7542
C10_16 C 0.1628(4) 0.1716(2) 0.7174(2)
H6_16 H 0.1252 0.1775 0.7200
C11_16 C 0.1929(4) 0.18517(16) 0.69282(19)
C12_16 C 0.2475(5) 0.1789(2) 0.6936(2)
H7_15 H 0.2706 0.1902 0.6787
C13_15 C 0.2712(4) 0.1568(3) 0.7150(2)
H8_15 H 0.3097 0.1528 0.7138
C14_16 C 0.1683(4) 0.20904(17) 0.6671(2)
O5_16 O 0.3634(2) 0.04203(11) 0.91670(12)
O6_16 O 0.44546(19) 0.03055(10) 0.89890(11)
C15_16 C 0.4156(3) 0.04609(16) 0.91778(18)
C16_16 C 0.4388(3) 0.06994(16) 0.94299(18)
C17_16 C 0.4066(3) 0.0827(2) 0.9689(2)
H9_16 H 0.3695 0.0757 0.9713
C18_16 C 0.4289(4) 0.10526(19) 0.9907(2)
C19_16 C 0.4856(4) 0.11565(17) 0.98932(18)
C20_16 C 0.5151(3) 0.10347(18) 0.9640(2)
H11_16 H 0.5523 0.1105 0.9617
C21_16 C 0.4929(3) 0.07990(17) 0.93996(17)
H12_16 H 0.5153 0.0718 0.9229
H13_16 H 0.5866 0.1398 0.9958
C6_16 C 0.0151(3) 0.60347(18) 0.9640(2)
H3_16 H 0.0523 0.6105 0.9617
H4_16 H 0.0153 0.5718 0.9229
H5_16 H 0.0866 0.6398 0.9958
H2_16 H 0.9059 0.6142 0.0071
H7_16 H 0.9794 0.6902 0.0713
C13_16 C 0.9788(4) 0.6568(3) 0.0350(2)
H8_16 H 0.9403 0.6528 0.0362
C45 C 0.0090(3) 0.30905(18) 0.06614(19)
H25 H 0.0317 0.3240 0.0779
C46 C 0.0332(3) 0.2878(2) 0.0438(2)
H26 H 0.0718 0.2886 0.0401
C50 C 0.0249(4) 0.24043(19) 0.0016(2)
C51 C 0.0814(4) 0.2305(2) 0.0042(2)
H29 H 0.1039 0.2380 0.0216
In6 In 0.1250 0.1250 0.886647(14)
O19 O 0.0615(2) 0.15631(11) 0.91165(12)
O22 O 0.1458(2) 0.16457(14) 0.93014(15)
C52 C 0.1029(4) 0.2087(2) 0.9795(2)
H30 H 0.1410 0.2032 0.9799
C53 C 0.0693(4) 0.19510(17) 0.95446(18)
C54 C 0.0161(4) 0.20586(18) 0.95346(18)
C56 C 0.0965(5) 0.17072(18) 0.93145(19)
In4 In 0.8750 0.3750 0.136647(14)
O13 O 0.7953(2) 0.39897(11) 0.11434(11)
O14 O 0.8786(2) 0.41492(12) 0.09661(13)
C29 C 0.8266(4) 0.41697(16) 0.09579(18)
C30 C 0.7975(4) 0.44099(17) 0.07183(17)
C31 C 0.7410(3) 0.44095(18) 0.06614(19)
H17 H 0.7183 0.4260 0.0779
C32 C 0.7168(3) 0.4622(2) 0.0438(2)
H18 H 0.6782 0.4614 0.0401
C33 C 0.7502(4) 0.48515(17) 0.02628(18)
C34 C 0.8083(3) 0.4848(2) 0.0311(2)
H19 H 0.8315 0.4989 0.0187
C35 C 0.8306(3) 0.4639(2) 0.0538(2)
H20 H 0.8691 0.4647 0.0577
C36 C 0.7251(4) 0.50957(19) 0.0016(2)
C37 C 0.6686(4) 0.5195(2) 0.0042(2)
H21 H 0.6461 0.5120 0.0216
O17 O 0.9547(2) 0.35103(11) 0.11434(11)
O18 O 0.8714(2) 0.33508(12) 0.09661(13)
O20 O 0.9385(2) 0.40631(11) 0.16165(12)
O21 O 0.8115(2) 0.34369(11) 0.16165(12)
O23 O 0.8542(2) 0.41457(14) 0.18014(15)
O24 O 0.8958(2) 0.33543(14) 0.18014(15)
C43 C 0.9234(4) 0.33303(16) 0.09579(18)
C44 C 0.9525(4) 0.30901(17) 0.07183(17)
C47 C 0.9998(4) 0.26485(17) 0.02628(18)
C48 C 0.9417(3) 0.2652(2) 0.0311(2)
H27 H 0.9185 0.2511 0.0187
C49 C 0.9194(3) 0.2861(2) 0.0538(2)
H28 H 0.8809 0.2853 0.0577
O15 O 0.6885(2) 0.59369(11) 0.91165(12)
O16 O 0.6042(2) 0.58543(14) 0.93014(15)
C38 C 0.6471(4) 0.5413(2) 0.9795(2)
H22 H 0.6090 0.5468 0.9799
C39 C 0.6807(4) 0.55490(17) 0.95446(18)
C40 C 0.7339(4) 0.54414(18) 0.95346(18)
H23 H 0.7566 0.5524 0.9366
C41 C 0.7578(3) 0.52174(18) 0.97533(19)
H24 H 0.7949 0.5148 0.9728
C42 C 0.6535(5) 0.57928(18) 0.93145(19)
In5 In 0.6250 0.6250 0.886647(14)
H31 H 0.9934 0.1976 0.9366
C55 C 0.9922(3) 0.22826(18) 0.97533(19)
H32 H 0.9551 0.2352 0.9728
In6_2 In 0.1250 0.6250 0.386647(14)
O19_2 O 0.0615(2) 0.65631(11) 0.41165(12)
O22_2 O 0.1458(2) 0.66457(14) 0.43014(15)
C45_2 C 0.0090(3) 0.80905(18) 0.56614(19)
H25_2 H 0.0317 0.8240 0.5779
C46_2 C 0.0332(3) 0.7878(2) 0.5438(2)
H26_2 H 0.0718 0.7886 0.5401
C50_2 C 0.0249(4) 0.74043(19) 0.5016(2)
C51_2 C 0.0814(4) 0.7305(2) 0.5042(2)
H29_2 H 0.1039 0.7380 0.5216
C52_2 C 0.1029(4) 0.7087(2) 0.4795(2)
H30_2 H 0.1410 0.7032 0.4799
C53_2 C 0.0693(4) 0.69510(17) 0.45446(18)
C54_2 C 0.0161(4) 0.70586(18) 0.45346(18)
C56_2 C 0.0965(5) 0.67072(18) 0.43145(19)
O15_2 O 0.6885(2) 0.09369(11) 0.41165(12)
O16_2 O 0.6042(2) 0.08543(14) 0.43014(15)
C36_2 C 0.7251(4) 0.00957(19) 0.5016(2)
C37_2 C 0.6686(4) 0.0195(2) 0.5042(2)
H21_2 H 0.6461 0.0120 0.5216
C38_2 C 0.6471(4) 0.0413(2) 0.4795(2)
H22_2 H 0.6090 0.0468 0.4799
C39_2 C 0.6807(4) 0.05490(17) 0.45446(18)
C40_2 C 0.7339(4) 0.04414(18) 0.45346(18)
H23_2 H 0.7566 0.0524 0.4366
C41_2 C 0.7578(3) 0.02174(18) 0.47533(19)
H24_2 H 0.7949 0.0148 0.4728
C42_2 C 0.6535(5) 0.07928(18) 0.43145(19)
In5_2 In 0.6250 0.1250 0.386647(14)
In4_2 In 0.8750 0.8750 0.636647(14)
O13_2 O 0.7953(2) 0.89897(11) 0.61434(11)
O14_2 O 0.8786(2) 0.91492(12) 0.59661(13)
C29_2 C 0.8266(4) 0.91697(16) 0.59579(18)
C30_2 C 0.7975(4) 0.94099(17) 0.57183(17)
C31_2 C 0.7410(3) 0.94095(18) 0.56614(19)
H17_2 H 0.7183 0.9260 0.5779
C32_2 C 0.7168(3) 0.9622(2) 0.5438(2)
H18_2 H 0.6782 0.9614 0.5401
C33_2 C 0.7502(4) 0.98515(17) 0.52628(18)
C34_2 C 0.8083(3) 0.9848(2) 0.5311(2)
H19_2 H 0.8315 0.9989 0.5187
C35_2 C 0.8306(3) 0.9639(2) 0.5538(2)
H20_2 H 0.8691 0.9647 0.5577
O17_2 O 0.9547(2) 0.85103(11) 0.61434(11)
O18_2 O 0.8714(2) 0.83508(12) 0.59661(13)
O20_2 O 0.9385(2) 0.90631(11) 0.66165(12)
O21_2 O 0.8115(2) 0.84369(11) 0.66165(12)
O23_2 O 0.8542(2) 0.91457(14) 0.68014(15)
O24_2 O 0.8958(2) 0.83543(14) 0.68014(15)
C43_2 C 0.9234(4) 0.83303(16) 0.59579(18)
C44_2 C 0.9525(4) 0.80901(17) 0.57183(17)
C47_2 C 0.9998(4) 0.76485(17) 0.52628(18)
C48_2 C 0.9417(3) 0.7652(2) 0.5311(2)
H27_2 H 0.9185 0.7511 0.5187
C49_2 C 0.9194(3) 0.7861(2) 0.5538(2)
H28_2 H 0.8809 0.7853 0.5577
H31_2 H 0.9934 0.6976 0.4366
C55_2 C 0.9922(3) 0.72826(18) 0.47533(19)
H32_2 H 0.9551 0.7352 0.4728
In4_3 In 0.3750 0.3750 0.636647(14)
O13_3 O 0.2953(2) 0.39897(11) 0.61434(11)
O14_3 O 0.3786(2) 0.41492(12) 0.59661(13)
O15_3 O 0.1885(2) 0.59369(11) 0.41165(12)
O16_3 O 0.1042(2) 0.58543(14) 0.43014(15)
C29_3 C 0.3266(4) 0.41697(16) 0.59579(18)
C30_3 C 0.2975(4) 0.44099(17) 0.57183(17)
C31_3 C 0.2410(3) 0.44095(18) 0.56614(19)
H17_3 H 0.2183 0.4260 0.5779
C32_3 C 0.2168(3) 0.4622(2) 0.5438(2)
H18_3 H 0.1782 0.4614 0.5401
C33_3 C 0.2502(4) 0.48515(17) 0.52628(18)
C34_3 C 0.3083(3) 0.4848(2) 0.5311(2)
H19_3 H 0.3315 0.4989 0.5187
C35_3 C 0.3306(3) 0.4639(2) 0.5538(2)
H20_3 H 0.3691 0.4647 0.5577
C36_3 C 0.2251(4) 0.50957(19) 0.5016(2)
C37_3 C 0.1686(4) 0.5195(2) 0.5042(2)
H21_3 H 0.1461 0.5120 0.5216
C38_3 C 0.1471(4) 0.5413(2) 0.4795(2)
H22_3 H 0.1090 0.5468 0.4799
C39_3 C 0.1807(4) 0.55490(17) 0.45446(18)
C40_3 C 0.2339(4) 0.54414(18) 0.45346(18)
H23_3 H 0.2566 0.5524 0.4366
C41_3 C 0.2578(3) 0.52174(18) 0.47533(19)
H24_3 H 0.2949 0.5148 0.4728
C42_3 C 0.1535(5) 0.57928(18) 0.43145(19)
O17_3 O 0.4547(2) 0.35103(11) 0.61434(11)
O18_3 O 0.3714(2) 0.33508(12) 0.59661(13)
O19_3 O 0.5615(2) 0.15631(11) 0.41165(12)
O20_3 O 0.4385(2) 0.40631(11) 0.66165(12)
O21_3 O 0.3115(2) 0.34369(11) 0.66165(12)
O22_3 O 0.6458(2) 0.16457(14) 0.43014(15)
O23_3 O 0.3542(2) 0.41457(14) 0.68014(15)
O24_3 O 0.3958(2) 0.33543(14) 0.68014(15)
C43_3 C 0.4234(4) 0.33303(16) 0.59579(18)
C44_3 C 0.4525(4) 0.30901(17) 0.57183(17)
C45_3 C 0.5090(3) 0.30905(18) 0.56614(19)
H25_3 H 0.5317 0.3240 0.5779
C46_3 C 0.5332(3) 0.2878(2) 0.5438(2)
H26_3 H 0.5718 0.2886 0.5401
C47_3 C 0.4998(4) 0.26485(17) 0.52628(18)
C48_3 C 0.4417(3) 0.2652(2) 0.5311(2)
H27_3 H 0.4185 0.2511 0.5187
C49_3 C 0.4194(3) 0.2861(2) 0.5538(2)
H28_3 H 0.3809 0.2853 0.5577
C50_3 C 0.5249(4) 0.24043(19) 0.5016(2)
C51_3 C 0.5814(4) 0.2305(2) 0.5042(2)
H29_3 H 0.6039 0.2380 0.5216
C52_3 C 0.6029(4) 0.2087(2) 0.4795(2)
H30_3 H 0.6410 0.2032 0.4799
C53_3 C 0.5693(4) 0.19510(17) 0.45446(18)
C54_3 C 0.5161(4) 0.20586(18) 0.45346(18)
H31_3 H 0.4934 0.1976 0.4366
C55_3 C 0.4922(3) 0.22826(18) 0.47533(19)
H32_3 H 0.4551 0.2352 0.4728
C56_3 C 0.5965(5) 0.17072(18) 0.43145(19)
O15_4 O 0.1885(2) 0.09369(11) 0.91165(12)
O16_4 O 0.1042(2) 0.08543(14) 0.93014(15)
C38_4 C 0.1471(4) 0.0413(2) 0.9795(2)
H22_4 H 0.1090 0.0468 0.9799
C39_4 C 0.1807(4) 0.05490(17) 0.95446(18)
C40_4 C 0.2339(4) 0.04414(18) 0.95346(18)
H23_4 H 0.2566 0.0524 0.9366
C41_4 C 0.2578(3) 0.02174(18) 0.97533(19)
H24_4 H 0.2949 0.0148 0.9728
C42_4 C 0.1535(5) 0.07928(18) 0.93145(19)
In4_4 In 0.3750 0.8750 0.136647(14)
O13_4 O 0.2953(2) 0.89897(11) 0.11434(11)
O14_4 O 0.3786(2) 0.91492(12) 0.09661(13)
C29_4 C 0.3266(4) 0.91697(16) 0.09579(18)
C30_4 C 0.2975(4) 0.94099(17) 0.07183(17)
C31_4 C 0.2410(3) 0.94095(18) 0.06614(19)
H17_4 H 0.2183 0.9260 0.0779
C32_4 C 0.2168(3) 0.9622(2) 0.0438(2)
H18_4 H 0.1782 0.9614 0.0401
C33_4 C 0.2502(4) 0.98515(17) 0.02628(18)
C34_4 C 0.3083(3) 0.9848(2) 0.0311(2)
H19_4 H 0.3315 0.9989 0.0187
C35_4 C 0.3306(3) 0.9639(2) 0.0538(2)
H20_4 H 0.3691 0.9647 0.0577
O17_4 O 0.4547(2) 0.85103(11) 0.11434(11)
O18_4 O 0.3714(2) 0.83508(12) 0.09661(13)
O20_4 O 0.4385(2) 0.90631(11) 0.16165(12)
O21_4 O 0.3115(2) 0.84369(11) 0.16165(12)
O23_4 O 0.3542(2) 0.91457(14) 0.18014(15)
O24_4 O 0.3958(2) 0.83543(14) 0.18014(15)
C43_4 C 0.4234(4) 0.83303(16) 0.09579(18)
C44_4 C 0.4525(4) 0.80901(17) 0.07183(17)
C45_4 C 0.5090(3) 0.80905(18) 0.06614(19)
H25_4 H 0.5317 0.8240 0.0779
C46_4 C 0.5332(3) 0.7878(2) 0.0438(2)
H26_4 H 0.5718 0.7886 0.0401
C47_4 C 0.4998(4) 0.76485(17) 0.02628(18)
C48_4 C 0.4417(3) 0.7652(2) 0.0311(2)
H27_4 H 0.4185 0.7511 0.0187
C49_4 C 0.4194(3) 0.7861(2) 0.0538(2)
H28_4 H 0.3809 0.7853 0.0577
C50_4 C 0.5249(4) 0.74043(19) 0.0016(2)
C51_4 C 0.5814(4) 0.7305(2) 0.0042(2)
H29_4 H 0.6039 0.7380 0.0216
O19_4 O 0.5615(2) 0.65631(11) 0.91165(12)
O22_4 O 0.6458(2) 0.66457(14) 0.93014(15)
C52_4 C 0.6029(4) 0.7087(2) 0.9795(2)
H30_4 H 0.6410 0.7032 0.9799
C53_4 C 0.5693(4) 0.69510(17) 0.95446(18)
C54_4 C 0.5161(4) 0.70586(18) 0.95346(18)
H31_4 H 0.4934 0.6976 0.9366
C55_4 C 0.4922(3) 0.72826(18) 0.97533(19)
H32_4 H 0.4551 0.7352 0.9728
C56_4 C 0.5965(5) 0.67072(18) 0.93145(19)
O13_5 O 0.0453(2) 0.60103(11) 0.36434(11)
O14_5 O 0.1286(2) 0.58508(12) 0.34661(13)
C29_5 C 0.0766(4) 0.58303(16) 0.34579(18)
C30_5 C 0.0475(4) 0.55901(17) 0.32183(17)
C33_5 C 0.0002(4) 0.51485(17) 0.27628(18)
C34_5 C 0.0583(3) 0.5152(2) 0.2811(2)
H19_5 H 0.0815 0.5011 0.2687
C35_5 C 0.0806(3) 0.5361(2) 0.3038(2)
H20_5 H 0.1191 0.5353 0.3077
H23_5 H 0.0066 0.4476 0.1866
C41_5 C 0.0078(3) 0.47826(18) 0.22533(19)
H24_5 H 0.0449 0.4852 0.2228
O17_5 O 0.2047(2) 0.64897(11) 0.36434(11)
O18_5 O 0.1214(2) 0.66492(12) 0.34661(13)
C43_5 C 0.1734(4) 0.66697(16) 0.34579(18)
C44_5 C 0.2025(4) 0.69099(17) 0.32183(17)
C45_5 C 0.2590(3) 0.69095(18) 0.31614(19)
H25_5 H 0.2817 0.6760 0.3279
C46_5 C 0.2832(3) 0.7122(2) 0.2938(2)
H26_5 H 0.3218 0.7114 0.2901
C47_5 C 0.2498(4) 0.73515(17) 0.27628(18)
C48_5 C 0.1917(3) 0.7348(2) 0.2811(2)
H27_5 H 0.1685 0.7489 0.2687
C49_5 C 0.1694(3) 0.7139(2) 0.3038(2)
H28_5 H 0.1309 0.7147 0.3077
C50_5 C 0.2749(4) 0.75957(19) 0.2516(2)
C51_5 C 0.3314(4) 0.7695(2) 0.2542(2)
H29_5 H 0.3539 0.7620 0.2716
C52_5 C 0.3529(4) 0.7913(2) 0.2295(2)
H30_5 H 0.3910 0.7968 0.2299
C53_5 C 0.3193(4) 0.80490(17) 0.20446(18)
C54_5 C 0.2661(4) 0.79414(18) 0.20346(18)
H31_5 H 0.2434 0.8024 0.1866
C55_5 C 0.2422(3) 0.77174(18) 0.22533(19)
H32_5 H 0.2051 0.7648 0.2228
C56_5 C 0.3465(5) 0.82928(18) 0.18145(19)
C31_5 C 0.9910(3) 0.55905(18) 0.31614(19)
H17_5 H 0.9683 0.5740 0.3279
C32_5 C 0.9668(3) 0.5378(2) 0.2938(2)
H18_5 H 0.9282 0.5386 0.2901
C36_4 C 0.9751(4) 0.49043(19) 0.2516(2)
C37_4 C 0.9186(4) 0.4805(2) 0.2542(2)
H21_4 H 0.8961 0.4880 0.2716
C38_5 C 0.8971(4) 0.4587(2) 0.2295(2)
H22_5 H 0.8590 0.4532 0.2299
C39_5 C 0.9307(4) 0.44510(17) 0.20446(18)
C40_5 C 0.9839(4) 0.45586(18) 0.20346(18)
C42_5 C 0.9035(5) 0.42072(18) 0.18145(19)
O13_6 O 0.0453(2) 0.10103(11) 0.86434(11)
O14_6 O 0.1286(2) 0.08508(12) 0.84661(13)
C29_6 C 0.0766(4) 0.08303(16) 0.84579(18)
C30_6 C 0.0475(4) 0.05901(17) 0.82183(17)
C33_6 C 0.0002(4) 0.01485(17) 0.77628(18)
C34_6 C 0.0583(3) 0.0152(2) 0.7811(2)
H19_6 H 0.0815 0.0011 0.7687
C35_6 C 0.0806(3) 0.0361(2) 0.8038(2)
H20_6 H 0.1191 0.0353 0.8077
O17_6 O 0.2047(2) 0.14897(11) 0.86434(11)
O18_6 O 0.1214(2) 0.16492(12) 0.84661(13)
C43_6 C 0.1734(4) 0.16697(16) 0.84579(18)
C44_6 C 0.2025(4) 0.19099(17) 0.82183(17)
C45_6 C 0.2590(3) 0.19095(18) 0.81614(19)
H25_6 H 0.2817 0.1760 0.8279
C46_6 C 0.2832(3) 0.2122(2) 0.7938(2)
H26_6 H 0.3218 0.2114 0.7901
C47_6 C 0.2498(4) 0.23515(17) 0.77628(18)
C48_6 C 0.1917(3) 0.2348(2) 0.7811(2)
H27_6 H 0.1685 0.2489 0.7687
C49_6 C 0.1694(3) 0.2139(2) 0.8038(2)
H28_6 H 0.1309 0.2147 0.8077
C50_6 C 0.2749(4) 0.25957(19) 0.7516(2)
C51_6 C 0.3314(4) 0.2695(2) 0.7542(2)
H29_6 H 0.3539 0.2620 0.7716
C52_6 C 0.3529(4) 0.2913(2) 0.7295(2)
H30_6 H 0.3910 0.2968 0.7299
C53_6 C 0.3193(4) 0.30490(17) 0.70446(18)
C54_6 C 0.2661(4) 0.29414(18) 0.70346(18)
H31_6 H 0.2434 0.3024 0.6866
C55_6 C 0.2422(3) 0.27174(18) 0.72533(19)
H32_6 H 0.2051 0.2648 0.7228
C56_6 C 0.3465(5) 0.32928(18) 0.68145(19)
C36_5 C 0.9751(4) 0.99043(19) 0.7516(2)
C37_5 C 0.9186(4) 0.9805(2) 0.7542(2)
H21_5 H 0.8961 0.9880 0.7716
C38_6 C 0.8971(4) 0.9587(2) 0.7295(2)
H22_6 H 0.8590 0.9532 0.7299
C39_6 C 0.9307(4) 0.94510(17) 0.70446(18)
C40_6 C 0.9839(4) 0.95586(18) 0.70346(18)
C42_6 C 0.9035(5) 0.92072(18) 0.68145(19)
O13_7 O 0.5453(2) 0.60103(11) 0.86434(11)
O14_7 O 0.6286(2) 0.58508(12) 0.84661(13)
C29_7 C 0.5766(4) 0.58303(16) 0.84579(18)
C30_7 C 0.5475(4) 0.55901(17) 0.82183(17)
C31_6 C 0.4910(3) 0.55905(18) 0.81614(19)
H17_6 H 0.4683 0.5740 0.8279
C32_6 C 0.4668(3) 0.5378(2) 0.7938(2)
H18_6 H 0.4282 0.5386 0.7901
C33_7 C 0.5002(4) 0.51485(17) 0.77628(18)
C34_7 C 0.5583(3) 0.5152(2) 0.7811(2)
H19_7 H 0.5815 0.5011 0.7687
C35_7 C 0.5806(3) 0.5361(2) 0.8038(2)
H20_7 H 0.6191 0.5353 0.8077
C36_6 C 0.4751(4) 0.49043(19) 0.7516(2)
C37_6 C 0.4186(4) 0.4805(2) 0.7542(2)
H21_6 H 0.3961 0.4880 0.7716
C38_7 C 0.3971(4) 0.4587(2) 0.7295(2)
H22_7 H 0.3590 0.4532 0.7299
C39_7 C 0.4307(4) 0.44510(17) 0.70446(18)
C40_7 C 0.4839(4) 0.45586(18) 0.70346(18)
H23_6 H 0.5066 0.4476 0.6866
C41_6 C 0.5078(3) 0.47826(18) 0.72533(19)
H24_6 H 0.5449 0.4852 0.7228
C42_7 C 0.4035(5) 0.42072(18) 0.68145(19)
O17_7 O 0.7047(2) 0.64897(11) 0.86434(11)
O18_7 O 0.6214(2) 0.66492(12) 0.84661(13)
C43_7 C 0.6734(4) 0.66697(16) 0.84579(18)
C44_7 C 0.7025(4) 0.69099(17) 0.82183(17)
C45_7 C 0.7590(3) 0.69095(18) 0.81614(19)
H25_7 H 0.7817 0.6760 0.8279
C46_7 C 0.7832(3) 0.7122(2) 0.7938(2)
H26_7 H 0.8218 0.7114 0.7901
C47_7 C 0.7498(4) 0.73515(17) 0.77628(18)
C48_7 C 0.6917(3) 0.7348(2) 0.7811(2)
H27_7 H 0.6685 0.7489 0.7687
C49_7 C 0.6694(3) 0.7139(2) 0.8038(2)
H28_7 H 0.6309 0.7147 0.8077
C50_7 C 0.7749(4) 0.75957(19) 0.7516(2)
C51_7 C 0.8314(4) 0.7695(2) 0.7542(2)
H29_7 H 0.8539 0.7620 0.7716
C52_7 C 0.8529(4) 0.7913(2) 0.7295(2)
H30_7 H 0.8910 0.7968 0.7299
C53_7 C 0.8193(4) 0.80490(17) 0.70446(18)
C54_7 C 0.7661(4) 0.79414(18) 0.70346(18)
H31_7 H 0.7434 0.8024 0.6866
C55_7 C 0.7422(3) 0.77174(18) 0.72533(19)
H32_7 H 0.7051 0.7648 0.7228
C56_7 C 0.8465(5) 0.82928(18) 0.68145(19)
O13_8 O 0.5453(2) 0.10103(11) 0.36434(11)
O14_8 O 0.6286(2) 0.08508(12) 0.34661(13)
C29_8 C 0.5766(4) 0.08303(16) 0.34579(18)
C30_8 C 0.5475(4) 0.05901(17) 0.32183(17)
C31_7 C 0.4910(3) 0.05905(18) 0.31614(19)
H17_7 H 0.4683 0.0740 0.3279
C32_7 C 0.4668(3) 0.0378(2) 0.2938(2)
H18_7 H 0.4282 0.0386 0.2901
C33_8 C 0.5002(4) 0.01485(17) 0.27628(18)
C34_8 C 0.5583(3) 0.0152(2) 0.2811(2)
H19_8 H 0.5815 0.0011 0.2687
C35_8 C 0.5806(3) 0.0361(2) 0.3038(2)
H20_8 H 0.6191 0.0353 0.3077
O17_8 O 0.7047(2) 0.14897(11) 0.36434(11)
O18_8 O 0.6214(2) 0.16492(12) 0.34661(13)
C43_8 C 0.6734(4) 0.16697(16) 0.34579(18)
C44_8 C 0.7025(4) 0.19099(17) 0.32183(17)
C45_8 C 0.7590(3) 0.19095(18) 0.31614(19)
H25_8 H 0.7817 0.1760 0.3279
C46_8 C 0.7832(3) 0.2122(2) 0.2938(2)
H26_8 H 0.8218 0.2114 0.2901
C47_8 C 0.7498(4) 0.23515(17) 0.27628(18)
C48_8 C 0.6917(3) 0.2348(2) 0.2811(2)
H27_8 H 0.6685 0.2489 0.2687
C49_8 C 0.6694(3) 0.2139(2) 0.3038(2)
H28_8 H 0.6309 0.2147 0.3077
C50_8 C 0.7749(4) 0.25957(19) 0.2516(2)
C51_8 C 0.8314(4) 0.2695(2) 0.2542(2)
H29_8 H 0.8539 0.2620 0.2716
C52_8 C 0.8529(4) 0.2913(2) 0.2295(2)
H30_8 H 0.8910 0.2968 0.2299
C53_8 C 0.8193(4) 0.30490(17) 0.20446(18)
C54_8 C 0.7661(4) 0.29414(18) 0.20346(18)
H31_8 H 0.7434 0.3024 0.1866
C55_8 C 0.7422(3) 0.27174(18) 0.22533(19)
H32_8 H 0.7051 0.2648 0.2228
C56_8 C 0.8465(5) 0.32928(18) 0.18145(19)
C36_7 C 0.4751(4) 0.99043(19) 0.2516(2)
C37_7 C 0.4186(4) 0.9805(2) 0.2542(2)
H21_7 H 0.3961 0.9880 0.2716
C38_8 C 0.3971(4) 0.9587(2) 0.2295(2)
H22_8 H 0.3590 0.9532 0.2299
C39_8 C 0.4307(4) 0.94510(17) 0.20446(18)
C40_8 C 0.4839(4) 0.95586(18) 0.20346(18)
H23_7 H 0.5066 0.9476 0.1866
C41_7 C 0.5078(3) 0.97826(18) 0.22533(19)
H24_7 H 0.5449 0.9852 0.2228
C42_8 C 0.4035(5) 0.92072(18) 0.18145(19)
O15_5 O 0.0615(2) 0.59369(11) 0.83835(12)
O16_5 O 0.1458(2) 0.58543(14) 0.81986(15)
C31_8 C 0.0090(3) 0.44095(18) 0.68386(19)
H17_8 H 0.0317 0.4260 0.6721
C32_8 C 0.0332(3) 0.4622(2) 0.7062(2)
H18_8 H 0.0718 0.4614 0.7099
C36_8 C 0.0249(4) 0.50957(19) 0.7484(2)
C37_8 C 0.0814(4) 0.5195(2) 0.7458(2)
H21_8 H 0.1039 0.5120 0.7284
C38_9 C 0.1029(4) 0.5413(2) 0.7705(2)
H22_9 H 0.1410 0.5468 0.7701
C39_9 C 0.0693(4) 0.55490(17) 0.79554(18)
C40_9 C 0.0161(4) 0.54414(18) 0.79654(18)
C42_9 C 0.0965(5) 0.57928(18) 0.81855(19)
In5_3 In 0.1250 0.6250 0.863353(14)
In4_5 In 0.8750 0.3750 0.613353(14)
O13_9 O 0.9547(2) 0.39897(11) 0.63566(11)
O14_9 O 0.8714(2) 0.41492(12) 0.65339(13)
C29_9 C 0.9234(4) 0.41697(16) 0.65421(18)
C30_9 C 0.9525(4) 0.44099(17) 0.67817(17)
C33_9 C 0.9998(4) 0.48515(17) 0.72372(18)
C34_9 C 0.9417(3) 0.4848(2) 0.7189(2)
H19_9 H 0.9185 0.4989 0.7313
C35_9 C 0.9194(3) 0.4639(2) 0.6962(2)
H20_9 H 0.8809 0.4647 0.6923
H23_8 H 0.9934 0.5524 0.8134
C41_8 C 0.9922(3) 0.52174(18) 0.77467(19)
H24_8 H 0.9551 0.5148 0.7772
In6_3 In 0.6250 0.1250 0.863353(14)
O17_9 O 0.7953(2) 0.35103(11) 0.63566(11)
O18_9 O 0.8786(2) 0.33508(12) 0.65339(13)
O19_5 O 0.6885(2) 0.15631(11) 0.83835(12)
O20_5 O 0.8115(2) 0.40631(11) 0.58835(12)
O21_5 O 0.9385(2) 0.34369(11) 0.58835(12)
O22_5 O 0.6042(2) 0.16457(14) 0.81986(15)
O23_5 O 0.8958(2) 0.41457(14) 0.56986(15)
O24_5 O 0.8542(2) 0.33543(14) 0.56986(15)
C43_9 C 0.8266(4) 0.33303(16) 0.65421(18)
C44_9 C 0.7975(4) 0.30901(17) 0.67817(17)
C45_9 C 0.7410(3) 0.30905(18) 0.68386(19)
H25_9 H 0.7183 0.3240 0.6721
C46_9 C 0.7168(3) 0.2878(2) 0.7062(2)
H26_9 H 0.6782 0.2886 0.7099
C47_9 C 0.7502(4) 0.26485(17) 0.72372(18)
C48_9 C 0.8083(3) 0.2652(2) 0.7189(2)
H27_9 H 0.8315 0.2511 0.7313
C49_9 C 0.8306(3) 0.2861(2) 0.6962(2)
H28_9 H 0.8691 0.2853 0.6923
C50_9 C 0.7251(4) 0.24043(19) 0.7484(2)
C51_9 C 0.6686(4) 0.2305(2) 0.7458(2)
H29_9 H 0.6461 0.2380 0.7284
C52_9 C 0.6471(4) 0.2087(2) 0.7705(2)
H30_9 H 0.6090 0.2032 0.7701
C53_9 C 0.6807(4) 0.19510(17) 0.79554(18)
C54_9 C 0.7339(4) 0.20586(18) 0.79654(18)
H31_9 H 0.7566 0.1976 0.8134
C55_9 C 0.7578(3) 0.22826(18) 0.77467(19)
H32_9 H 0.7949 0.2352 0.7772
C56_9 C 0.6535(5) 0.17072(18) 0.81855(19)
O15_6 O 0.0615(2) 0.09369(11) 0.33835(12)
O16_6 O 0.1458(2) 0.08543(14) 0.31986(15)
C36_9 C 0.0249(4) 0.00957(19) 0.2484(2)
C37_9 C 0.0814(4) 0.0195(2) 0.2458(2)
H21_9 H 0.1039 0.0120 0.2284
C38_10 C 0.1029(4) 0.0413(2) 0.2705(2)
H22_10 H 0.1410 0.0468 0.2701
C39_10 C 0.0693(4) 0.05490(17) 0.29554(18)
C40_10 C 0.0161(4) 0.04414(18) 0.29654(18)
C42_10 C 0.0965(5) 0.07928(18) 0.31855(19)
In5_4 In 0.1250 0.1250 0.363353(14)
In4_6 In 0.8750 0.8750 0.113353(14)
O13_10 O 0.9547(2) 0.89897(11) 0.13566(11)
O14_10 O 0.8714(2) 0.91492(12) 0.15339(13)
C29_10 C 0.9234(4) 0.91697(16) 0.15421(18)
C30_10 C 0.9525(4) 0.94099(17) 0.17817(17)
C33_10 C 0.9998(4) 0.98515(17) 0.22372(18)
C34_10 C 0.9417(3) 0.9848(2) 0.2189(2)
H19_10 H 0.9185 0.9989 0.2313
C35_10 C 0.9194(3) 0.9639(2) 0.1962(2)
H20_10 H 0.8809 0.9647 0.1923
In6_4 In 0.6250 0.6250 0.363353(14)
O17_10 O 0.7953(2) 0.85103(11) 0.13566(11)
O18_10 O 0.8786(2) 0.83508(12) 0.15339(13)
O19_6 O 0.6885(2) 0.65631(11) 0.33835(12)
O20_6 O 0.8115(2) 0.90631(11) 0.08835(12)
O21_6 O 0.9385(2) 0.84369(11) 0.08835(12)
O22_6 O 0.6042(2) 0.66457(14) 0.31986(15)
O23_6 O 0.8958(2) 0.91457(14) 0.06986(15)
O24_6 O 0.8542(2) 0.83543(14) 0.06986(15)
C43_10 C 0.8266(4) 0.83303(16) 0.15421(18)
C44_10 C 0.7975(4) 0.80901(17) 0.17817(17)
C45_10 C 0.7410(3) 0.80905(18) 0.18386(19)
H25_10 H 0.7183 0.8240 0.1721
C46_10 C 0.7168(3) 0.7878(2) 0.2062(2)
H26_10 H 0.6782 0.7886 0.2099
C47_10 C 0.7502(4) 0.76485(17) 0.22372(18)
C48_10 C 0.8083(3) 0.7652(2) 0.2189(2)
H27_10 H 0.8315 0.7511 0.2313
C49_10 C 0.8306(3) 0.7861(2) 0.1962(2)
H28_10 H 0.8691 0.7853 0.1923
C50_10 C 0.7251(4) 0.74043(19) 0.2484(2)
C51_10 C 0.6686(4) 0.7305(2) 0.2458(2)
H29_10 H 0.6461 0.7380 0.2284
C52_10 C 0.6471(4) 0.7087(2) 0.2705(2)
H30_10 H 0.6090 0.7032 0.2701
C53_10 C 0.6807(4) 0.69510(17) 0.29554(18)
C54_10 C 0.7339(4) 0.70586(18) 0.29654(18)
H31_10 H 0.7566 0.6976 0.3134
C55_10 C 0.7578(3) 0.72826(18) 0.27467(19)
H32_10 H 0.7949 0.7352 0.2772
C56_10 C 0.6535(5) 0.67072(18) 0.31855(19)
In4_7 In 0.3750 0.3750 0.113353(14)
O13_11 O 0.4547(2) 0.39897(11) 0.13566(11)
O14_11 O 0.3714(2) 0.41492(12) 0.15339(13)
O15_7 O 0.5615(2) 0.59369(11) 0.33835(12)
O16_7 O 0.6458(2) 0.58543(14) 0.31986(15)
C29_11 C 0.4234(4) 0.41697(16) 0.15421(18)
C30_11 C 0.4525(4) 0.44099(17) 0.17817(17)
C31_9 C 0.5090(3) 0.44095(18) 0.18386(19)
H17_9 H 0.5317 0.4260 0.1721
C32_9 C 0.5332(3) 0.4622(2) 0.2062(2)
H18_9 H 0.5718 0.4614 0.2099
C33_11 C 0.4998(4) 0.48515(17) 0.22372(18)
C34_11 C 0.4417(3) 0.4848(2) 0.2189(2)
H19_11 H 0.4185 0.4989 0.2313
C35_11 C 0.4194(3) 0.4639(2) 0.1962(2)
H20_11 H 0.3809 0.4647 0.1923
C36_10 C 0.5249(4) 0.50957(19) 0.2484(2)
C37_10 C 0.5814(4) 0.5195(2) 0.2458(2)
H21_10 H 0.6039 0.5120 0.2284
C38_11 C 0.6029(4) 0.5413(2) 0.2705(2)
H22_11 H 0.6410 0.5468 0.2701
C39_11 C 0.5693(4) 0.55490(17) 0.29554(18)
C40_11 C 0.5161(4) 0.54414(18) 0.29654(18)
H23_9 H 0.4934 0.5524 0.3134
C41_9 C 0.4922(3) 0.52174(18) 0.27467(19)
H24_9 H 0.4551 0.5148 0.2772
C42_11 C 0.5965(5) 0.57928(18) 0.31855(19)
O17_11 O 0.2953(2) 0.35103(11) 0.13566(11)
O18_11 O 0.3786(2) 0.33508(12) 0.15339(13)
O19_7 O 0.1885(2) 0.15631(11) 0.33835(12)
O20_7 O 0.3115(2) 0.40631(11) 0.08835(12)
O21_7 O 0.4385(2) 0.34369(11) 0.08835(12)
O22_7 O 0.1042(2) 0.16457(14) 0.31986(15)
O23_7 O 0.3958(2) 0.41457(14) 0.06986(15)
O24_7 O 0.3542(2) 0.33543(14) 0.06986(15)
C43_11 C 0.3266(4) 0.33303(16) 0.15421(18)
C44_11 C 0.2975(4) 0.30901(17) 0.17817(17)
C45_11 C 0.2410(3) 0.30905(18) 0.18386(19)
H25_11 H 0.2183 0.3240 0.1721
C46_11 C 0.2168(3) 0.2878(2) 0.2062(2)
H26_11 H 0.1782 0.2886 0.2099
C47_11 C 0.2502(4) 0.26485(17) 0.22372(18)
C48_11 C 0.3083(3) 0.2652(2) 0.2189(2)
H27_11 H 0.3315 0.2511 0.2313
C49_11 C 0.3306(3) 0.2861(2) 0.1962(2)
H28_11 H 0.3691 0.2853 0.1923
C50_11 C 0.2251(4) 0.24043(19) 0.2484(2)
C51_11 C 0.1686(4) 0.2305(2) 0.2458(2)
H29_11 H 0.1461 0.2380 0.2284
C52_11 C 0.1471(4) 0.2087(2) 0.2705(2)
H30_11 H 0.1090 0.2032 0.2701
C53_11 C 0.1807(4) 0.19510(17) 0.29554(18)
C54_11 C 0.2339(4) 0.20586(18) 0.29654(18)
H31_11 H 0.2566 0.1976 0.3134
C55_11 C 0.2578(3) 0.22826(18) 0.27467(19)
H32_11 H 0.2949 0.2352 0.2772
C56_11 C 0.1535(5) 0.17072(18) 0.31855(19)
O15_8 O 0.5615(2) 0.09369(11) 0.83835(12)
O16_8 O 0.6458(2) 0.08543(14) 0.81986(15)
C36_11 C 0.5249(4) 0.00957(19) 0.7484(2)
C37_11 C 0.5814(4) 0.0195(2) 0.7458(2)
H21_11 H 0.6039 0.0120 0.7284
C38_12 C 0.6029(4) 0.0413(2) 0.7705(2)
H22_12 H 0.6410 0.0468 0.7701
C39_12 C 0.5693(4) 0.05490(17) 0.79554(18)
C40_12 C 0.5161(4) 0.04414(18) 0.79654(18)
H23_10 H 0.4934 0.0524 0.8134
C41_10 C 0.4922(3) 0.02174(18) 0.77467(19)
H24_10 H 0.4551 0.0148 0.7772
C42_12 C 0.5965(5) 0.07928(18) 0.81855(19)
In4_8 In 0.3750 0.8750 0.613353(14)
O13_12 O 0.4547(2) 0.89897(11) 0.63566(11)
O14_12 O 0.3714(2) 0.91492(12) 0.65339(13)
C29_12 C 0.4234(4) 0.91697(16) 0.65421(18)
C30_12 C 0.4525(4) 0.94099(17) 0.67817(17)
C31_10 C 0.5090(3) 0.94095(18) 0.68386(19)
H17_10 H 0.5317 0.9260 0.6721
C32_10 C 0.5332(3) 0.9622(2) 0.7062(2)
H18_10 H 0.5718 0.9614 0.7099
C33_12 C 0.4998(4) 0.98515(17) 0.72372(18)
C34_12 C 0.4417(3) 0.9848(2) 0.7189(2)
H19_12 H 0.4185 0.9989 0.7313
C35_12 C 0.4194(3) 0.9639(2) 0.6962(2)
H20_12 H 0.3809 0.9647 0.6923
O17_12 O 0.2953(2) 0.85103(11) 0.63566(11)
O18_12 O 0.3786(2) 0.83508(12) 0.65339(13)
O19_8 O 0.1885(2) 0.65631(11) 0.83835(12)
O20_8 O 0.3115(2) 0.90631(11) 0.58835(12)
O21_8 O 0.4385(2) 0.84369(11) 0.58835(12)
O22_8 O 0.1042(2) 0.66457(14) 0.81986(15)
O23_8 O 0.3958(2) 0.91457(14) 0.56986(15)
O24_8 O 0.3542(2) 0.83543(14) 0.56986(15)
C43_12 C 0.3266(4) 0.83303(16) 0.65421(18)
C44_12 C 0.2975(4) 0.80901(17) 0.67817(17)
C45_12 C 0.2410(3) 0.80905(18) 0.68386(19)
H25_12 H 0.2183 0.8240 0.6721
C46_12 C 0.2168(3) 0.7878(2) 0.7062(2)
H26_12 H 0.1782 0.7886 0.7099
C47_12 C 0.2502(4) 0.76485(17) 0.72372(18)
C48_12 C 0.3083(3) 0.7652(2) 0.7189(2)
H27_12 H 0.3315 0.7511 0.7313
C49_12 C 0.3306(3) 0.7861(2) 0.6962(2)
H28_12 H 0.3691 0.7853 0.6923
C50_12 C 0.2251(4) 0.74043(19) 0.7484(2)
C51_12 C 0.1686(4) 0.7305(2) 0.7458(2)
H29_12 H 0.1461 0.7380 0.7284
C52_12 C 0.1471(4) 0.7087(2) 0.7705(2)
H30_12 H 0.1090 0.7032 0.7701
C53_12 C 0.1807(4) 0.69510(17) 0.79554(18)
C54_12 C 0.2339(4) 0.70586(18) 0.79654(18)
H31_12 H 0.2566 0.6976 0.8134
C55_12 C 0.2578(3) 0.72826(18) 0.77467(19)
H32_12 H 0.2949 0.7352 0.7772
C56_12 C 0.1535(5) 0.67072(18) 0.81855(19)
C38_13 C 0.3529(4) 0.4587(2) 0.0205(2)
H22_13 H 0.3910 0.4532 0.0201
C39_13 C 0.3193(4) 0.44510(17) 0.04554(18)
C40_13 C 0.2661(4) 0.45586(18) 0.04654(18)
H23_11 H 0.2434 0.4476 0.0634
C41_11 C 0.2422(3) 0.47826(18) 0.02467(19)
H24_11 H 0.2051 0.4852 0.0272
C42_13 C 0.3465(5) 0.42072(18) 0.06855(19)
H31_13 H 0.0066 0.8024 0.0634
C55_13 C 0.0078(3) 0.77174(18) 0.02467(19)
H32_13 H 0.0449 0.7648 0.0272
O13_13 O 0.2047(2) 0.60103(11) 0.88566(11)
O14_13 O 0.1214(2) 0.58508(12) 0.90339(13)
C29_13 C 0.1734(4) 0.58303(16) 0.90421(18)
C30_13 C 0.2025(4) 0.55901(17) 0.92817(17)
C31_11 C 0.2590(3) 0.55905(18) 0.93386(19)
H17_11 H 0.2817 0.5740 0.9221
C32_11 C 0.2832(3) 0.5378(2) 0.9562(2)
H18_11 H 0.3218 0.5386 0.9599
C33_13 C 0.2498(4) 0.51485(17) 0.97372(18)
C34_13 C 0.1917(3) 0.5152(2) 0.9689(2)
H19_13 H 0.1685 0.5011 0.9813
C35_13 C 0.1694(3) 0.5361(2) 0.9462(2)
H20_13 H 0.1309 0.5353 0.9423
C36_12 C 0.2749(4) 0.49043(19) 0.9984(2)
C37_12 C 0.3314(4) 0.4805(2) 0.9958(2)
H21_12 H 0.3539 0.4880 0.9784
O17_13 O 0.0453(2) 0.64897(11) 0.88566(11)
O18_13 O 0.1286(2) 0.66492(12) 0.90339(13)
C43_13 C 0.0766(4) 0.66697(16) 0.90421(18)
C44_13 C 0.0475(4) 0.69099(17) 0.92817(17)
C47_13 C 0.0002(4) 0.73515(17) 0.97372(18)
C48_13 C 0.0583(3) 0.7348(2) 0.9689(2)
H27_13 H 0.0815 0.7489 0.9813
C49_13 C 0.0806(3) 0.7139(2) 0.9462(2)
H28_13 H 0.1191 0.7147 0.9423
C52_13 C 0.8971(4) 0.7913(2) 0.0205(2)
H30_13 H 0.8590 0.7968 0.0201
C53_13 C 0.9307(4) 0.80490(17) 0.04554(18)
C54_13 C 0.9839(4) 0.79414(18) 0.04654(18)
C56_13 C 0.9035(5) 0.82928(18) 0.06855(19)
O13_14 O 0.2047(2) 0.10103(11) 0.38566(11)
O14_14 O 0.1214(2) 0.08508(12) 0.40339(13)
C29_14 C 0.1734(4) 0.08303(16) 0.40421(18)
C30_14 C 0.2025(4) 0.05901(17) 0.42817(17)
C31_12 C 0.2590(3) 0.05905(18) 0.43386(19)
H17_12 H 0.2817 0.0740 0.4221
C32_12 C 0.2832(3) 0.0378(2) 0.4562(2)
H18_12 H 0.3218 0.0386 0.4599
C33_14 C 0.2498(4) 0.01485(17) 0.47372(18)
C34_14 C 0.1917(3) 0.0152(2) 0.4689(2)
H19_14 H 0.1685 0.0011 0.4813
C35_14 C 0.1694(3) 0.0361(2) 0.4462(2)
H20_14 H 0.1309 0.0353 0.4423
O17_14 O 0.0453(2) 0.14897(11) 0.38566(11)
O18_14 O 0.1286(2) 0.16492(12) 0.40339(13)
C43_14 C 0.0766(4) 0.16697(16) 0.40421(18)
C44_14 C 0.0475(4) 0.19099(17) 0.42817(17)
C47_14 C 0.0002(4) 0.23515(17) 0.47372(18)
C48_14 C 0.0583(3) 0.2348(2) 0.4689(2)
H27_14 H 0.0815 0.2489 0.4813
C49_14 C 0.0806(3) 0.2139(2) 0.4462(2)
H28_14 H 0.1191 0.2147 0.4423
H31_14 H 0.0066 0.3024 0.5634
C55_14 C 0.0078(3) 0.27174(18) 0.52467(19)
H32_14 H 0.0449 0.2648 0.5272
C36_13 C 0.2749(4) 0.99043(19) 0.4984(2)
C37_13 C 0.3314(4) 0.9805(2) 0.4958(2)
H21_13 H 0.3539 0.9880 0.4784
C38_14 C 0.3529(4) 0.9587(2) 0.5205(2)
H22_14 H 0.3910 0.9532 0.5201
C39_14 C 0.3193(4) 0.94510(17) 0.54554(18)
C40_14 C 0.2661(4) 0.95586(18) 0.54654(18)
H23_12 H 0.2434 0.9476 0.5634
C41_12 C 0.2422(3) 0.97826(18) 0.52467(19)
H24_12 H 0.2051 0.9852 0.5272
C42_14 C 0.3465(5) 0.92072(18) 0.56855(19)
C45_13 C 0.9910(3) 0.19095(18) 0.43386(19)
H25_13 H 0.9683 0.1760 0.4221
C46_13 C 0.9668(3) 0.2122(2) 0.4562(2)
H26_13 H 0.9282 0.2114 0.4599
C50_13 C 0.9751(4) 0.25957(19) 0.4984(2)
C51_13 C 0.9186(4) 0.2695(2) 0.4958(2)
H29_13 H 0.8961 0.2620 0.4784
C52_14 C 0.8971(4) 0.2913(2) 0.5205(2)
H30_14 H 0.8590 0.2968 0.5201
C53_14 C 0.9307(4) 0.30490(17) 0.54554(18)
C54_14 C 0.9839(4) 0.29414(18) 0.54654(18)
C56_14 C 0.9035(5) 0.32928(18) 0.56855(19)
O13_15 O 0.7047(2) 0.60103(11) 0.38566(11)
O14_15 O 0.6214(2) 0.58508(12) 0.40339(13)
C29_15 C 0.6734(4) 0.58303(16) 0.40421(18)
C30_15 C 0.7025(4) 0.55901(17) 0.42817(17)
C31_13 C 0.7590(3) 0.55905(18) 0.43386(19)
H17_13 H 0.7817 0.5740 0.4221
C32_13 C 0.7832(3) 0.5378(2) 0.4562(2)
H18_13 H 0.8218 0.5386 0.4599
C33_15 C 0.7498(4) 0.51485(17) 0.47372(18)
C34_15 C 0.6917(3) 0.5152(2) 0.4689(2)
H19_15 H 0.6685 0.5011 0.4813
C35_15 C 0.6694(3) 0.5361(2) 0.4462(2)
H20_15 H 0.6309 0.5353 0.4423
C36_14 C 0.7749(4) 0.49043(19) 0.4984(2)
C37_14 C 0.8314(4) 0.4805(2) 0.4958(2)
H21_14 H 0.8539 0.4880 0.4784
C38_15 C 0.8529(4) 0.4587(2) 0.5205(2)
H22_15 H 0.8910 0.4532 0.5201
C39_15 C 0.8193(4) 0.44510(17) 0.54554(18)
C40_15 C 0.7661(4) 0.45586(18) 0.54654(18)
H23_13 H 0.7434 0.4476 0.5634
C41_13 C 0.7422(3) 0.47826(18) 0.52467(19)
H24_13 H 0.7051 0.4852 0.5272
C42_15 C 0.8465(5) 0.42072(18) 0.56855(19)
O17_15 O 0.5453(2) 0.64897(11) 0.38566(11)
O18_15 O 0.6286(2) 0.66492(12) 0.40339(13)
C43_15 C 0.5766(4) 0.66697(16) 0.40421(18)
C44_15 C 0.5475(4) 0.69099(17) 0.42817(17)
C45_14 C 0.4910(3) 0.69095(18) 0.43386(19)
H25_14 H 0.4683 0.6760 0.4221
C46_14 C 0.4668(3) 0.7122(2) 0.4562(2)
H26_14 H 0.4282 0.7114 0.4599
C47_15 C 0.5002(4) 0.73515(17) 0.47372(18)
C48_15 C 0.5583(3) 0.7348(2) 0.4689(2)
H27_15 H 0.5815 0.7489 0.4813
C49_15 C 0.5806(3) 0.7139(2) 0.4462(2)
H28_15 H 0.6191 0.7147 0.4423
C50_14 C 0.4751(4) 0.75957(19) 0.4984(2)
C51_14 C 0.4186(4) 0.7695(2) 0.4958(2)
H29_14 H 0.3961 0.7620 0.4784
C52_15 C 0.3971(4) 0.7913(2) 0.5205(2)
H30_15 H 0.3590 0.7968 0.5201
C53_15 C 0.4307(4) 0.80490(17) 0.54554(18)
C54_15 C 0.4839(4) 0.79414(18) 0.54654(18)
H31_15 H 0.5066 0.8024 0.5634
C55_15 C 0.5078(3) 0.77174(18) 0.52467(19)
H32_15 H 0.5449 0.7648 0.5272
C56_15 C 0.4035(5) 0.82928(18) 0.56855(19)
C52_16 C 0.3971(4) 0.2913(2) 0.0205(2)
H30_16 H 0.3590 0.2968 0.0201
C53_16 C 0.4307(4) 0.30490(17) 0.04554(18)
C54_16 C 0.4839(4) 0.29414(18) 0.04654(18)
H31_16 H 0.5066 0.3024 0.0634
C55_16 C 0.5078(3) 0.27174(18) 0.02467(19)
H32_16 H 0.5449 0.2648 0.0272
C56_16 C 0.4035(5) 0.32928(18) 0.06855(19)
O13_16 O 0.7047(2) 0.10103(11) 0.88566(11)
O14_16 O 0.6214(2) 0.08508(12) 0.90339(13)
C29_16 C 0.6734(4) 0.08303(16) 0.90421(18)
C30_16 C 0.7025(4) 0.05901(17) 0.92817(17)
C31_14 C 0.7590(3) 0.05905(18) 0.93386(19)
H17_14 H 0.7817 0.0740 0.9221
C32_14 C 0.7832(3) 0.0378(2) 0.9562(2)
H18_14 H 0.8218 0.0386 0.9599
C33_16 C 0.7498(4) 0.01485(17) 0.97372(18)
C34_16 C 0.6917(3) 0.0152(2) 0.9689(2)
H19_16 H 0.6685 0.0011 0.9813
C35_16 C 0.6694(3) 0.0361(2) 0.9462(2)
H20_16 H 0.6309 0.0353 0.9423
O17_16 O 0.5453(2) 0.14897(11) 0.88566(11)
O18_16 O 0.6286(2) 0.16492(12) 0.90339(13)
C43_16 C 0.5766(4) 0.16697(16) 0.90421(18)
C44_16 C 0.5475(4) 0.19099(17) 0.92817(17)
C45_15 C 0.4910(3) 0.19095(18) 0.93386(19)
H25_15 H 0.4683 0.1760 0.9221
C46_15 C 0.4668(3) 0.2122(2) 0.9562(2)
H26_15 H 0.4282 0.2114 0.9599
C47_16 C 0.5002(4) 0.23515(17) 0.97372(18)
C48_16 C 0.5583(3) 0.2348(2) 0.9689(2)
H27_16 H 0.5815 0.2489 0.9813
C49_16 C 0.5806(3) 0.2139(2) 0.9462(2)
H28_16 H 0.6191 0.2147 0.9423
C50_15 C 0.4751(4) 0.25957(19) 0.9984(2)
C51_15 C 0.4186(4) 0.2695(2) 0.9958(2)
H29_15 H 0.3961 0.2620 0.9784
C38_16 C 0.8529(4) 0.9587(2) 0.0205(2)
H22_16 H 0.8910 0.9532 0.0201
C39_16 C 0.8193(4) 0.94510(17) 0.04554(18)
C40_16 C 0.7661(4) 0.95586(18) 0.04654(18)
H23_14 H 0.7434 0.9476 0.0634
C41_14 C 0.7422(3) 0.97826(18) 0.02467(19)
H24_14 H 0.7051 0.9852 0.0272
C42_16 C 0.8465(5) 0.92072(18) 0.06855(19)
C31_15 C 0.0090(3) 0.94095(18) 0.18386(19)
H17_15 H 0.0317 0.9260 0.1721
C32_15 C 0.0332(3) 0.9622(2) 0.2062(2)
H18_15 H 0.0718 0.9614 0.2099
H23_15 H 0.9934 0.0524 0.3134
C41_15 C 0.9922(3) 0.02174(18) 0.27467(19)
H24_15 H 0.9551 0.0148 0.2772
C36_15 C 0.2251(4) 0.00957(19) 0.0016(2)
C37_15 C 0.1686(4) 0.0195(2) 0.0042(2)
H21_15 H 0.1461 0.0120 0.0216
C45_16 C 0.9910(3) 0.69095(18) 0.93386(19)
H25_16 H 0.9683 0.6760 0.9221
C46_16 C 0.9668(3) 0.7122(2) 0.9562(2)
H26_16 H 0.9282 0.7114 0.9599
C50_16 C 0.9751(4) 0.75957(19) 0.9984(2)
C51_16 C 0.9186(4) 0.7695(2) 0.9958(2)
H29_16 H 0.8961 0.7620 0.9784
H23_16 H 0.0066 0.9476 0.6866
C41_16 C 0.0078(3) 0.97826(18) 0.72533(19)
H24_16 H 0.0449 0.9852 0.7228
C31_16 C 0.9910(3) 0.05905(18) 0.81614(19)
H17_16 H 0.9683 0.0740 0.8279
C32_16 C 0.9668(3) 0.0378(2) 0.7938(2)
H18_16 H 0.9282 0.0386 0.7901
C36_16 C 0.7749(4) 0.99043(19) 0.9984(2)
C37_16 C 0.8314(4) 0.9805(2) 0.9958(2)
H21_16 H 0.8539 0.9880 0.9784
N1 N 0.7067(8) 0.3943(4) 0.1651(5)
C57 C 0.6857(7) 0.3663(4) 0.1441(4)
C58 C 0.7277(13) 0.3947(8) 0.1995(5)
H36 H 0.764326 0.378186 0.201519
H37 H 0.73942 0.420541 0.206261
H38 H 0.694769 0.385667 0.215972
H42 H 0.649017 0.354726 0.155624
H43 H 0.674053 0.37632 0.120048
H44 H 0.718574 0.347245 0.141171
H45 H 0.674312 0.411124 0.165405
H46 H 0.739142 0.404152 0.151933
N1_2 N 0.0433(8) 0.3557(4) 0.1651(5)
C57_2 C 0.0643(7) 0.3837(4) 0.1441(4)
C58_2 C 0.0223(13) 0.3553(8) 0.1995(5)
H37_2 H 0.0105797 0.329459 0.206261
H38_2 H 0.0552309 0.364333 0.215972
H42_2 H 0.100983 0.395274 0.155624
H43_2 H 0.0759474 0.37368 0.120048
H44_2 H 0.0314262 0.402755 0.141171
H45_2 H 0.0756882 0.338876 0.165405
H46_2 H 0.0108576 0.345848 0.151933
H36_2 H 0.985674 0.371814 0.201519
N1_3 N 0.0433(8) 0.3943(4) 0.5849(5)
C57_3 C 0.0643(7) 0.3663(4) 0.6059(4)
C58_3 C 0.0223(13) 0.3947(8) 0.5505(5)
H37_3 H 0.0105797 0.420541 0.543739
H38_3 H 0.0552309 0.385667 0.534028
H42_3 H 0.100983 0.354726 0.594376
H43_3 H 0.0759474 0.37632 0.629952
H44_3 H 0.0314262 0.347245 0.608829
H45_3 H 0.0756882 0.411124 0.584595
H46_3 H 0.0108576 0.404152 0.598067
H36_3 H 0.985674 0.378186 0.548481
N1_4 N 0.7067(8) 0.3557(4) 0.5849(5)
C57_4 C 0.6857(7) 0.3837(4) 0.6059(4)
C58_4 C 0.7277(13) 0.3553(8) 0.5505(5)
H36_4 H 0.764326 0.371814 0.548481
H37_4 H 0.73942 0.329459 0.543739
H38_4 H 0.694769 0.364333 0.534028
H42_4 H 0.649017 0.395274 0.594376
H43_4 H 0.674053 0.37368 0.629952
H44_4 H 0.718574 0.402755 0.608829
H45_4 H 0.674312 0.338876 0.584595
H46_4 H 0.739142 0.345848 0.598067
N1_5 N 0.7067(8) 0.8943(4) 0.6651(5)
C57_5 C 0.6857(7) 0.8663(4) 0.6441(4)
C58_5 C 0.7277(13) 0.8947(8) 0.6995(5)
H36_5 H 0.764326 0.878186 0.701519
H37_5 H 0.73942 0.920541 0.706261
H38_5 H 0.694769 0.885667 0.715972
H42_5 H 0.649017 0.854726 0.655624
H43_5 H 0.674053 0.87632 0.620048
H44_5 H 0.718574 0.847245 0.641171
H45_5 H 0.674312 0.911124 0.665405
H46_5 H 0.739142 0.904152 0.651933
N1_6 N 0.0433(8) 0.8557(4) 0.6651(5)
C57_6 C 0.0643(7) 0.8837(4) 0.6441(4)
C58_6 C 0.0223(13) 0.8553(8) 0.6995(5)
H37_6 H 0.0105797 0.829459 0.706261
H38_6 H 0.0552309 0.864333 0.715972
H42_6 H 0.100983 0.895274 0.655624
H43_6 H 0.0759474 0.87368 0.620048
H44_6 H 0.0314262 0.902755 0.641171
H45_6 H 0.0756882 0.838876 0.665405
H46_6 H 0.0108576 0.845848 0.651933
H36_6 H 0.985674 0.871814 0.701519
N1_7 N 0.0433(8) 0.8943(4) 0.0849(5)
C57_7 C 0.0643(7) 0.8663(4) 0.1059(4)
C58_7 C 0.0223(13) 0.8947(8) 0.0505(5)
H37_7 H 0.0105797 0.920541 0.0437388
H38_7 H 0.0552309 0.885667 0.0340276
H42_7 H 0.100983 0.854726 0.0943755
H43_7 H 0.0759474 0.87632 0.129952
H44_7 H 0.0314262 0.847245 0.108829
H45_7 H 0.0756882 0.911124 0.0845952
H46_7 H 0.0108576 0.904152 0.0980669
H36_7 H 0.985674 0.878186 0.0484815
N1_8 N 0.7067(8) 0.8557(4) 0.0849(5)
C57_8 C 0.6857(7) 0.8837(4) 0.1059(4)
C58_8 C 0.7277(13) 0.8553(8) 0.0505(5)
H36_8 H 0.764326 0.871814 0.0484815
H37_8 H 0.73942 0.829459 0.0437388
H38_8 H 0.694769 0.864333 0.0340276
H42_8 H 0.649017 0.895274 0.0943755
H43_8 H 0.674053 0.87368 0.129952
H44_8 H 0.718574 0.902755 0.108829
H45_8 H 0.674312 0.838876 0.0845952
H46_8 H 0.739142 0.845848 0.0980669
N1_9 N 0.2067(8) 0.3943(4) 0.6651(5)
C57_9 C 0.1857(7) 0.3663(4) 0.6441(4)
C58_9 C 0.2277(13) 0.3947(8) 0.6995(5)
H36_9 H 0.264326 0.378186 0.701519
H37_9 H 0.23942 0.420541 0.706261
H38_9 H 0.194769 0.385667 0.715972
H42_9 H 0.149017 0.354726 0.655624
H43_9 H 0.174053 0.37632 0.620048
H44_9 H 0.218574 0.347245 0.641171
H45_9 H 0.174312 0.411124 0.665405
H46_9 H 0.239142 0.404152 0.651933
N1_10 N 0.5433(8) 0.3557(4) 0.6651(5)
C57_10 C 0.5643(7) 0.3837(4) 0.6441(4)
C58_10 C 0.5223(13) 0.3553(8) 0.6995(5)
H36_10 H 0.485674 0.371814 0.701519
H37_10 H 0.51058 0.329459 0.706261
H38_10 H 0.555231 0.364333 0.715972
H42_10 H 0.600983 0.395274 0.655624
H43_10 H 0.575947 0.37368 0.620048
H44_10 H 0.531426 0.402755 0.641171
H45_10 H 0.575688 0.338876 0.665405
H46_10 H 0.510858 0.345848 0.651933
N1_11 N 0.5433(8) 0.3943(4) 0.0849(5)
C57_11 C 0.5643(7) 0.3663(4) 0.1059(4)
C58_11 C 0.5223(13) 0.3947(8) 0.0505(5)
H36_11 H 0.485674 0.378186 0.0484815
H37_11 H 0.51058 0.420541 0.0437388
H38_11 H 0.555231 0.385667 0.0340276
H42_11 H 0.600983 0.354726 0.0943755
H43_11 H 0.575947 0.37632 0.129952
H44_11 H 0.531426 0.347245 0.108829
H45_11 H 0.575688 0.411124 0.0845952
H46_11 H 0.510858 0.404152 0.0980669
N1_12 N 0.2067(8) 0.3557(4) 0.0849(5)
C57_12 C 0.1857(7) 0.3837(4) 0.1059(4)
C58_12 C 0.2277(13) 0.3553(8) 0.0505(5)
H36_12 H 0.264326 0.371814 0.0484815
H37_12 H 0.23942 0.329459 0.0437388
H38_12 H 0.194769 0.364333 0.0340276
H42_12 H 0.149017 0.395274 0.0943755
H43_12 H 0.174053 0.37368 0.129952
H44_12 H 0.218574 0.402755 0.108829
H45_12 H 0.174312 0.338876 0.0845952
H46_12 H 0.239142 0.345848 0.0980669
N1_13 N 0.2067(8) 0.8943(4) 0.1651(5)
C57_13 C 0.1857(7) 0.8663(4) 0.1441(4)
C58_13 C 0.2277(13) 0.8947(8) 0.1995(5)
H36_13 H 0.264326 0.878186 0.201519
H37_13 H 0.23942 0.920541 0.206261
H38_13 H 0.194769 0.885667 0.215972
H42_13 H 0.149017 0.854726 0.155624
H43_13 H 0.174053 0.87632 0.120048
H44_13 H 0.218574 0.847245 0.141171
H45_13 H 0.174312 0.911124 0.165405
H46_13 H 0.239142 0.904152 0.151933
N1_14 N 0.5433(8) 0.8557(4) 0.1651(5)
C57_14 C 0.5643(7) 0.8837(4) 0.1441(4)
C58_14 C 0.5223(13) 0.8553(8) 0.1995(5)
H36_14 H 0.485674 0.871814 0.201519
H37_14 H 0.51058 0.829459 0.206261
H38_14 H 0.555231 0.864333 0.215972
H42_14 H 0.600983 0.895274 0.155624
H43_14 H 0.575947 0.87368 0.120048
H44_14 H 0.531426 0.902755 0.141171
H45_14 H 0.575688 0.838876 0.165405
H46_14 H 0.510858 0.845848 0.151933
N1_15 N 0.5433(8) 0.8943(4) 0.5849(5)
C57_15 C 0.5643(7) 0.8663(4) 0.6059(4)
C58_15 C 0.5223(13) 0.8947(8) 0.5505(5)
H36_15 H 0.485674 0.878186 0.548481
H37_15 H 0.51058 0.920541 0.543739
H38_15 H 0.555231 0.885667 0.534028
H42_15 H 0.600983 0.854726 0.594376
H43_15 H 0.575947 0.87632 0.629952
H44_15 H 0.531426 0.847245 0.608829
H45_15 H 0.575688 0.911124 0.584595
H46_15 H 0.510858 0.904152 0.598067
N1_16 N 0.2067(8) 0.8557(4) 0.5849(5)
C57_16 C 0.1857(7) 0.8837(4) 0.6059(4)
C58_16 C 0.2277(13) 0.8553(8) 0.5505(5)
H36_16 H 0.264326 0.871814 0.548481
H37_16 H 0.23942 0.829459 0.543739
H38_16 H 0.194769 0.864333 0.534028
H42_16 H 0.149017 0.895274 0.594376
H43_16 H 0.174053 0.87368 0.629952
H44_16 H 0.218574 0.902755 0.608829
H45_16 H 0.174312 0.838876 0.584595
H46_16 H 0.239142 0.845848 0.598067
N1_17 N 0.2933(8) 0.6057(4) 0.8349(5)
C57_17 C 0.3143(7) 0.6337(4) 0.8559(4)
C58_17 C 0.2723(13) 0.6053(8) 0.8005(5)
H36_17 H 0.235674 0.621814 0.798481
H37_17 H 0.26058 0.579459 0.793739
H38_17 H 0.305231 0.614333 0.784028
H42_17 H 0.350983 0.645274 0.844376
H43_17 H 0.325947 0.62368 0.879952
H44_17 H 0.281426 0.652755 0.858829
H45_17 H 0.325688 0.588876 0.834595
H46_17 H 0.260858 0.595848 0.848067
H36_18 H 0.0143262 0.628186 0.798481
N1_18 N 0.9567(8) 0.6443(4) 0.8349(5)
C57_18 C 0.9357(7) 0.6163(4) 0.8559(4)
C58_18 C 0.9777(13) 0.6447(8) 0.8005(5)
H37_18 H 0.98942 0.670541 0.793739
H38_18 H 0.944769 0.635667 0.784028
H42_18 H 0.899017 0.604726 0.844376
H43_18 H 0.924053 0.62632 0.879952
H44_18 H 0.968574 0.597245 0.858829
H45_18 H 0.924312 0.661124 0.834595
H46_18 H 0.989142 0.654152 0.848067
H36_19 H 0.0143262 0.621814 0.451519
N1_19 N 0.9567(8) 0.6057(4) 0.4151(5)
C57_19 C 0.9357(7) 0.6337(4) 0.3941(4)
C58_19 C 0.9777(13) 0.6053(8) 0.4495(5)
H37_19 H 0.98942 0.579459 0.456261
H38_19 H 0.944769 0.614333 0.465972
H42_19 H 0.899017 0.645274 0.405624
H43_19 H 0.924053 0.62368 0.370048
H44_19 H 0.968574 0.652755 0.391171
H45_19 H 0.924312 0.588876 0.415405
H46_19 H 0.989142 0.595848 0.401933
N1_20 N 0.2933(8) 0.6443(4) 0.4151(5)
C57_20 C 0.3143(7) 0.6163(4) 0.3941(4)
C58_20 C 0.2723(13) 0.6447(8) 0.4495(5)
H36_20 H 0.235674 0.628186 0.451519
H37_20 H 0.26058 0.670541 0.456261
H38_20 H 0.305231 0.635667 0.465972
H42_20 H 0.350983 0.604726 0.405624
H43_20 H 0.325947 0.62632 0.370048
H44_20 H 0.281426 0.597245 0.391171
H45_20 H 0.325688 0.661124 0.415405
H46_20 H 0.260858 0.654152 0.401933
N1_21 N 0.2933(8) 0.1057(4) 0.3349(5)
C57_21 C 0.3143(7) 0.1337(4) 0.3559(4)
C58_21 C 0.2723(13) 0.1053(8) 0.3005(5)
H36_21 H 0.235674 0.121814 0.298481
H37_21 H 0.26058 0.0794589 0.293739
H38_21 H 0.305231 0.114333 0.284028
H42_21 H 0.350983 0.145274 0.344376
H43_21 H 0.325947 0.12368 0.379952
H44_21 H 0.281426 0.152755 0.358829
H45_21 H 0.325688 0.0888756 0.334595
H46_21 H 0.260858 0.0958485 0.348067
H36_22 H 0.0143262 0.128186 0.298481
N1_22 N 0.9567(8) 0.1443(4) 0.3349(5)
C57_22 C 0.9357(7) 0.1163(4) 0.3559(4)
C58_22 C 0.9777(13) 0.1447(8) 0.3005(5)
H37_22 H 0.98942 0.170541 0.293739
H38_22 H 0.944769 0.135667 0.284028
H42_22 H 0.899017 0.104726 0.344376
H43_22 H 0.924053 0.12632 0.379952
H44_22 H 0.968574 0.097245 0.358829
H45_22 H 0.924312 0.161124 0.334595
H46_22 H 0.989142 0.154152 0.348067
H36_23 H 0.0143262 0.121814 0.951519
N1_23 N 0.9567(8) 0.1057(4) 0.9151(5)
C57_23 C 0.9357(7) 0.1337(4) 0.8941(4)
C58_23 C 0.9777(13) 0.1053(8) 0.9495(5)
H37_23 H 0.98942 0.0794589 0.956261
H38_23 H 0.944769 0.114333 0.965972
H42_23 H 0.899017 0.145274 0.905624
H43_23 H 0.924053 0.12368 0.870048
H44_23 H 0.968574 0.152755 0.891171
H45_23 H 0.924312 0.0888756 0.915405
H46_23 H 0.989142 0.0958485 0.901933
N1_24 N 0.2933(8) 0.1443(4) 0.9151(5)
C57_24 C 0.3143(7) 0.1163(4) 0.8941(4)
C58_24 C 0.2723(13) 0.1447(8) 0.9495(5)
H36_24 H 0.235674 0.128186 0.951519
H37_24 H 0.26058 0.170541 0.956261
H38_24 H 0.305231 0.135667 0.965972
H42_24 H 0.350983 0.104726 0.905624
H43_24 H 0.325947 0.12632 0.870048
H44_24 H 0.281426 0.097245 0.891171
H45_24 H 0.325688 0.161124 0.915405
H46_24 H 0.260858 0.154152 0.901933
N1_25 N 0.7933(8) 0.6057(4) 0.3349(5)
C57_25 C 0.8143(7) 0.6337(4) 0.3559(4)
C58_25 C 0.7723(13) 0.6053(8) 0.3005(5)
H36_25 H 0.735674 0.621814 0.298481
H37_25 H 0.76058 0.579459 0.293739
H38_25 H 0.805231 0.614333 0.284028
H42_25 H 0.850983 0.645274 0.344376
H43_25 H 0.825947 0.62368 0.379952
H44_25 H 0.781426 0.652755 0.358829
H45_25 H 0.825688 0.588876 0.334595
H46_25 H 0.760858 0.595848 0.348067
N1_26 N 0.4567(8) 0.6443(4) 0.3349(5)
C57_26 C 0.4357(7) 0.6163(4) 0.3559(4)
C58_26 C 0.4777(13) 0.6447(8) 0.3005(5)
H36_26 H 0.514326 0.628186 0.298481
H37_26 H 0.48942 0.670541 0.293739
H38_26 H 0.444769 0.635667 0.284028
H42_26 H 0.399017 0.604726 0.344376
H43_26 H 0.424053 0.62632 0.379952
H44_26 H 0.468574 0.597245 0.358829
H45_26 H 0.424312 0.661124 0.334595
H46_26 H 0.489142 0.654152 0.348067
N1_27 N 0.4567(8) 0.6057(4) 0.9151(5)
C57_27 C 0.4357(7) 0.6337(4) 0.8941(4)
C58_27 C 0.4777(13) 0.6053(8) 0.9495(5)
H36_27 H 0.514326 0.621814 0.951519
H37_27 H 0.48942 0.579459 0.956261
H38_27 H 0.444769 0.614333 0.965972
H42_27 H 0.399017 0.645274 0.905624
H43_27 H 0.424053 0.62368 0.870048
H44_27 H 0.468574 0.652755 0.891171
H45_27 H 0.424312 0.588876 0.915405
H46_27 H 0.489142 0.595848 0.901933
N1_28 N 0.7933(8) 0.6443(4) 0.9151(5)
C57_28 C 0.8143(7) 0.6163(4) 0.8941(4)
C58_28 C 0.7723(13) 0.6447(8) 0.9495(5)
H36_28 H 0.735674 0.628186 0.951519
H37_28 H 0.76058 0.670541 0.956261
H38_28 H 0.805231 0.635667 0.965972
H42_28 H 0.850983 0.604726 0.905624
H43_28 H 0.825947 0.62632 0.870048
H44_28 H 0.781426 0.597245 0.891171
H45_28 H 0.825688 0.661124 0.915405
H46_28 H 0.760858 0.654152 0.901933
N1_29 N 0.7933(8) 0.1057(4) 0.8349(5)
C57_29 C 0.8143(7) 0.1337(4) 0.8559(4)
C58_29 C 0.7723(13) 0.1053(8) 0.8005(5)
H36_29 H 0.735674 0.121814 0.798481
H37_29 H 0.76058 0.0794589 0.793739
H38_29 H 0.805231 0.114333 0.784028
H42_29 H 0.850983 0.145274 0.844376
H43_29 H 0.825947 0.12368 0.879952
H44_29 H 0.781426 0.152755 0.858829
H45_29 H 0.825688 0.0888756 0.834595
H46_29 H 0.760858 0.0958485 0.848067
N1_30 N 0.4567(8) 0.1443(4) 0.8349(5)
C57_30 C 0.4357(7) 0.1163(4) 0.8559(4)
C58_30 C 0.4777(13) 0.1447(8) 0.8005(5)
H36_30 H 0.514326 0.128186 0.798481
H37_30 H 0.48942 0.170541 0.793739
H38_30 H 0.444769 0.135667 0.784028
H42_30 H 0.399017 0.104726 0.844376
H43_30 H 0.424053 0.12632 0.879952
H44_30 H 0.468574 0.097245 0.858829
H45_30 H 0.424312 0.161124 0.834595
H46_30 H 0.489142 0.154152 0.848067
N1_31 N 0.4567(8) 0.1057(4) 0.4151(5)
C57_31 C 0.4357(7) 0.1337(4) 0.3941(4)
C58_31 C 0.4777(13) 0.1053(8) 0.4495(5)
H36_31 H 0.514326 0.121814 0.451519
H37_31 H 0.48942 0.0794589 0.456261
H38_31 H 0.444769 0.114333 0.465972
H42_31 H 0.399017 0.145274 0.405624
H43_31 H 0.424053 0.12368 0.370048
H44_31 H 0.468574 0.152755 0.391171
H45_31 H 0.424312 0.0888756 0.415405
H46_31 H 0.489142 0.0958485 0.401933
N1_32 N 0.7933(8) 0.1443(4) 0.4151(5)
C57_32 C 0.8143(7) 0.1163(4) 0.3941(4)
C58_32 C 0.7723(13) 0.1447(8) 0.4495(5)
H36_32 H 0.735674 0.128186 0.451519
H37_32 H 0.76058 0.170541 0.456261
H38_32 H 0.805231 0.135667 0.465972
H42_32 H 0.850983 0.104726 0.405624
H43_32 H 0.825947 0.12632 0.370048
H44_32 H 0.781426 0.097245 0.391171
H45_32 H 0.825688 0.161124 0.415405
H46_32 H 0.760858 0.154152 0.401933
N2 N 0.9299(7) 0.4932(4) 0.1219(5)
C59 C 0.9566(11) 0.5175(6) 0.0988(6)
C60 C 0.8863(19) 0.5152(14) 0.1369(14)
H33 H 0.858028 0.524441 0.117785
H34 H 0.862423 0.500627 0.154921
H35 H 0.906387 0.53671 0.149025
H39 H 0.973668 0.538912 0.11256
H40 H 0.990445 0.504803 0.0855425
H41 H 0.925309 0.526643 0.0813212
H47 H 0.957674 0.484589 0.138961
H48 H 0.912601 0.473154 0.109845
N2_2 N 0.8201(7) 0.2568(4) 0.1219(5)
C59_2 C 0.7934(11) 0.2325(6) 0.0988(6)
C60_2 C 0.8637(19) 0.2348(14) 0.1369(14)
H33_2 H 0.891972 0.225559 0.117785
H34_2 H 0.887577 0.249373 0.154921
H35_2 H 0.843613 0.21329 0.149025
H39_2 H 0.776332 0.211088 0.11256
H40_2 H 0.759555 0.245197 0.0855425
H41_2 H 0.824691 0.223357 0.0813212
H47_2 H 0.792326 0.265411 0.138961
H48_2 H 0.837399 0.276846 0.109845
N2_3 N 0.8201(7) 0.4932(4) 0.6281(5)
C59_3 C 0.7934(11) 0.5175(6) 0.6512(6)
C60_3 C 0.8637(19) 0.5152(14) 0.6131(14)
H33_3 H 0.891972 0.524441 0.632215
H34_3 H 0.887577 0.500627 0.595079
H35_3 H 0.843613 0.53671 0.600975
H39_3 H 0.776332 0.538912 0.63744
H40_3 H 0.759555 0.504803 0.664458
H41_3 H 0.824691 0.526643 0.668679
H47_3 H 0.792326 0.484589 0.611039
H48_3 H 0.837399 0.473154 0.640155
N2_4 N 0.9299(7) 0.2568(4) 0.6281(5)
C59_4 C 0.9566(11) 0.2325(6) 0.6512(6)
C60_4 C 0.8863(19) 0.2348(14) 0.6131(14)
H33_4 H 0.858028 0.225559 0.632215
H34_4 H 0.862423 0.249373 0.595079
H35_4 H 0.906387 0.21329 0.600975
H39_4 H 0.973668 0.211088 0.63744
H40_4 H 0.990445 0.245197 0.664458
H41_4 H 0.925309 0.223357 0.668679
H47_4 H 0.957674 0.265411 0.611039
H48_4 H 0.912601 0.276846 0.640155
C59_5 C 0.9566(11) 0.0175(6) 0.5988(6)
C60_5 C 0.8863(19) 0.0152(14) 0.6369(14)
H33_5 H 0.858028 0.0244415 0.617785
H34_5 H 0.862423 0.000627364 0.654921
H35_5 H 0.906387 0.0367096 0.649025
H39_5 H 0.973668 0.0389116 0.61256
H40_5 H 0.990445 0.00480282 0.585542
H41_5 H 0.925309 0.0266434 0.581321
N2_5 N 0.9299(7) 0.9932(4) 0.6219(5)
H47_5 H 0.957674 0.984589 0.638961
H48_5 H 0.912601 0.973154 0.609845
N2_6 N 0.8201(7) 0.7568(4) 0.6219(5)
C59_6 C 0.7934(11) 0.7325(6) 0.5988(6)
C60_6 C 0.8637(19) 0.7348(14) 0.6369(14)
H33_6 H 0.891972 0.725559 0.617785
H34_6 H 0.887577 0.749373 0.654921
H35_6 H 0.843613 0.71329 0.649025
H39_6 H 0.776332 0.711088 0.61256
H40_6 H 0.759555 0.745197 0.585542
H41_6 H 0.824691 0.723357 0.581321
H47_6 H 0.792326 0.765411 0.638961
H48_6 H 0.837399 0.776846 0.609845
C59_7 C 0.7934(11) 0.0175(6) 0.1512(6)
C60_7 C 0.8637(19) 0.0152(14) 0.1131(14)
H33_7 H 0.891972 0.0244415 0.132215
H34_7 H 0.887577 0.000627364 0.0950792
H35_7 H 0.843613 0.0367096 0.100975
H39_7 H 0.776332 0.0389116 0.13744
H40_7 H 0.759555 0.00480282 0.164458
H41_7 H 0.824691 0.0266434 0.168679
N2_7 N 0.8201(7) 0.9932(4) 0.1281(5)
H47_7 H 0.792326 0.984589 0.111039
H48_7 H 0.837399 0.973154 0.140155
N2_8 N 0.9299(7) 0.7568(4) 0.1281(5)
C59_8 C 0.9566(11) 0.7325(6) 0.1512(6)
C60_8 C 0.8863(19) 0.7348(14) 0.1131(14)
H33_8 H 0.858028 0.725559 0.132215
H34_8 H 0.862423 0.749373 0.0950792
H35_8 H 0.906387 0.71329 0.100975
H39_8 H 0.973668 0.711088 0.13744
H40_8 H 0.990445 0.745197 0.164458
H41_8 H 0.925309 0.723357 0.168679
H47_8 H 0.957674 0.765411 0.111039
H48_8 H 0.912601 0.776846 0.140155
N2_9 N 0.4299(7) 0.4932(4) 0.6219(5)
C59_9 C 0.4566(11) 0.5175(6) 0.5988(6)
C60_9 C 0.3863(19) 0.5152(14) 0.6369(14)
H33_9 H 0.358028 0.524441 0.617785
H34_9 H 0.362423 0.500627 0.654921
H35_9 H 0.406387 0.53671 0.649025
H39_9 H 0.473668 0.538912 0.61256
H40_9 H 0.490445 0.504803 0.585542
H41_9 H 0.425309 0.526643 0.581321
H47_9 H 0.457674 0.484589 0.638961
H48_9 H 0.412601 0.473154 0.609845
N2_10 N 0.3201(7) 0.2568(4) 0.6219(5)
C59_10 C 0.2934(11) 0.2325(6) 0.5988(6)
C60_10 C 0.3637(19) 0.2348(14) 0.6369(14)
H33_10 H 0.391972 0.225559 0.617785
H34_10 H 0.387577 0.249373 0.654921
H35_10 H 0.343613 0.21329 0.649025
H39_10 H 0.276332 0.211088 0.61256
H40_10 H 0.259555 0.245197 0.585542
H41_10 H 0.324691 0.223357 0.581321
H47_10 H 0.292326 0.265411 0.638961
H48_10 H 0.337399 0.276846 0.609845
N2_11 N 0.3201(7) 0.4932(4) 0.1281(5)
C59_11 C 0.2934(11) 0.5175(6) 0.1512(6)
C60_11 C 0.3637(19) 0.5152(14) 0.1131(14)
H33_11 H 0.391972 0.524441 0.132215
H34_11 H 0.387577 0.500627 0.0950792
H35_11 H 0.343613 0.53671 0.100975
H39_11 H 0.276332 0.538912 0.13744
H40_11 H 0.259555 0.504803 0.164458
H41_11 H 0.324691 0.526643 0.168679
H47_11 H 0.292326 0.484589 0.111039
H48_11 H 0.337399 0.473154 0.140155
N2_12 N 0.4299(7) 0.2568(4) 0.1281(5)
C59_12 C 0.4566(11) 0.2325(6) 0.1512(6)
C60_12 C 0.3863(19) 0.2348(14) 0.1131(14)
H33_12 H 0.358028 0.225559 0.132215
H34_12 H 0.362423 0.249373 0.0950792
H35_12 H 0.406387 0.21329 0.100975
H39_12 H 0.473668 0.211088 0.13744
H40_12 H 0.490445 0.245197 0.164458
H41_12 H 0.425309 0.223357 0.168679
H47_12 H 0.457674 0.265411 0.111039
H48_12 H 0.412601 0.276846 0.140155
C59_13 C 0.4566(11) 0.0175(6) 0.0988(6)
C60_13 C 0.3863(19) 0.0152(14) 0.1369(14)
H33_13 H 0.358028 0.0244415 0.117785
H34_13 H 0.362423 0.000627364 0.154921
H35_13 H 0.406387 0.0367096 0.149025
H39_13 H 0.473668 0.0389116 0.11256
H40_13 H 0.490445 0.00480282 0.0855425
H41_13 H 0.425309 0.0266434 0.0813212
N2_13 N 0.4299(7) 0.9932(4) 0.1219(5)
H47_13 H 0.457674 0.984589 0.138961
H48_13 H 0.412601 0.973154 0.109845
N2_14 N 0.3201(7) 0.7568(4) 0.1219(5)
C59_14 C 0.2934(11) 0.7325(6) 0.0988(6)
C60_14 C 0.3637(19) 0.7348(14) 0.1369(14)
H33_14 H 0.391972 0.725559 0.117785
H34_14 H 0.387577 0.749373 0.154921
H35_14 H 0.343613 0.71329 0.149025
H39_14 H 0.276332 0.711088 0.11256
H40_14 H 0.259555 0.745197 0.0855425
H41_14 H 0.324691 0.723357 0.0813212
H47_14 H 0.292326 0.765411 0.138961
H48_14 H 0.337399 0.776846 0.109845
C59_15 C 0.2934(11) 0.0175(6) 0.6512(6)
C60_15 C 0.3637(19) 0.0152(14) 0.6131(14)
H33_15 H 0.391972 0.0244415 0.632215
H34_15 H 0.387577 0.000627364 0.595079
H35_15 H 0.343613 0.0367096 0.600975
H39_15 H 0.276332 0.0389116 0.63744
H40_15 H 0.259555 0.00480282 0.664458
H41_15 H 0.324691 0.0266434 0.668679
N2_15 N 0.3201(7) 0.9932(4) 0.6281(5)
H47_15 H 0.292326 0.984589 0.611039
H48_15 H 0.337399 0.973154 0.640155
N2_16 N 0.4299(7) 0.7568(4) 0.6281(5)
C59_16 C 0.4566(11) 0.7325(6) 0.6512(6)
C60_16 C 0.3863(19) 0.7348(14) 0.6131(14)
H33_16 H 0.358028 0.725559 0.632215
H34_16 H 0.362423 0.749373 0.595079
H35_16 H 0.406387 0.71329 0.600975
H39_16 H 0.473668 0.711088 0.63744
H40_16 H 0.490445 0.745197 0.664458
H41_16 H 0.425309 0.723357 0.668679
H47_16 H 0.457674 0.765411 0.611039
H48_16 H 0.412601 0.776846 0.640155
N2_17 N 0.0701(7) 0.5068(4) 0.8781(5)
C59_17 C 0.0434(11) 0.4825(6) 0.9012(6)
C60_17 C 0.1137(19) 0.4848(14) 0.8631(14)
H33_17 H 0.141972 0.475559 0.882215
H34_17 H 0.137577 0.499373 0.845079
H35_17 H 0.0936135 0.46329 0.850975
H39_17 H 0.0263323 0.461088 0.88744
H40_17 H 0.00955509 0.495197 0.914458
H41_17 H 0.0746912 0.473357 0.918679
H47_17 H 0.0423261 0.515411 0.861039
H48_17 H 0.0873989 0.526846 0.890155
N2_18 N 0.1799(7) 0.7432(4) 0.8781(5)
C59_18 C 0.2066(11) 0.7675(6) 0.9012(6)
C60_18 C 0.1363(19) 0.7652(14) 0.8631(14)
H33_18 H 0.108028 0.774441 0.882215
H34_18 H 0.112423 0.750627 0.845079
H35_18 H 0.156387 0.78671 0.850975
H39_18 H 0.223668 0.788912 0.88744
H40_18 H 0.240445 0.754803 0.914458
H41_18 H 0.175309 0.776643 0.918679
H47_18 H 0.207674 0.734589 0.861039
H48_18 H 0.162601 0.723154 0.890155
N2_19 N 0.1799(7) 0.5068(4) 0.3719(5)
C59_19 C 0.2066(11) 0.4825(6) 0.3488(6)
C60_19 C 0.1363(19) 0.4848(14) 0.3869(14)
H33_19 H 0.108028 0.475559 0.367785
H34_19 H 0.112423 0.499373 0.404921
H35_19 H 0.156387 0.46329 0.399025
H39_19 H 0.223668 0.461088 0.36256
H40_19 H 0.240445 0.495197 0.335542
H41_19 H 0.175309 0.473357 0.331321
H47_19 H 0.207674 0.515411 0.388961
H48_19 H 0.162601 0.526846 0.359845
N2_20 N 0.0701(7) 0.7432(4) 0.3719(5)
C59_20 C 0.0434(11) 0.7675(6) 0.3488(6)
C60_20 C 0.1137(19) 0.7652(14) 0.3869(14)
H33_20 H 0.141972 0.774441 0.367785
H34_20 H 0.137577 0.750627 0.404921
H35_20 H 0.0936135 0.78671 0.399025
H39_20 H 0.0263323 0.788912 0.36256
H40_20 H 0.00955509 0.754803 0.335542
H41_20 H 0.0746912 0.776643 0.331321
H47_20 H 0.0423261 0.734589 0.388961
H48_20 H 0.0873989 0.723154 0.359845
N2_21 N 0.0701(7) 0.0068(4) 0.3781(5)
H47_21 H 0.0423261 0.0154112 0.361039
H48_21 H 0.0873989 0.0268457 0.390155
C59_21 C 0.0434(11) 0.9825(6) 0.4012(6)
C60_21 C 0.1137(19) 0.9848(14) 0.3631(14)
H33_21 H 0.141972 0.975559 0.382215
H34_21 H 0.137577 0.999373 0.345079
H35_21 H 0.0936135 0.96329 0.350975
H39_21 H 0.0263323 0.961088 0.38744
H40_21 H 0.00955509 0.995197 0.414458
H41_21 H 0.0746912 0.973357 0.418679
N2_22 N 0.1799(7) 0.2432(4) 0.3781(5)
C59_22 C 0.2066(11) 0.2675(6) 0.4012(6)
C60_22 C 0.1363(19) 0.2652(14) 0.3631(14)
H33_22 H 0.108028 0.274441 0.382215
H34_22 H 0.112423 0.250627 0.345079
H35_22 H 0.156387 0.28671 0.350975
H39_22 H 0.223668 0.288912 0.38744
H40_22 H 0.240445 0.254803 0.414458
H41_22 H 0.175309 0.276643 0.418679
H47_22 H 0.207674 0.234589 0.361039
H48_22 H 0.162601 0.223154 0.390155
N2_23 N 0.1799(7) 0.0068(4) 0.8719(5)
H47_23 H 0.207674 0.0154112 0.888961
H48_23 H 0.162601 0.0268457 0.859845
C59_23 C 0.2066(11) 0.9825(6) 0.8488(6)
C60_23 C 0.1363(19) 0.9848(14) 0.8869(14)
H33_23 H 0.108028 0.975559 0.867785
H34_23 H 0.112423 0.999373 0.904921
H35_23 H 0.156387 0.96329 0.899025
H39_23 H 0.223668 0.961088 0.86256
H40_23 H 0.240445 0.995197 0.835542
H41_23 H 0.175309 0.973357 0.831321
N2_24 N 0.0701(7) 0.2432(4) 0.8719(5)
C59_24 C 0.0434(11) 0.2675(6) 0.8488(6)
C60_24 C 0.1137(19) 0.2652(14) 0.8869(14)
H33_24 H 0.141972 0.274441 0.867785
H34_24 H 0.137577 0.250627 0.904921
H35_24 H 0.0936135 0.28671 0.899025
H39_24 H 0.0263323 0.288912 0.86256
H40_24 H 0.00955509 0.254803 0.835542
H41_24 H 0.0746912 0.276643 0.831321
H47_24 H 0.0423261 0.234589 0.888961
H48_24 H 0.0873989 0.223154 0.859845
N2_25 N 0.5701(7) 0.5068(4) 0.3781(5)
C59_25 C 0.5434(11) 0.4825(6) 0.4012(6)
C60_25 C 0.6137(19) 0.4848(14) 0.3631(14)
H33_25 H 0.641972 0.475559 0.382215
H34_25 H 0.637577 0.499373 0.345079
H35_25 H 0.593613 0.46329 0.350975
H39_25 H 0.526332 0.461088 0.38744
H40_25 H 0.509555 0.495197 0.414458
H41_25 H 0.574691 0.473357 0.418679
H47_25 H 0.542326 0.515411 0.361039
H48_25 H 0.587399 0.526846 0.390155
N2_26 N 0.6799(7) 0.7432(4) 0.3781(5)
C59_26 C 0.7066(11) 0.7675(6) 0.4012(6)
C60_26 C 0.6363(19) 0.7652(14) 0.3631(14)
H33_26 H 0.608028 0.774441 0.382215
H34_26 H 0.612423 0.750627 0.345079
H35_26 H 0.656387 0.78671 0.350975
H39_26 H 0.723668 0.788912 0.38744
H40_26 H 0.740445 0.754803 0.414458
H41_26 H 0.675309 0.776643 0.418679
H47_26 H 0.707674 0.734589 0.361039
H48_26 H 0.662601 0.723154 0.390155
N2_27 N 0.6799(7) 0.5068(4) 0.8719(5)
C59_27 C 0.7066(11) 0.4825(6) 0.8488(6)
C60_27 C 0.6363(19) 0.4848(14) 0.8869(14)
H33_27 H 0.608028 0.475559 0.867785
H34_27 H 0.612423 0.499373 0.904921
H35_27 H 0.656387 0.46329 0.899025
H39_27 H 0.723668 0.461088 0.86256
H40_27 H 0.740445 0.495197 0.835542
H41_27 H 0.675309 0.473357 0.831321
H47_27 H 0.707674 0.515411 0.888961
H48_27 H 0.662601 0.526846 0.859845
N2_28 N 0.5701(7) 0.7432(4) 0.8719(5)
C59_28 C 0.5434(11) 0.7675(6) 0.8488(6)
C60_28 C 0.6137(19) 0.7652(14) 0.8869(14)
H33_28 H 0.641972 0.774441 0.867785
H34_28 H 0.637577 0.750627 0.904921
H35_28 H 0.593613 0.78671 0.899025
H39_28 H 0.526332 0.788912 0.86256
H40_28 H 0.509555 0.754803 0.835542
H41_28 H 0.574691 0.776643 0.831321
H47_28 H 0.542326 0.734589 0.888961
H48_28 H 0.587399 0.723154 0.859845
N2_29 N 0.5701(7) 0.0068(4) 0.8781(5)
H47_29 H 0.542326 0.0154112 0.861039
H48_29 H 0.587399 0.0268457 0.890155
C59_29 C 0.5434(11) 0.9825(6) 0.9012(6)
C60_29 C 0.6137(19) 0.9848(14) 0.8631(14)
H33_29 H 0.641972 0.975559 0.882215
H34_29 H 0.637577 0.999373 0.845079
H35_29 H 0.593613 0.96329 0.850975
H39_29 H 0.526332 0.961088 0.88744
H40_29 H 0.509555 0.995197 0.914458
H41_29 H 0.574691 0.973357 0.918679
N2_30 N 0.6799(7) 0.2432(4) 0.8781(5)
C59_30 C 0.7066(11) 0.2675(6) 0.9012(6)
C60_30 C 0.6363(19) 0.2652(14) 0.8631(14)
H33_30 H 0.608028 0.274441 0.882215
H34_30 H 0.612423 0.250627 0.845079
H35_30 H 0.656387 0.28671 0.850975
H39_30 H 0.723668 0.288912 0.88744
H40_30 H 0.740445 0.254803 0.914458
H41_30 H 0.675309 0.276643 0.918679
H47_30 H 0.707674 0.234589 0.861039
H48_30 H 0.662601 0.223154 0.890155
N2_31 N 0.6799(7) 0.0068(4) 0.3719(5)
H47_31 H 0.707674 0.0154112 0.388961
H48_31 H 0.662601 0.0268457 0.359845
C59_31 C 0.7066(11) 0.9825(6) 0.3488(6)
C60_31 C 0.6363(19) 0.9848(14) 0.3869(14)
H33_31 H 0.608028 0.975559 0.367785
H34_31 H 0.612423 0.999373 0.404921
H35_31 H 0.656387 0.96329 0.399025
H39_31 H 0.723668 0.961088 0.36256
H40_31 H 0.740445 0.995197 0.335542
H41_31 H 0.675309 0.973357 0.331321
N2_32 N 0.5701(7) 0.2432(4) 0.3719(5)
C59_32 C 0.5434(11) 0.2675(6) 0.3488(6)
C60_32 C 0.6137(19) 0.2652(14) 0.3869(14)
H33_32 H 0.641972 0.274441 0.367785
H34_32 H 0.637577 0.250627 0.404921
H35_32 H 0.593613 0.28671 0.399025
H39_32 H 0.526332 0.288912 0.36256
H40_32 H 0.509555 0.254803 0.335542
H41_32 H 0.574691 0.276643 0.331321
H47_32 H 0.542326 0.234589 0.388961
H48_32 H 0.587399 0.223154 0.359845
loop_
_geom_bond_atom_site_label_1
_geom_bond_atom_site_label_2
_geom_bond_site_symmetry_1
_geom_bond_site_symmetry_2
In1 O1 1_555 1_555
O1 C1 1_555 1_555
O2 In1 1_555 1_555
C1 O2 1_555 1_555
C2 C1 1_555 1_555
C3 C2 1_555 1_555
H1 C3 1_555 1_555
C4 C3 1_555 1_555
C5 C4 1_555 1_555
C7 C2 1_555 1_555
In3 O7 1_555 1_555
O5 In1 1_555 1_555
O6 In1 1_555 1_555
O7 C28 1_555 1_555
O8 In1 1_555 1_555
O9 In1 1_555 1_555
O10 In3 1_555 1_555
O11 In1 1_555 1_555
O12 In1 1_555 1_555
C15 O5 1_555 1_555
C16 C15 1_555 1_555
C17 C16 1_555 1_555
H9 C17 1_555 1_555
C18 C17 1_555 1_555
H10 C18 1_555 1_555
C19 C18 1_555 1_555
C20 C19 1_555 1_555
H11 C20 1_555 1_555
C21 C16 1_555 1_555
H12 C21 1_555 1_555
C22 C19 1_555 1_555
C23 C22 1_555 1_555
H13 C23 1_555 1_555
C24 C23 1_555 1_555
H14 C24 1_555 1_555
C25 C24 1_555 1_555
C26 C25 1_555 1_555
H15 C26 1_555 1_555
C27 C22 1_555 1_555
H16 C27 1_555 1_555
C28 O10 1_555 1_555
O6 C15 1_555 1_555
C20 C21 1_555 1_555
C25 C28 1_555 1_555
C26 C27 1_555 1_555
O3 C14 1_555 1_555
O4 C14 1_555 1_555
C9 C8 1_555 1_555
C10 C9 1_555 1_555
H6 C10 1_555 1_555
C11 C10 1_555 1_555
C12 C11 1_555 1_555
C14 C11 1_555 1_555
In2 O3 1_555 1_555
O4 In2 1_555 1_555
In1_2 O1_2 1_555 1_555
O1_2 C1_2 1_555 1_555
O2_2 In1_2 1_555 1_555
O3_2 C14_2 1_555 1_555
O4_2 C14_2 1_555 1_555
C1_2 O2_2 1_555 1_555
C2_2 C1_2 1_555 1_555
C3_2 C2_2 1_555 1_555
H1_2 C3_2 1_555 1_555
C4_2 C3_2 1_555 1_555
H2 C4_2 1_555 1_555
C5_2 C4_2 1_555 1_555
C6 C5_2 1_555 1_555
H3 C6 1_555 1_555
C7_2 C2_2 1_555 1_555
H4 C7_2 1_555 1_555
C8_2 C5_2 1_555 1_555
C9_2 C8_2 1_555 1_555
H5 C9_2 1_555 1_555
C10_2 C9_2 1_555 1_555
H6_2 C10_2 1_555 1_555
C11_2 C10_2 1_555 1_555
C12_2 C11_2 1_555 1_555
H7 C12_2 1_555 1_555
C13 C8_2 1_555 1_555
H8 C13 1_555 1_555
C14_2 C11_2 1_555 1_555
In2 O3_2 1_555 1_555
In3 O7_2 1_555 1_555
O5_2 In1_2 1_555 1_555
O6_2 In1_2 1_555 1_555
O7_2 C28_2 1_555 1_555
O8_2 In1_2 1_555 1_555
O9_2 In1_2 1_555 1_555
O10_2 In3 1_555 1_555
O11_2 In1_2 1_555 1_555
O12_2 In1_2 1_555 1_555
C15_2 O5_2 1_555 1_555
C16_2 C15_2 1_555 1_555
C17_2 C16_2 1_555 1_555
H9_2 C17_2 1_555 1_555
C18_2 C17_2 1_555 1_555
H10_2 C18_2 1_555 1_555
C19_2 C18_2 1_555 1_555
C20_2 C19_2 1_555 1_555
H11_2 C20_2 1_555 1_555
C21_2 C16_2 1_555 1_555
H12_2 C21_2 1_555 1_555
C22_2 C19_2 1_555 1_555
C23_2 C22_2 1_555 1_555
H13_2 C23_2 1_555 1_555
C24_2 C23_2 1_555 1_555
H14_2 C24_2 1_555 1_555
C25_2 C24_2 1_555 1_555
C26_2 C25_2 1_555 1_555
H15_2 C26_2 1_555 1_555
C27_2 C22_2 1_555 1_555
H16_2 C27_2 1_555 1_555
C28_2 O10_2 1_555 1_555
O4_2 In2 1_555 1_555
C6 C7_2 1_555 1_555
C12_2 C13 1_555 1_555
O6_2 C15_2 1_555 1_555
C20_2 C21_2 1_555 1_555
C25_2 C28_2 1_555 1_555
C26_2 C27_2 1_555 1_555
In1_3 O1_3 1_555 1_555
O1_3 C1_3 1_555 1_555
O2_3 In1_3 1_555 1_555
C1_3 O2_3 1_555 1_555
C2_3 C1_3 1_555 1_555
C3_3 C2_3 1_555 1_555
H1_3 C3_3 1_555 1_555
C4_3 C3_3 1_555 1_555
H2_2 C4_3 1_555 1_555
C5_3 C4_3 1_555 1_555
C7_3 C2_3 1_555 1_555
H8_2 C13_2 1_555 1_555
In3_2 O7_3 1_555 1_555
O5_3 In1_3 1_555 1_555
O6_3 In1_3 1_555 1_555
O7_3 C28_3 1_555 1_555
O10_3 In3_2 1_555 1_555
C15_3 O5_3 1_555 1_555
C16_3 C15_3 1_555 1_555
C17_3 C16_3 1_555 1_555
H9_3 C17_3 1_555 1_555
C18_3 C17_3 1_555 1_555
H10_3 C18_3 1_555 1_555
C19_3 C18_3 1_555 1_555
C20_3 C19_3 1_555 1_555
H11_3 C20_3 1_555 1_555
C21_3 C16_3 1_555 1_555
H12_3 C21_3 1_555 1_555
C22_3 C19_3 1_555 1_555
C23_3 C22_3 1_555 1_555
H13_3 C23_3 1_555 1_555
C24_3 C23_3 1_555 1_555
H14_3 C24_3 1_555 1_555
C25_3 C24_3 1_555 1_555
C26_3 C25_3 1_555 1_555
H15_3 C26_3 1_555 1_555
C27_3 C22_3 1_555 1_555
H16_3 C27_3 1_555 1_555
C28_3 O10_3 1_555 1_555
O6_3 C15_3 1_555 1_555
C20_3 C21_3 1_555 1_555
C25_3 C28_3 1_555 1_555
C26_3 C27_3 1_555 1_555
O3_3 C14_3 1_555 1_555
O4_3 C14_3 1_555 1_555
H3_2 C6_2 1_555 1_555
C9_3 C8_3 1_555 1_555
H5_2 C9_3 1_555 1_555
C10_3 C9_3 1_555 1_555
H6_3 C10_3 1_555 1_555
C11_3 C10_3 1_555 1_555
C12_3 C11_3 1_555 1_555
C14_3 C11_3 1_555 1_555
In2_2 O3_3 1_555 1_555
O4_3 In2_2 1_555 1_555
In1_4 O1_4 1_555 1_555
O1_4 C1_4 1_555 1_555
O2_4 In1_4 1_555 1_555
O3_4 C14_4 1_555 1_555
O4_4 C14_4 1_555 1_555
C1_4 O2_4 1_555 1_555
C2_4 C1_4 1_555 1_555
C3_4 C2_4 1_555 1_555
H1_4 C3_4 1_555 1_555
C4_4 C3_4 1_555 1_555
H2_3 C4_4 1_555 1_555
C5_4 C4_4 1_555 1_555
C6_3 C5_4 1_555 1_555
H3_3 C6_3 1_555 1_555
C7_4 C2_4 1_555 1_555
H4_3 C7_4 1_555 1_555
C8_4 C5_4 1_555 1_555
C9_4 C8_4 1_555 1_555
H5_3 C9_4 1_555 1_555
C10_4 C9_4 1_555 1_555
H6_4 C10_4 1_555 1_555
C11_4 C10_4 1_555 1_555
C12_4 C11_4 1_555 1_555
H7_3 C12_4 1_555 1_555
C13_3 C8_4 1_555 1_555
H8_3 C13_3 1_555 1_555
C14_4 C11_4 1_555 1_555
In2_2 O3_4 1_555 1_555
O5_4 In1_4 1_555 1_555
O6_4 In1_4 1_555 1_555
C15_4 O5_4 1_555 1_555
C16_4 C15_4 1_555 1_555
C17_4 C16_4 1_555 1_555
H9_4 C17_4 1_555 1_555
C18_4 C17_4 1_555 1_555
C19_4 C18_4 1_555 1_555
C20_4 C19_4 1_555 1_555
H11_4 C20_4 1_555 1_555
C21_4 C16_4 1_555 1_555
H12_4 C21_4 1_555 1_555
O4_4 In2_2 1_555 1_555
C6_3 C7_4 1_555 1_555
C12_4 C13_3 1_555 1_555
O6_4 C15_4 1_555 1_555
C20_4 C21_4 1_555 1_555
In3_2 O7_4 1_555 1_555
O7_4 C28_4 1_555 1_555
O10_4 In3_2 1_555 1_555
C23_4 C22_4 1_555 1_555
C24_4 C23_4 1_555 1_555
H14_4 C24_4 1_555 1_555
C25_4 C24_4 1_555 1_555
C26_4 C25_4 1_555 1_555
H15_4 C26_4 1_555 1_555
C27_4 C22_4 1_555 1_555
H16_4 C27_4 1_555 1_555
C28_4 O10_4 1_555 1_555
C25_4 C28_4 1_555 1_555
C26_4 C27_4 1_555 1_555
O8 C14_5 1_555 1_555
O11 C14_5 1_555 1_555
C9_5 C8_5 1_555 1_555
C10_5 C9_5 1_555 1_555
H6_5 C10_5 1_555 1_555
C11_5 C10_5 1_555 1_555
C12_5 C11_5 1_555 1_555
H7_4 C12_5 1_555 1_555
C13_4 C8_5 1_555 1_555
H8_4 C13_4 1_555 1_555
C14_5 C11_5 1_555 1_555
C12_5 C13_4 1_555 1_555
In3_2 O1_5 1_555 1_555
O1_5 C1_5 1_555 1_555
O2_5 In3_2 1_555 1_555
C1_5 O2_5 1_555 1_555
C2_5 C1_5 1_555 1_555
C3_5 C2_5 1_555 1_555
H1_5 C3_5 1_555 1_555
C4_5 C3_5 1_555 1_555
C5_5 C4_5 1_555 1_555
C6_4 C5_5 1_555 1_555
H3_4 C6_4 1_555 1_555
C7_5 C2_5 1_555 1_555
H4_4 C7_5 1_555 1_555
O5_5 In3_2 1_555 1_555
O6_5 In3_2 1_555 1_555
O8_2 C28_5 1_555 1_555
C15_5 O5_5 1_555 1_555
C16_5 C15_5 1_555 1_555
C17_5 C16_5 1_555 1_555
H9_5 C17_5 1_555 1_555
C18_5 C17_5 1_555 1_555
H10_5 C18_5 1_555 1_555
C19_5 C18_5 1_555 1_555
C20_5 C19_5 1_555 1_555
H11_5 C20_5 1_555 1_555
C21_5 C16_5 1_555 1_555
H12_5 C21_5 1_555 1_555
C22_5 C19_5 1_555 1_555
C23_5 C22_5 1_555 1_555
H13_5 C23_5 1_555 1_555
C24_5 C23_5 1_555 1_555
H14_5 C24_5 1_555 1_555
C25_5 C24_5 1_555 1_555
C26_5 C25_5 1_555 1_555
H15_5 C26_5 1_555 1_555
C27_5 C22_5 1_555 1_555
H16_5 C27_5 1_555 1_555
C28_5 O11_2 1_555 1_555
C6_4 C7_5 1_555 1_555
O6_5 C15_5 1_555 1_555
C20_5 C21_5 1_555 1_555
C25_5 C28_5 1_555 1_555
C26_5 C27_5 1_555 1_555
O9 C14_6 1_555 1_555
O12 C14_6 1_555 1_555
H3_5 C6_5 1_555 1_555
C9_6 C8_6 1_555 1_555
H5_5 C9_6 1_555 1_555
C10_6 C9_6 1_555 1_555
H6_6 C10_6 1_555 1_555
C11_6 C10_6 1_555 1_555
C12_6 C11_6 1_555 1_555
C14_6 C11_6 1_555 1_555
In2_2 O1_6 1_555 1_555
O1_6 C1_6 1_555 1_555
O2_6 In2_2 1_555 1_555
C1_6 O2_6 1_555 1_555
C2_6 C1_6 1_555 1_555
C3_6 C2_6 1_555 1_555
H1_6 C3_6 1_555 1_555
C4_6 C3_6 1_555 1_555
H2_5 C4_6 1_555 1_555
C5_6 C4_6 1_555 1_555
C7_6 C2_6 1_555 1_555
H8_5 C13_5 1_555 1_555
O5_6 In2_2 1_555 1_555
O6_6 In2_2 1_555 1_555
O9_2 C28_6 1_555 1_555
C15_6 O5_6 1_555 1_555
C16_6 C15_6 1_555 1_555
C17_6 C16_6 1_555 1_555
H9_6 C17_6 1_555 1_555
C18_6 C17_6 1_555 1_555
H10_6 C18_6 1_555 1_555
C19_6 C18_6 1_555 1_555
C20_6 C19_6 1_555 1_555
H11_6 C20_6 1_555 1_555
C21_6 C16_6 1_555 1_555
H12_6 C21_6 1_555 1_555
C22_6 C19_6 1_555 1_555
C23_6 C22_6 1_555 1_555
H13_6 C23_6 1_555 1_555
C24_6 C23_6 1_555 1_555
H14_6 C24_6 1_555 1_555
C25_6 C24_6 1_555 1_555
C26_6 C25_6 1_555 1_555
H15_6 C26_6 1_555 1_555
C27_6 C22_6 1_555 1_555
H16_6 C27_6 1_555 1_555
C28_6 O12_2 1_555 1_555
O6_6 C15_6 1_555 1_555
C20_6 C21_6 1_555 1_555
C25_6 C28_6 1_555 1_555
C26_6 C27_6 1_555 1_555
In3 O1_7 1_555 1_555
O1_7 C1_7 1_555 1_555
O2_7 In3 1_555 1_555
O8_3 C14_7 1_555 1_555
O11_3 C14_7 1_555 1_555
C1_7 O2_7 1_555 1_555
C2_7 C1_7 1_555 1_555
C3_7 C2_7 1_555 1_555
H1_7 C3_7 1_555 1_555
C4_7 C3_7 1_555 1_555
H2_6 C4_7 1_555 1_555
C5_7 C4_7 1_555 1_555
C6_6 C5_7 1_555 1_555
H3_6 C6_6 1_555 1_555
C7_7 C2_7 1_555 1_555
H4_6 C7_7 1_555 1_555
C8_7 C5_7 1_555 1_555
C9_7 C8_7 1_555 1_555
H5_6 C9_7 1_555 1_555
C10_7 C9_7 1_555 1_555
H6_7 C10_7 1_555 1_555
C11_7 C10_7 1_555 1_555
C12_7 C11_7 1_555 1_555
H7_6 C12_7 1_555 1_555
C13_6 C8_7 1_555 1_555
H8_6 C13_6 1_555 1_555
C14_7 C11_7 1_555 1_555
O5_7 In3 1_555 1_555
O6_7 In3 1_555 1_555
O8_4 C28_7 1_555 1_555
C15_7 O5_7 1_555 1_555
C16_7 C15_7 1_555 1_555
C17_7 C16_7 1_555 1_555
H9_7 C17_7 1_555 1_555
C18_7 C17_7 1_555 1_555
H10_7 C18_7 1_555 1_555
C19_7 C18_7 1_555 1_555
C20_7 C19_7 1_555 1_555
H11_7 C20_7 1_555 1_555
C21_7 C16_7 1_555 1_555
H12_7 C21_7 1_555 1_555
C22_7 C19_7 1_555 1_555
C23_7 C22_7 1_555 1_555
H13_7 C23_7 1_555 1_555
C24_7 C23_7 1_555 1_555
H14_7 C24_7 1_555 1_555
C25_7 C24_7 1_555 1_555
C26_7 C25_7 1_555 1_555
H15_7 C26_7 1_555 1_555
C27_7 C22_7 1_555 1_555
H16_7 C27_7 1_555 1_555
C28_7 O11_4 1_555 1_555
C6_6 C7_7 1_555 1_555
C12_7 C13_6 1_555 1_555
O6_7 C15_7 1_555 1_555
C20_7 C21_7 1_555 1_555
C25_7 C28_7 1_555 1_555
C26_7 C27_7 1_555 1_555
O9_3 C14_8 1_555 1_555
O12_3 C14_8 1_555 1_555
H3_7 C6_7 1_555 1_555
C9_8 C8_8 1_555 1_555
H5_7 C9_8 1_555 1_555
C10_8 C9_8 1_555 1_555
H6_8 C10_8 1_555 1_555
C11_8 C10_8 1_555 1_555
C12_8 C11_8 1_555 1_555
C14_8 C11_8 1_555 1_555
O9_4 C28_8 1_555 1_555
C23_8 C22_8 1_555 1_555
C24_8 C23_8 1_555 1_555
H14_8 C24_8 1_555 1_555
C25_8 C24_8 1_555 1_555
C26_8 C25_8 1_555 1_555
H15_8 C26_8 1_555 1_555
C27_8 C22_8 1_555 1_555
H16_8 C27_8 1_555 1_555
C28_8 O12_4 1_555 1_555
C25_8 C28_8 1_555 1_555
C26_8 C27_8 1_555 1_555
In2 O1_8 1_555 1_555
O1_8 C1_8 1_555 1_555
O2_8 In2 1_555 1_555
C1_8 O2_8 1_555 1_555
C2_8 C1_8 1_555 1_555
C3_8 C2_8 1_555 1_555
H1_8 C3_8 1_555 1_555
C4_8 C3_8 1_555 1_555
H2_7 C4_8 1_555 1_555
C5_8 C4_8 1_555 1_555
C7_8 C2_8 1_555 1_555
H8_7 C13_7 1_555 1_555
O5_8 In2 1_555 1_555
O6_8 In2 1_555 1_555
C15_8 O5_8 1_555 1_555
C16_8 C15_8 1_555 1_555
C17_8 C16_8 1_555 1_555
H9_8 C17_8 1_555 1_555
C18_8 C17_8 1_555 1_555
C19_8 C18_8 1_555 1_555
C20_8 C19_8 1_555 1_555
H11_8 C20_8 1_555 1_555
C21_8 C16_8 1_555 1_555
H12_8 C21_8 1_555 1_555
O6_8 C15_8 1_555 1_555
C20_8 C21_8 1_555 1_555
H8_8 C13_8 1_555 1_555
H3_8 C6_8 1_555 1_555
In1_5 O1_9 1_555 1_555
O1_9 C1_9 1_555 1_555
O2_9 In1_5 1_555 1_555
C1_9 O2_9 1_555 1_555
C2_9 C1_9 1_555 1_555
C3_9 C2_9 1_555 1_555
H1_9 C3_9 1_555 1_555
C4_9 C3_9 1_555 1_555
C5_9 C4_9 1_555 1_555
C6_9 C5_9 1_555 1_555
H3_9 C6_9 1_555 1_555
C7_9 C2_9 1_555 1_555
H4_9 C7_9 1_555 1_555
In3_3 O7_5 1_555 1_555
O5_9 In1_5 1_555 1_555
O6_9 In1_5 1_555 1_555
O7_5 C28_9 1_555 1_555
O8_5 In1_5 1_555 1_555
O9_5 In1_5 1_555 1_555
O10_5 In3_3 1_555 1_555
O11_5 In1_5 1_555 1_555
O12_5 In1_5 1_555 1_555
C15_9 O5_9 1_555 1_555
C16_9 C15_9 1_555 1_555
C17_9 C16_9 1_555 1_555
H9_9 C17_9 1_555 1_555
C18_9 C17_9 1_555 1_555
H10_9 C18_9 1_555 1_555
C19_9 C18_9 1_555 1_555
C20_9 C19_9 1_555 1_555
H11_9 C20_9 1_555 1_555
C21_9 C16_9 1_555 1_555
H12_9 C21_9 1_555 1_555
C22_9 C19_9 1_555 1_555
C23_9 C22_9 1_555 1_555
H13_9 C23_9 1_555 1_555
C24_9 C23_9 1_555 1_555
H14_9 C24_9 1_555 1_555
C25_9 C24_9 1_555 1_555
C26_9 C25_9 1_555 1_555
H15_9 C26_9 1_555 1_555
C27_9 C22_9 1_555 1_555
H16_9 C27_9 1_555 1_555
C28_9 O10_5 1_555 1_555
C6_9 C7_9 1_555 1_555
O6_9 C15_9 1_555 1_555
C20_9 C21_9 1_555 1_555
C25_9 C28_9 1_555 1_555
C26_9 C27_9 1_555 1_555
O3_5 C14_9 1_555 1_555
O4_5 C14_9 1_555 1_555
C9_9 C8_9 1_555 1_555
C10_9 C9_9 1_555 1_555
H6_9 C10_9 1_555 1_555
C11_9 C10_9 1_555 1_555
C12_9 C11_9 1_555 1_555
H7_9 C12_9 1_555 1_555
C13_9 C8_9 1_555 1_555
H8_9 C13_9 1_555 1_555
C14_9 C11_9 1_555 1_555
In2_3 O3_5 1_555 1_555
O4_5 In2_3 1_555 1_555
C12_9 C13_9 1_555 1_555
In1_6 O1_10 1_555 1_555
O1_10 C1_10 1_555 1_555
O2_10 In1_6 1_555 1_555
C1_10 O2_10 1_555 1_555
C2_10 C1_10 1_555 1_555
C3_10 C2_10 1_555 1_555
H1_10 C3_10 1_555 1_555
C4_10 C3_10 1_555 1_555
H2_10 C4_10 1_555 1_555
C5_10 C4_10 1_555 1_555
C7_10 C2_10 1_555 1_555
H8_10 C13_10 1_555 1_555
In3_3 O7_6 1_555 1_555
O5_10 In1_6 1_555 1_555
O6_10 In1_6 1_555 1_555
O7_6 C28_10 1_555 1_555
O8_6 In1_6 1_555 1_555
O9_6 In1_6 1_555 1_555
O10_6 In3_3 1_555 1_555
O11_6 In1_6 1_555 1_555
O12_6 In1_6 1_555 1_555
C15_10 O5_10 1_555 1_555
C16_10 C15_10 1_555 1_555
C17_10 C16_10 1_555 1_555
H9_10 C17_10 1_555 1_555
C18_10 C17_10 1_555 1_555
H10_10 C18_10 1_555 1_555
C19_10 C18_10 1_555 1_555
C20_10 C19_10 1_555 1_555
H11_10 C20_10 1_555 1_555
C21_10 C16_10 1_555 1_555
H12_10 C21_10 1_555 1_555
C22_10 C19_10 1_555 1_555
C23_10 C22_10 1_555 1_555
H13_10 C23_10 1_555 1_555
C24_10 C23_10 1_555 1_555
H14_10 C24_10 1_555 1_555
C25_10 C24_10 1_555 1_555
C26_10 C25_10 1_555 1_555
H15_10 C26_10 1_555 1_555
C27_10 C22_10 1_555 1_555
H16_10 C27_10 1_555 1_555
C28_10 O10_6 1_555 1_555
O6_10 C15_10 1_555 1_555
C20_10 C21_10 1_555 1_555
C25_10 C28_10 1_555 1_555
C26_10 C27_10 1_555 1_555
O3_6 C14_10 1_555 1_555
O4_6 C14_10 1_555 1_555
H3_10 C6_10 1_555 1_555
C9_10 C8_10 1_555 1_555
H5_10 C9_10 1_555 1_555
C10_10 C9_10 1_555 1_555
H6_10 C10_10 1_555 1_555
C11_10 C10_10 1_555 1_555
C12_10 C11_10 1_555 1_555
C14_10 C11_10 1_555 1_555
In2_3 O3_6 1_555 1_555
O4_6 In2_3 1_555 1_555
In1_7 O1_11 1_555 1_555
O1_11 C1_11 1_555 1_555
O2_11 In1_7 1_555 1_555
O3_7 C14_11 1_555 1_555
O4_7 C14_11 1_555 1_555
C1_11 O2_11 1_555 1_555
C2_11 C1_11 1_555 1_555
C3_11 C2_11 1_555 1_555
H1_11 C3_11 1_555 1_555
C4_11 C3_11 1_555 1_555
H2_11 C4_11 1_555 1_555
C5_11 C4_11 1_555 1_555
C6_11 C5_11 1_555 1_555
H3_11 C6_11 1_555 1_555
C7_11 C2_11 1_555 1_555
H4_11 C7_11 1_555 1_555
C8_11 C5_11 1_555 1_555
C9_11 C8_11 1_555 1_555
H5_11 C9_11 1_555 1_555
C10_11 C9_11 1_555 1_555
H6_11 C10_11 1_555 1_555
C11_11 C10_11 1_555 1_555
C12_11 C11_11 1_555 1_555
H7_11 C12_11 1_555 1_555
C13_11 C8_11 1_555 1_555
H8_11 C13_11 1_555 1_555
C14_11 C11_11 1_555 1_555
O5_11 In1_7 1_555 1_555
O6_11 In1_7 1_555 1_555
O7_7 C28_11 1_555 1_555
O8_7 In1_7 1_555 1_555
O9_7 In1_7 1_555 1_555
O11_7 In1_7 1_555 1_555
O12_7 In1_7 1_555 1_555
C15_11 O5_11 1_555 1_555
C16_11 C15_11 1_555 1_555
C17_11 C16_11 1_555 1_555
H9_11 C17_11 1_555 1_555
C18_11 C17_11 1_555 1_555
H10_11 C18_11 1_555 1_555
C19_11 C18_11 1_555 1_555
C20_11 C19_11 1_555 1_555
H11_11 C20_11 1_555 1_555
C21_11 C16_11 1_555 1_555
H12_11 C21_11 1_555 1_555
C22_11 C19_11 1_555 1_555
C23_11 C22_11 1_555 1_555
H13_11 C23_11 1_555 1_555
C24_11 C23_11 1_555 1_555
H14_11 C24_11 1_555 1_555
C25_11 C24_11 1_555 1_555
C26_11 C25_11 1_555 1_555
H15_11 C26_11 1_555 1_555
C27_11 C22_11 1_555 1_555
H16_11 C27_11 1_555 1_555
C28_11 O10_7 1_555 1_555
C6_11 C7_11 1_555 1_555
C12_11 C13_11 1_555 1_555
O6_11 C15_11 1_555 1_555
C20_11 C21_11 1_555 1_555
C25_11 C28_11 1_555 1_555
C26_11 C27_11 1_555 1_555
In1_8 O1_12 1_555 1_555
O1_12 C1_12 1_555 1_555
O2_12 In1_8 1_555 1_555
C1_12 O2_12 1_555 1_555
C2_12 C1_12 1_555 1_555
C3_12 C2_12 1_555 1_555
H1_12 C3_12 1_555 1_555
C4_12 C3_12 1_555 1_555
H2_12 C4_12 1_555 1_555
C5_12 C4_12 1_555 1_555
C7_12 C2_12 1_555 1_555
H8_12 C13_12 1_555 1_555
O5_12 In1_8 1_555 1_555
O6_12 In1_8 1_555 1_555
O8_8 In1_8 1_555 1_555
O9_8 In1_8 1_555 1_555
O11_8 In1_8 1_555 1_555
O12_8 In1_8 1_555 1_555
C15_12 O5_12 1_555 1_555
C16_12 C15_12 1_555 1_555
C17_12 C16_12 1_555 1_555
H9_12 C17_12 1_555 1_555
C18_12 C17_12 1_555 1_555
C19_12 C18_12 1_555 1_555
C20_12 C19_12 1_555 1_555
H11_12 C20_12 1_555 1_555
C21_12 C16_12 1_555 1_555
H12_12 C21_12 1_555 1_555
O6_12 C15_12 1_555 1_555
C20_12 C21_12 1_555 1_555
O7_8 C28_12 1_555 1_555
C23_12 C22_12 1_555 1_555
C24_12 C23_12 1_555 1_555
H14_12 C24_12 1_555 1_555
C25_12 C24_12 1_555 1_555
C26_12 C25_12 1_555 1_555
H15_12 C26_12 1_555 1_555
C27_12 C22_12 1_555 1_555
H16_12 C27_12 1_555 1_555
C28_12 O10_8 1_555 1_555
C25_12 C28_12 1_555 1_555
C26_12 C27_12 1_555 1_555
O3_8 C14_12 1_555 1_555
O4_8 C14_12 1_555 1_555
H3_12 C6_12 1_555 1_555
C9_12 C8_12 1_555 1_555
H5_12 C9_12 1_555 1_555
C10_12 C9_12 1_555 1_555
H6_12 C10_12 1_555 1_555
C11_12 C10_12 1_555 1_555
C12_12 C11_12 1_555 1_555
C14_12 C11_12 1_555 1_555
O9_8 C14_13 1_555 1_555
O12_8 C14_13 1_555 1_555
C9_13 C8_13 1_555 1_555
C10_13 C9_13 1_555 1_555
H6_13 C10_13 1_555 1_555
C11_13 C10_13 1_555 1_555
C12_13 C11_13 1_555 1_555
C14_13 C11_13 1_555 1_555
In2_3 O1_13 1_555 1_555
O1_13 C1_13 1_555 1_555
O2_13 In2_3 1_555 1_555
C1_13 O2_13 1_555 1_555
C2_13 C1_13 1_555 1_555
C3_13 C2_13 1_555 1_555
H1_13 C3_13 1_555 1_555
C4_13 C3_13 1_555 1_555
C5_13 C4_13 1_555 1_555
C7_13 C2_13 1_555 1_555
O5_13 In2_3 1_555 1_555
O6_13 In2_3 1_555 1_555
O9_7 C28_13 1_555 1_555
C15_13 O5_13 1_555 1_555
C16_13 C15_13 1_555 1_555
C17_13 C16_13 1_555 1_555
H9_13 C17_13 1_555 1_555
C18_13 C17_13 1_555 1_555
H10_13 C18_13 1_555 1_555
C19_13 C18_13 1_555 1_555
C20_13 C19_13 1_555 1_555
H11_13 C20_13 1_555 1_555
C21_13 C16_13 1_555 1_555
H12_13 C21_13 1_555 1_555
C22_13 C19_13 1_555 1_555
C23_13 C22_13 1_555 1_555
H13_13 C23_13 1_555 1_555
C24_13 C23_13 1_555 1_555
H14_13 C24_13 1_555 1_555
C25_13 C24_13 1_555 1_555
C26_13 C25_13 1_555 1_555
H15_13 C26_13 1_555 1_555
C27_13 C22_13 1_555 1_555
H16_13 C27_13 1_555 1_555
C28_13 O12_7 1_555 1_555
O6_13 C15_13 1_555 1_555
C20_13 C21_13 1_555 1_555
C25_13 C28_13 1_555 1_555
C26_13 C27_13 1_555 1_555
In3_3 O1_14 1_555 1_555
O1_14 C1_14 1_555 1_555
O2_14 In3_3 1_555 1_555
O8_8 C14_14 1_555 1_555
O11_8 C14_14 1_555 1_555
C1_14 O2_14 1_555 1_555
C2_14 C1_14 1_555 1_555
C3_14 C2_14 1_555 1_555
H1_14 C3_14 1_555 1_555
C4_14 C3_14 1_555 1_555
H2_13 C4_14 1_555 1_555
C5_14 C4_14 1_555 1_555
C6_13 C5_14 1_555 1_555
H3_13 C6_13 1_555 1_555
C7_14 C2_14 1_555 1_555
H4_13 C7_14 1_555 1_555
C8_14 C5_14 1_555 1_555
C9_14 C8_14 1_555 1_555
H5_13 C9_14 1_555 1_555
C10_14 C9_14 1_555 1_555
H6_14 C10_14 1_555 1_555
C11_14 C10_14 1_555 1_555
C12_14 C11_14 1_555 1_555
H7_13 C12_14 1_555 1_555
C13_13 C8_14 1_555 1_555
H8_13 C13_13 1_555 1_555
C14_14 C11_14 1_555 1_555
O5_14 In3_3 1_555 1_555
O6_14 In3_3 1_555 1_555
O8_7 C28_14 1_555 1_555
C15_14 O5_14 1_555 1_555
C16_14 C15_14 1_555 1_555
C17_14 C16_14 1_555 1_555
H9_14 C17_14 1_555 1_555
C18_14 C17_14 1_555 1_555
H10_14 C18_14 1_555 1_555
C19_14 C18_14 1_555 1_555
C20_14 C19_14 1_555 1_555
H11_14 C20_14 1_555 1_555
C21_14 C16_14 1_555 1_555
H12_14 C21_14 1_555 1_555
C22_14 C19_14 1_555 1_555
C23_14 C22_14 1_555 1_555
H13_14 C23_14 1_555 1_555
C24_14 C23_14 1_555 1_555
H14_14 C24_14 1_555 1_555
C25_14 C24_14 1_555 1_555
C26_14 C25_14 1_555 1_555
H15_14 C26_14 1_555 1_555
C27_14 C22_14 1_555 1_555
H16_14 C27_14 1_555 1_555
C28_14 O11_7 1_555 1_555
C6_13 C7_14 1_555 1_555
C12_14 C13_13 1_555 1_555
O6_14 C15_14 1_555 1_555
C20_14 C21_14 1_555 1_555
C25_14 C28_14 1_555 1_555
C26_14 C27_14 1_555 1_555
O9_6 C14_15 1_555 1_555
O12_6 C14_15 1_555 1_555
H3_14 C6_14 1_555 1_555
C9_15 C8_15 1_555 1_555
H5_14 C9_15 1_555 1_555
C10_15 C9_15 1_555 1_555
H6_15 C10_15 1_555 1_555
C11_15 C10_15 1_555 1_555
C12_15 C11_15 1_555 1_555
C14_15 C11_15 1_555 1_555
In2_4 O1_15 1_555 1_555
O1_15 C1_15 1_555 1_555
O2_15 In2_4 1_555 1_555
C1_15 O2_15 1_555 1_555
C2_15 C1_15 1_555 1_555
C3_15 C2_15 1_555 1_555
H1_15 C3_15 1_555 1_555
C4_15 C3_15 1_555 1_555
H2_14 C4_15 1_555 1_555
C5_15 C4_15 1_555 1_555
C7_15 C2_15 1_555 1_555
H8_14 C13_14 1_555 1_555
O5_15 In2_4 1_555 1_555
O6_15 In2_4 1_555 1_555
O9_5 C28_15 1_555 1_555
C15_15 O5_15 1_555 1_555
C16_15 C15_15 1_555 1_555
C17_15 C16_15 1_555 1_555
H9_15 C17_15 1_555 1_555
C18_15 C17_15 1_555 1_555
H10_15 C18_15 1_555 1_555
C19_15 C18_15 1_555 1_555
C20_15 C19_15 1_555 1_555
H11_15 C20_15 1_555 1_555
C21_15 C16_15 1_555 1_555
H12_15 C21_15 1_555 1_555
C22_15 C19_15 1_555 1_555
C23_15 C22_15 1_555 1_555
H13_15 C23_15 1_555 1_555
C24_15 C23_15 1_555 1_555
H14_15 C24_15 1_555 1_555
C25_15 C24_15 1_555 1_555
C26_15 C25_15 1_555 1_555
H15_15 C26_15 1_555 1_555
C27_15 C22_15 1_555 1_555
H16_15 C27_15 1_555 1_555
C28_15 O12_5 1_555 1_555
O6_15 C15_15 1_555 1_555
C20_15 C21_15 1_555 1_555
C25_15 C28_15 1_555 1_555
C26_15 C27_15 1_555 1_555
O8_5 C28_16 1_555 1_555
C23_16 C22_16 1_555 1_555
C24_16 C23_16 1_555 1_555
H14_16 C24_16 1_555 1_555
C25_16 C24_16 1_555 1_555
C26_16 C25_16 1_555 1_555
H15_16 C26_16 1_555 1_555
C27_16 C22_16 1_555 1_555
H16_16 C27_16 1_555 1_555
C28_16 O11_5 1_555 1_555
C25_16 C28_16 1_555 1_555
C26_16 C27_16 1_555 1_555
In3_4 O1_16 1_555 1_555
O1_16 C1_16 1_555 1_555
O2_16 In3_4 1_555 1_555
O8_6 C14_16 1_555 1_555
O11_6 C14_16 1_555 1_555
C1_16 O2_16 1_555 1_555
C2_16 C1_16 1_555 1_555
C3_16 C2_16 1_555 1_555
H1_16 C3_16 1_555 1_555
C4_16 C3_16 1_555 1_555
H2_15 C4_16 1_555 1_555
C5_16 C4_16 1_555 1_555
C6_15 C5_16 1_555 1_555
H3_15 C6_15 1_555 1_555
C7_16 C2_16 1_555 1_555
H4_15 C7_16 1_555 1_555
C8_16 C5_16 1_555 1_555
C9_16 C8_16 1_555 1_555
H5_15 C9_16 1_555 1_555
C10_16 C9_16 1_555 1_555
H6_16 C10_16 1_555 1_555
C11_16 C10_16 1_555 1_555
C12_16 C11_16 1_555 1_555
H7_15 C12_16 1_555 1_555
C13_15 C8_16 1_555 1_555
H8_15 C13_15 1_555 1_555
C14_16 C11_16 1_555 1_555
O5_16 In3_4 1_555 1_555
O6_16 In3_4 1_555 1_555
C15_16 O5_16 1_555 1_555
C16_16 C15_16 1_555 1_555
C17_16 C16_16 1_555 1_555
H9_16 C17_16 1_555 1_555
C18_16 C17_16 1_555 1_555
C19_16 C18_16 1_555 1_555
C20_16 C19_16 1_555 1_555
H11_16 C20_16 1_555 1_555
C21_16 C16_16 1_555 1_555
H12_16 C21_16 1_555 1_555
C6_15 C7_16 1_555 1_555
C12_16 C13_15 1_555 1_555
O6_16 C15_16 1_555 1_555
C20_16 C21_16 1_555 1_555
H3_16 C6_16 1_555 1_555
H8_16 C13_16 1_555 1_555
H25 C45 1_555 1_555
C46 C45 1_555 1_555
H26 C46 1_555 1_555
C51 C50 1_555 1_555
H29 C51 1_555 1_555
In6 O19 1_555 1_555
O19 C56 1_555 1_555
O22 In6 1_555 1_555
H30 C52 1_555 1_555
C53 C52 1_555 1_555
C54 C53 1_555 1_555
C56 O22 1_555 1_555
C53 C56 1_555 1_555
In4 O13 1_555 1_555
O13 C29 1_555 1_555
O14 In4 1_555 1_555
C29 O14 1_555 1_555
C30 C29 1_555 1_555
C31 C30 1_555 1_555
H17 C31 1_555 1_555
C32 C31 1_555 1_555
H18 C32 1_555 1_555
C33 C32 1_555 1_555
C34 C33 1_555 1_555
H19 C34 1_555 1_555
C35 C30 1_555 1_555
H20 C35 1_555 1_555
C36 C33 1_555 1_555
C37 C36 1_555 1_555
H21 C37 1_555 1_555
O17 In4 1_555 1_555
O18 In4 1_555 1_555
O20 In4 1_555 1_555
O21 In4 1_555 1_555
O23 In4 1_555 1_555
O24 In4 1_555 1_555
C43 O17 1_555 1_555
C44 C43 1_555 1_555
C48 C47 1_555 1_555
H27 C48 1_555 1_555
C49 C44 1_555 1_555
H28 C49 1_555 1_555
C34 C35 1_555 1_555
O18 C43 1_555 1_555
C48 C49 1_555 1_555
O15 C42 1_555 1_555
O16 C42 1_555 1_555
H22 C38 1_555 1_555
C39 C38 1_555 1_555
C40 C39 1_555 1_555
H23 C40 1_555 1_555
H24 C41 1_555 1_555
C42 C39 1_555 1_555
In5 O15 1_555 1_555
H32 C55 1_555 1_555
O16 In5 1_555 1_555
C40 C41 1_555 1_555
In6_2 O19_2 1_555 1_555
O19_2 C56_2 1_555 1_555
O22_2 In6_2 1_555 1_555
H25_2 C45_2 1_555 1_555
C46_2 C45_2 1_555 1_555
H26_2 C46_2 1_555 1_555
C51_2 C50_2 1_555 1_555
H29_2 C51_2 1_555 1_555
C52_2 C51_2 1_555 1_555
H30_2 C52_2 1_555 1_555
C53_2 C52_2 1_555 1_555
C54_2 C53_2 1_555 1_555
C56_2 O22_2 1_555 1_555
C53_2 C56_2 1_555 1_555
O15_2 C42_2 1_555 1_555
O16_2 C42_2 1_555 1_555
C37_2 C36_2 1_555 1_555
H21_2 C37_2 1_555 1_555
C38_2 C37_2 1_555 1_555
H22_2 C38_2 1_555 1_555
C39_2 C38_2 1_555 1_555
C40_2 C39_2 1_555 1_555
H23_2 C40_2 1_555 1_555
C41_2 C36_2 1_555 1_555
H24_2 C41_2 1_555 1_555
C42_2 C39_2 1_555 1_555
In5_2 O15_2 1_555 1_555
O16_2 In5_2 1_555 1_555
C40_2 C41_2 1_555 1_555
In4_2 O13_2 1_555 1_555
O13_2 C29_2 1_555 1_555
O14_2 In4_2 1_555 1_555
C29_2 O14_2 1_555 1_555
C30_2 C29_2 1_555 1_555
C31_2 C30_2 1_555 1_555
H17_2 C31_2 1_555 1_555
C32_2 C31_2 1_555 1_555
H18_2 C32_2 1_555 1_555
C33_2 C32_2 1_555 1_555
C34_2 C33_2 1_555 1_555
H19_2 C34_2 1_555 1_555
C35_2 C30_2 1_555 1_555
H20_2 C35_2 1_555 1_555
O17_2 In4_2 1_555 1_555
O18_2 In4_2 1_555 1_555
O20_2 In4_2 1_555 1_555
O21_2 In4_2 1_555 1_555
O23_2 In4_2 1_555 1_555
O24_2 In4_2 1_555 1_555
C43_2 O17_2 1_555 1_555
C44_2 C43_2 1_555 1_555
C48_2 C47_2 1_555 1_555
H27_2 C48_2 1_555 1_555
C49_2 C44_2 1_555 1_555
H28_2 C49_2 1_555 1_555
H32_2 C55_2 1_555 1_555
C34_2 C35_2 1_555 1_555
O18_2 C43_2 1_555 1_555
C48_2 C49_2 1_555 1_555
In4_3 O13_3 1_555 1_555
O13_3 C29_3 1_555 1_555
O14_3 In4_3 1_555 1_555
O15_3 C42_3 1_555 1_555
O16_3 C42_3 1_555 1_555
C29_3 O14_3 1_555 1_555
C30_3 C29_3 1_555 1_555
C31_3 C30_3 1_555 1_555
H17_3 C31_3 1_555 1_555
C32_3 C31_3 1_555 1_555
H18_3 C32_3 1_555 1_555
C33_3 C32_3 1_555 1_555
C34_3 C33_3 1_555 1_555
H19_3 C34_3 1_555 1_555
C35_3 C30_3 1_555 1_555
H20_3 C35_3 1_555 1_555
C36_3 C33_3 1_555 1_555
C37_3 C36_3 1_555 1_555
H21_3 C37_3 1_555 1_555
C38_3 C37_3 1_555 1_555
H22_3 C38_3 1_555 1_555
C39_3 C38_3 1_555 1_555
C40_3 C39_3 1_555 1_555
H23_3 C40_3 1_555 1_555
C41_3 C36_3 1_555 1_555
H24_3 C41_3 1_555 1_555
C42_3 C39_3 1_555 1_555
In6_2 O15_3 1_555 1_555
In5_2 O19_3 1_555 1_555
O17_3 In4_3 1_555 1_555
O18_3 In4_3 1_555 1_555
O19_3 C56_3 1_555 1_555
O20_3 In4_3 1_555 1_555
O21_3 In4_3 1_555 1_555
O22_3 In5_2 1_555 1_555
O23_3 In4_3 1_555 1_555
O24_3 In4_3 1_555 1_555
C43_3 O17_3 1_555 1_555
C44_3 C43_3 1_555 1_555
C45_3 C44_3 1_555 1_555
H25_3 C45_3 1_555 1_555
C46_3 C45_3 1_555 1_555
H26_3 C46_3 1_555 1_555
C47_3 C46_3 1_555 1_555
C48_3 C47_3 1_555 1_555
H27_3 C48_3 1_555 1_555
C49_3 C44_3 1_555 1_555
H28_3 C49_3 1_555 1_555
C50_3 C47_3 1_555 1_555
C51_3 C50_3 1_555 1_555
H29_3 C51_3 1_555 1_555
C52_3 C51_3 1_555 1_555
H30_3 C52_3 1_555 1_555
C53_3 C52_3 1_555 1_555
C54_3 C53_3 1_555 1_555
H31_3 C54_3 1_555 1_555
C55_3 C50_3 1_555 1_555
H32_3 C55_3 1_555 1_555
C56_3 O22_3 1_555 1_555
O16_3 In6_2 1_555 1_555
C34_3 C35_3 1_555 1_555
C40_3 C41_3 1_555 1_555
O18_3 C43_3 1_555 1_555
C48_3 C49_3 1_555 1_555
C53_3 C56_3 1_555 1_555
C54_3 C55_3 1_555 1_555
O15_4 C42_4 1_555 1_555
O16_4 C42_4 1_555 1_555
H22_4 C38_4 1_555 1_555
C39_4 C38_4 1_555 1_555
C40_4 C39_4 1_555 1_555
H23_4 C40_4 1_555 1_555
H24_4 C41_4 1_555 1_555
C42_4 C39_4 1_555 1_555
In6 O15_4 1_555 1_555
O16_4 In6 1_555 1_555
C40_4 C41_4 1_555 1_555
In4_4 O13_4 1_555 1_555
O13_4 C29_4 1_555 1_555
O14_4 In4_4 1_555 1_555
C29_4 O14_4 1_555 1_555
C30_4 C29_4 1_555 1_555
C31_4 C30_4 1_555 1_555
H17_4 C31_4 1_555 1_555
C32_4 C31_4 1_555 1_555
H18_4 C32_4 1_555 1_555
C33_4 C32_4 1_555 1_555
C34_4 C33_4 1_555 1_555
H19_4 C34_4 1_555 1_555
C35_4 C30_4 1_555 1_555
H20_4 C35_4 1_555 1_555
O17_4 In4_4 1_555 1_555
O18_4 In4_4 1_555 1_555
O20_4 In4_4 1_555 1_555
O21_4 In4_4 1_555 1_555
O23_4 In4_4 1_555 1_555
O24_4 In4_4 1_555 1_555
C43_4 O17_4 1_555 1_555
C44_4 C43_4 1_555 1_555
C45_4 C44_4 1_555 1_555
H25_4 C45_4 1_555 1_555
C46_4 C45_4 1_555 1_555
H26_4 C46_4 1_555 1_555
C47_4 C46_4 1_555 1_555
C48_4 C47_4 1_555 1_555
H27_4 C48_4 1_555 1_555
C49_4 C44_4 1_555 1_555
H28_4 C49_4 1_555 1_555
C50_4 C47_4 1_555 1_555
C51_4 C50_4 1_555 1_555
H29_4 C51_4 1_555 1_555
C34_4 C35_4 1_555 1_555
O18_4 C43_4 1_555 1_555
C48_4 C49_4 1_555 1_555
In5 O19_4 1_555 1_555
O19_4 C56_4 1_555 1_555
O22_4 In5 1_555 1_555
H30_4 C52_4 1_555 1_555
C53_4 C52_4 1_555 1_555
C54_4 C53_4 1_555 1_555
H31_4 C54_4 1_555 1_555
H32_4 C55_4 1_555 1_555
C56_4 O22_4 1_555 1_555
C53_4 C56_4 1_555 1_555
C54_4 C55_4 1_555 1_555
In6_2 O13_5 1_555 1_555
O13_5 C29_5 1_555 1_555
O14_5 In6_2 1_555 1_555
C29_5 O14_5 1_555 1_555
C30_5 C29_5 1_555 1_555
C34_5 C33_5 1_555 1_555
H19_5 C34_5 1_555 1_555
C35_5 C30_5 1_555 1_555
H20_5 C35_5 1_555 1_555
H24_5 C41_5 1_555 1_555
O17_5 In6_2 1_555 1_555
O18_5 In6_2 1_555 1_555
O21_4 C56_5 1_555 1_555
C43_5 O17_5 1_555 1_555
C44_5 C43_5 1_555 1_555
C45_5 C44_5 1_555 1_555
H25_5 C45_5 1_555 1_555
C46_5 C45_5 1_555 1_555
H26_5 C46_5 1_555 1_555
C47_5 C46_5 1_555 1_555
C48_5 C47_5 1_555 1_555
H27_5 C48_5 1_555 1_555
C49_5 C44_5 1_555 1_555
H28_5 C49_5 1_555 1_555
C50_5 C47_5 1_555 1_555
C51_5 C50_5 1_555 1_555
H29_5 C51_5 1_555 1_555
C52_5 C51_5 1_555 1_555
H30_5 C52_5 1_555 1_555
C53_5 C52_5 1_555 1_555
C54_5 C53_5 1_555 1_555
H31_5 C54_5 1_555 1_555
C55_5 C50_5 1_555 1_555
H32_5 C55_5 1_555 1_555
C56_5 O24_4 1_555 1_555
C34_5 C35_5 1_555 1_555
O18_5 C43_5 1_555 1_555
C48_5 C49_5 1_555 1_555
C53_5 C56_5 1_555 1_555
C54_5 C55_5 1_555 1_555
O20 C42_5 1_555 1_555
O23 C42_5 1_555 1_555
H17_5 C31_5 1_555 1_555
C32_5 C31_5 1_555 1_555
H18_5 C32_5 1_555 1_555
C37_4 C36_4 1_555 1_555
H21_4 C37_4 1_555 1_555
C38_5 C37_4 1_555 1_555
H22_5 C38_5 1_555 1_555
C39_5 C38_5 1_555 1_555
C40_5 C39_5 1_555 1_555
C42_5 C39_5 1_555 1_555
In6 O13_6 1_555 1_555
O13_6 C29_6 1_555 1_555
O14_6 In6 1_555 1_555
C29_6 O14_6 1_555 1_555
C30_6 C29_6 1_555 1_555
C34_6 C33_6 1_555 1_555
H19_6 C34_6 1_555 1_555
C35_6 C30_6 1_555 1_555
H20_6 C35_6 1_555 1_555
O17_6 In6 1_555 1_555
O18_6 In6 1_555 1_555
O21_3 C56_6 1_555 1_555
C43_6 O17_6 1_555 1_555
C44_6 C43_6 1_555 1_555
C45_6 C44_6 1_555 1_555
H25_6 C45_6 1_555 1_555
C46_6 C45_6 1_555 1_555
H26_6 C46_6 1_555 1_555
C47_6 C46_6 1_555 1_555
C48_6 C47_6 1_555 1_555
H27_6 C48_6 1_555 1_555
C49_6 C44_6 1_555 1_555
H28_6 C49_6 1_555 1_555
C50_6 C47_6 1_555 1_555
C51_6 C50_6 1_555 1_555
H29_6 C51_6 1_555 1_555
C52_6 C51_6 1_555 1_555
H30_6 C52_6 1_555 1_555
C53_6 C52_6 1_555 1_555
C54_6 C53_6 1_555 1_555
H31_6 C54_6 1_555 1_555
C55_6 C50_6 1_555 1_555
H32_6 C55_6 1_555 1_555
C56_6 O24_3 1_555 1_555
C34_6 C35_6 1_555 1_555
O18_6 C43_6 1_555 1_555
C48_6 C49_6 1_555 1_555
C53_6 C56_6 1_555 1_555
C54_6 C55_6 1_555 1_555
O20_2 C42_6 1_555 1_555
O23_2 C42_6 1_555 1_555
C37_5 C36_5 1_555 1_555
H21_5 C37_5 1_555 1_555
C38_6 C37_5 1_555 1_555
H22_6 C38_6 1_555 1_555
C39_6 C38_6 1_555 1_555
C40_6 C39_6 1_555 1_555
C42_6 C39_6 1_555 1_555
In5 O13_7 1_555 1_555
O13_7 C29_7 1_555 1_555
O14_7 In5 1_555 1_555
O20_3 C42_7 1_555 1_555
O23_3 C42_7 1_555 1_555
C29_7 O14_7 1_555 1_555
C30_7 C29_7 1_555 1_555
C31_6 C30_7 1_555 1_555
H17_6 C31_6 1_555 1_555
C32_6 C31_6 1_555 1_555
H18_6 C32_6 1_555 1_555
C33_7 C32_6 1_555 1_555
C34_7 C33_7 1_555 1_555
H19_7 C34_7 1_555 1_555
C35_7 C30_7 1_555 1_555
H20_7 C35_7 1_555 1_555
C36_6 C33_7 1_555 1_555
C37_6 C36_6 1_555 1_555
H21_6 C37_6 1_555 1_555
C38_7 C37_6 1_555 1_555
H22_7 C38_7 1_555 1_555
C39_7 C38_7 1_555 1_555
C40_7 C39_7 1_555 1_555
H23_6 C40_7 1_555 1_555
C41_6 C36_6 1_555 1_555
H24_6 C41_6 1_555 1_555
C42_7 C39_7 1_555 1_555
O17_7 In5 1_555 1_555
O18_7 In5 1_555 1_555
O21_2 C56_7 1_555 1_555
C43_7 O17_7 1_555 1_555
C44_7 C43_7 1_555 1_555
C45_7 C44_7 1_555 1_555
H25_7 C45_7 1_555 1_555
C46_7 C45_7 1_555 1_555
H26_7 C46_7 1_555 1_555
C47_7 C46_7 1_555 1_555
C48_7 C47_7 1_555 1_555
H27_7 C48_7 1_555 1_555
C49_7 C44_7 1_555 1_555
H28_7 C49_7 1_555 1_555
C50_7 C47_7 1_555 1_555
C51_7 C50_7 1_555 1_555
H29_7 C51_7 1_555 1_555
C52_7 C51_7 1_555 1_555
H30_7 C52_7 1_555 1_555
C53_7 C52_7 1_555 1_555
C54_7 C53_7 1_555 1_555
H31_7 C54_7 1_555 1_555
C55_7 C50_7 1_555 1_555
H32_7 C55_7 1_555 1_555
C56_7 O24_2 1_555 1_555
C34_7 C35_7 1_555 1_555
C40_7 C41_6 1_555 1_555
O18_7 C43_7 1_555 1_555
C48_7 C49_7 1_555 1_555
C53_7 C56_7 1_555 1_555
C54_7 C55_7 1_555 1_555
In5_2 O13_8 1_555 1_555
O13_8 C29_8 1_555 1_555
O14_8 In5_2 1_555 1_555
C29_8 O14_8 1_555 1_555
C30_8 C29_8 1_555 1_555
C31_7 C30_8 1_555 1_555
H17_7 C31_7 1_555 1_555
C32_7 C31_7 1_555 1_555
H18_7 C32_7 1_555 1_555
C33_8 C32_7 1_555 1_555
C34_8 C33_8 1_555 1_555
H19_8 C34_8 1_555 1_555
C35_8 C30_8 1_555 1_555
H20_8 C35_8 1_555 1_555
O17_8 In5_2 1_555 1_555
O18_8 In5_2 1_555 1_555
O21 C56_8 1_555 1_555
C43_8 O17_8 1_555 1_555
C44_8 C43_8 1_555 1_555
C45_8 C44_8 1_555 1_555
H25_8 C45_8 1_555 1_555
C46_8 C45_8 1_555 1_555
H26_8 C46_8 1_555 1_555
C47_8 C46_8 1_555 1_555
C48_8 C47_8 1_555 1_555
H27_8 C48_8 1_555 1_555
C49_8 C44_8 1_555 1_555
H28_8 C49_8 1_555 1_555
C50_8 C47_8 1_555 1_555
C51_8 C50_8 1_555 1_555
H29_8 C51_8 1_555 1_555
C52_8 C51_8 1_555 1_555
H30_8 C52_8 1_555 1_555
C53_8 C52_8 1_555 1_555
C54_8 C53_8 1_555 1_555
H31_8 C54_8 1_555 1_555
C55_8 C50_8 1_555 1_555
H32_8 C55_8 1_555 1_555
C56_8 O24 1_555 1_555
C34_8 C35_8 1_555 1_555
O18_8 C43_8 1_555 1_555
C48_8 C49_8 1_555 1_555
C53_8 C56_8 1_555 1_555
C54_8 C55_8 1_555 1_555
O20_4 C42_8 1_555 1_555
O23_4 C42_8 1_555 1_555
C37_7 C36_7 1_555 1_555
H21_7 C37_7 1_555 1_555
C38_8 C37_7 1_555 1_555
H22_8 C38_8 1_555 1_555
C39_8 C38_8 1_555 1_555
C40_8 C39_8 1_555 1_555
H23_7 C40_8 1_555 1_555
C41_7 C36_7 1_555 1_555
H24_7 C41_7 1_555 1_555
C42_8 C39_8 1_555 1_555
C40_8 C41_7 1_555 1_555
O15_5 C42_9 1_555 1_555
O16_5 C42_9 1_555 1_555
H17_8 C31_8 1_555 1_555
C32_8 C31_8 1_555 1_555
H18_8 C32_8 1_555 1_555
C37_8 C36_8 1_555 1_555
H21_8 C37_8 1_555 1_555
C38_9 C37_8 1_555 1_555
H22_9 C38_9 1_555 1_555
C39_9 C38_9 1_555 1_555
C40_9 C39_9 1_555 1_555
C42_9 C39_9 1_555 1_555
In5_3 O15_5 1_555 1_555
O16_5 In5_3 1_555 1_555
In4_5 O13_9 1_555 1_555
O13_9 C29_9 1_555 1_555
O14_9 In4_5 1_555 1_555
C29_9 O14_9 1_555 1_555
C30_9 C29_9 1_555 1_555
C34_9 C33_9 1_555 1_555
H19_9 C34_9 1_555 1_555
C35_9 C30_9 1_555 1_555
H20_9 C35_9 1_555 1_555
H24_8 C41_8 1_555 1_555
In6_3 O19_5 1_555 1_555
O17_9 In4_5 1_555 1_555
O18_9 In4_5 1_555 1_555
O19_5 C56_9 1_555 1_555
O20_5 In4_5 1_555 1_555
O21_5 In4_5 1_555 1_555
O22_5 In6_3 1_555 1_555
O23_5 In4_5 1_555 1_555
O24_5 In4_5 1_555 1_555
C43_9 O17_9 1_555 1_555
C44_9 C43_9 1_555 1_555
C45_9 C44_9 1_555 1_555
H25_9 C45_9 1_555 1_555
C46_9 C45_9 1_555 1_555
H26_9 C46_9 1_555 1_555
C47_9 C46_9 1_555 1_555
C48_9 C47_9 1_555 1_555
H27_9 C48_9 1_555 1_555
C49_9 C44_9 1_555 1_555
H28_9 C49_9 1_555 1_555
C50_9 C47_9 1_555 1_555
C51_9 C50_9 1_555 1_555
H29_9 C51_9 1_555 1_555
C52_9 C51_9 1_555 1_555
H30_9 C52_9 1_555 1_555
C53_9 C52_9 1_555 1_555
C54_9 C53_9 1_555 1_555
H31_9 C54_9 1_555 1_555
C55_9 C50_9 1_555 1_555
H32_9 C55_9 1_555 1_555
C56_9 O22_5 1_555 1_555
C34_9 C35_9 1_555 1_555
O18_9 C43_9 1_555 1_555
C48_9 C49_9 1_555 1_555
C53_9 C56_9 1_555 1_555
C54_9 C55_9 1_555 1_555
O15_6 C42_10 1_555 1_555
O16_6 C42_10 1_555 1_555
C37_9 C36_9 1_555 1_555
H21_9 C37_9 1_555 1_555
C38_10 C37_9 1_555 1_555
H22_10 C38_10 1_555 1_555
C39_10 C38_10 1_555 1_555
C40_10 C39_10 1_555 1_555
C42_10 C39_10 1_555 1_555
In5_4 O15_6 1_555 1_555
O16_6 In5_4 1_555 1_555
In4_6 O13_10 1_555 1_555
O13_10 C29_10 1_555 1_555
O14_10 In4_6 1_555 1_555
C29_10 O14_10 1_555 1_555
C30_10 C29_10 1_555 1_555
C34_10 C33_10 1_555 1_555
H19_10 C34_10 1_555 1_555
C35_10 C30_10 1_555 1_555
H20_10 C35_10 1_555 1_555
In6_4 O19_6 1_555 1_555
O17_10 In4_6 1_555 1_555
O18_10 In4_6 1_555 1_555
O19_6 C56_10 1_555 1_555
O20_6 In4_6 1_555 1_555
O21_6 In4_6 1_555 1_555
O22_6 In6_4 1_555 1_555
O23_6 In4_6 1_555 1_555
O24_6 In4_6 1_555 1_555
C43_10 O17_10 1_555 1_555
C44_10 C43_10 1_555 1_555
C45_10 C44_10 1_555 1_555
H25_10 C45_10 1_555 1_555
C46_10 C45_10 1_555 1_555
H26_10 C46_10 1_555 1_555
C47_10 C46_10 1_555 1_555
C48_10 C47_10 1_555 1_555
H27_10 C48_10 1_555 1_555
C49_10 C44_10 1_555 1_555
H28_10 C49_10 1_555 1_555
C50_10 C47_10 1_555 1_555
C51_10 C50_10 1_555 1_555
H29_10 C51_10 1_555 1_555
C52_10 C51_10 1_555 1_555
H30_10 C52_10 1_555 1_555
C53_10 C52_10 1_555 1_555
C54_10 C53_10 1_555 1_555
H31_10 C54_10 1_555 1_555
C55_10 C50_10 1_555 1_555
H32_10 C55_10 1_555 1_555
C56_10 O22_6 1_555 1_555
C34_10 C35_10 1_555 1_555
O18_10 C43_10 1_555 1_555
C48_10 C49_10 1_555 1_555
C53_10 C56_10 1_555 1_555
C54_10 C55_10 1_555 1_555
In4_7 O13_11 1_555 1_555
O13_11 C29_11 1_555 1_555
O14_11 In4_7 1_555 1_555
O15_7 C42_11 1_555 1_555
O16_7 C42_11 1_555 1_555
C29_11 O14_11 1_555 1_555
C30_11 C29_11 1_555 1_555
C31_9 C30_11 1_555 1_555
H17_9 C31_9 1_555 1_555
C32_9 C31_9 1_555 1_555
H18_9 C32_9 1_555 1_555
C33_11 C32_9 1_555 1_555
C34_11 C33_11 1_555 1_555
H19_11 C34_11 1_555 1_555
C35_11 C30_11 1_555 1_555
H20_11 C35_11 1_555 1_555
C36_10 C33_11 1_555 1_555
C37_10 C36_10 1_555 1_555
H21_10 C37_10 1_555 1_555
C38_11 C37_10 1_555 1_555
H22_11 C38_11 1_555 1_555
C39_11 C38_11 1_555 1_555
C40_11 C39_11 1_555 1_555
H23_9 C40_11 1_555 1_555
C41_9 C36_10 1_555 1_555
H24_9 C41_9 1_555 1_555
C42_11 C39_11 1_555 1_555
In6_4 O15_7 1_555 1_555
In5_4 O19_7 1_555 1_555
O17_11 In4_7 1_555 1_555
O18_11 In4_7 1_555 1_555
O19_7 C56_11 1_555 1_555
O20_7 In4_7 1_555 1_555
O21_7 In4_7 1_555 1_555
O22_7 In5_4 1_555 1_555
O23_7 In4_7 1_555 1_555
O24_7 In4_7 1_555 1_555
C43_11 O17_11 1_555 1_555
C44_11 C43_11 1_555 1_555
C45_11 C44_11 1_555 1_555
H25_11 C45_11 1_555 1_555
C46_11 C45_11 1_555 1_555
H26_11 C46_11 1_555 1_555
C47_11 C46_11 1_555 1_555
C48_11 C47_11 1_555 1_555
H27_11 C48_11 1_555 1_555
C49_11 C44_11 1_555 1_555
H28_11 C49_11 1_555 1_555
C50_11 C47_11 1_555 1_555
C51_11 C50_11 1_555 1_555
H29_11 C51_11 1_555 1_555
C52_11 C51_11 1_555 1_555
H30_11 C52_11 1_555 1_555
C53_11 C52_11 1_555 1_555
C54_11 C53_11 1_555 1_555
H31_11 C54_11 1_555 1_555
C55_11 C50_11 1_555 1_555
H32_11 C55_11 1_555 1_555
C56_11 O22_7 1_555 1_555
O16_7 In6_4 1_555 1_555
C34_11 C35_11 1_555 1_555
C40_11 C41_9 1_555 1_555
O18_11 C43_11 1_555 1_555
C48_11 C49_11 1_555 1_555
C53_11 C56_11 1_555 1_555
C54_11 C55_11 1_555 1_555
O15_8 C42_12 1_555 1_555
O16_8 C42_12 1_555 1_555
C37_11 C36_11 1_555 1_555
H21_11 C37_11 1_555 1_555
C38_12 C37_11 1_555 1_555
H22_12 C38_12 1_555 1_555
C39_12 C38_12 1_555 1_555
C40_12 C39_12 1_555 1_555
H23_10 C40_12 1_555 1_555
C41_10 C36_11 1_555 1_555
H24_10 C41_10 1_555 1_555
C42_12 C39_12 1_555 1_555
In6_3 O15_8 1_555 1_555
O16_8 In6_3 1_555 1_555
C40_12 C41_10 1_555 1_555
In4_8 O13_12 1_555 1_555
O13_12 C29_12 1_555 1_555
O14_12 In4_8 1_555 1_555
C29_12 O14_12 1_555 1_555
C30_12 C29_12 1_555 1_555
C31_10 C30_12 1_555 1_555
H17_10 C31_10 1_555 1_555
C32_10 C31_10 1_555 1_555
H18_10 C32_10 1_555 1_555
C33_12 C32_10 1_555 1_555
C34_12 C33_12 1_555 1_555
H19_12 C34_12 1_555 1_555
C35_12 C30_12 1_555 1_555
H20_12 C35_12 1_555 1_555
In5_3 O19_8 1_555 1_555
O17_12 In4_8 1_555 1_555
O18_12 In4_8 1_555 1_555
O19_8 C56_12 1_555 1_555
O20_8 In4_8 1_555 1_555
O21_8 In4_8 1_555 1_555
O22_8 In5_3 1_555 1_555
O23_8 In4_8 1_555 1_555
O24_8 In4_8 1_555 1_555
C43_12 O17_12 1_555 1_555
C44_12 C43_12 1_555 1_555
C45_12 C44_12 1_555 1_555
H25_12 C45_12 1_555 1_555
C46_12 C45_12 1_555 1_555
H26_12 C46_12 1_555 1_555
C47_12 C46_12 1_555 1_555
C48_12 C47_12 1_555 1_555
H27_12 C48_12 1_555 1_555
C49_12 C44_12 1_555 1_555
H28_12 C49_12 1_555 1_555
C50_12 C47_12 1_555 1_555
C51_12 C50_12 1_555 1_555
H29_12 C51_12 1_555 1_555
C52_12 C51_12 1_555 1_555
H30_12 C52_12 1_555 1_555
C53_12 C52_12 1_555 1_555
C54_12 C53_12 1_555 1_555
H31_12 C54_12 1_555 1_555
C55_12 C50_12 1_555 1_555
H32_12 C55_12 1_555 1_555
C56_12 O22_8 1_555 1_555
C34_12 C35_12 1_555 1_555
O18_12 C43_12 1_555 1_555
C48_12 C49_12 1_555 1_555
C53_12 C56_12 1_555 1_555
C54_12 C55_12 1_555 1_555
O20_7 C42_13 1_555 1_555
O23_7 C42_13 1_555 1_555
H22_13 C38_13 1_555 1_555
C39_13 C38_13 1_555 1_555
C40_13 C39_13 1_555 1_555
H23_11 C40_13 1_555 1_555
H24_11 C41_11 1_555 1_555
C42_13 C39_13 1_555 1_555
H32_13 C55_13 1_555 1_555
C40_13 C41_11 1_555 1_555
In5_3 O13_13 1_555 1_555
O13_13 C29_13 1_555 1_555
O14_13 In5_3 1_555 1_555
C29_13 O14_13 1_555 1_555
C30_13 C29_13 1_555 1_555
C31_11 C30_13 1_555 1_555
H17_11 C31_11 1_555 1_555
C32_11 C31_11 1_555 1_555
H18_11 C32_11 1_555 1_555
C33_13 C32_11 1_555 1_555
C34_13 C33_13 1_555 1_555
H19_13 C34_13 1_555 1_555
C35_13 C30_13 1_555 1_555
H20_13 C35_13 1_555 1_555
C36_12 C33_13 1_555 1_555
C37_12 C36_12 1_555 1_555
H21_12 C37_12 1_555 1_555
O17_13 In5_3 1_555 1_555
O18_13 In5_3 1_555 1_555
C43_13 O17_13 1_555 1_555
C44_13 C43_13 1_555 1_555
C48_13 C47_13 1_555 1_555
H27_13 C48_13 1_555 1_555
C49_13 C44_13 1_555 1_555
H28_13 C49_13 1_555 1_555
C34_13 C35_13 1_555 1_555
O18_13 C43_13 1_555 1_555
C48_13 C49_13 1_555 1_555
O21_6 C56_13 1_555 1_555
H30_13 C52_13 1_555 1_555
C53_13 C52_13 1_555 1_555
C54_13 C53_13 1_555 1_555
C56_13 O24_6 1_555 1_555
C53_13 C56_13 1_555 1_555
In5_4 O13_14 1_555 1_555
O13_14 C29_14 1_555 1_555
O14_14 In5_4 1_555 1_555
C29_14 O14_14 1_555 1_555
C30_14 C29_14 1_555 1_555
C31_12 C30_14 1_555 1_555
H17_12 C31_12 1_555 1_555
C32_12 C31_12 1_555 1_555
H18_12 C32_12 1_555 1_555
C33_14 C32_12 1_555 1_555
C34_14 C33_14 1_555 1_555
H19_14 C34_14 1_555 1_555
C35_14 C30_14 1_555 1_555
H20_14 C35_14 1_555 1_555
O17_14 In5_4 1_555 1_555
O18_14 In5_4 1_555 1_555
C43_14 O17_14 1_555 1_555
C44_14 C43_14 1_555 1_555
C48_14 C47_14 1_555 1_555
H27_14 C48_14 1_555 1_555
C49_14 C44_14 1_555 1_555
H28_14 C49_14 1_555 1_555
H32_14 C55_14 1_555 1_555
C34_14 C35_14 1_555 1_555
O18_14 C43_14 1_555 1_555
C48_14 C49_14 1_555 1_555
O20_8 C42_14 1_555 1_555
O23_8 C42_14 1_555 1_555
C37_13 C36_13 1_555 1_555
H21_13 C37_13 1_555 1_555
C38_14 C37_13 1_555 1_555
H22_14 C38_14 1_555 1_555
C39_14 C38_14 1_555 1_555
C40_14 C39_14 1_555 1_555
H23_12 C40_14 1_555 1_555
C41_12 C36_13 1_555 1_555
H24_12 C41_12 1_555 1_555
C42_14 C39_14 1_555 1_555
C40_14 C41_12 1_555 1_555
O21_5 C56_14 1_555 1_555
H25_13 C45_13 1_555 1_555
C46_13 C45_13 1_555 1_555
H26_13 C46_13 1_555 1_555
C51_13 C50_13 1_555 1_555
H29_13 C51_13 1_555 1_555
C52_14 C51_13 1_555 1_555
H30_14 C52_14 1_555 1_555
C53_14 C52_14 1_555 1_555
C54_14 C53_14 1_555 1_555
C56_14 O24_5 1_555 1_555
C53_14 C56_14 1_555 1_555
In6_4 O13_15 1_555 1_555
O13_15 C29_15 1_555 1_555
O14_15 In6_4 1_555 1_555
O20_5 C42_15 1_555 1_555
O23_5 C42_15 1_555 1_555
C29_15 O14_15 1_555 1_555
C30_15 C29_15 1_555 1_555
C31_13 C30_15 1_555 1_555
H17_13 C31_13 1_555 1_555
C32_13 C31_13 1_555 1_555
H18_13 C32_13 1_555 1_555
C33_15 C32_13 1_555 1_555
C34_15 C33_15 1_555 1_555
H19_15 C34_15 1_555 1_555
C35_15 C30_15 1_555 1_555
H20_15 C35_15 1_555 1_555
C36_14 C33_15 1_555 1_555
C37_14 C36_14 1_555 1_555
H21_14 C37_14 1_555 1_555
C38_15 C37_14 1_555 1_555
H22_15 C38_15 1_555 1_555
C39_15 C38_15 1_555 1_555
C40_15 C39_15 1_555 1_555
H23_13 C40_15 1_555 1_555
C41_13 C36_14 1_555 1_555
H24_13 C41_13 1_555 1_555
C42_15 C39_15 1_555 1_555
O17_15 In6_4 1_555 1_555
O18_15 In6_4 1_555 1_555
O21_8 C56_15 1_555 1_555
C43_15 O17_15 1_555 1_555
C44_15 C43_15 1_555 1_555
C45_14 C44_15 1_555 1_555
H25_14 C45_14 1_555 1_555
C46_14 C45_14 1_555 1_555
H26_14 C46_14 1_555 1_555
C47_15 C46_14 1_555 1_555
C48_15 C47_15 1_555 1_555
H27_15 C48_15 1_555 1_555
C49_15 C44_15 1_555 1_555
H28_15 C49_15 1_555 1_555
C50_14 C47_15 1_555 1_555
C51_14 C50_14 1_555 1_555
H29_14 C51_14 1_555 1_555
C52_15 C51_14 1_555 1_555
H30_15 C52_15 1_555 1_555
C53_15 C52_15 1_555 1_555
C54_15 C53_15 1_555 1_555
H31_15 C54_15 1_555 1_555
C55_15 C50_14 1_555 1_555
H32_15 C55_15 1_555 1_555
C56_15 O24_8 1_555 1_555
C34_15 C35_15 1_555 1_555
C40_15 C41_13 1_555 1_555
O18_15 C43_15 1_555 1_555
C48_15 C49_15 1_555 1_555
C53_15 C56_15 1_555 1_555
C54_15 C55_15 1_555 1_555
O21_7 C56_16 1_555 1_555
H30_16 C52_16 1_555 1_555
C53_16 C52_16 1_555 1_555
C54_16 C53_16 1_555 1_555
H31_16 C54_16 1_555 1_555
H32_16 C55_16 1_555 1_555
C56_16 O24_7 1_555 1_555
C53_16 C56_16 1_555 1_555
C54_16 C55_16 1_555 1_555
In6_3 O13_16 1_555 1_555
O13_16 C29_16 1_555 1_555
O14_16 In6_3 1_555 1_555
C29_16 O14_16 1_555 1_555
C30_16 C29_16 1_555 1_555
C31_14 C30_16 1_555 1_555
H17_14 C31_14 1_555 1_555
C32_14 C31_14 1_555 1_555
H18_14 C32_14 1_555 1_555
C33_16 C32_14 1_555 1_555
C34_16 C33_16 1_555 1_555
H19_16 C34_16 1_555 1_555
C35_16 C30_16 1_555 1_555
H20_16 C35_16 1_555 1_555
O17_16 In6_3 1_555 1_555
O18_16 In6_3 1_555 1_555
C43_16 O17_16 1_555 1_555
C44_16 C43_16 1_555 1_555
C45_15 C44_16 1_555 1_555
H25_15 C45_15 1_555 1_555
C46_15 C45_15 1_555 1_555
H26_15 C46_15 1_555 1_555
C47_16 C46_15 1_555 1_555
C48_16 C47_16 1_555 1_555
H27_16 C48_16 1_555 1_555
C49_16 C44_16 1_555 1_555
H28_16 C49_16 1_555 1_555
C50_15 C47_16 1_555 1_555
C51_15 C50_15 1_555 1_555
H29_15 C51_15 1_555 1_555
C34_16 C35_16 1_555 1_555
O18_16 C43_16 1_555 1_555
C48_16 C49_16 1_555 1_555
O20_6 C42_16 1_555 1_555
O23_6 C42_16 1_555 1_555
H22_16 C38_16 1_555 1_555
C39_16 C38_16 1_555 1_555
C40_16 C39_16 1_555 1_555
H23_14 C40_16 1_555 1_555
H24_14 C41_14 1_555 1_555
C42_16 C39_16 1_555 1_555
C40_16 C41_14 1_555 1_555
H17_15 C31_15 1_555 1_555
C32_15 C31_15 1_555 1_555
H18_15 C32_15 1_555 1_555
H24_15 C41_15 1_555 1_555
C37_15 C36_15 1_555 1_555
H21_15 C37_15 1_555 1_555
H25_16 C45_16 1_555 1_555
C46_16 C45_16 1_555 1_555
H26_16 C46_16 1_555 1_555
C51_16 C50_16 1_555 1_555
H29_16 C51_16 1_555 1_555
H24_16 C41_16 1_555 1_555
H17_16 C31_16 1_555 1_555
C32_16 C31_16 1_555 1_555
H18_16 C32_16 1_555 1_555
C37_16 C36_16 1_555 1_555
H21_16 C37_16 1_555 1_555
N1 C57 1_555 1_555
C58 N1 1_555 1_555
C58 H36 1_555 1_555
C58 H37 1_555 1_555
C58 H38 1_555 1_555
C57 H42 1_555 1_555
C57 H43 1_555 1_555
C57 H44 1_555 1_555
N1 H45 1_555 1_555
N1 H46 1_555 1_555
N1_2 C57_2 1_555 1_555
C58_2 N1_2 1_555 1_555
C58_2 H37_2 1_555 1_555
C58_2 H38_2 1_555 1_555
C57_2 H42_2 1_555 1_555
C57_2 H43_2 1_555 1_555
C57_2 H44_2 1_555 1_555
N1_2 H45_2 1_555 1_555
N1_2 H46_2 1_555 1_555
N1_3 C57_3 1_555 1_555
C58_3 N1_3 1_555 1_555
C58_3 H37_3 1_555 1_555
C58_3 H38_3 1_555 1_555
C57_3 H42_3 1_555 1_555
C57_3 H43_3 1_555 1_555
C57_3 H44_3 1_555 1_555
N1_3 H45_3 1_555 1_555
N1_3 H46_3 1_555 1_555
N1_4 C57_4 1_555 1_555
C58_4 N1_4 1_555 1_555
C58_4 H36_4 1_555 1_555
C58_4 H37_4 1_555 1_555
C58_4 H38_4 1_555 1_555
C57_4 H42_4 1_555 1_555
C57_4 H43_4 1_555 1_555
C57_4 H44_4 1_555 1_555
N1_4 H45_4 1_555 1_555
N1_4 H46_4 1_555 1_555
N1_5 C57_5 1_555 1_555
C58_5 N1_5 1_555 1_555
C58_5 H36_5 1_555 1_555
C58_5 H37_5 1_555 1_555
C58_5 H38_5 1_555 1_555
C57_5 H42_5 1_555 1_555
C57_5 H43_5 1_555 1_555
C57_5 H44_5 1_555 1_555
N1_5 H45_5 1_555 1_555
N1_5 H46_5 1_555 1_555
N1_6 C57_6 1_555 1_555
C58_6 N1_6 1_555 1_555
C58_6 H37_6 1_555 1_555
C58_6 H38_6 1_555 1_555
C57_6 H42_6 1_555 1_555
C57_6 H43_6 1_555 1_555
C57_6 H44_6 1_555 1_555
N1_6 H45_6 1_555 1_555
N1_6 H46_6 1_555 1_555
N1_7 C57_7 1_555 1_555
C58_7 N1_7 1_555 1_555
C58_7 H37_7 1_555 1_555
C58_7 H38_7 1_555 1_555
C57_7 H42_7 1_555 1_555
C57_7 H43_7 1_555 1_555
C57_7 H44_7 1_555 1_555
N1_7 H45_7 1_555 1_555
N1_7 H46_7 1_555 1_555
N1_8 C57_8 1_555 1_555
C58_8 N1_8 1_555 1_555
C58_8 H36_8 1_555 1_555
C58_8 H37_8 1_555 1_555
C58_8 H38_8 1_555 1_555
C57_8 H42_8 1_555 1_555
C57_8 H43_8 1_555 1_555
C57_8 H44_8 1_555 1_555
N1_8 H45_8 1_555 1_555
N1_8 H46_8 1_555 1_555
N1_9 C57_9 1_555 1_555
C58_9 N1_9 1_555 1_555
C58_9 H36_9 1_555 1_555
C58_9 H37_9 1_555 1_555
C58_9 H38_9 1_555 1_555
C57_9 H42_9 1_555 1_555
C57_9 H43_9 1_555 1_555
C57_9 H44_9 1_555 1_555
N1_9 H45_9 1_555 1_555
N1_9 H46_9 1_555 1_555
N1_10 C57_10 1_555 1_555
C58_10 N1_10 1_555 1_555
C58_10 H36_10 1_555 1_555
C58_10 H37_10 1_555 1_555
C58_10 H38_10 1_555 1_555
C57_10 H42_10 1_555 1_555
C57_10 H43_10 1_555 1_555
C57_10 H44_10 1_555 1_555
N1_10 H45_10 1_555 1_555
N1_10 H46_10 1_555 1_555
N1_11 C57_11 1_555 1_555
C58_11 N1_11 1_555 1_555
C58_11 H36_11 1_555 1_555
C58_11 H37_11 1_555 1_555
C58_11 H38_11 1_555 1_555
C57_11 H42_11 1_555 1_555
C57_11 H43_11 1_555 1_555
C57_11 H44_11 1_555 1_555
N1_11 H45_11 1_555 1_555
N1_11 H46_11 1_555 1_555
N1_12 C57_12 1_555 1_555
C58_12 N1_12 1_555 1_555
C58_12 H36_12 1_555 1_555
C58_12 H37_12 1_555 1_555
C58_12 H38_12 1_555 1_555
C57_12 H42_12 1_555 1_555
C57_12 H43_12 1_555 1_555
C57_12 H44_12 1_555 1_555
N1_12 H45_12 1_555 1_555
N1_12 H46_12 1_555 1_555
N1_13 C57_13 1_555 1_555
C58_13 N1_13 1_555 1_555
C58_13 H36_13 1_555 1_555
C58_13 H37_13 1_555 1_555
C58_13 H38_13 1_555 1_555
C57_13 H42_13 1_555 1_555
C57_13 H43_13 1_555 1_555
C57_13 H44_13 1_555 1_555
N1_13 H45_13 1_555 1_555
N1_13 H46_13 1_555 1_555
N1_14 C57_14 1_555 1_555
C58_14 N1_14 1_555 1_555
C58_14 H36_14 1_555 1_555
C58_14 H37_14 1_555 1_555
C58_14 H38_14 1_555 1_555
C57_14 H42_14 1_555 1_555
C57_14 H43_14 1_555 1_555
C57_14 H44_14 1_555 1_555
N1_14 H45_14 1_555 1_555
N1_14 H46_14 1_555 1_555
N1_15 C57_15 1_555 1_555
C58_15 N1_15 1_555 1_555
C58_15 H36_15 1_555 1_555
C58_15 H37_15 1_555 1_555
C58_15 H38_15 1_555 1_555
C57_15 H42_15 1_555 1_555
C57_15 H43_15 1_555 1_555
C57_15 H44_15 1_555 1_555
N1_15 H45_15 1_555 1_555
N1_15 H46_15 1_555 1_555
N1_16 C57_16 1_555 1_555
C58_16 N1_16 1_555 1_555
C58_16 H36_16 1_555 1_555
C58_16 H37_16 1_555 1_555
C58_16 H38_16 1_555 1_555
C57_16 H42_16 1_555 1_555
C57_16 H43_16 1_555 1_555
C57_16 H44_16 1_555 1_555
N1_16 H45_16 1_555 1_555
N1_16 H46_16 1_555 1_555
N1_17 C57_17 1_555 1_555
C58_17 N1_17 1_555 1_555
C58_17 H36_17 1_555 1_555
C58_17 H37_17 1_555 1_555
C58_17 H38_17 1_555 1_555
C57_17 H42_17 1_555 1_555
C57_17 H43_17 1_555 1_555
C57_17 H44_17 1_555 1_555
N1_17 H45_17 1_555 1_555
N1_17 H46_17 1_555 1_555
N1_18 C57_18 1_555 1_555
C58_18 N1_18 1_555 1_555
C58_18 H37_18 1_555 1_555
C58_18 H38_18 1_555 1_555
C57_18 H42_18 1_555 1_555
C57_18 H43_18 1_555 1_555
C57_18 H44_18 1_555 1_555
N1_18 H45_18 1_555 1_555
N1_18 H46_18 1_555 1_555
N1_19 C57_19 1_555 1_555
C58_19 N1_19 1_555 1_555
C58_19 H37_19 1_555 1_555
C58_19 H38_19 1_555 1_555
C57_19 H42_19 1_555 1_555
C57_19 H43_19 1_555 1_555
C57_19 H44_19 1_555 1_555
N1_19 H45_19 1_555 1_555
N1_19 H46_19 1_555 1_555
N1_20 C57_20 1_555 1_555
C58_20 N1_20 1_555 1_555
C58_20 H36_20 1_555 1_555
C58_20 H37_20 1_555 1_555
C58_20 H38_20 1_555 1_555
C57_20 H42_20 1_555 1_555
C57_20 H43_20 1_555 1_555
C57_20 H44_20 1_555 1_555
N1_20 H45_20 1_555 1_555
N1_20 H46_20 1_555 1_555
N1_21 C57_21 1_555 1_555
C58_21 N1_21 1_555 1_555
C58_21 H36_21 1_555 1_555
C58_21 H37_21 1_555 1_555
C58_21 H38_21 1_555 1_555
C57_21 H42_21 1_555 1_555
C57_21 H43_21 1_555 1_555
C57_21 H44_21 1_555 1_555
N1_21 H45_21 1_555 1_555
N1_21 H46_21 1_555 1_555
N1_22 C57_22 1_555 1_555
C58_22 N1_22 1_555 1_555
C58_22 H37_22 1_555 1_555
C58_22 H38_22 1_555 1_555
C57_22 H42_22 1_555 1_555
C57_22 H43_22 1_555 1_555
C57_22 H44_22 1_555 1_555
N1_22 H45_22 1_555 1_555
N1_22 H46_22 1_555 1_555
N1_23 C57_23 1_555 1_555
C58_23 N1_23 1_555 1_555
C58_23 H37_23 1_555 1_555
C58_23 H38_23 1_555 1_555
C57_23 H42_23 1_555 1_555
C57_23 H43_23 1_555 1_555
C57_23 H44_23 1_555 1_555
N1_23 H45_23 1_555 1_555
N1_23 H46_23 1_555 1_555
N1_24 C57_24 1_555 1_555
C58_24 N1_24 1_555 1_555
C58_24 H36_24 1_555 1_555
C58_24 H37_24 1_555 1_555
C58_24 H38_24 1_555 1_555
C57_24 H42_24 1_555 1_555
C57_24 H43_24 1_555 1_555
C57_24 H44_24 1_555 1_555
N1_24 H45_24 1_555 1_555
N1_24 H46_24 1_555 1_555
N1_25 C57_25 1_555 1_555
C58_25 N1_25 1_555 1_555
C58_25 H36_25 1_555 1_555
C58_25 H37_25 1_555 1_555
C58_25 H38_25 1_555 1_555
C57_25 H42_25 1_555 1_555
C57_25 H43_25 1_555 1_555
C57_25 H44_25 1_555 1_555
N1_25 H45_25 1_555 1_555
N1_25 H46_25 1_555 1_555
N1_26 C57_26 1_555 1_555
C58_26 N1_26 1_555 1_555
C58_26 H36_26 1_555 1_555
C58_26 H37_26 1_555 1_555
C58_26 H38_26 1_555 1_555
C57_26 H42_26 1_555 1_555
C57_26 H43_26 1_555 1_555
C57_26 H44_26 1_555 1_555
N1_26 H45_26 1_555 1_555
N1_26 H46_26 1_555 1_555
N1_27 C57_27 1_555 1_555
C58_27 N1_27 1_555 1_555
C58_27 H36_27 1_555 1_555
C58_27 H37_27 1_555 1_555
C58_27 H38_27 1_555 1_555
C57_27 H42_27 1_555 1_555
C57_27 H43_27 1_555 1_555
C57_27 H44_27 1_555 1_555
N1_27 H45_27 1_555 1_555
N1_27 H46_27 1_555 1_555
N1_28 C57_28 1_555 1_555
C58_28 N1_28 1_555 1_555
C58_28 H36_28 1_555 1_555
C58_28 H37_28 1_555 1_555
C58_28 H38_28 1_555 1_555
C57_28 H42_28 1_555 1_555
C57_28 H43_28 1_555 1_555
C57_28 H44_28 1_555 1_555
N1_28 H45_28 1_555 1_555
N1_28 H46_28 1_555 1_555
N1_29 C57_29 1_555 1_555
C58_29 N1_29 1_555 1_555
C58_29 H36_29 1_555 1_555
C58_29 H37_29 1_555 1_555
C58_29 H38_29 1_555 1_555
C57_29 H42_29 1_555 1_555
C57_29 H43_29 1_555 1_555
C57_29 H44_29 1_555 1_555
N1_29 H45_29 1_555 1_555
N1_29 H46_29 1_555 1_555
N1_30 C57_30 1_555 1_555
C58_30 N1_30 1_555 1_555
C58_30 H36_30 1_555 1_555
C58_30 H37_30 1_555 1_555
C58_30 H38_30 1_555 1_555
C57_30 H42_30 1_555 1_555
C57_30 H43_30 1_555 1_555
C57_30 H44_30 1_555 1_555
N1_30 H45_30 1_555 1_555
N1_30 H46_30 1_555 1_555
N1_31 C57_31 1_555 1_555
C58_31 N1_31 1_555 1_555
C58_31 H36_31 1_555 1_555
C58_31 H37_31 1_555 1_555
C58_31 H38_31 1_555 1_555
C57_31 H42_31 1_555 1_555
C57_31 H43_31 1_555 1_555
C57_31 H44_31 1_555 1_555
N1_31 H45_31 1_555 1_555
N1_31 H46_31 1_555 1_555
N1_32 C57_32 1_555 1_555
C58_32 N1_32 1_555 1_555
C58_32 H36_32 1_555 1_555
C58_32 H37_32 1_555 1_555
C58_32 H38_32 1_555 1_555
C57_32 H42_32 1_555 1_555
C57_32 H43_32 1_555 1_555
C57_32 H44_32 1_555 1_555
N1_32 H45_32 1_555 1_555
N1_32 H46_32 1_555 1_555
N2 C59 1_555 1_555
C60 N2 1_555 1_555
C60 H33 1_555 1_555
C60 H34 1_555 1_555
C60 H35 1_555 1_555
C59 H39 1_555 1_555
C59 H40 1_555 1_555
C59 H41 1_555 1_555
N2 H47 1_555 1_555
N2 H48 1_555 1_555
N2_2 C59_2 1_555 1_555
C60_2 N2_2 1_555 1_555
C60_2 H33_2 1_555 1_555
C60_2 H34_2 1_555 1_555
C60_2 H35_2 1_555 1_555
C59_2 H39_2 1_555 1_555
C59_2 H40_2 1_555 1_555
C59_2 H41_2 1_555 1_555
N2_2 H47_2 1_555 1_555
N2_2 H48_2 1_555 1_555
N2_3 C59_3 1_555 1_555
C60_3 N2_3 1_555 1_555
C60_3 H33_3 1_555 1_555
C60_3 H34_3 1_555 1_555
C60_3 H35_3 1_555 1_555
C59_3 H39_3 1_555 1_555
C59_3 H40_3 1_555 1_555
C59_3 H41_3 1_555 1_555
N2_3 H47_3 1_555 1_555
N2_3 H48_3 1_555 1_555
N2_4 C59_4 1_555 1_555
C60_4 N2_4 1_555 1_555
C60_4 H33_4 1_555 1_555
C60_4 H34_4 1_555 1_555
C60_4 H35_4 1_555 1_555
C59_4 H39_4 1_555 1_555
C59_4 H40_4 1_555 1_555
C59_4 H41_4 1_555 1_555
N2_4 H47_4 1_555 1_555
N2_4 H48_4 1_555 1_555
C60_5 H33_5 1_555 1_555
C60_5 H34_5 1_555 1_555
C60_5 H35_5 1_555 1_555
C59_5 H39_5 1_555 1_555
C59_5 H40_5 1_555 1_555
C59_5 H41_5 1_555 1_555
N2_5 H47_5 1_555 1_555
N2_5 H48_5 1_555 1_555
N2_6 C59_6 1_555 1_555
C60_6 N2_6 1_555 1_555
C60_6 H33_6 1_555 1_555
C60_6 H34_6 1_555 1_555
C60_6 H35_6 1_555 1_555
C59_6 H39_6 1_555 1_555
C59_6 H40_6 1_555 1_555
C59_6 H41_6 1_555 1_555
N2_6 H47_6 1_555 1_555
N2_6 H48_6 1_555 1_555
C60_7 H33_7 1_555 1_555
C60_7 H34_7 1_555 1_555
C60_7 H35_7 1_555 1_555
C59_7 H39_7 1_555 1_555
C59_7 H40_7 1_555 1_555
C59_7 H41_7 1_555 1_555
N2_7 H47_7 1_555 1_555
N2_7 H48_7 1_555 1_555
N2_8 C59_8 1_555 1_555
C60_8 N2_8 1_555 1_555
C60_8 H33_8 1_555 1_555
C60_8 H34_8 1_555 1_555
C60_8 H35_8 1_555 1_555
C59_8 H39_8 1_555 1_555
C59_8 H40_8 1_555 1_555
C59_8 H41_8 1_555 1_555
N2_8 H47_8 1_555 1_555
N2_8 H48_8 1_555 1_555
N2_9 C59_9 1_555 1_555
C60_9 N2_9 1_555 1_555
C60_9 H33_9 1_555 1_555
C60_9 H34_9 1_555 1_555
C60_9 H35_9 1_555 1_555
C59_9 H39_9 1_555 1_555
C59_9 H40_9 1_555 1_555
C59_9 H41_9 1_555 1_555
N2_9 H47_9 1_555 1_555
N2_9 H48_9 1_555 1_555
N2_10 C59_10 1_555 1_555
C60_10 N2_10 1_555 1_555
C60_10 H33_10 1_555 1_555
C60_10 H34_10 1_555 1_555
C60_10 H35_10 1_555 1_555
C59_10 H39_10 1_555 1_555
C59_10 H40_10 1_555 1_555
C59_10 H41_10 1_555 1_555
N2_10 H47_10 1_555 1_555
N2_10 H48_10 1_555 1_555
N2_11 C59_11 1_555 1_555
C60_11 N2_11 1_555 1_555
C60_11 H33_11 1_555 1_555
C60_11 H34_11 1_555 1_555
C60_11 H35_11 1_555 1_555
C59_11 H39_11 1_555 1_555
C59_11 H40_11 1_555 1_555
C59_11 H41_11 1_555 1_555
N2_11 H47_11 1_555 1_555
N2_11 H48_11 1_555 1_555
N2_12 C59_12 1_555 1_555
C60_12 N2_12 1_555 1_555
C60_12 H33_12 1_555 1_555
C60_12 H34_12 1_555 1_555
C60_12 H35_12 1_555 1_555
C59_12 H39_12 1_555 1_555
C59_12 H40_12 1_555 1_555
C59_12 H41_12 1_555 1_555
N2_12 H47_12 1_555 1_555
N2_12 H48_12 1_555 1_555
C60_13 H33_13 1_555 1_555
C60_13 H34_13 1_555 1_555
C60_13 H35_13 1_555 1_555
C59_13 H39_13 1_555 1_555
C59_13 H40_13 1_555 1_555
C59_13 H41_13 1_555 1_555
N2_13 H47_13 1_555 1_555
N2_13 H48_13 1_555 1_555
N2_14 C59_14 1_555 1_555
C60_14 N2_14 1_555 1_555
C60_14 H33_14 1_555 1_555
C60_14 H34_14 1_555 1_555
C60_14 H35_14 1_555 1_555
C59_14 H39_14 1_555 1_555
C59_14 H40_14 1_555 1_555
C59_14 H41_14 1_555 1_555
N2_14 H47_14 1_555 1_555
N2_14 H48_14 1_555 1_555
C60_15 H33_15 1_555 1_555
C60_15 H34_15 1_555 1_555
C60_15 H35_15 1_555 1_555
C59_15 H39_15 1_555 1_555
C59_15 H40_15 1_555 1_555
C59_15 H41_15 1_555 1_555
N2_15 H47_15 1_555 1_555
N2_15 H48_15 1_555 1_555
N2_16 C59_16 1_555 1_555
C60_16 N2_16 1_555 1_555
C60_16 H33_16 1_555 1_555
C60_16 H34_16 1_555 1_555
C60_16 H35_16 1_555 1_555
C59_16 H39_16 1_555 1_555
C59_16 H40_16 1_555 1_555
C59_16 H41_16 1_555 1_555
N2_16 H47_16 1_555 1_555
N2_16 H48_16 1_555 1_555
N2_17 C59_17 1_555 1_555
C60_17 N2_17 1_555 1_555
C60_17 H33_17 1_555 1_555
C60_17 H34_17 1_555 1_555
C60_17 H35_17 1_555 1_555
C59_17 H39_17 1_555 1_555
C59_17 H40_17 1_555 1_555
C59_17 H41_17 1_555 1_555
N2_17 H47_17 1_555 1_555
N2_17 H48_17 1_555 1_555
N2_18 C59_18 1_555 1_555
C60_18 N2_18 1_555 1_555
C60_18 H33_18 1_555 1_555
C60_18 H34_18 1_555 1_555
C60_18 H35_18 1_555 1_555
C59_18 H39_18 1_555 1_555
C59_18 H40_18 1_555 1_555
C59_18 H41_18 1_555 1_555
N2_18 H47_18 1_555 1_555
N2_18 H48_18 1_555 1_555
N2_19 C59_19 1_555 1_555
C60_19 N2_19 1_555 1_555
C60_19 H33_19 1_555 1_555
C60_19 H34_19 1_555 1_555
C60_19 H35_19 1_555 1_555
C59_19 H39_19 1_555 1_555
C59_19 H40_19 1_555 1_555
C59_19 H41_19 1_555 1_555
N2_19 H47_19 1_555 1_555
N2_19 H48_19 1_555 1_555
N2_20 C59_20 1_555 1_555
C60_20 N2_20 1_555 1_555
C60_20 H33_20 1_555 1_555
C60_20 H34_20 1_555 1_555
C60_20 H35_20 1_555 1_555
C59_20 H39_20 1_555 1_555
C59_20 H40_20 1_555 1_555
C59_20 H41_20 1_555 1_555
N2_20 H47_20 1_555 1_555
N2_20 H48_20 1_555 1_555
N2_21 H47_21 1_555 1_555
N2_21 H48_21 1_555 1_555
C60_21 H33_21 1_555 1_555
C60_21 H34_21 1_555 1_555
C60_21 H35_21 1_555 1_555
C59_21 H39_21 1_555 1_555
C59_21 H40_21 1_555 1_555
C59_21 H41_21 1_555 1_555
N2_22 C59_22 1_555 1_555
C60_22 N2_22 1_555 1_555
C60_22 H33_22 1_555 1_555
C60_22 H34_22 1_555 1_555
C60_22 H35_22 1_555 1_555
C59_22 H39_22 1_555 1_555
C59_22 H40_22 1_555 1_555
C59_22 H41_22 1_555 1_555
N2_22 H47_22 1_555 1_555
N2_22 H48_22 1_555 1_555
N2_23 H47_23 1_555 1_555
N2_23 H48_23 1_555 1_555
C60_23 H33_23 1_555 1_555
C60_23 H34_23 1_555 1_555
C60_23 H35_23 1_555 1_555
C59_23 H39_23 1_555 1_555
C59_23 H40_23 1_555 1_555
C59_23 H41_23 1_555 1_555
N2_24 C59_24 1_555 1_555
C60_24 N2_24 1_555 1_555
C60_24 H33_24 1_555 1_555
C60_24 H34_24 1_555 1_555
C60_24 H35_24 1_555 1_555
C59_24 H39_24 1_555 1_555
C59_24 H40_24 1_555 1_555
C59_24 H41_24 1_555 1_555
N2_24 H47_24 1_555 1_555
N2_24 H48_24 1_555 1_555
N2_25 C59_25 1_555 1_555
C60_25 N2_25 1_555 1_555
C60_25 H33_25 1_555 1_555
C60_25 H34_25 1_555 1_555
C60_25 H35_25 1_555 1_555
C59_25 H39_25 1_555 1_555
C59_25 H40_25 1_555 1_555
C59_25 H41_25 1_555 1_555
N2_25 H47_25 1_555 1_555
N2_25 H48_25 1_555 1_555
N2_26 C59_26 1_555 1_555
C60_26 N2_26 1_555 1_555
C60_26 H33_26 1_555 1_555
C60_26 H34_26 1_555 1_555
C60_26 H35_26 1_555 1_555
C59_26 H39_26 1_555 1_555
C59_26 H40_26 1_555 1_555
C59_26 H41_26 1_555 1_555
N2_26 H47_26 1_555 1_555
N2_26 H48_26 1_555 1_555
N2_27 C59_27 1_555 1_555
C60_27 N2_27 1_555 1_555
C60_27 H33_27 1_555 1_555
C60_27 H34_27 1_555 1_555
C60_27 H35_27 1_555 1_555
C59_27 H39_27 1_555 1_555
C59_27 H40_27 1_555 1_555
C59_27 H41_27 1_555 1_555
N2_27 H47_27 1_555 1_555
N2_27 H48_27 1_555 1_555
N2_28 C59_28 1_555 1_555
C60_28 N2_28 1_555 1_555
C60_28 H33_28 1_555 1_555
C60_28 H34_28 1_555 1_555
C60_28 H35_28 1_555 1_555
C59_28 H39_28 1_555 1_555
C59_28 H40_28 1_555 1_555
C59_28 H41_28 1_555 1_555
N2_28 H47_28 1_555 1_555
N2_28 H48_28 1_555 1_555
N2_29 H47_29 1_555 1_555
N2_29 H48_29 1_555 1_555
C60_29 H33_29 1_555 1_555
C60_29 H34_29 1_555 1_555
C60_29 H35_29 1_555 1_555
C59_29 H39_29 1_555 1_555
C59_29 H40_29 1_555 1_555
C59_29 H41_29 1_555 1_555
N2_30 C59_30 1_555 1_555
C60_30 N2_30 1_555 1_555
C60_30 H33_30 1_555 1_555
C60_30 H34_30 1_555 1_555
C60_30 H35_30 1_555 1_555
C59_30 H39_30 1_555 1_555
C59_30 H40_30 1_555 1_555
C59_30 H41_30 1_555 1_555
N2_30 H47_30 1_555 1_555
N2_30 H48_30 1_555 1_555
N2_31 H47_31 1_555 1_555
N2_31 H48_31 1_555 1_555
C60_31 H33_31 1_555 1_555
C60_31 H34_31 1_555 1_555
C60_31 H35_31 1_555 1_555
C59_31 H39_31 1_555 1_555
C59_31 H40_31 1_555 1_555
C59_31 H41_31 1_555 1_555
N2_32 C59_32 1_555 1_555
C60_32 N2_32 1_555 1_555
C60_32 H33_32 1_555 1_555
C60_32 H34_32 1_555 1_555
C60_32 H35_32 1_555 1_555
C59_32 H39_32 1_555 1_555
C59_32 H40_32 1_555 1_555
C59_32 H41_32 1_555 1_555
N2_32 H47_32 1_555 1_555
N2_32 H48_32 1_555 1_555

#END
