
###############################################################################
#
# This file contains modified crystal structure data generated from the
# MOF subset of the Cambridge Structural Database (CSD) v543 
# hosted by the Cambridge Crystallographic Data Centre (CCDC).
#
# This work is licensed under the Creative Commons
# Attribution-NonCommercial-ShareAlike 4.0 International License.
# To view a copy of this license, visit
# http://creativecommons.org/licenses/by-nc-sa/4.0/
# or send a letter to
# Creative Commons, PO Box 1866, Mountain View, CA 94042, USA.
#
# CIF created using the CSD Python API on 29 September 2022
# The structure has been converted into the P1 space group
# The structure has a 3D framework
# The original CSD entry GALJAG is in the orthorhombic crystal system
# The framework has been calculated to contain at least 10.0% void space
# The void calculation uses a probe of radius 1.32A, grid spacing 0.4
# H atom positions have been added when not included in the experimental data
#
###############################################################################

data_GALJAG
_chemical_formula_moiety         '(C144 H160 In6 N8 O32 4+)n'
_symmetry_cell_setting           triclinic
_symmetry_space_group_name_H-M   'P 1'
_symmetry_Int_Tables_number      1
_space_group_name_Hall           'P 1'
loop_
_symmetry_equiv_pos_site_id
_symmetry_equiv_pos_as_xyz
1 x,y,z
_cell_length_a                   12.251(3)
_cell_length_b                   18.631(4)
_cell_length_c                   20.976(4)
_cell_angle_alpha                90
_cell_angle_beta                 90
_cell_angle_gamma                90
_cell_volume                     4787.74
loop_
_atom_site_label
_atom_site_type_symbol
_atom_site_fract_x
_atom_site_fract_y
_atom_site_fract_z
O3 O 0.1060(4) 0.4578(2) 0.8144(2)
O4 O 0.2665(4) 0.4200(3) 0.7888(3)
H1 H 0.0197 0.0871 0.5265
C4 C 0.0228(5) 0.1716(3) 0.5839(3)
H2 H 0.0925 0.1637 0.6000
C8 C 0.0161(5) 0.2767(3) 0.6476(3)
C9 C 0.1298(6) 0.2857(4) 0.6476(4)
H5 H 0.1726 0.2611 0.6182
C10 C 0.1775(7) 0.3310(4) 0.6911(4)
H6 H 0.2532 0.3351 0.6926
C11 C 0.1146(6) 0.3703(3) 0.7326(3)
C12 C 0.0034(6) 0.3630(3) 0.7325(4)
C14 C 0.1652(6) 0.4193(3) 0.7808(3)
In3 In 0.2500 0.5000 0.87340(2)
In1 In 0.7500 1.0000 0.37340(2)
O5 O 0.6128(3) 0.95295(19) 0.4326(2)
O6 O 0.7775(4) 0.9186(2) 0.4559(2)
O7 O 0.3940(4) 0.5422(2) 0.8144(2)
O9 O 0.8940(4) 0.9578(2) 0.3144(2)
O10 O 0.2335(4) 0.5800(3) 0.7888(3)
O12 O 0.7335(4) 0.9200(3) 0.2888(3)
C15 C 0.6761(5) 0.9155(3) 0.4656(3)
C16 C 0.6289(4) 0.8677(3) 0.5151(3)
C17 C 0.5225(5) 0.8745(3) 0.5403(3)
H9 H 0.4803 0.9129 0.5265
C18 C 0.4772(5) 0.8284(3) 0.5839(3)
H10 H 0.4075 0.8363 0.6000
C19 C 0.5343(5) 0.7735(3) 0.6020(3)
C20 C 0.6407(6) 0.7664(3) 0.5764(4)
H11 H 0.6817 0.7269 0.5890
C21 C 0.6879(5) 0.8135(3) 0.5344(4)
H12 H 0.7591 0.8071 0.5202
C22 C 0.4839(5) 0.7233(3) 0.6476(3)
C23 C 0.3702(6) 0.7143(4) 0.6476(4)
H13 H 0.3274 0.7389 0.6182
C24 C 0.3225(7) 0.6690(4) 0.6911(4)
H14 H 0.2468 0.6649 0.6926
C25 C 0.3854(6) 0.6297(3) 0.7326(3)
C26 C 0.4966(6) 0.6370(3) 0.7325(4)
H15 H 0.5386 0.6105 0.7609
C27 C 0.5470(6) 0.6836(3) 0.6902(4)
H16 H 0.6226 0.6884 0.6902
C28 C 0.3348(6) 0.5807(3) 0.7808(3)
O1 O 0.3872(3) 0.45295(19) 0.9326(2)
O2 O 0.2225(4) 0.4186(2) 0.9559(2)
C1 C 0.3239(5) 0.4155(3) 0.9656(3)
O5_2 O 0.1128(3) 0.54705(19) 0.9326(2)
O6_2 O 0.2775(4) 0.5814(2) 0.9559(2)
C15_2 C 0.1761(5) 0.5845(3) 0.9656(3)
H9_2 H 0.9803 0.5871 0.0265
C18_2 C 0.9772(5) 0.6716(3) 0.0839(3)
H10_2 H 0.9075 0.6637 0.1000
C22_2 C 0.9839(5) 0.7767(3) 0.1476(3)
C23_2 C 0.8702(6) 0.7857(4) 0.1476(4)
H13_2 H 0.8274 0.7611 0.1182
C24_2 C 0.8225(7) 0.8310(4) 0.1911(4)
H14_2 H 0.7468 0.8351 0.1926
C25_2 C 0.8854(6) 0.8703(3) 0.2326(3)
C26_2 C 0.9966(6) 0.8630(3) 0.2325(4)
C28_2 C 0.8348(6) 0.9193(3) 0.2808(3)
In1_2 In 0.7500 0.0000 0.37340(2)
O1_2 O 0.8872(3) 0.04705(19) 0.4326(2)
O2_2 O 0.7225(4) 0.0814(2) 0.4559(2)
C1_2 C 0.8239(5) 0.0845(3) 0.4656(3)
C2 C 0.8711(4) 0.1323(3) 0.5151(3)
C3 C 0.9775(5) 0.1255(3) 0.5403(3)
C5 C 0.9657(5) 0.2265(3) 0.6020(3)
C6 C 0.8593(6) 0.2336(3) 0.5764(4)
H3 H 0.8183 0.2731 0.5890
C7 C 0.8121(5) 0.1865(3) 0.5344(4)
H4 H 0.7409 0.1929 0.5202
H7 H 0.9614 0.3895 0.7609
C13 C 0.9530(6) 0.3164(3) 0.6902(4)
H8 H 0.8774 0.3116 0.6902
O8 O 0.6060(4) 0.0422(2) 0.3144(2)
O11 O 0.7665(4) 0.0800(3) 0.2888(3)
C2_2 C 0.3711(4) 0.3677(3) 0.0151(3)
C3_2 C 0.4775(5) 0.3745(3) 0.0403(3)
H1_2 H 0.5197 0.4129 0.0265
C4_2 C 0.5228(5) 0.3284(3) 0.0839(3)
H2_2 H 0.5925 0.3363 0.1000
C5_2 C 0.4657(5) 0.2735(3) 0.1020(3)
C6_2 C 0.3593(6) 0.2664(3) 0.0764(4)
H3_2 H 0.3183 0.2269 0.0890
C7_2 C 0.3121(5) 0.3135(3) 0.0344(4)
H4_2 H 0.2409 0.3071 0.0202
C8_2 C 0.5161(5) 0.2233(3) 0.1476(3)
C9_2 C 0.6298(6) 0.2143(4) 0.1476(4)
H5_2 H 0.6726 0.2389 0.1182
C10_2 C 0.6775(7) 0.1690(4) 0.1911(4)
H6_2 H 0.7532 0.1649 0.1926
C11_2 C 0.6146(6) 0.1297(3) 0.2326(3)
C12_2 C 0.5034(6) 0.1370(3) 0.2325(4)
H7_2 H 0.4614 0.1105 0.2609
C13_2 C 0.4530(6) 0.1836(3) 0.1902(4)
H8_2 H 0.3774 0.1884 0.1902
C14_2 C 0.6652(6) 0.0807(3) 0.2808(3)
C16_2 C 0.1289(4) 0.6323(3) 0.0151(3)
C17_2 C 0.0225(5) 0.6255(3) 0.0403(3)
C19_2 C 0.0343(5) 0.7265(3) 0.1020(3)
C20_2 C 0.1407(6) 0.7336(3) 0.0764(4)
H11_2 H 0.1817 0.7731 0.0890
C21_2 C 0.1879(5) 0.6865(3) 0.0344(4)
H12_2 H 0.2591 0.6929 0.0202
H15_2 H 0.0386 0.8895 0.2609
C27_2 C 0.0470(6) 0.8164(3) 0.1902(4)
H16_2 H 0.1226 0.8116 0.1902
In2 In 0.2500 0.0000 0.62660(2)
O7_2 O 0.1060(4) 0.0422(2) 0.6856(2)
O10_2 O 0.2665(4) 0.0800(3) 0.7112(3)
H9_3 H 0.0197 0.4129 0.9735
C18_3 C 0.0228(5) 0.3284(3) 0.9161(3)
H10_3 H 0.0925 0.3363 0.9000
C22_3 C 0.0161(5) 0.2233(3) 0.8524(3)
C23_3 C 0.1298(6) 0.2143(4) 0.8524(4)
H13_3 H 0.1726 0.2389 0.8818
C24_3 C 0.1775(7) 0.1690(4) 0.8089(4)
H14_3 H 0.2532 0.1649 0.8074
C25_3 C 0.1146(6) 0.1297(3) 0.7674(3)
C26_3 C 0.0034(6) 0.1370(3) 0.7675(4)
C28_3 C 0.1652(6) 0.0807(3) 0.7192(3)
In1_3 In 0.7500 0.5000 0.12660(2)
O1_3 O 0.6128(3) 0.54705(19) 0.0674(2)
O2_3 O 0.7775(4) 0.5814(2) 0.0441(2)
C1_3 C 0.6761(5) 0.5845(3) 0.0344(3)
O5_3 O 0.8872(3) 0.45295(19) 0.0674(2)
O6_3 O 0.7225(4) 0.4186(2) 0.0441(2)
O8_2 O 0.8940(4) 0.5422(2) 0.1856(2)
O9_2 O 0.6060(4) 0.4578(2) 0.1856(2)
O11_2 O 0.7335(4) 0.5800(3) 0.2112(3)
O12_2 O 0.7665(4) 0.4200(3) 0.2112(3)
C15_3 C 0.8239(5) 0.4155(3) 0.0344(3)
O5_4 O 0.3872(3) 0.04705(19) 0.5674(2)
O6_4 O 0.2225(4) 0.0814(2) 0.5441(2)
C15_4 C 0.3239(5) 0.0845(3) 0.5344(3)
C16_3 C 0.3711(4) 0.1323(3) 0.4849(3)
C17_3 C 0.4775(5) 0.1255(3) 0.4597(3)
H9_4 H 0.5197 0.0871 0.4735
C18_4 C 0.5228(5) 0.1716(3) 0.4161(3)
H10_4 H 0.5925 0.1637 0.4000
C19_3 C 0.4657(5) 0.2265(3) 0.3980(3)
C20_3 C 0.3593(6) 0.2336(3) 0.4236(4)
H11_3 H 0.3183 0.2731 0.4110
C21_3 C 0.3121(5) 0.1865(3) 0.4656(4)
H12_3 H 0.2409 0.1929 0.4798
C22_4 C 0.5161(5) 0.2767(3) 0.3524(3)
C23_4 C 0.6298(6) 0.2857(4) 0.3524(4)
H13_4 H 0.6726 0.2611 0.3818
C24_4 C 0.6775(7) 0.3310(4) 0.3089(4)
H14_4 H 0.7532 0.3351 0.3074
C25_4 C 0.6146(6) 0.3703(3) 0.2674(3)
C26_4 C 0.5034(6) 0.3630(3) 0.2675(4)
H15_3 H 0.4614 0.3895 0.2391
C27_3 C 0.4530(6) 0.3164(3) 0.3098(4)
H16_3 H 0.3774 0.3116 0.3098
C28_4 C 0.6652(6) 0.4193(3) 0.2192(3)
H1_3 H 0.9803 0.9129 0.4735
C4_3 C 0.9772(5) 0.8284(3) 0.4161(3)
H2_3 H 0.9075 0.8363 0.4000
C8_3 C 0.9839(5) 0.7233(3) 0.3524(3)
C9_3 C 0.8702(6) 0.7143(4) 0.3524(4)
H5_3 H 0.8274 0.7389 0.3818
C10_3 C 0.8225(7) 0.6690(4) 0.3089(4)
H6_3 H 0.7468 0.6649 0.3074
C11_3 C 0.8854(6) 0.6297(3) 0.2674(3)
C12_3 C 0.9966(6) 0.6370(3) 0.2675(4)
C14_3 C 0.8348(6) 0.5807(3) 0.2192(3)
In2_2 In 0.2500 1.0000 0.62660(2)
O3_2 O 0.3940(4) 0.9578(2) 0.6856(2)
O4_2 O 0.2335(4) 0.9200(3) 0.7112(3)
C2_3 C 0.6289(4) 0.6323(3) 0.9849(3)
C3_3 C 0.5225(5) 0.6255(3) 0.9597(3)
H1_4 H 0.4803 0.5871 0.9735
C4_4 C 0.4772(5) 0.6716(3) 0.9161(3)
H2_4 H 0.4075 0.6637 0.9000
C5_3 C 0.5343(5) 0.7265(3) 0.8980(3)
C6_3 C 0.6407(6) 0.7336(3) 0.9236(4)
H3_3 H 0.6817 0.7731 0.9110
C7_3 C 0.6879(5) 0.6865(3) 0.9656(4)
H4_3 H 0.7591 0.6929 0.9798
C8_4 C 0.4839(5) 0.7767(3) 0.8524(3)
C9_4 C 0.3702(6) 0.7857(4) 0.8524(4)
H5_4 H 0.3274 0.7611 0.8818
C10_4 C 0.3225(7) 0.8310(4) 0.8089(4)
H6_4 H 0.2468 0.8351 0.8074
C11_4 C 0.3854(6) 0.8703(3) 0.7674(3)
C12_4 C 0.4966(6) 0.8630(3) 0.7675(4)
H7_3 H 0.5386 0.8895 0.7391
C13_3 C 0.5470(6) 0.8164(3) 0.8098(4)
H8_3 H 0.6226 0.8116 0.8098
C14_4 C 0.3348(6) 0.9193(3) 0.7192(3)
C16_4 C 0.8711(4) 0.3677(3) 0.9849(3)
C17_4 C 0.9775(5) 0.3745(3) 0.9597(3)
C19_4 C 0.9657(5) 0.2735(3) 0.8980(3)
C20_4 C 0.8593(6) 0.2664(3) 0.9236(4)
H11_4 H 0.8183 0.2269 0.9110
C21_4 C 0.8121(5) 0.3135(3) 0.9656(4)
H12_4 H 0.7409 0.3071 0.9798
H15_4 H 0.9614 0.1105 0.7391
C27_4 C 0.9530(6) 0.1836(3) 0.8098(4)
H16_4 H 0.8774 0.1884 0.8098
O1_4 O 0.1128(3) 0.95295(19) 0.5674(2)
O2_4 O 0.2775(4) 0.9186(2) 0.5441(2)
C1_4 C 0.1761(5) 0.9155(3) 0.5344(3)
C2_4 C 0.1289(4) 0.8677(3) 0.4849(3)
C3_4 C 0.0225(5) 0.8745(3) 0.4597(3)
C5_4 C 0.0343(5) 0.7735(3) 0.3980(3)
C6_4 C 0.1407(6) 0.7664(3) 0.4236(4)
H3_4 H 0.1817 0.7269 0.4110
C7_4 C 0.1879(5) 0.8135(3) 0.4656(4)
H4_4 H 0.2591 0.8071 0.4798
H7_4 H 0.0386 0.6105 0.2391
C13_4 C 0.0470(6) 0.6836(3) 0.3098(4)
H8_4 H 0.1226 0.6884 0.3098
N1 N 0.1099(12) 0.1384(10) 0.3137(8)
C29 C 0.2071(15) 0.1630(15) 0.2779(11)
C30 C 0.178(2) 0.2095(12) 0.2235(10)
C31 C 0.0372(17) 0.1808(16) 0.3557(12)
H20 H 0.137975 0.0981405 0.341876
H21 H 0.0595477 0.11781 0.279904
H22 H 0.250698 0.116218 0.26
H23 H 0.259855 0.192986 0.310097
H24 H 0.134846 0.256729 0.240832
H25 H 0.252 0.226109 0.198807
H26 H 0.125689 0.179961 0.190735
H27 H 0.0849639 0.22753 0.369641
H28 H 0.0230429 0.146982 0.39723
C32 C 0.9286(16) 0.2093(12) 0.3382(10)
H17 H 0.874863 0.165037 0.325369
H18 H 0.894179 0.238266 0.378564
H19 H 0.936784 0.245585 0.29778
N1_2 N 0.3901(12) 0.8616(10) 0.3137(8)
C29_2 C 0.2929(15) 0.8370(15) 0.2779(11)
C30_2 C 0.322(2) 0.7905(12) 0.2235(10)
C31_2 C 0.4628(17) 0.8192(16) 0.3557(12)
C32_2 C 0.5714(16) 0.7907(12) 0.3382(10)
H17_2 H 0.625137 0.834963 0.325369
H18_2 H 0.605821 0.761734 0.378564
H19_2 H 0.563216 0.754415 0.29778
H20_2 H 0.362025 0.90186 0.341876
H21_2 H 0.440452 0.88219 0.279904
H22_2 H 0.249302 0.883782 0.26
H23_2 H 0.240145 0.807014 0.310097
H24_2 H 0.365154 0.743271 0.240832
H25_2 H 0.248 0.773891 0.198807
H26_2 H 0.374311 0.820039 0.190735
H27_2 H 0.415036 0.77247 0.369641
H28_2 H 0.476957 0.853018 0.39723
N1_3 N 0.3901(12) 0.6384(10) 0.1863(8)
C29_3 C 0.2929(15) 0.6630(15) 0.2221(11)
C30_3 C 0.322(2) 0.7095(12) 0.2765(10)
C31_3 C 0.4628(17) 0.6808(16) 0.1443(12)
C32_3 C 0.5714(16) 0.7093(12) 0.1618(10)
H17_3 H 0.625137 0.665037 0.174631
H18_3 H 0.605821 0.738266 0.121436
H19_3 H 0.563216 0.745585 0.20222
H20_3 H 0.362025 0.59814 0.158124
H21_3 H 0.440452 0.61781 0.220096
H22_3 H 0.249302 0.616218 0.24
H23_3 H 0.240145 0.692986 0.189903
H24_3 H 0.365154 0.756729 0.259168
H25_3 H 0.248 0.726109 0.301193
H26_3 H 0.374311 0.679961 0.309265
H27_3 H 0.415036 0.72753 0.130359
H28_3 H 0.476957 0.646982 0.10277
N1_4 N 0.1099(12) 0.3616(10) 0.1863(8)
C29_4 C 0.2071(15) 0.3370(15) 0.2221(11)
C30_4 C 0.178(2) 0.2905(12) 0.2765(10)
C31_4 C 0.0372(17) 0.3192(16) 0.1443(12)
H20_4 H 0.137975 0.40186 0.158124
H21_4 H 0.0595477 0.38219 0.220096
H22_4 H 0.250698 0.383782 0.24
H23_4 H 0.259855 0.307014 0.189903
H24_4 H 0.134846 0.243271 0.259168
H25_4 H 0.252 0.273891 0.301193
H26_4 H 0.125689 0.320039 0.309265
H27_4 H 0.0849639 0.27247 0.130359
H28_4 H 0.0230429 0.353018 0.10277
C32_4 C 0.9286(16) 0.2907(12) 0.1618(10)
H17_4 H 0.874863 0.334963 0.174631
H18_4 H 0.894179 0.261734 0.121436
H19_4 H 0.936784 0.254415 0.20222
C32_5 C 0.0714(16) 0.7907(12) 0.6618(10)
H17_5 H 0.125137 0.834963 0.674631
H18_5 H 0.105821 0.761734 0.621436
H19_5 H 0.0632163 0.754415 0.70222
N1_5 N 0.8901(12) 0.8616(10) 0.6863(8)
C29_5 C 0.7929(15) 0.8370(15) 0.7221(11)
C30_5 C 0.822(2) 0.7905(12) 0.7765(10)
C31_5 C 0.9628(17) 0.8192(16) 0.6443(12)
H20_5 H 0.862025 0.90186 0.658124
H21_5 H 0.940452 0.88219 0.720096
H22_5 H 0.749302 0.883782 0.74
H23_5 H 0.740145 0.807014 0.689903
H24_5 H 0.865154 0.743271 0.759168
H25_5 H 0.748 0.773891 0.801193
H26_5 H 0.874311 0.820039 0.809265
H27_5 H 0.915036 0.77247 0.630359
H28_5 H 0.976957 0.853018 0.60277
N1_6 N 0.6099(12) 0.1384(10) 0.6863(8)
C29_6 C 0.7071(15) 0.1630(15) 0.7221(11)
C30_6 C 0.678(2) 0.2095(12) 0.7765(10)
C31_6 C 0.5372(17) 0.1808(16) 0.6443(12)
C32_6 C 0.4286(16) 0.2093(12) 0.6618(10)
H17_6 H 0.374863 0.165037 0.674631
H18_6 H 0.394179 0.238266 0.621436
H19_6 H 0.436784 0.245585 0.70222
H20_6 H 0.637975 0.0981405 0.658124
H21_6 H 0.559548 0.11781 0.720096
H22_6 H 0.750698 0.116218 0.74
H23_6 H 0.759855 0.192986 0.689903
H24_6 H 0.634846 0.256729 0.759168
H25_6 H 0.752 0.226109 0.801193
H26_6 H 0.625689 0.179961 0.809265
H27_6 H 0.584964 0.22753 0.630359
H28_6 H 0.523043 0.146982 0.60277
N1_7 N 0.6099(12) 0.3616(10) 0.8137(8)
C29_7 C 0.7071(15) 0.3370(15) 0.7779(11)
C30_7 C 0.678(2) 0.2905(12) 0.7235(10)
C31_7 C 0.5372(17) 0.3192(16) 0.8557(12)
C32_7 C 0.4286(16) 0.2907(12) 0.8382(10)
H17_7 H 0.374863 0.334963 0.825369
H18_7 H 0.394179 0.261734 0.878564
H19_7 H 0.436784 0.254415 0.79778
H20_7 H 0.637975 0.40186 0.841876
H21_7 H 0.559548 0.38219 0.779904
H22_7 H 0.750698 0.383782 0.76
H23_7 H 0.759855 0.307014 0.810097
H24_7 H 0.634846 0.243271 0.740832
H25_7 H 0.752 0.273891 0.698807
H26_7 H 0.625689 0.320039 0.690735
H27_7 H 0.584964 0.27247 0.869641
H28_7 H 0.523043 0.353018 0.89723
C32_8 C 0.0714(16) 0.7093(12) 0.8382(10)
H17_8 H 0.125137 0.665037 0.825369
H18_8 H 0.105821 0.738266 0.878564
H19_8 H 0.0632163 0.745585 0.79778
N1_8 N 0.8901(12) 0.6384(10) 0.8137(8)
C29_8 C 0.7929(15) 0.6630(15) 0.7779(11)
C30_8 C 0.822(2) 0.7095(12) 0.7235(10)
C31_8 C 0.9628(17) 0.6808(16) 0.8557(12)
H20_8 H 0.862025 0.59814 0.841876
H21_8 H 0.940452 0.61781 0.779904
H22_8 H 0.749302 0.616218 0.76
H23_8 H 0.740145 0.692986 0.810097
H24_8 H 0.865154 0.756729 0.740832
H25_8 H 0.748 0.726109 0.698807
H26_8 H 0.874311 0.679961 0.690735
H27_8 H 0.915036 0.72753 0.869641
H28_8 H 0.976957 0.646982 0.89723
loop_
_geom_bond_atom_site_label_1
_geom_bond_atom_site_label_2
_geom_bond_site_symmetry_1
_geom_bond_site_symmetry_2
O3 C14 1_555 1_555
O4 C14 1_555 1_555
H2 C4 1_555 1_555
C9 C8 1_555 1_555
H5 C9 1_555 1_555
C10 C9 1_555 1_555
H6 C10 1_555 1_555
C11 C10 1_555 1_555
C12 C11 1_555 1_555
C14 C11 1_555 1_555
In3 O3 1_555 1_555
O4 In3 1_555 1_555
In3 O7 1_555 1_555
O5 In1 1_555 1_555
O6 In1 1_555 1_555
O7 C28 1_555 1_555
O9 In1 1_555 1_555
O10 In3 1_555 1_555
O12 In1 1_555 1_555
C15 O5 1_555 1_555
C16 C15 1_555 1_555
C17 C16 1_555 1_555
H9 C17 1_555 1_555
C18 C17 1_555 1_555
H10 C18 1_555 1_555
C19 C18 1_555 1_555
C20 C19 1_555 1_555
H11 C20 1_555 1_555
C21 C16 1_555 1_555
H12 C21 1_555 1_555
C22 C19 1_555 1_555
C23 C22 1_555 1_555
H13 C23 1_555 1_555
C24 C23 1_555 1_555
H14 C24 1_555 1_555
C25 C24 1_555 1_555
C26 C25 1_555 1_555
H15 C26 1_555 1_555
C27 C22 1_555 1_555
H16 C27 1_555 1_555
C28 O10 1_555 1_555
O6 C15 1_555 1_555
C20 C21 1_555 1_555
C25 C28 1_555 1_555
C26 C27 1_555 1_555
In3 O1 1_555 1_555
O1 C1 1_555 1_555
O2 In3 1_555 1_555
C1 O2 1_555 1_555
O5_2 In3 1_555 1_555
O6_2 In3 1_555 1_555
C15_2 O5_2 1_555 1_555
O6_2 C15_2 1_555 1_555
O9 C28_2 1_555 1_555
H10_2 C18_2 1_555 1_555
C23_2 C22_2 1_555 1_555
H13_2 C23_2 1_555 1_555
C24_2 C23_2 1_555 1_555
H14_2 C24_2 1_555 1_555
C25_2 C24_2 1_555 1_555
C26_2 C25_2 1_555 1_555
C28_2 O12 1_555 1_555
C25_2 C28_2 1_555 1_555
In1_2 O1_2 1_555 1_555
O1_2 C1_2 1_555 1_555
O2_2 In1_2 1_555 1_555
C1_2 O2_2 1_555 1_555
C2 C1_2 1_555 1_555
C3 C2 1_555 1_555
C6 C5 1_555 1_555
H3 C6 1_555 1_555
C7 C2 1_555 1_555
H4 C7 1_555 1_555
H8 C13 1_555 1_555
O8 In1_2 1_555 1_555
O11 In1_2 1_555 1_555
C6 C7 1_555 1_555
O8 C14_2 1_555 1_555
O11 C14_2 1_555 1_555
C3_2 C2_2 1_555 1_555
H1_2 C3_2 1_555 1_555
C4_2 C3_2 1_555 1_555
H2_2 C4_2 1_555 1_555
C5_2 C4_2 1_555 1_555
C6_2 C5_2 1_555 1_555
H3_2 C6_2 1_555 1_555
C7_2 C2_2 1_555 1_555
H4_2 C7_2 1_555 1_555
C8_2 C5_2 1_555 1_555
C9_2 C8_2 1_555 1_555
H5_2 C9_2 1_555 1_555
C10_2 C9_2 1_555 1_555
H6_2 C10_2 1_555 1_555
C11_2 C10_2 1_555 1_555
C12_2 C11_2 1_555 1_555
H7_2 C12_2 1_555 1_555
C13_2 C8_2 1_555 1_555
H8_2 C13_2 1_555 1_555
C14_2 C11_2 1_555 1_555
C17_2 C16_2 1_555 1_555
C20_2 C19_2 1_555 1_555
H11_2 C20_2 1_555 1_555
C21_2 C16_2 1_555 1_555
H12_2 C21_2 1_555 1_555
H16_2 C27_2 1_555 1_555
C6_2 C7_2 1_555 1_555
C12_2 C13_2 1_555 1_555
C20_2 C21_2 1_555 1_555
In2 O7_2 1_555 1_555
O7_2 C28_3 1_555 1_555
O10_2 In2 1_555 1_555
H10_3 C18_3 1_555 1_555
C23_3 C22_3 1_555 1_555
H13_3 C23_3 1_555 1_555
C24_3 C23_3 1_555 1_555
H14_3 C24_3 1_555 1_555
C25_3 C24_3 1_555 1_555
C26_3 C25_3 1_555 1_555
C28_3 O10_2 1_555 1_555
C25_3 C28_3 1_555 1_555
In1_3 O1_3 1_555 1_555
O1_3 C1_3 1_555 1_555
O2_3 In1_3 1_555 1_555
C1_3 O2_3 1_555 1_555
O5_3 In1_3 1_555 1_555
O6_3 In1_3 1_555 1_555
O8_2 In1_3 1_555 1_555
O9_2 In1_3 1_555 1_555
O11_2 In1_3 1_555 1_555
O12_2 In1_3 1_555 1_555
C15_3 O5_3 1_555 1_555
O6_3 C15_3 1_555 1_555
O5_4 In2 1_555 1_555
O6_4 In2 1_555 1_555
O9_2 C28_4 1_555 1_555
C15_4 O5_4 1_555 1_555
C16_3 C15_4 1_555 1_555
C17_3 C16_3 1_555 1_555
H9_4 C17_3 1_555 1_555
C18_4 C17_3 1_555 1_555
H10_4 C18_4 1_555 1_555
C19_3 C18_4 1_555 1_555
C20_3 C19_3 1_555 1_555
H11_3 C20_3 1_555 1_555
C21_3 C16_3 1_555 1_555
H12_3 C21_3 1_555 1_555
C22_4 C19_3 1_555 1_555
C23_4 C22_4 1_555 1_555
H13_4 C23_4 1_555 1_555
C24_4 C23_4 1_555 1_555
H14_4 C24_4 1_555 1_555
C25_4 C24_4 1_555 1_555
C26_4 C25_4 1_555 1_555
H15_3 C26_4 1_555 1_555
C27_3 C22_4 1_555 1_555
H16_3 C27_3 1_555 1_555
C28_4 O12_2 1_555 1_555
O6_4 C15_4 1_555 1_555
C20_3 C21_3 1_555 1_555
C25_4 C28_4 1_555 1_555
C26_4 C27_3 1_555 1_555
O8_2 C14_3 1_555 1_555
O11_2 C14_3 1_555 1_555
H2_3 C4_3 1_555 1_555
C9_3 C8_3 1_555 1_555
H5_3 C9_3 1_555 1_555
C10_3 C9_3 1_555 1_555
H6_3 C10_3 1_555 1_555
C11_3 C10_3 1_555 1_555
C12_3 C11_3 1_555 1_555
C14_3 C11_3 1_555 1_555
O3_2 C14_4 1_555 1_555
O4_2 C14_4 1_555 1_555
C3_3 C2_3 1_555 1_555
H1_4 C3_3 1_555 1_555
C4_4 C3_3 1_555 1_555
H2_4 C4_4 1_555 1_555
C5_3 C4_4 1_555 1_555
C6_3 C5_3 1_555 1_555
H3_3 C6_3 1_555 1_555
C7_3 C2_3 1_555 1_555
H4_3 C7_3 1_555 1_555
C8_4 C5_3 1_555 1_555
C9_4 C8_4 1_555 1_555
H5_4 C9_4 1_555 1_555
C10_4 C9_4 1_555 1_555
H6_4 C10_4 1_555 1_555
C11_4 C10_4 1_555 1_555
C12_4 C11_4 1_555 1_555
H7_3 C12_4 1_555 1_555
C13_3 C8_4 1_555 1_555
H8_3 C13_3 1_555 1_555
C14_4 C11_4 1_555 1_555
In2_2 O3_2 1_555 1_555
C17_4 C16_4 1_555 1_555
C20_4 C19_4 1_555 1_555
H11_4 C20_4 1_555 1_555
C21_4 C16_4 1_555 1_555
H12_4 C21_4 1_555 1_555
H16_4 C27_4 1_555 1_555
O4_2 In2_2 1_555 1_555
C6_3 C7_3 1_555 1_555
C12_4 C13_3 1_555 1_555
C20_4 C21_4 1_555 1_555
In2_2 O1_4 1_555 1_555
O1_4 C1_4 1_555 1_555
O2_4 In2_2 1_555 1_555
C1_4 O2_4 1_555 1_555
C2_4 C1_4 1_555 1_555
C3_4 C2_4 1_555 1_555
C6_4 C5_4 1_555 1_555
H3_4 C6_4 1_555 1_555
C7_4 C2_4 1_555 1_555
H4_4 C7_4 1_555 1_555
H8_4 C13_4 1_555 1_555
C6_4 C7_4 1_555 1_555
N1 C29 1_555 1_555
C29 C30 1_555 1_555
C31 N1 1_555 1_555
N1 H20 1_555 1_555
N1 H21 1_555 1_555
C29 H22 1_555 1_555
C29 H23 1_555 1_555
C30 H24 1_555 1_555
C30 H25 1_555 1_555
C30 H26 1_555 1_555
C31 H27 1_555 1_555
C31 H28 1_555 1_555
C32 H17 1_555 1_555
C32 H18 1_555 1_555
C32 H19 1_555 1_555
N1_2 C29_2 1_555 1_555
C29_2 C30_2 1_555 1_555
C31_2 N1_2 1_555 1_555
C32_2 C31_2 1_555 1_555
C32_2 H17_2 1_555 1_555
C32_2 H18_2 1_555 1_555
C32_2 H19_2 1_555 1_555
N1_2 H20_2 1_555 1_555
N1_2 H21_2 1_555 1_555
C29_2 H22_2 1_555 1_555
C29_2 H23_2 1_555 1_555
C30_2 H24_2 1_555 1_555
C30_2 H25_2 1_555 1_555
C30_2 H26_2 1_555 1_555
C31_2 H27_2 1_555 1_555
C31_2 H28_2 1_555 1_555
N1_3 C29_3 1_555 1_555
C29_3 C30_3 1_555 1_555
C31_3 N1_3 1_555 1_555
C32_3 C31_3 1_555 1_555
C32_3 H17_3 1_555 1_555
C32_3 H18_3 1_555 1_555
C32_3 H19_3 1_555 1_555
N1_3 H20_3 1_555 1_555
N1_3 H21_3 1_555 1_555
C29_3 H22_3 1_555 1_555
C29_3 H23_3 1_555 1_555
C30_3 H24_3 1_555 1_555
C30_3 H25_3 1_555 1_555
C30_3 H26_3 1_555 1_555
C31_3 H27_3 1_555 1_555
C31_3 H28_3 1_555 1_555
N1_4 C29_4 1_555 1_555
C29_4 C30_4 1_555 1_555
C31_4 N1_4 1_555 1_555
N1_4 H20_4 1_555 1_555
N1_4 H21_4 1_555 1_555
C29_4 H22_4 1_555 1_555
C29_4 H23_4 1_555 1_555
C30_4 H24_4 1_555 1_555
C30_4 H25_4 1_555 1_555
C30_4 H26_4 1_555 1_555
C31_4 H27_4 1_555 1_555
C31_4 H28_4 1_555 1_555
C32_4 H17_4 1_555 1_555
C32_4 H18_4 1_555 1_555
C32_4 H19_4 1_555 1_555
C32_5 H17_5 1_555 1_555
C32_5 H18_5 1_555 1_555
C32_5 H19_5 1_555 1_555
N1_5 C29_5 1_555 1_555
C29_5 C30_5 1_555 1_555
C31_5 N1_5 1_555 1_555
N1_5 H20_5 1_555 1_555
N1_5 H21_5 1_555 1_555
C29_5 H22_5 1_555 1_555
C29_5 H23_5 1_555 1_555
C30_5 H24_5 1_555 1_555
C30_5 H25_5 1_555 1_555
C30_5 H26_5 1_555 1_555
C31_5 H27_5 1_555 1_555
C31_5 H28_5 1_555 1_555
N1_6 C29_6 1_555 1_555
C29_6 C30_6 1_555 1_555
C31_6 N1_6 1_555 1_555
C32_6 C31_6 1_555 1_555
C32_6 H17_6 1_555 1_555
C32_6 H18_6 1_555 1_555
C32_6 H19_6 1_555 1_555
N1_6 H20_6 1_555 1_555
N1_6 H21_6 1_555 1_555
C29_6 H22_6 1_555 1_555
C29_6 H23_6 1_555 1_555
C30_6 H24_6 1_555 1_555
C30_6 H25_6 1_555 1_555
C30_6 H26_6 1_555 1_555
C31_6 H27_6 1_555 1_555
C31_6 H28_6 1_555 1_555
N1_7 C29_7 1_555 1_555
C29_7 C30_7 1_555 1_555
C31_7 N1_7 1_555 1_555
C32_7 C31_7 1_555 1_555
C32_7 H17_7 1_555 1_555
C32_7 H18_7 1_555 1_555
C32_7 H19_7 1_555 1_555
N1_7 H20_7 1_555 1_555
N1_7 H21_7 1_555 1_555
C29_7 H22_7 1_555 1_555
C29_7 H23_7 1_555 1_555
C30_7 H24_7 1_555 1_555
C30_7 H25_7 1_555 1_555
C30_7 H26_7 1_555 1_555
C31_7 H27_7 1_555 1_555
C31_7 H28_7 1_555 1_555
C32_8 H17_8 1_555 1_555
C32_8 H18_8 1_555 1_555
C32_8 H19_8 1_555 1_555
N1_8 C29_8 1_555 1_555
C29_8 C30_8 1_555 1_555
C31_8 N1_8 1_555 1_555
N1_8 H20_8 1_555 1_555
N1_8 H21_8 1_555 1_555
C29_8 H22_8 1_555 1_555
C29_8 H23_8 1_555 1_555
C30_8 H24_8 1_555 1_555
C30_8 H25_8 1_555 1_555
C30_8 H26_8 1_555 1_555
C31_8 H27_8 1_555 1_555
C31_8 H28_8 1_555 1_555

#END
