
###############################################################################
#
# This file contains modified crystal structure data generated from the
# MOF subset of the Cambridge Structural Database (CSD) v543 
# hosted by the Cambridge Crystallographic Data Centre (CCDC).
#
# This work is licensed under the Creative Commons
# Attribution-NonCommercial-ShareAlike 4.0 International License.
# To view a copy of this license, visit
# http://creativecommons.org/licenses/by-nc-sa/4.0/
# or send a letter to
# Creative Commons, PO Box 1866, Mountain View, CA 94042, USA.
#
# CIF created using the CSD Python API on 29 September 2022
# The structure has been converted into the P1 space group
# The structure has a 3D framework
# The original CSD entry GALLUC02 is in the monoclinic crystal system
# The framework has been calculated to contain at least 10.0% void space
# The void calculation uses a probe of radius 1.32A, grid spacing 0.4
#
###############################################################################

data_GALLUC02
_chemical_formula_moiety         '(C44 H28 N12 O24 Tb4)n'
_symmetry_cell_setting           triclinic
_symmetry_space_group_name_H-M   'P 1'
_symmetry_Int_Tables_number      1
_space_group_name_Hall           'P 1'
loop_
_symmetry_equiv_pos_site_id
_symmetry_equiv_pos_as_xyz
1 x,y,z
_cell_length_a                   8.3136(19)
_cell_length_b                   14.719(4)
_cell_length_c                   11.526(3)
_cell_angle_alpha                90
_cell_angle_beta                 90.807(5)
_cell_angle_gamma                90
_cell_volume                     1410.27
loop_
_atom_site_label
_atom_site_type_symbol
_atom_site_fract_x
_atom_site_fract_y
_atom_site_fract_z
C12 C 0.2323(18) 0.6317(10) 0.2149(12)
H8 H 0.2282 0.5859 0.2704
C13 C 0.1404(16) 0.6226(9) 0.1159(11)
H9 H 0.0731 0.5726 0.1068
C14 C 0.1475(14) 0.6870(8) 0.0301(10)
C15 C 0.2446(15) 0.7643(8) 0.0536(11)
H10 H 0.2485 0.8121 0.0009
C16 C 0.3334(16) 0.7676(9) 0.1558(12)
H11 H 0.4004 0.8172 0.1693
N6 N 0.3266(13) 0.7027(8) 0.2354(9)
C17 C 0.0567(16) 0.6808(8) 0.9192(10)
C18 C 0.0041(14) 0.6241(8) 0.7462(10)
C20 C 0.0357(14) 0.5634(7) 0.6450(10)
Tb6 Tb 0.22247(7) 0.36757(3) 0.56694(4)
N5 N 0.0877(11) 0.6096(6) 0.8481(8)
H12 H 0.1484 0.5639 0.8640
O15 O 0.1128(11) 0.4927(5) 0.6683(7)
C8 C 0.0730(14) 0.2944(7) 0.2394(10)
C10 C 0.1808(12) 0.2386(7) 0.3150(10)
Tb1 Tb 0.22247(7) 0.13243(3) 0.06694(4)
N1 N 0.0384(11) 0.2593(6) 0.1293(8)
O1 O 0.2294(10) 0.1658(5) 0.2685(6)
O2 O 0.2199(9) 0.2626(5) 0.4146(7)
O3 O 0.0090(10) 0.4106(5) 0.4533(7)
O5 O 0.4427(10) 0.2334(5) 0.0957(7)
H6 H 0.4189 0.2894 0.0895
H7 H 0.5131 0.2194 0.1469
O7 O 0.4459(10) 0.0420(5) 0.1359(6)
O16 O 0.1128(11) 0.0073(5) 0.1683(7)
C22 C 0.4730(15) 0.0028(7) 0.9357(9)
O11 O 0.2199(9) 0.2374(5) 0.9146(7)
O14 O 0.0090(10) 0.0894(5) 0.9533(7)
O19 O 0.3538(10) 0.0524(5) 0.9124(6)
C11 C 0.5270(15) 0.9972(7) 0.0643(9)
O6 O 0.6462(10) 0.9476(5) 0.0876(6)
O10 O 0.7801(9) 0.7626(5) 0.0854(7)
O13 O 0.9910(10) 0.9106(5) 0.0467(7)
C19 C 0.9270(14) 0.7056(7) 0.7606(10)
C21 C 0.8192(12) 0.7614(7) 0.6850(10)
Tb2 Tb 0.77753(7) 0.86757(3) 0.93306(4)
Tb4 Tb 0.77753(7) 0.63243(3) 0.43306(4)
N4 N 0.9616(11) 0.7407(6) 0.8707(8)
O8 O 0.7706(10) 0.8342(5) 0.7315(6)
O9 O 0.7801(9) 0.7374(5) 0.5854(7)
O12 O 0.9910(10) 0.5894(5) 0.5467(7)
O17 O 0.8872(11) 0.9927(5) 0.8317(7)
O18 O 0.5573(10) 0.7666(5) 0.9043(7)
H13 H 0.5811 0.7106 0.9105
H14 H 0.4869 0.7806 0.8531
O20 O 0.5541(10) 0.9580(5) 0.8641(6)
C6 C 0.9433(16) 0.3192(8) 0.0808(10)
C7 C 0.9959(14) 0.3759(8) 0.2538(10)
C9 C 0.9643(14) 0.4366(7) 0.3550(10)
N2 N 0.9123(11) 0.3904(6) 0.1519(8)
H5 H 0.8516 0.4361 0.1360
O4 O 0.8872(11) 0.5073(5) 0.3317(7)
C8_2 C 0.9270(14) 0.7944(7) 0.2606(10)
C10_2 C 0.8192(12) 0.7386(7) 0.1850(10)
C11_2 C 0.4730(15) 0.4972(7) 0.4357(9)
N1_2 N 0.9616(11) 0.7593(6) 0.3707(8)
O1_2 O 0.7706(10) 0.6658(5) 0.2315(6)
O5_2 O 0.5573(10) 0.7334(5) 0.4043(7)
H6_2 H 0.5811 0.7894 0.4105
H7_2 H 0.4869 0.7194 0.3531
O6_2 O 0.3538(10) 0.4476(5) 0.4124(6)
O7_2 O 0.5541(10) 0.5420(5) 0.3641(6)
C19_2 C 0.0730(14) 0.2056(7) 0.7394(10)
C21_2 C 0.1808(12) 0.2614(7) 0.8150(10)
C22_2 C 0.5270(15) 0.5028(7) 0.5643(9)
N4_2 N 0.0384(11) 0.2407(6) 0.6293(8)
O8_2 O 0.2294(10) 0.3342(5) 0.7685(6)
O18_2 O 0.4427(10) 0.2666(5) 0.5957(7)
H13_2 H 0.4189 0.2106 0.5895
H14_2 H 0.5131 0.2806 0.6469
O19_2 O 0.6462(10) 0.5524(5) 0.5876(6)
O20_2 O 0.4459(10) 0.4580(5) 0.6359(6)
C1 C 0.7677(18) 0.3683(10) 0.7851(12)
H1 H 0.7718 0.4141 0.7296
C2 C 0.8596(16) 0.3774(9) 0.8841(11)
H2 H 0.9269 0.4274 0.8932
C3 C 0.8525(14) 0.3130(8) 0.9699(10)
C4 C 0.7554(15) 0.2357(8) 0.9464(11)
H3 H 0.7515 0.1879 0.9991
C5 C 0.6666(16) 0.2324(9) 0.8442(12)
H4 H 0.5996 0.1828 0.8307
N3 N 0.6734(13) 0.2973(8) 0.7646(9)
C1_2 C 0.2323(18) 0.8683(10) 0.7149(12)
H1_2 H 0.2282 0.9141 0.7704
C2_2 C 0.1404(16) 0.8774(9) 0.6159(11)
H2_2 H 0.0731 0.9274 0.6068
C3_2 C 0.1475(14) 0.8130(8) 0.5301(10)
C4_2 C 0.2446(15) 0.7357(8) 0.5536(11)
H3_2 H 0.2485 0.6879 0.5009
C5_2 C 0.3334(16) 0.7324(9) 0.6558(12)
H4_2 H 0.4004 0.6828 0.6693
C6_2 C 0.0567(16) 0.8192(8) 0.4192(10)
C7_2 C 0.0041(14) 0.8759(8) 0.2462(10)
C9_2 C 0.0357(14) 0.9366(7) 0.1450(10)
N2_2 N 0.0877(11) 0.8904(6) 0.3481(8)
H5_2 H 0.1484 0.9361 0.3640
N3_2 N 0.3266(13) 0.7973(8) 0.7354(9)
C12_2 C 0.7677(18) 0.1317(10) 0.2851(12)
H8_2 H 0.7718 0.0859 0.2296
C13_2 C 0.8596(16) 0.1226(9) 0.3841(11)
H9_2 H 0.9269 0.0726 0.3932
C14_2 C 0.8525(14) 0.1870(8) 0.4699(10)
C15_2 C 0.7554(15) 0.2643(8) 0.4464(11)
H10_2 H 0.7515 0.3121 0.4991
C16_2 C 0.6666(16) 0.2676(9) 0.3442(12)
H11_2 H 0.5996 0.3172 0.3307
C17_2 C 0.9433(16) 0.1808(8) 0.5808(10)
C18_2 C 0.9959(14) 0.1241(8) 0.7538(10)
C20_2 C 0.9643(14) 0.0634(7) 0.8550(10)
N5_2 N 0.9123(11) 0.1096(6) 0.6519(8)
H12_2 H 0.8516 0.0639 0.6360
N6_2 N 0.6734(13) 0.2027(8) 0.2646(9)
loop_
_geom_bond_atom_site_label_1
_geom_bond_atom_site_label_2
_geom_bond_site_symmetry_1
_geom_bond_site_symmetry_2
C12 H8 1_555 1_555
C13 C12 1_555 1_555
H9 C13 1_555 1_555
C14 C13 1_555 1_555
C15 C14 1_555 1_555
H10 C15 1_555 1_555
C16 C15 1_555 1_555
H11 C16 1_555 1_555
N6 C12 1_555 1_555
C16 N6 1_555 1_555
C20 C18 1_555 1_555
Tb6 O15 1_555 1_555
N5 C17 1_555 1_555
H12 N5 1_555 1_555
O15 C20 1_555 1_555
C18 N5 1_555 1_555
C8 C10 1_555 1_555
C10 O1 1_555 1_555
Tb1 N1 1_555 1_555
O1 Tb1 1_555 1_555
O2 C10 1_555 1_555
O5 Tb1 1_555 1_555
H6 O5 1_555 1_555
H7 O5 1_555 1_555
Tb6 O2 1_555 1_555
O16 Tb1 1_555 1_555
C8 N1 1_555 1_555
Tb1 O7 1_555 1_555
O3 Tb6 1_555 1_555
C22 O19 1_555 1_555
C11 O6 1_555 1_555
C19 C21 1_555 1_555
C21 O8 1_555 1_555
Tb2 N4 1_555 1_555
Tb4 O9 1_555 1_555
O8 Tb2 1_555 1_555
O9 C21 1_555 1_555
O17 Tb2 1_555 1_555
O18 Tb2 1_555 1_555
H13 O18 1_555 1_555
H14 O18 1_555 1_555
C19 N4 1_555 1_555
Tb2 O20 1_555 1_555
Tb4 O12 1_555 1_555
C9 C7 1_555 1_555
N2 C6 1_555 1_555
H5 N2 1_555 1_555
O4 C9 1_555 1_555
Tb4 O4 1_555 1_555
C7 N2 1_555 1_555
C8_2 C10_2 1_555 1_555
C10_2 O1_2 1_555 1_555
C11_2 O6_2 1_555 1_555
Tb4 N1_2 1_555 1_555
O1_2 Tb4 1_555 1_555
O10 C10_2 1_555 1_555
O5_2 Tb4 1_555 1_555
H6_2 O5_2 1_555 1_555
H7_2 O5_2 1_555 1_555
O6_2 Tb6 1_555 1_555
O7_2 C11_2 1_555 1_555
C19_2 C21_2 1_555 1_555
C21_2 O8_2 1_555 1_555
C22_2 C11_2 1_555 1_555
Tb6 N4_2 1_555 1_555
O8_2 Tb6 1_555 1_555
O11 C21_2 1_555 1_555
O18_2 Tb6 1_555 1_555
H13_2 O18_2 1_555 1_555
H14_2 O18_2 1_555 1_555
O19_2 Tb4 1_555 1_555
O20_2 C22_2 1_555 1_555
C8_2 N1_2 1_555 1_555
Tb4 O7_2 1_555 1_555
C19_2 N4_2 1_555 1_555
C22_2 O19_2 1_555 1_555
Tb6 O20_2 1_555 1_555
C1 H1 1_555 1_555
C2 C1 1_555 1_555
H2 C2 1_555 1_555
C3 C2 1_555 1_555
C4 C3 1_555 1_555
H3 C4 1_555 1_555
C5 C4 1_555 1_555
H4 C5 1_555 1_555
N3 C1 1_555 1_555
C5 N3 1_555 1_555
C1_2 H1_2 1_555 1_555
C2_2 C1_2 1_555 1_555
H2_2 C2_2 1_555 1_555
C3_2 C2_2 1_555 1_555
C4_2 C3_2 1_555 1_555
H3_2 C4_2 1_555 1_555
C5_2 C4_2 1_555 1_555
H4_2 C5_2 1_555 1_555
C6_2 C3_2 1_555 1_555
C9_2 C7_2 1_555 1_555
N2_2 C6_2 1_555 1_555
H5_2 N2_2 1_555 1_555
N3_2 C1_2 1_555 1_555
C5_2 N3_2 1_555 1_555
C7_2 N2_2 1_555 1_555
C12_2 H8_2 1_555 1_555
C13_2 C12_2 1_555 1_555
H9_2 C13_2 1_555 1_555
C14_2 C13_2 1_555 1_555
C15_2 C14_2 1_555 1_555
H10_2 C15_2 1_555 1_555
C16_2 C15_2 1_555 1_555
H11_2 C16_2 1_555 1_555
C17_2 C14_2 1_555 1_555
C20_2 C18_2 1_555 1_555
N5_2 C17_2 1_555 1_555
H12_2 N5_2 1_555 1_555
N6_2 C12_2 1_555 1_555
C16_2 N6_2 1_555 1_555
C18_2 N5_2 1_555 1_555

#END
