
###############################################################################
#
# This file contains modified crystal structure data generated from the
# MOF subset of the Cambridge Structural Database (CSD) v543 
# hosted by the Cambridge Crystallographic Data Centre (CCDC).
#
# This work is licensed under the Creative Commons
# Attribution-NonCommercial-ShareAlike 4.0 International License.
# To view a copy of this license, visit
# http://creativecommons.org/licenses/by-nc-sa/4.0/
# or send a letter to
# Creative Commons, PO Box 1866, Mountain View, CA 94042, USA.
#
# CIF created using the CSD Python API on 29 September 2022
# The structure has been converted into the P1 space group
# The structure has a 3D framework
# The original CSD entry GALLOW is in the monoclinic crystal system
# The framework has been calculated to contain at least 10.0% void space
# The void calculation uses a probe of radius 1.32A, grid spacing 0.4
# H atom positions have been added when not included in the experimental data
# Generated hydrogen atom positions removed from atoms on special positions
#
###############################################################################

data_GALLOW
_chemical_formula_moiety         '(C44 H36 Eu4 N12 O26)n'
_symmetry_cell_setting           triclinic
_symmetry_space_group_name_H-M   'P 1'
_symmetry_Int_Tables_number      1
_space_group_name_Hall           'P 1'
loop_
_symmetry_equiv_pos_site_id
_symmetry_equiv_pos_as_xyz
1 x,y,z
_cell_length_a                   8.301(6)
_cell_length_b                   14.878(5)
_cell_length_c                   11.575(4)
_cell_angle_alpha                90
_cell_angle_beta                 90.854(9)
_cell_angle_gamma                90
_cell_volume                     1429.38
loop_
_atom_site_label
_atom_site_type_symbol
_atom_site_fract_x
_atom_site_fract_y
_atom_site_fract_z
Eu5 Eu 0.21977(3) 0.867903(14) 0.067680(19)
C3 C 0.0701(6) 0.7942(3) 0.7393(4)
C4 C 0.1784(6) 0.7391(3) 0.8157(4)
N2 N 0.0338(5) 0.7604(3) 0.6305(3)
O2 O 0.0039(4) 0.9108(2) 0.9524(3)
O3 O 0.2171(4) 0.7638(2) 0.9135(3)
O4 O 0.2244(4) 0.6667(2) 0.7703(3)
Eu4 Eu 0.21977(3) 0.632097(14) 0.567680(19)
C12 C 0.0358(6) 0.0641(3) 0.1460(4)
C13 C 0.0075(6) 0.1254(3) 0.2458(4)
C16 C 0.0637(6) 0.1792(3) 0.4186(4)
C17 C 0.1508(6) 0.1881(3) 0.5303(4)
C18 C 0.1467(7) 0.1217(4) 0.6144(5)
H6 H 0.0844 0.0703 0.6036
C19 C 0.2361(8) 0.1333(4) 0.7134(5)
H7 H 0.2309 0.0890 0.7699
C20 C 0.2448(6) 0.2628(4) 0.5522(5)
H8 H 0.2488 0.3097 0.4992
C21 C 0.3322(7) 0.2666(4) 0.6537(5)
H9 H 0.3971 0.3167 0.6666
C22 C 0.5267(6) 0.0028(3) 0.0637(4)
H10 H 0.152(8) 0.059(4) 0.361(5)
N4 N 0.0876(5) 0.1090(3) 0.3480(3)
N8 N 0.3301(6) 0.2040(4) 0.7338(4)
O11 O 0.9961(4) 0.0892(2) 0.0476(3)
O14 O 0.7829(4) 0.2362(2) 0.0865(3)
O19 O 0.6454(5) 0.0520(2) 0.0877(3)
Eu1 Eu 0.78023(3) 0.132097(14) 0.932320(19)
O1 O 0.8913(5) 0.0076(2) 0.8298(3)
O5 O 0.5511(5) 0.0430(3) 0.8660(3)
O7 O 0.5593(4) 0.2353(2) 0.9013(3)
N6 N 0.9662(5) 0.2604(3) 0.8695(3)
O16 O 0.7756(4) 0.1667(2) 0.7297(3)
N7 N 0.0338(5) 0.7396(3) 0.1305(3)
O8 O 0.1087(5) 0.9924(2) 0.1702(3)
O17 O 0.2244(4) 0.8333(2) 0.2703(3)
O18 O 0.4489(5) 0.9570(3) 0.1340(3)
O20 O 0.4407(4) 0.7647(2) 0.0987(3)
C1 C 0.9642(6) 0.9359(3) 0.8540(4)
C2 C 0.9925(6) 0.8746(3) 0.7542(4)
C5 C 0.9363(6) 0.8208(3) 0.5814(4)
C6 C 0.8492(6) 0.8119(3) 0.4697(4)
C7 C 0.8533(7) 0.8783(4) 0.3856(5)
H1 H 0.9156 0.9297 0.3964
C8 C 0.7639(8) 0.8667(4) 0.2866(5)
H2 H 0.7691 0.9110 0.2301
C9 C 0.7552(6) 0.7372(4) 0.4478(5)
H3 H 0.7512 0.6903 0.5008
C10 C 0.6678(7) 0.7334(4) 0.3463(5)
H4 H 0.6029 0.6833 0.3334
C11 C 0.4733(6) 0.9972(3) 0.9363(4)
H5 H 0.848(8) 0.941(4) 0.639(5)
N1 N 0.9124(5) 0.8910(3) 0.6520(3)
N3 N 0.6699(6) 0.7960(4) 0.2662(4)
O6 O 0.3546(5) 0.9480(2) 0.9123(3)
Eu6 Eu 0.78023(3) 0.367903(14) 0.432320(19)
C14 C 0.9299(6) 0.2058(3) 0.2607(4)
C15 C 0.8216(6) 0.2609(3) 0.1843(4)
N5 N 0.9662(5) 0.2396(3) 0.3695(3)
O15 O 0.7756(4) 0.3333(2) 0.2297(3)
C14_2 C 0.0701(6) 0.7058(3) 0.2393(4)
C15_2 C 0.1784(6) 0.7609(3) 0.3157(4)
O9 O 0.0039(4) 0.5892(2) 0.4524(3)
O12 O 0.2171(4) 0.7362(2) 0.4135(3)
C1_2 C 0.0358(6) 0.4359(3) 0.6460(4)
C2_2 C 0.0075(6) 0.3746(3) 0.7458(4)
C5_2 C 0.0637(6) 0.3208(3) 0.9186(4)
H3_2 H 0.2488 0.1903 0.9992
C11_2 C 0.5267(6) 0.4972(3) 0.5637(4)
H5_2 H 0.152(8) 0.441(4) 0.861(5)
N1_2 N 0.0876(5) 0.3910(3) 0.8480(3)
O1_2 O 0.1087(5) 0.5076(2) 0.6702(3)
O5_2 O 0.4489(5) 0.5430(3) 0.6340(3)
O6_2 O 0.6454(5) 0.4480(2) 0.5877(3)
O7_2 O 0.4407(4) 0.7353(2) 0.5987(3)
C12_2 C 0.9642(6) 0.5641(3) 0.3540(4)
C13_2 C 0.9925(6) 0.6254(3) 0.2542(4)
C16_2 C 0.9363(6) 0.6792(3) 0.0814(4)
H8_2 H 0.7512 0.8097 0.0008
C22_2 C 0.4733(6) 0.5028(3) 0.4363(4)
H10_2 H 0.848(8) 0.559(4) 0.139(5)
N4_2 N 0.9124(5) 0.6090(3) 0.1520(3)
O8_2 O 0.8913(5) 0.4924(2) 0.3298(3)
O10 O 0.9961(4) 0.4108(2) 0.5476(3)
O13 O 0.7829(4) 0.2638(2) 0.5865(3)
O18_2 O 0.5511(5) 0.4570(3) 0.3660(3)
O19_2 O 0.3546(5) 0.5520(2) 0.4123(3)
O20_2 O 0.5593(4) 0.2647(2) 0.4013(3)
C3_2 C 0.9299(6) 0.2942(3) 0.7607(4)
C4_2 C 0.8216(6) 0.2391(3) 0.6843(4)
C6_2 C 0.1508(6) 0.3119(3) 0.0303(4)
C7_2 C 0.1467(7) 0.3783(4) 0.1144(5)
H1_2 H 0.0844 0.4297 0.1036
C8_2 C 0.2361(8) 0.3667(4) 0.2134(5)
H2_2 H 0.2309 0.4110 0.2699
C9_2 C 0.2448(6) 0.2372(4) 0.0522(5)
C10_2 C 0.3322(7) 0.2334(4) 0.1537(5)
H4_2 H 0.3971 0.1833 0.1666
N3_2 N 0.3301(6) 0.2960(4) 0.2338(4)
C17_2 C 0.8492(6) 0.6881(3) 0.9697(4)
C18_2 C 0.8533(7) 0.6217(4) 0.8856(5)
H6_2 H 0.9156 0.5703 0.8964
C19_2 C 0.7639(8) 0.6333(4) 0.7866(5)
H7_2 H 0.7691 0.5890 0.7301
C20_2 C 0.7552(6) 0.7628(4) 0.9478(5)
C21_2 C 0.6678(7) 0.7666(4) 0.8463(5)
H9_2 H 0.6029 0.8167 0.8334
N8_2 N 0.6699(6) 0.7040(4) 0.7662(4)
loop_
_geom_bond_atom_site_label_1
_geom_bond_atom_site_label_2
_geom_bond_site_symmetry_1
_geom_bond_site_symmetry_2
C3 C4 1_555 1_555
C4 O3 1_555 1_555
N2 C3 1_555 1_555
O4 C4 1_555 1_555
Eu4 N2 1_555 1_555
O4 Eu4 1_555 1_555
C12 C13 1_555 1_555
C16 C17 1_555 1_555
C17 C18 1_555 1_555
C18 H6 1_555 1_555
C19 C18 1_555 1_555
H7 C19 1_555 1_555
C20 C17 1_555 1_555
H8 C20 1_555 1_555
C21 C20 1_555 1_555
H9 C21 1_555 1_555
H10 N4 1_555 1_555
N4 C13 1_555 1_555
N8 C19 1_555 1_555
C16 N4 1_555 1_555
C21 N8 1_555 1_555
C22 O19 1_555 1_555
Eu1 O1 1_555 1_555
O5 Eu1 1_555 1_555
O7 Eu1 1_555 1_555
N6 Eu1 1_555 1_555
O16 Eu1 1_555 1_555
N7 Eu5 1_555 1_555
O8 Eu5 1_555 1_555
O17 Eu5 1_555 1_555
O18 Eu5 1_555 1_555
O20 Eu5 1_555 1_555
C1 C2 1_555 1_555
C5 C6 1_555 1_555
C6 C7 1_555 1_555
C7 H1 1_555 1_555
C8 C7 1_555 1_555
H2 C8 1_555 1_555
C9 C6 1_555 1_555
H3 C9 1_555 1_555
C10 C9 1_555 1_555
H4 C10 1_555 1_555
H5 N1 1_555 1_555
N1 C2 1_555 1_555
N3 C8 1_555 1_555
O6 C11 1_555 1_555
C5 N1 1_555 1_555
C10 N3 1_555 1_555
Eu6 N5 1_555 1_555
C14 C15 1_555 1_555
C15 O14 1_555 1_555
N5 C14 1_555 1_555
O15 Eu6 1_555 1_555
C15 O15 1_555 1_555
Eu4 O9 1_555 1_555
C14_2 C15_2 1_555 1_555
C15_2 O12 1_555 1_555
N7 C14_2 1_555 1_555
O12 Eu4 1_555 1_555
C15_2 O17 1_555 1_555
Eu4 O1_2 1_555 1_555
C1_2 C2_2 1_555 1_555
C11_2 O5_2 1_555 1_555
H5_2 N1_2 1_555 1_555
N1_2 C2_2 1_555 1_555
O1_2 C1_2 1_555 1_555
O5_2 Eu4 1_555 1_555
O6_2 C11_2 1_555 1_555
O7_2 Eu4 1_555 1_555
Eu6 O6_2 1_555 1_555
C12_2 C13_2 1_555 1_555
C22_2 C11_2 1_555 1_555
H10_2 N4_2 1_555 1_555
N4_2 C13_2 1_555 1_555
O8_2 Eu6 1_555 1_555
O10 Eu6 1_555 1_555
O13 Eu6 1_555 1_555
O18_2 Eu6 1_555 1_555
O19_2 Eu4 1_555 1_555
O20_2 Eu6 1_555 1_555
C5_2 N1_2 1_555 1_555
C12_2 O8_2 1_555 1_555
C16_2 N4_2 1_555 1_555
C22_2 O18_2 1_555 1_555
C22_2 O19_2 1_555 1_555
C3_2 C4_2 1_555 1_555
C4_2 O13 1_555 1_555
N6 C3_2 1_555 1_555
O16 C4_2 1_555 1_555
C6_2 C7_2 1_555 1_555
C7_2 H1_2 1_555 1_555
C8_2 C7_2 1_555 1_555
H2_2 C8_2 1_555 1_555
C9_2 C6_2 1_555 1_555
C10_2 C9_2 1_555 1_555
H4_2 C10_2 1_555 1_555
N3_2 C8_2 1_555 1_555
C10_2 N3_2 1_555 1_555
C17_2 C18_2 1_555 1_555
C18_2 H6_2 1_555 1_555
C19_2 C18_2 1_555 1_555
H7_2 C19_2 1_555 1_555
C20_2 C17_2 1_555 1_555
C21_2 C20_2 1_555 1_555
H9_2 C21_2 1_555 1_555
N8_2 C19_2 1_555 1_555
C21_2 N8_2 1_555 1_555

#END
