
###############################################################################
#
# This file contains modified crystal structure data generated from the
# MOF subset of the Cambridge Structural Database (CSD) v543 
# hosted by the Cambridge Crystallographic Data Centre (CCDC).
#
# This work is licensed under the Creative Commons
# Attribution-NonCommercial-ShareAlike 4.0 International License.
# To view a copy of this license, visit
# http://creativecommons.org/licenses/by-nc-sa/4.0/
# or send a letter to
# Creative Commons, PO Box 1866, Mountain View, CA 94042, USA.
#
# CIF created using the CSD Python API on 29 September 2022
# The structure has been converted into the P1 space group
# The structure has a 3D framework
# The original CSD entry GALLOW01 is in the monoclinic crystal system
# The framework has been calculated to contain at least 10.0% void space
# The void calculation uses a probe of radius 1.32A, grid spacing 0.4
#
###############################################################################

data_GALLOW01
_chemical_formula_moiety         '(C44 H28 Eu4 N12 O24)n'
_symmetry_cell_setting           triclinic
_symmetry_space_group_name_H-M   'P 1'
_symmetry_Int_Tables_number      1
_space_group_name_Hall           'P 1'
loop_
_symmetry_equiv_pos_site_id
_symmetry_equiv_pos_as_xyz
1 x,y,z
_cell_length_a                   8.2862(17)
_cell_length_b                   14.865(3)
_cell_length_c                   11.559(2)
_cell_angle_alpha                90
_cell_angle_beta                 90.870(3)
_cell_angle_gamma                90
_cell_volume                     1423.61
loop_
_atom_site_label
_atom_site_type_symbol
_atom_site_fract_x
_atom_site_fract_y
_atom_site_fract_z
C12 C 0.2370(10) 0.6328(5) 0.2151(6)
H8 H 0.2348 0.5876 0.2707
C13 C 0.1440(9) 0.6224(5) 0.1148(6)
H9 H 0.0793 0.5718 0.1046
C14 C 0.1489(8) 0.6879(5) 0.0310(5)
C15 C 0.2442(9) 0.7623(5) 0.0511(6)
C16 C 0.3332(9) 0.7671(5) 0.1532(7)
H11 H 0.3995 0.8167 0.1653
N6 N 0.3285(8) 0.7042(5) 0.2347(5)
H10 H 0.2487 0.8085 0.9970
C17 C 0.0622(8) 0.6795(5) 0.9190(6)
C18 C 0.0078(8) 0.6246(4) 0.7462(5)
C20 C 0.0360(8) 0.5651(5) 0.6464(6)
Eu6 Eu 0.21980(4) 0.36815(2) 0.56767(3)
N5 N 0.0888(7) 0.6091(4) 0.8482(4)
H12 H 0.1466 0.5626 0.8644
O15 O 0.1076(7) 0.4922(3) 0.6706(4)
C8 C 0.0709(8) 0.2944(4) 0.2385(5)
C10 C 0.1786(7) 0.2389(4) 0.3152(5)
Eu1 Eu 0.21980(4) 0.13185(2) 0.06767(3)
N1 N 0.0356(6) 0.2603(4) 0.1304(4)
O1 O 0.2252(5) 0.1664(3) 0.2702(4)
O2 O 0.2174(6) 0.2644(3) 0.4140(4)
O3 O 0.0043(6) 0.4103(3) 0.4527(4)
O5 O 0.4398(6) 0.2352(3) 0.0980(4)
H6 H 0.4162 0.2906 0.0918
H7 H 0.5097 0.2213 0.1488
O7 O 0.4478(7) 0.0425(4) 0.1338(4)
O16 O 0.1076(7) 0.0078(3) 0.1706(4)
C22 C 0.4748(8) 0.0019(5) 0.9373(6)
O11 O 0.2174(6) 0.2356(3) 0.9140(4)
O14 O 0.0043(6) 0.0897(3) 0.9527(4)
O19 O 0.3544(6) 0.0514(4) 0.9128(4)
C11 C 0.5252(8) 0.9981(5) 0.0627(6)
O6 O 0.6456(6) 0.9486(4) 0.0872(4)
O10 O 0.7826(6) 0.7644(3) 0.0860(4)
O13 O 0.9957(6) 0.9103(3) 0.0473(4)
C19 C 0.9291(8) 0.7056(4) 0.7615(5)
C21 C 0.8214(7) 0.7611(4) 0.6848(5)
Eu2 Eu 0.78020(4) 0.86815(2) 0.93233(3)
Eu4 Eu 0.78020(4) 0.63185(2) 0.43233(3)
N4 N 0.9644(6) 0.7397(4) 0.8696(4)
O8 O 0.7748(5) 0.8336(3) 0.7298(4)
O9 O 0.7826(6) 0.7356(3) 0.5860(4)
O12 O 0.9957(6) 0.5897(3) 0.5473(4)
O17 O 0.8924(7) 0.9922(3) 0.8294(4)
O18 O 0.5602(6) 0.7648(3) 0.9020(4)
H13 H 0.5838 0.7094 0.9082
H14 H 0.4903 0.7787 0.8512
O20 O 0.5522(7) 0.9575(4) 0.8662(4)
H3 H 0.7513 0.1915 0.0030
C6 C 0.9378(8) 0.3205(5) 0.0810(6)
C7 C 0.9922(8) 0.3754(4) 0.2538(5)
C9 C 0.9640(8) 0.4349(5) 0.3536(6)
N2 N 0.9112(7) 0.3909(4) 0.1518(4)
H5 H 0.8534 0.4374 0.1356
O4 O 0.8924(7) 0.5078(3) 0.3294(4)
C8_2 C 0.9291(8) 0.7944(4) 0.2615(5)
C10_2 C 0.8214(7) 0.7389(4) 0.1848(5)
C11_2 C 0.4748(8) 0.4981(5) 0.4373(6)
N1_2 N 0.9644(6) 0.7603(4) 0.3696(4)
O1_2 O 0.7748(5) 0.6664(3) 0.2298(4)
O5_2 O 0.5602(6) 0.7352(3) 0.4020(4)
H6_2 H 0.5838 0.7906 0.4082
H7_2 H 0.4903 0.7213 0.3512
O6_2 O 0.3544(6) 0.4486(4) 0.4128(4)
O7_2 O 0.5522(7) 0.5425(4) 0.3662(4)
C19_2 C 0.0709(8) 0.2056(4) 0.7385(5)
C21_2 C 0.1786(7) 0.2611(4) 0.8152(5)
C22_2 C 0.5252(8) 0.5019(5) 0.5627(6)
N4_2 N 0.0356(6) 0.2397(4) 0.6304(4)
O8_2 O 0.2252(5) 0.3336(3) 0.7702(4)
O18_2 O 0.4398(6) 0.2648(3) 0.5980(4)
H13_2 H 0.4162 0.2094 0.5918
H14_2 H 0.5097 0.2787 0.6488
O19_2 O 0.6456(6) 0.5514(4) 0.5872(4)
O20_2 O 0.4478(7) 0.4575(4) 0.6338(4)
C1 C 0.7630(10) 0.3672(5) 0.7849(6)
H1 H 0.7652 0.4124 0.7293
C2 C 0.8560(9) 0.3776(5) 0.8852(6)
H2 H 0.9207 0.4282 0.8954
C3 C 0.8511(8) 0.3121(5) 0.9690(5)
C4 C 0.7558(9) 0.2377(5) 0.9489(6)
C5 C 0.6668(9) 0.2329(5) 0.8468(7)
H4 H 0.6005 0.1833 0.8347
N3 N 0.6715(8) 0.2958(5) 0.7653(5)
C1_2 C 0.2370(10) 0.8672(5) 0.7151(6)
H1_2 H 0.2348 0.9124 0.7707
C2_2 C 0.1440(9) 0.8776(5) 0.6148(6)
H2_2 H 0.0793 0.9282 0.6046
C3_2 C 0.1489(8) 0.8121(5) 0.5310(5)
C4_2 C 0.2442(9) 0.7377(5) 0.5511(6)
H3_2 H 0.2487 0.6915 0.4970
C5_2 C 0.3332(9) 0.7329(5) 0.6532(7)
H4_2 H 0.3995 0.6833 0.6653
C6_2 C 0.0622(8) 0.8205(5) 0.4190(6)
C7_2 C 0.0078(8) 0.8754(4) 0.2462(5)
C9_2 C 0.0360(8) 0.9349(5) 0.1464(6)
N2_2 N 0.0888(7) 0.8909(4) 0.3482(4)
H5_2 H 0.1466 0.9374 0.3644
N3_2 N 0.3285(8) 0.7958(5) 0.7347(5)
C12_2 C 0.7630(10) 0.1328(5) 0.2849(6)
H8_2 H 0.7652 0.0876 0.2293
C13_2 C 0.8560(9) 0.1224(5) 0.3852(6)
H9_2 H 0.9207 0.0718 0.3954
C14_2 C 0.8511(8) 0.1879(5) 0.4690(5)
C15_2 C 0.7558(9) 0.2623(5) 0.4489(6)
H10_2 H 0.7513 0.3085 0.5030
C16_2 C 0.6668(9) 0.2671(5) 0.3468(7)
H11_2 H 0.6005 0.3167 0.3347
C17_2 C 0.9378(8) 0.1795(5) 0.5810(6)
C18_2 C 0.9922(8) 0.1246(4) 0.7538(5)
C20_2 C 0.9640(8) 0.0651(5) 0.8536(6)
N5_2 N 0.9112(7) 0.1091(4) 0.6518(4)
H12_2 H 0.8534 0.0626 0.6356
N6_2 N 0.6715(8) 0.2042(5) 0.2653(5)
loop_
_geom_bond_atom_site_label_1
_geom_bond_atom_site_label_2
_geom_bond_site_symmetry_1
_geom_bond_site_symmetry_2
C12 H8 1_555 1_555
C13 C12 1_555 1_555
H9 C13 1_555 1_555
C14 C13 1_555 1_555
C15 C14 1_555 1_555
C16 C15 1_555 1_555
H11 C16 1_555 1_555
N6 C12 1_555 1_555
C16 N6 1_555 1_555
C20 C18 1_555 1_555
Eu6 O15 1_555 1_555
N5 C17 1_555 1_555
H12 N5 1_555 1_555
O15 C20 1_555 1_555
C18 N5 1_555 1_555
C8 C10 1_555 1_555
C10 O1 1_555 1_555
Eu1 N1 1_555 1_555
O1 Eu1 1_555 1_555
O2 C10 1_555 1_555
O5 Eu1 1_555 1_555
H6 O5 1_555 1_555
H7 O5 1_555 1_555
Eu6 O2 1_555 1_555
O16 Eu1 1_555 1_555
C8 N1 1_555 1_555
Eu1 O7 1_555 1_555
O3 Eu6 1_555 1_555
C22 O19 1_555 1_555
C11 O6 1_555 1_555
C19 C21 1_555 1_555
C21 O8 1_555 1_555
Eu2 N4 1_555 1_555
Eu4 O9 1_555 1_555
O8 Eu2 1_555 1_555
O9 C21 1_555 1_555
O17 Eu2 1_555 1_555
O18 Eu2 1_555 1_555
H13 O18 1_555 1_555
H14 O18 1_555 1_555
C19 N4 1_555 1_555
Eu2 O20 1_555 1_555
Eu4 O12 1_555 1_555
C9 C7 1_555 1_555
N2 C6 1_555 1_555
H5 N2 1_555 1_555
O4 C9 1_555 1_555
Eu4 O4 1_555 1_555
C7 N2 1_555 1_555
C8_2 C10_2 1_555 1_555
C10_2 O1_2 1_555 1_555
C11_2 O6_2 1_555 1_555
Eu4 N1_2 1_555 1_555
O1_2 Eu4 1_555 1_555
O10 C10_2 1_555 1_555
O5_2 Eu4 1_555 1_555
H6_2 O5_2 1_555 1_555
H7_2 O5_2 1_555 1_555
O6_2 Eu6 1_555 1_555
O7_2 C11_2 1_555 1_555
C19_2 C21_2 1_555 1_555
C21_2 O8_2 1_555 1_555
C22_2 C11_2 1_555 1_555
Eu6 N4_2 1_555 1_555
O8_2 Eu6 1_555 1_555
O11 C21_2 1_555 1_555
O18_2 Eu6 1_555 1_555
H13_2 O18_2 1_555 1_555
H14_2 O18_2 1_555 1_555
O19_2 Eu4 1_555 1_555
O20_2 C22_2 1_555 1_555
C8_2 N1_2 1_555 1_555
Eu4 O7_2 1_555 1_555
C19_2 N4_2 1_555 1_555
C22_2 O19_2 1_555 1_555
Eu6 O20_2 1_555 1_555
C1 H1 1_555 1_555
C2 C1 1_555 1_555
H2 C2 1_555 1_555
C3 C2 1_555 1_555
C4 C3 1_555 1_555
C5 C4 1_555 1_555
H4 C5 1_555 1_555
N3 C1 1_555 1_555
C5 N3 1_555 1_555
C1_2 H1_2 1_555 1_555
C2_2 C1_2 1_555 1_555
H2_2 C2_2 1_555 1_555
C3_2 C2_2 1_555 1_555
C4_2 C3_2 1_555 1_555
H3_2 C4_2 1_555 1_555
C5_2 C4_2 1_555 1_555
H4_2 C5_2 1_555 1_555
C6_2 C3_2 1_555 1_555
C9_2 C7_2 1_555 1_555
N2_2 C6_2 1_555 1_555
H5_2 N2_2 1_555 1_555
N3_2 C1_2 1_555 1_555
C5_2 N3_2 1_555 1_555
C7_2 N2_2 1_555 1_555
C12_2 H8_2 1_555 1_555
C13_2 C12_2 1_555 1_555
H9_2 C13_2 1_555 1_555
C14_2 C13_2 1_555 1_555
C15_2 C14_2 1_555 1_555
H10_2 C15_2 1_555 1_555
C16_2 C15_2 1_555 1_555
H11_2 C16_2 1_555 1_555
C17_2 C14_2 1_555 1_555
C20_2 C18_2 1_555 1_555
N5_2 C17_2 1_555 1_555
H12_2 N5_2 1_555 1_555
N6_2 C12_2 1_555 1_555
C16_2 N6_2 1_555 1_555
C18_2 N5_2 1_555 1_555

#END
