
###############################################################################
#
# This file contains modified crystal structure data generated from the
# MOF subset of the Cambridge Structural Database (CSD) v543 
# hosted by the Cambridge Crystallographic Data Centre (CCDC).
#
# This work is licensed under the Creative Commons
# Attribution-NonCommercial-ShareAlike 4.0 International License.
# To view a copy of this license, visit
# http://creativecommons.org/licenses/by-nc-sa/4.0/
# or send a letter to
# Creative Commons, PO Box 1866, Mountain View, CA 94042, USA.
#
# CIF created using the CSD Python API on 29 September 2022
# The structure has been converted into the P1 space group
# The structure has a 3D framework
# The original CSD entry GAMBAA is in the monoclinic crystal system
# The framework has been calculated to contain at least 10.0% void space
# The void calculation uses a probe of radius 1.32A, grid spacing 0.4
#
###############################################################################

data_GAMBAA
_chemical_formula_moiety         '(C256 H296 Co8 Gd8 N24 O92)n'
_symmetry_cell_setting           triclinic
_symmetry_space_group_name_H-M   'P 1'
_symmetry_Int_Tables_number      1
_space_group_name_Hall           'P 1'
loop_
_symmetry_equiv_pos_site_id
_symmetry_equiv_pos_as_xyz
1 x,y,z
_cell_length_a                   34.8435(7)
_cell_length_b                   10.8429(3)
_cell_length_c                   22.7312(4)
_cell_angle_alpha                90
_cell_angle_beta                 92.2352(17)
_cell_angle_gamma                90
_cell_volume                     8581.42
loop_
_atom_site_label
_atom_site_type_symbol
_atom_site_fract_x
_atom_site_fract_y
_atom_site_fract_z
H23 H 0.3539 0.0301 0.5142
H25 H 0.3176 0.0047 0.4707
O15 O 0.18845(10) 0.0183(3) 0.46426(15)
H62 H 0.6824 0.0047 0.0293
Co4 Co 0.15393(2) 0.15443(7) 0.49415(3)
Gd1 Gd 0.35743(2) 0.54031(2) 0.35796(2)
Co1 Co 0.34607(2) 0.34557(7) 0.50585(3)
O1 O 0.34088(10) 0.3388(3) 0.36977(16)
O2 O 0.31222(10) 0.2582(3) 0.44701(14)
C1 C 0.31462(14) 0.2769(4) 0.3923(2)
C2 C 0.28504(14) 0.2199(5) 0.3511(2)
C3 C 0.25354(14) 0.1566(5) 0.3723(2)
H1 H 0.2509 0.1467 0.4135
C4 C 0.22617(14) 0.1083(5) 0.3332(2)
H2 H 0.2046 0.0654 0.3473
C5 C 0.23054(15) 0.1232(5) 0.2725(2)
C6 C 0.26209(17) 0.1831(6) 0.2524(2)
H3 H 0.2652 0.1904 0.2112
C7 C 0.28940(16) 0.2328(6) 0.2910(2)
H4 H 0.3110 0.2753 0.2766
C8 C 0.20021(16) 0.0788(6) 0.2291(2)
O3 O 0.16916(11) 0.0404(4) 0.24550(16)
O4 O 0.20764(13) 0.0825(5) 0.17491(16)
O5 O 0.32223(10) 0.5367(3) 0.44511(15)
O6 O 0.31155(10) 0.4817(3) 0.53574(15)
C9 C 0.30498(13) 0.5515(5) 0.4918(2)
C10 C 0.27665(13) 0.6535(5) 0.4959(2)
C11 C 0.26342(16) 0.6896(6) 0.5505(2)
H5 H 0.2725 0.6488 0.5853
C12 C 0.26292(16) 0.7151(6) 0.4460(2)
H6 H 0.2717 0.6916 0.4086
O7 O 0.40476(10) 0.5065(4) 0.42985(16)
O8 O 0.39961(10) 0.4045(4) 0.51388(17)
C13 C 0.41834(14) 0.4636(5) 0.4768(2)
C14 C 0.46080(13) 0.4825(5) 0.4894(2)
C15 C 0.48233(15) 0.5405(5) 0.4479(2)
H7 H 0.4703 0.5687 0.4122
C16 C 0.47833(15) 0.4420(6) 0.5417(2)
H8 H 0.4636 0.4024 0.5705
O9 O 0.40696(11) 0.4323(4) 0.30451(18)
O10 O 0.40942(11) 0.6342(4) 0.30776(18)
C17 C 0.42405(15) 0.5323(6) 0.2955(2)
C18 C 0.46337(15) 0.5299(6) 0.2711(2)
C19 C 0.48138(18) 0.4204(6) 0.2608(3)
H9 H 0.4688 0.3446 0.2683
C20 C 0.48169(18) 0.6377(6) 0.2605(3)
H10 H 0.4692 0.7138 0.2675
O11 O 0.33979(12) 0.2252(4) 0.57155(16)
N1 N 0.3283(2) 0.1375(5) 0.6568(3)
C21 C 0.3817(3) 0.2805(9) 0.6521(3)
H11 H 0.3988 0.2224 0.6732
H12 H 0.3724 0.3419 0.6797
H13 H 0.3958 0.3222 0.6213
C22 C 0.3469(2) 0.2090(7) 0.6233(3)
C23 C 0.3376(4) 0.1160(10) 0.7198(4)
H14 H 0.3139 0.1141 0.7415
H15 H 0.3542 0.1826 0.7352
H16 H 0.3510 0.0369 0.7247
C24 C 0.2966(3) 0.0664(8) 0.6317(6)
H17 H 0.2749 0.0700 0.6579
H19 H 0.2887 0.1006 0.5932
O12 O 0.35887(17) 0.7456(4) 0.3857(2)
C25 C 0.3226(3) 0.9322(8) 0.3783(5)
H20 H 0.3060 0.8892 0.3492
H21 H 0.3384 0.9928 0.3584
H22 H 0.3067 0.9746 0.4066
C26 C 0.3486(3) 0.8389(8) 0.4108(4)
N2 N 0.3594(3) 0.8610(7) 0.4668(4)
C27 C 0.3360(5) 0.9670(10) 0.4989(6)
H24 H 0.3223 0.9311 0.5316
C28 C 0.3826(4) 0.7746(10) 0.5003(5)
H26 H 0.3663 0.7278 0.5265
H27 H 0.4022 0.8193 0.5239
H28 H 0.3951 0.7178 0.4735
O13 O 0.3863(2) 0.1899(8) 0.4683(4)
N3 N 0.4493(3) 0.1880(12) 0.4425(6)
C29 C 0.4334(5) 0.1149(16) 0.5460(8)
H29 H 0.4607 0.0926 0.5473
H30 H 0.4180 0.0417 0.5541
H31 H 0.4289 0.1782 0.5757
C30 C 0.4211(4) 0.1688(14) 0.4805(8)
C31 C 0.4905(3) 0.1747(18) 0.4548(9)
H32 H 0.4953 0.1566 0.4967
H33 H 0.5036 0.2516 0.4448
H34 H 0.5004 0.1071 0.4311
C32 C 0.4363(4) 0.2264(13) 0.3858(6)
H35 H 0.4099 0.2566 0.3874
H36 H 0.4371 0.1565 0.3585
H37 H 0.4529 0.2926 0.3721
O14 O 0.17777(10) 0.9633(3) 0.55489(15)
C33 C 0.19502(13) 0.9485(5) 0.5082(2)
C34 C 0.22335(13) 0.8465(5) 0.5041(2)
C35 C 0.23658(16) 0.8104(6) 0.4495(2)
H38 H 0.2275 0.8512 0.4147
C36 C 0.23708(16) 0.7849(6) 0.5540(2)
H39 H 0.2283 0.8084 0.5914
O16 O 0.59524(10) 0.4935(4) 0.57015(16)
O17 O 0.60039(10) 0.5955(4) 0.48612(17)
C37 C 0.58166(14) 0.5364(5) 0.5232(2)
C38 C 0.53920(13) 0.5175(5) 0.5106(2)
C39 C 0.51767(15) 0.4595(5) 0.5521(2)
H40 H 0.5297 0.4313 0.5878
C40 C 0.52167(15) 0.5580(6) 0.4583(2)
H41 H 0.5364 0.5976 0.4295
O18 O 0.59304(11) 0.4323(4) 0.19549(18)
O19 O 0.59058(11) 0.6342(4) 0.19224(18)
C41 C 0.57595(15) 0.5323(6) 0.2045(2)
C42 C 0.53663(15) 0.5299(6) 0.2289(2)
C43 C 0.51862(18) 0.4204(6) 0.2392(3)
H42 H 0.5312 0.3446 0.2317
C44 C 0.51831(18) 0.6377(6) 0.2395(3)
H43 H 0.5308 0.7138 0.2325
Gd2 Gd 0.64257(2) 0.54031(2) 0.14204(2)
O20 O 0.65912(10) 0.3388(3) 0.13023(16)
O21 O 0.68778(10) 0.2582(3) 0.05299(14)
C45 C 0.68538(14) 0.2769(4) 0.1077(2)
C46 C 0.71496(14) 0.2199(5) 0.1489(2)
C47 C 0.74646(14) 0.1566(5) 0.1277(2)
H44 H 0.7491 0.1467 0.0865
C48 C 0.77383(14) 0.1083(5) 0.1668(2)
H45 H 0.7954 0.0654 0.1527
C49 C 0.76946(15) 0.1232(5) 0.2275(2)
C50 C 0.73791(17) 0.1831(6) 0.2476(2)
H46 H 0.7348 0.1904 0.2888
C51 C 0.71060(16) 0.2328(6) 0.2090(2)
H47 H 0.6890 0.2753 0.2234
C52 C 0.79979(16) 0.0788(6) 0.2709(2)
O22 O 0.83084(11) 0.0404(4) 0.25450(16)
O23 O 0.79236(13) 0.0825(5) 0.32509(16)
O25 O 0.64113(17) 0.7456(4) 0.1143(2)
C57 C 0.6774(3) 0.9322(8) 0.1217(5)
H57 H 0.6940 0.8892 0.1508
H58 H 0.6616 0.9928 0.1416
H59 H 0.6933 0.9746 0.0934
C58 C 0.6514(3) 0.8389(8) 0.0892(4)
N5 N 0.6406(3) 0.8610(7) 0.0332(4)
C59 C 0.6640(5) 0.9670(10) 0.0011(6)
H65 H 0.6049 0.7178 0.0265
O26 O 0.6137(2) 0.1899(8) 0.0317(4)
N6 N 0.5507(3) 0.1880(12) 0.0575(6)
C62 C 0.5789(4) 0.1688(14) 0.0195(8)
C63 C 0.5095(3) 0.1747(18) 0.0452(9)
H69 H 0.5047 0.1566 0.0033
H70 H 0.4964 0.2516 0.0552
H71 H 0.4996 0.1071 0.0689
C64 C 0.5637(4) 0.2264(13) 0.1142(6)
H72 H 0.5901 0.2566 0.1126
H73 H 0.5629 0.1565 0.1415
H74 H 0.5471 0.2926 0.1279
Gd3 Gd 0.85743(2) 0.04031(2) 0.35796(2)
Gd4 Gd 0.14257(2) 0.04031(2) 0.14204(2)
Gd5 Gd 0.64257(2) 0.45969(2) 0.64204(2)
Gd6 Gd 0.14257(2) 0.95969(2) 0.64204(2)
Co3 Co 0.65393(2) 0.65443(7) 0.49415(3)
O27 O 0.66916(11) 0.5404(4) 0.24550(16)
O28 O 0.33084(11) 0.5404(4) 0.25450(16)
O29 O 0.70764(13) 0.5825(5) 0.17491(16)
O30 O 0.29236(13) 0.5825(5) 0.32509(16)
O31 O 0.67777(10) 0.5367(3) 0.05489(15)
O33 O 0.59524(10) 0.5065(4) 0.07015(16)
Co2 Co 0.65393(2) 0.34557(7) 0.99415(3)
O24 O 0.66021(12) 0.2252(4) 0.92845(16)
N4 N 0.6717(2) 0.1375(5) 0.8432(3)
C53 C 0.6183(3) 0.2805(9) 0.8479(3)
H48 H 0.6012 0.2224 0.8268
H49 H 0.6276 0.3419 0.8203
H50 H 0.6042 0.3222 0.8787
C54 C 0.6531(2) 0.2090(7) 0.8767(3)
C55 C 0.6624(4) 0.1160(10) 0.7802(4)
H51 H 0.6861 0.1141 0.7585
H52 H 0.6458 0.1826 0.7648
H53 H 0.6490 0.0369 0.7753
C56 C 0.7034(3) 0.0664(8) 0.8683(6)
H54 H 0.7251 0.0700 0.8421
H56 H 0.7113 0.1006 0.9068
H61 H 0.6777 0.9311 0.9684
C60 C 0.6174(4) 0.7746(10) 0.9997(5)
H63 H 0.6337 0.7278 0.9735
H64 H 0.5978 0.8193 0.9761
C61 C 0.5666(5) 0.1149(16) 0.9540(8)
H66 H 0.5393 0.0926 0.9527
H67 H 0.5820 0.0417 0.9459
H68 H 0.5711 0.1782 0.9243
O32 O 0.68845(10) 0.4817(3) 0.96426(15)
O34 O 0.60039(10) 0.4045(4) 0.98612(17)
O15_2 O 0.81155(10) 0.0183(3) 0.03574(15)
Co4_2 Co 0.84607(2) 0.15443(7) 0.00585(3)
C9_2 C 0.69502(13) 0.5515(5) 0.0082(2)
C10_2 C 0.72335(13) 0.6535(5) 0.0041(2)
C12_2 C 0.73708(16) 0.7151(6) 0.0540(2)
H6_2 H 0.7283 0.6916 0.0914
C13_2 C 0.58166(14) 0.4636(5) 0.0232(2)
C14_2 C 0.53920(13) 0.4825(5) 0.0106(2)
C15_2 C 0.51767(15) 0.5405(5) 0.0521(2)
H7_2 H 0.5297 0.5687 0.0878
C35_2 C 0.76342(16) 0.8104(6) 0.0505(2)
H38_2 H 0.7725 0.8512 0.0853
O17_2 O 0.39961(10) 0.5955(4) 0.01388(17)
C40_2 C 0.47833(15) 0.5580(6) 0.0417(2)
H41_2 H 0.4636 0.5976 0.0705
Co3_2 Co 0.34607(2) 0.65443(7) 0.00585(3)
C11_2 C 0.73658(16) 0.6896(6) 0.9495(2)
H5_2 H 0.7275 0.6488 0.9147
C16_2 C 0.52167(15) 0.4420(6) 0.9583(2)
H8_2 H 0.5364 0.4024 0.9295
O14_2 O 0.82223(10) 0.9633(3) 0.94511(15)
C33_2 C 0.80498(13) 0.9485(5) 0.9918(2)
C34_2 C 0.77665(13) 0.8465(5) 0.9959(2)
C36_2 C 0.76292(16) 0.7849(6) 0.9460(2)
H39_2 H 0.7717 0.8084 0.9086
O16_2 O 0.40476(10) 0.4935(4) 0.92985(16)
C37_2 C 0.41834(14) 0.5364(5) 0.9768(2)
C38_2 C 0.46080(13) 0.5175(5) 0.9894(2)
C39_2 C 0.48233(15) 0.4595(5) 0.9479(2)
H40_2 H 0.4703 0.4313 0.9122
Gd5_2 Gd 0.35743(2) 0.45969(2) 0.85796(2)
Gd6_2 Gd 0.85743(2) 0.95969(2) 0.85796(2)
O17_3 O 0.10039(10) 0.0955(4) 0.48612(17)
C37_3 C 0.08166(14) 0.0364(5) 0.5232(2)
C38_3 C 0.03920(13) 0.0175(5) 0.5106(2)
C40_3 C 0.02167(15) 0.0580(6) 0.4583(2)
H41_3 H 0.0364 0.0976 0.4295
O19_2 O 0.09058(11) 0.1342(4) 0.19224(18)
C41_2 C 0.07595(15) 0.0323(6) 0.2045(2)
C42_2 C 0.03663(15) 0.0299(6) 0.2289(2)
C44_2 C 0.01831(18) 0.1377(6) 0.2395(3)
H43_2 H 0.0308 0.2138 0.2325
O25_2 O 0.14113(17) 0.2456(4) 0.1143(2)
C57_2 C 0.1774(3) 0.4322(8) 0.1217(5)
H57_2 H 0.1940 0.3892 0.1508
H58_2 H 0.1616 0.4928 0.1416
H59_2 H 0.1933 0.4746 0.0934
C58_2 C 0.1514(3) 0.3389(8) 0.0892(4)
N5_2 N 0.1406(3) 0.3610(7) 0.0332(4)
C59_2 C 0.1640(5) 0.4670(10) 0.0011(6)
H62_2 H 0.1824 0.5047 0.0293
H65_2 H 0.1049 0.2178 0.0265
O31_2 O 0.17777(10) 0.0367(3) 0.05489(15)
O33_2 O 0.09524(10) 0.0065(4) 0.07015(16)
H60 H 0.1461 0.5301 0.9858
H61_2 H 0.1777 0.4311 0.9684
C60_2 C 0.1174(4) 0.2746(10) 0.9997(5)
H63_2 H 0.1337 0.2278 0.9735
H64_2 H 0.0978 0.3193 0.9761
H33_2 H 0.0036 0.7516 0.4448
H34_2 H 0.0004 0.6071 0.4311
O16_3 O 0.09524(10) 0.9935(4) 0.57015(16)
C39_3 C 0.01767(15) 0.9595(5) 0.5521(2)
H40_3 H 0.0297 0.9313 0.5878
O18_2 O 0.09304(11) 0.9323(4) 0.19549(18)
C43_2 C 0.01862(18) 0.9204(6) 0.2392(3)
H42_2 H 0.0312 0.8446 0.2317
O20_2 O 0.15912(10) 0.8388(3) 0.13023(16)
O21_2 O 0.18778(10) 0.7582(3) 0.05299(14)
C45_2 C 0.18538(14) 0.7769(4) 0.1077(2)
C46_2 C 0.21496(14) 0.7199(5) 0.1489(2)
C47_2 C 0.24646(14) 0.6566(5) 0.1277(2)
H44_2 H 0.2491 0.6467 0.0865
C48_2 C 0.27383(14) 0.6083(5) 0.1668(2)
H45_2 H 0.2954 0.5654 0.1527
C49_2 C 0.26946(15) 0.6232(5) 0.2275(2)
C50_2 C 0.23791(17) 0.6831(6) 0.2476(2)
H46_2 H 0.2348 0.6904 0.2888
C51_2 C 0.21060(16) 0.7328(6) 0.2090(2)
H47_2 H 0.1890 0.7753 0.2234
C52_2 C 0.29979(16) 0.5788(6) 0.2709(2)
O26_2 O 0.1137(2) 0.6899(8) 0.0317(4)
N6_2 N 0.0507(3) 0.6880(12) 0.0575(6)
C62_2 C 0.0789(4) 0.6688(14) 0.0195(8)
C63_2 C 0.0095(3) 0.6747(18) 0.0452(9)
H69_2 H 0.0047 0.6566 0.0033
C64_2 C 0.0637(4) 0.7264(13) 0.1142(6)
H72_2 H 0.0901 0.7566 0.1126
H73_2 H 0.0629 0.6565 0.1415
H74_2 H 0.0471 0.7926 0.1279
Co2_2 Co 0.15393(2) 0.84557(7) 0.99415(3)
O24_2 O 0.16021(12) 0.7252(4) 0.92845(16)
N4_2 N 0.1717(2) 0.6375(5) 0.8432(3)
C53_2 C 0.1183(3) 0.7805(9) 0.8479(3)
H48_2 H 0.1012 0.7224 0.8268
H49_2 H 0.1276 0.8419 0.8203
H50_2 H 0.1042 0.8222 0.8787
C54_2 C 0.1531(2) 0.7090(7) 0.8767(3)
C55_2 C 0.1624(4) 0.6160(10) 0.7802(4)
H51_2 H 0.1861 0.6141 0.7585
H52_2 H 0.1458 0.6826 0.7648
H53_2 H 0.1490 0.5369 0.7753
C56_2 C 0.2034(3) 0.5664(8) 0.8683(6)
H54_2 H 0.2251 0.5700 0.8421
H55 H 0.1954 0.4804 0.8730
H56_2 H 0.2113 0.6006 0.9068
C61_2 C 0.0666(5) 0.6149(16) 0.9540(8)
H66_2 H 0.0393 0.5926 0.9527
H67_2 H 0.0820 0.5417 0.9459
H68_2 H 0.0711 0.6782 0.9243
O32_2 O 0.18845(10) 0.9817(3) 0.96426(15)
O34_2 O 0.10039(10) 0.9045(4) 0.98612(17)
O5_2 O 0.82223(10) 0.0367(3) 0.44511(15)
C9_3 C 0.80498(13) 0.0515(5) 0.4918(2)
C10_3 C 0.77665(13) 0.1535(5) 0.4959(2)
C11_3 C 0.76342(16) 0.1896(6) 0.5505(2)
H5_3 H 0.7725 0.1488 0.5853
C12_3 C 0.76292(16) 0.2151(6) 0.4460(2)
H6_3 H 0.7717 0.1916 0.4086
O7_2 O 0.90476(10) 0.0065(4) 0.42985(16)
C15_3 C 0.98233(15) 0.0405(5) 0.4479(2)
H7_3 H 0.9703 0.0687 0.4122
O10_2 O 0.90942(11) 0.1342(4) 0.30776(18)
C17_2 C 0.92405(15) 0.0323(6) 0.2955(2)
C18_2 C 0.96337(15) 0.0299(6) 0.2711(2)
C20_2 C 0.98169(18) 0.1377(6) 0.2605(3)
H10_2 H 0.9692 0.2138 0.2675
O12_2 O 0.85887(17) 0.2456(4) 0.3857(2)
C25_2 C 0.8226(3) 0.4322(8) 0.3783(5)
H20_2 H 0.8060 0.3892 0.3492
H21_2 H 0.8384 0.4928 0.3584
H22_2 H 0.8067 0.4746 0.4066
C26_2 C 0.8486(3) 0.3389(8) 0.4108(4)
N2_2 N 0.8594(3) 0.3610(7) 0.4668(4)
C27_2 C 0.8360(5) 0.4670(10) 0.4989(6)
H23_2 H 0.8539 0.5301 0.5142
H24_2 H 0.8223 0.4311 0.5316
H25_2 H 0.8176 0.5047 0.4707
C28_2 C 0.8826(4) 0.2746(10) 0.5003(5)
H26_2 H 0.8663 0.2278 0.5265
H27_2 H 0.9022 0.3193 0.5239
H28_2 H 0.8951 0.2178 0.4735
O14_3 O 0.67777(10) 0.4633(3) 0.55489(15)
O15_3 O 0.68845(10) 0.5183(3) 0.46426(15)
C33_3 C 0.69502(13) 0.4485(5) 0.5082(2)
C34_3 C 0.72335(13) 0.3465(5) 0.5041(2)
C35_3 C 0.73658(16) 0.3104(6) 0.4495(2)
H38_3 H 0.7275 0.3512 0.4147
C36_3 C 0.73708(16) 0.2849(6) 0.5540(2)
H39_3 H 0.7283 0.3084 0.5914
Co1_2 Co 0.84607(2) 0.84557(7) 0.50585(3)
O1_2 O 0.84088(10) 0.8388(3) 0.36977(16)
O2_2 O 0.81222(10) 0.7582(3) 0.44701(14)
C1_2 C 0.81462(14) 0.7769(4) 0.3923(2)
C2_2 C 0.78504(14) 0.7199(5) 0.3511(2)
C3_2 C 0.75354(14) 0.6566(5) 0.3723(2)
H1_2 H 0.7509 0.6467 0.4135
C4_2 C 0.72617(14) 0.6083(5) 0.3332(2)
H2_2 H 0.7046 0.5654 0.3473
C5_2 C 0.73054(15) 0.6232(5) 0.2725(2)
C6_2 C 0.76209(17) 0.6831(6) 0.2524(2)
H3_2 H 0.7652 0.6904 0.2112
C7_2 C 0.78940(16) 0.7328(6) 0.2910(2)
H4_2 H 0.8110 0.7753 0.2766
C8_2 C 0.70021(16) 0.5788(6) 0.2291(2)
O6_2 O 0.81155(10) 0.9817(3) 0.53574(15)
O8_2 O 0.89961(10) 0.9045(4) 0.51388(17)
C13_3 C 0.91834(14) 0.9636(5) 0.4768(2)
C14_3 C 0.96080(13) 0.9825(5) 0.4894(2)
C16_3 C 0.97833(15) 0.9420(6) 0.5417(2)
H8_3 H 0.9636 0.9024 0.5705
O9_2 O 0.90696(11) 0.9323(4) 0.30451(18)
C19_2 C 0.98138(18) 0.9204(6) 0.2608(3)
H9_2 H 0.9688 0.8446 0.2683
O11_2 O 0.83979(12) 0.7252(4) 0.57155(16)
N1_2 N 0.8283(2) 0.6375(5) 0.6568(3)
C21_2 C 0.8817(3) 0.7805(9) 0.6521(3)
H11_2 H 0.8988 0.7224 0.6732
H12_2 H 0.8724 0.8419 0.6797
H13_2 H 0.8958 0.8222 0.6213
C22_2 C 0.8469(2) 0.7090(7) 0.6233(3)
C23_2 C 0.8376(4) 0.6160(10) 0.7198(4)
H14_2 H 0.8139 0.6141 0.7415
H15_2 H 0.8542 0.6826 0.7352
H16_2 H 0.8510 0.5369 0.7247
C24_2 C 0.7966(3) 0.5664(8) 0.6317(6)
H17_2 H 0.7749 0.5700 0.6579
H18 H 0.8046 0.4804 0.6270
H19_2 H 0.7887 0.6006 0.5932
O13_2 O 0.8863(2) 0.6899(8) 0.4683(4)
N3_2 N 0.9493(3) 0.6880(12) 0.4425(6)
C29_2 C 0.9334(5) 0.6149(16) 0.5460(8)
H29_2 H 0.9607 0.5926 0.5473
H30_2 H 0.9180 0.5417 0.5541
H31_2 H 0.9289 0.6782 0.5757
C30_2 C 0.9211(4) 0.6688(14) 0.4805(8)
C31_2 C 0.9905(3) 0.6747(18) 0.4548(9)
H32_2 H 0.9953 0.6566 0.4967
C32_2 C 0.9363(4) 0.7264(13) 0.3858(6)
H35_2 H 0.9099 0.7566 0.3874
H36_2 H 0.9371 0.6565 0.3585
H37_2 H 0.9529 0.7926 0.3721
H70_2 H 0.9964 0.7516 0.0552
H71_2 H 0.9996 0.6071 0.0689
C9_4 C 0.19502(13) 0.0515(5) 0.0082(2)
C10_4 C 0.22335(13) 0.1535(5) 0.0041(2)
C12_4 C 0.23708(16) 0.2151(6) 0.0540(2)
H6_4 H 0.2283 0.1916 0.0914
C15_4 C 0.01767(15) 0.0405(5) 0.0521(2)
H7_4 H 0.0297 0.0687 0.0878
O15_4 O 0.31155(10) 0.5183(3) 0.03574(15)
C35_4 C 0.26342(16) 0.3104(6) 0.0505(2)
H38_4 H 0.2725 0.3512 0.0853
C11_4 C 0.23658(16) 0.1896(6) 0.9495(2)
H5_4 H 0.2275 0.1488 0.9147
O14_4 O 0.32223(10) 0.4633(3) 0.94511(15)
C33_4 C 0.30498(13) 0.4485(5) 0.9918(2)
C34_4 C 0.27665(13) 0.3465(5) 0.9959(2)
C36_4 C 0.26292(16) 0.2849(6) 0.9460(2)
H39_4 H 0.2717 0.3084 0.9086
C13_4 C 0.08166(14) 0.9636(5) 0.0232(2)
C14_4 C 0.03920(13) 0.9825(5) 0.0106(2)
C16_4 C 0.02167(15) 0.9420(6) 0.9583(2)
H8_4 H 0.0364 0.9024 0.9295
O17_4 O 0.89961(10) 0.0955(4) 0.01388(17)
C40_4 C 0.97833(15) 0.0580(6) 0.0417(2)
H41_4 H 0.9636 0.0976 0.0705
C37_4 C 0.91834(14) 0.0364(5) 0.9768(2)
C38_4 C 0.96080(13) 0.0175(5) 0.9894(2)
O16_4 O 0.90476(10) 0.9935(4) 0.92985(16)
C39_4 C 0.98233(15) 0.9595(5) 0.9479(2)
H40_4 H 0.9703 0.9313 0.9122
O24_3 O 0.33979(12) 0.7748(4) 0.07155(16)
N4_3 N 0.3283(2) 0.8625(5) 0.1568(3)
C53_3 C 0.3817(3) 0.7195(9) 0.1521(3)
H48_3 H 0.3988 0.7776 0.1732
H49_3 H 0.3724 0.6581 0.1797
H50_3 H 0.3958 0.6778 0.1213
C54_3 C 0.3469(2) 0.7910(7) 0.1233(3)
C55_3 C 0.3376(4) 0.8840(10) 0.2198(4)
H51_3 H 0.3139 0.8859 0.2415
H52_3 H 0.3542 0.8174 0.2352
H53_3 H 0.3510 0.9631 0.2247
C56_3 C 0.2966(3) 0.9336(8) 0.1317(6)
H54_3 H 0.2749 0.9300 0.1579
H56_3 H 0.2887 0.8994 0.0932
H61_3 H 0.3223 0.0689 0.0316
C60_3 C 0.3826(4) 0.2254(10) 0.0003(5)
H63_3 H 0.3663 0.2722 0.0265
H64_3 H 0.4022 0.1807 0.0239
C61_3 C 0.4334(5) 0.8851(16) 0.0460(8)
H66_3 H 0.4607 0.9074 0.0473
H67_3 H 0.4180 0.9583 0.0541
H68_3 H 0.4289 0.8218 0.0757
O1_3 O 0.65912(10) 0.6612(3) 0.63023(16)
O2_3 O 0.68778(10) 0.7418(3) 0.55299(14)
C1_3 C 0.68538(14) 0.7231(4) 0.6077(2)
C2_3 C 0.71496(14) 0.7801(5) 0.6489(2)
C3_3 C 0.74646(14) 0.8434(5) 0.6277(2)
H1_3 H 0.7491 0.8533 0.5865
C4_3 C 0.77383(14) 0.8917(5) 0.6668(2)
H2_3 H 0.7954 0.9346 0.6527
C5_3 C 0.76946(15) 0.8768(5) 0.7275(2)
C6_3 C 0.73791(17) 0.8169(6) 0.7476(2)
H3_3 H 0.7348 0.8096 0.7888
C7_3 C 0.71060(16) 0.7672(6) 0.7090(2)
H4_3 H 0.6890 0.7247 0.7234
C8_3 C 0.79979(16) 0.9212(6) 0.7709(2)
O3_2 O 0.83084(11) 0.9596(4) 0.75450(16)
O4_2 O 0.79236(13) 0.9175(5) 0.82509(16)
O9_3 O 0.59304(11) 0.5677(4) 0.69549(18)
O10_3 O 0.59058(11) 0.3658(4) 0.69224(18)
C17_3 C 0.57595(15) 0.4677(6) 0.7045(2)
C18_3 C 0.53663(15) 0.4701(6) 0.7289(2)
C19_3 C 0.51862(18) 0.5796(6) 0.7392(3)
H9_3 H 0.5312 0.6554 0.7317
C20_3 C 0.51831(18) 0.3623(6) 0.7395(3)
H10_3 H 0.5308 0.2862 0.7325
O11_3 O 0.66021(12) 0.7748(4) 0.42845(16)
N1_3 N 0.6717(2) 0.8625(5) 0.3432(3)
C21_3 C 0.6183(3) 0.7195(9) 0.3479(3)
H11_3 H 0.6012 0.7776 0.3268
H12_3 H 0.6276 0.6581 0.3203
H13_3 H 0.6042 0.6778 0.3787
C22_3 C 0.6531(2) 0.7910(7) 0.3767(3)
C23_3 C 0.6624(4) 0.8840(10) 0.2802(4)
H14_3 H 0.6861 0.8859 0.2585
H15_3 H 0.6458 0.8174 0.2648
H16_3 H 0.6490 0.9631 0.2753
C24_3 C 0.7034(3) 0.9336(8) 0.3683(6)
H17_3 H 0.7251 0.9300 0.3421
H19_3 H 0.7113 0.8994 0.4068
O12_3 O 0.64113(17) 0.2544(4) 0.6143(2)
C25_3 C 0.6774(3) 0.0678(8) 0.6217(5)
H20_3 H 0.6940 0.1108 0.6508
H21_3 H 0.6616 0.0072 0.6416
H22_3 H 0.6933 0.0254 0.5934
C26_3 C 0.6514(3) 0.1611(8) 0.5892(4)
N2_3 N 0.6406(3) 0.1390(7) 0.5332(4)
C27_3 C 0.6640(5) 0.0330(10) 0.5011(6)
H24_3 H 0.6777 0.0689 0.4684
C28_3 C 0.6174(4) 0.2254(10) 0.4997(5)
H26_3 H 0.6337 0.2722 0.4735
H27_3 H 0.5978 0.1807 0.4761
H28_3 H 0.6049 0.2822 0.5265
O13_3 O 0.6137(2) 0.8101(8) 0.5317(4)
N3_3 N 0.5507(3) 0.8120(12) 0.5575(6)
C29_3 C 0.5666(5) 0.8851(16) 0.4540(8)
H29_3 H 0.5393 0.9074 0.4527
H30_3 H 0.5820 0.9583 0.4459
H31_3 H 0.5711 0.8218 0.4243
C30_3 C 0.5789(4) 0.8312(14) 0.5195(8)
C31_3 C 0.5095(3) 0.8253(18) 0.5452(9)
H32_3 H 0.5047 0.8434 0.5033
H33_3 H 0.4964 0.7484 0.5552
H34_3 H 0.4996 0.8929 0.5689
C32_3 C 0.5637(4) 0.7736(13) 0.6142(6)
H35_3 H 0.5901 0.7434 0.6126
H36_3 H 0.5629 0.8435 0.6415
H37_3 H 0.5471 0.7074 0.6279
O18_3 O 0.40696(11) 0.5677(4) 0.80451(18)
O19_3 O 0.40942(11) 0.3658(4) 0.80776(18)
C41_3 C 0.42405(15) 0.4677(6) 0.7955(2)
C42_3 C 0.46337(15) 0.4701(6) 0.7711(2)
C43_3 C 0.48138(18) 0.5796(6) 0.7608(3)
H42_3 H 0.4688 0.6554 0.7683
C44_3 C 0.48169(18) 0.3623(6) 0.7605(3)
H43_3 H 0.4692 0.2862 0.7675
O20_3 O 0.34088(10) 0.6612(3) 0.86977(16)
O21_3 O 0.31222(10) 0.7418(3) 0.94701(14)
C45_3 C 0.31462(14) 0.7231(4) 0.8923(2)
C46_3 C 0.28504(14) 0.7801(5) 0.8511(2)
C47_3 C 0.25354(14) 0.8434(5) 0.8723(2)
H44_3 H 0.2509 0.8533 0.9135
C48_3 C 0.22617(14) 0.8917(5) 0.8332(2)
H45_3 H 0.2046 0.9346 0.8473
C49_3 C 0.23054(15) 0.8768(5) 0.7725(2)
C50_3 C 0.26209(17) 0.8169(6) 0.7524(2)
H46_3 H 0.2652 0.8096 0.7112
C51_3 C 0.28940(16) 0.7672(6) 0.7910(2)
H47_3 H 0.3110 0.7247 0.7766
C52_3 C 0.20021(16) 0.9212(6) 0.7291(2)
O22_2 O 0.16916(11) 0.9596(4) 0.74550(16)
O23_2 O 0.20764(13) 0.9175(5) 0.67491(16)
O25_3 O 0.35887(17) 0.2544(4) 0.8857(2)
C57_3 C 0.3226(3) 0.0678(8) 0.8783(5)
H57_3 H 0.3060 0.1108 0.8492
H58_3 H 0.3384 0.0072 0.8584
H59_3 H 0.3067 0.0254 0.9066
C58_3 C 0.3486(3) 0.1611(8) 0.9108(4)
N5_3 N 0.3594(3) 0.1390(7) 0.9668(4)
C59_3 C 0.3360(5) 0.0330(10) 0.9989(6)
H65_3 H 0.3951 0.2822 0.9735
O26_3 O 0.3863(2) 0.8101(8) 0.9683(4)
N6_3 N 0.4493(3) 0.8120(12) 0.9425(6)
C62_3 C 0.4211(4) 0.8312(14) 0.9805(8)
C63_3 C 0.4905(3) 0.8253(18) 0.9548(9)
H69_3 H 0.4953 0.8434 0.9967
H70_3 H 0.5036 0.7484 0.9448
H71_3 H 0.5004 0.8929 0.9311
C64_3 C 0.4363(4) 0.7736(13) 0.8858(6)
H72_3 H 0.4099 0.7434 0.8874
H73_3 H 0.4371 0.8435 0.8585
H74_3 H 0.4529 0.7074 0.8721
O27_2 O 0.33084(11) 0.4596(4) 0.75450(16)
O28_2 O 0.66916(11) 0.4596(4) 0.74550(16)
O29_2 O 0.29236(13) 0.4175(5) 0.82509(16)
O30_2 O 0.70764(13) 0.4175(5) 0.67491(16)
H23_3 H 0.6461 0.9699 0.4858
H25_3 H 0.6824 0.9953 0.5293
H62_3 H 0.3176 0.9953 0.9707
O1_4 O 0.15912(10) 0.1612(3) 0.63023(16)
O2_4 O 0.18778(10) 0.2418(3) 0.55299(14)
C1_4 C 0.18538(14) 0.2231(4) 0.6077(2)
C2_4 C 0.21496(14) 0.2801(5) 0.6489(2)
C3_4 C 0.24646(14) 0.3434(5) 0.6277(2)
H1_4 H 0.2491 0.3533 0.5865
C4_4 C 0.27383(14) 0.3917(5) 0.6668(2)
H2_4 H 0.2954 0.4346 0.6527
C5_4 C 0.26946(15) 0.3768(5) 0.7275(2)
C6_4 C 0.23791(17) 0.3169(6) 0.7476(2)
H3_4 H 0.2348 0.3096 0.7888
C7_4 C 0.21060(16) 0.2672(6) 0.7090(2)
H4_4 H 0.1890 0.2247 0.7234
C8_4 C 0.29979(16) 0.4212(6) 0.7709(2)
O9_4 O 0.09304(11) 0.0677(4) 0.69549(18)
C19_4 C 0.01862(18) 0.0796(6) 0.7392(3)
H9_4 H 0.0312 0.1554 0.7317
O11_4 O 0.16021(12) 0.2748(4) 0.42845(16)
N1_4 N 0.1717(2) 0.3625(5) 0.3432(3)
C21_4 C 0.1183(3) 0.2195(9) 0.3479(3)
H11_4 H 0.1012 0.2776 0.3268
H12_4 H 0.1276 0.1581 0.3203
H13_4 H 0.1042 0.1778 0.3787
C22_4 C 0.1531(2) 0.2910(7) 0.3767(3)
C23_4 C 0.1624(4) 0.3840(10) 0.2802(4)
H14_4 H 0.1861 0.3859 0.2585
H15_4 H 0.1458 0.3174 0.2648
H16_4 H 0.1490 0.4631 0.2753
C24_4 C 0.2034(3) 0.4336(8) 0.3683(6)
H17_4 H 0.2251 0.4300 0.3421
H18_2 H 0.1954 0.5196 0.3730
H19_4 H 0.2113 0.3994 0.4068
O13_4 O 0.1137(2) 0.3101(8) 0.5317(4)
N3_4 N 0.0507(3) 0.3120(12) 0.5575(6)
C29_4 C 0.0666(5) 0.3851(16) 0.4540(8)
H29_4 H 0.0393 0.4074 0.4527
H30_4 H 0.0820 0.4583 0.4459
H31_4 H 0.0711 0.3218 0.4243
C30_4 C 0.0789(4) 0.3312(14) 0.5195(8)
C31_4 C 0.0095(3) 0.3253(18) 0.5452(9)
H32_4 H 0.0047 0.3434 0.5033
C32_4 C 0.0637(4) 0.2736(13) 0.6142(6)
H35_4 H 0.0901 0.2434 0.6126
H36_4 H 0.0629 0.3435 0.6415
H37_4 H 0.0471 0.2074 0.6279
H70_4 H 0.0036 0.2484 0.9448
H71_4 H 0.0004 0.3929 0.9311
O10_4 O 0.09058(11) 0.8658(4) 0.69224(18)
C17_4 C 0.07595(15) 0.9677(6) 0.7045(2)
C18_4 C 0.03663(15) 0.9701(6) 0.7289(2)
C20_4 C 0.01831(18) 0.8623(6) 0.7395(3)
H10_4 H 0.0308 0.7862 0.7325
O12_4 O 0.14113(17) 0.7544(4) 0.6143(2)
C25_4 C 0.1774(3) 0.5678(8) 0.6217(5)
H20_4 H 0.1940 0.6108 0.6508
H21_4 H 0.1616 0.5072 0.6416
H22_4 H 0.1933 0.5254 0.5934
C26_4 C 0.1514(3) 0.6611(8) 0.5892(4)
N2_4 N 0.1406(3) 0.6390(7) 0.5332(4)
C27_4 C 0.1640(5) 0.5330(10) 0.5011(6)
H23_4 H 0.1461 0.4699 0.4858
H24_4 H 0.1777 0.5689 0.4684
H25_4 H 0.1824 0.4953 0.5293
C28_4 C 0.1174(4) 0.7254(10) 0.4997(5)
H26_4 H 0.1337 0.7722 0.4735
H27_4 H 0.0978 0.6807 0.4761
H28_4 H 0.1049 0.7822 0.5265
O24_4 O 0.83979(12) 0.2748(4) 0.07155(16)
N4_4 N 0.8283(2) 0.3625(5) 0.1568(3)
C53_4 C 0.8817(3) 0.2195(9) 0.1521(3)
H48_4 H 0.8988 0.2776 0.1732
H49_4 H 0.8724 0.1581 0.1797
H50_4 H 0.8958 0.1778 0.1213
C54_4 C 0.8469(2) 0.2910(7) 0.1233(3)
C55_4 C 0.8376(4) 0.3840(10) 0.2198(4)
H51_4 H 0.8139 0.3859 0.2415
H52_4 H 0.8542 0.3174 0.2352
H53_4 H 0.8510 0.4631 0.2247
C56_4 C 0.7966(3) 0.4336(8) 0.1317(6)
H54_4 H 0.7749 0.4300 0.1579
H55_2 H 0.8046 0.5196 0.1270
H56_4 H 0.7887 0.3994 0.0932
C61_4 C 0.9334(5) 0.3851(16) 0.0460(8)
H66_4 H 0.9607 0.4074 0.0473
H67_4 H 0.9180 0.4583 0.0541
H68_4 H 0.9289 0.3218 0.0757
H33_4 H 0.9964 0.2484 0.5552
H34_4 H 0.9996 0.3929 0.5689
O18_4 O 0.90696(11) 0.0677(4) 0.80451(18)
C43_4 C 0.98138(18) 0.0796(6) 0.7608(3)
H42_4 H 0.9688 0.1554 0.7683
O20_4 O 0.84088(10) 0.1612(3) 0.86977(16)
O21_4 O 0.81222(10) 0.2418(3) 0.94701(14)
C45_4 C 0.81462(14) 0.2231(4) 0.8923(2)
C46_4 C 0.78504(14) 0.2801(5) 0.8511(2)
C47_4 C 0.75354(14) 0.3434(5) 0.8723(2)
H44_4 H 0.7509 0.3533 0.9135
C48_4 C 0.72617(14) 0.3917(5) 0.8332(2)
H45_4 H 0.7046 0.4346 0.8473
C49_4 C 0.73054(15) 0.3768(5) 0.7725(2)
C50_4 C 0.76209(17) 0.3169(6) 0.7524(2)
H46_4 H 0.7652 0.3096 0.7112
C51_4 C 0.78940(16) 0.2672(6) 0.7910(2)
H47_4 H 0.8110 0.2247 0.7766
C52_4 C 0.70021(16) 0.4212(6) 0.7291(2)
O26_4 O 0.8863(2) 0.3101(8) 0.9683(4)
N6_4 N 0.9493(3) 0.3120(12) 0.9425(6)
C62_4 C 0.9211(4) 0.3312(14) 0.9805(8)
C63_4 C 0.9905(3) 0.3253(18) 0.9548(9)
H69_4 H 0.9953 0.3434 0.9967
C64_4 C 0.9363(4) 0.2736(13) 0.8858(6)
H72_4 H 0.9099 0.2434 0.8874
H73_4 H 0.9371 0.3435 0.8585
H74_4 H 0.9529 0.2074 0.8721
H60_2 H 0.8539 0.4699 0.0142
H61_4 H 0.8223 0.5689 0.0316
C60_4 C 0.8826(4) 0.7254(10) 0.0003(5)
H63_4 H 0.8663 0.7722 0.0265
H64_4 H 0.9022 0.6807 0.0239
O19_4 O 0.90942(11) 0.8658(4) 0.80776(18)
C41_4 C 0.92405(15) 0.9677(6) 0.7955(2)
C42_4 C 0.96337(15) 0.9701(6) 0.7711(2)
C44_4 C 0.98169(18) 0.8623(6) 0.7605(3)
H43_4 H 0.9692 0.7862 0.7675
O25_4 O 0.85887(17) 0.7544(4) 0.8857(2)
C57_4 C 0.8226(3) 0.5678(8) 0.8783(5)
H57_4 H 0.8060 0.6108 0.8492
H58_4 H 0.8384 0.5072 0.8584
H59_4 H 0.8067 0.5254 0.9066
C58_4 C 0.8486(3) 0.6611(8) 0.9108(4)
N5_4 N 0.8594(3) 0.6390(7) 0.9668(4)
C59_4 C 0.8360(5) 0.5330(10) 0.9989(6)
H62_4 H 0.8176 0.4953 0.9707
H65_4 H 0.8951 0.7822 0.9735
H60_3 H 0.6461 0.0301 0.9858
H18_3 H 0.3046 0.9804 0.6270
H55_3 H 0.6954 0.9804 0.8730
H55_4 H 0.3046 0.0196 0.1270
H18_4 H 0.6954 0.0196 0.3730
H60_4 H 0.3539 0.9699 0.0142
loop_
_geom_bond_atom_site_label_1
_geom_bond_atom_site_label_2
_geom_bond_site_symmetry_1
_geom_bond_site_symmetry_2
Co4 O15 1_555 1_555
Gd1 O1 1_555 1_555
Co1 O2 1_555 1_555
O1 C1 1_555 1_555
O2 C1 1_555 1_555
C1 C2 1_555 1_555
C2 C3 1_555 1_555
C3 H1 1_555 1_555
C4 C3 1_555 1_555
H2 C4 1_555 1_555
C5 C4 1_555 1_555
C6 C5 1_555 1_555
H3 C6 1_555 1_555
C7 C2 1_555 1_555
H4 C7 1_555 1_555
C8 C5 1_555 1_555
O3 C8 1_555 1_555
O4 C8 1_555 1_555
O5 Gd1 1_555 1_555
O6 Co1 1_555 1_555
C9 O5 1_555 1_555
C10 C9 1_555 1_555
C11 C10 1_555 1_555
H5 C11 1_555 1_555
C12 C10 1_555 1_555
H6 C12 1_555 1_555
O7 Gd1 1_555 1_555
O8 Co1 1_555 1_555
C13 O7 1_555 1_555
C14 C13 1_555 1_555
C15 C14 1_555 1_555
H7 C15 1_555 1_555
C16 C14 1_555 1_555
H8 C16 1_555 1_555
O9 Gd1 1_555 1_555
O10 Gd1 1_555 1_555
C17 O9 1_555 1_555
C18 C17 1_555 1_555
C19 C18 1_555 1_555
H9 C19 1_555 1_555
C20 C18 1_555 1_555
H10 C20 1_555 1_555
O11 Co1 1_555 1_555
N1 C22 1_555 1_555
C21 H11 1_555 1_555
H12 C21 1_555 1_555
H13 C21 1_555 1_555
C22 O11 1_555 1_555
C23 N1 1_555 1_555
H14 C23 1_555 1_555
H15 C23 1_555 1_555
H16 C23 1_555 1_555
C24 N1 1_555 1_555
H17 C24 1_555 1_555
H19 C24 1_555 1_555
O12 Gd1 1_555 1_555
C25 H20 1_555 1_555
H21 C25 1_555 1_555
H22 C25 1_555 1_555
C26 O12 1_555 1_555
N2 C26 1_555 1_555
C27 N2 1_555 1_555
H24 C27 1_555 1_555
C28 N2 1_555 1_555
H26 C28 1_555 1_555
H27 C28 1_555 1_555
H28 C28 1_555 1_555
O13 Co1 1_555 1_555
N3 C30 1_555 1_555
C29 H29 1_555 1_555
H30 C29 1_555 1_555
H31 C29 1_555 1_555
C30 O13 1_555 1_555
C31 N3 1_555 1_555
H32 C31 1_555 1_555
H33 C31 1_555 1_555
H34 C31 1_555 1_555
C32 N3 1_555 1_555
H35 C32 1_555 1_555
H36 C32 1_555 1_555
H37 C32 1_555 1_555
O14 C33 1_555 1_555
C33 C34 1_555 1_555
C34 C35 1_555 1_555
C35 C12 1_555 1_555
H38 C35 1_555 1_555
C36 C11 1_555 1_555
H39 C36 1_555 1_555
O16 C37 1_555 1_555
O17 C37 1_555 1_555
C37 C38 1_555 1_555
C38 C39 1_555 1_555
C39 C16 1_555 1_555
H40 C39 1_555 1_555
C40 C15 1_555 1_555
H41 C40 1_555 1_555
O18 C41 1_555 1_555
O19 C41 1_555 1_555
C41 C42 1_555 1_555
C42 C43 1_555 1_555
C43 C19 1_555 1_555
H42 C43 1_555 1_555
C44 C20 1_555 1_555
H43 C44 1_555 1_555
Gd2 O18 1_555 1_555
O20 Gd2 1_555 1_555
O21 C45 1_555 1_555
C45 O20 1_555 1_555
C46 C45 1_555 1_555
C47 C46 1_555 1_555
H44 C47 1_555 1_555
C48 C47 1_555 1_555
H45 C48 1_555 1_555
C49 C48 1_555 1_555
C50 C49 1_555 1_555
H46 C50 1_555 1_555
C51 C46 1_555 1_555
H47 C51 1_555 1_555
C52 C49 1_555 1_555
O22 C52 1_555 1_555
O23 C52 1_555 1_555
O25 Gd2 1_555 1_555
C57 H57 1_555 1_555
H58 C57 1_555 1_555
H59 C57 1_555 1_555
C58 O25 1_555 1_555
N5 C58 1_555 1_555
C59 N5 1_555 1_555
N6 C62 1_555 1_555
C62 O26 1_555 1_555
C63 N6 1_555 1_555
H69 C63 1_555 1_555
H70 C63 1_555 1_555
H71 C63 1_555 1_555
C64 N6 1_555 1_555
H72 C64 1_555 1_555
H73 C64 1_555 1_555
H74 C64 1_555 1_555
Gd3 O22 1_555 1_555
Gd4 O3 1_555 1_555
Gd5 O16 1_555 1_555
Gd6 O14 1_555 1_555
Co3 O17 1_555 1_555
O27 Gd2 1_555 1_555
O28 Gd1 1_555 1_555
O29 Gd2 1_555 1_555
O30 Gd1 1_555 1_555
O31 Gd2 1_555 1_555
O33 Gd2 1_555 1_555
C6 C7 1_555 1_555
O4 Gd4 1_555 1_555
O6 C9 1_555 1_555
O8 C13 1_555 1_555
O10 C17 1_555 1_555
C21 C22 1_555 1_555
C25 C26 1_555 1_555
C29 C30 1_555 1_555
C34 C36 1_555 1_555
C38 C40 1_555 1_555
O19 Gd2 1_555 1_555
C42 C44 1_555 1_555
C50 C51 1_555 1_555
O23 Gd3 1_555 1_555
C57 C58 1_555 1_555
O24 Co2 1_555 1_555
N4 C54 1_555 1_555
C53 H48 1_555 1_555
H49 C53 1_555 1_555
H50 C53 1_555 1_555
C54 O24 1_555 1_555
C55 N4 1_555 1_555
H51 C55 1_555 1_555
H52 C55 1_555 1_555
H53 C55 1_555 1_555
C56 N4 1_555 1_555
H54 C56 1_555 1_555
H56 C56 1_555 1_555
H63 C60 1_555 1_555
H64 C60 1_555 1_555
C61 H66 1_555 1_555
H67 C61 1_555 1_555
H68 C61 1_555 1_555
O32 Co2 1_555 1_555
O34 Co2 1_555 1_555
C53 C54 1_555 1_555
Co4_2 O15_2 1_555 1_555
C9_2 O31 1_555 1_555
C10_2 C9_2 1_555 1_555
C12_2 C10_2 1_555 1_555
H6_2 C12_2 1_555 1_555
C13_2 O33 1_555 1_555
C14_2 C13_2 1_555 1_555
C15_2 C14_2 1_555 1_555
H7_2 C15_2 1_555 1_555
C35_2 C12_2 1_555 1_555
H38_2 C35_2 1_555 1_555
C40_2 C15_2 1_555 1_555
H41_2 C40_2 1_555 1_555
Co3_2 O17_2 1_555 1_555
H5_2 C11_2 1_555 1_555
H8_2 C16_2 1_555 1_555
O14_2 C33_2 1_555 1_555
C33_2 C34_2 1_555 1_555
C36_2 C11_2 1_555 1_555
H39_2 C36_2 1_555 1_555
O16_2 C37_2 1_555 1_555
C37_2 C38_2 1_555 1_555
C38_2 C39_2 1_555 1_555
C39_2 C16_2 1_555 1_555
H40_2 C39_2 1_555 1_555
Gd5_2 O16_2 1_555 1_555
Gd6_2 O14_2 1_555 1_555
C34_2 C36_2 1_555 1_555
O17_3 C37_3 1_555 1_555
C37_3 C38_3 1_555 1_555
H41_3 C40_3 1_555 1_555
O19_2 C41_2 1_555 1_555
C41_2 C42_2 1_555 1_555
H43_2 C44_2 1_555 1_555
O25_2 Gd4 1_555 1_555
C57_2 H57_2 1_555 1_555
H58_2 C57_2 1_555 1_555
H59_2 C57_2 1_555 1_555
C58_2 O25_2 1_555 1_555
N5_2 C58_2 1_555 1_555
C59_2 N5_2 1_555 1_555
H62_2 C59_2 1_555 1_555
Co4 O17_3 1_555 1_555
O31_2 Gd4 1_555 1_555
O33_2 Gd4 1_555 1_555
C38_3 C40_3 1_555 1_555
O19_2 Gd4 1_555 1_555
C42_2 C44_2 1_555 1_555
C57_2 C58_2 1_555 1_555
H63_2 C60_2 1_555 1_555
H64_2 C60_2 1_555 1_555
H40_3 C39_3 1_555 1_555
H42_2 C43_2 1_555 1_555
O21_2 C45_2 1_555 1_555
C45_2 O20_2 1_555 1_555
C46_2 C45_2 1_555 1_555
C47_2 C46_2 1_555 1_555
H44_2 C47_2 1_555 1_555
C48_2 C47_2 1_555 1_555
H45_2 C48_2 1_555 1_555
C49_2 C48_2 1_555 1_555
C50_2 C49_2 1_555 1_555
H46_2 C50_2 1_555 1_555
C51_2 C46_2 1_555 1_555
H47_2 C51_2 1_555 1_555
C52_2 C49_2 1_555 1_555
O28 C52_2 1_555 1_555
O30 C52_2 1_555 1_555
N6_2 C62_2 1_555 1_555
C62_2 O26_2 1_555 1_555
C63_2 N6_2 1_555 1_555
H69_2 C63_2 1_555 1_555
C64_2 N6_2 1_555 1_555
H72_2 C64_2 1_555 1_555
H73_2 C64_2 1_555 1_555
H74_2 C64_2 1_555 1_555
Gd6 O16_3 1_555 1_555
C50_2 C51_2 1_555 1_555
O24_2 Co2_2 1_555 1_555
N4_2 C54_2 1_555 1_555
C53_2 H48_2 1_555 1_555
H49_2 C53_2 1_555 1_555
H50_2 C53_2 1_555 1_555
C54_2 O24_2 1_555 1_555
C55_2 N4_2 1_555 1_555
H51_2 C55_2 1_555 1_555
H52_2 C55_2 1_555 1_555
H53_2 C55_2 1_555 1_555
C56_2 N4_2 1_555 1_555
H54_2 C56_2 1_555 1_555
H55 C56_2 1_555 1_555
H56_2 C56_2 1_555 1_555
C61_2 H66_2 1_555 1_555
H67_2 C61_2 1_555 1_555
H68_2 C61_2 1_555 1_555
O32_2 Co2_2 1_555 1_555
O34_2 Co2_2 1_555 1_555
C53_2 C54_2 1_555 1_555
O5_2 Gd3 1_555 1_555
C9_3 O5_2 1_555 1_555
C10_3 C9_3 1_555 1_555
C11_3 C10_3 1_555 1_555
H5_3 C11_3 1_555 1_555
C12_3 C10_3 1_555 1_555
H6_3 C12_3 1_555 1_555
O7_2 Gd3 1_555 1_555
H7_3 C15_3 1_555 1_555
O10_2 Gd3 1_555 1_555
C18_2 C17_2 1_555 1_555
C20_2 C18_2 1_555 1_555
H10_2 C20_2 1_555 1_555
O12_2 Gd3 1_555 1_555
C25_2 H20_2 1_555 1_555
H21_2 C25_2 1_555 1_555
H22_2 C25_2 1_555 1_555
C26_2 O12_2 1_555 1_555
N2_2 C26_2 1_555 1_555
C27_2 N2_2 1_555 1_555
H23_2 C27_2 1_555 1_555
H24_2 C27_2 1_555 1_555
H25_2 C27_2 1_555 1_555
C28_2 N2_2 1_555 1_555
H26_2 C28_2 1_555 1_555
H27_2 C28_2 1_555 1_555
H28_2 C28_2 1_555 1_555
O14_3 C33_3 1_555 1_555
O15_3 C33_3 1_555 1_555
C33_3 C34_3 1_555 1_555
C34_3 C35_3 1_555 1_555
C35_3 C12_3 1_555 1_555
H38_3 C35_3 1_555 1_555
C36_3 C11_3 1_555 1_555
H39_3 C36_3 1_555 1_555
Gd5 O14_3 1_555 1_555
Co3 O15_3 1_555 1_555
O10_2 C17_2 1_555 1_555
C25_2 C26_2 1_555 1_555
C34_3 C36_3 1_555 1_555
Co1_2 O2_2 1_555 1_555
O1_2 C1_2 1_555 1_555
O2_2 C1_2 1_555 1_555
C1_2 C2_2 1_555 1_555
C2_2 C3_2 1_555 1_555
C3_2 H1_2 1_555 1_555
C4_2 C3_2 1_555 1_555
H2_2 C4_2 1_555 1_555
C5_2 C4_2 1_555 1_555
C6_2 C5_2 1_555 1_555
H3_2 C6_2 1_555 1_555
C7_2 C2_2 1_555 1_555
H4_2 C7_2 1_555 1_555
C8_2 C5_2 1_555 1_555
O27 C8_2 1_555 1_555
O29 C8_2 1_555 1_555
O6_2 Co1_2 1_555 1_555
O8_2 Co1_2 1_555 1_555
C14_3 C13_3 1_555 1_555
C16_3 C14_3 1_555 1_555
H8_3 C16_3 1_555 1_555
H9_2 C19_2 1_555 1_555
O11_2 Co1_2 1_555 1_555
N1_2 C22_2 1_555 1_555
C21_2 H11_2 1_555 1_555
H12_2 C21_2 1_555 1_555
H13_2 C21_2 1_555 1_555
C22_2 O11_2 1_555 1_555
C23_2 N1_2 1_555 1_555
H14_2 C23_2 1_555 1_555
H15_2 C23_2 1_555 1_555
H16_2 C23_2 1_555 1_555
C24_2 N1_2 1_555 1_555
H17_2 C24_2 1_555 1_555
H18 C24_2 1_555 1_555
H19_2 C24_2 1_555 1_555
O13_2 Co1_2 1_555 1_555
N3_2 C30_2 1_555 1_555
C29_2 H29_2 1_555 1_555
H30_2 C29_2 1_555 1_555
H31_2 C29_2 1_555 1_555
C30_2 O13_2 1_555 1_555
C31_2 N3_2 1_555 1_555
H32_2 C31_2 1_555 1_555
C32_2 N3_2 1_555 1_555
H35_2 C32_2 1_555 1_555
H36_2 C32_2 1_555 1_555
H37_2 C32_2 1_555 1_555
C6_2 C7_2 1_555 1_555
O8_2 C13_3 1_555 1_555
C21_2 C22_2 1_555 1_555
C29_2 C30_2 1_555 1_555
C9_4 O31_2 1_555 1_555
C10_4 C9_4 1_555 1_555
C12_4 C10_4 1_555 1_555
H6_4 C12_4 1_555 1_555
H7_4 C15_4 1_555 1_555
C35_4 C12_4 1_555 1_555
H38_4 C35_4 1_555 1_555
Co3_2 O15_4 1_555 1_555
H5_4 C11_4 1_555 1_555
O14_4 C33_4 1_555 1_555
C33_4 C34_4 1_555 1_555
C36_4 C11_4 1_555 1_555
H39_4 C36_4 1_555 1_555
Gd5_2 O14_4 1_555 1_555
C34_4 C36_4 1_555 1_555
C14_4 C13_4 1_555 1_555
H8_4 C16_4 1_555 1_555
H41_4 C40_4 1_555 1_555
Co4_2 O17_4 1_555 1_555
C37_4 C38_4 1_555 1_555
H40_4 C39_4 1_555 1_555
Gd6_2 O16_4 1_555 1_555
O24_3 Co3_2 1_555 1_555
N4_3 C54_3 1_555 1_555
C53_3 H48_3 1_555 1_555
H49_3 C53_3 1_555 1_555
H50_3 C53_3 1_555 1_555
C54_3 O24_3 1_555 1_555
C55_3 N4_3 1_555 1_555
H51_3 C55_3 1_555 1_555
H52_3 C55_3 1_555 1_555
H53_3 C55_3 1_555 1_555
C56_3 N4_3 1_555 1_555
H54_3 C56_3 1_555 1_555
H56_3 C56_3 1_555 1_555
H63_3 C60_3 1_555 1_555
H64_3 C60_3 1_555 1_555
C61_3 H66_3 1_555 1_555
H67_3 C61_3 1_555 1_555
H68_3 C61_3 1_555 1_555
C53_3 C54_3 1_555 1_555
Gd5 O1_3 1_555 1_555
Co3 O2_3 1_555 1_555
O1_3 C1_3 1_555 1_555
O2_3 C1_3 1_555 1_555
C1_3 C2_3 1_555 1_555
C2_3 C3_3 1_555 1_555
C3_3 H1_3 1_555 1_555
C4_3 C3_3 1_555 1_555
H2_3 C4_3 1_555 1_555
C5_3 C4_3 1_555 1_555
C6_3 C5_3 1_555 1_555
H3_3 C6_3 1_555 1_555
C7_3 C2_3 1_555 1_555
H4_3 C7_3 1_555 1_555
C8_3 C5_3 1_555 1_555
O3_2 C8_3 1_555 1_555
O4_2 C8_3 1_555 1_555
O9_3 Gd5 1_555 1_555
O10_3 Gd5 1_555 1_555
C17_3 O9_3 1_555 1_555
C18_3 C17_3 1_555 1_555
C19_3 C18_3 1_555 1_555
H9_3 C19_3 1_555 1_555
C20_3 C18_3 1_555 1_555
H10_3 C20_3 1_555 1_555
O11_3 Co3 1_555 1_555
N1_3 C22_3 1_555 1_555
C21_3 H11_3 1_555 1_555
H12_3 C21_3 1_555 1_555
H13_3 C21_3 1_555 1_555
C22_3 O11_3 1_555 1_555
C23_3 N1_3 1_555 1_555
H14_3 C23_3 1_555 1_555
H15_3 C23_3 1_555 1_555
H16_3 C23_3 1_555 1_555
C24_3 N1_3 1_555 1_555
H17_3 C24_3 1_555 1_555
H19_3 C24_3 1_555 1_555
O12_3 Gd5 1_555 1_555
C25_3 H20_3 1_555 1_555
H21_3 C25_3 1_555 1_555
H22_3 C25_3 1_555 1_555
C26_3 O12_3 1_555 1_555
N2_3 C26_3 1_555 1_555
C27_3 N2_3 1_555 1_555
H24_3 C27_3 1_555 1_555
C28_3 N2_3 1_555 1_555
H26_3 C28_3 1_555 1_555
H27_3 C28_3 1_555 1_555
H28_3 C28_3 1_555 1_555
O13_3 Co3 1_555 1_555
N3_3 C30_3 1_555 1_555
C29_3 H29_3 1_555 1_555
H30_3 C29_3 1_555 1_555
H31_3 C29_3 1_555 1_555
C30_3 O13_3 1_555 1_555
C31_3 N3_3 1_555 1_555
H32_3 C31_3 1_555 1_555
H33_3 C31_3 1_555 1_555
H34_3 C31_3 1_555 1_555
C32_3 N3_3 1_555 1_555
H35_3 C32_3 1_555 1_555
H36_3 C32_3 1_555 1_555
H37_3 C32_3 1_555 1_555
O18_3 C41_3 1_555 1_555
O19_3 C41_3 1_555 1_555
C41_3 C42_3 1_555 1_555
C42_3 C43_3 1_555 1_555
C43_3 C19_3 1_555 1_555
H42_3 C43_3 1_555 1_555
C44_3 C20_3 1_555 1_555
H43_3 C44_3 1_555 1_555
Gd5_2 O18_3 1_555 1_555
O20_3 Gd5_2 1_555 1_555
O21_3 C45_3 1_555 1_555
C45_3 O20_3 1_555 1_555
C46_3 C45_3 1_555 1_555
C47_3 C46_3 1_555 1_555
H44_3 C47_3 1_555 1_555
C48_3 C47_3 1_555 1_555
H45_3 C48_3 1_555 1_555
C49_3 C48_3 1_555 1_555
C50_3 C49_3 1_555 1_555
H46_3 C50_3 1_555 1_555
C51_3 C46_3 1_555 1_555
H47_3 C51_3 1_555 1_555
C52_3 C49_3 1_555 1_555
O22_2 C52_3 1_555 1_555
O23_2 C52_3 1_555 1_555
O25_3 Gd5_2 1_555 1_555
C57_3 H57_3 1_555 1_555
H58_3 C57_3 1_555 1_555
H59_3 C57_3 1_555 1_555
C58_3 O25_3 1_555 1_555
N5_3 C58_3 1_555 1_555
C59_3 N5_3 1_555 1_555
N6_3 C62_3 1_555 1_555
C62_3 O26_3 1_555 1_555
C63_3 N6_3 1_555 1_555
H69_3 C63_3 1_555 1_555
H70_3 C63_3 1_555 1_555
H71_3 C63_3 1_555 1_555
C64_3 N6_3 1_555 1_555
H72_3 C64_3 1_555 1_555
H73_3 C64_3 1_555 1_555
H74_3 C64_3 1_555 1_555
Gd6 O22_2 1_555 1_555
Gd6_2 O3_2 1_555 1_555
O27_2 Gd5_2 1_555 1_555
O28_2 Gd5 1_555 1_555
O29_2 Gd5_2 1_555 1_555
O30_2 Gd5 1_555 1_555
C6_3 C7_3 1_555 1_555
O4_2 Gd6_2 1_555 1_555
O10_3 C17_3 1_555 1_555
C21_3 C22_3 1_555 1_555
C25_3 C26_3 1_555 1_555
C29_3 C30_3 1_555 1_555
O19_3 Gd5_2 1_555 1_555
C42_3 C44_3 1_555 1_555
C50_3 C51_3 1_555 1_555
O23_2 Gd6 1_555 1_555
C57_3 C58_3 1_555 1_555
Co4 O2_4 1_555 1_555
O1_4 C1_4 1_555 1_555
O2_4 C1_4 1_555 1_555
C1_4 C2_4 1_555 1_555
C2_4 C3_4 1_555 1_555
C3_4 H1_4 1_555 1_555
C4_4 C3_4 1_555 1_555
H2_4 C4_4 1_555 1_555
C5_4 C4_4 1_555 1_555
C6_4 C5_4 1_555 1_555
H3_4 C6_4 1_555 1_555
C7_4 C2_4 1_555 1_555
H4_4 C7_4 1_555 1_555
C8_4 C5_4 1_555 1_555
O27_2 C8_4 1_555 1_555
O29_2 C8_4 1_555 1_555
H9_4 C19_4 1_555 1_555
O11_4 Co4 1_555 1_555
N1_4 C22_4 1_555 1_555
C21_4 H11_4 1_555 1_555
H12_4 C21_4 1_555 1_555
H13_4 C21_4 1_555 1_555
C22_4 O11_4 1_555 1_555
C23_4 N1_4 1_555 1_555
H14_4 C23_4 1_555 1_555
H15_4 C23_4 1_555 1_555
H16_4 C23_4 1_555 1_555
C24_4 N1_4 1_555 1_555
H17_4 C24_4 1_555 1_555
H18_2 C24_4 1_555 1_555
H19_4 C24_4 1_555 1_555
O13_4 Co4 1_555 1_555
N3_4 C30_4 1_555 1_555
C29_4 H29_4 1_555 1_555
H30_4 C29_4 1_555 1_555
H31_4 C29_4 1_555 1_555
C30_4 O13_4 1_555 1_555
C31_4 N3_4 1_555 1_555
H32_4 C31_4 1_555 1_555
C32_4 N3_4 1_555 1_555
H35_4 C32_4 1_555 1_555
H36_4 C32_4 1_555 1_555
H37_4 C32_4 1_555 1_555
C6_4 C7_4 1_555 1_555
C21_4 C22_4 1_555 1_555
C29_4 C30_4 1_555 1_555
O10_4 Gd6 1_555 1_555
C18_4 C17_4 1_555 1_555
C20_4 C18_4 1_555 1_555
H10_4 C20_4 1_555 1_555
O12_4 Gd6 1_555 1_555
C25_4 H20_4 1_555 1_555
H21_4 C25_4 1_555 1_555
H22_4 C25_4 1_555 1_555
C26_4 O12_4 1_555 1_555
N2_4 C26_4 1_555 1_555
C27_4 N2_4 1_555 1_555
H23_4 C27_4 1_555 1_555
H24_4 C27_4 1_555 1_555
H25_4 C27_4 1_555 1_555
C28_4 N2_4 1_555 1_555
H26_4 C28_4 1_555 1_555
H27_4 C28_4 1_555 1_555
H28_4 C28_4 1_555 1_555
O10_4 C17_4 1_555 1_555
C25_4 C26_4 1_555 1_555
O24_4 Co4_2 1_555 1_555
N4_4 C54_4 1_555 1_555
C53_4 H48_4 1_555 1_555
H49_4 C53_4 1_555 1_555
H50_4 C53_4 1_555 1_555
C54_4 O24_4 1_555 1_555
C55_4 N4_4 1_555 1_555
H51_4 C55_4 1_555 1_555
H52_4 C55_4 1_555 1_555
H53_4 C55_4 1_555 1_555
C56_4 N4_4 1_555 1_555
H54_4 C56_4 1_555 1_555
H55_2 C56_4 1_555 1_555
H56_4 C56_4 1_555 1_555
C61_4 H66_4 1_555 1_555
H67_4 C61_4 1_555 1_555
H68_4 C61_4 1_555 1_555
C53_4 C54_4 1_555 1_555
H42_4 C43_4 1_555 1_555
O21_4 C45_4 1_555 1_555
C45_4 O20_4 1_555 1_555
C46_4 C45_4 1_555 1_555
C47_4 C46_4 1_555 1_555
H44_4 C47_4 1_555 1_555
C48_4 C47_4 1_555 1_555
H45_4 C48_4 1_555 1_555
C49_4 C48_4 1_555 1_555
C50_4 C49_4 1_555 1_555
H46_4 C50_4 1_555 1_555
C51_4 C46_4 1_555 1_555
H47_4 C51_4 1_555 1_555
C52_4 C49_4 1_555 1_555
O28_2 C52_4 1_555 1_555
O30_2 C52_4 1_555 1_555
N6_4 C62_4 1_555 1_555
C62_4 O26_4 1_555 1_555
C63_4 N6_4 1_555 1_555
H69_4 C63_4 1_555 1_555
C64_4 N6_4 1_555 1_555
H72_4 C64_4 1_555 1_555
H73_4 C64_4 1_555 1_555
H74_4 C64_4 1_555 1_555
C50_4 C51_4 1_555 1_555
H63_4 C60_4 1_555 1_555
H64_4 C60_4 1_555 1_555
O19_4 C41_4 1_555 1_555
C41_4 C42_4 1_555 1_555
H43_4 C44_4 1_555 1_555
O25_4 Gd6_2 1_555 1_555
C57_4 H57_4 1_555 1_555
H58_4 C57_4 1_555 1_555
H59_4 C57_4 1_555 1_555
C58_4 O25_4 1_555 1_555
N5_4 C58_4 1_555 1_555
C59_4 N5_4 1_555 1_555
H62_4 C59_4 1_555 1_555
O19_4 Gd6_2 1_555 1_555
C42_4 C44_4 1_555 1_555
C57_4 C58_4 1_555 1_555

#END
