
###############################################################################
#
# This file contains modified crystal structure data generated from the
# MOF subset of the Cambridge Structural Database (CSD) v543 
# hosted by the Cambridge Crystallographic Data Centre (CCDC).
#
# This work is licensed under the Creative Commons
# Attribution-NonCommercial-ShareAlike 4.0 International License.
# To view a copy of this license, visit
# http://creativecommons.org/licenses/by-nc-sa/4.0/
# or send a letter to
# Creative Commons, PO Box 1866, Mountain View, CA 94042, USA.
#
# CIF created using the CSD Python API on 29 September 2022
# The structure has been converted into the P1 space group
# The structure has a 3D framework
# The original CSD entry GAMFAE is in the tetragonal crystal system
# The framework has been calculated to contain at least 10.0% void space
# The void calculation uses a probe of radius 1.32A, grid spacing 0.4
#
###############################################################################

data_GAMFAE
_chemical_formula_moiety         '(C288 H192 Cu16 N72 O48)n'
_symmetry_cell_setting           triclinic
_symmetry_space_group_name_H-M   'P 1'
_symmetry_Int_Tables_number      1
_space_group_name_Hall           'P 1'
loop_
_symmetry_equiv_pos_site_id
_symmetry_equiv_pos_as_xyz
1 x,y,z
_cell_length_a                   17.2079(3)
_cell_length_b                   17.2079(3)
_cell_length_c                   34.0361(10)
_cell_angle_alpha                90
_cell_angle_beta                 90
_cell_angle_gamma                90
_cell_volume                     10078.5
loop_
_atom_site_label
_atom_site_type_symbol
_atom_site_fract_x
_atom_site_fract_y
_atom_site_fract_z
C18 C 0.3575(7) 0.0274(5) 0.6813(6)
H7 H 0.3086 0.0496 0.6845
N10 N 0.4490(6) 0.4047(4) 0.7000(2)
C37 C 0.4666(7) 0.3319(6) 0.7120(3)
O7 O 0.6107(5) 0.2161(4) 0.6862(4)
N11 N 0.4784(5) 0.2019(4) 0.6787(3)
N12 N 0.4434(6) 0.4059(5) 0.6589(3)
O8 O 0.3499(4) 0.1894(3) 0.6693(3)
C38 C 0.4952(7) 0.0410(4) 0.6807(4)
C39 C 0.4123(7) 0.1582(5) 0.6776(5)
C40 C 0.4711(8) 0.3100(6) 0.7526(3)
H25 H 0.4799 0.3554 0.7684
H26 H 0.5132 0.2741 0.7562
H27 H 0.4232 0.2859 0.7604
C41 C 0.5618(7) 0.0864(5) 0.6814(5)
C42 C 0.5561(7) 0.1744(5) 0.6816(5)
C43 C 0.4180(7) 0.0725(5) 0.6781(5)
C44 C 0.4694(6) 0.2856(4) 0.6785(4)
C45 C 0.4561(7) 0.3322(6) 0.6465(3)
C47 C 0.4579(8) 0.3134(6) 0.6026(3)
H29 H 0.4181 0.3425 0.5894
H30 H 0.4489 0.2588 0.5989
H31 H 0.5078 0.3270 0.5921
C48 C 0.6358(7) 0.0548(5) 0.6801(6)
H32 H 0.6795 0.0864 0.6785
H42 H 0.1057 0.0337 0.3081
Cu7 Cu 0.41196(10) 0.49354(8) 0.63375(4)
Cu8 Cu 0.41153(12) 0.49001(8) 0.72615(4)
Cu9 Cu 0.08847(12) 0.00999(8) 0.22615(4)
Cu10 Cu 0.66598(11) 0.36259(7) 0.68144(5)
Cu1 Cu 0.58804(10) 0.50646(8) 0.63375(4)
Cu2 Cu 0.58847(12) 0.50999(8) 0.72615(4)
N1 N 0.5510(6) 0.5953(4) 0.7000(2)
N2 N 0.6664(7) 0.3622(5) 0.6267(3)
N3 N 0.6302(5) 0.4235(5) 0.6066(2)
C1 C 0.5334(7) 0.6681(6) 0.7120(3)
O1 O 0.3893(5) 0.7839(4) 0.6862(4)
N4 N 0.5216(5) 0.7981(4) 0.6787(3)
N5 N 0.5566(6) 0.5941(5) 0.6589(3)
O2 O 0.6501(4) 0.8106(3) 0.6693(3)
C2 C 0.5048(7) 0.9590(4) 0.6807(4)
O3 O 0.6546(5) 0.1534(6) 0.3241(3)
N6 N 0.8259(5) 0.1261(5) 0.2358(2)
C3 C 0.6363(7) 0.4071(7) 0.5687(3)
C4 C 0.5877(7) 0.8418(5) 0.6776(5)
N7 N 0.7837(7) 0.1684(6) 0.3367(3)
O4 O 0.5692(6) 0.2726(5) 0.5182(2)
N8 N 0.6902(7) 0.3050(7) 0.5261(3)
C5 C 0.7487(7) 0.2461(6) 0.2524(4)
H1 H 0.7614 0.2613 0.2260
H2 H 0.7636 0.2866 0.2702
H3 H 0.6937 0.2374 0.2543
N9 N 0.8601(6) 0.0643(5) 0.2540(3)
C6 C 0.7918(8) 0.1720(7) 0.2627(3)
C7 C 0.5289(8) 0.6900(6) 0.7526(3)
H4 H 0.5201 0.6446 0.7684
H5 H 0.4868 0.7259 0.7562
H6 H 0.5768 0.7141 0.7604
C8 C 0.6737(8) 0.3398(8) 0.5635(4)
C9 C 0.4382(7) 0.9136(5) 0.6814(5)
C10 C 0.7043(8) 0.1728(8) 0.3471(4)
C11 C 0.4439(7) 0.8256(5) 0.6816(5)
C12 C 0.5820(7) 0.9275(5) 0.6781(5)
C13 C 0.6899(10) 0.3118(8) 0.5983(4)
C14 C 0.7287(8) 0.2494(8) 0.4508(4)
C15 C 0.5306(6) 0.7144(4) 0.6785(4)
C16 C 0.7489(8) 0.2243(8) 0.4122(4)
C17 C 0.5439(7) 0.6678(6) 0.6465(3)
C19 C 0.7642(11) 0.3105(13) 0.5152(5)
C20 C 0.6095(7) 0.4636(6) 0.5392(3)
H8 H 0.5607 0.4467 0.5284
H9 H 0.6472 0.4674 0.5185
H10 H 0.6030 0.5136 0.5513
C21 C 0.5421(8) 0.6866(6) 0.6026(3)
H11 H 0.5819 0.6575 0.5894
H12 H 0.5511 0.7412 0.5989
H13 H 0.4922 0.6730 0.5921
C22 C 0.7878(8) 0.2753(11) 0.4756(4)
C23 C 0.6112(8) 0.2035(9) 0.3998(4)
H14 H 0.5720 0.1879 0.3827
C24 C 0.8512(9) 0.0728(6) 0.2928(3)
C25 C 0.6886(8) 0.2006(8) 0.3880(4)
O5 O 0.9131(6) 0.1857(7) 0.3509(3)
O6 O 0.8183(7) 0.3387(12) 0.5347(4)
C26 C 0.3642(7) 0.9452(5) 0.6801(6)
H15 H 0.3205 0.9136 0.6785
C27 C 0.6519(8) 0.2492(8) 0.4640(4)
C28 C 0.8058(8) 0.1413(7) 0.2983(3)
C29 C 0.5922(8) 0.2307(8) 0.4387(4)
H16 H 0.5407 0.2357 0.4466
C30 C 0.8835(9) 0.0141(8) 0.3216(4)
H17 H 0.9305 0.0340 0.3330
H19 H 0.8460 0.0048 0.3420
C31 C 0.8261(9) 0.2226(11) 0.4010(4)
C32 C 0.8453(9) 0.1892(9) 0.3611(4)
C33 C 0.6350(9) 0.2755(8) 0.5045(4)
C34 C 0.7338(11) 0.2384(9) 0.6113(4)
H20 H 0.7685 0.2512 0.6324
H21 H 0.7630 0.2183 0.5895
H22 H 0.6972 0.2000 0.6200
C35 C 0.8836(10) 0.2542(14) 0.4227(5)
H23 H 0.9329 0.2599 0.4119
C36 C 0.8688(9) 0.2794(14) 0.4628(6)
H24 H 0.9083 0.2969 0.4793
C46 C 0.6425(7) 0.9726(5) 0.6813(6)
H28 H 0.6914 0.9504 0.6845
Cu5 Cu 0.33402(11) 0.63741(7) 0.68144(5)
N13 N 0.3336(7) 0.6378(5) 0.6267(3)
N14 N 0.3698(5) 0.5765(5) 0.6066(2)
O9 O 0.3454(5) 0.8466(6) 0.3241(3)
N15 N 0.1741(5) 0.8739(5) 0.2358(2)
C49 C 0.3637(7) 0.5929(7) 0.5687(3)
N16 N 0.2163(7) 0.8316(6) 0.3367(3)
O10 O 0.4308(6) 0.7274(5) 0.5182(2)
N17 N 0.3098(7) 0.6950(7) 0.5261(3)
C50 C 0.2513(7) 0.7539(6) 0.2524(4)
H33 H 0.2386 0.7387 0.2260
H34 H 0.2364 0.7134 0.2702
H35 H 0.3063 0.7626 0.2543
N18 N 0.1399(6) 0.9357(5) 0.2540(3)
C51 C 0.2082(8) 0.8280(7) 0.2627(3)
C52 C 0.3263(8) 0.6602(8) 0.5635(4)
C53 C 0.2957(8) 0.8272(8) 0.3471(4)
C54 C 0.3101(10) 0.6882(8) 0.5983(4)
C55 C 0.2713(8) 0.7506(8) 0.4508(4)
C56 C 0.2511(8) 0.7757(8) 0.4122(4)
C57 C 0.2358(11) 0.6895(13) 0.5152(5)
C58 C 0.3905(7) 0.5364(6) 0.5392(3)
H36 H 0.4393 0.5533 0.5284
H37 H 0.3528 0.5326 0.5185
H38 H 0.3970 0.4864 0.5513
C59 C 0.2122(8) 0.7247(11) 0.4756(4)
C60 C 0.3888(8) 0.7965(9) 0.3998(4)
H39 H 0.4280 0.8121 0.3827
C61 C 0.1488(9) 0.9272(6) 0.2928(3)
C62 C 0.3114(8) 0.7994(8) 0.3880(4)
O11 O 0.0869(6) 0.8143(7) 0.3509(3)
O12 O 0.1817(7) 0.6613(12) 0.5347(4)
C63 C 0.3481(8) 0.7508(8) 0.4640(4)
C64 C 0.1942(8) 0.8587(7) 0.2983(3)
C65 C 0.4078(8) 0.7693(8) 0.4387(4)
H40 H 0.4593 0.7643 0.4466
C66 C 0.1165(9) 0.9859(8) 0.3216(4)
H41 H 0.0695 0.9660 0.3330
H43 H 0.1540 0.9952 0.3420
C67 C 0.1739(9) 0.7774(11) 0.4010(4)
C68 C 0.1547(9) 0.8108(9) 0.3611(4)
C69 C 0.3650(9) 0.7245(8) 0.5045(4)
C70 C 0.2662(11) 0.7616(9) 0.6113(4)
H44 H 0.2315 0.7488 0.6324
H45 H 0.2370 0.7817 0.5895
H46 H 0.3028 0.8000 0.6200
C71 C 0.1164(10) 0.7458(14) 0.4227(5)
H47 H 0.0671 0.7401 0.4119
C72 C 0.1312(9) 0.7206(14) 0.4628(6)
H48 H 0.0917 0.7031 0.4793
Cu11 Cu 0.16598(11) 0.86259(7) 0.18144(5)
Cu12 Cu 0.83402(11) 0.13741(7) 0.18144(5)
N21 N 0.3259(5) 0.6261(5) 0.7358(2)
N22 N 0.6741(5) 0.3739(5) 0.7358(2)
N23 N 0.6399(6) 0.4357(5) 0.7540(3)
H18 H 0.8943 0.9663 0.3081
Cu6 Cu 0.91153(12) 0.99001(8) 0.22615(4)
N19 N 0.9490(6) 0.9047(4) 0.2000(2)
N19_2 N 0.0510(6) 0.0953(4) 0.2000(2)
N23_2 N 0.3601(6) 0.5643(5) 0.7540(3)
Cu1_2 Cu 0.08804(10) 0.00646(8) 0.13375(4)
C1_2 C 0.0334(7) 0.1681(6) 0.2120(3)
N4_2 N 0.0216(5) 0.2981(4) 0.1787(3)
N5_2 N 0.0566(6) 0.0941(5) 0.1589(3)
O2_2 O 0.1501(4) 0.3106(3) 0.1693(3)
C2_2 C 0.0048(7) 0.4590(4) 0.1807(4)
C4_2 C 0.0877(7) 0.3418(5) 0.1776(5)
C7_2 C 0.0289(8) 0.1900(6) 0.2526(3)
H4_2 H 0.0201 0.1446 0.2684
H6_2 H 0.0768 0.2141 0.2604
C12_2 C 0.0820(7) 0.4275(5) 0.1781(5)
C15_2 C 0.0306(6) 0.2144(4) 0.1785(4)
C17_2 C 0.0439(7) 0.1678(6) 0.1465(3)
H10_2 H 0.1030 0.0136 0.0513
C21_2 C 0.0421(8) 0.1866(6) 0.1026(3)
H11_2 H 0.0819 0.1575 0.0894
H12_2 H 0.0511 0.2412 0.0989
O7_2 O 0.1107(5) 0.7161(4) 0.1862(4)
H26_2 H 0.0132 0.7741 0.2562
C41_2 C 0.0618(7) 0.5864(5) 0.1814(5)
C42_2 C 0.0561(7) 0.6744(5) 0.1816(5)
C46_2 C 0.1425(7) 0.4726(5) 0.1813(6)
H28_2 H 0.1914 0.4504 0.1845
H31_2 H 0.0078 0.8270 0.0921
C48_2 C 0.1358(7) 0.5548(5) 0.1801(6)
H32_2 H 0.1795 0.5864 0.1785
N2_2 N 0.1664(7) 0.8622(5) 0.1267(3)
N3_2 N 0.1302(5) 0.9235(5) 0.1066(2)
C3_2 C 0.1363(7) 0.9071(7) 0.0687(3)
O4_2 O 0.0692(6) 0.7726(5) 0.0182(2)
N8_2 N 0.1902(7) 0.8050(7) 0.0261(3)
C8_2 C 0.1737(8) 0.8398(8) 0.0635(4)
C13_2 C 0.1899(10) 0.8118(8) 0.0983(4)
C19_2 C 0.2642(11) 0.8105(13) 0.0152(5)
C20_2 C 0.1095(7) 0.9636(6) 0.0392(3)
H8_2 H 0.0607 0.9467 0.0284
H9_2 H 0.1472 0.9674 0.0185
O6_2 O 0.3183(7) 0.8387(12) 0.0347(4)
C33_2 C 0.1350(9) 0.7755(8) 0.0045(4)
C34_2 C 0.2338(11) 0.7384(9) 0.1113(4)
H20_2 H 0.2685 0.7512 0.1324
H21_2 H 0.2630 0.7183 0.0895
H22_2 H 0.1972 0.7000 0.1200
O3_2 O 0.1546(5) 0.6534(6) 0.8241(3)
N7_2 N 0.2837(7) 0.6684(6) 0.8367(3)
C5_2 C 0.2487(7) 0.7461(6) 0.7524(4)
H1_2 H 0.2614 0.7613 0.7260
H2_2 H 0.2636 0.7866 0.7702
H3_2 H 0.1937 0.7374 0.7543
C6_2 C 0.2918(8) 0.6720(7) 0.7627(3)
C10_2 C 0.2043(8) 0.6728(8) 0.8471(4)
C14_2 C 0.2287(8) 0.7494(8) 0.9508(4)
C16_2 C 0.2489(8) 0.7243(8) 0.9122(4)
C22_2 C 0.2878(8) 0.7753(11) 0.9756(4)
C23_2 C 0.1112(8) 0.7035(9) 0.8998(4)
H14_2 H 0.0720 0.6879 0.8827
C24_2 C 0.3512(9) 0.5728(6) 0.7928(3)
C25_2 C 0.1886(8) 0.7006(8) 0.8880(4)
O5_2 O 0.4131(6) 0.6857(7) 0.8509(3)
C27_2 C 0.1519(8) 0.7492(8) 0.9640(4)
C28_2 C 0.3058(8) 0.6413(7) 0.7983(3)
C29_2 C 0.0922(8) 0.7307(8) 0.9387(4)
H16_2 H 0.0407 0.7357 0.9466
C30_2 C 0.3835(9) 0.5141(8) 0.8216(4)
H17_2 H 0.4305 0.5340 0.8330
H18_2 H 0.3943 0.4663 0.8081
H19_2 H 0.3460 0.5048 0.8420
C31_2 C 0.3261(9) 0.7226(11) 0.9010(4)
C32_2 C 0.3453(9) 0.6892(9) 0.8611(4)
C35_2 C 0.3836(10) 0.7542(14) 0.9227(5)
H23_2 H 0.4329 0.7599 0.9119
C36_2 C 0.3688(9) 0.7794(14) 0.9628(6)
H24_2 H 0.4083 0.7969 0.9793
O1_2 O 0.8893(5) 0.2839(4) 0.1862(4)
H5_2 H 0.9868 0.2259 0.2562
C9_2 C 0.9382(7) 0.4136(5) 0.1814(5)
C11_2 C 0.9439(7) 0.3256(5) 0.1816(5)
C18_2 C 0.8575(7) 0.5274(5) 0.1813(6)
H7_2 H 0.8086 0.5496 0.1845
H13_2 H 0.9922 0.1730 0.0921
C26_2 C 0.8642(7) 0.4452(5) 0.1801(6)
H15_2 H 0.8205 0.4136 0.1785
C37_2 C 0.9666(7) 0.8319(6) 0.2120(3)
N11_2 N 0.9784(5) 0.7019(4) 0.1787(3)
N12_2 N 0.9434(6) 0.9059(5) 0.1589(3)
O8_2 O 0.8499(4) 0.6894(3) 0.1693(3)
C38_2 C 0.9952(7) 0.5410(4) 0.1807(4)
C39_2 C 0.9123(7) 0.6582(5) 0.1776(5)
C40_2 C 0.9711(8) 0.8100(6) 0.2526(3)
H25_2 H 0.9799 0.8554 0.2684
H27_2 H 0.9232 0.7859 0.2604
C43_2 C 0.9180(7) 0.5725(5) 0.1781(5)
C44_2 C 0.9694(6) 0.7856(4) 0.1785(4)
C45_2 C 0.9561(7) 0.8322(6) 0.1465(3)
C47_2 C 0.9579(8) 0.8134(6) 0.1026(3)
H29_2 H 0.9181 0.8425 0.0894
H30_2 H 0.9489 0.7588 0.0989
N13_2 N 0.8336(7) 0.1378(5) 0.1267(3)
N14_2 N 0.8698(5) 0.0765(5) 0.1066(2)
C49_2 C 0.8637(7) 0.0929(7) 0.0687(3)
O10_2 O 0.9308(6) 0.2274(5) 0.0182(2)
N17_2 N 0.8098(7) 0.1950(7) 0.0261(3)
C52_2 C 0.8263(8) 0.1602(8) 0.0635(4)
C54_2 C 0.8101(10) 0.1882(8) 0.0983(4)
C57_2 C 0.7358(11) 0.1895(13) 0.0152(5)
C58_2 C 0.8905(7) 0.0364(6) 0.0392(3)
H36_2 H 0.9393 0.0533 0.0284
H37_2 H 0.8528 0.0326 0.0185
O12_2 O 0.6817(7) 0.1613(12) 0.0347(4)
C69_2 C 0.8650(9) 0.2245(8) 0.0045(4)
C70_2 C 0.7662(11) 0.2616(9) 0.1113(4)
H44_2 H 0.7315 0.2488 0.1324
H45_2 H 0.7370 0.2817 0.0895
H46_2 H 0.8028 0.3000 0.1200
Cu7_2 Cu 0.91196(10) 0.99354(8) 0.13375(4)
O9_2 O 0.8454(5) 0.3466(6) 0.8241(3)
N16_2 N 0.7163(7) 0.3316(6) 0.8367(3)
C50_2 C 0.7513(7) 0.2539(6) 0.7524(4)
H33_2 H 0.7386 0.2387 0.7260
H34_2 H 0.7364 0.2134 0.7702
H35_2 H 0.8063 0.2626 0.7543
C51_2 C 0.7082(8) 0.3280(7) 0.7627(3)
C53_2 C 0.7957(8) 0.3272(8) 0.8471(4)
C55_2 C 0.7713(8) 0.2506(8) 0.9508(4)
C56_2 C 0.7511(8) 0.2757(8) 0.9122(4)
C59_2 C 0.7122(8) 0.2247(11) 0.9756(4)
C60_2 C 0.8888(8) 0.2965(9) 0.8998(4)
H39_2 H 0.9280 0.3121 0.8827
C61_2 C 0.6488(9) 0.4272(6) 0.7928(3)
C62_2 C 0.8114(8) 0.2994(8) 0.8880(4)
O11_2 O 0.5869(6) 0.3143(7) 0.8509(3)
C63_2 C 0.8481(8) 0.2508(8) 0.9640(4)
C64_2 C 0.6942(8) 0.3587(7) 0.7983(3)
C65_2 C 0.9078(8) 0.2693(8) 0.9387(4)
H40_2 H 0.9593 0.2643 0.9466
C66_2 C 0.6165(9) 0.4859(8) 0.8216(4)
H41_2 H 0.5695 0.4660 0.8330
H42_2 H 0.6057 0.5337 0.8081
H43_2 H 0.6540 0.4952 0.8420
C67_2 C 0.6739(9) 0.2774(11) 0.9010(4)
C68_2 C 0.6547(9) 0.3108(9) 0.8611(4)
C71_2 C 0.6164(10) 0.2458(14) 0.9227(5)
H47_2 H 0.5671 0.2401 0.9119
C72_2 C 0.6312(9) 0.2206(14) 0.9628(6)
H48_2 H 0.5917 0.2031 0.9793
H38_2 H 0.8970 0.9864 0.0513
C18_3 C 0.0274(5) 0.6425(7) 0.3187(6)
H7_3 H 0.0496 0.6914 0.3155
N10_2 N 0.4047(4) 0.5510(6) 0.3000(2)
C37_3 C 0.3319(6) 0.5334(7) 0.2880(3)
O7_3 O 0.2161(4) 0.3893(5) 0.3138(4)
N11_3 N 0.2019(4) 0.5216(5) 0.3213(3)
N12_3 N 0.4059(5) 0.5566(6) 0.3411(3)
O8_3 O 0.1894(3) 0.6501(4) 0.3307(3)
C38_3 C 0.0410(4) 0.5048(7) 0.3193(4)
C39_3 C 0.1582(5) 0.5877(7) 0.3224(5)
C40_3 C 0.3100(6) 0.5289(8) 0.2474(3)
H25_3 H 0.3554 0.5201 0.2316
H26_3 H 0.2741 0.4868 0.2438
H27_3 H 0.2859 0.5768 0.2396
C41_3 C 0.0864(5) 0.4382(7) 0.3186(5)
C42_3 C 0.1744(5) 0.4439(7) 0.3184(5)
C43_3 C 0.0725(5) 0.5820(7) 0.3219(5)
C44_3 C 0.2856(4) 0.5306(6) 0.3215(4)
C45_3 C 0.3322(6) 0.5439(7) 0.3535(3)
C47_3 C 0.3134(6) 0.5421(8) 0.3974(3)
H29_3 H 0.3425 0.5819 0.4106
H30_3 H 0.2588 0.5511 0.4011
H31_3 H 0.3270 0.4922 0.4079
C48_3 C 0.0548(5) 0.3642(7) 0.3199(6)
H32_3 H 0.0864 0.3205 0.3215
H42_3 H 0.0337 0.8943 0.6919
Cu7_3 Cu 0.49354(8) 0.58804(10) 0.36625(4)
Cu8_2 Cu 0.49001(8) 0.58847(12) 0.27385(4)
Cu9_2 Cu 0.00999(8) 0.91153(12) 0.77385(4)
Cu10_2 Cu 0.36259(7) 0.33402(11) 0.31856(5)
Cu1_3 Cu 0.50646(8) 0.41196(10) 0.36625(4)
Cu2_2 Cu 0.50999(8) 0.41153(12) 0.27385(4)
N1_2 N 0.5953(4) 0.4490(6) 0.3000(2)
N2_3 N 0.3622(5) 0.3336(7) 0.3733(3)
N3_3 N 0.4235(5) 0.3698(5) 0.3934(2)
C1_3 C 0.6681(6) 0.4666(7) 0.2880(3)
O1_3 O 0.7839(4) 0.6107(5) 0.3138(4)
N4_3 N 0.7981(4) 0.4784(5) 0.3213(3)
N5_3 N 0.5941(5) 0.4434(6) 0.3411(3)
O2_3 O 0.8106(3) 0.3499(4) 0.3307(3)
C2_3 C 0.9590(4) 0.4952(7) 0.3193(4)
O3_3 O 0.1534(6) 0.3454(5) 0.6759(3)
N6_2 N 0.1261(5) 0.1741(5) 0.7642(2)
C3_3 C 0.4071(7) 0.3637(7) 0.4313(3)
C4_3 C 0.8418(5) 0.4123(7) 0.3224(5)
N7_3 N 0.1684(6) 0.2163(7) 0.6633(3)
O4_3 O 0.2726(5) 0.4308(6) 0.4818(2)
N8_3 N 0.3050(7) 0.3098(7) 0.4739(3)
C5_3 C 0.2461(6) 0.2513(7) 0.7476(4)
H1_3 H 0.2613 0.2386 0.7740
H2_3 H 0.2866 0.2364 0.7298
H3_3 H 0.2374 0.3063 0.7457
N9_2 N 0.0643(5) 0.1399(6) 0.7460(3)
C6_3 C 0.1720(7) 0.2082(8) 0.7373(3)
C7_3 C 0.6900(6) 0.4711(8) 0.2474(3)
H4_3 H 0.6446 0.4799 0.2316
H5_3 H 0.7259 0.5132 0.2438
H6_3 H 0.7141 0.4232 0.2396
C8_3 C 0.3398(8) 0.3263(8) 0.4365(4)
C9_3 C 0.9136(5) 0.5618(7) 0.3186(5)
C10_3 C 0.1728(8) 0.2957(8) 0.6529(4)
C11_3 C 0.8256(5) 0.5561(7) 0.3184(5)
C12_3 C 0.9275(5) 0.4180(7) 0.3219(5)
C13_3 C 0.3118(8) 0.3101(10) 0.4017(4)
C14_3 C 0.2494(8) 0.2713(8) 0.5492(4)
C15_3 C 0.7144(4) 0.4694(6) 0.3215(4)
C16_3 C 0.2243(8) 0.2511(8) 0.5878(4)
C17_3 C 0.6678(6) 0.4561(7) 0.3535(3)
C19_3 C 0.3105(13) 0.2358(11) 0.4848(5)
C20_3 C 0.4636(6) 0.3905(7) 0.4608(3)
H8_3 H 0.4467 0.4393 0.4716
H9_3 H 0.4674 0.3528 0.4815
H10_3 H 0.5136 0.3970 0.4487
C21_3 C 0.6866(6) 0.4579(8) 0.3974(3)
H11_3 H 0.6575 0.4181 0.4106
H12_3 H 0.7412 0.4489 0.4011
H13_3 H 0.6730 0.5078 0.4079
C22_3 C 0.2753(11) 0.2122(8) 0.5244(4)
C23_3 C 0.2035(9) 0.3888(8) 0.6002(4)
H14_3 H 0.1879 0.4280 0.6173
C24_3 C 0.0728(6) 0.1488(9) 0.7072(3)
C25_3 C 0.2006(8) 0.3114(8) 0.6120(4)
O5_3 O 0.1857(7) 0.0869(6) 0.6491(3)
O6_3 O 0.3387(12) 0.1817(7) 0.4653(4)
C26_3 C 0.9452(5) 0.6358(7) 0.3199(6)
H15_3 H 0.9136 0.6795 0.3215
C27_3 C 0.2492(8) 0.3481(8) 0.5360(4)
C28_3 C 0.1413(7) 0.1942(8) 0.7017(3)
C29_3 C 0.2307(8) 0.4078(8) 0.5613(4)
H16_3 H 0.2357 0.4593 0.5534
C30_3 C 0.0141(8) 0.1165(9) 0.6784(4)
H17_3 H 0.0340 0.0695 0.6670
H19_3 H 0.0048 0.1540 0.6580
C31_3 C 0.2226(11) 0.1739(9) 0.5990(4)
C32_3 C 0.1892(9) 0.1547(9) 0.6389(4)
C33_3 C 0.2755(8) 0.3650(9) 0.4955(4)
C34_3 C 0.2384(9) 0.2662(11) 0.3887(4)
H20_3 H 0.2512 0.2315 0.3676
H21_3 H 0.2183 0.2370 0.4105
H22_3 H 0.2000 0.3028 0.3800
C35_3 C 0.2542(14) 0.1164(10) 0.5773(5)
H23_3 H 0.2599 0.0671 0.5881
C36_3 C 0.2794(14) 0.1312(9) 0.5372(6)
H24_3 H 0.2969 0.0917 0.5207
C46_3 C 0.9726(5) 0.3575(7) 0.3187(6)
H28_3 H 0.9504 0.3086 0.3155
Cu5_2 Cu 0.63741(7) 0.66598(11) 0.31856(5)
N13_3 N 0.6378(5) 0.6664(7) 0.3733(3)
N14_3 N 0.5765(5) 0.6302(5) 0.3934(2)
O9_3 O 0.8466(6) 0.6546(5) 0.6759(3)
N15_2 N 0.8739(5) 0.8259(5) 0.7642(2)
C49_3 C 0.5929(7) 0.6363(7) 0.4313(3)
N16_3 N 0.8316(6) 0.7837(7) 0.6633(3)
O10_3 O 0.7274(5) 0.5692(6) 0.4818(2)
N17_3 N 0.6950(7) 0.6902(7) 0.4739(3)
C50_3 C 0.7539(6) 0.7487(7) 0.7476(4)
H33_3 H 0.7387 0.7614 0.7740
H34_3 H 0.7134 0.7636 0.7298
H35_3 H 0.7626 0.6937 0.7457
N18_2 N 0.9357(5) 0.8601(6) 0.7460(3)
C51_3 C 0.8280(7) 0.7918(8) 0.7373(3)
C52_3 C 0.6602(8) 0.6737(8) 0.4365(4)
C53_3 C 0.8272(8) 0.7043(8) 0.6529(4)
C54_3 C 0.6882(8) 0.6899(10) 0.4017(4)
C55_3 C 0.7506(8) 0.7287(8) 0.5492(4)
C56_3 C 0.7757(8) 0.7489(8) 0.5878(4)
C57_3 C 0.6895(13) 0.7642(11) 0.4848(5)
C58_3 C 0.5364(6) 0.6095(7) 0.4608(3)
H36_3 H 0.5533 0.5607 0.4716
H37_3 H 0.5326 0.6472 0.4815
H38_3 H 0.4864 0.6030 0.4487
C59_3 C 0.7247(11) 0.7878(8) 0.5244(4)
C60_3 C 0.7965(9) 0.6112(8) 0.6002(4)
H39_3 H 0.8121 0.5720 0.6173
C61_3 C 0.9272(6) 0.8512(9) 0.7072(3)
C62_3 C 0.7994(8) 0.6886(8) 0.6120(4)
O11_3 O 0.8143(7) 0.9131(6) 0.6491(3)
O12_3 O 0.6613(12) 0.8183(7) 0.4653(4)
C63_3 C 0.7508(8) 0.6519(8) 0.5360(4)
C64_3 C 0.8587(7) 0.8058(8) 0.7017(3)
C65_3 C 0.7693(8) 0.5922(8) 0.5613(4)
H40_3 H 0.7643 0.5407 0.5534
C66_3 C 0.9859(8) 0.8835(9) 0.6784(4)
H41_3 H 0.9660 0.9305 0.6670
H43_3 H 0.9952 0.8460 0.6580
C67_3 C 0.7774(11) 0.8261(9) 0.5990(4)
C68_3 C 0.8108(9) 0.8453(9) 0.6389(4)
C69_3 C 0.7245(8) 0.6350(9) 0.4955(4)
C70_3 C 0.7616(9) 0.7338(11) 0.3887(4)
H44_3 H 0.7488 0.7685 0.3676
H45_3 H 0.7817 0.7630 0.4105
H46_3 H 0.8000 0.6972 0.3800
C71_3 C 0.7458(14) 0.8836(10) 0.5773(5)
H47_3 H 0.7401 0.9329 0.5881
C72_3 C 0.7206(14) 0.8688(9) 0.5372(6)
H48_3 H 0.7031 0.9083 0.5207
Cu11_2 Cu 0.86259(7) 0.83402(11) 0.81856(5)
Cu12_2 Cu 0.13741(7) 0.16598(11) 0.81856(5)
N21_2 N 0.6261(5) 0.6741(5) 0.2642(2)
N22_2 N 0.3739(5) 0.3259(5) 0.2642(2)
N23_3 N 0.4357(5) 0.3601(6) 0.2460(3)
H18_3 H 0.9663 0.1057 0.6919
Cu6_2 Cu 0.99001(8) 0.08847(12) 0.77385(4)
N19_3 N 0.9047(4) 0.0510(6) 0.8000(2)
N19_4 N 0.0953(4) 0.9490(6) 0.8000(2)
N23_4 N 0.5643(5) 0.6399(6) 0.2460(3)
O9_4 O 0.3466(6) 0.1546(5) 0.1759(3)
N16_4 N 0.3316(6) 0.2837(7) 0.1633(3)
C50_4 C 0.2539(6) 0.2487(7) 0.2476(4)
H33_4 H 0.2387 0.2614 0.2740
H34_4 H 0.2134 0.2636 0.2298
H35_4 H 0.2626 0.1937 0.2457
C51_4 C 0.3280(7) 0.2918(8) 0.2373(3)
C53_4 C 0.3272(8) 0.2043(8) 0.1529(4)
C55_4 C 0.2506(8) 0.2287(8) 0.0492(4)
C56_4 C 0.2757(8) 0.2489(8) 0.0878(4)
C59_4 C 0.2247(11) 0.2878(8) 0.0244(4)
C60_4 C 0.2965(9) 0.1112(8) 0.1002(4)
H39_4 H 0.3121 0.0720 0.1173
C61_4 C 0.4272(6) 0.3512(9) 0.2072(3)
C62_4 C 0.2994(8) 0.1886(8) 0.1120(4)
O11_4 O 0.3143(7) 0.4131(6) 0.1491(3)
C63_4 C 0.2508(8) 0.1519(8) 0.0360(4)
C64_4 C 0.3587(7) 0.3058(8) 0.2017(3)
C65_4 C 0.2693(8) 0.0922(8) 0.0613(4)
H40_4 H 0.2643 0.0407 0.0534
C66_4 C 0.4859(8) 0.3835(9) 0.1784(4)
H41_4 H 0.4660 0.4305 0.1670
H42_4 H 0.5337 0.3943 0.1919
H43_4 H 0.4952 0.3460 0.1580
C67_4 C 0.2774(11) 0.3261(9) 0.0990(4)
C68_4 C 0.3108(9) 0.3453(9) 0.1389(4)
C71_4 C 0.2458(14) 0.3836(10) 0.0773(5)
H47_4 H 0.2401 0.4329 0.0881
C72_4 C 0.2206(14) 0.3688(9) 0.0372(6)
H48_4 H 0.2031 0.4083 0.0207
O1_4 O 0.2839(4) 0.1107(5) 0.8138(4)
H5_4 H 0.2259 0.0132 0.7438
C9_4 C 0.4136(5) 0.0618(7) 0.8186(5)
C11_4 C 0.3256(5) 0.0561(7) 0.8184(5)
C18_4 C 0.5274(5) 0.1425(7) 0.8187(6)
H7_4 H 0.5496 0.1914 0.8155
H13_4 H 0.1730 0.0078 0.9079
C26_4 C 0.4452(5) 0.1358(7) 0.8199(6)
H15_4 H 0.4136 0.1795 0.8215
C37_4 C 0.8319(6) 0.0334(7) 0.7880(3)
N11_4 N 0.7019(4) 0.0216(5) 0.8213(3)
N12_4 N 0.9059(5) 0.0566(6) 0.8411(3)
O8_4 O 0.6894(3) 0.1501(4) 0.8307(3)
C38_4 C 0.5410(4) 0.0048(7) 0.8193(4)
C39_4 C 0.6582(5) 0.0877(7) 0.8224(5)
C40_4 C 0.8100(6) 0.0289(8) 0.7474(3)
H25_4 H 0.8554 0.0201 0.7316
H27_4 H 0.7859 0.0768 0.7396
C43_4 C 0.5725(5) 0.0820(7) 0.8219(5)
C44_4 C 0.7856(4) 0.0306(6) 0.8215(4)
C45_4 C 0.8322(6) 0.0439(7) 0.8535(3)
C47_4 C 0.8134(6) 0.0421(8) 0.8974(3)
H29_4 H 0.8425 0.0819 0.9106
H30_4 H 0.7588 0.0511 0.9011
N13_4 N 0.1378(5) 0.1664(7) 0.8733(3)
N14_4 N 0.0765(5) 0.1302(5) 0.8934(2)
C49_4 C 0.0929(7) 0.1363(7) 0.9313(3)
O10_4 O 0.2274(5) 0.0692(6) 0.9818(2)
N17_4 N 0.1950(7) 0.1902(7) 0.9739(3)
C52_4 C 0.1602(8) 0.1737(8) 0.9365(4)
C54_4 C 0.1882(8) 0.1899(10) 0.9017(4)
C57_4 C 0.1895(13) 0.2642(11) 0.9848(5)
C58_4 C 0.0364(6) 0.1095(7) 0.9608(3)
H36_4 H 0.0533 0.0607 0.9716
H37_4 H 0.0326 0.1472 0.9815
O12_4 O 0.1613(12) 0.3183(7) 0.9653(4)
C69_4 C 0.2245(8) 0.1350(9) 0.9955(4)
C70_4 C 0.2616(9) 0.2338(11) 0.8887(4)
H44_4 H 0.2488 0.2685 0.8676
H45_4 H 0.2817 0.2630 0.9105
H46_4 H 0.3000 0.1972 0.8800
Cu7_4 Cu 0.99354(8) 0.08804(10) 0.86625(4)
Cu1_4 Cu 0.00646(8) 0.91196(10) 0.86625(4)
C1_4 C 0.1681(6) 0.9666(7) 0.7880(3)
N4_4 N 0.2981(4) 0.9784(5) 0.8213(3)
N5_4 N 0.0941(5) 0.9434(6) 0.8411(3)
O2_4 O 0.3106(3) 0.8499(4) 0.8307(3)
C2_4 C 0.4590(4) 0.9952(7) 0.8193(4)
C4_4 C 0.3418(5) 0.9123(7) 0.8224(5)
C7_4 C 0.1900(6) 0.9711(8) 0.7474(3)
H4_4 H 0.1446 0.9799 0.7316
H6_4 H 0.2141 0.9232 0.7396
C12_4 C 0.4275(5) 0.9180(7) 0.8219(5)
C15_4 C 0.2144(4) 0.9694(6) 0.8215(4)
C17_4 C 0.1678(6) 0.9561(7) 0.8535(3)
H10_4 H 0.0136 0.8970 0.9487
C21_4 C 0.1866(6) 0.9579(8) 0.8974(3)
H11_4 H 0.1575 0.9181 0.9106
H12_4 H 0.2412 0.9489 0.9011
O7_4 O 0.7161(4) 0.8893(5) 0.8138(4)
H26_4 H 0.7741 0.9868 0.7438
C41_4 C 0.5864(5) 0.9382(7) 0.8186(5)
C42_4 C 0.6744(5) 0.9439(7) 0.8184(5)
C46_4 C 0.4726(5) 0.8575(7) 0.8187(6)
H28_4 H 0.4504 0.8086 0.8155
H31_4 H 0.8270 0.9922 0.9079
C48_4 C 0.5548(5) 0.8642(7) 0.8199(6)
H32_4 H 0.5864 0.8205 0.8215
H38_4 H 0.9864 0.1030 0.9487
O3_4 O 0.6534(6) 0.8454(5) 0.1759(3)
N7_4 N 0.6684(6) 0.7163(7) 0.1633(3)
C5_4 C 0.7461(6) 0.7513(7) 0.2476(4)
H1_4 H 0.7613 0.7386 0.2740
H2_4 H 0.7866 0.7364 0.2298
H3_4 H 0.7374 0.8063 0.2457
C6_4 C 0.6720(7) 0.7082(8) 0.2373(3)
C10_4 C 0.6728(8) 0.7957(8) 0.1529(4)
C14_4 C 0.7494(8) 0.7713(8) 0.0492(4)
C16_4 C 0.7243(8) 0.7511(8) 0.0878(4)
C22_4 C 0.7753(11) 0.7122(8) 0.0244(4)
C23_4 C 0.7035(9) 0.8888(8) 0.1002(4)
H14_4 H 0.6879 0.9280 0.1173
C24_4 C 0.5728(6) 0.6488(9) 0.2072(3)
C25_4 C 0.7006(8) 0.8114(8) 0.1120(4)
O5_4 O 0.6857(7) 0.5869(6) 0.1491(3)
C27_4 C 0.7492(8) 0.8481(8) 0.0360(4)
C28_4 C 0.6413(7) 0.6942(8) 0.2017(3)
C29_4 C 0.7307(8) 0.9078(8) 0.0613(4)
H16_4 H 0.7357 0.9593 0.0534
C30_4 C 0.5141(8) 0.6165(9) 0.1784(4)
H17_4 H 0.5340 0.5695 0.1670
H18_4 H 0.4663 0.6057 0.1919
H19_4 H 0.5048 0.6540 0.1580
C31_4 C 0.7226(11) 0.6739(9) 0.0990(4)
C32_4 C 0.6892(9) 0.6547(9) 0.1389(4)
C35_4 C 0.7542(14) 0.6164(10) 0.0773(5)
H23_4 H 0.7599 0.5671 0.0881
C36_4 C 0.7794(14) 0.6312(9) 0.0372(6)
H24_4 H 0.7969 0.5917 0.0207
N2_4 N 0.8622(5) 0.8336(7) 0.8733(3)
N3_4 N 0.9235(5) 0.8698(5) 0.8934(2)
C3_4 C 0.9071(7) 0.8637(7) 0.9313(3)
O4_4 O 0.7726(5) 0.9308(6) 0.9818(2)
N8_4 N 0.8050(7) 0.8098(7) 0.9739(3)
C8_4 C 0.8398(8) 0.8263(8) 0.9365(4)
C13_4 C 0.8118(8) 0.8101(10) 0.9017(4)
C19_4 C 0.8105(13) 0.7358(11) 0.9848(5)
C20_4 C 0.9636(6) 0.8905(7) 0.9608(3)
H8_4 H 0.9467 0.9393 0.9716
H9_4 H 0.9674 0.8528 0.9815
O6_4 O 0.8387(12) 0.6817(7) 0.9653(4)
C33_4 C 0.7755(8) 0.8650(9) 0.9955(4)
C34_4 C 0.7384(9) 0.7662(11) 0.8887(4)
H20_4 H 0.7512 0.7315 0.8676
H21_4 H 0.7183 0.7370 0.9105
H22_4 H 0.7000 0.8028 0.8800
loop_
_geom_bond_atom_site_label_1
_geom_bond_atom_site_label_2
_geom_bond_site_symmetry_1
_geom_bond_site_symmetry_2
C18 H7 1_555 1_555
N10 C37 1_555 1_555
C37 C40 1_555 1_555
O7 C42 1_555 1_555
N11 C39 1_555 1_555
N12 N10 1_555 1_555
O8 C39 1_555 1_555
C39 C43 1_555 1_555
C40 H25 1_555 1_555
H26 C40 1_555 1_555
H27 C40 1_555 1_555
C41 C38 1_555 1_555
C42 N11 1_555 1_555
C43 C18 1_555 1_555
C44 C37 1_555 1_555
C45 N12 1_555 1_555
C47 C45 1_555 1_555
H29 C47 1_555 1_555
H30 C47 1_555 1_555
H31 C47 1_555 1_555
C48 C41 1_555 1_555
H32 C48 1_555 1_555
Cu7 N12 1_555 1_555
Cu8 N10 1_555 1_555
Cu10 O7 1_555 1_555
N11 C44 1_555 1_555
C38 C43 1_555 1_555
C41 C42 1_555 1_555
C44 C45 1_555 1_555
Cu1 N3 1_555 1_555
Cu2 N1 1_555 1_555
Cu10 N2 1_555 1_555
N1 C1 1_555 1_555
N2 N3 1_555 1_555
N3 C3 1_555 1_555
C1 C7 1_555 1_555
O1 C11 1_555 1_555
N4 C4 1_555 1_555
N5 Cu1 1_555 1_555
O2 C4 1_555 1_555
C2 C9 1_555 1_555
O3 C10 1_555 1_555
N6 N9 1_555 1_555
C3 C8 1_555 1_555
C4 C12 1_555 1_555
N7 C10 1_555 1_555
O4 C33 1_555 1_555
N8 C8 1_555 1_555
C5 H1 1_555 1_555
H2 C5 1_555 1_555
H3 C5 1_555 1_555
N9 C24 1_555 1_555
C6 N6 1_555 1_555
C7 H4 1_555 1_555
H5 C7 1_555 1_555
H6 C7 1_555 1_555
C8 C13 1_555 1_555
C9 C11 1_555 1_555
C10 C25 1_555 1_555
C11 N4 1_555 1_555
C12 C2 1_555 1_555
C13 N2 1_555 1_555
C14 C16 1_555 1_555
C15 C1 1_555 1_555
C16 C25 1_555 1_555
C17 N5 1_555 1_555
C19 N8 1_555 1_555
C20 C3 1_555 1_555
H8 C20 1_555 1_555
H9 C20 1_555 1_555
H10 C20 1_555 1_555
C21 C17 1_555 1_555
H11 C21 1_555 1_555
H12 C21 1_555 1_555
H13 C21 1_555 1_555
C22 C14 1_555 1_555
C23 H14 1_555 1_555
C24 C28 1_555 1_555
C25 C23 1_555 1_555
O5 C32 1_555 1_555
O6 C19 1_555 1_555
C26 C9 1_555 1_555
H15 C26 1_555 1_555
C27 C14 1_555 1_555
C28 N7 1_555 1_555
C29 C23 1_555 1_555
H16 C29 1_555 1_555
C30 C24 1_555 1_555
H17 C30 1_555 1_555
H19 C30 1_555 1_555
C31 C16 1_555 1_555
C32 N7 1_555 1_555
C33 N8 1_555 1_555
C34 C13 1_555 1_555
H20 C34 1_555 1_555
H21 C34 1_555 1_555
H22 C34 1_555 1_555
C35 C31 1_555 1_555
H23 C35 1_555 1_555
C36 C22 1_555 1_555
H24 C36 1_555 1_555
C46 C12 1_555 1_555
H28 C46 1_555 1_555
Cu7 N14 1_555 1_555
Cu5 O1 1_555 1_555
N13 Cu5 1_555 1_555
N14 N13 1_555 1_555
O9 C53 1_555 1_555
N15 N18 1_555 1_555
C49 N14 1_555 1_555
N16 C53 1_555 1_555
O10 C69 1_555 1_555
N17 C52 1_555 1_555
C50 H33 1_555 1_555
H34 C50 1_555 1_555
H35 C50 1_555 1_555
N18 C61 1_555 1_555
C51 N15 1_555 1_555
C52 C49 1_555 1_555
C53 C62 1_555 1_555
C54 N13 1_555 1_555
C55 C56 1_555 1_555
C56 C62 1_555 1_555
C57 N17 1_555 1_555
C58 C49 1_555 1_555
H36 C58 1_555 1_555
H37 C58 1_555 1_555
H38 C58 1_555 1_555
C59 C55 1_555 1_555
C60 H39 1_555 1_555
C61 C64 1_555 1_555
C62 C60 1_555 1_555
O11 C68 1_555 1_555
O12 C57 1_555 1_555
C63 C55 1_555 1_555
C64 N16 1_555 1_555
C65 C60 1_555 1_555
H40 C65 1_555 1_555
C66 C61 1_555 1_555
H41 C66 1_555 1_555
H43 C66 1_555 1_555
C67 C56 1_555 1_555
C68 N16 1_555 1_555
C69 N17 1_555 1_555
C70 C54 1_555 1_555
H44 C70 1_555 1_555
H45 C70 1_555 1_555
H46 C70 1_555 1_555
C71 C67 1_555 1_555
H47 C71 1_555 1_555
C72 C59 1_555 1_555
H48 C72 1_555 1_555
Cu11 N15 1_555 1_555
Cu12 N6 1_555 1_555
N21 Cu5 1_555 1_555
N22 Cu10 1_555 1_555
N23 Cu2 1_555 1_555
N1 N5 1_555 1_555
N4 C15 1_555 1_555
C5 C6 1_555 1_555
C6 C28 1_555 1_555
C15 C17 1_555 1_555
C19 C22 1_555 1_555
C27 C29 1_555 1_555
C27 C33 1_555 1_555
C31 C32 1_555 1_555
C35 C36 1_555 1_555
C50 C51 1_555 1_555
C51 C64 1_555 1_555
C52 C54 1_555 1_555
C57 C59 1_555 1_555
C63 C65 1_555 1_555
C63 C69 1_555 1_555
C67 C68 1_555 1_555
C71 C72 1_555 1_555
N22 N23 1_555 1_555
N19 Cu6 1_555 1_555
N19_2 Cu9 1_555 1_555
N23_2 Cu8 1_555 1_555
N21 N23_2 1_555 1_555
N19_2 C1_2 1_555 1_555
C1_2 C7_2 1_555 1_555
N4_2 C4_2 1_555 1_555
N5_2 Cu1_2 1_555 1_555
O2_2 C4_2 1_555 1_555
C4_2 C12_2 1_555 1_555
C7_2 H4_2 1_555 1_555
H6_2 C7_2 1_555 1_555
C12_2 C2_2 1_555 1_555
C15_2 C1_2 1_555 1_555
C17_2 N5_2 1_555 1_555
C21_2 C17_2 1_555 1_555
H11_2 C21_2 1_555 1_555
H12_2 C21_2 1_555 1_555
O7_2 C42_2 1_555 1_555
C46_2 C12_2 1_555 1_555
H28_2 C46_2 1_555 1_555
C48_2 C41_2 1_555 1_555
H32_2 C48_2 1_555 1_555
Cu11 O7_2 1_555 1_555
N19_2 N5_2 1_555 1_555
N4_2 C15_2 1_555 1_555
C15_2 C17_2 1_555 1_555
C41_2 C42_2 1_555 1_555
C46_2 C48_2 1_555 1_555
Cu11 N2_2 1_555 1_555
N2_2 N3_2 1_555 1_555
N3_2 C3_2 1_555 1_555
C3_2 C8_2 1_555 1_555
O4_2 C33_2 1_555 1_555
N8_2 C8_2 1_555 1_555
C8_2 C13_2 1_555 1_555
C13_2 N2_2 1_555 1_555
C19_2 N8_2 1_555 1_555
C20_2 C3_2 1_555 1_555
H8_2 C20_2 1_555 1_555
H9_2 C20_2 1_555 1_555
O6_2 C19_2 1_555 1_555
C33_2 N8_2 1_555 1_555
C34_2 C13_2 1_555 1_555
H20_2 C34_2 1_555 1_555
H21_2 C34_2 1_555 1_555
H22_2 C34_2 1_555 1_555
O3_2 C10_2 1_555 1_555
N7_2 C10_2 1_555 1_555
C5_2 H1_2 1_555 1_555
H2_2 C5_2 1_555 1_555
H3_2 C5_2 1_555 1_555
N23_2 C24_2 1_555 1_555
C6_2 N21 1_555 1_555
C10_2 C25_2 1_555 1_555
C14_2 C16_2 1_555 1_555
C16_2 C25_2 1_555 1_555
C22_2 C14_2 1_555 1_555
C23_2 H14_2 1_555 1_555
C24_2 C28_2 1_555 1_555
C25_2 C23_2 1_555 1_555
O5_2 C32_2 1_555 1_555
C27_2 C14_2 1_555 1_555
C28_2 N7_2 1_555 1_555
C29_2 C23_2 1_555 1_555
H16_2 C29_2 1_555 1_555
C30_2 C24_2 1_555 1_555
H17_2 C30_2 1_555 1_555
H18_2 C30_2 1_555 1_555
H19_2 C30_2 1_555 1_555
C31_2 C16_2 1_555 1_555
C32_2 N7_2 1_555 1_555
C35_2 C31_2 1_555 1_555
H23_2 C35_2 1_555 1_555
C36_2 C22_2 1_555 1_555
H24_2 C36_2 1_555 1_555
C5_2 C6_2 1_555 1_555
C6_2 C28_2 1_555 1_555
C27_2 C29_2 1_555 1_555
C31_2 C32_2 1_555 1_555
C35_2 C36_2 1_555 1_555
O1_2 C11_2 1_555 1_555
C9_2 C11_2 1_555 1_555
C18_2 H7_2 1_555 1_555
C26_2 C9_2 1_555 1_555
H15_2 C26_2 1_555 1_555
N19 C37_2 1_555 1_555
C37_2 C40_2 1_555 1_555
N11_2 C39_2 1_555 1_555
N12_2 N19 1_555 1_555
O8_2 C39_2 1_555 1_555
C39_2 C43_2 1_555 1_555
C40_2 H25_2 1_555 1_555
H27_2 C40_2 1_555 1_555
C43_2 C18_2 1_555 1_555
C44_2 C37_2 1_555 1_555
C45_2 N12_2 1_555 1_555
C47_2 C45_2 1_555 1_555
H29_2 C47_2 1_555 1_555
H30_2 C47_2 1_555 1_555
Cu12 O1_2 1_555 1_555
N13_2 Cu12 1_555 1_555
N14_2 N13_2 1_555 1_555
C49_2 N14_2 1_555 1_555
O10_2 C69_2 1_555 1_555
N17_2 C52_2 1_555 1_555
C52_2 C49_2 1_555 1_555
C54_2 N13_2 1_555 1_555
C57_2 N17_2 1_555 1_555
C58_2 C49_2 1_555 1_555
H36_2 C58_2 1_555 1_555
H37_2 C58_2 1_555 1_555
O12_2 C57_2 1_555 1_555
C69_2 N17_2 1_555 1_555
C70_2 C54_2 1_555 1_555
H44_2 C70_2 1_555 1_555
H45_2 C70_2 1_555 1_555
H46_2 C70_2 1_555 1_555
Cu7_2 N12_2 1_555 1_555
C18_2 C26_2 1_555 1_555
N11_2 C44_2 1_555 1_555
C38_2 C43_2 1_555 1_555
C44_2 C45_2 1_555 1_555
C52_2 C54_2 1_555 1_555
O9_2 C53_2 1_555 1_555
N16_2 C53_2 1_555 1_555
C50_2 H33_2 1_555 1_555
H34_2 C50_2 1_555 1_555
H35_2 C50_2 1_555 1_555
N23 C61_2 1_555 1_555
C51_2 N22 1_555 1_555
C53_2 C62_2 1_555 1_555
C55_2 C56_2 1_555 1_555
C56_2 C62_2 1_555 1_555
C59_2 C55_2 1_555 1_555
C60_2 H39_2 1_555 1_555
C61_2 C64_2 1_555 1_555
C62_2 C60_2 1_555 1_555
O11_2 C68_2 1_555 1_555
C63_2 C55_2 1_555 1_555
C64_2 N16_2 1_555 1_555
C65_2 C60_2 1_555 1_555
H40_2 C65_2 1_555 1_555
C66_2 C61_2 1_555 1_555
H41_2 C66_2 1_555 1_555
H42_2 C66_2 1_555 1_555
H43_2 C66_2 1_555 1_555
C67_2 C56_2 1_555 1_555
C68_2 N16_2 1_555 1_555
C71_2 C67_2 1_555 1_555
H47_2 C71_2 1_555 1_555
C72_2 C59_2 1_555 1_555
H48_2 C72_2 1_555 1_555
C50_2 C51_2 1_555 1_555
C51_2 C64_2 1_555 1_555
C63_2 C65_2 1_555 1_555
C67_2 C68_2 1_555 1_555
C71_2 C72_2 1_555 1_555
C18_3 H7_3 1_555 1_555
N10_2 C37_3 1_555 1_555
C37_3 C40_3 1_555 1_555
O7_3 C42_3 1_555 1_555
N11_3 C39_3 1_555 1_555
N12_3 N10_2 1_555 1_555
O8_3 C39_3 1_555 1_555
C39_3 C43_3 1_555 1_555
C40_3 H25_3 1_555 1_555
H26_3 C40_3 1_555 1_555
H27_3 C40_3 1_555 1_555
C41_3 C38_3 1_555 1_555
C42_3 N11_3 1_555 1_555
C43_3 C18_3 1_555 1_555
C44_3 C37_3 1_555 1_555
C45_3 N12_3 1_555 1_555
C47_3 C45_3 1_555 1_555
H29_3 C47_3 1_555 1_555
H30_3 C47_3 1_555 1_555
H31_3 C47_3 1_555 1_555
C48_3 C41_3 1_555 1_555
H32_3 C48_3 1_555 1_555
Cu7_3 N12_3 1_555 1_555
Cu8_2 N10_2 1_555 1_555
Cu10_2 O7_3 1_555 1_555
N11_3 C44_3 1_555 1_555
C38_3 C43_3 1_555 1_555
C41_3 C42_3 1_555 1_555
C44_3 C45_3 1_555 1_555
Cu1_3 N3_3 1_555 1_555
Cu2_2 N1_2 1_555 1_555
Cu10_2 N2_3 1_555 1_555
N1_2 C1_3 1_555 1_555
N2_3 N3_3 1_555 1_555
N3_3 C3_3 1_555 1_555
C1_3 C7_3 1_555 1_555
O1_3 C11_3 1_555 1_555
N4_3 C4_3 1_555 1_555
N5_3 Cu1_3 1_555 1_555
O2_3 C4_3 1_555 1_555
C2_3 C9_3 1_555 1_555
O3_3 C10_3 1_555 1_555
N6_2 N9_2 1_555 1_555
C3_3 C8_3 1_555 1_555
C4_3 C12_3 1_555 1_555
N7_3 C10_3 1_555 1_555
O4_3 C33_3 1_555 1_555
N8_3 C8_3 1_555 1_555
C5_3 H1_3 1_555 1_555
H2_3 C5_3 1_555 1_555
H3_3 C5_3 1_555 1_555
N9_2 C24_3 1_555 1_555
C6_3 N6_2 1_555 1_555
C7_3 H4_3 1_555 1_555
H5_3 C7_3 1_555 1_555
H6_3 C7_3 1_555 1_555
C8_3 C13_3 1_555 1_555
C9_3 C11_3 1_555 1_555
C10_3 C25_3 1_555 1_555
C11_3 N4_3 1_555 1_555
C12_3 C2_3 1_555 1_555
C13_3 N2_3 1_555 1_555
C14_3 C16_3 1_555 1_555
C15_3 C1_3 1_555 1_555
C16_3 C25_3 1_555 1_555
C17_3 N5_3 1_555 1_555
C19_3 N8_3 1_555 1_555
C20_3 C3_3 1_555 1_555
H8_3 C20_3 1_555 1_555
H9_3 C20_3 1_555 1_555
H10_3 C20_3 1_555 1_555
C21_3 C17_3 1_555 1_555
H11_3 C21_3 1_555 1_555
H12_3 C21_3 1_555 1_555
H13_3 C21_3 1_555 1_555
C22_3 C14_3 1_555 1_555
C23_3 H14_3 1_555 1_555
C24_3 C28_3 1_555 1_555
C25_3 C23_3 1_555 1_555
O5_3 C32_3 1_555 1_555
O6_3 C19_3 1_555 1_555
C26_3 C9_3 1_555 1_555
H15_3 C26_3 1_555 1_555
C27_3 C14_3 1_555 1_555
C28_3 N7_3 1_555 1_555
C29_3 C23_3 1_555 1_555
H16_3 C29_3 1_555 1_555
C30_3 C24_3 1_555 1_555
H17_3 C30_3 1_555 1_555
H19_3 C30_3 1_555 1_555
C31_3 C16_3 1_555 1_555
C32_3 N7_3 1_555 1_555
C33_3 N8_3 1_555 1_555
C34_3 C13_3 1_555 1_555
H20_3 C34_3 1_555 1_555
H21_3 C34_3 1_555 1_555
H22_3 C34_3 1_555 1_555
C35_3 C31_3 1_555 1_555
H23_3 C35_3 1_555 1_555
C36_3 C22_3 1_555 1_555
H24_3 C36_3 1_555 1_555
C46_3 C12_3 1_555 1_555
H28_3 C46_3 1_555 1_555
Cu7_3 N14_3 1_555 1_555
Cu5_2 O1_3 1_555 1_555
N13_3 Cu5_2 1_555 1_555
N14_3 N13_3 1_555 1_555
O9_3 C53_3 1_555 1_555
N15_2 N18_2 1_555 1_555
C49_3 N14_3 1_555 1_555
N16_3 C53_3 1_555 1_555
O10_3 C69_3 1_555 1_555
N17_3 C52_3 1_555 1_555
C50_3 H33_3 1_555 1_555
H34_3 C50_3 1_555 1_555
H35_3 C50_3 1_555 1_555
N18_2 C61_3 1_555 1_555
C51_3 N15_2 1_555 1_555
C52_3 C49_3 1_555 1_555
C53_3 C62_3 1_555 1_555
C54_3 N13_3 1_555 1_555
C55_3 C56_3 1_555 1_555
C56_3 C62_3 1_555 1_555
C57_3 N17_3 1_555 1_555
C58_3 C49_3 1_555 1_555
H36_3 C58_3 1_555 1_555
H37_3 C58_3 1_555 1_555
H38_3 C58_3 1_555 1_555
C59_3 C55_3 1_555 1_555
C60_3 H39_3 1_555 1_555
C61_3 C64_3 1_555 1_555
C62_3 C60_3 1_555 1_555
O11_3 C68_3 1_555 1_555
O12_3 C57_3 1_555 1_555
C63_3 C55_3 1_555 1_555
C64_3 N16_3 1_555 1_555
C65_3 C60_3 1_555 1_555
H40_3 C65_3 1_555 1_555
C66_3 C61_3 1_555 1_555
H41_3 C66_3 1_555 1_555
H43_3 C66_3 1_555 1_555
C67_3 C56_3 1_555 1_555
C68_3 N16_3 1_555 1_555
C69_3 N17_3 1_555 1_555
C70_3 C54_3 1_555 1_555
H44_3 C70_3 1_555 1_555
H45_3 C70_3 1_555 1_555
H46_3 C70_3 1_555 1_555
C71_3 C67_3 1_555 1_555
H47_3 C71_3 1_555 1_555
C72_3 C59_3 1_555 1_555
H48_3 C72_3 1_555 1_555
Cu11_2 N15_2 1_555 1_555
Cu12_2 N6_2 1_555 1_555
N21_2 Cu5_2 1_555 1_555
N22_2 Cu10_2 1_555 1_555
N23_3 Cu2_2 1_555 1_555
N1_2 N5_3 1_555 1_555
N4_3 C15_3 1_555 1_555
C5_3 C6_3 1_555 1_555
C6_3 C28_3 1_555 1_555
C15_3 C17_3 1_555 1_555
C19_3 C22_3 1_555 1_555
C27_3 C29_3 1_555 1_555
C27_3 C33_3 1_555 1_555
C31_3 C32_3 1_555 1_555
C35_3 C36_3 1_555 1_555
C50_3 C51_3 1_555 1_555
C51_3 C64_3 1_555 1_555
C52_3 C54_3 1_555 1_555
C57_3 C59_3 1_555 1_555
C63_3 C65_3 1_555 1_555
C63_3 C69_3 1_555 1_555
C67_3 C68_3 1_555 1_555
C71_3 C72_3 1_555 1_555
N22_2 N23_3 1_555 1_555
N19_3 Cu6_2 1_555 1_555
N19_4 Cu9_2 1_555 1_555
N23_4 Cu8_2 1_555 1_555
N21_2 N23_4 1_555 1_555
O9_4 C53_4 1_555 1_555
N16_4 C53_4 1_555 1_555
C50_4 H33_4 1_555 1_555
H34_4 C50_4 1_555 1_555
H35_4 C50_4 1_555 1_555
N23_3 C61_4 1_555 1_555
C51_4 N22_2 1_555 1_555
C53_4 C62_4 1_555 1_555
C55_4 C56_4 1_555 1_555
C56_4 C62_4 1_555 1_555
C59_4 C55_4 1_555 1_555
C60_4 H39_4 1_555 1_555
C61_4 C64_4 1_555 1_555
C62_4 C60_4 1_555 1_555
O11_4 C68_4 1_555 1_555
C63_4 C55_4 1_555 1_555
C64_4 N16_4 1_555 1_555
C65_4 C60_4 1_555 1_555
H40_4 C65_4 1_555 1_555
C66_4 C61_4 1_555 1_555
H41_4 C66_4 1_555 1_555
H42_4 C66_4 1_555 1_555
H43_4 C66_4 1_555 1_555
C67_4 C56_4 1_555 1_555
C68_4 N16_4 1_555 1_555
C71_4 C67_4 1_555 1_555
H47_4 C71_4 1_555 1_555
C72_4 C59_4 1_555 1_555
H48_4 C72_4 1_555 1_555
C50_4 C51_4 1_555 1_555
C51_4 C64_4 1_555 1_555
C63_4 C65_4 1_555 1_555
C67_4 C68_4 1_555 1_555
C71_4 C72_4 1_555 1_555
O1_4 C11_4 1_555 1_555
C9_4 C11_4 1_555 1_555
C18_4 H7_4 1_555 1_555
C26_4 C9_4 1_555 1_555
H15_4 C26_4 1_555 1_555
N19_3 C37_4 1_555 1_555
C37_4 C40_4 1_555 1_555
N11_4 C39_4 1_555 1_555
N12_4 N19_3 1_555 1_555
O8_4 C39_4 1_555 1_555
C39_4 C43_4 1_555 1_555
C40_4 H25_4 1_555 1_555
H27_4 C40_4 1_555 1_555
C43_4 C18_4 1_555 1_555
C44_4 C37_4 1_555 1_555
C45_4 N12_4 1_555 1_555
C47_4 C45_4 1_555 1_555
H29_4 C47_4 1_555 1_555
H30_4 C47_4 1_555 1_555
Cu12_2 O1_4 1_555 1_555
N13_4 Cu12_2 1_555 1_555
N14_4 N13_4 1_555 1_555
C49_4 N14_4 1_555 1_555
O10_4 C69_4 1_555 1_555
N17_4 C52_4 1_555 1_555
C52_4 C49_4 1_555 1_555
C54_4 N13_4 1_555 1_555
C57_4 N17_4 1_555 1_555
C58_4 C49_4 1_555 1_555
H36_4 C58_4 1_555 1_555
H37_4 C58_4 1_555 1_555
O12_4 C57_4 1_555 1_555
C69_4 N17_4 1_555 1_555
C70_4 C54_4 1_555 1_555
H44_4 C70_4 1_555 1_555
H45_4 C70_4 1_555 1_555
H46_4 C70_4 1_555 1_555
Cu7_4 N12_4 1_555 1_555
C18_4 C26_4 1_555 1_555
N11_4 C44_4 1_555 1_555
C38_4 C43_4 1_555 1_555
C44_4 C45_4 1_555 1_555
C52_4 C54_4 1_555 1_555
N19_4 C1_4 1_555 1_555
C1_4 C7_4 1_555 1_555
N4_4 C4_4 1_555 1_555
N5_4 Cu1_4 1_555 1_555
O2_4 C4_4 1_555 1_555
C4_4 C12_4 1_555 1_555
C7_4 H4_4 1_555 1_555
H6_4 C7_4 1_555 1_555
C12_4 C2_4 1_555 1_555
C15_4 C1_4 1_555 1_555
C17_4 N5_4 1_555 1_555
C21_4 C17_4 1_555 1_555
H11_4 C21_4 1_555 1_555
H12_4 C21_4 1_555 1_555
O7_4 C42_4 1_555 1_555
C46_4 C12_4 1_555 1_555
H28_4 C46_4 1_555 1_555
C48_4 C41_4 1_555 1_555
H32_4 C48_4 1_555 1_555
Cu11_2 O7_4 1_555 1_555
N19_4 N5_4 1_555 1_555
N4_4 C15_4 1_555 1_555
C15_4 C17_4 1_555 1_555
C41_4 C42_4 1_555 1_555
C46_4 C48_4 1_555 1_555
O3_4 C10_4 1_555 1_555
N7_4 C10_4 1_555 1_555
C5_4 H1_4 1_555 1_555
H2_4 C5_4 1_555 1_555
H3_4 C5_4 1_555 1_555
N23_4 C24_4 1_555 1_555
C6_4 N21_2 1_555 1_555
C10_4 C25_4 1_555 1_555
C14_4 C16_4 1_555 1_555
C16_4 C25_4 1_555 1_555
C22_4 C14_4 1_555 1_555
C23_4 H14_4 1_555 1_555
C24_4 C28_4 1_555 1_555
C25_4 C23_4 1_555 1_555
O5_4 C32_4 1_555 1_555
C27_4 C14_4 1_555 1_555
C28_4 N7_4 1_555 1_555
C29_4 C23_4 1_555 1_555
H16_4 C29_4 1_555 1_555
C30_4 C24_4 1_555 1_555
H17_4 C30_4 1_555 1_555
H18_4 C30_4 1_555 1_555
H19_4 C30_4 1_555 1_555
C31_4 C16_4 1_555 1_555
C32_4 N7_4 1_555 1_555
C35_4 C31_4 1_555 1_555
H23_4 C35_4 1_555 1_555
C36_4 C22_4 1_555 1_555
H24_4 C36_4 1_555 1_555
C5_4 C6_4 1_555 1_555
C6_4 C28_4 1_555 1_555
C27_4 C29_4 1_555 1_555
C31_4 C32_4 1_555 1_555
C35_4 C36_4 1_555 1_555
Cu11_2 N2_4 1_555 1_555
N2_4 N3_4 1_555 1_555
N3_4 C3_4 1_555 1_555
C3_4 C8_4 1_555 1_555
O4_4 C33_4 1_555 1_555
N8_4 C8_4 1_555 1_555
C8_4 C13_4 1_555 1_555
C13_4 N2_4 1_555 1_555
C19_4 N8_4 1_555 1_555
C20_4 C3_4 1_555 1_555
H8_4 C20_4 1_555 1_555
H9_4 C20_4 1_555 1_555
O6_4 C19_4 1_555 1_555
C33_4 N8_4 1_555 1_555
C34_4 C13_4 1_555 1_555
H20_4 C34_4 1_555 1_555
H21_4 C34_4 1_555 1_555
H22_4 C34_4 1_555 1_555

#END
