
###############################################################################
#
# This file contains modified crystal structure data generated from the
# MOF subset of the Cambridge Structural Database (CSD) v543 
# hosted by the Cambridge Crystallographic Data Centre (CCDC).
#
# This work is licensed under the Creative Commons
# Attribution-NonCommercial-ShareAlike 4.0 International License.
# To view a copy of this license, visit
# http://creativecommons.org/licenses/by-nc-sa/4.0/
# or send a letter to
# Creative Commons, PO Box 1866, Mountain View, CA 94042, USA.
#
# CIF created using the CSD Python API on 29 September 2022
# The structure has been converted into the P1 space group
# The structure has a 3D framework
# The original CSD entry GAMFEI is in the tetragonal crystal system
# The framework has been calculated to contain at least 10.0% void space
# The void calculation uses a probe of radius 1.32A, grid spacing 0.4
# The framework is charged, counterions have been retained in the structure
#
###############################################################################

data_GAMFEI
_chemical_formula_moiety         '(C288 H200 Cu16 N68 O56 8-)n'
_symmetry_cell_setting           triclinic
_symmetry_space_group_name_H-M   'P 1'
_symmetry_Int_Tables_number      1
_space_group_name_Hall           'P 1'
loop_
_symmetry_equiv_pos_site_id
_symmetry_equiv_pos_as_xyz
1 x,y,z
_cell_length_a                   17.3245(3)
_cell_length_b                   17.3245(3)
_cell_length_c                   33.9396(6)
_cell_angle_alpha                90
_cell_angle_beta                 90
_cell_angle_gamma                90
_cell_volume                     10186.6
loop_
_atom_site_label
_atom_site_type_symbol
_atom_site_fract_x
_atom_site_fract_y
_atom_site_fract_z
O1 O 0.322(3) 0.508(3) 0.5064(14)
H1 H 0.3541 0.5209 0.4865
O1_2 O 0.508(3) 0.678(3) 0.4936(14)
H1_2 H 0.5209 0.6459 0.5135
O1_3 O 0.678(3) 0.492(3) 0.5064(14)
H1_3 H 0.6459 0.4791 0.4865
O1_4 O 0.492(3) 0.322(3) 0.4936(14)
H1_4 H 0.4791 0.3541 0.5135
O1_5 O 0.822(3) 0.008(3) 0.0064(14)
H1_5 H 0.8541 0.0209 0.9865
H1_6 H 0.0209 0.1459 0.0135
O1_6 O 0.008(3) 0.178(3) 0.9936(14)
O1_7 O 0.178(3) 0.992(3) 0.0064(14)
H1_7 H 0.1459 0.9791 0.9865
H1_8 H 0.9791 0.8541 0.0135
O1_8 O 0.992(3) 0.822(3) 0.9936(14)
O8 O 0.1083(5) 0.2151(3) 0.5662(4)
C40 C 0.0534(6) 0.1732(4) 0.5700(4)
H26 H 0.0056 0.3033 0.6560
C44 C 0.0625(6) 0.0872(4) 0.5715(3)
H32 H 0.0262 0.3051 0.4896
C48 C 0.1344(7) 0.0557(5) 0.5718(5)
H33 H 0.1779 0.0872 0.5713
Cu8 Cu 0.15839(9) 0.36418(7) 0.56711(4)
N6 N 0.3377(6) 0.1278(5) 0.0124(2)
H4 H 0.2732 0.2578 0.0234
Cu10 Cu 0.34161(9) 0.13582(7) 0.06711(4)
Cu1 Cu 0.08513(9) 0.50757(7) 0.61521(3)
Cu3 Cu 0.08297(11) 0.51218(7) 0.52200(3)
N1 N 0.1269(5) 0.4245(5) 0.64167(18)
N2 N 0.1604(6) 0.3645(5) 0.6223(2)
N3 N 0.3709(6) 0.0667(5) 0.9934(2)
N4 N 0.0507(6) 0.5985(4) 0.54945(19)
N5 N 0.0547(5) 0.5972(4) 0.59042(19)
N7 N 0.2957(6) 0.1709(5) 0.9107(2)
O2 O 0.0708(5) 0.2812(5) 0.73421(19)
N8 N 0.0222(5) 0.7986(3) 0.5723(2)
O4 O 0.1505(4) 0.8128(4) 0.5824(3)
O5 O 0.4214(5) 0.1889(6) 0.8963(2)
O6 O 0.1687(6) 0.1550(6) 0.9251(2)
C1 C 0.0364(7) 0.6714(5) 0.5378(3)
C2 C 0.0045(6) 0.9592(4) 0.5720(3)
C3 C 0.1355(6) 0.4119(6) 0.6806(2)
N9 N 0.1956(6) 0.3112(6) 0.7228(2)
O7 O 0.3223(6) 0.3438(10) 0.7121(3)
C4 C 0.3582(8) 0.0733(6) 0.9548(2)
C5 C 0.0892(6) 0.8428(4) 0.5766(3)
C6 C 0.1921(8) 0.3160(7) 0.6487(3)
C8 C 0.2741(8) 0.3171(10) 0.7338(3)
C9 C 0.2616(9) 0.2448(6) 0.9966(3)
H2 H 0.2072 0.2352 0.9940
H3 H 0.2761 0.2868 0.9797
C10 C 0.1040(6) 0.4644(6) 0.7105(2)
H5 H 0.0942 0.5139 0.6989
H6 H 0.1405 0.4700 0.7316
H7 H 0.0566 0.4436 0.7207
C11 C 0.3057(7) 0.1736(5) 0.9850(3)
C12 C 0.0321(6) 0.7167(4) 0.5713(3)
C13 C 0.0804(6) 0.9285(4) 0.5737(3)
C14 C 0.3169(7) 0.1412(6) 0.9490(2)
C15 C 0.2551(6) 0.2302(7) 0.8362(3)
C16 C 0.2936(7) 0.2855(9) 0.7740(3)
C17 C 0.2178(7) 0.1752(7) 0.9019(3)
C18 C 0.0460(8) 0.6875(6) 0.6469(3)
H9 H 0.0768 0.7328 0.6513
H10 H 0.0678 0.6449 0.6611
C20 C 0.0998(7) 0.2342(8) 0.8124(3)
H11 H 0.0484 0.2350 0.8046
C21 C 0.1194(7) 0.2081(8) 0.8505(3)
H12 H 0.0809 0.1933 0.8680
C22 C 0.1968(7) 0.2044(7) 0.8619(3)
C23 C 0.0446(6) 0.6691(5) 0.6039(3)
C24 C 0.3544(7) 0.1945(8) 0.8865(3)
C25 C 0.3331(7) 0.2298(9) 0.8476(3)
C26 C 0.3700(9) 0.2828(13) 0.7853(5)
H13 H 0.4087 0.2986 0.7681
C27 C 0.2364(11) 0.2450(10) 0.6372(4)
H14 H 0.2186 0.2270 0.6121
H15 H 0.2285 0.2055 0.6566
H16 H 0.2904 0.2571 0.6356
C28 C 0.1422(6) 0.9751(5) 0.5728(5)
H17 H 0.1914 0.9536 0.5728
C29 C 0.0276(8) 0.6939(6) 0.4963(3)
H18 H 0.0538 0.6573 0.4798
H19 H 0.0494 0.7443 0.4924
C30 C 0.1753(7) 0.3444(7) 0.6854(2)
C31 C 0.2348(6) 0.2573(7) 0.7980(3)
C32 C 0.1357(7) 0.2838(7) 0.7466(3)
C33 C 0.1562(6) 0.2585(6) 0.7869(2)
C34 C 0.3887(8) 0.2559(11) 0.8235(4)
H21 H 0.4398 0.2562 0.8319
C36 C 0.3890(10) 0.0163(7) 0.9256(3)
H23 H 0.4274 0.0408 0.9095
N19 N 0.1291(6) 0.4333(5) 0.4934(2)
N23 N 0.1623(6) 0.3722(5) 0.5124(2)
Cu6 Cu 0.41703(11) 0.98782(7) 0.02200(3)
N20 N 0.4493(6) 0.9015(4) 0.04945(19)
H24 H 0.3477 0.9980 0.9093
H25 H 0.4119 0.9736 0.9394
Cu12 Cu 0.58297(11) 0.01218(7) 0.02200(3)
N10 N 0.9493(6) 0.4015(4) 0.54945(19)
N11 N 0.9453(5) 0.4028(4) 0.59042(19)
N12 N 0.9778(5) 0.2014(3) 0.5723(2)
O9 O 0.8495(4) 0.1872(4) 0.5824(3)
C37 C 0.9636(7) 0.3286(5) 0.5378(3)
C38 C 0.9955(6) 0.0408(4) 0.5720(3)
C39 C 0.9108(6) 0.1572(4) 0.5766(3)
C41 C 0.9679(6) 0.2833(4) 0.5713(3)
C42 C 0.9196(6) 0.0715(4) 0.5737(3)
C43 C 0.9540(8) 0.3125(6) 0.6469(3)
H27 H 0.9232 0.2672 0.6513
H28 H 0.9322 0.3551 0.6611
C45 C 0.9554(6) 0.3309(5) 0.6039(3)
C46 C 0.8578(6) 0.0249(5) 0.5728(5)
H29 H 0.8086 0.0464 0.5728
C47 C 0.9724(8) 0.3061(6) 0.4963(3)
H30 H 0.9462 0.3427 0.4798
H31 H 0.9506 0.2557 0.4924
H48 H 0.6523 0.0020 0.9093
H49 H 0.5881 0.0264 0.9394
Cu7 Cu 0.91487(9) 0.49243(7) 0.61521(3)
Cu11 Cu 0.91703(11) 0.48782(7) 0.52200(3)
N16 N 0.6623(6) 0.8722(5) 0.0124(2)
H36 H 0.7268 0.7422 0.0234
Cu9 Cu 0.65839(9) 0.86418(7) 0.06711(4)
O3 O 0.8917(5) 0.7849(3) 0.5662(4)
C7 C 0.9466(6) 0.8268(4) 0.5700(4)
H8 H 0.9944 0.6967 0.6560
C19 C 0.9375(6) 0.9128(4) 0.5715(3)
H20 H 0.9738 0.6949 0.4896
C35 C 0.8656(7) 0.9443(5) 0.5718(5)
H22 H 0.8221 0.9128 0.5713
Cu5 Cu 0.84161(9) 0.63582(7) 0.56711(4)
N13 N 0.8731(5) 0.5755(5) 0.64167(18)
N14 N 0.8396(6) 0.6355(5) 0.6223(2)
N15 N 0.6291(6) 0.9333(5) 0.9934(2)
N17 N 0.7043(6) 0.8291(5) 0.9107(2)
O10 O 0.9292(5) 0.7188(5) 0.73421(19)
O11 O 0.5786(5) 0.8111(6) 0.8963(2)
O12 O 0.8313(6) 0.8450(6) 0.9251(2)
C49 C 0.8645(6) 0.5881(6) 0.6806(2)
N18 N 0.8044(6) 0.6888(6) 0.7228(2)
O13 O 0.6777(6) 0.6562(10) 0.7121(3)
C50 C 0.6418(8) 0.9267(6) 0.9548(2)
C51 C 0.8079(8) 0.6840(7) 0.6487(3)
C52 C 0.7259(8) 0.6829(10) 0.7338(3)
C53 C 0.7384(9) 0.7552(6) 0.9966(3)
H34 H 0.7928 0.7648 0.9940
H35 H 0.7239 0.7132 0.9797
C54 C 0.8960(6) 0.5356(6) 0.7105(2)
H37 H 0.9058 0.4861 0.6989
H38 H 0.8595 0.5300 0.7316
H39 H 0.9434 0.5564 0.7207
C55 C 0.6943(7) 0.8264(5) 0.9850(3)
C56 C 0.6831(7) 0.8588(6) 0.9490(2)
C57 C 0.7449(6) 0.7698(7) 0.8362(3)
C58 C 0.7064(7) 0.7145(9) 0.7740(3)
C59 C 0.7822(7) 0.8248(7) 0.9019(3)
C60 C 0.9002(7) 0.7658(8) 0.8124(3)
H40 H 0.9516 0.7650 0.8046
C61 C 0.8806(7) 0.7919(8) 0.8505(3)
H41 H 0.9191 0.8067 0.8680
C62 C 0.8032(7) 0.7956(7) 0.8619(3)
C63 C 0.6456(7) 0.8055(8) 0.8865(3)
C64 C 0.6669(7) 0.7702(9) 0.8476(3)
C65 C 0.6300(9) 0.7172(13) 0.7853(5)
H42 H 0.5913 0.7014 0.7681
C66 C 0.7636(11) 0.7550(10) 0.6372(4)
H43 H 0.7814 0.7730 0.6121
H44 H 0.7715 0.7945 0.6566
H45 H 0.7096 0.7429 0.6356
C67 C 0.8247(7) 0.6556(7) 0.6854(2)
C68 C 0.7652(6) 0.7427(7) 0.7980(3)
C69 C 0.8643(7) 0.7162(7) 0.7466(3)
C70 C 0.8438(6) 0.7415(6) 0.7869(2)
C71 C 0.6113(8) 0.7441(11) 0.8235(4)
H46 H 0.5602 0.7438 0.8319
C72 C 0.6110(10) 0.9837(7) 0.9256(3)
H47 H 0.5726 0.9592 0.9095
N22 N 0.8377(6) 0.6278(5) 0.5124(2)
N20_2 N 0.5507(6) 0.0985(4) 0.04945(19)
N19_2 N 0.8709(6) 0.5667(5) 0.4934(2)
Cu1_2 Cu 0.58513(9) 0.00757(7) 0.11521(3)
N5_2 N 0.5547(5) 0.0972(4) 0.09042(19)
O3_2 O 0.3917(5) 0.2849(3) 0.0662(4)
N8_2 N 0.5222(5) 0.2986(3) 0.0723(2)
O4_2 O 0.6505(4) 0.3128(4) 0.0824(3)
C1_2 C 0.5364(7) 0.1714(5) 0.0378(3)
C2_2 C 0.5045(6) 0.4592(4) 0.0720(3)
C5_2 C 0.5892(6) 0.3428(4) 0.0766(3)
C7_2 C 0.4466(6) 0.3268(4) 0.0700(4)
H5_2 H 0.5942 0.0139 0.1989
C12_2 C 0.5321(6) 0.2167(4) 0.0713(3)
C13_2 C 0.5804(6) 0.4285(4) 0.0737(3)
C18_2 C 0.5460(8) 0.1875(6) 0.1469(3)
H8_2 H 0.4944 0.1967 0.1560
H9_2 H 0.5768 0.2328 0.1513
H10_2 H 0.5678 0.1449 0.1611
C19_2 C 0.4375(6) 0.4128(4) 0.0715(3)
C23_2 C 0.5446(6) 0.1691(5) 0.1039(3)
C28_2 C 0.6422(6) 0.4751(5) 0.0728(5)
H17_2 H 0.6914 0.4536 0.0728
C35_2 C 0.3656(7) 0.4443(5) 0.0718(5)
H22_2 H 0.3221 0.4128 0.0713
N11_2 N 0.4453(5) 0.9028(4) 0.09042(19)
O8_2 O 0.6083(5) 0.7151(3) 0.0662(4)
N12_2 N 0.4778(5) 0.7014(3) 0.0723(2)
O9_2 O 0.3495(4) 0.6872(4) 0.0824(3)
C37_2 C 0.4636(7) 0.8286(5) 0.0378(3)
C38_2 C 0.4955(6) 0.5408(4) 0.0720(3)
C39_2 C 0.4108(6) 0.6572(4) 0.0766(3)
C40_2 C 0.5534(6) 0.6732(4) 0.0700(4)
C41_2 C 0.4679(6) 0.7833(4) 0.0713(3)
C42_2 C 0.4196(6) 0.5715(4) 0.0737(3)
C43_2 C 0.4540(8) 0.8125(6) 0.1469(3)
H26_2 H 0.5056 0.8033 0.1560
H27_2 H 0.4232 0.7672 0.1513
H28_2 H 0.4322 0.8551 0.1611
C44_2 C 0.5625(6) 0.5872(4) 0.0715(3)
C45_2 C 0.4554(6) 0.8309(5) 0.1039(3)
C46_2 C 0.3578(6) 0.5249(5) 0.0728(5)
H29_2 H 0.3086 0.5464 0.0728
C48_2 C 0.6344(7) 0.5557(5) 0.0718(5)
H33_2 H 0.6779 0.5872 0.0713
N13_2 N 0.3731(5) 0.0755(5) 0.14167(18)
N14_2 N 0.3396(6) 0.1355(5) 0.1223(2)
N17_2 N 0.2043(6) 0.3291(5) 0.4107(2)
O10_2 O 0.4292(5) 0.2188(5) 0.23421(19)
O11_2 O 0.0786(5) 0.3111(6) 0.3963(2)
O12_2 O 0.3313(6) 0.3450(6) 0.4251(2)
C49_2 C 0.3645(6) 0.0881(6) 0.1806(2)
N18_2 N 0.3044(6) 0.1888(6) 0.2228(2)
O13_2 O 0.1777(6) 0.1562(10) 0.2121(3)
C50_2 C 0.1418(8) 0.4267(6) 0.4548(2)
C51_2 C 0.3079(8) 0.1840(7) 0.1487(3)
C52_2 C 0.2259(8) 0.1829(10) 0.2338(3)
C53_2 C 0.2384(9) 0.2552(6) 0.4966(3)
H34_2 H 0.2928 0.2648 0.4940
H35_2 H 0.2239 0.2132 0.4797
H36_2 H 0.2268 0.2422 0.5234
C54_2 C 0.3960(6) 0.0356(6) 0.2105(2)
H38_2 H 0.3595 0.0300 0.2316
H39_2 H 0.4434 0.0564 0.2207
C55_2 C 0.1943(7) 0.3264(5) 0.4850(3)
C56_2 C 0.1831(7) 0.3588(6) 0.4490(2)
C57_2 C 0.2449(6) 0.2698(7) 0.3362(3)
C58_2 C 0.2064(7) 0.2145(9) 0.2740(3)
C59_2 C 0.2822(7) 0.3248(7) 0.4019(3)
C60_2 C 0.4002(7) 0.2658(8) 0.3124(3)
H40_2 H 0.4516 0.2650 0.3046
C61_2 C 0.3806(7) 0.2919(8) 0.3505(3)
H41_2 H 0.4191 0.3067 0.3680
C62_2 C 0.3032(7) 0.2956(7) 0.3619(3)
C63_2 C 0.1456(7) 0.3055(8) 0.3865(3)
C64_2 C 0.1669(7) 0.2702(9) 0.3476(3)
C65_2 C 0.1300(9) 0.2172(13) 0.2853(5)
H42_2 H 0.0913 0.2014 0.2681
C66_2 C 0.2636(11) 0.2550(10) 0.1372(4)
H43_2 H 0.2814 0.2730 0.1121
H44_2 H 0.2715 0.2945 0.1566
H45_2 H 0.2096 0.2429 0.1356
C67_2 C 0.3247(7) 0.1556(7) 0.1854(2)
C68_2 C 0.2652(6) 0.2427(7) 0.2980(3)
C69_2 C 0.3643(7) 0.2162(7) 0.2466(3)
C70_2 C 0.3438(6) 0.2415(6) 0.2869(2)
C71_2 C 0.1113(8) 0.2441(11) 0.3235(4)
H46_2 H 0.0602 0.2438 0.3319
C72_2 C 0.1110(10) 0.4837(7) 0.4256(3)
H47_2 H 0.0726 0.4592 0.4095
H48_2 H 0.1523 0.5020 0.4093
H49_2 H 0.0881 0.5264 0.4394
Cu7_2 Cu 0.41487(9) 0.99243(7) 0.11521(3)
N1_2 N 0.6269(5) 0.9245(5) 0.14167(18)
N2_2 N 0.6604(6) 0.8645(5) 0.1223(2)
N7_2 N 0.7957(6) 0.6709(5) 0.4107(2)
O2_2 O 0.5708(5) 0.7812(5) 0.23421(19)
O5_2 O 0.9214(5) 0.6889(6) 0.3963(2)
O6_2 O 0.6687(6) 0.6550(6) 0.4251(2)
C3_2 C 0.6355(6) 0.9119(6) 0.1806(2)
N9_2 N 0.6956(6) 0.8112(6) 0.2228(2)
O7_2 O 0.8223(6) 0.8438(10) 0.2121(3)
C4_2 C 0.8582(8) 0.5733(6) 0.4548(2)
C6_2 C 0.6921(8) 0.8160(7) 0.1487(3)
C8_2 C 0.7741(8) 0.8171(10) 0.2338(3)
C9_2 C 0.7616(9) 0.7448(6) 0.4966(3)
H2_2 H 0.7072 0.7352 0.4940
H3_2 H 0.7761 0.7868 0.4797
H4_2 H 0.7732 0.7578 0.5234
C10_2 C 0.6040(6) 0.9644(6) 0.2105(2)
H6_2 H 0.6405 0.9700 0.2316
H7_2 H 0.5566 0.9436 0.2207
C11_2 C 0.8057(7) 0.6736(5) 0.4850(3)
C14_2 C 0.8169(7) 0.6412(6) 0.4490(2)
C15_2 C 0.7551(6) 0.7302(7) 0.3362(3)
C16_2 C 0.7936(7) 0.7855(9) 0.2740(3)
C17_2 C 0.7178(7) 0.6752(7) 0.4019(3)
C20_2 C 0.5998(7) 0.7342(8) 0.3124(3)
H11_2 H 0.5484 0.7350 0.3046
C21_2 C 0.6194(7) 0.7081(8) 0.3505(3)
H12_2 H 0.5809 0.6933 0.3680
C22_2 C 0.6968(7) 0.7044(7) 0.3619(3)
C24_2 C 0.8544(7) 0.6945(8) 0.3865(3)
C25_2 C 0.8331(7) 0.7298(9) 0.3476(3)
C26_2 C 0.8700(9) 0.7828(13) 0.2853(5)
H13_2 H 0.9087 0.7986 0.2681
C27_2 C 0.7364(11) 0.7450(10) 0.1372(4)
H14_2 H 0.7186 0.7270 0.1121
H15_2 H 0.7285 0.7055 0.1566
H16_2 H 0.7904 0.7571 0.1356
C30_2 C 0.6753(7) 0.8444(7) 0.1854(2)
C31_2 C 0.7348(6) 0.7573(7) 0.2980(3)
C32_2 C 0.6357(7) 0.7838(7) 0.2466(3)
C33_2 C 0.6562(6) 0.7585(6) 0.2869(2)
C34_2 C 0.8887(8) 0.7559(11) 0.3235(4)
H21_2 H 0.9398 0.7562 0.3319
C36_2 C 0.8890(10) 0.5163(7) 0.4256(3)
H23_2 H 0.9274 0.5408 0.4095
H24_2 H 0.8477 0.4980 0.4093
H25_2 H 0.9119 0.4736 0.4394
H37_2 H 0.4058 0.9861 0.1989
N10_2 N 0.4015(4) 0.0507(6) 0.45055(19)
N11_3 N 0.4028(4) 0.0547(5) 0.40958(19)
N12_3 N 0.2014(3) 0.0222(5) 0.4277(2)
O9_3 O 0.1872(4) 0.1505(4) 0.4176(3)
C37_3 C 0.3286(5) 0.0364(7) 0.4622(3)
C38_3 C 0.0408(4) 0.0045(6) 0.4280(3)
C39_3 C 0.1572(4) 0.0892(6) 0.4234(3)
C41_3 C 0.2833(4) 0.0321(6) 0.4287(3)
C42_3 C 0.0715(4) 0.0804(6) 0.4263(3)
C43_3 C 0.3125(6) 0.0460(8) 0.3531(3)
H27_3 H 0.2672 0.0768 0.3487
H28_3 H 0.3551 0.0678 0.3389
C45_3 C 0.3309(5) 0.0446(6) 0.3961(3)
C46_3 C 0.0249(5) 0.1422(6) 0.4272(5)
H29_3 H 0.0464 0.1914 0.4272
C47_2 C 0.3061(6) 0.0276(8) 0.5037(3)
H30_2 H 0.3427 0.0538 0.5202
H31_2 H 0.2557 0.0494 0.5076
H48_3 H 0.0020 0.3477 0.0907
H49_3 H 0.0264 0.4119 0.0606
Cu7_3 Cu 0.49243(7) 0.08513(9) 0.38479(3)
Cu11_2 Cu 0.48782(7) 0.08297(11) 0.47800(3)
Cu12_2 Cu 0.01218(7) 0.41703(11) 0.97800(3)
O8_3 O 0.2151(3) 0.8917(5) 0.4338(4)
C40_3 C 0.1732(4) 0.9466(6) 0.4300(4)
H26_3 H 0.3033 0.9944 0.3440
C44_3 C 0.0872(4) 0.9375(6) 0.4285(3)
H32_2 H 0.3051 0.9738 0.5104
C48_3 C 0.0557(5) 0.8656(7) 0.4282(5)
H33_3 H 0.0872 0.8221 0.4287
Cu8_2 Cu 0.36418(7) 0.84161(9) 0.43289(4)
O3_3 O 0.7849(3) 0.1083(5) 0.4338(4)
C7_3 C 0.8268(4) 0.0534(6) 0.4300(4)
H8_3 H 0.6967 0.0056 0.3440
C19_3 C 0.9128(4) 0.0625(6) 0.4285(3)
H20_2 H 0.6949 0.0262 0.5104
C35_3 C 0.9443(5) 0.1344(7) 0.4282(5)
H22_3 H 0.9128 0.1779 0.4287
Cu5_2 Cu 0.63582(7) 0.15839(9) 0.43289(4)
N13_3 N 0.5755(5) 0.1269(5) 0.35833(18)
N14_3 N 0.6355(5) 0.1604(6) 0.3777(2)
N15_2 N 0.9333(5) 0.3709(6) 0.0066(2)
N17_3 N 0.8291(5) 0.2957(6) 0.0893(2)
O10_3 O 0.7188(5) 0.0708(5) 0.26579(19)
O11_3 O 0.8111(6) 0.4214(5) 0.1037(2)
O12_3 O 0.8450(6) 0.1687(6) 0.0749(2)
C49_3 C 0.5881(6) 0.1355(6) 0.3194(2)
N18_3 N 0.6888(6) 0.1956(6) 0.2772(2)
O13_3 O 0.6562(10) 0.3223(6) 0.2879(3)
C50_3 C 0.9267(6) 0.3582(8) 0.0452(2)
C51_3 C 0.6840(7) 0.1921(8) 0.3513(3)
C52_3 C 0.6829(10) 0.2741(8) 0.2662(3)
C53_3 C 0.7552(6) 0.2616(9) 0.0034(3)
H34_3 H 0.7648 0.2072 0.0060
H35_3 H 0.7132 0.2761 0.0203
C54_3 C 0.5356(6) 0.1040(6) 0.2895(2)
H37_3 H 0.4861 0.0942 0.3011
H38_3 H 0.5300 0.1405 0.2684
H39_3 H 0.5564 0.0566 0.2793
C55_3 C 0.8264(5) 0.3057(7) 0.0150(3)
C56_3 C 0.8588(6) 0.3169(7) 0.0510(2)
C57_3 C 0.7698(7) 0.2551(6) 0.1638(3)
C58_3 C 0.7145(9) 0.2936(7) 0.2260(3)
C59_3 C 0.8248(7) 0.2178(7) 0.0981(3)
C60_3 C 0.7658(8) 0.0998(7) 0.1876(3)
H40_3 H 0.7650 0.0484 0.1954
C61_3 C 0.7919(8) 0.1194(7) 0.1495(3)
H41_3 H 0.8067 0.0809 0.1320
C62_3 C 0.7956(7) 0.1968(7) 0.1381(3)
C63_3 C 0.8055(8) 0.3544(7) 0.1135(3)
C64_3 C 0.7702(9) 0.3331(7) 0.1524(3)
C65_3 C 0.7172(13) 0.3700(9) 0.2147(5)
H42_3 H 0.7014 0.4087 0.2319
C66_3 C 0.7550(10) 0.2364(11) 0.3628(4)
H43_3 H 0.7730 0.2186 0.3879
H44_3 H 0.7945 0.2285 0.3434
H45_3 H 0.7429 0.2904 0.3644
C67_3 C 0.6556(7) 0.1753(7) 0.3146(2)
C68_3 C 0.7427(7) 0.2348(6) 0.2020(3)
C69_3 C 0.7162(7) 0.1357(7) 0.2534(3)
C70_3 C 0.7415(6) 0.1562(6) 0.2131(2)
C71_3 C 0.7441(11) 0.3887(8) 0.1765(4)
H46_3 H 0.7438 0.4398 0.1681
C72_3 C 0.9837(7) 0.3890(10) 0.0744(3)
H47_3 H 0.9592 0.4274 0.0905
N22_2 N 0.6278(5) 0.1623(6) 0.4876(2)
N16_2 N 0.8722(5) 0.3377(6) 0.9876(2)
H36_3 H 0.7422 0.2732 0.9766
Cu9_2 Cu 0.86418(7) 0.34161(9) 0.93289(4)
Cu1_3 Cu 0.50757(7) 0.91487(9) 0.38479(3)
Cu3_2 Cu 0.51218(7) 0.91703(11) 0.47800(3)
N1_3 N 0.4245(5) 0.8731(5) 0.35833(18)
N2_3 N 0.3645(5) 0.8396(6) 0.3777(2)
N3_2 N 0.0667(5) 0.6291(6) 0.0066(2)
N4_2 N 0.5985(4) 0.9493(6) 0.45055(19)
N5_3 N 0.5972(4) 0.9453(5) 0.40958(19)
N7_3 N 0.1709(5) 0.7043(6) 0.0893(2)
O2_3 O 0.2812(5) 0.9292(5) 0.26579(19)
N8_3 N 0.7986(3) 0.9778(5) 0.4277(2)
O4_3 O 0.8128(4) 0.8495(4) 0.4176(3)
O5_3 O 0.1889(6) 0.5786(5) 0.1037(2)
O6_3 O 0.1550(6) 0.8313(6) 0.0749(2)
C1_3 C 0.6714(5) 0.9636(7) 0.4622(3)
C2_3 C 0.9592(4) 0.9955(6) 0.4280(3)
C3_3 C 0.4119(6) 0.8645(6) 0.3194(2)
N9_3 N 0.3112(6) 0.8044(6) 0.2772(2)
O7_3 O 0.3438(10) 0.6777(6) 0.2879(3)
C4_3 C 0.0733(6) 0.6418(8) 0.0452(2)
C5_3 C 0.8428(4) 0.9108(6) 0.4234(3)
C6_3 C 0.3160(7) 0.8079(8) 0.3513(3)
C8_3 C 0.3171(10) 0.7259(8) 0.2662(3)
C9_3 C 0.2448(6) 0.7384(9) 0.0034(3)
H2_3 H 0.2352 0.7928 0.0060
H3_3 H 0.2868 0.7239 0.0203
C10_3 C 0.4644(6) 0.8960(6) 0.2895(2)
H5_3 H 0.5139 0.9058 0.3011
H6_3 H 0.4700 0.8595 0.2684
H7_3 H 0.4436 0.9434 0.2793
C11_3 C 0.1736(5) 0.6943(7) 0.0150(3)
C12_3 C 0.7167(4) 0.9679(6) 0.4287(3)
C13_3 C 0.9285(4) 0.9196(6) 0.4263(3)
C14_3 C 0.1412(6) 0.6831(7) 0.0510(2)
C15_3 C 0.2302(7) 0.7449(6) 0.1638(3)
C16_3 C 0.2855(9) 0.7064(7) 0.2260(3)
C17_3 C 0.1752(7) 0.7822(7) 0.0981(3)
C18_3 C 0.6875(6) 0.9540(8) 0.3531(3)
H9_3 H 0.7328 0.9232 0.3487
H10_3 H 0.6449 0.9322 0.3389
C20_3 C 0.2342(8) 0.9002(7) 0.1876(3)
H11_3 H 0.2350 0.9516 0.1954
C21_3 C 0.2081(8) 0.8806(7) 0.1495(3)
H12_3 H 0.1933 0.9191 0.1320
C22_3 C 0.2044(7) 0.8032(7) 0.1381(3)
C23_3 C 0.6691(5) 0.9554(6) 0.3961(3)
C24_3 C 0.1945(8) 0.6456(7) 0.1135(3)
C25_3 C 0.2298(9) 0.6669(7) 0.1524(3)
C26_3 C 0.2828(13) 0.6300(9) 0.2147(5)
H13_3 H 0.2986 0.5913 0.2319
C27_3 C 0.2450(10) 0.7636(11) 0.3628(4)
H14_3 H 0.2270 0.7814 0.3879
H15_3 H 0.2055 0.7715 0.3434
H16_3 H 0.2571 0.7096 0.3644
C28_3 C 0.9751(5) 0.8578(6) 0.4272(5)
H17_3 H 0.9536 0.8086 0.4272
C29_2 C 0.6939(6) 0.9724(8) 0.5037(3)
H18_2 H 0.6573 0.9462 0.5202
H19_2 H 0.7443 0.9506 0.5076
C30_3 C 0.3444(7) 0.8247(7) 0.3146(2)
C31_3 C 0.2573(7) 0.7652(6) 0.2020(3)
C32_3 C 0.2838(7) 0.8643(7) 0.2534(3)
C33_3 C 0.2585(6) 0.8438(6) 0.2131(2)
C34_3 C 0.2559(11) 0.6113(8) 0.1765(4)
H21_3 H 0.2562 0.5602 0.1681
C36_3 C 0.0163(7) 0.6110(10) 0.0744(3)
H23_3 H 0.0408 0.5726 0.0905
N19_3 N 0.4333(5) 0.8709(6) 0.5066(2)
N23_2 N 0.3722(5) 0.8377(6) 0.4876(2)
N6_2 N 0.1278(5) 0.6623(6) 0.9876(2)
H4_3 H 0.2578 0.7268 0.9766
Cu10_2 Cu 0.13582(7) 0.65839(9) 0.93289(4)
H24_3 H 0.9980 0.6523 0.0907
H25_3 H 0.9736 0.5881 0.0606
Cu6_2 Cu 0.98782(7) 0.58297(11) 0.97800(3)
N20_3 N 0.9015(4) 0.5507(6) 0.95055(19)
N20_4 N 0.0985(4) 0.4493(6) 0.95055(19)
N19_4 N 0.5667(5) 0.1291(6) 0.5066(2)
Cu1_4 Cu 0.00757(7) 0.41487(9) 0.88479(3)
N5_4 N 0.0972(4) 0.4453(5) 0.90958(19)
O3_4 O 0.2849(3) 0.6083(5) 0.9338(4)
N8_4 N 0.2986(3) 0.4778(5) 0.9277(2)
O4_4 O 0.3128(4) 0.3495(4) 0.9176(3)
C1_4 C 0.1714(5) 0.4636(7) 0.9622(3)
C2_4 C 0.4592(4) 0.4955(6) 0.9280(3)
C5_4 C 0.3428(4) 0.4108(6) 0.9234(3)
C7_4 C 0.3268(4) 0.5534(6) 0.9300(4)
H5_4 H 0.0139 0.4058 0.8011
C12_4 C 0.2167(4) 0.4679(6) 0.9287(3)
C13_4 C 0.4285(4) 0.4196(6) 0.9263(3)
C18_4 C 0.1875(6) 0.4540(8) 0.8531(3)
H8_4 H 0.1967 0.5056 0.8440
H9_4 H 0.2328 0.4232 0.8487
H10_4 H 0.1449 0.4322 0.8389
C19_4 C 0.4128(4) 0.5625(6) 0.9285(3)
C23_4 C 0.1691(5) 0.4554(6) 0.8961(3)
C28_4 C 0.4751(5) 0.3578(6) 0.9272(5)
H17_4 H 0.4536 0.3086 0.9272
C35_4 C 0.4443(5) 0.6344(7) 0.9282(5)
H22_4 H 0.4128 0.6779 0.9287
N11_4 N 0.9028(4) 0.5547(5) 0.90958(19)
O8_4 O 0.7151(3) 0.3917(5) 0.9338(4)
N12_4 N 0.7014(3) 0.5222(5) 0.9277(2)
O9_4 O 0.6872(4) 0.6505(4) 0.9176(3)
C37_4 C 0.8286(5) 0.5364(7) 0.9622(3)
C38_4 C 0.5408(4) 0.5045(6) 0.9280(3)
C39_4 C 0.6572(4) 0.5892(6) 0.9234(3)
C40_4 C 0.6732(4) 0.4466(6) 0.9300(4)
C41_4 C 0.7833(4) 0.5321(6) 0.9287(3)
C42_4 C 0.5715(4) 0.5804(6) 0.9263(3)
C43_4 C 0.8125(6) 0.5460(8) 0.8531(3)
H26_4 H 0.8033 0.4944 0.8440
H27_4 H 0.7672 0.5768 0.8487
H28_4 H 0.8551 0.5678 0.8389
C44_4 C 0.5872(4) 0.4375(6) 0.9285(3)
C45_4 C 0.8309(5) 0.5446(6) 0.8961(3)
C46_4 C 0.5249(5) 0.6422(6) 0.9272(5)
H29_4 H 0.5464 0.6914 0.9272
C48_4 C 0.5557(5) 0.3656(7) 0.9282(5)
H33_4 H 0.5872 0.3221 0.9287
N13_4 N 0.0755(5) 0.6269(5) 0.85833(18)
N14_4 N 0.1355(5) 0.6604(6) 0.8777(2)
N17_4 N 0.3291(5) 0.7957(6) 0.5893(2)
O10_4 O 0.2188(5) 0.5708(5) 0.76579(19)
O11_4 O 0.3111(6) 0.9214(5) 0.6037(2)
O12_4 O 0.3450(6) 0.6687(6) 0.5749(2)
C49_4 C 0.0881(6) 0.6355(6) 0.8194(2)
N18_4 N 0.1888(6) 0.6956(6) 0.7772(2)
O13_4 O 0.1562(10) 0.8223(6) 0.7879(3)
C50_4 C 0.4267(6) 0.8582(8) 0.5452(2)
C51_4 C 0.1840(7) 0.6921(8) 0.8513(3)
C52_4 C 0.1829(10) 0.7741(8) 0.7662(3)
C53_4 C 0.2552(6) 0.7616(9) 0.5034(3)
H34_4 H 0.2648 0.7072 0.5060
H35_4 H 0.2132 0.7761 0.5203
H36_4 H 0.2422 0.7732 0.4766
C54_4 C 0.0356(6) 0.6040(6) 0.7895(2)
H38_4 H 0.0300 0.6405 0.7684
H39_4 H 0.0564 0.5566 0.7793
C55_4 C 0.3264(5) 0.8057(7) 0.5150(3)
C56_4 C 0.3588(6) 0.8169(7) 0.5510(2)
C57_4 C 0.2698(7) 0.7551(6) 0.6638(3)
C58_4 C 0.2145(9) 0.7936(7) 0.7260(3)
C59_4 C 0.3248(7) 0.7178(7) 0.5981(3)
C60_4 C 0.2658(8) 0.5998(7) 0.6876(3)
H40_4 H 0.2650 0.5484 0.6954
C61_4 C 0.2919(8) 0.6194(7) 0.6495(3)
H41_4 H 0.3067 0.5809 0.6320
C62_4 C 0.2956(7) 0.6968(7) 0.6381(3)
C63_4 C 0.3055(8) 0.8544(7) 0.6135(3)
C64_4 C 0.2702(9) 0.8331(7) 0.6524(3)
C65_4 C 0.2172(13) 0.8700(9) 0.7147(5)
H42_4 H 0.2014 0.9087 0.7319
C66_4 C 0.2550(10) 0.7364(11) 0.8628(4)
H43_4 H 0.2730 0.7186 0.8879
H44_4 H 0.2945 0.7285 0.8434
H45_4 H 0.2429 0.7904 0.8644
C67_4 C 0.1556(7) 0.6753(7) 0.8146(2)
C68_4 C 0.2427(7) 0.7348(6) 0.7020(3)
C69_4 C 0.2162(7) 0.6357(7) 0.7534(3)
C70_4 C 0.2415(6) 0.6562(6) 0.7131(2)
C71_4 C 0.2441(11) 0.8887(8) 0.6765(4)
H46_4 H 0.2438 0.9398 0.6681
C72_4 C 0.4837(7) 0.8890(10) 0.5744(3)
H47_4 H 0.4592 0.9274 0.5905
H48_4 H 0.5020 0.8477 0.5907
H49_4 H 0.5264 0.9119 0.5606
Cu7_4 Cu 0.99243(7) 0.58513(9) 0.88479(3)
N1_4 N 0.9245(5) 0.3731(5) 0.85833(18)
N2_4 N 0.8645(5) 0.3396(6) 0.8777(2)
N7_4 N 0.6709(5) 0.2043(6) 0.5893(2)
O2_4 O 0.7812(5) 0.4292(5) 0.76579(19)
O5_4 O 0.6889(6) 0.0786(5) 0.6037(2)
O6_4 O 0.6550(6) 0.3313(6) 0.5749(2)
C3_4 C 0.9119(6) 0.3645(6) 0.8194(2)
N9_4 N 0.8112(6) 0.3044(6) 0.7772(2)
O7_4 O 0.8438(10) 0.1777(6) 0.7879(3)
C4_4 C 0.5733(6) 0.1418(8) 0.5452(2)
C6_4 C 0.8160(7) 0.3079(8) 0.8513(3)
C8_4 C 0.8171(10) 0.2259(8) 0.7662(3)
C9_4 C 0.7448(6) 0.2384(9) 0.5034(3)
H2_4 H 0.7352 0.2928 0.5060
H3_4 H 0.7868 0.2239 0.5203
H4_4 H 0.7578 0.2268 0.4766
C10_4 C 0.9644(6) 0.3960(6) 0.7895(2)
H6_4 H 0.9700 0.3595 0.7684
H7_4 H 0.9436 0.4434 0.7793
C11_4 C 0.6736(5) 0.1943(7) 0.5150(3)
C14_4 C 0.6412(6) 0.1831(7) 0.5510(2)
C15_4 C 0.7302(7) 0.2449(6) 0.6638(3)
C16_4 C 0.7855(9) 0.2064(7) 0.7260(3)
C17_4 C 0.6752(7) 0.2822(7) 0.5981(3)
C20_4 C 0.7342(8) 0.4002(7) 0.6876(3)
H11_4 H 0.7350 0.4516 0.6954
C21_4 C 0.7081(8) 0.3806(7) 0.6495(3)
H12_4 H 0.6933 0.4191 0.6320
C22_4 C 0.7044(7) 0.3032(7) 0.6381(3)
C24_4 C 0.6945(8) 0.1456(7) 0.6135(3)
C25_4 C 0.7298(9) 0.1669(7) 0.6524(3)
C26_4 C 0.7828(13) 0.1300(9) 0.7147(5)
H13_4 H 0.7986 0.0913 0.7319
C27_4 C 0.7450(10) 0.2636(11) 0.8628(4)
H14_4 H 0.7270 0.2814 0.8879
H15_4 H 0.7055 0.2715 0.8434
H16_4 H 0.7571 0.2096 0.8644
C30_4 C 0.8444(7) 0.3247(7) 0.8146(2)
C31_4 C 0.7573(7) 0.2652(6) 0.7020(3)
C32_4 C 0.7838(7) 0.3643(7) 0.7534(3)
C33_4 C 0.7585(6) 0.3438(6) 0.7131(2)
C34_4 C 0.7559(11) 0.1113(8) 0.6765(4)
H21_4 H 0.7562 0.0602 0.6681
C36_4 C 0.5163(7) 0.1110(10) 0.5744(3)
H23_4 H 0.5408 0.0726 0.5905
H24_4 H 0.4980 0.1523 0.5907
H25_4 H 0.4736 0.0881 0.5606
H37_4 H 0.9861 0.5942 0.8011
C29_3 C 0.5276(8) 0.1939(6) 0.9963(3)
H18_3 H 0.5538 0.1573 0.9798
H19_3 H 0.5494 0.2443 0.9924
H20_3 H 0.4738 0.1949 0.9896
C47_3 C 0.4724(8) 0.8061(6) 0.9963(3)
H30_3 H 0.4462 0.8427 0.9798
H31_3 H 0.4506 0.7557 0.9924
H32_3 H 0.5262 0.8051 0.9896
C29_4 C 0.1939(6) 0.4724(8) 0.0037(3)
H18_4 H 0.1573 0.4462 0.0202
H19_4 H 0.2443 0.4506 0.0076
H20_4 H 0.1949 0.5262 0.0104
C47_4 C 0.8061(6) 0.5276(8) 0.0037(3)
H30_4 H 0.8427 0.5538 0.0202
H31_4 H 0.7557 0.5494 0.0076
H32_4 H 0.8051 0.4738 0.0104
loop_
_geom_bond_atom_site_label_1
_geom_bond_atom_site_label_2
_geom_bond_site_symmetry_1
_geom_bond_site_symmetry_2
O1 H1 1_555 1_555
O1_2 H1_2 1_555 1_555
O1_3 H1_3 1_555 1_555
O1_4 H1_4 1_555 1_555
O8 C40 1_555 1_555
H33 C48 1_555 1_555
Cu8 O8 1_555 1_555
C40 C44 1_555 1_555
C44 C48 1_555 1_555
Cu10 N6 1_555 1_555
Cu1 N1 1_555 1_555
Cu8 N2 1_555 1_555
Cu3 N4 1_555 1_555
N1 N2 1_555 1_555
N2 C6 1_555 1_555
N4 N5 1_555 1_555
N5 Cu1 1_555 1_555
N7 C14 1_555 1_555
O2 C32 1_555 1_555
N8 C5 1_555 1_555
O4 C5 1_555 1_555
O5 C24 1_555 1_555
O6 C17 1_555 1_555
C1 N4 1_555 1_555
C2 C13 1_555 1_555
C3 N1 1_555 1_555
N9 C8 1_555 1_555
O7 C8 1_555 1_555
C4 N3 1_555 1_555
C5 C13 1_555 1_555
C6 C27 1_555 1_555
C8 C16 1_555 1_555
C9 H2 1_555 1_555
H3 C9 1_555 1_555
C10 C3 1_555 1_555
H5 C10 1_555 1_555
H6 C10 1_555 1_555
H7 C10 1_555 1_555
C11 C9 1_555 1_555
C12 N8 1_555 1_555
C13 C28 1_555 1_555
C14 C4 1_555 1_555
C15 C22 1_555 1_555
C16 C26 1_555 1_555
C17 N7 1_555 1_555
H9 C18 1_555 1_555
H10 C18 1_555 1_555
C20 H11 1_555 1_555
C21 C20 1_555 1_555
H12 C21 1_555 1_555
C22 C17 1_555 1_555
C23 N5 1_555 1_555
C24 N7 1_555 1_555
C25 C15 1_555 1_555
C26 H13 1_555 1_555
C27 H14 1_555 1_555
H15 C27 1_555 1_555
H16 C27 1_555 1_555
C28 H17 1_555 1_555
C29 C1 1_555 1_555
H18 C29 1_555 1_555
H19 C29 1_555 1_555
C30 C3 1_555 1_555
C31 C15 1_555 1_555
C32 N9 1_555 1_555
C33 C20 1_555 1_555
C34 C25 1_555 1_555
H21 C34 1_555 1_555
C36 C4 1_555 1_555
H23 C36 1_555 1_555
N19 Cu3 1_555 1_555
N23 Cu8 1_555 1_555
C1 C12 1_555 1_555
N9 C30 1_555 1_555
C6 C30 1_555 1_555
C11 C14 1_555 1_555
C12 C23 1_555 1_555
C16 C31 1_555 1_555
C18 C23 1_555 1_555
C21 C22 1_555 1_555
C24 C25 1_555 1_555
C26 C34 1_555 1_555
C31 C33 1_555 1_555
C32 C33 1_555 1_555
N19 N23 1_555 1_555
N20 Cu6 1_555 1_555
N10 N11 1_555 1_555
N11 C45 1_555 1_555
N12 C39 1_555 1_555
O9 C39 1_555 1_555
C37 N10 1_555 1_555
C39 C42 1_555 1_555
C41 N12 1_555 1_555
C42 C38 1_555 1_555
H27 C43 1_555 1_555
H28 C43 1_555 1_555
C45 C41 1_555 1_555
H29 C46 1_555 1_555
C47 C37 1_555 1_555
H30 C47 1_555 1_555
H31 C47 1_555 1_555
Cu7 N11 1_555 1_555
Cu11 N10 1_555 1_555
C37 C41 1_555 1_555
C42 C46 1_555 1_555
C43 C45 1_555 1_555
Cu9 N16 1_555 1_555
O3 C7 1_555 1_555
C35 C19 1_555 1_555
H22 C35 1_555 1_555
Cu7 N13 1_555 1_555
Cu5 O3 1_555 1_555
N13 N14 1_555 1_555
N14 Cu5 1_555 1_555
N17 C56 1_555 1_555
O10 C69 1_555 1_555
O11 C63 1_555 1_555
O12 C59 1_555 1_555
C49 N13 1_555 1_555
N18 C52 1_555 1_555
O13 C52 1_555 1_555
C50 N15 1_555 1_555
C51 N14 1_555 1_555
C52 C58 1_555 1_555
C53 H34 1_555 1_555
H35 C53 1_555 1_555
C54 C49 1_555 1_555
H37 C54 1_555 1_555
H38 C54 1_555 1_555
H39 C54 1_555 1_555
C55 C53 1_555 1_555
C56 C50 1_555 1_555
C57 C62 1_555 1_555
C58 C65 1_555 1_555
C59 N17 1_555 1_555
C60 H40 1_555 1_555
C61 C60 1_555 1_555
H41 C61 1_555 1_555
C62 C59 1_555 1_555
C63 N17 1_555 1_555
C64 C57 1_555 1_555
C65 H42 1_555 1_555
C66 C51 1_555 1_555
H43 C66 1_555 1_555
H44 C66 1_555 1_555
H45 C66 1_555 1_555
C67 C49 1_555 1_555
C68 C57 1_555 1_555
C69 N18 1_555 1_555
C70 C60 1_555 1_555
C71 C64 1_555 1_555
H46 C71 1_555 1_555
C72 C50 1_555 1_555
H47 C72 1_555 1_555
N22 Cu5 1_555 1_555
C7 C19 1_555 1_555
N18 C67 1_555 1_555
C51 C67 1_555 1_555
C55 C56 1_555 1_555
C58 C68 1_555 1_555
C61 C62 1_555 1_555
C63 C64 1_555 1_555
C65 C71 1_555 1_555
C68 C70 1_555 1_555
C69 C70 1_555 1_555
N20_2 Cu12 1_555 1_555
N19_2 Cu11 1_555 1_555
N19_2 N22 1_555 1_555
N20_2 N5_2 1_555 1_555
N5_2 Cu1_2 1_555 1_555
O3_2 C7_2 1_555 1_555
N8_2 C5_2 1_555 1_555
O4_2 C5_2 1_555 1_555
C1_2 N20_2 1_555 1_555
C2_2 C13_2 1_555 1_555
C5_2 C13_2 1_555 1_555
C7_2 N8_2 1_555 1_555
C12_2 N8_2 1_555 1_555
C13_2 C28_2 1_555 1_555
C18_2 H8_2 1_555 1_555
H9_2 C18_2 1_555 1_555
H10_2 C18_2 1_555 1_555
C19_2 C2_2 1_555 1_555
C23_2 N5_2 1_555 1_555
C28_2 H17_2 1_555 1_555
C35_2 C19_2 1_555 1_555
H22_2 C35_2 1_555 1_555
N20 N11_2 1_555 1_555
N11_2 C45_2 1_555 1_555
O8_2 C40_2 1_555 1_555
N12_2 C39_2 1_555 1_555
O9_2 C39_2 1_555 1_555
C37_2 N20 1_555 1_555
C38_2 C2_2 1_555 1_555
C39_2 C42_2 1_555 1_555
C40_2 N12_2 1_555 1_555
C41_2 N12_2 1_555 1_555
C42_2 C38_2 1_555 1_555
C43_2 H26_2 1_555 1_555
H27_2 C43_2 1_555 1_555
H28_2 C43_2 1_555 1_555
C44_2 C38_2 1_555 1_555
C45_2 C41_2 1_555 1_555
C46_2 C35_2 1_555 1_555
H29_2 C46_2 1_555 1_555
C48_2 C28_2 1_555 1_555
H33_2 C48_2 1_555 1_555
Cu10 O3_2 1_555 1_555
N13_2 N14_2 1_555 1_555
N14_2 Cu10 1_555 1_555
N23 C55_2 1_555 1_555
N17_2 C56_2 1_555 1_555
O10_2 C69_2 1_555 1_555
O11_2 C63_2 1_555 1_555
O12_2 C59_2 1_555 1_555
C49_2 N13_2 1_555 1_555
N18_2 C52_2 1_555 1_555
O13_2 C52_2 1_555 1_555
C50_2 N19 1_555 1_555
C51_2 N14_2 1_555 1_555
C52_2 C58_2 1_555 1_555
C53_2 H34_2 1_555 1_555
H35_2 C53_2 1_555 1_555
H36_2 C53_2 1_555 1_555
C54_2 C49_2 1_555 1_555
H38_2 C54_2 1_555 1_555
H39_2 C54_2 1_555 1_555
C55_2 C53_2 1_555 1_555
C56_2 C50_2 1_555 1_555
C57_2 C62_2 1_555 1_555
C58_2 C65_2 1_555 1_555
C59_2 N17_2 1_555 1_555
C60_2 H40_2 1_555 1_555
C61_2 C60_2 1_555 1_555
H41_2 C61_2 1_555 1_555
C62_2 C59_2 1_555 1_555
C63_2 N17_2 1_555 1_555
C64_2 C57_2 1_555 1_555
C65_2 H42_2 1_555 1_555
C66_2 C51_2 1_555 1_555
H43_2 C66_2 1_555 1_555
H44_2 C66_2 1_555 1_555
H45_2 C66_2 1_555 1_555
C67_2 C49_2 1_555 1_555
C68_2 C57_2 1_555 1_555
C69_2 N18_2 1_555 1_555
C70_2 C60_2 1_555 1_555
C71_2 C64_2 1_555 1_555
H46_2 C71_2 1_555 1_555
C72_2 C50_2 1_555 1_555
H47_2 C72_2 1_555 1_555
H48_2 C72_2 1_555 1_555
H49_2 C72_2 1_555 1_555
Cu7_2 N11_2 1_555 1_555
Cu9 O8_2 1_555 1_555
C1_2 C12_2 1_555 1_555
C7_2 C19_2 1_555 1_555
C12_2 C23_2 1_555 1_555
C18_2 C23_2 1_555 1_555
C37_2 C41_2 1_555 1_555
C40_2 C44_2 1_555 1_555
C42_2 C46_2 1_555 1_555
C43_2 C45_2 1_555 1_555
C44_2 C48_2 1_555 1_555
N18_2 C67_2 1_555 1_555
C51_2 C67_2 1_555 1_555
C55_2 C56_2 1_555 1_555
C58_2 C68_2 1_555 1_555
C61_2 C62_2 1_555 1_555
C63_2 C64_2 1_555 1_555
C65_2 C71_2 1_555 1_555
C68_2 C70_2 1_555 1_555
C69_2 C70_2 1_555 1_555
Cu9 N2_2 1_555 1_555
N1_2 N2_2 1_555 1_555
N2_2 C6_2 1_555 1_555
N22 C11_2 1_555 1_555
N7_2 C14_2 1_555 1_555
O2_2 C32_2 1_555 1_555
O5_2 C24_2 1_555 1_555
O6_2 C17_2 1_555 1_555
C3_2 N1_2 1_555 1_555
N9_2 C8_2 1_555 1_555
O7_2 C8_2 1_555 1_555
C4_2 N19_2 1_555 1_555
C6_2 C27_2 1_555 1_555
C8_2 C16_2 1_555 1_555
C9_2 H2_2 1_555 1_555
H3_2 C9_2 1_555 1_555
H4_2 C9_2 1_555 1_555
C10_2 C3_2 1_555 1_555
H6_2 C10_2 1_555 1_555
H7_2 C10_2 1_555 1_555
C11_2 C9_2 1_555 1_555
C14_2 C4_2 1_555 1_555
C15_2 C22_2 1_555 1_555
C16_2 C26_2 1_555 1_555
C17_2 N7_2 1_555 1_555
C20_2 H11_2 1_555 1_555
C21_2 C20_2 1_555 1_555
H12_2 C21_2 1_555 1_555
C22_2 C17_2 1_555 1_555
C24_2 N7_2 1_555 1_555
C25_2 C15_2 1_555 1_555
C26_2 H13_2 1_555 1_555
C27_2 H14_2 1_555 1_555
H15_2 C27_2 1_555 1_555
H16_2 C27_2 1_555 1_555
C30_2 C3_2 1_555 1_555
C31_2 C15_2 1_555 1_555
C32_2 N9_2 1_555 1_555
C33_2 C20_2 1_555 1_555
C34_2 C25_2 1_555 1_555
H21_2 C34_2 1_555 1_555
C36_2 C4_2 1_555 1_555
H23_2 C36_2 1_555 1_555
H24_2 C36_2 1_555 1_555
H25_2 C36_2 1_555 1_555
N9_2 C30_2 1_555 1_555
C6_2 C30_2 1_555 1_555
C11_2 C14_2 1_555 1_555
C16_2 C31_2 1_555 1_555
C21_2 C22_2 1_555 1_555
C24_2 C25_2 1_555 1_555
C26_2 C34_2 1_555 1_555
C31_2 C33_2 1_555 1_555
C32_2 C33_2 1_555 1_555
N10_2 N11_3 1_555 1_555
N11_3 C45_3 1_555 1_555
N12_3 C39_3 1_555 1_555
O9_3 C39_3 1_555 1_555
C37_3 N10_2 1_555 1_555
C39_3 C42_3 1_555 1_555
C41_3 N12_3 1_555 1_555
C42_3 C38_3 1_555 1_555
H27_3 C43_3 1_555 1_555
H28_3 C43_3 1_555 1_555
C45_3 C41_3 1_555 1_555
H29_3 C46_3 1_555 1_555
C47_2 C37_3 1_555 1_555
H30_2 C47_2 1_555 1_555
H31_2 C47_2 1_555 1_555
Cu7_3 N11_3 1_555 1_555
Cu11_2 N10_2 1_555 1_555
C37_3 C41_3 1_555 1_555
C42_3 C46_3 1_555 1_555
C43_3 C45_3 1_555 1_555
O8_3 C40_3 1_555 1_555
H33_3 C48_3 1_555 1_555
Cu8_2 O8_3 1_555 1_555
C40_3 C44_3 1_555 1_555
C44_3 C48_3 1_555 1_555
O3_3 C7_3 1_555 1_555
C35_3 C19_3 1_555 1_555
H22_3 C35_3 1_555 1_555
Cu7_3 N13_3 1_555 1_555
Cu5_2 O3_3 1_555 1_555
N13_3 N14_3 1_555 1_555
N14_3 Cu5_2 1_555 1_555
N17_3 C56_3 1_555 1_555
O10_3 C69_3 1_555 1_555
O11_3 C63_3 1_555 1_555
O12_3 C59_3 1_555 1_555
C49_3 N13_3 1_555 1_555
N18_3 C52_3 1_555 1_555
O13_3 C52_3 1_555 1_555
C50_3 N15_2 1_555 1_555
C51_3 N14_3 1_555 1_555
C52_3 C58_3 1_555 1_555
C53_3 H34_3 1_555 1_555
H35_3 C53_3 1_555 1_555
C54_3 C49_3 1_555 1_555
H37_3 C54_3 1_555 1_555
H38_3 C54_3 1_555 1_555
H39_3 C54_3 1_555 1_555
C55_3 C53_3 1_555 1_555
C56_3 C50_3 1_555 1_555
C57_3 C62_3 1_555 1_555
C58_3 C65_3 1_555 1_555
C59_3 N17_3 1_555 1_555
C60_3 H40_3 1_555 1_555
C61_3 C60_3 1_555 1_555
H41_3 C61_3 1_555 1_555
C62_3 C59_3 1_555 1_555
C63_3 N17_3 1_555 1_555
C64_3 C57_3 1_555 1_555
C65_3 H42_3 1_555 1_555
C66_3 C51_3 1_555 1_555
H43_3 C66_3 1_555 1_555
H44_3 C66_3 1_555 1_555
H45_3 C66_3 1_555 1_555
C67_3 C49_3 1_555 1_555
C68_3 C57_3 1_555 1_555
C69_3 N18_3 1_555 1_555
C70_3 C60_3 1_555 1_555
C71_3 C64_3 1_555 1_555
H46_3 C71_3 1_555 1_555
C72_3 C50_3 1_555 1_555
H47_3 C72_3 1_555 1_555
N22_2 Cu5_2 1_555 1_555
C7_3 C19_3 1_555 1_555
N18_3 C67_3 1_555 1_555
C51_3 C67_3 1_555 1_555
C55_3 C56_3 1_555 1_555
C58_3 C68_3 1_555 1_555
C61_3 C62_3 1_555 1_555
C63_3 C64_3 1_555 1_555
C65_3 C71_3 1_555 1_555
C68_3 C70_3 1_555 1_555
C69_3 C70_3 1_555 1_555
Cu9_2 N16_2 1_555 1_555
Cu1_3 N1_3 1_555 1_555
Cu8_2 N2_3 1_555 1_555
Cu3_2 N4_2 1_555 1_555
N1_3 N2_3 1_555 1_555
N2_3 C6_3 1_555 1_555
N4_2 N5_3 1_555 1_555
N5_3 Cu1_3 1_555 1_555
N7_3 C14_3 1_555 1_555
O2_3 C32_3 1_555 1_555
N8_3 C5_3 1_555 1_555
O4_3 C5_3 1_555 1_555
O5_3 C24_3 1_555 1_555
O6_3 C17_3 1_555 1_555
C1_3 N4_2 1_555 1_555
C2_3 C13_3 1_555 1_555
C3_3 N1_3 1_555 1_555
N9_3 C8_3 1_555 1_555
O7_3 C8_3 1_555 1_555
C4_3 N3_2 1_555 1_555
C5_3 C13_3 1_555 1_555
C6_3 C27_3 1_555 1_555
C8_3 C16_3 1_555 1_555
C9_3 H2_3 1_555 1_555
H3_3 C9_3 1_555 1_555
C10_3 C3_3 1_555 1_555
H5_3 C10_3 1_555 1_555
H6_3 C10_3 1_555 1_555
H7_3 C10_3 1_555 1_555
C11_3 C9_3 1_555 1_555
C12_3 N8_3 1_555 1_555
C13_3 C28_3 1_555 1_555
C14_3 C4_3 1_555 1_555
C15_3 C22_3 1_555 1_555
C16_3 C26_3 1_555 1_555
C17_3 N7_3 1_555 1_555
H9_3 C18_3 1_555 1_555
H10_3 C18_3 1_555 1_555
C20_3 H11_3 1_555 1_555
C21_3 C20_3 1_555 1_555
H12_3 C21_3 1_555 1_555
C22_3 C17_3 1_555 1_555
C23_3 N5_3 1_555 1_555
C24_3 N7_3 1_555 1_555
C25_3 C15_3 1_555 1_555
C26_3 H13_3 1_555 1_555
C27_3 H14_3 1_555 1_555
H15_3 C27_3 1_555 1_555
H16_3 C27_3 1_555 1_555
C28_3 H17_3 1_555 1_555
C29_2 C1_3 1_555 1_555
H18_2 C29_2 1_555 1_555
H19_2 C29_2 1_555 1_555
C30_3 C3_3 1_555 1_555
C31_3 C15_3 1_555 1_555
C32_3 N9_3 1_555 1_555
C33_3 C20_3 1_555 1_555
C34_3 C25_3 1_555 1_555
H21_3 C34_3 1_555 1_555
C36_3 C4_3 1_555 1_555
H23_3 C36_3 1_555 1_555
N19_3 Cu3_2 1_555 1_555
N23_2 Cu8_2 1_555 1_555
C1_3 C12_3 1_555 1_555
N9_3 C30_3 1_555 1_555
C6_3 C30_3 1_555 1_555
C11_3 C14_3 1_555 1_555
C12_3 C23_3 1_555 1_555
C16_3 C31_3 1_555 1_555
C18_3 C23_3 1_555 1_555
C21_3 C22_3 1_555 1_555
C24_3 C25_3 1_555 1_555
C26_3 C34_3 1_555 1_555
C31_3 C33_3 1_555 1_555
C32_3 C33_3 1_555 1_555
N19_3 N23_2 1_555 1_555
Cu10_2 N6_2 1_555 1_555
N20_3 Cu6_2 1_555 1_555
N20_4 Cu12_2 1_555 1_555
N19_4 Cu11_2 1_555 1_555
N19_4 N22_2 1_555 1_555
N20_4 N5_4 1_555 1_555
N5_4 Cu1_4 1_555 1_555
O3_4 C7_4 1_555 1_555
N8_4 C5_4 1_555 1_555
O4_4 C5_4 1_555 1_555
C1_4 N20_4 1_555 1_555
C2_4 C13_4 1_555 1_555
C5_4 C13_4 1_555 1_555
C7_4 N8_4 1_555 1_555
C12_4 N8_4 1_555 1_555
C13_4 C28_4 1_555 1_555
C18_4 H8_4 1_555 1_555
H9_4 C18_4 1_555 1_555
H10_4 C18_4 1_555 1_555
C19_4 C2_4 1_555 1_555
C23_4 N5_4 1_555 1_555
C28_4 H17_4 1_555 1_555
C35_4 C19_4 1_555 1_555
H22_4 C35_4 1_555 1_555
N20_3 N11_4 1_555 1_555
N11_4 C45_4 1_555 1_555
O8_4 C40_4 1_555 1_555
N12_4 C39_4 1_555 1_555
O9_4 C39_4 1_555 1_555
C37_4 N20_3 1_555 1_555
C38_4 C2_4 1_555 1_555
C39_4 C42_4 1_555 1_555
C40_4 N12_4 1_555 1_555
C41_4 N12_4 1_555 1_555
C42_4 C38_4 1_555 1_555
C43_4 H26_4 1_555 1_555
H27_4 C43_4 1_555 1_555
H28_4 C43_4 1_555 1_555
C44_4 C38_4 1_555 1_555
C45_4 C41_4 1_555 1_555
C46_4 C35_4 1_555 1_555
H29_4 C46_4 1_555 1_555
C48_4 C28_4 1_555 1_555
H33_4 C48_4 1_555 1_555
Cu10_2 O3_4 1_555 1_555
N13_4 N14_4 1_555 1_555
N14_4 Cu10_2 1_555 1_555
N23_2 C55_4 1_555 1_555
N17_4 C56_4 1_555 1_555
O10_4 C69_4 1_555 1_555
O11_4 C63_4 1_555 1_555
O12_4 C59_4 1_555 1_555
C49_4 N13_4 1_555 1_555
N18_4 C52_4 1_555 1_555
O13_4 C52_4 1_555 1_555
C50_4 N19_3 1_555 1_555
C51_4 N14_4 1_555 1_555
C52_4 C58_4 1_555 1_555
C53_4 H34_4 1_555 1_555
H35_4 C53_4 1_555 1_555
H36_4 C53_4 1_555 1_555
C54_4 C49_4 1_555 1_555
H38_4 C54_4 1_555 1_555
H39_4 C54_4 1_555 1_555
C55_4 C53_4 1_555 1_555
C56_4 C50_4 1_555 1_555
C57_4 C62_4 1_555 1_555
C58_4 C65_4 1_555 1_555
C59_4 N17_4 1_555 1_555
C60_4 H40_4 1_555 1_555
C61_4 C60_4 1_555 1_555
H41_4 C61_4 1_555 1_555
C62_4 C59_4 1_555 1_555
C63_4 N17_4 1_555 1_555
C64_4 C57_4 1_555 1_555
C65_4 H42_4 1_555 1_555
C66_4 C51_4 1_555 1_555
H43_4 C66_4 1_555 1_555
H44_4 C66_4 1_555 1_555
H45_4 C66_4 1_555 1_555
C67_4 C49_4 1_555 1_555
C68_4 C57_4 1_555 1_555
C69_4 N18_4 1_555 1_555
C70_4 C60_4 1_555 1_555
C71_4 C64_4 1_555 1_555
H46_4 C71_4 1_555 1_555
C72_4 C50_4 1_555 1_555
H47_4 C72_4 1_555 1_555
H48_4 C72_4 1_555 1_555
H49_4 C72_4 1_555 1_555
Cu7_4 N11_4 1_555 1_555
Cu9_2 O8_4 1_555 1_555
C1_4 C12_4 1_555 1_555
C7_4 C19_4 1_555 1_555
C12_4 C23_4 1_555 1_555
C18_4 C23_4 1_555 1_555
C37_4 C41_4 1_555 1_555
C40_4 C44_4 1_555 1_555
C42_4 C46_4 1_555 1_555
C43_4 C45_4 1_555 1_555
C44_4 C48_4 1_555 1_555
N18_4 C67_4 1_555 1_555
C51_4 C67_4 1_555 1_555
C55_4 C56_4 1_555 1_555
C58_4 C68_4 1_555 1_555
C61_4 C62_4 1_555 1_555
C63_4 C64_4 1_555 1_555
C65_4 C71_4 1_555 1_555
C68_4 C70_4 1_555 1_555
C69_4 C70_4 1_555 1_555
Cu9_2 N2_4 1_555 1_555
N1_4 N2_4 1_555 1_555
N2_4 C6_4 1_555 1_555
N22_2 C11_4 1_555 1_555
N7_4 C14_4 1_555 1_555
O2_4 C32_4 1_555 1_555
O5_4 C24_4 1_555 1_555
O6_4 C17_4 1_555 1_555
C3_4 N1_4 1_555 1_555
N9_4 C8_4 1_555 1_555
O7_4 C8_4 1_555 1_555
C4_4 N19_4 1_555 1_555
C6_4 C27_4 1_555 1_555
C8_4 C16_4 1_555 1_555
C9_4 H2_4 1_555 1_555
H3_4 C9_4 1_555 1_555
H4_4 C9_4 1_555 1_555
C10_4 C3_4 1_555 1_555
H6_4 C10_4 1_555 1_555
H7_4 C10_4 1_555 1_555
C11_4 C9_4 1_555 1_555
C14_4 C4_4 1_555 1_555
C15_4 C22_4 1_555 1_555
C16_4 C26_4 1_555 1_555
C17_4 N7_4 1_555 1_555
C20_4 H11_4 1_555 1_555
C21_4 C20_4 1_555 1_555
H12_4 C21_4 1_555 1_555
C22_4 C17_4 1_555 1_555
C24_4 N7_4 1_555 1_555
C25_4 C15_4 1_555 1_555
C26_4 H13_4 1_555 1_555
C27_4 H14_4 1_555 1_555
H15_4 C27_4 1_555 1_555
H16_4 C27_4 1_555 1_555
C30_4 C3_4 1_555 1_555
C31_4 C15_4 1_555 1_555
C32_4 N9_4 1_555 1_555
C33_4 C20_4 1_555 1_555
C34_4 C25_4 1_555 1_555
H21_4 C34_4 1_555 1_555
C36_4 C4_4 1_555 1_555
H23_4 C36_4 1_555 1_555
H24_4 C36_4 1_555 1_555
H25_4 C36_4 1_555 1_555
N9_4 C30_4 1_555 1_555
C6_4 C30_4 1_555 1_555
C11_4 C14_4 1_555 1_555
C16_4 C31_4 1_555 1_555
C21_4 C22_4 1_555 1_555
C24_4 C25_4 1_555 1_555
C26_4 C34_4 1_555 1_555
C31_4 C33_4 1_555 1_555
C32_4 C33_4 1_555 1_555
H18_3 C29_3 1_555 1_555
H19_3 C29_3 1_555 1_555
H20_3 C29_3 1_555 1_555
H30_3 C47_3 1_555 1_555
H31_3 C47_3 1_555 1_555
H32_3 C47_3 1_555 1_555
H18_4 C29_4 1_555 1_555
H19_4 C29_4 1_555 1_555
H20_4 C29_4 1_555 1_555
H30_4 C47_4 1_555 1_555
H31_4 C47_4 1_555 1_555
H32_4 C47_4 1_555 1_555

#END
