
###############################################################################
#
# This file contains modified crystal structure data generated from the
# MOF subset of the Cambridge Structural Database (CSD) v543 
# hosted by the Cambridge Crystallographic Data Centre (CCDC).
#
# This work is licensed under the Creative Commons
# Attribution-NonCommercial-ShareAlike 4.0 International License.
# To view a copy of this license, visit
# http://creativecommons.org/licenses/by-nc-sa/4.0/
# or send a letter to
# Creative Commons, PO Box 1866, Mountain View, CA 94042, USA.
#
# CIF created using the CSD Python API on 29 September 2022
# The structure has been converted into the P1 space group
# The structure has a 3D framework
# The original CSD entry GAMTEU is in the triclinic crystal system
# The framework has been calculated to contain at least 10.0% void space
# The void calculation uses a probe of radius 1.32A, grid spacing 0.4
# H atom positions have been added when not included in the experimental data
#
###############################################################################

data_GAMTEU
_chemical_formula_moiety         '(C24 H26 Ce2 O16)n'
_symmetry_cell_setting           triclinic
_symmetry_space_group_name_H-M   'P 1'
_symmetry_Int_Tables_number      1
_space_group_name_Hall           'P 1'
loop_
_symmetry_equiv_pos_site_id
_symmetry_equiv_pos_as_xyz
1 x,y,z
_cell_length_a                   8.582(5)
_cell_length_b                   10.956(6)
_cell_length_c                   11.217(7)
_cell_angle_alpha                64.170(18)
_cell_angle_beta                 79.98(2)
_cell_angle_gamma                73.431(19)
_cell_volume                     908.369
loop_
_atom_site_label
_atom_site_type_symbol
_atom_site_fract_x
_atom_site_fract_y
_atom_site_fract_z
H7 H 0.0669 0.1433 0.1988
O7 O 0.3840(12) 0.2833(9) 0.1961(10)
O11 O 0.2174(10) 0.5844(10) 0.1775(9)
O12 O 0.4712(10) 0.5568(9) 0.0923(8)
H10 H 0.503957 0.261522 0.178461
H11 H 0.357458 0.303316 0.276518
H13 H 0.248368 0.197798 0.0761016
Ce1 Ce 0.25200(12) 0.49734(10) 0.99676(11)
O1 O 0.2459(11) 0.5525(9) 0.7506(9)
O2 O 0.0081(9) 0.5431(9) 0.8694(8)
O8 O 0.2472(11) 0.2729(8) 0.9851(9)
C1 C 0.0663(14) 0.7085(13) 0.4982(12)
C3 C 0.0670(17) 0.9340(15) 0.3184(15)
C4 C 0.1953(16) 0.8750(13) 0.2570(14)
H2 H 0.2367 0.9315 0.1726
C5 C 0.2689(14) 0.7316(13) 0.3155(14)
C6 C 0.2010(15) 0.6492(13) 0.4378(13)
H3 H 0.2483 0.5519 0.4790
C8 C 0.0836(16) 0.5746(12) 0.7540(13)
C11 C 0.4096(15) 0.6639(14) 0.2495(14)
H8 H 0.4822 0.5888 0.3181
H9 H 0.4723 0.7338 0.1909
C12 C 0.3598(16) 0.6021(13) 0.1674(14)
Ce5 Ce 0.74800(12) 0.50266(10) 0.00324(11)
O10 O 0.2216(14) 0.7435(10) 0.8841(12)
O13 O 0.5288(10) 0.4432(9) 0.9077(8)
H12 H 0.344382 0.245934 0.931352
O3 O 0.7784(14) 0.2565(10) 0.1159(12)
O4 O 0.8066(17) 0.0394(11) 0.1461(15)
C9 C 0.9841(19) 0.0918(13) 0.2543(15)
H6 H 0.9418 0.1251 0.3255
C10 C 0.842(2) 0.1257(18) 0.1677(17)
O9 O 0.9919(9) 0.4569(9) 0.1306(8)
O4_2 O 0.1934(17) 0.9606(11) 0.8539(15)
C9_2 C 0.0159(19) 0.9082(13) 0.7457(15)
H6_2 H 0.0582 0.8749 0.6745
C10_2 C 0.158(2) 0.8743(18) 0.8323(17)
O1_2 O 0.7541(11) 0.4475(9) 0.2494(9)
O5 O 0.7826(10) 0.4156(10) 0.8225(9)
O8_2 O 0.7528(11) 0.7271(8) 0.0149(9)
C1_2 C 0.9337(14) 0.2915(13) 0.5018(12)
C3_2 C 0.9330(17) 0.0660(15) 0.6816(15)
C4_2 C 0.8047(16) 0.1250(13) 0.7430(14)
H2_2 H 0.7633 0.0685 0.8274
C5_2 C 0.7311(14) 0.2684(13) 0.6845(14)
C6_2 C 0.7990(15) 0.3508(13) 0.5622(13)
H3_2 H 0.7517 0.4481 0.5210
C8_2 C 0.9164(16) 0.4254(12) 0.2460(13)
C11_2 C 0.5904(15) 0.3361(14) 0.7505(14)
H8_2 H 0.5178 0.4112 0.6819
H9_2 H 0.5277 0.2662 0.8091
C12_2 C 0.6402(16) 0.3979(13) 0.8326(14)
H12_2 H 0.655618 0.754066 0.0686481
O7_2 O 0.6160(12) 0.7167(9) 0.8039(10)
H10_2 H 0.496043 0.738478 0.821539
H11_2 H 0.642542 0.696684 0.723482
H13_2 H 0.751632 0.802202 0.923898
C2 C 0.9986(16) 0.8500(14) 0.4414(14)
H1 H 0.9070 0.8909 0.4841
C7 C 0.9938(17) 0.6193(15) 0.6316(13)
H4 H 0.8821 0.6718 0.6444
H5 H 0.9841 0.5340 0.6261
C2_2 C 0.0014(16) 0.1500(14) 0.5586(14)
H1_2 H 0.0930 0.1091 0.5159
C7_2 C 0.0062(17) 0.3807(15) 0.3684(13)
H4_2 H 0.1179 0.3282 0.3556
H5_2 H 0.0159 0.4660 0.3739
H7_2 H 0.9331 0.8567 0.8012
loop_
_geom_bond_atom_site_label_1
_geom_bond_atom_site_label_2
_geom_bond_site_symmetry_1
_geom_bond_site_symmetry_2
O7 H10 1_555 1_555
O7 H11 1_555 1_555
Ce1 O1 1_555 1_555
O1 C8 1_555 1_555
O2 Ce1 1_555 1_555
O11 C12 1_555 1_555
O12 C12 1_555 1_555
O8 Ce1 1_555 1_555
C4 C3 1_555 1_555
H2 C4 1_555 1_555
C5 C4 1_555 1_555
C6 C1 1_555 1_555
H3 C6 1_555 1_555
C8 O2 1_555 1_555
C11 C5 1_555 1_555
H8 C11 1_555 1_555
H9 C11 1_555 1_555
C12 C11 1_555 1_555
Ce5 O12 1_555 1_555
O10 Ce1 1_555 1_555
O13 Ce1 1_555 1_555
C5 C6 1_555 1_555
O8 H12 1_555 1_555
O3 C10 1_555 1_555
O4 C10 1_555 1_555
H6 C9 1_555 1_555
C10 C9 1_555 1_555
Ce5 O3 1_555 1_555
Ce5 O9 1_555 1_555
O10 C10_2 1_555 1_555
O4_2 C10_2 1_555 1_555
H6_2 C9_2 1_555 1_555
C10_2 C9_2 1_555 1_555
Ce5 O1_2 1_555 1_555
O1_2 C8_2 1_555 1_555
O5 C12_2 1_555 1_555
O13 C12_2 1_555 1_555
O8_2 Ce5 1_555 1_555
C4_2 C3_2 1_555 1_555
H2_2 C4_2 1_555 1_555
C5_2 C4_2 1_555 1_555
C6_2 C1_2 1_555 1_555
H3_2 C6_2 1_555 1_555
C8_2 O9 1_555 1_555
C11_2 C5_2 1_555 1_555
H8_2 C11_2 1_555 1_555
H9_2 C11_2 1_555 1_555
C12_2 C11_2 1_555 1_555
C5_2 C6_2 1_555 1_555
O8_2 H12_2 1_555 1_555
O7_2 H10_2 1_555 1_555
O7_2 H11_2 1_555 1_555
C2 H1 1_555 1_555
H4 C7 1_555 1_555
H5 C7 1_555 1_555
C2_2 H1_2 1_555 1_555
H4_2 C7_2 1_555 1_555
H5_2 C7_2 1_555 1_555

#END
