
###############################################################################
#
# This file contains modified crystal structure data generated from the
# MOF subset of the Cambridge Structural Database (CSD) v543 
# hosted by the Cambridge Crystallographic Data Centre (CCDC).
#
# This work is licensed under the Creative Commons
# Attribution-NonCommercial-ShareAlike 4.0 International License.
# To view a copy of this license, visit
# http://creativecommons.org/licenses/by-nc-sa/4.0/
# or send a letter to
# Creative Commons, PO Box 1866, Mountain View, CA 94042, USA.
#
# CIF created using the CSD Python API on 29 September 2022
# The structure has been converted into the P1 space group
# The structure has a 3D framework
# The original CSD entry GAMTAQ is in the triclinic crystal system
# The framework has been calculated to contain at least 10.0% void space
# The void calculation uses a probe of radius 1.32A, grid spacing 0.4
# H atom positions have been added when not included in the experimental data
#
###############################################################################

data_GAMTAQ
_chemical_formula_moiety         '(C24 H26 La2 O16)n'
_symmetry_cell_setting           triclinic
_symmetry_space_group_name_H-M   'P 1'
_symmetry_Int_Tables_number      1
_space_group_name_Hall           'P 1'
loop_
_symmetry_equiv_pos_site_id
_symmetry_equiv_pos_as_xyz
1 x,y,z
_cell_length_a                   8.618(5)
_cell_length_b                   11.028(6)
_cell_length_c                   11.126(6)
_cell_angle_alpha                64.06(5)
_cell_angle_beta                 80.57(5)
_cell_angle_gamma                73.21(5)
_cell_volume                     909.477
loop_
_atom_site_label
_atom_site_type_symbol
_atom_site_fract_x
_atom_site_fract_y
_atom_site_fract_z
La1 La 0.24652(3) 0.50634(3) 0.00142(3)
O7 O 0.2496(3) 0.7338(3) 0.0079(3)
O10 O 0.4978(3) 0.4516(3) 0.1371(2)
O12 O 0.2688(3) 0.4421(3) 0.2564(2)
O13 O 0.2778(4) 0.2598(3) 0.1181(3)
H11 H 0.230437 0.724763 0.101592
O1 O 0.2808(3) 0.4090(3) 0.8230(3)
O2 O 0.0319(3) 0.4378(3) 0.9087(2)
O8 O 0.1044(4) 0.7188(3) 0.7976(3)
C1 C 0.2339(4) 0.2650(4) 0.6849(3)
C2 C 0.3011(4) 0.3503(4) 0.5648(3)
H1 H 0.2541 0.4476 0.5259
C3 C 0.4361(4) 0.2930(4) 0.5026(3)
C4 C 0.5033(5) 0.1500(4) 0.5594(4)
H2 H 0.5948 0.1106 0.5161
C5 C 0.4380(5) 0.0636(4) 0.6794(3)
C6 C 0.3044(5) 0.1232(4) 0.7402(4)
H3 H 0.2596 0.0655 0.8220
C7 C 0.0917(5) 0.3285(5) 0.7563(4)
H4 H 0.0123 0.3996 0.6896
H5 H 0.0374 0.2551 0.8192
C8 C 0.1404(4) 0.3952(4) 0.8327(3)
C9 C 0.5110(5) 0.3831(4) 0.3738(3)
H6 H 0.6229 0.3316 0.3616
H7 H 0.5179 0.4675 0.3815
C10 C 0.4183(4) 0.4274(3) 0.2505(3)
O11 O 0.5022(3) 0.5484(3) 0.8629(2)
H10 H 0.162894 0.810164 0.951862
H12 H 0.0135167 0.696284 0.773534
H13 H 0.0615497 0.800017 0.820868
La4 La 0.75348(3) 0.49366(3) 0.99858(3)
O5 O 0.7222(4) 0.7402(3) 0.8819(3)
O6 O 0.6834(5) 0.9542(3) 0.8639(4)
C11 C 0.5155(5) 0.9101(4) 0.7421(4)
H8 H 0.5610 0.8788 0.6699
H9 H 0.4302 0.8606 0.7922
C12 C 0.6500(5) 0.8678(4) 0.8369(4)
O9 O 0.9681(3) 0.5622(3) 0.0913(2)
O6_2 O 0.3166(5) 0.0458(3) 0.1361(4)
C11_2 C 0.4845(5) 0.0899(4) 0.2579(4)
H8_2 H 0.4390 0.1212 0.3301
H9_2 H 0.5698 0.1394 0.2078
C12_2 C 0.3500(5) 0.1322(4) 0.1631(4)
O1_2 O 0.7192(3) 0.5910(3) 0.1770(3)
O4 O 0.7312(3) 0.5579(3) 0.7436(2)
O8_2 O 0.8956(4) 0.2812(3) 0.2024(3)
C1_2 C 0.7661(4) 0.7350(4) 0.3151(3)
C2_2 C 0.6989(4) 0.6497(4) 0.4352(3)
H1_2 H 0.7459 0.5524 0.4741
C3_2 C 0.5639(4) 0.7070(4) 0.4974(3)
C4_2 C 0.4967(5) 0.8500(4) 0.4406(4)
H2_2 H 0.4052 0.8894 0.4839
C5_2 C 0.5620(5) 0.9364(4) 0.3206(3)
C6_2 C 0.6956(5) 0.8768(4) 0.2598(4)
H3_2 H 0.7404 0.9345 0.1780
C7_2 C 0.9083(5) 0.6715(5) 0.2437(4)
H4_2 H 0.9877 0.6004 0.3104
H5_2 H 0.9626 0.7449 0.1808
C8_2 C 0.8596(4) 0.6048(4) 0.1673(3)
C9_2 C 0.4890(5) 0.6169(4) 0.6262(3)
H6_2 H 0.3771 0.6684 0.6384
H7_2 H 0.4821 0.5325 0.6185
C10_2 C 0.5817(4) 0.5726(3) 0.7495(3)
H10_2 H 0.837106 0.189836 0.0481382
H12_2 H 0.986483 0.303716 0.226466
H13_2 H 0.93845 0.199983 0.179132
O7_2 O 0.7504(3) 0.2662(3) 0.9921(3)
H11_2 H 0.769563 0.275237 0.898408
loop_
_geom_bond_atom_site_label_1
_geom_bond_atom_site_label_2
_geom_bond_site_symmetry_1
_geom_bond_site_symmetry_2
O7 La1 1_555 1_555
O10 La1 1_555 1_555
O12 La1 1_555 1_555
O13 La1 1_555 1_555
O7 H11 1_555 1_555
O1 C8 1_555 1_555
O10 C10 1_555 1_555
O12 C10 1_555 1_555
C1 C2 1_555 1_555
C2 H1 1_555 1_555
C3 C2 1_555 1_555
C4 C3 1_555 1_555
H2 C4 1_555 1_555
C5 C4 1_555 1_555
C6 C1 1_555 1_555
H3 C6 1_555 1_555
C7 C1 1_555 1_555
H4 C7 1_555 1_555
H5 C7 1_555 1_555
C8 O2 1_555 1_555
C9 C3 1_555 1_555
H6 C9 1_555 1_555
H7 C9 1_555 1_555
C10 C9 1_555 1_555
C5 C6 1_555 1_555
C7 C8 1_555 1_555
O8 H12 1_555 1_555
O8 H13 1_555 1_555
O5 C12 1_555 1_555
O6 C12 1_555 1_555
H8 C11 1_555 1_555
H9 C11 1_555 1_555
C12 C11 1_555 1_555
La4 O5 1_555 1_555
O13 C12_2 1_555 1_555
O6_2 C12_2 1_555 1_555
H8_2 C11_2 1_555 1_555
H9_2 C11_2 1_555 1_555
C12_2 C11_2 1_555 1_555
O1_2 C8_2 1_555 1_555
O11 C10_2 1_555 1_555
O4 C10_2 1_555 1_555
C1_2 C2_2 1_555 1_555
C2_2 H1_2 1_555 1_555
C3_2 C2_2 1_555 1_555
C4_2 C3_2 1_555 1_555
H2_2 C4_2 1_555 1_555
C5_2 C4_2 1_555 1_555
C6_2 C1_2 1_555 1_555
H3_2 C6_2 1_555 1_555
C7_2 C1_2 1_555 1_555
H4_2 C7_2 1_555 1_555
H5_2 C7_2 1_555 1_555
C8_2 O9 1_555 1_555
C9_2 C3_2 1_555 1_555
H6_2 C9_2 1_555 1_555
H7_2 C9_2 1_555 1_555
C10_2 C9_2 1_555 1_555
La4 O11 1_555 1_555
O4 La4 1_555 1_555
C5_2 C6_2 1_555 1_555
C7_2 C8_2 1_555 1_555
O8_2 H12_2 1_555 1_555
O8_2 H13_2 1_555 1_555
O7_2 La4 1_555 1_555
O7_2 H11_2 1_555 1_555

#END
