
###############################################################################
#
# This file contains modified crystal structure data generated from the
# MOF subset of the Cambridge Structural Database (CSD) v543 
# hosted by the Cambridge Crystallographic Data Centre (CCDC).
#
# This work is licensed under the Creative Commons
# Attribution-NonCommercial-ShareAlike 4.0 International License.
# To view a copy of this license, visit
# http://creativecommons.org/licenses/by-nc-sa/4.0/
# or send a letter to
# Creative Commons, PO Box 1866, Mountain View, CA 94042, USA.
#
# CIF created using the CSD Python API on 29 September 2022
# The structure has been converted into the P1 space group
# The structure has a 3D framework
# The original CSD entry GAMTIY is in the triclinic crystal system
# The framework has been calculated to contain at least 10.0% void space
# The void calculation uses a probe of radius 1.32A, grid spacing 0.4
# H atom positions have been added when not included in the experimental data
#
###############################################################################

data_GAMTIY
_chemical_formula_moiety         '(C24 H26 O16 Pr2)n'
_symmetry_cell_setting           triclinic
_symmetry_space_group_name_H-M   'P 1'
_symmetry_Int_Tables_number      1
_space_group_name_Hall           'P 1'
loop_
_symmetry_equiv_pos_site_id
_symmetry_equiv_pos_as_xyz
1 x,y,z
_cell_length_a                   8.541(4)
_cell_length_b                   10.909(5)
_cell_length_c                   11.198(5)
_cell_angle_alpha                64.153(14)
_cell_angle_beta                 79.902(15)
_cell_angle_gamma                73.711(14)
_cell_volume                     899.591
loop_
_atom_site_label
_atom_site_type_symbol
_atom_site_fract_x
_atom_site_fract_y
_atom_site_fract_z
Pr1 Pr 0.24808(6) 0.50296(5) 0.50342(4)
O1 O 0.0305(4) 0.4371(4) 0.4116(3)
O2 O 0.2820(4) 0.4076(4) 0.3265(3)
O7 O 0.2541(4) 0.7263(3) 0.5121(3)
O8 O 0.1143(5) 0.7134(3) 0.3045(3)
C1 C 0.2324(6) 0.2668(6) 0.1850(5)
C2 C 0.2991(6) 0.3500(5) 0.0629(4)
H1 H 0.2504 0.4473 0.0229
C4 C 0.5024(7) 0.1504(6) 0.0568(5)
H2 H 0.5932 0.1105 0.0124
C5 C 0.4387(7) 0.0651(5) 0.1789(5)
C6 C 0.3067(6) 0.1243(5) 0.2410(5)
H3 H 0.2644 0.0664 0.3248
C7 C 0.0925(7) 0.3295(6) 0.2553(5)
H4 H 0.0343 0.2559 0.3156
H5 H 0.0156 0.4024 0.1889
C8 C 0.1379(7) 0.3951(5) 0.3368(5)
O10 O 0.2655(4) 0.4365(3) 0.7560(3)
O11 O 0.4967(4) 0.4521(4) 0.6338(3)
O12 O 0.5033(4) 0.5479(4) 0.3662(3)
O13 O 0.2760(5) 0.2594(4) 0.6151(4)
H10 H 0.156714 0.753804 0.565849
H11 H 0.354822 0.713024 0.553392
H13 H 0.160153 0.794659 0.285597
C3 C 0.4337(7) 0.2944(6) 0.9992(5)
C9 C 0.5096(7) 0.3827(6) 0.8682(5)
H6 H 0.6215 0.3300 0.8553
H7 H 0.5195 0.4686 0.8733
C10 C 0.4152(7) 0.4257(5) 0.7462(5)
Pr4 Pr 0.75192(6) 0.49704(5) 0.49658(4)
O5 O 0.7240(5) 0.7406(4) 0.3849(4)
O6 O 0.6946(6) 0.9615(4) 0.3499(5)
C11 C 0.5202(7) 0.9099(5) 0.2431(5)
H8 H 0.4347 0.8586 0.2948
H9 H 0.5659 0.8776 0.1714
C12 C 0.6542(8) 0.8691(6) 0.3335(5)
O9 O 0.9695(4) 0.5629(4) 0.5884(3)
H12 H 0.994539 0.737018 0.324804
H12_2 H 0.00546129 0.262982 0.675196
O6_2 O 0.3054(6) 0.0385(4) 0.6501(5)
C11_2 C 0.4798(7) 0.0901(5) 0.7569(5)
H8_2 H 0.5653 0.1414 0.7052
H9_2 H 0.4341 0.1224 0.8286
C12_2 C 0.3458(8) 0.1309(6) 0.6665(5)
O3 O 0.7345(4) 0.5635(3) 0.2440(3)
C3_2 C 0.5663(7) 0.7056(6) 0.0008(5)
C9_2 C 0.4904(7) 0.6173(6) 0.1318(5)
H6_2 H 0.3785 0.6700 0.1447
H7_2 H 0.4805 0.5314 0.1267
C10_2 C 0.5848(7) 0.5743(5) 0.2538(5)
O2_2 O 0.7180(4) 0.5924(4) 0.6735(3)
O7_2 O 0.7459(4) 0.2737(3) 0.4879(3)
O8_2 O 0.8857(5) 0.2866(3) 0.6955(3)
C1_2 C 0.7676(6) 0.7332(6) 0.8150(5)
C2_2 C 0.7009(6) 0.6500(5) 0.9371(4)
H1_2 H 0.7496 0.5527 0.9771
C4_2 C 0.4976(7) 0.8496(6) 0.9432(5)
H2_2 H 0.4068 0.8895 0.9876
C5_2 C 0.5613(7) 0.9349(5) 0.8211(5)
C6_2 C 0.6933(6) 0.8757(5) 0.7590(5)
H3_2 H 0.7356 0.9336 0.6752
C7_2 C 0.9075(7) 0.6705(6) 0.7447(5)
H4_2 H 0.9657 0.7441 0.6844
H5_2 H 0.9844 0.5976 0.8111
C8_2 C 0.8621(7) 0.6049(5) 0.6632(5)
H10_2 H 0.843286 0.246196 0.434151
H11_2 H 0.645178 0.286976 0.446608
H13_2 H 0.839847 0.205341 0.714403
loop_
_geom_bond_atom_site_label_1
_geom_bond_atom_site_label_2
_geom_bond_site_symmetry_1
_geom_bond_site_symmetry_2
Pr1 O1 1_555 1_555
O1 C8 1_555 1_555
O2 Pr1 1_555 1_555
O7 Pr1 1_555 1_555
O8 Pr1 1_555 1_555
C1 C2 1_555 1_555
C2 H1 1_555 1_555
H2 C4 1_555 1_555
C5 C4 1_555 1_555
C6 C1 1_555 1_555
H3 C6 1_555 1_555
C7 C1 1_555 1_555
H4 C7 1_555 1_555
H5 C7 1_555 1_555
C8 O2 1_555 1_555
O10 Pr1 1_555 1_555
O11 Pr1 1_555 1_555
O12 Pr1 1_555 1_555
O13 Pr1 1_555 1_555
C5 C6 1_555 1_555
C7 C8 1_555 1_555
O7 H10 1_555 1_555
O7 H11 1_555 1_555
O8 H13 1_555 1_555
O10 C10 1_555 1_555
O11 C10 1_555 1_555
C9 C3 1_555 1_555
H6 C9 1_555 1_555
H7 C9 1_555 1_555
C10 C9 1_555 1_555
Pr4 O11 1_555 1_555
O5 C12 1_555 1_555
O6 C12 1_555 1_555
H8 C11 1_555 1_555
H9 C11 1_555 1_555
C12 C11 1_555 1_555
Pr4 O5 1_555 1_555
Pr4 O9 1_555 1_555
O13 C12_2 1_555 1_555
O6_2 C12_2 1_555 1_555
H8_2 C11_2 1_555 1_555
H9_2 C11_2 1_555 1_555
C12_2 C11_2 1_555 1_555
O3 C10_2 1_555 1_555
O12 C10_2 1_555 1_555
C9_2 C3_2 1_555 1_555
H6_2 C9_2 1_555 1_555
H7_2 C9_2 1_555 1_555
C10_2 C9_2 1_555 1_555
Pr4 O3 1_555 1_555
O12 Pr4 1_555 1_555
O9 C8_2 1_555 1_555
O2_2 Pr4 1_555 1_555
O7_2 Pr4 1_555 1_555
O8_2 Pr4 1_555 1_555
C1_2 C2_2 1_555 1_555
C2_2 H1_2 1_555 1_555
H2_2 C4_2 1_555 1_555
C5_2 C4_2 1_555 1_555
C6_2 C1_2 1_555 1_555
H3_2 C6_2 1_555 1_555
C7_2 C1_2 1_555 1_555
H4_2 C7_2 1_555 1_555
H5_2 C7_2 1_555 1_555
C8_2 O2_2 1_555 1_555
C5_2 C6_2 1_555 1_555
C7_2 C8_2 1_555 1_555
O7_2 H10_2 1_555 1_555
O7_2 H11_2 1_555 1_555
O8_2 H13_2 1_555 1_555

#END
