
###############################################################################
#
# This file contains modified crystal structure data generated from the
# MOF subset of the Cambridge Structural Database (CSD) v543 
# hosted by the Cambridge Crystallographic Data Centre (CCDC).
#
# This work is licensed under the Creative Commons
# Attribution-NonCommercial-ShareAlike 4.0 International License.
# To view a copy of this license, visit
# http://creativecommons.org/licenses/by-nc-sa/4.0/
# or send a letter to
# Creative Commons, PO Box 1866, Mountain View, CA 94042, USA.
#
# CIF created using the CSD Python API on 29 September 2022
# The structure has been converted into the P1 space group
# The structure has a 3D framework
# The original CSD entry GAMXAV is in the tetragonal crystal system
# The framework has been calculated to contain at least 10.0% void space
# The void calculation uses a probe of radius 1.32A, grid spacing 0.4
# H atom positions have been added when not included in the experimental data
# Generated hydrogen atom positions removed from atoms on special positions
#
###############################################################################

data_GAMXAV
_chemical_formula_moiety         '(C296 H184 Cu28 N32 O80)n'
_symmetry_cell_setting           triclinic
_symmetry_space_group_name_H-M   'P 1'
_symmetry_Int_Tables_number      1
_space_group_name_Hall           'P 1'
loop_
_symmetry_equiv_pos_site_id
_symmetry_equiv_pos_as_xyz
1 x,y,z
_cell_length_a                   18.615(7)
_cell_length_b                   18.615(7)
_cell_length_c                   36.321(14)
_cell_angle_alpha                90
_cell_angle_beta                 90
_cell_angle_gamma                90
_cell_volume                     12585.9
loop_
_atom_site_label
_atom_site_type_symbol
_atom_site_fract_x
_atom_site_fract_y
_atom_site_fract_z
C2 C 0.1333(8) 0.2752(10) 0.2121(4)
O3 O 0.1946(6) 0.2890(5) 0.2006(2)
O4 O 0.1339(5) 0.2368(5) 0.2464(3)
C5 C 0.0606(5) 0.2759(9) 0.1957(5)
C6 C 0.0667(8) 0.2851(13) 0.1564(6)
H2 H 0.1115 0.2894 0.1441
C7 C 0.0001(7) 0.2873(12) 0.1380(4)
C9 C 0.0007(10) 0.2902(7) 0.0966(4)
C11 C 0.0269(10) 0.3526(8) 0.0785(5)
N1 N 0.0316(8) 0.3597(7) 0.0400(2)
C12 C 0.0538(12) 0.4147(9) 0.0955(4)
H4 H 0.0586 0.4227 0.1212
C15 C 0.0567(11) 0.4238(8) 0.0342(3)
C16 C 0.0710(19) 0.4549(13) 0.0000
H6 H 0.0922 0.5013 0.0000
C18 C 0.0718(13) 0.4621(11) 0.0677(6)
H8 H 0.0902 0.5095 0.0701
Cu5 Cu 0.28363(12) 0.28285(12) 0.22260(3)
Cu6 Cu 0.21637(12) 0.21715(12) 0.27740(3)
C16_2 C 0.0710(19) 0.4549(13) 1.0000
H6_2 H 0.0922 0.5013 1.0000
Cu7 Cu 0.28363(12) 0.28285(12) 0.77740(3)
Cu8 Cu 0.21637(12) 0.21715(12) 0.72260(3)
C21 C 0.1333(8) 0.2752(10) 0.7879(4)
O10 O 0.1946(6) 0.2890(5) 0.7994(2)
O13 O 0.1339(5) 0.2368(5) 0.7536(3)
C24 C 0.0606(5) 0.2759(9) 0.8043(5)
C25 C 0.0667(8) 0.2851(13) 0.8436(6)
H11 H 0.1115 0.2894 0.8559
C26 C 0.0001(7) 0.2873(12) 0.8620(4)
C28 C 0.0007(10) 0.2902(7) 0.9034(4)
C30 C 0.0269(10) 0.3526(8) 0.9215(5)
N3 N 0.0316(8) 0.3597(7) 0.9600(2)
C31 C 0.0538(12) 0.4147(9) 0.9045(4)
H13 H 0.0586 0.4227 0.8788
C34 C 0.0567(11) 0.4238(8) 0.9658(3)
C35 C 0.0718(13) 0.4621(11) 0.9323(6)
H15 H 0.0902 0.5095 0.9299
Cu1 Cu 0.78285(12) 0.21637(12) 0.27740(3)
Cu2 Cu 0.9987(3) 0.2876(2) 0.0000
C1 C 0.8652(9) 0.2700(11) 0.2128(7)
O1 O 0.8693(6) 0.2419(5) 0.2464(3)
O2 O 0.8089(5) 0.2952(7) 0.2002(3)
O5 O 0.8371(7) 0.1496(7) 0.3165(3)
C3 C 0.9366(5) 0.2740(11) 0.1948(5)
C4 C 0.9971(5) 0.2703(11) 0.2163(5)
H1 H 0.9961 0.2646 0.2423
C8 C 0.9349(7) 0.2829(12) 0.1554(5)
H3 H 0.8909 0.2856 0.1421
C10 C 0.9757(10) 0.2304(7) 0.0777(5)
N2 N 0.9694(9) 0.2147(6) 0.0397(3)
C13 C 0.9482(13) 0.1659(10) 0.0950(4)
H5 H 0.9454 0.1594 0.1209
C14 C 0.9415(12) 0.1451(11) 0.0338(3)
C17 C 0.9319(14) 0.1060(16) 0.0000
H7 H 0.9198 0.0564 0.0000
C19 C 0.9258(13) 0.1129(11) 0.0689(6)
H9 H 0.9053 0.0671 0.0736
Cu4 Cu 0.71715(12) 0.28363(12) 0.22260(3)
O8 O 0.6911(5) 0.2048(7) 0.2998(3)
O11 O 0.7890(5) 0.3054(6) 0.2994(2)
O14 O 0.7632(5) 0.1339(5) 0.2464(3)
Cu2_2 Cu 0.9987(3) 0.2876(2) 1.0000
C17_2 C 0.9319(14) 0.1060(16) 1.0000
H7_2 H 0.9198 0.0564 1.0000
Cu3 Cu 0.78285(12) 0.21637(12) 0.72260(3)
Cu9 Cu 0.71715(12) 0.28363(12) 0.77740(3)
C20 C 0.8652(9) 0.2700(11) 0.7872(7)
O6 O 0.8693(6) 0.2419(5) 0.7536(3)
O7 O 0.8089(5) 0.2952(7) 0.7998(3)
O9 O 0.6911(5) 0.2048(7) 0.7002(3)
O12 O 0.7890(5) 0.3054(6) 0.7006(2)
O15 O 0.7632(5) 0.1339(5) 0.7536(3)
O16 O 0.8371(7) 0.1496(7) 0.6835(3)
C22 C 0.9366(5) 0.2740(11) 0.8052(5)
C23 C 0.9971(5) 0.2703(11) 0.7837(5)
H10 H 0.9961 0.2646 0.7577
C27 C 0.9349(7) 0.2829(12) 0.8446(5)
H12 H 0.8909 0.2856 0.8579
C29 C 0.9757(10) 0.2304(7) 0.9223(5)
N4 N 0.9694(9) 0.2147(6) 0.9603(3)
C32 C 0.9482(13) 0.1659(10) 0.9050(4)
H14 H 0.9454 0.1594 0.8791
C33 C 0.9415(12) 0.1451(11) 0.9662(3)
C36 C 0.9258(13) 0.1129(11) 0.9311(6)
H16 H 0.9053 0.0671 0.9264
Cu1_2 Cu 0.21715(12) 0.78363(12) 0.27740(3)
Cu2_3 Cu 0.0013(3) 0.7124(2) 0.0000
C1_2 C 0.1348(9) 0.7300(11) 0.2128(7)
O1_2 O 0.1307(6) 0.7581(5) 0.2464(3)
O2_2 O 0.1911(5) 0.7048(7) 0.2002(3)
O5_2 O 0.1629(7) 0.8504(7) 0.3165(3)
C3_2 C 0.0634(5) 0.7260(11) 0.1948(5)
C4_2 C 0.0029(5) 0.7297(11) 0.2163(5)
H1_2 H 0.0039 0.7354 0.2423
C8_2 C 0.0651(7) 0.7171(12) 0.1554(5)
H3_2 H 0.1091 0.7144 0.1421
C10_2 C 0.0243(10) 0.7696(7) 0.0777(5)
N2_2 N 0.0306(9) 0.7853(6) 0.0397(3)
C13_2 C 0.0518(13) 0.8341(10) 0.0950(4)
H5_2 H 0.0546 0.8406 0.1209
C14_2 C 0.0585(12) 0.8549(11) 0.0338(3)
C17_3 C 0.0681(14) 0.8940(16) 0.0000
H7_3 H 0.0802 0.9436 0.0000
C19_2 C 0.0742(13) 0.8871(11) 0.0689(6)
H9_2 H 0.0947 0.9329 0.0736
Cu4_2 Cu 0.28285(12) 0.71637(12) 0.22260(3)
O8_2 O 0.3089(5) 0.7952(7) 0.2998(3)
O11_2 O 0.2110(5) 0.6946(6) 0.2994(2)
O14_2 O 0.2368(5) 0.8661(5) 0.2464(3)
Cu2_4 Cu 0.0013(3) 0.7124(2) 1.0000
C17_4 C 0.0681(14) 0.8940(16) 1.0000
H7_4 H 0.0802 0.9436 1.0000
Cu3_2 Cu 0.21715(12) 0.78363(12) 0.72260(3)
Cu9_2 Cu 0.28285(12) 0.71637(12) 0.77740(3)
C20_2 C 0.1348(9) 0.7300(11) 0.7872(7)
O6_2 O 0.1307(6) 0.7581(5) 0.7536(3)
O7_2 O 0.1911(5) 0.7048(7) 0.7998(3)
O9_2 O 0.3089(5) 0.7952(7) 0.7002(3)
O12_2 O 0.2110(5) 0.6946(6) 0.7006(2)
O15_2 O 0.2368(5) 0.8661(5) 0.7536(3)
O16_2 O 0.1629(7) 0.8504(7) 0.6835(3)
C22_2 C 0.0634(5) 0.7260(11) 0.8052(5)
C23_2 C 0.0029(5) 0.7297(11) 0.7837(5)
H10_2 H 0.0039 0.7354 0.7577
C27_2 C 0.0651(7) 0.7171(12) 0.8446(5)
H12_2 H 0.1091 0.7144 0.8579
C29_2 C 0.0243(10) 0.7696(7) 0.9223(5)
N4_2 N 0.0306(9) 0.7853(6) 0.9603(3)
C32_2 C 0.0518(13) 0.8341(10) 0.9050(4)
H14_2 H 0.0546 0.8406 0.8791
C33_2 C 0.0585(12) 0.8549(11) 0.9662(3)
C36_2 C 0.0742(13) 0.8871(11) 0.9311(6)
H16_2 H 0.0947 0.9329 0.9264
C2_2 C 0.8667(8) 0.7248(10) 0.2121(4)
O3_2 O 0.8054(6) 0.7110(5) 0.2006(2)
O4_2 O 0.8661(5) 0.7632(5) 0.2464(3)
C5_2 C 0.9394(5) 0.7241(9) 0.1957(5)
C6_2 C 0.9333(8) 0.7149(13) 0.1564(6)
H2_2 H 0.8885 0.7106 0.1441
C7_2 C 0.9999(7) 0.7127(12) 0.1380(4)
C9_2 C 0.9993(10) 0.7098(7) 0.0966(4)
C11_2 C 0.9731(10) 0.6474(8) 0.0785(5)
N1_2 N 0.9684(8) 0.6403(7) 0.0400(2)
C12_2 C 0.9462(12) 0.5853(9) 0.0955(4)
H4_2 H 0.9414 0.5773 0.1212
C15_2 C 0.9433(11) 0.5762(8) 0.0342(3)
C16_3 C 0.9290(19) 0.5451(13) 0.0000
H6_3 H 0.9078 0.4987 0.0000
C18_2 C 0.9282(13) 0.5379(11) 0.0677(6)
H8_2 H 0.9098 0.4905 0.0701
Cu5_2 Cu 0.71637(12) 0.71715(12) 0.22260(3)
Cu6_2 Cu 0.78363(12) 0.78285(12) 0.27740(3)
C16_4 C 0.9290(19) 0.5451(13) 1.0000
H6_4 H 0.9078 0.4987 1.0000
Cu7_2 Cu 0.71637(12) 0.71715(12) 0.77740(3)
Cu8_2 Cu 0.78363(12) 0.78285(12) 0.72260(3)
C21_2 C 0.8667(8) 0.7248(10) 0.7879(4)
O10_2 O 0.8054(6) 0.7110(5) 0.7994(2)
O13_2 O 0.8661(5) 0.7632(5) 0.7536(3)
C24_2 C 0.9394(5) 0.7241(9) 0.8043(5)
C25_2 C 0.9333(8) 0.7149(13) 0.8436(6)
H11_2 H 0.8885 0.7106 0.8559
C26_2 C 0.9999(7) 0.7127(12) 0.8620(4)
C28_2 C 0.9993(10) 0.7098(7) 0.9034(4)
C30_2 C 0.9731(10) 0.6474(8) 0.9215(5)
N3_2 N 0.9684(8) 0.6403(7) 0.9600(2)
C31_2 C 0.9462(12) 0.5853(9) 0.9045(4)
H13_2 H 0.9414 0.5773 0.8788
C34_2 C 0.9433(11) 0.5762(8) 0.9658(3)
C35_2 C 0.9282(13) 0.5379(11) 0.9323(6)
H15_2 H 0.9098 0.4905 0.9299
C2_3 C 0.7248(10) 0.1333(8) 0.2121(4)
O3_3 O 0.7110(5) 0.1946(6) 0.2006(2)
C5_3 C 0.7241(9) 0.0606(5) 0.1957(5)
C6_3 C 0.7149(13) 0.0667(8) 0.1564(6)
H2_3 H 0.7106 0.1115 0.1441
C7_3 C 0.7127(12) 0.0001(7) 0.1380(4)
C9_3 C 0.7098(7) 0.0007(10) 0.0966(4)
C11_3 C 0.6474(8) 0.0269(10) 0.0785(5)
N1_3 N 0.6403(7) 0.0316(8) 0.0400(2)
C12_3 C 0.5853(9) 0.0538(12) 0.0955(4)
H4_3 H 0.5773 0.0586 0.1212
C15_3 C 0.5762(8) 0.0567(11) 0.0342(3)
C16_5 C 0.5451(13) 0.0710(19) 0.0000
H6_5 H 0.4987 0.0922 0.0000
C18_3 C 0.5379(11) 0.0718(13) 0.0677(6)
H8_3 H 0.4905 0.0902 0.0701
C16_6 C 0.5451(13) 0.0710(19) 1.0000
H6_6 H 0.4987 0.0922 1.0000
C21_3 C 0.7248(10) 0.1333(8) 0.7879(4)
O10_3 O 0.7110(5) 0.1946(6) 0.7994(2)
C24_3 C 0.7241(9) 0.0606(5) 0.8043(5)
C25_3 C 0.7149(13) 0.0667(8) 0.8436(6)
H11_3 H 0.7106 0.1115 0.8559
C26_3 C 0.7127(12) 0.0001(7) 0.8620(4)
C28_3 C 0.7098(7) 0.0007(10) 0.9034(4)
C30_3 C 0.6474(8) 0.0269(10) 0.9215(5)
N3_3 N 0.6403(7) 0.0316(8) 0.9600(2)
C31_3 C 0.5853(9) 0.0538(12) 0.9045(4)
H13_3 H 0.5773 0.0586 0.8788
C34_3 C 0.5762(8) 0.0567(11) 0.9658(3)
C35_3 C 0.5379(11) 0.0718(13) 0.9323(6)
H15_3 H 0.4905 0.0902 0.9299
Cu2_5 Cu 0.7124(2) 0.9987(3) 0.0000
C1_3 C 0.7300(11) 0.8652(9) 0.2128(7)
O1_3 O 0.7581(5) 0.8693(6) 0.2464(3)
O2_3 O 0.7048(7) 0.8089(5) 0.2002(3)
O5_3 O 0.8504(7) 0.8371(7) 0.3165(3)
C3_3 C 0.7260(11) 0.9366(5) 0.1948(5)
C4_3 C 0.7297(11) 0.9971(5) 0.2163(5)
H1_3 H 0.7354 0.9961 0.2423
C8_3 C 0.7171(12) 0.9349(7) 0.1554(5)
H3_3 H 0.7144 0.8909 0.1421
C10_3 C 0.7696(7) 0.9757(10) 0.0777(5)
N2_3 N 0.7853(6) 0.9694(9) 0.0397(3)
C13_3 C 0.8341(10) 0.9482(13) 0.0950(4)
H5_3 H 0.8406 0.9454 0.1209
C14_3 C 0.8549(11) 0.9415(12) 0.0338(3)
C17_5 C 0.8940(16) 0.9319(14) 0.0000
H7_5 H 0.9436 0.9198 0.0000
C19_3 C 0.8871(11) 0.9258(13) 0.0689(6)
H9_3 H 0.9329 0.9053 0.0736
O8_3 O 0.7952(7) 0.6911(5) 0.2998(3)
O11_3 O 0.6946(6) 0.7890(5) 0.2994(2)
Cu2_6 Cu 0.7124(2) 0.9987(3) 1.0000
C17_6 C 0.8940(16) 0.9319(14) 1.0000
H7_6 H 0.9436 0.9198 1.0000
C20_3 C 0.7300(11) 0.8652(9) 0.7872(7)
O6_3 O 0.7581(5) 0.8693(6) 0.7536(3)
O7_3 O 0.7048(7) 0.8089(5) 0.7998(3)
O9_3 O 0.7952(7) 0.6911(5) 0.7002(3)
O12_3 O 0.6946(6) 0.7890(5) 0.7006(2)
O16_3 O 0.8504(7) 0.8371(7) 0.6835(3)
C22_3 C 0.7260(11) 0.9366(5) 0.8052(5)
C23_3 C 0.7297(11) 0.9971(5) 0.7837(5)
H10_3 H 0.7354 0.9961 0.7577
C27_3 C 0.7171(12) 0.9349(7) 0.8446(5)
H12_3 H 0.7144 0.8909 0.8579
C29_3 C 0.7696(7) 0.9757(10) 0.9223(5)
N4_3 N 0.7853(6) 0.9694(9) 0.9603(3)
C32_3 C 0.8341(10) 0.9482(13) 0.9050(4)
H14_3 H 0.8406 0.9454 0.8791
C33_3 C 0.8549(11) 0.9415(12) 0.9662(3)
C36_3 C 0.8871(11) 0.9258(13) 0.9311(6)
H16_3 H 0.9329 0.9053 0.9264
Cu2_7 Cu 0.2876(2) 0.0013(3) 0.0000
C1_4 C 0.2700(11) 0.1348(9) 0.2128(7)
O1_4 O 0.2419(5) 0.1307(6) 0.2464(3)
O2_4 O 0.2952(7) 0.1911(5) 0.2002(3)
O5_4 O 0.1496(7) 0.1629(7) 0.3165(3)
C3_4 C 0.2740(11) 0.0634(5) 0.1948(5)
C4_4 C 0.2703(11) 0.0029(5) 0.2163(5)
H1_4 H 0.2646 0.0039 0.2423
C8_4 C 0.2829(12) 0.0651(7) 0.1554(5)
H3_4 H 0.2856 0.1091 0.1421
C10_4 C 0.2304(7) 0.0243(10) 0.0777(5)
N2_4 N 0.2147(6) 0.0306(9) 0.0397(3)
C13_4 C 0.1659(10) 0.0518(13) 0.0950(4)
H5_4 H 0.1594 0.0546 0.1209
C14_4 C 0.1451(11) 0.0585(12) 0.0338(3)
C17_7 C 0.1060(16) 0.0681(14) 0.0000
H7_7 H 0.0564 0.0802 0.0000
C19_4 C 0.1129(11) 0.0742(13) 0.0689(6)
H9_4 H 0.0671 0.0947 0.0736
O8_4 O 0.2048(7) 0.3089(5) 0.2998(3)
O11_4 O 0.3054(6) 0.2110(5) 0.2994(2)
Cu2_8 Cu 0.2876(2) 0.0013(3) 1.0000
C17_8 C 0.1060(16) 0.0681(14) 1.0000
H7_8 H 0.0564 0.0802 1.0000
C20_4 C 0.2700(11) 0.1348(9) 0.7872(7)
O6_4 O 0.2419(5) 0.1307(6) 0.7536(3)
O7_4 O 0.2952(7) 0.1911(5) 0.7998(3)
O9_4 O 0.2048(7) 0.3089(5) 0.7002(3)
O12_4 O 0.3054(6) 0.2110(5) 0.7006(2)
O16_4 O 0.1496(7) 0.1629(7) 0.6835(3)
C22_4 C 0.2740(11) 0.0634(5) 0.8052(5)
C23_4 C 0.2703(11) 0.0029(5) 0.7837(5)
H10_4 H 0.2646 0.0039 0.7577
C27_4 C 0.2829(12) 0.0651(7) 0.8446(5)
H12_4 H 0.2856 0.1091 0.8579
C29_4 C 0.2304(7) 0.0243(10) 0.9223(5)
N4_4 N 0.2147(6) 0.0306(9) 0.9603(3)
C32_4 C 0.1659(10) 0.0518(13) 0.9050(4)
H14_4 H 0.1594 0.0546 0.8791
C33_4 C 0.1451(11) 0.0585(12) 0.9662(3)
C36_4 C 0.1129(11) 0.0742(13) 0.9311(6)
H16_4 H 0.0671 0.0947 0.9264
C2_4 C 0.2752(10) 0.8667(8) 0.2121(4)
O3_4 O 0.2890(5) 0.8054(6) 0.2006(2)
C5_4 C 0.2759(9) 0.9394(5) 0.1957(5)
C6_4 C 0.2851(13) 0.9333(8) 0.1564(6)
H2_4 H 0.2894 0.8885 0.1441
C7_4 C 0.2873(12) 0.9999(7) 0.1380(4)
C9_4 C 0.2902(7) 0.9993(10) 0.0966(4)
C11_4 C 0.3526(8) 0.9731(10) 0.0785(5)
N1_4 N 0.3597(7) 0.9684(8) 0.0400(2)
C12_4 C 0.4147(9) 0.9462(12) 0.0955(4)
H4_4 H 0.4227 0.9414 0.1212
C15_4 C 0.4238(8) 0.9433(11) 0.0342(3)
C16_7 C 0.4549(13) 0.9290(19) 0.0000
H6_7 H 0.5013 0.9078 0.0000
C18_4 C 0.4621(11) 0.9282(13) 0.0677(6)
H8_4 H 0.5095 0.9098 0.0701
C16_8 C 0.4549(13) 0.9290(19) 1.0000
H6_8 H 0.5013 0.9078 1.0000
C21_4 C 0.2752(10) 0.8667(8) 0.7879(4)
O10_4 O 0.2890(5) 0.8054(6) 0.7994(2)
C24_4 C 0.2759(9) 0.9394(5) 0.8043(5)
C25_4 C 0.2851(13) 0.9333(8) 0.8436(6)
H11_4 H 0.2894 0.8885 0.8559
C26_4 C 0.2873(12) 0.9999(7) 0.8620(4)
C28_4 C 0.2902(7) 0.9993(10) 0.9034(4)
C30_4 C 0.3526(8) 0.9731(10) 0.9215(5)
N3_4 N 0.3597(7) 0.9684(8) 0.9600(2)
C31_4 C 0.4147(9) 0.9462(12) 0.9045(4)
H13_4 H 0.4227 0.9414 0.8788
C34_4 C 0.4238(8) 0.9433(11) 0.9658(3)
C35_4 C 0.4621(11) 0.9282(13) 0.9323(6)
H15_4 H 0.5095 0.9098 0.9299
Cu2_9 Cu 0.4987(3) 0.7876(2) 0.5000
C1_5 C 0.3652(9) 0.7700(11) 0.7128(7)
C2_5 C 0.6333(8) 0.7752(10) 0.7121(4)
O1_5 O 0.3693(6) 0.7419(5) 0.7464(3)
O4_3 O 0.6339(5) 0.7368(5) 0.7464(3)
O5_5 O 0.3371(7) 0.6496(7) 0.8165(3)
C3_5 C 0.4366(5) 0.7740(11) 0.6948(5)
C4_5 C 0.4971(5) 0.7703(11) 0.7163(5)
H1_5 H 0.4961 0.7646 0.7423
C5_5 C 0.5606(5) 0.7759(9) 0.6957(5)
C6_5 C 0.5667(8) 0.7851(13) 0.6564(6)
H2_5 H 0.6115 0.7894 0.6441
C7_5 C 0.5001(7) 0.7873(12) 0.6380(4)
C8_5 C 0.4349(7) 0.7829(12) 0.6554(5)
H3_5 H 0.3909 0.7856 0.6421
C9_5 C 0.5007(10) 0.7902(7) 0.5966(4)
C10_5 C 0.4757(10) 0.7304(7) 0.5777(5)
C11_5 C 0.5269(10) 0.8526(8) 0.5785(5)
N1_5 N 0.5316(8) 0.8597(7) 0.5400(2)
N2_5 N 0.4694(9) 0.7147(6) 0.5397(3)
C12_5 C 0.5538(12) 0.9147(9) 0.5955(4)
H4_5 H 0.5586 0.9227 0.6212
C13_5 C 0.4482(13) 0.6659(10) 0.5950(4)
H5_5 H 0.4454 0.6594 0.6209
C14_5 C 0.4415(12) 0.6451(11) 0.5338(3)
C15_5 C 0.5567(11) 0.9238(8) 0.5342(3)
C16_9 C 0.5710(19) 0.9549(13) 0.5000
C17_9 C 0.4319(14) 0.6060(16) 0.5000
H7_9 H 0.4198 0.5564 0.5000
C18_5 C 0.5718(13) 0.9621(11) 0.5677(6)
C19_5 C 0.4258(13) 0.6129(11) 0.5689(6)
H9_5 H 0.4053 0.5671 0.5736
C20_5 C 0.3652(9) 0.7700(11) 0.2872(7)
C21_5 C 0.6333(8) 0.7752(10) 0.2879(4)
O6_5 O 0.3693(6) 0.7419(5) 0.2536(3)
O13_3 O 0.6339(5) 0.7368(5) 0.2536(3)
O14_3 O 0.2632(5) 0.6339(5) 0.7464(3)
O15_3 O 0.2632(5) 0.6339(5) 0.2536(3)
O16_5 O 0.3371(7) 0.6496(7) 0.1835(3)
C22_5 C 0.4366(5) 0.7740(11) 0.3052(5)
C23_5 C 0.4971(5) 0.7703(11) 0.2837(5)
H10_5 H 0.4961 0.7646 0.2577
C24_5 C 0.5606(5) 0.7759(9) 0.3043(5)
C25_5 C 0.5667(8) 0.7851(13) 0.3436(6)
H11_5 H 0.6115 0.7894 0.3559
C26_5 C 0.5001(7) 0.7873(12) 0.3620(4)
C27_5 C 0.4349(7) 0.7829(12) 0.3446(5)
H12_5 H 0.3909 0.7856 0.3579
C28_5 C 0.5007(10) 0.7902(7) 0.4034(4)
C29_5 C 0.4757(10) 0.7304(7) 0.4223(5)
C30_5 C 0.5269(10) 0.8526(8) 0.4215(5)
N3_5 N 0.5316(8) 0.8597(7) 0.4600(2)
N4_5 N 0.4694(9) 0.7147(6) 0.4603(3)
C31_5 C 0.5538(12) 0.9147(9) 0.4045(4)
H13_5 H 0.5586 0.9227 0.3788
C32_5 C 0.4482(13) 0.6659(10) 0.4050(4)
H14_5 H 0.4454 0.6594 0.3791
C33_5 C 0.4415(12) 0.6451(11) 0.4662(3)
C34_5 C 0.5567(11) 0.9238(8) 0.4658(3)
C35_5 C 0.5718(13) 0.9621(11) 0.4323(6)
C36_5 C 0.4258(13) 0.6129(11) 0.4311(6)
H16_5 H 0.4053 0.5671 0.4264
Cu2_10 Cu 0.5013(3) 0.2124(2) 0.5000
C1_6 C 0.6348(9) 0.2300(11) 0.7128(7)
C2_6 C 0.3667(8) 0.2248(10) 0.7121(4)
O1_6 O 0.6307(6) 0.2581(5) 0.7464(3)
O4_4 O 0.3661(5) 0.2632(5) 0.7464(3)
O5_6 O 0.6629(7) 0.3504(7) 0.8165(3)
C3_6 C 0.5634(5) 0.2260(11) 0.6948(5)
C4_6 C 0.5029(5) 0.2297(11) 0.7163(5)
H1_6 H 0.5039 0.2354 0.7423
C5_6 C 0.4394(5) 0.2241(9) 0.6957(5)
C6_6 C 0.4333(8) 0.2149(13) 0.6564(6)
H2_6 H 0.3885 0.2106 0.6441
C7_6 C 0.4999(7) 0.2127(12) 0.6380(4)
C8_6 C 0.5651(7) 0.2171(12) 0.6554(5)
H3_6 H 0.6091 0.2144 0.6421
C9_6 C 0.4993(10) 0.2098(7) 0.5966(4)
C10_6 C 0.5243(10) 0.2696(7) 0.5777(5)
C11_6 C 0.4731(10) 0.1474(8) 0.5785(5)
N1_6 N 0.4684(8) 0.1403(7) 0.5400(2)
N2_6 N 0.5306(9) 0.2853(6) 0.5397(3)
C12_6 C 0.4462(12) 0.0853(9) 0.5955(4)
H4_6 H 0.4414 0.0773 0.6212
C13_6 C 0.5518(13) 0.3341(10) 0.5950(4)
H5_6 H 0.5546 0.3406 0.6209
C14_6 C 0.5585(12) 0.3549(11) 0.5338(3)
C15_6 C 0.4433(11) 0.0762(8) 0.5342(3)
C16_10 C 0.4290(19) 0.0451(13) 0.5000
C17_10 C 0.5681(14) 0.3940(16) 0.5000
H7_10 H 0.5802 0.4436 0.5000
C18_6 C 0.4282(13) 0.0379(11) 0.5677(6)
C19_6 C 0.5742(13) 0.3871(11) 0.5689(6)
H9_6 H 0.5947 0.4329 0.5736
C20_6 C 0.6348(9) 0.2300(11) 0.2872(7)
C21_6 C 0.3667(8) 0.2248(10) 0.2879(4)
O6_6 O 0.6307(6) 0.2581(5) 0.2536(3)
O13_4 O 0.3661(5) 0.2632(5) 0.2536(3)
O14_4 O 0.7368(5) 0.3661(5) 0.7464(3)
O15_4 O 0.7368(5) 0.3661(5) 0.2536(3)
O16_6 O 0.6629(7) 0.3504(7) 0.1835(3)
C22_6 C 0.5634(5) 0.2260(11) 0.3052(5)
C23_6 C 0.5029(5) 0.2297(11) 0.2837(5)
H10_6 H 0.5039 0.2354 0.2577
C24_6 C 0.4394(5) 0.2241(9) 0.3043(5)
C25_6 C 0.4333(8) 0.2149(13) 0.3436(6)
H11_6 H 0.3885 0.2106 0.3559
C26_6 C 0.4999(7) 0.2127(12) 0.3620(4)
C27_6 C 0.5651(7) 0.2171(12) 0.3446(5)
H12_6 H 0.6091 0.2144 0.3579
C28_6 C 0.4993(10) 0.2098(7) 0.4034(4)
C29_6 C 0.5243(10) 0.2696(7) 0.4223(5)
C30_6 C 0.4731(10) 0.1474(8) 0.4215(5)
N3_6 N 0.4684(8) 0.1403(7) 0.4600(2)
N4_6 N 0.5306(9) 0.2853(6) 0.4603(3)
C31_6 C 0.4462(12) 0.0853(9) 0.4045(4)
H13_6 H 0.4414 0.0773 0.3788
C32_6 C 0.5518(13) 0.3341(10) 0.4050(4)
H14_6 H 0.5546 0.3406 0.3791
C33_6 C 0.5585(12) 0.3549(11) 0.4662(3)
C34_6 C 0.4433(11) 0.0762(8) 0.4658(3)
C35_6 C 0.4282(13) 0.0379(11) 0.4323(6)
C36_6 C 0.5742(13) 0.3871(11) 0.4311(6)
H16_6 H 0.5947 0.4329 0.4264
Cu2_11 Cu 0.2124(2) 0.4987(3) 0.5000
C1_7 C 0.2300(11) 0.3652(9) 0.7128(7)
C2_7 C 0.2248(10) 0.6333(8) 0.7121(4)
O1_7 O 0.2581(5) 0.3693(6) 0.7464(3)
O5_7 O 0.3504(7) 0.3371(7) 0.8165(3)
C3_7 C 0.2260(11) 0.4366(5) 0.6948(5)
C4_7 C 0.2297(11) 0.4971(5) 0.7163(5)
H1_7 H 0.2354 0.4961 0.7423
C5_7 C 0.2241(9) 0.5606(5) 0.6957(5)
C6_7 C 0.2149(13) 0.5667(8) 0.6564(6)
H2_7 H 0.2106 0.6115 0.6441
C7_7 C 0.2127(12) 0.5001(7) 0.6380(4)
C8_7 C 0.2171(12) 0.4349(7) 0.6554(5)
H3_7 H 0.2144 0.3909 0.6421
C9_7 C 0.2098(7) 0.5007(10) 0.5966(4)
C10_7 C 0.2696(7) 0.4757(10) 0.5777(5)
C11_7 C 0.1474(8) 0.5269(10) 0.5785(5)
N1_7 N 0.1403(7) 0.5316(8) 0.5400(2)
N2_7 N 0.2853(6) 0.4694(9) 0.5397(3)
C12_7 C 0.0853(9) 0.5538(12) 0.5955(4)
H4_7 H 0.0773 0.5586 0.6212
C13_7 C 0.3341(10) 0.4482(13) 0.5950(4)
H5_7 H 0.3406 0.4454 0.6209
C14_7 C 0.3549(11) 0.4415(12) 0.5338(3)
C15_7 C 0.0762(8) 0.5567(11) 0.5342(3)
C16_11 C 0.0451(13) 0.5710(19) 0.5000
C17_11 C 0.3940(16) 0.4319(14) 0.5000
H7_11 H 0.4436 0.4198 0.5000
C18_7 C 0.0379(11) 0.5718(13) 0.5677(6)
C19_7 C 0.3871(11) 0.4258(13) 0.5689(6)
H9_7 H 0.4329 0.4053 0.5736
C20_7 C 0.2300(11) 0.3652(9) 0.2872(7)
C21_7 C 0.2248(10) 0.6333(8) 0.2879(4)
O6_7 O 0.2581(5) 0.3693(6) 0.2536(3)
O16_7 O 0.3504(7) 0.3371(7) 0.1835(3)
C22_7 C 0.2260(11) 0.4366(5) 0.3052(5)
C23_7 C 0.2297(11) 0.4971(5) 0.2837(5)
H10_7 H 0.2354 0.4961 0.2577
C24_7 C 0.2241(9) 0.5606(5) 0.3043(5)
C25_7 C 0.2149(13) 0.5667(8) 0.3436(6)
H11_7 H 0.2106 0.6115 0.3559
C26_7 C 0.2127(12) 0.5001(7) 0.3620(4)
C27_7 C 0.2171(12) 0.4349(7) 0.3446(5)
H12_7 H 0.2144 0.3909 0.3579
C28_7 C 0.2098(7) 0.5007(10) 0.4034(4)
C29_7 C 0.2696(7) 0.4757(10) 0.4223(5)
C30_7 C 0.1474(8) 0.5269(10) 0.4215(5)
N3_7 N 0.1403(7) 0.5316(8) 0.4600(2)
N4_7 N 0.2853(6) 0.4694(9) 0.4603(3)
C31_7 C 0.0853(9) 0.5538(12) 0.4045(4)
H13_7 H 0.0773 0.5586 0.3788
C32_7 C 0.3341(10) 0.4482(13) 0.4050(4)
H14_7 H 0.3406 0.4454 0.3791
C33_7 C 0.3549(11) 0.4415(12) 0.4662(3)
C34_7 C 0.0762(8) 0.5567(11) 0.4658(3)
C35_7 C 0.0379(11) 0.5718(13) 0.4323(6)
C36_7 C 0.3871(11) 0.4258(13) 0.4311(6)
H16_7 H 0.4329 0.4053 0.4264
Cu2_12 Cu 0.7876(2) 0.5013(3) 0.5000
C1_8 C 0.7700(11) 0.6348(9) 0.7128(7)
C2_8 C 0.7752(10) 0.3667(8) 0.7121(4)
O1_8 O 0.7419(5) 0.6307(6) 0.7464(3)
O5_8 O 0.6496(7) 0.6629(7) 0.8165(3)
C3_8 C 0.7740(11) 0.5634(5) 0.6948(5)
C4_8 C 0.7703(11) 0.5029(5) 0.7163(5)
H1_8 H 0.7646 0.5039 0.7423
C5_8 C 0.7759(9) 0.4394(5) 0.6957(5)
C6_8 C 0.7851(13) 0.4333(8) 0.6564(6)
H2_8 H 0.7894 0.3885 0.6441
C7_8 C 0.7873(12) 0.4999(7) 0.6380(4)
C8_8 C 0.7829(12) 0.5651(7) 0.6554(5)
H3_8 H 0.7856 0.6091 0.6421
C9_8 C 0.7902(7) 0.4993(10) 0.5966(4)
C10_8 C 0.7304(7) 0.5243(10) 0.5777(5)
C11_8 C 0.8526(8) 0.4731(10) 0.5785(5)
N1_8 N 0.8597(7) 0.4684(8) 0.5400(2)
N2_8 N 0.7147(6) 0.5306(9) 0.5397(3)
C12_8 C 0.9147(9) 0.4462(12) 0.5955(4)
H4_8 H 0.9227 0.4414 0.6212
C13_8 C 0.6659(10) 0.5518(13) 0.5950(4)
H5_8 H 0.6594 0.5546 0.6209
C14_8 C 0.6451(11) 0.5585(12) 0.5338(3)
C15_8 C 0.9238(8) 0.4433(11) 0.5342(3)
C16_12 C 0.9549(13) 0.4290(19) 0.5000
C17_12 C 0.6060(16) 0.5681(14) 0.5000
H7_12 H 0.5564 0.5802 0.5000
C18_8 C 0.9621(11) 0.4282(13) 0.5677(6)
C19_8 C 0.6129(11) 0.5742(13) 0.5689(6)
H9_8 H 0.5671 0.5947 0.5736
C20_8 C 0.7700(11) 0.6348(9) 0.2872(7)
C21_8 C 0.7752(10) 0.3667(8) 0.2879(4)
O6_8 O 0.7419(5) 0.6307(6) 0.2536(3)
O16_8 O 0.6496(7) 0.6629(7) 0.1835(3)
C22_8 C 0.7740(11) 0.5634(5) 0.3052(5)
C23_8 C 0.7703(11) 0.5029(5) 0.2837(5)
H10_8 H 0.7646 0.5039 0.2577
C24_8 C 0.7759(9) 0.4394(5) 0.3043(5)
C25_8 C 0.7851(13) 0.4333(8) 0.3436(6)
H11_8 H 0.7894 0.3885 0.3559
C26_8 C 0.7873(12) 0.4999(7) 0.3620(4)
C27_8 C 0.7829(12) 0.5651(7) 0.3446(5)
H12_8 H 0.7856 0.6091 0.3579
C28_8 C 0.7902(7) 0.4993(10) 0.4034(4)
C29_8 C 0.7304(7) 0.5243(10) 0.4223(5)
C30_8 C 0.8526(8) 0.4731(10) 0.4215(5)
N3_8 N 0.8597(7) 0.4684(8) 0.4600(2)
N4_8 N 0.7147(6) 0.5306(9) 0.4603(3)
C31_8 C 0.9147(9) 0.4462(12) 0.4045(4)
H13_8 H 0.9227 0.4414 0.3788
C32_8 C 0.6659(10) 0.5518(13) 0.4050(4)
H14_8 H 0.6594 0.5546 0.3791
C33_8 C 0.6451(11) 0.5585(12) 0.4662(3)
C34_8 C 0.9238(8) 0.4433(11) 0.4658(3)
C35_8 C 0.9621(11) 0.4282(13) 0.4323(6)
C36_8 C 0.6129(11) 0.5742(13) 0.4311(6)
H16_8 H 0.5671 0.5947 0.4264
H6_9 H 0.5922 0.0013 0.5000
H8_5 H 0.5902 0.0095 0.5701
H15_5 H 0.5902 0.0095 0.4299
H6_10 H 0.4078 0.9987 0.5000
H8_6 H 0.4098 0.9905 0.5701
H15_6 H 0.4098 0.9905 0.4299
H6_11 H 0.9987 0.5922 0.5000
H8_7 H 0.9905 0.5902 0.5701
H15_7 H 0.9905 0.5902 0.4299
H6_12 H 0.0013 0.4078 0.5000
H8_8 H 0.0095 0.4098 0.5701
H15_8 H 0.0095 0.4098 0.4299
loop_
_geom_bond_atom_site_label_1
_geom_bond_atom_site_label_2
_geom_bond_site_symmetry_1
_geom_bond_site_symmetry_2
C2 O3 1_555 1_555
O3 Cu5 1_555 1_555
O4 C2 1_555 1_555
C5 C2 1_555 1_555
C6 C5 1_555 1_555
H2 C6 1_555 1_555
C7 C6 1_555 1_555
C9 C7 1_555 1_555
C11 C9 1_555 1_555
N1 C11 1_555 1_555
C12 C11 1_555 1_555
H4 C12 1_555 1_555
C15 N1 1_555 1_555
C16 C15 1_555 1_555
H6 C16 1_555 1_555
C18 C12 1_555 1_555
H8 C18 1_555 1_555
Cu6 O4 1_555 1_555
C15 C18 1_555 1_555
H6_2 C16_2 1_555 1_555
Cu7 O10 1_555 1_555
Cu8 O13 1_555 1_555
C21 O10 1_555 1_555
O13 C21 1_555 1_555
C24 C21 1_555 1_555
C25 C24 1_555 1_555
H11 C25 1_555 1_555
C26 C25 1_555 1_555
C28 C26 1_555 1_555
C30 C28 1_555 1_555
C31 C30 1_555 1_555
H13 C31 1_555 1_555
C34 C16_2 1_555 1_555
C35 C31 1_555 1_555
H15 C35 1_555 1_555
C30 N3 1_555 1_555
N3 C34 1_555 1_555
C34 C35 1_555 1_555
Cu1 O1 1_555 1_555
C1 O1 1_555 1_555
O2 C1 1_555 1_555
O5 Cu1 1_555 1_555
C3 C1 1_555 1_555
C4 C3 1_555 1_555
H1 C4 1_555 1_555
C8 C3 1_555 1_555
H3 C8 1_555 1_555
N2 Cu2 1_555 1_555
C13 C10 1_555 1_555
H5 C13 1_555 1_555
C14 N2 1_555 1_555
C17 C14 1_555 1_555
H7 C17 1_555 1_555
C19 C13 1_555 1_555
H9 C19 1_555 1_555
Cu4 O2 1_555 1_555
O8 Cu1 1_555 1_555
O11 Cu1 1_555 1_555
O14 Cu1 1_555 1_555
C10 N2 1_555 1_555
C14 C19 1_555 1_555
H7_2 C17_2 1_555 1_555
Cu3 O6 1_555 1_555
Cu9 O7 1_555 1_555
C20 O6 1_555 1_555
O7 C20 1_555 1_555
O9 Cu3 1_555 1_555
O12 Cu3 1_555 1_555
O15 Cu3 1_555 1_555
O16 Cu3 1_555 1_555
C22 C20 1_555 1_555
C23 C22 1_555 1_555
H10 C23 1_555 1_555
C27 C22 1_555 1_555
H12 C27 1_555 1_555
N4 Cu2_2 1_555 1_555
C32 C29 1_555 1_555
H14 C32 1_555 1_555
C33 C17_2 1_555 1_555
C36 C32 1_555 1_555
H16 C36 1_555 1_555
C29 N4 1_555 1_555
N4 C33 1_555 1_555
C33 C36 1_555 1_555
Cu1_2 O1_2 1_555 1_555
C1_2 O1_2 1_555 1_555
O2_2 C1_2 1_555 1_555
O5_2 Cu1_2 1_555 1_555
C3_2 C1_2 1_555 1_555
C4_2 C3_2 1_555 1_555
H1_2 C4_2 1_555 1_555
C8_2 C3_2 1_555 1_555
H3_2 C8_2 1_555 1_555
N2_2 Cu2_3 1_555 1_555
C13_2 C10_2 1_555 1_555
H5_2 C13_2 1_555 1_555
C14_2 N2_2 1_555 1_555
C17_3 C14_2 1_555 1_555
H7_3 C17_3 1_555 1_555
C19_2 C13_2 1_555 1_555
H9_2 C19_2 1_555 1_555
Cu4_2 O2_2 1_555 1_555
O8_2 Cu1_2 1_555 1_555
O11_2 Cu1_2 1_555 1_555
O14_2 Cu1_2 1_555 1_555
C10_2 N2_2 1_555 1_555
C14_2 C19_2 1_555 1_555
H7_4 C17_4 1_555 1_555
Cu3_2 O6_2 1_555 1_555
Cu9_2 O7_2 1_555 1_555
C20_2 O6_2 1_555 1_555
O7_2 C20_2 1_555 1_555
O9_2 Cu3_2 1_555 1_555
O12_2 Cu3_2 1_555 1_555
O15_2 Cu3_2 1_555 1_555
O16_2 Cu3_2 1_555 1_555
C22_2 C20_2 1_555 1_555
C23_2 C22_2 1_555 1_555
H10_2 C23_2 1_555 1_555
C27_2 C22_2 1_555 1_555
H12_2 C27_2 1_555 1_555
N4_2 Cu2_4 1_555 1_555
C32_2 C29_2 1_555 1_555
H14_2 C32_2 1_555 1_555
C33_2 C17_4 1_555 1_555
C36_2 C32_2 1_555 1_555
H16_2 C36_2 1_555 1_555
C29_2 N4_2 1_555 1_555
N4_2 C33_2 1_555 1_555
C33_2 C36_2 1_555 1_555
C2_2 O3_2 1_555 1_555
O3_2 Cu5_2 1_555 1_555
O4_2 C2_2 1_555 1_555
C5_2 C2_2 1_555 1_555
C6_2 C5_2 1_555 1_555
H2_2 C6_2 1_555 1_555
C7_2 C6_2 1_555 1_555
C9_2 C7_2 1_555 1_555
C11_2 C9_2 1_555 1_555
N1_2 C11_2 1_555 1_555
C12_2 C11_2 1_555 1_555
H4_2 C12_2 1_555 1_555
C15_2 N1_2 1_555 1_555
C16_3 C15_2 1_555 1_555
H6_3 C16_3 1_555 1_555
C18_2 C12_2 1_555 1_555
H8_2 C18_2 1_555 1_555
Cu6_2 O4_2 1_555 1_555
C15_2 C18_2 1_555 1_555
H6_4 C16_4 1_555 1_555
Cu7_2 O10_2 1_555 1_555
Cu8_2 O13_2 1_555 1_555
C21_2 O10_2 1_555 1_555
O13_2 C21_2 1_555 1_555
C24_2 C21_2 1_555 1_555
C25_2 C24_2 1_555 1_555
H11_2 C25_2 1_555 1_555
C26_2 C25_2 1_555 1_555
C28_2 C26_2 1_555 1_555
C30_2 C28_2 1_555 1_555
C31_2 C30_2 1_555 1_555
H13_2 C31_2 1_555 1_555
C34_2 C16_4 1_555 1_555
C35_2 C31_2 1_555 1_555
H15_2 C35_2 1_555 1_555
C30_2 N3_2 1_555 1_555
N3_2 C34_2 1_555 1_555
C34_2 C35_2 1_555 1_555
C2_3 O3_3 1_555 1_555
O3_3 Cu4 1_555 1_555
O14 C2_3 1_555 1_555
C5_3 C2_3 1_555 1_555
C6_3 C5_3 1_555 1_555
H2_3 C6_3 1_555 1_555
C7_3 C6_3 1_555 1_555
C9_3 C7_3 1_555 1_555
C11_3 C9_3 1_555 1_555
N1_3 C11_3 1_555 1_555
C12_3 C11_3 1_555 1_555
H4_3 C12_3 1_555 1_555
C15_3 N1_3 1_555 1_555
C16_5 C15_3 1_555 1_555
H6_5 C16_5 1_555 1_555
C18_3 C12_3 1_555 1_555
H8_3 C18_3 1_555 1_555
C15_3 C18_3 1_555 1_555
H6_6 C16_6 1_555 1_555
Cu9 O10_3 1_555 1_555
C21_3 O10_3 1_555 1_555
O15 C21_3 1_555 1_555
C24_3 C21_3 1_555 1_555
C25_3 C24_3 1_555 1_555
H11_3 C25_3 1_555 1_555
C26_3 C25_3 1_555 1_555
C28_3 C26_3 1_555 1_555
C30_3 C28_3 1_555 1_555
C31_3 C30_3 1_555 1_555
H13_3 C31_3 1_555 1_555
C34_3 C16_6 1_555 1_555
C35_3 C31_3 1_555 1_555
H15_3 C35_3 1_555 1_555
C30_3 N3_3 1_555 1_555
N3_3 C34_3 1_555 1_555
C34_3 C35_3 1_555 1_555
Cu6_2 O1_3 1_555 1_555
C1_3 O1_3 1_555 1_555
O2_3 C1_3 1_555 1_555
O5_3 Cu6_2 1_555 1_555
C3_3 C1_3 1_555 1_555
C4_3 C3_3 1_555 1_555
H1_3 C4_3 1_555 1_555
C8_3 C3_3 1_555 1_555
H3_3 C8_3 1_555 1_555
N2_3 Cu2_5 1_555 1_555
C13_3 C10_3 1_555 1_555
H5_3 C13_3 1_555 1_555
C14_3 N2_3 1_555 1_555
C17_5 C14_3 1_555 1_555
H7_5 C17_5 1_555 1_555
C19_3 C13_3 1_555 1_555
H9_3 C19_3 1_555 1_555
Cu5_2 O2_3 1_555 1_555
O8_3 Cu6_2 1_555 1_555
O11_3 Cu6_2 1_555 1_555
C10_3 N2_3 1_555 1_555
C14_3 C19_3 1_555 1_555
H7_6 C17_6 1_555 1_555
Cu8_2 O6_3 1_555 1_555
Cu7_2 O7_3 1_555 1_555
C20_3 O6_3 1_555 1_555
O7_3 C20_3 1_555 1_555
O9_3 Cu8_2 1_555 1_555
O12_3 Cu8_2 1_555 1_555
O16_3 Cu8_2 1_555 1_555
C22_3 C20_3 1_555 1_555
C23_3 C22_3 1_555 1_555
H10_3 C23_3 1_555 1_555
C27_3 C22_3 1_555 1_555
H12_3 C27_3 1_555 1_555
N4_3 Cu2_6 1_555 1_555
C32_3 C29_3 1_555 1_555
H14_3 C32_3 1_555 1_555
C33_3 C17_6 1_555 1_555
C36_3 C32_3 1_555 1_555
H16_3 C36_3 1_555 1_555
C29_3 N4_3 1_555 1_555
N4_3 C33_3 1_555 1_555
C33_3 C36_3 1_555 1_555
Cu6 O1_4 1_555 1_555
C1_4 O1_4 1_555 1_555
O2_4 C1_4 1_555 1_555
O5_4 Cu6 1_555 1_555
C3_4 C1_4 1_555 1_555
C4_4 C3_4 1_555 1_555
H1_4 C4_4 1_555 1_555
C8_4 C3_4 1_555 1_555
H3_4 C8_4 1_555 1_555
N2_4 Cu2_7 1_555 1_555
C13_4 C10_4 1_555 1_555
H5_4 C13_4 1_555 1_555
C14_4 N2_4 1_555 1_555
C17_7 C14_4 1_555 1_555
H7_7 C17_7 1_555 1_555
C19_4 C13_4 1_555 1_555
H9_4 C19_4 1_555 1_555
Cu5 O2_4 1_555 1_555
O8_4 Cu6 1_555 1_555
O11_4 Cu6 1_555 1_555
C10_4 N2_4 1_555 1_555
C14_4 C19_4 1_555 1_555
H7_8 C17_8 1_555 1_555
Cu8 O6_4 1_555 1_555
Cu7 O7_4 1_555 1_555
C20_4 O6_4 1_555 1_555
O7_4 C20_4 1_555 1_555
O9_4 Cu8 1_555 1_555
O12_4 Cu8 1_555 1_555
O16_4 Cu8 1_555 1_555
C22_4 C20_4 1_555 1_555
C23_4 C22_4 1_555 1_555
H10_4 C23_4 1_555 1_555
C27_4 C22_4 1_555 1_555
H12_4 C27_4 1_555 1_555
N4_4 Cu2_8 1_555 1_555
C32_4 C29_4 1_555 1_555
H14_4 C32_4 1_555 1_555
C33_4 C17_8 1_555 1_555
C36_4 C32_4 1_555 1_555
H16_4 C36_4 1_555 1_555
C29_4 N4_4 1_555 1_555
N4_4 C33_4 1_555 1_555
C33_4 C36_4 1_555 1_555
C2_4 O3_4 1_555 1_555
O3_4 Cu4_2 1_555 1_555
O14_2 C2_4 1_555 1_555
C5_4 C2_4 1_555 1_555
C6_4 C5_4 1_555 1_555
H2_4 C6_4 1_555 1_555
C7_4 C6_4 1_555 1_555
C9_4 C7_4 1_555 1_555
C11_4 C9_4 1_555 1_555
N1_4 C11_4 1_555 1_555
C12_4 C11_4 1_555 1_555
H4_4 C12_4 1_555 1_555
C15_4 N1_4 1_555 1_555
C16_7 C15_4 1_555 1_555
H6_7 C16_7 1_555 1_555
C18_4 C12_4 1_555 1_555
H8_4 C18_4 1_555 1_555
C15_4 C18_4 1_555 1_555
H6_8 C16_8 1_555 1_555
Cu9_2 O10_4 1_555 1_555
C21_4 O10_4 1_555 1_555
O15_2 C21_4 1_555 1_555
C24_4 C21_4 1_555 1_555
C25_4 C24_4 1_555 1_555
H11_4 C25_4 1_555 1_555
C26_4 C25_4 1_555 1_555
C28_4 C26_4 1_555 1_555
C30_4 C28_4 1_555 1_555
C31_4 C30_4 1_555 1_555
H13_4 C31_4 1_555 1_555
C34_4 C16_8 1_555 1_555
C35_4 C31_4 1_555 1_555
H15_4 C35_4 1_555 1_555
C30_4 N3_4 1_555 1_555
N3_4 C34_4 1_555 1_555
C34_4 C35_4 1_555 1_555
Cu9_2 O1_5 1_555 1_555
Cu2_9 N1_5 1_555 1_555
C1_5 O1_5 1_555 1_555
C2_5 O12_3 1_555 1_555
O9_2 C1_5 1_555 1_555
O4_3 C2_5 1_555 1_555
O5_5 Cu9_2 1_555 1_555
C3_5 C1_5 1_555 1_555
C4_5 C3_5 1_555 1_555
H1_5 C4_5 1_555 1_555
C5_5 C2_5 1_555 1_555
C6_5 C5_5 1_555 1_555
H2_5 C6_5 1_555 1_555
C7_5 C6_5 1_555 1_555
C8_5 C3_5 1_555 1_555
H3_5 C8_5 1_555 1_555
C9_5 C7_5 1_555 1_555
C10_5 C9_5 1_555 1_555
C11_5 C9_5 1_555 1_555
N1_5 C11_5 1_555 1_555
N2_5 Cu2_9 1_555 1_555
C12_5 C11_5 1_555 1_555
H4_5 C12_5 1_555 1_555
C13_5 C10_5 1_555 1_555
H5_5 C13_5 1_555 1_555
C14_5 N2_5 1_555 1_555
C15_5 N1_5 1_555 1_555
C16_9 C15_5 1_555 1_555
C17_9 C14_5 1_555 1_555
H7_9 C17_9 1_555 1_555
C18_5 C12_5 1_555 1_555
C19_5 C13_5 1_555 1_555
H9_5 C19_5 1_555 1_555
Cu4_2 O6_5 1_555 1_555
Cu7_2 O4_3 1_555 1_555
Cu5_2 O13_3 1_555 1_555
C20_5 O6_5 1_555 1_555
C21_5 O11_3 1_555 1_555
O8_2 C20_5 1_555 1_555
O13_3 C21_5 1_555 1_555
O14_3 Cu9_2 1_555 1_555
O15_3 Cu4_2 1_555 1_555
O16_5 Cu4_2 1_555 1_555
C22_5 C20_5 1_555 1_555
C23_5 C22_5 1_555 1_555
H10_5 C23_5 1_555 1_555
C24_5 C21_5 1_555 1_555
C25_5 C24_5 1_555 1_555
H11_5 C25_5 1_555 1_555
C26_5 C25_5 1_555 1_555
C27_5 C22_5 1_555 1_555
H12_5 C27_5 1_555 1_555
C28_5 C26_5 1_555 1_555
C29_5 C28_5 1_555 1_555
C30_5 C28_5 1_555 1_555
N3_5 Cu2_9 1_555 1_555
N4_5 Cu2_9 1_555 1_555
C31_5 C30_5 1_555 1_555
H13_5 C31_5 1_555 1_555
C32_5 C29_5 1_555 1_555
H14_5 C32_5 1_555 1_555
C33_5 C17_9 1_555 1_555
C34_5 C16_9 1_555 1_555
C35_5 C31_5 1_555 1_555
C36_5 C32_5 1_555 1_555
H16_5 C36_5 1_555 1_555
C4_5 C5_5 1_555 1_555
C7_5 C8_5 1_555 1_555
C10_5 N2_5 1_555 1_555
C14_5 C19_5 1_555 1_555
C15_5 C18_5 1_555 1_555
C23_5 C24_5 1_555 1_555
C26_5 C27_5 1_555 1_555
C29_5 N4_5 1_555 1_555
C30_5 N3_5 1_555 1_555
N3_5 C34_5 1_555 1_555
N4_5 C33_5 1_555 1_555
C33_5 C36_5 1_555 1_555
C34_5 C35_5 1_555 1_555
Cu9 O1_6 1_555 1_555
Cu2_10 N1_6 1_555 1_555
C1_6 O1_6 1_555 1_555
C2_6 O12_4 1_555 1_555
O9 C1_6 1_555 1_555
O4_4 C2_6 1_555 1_555
O5_6 Cu9 1_555 1_555
C3_6 C1_6 1_555 1_555
C4_6 C3_6 1_555 1_555
H1_6 C4_6 1_555 1_555
C5_6 C2_6 1_555 1_555
C6_6 C5_6 1_555 1_555
H2_6 C6_6 1_555 1_555
C7_6 C6_6 1_555 1_555
C8_6 C3_6 1_555 1_555
H3_6 C8_6 1_555 1_555
C9_6 C7_6 1_555 1_555
C10_6 C9_6 1_555 1_555
C11_6 C9_6 1_555 1_555
N1_6 C11_6 1_555 1_555
N2_6 Cu2_10 1_555 1_555
C12_6 C11_6 1_555 1_555
H4_6 C12_6 1_555 1_555
C13_6 C10_6 1_555 1_555
H5_6 C13_6 1_555 1_555
C14_6 N2_6 1_555 1_555
C15_6 N1_6 1_555 1_555
C16_10 C15_6 1_555 1_555
C17_10 C14_6 1_555 1_555
H7_10 C17_10 1_555 1_555
C18_6 C12_6 1_555 1_555
C19_6 C13_6 1_555 1_555
H9_6 C19_6 1_555 1_555
Cu4 O6_6 1_555 1_555
Cu7 O4_4 1_555 1_555
Cu5 O13_4 1_555 1_555
C20_6 O6_6 1_555 1_555
C21_6 O11_4 1_555 1_555
O8 C20_6 1_555 1_555
O13_4 C21_6 1_555 1_555
O14_4 Cu9 1_555 1_555
O15_4 Cu4 1_555 1_555
O16_6 Cu4 1_555 1_555
C22_6 C20_6 1_555 1_555
C23_6 C22_6 1_555 1_555
H10_6 C23_6 1_555 1_555
C24_6 C21_6 1_555 1_555
C25_6 C24_6 1_555 1_555
H11_6 C25_6 1_555 1_555
C26_6 C25_6 1_555 1_555
C27_6 C22_6 1_555 1_555
H12_6 C27_6 1_555 1_555
C28_6 C26_6 1_555 1_555
C29_6 C28_6 1_555 1_555
C30_6 C28_6 1_555 1_555
N3_6 Cu2_10 1_555 1_555
N4_6 Cu2_10 1_555 1_555
C31_6 C30_6 1_555 1_555
H13_6 C31_6 1_555 1_555
C32_6 C29_6 1_555 1_555
H14_6 C32_6 1_555 1_555
C33_6 C17_10 1_555 1_555
C34_6 C16_10 1_555 1_555
C35_6 C31_6 1_555 1_555
C36_6 C32_6 1_555 1_555
H16_6 C36_6 1_555 1_555
C4_6 C5_6 1_555 1_555
C7_6 C8_6 1_555 1_555
C10_6 N2_6 1_555 1_555
C14_6 C19_6 1_555 1_555
C15_6 C18_6 1_555 1_555
C23_6 C24_6 1_555 1_555
C26_6 C27_6 1_555 1_555
C29_6 N4_6 1_555 1_555
C30_6 N3_6 1_555 1_555
N3_6 C34_6 1_555 1_555
N4_6 C33_6 1_555 1_555
C33_6 C36_6 1_555 1_555
C34_6 C35_6 1_555 1_555
Cu7 O1_7 1_555 1_555
Cu2_11 N1_7 1_555 1_555
C1_7 O1_7 1_555 1_555
C2_7 O12_2 1_555 1_555
O9_4 C1_7 1_555 1_555
O14_3 C2_7 1_555 1_555
O5_7 Cu7 1_555 1_555
C3_7 C1_7 1_555 1_555
C4_7 C3_7 1_555 1_555
H1_7 C4_7 1_555 1_555
C5_7 C2_7 1_555 1_555
C6_7 C5_7 1_555 1_555
H2_7 C6_7 1_555 1_555
C7_7 C6_7 1_555 1_555
C8_7 C3_7 1_555 1_555
H3_7 C8_7 1_555 1_555
C9_7 C7_7 1_555 1_555
C10_7 C9_7 1_555 1_555
C11_7 C9_7 1_555 1_555
N1_7 C11_7 1_555 1_555
N2_7 Cu2_11 1_555 1_555
C12_7 C11_7 1_555 1_555
H4_7 C12_7 1_555 1_555
C13_7 C10_7 1_555 1_555
H5_7 C13_7 1_555 1_555
C14_7 N2_7 1_555 1_555
C15_7 N1_7 1_555 1_555
C16_11 C15_7 1_555 1_555
C17_11 C14_7 1_555 1_555
H7_11 C17_11 1_555 1_555
C18_7 C12_7 1_555 1_555
C19_7 C13_7 1_555 1_555
H9_7 C19_7 1_555 1_555
Cu5 O6_7 1_555 1_555
C20_7 O6_7 1_555 1_555
C21_7 O11_2 1_555 1_555
O8_4 C20_7 1_555 1_555
O15_3 C21_7 1_555 1_555
O16_7 Cu5 1_555 1_555
C22_7 C20_7 1_555 1_555
C23_7 C22_7 1_555 1_555
H10_7 C23_7 1_555 1_555
C24_7 C21_7 1_555 1_555
C25_7 C24_7 1_555 1_555
H11_7 C25_7 1_555 1_555
C26_7 C25_7 1_555 1_555
C27_7 C22_7 1_555 1_555
H12_7 C27_7 1_555 1_555
C28_7 C26_7 1_555 1_555
C29_7 C28_7 1_555 1_555
C30_7 C28_7 1_555 1_555
N3_7 Cu2_11 1_555 1_555
N4_7 Cu2_11 1_555 1_555
C31_7 C30_7 1_555 1_555
H13_7 C31_7 1_555 1_555
C32_7 C29_7 1_555 1_555
H14_7 C32_7 1_555 1_555
C33_7 C17_11 1_555 1_555
C34_7 C16_11 1_555 1_555
C35_7 C31_7 1_555 1_555
C36_7 C32_7 1_555 1_555
H16_7 C36_7 1_555 1_555
C4_7 C5_7 1_555 1_555
C7_7 C8_7 1_555 1_555
C10_7 N2_7 1_555 1_555
C14_7 C19_7 1_555 1_555
C15_7 C18_7 1_555 1_555
C23_7 C24_7 1_555 1_555
C26_7 C27_7 1_555 1_555
C29_7 N4_7 1_555 1_555
C30_7 N3_7 1_555 1_555
N3_7 C34_7 1_555 1_555
N4_7 C33_7 1_555 1_555
C33_7 C36_7 1_555 1_555
C34_7 C35_7 1_555 1_555
Cu7_2 O1_8 1_555 1_555
Cu2_12 N1_8 1_555 1_555
C1_8 O1_8 1_555 1_555
C2_8 O12 1_555 1_555
O9_3 C1_8 1_555 1_555
O14_4 C2_8 1_555 1_555
O5_8 Cu7_2 1_555 1_555
C3_8 C1_8 1_555 1_555
C4_8 C3_8 1_555 1_555
H1_8 C4_8 1_555 1_555
C5_8 C2_8 1_555 1_555
C6_8 C5_8 1_555 1_555
H2_8 C6_8 1_555 1_555
C7_8 C6_8 1_555 1_555
C8_8 C3_8 1_555 1_555
H3_8 C8_8 1_555 1_555
C9_8 C7_8 1_555 1_555
C10_8 C9_8 1_555 1_555
C11_8 C9_8 1_555 1_555
N1_8 C11_8 1_555 1_555
N2_8 Cu2_12 1_555 1_555
C12_8 C11_8 1_555 1_555
H4_8 C12_8 1_555 1_555
C13_8 C10_8 1_555 1_555
H5_8 C13_8 1_555 1_555
C14_8 N2_8 1_555 1_555
C15_8 N1_8 1_555 1_555
C16_12 C15_8 1_555 1_555
C17_12 C14_8 1_555 1_555
H7_12 C17_12 1_555 1_555
C18_8 C12_8 1_555 1_555
C19_8 C13_8 1_555 1_555
H9_8 C19_8 1_555 1_555
Cu5_2 O6_8 1_555 1_555
C20_8 O6_8 1_555 1_555
C21_8 O11 1_555 1_555
O8_3 C20_8 1_555 1_555
O15_4 C21_8 1_555 1_555
O16_8 Cu5_2 1_555 1_555
C22_8 C20_8 1_555 1_555
C23_8 C22_8 1_555 1_555
H10_8 C23_8 1_555 1_555
C24_8 C21_8 1_555 1_555
C25_8 C24_8 1_555 1_555
H11_8 C25_8 1_555 1_555
C26_8 C25_8 1_555 1_555
C27_8 C22_8 1_555 1_555
H12_8 C27_8 1_555 1_555
C28_8 C26_8 1_555 1_555
C29_8 C28_8 1_555 1_555
C30_8 C28_8 1_555 1_555
N3_8 Cu2_12 1_555 1_555
N4_8 Cu2_12 1_555 1_555
C31_8 C30_8 1_555 1_555
H13_8 C31_8 1_555 1_555
C32_8 C29_8 1_555 1_555
H14_8 C32_8 1_555 1_555
C33_8 C17_12 1_555 1_555
C34_8 C16_12 1_555 1_555
C35_8 C31_8 1_555 1_555
C36_8 C32_8 1_555 1_555
H16_8 C36_8 1_555 1_555
C4_8 C5_8 1_555 1_555
C7_8 C8_8 1_555 1_555
C10_8 N2_8 1_555 1_555
C14_8 C19_8 1_555 1_555
C15_8 C18_8 1_555 1_555
C23_8 C24_8 1_555 1_555
C26_8 C27_8 1_555 1_555
C29_8 N4_8 1_555 1_555
C30_8 N3_8 1_555 1_555
N3_8 C34_8 1_555 1_555
N4_8 C33_8 1_555 1_555
C33_8 C36_8 1_555 1_555
C34_8 C35_8 1_555 1_555

#END
