
###############################################################################
#
# This file contains modified crystal structure data generated from the
# MOF subset of the Cambridge Structural Database (CSD) v543 
# hosted by the Cambridge Crystallographic Data Centre (CCDC).
#
# This work is licensed under the Creative Commons
# Attribution-NonCommercial-ShareAlike 4.0 International License.
# To view a copy of this license, visit
# http://creativecommons.org/licenses/by-nc-sa/4.0/
# or send a letter to
# Creative Commons, PO Box 1866, Mountain View, CA 94042, USA.
#
# CIF created using the CSD Python API on 29 September 2022
# The structure has been converted into the P1 space group
# The structure has a 3D framework
# The original CSD entry GANLEQ is in the orthorhombic crystal system
# The framework has been calculated to contain at least 10.0% void space
# The void calculation uses a probe of radius 1.32A, grid spacing 0.4
#
###############################################################################

data_GANLEQ
_chemical_formula_moiety         '(C216 H168 Eu8 O68)n'
_symmetry_cell_setting           triclinic
_symmetry_space_group_name_H-M   'P 1'
_symmetry_Int_Tables_number      1
_space_group_name_Hall           'P 1'
loop_
_symmetry_equiv_pos_site_id
_symmetry_equiv_pos_as_xyz
1 x,y,z
_cell_length_a                   26.7470(6)
_cell_length_b                   7.36830(10)
_cell_length_c                   34.7907(7)
_cell_angle_alpha                90
_cell_angle_beta                 90
_cell_angle_gamma                90
_cell_volume                     6856.55
loop_
_atom_site_label
_atom_site_type_symbol
_atom_site_fract_x
_atom_site_fract_y
_atom_site_fract_z
Eu1 Eu 0.34748(2) 0.16115(3) 0.11779(2)
O1 O 0.34526(10) 0.3075(5) 0.18046(8)
O2 O 0.27191(10) 0.2244(4) 0.15875(7)
O5 O 0.27799(10) 0.4125(4) 0.57484(7)
O6 O 0.34989(10) 0.3569(4) 0.54685(7)
O7 O 0.41599(11) 0.3693(5) 0.10628(9)
H1 H 0.442567 0.375390 0.094027
H2 H 0.421047 0.413170 0.127887
O8 O 0.31434(11) 0.4593(4) 0.09850(8)
H3 H 0.292625 0.491866 0.082922
H4 H 0.338995 0.526275 0.095582
C1 C 0.29831(15) 0.2937(5) 0.18489(10)
C2 C 0.27527(14) 0.3607(5) 0.22133(9)
C3 C 0.22390(14) 0.3643(5) 0.22557(10)
H7 H 0.203112 0.326125 0.204961
C4 C 0.20254(15) 0.4228(6) 0.25950(10)
H8 H 0.167162 0.426835 0.261796
C5 C 0.23234(13) 0.4762(5) 0.29054(9)
C6 C 0.28372(14) 0.4728(5) 0.28599(10)
H9 H 0.304599 0.509418 0.306675
C7 C 0.30524(14) 0.4168(5) 0.25172(10)
H10 H 0.340586 0.416672 0.249008
C10 C 0.00971(15) 0.7905(6) 0.40064(11)
C11 C 0.05734(15) 0.7169(6) 0.39879(11)
H12 H 0.071929 0.666905 0.421319
C12 C 0.08438(14) 0.7149(5) 0.36426(9)
C13 C 0.06037(15) 0.7776(6) 0.33123(10)
H13 H 0.076876 0.769605 0.307114
C14 C 0.01241(15) 0.8518(6) 0.33313(11)
C15 C 0.30457(14) 0.4001(5) 0.54458(10)
C16 C 0.28090(14) 0.4356(5) 0.50631(10)
C17 C 0.31016(15) 0.4732(6) 0.47428(10)
H15 H 0.345570 0.473672 0.476371
C18 C 0.28749(14) 0.5103(5) 0.43914(9)
H16 H 0.307663 0.540689 0.417605
C19 C 0.23589(14) 0.5037(5) 0.43503(9)
C20 C 0.20729(15) 0.4610(6) 0.46737(10)
H17 H 0.171934 0.454600 0.465165
C21 C 0.22948(15) 0.4282(6) 0.50241(10)
H18 H 0.209292 0.400146 0.524078
C22 C 0.20869(13) 0.5285(5) 0.32809(9)
C23 C 0.16073(13) 0.6029(5) 0.32873(9)
H19 H 0.143986 0.625138 0.305113
C24 C 0.13667(14) 0.6455(5) 0.36326(9)
C25 C 0.16330(13) 0.6172(5) 0.39742(10)
H20 H 0.148330 0.651139 0.421120
C26 C 0.21078(13) 0.5413(5) 0.39782(9)
C27 C 0.23320(14) 0.4945(5) 0.36275(9)
H21 H 0.265293 0.439245 0.362592
Eu3 Eu 0.34748(2) 0.33885(3) 0.61779(2)
O10 O 0.41946(11) 0.0387(5) 0.15730(8)
O12 O 0.27799(10) 0.0875(4) 0.07484(7)
O13 O 0.34989(10) 0.1431(4) 0.04685(7)
O3 O 0.41946(11) 0.4613(5) 0.65730(8)
O4 O 0.41464(10) 0.5483(4) 0.59718(7)
H4_2 H 0.838995 0.973725 0.904418
H9_2 H 0.804599 0.990582 0.693325
C8 C 0.43735(14) 0.5459(6) 0.62903(10)
C9 C 0.48697(14) 0.6378(5) 0.63223(11)
C10_2 C 0.50971(15) 0.7095(6) 0.59936(11)
H11 H 0.492341 0.707783 0.575547
C11_2 C 0.55734(15) 0.7831(6) 0.60121(11)
H12_2 H 0.571929 0.833095 0.578681
C12_2 C 0.58438(14) 0.7851(5) 0.63574(9)
C13_2 C 0.56037(15) 0.7224(6) 0.66877(10)
H13_2 H 0.576876 0.730395 0.692886
C14_2 C 0.51241(15) 0.6482(6) 0.66687(11)
H14 H 0.496993 0.604227 0.689634
C18_2 C 0.78749(14) 0.9897(5) 0.56086(9)
H16_2 H 0.807663 0.959311 0.582395
C19_2 C 0.73589(14) 0.9963(5) 0.56497(9)
C22_2 C 0.70869(13) 0.9715(5) 0.67191(9)
C23_2 C 0.66073(13) 0.8971(5) 0.67127(9)
H19_2 H 0.643986 0.874862 0.694887
C24_2 C 0.63667(14) 0.8545(5) 0.63674(9)
C25_2 C 0.66330(13) 0.8828(5) 0.60258(10)
H20_2 H 0.648330 0.848861 0.578880
C26_2 C 0.71078(13) 0.9587(5) 0.60218(9)
C15_2 C 0.30457(14) 0.0999(5) 0.04458(10)
C16_2 C 0.28090(14) 0.0644(5) 0.00631(10)
C21_2 C 0.22948(15) 0.0718(6) 0.00241(10)
H18_2 H 0.209292 0.099854 0.024078
O1_2 O 0.34526(10) 0.1925(5) 0.68046(8)
O2_2 O 0.27191(10) 0.2756(4) 0.65875(7)
O7_2 O 0.41599(11) 0.1307(5) 0.60628(9)
H1_2 H 0.442567 0.124610 0.594027
H2_2 H 0.421047 0.086830 0.627887
O8_2 O 0.31434(11) 0.0407(4) 0.59850(8)
H3_2 H 0.292625 0.008134 0.582922
O9 O 0.32163(12) 0.6422(4) 0.63688(8)
H5 H 0.340574 0.686566 0.620484
H6 H 0.291964 0.665906 0.632034
C1_2 C 0.29831(15) 0.2063(5) 0.68489(10)
C2_2 C 0.27527(14) 0.1393(5) 0.72133(9)
C3_2 C 0.22390(14) 0.1357(5) 0.72557(10)
H7_2 H 0.203112 0.173875 0.704961
C4_2 C 0.20254(15) 0.0772(6) 0.75950(10)
H8_2 H 0.167162 0.073165 0.761796
C5_2 C 0.23234(13) 0.0238(5) 0.79054(9)
C6_2 C 0.28372(14) 0.0272(5) 0.78599(10)
C7_2 C 0.30524(14) 0.0832(5) 0.75172(10)
H10_2 H 0.340586 0.083328 0.749008
C17_2 C 0.31016(15) 0.0268(6) 0.97428(10)
H15_2 H 0.345570 0.026328 0.976371
C20_2 C 0.20729(15) 0.0390(6) 0.96737(10)
H17_2 H 0.171934 0.045400 0.965165
C27_2 C 0.23320(14) 0.0055(5) 0.86275(9)
H21_2 H 0.265293 0.060755 0.862592
O9_2 O 0.32163(12) 0.8578(4) 0.13688(8)
H5_2 H 0.340574 0.813434 0.120484
H6_2 H 0.291964 0.834094 0.132034
O11 O 0.41464(10) 0.9517(4) 0.09718(7)
O3_2 O 0.91946(11) 0.0387(5) 0.34270(8)
Eu2 Eu 0.84748(2) 0.16115(3) 0.38221(2)
Eu1_2 Eu 0.84748(2) 0.33885(3) 0.88221(2)
O1_3 O 0.84526(10) 0.1925(5) 0.81954(8)
O2_3 O 0.77191(10) 0.2756(4) 0.84125(7)
O5_2 O 0.77799(10) 0.0875(4) 0.42516(7)
O6_2 O 0.84989(10) 0.1431(4) 0.45315(7)
O7_3 O 0.91599(11) 0.1307(5) 0.89372(9)
H1_3 H 0.942567 0.124610 0.905973
H2_3 H 0.921047 0.086830 0.872113
O8_3 O 0.81434(11) 0.0407(4) 0.90150(8)
H3_3 H 0.792625 0.008134 0.917078
O9_3 O 0.82163(12) 0.6422(4) 0.86312(8)
H5_3 H 0.840574 0.686566 0.879516
H6_3 H 0.791964 0.665906 0.867966
C1_3 C 0.79831(15) 0.2063(5) 0.81511(10)
C2_3 C 0.77527(14) 0.1393(5) 0.77867(9)
C3_3 C 0.72390(14) 0.1357(5) 0.77443(10)
H7_3 H 0.703112 0.173875 0.795039
C4_3 C 0.70254(15) 0.0772(6) 0.74050(10)
H8_3 H 0.667162 0.073165 0.738204
C5_3 C 0.73234(13) 0.0238(5) 0.70946(9)
C6_3 C 0.78372(14) 0.0272(5) 0.71401(10)
C7_3 C 0.80524(14) 0.0832(5) 0.74828(10)
H10_3 H 0.840586 0.083328 0.750992
C15_3 C 0.80457(14) 0.0999(5) 0.45542(10)
C16_3 C 0.78090(14) 0.0644(5) 0.49369(10)
C17_3 C 0.81016(15) 0.0268(6) 0.52572(10)
H15_3 H 0.845570 0.026328 0.523629
C20_3 C 0.70729(15) 0.0390(6) 0.53263(10)
H17_3 H 0.671934 0.045400 0.534835
C21_3 C 0.72948(15) 0.0718(6) 0.49759(10)
H18_3 H 0.709292 0.099854 0.475922
C27_3 C 0.73320(14) 0.0055(5) 0.63725(9)
H21_3 H 0.765293 0.060755 0.637408
O10_2 O 0.91946(11) 0.4613(5) 0.84270(8)
O11_2 O 0.91464(10) 0.5483(4) 0.90282(7)
O12_2 O 0.77799(10) 0.4125(4) 0.92516(7)
O13_2 O 0.84989(10) 0.3569(4) 0.95315(7)
O1_4 O 0.84526(10) 0.3075(5) 0.31954(8)
O2_4 O 0.77191(10) 0.2244(4) 0.34125(7)
O7_4 O 0.91599(11) 0.3693(5) 0.39372(9)
H1_4 H 0.942567 0.375390 0.405973
H2_4 H 0.921047 0.413170 0.372113
O8_4 O 0.81434(11) 0.4593(4) 0.40150(8)
H3_4 H 0.792625 0.491866 0.417078
H4_3 H 0.838995 0.526275 0.404418
C1_4 C 0.79831(15) 0.2937(5) 0.31511(10)
C2_4 C 0.77527(14) 0.3607(5) 0.27867(9)
C3_4 C 0.72390(14) 0.3643(5) 0.27443(10)
H7_4 H 0.703112 0.326125 0.295039
C4_4 C 0.70254(15) 0.4228(6) 0.24050(10)
H8_4 H 0.667162 0.426835 0.238204
C5_4 C 0.73234(13) 0.4762(5) 0.20946(9)
C6_4 C 0.78372(14) 0.4728(5) 0.21401(10)
H9_3 H 0.804599 0.509418 0.193325
C7_4 C 0.80524(14) 0.4168(5) 0.24828(10)
H10_4 H 0.840586 0.416672 0.250992
C8_2 C 0.43735(14) 0.9541(6) 0.12903(10)
C9_2 C 0.48697(14) 0.8622(5) 0.13223(11)
C10_3 C 0.50971(15) 0.7905(6) 0.09936(11)
H11_2 H 0.492341 0.792217 0.075547
C11_3 C 0.55734(15) 0.7169(6) 0.10121(11)
H12_3 H 0.571929 0.666905 0.078681
C12_3 C 0.58438(14) 0.7149(5) 0.13574(9)
C13_3 C 0.56037(15) 0.7776(6) 0.16877(10)
H13_3 H 0.576876 0.769605 0.192886
C14_3 C 0.51241(15) 0.8518(6) 0.16687(11)
H14_2 H 0.496993 0.895773 0.189634
C17_4 C 0.81016(15) 0.4732(6) 0.02572(10)
H15_4 H 0.845570 0.473672 0.023629
C18_3 C 0.78749(14) 0.5103(5) 0.06086(9)
H16_3 H 0.807663 0.540689 0.082395
C19_3 C 0.73589(14) 0.5037(5) 0.06497(9)
C20_4 C 0.70729(15) 0.4610(6) 0.03263(10)
H17_4 H 0.671934 0.454600 0.034835
C22_3 C 0.70869(13) 0.5285(5) 0.17191(9)
C23_3 C 0.66073(13) 0.6029(5) 0.17127(9)
H19_3 H 0.643986 0.625138 0.194887
C24_3 C 0.63667(14) 0.6455(5) 0.13674(9)
C25_3 C 0.66330(13) 0.6172(5) 0.10258(10)
H20_3 H 0.648330 0.651139 0.078880
C26_3 C 0.71078(13) 0.5413(5) 0.10218(9)
C27_4 C 0.73320(14) 0.4945(5) 0.13725(9)
H21_4 H 0.765293 0.439245 0.137408
C15_4 C 0.80457(14) 0.4001(5) 0.95542(10)
C16_4 C 0.78090(14) 0.4356(5) 0.99369(10)
C21_4 C 0.72948(15) 0.4282(6) 0.99759(10)
H18_4 H 0.709292 0.400146 0.975922
C8_3 C 0.93735(14) 0.5459(6) 0.87097(10)
C9_3 C 0.98697(14) 0.6378(5) 0.86777(11)
H11_3 H 0.992341 0.707783 0.924453
H14_3 H 0.996993 0.604227 0.810366
O4_2 O 0.91464(10) 0.9517(4) 0.40282(7)
C8_4 C 0.93735(14) 0.9541(6) 0.37097(10)
C9_4 C 0.98697(14) 0.8622(5) 0.36777(11)
H11_4 H 0.992341 0.792217 0.424453
H14_4 H 0.996993 0.895773 0.310366
O9_4 O 0.82163(12) 0.8578(4) 0.36312(8)
H5_4 H 0.840574 0.813434 0.379516
H6_4 H 0.791964 0.834094 0.367966
O9_5 O 0.17837(12) 0.1422(4) 0.63688(8)
H5_5 H 0.159426 0.186566 0.620484
H6_5 H 0.208036 0.165906 0.632034
O11_3 O 0.08536(10) 0.0483(4) 0.59718(7)
C8_5 C 0.06265(14) 0.0459(6) 0.62903(10)
C9_5 C 0.01303(14) 0.1378(5) 0.63223(11)
H11_5 H 0.007659 0.207783 0.575547
H14_5 H 0.003007 0.104227 0.689634
O5_3 O 0.22201(10) 0.5875(4) 0.07484(7)
O6_3 O 0.15011(10) 0.6431(4) 0.04685(7)
C15_5 C 0.19543(14) 0.5999(5) 0.04458(10)
C16_5 C 0.21910(14) 0.5644(5) 0.00631(10)
C21_5 C 0.27052(15) 0.5718(6) 0.00241(10)
H18_5 H 0.290708 0.599854 0.024078
Eu3_2 Eu 0.15252(2) 0.66115(3) 0.11779(2)
Eu1_3 Eu 0.15252(2) 0.83885(3) 0.61779(2)
O1_5 O 0.15474(10) 0.6925(5) 0.68046(8)
O2_5 O 0.22809(10) 0.7756(4) 0.65875(7)
O4_3 O 0.58536(10) 0.0483(4) 0.90282(7)
O7_5 O 0.08401(11) 0.6307(5) 0.60628(9)
H1_5 H 0.057433 0.624610 0.594027
H2_5 H 0.078953 0.586830 0.627887
O8_5 O 0.18566(11) 0.5407(4) 0.59850(8)
H3_5 H 0.207375 0.508134 0.582922
H4_4 H 0.161005 0.473725 0.595582
C1_5 C 0.20169(15) 0.7063(5) 0.68489(10)
C2_5 C 0.22473(14) 0.6393(5) 0.72133(9)
C3_5 C 0.27610(14) 0.6357(5) 0.72557(10)
H7_5 H 0.296888 0.673875 0.704961
C4_5 C 0.29746(15) 0.5772(6) 0.75950(10)
H8_5 H 0.332838 0.573165 0.761796
C5_5 C 0.26766(13) 0.5238(5) 0.79054(9)
C6_5 C 0.21628(14) 0.5272(5) 0.78599(10)
H9_4 H 0.195401 0.490582 0.806675
C7_5 C 0.19476(14) 0.5832(5) 0.75172(10)
H10_5 H 0.159414 0.583328 0.749008
C8_6 C 0.56265(14) 0.0459(6) 0.87097(10)
C9_6 C 0.51303(14) 0.1378(5) 0.86777(11)
C10_4 C 0.49029(15) 0.2095(6) 0.90064(11)
H11_6 H 0.507659 0.207783 0.924453
C11_4 C 0.44266(15) 0.2831(6) 0.89879(11)
H12_4 H 0.428071 0.333095 0.921319
C12_4 C 0.41562(14) 0.2851(5) 0.86426(9)
C13_4 C 0.43963(15) 0.2224(6) 0.83123(10)
H13_4 H 0.423124 0.230395 0.807114
C14_4 C 0.48759(15) 0.1482(6) 0.83313(11)
H14_6 H 0.503007 0.104227 0.810366
C17_5 C 0.18984(15) 0.5268(6) 0.97428(10)
H15_5 H 0.154430 0.526328 0.976371
C18_4 C 0.21251(14) 0.4897(5) 0.93914(9)
H16_4 H 0.192337 0.459311 0.917605
C19_4 C 0.26411(14) 0.4963(5) 0.93503(9)
C20_5 C 0.29271(15) 0.5390(6) 0.96737(10)
H17_5 H 0.328066 0.545400 0.965165
C22_4 C 0.29131(13) 0.4715(5) 0.82809(9)
C23_4 C 0.33927(13) 0.3971(5) 0.82873(9)
H19_4 H 0.356014 0.374862 0.805113
C24_4 C 0.36333(14) 0.3545(5) 0.86326(9)
C25_4 C 0.33670(13) 0.3828(5) 0.89742(10)
H20_4 H 0.351670 0.348861 0.921120
C26_4 C 0.28922(13) 0.4587(5) 0.89782(9)
C27_5 C 0.26680(14) 0.5055(5) 0.86275(9)
H21_5 H 0.234707 0.560755 0.862592
O10_3 O 0.08054(11) 0.9613(5) 0.65730(8)
O12_3 O 0.22201(10) 0.9125(4) 0.57484(7)
O13_3 O 0.15011(10) 0.8569(4) 0.54685(7)
O3_3 O 0.08054(11) 0.5387(5) 0.15730(8)
O4_4 O 0.08536(10) 0.4517(4) 0.09718(7)
C8_7 C 0.06265(14) 0.4541(6) 0.12903(10)
C9_7 C 0.01303(14) 0.3622(5) 0.13223(11)
H11_7 H 0.007659 0.292217 0.075547
H14_7 H 0.003007 0.395773 0.189634
O9_6 O 0.67837(12) 0.1422(4) 0.86312(8)
H5_6 H 0.659426 0.186566 0.879516
H6_6 H 0.708036 0.165906 0.867966
O1_6 O 0.15474(10) 0.8075(5) 0.18046(8)
O2_6 O 0.22809(10) 0.7244(4) 0.15875(7)
O7_6 O 0.08401(11) 0.8693(5) 0.10628(9)
H1_6 H 0.057433 0.875390 0.094027
H2_6 H 0.078953 0.913170 0.127887
O8_6 O 0.18566(11) 0.9593(4) 0.09850(8)
H3_6 H 0.207375 0.991866 0.082922
O9_7 O 0.17837(12) 0.3578(4) 0.13688(8)
H5_7 H 0.159426 0.313434 0.120484
H6_7 H 0.208036 0.334094 0.132034
C1_6 C 0.20169(15) 0.7937(5) 0.18489(10)
C2_6 C 0.22473(14) 0.8607(5) 0.22133(9)
C3_6 C 0.27610(14) 0.8643(5) 0.22557(10)
H7_6 H 0.296888 0.826125 0.204961
C4_6 C 0.29746(15) 0.9228(6) 0.25950(10)
H8_6 H 0.332838 0.926835 0.261796
C5_6 C 0.26766(13) 0.9762(5) 0.29054(9)
C6_6 C 0.21628(14) 0.9728(5) 0.28599(10)
C7_6 C 0.19476(14) 0.9168(5) 0.25172(10)
H10_6 H 0.159414 0.916672 0.249008
C15_6 C 0.19543(14) 0.9001(5) 0.54458(10)
C16_6 C 0.21910(14) 0.9356(5) 0.50631(10)
C17_6 C 0.18984(15) 0.9732(6) 0.47428(10)
H15_6 H 0.154430 0.973672 0.476371
C20_6 C 0.29271(15) 0.9610(6) 0.46737(10)
H17_6 H 0.328066 0.954600 0.465165
C21_6 C 0.27052(15) 0.9282(6) 0.50241(10)
H18_6 H 0.290708 0.900146 0.524078
C27_6 C 0.26680(14) 0.9945(5) 0.36275(9)
H21_6 H 0.234707 0.939245 0.362592
O3_4 O 0.58054(11) 0.9613(5) 0.84270(8)
Eu2_2 Eu 0.65252(2) 0.83885(3) 0.88221(2)
Eu1_4 Eu 0.65252(2) 0.66115(3) 0.38221(2)
O1_7 O 0.65474(10) 0.8075(5) 0.31954(8)
O2_7 O 0.72809(10) 0.7244(4) 0.34125(7)
O7_7 O 0.58401(11) 0.8693(5) 0.39372(9)
H1_7 H 0.557433 0.875390 0.405973
H2_7 H 0.578953 0.913170 0.372113
O8_7 O 0.68566(11) 0.9593(4) 0.40150(8)
H3_7 H 0.707375 0.991866 0.417078
O9_8 O 0.67837(12) 0.3578(4) 0.36312(8)
H5_8 H 0.659426 0.313434 0.379516
H6_8 H 0.708036 0.334094 0.367966
C1_7 C 0.70169(15) 0.7937(5) 0.31511(10)
C2_7 C 0.72473(14) 0.8607(5) 0.27867(9)
C3_7 C 0.77610(14) 0.8643(5) 0.27443(10)
H7_7 H 0.796888 0.826125 0.295039
C4_7 C 0.79746(15) 0.9228(6) 0.24050(10)
H8_7 H 0.832838 0.926835 0.238204
C5_7 C 0.76766(13) 0.9762(5) 0.20946(9)
C6_7 C 0.71628(14) 0.9728(5) 0.21401(10)
C7_7 C 0.69476(14) 0.9168(5) 0.24828(10)
H10_7 H 0.659414 0.916672 0.250992
C17_7 C 0.68984(15) 0.9732(6) 0.02572(10)
H15_7 H 0.654430 0.973672 0.023629
C20_7 C 0.79271(15) 0.9610(6) 0.03263(10)
H17_7 H 0.828066 0.954600 0.034835
C27_7 C 0.76680(14) 0.9945(5) 0.13725(9)
H21_7 H 0.734707 0.939245 0.137408
O10_4 O 0.58054(11) 0.5387(5) 0.34270(8)
O11_4 O 0.58536(10) 0.4517(4) 0.40282(7)
O12_4 O 0.72201(10) 0.5875(4) 0.42516(7)
O13_4 O 0.65011(10) 0.6431(4) 0.45315(7)
O5_4 O 0.72201(10) 0.9125(4) 0.92516(7)
O6_4 O 0.65011(10) 0.8569(4) 0.95315(7)
C15_7 C 0.69543(14) 0.9001(5) 0.95542(10)
C16_7 C 0.71910(14) 0.9356(5) 0.99369(10)
C21_7 C 0.77052(15) 0.9282(6) 0.99759(10)
H18_7 H 0.790708 0.900146 0.975922
O1_8 O 0.65474(10) 0.6925(5) 0.81954(8)
O2_8 O 0.72809(10) 0.7756(4) 0.84125(7)
O7_8 O 0.58401(11) 0.6307(5) 0.89372(9)
H1_8 H 0.557433 0.624610 0.905973
H2_8 H 0.578953 0.586830 0.872113
O8_8 O 0.68566(11) 0.5407(4) 0.90150(8)
H3_8 H 0.707375 0.508134 0.917078
H4_5 H 0.661005 0.473725 0.904418
C1_8 C 0.70169(15) 0.7063(5) 0.81511(10)
C2_8 C 0.72473(14) 0.6393(5) 0.77867(9)
C3_8 C 0.77610(14) 0.6357(5) 0.77443(10)
H7_8 H 0.796888 0.673875 0.795039
C4_8 C 0.79746(15) 0.5772(6) 0.74050(10)
H8_8 H 0.832838 0.573165 0.738204
C5_8 C 0.76766(13) 0.5238(5) 0.70946(9)
C6_8 C 0.71628(14) 0.5272(5) 0.71401(10)
H9_5 H 0.695401 0.490582 0.693325
C7_8 C 0.69476(14) 0.5832(5) 0.74828(10)
H10_8 H 0.659414 0.583328 0.750992
C10_5 C 0.99029(15) 0.2095(6) 0.59936(11)
C11_5 C 0.94266(15) 0.2831(6) 0.60121(11)
H12_5 H 0.928071 0.333095 0.578681
C12_5 C 0.91562(14) 0.2851(5) 0.63574(9)
C13_5 C 0.93963(15) 0.2224(6) 0.66877(10)
H13_5 H 0.923124 0.230395 0.692886
C14_5 C 0.98759(15) 0.1482(6) 0.66687(11)
C15_8 C 0.69543(14) 0.5999(5) 0.45542(10)
C16_8 C 0.71910(14) 0.5644(5) 0.49369(10)
C17_8 C 0.68984(15) 0.5268(6) 0.52572(10)
H15_8 H 0.654430 0.526328 0.523629
C18_5 C 0.71251(14) 0.4897(5) 0.56086(9)
H16_5 H 0.692337 0.459311 0.582395
C19_5 C 0.76411(14) 0.4963(5) 0.56497(9)
C20_8 C 0.79271(15) 0.5390(6) 0.53263(10)
H17_8 H 0.828066 0.545400 0.534835
C21_8 C 0.77052(15) 0.5718(6) 0.49759(10)
H18_8 H 0.790708 0.599854 0.475922
C22_5 C 0.79131(13) 0.4715(5) 0.67191(9)
C23_5 C 0.83927(13) 0.3971(5) 0.67127(9)
H19_5 H 0.856014 0.374862 0.694887
C24_5 C 0.86333(14) 0.3545(5) 0.63674(9)
C25_5 C 0.83670(13) 0.3828(5) 0.60258(10)
H20_5 H 0.851670 0.348861 0.578880
C26_5 C 0.78922(13) 0.4587(5) 0.60218(9)
C27_8 C 0.76680(14) 0.5055(5) 0.63725(9)
H21_8 H 0.734707 0.560755 0.637408
H4_6 H 0.161005 0.026275 0.095582
H9_6 H 0.195401 0.009418 0.306675
C8_8 C 0.56265(14) 0.4541(6) 0.37097(10)
C9_8 C 0.51303(14) 0.3622(5) 0.36777(11)
C10_6 C 0.49029(15) 0.2905(6) 0.40064(11)
H11_8 H 0.507659 0.292217 0.424453
C11_6 C 0.44266(15) 0.2169(6) 0.39879(11)
H12_6 H 0.428071 0.166905 0.421319
C12_6 C 0.41562(14) 0.2149(5) 0.36426(9)
C13_6 C 0.43963(15) 0.2776(6) 0.33123(10)
H13_6 H 0.423124 0.269605 0.307114
C14_6 C 0.48759(15) 0.3518(6) 0.33313(11)
H14_8 H 0.503007 0.395773 0.310366
C18_6 C 0.21251(14) 0.0103(5) 0.43914(9)
H16_6 H 0.192337 0.040689 0.417605
C19_6 C 0.26411(14) 0.0037(5) 0.43503(9)
C22_6 C 0.29131(13) 0.0285(5) 0.32809(9)
C23_6 C 0.33927(13) 0.1029(5) 0.32873(9)
H19_6 H 0.356014 0.125138 0.305113
C24_6 C 0.36333(14) 0.1455(5) 0.36326(9)
C25_6 C 0.33670(13) 0.1172(5) 0.39742(10)
H20_6 H 0.351670 0.151139 0.421120
C26_6 C 0.28922(13) 0.0413(5) 0.39782(9)
H4_7 H 0.661005 0.026275 0.404418
H9_7 H 0.695401 0.009418 0.193325
C10_7 C 0.99029(15) 0.2905(6) 0.09936(11)
C11_7 C 0.94266(15) 0.2169(6) 0.10121(11)
H12_7 H 0.928071 0.166905 0.078681
C12_7 C 0.91562(14) 0.2149(5) 0.13574(9)
C13_7 C 0.93963(15) 0.2776(6) 0.16877(10)
H13_7 H 0.923124 0.269605 0.192886
C14_7 C 0.98759(15) 0.3518(6) 0.16687(11)
C18_7 C 0.71251(14) 0.0103(5) 0.06086(9)
H16_7 H 0.692337 0.040689 0.082395
C19_7 C 0.76411(14) 0.0037(5) 0.06497(9)
C22_7 C 0.79131(13) 0.0285(5) 0.17191(9)
C23_7 C 0.83927(13) 0.1029(5) 0.17127(9)
H19_7 H 0.856014 0.125138 0.194887
C24_7 C 0.86333(14) 0.1455(5) 0.13674(9)
C25_7 C 0.83670(13) 0.1172(5) 0.10258(10)
H20_7 H 0.851670 0.151139 0.078880
C26_7 C 0.78922(13) 0.0413(5) 0.10218(9)
H4_8 H 0.338995 0.973725 0.595582
H9_8 H 0.304599 0.990582 0.806675
C10_8 C 0.00971(15) 0.7095(6) 0.90064(11)
C11_8 C 0.05734(15) 0.7831(6) 0.89879(11)
H12_8 H 0.071929 0.833095 0.921319
C12_8 C 0.08438(14) 0.7851(5) 0.86426(9)
C13_8 C 0.06037(15) 0.7224(6) 0.83123(10)
H13_8 H 0.076876 0.730395 0.807114
C14_8 C 0.01241(15) 0.6482(6) 0.83313(11)
C18_8 C 0.28749(14) 0.9897(5) 0.93914(9)
H16_8 H 0.307663 0.959311 0.917605
C19_8 C 0.23589(14) 0.9963(5) 0.93503(9)
C22_8 C 0.20869(13) 0.9715(5) 0.82809(9)
C23_8 C 0.16073(13) 0.8971(5) 0.82873(9)
H19_8 H 0.143986 0.874862 0.805113
C24_8 C 0.13667(14) 0.8545(5) 0.86326(9)
C25_8 C 0.16330(13) 0.8828(5) 0.89742(10)
H20_8 H 0.148330 0.848861 0.921120
C26_8 C 0.21078(13) 0.9587(5) 0.89782(9)
loop_
_geom_bond_atom_site_label_1
_geom_bond_atom_site_label_2
_geom_bond_site_symmetry_1
_geom_bond_site_symmetry_2
Eu1 O1 1_555 1_555
O1 C1 1_555 1_555
O2 Eu1 1_555 1_555
O5 C15 1_555 1_555
O6 C15 1_555 1_555
O7 Eu1 1_555 1_555
H1 O7 1_555 1_555
H2 O7 1_555 1_555
O8 Eu1 1_555 1_555
H3 O8 1_555 1_555
H4 O8 1_555 1_555
C1 O2 1_555 1_555
C2 C1 1_555 1_555
C3 C2 1_555 1_555
H7 C3 1_555 1_555
C4 C3 1_555 1_555
H8 C4 1_555 1_555
C5 C4 1_555 1_555
C6 C5 1_555 1_555
H9 C6 1_555 1_555
C7 C2 1_555 1_555
H10 C7 1_555 1_555
C11 C10 1_555 1_555
H12 C11 1_555 1_555
C12 C11 1_555 1_555
C13 C12 1_555 1_555
H13 C13 1_555 1_555
C15 C16 1_555 1_555
C16 C17 1_555 1_555
C17 H15 1_555 1_555
C18 C17 1_555 1_555
H16 C18 1_555 1_555
C19 C18 1_555 1_555
C20 C19 1_555 1_555
H17 C20 1_555 1_555
C21 C16 1_555 1_555
H18 C21 1_555 1_555
C22 C5 1_555 1_555
C23 C22 1_555 1_555
H19 C23 1_555 1_555
C24 C12 1_555 1_555
C25 C24 1_555 1_555
H20 C25 1_555 1_555
C26 C19 1_555 1_555
C27 C22 1_555 1_555
H21 C27 1_555 1_555
Eu3 O5 1_555 1_555
O10 Eu1 1_555 1_555
O12 Eu1 1_555 1_555
O13 Eu1 1_555 1_555
O6 Eu3 1_555 1_555
C6 C7 1_555 1_555
C13 C14 1_555 1_555
C20 C21 1_555 1_555
C23 C24 1_555 1_555
C25 C26 1_555 1_555
C26 C27 1_555 1_555
O3 C8 1_555 1_555
O4 C8 1_555 1_555
C8 C9 1_555 1_555
C9 C10_2 1_555 1_555
C10_2 H11 1_555 1_555
C11_2 C10_2 1_555 1_555
H12_2 C11_2 1_555 1_555
C12_2 C11_2 1_555 1_555
C13_2 C12_2 1_555 1_555
H13_2 C13_2 1_555 1_555
C14_2 C9 1_555 1_555
H14 C14_2 1_555 1_555
H16_2 C18_2 1_555 1_555
C19_2 C18_2 1_555 1_555
C23_2 C22_2 1_555 1_555
H19_2 C23_2 1_555 1_555
C24_2 C12_2 1_555 1_555
C25_2 C24_2 1_555 1_555
H20_2 C25_2 1_555 1_555
C26_2 C19_2 1_555 1_555
Eu3 O3 1_555 1_555
O4 Eu3 1_555 1_555
C13_2 C14_2 1_555 1_555
C23_2 C24_2 1_555 1_555
C25_2 C26_2 1_555 1_555
O12 C15_2 1_555 1_555
O13 C15_2 1_555 1_555
C15_2 C16_2 1_555 1_555
C21_2 C16_2 1_555 1_555
H18_2 C21_2 1_555 1_555
Eu3 O1_2 1_555 1_555
O1_2 C1_2 1_555 1_555
O2_2 Eu3 1_555 1_555
O7_2 Eu3 1_555 1_555
H1_2 O7_2 1_555 1_555
H2_2 O7_2 1_555 1_555
O8_2 Eu3 1_555 1_555
H3_2 O8_2 1_555 1_555
O9 Eu3 1_555 1_555
H5 O9 1_555 1_555
H6 O9 1_555 1_555
C1_2 O2_2 1_555 1_555
C2_2 C1_2 1_555 1_555
C3_2 C2_2 1_555 1_555
H7_2 C3_2 1_555 1_555
C4_2 C3_2 1_555 1_555
H8_2 C4_2 1_555 1_555
C5_2 C4_2 1_555 1_555
C6_2 C5_2 1_555 1_555
C7_2 C2_2 1_555 1_555
H10_2 C7_2 1_555 1_555
C17_2 H15_2 1_555 1_555
H17_2 C20_2 1_555 1_555
H21_2 C27_2 1_555 1_555
C6_2 C7_2 1_555 1_555
H5_2 O9_2 1_555 1_555
H6_2 O9_2 1_555 1_555
Eu2 O3_2 1_555 1_555
Eu1_2 O1_3 1_555 1_555
O1_3 C1_3 1_555 1_555
O2_3 Eu1_2 1_555 1_555
O5_2 C15_3 1_555 1_555
O6_2 C15_3 1_555 1_555
O7_3 Eu1_2 1_555 1_555
H1_3 O7_3 1_555 1_555
H2_3 O7_3 1_555 1_555
O8_3 Eu1_2 1_555 1_555
H3_3 O8_3 1_555 1_555
O9_3 Eu1_2 1_555 1_555
H5_3 O9_3 1_555 1_555
H6_3 O9_3 1_555 1_555
C1_3 O2_3 1_555 1_555
C2_3 C1_3 1_555 1_555
C3_3 C2_3 1_555 1_555
H7_3 C3_3 1_555 1_555
C4_3 C3_3 1_555 1_555
H8_3 C4_3 1_555 1_555
C5_3 C4_3 1_555 1_555
C6_3 C5_3 1_555 1_555
C7_3 C2_3 1_555 1_555
H10_3 C7_3 1_555 1_555
C15_3 C16_3 1_555 1_555
C16_3 C17_3 1_555 1_555
C17_3 H15_3 1_555 1_555
H17_3 C20_3 1_555 1_555
C21_3 C16_3 1_555 1_555
H18_3 C21_3 1_555 1_555
H21_3 C27_3 1_555 1_555
Eu2 O5_2 1_555 1_555
O10_2 Eu1_2 1_555 1_555
O11_2 Eu1_2 1_555 1_555
O12_2 Eu1_2 1_555 1_555
O13_2 Eu1_2 1_555 1_555
O6_2 Eu2 1_555 1_555
C6_3 C7_3 1_555 1_555
C20_3 C21_3 1_555 1_555
Eu2 O1_4 1_555 1_555
O1_4 C1_4 1_555 1_555
O2_4 Eu2 1_555 1_555
O11 C8_2 1_555 1_555
O7_4 Eu2 1_555 1_555
H1_4 O7_4 1_555 1_555
H2_4 O7_4 1_555 1_555
O8_4 Eu2 1_555 1_555
H3_4 O8_4 1_555 1_555
H4_3 O8_4 1_555 1_555
C1_4 O2_4 1_555 1_555
C2_4 C1_4 1_555 1_555
C3_4 C2_4 1_555 1_555
H7_4 C3_4 1_555 1_555
C4_4 C3_4 1_555 1_555
H8_4 C4_4 1_555 1_555
C5_4 C4_4 1_555 1_555
C6_4 C5_4 1_555 1_555
H9_3 C6_4 1_555 1_555
C7_4 C2_4 1_555 1_555
H10_4 C7_4 1_555 1_555
C8_2 C9_2 1_555 1_555
C9_2 C10_3 1_555 1_555
C10_3 H11_2 1_555 1_555
C11_3 C10_3 1_555 1_555
H12_3 C11_3 1_555 1_555
C12_3 C11_3 1_555 1_555
C13_3 C12_3 1_555 1_555
H13_3 C13_3 1_555 1_555
C14_3 C9_2 1_555 1_555
H14_2 C14_3 1_555 1_555
C17_4 H15_4 1_555 1_555
C18_3 C17_4 1_555 1_555
H16_3 C18_3 1_555 1_555
C19_3 C18_3 1_555 1_555
C20_4 C19_3 1_555 1_555
H17_4 C20_4 1_555 1_555
C22_3 C5_4 1_555 1_555
C23_3 C22_3 1_555 1_555
H19_3 C23_3 1_555 1_555
C24_3 C12_3 1_555 1_555
C25_3 C24_3 1_555 1_555
H20_3 C25_3 1_555 1_555
C26_3 C19_3 1_555 1_555
C27_4 C22_3 1_555 1_555
H21_4 C27_4 1_555 1_555
C6_4 C7_4 1_555 1_555
C13_3 C14_3 1_555 1_555
C23_3 C24_3 1_555 1_555
C25_3 C26_3 1_555 1_555
C26_3 C27_4 1_555 1_555
O12_2 C15_4 1_555 1_555
O13_2 C15_4 1_555 1_555
C15_4 C16_4 1_555 1_555
C21_4 C16_4 1_555 1_555
H18_4 C21_4 1_555 1_555
O10_2 C8_3 1_555 1_555
O11_2 C8_3 1_555 1_555
C8_3 C9_3 1_555 1_555
O4_2 C8_4 1_555 1_555
C8_4 C9_4 1_555 1_555
H5_4 O9_4 1_555 1_555
H6_4 O9_4 1_555 1_555
H5_5 O9_5 1_555 1_555
H6_5 O9_5 1_555 1_555
O11_3 C8_5 1_555 1_555
C8_5 C9_5 1_555 1_555
O5_3 C15_5 1_555 1_555
O6_3 C15_5 1_555 1_555
C15_5 C16_5 1_555 1_555
C21_5 C16_5 1_555 1_555
H18_5 C21_5 1_555 1_555
Eu3_2 O5_3 1_555 1_555
O6_3 Eu3_2 1_555 1_555
Eu1_3 O1_5 1_555 1_555
O1_5 C1_5 1_555 1_555
O2_5 Eu1_3 1_555 1_555
O4_3 C8_6 1_555 1_555
O7_5 Eu1_3 1_555 1_555
H1_5 O7_5 1_555 1_555
H2_5 O7_5 1_555 1_555
O8_5 Eu1_3 1_555 1_555
H3_5 O8_5 1_555 1_555
H4_4 O8_5 1_555 1_555
C1_5 O2_5 1_555 1_555
C2_5 C1_5 1_555 1_555
C3_5 C2_5 1_555 1_555
H7_5 C3_5 1_555 1_555
C4_5 C3_5 1_555 1_555
H8_5 C4_5 1_555 1_555
C5_5 C4_5 1_555 1_555
C6_5 C5_5 1_555 1_555
H9_4 C6_5 1_555 1_555
C7_5 C2_5 1_555 1_555
H10_5 C7_5 1_555 1_555
C8_6 C9_6 1_555 1_555
C9_6 C10_4 1_555 1_555
C10_4 H11_6 1_555 1_555
C11_4 C10_4 1_555 1_555
H12_4 C11_4 1_555 1_555
C12_4 C11_4 1_555 1_555
C13_4 C12_4 1_555 1_555
H13_4 C13_4 1_555 1_555
C14_4 C9_6 1_555 1_555
H14_6 C14_4 1_555 1_555
C17_5 H15_5 1_555 1_555
C18_4 C17_5 1_555 1_555
H16_4 C18_4 1_555 1_555
C19_4 C18_4 1_555 1_555
C20_5 C19_4 1_555 1_555
H17_5 C20_5 1_555 1_555
C22_4 C5_5 1_555 1_555
C23_4 C22_4 1_555 1_555
H19_4 C23_4 1_555 1_555
C24_4 C12_4 1_555 1_555
C25_4 C24_4 1_555 1_555
H20_4 C25_4 1_555 1_555
C26_4 C19_4 1_555 1_555
C27_5 C22_4 1_555 1_555
H21_5 C27_5 1_555 1_555
O10_3 Eu1_3 1_555 1_555
O12_3 Eu1_3 1_555 1_555
O13_3 Eu1_3 1_555 1_555
C6_5 C7_5 1_555 1_555
C13_4 C14_4 1_555 1_555
C23_4 C24_4 1_555 1_555
C25_4 C26_4 1_555 1_555
C26_4 C27_5 1_555 1_555
O3_3 C8_7 1_555 1_555
O4_4 C8_7 1_555 1_555
C8_7 C9_7 1_555 1_555
Eu3_2 O3_3 1_555 1_555
O4_4 Eu3_2 1_555 1_555
H5_6 O9_6 1_555 1_555
H6_6 O9_6 1_555 1_555
Eu3_2 O1_6 1_555 1_555
O1_6 C1_6 1_555 1_555
O2_6 Eu3_2 1_555 1_555
O12_3 C15_6 1_555 1_555
O13_3 C15_6 1_555 1_555
O7_6 Eu3_2 1_555 1_555
H1_6 O7_6 1_555 1_555
H2_6 O7_6 1_555 1_555
O8_6 Eu3_2 1_555 1_555
H3_6 O8_6 1_555 1_555
O9_7 Eu3_2 1_555 1_555
H5_7 O9_7 1_555 1_555
H6_7 O9_7 1_555 1_555
C1_6 O2_6 1_555 1_555
C2_6 C1_6 1_555 1_555
C3_6 C2_6 1_555 1_555
H7_6 C3_6 1_555 1_555
C4_6 C3_6 1_555 1_555
H8_6 C4_6 1_555 1_555
C5_6 C4_6 1_555 1_555
C6_6 C5_6 1_555 1_555
C7_6 C2_6 1_555 1_555
H10_6 C7_6 1_555 1_555
C15_6 C16_6 1_555 1_555
C16_6 C17_6 1_555 1_555
C17_6 H15_6 1_555 1_555
H17_6 C20_6 1_555 1_555
C21_6 C16_6 1_555 1_555
H18_6 C21_6 1_555 1_555
H21_6 C27_6 1_555 1_555
C6_6 C7_6 1_555 1_555
C20_6 C21_6 1_555 1_555
Eu2_2 O3_4 1_555 1_555
Eu1_4 O1_7 1_555 1_555
O1_7 C1_7 1_555 1_555
O2_7 Eu1_4 1_555 1_555
O7_7 Eu1_4 1_555 1_555
H1_7 O7_7 1_555 1_555
H2_7 O7_7 1_555 1_555
O8_7 Eu1_4 1_555 1_555
H3_7 O8_7 1_555 1_555
O9_8 Eu1_4 1_555 1_555
H5_8 O9_8 1_555 1_555
H6_8 O9_8 1_555 1_555
C1_7 O2_7 1_555 1_555
C2_7 C1_7 1_555 1_555
C3_7 C2_7 1_555 1_555
H7_7 C3_7 1_555 1_555
C4_7 C3_7 1_555 1_555
H8_7 C4_7 1_555 1_555
C5_7 C4_7 1_555 1_555
C6_7 C5_7 1_555 1_555
C7_7 C2_7 1_555 1_555
H10_7 C7_7 1_555 1_555
C17_7 H15_7 1_555 1_555
H17_7 C20_7 1_555 1_555
H21_7 C27_7 1_555 1_555
O10_4 Eu1_4 1_555 1_555
O11_4 Eu1_4 1_555 1_555
O12_4 Eu1_4 1_555 1_555
O13_4 Eu1_4 1_555 1_555
C6_7 C7_7 1_555 1_555
O5_4 C15_7 1_555 1_555
O6_4 C15_7 1_555 1_555
C15_7 C16_7 1_555 1_555
C21_7 C16_7 1_555 1_555
H18_7 C21_7 1_555 1_555
Eu2_2 O5_4 1_555 1_555
O6_4 Eu2_2 1_555 1_555
Eu2_2 O1_8 1_555 1_555
O1_8 C1_8 1_555 1_555
O2_8 Eu2_2 1_555 1_555
O12_4 C15_8 1_555 1_555
O13_4 C15_8 1_555 1_555
O7_8 Eu2_2 1_555 1_555
H1_8 O7_8 1_555 1_555
H2_8 O7_8 1_555 1_555
O8_8 Eu2_2 1_555 1_555
H3_8 O8_8 1_555 1_555
H4_5 O8_8 1_555 1_555
C1_8 O2_8 1_555 1_555
C2_8 C1_8 1_555 1_555
C3_8 C2_8 1_555 1_555
H7_8 C3_8 1_555 1_555
C4_8 C3_8 1_555 1_555
H8_8 C4_8 1_555 1_555
C5_8 C4_8 1_555 1_555
C6_8 C5_8 1_555 1_555
H9_5 C6_8 1_555 1_555
C7_8 C2_8 1_555 1_555
H10_8 C7_8 1_555 1_555
C11_5 C10_5 1_555 1_555
H12_5 C11_5 1_555 1_555
C12_5 C11_5 1_555 1_555
C13_5 C12_5 1_555 1_555
H13_5 C13_5 1_555 1_555
C15_8 C16_8 1_555 1_555
C16_8 C17_8 1_555 1_555
C17_8 H15_8 1_555 1_555
C18_5 C17_8 1_555 1_555
H16_5 C18_5 1_555 1_555
C19_5 C18_5 1_555 1_555
C20_8 C19_5 1_555 1_555
H17_8 C20_8 1_555 1_555
C21_8 C16_8 1_555 1_555
H18_8 C21_8 1_555 1_555
C22_5 C5_8 1_555 1_555
C23_5 C22_5 1_555 1_555
H19_5 C23_5 1_555 1_555
C24_5 C12_5 1_555 1_555
C25_5 C24_5 1_555 1_555
H20_5 C25_5 1_555 1_555
C26_5 C19_5 1_555 1_555
C27_8 C22_5 1_555 1_555
H21_8 C27_8 1_555 1_555
C6_8 C7_8 1_555 1_555
C13_5 C14_5 1_555 1_555
C20_8 C21_8 1_555 1_555
C23_5 C24_5 1_555 1_555
C25_5 C26_5 1_555 1_555
C26_5 C27_8 1_555 1_555
O10_4 C8_8 1_555 1_555
O11_4 C8_8 1_555 1_555
C8_8 C9_8 1_555 1_555
C9_8 C10_6 1_555 1_555
C10_6 H11_8 1_555 1_555
C11_6 C10_6 1_555 1_555
H12_6 C11_6 1_555 1_555
C12_6 C11_6 1_555 1_555
C13_6 C12_6 1_555 1_555
H13_6 C13_6 1_555 1_555
C14_6 C9_8 1_555 1_555
H14_8 C14_6 1_555 1_555
H16_6 C18_6 1_555 1_555
C19_6 C18_6 1_555 1_555
C23_6 C22_6 1_555 1_555
H19_6 C23_6 1_555 1_555
C24_6 C12_6 1_555 1_555
C25_6 C24_6 1_555 1_555
H20_6 C25_6 1_555 1_555
C26_6 C19_6 1_555 1_555
C13_6 C14_6 1_555 1_555
C23_6 C24_6 1_555 1_555
C25_6 C26_6 1_555 1_555
C11_7 C10_7 1_555 1_555
H12_7 C11_7 1_555 1_555
C12_7 C11_7 1_555 1_555
C13_7 C12_7 1_555 1_555
H13_7 C13_7 1_555 1_555
H16_7 C18_7 1_555 1_555
C19_7 C18_7 1_555 1_555
C23_7 C22_7 1_555 1_555
H19_7 C23_7 1_555 1_555
C24_7 C12_7 1_555 1_555
C25_7 C24_7 1_555 1_555
H20_7 C25_7 1_555 1_555
C26_7 C19_7 1_555 1_555
C13_7 C14_7 1_555 1_555
C23_7 C24_7 1_555 1_555
C25_7 C26_7 1_555 1_555
C11_8 C10_8 1_555 1_555
H12_8 C11_8 1_555 1_555
C12_8 C11_8 1_555 1_555
C13_8 C12_8 1_555 1_555
H13_8 C13_8 1_555 1_555
H16_8 C18_8 1_555 1_555
C19_8 C18_8 1_555 1_555
C23_8 C22_8 1_555 1_555
H19_8 C23_8 1_555 1_555
C24_8 C12_8 1_555 1_555
C25_8 C24_8 1_555 1_555
H20_8 C25_8 1_555 1_555
C26_8 C19_8 1_555 1_555
C13_8 C14_8 1_555 1_555
C23_8 C24_8 1_555 1_555
C25_8 C26_8 1_555 1_555

#END
