
###############################################################################
#
# This file contains modified crystal structure data generated from the
# MOF subset of the Cambridge Structural Database (CSD) v543 
# hosted by the Cambridge Crystallographic Data Centre (CCDC).
#
# This work is licensed under the Creative Commons
# Attribution-NonCommercial-ShareAlike 4.0 International License.
# To view a copy of this license, visit
# http://creativecommons.org/licenses/by-nc-sa/4.0/
# or send a letter to
# Creative Commons, PO Box 1866, Mountain View, CA 94042, USA.
#
# CIF created using the CSD Python API on 29 September 2022
# The structure has been converted into the P1 space group
# The structure has a 3D framework
# The original CSD entry GANLIU is in the orthorhombic crystal system
# The framework has been calculated to contain at least 10.0% void space
# The void calculation uses a probe of radius 1.32A, grid spacing 0.4
#
###############################################################################

data_GANLIU
_chemical_formula_moiety         '(C216 H168 O68 Tb8)n'
_symmetry_cell_setting           triclinic
_symmetry_space_group_name_H-M   'P 1'
_symmetry_Int_Tables_number      1
_space_group_name_Hall           'P 1'
loop_
_symmetry_equiv_pos_site_id
_symmetry_equiv_pos_as_xyz
1 x,y,z
_cell_length_a                   26.6544(10)
_cell_length_b                   7.3460(3)
_cell_length_c                   34.7414(14)
_cell_angle_alpha                90
_cell_angle_beta                 90
_cell_angle_gamma                90
_cell_volume                     6802.48
loop_
_atom_site_label
_atom_site_type_symbol
_atom_site_fract_x
_atom_site_fract_y
_atom_site_fract_z
Tb1 Tb 0.34748(2) 0.16031(2) 0.11767(2)
O1 O 0.34532(9) 0.3050(4) 0.17971(8)
O2 O 0.27156(9) 0.2219(4) 0.15813(7)
O5 O 0.35060(8) 0.3558(4) 0.54718(7)
O6 O 0.27898(9) 0.4172(4) 0.57514(7)
O7 O 0.41563(10) 0.3691(4) 0.10659(9)
H1 H 0.4094(17) 0.450(5) 0.0908(11)
H2 H 0.4057(17) 0.271(4) 0.1116(13)
O9 O 0.31430(9) 0.4548(4) 0.09880(8)
H5 H 0.2839(7) 0.466(6) 0.0936(12)
H6 H 0.3327(13) 0.527(5) 0.0866(12)
C1 C 0.29813(12) 0.2913(5) 0.18425(9)
C2 C 0.27547(12) 0.3581(4) 0.22074(9)
C3 C 0.22369(13) 0.3614(5) 0.22535(10)
H7 H 0.202642 0.321857 0.204933
C4 C 0.20247(13) 0.4218(5) 0.25939(10)
H8 H 0.166984 0.427628 0.261656
C5 C 0.23244(12) 0.4743(4) 0.29048(9)
C6 C 0.28421(12) 0.4709(5) 0.28573(9)
H9 H 0.305246 0.507697 0.306388
C7 C 0.30573(12) 0.4148(5) 0.25129(10)
H10 H 0.341190 0.415005 0.248516
C10 C 0.00954(13) 0.7893(5) 0.40060(10)
C11 C 0.05745(13) 0.7158(5) 0.39888(10)
H12 H 0.072157 0.666093 0.421458
C12 C 0.08433(12) 0.7140(5) 0.36432(9)
C13 C 0.06023(13) 0.7772(5) 0.33134(10)
H13 H 0.076880 0.769866 0.307210
C14 C 0.01205(13) 0.8511(5) 0.33314(11)
C15 C 0.30506(12) 0.4015(5) 0.54482(9)
C16 C 0.28182(12) 0.4367(5) 0.50646(9)
C17 C 0.31117(13) 0.4753(5) 0.47437(10)
H15 H 0.346697 0.476453 0.476499
C18 C 0.28846(12) 0.5121(5) 0.43916(9)
H16 H 0.308654 0.543152 0.417605
C19 C 0.23654(12) 0.5041(4) 0.43508(9)
C20 C 0.20761(12) 0.4625(5) 0.46748(9)
H17 H 0.172114 0.456658 0.465337
C21 C 0.23024(13) 0.4297(5) 0.50261(10)
H18 H 0.210084 0.402107 0.524394
C22 C 0.20918(11) 0.5273(5) 0.32787(9)
C23 C 0.16096(12) 0.6020(5) 0.32860(9)
H19 H 0.144081 0.624371 0.304984
C24 C 0.13692(12) 0.6448(4) 0.36324(9)
C25 C 0.16363(12) 0.6172(5) 0.39744(10)
H20 H 0.148633 0.651640 0.421153
C26 C 0.21137(12) 0.5411(5) 0.39783(9)
C27 C 0.23376(12) 0.4943(4) 0.36270(9)
H21 H 0.266037 0.439498 0.362559
Tb3 Tb 0.34748(2) 0.33969(2) 0.61767(2)
O10 O 0.41946(9) 0.0415(4) 0.15707(7)
O12 O 0.35060(8) 0.1442(4) 0.04718(7)
O13 O 0.27898(9) 0.0828(4) 0.07514(7)
O3 O 0.41946(9) 0.4585(4) 0.65707(7)
O4 O 0.41401(9) 0.5482(4) 0.59718(7)
H6_2 H 0.8327(13) 0.973(5) 0.9134(12)
H9_2 H 0.805246 0.992303 0.693612
C8 C 0.43721(12) 0.5448(5) 0.62896(10)
C9 C 0.48678(12) 0.6385(5) 0.63213(10)
C10_2 C 0.50954(13) 0.7107(5) 0.59940(10)
H11 H 0.492027 0.709496 0.575581
C11_2 C 0.55745(13) 0.7842(5) 0.60112(10)
H12_2 H 0.572157 0.833907 0.578542
C12_2 C 0.58433(12) 0.7860(5) 0.63568(9)
C13_2 C 0.56023(13) 0.7228(5) 0.66866(10)
H13_2 H 0.576880 0.730134 0.692790
C14_2 C 0.51205(13) 0.6489(5) 0.66686(11)
H14 H 0.496475 0.605355 0.689665
C18_2 C 0.78846(12) 0.9879(5) 0.56084(9)
H16_2 H 0.808654 0.956848 0.582395
C19_2 C 0.73654(12) 0.9959(4) 0.56492(9)
C22_2 C 0.70918(11) 0.9727(5) 0.67213(9)
C23_2 C 0.66096(12) 0.8980(5) 0.67140(9)
H19_2 H 0.644081 0.875629 0.695016
C24_2 C 0.63692(12) 0.8552(4) 0.63676(9)
C25_2 C 0.66363(12) 0.8828(5) 0.60256(10)
H20_2 H 0.648633 0.848360 0.578847
C26_2 C 0.71137(12) 0.9589(5) 0.60217(9)
C15_2 C 0.30506(12) 0.0985(5) 0.04482(9)
C16_2 C 0.28182(12) 0.0633(5) 0.00646(9)
C21_2 C 0.23024(13) 0.0703(5) 0.00261(10)
H18_2 H 0.210084 0.097893 0.024394
O1_2 O 0.34532(9) 0.1950(4) 0.67971(8)
O2_2 O 0.27156(9) 0.2781(4) 0.65813(7)
O7_2 O 0.41563(10) 0.1309(4) 0.60659(9)
H1_2 H 0.4094(17) 0.050(5) 0.5908(11)
H2_2 H 0.4057(17) 0.229(4) 0.6116(13)
O8 O 0.32248(10) 0.6387(4) 0.63655(8)
H3 H 0.3438(12) 0.713(5) 0.6446(14)
H4 H 0.2934(8) 0.677(6) 0.6377(14)
O9_2 O 0.31430(9) 0.0452(4) 0.59880(8)
H5_2 H 0.2839(7) 0.034(6) 0.5936(12)
C1_2 C 0.29813(12) 0.2087(5) 0.68425(9)
C2_2 C 0.27547(12) 0.1419(4) 0.72074(9)
C3_2 C 0.22369(13) 0.1386(5) 0.72535(10)
H7_2 H 0.202642 0.178143 0.704933
C4_2 C 0.20247(13) 0.0782(5) 0.75939(10)
H8_2 H 0.166984 0.072372 0.761656
C5_2 C 0.23244(12) 0.0257(4) 0.79048(9)
C6_2 C 0.28421(12) 0.0291(5) 0.78573(9)
C7_2 C 0.30573(12) 0.0852(5) 0.75129(10)
H10_2 H 0.341190 0.084995 0.748516
C17_2 C 0.31117(13) 0.0247(5) 0.97437(10)
H15_2 H 0.346697 0.023547 0.976499
C20_2 C 0.20761(12) 0.0375(5) 0.96748(9)
H17_2 H 0.172114 0.043342 0.965337
C27_2 C 0.23376(12) 0.0057(4) 0.86270(9)
H21_2 H 0.266037 0.060502 0.862559
O8_2 O 0.32248(10) 0.8613(4) 0.13655(8)
H3_2 H 0.3438(12) 0.787(5) 0.1446(14)
H4_2 H 0.2934(8) 0.823(6) 0.1377(14)
O11 O 0.41401(9) 0.9518(4) 0.09718(7)
O3_2 O 0.91946(9) 0.0415(4) 0.34293(7)
Tb2 Tb 0.84748(2) 0.16031(2) 0.38233(2)
Tb1_2 Tb 0.84748(2) 0.33969(2) 0.88233(2)
O1_3 O 0.84532(9) 0.1950(4) 0.82029(8)
O2_3 O 0.77156(9) 0.2781(4) 0.84187(7)
O5_2 O 0.85060(8) 0.1442(4) 0.45282(7)
O6_2 O 0.77898(9) 0.0828(4) 0.42486(7)
O7_3 O 0.91563(10) 0.1309(4) 0.89341(9)
H1_3 H 0.9094(17) 0.050(5) 0.9092(11)
H2_3 H 0.9057(17) 0.229(4) 0.8884(13)
O8_3 O 0.82248(10) 0.6387(4) 0.86345(8)
H3_3 H 0.8438(12) 0.713(5) 0.8554(14)
H4_3 H 0.7934(8) 0.677(6) 0.8623(14)
O9_3 O 0.81430(9) 0.0452(4) 0.90120(8)
H5_3 H 0.7839(7) 0.034(6) 0.9064(12)
C1_3 C 0.79813(12) 0.2087(5) 0.81575(9)
C2_3 C 0.77547(12) 0.1419(4) 0.77926(9)
C3_3 C 0.72369(13) 0.1386(5) 0.77465(10)
H7_3 H 0.702642 0.178143 0.795067
C4_3 C 0.70247(13) 0.0782(5) 0.74061(10)
H8_3 H 0.666984 0.072372 0.738344
C5_3 C 0.73244(12) 0.0257(4) 0.70952(9)
C6_3 C 0.78421(12) 0.0291(5) 0.71427(9)
C7_3 C 0.80573(12) 0.0852(5) 0.74871(10)
H10_3 H 0.841190 0.084995 0.751484
C15_3 C 0.80506(12) 0.0985(5) 0.45518(9)
C16_3 C 0.78182(12) 0.0633(5) 0.49354(9)
C17_3 C 0.81117(13) 0.0247(5) 0.52563(10)
H15_3 H 0.846697 0.023547 0.523501
C20_3 C 0.70761(12) 0.0375(5) 0.53252(9)
H17_3 H 0.672114 0.043342 0.534663
C21_3 C 0.73024(13) 0.0703(5) 0.49739(10)
H18_3 H 0.710084 0.097893 0.475606
C27_3 C 0.73376(12) 0.0057(4) 0.63730(9)
H21_3 H 0.766037 0.060502 0.637441
O10_2 O 0.91946(9) 0.4585(4) 0.84293(7)
O11_2 O 0.91401(9) 0.5482(4) 0.90282(7)
O12_2 O 0.85060(8) 0.3558(4) 0.95282(7)
O13_2 O 0.77898(9) 0.4172(4) 0.92486(7)
O1_4 O 0.84532(9) 0.3050(4) 0.32029(8)
O2_4 O 0.77156(9) 0.2219(4) 0.34187(7)
O7_4 O 0.91563(10) 0.3691(4) 0.39341(9)
H1_4 H 0.9094(17) 0.450(5) 0.4092(11)
H2_4 H 0.9057(17) 0.271(4) 0.3884(13)
O9_4 O 0.81430(9) 0.4548(4) 0.40120(8)
H5_4 H 0.7839(7) 0.466(6) 0.4064(12)
H6_3 H 0.8327(13) 0.527(5) 0.4134(12)
C1_4 C 0.79813(12) 0.2913(5) 0.31575(9)
C2_4 C 0.77547(12) 0.3581(4) 0.27926(9)
C3_4 C 0.72369(13) 0.3614(5) 0.27465(10)
H7_4 H 0.702642 0.321857 0.295067
C4_4 C 0.70247(13) 0.4218(5) 0.24061(10)
H8_4 H 0.666984 0.427628 0.238344
C5_4 C 0.73244(12) 0.4743(4) 0.20952(9)
C6_4 C 0.78421(12) 0.4709(5) 0.21427(9)
H9_3 H 0.805246 0.507697 0.193612
C7_4 C 0.80573(12) 0.4148(5) 0.24871(10)
H10_4 H 0.841190 0.415005 0.251484
C8_2 C 0.43721(12) 0.9552(5) 0.12896(10)
C9_2 C 0.48678(12) 0.8615(5) 0.13213(10)
C10_3 C 0.50954(13) 0.7893(5) 0.09940(10)
H11_2 H 0.492027 0.790504 0.075581
C11_3 C 0.55745(13) 0.7158(5) 0.10112(10)
H12_3 H 0.572157 0.666093 0.078542
C12_3 C 0.58433(12) 0.7140(5) 0.13568(9)
C13_3 C 0.56023(13) 0.7772(5) 0.16866(10)
H13_3 H 0.576880 0.769866 0.192790
C14_3 C 0.51205(13) 0.8511(5) 0.16686(11)
H14_2 H 0.496475 0.894645 0.189665
C17_4 C 0.81117(13) 0.4753(5) 0.02563(10)
H15_4 H 0.846697 0.476453 0.023501
C18_3 C 0.78846(12) 0.5121(5) 0.06084(9)
H16_3 H 0.808654 0.543152 0.082395
C19_3 C 0.73654(12) 0.5041(4) 0.06492(9)
C20_4 C 0.70761(12) 0.4625(5) 0.03252(9)
H17_4 H 0.672114 0.456658 0.034663
C22_3 C 0.70918(11) 0.5273(5) 0.17213(9)
C23_3 C 0.66096(12) 0.6020(5) 0.17140(9)
H19_3 H 0.644081 0.624371 0.195016
C24_3 C 0.63692(12) 0.6448(4) 0.13676(9)
C25_3 C 0.66363(12) 0.6172(5) 0.10256(10)
H20_3 H 0.648633 0.651640 0.078847
C26_3 C 0.71137(12) 0.5411(5) 0.10217(9)
C27_4 C 0.73376(12) 0.4943(4) 0.13730(9)
H21_4 H 0.766037 0.439498 0.137441
C15_4 C 0.80506(12) 0.4015(5) 0.95518(9)
C16_4 C 0.78182(12) 0.4367(5) 0.99354(9)
C21_4 C 0.73024(13) 0.4297(5) 0.99739(10)
H18_4 H 0.710084 0.402107 0.975606
C8_3 C 0.93721(12) 0.5448(5) 0.87104(10)
C9_3 C 0.98678(12) 0.6385(5) 0.86787(10)
H11_3 H 0.992027 0.709496 0.924419
H14_3 H 0.996475 0.605355 0.810335
O4_2 O 0.91401(9) 0.9518(4) 0.40282(7)
C8_4 C 0.93721(12) 0.9552(5) 0.37104(10)
C9_4 C 0.98678(12) 0.8615(5) 0.36787(10)
H11_4 H 0.992027 0.790504 0.424419
H14_4 H 0.996475 0.894645 0.310335
O8_4 O 0.82248(10) 0.8613(4) 0.36345(8)
H3_4 H 0.8438(12) 0.787(5) 0.3554(14)
H4_4 H 0.7934(8) 0.823(6) 0.3623(14)
O8_5 O 0.17752(10) 0.1387(4) 0.63655(8)
H3_5 H 0.1562(12) 0.213(5) 0.6446(14)
H4_5 H 0.2066(8) 0.177(6) 0.6377(14)
O11_3 O 0.08599(9) 0.0482(4) 0.59718(7)
C8_5 C 0.06279(12) 0.0448(5) 0.62896(10)
C9_5 C 0.01322(12) 0.1385(5) 0.63213(10)
H11_5 H 0.007973 0.209496 0.575581
H14_5 H 0.003525 0.105355 0.689665
O5_3 O 0.14940(8) 0.6442(4) 0.04718(7)
O6_3 O 0.22102(9) 0.5828(4) 0.07514(7)
C15_5 C 0.19494(12) 0.5985(5) 0.04482(9)
C16_5 C 0.21818(12) 0.5633(5) 0.00646(9)
C21_5 C 0.26976(13) 0.5703(5) 0.00261(10)
H18_5 H 0.289916 0.597893 0.024394
Tb3_2 Tb 0.15252(2) 0.66031(2) 0.11767(2)
Tb1_3 Tb 0.15252(2) 0.83969(2) 0.61767(2)
O1_5 O 0.15468(9) 0.6950(4) 0.67971(8)
O2_5 O 0.22844(9) 0.7781(4) 0.65813(7)
O4_3 O 0.58599(9) 0.0482(4) 0.90282(7)
O7_5 O 0.08437(10) 0.6309(4) 0.60659(9)
H1_5 H 0.0906(17) 0.550(5) 0.5908(11)
H2_5 H 0.0943(17) 0.729(4) 0.6116(13)
O9_5 O 0.18570(9) 0.5452(4) 0.59880(8)
H5_5 H 0.2161(7) 0.534(6) 0.5936(12)
H6_4 H 0.1673(13) 0.473(5) 0.5866(12)
C1_5 C 0.20187(12) 0.7087(5) 0.68425(9)
C2_5 C 0.22453(12) 0.6419(4) 0.72074(9)
C3_5 C 0.27631(13) 0.6386(5) 0.72535(10)
H7_5 H 0.297358 0.678143 0.704933
C4_5 C 0.29753(13) 0.5782(5) 0.75939(10)
H8_5 H 0.333016 0.572372 0.761656
C5_5 C 0.26756(12) 0.5257(4) 0.79048(9)
C6_5 C 0.21579(12) 0.5291(5) 0.78573(9)
H9_4 H 0.194754 0.492303 0.806388
C7_5 C 0.19427(12) 0.5852(5) 0.75129(10)
H10_5 H 0.158810 0.584995 0.748516
C8_6 C 0.56279(12) 0.0448(5) 0.87104(10)
C9_6 C 0.51322(12) 0.1385(5) 0.86787(10)
C10_4 C 0.49046(13) 0.2107(5) 0.90060(10)
H11_6 H 0.507973 0.209496 0.924419
C11_4 C 0.44255(13) 0.2842(5) 0.89888(10)
H12_4 H 0.427843 0.333907 0.921458
C12_4 C 0.41567(12) 0.2860(5) 0.86432(9)
C13_4 C 0.43977(13) 0.2228(5) 0.83134(10)
H13_4 H 0.423120 0.230134 0.807210
C14_4 C 0.48795(13) 0.1489(5) 0.83314(11)
H14_6 H 0.503525 0.105355 0.810335
C17_5 C 0.18883(13) 0.5247(5) 0.97437(10)
H15_5 H 0.153303 0.523547 0.976499
C18_4 C 0.21154(12) 0.4879(5) 0.93916(9)
H16_4 H 0.191346 0.456848 0.917605
C19_4 C 0.26346(12) 0.4959(4) 0.93508(9)
C20_5 C 0.29239(12) 0.5375(5) 0.96748(9)
H17_5 H 0.327886 0.543342 0.965337
C22_4 C 0.29082(11) 0.4727(5) 0.82787(9)
C23_4 C 0.33904(12) 0.3980(5) 0.82860(9)
H19_4 H 0.355919 0.375629 0.804984
C24_4 C 0.36308(12) 0.3552(4) 0.86324(9)
C25_4 C 0.33637(12) 0.3828(5) 0.89744(10)
H20_4 H 0.351367 0.348360 0.921153
C26_4 C 0.28863(12) 0.4589(5) 0.89783(9)
C27_5 C 0.26624(12) 0.5057(4) 0.86270(9)
H21_5 H 0.233963 0.560502 0.862559
O10_3 O 0.08054(9) 0.9585(4) 0.65707(7)
O12_3 O 0.14940(8) 0.8558(4) 0.54718(7)
O13_3 O 0.22102(9) 0.9172(4) 0.57514(7)
O3_3 O 0.08054(9) 0.5415(4) 0.15707(7)
O4_4 O 0.08599(9) 0.4518(4) 0.09718(7)
C8_7 C 0.06279(12) 0.4552(5) 0.12896(10)
C9_7 C 0.01322(12) 0.3615(5) 0.13213(10)
H11_7 H 0.007973 0.290504 0.075581
H14_7 H 0.003525 0.394645 0.189665
O8_6 O 0.67752(10) 0.1387(4) 0.86345(8)
H3_6 H 0.6562(12) 0.213(5) 0.8554(14)
H4_6 H 0.7066(8) 0.177(6) 0.8623(14)
O1_6 O 0.15468(9) 0.8050(4) 0.17971(8)
O2_6 O 0.22844(9) 0.7219(4) 0.15813(7)
O7_6 O 0.08437(10) 0.8691(4) 0.10659(9)
H1_6 H 0.0906(17) 0.950(5) 0.0908(11)
H2_6 H 0.0943(17) 0.771(4) 0.1116(13)
O8_7 O 0.17752(10) 0.3613(4) 0.13655(8)
H3_7 H 0.1562(12) 0.287(5) 0.1446(14)
H4_7 H 0.2066(8) 0.323(6) 0.1377(14)
O9_6 O 0.18570(9) 0.9548(4) 0.09880(8)
H5_6 H 0.2161(7) 0.966(6) 0.0936(12)
C1_6 C 0.20187(12) 0.7913(5) 0.18425(9)
C2_6 C 0.22453(12) 0.8581(4) 0.22074(9)
C3_6 C 0.27631(13) 0.8614(5) 0.22535(10)
H7_6 H 0.297358 0.821857 0.204933
C4_6 C 0.29753(13) 0.9218(5) 0.25939(10)
H8_6 H 0.333016 0.927628 0.261656
C5_6 C 0.26756(12) 0.9743(4) 0.29048(9)
C6_6 C 0.21579(12) 0.9709(5) 0.28573(9)
C7_6 C 0.19427(12) 0.9148(5) 0.25129(10)
H10_6 H 0.158810 0.915005 0.248516
C15_6 C 0.19494(12) 0.9015(5) 0.54482(9)
C16_6 C 0.21818(12) 0.9367(5) 0.50646(9)
C17_6 C 0.18883(13) 0.9753(5) 0.47437(10)
H15_6 H 0.153303 0.976453 0.476499
C20_6 C 0.29239(12) 0.9625(5) 0.46748(9)
H17_6 H 0.327886 0.956658 0.465337
C21_6 C 0.26976(13) 0.9297(5) 0.50261(10)
H18_6 H 0.289916 0.902107 0.524394
C27_6 C 0.26624(12) 0.9943(4) 0.36270(9)
H21_6 H 0.233963 0.939498 0.362559
O3_4 O 0.58054(9) 0.9585(4) 0.84293(7)
Tb2_2 Tb 0.65252(2) 0.83969(2) 0.88233(2)
Tb1_4 Tb 0.65252(2) 0.66031(2) 0.38233(2)
O1_7 O 0.65468(9) 0.8050(4) 0.32029(8)
O2_7 O 0.72844(9) 0.7219(4) 0.34187(7)
O7_7 O 0.58437(10) 0.8691(4) 0.39341(9)
H1_7 H 0.5906(17) 0.950(5) 0.4092(11)
H2_7 H 0.5943(17) 0.771(4) 0.3884(13)
O8_8 O 0.67752(10) 0.3613(4) 0.36345(8)
H3_8 H 0.6562(12) 0.287(5) 0.3554(14)
H4_8 H 0.7066(8) 0.323(6) 0.3623(14)
O9_7 O 0.68570(9) 0.9548(4) 0.40120(8)
H5_7 H 0.7161(7) 0.966(6) 0.4064(12)
C1_7 C 0.70187(12) 0.7913(5) 0.31575(9)
C2_7 C 0.72453(12) 0.8581(4) 0.27926(9)
C3_7 C 0.77631(13) 0.8614(5) 0.27465(10)
H7_7 H 0.797358 0.821857 0.295067
C4_7 C 0.79753(13) 0.9218(5) 0.24061(10)
H8_7 H 0.833016 0.927628 0.238344
C5_7 C 0.76756(12) 0.9743(4) 0.20952(9)
C6_7 C 0.71579(12) 0.9709(5) 0.21427(9)
C7_7 C 0.69427(12) 0.9148(5) 0.24871(10)
H10_7 H 0.658810 0.915005 0.251484
C17_7 C 0.68883(13) 0.9753(5) 0.02563(10)
H15_7 H 0.653303 0.976453 0.023501
C20_7 C 0.79239(12) 0.9625(5) 0.03252(9)
H17_7 H 0.827886 0.956658 0.034663
C27_7 C 0.76624(12) 0.9943(4) 0.13730(9)
H21_7 H 0.733963 0.939498 0.137441
O10_4 O 0.58054(9) 0.5415(4) 0.34293(7)
O11_4 O 0.58599(9) 0.4518(4) 0.40282(7)
O12_4 O 0.64940(8) 0.6442(4) 0.45282(7)
O13_4 O 0.72102(9) 0.5828(4) 0.42486(7)
O5_4 O 0.64940(8) 0.8558(4) 0.95282(7)
O6_4 O 0.72102(9) 0.9172(4) 0.92486(7)
C15_7 C 0.69494(12) 0.9015(5) 0.95518(9)
C16_7 C 0.71818(12) 0.9367(5) 0.99354(9)
C21_7 C 0.76976(13) 0.9297(5) 0.99739(10)
H18_7 H 0.789916 0.902107 0.975606
O1_8 O 0.65468(9) 0.6950(4) 0.82029(8)
O2_8 O 0.72844(9) 0.7781(4) 0.84187(7)
O7_8 O 0.58437(10) 0.6309(4) 0.89341(9)
H1_8 H 0.5906(17) 0.550(5) 0.9092(11)
H2_8 H 0.5943(17) 0.729(4) 0.8884(13)
O9_8 O 0.68570(9) 0.5452(4) 0.90120(8)
H5_8 H 0.7161(7) 0.534(6) 0.9064(12)
H6_5 H 0.6673(13) 0.473(5) 0.9134(12)
C1_8 C 0.70187(12) 0.7087(5) 0.81575(9)
C2_8 C 0.72453(12) 0.6419(4) 0.77926(9)
C3_8 C 0.77631(13) 0.6386(5) 0.77465(10)
H7_8 H 0.797358 0.678143 0.795067
C4_8 C 0.79753(13) 0.5782(5) 0.74061(10)
H8_8 H 0.833016 0.572372 0.738344
C5_8 C 0.76756(12) 0.5257(4) 0.70952(9)
C6_8 C 0.71579(12) 0.5291(5) 0.71427(9)
H9_5 H 0.694754 0.492303 0.693612
C7_8 C 0.69427(12) 0.5852(5) 0.74871(10)
H10_8 H 0.658810 0.584995 0.751484
C10_5 C 0.99046(13) 0.2107(5) 0.59940(10)
C11_5 C 0.94255(13) 0.2842(5) 0.60112(10)
H12_5 H 0.927843 0.333907 0.578542
C12_5 C 0.91567(12) 0.2860(5) 0.63568(9)
C13_5 C 0.93977(13) 0.2228(5) 0.66866(10)
H13_5 H 0.923120 0.230134 0.692790
C14_5 C 0.98795(13) 0.1489(5) 0.66686(11)
C15_8 C 0.69494(12) 0.5985(5) 0.45518(9)
C16_8 C 0.71818(12) 0.5633(5) 0.49354(9)
C17_8 C 0.68883(13) 0.5247(5) 0.52563(10)
H15_8 H 0.653303 0.523547 0.523501
C18_5 C 0.71154(12) 0.4879(5) 0.56084(9)
H16_5 H 0.691346 0.456848 0.582395
C19_5 C 0.76346(12) 0.4959(4) 0.56492(9)
C20_8 C 0.79239(12) 0.5375(5) 0.53252(9)
H17_8 H 0.827886 0.543342 0.534663
C21_8 C 0.76976(13) 0.5703(5) 0.49739(10)
H18_8 H 0.789916 0.597893 0.475606
C22_5 C 0.79082(11) 0.4727(5) 0.67213(9)
C23_5 C 0.83904(12) 0.3980(5) 0.67140(9)
H19_5 H 0.855919 0.375629 0.695016
C24_5 C 0.86308(12) 0.3552(4) 0.63676(9)
C25_5 C 0.83637(12) 0.3828(5) 0.60256(10)
H20_5 H 0.851367 0.348360 0.578847
C26_5 C 0.78863(12) 0.4589(5) 0.60217(9)
C27_8 C 0.76624(12) 0.5057(4) 0.63730(9)
H21_8 H 0.733963 0.560502 0.637441
H6_6 H 0.1673(13) 0.027(5) 0.0866(12)
H9_6 H 0.194754 0.007697 0.306388
C8_8 C 0.56279(12) 0.4552(5) 0.37104(10)
C9_8 C 0.51322(12) 0.3615(5) 0.36787(10)
C10_6 C 0.49046(13) 0.2893(5) 0.40060(10)
H11_8 H 0.507973 0.290504 0.424419
C11_6 C 0.44255(13) 0.2158(5) 0.39888(10)
H12_6 H 0.427843 0.166093 0.421458
C12_6 C 0.41567(12) 0.2140(5) 0.36432(9)
C13_6 C 0.43977(13) 0.2772(5) 0.33134(10)
H13_6 H 0.423120 0.269866 0.307210
C14_6 C 0.48795(13) 0.3511(5) 0.33314(11)
H14_8 H 0.503525 0.394645 0.310335
C18_6 C 0.21154(12) 0.0121(5) 0.43916(9)
H16_6 H 0.191346 0.043152 0.417605
C19_6 C 0.26346(12) 0.0041(4) 0.43508(9)
C22_6 C 0.29082(11) 0.0273(5) 0.32787(9)
C23_6 C 0.33904(12) 0.1020(5) 0.32860(9)
H19_6 H 0.355919 0.124371 0.304984
C24_6 C 0.36308(12) 0.1448(4) 0.36324(9)
C25_6 C 0.33637(12) 0.1172(5) 0.39744(10)
H20_6 H 0.351367 0.151640 0.421153
C26_6 C 0.28863(12) 0.0411(5) 0.39783(9)
H6_7 H 0.6673(13) 0.027(5) 0.4134(12)
H9_7 H 0.694754 0.007697 0.193612
C10_7 C 0.99046(13) 0.2893(5) 0.09940(10)
C11_7 C 0.94255(13) 0.2158(5) 0.10112(10)
H12_7 H 0.927843 0.166093 0.078542
C12_7 C 0.91567(12) 0.2140(5) 0.13568(9)
C13_7 C 0.93977(13) 0.2772(5) 0.16866(10)
H13_7 H 0.923120 0.269866 0.192790
C14_7 C 0.98795(13) 0.3511(5) 0.16686(11)
C18_7 C 0.71154(12) 0.0121(5) 0.06084(9)
H16_7 H 0.691346 0.043152 0.082395
C19_7 C 0.76346(12) 0.0041(4) 0.06492(9)
C22_7 C 0.79082(11) 0.0273(5) 0.17213(9)
C23_7 C 0.83904(12) 0.1020(5) 0.17140(9)
H19_7 H 0.855919 0.124371 0.195016
C24_7 C 0.86308(12) 0.1448(4) 0.13676(9)
C25_7 C 0.83637(12) 0.1172(5) 0.10256(10)
H20_7 H 0.851367 0.151640 0.078847
C26_7 C 0.78863(12) 0.0411(5) 0.10217(9)
H6_8 H 0.3327(13) 0.973(5) 0.5866(12)
H9_8 H 0.305246 0.992303 0.806388
C10_8 C 0.00954(13) 0.7107(5) 0.90060(10)
C11_8 C 0.05745(13) 0.7842(5) 0.89888(10)
H12_8 H 0.072157 0.833907 0.921458
C12_8 C 0.08433(12) 0.7860(5) 0.86432(9)
C13_8 C 0.06023(13) 0.7228(5) 0.83134(10)
H13_8 H 0.076880 0.730134 0.807210
C14_8 C 0.01205(13) 0.6489(5) 0.83314(11)
C18_8 C 0.28846(12) 0.9879(5) 0.93916(9)
H16_8 H 0.308654 0.956848 0.917605
C19_8 C 0.23654(12) 0.9959(4) 0.93508(9)
C22_8 C 0.20918(11) 0.9727(5) 0.82787(9)
C23_8 C 0.16096(12) 0.8980(5) 0.82860(9)
H19_8 H 0.144081 0.875629 0.804984
C24_8 C 0.13692(12) 0.8552(4) 0.86324(9)
C25_8 C 0.16363(12) 0.8828(5) 0.89744(10)
H20_8 H 0.148633 0.848360 0.921153
C26_8 C 0.21137(12) 0.9589(5) 0.89783(9)
loop_
_geom_bond_atom_site_label_1
_geom_bond_atom_site_label_2
_geom_bond_site_symmetry_1
_geom_bond_site_symmetry_2
Tb1 O1 1_555 1_555
O1 C1 1_555 1_555
O2 Tb1 1_555 1_555
O5 C15 1_555 1_555
O6 C15 1_555 1_555
O7 Tb1 1_555 1_555
H1 O7 1_555 1_555
H2 O7 1_555 1_555
O9 Tb1 1_555 1_555
H5 O9 1_555 1_555
H6 O9 1_555 1_555
C1 O2 1_555 1_555
C2 C1 1_555 1_555
C3 C2 1_555 1_555
H7 C3 1_555 1_555
C4 C3 1_555 1_555
H8 C4 1_555 1_555
C5 C4 1_555 1_555
C6 C5 1_555 1_555
H9 C6 1_555 1_555
C7 C2 1_555 1_555
H10 C7 1_555 1_555
C11 C10 1_555 1_555
H12 C11 1_555 1_555
C12 C11 1_555 1_555
C13 C12 1_555 1_555
H13 C13 1_555 1_555
C15 C16 1_555 1_555
C16 C17 1_555 1_555
C17 H15 1_555 1_555
C18 C17 1_555 1_555
H16 C18 1_555 1_555
C19 C18 1_555 1_555
C20 C19 1_555 1_555
H17 C20 1_555 1_555
C21 C16 1_555 1_555
H18 C21 1_555 1_555
C22 C5 1_555 1_555
C23 C22 1_555 1_555
H19 C23 1_555 1_555
C24 C12 1_555 1_555
C25 C24 1_555 1_555
H20 C25 1_555 1_555
C26 C19 1_555 1_555
C27 C22 1_555 1_555
H21 C27 1_555 1_555
Tb3 O5 1_555 1_555
O10 Tb1 1_555 1_555
O12 Tb1 1_555 1_555
O13 Tb1 1_555 1_555
O6 Tb3 1_555 1_555
C6 C7 1_555 1_555
C13 C14 1_555 1_555
C20 C21 1_555 1_555
C23 C24 1_555 1_555
C25 C26 1_555 1_555
C26 C27 1_555 1_555
O3 C8 1_555 1_555
O4 C8 1_555 1_555
C8 C9 1_555 1_555
C9 C10_2 1_555 1_555
C10_2 H11 1_555 1_555
C11_2 C10_2 1_555 1_555
H12_2 C11_2 1_555 1_555
C12_2 C11_2 1_555 1_555
C13_2 C12_2 1_555 1_555
H13_2 C13_2 1_555 1_555
C14_2 C9 1_555 1_555
H14 C14_2 1_555 1_555
H16_2 C18_2 1_555 1_555
C19_2 C18_2 1_555 1_555
C23_2 C22_2 1_555 1_555
H19_2 C23_2 1_555 1_555
C24_2 C12_2 1_555 1_555
C25_2 C24_2 1_555 1_555
H20_2 C25_2 1_555 1_555
C26_2 C19_2 1_555 1_555
Tb3 O3 1_555 1_555
O4 Tb3 1_555 1_555
C13_2 C14_2 1_555 1_555
C23_2 C24_2 1_555 1_555
C25_2 C26_2 1_555 1_555
O12 C15_2 1_555 1_555
O13 C15_2 1_555 1_555
C15_2 C16_2 1_555 1_555
C21_2 C16_2 1_555 1_555
H18_2 C21_2 1_555 1_555
Tb3 O1_2 1_555 1_555
O1_2 C1_2 1_555 1_555
O2_2 Tb3 1_555 1_555
O7_2 Tb3 1_555 1_555
H1_2 O7_2 1_555 1_555
H2_2 O7_2 1_555 1_555
O8 Tb3 1_555 1_555
H3 O8 1_555 1_555
H4 O8 1_555 1_555
O9_2 Tb3 1_555 1_555
H5_2 O9_2 1_555 1_555
C1_2 O2_2 1_555 1_555
C2_2 C1_2 1_555 1_555
C3_2 C2_2 1_555 1_555
H7_2 C3_2 1_555 1_555
C4_2 C3_2 1_555 1_555
H8_2 C4_2 1_555 1_555
C5_2 C4_2 1_555 1_555
C6_2 C5_2 1_555 1_555
C7_2 C2_2 1_555 1_555
H10_2 C7_2 1_555 1_555
C17_2 H15_2 1_555 1_555
H17_2 C20_2 1_555 1_555
H21_2 C27_2 1_555 1_555
C6_2 C7_2 1_555 1_555
H3_2 O8_2 1_555 1_555
H4_2 O8_2 1_555 1_555
Tb2 O3_2 1_555 1_555
Tb1_2 O1_3 1_555 1_555
O1_3 C1_3 1_555 1_555
O2_3 Tb1_2 1_555 1_555
O5_2 C15_3 1_555 1_555
O6_2 C15_3 1_555 1_555
O7_3 Tb1_2 1_555 1_555
H1_3 O7_3 1_555 1_555
H2_3 O7_3 1_555 1_555
O8_3 Tb1_2 1_555 1_555
H3_3 O8_3 1_555 1_555
H4_3 O8_3 1_555 1_555
O9_3 Tb1_2 1_555 1_555
H5_3 O9_3 1_555 1_555
C1_3 O2_3 1_555 1_555
C2_3 C1_3 1_555 1_555
C3_3 C2_3 1_555 1_555
H7_3 C3_3 1_555 1_555
C4_3 C3_3 1_555 1_555
H8_3 C4_3 1_555 1_555
C5_3 C4_3 1_555 1_555
C6_3 C5_3 1_555 1_555
C7_3 C2_3 1_555 1_555
H10_3 C7_3 1_555 1_555
C15_3 C16_3 1_555 1_555
C16_3 C17_3 1_555 1_555
C17_3 H15_3 1_555 1_555
H17_3 C20_3 1_555 1_555
C21_3 C16_3 1_555 1_555
H18_3 C21_3 1_555 1_555
H21_3 C27_3 1_555 1_555
Tb2 O5_2 1_555 1_555
O10_2 Tb1_2 1_555 1_555
O11_2 Tb1_2 1_555 1_555
O12_2 Tb1_2 1_555 1_555
O13_2 Tb1_2 1_555 1_555
O6_2 Tb2 1_555 1_555
C6_3 C7_3 1_555 1_555
C20_3 C21_3 1_555 1_555
Tb2 O1_4 1_555 1_555
O1_4 C1_4 1_555 1_555
O2_4 Tb2 1_555 1_555
O11 C8_2 1_555 1_555
O7_4 Tb2 1_555 1_555
H1_4 O7_4 1_555 1_555
H2_4 O7_4 1_555 1_555
O9_4 Tb2 1_555 1_555
H5_4 O9_4 1_555 1_555
H6_3 O9_4 1_555 1_555
C1_4 O2_4 1_555 1_555
C2_4 C1_4 1_555 1_555
C3_4 C2_4 1_555 1_555
H7_4 C3_4 1_555 1_555
C4_4 C3_4 1_555 1_555
H8_4 C4_4 1_555 1_555
C5_4 C4_4 1_555 1_555
C6_4 C5_4 1_555 1_555
H9_3 C6_4 1_555 1_555
C7_4 C2_4 1_555 1_555
H10_4 C7_4 1_555 1_555
C8_2 C9_2 1_555 1_555
C9_2 C10_3 1_555 1_555
C10_3 H11_2 1_555 1_555
C11_3 C10_3 1_555 1_555
H12_3 C11_3 1_555 1_555
C12_3 C11_3 1_555 1_555
C13_3 C12_3 1_555 1_555
H13_3 C13_3 1_555 1_555
C14_3 C9_2 1_555 1_555
H14_2 C14_3 1_555 1_555
C17_4 H15_4 1_555 1_555
C18_3 C17_4 1_555 1_555
H16_3 C18_3 1_555 1_555
C19_3 C18_3 1_555 1_555
C20_4 C19_3 1_555 1_555
H17_4 C20_4 1_555 1_555
C22_3 C5_4 1_555 1_555
C23_3 C22_3 1_555 1_555
H19_3 C23_3 1_555 1_555
C24_3 C12_3 1_555 1_555
C25_3 C24_3 1_555 1_555
H20_3 C25_3 1_555 1_555
C26_3 C19_3 1_555 1_555
C27_4 C22_3 1_555 1_555
H21_4 C27_4 1_555 1_555
C6_4 C7_4 1_555 1_555
C13_3 C14_3 1_555 1_555
C23_3 C24_3 1_555 1_555
C25_3 C26_3 1_555 1_555
C26_3 C27_4 1_555 1_555
O12_2 C15_4 1_555 1_555
O13_2 C15_4 1_555 1_555
C15_4 C16_4 1_555 1_555
C21_4 C16_4 1_555 1_555
H18_4 C21_4 1_555 1_555
O10_2 C8_3 1_555 1_555
O11_2 C8_3 1_555 1_555
C8_3 C9_3 1_555 1_555
O4_2 C8_4 1_555 1_555
C8_4 C9_4 1_555 1_555
H3_4 O8_4 1_555 1_555
H4_4 O8_4 1_555 1_555
H3_5 O8_5 1_555 1_555
H4_5 O8_5 1_555 1_555
O11_3 C8_5 1_555 1_555
C8_5 C9_5 1_555 1_555
O5_3 C15_5 1_555 1_555
O6_3 C15_5 1_555 1_555
C15_5 C16_5 1_555 1_555
C21_5 C16_5 1_555 1_555
H18_5 C21_5 1_555 1_555
Tb3_2 O5_3 1_555 1_555
O6_3 Tb3_2 1_555 1_555
Tb1_3 O1_5 1_555 1_555
O1_5 C1_5 1_555 1_555
O2_5 Tb1_3 1_555 1_555
O4_3 C8_6 1_555 1_555
O7_5 Tb1_3 1_555 1_555
H1_5 O7_5 1_555 1_555
H2_5 O7_5 1_555 1_555
O9_5 Tb1_3 1_555 1_555
H5_5 O9_5 1_555 1_555
H6_4 O9_5 1_555 1_555
C1_5 O2_5 1_555 1_555
C2_5 C1_5 1_555 1_555
C3_5 C2_5 1_555 1_555
H7_5 C3_5 1_555 1_555
C4_5 C3_5 1_555 1_555
H8_5 C4_5 1_555 1_555
C5_5 C4_5 1_555 1_555
C6_5 C5_5 1_555 1_555
H9_4 C6_5 1_555 1_555
C7_5 C2_5 1_555 1_555
H10_5 C7_5 1_555 1_555
C8_6 C9_6 1_555 1_555
C9_6 C10_4 1_555 1_555
C10_4 H11_6 1_555 1_555
C11_4 C10_4 1_555 1_555
H12_4 C11_4 1_555 1_555
C12_4 C11_4 1_555 1_555
C13_4 C12_4 1_555 1_555
H13_4 C13_4 1_555 1_555
C14_4 C9_6 1_555 1_555
H14_6 C14_4 1_555 1_555
C17_5 H15_5 1_555 1_555
C18_4 C17_5 1_555 1_555
H16_4 C18_4 1_555 1_555
C19_4 C18_4 1_555 1_555
C20_5 C19_4 1_555 1_555
H17_5 C20_5 1_555 1_555
C22_4 C5_5 1_555 1_555
C23_4 C22_4 1_555 1_555
H19_4 C23_4 1_555 1_555
C24_4 C12_4 1_555 1_555
C25_4 C24_4 1_555 1_555
H20_4 C25_4 1_555 1_555
C26_4 C19_4 1_555 1_555
C27_5 C22_4 1_555 1_555
H21_5 C27_5 1_555 1_555
O10_3 Tb1_3 1_555 1_555
O12_3 Tb1_3 1_555 1_555
O13_3 Tb1_3 1_555 1_555
C6_5 C7_5 1_555 1_555
C13_4 C14_4 1_555 1_555
C23_4 C24_4 1_555 1_555
C25_4 C26_4 1_555 1_555
C26_4 C27_5 1_555 1_555
O3_3 C8_7 1_555 1_555
O4_4 C8_7 1_555 1_555
C8_7 C9_7 1_555 1_555
Tb3_2 O3_3 1_555 1_555
O4_4 Tb3_2 1_555 1_555
H3_6 O8_6 1_555 1_555
H4_6 O8_6 1_555 1_555
Tb3_2 O1_6 1_555 1_555
O1_6 C1_6 1_555 1_555
O2_6 Tb3_2 1_555 1_555
O12_3 C15_6 1_555 1_555
O13_3 C15_6 1_555 1_555
O7_6 Tb3_2 1_555 1_555
H1_6 O7_6 1_555 1_555
H2_6 O7_6 1_555 1_555
O8_7 Tb3_2 1_555 1_555
H3_7 O8_7 1_555 1_555
H4_7 O8_7 1_555 1_555
O9_6 Tb3_2 1_555 1_555
H5_6 O9_6 1_555 1_555
C1_6 O2_6 1_555 1_555
C2_6 C1_6 1_555 1_555
C3_6 C2_6 1_555 1_555
H7_6 C3_6 1_555 1_555
C4_6 C3_6 1_555 1_555
H8_6 C4_6 1_555 1_555
C5_6 C4_6 1_555 1_555
C6_6 C5_6 1_555 1_555
C7_6 C2_6 1_555 1_555
H10_6 C7_6 1_555 1_555
C15_6 C16_6 1_555 1_555
C16_6 C17_6 1_555 1_555
C17_6 H15_6 1_555 1_555
H17_6 C20_6 1_555 1_555
C21_6 C16_6 1_555 1_555
H18_6 C21_6 1_555 1_555
H21_6 C27_6 1_555 1_555
C6_6 C7_6 1_555 1_555
C20_6 C21_6 1_555 1_555
Tb2_2 O3_4 1_555 1_555
Tb1_4 O1_7 1_555 1_555
O1_7 C1_7 1_555 1_555
O2_7 Tb1_4 1_555 1_555
O7_7 Tb1_4 1_555 1_555
H1_7 O7_7 1_555 1_555
H2_7 O7_7 1_555 1_555
O8_8 Tb1_4 1_555 1_555
H3_8 O8_8 1_555 1_555
H4_8 O8_8 1_555 1_555
O9_7 Tb1_4 1_555 1_555
H5_7 O9_7 1_555 1_555
C1_7 O2_7 1_555 1_555
C2_7 C1_7 1_555 1_555
C3_7 C2_7 1_555 1_555
H7_7 C3_7 1_555 1_555
C4_7 C3_7 1_555 1_555
H8_7 C4_7 1_555 1_555
C5_7 C4_7 1_555 1_555
C6_7 C5_7 1_555 1_555
C7_7 C2_7 1_555 1_555
H10_7 C7_7 1_555 1_555
C17_7 H15_7 1_555 1_555
H17_7 C20_7 1_555 1_555
H21_7 C27_7 1_555 1_555
O10_4 Tb1_4 1_555 1_555
O11_4 Tb1_4 1_555 1_555
O12_4 Tb1_4 1_555 1_555
O13_4 Tb1_4 1_555 1_555
C6_7 C7_7 1_555 1_555
O5_4 C15_7 1_555 1_555
O6_4 C15_7 1_555 1_555
C15_7 C16_7 1_555 1_555
C21_7 C16_7 1_555 1_555
H18_7 C21_7 1_555 1_555
Tb2_2 O5_4 1_555 1_555
O6_4 Tb2_2 1_555 1_555
Tb2_2 O1_8 1_555 1_555
O1_8 C1_8 1_555 1_555
O2_8 Tb2_2 1_555 1_555
O12_4 C15_8 1_555 1_555
O13_4 C15_8 1_555 1_555
O7_8 Tb2_2 1_555 1_555
H1_8 O7_8 1_555 1_555
H2_8 O7_8 1_555 1_555
O9_8 Tb2_2 1_555 1_555
H5_8 O9_8 1_555 1_555
H6_5 O9_8 1_555 1_555
C1_8 O2_8 1_555 1_555
C2_8 C1_8 1_555 1_555
C3_8 C2_8 1_555 1_555
H7_8 C3_8 1_555 1_555
C4_8 C3_8 1_555 1_555
H8_8 C4_8 1_555 1_555
C5_8 C4_8 1_555 1_555
C6_8 C5_8 1_555 1_555
H9_5 C6_8 1_555 1_555
C7_8 C2_8 1_555 1_555
H10_8 C7_8 1_555 1_555
C11_5 C10_5 1_555 1_555
H12_5 C11_5 1_555 1_555
C12_5 C11_5 1_555 1_555
C13_5 C12_5 1_555 1_555
H13_5 C13_5 1_555 1_555
C15_8 C16_8 1_555 1_555
C16_8 C17_8 1_555 1_555
C17_8 H15_8 1_555 1_555
C18_5 C17_8 1_555 1_555
H16_5 C18_5 1_555 1_555
C19_5 C18_5 1_555 1_555
C20_8 C19_5 1_555 1_555
H17_8 C20_8 1_555 1_555
C21_8 C16_8 1_555 1_555
H18_8 C21_8 1_555 1_555
C22_5 C5_8 1_555 1_555
C23_5 C22_5 1_555 1_555
H19_5 C23_5 1_555 1_555
C24_5 C12_5 1_555 1_555
C25_5 C24_5 1_555 1_555
H20_5 C25_5 1_555 1_555
C26_5 C19_5 1_555 1_555
C27_8 C22_5 1_555 1_555
H21_8 C27_8 1_555 1_555
C6_8 C7_8 1_555 1_555
C13_5 C14_5 1_555 1_555
C20_8 C21_8 1_555 1_555
C23_5 C24_5 1_555 1_555
C25_5 C26_5 1_555 1_555
C26_5 C27_8 1_555 1_555
O10_4 C8_8 1_555 1_555
O11_4 C8_8 1_555 1_555
C8_8 C9_8 1_555 1_555
C9_8 C10_6 1_555 1_555
C10_6 H11_8 1_555 1_555
C11_6 C10_6 1_555 1_555
H12_6 C11_6 1_555 1_555
C12_6 C11_6 1_555 1_555
C13_6 C12_6 1_555 1_555
H13_6 C13_6 1_555 1_555
C14_6 C9_8 1_555 1_555
H14_8 C14_6 1_555 1_555
H16_6 C18_6 1_555 1_555
C19_6 C18_6 1_555 1_555
C23_6 C22_6 1_555 1_555
H19_6 C23_6 1_555 1_555
C24_6 C12_6 1_555 1_555
C25_6 C24_6 1_555 1_555
H20_6 C25_6 1_555 1_555
C26_6 C19_6 1_555 1_555
C13_6 C14_6 1_555 1_555
C23_6 C24_6 1_555 1_555
C25_6 C26_6 1_555 1_555
C11_7 C10_7 1_555 1_555
H12_7 C11_7 1_555 1_555
C12_7 C11_7 1_555 1_555
C13_7 C12_7 1_555 1_555
H13_7 C13_7 1_555 1_555
H16_7 C18_7 1_555 1_555
C19_7 C18_7 1_555 1_555
C23_7 C22_7 1_555 1_555
H19_7 C23_7 1_555 1_555
C24_7 C12_7 1_555 1_555
C25_7 C24_7 1_555 1_555
H20_7 C25_7 1_555 1_555
C26_7 C19_7 1_555 1_555
C13_7 C14_7 1_555 1_555
C23_7 C24_7 1_555 1_555
C25_7 C26_7 1_555 1_555
C11_8 C10_8 1_555 1_555
H12_8 C11_8 1_555 1_555
C12_8 C11_8 1_555 1_555
C13_8 C12_8 1_555 1_555
H13_8 C13_8 1_555 1_555
H16_8 C18_8 1_555 1_555
C19_8 C18_8 1_555 1_555
C23_8 C22_8 1_555 1_555
H19_8 C23_8 1_555 1_555
C24_8 C12_8 1_555 1_555
C25_8 C24_8 1_555 1_555
H20_8 C25_8 1_555 1_555
C26_8 C19_8 1_555 1_555
C13_8 C14_8 1_555 1_555
C23_8 C24_8 1_555 1_555
C25_8 C26_8 1_555 1_555

#END
