
###############################################################################
#
# This file contains modified crystal structure data generated from the
# MOF subset of the Cambridge Structural Database (CSD) v543 
# hosted by the Cambridge Crystallographic Data Centre (CCDC).
#
# This work is licensed under the Creative Commons
# Attribution-NonCommercial-ShareAlike 4.0 International License.
# To view a copy of this license, visit
# http://creativecommons.org/licenses/by-nc-sa/4.0/
# or send a letter to
# Creative Commons, PO Box 1866, Mountain View, CA 94042, USA.
#
# CIF created using the CSD Python API on 29 September 2022
# The structure has been converted into the P1 space group
# The structure has a 3D framework
# The original CSD entry GAQKOB is in the monoclinic crystal system
# The framework has been calculated to contain at least 10.0% void space
# The void calculation uses a probe of radius 1.32A, grid spacing 0.4
# The framework is charged, counterions have been retained in the structure
#
###############################################################################

data_GAQKOB
_chemical_formula_moiety         '(C152 H120 N14 O40 Zn8 8+)n'
_symmetry_cell_setting           triclinic
_symmetry_space_group_name_H-M   'P 1'
_symmetry_Int_Tables_number      1
_space_group_name_Hall           'P 1'
loop_
_symmetry_equiv_pos_site_id
_symmetry_equiv_pos_as_xyz
1 x,y,z
_cell_length_a                   15.7072(3)
_cell_length_b                   10.7130(2)
_cell_length_c                   24.4618(6)
_cell_angle_alpha                90
_cell_angle_beta                 94.280(2)
_cell_angle_gamma                90
_cell_volume                     4104.74
loop_
_atom_site_label
_atom_site_type_symbol
_atom_site_fract_x
_atom_site_fract_y
_atom_site_fract_z
Zn1 Zn 0.14165(7) 0.40920(11) 0.06848(5)
O1 O 0.5487(5) 0.0008(7) 0.0966(3)
O2 O 0.2202(5) 0.3284(7) 0.1219(3)
N1 N 0.1757(5) 0.4652(7) 0.5108(3)
N2 N 0.2489(5) 0.0493(7) 0.2964(3)
C1 C 0.3122(7) 0.0145(9) 0.2069(4)
O3 O 0.3078(6) 0.2987(9) 0.0580(3)
C2 C 0.2602(8) 0.3950(11) 0.4398(5)
H1 H 0.309631 0.404788 0.420109
C3 C 0.3969(6) 0.1135(9) 0.1220(4)
H2 H 0.426256 0.147895 0.092923
C4 C 0.3201(5) 0.1663(8) 0.1354(3)
C5 C 0.2192(6) 0.2127(8) 0.3814(3)
C7 C 0.2769(6) 0.1168(10) 0.1777(4)
H4 H 0.224092 0.151601 0.186759
C8 C 0.1562(6) 0.1269(11) 0.3610(4)
H5 H 0.102389 0.124005 0.376268
C9 C 0.1202(7) 0.3690(11) 0.4979(5)
H6 H 0.071818 0.359129 0.518598
C10 C 0.2027(6) 0.2993(9) 0.4254(4)
C12 C 0.3100(8) 0.1305(12) 0.3142(4)
H9 H 0.362848 0.132451 0.297757
C14 C 0.2806(6) 0.2717(9) 0.1021(4)
C15 C 0.4308(6) 0.0110(8) 0.1507(4)
C16 C 0.1732(6) 0.0475(11) 0.3190(4)
C17 C 0.1321(7) 0.2859(11) 0.4560(4)
H11 H 0.092402 0.220270 0.448088
C18 C 0.2960(6) 0.2093(11) 0.3556(4)
H12 H 0.340340 0.265217 0.367917
C19 C 0.2465(7) 0.4748(10) 0.4818(4)
H13 H 0.287127 0.538522 0.491045
O5 O 0.0914(5) 0.2758(8) 0.0182(3)
H14 H 0.072(7) 0.187(10) 0.034(4)
Zn3 Zn 0.14165(7) 0.59080(11) 0.56848(5)
O6 O 0.0487(5) 0.5008(7) 0.0966(3)
N3 N 0.1757(5) 0.5348(7) 0.0108(3)
C6 C 0.3880(6) 0.9630(9) 0.1931(4)
H3 H 0.411098 0.893303 0.213175
C11 C 0.2633(7) 0.9558(9) 0.2528(4)
H7 H 0.207585 0.923777 0.237147
H8 H 0.296293 0.884492 0.269116
C13 C 0.5124(7) 0.9513(10) 0.1350(5)
H10 H 0.130573 0.990114 0.305500
O4 O 0.5366(10) 0.8580(17) 0.1577(8)
Zn2 Zn 0.64165(7) 0.90920(11) 0.06848(5)
C13_2 C 0.0124(7) 0.4513(10) 0.1350(5)
O4_2 O 0.0366(10) 0.3580(17) 0.1577(8)
H13_2 H 0.787127 0.038522 0.491045
Zn3_2 Zn 0.64165(7) 0.09080(11) 0.56848(5)
N3_2 N 0.6757(5) 0.0348(7) 0.0108(3)
O2_2 O 0.7202(5) 0.8284(7) 0.1219(3)
N1_2 N 0.6757(5) 0.9652(7) 0.5108(3)
N2_2 N 0.7489(5) 0.5493(7) 0.2964(3)
C1_2 C 0.8122(7) 0.5145(9) 0.2069(4)
O3_2 O 0.8078(6) 0.7987(9) 0.0580(3)
C2_2 C 0.7602(8) 0.8950(11) 0.4398(5)
H1_2 H 0.809631 0.904788 0.420109
C3_2 C 0.8969(6) 0.6135(9) 0.1220(4)
H2_2 H 0.926256 0.647895 0.092923
C4_2 C 0.8201(5) 0.6663(8) 0.1354(3)
C5_2 C 0.7192(6) 0.7127(8) 0.3814(3)
C6_2 C 0.8880(6) 0.4630(9) 0.1931(4)
H3_2 H 0.911098 0.393303 0.213175
C7_2 C 0.7769(6) 0.6168(10) 0.1777(4)
H4_2 H 0.724092 0.651601 0.186759
C8_2 C 0.6562(6) 0.6269(11) 0.3610(4)
H5_2 H 0.602389 0.624005 0.376268
C9_2 C 0.6202(7) 0.8690(11) 0.4979(5)
H6_2 H 0.571818 0.859129 0.518598
C10_2 C 0.7027(6) 0.7993(9) 0.4254(4)
C11_2 C 0.7633(7) 0.4558(9) 0.2528(4)
H7_2 H 0.707585 0.423777 0.237147
H8_2 H 0.796293 0.384492 0.269116
C12_2 C 0.8100(8) 0.6305(12) 0.3142(4)
H9_2 H 0.862848 0.632451 0.297757
C14_2 C 0.7806(6) 0.7717(9) 0.1021(4)
C15_2 C 0.9308(6) 0.5110(8) 0.1507(4)
C16_2 C 0.6732(6) 0.5475(11) 0.3190(4)
H10_2 H 0.630573 0.490114 0.305500
C17_2 C 0.6321(7) 0.7859(11) 0.4560(4)
H11_2 H 0.592402 0.720270 0.448088
C18_2 C 0.7960(6) 0.7093(11) 0.3556(4)
H12_2 H 0.840340 0.765217 0.367917
C19_2 C 0.7465(7) 0.9748(10) 0.4818(4)
O5_2 O 0.5914(5) 0.7758(8) 0.0182(3)
H14_2 H 0.572(7) 0.687(10) 0.034(4)
C6_3 C 0.3880(6) 0.0370(9) 0.6931(4)
H3_3 H 0.411098 0.106697 0.713175
C11_3 C 0.2633(7) 0.0442(9) 0.7528(4)
H7_3 H 0.207585 0.076223 0.737147
H8_3 H 0.296293 0.115508 0.769116
C13_3 C 0.5124(7) 0.0487(10) 0.6350(5)
H10_3 H 0.130573 0.009886 0.805500
O4_3 O 0.5366(10) 0.1420(17) 0.6577(8)
H6_3 H 0.071818 0.640871 0.018598
O1_2 O 0.5487(5) 0.9992(7) 0.5966(3)
O2_3 O 0.2202(5) 0.6716(7) 0.6219(3)
N2_3 N 0.2489(5) 0.9507(7) 0.7964(3)
C1_3 C 0.3122(7) 0.9855(9) 0.7069(4)
O3_3 O 0.3078(6) 0.7013(9) 0.5580(3)
C2_3 C 0.2602(8) 0.6050(11) 0.9398(5)
H1_3 H 0.309631 0.595212 0.920109
C3_3 C 0.3969(6) 0.8865(9) 0.6220(4)
H2_3 H 0.426256 0.852105 0.592923
C4_3 C 0.3201(5) 0.8337(8) 0.6354(3)
C5_3 C 0.2192(6) 0.7873(8) 0.8814(3)
C7_3 C 0.2769(6) 0.8832(10) 0.6777(4)
H4_3 H 0.224092 0.848399 0.686759
C8_3 C 0.1562(6) 0.8731(11) 0.8610(4)
H5_3 H 0.102389 0.875995 0.876268
C9_3 C 0.1202(7) 0.6310(11) 0.9979(5)
C10_3 C 0.2027(6) 0.7007(9) 0.9254(4)
C12_3 C 0.3100(8) 0.8695(12) 0.8142(4)
H9_3 H 0.362848 0.867549 0.797757
C14_3 C 0.2806(6) 0.7283(9) 0.6021(4)
C15_3 C 0.4308(6) 0.9890(8) 0.6507(4)
C16_3 C 0.1732(6) 0.9525(11) 0.8190(4)
C17_3 C 0.1321(7) 0.7141(11) 0.9560(4)
H11_3 H 0.092402 0.779730 0.948088
C18_3 C 0.2960(6) 0.7907(11) 0.8556(4)
H12_3 H 0.340340 0.734783 0.867917
C19_3 C 0.2465(7) 0.5252(10) 0.9818(4)
H13_3 H 0.287127 0.461478 0.991045
O5_3 O 0.0914(5) 0.7242(8) 0.5182(3)
H14_3 H 0.072(7) 0.813(10) 0.534(4)
H15 H 0.153(6) 0.665(9) 0.497(4)
O6_2 O 0.0487(5) 0.4992(7) 0.5966(3)
C13_4 C 0.0124(7) 0.5487(10) 0.6350(5)
O4_4 O 0.0366(10) 0.6420(17) 0.6577(8)
H6_4 H 0.571818 0.140871 0.018598
O2_4 O 0.7202(5) 0.1716(7) 0.6219(3)
N2_4 N 0.7489(5) 0.4507(7) 0.7964(3)
C1_4 C 0.8122(7) 0.4855(9) 0.7069(4)
O3_4 O 0.8078(6) 0.2013(9) 0.5580(3)
C2_4 C 0.7602(8) 0.1050(11) 0.9398(5)
H1_4 H 0.809631 0.095212 0.920109
C3_4 C 0.8969(6) 0.3865(9) 0.6220(4)
H2_4 H 0.926256 0.352105 0.592923
C4_4 C 0.8201(5) 0.3337(8) 0.6354(3)
C5_4 C 0.7192(6) 0.2873(8) 0.8814(3)
C6_4 C 0.8880(6) 0.5370(9) 0.6931(4)
H3_4 H 0.911098 0.606697 0.713175
C7_4 C 0.7769(6) 0.3832(10) 0.6777(4)
H4_4 H 0.724092 0.348399 0.686759
C8_4 C 0.6562(6) 0.3731(11) 0.8610(4)
H5_4 H 0.602389 0.375995 0.876268
C9_4 C 0.6202(7) 0.1310(11) 0.9979(5)
C10_4 C 0.7027(6) 0.2007(9) 0.9254(4)
C11_4 C 0.7633(7) 0.5442(9) 0.7528(4)
H7_4 H 0.707585 0.576223 0.737147
H8_4 H 0.796293 0.615508 0.769116
C12_4 C 0.8100(8) 0.3695(12) 0.8142(4)
H9_4 H 0.862848 0.367549 0.797757
C14_4 C 0.7806(6) 0.2283(9) 0.6021(4)
C15_4 C 0.9308(6) 0.4890(8) 0.6507(4)
C16_4 C 0.6732(6) 0.4525(11) 0.8190(4)
H10_4 H 0.630573 0.509886 0.805500
C17_4 C 0.6321(7) 0.2141(11) 0.9560(4)
H11_4 H 0.592402 0.279730 0.948088
C18_4 C 0.7960(6) 0.2907(11) 0.8556(4)
H12_4 H 0.840340 0.234783 0.867917
C19_4 C 0.7465(7) 0.0252(10) 0.9818(4)
O5_4 O 0.5914(5) 0.2242(8) 0.5182(3)
H14_4 H 0.572(7) 0.313(10) 0.534(4)
H15_2 H 0.653(6) 0.165(9) 0.497(4)
H13_4 H 0.787127 0.961478 0.991045
H15_3 H 0.153(6) 0.335(9) 0.997(4)
Zn1_2 Zn 0.85835(7) 0.40920(11) 0.43152(5)
O1_3 O 0.4513(5) 0.0008(7) 0.4034(3)
O2_5 O 0.7798(5) 0.3284(7) 0.3781(3)
N2_5 N 0.7511(5) 0.0493(7) 0.2036(3)
C1_5 C 0.6878(7) 0.0145(9) 0.2931(4)
O3_5 O 0.6922(6) 0.2987(9) 0.4420(3)
C2_5 C 0.7398(8) 0.3950(11) 0.0602(5)
H1_5 H 0.690369 0.404788 0.079891
C3_5 C 0.6031(6) 0.1135(9) 0.3780(4)
H2_5 H 0.573744 0.147895 0.407077
C4_5 C 0.6799(5) 0.1663(8) 0.3646(3)
C5_5 C 0.7808(6) 0.2127(8) 0.1186(3)
C7_5 C 0.7231(6) 0.1168(10) 0.3223(4)
H4_5 H 0.775908 0.151601 0.313241
C8_5 C 0.8438(6) 0.1269(11) 0.1390(4)
H5_5 H 0.897611 0.124005 0.123732
C9_5 C 0.8798(7) 0.3690(11) 0.0021(5)
C10_5 C 0.7973(6) 0.2993(9) 0.0746(4)
C12_5 C 0.6900(8) 0.1305(12) 0.1858(4)
H9_5 H 0.637152 0.132451 0.202243
C14_5 C 0.7194(6) 0.2717(9) 0.3979(4)
C15_5 C 0.5692(6) 0.0110(8) 0.3493(4)
C16_5 C 0.8268(6) 0.0475(11) 0.1810(4)
C17_5 C 0.8679(7) 0.2859(11) 0.0440(4)
H11_5 H 0.907598 0.220270 0.051912
C18_5 C 0.7040(6) 0.2093(11) 0.1444(4)
H12_5 H 0.659660 0.265217 0.132083
C19_5 C 0.7535(7) 0.4748(10) 0.0182(4)
H13_5 H 0.712873 0.538522 0.008955
O5_5 O 0.9086(5) 0.2758(8) 0.4818(3)
H14_5 H 0.928(7) 0.187(10) 0.466(4)
H15_4 H 0.847(6) 0.335(9) 0.503(4)
O6_3 O 0.9513(5) 0.5008(7) 0.4034(3)
N3_3 N 0.8243(5) 0.5348(7) 0.4892(3)
N1_3 N 0.8243(5) 0.4652(7) 0.9892(3)
H6_5 H 0.928182 0.359129 0.981402
Zn3_3 Zn 0.85835(7) 0.59080(11) 0.93152(5)
C6_5 C 0.6120(6) 0.9630(9) 0.3069(4)
H3_5 H 0.588902 0.893303 0.286825
C11_5 C 0.7367(7) 0.9558(9) 0.2472(4)
H7_5 H 0.792415 0.923777 0.262853
H8_5 H 0.703707 0.884492 0.230884
C13_5 C 0.4876(7) 0.9513(10) 0.3650(5)
H10_5 H 0.869427 0.990114 0.194500
O4_5 O 0.4634(10) 0.8580(17) 0.3423(8)
Zn2_2 Zn 0.35835(7) 0.90920(11) 0.43152(5)
H13_6 H 0.212873 0.038522 0.008955
N3_4 N 0.3243(5) 0.0348(7) 0.4892(3)
Zn3_4 Zn 0.35835(7) 0.09080(11) 0.93152(5)
O2_6 O 0.2798(5) 0.8284(7) 0.3781(3)
N2_6 N 0.2511(5) 0.5493(7) 0.2036(3)
C1_6 C 0.1878(7) 0.5145(9) 0.2931(4)
O3_6 O 0.1922(6) 0.7987(9) 0.4420(3)
C2_6 C 0.2398(8) 0.8950(11) 0.0602(5)
H1_6 H 0.190369 0.904788 0.079891
C3_6 C 0.1031(6) 0.6135(9) 0.3780(4)
H2_6 H 0.073744 0.647895 0.407077
C4_6 C 0.1799(5) 0.6663(8) 0.3646(3)
C5_6 C 0.2808(6) 0.7127(8) 0.1186(3)
C6_6 C 0.1120(6) 0.4630(9) 0.3069(4)
H3_6 H 0.088902 0.393303 0.286825
C7_6 C 0.2231(6) 0.6168(10) 0.3223(4)
H4_6 H 0.275908 0.651601 0.313241
C8_6 C 0.3438(6) 0.6269(11) 0.1390(4)
H5_6 H 0.397611 0.624005 0.123732
C9_6 C 0.3798(7) 0.8690(11) 0.0021(5)
C10_6 C 0.2973(6) 0.7993(9) 0.0746(4)
C11_6 C 0.2367(7) 0.4558(9) 0.2472(4)
H7_6 H 0.292415 0.423777 0.262853
H8_6 H 0.203707 0.384492 0.230884
C12_6 C 0.1900(8) 0.6305(12) 0.1858(4)
H9_6 H 0.137152 0.632451 0.202243
C14_6 C 0.2194(6) 0.7717(9) 0.3979(4)
C15_6 C 0.0692(6) 0.5110(8) 0.3493(4)
C16_6 C 0.3268(6) 0.5475(11) 0.1810(4)
H10_6 H 0.369427 0.490114 0.194500
C17_6 C 0.3679(7) 0.7859(11) 0.0440(4)
H11_6 H 0.407598 0.720270 0.051912
C18_6 C 0.2040(6) 0.7093(11) 0.1444(4)
H12_6 H 0.159660 0.765217 0.132083
C19_6 C 0.2535(7) 0.9748(10) 0.0182(4)
O5_6 O 0.4086(5) 0.7758(8) 0.4818(3)
H14_6 H 0.428(7) 0.687(10) 0.466(4)
H15_5 H 0.347(6) 0.835(9) 0.503(4)
N1_4 N 0.3243(5) 0.9652(7) 0.9892(3)
H6_6 H 0.428182 0.859129 0.981402
C13_6 C 0.9876(7) 0.4513(10) 0.3650(5)
O4_6 O 0.9634(10) 0.3580(17) 0.3423(8)
C6_7 C 0.6120(6) 0.0370(9) 0.8069(4)
H3_7 H 0.588902 0.106697 0.786825
C11_7 C 0.7367(7) 0.0442(9) 0.7472(4)
H7_7 H 0.792415 0.076223 0.762853
H8_7 H 0.703707 0.115508 0.730884
C13_7 C 0.4876(7) 0.0487(10) 0.8650(5)
H10_7 H 0.869427 0.009886 0.694500
O4_7 O 0.4634(10) 0.1420(17) 0.8423(8)
O1_4 O 0.4513(5) 0.9992(7) 0.9034(3)
O2_7 O 0.7798(5) 0.6716(7) 0.8781(3)
N2_7 N 0.7511(5) 0.9507(7) 0.7036(3)
C1_7 C 0.6878(7) 0.9855(9) 0.7931(4)
O3_7 O 0.6922(6) 0.7013(9) 0.9420(3)
C2_7 C 0.7398(8) 0.6050(11) 0.5602(5)
H1_7 H 0.690369 0.595212 0.579891
C3_7 C 0.6031(6) 0.8865(9) 0.8780(4)
H2_7 H 0.573744 0.852105 0.907077
C4_7 C 0.6799(5) 0.8337(8) 0.8646(3)
C5_7 C 0.7808(6) 0.7873(8) 0.6186(3)
C7_7 C 0.7231(6) 0.8832(10) 0.8223(4)
H4_7 H 0.775908 0.848399 0.813241
C8_7 C 0.8438(6) 0.8731(11) 0.6390(4)
H5_7 H 0.897611 0.875995 0.623732
C9_7 C 0.8798(7) 0.6310(11) 0.5021(5)
H6_7 H 0.928182 0.640871 0.481402
C10_7 C 0.7973(6) 0.7007(9) 0.5746(4)
C12_7 C 0.6900(8) 0.8695(12) 0.6858(4)
H9_7 H 0.637152 0.867549 0.702243
C14_7 C 0.7194(6) 0.7283(9) 0.8979(4)
C15_7 C 0.5692(6) 0.9890(8) 0.8493(4)
C16_7 C 0.8268(6) 0.9525(11) 0.6810(4)
C17_7 C 0.8679(7) 0.7141(11) 0.5440(4)
H11_7 H 0.907598 0.779730 0.551912
C18_7 C 0.7040(6) 0.7907(11) 0.6444(4)
H12_7 H 0.659660 0.734783 0.632083
C19_7 C 0.7535(7) 0.5252(10) 0.5182(4)
H13_7 H 0.712873 0.461478 0.508955
O5_7 O 0.9086(5) 0.7242(8) 0.9818(3)
H14_7 H 0.928(7) 0.813(10) 0.966(4)
O6_4 O 0.9513(5) 0.4992(7) 0.9034(3)
O2_8 O 0.2798(5) 0.1716(7) 0.8781(3)
N2_8 N 0.2511(5) 0.4507(7) 0.7036(3)
C1_8 C 0.1878(7) 0.4855(9) 0.7931(4)
O3_8 O 0.1922(6) 0.2013(9) 0.9420(3)
C2_8 C 0.2398(8) 0.1050(11) 0.5602(5)
H1_8 H 0.190369 0.095212 0.579891
C3_8 C 0.1031(6) 0.3865(9) 0.8780(4)
H2_8 H 0.073744 0.352105 0.907077
C4_8 C 0.1799(5) 0.3337(8) 0.8646(3)
C5_8 C 0.2808(6) 0.2873(8) 0.6186(3)
C6_8 C 0.1120(6) 0.5370(9) 0.8069(4)
H3_8 H 0.088902 0.606697 0.786825
C7_8 C 0.2231(6) 0.3832(10) 0.8223(4)
H4_8 H 0.275908 0.348399 0.813241
C8_8 C 0.3438(6) 0.3731(11) 0.6390(4)
H5_8 H 0.397611 0.375995 0.623732
C9_8 C 0.3798(7) 0.1310(11) 0.5021(5)
H6_8 H 0.428182 0.140871 0.481402
C10_8 C 0.2973(6) 0.2007(9) 0.5746(4)
C11_8 C 0.2367(7) 0.5442(9) 0.7472(4)
H7_8 H 0.292415 0.576223 0.762853
H8_8 H 0.203707 0.615508 0.730884
C12_8 C 0.1900(8) 0.3695(12) 0.6858(4)
H9_8 H 0.137152 0.367549 0.702243
C14_8 C 0.2194(6) 0.2283(9) 0.8979(4)
C15_8 C 0.0692(6) 0.4890(8) 0.8493(4)
C16_8 C 0.3268(6) 0.4525(11) 0.6810(4)
H10_8 H 0.369427 0.509886 0.694500
C17_8 C 0.3679(7) 0.2141(11) 0.5440(4)
H11_8 H 0.407598 0.279730 0.551912
C18_8 C 0.2040(6) 0.2907(11) 0.6444(4)
H12_8 H 0.159660 0.234783 0.632083
C19_8 C 0.2535(7) 0.0252(10) 0.5182(4)
O5_8 O 0.4086(5) 0.2242(8) 0.9818(3)
H14_8 H 0.428(7) 0.313(10) 0.966(4)
H13_8 H 0.212873 0.961478 0.508955
C13_8 C 0.9876(7) 0.5487(10) 0.8650(5)
O4_8 O 0.9634(10) 0.6420(17) 0.8423(8)
H15_6 H 0.653(6) 0.835(9) 0.997(4)
H15_7 H 0.847(6) 0.665(9) 0.003(4)
H15_8 H 0.347(6) 0.165(9) 0.003(4)
loop_
_geom_bond_atom_site_label_1
_geom_bond_atom_site_label_2
_geom_bond_site_symmetry_1
_geom_bond_site_symmetry_2
Zn1 O2 1_555 1_555
O2 C14 1_555 1_555
N1 C9 1_555 1_555
O3 C14 1_555 1_555
C2 H1 1_555 1_555
C3 H2 1_555 1_555
C4 C3 1_555 1_555
C5 C8 1_555 1_555
C7 C1 1_555 1_555
H4 C7 1_555 1_555
C8 H5 1_555 1_555
C9 H6 1_555 1_555
C10 C2 1_555 1_555
C12 N2 1_555 1_555
H9 C12 1_555 1_555
C14 C4 1_555 1_555
C15 C3 1_555 1_555
C16 N2 1_555 1_555
C17 C9 1_555 1_555
H11 C17 1_555 1_555
C18 C5 1_555 1_555
H12 C18 1_555 1_555
C19 N1 1_555 1_555
H13 C19 1_555 1_555
O5 Zn1 1_555 1_555
H14 O5 1_555 1_555
Zn3 N1 1_555 1_555
O6 Zn1 1_555 1_555
N3 Zn1 1_555 1_555
C2 C19 1_555 1_555
C4 C7 1_555 1_555
C5 C10 1_555 1_555
C8 C16 1_555 1_555
C10 C17 1_555 1_555
C12 C18 1_555 1_555
C6 H3 1_555 1_555
H7 C11 1_555 1_555
H8 C11 1_555 1_555
O4 C13 1_555 1_555
O6 C13_2 1_555 1_555
O4_2 C13_2 1_555 1_555
Zn2 O2_2 1_555 1_555
O2_2 C14_2 1_555 1_555
N1_2 C9_2 1_555 1_555
N2_2 C11_2 1_555 1_555
C1_2 C6_2 1_555 1_555
O3_2 C14_2 1_555 1_555
C2_2 H1_2 1_555 1_555
C3_2 H2_2 1_555 1_555
C4_2 C3_2 1_555 1_555
C5_2 C8_2 1_555 1_555
C6_2 H3_2 1_555 1_555
C7_2 C1_2 1_555 1_555
H4_2 C7_2 1_555 1_555
C8_2 H5_2 1_555 1_555
C9_2 H6_2 1_555 1_555
C10_2 C2_2 1_555 1_555
C11_2 C1_2 1_555 1_555
H7_2 C11_2 1_555 1_555
H8_2 C11_2 1_555 1_555
C12_2 N2_2 1_555 1_555
H9_2 C12_2 1_555 1_555
C14_2 C4_2 1_555 1_555
C15_2 C3_2 1_555 1_555
C16_2 N2_2 1_555 1_555
H10_2 C16_2 1_555 1_555
C17_2 C9_2 1_555 1_555
H11_2 C17_2 1_555 1_555
C18_2 C5_2 1_555 1_555
H12_2 C18_2 1_555 1_555
C19_2 N1_2 1_555 1_555
O5_2 Zn2 1_555 1_555
H14_2 O5_2 1_555 1_555
C2_2 C19_2 1_555 1_555
C4_2 C7_2 1_555 1_555
C5_2 C10_2 1_555 1_555
C6_2 C15_2 1_555 1_555
C8_2 C16_2 1_555 1_555
C10_2 C17_2 1_555 1_555
C12_2 C18_2 1_555 1_555
C6_3 H3_3 1_555 1_555
H7_3 C11_3 1_555 1_555
H8_3 C11_3 1_555 1_555
O4_3 C13_3 1_555 1_555
Zn3 O2_3 1_555 1_555
O2_3 C14_3 1_555 1_555
O3_3 C14_3 1_555 1_555
C2_3 H1_3 1_555 1_555
C3_3 H2_3 1_555 1_555
C4_3 C3_3 1_555 1_555
C5_3 C8_3 1_555 1_555
C7_3 C1_3 1_555 1_555
H4_3 C7_3 1_555 1_555
C8_3 H5_3 1_555 1_555
C10_3 C2_3 1_555 1_555
C12_3 N2_3 1_555 1_555
H9_3 C12_3 1_555 1_555
C14_3 C4_3 1_555 1_555
C15_3 C3_3 1_555 1_555
C16_3 N2_3 1_555 1_555
C17_3 C9_3 1_555 1_555
H11_3 C17_3 1_555 1_555
C18_3 C5_3 1_555 1_555
H12_3 C18_3 1_555 1_555
H13_3 C19_3 1_555 1_555
O5_3 Zn3 1_555 1_555
H14_3 O5_3 1_555 1_555
H15 O5_3 1_555 1_555
O6_2 Zn3 1_555 1_555
C2_3 C19_3 1_555 1_555
C4_3 C7_3 1_555 1_555
C5_3 C10_3 1_555 1_555
C8_3 C16_3 1_555 1_555
C10_3 C17_3 1_555 1_555
C12_3 C18_3 1_555 1_555
O6_2 C13_4 1_555 1_555
O4_4 C13_4 1_555 1_555
Zn3_2 O2_4 1_555 1_555
O2_4 C14_4 1_555 1_555
N2_4 C11_4 1_555 1_555
C1_4 C6_4 1_555 1_555
O3_4 C14_4 1_555 1_555
C2_4 H1_4 1_555 1_555
C3_4 H2_4 1_555 1_555
C4_4 C3_4 1_555 1_555
C5_4 C8_4 1_555 1_555
C6_4 H3_4 1_555 1_555
C7_4 C1_4 1_555 1_555
H4_4 C7_4 1_555 1_555
C8_4 H5_4 1_555 1_555
C10_4 C2_4 1_555 1_555
C11_4 C1_4 1_555 1_555
H7_4 C11_4 1_555 1_555
H8_4 C11_4 1_555 1_555
C12_4 N2_4 1_555 1_555
H9_4 C12_4 1_555 1_555
C14_4 C4_4 1_555 1_555
C15_4 C3_4 1_555 1_555
C16_4 N2_4 1_555 1_555
H10_4 C16_4 1_555 1_555
C17_4 C9_4 1_555 1_555
H11_4 C17_4 1_555 1_555
C18_4 C5_4 1_555 1_555
H12_4 C18_4 1_555 1_555
O5_4 Zn3_2 1_555 1_555
H14_4 O5_4 1_555 1_555
H15_2 O5_4 1_555 1_555
C2_4 C19_4 1_555 1_555
C4_4 C7_4 1_555 1_555
C5_4 C10_4 1_555 1_555
C6_4 C15_4 1_555 1_555
C8_4 C16_4 1_555 1_555
C10_4 C17_4 1_555 1_555
C12_4 C18_4 1_555 1_555
Zn1_2 O2_5 1_555 1_555
O2_5 C14_5 1_555 1_555
O3_5 C14_5 1_555 1_555
C2_5 H1_5 1_555 1_555
C3_5 H2_5 1_555 1_555
C4_5 C3_5 1_555 1_555
C5_5 C8_5 1_555 1_555
C7_5 C1_5 1_555 1_555
H4_5 C7_5 1_555 1_555
C8_5 H5_5 1_555 1_555
C10_5 C2_5 1_555 1_555
C12_5 N2_5 1_555 1_555
H9_5 C12_5 1_555 1_555
C14_5 C4_5 1_555 1_555
C15_5 C3_5 1_555 1_555
C16_5 N2_5 1_555 1_555
C17_5 C9_5 1_555 1_555
H11_5 C17_5 1_555 1_555
C18_5 C5_5 1_555 1_555
H12_5 C18_5 1_555 1_555
H13_5 C19_5 1_555 1_555
O5_5 Zn1_2 1_555 1_555
H14_5 O5_5 1_555 1_555
H15_4 O5_5 1_555 1_555
O6_3 Zn1_2 1_555 1_555
N3_3 Zn1_2 1_555 1_555
C2_5 C19_5 1_555 1_555
C4_5 C7_5 1_555 1_555
C5_5 C10_5 1_555 1_555
C8_5 C16_5 1_555 1_555
C10_5 C17_5 1_555 1_555
C12_5 C18_5 1_555 1_555
Zn3_3 N1_3 1_555 1_555
C6_5 H3_5 1_555 1_555
H7_5 C11_5 1_555 1_555
H8_5 C11_5 1_555 1_555
O4_5 C13_5 1_555 1_555
Zn2_2 O2_6 1_555 1_555
O2_6 C14_6 1_555 1_555
N2_6 C11_6 1_555 1_555
C1_6 C6_6 1_555 1_555
O3_6 C14_6 1_555 1_555
C2_6 H1_6 1_555 1_555
C3_6 H2_6 1_555 1_555
C4_6 C3_6 1_555 1_555
C5_6 C8_6 1_555 1_555
C6_6 H3_6 1_555 1_555
C7_6 C1_6 1_555 1_555
H4_6 C7_6 1_555 1_555
C8_6 H5_6 1_555 1_555
C10_6 C2_6 1_555 1_555
C11_6 C1_6 1_555 1_555
H7_6 C11_6 1_555 1_555
H8_6 C11_6 1_555 1_555
C12_6 N2_6 1_555 1_555
H9_6 C12_6 1_555 1_555
C14_6 C4_6 1_555 1_555
C15_6 C3_6 1_555 1_555
C16_6 N2_6 1_555 1_555
H10_6 C16_6 1_555 1_555
C17_6 C9_6 1_555 1_555
H11_6 C17_6 1_555 1_555
C18_6 C5_6 1_555 1_555
H12_6 C18_6 1_555 1_555
O5_6 Zn2_2 1_555 1_555
H14_6 O5_6 1_555 1_555
H15_5 O5_6 1_555 1_555
C2_6 C19_6 1_555 1_555
C4_6 C7_6 1_555 1_555
C5_6 C10_6 1_555 1_555
C6_6 C15_6 1_555 1_555
C8_6 C16_6 1_555 1_555
C10_6 C17_6 1_555 1_555
C12_6 C18_6 1_555 1_555
O6_3 C13_6 1_555 1_555
O4_6 C13_6 1_555 1_555
C6_7 H3_7 1_555 1_555
H7_7 C11_7 1_555 1_555
H8_7 C11_7 1_555 1_555
O4_7 C13_7 1_555 1_555
Zn3_3 O2_7 1_555 1_555
O2_7 C14_7 1_555 1_555
N3_3 C9_7 1_555 1_555
O3_7 C14_7 1_555 1_555
C2_7 H1_7 1_555 1_555
C3_7 H2_7 1_555 1_555
C4_7 C3_7 1_555 1_555
C5_7 C8_7 1_555 1_555
C7_7 C1_7 1_555 1_555
H4_7 C7_7 1_555 1_555
C8_7 H5_7 1_555 1_555
C9_7 H6_7 1_555 1_555
C10_7 C2_7 1_555 1_555
C12_7 N2_7 1_555 1_555
H9_7 C12_7 1_555 1_555
C14_7 C4_7 1_555 1_555
C15_7 C3_7 1_555 1_555
C16_7 N2_7 1_555 1_555
C17_7 C9_7 1_555 1_555
H11_7 C17_7 1_555 1_555
C18_7 C5_7 1_555 1_555
H12_7 C18_7 1_555 1_555
C19_7 N3_3 1_555 1_555
H13_7 C19_7 1_555 1_555
O5_7 Zn3_3 1_555 1_555
H14_7 O5_7 1_555 1_555
O6_4 Zn3_3 1_555 1_555
C2_7 C19_7 1_555 1_555
C4_7 C7_7 1_555 1_555
C5_7 C10_7 1_555 1_555
C8_7 C16_7 1_555 1_555
C10_7 C17_7 1_555 1_555
C12_7 C18_7 1_555 1_555
Zn3_4 O2_8 1_555 1_555
O2_8 C14_8 1_555 1_555
N3_4 C9_8 1_555 1_555
N2_8 C11_8 1_555 1_555
C1_8 C6_8 1_555 1_555
O3_8 C14_8 1_555 1_555
C2_8 H1_8 1_555 1_555
C3_8 H2_8 1_555 1_555
C4_8 C3_8 1_555 1_555
C5_8 C8_8 1_555 1_555
C6_8 H3_8 1_555 1_555
C7_8 C1_8 1_555 1_555
H4_8 C7_8 1_555 1_555
C8_8 H5_8 1_555 1_555
C9_8 H6_8 1_555 1_555
C10_8 C2_8 1_555 1_555
C11_8 C1_8 1_555 1_555
H7_8 C11_8 1_555 1_555
H8_8 C11_8 1_555 1_555
C12_8 N2_8 1_555 1_555
H9_8 C12_8 1_555 1_555
C14_8 C4_8 1_555 1_555
C15_8 C3_8 1_555 1_555
C16_8 N2_8 1_555 1_555
H10_8 C16_8 1_555 1_555
C17_8 C9_8 1_555 1_555
H11_8 C17_8 1_555 1_555
C18_8 C5_8 1_555 1_555
H12_8 C18_8 1_555 1_555
C19_8 N3_4 1_555 1_555
O5_8 Zn3_4 1_555 1_555
H14_8 O5_8 1_555 1_555
C2_8 C19_8 1_555 1_555
C4_8 C7_8 1_555 1_555
C5_8 C10_8 1_555 1_555
C6_8 C15_8 1_555 1_555
C8_8 C16_8 1_555 1_555
C10_8 C17_8 1_555 1_555
C12_8 C18_8 1_555 1_555
O6_4 C13_8 1_555 1_555
O4_8 C13_8 1_555 1_555

#END
