
###############################################################################
#
# This file contains modified crystal structure data generated from the
# MOF subset of the Cambridge Structural Database (CSD) v543 
# hosted by the Cambridge Crystallographic Data Centre (CCDC).
#
# This work is licensed under the Creative Commons
# Attribution-NonCommercial-ShareAlike 4.0 International License.
# To view a copy of this license, visit
# http://creativecommons.org/licenses/by-nc-sa/4.0/
# or send a letter to
# Creative Commons, PO Box 1866, Mountain View, CA 94042, USA.
#
# CIF created using the CSD Python API on 29 September 2022
# The structure has been converted into the P1 space group
# The structure has a 3D framework
# The original CSD entry GARKUJ is in the monoclinic crystal system
# The framework has been calculated to contain at least 10.0% void space
# The void calculation uses a probe of radius 1.32A, grid spacing 0.4
#
###############################################################################

data_GARKUJ
_chemical_formula_moiety         '(C288 H192 I48 N96 Zn24)n'
_symmetry_cell_setting           triclinic
_symmetry_space_group_name_H-M   'P 1'
_symmetry_Int_Tables_number      1
_space_group_name_Hall           'P 1'
loop_
_symmetry_equiv_pos_site_id
_symmetry_equiv_pos_as_xyz
1 x,y,z
_cell_length_a                   35.402(4)
_cell_length_b                   14.9997(16)
_cell_length_c                   31.295(4)
_cell_angle_alpha                90
_cell_angle_beta                 102.363(3)
_cell_angle_gamma                90
_cell_volume                     16232.9
loop_
_atom_site_label
_atom_site_type_symbol
_atom_site_fract_x
_atom_site_fract_y
_atom_site_fract_z
I3 I 0.38823(3) 0.73128(5) 0.40842(5)
I4 I 0.35475(3) 0.56995(8) 0.51509(3)
Zn2 Zn 0.37365(3) 0.58534(7) 0.44140(4)
N2 N 0.2240(2) 0.4483(4) 0.2714(2)
N3 N 0.18400(19) 0.3199(4) 0.2451(2)
N4 N 0.23439(18) 0.3097(4) 0.3090(2)
N5 N 0.1269(3) 0.5496(5) 0.1378(3)
N6 N 0.3308(2) 0.5257(4) 0.3943(3)
N7 N 0.4196(3) 0.5050(6) 0.4424(3)
N8 N 0.5379(2) 0.3554(5) 0.4120(3)
N9 N 0.5245(2) 0.2726(4) 0.4719(2)
N10 N 0.5746(2) 0.2255(4) 0.4361(2)
N11 N 0.6393(3) 0.3470(6) 0.3179(3)
C1 C 0.2202(3) 0.1224(6) 0.3086(4)
H1 H 0.2415 0.1453 0.3294
C2 C 0.2132(3) 0.0321(6) 0.3074(4)
C3 C 0.1624(3) 0.0504(6) 0.2485(4)
H3 H 0.1403 0.0272 0.2289
C4 C 0.1710(3) 0.1436(6) 0.2487(4)
H4 H 0.1577 0.1806 0.2257
C5 C 0.1977(3) 0.1789(6) 0.2810(4)
C6 C 0.2065(2) 0.2761(5) 0.2780(3)
C7 C 0.2407(2) 0.3979(5) 0.3039(3)
C8 C 0.1949(3) 0.4098(5) 0.2431(3)
C9 C 0.1722(3) 0.4575(5) 0.2075(3)
C10 C 0.1734(3) 0.5509(5) 0.2028(3)
H5 H 0.1880 0.5855 0.2260
C11 C 0.1544(3) 0.5924(6) 0.1664(4)
H6 H 0.1606 0.6524 0.1610
C12 C 0.1255(3) 0.4627(6) 0.1391(4)
H7 H 0.1130 0.4303 0.1140
C13 C 0.1421(3) 0.4173(6) 0.1773(4)
H8 H 0.1332 0.3595 0.1828
C14 C 0.2727(3) 0.4405(6) 0.3378(4)
C15 C 0.2962(3) 0.3947(6) 0.3678(4)
H9 H 0.2934 0.3320 0.3697
C16 C 0.3253(3) 0.4387(5) 0.3968(3)
H10 H 0.3418 0.4055 0.4191
C17 C 0.3058(3) 0.5731(6) 0.3639(3)
H11 H 0.3083 0.6361 0.3631
C18 C 0.2771(3) 0.5322(6) 0.3342(4)
H12 H 0.2607 0.5653 0.3118
C19 C 0.4676(3) 0.4464(7) 0.4067(4)
H13 H 0.4768 0.4435 0.3803
C20 C 0.4382(3) 0.4993(7) 0.4080(4)
H14 H 0.4291 0.5365 0.3834
C21 C 0.4354(3) 0.4511(7) 0.4773(4)
H15 H 0.4246 0.4506 0.5026
C22 C 0.4655(3) 0.4002(7) 0.4761(4)
H16 H 0.4747 0.3628 0.5006
C23 C 0.4855(3) 0.3962(7) 0.4409(4)
C24 C 0.5175(3) 0.3419(5) 0.4414(3)
C25 C 0.5528(2) 0.2173(6) 0.4661(3)
C26 C 0.5670(3) 0.2980(6) 0.4112(3)
C27 C 0.5929(3) 0.3161(7) 0.3802(4)
C28 C 0.5854(3) 0.3835(7) 0.3491(4)
H17 H 0.5638 0.4216 0.3482
C29 C 0.6078(3) 0.3957(7) 0.3206(4)
H18 H 0.6011 0.4431 0.3003
C30 C 0.6463(4) 0.2872(8) 0.3545(4)
H19 H 0.6689 0.2516 0.3580
C31 C 0.6260(4) 0.2764(8) 0.3825(5)
H20 H 0.6352 0.2376 0.4064
C32 C 0.5595(3) 0.1365(7) 0.4913(4)
C33 C 0.5342(3) 0.1160(7) 0.5195(4)
H21 H 0.5129 0.1538 0.5209
C34 C 0.5412(3) 0.0394(5) 0.5449(3)
H22 H 0.5232 0.0228 0.5621
C35 C 0.5938(3) 0.0087(7) 0.5186(4)
C36 C 0.5891(3) 0.0803(7) 0.4907(4)
H24 H 0.6062 0.0900 0.4715
Zn4 Zn 0.67113(4) 0.36194(7) 0.27301(5)
Zn5 Zn 0.08713(4) 0.61762(6) 0.08966(4)
I1 I 0.62659(4) 0.33704(6) 0.19855(3)
I2 I 0.73126(3) 0.26898(5) 0.29753(4)
N1 N 0.6854(2) 0.4975(4) 0.2757(3)
N2_2 N 0.7240(2) 0.9483(4) 0.2714(2)
N3_2 N 0.68400(19) 0.8199(4) 0.2451(2)
N4_2 N 0.73439(18) 0.8097(4) 0.3090(2)
C1_2 C 0.7202(3) 0.6224(6) 0.3086(4)
H1_2 H 0.7415 0.6453 0.3294
C2_2 C 0.7132(3) 0.5321(6) 0.3074(4)
H2 H 0.7280 0.4943 0.3290
C3_2 C 0.6624(3) 0.5504(6) 0.2485(4)
H3_2 H 0.6403 0.5272 0.2289
C4_2 C 0.6710(3) 0.6436(6) 0.2487(4)
H4_2 H 0.6577 0.6806 0.2257
C5_2 C 0.6977(3) 0.6789(6) 0.2810(4)
C6_2 C 0.7065(2) 0.7761(5) 0.2780(3)
C7_2 C 0.7407(2) 0.8979(5) 0.3039(3)
C8_2 C 0.6949(3) 0.9098(5) 0.2431(3)
C9_2 C 0.6722(3) 0.9575(5) 0.2075(3)
C12_2 C 0.6255(3) 0.9627(6) 0.1391(4)
H7_2 H 0.6130 0.9303 0.1140
C13_2 C 0.6421(3) 0.9173(6) 0.1773(4)
H8_2 H 0.6332 0.8595 0.1828
C14_2 C 0.7727(3) 0.9405(6) 0.3378(4)
C15_2 C 0.7962(3) 0.8947(6) 0.3678(4)
H9_2 H 0.7934 0.8320 0.3697
C16_2 C 0.8253(3) 0.9387(5) 0.3968(3)
H10_2 H 0.8418 0.9055 0.4191
C19_2 C 0.9676(3) 0.9464(7) 0.4067(4)
H13_2 H 0.9768 0.9435 0.3803
C20_2 C 0.9382(3) 0.9993(7) 0.4080(4)
C21_2 C 0.9354(3) 0.9511(7) 0.4773(4)
H15_2 H 0.9246 0.9506 0.5026
C22_2 C 0.9655(3) 0.9002(7) 0.4761(4)
H16_2 H 0.9747 0.8628 0.5006
C23_2 C 0.9855(3) 0.8962(7) 0.4409(4)
I5 I 0.03065(3) 0.64951(7) 0.12461(3)
I6 I 0.12338(4) 0.72846(6) 0.05321(4)
N12 N 0.0725(2) 0.5122(5) 0.0459(3)
C33_2 C 0.0342(3) 0.3840(7) 0.0195(4)
H21_2 H 0.0129 0.3462 0.0209
C34_2 C 0.0412(3) 0.4606(5) 0.0449(3)
H22_2 H 0.0232 0.4772 0.0621
C35_2 C 0.0938(3) 0.4913(7) 0.0186(4)
H23 H 0.1149 0.5298 0.0177
I1_2 I 0.12659(4) 0.83704(6) 0.19855(3)
I2_2 I 0.23126(3) 0.76898(5) 0.29753(4)
I5_2 I 0.53065(3) 0.85049(7) 0.62461(3)
I6_2 I 0.62338(4) 0.77154(6) 0.55321(4)
Zn1 Zn 0.17113(4) 0.86194(7) 0.27301(5)
Zn3 Zn 0.58713(4) 0.88238(6) 0.58966(4)
N1_2 N 0.1854(2) 0.9975(4) 0.2757(3)
N12_2 N 0.5725(2) 0.9878(5) 0.5459(3)
H2_2 H 0.2280 0.9943 0.3290
H23_2 H 0.6149 0.9702 0.5177
N13 N 0.6269(3) 0.9504(5) 0.6378(3)
N14 N 0.1393(3) 0.8470(6) 0.3179(3)
I5_3 I 0.03065(3) 0.35049(7) 0.62461(3)
I6_3 I 0.12338(4) 0.27154(6) 0.55321(4)
Zn3_2 Zn 0.08713(4) 0.38238(6) 0.58966(4)
N8_2 N 0.0379(2) 0.8554(5) 0.4120(3)
N9_2 N 0.0245(2) 0.7726(4) 0.4719(2)
N10_2 N 0.0746(2) 0.7255(4) 0.4361(2)
N12_3 N 0.0725(2) 0.4878(5) 0.5459(3)
C24_2 C 0.0175(3) 0.8419(5) 0.4414(3)
C25_2 C 0.0528(2) 0.7173(6) 0.4661(3)
C26_2 C 0.0670(3) 0.7980(6) 0.4112(3)
C27_2 C 0.0929(3) 0.8161(7) 0.3802(4)
C28_2 C 0.0854(3) 0.8835(7) 0.3491(4)
H17_2 H 0.0638 0.9216 0.3482
C29_2 C 0.1078(3) 0.8957(7) 0.3206(4)
H18_2 H 0.1011 0.9431 0.3003
C30_2 C 0.1463(4) 0.7872(8) 0.3545(4)
H19_2 H 0.1689 0.7516 0.3580
C31_2 C 0.1260(4) 0.7764(8) 0.3825(5)
H20_2 H 0.1352 0.7376 0.4064
C32_2 C 0.0595(3) 0.6365(7) 0.4913(4)
C33_3 C 0.0342(3) 0.6160(7) 0.5195(4)
H21_3 H 0.0129 0.6538 0.5209
C34_3 C 0.0412(3) 0.5394(5) 0.5449(3)
H22_3 H 0.0232 0.5228 0.5621
C35_3 C 0.0938(3) 0.5087(7) 0.5186(4)
H23_3 H 0.1149 0.4702 0.5177
C36_2 C 0.0891(3) 0.5803(7) 0.4907(4)
H24_2 H 0.1062 0.5900 0.4715
N13_2 N 0.1269(3) 0.4504(5) 0.6378(3)
I3_2 I 0.38823(3) 0.26872(5) 0.90842(5)
Zn2_2 Zn 0.37365(3) 0.41466(7) 0.94140(4)
N2_3 N 0.2240(2) 0.5517(4) 0.7714(2)
N3_3 N 0.18400(19) 0.6801(4) 0.7451(2)
N4_3 N 0.23439(18) 0.6903(4) 0.8090(2)
N6_2 N 0.3308(2) 0.4743(4) 0.8943(3)
N7_2 N 0.4196(3) 0.4950(6) 0.9424(3)
N8_3 N 0.5379(2) 0.6446(5) 0.9120(3)
N9_3 N 0.5245(2) 0.7274(4) 0.9719(2)
N10_3 N 0.5746(2) 0.7745(4) 0.9361(2)
N11_2 N 0.6393(3) 0.6530(6) 0.8179(3)
C1_3 C 0.2202(3) 0.8776(6) 0.8086(4)
H1_3 H 0.2415 0.8547 0.8294
C2_3 C 0.2132(3) 0.9679(6) 0.8074(4)
C3_3 C 0.1624(3) 0.9496(6) 0.7485(4)
H3_3 H 0.1403 0.9728 0.7289
C4_3 C 0.1710(3) 0.8564(6) 0.7487(4)
H4_3 H 0.1577 0.8194 0.7257
C5_3 C 0.1977(3) 0.8211(6) 0.7810(4)
C6_3 C 0.2065(2) 0.7239(5) 0.7780(3)
C7_3 C 0.2407(2) 0.6021(5) 0.8039(3)
C8_3 C 0.1949(3) 0.5902(5) 0.7431(3)
C9_3 C 0.1722(3) 0.5425(5) 0.7075(3)
C10_2 C 0.1734(3) 0.4491(5) 0.7028(3)
H5_2 H 0.1880 0.4145 0.7260
C11_2 C 0.1544(3) 0.4076(6) 0.6664(4)
H6_2 H 0.1606 0.3476 0.6610
C12_3 C 0.1255(3) 0.5373(6) 0.6391(4)
H7_3 H 0.1130 0.5697 0.6140
C13_3 C 0.1421(3) 0.5827(6) 0.6773(4)
H8_3 H 0.1332 0.6405 0.6828
C14_3 C 0.2727(3) 0.5595(6) 0.8378(4)
C15_3 C 0.2962(3) 0.6053(6) 0.8678(4)
H9_3 H 0.2934 0.6680 0.8697
C16_3 C 0.3253(3) 0.5613(5) 0.8968(3)
H10_3 H 0.3418 0.5945 0.9191
C17_2 C 0.3058(3) 0.4269(6) 0.8639(3)
H11_2 H 0.3083 0.3639 0.8631
C18_2 C 0.2771(3) 0.4678(6) 0.8342(4)
H12_2 H 0.2607 0.4347 0.8118
C19_3 C 0.4676(3) 0.5536(7) 0.9067(4)
H13_3 H 0.4768 0.5565 0.8803
C20_3 C 0.4382(3) 0.5007(7) 0.9080(4)
H14_2 H 0.4291 0.4635 0.8834
C21_3 C 0.4354(3) 0.5489(7) 0.9773(4)
C22_3 C 0.4655(3) 0.5998(7) 0.9761(4)
C23_3 C 0.4855(3) 0.6038(7) 0.9409(4)
C24_3 C 0.5175(3) 0.6581(5) 0.9414(3)
C25_3 C 0.5528(2) 0.7827(6) 0.9661(3)
C26_3 C 0.5670(3) 0.7020(6) 0.9112(3)
C27_3 C 0.5929(3) 0.6839(7) 0.8802(4)
C28_3 C 0.5854(3) 0.6165(7) 0.8491(4)
H17_3 H 0.5638 0.5784 0.8482
C29_3 C 0.6078(3) 0.6043(7) 0.8206(4)
H18_3 H 0.6011 0.5569 0.8003
C30_3 C 0.6463(4) 0.7128(8) 0.8545(4)
H19_3 H 0.6689 0.7484 0.8580
C31_3 C 0.6260(4) 0.7236(8) 0.8825(5)
H20_3 H 0.6352 0.7624 0.9064
C32_3 C 0.5595(3) 0.8635(7) 0.9913(4)
C36_3 C 0.5891(3) 0.9197(7) 0.9907(4)
H24_3 H 0.6062 0.9100 0.9715
Zn4_2 Zn 0.67113(4) 0.63806(7) 0.77301(5)
I1_3 I 0.62659(4) 0.66296(6) 0.69855(3)
I2_3 I 0.73126(3) 0.73102(5) 0.79753(4)
N1_3 N 0.6854(2) 0.5025(4) 0.7757(3)
N2_4 N 0.7240(2) 0.0517(4) 0.7714(2)
N3_4 N 0.68400(19) 0.1801(4) 0.7451(2)
N4_4 N 0.73439(18) 0.1903(4) 0.8090(2)
C1_4 C 0.7202(3) 0.3776(6) 0.8086(4)
H1_4 H 0.7415 0.3547 0.8294
C2_4 C 0.7132(3) 0.4679(6) 0.8074(4)
H2_3 H 0.7280 0.5057 0.8290
C3_4 C 0.6624(3) 0.4496(6) 0.7485(4)
H3_4 H 0.6403 0.4728 0.7289
C4_4 C 0.6710(3) 0.3564(6) 0.7487(4)
H4_4 H 0.6577 0.3194 0.7257
C5_4 C 0.6977(3) 0.3211(6) 0.7810(4)
C6_4 C 0.7065(2) 0.2239(5) 0.7780(3)
C7_4 C 0.7407(2) 0.1021(5) 0.8039(3)
C8_4 C 0.6949(3) 0.0902(5) 0.7431(3)
C9_4 C 0.6722(3) 0.0425(5) 0.7075(3)
C12_4 C 0.6255(3) 0.0373(6) 0.6391(4)
H7_4 H 0.6130 0.0697 0.6140
C13_4 C 0.6421(3) 0.0827(6) 0.6773(4)
H8_4 H 0.6332 0.1405 0.6828
C14_4 C 0.7727(3) 0.0595(6) 0.8378(4)
C15_4 C 0.7962(3) 0.1053(6) 0.8678(4)
H9_4 H 0.7934 0.1680 0.8697
C16_4 C 0.8253(3) 0.0613(5) 0.8968(3)
H10_4 H 0.8418 0.0945 0.9191
C19_4 C 0.9676(3) 0.0536(7) 0.9067(4)
H13_4 H 0.9768 0.0565 0.8803
C20_4 C 0.9382(3) 0.0007(7) 0.9080(4)
C21_4 C 0.9354(3) 0.0489(7) 0.9773(4)
C22_4 C 0.9655(3) 0.0998(7) 0.9761(4)
C23_4 C 0.9855(3) 0.1038(7) 0.9409(4)
I3_3 I 0.88823(3) 0.76872(5) 0.90842(5)
Zn2_3 Zn 0.87365(3) 0.91466(7) 0.94140(4)
N6_3 N 0.8308(2) 0.9743(4) 0.8943(3)
N7_3 N 0.9196(3) 0.9950(6) 0.9424(3)
C10_3 C 0.6734(3) 0.9491(5) 0.7028(3)
H5_3 H 0.6880 0.9145 0.7260
C11_3 C 0.6544(3) 0.9076(6) 0.6664(4)
H6_3 H 0.6606 0.8476 0.6610
C17_3 C 0.8058(3) 0.9269(6) 0.8639(3)
H11_3 H 0.8083 0.8639 0.8631
C18_3 C 0.7771(3) 0.9678(6) 0.8342(4)
H12_3 H 0.7607 0.9347 0.8118
H14_3 H 0.9291 0.9635 0.8834
I3_4 I 0.61177(3) 0.73128(5) 0.09158(5)
Zn2_4 Zn 0.62635(3) 0.58534(7) 0.05860(4)
N2_5 N 0.7760(2) 0.4483(4) 0.2286(2)
N3_5 N 0.81600(19) 0.3199(4) 0.2549(2)
N4_5 N 0.76561(18) 0.3097(4) 0.1910(2)
N5_2 N 0.8731(3) 0.5496(5) 0.3622(3)
N6_4 N 0.6692(2) 0.5257(4) 0.1057(3)
N7_4 N 0.5804(3) 0.5050(6) 0.0576(3)
N8_4 N 0.4621(2) 0.3554(5) 0.0880(3)
N9_4 N 0.4755(2) 0.2726(4) 0.0281(2)
N10_4 N 0.4254(2) 0.2255(4) 0.0639(2)
N11_3 N 0.3607(3) 0.3470(6) 0.1821(3)
C1_5 C 0.7798(3) 0.1224(6) 0.1914(4)
H1_5 H 0.7585 0.1453 0.1706
C2_5 C 0.7868(3) 0.0321(6) 0.1926(4)
C3_5 C 0.8376(3) 0.0504(6) 0.2515(4)
H3_5 H 0.8597 0.0272 0.2711
C4_5 C 0.8290(3) 0.1436(6) 0.2513(4)
H4_5 H 0.8423 0.1806 0.2743
C5_5 C 0.8023(3) 0.1789(6) 0.2190(4)
C6_5 C 0.7935(2) 0.2761(5) 0.2220(3)
C7_5 C 0.7593(2) 0.3979(5) 0.1961(3)
C8_5 C 0.8051(3) 0.4098(5) 0.2569(3)
C9_5 C 0.8278(3) 0.4575(5) 0.2925(3)
C10_4 C 0.8266(3) 0.5509(5) 0.2972(3)
H5_4 H 0.8120 0.5855 0.2740
C11_4 C 0.8456(3) 0.5924(6) 0.3336(4)
H6_4 H 0.8394 0.6524 0.3390
C12_5 C 0.8745(3) 0.4627(6) 0.3609(4)
H7_5 H 0.8870 0.4303 0.3860
C13_5 C 0.8579(3) 0.4173(6) 0.3227(4)
H8_5 H 0.8668 0.3595 0.3172
C14_5 C 0.7273(3) 0.4405(6) 0.1622(4)
C15_5 C 0.7038(3) 0.3947(6) 0.1322(4)
H9_5 H 0.7066 0.3320 0.1303
C16_5 C 0.6747(3) 0.4387(5) 0.1032(3)
H10_5 H 0.6582 0.4055 0.0809
C17_4 C 0.6942(3) 0.5731(6) 0.1361(3)
H11_4 H 0.6917 0.6361 0.1369
C18_4 C 0.7229(3) 0.5322(6) 0.1658(4)
H12_4 H 0.7393 0.5653 0.1882
C19_5 C 0.5324(3) 0.4464(7) 0.0933(4)
H13_5 H 0.5232 0.4435 0.1197
C20_5 C 0.5618(3) 0.4993(7) 0.0920(4)
H14_4 H 0.5709 0.5365 0.1166
C21_5 C 0.5646(3) 0.4511(7) 0.0227(4)
C22_5 C 0.5345(3) 0.4002(7) 0.0239(4)
C23_5 C 0.5145(3) 0.3962(7) 0.0591(4)
C24_4 C 0.4825(3) 0.3419(5) 0.0586(3)
C25_4 C 0.4472(2) 0.2173(6) 0.0339(3)
C26_4 C 0.4330(3) 0.2980(6) 0.0888(3)
C27_4 C 0.4071(3) 0.3161(7) 0.1198(4)
C28_4 C 0.4146(3) 0.3835(7) 0.1509(4)
H17_4 H 0.4362 0.4216 0.1518
C29_4 C 0.3922(3) 0.3957(7) 0.1794(4)
H18_4 H 0.3989 0.4431 0.1997
C30_4 C 0.3537(4) 0.2872(8) 0.1455(4)
H19_4 H 0.3311 0.2516 0.1420
C31_4 C 0.3740(4) 0.2764(8) 0.1175(5)
H20_4 H 0.3648 0.2376 0.0936
C32_4 C 0.4405(3) 0.1365(7) 0.0087(4)
C36_4 C 0.4109(3) 0.0803(7) 0.0093(4)
H24_4 H 0.3938 0.0900 0.0285
Zn4_3 Zn 0.32887(4) 0.36194(7) 0.22699(5)
Zn5_2 Zn 0.91287(4) 0.61762(6) 0.41034(4)
I3_5 I 0.11177(3) 0.23128(5) 0.09158(5)
Zn2_5 Zn 0.12635(3) 0.08534(7) 0.05860(4)
N5_3 N 0.3731(3) 0.0496(5) 0.3622(3)
N6_5 N 0.1692(2) 0.0257(4) 0.1057(3)
N7_5 N 0.0804(3) 0.0050(6) 0.0576(3)
C10_5 C 0.3266(3) 0.0509(5) 0.2972(3)
H5_5 H 0.3120 0.0855 0.2740
C11_5 C 0.3456(3) 0.0924(6) 0.3336(4)
H6_5 H 0.3394 0.1524 0.3390
C17_5 C 0.1942(3) 0.0731(6) 0.1361(3)
H11_5 H 0.1917 0.1361 0.1369
C18_5 C 0.2229(3) 0.0322(6) 0.1658(4)
H12_5 H 0.2393 0.0653 0.1882
H14_5 H 0.0709 0.0365 0.1166
Zn5_3 Zn 0.41287(4) 0.11762(6) 0.41034(4)
I1_4 I 0.37341(4) 0.33704(6) 0.30145(3)
I2_4 I 0.26874(3) 0.26898(5) 0.20247(4)
N1_4 N 0.3146(2) 0.4975(4) 0.2243(3)
N2_6 N 0.2760(2) 0.9483(4) 0.2286(2)
N3_6 N 0.31600(19) 0.8199(4) 0.2549(2)
N4_6 N 0.26561(18) 0.8097(4) 0.1910(2)
C1_6 C 0.2798(3) 0.6224(6) 0.1914(4)
H1_6 H 0.2585 0.6453 0.1706
C2_6 C 0.2868(3) 0.5321(6) 0.1926(4)
H2_4 H 0.2720 0.4943 0.1710
C3_6 C 0.3376(3) 0.5504(6) 0.2515(4)
H3_6 H 0.3597 0.5272 0.2711
C4_6 C 0.3290(3) 0.6436(6) 0.2513(4)
H4_6 H 0.3423 0.6806 0.2743
C5_6 C 0.3023(3) 0.6789(6) 0.2190(4)
C6_6 C 0.2935(2) 0.7761(5) 0.2220(3)
C7_6 C 0.2593(2) 0.8979(5) 0.1961(3)
C8_6 C 0.3051(3) 0.9098(5) 0.2569(3)
C9_6 C 0.3278(3) 0.9575(5) 0.2925(3)
C12_6 C 0.3745(3) 0.9627(6) 0.3609(4)
H7_6 H 0.3870 0.9303 0.3860
C13_6 C 0.3579(3) 0.9173(6) 0.3227(4)
H8_6 H 0.3668 0.8595 0.3172
C14_6 C 0.2273(3) 0.9405(6) 0.1622(4)
C15_6 C 0.2038(3) 0.8947(6) 0.1322(4)
H9_6 H 0.2066 0.8320 0.1303
C16_6 C 0.1747(3) 0.9387(5) 0.1032(3)
H10_6 H 0.1582 0.9055 0.0809
C19_6 C 0.0324(3) 0.9464(7) 0.0933(4)
H13_6 H 0.0232 0.9435 0.1197
C20_6 C 0.0618(3) 0.9993(7) 0.0920(4)
C21_6 C 0.0646(3) 0.9511(7) 0.0227(4)
C22_6 C 0.0345(3) 0.9002(7) 0.0239(4)
C23_6 C 0.0145(3) 0.8962(7) 0.0591(4)
I1_5 I 0.87341(4) 0.16296(6) 0.80145(3)
I2_5 I 0.76874(3) 0.23102(5) 0.70247(4)
I5_4 I 0.46935(3) 0.14951(7) 0.37539(3)
I6_4 I 0.37662(4) 0.22846(6) 0.44679(4)
Zn1_2 Zn 0.82887(4) 0.13806(7) 0.72699(5)
N1_5 N 0.8146(2) 0.0025(4) 0.7243(3)
N12_4 N 0.4275(2) 0.0122(5) 0.4541(3)
H2_5 H 0.7720 0.0057 0.6710
H23_4 H 0.3851 0.0298 0.4823
N14_2 N 0.8607(3) 0.1530(6) 0.6821(3)
I5_5 I 0.96935(3) 0.64951(7) 0.37539(3)
I6_5 I 0.87662(4) 0.72846(6) 0.44679(4)
N8_5 N 0.9621(2) 0.1446(5) 0.5880(3)
N9_5 N 0.9755(2) 0.2274(4) 0.5281(2)
N10_5 N 0.9254(2) 0.2745(4) 0.5639(2)
N12_5 N 0.9275(2) 0.5122(5) 0.4541(3)
C24_5 C 0.9825(3) 0.1581(5) 0.5586(3)
C25_5 C 0.9472(2) 0.2827(6) 0.5339(3)
C26_5 C 0.9330(3) 0.2020(6) 0.5888(3)
C27_5 C 0.9071(3) 0.1839(7) 0.6198(4)
C28_5 C 0.9146(3) 0.1165(7) 0.6509(4)
H17_5 H 0.9362 0.0784 0.6518
C29_5 C 0.8922(3) 0.1043(7) 0.6794(4)
H18_5 H 0.8989 0.0569 0.6997
C30_5 C 0.8537(4) 0.2128(8) 0.6455(4)
H19_5 H 0.8311 0.2484 0.6420
C31_5 C 0.8740(4) 0.2236(8) 0.6175(5)
H20_5 H 0.8648 0.2624 0.5936
C32_5 C 0.9405(3) 0.3635(7) 0.5087(4)
C33_4 C 0.9658(3) 0.3840(7) 0.4805(4)
H21_4 H 0.9871 0.3462 0.4791
C34_4 C 0.9588(3) 0.4606(5) 0.4551(3)
H22_4 H 0.9768 0.4772 0.4379
C35_4 C 0.9062(3) 0.4913(7) 0.4814(4)
H23_5 H 0.8851 0.5298 0.4823
C36_5 C 0.9109(3) 0.4197(7) 0.5093(4)
H24_5 H 0.8938 0.4100 0.5285
I4_2 I 0.64525(3) 0.56995(8) 0.98491(3)
H15_3 H 0.5754 0.4506 0.9974
H16_3 H 0.5253 0.3628 0.9994
C33_5 C 0.4658(3) 0.1160(7) 0.9805(4)
H21_5 H 0.4871 0.1538 0.9791
C34_5 C 0.4588(3) 0.0394(5) 0.9551(3)
H22_5 H 0.4768 0.0228 0.9379
C35_5 C 0.4062(3) 0.0087(7) 0.9814(4)
I1_6 I 0.87341(4) 0.83704(6) 0.30145(3)
I2_6 I 0.76874(3) 0.76898(5) 0.20247(4)
Zn1_3 Zn 0.82887(4) 0.86194(7) 0.22699(5)
N1_6 N 0.8146(2) 0.9975(4) 0.2243(3)
H2_6 H 0.7720 0.9943 0.1710
N14_3 N 0.8607(3) 0.8470(6) 0.1821(3)
N8_6 N 0.9621(2) 0.8554(5) 0.0880(3)
N9_6 N 0.9755(2) 0.7726(4) 0.0281(2)
N10_6 N 0.9254(2) 0.7255(4) 0.0639(2)
C24_6 C 0.9825(3) 0.8419(5) 0.0586(3)
C25_6 C 0.9472(2) 0.7173(6) 0.0339(3)
C26_6 C 0.9330(3) 0.7980(6) 0.0888(3)
C27_6 C 0.9071(3) 0.8161(7) 0.1198(4)
C28_6 C 0.9146(3) 0.8835(7) 0.1509(4)
H17_6 H 0.9362 0.9216 0.1518
C29_6 C 0.8922(3) 0.8957(7) 0.1794(4)
H18_6 H 0.8989 0.9431 0.1997
C30_6 C 0.8537(4) 0.7872(8) 0.1455(4)
H19_6 H 0.8311 0.7516 0.1420
C31_6 C 0.8740(4) 0.7764(8) 0.1175(5)
H20_6 H 0.8648 0.7376 0.0936
C32_6 C 0.9405(3) 0.6365(7) 0.0087(4)
C36_6 C 0.9109(3) 0.5803(7) 0.0093(4)
H24_6 H 0.8938 0.5900 0.0285
I5_6 I 0.46935(3) 0.85049(7) 0.87539(3)
I6_6 I 0.37662(4) 0.77154(6) 0.94679(4)
Zn3_3 Zn 0.41287(4) 0.88238(6) 0.91034(4)
N12_6 N 0.4275(2) 0.9878(5) 0.9541(3)
H23_6 H 0.3851 0.9702 0.9823
N13_3 N 0.3731(3) 0.9504(5) 0.8622(3)
I3_6 I 0.11177(3) 0.76872(5) 0.59158(5)
I4_3 I 0.14525(3) 0.93005(8) 0.48491(3)
Zn2_6 Zn 0.12635(3) 0.91466(7) 0.55860(4)
N6_6 N 0.1692(2) 0.9743(4) 0.6057(3)
N7_6 N 0.0804(3) 0.9950(6) 0.5576(3)
C10_6 C 0.3266(3) 0.9491(5) 0.7972(3)
H5_6 H 0.3120 0.9145 0.7740
C11_6 C 0.3456(3) 0.9076(6) 0.8336(4)
H6_6 H 0.3394 0.8476 0.8390
C17_6 C 0.1942(3) 0.9269(6) 0.6361(3)
H11_6 H 0.1917 0.8639 0.6369
C18_6 C 0.2229(3) 0.9678(6) 0.6658(4)
H12_6 H 0.2393 0.9347 0.6882
H14_6 H 0.0709 0.9635 0.6166
I3_7 I 0.88823(3) 0.23128(5) 0.40842(5)
I4_4 I 0.85475(3) 0.06995(8) 0.51509(3)
Zn2_7 Zn 0.87365(3) 0.08534(7) 0.44140(4)
N5_4 N 0.6269(3) 0.0496(5) 0.1378(3)
N6_7 N 0.8308(2) 0.0257(4) 0.3943(3)
N7_7 N 0.9196(3) 0.0050(6) 0.4424(3)
C10_7 C 0.6734(3) 0.0509(5) 0.2028(3)
H5_7 H 0.6880 0.0855 0.2260
C11_7 C 0.6544(3) 0.0924(6) 0.1664(4)
H6_7 H 0.6606 0.1524 0.1610
C17_7 C 0.8058(3) 0.0731(6) 0.3639(3)
H11_7 H 0.8083 0.1361 0.3631
C18_7 C 0.7771(3) 0.0322(6) 0.3342(4)
H12_7 H 0.7607 0.0653 0.3118
H14_7 H 0.9291 0.0365 0.3834
Zn5_4 Zn 0.58713(4) 0.11762(6) 0.08966(4)
I5_7 I 0.53065(3) 0.14951(7) 0.12461(3)
I6_7 I 0.62338(4) 0.22846(6) 0.05321(4)
N12_7 N 0.5725(2) 0.0122(5) 0.0459(3)
H23_7 H 0.6149 0.0298 0.0177
I4_5 I 0.14525(3) 0.06995(8) 0.98491(3)
H15_4 H 0.0754 0.9506 0.9974
H16_4 H 0.0253 0.8628 0.9994
I5_8 I 0.96935(3) 0.35049(7) 0.87539(3)
I6_8 I 0.87662(4) 0.27154(6) 0.94679(4)
Zn3_4 Zn 0.91287(4) 0.38238(6) 0.91034(4)
N12_8 N 0.9275(2) 0.4878(5) 0.9541(3)
C33_6 C 0.9658(3) 0.6160(7) 0.9805(4)
H21_6 H 0.9871 0.6538 0.9791
C34_6 C 0.9588(3) 0.5394(5) 0.9551(3)
H22_6 H 0.9768 0.5228 0.9379
C35_6 C 0.9062(3) 0.5087(7) 0.9814(4)
H23_8 H 0.8851 0.4702 0.9823
N13_4 N 0.8731(3) 0.4504(5) 0.8622(3)
I3_8 I 0.61177(3) 0.26872(5) 0.59158(5)
I4_6 I 0.64525(3) 0.43005(8) 0.48491(3)
Zn2_8 Zn 0.62635(3) 0.41466(7) 0.55860(4)
N2_7 N 0.7760(2) 0.5517(4) 0.7286(2)
N3_7 N 0.81600(19) 0.6801(4) 0.7549(2)
N4_7 N 0.76561(18) 0.6903(4) 0.6910(2)
N6_8 N 0.6692(2) 0.4743(4) 0.6057(3)
N7_8 N 0.5804(3) 0.4950(6) 0.5576(3)
N8_7 N 0.4621(2) 0.6446(5) 0.5880(3)
N9_7 N 0.4755(2) 0.7274(4) 0.5281(2)
N10_7 N 0.4254(2) 0.7745(4) 0.5639(2)
N11_4 N 0.3607(3) 0.6530(6) 0.6821(3)
C1_7 C 0.7798(3) 0.8776(6) 0.6914(4)
H1_7 H 0.7585 0.8547 0.6706
C2_7 C 0.7868(3) 0.9679(6) 0.6926(4)
C3_7 C 0.8376(3) 0.9496(6) 0.7515(4)
H3_7 H 0.8597 0.9728 0.7711
C4_7 C 0.8290(3) 0.8564(6) 0.7513(4)
H4_7 H 0.8423 0.8194 0.7743
C5_7 C 0.8023(3) 0.8211(6) 0.7190(4)
C6_7 C 0.7935(2) 0.7239(5) 0.7220(3)
C7_7 C 0.7593(2) 0.6021(5) 0.6961(3)
C8_7 C 0.8051(3) 0.5902(5) 0.7569(3)
C9_7 C 0.8278(3) 0.5425(5) 0.7925(3)
C10_8 C 0.8266(3) 0.4491(5) 0.7972(3)
H5_8 H 0.8120 0.4145 0.7740
C11_8 C 0.8456(3) 0.4076(6) 0.8336(4)
H6_8 H 0.8394 0.3476 0.8390
C12_7 C 0.8745(3) 0.5373(6) 0.8609(4)
H7_7 H 0.8870 0.5697 0.8860
C13_7 C 0.8579(3) 0.5827(6) 0.8227(4)
H8_7 H 0.8668 0.6405 0.8172
C14_7 C 0.7273(3) 0.5595(6) 0.6622(4)
C15_7 C 0.7038(3) 0.6053(6) 0.6322(4)
H9_7 H 0.7066 0.6680 0.6303
C16_7 C 0.6747(3) 0.5613(5) 0.6032(3)
H10_7 H 0.6582 0.5945 0.5809
C17_8 C 0.6942(3) 0.4269(6) 0.6361(3)
H11_8 H 0.6917 0.3639 0.6369
C18_8 C 0.7229(3) 0.4678(6) 0.6658(4)
H12_8 H 0.7393 0.4347 0.6882
C19_7 C 0.5324(3) 0.5536(7) 0.5933(4)
H13_7 H 0.5232 0.5565 0.6197
C20_7 C 0.5618(3) 0.5007(7) 0.5920(4)
H14_8 H 0.5709 0.4635 0.6166
C21_7 C 0.5646(3) 0.5489(7) 0.5227(4)
H15_5 H 0.5754 0.5494 0.4974
C22_7 C 0.5345(3) 0.5998(7) 0.5239(4)
H16_5 H 0.5253 0.6372 0.4994
C23_7 C 0.5145(3) 0.6038(7) 0.5591(4)
C24_7 C 0.4825(3) 0.6581(5) 0.5586(3)
C25_7 C 0.4472(2) 0.7827(6) 0.5339(3)
C26_7 C 0.4330(3) 0.7020(6) 0.5888(3)
C27_7 C 0.4071(3) 0.6839(7) 0.6198(4)
C28_7 C 0.4146(3) 0.6165(7) 0.6509(4)
H17_7 H 0.4362 0.5784 0.6518
C29_7 C 0.3922(3) 0.6043(7) 0.6794(4)
H18_7 H 0.3989 0.5569 0.6997
C30_7 C 0.3537(4) 0.7128(8) 0.6455(4)
H19_7 H 0.3311 0.7484 0.6420
C31_7 C 0.3740(4) 0.7236(8) 0.6175(5)
H20_7 H 0.3648 0.7624 0.5936
C32_7 C 0.4405(3) 0.8635(7) 0.5087(4)
C33_7 C 0.4658(3) 0.8840(7) 0.4805(4)
H21_7 H 0.4871 0.8462 0.4791
C34_7 C 0.4588(3) 0.9606(5) 0.4551(3)
H22_7 H 0.4768 0.9772 0.4379
C35_7 C 0.4062(3) 0.9913(7) 0.4814(4)
C36_7 C 0.4109(3) 0.9197(7) 0.5093(4)
H24_7 H 0.3938 0.9100 0.5285
Zn4_4 Zn 0.32887(4) 0.63806(7) 0.72699(5)
I1_7 I 0.37341(4) 0.66296(6) 0.80145(3)
I2_7 I 0.26874(3) 0.73102(5) 0.70247(4)
N1_7 N 0.3146(2) 0.5025(4) 0.7243(3)
N2_8 N 0.2760(2) 0.0517(4) 0.7286(2)
N3_8 N 0.31600(19) 0.1801(4) 0.7549(2)
N4_8 N 0.26561(18) 0.1903(4) 0.6910(2)
C1_8 C 0.2798(3) 0.3776(6) 0.6914(4)
H1_8 H 0.2585 0.3547 0.6706
C2_8 C 0.2868(3) 0.4679(6) 0.6926(4)
H2_7 H 0.2720 0.5057 0.6710
C3_8 C 0.3376(3) 0.4496(6) 0.7515(4)
H3_8 H 0.3597 0.4728 0.7711
C4_8 C 0.3290(3) 0.3564(6) 0.7513(4)
H4_8 H 0.3423 0.3194 0.7743
C5_8 C 0.3023(3) 0.3211(6) 0.7190(4)
C6_8 C 0.2935(2) 0.2239(5) 0.7220(3)
C7_8 C 0.2593(2) 0.1021(5) 0.6961(3)
C8_8 C 0.3051(3) 0.0902(5) 0.7569(3)
C9_8 C 0.3278(3) 0.0425(5) 0.7925(3)
C12_8 C 0.3745(3) 0.0373(6) 0.8609(4)
H7_8 H 0.3870 0.0697 0.8860
C13_8 C 0.3579(3) 0.0827(6) 0.8227(4)
H8_8 H 0.3668 0.1405 0.8172
C14_8 C 0.2273(3) 0.0595(6) 0.6622(4)
C15_8 C 0.2038(3) 0.1053(6) 0.6322(4)
H9_8 H 0.2066 0.1680 0.6303
C16_8 C 0.1747(3) 0.0613(5) 0.6032(3)
H10_8 H 0.1582 0.0945 0.5809
C19_8 C 0.0324(3) 0.0536(7) 0.5933(4)
H13_8 H 0.0232 0.0565 0.6197
C20_8 C 0.0618(3) 0.0007(7) 0.5920(4)
C21_8 C 0.0646(3) 0.0489(7) 0.5227(4)
H15_6 H 0.0754 0.0494 0.4974
C22_8 C 0.0345(3) 0.0998(7) 0.5239(4)
H16_6 H 0.0253 0.1372 0.4994
C23_8 C 0.0145(3) 0.1038(7) 0.5591(4)
I1_8 I 0.12659(4) 0.16296(6) 0.69855(3)
I2_8 I 0.23126(3) 0.23102(5) 0.79753(4)
Zn1_4 Zn 0.17113(4) 0.13806(7) 0.77301(5)
N1_8 N 0.1854(2) 0.0025(4) 0.7757(3)
H2_8 H 0.2280 0.0057 0.8290
N14_4 N 0.1393(3) 0.1530(6) 0.8179(3)
N8_8 N 0.0379(2) 0.1446(5) 0.9120(3)
N9_8 N 0.0245(2) 0.2274(4) 0.9719(2)
N10_8 N 0.0746(2) 0.2745(4) 0.9361(2)
C24_8 C 0.0175(3) 0.1581(5) 0.9414(3)
C25_8 C 0.0528(2) 0.2827(6) 0.9661(3)
C26_8 C 0.0670(3) 0.2020(6) 0.9112(3)
C27_8 C 0.0929(3) 0.1839(7) 0.8802(4)
C28_8 C 0.0854(3) 0.1165(7) 0.8491(4)
H17_8 H 0.0638 0.0784 0.8482
C29_8 C 0.1078(3) 0.1043(7) 0.8206(4)
H18_8 H 0.1011 0.0569 0.8003
C30_8 C 0.1463(4) 0.2128(8) 0.8545(4)
H19_8 H 0.1689 0.2484 0.8580
C31_8 C 0.1260(4) 0.2236(8) 0.8825(5)
H20_8 H 0.1352 0.2624 0.9064
C32_8 C 0.0595(3) 0.3635(7) 0.9913(4)
C36_8 C 0.0891(3) 0.4197(7) 0.9907(4)
H24_8 H 0.1062 0.4100 0.9715
I4_7 I 0.35475(3) 0.43005(8) 0.01509(3)
H15_7 H 0.4246 0.5494 0.0026
H16_7 H 0.4747 0.6372 0.0006
C33_8 C 0.5342(3) 0.8840(7) 0.0195(4)
H21_8 H 0.5129 0.8462 0.0209
C34_8 C 0.5412(3) 0.9606(5) 0.0449(3)
H22_8 H 0.5232 0.9772 0.0621
C35_8 C 0.5938(3) 0.9913(7) 0.0186(4)
H15_8 H 0.9246 0.0494 0.0026
H16_8 H 0.9747 0.1372 0.0006
I4_8 I 0.85475(3) 0.93005(8) 0.01509(3)
loop_
_geom_bond_atom_site_label_1
_geom_bond_atom_site_label_2
_geom_bond_site_symmetry_1
_geom_bond_site_symmetry_2
I3 Zn2 1_555 1_555
I4 Zn2 1_555 1_555
Zn2 N6 1_555 1_555
N2 C7 1_555 1_555
N3 C6 1_555 1_555
N4 C6 1_555 1_555
N5 C11 1_555 1_555
N6 C16 1_555 1_555
N7 Zn2 1_555 1_555
N8 C24 1_555 1_555
N9 C24 1_555 1_555
N10 C25 1_555 1_555
N11 C29 1_555 1_555
C1 H1 1_555 1_555
C2 C1 1_555 1_555
H3 C3 1_555 1_555
C4 C3 1_555 1_555
H4 C4 1_555 1_555
C5 C1 1_555 1_555
C6 C5 1_555 1_555
C7 N4 1_555 1_555
C8 N2 1_555 1_555
C9 C8 1_555 1_555
C10 C9 1_555 1_555
H5 C10 1_555 1_555
C11 C10 1_555 1_555
H6 C11 1_555 1_555
C12 N5 1_555 1_555
H7 C12 1_555 1_555
C13 C9 1_555 1_555
H8 C13 1_555 1_555
C14 C7 1_555 1_555
C15 C14 1_555 1_555
H9 C15 1_555 1_555
C16 C15 1_555 1_555
H10 C16 1_555 1_555
C17 N6 1_555 1_555
H11 C17 1_555 1_555
C18 C14 1_555 1_555
H12 C18 1_555 1_555
C19 H13 1_555 1_555
C20 N7 1_555 1_555
H14 C20 1_555 1_555
C21 N7 1_555 1_555
H15 C21 1_555 1_555
C22 C21 1_555 1_555
H16 C22 1_555 1_555
C23 C19 1_555 1_555
C24 C23 1_555 1_555
C25 N9 1_555 1_555
C26 N8 1_555 1_555
C27 C26 1_555 1_555
C28 C27 1_555 1_555
H17 C28 1_555 1_555
C29 C28 1_555 1_555
H18 C29 1_555 1_555
C30 N11 1_555 1_555
H19 C30 1_555 1_555
C31 C27 1_555 1_555
H20 C31 1_555 1_555
C32 C25 1_555 1_555
C33 C32 1_555 1_555
H21 C33 1_555 1_555
C34 C33 1_555 1_555
H22 C34 1_555 1_555
C36 C32 1_555 1_555
H24 C36 1_555 1_555
Zn4 N11 1_555 1_555
Zn5 N5 1_555 1_555
N3 C8 1_555 1_555
N10 C26 1_555 1_555
C4 C5 1_555 1_555
C12 C13 1_555 1_555
C17 C18 1_555 1_555
C19 C20 1_555 1_555
C22 C23 1_555 1_555
C30 C31 1_555 1_555
C35 C36 1_555 1_555
I1 Zn4 1_555 1_555
I2 Zn4 1_555 1_555
Zn4 N1 1_555 1_555
N1 C2_2 1_555 1_555
N2_2 C7_2 1_555 1_555
N3_2 C6_2 1_555 1_555
N4_2 C6_2 1_555 1_555
C1_2 H1_2 1_555 1_555
C2_2 C1_2 1_555 1_555
H2 C2_2 1_555 1_555
C3_2 N1 1_555 1_555
H3_2 C3_2 1_555 1_555
C4_2 C3_2 1_555 1_555
H4_2 C4_2 1_555 1_555
C5_2 C1_2 1_555 1_555
C6_2 C5_2 1_555 1_555
C7_2 N4_2 1_555 1_555
C8_2 N2_2 1_555 1_555
C9_2 C8_2 1_555 1_555
H7_2 C12_2 1_555 1_555
C13_2 C9_2 1_555 1_555
H8_2 C13_2 1_555 1_555
C14_2 C7_2 1_555 1_555
C15_2 C14_2 1_555 1_555
H9_2 C15_2 1_555 1_555
C16_2 C15_2 1_555 1_555
H10_2 C16_2 1_555 1_555
C19_2 H13_2 1_555 1_555
H15_2 C21_2 1_555 1_555
C22_2 C21_2 1_555 1_555
H16_2 C22_2 1_555 1_555
C23_2 C19_2 1_555 1_555
N3_2 C8_2 1_555 1_555
C4_2 C5_2 1_555 1_555
C12_2 C13_2 1_555 1_555
C19_2 C20_2 1_555 1_555
C22_2 C23_2 1_555 1_555
I5 Zn5 1_555 1_555
I6 Zn5 1_555 1_555
Zn5 N12 1_555 1_555
N12 C34_2 1_555 1_555
H21_2 C33_2 1_555 1_555
C34_2 C33_2 1_555 1_555
H22_2 C34_2 1_555 1_555
C35_2 N12 1_555 1_555
H23 C35_2 1_555 1_555
I1_2 Zn1 1_555 1_555
I2_2 Zn1 1_555 1_555
I5_2 Zn3 1_555 1_555
I6_2 Zn3 1_555 1_555
Zn1 N1_2 1_555 1_555
Zn3 N12_2 1_555 1_555
N13 Zn3 1_555 1_555
N14 Zn1 1_555 1_555
I5_3 Zn3_2 1_555 1_555
I6_3 Zn3_2 1_555 1_555
Zn3_2 N12_3 1_555 1_555
N8_2 C24_2 1_555 1_555
N9_2 C24_2 1_555 1_555
N10_2 C25_2 1_555 1_555
N14 C29_2 1_555 1_555
N12_3 C34_3 1_555 1_555
C25_2 N9_2 1_555 1_555
C26_2 N8_2 1_555 1_555
C27_2 C26_2 1_555 1_555
C28_2 C27_2 1_555 1_555
H17_2 C28_2 1_555 1_555
C29_2 C28_2 1_555 1_555
H18_2 C29_2 1_555 1_555
C30_2 N14 1_555 1_555
H19_2 C30_2 1_555 1_555
C31_2 C27_2 1_555 1_555
H20_2 C31_2 1_555 1_555
C32_2 C25_2 1_555 1_555
C33_3 C32_2 1_555 1_555
H21_3 C33_3 1_555 1_555
C34_3 C33_3 1_555 1_555
H22_3 C34_3 1_555 1_555
C35_3 N12_3 1_555 1_555
H23_3 C35_3 1_555 1_555
C36_2 C32_2 1_555 1_555
H24_2 C36_2 1_555 1_555
N13_2 Zn3_2 1_555 1_555
N10_2 C26_2 1_555 1_555
C30_2 C31_2 1_555 1_555
C35_3 C36_2 1_555 1_555
I3_2 Zn2_2 1_555 1_555
Zn2_2 N6_2 1_555 1_555
N2_3 C7_3 1_555 1_555
N3_3 C6_3 1_555 1_555
N4_3 C6_3 1_555 1_555
N13_2 C11_2 1_555 1_555
N6_2 C16_3 1_555 1_555
N7_2 Zn2_2 1_555 1_555
N8_3 C24_3 1_555 1_555
N9_3 C24_3 1_555 1_555
N10_3 C25_3 1_555 1_555
N11_2 C29_3 1_555 1_555
C1_3 H1_3 1_555 1_555
C2_3 C1_3 1_555 1_555
H3_3 C3_3 1_555 1_555
C4_3 C3_3 1_555 1_555
H4_3 C4_3 1_555 1_555
C5_3 C1_3 1_555 1_555
C6_3 C5_3 1_555 1_555
C7_3 N4_3 1_555 1_555
C8_3 N2_3 1_555 1_555
C9_3 C8_3 1_555 1_555
C10_2 C9_3 1_555 1_555
H5_2 C10_2 1_555 1_555
C11_2 C10_2 1_555 1_555
H6_2 C11_2 1_555 1_555
C12_3 N13_2 1_555 1_555
H7_3 C12_3 1_555 1_555
C13_3 C9_3 1_555 1_555
H8_3 C13_3 1_555 1_555
C14_3 C7_3 1_555 1_555
C15_3 C14_3 1_555 1_555
H9_3 C15_3 1_555 1_555
C16_3 C15_3 1_555 1_555
H10_3 C16_3 1_555 1_555
C17_2 N6_2 1_555 1_555
H11_2 C17_2 1_555 1_555
C18_2 C14_3 1_555 1_555
H12_2 C18_2 1_555 1_555
C19_3 H13_3 1_555 1_555
C20_3 N7_2 1_555 1_555
H14_2 C20_3 1_555 1_555
C21_3 N7_2 1_555 1_555
C22_3 C21_3 1_555 1_555
C23_3 C19_3 1_555 1_555
C24_3 C23_3 1_555 1_555
C25_3 N9_3 1_555 1_555
C26_3 N8_3 1_555 1_555
C27_3 C26_3 1_555 1_555
C28_3 C27_3 1_555 1_555
H17_3 C28_3 1_555 1_555
C29_3 C28_3 1_555 1_555
H18_3 C29_3 1_555 1_555
C30_3 N11_2 1_555 1_555
H19_3 C30_3 1_555 1_555
C31_3 C27_3 1_555 1_555
H20_3 C31_3 1_555 1_555
C32_3 C25_3 1_555 1_555
C36_3 C32_3 1_555 1_555
H24_3 C36_3 1_555 1_555
Zn4_2 N11_2 1_555 1_555
N3_3 C8_3 1_555 1_555
N10_3 C26_3 1_555 1_555
C4_3 C5_3 1_555 1_555
C12_3 C13_3 1_555 1_555
C17_2 C18_2 1_555 1_555
C19_3 C20_3 1_555 1_555
C22_3 C23_3 1_555 1_555
C30_3 C31_3 1_555 1_555
I1_3 Zn4_2 1_555 1_555
I2_3 Zn4_2 1_555 1_555
Zn4_2 N1_3 1_555 1_555
N1_3 C2_4 1_555 1_555
N2_4 C7_4 1_555 1_555
N3_4 C6_4 1_555 1_555
N4_4 C6_4 1_555 1_555
C1_4 H1_4 1_555 1_555
C2_4 C1_4 1_555 1_555
H2_3 C2_4 1_555 1_555
C3_4 N1_3 1_555 1_555
H3_4 C3_4 1_555 1_555
C4_4 C3_4 1_555 1_555
H4_4 C4_4 1_555 1_555
C5_4 C1_4 1_555 1_555
C6_4 C5_4 1_555 1_555
C7_4 N4_4 1_555 1_555
C8_4 N2_4 1_555 1_555
C9_4 C8_4 1_555 1_555
H7_4 C12_4 1_555 1_555
C13_4 C9_4 1_555 1_555
H8_4 C13_4 1_555 1_555
C14_4 C7_4 1_555 1_555
C15_4 C14_4 1_555 1_555
H9_4 C15_4 1_555 1_555
C16_4 C15_4 1_555 1_555
H10_4 C16_4 1_555 1_555
C19_4 H13_4 1_555 1_555
C22_4 C21_4 1_555 1_555
C23_4 C19_4 1_555 1_555
N3_4 C8_4 1_555 1_555
C4_4 C5_4 1_555 1_555
C12_4 C13_4 1_555 1_555
C19_4 C20_4 1_555 1_555
C22_4 C23_4 1_555 1_555
I3_3 Zn2_3 1_555 1_555
Zn2_3 N6_3 1_555 1_555
N13 C11_3 1_555 1_555
N7_3 Zn2_3 1_555 1_555
H5_3 C10_3 1_555 1_555
C11_3 C10_3 1_555 1_555
H6_3 C11_3 1_555 1_555
C17_3 N6_3 1_555 1_555
H11_3 C17_3 1_555 1_555
H12_3 C18_3 1_555 1_555
C17_3 C18_3 1_555 1_555
I3_4 Zn2_4 1_555 1_555
Zn2_4 N6_4 1_555 1_555
N2_5 C7_5 1_555 1_555
N3_5 C6_5 1_555 1_555
N4_5 C6_5 1_555 1_555
N5_2 C11_4 1_555 1_555
N6_4 C16_5 1_555 1_555
N7_4 Zn2_4 1_555 1_555
N8_4 C24_4 1_555 1_555
N9_4 C24_4 1_555 1_555
N10_4 C25_4 1_555 1_555
N11_3 C29_4 1_555 1_555
C1_5 H1_5 1_555 1_555
C2_5 C1_5 1_555 1_555
H3_5 C3_5 1_555 1_555
C4_5 C3_5 1_555 1_555
H4_5 C4_5 1_555 1_555
C5_5 C1_5 1_555 1_555
C6_5 C5_5 1_555 1_555
C7_5 N4_5 1_555 1_555
C8_5 N2_5 1_555 1_555
C9_5 C8_5 1_555 1_555
C10_4 C9_5 1_555 1_555
H5_4 C10_4 1_555 1_555
C11_4 C10_4 1_555 1_555
H6_4 C11_4 1_555 1_555
C12_5 N5_2 1_555 1_555
H7_5 C12_5 1_555 1_555
C13_5 C9_5 1_555 1_555
H8_5 C13_5 1_555 1_555
C14_5 C7_5 1_555 1_555
C15_5 C14_5 1_555 1_555
H9_5 C15_5 1_555 1_555
C16_5 C15_5 1_555 1_555
H10_5 C16_5 1_555 1_555
C17_4 N6_4 1_555 1_555
H11_4 C17_4 1_555 1_555
C18_4 C14_5 1_555 1_555
H12_4 C18_4 1_555 1_555
C19_5 H13_5 1_555 1_555
C20_5 N7_4 1_555 1_555
H14_4 C20_5 1_555 1_555
C21_5 N7_4 1_555 1_555
C22_5 C21_5 1_555 1_555
C23_5 C19_5 1_555 1_555
C24_4 C23_5 1_555 1_555
C25_4 N9_4 1_555 1_555
C26_4 N8_4 1_555 1_555
C27_4 C26_4 1_555 1_555
C28_4 C27_4 1_555 1_555
H17_4 C28_4 1_555 1_555
C29_4 C28_4 1_555 1_555
H18_4 C29_4 1_555 1_555
C30_4 N11_3 1_555 1_555
H19_4 C30_4 1_555 1_555
C31_4 C27_4 1_555 1_555
H20_4 C31_4 1_555 1_555
C32_4 C25_4 1_555 1_555
C36_4 C32_4 1_555 1_555
H24_4 C36_4 1_555 1_555
Zn4_3 N11_3 1_555 1_555
Zn5_2 N5_2 1_555 1_555
N3_5 C8_5 1_555 1_555
N10_4 C26_4 1_555 1_555
C4_5 C5_5 1_555 1_555
C12_5 C13_5 1_555 1_555
C17_4 C18_4 1_555 1_555
C19_5 C20_5 1_555 1_555
C22_5 C23_5 1_555 1_555
C30_4 C31_4 1_555 1_555
I3_5 Zn2_5 1_555 1_555
Zn2_5 N6_5 1_555 1_555
N5_3 C11_5 1_555 1_555
N7_5 Zn2_5 1_555 1_555
H5_5 C10_5 1_555 1_555
C11_5 C10_5 1_555 1_555
H6_5 C11_5 1_555 1_555
C17_5 N6_5 1_555 1_555
H11_5 C17_5 1_555 1_555
H12_5 C18_5 1_555 1_555
Zn5_3 N5_3 1_555 1_555
C17_5 C18_5 1_555 1_555
I1_4 Zn4_3 1_555 1_555
I2_4 Zn4_3 1_555 1_555
Zn4_3 N1_4 1_555 1_555
N1_4 C2_6 1_555 1_555
N2_6 C7_6 1_555 1_555
N3_6 C6_6 1_555 1_555
N4_6 C6_6 1_555 1_555
C1_6 H1_6 1_555 1_555
C2_6 C1_6 1_555 1_555
H2_4 C2_6 1_555 1_555
C3_6 N1_4 1_555 1_555
H3_6 C3_6 1_555 1_555
C4_6 C3_6 1_555 1_555
H4_6 C4_6 1_555 1_555
C5_6 C1_6 1_555 1_555
C6_6 C5_6 1_555 1_555
C7_6 N4_6 1_555 1_555
C8_6 N2_6 1_555 1_555
C9_6 C8_6 1_555 1_555
H7_6 C12_6 1_555 1_555
C13_6 C9_6 1_555 1_555
H8_6 C13_6 1_555 1_555
C14_6 C7_6 1_555 1_555
C15_6 C14_6 1_555 1_555
H9_6 C15_6 1_555 1_555
C16_6 C15_6 1_555 1_555
H10_6 C16_6 1_555 1_555
C19_6 H13_6 1_555 1_555
C22_6 C21_6 1_555 1_555
C23_6 C19_6 1_555 1_555
N3_6 C8_6 1_555 1_555
C4_6 C5_6 1_555 1_555
C12_6 C13_6 1_555 1_555
C19_6 C20_6 1_555 1_555
C22_6 C23_6 1_555 1_555
I1_5 Zn1_2 1_555 1_555
I2_5 Zn1_2 1_555 1_555
I5_4 Zn5_3 1_555 1_555
I6_4 Zn5_3 1_555 1_555
Zn1_2 N1_5 1_555 1_555
Zn5_3 N12_4 1_555 1_555
N14_2 Zn1_2 1_555 1_555
I5_5 Zn5_2 1_555 1_555
I6_5 Zn5_2 1_555 1_555
Zn5_2 N12_5 1_555 1_555
N8_5 C24_5 1_555 1_555
N9_5 C24_5 1_555 1_555
N10_5 C25_5 1_555 1_555
N14_2 C29_5 1_555 1_555
N12_5 C34_4 1_555 1_555
C25_5 N9_5 1_555 1_555
C26_5 N8_5 1_555 1_555
C27_5 C26_5 1_555 1_555
C28_5 C27_5 1_555 1_555
H17_5 C28_5 1_555 1_555
C29_5 C28_5 1_555 1_555
H18_5 C29_5 1_555 1_555
C30_5 N14_2 1_555 1_555
H19_5 C30_5 1_555 1_555
C31_5 C27_5 1_555 1_555
H20_5 C31_5 1_555 1_555
C32_5 C25_5 1_555 1_555
C33_4 C32_5 1_555 1_555
H21_4 C33_4 1_555 1_555
C34_4 C33_4 1_555 1_555
H22_4 C34_4 1_555 1_555
C35_4 N12_5 1_555 1_555
H23_5 C35_4 1_555 1_555
C36_5 C32_5 1_555 1_555
H24_5 C36_5 1_555 1_555
N10_5 C26_5 1_555 1_555
C30_5 C31_5 1_555 1_555
C35_4 C36_5 1_555 1_555
H21_5 C33_5 1_555 1_555
C34_5 C33_5 1_555 1_555
H22_5 C34_5 1_555 1_555
I1_6 Zn1_3 1_555 1_555
I2_6 Zn1_3 1_555 1_555
Zn1_3 N1_6 1_555 1_555
N14_3 Zn1_3 1_555 1_555
N8_6 C24_6 1_555 1_555
N9_6 C24_6 1_555 1_555
N10_6 C25_6 1_555 1_555
N14_3 C29_6 1_555 1_555
C25_6 N9_6 1_555 1_555
C26_6 N8_6 1_555 1_555
C27_6 C26_6 1_555 1_555
C28_6 C27_6 1_555 1_555
H17_6 C28_6 1_555 1_555
C29_6 C28_6 1_555 1_555
H18_6 C29_6 1_555 1_555
C30_6 N14_3 1_555 1_555
H19_6 C30_6 1_555 1_555
C31_6 C27_6 1_555 1_555
H20_6 C31_6 1_555 1_555
C32_6 C25_6 1_555 1_555
C36_6 C32_6 1_555 1_555
H24_6 C36_6 1_555 1_555
N10_6 C26_6 1_555 1_555
C30_6 C31_6 1_555 1_555
I5_6 Zn3_3 1_555 1_555
I6_6 Zn3_3 1_555 1_555
Zn3_3 N12_6 1_555 1_555
N13_3 Zn3_3 1_555 1_555
I3_6 Zn2_6 1_555 1_555
I4_3 Zn2_6 1_555 1_555
Zn2_6 N6_6 1_555 1_555
N13_3 C11_6 1_555 1_555
N7_6 Zn2_6 1_555 1_555
H5_6 C10_6 1_555 1_555
C11_6 C10_6 1_555 1_555
H6_6 C11_6 1_555 1_555
C17_6 N6_6 1_555 1_555
H11_6 C17_6 1_555 1_555
H12_6 C18_6 1_555 1_555
C17_6 C18_6 1_555 1_555
I3_7 Zn2_7 1_555 1_555
I4_4 Zn2_7 1_555 1_555
Zn2_7 N6_7 1_555 1_555
N5_4 C11_7 1_555 1_555
N7_7 Zn2_7 1_555 1_555
H5_7 C10_7 1_555 1_555
C11_7 C10_7 1_555 1_555
H6_7 C11_7 1_555 1_555
C17_7 N6_7 1_555 1_555
H11_7 C17_7 1_555 1_555
H12_7 C18_7 1_555 1_555
Zn5_4 N5_4 1_555 1_555
C17_7 C18_7 1_555 1_555
I5_7 Zn5_4 1_555 1_555
I6_7 Zn5_4 1_555 1_555
Zn5_4 N12_7 1_555 1_555
I5_8 Zn3_4 1_555 1_555
I6_8 Zn3_4 1_555 1_555
Zn3_4 N12_8 1_555 1_555
N12_8 C34_6 1_555 1_555
H21_6 C33_6 1_555 1_555
C34_6 C33_6 1_555 1_555
H22_6 C34_6 1_555 1_555
C35_6 N12_8 1_555 1_555
H23_8 C35_6 1_555 1_555
N13_4 Zn3_4 1_555 1_555
I3_8 Zn2_8 1_555 1_555
I4_6 Zn2_8 1_555 1_555
Zn2_8 N6_8 1_555 1_555
N2_7 C7_7 1_555 1_555
N3_7 C6_7 1_555 1_555
N4_7 C6_7 1_555 1_555
N13_4 C11_8 1_555 1_555
N6_8 C16_7 1_555 1_555
N7_8 Zn2_8 1_555 1_555
N8_7 C24_7 1_555 1_555
N9_7 C24_7 1_555 1_555
N10_7 C25_7 1_555 1_555
N11_4 C29_7 1_555 1_555
C1_7 H1_7 1_555 1_555
C2_7 C1_7 1_555 1_555
H3_7 C3_7 1_555 1_555
C4_7 C3_7 1_555 1_555
H4_7 C4_7 1_555 1_555
C5_7 C1_7 1_555 1_555
C6_7 C5_7 1_555 1_555
C7_7 N4_7 1_555 1_555
C8_7 N2_7 1_555 1_555
C9_7 C8_7 1_555 1_555
C10_8 C9_7 1_555 1_555
H5_8 C10_8 1_555 1_555
C11_8 C10_8 1_555 1_555
H6_8 C11_8 1_555 1_555
C12_7 N13_4 1_555 1_555
H7_7 C12_7 1_555 1_555
C13_7 C9_7 1_555 1_555
H8_7 C13_7 1_555 1_555
C14_7 C7_7 1_555 1_555
C15_7 C14_7 1_555 1_555
H9_7 C15_7 1_555 1_555
C16_7 C15_7 1_555 1_555
H10_7 C16_7 1_555 1_555
C17_8 N6_8 1_555 1_555
H11_8 C17_8 1_555 1_555
C18_8 C14_7 1_555 1_555
H12_8 C18_8 1_555 1_555
C19_7 H13_7 1_555 1_555
C20_7 N7_8 1_555 1_555
H14_8 C20_7 1_555 1_555
C21_7 N7_8 1_555 1_555
H15_5 C21_7 1_555 1_555
C22_7 C21_7 1_555 1_555
H16_5 C22_7 1_555 1_555
C23_7 C19_7 1_555 1_555
C24_7 C23_7 1_555 1_555
C25_7 N9_7 1_555 1_555
C26_7 N8_7 1_555 1_555
C27_7 C26_7 1_555 1_555
C28_7 C27_7 1_555 1_555
H17_7 C28_7 1_555 1_555
C29_7 C28_7 1_555 1_555
H18_7 C29_7 1_555 1_555
C30_7 N11_4 1_555 1_555
H19_7 C30_7 1_555 1_555
C31_7 C27_7 1_555 1_555
H20_7 C31_7 1_555 1_555
C32_7 C25_7 1_555 1_555
C33_7 C32_7 1_555 1_555
H21_7 C33_7 1_555 1_555
C34_7 C33_7 1_555 1_555
H22_7 C34_7 1_555 1_555
C36_7 C32_7 1_555 1_555
H24_7 C36_7 1_555 1_555
Zn4_4 N11_4 1_555 1_555
N3_7 C8_7 1_555 1_555
N10_7 C26_7 1_555 1_555
C4_7 C5_7 1_555 1_555
C12_7 C13_7 1_555 1_555
C17_8 C18_8 1_555 1_555
C19_7 C20_7 1_555 1_555
C22_7 C23_7 1_555 1_555
C30_7 C31_7 1_555 1_555
C35_7 C36_7 1_555 1_555
I1_7 Zn4_4 1_555 1_555
I2_7 Zn4_4 1_555 1_555
Zn4_4 N1_7 1_555 1_555
N1_7 C2_8 1_555 1_555
N2_8 C7_8 1_555 1_555
N3_8 C6_8 1_555 1_555
N4_8 C6_8 1_555 1_555
C1_8 H1_8 1_555 1_555
C2_8 C1_8 1_555 1_555
H2_7 C2_8 1_555 1_555
C3_8 N1_7 1_555 1_555
H3_8 C3_8 1_555 1_555
C4_8 C3_8 1_555 1_555
H4_8 C4_8 1_555 1_555
C5_8 C1_8 1_555 1_555
C6_8 C5_8 1_555 1_555
C7_8 N4_8 1_555 1_555
C8_8 N2_8 1_555 1_555
C9_8 C8_8 1_555 1_555
H7_8 C12_8 1_555 1_555
C13_8 C9_8 1_555 1_555
H8_8 C13_8 1_555 1_555
C14_8 C7_8 1_555 1_555
C15_8 C14_8 1_555 1_555
H9_8 C15_8 1_555 1_555
C16_8 C15_8 1_555 1_555
H10_8 C16_8 1_555 1_555
C19_8 H13_8 1_555 1_555
H15_6 C21_8 1_555 1_555
C22_8 C21_8 1_555 1_555
H16_6 C22_8 1_555 1_555
C23_8 C19_8 1_555 1_555
N3_8 C8_8 1_555 1_555
C4_8 C5_8 1_555 1_555
C12_8 C13_8 1_555 1_555
C19_8 C20_8 1_555 1_555
C22_8 C23_8 1_555 1_555
I1_8 Zn1_4 1_555 1_555
I2_8 Zn1_4 1_555 1_555
Zn1_4 N1_8 1_555 1_555
N14_4 Zn1_4 1_555 1_555
N8_8 C24_8 1_555 1_555
N9_8 C24_8 1_555 1_555
N10_8 C25_8 1_555 1_555
N14_4 C29_8 1_555 1_555
C25_8 N9_8 1_555 1_555
C26_8 N8_8 1_555 1_555
C27_8 C26_8 1_555 1_555
C28_8 C27_8 1_555 1_555
H17_8 C28_8 1_555 1_555
C29_8 C28_8 1_555 1_555
H18_8 C29_8 1_555 1_555
C30_8 N14_4 1_555 1_555
H19_8 C30_8 1_555 1_555
C31_8 C27_8 1_555 1_555
H20_8 C31_8 1_555 1_555
C32_8 C25_8 1_555 1_555
C36_8 C32_8 1_555 1_555
H24_8 C36_8 1_555 1_555
N10_8 C26_8 1_555 1_555
C30_8 C31_8 1_555 1_555
H21_8 C33_8 1_555 1_555
C34_8 C33_8 1_555 1_555
H22_8 C34_8 1_555 1_555

#END
