
###############################################################################
#
# This file contains modified crystal structure data generated from the
# MOF subset of the Cambridge Structural Database (CSD) v543 
# hosted by the Cambridge Crystallographic Data Centre (CCDC).
#
# This work is licensed under the Creative Commons
# Attribution-NonCommercial-ShareAlike 4.0 International License.
# To view a copy of this license, visit
# http://creativecommons.org/licenses/by-nc-sa/4.0/
# or send a letter to
# Creative Commons, PO Box 1866, Mountain View, CA 94042, USA.
#
# CIF created using the CSD Python API on 29 September 2022
# The structure has been converted into the P1 space group
# The structure has a 3D framework
# The original CSD entry GARLAQ is in the monoclinic crystal system
# The framework has been calculated to contain at least 10.0% void space
# The void calculation uses a probe of radius 1.32A, grid spacing 0.4
#
###############################################################################

data_GARLAQ
_chemical_formula_moiety         '(C288 H192 I48 N96 Zn24)n'
_symmetry_cell_setting           triclinic
_symmetry_space_group_name_H-M   'P 1'
_symmetry_Int_Tables_number      1
_space_group_name_Hall           'P 1'
loop_
_symmetry_equiv_pos_site_id
_symmetry_equiv_pos_as_xyz
1 x,y,z
_cell_length_a                   34.543(4)
_cell_length_b                   15.218(2)
_cell_length_c                   29.739(4)
_cell_angle_alpha                90
_cell_angle_beta                 100.186(5)
_cell_angle_gamma                90
_cell_volume                     15386.7
loop_
_atom_site_label
_atom_site_type_symbol
_atom_site_fract_x
_atom_site_fract_y
_atom_site_fract_z
I1 I 0.62622(2) 0.22443(3) 0.54650(2)
I2 I 0.53459(2) 0.16613(3) 0.63420(2)
I5 I 0.13880(3) 0.17348(4) 0.21200(3)
I6 I 0.24139(2) 0.21128(4) 0.32662(4)
Zn1 Zn 0.58646(2) 0.12243(4) 0.58811(3)
Zn3 Zn 0.18019(3) 0.12971(4) 0.28871(3)
N1 N 0.56273(11) 0.0240(3) 0.54346(17)
C5 C 0.57788(16) 0.0066(4) 0.5069(2)
H4 H 0.5957 0.0480 0.4980
N13 N 0.14287(15) 0.1366(3) 0.3359(2)
N14 N 0.62763(12) 0.0483(3) 0.63148(17)
I1_2 I 0.12622(2) 0.72443(3) 0.54650(2)
I2_2 I 0.03459(2) 0.66613(3) 0.63420(2)
Zn1_2 Zn 0.08646(2) 0.62243(4) 0.58811(3)
N1_2 N 0.06273(11) 0.5240(3) 0.54346(17)
N2 N 0.01040(11) 0.2305(3) 0.47878(16)
N3 N 0.03050(11) 0.1325(3) 0.42435(17)
N4 N 0.06256(11) 0.2701(3) 0.43988(17)
C1 C 0.03544(14) 0.4664(3) 0.5533(2)
H1 H 0.0226 0.4798 0.5782
C2 C 0.02535(16) 0.3911(4) 0.5301(2)
H2 H 0.0066 0.3520 0.5389
C3 C 0.04311(13) 0.3729(3) 0.4929(2)
C4 C 0.06947(15) 0.4323(4) 0.4807(2)
H3 H 0.0816 0.4222 0.4549
C5_2 C 0.07788(16) 0.5066(4) 0.5069(2)
H4_2 H 0.0957 0.5480 0.4980
C6 C 0.03822(15) 0.2861(3) 0.4687(2)
C7 C 0.00809(14) 0.1557(3) 0.4536(2)
C8 C 0.05880(15) 0.1941(4) 0.4198(2)
C9 C 0.08715(14) 0.1701(4) 0.3910(2)
C10 C 0.08441(18) 0.0969(4) 0.3627(2)
H5 H 0.0633 0.0564 0.3616
C11 C 0.1130(2) 0.0842(4) 0.3360(3)
H6 H 0.1107 0.0342 0.3166
C12 C 0.1462(2) 0.2034(4) 0.3630(3)
H7 H 0.1681 0.2414 0.3633
C13 C 0.12013(16) 0.2230(4) 0.3913(3)
H8 H 0.1245 0.2724 0.4111
N14_2 N 0.12763(12) 0.5483(3) 0.63148(17)
I3 I 0.37248(2) 0.73753(3) 0.94255(2)
Zn2 Zn 0.35915(2) 0.58092(4) 0.96611(3)
N2_2 N 0.51040(11) 0.2695(3) 0.97878(16)
N3_2 N 0.53050(11) 0.3675(3) 0.92435(17)
N4_2 N 0.56256(11) 0.2299(3) 0.93988(17)
N5 N 0.64287(15) 0.3634(3) 0.8359(2)
N6 N 0.40988(12) 0.5090(3) 0.96508(18)
N7 N 0.32252(11) 0.5278(2) 0.91032(16)
N8 N 0.23739(11) 0.3144(3) 0.80998(16)
N9 N 0.18864(11) 0.3211(3) 0.74343(15)
N10 N 0.22312(11) 0.4509(3) 0.77081(17)
N12 N 0.19200(13) 0.0021(3) 0.78523(19)
C3_2 C 0.54311(13) 0.1271(3) 0.9929(2)
C4_2 C 0.56947(15) 0.0677(4) 0.9807(2)
H3_2 H 0.5816 0.0778 0.9549
C6_2 C 0.53822(15) 0.2139(3) 0.9687(2)
C7_2 C 0.50809(14) 0.3443(3) 0.9536(2)
C8_2 C 0.55880(15) 0.3059(4) 0.9198(2)
C9_2 C 0.58715(14) 0.3299(4) 0.8910(2)
C10_2 C 0.58441(18) 0.4031(4) 0.8627(2)
H5_2 H 0.5633 0.4436 0.8616
C11_2 C 0.6130(2) 0.4158(4) 0.8360(3)
H6_2 H 0.6107 0.4658 0.8166
C12_2 C 0.6462(2) 0.2966(4) 0.8630(3)
H7_2 H 0.6681 0.2586 0.8633
C13_2 C 0.62013(16) 0.2770(4) 0.8913(3)
H8_2 H 0.6245 0.2276 0.9111
C14 C 0.47460(18) 0.4031(4) 0.9582(3)
C15 C 0.45633(15) 0.4009(4) 0.9946(2)
C16 C 0.42385(16) 0.4544(3) 0.9984(2)
C17 C 0.42643(18) 0.5104(4) 0.9290(3)
H11 H 0.4150 0.5479 0.9047
C18 C 0.46026(17) 0.4608(4) 0.9223(3)
H12 H 0.4720 0.4665 0.8959
C19 C 0.32207(15) 0.4405(3) 0.9059(2)
H13 H 0.3399 0.4071 0.9273
C20 C 0.29782(14) 0.3973(3) 0.8730(2)
H14 H 0.2986 0.3350 0.8714
C21 C 0.27127(14) 0.4455(3) 0.8409(2)
C22 C 0.27152(14) 0.5378(3) 0.8472(2)
H15 H 0.2534 0.5738 0.8276
C23 C 0.29711(15) 0.5738(3) 0.8807(2)
H16 H 0.2973 0.6360 0.8836
C24 C 0.24236(15) 0.4026(3) 0.8061(2)
C25 C 0.21068(14) 0.2781(3) 0.7780(2)
C26 C 0.19675(13) 0.4071(3) 0.7416(2)
C27 C 0.17375(14) 0.4559(3) 0.7022(2)
C28 C 0.15047(17) 0.4120(4) 0.6671(2)
H17 H 0.1497 0.3496 0.6661
C29 C 0.12802(17) 0.4620(4) 0.6328(2)
H18 H 0.1118 0.4316 0.6086
C30 C 0.15232(15) 0.5900(4) 0.6638(2)
H19 H 0.1542 0.6521 0.6617
C31 C 0.17559(18) 0.5479(4) 0.7006(2)
H20 H 0.1921 0.5804 0.7237
C32 C 0.20527(14) 0.1826(3) 0.78041(19)
C33 C 0.22311(15) 0.1338(3) 0.8166(2)
H21 H 0.2404 0.1609 0.8411
C34 C 0.21564(17) 0.0432(4) 0.8175(2)
H22 H 0.2285 0.0101 0.8429
C35 C 0.17539(17) 0.0486(4) 0.7489(2)
H23 H 0.1590 0.0191 0.7245
C36 C 0.18121(16) 0.1390(3) 0.7453(2)
H24 H 0.1688 0.1702 0.7190
Zn5 Zn 0.68019(3) 0.37029(4) 0.78871(3)
I3_2 I 0.87248(2) 0.23753(3) 0.94255(2)
Zn2_2 Zn 0.85915(2) 0.08092(4) 0.96611(3)
N6_2 N 0.90988(12) 0.0090(3) 0.96508(18)
N7_2 N 0.82252(11) 0.0278(2) 0.91032(16)
C17_2 C 0.92643(18) 0.0104(4) 0.9290(3)
H11_2 H 0.9150 0.0479 0.9047
C22_2 C 0.77152(14) 0.0378(3) 0.8472(2)
H15_2 H 0.7534 0.0738 0.8276
C23_2 C 0.79711(15) 0.0738(3) 0.8807(2)
H16_2 H 0.7973 0.1360 0.8836
C30_2 C 0.65232(15) 0.0900(4) 0.6638(2)
H19_2 H 0.6542 0.1521 0.6617
C31_2 C 0.67559(18) 0.0479(4) 0.7006(2)
H20_2 H 0.6921 0.0804 0.7237
I5_2 I 0.63880(3) 0.32652(4) 0.71200(3)
I6_2 I 0.74139(2) 0.28872(4) 0.82662(4)
N8_2 N 0.73739(11) 0.8144(3) 0.80998(16)
N9_2 N 0.68864(11) 0.8211(3) 0.74343(15)
N10_2 N 0.72312(11) 0.9509(3) 0.77081(17)
N12_2 N 0.69200(13) 0.5021(3) 0.78523(19)
C14_2 C 0.97460(18) 0.9031(4) 0.9582(3)
C15_2 C 0.95633(15) 0.9009(4) 0.9946(2)
C16_2 C 0.92385(16) 0.9544(3) 0.9984(2)
C18_2 C 0.96026(17) 0.9608(4) 0.9223(3)
H12_2 H 0.9720 0.9665 0.8959
C19_2 C 0.82207(15) 0.9405(3) 0.9059(2)
H13_2 H 0.8399 0.9071 0.9273
C20_2 C 0.79782(14) 0.8973(3) 0.8730(2)
H14_2 H 0.7986 0.8350 0.8714
C21_2 C 0.77127(14) 0.9455(3) 0.8409(2)
C24_2 C 0.74236(15) 0.9026(3) 0.8061(2)
C25_2 C 0.71068(14) 0.7781(3) 0.7780(2)
C26_2 C 0.69675(13) 0.9071(3) 0.7416(2)
C27_2 C 0.67375(14) 0.9559(3) 0.7022(2)
C28_2 C 0.65047(17) 0.9120(4) 0.6671(2)
H17_2 H 0.6497 0.8496 0.6661
C29_2 C 0.62802(17) 0.9620(4) 0.6328(2)
H18_2 H 0.6118 0.9316 0.6086
C32_2 C 0.70527(14) 0.6826(3) 0.78041(19)
C33_2 C 0.72311(15) 0.6338(3) 0.8166(2)
H21_2 H 0.7404 0.6609 0.8411
C34_2 C 0.71564(17) 0.5432(4) 0.8175(2)
H22_2 H 0.7285 0.5101 0.8429
C35_2 C 0.67539(17) 0.5486(4) 0.7489(2)
H23_2 H 0.6590 0.5191 0.7245
C36_2 C 0.68121(16) 0.6390(3) 0.7453(2)
H24_2 H 0.6688 0.6702 0.7190
I3_3 I 0.37248(2) 0.26247(3) 0.44255(2)
I4 I 0.33276(2) 0.47383(3) 0.53572(2)
Zn2_3 Zn 0.35915(2) 0.41908(4) 0.46611(3)
N2_3 N 0.51040(11) 0.7305(3) 0.47878(16)
N3_3 N 0.53050(11) 0.6325(3) 0.42435(17)
N4_3 N 0.56256(11) 0.7701(3) 0.43988(17)
N5_2 N 0.64287(15) 0.6366(3) 0.3359(2)
N6_3 N 0.40988(12) 0.4910(3) 0.46508(18)
N7_3 N 0.32252(11) 0.4722(2) 0.41032(16)
N8_3 N 0.23739(11) 0.6856(3) 0.30998(16)
N9_3 N 0.18864(11) 0.6789(3) 0.24343(15)
N10_3 N 0.22312(11) 0.5491(3) 0.27081(17)
N11 N 0.12763(12) 0.4517(3) 0.13148(17)
N12_3 N 0.19200(13) 0.9979(3) 0.28523(19)
C1_2 C 0.53544(14) 0.9664(3) 0.5533(2)
H1_2 H 0.5226 0.9798 0.5782
C2_2 C 0.52535(16) 0.8911(4) 0.5301(2)
H2_2 H 0.5066 0.8520 0.5389
C3_3 C 0.54311(13) 0.8729(3) 0.4929(2)
C4_3 C 0.56947(15) 0.9323(4) 0.4807(2)
H3_3 H 0.5816 0.9222 0.4549
C6_3 C 0.53822(15) 0.7861(3) 0.4687(2)
C7_3 C 0.50809(14) 0.6557(3) 0.4536(2)
C8_3 C 0.55880(15) 0.6941(4) 0.4198(2)
C9_3 C 0.58715(14) 0.6701(4) 0.3910(2)
C10_3 C 0.58441(18) 0.5969(4) 0.3627(2)
H5_3 H 0.5633 0.5564 0.3616
C11_3 C 0.6130(2) 0.5842(4) 0.3360(3)
H6_3 H 0.6107 0.5342 0.3166
C12_3 C 0.6462(2) 0.7034(4) 0.3630(3)
H7_3 H 0.6681 0.7414 0.3633
C13_3 C 0.62013(16) 0.7230(4) 0.3913(3)
H8_3 H 0.6245 0.7724 0.4111
C14_3 C 0.47460(18) 0.5969(4) 0.4582(3)
C15_3 C 0.45633(15) 0.5991(4) 0.4946(2)
H9 H 0.4658 0.6386 0.5188
C16_3 C 0.42385(16) 0.5456(3) 0.4984(2)
H10 H 0.4120 0.5489 0.5249
C17_3 C 0.42643(18) 0.4896(4) 0.4290(3)
H11_3 H 0.4150 0.4521 0.4047
C18_3 C 0.46026(17) 0.5392(4) 0.4223(3)
H12_3 H 0.4720 0.5335 0.3959
C19_3 C 0.32207(15) 0.5595(3) 0.4059(2)
H13_3 H 0.3399 0.5929 0.4273
C20_3 C 0.29782(14) 0.6027(3) 0.3730(2)
H14_3 H 0.2986 0.6650 0.3714
C21_3 C 0.27127(14) 0.5545(3) 0.3409(2)
C22_3 C 0.27152(14) 0.4622(3) 0.3472(2)
H15_3 H 0.2534 0.4262 0.3276
C23_3 C 0.29711(15) 0.4262(3) 0.3807(2)
H16_3 H 0.2973 0.3640 0.3836
C24_3 C 0.24236(15) 0.5974(3) 0.3061(2)
C25_3 C 0.21068(14) 0.7219(3) 0.2780(2)
C26_3 C 0.19675(13) 0.5929(3) 0.2416(2)
C27_3 C 0.17375(14) 0.5441(3) 0.2022(2)
C28_3 C 0.15047(17) 0.5880(4) 0.1671(2)
H17_3 H 0.1497 0.6504 0.1661
C29_3 C 0.12802(17) 0.5380(4) 0.1328(2)
H18_3 H 0.1118 0.5684 0.1086
C30_3 C 0.15232(15) 0.4100(4) 0.1638(2)
H19_3 H 0.1542 0.3479 0.1617
C31_3 C 0.17559(18) 0.4521(4) 0.2006(2)
H20_3 H 0.1921 0.4196 0.2237
C32_3 C 0.20527(14) 0.8174(3) 0.28041(19)
C33_3 C 0.22311(15) 0.8662(3) 0.3166(2)
H21_3 H 0.2404 0.8391 0.3411
C34_3 C 0.21564(17) 0.9568(4) 0.3175(2)
H22_3 H 0.2285 0.9899 0.3429
C35_3 C 0.17539(17) 0.9514(4) 0.2489(2)
H23_3 H 0.1590 0.9809 0.2245
C36_3 C 0.18121(16) 0.8610(3) 0.2453(2)
H24_3 H 0.1688 0.8298 0.2190
Zn4 Zn 0.08646(2) 0.37757(4) 0.08811(3)
Zn5_2 Zn 0.68019(3) 0.62971(4) 0.28871(3)
I5_3 I 0.63880(3) 0.67348(4) 0.21200(3)
I6_3 I 0.74139(2) 0.71128(4) 0.32662(4)
N8_4 N 0.73739(11) 0.1856(3) 0.30998(16)
N9_4 N 0.68864(11) 0.1789(3) 0.24343(15)
N10_4 N 0.72312(11) 0.0491(3) 0.27081(17)
N12_4 N 0.69200(13) 0.4979(3) 0.28523(19)
C14_4 C 0.97460(18) 0.0969(4) 0.4582(3)
C15_4 C 0.95633(15) 0.0991(4) 0.4946(2)
H9_2 H 0.9658 0.1386 0.5188
C16_4 C 0.92385(16) 0.0456(3) 0.4984(2)
H10_2 H 0.9120 0.0489 0.5249
C18_4 C 0.96026(17) 0.0392(4) 0.4223(3)
H12_4 H 0.9720 0.0335 0.3959
C19_4 C 0.82207(15) 0.0595(3) 0.4059(2)
H13_4 H 0.8399 0.0929 0.4273
C20_4 C 0.79782(14) 0.1027(3) 0.3730(2)
H14_4 H 0.7986 0.1650 0.3714
C21_4 C 0.77127(14) 0.0545(3) 0.3409(2)
C24_4 C 0.74236(15) 0.0974(3) 0.3061(2)
C25_4 C 0.71068(14) 0.2219(3) 0.2780(2)
C26_4 C 0.69675(13) 0.0929(3) 0.2416(2)
C27_4 C 0.67375(14) 0.0441(3) 0.2022(2)
C28_4 C 0.65047(17) 0.0880(4) 0.1671(2)
H17_4 H 0.6497 0.1504 0.1661
C29_4 C 0.62802(17) 0.0380(4) 0.1328(2)
H18_4 H 0.6118 0.0684 0.1086
C32_4 C 0.70527(14) 0.3174(3) 0.28041(19)
C33_4 C 0.72311(15) 0.3662(3) 0.3166(2)
H21_4 H 0.7404 0.3391 0.3411
C34_4 C 0.71564(17) 0.4568(4) 0.3175(2)
H22_4 H 0.7285 0.4899 0.3429
C35_4 C 0.67539(17) 0.4514(4) 0.2489(2)
H23_4 H 0.6590 0.4809 0.2245
C36_4 C 0.68121(16) 0.3610(3) 0.2453(2)
H24_4 H 0.6688 0.3298 0.2190
I1_3 I 0.12622(2) 0.27557(3) 0.04650(2)
I2_3 I 0.03459(2) 0.33387(3) 0.13420(2)
N1_3 N 0.06273(11) 0.4760(3) 0.04346(17)
C1_3 C 0.03544(14) 0.5336(3) 0.0533(2)
H1_3 H 0.0226 0.5202 0.0782
C2_3 C 0.02535(16) 0.6089(4) 0.0301(2)
H2_3 H 0.0066 0.6480 0.0389
C5_3 C 0.07788(16) 0.4934(4) 0.0069(2)
I5_4 I 0.86120(3) 0.17348(4) 0.28800(3)
I6_4 I 0.75861(2) 0.21128(4) 0.17338(4)
Zn3_2 Zn 0.81981(3) 0.12971(4) 0.21129(3)
H4_3 H 0.4043 0.0480 0.0020
N13_2 N 0.85713(15) 0.1366(3) 0.1641(2)
N2_4 N 0.98960(11) 0.2305(3) 0.02122(16)
N3_4 N 0.96950(11) 0.1325(3) 0.07565(17)
N4_4 N 0.93744(11) 0.2701(3) 0.06012(17)
C3_4 C 0.95689(13) 0.3729(3) 0.0071(2)
C4_4 C 0.93053(15) 0.4323(4) 0.0193(2)
H3_4 H 0.9184 0.4222 0.0451
H4_4 H 0.9043 0.5480 0.0020
C6_4 C 0.96178(15) 0.2861(3) 0.0313(2)
C7_4 C 0.99191(14) 0.1557(3) 0.0464(2)
C8_4 C 0.94120(15) 0.1941(4) 0.0802(2)
C9_4 C 0.91285(14) 0.1701(4) 0.1090(2)
C10_4 C 0.91559(18) 0.0969(4) 0.1373(2)
H5_4 H 0.9367 0.0564 0.1384
C11_4 C 0.8870(2) 0.0842(4) 0.1640(3)
H6_4 H 0.8893 0.0342 0.1834
C12_4 C 0.8538(2) 0.2034(4) 0.1370(3)
H7_4 H 0.8319 0.2414 0.1367
C13_4 C 0.87987(16) 0.2230(4) 0.1087(3)
H8_4 H 0.8755 0.2724 0.0889
I1_4 I 0.37378(2) 0.22443(3) 0.95350(2)
I2_4 I 0.46541(2) 0.16613(3) 0.86580(2)
Zn1_3 Zn 0.41354(2) 0.12243(4) 0.91189(3)
N1_4 N 0.43727(11) 0.0240(3) 0.95654(17)
C5_4 C 0.42212(16) 0.0066(4) 0.9931(2)
N14_3 N 0.37237(12) 0.0483(3) 0.86852(17)
I3_4 I 0.12752(2) 0.23753(3) 0.55745(2)
I4_2 I 0.16724(2) 0.02617(3) 0.46428(2)
Zn2_4 Zn 0.14085(2) 0.08092(4) 0.53389(3)
N6_4 N 0.09012(12) 0.0090(3) 0.53492(18)
N7_4 N 0.17748(11) 0.0278(2) 0.58968(16)
C17_4 C 0.07357(18) 0.0104(4) 0.5710(3)
H11_4 H 0.0850 0.0479 0.5953
C22_4 C 0.22848(14) 0.0378(3) 0.6528(2)
H15_4 H 0.2466 0.0738 0.6724
C23_4 C 0.20289(15) 0.0738(3) 0.6193(2)
H16_4 H 0.2027 0.1360 0.6164
C30_4 C 0.34768(15) 0.0900(4) 0.8362(2)
H19_4 H 0.3458 0.1521 0.8383
C31_4 C 0.32441(18) 0.0479(4) 0.7994(2)
H20_4 H 0.3079 0.0804 0.7763
I3_5 I 0.62752(2) 0.26247(3) 0.05745(2)
Zn2_5 Zn 0.64085(2) 0.41908(4) 0.03389(3)
N2_5 N 0.48960(11) 0.7305(3) 0.02122(16)
N3_5 N 0.46950(11) 0.6325(3) 0.07565(17)
N4_5 N 0.43744(11) 0.7701(3) 0.06012(17)
N5_3 N 0.35713(15) 0.6366(3) 0.1641(2)
N6_5 N 0.59012(12) 0.4910(3) 0.03492(18)
N7_5 N 0.67748(11) 0.4722(2) 0.08968(16)
N8_5 N 0.76261(11) 0.6856(3) 0.19002(16)
N9_5 N 0.81136(11) 0.6789(3) 0.25657(15)
N10_5 N 0.77688(11) 0.5491(3) 0.22919(17)
N11_2 N 0.87237(12) 0.4517(3) 0.36852(17)
N12_5 N 0.80800(13) 0.9979(3) 0.21477(19)
C3_5 C 0.45689(13) 0.8729(3) 0.0071(2)
C4_5 C 0.43053(15) 0.9323(4) 0.0193(2)
H3_5 H 0.4184 0.9222 0.0451
C6_5 C 0.46178(15) 0.7861(3) 0.0313(2)
C7_5 C 0.49191(14) 0.6557(3) 0.0464(2)
C8_5 C 0.44120(15) 0.6941(4) 0.0802(2)
C9_5 C 0.41285(14) 0.6701(4) 0.1090(2)
C10_5 C 0.41559(18) 0.5969(4) 0.1373(2)
H5_5 H 0.4367 0.5564 0.1384
C11_5 C 0.3870(2) 0.5842(4) 0.1640(3)
H6_5 H 0.3893 0.5342 0.1834
C12_5 C 0.3538(2) 0.7034(4) 0.1370(3)
H7_5 H 0.3319 0.7414 0.1367
C13_5 C 0.37987(16) 0.7230(4) 0.1087(3)
H8_5 H 0.3755 0.7724 0.0889
C14_5 C 0.52540(18) 0.5969(4) 0.0418(3)
C15_5 C 0.54367(15) 0.5991(4) 0.0054(2)
C16_5 C 0.57615(16) 0.5456(3) 0.0016(2)
C17_5 C 0.57357(18) 0.4896(4) 0.0710(3)
H11_5 H 0.5850 0.4521 0.0953
C18_5 C 0.53974(17) 0.5392(4) 0.0777(3)
H12_5 H 0.5280 0.5335 0.1041
C19_5 C 0.67793(15) 0.5595(3) 0.0941(2)
H13_5 H 0.6601 0.5929 0.0727
C20_5 C 0.70218(14) 0.6027(3) 0.1270(2)
H14_5 H 0.7014 0.6650 0.1286
C21_5 C 0.72873(14) 0.5545(3) 0.1591(2)
C22_5 C 0.72848(14) 0.4622(3) 0.1528(2)
H15_5 H 0.7466 0.4262 0.1724
C23_5 C 0.70289(15) 0.4262(3) 0.1193(2)
H16_5 H 0.7027 0.3640 0.1164
C24_5 C 0.75764(15) 0.5974(3) 0.1939(2)
C25_5 C 0.78932(14) 0.7219(3) 0.2220(2)
C26_5 C 0.80325(13) 0.5929(3) 0.2584(2)
C27_5 C 0.82625(14) 0.5441(3) 0.2978(2)
C28_5 C 0.84953(17) 0.5880(4) 0.3329(2)
H17_5 H 0.8503 0.6504 0.3339
C29_5 C 0.87198(17) 0.5380(4) 0.3672(2)
H18_5 H 0.8882 0.5684 0.3914
C30_5 C 0.84768(15) 0.4100(4) 0.3362(2)
H19_5 H 0.8458 0.3479 0.3383
C31_5 C 0.82441(18) 0.4521(4) 0.2994(2)
H20_5 H 0.8079 0.4196 0.2763
C32_5 C 0.79473(14) 0.8174(3) 0.21959(19)
C33_5 C 0.77689(15) 0.8662(3) 0.1834(2)
H21_5 H 0.7596 0.8391 0.1589
C34_5 C 0.78436(17) 0.9568(4) 0.1825(2)
H22_5 H 0.7715 0.9899 0.1571
C35_5 C 0.82461(17) 0.9514(4) 0.2511(2)
H23_5 H 0.8410 0.9809 0.2755
C36_5 C 0.81879(16) 0.8610(3) 0.2547(2)
H24_5 H 0.8312 0.8298 0.2810
Zn4_2 Zn 0.91354(2) 0.37757(4) 0.41189(3)
Zn5_3 Zn 0.31981(3) 0.62971(4) 0.21129(3)
I5_5 I 0.36120(3) 0.67348(4) 0.28800(3)
I6_5 I 0.25861(2) 0.71128(4) 0.17338(4)
N8_6 N 0.26261(11) 0.1856(3) 0.19002(16)
N9_6 N 0.31136(11) 0.1789(3) 0.25657(15)
N10_6 N 0.27688(11) 0.0491(3) 0.22919(17)
N12_6 N 0.30800(13) 0.4979(3) 0.21477(19)
C14_6 C 0.02540(18) 0.0969(4) 0.0418(3)
C15_6 C 0.04367(15) 0.0991(4) 0.0054(2)
C16_6 C 0.07615(16) 0.0456(3) 0.0016(2)
C18_6 C 0.03974(17) 0.0392(4) 0.0777(3)
H12_6 H 0.0280 0.0335 0.1041
C19_6 C 0.17793(15) 0.0595(3) 0.0941(2)
H13_6 H 0.1601 0.0929 0.0727
C20_6 C 0.20218(14) 0.1027(3) 0.1270(2)
H14_6 H 0.2014 0.1650 0.1286
C21_6 C 0.22873(14) 0.0545(3) 0.1591(2)
C24_6 C 0.25764(15) 0.0974(3) 0.1939(2)
C25_6 C 0.28932(14) 0.2219(3) 0.2220(2)
C26_6 C 0.30325(13) 0.0929(3) 0.2584(2)
C27_6 C 0.32625(14) 0.0441(3) 0.2978(2)
C28_6 C 0.34953(17) 0.0880(4) 0.3329(2)
H17_6 H 0.3503 0.1504 0.3339
C29_6 C 0.37198(17) 0.0380(4) 0.3672(2)
H18_6 H 0.3882 0.0684 0.3914
C32_6 C 0.29473(14) 0.3174(3) 0.21959(19)
C33_6 C 0.27689(15) 0.3662(3) 0.1834(2)
H21_6 H 0.2596 0.3391 0.1589
C34_6 C 0.28436(17) 0.4568(4) 0.1825(2)
H22_6 H 0.2715 0.4899 0.1571
C35_6 C 0.32461(17) 0.4514(4) 0.2511(2)
H23_6 H 0.3410 0.4809 0.2755
C36_6 C 0.31879(16) 0.3610(3) 0.2547(2)
H24_6 H 0.3312 0.3298 0.2810
I3_6 I 0.12752(2) 0.76247(3) 0.05745(2)
Zn2_6 Zn 0.14085(2) 0.91908(4) 0.03389(3)
N6_6 N 0.09012(12) 0.9910(3) 0.03492(18)
N7_6 N 0.17748(11) 0.9722(2) 0.08968(16)
N11_3 N 0.37237(12) 0.9517(3) 0.36852(17)
C17_6 C 0.07357(18) 0.9896(4) 0.0710(3)
H11_6 H 0.0850 0.9521 0.0953
C22_6 C 0.22848(14) 0.9622(3) 0.1528(2)
H15_6 H 0.2466 0.9262 0.1724
C23_6 C 0.20289(15) 0.9262(3) 0.1193(2)
H16_6 H 0.2027 0.8640 0.1164
C30_6 C 0.34768(15) 0.9100(4) 0.3362(2)
H19_6 H 0.3458 0.8479 0.3383
C31_6 C 0.32441(18) 0.9521(4) 0.2994(2)
H20_6 H 0.3079 0.9196 0.2763
Zn4_3 Zn 0.41354(2) 0.87757(4) 0.41189(3)
I1_5 I 0.37378(2) 0.77557(3) 0.45350(2)
I2_5 I 0.46541(2) 0.83387(3) 0.36580(2)
I5_6 I 0.86120(3) 0.82652(4) 0.78800(3)
I6_6 I 0.75861(2) 0.78872(4) 0.67338(4)
Zn3_3 Zn 0.81981(3) 0.87029(4) 0.71129(3)
N1_5 N 0.43727(11) 0.9760(3) 0.45654(17)
C5_5 C 0.42212(16) 0.9934(4) 0.4931(2)
H4_5 H 0.4043 0.9520 0.5020
N13_3 N 0.85713(15) 0.8634(3) 0.6641(2)
I1_6 I 0.87378(2) 0.27557(3) 0.45350(2)
I2_6 I 0.96541(2) 0.33387(3) 0.36580(2)
N1_6 N 0.93727(11) 0.4760(3) 0.45654(17)
N2_6 N 0.98960(11) 0.7695(3) 0.52122(16)
N3_6 N 0.96950(11) 0.8675(3) 0.57565(17)
N4_6 N 0.93744(11) 0.7299(3) 0.56012(17)
C1_4 C 0.96456(14) 0.5336(3) 0.4467(2)
H1_4 H 0.9774 0.5202 0.4218
C2_4 C 0.97465(16) 0.6089(4) 0.4699(2)
H2_4 H 0.9934 0.6480 0.4611
C3_6 C 0.95689(13) 0.6271(3) 0.5071(2)
C4_6 C 0.93053(15) 0.5677(4) 0.5193(2)
H3_6 H 0.9184 0.5778 0.5451
C5_6 C 0.92212(16) 0.4934(4) 0.4931(2)
H4_6 H 0.9043 0.4520 0.5020
C6_6 C 0.96178(15) 0.7139(3) 0.5313(2)
C7_6 C 0.99191(14) 0.8443(3) 0.5464(2)
C8_6 C 0.94120(15) 0.8059(4) 0.5802(2)
C9_6 C 0.91285(14) 0.8299(4) 0.6090(2)
C10_6 C 0.91559(18) 0.9031(4) 0.6373(2)
H5_6 H 0.9367 0.9436 0.6384
C11_6 C 0.8870(2) 0.9158(4) 0.6640(3)
H6_6 H 0.8893 0.9658 0.6834
C12_6 C 0.8538(2) 0.7966(4) 0.6370(3)
H7_6 H 0.8319 0.7586 0.6367
C13_6 C 0.87987(16) 0.7770(4) 0.6087(3)
H8_6 H 0.8755 0.7276 0.5889
I4_3 I 0.66724(2) 0.47383(3) 0.96428(2)
C1_5 C 0.46456(14) 0.9664(3) 0.9467(2)
H1_5 H 0.4774 0.9798 0.9218
C2_5 C 0.47465(16) 0.8911(4) 0.9699(2)
H2_5 H 0.4934 0.8520 0.9611
H9_3 H 0.5342 0.6386 0.9812
H10_3 H 0.5880 0.5489 0.9751
I3_7 I 0.87248(2) 0.76247(3) 0.44255(2)
I4_4 I 0.83276(2) 0.97383(3) 0.53572(2)
Zn2_7 Zn 0.85915(2) 0.91908(4) 0.46611(3)
N6_7 N 0.90988(12) 0.9910(3) 0.46508(18)
N7_7 N 0.82252(11) 0.9722(2) 0.41032(16)
N11_4 N 0.62763(12) 0.9517(3) 0.13148(17)
C17_7 C 0.92643(18) 0.9896(4) 0.4290(3)
H11_7 H 0.9150 0.9521 0.4047
C22_7 C 0.77152(14) 0.9622(3) 0.3472(2)
H15_7 H 0.7534 0.9262 0.3276
C23_7 C 0.79711(15) 0.9262(3) 0.3807(2)
H16_7 H 0.7973 0.8640 0.3836
C30_7 C 0.65232(15) 0.9100(4) 0.1638(2)
H19_7 H 0.6542 0.8479 0.1617
C31_7 C 0.67559(18) 0.9521(4) 0.2006(2)
H20_7 H 0.6921 0.9196 0.2237
Zn4_4 Zn 0.58646(2) 0.87757(4) 0.08811(3)
I1_7 I 0.62622(2) 0.77557(3) 0.04650(2)
I2_7 I 0.53459(2) 0.83387(3) 0.13420(2)
N1_7 N 0.56273(11) 0.9760(3) 0.04346(17)
C5_7 C 0.57788(16) 0.9934(4) 0.0069(2)
H9_4 H 0.0342 0.1386 0.9812
H10_4 H 0.0880 0.0489 0.9751
I4_5 I 0.16724(2) 0.97383(3) 0.96428(2)
I1_8 I 0.87378(2) 0.72443(3) 0.95350(2)
I2_8 I 0.96541(2) 0.66613(3) 0.86580(2)
Zn1_4 Zn 0.91354(2) 0.62243(4) 0.91189(3)
N1_8 N 0.93727(11) 0.5240(3) 0.95654(17)
C1_6 C 0.96456(14) 0.4664(3) 0.9467(2)
H1_6 H 0.9774 0.4798 0.9218
C2_6 C 0.97465(16) 0.3911(4) 0.9699(2)
H2_6 H 0.9934 0.3520 0.9611
C5_8 C 0.92212(16) 0.5066(4) 0.9931(2)
N14_4 N 0.87237(12) 0.5483(3) 0.86852(17)
I3_8 I 0.62752(2) 0.73753(3) 0.55745(2)
I4_6 I 0.66724(2) 0.52617(3) 0.46428(2)
Zn2_8 Zn 0.64085(2) 0.58092(4) 0.53389(3)
N2_7 N 0.48960(11) 0.2695(3) 0.52122(16)
N3_7 N 0.46950(11) 0.3675(3) 0.57565(17)
N4_7 N 0.43744(11) 0.2299(3) 0.56012(17)
N5_4 N 0.35713(15) 0.3634(3) 0.6641(2)
N6_8 N 0.59012(12) 0.5090(3) 0.53492(18)
N7_8 N 0.67748(11) 0.5278(2) 0.58968(16)
N8_7 N 0.76261(11) 0.3144(3) 0.69002(16)
N9_7 N 0.81136(11) 0.3211(3) 0.75657(15)
N10_7 N 0.77688(11) 0.4509(3) 0.72919(17)
N12_7 N 0.80800(13) 0.0021(3) 0.71477(19)
C1_7 C 0.46456(14) 0.0336(3) 0.4467(2)
H1_7 H 0.4774 0.0202 0.4218
C2_7 C 0.47465(16) 0.1089(4) 0.4699(2)
H2_7 H 0.4934 0.1480 0.4611
C3_7 C 0.45689(13) 0.1271(3) 0.5071(2)
C4_7 C 0.43053(15) 0.0677(4) 0.5193(2)
H3_7 H 0.4184 0.0778 0.5451
C6_7 C 0.46178(15) 0.2139(3) 0.5313(2)
C7_7 C 0.49191(14) 0.3443(3) 0.5464(2)
C8_7 C 0.44120(15) 0.3059(4) 0.5802(2)
C9_7 C 0.41285(14) 0.3299(4) 0.6090(2)
C10_7 C 0.41559(18) 0.4031(4) 0.6373(2)
H5_7 H 0.4367 0.4436 0.6384
C11_7 C 0.3870(2) 0.4158(4) 0.6640(3)
H6_7 H 0.3893 0.4658 0.6834
C12_7 C 0.3538(2) 0.2966(4) 0.6370(3)
H7_7 H 0.3319 0.2586 0.6367
C13_7 C 0.37987(16) 0.2770(4) 0.6087(3)
H8_7 H 0.3755 0.2276 0.5889
C14_7 C 0.52540(18) 0.4031(4) 0.5418(3)
C15_7 C 0.54367(15) 0.4009(4) 0.5054(2)
H9_5 H 0.5342 0.3614 0.4812
C16_7 C 0.57615(16) 0.4544(3) 0.5016(2)
H10_5 H 0.5880 0.4511 0.4751
C17_8 C 0.57357(18) 0.5104(4) 0.5710(3)
H11_8 H 0.5850 0.5479 0.5953
C18_7 C 0.53974(17) 0.4608(4) 0.5777(3)
H12_7 H 0.5280 0.4665 0.6041
C19_7 C 0.67793(15) 0.4405(3) 0.5941(2)
H13_7 H 0.6601 0.4071 0.5727
C20_7 C 0.70218(14) 0.3973(3) 0.6270(2)
H14_7 H 0.7014 0.3350 0.6286
C21_7 C 0.72873(14) 0.4455(3) 0.6591(2)
C22_8 C 0.72848(14) 0.5378(3) 0.6528(2)
H15_8 H 0.7466 0.5738 0.6724
C23_8 C 0.70289(15) 0.5738(3) 0.6193(2)
H16_8 H 0.7027 0.6360 0.6164
C24_7 C 0.75764(15) 0.4026(3) 0.6939(2)
C25_7 C 0.78932(14) 0.2781(3) 0.7220(2)
C26_7 C 0.80325(13) 0.4071(3) 0.7584(2)
C27_7 C 0.82625(14) 0.4559(3) 0.7978(2)
C28_7 C 0.84953(17) 0.4120(4) 0.8329(2)
H17_7 H 0.8503 0.3496 0.8339
C29_7 C 0.87198(17) 0.4620(4) 0.8672(2)
H18_7 H 0.8882 0.4316 0.8914
C30_8 C 0.84768(15) 0.5900(4) 0.8362(2)
H19_8 H 0.8458 0.6521 0.8383
C31_8 C 0.82441(18) 0.5479(4) 0.7994(2)
H20_8 H 0.8079 0.5804 0.7763
C32_7 C 0.79473(14) 0.1826(3) 0.71959(19)
C33_7 C 0.77689(15) 0.1338(3) 0.6834(2)
H21_7 H 0.7596 0.1609 0.6589
C34_7 C 0.78436(17) 0.0432(4) 0.6825(2)
H22_7 H 0.7715 0.0101 0.6571
C35_7 C 0.82461(17) 0.0486(4) 0.7511(2)
H23_7 H 0.8410 0.0191 0.7755
C36_7 C 0.81879(16) 0.1390(3) 0.7547(2)
H24_7 H 0.8312 0.1702 0.7810
Zn5_4 Zn 0.31981(3) 0.37029(4) 0.71129(3)
I5_7 I 0.36120(3) 0.32652(4) 0.78800(3)
I6_7 I 0.25861(2) 0.28872(4) 0.67338(4)
N8_8 N 0.26261(11) 0.8144(3) 0.69002(16)
N9_8 N 0.31136(11) 0.8211(3) 0.75657(15)
N10_8 N 0.27688(11) 0.9509(3) 0.72919(17)
N12_8 N 0.30800(13) 0.5021(3) 0.71477(19)
C14_8 C 0.02540(18) 0.9031(4) 0.5418(3)
C15_8 C 0.04367(15) 0.9009(4) 0.5054(2)
H9_6 H 0.0342 0.8614 0.4812
C16_8 C 0.07615(16) 0.9544(3) 0.5016(2)
H10_6 H 0.0880 0.9511 0.4751
C18_8 C 0.03974(17) 0.9608(4) 0.5777(3)
H12_8 H 0.0280 0.9665 0.6041
C19_8 C 0.17793(15) 0.9405(3) 0.5941(2)
H13_8 H 0.1601 0.9071 0.5727
C20_8 C 0.20218(14) 0.8973(3) 0.6270(2)
H14_8 H 0.2014 0.8350 0.6286
C21_8 C 0.22873(14) 0.9455(3) 0.6591(2)
C24_8 C 0.25764(15) 0.9026(3) 0.6939(2)
C25_8 C 0.28932(14) 0.7781(3) 0.7220(2)
C26_8 C 0.30325(13) 0.9071(3) 0.7584(2)
C27_8 C 0.32625(14) 0.9559(3) 0.7978(2)
C28_8 C 0.34953(17) 0.9120(4) 0.8329(2)
H17_8 H 0.3503 0.8496 0.8339
C29_8 C 0.37198(17) 0.9620(4) 0.8672(2)
H18_8 H 0.3882 0.9316 0.8914
C32_8 C 0.29473(14) 0.6826(3) 0.71959(19)
C33_8 C 0.27689(15) 0.6338(3) 0.6834(2)
H21_8 H 0.2596 0.6609 0.6589
C34_8 C 0.28436(17) 0.5432(4) 0.6825(2)
H22_8 H 0.2715 0.5101 0.6571
C35_8 C 0.32461(17) 0.5486(4) 0.7511(2)
H23_8 H 0.3410 0.5191 0.7755
C36_8 C 0.31879(16) 0.6390(3) 0.7547(2)
H24_8 H 0.3312 0.6702 0.7810
I4_7 I 0.33276(2) 0.52617(3) 0.03572(2)
C1_8 C 0.53544(14) 0.0336(3) 0.0533(2)
H1_8 H 0.5226 0.0202 0.0782
C2_8 C 0.52535(16) 0.1089(4) 0.0301(2)
H2_8 H 0.5066 0.1480 0.0389
H9_7 H 0.4658 0.3614 0.0188
H10_7 H 0.4120 0.4511 0.0249
I5_8 I 0.13880(3) 0.82652(4) 0.71200(3)
I6_8 I 0.24139(2) 0.78872(4) 0.82662(4)
Zn3_4 Zn 0.18019(3) 0.87029(4) 0.78871(3)
H4_7 H 0.5957 0.9520 0.9980
N13_4 N 0.14287(15) 0.8634(3) 0.8359(2)
N2_8 N 0.01040(11) 0.7695(3) 0.97878(16)
N3_8 N 0.03050(11) 0.8675(3) 0.92435(17)
N4_8 N 0.06256(11) 0.7299(3) 0.93988(17)
C3_8 C 0.04311(13) 0.6271(3) 0.9929(2)
C4_8 C 0.06947(15) 0.5677(4) 0.9807(2)
H3_8 H 0.0816 0.5778 0.9549
H4_8 H 0.0957 0.4520 0.9980
C6_8 C 0.03822(15) 0.7139(3) 0.9687(2)
C7_8 C 0.00809(14) 0.8443(3) 0.9536(2)
C8_8 C 0.05880(15) 0.8059(4) 0.9198(2)
C9_8 C 0.08715(14) 0.8299(4) 0.8910(2)
C10_8 C 0.08441(18) 0.9031(4) 0.8627(2)
H5_8 H 0.0633 0.9436 0.8616
C11_8 C 0.1130(2) 0.9158(4) 0.8360(3)
H6_8 H 0.1107 0.9658 0.8166
C12_8 C 0.1462(2) 0.7966(4) 0.8630(3)
H7_8 H 0.1681 0.7586 0.8633
C13_8 C 0.12013(16) 0.7770(4) 0.8913(3)
H8_8 H 0.1245 0.7276 0.9111
I4_8 I 0.83276(2) 0.02617(3) 0.03572(2)
H9_8 H 0.9658 0.8614 0.0188
H10_8 H 0.9120 0.9511 0.0249
loop_
_geom_bond_atom_site_label_1
_geom_bond_atom_site_label_2
_geom_bond_site_symmetry_1
_geom_bond_site_symmetry_2
I1 Zn1 1_555 1_555
I2 Zn1 1_555 1_555
I5 Zn3 1_555 1_555
I6 Zn3 1_555 1_555
Zn1 N1 1_555 1_555
C5 N1 1_555 1_555
H4 C5 1_555 1_555
N13 Zn3 1_555 1_555
N14 Zn1 1_555 1_555
I1_2 Zn1_2 1_555 1_555
I2_2 Zn1_2 1_555 1_555
Zn1_2 N1_2 1_555 1_555
N1_2 C1 1_555 1_555
N2 C6 1_555 1_555
N3 C7 1_555 1_555
N4 C6 1_555 1_555
N13 C11 1_555 1_555
C1 H1 1_555 1_555
C2 C1 1_555 1_555
H2 C2 1_555 1_555
C3 C2 1_555 1_555
C4 C3 1_555 1_555
H3 C4 1_555 1_555
C5_2 N1_2 1_555 1_555
H4_2 C5_2 1_555 1_555
C6 C3 1_555 1_555
C7 N2 1_555 1_555
C8 N3 1_555 1_555
C9 C8 1_555 1_555
C10 C9 1_555 1_555
H5 C10 1_555 1_555
C11 C10 1_555 1_555
H6 C11 1_555 1_555
C12 N13 1_555 1_555
H7 C12 1_555 1_555
C13 C9 1_555 1_555
H8 C13 1_555 1_555
N14_2 Zn1_2 1_555 1_555
N4 C8 1_555 1_555
C4 C5_2 1_555 1_555
C12 C13 1_555 1_555
I3 Zn2 1_555 1_555
Zn2 N6 1_555 1_555
N2_2 C6_2 1_555 1_555
N3_2 C7_2 1_555 1_555
N4_2 C6_2 1_555 1_555
N5 C11_2 1_555 1_555
N6 C16 1_555 1_555
N7 Zn2 1_555 1_555
N8 C24 1_555 1_555
N9 C25 1_555 1_555
N10 C24 1_555 1_555
N14_2 C29 1_555 1_555
N12 C34 1_555 1_555
C4_2 C3_2 1_555 1_555
H3_2 C4_2 1_555 1_555
C6_2 C3_2 1_555 1_555
C7_2 N2_2 1_555 1_555
C8_2 N3_2 1_555 1_555
C9_2 C8_2 1_555 1_555
C10_2 C9_2 1_555 1_555
H5_2 C10_2 1_555 1_555
C11_2 C10_2 1_555 1_555
H6_2 C11_2 1_555 1_555
C12_2 N5 1_555 1_555
H7_2 C12_2 1_555 1_555
C13_2 C9_2 1_555 1_555
H8_2 C13_2 1_555 1_555
C14 C7_2 1_555 1_555
C15 C14 1_555 1_555
C16 C15 1_555 1_555
C17 N6 1_555 1_555
H11 C17 1_555 1_555
C18 C14 1_555 1_555
H12 C18 1_555 1_555
C19 N7 1_555 1_555
H13 C19 1_555 1_555
C20 C19 1_555 1_555
H14 C20 1_555 1_555
C21 C20 1_555 1_555
C22 C21 1_555 1_555
H15 C22 1_555 1_555
C23 N7 1_555 1_555
H16 C23 1_555 1_555
C24 C21 1_555 1_555
C25 N8 1_555 1_555
C26 N9 1_555 1_555
C27 C26 1_555 1_555
C28 C27 1_555 1_555
H17 C28 1_555 1_555
C29 C28 1_555 1_555
H18 C29 1_555 1_555
C30 N14_2 1_555 1_555
H19 C30 1_555 1_555
C31 C27 1_555 1_555
H20 C31 1_555 1_555
C32 C25 1_555 1_555
C33 C32 1_555 1_555
H21 C33 1_555 1_555
C34 C33 1_555 1_555
H22 C34 1_555 1_555
C35 N12 1_555 1_555
H23 C35 1_555 1_555
C36 C32 1_555 1_555
H24 C36 1_555 1_555
Zn5 N5 1_555 1_555
N4_2 C8_2 1_555 1_555
N10 C26 1_555 1_555
C12_2 C13_2 1_555 1_555
C17 C18 1_555 1_555
C22 C23 1_555 1_555
C30 C31 1_555 1_555
C35 C36 1_555 1_555
I3_2 Zn2_2 1_555 1_555
Zn2_2 N6_2 1_555 1_555
N7_2 Zn2_2 1_555 1_555
C17_2 N6_2 1_555 1_555
H11_2 C17_2 1_555 1_555
H15_2 C22_2 1_555 1_555
C23_2 N7_2 1_555 1_555
H16_2 C23_2 1_555 1_555
C30_2 N14 1_555 1_555
H19_2 C30_2 1_555 1_555
H20_2 C31_2 1_555 1_555
C22_2 C23_2 1_555 1_555
C30_2 C31_2 1_555 1_555
I5_2 Zn5 1_555 1_555
I6_2 Zn5 1_555 1_555
Zn5 N12_2 1_555 1_555
N8_2 C24_2 1_555 1_555
N9_2 C25_2 1_555 1_555
N10_2 C24_2 1_555 1_555
N12_2 C34_2 1_555 1_555
C15_2 C14_2 1_555 1_555
C16_2 C15_2 1_555 1_555
C18_2 C14_2 1_555 1_555
H12_2 C18_2 1_555 1_555
H13_2 C19_2 1_555 1_555
C20_2 C19_2 1_555 1_555
H14_2 C20_2 1_555 1_555
C21_2 C20_2 1_555 1_555
C24_2 C21_2 1_555 1_555
C25_2 N8_2 1_555 1_555
C26_2 N9_2 1_555 1_555
C27_2 C26_2 1_555 1_555
C28_2 C27_2 1_555 1_555
H17_2 C28_2 1_555 1_555
C29_2 C28_2 1_555 1_555
H18_2 C29_2 1_555 1_555
C32_2 C25_2 1_555 1_555
C33_2 C32_2 1_555 1_555
H21_2 C33_2 1_555 1_555
C34_2 C33_2 1_555 1_555
H22_2 C34_2 1_555 1_555
C35_2 N12_2 1_555 1_555
H23_2 C35_2 1_555 1_555
C36_2 C32_2 1_555 1_555
H24_2 C36_2 1_555 1_555
N10_2 C26_2 1_555 1_555
C35_2 C36_2 1_555 1_555
I3_3 Zn2_3 1_555 1_555
I4 Zn2_3 1_555 1_555
Zn2_3 N6_3 1_555 1_555
N2_3 C6_3 1_555 1_555
N3_3 C7_3 1_555 1_555
N4_3 C6_3 1_555 1_555
N5_2 C11_3 1_555 1_555
N6_3 C16_3 1_555 1_555
N7_3 Zn2_3 1_555 1_555
N8_3 C24_3 1_555 1_555
N9_3 C25_3 1_555 1_555
N10_3 C24_3 1_555 1_555
N11 C29_3 1_555 1_555
N12_3 C34_3 1_555 1_555
C1_2 H1_2 1_555 1_555
C2_2 C1_2 1_555 1_555
H2_2 C2_2 1_555 1_555
C3_3 C2_2 1_555 1_555
C4_3 C3_3 1_555 1_555
H3_3 C4_3 1_555 1_555
C6_3 C3_3 1_555 1_555
C7_3 N2_3 1_555 1_555
C8_3 N3_3 1_555 1_555
C9_3 C8_3 1_555 1_555
C10_3 C9_3 1_555 1_555
H5_3 C10_3 1_555 1_555
C11_3 C10_3 1_555 1_555
H6_3 C11_3 1_555 1_555
C12_3 N5_2 1_555 1_555
H7_3 C12_3 1_555 1_555
C13_3 C9_3 1_555 1_555
H8_3 C13_3 1_555 1_555
C14_3 C7_3 1_555 1_555
C15_3 C14_3 1_555 1_555
H9 C15_3 1_555 1_555
C16_3 C15_3 1_555 1_555
H10 C16_3 1_555 1_555
C17_3 N6_3 1_555 1_555
H11_3 C17_3 1_555 1_555
C18_3 C14_3 1_555 1_555
H12_3 C18_3 1_555 1_555
C19_3 N7_3 1_555 1_555
H13_3 C19_3 1_555 1_555
C20_3 C19_3 1_555 1_555
H14_3 C20_3 1_555 1_555
C21_3 C20_3 1_555 1_555
C22_3 C21_3 1_555 1_555
H15_3 C22_3 1_555 1_555
C23_3 N7_3 1_555 1_555
H16_3 C23_3 1_555 1_555
C24_3 C21_3 1_555 1_555
C25_3 N8_3 1_555 1_555
C26_3 N9_3 1_555 1_555
C27_3 C26_3 1_555 1_555
C28_3 C27_3 1_555 1_555
H17_3 C28_3 1_555 1_555
C29_3 C28_3 1_555 1_555
H18_3 C29_3 1_555 1_555
C30_3 N11 1_555 1_555
H19_3 C30_3 1_555 1_555
C31_3 C27_3 1_555 1_555
H20_3 C31_3 1_555 1_555
C32_3 C25_3 1_555 1_555
C33_3 C32_3 1_555 1_555
H21_3 C33_3 1_555 1_555
C34_3 C33_3 1_555 1_555
H22_3 C34_3 1_555 1_555
C35_3 N12_3 1_555 1_555
H23_3 C35_3 1_555 1_555
C36_3 C32_3 1_555 1_555
H24_3 C36_3 1_555 1_555
Zn4 N11 1_555 1_555
Zn5_2 N5_2 1_555 1_555
N4_3 C8_3 1_555 1_555
N10_3 C26_3 1_555 1_555
C12_3 C13_3 1_555 1_555
C17_3 C18_3 1_555 1_555
C22_3 C23_3 1_555 1_555
C30_3 C31_3 1_555 1_555
C35_3 C36_3 1_555 1_555
I5_3 Zn5_2 1_555 1_555
I6_3 Zn5_2 1_555 1_555
Zn5_2 N12_4 1_555 1_555
N8_4 C24_4 1_555 1_555
N9_4 C25_4 1_555 1_555
N10_4 C24_4 1_555 1_555
N12_4 C34_4 1_555 1_555
C15_4 C14_4 1_555 1_555
H9_2 C15_4 1_555 1_555
C16_4 C15_4 1_555 1_555
H10_2 C16_4 1_555 1_555
C18_4 C14_4 1_555 1_555
H12_4 C18_4 1_555 1_555
H13_4 C19_4 1_555 1_555
C20_4 C19_4 1_555 1_555
H14_4 C20_4 1_555 1_555
C21_4 C20_4 1_555 1_555
C24_4 C21_4 1_555 1_555
C25_4 N8_4 1_555 1_555
C26_4 N9_4 1_555 1_555
C27_4 C26_4 1_555 1_555
C28_4 C27_4 1_555 1_555
H17_4 C28_4 1_555 1_555
C29_4 C28_4 1_555 1_555
H18_4 C29_4 1_555 1_555
C32_4 C25_4 1_555 1_555
C33_4 C32_4 1_555 1_555
H21_4 C33_4 1_555 1_555
C34_4 C33_4 1_555 1_555
H22_4 C34_4 1_555 1_555
C35_4 N12_4 1_555 1_555
H23_4 C35_4 1_555 1_555
C36_4 C32_4 1_555 1_555
H24_4 C36_4 1_555 1_555
N10_4 C26_4 1_555 1_555
C35_4 C36_4 1_555 1_555
I1_3 Zn4 1_555 1_555
I2_3 Zn4 1_555 1_555
Zn4 N1_3 1_555 1_555
N1_3 C1_3 1_555 1_555
C1_3 H1_3 1_555 1_555
C2_3 C1_3 1_555 1_555
H2_3 C2_3 1_555 1_555
C5_3 N1_3 1_555 1_555
I5_4 Zn3_2 1_555 1_555
I6_4 Zn3_2 1_555 1_555
N13_2 Zn3_2 1_555 1_555
N2_4 C6_4 1_555 1_555
N3_4 C7_4 1_555 1_555
N4_4 C6_4 1_555 1_555
N13_2 C11_4 1_555 1_555
C4_4 C3_4 1_555 1_555
H3_4 C4_4 1_555 1_555
C6_4 C3_4 1_555 1_555
C7_4 N2_4 1_555 1_555
C8_4 N3_4 1_555 1_555
C9_4 C8_4 1_555 1_555
C10_4 C9_4 1_555 1_555
H5_4 C10_4 1_555 1_555
C11_4 C10_4 1_555 1_555
H6_4 C11_4 1_555 1_555
C12_4 N13_2 1_555 1_555
H7_4 C12_4 1_555 1_555
C13_4 C9_4 1_555 1_555
H8_4 C13_4 1_555 1_555
N4_4 C8_4 1_555 1_555
C12_4 C13_4 1_555 1_555
I1_4 Zn1_3 1_555 1_555
I2_4 Zn1_3 1_555 1_555
Zn1_3 N1_4 1_555 1_555
C5_4 N1_4 1_555 1_555
N14_3 Zn1_3 1_555 1_555
I3_4 Zn2_4 1_555 1_555
I4_2 Zn2_4 1_555 1_555
Zn2_4 N6_4 1_555 1_555
N7_4 Zn2_4 1_555 1_555
C17_4 N6_4 1_555 1_555
H11_4 C17_4 1_555 1_555
H15_4 C22_4 1_555 1_555
C23_4 N7_4 1_555 1_555
H16_4 C23_4 1_555 1_555
C30_4 N14_3 1_555 1_555
H19_4 C30_4 1_555 1_555
H20_4 C31_4 1_555 1_555
C22_4 C23_4 1_555 1_555
C30_4 C31_4 1_555 1_555
I3_5 Zn2_5 1_555 1_555
Zn2_5 N6_5 1_555 1_555
N2_5 C6_5 1_555 1_555
N3_5 C7_5 1_555 1_555
N4_5 C6_5 1_555 1_555
N5_3 C11_5 1_555 1_555
N6_5 C16_5 1_555 1_555
N7_5 Zn2_5 1_555 1_555
N8_5 C24_5 1_555 1_555
N9_5 C25_5 1_555 1_555
N10_5 C24_5 1_555 1_555
N11_2 C29_5 1_555 1_555
N12_5 C34_5 1_555 1_555
C4_5 C3_5 1_555 1_555
H3_5 C4_5 1_555 1_555
C6_5 C3_5 1_555 1_555
C7_5 N2_5 1_555 1_555
C8_5 N3_5 1_555 1_555
C9_5 C8_5 1_555 1_555
C10_5 C9_5 1_555 1_555
H5_5 C10_5 1_555 1_555
C11_5 C10_5 1_555 1_555
H6_5 C11_5 1_555 1_555
C12_5 N5_3 1_555 1_555
H7_5 C12_5 1_555 1_555
C13_5 C9_5 1_555 1_555
H8_5 C13_5 1_555 1_555
C14_5 C7_5 1_555 1_555
C15_5 C14_5 1_555 1_555
C16_5 C15_5 1_555 1_555
C17_5 N6_5 1_555 1_555
H11_5 C17_5 1_555 1_555
C18_5 C14_5 1_555 1_555
H12_5 C18_5 1_555 1_555
C19_5 N7_5 1_555 1_555
H13_5 C19_5 1_555 1_555
C20_5 C19_5 1_555 1_555
H14_5 C20_5 1_555 1_555
C21_5 C20_5 1_555 1_555
C22_5 C21_5 1_555 1_555
H15_5 C22_5 1_555 1_555
C23_5 N7_5 1_555 1_555
H16_5 C23_5 1_555 1_555
C24_5 C21_5 1_555 1_555
C25_5 N8_5 1_555 1_555
C26_5 N9_5 1_555 1_555
C27_5 C26_5 1_555 1_555
C28_5 C27_5 1_555 1_555
H17_5 C28_5 1_555 1_555
C29_5 C28_5 1_555 1_555
H18_5 C29_5 1_555 1_555
C30_5 N11_2 1_555 1_555
H19_5 C30_5 1_555 1_555
C31_5 C27_5 1_555 1_555
H20_5 C31_5 1_555 1_555
C32_5 C25_5 1_555 1_555
C33_5 C32_5 1_555 1_555
H21_5 C33_5 1_555 1_555
C34_5 C33_5 1_555 1_555
H22_5 C34_5 1_555 1_555
C35_5 N12_5 1_555 1_555
H23_5 C35_5 1_555 1_555
C36_5 C32_5 1_555 1_555
H24_5 C36_5 1_555 1_555
Zn4_2 N11_2 1_555 1_555
Zn5_3 N5_3 1_555 1_555
N4_5 C8_5 1_555 1_555
N10_5 C26_5 1_555 1_555
C12_5 C13_5 1_555 1_555
C17_5 C18_5 1_555 1_555
C22_5 C23_5 1_555 1_555
C30_5 C31_5 1_555 1_555
C35_5 C36_5 1_555 1_555
I5_5 Zn5_3 1_555 1_555
I6_5 Zn5_3 1_555 1_555
Zn5_3 N12_6 1_555 1_555
N8_6 C24_6 1_555 1_555
N9_6 C25_6 1_555 1_555
N10_6 C24_6 1_555 1_555
N12_6 C34_6 1_555 1_555
C15_6 C14_6 1_555 1_555
C16_6 C15_6 1_555 1_555
C18_6 C14_6 1_555 1_555
H12_6 C18_6 1_555 1_555
H13_6 C19_6 1_555 1_555
C20_6 C19_6 1_555 1_555
H14_6 C20_6 1_555 1_555
C21_6 C20_6 1_555 1_555
C24_6 C21_6 1_555 1_555
C25_6 N8_6 1_555 1_555
C26_6 N9_6 1_555 1_555
C27_6 C26_6 1_555 1_555
C28_6 C27_6 1_555 1_555
H17_6 C28_6 1_555 1_555
C29_6 C28_6 1_555 1_555
H18_6 C29_6 1_555 1_555
C32_6 C25_6 1_555 1_555
C33_6 C32_6 1_555 1_555
H21_6 C33_6 1_555 1_555
C34_6 C33_6 1_555 1_555
H22_6 C34_6 1_555 1_555
C35_6 N12_6 1_555 1_555
H23_6 C35_6 1_555 1_555
C36_6 C32_6 1_555 1_555
H24_6 C36_6 1_555 1_555
N10_6 C26_6 1_555 1_555
C35_6 C36_6 1_555 1_555
I3_6 Zn2_6 1_555 1_555
Zn2_6 N6_6 1_555 1_555
N7_6 Zn2_6 1_555 1_555
C17_6 N6_6 1_555 1_555
H11_6 C17_6 1_555 1_555
H15_6 C22_6 1_555 1_555
C23_6 N7_6 1_555 1_555
H16_6 C23_6 1_555 1_555
C30_6 N11_3 1_555 1_555
H19_6 C30_6 1_555 1_555
H20_6 C31_6 1_555 1_555
Zn4_3 N11_3 1_555 1_555
C22_6 C23_6 1_555 1_555
C30_6 C31_6 1_555 1_555
I1_5 Zn4_3 1_555 1_555
I2_5 Zn4_3 1_555 1_555
I5_6 Zn3_3 1_555 1_555
I6_6 Zn3_3 1_555 1_555
Zn4_3 N1_5 1_555 1_555
C5_5 N1_5 1_555 1_555
H4_5 C5_5 1_555 1_555
N13_3 Zn3_3 1_555 1_555
I1_6 Zn4_2 1_555 1_555
I2_6 Zn4_2 1_555 1_555
Zn4_2 N1_6 1_555 1_555
N1_6 C1_4 1_555 1_555
N2_6 C6_6 1_555 1_555
N3_6 C7_6 1_555 1_555
N4_6 C6_6 1_555 1_555
N13_3 C11_6 1_555 1_555
C1_4 H1_4 1_555 1_555
C2_4 C1_4 1_555 1_555
H2_4 C2_4 1_555 1_555
C3_6 C2_4 1_555 1_555
C4_6 C3_6 1_555 1_555
H3_6 C4_6 1_555 1_555
C5_6 N1_6 1_555 1_555
H4_6 C5_6 1_555 1_555
C6_6 C3_6 1_555 1_555
C7_6 N2_6 1_555 1_555
C8_6 N3_6 1_555 1_555
C9_6 C8_6 1_555 1_555
C10_6 C9_6 1_555 1_555
H5_6 C10_6 1_555 1_555
C11_6 C10_6 1_555 1_555
H6_6 C11_6 1_555 1_555
C12_6 N13_3 1_555 1_555
H7_6 C12_6 1_555 1_555
C13_6 C9_6 1_555 1_555
H8_6 C13_6 1_555 1_555
N4_6 C8_6 1_555 1_555
C4_6 C5_6 1_555 1_555
C12_6 C13_6 1_555 1_555
C1_5 H1_5 1_555 1_555
C2_5 C1_5 1_555 1_555
H2_5 C2_5 1_555 1_555
I3_7 Zn2_7 1_555 1_555
I4_4 Zn2_7 1_555 1_555
Zn2_7 N6_7 1_555 1_555
N7_7 Zn2_7 1_555 1_555
C17_7 N6_7 1_555 1_555
H11_7 C17_7 1_555 1_555
H15_7 C22_7 1_555 1_555
C23_7 N7_7 1_555 1_555
H16_7 C23_7 1_555 1_555
C30_7 N11_4 1_555 1_555
H19_7 C30_7 1_555 1_555
H20_7 C31_7 1_555 1_555
Zn4_4 N11_4 1_555 1_555
C22_7 C23_7 1_555 1_555
C30_7 C31_7 1_555 1_555
I1_7 Zn4_4 1_555 1_555
I2_7 Zn4_4 1_555 1_555
Zn4_4 N1_7 1_555 1_555
C5_7 N1_7 1_555 1_555
I1_8 Zn1_4 1_555 1_555
I2_8 Zn1_4 1_555 1_555
Zn1_4 N1_8 1_555 1_555
N1_8 C1_6 1_555 1_555
C1_6 H1_6 1_555 1_555
C2_6 C1_6 1_555 1_555
H2_6 C2_6 1_555 1_555
C5_8 N1_8 1_555 1_555
N14_4 Zn1_4 1_555 1_555
I3_8 Zn2_8 1_555 1_555
I4_6 Zn2_8 1_555 1_555
Zn2_8 N6_8 1_555 1_555
N2_7 C6_7 1_555 1_555
N3_7 C7_7 1_555 1_555
N4_7 C6_7 1_555 1_555
N5_4 C11_7 1_555 1_555
N6_8 C16_7 1_555 1_555
N7_8 Zn2_8 1_555 1_555
N8_7 C24_7 1_555 1_555
N9_7 C25_7 1_555 1_555
N10_7 C24_7 1_555 1_555
N14_4 C29_7 1_555 1_555
N12_7 C34_7 1_555 1_555
C1_7 H1_7 1_555 1_555
C2_7 C1_7 1_555 1_555
H2_7 C2_7 1_555 1_555
C3_7 C2_7 1_555 1_555
C4_7 C3_7 1_555 1_555
H3_7 C4_7 1_555 1_555
C6_7 C3_7 1_555 1_555
C7_7 N2_7 1_555 1_555
C8_7 N3_7 1_555 1_555
C9_7 C8_7 1_555 1_555
C10_7 C9_7 1_555 1_555
H5_7 C10_7 1_555 1_555
C11_7 C10_7 1_555 1_555
H6_7 C11_7 1_555 1_555
C12_7 N5_4 1_555 1_555
H7_7 C12_7 1_555 1_555
C13_7 C9_7 1_555 1_555
H8_7 C13_7 1_555 1_555
C14_7 C7_7 1_555 1_555
C15_7 C14_7 1_555 1_555
H9_5 C15_7 1_555 1_555
C16_7 C15_7 1_555 1_555
H10_5 C16_7 1_555 1_555
C17_8 N6_8 1_555 1_555
H11_8 C17_8 1_555 1_555
C18_7 C14_7 1_555 1_555
H12_7 C18_7 1_555 1_555
C19_7 N7_8 1_555 1_555
H13_7 C19_7 1_555 1_555
C20_7 C19_7 1_555 1_555
H14_7 C20_7 1_555 1_555
C21_7 C20_7 1_555 1_555
C22_8 C21_7 1_555 1_555
H15_8 C22_8 1_555 1_555
C23_8 N7_8 1_555 1_555
H16_8 C23_8 1_555 1_555
C24_7 C21_7 1_555 1_555
C25_7 N8_7 1_555 1_555
C26_7 N9_7 1_555 1_555
C27_7 C26_7 1_555 1_555
C28_7 C27_7 1_555 1_555
H17_7 C28_7 1_555 1_555
C29_7 C28_7 1_555 1_555
H18_7 C29_7 1_555 1_555
C30_8 N14_4 1_555 1_555
H19_8 C30_8 1_555 1_555
C31_8 C27_7 1_555 1_555
H20_8 C31_8 1_555 1_555
C32_7 C25_7 1_555 1_555
C33_7 C32_7 1_555 1_555
H21_7 C33_7 1_555 1_555
C34_7 C33_7 1_555 1_555
H22_7 C34_7 1_555 1_555
C35_7 N12_7 1_555 1_555
H23_7 C35_7 1_555 1_555
C36_7 C32_7 1_555 1_555
H24_7 C36_7 1_555 1_555
Zn5_4 N5_4 1_555 1_555
N4_7 C8_7 1_555 1_555
N10_7 C26_7 1_555 1_555
C12_7 C13_7 1_555 1_555
C17_8 C18_7 1_555 1_555
C22_8 C23_8 1_555 1_555
C30_8 C31_8 1_555 1_555
C35_7 C36_7 1_555 1_555
I5_7 Zn5_4 1_555 1_555
I6_7 Zn5_4 1_555 1_555
Zn5_4 N12_8 1_555 1_555
N8_8 C24_8 1_555 1_555
N9_8 C25_8 1_555 1_555
N10_8 C24_8 1_555 1_555
N12_8 C34_8 1_555 1_555
C15_8 C14_8 1_555 1_555
H9_6 C15_8 1_555 1_555
C16_8 C15_8 1_555 1_555
H10_6 C16_8 1_555 1_555
C18_8 C14_8 1_555 1_555
H12_8 C18_8 1_555 1_555
H13_8 C19_8 1_555 1_555
C20_8 C19_8 1_555 1_555
H14_8 C20_8 1_555 1_555
C21_8 C20_8 1_555 1_555
C24_8 C21_8 1_555 1_555
C25_8 N8_8 1_555 1_555
C26_8 N9_8 1_555 1_555
C27_8 C26_8 1_555 1_555
C28_8 C27_8 1_555 1_555
H17_8 C28_8 1_555 1_555
C29_8 C28_8 1_555 1_555
H18_8 C29_8 1_555 1_555
C32_8 C25_8 1_555 1_555
C33_8 C32_8 1_555 1_555
H21_8 C33_8 1_555 1_555
C34_8 C33_8 1_555 1_555
H22_8 C34_8 1_555 1_555
C35_8 N12_8 1_555 1_555
H23_8 C35_8 1_555 1_555
C36_8 C32_8 1_555 1_555
H24_8 C36_8 1_555 1_555
N10_8 C26_8 1_555 1_555
C35_8 C36_8 1_555 1_555
C1_8 H1_8 1_555 1_555
C2_8 C1_8 1_555 1_555
H2_8 C2_8 1_555 1_555
I5_8 Zn3_4 1_555 1_555
I6_8 Zn3_4 1_555 1_555
N13_4 Zn3_4 1_555 1_555
N2_8 C6_8 1_555 1_555
N3_8 C7_8 1_555 1_555
N4_8 C6_8 1_555 1_555
N13_4 C11_8 1_555 1_555
C4_8 C3_8 1_555 1_555
H3_8 C4_8 1_555 1_555
C6_8 C3_8 1_555 1_555
C7_8 N2_8 1_555 1_555
C8_8 N3_8 1_555 1_555
C9_8 C8_8 1_555 1_555
C10_8 C9_8 1_555 1_555
H5_8 C10_8 1_555 1_555
C11_8 C10_8 1_555 1_555
H6_8 C11_8 1_555 1_555
C12_8 N13_4 1_555 1_555
H7_8 C12_8 1_555 1_555
C13_8 C9_8 1_555 1_555
H8_8 C13_8 1_555 1_555
N4_8 C8_8 1_555 1_555
C12_8 C13_8 1_555 1_555

#END
