
###############################################################################
#
# This file contains modified crystal structure data generated from the
# MOF subset of the Cambridge Structural Database (CSD) v543 
# hosted by the Cambridge Crystallographic Data Centre (CCDC).
#
# This work is licensed under the Creative Commons
# Attribution-NonCommercial-ShareAlike 4.0 International License.
# To view a copy of this license, visit
# http://creativecommons.org/licenses/by-nc-sa/4.0/
# or send a letter to
# Creative Commons, PO Box 1866, Mountain View, CA 94042, USA.
#
# CIF created using the CSD Python API on 29 September 2022
# The structure has been converted into the P1 space group
# The structure has a 3D framework
# The original CSD entry GARLIX is in the monoclinic crystal system
# The framework has been calculated to contain at least 10.0% void space
# The void calculation uses a probe of radius 1.32A, grid spacing 0.4
#
###############################################################################

data_GARLIX
_chemical_formula_moiety         '(C112 H96 N8 Nd4 O32)n'
_symmetry_cell_setting           triclinic
_symmetry_space_group_name_H-M   'P 1'
_symmetry_Int_Tables_number      1
_space_group_name_Hall           'P 1'
loop_
_symmetry_equiv_pos_site_id
_symmetry_equiv_pos_as_xyz
1 x,y,z
_cell_length_a                   15.838(5)
_cell_length_b                   10.548(5)
_cell_length_c                   21.074(5)
_cell_angle_alpha                90
_cell_angle_beta                 107.247(5)
_cell_angle_gamma                90
_cell_volume                     3362.3
loop_
_atom_site_label
_atom_site_type_symbol
_atom_site_fract_x
_atom_site_fract_y
_atom_site_fract_z
Nd6 Nd 0.399195(17) 0.91962(3) 0.046673(13)
O8 O 0.2392(3) 0.8642(5) 0.9896(2)
O9 O 0.1941(4) 0.9887(6) 0.9007(3)
C16 C 0.1038(4) 0.8182(6) 0.9094(3)
C18 C 0.0407(5) 0.8548(7) 0.8516(4)
H10 H 0.0497 0.9269 0.8290
C21 C 0.1844(4) 0.8928(7) 0.9372(3)
C24 C 0.0136(5) 0.6396(8) 0.9168(4)
H14 H 0.0051 0.5663 0.9387
C25 C 0.0898(4) 0.7081(8) 0.9413(3)
H15 H 0.1325 0.6809 0.9795
O5 O 0.6070(3) 0.0651(4) 0.8369(2)
Nd2 Nd 0.399195(17) 0.08038(3) 0.546673(13)
Nd3 Nd 0.600805(17) 0.08038(3) 0.953327(13)
O1 O 0.5046(3) 0.9220(4) 0.5930(2)
O2 O 0.6543(3) 0.0873(4) 0.5386(2)
O3 O 0.6095(3) 0.8279(4) 0.56030(19)
O4 O 0.5417(3) 0.1717(5) 0.5650(2)
O6 O 0.6895(3) 0.9291(4) 0.9064(2)
C1 C 0.5773(4) 0.8661(5) 0.6043(3)
O7 O 0.3813(4) 0.2995(4) 0.5751(3)
C2 C 0.7486(4) 0.7271(5) 0.7542(3)
C3 C 0.6305(4) 0.8428(5) 0.6758(3)
N1 N 0.8119(3) 0.6319(5) 0.7672(2)
C4 C 0.6968(4) 0.7511(6) 0.6906(3)
H1 H 0.7064 0.7044 0.6560
C5 C 0.3831(9) 0.4111(8) 0.5641(6)
C6 C 0.6665(4) 0.8904(6) 0.7915(3)
C7 C 0.6141(4) 0.9127(6) 0.7267(3)
H2 H 0.5693 0.9730 0.7177
C8 C 0.8648(4) 0.5999(6) 0.8342(3)
H3 H 0.8809 0.5111 0.8353
H4 H 0.8291 0.6114 0.8640
C9 C 0.7064(4) 0.4322(6) 0.6912(3)
H5 H 0.6885 0.4756 0.7233
C10 C 0.7834(4) 0.4646(6) 0.6790(3)
C11 C 0.6799(4) 0.2685(5) 0.6083(3)
C12 C 0.6212(4) 0.1684(6) 0.5680(3)
C13 C 0.9642(4) 0.7843(7) 0.8273(4)
H6 H 0.9225 0.8097 0.7881
C14 C 0.7322(4) 0.7983(6) 0.8050(3)
H7 H 0.7658 0.7839 0.8488
C15 C 0.9483(4) 0.6780(6) 0.8594(3)
C17 C 0.8407(4) 0.5754(6) 0.7142(3)
H8 H 0.9010 0.5459 0.7325
H9 H 0.8406 0.6403 0.6816
N2 N 0.3956(6) 0.5058(7) 0.5985(4)
C19 C 0.8109(5) 0.3956(7) 0.6331(4)
H11 H 0.8648 0.4150 0.6261
C20 C 0.6539(4) 0.9657(6) 0.8484(3)
C22 C 0.6545(4) 0.3341(6) 0.6557(3)
H12 H 0.6020 0.3129 0.6643
C23 C 0.7605(5) 0.2991(7) 0.5975(4)
H13 H 0.7798 0.2542 0.5665
C26 C 0.3938(14) 0.6379(10) 0.5844(7)
H16 H 0.4090 0.6848 0.6253
H17 H 0.3356 0.6616 0.5577
H18 H 0.4357 0.6565 0.5608
C27 C 0.4052(17) 0.4784(15) 0.6664(7)
H19 H 0.4159 0.5556 0.6917
H20 H 0.4540 0.4216 0.6833
H21 H 0.3520 0.4395 0.6701
C28 C 0.4216(13) 0.4500(17) 0.5057(8)
H22 H 0.4193 0.5406 0.5007
H23 H 0.3870 0.4113 0.4651
H24 H 0.4818 0.4220 0.5158
Nd5 Nd 0.600805(17) 0.91962(3) 0.453327(13)
O12 O 0.3905(3) 0.1721(4) 0.43970(19)
O13 O 0.3930(3) 0.0651(4) 0.6631(2)
O15 O 0.2392(3) 0.1358(5) 0.4896(2)
O11 O 0.3457(3) 0.9127(4) 0.4614(2)
O14 O 0.3105(3) 0.9291(4) 0.5936(2)
H23_2 H 0.6130 0.4113 0.0349
O12_2 O 0.6095(3) 0.1721(4) 0.06030(19)
O15_2 O 0.7608(3) 0.1358(5) 0.0104(2)
O1_2 O 0.4954(3) 0.9220(4) 0.9070(2)
O2_2 O 0.3457(3) 0.0873(4) 0.9614(2)
O3_2 O 0.3905(3) 0.8279(4) 0.93970(19)
O4_2 O 0.4583(3) 0.1717(5) 0.9350(2)
C1_2 C 0.4227(4) 0.8661(5) 0.8957(3)
O7_2 O 0.6187(4) 0.2995(4) 0.9249(3)
C2_2 C 0.2514(4) 0.7271(5) 0.7458(3)
C3_2 C 0.3695(4) 0.8428(5) 0.8242(3)
N1_2 N 0.1881(3) 0.6319(5) 0.7328(2)
C4_2 C 0.3032(4) 0.7511(6) 0.8094(3)
H1_2 H 0.2936 0.7044 0.8440
C5_2 C 0.6169(9) 0.4111(8) 0.9359(6)
C6_2 C 0.3335(4) 0.8904(6) 0.7085(3)
C7_2 C 0.3859(4) 0.9127(6) 0.7733(3)
H2_2 H 0.4307 0.9730 0.7823
C8_2 C 0.1352(4) 0.5999(6) 0.6658(3)
H3_2 H 0.1191 0.5111 0.6647
H4_2 H 0.1709 0.6114 0.6360
C9_2 C 0.2936(4) 0.4322(6) 0.8088(3)
H5_2 H 0.3115 0.4756 0.7767
C10_2 C 0.2166(4) 0.4646(6) 0.8210(3)
C11_2 C 0.3201(4) 0.2685(5) 0.8917(3)
C12_2 C 0.3788(4) 0.1684(6) 0.9320(3)
C13_2 C 0.0358(4) 0.7843(7) 0.6727(4)
H6_2 H 0.0775 0.8097 0.7119
C14_2 C 0.2678(4) 0.7983(6) 0.6950(3)
H7_2 H 0.2342 0.7839 0.6512
C15_2 C 0.0517(4) 0.6780(6) 0.6406(3)
C17_2 C 0.1593(4) 0.5754(6) 0.7858(3)
H8_2 H 0.0990 0.5459 0.7675
H9_2 H 0.1594 0.6403 0.8184
N2_2 N 0.6044(6) 0.5058(7) 0.9015(4)
C19_2 C 0.1891(5) 0.3956(7) 0.8669(4)
H11_2 H 0.1352 0.4150 0.8739
C20_2 C 0.3461(4) 0.9657(6) 0.6516(3)
C22_2 C 0.3455(4) 0.3341(6) 0.8443(3)
H12_2 H 0.3980 0.3129 0.8357
C23_2 C 0.2395(5) 0.2991(7) 0.9025(4)
H13_2 H 0.2202 0.2542 0.9335
C26_2 C 0.6062(14) 0.6379(10) 0.9156(7)
H16_2 H 0.5910 0.6848 0.8747
H17_2 H 0.6644 0.6616 0.9423
H18_2 H 0.5643 0.6565 0.9392
C27_2 C 0.5948(17) 0.4784(15) 0.8336(7)
H19_2 H 0.5841 0.5556 0.8083
H20_2 H 0.5460 0.4216 0.8167
H21_2 H 0.6480 0.4395 0.8299
C28_2 C 0.5784(13) 0.4500(17) 0.9943(8)
H22_2 H 0.5807 0.5406 0.9993
H24_2 H 0.5182 0.4220 0.9842
O11_2 O 0.6543(3) 0.9127(4) 0.0386(2)
O8_2 O 0.7608(3) 0.8642(5) 0.5104(2)
O9_2 O 0.8059(4) 0.9887(6) 0.5993(3)
C16_2 C 0.8962(4) 0.8182(6) 0.5906(3)
C18_2 C 0.9593(5) 0.8548(7) 0.6484(4)
H10_2 H 0.9503 0.9269 0.6710
C21_2 C 0.8156(4) 0.8928(7) 0.5628(3)
C24_2 C 0.9864(5) 0.6396(8) 0.5832(4)
H14_2 H 0.9949 0.5663 0.5613
C25_2 C 0.9102(4) 0.7081(8) 0.5587(3)
H15_2 H 0.8675 0.6809 0.5205
O10 O 0.4954(3) 0.0780(4) 0.4070(2)
O14_2 O 0.6895(3) 0.0709(4) 0.4064(2)
O4_3 O 0.4583(3) 0.8283(5) 0.4350(2)
O6_2 O 0.3105(3) 0.0709(4) 0.0936(2)
C1_3 C 0.4227(4) 0.1339(5) 0.3957(3)
O7_3 O 0.6187(4) 0.7005(4) 0.4249(3)
C2_3 C 0.2514(4) 0.2729(5) 0.2458(3)
C3_3 C 0.3695(4) 0.1572(5) 0.3242(3)
N1_3 N 0.1881(3) 0.3681(5) 0.2328(2)
C4_3 C 0.3032(4) 0.2489(6) 0.3094(3)
H1_3 H 0.2936 0.2956 0.3440
C5_3 C 0.6169(9) 0.5889(8) 0.4359(6)
C6_3 C 0.3335(4) 0.1096(6) 0.2085(3)
C7_3 C 0.3859(4) 0.0873(6) 0.2733(3)
H2_3 H 0.4307 0.0270 0.2823
C8_3 C 0.1352(4) 0.4001(6) 0.1658(3)
H3_3 H 0.1191 0.4889 0.1647
H4_3 H 0.1709 0.3886 0.1360
C9_3 C 0.2936(4) 0.5678(6) 0.3088(3)
H5_3 H 0.3115 0.5244 0.2767
C10_3 C 0.2166(4) 0.5354(6) 0.3210(3)
C11_3 C 0.3201(4) 0.7315(5) 0.3917(3)
C12_3 C 0.3788(4) 0.8316(6) 0.4320(3)
C13_3 C 0.0358(4) 0.2157(7) 0.1727(4)
H6_3 H 0.0775 0.1903 0.2119
C14_3 C 0.2678(4) 0.2017(6) 0.1950(3)
H7_3 H 0.2342 0.2161 0.1512
C15_3 C 0.0517(4) 0.3220(6) 0.1406(3)
C17_3 C 0.1593(4) 0.4246(6) 0.2858(3)
H8_3 H 0.0990 0.4541 0.2675
H9_3 H 0.1594 0.3597 0.3184
N2_3 N 0.6044(6) 0.4942(7) 0.4015(4)
C19_3 C 0.1891(5) 0.6044(7) 0.3669(4)
H11_3 H 0.1352 0.5850 0.3739
C20_3 C 0.3461(4) 0.0343(6) 0.1516(3)
C22_3 C 0.3455(4) 0.6659(6) 0.3443(3)
H12_3 H 0.3980 0.6871 0.3357
C23_3 C 0.2395(5) 0.7009(7) 0.4025(4)
H13_3 H 0.2202 0.7458 0.4335
C26_3 C 0.6062(14) 0.3621(10) 0.4156(7)
H16_3 H 0.5910 0.3152 0.3747
H17_3 H 0.6644 0.3384 0.4423
H18_3 H 0.5643 0.3435 0.4392
C27_3 C 0.5948(17) 0.5216(15) 0.3336(7)
H19_3 H 0.5841 0.4444 0.3083
H20_3 H 0.5460 0.5784 0.3167
H21_3 H 0.6480 0.5605 0.3299
C28_3 C 0.5784(13) 0.5500(17) 0.4943(8)
H22_3 H 0.5807 0.4594 0.4993
H23_3 H 0.6130 0.5887 0.5349
H24_3 H 0.5182 0.5780 0.4842
O13_2 O 0.6070(3) 0.9349(4) 0.3369(2)
O5_2 O 0.3930(3) 0.9349(4) 0.1631(2)
O9_3 O 0.8059(4) 0.0113(6) 0.0993(3)
C16_3 C 0.8962(4) 0.1818(6) 0.0906(3)
C18_3 C 0.9593(5) 0.1452(7) 0.1484(4)
H10_3 H 0.9503 0.0731 0.1710
C21_3 C 0.8156(4) 0.1072(7) 0.0628(3)
C24_3 C 0.9864(5) 0.3604(8) 0.0832(4)
H14_3 H 0.9949 0.4337 0.0613
C25_3 C 0.9102(4) 0.2919(8) 0.0587(3)
H15_3 H 0.8675 0.3191 0.0205
O9_4 O 0.1941(4) 0.0113(6) 0.4007(3)
C16_4 C 0.1038(4) 0.1818(6) 0.4094(3)
C18_4 C 0.0407(5) 0.1452(7) 0.3516(4)
H10_4 H 0.0497 0.0731 0.3290
C21_4 C 0.1844(4) 0.1072(7) 0.4372(3)
C24_4 C 0.0136(5) 0.3604(8) 0.4168(4)
H14_4 H 0.0051 0.4337 0.4387
C25_4 C 0.0898(4) 0.2919(8) 0.4413(3)
H15_4 H 0.1325 0.3191 0.4795
O10_2 O 0.5046(3) 0.0780(4) 0.0930(2)
O4_4 O 0.5417(3) 0.8283(5) 0.0650(2)
C1_4 C 0.5773(4) 0.1339(5) 0.1043(3)
O7_4 O 0.3813(4) 0.7005(4) 0.0751(3)
C2_4 C 0.7486(4) 0.2729(5) 0.2542(3)
C3_4 C 0.6305(4) 0.1572(5) 0.1758(3)
N1_4 N 0.8119(3) 0.3681(5) 0.2672(2)
C4_4 C 0.6968(4) 0.2489(6) 0.1906(3)
H1_4 H 0.7064 0.2956 0.1560
C5_4 C 0.3831(9) 0.5889(8) 0.0641(6)
C6_4 C 0.6665(4) 0.1096(6) 0.2915(3)
C7_4 C 0.6141(4) 0.0873(6) 0.2267(3)
H2_4 H 0.5693 0.0270 0.2177
C8_4 C 0.8648(4) 0.4001(6) 0.3342(3)
H3_4 H 0.8809 0.4889 0.3353
H4_4 H 0.8291 0.3886 0.3640
C9_4 C 0.7064(4) 0.5678(6) 0.1912(3)
H5_4 H 0.6885 0.5244 0.2233
C10_4 C 0.7834(4) 0.5354(6) 0.1790(3)
C11_4 C 0.6799(4) 0.7315(5) 0.1083(3)
C12_4 C 0.6212(4) 0.8316(6) 0.0680(3)
C13_4 C 0.9642(4) 0.2157(7) 0.3273(4)
H6_4 H 0.9225 0.1903 0.2881
C14_4 C 0.7322(4) 0.2017(6) 0.3050(3)
H7_4 H 0.7658 0.2161 0.3488
C15_4 C 0.9483(4) 0.3220(6) 0.3594(3)
C17_4 C 0.8407(4) 0.4246(6) 0.2142(3)
H8_4 H 0.9010 0.4541 0.2325
H9_4 H 0.8406 0.3597 0.1816
N2_4 N 0.3956(6) 0.4942(7) 0.0985(4)
C19_4 C 0.8109(5) 0.6044(7) 0.1331(4)
H11_4 H 0.8648 0.5850 0.1261
C20_4 C 0.6539(4) 0.0343(6) 0.3484(3)
C22_4 C 0.6545(4) 0.6659(6) 0.1557(3)
H12_4 H 0.6020 0.6871 0.1643
C23_4 C 0.7605(5) 0.7009(7) 0.0975(4)
H13_4 H 0.7798 0.7458 0.0665
C26_4 C 0.3938(14) 0.3621(10) 0.0844(7)
H16_4 H 0.4090 0.3152 0.1253
H17_4 H 0.3356 0.3384 0.0577
H18_4 H 0.4357 0.3435 0.0608
C27_4 C 0.4052(17) 0.5216(15) 0.1664(7)
H19_4 H 0.4159 0.4444 0.1917
H20_4 H 0.4540 0.5784 0.1833
H21_4 H 0.3520 0.5605 0.1701
C28_4 C 0.4216(13) 0.5500(17) 0.0057(8)
H22_4 H 0.4193 0.4594 0.0007
H24_4 H 0.4818 0.5780 0.0158
H23_4 H 0.3870 0.5887 0.9651
loop_
_geom_bond_atom_site_label_1
_geom_bond_atom_site_label_2
_geom_bond_site_symmetry_1
_geom_bond_site_symmetry_2
O8 C21 1_555 1_555
O9 C21 1_555 1_555
C16 C18 1_555 1_555
H10 C18 1_555 1_555
C21 C16 1_555 1_555
H14 C24 1_555 1_555
C25 C16 1_555 1_555
H15 C25 1_555 1_555
C24 C25 1_555 1_555
Nd3 O5 1_555 1_555
Nd2 O4 1_555 1_555
O1 C1 1_555 1_555
O2 C12 1_555 1_555
O3 C1 1_555 1_555
O4 C12 1_555 1_555
O6 C20 1_555 1_555
C1 C3 1_555 1_555
O7 Nd2 1_555 1_555
C2 N1 1_555 1_555
C3 C4 1_555 1_555
N1 C8 1_555 1_555
C4 C2 1_555 1_555
H1 C4 1_555 1_555
C5 O7 1_555 1_555
C6 C7 1_555 1_555
C7 C3 1_555 1_555
H2 C7 1_555 1_555
C8 H3 1_555 1_555
H4 C8 1_555 1_555
C9 H5 1_555 1_555
C10 C9 1_555 1_555
C11 C12 1_555 1_555
C13 H6 1_555 1_555
C14 C2 1_555 1_555
H7 C14 1_555 1_555
C15 C8 1_555 1_555
C17 N1 1_555 1_555
H8 C17 1_555 1_555
H9 C17 1_555 1_555
N2 C5 1_555 1_555
C19 C10 1_555 1_555
H11 C19 1_555 1_555
C20 C6 1_555 1_555
C22 C9 1_555 1_555
H12 C22 1_555 1_555
C23 C11 1_555 1_555
H13 C23 1_555 1_555
C26 N2 1_555 1_555
H16 C26 1_555 1_555
H17 C26 1_555 1_555
H18 C26 1_555 1_555
C27 N2 1_555 1_555
H19 C27 1_555 1_555
H20 C27 1_555 1_555
H21 C27 1_555 1_555
C28 C5 1_555 1_555
H22 C28 1_555 1_555
H23 C28 1_555 1_555
H24 C28 1_555 1_555
Nd5 O3 1_555 1_555
O12 Nd2 1_555 1_555
O13 Nd2 1_555 1_555
O15 Nd2 1_555 1_555
C6 C14 1_555 1_555
C10 C17 1_555 1_555
C11 C22 1_555 1_555
C13 C15 1_555 1_555
C19 C23 1_555 1_555
Nd3 O4_2 1_555 1_555
O1_2 C1_2 1_555 1_555
O2_2 C12_2 1_555 1_555
O3_2 C1_2 1_555 1_555
O4_2 C12_2 1_555 1_555
O14 C20_2 1_555 1_555
C1_2 C3_2 1_555 1_555
O7_2 Nd3 1_555 1_555
C2_2 N1_2 1_555 1_555
C3_2 C4_2 1_555 1_555
N1_2 C8_2 1_555 1_555
C4_2 C2_2 1_555 1_555
H1_2 C4_2 1_555 1_555
C5_2 O7_2 1_555 1_555
C6_2 C7_2 1_555 1_555
C7_2 C3_2 1_555 1_555
H2_2 C7_2 1_555 1_555
C8_2 H3_2 1_555 1_555
H4_2 C8_2 1_555 1_555
C9_2 H5_2 1_555 1_555
C10_2 C9_2 1_555 1_555
C11_2 C12_2 1_555 1_555
C13_2 H6_2 1_555 1_555
C14_2 C2_2 1_555 1_555
H7_2 C14_2 1_555 1_555
C15_2 C8_2 1_555 1_555
C17_2 N1_2 1_555 1_555
H8_2 C17_2 1_555 1_555
H9_2 C17_2 1_555 1_555
N2_2 C5_2 1_555 1_555
C19_2 C10_2 1_555 1_555
H11_2 C19_2 1_555 1_555
C20_2 C6_2 1_555 1_555
C22_2 C9_2 1_555 1_555
H12_2 C22_2 1_555 1_555
C23_2 C11_2 1_555 1_555
H13_2 C23_2 1_555 1_555
C26_2 N2_2 1_555 1_555
H16_2 C26_2 1_555 1_555
H17_2 C26_2 1_555 1_555
H18_2 C26_2 1_555 1_555
C27_2 N2_2 1_555 1_555
H19_2 C27_2 1_555 1_555
H20_2 C27_2 1_555 1_555
H21_2 C27_2 1_555 1_555
C28_2 C5_2 1_555 1_555
H22_2 C28_2 1_555 1_555
H24_2 C28_2 1_555 1_555
C6_2 C14_2 1_555 1_555
C10_2 C17_2 1_555 1_555
C11_2 C22_2 1_555 1_555
C13_2 C15_2 1_555 1_555
C19_2 C23_2 1_555 1_555
O8_2 C21_2 1_555 1_555
O9_2 C21_2 1_555 1_555
C16_2 C18_2 1_555 1_555
H10_2 C18_2 1_555 1_555
C21_2 C16_2 1_555 1_555
H14_2 C24_2 1_555 1_555
C25_2 C16_2 1_555 1_555
H15_2 C25_2 1_555 1_555
Nd5 O8_2 1_555 1_555
C24_2 C25_2 1_555 1_555
Nd5 O4_3 1_555 1_555
O10 C1_3 1_555 1_555
O11 C12_3 1_555 1_555
O12 C1_3 1_555 1_555
O4_3 C12_3 1_555 1_555
O6_2 C20_3 1_555 1_555
C1_3 C3_3 1_555 1_555
O7_3 Nd5 1_555 1_555
C2_3 N1_3 1_555 1_555
C3_3 C4_3 1_555 1_555
N1_3 C8_3 1_555 1_555
C4_3 C2_3 1_555 1_555
H1_3 C4_3 1_555 1_555
C5_3 O7_3 1_555 1_555
C6_3 C7_3 1_555 1_555
C7_3 C3_3 1_555 1_555
H2_3 C7_3 1_555 1_555
C8_3 H3_3 1_555 1_555
H4_3 C8_3 1_555 1_555
C9_3 H5_3 1_555 1_555
C10_3 C9_3 1_555 1_555
C11_3 C12_3 1_555 1_555
C13_3 H6_3 1_555 1_555
C14_3 C2_3 1_555 1_555
H7_3 C14_3 1_555 1_555
C15_3 C8_3 1_555 1_555
C17_3 N1_3 1_555 1_555
H8_3 C17_3 1_555 1_555
H9_3 C17_3 1_555 1_555
N2_3 C5_3 1_555 1_555
C19_3 C10_3 1_555 1_555
H11_3 C19_3 1_555 1_555
C20_3 C6_3 1_555 1_555
C22_3 C9_3 1_555 1_555
H12_3 C22_3 1_555 1_555
C23_3 C11_3 1_555 1_555
H13_3 C23_3 1_555 1_555
C26_3 N2_3 1_555 1_555
H16_3 C26_3 1_555 1_555
H17_3 C26_3 1_555 1_555
H18_3 C26_3 1_555 1_555
C27_3 N2_3 1_555 1_555
H19_3 C27_3 1_555 1_555
H20_3 C27_3 1_555 1_555
H21_3 C27_3 1_555 1_555
C28_3 C5_3 1_555 1_555
H22_3 C28_3 1_555 1_555
H23_3 C28_3 1_555 1_555
H24_3 C28_3 1_555 1_555
O13_2 Nd5 1_555 1_555
C6_3 C14_3 1_555 1_555
C10_3 C17_3 1_555 1_555
C11_3 C22_3 1_555 1_555
C13_3 C15_3 1_555 1_555
C19_3 C23_3 1_555 1_555
Nd6 O5_2 1_555 1_555
O15_2 C21_3 1_555 1_555
O9_3 C21_3 1_555 1_555
C16_3 C18_3 1_555 1_555
H10_3 C18_3 1_555 1_555
C21_3 C16_3 1_555 1_555
H14_3 C24_3 1_555 1_555
C25_3 C16_3 1_555 1_555
H15_3 C25_3 1_555 1_555
C24_3 C25_3 1_555 1_555
O15 C21_4 1_555 1_555
O9_4 C21_4 1_555 1_555
C16_4 C18_4 1_555 1_555
H10_4 C18_4 1_555 1_555
C21_4 C16_4 1_555 1_555
H14_4 C24_4 1_555 1_555
C25_4 C16_4 1_555 1_555
H15_4 C25_4 1_555 1_555
C24_4 C25_4 1_555 1_555
Nd6 O4_4 1_555 1_555
O10_2 C1_4 1_555 1_555
O11_2 C12_4 1_555 1_555
O12_2 C1_4 1_555 1_555
O4_4 C12_4 1_555 1_555
O14_2 C20_4 1_555 1_555
C1_4 C3_4 1_555 1_555
O7_4 Nd6 1_555 1_555
C2_4 N1_4 1_555 1_555
C3_4 C4_4 1_555 1_555
N1_4 C8_4 1_555 1_555
C4_4 C2_4 1_555 1_555
H1_4 C4_4 1_555 1_555
C5_4 O7_4 1_555 1_555
C6_4 C7_4 1_555 1_555
C7_4 C3_4 1_555 1_555
H2_4 C7_4 1_555 1_555
C8_4 H3_4 1_555 1_555
H4_4 C8_4 1_555 1_555
C9_4 H5_4 1_555 1_555
C10_4 C9_4 1_555 1_555
C11_4 C12_4 1_555 1_555
C13_4 H6_4 1_555 1_555
C14_4 C2_4 1_555 1_555
H7_4 C14_4 1_555 1_555
C15_4 C8_4 1_555 1_555
C17_4 N1_4 1_555 1_555
H8_4 C17_4 1_555 1_555
H9_4 C17_4 1_555 1_555
N2_4 C5_4 1_555 1_555
C19_4 C10_4 1_555 1_555
H11_4 C19_4 1_555 1_555
C20_4 C6_4 1_555 1_555
C22_4 C9_4 1_555 1_555
H12_4 C22_4 1_555 1_555
C23_4 C11_4 1_555 1_555
H13_4 C23_4 1_555 1_555
C26_4 N2_4 1_555 1_555
H16_4 C26_4 1_555 1_555
H17_4 C26_4 1_555 1_555
H18_4 C26_4 1_555 1_555
C27_4 N2_4 1_555 1_555
H19_4 C27_4 1_555 1_555
H20_4 C27_4 1_555 1_555
H21_4 C27_4 1_555 1_555
C28_4 C5_4 1_555 1_555
H22_4 C28_4 1_555 1_555
H24_4 C28_4 1_555 1_555
C6_4 C14_4 1_555 1_555
C10_4 C17_4 1_555 1_555
C11_4 C22_4 1_555 1_555
C13_4 C15_4 1_555 1_555
C19_4 C23_4 1_555 1_555

#END
