
###############################################################################
#
# This file contains modified crystal structure data generated from the
# MOF subset of the Cambridge Structural Database (CSD) v543 
# hosted by the Cambridge Crystallographic Data Centre (CCDC).
#
# This work is licensed under the Creative Commons
# Attribution-NonCommercial-ShareAlike 4.0 International License.
# To view a copy of this license, visit
# http://creativecommons.org/licenses/by-nc-sa/4.0/
# or send a letter to
# Creative Commons, PO Box 1866, Mountain View, CA 94042, USA.
#
# CIF created using the CSD Python API on 29 September 2022
# The structure has been converted into the P1 space group
# The structure has a 3D framework
# The original CSD entry GARLET is in the monoclinic crystal system
# The framework has been calculated to contain at least 10.0% void space
# The void calculation uses a probe of radius 1.32A, grid spacing 0.4
#
###############################################################################

data_GARLET
_chemical_formula_moiety         '(C112 H96 N8 O32 Pr4)n'
_symmetry_cell_setting           triclinic
_symmetry_space_group_name_H-M   'P 1'
_symmetry_Int_Tables_number      1
_space_group_name_Hall           'P 1'
loop_
_symmetry_equiv_pos_site_id
_symmetry_equiv_pos_as_xyz
1 x,y,z
_cell_length_a                   15.837(5)
_cell_length_b                   10.568(5)
_cell_length_c                   21.099(5)
_cell_angle_alpha                90
_cell_angle_beta                 107.098(5)
_cell_angle_gamma                90
_cell_volume                     3375.17
loop_
_atom_site_label
_atom_site_type_symbol
_atom_site_fract_x
_atom_site_fract_y
_atom_site_fract_z
Pr4 Pr 0.39919(2) 0.91882(3) 0.046968(14)
C18 C 0.0125(5) 0.6392(8) 0.9166(4)
C21 C 0.0399(5) 0.8545(8) 0.8514(4)
C22 C 0.0887(5) 0.7081(9) 0.9413(4)
H18 H 0.0038 0.5663 0.9387
C25 C 0.1027(4) 0.8173(7) 0.9094(3)
H21 H 0.0489 0.9266 0.8289
H22 H 0.1311 0.6814 0.9796
C27 C 0.1842(5) 0.8910(7) 0.9371(4)
O9 O 0.1932(4) 0.9885(6) 0.9008(3)
O13 O 0.2380(3) 0.8638(5) 0.9893(2)
Pr1 Pr 0.39919(2) 0.08118(3) 0.546968(14)
O1 O 0.5428(3) 0.1722(5) 0.5646(3)
O2 O 0.3813(4) 0.3014(5) 0.5756(3)
O4 O 0.3901(3) 0.1727(5) 0.4396(2)
O5 O 0.2380(3) 0.1362(5) 0.4893(2)
O7 O 0.3931(4) 0.0644(4) 0.6638(2)
C1 C 0.3824(10) 0.4130(10) 0.5666(7)
C3 C 0.4108(14) 0.4553(18) 0.4998(8)
N1 N 0.3957(6) 0.5049(8) 0.5973(5)
H1 H 0.4156 0.5457 0.4986
H2 H 0.3666 0.4267 0.4607
H3 H 0.4666 0.4178 0.5015
C5 C 0.4119(12) 0.4843(18) 0.6681(9)
C6 C 0.3945(10) 0.6396(14) 0.5845(7)
H4 H 0.4229 0.5640 0.6908
H5 H 0.4624 0.4302 0.6844
H6 H 0.3611 0.4451 0.6757
H7 H 0.4113 0.6846 0.6258
H8 H 0.3361 0.6647 0.5591
H9 H 0.4354 0.6587 0.5601
O12 O 0.6069(4) 0.0644(4) 0.8362(2)
Pr3 Pr 0.60081(2) 0.08118(3) 0.953032(14)
O3 O 0.5053(4) 0.9218(4) 0.5928(2)
O6 O 0.3444(3) 0.9127(4) 0.4613(2)
O8 O 0.3098(4) 0.9290(5) 0.5940(2)
C2 C 0.5785(4) 0.8650(6) 0.6042(3)
C4 C 0.6311(4) 0.8428(6) 0.6759(3)
C7 C 0.6973(4) 0.7501(7) 0.6906(3)
C8 C 0.6147(4) 0.9117(6) 0.7266(3)
C9 C 0.7484(4) 0.7262(6) 0.7541(3)
H10 H 0.7069 0.7032 0.6561
C10 C 0.6672(4) 0.8896(6) 0.7913(3)
H11 H 0.5696 0.9714 0.7178
C11 C 0.7326(4) 0.7980(6) 0.8044(3)
N2 N 0.8118(4) 0.6310(5) 0.7668(3)
C12 C 0.6535(4) 0.9659(7) 0.8475(3)
H12 H 0.7667 0.7844 0.8479
C13 C 0.8650(5) 0.5994(6) 0.8339(4)
C14 C 0.8412(5) 0.5752(6) 0.7140(4)
C15 C 0.9479(4) 0.6768(7) 0.8589(3)
H13 H 0.8811 0.5107 0.8352
H14 H 0.8292 0.6109 0.8638
H15 H 0.8409 0.6400 0.6813
C16 C 0.7843(4) 0.4643(6) 0.6792(3)
H16 H 0.9016 0.5462 0.7323
C17 C 0.9636(5) 0.7830(7) 0.8271(4)
C19 C 0.7069(5) 0.4319(7) 0.6908(4)
C20 C 0.8121(5) 0.3964(8) 0.6335(5)
H17 H 0.9220 0.8080 0.7880
C23 C 0.6547(5) 0.3332(7) 0.6558(3)
H19 H 0.6884 0.4760 0.7226
C24 C 0.7608(5) 0.2990(7) 0.5976(4)
H20 H 0.8659 0.4159 0.6264
C26 C 0.6809(4) 0.2679(6) 0.6083(3)
H23 H 0.6023 0.3118 0.6646
H24 H 0.7800 0.2546 0.5664
C28 C 0.6222(4) 0.1689(6) 0.5678(3)
O10 O 0.6099(3) 0.8273(5) 0.5604(2)
Pr2 Pr 0.60081(2) 0.91882(3) 0.453032(14)
O11 O 0.6902(4) 0.9290(5) 0.9060(2)
O15 O 0.6556(3) 0.0873(4) 0.5387(2)
O4_2 O 0.6099(3) 0.1727(5) 0.0604(2)
O5_2 O 0.7620(3) 0.1362(5) 0.0107(2)
C3_2 C 0.5892(14) 0.4553(18) 0.0002(8)
H1_2 H 0.5844 0.5457 0.0014
H2_2 H 0.6334 0.4267 0.0393
O1_2 O 0.4572(3) 0.1722(5) 0.9354(3)
O2_2 O 0.6187(4) 0.3014(5) 0.9244(3)
C1_2 C 0.6176(10) 0.4130(10) 0.9334(7)
N1_2 N 0.6043(6) 0.5049(8) 0.9027(5)
H3_2 H 0.5334 0.4178 0.9985
C5_2 C 0.5881(12) 0.4843(18) 0.8319(9)
C6_2 C 0.6055(10) 0.6396(14) 0.9155(7)
H4_2 H 0.5771 0.5640 0.8092
H5_2 H 0.5376 0.4302 0.8156
H6_2 H 0.6389 0.4451 0.8243
H7_2 H 0.5887 0.6846 0.8742
H8_2 H 0.6639 0.6647 0.9409
H9_2 H 0.5646 0.6587 0.9399
O6_2 O 0.6556(3) 0.9127(4) 0.0387(2)
O3_2 O 0.4947(4) 0.9218(4) 0.9072(2)
C2_2 C 0.4215(4) 0.8650(6) 0.8958(3)
C4_2 C 0.3689(4) 0.8428(6) 0.8241(3)
C7_2 C 0.3027(4) 0.7501(7) 0.8094(3)
C8_2 C 0.3853(4) 0.9117(6) 0.7734(3)
C9_2 C 0.2516(4) 0.7262(6) 0.7459(3)
H10_2 H 0.2931 0.7032 0.8439
C10_2 C 0.3328(4) 0.8896(6) 0.7087(3)
H11_2 H 0.4304 0.9714 0.7822
C11_2 C 0.2674(4) 0.7980(6) 0.6956(3)
N2_2 N 0.1882(4) 0.6310(5) 0.7332(3)
C12_2 C 0.3465(4) 0.9659(7) 0.6525(3)
H12_2 H 0.2333 0.7844 0.6521
C13_2 C 0.1350(5) 0.5994(6) 0.6661(4)
C14_2 C 0.1588(5) 0.5752(6) 0.7860(4)
C15_2 C 0.0521(4) 0.6768(7) 0.6411(3)
H13_2 H 0.1189 0.5107 0.6648
H14_2 H 0.1708 0.6109 0.6362
H15_2 H 0.1591 0.6400 0.8187
C16_2 C 0.2157(4) 0.4643(6) 0.8208(3)
H16_2 H 0.0984 0.5462 0.7677
C17_2 C 0.0364(5) 0.7830(7) 0.6729(4)
C19_2 C 0.2931(5) 0.4319(7) 0.8092(4)
C20_2 C 0.1879(5) 0.3964(8) 0.8665(5)
H17_2 H 0.0780 0.8080 0.7120
C23_2 C 0.3453(5) 0.3332(7) 0.8442(3)
H19_2 H 0.3116 0.4760 0.7774
C24_2 C 0.2392(5) 0.2990(7) 0.9024(4)
H20_2 H 0.1341 0.4159 0.8736
C26_2 C 0.3191(4) 0.2679(6) 0.8917(3)
H23_2 H 0.3977 0.3118 0.8354
H24_2 H 0.2200 0.2546 0.9336
C28_2 C 0.3778(4) 0.1689(6) 0.9322(3)
O10_2 O 0.3901(3) 0.8273(5) 0.9396(2)
O15_2 O 0.3444(3) 0.0873(4) 0.9613(2)
C18_2 C 0.9875(5) 0.6392(8) 0.5834(4)
C21_2 C 0.9601(5) 0.8545(8) 0.6486(4)
C22_2 C 0.9113(5) 0.7081(9) 0.5587(4)
H18_2 H 0.9962 0.5663 0.5613
C25_2 C 0.8973(4) 0.8173(7) 0.5906(3)
H21_2 H 0.9511 0.9266 0.6711
H22_2 H 0.8689 0.6814 0.5204
C27_2 C 0.8158(5) 0.8910(7) 0.5629(4)
O9_2 O 0.8068(4) 0.9885(6) 0.5992(3)
O13_2 O 0.7620(3) 0.8638(5) 0.5107(2)
O3_3 O 0.4947(4) 0.0782(4) 0.4072(2)
O8_2 O 0.6902(4) 0.0710(5) 0.4060(2)
C2_3 C 0.4215(4) 0.1350(6) 0.3958(3)
C4_3 C 0.3689(4) 0.1572(6) 0.3241(3)
C7_3 C 0.3027(4) 0.2499(7) 0.3094(3)
C8_3 C 0.3853(4) 0.0883(6) 0.2734(3)
C9_3 C 0.2516(4) 0.2738(6) 0.2459(3)
H10_3 H 0.2931 0.2968 0.3439
C10_3 C 0.3328(4) 0.1104(6) 0.2087(3)
H11_3 H 0.4304 0.0286 0.2822
C11_3 C 0.2674(4) 0.2020(6) 0.1956(3)
N2_3 N 0.1882(4) 0.3690(5) 0.2332(3)
C12_3 C 0.3465(4) 0.0341(7) 0.1525(3)
H12_3 H 0.2333 0.2156 0.1521
C13_3 C 0.1350(5) 0.4006(6) 0.1661(4)
C14_3 C 0.1588(5) 0.4248(6) 0.2860(4)
C15_3 C 0.0521(4) 0.3232(7) 0.1411(3)
H13_3 H 0.1189 0.4893 0.1648
H14_3 H 0.1708 0.3891 0.1362
H15_3 H 0.1591 0.3600 0.3187
C16_3 C 0.2157(4) 0.5357(6) 0.3208(3)
H16_3 H 0.0984 0.4538 0.2677
C17_3 C 0.0364(5) 0.2170(7) 0.1729(4)
C19_3 C 0.2931(5) 0.5681(7) 0.3092(4)
C20_3 C 0.1879(5) 0.6036(8) 0.3665(5)
H17_3 H 0.0780 0.1920 0.2120
C23_3 C 0.3453(5) 0.6668(7) 0.3442(3)
H19_3 H 0.3116 0.5240 0.2774
C24_3 C 0.2392(5) 0.7010(7) 0.4024(4)
H20_3 H 0.1341 0.5841 0.3736
C26_3 C 0.3191(4) 0.7321(6) 0.3917(3)
H23_3 H 0.3977 0.6882 0.3354
H24_3 H 0.2200 0.7454 0.4336
C28_3 C 0.3778(4) 0.8311(6) 0.4322(3)
O11_2 O 0.3098(4) 0.0710(5) 0.0940(2)
O14 O 0.4572(3) 0.8278(5) 0.4354(3)
O2_3 O 0.6187(4) 0.6986(5) 0.4244(3)
O7_2 O 0.6069(4) 0.9356(4) 0.3362(2)
C1_3 C 0.6176(10) 0.5870(10) 0.4334(7)
C3_3 C 0.5892(14) 0.5447(18) 0.5002(8)
N1_3 N 0.6043(6) 0.4951(8) 0.4027(5)
H1_3 H 0.5844 0.4543 0.5014
H2_3 H 0.6334 0.5733 0.5393
H3_3 H 0.5334 0.5822 0.4985
C5_3 C 0.5881(12) 0.5157(18) 0.3319(9)
C6_3 C 0.6055(10) 0.3604(14) 0.4155(7)
H4_3 H 0.5771 0.4360 0.3092
H5_3 H 0.5376 0.5698 0.3156
H6_3 H 0.6389 0.5549 0.3243
H7_3 H 0.5887 0.3154 0.3742
H8_3 H 0.6639 0.3353 0.4409
H9_3 H 0.5646 0.3413 0.4399
O12_2 O 0.3931(4) 0.9356(4) 0.1638(2)
C18_3 C 0.9875(5) 0.3608(8) 0.0834(4)
C21_3 C 0.9601(5) 0.1455(8) 0.1486(4)
C22_3 C 0.9113(5) 0.2919(9) 0.0587(4)
H18_3 H 0.9962 0.4337 0.0613
C25_3 C 0.8973(4) 0.1827(7) 0.0906(3)
H21_3 H 0.9511 0.0734 0.1711
H22_3 H 0.8689 0.3186 0.0204
C27_3 C 0.8158(5) 0.1090(7) 0.0629(4)
O9_3 O 0.8068(4) 0.0115(6) 0.0992(3)
C18_4 C 0.0125(5) 0.3608(8) 0.4166(4)
C21_4 C 0.0399(5) 0.1455(8) 0.3514(4)
C22_4 C 0.0887(5) 0.2919(9) 0.4413(4)
H18_4 H 0.0038 0.4337 0.4387
C25_4 C 0.1027(4) 0.1827(7) 0.4094(3)
H21_4 H 0.0489 0.0734 0.3289
H22_4 H 0.1311 0.3186 0.4796
C27_4 C 0.1842(5) 0.1090(7) 0.4371(4)
O9_4 O 0.1932(4) 0.0115(6) 0.4008(3)
O3_4 O 0.5053(4) 0.0782(4) 0.0928(2)
C2_4 C 0.5785(4) 0.1350(6) 0.1042(3)
C4_4 C 0.6311(4) 0.1572(6) 0.1759(3)
C7_4 C 0.6973(4) 0.2499(7) 0.1906(3)
C8_4 C 0.6147(4) 0.0883(6) 0.2266(3)
C9_4 C 0.7484(4) 0.2738(6) 0.2541(3)
H10_4 H 0.7069 0.2968 0.1561
C10_4 C 0.6672(4) 0.1104(6) 0.2913(3)
H11_4 H 0.5696 0.0286 0.2178
C11_4 C 0.7326(4) 0.2020(6) 0.3044(3)
N2_4 N 0.8118(4) 0.3690(5) 0.2668(3)
C12_4 C 0.6535(4) 0.0341(7) 0.3475(3)
H12_4 H 0.7667 0.2156 0.3479
C13_4 C 0.8650(5) 0.4006(6) 0.3339(4)
C14_4 C 0.8412(5) 0.4248(6) 0.2140(4)
C15_4 C 0.9479(4) 0.3232(7) 0.3589(3)
H13_4 H 0.8811 0.4893 0.3352
H14_4 H 0.8292 0.3891 0.3638
H15_4 H 0.8409 0.3600 0.1813
C16_4 C 0.7843(4) 0.5357(6) 0.1792(3)
H16_4 H 0.9016 0.4538 0.2323
C17_4 C 0.9636(5) 0.2170(7) 0.3271(4)
C19_4 C 0.7069(5) 0.5681(7) 0.1908(4)
C20_4 C 0.8121(5) 0.6036(8) 0.1335(5)
H17_4 H 0.9220 0.1920 0.2880
C23_4 C 0.6547(5) 0.6668(7) 0.1558(3)
H19_4 H 0.6884 0.5240 0.2226
C24_4 C 0.7608(5) 0.7010(7) 0.0976(4)
H20_4 H 0.8659 0.5841 0.1264
C26_4 C 0.6809(4) 0.7321(6) 0.1083(3)
H23_4 H 0.6023 0.6882 0.1646
H24_4 H 0.7800 0.7454 0.0664
C28_4 C 0.6222(4) 0.8311(6) 0.0678(3)
O14_2 O 0.5428(3) 0.8278(5) 0.0646(3)
O2_4 O 0.3813(4) 0.6986(5) 0.0756(3)
C1_4 C 0.3824(10) 0.5870(10) 0.0666(7)
N1_4 N 0.3957(6) 0.4951(8) 0.0973(5)
H3_4 H 0.4666 0.5822 0.0015
C5_4 C 0.4119(12) 0.5157(18) 0.1681(9)
C6_4 C 0.3945(10) 0.3604(14) 0.0845(7)
H4_4 H 0.4229 0.4360 0.1908
H5_4 H 0.4624 0.5698 0.1844
H6_4 H 0.3611 0.5549 0.1757
H7_4 H 0.4113 0.3154 0.1258
H8_4 H 0.3361 0.3353 0.0591
H9_4 H 0.4354 0.3413 0.0601
C3_4 C 0.4108(14) 0.5447(18) 0.9998(8)
H1_4 H 0.4156 0.4543 0.9986
H2_4 H 0.3666 0.5733 0.9607
loop_
_geom_bond_atom_site_label_1
_geom_bond_atom_site_label_2
_geom_bond_site_symmetry_1
_geom_bond_site_symmetry_2
C22 C18 1_555 1_555
H18 C18 1_555 1_555
C25 C21 1_555 1_555
H21 C21 1_555 1_555
H22 C22 1_555 1_555
C27 C25 1_555 1_555
O9 C27 1_555 1_555
O13 C27 1_555 1_555
C22 C25 1_555 1_555
Pr1 O1 1_555 1_555
O2 Pr1 1_555 1_555
O4 Pr1 1_555 1_555
O5 Pr1 1_555 1_555
O7 Pr1 1_555 1_555
C1 O2 1_555 1_555
C3 C1 1_555 1_555
N1 C1 1_555 1_555
H1 C3 1_555 1_555
H2 C3 1_555 1_555
H3 C3 1_555 1_555
C5 N1 1_555 1_555
C6 N1 1_555 1_555
H4 C5 1_555 1_555
H5 C5 1_555 1_555
H6 C5 1_555 1_555
H7 C6 1_555 1_555
H8 C6 1_555 1_555
H9 C6 1_555 1_555
O12 Pr3 1_555 1_555
C2 O3 1_555 1_555
C4 C2 1_555 1_555
C7 C4 1_555 1_555
C8 C4 1_555 1_555
C9 C7 1_555 1_555
H10 C7 1_555 1_555
C10 C8 1_555 1_555
H11 C8 1_555 1_555
C11 C9 1_555 1_555
N2 C9 1_555 1_555
C12 C10 1_555 1_555
H12 C11 1_555 1_555
C13 N2 1_555 1_555
C14 N2 1_555 1_555
C15 C13 1_555 1_555
H13 C13 1_555 1_555
H14 C13 1_555 1_555
H15 C14 1_555 1_555
C16 C14 1_555 1_555
H16 C14 1_555 1_555
C17 C15 1_555 1_555
C19 C16 1_555 1_555
C20 C16 1_555 1_555
H17 C17 1_555 1_555
C23 C19 1_555 1_555
H19 C19 1_555 1_555
C24 C20 1_555 1_555
H20 C20 1_555 1_555
C26 C23 1_555 1_555
H23 C23 1_555 1_555
H24 C24 1_555 1_555
C28 C26 1_555 1_555
O10 C2 1_555 1_555
Pr2 O10 1_555 1_555
O11 C12 1_555 1_555
O1 C28 1_555 1_555
O15 C28 1_555 1_555
C10 C11 1_555 1_555
C24 C26 1_555 1_555
H1_2 C3_2 1_555 1_555
H2_2 C3_2 1_555 1_555
Pr3 O1_2 1_555 1_555
O2_2 Pr3 1_555 1_555
C1_2 O2_2 1_555 1_555
N1_2 C1_2 1_555 1_555
C5_2 N1_2 1_555 1_555
C6_2 N1_2 1_555 1_555
H4_2 C5_2 1_555 1_555
H5_2 C5_2 1_555 1_555
H6_2 C5_2 1_555 1_555
H7_2 C6_2 1_555 1_555
H8_2 C6_2 1_555 1_555
H9_2 C6_2 1_555 1_555
C2_2 O3_2 1_555 1_555
C4_2 C2_2 1_555 1_555
C7_2 C4_2 1_555 1_555
C8_2 C4_2 1_555 1_555
C9_2 C7_2 1_555 1_555
H10_2 C7_2 1_555 1_555
C10_2 C8_2 1_555 1_555
H11_2 C8_2 1_555 1_555
C11_2 C9_2 1_555 1_555
N2_2 C9_2 1_555 1_555
C12_2 C10_2 1_555 1_555
H12_2 C11_2 1_555 1_555
C13_2 N2_2 1_555 1_555
C14_2 N2_2 1_555 1_555
C15_2 C13_2 1_555 1_555
H13_2 C13_2 1_555 1_555
H14_2 C13_2 1_555 1_555
H15_2 C14_2 1_555 1_555
C16_2 C14_2 1_555 1_555
H16_2 C14_2 1_555 1_555
C17_2 C15_2 1_555 1_555
C19_2 C16_2 1_555 1_555
C20_2 C16_2 1_555 1_555
H17_2 C17_2 1_555 1_555
C23_2 C19_2 1_555 1_555
H19_2 C19_2 1_555 1_555
C24_2 C20_2 1_555 1_555
H20_2 C20_2 1_555 1_555
C26_2 C23_2 1_555 1_555
H23_2 C23_2 1_555 1_555
H24_2 C24_2 1_555 1_555
C28_2 C26_2 1_555 1_555
O10_2 C2_2 1_555 1_555
O8 C12_2 1_555 1_555
O1_2 C28_2 1_555 1_555
O15_2 C28_2 1_555 1_555
C10_2 C11_2 1_555 1_555
C24_2 C26_2 1_555 1_555
C22_2 C18_2 1_555 1_555
H18_2 C18_2 1_555 1_555
C25_2 C21_2 1_555 1_555
H21_2 C21_2 1_555 1_555
H22_2 C22_2 1_555 1_555
C27_2 C25_2 1_555 1_555
O9_2 C27_2 1_555 1_555
O13_2 C27_2 1_555 1_555
Pr2 O13_2 1_555 1_555
C22_2 C25_2 1_555 1_555
C2_3 O3_3 1_555 1_555
C4_3 C2_3 1_555 1_555
C7_3 C4_3 1_555 1_555
C8_3 C4_3 1_555 1_555
C9_3 C7_3 1_555 1_555
H10_3 C7_3 1_555 1_555
C10_3 C8_3 1_555 1_555
H11_3 C8_3 1_555 1_555
C11_3 C9_3 1_555 1_555
N2_3 C9_3 1_555 1_555
C12_3 C10_3 1_555 1_555
H12_3 C11_3 1_555 1_555
C13_3 N2_3 1_555 1_555
C14_3 N2_3 1_555 1_555
C15_3 C13_3 1_555 1_555
H13_3 C13_3 1_555 1_555
H14_3 C13_3 1_555 1_555
H15_3 C14_3 1_555 1_555
C16_3 C14_3 1_555 1_555
H16_3 C14_3 1_555 1_555
C17_3 C15_3 1_555 1_555
C19_3 C16_3 1_555 1_555
C20_3 C16_3 1_555 1_555
H17_3 C17_3 1_555 1_555
C23_3 C19_3 1_555 1_555
H19_3 C19_3 1_555 1_555
C24_3 C20_3 1_555 1_555
H20_3 C20_3 1_555 1_555
C26_3 C23_3 1_555 1_555
H23_3 C23_3 1_555 1_555
H24_3 C24_3 1_555 1_555
C28_3 C26_3 1_555 1_555
O4 C2_3 1_555 1_555
O11_2 C12_3 1_555 1_555
O14 C28_3 1_555 1_555
O6 C28_3 1_555 1_555
Pr2 O14 1_555 1_555
C10_3 C11_3 1_555 1_555
C24_3 C26_3 1_555 1_555
O2_3 Pr2 1_555 1_555
O7_2 Pr2 1_555 1_555
C1_3 O2_3 1_555 1_555
C3_3 C1_3 1_555 1_555
N1_3 C1_3 1_555 1_555
H1_3 C3_3 1_555 1_555
H2_3 C3_3 1_555 1_555
H3_3 C3_3 1_555 1_555
C5_3 N1_3 1_555 1_555
C6_3 N1_3 1_555 1_555
H4_3 C5_3 1_555 1_555
H5_3 C5_3 1_555 1_555
H6_3 C5_3 1_555 1_555
H7_3 C6_3 1_555 1_555
H8_3 C6_3 1_555 1_555
H9_3 C6_3 1_555 1_555
O12_2 Pr4 1_555 1_555
C22_3 C18_3 1_555 1_555
H18_3 C18_3 1_555 1_555
C25_3 C21_3 1_555 1_555
H21_3 C21_3 1_555 1_555
H22_3 C22_3 1_555 1_555
C27_3 C25_3 1_555 1_555
O9_3 C27_3 1_555 1_555
O5_2 C27_3 1_555 1_555
C22_3 C25_3 1_555 1_555
C22_4 C18_4 1_555 1_555
H18_4 C18_4 1_555 1_555
C25_4 C21_4 1_555 1_555
H21_4 C21_4 1_555 1_555
H22_4 C22_4 1_555 1_555
C27_4 C25_4 1_555 1_555
O9_4 C27_4 1_555 1_555
O5 C27_4 1_555 1_555
C22_4 C25_4 1_555 1_555
C2_4 O3_4 1_555 1_555
C4_4 C2_4 1_555 1_555
C7_4 C4_4 1_555 1_555
C8_4 C4_4 1_555 1_555
C9_4 C7_4 1_555 1_555
H10_4 C7_4 1_555 1_555
C10_4 C8_4 1_555 1_555
H11_4 C8_4 1_555 1_555
C11_4 C9_4 1_555 1_555
N2_4 C9_4 1_555 1_555
C12_4 C10_4 1_555 1_555
H12_4 C11_4 1_555 1_555
C13_4 N2_4 1_555 1_555
C14_4 N2_4 1_555 1_555
C15_4 C13_4 1_555 1_555
H13_4 C13_4 1_555 1_555
H14_4 C13_4 1_555 1_555
H15_4 C14_4 1_555 1_555
C16_4 C14_4 1_555 1_555
H16_4 C14_4 1_555 1_555
C17_4 C15_4 1_555 1_555
C19_4 C16_4 1_555 1_555
C20_4 C16_4 1_555 1_555
H17_4 C17_4 1_555 1_555
C23_4 C19_4 1_555 1_555
H19_4 C19_4 1_555 1_555
C24_4 C20_4 1_555 1_555
H20_4 C20_4 1_555 1_555
C26_4 C23_4 1_555 1_555
H23_4 C23_4 1_555 1_555
H24_4 C24_4 1_555 1_555
C28_4 C26_4 1_555 1_555
O4_2 C2_4 1_555 1_555
O8_2 C12_4 1_555 1_555
O14_2 C28_4 1_555 1_555
O6_2 C28_4 1_555 1_555
Pr4 O14_2 1_555 1_555
C10_4 C11_4 1_555 1_555
C24_4 C26_4 1_555 1_555
O2_4 Pr4 1_555 1_555
C1_4 O2_4 1_555 1_555
N1_4 C1_4 1_555 1_555
C5_4 N1_4 1_555 1_555
C6_4 N1_4 1_555 1_555
H4_4 C5_4 1_555 1_555
H5_4 C5_4 1_555 1_555
H6_4 C5_4 1_555 1_555
H7_4 C6_4 1_555 1_555
H8_4 C6_4 1_555 1_555
H9_4 C6_4 1_555 1_555
H1_4 C3_4 1_555 1_555
H2_4 C3_4 1_555 1_555

#END
