
###############################################################################
#
# This file contains modified crystal structure data generated from the
# MOF subset of the Cambridge Structural Database (CSD) v543 
# hosted by the Cambridge Crystallographic Data Centre (CCDC).
#
# This work is licensed under the Creative Commons
# Attribution-NonCommercial-ShareAlike 4.0 International License.
# To view a copy of this license, visit
# http://creativecommons.org/licenses/by-nc-sa/4.0/
# or send a letter to
# Creative Commons, PO Box 1866, Mountain View, CA 94042, USA.
#
# CIF created using the CSD Python API on 29 September 2022
# The structure has been converted into the P1 space group
# The structure has a 3D framework
# The original CSD entry GARLUJ is in the monoclinic crystal system
# The framework has been calculated to contain at least 10.0% void space
# The void calculation uses a probe of radius 1.32A, grid spacing 0.4
#
###############################################################################

data_GARLUJ
_chemical_formula_moiety         '(C112 H96 Eu4 N8 O32)n'
_symmetry_cell_setting           triclinic
_symmetry_space_group_name_H-M   'P 1'
_symmetry_Int_Tables_number      1
_space_group_name_Hall           'P 1'
loop_
_symmetry_equiv_pos_site_id
_symmetry_equiv_pos_as_xyz
1 x,y,z
_cell_length_a                   15.854(5)
_cell_length_b                   10.515(5)
_cell_length_c                   20.947(5)
_cell_angle_alpha                90
_cell_angle_beta                 107.587(5)
_cell_angle_gamma                90
_cell_volume                     3328.75
loop_
_atom_site_label
_atom_site_type_symbol
_atom_site_fract_x
_atom_site_fract_y
_atom_site_fract_z
Eu6 Eu 0.399114(14) 0.92134(2) 0.045770(10)
C19 C 0.0422(4) 0.8559(6) 0.8521(3)
H13 H 0.0512 0.9275 0.8289
C20 C 0.1049(3) 0.8193(5) 0.9097(3)
C21 C 0.0923(4) 0.7114(7) 0.9417(3)
H14 H 0.1359 0.6849 0.9800
C22 C 0.0153(4) 0.6408(6) 0.9177(3)
H15 H 0.0075 0.5675 0.9402
C23 C 0.1875(4) 0.8958(6) 0.9374(3)
O5 O 0.1955(3) 0.9919(5) 0.9005(3)
O6 O 0.2419(2) 0.8668(4) 0.98970(18)
O8 O 0.6056(3) 0.0660(3) 0.83851(18)
Eu2 Eu 0.399114(14) 0.07866(2) 0.545770(10)
Eu3 Eu 0.600886(14) 0.07866(2) 0.954230(10)
C1 C 0.7476(3) 0.7278(5) 0.7548(2)
C2 C 0.7313(3) 0.8005(5) 0.8060(2)
H1 H 0.7652 0.7865 0.8501
C3 C 0.6661(3) 0.8922(5) 0.7924(2)
C4 C 0.6133(3) 0.9143(5) 0.7273(3)
H2 H 0.5684 0.9747 0.7183
C5 C 0.6292(3) 0.8435(5) 0.6757(2)
C6 C 0.6959(3) 0.7532(5) 0.6893(2)
H3 H 0.7065 0.7087 0.6541
C7 C 0.5753(3) 0.8675(4) 0.6040(2)
C8 C 0.6187(3) 0.1682(5) 0.5687(2)
C9 C 0.6781(3) 0.2680(5) 0.6088(2)
C10 C 0.6528(4) 0.3350(5) 0.6567(3)
H4 H 0.6003 0.3145 0.6654
C11 C 0.7053(4) 0.4327(5) 0.6918(3)
H5 H 0.6879 0.4764 0.7242
C12 C 0.7828(3) 0.4661(5) 0.6795(3)
C13 C 0.8086(4) 0.3970(6) 0.6324(4)
H6 H 0.8616 0.4165 0.6243
C14 C 0.7568(4) 0.2994(6) 0.5974(3)
H7 H 0.7751 0.2542 0.5658
C15 C 0.8399(3) 0.5766(5) 0.7142(3)
H8 H 0.9005 0.5474 0.7323
H9 H 0.8389 0.6419 0.6813
C16 C 0.8653(4) 0.6018(5) 0.8353(3)
H10 H 0.8807 0.5123 0.8371
H11 H 0.8300 0.6150 0.8653
C17 C 0.9496(3) 0.6792(5) 0.8602(3)
C18 C 0.9646(4) 0.7852(6) 0.8282(3)
H12 H 0.9219 0.8114 0.7893
C24 C 0.6530(3) 0.9676(5) 0.8497(2)
C25 C 0.3818(8) 0.4064(8) 0.5640(6)
C26 C 0.3925(10) 0.4689(16) 0.6655(8)
H16 H 0.4002 0.5450 0.6920
H17 H 0.4395 0.4104 0.6857
H18 H 0.3367 0.4306 0.6631
C27 C 0.3941(8) 0.6343(12) 0.5856(6)
H19 H 0.4068 0.6781 0.6277
H20 H 0.3369 0.6597 0.5571
H21 H 0.4383 0.6550 0.5645
O1 O 0.5020(3) 0.9203(3) 0.59256(19)
O2 O 0.6079(2) 0.8312(4) 0.55943(16)
O3 O 0.5395(2) 0.1701(4) 0.5669(2)
O4 O 0.6514(3) 0.0881(3) 0.53819(19)
O7 O 0.6886(3) 0.9295(4) 0.90836(18)
O9 O 0.3808(3) 0.2948(4) 0.5734(2)
N1 N 0.8122(3) 0.6326(4) 0.7679(2)
N2 N 0.3944(5) 0.5013(6) 0.5967(4)
C28 C 0.4194(11) 0.4510(15) 0.5014(8)
H22 H 0.4245 0.5420 0.5013
H23 H 0.3790 0.4233 0.4597
H24 H 0.4764 0.4134 0.5072
O11 O 0.3921(2) 0.1688(4) 0.44057(16)
O13 O 0.2419(2) 0.1332(4) 0.48970(18)
O15 O 0.3944(3) 0.0660(3) 0.66149(18)
Eu5 Eu 0.600886(14) 0.92134(2) 0.454230(10)
O12 O 0.3486(3) 0.9119(3) 0.46181(19)
O14 O 0.3114(3) 0.9295(4) 0.59164(18)
H23_2 H 0.6210 0.4233 0.0403
O11_2 O 0.6079(2) 0.1688(4) 0.05943(16)
O13_2 O 0.7581(2) 0.1332(4) 0.01030(18)
C1_2 C 0.2524(3) 0.7278(5) 0.7452(2)
C2_2 C 0.2687(3) 0.8005(5) 0.6940(2)
H1_2 H 0.2348 0.7865 0.6499
C3_2 C 0.3339(3) 0.8922(5) 0.7076(2)
C4_2 C 0.3867(3) 0.9143(5) 0.7727(3)
H2_2 H 0.4316 0.9747 0.7817
C5_2 C 0.3708(3) 0.8435(5) 0.8243(2)
C6_2 C 0.3041(3) 0.7532(5) 0.8107(2)
H3_2 H 0.2935 0.7087 0.8459
C7_2 C 0.4247(3) 0.8675(4) 0.8960(2)
C8_2 C 0.3813(3) 0.1682(5) 0.9313(2)
C9_2 C 0.3219(3) 0.2680(5) 0.8912(2)
C10_2 C 0.3472(4) 0.3350(5) 0.8433(3)
H4_2 H 0.3997 0.3145 0.8346
C11_2 C 0.2947(4) 0.4327(5) 0.8082(3)
H5_2 H 0.3121 0.4764 0.7758
C12_2 C 0.2172(3) 0.4661(5) 0.8205(3)
C13_2 C 0.1914(4) 0.3970(6) 0.8676(4)
H6_2 H 0.1384 0.4165 0.8757
C14_2 C 0.2432(4) 0.2994(6) 0.9026(3)
H7_2 H 0.2249 0.2542 0.9342
C15_2 C 0.1601(3) 0.5766(5) 0.7858(3)
H8_2 H 0.0995 0.5474 0.7677
H9_2 H 0.1611 0.6419 0.8187
C16_2 C 0.1347(4) 0.6018(5) 0.6647(3)
H10_2 H 0.1193 0.5123 0.6629
H11_2 H 0.1700 0.6150 0.6347
C17_2 C 0.0504(3) 0.6792(5) 0.6398(3)
C18_2 C 0.0354(4) 0.7852(6) 0.6718(3)
H12_2 H 0.0781 0.8114 0.7107
C24_2 C 0.3470(3) 0.9676(5) 0.6503(2)
C25_2 C 0.6182(8) 0.4064(8) 0.9360(6)
C26_2 C 0.6075(10) 0.4689(16) 0.8345(8)
H16_2 H 0.5998 0.5450 0.8080
H17_2 H 0.5605 0.4104 0.8143
H18_2 H 0.6633 0.4306 0.8369
C27_2 C 0.6059(8) 0.6343(12) 0.9144(6)
H19_2 H 0.5932 0.6781 0.8723
H20_2 H 0.6631 0.6597 0.9429
H21_2 H 0.5617 0.6550 0.9355
O1_2 O 0.4980(3) 0.9203(3) 0.90744(19)
O2_2 O 0.3921(2) 0.8312(4) 0.94057(16)
O3_2 O 0.4605(2) 0.1701(4) 0.9331(2)
O4_2 O 0.3486(3) 0.0881(3) 0.96181(19)
O9_2 O 0.6192(3) 0.2948(4) 0.9266(2)
N1_2 N 0.1878(3) 0.6326(4) 0.7321(2)
N2_2 N 0.6056(5) 0.5013(6) 0.9033(4)
C28_2 C 0.5806(11) 0.4510(15) 0.9986(8)
H22_2 H 0.5755 0.5420 0.9987
H24_2 H 0.5236 0.4134 0.9928
O12_2 O 0.6514(3) 0.9119(3) 0.03819(19)
C19_2 C 0.9578(4) 0.8559(6) 0.6479(3)
H13_2 H 0.9488 0.9275 0.6711
C20_2 C 0.8951(3) 0.8193(5) 0.5903(3)
C21_2 C 0.9077(4) 0.7114(7) 0.5583(3)
H14_2 H 0.8641 0.6849 0.5200
C22_2 C 0.9847(4) 0.6408(6) 0.5823(3)
H15_2 H 0.9925 0.5675 0.5598
C23_2 C 0.8125(4) 0.8958(6) 0.5626(3)
O5_2 O 0.8045(3) 0.9919(5) 0.5995(3)
O6_2 O 0.7581(2) 0.8668(4) 0.51030(18)
O10 O 0.4980(3) 0.0797(3) 0.40744(19)
O14_2 O 0.6886(3) 0.0705(4) 0.40836(18)
C1_3 C 0.2524(3) 0.2722(5) 0.2452(2)
C2_3 C 0.2687(3) 0.1995(5) 0.1940(2)
H1_3 H 0.2348 0.2135 0.1499
C3_3 C 0.3339(3) 0.1078(5) 0.2076(2)
C4_3 C 0.3867(3) 0.0857(5) 0.2727(3)
H2_3 H 0.4316 0.0253 0.2817
C5_3 C 0.3708(3) 0.1565(5) 0.3243(2)
C6_3 C 0.3041(3) 0.2468(5) 0.3107(2)
H3_3 H 0.2935 0.2913 0.3459
C7_3 C 0.4247(3) 0.1325(4) 0.3960(2)
C8_3 C 0.3813(3) 0.8318(5) 0.4313(2)
C9_3 C 0.3219(3) 0.7320(5) 0.3912(2)
C10_3 C 0.3472(4) 0.6650(5) 0.3433(3)
H4_3 H 0.3997 0.6855 0.3346
C11_3 C 0.2947(4) 0.5673(5) 0.3082(3)
H5_3 H 0.3121 0.5236 0.2758
C12_3 C 0.2172(3) 0.5339(5) 0.3205(3)
C13_3 C 0.1914(4) 0.6030(6) 0.3676(4)
H6_3 H 0.1384 0.5835 0.3757
C14_3 C 0.2432(4) 0.7006(6) 0.4026(3)
H7_3 H 0.2249 0.7458 0.4342
C15_3 C 0.1601(3) 0.4234(5) 0.2858(3)
H8_3 H 0.0995 0.4526 0.2677
H9_3 H 0.1611 0.3581 0.3187
C16_3 C 0.1347(4) 0.3982(5) 0.1647(3)
H10_3 H 0.1193 0.4877 0.1629
H11_3 H 0.1700 0.3850 0.1347
C17_3 C 0.0504(3) 0.3208(5) 0.1398(3)
C18_3 C 0.0354(4) 0.2148(6) 0.1718(3)
H12_3 H 0.0781 0.1886 0.2107
C24_3 C 0.3470(3) 0.0324(5) 0.1503(2)
C25_3 C 0.6182(8) 0.5936(8) 0.4360(6)
C26_3 C 0.6075(10) 0.5311(16) 0.3345(8)
H16_3 H 0.5998 0.4550 0.3080
H17_3 H 0.5605 0.5896 0.3143
H18_3 H 0.6633 0.5694 0.3369
C27_3 C 0.6059(8) 0.3657(12) 0.4144(6)
H19_3 H 0.5932 0.3219 0.3723
H20_3 H 0.6631 0.3403 0.4429
H21_3 H 0.5617 0.3450 0.4355
O3_3 O 0.4605(2) 0.8299(4) 0.4331(2)
O7_2 O 0.3114(3) 0.0705(4) 0.09164(18)
O9_3 O 0.6192(3) 0.7052(4) 0.4266(2)
N1_3 N 0.1878(3) 0.3674(4) 0.2321(2)
N2_3 N 0.6056(5) 0.4987(6) 0.4033(4)
C28_3 C 0.5806(11) 0.5490(15) 0.4986(8)
H22_3 H 0.5755 0.4580 0.4987
H23_3 H 0.6210 0.5767 0.5403
H24_3 H 0.5236 0.5866 0.4928
O15_2 O 0.6056(3) 0.9340(3) 0.33851(18)
O8_2 O 0.3944(3) 0.9340(3) 0.16149(18)
C19_3 C 0.9578(4) 0.1441(6) 0.1479(3)
H13_3 H 0.9488 0.0725 0.1711
C20_3 C 0.8951(3) 0.1807(5) 0.0903(3)
C21_3 C 0.9077(4) 0.2886(7) 0.0583(3)
H14_3 H 0.8641 0.3151 0.0200
C22_3 C 0.9847(4) 0.3592(6) 0.0823(3)
H15_3 H 0.9925 0.4325 0.0598
C23_3 C 0.8125(4) 0.1042(6) 0.0626(3)
O5_3 O 0.8045(3) 0.0081(5) 0.0995(3)
C19_4 C 0.0422(4) 0.1441(6) 0.3521(3)
H13_4 H 0.0512 0.0725 0.3289
C20_4 C 0.1049(3) 0.1807(5) 0.4097(3)
C21_4 C 0.0923(4) 0.2886(7) 0.4417(3)
H14_4 H 0.1359 0.3151 0.4800
C22_4 C 0.0153(4) 0.3592(6) 0.4177(3)
H15_4 H 0.0075 0.4325 0.4402
C23_4 C 0.1875(4) 0.1042(6) 0.4374(3)
O5_4 O 0.1955(3) 0.0081(5) 0.4005(3)
O10_2 O 0.5020(3) 0.0797(3) 0.09256(19)
C1_4 C 0.7476(3) 0.2722(5) 0.2548(2)
C2_4 C 0.7313(3) 0.1995(5) 0.3060(2)
H1_4 H 0.7652 0.2135 0.3501
C3_4 C 0.6661(3) 0.1078(5) 0.2924(2)
C4_4 C 0.6133(3) 0.0857(5) 0.2273(3)
H2_4 H 0.5684 0.0253 0.2183
C5_4 C 0.6292(3) 0.1565(5) 0.1757(2)
C6_4 C 0.6959(3) 0.2468(5) 0.1893(2)
H3_4 H 0.7065 0.2913 0.1541
C7_4 C 0.5753(3) 0.1325(4) 0.1040(2)
C8_4 C 0.6187(3) 0.8318(5) 0.0687(2)
C9_4 C 0.6781(3) 0.7320(5) 0.1088(2)
C10_4 C 0.6528(4) 0.6650(5) 0.1567(3)
H4_4 H 0.6003 0.6855 0.1654
C11_4 C 0.7053(4) 0.5673(5) 0.1918(3)
H5_4 H 0.6879 0.5236 0.2242
C12_4 C 0.7828(3) 0.5339(5) 0.1795(3)
C13_4 C 0.8086(4) 0.6030(6) 0.1324(4)
H6_4 H 0.8616 0.5835 0.1243
C14_4 C 0.7568(4) 0.7006(6) 0.0974(3)
H7_4 H 0.7751 0.7458 0.0658
C15_4 C 0.8399(3) 0.4234(5) 0.2142(3)
H8_4 H 0.9005 0.4526 0.2323
H9_4 H 0.8389 0.3581 0.1813
C16_4 C 0.8653(4) 0.3982(5) 0.3353(3)
H10_4 H 0.8807 0.4877 0.3371
H11_4 H 0.8300 0.3850 0.3653
C17_4 C 0.9496(3) 0.3208(5) 0.3602(3)
C18_4 C 0.9646(4) 0.2148(6) 0.3282(3)
H12_4 H 0.9219 0.1886 0.2893
C24_4 C 0.6530(3) 0.0324(5) 0.3497(2)
C25_4 C 0.3818(8) 0.5936(8) 0.0640(6)
C26_4 C 0.3925(10) 0.5311(16) 0.1655(8)
H16_4 H 0.4002 0.4550 0.1920
H17_4 H 0.4395 0.5896 0.1857
H18_4 H 0.3367 0.5694 0.1631
C27_4 C 0.3941(8) 0.3657(12) 0.0856(6)
H19_4 H 0.4068 0.3219 0.1277
H20_4 H 0.3369 0.3403 0.0571
H21_4 H 0.4383 0.3450 0.0645
O3_4 O 0.5395(2) 0.8299(4) 0.0669(2)
O9_4 O 0.3808(3) 0.7052(4) 0.0734(2)
N1_4 N 0.8122(3) 0.3674(4) 0.2679(2)
N2_4 N 0.3944(5) 0.4987(6) 0.0967(4)
C28_4 C 0.4194(11) 0.5490(15) 0.0014(8)
H22_4 H 0.4245 0.4580 0.0013
H24_4 H 0.4764 0.5866 0.0072
H23_4 H 0.3790 0.5767 0.9597
loop_
_geom_bond_atom_site_label_1
_geom_bond_atom_site_label_2
_geom_bond_site_symmetry_1
_geom_bond_site_symmetry_2
H13 C19 1_555 1_555
C20 C19 1_555 1_555
C21 C20 1_555 1_555
H14 C21 1_555 1_555
H15 C22 1_555 1_555
C23 C20 1_555 1_555
O5 C23 1_555 1_555
O6 C23 1_555 1_555
C21 C22 1_555 1_555
O8 Eu3 1_555 1_555
C1 C2 1_555 1_555
C2 H1 1_555 1_555
C3 C2 1_555 1_555
C4 C3 1_555 1_555
H2 C4 1_555 1_555
C5 C4 1_555 1_555
C6 C1 1_555 1_555
H3 C6 1_555 1_555
C7 C5 1_555 1_555
C8 C9 1_555 1_555
C9 C10 1_555 1_555
C10 H4 1_555 1_555
C11 C10 1_555 1_555
H5 C11 1_555 1_555
C12 C11 1_555 1_555
C13 C12 1_555 1_555
H6 C13 1_555 1_555
C14 C9 1_555 1_555
H7 C14 1_555 1_555
C15 C12 1_555 1_555
H8 C15 1_555 1_555
H9 C15 1_555 1_555
C16 H10 1_555 1_555
H11 C16 1_555 1_555
C17 C16 1_555 1_555
C18 C17 1_555 1_555
H12 C18 1_555 1_555
C24 C3 1_555 1_555
C25 O9 1_555 1_555
C26 H16 1_555 1_555
H17 C26 1_555 1_555
H18 C26 1_555 1_555
C27 H19 1_555 1_555
H20 C27 1_555 1_555
H21 C27 1_555 1_555
O1 C7 1_555 1_555
O2 C7 1_555 1_555
O3 C8 1_555 1_555
O4 C8 1_555 1_555
O7 C24 1_555 1_555
O9 Eu2 1_555 1_555
Eu2 O3 1_555 1_555
N1 C1 1_555 1_555
N2 C25 1_555 1_555
C28 C25 1_555 1_555
H22 C28 1_555 1_555
H23 C28 1_555 1_555
H24 C28 1_555 1_555
O11 Eu2 1_555 1_555
O13 Eu2 1_555 1_555
O15 Eu2 1_555 1_555
Eu5 O2 1_555 1_555
C5 C6 1_555 1_555
C13 C14 1_555 1_555
C15 N1 1_555 1_555
C16 N1 1_555 1_555
C26 N2 1_555 1_555
C27 N2 1_555 1_555
C1_2 C2_2 1_555 1_555
C2_2 H1_2 1_555 1_555
C3_2 C2_2 1_555 1_555
C4_2 C3_2 1_555 1_555
H2_2 C4_2 1_555 1_555
C5_2 C4_2 1_555 1_555
C6_2 C1_2 1_555 1_555
H3_2 C6_2 1_555 1_555
C7_2 C5_2 1_555 1_555
C8_2 C9_2 1_555 1_555
C9_2 C10_2 1_555 1_555
C10_2 H4_2 1_555 1_555
C11_2 C10_2 1_555 1_555
H5_2 C11_2 1_555 1_555
C12_2 C11_2 1_555 1_555
C13_2 C12_2 1_555 1_555
H6_2 C13_2 1_555 1_555
C14_2 C9_2 1_555 1_555
H7_2 C14_2 1_555 1_555
C15_2 C12_2 1_555 1_555
H8_2 C15_2 1_555 1_555
H9_2 C15_2 1_555 1_555
C16_2 H10_2 1_555 1_555
H11_2 C16_2 1_555 1_555
C17_2 C16_2 1_555 1_555
C18_2 C17_2 1_555 1_555
H12_2 C18_2 1_555 1_555
C24_2 C3_2 1_555 1_555
C25_2 O9_2 1_555 1_555
C26_2 H16_2 1_555 1_555
H17_2 C26_2 1_555 1_555
H18_2 C26_2 1_555 1_555
C27_2 H19_2 1_555 1_555
H20_2 C27_2 1_555 1_555
H21_2 C27_2 1_555 1_555
O1_2 C7_2 1_555 1_555
O2_2 C7_2 1_555 1_555
O3_2 C8_2 1_555 1_555
O4_2 C8_2 1_555 1_555
O14 C24_2 1_555 1_555
O9_2 Eu3 1_555 1_555
Eu3 O3_2 1_555 1_555
N1_2 C1_2 1_555 1_555
N2_2 C25_2 1_555 1_555
C28_2 C25_2 1_555 1_555
H22_2 C28_2 1_555 1_555
H24_2 C28_2 1_555 1_555
C5_2 C6_2 1_555 1_555
C13_2 C14_2 1_555 1_555
C15_2 N1_2 1_555 1_555
C16_2 N1_2 1_555 1_555
C26_2 N2_2 1_555 1_555
C27_2 N2_2 1_555 1_555
H13_2 C19_2 1_555 1_555
C20_2 C19_2 1_555 1_555
C21_2 C20_2 1_555 1_555
H14_2 C21_2 1_555 1_555
H15_2 C22_2 1_555 1_555
C23_2 C20_2 1_555 1_555
O5_2 C23_2 1_555 1_555
O6_2 C23_2 1_555 1_555
Eu5 O6_2 1_555 1_555
C21_2 C22_2 1_555 1_555
C1_3 C2_3 1_555 1_555
C2_3 H1_3 1_555 1_555
C3_3 C2_3 1_555 1_555
C4_3 C3_3 1_555 1_555
H2_3 C4_3 1_555 1_555
C5_3 C4_3 1_555 1_555
C6_3 C1_3 1_555 1_555
H3_3 C6_3 1_555 1_555
C7_3 C5_3 1_555 1_555
C8_3 C9_3 1_555 1_555
C9_3 C10_3 1_555 1_555
C10_3 H4_3 1_555 1_555
C11_3 C10_3 1_555 1_555
H5_3 C11_3 1_555 1_555
C12_3 C11_3 1_555 1_555
C13_3 C12_3 1_555 1_555
H6_3 C13_3 1_555 1_555
C14_3 C9_3 1_555 1_555
H7_3 C14_3 1_555 1_555
C15_3 C12_3 1_555 1_555
H8_3 C15_3 1_555 1_555
H9_3 C15_3 1_555 1_555
C16_3 H10_3 1_555 1_555
H11_3 C16_3 1_555 1_555
C17_3 C16_3 1_555 1_555
C18_3 C17_3 1_555 1_555
H12_3 C18_3 1_555 1_555
C24_3 C3_3 1_555 1_555
C25_3 O9_3 1_555 1_555
C26_3 H16_3 1_555 1_555
H17_3 C26_3 1_555 1_555
H18_3 C26_3 1_555 1_555
C27_3 H19_3 1_555 1_555
H20_3 C27_3 1_555 1_555
H21_3 C27_3 1_555 1_555
O10 C7_3 1_555 1_555
O11 C7_3 1_555 1_555
O3_3 C8_3 1_555 1_555
O12 C8_3 1_555 1_555
O7_2 C24_3 1_555 1_555
O9_3 Eu5 1_555 1_555
Eu5 O3_3 1_555 1_555
N1_3 C1_3 1_555 1_555
N2_3 C25_3 1_555 1_555
C28_3 C25_3 1_555 1_555
H22_3 C28_3 1_555 1_555
H23_3 C28_3 1_555 1_555
H24_3 C28_3 1_555 1_555
O15_2 Eu5 1_555 1_555
C5_3 C6_3 1_555 1_555
C13_3 C14_3 1_555 1_555
C15_3 N1_3 1_555 1_555
C16_3 N1_3 1_555 1_555
C26_3 N2_3 1_555 1_555
C27_3 N2_3 1_555 1_555
O8_2 Eu6 1_555 1_555
H13_3 C19_3 1_555 1_555
C20_3 C19_3 1_555 1_555
C21_3 C20_3 1_555 1_555
H14_3 C21_3 1_555 1_555
H15_3 C22_3 1_555 1_555
C23_3 C20_3 1_555 1_555
O5_3 C23_3 1_555 1_555
O13_2 C23_3 1_555 1_555
C21_3 C22_3 1_555 1_555
H13_4 C19_4 1_555 1_555
C20_4 C19_4 1_555 1_555
C21_4 C20_4 1_555 1_555
H14_4 C21_4 1_555 1_555
H15_4 C22_4 1_555 1_555
C23_4 C20_4 1_555 1_555
O5_4 C23_4 1_555 1_555
O13 C23_4 1_555 1_555
C21_4 C22_4 1_555 1_555
C1_4 C2_4 1_555 1_555
C2_4 H1_4 1_555 1_555
C3_4 C2_4 1_555 1_555
C4_4 C3_4 1_555 1_555
H2_4 C4_4 1_555 1_555
C5_4 C4_4 1_555 1_555
C6_4 C1_4 1_555 1_555
H3_4 C6_4 1_555 1_555
C7_4 C5_4 1_555 1_555
C8_4 C9_4 1_555 1_555
C9_4 C10_4 1_555 1_555
C10_4 H4_4 1_555 1_555
C11_4 C10_4 1_555 1_555
H5_4 C11_4 1_555 1_555
C12_4 C11_4 1_555 1_555
C13_4 C12_4 1_555 1_555
H6_4 C13_4 1_555 1_555
C14_4 C9_4 1_555 1_555
H7_4 C14_4 1_555 1_555
C15_4 C12_4 1_555 1_555
H8_4 C15_4 1_555 1_555
H9_4 C15_4 1_555 1_555
C16_4 H10_4 1_555 1_555
H11_4 C16_4 1_555 1_555
C17_4 C16_4 1_555 1_555
C18_4 C17_4 1_555 1_555
H12_4 C18_4 1_555 1_555
C24_4 C3_4 1_555 1_555
C25_4 O9_4 1_555 1_555
C26_4 H16_4 1_555 1_555
H17_4 C26_4 1_555 1_555
H18_4 C26_4 1_555 1_555
C27_4 H19_4 1_555 1_555
H20_4 C27_4 1_555 1_555
H21_4 C27_4 1_555 1_555
O10_2 C7_4 1_555 1_555
O11_2 C7_4 1_555 1_555
O3_4 C8_4 1_555 1_555
O12_2 C8_4 1_555 1_555
O14_2 C24_4 1_555 1_555
O9_4 Eu6 1_555 1_555
Eu6 O3_4 1_555 1_555
N1_4 C1_4 1_555 1_555
N2_4 C25_4 1_555 1_555
C28_4 C25_4 1_555 1_555
H22_4 C28_4 1_555 1_555
H24_4 C28_4 1_555 1_555
C5_4 C6_4 1_555 1_555
C13_4 C14_4 1_555 1_555
C15_4 N1_4 1_555 1_555
C16_4 N1_4 1_555 1_555
C26_4 N2_4 1_555 1_555
C27_4 N2_4 1_555 1_555

#END
