
###############################################################################
#
# This file contains modified crystal structure data generated from the
# MOF subset of the Cambridge Structural Database (CSD) v543 
# hosted by the Cambridge Crystallographic Data Centre (CCDC).
#
# This work is licensed under the Creative Commons
# Attribution-NonCommercial-ShareAlike 4.0 International License.
# To view a copy of this license, visit
# http://creativecommons.org/licenses/by-nc-sa/4.0/
# or send a letter to
# Creative Commons, PO Box 1866, Mountain View, CA 94042, USA.
#
# CIF created using the CSD Python API on 29 September 2022
# The structure has been converted into the P1 space group
# The structure has a 3D framework
# The original CSD entry GARMAQ is in the monoclinic crystal system
# The framework has been calculated to contain at least 10.0% void space
# The void calculation uses a probe of radius 1.32A, grid spacing 0.4
#
###############################################################################

data_GARMAQ
_chemical_formula_moiety         '(C112 H96 Gd4 N8 O32)n'
_symmetry_cell_setting           triclinic
_symmetry_space_group_name_H-M   'P 1'
_symmetry_Int_Tables_number      1
_space_group_name_Hall           'P 1'
loop_
_symmetry_equiv_pos_site_id
_symmetry_equiv_pos_as_xyz
1 x,y,z
_cell_length_a                   15.894(5)
_cell_length_b                   10.491(5)
_cell_length_c                   20.909(5)
_cell_angle_alpha                90
_cell_angle_beta                 107.841(5)
_cell_angle_gamma                90
_cell_volume                     3318.79
loop_
_atom_site_label
_atom_site_type_symbol
_atom_site_fract_x
_atom_site_fract_y
_atom_site_fract_z
Gd6 Gd 0.399375(19) 0.92182(3) 0.045543(14)
C3 C 0.0158(5) 0.6410(9) 0.9175(4)
H3 H 0.0080 0.5673 0.9397
C4 C 0.0932(5) 0.7109(9) 0.9418(4)
H4 H 0.1368 0.6836 0.9801
C5 C 0.1059(5) 0.8206(8) 0.9095(4)
C6 C 0.0423(5) 0.8568(9) 0.8512(5)
H5 H 0.0511 0.9282 0.8277
C8 C 0.1876(5) 0.8948(8) 0.9365(4)
O8 O 0.1964(4) 0.9907(7) 0.8996(4)
O9 O 0.2433(3) 0.8664(6) 0.9892(2)
O2 O 0.6051(4) 0.0665(5) 0.8388(2)
Gd2 Gd 0.399375(19) 0.07818(3) 0.545543(14)
Gd3 Gd 0.600625(19) 0.07818(3) 0.954457(14)
C1 C 0.8661(5) 0.6025(7) 0.8361(4)
H1 H 0.8815 0.5128 0.8378
H2 H 0.8314 0.6157 0.8665
C2 C 0.9504(5) 0.6803(8) 0.8606(4)
C7 C 0.9649(5) 0.7865(9) 0.8276(4)
H6 H 0.9220 0.8123 0.7885
C9 C 0.7482(4) 0.7282(6) 0.7558(3)
C10 C 0.7315(4) 0.8010(7) 0.8070(3)
H7 H 0.7655 0.7875 0.8513
C11 C 0.6660(4) 0.8919(7) 0.7928(3)
C12 C 0.6130(5) 0.9143(6) 0.7278(4)
H8 H 0.5680 0.9746 0.7188
C13 C 0.6288(4) 0.8443(6) 0.6760(3)
C14 C 0.6956(4) 0.7539(7) 0.6894(3)
H9 H 0.7059 0.7095 0.6540
C15 C 0.5750(4) 0.8673(7) 0.6037(3)
C16 C 0.6531(4) 0.9684(7) 0.8509(3)
C17 C 0.8388(5) 0.5770(7) 0.7149(4)
H10 H 0.8992 0.5472 0.7332
H11 H 0.8382 0.6424 0.6820
C18 C 0.7052(5) 0.4328(8) 0.6926(4)
H12 H 0.6883 0.4762 0.7254
C19 C 0.7820(4) 0.4673(7) 0.6797(4)
C20 C 0.6528(5) 0.3348(7) 0.6575(4)
H13 H 0.6007 0.3138 0.6665
C21 C 0.6773(4) 0.2686(6) 0.6095(3)
C22 C 0.6179(4) 0.1671(7) 0.5688(3)
C23 C 0.7555(5) 0.2983(9) 0.5978(5)
H14 H 0.7739 0.2508 0.5670
C24 C 0.8074(6) 0.3989(9) 0.6318(5)
H15 H 0.8591 0.4204 0.6223
C25 C 0.3831(10) 0.4053(11) 0.5629(8)
C26 C 0.4300(14) 0.4434(19) 0.5111(10)
H16 H 0.4304 0.5345 0.5073
H17 H 0.3990 0.4070 0.4682
H18 H 0.4896 0.4123 0.5256
C27 C 0.3978(14) 0.465(2) 0.6647(11)
H19 H 0.4049 0.5400 0.6920
H20 H 0.4470 0.4086 0.6831
H21 H 0.3440 0.4223 0.6641
C28 C 0.3928(11) 0.6360(17) 0.5850(9)
H22 H 0.4045 0.6794 0.6273
H23 H 0.3358 0.6611 0.5559
H24 H 0.4373 0.6580 0.5647
N1 N 0.8119(4) 0.6335(6) 0.7684(3)
N2 N 0.3938(7) 0.5005(9) 0.5959(6)
O1 O 0.3817(4) 0.2934(5) 0.5728(3)
O3 O 0.5393(3) 0.1686(6) 0.5679(3)
O4 O 0.6510(3) 0.0873(4) 0.5386(3)
O5 O 0.6072(3) 0.8313(5) 0.5593(2)
O6 O 0.5009(4) 0.9205(5) 0.5925(3)
O7 O 0.6884(4) 0.9299(5) 0.9095(2)
O10 O 0.3949(4) 0.0665(5) 0.6612(2)
O12 O 0.3928(3) 0.1687(5) 0.4407(2)
O15 O 0.2433(3) 0.1336(6) 0.4892(2)
Gd5 Gd 0.600625(19) 0.92182(3) 0.454457(14)
O11 O 0.3490(3) 0.9127(4) 0.4614(3)
O14 O 0.3116(4) 0.9299(5) 0.5905(2)
H17_2 H 0.6010 0.4070 0.0318
O12_2 O 0.6072(3) 0.1687(5) 0.0593(2)
O15_2 O 0.7567(3) 0.1336(6) 0.0108(2)
C1_2 C 0.1339(5) 0.6025(7) 0.6639(4)
H1_2 H 0.1185 0.5128 0.6622
H2_2 H 0.1686 0.6157 0.6335
C2_2 C 0.0496(5) 0.6803(8) 0.6394(4)
C7_2 C 0.0351(5) 0.7865(9) 0.6724(4)
H6_2 H 0.0780 0.8123 0.7115
C9_2 C 0.2518(4) 0.7282(6) 0.7442(3)
C10_2 C 0.2685(4) 0.8010(7) 0.6930(3)
H7_2 H 0.2345 0.7875 0.6487
C11_2 C 0.3340(4) 0.8919(7) 0.7072(3)
C12_2 C 0.3870(5) 0.9143(6) 0.7722(4)
H8_2 H 0.4320 0.9746 0.7812
C13_2 C 0.3712(4) 0.8443(6) 0.8240(3)
C14_2 C 0.3044(4) 0.7539(7) 0.8106(3)
H9_2 H 0.2941 0.7095 0.8460
C15_2 C 0.4250(4) 0.8673(7) 0.8963(3)
C16_2 C 0.3469(4) 0.9684(7) 0.6491(3)
C17_2 C 0.1612(5) 0.5770(7) 0.7851(4)
H10_2 H 0.1008 0.5472 0.7668
H11_2 H 0.1618 0.6424 0.8180
C18_2 C 0.2948(5) 0.4328(8) 0.8074(4)
H12_2 H 0.3117 0.4762 0.7746
C19_2 C 0.2180(4) 0.4673(7) 0.8203(4)
C20_2 C 0.3472(5) 0.3348(7) 0.8425(4)
H13_2 H 0.3993 0.3138 0.8335
C21_2 C 0.3227(4) 0.2686(6) 0.8905(3)
C22_2 C 0.3821(4) 0.1671(7) 0.9312(3)
C23_2 C 0.2445(5) 0.2983(9) 0.9022(5)
H14_2 H 0.2261 0.2508 0.9330
C24_2 C 0.1926(6) 0.3989(9) 0.8682(5)
H15_2 H 0.1409 0.4204 0.8777
C25_2 C 0.6169(10) 0.4053(11) 0.9371(8)
C26_2 C 0.5700(14) 0.4434(19) 0.9889(10)
H16_2 H 0.5696 0.5345 0.9927
H18_2 H 0.5104 0.4123 0.9744
C27_2 C 0.6022(14) 0.465(2) 0.8353(11)
H19_2 H 0.5951 0.5400 0.8080
H20_2 H 0.5530 0.4086 0.8169
H21_2 H 0.6560 0.4223 0.8359
C28_2 C 0.6072(11) 0.6360(17) 0.9150(9)
H22_2 H 0.5955 0.6794 0.8727
H23_2 H 0.6642 0.6611 0.9441
H24_2 H 0.5627 0.6580 0.9353
N1_2 N 0.1881(4) 0.6335(6) 0.7316(3)
N2_2 N 0.6062(7) 0.5005(9) 0.9041(6)
O1_2 O 0.6183(4) 0.2934(5) 0.9272(3)
O3_2 O 0.4607(3) 0.1686(6) 0.9321(3)
O4_2 O 0.3490(3) 0.0873(4) 0.9614(3)
O5_2 O 0.3928(3) 0.8313(5) 0.9407(2)
O6_2 O 0.4991(4) 0.9205(5) 0.9075(3)
O11_2 O 0.6510(3) 0.9127(4) 0.0386(3)
C3_2 C 0.9842(5) 0.6410(9) 0.5825(4)
H3_2 H 0.9920 0.5673 0.5603
C4_2 C 0.9068(5) 0.7109(9) 0.5582(4)
H4_2 H 0.8632 0.6836 0.5199
C5_2 C 0.8941(5) 0.8206(8) 0.5905(4)
C6_2 C 0.9577(5) 0.8568(9) 0.6488(5)
H5_2 H 0.9489 0.9282 0.6723
C8_2 C 0.8124(5) 0.8948(8) 0.5635(4)
O8_2 O 0.8036(4) 0.9907(7) 0.6004(4)
O9_2 O 0.7567(3) 0.8664(6) 0.5108(2)
O13 O 0.4991(4) 0.0795(5) 0.4075(3)
O14_2 O 0.6884(4) 0.0701(5) 0.4095(2)
C1_3 C 0.1339(5) 0.3975(7) 0.1639(4)
H1_3 H 0.1185 0.4872 0.1622
H2_3 H 0.1686 0.3843 0.1335
C2_3 C 0.0496(5) 0.3197(8) 0.1394(4)
C7_3 C 0.0351(5) 0.2135(9) 0.1724(4)
H6_3 H 0.0780 0.1877 0.2115
C9_3 C 0.2518(4) 0.2718(6) 0.2442(3)
C10_3 C 0.2685(4) 0.1990(7) 0.1930(3)
H7_3 H 0.2345 0.2125 0.1487
C11_3 C 0.3340(4) 0.1081(7) 0.2072(3)
C12_3 C 0.3870(5) 0.0857(6) 0.2722(4)
H8_3 H 0.4320 0.0254 0.2812
C13_3 C 0.3712(4) 0.1557(6) 0.3240(3)
C14_3 C 0.3044(4) 0.2461(7) 0.3106(3)
H9_3 H 0.2941 0.2905 0.3460
C15_3 C 0.4250(4) 0.1327(7) 0.3963(3)
C16_3 C 0.3469(4) 0.0316(7) 0.1491(3)
C17_3 C 0.1612(5) 0.4230(7) 0.2851(4)
H10_3 H 0.1008 0.4528 0.2668
H11_3 H 0.1618 0.3576 0.3180
C18_3 C 0.2948(5) 0.5672(8) 0.3074(4)
H12_3 H 0.3117 0.5238 0.2746
C19_3 C 0.2180(4) 0.5327(7) 0.3203(4)
C20_3 C 0.3472(5) 0.6652(7) 0.3425(4)
H13_3 H 0.3993 0.6862 0.3335
C21_3 C 0.3227(4) 0.7314(6) 0.3905(3)
C22_3 C 0.3821(4) 0.8329(7) 0.4312(3)
C23_3 C 0.2445(5) 0.7017(9) 0.4022(5)
H14_3 H 0.2261 0.7492 0.4330
C24_3 C 0.1926(6) 0.6011(9) 0.3682(5)
H15_3 H 0.1409 0.5796 0.3777
C25_3 C 0.6169(10) 0.5947(11) 0.4371(8)
C26_3 C 0.5700(14) 0.5566(19) 0.4889(10)
H16_3 H 0.5696 0.4655 0.4927
H17_3 H 0.6010 0.5930 0.5318
H18_3 H 0.5104 0.5877 0.4744
C27_3 C 0.6022(14) 0.535(2) 0.3353(11)
H19_3 H 0.5951 0.4600 0.3080
H20_3 H 0.5530 0.5914 0.3169
H21_3 H 0.6560 0.5777 0.3359
C28_3 C 0.6072(11) 0.3640(17) 0.4150(9)
H22_3 H 0.5955 0.3206 0.3727
H23_3 H 0.6642 0.3389 0.4441
H24_3 H 0.5627 0.3420 0.4353
N1_3 N 0.1881(4) 0.3665(6) 0.2316(3)
N2_3 N 0.6062(7) 0.4995(9) 0.4041(6)
O1_3 O 0.6183(4) 0.7066(5) 0.4272(3)
O3_3 O 0.4607(3) 0.8314(6) 0.4321(3)
O7_2 O 0.3116(4) 0.0701(5) 0.0905(2)
O10_2 O 0.6051(4) 0.9335(5) 0.3388(2)
O2_2 O 0.3949(4) 0.9335(5) 0.1612(2)
C3_3 C 0.9842(5) 0.3590(9) 0.0825(4)
H3_3 H 0.9920 0.4327 0.0603
C4_3 C 0.9068(5) 0.2891(9) 0.0582(4)
H4_3 H 0.8632 0.3164 0.0199
C5_3 C 0.8941(5) 0.1794(8) 0.0905(4)
C6_3 C 0.9577(5) 0.1432(9) 0.1488(5)
H5_3 H 0.9489 0.0718 0.1723
C8_3 C 0.8124(5) 0.1052(8) 0.0635(4)
O8_3 O 0.8036(4) 0.0093(7) 0.1004(4)
C3_4 C 0.0158(5) 0.3590(9) 0.4175(4)
H3_4 H 0.0080 0.4327 0.4397
C4_4 C 0.0932(5) 0.2891(9) 0.4418(4)
H4_4 H 0.1368 0.3164 0.4801
C5_4 C 0.1059(5) 0.1794(8) 0.4095(4)
C6_4 C 0.0423(5) 0.1432(9) 0.3512(5)
H5_4 H 0.0511 0.0718 0.3277
C8_4 C 0.1876(5) 0.1052(8) 0.4365(4)
O8_4 O 0.1964(4) 0.0093(7) 0.3996(4)
O13_2 O 0.5009(4) 0.0795(5) 0.0925(3)
C1_4 C 0.8661(5) 0.3975(7) 0.3361(4)
H1_4 H 0.8815 0.4872 0.3378
H2_4 H 0.8314 0.3843 0.3665
C2_4 C 0.9504(5) 0.3197(8) 0.3606(4)
C7_4 C 0.9649(5) 0.2135(9) 0.3276(4)
H6_4 H 0.9220 0.1877 0.2885
C9_4 C 0.7482(4) 0.2718(6) 0.2558(3)
C10_4 C 0.7315(4) 0.1990(7) 0.3070(3)
H7_4 H 0.7655 0.2125 0.3513
C11_4 C 0.6660(4) 0.1081(7) 0.2928(3)
C12_4 C 0.6130(5) 0.0857(6) 0.2278(4)
H8_4 H 0.5680 0.0254 0.2188
C13_4 C 0.6288(4) 0.1557(6) 0.1760(3)
C14_4 C 0.6956(4) 0.2461(7) 0.1894(3)
H9_4 H 0.7059 0.2905 0.1540
C15_4 C 0.5750(4) 0.1327(7) 0.1037(3)
C16_4 C 0.6531(4) 0.0316(7) 0.3509(3)
C17_4 C 0.8388(5) 0.4230(7) 0.2149(4)
H10_4 H 0.8992 0.4528 0.2332
H11_4 H 0.8382 0.3576 0.1820
C18_4 C 0.7052(5) 0.5672(8) 0.1926(4)
H12_4 H 0.6883 0.5238 0.2254
C19_4 C 0.7820(4) 0.5327(7) 0.1797(4)
C20_4 C 0.6528(5) 0.6652(7) 0.1575(4)
H13_4 H 0.6007 0.6862 0.1665
C21_4 C 0.6773(4) 0.7314(6) 0.1095(3)
C22_4 C 0.6179(4) 0.8329(7) 0.0688(3)
C23_4 C 0.7555(5) 0.7017(9) 0.0978(5)
H14_4 H 0.7739 0.7492 0.0670
C24_4 C 0.8074(6) 0.6011(9) 0.1318(5)
H15_4 H 0.8591 0.5796 0.1223
C25_4 C 0.3831(10) 0.5947(11) 0.0629(8)
C26_4 C 0.4300(14) 0.5566(19) 0.0111(10)
H16_4 H 0.4304 0.4655 0.0073
H18_4 H 0.4896 0.5877 0.0256
C27_4 C 0.3978(14) 0.535(2) 0.1647(11)
H19_4 H 0.4049 0.4600 0.1920
H20_4 H 0.4470 0.5914 0.1831
H21_4 H 0.3440 0.5777 0.1641
C28_4 C 0.3928(11) 0.3640(17) 0.0850(9)
H22_4 H 0.4045 0.3206 0.1273
H23_4 H 0.3358 0.3389 0.0559
H24_4 H 0.4373 0.3420 0.0647
N1_4 N 0.8119(4) 0.3665(6) 0.2684(3)
N2_4 N 0.3938(7) 0.4995(9) 0.0959(6)
O1_4 O 0.3817(4) 0.7066(5) 0.0728(3)
O3_4 O 0.5393(3) 0.8314(6) 0.0679(3)
H17_4 H 0.3990 0.5930 0.9682
loop_
_geom_bond_atom_site_label_1
_geom_bond_atom_site_label_2
_geom_bond_site_symmetry_1
_geom_bond_site_symmetry_2
H3 C3 1_555 1_555
C4 C3 1_555 1_555
H4 C4 1_555 1_555
C5 C4 1_555 1_555
C6 C5 1_555 1_555
H5 C6 1_555 1_555
C8 C5 1_555 1_555
O8 C8 1_555 1_555
O9 C8 1_555 1_555
Gd3 O2 1_555 1_555
C1 H1 1_555 1_555
H2 C1 1_555 1_555
C2 C1 1_555 1_555
C7 C2 1_555 1_555
H6 C7 1_555 1_555
C9 C10 1_555 1_555
C10 H7 1_555 1_555
C11 C10 1_555 1_555
C12 C11 1_555 1_555
H8 C12 1_555 1_555
C13 C12 1_555 1_555
C14 C9 1_555 1_555
H9 C14 1_555 1_555
C15 C13 1_555 1_555
C16 C11 1_555 1_555
C17 H10 1_555 1_555
H11 C17 1_555 1_555
C18 H12 1_555 1_555
C19 C17 1_555 1_555
C20 C18 1_555 1_555
H13 C20 1_555 1_555
C21 C20 1_555 1_555
C22 C21 1_555 1_555
C23 C21 1_555 1_555
H14 C23 1_555 1_555
C24 C19 1_555 1_555
H15 C24 1_555 1_555
C25 C26 1_555 1_555
C26 H16 1_555 1_555
H17 C26 1_555 1_555
H18 C26 1_555 1_555
C27 H19 1_555 1_555
H20 C27 1_555 1_555
H21 C27 1_555 1_555
C28 H22 1_555 1_555
H23 C28 1_555 1_555
H24 C28 1_555 1_555
N1 C1 1_555 1_555
N2 C25 1_555 1_555
O1 C25 1_555 1_555
O3 C22 1_555 1_555
O4 C22 1_555 1_555
O5 C15 1_555 1_555
O6 C15 1_555 1_555
O7 C16 1_555 1_555
Gd2 O1 1_555 1_555
O10 Gd2 1_555 1_555
O12 Gd2 1_555 1_555
O15 Gd2 1_555 1_555
Gd5 O5 1_555 1_555
C9 N1 1_555 1_555
C13 C14 1_555 1_555
C17 N1 1_555 1_555
C18 C19 1_555 1_555
C23 C24 1_555 1_555
C27 N2 1_555 1_555
C28 N2 1_555 1_555
O3 Gd2 1_555 1_555
C1_2 H1_2 1_555 1_555
H2_2 C1_2 1_555 1_555
C2_2 C1_2 1_555 1_555
C7_2 C2_2 1_555 1_555
H6_2 C7_2 1_555 1_555
C9_2 C10_2 1_555 1_555
C10_2 H7_2 1_555 1_555
C11_2 C10_2 1_555 1_555
C12_2 C11_2 1_555 1_555
H8_2 C12_2 1_555 1_555
C13_2 C12_2 1_555 1_555
C14_2 C9_2 1_555 1_555
H9_2 C14_2 1_555 1_555
C15_2 C13_2 1_555 1_555
C16_2 C11_2 1_555 1_555
C17_2 H10_2 1_555 1_555
H11_2 C17_2 1_555 1_555
C18_2 H12_2 1_555 1_555
C19_2 C17_2 1_555 1_555
C20_2 C18_2 1_555 1_555
H13_2 C20_2 1_555 1_555
C21_2 C20_2 1_555 1_555
C22_2 C21_2 1_555 1_555
C23_2 C21_2 1_555 1_555
H14_2 C23_2 1_555 1_555
C24_2 C19_2 1_555 1_555
H15_2 C24_2 1_555 1_555
C25_2 C26_2 1_555 1_555
C26_2 H16_2 1_555 1_555
H18_2 C26_2 1_555 1_555
C27_2 H19_2 1_555 1_555
H20_2 C27_2 1_555 1_555
H21_2 C27_2 1_555 1_555
C28_2 H22_2 1_555 1_555
H23_2 C28_2 1_555 1_555
H24_2 C28_2 1_555 1_555
N1_2 C1_2 1_555 1_555
N2_2 C25_2 1_555 1_555
O1_2 C25_2 1_555 1_555
O3_2 C22_2 1_555 1_555
O4_2 C22_2 1_555 1_555
O5_2 C15_2 1_555 1_555
O6_2 C15_2 1_555 1_555
O14 C16_2 1_555 1_555
Gd3 O1_2 1_555 1_555
C9_2 N1_2 1_555 1_555
C13_2 C14_2 1_555 1_555
C17_2 N1_2 1_555 1_555
C18_2 C19_2 1_555 1_555
C23_2 C24_2 1_555 1_555
C27_2 N2_2 1_555 1_555
C28_2 N2_2 1_555 1_555
O3_2 Gd3 1_555 1_555
H3_2 C3_2 1_555 1_555
C4_2 C3_2 1_555 1_555
H4_2 C4_2 1_555 1_555
C5_2 C4_2 1_555 1_555
C6_2 C5_2 1_555 1_555
H5_2 C6_2 1_555 1_555
C8_2 C5_2 1_555 1_555
O8_2 C8_2 1_555 1_555
O9_2 C8_2 1_555 1_555
Gd5 O9_2 1_555 1_555
C1_3 H1_3 1_555 1_555
H2_3 C1_3 1_555 1_555
C2_3 C1_3 1_555 1_555
C7_3 C2_3 1_555 1_555
H6_3 C7_3 1_555 1_555
C9_3 C10_3 1_555 1_555
C10_3 H7_3 1_555 1_555
C11_3 C10_3 1_555 1_555
C12_3 C11_3 1_555 1_555
H8_3 C12_3 1_555 1_555
C13_3 C12_3 1_555 1_555
C14_3 C9_3 1_555 1_555
H9_3 C14_3 1_555 1_555
C15_3 C13_3 1_555 1_555
C16_3 C11_3 1_555 1_555
C17_3 H10_3 1_555 1_555
H11_3 C17_3 1_555 1_555
C18_3 H12_3 1_555 1_555
C19_3 C17_3 1_555 1_555
C20_3 C18_3 1_555 1_555
H13_3 C20_3 1_555 1_555
C21_3 C20_3 1_555 1_555
C22_3 C21_3 1_555 1_555
C23_3 C21_3 1_555 1_555
H14_3 C23_3 1_555 1_555
C24_3 C19_3 1_555 1_555
H15_3 C24_3 1_555 1_555
C25_3 C26_3 1_555 1_555
C26_3 H16_3 1_555 1_555
H17_3 C26_3 1_555 1_555
H18_3 C26_3 1_555 1_555
C27_3 H19_3 1_555 1_555
H20_3 C27_3 1_555 1_555
H21_3 C27_3 1_555 1_555
C28_3 H22_3 1_555 1_555
H23_3 C28_3 1_555 1_555
H24_3 C28_3 1_555 1_555
N1_3 C1_3 1_555 1_555
N2_3 C25_3 1_555 1_555
O1_3 C25_3 1_555 1_555
O3_3 C22_3 1_555 1_555
O11 C22_3 1_555 1_555
O12 C15_3 1_555 1_555
O13 C15_3 1_555 1_555
O7_2 C16_3 1_555 1_555
Gd5 O1_3 1_555 1_555
O10_2 Gd5 1_555 1_555
C9_3 N1_3 1_555 1_555
C13_3 C14_3 1_555 1_555
C17_3 N1_3 1_555 1_555
C18_3 C19_3 1_555 1_555
C23_3 C24_3 1_555 1_555
C27_3 N2_3 1_555 1_555
C28_3 N2_3 1_555 1_555
O3_3 Gd5 1_555 1_555
Gd6 O2_2 1_555 1_555
H3_3 C3_3 1_555 1_555
C4_3 C3_3 1_555 1_555
H4_3 C4_3 1_555 1_555
C5_3 C4_3 1_555 1_555
C6_3 C5_3 1_555 1_555
H5_3 C6_3 1_555 1_555
C8_3 C5_3 1_555 1_555
O8_3 C8_3 1_555 1_555
O15_2 C8_3 1_555 1_555
H3_4 C3_4 1_555 1_555
C4_4 C3_4 1_555 1_555
H4_4 C4_4 1_555 1_555
C5_4 C4_4 1_555 1_555
C6_4 C5_4 1_555 1_555
H5_4 C6_4 1_555 1_555
C8_4 C5_4 1_555 1_555
O8_4 C8_4 1_555 1_555
O15 C8_4 1_555 1_555
C1_4 H1_4 1_555 1_555
H2_4 C1_4 1_555 1_555
C2_4 C1_4 1_555 1_555
C7_4 C2_4 1_555 1_555
H6_4 C7_4 1_555 1_555
C9_4 C10_4 1_555 1_555
C10_4 H7_4 1_555 1_555
C11_4 C10_4 1_555 1_555
C12_4 C11_4 1_555 1_555
H8_4 C12_4 1_555 1_555
C13_4 C12_4 1_555 1_555
C14_4 C9_4 1_555 1_555
H9_4 C14_4 1_555 1_555
C15_4 C13_4 1_555 1_555
C16_4 C11_4 1_555 1_555
C17_4 H10_4 1_555 1_555
H11_4 C17_4 1_555 1_555
C18_4 H12_4 1_555 1_555
C19_4 C17_4 1_555 1_555
C20_4 C18_4 1_555 1_555
H13_4 C20_4 1_555 1_555
C21_4 C20_4 1_555 1_555
C22_4 C21_4 1_555 1_555
C23_4 C21_4 1_555 1_555
H14_4 C23_4 1_555 1_555
C24_4 C19_4 1_555 1_555
H15_4 C24_4 1_555 1_555
C25_4 C26_4 1_555 1_555
C26_4 H16_4 1_555 1_555
H18_4 C26_4 1_555 1_555
C27_4 H19_4 1_555 1_555
H20_4 C27_4 1_555 1_555
H21_4 C27_4 1_555 1_555
C28_4 H22_4 1_555 1_555
H23_4 C28_4 1_555 1_555
H24_4 C28_4 1_555 1_555
N1_4 C1_4 1_555 1_555
N2_4 C25_4 1_555 1_555
O1_4 C25_4 1_555 1_555
O3_4 C22_4 1_555 1_555
O11_2 C22_4 1_555 1_555
O12_2 C15_4 1_555 1_555
O13_2 C15_4 1_555 1_555
O14_2 C16_4 1_555 1_555
Gd6 O1_4 1_555 1_555
C9_4 N1_4 1_555 1_555
C13_4 C14_4 1_555 1_555
C17_4 N1_4 1_555 1_555
C18_4 C19_4 1_555 1_555
C23_4 C24_4 1_555 1_555
C27_4 N2_4 1_555 1_555
C28_4 N2_4 1_555 1_555
O3_4 Gd6 1_555 1_555

#END
