
###############################################################################
#
# This file contains modified crystal structure data generated from the
# MOF subset of the Cambridge Structural Database (CSD) v543 
# hosted by the Cambridge Crystallographic Data Centre (CCDC).
#
# This work is licensed under the Creative Commons
# Attribution-NonCommercial-ShareAlike 4.0 International License.
# To view a copy of this license, visit
# http://creativecommons.org/licenses/by-nc-sa/4.0/
# or send a letter to
# Creative Commons, PO Box 1866, Mountain View, CA 94042, USA.
#
# CIF created using the CSD Python API on 29 September 2022
# The structure has been converted into the P1 space group
# The structure has a 3D framework
# The original CSD entry GARQEY is in the rhombohedral crystal system
# The framework has been calculated to contain at least 10.0% void space
# The void calculation uses a probe of radius 1.32A, grid spacing 0.4
#
###############################################################################

data_GARQEY
_chemical_formula_moiety         '(C432 H396 N72 O72 Zn18)n'
_symmetry_cell_setting           triclinic
_symmetry_space_group_name_H-M   'P 1'
_symmetry_Int_Tables_number      1
_space_group_name_Hall           'P 1'
loop_
_symmetry_equiv_pos_site_id
_symmetry_equiv_pos_as_xyz
1 x,y,z
_cell_length_a                   36.3922(7)
_cell_length_b                   36.3922(7)
_cell_length_c                   11.2519(3)
_cell_angle_alpha                90
_cell_angle_beta                 90
_cell_angle_gamma                120
_cell_volume                     12905.4
loop_
_atom_site_label
_atom_site_type_symbol
_atom_site_fract_x
_atom_site_fract_y
_atom_site_fract_z
C1 C 0.25321(11) 0.00753(12) 0.0371(3)
C4 C 0.26425(12) 0.05006(13) 0.0400(4)
C15 C 0.31476(12) 0.00108(13) 0.1036(3)
H3 H 0.3327 0.0272 0.0684
C21 C 0.29415(19) 0.08568(18) 0.1187(6)
H15 H 0.3073 0.0755 0.1734
H16 H 0.3156 0.1080 0.0709
H17 H 0.2788 0.0964 0.1620
Zn1 Zn 0.19897(2) 0.02290(2) 0.72981(4)
N1 N 0.21640(9) 0.01879(9) 0.8964(3)
N4 N 0.24167(10) 0.05517(11) 0.9556(3)
H14 H 0.0974 0.0004 0.7460
H21 H 0.2387(11) 0.0752(12) 0.942(3)
O5 O 0.18561(10) 0.06741(13) 0.7094(3)
O6 O 0.24704(12) 0.03600(9) 0.6310(3)
O1 O 0.88180(8) 0.81439(10) 0.7094(3)
C6 C 0.90470(12) 0.80767(13) 0.7797(4)
C9 C 0.95131(11) 0.83105(12) 0.7512(4)
O4 O 0.89240(9) 0.78514(12) 0.8691(4)
C22 C 0.96564(13) 0.84815(18) 0.6423(4)
H18 H 0.9462 0.8440 0.5826
C23 C 0.98070(14) 0.83756(18) 0.8384(5)
H19 H 0.9716 0.8253 0.9130
Zn2 Zn 0.82393(3) 0.80103(2) 0.72981(4)
N2 N 0.06278(10) 0.21302(13) 0.6283(3)
N3 N 0.03213(10) 0.17944(13) 0.6875(3)
C2 C 0.01026(11) 0.23374(16) 0.9460(3)
C5 C 0.09135(13) 0.17556(17) 0.6824(4)
C6_2 C 0.19233(13) 0.09703(18) 0.7797(4)
C7 C 0.09900(13) 0.21182(16) 0.6234(3)
C9_2 C 0.16895(12) 0.12026(16) 0.7512(4)
O4_2 O 0.21486(12) 0.10726(15) 0.8691(4)
C11 C 0.04944(14) 0.15642(18) 0.7215(4)
C12 C 0.12038(13) 0.15845(17) 0.7037(4)
C17 C 0.05529(13) 0.25614(21) 0.9030(4)
H5 H 0.0716 0.2814 0.9487
H6 H 0.0670 0.2378 0.9119
H7 H 0.0560 0.2634 0.8207
C18 C 0.13744(14) 0.24533(20) 0.5628(4)
H8 H 0.1599 0.2388 0.5689
H9 H 0.1312 0.2466 0.4805
H10 H 0.1461 0.2722 0.5997
C19 C 0.12811(19) 0.13709(23) 0.6180(4)
H11 H 0.1175 0.1355 0.5419
C20 C 0.02399(18) 0.11653(23) 0.7914(6)
H12 H 0.0411 0.1039 0.8084
H13 H 0.0149 0.1231 0.8645
C22_2 C 0.15185(18) 0.11749(22) 0.6423(4)
H18_2 H 0.1560 0.1022 0.5826
C23_2 C 0.16244(18) 0.14314(23) 0.8384(5)
H19_2 H 0.1747 0.1463 0.9130
C24 C 0.13761(19) 0.16144(24) 0.8150(5)
H20 H 0.1325 0.1758 0.8751
H22 H 0.0587(13) 0.2328(19) 0.607(4)
Zn1_2 Zn 0.97710(2) 0.17607(3) 0.72981(4)
N1_2 N 0.98121(9) 0.19761(13) 0.8964(3)
N4_2 N 0.94483(11) 0.18650(15) 0.9556(3)
H14_2 H 0.9996 0.0970 0.7460
H21_2 H 0.9248(12) 0.1635(16) 0.942(3)
O5_2 O 0.93259(13) 0.11820(16) 0.7094(3)
O6_2 O 0.96400(9) 0.21103(15) 0.6310(3)
C6_3 C 0.90297(18) 0.09530(12) 0.7797(4)
C9_3 C 0.87974(16) 0.04869(11) 0.7512(4)
O4_3 O 0.89274(15) 0.10760(9) 0.8691(4)
C22_3 C 0.88251(22) 0.03436(13) 0.6423(4)
H18_3 H 0.8978 0.0538 0.5826
C23_3 C 0.85686(23) 0.01930(14) 0.8384(5)
H19_3 H 0.8537 0.0284 0.9130
N1_3 N 0.80239(13) 0.78360(9) 0.8964(3)
N2_2 N 0.78698(13) 0.84976(9) 0.6283(3)
N3_2 N 0.82056(13) 0.85269(8) 0.6875(3)
N4_3 N 0.81350(15) 0.75833(10) 0.9556(3)
C2_2 C 0.76626(16) 0.77652(12) 0.9460(3)
C5_2 C 0.82444(17) 0.91579(11) 0.6824(4)
C7_2 C 0.78818(16) 0.88718(10) 0.6234(3)
C11_2 C 0.84358(18) 0.89302(11) 0.7215(4)
C12_2 C 0.84155(17) 0.96193(11) 0.7037(4)
C17_2 C 0.74386(21) 0.79915(16) 0.9030(4)
H5_2 H 0.7186 0.7902 0.9487
H6_2 H 0.7622 0.8292 0.9119
H7_2 H 0.7366 0.7926 0.8207
C18_2 C 0.75467(20) 0.89211(14) 0.5628(4)
H8_2 H 0.7612 0.9211 0.5689
H9_2 H 0.7534 0.8846 0.4805
H10_2 H 0.7278 0.8739 0.5997
C19_2 C 0.86291(23) 0.99102(13) 0.6180(4)
H11_2 H 0.8645 0.9820 0.5419
C20_2 C 0.88347(23) 0.90746(15) 0.7914(6)
H12_2 H 0.8961 0.9372 0.8084
H13_2 H 0.8769 0.8918 0.8645
H14_3 H 0.9030 0.9026 0.7460
C24_2 C 0.83856(24) 0.97617(14) 0.8150(5)
H20_2 H 0.8242 0.9567 0.8751
H21_3 H 0.8365(16) 0.7613(11) 0.942(3)
H22_2 H 0.7672(19) 0.8259(14) 0.607(4)
O6_3 O 0.78897(15) 0.75296(12) 0.6310(3)
Zn1_3 Zn 0.86564(2) 0.35623(2) 0.06314(4)
N1_4 N 0.88307(9) 0.35212(9) 0.2297(3)
O1_2 O 0.54847(8) 0.14772(10) 0.0427(3)
N3_3 N 0.81398(8) 0.30120(10) 0.0208(3)
N4_4 N 0.90834(10) 0.38850(11) 0.2889(3)
C1_2 C 0.91988(11) 0.34086(12) 0.3704(3)
C2_3 C 0.89015(12) 0.32307(11) 0.2793(3)
C3 C 0.97228(12) 0.27288(12) 0.5408(3)
C4_2 C 0.93092(12) 0.38339(13) 0.3733(4)
C5_3 C 0.75088(11) 0.24198(13) 0.0157(4)
C6_4 C 0.57137(12) 0.14100(13) 0.1130(4)
C8 C 0.99841(12) 0.31169(13) 0.4867(4)
C9_4 C 0.61798(11) 0.16438(12) 0.0845(4)
C10 C 0.92927(13) 0.25835(13) 0.5465(4)
H2 H 0.9115 0.2327 0.5844
O4_4 O 0.55907(9) 0.11847(12) 0.2024(4)
C11_3 C 0.77365(11) 0.28389(14) 0.0548(4)
C12_3 C 0.70474(11) 0.21295(13) 0.0370(4)
C13 C 0.93822(12) 0.31911(12) 0.4384(3)
C14 C 0.99100(14) 0.24793(12) 0.5933(3)
C15_2 C 0.98143(12) 0.33441(13) 0.4369(3)
H3_2 H 0.9994 0.3605 0.4017
C16 C 0.91232(13) 0.28116(14) 0.4968(4)
H4 H 0.8834 0.2710 0.5023
C17_3 C 0.86752(16) 0.27804(13) 0.2363(4)
H5_3 H 0.8765 0.2617 0.2820
H6_3 H 0.8375 0.2663 0.2452
H7_3 H 0.8741 0.2773 0.1540
C20_3 C 0.75921(15) 0.30934(18) 0.1247(6)
H12_3 H 0.7295 0.2922 0.1417
H13_3 H 0.7749 0.3184 0.1978
H14_4 H 0.7641 0.3337 0.0793
C21_2 C 0.96082(19) 0.41901(18) 0.4520(6)
H15_2 H 0.9740 0.4088 0.5067
H16_2 H 0.9823 0.4413 0.4042
H17_2 H 0.9455 0.4297 0.4953
C23_4 C 0.64737(14) 0.17089(18) 0.1717(5)
H19_4 H 0.6383 0.1586 0.2463
C24_3 C 0.69050(14) 0.19572(19) 0.1483(5)
H20_3 H 0.7100 0.2008 0.2084
H21_4 H 0.9054(11) 0.4085(12) 0.275(3)
Zn2_2 Zn 0.49060(3) 0.13436(2) 0.06314(4)
O5_3 O 0.85228(10) 0.40074(13) 0.0427(3)
Zn1_4 Zn 0.64377(2) 0.50940(3) 0.06314(4)
N1_5 N 0.64788(9) 0.53094(13) 0.2297(3)
N3_4 N 0.69880(10) 0.51277(13) 0.0208(3)
N4_5 N 0.61150(11) 0.51983(15) 0.2889(3)
C1_3 C 0.65914(12) 0.57901(16) 0.3704(3)
O3 O 0.73607(9) 0.76598(13) 0.5981(3)
C2_4 C 0.67693(11) 0.56707(16) 0.2793(3)
C3_2 C 0.72712(12) 0.69939(17) 0.5408(3)
C4_3 C 0.61661(13) 0.54752(18) 0.3733(4)
C5_4 C 0.75802(13) 0.50889(17) 0.0157(4)
C6_5 C 0.85900(13) 0.43036(18) 0.1130(4)
C8_2 C 0.68831(13) 0.68671(18) 0.4867(4)
H1 H 0.6777 0.7052 0.4840
C9_5 C 0.83562(12) 0.45359(16) 0.0845(4)
C10_2 C 0.74165(13) 0.67091(18) 0.5465(4)
H2_2 H 0.7673 0.6787 0.5844
O4_5 O 0.88153(12) 0.44059(15) 0.2024(4)
C11_4 C 0.71611(14) 0.48975(18) 0.0548(4)
C12_4 C 0.78705(13) 0.49178(17) 0.0370(4)
C13_2 C 0.68089(12) 0.61910(17) 0.4384(3)
C14_2 C 0.75207(12) 0.74306(18) 0.5933(3)
C15_3 C 0.66559(13) 0.64701(18) 0.4369(3)
H3_3 H 0.6395 0.6388 0.4017
C16_2 C 0.71884(14) 0.63115(19) 0.4968(4)
H4_2 H 0.7290 0.6123 0.5023
C17_4 C 0.72196(13) 0.58947(21) 0.2363(4)
H5_4 H 0.7383 0.6147 0.2820
H6_4 H 0.7337 0.5711 0.2452
H7_4 H 0.7227 0.5967 0.1540
C20_4 C 0.69066(18) 0.44986(23) 0.1247(6)
H12_4 H 0.7078 0.4372 0.1417
H13_4 H 0.6816 0.4564 0.1978
H14_5 H 0.6663 0.4303 0.0793
C21_3 C 0.58099(18) 0.54180(26) 0.4520(6)
H15_3 H 0.5912 0.5651 0.5067
H16_3 H 0.5587 0.5409 0.4042
H17_3 H 0.5703 0.5157 0.4953
C23_5 C 0.82911(18) 0.47647(23) 0.1717(5)
H19_5 H 0.8414 0.4796 0.2463
C24_4 C 0.80428(19) 0.49477(24) 0.1483(5)
H20_4 H 0.7992 0.5091 0.2084
H21_5 H 0.5915(12) 0.4968(16) 0.275(3)
O5_4 O 0.59926(13) 0.45153(16) 0.0427(3)
N1_6 N 0.46906(13) 0.11693(9) 0.2297(3)
N3_5 N 0.48723(13) 0.18602(8) 0.0208(3)
N4_6 N 0.48017(15) 0.09166(10) 0.2889(3)
C1_4 C 0.42099(16) 0.08012(11) 0.3704(3)
C2_5 C 0.43293(16) 0.10985(12) 0.2793(3)
C3_3 C 0.30061(17) 0.02772(12) 0.5408(3)
C4_4 C 0.45248(18) 0.06908(12) 0.3733(4)
C5_5 C 0.49111(17) 0.24912(11) 0.0157(4)
C6_6 C 0.56964(18) 0.42863(12) 0.1130(4)
C8_3 C 0.31329(18) 0.00159(12) 0.4867(4)
C9_6 C 0.54641(16) 0.38202(11) 0.0845(4)
C10_3 C 0.32909(18) 0.07073(13) 0.5465(4)
H2_3 H 0.3213 0.0885 0.5844
O4_6 O 0.55941(15) 0.44093(9) 0.2024(4)
C11_5 C 0.51025(18) 0.22635(11) 0.0548(4)
C12_5 C 0.50822(17) 0.29526(11) 0.0370(4)
C13_3 C 0.38090(17) 0.06178(12) 0.4384(3)
C14_3 C 0.25694(18) 0.00900(14) 0.5933(3)
C15_4 C 0.35299(18) 0.01857(12) 0.4369(3)
H3_4 H 0.3612 0.0006 0.4017
C16_3 C 0.36885(19) 0.08768(13) 0.4968(4)
H4_3 H 0.3877 0.1166 0.5023
C17_5 C 0.41053(21) 0.13248(16) 0.2363(4)
H5_5 H 0.3853 0.1235 0.2820
H6_5 H 0.4289 0.1625 0.2452
H7_5 H 0.4033 0.1259 0.1540
C20_5 C 0.55014(23) 0.24079(15) 0.1247(6)
H12_5 H 0.5628 0.2705 0.1417
H13_5 H 0.5436 0.2251 0.1978
H14_6 H 0.5697 0.2359 0.0793
C21_4 C 0.45820(26) 0.03918(19) 0.4520(6)
H15_4 H 0.4349 0.0260 0.5067
H16_4 H 0.4591 0.0177 0.4042
H17_4 H 0.4843 0.0545 0.4953
C23_6 C 0.52353(23) 0.35263(14) 0.1717(5)
H19_6 H 0.5204 0.3617 0.2463
C24_5 C 0.50523(24) 0.30950(14) 0.1483(5)
H20_5 H 0.4909 0.2900 0.2084
H21_6 H 0.5032(16) 0.0946(11) 0.275(3)
O2 O 0.29733(9) 0.87770(8) 0.2977(3)
O3_2 O 0.36325(10) 0.93060(9) 0.2648(3)
C3_4 C 0.30561(12) 0.93955(12) 0.2075(3)
C8_4 C 0.33174(12) 0.97836(13) 0.1534(4)
H1_2 H 0.3609 0.9890 0.1507
C10_4 C 0.26260(13) 0.92502(13) 0.2132(4)
H2_4 H 0.2448 0.8994 0.2511
C13_4 C 0.27155(12) 0.98578(12) 0.1051(3)
C14_4 C 0.32433(14) 0.91460(12) 0.2600(3)
C16_4 C 0.24565(13) 0.94783(14) 0.1635(4)
H4_4 H 0.2167 0.9377 0.1690
Zn3 Zn 0.31043(2) 0.84274(3) 0.39648(4)
O2_2 O 0.12230(8) 0.41963(12) 0.2977(3)
O3_3 O 0.06940(9) 0.43265(13) 0.2648(3)
C3_5 C 0.06045(12) 0.36606(17) 0.2075(3)
C8_5 C 0.02164(13) 0.35338(18) 0.1534(4)
H1_3 H 0.0110 0.3719 0.1507
C10_5 C 0.07498(13) 0.33758(18) 0.2132(4)
H2_5 H 0.1006 0.3454 0.2511
C13_5 C 0.01422(12) 0.28577(17) 0.1051(3)
C14_5 C 0.08540(12) 0.40973(18) 0.2600(3)
C16_5 C 0.05217(14) 0.29782(19) 0.1635(4)
H4_5 H 0.0623 0.2790 0.1690
Zn3_2 Zn 0.15726(3) 0.46770(4) 0.39648(4)
O2_3 O 0.58037(12) 0.70267(9) 0.2977(3)
C1_5 C 0.75432(16) 0.74679(11) 0.0371(3)
O3_4 O 0.56735(13) 0.63675(10) 0.2648(3)
C3_6 C 0.63394(17) 0.69439(12) 0.2075(3)
C4_5 C 0.78581(18) 0.73575(12) 0.0400(4)
C8_6 C 0.64662(18) 0.66826(12) 0.1534(4)
H1_4 H 0.6281 0.6391 0.1507
C10_6 C 0.66242(18) 0.73740(13) 0.2132(4)
H2_6 H 0.6546 0.7552 0.2511
C13_6 C 0.71423(17) 0.72845(12) 0.1051(3)
C14_6 C 0.59027(18) 0.67567(14) 0.2600(3)
C15_5 C 0.68632(18) 0.68524(12) 0.1036(3)
H3_5 H 0.6945 0.6673 0.0684
C16_6 C 0.70218(19) 0.75435(13) 0.1635(4)
H4_6 H 0.7210 0.7833 0.1690
C21_5 C 0.79153(26) 0.70585(19) 0.1187(6)
H15_5 H 0.7682 0.6927 0.1734
H16_5 H 0.7924 0.6844 0.0709
H17_5 H 0.8176 0.7212 0.1620
Zn3_3 Zn 0.53230(4) 0.68957(2) 0.39648(4)
N2_3 N 0.72945(10) 0.54635(13) 0.9616(3)
C7_3 C 0.76567(13) 0.54515(16) 0.9567(3)
C18_3 C 0.80411(14) 0.57866(20) 0.8961(4)
H8_3 H 0.8266 0.5721 0.9022
H9_3 H 0.7979 0.5799 0.8138
H10_3 H 0.8128 0.6055 0.9330
C19_3 C 0.79478(19) 0.47042(23) 0.9513(4)
H11_3 H 0.7842 0.4688 0.8752
C22_4 C 0.81852(18) 0.45082(22) 0.9756(4)
H18_4 H 0.8227 0.4355 0.9159
H22_3 H 0.7254(13) 0.5661(19) 0.940(4)
O6_4 O 0.63066(9) 0.54437(15) 0.9644(3)
N1_7 N 0.54973(9) 0.68546(9) 0.5631(3)
O1_3 O 0.21513(8) 0.48106(10) 0.3761(3)
N2_4 N 0.48357(9) 0.60389(10) 0.2950(3)
N3_6 N 0.48064(8) 0.63454(10) 0.3542(3)
N4_7 N 0.57500(10) 0.72184(11) 0.6223(3)
C1_6 C 0.58654(11) 0.67420(12) 0.7038(3)
O3_5 O 0.69658(10) 0.59727(9) 0.9315(3)
C2_6 C 0.55681(12) 0.65641(11) 0.6127(3)
C3_7 C 0.63894(12) 0.60622(12) 0.8742(3)
C4_6 C 0.59758(12) 0.71673(13) 0.7067(4)
C5_6 C 0.41754(11) 0.57532(13) 0.3491(4)
C6_7 C 0.23803(12) 0.47434(13) 0.4464(4)
C7_4 C 0.44615(10) 0.56767(13) 0.2901(3)
C8_7 C 0.66507(12) 0.64503(13) 0.8201(4)
H1_5 H 0.6942 0.6557 0.8174
C9_7 C 0.28464(11) 0.49772(12) 0.4179(4)
C10_7 C 0.59593(13) 0.59169(13) 0.8799(4)
H2_7 H 0.5781 0.5661 0.9178
O4_7 O 0.22573(9) 0.45181(12) 0.5358(4)
C11_6 C 0.44031(11) 0.61723(14) 0.3882(4)
C12_6 C 0.37140(11) 0.54629(13) 0.3704(4)
C13_7 C 0.60488(12) 0.65245(12) 0.7718(3)
C14_7 C 0.65766(14) 0.58127(12) 0.9267(3)
C15_6 C 0.64809(12) 0.66775(13) 0.7703(3)
H3_6 H 0.6660 0.6939 0.7351
C16_7 C 0.57898(13) 0.61450(14) 0.8302(4)
H4_7 H 0.5500 0.6044 0.8357
C17_6 C 0.53418(16) 0.61138(13) 0.5697(4)
H5_6 H 0.5431 0.5951 0.6154
H6_6 H 0.5041 0.5997 0.5786
H7_6 H 0.5407 0.6107 0.4874
C18_4 C 0.44122(14) 0.52923(14) 0.2295(4)
H8_4 H 0.4122 0.5068 0.2356
H9_4 H 0.4487 0.5355 0.1472
H10_4 H 0.4594 0.5206 0.2664
C19_4 C 0.34231(13) 0.53856(19) 0.2847(4)
H11_4 H 0.3513 0.5492 0.2086
C20_6 C 0.42587(15) 0.64268(18) 0.4581(6)
H12_6 H 0.3961 0.6256 0.4751
H13_6 H 0.4415 0.6518 0.5312
H14_7 H 0.4307 0.6671 0.4127
C21_6 C 0.62748(19) 0.75235(18) 0.7854(6)
H15_6 H 0.6406 0.7422 0.8401
H16_6 H 0.6489 0.7747 0.7376
H17_6 H 0.6121 0.7631 0.8287
C22_5 C 0.29897(13) 0.51482(18) 0.3090(4)
H18_5 H 0.2795 0.5107 0.2493
C23_7 C 0.31403(14) 0.50423(18) 0.5051(5)
H19_7 H 0.3049 0.4920 0.5797
C24_6 C 0.35716(14) 0.52906(19) 0.4817(5)
H20_6 H 0.3766 0.5342 0.5418
H21_7 H 0.5720(11) 0.7419(12) 0.609(3)
H22_4 H 0.5074(14) 0.6080(13) 0.274(4)
O5_5 O 0.51894(10) 0.73408(13) 0.3761(3)
N1_8 N 0.31454(9) 0.86428(13) 0.5631(3)
N2_5 N 0.39611(10) 0.87969(13) 0.2950(3)
N3_7 N 0.36546(10) 0.84611(13) 0.3542(3)
N4_8 N 0.27816(11) 0.85317(15) 0.6223(3)
C1_7 C 0.32580(12) 0.91235(16) 0.7038(3)
C2_7 C 0.34359(11) 0.90041(16) 0.6127(3)
C4_7 C 0.28327(13) 0.88086(18) 0.7067(4)
C5_7 C 0.42468(13) 0.84223(17) 0.3491(4)
C6_8 C 0.52566(13) 0.76370(18) 0.4464(4)
C7_5 C 0.43233(13) 0.87849(16) 0.2901(3)
C9_8 C 0.50228(12) 0.78693(16) 0.4179(4)
O4_8 O 0.54819(12) 0.77393(15) 0.5358(4)
C11_7 C 0.38277(14) 0.82309(18) 0.3882(4)
C12_7 C 0.45371(13) 0.82512(17) 0.3704(4)
C13_8 C 0.34755(12) 0.95244(17) 0.7718(3)
C15_7 C 0.33225(13) 0.98035(18) 0.7703(3)
H3_7 H 0.3061 0.9722 0.7351
C16_8 C 0.38550(14) 0.96449(19) 0.8302(4)
H4_8 H 0.3956 0.9457 0.8357
C17_7 C 0.38862(13) 0.92281(21) 0.5697(4)
H5_7 H 0.4049 0.9481 0.6154
H6_7 H 0.4003 0.9045 0.5786
H7_7 H 0.3893 0.9301 0.4874
C18_5 C 0.47077(14) 0.91200(20) 0.2295(4)
H8_5 H 0.4932 0.9055 0.2356
H9_5 H 0.4645 0.9133 0.1472
H10_5 H 0.4794 0.9389 0.2664
C19_5 C 0.46144(19) 0.80376(23) 0.2847(4)
H11_5 H 0.4508 0.8022 0.2086
C20_7 C 0.35732(18) 0.78320(23) 0.4581(6)
H12_7 H 0.3744 0.7706 0.4751
H13_7 H 0.3482 0.7898 0.5312
H14_8 H 0.3329 0.7637 0.4127
C21_7 C 0.24765(18) 0.87514(26) 0.7854(6)
H15_7 H 0.2578 0.8985 0.8401
H16_7 H 0.2253 0.8743 0.7376
H17_7 H 0.2369 0.8491 0.8287
C22_6 C 0.48518(18) 0.78416(22) 0.3090(4)
H18_6 H 0.4893 0.7689 0.2493
C23_8 C 0.49577(18) 0.80981(23) 0.5051(5)
H19_8 H 0.5080 0.8130 0.5797
C24_7 C 0.47094(19) 0.82811(24) 0.4817(5)
H20_7 H 0.4658 0.8425 0.5418
H21_8 H 0.2581(12) 0.8302(16) 0.609(3)
H22_5 H 0.3920(13) 0.8995(19) 0.274(4)
O5_6 O 0.26592(13) 0.78487(16) 0.3761(3)
N1_9 N 0.13572(13) 0.45027(9) 0.5631(3)
N2_6 N 0.12031(13) 0.51643(9) 0.2950(3)
N3_8 N 0.15389(13) 0.51936(8) 0.3542(3)
N4_9 N 0.14683(15) 0.42500(10) 0.6223(3)
C1_8 C 0.08765(16) 0.41346(11) 0.7038(3)
C2_8 C 0.09959(16) 0.44319(12) 0.6127(3)
C4_8 C 0.11914(18) 0.40242(12) 0.7067(4)
C5_8 C 0.15777(17) 0.58246(11) 0.3491(4)
C6_9 C 0.23630(18) 0.76197(12) 0.4464(4)
C7_6 C 0.12151(16) 0.55385(10) 0.2901(3)
C9_9 C 0.21307(16) 0.71536(11) 0.4179(4)
O4_9 O 0.22607(15) 0.77427(9) 0.5358(4)
C11_8 C 0.17691(18) 0.55969(11) 0.3882(4)
C12_8 C 0.17488(17) 0.62860(11) 0.3704(4)
C13_9 C 0.04756(17) 0.39512(12) 0.7718(3)
C15_8 C 0.01965(18) 0.35191(12) 0.7703(3)
H3_8 H 0.0278 0.3340 0.7351
C16_9 C 0.03551(19) 0.42102(13) 0.8302(4)
H4_9 H 0.0543 0.4500 0.8357
C17_8 C 0.07719(21) 0.46582(16) 0.5697(4)
H5_8 H 0.0519 0.4569 0.6154
H6_8 H 0.0955 0.4959 0.5786
H7_8 H 0.0699 0.4593 0.4874
C18_6 C 0.08800(20) 0.55878(14) 0.2295(4)
H8_6 H 0.0945 0.5878 0.2356
H9_6 H 0.0867 0.5513 0.1472
H10_6 H 0.0611 0.5406 0.2664
C19_6 C 0.19624(23) 0.65769(13) 0.2847(4)
H11_6 H 0.1978 0.6487 0.2086
C20_8 C 0.21680(23) 0.57413(15) 0.4581(6)
H12_8 H 0.2294 0.6039 0.4751
H13_8 H 0.2102 0.5585 0.5312
H14_9 H 0.2363 0.5693 0.4127
C21_8 C 0.12486(26) 0.37252(19) 0.7854(6)
H15_8 H 0.1015 0.3594 0.8401
H16_8 H 0.1257 0.3511 0.7376
H17_8 H 0.1509 0.3879 0.8287
C22_7 C 0.21584(22) 0.70103(13) 0.3090(4)
H18_7 H 0.2311 0.7205 0.2493
C23_9 C 0.19019(23) 0.68597(14) 0.5051(5)
H19_9 H 0.1870 0.6951 0.5797
C24_8 C 0.17189(24) 0.64284(14) 0.4817(5)
H20_8 H 0.1575 0.6234 0.5418
H21_9 H 0.1698(16) 0.4280(11) 0.609(3)
H22_6 H 0.1005(19) 0.4926(14) 0.274(4)
N2_7 N 0.15024(9) 0.93722(10) 0.6283(3)
N3_9 N 0.14731(8) 0.96787(10) 0.6875(3)
C2_9 C 0.22348(12) 0.98974(11) 0.9460(3)
C5_9 C 0.08421(11) 0.90865(13) 0.6824(4)
C7_7 C 0.11282(10) 0.90100(13) 0.6234(3)
C11_9 C 0.10698(11) 0.95056(14) 0.7215(4)
C12_9 C 0.03807(11) 0.87962(13) 0.7037(4)
C17_9 C 0.20085(16) 0.94471(13) 0.9030(4)
H5_9 H 0.2098 0.9284 0.9487
H6_9 H 0.1708 0.9330 0.9119
H7_9 H 0.2074 0.9440 0.8207
C18_7 C 0.10789(14) 0.86256(14) 0.5628(4)
H8_7 H 0.0789 0.8401 0.5689
H9_7 H 0.1154 0.8688 0.4805
H10_7 H 0.1261 0.8539 0.5997
C19_7 C 0.00898(13) 0.87189(19) 0.6180(4)
H11_7 H 0.0180 0.8825 0.5419
C20_9 C 0.09254(15) 0.97601(18) 0.7914(6)
H12_9 H 0.0628 0.9589 0.8084
H13_9 H 0.1082 0.9851 0.8645
C24_9 C 0.02383(14) 0.86239(19) 0.8150(5)
H20_9 H 0.0433 0.8675 0.8751
H22_7 H 0.1741(14) 0.9413(13) 0.607(4)
C1_9 C 0.99247(12) 0.24568(16) 0.0371(3)
C4_9 C 0.94994(13) 0.21419(18) 0.0400(4)
C15_9 C 0.99892(13) 0.31368(18) 0.1036(3)
H3_9 H 0.9728 0.3055 0.0684
C21_9 C 0.91432(18) 0.20847(26) 0.1187(6)
H15_9 H 0.9245 0.2318 0.1734
H16_9 H 0.8920 0.2076 0.0709
H17_9 H 0.9036 0.1824 0.1620
O3_6 O 0.02992(10) 0.26393(9) 0.5981(3)
H1_6 H 0.0276 0.3223 0.4840
N2_8 N 0.81691(9) 0.27055(10) 0.9616(3)
C7_8 C 0.77949(10) 0.23433(13) 0.9567(3)
C18_8 C 0.77456(14) 0.19589(14) 0.8961(4)
H8_8 H 0.7456 0.1734 0.9022
H9_8 H 0.7821 0.2021 0.8138
H10_8 H 0.7928 0.1872 0.9330
C19_8 C 0.67565(13) 0.20522(19) 0.9513(4)
H11_8 H 0.6847 0.2158 0.8752
C22_8 C 0.63231(13) 0.18148(18) 0.9756(4)
H18_8 H 0.6129 0.1773 0.9159
H22_8 H 0.8408(14) 0.2746(13) 0.940(4)
O6_5 O 0.91370(12) 0.36934(9) 0.9644(3)
O3_7 O 0.90068(13) 0.30342(10) 0.9315(3)
C3_8 C 0.96727(17) 0.36106(12) 0.8742(3)
C8_8 C 0.97995(18) 0.33493(12) 0.8201(4)
H1_7 H 0.9614 0.3058 0.8174
C10_8 C 0.99575(18) 0.40407(13) 0.8799(4)
H2_8 H 0.9879 0.4219 0.9178
C14_8 C 0.92360(18) 0.34234(14) 0.9267(3)
N2_9 N 0.45365(13) 0.18309(9) 0.9616(3)
C7_9 C 0.45485(16) 0.22051(10) 0.9567(3)
C18_9 C 0.42134(20) 0.22544(14) 0.8961(4)
H8_9 H 0.4279 0.2544 0.9022
H9_9 H 0.4201 0.2179 0.8138
H10_9 H 0.3945 0.2072 0.9330
C19_9 C 0.52958(23) 0.32435(13) 0.9513(4)
H11_9 H 0.5312 0.3153 0.8752
C22_9 C 0.54918(22) 0.36769(13) 0.9756(4)
H18_9 H 0.5645 0.3871 0.9159
H22_9 H 0.4339(19) 0.1592(14) 0.940(4)
O6_6 O 0.45563(15) 0.08630(12) 0.9644(3)
O3_8 O 0.40273(9) 0.09932(13) 0.9315(3)
C3_9 C 0.39378(12) 0.03273(17) 0.8742(3)
C8_9 C 0.35497(13) 0.02005(18) 0.8201(4)
H1_8 H 0.3443 0.0386 0.8174
C10_9 C 0.40831(13) 0.00425(18) 0.8799(4)
H2_9 H 0.4339 0.0121 0.9178
C14_9 C 0.41873(12) 0.07640(18) 0.9267(3)
O3_9 O 0.23402(13) 0.97008(10) 0.5981(3)
H1_9 H 0.2948 0.9724 0.4840
O1_4 O 0.11820(8) 0.18561(10) 0.2906(3)
C6_10 C 0.09530(12) 0.19233(13) 0.2203(4)
C9_10 C 0.04869(11) 0.16895(12) 0.2488(4)
O4_10 O 0.10760(9) 0.21486(12) 0.1309(4)
C22_10 C 0.03436(13) 0.15185(18) 0.3577(4)
H18_10 H 0.0538 0.1560 0.4174
C23_10 C 0.01930(14) 0.16244(18) 0.1616(5)
H19_10 H 0.0284 0.1747 0.0870
Zn2_3 Zn 0.17607(3) 0.19897(2) 0.27019(4)
Zn1_5 Zn 0.80103(2) 0.97710(2) 0.27019(4)
N1_10 N 0.78360(9) 0.98121(9) 0.1036(3)
N4_10 N 0.75833(10) 0.94483(11) 0.0444(3)
H14_10 H 0.9026 0.9996 0.2540
H21_10 H 0.7613(11) 0.9248(12) 0.058(3)
O5_7 O 0.81439(10) 0.93259(13) 0.2906(3)
O6_7 O 0.75296(12) 0.96400(9) 0.3690(3)
Zn1_6 Zn 0.02290(2) 0.82393(3) 0.27019(4)
N1_11 N 0.01879(9) 0.80239(13) 0.1036(3)
N4_11 N 0.05517(11) 0.81350(15) 0.0444(3)
H14_11 H 0.0004 0.9030 0.2540
H21_11 H 0.0752(12) 0.8365(16) 0.058(3)
O5_8 O 0.06741(13) 0.88180(16) 0.2906(3)
O6_8 O 0.03600(9) 0.78897(15) 0.3690(3)
N2_10 N 0.93722(10) 0.78698(13) 0.3717(3)
N3_10 N 0.96787(10) 0.82056(13) 0.3125(3)
C2_10 C 0.98974(11) 0.76626(16) 0.0540(3)
C5_10 C 0.90865(13) 0.82444(17) 0.3176(4)
C6_11 C 0.80767(13) 0.90297(18) 0.2203(4)
C7_10 C 0.90100(13) 0.78818(16) 0.3766(3)
C9_11 C 0.83105(12) 0.87974(16) 0.2488(4)
O4_11 O 0.78514(12) 0.89274(15) 0.1309(4)
C11_10 C 0.95056(14) 0.84358(18) 0.2785(4)
C12_10 C 0.87962(13) 0.84155(17) 0.2963(4)
C17_10 C 0.94471(13) 0.74386(21) 0.0970(4)
H5_10 H 0.9284 0.7186 0.0513
H6_10 H 0.9330 0.7622 0.0881
H7_10 H 0.9440 0.7366 0.1793
C18_10 C 0.86256(14) 0.75467(20) 0.4372(4)
H8_10 H 0.8401 0.7612 0.4311
H9_10 H 0.8688 0.7534 0.5195
H10_10 H 0.8539 0.7278 0.4003
C19_10 C 0.87189(19) 0.86291(23) 0.3820(4)
H11_10 H 0.8825 0.8645 0.4581
C20_10 C 0.97601(18) 0.88347(23) 0.2086(6)
H12_10 H 0.9589 0.8961 0.1916
H13_10 H 0.9851 0.8769 0.1355
C22_11 C 0.84815(18) 0.88251(22) 0.3577(4)
H18_11 H 0.8440 0.8978 0.4174
C23_11 C 0.83756(18) 0.85686(23) 0.1616(5)
H19_11 H 0.8253 0.8537 0.0870
C24_10 C 0.86239(19) 0.83856(24) 0.1850(5)
H20_10 H 0.8675 0.8242 0.1249
H22_10 H 0.9413(13) 0.7672(19) 0.393(4)
N1_12 N 0.19761(13) 0.21640(9) 0.1036(3)
N2_11 N 0.21302(13) 0.15024(9) 0.3717(3)
N3_11 N 0.17944(13) 0.14731(8) 0.3125(3)
N4_12 N 0.18650(15) 0.24167(10) 0.0444(3)
C2_11 C 0.23374(16) 0.22348(12) 0.0540(3)
C5_11 C 0.17556(17) 0.08421(11) 0.3176(4)
C7_11 C 0.21182(16) 0.11282(10) 0.3766(3)
C11_11 C 0.15642(18) 0.10698(11) 0.2785(4)
C12_11 C 0.15845(17) 0.03807(11) 0.2963(4)
C17_11 C 0.25614(21) 0.20085(16) 0.0970(4)
H5_11 H 0.2814 0.2098 0.0513
H6_11 H 0.2378 0.1708 0.0881
H7_11 H 0.2634 0.2074 0.1793
C18_11 C 0.24533(20) 0.10789(14) 0.4372(4)
H8_11 H 0.2388 0.0789 0.4311
H9_11 H 0.2466 0.1154 0.5195
H10_11 H 0.2722 0.1261 0.4003
C19_11 C 0.13709(23) 0.00898(13) 0.3820(4)
H11_11 H 0.1355 0.0180 0.4581
C20_11 C 0.11653(23) 0.09254(15) 0.2086(6)
H12_11 H 0.1039 0.0628 0.1916
H13_11 H 0.1231 0.1082 0.1355
H14_12 H 0.0970 0.0974 0.2540
C24_11 C 0.16144(24) 0.02383(14) 0.1850(5)
H20_11 H 0.1758 0.0433 0.1249
H21_12 H 0.1635(16) 0.2387(11) 0.058(3)
H22_11 H 0.2328(19) 0.1741(14) 0.393(4)
O6_9 O 0.21103(15) 0.24704(12) 0.3690(3)
C6_12 C 0.09703(18) 0.90470(12) 0.2203(4)
C9_12 C 0.12026(16) 0.95131(11) 0.2488(4)
O4_12 O 0.10726(15) 0.89240(9) 0.1309(4)
C22_12 C 0.11749(22) 0.96564(13) 0.3577(4)
H18_12 H 0.1022 0.9462 0.4174
C23_12 C 0.14314(23) 0.98070(14) 0.1616(5)
H19_12 H 0.1463 0.9716 0.0870
Zn1_7 Zn 0.13436(2) 0.64377(2) 0.93686(4)
N1_13 N 0.11693(9) 0.64788(9) 0.7703(3)
O1_5 O 0.45153(8) 0.85228(10) 0.9573(3)
N3_12 N 0.18602(8) 0.69880(10) 0.9792(3)
N4_13 N 0.09166(10) 0.61150(11) 0.7111(3)
C1_10 C 0.08012(11) 0.65914(12) 0.6296(3)
C2_12 C 0.10985(12) 0.67693(11) 0.7207(3)
C3_10 C 0.02772(12) 0.72712(12) 0.4592(3)
C4_10 C 0.06908(12) 0.61661(13) 0.6267(4)
C5_12 C 0.24912(11) 0.75802(13) 0.9843(4)
C6_13 C 0.42863(12) 0.85900(13) 0.8870(4)
C8_10 C 0.00159(12) 0.68831(13) 0.5133(4)
C9_13 C 0.38202(11) 0.83562(12) 0.9155(4)
C10_10 C 0.07073(13) 0.74165(13) 0.4535(4)
H2_10 H 0.0885 0.7673 0.4156
O4_13 O 0.44093(9) 0.88153(12) 0.7976(4)
C11_12 C 0.22635(11) 0.71611(14) 0.9452(4)
C12_12 C 0.29526(11) 0.78705(13) 0.9630(4)
C13_10 C 0.06178(12) 0.68089(12) 0.5616(3)
C14_10 C 0.00900(14) 0.75207(12) 0.4067(3)
C15_10 C 0.01857(12) 0.66559(13) 0.5631(3)
H3_10 H 0.0006 0.6395 0.5983
C16_10 C 0.08768(13) 0.71884(14) 0.5032(4)
H4_10 H 0.1166 0.7290 0.4977
C17_12 C 0.13248(16) 0.72196(13) 0.7637(4)
H5_12 H 0.1235 0.7383 0.7180
H6_12 H 0.1625 0.7337 0.7548
H7_12 H 0.1259 0.7227 0.8460
C20_12 C 0.24079(15) 0.69066(18) 0.8753(6)
H12_12 H 0.2705 0.7078 0.8583
H13_12 H 0.2251 0.6816 0.8022
H14_13 H 0.2359 0.6663 0.9207
C21_10 C 0.03918(19) 0.58099(18) 0.5480(6)
H15_10 H 0.0260 0.5912 0.4933
H16_10 H 0.0177 0.5587 0.5958
H17_10 H 0.0545 0.5703 0.5047
C23_13 C 0.35263(14) 0.82911(18) 0.8283(5)
H19_13 H 0.3617 0.8414 0.7537
C24_12 C 0.30950(14) 0.80428(19) 0.8517(5)
H20_12 H 0.2900 0.7992 0.7916
H21_13 H 0.0946(11) 0.5915(12) 0.725(3)
Zn2_4 Zn 0.50940(3) 0.86564(2) 0.93686(4)
O5_9 O 0.14772(10) 0.59926(13) 0.9573(3)
Zn1_8 Zn 0.35623(2) 0.49060(3) 0.93686(4)
N1_14 N 0.35212(9) 0.46906(13) 0.7703(3)
N3_13 N 0.30120(10) 0.48723(13) 0.9792(3)
N4_14 N 0.38850(11) 0.48017(15) 0.7111(3)
C1_11 C 0.34086(12) 0.42099(16) 0.6296(3)
O3_10 O 0.26393(9) 0.23402(13) 0.4019(3)
C2_13 C 0.32307(11) 0.43293(16) 0.7207(3)
C3_11 C 0.27288(12) 0.30061(17) 0.4592(3)
C4_11 C 0.38339(13) 0.45248(18) 0.6267(4)
C5_13 C 0.24198(13) 0.49111(17) 0.9843(4)
C6_14 C 0.14100(13) 0.56964(18) 0.8870(4)
C8_11 C 0.31169(13) 0.31329(18) 0.5133(4)
H1_10 H 0.3223 0.2948 0.5160
C9_14 C 0.16438(12) 0.54641(16) 0.9155(4)
C10_11 C 0.25835(13) 0.32909(18) 0.4535(4)
H2_11 H 0.2327 0.3213 0.4156
O4_14 O 0.11847(12) 0.55941(15) 0.7976(4)
C11_13 C 0.28389(14) 0.51025(18) 0.9452(4)
C12_13 C 0.21295(13) 0.50822(17) 0.9630(4)
C13_11 C 0.31911(12) 0.38090(17) 0.5616(3)
C14_11 C 0.24793(12) 0.25694(18) 0.4067(3)
C15_11 C 0.33441(13) 0.35299(18) 0.5631(3)
H3_11 H 0.3605 0.3612 0.5983
C16_11 C 0.28116(14) 0.36885(19) 0.5032(4)
H4_11 H 0.2710 0.3877 0.4977
C17_13 C 0.27804(13) 0.41053(21) 0.7637(4)
H5_13 H 0.2617 0.3853 0.7180
H6_13 H 0.2663 0.4289 0.7548
H7_13 H 0.2773 0.4033 0.8460
C20_13 C 0.30934(18) 0.55014(23) 0.8753(6)
H12_13 H 0.2922 0.5628 0.8583
H13_13 H 0.3184 0.5436 0.8022
H14_14 H 0.3337 0.5697 0.9207
C21_11 C 0.41901(18) 0.45820(26) 0.5480(6)
H15_11 H 0.4088 0.4349 0.4933
H16_11 H 0.4413 0.4591 0.5958
H17_11 H 0.4297 0.4843 0.5047
C23_14 C 0.17089(18) 0.52353(23) 0.8283(5)
H19_14 H 0.1586 0.5204 0.7537
C24_13 C 0.19572(19) 0.50523(24) 0.8517(5)
H20_13 H 0.2008 0.4909 0.7916
H21_14 H 0.4085(12) 0.5032(16) 0.725(3)
O5_10 O 0.40074(13) 0.54847(16) 0.9573(3)
N1_15 N 0.53094(13) 0.88307(9) 0.7703(3)
N3_14 N 0.51277(13) 0.81398(8) 0.9792(3)
N4_15 N 0.51983(15) 0.90834(10) 0.7111(3)
C1_12 C 0.57901(16) 0.91988(11) 0.6296(3)
C2_14 C 0.56707(16) 0.89015(12) 0.7207(3)
C3_12 C 0.69939(17) 0.97228(12) 0.4592(3)
C4_12 C 0.54752(18) 0.93092(12) 0.6267(4)
C5_14 C 0.50889(17) 0.75088(11) 0.9843(4)
C6_15 C 0.43036(18) 0.57137(12) 0.8870(4)
C8_12 C 0.68671(18) 0.99841(12) 0.5133(4)
C9_15 C 0.45359(16) 0.61798(11) 0.9155(4)
C10_12 C 0.67091(18) 0.92927(13) 0.4535(4)
H2_12 H 0.6787 0.9115 0.4156
O4_15 O 0.44059(15) 0.55907(9) 0.7976(4)
C11_14 C 0.48975(18) 0.77365(11) 0.9452(4)
C12_14 C 0.49178(17) 0.70474(11) 0.9630(4)
C13_12 C 0.61910(17) 0.93822(12) 0.5616(3)
C14_12 C 0.74306(18) 0.99100(14) 0.4067(3)
C15_12 C 0.64701(18) 0.98143(12) 0.5631(3)
H3_12 H 0.6388 0.9994 0.5983
C16_12 C 0.63115(19) 0.91232(13) 0.5032(4)
H4_12 H 0.6123 0.8834 0.4977
C17_14 C 0.58947(21) 0.86752(16) 0.7637(4)
H5_14 H 0.6147 0.8765 0.7180
H6_14 H 0.5711 0.8375 0.7548
H7_14 H 0.5967 0.8741 0.8460
C20_14 C 0.44986(23) 0.75921(15) 0.8753(6)
H12_14 H 0.4372 0.7295 0.8583
H13_14 H 0.4564 0.7749 0.8022
H14_15 H 0.4303 0.7641 0.9207
C21_12 C 0.54180(26) 0.96082(19) 0.5480(6)
H15_12 H 0.5651 0.9740 0.4933
H16_12 H 0.5409 0.9823 0.5958
H17_12 H 0.5157 0.9455 0.5047
C23_15 C 0.47647(23) 0.64737(14) 0.8283(5)
H19_15 H 0.4796 0.6383 0.7537
C24_14 C 0.49477(24) 0.69050(14) 0.8517(5)
H20_14 H 0.5091 0.7100 0.7916
H21_15 H 0.4968(16) 0.9054(11) 0.725(3)
N2_12 N 0.84976(9) 0.06278(10) 0.3717(3)
N3_15 N 0.85269(8) 0.03213(10) 0.3125(3)
C2_15 C 0.77652(12) 0.01026(11) 0.0540(3)
C5_15 C 0.91579(11) 0.09135(13) 0.3176(4)
C7_12 C 0.88718(10) 0.09900(13) 0.3766(3)
C11_15 C 0.89302(11) 0.04944(14) 0.2785(4)
C12_15 C 0.96193(11) 0.12038(13) 0.2963(4)
C17_15 C 0.79915(16) 0.05529(13) 0.0970(4)
H5_15 H 0.7902 0.0716 0.0513
H6_15 H 0.8292 0.0670 0.0881
H7_15 H 0.7926 0.0560 0.1793
C18_12 C 0.89211(14) 0.13744(14) 0.4372(4)
H8_12 H 0.9211 0.1599 0.4311
H9_12 H 0.8846 0.1312 0.5195
H10_12 H 0.8739 0.1461 0.4003
C19_12 C 0.99102(13) 0.12811(19) 0.3820(4)
H11_12 H 0.9820 0.1175 0.4581
C20_15 C 0.90746(15) 0.02399(18) 0.2086(6)
H12_15 H 0.9372 0.0411 0.1916
H13_15 H 0.8918 0.0149 0.1355
C24_15 C 0.97617(14) 0.13761(19) 0.1850(5)
H20_15 H 0.9567 0.1325 0.1249
H22_12 H 0.8259(14) 0.0587(13) 0.393(4)
O2_4 O 0.70267(9) 0.12230(8) 0.7023(3)
O3_11 O 0.63675(10) 0.06940(9) 0.7352(3)
C3_13 C 0.69439(12) 0.06045(12) 0.7925(3)
C8_13 C 0.66826(12) 0.02164(13) 0.8466(4)
H1_11 H 0.6391 0.0110 0.8493
C10_13 C 0.73740(13) 0.07498(13) 0.7868(4)
H2_13 H 0.7552 0.1006 0.7489
C13_13 C 0.72845(12) 0.01422(12) 0.8949(3)
C14_13 C 0.67567(14) 0.08540(12) 0.7400(3)
C16_13 C 0.75435(13) 0.05217(14) 0.8365(4)
H4_13 H 0.7833 0.0623 0.8310
Zn3_4 Zn 0.68957(2) 0.15726(3) 0.60352(4)
O2_5 O 0.87770(8) 0.58037(12) 0.7023(3)
O3_12 O 0.93060(9) 0.56735(13) 0.7352(3)
C3_14 C 0.93955(12) 0.63394(17) 0.7925(3)
C8_14 C 0.97836(13) 0.64662(18) 0.8466(4)
H1_12 H 0.9890 0.6281 0.8493
C10_14 C 0.92502(13) 0.66242(18) 0.7868(4)
H2_14 H 0.8994 0.6546 0.7489
C13_14 C 0.98578(12) 0.71423(17) 0.8949(3)
C14_14 C 0.91460(12) 0.59027(18) 0.7400(3)
C16_14 C 0.94783(14) 0.70218(19) 0.8365(4)
H4_14 H 0.9377 0.7210 0.8310
Zn3_5 Zn 0.84274(3) 0.53230(4) 0.60352(4)
O2_6 O 0.41963(12) 0.29733(9) 0.7023(3)
C1_13 C 0.24568(16) 0.25321(11) 0.9629(3)
O3_13 O 0.43265(13) 0.36325(10) 0.7352(3)
C3_15 C 0.36606(17) 0.30561(12) 0.7925(3)
C4_13 C 0.21419(18) 0.26425(12) 0.9600(4)
C8_15 C 0.35338(18) 0.33174(12) 0.8466(4)
H1_13 H 0.3719 0.3609 0.8493
C10_15 C 0.33758(18) 0.26260(13) 0.7868(4)
H2_15 H 0.3454 0.2448 0.7489
C13_15 C 0.28577(17) 0.27155(12) 0.8949(3)
C14_15 C 0.40973(18) 0.32433(14) 0.7400(3)
C15_13 C 0.31368(18) 0.31476(12) 0.8964(3)
H3_13 H 0.3055 0.3327 0.9316
C16_15 C 0.29782(19) 0.24565(13) 0.8365(4)
H4_15 H 0.2790 0.2167 0.8310
C21_13 C 0.20847(26) 0.29415(19) 0.8813(6)
H15_13 H 0.2318 0.3073 0.8266
H16_13 H 0.2076 0.3156 0.9291
H17_13 H 0.1824 0.2788 0.8380
Zn3_6 Zn 0.46770(4) 0.31043(2) 0.60352(4)
N2_13 N 0.27055(10) 0.45365(13) 0.0384(3)
C7_13 C 0.23433(13) 0.45485(16) 0.0433(3)
C18_13 C 0.19589(14) 0.42134(20) 0.1039(4)
H8_13 H 0.1734 0.4279 0.0978
H9_13 H 0.2021 0.4201 0.1862
H10_13 H 0.1872 0.3945 0.0670
C19_13 C 0.20522(19) 0.52958(23) 0.0487(4)
H11_13 H 0.2158 0.5312 0.1248
C22_13 C 0.18148(18) 0.54918(22) 0.0244(4)
H18_13 H 0.1773 0.5645 0.0841
H22_13 H 0.2746(13) 0.4339(19) 0.060(4)
O6_10 O 0.36934(9) 0.45563(15) 0.0356(3)
N1_16 N 0.45027(9) 0.31454(9) 0.4369(3)
O1_6 O 0.78487(8) 0.51894(10) 0.6239(3)
N2_14 N 0.51643(9) 0.39611(10) 0.7050(3)
N3_16 N 0.51936(8) 0.36546(10) 0.6458(3)
N4_16 N 0.42500(10) 0.27816(11) 0.3777(3)
C1_14 C 0.41346(11) 0.32580(12) 0.2962(3)
O3_14 O 0.30342(10) 0.40273(9) 0.0685(3)
C2_16 C 0.44319(12) 0.34359(11) 0.3873(3)
C3_16 C 0.36106(12) 0.39378(12) 0.1258(3)
C4_14 C 0.40242(12) 0.28327(13) 0.2933(4)
C5_16 C 0.58246(11) 0.42468(13) 0.6509(4)
C6_16 C 0.76197(12) 0.52566(13) 0.5536(4)
C7_14 C 0.55385(10) 0.43233(13) 0.7099(3)
C8_16 C 0.33493(12) 0.35497(13) 0.1799(4)
H1_14 H 0.3058 0.3443 0.1826
C9_16 C 0.71536(11) 0.50228(12) 0.5821(4)
C10_16 C 0.40407(13) 0.40831(13) 0.1201(4)
H2_16 H 0.4219 0.4339 0.0822
O4_16 O 0.77427(9) 0.54819(12) 0.4642(4)
C11_16 C 0.55969(11) 0.38277(14) 0.6118(4)
C12_16 C 0.62860(11) 0.45371(13) 0.6296(4)
C13_16 C 0.39512(12) 0.34755(12) 0.2282(3)
C14_16 C 0.34234(14) 0.41873(12) 0.0733(3)
C15_14 C 0.35191(12) 0.33225(13) 0.2297(3)
H3_14 H 0.3340 0.3061 0.2649
C16_16 C 0.42102(13) 0.38550(14) 0.1698(4)
H4_16 H 0.4500 0.3956 0.1643
C17_16 C 0.46582(16) 0.38862(13) 0.4303(4)
H5_16 H 0.4569 0.4049 0.3846
H6_16 H 0.4959 0.4003 0.4214
H7_16 H 0.4593 0.3893 0.5126
C18_14 C 0.55878(14) 0.47077(14) 0.7705(4)
H8_14 H 0.5878 0.4932 0.7644
H9_14 H 0.5513 0.4645 0.8528
H10_14 H 0.5406 0.4794 0.7336
C19_14 C 0.65769(13) 0.46144(19) 0.7153(4)
H11_14 H 0.6487 0.4508 0.7914
C20_16 C 0.57413(15) 0.35732(18) 0.5419(6)
H12_16 H 0.6039 0.3744 0.5249
H13_16 H 0.5585 0.3482 0.4688
H14_16 H 0.5693 0.3329 0.5873
C21_14 C 0.37252(19) 0.24765(18) 0.2146(6)
H15_14 H 0.3594 0.2578 0.1599
H16_14 H 0.3511 0.2253 0.2624
H17_14 H 0.3879 0.2369 0.1713
C22_14 C 0.70103(13) 0.48518(18) 0.6910(4)
H18_14 H 0.7205 0.4893 0.7507
C23_16 C 0.68597(14) 0.49577(18) 0.4949(5)
H19_16 H 0.6951 0.5080 0.4203
C24_16 C 0.64284(14) 0.47094(19) 0.5183(5)
H20_16 H 0.6234 0.4658 0.4582
H21_16 H 0.4280(11) 0.2581(12) 0.391(3)
H22_14 H 0.4926(14) 0.3920(13) 0.726(4)
O5_11 O 0.48106(10) 0.26592(13) 0.6239(3)
N1_17 N 0.68546(9) 0.13572(13) 0.4369(3)
N2_15 N 0.60389(10) 0.12031(13) 0.7050(3)
N3_17 N 0.63454(10) 0.15389(13) 0.6458(3)
N4_17 N 0.72184(11) 0.14683(15) 0.3777(3)
C1_15 C 0.67420(12) 0.08765(16) 0.2962(3)
C2_17 C 0.65641(11) 0.09959(16) 0.3873(3)
C4_15 C 0.71673(13) 0.11914(18) 0.2933(4)
C5_17 C 0.57532(13) 0.15777(17) 0.6509(4)
C6_17 C 0.47434(13) 0.23630(18) 0.5536(4)
C7_15 C 0.56767(13) 0.12151(16) 0.7099(3)
C9_17 C 0.49772(12) 0.21307(16) 0.5821(4)
O4_17 O 0.45181(12) 0.22607(15) 0.4642(4)
C11_17 C 0.61723(14) 0.17691(18) 0.6118(4)
C12_17 C 0.54629(13) 0.17488(17) 0.6296(4)
C13_17 C 0.65245(12) 0.04756(17) 0.2282(3)
C15_15 C 0.66775(13) 0.01965(18) 0.2297(3)
H3_15 H 0.6939 0.0278 0.2649
C16_17 C 0.61450(14) 0.03551(19) 0.1698(4)
H4_17 H 0.6044 0.0543 0.1643
C17_17 C 0.61138(13) 0.07719(21) 0.4303(4)
H5_17 H 0.5951 0.0519 0.3846
H6_17 H 0.5997 0.0955 0.4214
H7_17 H 0.6107 0.0699 0.5126
C18_15 C 0.52923(14) 0.08800(20) 0.7705(4)
H8_15 H 0.5068 0.0945 0.7644
H9_15 H 0.5355 0.0867 0.8528
H10_15 H 0.5206 0.0611 0.7336
C19_15 C 0.53856(19) 0.19624(23) 0.7153(4)
H11_15 H 0.5492 0.1978 0.7914
C20_17 C 0.64268(18) 0.21680(23) 0.5419(6)
H12_17 H 0.6256 0.2294 0.5249
H13_17 H 0.6518 0.2102 0.4688
H14_17 H 0.6671 0.2363 0.5873
C21_15 C 0.75235(18) 0.12486(26) 0.2146(6)
H15_15 H 0.7422 0.1015 0.1599
H16_15 H 0.7747 0.1257 0.2624
H17_15 H 0.7631 0.1509 0.1713
C22_15 C 0.51482(18) 0.21584(22) 0.6910(4)
H18_15 H 0.5107 0.2311 0.7507
C23_17 C 0.50423(18) 0.19019(23) 0.4949(5)
H19_17 H 0.4920 0.1870 0.4203
C24_17 C 0.52906(19) 0.17189(24) 0.5183(5)
H20_17 H 0.5342 0.1575 0.4582
H21_17 H 0.7419(12) 0.1698(16) 0.391(3)
H22_15 H 0.6080(13) 0.1005(19) 0.726(4)
O5_12 O 0.73408(13) 0.21513(16) 0.6239(3)
N1_18 N 0.86428(13) 0.54973(9) 0.4369(3)
N2_16 N 0.87969(13) 0.48357(9) 0.7050(3)
N3_18 N 0.84611(13) 0.48064(8) 0.6458(3)
N4_18 N 0.85317(15) 0.57500(10) 0.3777(3)
C1_16 C 0.91235(16) 0.58654(11) 0.2962(3)
C2_18 C 0.90041(16) 0.55681(12) 0.3873(3)
C4_16 C 0.88086(18) 0.59758(12) 0.2933(4)
C5_18 C 0.84223(17) 0.41754(11) 0.6509(4)
C6_18 C 0.76370(18) 0.23803(12) 0.5536(4)
C7_16 C 0.87849(16) 0.44615(10) 0.7099(3)
C9_18 C 0.78693(16) 0.28464(11) 0.5821(4)
O4_18 O 0.77393(15) 0.22573(9) 0.4642(4)
C11_18 C 0.82309(18) 0.44031(11) 0.6118(4)
C12_18 C 0.82512(17) 0.37140(11) 0.6296(4)
C13_18 C 0.95244(17) 0.60488(12) 0.2282(3)
C15_16 C 0.98035(18) 0.64809(12) 0.2297(3)
H3_16 H 0.9722 0.6660 0.2649
C16_18 C 0.96449(19) 0.57898(13) 0.1698(4)
H4_18 H 0.9457 0.5500 0.1643
C17_18 C 0.92281(21) 0.53418(16) 0.4303(4)
H5_18 H 0.9481 0.5431 0.3846
H6_18 H 0.9045 0.5041 0.4214
H7_18 H 0.9301 0.5407 0.5126
C18_16 C 0.91200(20) 0.44122(14) 0.7705(4)
H8_16 H 0.9055 0.4122 0.7644
H9_16 H 0.9133 0.4487 0.8528
H10_16 H 0.9389 0.4594 0.7336
C19_16 C 0.80376(23) 0.34231(13) 0.7153(4)
H11_16 H 0.8022 0.3513 0.7914
C20_18 C 0.78320(23) 0.42587(15) 0.5419(6)
H12_18 H 0.7706 0.3961 0.5249
H13_18 H 0.7898 0.4415 0.4688
H14_18 H 0.7637 0.4307 0.5873
C21_16 C 0.87514(26) 0.62748(19) 0.2146(6)
H15_16 H 0.8985 0.6406 0.1599
H16_16 H 0.8743 0.6489 0.2624
H17_16 H 0.8491 0.6121 0.1713
C22_16 C 0.78416(22) 0.29897(13) 0.6910(4)
H18_16 H 0.7689 0.2795 0.7507
C23_18 C 0.80981(23) 0.31403(14) 0.4949(5)
H19_18 H 0.8130 0.3049 0.4203
C24_18 C 0.82811(24) 0.35716(14) 0.5183(5)
H20_18 H 0.8425 0.3766 0.4582
H21_18 H 0.8302(16) 0.5720(11) 0.391(3)
H22_16 H 0.8995(19) 0.5074(14) 0.726(4)
C1_17 C 0.74679(11) 0.99247(12) 0.9629(3)
C4_17 C 0.73575(12) 0.94994(13) 0.9600(4)
C15_17 C 0.68524(12) 0.99892(13) 0.8964(3)
H3_17 H 0.6673 0.9728 0.9316
C21_17 C 0.70585(19) 0.91432(18) 0.8813(6)
H15_17 H 0.6927 0.9245 0.8266
H16_17 H 0.6844 0.8920 0.9291
H17_17 H 0.7212 0.9036 0.8380
C1_18 C 0.00753(12) 0.75432(16) 0.9629(3)
C4_18 C 0.05006(13) 0.78581(18) 0.9600(4)
C15_18 C 0.00108(13) 0.68632(18) 0.8964(3)
H3_18 H 0.0272 0.6945 0.9316
C21_18 C 0.08568(18) 0.79153(26) 0.8813(6)
H15_18 H 0.0755 0.7682 0.8266
H16_18 H 0.1080 0.7924 0.9291
H17_18 H 0.0964 0.8176 0.8380
N2_17 N 0.18309(9) 0.72945(10) 0.0384(3)
C7_17 C 0.22051(10) 0.76567(13) 0.0433(3)
C18_17 C 0.22544(14) 0.80411(14) 0.1039(4)
H8_17 H 0.2544 0.8266 0.0978
H9_17 H 0.2179 0.7979 0.1862
H10_17 H 0.2072 0.8128 0.0670
C19_17 C 0.32435(13) 0.79478(19) 0.0487(4)
H11_17 H 0.3153 0.7842 0.1248
C22_17 C 0.36769(13) 0.81852(18) 0.0244(4)
H18_17 H 0.3871 0.8227 0.0841
H22_17 H 0.1592(14) 0.7254(13) 0.060(4)
O6_11 O 0.08630(12) 0.63066(9) 0.0356(3)
O3_15 O 0.09932(13) 0.69658(10) 0.0685(3)
C3_17 C 0.03273(17) 0.63894(12) 0.1258(3)
C8_17 C 0.02005(18) 0.66507(12) 0.1799(4)
H1_15 H 0.0386 0.6942 0.1826
C10_17 C 0.00425(18) 0.59593(13) 0.1201(4)
H2_17 H 0.0121 0.5781 0.0822
C14_17 C 0.07640(18) 0.65766(14) 0.0733(3)
O3_16 O 0.97008(10) 0.73607(9) 0.4019(3)
H1_16 H 0.9724 0.6777 0.5160
O3_17 O 0.76598(13) 0.02992(10) 0.4019(3)
H1_17 H 0.7052 0.0276 0.5160
N2_18 N 0.54635(13) 0.81691(9) 0.0384(3)
C7_18 C 0.54515(16) 0.77949(10) 0.0433(3)
C18_18 C 0.57866(20) 0.77456(14) 0.1039(4)
H8_18 H 0.5721 0.7456 0.0978
H9_18 H 0.5799 0.7821 0.1862
H10_18 H 0.6055 0.7928 0.0670
C19_18 C 0.47042(23) 0.67565(13) 0.0487(4)
H11_18 H 0.4688 0.6847 0.1248
C22_18 C 0.45082(22) 0.63231(13) 0.0244(4)
H18_18 H 0.4355 0.6129 0.0841
H22_18 H 0.5661(19) 0.8408(14) 0.060(4)
O6_12 O 0.54437(15) 0.91370(12) 0.0356(3)
O3_18 O 0.59727(9) 0.90068(13) 0.0685(3)
C3_18 C 0.60622(12) 0.96727(17) 0.1258(3)
C8_18 C 0.64503(13) 0.97995(18) 0.1799(4)
H1_18 H 0.6557 0.9614 0.1826
C10_18 C 0.59169(13) 0.99575(18) 0.1201(4)
H2_18 H 0.5661 0.9879 0.0822
C14_18 C 0.58127(12) 0.92360(18) 0.0733(3)
loop_
_geom_bond_atom_site_label_1
_geom_bond_atom_site_label_2
_geom_bond_site_symmetry_1
_geom_bond_site_symmetry_2
C4 C1 1_555 1_555
H3 C15 1_555 1_555
C21 C4 1_555 1_555
H15 C21 1_555 1_555
H16 C21 1_555 1_555
H17 C21 1_555 1_555
Zn1 N1 1_555 1_555
N1 N4 1_555 1_555
H21 N4 1_555 1_555
O5 Zn1 1_555 1_555
O6 Zn1 1_555 1_555
O1 C6 1_555 1_555
C6 C9 1_555 1_555
C9 C22 1_555 1_555
O4 C6 1_555 1_555
H18 C22 1_555 1_555
C23 C9 1_555 1_555
H19 C23 1_555 1_555
Zn2 O1 1_555 1_555
O5 C6_2 1_555 1_555
N2 N3 1_555 1_555
C5 C7 1_555 1_555
C6_2 C9_2 1_555 1_555
C7 N2 1_555 1_555
C9_2 C22_2 1_555 1_555
O4_2 C6_2 1_555 1_555
C11 N3 1_555 1_555
C12 C5 1_555 1_555
C17 C2 1_555 1_555
H5 C17 1_555 1_555
H6 C17 1_555 1_555
H7 C17 1_555 1_555
C18 C7 1_555 1_555
H8 C18 1_555 1_555
H9 C18 1_555 1_555
H10 C18 1_555 1_555
C19 C12 1_555 1_555
H11 C19 1_555 1_555
C20 C11 1_555 1_555
H12 C20 1_555 1_555
H13 C20 1_555 1_555
C22_2 C19 1_555 1_555
H18_2 C22_2 1_555 1_555
C23_2 C9_2 1_555 1_555
H19_2 C23_2 1_555 1_555
C24 C12 1_555 1_555
H20 C24 1_555 1_555
H22 N2 1_555 1_555
C5 C11 1_555 1_555
C23_2 C24 1_555 1_555
Zn1_2 N1_2 1_555 1_555
N1_2 N4_2 1_555 1_555
H21_2 N4_2 1_555 1_555
O5_2 Zn1_2 1_555 1_555
O6_2 Zn1_2 1_555 1_555
O5_2 C6_3 1_555 1_555
C6_3 C9_3 1_555 1_555
C9_3 C22_3 1_555 1_555
O4_3 C6_3 1_555 1_555
H18_3 C22_3 1_555 1_555
C23_3 C9_3 1_555 1_555
H19_3 C23_3 1_555 1_555
Zn2 N1_3 1_555 1_555
N1_3 N4_3 1_555 1_555
N2_2 N3_2 1_555 1_555
N3_2 Zn2 1_555 1_555
C2_2 N1_3 1_555 1_555
C5_2 C7_2 1_555 1_555
C7_2 N2_2 1_555 1_555
C11_2 N3_2 1_555 1_555
C12_2 C5_2 1_555 1_555
C17_2 C2_2 1_555 1_555
H5_2 C17_2 1_555 1_555
H6_2 C17_2 1_555 1_555
H7_2 C17_2 1_555 1_555
C18_2 C7_2 1_555 1_555
H8_2 C18_2 1_555 1_555
H9_2 C18_2 1_555 1_555
H10_2 C18_2 1_555 1_555
C19_2 C12_2 1_555 1_555
H11_2 C19_2 1_555 1_555
C20_2 C11_2 1_555 1_555
H12_2 C20_2 1_555 1_555
H13_2 C20_2 1_555 1_555
H14_3 C20_2 1_555 1_555
C24_2 C12_2 1_555 1_555
H20_2 C24_2 1_555 1_555
H21_3 N4_3 1_555 1_555
H22_2 N2_2 1_555 1_555
O6_3 Zn2 1_555 1_555
C5_2 C11_2 1_555 1_555
Zn1_3 N1_4 1_555 1_555
N1_4 N4_4 1_555 1_555
O1_2 C6_4 1_555 1_555
O6_2 C14 1_555 1_555
N3_3 Zn1_3 1_555 1_555
N4_4 C4_2 1_555 1_555
C1_2 C2_3 1_555 1_555
C2_3 N1_4 1_555 1_555
C3 C8 1_555 1_555
C4_2 C1_2 1_555 1_555
C6_4 C9_4 1_555 1_555
C10 C3 1_555 1_555
H2 C10 1_555 1_555
O4_4 C6_4 1_555 1_555
C11_3 N3_3 1_555 1_555
C12_3 C5_3 1_555 1_555
C13 C1_2 1_555 1_555
C14 C3 1_555 1_555
C15_2 C8 1_555 1_555
H3_2 C15_2 1_555 1_555
C16 C10 1_555 1_555
H4 C16 1_555 1_555
C17_3 C2_3 1_555 1_555
H5_3 C17_3 1_555 1_555
H6_3 C17_3 1_555 1_555
H7_3 C17_3 1_555 1_555
C20_3 C11_3 1_555 1_555
H12_3 C20_3 1_555 1_555
H13_3 C20_3 1_555 1_555
H14_4 C20_3 1_555 1_555
C21_2 C4_2 1_555 1_555
H15_2 C21_2 1_555 1_555
H16_2 C21_2 1_555 1_555
H17_2 C21_2 1_555 1_555
C23_4 C9_4 1_555 1_555
H19_4 C23_4 1_555 1_555
C24_3 C12_3 1_555 1_555
H20_3 C24_3 1_555 1_555
H21_4 N4_4 1_555 1_555
Zn2_2 O1_2 1_555 1_555
O5_3 Zn1_3 1_555 1_555
C5_3 C11_3 1_555 1_555
C13 C15_2 1_555 1_555
C13 C16 1_555 1_555
C23_4 C24_3 1_555 1_555
Zn1_4 N1_5 1_555 1_555
N1_5 N4_5 1_555 1_555
O5_3 C6_5 1_555 1_555
O6_3 C14_2 1_555 1_555
N3_4 Zn1_4 1_555 1_555
N4_5 C4_3 1_555 1_555
C1_3 C2_4 1_555 1_555
O3 C14_2 1_555 1_555
C2_4 N1_5 1_555 1_555
C3_2 C8_2 1_555 1_555
C4_3 C1_3 1_555 1_555
C6_5 C9_5 1_555 1_555
C8_2 H1 1_555 1_555
C10_2 C3_2 1_555 1_555
H2_2 C10_2 1_555 1_555
O4_5 C6_5 1_555 1_555
C11_4 N3_4 1_555 1_555
C12_4 C5_4 1_555 1_555
C13_2 C1_3 1_555 1_555
C14_2 C3_2 1_555 1_555
C15_3 C8_2 1_555 1_555
H3_3 C15_3 1_555 1_555
C16_2 C10_2 1_555 1_555
H4_2 C16_2 1_555 1_555
C17_4 C2_4 1_555 1_555
H5_4 C17_4 1_555 1_555
H6_4 C17_4 1_555 1_555
H7_4 C17_4 1_555 1_555
C20_4 C11_4 1_555 1_555
H12_4 C20_4 1_555 1_555
H13_4 C20_4 1_555 1_555
H14_5 C20_4 1_555 1_555
C21_3 C4_3 1_555 1_555
H15_3 C21_3 1_555 1_555
H16_3 C21_3 1_555 1_555
H17_3 C21_3 1_555 1_555
C23_5 C9_5 1_555 1_555
H19_5 C23_5 1_555 1_555
C24_4 C12_4 1_555 1_555
H20_4 C24_4 1_555 1_555
H21_5 N4_5 1_555 1_555
O5_4 Zn1_4 1_555 1_555
C5_4 C11_4 1_555 1_555
C13_2 C15_3 1_555 1_555
C13_2 C16_2 1_555 1_555
C23_5 C24_4 1_555 1_555
Zn2_2 N1_6 1_555 1_555
N1_6 N4_6 1_555 1_555
O5_4 C6_6 1_555 1_555
O6 C14_3 1_555 1_555
N3_5 Zn2_2 1_555 1_555
N4_6 C4_4 1_555 1_555
C1_4 C2_5 1_555 1_555
C2_5 N1_6 1_555 1_555
C3_3 C8_3 1_555 1_555
C4_4 C1_4 1_555 1_555
C6_6 C9_6 1_555 1_555
C10_3 C3_3 1_555 1_555
H2_3 C10_3 1_555 1_555
O4_6 C6_6 1_555 1_555
C11_5 N3_5 1_555 1_555
C12_5 C5_5 1_555 1_555
C13_3 C1_4 1_555 1_555
C14_3 C3_3 1_555 1_555
C15_4 C8_3 1_555 1_555
H3_4 C15_4 1_555 1_555
C16_3 C10_3 1_555 1_555
H4_3 C16_3 1_555 1_555
C17_5 C2_5 1_555 1_555
H5_5 C17_5 1_555 1_555
H6_5 C17_5 1_555 1_555
H7_5 C17_5 1_555 1_555
C20_5 C11_5 1_555 1_555
H12_5 C20_5 1_555 1_555
H13_5 C20_5 1_555 1_555
H14_6 C20_5 1_555 1_555
C21_4 C4_4 1_555 1_555
H15_4 C21_4 1_555 1_555
H16_4 C21_4 1_555 1_555
H17_4 C21_4 1_555 1_555
C23_6 C9_6 1_555 1_555
H19_6 C23_6 1_555 1_555
C24_5 C12_5 1_555 1_555
H20_5 C24_5 1_555 1_555
H21_6 N4_6 1_555 1_555
C5_5 C11_5 1_555 1_555
C13_3 C15_4 1_555 1_555
C13_3 C16_3 1_555 1_555
C23_6 C24_5 1_555 1_555
O2 C14_4 1_555 1_555
O3_2 C14_4 1_555 1_555
C3_4 C8_4 1_555 1_555
C8_4 H1_2 1_555 1_555
C10_4 C3_4 1_555 1_555
H2_4 C10_4 1_555 1_555
C14_4 C3_4 1_555 1_555
C16_4 C10_4 1_555 1_555
H4_4 C16_4 1_555 1_555
Zn3 O2 1_555 1_555
C13_4 C16_4 1_555 1_555
O2_2 C14_5 1_555 1_555
O3_3 C14_5 1_555 1_555
C3_5 C8_5 1_555 1_555
C8_5 H1_3 1_555 1_555
C10_5 C3_5 1_555 1_555
H2_5 C10_5 1_555 1_555
C14_5 C3_5 1_555 1_555
C16_5 C10_5 1_555 1_555
H4_5 C16_5 1_555 1_555
Zn3_2 O2_2 1_555 1_555
C13_5 C16_5 1_555 1_555
O2_3 C14_6 1_555 1_555
O3_4 C14_6 1_555 1_555
C3_6 C8_6 1_555 1_555
C4_5 C1_5 1_555 1_555
C8_6 H1_4 1_555 1_555
C10_6 C3_6 1_555 1_555
H2_6 C10_6 1_555 1_555
C13_6 C1_5 1_555 1_555
C14_6 C3_6 1_555 1_555
C15_5 C8_6 1_555 1_555
H3_5 C15_5 1_555 1_555
C16_6 C10_6 1_555 1_555
H4_6 C16_6 1_555 1_555
C21_5 C4_5 1_555 1_555
H15_5 C21_5 1_555 1_555
H16_5 C21_5 1_555 1_555
H17_5 C21_5 1_555 1_555
Zn3_3 O2_3 1_555 1_555
C13_6 C15_5 1_555 1_555
C13_6 C16_6 1_555 1_555
C7_3 N2_3 1_555 1_555
C18_3 C7_3 1_555 1_555
H8_3 C18_3 1_555 1_555
H9_3 C18_3 1_555 1_555
H10_3 C18_3 1_555 1_555
H11_3 C19_3 1_555 1_555
C22_4 C19_3 1_555 1_555
H18_4 C22_4 1_555 1_555
H22_3 N2_3 1_555 1_555
Zn3_3 N1_7 1_555 1_555
N1_7 N4_7 1_555 1_555
O1_3 C6_7 1_555 1_555
O6_4 C14_7 1_555 1_555
N2_4 N3_6 1_555 1_555
N3_6 Zn3_3 1_555 1_555
N4_7 C4_6 1_555 1_555
C1_6 C2_6 1_555 1_555
O3_5 C14_7 1_555 1_555
C2_6 N1_7 1_555 1_555
C3_7 C8_7 1_555 1_555
C4_6 C1_6 1_555 1_555
C5_6 C7_4 1_555 1_555
C6_7 C9_7 1_555 1_555
C7_4 N2_4 1_555 1_555
C8_7 H1_5 1_555 1_555
C9_7 C22_5 1_555 1_555
C10_7 C3_7 1_555 1_555
H2_7 C10_7 1_555 1_555
O4_7 C6_7 1_555 1_555
C11_6 N3_6 1_555 1_555
C12_6 C5_6 1_555 1_555
C13_7 C1_6 1_555 1_555
C14_7 C3_7 1_555 1_555
C15_6 C8_7 1_555 1_555
H3_6 C15_6 1_555 1_555
C16_7 C10_7 1_555 1_555
H4_7 C16_7 1_555 1_555
C17_6 C2_6 1_555 1_555
H5_6 C17_6 1_555 1_555
H6_6 C17_6 1_555 1_555
H7_6 C17_6 1_555 1_555
C18_4 C7_4 1_555 1_555
H8_4 C18_4 1_555 1_555
H9_4 C18_4 1_555 1_555
H10_4 C18_4 1_555 1_555
C19_4 C12_6 1_555 1_555
H11_4 C19_4 1_555 1_555
C20_6 C11_6 1_555 1_555
H12_6 C20_6 1_555 1_555
H13_6 C20_6 1_555 1_555
H14_7 C20_6 1_555 1_555
C21_6 C4_6 1_555 1_555
H15_6 C21_6 1_555 1_555
H16_6 C21_6 1_555 1_555
H17_6 C21_6 1_555 1_555
C22_5 C19_4 1_555 1_555
H18_5 C22_5 1_555 1_555
C23_7 C9_7 1_555 1_555
H19_7 C23_7 1_555 1_555
C24_6 C12_6 1_555 1_555
H20_6 C24_6 1_555 1_555
H21_7 N4_7 1_555 1_555
H22_4 N2_4 1_555 1_555
Zn3_2 O1_3 1_555 1_555
O5_5 Zn3_3 1_555 1_555
C5_6 C11_6 1_555 1_555
C13_7 C15_6 1_555 1_555
C13_7 C16_7 1_555 1_555
C23_7 C24_6 1_555 1_555
Zn3 N1_8 1_555 1_555
N1_8 N4_8 1_555 1_555
O5_5 C6_8 1_555 1_555
N2_5 N3_7 1_555 1_555
N3_7 Zn3 1_555 1_555
N4_8 C4_7 1_555 1_555
C1_7 C2_7 1_555 1_555
C2_7 N1_8 1_555 1_555
C4_7 C1_7 1_555 1_555
C5_7 C7_5 1_555 1_555
C6_8 C9_8 1_555 1_555
C7_5 N2_5 1_555 1_555
C9_8 C22_6 1_555 1_555
O4_8 C6_8 1_555 1_555
C11_7 N3_7 1_555 1_555
C12_7 C5_7 1_555 1_555
C13_8 C1_7 1_555 1_555
H3_7 C15_7 1_555 1_555
H4_8 C16_8 1_555 1_555
C17_7 C2_7 1_555 1_555
H5_7 C17_7 1_555 1_555
H6_7 C17_7 1_555 1_555
H7_7 C17_7 1_555 1_555
C18_5 C7_5 1_555 1_555
H8_5 C18_5 1_555 1_555
H9_5 C18_5 1_555 1_555
H10_5 C18_5 1_555 1_555
C19_5 C12_7 1_555 1_555
H11_5 C19_5 1_555 1_555
C20_7 C11_7 1_555 1_555
H12_7 C20_7 1_555 1_555
H13_7 C20_7 1_555 1_555
H14_8 C20_7 1_555 1_555
C21_7 C4_7 1_555 1_555
H15_7 C21_7 1_555 1_555
H16_7 C21_7 1_555 1_555
H17_7 C21_7 1_555 1_555
C22_6 C19_5 1_555 1_555
H18_6 C22_6 1_555 1_555
C23_8 C9_8 1_555 1_555
H19_8 C23_8 1_555 1_555
C24_7 C12_7 1_555 1_555
H20_7 C24_7 1_555 1_555
H21_8 N4_8 1_555 1_555
H22_5 N2_5 1_555 1_555
O5_6 Zn3 1_555 1_555
C5_7 C11_7 1_555 1_555
C13_8 C15_7 1_555 1_555
C13_8 C16_8 1_555 1_555
C23_8 C24_7 1_555 1_555
Zn3_2 N1_9 1_555 1_555
N1_9 N4_9 1_555 1_555
O5_6 C6_9 1_555 1_555
N2_6 N3_8 1_555 1_555
N3_8 Zn3_2 1_555 1_555
N4_9 C4_8 1_555 1_555
C1_8 C2_8 1_555 1_555
C2_8 N1_9 1_555 1_555
C4_8 C1_8 1_555 1_555
C5_8 C7_6 1_555 1_555
C6_9 C9_9 1_555 1_555
C7_6 N2_6 1_555 1_555
C9_9 C22_7 1_555 1_555
O4_9 C6_9 1_555 1_555
C11_8 N3_8 1_555 1_555
C12_8 C5_8 1_555 1_555
C13_9 C1_8 1_555 1_555
H3_8 C15_8 1_555 1_555
H4_9 C16_9 1_555 1_555
C17_8 C2_8 1_555 1_555
H5_8 C17_8 1_555 1_555
H6_8 C17_8 1_555 1_555
H7_8 C17_8 1_555 1_555
C18_6 C7_6 1_555 1_555
H8_6 C18_6 1_555 1_555
H9_6 C18_6 1_555 1_555
H10_6 C18_6 1_555 1_555
C19_6 C12_8 1_555 1_555
H11_6 C19_6 1_555 1_555
C20_8 C11_8 1_555 1_555
H12_8 C20_8 1_555 1_555
H13_8 C20_8 1_555 1_555
H14_9 C20_8 1_555 1_555
C21_8 C4_8 1_555 1_555
H15_8 C21_8 1_555 1_555
H16_8 C21_8 1_555 1_555
H17_8 C21_8 1_555 1_555
C22_7 C19_6 1_555 1_555
H18_7 C22_7 1_555 1_555
C23_9 C9_9 1_555 1_555
H19_9 C23_9 1_555 1_555
C24_8 C12_8 1_555 1_555
H20_8 C24_8 1_555 1_555
H21_9 N4_9 1_555 1_555
H22_6 N2_6 1_555 1_555
C5_8 C11_8 1_555 1_555
C13_9 C15_8 1_555 1_555
C13_9 C16_9 1_555 1_555
C23_9 C24_8 1_555 1_555
N2_7 N3_9 1_555 1_555
C5_9 C7_7 1_555 1_555
C7_7 N2_7 1_555 1_555
C11_9 N3_9 1_555 1_555
C12_9 C5_9 1_555 1_555
C17_9 C2_9 1_555 1_555
H5_9 C17_9 1_555 1_555
H6_9 C17_9 1_555 1_555
H7_9 C17_9 1_555 1_555
C18_7 C7_7 1_555 1_555
H8_7 C18_7 1_555 1_555
H9_7 C18_7 1_555 1_555
H10_7 C18_7 1_555 1_555
C19_7 C12_9 1_555 1_555
H11_7 C19_7 1_555 1_555
C20_9 C11_9 1_555 1_555
H12_9 C20_9 1_555 1_555
H13_9 C20_9 1_555 1_555
C24_9 C12_9 1_555 1_555
H20_9 C24_9 1_555 1_555
H22_7 N2_7 1_555 1_555
C5_9 C11_9 1_555 1_555
C4_9 C1_9 1_555 1_555
H3_9 C15_9 1_555 1_555
C21_9 C4_9 1_555 1_555
H15_9 C21_9 1_555 1_555
H16_9 C21_9 1_555 1_555
H17_9 C21_9 1_555 1_555
C7_8 N2_8 1_555 1_555
C18_8 C7_8 1_555 1_555
H8_8 C18_8 1_555 1_555
H9_8 C18_8 1_555 1_555
H10_8 C18_8 1_555 1_555
H11_8 C19_8 1_555 1_555
C22_8 C19_8 1_555 1_555
H18_8 C22_8 1_555 1_555
H22_8 N2_8 1_555 1_555
O6_5 C14_8 1_555 1_555
O3_7 C14_8 1_555 1_555
C3_8 C8_8 1_555 1_555
C8_8 H1_7 1_555 1_555
C10_8 C3_8 1_555 1_555
H2_8 C10_8 1_555 1_555
C14_8 C3_8 1_555 1_555
C7_9 N2_9 1_555 1_555
C18_9 C7_9 1_555 1_555
H8_9 C18_9 1_555 1_555
H9_9 C18_9 1_555 1_555
H10_9 C18_9 1_555 1_555
H11_9 C19_9 1_555 1_555
C22_9 C19_9 1_555 1_555
H18_9 C22_9 1_555 1_555
H22_9 N2_9 1_555 1_555
O6_6 C14_9 1_555 1_555
O3_8 C14_9 1_555 1_555
C3_9 C8_9 1_555 1_555
C8_9 H1_8 1_555 1_555
C10_9 C3_9 1_555 1_555
H2_9 C10_9 1_555 1_555
C14_9 C3_9 1_555 1_555
O1_4 C6_10 1_555 1_555
C6_10 C9_10 1_555 1_555
C9_10 C22_10 1_555 1_555
O4_10 C6_10 1_555 1_555
H18_10 C22_10 1_555 1_555
C23_10 C9_10 1_555 1_555
H19_10 C23_10 1_555 1_555
Zn2_3 O1_4 1_555 1_555
Zn1_5 N1_10 1_555 1_555
N1_10 N4_10 1_555 1_555
H21_10 N4_10 1_555 1_555
O5_7 Zn1_5 1_555 1_555
O6_7 Zn1_5 1_555 1_555
Zn1_6 N1_11 1_555 1_555
N1_11 N4_11 1_555 1_555
H21_11 N4_11 1_555 1_555
O5_8 Zn1_6 1_555 1_555
O6_8 Zn1_6 1_555 1_555
O5_7 C6_11 1_555 1_555
N2_10 N3_10 1_555 1_555
C5_10 C7_10 1_555 1_555
C6_11 C9_11 1_555 1_555
C7_10 N2_10 1_555 1_555
C9_11 C22_11 1_555 1_555
O4_11 C6_11 1_555 1_555
C11_10 N3_10 1_555 1_555
C12_10 C5_10 1_555 1_555
C17_10 C2_10 1_555 1_555
H5_10 C17_10 1_555 1_555
H6_10 C17_10 1_555 1_555
H7_10 C17_10 1_555 1_555
C18_10 C7_10 1_555 1_555
H8_10 C18_10 1_555 1_555
H9_10 C18_10 1_555 1_555
H10_10 C18_10 1_555 1_555
C19_10 C12_10 1_555 1_555
H11_10 C19_10 1_555 1_555
C20_10 C11_10 1_555 1_555
H12_10 C20_10 1_555 1_555
H13_10 C20_10 1_555 1_555
C22_11 C19_10 1_555 1_555
H18_11 C22_11 1_555 1_555
C23_11 C9_11 1_555 1_555
H19_11 C23_11 1_555 1_555
C24_10 C12_10 1_555 1_555
H20_10 C24_10 1_555 1_555
H22_10 N2_10 1_555 1_555
C5_10 C11_10 1_555 1_555
C23_11 C24_10 1_555 1_555
Zn2_3 N1_12 1_555 1_555
N1_12 N4_12 1_555 1_555
N2_11 N3_11 1_555 1_555
N3_11 Zn2_3 1_555 1_555
C2_11 N1_12 1_555 1_555
C5_11 C7_11 1_555 1_555
C7_11 N2_11 1_555 1_555
C11_11 N3_11 1_555 1_555
C12_11 C5_11 1_555 1_555
C17_11 C2_11 1_555 1_555
H5_11 C17_11 1_555 1_555
H6_11 C17_11 1_555 1_555
H7_11 C17_11 1_555 1_555
C18_11 C7_11 1_555 1_555
H8_11 C18_11 1_555 1_555
H9_11 C18_11 1_555 1_555
H10_11 C18_11 1_555 1_555
C19_11 C12_11 1_555 1_555
H11_11 C19_11 1_555 1_555
C20_11 C11_11 1_555 1_555
H12_11 C20_11 1_555 1_555
H13_11 C20_11 1_555 1_555
H14_12 C20_11 1_555 1_555
C24_11 C12_11 1_555 1_555
H20_11 C24_11 1_555 1_555
H21_12 N4_12 1_555 1_555
H22_11 N2_11 1_555 1_555
O6_9 Zn2_3 1_555 1_555
C5_11 C11_11 1_555 1_555
O5_8 C6_12 1_555 1_555
C6_12 C9_12 1_555 1_555
C9_12 C22_12 1_555 1_555
O4_12 C6_12 1_555 1_555
H18_12 C22_12 1_555 1_555
C23_12 C9_12 1_555 1_555
H19_12 C23_12 1_555 1_555
Zn1_7 N1_13 1_555 1_555
N1_13 N4_13 1_555 1_555
O1_5 C6_13 1_555 1_555
O6_8 C14_10 1_555 1_555
N3_12 Zn1_7 1_555 1_555
N4_13 C4_10 1_555 1_555
C1_10 C2_12 1_555 1_555
C2_12 N1_13 1_555 1_555
C3_10 C8_10 1_555 1_555
C4_10 C1_10 1_555 1_555
C6_13 C9_13 1_555 1_555
C10_10 C3_10 1_555 1_555
H2_10 C10_10 1_555 1_555
O4_13 C6_13 1_555 1_555
C11_12 N3_12 1_555 1_555
C12_12 C5_12 1_555 1_555
C13_10 C1_10 1_555 1_555
C14_10 C3_10 1_555 1_555
C15_10 C8_10 1_555 1_555
H3_10 C15_10 1_555 1_555
C16_10 C10_10 1_555 1_555
H4_10 C16_10 1_555 1_555
C17_12 C2_12 1_555 1_555
H5_12 C17_12 1_555 1_555
H6_12 C17_12 1_555 1_555
H7_12 C17_12 1_555 1_555
C20_12 C11_12 1_555 1_555
H12_12 C20_12 1_555 1_555
H13_12 C20_12 1_555 1_555
H14_13 C20_12 1_555 1_555
C21_10 C4_10 1_555 1_555
H15_10 C21_10 1_555 1_555
H16_10 C21_10 1_555 1_555
H17_10 C21_10 1_555 1_555
C23_13 C9_13 1_555 1_555
H19_13 C23_13 1_555 1_555
C24_12 C12_12 1_555 1_555
H20_12 C24_12 1_555 1_555
H21_13 N4_13 1_555 1_555
Zn2_4 O1_5 1_555 1_555
O5_9 Zn1_7 1_555 1_555
C5_12 C11_12 1_555 1_555
C13_10 C15_10 1_555 1_555
C13_10 C16_10 1_555 1_555
C23_13 C24_12 1_555 1_555
Zn1_8 N1_14 1_555 1_555
N1_14 N4_14 1_555 1_555
O5_9 C6_14 1_555 1_555
O6_9 C14_11 1_555 1_555
N3_13 Zn1_8 1_555 1_555
N4_14 C4_11 1_555 1_555
C1_11 C2_13 1_555 1_555
O3_10 C14_11 1_555 1_555
C2_13 N1_14 1_555 1_555
C3_11 C8_11 1_555 1_555
C4_11 C1_11 1_555 1_555
C6_14 C9_14 1_555 1_555
C8_11 H1_10 1_555 1_555
C10_11 C3_11 1_555 1_555
H2_11 C10_11 1_555 1_555
O4_14 C6_14 1_555 1_555
C11_13 N3_13 1_555 1_555
C12_13 C5_13 1_555 1_555
C13_11 C1_11 1_555 1_555
C14_11 C3_11 1_555 1_555
C15_11 C8_11 1_555 1_555
H3_11 C15_11 1_555 1_555
C16_11 C10_11 1_555 1_555
H4_11 C16_11 1_555 1_555
C17_13 C2_13 1_555 1_555
H5_13 C17_13 1_555 1_555
H6_13 C17_13 1_555 1_555
H7_13 C17_13 1_555 1_555
C20_13 C11_13 1_555 1_555
H12_13 C20_13 1_555 1_555
H13_13 C20_13 1_555 1_555
H14_14 C20_13 1_555 1_555
C21_11 C4_11 1_555 1_555
H15_11 C21_11 1_555 1_555
H16_11 C21_11 1_555 1_555
H17_11 C21_11 1_555 1_555
C23_14 C9_14 1_555 1_555
H19_14 C23_14 1_555 1_555
C24_13 C12_13 1_555 1_555
H20_13 C24_13 1_555 1_555
H21_14 N4_14 1_555 1_555
O5_10 Zn1_8 1_555 1_555
C5_13 C11_13 1_555 1_555
C13_11 C15_11 1_555 1_555
C13_11 C16_11 1_555 1_555
C23_14 C24_13 1_555 1_555
Zn2_4 N1_15 1_555 1_555
N1_15 N4_15 1_555 1_555
O5_10 C6_15 1_555 1_555
O6_7 C14_12 1_555 1_555
N3_14 Zn2_4 1_555 1_555
N4_15 C4_12 1_555 1_555
C1_12 C2_14 1_555 1_555
C2_14 N1_15 1_555 1_555
C3_12 C8_12 1_555 1_555
C4_12 C1_12 1_555 1_555
C6_15 C9_15 1_555 1_555
C10_12 C3_12 1_555 1_555
H2_12 C10_12 1_555 1_555
O4_15 C6_15 1_555 1_555
C11_14 N3_14 1_555 1_555
C12_14 C5_14 1_555 1_555
C13_12 C1_12 1_555 1_555
C14_12 C3_12 1_555 1_555
C15_12 C8_12 1_555 1_555
H3_12 C15_12 1_555 1_555
C16_12 C10_12 1_555 1_555
H4_12 C16_12 1_555 1_555
C17_14 C2_14 1_555 1_555
H5_14 C17_14 1_555 1_555
H6_14 C17_14 1_555 1_555
H7_14 C17_14 1_555 1_555
C20_14 C11_14 1_555 1_555
H12_14 C20_14 1_555 1_555
H13_14 C20_14 1_555 1_555
H14_15 C20_14 1_555 1_555
C21_12 C4_12 1_555 1_555
H15_12 C21_12 1_555 1_555
H16_12 C21_12 1_555 1_555
H17_12 C21_12 1_555 1_555
C23_15 C9_15 1_555 1_555
H19_15 C23_15 1_555 1_555
C24_14 C12_14 1_555 1_555
H20_14 C24_14 1_555 1_555
H21_15 N4_15 1_555 1_555
C5_14 C11_14 1_555 1_555
C13_12 C15_12 1_555 1_555
C13_12 C16_12 1_555 1_555
C23_15 C24_14 1_555 1_555
N2_12 N3_15 1_555 1_555
C5_15 C7_12 1_555 1_555
C7_12 N2_12 1_555 1_555
C11_15 N3_15 1_555 1_555
C12_15 C5_15 1_555 1_555
C17_15 C2_15 1_555 1_555
H5_15 C17_15 1_555 1_555
H6_15 C17_15 1_555 1_555
H7_15 C17_15 1_555 1_555
C18_12 C7_12 1_555 1_555
H8_12 C18_12 1_555 1_555
H9_12 C18_12 1_555 1_555
H10_12 C18_12 1_555 1_555
C19_12 C12_15 1_555 1_555
H11_12 C19_12 1_555 1_555
C20_15 C11_15 1_555 1_555
H12_15 C20_15 1_555 1_555
H13_15 C20_15 1_555 1_555
C24_15 C12_15 1_555 1_555
H20_15 C24_15 1_555 1_555
H22_12 N2_12 1_555 1_555
C5_15 C11_15 1_555 1_555
O2_4 C14_13 1_555 1_555
O3_11 C14_13 1_555 1_555
C3_13 C8_13 1_555 1_555
C8_13 H1_11 1_555 1_555
C10_13 C3_13 1_555 1_555
H2_13 C10_13 1_555 1_555
C14_13 C3_13 1_555 1_555
C16_13 C10_13 1_555 1_555
H4_13 C16_13 1_555 1_555
Zn3_4 O2_4 1_555 1_555
C13_13 C16_13 1_555 1_555
O2_5 C14_14 1_555 1_555
O3_12 C14_14 1_555 1_555
C3_14 C8_14 1_555 1_555
C8_14 H1_12 1_555 1_555
C10_14 C3_14 1_555 1_555
H2_14 C10_14 1_555 1_555
C14_14 C3_14 1_555 1_555
C16_14 C10_14 1_555 1_555
H4_14 C16_14 1_555 1_555
Zn3_5 O2_5 1_555 1_555
C13_14 C16_14 1_555 1_555
O2_6 C14_15 1_555 1_555
O3_13 C14_15 1_555 1_555
C3_15 C8_15 1_555 1_555
C4_13 C1_13 1_555 1_555
C8_15 H1_13 1_555 1_555
C10_15 C3_15 1_555 1_555
H2_15 C10_15 1_555 1_555
C13_15 C1_13 1_555 1_555
C14_15 C3_15 1_555 1_555
C15_13 C8_15 1_555 1_555
H3_13 C15_13 1_555 1_555
C16_15 C10_15 1_555 1_555
H4_15 C16_15 1_555 1_555
C21_13 C4_13 1_555 1_555
H15_13 C21_13 1_555 1_555
H16_13 C21_13 1_555 1_555
H17_13 C21_13 1_555 1_555
Zn3_6 O2_6 1_555 1_555
C13_15 C15_13 1_555 1_555
C13_15 C16_15 1_555 1_555
C7_13 N2_13 1_555 1_555
C18_13 C7_13 1_555 1_555
H8_13 C18_13 1_555 1_555
H9_13 C18_13 1_555 1_555
H10_13 C18_13 1_555 1_555
H11_13 C19_13 1_555 1_555
C22_13 C19_13 1_555 1_555
H18_13 C22_13 1_555 1_555
H22_13 N2_13 1_555 1_555
Zn3_6 N1_16 1_555 1_555
N1_16 N4_16 1_555 1_555
O1_6 C6_16 1_555 1_555
O6_10 C14_16 1_555 1_555
N2_14 N3_16 1_555 1_555
N3_16 Zn3_6 1_555 1_555
N4_16 C4_14 1_555 1_555
C1_14 C2_16 1_555 1_555
O3_14 C14_16 1_555 1_555
C2_16 N1_16 1_555 1_555
C3_16 C8_16 1_555 1_555
C4_14 C1_14 1_555 1_555
C5_16 C7_14 1_555 1_555
C6_16 C9_16 1_555 1_555
C7_14 N2_14 1_555 1_555
C8_16 H1_14 1_555 1_555
C9_16 C22_14 1_555 1_555
C10_16 C3_16 1_555 1_555
H2_16 C10_16 1_555 1_555
O4_16 C6_16 1_555 1_555
C11_16 N3_16 1_555 1_555
C12_16 C5_16 1_555 1_555
C13_16 C1_14 1_555 1_555
C14_16 C3_16 1_555 1_555
C15_14 C8_16 1_555 1_555
H3_14 C15_14 1_555 1_555
C16_16 C10_16 1_555 1_555
H4_16 C16_16 1_555 1_555
C17_16 C2_16 1_555 1_555
H5_16 C17_16 1_555 1_555
H6_16 C17_16 1_555 1_555
H7_16 C17_16 1_555 1_555
C18_14 C7_14 1_555 1_555
H8_14 C18_14 1_555 1_555
H9_14 C18_14 1_555 1_555
H10_14 C18_14 1_555 1_555
C19_14 C12_16 1_555 1_555
H11_14 C19_14 1_555 1_555
C20_16 C11_16 1_555 1_555
H12_16 C20_16 1_555 1_555
H13_16 C20_16 1_555 1_555
H14_16 C20_16 1_555 1_555
C21_14 C4_14 1_555 1_555
H15_14 C21_14 1_555 1_555
H16_14 C21_14 1_555 1_555
H17_14 C21_14 1_555 1_555
C22_14 C19_14 1_555 1_555
H18_14 C22_14 1_555 1_555
C23_16 C9_16 1_555 1_555
H19_16 C23_16 1_555 1_555
C24_16 C12_16 1_555 1_555
H20_16 C24_16 1_555 1_555
H21_16 N4_16 1_555 1_555
H22_14 N2_14 1_555 1_555
Zn3_5 O1_6 1_555 1_555
O5_11 Zn3_6 1_555 1_555
C5_16 C11_16 1_555 1_555
C13_16 C15_14 1_555 1_555
C13_16 C16_16 1_555 1_555
C23_16 C24_16 1_555 1_555
Zn3_4 N1_17 1_555 1_555
N1_17 N4_17 1_555 1_555
O5_11 C6_17 1_555 1_555
N2_15 N3_17 1_555 1_555
N3_17 Zn3_4 1_555 1_555
N4_17 C4_15 1_555 1_555
C1_15 C2_17 1_555 1_555
C2_17 N1_17 1_555 1_555
C4_15 C1_15 1_555 1_555
C5_17 C7_15 1_555 1_555
C6_17 C9_17 1_555 1_555
C7_15 N2_15 1_555 1_555
C9_17 C22_15 1_555 1_555
O4_17 C6_17 1_555 1_555
C11_17 N3_17 1_555 1_555
C12_17 C5_17 1_555 1_555
C13_17 C1_15 1_555 1_555
H3_15 C15_15 1_555 1_555
H4_17 C16_17 1_555 1_555
C17_17 C2_17 1_555 1_555
H5_17 C17_17 1_555 1_555
H6_17 C17_17 1_555 1_555
H7_17 C17_17 1_555 1_555
C18_15 C7_15 1_555 1_555
H8_15 C18_15 1_555 1_555
H9_15 C18_15 1_555 1_555
H10_15 C18_15 1_555 1_555
C19_15 C12_17 1_555 1_555
H11_15 C19_15 1_555 1_555
C20_17 C11_17 1_555 1_555
H12_17 C20_17 1_555 1_555
H13_17 C20_17 1_555 1_555
H14_17 C20_17 1_555 1_555
C21_15 C4_15 1_555 1_555
H15_15 C21_15 1_555 1_555
H16_15 C21_15 1_555 1_555
H17_15 C21_15 1_555 1_555
C22_15 C19_15 1_555 1_555
H18_15 C22_15 1_555 1_555
C23_17 C9_17 1_555 1_555
H19_17 C23_17 1_555 1_555
C24_17 C12_17 1_555 1_555
H20_17 C24_17 1_555 1_555
H21_17 N4_17 1_555 1_555
H22_15 N2_15 1_555 1_555
O5_12 Zn3_4 1_555 1_555
C5_17 C11_17 1_555 1_555
C13_17 C15_15 1_555 1_555
C13_17 C16_17 1_555 1_555
C23_17 C24_17 1_555 1_555
Zn3_5 N1_18 1_555 1_555
N1_18 N4_18 1_555 1_555
O5_12 C6_18 1_555 1_555
N2_16 N3_18 1_555 1_555
N3_18 Zn3_5 1_555 1_555
N4_18 C4_16 1_555 1_555
C1_16 C2_18 1_555 1_555
C2_18 N1_18 1_555 1_555
C4_16 C1_16 1_555 1_555
C5_18 C7_16 1_555 1_555
C6_18 C9_18 1_555 1_555
C7_16 N2_16 1_555 1_555
C9_18 C22_16 1_555 1_555
O4_18 C6_18 1_555 1_555
C11_18 N3_18 1_555 1_555
C12_18 C5_18 1_555 1_555
C13_18 C1_16 1_555 1_555
H3_16 C15_16 1_555 1_555
H4_18 C16_18 1_555 1_555
C17_18 C2_18 1_555 1_555
H5_18 C17_18 1_555 1_555
H6_18 C17_18 1_555 1_555
H7_18 C17_18 1_555 1_555
C18_16 C7_16 1_555 1_555
H8_16 C18_16 1_555 1_555
H9_16 C18_16 1_555 1_555
H10_16 C18_16 1_555 1_555
C19_16 C12_18 1_555 1_555
H11_16 C19_16 1_555 1_555
C20_18 C11_18 1_555 1_555
H12_18 C20_18 1_555 1_555
H13_18 C20_18 1_555 1_555
H14_18 C20_18 1_555 1_555
C21_16 C4_16 1_555 1_555
H15_16 C21_16 1_555 1_555
H16_16 C21_16 1_555 1_555
H17_16 C21_16 1_555 1_555
C22_16 C19_16 1_555 1_555
H18_16 C22_16 1_555 1_555
C23_18 C9_18 1_555 1_555
H19_18 C23_18 1_555 1_555
C24_18 C12_18 1_555 1_555
H20_18 C24_18 1_555 1_555
H21_18 N4_18 1_555 1_555
H22_16 N2_16 1_555 1_555
C5_18 C11_18 1_555 1_555
C13_18 C15_16 1_555 1_555
C13_18 C16_18 1_555 1_555
C23_18 C24_18 1_555 1_555
C4_17 C1_17 1_555 1_555
H3_17 C15_17 1_555 1_555
C21_17 C4_17 1_555 1_555
H15_17 C21_17 1_555 1_555
H16_17 C21_17 1_555 1_555
H17_17 C21_17 1_555 1_555
C4_18 C1_18 1_555 1_555
H3_18 C15_18 1_555 1_555
C21_18 C4_18 1_555 1_555
H15_18 C21_18 1_555 1_555
H16_18 C21_18 1_555 1_555
H17_18 C21_18 1_555 1_555
C7_17 N2_17 1_555 1_555
C18_17 C7_17 1_555 1_555
H8_17 C18_17 1_555 1_555
H9_17 C18_17 1_555 1_555
H10_17 C18_17 1_555 1_555
H11_17 C19_17 1_555 1_555
C22_17 C19_17 1_555 1_555
H18_17 C22_17 1_555 1_555
H22_17 N2_17 1_555 1_555
O6_11 C14_17 1_555 1_555
O3_15 C14_17 1_555 1_555
C3_17 C8_17 1_555 1_555
C8_17 H1_15 1_555 1_555
C10_17 C3_17 1_555 1_555
H2_17 C10_17 1_555 1_555
C14_17 C3_17 1_555 1_555
C7_18 N2_18 1_555 1_555
C18_18 C7_18 1_555 1_555
H8_18 C18_18 1_555 1_555
H9_18 C18_18 1_555 1_555
H10_18 C18_18 1_555 1_555
H11_18 C19_18 1_555 1_555
C22_18 C19_18 1_555 1_555
H18_18 C22_18 1_555 1_555
H22_18 N2_18 1_555 1_555
O6_12 C14_18 1_555 1_555
O3_18 C14_18 1_555 1_555
C3_18 C8_18 1_555 1_555
C8_18 H1_18 1_555 1_555
C10_18 C3_18 1_555 1_555
H2_18 C10_18 1_555 1_555
C14_18 C3_18 1_555 1_555

#END
