
###############################################################################
#
# This file contains modified crystal structure data generated from the
# MOF subset of the Cambridge Structural Database (CSD) v543 
# hosted by the Cambridge Crystallographic Data Centre (CCDC).
#
# This work is licensed under the Creative Commons
# Attribution-NonCommercial-ShareAlike 4.0 International License.
# To view a copy of this license, visit
# http://creativecommons.org/licenses/by-nc-sa/4.0/
# or send a letter to
# Creative Commons, PO Box 1866, Mountain View, CA 94042, USA.
#
# CIF created using the CSD Python API on 29 September 2022
# The structure has been converted into the P1 space group
# The structure has a 3D framework
# The original CSD entry GARTIF is in the triclinic crystal system
# The framework has been calculated to contain at least 10.0% void space
# The void calculation uses a probe of radius 1.32A, grid spacing 0.4
# H atom positions have been added when not included in the experimental data
#
###############################################################################

data_GARTIF
_chemical_formula_moiety         '(C26 H22 N4 O14)n'
_symmetry_cell_setting           triclinic
_symmetry_space_group_name_H-M   'P 1'
_symmetry_Int_Tables_number      1
_space_group_name_Hall           'P 1'
loop_
_symmetry_equiv_pos_site_id
_symmetry_equiv_pos_as_xyz
1 x,y,z
_cell_length_a                   9.0912(6)
_cell_length_b                   9.6445(9)
_cell_length_c                   11.5135(11)
_cell_angle_alpha                106.894(8)
_cell_angle_beta                 93.993(6)
_cell_angle_gamma                108.215(7)
_cell_volume                     903.121
loop_
_atom_site_label
_atom_site_type_symbol
_atom_site_fract_x
_atom_site_fract_y
_atom_site_fract_z
O2 O 0.1179(11) 0.4863(11) 0.7899(8)
O4 O 0.4189(11) 0.3887(11) 0.0474(9)
O6 O 0.5723(12) 0.2585(12) 0.0776(9)
O7 O 0.3041(12) 0.3851(12) 0.7881(9)
N1 N 0.0911(12) 0.0532(13) 0.1451(9)
N2 N 0.1881(13) 0.1876(13) 0.1446(10)
C4 C 0.4420(17) 0.2760(17) 0.0735(12)
C6 C 0.3138(16) 0.1558(16) 0.0966(12)
C7 C 0.0142(17) 0.1435(17) 0.3492(13)
C8 C 0.010(2) 0.334(2) 0.5340(15)
C9 C 0.1257(17) 0.3081(17) 0.5990(13)
C10 C 0.1886(16) 0.3997(16) 0.7329(12)
C12 C 0.1266(19) 0.1085(19) 0.4133(14)
C13 C 0.1839(18) 0.1919(19) 0.5388(14)
H3 H 0.164(15) 0.025(17) 0.345(5)
H5 H 0.278(15) 0.194(17) 0.606(5)
Dy3 Dy 0.27898(8) 0.52825(8) 0.99142(7)
Dy5 Dy 0.72102(8) 0.47175(8) 0.00858(7)
O1 O 0.1363(11) 0.6815(11) 0.0451(8)
O3 O 0.4550(12) 0.7208(13) 0.1728(10)
O8 O 0.1732(13) 0.4831(12) 0.1722(9)
C1 C 0.2858(15) 0.9976(16) 0.0696(12)
C2 C 0.1450(14) 0.9378(14) 0.0987(10)
C3 C 0.0539(16) 0.7660(16) 0.0724(12)
H1 H 0.359(10) 0.965(10) 0.001(11)
H8 H 0.401585 0.723641 0.245362
H9 H 0.550636 0.69459 0.186463
H10 H 0.0564617 0.444537 0.153303
H11 H 0.208975 0.405054 0.193923
O11 O 0.5811(11) 0.6113(11) 0.9526(9)
O12 O 0.0854(11) 0.2735(11) 0.9214(9)
O13 O 0.4277(12) 0.7415(12) 0.9224(9)
O5 O 0.9146(11) 0.7265(11) 0.0786(9)
H2 H 0.88(3) 0.96(2) 0.184(19)
H2_2 H 0.12(3) 0.04(2) 0.816(19)
O9 O 0.8821(11) 0.5137(11) 0.2101(8)
O14 O 0.6959(12) 0.6149(12) 0.2119(9)
O1_2 O 0.8637(11) 0.3185(11) 0.9549(8)
O3_2 O 0.5450(12) 0.2792(13) 0.8272(10)
O8_2 O 0.8268(13) 0.5169(12) 0.8278(9)
C1_2 C 0.7142(15) 0.0024(16) 0.9304(12)
C2_2 C 0.8550(14) 0.0622(14) 0.9013(10)
C3_2 C 0.9461(16) 0.2340(16) 0.9276(12)
H1_2 H 0.641(10) 0.035(10) 0.999(11)
H8_2 H 0.598415 0.276359 0.754638
H9_2 H 0.449364 0.30541 0.813537
H10_2 H 0.943538 0.555463 0.846697
H11_2 H 0.791025 0.594946 0.806077
N1_2 N 0.9089(12) 0.9468(13) 0.8549(9)
N2_2 N 0.8119(13) 0.8124(13) 0.8554(10)
C4_2 C 0.5580(17) 0.7240(17) 0.9265(12)
C6_2 C 0.6862(16) 0.8442(16) 0.9034(12)
C7_2 C 0.9858(17) 0.8565(17) 0.6508(13)
C8_2 C 0.990(2) 0.666(2) 0.4660(15)
C9_2 C 0.8743(17) 0.6919(17) 0.4010(13)
C10_2 C 0.8114(16) 0.6003(16) 0.2671(12)
C12_2 C 0.8734(19) 0.8915(19) 0.5867(14)
C13_2 C 0.8161(18) 0.8081(19) 0.4612(14)
H3_2 H 0.836(15) 0.975(17) 0.655(5)
H5_2 H 0.722(15) 0.806(17) 0.394(5)
C5 C 0.956(2) 0.254(2) 0.4076(16)
C11 C 0.9586(15) 0.0563(15) 0.2120(11)
H4 H 0.954(10) 0.391(19) 0.607(5)
H6 H 0.93(2) 0.292(8) 0.329(4)
H7 H 0.89(2) 0.106(19) 0.163(15)
C5_2 C 0.044(2) 0.746(2) 0.5924(16)
C11_2 C 0.0414(15) 0.9437(15) 0.7880(11)
H4_2 H 0.046(10) 0.609(19) 0.393(5)
H6_2 H 0.07(2) 0.708(8) 0.671(4)
H7_2 H 0.11(2) 0.894(19) 0.837(15)
loop_
_geom_bond_atom_site_label_1
_geom_bond_atom_site_label_2
_geom_bond_site_symmetry_1
_geom_bond_site_symmetry_2
O2 C10 1_555 1_555
O4 C4 1_555 1_555
O6 C4 1_555 1_555
O7 C10 1_555 1_555
N1 N2 1_555 1_555
N2 C6 1_555 1_555
C4 C6 1_555 1_555
C9 C8 1_555 1_555
C10 C9 1_555 1_555
C12 C7 1_555 1_555
C13 C9 1_555 1_555
H3 C12 1_555 1_555
H5 C13 1_555 1_555
Dy3 O2 1_555 1_555
Dy5 O4 1_555 1_555
O6 Dy5 1_555 1_555
O7 Dy3 1_555 1_555
C12 C13 1_555 1_555
O1 C3 1_555 1_555
C1 C2 1_555 1_555
C3 C2 1_555 1_555
H1 C1 1_555 1_555
O3 H8 1_555 1_555
O3 H9 1_555 1_555
O8 H10 1_555 1_555
O8 H11 1_555 1_555
O11 Dy3 1_555 1_555
O12 Dy3 1_555 1_555
O13 Dy3 1_555 1_555
Dy5 O5 1_555 1_555
O9 Dy5 1_555 1_555
O14 Dy5 1_555 1_555
O1_2 C3_2 1_555 1_555
C1_2 C2_2 1_555 1_555
C3_2 C2_2 1_555 1_555
H1_2 C1_2 1_555 1_555
O3_2 H8_2 1_555 1_555
O3_2 H9_2 1_555 1_555
O8_2 H10_2 1_555 1_555
O8_2 H11_2 1_555 1_555
O9 C10_2 1_555 1_555
O11 C4_2 1_555 1_555
O13 C4_2 1_555 1_555
O14 C10_2 1_555 1_555
N1_2 N2_2 1_555 1_555
N2_2 C6_2 1_555 1_555
C4_2 C6_2 1_555 1_555
C9_2 C8_2 1_555 1_555
C10_2 C9_2 1_555 1_555
C12_2 C7_2 1_555 1_555
C13_2 C9_2 1_555 1_555
H3_2 C12_2 1_555 1_555
H5_2 C13_2 1_555 1_555
C12_2 C13_2 1_555 1_555
H6 C5 1_555 1_555
H7 C11 1_555 1_555
H6_2 C5_2 1_555 1_555
H7_2 C11_2 1_555 1_555

#END
