
###############################################################################
#
# This file contains modified crystal structure data generated from the
# MOF subset of the Cambridge Structural Database (CSD) v543 
# hosted by the Cambridge Crystallographic Data Centre (CCDC).
#
# This work is licensed under the Creative Commons
# Attribution-NonCommercial-ShareAlike 4.0 International License.
# To view a copy of this license, visit
# http://creativecommons.org/licenses/by-nc-sa/4.0/
# or send a letter to
# Creative Commons, PO Box 1866, Mountain View, CA 94042, USA.
#
# CIF created using the CSD Python API on 29 September 2022
# The structure has been converted into the P1 space group
# The structure has a 3D framework
# The original CSD entry GARTEB is in the triclinic crystal system
# The framework has been calculated to contain at least 10.0% void space
# The void calculation uses a probe of radius 1.32A, grid spacing 0.4
# H atom positions have been added when not included in the experimental data
#
###############################################################################

data_GARTEB
_chemical_formula_moiety         '(C26 H22 N4 O16)n'
_symmetry_cell_setting           triclinic
_symmetry_space_group_name_H-M   'P 1'
_symmetry_Int_Tables_number      1
_space_group_name_Hall           'P 1'
loop_
_symmetry_equiv_pos_site_id
_symmetry_equiv_pos_as_xyz
1 x,y,z
_cell_length_a                   9.0808(5)
_cell_length_b                   9.6410(5)
_cell_length_c                   11.6416(6)
_cell_angle_alpha                108.051(5)
_cell_angle_beta                 94.170(4)
_cell_angle_gamma                108.174(5)
_cell_volume                     904.367
loop_
_atom_site_label
_atom_site_type_symbol
_atom_site_fract_x
_atom_site_fract_y
_atom_site_fract_z
O7 O 0.4628(10) 0.2287(10) 0.1724(7)
Tb3 Tb 0.27890(6) 0.02876(6) 0.99152(5)
O14 O 0.1358(8) 0.1837(9) 0.0468(6)
H8 H 0.572578 0.24352 0.159006
H9 H 0.443737 0.328236 0.187197
H10 H 0.264029 0.0383109 0.246193
H11 H 0.09431 0.0366585 0.190448
O9 O 0.5775(8) 0.1093(9) 0.9493(7)
O12 O 0.4240(9) 0.2393(9) 0.9221(7)
O1 O 0.4225(8) 0.8907(9) 0.0507(7)
O2 O 0.3012(9) 0.8809(9) 0.7871(7)
O4 O 0.5760(9) 0.7607(9) 0.0779(7)
O5 O 0.1168(8) 0.9839(8) 0.7944(7)
O6 O 0.1764(9) 0.9888(9) 0.1739(7)
C2 C 0.0551(12) 0.2694(12) 0.0737(9)
N1 N 0.1919(10) 0.6952(10) 0.1463(8)
N2 N 0.0899(10) 0.5587(10) 0.1457(8)
C3 C 0.2881(12) 0.5041(12) 0.0706(9)
C4 C 0.4446(11) 0.7791(11) 0.0750(8)
C5 C 0.1845(13) 0.8943(13) 0.7339(10)
C6 C 0.3132(12) 0.6591(12) 0.0985(9)
C7 C 0.1212(13) 0.8044(13) 0.5979(10)
C8 C 0.1454(13) 0.4404(13) 0.1005(10)
C9 C 0.0151(13) 0.6481(14) 0.3475(10)
C10 C 0.1268(16) 0.6122(16) 0.4114(12)
C11 C 0.1807(15) 0.6912(16) 0.5346(12)
C12 C 0.0071(17) 0.8343(17) 0.5361(13)
H1 H 0.367(16) 0.458(16) 0.026(12)
H2 H 0.277(16) 0.653(16) 0.568(13)
H4 H 0.195(16) 0.563(16) 0.369(13)
Tb5 Tb 0.72110(6) 0.97124(6) 0.00848(5)
O11 O 0.0886(9) 0.7744(9) 0.9242(7)
O3 O 0.9114(9) 0.2256(9) 0.0758(7)
C1 C 0.9564(15) 0.5635(15) 0.2102(11)
C13 C 0.9560(17) 0.7591(17) 0.4106(13)
H3 H 0.884(17) 0.475(17) 0.191(13)
H5 H 0.923(10) 0.895(13) 0.564(5)
H6 H 0.875(16) 0.763(16) 0.347(13)
H7 H 0.913(15) 0.643(12) 0.179(12)
C1_2 C 0.0436(15) 0.4365(15) 0.7898(11)
C13_2 C 0.0440(17) 0.2409(17) 0.5894(13)
H3_2 H 0.116(17) 0.525(17) 0.809(13)
H5_2 H 0.077(10) 0.105(13) 0.436(5)
H6_2 H 0.125(16) 0.237(16) 0.653(13)
H7_2 H 0.087(15) 0.357(12) 0.821(12)
O10 O 0.6988(9) 0.1191(9) 0.2129(7)
O13 O 0.8832(8) 0.0161(8) 0.2056(7)
O6_2 O 0.8236(9) 0.0112(9) 0.8261(7)
C2_2 C 0.9449(12) 0.7306(12) 0.9263(9)
N1_2 N 0.8081(10) 0.3048(10) 0.8537(8)
N2_2 N 0.9101(10) 0.4413(10) 0.8543(8)
C3_2 C 0.7119(12) 0.4959(12) 0.9294(9)
C4_2 C 0.5554(11) 0.2209(11) 0.9250(8)
C5_2 C 0.8155(13) 0.1057(13) 0.2661(10)
C6_2 C 0.6868(12) 0.3409(12) 0.9015(9)
C7_2 C 0.8788(13) 0.1956(13) 0.4021(10)
C8_2 C 0.8546(13) 0.5596(13) 0.8995(10)
C9_2 C 0.9849(13) 0.3519(14) 0.6525(10)
C10_2 C 0.8732(16) 0.3878(16) 0.5886(12)
C11_2 C 0.8193(15) 0.3088(16) 0.4654(12)
C12_2 C 0.9929(17) 0.1657(17) 0.4639(13)
O8 O 0.8642(8) 0.8163(9) 0.9532(6)
H1_2 H 0.633(16) 0.542(16) 0.974(12)
H2_2 H 0.723(16) 0.347(16) 0.432(13)
H4_2 H 0.805(16) 0.437(16) 0.631(13)
O7_2 O 0.5372(10) 0.7713(10) 0.8276(7)
H8_2 H 0.427422 0.75648 0.840994
H9_2 H 0.556263 0.671764 0.812803
H10_2 H 0.735971 0.961689 0.753807
H11_2 H 0.90569 0.963342 0.809552
loop_
_geom_bond_atom_site_label_1
_geom_bond_atom_site_label_2
_geom_bond_site_symmetry_1
_geom_bond_site_symmetry_2
O7 H8 1_555 1_555
O7 H9 1_555 1_555
O9 Tb3 1_555 1_555
O12 Tb3 1_555 1_555
O1 C4 1_555 1_555
O2 C5 1_555 1_555
O4 C4 1_555 1_555
O5 C5 1_555 1_555
C2 C8 1_555 1_555
N1 N2 1_555 1_555
N2 C8 1_555 1_555
C3 C6 1_555 1_555
C4 C6 1_555 1_555
C5 C7 1_555 1_555
C6 N1 1_555 1_555
C7 C11 1_555 1_555
C8 C3 1_555 1_555
C10 C9 1_555 1_555
C11 C10 1_555 1_555
C12 C7 1_555 1_555
O14 C2 1_555 1_555
H1 C3 1_555 1_555
H2 C11 1_555 1_555
H4 C10 1_555 1_555
Tb5 O1 1_555 1_555
O4 Tb5 1_555 1_555
H3 C1 1_555 1_555
H6 C13 1_555 1_555
H7 C1 1_555 1_555
H3_2 C1_2 1_555 1_555
H6_2 C13_2 1_555 1_555
H7_2 C1_2 1_555 1_555
O9 C4_2 1_555 1_555
O10 C5_2 1_555 1_555
O12 C4_2 1_555 1_555
O13 C5_2 1_555 1_555
C2_2 C8_2 1_555 1_555
N1_2 N2_2 1_555 1_555
N2_2 C8_2 1_555 1_555
C3_2 C6_2 1_555 1_555
C4_2 C6_2 1_555 1_555
C5_2 C7_2 1_555 1_555
C6_2 N1_2 1_555 1_555
C7_2 C11_2 1_555 1_555
C8_2 C3_2 1_555 1_555
C10_2 C9_2 1_555 1_555
C11_2 C10_2 1_555 1_555
C12_2 C7_2 1_555 1_555
O8 C2_2 1_555 1_555
H1_2 C3_2 1_555 1_555
H2_2 C11_2 1_555 1_555
H4_2 C10_2 1_555 1_555
O7_2 H8_2 1_555 1_555
O7_2 H9_2 1_555 1_555

#END
