
###############################################################################
#
# This file contains modified crystal structure data generated from the
# MOF subset of the Cambridge Structural Database (CSD) v543 
# hosted by the Cambridge Crystallographic Data Centre (CCDC).
#
# This work is licensed under the Creative Commons
# Attribution-NonCommercial-ShareAlike 4.0 International License.
# To view a copy of this license, visit
# http://creativecommons.org/licenses/by-nc-sa/4.0/
# or send a letter to
# Creative Commons, PO Box 1866, Mountain View, CA 94042, USA.
#
# CIF created using the CSD Python API on 29 September 2022
# The structure has been converted into the P1 space group
# The structure has a 3D framework
# The original CSD entry GARTAX is in the triclinic crystal system
# The framework has been calculated to contain at least 10.0% void space
# The void calculation uses a probe of radius 1.32A, grid spacing 0.4
# H atom positions have been added when not included in the experimental data
#
###############################################################################

data_GARTAX
_chemical_formula_moiety         '(C26 H22 N4 O14)n'
_symmetry_cell_setting           triclinic
_symmetry_space_group_name_H-M   'P 1'
_symmetry_Int_Tables_number      1
_space_group_name_Hall           'P 1'
loop_
_symmetry_equiv_pos_site_id
_symmetry_equiv_pos_as_xyz
1 x,y,z
_cell_length_a                   9.1283(4)
_cell_length_b                   9.6603(6)
_cell_length_c                   11.5482(8)
_cell_angle_alpha                106.829(6)
_cell_angle_beta                 93.772(5)
_cell_angle_gamma                108.027(5)
_cell_volume                     913.277
loop_
_atom_site_label
_atom_site_type_symbol
_atom_site_fract_x
_atom_site_fract_y
_atom_site_fract_z
O2 O 0.4228(12) 0.3898(10) 0.0513(9)
O3 O 0.1190(12) 0.4861(11) 0.7894(9)
O6 O 0.3040(11) 0.3830(12) 0.7854(10)
O7 O 0.5729(12) 0.2562(11) 0.0806(9)
C1 C 0.011(2) 0.335(2) 0.5344(17)
N1 N 0.0920(13) 0.0564(13) 0.1472(11)
C3 C 0.4445(16) 0.2754(15) 0.0770(13)
N2 N 0.1902(12) 0.1907(13) 0.1457(10)
C5 C 0.1220(16) 0.3040(17) 0.5984(14)
C6 C 0.3118(15) 0.1548(16) 0.0996(13)
C7 C 0.2864(15) 0.0008(15) 0.0696(13)
C10 C 0.0151(16) 0.1467(17) 0.3485(14)
C11 C 0.1895(18) 0.3996(17) 0.7308(13)
C12 C 0.182(2) 0.1942(19) 0.5354(15)
H6 H 0.262306 0.174261 0.577596
C13 C 0.128(2) 0.114(2) 0.4124(15)
H7 H 0.166552 0.035686 0.371129
Gd3 Gd 0.27849(7) 0.52876(7) 0.99084(6)
Gd5 Gd 0.72151(7) 0.47124(7) 0.00916(6)
O1 O 0.1309(11) 0.6814(11) 0.0433(10)
O5 O 0.1721(11) 0.4830(10) 0.1747(9)
O8 O 0.4585(13) 0.7263(13) 0.1735(12)
C4 C 0.0535(15) 0.7717(14) 0.0737(11)
H3 H 0.353481 0.948189 0.034559
C8 C 0.1468(15) 0.9389(15) 0.0999(11)
H8 H 0.0560683 0.443157 0.156042
H9 H 0.209481 0.406368 0.197009
H10 H 0.406359 0.729889 0.246577
H11 H 0.554077 0.700349 0.186385
O10 O 0.5772(12) 0.6102(10) 0.9487(9)
O12 O 0.0888(11) 0.2686(10) 0.9205(9)
O14 O 0.4271(12) 0.7438(11) 0.9194(9)
O4 O 0.9112(11) 0.7314(10) 0.0795(9)
H4 H 0.889187 0.954713 0.199803
H4_2 H 0.110813 0.045287 0.800197
O11 O 0.8810(12) 0.5139(11) 0.2106(9)
O13 O 0.6960(11) 0.6170(12) 0.2146(10)
O1_2 O 0.8691(11) 0.3186(11) 0.9567(10)
O5_2 O 0.8279(11) 0.5170(10) 0.8253(9)
O8_2 O 0.5415(13) 0.2737(13) 0.8265(12)
C4_2 C 0.9465(15) 0.2283(14) 0.9263(11)
H3_2 H 0.646519 0.051811 0.965441
C8_2 C 0.8532(15) 0.0611(15) 0.9001(11)
H8_2 H 0.943932 0.556843 0.843958
H9_2 H 0.790519 0.593632 0.802991
H10_2 H 0.593641 0.270111 0.753423
H11_2 H 0.445923 0.299651 0.813615
C1_2 C 0.989(2) 0.665(2) 0.4656(17)
N1_2 N 0.9080(13) 0.9436(13) 0.8528(11)
C3_2 C 0.5555(16) 0.7246(15) 0.9230(13)
N2_2 N 0.8098(12) 0.8093(13) 0.8543(10)
C5_2 C 0.8780(16) 0.6960(17) 0.4016(14)
C6_2 C 0.6882(15) 0.8452(16) 0.9004(13)
C7_2 C 0.7136(15) 0.9992(15) 0.9304(13)
C10_2 C 0.9849(16) 0.8533(17) 0.6515(14)
C11_2 C 0.8105(18) 0.6004(17) 0.2692(13)
C12_2 C 0.818(2) 0.8058(19) 0.4646(15)
H6_2 H 0.737694 0.825739 0.422404
C13_2 C 0.872(2) 0.886(2) 0.5876(15)
H7_2 H 0.833448 0.964314 0.628871
H1 H 0.967998 0.409685 0.576150
C2 C 0.960(3) 0.259(2) 0.4107(17)
H2 H 0.884955 0.284139 0.367603
C9 C 0.9589(16) 0.0611(18) 0.2121(13)
H5 H 0.897970 0.113038 0.177464
H1_2 H 0.032002 0.590315 0.423850
C2_2 C 0.040(3) 0.741(2) 0.5893(17)
H2_2 H 0.115045 0.715861 0.632397
C9_2 C 0.0411(16) 0.9389(18) 0.7879(13)
H5_2 H 0.102030 0.886962 0.822536
loop_
_geom_bond_atom_site_label_1
_geom_bond_atom_site_label_2
_geom_bond_site_symmetry_1
_geom_bond_site_symmetry_2
O2 C3 1_555 1_555
O3 C11 1_555 1_555
O6 C11 1_555 1_555
O7 C3 1_555 1_555
N1 N2 1_555 1_555
C3 C6 1_555 1_555
N2 C6 1_555 1_555
C5 C1 1_555 1_555
C6 C7 1_555 1_555
C11 C5 1_555 1_555
C12 C5 1_555 1_555
H6 C12 1_555 1_555
C13 C10 1_555 1_555
H7 C13 1_555 1_555
Gd3 O3 1_555 1_555
Gd5 O2 1_555 1_555
O6 Gd3 1_555 1_555
O7 Gd5 1_555 1_555
C12 C13 1_555 1_555
O1 C4 1_555 1_555
C4 C8 1_555 1_555
O5 H8 1_555 1_555
O5 H9 1_555 1_555
O8 H10 1_555 1_555
O8 H11 1_555 1_555
O10 Gd3 1_555 1_555
O12 Gd3 1_555 1_555
O14 Gd3 1_555 1_555
Gd5 O4 1_555 1_555
O11 Gd5 1_555 1_555
O13 Gd5 1_555 1_555
O1_2 C4_2 1_555 1_555
C4_2 C8_2 1_555 1_555
O5_2 H8_2 1_555 1_555
O5_2 H9_2 1_555 1_555
O8_2 H10_2 1_555 1_555
O8_2 H11_2 1_555 1_555
O10 C3_2 1_555 1_555
O11 C11_2 1_555 1_555
O13 C11_2 1_555 1_555
O14 C3_2 1_555 1_555
N1_2 N2_2 1_555 1_555
C3_2 C6_2 1_555 1_555
N2_2 C6_2 1_555 1_555
C5_2 C1_2 1_555 1_555
C6_2 C7_2 1_555 1_555
C11_2 C5_2 1_555 1_555
C12_2 C5_2 1_555 1_555
H6_2 C12_2 1_555 1_555
C13_2 C10_2 1_555 1_555
H7_2 C13_2 1_555 1_555
C12_2 C13_2 1_555 1_555
H2 C2 1_555 1_555
H5 C9 1_555 1_555
H2_2 C2_2 1_555 1_555
H5_2 C9_2 1_555 1_555

#END
