
###############################################################################
#
# This file contains modified crystal structure data generated from the
# MOF subset of the Cambridge Structural Database (CSD) v543 
# hosted by the Cambridge Crystallographic Data Centre (CCDC).
#
# This work is licensed under the Creative Commons
# Attribution-NonCommercial-ShareAlike 4.0 International License.
# To view a copy of this license, visit
# http://creativecommons.org/licenses/by-nc-sa/4.0/
# or send a letter to
# Creative Commons, PO Box 1866, Mountain View, CA 94042, USA.
#
# CIF created using the CSD Python API on 29 September 2022
# The structure has been converted into the P1 space group
# The structure has a 3D framework
# The original CSD entry GASSUR is in the monoclinic crystal system
# The framework has been calculated to contain at least 10.0% void space
# The void calculation uses a probe of radius 1.32A, grid spacing 0.4
#
###############################################################################

data_GASSUR
_chemical_formula_moiety         '(C88 H48 N16 O32 Zn8)n'
_symmetry_cell_setting           triclinic
_symmetry_space_group_name_H-M   'P 1'
_symmetry_Int_Tables_number      1
_space_group_name_Hall           'P 1'
loop_
_symmetry_equiv_pos_site_id
_symmetry_equiv_pos_as_xyz
1 x,y,z
_cell_length_a                   15.701(3)
_cell_length_b                   14.964(3)
_cell_length_c                   17.339(4)
_cell_angle_alpha                90
_cell_angle_beta                 115.096(3)
_cell_angle_gamma                90
_cell_volume                     3689.22
loop_
_atom_site_label
_atom_site_type_symbol
_atom_site_fract_x
_atom_site_fract_y
_atom_site_fract_z
C2 C 0.1301(5) 0.0282(5) 0.5213(5)
H2 H 0.1238 0.0867 0.5015
C3 C 0.1686(5) 0.0033(5) 0.6021(4)
H3 H 0.1920 0.0410 0.6492
Zn3 Zn 0.04440(4) 0.05071(4) 0.84516(4)
O6 O 0.1345(3) 0.0287(3) 0.3174(3)
Zn1 Zn 0.04440(4) 0.94929(4) 0.34516(4)
O1 O 0.0433(3) 0.9420(3) 0.6814(3)
O2 O 0.1345(3) 0.9713(3) 0.8174(3)
O3 O 0.4297(3) 0.6294(3) 0.8142(3)
O4 O 0.3893(3) 0.6573(3) 0.6771(3)
N1 N 0.1008(4) 0.9519(3) 0.4710(4)
N2 N 0.1679(4) 0.9127(4) 0.6039(3)
C1 C 0.1254(5) 0.8847(4) 0.5230(4)
H1 H 0.1149 0.8252 0.5064
C4 C 0.2085(5) 0.8571(4) 0.6765(4)
C5 C 0.2708(4) 0.7935(4) 0.6761(4)
H4 H 0.2824 0.7859 0.6282
C6 C 0.3160(4) 0.7411(4) 0.7466(4)
C7 C 0.3019(5) 0.7535(5) 0.8191(4)
H5 H 0.3337 0.7189 0.8675
C8 C 0.2388(5) 0.8192(5) 0.8178(4)
H6 H 0.2302 0.8294 0.8669
C9 C 0.1888(4) 0.8694(5) 0.7468(4)
C10 C 0.1164(4) 0.9330(4) 0.7493(4)
C11 C 0.3846(4) 0.6702(4) 0.7458(4)
Zn4 Zn 0.45560(4) 0.55071(4) 0.65484(4)
Zn5 Zn 0.54440(4) 0.55071(4) 0.84516(4)
O8 O 0.1107(3) 0.8427(3) 0.3229(3)
Zn2 Zn 0.95560(4) 0.05071(4) 0.65484(4)
O5 O 0.9567(3) 0.0580(3) 0.3186(3)
O7 O 0.9297(3) 0.8706(3) 0.3142(3)
O5_2 O 0.0433(3) 0.0580(3) 0.1814(3)
O7_2 O 0.0703(3) 0.8706(3) 0.1858(3)
O6_2 O 0.8655(3) 0.0287(3) 0.1826(3)
C2_2 C 0.8699(5) 0.0282(5) 0.9787(5)
H2_2 H 0.8762 0.0867 0.9985
C3_2 C 0.8314(5) 0.0033(5) 0.8979(4)
H3_2 H 0.8080 0.0410 0.8508
Zn1_2 Zn 0.95560(4) 0.94929(4) 0.15484(4)
N1_2 N 0.8992(4) 0.9519(3) 0.0290(4)
O8_2 O 0.8893(3) 0.8427(3) 0.1771(3)
O1_2 O 0.9567(3) 0.9420(3) 0.8186(3)
O2_2 O 0.8655(3) 0.9713(3) 0.6826(3)
O3_2 O 0.5703(3) 0.6294(3) 0.6858(3)
O4_2 O 0.6107(3) 0.6573(3) 0.8229(3)
N2_2 N 0.8321(4) 0.9127(4) 0.8961(3)
C1_2 C 0.8746(5) 0.8847(4) 0.9770(4)
H1_2 H 0.8851 0.8252 0.9936
C4_2 C 0.7915(5) 0.8571(4) 0.8235(4)
C5_2 C 0.7292(4) 0.7935(4) 0.8239(4)
H4_2 H 0.7176 0.7859 0.8718
C6_2 C 0.6840(4) 0.7411(4) 0.7534(4)
C7_2 C 0.6981(5) 0.7535(5) 0.6809(4)
H5_2 H 0.6663 0.7189 0.6325
C8_2 C 0.7612(5) 0.8192(5) 0.6822(4)
H6_2 H 0.7698 0.8294 0.6331
C9_2 C 0.8112(4) 0.8694(5) 0.7532(4)
C10_2 C 0.8836(4) 0.9330(4) 0.7507(4)
C11_2 C 0.6154(4) 0.6702(4) 0.7542(4)
Zn1_3 Zn 0.54440(4) 0.44929(4) 0.34516(4)
O1_3 O 0.5433(3) 0.4420(3) 0.6814(3)
O2_3 O 0.6345(3) 0.4713(3) 0.8174(3)
O3_3 O 0.9297(3) 0.1294(3) 0.8142(3)
O4_3 O 0.8893(3) 0.1573(3) 0.6771(3)
N1_3 N 0.6008(4) 0.4519(3) 0.4710(4)
N2_3 N 0.6679(4) 0.4127(4) 0.6039(3)
C1_3 C 0.6254(5) 0.3847(4) 0.5230(4)
H1_3 H 0.6149 0.3252 0.5064
C2_3 C 0.6301(5) 0.5282(5) 0.5213(5)
H2_3 H 0.6238 0.5867 0.5015
C3_3 C 0.6686(5) 0.5033(5) 0.6021(4)
H3_3 H 0.6920 0.5410 0.6492
C4_3 C 0.7085(5) 0.3571(4) 0.6765(4)
C5_3 C 0.7708(4) 0.2935(4) 0.6761(4)
H4_3 H 0.7824 0.2859 0.6282
C6_3 C 0.8160(4) 0.2411(4) 0.7466(4)
C7_3 C 0.8019(5) 0.2535(5) 0.8191(4)
H5_3 H 0.8337 0.2189 0.8675
C8_3 C 0.7388(5) 0.3192(5) 0.8178(4)
H6_3 H 0.7302 0.3294 0.8669
C9_3 C 0.6888(4) 0.3694(5) 0.7468(4)
C10_3 C 0.6164(4) 0.4330(4) 0.7493(4)
C11_3 C 0.8846(4) 0.1702(4) 0.7458(4)
O5_3 O 0.4567(3) 0.5580(3) 0.3186(3)
O6_3 O 0.6345(3) 0.5287(3) 0.3174(3)
O7_3 O 0.4297(3) 0.3706(3) 0.3142(3)
O8_3 O 0.6107(3) 0.3427(3) 0.3229(3)
Zn1_4 Zn 0.45560(4) 0.44929(4) 0.15484(4)
N1_4 N 0.3992(4) 0.4519(3) 0.0290(4)
O5_4 O 0.5433(3) 0.5580(3) 0.1814(3)
O6_4 O 0.3655(3) 0.5287(3) 0.1826(3)
O7_4 O 0.5703(3) 0.3706(3) 0.1858(3)
O8_4 O 0.3893(3) 0.3427(3) 0.1771(3)
O1_4 O 0.4567(3) 0.4420(3) 0.8186(3)
O2_4 O 0.3655(3) 0.4713(3) 0.6826(3)
O3_4 O 0.0703(3) 0.1294(3) 0.6858(3)
O4_4 O 0.1107(3) 0.1573(3) 0.8229(3)
N2_4 N 0.3321(4) 0.4127(4) 0.8961(3)
C1_4 C 0.3746(5) 0.3847(4) 0.9770(4)
H1_4 H 0.3851 0.3252 0.9936
C2_4 C 0.3699(5) 0.5282(5) 0.9787(5)
H2_4 H 0.3762 0.5867 0.9985
C3_4 C 0.3314(5) 0.5033(5) 0.8979(4)
H3_4 H 0.3080 0.5410 0.8508
C4_4 C 0.2915(5) 0.3571(4) 0.8235(4)
C5_4 C 0.2292(4) 0.2935(4) 0.8239(4)
H4_4 H 0.2176 0.2859 0.8718
C6_4 C 0.1840(4) 0.2411(4) 0.7534(4)
C7_4 C 0.1981(5) 0.2535(5) 0.6809(4)
H5_4 H 0.1663 0.2189 0.6325
C8_4 C 0.2612(5) 0.3192(5) 0.6822(4)
H6_4 H 0.2698 0.3294 0.6331
C9_4 C 0.3112(4) 0.3694(5) 0.7532(4)
C10_4 C 0.3836(4) 0.4330(4) 0.7507(4)
C11_4 C 0.1154(4) 0.1702(4) 0.7542(4)
N1_5 N 0.8992(4) 0.0481(3) 0.5290(4)
N2_5 N 0.8321(4) 0.0873(4) 0.3961(3)
C1_5 C 0.8746(5) 0.1153(4) 0.4770(4)
H1_5 H 0.8851 0.1748 0.4936
C4_5 C 0.7915(5) 0.1429(4) 0.3235(4)
C5_5 C 0.7292(4) 0.2065(4) 0.3239(4)
H4_5 H 0.7176 0.2141 0.3718
C6_5 C 0.6840(4) 0.2589(4) 0.2534(4)
C7_5 C 0.6981(5) 0.2465(5) 0.1809(4)
H5_5 H 0.6663 0.2811 0.1325
C8_5 C 0.7612(5) 0.1808(5) 0.1822(4)
H6_5 H 0.7698 0.1706 0.1331
C9_5 C 0.8112(4) 0.1306(5) 0.2532(4)
C10_5 C 0.8836(4) 0.0670(4) 0.2507(4)
C11_5 C 0.6154(4) 0.3298(4) 0.2542(4)
C2_5 C 0.8699(5) 0.9718(5) 0.4787(5)
H2_5 H 0.8762 0.9133 0.4985
C3_5 C 0.8314(5) 0.9967(5) 0.3979(4)
H3_5 H 0.8080 0.9590 0.3508
N2_6 N 0.1679(4) 0.0873(4) 0.1039(3)
C1_6 C 0.1254(5) 0.1153(4) 0.0230(4)
H1_6 H 0.1149 0.1748 0.0064
C4_6 C 0.2085(5) 0.1429(4) 0.1765(4)
C5_6 C 0.2708(4) 0.2065(4) 0.1761(4)
H4_6 H 0.2824 0.2141 0.1282
C6_6 C 0.3160(4) 0.2589(4) 0.2466(4)
C7_6 C 0.3019(5) 0.2465(5) 0.3191(4)
H5_6 H 0.3337 0.2811 0.3675
C8_6 C 0.2388(5) 0.1808(5) 0.3178(4)
H6_6 H 0.2302 0.1706 0.3669
C9_6 C 0.1888(4) 0.1306(5) 0.2468(4)
C10_6 C 0.1164(4) 0.0670(4) 0.2493(4)
C11_6 C 0.3846(4) 0.3298(4) 0.2458(4)
N1_6 N 0.1008(4) 0.0481(3) 0.9710(4)
C2_6 C 0.1301(5) 0.9718(5) 0.0213(5)
H2_6 H 0.1238 0.9133 0.0015
C3_6 C 0.1686(5) 0.9967(5) 0.1021(4)
H3_6 H 0.1920 0.9590 0.1492
N1_7 N 0.3992(4) 0.5481(3) 0.5290(4)
N2_7 N 0.3321(4) 0.5873(4) 0.3961(3)
C1_7 C 0.3746(5) 0.6153(4) 0.4770(4)
H1_7 H 0.3851 0.6748 0.4936
C2_7 C 0.3699(5) 0.4718(5) 0.4787(5)
H2_7 H 0.3762 0.4133 0.4985
C3_7 C 0.3314(5) 0.4967(5) 0.3979(4)
H3_7 H 0.3080 0.4590 0.3508
C4_7 C 0.2915(5) 0.6429(4) 0.3235(4)
C5_7 C 0.2292(4) 0.7065(4) 0.3239(4)
H4_7 H 0.2176 0.7141 0.3718
C6_7 C 0.1840(4) 0.7589(4) 0.2534(4)
C7_7 C 0.1981(5) 0.7465(5) 0.1809(4)
H5_7 H 0.1663 0.7811 0.1325
C8_7 C 0.2612(5) 0.6808(5) 0.1822(4)
H6_7 H 0.2698 0.6706 0.1331
C9_7 C 0.3112(4) 0.6306(5) 0.2532(4)
C10_7 C 0.3836(4) 0.5670(4) 0.2507(4)
C11_7 C 0.1154(4) 0.8298(4) 0.2542(4)
N2_8 N 0.6679(4) 0.5873(4) 0.1039(3)
C1_8 C 0.6254(5) 0.6153(4) 0.0230(4)
H1_8 H 0.6149 0.6748 0.0064
C2_8 C 0.6301(5) 0.4718(5) 0.0213(5)
H2_8 H 0.6238 0.4133 0.0015
C3_8 C 0.6686(5) 0.4967(5) 0.1021(4)
H3_8 H 0.6920 0.4590 0.1492
C4_8 C 0.7085(5) 0.6429(4) 0.1765(4)
C5_8 C 0.7708(4) 0.7065(4) 0.1761(4)
H4_8 H 0.7824 0.7141 0.1282
C6_8 C 0.8160(4) 0.7589(4) 0.2466(4)
C7_8 C 0.8019(5) 0.7465(5) 0.3191(4)
H5_8 H 0.8337 0.7811 0.3675
C8_8 C 0.7388(5) 0.6808(5) 0.3178(4)
H6_8 H 0.7302 0.6706 0.3669
C9_8 C 0.6888(4) 0.6306(5) 0.2468(4)
C10_8 C 0.6164(4) 0.5670(4) 0.2493(4)
C11_8 C 0.8846(4) 0.8298(4) 0.2458(4)
N1_8 N 0.6008(4) 0.5481(3) 0.9710(4)
loop_
_geom_bond_atom_site_label_1
_geom_bond_atom_site_label_2
_geom_bond_site_symmetry_1
_geom_bond_site_symmetry_2
H2 C2 1_555 1_555
H3 C3 1_555 1_555
C2 C3 1_555 1_555
Zn1 N1 1_555 1_555
O1 C10 1_555 1_555
O2 C10 1_555 1_555
O3 C11 1_555 1_555
O4 C11 1_555 1_555
N1 C1 1_555 1_555
N2 C1 1_555 1_555
C1 H1 1_555 1_555
C4 N2 1_555 1_555
C5 C4 1_555 1_555
H4 C5 1_555 1_555
C6 C5 1_555 1_555
C7 C6 1_555 1_555
H5 C7 1_555 1_555
C8 C7 1_555 1_555
H6 C8 1_555 1_555
C9 C4 1_555 1_555
C10 C9 1_555 1_555
C11 C6 1_555 1_555
Zn4 O4 1_555 1_555
Zn5 O3 1_555 1_555
O8 Zn1 1_555 1_555
C8 C9 1_555 1_555
H2_2 C2_2 1_555 1_555
H3_2 C3_2 1_555 1_555
C2_2 C3_2 1_555 1_555
Zn1_2 N1_2 1_555 1_555
O8_2 Zn1_2 1_555 1_555
O1_2 C10_2 1_555 1_555
O2_2 C10_2 1_555 1_555
O3_2 C11_2 1_555 1_555
O4_2 C11_2 1_555 1_555
N2_2 C1_2 1_555 1_555
C1_2 H1_2 1_555 1_555
C4_2 N2_2 1_555 1_555
C5_2 C4_2 1_555 1_555
H4_2 C5_2 1_555 1_555
C6_2 C5_2 1_555 1_555
C7_2 C6_2 1_555 1_555
H5_2 C7_2 1_555 1_555
C8_2 C7_2 1_555 1_555
H6_2 C8_2 1_555 1_555
C9_2 C4_2 1_555 1_555
C10_2 C9_2 1_555 1_555
C11_2 C6_2 1_555 1_555
Zn5 O4_2 1_555 1_555
Zn4 O3_2 1_555 1_555
C8_2 C9_2 1_555 1_555
Zn1_3 N1_3 1_555 1_555
O1_3 C10_3 1_555 1_555
O2_3 C10_3 1_555 1_555
O3_3 C11_3 1_555 1_555
O4_3 C11_3 1_555 1_555
N1_3 C1_3 1_555 1_555
N2_3 C1_3 1_555 1_555
C1_3 H1_3 1_555 1_555
C2_3 N1_3 1_555 1_555
H2_3 C2_3 1_555 1_555
C3_3 N2_3 1_555 1_555
H3_3 C3_3 1_555 1_555
C4_3 N2_3 1_555 1_555
C5_3 C4_3 1_555 1_555
H4_3 C5_3 1_555 1_555
C6_3 C5_3 1_555 1_555
C7_3 C6_3 1_555 1_555
H5_3 C7_3 1_555 1_555
C8_3 C7_3 1_555 1_555
H6_3 C8_3 1_555 1_555
C9_3 C4_3 1_555 1_555
C10_3 C9_3 1_555 1_555
C11_3 C6_3 1_555 1_555
Zn4 O1_3 1_555 1_555
Zn5 O2_3 1_555 1_555
Zn2 O4_3 1_555 1_555
O5_3 Zn1_3 1_555 1_555
O6_3 Zn1_3 1_555 1_555
O7_3 Zn1_3 1_555 1_555
O8_3 Zn1_3 1_555 1_555
C2_3 C3_3 1_555 1_555
C8_3 C9_3 1_555 1_555
Zn1_4 N1_4 1_555 1_555
O5_4 Zn1_4 1_555 1_555
O6_4 Zn1_4 1_555 1_555
O7_4 Zn1_4 1_555 1_555
O8_4 Zn1_4 1_555 1_555
O1_4 C10_4 1_555 1_555
O2_4 C10_4 1_555 1_555
O3_4 C11_4 1_555 1_555
O4_4 C11_4 1_555 1_555
N2_4 C1_4 1_555 1_555
C1_4 H1_4 1_555 1_555
H2_4 C2_4 1_555 1_555
C3_4 N2_4 1_555 1_555
H3_4 C3_4 1_555 1_555
C4_4 N2_4 1_555 1_555
C5_4 C4_4 1_555 1_555
H4_4 C5_4 1_555 1_555
C6_4 C5_4 1_555 1_555
C7_4 C6_4 1_555 1_555
H5_4 C7_4 1_555 1_555
C8_4 C7_4 1_555 1_555
H6_4 C8_4 1_555 1_555
C9_4 C4_4 1_555 1_555
C10_4 C9_4 1_555 1_555
C11_4 C6_4 1_555 1_555
Zn5 O1_4 1_555 1_555
Zn4 O2_4 1_555 1_555
Zn3 O4_4 1_555 1_555
C2_4 C3_4 1_555 1_555
C8_4 C9_4 1_555 1_555
Zn2 N1_5 1_555 1_555
O5 C10_5 1_555 1_555
O6_2 C10_5 1_555 1_555
O7_4 C11_5 1_555 1_555
O8_3 C11_5 1_555 1_555
N1_5 C1_5 1_555 1_555
N2_5 C1_5 1_555 1_555
C1_5 H1_5 1_555 1_555
C4_5 N2_5 1_555 1_555
C5_5 C4_5 1_555 1_555
H4_5 C5_5 1_555 1_555
C6_5 C5_5 1_555 1_555
C7_5 C6_5 1_555 1_555
H5_5 C7_5 1_555 1_555
C8_5 C7_5 1_555 1_555
H6_5 C8_5 1_555 1_555
C9_5 C4_5 1_555 1_555
C10_5 C9_5 1_555 1_555
C11_5 C6_5 1_555 1_555
C8_5 C9_5 1_555 1_555
H2_5 C2_5 1_555 1_555
H3_5 C3_5 1_555 1_555
C2_5 C3_5 1_555 1_555
O5_2 C10_6 1_555 1_555
O6 C10_6 1_555 1_555
O7_3 C11_6 1_555 1_555
O8_4 C11_6 1_555 1_555
N2_6 C1_6 1_555 1_555
C1_6 H1_6 1_555 1_555
C4_6 N2_6 1_555 1_555
C5_6 C4_6 1_555 1_555
H4_6 C5_6 1_555 1_555
C6_6 C5_6 1_555 1_555
C7_6 C6_6 1_555 1_555
H5_6 C7_6 1_555 1_555
C8_6 C7_6 1_555 1_555
H6_6 C8_6 1_555 1_555
C9_6 C4_6 1_555 1_555
C10_6 C9_6 1_555 1_555
C11_6 C6_6 1_555 1_555
C8_6 C9_6 1_555 1_555
Zn3 N1_6 1_555 1_555
H2_6 C2_6 1_555 1_555
H3_6 C3_6 1_555 1_555
C2_6 C3_6 1_555 1_555
Zn4 N1_7 1_555 1_555
O5_3 C10_7 1_555 1_555
O6_4 C10_7 1_555 1_555
O7_2 C11_7 1_555 1_555
O8 C11_7 1_555 1_555
N1_7 C1_7 1_555 1_555
N2_7 C1_7 1_555 1_555
C1_7 H1_7 1_555 1_555
C2_7 N1_7 1_555 1_555
H2_7 C2_7 1_555 1_555
C3_7 N2_7 1_555 1_555
H3_7 C3_7 1_555 1_555
C4_7 N2_7 1_555 1_555
C5_7 C4_7 1_555 1_555
H4_7 C5_7 1_555 1_555
C6_7 C5_7 1_555 1_555
C7_7 C6_7 1_555 1_555
H5_7 C7_7 1_555 1_555
C8_7 C7_7 1_555 1_555
H6_7 C8_7 1_555 1_555
C9_7 C4_7 1_555 1_555
C10_7 C9_7 1_555 1_555
C11_7 C6_7 1_555 1_555
C2_7 C3_7 1_555 1_555
C8_7 C9_7 1_555 1_555
O5_4 C10_8 1_555 1_555
O6_3 C10_8 1_555 1_555
O7 C11_8 1_555 1_555
O8_2 C11_8 1_555 1_555
N2_8 C1_8 1_555 1_555
C1_8 H1_8 1_555 1_555
H2_8 C2_8 1_555 1_555
C3_8 N2_8 1_555 1_555
H3_8 C3_8 1_555 1_555
C4_8 N2_8 1_555 1_555
C5_8 C4_8 1_555 1_555
H4_8 C5_8 1_555 1_555
C6_8 C5_8 1_555 1_555
C7_8 C6_8 1_555 1_555
H5_8 C7_8 1_555 1_555
C8_8 C7_8 1_555 1_555
H6_8 C8_8 1_555 1_555
C9_8 C4_8 1_555 1_555
C10_8 C9_8 1_555 1_555
C11_8 C6_8 1_555 1_555
C2_8 C3_8 1_555 1_555
C8_8 C9_8 1_555 1_555
Zn5 N1_8 1_555 1_555

#END
