
###############################################################################
#
# This file contains modified crystal structure data generated from the
# MOF subset of the Cambridge Structural Database (CSD) v543 
# hosted by the Cambridge Crystallographic Data Centre (CCDC).
#
# This work is licensed under the Creative Commons
# Attribution-NonCommercial-ShareAlike 4.0 International License.
# To view a copy of this license, visit
# http://creativecommons.org/licenses/by-nc-sa/4.0/
# or send a letter to
# Creative Commons, PO Box 1866, Mountain View, CA 94042, USA.
#
# CIF created using the CSD Python API on 29 September 2022
# The structure has been converted into the P1 space group
# The structure has a 3D framework
# The original CSD entry GATBUZ is in the monoclinic crystal system
# The framework has been calculated to contain at least 10.0% void space
# The void calculation uses a probe of radius 1.32A, grid spacing 0.4
# The framework is charged, counterions have been retained in the structure
#
###############################################################################

data_GATBUZ
_chemical_formula_moiety         '(C160 H160 N8 O61 Zn14 3-)n'
_symmetry_cell_setting           triclinic
_symmetry_space_group_name_H-M   'P 1'
_symmetry_Int_Tables_number      1
_space_group_name_Hall           'P 1'
loop_
_symmetry_equiv_pos_site_id
_symmetry_equiv_pos_as_xyz
1 x,y,z
_cell_length_a                   33.6075(14)
_cell_length_b                   9.8727(4)
_cell_length_c                   18.1642(8)
_cell_angle_alpha                90
_cell_angle_beta                 92.226(1)
_cell_angle_gamma                90
_cell_volume                     6022.27
loop_
_atom_site_label
_atom_site_type_symbol
_atom_site_fract_x
_atom_site_fract_y
_atom_site_fract_z
C32 C 0.02074(12) 0.0720(4) 0.9490(2)
H16 H 0.0346 0.1220 0.9135
O20 O 0.09964(8) 0.8535(3) 0.02000(15)
C31 C 0.01904(11) 0.8985(4) 0.0396(2)
H15 H 0.0319 0.8278 0.0669
Zn9 Zn 0.153073(10) 0.80270(4) 0.996564(18)
O22 O 0.10041(9) 0.9940(4) 0.9258(2)
C29 C 0.08347(10) 0.9394(4) 0.9762(2)
C30 C 0.04027(10) 0.9717(4) 0.9885(2)
Zn1 Zn 0.7500 0.2500 0.0000
Zn2 Zn 0.846927(10) 0.19730(4) 0.003436(18)
O1 O 0.78526(7) 0.3748(2) 0.06477(12)
O2 O 0.84512(7) 0.2929(3) 0.09847(13)
O3 O 0.77241(7) 0.6825(2) 0.40509(12)
O4 O 0.83904(7) 0.6777(3) 0.41874(13)
O5 O 0.79769(6) 0.0846(2) 0.00909(12)
O8 O 0.89959(9) 0.0060(4) 0.0742(2)
C1 C 0.81396(9) 0.3607(3) 0.10988(17)
C2 C 0.81209(9) 0.4320(3) 0.18242(17)
C3 C 0.84422(11) 0.4308(4) 0.23267(19)
H1 H 0.8674 0.3801 0.2222
C4 C 0.77757(11) 0.5018(5) 0.1996(2)
H2 H 0.7552 0.5018 0.1659
C5 C 0.80624(9) 0.6503(3) 0.38563(16)
C6 C 0.80853(10) 0.5734(3) 0.31523(17)
C7 C 0.77590(11) 0.5711(4) 0.2655(2)
H3 H 0.7522 0.6176 0.2771
C8 C 0.84290(11) 0.5030(4) 0.29818(19)
H4 H 0.8654 0.5044 0.3314
C13 C 0.91653(10) 0.0606(4) 0.0238(2)
C14 C 0.95973(10) 0.0283(4) 0.0115(2)
Zn3 Zn 0.7500 0.7500 0.5000
Zn7 Zn 0.846927(10) 0.80270(4) 0.503436(18)
O13 O 0.72759(7) 0.1825(2) 0.09491(12)
O16 O 0.66096(7) 0.1777(3) 0.08126(13)
O21 O 0.59964(8) 0.3535(3) 0.02000(15)
Zn1_2 Zn 0.7500 0.2500 1.0000
O7 O 0.90036(8) 0.1465(3) 0.98000(15)
C15 C 0.98096(11) 0.1015(4) 0.9604(2)
H7 H 0.9681 0.1722 0.9331
Zn6 Zn 0.653073(10) 0.30270(4) 0.996564(18)
O9 O 0.71474(7) 0.1252(2) 0.93523(12)
O10 O 0.65488(7) 0.2071(3) 0.90153(13)
O12 O 0.77241(7) 0.3175(2) 0.90509(12)
O15 O 0.83904(7) 0.3223(3) 0.91874(13)
O18 O 0.70231(6) 0.4154(2) 0.99091(12)
C17 C 0.68604(9) 0.1393(3) 0.89012(17)
C18 C 0.68791(9) 0.0680(3) 0.81758(17)
C19 C 0.65578(11) 0.0692(4) 0.76733(19)
H9 H 0.6326 0.1199 0.7778
C12 C 0.75213(11) 0.8596(4) 0.04816(19)
H6 H 0.7537 0.9342 0.0812
C16 C 0.97926(12) 0.9280(4) 0.0510(2)
H8 H 0.9654 0.8780 0.0865
O19 O 0.68197(9) 0.5200(3) 0.09053(16)
C25 C 0.70241(10) 0.5158(3) 0.03530(19)
C26 C 0.72769(10) 0.6359(4) 0.01720(19)
C27 C 0.72983(13) 0.7471(4) 0.0652(2)
H13 H 0.7159 0.7450 0.1097
O6 O 0.81803(9) 0.9800(3) 0.90947(16)
C9 C 0.79759(10) 0.9842(3) 0.96470(19)
C10 C 0.77231(10) 0.8641(4) 0.98280(19)
C11 C 0.77017(13) 0.7529(4) 0.9348(2)
H5 H 0.7841 0.7550 0.8903
Zn10 Zn 0.653073(10) 0.69730(4) 0.496564(18)
O11 O 0.72759(7) 0.8175(2) 0.59491(12)
O14 O 0.66096(7) 0.8223(3) 0.58126(13)
C20 C 0.72243(11) 0.9982(5) 0.8004(2)
H10 H 0.7448 0.9982 0.8341
C21 C 0.69376(9) 0.8497(3) 0.61437(16)
C22 C 0.69147(10) 0.9266(3) 0.68477(17)
C23 C 0.72410(11) 0.9289(4) 0.7345(2)
H11 H 0.7478 0.8824 0.7229
C24 C 0.65710(11) 0.9970(4) 0.70182(19)
H12 H 0.6346 0.9956 0.6686
C28 C 0.74787(11) 0.6404(4) 0.95184(19)
H14 H 0.7463 0.5658 0.9188
O3_2 O 0.27241(7) 0.1825(2) 0.40509(12)
O4_2 O 0.33904(7) 0.1777(3) 0.41874(13)
C4_2 C 0.27757(11) 0.0018(5) 0.1996(2)
H2_2 H 0.2552 0.0018 0.1659
C5_2 C 0.30624(9) 0.1503(3) 0.38563(16)
C6_2 C 0.30853(10) 0.0734(3) 0.31523(17)
C7_2 C 0.27590(11) 0.0711(4) 0.2655(2)
H3_2 H 0.2522 0.1176 0.2771
C8_2 C 0.34290(11) 0.0030(4) 0.29818(19)
H4_2 H 0.3654 0.0044 0.3314
Zn3_2 Zn 0.2500 0.2500 0.5000
Zn7_2 Zn 0.346927(10) 0.30270(4) 0.503436(18)
Zn1_3 Zn 0.2500 0.7500 0.0000
Zn2_2 Zn 0.346927(10) 0.69730(4) 0.003436(18)
O1_2 O 0.28526(7) 0.8748(2) 0.06477(12)
O2_2 O 0.34512(7) 0.7929(3) 0.09847(13)
O5_2 O 0.29769(6) 0.5846(2) 0.00909(12)
O8_2 O 0.39959(9) 0.5060(4) 0.0742(2)
C1_2 C 0.31396(9) 0.8607(3) 0.10988(17)
C2_2 C 0.31209(9) 0.9320(3) 0.18242(17)
C3_2 C 0.34422(11) 0.9308(4) 0.23267(19)
H1_2 H 0.3674 0.8801 0.2222
C12_2 C 0.25213(11) 0.3596(4) 0.04816(19)
H6_2 H 0.2537 0.4342 0.0812
C13_2 C 0.41653(10) 0.5606(4) 0.0238(2)
C14_2 C 0.45973(10) 0.5283(4) 0.0115(2)
C16_2 C 0.47926(12) 0.4280(4) 0.0510(2)
H8_2 H 0.4654 0.3780 0.0865
O13_2 O 0.22759(7) 0.6825(2) 0.09491(12)
O16_2 O 0.16096(7) 0.6777(3) 0.08126(13)
O19_2 O 0.18197(9) 0.0200(3) 0.09053(16)
C25_2 C 0.20241(10) 0.0158(3) 0.03530(19)
C26_2 C 0.22769(10) 0.1359(4) 0.01720(19)
C27_2 C 0.22983(13) 0.2471(4) 0.0652(2)
H13_2 H 0.2159 0.2450 0.1097
C31_2 C 0.51904(11) 0.3985(4) 0.0396(2)
H15_2 H 0.5319 0.3278 0.0669
Zn1_4 Zn 0.2500 0.7500 1.0000
O6_2 O 0.31803(9) 0.4800(3) 0.90947(16)
O7_2 O 0.40036(8) 0.6465(3) 0.98000(15)
C9_2 C 0.29759(10) 0.4842(3) 0.96470(19)
C10_2 C 0.27231(10) 0.3641(4) 0.98280(19)
C11_2 C 0.27017(13) 0.2529(4) 0.9348(2)
H5_2 H 0.2841 0.2550 0.8903
C15_2 C 0.48096(11) 0.6015(4) 0.9604(2)
H7_2 H 0.4681 0.6722 0.9331
Zn10_2 Zn 0.153073(10) 0.19730(4) 0.496564(18)
O9_2 O 0.21474(7) 0.6252(2) 0.93523(12)
O10_2 O 0.15488(7) 0.7071(3) 0.90153(13)
O11_2 O 0.22759(7) 0.3175(2) 0.59491(12)
O12_2 O 0.27241(7) 0.8175(2) 0.90509(12)
O14_2 O 0.16096(7) 0.3223(3) 0.58126(13)
O15_2 O 0.33904(7) 0.8223(3) 0.91874(13)
O18_2 O 0.20231(6) 0.9154(2) 0.99091(12)
O22_2 O 0.60041(9) 0.4940(4) 0.9258(2)
C17_2 C 0.18604(9) 0.6393(3) 0.89012(17)
C18_2 C 0.18791(9) 0.5680(3) 0.81758(17)
C19_2 C 0.15578(11) 0.5692(4) 0.76733(19)
H9_2 H 0.1326 0.6199 0.7778
C20_2 C 0.22243(11) 0.4982(5) 0.8004(2)
H10_2 H 0.2448 0.4982 0.8341
C21_2 C 0.19376(9) 0.3497(3) 0.61437(16)
C22_2 C 0.19147(10) 0.4266(3) 0.68477(17)
C23_2 C 0.22410(11) 0.4289(4) 0.7345(2)
H11_2 H 0.2478 0.3824 0.7229
C24_2 C 0.15710(11) 0.4970(4) 0.70182(19)
H12_2 H 0.1346 0.4956 0.6686
C28_2 C 0.24787(11) 0.1404(4) 0.95184(19)
H14_2 H 0.2463 0.0658 0.9188
C29_2 C 0.58347(10) 0.4394(4) 0.9762(2)
C30_2 C 0.54027(10) 0.4717(4) 0.9885(2)
C32_2 C 0.52074(12) 0.5720(4) 0.9490(2)
H16_2 H 0.5346 0.6220 0.9135
O1_3 O 0.21474(7) 0.3748(2) 0.43523(12)
O2_3 O 0.15488(7) 0.2929(3) 0.40153(13)
O5_3 O 0.20231(6) 0.0846(2) 0.49091(12)
O7_3 O 0.09964(8) 0.1465(3) 0.52000(15)
O8_3 O 0.10041(9) 0.0060(4) 0.4258(2)
C1_3 C 0.18604(9) 0.3607(3) 0.39012(17)
C2_3 C 0.18791(9) 0.4320(3) 0.31758(17)
C3_3 C 0.15578(11) 0.4308(4) 0.26733(19)
H1_3 H 0.1326 0.3801 0.2778
C4_3 C 0.22243(11) 0.5018(5) 0.3004(2)
H2_3 H 0.2448 0.5018 0.3341
C5_3 C 0.19376(9) 0.6503(3) 0.11437(16)
C6_3 C 0.19147(10) 0.5734(3) 0.18477(17)
C7_3 C 0.22410(11) 0.5711(4) 0.2345(2)
H3_3 H 0.2478 0.6176 0.2229
C8_3 C 0.15710(11) 0.5030(4) 0.20182(19)
H4_3 H 0.1346 0.5044 0.1686
C13_3 C 0.08347(10) 0.0606(4) 0.4762(2)
C14_3 C 0.04027(10) 0.0283(4) 0.4885(2)
C15_3 C 0.01904(11) 0.1015(4) 0.5396(2)
H7_3 H 0.0319 0.1722 0.5669
O9_3 O 0.28526(7) 0.1252(2) 0.56477(12)
O10_3 O 0.34512(7) 0.2071(3) 0.59847(13)
O18_3 O 0.29769(6) 0.4154(2) 0.50909(12)
O21_2 O 0.40036(8) 0.3535(3) 0.48000(15)
C17_3 C 0.31396(9) 0.1393(3) 0.60988(17)
C18_3 C 0.31209(9) 0.0680(3) 0.68242(17)
C19_3 C 0.34422(11) 0.0692(4) 0.73267(19)
H9_3 H 0.3674 0.1199 0.7222
O6_3 O 0.18197(9) 0.9800(3) 0.59053(16)
C9_3 C 0.20241(10) 0.9842(3) 0.53530(19)
C10_3 C 0.22769(10) 0.8641(4) 0.51720(19)
C11_3 C 0.22983(13) 0.7529(4) 0.5652(2)
H5_3 H 0.2159 0.7550 0.6097
C12_3 C 0.24787(11) 0.8596(4) 0.45184(19)
H6_3 H 0.2463 0.9342 0.4188
C16_3 C 0.02074(12) 0.9280(4) 0.4490(2)
H8_3 H 0.0346 0.8780 0.4135
O19_3 O 0.31803(9) 0.5200(3) 0.40947(16)
C20_3 C 0.27757(11) 0.9982(5) 0.6996(2)
H10_3 H 0.2552 0.9982 0.6659
C21_3 C 0.30624(9) 0.8497(3) 0.88563(16)
C22_3 C 0.30853(10) 0.9266(3) 0.81523(17)
C23_3 C 0.27590(11) 0.9289(4) 0.7655(2)
H11_3 H 0.2522 0.8824 0.7771
C24_3 C 0.34290(11) 0.9970(4) 0.79818(19)
H12_3 H 0.3654 0.9956 0.8314
C25_3 C 0.29759(10) 0.5158(3) 0.46470(19)
C26_3 C 0.27231(10) 0.6359(4) 0.48280(19)
C27_3 C 0.27017(13) 0.7471(4) 0.4348(2)
H13_3 H 0.2841 0.7450 0.3903
C28_3 C 0.25213(11) 0.6404(4) 0.54816(19)
H14_3 H 0.2537 0.5658 0.5812
C32_3 C 0.97926(12) 0.0720(4) 0.5510(2)
H16_3 H 0.9654 0.1220 0.5865
O20_2 O 0.90036(8) 0.8535(3) 0.48000(15)
O22_3 O 0.89959(9) 0.9940(4) 0.5742(2)
C29_3 C 0.91653(10) 0.9394(4) 0.5238(2)
C30_3 C 0.95973(10) 0.9717(4) 0.5115(2)
C31_3 C 0.98096(11) 0.8985(4) 0.4604(2)
H15_3 H 0.9681 0.8278 0.4331
C4_4 C 0.72243(11) 0.0018(5) 0.3004(2)
H2_4 H 0.7448 0.0018 0.3341
C5_4 C 0.69376(9) 0.1503(3) 0.11437(16)
C6_4 C 0.69147(10) 0.0734(3) 0.18477(17)
C7_4 C 0.72410(11) 0.0711(4) 0.2345(2)
H3_4 H 0.7478 0.1176 0.2229
C8_4 C 0.65710(11) 0.0030(4) 0.20182(19)
H4_4 H 0.6346 0.0044 0.1686
O1_4 O 0.71474(7) 0.8748(2) 0.43523(12)
O2_4 O 0.65488(7) 0.7929(3) 0.40153(13)
O5_4 O 0.70231(6) 0.5846(2) 0.49091(12)
O6_4 O 0.68197(9) 0.4800(3) 0.59053(16)
O7_4 O 0.59964(8) 0.6465(3) 0.52000(15)
O8_4 O 0.60041(9) 0.5060(4) 0.4258(2)
C1_4 C 0.68604(9) 0.8607(3) 0.39012(17)
C2_4 C 0.68791(9) 0.9320(3) 0.31758(17)
C3_4 C 0.65578(11) 0.9308(4) 0.26733(19)
H1_4 H 0.6326 0.8801 0.2778
C9_4 C 0.70241(10) 0.4842(3) 0.53530(19)
C10_4 C 0.72769(10) 0.3641(4) 0.51720(19)
C11_4 C 0.72983(13) 0.2529(4) 0.5652(2)
H5_4 H 0.7159 0.2550 0.6097
C12_4 C 0.74787(11) 0.3596(4) 0.45184(19)
H6_4 H 0.7463 0.4342 0.4188
C13_4 C 0.58347(10) 0.5606(4) 0.4762(2)
C14_4 C 0.54027(10) 0.5283(4) 0.4885(2)
C15_4 C 0.51904(11) 0.6015(4) 0.5396(2)
H7_4 H 0.5319 0.6722 0.5669
C16_4 C 0.52074(12) 0.4280(4) 0.4490(2)
H8_4 H 0.5346 0.3780 0.4135
O9_4 O 0.78526(7) 0.6252(2) 0.56477(12)
O10_4 O 0.84512(7) 0.7071(3) 0.59847(13)
O18_4 O 0.79769(6) 0.9154(2) 0.50909(12)
O19_4 O 0.81803(9) 0.0200(3) 0.40947(16)
O22_4 O 0.39959(9) 0.4940(4) 0.5742(2)
C17_4 C 0.81396(9) 0.6393(3) 0.60988(17)
C18_4 C 0.81209(9) 0.5680(3) 0.68242(17)
C19_4 C 0.84422(11) 0.5692(4) 0.73267(19)
H9_4 H 0.8674 0.6199 0.7222
C20_4 C 0.77757(11) 0.4982(5) 0.6996(2)
H10_4 H 0.7552 0.4982 0.6659
C21_4 C 0.80624(9) 0.3497(3) 0.88563(16)
C22_4 C 0.80853(10) 0.4266(3) 0.81523(17)
C23_4 C 0.77590(11) 0.4289(4) 0.7655(2)
H11_4 H 0.7522 0.3824 0.7771
C24_4 C 0.84290(11) 0.4970(4) 0.79818(19)
H12_4 H 0.8654 0.4956 0.8314
C25_4 C 0.79759(10) 0.0158(3) 0.46470(19)
C26_4 C 0.77231(10) 0.1359(4) 0.48280(19)
C27_4 C 0.77017(13) 0.2471(4) 0.4348(2)
H13_4 H 0.7841 0.2450 0.3903
C28_4 C 0.75213(11) 0.1404(4) 0.54816(19)
H14_4 H 0.7537 0.0658 0.5812
C29_4 C 0.41653(10) 0.4394(4) 0.5238(2)
C30_4 C 0.45973(10) 0.4717(4) 0.5115(2)
C31_4 C 0.48096(11) 0.3985(4) 0.4604(2)
H15_4 H 0.4681 0.3278 0.4331
C32_4 C 0.47926(12) 0.5720(4) 0.5510(2)
H16_4 H 0.4654 0.6220 0.5865
N1 N 0.87669(13) 0.0304(5) 0.8069(2)
H17 H 0.8579 0.0597 0.8387
C33 C 0.90330(18) 0.1444(7) 0.7917(3)
H19 H 0.9105 0.1920 0.8383
H20 H 0.8893 0.2095 0.7582
C34 C 0.9406(2) 0.0948(9) 0.7567(4)
H21 H 0.9578 0.1721 0.7466
H22 H 0.9334 0.0481 0.7105
H23 H 0.9547 0.0320 0.7903
C36 C 0.8264(2) 0.0591(10) 0.7071(4)
H26 H 0.8137 0.0134 0.6644
H27 H 0.8393 0.1424 0.6910
H28 H 0.8061 0.0815 0.7425
H18 H 0.8914 0.9637 0.8306
C35 C 0.8559(2) 0.9702(7) 0.7418(3)
H24 H 0.8759 0.9462 0.7053
H25 H 0.8427 0.8855 0.7568
N1_2 N 0.37669(13) 0.5304(5) 0.8069(2)
H17_2 H 0.3579 0.5597 0.8387
H18_2 H 0.3914 0.4637 0.8306
C33_2 C 0.40330(18) 0.6444(7) 0.7917(3)
H19_2 H 0.4105 0.6920 0.8383
H20_2 H 0.3893 0.7095 0.7582
C34_2 C 0.4406(2) 0.5948(9) 0.7567(4)
H21_2 H 0.4578 0.6721 0.7466
H22_2 H 0.4334 0.5481 0.7105
H23_2 H 0.4547 0.5320 0.7903
C35_2 C 0.3559(2) 0.4702(7) 0.7418(3)
H24_2 H 0.3759 0.4462 0.7053
H25_2 H 0.3427 0.3855 0.7568
C36_2 C 0.3264(2) 0.5591(10) 0.7071(4)
H26_2 H 0.3137 0.5134 0.6644
H27_2 H 0.3393 0.6424 0.6910
H28_2 H 0.3061 0.5815 0.7425
N1_3 N 0.12331(13) 0.0304(5) 0.6931(2)
H17_3 H 0.1421 0.0597 0.6613
C33_3 C 0.09670(18) 0.1444(7) 0.7083(3)
H19_3 H 0.0895 0.1920 0.6617
H20_3 H 0.1107 0.2095 0.7418
C34_3 C 0.0594(2) 0.0948(9) 0.7433(4)
H21_3 H 0.0422 0.1721 0.7534
H22_3 H 0.0666 0.0481 0.7895
H23_3 H 0.0453 0.0320 0.7097
C36_3 C 0.1736(2) 0.0591(10) 0.7929(4)
H26_3 H 0.1863 0.0134 0.8356
H27_3 H 0.1607 0.1424 0.8090
H28_3 H 0.1939 0.0815 0.7575
H18_3 H 0.1086 0.9637 0.6694
C35_3 C 0.1441(2) 0.9702(7) 0.7582(3)
H24_3 H 0.1241 0.9462 0.7947
H25_3 H 0.1573 0.8855 0.7432
N1_4 N 0.62331(13) 0.5304(5) 0.6931(2)
H17_4 H 0.6421 0.5597 0.6613
H18_4 H 0.6086 0.4637 0.6694
C33_4 C 0.59670(18) 0.6444(7) 0.7083(3)
H19_4 H 0.5895 0.6920 0.6617
H20_4 H 0.6107 0.7095 0.7418
C34_4 C 0.5594(2) 0.5948(9) 0.7433(4)
H21_4 H 0.5422 0.6721 0.7534
H22_4 H 0.5666 0.5481 0.7895
H23_4 H 0.5453 0.5320 0.7097
C35_4 C 0.6441(2) 0.4702(7) 0.7582(3)
H24_4 H 0.6241 0.4462 0.7947
H25_4 H 0.6573 0.3855 0.7432
C36_4 C 0.6736(2) 0.5591(10) 0.7929(4)
H26_4 H 0.6863 0.5134 0.8356
H27_4 H 0.6607 0.6424 0.8090
H28_4 H 0.6939 0.5815 0.7575
H18_5 H 0.1086 0.0363 0.1694
C35_5 C 0.1441(2) 0.0298(7) 0.2582(3)
H24_5 H 0.1241 0.0538 0.2947
H25_5 H 0.1573 0.1145 0.2432
N1_5 N 0.12331(13) 0.9696(5) 0.1931(2)
H17_5 H 0.1421 0.9403 0.1613
C33_5 C 0.09670(18) 0.8556(7) 0.2083(3)
H19_5 H 0.0895 0.8080 0.1617
H20_5 H 0.1107 0.7905 0.2418
C34_5 C 0.0594(2) 0.9052(9) 0.2433(4)
H21_5 H 0.0422 0.8279 0.2534
H22_5 H 0.0666 0.9519 0.2895
H23_5 H 0.0453 0.9680 0.2097
C36_5 C 0.1736(2) 0.9409(10) 0.2929(4)
H26_5 H 0.1863 0.9866 0.3356
H27_5 H 0.1607 0.8576 0.3090
H28_5 H 0.1939 0.9185 0.2575
N1_6 N 0.62331(13) 0.4696(5) 0.1931(2)
H17_6 H 0.6421 0.4403 0.1613
H18_6 H 0.6086 0.5363 0.1694
C33_6 C 0.59670(18) 0.3556(7) 0.2083(3)
H19_6 H 0.5895 0.3080 0.1617
H20_6 H 0.6107 0.2905 0.2418
C34_6 C 0.5594(2) 0.4052(9) 0.2433(4)
H21_6 H 0.5422 0.3279 0.2534
H22_6 H 0.5666 0.4519 0.2895
H23_6 H 0.5453 0.4680 0.2097
C35_6 C 0.6441(2) 0.5298(7) 0.2582(3)
H24_6 H 0.6241 0.5538 0.2947
H25_6 H 0.6573 0.6145 0.2432
C36_6 C 0.6736(2) 0.4409(10) 0.2929(4)
H26_6 H 0.6863 0.4866 0.3356
H27_6 H 0.6607 0.3576 0.3090
H28_6 H 0.6939 0.4185 0.2575
H18_7 H 0.8914 0.0363 0.3306
C35_7 C 0.8559(2) 0.0298(7) 0.2418(3)
H24_7 H 0.8759 0.0538 0.2053
H25_7 H 0.8427 0.1145 0.2568
N1_7 N 0.87669(13) 0.9696(5) 0.3069(2)
H17_7 H 0.8579 0.9403 0.3387
C33_7 C 0.90330(18) 0.8556(7) 0.2917(3)
H19_7 H 0.9105 0.8080 0.3383
H20_7 H 0.8893 0.7905 0.2582
C34_7 C 0.9406(2) 0.9052(9) 0.2567(4)
H21_7 H 0.9578 0.8279 0.2466
H22_7 H 0.9334 0.9519 0.2105
H23_7 H 0.9547 0.9680 0.2903
C36_7 C 0.8264(2) 0.9409(10) 0.2071(4)
H26_7 H 0.8137 0.9866 0.1644
H27_7 H 0.8393 0.8576 0.1910
H28_7 H 0.8061 0.9185 0.2425
N1_8 N 0.37669(13) 0.4696(5) 0.3069(2)
H17_8 H 0.3579 0.4403 0.3387
H18_8 H 0.3914 0.5363 0.3306
C33_8 C 0.40330(18) 0.3556(7) 0.2917(3)
H19_8 H 0.4105 0.3080 0.3383
H20_8 H 0.3893 0.2905 0.2582
C34_8 C 0.4406(2) 0.4052(9) 0.2567(4)
H21_8 H 0.4578 0.3279 0.2466
H22_8 H 0.4334 0.4519 0.2105
H23_8 H 0.4547 0.4680 0.2903
C35_8 C 0.3559(2) 0.5298(7) 0.2418(3)
H24_8 H 0.3759 0.5538 0.2053
H25_8 H 0.3427 0.6145 0.2568
C36_8 C 0.3264(2) 0.4409(10) 0.2071(4)
H26_8 H 0.3137 0.4866 0.1644
H27_8 H 0.3393 0.3576 0.1910
H28_8 H 0.3061 0.4185 0.2425
loop_
_geom_bond_atom_site_label_1
_geom_bond_atom_site_label_2
_geom_bond_site_symmetry_1
_geom_bond_site_symmetry_2
H16 C32 1_555 1_555
H15 C31 1_555 1_555
O22 C29 1_555 1_555
C29 C30 1_555 1_555
Zn1 O1 1_555 1_555
Zn2 O2 1_555 1_555
O1 C1 1_555 1_555
O2 C1 1_555 1_555
O3 C5 1_555 1_555
O4 C5 1_555 1_555
O5 Zn1 1_555 1_555
O8 C13 1_555 1_555
C1 C2 1_555 1_555
C2 C3 1_555 1_555
C3 H1 1_555 1_555
C4 C2 1_555 1_555
H2 C4 1_555 1_555
C5 C6 1_555 1_555
C6 C7 1_555 1_555
C7 C4 1_555 1_555
H3 C7 1_555 1_555
C8 C3 1_555 1_555
H4 C8 1_555 1_555
C14 C13 1_555 1_555
Zn3 O3 1_555 1_555
Zn7 O4 1_555 1_555
O13 Zn1 1_555 1_555
Zn2 O5 1_555 1_555
C6 C8 1_555 1_555
H7 C15 1_555 1_555
Zn6 O10 1_555 1_555
O9 Zn1_2 1_555 1_555
O10 C17 1_555 1_555
O12 Zn1_2 1_555 1_555
O18 Zn1_2 1_555 1_555
C17 O9 1_555 1_555
C18 C17 1_555 1_555
C19 C18 1_555 1_555
H9 C19 1_555 1_555
Zn6 O18 1_555 1_555
H6 C12 1_555 1_555
H8 C16 1_555 1_555
O19 C25 1_555 1_555
C25 C26 1_555 1_555
C26 C27 1_555 1_555
C27 C12 1_555 1_555
H13 C27 1_555 1_555
O6 C9 1_555 1_555
C10 C9 1_555 1_555
C11 C10 1_555 1_555
H5 C11 1_555 1_555
Zn3 O11 1_555 1_555
Zn10 O14 1_555 1_555
O11 C21 1_555 1_555
O14 C21 1_555 1_555
H10 C20 1_555 1_555
C21 C22 1_555 1_555
C22 C23 1_555 1_555
C23 C20 1_555 1_555
H11 C23 1_555 1_555
H12 C24 1_555 1_555
C28 C11 1_555 1_555
H14 C28 1_555 1_555
C22 C24 1_555 1_555
O3_2 C5_2 1_555 1_555
O4_2 C5_2 1_555 1_555
H2_2 C4_2 1_555 1_555
C5_2 C6_2 1_555 1_555
C6_2 C7_2 1_555 1_555
C7_2 C4_2 1_555 1_555
H3_2 C7_2 1_555 1_555
H4_2 C8_2 1_555 1_555
Zn3_2 O3_2 1_555 1_555
Zn7_2 O4_2 1_555 1_555
C6_2 C8_2 1_555 1_555
Zn1_3 O1_2 1_555 1_555
Zn2_2 O2_2 1_555 1_555
O1_2 C1_2 1_555 1_555
O2_2 C1_2 1_555 1_555
O5_2 Zn1_3 1_555 1_555
O8_2 C13_2 1_555 1_555
C1_2 C2_2 1_555 1_555
C2_2 C3_2 1_555 1_555
C3_2 H1_2 1_555 1_555
H6_2 C12_2 1_555 1_555
C14_2 C13_2 1_555 1_555
C16_2 C14_2 1_555 1_555
H8_2 C16_2 1_555 1_555
O13_2 Zn1_3 1_555 1_555
O19_2 C25_2 1_555 1_555
C25_2 C26_2 1_555 1_555
C26_2 C27_2 1_555 1_555
C27_2 C12_2 1_555 1_555
H13_2 C27_2 1_555 1_555
C31_2 C16_2 1_555 1_555
H15_2 C31_2 1_555 1_555
Zn2_2 O5_2 1_555 1_555
O6_2 C9_2 1_555 1_555
C10_2 C9_2 1_555 1_555
C11_2 C10_2 1_555 1_555
H5_2 C11_2 1_555 1_555
H7_2 C15_2 1_555 1_555
Zn3_2 O11_2 1_555 1_555
Zn9 O10_2 1_555 1_555
Zn10_2 O14_2 1_555 1_555
O9_2 Zn1_4 1_555 1_555
O10_2 C17_2 1_555 1_555
O11_2 C21_2 1_555 1_555
O12_2 Zn1_4 1_555 1_555
O14_2 C21_2 1_555 1_555
O18_2 Zn1_4 1_555 1_555
O22_2 C29_2 1_555 1_555
C17_2 O9_2 1_555 1_555
C18_2 C17_2 1_555 1_555
C19_2 C18_2 1_555 1_555
H9_2 C19_2 1_555 1_555
C20_2 C18_2 1_555 1_555
H10_2 C20_2 1_555 1_555
C21_2 C22_2 1_555 1_555
C22_2 C23_2 1_555 1_555
C23_2 C20_2 1_555 1_555
H11_2 C23_2 1_555 1_555
C24_2 C19_2 1_555 1_555
H12_2 C24_2 1_555 1_555
C28_2 C11_2 1_555 1_555
H14_2 C28_2 1_555 1_555
C29_2 C30_2 1_555 1_555
C32_2 C15_2 1_555 1_555
H16_2 C32_2 1_555 1_555
Zn9 O18_2 1_555 1_555
C22_2 C24_2 1_555 1_555
C30_2 C32_2 1_555 1_555
Zn3_2 O1_3 1_555 1_555
Zn10_2 O2_3 1_555 1_555
O1_3 C1_3 1_555 1_555
O2_3 C1_3 1_555 1_555
O13_2 C5_3 1_555 1_555
O16_2 C5_3 1_555 1_555
O5_3 Zn3_2 1_555 1_555
O7_3 Zn10_2 1_555 1_555
O8_3 C13_3 1_555 1_555
C1_3 C2_3 1_555 1_555
C2_3 C3_3 1_555 1_555
C3_3 H1_3 1_555 1_555
C4_3 C2_3 1_555 1_555
H2_3 C4_3 1_555 1_555
C5_3 C6_3 1_555 1_555
C6_3 C7_3 1_555 1_555
C7_3 C4_3 1_555 1_555
H3_3 C7_3 1_555 1_555
C8_3 C3_3 1_555 1_555
H4_3 C8_3 1_555 1_555
C13_3 O7_3 1_555 1_555
C14_3 C13_3 1_555 1_555
C15_3 C14_3 1_555 1_555
H7_3 C15_3 1_555 1_555
Zn7_2 O10_3 1_555 1_555
O9_3 Zn3_2 1_555 1_555
O10_3 C17_3 1_555 1_555
O18_3 Zn3_2 1_555 1_555
O21_2 Zn7_2 1_555 1_555
C17_3 O9_3 1_555 1_555
C18_3 C17_3 1_555 1_555
C19_3 C18_3 1_555 1_555
H9_3 C19_3 1_555 1_555
Zn10_2 O5_3 1_555 1_555
C6_3 C8_3 1_555 1_555
Zn7_2 O18_3 1_555 1_555
O6_3 C9_3 1_555 1_555
C10_3 C9_3 1_555 1_555
C11_3 C10_3 1_555 1_555
H5_3 C11_3 1_555 1_555
C12_3 C10_3 1_555 1_555
H6_3 C12_3 1_555 1_555
H8_3 C16_3 1_555 1_555
O12_2 C21_3 1_555 1_555
O15_2 C21_3 1_555 1_555
O18_3 C25_3 1_555 1_555
O19_3 C25_3 1_555 1_555
H10_3 C20_3 1_555 1_555
C21_3 C22_3 1_555 1_555
C22_3 C23_3 1_555 1_555
C23_3 C20_3 1_555 1_555
H11_3 C23_3 1_555 1_555
H12_3 C24_3 1_555 1_555
C25_3 C26_3 1_555 1_555
C26_3 C27_3 1_555 1_555
C27_3 C12_3 1_555 1_555
H13_3 C27_3 1_555 1_555
C28_3 C11_3 1_555 1_555
H14_3 C28_3 1_555 1_555
C22_3 C24_3 1_555 1_555
C26_3 C28_3 1_555 1_555
H16_3 C32_3 1_555 1_555
Zn7 O20_2 1_555 1_555
O20_2 C29_3 1_555 1_555
O22_3 C29_3 1_555 1_555
C29_3 C30_3 1_555 1_555
C30_3 C31_3 1_555 1_555
H15_3 C31_3 1_555 1_555
O13 C5_4 1_555 1_555
O16 C5_4 1_555 1_555
H2_4 C4_4 1_555 1_555
C5_4 C6_4 1_555 1_555
C6_4 C7_4 1_555 1_555
C7_4 C4_4 1_555 1_555
H3_4 C7_4 1_555 1_555
H4_4 C8_4 1_555 1_555
C6_4 C8_4 1_555 1_555
Zn3 O1_4 1_555 1_555
Zn10 O2_4 1_555 1_555
O1_4 C1_4 1_555 1_555
O2_4 C1_4 1_555 1_555
O5_4 Zn3 1_555 1_555
O6_4 C9_4 1_555 1_555
O7_4 Zn10 1_555 1_555
O8_4 C13_4 1_555 1_555
C1_4 C2_4 1_555 1_555
C2_4 C3_4 1_555 1_555
C3_4 H1_4 1_555 1_555
C9_4 O5_4 1_555 1_555
C10_4 C9_4 1_555 1_555
C11_4 C10_4 1_555 1_555
H5_4 C11_4 1_555 1_555
C12_4 C10_4 1_555 1_555
H6_4 C12_4 1_555 1_555
C13_4 O7_4 1_555 1_555
C14_4 C13_4 1_555 1_555
C15_4 C14_4 1_555 1_555
H7_4 C15_4 1_555 1_555
C16_4 C14_4 1_555 1_555
H8_4 C16_4 1_555 1_555
Zn7 O10_4 1_555 1_555
O9_4 Zn3 1_555 1_555
O10_4 C17_4 1_555 1_555
O12 C21_4 1_555 1_555
O15 C21_4 1_555 1_555
O18_4 Zn3 1_555 1_555
O19_4 C25_4 1_555 1_555
O21_2 C29_4 1_555 1_555
O22_4 C29_4 1_555 1_555
C17_4 O9_4 1_555 1_555
C18_4 C17_4 1_555 1_555
C19_4 C18_4 1_555 1_555
H9_4 C19_4 1_555 1_555
C20_4 C18_4 1_555 1_555
H10_4 C20_4 1_555 1_555
C21_4 C22_4 1_555 1_555
C22_4 C23_4 1_555 1_555
C23_4 C20_4 1_555 1_555
H11_4 C23_4 1_555 1_555
C24_4 C19_4 1_555 1_555
H12_4 C24_4 1_555 1_555
C25_4 C26_4 1_555 1_555
C26_4 C27_4 1_555 1_555
C27_4 C12_4 1_555 1_555
H13_4 C27_4 1_555 1_555
C28_4 C11_4 1_555 1_555
H14_4 C28_4 1_555 1_555
C29_4 C30_4 1_555 1_555
C30_4 C31_4 1_555 1_555
C31_4 C16_4 1_555 1_555
H15_4 C31_4 1_555 1_555
C32_4 C15_4 1_555 1_555
H16_4 C32_4 1_555 1_555
Zn10 O5_4 1_555 1_555
Zn7 O18_4 1_555 1_555
C22_4 C24_4 1_555 1_555
C26_4 C28_4 1_555 1_555
C30_4 C32_4 1_555 1_555
N1 H17 1_555 1_555
C33 N1 1_555 1_555
H19 C33 1_555 1_555
H20 C33 1_555 1_555
C34 C33 1_555 1_555
H21 C34 1_555 1_555
H22 C34 1_555 1_555
H23 C34 1_555 1_555
H26 C36 1_555 1_555
H27 C36 1_555 1_555
H28 C36 1_555 1_555
H24 C35 1_555 1_555
H25 C35 1_555 1_555
N1_2 H17_2 1_555 1_555
H18_2 N1_2 1_555 1_555
C33_2 N1_2 1_555 1_555
H19_2 C33_2 1_555 1_555
H20_2 C33_2 1_555 1_555
C34_2 C33_2 1_555 1_555
H21_2 C34_2 1_555 1_555
H22_2 C34_2 1_555 1_555
H23_2 C34_2 1_555 1_555
C35_2 N1_2 1_555 1_555
H24_2 C35_2 1_555 1_555
H25_2 C35_2 1_555 1_555
C36_2 C35_2 1_555 1_555
H26_2 C36_2 1_555 1_555
H27_2 C36_2 1_555 1_555
H28_2 C36_2 1_555 1_555
N1_3 H17_3 1_555 1_555
C33_3 N1_3 1_555 1_555
H19_3 C33_3 1_555 1_555
H20_3 C33_3 1_555 1_555
C34_3 C33_3 1_555 1_555
H21_3 C34_3 1_555 1_555
H22_3 C34_3 1_555 1_555
H23_3 C34_3 1_555 1_555
H26_3 C36_3 1_555 1_555
H27_3 C36_3 1_555 1_555
H28_3 C36_3 1_555 1_555
H24_3 C35_3 1_555 1_555
H25_3 C35_3 1_555 1_555
N1_4 H17_4 1_555 1_555
H18_4 N1_4 1_555 1_555
C33_4 N1_4 1_555 1_555
H19_4 C33_4 1_555 1_555
H20_4 C33_4 1_555 1_555
C34_4 C33_4 1_555 1_555
H21_4 C34_4 1_555 1_555
H22_4 C34_4 1_555 1_555
H23_4 C34_4 1_555 1_555
C35_4 N1_4 1_555 1_555
H24_4 C35_4 1_555 1_555
H25_4 C35_4 1_555 1_555
C36_4 C35_4 1_555 1_555
H26_4 C36_4 1_555 1_555
H27_4 C36_4 1_555 1_555
H28_4 C36_4 1_555 1_555
H24_5 C35_5 1_555 1_555
H25_5 C35_5 1_555 1_555
N1_5 H17_5 1_555 1_555
C33_5 N1_5 1_555 1_555
H19_5 C33_5 1_555 1_555
H20_5 C33_5 1_555 1_555
C34_5 C33_5 1_555 1_555
H21_5 C34_5 1_555 1_555
H22_5 C34_5 1_555 1_555
H23_5 C34_5 1_555 1_555
H26_5 C36_5 1_555 1_555
H27_5 C36_5 1_555 1_555
H28_5 C36_5 1_555 1_555
N1_6 H17_6 1_555 1_555
H18_6 N1_6 1_555 1_555
C33_6 N1_6 1_555 1_555
H19_6 C33_6 1_555 1_555
H20_6 C33_6 1_555 1_555
C34_6 C33_6 1_555 1_555
H21_6 C34_6 1_555 1_555
H22_6 C34_6 1_555 1_555
H23_6 C34_6 1_555 1_555
C35_6 N1_6 1_555 1_555
H24_6 C35_6 1_555 1_555
H25_6 C35_6 1_555 1_555
C36_6 C35_6 1_555 1_555
H26_6 C36_6 1_555 1_555
H27_6 C36_6 1_555 1_555
H28_6 C36_6 1_555 1_555
H24_7 C35_7 1_555 1_555
H25_7 C35_7 1_555 1_555
N1_7 H17_7 1_555 1_555
C33_7 N1_7 1_555 1_555
H19_7 C33_7 1_555 1_555
H20_7 C33_7 1_555 1_555
C34_7 C33_7 1_555 1_555
H21_7 C34_7 1_555 1_555
H22_7 C34_7 1_555 1_555
H23_7 C34_7 1_555 1_555
H26_7 C36_7 1_555 1_555
H27_7 C36_7 1_555 1_555
H28_7 C36_7 1_555 1_555
N1_8 H17_8 1_555 1_555
H18_8 N1_8 1_555 1_555
C33_8 N1_8 1_555 1_555
H19_8 C33_8 1_555 1_555
H20_8 C33_8 1_555 1_555
C34_8 C33_8 1_555 1_555
H21_8 C34_8 1_555 1_555
H22_8 C34_8 1_555 1_555
H23_8 C34_8 1_555 1_555
C35_8 N1_8 1_555 1_555
H24_8 C35_8 1_555 1_555
H25_8 C35_8 1_555 1_555
C36_8 C35_8 1_555 1_555
H26_8 C36_8 1_555 1_555
H27_8 C36_8 1_555 1_555
H28_8 C36_8 1_555 1_555

#END
