
###############################################################################
#
# This file contains modified crystal structure data generated from the
# MOF subset of the Cambridge Structural Database (CSD) v543 
# hosted by the Cambridge Crystallographic Data Centre (CCDC).
#
# This work is licensed under the Creative Commons
# Attribution-NonCommercial-ShareAlike 4.0 International License.
# To view a copy of this license, visit
# http://creativecommons.org/licenses/by-nc-sa/4.0/
# or send a letter to
# Creative Commons, PO Box 1866, Mountain View, CA 94042, USA.
#
# CIF created using the CSD Python API on 29 September 2022
# The structure has been converted into the P1 space group
# The structure has a 3D framework
# The original CSD entry GATHAL is in the orthorhombic crystal system
# The framework has been calculated to contain at least 10.0% void space
# The void calculation uses a probe of radius 1.32A, grid spacing 0.4
#
###############################################################################

data_GATHAL
_chemical_formula_moiety         '(C192 H96 O96 Sc13)n'
_symmetry_cell_setting           triclinic
_symmetry_space_group_name_H-M   'P 1'
_symmetry_Int_Tables_number      1
_space_group_name_Hall           'P 1'
loop_
_symmetry_equiv_pos_site_id
_symmetry_equiv_pos_as_xyz
1 x,y,z
_cell_length_a                   8.7550(3)
_cell_length_b                   20.7786(7)
_cell_length_c                   34.4075(13)
_cell_angle_alpha                90
_cell_angle_beta                 90
_cell_angle_gamma                90
_cell_volume                     6259.3
loop_
_atom_site_label
_atom_site_type_symbol
_atom_site_fract_x
_atom_site_fract_y
_atom_site_fract_z
Sc8 Sc 0.1250 0.1250 0.885674(4)
H6 H 0.0070 0.2264 0.9924
Sc1 Sc 0.3750 0.3750 0.114326(4)
O1 O 0.24144(8) 0.41664(4) 0.07046(2)
O2 O 0.00466(9) 0.41578(5) 0.09257(2)
O3 O 0.50514(9) 0.45836(3) 0.11471(3)
C1 C 0.10238(10) 0.43029(5) 0.06762(2)
C2 C 0.04973(10) 0.46628(6) 0.03254(2)
C3 C 0.15381(11) 0.48582(9) 0.00464(4)
H1 H 0.2570 0.4764 0.0076
C5 C 0.6250 0.48638(5) 0.1250
C6 C 0.6250 0.55826(5) 0.1250
C7 C 0.48851(12) 0.59144(4) 0.12457(6)
H3 H 0.3966 0.5691 0.1237
Sc5 Sc 0.8750 0.3750 0.135674(4)
Sc6 Sc 0.3750 0.8750 0.135674(4)
Sc7 Sc 0.8750 0.8750 0.114326(4)
O5 O 0.50856(8) 0.33336(4) 0.07046(2)
O9 O 0.74534(9) 0.33422(5) 0.09257(2)
O11 O 0.24534(9) 0.41578(5) 0.15743(2)
O12 O 0.50466(9) 0.33422(5) 0.15743(2)
O15 O 0.74486(9) 0.45836(3) 0.13529(3)
O16 O 0.50514(9) 0.79164(3) 0.13529(3)
O17 O 0.74486(9) 0.79164(3) 0.11471(3)
O18 O 0.24486(9) 0.29164(3) 0.11471(3)
C9 C 0.64762(10) 0.31971(5) 0.06762(2)
C12 C 0.70027(10) 0.28372(6) 0.03254(2)
C15 C 0.59619(11) 0.26418(9) 0.00464(4)
H5 H 0.4930 0.2736 0.0076
C18 C 0.85378(11) 0.26957(9) 0.02788(4)
H8 H 0.9238 0.2827 0.0466
C20 C 0.6250 0.76362(5) 0.1250
C21 C 0.6250 0.69174(5) 0.1250
C22 C 0.48851(12) 0.65856(4) 0.12543(6)
C23 C 0.76149(12) 0.65856(4) 0.12457(6)
C24 C 0.76149(12) 0.59144(4) 0.12543(6)
H10 H 0.8534 0.5691 0.1263
H11 H 0.8534 0.6809 0.1237
H12 H 0.3966 0.6809 0.1263
Sc4 Sc 0.1250 0.6250 0.864326(4)
Sc9 Sc 0.6250 0.1250 0.864326(4)
O6 O 0.99144(8) 0.16664(4) 0.92954(2)
O10 O 0.75466(9) 0.16578(5) 0.90743(2)
C10 C 0.85238(10) 0.18029(5) 0.93238(2)
C13 C 0.79973(10) 0.21628(6) 0.96746(2)
C16 C 0.90381(11) 0.23582(9) 0.99536(4)
C17 C 0.10378(11) 0.51957(9) 0.97212(4)
C19 C 0.64622(11) 0.23043(9) 0.97212(4)
H7 H 0.1738 0.5327 0.9534
H9 H 0.5762 0.2173 0.9534
C4 C 0.89622(11) 0.48043(9) 0.02788(4)
H2 H 0.8262 0.4673 0.0466
Sc2 Sc 0.6250 0.6250 0.885674(4)
O4 O 0.75856(8) 0.58336(4) 0.92954(2)
O7 O 0.49144(8) 0.66664(4) 0.92954(2)
O8 O 0.99534(9) 0.58422(5) 0.90743(2)
O13 O 0.49534(9) 0.66578(5) 0.84257(2)
O14 O 0.75466(9) 0.58422(5) 0.84257(2)
O19 O 0.75514(9) 0.70836(3) 0.88529(3)
O20 O 0.49486(9) 0.54164(3) 0.88529(3)
C8 C 0.89762(10) 0.56971(5) 0.93238(2)
C11 C 0.95027(10) 0.53372(6) 0.96746(2)
C14 C 0.84619(11) 0.51418(9) 0.99536(4)
H4 H 0.7430 0.5236 0.9924
Sc8_2 Sc 0.1250 0.6250 0.385674(4)
H6_2 H 0.0070 0.7264 0.4924
C6_2 C 0.6250 0.05826(5) 0.6250
C7_2 C 0.48851(12) 0.09144(4) 0.62457(6)
H3_2 H 0.3966 0.0691 0.6237
Sc4_2 Sc 0.1250 0.1250 0.364326(4)
Sc6_2 Sc 0.3750 0.3750 0.635674(4)
Sc7_2 Sc 0.8750 0.3750 0.614326(4)
O16_2 O 0.50514(9) 0.29164(3) 0.63529(3)
O17_2 O 0.74486(9) 0.29164(3) 0.61471(3)
C17_2 C 0.10378(11) 0.01957(9) 0.47212(4)
H7_2 H 0.1738 0.0327 0.4534
C20_2 C 0.6250 0.26362(5) 0.6250
C21_2 C 0.6250 0.19174(5) 0.6250
C22_2 C 0.48851(12) 0.15856(4) 0.62543(6)
C23_2 C 0.76149(12) 0.15856(4) 0.62457(6)
C24_2 C 0.76149(12) 0.09144(4) 0.62543(6)
H10_2 H 0.8534 0.0691 0.6263
H11_2 H 0.8534 0.1809 0.6237
H12_2 H 0.3966 0.1809 0.6263
Sc1_2 Sc 0.3750 0.8750 0.614326(4)
O1_2 O 0.24144(8) 0.91664(4) 0.57046(2)
O2_2 O 0.00466(9) 0.91578(5) 0.59257(2)
O3_2 O 0.50514(9) 0.95836(3) 0.61471(3)
C1_2 C 0.10238(10) 0.93029(5) 0.56762(2)
C2_2 C 0.04973(10) 0.96628(6) 0.53254(2)
C3_2 C 0.15381(11) 0.98582(9) 0.50464(4)
H1_2 H 0.2570 0.9764 0.5076
C5_2 C 0.6250 0.98638(5) 0.6250
Sc5_2 Sc 0.8750 0.8750 0.635674(4)
Sc9_2 Sc 0.6250 0.6250 0.364326(4)
O5_2 O 0.50856(8) 0.83336(4) 0.57046(2)
O6_2 O 0.99144(8) 0.66664(4) 0.42954(2)
O9_2 O 0.74534(9) 0.83422(5) 0.59257(2)
O10_2 O 0.75466(9) 0.66578(5) 0.40743(2)
O11_2 O 0.24534(9) 0.91578(5) 0.65743(2)
O12_2 O 0.50466(9) 0.83422(5) 0.65743(2)
O15_2 O 0.74486(9) 0.95836(3) 0.63529(3)
O18_2 O 0.24486(9) 0.79164(3) 0.61471(3)
C9_2 C 0.64762(10) 0.81971(5) 0.56762(2)
C10_2 C 0.85238(10) 0.68029(5) 0.43238(2)
C12_2 C 0.70027(10) 0.78372(6) 0.53254(2)
C13_2 C 0.79973(10) 0.71628(6) 0.46746(2)
C15_2 C 0.59619(11) 0.76418(9) 0.50464(4)
C16_2 C 0.90381(11) 0.73582(9) 0.49536(4)
H5_2 H 0.4930 0.7736 0.5076
C18_2 C 0.85378(11) 0.76957(9) 0.52788(4)
C19_2 C 0.64622(11) 0.73043(9) 0.47212(4)
H8_2 H 0.9238 0.7827 0.5466
H9_2 H 0.5762 0.7173 0.4534
Sc2_2 Sc 0.6250 0.1250 0.385674(4)
O4_2 O 0.75856(8) 0.08336(4) 0.42954(2)
O7_2 O 0.49144(8) 0.16664(4) 0.42954(2)
O8_2 O 0.99534(9) 0.08422(5) 0.40743(2)
O13_2 O 0.49534(9) 0.16578(5) 0.34257(2)
O14_2 O 0.75466(9) 0.08422(5) 0.34257(2)
O19_2 O 0.75514(9) 0.20836(3) 0.38529(3)
O20_2 O 0.49486(9) 0.04164(3) 0.38529(3)
C8_2 C 0.89762(10) 0.06971(5) 0.43238(2)
C11_2 C 0.95027(10) 0.03372(6) 0.46746(2)
C14_2 C 0.84619(11) 0.01418(9) 0.49536(4)
H4_2 H 0.7430 0.0236 0.4924
C4_2 C 0.89622(11) 0.98043(9) 0.52788(4)
H2_2 H 0.8262 0.9673 0.5466
H6_3 H 0.0070 0.0236 0.2576
O6_3 O 0.99144(8) 0.08336(4) 0.32046(2)
C10_3 C 0.85238(10) 0.06971(5) 0.31762(2)
C13_3 C 0.79973(10) 0.03372(6) 0.28254(2)
C16_3 C 0.90381(11) 0.01418(9) 0.25464(4)
C19_3 C 0.64622(11) 0.01957(9) 0.27788(4)
H9_3 H 0.5762 0.0327 0.2966
O1_3 O 0.24144(8) 0.83336(4) 0.17954(2)
O2_3 O 0.00466(9) 0.83422(5) 0.15743(2)
C1_3 C 0.10238(10) 0.81971(5) 0.18238(2)
C2_3 C 0.04973(10) 0.78372(6) 0.21746(2)
C3_3 C 0.15381(11) 0.76418(9) 0.24536(4)
H1_3 H 0.2570 0.7736 0.2424
O5_3 O 0.50856(8) 0.91664(4) 0.17954(2)
O9_3 O 0.74534(9) 0.91578(5) 0.15743(2)
O11_3 O 0.24534(9) 0.83422(5) 0.09257(2)
O12_3 O 0.50466(9) 0.91578(5) 0.09257(2)
O18_3 O 0.24486(9) 0.95836(3) 0.13529(3)
C9_3 C 0.64762(10) 0.93029(5) 0.18238(2)
C12_3 C 0.70027(10) 0.96628(6) 0.21746(2)
C15_3 C 0.59619(11) 0.98582(9) 0.24536(4)
H5_3 H 0.4930 0.9764 0.2424
C17_3 C 0.10378(11) 0.73043(9) 0.27788(4)
C18_3 C 0.85378(11) 0.98043(9) 0.22212(4)
H7_3 H 0.1738 0.7173 0.2966
H8_3 H 0.9238 0.9673 0.2034
C4_3 C 0.89622(11) 0.76957(9) 0.22212(4)
H2_3 H 0.8262 0.7827 0.2034
O4_3 O 0.75856(8) 0.66664(4) 0.32046(2)
O7_3 O 0.49144(8) 0.58336(4) 0.32046(2)
O8_3 O 0.99534(9) 0.66578(5) 0.34257(2)
O13_3 O 0.49534(9) 0.58422(5) 0.40743(2)
O19_3 O 0.75514(9) 0.54164(3) 0.36471(3)
O20_3 O 0.49486(9) 0.70836(3) 0.36471(3)
C8_3 C 0.89762(10) 0.68029(5) 0.31762(2)
C11_3 C 0.95027(10) 0.71628(6) 0.28254(2)
C14_3 C 0.84619(11) 0.73582(9) 0.25464(4)
H4_3 H 0.7430 0.7264 0.2576
O3_3 O 0.00514(9) 0.45836(3) 0.61471(3)
C5_3 C 0.1250 0.48638(5) 0.6250
C6_3 C 0.1250 0.55826(5) 0.6250
O5_4 O 0.00856(8) 0.33336(4) 0.57046(2)
O9_4 O 0.24534(9) 0.33422(5) 0.59257(2)
O10_3 O 0.25466(9) 0.16578(5) 0.40743(2)
O12_4 O 0.00466(9) 0.33422(5) 0.65743(2)
O15_3 O 0.24486(9) 0.45836(3) 0.63529(3)
O16_3 O 0.00514(9) 0.79164(3) 0.63529(3)
C9_4 C 0.14762(10) 0.31971(5) 0.56762(2)
C10_4 C 0.35238(10) 0.18029(5) 0.43238(2)
C12_4 C 0.20027(10) 0.28372(6) 0.53254(2)
C13_4 C 0.29973(10) 0.21628(6) 0.46746(2)
C15_4 C 0.09619(11) 0.26418(9) 0.50464(4)
C16_4 C 0.40381(11) 0.23582(9) 0.49536(4)
H6_4 H 0.5070 0.2264 0.4924
C18_4 C 0.35378(11) 0.26957(9) 0.52788(4)
C19_4 C 0.14622(11) 0.23043(9) 0.47212(4)
H8_4 H 0.4238 0.2827 0.5466
H9_4 H 0.0762 0.2173 0.4534
C20_3 C 0.1250 0.76362(5) 0.6250
C21_3 C 0.1250 0.69174(5) 0.6250
C23_3 C 0.26149(12) 0.65856(4) 0.62457(6)
C24_3 C 0.26149(12) 0.59144(4) 0.62543(6)
H10_3 H 0.3534 0.5691 0.6263
H11_3 H 0.3534 0.6809 0.6237
O1_4 O 0.74144(8) 0.41664(4) 0.57046(2)
O2_4 O 0.50466(9) 0.41578(5) 0.59257(2)
C1_4 C 0.60238(10) 0.43029(5) 0.56762(2)
C2_4 C 0.54973(10) 0.46628(6) 0.53254(2)
C3_4 C 0.65381(11) 0.48582(9) 0.50464(4)
H1_4 H 0.7570 0.4764 0.5076
C4_4 C 0.39622(11) 0.48043(9) 0.52788(4)
H2_4 H 0.3262 0.4673 0.5466
C7_3 C 0.98851(12) 0.59144(4) 0.62457(6)
H3_3 H 0.8966 0.5691 0.6237
O4_4 O 0.25856(8) 0.58336(4) 0.42954(2)
O11_4 O 0.74534(9) 0.41578(5) 0.65743(2)
O14_3 O 0.25466(9) 0.58422(5) 0.34257(2)
O19_4 O 0.25514(9) 0.70836(3) 0.38529(3)
C8_4 C 0.39762(10) 0.56971(5) 0.43238(2)
C11_4 C 0.45027(10) 0.53372(6) 0.46746(2)
C14_4 C 0.34619(11) 0.51418(9) 0.49536(4)
H4_4 H 0.2430 0.5236 0.4924
H5_4 H 0.9930 0.2736 0.5076
C17_4 C 0.60378(11) 0.51957(9) 0.47212(4)
H7_4 H 0.6738 0.5327 0.4534
C22_3 C 0.98851(12) 0.65856(4) 0.62543(6)
H12_3 H 0.8966 0.6809 0.6263
O20_4 O 0.99486(9) 0.54164(3) 0.38529(3)
O1_5 O 0.00856(8) 0.41664(4) 0.17954(2)
C1_5 C 0.14762(10) 0.43029(5) 0.18238(2)
C2_5 C 0.20027(10) 0.46628(6) 0.21746(2)
C3_5 C 0.09619(11) 0.48582(9) 0.24536(4)
C4_5 C 0.35378(11) 0.48043(9) 0.22212(4)
H2_5 H 0.4238 0.4673 0.2034
O18_4 O 0.00514(9) 0.29164(3) 0.13529(3)
C8_5 C 0.35238(10) 0.56971(5) 0.31762(2)
C11_5 C 0.29973(10) 0.53372(6) 0.28254(2)
C14_5 C 0.40381(11) 0.51418(9) 0.25464(4)
H4_5 H 0.5070 0.5236 0.2576
C17_5 C 0.14622(11) 0.51957(9) 0.27788(4)
H7_5 H 0.0762 0.5327 0.2966
H1_5 H 0.9930 0.4764 0.2424
O5_5 O 0.74144(8) 0.33336(4) 0.17954(2)
O6_4 O 0.25856(8) 0.16664(4) 0.32046(2)
C9_5 C 0.60238(10) 0.31971(5) 0.18238(2)
C10_5 C 0.39762(10) 0.18029(5) 0.31762(2)
C12_5 C 0.54973(10) 0.28372(6) 0.21746(2)
C13_5 C 0.45027(10) 0.21628(6) 0.28254(2)
C15_5 C 0.65381(11) 0.26418(9) 0.24536(4)
C16_5 C 0.34619(11) 0.23582(9) 0.25464(4)
H5_5 H 0.7570 0.2736 0.2424
H6_5 H 0.2430 0.2264 0.2576
C18_5 C 0.39622(11) 0.26957(9) 0.22212(4)
C19_5 C 0.60378(11) 0.23043(9) 0.27788(4)
H8_5 H 0.3262 0.2827 0.2034
H9_5 H 0.6738 0.2173 0.2966
C6_4 C 0.1250 0.05826(5) 0.1250
C20_4 C 0.1250 0.26362(5) 0.1250
C21_4 C 0.1250 0.19174(5) 0.1250
C23_4 C 0.26149(12) 0.15856(4) 0.12457(6)
C24_4 C 0.26149(12) 0.09144(4) 0.12543(6)
H10_4 H 0.3534 0.0691 0.1263
H11_4 H 0.3534 0.1809 0.1237
O3_4 O 0.00514(9) 0.95836(3) 0.11471(3)
C5_4 C 0.1250 0.98638(5) 0.1250
O5_6 O 0.00856(8) 0.83336(4) 0.07046(2)
C9_6 C 0.14762(10) 0.81971(5) 0.06762(2)
C12_6 C 0.20027(10) 0.78372(6) 0.03254(2)
C15_6 C 0.09619(11) 0.76418(9) 0.00464(4)
C18_6 C 0.35378(11) 0.76957(9) 0.02788(4)
H8_6 H 0.4238 0.7827 0.0466
O10_4 O 0.25466(9) 0.66578(5) 0.90743(2)
C10_6 C 0.35238(10) 0.68029(5) 0.93238(2)
C13_6 C 0.29973(10) 0.71628(6) 0.96746(2)
C16_6 C 0.40381(11) 0.73582(9) 0.99536(4)
H6_6 H 0.5070 0.7264 0.9924
C19_6 C 0.14622(11) 0.73043(9) 0.97212(4)
H9_6 H 0.0762 0.7173 0.9534
C7_4 C 0.98851(12) 0.09144(4) 0.12457(6)
H3_4 H 0.8966 0.0691 0.1237
C22_4 C 0.98851(12) 0.15856(4) 0.12543(6)
H12_4 H 0.8966 0.1809 0.1263
O4_5 O 0.25856(8) 0.08336(4) 0.92954(2)
O8_4 O 0.49534(9) 0.08422(5) 0.90743(2)
O14_4 O 0.25466(9) 0.08422(5) 0.84257(2)
O19_5 O 0.25514(9) 0.20836(3) 0.88529(3)
C8_6 C 0.39762(10) 0.06971(5) 0.93238(2)
C11_6 C 0.45027(10) 0.03372(6) 0.96746(2)
C14_6 C 0.34619(11) 0.01418(9) 0.99536(4)
H4_6 H 0.2430 0.0236 0.9924
C17_6 C 0.60378(11) 0.01957(9) 0.97212(4)
H7_6 H 0.6738 0.0327 0.9534
O1_6 O 0.74144(8) 0.91664(4) 0.07046(2)
C1_6 C 0.60238(10) 0.93029(5) 0.06762(2)
C2_6 C 0.54973(10) 0.96628(6) 0.03254(2)
C3_6 C 0.65381(11) 0.98582(9) 0.00464(4)
H1_6 H 0.7570 0.9764 0.0076
C4_6 C 0.39622(11) 0.98043(9) 0.02788(4)
H2_6 H 0.3262 0.9673 0.0466
H5_6 H 0.9930 0.7736 0.0076
O13_4 O 0.99534(9) 0.16578(5) 0.84257(2)
O20_5 O 0.99486(9) 0.04164(3) 0.88529(3)
O7_4 O 0.25856(8) 0.66664(4) 0.82046(2)
O20_6 O 0.25514(9) 0.54164(3) 0.86471(3)
H4_7 H 0.0070 0.5236 0.7576
O1_7 O 0.50856(8) 0.41664(4) 0.67954(2)
C1_7 C 0.64762(10) 0.43029(5) 0.68238(2)
C2_7 C 0.70027(10) 0.46628(6) 0.71746(2)
C3_7 C 0.59619(11) 0.48582(9) 0.74536(4)
H1_7 H 0.4930 0.4764 0.7424
C4_7 C 0.85378(11) 0.48043(9) 0.72212(4)
H2_7 H 0.9238 0.4673 0.7034
O4_6 O 0.99144(8) 0.58336(4) 0.82046(2)
O5_7 O 0.24144(8) 0.33336(4) 0.67954(2)
O19_6 O 0.99486(9) 0.70836(3) 0.86471(3)
C8_7 C 0.85238(10) 0.56971(5) 0.81762(2)
C9_7 C 0.10238(10) 0.31971(5) 0.68238(2)
C11_7 C 0.79973(10) 0.53372(6) 0.78254(2)
C12_7 C 0.04973(10) 0.28372(6) 0.71746(2)
C14_7 C 0.90381(11) 0.51418(9) 0.75464(4)
C15_7 C 0.15381(11) 0.26418(9) 0.74536(4)
H5_7 H 0.2570 0.2736 0.7424
C17_7 C 0.64622(11) 0.51957(9) 0.77788(4)
C19_7 C 0.10378(11) 0.23043(9) 0.77788(4)
H7_7 H 0.5762 0.5327 0.7966
H9_7 H 0.1738 0.2173 0.7966
O6_5 O 0.75856(8) 0.16664(4) 0.82046(2)
C10_7 C 0.89762(10) 0.18029(5) 0.81762(2)
C13_7 C 0.95027(10) 0.21628(6) 0.78254(2)
C16_7 C 0.84619(11) 0.23582(9) 0.75464(4)
H6_7 H 0.7430 0.2264 0.7576
C18_7 C 0.89622(11) 0.26957(9) 0.72212(4)
H8_7 H 0.8262 0.2827 0.7034
O7_5 O 0.49144(8) 0.08336(4) 0.82046(2)
O19_7 O 0.75514(9) 0.04164(3) 0.86471(3)
O20_7 O 0.49486(9) 0.20836(3) 0.86471(3)
O20_8 O 0.25514(9) 0.04164(3) 0.36471(3)
O19_8 O 0.99486(9) 0.20836(3) 0.36471(3)
C8_8 C 0.35238(10) 0.06971(5) 0.81762(2)
C11_8 C 0.29973(10) 0.03372(6) 0.78254(2)
C14_8 C 0.40381(11) 0.01418(9) 0.75464(4)
H4_8 H 0.5070 0.0236 0.7576
C17_8 C 0.14622(11) 0.01957(9) 0.77788(4)
H7_8 H 0.0762 0.0327 0.7966
O1_8 O 0.00856(8) 0.91664(4) 0.67954(2)
C1_8 C 0.14762(10) 0.93029(5) 0.68238(2)
C2_8 C 0.20027(10) 0.96628(6) 0.71746(2)
C3_8 C 0.09619(11) 0.98582(9) 0.74536(4)
C4_8 C 0.35378(11) 0.98043(9) 0.72212(4)
H2_8 H 0.4238 0.9673 0.7034
H1_8 H 0.9930 0.9764 0.7424
O5_8 O 0.74144(8) 0.83336(4) 0.67954(2)
C9_8 C 0.60238(10) 0.81971(5) 0.68238(2)
C10_8 C 0.39762(10) 0.68029(5) 0.81762(2)
C12_8 C 0.54973(10) 0.78372(6) 0.71746(2)
C13_8 C 0.45027(10) 0.71628(6) 0.78254(2)
C15_8 C 0.65381(11) 0.76418(9) 0.74536(4)
C16_8 C 0.34619(11) 0.73582(9) 0.75464(4)
H5_8 H 0.7570 0.7736 0.7424
H6_8 H 0.2430 0.7264 0.7576
C18_8 C 0.39622(11) 0.76957(9) 0.72212(4)
C19_8 C 0.60378(11) 0.73043(9) 0.77788(4)
H8_8 H 0.3262 0.7827 0.7034
H9_8 H 0.6738 0.7173 0.7966
C5_5 C 0.3750 0.51362(5) 0.8750
C6_5 C 0.3750 0.44174(5) 0.8750
C7_5 C 0.51149(12) 0.40856(4) 0.87543(6)
H3_5 H 0.6034 0.4309 0.8763
C20_5 C 0.3750 0.23638(5) 0.8750
C21_5 C 0.3750 0.30826(5) 0.8750
C22_5 C 0.51149(12) 0.34144(4) 0.87457(6)
C23_5 C 0.23851(12) 0.34144(4) 0.87543(6)
C24_5 C 0.23851(12) 0.40856(4) 0.87457(6)
H10_5 H 0.1466 0.4309 0.8737
H11_5 H 0.1466 0.3191 0.8763
H12_5 H 0.6034 0.3191 0.8737
C5_6 C 0.3750 0.01362(5) 0.3750
C6_6 C 0.3750 0.94174(5) 0.3750
C7_6 C 0.51149(12) 0.90856(4) 0.37543(6)
H3_6 H 0.6034 0.9309 0.3763
C20_6 C 0.3750 0.73638(5) 0.3750
C21_6 C 0.3750 0.80826(5) 0.3750
C22_6 C 0.51149(12) 0.84144(4) 0.37457(6)
C23_6 C 0.23851(12) 0.84144(4) 0.37543(6)
C24_6 C 0.23851(12) 0.90856(4) 0.37457(6)
H10_6 H 0.1466 0.9309 0.3737
H11_6 H 0.1466 0.8191 0.3763
H12_6 H 0.6034 0.8191 0.3737
C7_7 C 0.01149(12) 0.40856(4) 0.37543(6)
H3_7 H 0.1034 0.4309 0.3763
C22_7 C 0.01149(12) 0.34144(4) 0.37457(6)
H12_7 H 0.1034 0.3191 0.3737
C5_7 C 0.8750 0.51362(5) 0.3750
C6_7 C 0.8750 0.44174(5) 0.3750
C20_7 C 0.8750 0.23638(5) 0.3750
C21_7 C 0.8750 0.30826(5) 0.3750
C23_7 C 0.73851(12) 0.34144(4) 0.37543(6)
C24_7 C 0.73851(12) 0.40856(4) 0.37457(6)
H10_7 H 0.6466 0.4309 0.3737
H11_7 H 0.6466 0.3191 0.3763
C7_8 C 0.01149(12) 0.90856(4) 0.87543(6)
H3_8 H 0.1034 0.9309 0.8763
C22_8 C 0.01149(12) 0.84144(4) 0.87457(6)
H12_8 H 0.1034 0.8191 0.8737
C5_8 C 0.8750 0.01362(5) 0.8750
C6_8 C 0.8750 0.94174(5) 0.8750
C20_8 C 0.8750 0.73638(5) 0.8750
C21_8 C 0.8750 0.80826(5) 0.8750
C23_8 C 0.73851(12) 0.84144(4) 0.87543(6)
C24_8 C 0.73851(12) 0.90856(4) 0.87457(6)
H10_8 H 0.6466 0.9309 0.8737
H11_8 H 0.6466 0.8191 0.8763
loop_
_geom_bond_atom_site_label_1
_geom_bond_atom_site_label_2
_geom_bond_site_symmetry_1
_geom_bond_site_symmetry_2
Sc1 O1 1_555 1_555
O1 C1 1_555 1_555
O2 C1 1_555 1_555
O3 Sc1 1_555 1_555
C1 C2 1_555 1_555
C2 C3 1_555 1_555
C3 H1 1_555 1_555
C5 O3 1_555 1_555
C6 C5 1_555 1_555
C7 C6 1_555 1_555
H3 C7 1_555 1_555
Sc5 O9 1_555 1_555
Sc6 O16 1_555 1_555
Sc7 O17 1_555 1_555
O5 Sc1 1_555 1_555
O9 C9 1_555 1_555
O11 Sc1 1_555 1_555
O12 Sc1 1_555 1_555
O15 C5 1_555 1_555
O16 C20 1_555 1_555
O17 C20 1_555 1_555
O18 Sc1 1_555 1_555
C9 O5 1_555 1_555
C12 C9 1_555 1_555
C15 C12 1_555 1_555
H5 C15 1_555 1_555
C18 C12 1_555 1_555
H8 C18 1_555 1_555
C20 C21 1_555 1_555
C21 C22 1_555 1_555
C22 C7 1_555 1_555
C23 C21 1_555 1_555
C24 C6 1_555 1_555
H10 C24 1_555 1_555
H11 C23 1_555 1_555
H12 C22 1_555 1_555
Sc5 O15 1_555 1_555
C23 C24 1_555 1_555
Sc9 O10 1_555 1_555
O6 C10 1_555 1_555
O10 C10 1_555 1_555
C10 C13 1_555 1_555
C13 C16 1_555 1_555
C19 C13 1_555 1_555
H7 C17 1_555 1_555
H9 C19 1_555 1_555
H2 C4 1_555 1_555
Sc2 O4 1_555 1_555
O4 C8 1_555 1_555
O7 Sc2 1_555 1_555
O8 C8 1_555 1_555
O13 Sc2 1_555 1_555
O14 Sc2 1_555 1_555
O19 Sc2 1_555 1_555
O20 Sc2 1_555 1_555
C8 C11 1_555 1_555
C11 C14 1_555 1_555
H4 C14 1_555 1_555
C7_2 C6_2 1_555 1_555
H3_2 C7_2 1_555 1_555
Sc6_2 O16_2 1_555 1_555
Sc7_2 O17_2 1_555 1_555
O16_2 C20_2 1_555 1_555
O17_2 C20_2 1_555 1_555
H7_2 C17_2 1_555 1_555
C20_2 C21_2 1_555 1_555
C21_2 C22_2 1_555 1_555
C22_2 C7_2 1_555 1_555
C23_2 C21_2 1_555 1_555
C24_2 C6_2 1_555 1_555
H10_2 C24_2 1_555 1_555
H11_2 C23_2 1_555 1_555
H12_2 C22_2 1_555 1_555
C23_2 C24_2 1_555 1_555
Sc1_2 O1_2 1_555 1_555
O1_2 C1_2 1_555 1_555
O2_2 C1_2 1_555 1_555
O3_2 Sc1_2 1_555 1_555
C1_2 C2_2 1_555 1_555
C2_2 C3_2 1_555 1_555
C3_2 H1_2 1_555 1_555
C5_2 O3_2 1_555 1_555
Sc5_2 O9_2 1_555 1_555
Sc9_2 O10_2 1_555 1_555
O5_2 Sc1_2 1_555 1_555
O6_2 C10_2 1_555 1_555
O9_2 C9_2 1_555 1_555
O10_2 C10_2 1_555 1_555
O11_2 Sc1_2 1_555 1_555
O12_2 Sc1_2 1_555 1_555
O15_2 C5_2 1_555 1_555
O18_2 Sc1_2 1_555 1_555
C9_2 O5_2 1_555 1_555
C10_2 C13_2 1_555 1_555
C12_2 C9_2 1_555 1_555
C13_2 C16_2 1_555 1_555
C15_2 C12_2 1_555 1_555
H5_2 C15_2 1_555 1_555
C18_2 C12_2 1_555 1_555
C19_2 C13_2 1_555 1_555
H8_2 C18_2 1_555 1_555
H9_2 C19_2 1_555 1_555
Sc5_2 O15_2 1_555 1_555
C15_2 C19_2 1_555 1_555
C16_2 C18_2 1_555 1_555
Sc2_2 O4_2 1_555 1_555
O4_2 C8_2 1_555 1_555
O7_2 Sc2_2 1_555 1_555
O8_2 C8_2 1_555 1_555
O13_2 Sc2_2 1_555 1_555
O14_2 Sc2_2 1_555 1_555
O19_2 Sc2_2 1_555 1_555
O20_2 Sc2_2 1_555 1_555
C8_2 C11_2 1_555 1_555
C11_2 C14_2 1_555 1_555
H4_2 C14_2 1_555 1_555
H2_2 C4_2 1_555 1_555
O6_3 C10_3 1_555 1_555
O14_2 C10_3 1_555 1_555
C10_3 C13_3 1_555 1_555
C13_3 C16_3 1_555 1_555
C19_3 C13_3 1_555 1_555
H9_3 C19_3 1_555 1_555
Sc6 O1_3 1_555 1_555
O1_3 C1_3 1_555 1_555
O2_3 C1_3 1_555 1_555
C1_3 C2_3 1_555 1_555
C2_3 C3_3 1_555 1_555
C3_3 H1_3 1_555 1_555
Sc7 O9_3 1_555 1_555
O5_3 Sc6 1_555 1_555
O9_3 C9_3 1_555 1_555
O11_3 Sc6 1_555 1_555
O12_3 Sc6 1_555 1_555
O18_3 Sc6 1_555 1_555
C9_3 O5_3 1_555 1_555
C12_3 C9_3 1_555 1_555
C15_3 C12_3 1_555 1_555
H5_3 C15_3 1_555 1_555
C17_3 C3_3 1_555 1_555
C18_3 C12_3 1_555 1_555
H7_3 C17_3 1_555 1_555
H8_3 C18_3 1_555 1_555
H2_3 C4_3 1_555 1_555
Sc9_2 O4_3 1_555 1_555
O4_3 C8_3 1_555 1_555
O7_3 Sc9_2 1_555 1_555
O8_3 C8_3 1_555 1_555
O13_3 Sc9_2 1_555 1_555
O19_3 Sc9_2 1_555 1_555
O20_3 Sc9_2 1_555 1_555
C8_3 C11_3 1_555 1_555
C11_3 C14_3 1_555 1_555
C14_3 C4_3 1_555 1_555
H4_3 C14_3 1_555 1_555
C5_3 O3_3 1_555 1_555
C6_3 C5_3 1_555 1_555
Sc6_2 O9_4 1_555 1_555
Sc4_2 O10_3 1_555 1_555
O7_2 C10_4 1_555 1_555
O9_4 C9_4 1_555 1_555
O10_3 C10_4 1_555 1_555
O15_3 C5_3 1_555 1_555
O16_3 C20_3 1_555 1_555
O18_2 C20_3 1_555 1_555
C9_4 O5_4 1_555 1_555
C10_4 C13_4 1_555 1_555
C12_4 C9_4 1_555 1_555
C13_4 C16_4 1_555 1_555
C15_4 C12_4 1_555 1_555
C16_4 H6_4 1_555 1_555
C18_4 C12_4 1_555 1_555
C19_4 C13_4 1_555 1_555
H8_4 C18_4 1_555 1_555
H9_4 C19_4 1_555 1_555
C20_3 C21_3 1_555 1_555
C23_3 C21_3 1_555 1_555
C24_3 C6_3 1_555 1_555
H10_3 C24_3 1_555 1_555
H11_3 C23_3 1_555 1_555
Sc6_2 O15_3 1_555 1_555
C15_4 C19_4 1_555 1_555
C16_4 C18_4 1_555 1_555
C23_3 C24_3 1_555 1_555
Sc7_2 O1_4 1_555 1_555
O1_4 C1_4 1_555 1_555
O2_4 C1_4 1_555 1_555
C1_4 C2_4 1_555 1_555
C2_4 C3_4 1_555 1_555
C3_4 H1_4 1_555 1_555
C4_4 C2_4 1_555 1_555
H2_4 C4_4 1_555 1_555
H3_3 C7_3 1_555 1_555
Sc8_2 O4_4 1_555 1_555
Sc6_2 O2_4 1_555 1_555
O4_4 C8_4 1_555 1_555
O13_3 C8_4 1_555 1_555
O11_4 Sc7_2 1_555 1_555
O14_3 Sc8_2 1_555 1_555
O19_4 Sc8_2 1_555 1_555
C8_4 C11_4 1_555 1_555
C11_4 C14_4 1_555 1_555
C14_4 C4_4 1_555 1_555
H4_4 C14_4 1_555 1_555
C17_4 C3_4 1_555 1_555
H7_4 C17_4 1_555 1_555
C22_3 C7_3 1_555 1_555
H12_3 C22_3 1_555 1_555
C11_4 C17_4 1_555 1_555
O1_5 C1_5 1_555 1_555
O11 C1_5 1_555 1_555
C1_5 C2_5 1_555 1_555
C2_5 C3_5 1_555 1_555
C4_5 C2_5 1_555 1_555
H2_5 C4_5 1_555 1_555
O7_3 C8_5 1_555 1_555
O14_3 C8_5 1_555 1_555
C8_5 C11_5 1_555 1_555
C11_5 C14_5 1_555 1_555
C14_5 C4_5 1_555 1_555
H4_5 C14_5 1_555 1_555
C17_5 C3_5 1_555 1_555
H7_5 C17_5 1_555 1_555
C11_5 C17_5 1_555 1_555
Sc4_2 O6_4 1_555 1_555
O5_5 Sc5 1_555 1_555
O6_4 C10_5 1_555 1_555
O12 C9_5 1_555 1_555
O13_2 C10_5 1_555 1_555
C9_5 O5_5 1_555 1_555
C10_5 C13_5 1_555 1_555
C12_5 C9_5 1_555 1_555
C13_5 C16_5 1_555 1_555
C15_5 C12_5 1_555 1_555
C16_5 H6_5 1_555 1_555
H5_5 C15_5 1_555 1_555
C18_5 C12_5 1_555 1_555
C19_5 C13_5 1_555 1_555
H8_5 C18_5 1_555 1_555
H9_5 C19_5 1_555 1_555
C15_5 C19_5 1_555 1_555
C16_5 C18_5 1_555 1_555
O18_4 C20_4 1_555 1_555
O18 C20_4 1_555 1_555
C20_4 C21_4 1_555 1_555
C23_4 C21_4 1_555 1_555
C24_4 C6_4 1_555 1_555
H10_4 C24_4 1_555 1_555
H11_4 C23_4 1_555 1_555
C23_4 C24_4 1_555 1_555
C5_4 O3_4 1_555 1_555
O11_3 C9_6 1_555 1_555
O18_3 C5_4 1_555 1_555
C9_6 O5_6 1_555 1_555
C12_6 C9_6 1_555 1_555
C15_6 C12_6 1_555 1_555
C18_6 C12_6 1_555 1_555
H8_6 C18_6 1_555 1_555
Sc4 O10_4 1_555 1_555
O7 C10_6 1_555 1_555
O10_4 C10_6 1_555 1_555
C10_6 C13_6 1_555 1_555
C13_6 C16_6 1_555 1_555
C16_6 H6_6 1_555 1_555
C19_6 C13_6 1_555 1_555
H9_6 C19_6 1_555 1_555
H3_4 C7_4 1_555 1_555
C22_4 C7_4 1_555 1_555
H12_4 C22_4 1_555 1_555
Sc8 O4_5 1_555 1_555
Sc9 O8_4 1_555 1_555
O4_5 C8_6 1_555 1_555
O8_4 C8_6 1_555 1_555
O14_4 Sc8 1_555 1_555
O19_5 Sc8 1_555 1_555
C8_6 C11_6 1_555 1_555
C11_6 C14_6 1_555 1_555
H4_6 C14_6 1_555 1_555
H7_6 C17_6 1_555 1_555
C11_6 C17_6 1_555 1_555
Sc7 O1_6 1_555 1_555
O1_6 C1_6 1_555 1_555
O12_3 C1_6 1_555 1_555
C1_6 C2_6 1_555 1_555
C2_6 C3_6 1_555 1_555
C3_6 H1_6 1_555 1_555
C4_6 C2_6 1_555 1_555
H2_6 C4_6 1_555 1_555
O7_4 Sc4 1_555 1_555
O20_6 Sc4 1_555 1_555
Sc6_2 O1_7 1_555 1_555
O1_7 C1_7 1_555 1_555
O11_4 C1_7 1_555 1_555
C1_7 C2_7 1_555 1_555
C2_7 C3_7 1_555 1_555
C3_7 H1_7 1_555 1_555
C4_7 C2_7 1_555 1_555
H2_7 C4_7 1_555 1_555
O4_6 C8_7 1_555 1_555
O5_7 Sc6_2 1_555 1_555
O14 C8_7 1_555 1_555
O12_4 C9_7 1_555 1_555
C8_7 C11_7 1_555 1_555
C9_7 O5_7 1_555 1_555
C11_7 C14_7 1_555 1_555
C12_7 C9_7 1_555 1_555
C14_7 C4_7 1_555 1_555
C15_7 C12_7 1_555 1_555
H5_7 C15_7 1_555 1_555
C17_7 C3_7 1_555 1_555
H7_7 C17_7 1_555 1_555
H9_7 C19_7 1_555 1_555
C11_7 C17_7 1_555 1_555
C15_7 C19_7 1_555 1_555
Sc9 O6_5 1_555 1_555
O6_5 C10_7 1_555 1_555
O13_4 C10_7 1_555 1_555
C10_7 C13_7 1_555 1_555
C13_7 C16_7 1_555 1_555
C16_7 H6_7 1_555 1_555
H8_7 C18_7 1_555 1_555
C16_7 C18_7 1_555 1_555
O7_5 Sc9 1_555 1_555
O19_7 Sc9 1_555 1_555
O20_7 Sc9 1_555 1_555
O20_8 Sc4_2 1_555 1_555
O7_5 C8_8 1_555 1_555
O14_4 C8_8 1_555 1_555
C8_8 C11_8 1_555 1_555
C11_8 C14_8 1_555 1_555
H4_8 C14_8 1_555 1_555
H7_8 C17_8 1_555 1_555
C11_8 C17_8 1_555 1_555
O1_8 C1_8 1_555 1_555
O11_2 C1_8 1_555 1_555
C1_8 C2_8 1_555 1_555
C2_8 C3_8 1_555 1_555
C4_8 C2_8 1_555 1_555
H2_8 C4_8 1_555 1_555
O5_8 Sc5_2 1_555 1_555
O7_4 C10_8 1_555 1_555
O12_2 C9_8 1_555 1_555
O13 C10_8 1_555 1_555
C9_8 O5_8 1_555 1_555
C10_8 C13_8 1_555 1_555
C12_8 C9_8 1_555 1_555
C13_8 C16_8 1_555 1_555
C15_8 C12_8 1_555 1_555
C16_8 H6_8 1_555 1_555
H5_8 C15_8 1_555 1_555
C18_8 C12_8 1_555 1_555
C19_8 C13_8 1_555 1_555
H8_8 C18_8 1_555 1_555
H9_8 C19_8 1_555 1_555
C15_8 C19_8 1_555 1_555
C16_8 C18_8 1_555 1_555
C5_5 O20 1_555 1_555
C6_5 C5_5 1_555 1_555
C7_5 C6_5 1_555 1_555
H3_5 C7_5 1_555 1_555
O20_6 C5_5 1_555 1_555
O20_7 C20_5 1_555 1_555
O19_5 C20_5 1_555 1_555
C20_5 C21_5 1_555 1_555
C21_5 C22_5 1_555 1_555
C22_5 C7_5 1_555 1_555
C23_5 C21_5 1_555 1_555
C24_5 C6_5 1_555 1_555
H10_5 C24_5 1_555 1_555
H11_5 C23_5 1_555 1_555
H12_5 C22_5 1_555 1_555
C23_5 C24_5 1_555 1_555
C5_6 O20_2 1_555 1_555
O20_8 C5_6 1_555 1_555
C7_6 C6_6 1_555 1_555
H3_6 C7_6 1_555 1_555
O20_3 C20_6 1_555 1_555
O19_4 C20_6 1_555 1_555
C20_6 C21_6 1_555 1_555
C21_6 C22_6 1_555 1_555
C22_6 C7_6 1_555 1_555
C23_6 C21_6 1_555 1_555
C24_6 C6_6 1_555 1_555
H10_6 C24_6 1_555 1_555
H11_6 C23_6 1_555 1_555
H12_6 C22_6 1_555 1_555
C23_6 C24_6 1_555 1_555
H3_7 C7_7 1_555 1_555
C22_7 C7_7 1_555 1_555
H12_7 C22_7 1_555 1_555
C5_7 O20_4 1_555 1_555
C6_7 C5_7 1_555 1_555
O19_3 C5_7 1_555 1_555
O19_8 C20_7 1_555 1_555
O19_2 C20_7 1_555 1_555
C20_7 C21_7 1_555 1_555
C23_7 C21_7 1_555 1_555
C24_7 C6_7 1_555 1_555
H10_7 C24_7 1_555 1_555
H11_7 C23_7 1_555 1_555
C23_7 C24_7 1_555 1_555
H3_8 C7_8 1_555 1_555
C22_8 C7_8 1_555 1_555
H12_8 C22_8 1_555 1_555
C5_8 O20_5 1_555 1_555
O19_7 C5_8 1_555 1_555
O19_6 C20_8 1_555 1_555
O19 C20_8 1_555 1_555
C20_8 C21_8 1_555 1_555
C23_8 C21_8 1_555 1_555
C24_8 C6_8 1_555 1_555
H10_8 C24_8 1_555 1_555
H11_8 C23_8 1_555 1_555
C23_8 C24_8 1_555 1_555

#END
