
###############################################################################
#
# This file contains modified crystal structure data generated from the
# MOF subset of the Cambridge Structural Database (CSD) v543 
# hosted by the Cambridge Crystallographic Data Centre (CCDC).
#
# This work is licensed under the Creative Commons
# Attribution-NonCommercial-ShareAlike 4.0 International License.
# To view a copy of this license, visit
# http://creativecommons.org/licenses/by-nc-sa/4.0/
# or send a letter to
# Creative Commons, PO Box 1866, Mountain View, CA 94042, USA.
#
# CIF created using the CSD Python API on 29 September 2022
# The structure has been converted into the P1 space group
# The structure has a 3D framework
# The original CSD entry GATHIW is in the monoclinic crystal system
# The framework has been calculated to contain at least 10.0% void space
# The void calculation uses a probe of radius 1.32A, grid spacing 0.4
# H atom positions have been added when not included in the experimental data
# Generated hydrogen atom positions removed from atoms on special positions
#
###############################################################################

data_GATHIW
_chemical_formula_moiety         '(C174 H158 Eu14 N8 O92)n'
_symmetry_cell_setting           triclinic
_symmetry_space_group_name_H-M   'P 1'
_symmetry_Int_Tables_number      1
_space_group_name_Hall           'P 1'
loop_
_symmetry_equiv_pos_site_id
_symmetry_equiv_pos_as_xyz
1 x,y,z
_cell_length_a                   13.4707(3)
_cell_length_b                   30.5985(7)
_cell_length_c                   17.7289(4)
_cell_angle_alpha                90
_cell_angle_beta                 107.336(3)
_cell_angle_gamma                90
_cell_volume                     6975.6
loop_
_atom_site_label
_atom_site_type_symbol
_atom_site_fract_x
_atom_site_fract_y
_atom_site_fract_z
Eu1 Eu 0.5000 0.57416(2) 0.7500
Eu2 Eu 0.19643(2) 0.62471(2) 0.67097(2)
O1 O 0.5247(3) 0.62995(10) 0.65354(19)
O2 O 0.3762(3) 0.64106(10) 0.67769(18)
O3 O 0.4040(3) 0.55068(10) 0.62000(17)
O4 O 0.2364(3) 0.57109(11) 0.5842(2)
O5 O 0.35299(11) 0.83750(3) 0.46006(5)
O6 O 0.3258(2) 0.79339(3) 0.35822(5)
O7 O 0.05751(7) 0.65568(3) 0.71712(6)
O8 O 0.03231(7) 0.59037(3) 0.59350(7)
O9 O 0.27666(7) 0.65568(3) 0.80611(5)
O10 O 0.50002(7) 0.49431(3) 0.75000(5)
O11 O 0.16536(7) 0.43077(3) 0.26176(8)
O12 O 0.32877(7) 0.43600(3) 0.26592(5)
N1 N 0.40577(7) 0.60882(3) 0.47800(5)
C1 C 0.00002(7) 0.63853(3) 0.75000(7)
H1 H -0.0000 0.6075 0.7500
C2 C 0.36304(7) 0.53356(3) 0.44632(5)
C3 C 0.35130(7) 0.50535(3) 0.38277(5)
H2 H 0.3975 0.5074 0.3516
C4 C 0.27317(7) 0.47439(3) 0.36454(6)
C5 C 0.20430(7) 0.47134(3) 0.41032(6)
H3 H 0.1479 0.4513 0.3961
C6 C 0.21927(7) 0.49760(3) 0.47593(6)
H4 H 0.1750 0.4945 0.5085
C7 C 0.29719(7) 0.52822(3) 0.49489(5)
C8 C 0.43780(7) 0.57039(3) 0.45688(5)
C9 C 0.53245(7) 0.56520(3) 0.44328(7)
H5 H 0.5539 0.5373 0.4306
C10 C 0.59693(8) 0.60189(3) 0.44841(9)
H6 H 0.6616 0.5996 0.4375
C11 C 0.56378(7) 0.64075(3) 0.46956(8)
H7 H 0.6058 0.6661 0.4736
C12 C 0.46876(7) 0.64365(3) 0.48530(6)
C13 C 0.43185(7) 0.68569(3) 0.51037(5)
C14 C 0.40954(7) 0.72215(3) 0.46081(6)
H8 H 0.4153 0.7201 0.4088
C15 C 0.37924(7) 0.76104(3) 0.48651(5)
C16 C 0.37419(7) 0.76441(3) 0.56399(5)
H9 H 0.3591 0.7918 0.5832
C17 C 0.39054(7) 0.72904(3) 0.61193(5)
H10 H 0.3823 0.7313 0.6632
C18 C 0.41972(7) 0.68890(3) 0.58624(5)
C19 C 0.44150(7) 0.65085(3) 0.64180(5)
C20 C 0.3517(4) 0.79941(9) 0.4320(3)
C21 C 0.3145(4) 0.55283(10) 0.57247(17)
C22 C 0.2551(4) 0.44579(10) 0.2930(2)
Eu6 Eu 0.5000 0.42584(2) 0.2500
Eu8 Eu 0.19643(2) 0.37529(2) 0.17097(2)
Eu9 Eu 0.30357(2) 0.87529(2) 0.32903(2)
O24 O 0.4753(3) 0.62995(10) 0.84646(19)
O25 O 0.6238(3) 0.64106(10) 0.82231(18)
O26 O 0.5960(3) 0.55068(10) 0.88000(17)
O27 O 0.14701(11) 0.66250(3) 0.53994(5)
O29 O 0.1742(2) 0.70661(3) 0.64178(5)
O32 O 0.16536(7) 0.56923(3) 0.76176(8)
O34 O 0.67123(7) 0.56400(3) 0.73408(5)
O35 O 0.32877(7) 0.56400(3) 0.76592(5)
H24 H 0.044196 0.558801 0.586487
H28 H 0.0163019 0.613249 0.935802
O18 O 0.64701(11) 0.83750(3) 0.03994(5)
O19 O 0.6742(2) 0.79339(3) 0.14178(5)
O22 O 0.83464(7) 0.43077(3) 0.23824(8)
O23 O 0.67123(7) 0.43600(3) 0.23408(5)
N2 N 0.59423(7) 0.60882(3) 0.02200(5)
C23 C 0.63696(7) 0.53356(3) 0.05368(5)
C24 C 0.64870(7) 0.50535(3) 0.11723(5)
H11 H 0.6025 0.5074 0.1484
C25 C 0.72683(7) 0.47439(3) 0.13546(6)
C26 C 0.79570(7) 0.47134(3) 0.08968(6)
H12 H 0.8521 0.4513 0.1039
C27 C 0.78073(7) 0.49760(3) 0.02407(6)
C28 C 0.70281(7) 0.52822(3) 0.00511(5)
C29 C 0.56220(7) 0.57039(3) 0.04312(5)
C30 C 0.46755(7) 0.56520(3) 0.05672(7)
H14 H 0.4461 0.5373 0.0694
C31 C 0.40307(8) 0.60189(3) 0.05159(9)
H15 H 0.3384 0.5996 0.0625
C32 C 0.43622(7) 0.64075(3) 0.03044(8)
H16 H 0.3942 0.6661 0.0264
C33 C 0.53124(7) 0.64365(3) 0.01470(6)
C35 C 0.59046(7) 0.72215(3) 0.03919(6)
H17 H 0.5847 0.7201 0.0912
C36 C 0.62076(7) 0.76104(3) 0.01349(5)
C41 C 0.6483(4) 0.79941(9) 0.0680(3)
C43 C 0.7449(4) 0.44579(10) 0.2070(2)
Eu7 Eu 0.80357(2) 0.37529(2) 0.32903(2)
Eu10 Eu 0.69643(2) 0.87529(2) 0.17097(2)
C1_2 C 1.00002(7) 0.63853(3) 0.75000(7)
H1_2 H 1.0000 0.6075 0.7500
O13 O 0.94249(7) 0.65568(3) 0.78288(6)
Eu3 Eu 0.80357(2) 0.62471(2) 0.82903(2)
O17 O 0.7636(3) 0.57109(11) 0.9158(2)
O20 O 0.96769(7) 0.59037(3) 0.90650(7)
O21 O 0.72334(7) 0.65568(3) 0.69389(5)
H13 H 0.8250 0.4945 0.9915
C34 C 0.56815(7) 0.68569(3) 0.98963(5)
C37 C 0.62581(7) 0.76441(3) 0.93601(5)
H18 H 0.6409 0.7918 0.9168
C38 C 0.60946(7) 0.72904(3) 0.88807(5)
H19 H 0.6177 0.7313 0.8368
C39 C 0.58028(7) 0.68890(3) 0.91376(5)
C40 C 0.55850(7) 0.65085(3) 0.85820(5)
C42 C 0.6855(4) 0.55283(10) 0.92753(17)
O28 O 0.85299(11) 0.66250(3) 0.96006(5)
O30 O 0.8258(2) 0.70661(3) 0.85822(5)
O31 O 0.83464(7) 0.56923(3) 0.73824(8)
H25 H 0.979357 0.593807 0.621846
H29 H 0.953465 0.569277 0.944576
H25_2 H 0.0206426 0.593807 0.878154
H29_2 H 0.046535 0.569277 0.555424
H24_2 H 0.955804 0.558801 0.913513
H28_2 H 0.983698 0.613249 0.564198
Eu1_2 Eu -0.0000 0.07416(2) 0.7500
O1_2 O 0.0247(3) 0.12995(10) 0.65354(19)
C9_2 C 0.03245(7) 0.06520(3) 0.44328(7)
H5_2 H 0.0539 0.0373 0.4306
C10_2 C 0.09693(8) 0.10189(3) 0.44841(9)
H6_2 H 0.1616 0.0996 0.4375
C11_2 C 0.06378(7) 0.14075(3) 0.46956(8)
H7_2 H 0.1058 0.1661 0.4736
O25_2 O 0.1238(3) 0.14106(10) 0.82231(18)
O26_2 O 0.0960(3) 0.05068(10) 0.88000(17)
O34_2 O 0.17123(7) 0.06400(3) 0.73408(5)
O10_2 O 0.00002(7) 0.99431(3) 0.75000(5)
Eu6_2 Eu -0.0000 0.92584(2) 0.2500
H22 H 0.0684223 0.983496 0.747392
O18_2 O 0.14701(11) 0.33750(3) 0.03994(5)
O19_2 O 0.1742(2) 0.29339(3) 0.14178(5)
N2_2 N 0.09423(7) 0.10882(3) 0.02200(5)
C23_2 C 0.13696(7) 0.03356(3) 0.05368(5)
C24_2 C 0.14870(7) 0.00535(3) 0.11723(5)
H11_2 H 0.1025 0.0074 0.1484
C28_2 C 0.20281(7) 0.02822(3) 0.00511(5)
C29_2 C 0.06220(7) 0.07039(3) 0.04312(5)
C33_2 C 0.03124(7) 0.14365(3) 0.01470(6)
C35_2 C 0.09046(7) 0.22215(3) 0.03919(6)
H17_2 H 0.0847 0.2201 0.0912
C36_2 C 0.12076(7) 0.26104(3) 0.01349(5)
C41_2 C 0.1483(4) 0.29941(9) 0.0680(3)
Eu1_3 Eu 1.0000 0.07416(2) 0.7500
Eu2_2 Eu 0.69643(2) 0.12471(2) 0.67097(2)
O2_2 O 0.8762(3) 0.14106(10) 0.67769(18)
O3_2 O 0.9040(3) 0.05068(10) 0.62000(17)
O4_2 O 0.7364(3) 0.07109(11) 0.5842(2)
O5_2 O 0.85299(11) 0.33750(3) 0.46006(5)
O6_2 O 0.8258(2) 0.29339(3) 0.35822(5)
O7_2 O 0.55751(7) 0.15568(3) 0.71712(6)
O8_2 O 0.53231(7) 0.09037(3) 0.59350(7)
O9_2 O 0.77666(7) 0.15568(3) 0.80611(5)
N1_2 N 0.90577(7) 0.10882(3) 0.47800(5)
C1_3 C 0.50002(7) 0.13853(3) 0.75000(7)
H1_3 H 0.5000 0.1075 0.7500
C2_2 C 0.86304(7) 0.03356(3) 0.44632(5)
C3_2 C 0.85130(7) 0.00535(3) 0.38277(5)
H2_2 H 0.8975 0.0074 0.3516
C7_2 C 0.79719(7) 0.02822(3) 0.49489(5)
C8_2 C 0.93780(7) 0.07039(3) 0.45688(5)
C12_2 C 0.96876(7) 0.14365(3) 0.48530(6)
C13_2 C 0.93185(7) 0.18569(3) 0.51037(5)
C14_2 C 0.90954(7) 0.22215(3) 0.46081(6)
H8_2 H 0.9153 0.2201 0.4088
C15_2 C 0.87924(7) 0.26104(3) 0.48651(5)
C16_2 C 0.87419(7) 0.26441(3) 0.56399(5)
H9_2 H 0.8591 0.2918 0.5832
C17_2 C 0.89054(7) 0.22904(3) 0.61193(5)
H10_2 H 0.8823 0.2313 0.6632
C18_2 C 0.91972(7) 0.18890(3) 0.58624(5)
C19_2 C 0.94150(7) 0.15085(3) 0.64180(5)
C20_2 C 0.8517(4) 0.29941(9) 0.4320(3)
C21_2 C 0.8145(4) 0.05283(10) 0.57247(17)
O13_2 O 0.44249(7) 0.15568(3) 0.78288(6)
Eu3_2 Eu 0.30357(2) 0.12471(2) 0.82903(2)
O17_2 O 0.2636(3) 0.07109(11) 0.9158(2)
O20_2 O 0.46769(7) 0.09037(3) 0.90650(7)
O21_2 O 0.22334(7) 0.15568(3) 0.69389(5)
C34_2 C 0.06815(7) 0.18569(3) 0.98963(5)
C37_2 C 0.12581(7) 0.26441(3) 0.93601(5)
H18_2 H 0.1409 0.2918 0.9168
C38_2 C 0.10946(7) 0.22904(3) 0.88807(5)
H19_2 H 0.1177 0.2313 0.8368
C39_2 C 0.08028(7) 0.18890(3) 0.91376(5)
C40_2 C 0.05850(7) 0.15085(3) 0.85820(5)
C42_2 C 0.1855(4) 0.05283(10) 0.92753(17)
O24_2 O 0.9753(3) 0.12995(10) 0.84646(19)
O27_2 O 0.64701(11) 0.16250(3) 0.53994(5)
O28_2 O 0.35299(11) 0.16250(3) 0.96006(5)
O29_2 O 0.6742(2) 0.20661(3) 0.64178(5)
O30_2 O 0.3258(2) 0.20661(3) 0.85822(5)
O31_2 O 0.33464(7) 0.06923(3) 0.73824(8)
O32_2 O 0.66536(7) 0.06923(3) 0.76176(8)
O35_2 O 0.82877(7) 0.06400(3) 0.76592(5)
O22_2 O 0.33464(7) 0.93077(3) 0.23824(8)
O23_2 O 0.17123(7) 0.93600(3) 0.23408(5)
C25_2 C 0.22683(7) 0.97439(3) 0.13546(6)
C26_2 C 0.29570(7) 0.97134(3) 0.08968(6)
H12_2 H 0.3521 0.9513 0.1039
C27_2 C 0.28073(7) 0.99760(3) 0.02407(6)
C43_2 C 0.2449(4) 0.94579(10) 0.2070(2)
O10_3 O 1.00002(7) 0.99431(3) 0.75000(5)
O11_2 O 0.66536(7) 0.93077(3) 0.26176(8)
O12_2 O 0.82877(7) 0.93600(3) 0.26592(5)
C4_2 C 0.77317(7) 0.97439(3) 0.36454(6)
C5_2 C 0.70430(7) 0.97134(3) 0.41032(6)
H3_2 H 0.6479 0.9513 0.3961
C6_2 C 0.71927(7) 0.99760(3) 0.47593(6)
H4_2 H 0.6750 0.9945 0.5085
C22_2 C 0.7551(4) 0.94579(10) 0.2930(2)
H13_2 H 0.3250 0.9945 0.9915
Eu6_3 Eu 1.0000 0.92584(2) 0.2500
H23 H 0.987428 0.983491 0.799159
H23_2 H 0.0125723 0.983491 0.700841
H22_2 H 0.931578 0.983496 0.752608
C1_4 C -0.00002(7) 0.36147(3) 0.25000(7)
H1_4 H 0.0000 0.3925 0.2500
O13_3 O 0.05751(7) 0.34432(3) 0.21712(6)
O14 O 0.5247(3) 0.37005(10) 0.15354(19)
O15 O 0.3762(3) 0.35894(10) 0.17769(18)
O16 O 0.4040(3) 0.44932(10) 0.12000(17)
O17_3 O 0.2364(3) 0.42891(11) 0.0842(2)
O20_3 O 0.03231(7) 0.40963(3) 0.09350(7)
O21_3 O 0.27666(7) 0.34432(3) 0.30611(5)
H13_3 H 0.1750 0.5055 0.0085
C34_3 C 0.43185(7) 0.31431(3) 0.01037(5)
C37_3 C 0.37419(7) 0.23559(3) 0.06399(5)
H18_3 H 0.3591 0.2082 0.0832
C38_3 C 0.39054(7) 0.27096(3) 0.11193(5)
H19_3 H 0.3823 0.2687 0.1632
C39_3 C 0.41972(7) 0.31110(3) 0.08624(5)
C40_3 C 0.44150(7) 0.34915(3) 0.14180(5)
C42_3 C 0.3145(4) 0.44717(10) 0.07247(17)
H25_3 H 0.0206426 0.406193 0.378154
H29_3 H 0.046535 0.430723 0.0554237
N2_3 N 0.40577(7) 0.39118(3) 0.97800(5)
C23_3 C 0.36304(7) 0.46644(3) 0.94632(5)
C24_3 C 0.35130(7) 0.49465(3) 0.88277(5)
H11_3 H 0.3975 0.4926 0.8516
C25_3 C 0.27317(7) 0.52561(3) 0.86454(6)
C26_3 C 0.20430(7) 0.52866(3) 0.91032(6)
H12_3 H 0.1479 0.5487 0.8961
C27_3 C 0.21927(7) 0.50240(3) 0.97593(6)
C28_3 C 0.29719(7) 0.47178(3) 0.99489(5)
C29_3 C 0.43780(7) 0.42961(3) 0.95688(5)
C30_2 C 0.53245(7) 0.43480(3) 0.94328(7)
H14_2 H 0.5539 0.4627 0.9306
C31_2 C 0.59693(8) 0.39811(3) 0.94841(9)
H15_2 H 0.6616 0.4004 0.9375
C32_2 C 0.56378(7) 0.35925(3) 0.96956(8)
H16_2 H 0.6058 0.3339 0.9736
C33_3 C 0.46876(7) 0.35635(3) 0.98530(6)
C35_3 C 0.40954(7) 0.27785(3) 0.96081(6)
H17_3 H 0.4153 0.2799 0.9088
C36_3 C 0.37924(7) 0.23896(3) 0.98651(5)
C41_3 C 0.3517(4) 0.20059(9) 0.9320(3)
C43_3 C 0.2551(4) 0.55421(10) 0.7930(2)
O1_3 O 0.4753(3) 0.37005(10) 0.34646(19)
O2_3 O 0.6238(3) 0.35894(10) 0.32231(18)
O3_3 O 0.5960(3) 0.44932(10) 0.38000(17)
O4_3 O 0.7636(3) 0.42891(11) 0.4158(2)
O7_3 O 0.94249(7) 0.34432(3) 0.28288(6)
O8_3 O 0.96769(7) 0.40963(3) 0.40650(7)
O9_3 O 0.72334(7) 0.34432(3) 0.19389(5)
O10_4 O 0.49998(7) 0.50569(3) 0.25000(5)
N1_3 N 0.59423(7) 0.39118(3) 0.52200(5)
C1_5 C 0.99998(7) 0.36147(3) 0.25000(7)
H1_5 H 1.0000 0.3925 0.2500
C2_3 C 0.63696(7) 0.46644(3) 0.55368(5)
C3_3 C 0.64870(7) 0.49465(3) 0.61723(5)
H2_3 H 0.6025 0.4926 0.6484
C4_3 C 0.72683(7) 0.52561(3) 0.63546(6)
C5_3 C 0.79570(7) 0.52866(3) 0.58968(6)
H3_3 H 0.8521 0.5487 0.6039
C6_3 C 0.78073(7) 0.50240(3) 0.52407(6)
H4_3 H 0.8250 0.5055 0.4915
C7_3 C 0.70281(7) 0.47178(3) 0.50511(5)
C8_3 C 0.56220(7) 0.42961(3) 0.54312(5)
C9_3 C 0.46755(7) 0.43480(3) 0.55672(7)
H5_3 H 0.4461 0.4627 0.5694
C10_3 C 0.40307(8) 0.39811(3) 0.55159(9)
H6_3 H 0.3384 0.4004 0.5625
C11_3 C 0.43622(7) 0.35925(3) 0.53044(8)
H7_3 H 0.3942 0.3339 0.5264
C12_3 C 0.53124(7) 0.35635(3) 0.51470(6)
C13_3 C 0.56815(7) 0.31431(3) 0.48963(5)
C14_3 C 0.59046(7) 0.27785(3) 0.53919(6)
H8_3 H 0.5847 0.2799 0.5912
C15_3 C 0.62076(7) 0.23896(3) 0.51349(5)
C16_3 C 0.62581(7) 0.23559(3) 0.43601(5)
H9_3 H 0.6409 0.2082 0.4168
C17_3 C 0.60946(7) 0.27096(3) 0.38807(5)
H10_3 H 0.6177 0.2687 0.3368
C18_3 C 0.58028(7) 0.31110(3) 0.41376(5)
C19_3 C 0.55850(7) 0.34915(3) 0.35820(5)
C20_3 C 0.6483(4) 0.20059(9) 0.5680(3)
C21_3 C 0.6855(4) 0.44717(10) 0.42753(17)
C22_3 C 0.7449(4) 0.55421(10) 0.7070(2)
H24_3 H 0.955804 0.441199 0.413513
H28_3 H 0.983698 0.386751 0.064198
H24_4 H 0.044196 0.441199 0.0864867
H28_4 H 0.0163019 0.386751 0.435802
H25_4 H 0.979357 0.406193 0.121846
H29_4 H 0.953465 0.430723 0.444576
O14_2 O 0.0247(3) 0.87005(10) 0.15354(19)
O10_5 O -0.00002(7) 0.00569(3) 0.25000(5)
C4_4 C 0.22683(7) 0.02561(3) 0.63546(6)
C5_4 C 0.29570(7) 0.02866(3) 0.58968(6)
H3_4 H 0.3521 0.0487 0.6039
C6_4 C 0.28073(7) 0.00240(3) 0.52407(6)
H4_4 H 0.3250 0.0055 0.4915
C22_4 C 0.2449(4) 0.05421(10) 0.7070(2)
H13_4 H 0.6750 0.0055 0.0085
H23_3 H 0.0125723 0.0165091 0.200841
C25_4 C 0.77317(7) 0.02561(3) 0.86454(6)
C26_4 C 0.70430(7) 0.02866(3) 0.91032(6)
H12_4 H 0.6479 0.0487 0.8961
C27_4 C 0.71927(7) 0.00240(3) 0.97593(6)
C43_4 C 0.7551(4) 0.05421(10) 0.7930(2)
O2_4 O 0.1238(3) 0.85894(10) 0.32231(18)
O3_4 O 0.0960(3) 0.94932(10) 0.38000(17)
O4_4 O 0.2636(3) 0.92891(11) 0.4158(2)
O7_4 O 0.44249(7) 0.84432(3) 0.28288(6)
O8_4 O 0.46769(7) 0.90963(3) 0.40650(7)
O9_4 O 0.22334(7) 0.84432(3) 0.19389(5)
N1_4 N 0.09423(7) 0.89118(3) 0.52200(5)
C1_6 C 0.49998(7) 0.86147(3) 0.25000(7)
H1_6 H 0.5000 0.8925 0.2500
C2_4 C 0.13696(7) 0.96644(3) 0.55368(5)
C3_4 C 0.14870(7) 0.99465(3) 0.61723(5)
H2_4 H 0.1025 0.9926 0.6484
C7_4 C 0.20281(7) 0.97178(3) 0.50511(5)
C8_4 C 0.06220(7) 0.92961(3) 0.54312(5)
C12_4 C 0.03124(7) 0.85635(3) 0.51470(6)
C13_4 C 0.06815(7) 0.81431(3) 0.48963(5)
C14_4 C 0.09046(7) 0.77785(3) 0.53919(6)
H8_4 H 0.0847 0.7799 0.5912
C15_4 C 0.12076(7) 0.73896(3) 0.51349(5)
C16_4 C 0.12581(7) 0.73559(3) 0.43601(5)
H9_4 H 0.1409 0.7082 0.4168
C17_4 C 0.10946(7) 0.77096(3) 0.38807(5)
H10_4 H 0.1177 0.7687 0.3368
C18_4 C 0.08028(7) 0.81110(3) 0.41376(5)
C19_4 C 0.05850(7) 0.84915(3) 0.35820(5)
C20_4 C 0.1483(4) 0.70059(9) 0.5680(3)
C21_4 C 0.1855(4) 0.94717(10) 0.42753(17)
O13_4 O 0.55751(7) 0.84432(3) 0.21712(6)
O15_2 O 0.8762(3) 0.85894(10) 0.17769(18)
O16_2 O 0.9040(3) 0.94932(10) 0.12000(17)
O17_4 O 0.7364(3) 0.92891(11) 0.0842(2)
O20_4 O 0.53231(7) 0.90963(3) 0.09350(7)
O21_4 O 0.77666(7) 0.84432(3) 0.30611(5)
C34_4 C 0.93185(7) 0.81431(3) 0.01037(5)
C37_4 C 0.87419(7) 0.73559(3) 0.06399(5)
H18_4 H 0.8591 0.7082 0.0832
C38_4 C 0.89054(7) 0.77096(3) 0.11193(5)
H19_4 H 0.8823 0.7687 0.1632
C39_4 C 0.91972(7) 0.81110(3) 0.08624(5)
C40_4 C 0.94150(7) 0.84915(3) 0.14180(5)
C42_4 C 0.8145(4) 0.94717(10) 0.07247(17)
N2_4 N 0.90577(7) 0.89118(3) 0.97800(5)
C23_4 C 0.86304(7) 0.96644(3) 0.94632(5)
C24_4 C 0.85130(7) 0.99465(3) 0.88277(5)
H11_4 H 0.8975 0.9926 0.8516
C28_4 C 0.79719(7) 0.97178(3) 0.99489(5)
C29_4 C 0.93780(7) 0.92961(3) 0.95688(5)
C33_4 C 0.96876(7) 0.85635(3) 0.98530(6)
C35_4 C 0.90954(7) 0.77785(3) 0.96081(6)
H17_4 H 0.9153 0.7799 0.9088
C36_4 C 0.87924(7) 0.73896(3) 0.98651(5)
C41_4 C 0.8517(4) 0.70059(9) 0.9320(3)
O10_6 O 0.99998(7) 0.00569(3) 0.25000(5)
H22_3 H 0.931578 0.0165042 0.252608
O1_4 O 0.9753(3) 0.87005(10) 0.34646(19)
C9_4 C 0.96755(7) 0.93480(3) 0.55672(7)
H5_4 H 0.9461 0.9627 0.5694
C10_4 C 0.90307(8) 0.89811(3) 0.55159(9)
H6_4 H 0.8384 0.9004 0.5625
C11_4 C 0.93622(7) 0.85925(3) 0.53044(8)
H7_4 H 0.8942 0.8339 0.5264
H22_4 H 0.0684223 0.0165042 0.247392
H23_4 H 0.987428 0.0165091 0.299159
C30_3 C 0.96755(7) 0.06520(3) 0.05672(7)
H14_3 H 0.9461 0.0373 0.0694
C31_3 C 0.90307(8) 0.10189(3) 0.05159(9)
H15_3 H 0.8384 0.0996 0.0625
C32_3 C 0.93622(7) 0.14075(3) 0.03044(8)
H16_3 H 0.8942 0.1661 0.0264
C30_4 C 0.03245(7) 0.93480(3) 0.94328(7)
H14_4 H 0.0539 0.9627 0.9306
C31_4 C 0.09693(8) 0.89811(3) 0.94841(9)
H15_4 H 0.1616 0.9004 0.9375
C32_4 C 0.06378(7) 0.85925(3) 0.96956(8)
H16_4 H 0.1058 0.8339 0.9736
loop_
_geom_bond_atom_site_label_1
_geom_bond_atom_site_label_2
_geom_bond_site_symmetry_1
_geom_bond_site_symmetry_2
Eu1 O1 1_555 1_555
Eu2 O2 1_555 1_555
O1 C19 1_555 1_555
O2 Eu1 1_555 1_555
O3 Eu1 1_555 1_555
O4 Eu2 1_555 1_555
O5 C20 1_555 1_555
O6 C20 1_555 1_555
O7 Eu2 1_555 1_555
O8 Eu2 1_555 1_555
O9 Eu2 1_555 1_555
O10 Eu1 1_555 1_555
O11 C22 1_555 1_555
O12 C22 1_555 1_555
N1 C8 1_555 1_555
C1 O7 1_555 1_555
H1 C1 1_555 1_555
C2 C3 1_555 1_555
C3 H2 1_555 1_555
C4 C3 1_555 1_555
C5 C4 1_555 1_555
H3 C5 1_555 1_555
C6 C5 1_555 1_555
H4 C6 1_555 1_555
C7 C2 1_555 1_555
C8 C2 1_555 1_555
C9 C8 1_555 1_555
H5 C9 1_555 1_555
C10 C9 1_555 1_555
H6 C10 1_555 1_555
C11 C10 1_555 1_555
H7 C11 1_555 1_555
C12 N1 1_555 1_555
C13 C12 1_555 1_555
C14 C13 1_555 1_555
H8 C14 1_555 1_555
C15 C14 1_555 1_555
C16 C15 1_555 1_555
H9 C16 1_555 1_555
C17 C16 1_555 1_555
H10 C17 1_555 1_555
C18 C13 1_555 1_555
C19 O2 1_555 1_555
C20 C15 1_555 1_555
C21 O3 1_555 1_555
C22 C4 1_555 1_555
Eu6 O12 1_555 1_555
Eu8 O11 1_555 1_555
Eu9 O5 1_555 1_555
O24 Eu1 1_555 1_555
O25 Eu1 1_555 1_555
O26 Eu1 1_555 1_555
O27 Eu2 1_555 1_555
O29 Eu2 1_555 1_555
O32 Eu2 1_555 1_555
O34 Eu1 1_555 1_555
O35 Eu1 1_555 1_555
Eu2 O35 1_555 1_555
O4 C21 1_555 1_555
O6 Eu9 1_555 1_555
O12 Eu8 1_555 1_555
C6 C7 1_555 1_555
C7 C21 1_555 1_555
C11 C12 1_555 1_555
C17 C18 1_555 1_555
C18 C19 1_555 1_555
O8 H24 1_555 1_555
O18 C41 1_555 1_555
O19 C41 1_555 1_555
O22 C43 1_555 1_555
O23 C43 1_555 1_555
N2 C29 1_555 1_555
C23 C24 1_555 1_555
C24 H11 1_555 1_555
C25 C24 1_555 1_555
C26 C25 1_555 1_555
H12 C26 1_555 1_555
C27 C26 1_555 1_555
C28 C23 1_555 1_555
C29 C23 1_555 1_555
C30 C29 1_555 1_555
H14 C30 1_555 1_555
C31 C30 1_555 1_555
H15 C31 1_555 1_555
C32 C31 1_555 1_555
H16 C32 1_555 1_555
C33 N2 1_555 1_555
H17 C35 1_555 1_555
C36 C35 1_555 1_555
C41 C36 1_555 1_555
C43 C25 1_555 1_555
Eu6 O23 1_555 1_555
Eu7 O22 1_555 1_555
Eu10 O18 1_555 1_555
O19 Eu10 1_555 1_555
O23 Eu7 1_555 1_555
C27 C28 1_555 1_555
C32 C33 1_555 1_555
H1_2 C1_2 1_555 1_555
O13 C1_2 1_555 1_555
Eu3 O13 1_555 1_555
O24 C40 1_555 1_555
O25 Eu3 1_555 1_555
O26 C42 1_555 1_555
O17 Eu3 1_555 1_555
O20 Eu3 1_555 1_555
O21 Eu3 1_555 1_555
H18 C37 1_555 1_555
C38 C37 1_555 1_555
H19 C38 1_555 1_555
C39 C34 1_555 1_555
C40 O25 1_555 1_555
C42 O17 1_555 1_555
O28 Eu3 1_555 1_555
O30 Eu3 1_555 1_555
O31 Eu3 1_555 1_555
O34 Eu3 1_555 1_555
C38 C39 1_555 1_555
C39 C40 1_555 1_555
O20 H29 1_555 1_555
O8 H29_2 1_555 1_555
O20 H24_2 1_555 1_555
Eu1_2 O1_2 1_555 1_555
H5_2 C9_2 1_555 1_555
C10_2 C9_2 1_555 1_555
H6_2 C10_2 1_555 1_555
C11_2 C10_2 1_555 1_555
H7_2 C11_2 1_555 1_555
O25_2 Eu1_2 1_555 1_555
O26_2 Eu1_2 1_555 1_555
O34_2 Eu1_2 1_555 1_555
O10_2 H22 1_555 1_555
O18_2 C41_2 1_555 1_555
O19_2 C41_2 1_555 1_555
N2_2 C29_2 1_555 1_555
C23_2 C24_2 1_555 1_555
C24_2 H11_2 1_555 1_555
C28_2 C23_2 1_555 1_555
C29_2 C23_2 1_555 1_555
C33_2 N2_2 1_555 1_555
H17_2 C35_2 1_555 1_555
C36_2 C35_2 1_555 1_555
C41_2 C36_2 1_555 1_555
Eu8 O18_2 1_555 1_555
O19_2 Eu8 1_555 1_555
Eu2_2 O2_2 1_555 1_555
O2_2 Eu1_3 1_555 1_555
O3_2 Eu1_3 1_555 1_555
O4_2 Eu2_2 1_555 1_555
O5_2 C20_2 1_555 1_555
O6_2 C20_2 1_555 1_555
O7_2 Eu2_2 1_555 1_555
O8_2 Eu2_2 1_555 1_555
O9_2 Eu2_2 1_555 1_555
N1_2 C8_2 1_555 1_555
C1_3 O7_2 1_555 1_555
H1_3 C1_3 1_555 1_555
C2_2 C3_2 1_555 1_555
C3_2 H2_2 1_555 1_555
C7_2 C2_2 1_555 1_555
C8_2 C2_2 1_555 1_555
C12_2 N1_2 1_555 1_555
C13_2 C12_2 1_555 1_555
C14_2 C13_2 1_555 1_555
H8_2 C14_2 1_555 1_555
C15_2 C14_2 1_555 1_555
C16_2 C15_2 1_555 1_555
H9_2 C16_2 1_555 1_555
C17_2 C16_2 1_555 1_555
H10_2 C17_2 1_555 1_555
C18_2 C13_2 1_555 1_555
C19_2 O2_2 1_555 1_555
C20_2 C15_2 1_555 1_555
C21_2 O3_2 1_555 1_555
O13_2 C1_3 1_555 1_555
Eu3_2 O13_2 1_555 1_555
O25_2 Eu3_2 1_555 1_555
O26_2 C42_2 1_555 1_555
O17_2 Eu3_2 1_555 1_555
O20_2 Eu3_2 1_555 1_555
O21_2 Eu3_2 1_555 1_555
H18_2 C37_2 1_555 1_555
C38_2 C37_2 1_555 1_555
H19_2 C38_2 1_555 1_555
C39_2 C34_2 1_555 1_555
C40_2 O25_2 1_555 1_555
C42_2 O17_2 1_555 1_555
Eu7 O5_2 1_555 1_555
O24_2 Eu1_3 1_555 1_555
O27_2 Eu2_2 1_555 1_555
O28_2 Eu3_2 1_555 1_555
O29_2 Eu2_2 1_555 1_555
O30_2 Eu3_2 1_555 1_555
O31_2 Eu3_2 1_555 1_555
O32_2 Eu2_2 1_555 1_555
O34_2 Eu3_2 1_555 1_555
O35_2 Eu1_3 1_555 1_555
Eu2_2 O35_2 1_555 1_555
O4_2 C21_2 1_555 1_555
O6_2 Eu7 1_555 1_555
C7_2 C21_2 1_555 1_555
C17_2 C18_2 1_555 1_555
C18_2 C19_2 1_555 1_555
C38_2 C39_2 1_555 1_555
C39_2 C40_2 1_555 1_555
O22_2 C43_2 1_555 1_555
O23_2 C43_2 1_555 1_555
C26_2 C25_2 1_555 1_555
H12_2 C26_2 1_555 1_555
C27_2 C26_2 1_555 1_555
C43_2 C25_2 1_555 1_555
Eu6_2 O23_2 1_555 1_555
Eu9 O22_2 1_555 1_555
O23_2 Eu9 1_555 1_555
O11_2 C22_2 1_555 1_555
O12_2 C22_2 1_555 1_555
C5_2 C4_2 1_555 1_555
H3_2 C5_2 1_555 1_555
C6_2 C5_2 1_555 1_555
H4_2 C6_2 1_555 1_555
C22_2 C4_2 1_555 1_555
Eu6_3 O12_2 1_555 1_555
Eu10 O11_2 1_555 1_555
O12_2 Eu10 1_555 1_555
O10_3 H23 1_555 1_555
O10_2 H23_2 1_555 1_555
O10_3 H22_2 1_555 1_555
H1_4 C1_4 1_555 1_555
O13_3 C1_4 1_555 1_555
Eu8 O13_3 1_555 1_555
O14 C40_3 1_555 1_555
O15 Eu8 1_555 1_555
O16 C42_3 1_555 1_555
O17_3 Eu8 1_555 1_555
O20_3 Eu8 1_555 1_555
O21_3 Eu8 1_555 1_555
H18_3 C37_3 1_555 1_555
C38_3 C37_3 1_555 1_555
H19_3 C38_3 1_555 1_555
C39_3 C34_3 1_555 1_555
C40_3 O15 1_555 1_555
C42_3 O17_3 1_555 1_555
Eu6 O14 1_555 1_555
O15 Eu6 1_555 1_555
O16 Eu6 1_555 1_555
C38_3 C39_3 1_555 1_555
C39_3 C40_3 1_555 1_555
O20_3 H29_3 1_555 1_555
O28_2 C41_3 1_555 1_555
O30_2 C41_3 1_555 1_555
O32 C43_3 1_555 1_555
O35 C43_3 1_555 1_555
N2_3 C29_3 1_555 1_555
C23_3 C24_3 1_555 1_555
C24_3 H11_3 1_555 1_555
C25_3 C24_3 1_555 1_555
C26_3 C25_3 1_555 1_555
H12_3 C26_3 1_555 1_555
C27_3 C26_3 1_555 1_555
C28_3 C23_3 1_555 1_555
C29_3 C23_3 1_555 1_555
C30_2 C29_3 1_555 1_555
H14_2 C30_2 1_555 1_555
C31_2 C30_2 1_555 1_555
H15_2 C31_2 1_555 1_555
C32_2 C31_2 1_555 1_555
H16_2 C32_2 1_555 1_555
C33_3 N2_3 1_555 1_555
H17_3 C35_3 1_555 1_555
C36_3 C35_3 1_555 1_555
C41_3 C36_3 1_555 1_555
C43_3 C25_3 1_555 1_555
C27_3 C28_3 1_555 1_555
C32_2 C33_3 1_555 1_555
Eu6 O1_3 1_555 1_555
Eu7 O2_3 1_555 1_555
O1_3 C19_3 1_555 1_555
O2_3 Eu6 1_555 1_555
O3_3 Eu6 1_555 1_555
O4_3 Eu7 1_555 1_555
O27_2 C20_3 1_555 1_555
O29_2 C20_3 1_555 1_555
O7_3 Eu7 1_555 1_555
O8_3 Eu7 1_555 1_555
O9_3 Eu7 1_555 1_555
O10_4 Eu6 1_555 1_555
O31 C22_3 1_555 1_555
O34 C22_3 1_555 1_555
N1_3 C8_3 1_555 1_555
C1_5 O7_3 1_555 1_555
H1_5 C1_5 1_555 1_555
C2_3 C3_3 1_555 1_555
C3_3 H2_3 1_555 1_555
C4_3 C3_3 1_555 1_555
C5_3 C4_3 1_555 1_555
H3_3 C5_3 1_555 1_555
C6_3 C5_3 1_555 1_555
H4_3 C6_3 1_555 1_555
C7_3 C2_3 1_555 1_555
C8_3 C2_3 1_555 1_555
C9_3 C8_3 1_555 1_555
H5_3 C9_3 1_555 1_555
C10_3 C9_3 1_555 1_555
H6_3 C10_3 1_555 1_555
C11_3 C10_3 1_555 1_555
H7_3 C11_3 1_555 1_555
C12_3 N1_3 1_555 1_555
C13_3 C12_3 1_555 1_555
C14_3 C13_3 1_555 1_555
H8_3 C14_3 1_555 1_555
C15_3 C14_3 1_555 1_555
C16_3 C15_3 1_555 1_555
H9_3 C16_3 1_555 1_555
C17_3 C16_3 1_555 1_555
H10_3 C17_3 1_555 1_555
C18_3 C13_3 1_555 1_555
C19_3 O2_3 1_555 1_555
C20_3 C15_3 1_555 1_555
C21_3 O3_3 1_555 1_555
C22_3 C4_3 1_555 1_555
O4_3 C21_3 1_555 1_555
C6_3 C7_3 1_555 1_555
C7_3 C21_3 1_555 1_555
C11_3 C12_3 1_555 1_555
C17_3 C18_3 1_555 1_555
C18_3 C19_3 1_555 1_555
O8_3 H24_3 1_555 1_555
O20_3 H24_4 1_555 1_555
O8_3 H29_4 1_555 1_555
Eu6_2 O14_2 1_555 1_555
O31_2 C22_4 1_555 1_555
O34_2 C22_4 1_555 1_555
C5_4 C4_4 1_555 1_555
H3_4 C5_4 1_555 1_555
C6_4 C5_4 1_555 1_555
H4_4 C6_4 1_555 1_555
C22_4 C4_4 1_555 1_555
O10_5 H23_3 1_555 1_555
O32_2 C43_4 1_555 1_555
O35_2 C43_4 1_555 1_555
C26_4 C25_4 1_555 1_555
H12_4 C26_4 1_555 1_555
C27_4 C26_4 1_555 1_555
C43_4 C25_4 1_555 1_555
Eu9 O2_4 1_555 1_555
O2_4 Eu6_2 1_555 1_555
O3_4 Eu6_2 1_555 1_555
O4_4 Eu9 1_555 1_555
O27 C20_4 1_555 1_555
O29 C20_4 1_555 1_555
O7_4 Eu9 1_555 1_555
O8_4 Eu9 1_555 1_555
O9_4 Eu9 1_555 1_555
N1_4 C8_4 1_555 1_555
C1_6 O7_4 1_555 1_555
H1_6 C1_6 1_555 1_555
C2_4 C3_4 1_555 1_555
C3_4 H2_4 1_555 1_555
C7_4 C2_4 1_555 1_555
C8_4 C2_4 1_555 1_555
C12_4 N1_4 1_555 1_555
C13_4 C12_4 1_555 1_555
C14_4 C13_4 1_555 1_555
H8_4 C14_4 1_555 1_555
C15_4 C14_4 1_555 1_555
C16_4 C15_4 1_555 1_555
H9_4 C16_4 1_555 1_555
C17_4 C16_4 1_555 1_555
H10_4 C17_4 1_555 1_555
C18_4 C13_4 1_555 1_555
C19_4 O2_4 1_555 1_555
C20_4 C15_4 1_555 1_555
C21_4 O3_4 1_555 1_555
O13_4 C1_6 1_555 1_555
Eu10 O13_4 1_555 1_555
O15_2 Eu10 1_555 1_555
O16_2 C42_4 1_555 1_555
O17_4 Eu10 1_555 1_555
O20_4 Eu10 1_555 1_555
O21_4 Eu10 1_555 1_555
H18_4 C37_4 1_555 1_555
C38_4 C37_4 1_555 1_555
H19_4 C38_4 1_555 1_555
C39_4 C34_4 1_555 1_555
C40_4 O15_2 1_555 1_555
C42_4 O17_4 1_555 1_555
O4_4 C21_4 1_555 1_555
C7_4 C21_4 1_555 1_555
C17_4 C18_4 1_555 1_555
C18_4 C19_4 1_555 1_555
O15_2 Eu6_3 1_555 1_555
O16_2 Eu6_3 1_555 1_555
C38_4 C39_4 1_555 1_555
C39_4 C40_4 1_555 1_555
O28 C41_4 1_555 1_555
O30 C41_4 1_555 1_555
N2_4 C29_4 1_555 1_555
C23_4 C24_4 1_555 1_555
C24_4 H11_4 1_555 1_555
C28_4 C23_4 1_555 1_555
C29_4 C23_4 1_555 1_555
C33_4 N2_4 1_555 1_555
H17_4 C35_4 1_555 1_555
C36_4 C35_4 1_555 1_555
C41_4 C36_4 1_555 1_555
O10_6 H22_3 1_555 1_555
Eu6_3 O1_4 1_555 1_555
H5_4 C9_4 1_555 1_555
C10_4 C9_4 1_555 1_555
H6_4 C10_4 1_555 1_555
C11_4 C10_4 1_555 1_555
H7_4 C11_4 1_555 1_555
O10_5 H22_4 1_555 1_555
O10_6 H23_4 1_555 1_555
H14_3 C30_3 1_555 1_555
C31_3 C30_3 1_555 1_555
H15_3 C31_3 1_555 1_555
C32_3 C31_3 1_555 1_555
H16_3 C32_3 1_555 1_555
H14_4 C30_4 1_555 1_555
C31_4 C30_4 1_555 1_555
H15_4 C31_4 1_555 1_555
C32_4 C31_4 1_555 1_555
H16_4 C32_4 1_555 1_555

#END
