
###############################################################################
#
# This file contains modified crystal structure data generated from the
# MOF subset of the Cambridge Structural Database (CSD) v543 
# hosted by the Cambridge Crystallographic Data Centre (CCDC).
#
# This work is licensed under the Creative Commons
# Attribution-NonCommercial-ShareAlike 4.0 International License.
# To view a copy of this license, visit
# http://creativecommons.org/licenses/by-nc-sa/4.0/
# or send a letter to
# Creative Commons, PO Box 1866, Mountain View, CA 94042, USA.
#
# CIF created using the CSD Python API on 29 September 2022
# The structure has been converted into the P1 space group
# The structure has a 3D framework
# The original CSD entry GATJIV is in the trigonal crystal system
# The original CSD entry GATJIV is in a Sohncke space group
# The framework has been calculated to contain at least 10.0% void space
# The void calculation uses a probe of radius 1.32A, grid spacing 0.4
# The framework is charged, counterions have been retained in the structure
#
###############################################################################

data_GATJIV
_chemical_formula_moiety         '(C204 H168 Cd6 Cl18 N12 O42 6+)n'
_symmetry_cell_setting           triclinic
_symmetry_space_group_name_H-M   'P 1'
_symmetry_Int_Tables_number      1
_space_group_name_Hall           'P 1'
loop_
_symmetry_equiv_pos_site_id
_symmetry_equiv_pos_as_xyz
1 x,y,z
_cell_length_a                   26.209(2)
_cell_length_b                   26.209(2)
_cell_length_c                   12.7517(16)
_cell_angle_alpha                90
_cell_angle_beta                 90
_cell_angle_gamma                120
_cell_volume                     7585.77
loop_
_atom_site_label
_atom_site_type_symbol
_atom_site_fract_x
_atom_site_fract_y
_atom_site_fract_z
Cd2 Cd 0.30114(3) 0.30114(3) 0.0000
Cd3 Cd -0.0000 0.69886(3) 1.0000
Cd3_2 Cd 1.0000 0.69886(3) 1.0000
O3 O 0.0381(3) 0.7839(5) 0.8960(5)
H1 H 0.0475 0.8133 0.9344
H2 H 0.0406 0.7814 0.8260
Cl3 Cl 0.05481(10) 0.67782(18) 0.35283(17)
O4 O 0.1463(3) 0.4649(6) 0.6579(5)
O5 O 0.2483(3) 0.5419(6) 0.4956(6)
N3 N 0.0363(3) 0.6536(5) 0.8830(5)
N4 N 0.2562(4) 0.3430(7) 0.0942(5)
C35 C 0.0810(4) 0.6832(7) 0.8209(6)
H31 H 0.1024 0.7248 0.8286
C36 C 0.0992(4) 0.6598(7) 0.7473(6)
H32 H 0.1306 0.6848 0.7020
C37 C 0.0728(3) 0.6000(5) 0.7366(6)
C38 C 0.0252(4) 0.5664(7) 0.8005(6)
H33 H 0.0049 0.5247 0.7958
C39 C 0.0070(4) 0.5945(7) 0.8721(5)
C40 C 0.0929(4) 0.5713(7) 0.6574(7)
C41 C 0.1089(4) 0.5319(7) 0.6959(7)
H35 H 0.1064 0.5239 0.7689
C42 C 0.1290(4) 0.5038(7) 0.6263(7)
C43 C 0.1329(4) 0.5160(7) 0.5167(6)
C44 C 0.1170(4) 0.5561(7) 0.4793(6)
C45 C 0.1213(4) 0.5714(7) 0.3683(6)
H36 H 0.1366 0.5545 0.3207
C46 C 0.1041(4) 0.6089(7) 0.3313(6)
H37 H 0.1092 0.6199 0.2595
C47 C 0.0788(4) 0.6310(7) 0.4007(6)
C48 C 0.0754(4) 0.6209(7) 0.5096(6)
H38 H 0.0602 0.6388 0.5554
C49 C 0.0953(3) 0.5833(5) 0.5485(6)
C50 C 0.1558(5) 0.4639(9) 0.7688(9)
H39 H 0.1177 0.4452 0.8066
H40 H 0.1806 0.5044 0.7957
C51 C 0.1871(7) 0.4278(12) 0.7845(13)
H41 H 0.1971 0.4285 0.8587
H42 H 0.2232 0.4450 0.7423
H43 H 0.1609 0.3870 0.7624
C52 C 0.3244(6) 0.5760(10) 0.6199(11)
H44 H 0.3585 0.5733 0.6435
H45 H 0.2953 0.5632 0.6765
H46 H 0.3370 0.6168 0.6010
C53 C 0.2992(5) 0.5396(10) 0.5322(12)
H47 H 0.2874 0.4985 0.5508
H48 H 0.3287 0.5524 0.4752
C54 C 0.1518(4) 0.4828(7) 0.4432(7)
C55 C 0.2102(5) 0.4989(9) 0.4307(8)
C56 C 0.2269(5) 0.4696(9) 0.3608(7)
H49 H 0.2674 0.4812 0.3551
C57 C 0.1865(5) 0.4239(9) 0.2989(8)
C58 C 0.1249(4) 0.4061(7) 0.3080(8)
C59 C 0.0815(4) 0.3592(8) 0.2491(9)
H50 H 0.0930 0.3407 0.1976
C60 C 0.0262(7) 0.3407(14) 0.2634(19)
C61 C 0.0079(6) 0.3724(11) 0.3299(14)
C62 C 0.0480(6) 0.4172(10) 0.3830(14)
H52 H 0.0355 0.4386 0.4257
C63 C 0.1088(4) 0.4359(7) 0.3810(8)
C64 C 0.2124(4) 0.3090(7) 0.1611(8)
H53 H 0.1974 0.2676 0.1621
C65 C 0.1882(4) 0.3341(7) 0.2302(8)
H54 H 0.1590 0.3098 0.2798
C66 C 0.2075(5) 0.3946(9) 0.2253(7)
C67 C 0.2527(5) 0.4283(9) 0.1537(7)
H55 H 0.2683 0.4696 0.1481
C68 C 0.2735(4) 0.3997(7) 0.0920(6)
H56 H 0.3034 0.4232 0.0428
Cl4 Cl 0.97247(18) 0.28700(32) 0.1786(5)
N5 N 0.9132(6) 0.6570(7) 0.9058(5)
H34 H 0.9733 0.5714 0.9143
H51 H 0.9675 0.3613 0.3353
Cl1 Cl 0.37699(15) 0.32218(11) 0.64717(17)
Cl2 Cl 0.68547(27) 0.7130(2) 0.8214(5)
O1 O 0.6814(5) 0.5351(4) 0.3421(5)
O2 O 0.7064(5) 0.4581(4) 0.5044(6)
N1 N 0.3827(4) 0.3464(3) 0.1170(5)
C1 C 0.3978(6) 0.3168(4) 0.1791(6)
H3 H 0.3776 0.2752 0.1714
C2 C 0.4394(6) 0.3402(4) 0.2527(6)
H4 H 0.4458 0.3152 0.2980
C3 C 0.4728(4) 0.4000(3) 0.2634(6)
C4 C 0.4588(6) 0.4336(4) 0.1995(6)
H5 H 0.4802 0.4753 0.2042
C5 C 0.4125(6) 0.4055(4) 0.1279(5)
H6 H 0.4019 0.4286 0.0857
C6 C 0.5216(6) 0.4287(4) 0.3426(7)
C7 C 0.5770(6) 0.4681(4) 0.3041(7)
H7 H 0.5825 0.4761 0.2311
C8 C 0.6252(6) 0.4962(4) 0.3737(7)
C9 C 0.6169(6) 0.4840(4) 0.4833(6)
C10 C 0.5609(6) 0.4439(4) 0.5207(6)
C11 C 0.5499(6) 0.4286(5) 0.6317(6)
H8 H 0.5821 0.4455 0.6793
C12 C 0.4952(6) 0.3911(4) 0.6687(6)
H9 H 0.4893 0.3801 0.7405
C13 C 0.4478(6) 0.3690(4) 0.5993(6)
C14 C 0.4545(6) 0.3791(4) 0.4904(6)
H10 H 0.4214 0.3612 0.4446
C15 C 0.5120(4) 0.4167(3) 0.4515(6)
C16 C 0.6919(8) 0.5361(6) 0.2312(9)
H11 H 0.6725 0.5548 0.1934
H12 H 0.6762 0.4956 0.2043
C17 C 0.7593(10) 0.5722(7) 0.2155(13)
H13 H 0.7686 0.5715 0.1413
H14 H 0.7782 0.5550 0.2577
H15 H 0.7739 0.6130 0.2376
C18 C 0.7484(8) 0.4240(6) 0.3801(11)
H16 H 0.7852 0.4267 0.3565
H17 H 0.7321 0.4368 0.3235
H18 H 0.7202 0.3832 0.3990
C19 C 0.7596(9) 0.4604(7) 0.4678(12)
H19 H 0.7889 0.5015 0.4492
H20 H 0.7763 0.4476 0.5248
C20 C 0.6690(6) 0.5172(5) 0.5568(7)
C21 C 0.7113(7) 0.5011(5) 0.5693(8)
C22 C 0.7573(7) 0.5304(5) 0.6392(7)
H21 H 0.7862 0.5188 0.6449
C23 C 0.7626(7) 0.5761(5) 0.7011(8)
C24 C 0.7188(6) 0.5939(5) 0.6920(8)
C25 C 0.7223(7) 0.6408(6) 0.7509(9)
H22 H 0.7523 0.6593 0.8024
C26 C 0.6855(12) 0.6593(10) 0.7366(19)
C27 C 0.6355(9) 0.6276(7) 0.6701(14)
H23 H 0.6062 0.6387 0.6647
C28 C 0.6308(8) 0.5828(6) 0.6170(14)
H24 H 0.5969 0.5614 0.5743
C29 C 0.6729(6) 0.5641(4) 0.6190(8)
C30 C 0.9034(6) 0.6910(5) 0.8389(8)
H25 H 0.9298 0.7324 0.8379
C31 C 0.8541(6) 0.6659(5) 0.7698(8)
H26 H 0.8492 0.6902 0.7202
C32 C 0.8129(7) 0.6054(5) 0.7747(7)
C33 C 0.8244(7) 0.5717(5) 0.8463(7)
H27 H 0.7987 0.5304 0.8519
C34 C 0.8738(6) 0.6003(4) 0.9080(6)
H28 H 0.8802 0.5768 0.9572
O6 O 0.2542(6) 0.2161(5) 0.1040(5)
H29 H 0.2342 0.1867 0.0656
H30 H 0.2592 0.2186 0.1740
Cd1 Cd 0.69886(3) 0.0000 0.0000
Cl1_2 Cl 0.67782(11) 0.05481(10) 0.64717(17)
O1_2 O 0.4649(4) 0.1463(3) 0.3421(5)
O2_2 O 0.5419(4) 0.2483(3) 0.5044(6)
N1_2 N 0.6536(3) 0.0363(3) 0.1170(5)
N2 N 0.3430(4) 0.2562(4) 0.9058(5)
C1_2 C 0.6832(4) 0.0810(4) 0.1791(6)
H3_2 H 0.7248 0.1024 0.1714
C2_2 C 0.6598(4) 0.0992(4) 0.2527(6)
H4_2 H 0.6848 0.1306 0.2980
C3_2 C 0.6000(3) 0.0728(3) 0.2634(6)
C4_2 C 0.5664(4) 0.0252(4) 0.1995(6)
H5_2 H 0.5247 0.0049 0.2042
C5_2 C 0.5945(4) 0.0070(4) 0.1279(5)
C6_2 C 0.5713(4) 0.0929(4) 0.3426(7)
C7_2 C 0.5319(4) 0.1089(4) 0.3041(7)
H7_2 H 0.5239 0.1064 0.2311
C8_2 C 0.5038(4) 0.1290(4) 0.3737(7)
C9_2 C 0.5160(4) 0.1329(4) 0.4833(6)
C10_2 C 0.5561(4) 0.1170(4) 0.5207(6)
C11_2 C 0.5714(5) 0.1213(4) 0.6317(6)
H8_2 H 0.5545 0.1366 0.6793
C12_2 C 0.6089(4) 0.1041(4) 0.6687(6)
H9_2 H 0.6199 0.1092 0.7405
C13_2 C 0.6310(4) 0.0788(4) 0.5993(6)
C14_2 C 0.6209(4) 0.0754(4) 0.4904(6)
H10_2 H 0.6388 0.0602 0.4446
C15_2 C 0.5833(3) 0.0953(3) 0.4515(6)
C16_2 C 0.4639(6) 0.1558(5) 0.2312(9)
H11_2 H 0.4452 0.1177 0.1934
H12_2 H 0.5044 0.1806 0.2043
C17_2 C 0.4278(7) 0.1871(7) 0.2155(13)
H13_2 H 0.4285 0.1971 0.1413
H14_2 H 0.4450 0.2232 0.2577
H15_2 H 0.3870 0.1609 0.2376
C18_2 C 0.5760(6) 0.3244(6) 0.3801(11)
H16_2 H 0.5733 0.3585 0.3565
H17_2 H 0.5632 0.2953 0.3235
H18_2 H 0.6168 0.3370 0.3990
C19_2 C 0.5396(7) 0.2992(5) 0.4678(12)
H19_2 H 0.4985 0.2874 0.4492
H20_2 H 0.5524 0.3287 0.5248
C20_2 C 0.4828(5) 0.1518(4) 0.5568(7)
C21_2 C 0.4989(5) 0.2102(5) 0.5693(8)
C22_2 C 0.4696(5) 0.2269(5) 0.6392(7)
H21_2 H 0.4812 0.2674 0.6449
C23_2 C 0.4239(5) 0.1865(5) 0.7011(8)
C24_2 C 0.4061(5) 0.1249(4) 0.6920(8)
C25_2 C 0.3592(6) 0.0815(4) 0.7509(9)
H22_2 H 0.3407 0.0930 0.8024
C26_2 C 0.3407(10) 0.0262(7) 0.7366(19)
C27_2 C 0.3724(7) 0.0079(6) 0.6701(14)
C28_2 C 0.4172(6) 0.0480(6) 0.6170(14)
H24_2 H 0.4386 0.0355 0.5743
C29_2 C 0.4359(4) 0.1088(4) 0.6190(8)
C30_2 C 0.3090(5) 0.2124(4) 0.8389(8)
H25_2 H 0.2676 0.1974 0.8379
C31_2 C 0.3341(5) 0.1882(4) 0.7698(8)
H26_2 H 0.3098 0.1590 0.7202
C32_2 C 0.3946(5) 0.2075(5) 0.7747(7)
C33_2 C 0.4283(5) 0.2527(5) 0.8463(7)
H27_2 H 0.4696 0.2683 0.8519
C34_2 C 0.3997(4) 0.2735(4) 0.9080(6)
H28_2 H 0.4232 0.3034 0.9572
Cd2_2 Cd 0.30114(3) 0.30114(3) 1.0000
O6_2 O 0.7839(5) 0.0381(3) 0.1040(5)
H29_2 H 0.8133 0.0475 0.0656
H30_2 H 0.7814 0.0406 0.1740
Cd1_2 Cd 0.69886(3) 1.0000 0.0000
Cl2_2 Cl 0.2870(2) 0.97247(18) 0.8214(5)
H6_2 H 0.5714 0.9733 0.0857
H23_2 H 0.3613 0.9675 0.6647
N6 N 0.6570(4) 0.9132(6) 0.0942(5)
O3_2 O 0.2161(5) 0.2542(4) 0.8960(5)
H1_2 H 0.1867 0.2342 0.9344
H2_2 H 0.2186 0.2592 0.8260
Cl3_2 Cl 0.32218(18) 0.37699(15) 0.35283(17)
Cl4_2 Cl 0.71300(32) 0.68547(27) 0.1786(5)
O4_2 O 0.5351(6) 0.6814(5) 0.6579(5)
O5_2 O 0.4581(6) 0.7064(5) 0.4956(6)
N3_2 N 0.3464(5) 0.3827(4) 0.8830(5)
C35_2 C 0.3168(7) 0.3978(6) 0.8209(6)
H31_2 H 0.2752 0.3776 0.8286
C36_2 C 0.3402(7) 0.4394(6) 0.7473(6)
H32_2 H 0.3152 0.4458 0.7020
C37_2 C 0.4000(5) 0.4728(4) 0.7366(6)
C38_2 C 0.4336(7) 0.4588(6) 0.8005(6)
H33_2 H 0.4753 0.4802 0.7958
C39_2 C 0.4055(7) 0.4125(6) 0.8721(5)
H34_2 H 0.4286 0.4019 0.9143
C40_2 C 0.4287(7) 0.5216(6) 0.6574(7)
C41_2 C 0.4681(7) 0.5770(6) 0.6959(7)
H35_2 H 0.4761 0.5825 0.7689
C42_2 C 0.4962(7) 0.6252(6) 0.6263(7)
C43_2 C 0.4840(7) 0.6169(6) 0.5167(6)
C44_2 C 0.4439(7) 0.5609(6) 0.4793(6)
C45_2 C 0.4286(7) 0.5499(6) 0.3683(6)
H36_2 H 0.4455 0.5821 0.3207
C46_2 C 0.3911(7) 0.4952(6) 0.3313(6)
H37_2 H 0.3801 0.4893 0.2595
C47_2 C 0.3690(7) 0.4478(6) 0.4007(6)
C48_2 C 0.3791(7) 0.4545(6) 0.5096(6)
H38_2 H 0.3612 0.4214 0.5554
C49_2 C 0.4167(5) 0.5120(4) 0.5485(6)
C50_2 C 0.5361(9) 0.6919(8) 0.7688(9)
H39_2 H 0.5548 0.6725 0.8066
H40_2 H 0.4956 0.6762 0.7957
C51_2 C 0.5722(12) 0.7593(10) 0.7845(13)
H41_2 H 0.5715 0.7686 0.8587
H42_2 H 0.5550 0.7782 0.7423
H43_2 H 0.6130 0.7739 0.7624
C52_2 C 0.4240(10) 0.7484(8) 0.6199(11)
H44_2 H 0.4267 0.7852 0.6435
H45_2 H 0.4368 0.7321 0.6765
H46_2 H 0.3832 0.7202 0.6010
C53_2 C 0.4604(10) 0.7596(9) 0.5322(12)
H47_2 H 0.5015 0.7889 0.5508
H48_2 H 0.4476 0.7763 0.4752
C54_2 C 0.5172(7) 0.6690(6) 0.4432(7)
C55_2 C 0.5011(9) 0.7113(7) 0.4307(8)
C56_2 C 0.5304(9) 0.7573(7) 0.3608(7)
H49_2 H 0.5188 0.7862 0.3551
C57_2 C 0.5761(9) 0.7626(7) 0.2989(8)
C58_2 C 0.5939(7) 0.7188(6) 0.3080(8)
C59_2 C 0.6408(8) 0.7223(7) 0.2491(9)
H50_2 H 0.6593 0.7523 0.1976
C60_2 C 0.6593(14) 0.6855(12) 0.2634(19)
C61_2 C 0.6276(11) 0.6355(9) 0.3299(14)
H51_2 H 0.6387 0.6062 0.3353
C62_2 C 0.5828(10) 0.6308(8) 0.3830(14)
H52_2 H 0.5614 0.5969 0.4257
C63_2 C 0.5641(7) 0.6729(6) 0.3810(8)
C64_2 C 0.6910(7) 0.9034(6) 0.1611(8)
H53_2 H 0.7324 0.9298 0.1621
C65_2 C 0.6659(7) 0.8541(6) 0.2302(8)
H54_2 H 0.6902 0.8492 0.2798
C66_2 C 0.6054(9) 0.8129(7) 0.2253(7)
C67_2 C 0.5717(9) 0.8244(7) 0.1537(7)
H55_2 H 0.5304 0.7987 0.1481
C68_2 C 0.6003(7) 0.8738(6) 0.0920(6)
H56_2 H 0.5768 0.8802 0.0428
Cd1_3 Cd 0.69886(3) 0.0000 1.0000
Cl4_3 Cl 0.31453(27) 0.02753(18) 0.1786(5)
N5_2 N 0.7438(4) 0.0868(6) 0.9058(5)
H34_3 H 0.5981 0.0267 0.9143
H51_3 H 0.3938 0.0325 0.3353
Cd3_3 Cd 1.0000 0.69886(3) 0.0000
Cl1_3 Cl 0.94519(10) 0.62301(15) 0.64717(17)
O1_3 O 0.8537(3) 0.3186(5) 0.3421(5)
O2_3 O 0.7517(3) 0.2936(5) 0.5044(6)
N1_3 N 0.9637(3) 0.6173(4) 0.1170(5)
C1_3 C 0.9190(4) 0.6022(6) 0.1791(6)
H3_3 H 0.8976 0.6224 0.1714
C2_3 C 0.9008(4) 0.5606(6) 0.2527(6)
H4_3 H 0.8694 0.5542 0.2980
C3_3 C 0.9272(3) 0.5272(4) 0.2634(6)
C4_3 C 0.9748(4) 0.5412(6) 0.1995(6)
H5_3 H 0.9951 0.5198 0.2042
C5_3 C 0.9930(4) 0.5875(6) 0.1279(5)
C6_3 C 0.9071(4) 0.4784(6) 0.3426(7)
C7_3 C 0.8911(4) 0.4230(6) 0.3041(7)
H7_3 H 0.8936 0.4175 0.2311
C8_3 C 0.8710(4) 0.3748(6) 0.3737(7)
C9_3 C 0.8671(4) 0.3831(6) 0.4833(6)
C10_3 C 0.8830(4) 0.4391(6) 0.5207(6)
C11_3 C 0.8787(4) 0.4501(6) 0.6317(6)
H8_3 H 0.8634 0.4179 0.6793
C12_3 C 0.8959(4) 0.5048(6) 0.6687(6)
H9_3 H 0.8908 0.5107 0.7405
C13_3 C 0.9212(4) 0.5522(6) 0.5993(6)
C14_3 C 0.9246(4) 0.5455(6) 0.4904(6)
H10_3 H 0.9398 0.5786 0.4446
C15_3 C 0.9047(3) 0.4880(4) 0.4515(6)
C16_3 C 0.8442(5) 0.3081(8) 0.2312(9)
H11_3 H 0.8823 0.3275 0.1934
H12_3 H 0.8194 0.3238 0.2043
C17_3 C 0.8129(7) 0.2407(10) 0.2155(13)
H13_3 H 0.8029 0.2314 0.1413
H14_3 H 0.7768 0.2218 0.2577
H15_3 H 0.8391 0.2261 0.2376
C18_3 C 0.6756(6) 0.2516(8) 0.3801(11)
H16_3 H 0.6415 0.2148 0.3565
H17_3 H 0.7047 0.2679 0.3235
H18_3 H 0.6630 0.2798 0.3990
C19_3 C 0.7008(5) 0.2404(9) 0.4678(12)
H19_3 H 0.7126 0.2111 0.4492
H20_3 H 0.6713 0.2237 0.5248
C20_3 C 0.8482(4) 0.3310(6) 0.5568(7)
C21_3 C 0.7898(5) 0.2887(7) 0.5693(8)
C22_3 C 0.7731(5) 0.2427(7) 0.6392(7)
H21_3 H 0.7326 0.2138 0.6449
C23_3 C 0.8135(5) 0.2374(7) 0.7011(8)
C24_3 C 0.8751(4) 0.2812(6) 0.6920(8)
C25_3 C 0.9185(4) 0.2777(7) 0.7509(9)
H22_3 H 0.9070 0.2477 0.8024
C26_3 C 0.9738(7) 0.3145(12) 0.7366(19)
C27_3 C 0.9921(6) 0.3645(9) 0.6701(14)
C28_3 C 0.9520(6) 0.3692(8) 0.6170(14)
H24_3 H 0.9645 0.4031 0.5743
C29_3 C 0.8912(4) 0.3271(6) 0.6190(8)
C30_3 C 0.7876(4) 0.0966(6) 0.8389(8)
H25_3 H 0.8026 0.0702 0.8379
C31_3 C 0.8118(4) 0.1459(6) 0.7698(8)
H26_3 H 0.8410 0.1508 0.7202
C32_3 C 0.7925(5) 0.1871(7) 0.7747(7)
C33_3 C 0.7473(5) 0.1756(7) 0.8463(7)
H27_3 H 0.7317 0.2013 0.8519
C34_3 C 0.7265(4) 0.1262(6) 0.9080(6)
H28_3 H 0.6966 0.1198 0.9572
O6_3 O 0.9619(3) 0.7458(6) 0.1040(5)
H29_3 H 0.9525 0.7658 0.0656
H30_3 H 0.9594 0.7408 0.1740
Cd1_4 Cd 0.69886(3) 1.0000 1.0000
O3_3 O 0.7458(4) 0.9619(3) 0.8960(5)
H1_3 H 0.7658 0.9525 0.9344
H2_3 H 0.7408 0.9594 0.8260
Cd3_4 Cd 0.0000 0.69886(3) 0.0000
Cl3_3 Cl 0.62301(15) 0.94519(10) 0.35283(17)
O4_3 O 0.3186(5) 0.8537(3) 0.6579(5)
O5_3 O 0.2936(5) 0.7517(3) 0.4956(6)
N3_3 N 0.6173(4) 0.9637(3) 0.8830(5)
N4_2 N 0.0868(6) 0.7438(4) 0.0942(5)
C35_3 C 0.6022(6) 0.9190(4) 0.8209(6)
H31_3 H 0.6224 0.8976 0.8286
C36_3 C 0.5606(6) 0.9008(4) 0.7473(6)
H32_3 H 0.5542 0.8694 0.7020
C37_3 C 0.5272(4) 0.9272(3) 0.7366(6)
C38_3 C 0.5412(6) 0.9748(4) 0.8005(6)
H33_3 H 0.5198 0.9951 0.7958
C39_3 C 0.5875(6) 0.9930(4) 0.8721(5)
C40_3 C 0.4784(6) 0.9071(4) 0.6574(7)
C41_3 C 0.4230(6) 0.8911(4) 0.6959(7)
H35_3 H 0.4175 0.8936 0.7689
C42_3 C 0.3748(6) 0.8710(4) 0.6263(7)
C43_3 C 0.3831(6) 0.8671(4) 0.5167(6)
C44_3 C 0.4391(6) 0.8830(4) 0.4793(6)
C45_3 C 0.4501(6) 0.8787(4) 0.3683(6)
H36_3 H 0.4179 0.8634 0.3207
C46_3 C 0.5048(6) 0.8959(4) 0.3313(6)
H37_3 H 0.5107 0.8908 0.2595
C47_3 C 0.5522(6) 0.9212(4) 0.4007(6)
C48_3 C 0.5455(6) 0.9246(4) 0.5096(6)
H38_3 H 0.5786 0.9398 0.5554
C49_3 C 0.4880(4) 0.9047(3) 0.5485(6)
C50_3 C 0.3081(8) 0.8442(5) 0.7688(9)
H39_3 H 0.3275 0.8823 0.8066
H40_3 H 0.3238 0.8194 0.7957
C51_3 C 0.2407(10) 0.8129(7) 0.7845(13)
H41_3 H 0.2314 0.8029 0.8587
H42_3 H 0.2218 0.7768 0.7423
H43_3 H 0.2261 0.8391 0.7624
C52_3 C 0.2516(8) 0.6756(6) 0.6199(11)
H44_3 H 0.2148 0.6415 0.6435
H45_3 H 0.2679 0.7047 0.6765
H46_3 H 0.2798 0.6630 0.6010
C53_3 C 0.2404(9) 0.7008(5) 0.5322(12)
H47_3 H 0.2111 0.7126 0.5508
H48_3 H 0.2237 0.6713 0.4752
C54_3 C 0.3310(6) 0.8482(4) 0.4432(7)
C55_3 C 0.2887(7) 0.7898(5) 0.4307(8)
C56_3 C 0.2427(7) 0.7731(5) 0.3608(7)
H49_3 H 0.2138 0.7326 0.3551
C57_3 C 0.2374(7) 0.8135(5) 0.2989(8)
C58_3 C 0.2812(6) 0.8751(4) 0.3080(8)
C59_3 C 0.2777(7) 0.9185(4) 0.2491(9)
H50_3 H 0.2477 0.9070 0.1976
C60_3 C 0.3145(12) 0.9738(7) 0.2634(19)
C61_3 C 0.3645(9) 0.9921(6) 0.3299(14)
C62_3 C 0.3692(8) 0.9520(6) 0.3830(14)
H52_3 H 0.4031 0.9645 0.4257
C63_3 C 0.3271(6) 0.8912(4) 0.3810(8)
C64_3 C 0.0966(6) 0.7876(4) 0.1611(8)
H53_3 H 0.0702 0.8026 0.1621
C65_3 C 0.1459(6) 0.8118(4) 0.2302(8)
H54_3 H 0.1508 0.8410 0.2798
C66_3 C 0.1871(7) 0.7925(5) 0.2253(7)
C67_3 C 0.1756(7) 0.7473(5) 0.1537(7)
H55_3 H 0.2013 0.7317 0.1481
C68_3 C 0.1262(6) 0.7265(4) 0.0920(6)
H56_3 H 0.1198 0.6966 0.0428
Cl2_3 Cl 0.02753(18) 0.31453(27) 0.8214(5)
H6_3 H 0.0267 0.5981 0.0857
H23_3 H 0.0325 0.3938 0.6647
Cl5 Cl 0.3932(9) 0.5581(9) 0.0107(14)
O7 O 0.4025(11) 0.5146(10) 0.0398(19)
O10 O 0.388(2) 0.5876(18) 0.094(2)
O8 O 0.4411(11) 0.5986(12) 0.949(2)
O9 O 0.3445(10) 0.5388(12) 0.949(2)
Cl5_2 Cl 0.4419(9) 0.8351(13) 0.0107(14)
O7_2 O 0.4854(10) 0.8879(15) 0.0398(19)
O10_2 O 0.4124(18) 0.8004(27) 0.094(2)
O8_2 O 0.4014(12) 0.8425(16) 0.949(2)
O9_2 O 0.4612(12) 0.8057(16) 0.949(2)
Cl5_3 Cl 0.1649(13) 0.6068(9) 0.0107(14)
O7_3 O 0.1121(15) 0.5975(11) 0.0398(19)
O10_3 O 0.1996(27) 0.612(2) 0.094(2)
O8_3 O 0.1575(16) 0.5589(11) 0.949(2)
O9_3 O 0.1943(16) 0.6555(10) 0.949(2)
O8_4 O 0.5986(12) 0.4411(11) 0.051(2)
O9_4 O 0.5388(12) 0.3445(10) 0.051(2)
Cl5_4 Cl 0.5581(9) 0.3932(9) 0.9893(14)
O7_4 O 0.5146(10) 0.4025(11) 0.9602(19)
O10_4 O 0.5876(18) 0.388(2) 0.906(2)
O8_5 O 0.8425(16) 0.4014(12) 0.051(2)
O9_5 O 0.8057(16) 0.4612(12) 0.051(2)
Cl5_5 Cl 0.8351(13) 0.4419(9) 0.9893(14)
O7_5 O 0.8879(15) 0.4854(10) 0.9602(19)
O10_5 O 0.8004(27) 0.4124(18) 0.906(2)
O8_6 O 0.5589(11) 0.1575(16) 0.051(2)
O9_6 O 0.6555(10) 0.1943(16) 0.051(2)
Cl5_6 Cl 0.6068(9) 0.1649(13) 0.9893(14)
O7_6 O 0.5975(11) 0.1121(15) 0.9602(19)
O10_6 O 0.612(2) 0.1996(27) 0.906(2)
loop_
_geom_bond_atom_site_label_1
_geom_bond_atom_site_label_2
_geom_bond_site_symmetry_1
_geom_bond_site_symmetry_2
Cd3 O3 1_555 1_555
O3 H1 1_555 1_555
H2 O3 1_555 1_555
Cd2 N4 1_555 1_555
Cl3 C47 1_555 1_555
O4 C42 1_555 1_555
O5 C53 1_555 1_555
N3 Cd3 1_555 1_555
N4 C64 1_555 1_555
C35 N3 1_555 1_555
H31 C35 1_555 1_555
C36 C35 1_555 1_555
H32 C36 1_555 1_555
C37 C36 1_555 1_555
C38 C37 1_555 1_555
H33 C38 1_555 1_555
C39 N3 1_555 1_555
C40 C37 1_555 1_555
C41 C40 1_555 1_555
H35 C41 1_555 1_555
C42 C41 1_555 1_555
C43 C42 1_555 1_555
C44 C43 1_555 1_555
C45 C44 1_555 1_555
H36 C45 1_555 1_555
C46 C45 1_555 1_555
H37 C46 1_555 1_555
C47 C46 1_555 1_555
C48 C47 1_555 1_555
H38 C48 1_555 1_555
C49 C40 1_555 1_555
C50 O4 1_555 1_555
H39 C50 1_555 1_555
H40 C50 1_555 1_555
C51 C50 1_555 1_555
H41 C51 1_555 1_555
H42 C51 1_555 1_555
H43 C51 1_555 1_555
C52 H44 1_555 1_555
H45 C52 1_555 1_555
H46 C52 1_555 1_555
C53 C52 1_555 1_555
H47 C53 1_555 1_555
H48 C53 1_555 1_555
C54 C43 1_555 1_555
C55 O5 1_555 1_555
C56 C55 1_555 1_555
H49 C56 1_555 1_555
C57 C56 1_555 1_555
C58 C57 1_555 1_555
C59 C58 1_555 1_555
H50 C59 1_555 1_555
C60 C59 1_555 1_555
C61 C60 1_555 1_555
C62 C61 1_555 1_555
H52 C62 1_555 1_555
C63 C54 1_555 1_555
C64 H53 1_555 1_555
C65 C64 1_555 1_555
H54 C65 1_555 1_555
C66 C57 1_555 1_555
C67 C66 1_555 1_555
H55 C67 1_555 1_555
C68 N4 1_555 1_555
H56 C68 1_555 1_555
C38 C39 1_555 1_555
C44 C49 1_555 1_555
C48 C49 1_555 1_555
C54 C55 1_555 1_555
C58 C63 1_555 1_555
C62 C63 1_555 1_555
C65 C66 1_555 1_555
C67 C68 1_555 1_555
N5 Cd3_2 1_555 1_555
Cl1 C13 1_555 1_555
Cl2 C26 1_555 1_555
O1 C8 1_555 1_555
O2 C19 1_555 1_555
N1 Cd2 1_555 1_555
N5 C30 1_555 1_555
C1 N1 1_555 1_555
H3 C1 1_555 1_555
C2 C1 1_555 1_555
H4 C2 1_555 1_555
C3 C2 1_555 1_555
C4 C3 1_555 1_555
H5 C4 1_555 1_555
C5 N1 1_555 1_555
H6 C5 1_555 1_555
C6 C3 1_555 1_555
C7 C6 1_555 1_555
H7 C7 1_555 1_555
C8 C7 1_555 1_555
C9 C8 1_555 1_555
C10 C9 1_555 1_555
C11 C10 1_555 1_555
H8 C11 1_555 1_555
C12 C11 1_555 1_555
H9 C12 1_555 1_555
C13 C12 1_555 1_555
C14 C13 1_555 1_555
H10 C14 1_555 1_555
C15 C6 1_555 1_555
C16 O1 1_555 1_555
H11 C16 1_555 1_555
H12 C16 1_555 1_555
C17 C16 1_555 1_555
H13 C17 1_555 1_555
H14 C17 1_555 1_555
H15 C17 1_555 1_555
C18 H16 1_555 1_555
H17 C18 1_555 1_555
H18 C18 1_555 1_555
C19 C18 1_555 1_555
H19 C19 1_555 1_555
H20 C19 1_555 1_555
C20 C9 1_555 1_555
C21 O2 1_555 1_555
C22 C21 1_555 1_555
H21 C22 1_555 1_555
C23 C22 1_555 1_555
C24 C23 1_555 1_555
C25 C24 1_555 1_555
H22 C25 1_555 1_555
C26 C25 1_555 1_555
C27 C26 1_555 1_555
H23 C27 1_555 1_555
C28 C27 1_555 1_555
H24 C28 1_555 1_555
C29 C20 1_555 1_555
C30 H25 1_555 1_555
C31 C30 1_555 1_555
H26 C31 1_555 1_555
C32 C23 1_555 1_555
C33 C32 1_555 1_555
H27 C33 1_555 1_555
C34 N5 1_555 1_555
H28 C34 1_555 1_555
O6 Cd2 1_555 1_555
H29 O6 1_555 1_555
H30 O6 1_555 1_555
C4 C5 1_555 1_555
C10 C15 1_555 1_555
C14 C15 1_555 1_555
C20 C21 1_555 1_555
C24 C29 1_555 1_555
C28 C29 1_555 1_555
C31 C32 1_555 1_555
C33 C34 1_555 1_555
Cl1_2 C13_2 1_555 1_555
O1_2 C8_2 1_555 1_555
O2_2 C19_2 1_555 1_555
N1_2 Cd1 1_555 1_555
N2 C30_2 1_555 1_555
C1_2 N1_2 1_555 1_555
H3_2 C1_2 1_555 1_555
C2_2 C1_2 1_555 1_555
H4_2 C2_2 1_555 1_555
C3_2 C2_2 1_555 1_555
C4_2 C3_2 1_555 1_555
H5_2 C4_2 1_555 1_555
C5_2 N1_2 1_555 1_555
C6_2 C3_2 1_555 1_555
C7_2 C6_2 1_555 1_555
H7_2 C7_2 1_555 1_555
C8_2 C7_2 1_555 1_555
C9_2 C8_2 1_555 1_555
C10_2 C9_2 1_555 1_555
C11_2 C10_2 1_555 1_555
H8_2 C11_2 1_555 1_555
C12_2 C11_2 1_555 1_555
H9_2 C12_2 1_555 1_555
C13_2 C12_2 1_555 1_555
C14_2 C13_2 1_555 1_555
H10_2 C14_2 1_555 1_555
C15_2 C6_2 1_555 1_555
C16_2 O1_2 1_555 1_555
H11_2 C16_2 1_555 1_555
H12_2 C16_2 1_555 1_555
C17_2 C16_2 1_555 1_555
H13_2 C17_2 1_555 1_555
H14_2 C17_2 1_555 1_555
H15_2 C17_2 1_555 1_555
C18_2 H16_2 1_555 1_555
H17_2 C18_2 1_555 1_555
H18_2 C18_2 1_555 1_555
C19_2 C18_2 1_555 1_555
H19_2 C19_2 1_555 1_555
H20_2 C19_2 1_555 1_555
C20_2 C9_2 1_555 1_555
C21_2 O2_2 1_555 1_555
C22_2 C21_2 1_555 1_555
H21_2 C22_2 1_555 1_555
C23_2 C22_2 1_555 1_555
C24_2 C23_2 1_555 1_555
C25_2 C24_2 1_555 1_555
H22_2 C25_2 1_555 1_555
C26_2 C25_2 1_555 1_555
C27_2 C26_2 1_555 1_555
C28_2 C27_2 1_555 1_555
H24_2 C28_2 1_555 1_555
C29_2 C20_2 1_555 1_555
C30_2 H25_2 1_555 1_555
C31_2 C30_2 1_555 1_555
H26_2 C31_2 1_555 1_555
C32_2 C23_2 1_555 1_555
C33_2 C32_2 1_555 1_555
H27_2 C33_2 1_555 1_555
C34_2 N2 1_555 1_555
H28_2 C34_2 1_555 1_555
Cd2_2 N2 1_555 1_555
O6_2 Cd1 1_555 1_555
H29_2 O6_2 1_555 1_555
H30_2 O6_2 1_555 1_555
C4_2 C5_2 1_555 1_555
C10_2 C15_2 1_555 1_555
C14_2 C15_2 1_555 1_555
C20_2 C21_2 1_555 1_555
C24_2 C29_2 1_555 1_555
C28_2 C29_2 1_555 1_555
C31_2 C32_2 1_555 1_555
C33_2 C34_2 1_555 1_555
N6 Cd1_2 1_555 1_555
Cd2_2 O3_2 1_555 1_555
O3_2 H1_2 1_555 1_555
H2_2 O3_2 1_555 1_555
Cl3_2 C47_2 1_555 1_555
Cl4_2 C60_2 1_555 1_555
O4_2 C42_2 1_555 1_555
O5_2 C53_2 1_555 1_555
N3_2 Cd2_2 1_555 1_555
N6 C64_2 1_555 1_555
C35_2 N3_2 1_555 1_555
H31_2 C35_2 1_555 1_555
C36_2 C35_2 1_555 1_555
H32_2 C36_2 1_555 1_555
C37_2 C36_2 1_555 1_555
C38_2 C37_2 1_555 1_555
H33_2 C38_2 1_555 1_555
C39_2 N3_2 1_555 1_555
H34_2 C39_2 1_555 1_555
C40_2 C37_2 1_555 1_555
C41_2 C40_2 1_555 1_555
H35_2 C41_2 1_555 1_555
C42_2 C41_2 1_555 1_555
C43_2 C42_2 1_555 1_555
C44_2 C43_2 1_555 1_555
C45_2 C44_2 1_555 1_555
H36_2 C45_2 1_555 1_555
C46_2 C45_2 1_555 1_555
H37_2 C46_2 1_555 1_555
C47_2 C46_2 1_555 1_555
C48_2 C47_2 1_555 1_555
H38_2 C48_2 1_555 1_555
C49_2 C40_2 1_555 1_555
C50_2 O4_2 1_555 1_555
H39_2 C50_2 1_555 1_555
H40_2 C50_2 1_555 1_555
C51_2 C50_2 1_555 1_555
H41_2 C51_2 1_555 1_555
H42_2 C51_2 1_555 1_555
H43_2 C51_2 1_555 1_555
C52_2 H44_2 1_555 1_555
H45_2 C52_2 1_555 1_555
H46_2 C52_2 1_555 1_555
C53_2 C52_2 1_555 1_555
H47_2 C53_2 1_555 1_555
H48_2 C53_2 1_555 1_555
C54_2 C43_2 1_555 1_555
C55_2 O5_2 1_555 1_555
C56_2 C55_2 1_555 1_555
H49_2 C56_2 1_555 1_555
C57_2 C56_2 1_555 1_555
C58_2 C57_2 1_555 1_555
C59_2 C58_2 1_555 1_555
H50_2 C59_2 1_555 1_555
C60_2 C59_2 1_555 1_555
C61_2 C60_2 1_555 1_555
H51_2 C61_2 1_555 1_555
C62_2 C61_2 1_555 1_555
H52_2 C62_2 1_555 1_555
C63_2 C54_2 1_555 1_555
C64_2 H53_2 1_555 1_555
C65_2 C64_2 1_555 1_555
H54_2 C65_2 1_555 1_555
C66_2 C57_2 1_555 1_555
C67_2 C66_2 1_555 1_555
H55_2 C67_2 1_555 1_555
C68_2 N6 1_555 1_555
H56_2 C68_2 1_555 1_555
C38_2 C39_2 1_555 1_555
C44_2 C49_2 1_555 1_555
C48_2 C49_2 1_555 1_555
C54_2 C55_2 1_555 1_555
C58_2 C63_2 1_555 1_555
C62_2 C63_2 1_555 1_555
C65_2 C66_2 1_555 1_555
C67_2 C68_2 1_555 1_555
N5_2 Cd1_3 1_555 1_555
Cl1_3 C13_3 1_555 1_555
O1_3 C8_3 1_555 1_555
O2_3 C19_3 1_555 1_555
N1_3 Cd3_3 1_555 1_555
N5_2 C30_3 1_555 1_555
C1_3 N1_3 1_555 1_555
H3_3 C1_3 1_555 1_555
C2_3 C1_3 1_555 1_555
H4_3 C2_3 1_555 1_555
C3_3 C2_3 1_555 1_555
C4_3 C3_3 1_555 1_555
H5_3 C4_3 1_555 1_555
C5_3 N1_3 1_555 1_555
C6_3 C3_3 1_555 1_555
C7_3 C6_3 1_555 1_555
H7_3 C7_3 1_555 1_555
C8_3 C7_3 1_555 1_555
C9_3 C8_3 1_555 1_555
C10_3 C9_3 1_555 1_555
C11_3 C10_3 1_555 1_555
H8_3 C11_3 1_555 1_555
C12_3 C11_3 1_555 1_555
H9_3 C12_3 1_555 1_555
C13_3 C12_3 1_555 1_555
C14_3 C13_3 1_555 1_555
H10_3 C14_3 1_555 1_555
C15_3 C6_3 1_555 1_555
C16_3 O1_3 1_555 1_555
H11_3 C16_3 1_555 1_555
H12_3 C16_3 1_555 1_555
C17_3 C16_3 1_555 1_555
H13_3 C17_3 1_555 1_555
H14_3 C17_3 1_555 1_555
H15_3 C17_3 1_555 1_555
C18_3 H16_3 1_555 1_555
H17_3 C18_3 1_555 1_555
H18_3 C18_3 1_555 1_555
C19_3 C18_3 1_555 1_555
H19_3 C19_3 1_555 1_555
H20_3 C19_3 1_555 1_555
C20_3 C9_3 1_555 1_555
C21_3 O2_3 1_555 1_555
C22_3 C21_3 1_555 1_555
H21_3 C22_3 1_555 1_555
C23_3 C22_3 1_555 1_555
C24_3 C23_3 1_555 1_555
C25_3 C24_3 1_555 1_555
H22_3 C25_3 1_555 1_555
C26_3 C25_3 1_555 1_555
C27_3 C26_3 1_555 1_555
C28_3 C27_3 1_555 1_555
H24_3 C28_3 1_555 1_555
C29_3 C20_3 1_555 1_555
C30_3 H25_3 1_555 1_555
C31_3 C30_3 1_555 1_555
H26_3 C31_3 1_555 1_555
C32_3 C23_3 1_555 1_555
C33_3 C32_3 1_555 1_555
H27_3 C33_3 1_555 1_555
C34_3 N5_2 1_555 1_555
H28_3 C34_3 1_555 1_555
O6_3 Cd3_3 1_555 1_555
H29_3 O6_3 1_555 1_555
H30_3 O6_3 1_555 1_555
C4_3 C5_3 1_555 1_555
C10_3 C15_3 1_555 1_555
C14_3 C15_3 1_555 1_555
C20_3 C21_3 1_555 1_555
C24_3 C29_3 1_555 1_555
C28_3 C29_3 1_555 1_555
C31_3 C32_3 1_555 1_555
C33_3 C34_3 1_555 1_555
Cd1_4 O3_3 1_555 1_555
O3_3 H1_3 1_555 1_555
H2_3 O3_3 1_555 1_555
Cd3_4 N4_2 1_555 1_555
Cl3_3 C47_3 1_555 1_555
O4_3 C42_3 1_555 1_555
O5_3 C53_3 1_555 1_555
N3_3 Cd1_4 1_555 1_555
N4_2 C64_3 1_555 1_555
C35_3 N3_3 1_555 1_555
H31_3 C35_3 1_555 1_555
C36_3 C35_3 1_555 1_555
H32_3 C36_3 1_555 1_555
C37_3 C36_3 1_555 1_555
C38_3 C37_3 1_555 1_555
H33_3 C38_3 1_555 1_555
C39_3 N3_3 1_555 1_555
C40_3 C37_3 1_555 1_555
C41_3 C40_3 1_555 1_555
H35_3 C41_3 1_555 1_555
C42_3 C41_3 1_555 1_555
C43_3 C42_3 1_555 1_555
C44_3 C43_3 1_555 1_555
C45_3 C44_3 1_555 1_555
H36_3 C45_3 1_555 1_555
C46_3 C45_3 1_555 1_555
H37_3 C46_3 1_555 1_555
C47_3 C46_3 1_555 1_555
C48_3 C47_3 1_555 1_555
H38_3 C48_3 1_555 1_555
C49_3 C40_3 1_555 1_555
C50_3 O4_3 1_555 1_555
H39_3 C50_3 1_555 1_555
H40_3 C50_3 1_555 1_555
C51_3 C50_3 1_555 1_555
H41_3 C51_3 1_555 1_555
H42_3 C51_3 1_555 1_555
H43_3 C51_3 1_555 1_555
C52_3 H44_3 1_555 1_555
H45_3 C52_3 1_555 1_555
H46_3 C52_3 1_555 1_555
C53_3 C52_3 1_555 1_555
H47_3 C53_3 1_555 1_555
H48_3 C53_3 1_555 1_555
C54_3 C43_3 1_555 1_555
C55_3 O5_3 1_555 1_555
C56_3 C55_3 1_555 1_555
H49_3 C56_3 1_555 1_555
C57_3 C56_3 1_555 1_555
C58_3 C57_3 1_555 1_555
C59_3 C58_3 1_555 1_555
H50_3 C59_3 1_555 1_555
C60_3 C59_3 1_555 1_555
C61_3 C60_3 1_555 1_555
C62_3 C61_3 1_555 1_555
H52_3 C62_3 1_555 1_555
C63_3 C54_3 1_555 1_555
C64_3 H53_3 1_555 1_555
C65_3 C64_3 1_555 1_555
H54_3 C65_3 1_555 1_555
C66_3 C57_3 1_555 1_555
C67_3 C66_3 1_555 1_555
H55_3 C67_3 1_555 1_555
C68_3 N4_2 1_555 1_555
H56_3 C68_3 1_555 1_555
C38_3 C39_3 1_555 1_555
C44_3 C49_3 1_555 1_555
C48_3 C49_3 1_555 1_555
C54_3 C55_3 1_555 1_555
C58_3 C63_3 1_555 1_555
C62_3 C63_3 1_555 1_555
C65_3 C66_3 1_555 1_555
C67_3 C68_3 1_555 1_555
Cl5 O7 1_555 1_555
O10 Cl5 1_555 1_555
Cl5_2 O7_2 1_555 1_555
O10_2 Cl5_2 1_555 1_555
Cl5_3 O7_3 1_555 1_555
O10_3 Cl5_3 1_555 1_555
Cl5_4 O7_4 1_555 1_555
O10_4 Cl5_4 1_555 1_555
Cl5_5 O7_5 1_555 1_555
O10_5 Cl5_5 1_555 1_555
Cl5_6 O7_6 1_555 1_555
O10_6 Cl5_6 1_555 1_555

#END
