
###############################################################################
#
# This file contains modified crystal structure data generated from the
# MOF subset of the Cambridge Structural Database (CSD) v543 
# hosted by the Cambridge Crystallographic Data Centre (CCDC).
#
# This work is licensed under the Creative Commons
# Attribution-NonCommercial-ShareAlike 4.0 International License.
# To view a copy of this license, visit
# http://creativecommons.org/licenses/by-nc-sa/4.0/
# or send a letter to
# Creative Commons, PO Box 1866, Mountain View, CA 94042, USA.
#
# CIF created using the CSD Python API on 29 September 2022
# The structure has been converted into the P1 space group
# The structure has a 3D framework
# The original CSD entry GATQIE is in the tetragonal crystal system
# The framework has been calculated to contain at least 10.0% void space
# The void calculation uses a probe of radius 1.32A, grid spacing 0.4
# H atom positions have been added when not included in the experimental data
# Generated hydrogen atom positions removed from atoms on special positions
#
###############################################################################

data_GATQIE
_chemical_formula_moiety         '(C456 H472 N48 O228 Zr48)n'
_symmetry_cell_setting           triclinic
_symmetry_space_group_name_H-M   'P 1'
_symmetry_Int_Tables_number      1
_space_group_name_Hall           'P 1'
loop_
_symmetry_equiv_pos_site_id
_symmetry_equiv_pos_as_xyz
1 x,y,z
_cell_length_a                   38.8511(3)
_cell_length_b                   38.8511(3)
_cell_length_c                   18.7521(8)
_cell_angle_alpha                90
_cell_angle_beta                 90
_cell_angle_gamma                90
_cell_volume                     28304.6
loop_
_atom_site_label
_atom_site_type_symbol
_atom_site_fract_x
_atom_site_fract_y
_atom_site_fract_z
C8 C 0.0647(3) 0.1538(3) 0.1912(8)
C9 C 0.0775(3) 0.1222(3) 0.2171(9)
C10 C 0.0686(4) 0.0909(4) 0.1881(9)
H5 H 0.055521 0.090277 0.146590
C11 C 0.0789(4) 0.0602(3) 0.2203(10)
H6 H 0.068505 0.039681 0.206184
C12 C 0.1019(4) 0.0593(3) 0.2683(9)
C13 C 0.1123(4) 0.0900(3) 0.2980(10)
H7 H 0.127938 0.089767 0.335441
C14 C 0.1003(4) 0.1202(3) 0.2741(10)
H8 H 0.107467 0.140392 0.296181
C20 C 0.1697(5) 0.0231(3) 0.4771(13)
H11 H 0.165785 0.043795 0.453716
C21 C 0.1871(5) 0.0217(3) 0.5473(10)
H12 H 0.192682 0.042309 0.569712
C23 C 0.1117(4) 0.0259(3) 0.3067(10)
N3 N 0.1318(3) 0.0261(2) 0.3600(7)
O3 O 0.04461(18) 0.15271(16) 0.1391(5)
O4 O 0.07355(18) 0.18210(17) 0.2232(5)
O5 O 0.2191(2) 0.01902(18) 0.6772(6)
Zr4 Zr 0.00994(3) 0.18923(2) 0.08577(6)
Zr5 Zr 0.05510(2) 0.26388(2) 0.03495(7)
O25 O 0.00962(19) 0.23246(19) 0.0159(6)
O26 O 0.00961(18) 0.2927(2) 0.0550(5)
O28 O 0.0547(2) 0.22032(18) 0.1040(5)
Zr7 Zr 0.00994(3) 0.31077(2) 0.16423(6)
Zr11 Zr 0.05510(2) 0.23612(2) 0.21505(7)
Zr14 Zr 0.23631(2) 0.03524(2) 0.78584(7)
O36 O 0.07355(18) 0.31790(17) 0.0268(5)
O41 O 0.00961(18) 0.2073(2) 0.1950(5)
O45 O 0.0547(2) 0.27968(18) 0.1460(5)
O48 O 0.11104(18) 0.2620(2) 0.0536(6)
Zr3 Zr 0.03524(2) 0.73631(2) 0.03584(7)
C1 C 0.0471(3) 0.8436(3) 0.1902(9)
C2 C 0.0634(4) 0.8761(3) 0.2214(9)
C3 C 0.0854(4) 0.8756(3) 0.2787(10)
H1 H 0.091258 0.854647 0.299416
C4 C 0.0988(5) 0.9050(3) 0.3057(11)
H2 H 0.111852 0.903984 0.347213
C5 C 0.0936(4) 0.9356(3) 0.2738(9)
C6 C 0.0727(4) 0.9374(4) 0.2115(10)
H3 H 0.069858 0.958041 0.186985
C7 C 0.0564(4) 0.9071(3) 0.1884(9)
H4 H 0.040916 0.907929 0.150678
C15 C 0.2119(3) 0.9903(3) 0.6524(8)
C16 C 0.1955(3) 0.9915(3) 0.5806(8)
C17 C 0.1851(4) 0.9604(3) 0.5457(10)
H9 H 0.190078 0.939141 0.566219
C18 C 0.1685(5) 0.9619(3) 0.4845(9)
H10 H 0.161894 0.941460 0.462828
C19 C 0.1603(4) 0.9938(3) 0.4499(9)
C22 C 0.1394(5) 0.9947(3) 0.3835(9)
C24 C 0.1080(4) 0.9672(3) 0.2972(10)
C25 C 0.1064(4) 0.750000 0.125000
C26 C 0.1437(4) 0.750000 0.125000
N1 N 0.1272(4) 0.9645(2) 0.3595(8)
N2 N 0.0989(3) 0.9968(2) 0.2726(7)
O1 O 0.0261(2) 0.84750(19) 0.1398(6)
O2 O 0.0548(2) 0.81698(17) 0.2246(6)
O6 O 0.2187(2) 0.96137(19) 0.6791(5)
O9 O 0.0354(3) 0.7813(2) 0.1011(6)
O11 O 0.0900(2) 0.7390(3) 0.0607(4)
O17 O 0.0900(2) 0.7610(3) 0.1893(4)
Zr10 Zr 0.23612(2) 0.94490(2) 0.78495(7)
Zr16 Zr 0.03524(2) 0.76369(2) 0.21416(7)
O34 O 0.0548(2) 0.68302(17) 0.0254(6)
O44 O 0.0354(3) 0.7187(2) 0.1489(6)
H38 H 0.153043 0.767157 0.0833561
H39 H 0.153043 0.758828 0.176607
H40 H 0.153043 0.724014 0.115037
H41 H 0.0481247 0.828014 0.00745412
Zr6 Zr 0.96476(2) 0.26369(2) 0.03584(7)
C34 C 0.9529(3) 0.1564(3) 0.1902(9)
C35 C 0.9366(4) 0.1239(3) 0.2214(9)
C36 C 0.9146(4) 0.1244(3) 0.2787(10)
H18 H 0.908742 0.145353 0.299416
C37 C 0.9012(5) 0.0950(3) 0.3057(11)
H19 H 0.888148 0.096016 0.347213
C38 C 0.9064(4) 0.0644(3) 0.2738(9)
C39 C 0.9273(4) 0.0626(4) 0.2115(10)
H20 H 0.930142 0.041959 0.186985
C40 C 0.9436(4) 0.0929(3) 0.1884(9)
H21 H 0.959084 0.092071 0.150678
C48 C 0.7881(3) 0.0097(3) 0.6524(8)
C49 C 0.8045(3) 0.0085(3) 0.5806(8)
C50 C 0.8149(4) 0.0396(3) 0.5457(10)
H26 H 0.809922 0.060859 0.566219
C51 C 0.8315(5) 0.0381(3) 0.4845(9)
H27 H 0.838106 0.058540 0.462828
C52 C 0.8397(4) 0.0062(3) 0.4499(9)
C55 C 0.8606(5) 0.0053(3) 0.3835(9)
C57 C 0.8920(4) 0.0328(3) 0.2972(10)
N4 N 0.8728(4) 0.0355(2) 0.3595(8)
N5 N 0.9011(3) 0.0032(2) 0.2726(7)
O19 O 0.9739(2) 0.15250(19) 0.1398(6)
O20 O 0.9452(2) 0.18302(17) 0.2246(6)
O24 O 0.7813(2) 0.03863(19) 0.6791(5)
O27 O 0.9646(3) 0.2187(2) 0.1011(6)
Zr9 Zr 0.76388(2) 0.05510(2) 0.78495(7)
Zr15 Zr 0.96476(2) 0.23631(2) 0.21416(7)
O33 O 0.9452(2) 0.31698(17) 0.0254(6)
O43 O 0.9646(3) 0.2813(2) 0.1489(6)
O47 O 0.9100(2) 0.2610(3) 0.0607(4)
H32 H 0.961565 0.148126 0.0180583
Zr1 Zr 0.99006(3) 0.81077(2) 0.08577(6)
Zr2 Zr 0.94490(2) 0.73612(2) 0.03495(7)
C27 C 0.8809(3) 0.750000 0.125000
C28 C 0.84210(4) 0.750000 0.125000
C29 C 0.82412(4) 0.74210(17) 0.06295(9)
H13 H 0.836057 0.737343 0.021132
C30 C 0.78827(4) 0.74210(17) 0.06295(9)
H14 H 0.776320 0.737363 0.021132
C31 C 0.77029(4) 0.750000 0.125000
H15 H 0.746361 0.750000 0.125000
O7 O 0.99038(19) 0.76754(19) 0.0159(6)
O8 O 0.99039(18) 0.7073(2) 0.0550(5)
O10 O 0.9453(2) 0.77968(18) 0.1040(5)
O12 O 0.88896(18) 0.7380(2) 0.0536(6)
C32 C 0.82412(4) 0.75790(17) 0.18705(9)
H16 H 0.836057 0.762657 0.228868
C33 C 0.78827(4) 0.75790(17) 0.18705(9)
H17 H 0.776320 0.762637 0.228868
O18 O 0.88896(18) 0.7620(2) 0.1964(6)
C41 C 0.9353(3) 0.8462(3) 0.1912(8)
C42 C 0.9225(3) 0.8778(3) 0.2171(9)
C43 C 0.9314(4) 0.9091(4) 0.1881(9)
H22 H 0.944479 0.909723 0.146590
C44 C 0.9211(4) 0.9398(3) 0.2203(10)
H23 H 0.931495 0.960319 0.206184
C45 C 0.8981(4) 0.9407(3) 0.2683(9)
C46 C 0.8877(4) 0.9100(3) 0.2980(10)
H24 H 0.872062 0.910233 0.335441
C47 C 0.8997(4) 0.8798(3) 0.2741(10)
H25 H 0.892533 0.859608 0.296181
C53 C 0.8303(5) 0.9769(3) 0.4771(13)
H28 H 0.834215 0.956205 0.453716
C54 C 0.8129(5) 0.9783(3) 0.5473(10)
H29 H 0.807318 0.957691 0.569712
C56 C 0.8883(4) 0.9741(3) 0.3067(10)
N6 N 0.8682(3) 0.9739(2) 0.3600(7)
O21 O 0.95539(18) 0.84729(16) 0.1391(5)
O22 O 0.92645(18) 0.81790(17) 0.2232(5)
O23 O 0.7809(2) 0.98098(18) 0.6772(6)
Zr8 Zr 0.99006(3) 0.68923(2) 0.16423(6)
Zr12 Zr 0.94490(2) 0.76388(2) 0.21505(7)
Zr13 Zr 0.76369(2) 0.96476(2) 0.78584(7)
O35 O 0.92645(18) 0.68210(17) 0.0268(5)
O42 O 0.99039(18) 0.7927(2) 0.1950(5)
O46 O 0.9453(2) 0.72032(18) 0.1460(5)
C27_2 C 0.1191(3) 0.250000 0.125000
C28_2 C 0.15790(4) 0.250000 0.125000
C29_2 C 0.17588(4) 0.25790(17) 0.06295(9)
H13_2 H 0.163943 0.262657 0.021132
C30_2 C 0.21173(4) 0.25790(17) 0.06295(9)
H14_2 H 0.223680 0.262637 0.021132
C31_2 C 0.22971(4) 0.250000 0.125000
H15_2 H 0.253639 0.250000 0.125000
C32_2 C 0.17588(4) 0.24210(17) 0.18705(9)
H16_2 H 0.163943 0.237343 0.228868
C33_2 C 0.21173(4) 0.24210(17) 0.18705(9)
H17_2 H 0.223680 0.237363 0.228868
O18_2 O 0.11104(18) 0.2380(2) 0.1964(6)
H32_2 H 0.0384348 0.851874 0.0180583
C25_2 C 0.8936(4) 0.250000 0.125000
C26_2 C 0.8563(4) 0.250000 0.125000
O17_2 O 0.9100(2) 0.2390(3) 0.1893(4)
H38_2 H 0.846957 0.232843 0.0833561
H39_2 H 0.846957 0.241172 0.176607
H40_2 H 0.846957 0.275986 0.115037
H41_2 H 0.951875 0.171986 0.00745412
Zr6_2 Zr 0.26369(2) 0.03524(2) 0.96416(7)
C34_2 C 0.1564(3) 0.0471(3) 0.8098(9)
C35_2 C 0.1239(3) 0.0634(4) 0.7786(9)
C36_2 C 0.1244(3) 0.0854(4) 0.7213(10)
H18_2 H 0.145353 0.091258 0.700584
C37_2 C 0.0950(3) 0.0988(5) 0.6943(11)
H19_2 H 0.096016 0.111852 0.652787
C38_2 C 0.0644(3) 0.0936(4) 0.7262(9)
C39_2 C 0.0626(4) 0.0727(4) 0.7885(10)
H20_2 H 0.041959 0.069858 0.813015
C40_2 C 0.0929(3) 0.0564(4) 0.8116(9)
H21_2 H 0.092071 0.040916 0.849322
C48_2 C 0.0097(3) 0.2119(3) 0.3476(8)
C49_2 C 0.0085(3) 0.1955(3) 0.4194(8)
C50_2 C 0.0396(3) 0.1851(4) 0.4543(10)
H26_2 H 0.060859 0.190078 0.433781
C51_2 C 0.0381(3) 0.1685(5) 0.5155(9)
H27_2 H 0.058540 0.161894 0.537172
C52_2 C 0.0062(3) 0.1603(4) 0.5501(9)
C55_2 C 0.0053(3) 0.1394(5) 0.6165(9)
C57_2 C 0.0328(3) 0.1080(4) 0.7028(10)
N4_2 N 0.0355(2) 0.1272(4) 0.6405(8)
N5_2 N 0.0032(2) 0.0989(3) 0.7274(7)
O19_2 O 0.15250(19) 0.0261(2) 0.8602(6)
O20_2 O 0.18302(17) 0.0548(2) 0.7754(6)
O24_2 O 0.03863(19) 0.2187(2) 0.3209(5)
O27_2 O 0.2187(2) 0.0354(3) 0.8989(6)
O33_2 O 0.31698(17) 0.0548(2) 0.9746(6)
O43_2 O 0.2813(2) 0.0354(3) 0.8511(6)
O47_2 O 0.2610(3) 0.0900(2) 0.9393(4)
H32_3 H 0.148126 0.0384348 0.981942
C8_2 C 0.1538(3) 0.9353(3) 0.8088(8)
C9_2 C 0.1222(3) 0.9225(3) 0.7829(9)
C10_2 C 0.0909(4) 0.9314(4) 0.8119(9)
H5_2 H 0.090277 0.944479 0.853410
C11_2 C 0.0602(3) 0.9211(4) 0.7797(10)
H6_2 H 0.039681 0.931495 0.793816
C12_2 C 0.0593(3) 0.8981(4) 0.7317(9)
C13_2 C 0.0900(3) 0.8877(4) 0.7020(10)
H7_2 H 0.089767 0.872062 0.664559
C14_2 C 0.1202(3) 0.8997(4) 0.7259(10)
H8_2 H 0.140392 0.892533 0.703819
C20_2 C 0.0231(3) 0.8303(5) 0.5229(13)
H11_2 H 0.043795 0.834215 0.546284
C21_2 C 0.0217(3) 0.8129(5) 0.4527(10)
H12_2 H 0.042309 0.807318 0.430288
C23_2 C 0.0259(3) 0.8883(4) 0.6933(10)
N3_2 N 0.0261(2) 0.8682(3) 0.6400(7)
O3_2 O 0.15271(16) 0.95539(18) 0.8609(5)
O4_2 O 0.18210(17) 0.92645(18) 0.7768(5)
O5_2 O 0.01902(18) 0.7809(2) 0.3228(6)
Zr4_2 Zr 0.18923(2) 0.99006(3) 0.91423(6)
Zr5_2 Zr 0.26388(2) 0.94490(2) 0.96505(7)
O25_2 O 0.23246(19) 0.99038(19) 0.9841(6)
O26_2 O 0.2927(2) 0.99039(18) 0.9450(5)
O28_2 O 0.22032(18) 0.9453(2) 0.8960(5)
Zr7_2 Zr 0.31077(2) 0.99006(3) 0.83577(6)
O36_2 O 0.31790(17) 0.92645(18) 0.9732(5)
O41_2 O 0.2073(2) 0.99039(18) 0.8050(5)
O45_2 O 0.27968(18) 0.9453(2) 0.8540(5)
O48_2 O 0.2620(2) 0.88896(18) 0.9464(6)
Zr1_2 Zr 0.81077(2) 0.00994(3) 0.91423(6)
Zr2_2 Zr 0.73612(2) 0.05510(2) 0.96505(7)
C27_3 C 0.750000 0.1191(3) 0.875000
C28_3 C 0.750000 0.15790(4) 0.875000
C29_3 C 0.74210(17) 0.17588(4) 0.93705(9)
H13_3 H 0.737343 0.163943 0.978868
C30_3 C 0.74210(17) 0.21173(4) 0.93705(9)
H14_3 H 0.737363 0.223680 0.978868
C31_3 C 0.750000 0.22971(4) 0.875000
H15_3 H 0.750000 0.253639 0.875000
O7_2 O 0.76754(19) 0.00962(19) 0.9841(6)
O8_2 O 0.7073(2) 0.00961(18) 0.9450(5)
O10_2 O 0.77968(18) 0.0547(2) 0.8960(5)
O12_2 O 0.7380(2) 0.11104(18) 0.9464(6)
C32_3 C 0.75790(17) 0.17588(4) 0.81295(9)
H16_3 H 0.762657 0.163943 0.771132
C33_3 C 0.75790(17) 0.21173(4) 0.81295(9)
H17_3 H 0.762637 0.223680 0.771132
O18_3 O 0.7620(2) 0.11104(18) 0.8036(6)
C41_2 C 0.8462(3) 0.0647(3) 0.8088(8)
C42_2 C 0.8778(3) 0.0775(3) 0.7829(9)
C43_2 C 0.9091(4) 0.0686(4) 0.8119(9)
H22_2 H 0.909723 0.055521 0.853410
C44_2 C 0.9398(3) 0.0789(4) 0.7797(10)
H23_2 H 0.960319 0.068505 0.793816
C45_2 C 0.9407(3) 0.1019(4) 0.7317(9)
C46_2 C 0.9100(3) 0.1123(4) 0.7020(10)
H24_2 H 0.910233 0.127938 0.664559
C47_2 C 0.8798(3) 0.1003(4) 0.7259(10)
H25_2 H 0.859608 0.107467 0.703819
C53_2 C 0.9769(3) 0.1697(5) 0.5229(13)
H28_2 H 0.956205 0.165785 0.546284
C54_2 C 0.9783(3) 0.1871(5) 0.4527(10)
H29_2 H 0.957691 0.192682 0.430288
C56_2 C 0.9741(3) 0.1117(4) 0.6933(10)
N6_2 N 0.9739(2) 0.1318(3) 0.6400(7)
O21_2 O 0.84729(16) 0.04461(18) 0.8609(5)
O22_2 O 0.81790(17) 0.07355(18) 0.7768(5)
O23_2 O 0.98098(18) 0.2191(2) 0.3228(6)
Zr8_2 Zr 0.68923(2) 0.00994(3) 0.83577(6)
O35_2 O 0.68210(17) 0.07355(18) 0.9732(5)
O42_2 O 0.7927(2) 0.00961(18) 0.8050(5)
O46_2 O 0.72032(18) 0.0547(2) 0.8540(5)
Zr3_2 Zr 0.73631(2) 0.96476(2) 0.96416(7)
C1_2 C 0.8436(3) 0.9529(3) 0.8098(9)
C2_2 C 0.8761(3) 0.9366(4) 0.7786(9)
C3_2 C 0.8756(3) 0.9146(4) 0.7213(10)
H1_2 H 0.854647 0.908742 0.700584
C4_2 C 0.9050(3) 0.9012(5) 0.6943(11)
H2_2 H 0.903984 0.888148 0.652787
C5_2 C 0.9356(3) 0.9064(4) 0.7262(9)
C6_2 C 0.9374(4) 0.9273(4) 0.7885(10)
H3_2 H 0.958041 0.930142 0.813015
C7_2 C 0.9071(3) 0.9436(4) 0.8116(9)
H4_2 H 0.907929 0.959084 0.849322
C15_2 C 0.9903(3) 0.7881(3) 0.3476(8)
C16_2 C 0.9915(3) 0.8045(3) 0.4194(8)
C17_2 C 0.9604(3) 0.8149(4) 0.4543(10)
H9_2 H 0.939141 0.809922 0.433781
C18_2 C 0.9619(3) 0.8315(5) 0.5155(9)
H10_2 H 0.941460 0.838106 0.537172
C19_2 C 0.9938(3) 0.8397(4) 0.5501(9)
C22_2 C 0.9947(3) 0.8606(5) 0.6165(9)
C24_2 C 0.9672(3) 0.8920(4) 0.7028(10)
C25_3 C 0.750000 0.8936(4) 0.875000
C26_3 C 0.750000 0.8563(4) 0.875000
N1_2 N 0.9645(2) 0.8728(4) 0.6405(8)
N2_2 N 0.9968(2) 0.9011(3) 0.7274(7)
O1_2 O 0.84750(19) 0.9739(2) 0.8602(6)
O2_2 O 0.81698(17) 0.9452(2) 0.7754(6)
O6_2 O 0.96137(19) 0.7813(2) 0.3209(5)
O9_2 O 0.7813(2) 0.9646(3) 0.8989(6)
O11_2 O 0.7390(3) 0.9100(2) 0.9393(4)
O17_3 O 0.7610(3) 0.9100(2) 0.8107(4)
O34_2 O 0.68302(17) 0.9452(2) 0.9746(6)
O44_2 O 0.7187(2) 0.9646(3) 0.8511(6)
H38_3 H 0.767157 0.846957 0.916644
H39_3 H 0.758828 0.846957 0.823393
H40_3 H 0.724014 0.846957 0.884963
H41_3 H 0.828014 0.951875 0.992546
C25_4 C 0.250000 0.1064(4) 0.875000
C26_4 C 0.250000 0.1437(4) 0.875000
O17_4 O 0.2390(3) 0.0900(2) 0.8107(4)
H38_4 H 0.232843 0.153043 0.916644
H39_4 H 0.241172 0.153043 0.823393
H40_4 H 0.275986 0.153043 0.884963
H41_4 H 0.171986 0.0481247 0.992546
C27_4 C 0.250000 0.8809(3) 0.875000
C28_4 C 0.250000 0.84210(4) 0.875000
C29_4 C 0.25790(17) 0.82412(4) 0.93705(9)
H13_4 H 0.262657 0.836057 0.978868
C30_4 C 0.25790(17) 0.78827(4) 0.93705(9)
H14_4 H 0.262637 0.776320 0.978868
C31_4 C 0.250000 0.77029(4) 0.875000
H15_4 H 0.250000 0.746361 0.875000
C32_4 C 0.24210(17) 0.82412(4) 0.81295(9)
H16_4 H 0.237343 0.836057 0.771132
C33_4 C 0.24210(17) 0.78827(4) 0.81295(9)
H17_4 H 0.237363 0.776320 0.771132
O18_4 O 0.2380(2) 0.88896(18) 0.8036(6)
H32_4 H 0.851874 0.961565 0.981942
O7_3 O 0.73246(19) 0.00962(19) 0.7659(6)
O14 O 0.6680(2) 0.0429(3) 0.7480(6)
O15 O 0.7267(3) 0.0771(2) 0.7099(7)
C34_3 C 0.3436(3) 0.0471(3) 0.9402(9)
C35_3 C 0.3761(3) 0.0634(4) 0.9714(9)
C39_3 C 0.4374(4) 0.0727(4) 0.9615(10)
H20_3 H 0.458041 0.069858 0.936985
C40_3 C 0.4071(3) 0.0564(4) 0.9384(9)
H21_3 H 0.407929 0.040916 0.900678
C41_3 C 0.6538(3) 0.0647(3) 0.9412(8)
C42_3 C 0.6222(3) 0.0775(3) 0.9671(9)
C43_3 C 0.5909(4) 0.0686(4) 0.9381(9)
H22_3 H 0.590277 0.055521 0.896590
C44_3 C 0.5602(3) 0.0789(4) 0.9703(10)
H23_3 H 0.539681 0.068505 0.956184
O19_3 O 0.34750(19) 0.0261(2) 0.8898(6)
O21_3 O 0.65271(16) 0.04461(18) 0.8891(5)
O29 O 0.3335(3) 0.0236(3) 0.7478(6)
O32 O 0.2719(3) 0.0591(2) 0.7060(6)
H36 H 0.295917 0.0578237 0.723921
H37 H 0.265421 0.0835644 0.69859
H43 H 0.72789 0.0644387 0.663966
H44 H 0.732215 0.101742 0.701707
C1_3 C 0.6564(3) 0.9529(3) 0.9402(9)
C2_3 C 0.6239(3) 0.9366(4) 0.9714(9)
C6_3 C 0.5626(4) 0.9273(4) 0.9615(10)
H3_3 H 0.541959 0.930142 0.936985
C7_3 C 0.5929(3) 0.9436(4) 0.9384(9)
H4_3 H 0.592071 0.959084 0.900678
C8_3 C 0.3462(3) 0.9353(3) 0.9412(8)
C9_3 C 0.3778(3) 0.9225(3) 0.9671(9)
C10_3 C 0.4091(4) 0.9314(4) 0.9381(9)
H5_3 H 0.409723 0.944479 0.896590
C11_3 C 0.4398(3) 0.9211(4) 0.9703(10)
H6_3 H 0.460319 0.931495 0.956184
O1_3 O 0.65250(19) 0.9739(2) 0.8898(6)
O3_3 O 0.34729(16) 0.95539(18) 0.8891(5)
O13 O 0.6665(3) 0.9764(3) 0.7478(6)
O16 O 0.7281(3) 0.9409(2) 0.7060(6)
O25_3 O 0.26754(19) 0.99038(19) 0.7659(6)
O30 O 0.3320(2) 0.9571(3) 0.7480(6)
O31 O 0.2733(3) 0.9229(2) 0.7099(7)
H30 H 0.27211 0.935561 0.663966
H31 H 0.267785 0.898258 0.701707
H38_5 H 0.732843 0.846957 0.833356
H39_5 H 0.741172 0.846957 0.926607
H40_5 H 0.775986 0.846957 0.865037
H45 H 0.704083 0.942176 0.723921
H46 H 0.734579 0.916436 0.69859
H38_6 H 0.267157 0.153043 0.833356
H39_6 H 0.258828 0.153043 0.926607
H40_6 H 0.224014 0.153043 0.865037
O7_4 O 0.00962(19) 0.26754(19) 0.2341(6)
O14_2 O 0.0429(3) 0.3320(2) 0.2520(6)
O15_2 O 0.0771(2) 0.2733(3) 0.2901(7)
C34_4 C 0.0471(3) 0.6564(3) 0.0598(9)
C35_4 C 0.0634(4) 0.6239(3) 0.0286(9)
C39_4 C 0.0727(4) 0.5626(4) 0.0385(10)
H20_4 H 0.069858 0.541959 0.063015
C40_4 C 0.0564(4) 0.5929(3) 0.0616(9)
H21_4 H 0.040916 0.592071 0.099322
C41_4 C 0.0647(3) 0.3462(3) 0.0588(8)
C42_4 C 0.0775(3) 0.3778(3) 0.0329(9)
C43_4 C 0.0686(4) 0.4091(4) 0.0619(9)
H22_4 H 0.055521 0.409723 0.103410
C44_4 C 0.0789(4) 0.4398(3) 0.0297(10)
H23_4 H 0.068505 0.460319 0.043816
O19_4 O 0.0261(2) 0.65250(19) 0.1102(6)
O21_4 O 0.04461(18) 0.34729(16) 0.1109(5)
O29_2 O 0.0236(3) 0.6665(3) 0.2522(6)
O32_2 O 0.0591(2) 0.7281(3) 0.2940(6)
H36_2 H 0.0578237 0.704083 0.276079
H37_2 H 0.0835644 0.734579 0.30141
H43_2 H 0.0644387 0.27211 0.336034
H44_2 H 0.101742 0.267785 0.298293
C1_4 C 0.9529(3) 0.3436(3) 0.0598(9)
C2_4 C 0.9366(4) 0.3761(3) 0.0286(9)
C6_4 C 0.9273(4) 0.4374(4) 0.0385(10)
H3_4 H 0.930142 0.458041 0.063015
C7_4 C 0.9436(4) 0.4071(3) 0.0616(9)
H4_4 H 0.959084 0.407929 0.099322
C8_4 C 0.9353(3) 0.6538(3) 0.0588(8)
C9_4 C 0.9225(3) 0.6222(3) 0.0329(9)
C10_4 C 0.9314(4) 0.5909(4) 0.0619(9)
H5_4 H 0.944479 0.590277 0.103410
C11_4 C 0.9211(4) 0.5602(3) 0.0297(10)
H6_4 H 0.931495 0.539681 0.043816
O1_4 O 0.9739(2) 0.34750(19) 0.1102(6)
O3_4 O 0.95539(18) 0.65271(16) 0.1109(5)
O13_2 O 0.9764(3) 0.3335(3) 0.2522(6)
O16_2 O 0.9409(2) 0.2719(3) 0.2940(6)
O25_4 O 0.99038(19) 0.73246(19) 0.2341(6)
O30_2 O 0.9571(3) 0.6680(2) 0.2520(6)
O31_2 O 0.9229(2) 0.7267(3) 0.2901(7)
H30_2 H 0.935561 0.72789 0.336034
H31_2 H 0.898258 0.732215 0.298293
H38_7 H 0.846957 0.267157 0.166644
H39_7 H 0.846957 0.258828 0.0733934
H40_7 H 0.846957 0.224014 0.134963
H45_2 H 0.942176 0.295917 0.276079
H46_2 H 0.916436 0.265421 0.30141
H38_8 H 0.153043 0.732843 0.166644
H39_8 H 0.153043 0.741172 0.0733934
H40_8 H 0.153043 0.775986 0.134963
O30_3 O 0.0429(3) 0.1680(2) 0.9980(6)
O31_3 O 0.0771(2) 0.2267(3) 0.9599(7)
O39 O 0.03863(19) 0.2813(2) 0.9291(5)
H30_3 H 0.0644387 0.22789 0.913966
H31_3 H 0.101742 0.232215 0.951707
O13_3 O 0.0236(3) 0.8335(3) 0.9978(6)
O16_3 O 0.0591(2) 0.7719(3) 0.9560(6)
O38 O 0.01902(18) 0.7191(2) 0.9272(6)
H42 H 0.0167668 0.82352 0.95115
H45_3 H 0.0578237 0.795917 0.973921
H46_3 H 0.0835644 0.765421 0.94859
O29_3 O 0.9764(3) 0.1665(3) 0.9978(6)
O32_3 O 0.9409(2) 0.2281(3) 0.9560(6)
O37 O 0.98098(18) 0.2809(2) 0.9272(6)
H33 H 0.961723 0.184871 0.977047
H36_3 H 0.942176 0.204083 0.973921
H37_3 H 0.916436 0.234579 0.94859
O14_3 O 0.9571(3) 0.8320(2) 0.9980(6)
O15_3 O 0.9229(2) 0.7733(3) 0.9599(7)
O40 O 0.96137(19) 0.7187(2) 0.9291(5)
H43_3 H 0.935561 0.77211 0.913966
H44_3 H 0.898258 0.767785 0.951707
H33_2 H 0.0382774 0.815129 0.977047
H42_2 H 0.983233 0.17648 0.95115
C15_3 C 0.7119(3) 0.4903(3) 0.1524(8)
C16_3 C 0.6955(3) 0.4915(3) 0.0806(8)
C17_3 C 0.6851(4) 0.4604(3) 0.0457(10)
H9_3 H 0.690078 0.439141 0.066219
C21_3 C 0.6871(5) 0.5217(3) 0.0473(10)
H12_3 H 0.692682 0.542309 0.069712
O5_3 O 0.7191(2) 0.51902(18) 0.1772(6)
O6_3 O 0.7187(2) 0.46137(19) 0.1791(5)
C48_3 C 0.2881(3) 0.5097(3) 0.1524(8)
C49_3 C 0.3045(3) 0.5085(3) 0.0806(8)
C50_3 C 0.3149(4) 0.5396(3) 0.0457(10)
H26_3 H 0.309922 0.560859 0.066219
C54_3 C 0.3129(5) 0.4783(3) 0.0473(10)
H29_3 H 0.307318 0.457691 0.069712
O23_3 O 0.2809(2) 0.48098(18) 0.1772(6)
O24_3 O 0.2813(2) 0.53863(19) 0.1791(5)
Zr9_2 Zr 0.26388(2) 0.55510(2) 0.28495(7)
Zr10_2 Zr 0.73612(2) 0.44490(2) 0.28495(7)
Zr13_2 Zr 0.26369(2) 0.46476(2) 0.28584(7)
Zr14_2 Zr 0.73631(2) 0.53524(2) 0.28584(7)
Zr1_3 Zr 0.31077(2) 0.50994(3) 0.41423(6)
Zr2_3 Zr 0.23612(2) 0.55510(2) 0.46505(7)
Zr3_3 Zr 0.23631(2) 0.46476(2) 0.46416(7)
C1_5 C 0.3436(3) 0.4529(3) 0.3098(9)
C2_5 C 0.3761(3) 0.4366(4) 0.2786(9)
C3_3 C 0.3756(3) 0.4146(4) 0.2213(10)
H1_3 H 0.354647 0.408742 0.200584
C4_3 C 0.4050(3) 0.4012(5) 0.1943(11)
H2_3 H 0.403984 0.388148 0.152787
C5_3 C 0.4356(3) 0.4064(4) 0.2262(9)
C6_5 C 0.4374(4) 0.4273(4) 0.2885(10)
H3_5 H 0.458041 0.430142 0.313015
C7_5 C 0.4071(3) 0.4436(4) 0.3116(9)
H4_5 H 0.407929 0.459084 0.349322
C8_5 C 0.6538(3) 0.4353(3) 0.3088(8)
C9_5 C 0.6222(3) 0.4225(3) 0.2829(9)
C10_5 C 0.5909(4) 0.4314(4) 0.3119(9)
H5_5 H 0.590277 0.444479 0.353410
C11_5 C 0.5602(3) 0.4211(4) 0.2797(10)
H6_5 H 0.539681 0.431495 0.293816
C12_3 C 0.5593(3) 0.3981(4) 0.2317(9)
C13_3 C 0.5900(3) 0.3877(4) 0.2020(10)
H7_3 H 0.589767 0.372062 0.164559
C14_3 C 0.6202(3) 0.3997(4) 0.2259(10)
H8_3 H 0.640392 0.392533 0.203819
C18_3 C 0.4619(3) 0.3315(5) 0.0155(9)
H10_3 H 0.441460 0.338106 0.037172
C19_3 C 0.4938(3) 0.3397(4) 0.0501(9)
C20_3 C 0.5231(3) 0.3303(5) 0.0229(13)
H11_3 H 0.543795 0.334215 0.046284
C22_3 C 0.4947(3) 0.3606(5) 0.1165(9)
C23_3 C 0.5259(3) 0.3883(4) 0.1933(10)
C24_3 C 0.4672(3) 0.3920(4) 0.2028(10)
C25_5 C 0.250000 0.3936(4) 0.375000
C26_5 C 0.250000 0.3563(4) 0.375000
C27_5 C 0.250000 0.6191(3) 0.375000
C28_5 C 0.250000 0.65790(4) 0.375000
C29_5 C 0.24210(17) 0.67588(4) 0.43705(9)
H13_5 H 0.237343 0.663943 0.478868
C30_5 C 0.24210(17) 0.71173(4) 0.43705(9)
H14_5 H 0.237363 0.723680 0.478868
C31_5 C 0.250000 0.72971(4) 0.375000
H15_5 H 0.250000 0.753639 0.375000
N1_3 N 0.4645(2) 0.3728(4) 0.1405(8)
N2_3 N 0.4968(2) 0.4011(3) 0.2274(7)
N3_3 N 0.5261(2) 0.3682(3) 0.1400(7)
O1_5 O 0.34750(19) 0.4739(2) 0.3602(6)
O2_3 O 0.31698(17) 0.4452(2) 0.2754(6)
O3_5 O 0.65271(16) 0.45539(18) 0.3609(5)
O4_3 O 0.68210(17) 0.42645(18) 0.2768(5)
O7_5 O 0.26754(19) 0.50962(19) 0.4841(6)
O8_3 O 0.2073(2) 0.50961(18) 0.4450(5)
O9_3 O 0.2813(2) 0.4646(3) 0.3989(6)
O10_3 O 0.27968(18) 0.5547(2) 0.3960(5)
O11_3 O 0.2390(3) 0.4100(2) 0.4393(4)
O12_3 O 0.2380(2) 0.61104(18) 0.4464(6)
O13_4 O 0.3335(3) 0.4764(3) 0.5022(6)
O14_4 O 0.3320(2) 0.5429(3) 0.5020(6)
O15_4 O 0.2733(3) 0.5771(2) 0.5401(7)
O16_4 O 0.2719(3) 0.4409(2) 0.5440(6)
O17_5 O 0.2610(3) 0.4100(2) 0.3107(4)
C32_5 C 0.25790(17) 0.67588(4) 0.31295(9)
H16_5 H 0.262657 0.663943 0.271132
C33_5 C 0.25790(17) 0.71173(4) 0.31295(9)
H17_5 H 0.262637 0.723680 0.271132
O18_5 O 0.2620(2) 0.61104(18) 0.3036(6)
Zr4_3 Zr 0.68923(2) 0.49006(3) 0.41423(6)
Zr5_3 Zr 0.76388(2) 0.44490(2) 0.46505(7)
Zr6_3 Zr 0.76369(2) 0.53524(2) 0.46416(7)
C34_5 C 0.6564(3) 0.5471(3) 0.3098(9)
C35_5 C 0.6239(3) 0.5634(4) 0.2786(9)
C36_3 C 0.6244(3) 0.5854(4) 0.2213(10)
H18_3 H 0.645353 0.591258 0.200584
C37_3 C 0.5950(3) 0.5988(5) 0.1943(11)
H19_3 H 0.596016 0.611852 0.152787
C38_3 C 0.5644(3) 0.5936(4) 0.2262(9)
C39_5 C 0.5626(4) 0.5727(4) 0.2885(10)
H20_5 H 0.541959 0.569858 0.313015
C40_5 C 0.5929(3) 0.5564(4) 0.3116(9)
H21_5 H 0.592071 0.540916 0.349322
C41_5 C 0.3462(3) 0.5647(3) 0.3088(8)
C42_5 C 0.3778(3) 0.5775(3) 0.2829(9)
C43_5 C 0.4091(4) 0.5686(4) 0.3119(9)
H22_5 H 0.409723 0.555521 0.353410
C44_5 C 0.4398(3) 0.5789(4) 0.2797(10)
H23_5 H 0.460319 0.568505 0.293816
C45_3 C 0.4407(3) 0.6019(4) 0.2317(9)
C46_3 C 0.4100(3) 0.6123(4) 0.2020(10)
H24_3 H 0.410233 0.627938 0.164559
C47_3 C 0.3798(3) 0.6003(4) 0.2259(10)
H25_3 H 0.359608 0.607467 0.203819
C51_3 C 0.5381(3) 0.6685(5) 0.0155(9)
H27_3 H 0.558540 0.661894 0.037172
C52_3 C 0.5062(3) 0.6603(4) 0.0501(9)
C53_3 C 0.4769(3) 0.6697(5) 0.0229(13)
H28_3 H 0.456205 0.665785 0.046284
C55_3 C 0.5053(3) 0.6394(5) 0.1165(9)
C56_3 C 0.4741(3) 0.6117(4) 0.1933(10)
C57_3 C 0.5328(3) 0.6080(4) 0.2028(10)
N4_3 N 0.5355(2) 0.6272(4) 0.1405(8)
N5_3 N 0.5032(2) 0.5989(3) 0.2274(7)
N6_3 N 0.4739(2) 0.6318(3) 0.1400(7)
O19_5 O 0.65250(19) 0.5261(2) 0.3602(6)
O20_3 O 0.68302(17) 0.5548(2) 0.2754(6)
O21_5 O 0.34729(16) 0.54461(18) 0.3609(5)
O22_3 O 0.31790(17) 0.57355(18) 0.2768(5)
O25_5 O 0.73246(19) 0.49038(19) 0.4841(6)
O26_3 O 0.7927(2) 0.49039(18) 0.4450(5)
O27_3 O 0.7187(2) 0.5354(3) 0.3989(6)
O28_3 O 0.72032(18) 0.4453(2) 0.3960(5)
O29_4 O 0.6665(3) 0.5236(3) 0.5022(6)
O30_4 O 0.6680(2) 0.4571(3) 0.5020(6)
O31_4 O 0.7267(3) 0.4229(2) 0.5401(7)
O32_4 O 0.7281(3) 0.5591(2) 0.5440(6)
Zr7_3 Zr 0.81077(2) 0.49006(3) 0.33577(6)
Zr8_3 Zr 0.18923(2) 0.50994(3) 0.33577(6)
O33_3 O 0.81698(17) 0.5548(2) 0.4746(6)
O34_3 O 0.18302(17) 0.4452(2) 0.4746(6)
O35_3 O 0.18210(17) 0.57355(18) 0.4732(5)
O36_3 O 0.81790(17) 0.42645(18) 0.4732(5)
O37_2 O 0.7809(2) 0.51902(18) 0.5728(6)
O38_2 O 0.2191(2) 0.48098(18) 0.5728(6)
O39_2 O 0.7813(2) 0.46137(19) 0.5709(5)
O40_2 O 0.2187(2) 0.53863(19) 0.5709(5)
O41_3 O 0.7073(2) 0.49039(18) 0.3050(5)
O42_3 O 0.2927(2) 0.50961(18) 0.3050(5)
O43_3 O 0.7813(2) 0.5354(3) 0.3511(6)
O44_3 O 0.2187(2) 0.4646(3) 0.3511(6)
O45_3 O 0.77968(18) 0.4453(2) 0.3540(5)
O46_3 O 0.22032(18) 0.5547(2) 0.3540(5)
O47_3 O 0.7610(3) 0.5900(2) 0.4393(4)
O48_3 O 0.7620(2) 0.38896(18) 0.4464(6)
H30_4 H 0.72789 0.435561 0.586034
H31_4 H 0.732215 0.398258 0.548293
H36_4 H 0.704083 0.557824 0.526079
H37_4 H 0.734579 0.583564 0.55141
H38_9 H 0.267157 0.346957 0.416644
H39_9 H 0.258828 0.346957 0.323393
H40_9 H 0.224014 0.346957 0.384963
H43_4 H 0.27211 0.564439 0.586034
H44_4 H 0.267785 0.601742 0.548293
H45_4 H 0.295917 0.442176 0.526079
H46_4 H 0.265421 0.416436 0.55141
C25_6 C 0.750000 0.6064(4) 0.375000
C26_6 C 0.750000 0.6437(4) 0.375000
C27_6 C 0.750000 0.3809(3) 0.375000
C28_6 C 0.750000 0.34210(4) 0.375000
C29_6 C 0.75790(17) 0.32412(4) 0.43705(9)
H13_6 H 0.762657 0.336057 0.478868
C30_6 C 0.75790(17) 0.28827(4) 0.43705(9)
H14_6 H 0.762637 0.276320 0.478868
C31_6 C 0.750000 0.27029(4) 0.375000
H15_6 H 0.750000 0.246361 0.375000
O17_6 O 0.7390(3) 0.5900(2) 0.3107(4)
C32_6 C 0.74210(17) 0.32412(4) 0.31295(9)
H16_6 H 0.737343 0.336057 0.271132
C33_6 C 0.74210(17) 0.28827(4) 0.31295(9)
H17_6 H 0.737363 0.276320 0.271132
O18_6 O 0.7380(2) 0.38896(18) 0.3036(6)
H38_10 H 0.732843 0.653043 0.416644
H39_10 H 0.741172 0.653043 0.323393
H40_10 H 0.775986 0.653043 0.384963
C36_4 C 0.0854(4) 0.6244(3) 0.9713(10)
H18_4 H 0.091258 0.645353 0.950584
C37_4 C 0.0988(5) 0.5950(3) 0.9443(11)
H19_4 H 0.111852 0.596016 0.902787
C38_4 C 0.0936(4) 0.5644(3) 0.9762(9)
C45_4 C 0.1019(4) 0.4407(3) 0.9817(9)
C46_4 C 0.1123(4) 0.4100(3) 0.9520(10)
H24_4 H 0.127938 0.410233 0.914559
C47_4 C 0.1003(4) 0.3798(3) 0.9759(10)
H25_4 H 0.107467 0.359608 0.953819
C48_4 C 0.2119(3) 0.5097(3) 0.5976(8)
C49_4 C 0.1955(3) 0.5085(3) 0.6694(8)
C50_4 C 0.1851(4) 0.5396(3) 0.7043(10)
H26_4 H 0.190078 0.560859 0.683781
C51_4 C 0.1685(5) 0.5381(3) 0.7655(9)
H27_4 H 0.161894 0.558540 0.787172
C52_4 C 0.1603(4) 0.5062(3) 0.8001(9)
C53_4 C 0.1697(5) 0.4769(3) 0.7729(13)
H28_4 H 0.165785 0.456205 0.796284
C54_4 C 0.1871(5) 0.4783(3) 0.7027(10)
H29_4 H 0.192682 0.457691 0.680288
C55_4 C 0.1394(5) 0.5053(3) 0.8665(9)
C56_4 C 0.1117(4) 0.4741(3) 0.9433(10)
C57_4 C 0.1080(4) 0.5328(3) 0.9528(10)
N4_4 N 0.1272(4) 0.5355(2) 0.8905(8)
N5_4 N 0.0989(3) 0.5032(2) 0.9774(7)
N6_4 N 0.1318(3) 0.4739(2) 0.8900(7)
C3_4 C 0.9146(4) 0.3756(3) 0.9713(10)
H1_4 H 0.908742 0.354647 0.950584
C4_4 C 0.9012(5) 0.4050(3) 0.9443(11)
H2_4 H 0.888148 0.403984 0.902787
C5_4 C 0.9064(4) 0.4356(3) 0.9762(9)
C12_4 C 0.8981(4) 0.5593(3) 0.9817(9)
C13_4 C 0.8877(4) 0.5900(3) 0.9520(10)
H7_4 H 0.872062 0.589767 0.914559
C14_4 C 0.8997(4) 0.6202(3) 0.9759(10)
H8_4 H 0.892533 0.640392 0.953819
C15_4 C 0.7881(3) 0.4903(3) 0.5976(8)
C16_4 C 0.8045(3) 0.4915(3) 0.6694(8)
C17_4 C 0.8149(4) 0.4604(3) 0.7043(10)
H9_4 H 0.809922 0.439141 0.683781
C18_4 C 0.8315(5) 0.4619(3) 0.7655(9)
H10_4 H 0.838106 0.441460 0.787172
C19_4 C 0.8397(4) 0.4938(3) 0.8001(9)
C20_4 C 0.8303(5) 0.5231(3) 0.7729(13)
H11_4 H 0.834215 0.543795 0.796284
C21_4 C 0.8129(5) 0.5217(3) 0.7027(10)
H12_4 H 0.807318 0.542309 0.680288
C22_4 C 0.8606(5) 0.4947(3) 0.8665(9)
C23_4 C 0.8883(4) 0.5259(3) 0.9433(10)
C24_4 C 0.8920(4) 0.4672(3) 0.9528(10)
N1_4 N 0.8728(4) 0.4645(2) 0.8905(8)
N2_4 N 0.9011(3) 0.4968(2) 0.9774(7)
N3_4 N 0.8682(3) 0.5261(2) 0.8900(7)
C1_6 C 0.1564(3) 0.4529(3) 0.4402(9)
C2_6 C 0.1239(3) 0.4366(4) 0.4714(9)
C3_5 C 0.1244(3) 0.4146(4) 0.5287(10)
H1_5 H 0.145353 0.408742 0.549416
C4_5 C 0.0950(3) 0.4012(5) 0.5557(11)
H2_5 H 0.096016 0.388148 0.597213
C5_5 C 0.0644(3) 0.4064(4) 0.5238(9)
C6_6 C 0.0626(4) 0.4273(4) 0.4615(10)
H3_6 H 0.041959 0.430142 0.436985
C7_6 C 0.0929(3) 0.4436(4) 0.4384(9)
H4_6 H 0.092071 0.459084 0.400678
C15_5 C 0.0097(3) 0.2881(3) 0.9024(8)
C16_5 C 0.0085(3) 0.3045(3) 0.8306(8)
C17_5 C 0.0396(3) 0.3149(4) 0.7957(10)
H9_5 H 0.060859 0.309922 0.816219
C18_5 C 0.0381(3) 0.3315(5) 0.7345(9)
H10_5 H 0.058540 0.338106 0.712828
C19_5 C 0.0062(3) 0.3397(4) 0.6999(9)
C22_5 C 0.0053(3) 0.3606(5) 0.6335(9)
C24_5 C 0.0328(3) 0.3920(4) 0.5472(10)
N1_5 N 0.0355(2) 0.3728(4) 0.6095(8)
N2_5 N 0.0032(2) 0.4011(3) 0.5226(7)
O1_6 O 0.15250(19) 0.4739(2) 0.3898(6)
O7_6 O 0.23246(19) 0.50962(19) 0.2659(6)
O13_5 O 0.1665(3) 0.4764(3) 0.2478(6)
O14_5 O 0.1680(2) 0.5429(3) 0.2480(6)
O15_5 O 0.2267(3) 0.5771(2) 0.2099(7)
O16_5 O 0.2281(3) 0.4409(2) 0.2060(6)
C41_6 C 0.1538(3) 0.5647(3) 0.4412(8)
C42_6 C 0.1222(3) 0.5775(3) 0.4671(9)
C43_6 C 0.0909(4) 0.5686(4) 0.4381(9)
H22_6 H 0.090277 0.555521 0.396590
C44_6 C 0.0602(3) 0.5789(4) 0.4703(10)
H23_6 H 0.039681 0.568505 0.456184
C45_5 C 0.0593(3) 0.6019(4) 0.5183(9)
C46_5 C 0.0900(3) 0.6123(4) 0.5480(10)
H24_5 H 0.089767 0.627938 0.585441
C47_5 C 0.1202(3) 0.6003(4) 0.5241(10)
H25_5 H 0.140392 0.607467 0.546181
C53_5 C 0.0231(3) 0.6697(5) 0.7271(13)
H28_5 H 0.043795 0.665785 0.703716
C54_5 C 0.0217(3) 0.6871(5) 0.7973(10)
H29_5 H 0.042309 0.692682 0.819712
C56_5 C 0.0259(3) 0.6117(4) 0.5567(10)
N6_5 N 0.0261(2) 0.6318(3) 0.6100(7)
O21_6 O 0.15271(16) 0.54461(18) 0.3891(5)
H38_11 H 0.232843 0.346957 0.333356
H39_11 H 0.241172 0.346957 0.426607
H40_11 H 0.275986 0.346957 0.365037
H43_5 H 0.22789 0.564439 0.163966
H44_5 H 0.232215 0.601742 0.201707
H45_5 H 0.204083 0.442176 0.223921
H46_5 H 0.234579 0.416436 0.19859
C8_6 C 0.8462(3) 0.4353(3) 0.4412(8)
C9_6 C 0.8778(3) 0.4225(3) 0.4671(9)
C10_6 C 0.9091(4) 0.4314(4) 0.4381(9)
H5_6 H 0.909723 0.444479 0.396590
C11_6 C 0.9398(3) 0.4211(4) 0.4703(10)
H6_6 H 0.960319 0.431495 0.456184
C12_5 C 0.9407(3) 0.3981(4) 0.5183(9)
C13_5 C 0.9100(3) 0.3877(4) 0.5480(10)
H7_5 H 0.910233 0.372062 0.585441
C14_5 C 0.8798(3) 0.3997(4) 0.5241(10)
H8_5 H 0.859608 0.392533 0.546181
C20_5 C 0.9769(3) 0.3303(5) 0.7271(13)
H11_5 H 0.956205 0.334215 0.703716
C21_5 C 0.9783(3) 0.3129(5) 0.7973(10)
H12_5 H 0.957691 0.307318 0.819712
C23_5 C 0.9741(3) 0.3883(4) 0.5567(10)
N3_5 N 0.9739(2) 0.3682(3) 0.6100(7)
O3_6 O 0.84729(16) 0.45539(18) 0.3891(5)
C34_6 C 0.8436(3) 0.5471(3) 0.4402(9)
C35_6 C 0.8761(3) 0.5634(4) 0.4714(9)
C36_5 C 0.8756(3) 0.5854(4) 0.5287(10)
H18_5 H 0.854647 0.591258 0.549416
C37_5 C 0.9050(3) 0.5988(5) 0.5557(11)
H19_5 H 0.903984 0.611852 0.597213
C38_5 C 0.9356(3) 0.5936(4) 0.5238(9)
C39_6 C 0.9374(4) 0.5727(4) 0.4615(10)
H20_6 H 0.958041 0.569858 0.436985
C40_6 C 0.9071(3) 0.5564(4) 0.4384(9)
H21_6 H 0.907929 0.540916 0.400678
C48_5 C 0.9903(3) 0.7119(3) 0.9024(8)
C49_5 C 0.9915(3) 0.6955(3) 0.8306(8)
C50_5 C 0.9604(3) 0.6851(4) 0.7957(10)
H26_5 H 0.939141 0.690078 0.816219
C51_5 C 0.9619(3) 0.6685(5) 0.7345(9)
H27_5 H 0.941460 0.661894 0.712828
C52_5 C 0.9938(3) 0.6603(4) 0.6999(9)
C55_5 C 0.9947(3) 0.6394(5) 0.6335(9)
C57_5 C 0.9672(3) 0.6080(4) 0.5472(10)
N4_5 N 0.9645(2) 0.6272(4) 0.6095(8)
N5_5 N 0.9968(2) 0.5989(3) 0.5226(7)
O19_6 O 0.84750(19) 0.5261(2) 0.3898(6)
O25_6 O 0.76754(19) 0.49038(19) 0.2659(6)
O29_5 O 0.8335(3) 0.5236(3) 0.2478(6)
O30_5 O 0.8320(2) 0.4571(3) 0.2480(6)
O31_5 O 0.7733(3) 0.4229(2) 0.2099(7)
O32_5 O 0.7719(3) 0.5591(2) 0.2060(6)
H30_5 H 0.77211 0.435561 0.163966
H31_5 H 0.767785 0.398258 0.201707
H36_5 H 0.795917 0.557824 0.223921
H37_5 H 0.765421 0.583564 0.19859
H38_12 H 0.767157 0.653043 0.333356
H39_12 H 0.758828 0.653043 0.426607
H40_12 H 0.724014 0.653043 0.365037
O29_6 O 0.1665(3) 0.0236(3) 0.0022(6)
O32_6 O 0.2281(3) 0.0591(2) 0.0440(6)
O37_3 O 0.2809(2) 0.01902(18) 0.0728(6)
H33_3 H 0.184871 0.0382774 0.0229532
H36_6 H 0.204083 0.0578237 0.0260785
H37_6 H 0.234579 0.0835644 0.0514099
O30_6 O 0.1680(2) 0.9571(3) 0.0020(6)
O31_6 O 0.2267(3) 0.9229(2) 0.0401(7)
O39_3 O 0.2813(2) 0.96137(19) 0.0709(5)
H30_6 H 0.22789 0.935561 0.086034
H31_6 H 0.232215 0.898258 0.0482935
O14_6 O 0.8320(2) 0.0429(3) 0.0020(6)
O15_6 O 0.7733(3) 0.0771(2) 0.0401(7)
O40_3 O 0.7187(2) 0.03863(19) 0.0709(5)
H43_6 H 0.77211 0.0644387 0.086034
H44_6 H 0.767785 0.101742 0.0482935
O13_6 O 0.8335(3) 0.9764(3) 0.0022(6)
O16_6 O 0.7719(3) 0.9409(2) 0.0440(6)
O38_3 O 0.7191(2) 0.98098(18) 0.0728(6)
H42_3 H 0.82352 0.983233 0.0488497
H45_6 H 0.795917 0.942176 0.0260785
H46_6 H 0.765421 0.916436 0.0514099
H42_4 H 0.17648 0.0167668 0.0488497
H33_4 H 0.815129 0.961723 0.0229532
C8_7 C 0.4353(3) 0.1538(3) 0.5588(8)
C9_7 C 0.4225(3) 0.1222(3) 0.5329(9)
C10_7 C 0.4314(4) 0.0909(4) 0.5619(9)
H5_7 H 0.444479 0.090277 0.603410
C11_7 C 0.4211(4) 0.0602(3) 0.5297(10)
H6_7 H 0.431495 0.039681 0.543816
C12_6 C 0.3981(4) 0.0593(3) 0.4817(9)
C13_6 C 0.3877(4) 0.0900(3) 0.4520(10)
H7_6 H 0.372062 0.089767 0.414559
C14_6 C 0.3997(4) 0.1202(3) 0.4759(10)
H8_6 H 0.392533 0.140392 0.453819
C20_6 C 0.3303(5) 0.0231(3) 0.2729(13)
H11_6 H 0.334215 0.043795 0.296284
C21_6 C 0.3129(5) 0.0217(3) 0.2027(10)
H12_6 H 0.307318 0.042309 0.180288
C23_6 C 0.3883(4) 0.0259(3) 0.4433(10)
N3_6 N 0.3682(3) 0.0261(2) 0.3900(7)
O3_7 O 0.45539(18) 0.15271(16) 0.6109(5)
O4_4 O 0.42645(18) 0.18210(17) 0.5268(5)
Zr4_4 Zr 0.49006(3) 0.18923(2) 0.66423(6)
Zr5_4 Zr 0.44490(2) 0.26388(2) 0.71505(7)
Zr6_4 Zr 0.53524(2) 0.26369(2) 0.71416(7)
C34_7 C 0.5471(3) 0.1564(3) 0.5598(9)
C35_7 C 0.5634(4) 0.1239(3) 0.5286(9)
C36_6 C 0.5854(4) 0.1244(3) 0.4713(10)
H18_6 H 0.591258 0.145353 0.450584
C37_6 C 0.5988(5) 0.0950(3) 0.4443(11)
H19_6 H 0.611852 0.096016 0.402787
C38_6 C 0.5936(4) 0.0644(3) 0.4762(9)
C39_7 C 0.5727(4) 0.0626(4) 0.5385(10)
H20_7 H 0.569858 0.041959 0.563015
C40_7 C 0.5564(4) 0.0929(3) 0.5616(9)
H21_7 H 0.540916 0.092071 0.599322
C48_6 C 0.7119(3) 0.0097(3) 0.0976(8)
C49_6 C 0.6955(3) 0.0085(3) 0.1694(8)
C50_6 C 0.6851(4) 0.0396(3) 0.2043(10)
H26_6 H 0.690078 0.060859 0.183781
C51_6 C 0.6685(5) 0.0381(3) 0.2655(9)
H27_6 H 0.661894 0.058540 0.287172
C52_6 C 0.6603(4) 0.0062(3) 0.3001(9)
C55_6 C 0.6394(5) 0.0053(3) 0.3665(9)
C57_6 C 0.6080(4) 0.0328(3) 0.4528(10)
N4_6 N 0.6272(4) 0.0355(2) 0.3905(8)
N5_6 N 0.5989(3) 0.0032(2) 0.4774(7)
O19_7 O 0.5261(2) 0.15250(19) 0.6102(6)
O20_4 O 0.5548(2) 0.18302(17) 0.5254(6)
O25_7 O 0.49038(19) 0.23246(19) 0.7341(6)
O26_4 O 0.49039(18) 0.2927(2) 0.6950(5)
O27_4 O 0.5354(3) 0.2187(2) 0.6489(6)
O28_4 O 0.4453(2) 0.22032(18) 0.6460(5)
O29_7 O 0.5236(3) 0.1665(3) 0.7522(6)
O30_7 O 0.4571(3) 0.1680(2) 0.7520(6)
O31_7 O 0.4229(2) 0.2267(3) 0.7901(7)
O32_7 O 0.5591(2) 0.2281(3) 0.7940(6)
Zr7_4 Zr 0.49006(3) 0.31077(2) 0.58577(6)
Zr11_2 Zr 0.44490(2) 0.23612(2) 0.53495(7)
Zr15_2 Zr 0.53524(2) 0.23631(2) 0.53584(7)
O33_4 O 0.5548(2) 0.31698(17) 0.7246(6)
O36_4 O 0.42645(18) 0.31790(17) 0.7232(5)
O37_4 O 0.51902(18) 0.2809(2) 0.8228(6)
O39_4 O 0.46137(19) 0.2813(2) 0.8209(5)
O41_4 O 0.49039(18) 0.2073(2) 0.5550(5)
O43_4 O 0.5354(3) 0.2813(2) 0.6011(6)
O45_4 O 0.4453(2) 0.27968(18) 0.6040(5)
O47_4 O 0.5900(2) 0.2610(3) 0.6893(4)
O48_4 O 0.38896(18) 0.2620(2) 0.6964(6)
H30_7 H 0.435561 0.22789 0.836034
H31_7 H 0.398258 0.232215 0.798293
H36_7 H 0.557824 0.204083 0.776079
H37_7 H 0.583564 0.234579 0.80141
Zr1_4 Zr 0.50994(3) 0.81077(2) 0.66423(6)
Zr2_4 Zr 0.55510(2) 0.73612(2) 0.71505(7)
Zr3_4 Zr 0.46476(2) 0.73631(2) 0.71416(7)
C1_7 C 0.4529(3) 0.8436(3) 0.5598(9)
C2_7 C 0.4366(4) 0.8761(3) 0.5286(9)
C3_6 C 0.4146(4) 0.8756(3) 0.4713(10)
H1_6 H 0.408742 0.854647 0.450584
C4_6 C 0.4012(5) 0.9050(3) 0.4443(11)
H2_6 H 0.388148 0.903984 0.402787
C5_6 C 0.4064(4) 0.9356(3) 0.4762(9)
C6_7 C 0.4273(4) 0.9374(4) 0.5385(10)
H3_7 H 0.430142 0.958041 0.563015
C7_7 C 0.4436(4) 0.9071(3) 0.5616(9)
H4_7 H 0.459084 0.907929 0.599322
C15_6 C 0.2881(3) 0.9903(3) 0.0976(8)
C16_6 C 0.3045(3) 0.9915(3) 0.1694(8)
C17_6 C 0.3149(4) 0.9604(3) 0.2043(10)
H9_6 H 0.309922 0.939141 0.183781
C18_6 C 0.3315(5) 0.9619(3) 0.2655(9)
H10_6 H 0.338106 0.941460 0.287172
C19_6 C 0.3397(4) 0.9938(3) 0.3001(9)
C22_6 C 0.3606(5) 0.9947(3) 0.3665(9)
C24_6 C 0.3920(4) 0.9672(3) 0.4528(10)
C25_7 C 0.3936(4) 0.750000 0.625000
C26_7 C 0.3563(4) 0.750000 0.625000
C27_7 C 0.6191(3) 0.750000 0.625000
C28_7 C 0.65790(4) 0.750000 0.625000
C29_7 C 0.67588(4) 0.74210(17) 0.68705(9)
H13_7 H 0.663943 0.737343 0.728868
C30_7 C 0.71173(4) 0.74210(17) 0.68705(9)
H14_7 H 0.723680 0.737363 0.728868
C31_7 C 0.72971(4) 0.750000 0.625000
H15_7 H 0.753639 0.750000 0.625000
N1_6 N 0.3728(4) 0.9645(2) 0.3905(8)
N2_6 N 0.4011(3) 0.9968(2) 0.4774(7)
O1_7 O 0.4739(2) 0.84750(19) 0.6102(6)
O2_4 O 0.4452(2) 0.81698(17) 0.5254(6)
O7_7 O 0.50962(19) 0.76754(19) 0.7341(6)
O8_4 O 0.50961(18) 0.7073(2) 0.6950(5)
O9_4 O 0.4646(3) 0.7813(2) 0.6489(6)
O10_4 O 0.5547(2) 0.77968(18) 0.6460(5)
O11_4 O 0.4100(2) 0.7390(3) 0.6893(4)
O12_4 O 0.61104(18) 0.7380(2) 0.6964(6)
O13_7 O 0.4764(3) 0.8335(3) 0.7522(6)
O14_7 O 0.5429(3) 0.8320(2) 0.7520(6)
O15_7 O 0.5771(2) 0.7733(3) 0.7901(7)
O16_7 O 0.4409(2) 0.7719(3) 0.7940(6)
O17_7 O 0.4100(2) 0.7610(3) 0.5607(4)
C32_7 C 0.67588(4) 0.75790(17) 0.56295(9)
H16_7 H 0.663943 0.762657 0.521132
C33_7 C 0.71173(4) 0.75790(17) 0.56295(9)
H17_7 H 0.723680 0.762637 0.521132
O18_7 O 0.61104(18) 0.7620(2) 0.5536(6)
C41_7 C 0.5647(3) 0.8462(3) 0.5588(8)
C42_7 C 0.5775(3) 0.8778(3) 0.5329(9)
C43_7 C 0.5686(4) 0.9091(4) 0.5619(9)
H22_7 H 0.555521 0.909723 0.603410
C44_7 C 0.5789(4) 0.9398(3) 0.5297(10)
H23_7 H 0.568505 0.960319 0.543816
C45_6 C 0.6019(4) 0.9407(3) 0.4817(9)
C46_6 C 0.6123(4) 0.9100(3) 0.4520(10)
H24_6 H 0.627938 0.910233 0.414559
C47_6 C 0.6003(4) 0.8798(3) 0.4759(10)
H25_6 H 0.607467 0.859608 0.453819
C53_6 C 0.6697(5) 0.9769(3) 0.2729(13)
H28_6 H 0.665785 0.956205 0.296284
C54_6 C 0.6871(5) 0.9783(3) 0.2027(10)
H29_6 H 0.692682 0.957691 0.180288
C56_6 C 0.6117(4) 0.9741(3) 0.4433(10)
N6_6 N 0.6318(3) 0.9739(2) 0.3900(7)
O21_7 O 0.54461(18) 0.84729(16) 0.6109(5)
O22_4 O 0.57355(18) 0.81790(17) 0.5268(5)
Zr8_4 Zr 0.50994(3) 0.68923(2) 0.58577(6)
Zr12_2 Zr 0.55510(2) 0.76388(2) 0.53495(7)
Zr16_2 Zr 0.46476(2) 0.76369(2) 0.53584(7)
O34_4 O 0.4452(2) 0.68302(17) 0.7246(6)
O35_4 O 0.57355(18) 0.68210(17) 0.7232(5)
O38_4 O 0.48098(18) 0.7191(2) 0.8228(6)
O40_4 O 0.53863(19) 0.7187(2) 0.8209(5)
O42_4 O 0.50961(18) 0.7927(2) 0.5550(5)
O44_4 O 0.4646(3) 0.7187(2) 0.6011(6)
O46_4 O 0.5547(2) 0.72032(18) 0.6040(5)
H38_13 H 0.346957 0.767157 0.666644
H39_13 H 0.346957 0.758828 0.573393
H40_13 H 0.346957 0.724014 0.634963
H43_7 H 0.564439 0.77211 0.836034
H44_7 H 0.601742 0.767785 0.798293
H45_7 H 0.442176 0.795917 0.776079
H46_7 H 0.416436 0.765421 0.80141
C25_8 C 0.6064(4) 0.250000 0.625000
C26_8 C 0.6437(4) 0.250000 0.625000
C27_8 C 0.3809(3) 0.250000 0.625000
C28_8 C 0.34210(4) 0.250000 0.625000
C29_8 C 0.32412(4) 0.25790(17) 0.68705(9)
H13_8 H 0.336057 0.262657 0.728868
C30_8 C 0.28827(4) 0.25790(17) 0.68705(9)
H14_8 H 0.276320 0.262637 0.728868
C31_8 C 0.27029(4) 0.250000 0.625000
H15_8 H 0.246361 0.250000 0.625000
O17_8 O 0.5900(2) 0.2390(3) 0.5607(4)
C32_8 C 0.32412(4) 0.24210(17) 0.56295(9)
H16_8 H 0.336057 0.237343 0.521132
C33_8 C 0.28827(4) 0.24210(17) 0.56295(9)
H17_8 H 0.276320 0.237363 0.521132
O18_8 O 0.38896(18) 0.2380(2) 0.5536(6)
H38_14 H 0.653043 0.232843 0.666644
H39_14 H 0.653043 0.241172 0.573393
H40_14 H 0.653043 0.275986 0.634963
C36_7 C 0.3756(3) 0.0854(4) 0.0287(10)
H18_7 H 0.354647 0.091258 0.049416
C37_7 C 0.4050(3) 0.0988(5) 0.0557(11)
H19_7 H 0.403984 0.111852 0.097213
C38_7 C 0.4356(3) 0.0936(4) 0.0238(9)
C45_7 C 0.5593(3) 0.1019(4) 0.0183(9)
C46_7 C 0.5900(3) 0.1123(4) 0.0480(10)
H24_7 H 0.589767 0.127938 0.085441
C47_7 C 0.6202(3) 0.1003(4) 0.0241(10)
H25_7 H 0.640392 0.107467 0.046181
C48_7 C 0.4903(3) 0.2119(3) 0.4024(8)
C49_7 C 0.4915(3) 0.1955(3) 0.3306(8)
C50_7 C 0.4604(3) 0.1851(4) 0.2957(10)
H26_7 H 0.439141 0.190078 0.316219
C51_7 C 0.4619(3) 0.1685(5) 0.2345(9)
H27_7 H 0.441460 0.161894 0.212828
C52_7 C 0.4938(3) 0.1603(4) 0.1999(9)
C53_7 C 0.5231(3) 0.1697(5) 0.2271(13)
H28_7 H 0.543795 0.165785 0.203716
C54_7 C 0.5217(3) 0.1871(5) 0.2973(10)
H29_7 H 0.542309 0.192682 0.319712
C55_7 C 0.4947(3) 0.1394(5) 0.1335(9)
C56_7 C 0.5259(3) 0.1117(4) 0.0567(10)
C57_7 C 0.4672(3) 0.1080(4) 0.0472(10)
N4_7 N 0.4645(2) 0.1272(4) 0.1095(8)
N5_7 N 0.4968(2) 0.0989(3) 0.0226(7)
N6_7 N 0.5261(2) 0.1318(3) 0.1100(7)
O23_4 O 0.51902(18) 0.2191(2) 0.4272(6)
O24_4 O 0.46137(19) 0.2187(2) 0.4291(5)
C3_7 C 0.6244(3) 0.9146(4) 0.0287(10)
H1_7 H 0.645353 0.908742 0.049416
C4_7 C 0.5950(3) 0.9012(5) 0.0557(11)
H2_7 H 0.596016 0.888148 0.097213
C5_7 C 0.5644(3) 0.9064(4) 0.0238(9)
C12_7 C 0.4407(3) 0.8981(4) 0.0183(9)
C13_7 C 0.4100(3) 0.8877(4) 0.0480(10)
H7_7 H 0.410233 0.872062 0.085441
C14_7 C 0.3798(3) 0.8997(4) 0.0241(10)
H8_7 H 0.359608 0.892533 0.046181
C15_7 C 0.5097(3) 0.7881(3) 0.4024(8)
C16_7 C 0.5085(3) 0.8045(3) 0.3306(8)
C17_7 C 0.5396(3) 0.8149(4) 0.2957(10)
H9_7 H 0.560859 0.809922 0.316219
C18_7 C 0.5381(3) 0.8315(5) 0.2345(9)
H10_7 H 0.558540 0.838106 0.212828
C19_7 C 0.5062(3) 0.8397(4) 0.1999(9)
C20_7 C 0.4769(3) 0.8303(5) 0.2271(13)
H11_7 H 0.456205 0.834215 0.203716
C21_7 C 0.4783(3) 0.8129(5) 0.2973(10)
H12_7 H 0.457691 0.807318 0.319712
C22_7 C 0.5053(3) 0.8606(5) 0.1335(9)
C23_7 C 0.4741(3) 0.8883(4) 0.0567(10)
C24_7 C 0.5328(3) 0.8920(4) 0.0472(10)
N1_7 N 0.5355(2) 0.8728(4) 0.1095(8)
N2_7 N 0.5032(2) 0.9011(3) 0.0226(7)
N3_7 N 0.4739(2) 0.8682(3) 0.1100(7)
O5_4 O 0.48098(18) 0.7809(2) 0.4272(6)
O6_4 O 0.53863(19) 0.7813(2) 0.4291(5)
C1_8 C 0.5471(3) 0.3436(3) 0.6902(9)
C2_8 C 0.5634(4) 0.3761(3) 0.7214(9)
C3_8 C 0.5854(4) 0.3756(3) 0.7787(10)
H1_8 H 0.591258 0.354647 0.799416
C4_8 C 0.5988(5) 0.4050(3) 0.8057(11)
H2_8 H 0.611852 0.403984 0.847213
C5_8 C 0.5936(4) 0.4356(3) 0.7738(9)
C6_8 C 0.5727(4) 0.4374(4) 0.7115(10)
H3_8 H 0.569858 0.458041 0.686985
C7_8 C 0.5564(4) 0.4071(3) 0.6884(9)
H4_8 H 0.540916 0.407929 0.650678
C8_8 C 0.5647(3) 0.6538(3) 0.6912(8)
C9_8 C 0.5775(3) 0.6222(3) 0.7171(9)
C10_8 C 0.5686(4) 0.5909(4) 0.6881(9)
H5_8 H 0.555521 0.590277 0.646590
C11_8 C 0.5789(4) 0.5602(3) 0.7203(10)
H6_8 H 0.568505 0.539681 0.706184
C12_8 C 0.6019(4) 0.5593(3) 0.7683(9)
C13_8 C 0.6123(4) 0.5900(3) 0.7980(10)
H7_8 H 0.627938 0.589767 0.835441
C14_8 C 0.6003(4) 0.6202(3) 0.7741(10)
H8_8 H 0.607467 0.640392 0.796181
C18_8 C 0.6685(5) 0.4619(3) 0.9845(9)
H10_8 H 0.661894 0.441460 0.962828
C19_8 C 0.6603(4) 0.4938(3) 0.9499(9)
C20_8 C 0.6697(5) 0.5231(3) 0.9771(13)
H11_8 H 0.665785 0.543795 0.953716
C22_8 C 0.6394(5) 0.4947(3) 0.8835(9)
C23_8 C 0.6117(4) 0.5259(3) 0.8067(10)
C24_8 C 0.6080(4) 0.4672(3) 0.7972(10)
N1_8 N 0.6272(4) 0.4645(2) 0.8595(8)
N2_8 N 0.5989(3) 0.4968(2) 0.7726(7)
N3_8 N 0.6318(3) 0.5261(2) 0.8600(7)
O1_8 O 0.5261(2) 0.34750(19) 0.6398(6)
O3_8 O 0.54461(18) 0.65271(16) 0.6391(5)
O7_8 O 0.49038(19) 0.26754(19) 0.5159(6)
O13_8 O 0.5236(3) 0.3335(3) 0.4978(6)
O14_8 O 0.4571(3) 0.3320(2) 0.4980(6)
O15_8 O 0.4229(2) 0.2733(3) 0.4599(7)
O16_8 O 0.5591(2) 0.2719(3) 0.4560(6)
C34_8 C 0.4529(3) 0.6564(3) 0.6902(9)
C35_8 C 0.4366(4) 0.6239(3) 0.7214(9)
C36_8 C 0.4146(4) 0.6244(3) 0.7787(10)
H18_8 H 0.408742 0.645353 0.799416
C37_8 C 0.4012(5) 0.5950(3) 0.8057(11)
H19_8 H 0.388148 0.596016 0.847213
C38_8 C 0.4064(4) 0.5644(3) 0.7738(9)
C39_8 C 0.4273(4) 0.5626(4) 0.7115(10)
H20_8 H 0.430142 0.541959 0.686985
C40_8 C 0.4436(4) 0.5929(3) 0.6884(9)
H21_8 H 0.459084 0.592071 0.650678
C41_8 C 0.4353(3) 0.3462(3) 0.6912(8)
C42_8 C 0.4225(3) 0.3778(3) 0.7171(9)
C43_8 C 0.4314(4) 0.4091(4) 0.6881(9)
H22_8 H 0.444479 0.409723 0.646590
C44_8 C 0.4211(4) 0.4398(3) 0.7203(10)
H23_8 H 0.431495 0.460319 0.706184
C45_8 C 0.3981(4) 0.4407(3) 0.7683(9)
C46_8 C 0.3877(4) 0.4100(3) 0.7980(10)
H24_8 H 0.372062 0.410233 0.835441
C47_8 C 0.3997(4) 0.3798(3) 0.7741(10)
H25_8 H 0.392533 0.359608 0.796181
C51_8 C 0.3315(5) 0.5381(3) 0.9845(9)
H27_8 H 0.338106 0.558540 0.962828
C52_8 C 0.3397(4) 0.5062(3) 0.9499(9)
C53_8 C 0.3303(5) 0.4769(3) 0.9771(13)
H28_8 H 0.334215 0.456205 0.953716
C55_8 C 0.3606(5) 0.5053(3) 0.8835(9)
C56_8 C 0.3883(4) 0.4741(3) 0.8067(10)
C57_8 C 0.3920(4) 0.5328(3) 0.7972(10)
N4_8 N 0.3728(4) 0.5355(2) 0.8595(8)
N5_8 N 0.4011(3) 0.5032(2) 0.7726(7)
N6_8 N 0.3682(3) 0.4739(2) 0.8600(7)
O19_8 O 0.4739(2) 0.65250(19) 0.6398(6)
O21_8 O 0.45539(18) 0.34729(16) 0.6391(5)
O25_8 O 0.50962(19) 0.73246(19) 0.5159(6)
O29_8 O 0.4764(3) 0.6665(3) 0.4978(6)
O30_8 O 0.5429(3) 0.6680(2) 0.4980(6)
O31_8 O 0.5771(2) 0.7267(3) 0.4599(7)
O32_8 O 0.4409(2) 0.7281(3) 0.4560(6)
H30_8 H 0.564439 0.72789 0.413966
H31_8 H 0.601742 0.732215 0.451707
H36_8 H 0.442176 0.704083 0.473921
H37_8 H 0.416436 0.734579 0.44859
H38_15 H 0.653043 0.267157 0.583356
H39_15 H 0.653043 0.258828 0.676607
H40_15 H 0.653043 0.224014 0.615037
H43_8 H 0.435561 0.27211 0.413966
H44_8 H 0.398258 0.267785 0.451707
H45_8 H 0.557824 0.295917 0.473921
H46_8 H 0.583564 0.265421 0.44859
H38_16 H 0.346957 0.732843 0.583356
H39_16 H 0.346957 0.741172 0.676607
H40_16 H 0.346957 0.775986 0.615037
C15_8 C 0.4903(3) 0.2881(3) 0.8476(8)
C16_8 C 0.4915(3) 0.3045(3) 0.9194(8)
C17_8 C 0.4604(3) 0.3149(4) 0.9543(10)
H9_8 H 0.439141 0.309922 0.933781
C21_8 C 0.5217(3) 0.3129(5) 0.9527(10)
H12_8 H 0.542309 0.307318 0.930288
C48_8 C 0.5097(3) 0.7119(3) 0.8476(8)
C49_8 C 0.5085(3) 0.6955(3) 0.9194(8)
C50_8 C 0.5396(3) 0.6851(4) 0.9543(10)
H26_8 H 0.560859 0.690078 0.933781
C54_8 C 0.4783(3) 0.6871(5) 0.9527(10)
H29_8 H 0.457691 0.692682 0.930288
loop_
_geom_bond_atom_site_label_1
_geom_bond_atom_site_label_2
_geom_bond_site_symmetry_1
_geom_bond_site_symmetry_2
C8 C9 1_555 1_555
C9 C10 1_555 1_555
C10 H5 1_555 1_555
C11 C10 1_555 1_555
H6 C11 1_555 1_555
C12 C11 1_555 1_555
C13 C12 1_555 1_555
H7 C13 1_555 1_555
C14 C9 1_555 1_555
H8 C14 1_555 1_555
H11 C20 1_555 1_555
H12 C21 1_555 1_555
C23 C12 1_555 1_555
O3 C8 1_555 1_555
O4 C8 1_555 1_555
Zr4 O3 1_555 1_555
Zr5 O25 1_555 1_555
O25 Zr4 1_555 1_555
O26 Zr5 1_555 1_555
O28 Zr4 1_555 1_555
Zr7 O26 1_555 1_555
Zr11 O4 1_555 1_555
Zr14 O5 1_555 1_555
O36 Zr5 1_555 1_555
O41 Zr4 1_555 1_555
O45 Zr5 1_555 1_555
O48 Zr5 1_555 1_555
C13 C14 1_555 1_555
C20 C21 1_555 1_555
C23 N3 1_555 1_555
Zr5 O28 1_555 1_555
O28 Zr11 1_555 1_555
Zr7 O45 1_555 1_555
Zr11 O41 1_555 1_555
Zr11 O45 1_555 1_555
C1 C2 1_555 1_555
C2 C3 1_555 1_555
C3 H1 1_555 1_555
C4 C3 1_555 1_555
H2 C4 1_555 1_555
C5 C4 1_555 1_555
C6 C5 1_555 1_555
H3 C6 1_555 1_555
C7 C2 1_555 1_555
H4 C7 1_555 1_555
C15 C16 1_555 1_555
C16 C17 1_555 1_555
C17 H9 1_555 1_555
C18 C17 1_555 1_555
H10 C18 1_555 1_555
C19 C18 1_555 1_555
C22 C19 1_555 1_555
C24 C5 1_555 1_555
C25 C26 1_555 1_555
N1 C22 1_555 1_555
O1 C1 1_555 1_555
O2 C1 1_555 1_555
O6 C15 1_555 1_555
O11 Zr3 1_555 1_555
O17 C25 1_555 1_555
Zr10 O6 1_555 1_555
Zr16 O2 1_555 1_555
O34 Zr3 1_555 1_555
O44 Zr3 1_555 1_555
Zr3 O9 1_555 1_555
C6 C7 1_555 1_555
C24 N1 1_555 1_555
C24 N2 1_555 1_555
C25 O11 1_555 1_555
O9 Zr16 1_555 1_555
O17 Zr16 1_555 1_555
Zr16 O44 1_555 1_555
C26 H38 1_555 1_555
C26 H39 1_555 1_555
C26 H40 1_555 1_555
C34 C35 1_555 1_555
C35 C36 1_555 1_555
C36 H18 1_555 1_555
C37 C36 1_555 1_555
H19 C37 1_555 1_555
C38 C37 1_555 1_555
C39 C38 1_555 1_555
H20 C39 1_555 1_555
C40 C35 1_555 1_555
H21 C40 1_555 1_555
C48 C49 1_555 1_555
C49 C50 1_555 1_555
C50 H26 1_555 1_555
C51 C50 1_555 1_555
H27 C51 1_555 1_555
C52 C51 1_555 1_555
C55 C52 1_555 1_555
C57 C38 1_555 1_555
N4 C55 1_555 1_555
O20 C34 1_555 1_555
O24 C48 1_555 1_555
Zr9 O24 1_555 1_555
Zr15 O20 1_555 1_555
O33 Zr6 1_555 1_555
O43 Zr6 1_555 1_555
O47 Zr6 1_555 1_555
Zr6 O27 1_555 1_555
C34 O19 1_555 1_555
C39 C40 1_555 1_555
C57 N4 1_555 1_555
C57 N5 1_555 1_555
O27 Zr15 1_555 1_555
Zr15 O43 1_555 1_555
Zr2 O7 1_555 1_555
C27 C28 1_555 1_555
C28 C29 1_555 1_555
C29 H13 1_555 1_555
C30 C29 1_555 1_555
H14 C30 1_555 1_555
C31 C30 1_555 1_555
H15 C31 1_555 1_555
O7 Zr1 1_555 1_555
O8 Zr2 1_555 1_555
O10 Zr1 1_555 1_555
O12 Zr2 1_555 1_555
C32 C28 1_555 1_555
H16 C32 1_555 1_555
C33 C31 1_555 1_555
H17 C33 1_555 1_555
O18 C27 1_555 1_555
C41 C42 1_555 1_555
C42 C43 1_555 1_555
C43 H22 1_555 1_555
C44 C43 1_555 1_555
H23 C44 1_555 1_555
C45 C44 1_555 1_555
C46 C45 1_555 1_555
H24 C46 1_555 1_555
C47 C42 1_555 1_555
H25 C47 1_555 1_555
H28 C53 1_555 1_555
H29 C54 1_555 1_555
C56 C45 1_555 1_555
O21 Zr1 1_555 1_555
O22 C41 1_555 1_555
Zr8 O8 1_555 1_555
Zr12 O10 1_555 1_555
Zr13 O23 1_555 1_555
O35 Zr2 1_555 1_555
O42 Zr1 1_555 1_555
O46 Zr2 1_555 1_555
Zr2 O10 1_555 1_555
C27 O12 1_555 1_555
C32 C33 1_555 1_555
O18 Zr12 1_555 1_555
C41 O21 1_555 1_555
C46 C47 1_555 1_555
C53 C54 1_555 1_555
C56 N6 1_555 1_555
O22 Zr12 1_555 1_555
Zr8 O46 1_555 1_555
Zr12 O42 1_555 1_555
Zr12 O46 1_555 1_555
C27_2 C28_2 1_555 1_555
C28_2 C29_2 1_555 1_555
C29_2 H13_2 1_555 1_555
C30_2 C29_2 1_555 1_555
H14_2 C30_2 1_555 1_555
C31_2 C30_2 1_555 1_555
H15_2 C31_2 1_555 1_555
C32_2 C28_2 1_555 1_555
H16_2 C32_2 1_555 1_555
C33_2 C31_2 1_555 1_555
H17_2 C33_2 1_555 1_555
O18_2 C27_2 1_555 1_555
C27_2 O48 1_555 1_555
C32_2 C33_2 1_555 1_555
O18_2 Zr11 1_555 1_555
C25_2 C26_2 1_555 1_555
O17_2 C25_2 1_555 1_555
C25_2 O47 1_555 1_555
O17_2 Zr15 1_555 1_555
C26_2 H38_2 1_555 1_555
C26_2 H39_2 1_555 1_555
C26_2 H40_2 1_555 1_555
C34_2 C35_2 1_555 1_555
C35_2 C36_2 1_555 1_555
C36_2 H18_2 1_555 1_555
C37_2 C36_2 1_555 1_555
H19_2 C37_2 1_555 1_555
C38_2 C37_2 1_555 1_555
C39_2 C38_2 1_555 1_555
H20_2 C39_2 1_555 1_555
C40_2 C35_2 1_555 1_555
H21_2 C40_2 1_555 1_555
C48_2 C49_2 1_555 1_555
C49_2 C50_2 1_555 1_555
C50_2 H26_2 1_555 1_555
C51_2 C50_2 1_555 1_555
H27_2 C51_2 1_555 1_555
C52_2 C51_2 1_555 1_555
C55_2 C52_2 1_555 1_555
C57_2 C38_2 1_555 1_555
N4_2 C55_2 1_555 1_555
O20_2 C34_2 1_555 1_555
O24_2 C48_2 1_555 1_555
Zr11 O24_2 1_555 1_555
Zr14 O20_2 1_555 1_555
O33_2 Zr6_2 1_555 1_555
O43_2 Zr6_2 1_555 1_555
O47_2 Zr6_2 1_555 1_555
Zr6_2 O27_2 1_555 1_555
C34_2 O19_2 1_555 1_555
C39_2 C40_2 1_555 1_555
C57_2 N4_2 1_555 1_555
C57_2 N5_2 1_555 1_555
O27_2 Zr14 1_555 1_555
Zr14 O43_2 1_555 1_555
C8_2 C9_2 1_555 1_555
C9_2 C10_2 1_555 1_555
C10_2 H5_2 1_555 1_555
C11_2 C10_2 1_555 1_555
H6_2 C11_2 1_555 1_555
C12_2 C11_2 1_555 1_555
C13_2 C12_2 1_555 1_555
H7_2 C13_2 1_555 1_555
C14_2 C9_2 1_555 1_555
H8_2 C14_2 1_555 1_555
H11_2 C20_2 1_555 1_555
H12_2 C21_2 1_555 1_555
C23_2 C12_2 1_555 1_555
O3_2 C8_2 1_555 1_555
O4_2 C8_2 1_555 1_555
Zr4_2 O3_2 1_555 1_555
Zr5_2 O25_2 1_555 1_555
O25_2 Zr4_2 1_555 1_555
O26_2 Zr5_2 1_555 1_555
O28_2 Zr4_2 1_555 1_555
Zr7_2 O26_2 1_555 1_555
Zr10 O4_2 1_555 1_555
Zr16 O5_2 1_555 1_555
O36_2 Zr5_2 1_555 1_555
O41_2 Zr4_2 1_555 1_555
O45_2 Zr5_2 1_555 1_555
O48_2 Zr5_2 1_555 1_555
C13_2 C14_2 1_555 1_555
C20_2 C21_2 1_555 1_555
C23_2 N3_2 1_555 1_555
Zr5_2 O28_2 1_555 1_555
O28_2 Zr10 1_555 1_555
Zr7_2 O45_2 1_555 1_555
Zr10 O41_2 1_555 1_555
Zr10 O45_2 1_555 1_555
Zr2_2 O7_2 1_555 1_555
C27_3 C28_3 1_555 1_555
C28_3 C29_3 1_555 1_555
C29_3 H13_3 1_555 1_555
C30_3 C29_3 1_555 1_555
H14_3 C30_3 1_555 1_555
C31_3 C30_3 1_555 1_555
H15_3 C31_3 1_555 1_555
O7_2 Zr1_2 1_555 1_555
O8_2 Zr2_2 1_555 1_555
O10_2 Zr1_2 1_555 1_555
O12_2 Zr2_2 1_555 1_555
C32_3 C28_3 1_555 1_555
H16_3 C32_3 1_555 1_555
C33_3 C31_3 1_555 1_555
H17_3 C33_3 1_555 1_555
O18_3 C27_3 1_555 1_555
C41_2 C42_2 1_555 1_555
C42_2 C43_2 1_555 1_555
C43_2 H22_2 1_555 1_555
C44_2 C43_2 1_555 1_555
H23_2 C44_2 1_555 1_555
C45_2 C44_2 1_555 1_555
C46_2 C45_2 1_555 1_555
H24_2 C46_2 1_555 1_555
C47_2 C42_2 1_555 1_555
H25_2 C47_2 1_555 1_555
H28_2 C53_2 1_555 1_555
H29_2 C54_2 1_555 1_555
C56_2 C45_2 1_555 1_555
O21_2 Zr1_2 1_555 1_555
O22_2 C41_2 1_555 1_555
Zr8_2 O8_2 1_555 1_555
Zr9 O10_2 1_555 1_555
Zr15 O23_2 1_555 1_555
O35_2 Zr2_2 1_555 1_555
O42_2 Zr1_2 1_555 1_555
O46_2 Zr2_2 1_555 1_555
Zr2_2 O10_2 1_555 1_555
C27_3 O12_2 1_555 1_555
C32_3 C33_3 1_555 1_555
O18_3 Zr9 1_555 1_555
C41_2 O21_2 1_555 1_555
C46_2 C47_2 1_555 1_555
C53_2 C54_2 1_555 1_555
C56_2 N6_2 1_555 1_555
O22_2 Zr9 1_555 1_555
Zr8_2 O46_2 1_555 1_555
Zr9 O42_2 1_555 1_555
Zr9 O46_2 1_555 1_555
C1_2 C2_2 1_555 1_555
C2_2 C3_2 1_555 1_555
C3_2 H1_2 1_555 1_555
C4_2 C3_2 1_555 1_555
H2_2 C4_2 1_555 1_555
C5_2 C4_2 1_555 1_555
C6_2 C5_2 1_555 1_555
H3_2 C6_2 1_555 1_555
C7_2 C2_2 1_555 1_555
H4_2 C7_2 1_555 1_555
C15_2 C16_2 1_555 1_555
C16_2 C17_2 1_555 1_555
C17_2 H9_2 1_555 1_555
C18_2 C17_2 1_555 1_555
H10_2 C18_2 1_555 1_555
C19_2 C18_2 1_555 1_555
C22_2 C19_2 1_555 1_555
C24_2 C5_2 1_555 1_555
C25_3 C26_3 1_555 1_555
N1_2 C22_2 1_555 1_555
O1_2 C1_2 1_555 1_555
O2_2 C1_2 1_555 1_555
O6_2 C15_2 1_555 1_555
O11_2 Zr3_2 1_555 1_555
O17_3 C25_3 1_555 1_555
Zr12 O6_2 1_555 1_555
Zr13 O2_2 1_555 1_555
O34_2 Zr3_2 1_555 1_555
O44_2 Zr3_2 1_555 1_555
Zr3_2 O9_2 1_555 1_555
C6_2 C7_2 1_555 1_555
C24_2 N1_2 1_555 1_555
C24_2 N2_2 1_555 1_555
C25_3 O11_2 1_555 1_555
O9_2 Zr13 1_555 1_555
O17_3 Zr13 1_555 1_555
Zr13 O44_2 1_555 1_555
C26_3 H38_3 1_555 1_555
C26_3 H39_3 1_555 1_555
C26_3 H40_3 1_555 1_555
C25_4 C26_4 1_555 1_555
O17_4 C25_4 1_555 1_555
C25_4 O47_2 1_555 1_555
O17_4 Zr14 1_555 1_555
C26_4 H38_4 1_555 1_555
C26_4 H39_4 1_555 1_555
C26_4 H40_4 1_555 1_555
C27_4 C28_4 1_555 1_555
C28_4 C29_4 1_555 1_555
C29_4 H13_4 1_555 1_555
C30_4 C29_4 1_555 1_555
H14_4 C30_4 1_555 1_555
C31_4 C30_4 1_555 1_555
H15_4 C31_4 1_555 1_555
C32_4 C28_4 1_555 1_555
H16_4 C32_4 1_555 1_555
C33_4 C31_4 1_555 1_555
H17_4 C33_4 1_555 1_555
O18_4 C27_4 1_555 1_555
C27_4 O48_2 1_555 1_555
C32_4 C33_4 1_555 1_555
O18_4 Zr10 1_555 1_555
Zr9 O7_3 1_555 1_555
O7_3 Zr8_2 1_555 1_555
O14 Zr8_2 1_555 1_555
O15 Zr9 1_555 1_555
C34_3 C35_3 1_555 1_555
H20_3 C39_3 1_555 1_555
C40_3 C35_3 1_555 1_555
H21_3 C40_3 1_555 1_555
C41_3 C42_3 1_555 1_555
C42_3 C43_3 1_555 1_555
C43_3 H22_3 1_555 1_555
C44_3 C43_3 1_555 1_555
H23_3 C44_3 1_555 1_555
O33_2 C34_3 1_555 1_555
O21_3 Zr8_2 1_555 1_555
O35_2 C41_3 1_555 1_555
O32 Zr14 1_555 1_555
C34_3 O19_3 1_555 1_555
C39_3 C40_3 1_555 1_555
C41_3 O21_3 1_555 1_555
O32 H36 1_555 1_555
O32 H37 1_555 1_555
O15 H43 1_555 1_555
O15 H44 1_555 1_555
C1_3 C2_3 1_555 1_555
H3_3 C6_3 1_555 1_555
C7_3 C2_3 1_555 1_555
H4_3 C7_3 1_555 1_555
C8_3 C9_3 1_555 1_555
C9_3 C10_3 1_555 1_555
C10_3 H5_3 1_555 1_555
C11_3 C10_3 1_555 1_555
H6_3 C11_3 1_555 1_555
O1_3 C1_3 1_555 1_555
O34_2 C1_3 1_555 1_555
O3_3 C8_3 1_555 1_555
O36_2 C8_3 1_555 1_555
O16 Zr13 1_555 1_555
Zr7_2 O3_3 1_555 1_555
Zr10 O25_3 1_555 1_555
O25_3 Zr7_2 1_555 1_555
O30 Zr7_2 1_555 1_555
O31 Zr10 1_555 1_555
C6_3 C7_3 1_555 1_555
O31 H30 1_555 1_555
O31 H31 1_555 1_555
C26_3 H38_5 1_555 1_555
C26_3 H39_5 1_555 1_555
C26_3 H40_5 1_555 1_555
O16 H45 1_555 1_555
O16 H46 1_555 1_555
C26_4 H38_6 1_555 1_555
C26_4 H39_6 1_555 1_555
C26_4 H40_6 1_555 1_555
Zr11 O7_4 1_555 1_555
O7_4 Zr7 1_555 1_555
O14_2 Zr7 1_555 1_555
O15_2 Zr11 1_555 1_555
C34_4 C35_4 1_555 1_555
H20_4 C39_4 1_555 1_555
C40_4 C35_4 1_555 1_555
H21_4 C40_4 1_555 1_555
C41_4 C42_4 1_555 1_555
C42_4 C43_4 1_555 1_555
C43_4 H22_4 1_555 1_555
C44_4 C43_4 1_555 1_555
H23_4 C44_4 1_555 1_555
O34 C34_4 1_555 1_555
O21_4 Zr7 1_555 1_555
O36 C41_4 1_555 1_555
O32_2 Zr16 1_555 1_555
C34_4 O19_4 1_555 1_555
C39_4 C40_4 1_555 1_555
C41_4 O21_4 1_555 1_555
O32_2 H36_2 1_555 1_555
O32_2 H37_2 1_555 1_555
O15_2 H43_2 1_555 1_555
O15_2 H44_2 1_555 1_555
C1_4 C2_4 1_555 1_555
H3_4 C6_4 1_555 1_555
C7_4 C2_4 1_555 1_555
H4_4 C7_4 1_555 1_555
C8_4 C9_4 1_555 1_555
C9_4 C10_4 1_555 1_555
C10_4 H5_4 1_555 1_555
C11_4 C10_4 1_555 1_555
H6_4 C11_4 1_555 1_555
O1_4 C1_4 1_555 1_555
O33 C1_4 1_555 1_555
O3_4 C8_4 1_555 1_555
O35 C8_4 1_555 1_555
O16_2 Zr15 1_555 1_555
Zr8 O3_4 1_555 1_555
Zr12 O25_4 1_555 1_555
O25_4 Zr8 1_555 1_555
O30_2 Zr8 1_555 1_555
O31_2 Zr12 1_555 1_555
C6_4 C7_4 1_555 1_555
O31_2 H30_2 1_555 1_555
O31_2 H31_2 1_555 1_555
C26_2 H38_7 1_555 1_555
C26_2 H39_7 1_555 1_555
C26_2 H40_7 1_555 1_555
O16_2 H45_2 1_555 1_555
O16_2 H46_2 1_555 1_555
C26 H38_8 1_555 1_555
C26 H39_8 1_555 1_555
C26 H40_8 1_555 1_555
O31_3 H30_3 1_555 1_555
O31_3 H31_3 1_555 1_555
O13_3 H42 1_555 1_555
O16_3 H45_3 1_555 1_555
O16_3 H46_3 1_555 1_555
O29_3 H33 1_555 1_555
O32_3 H36_3 1_555 1_555
O32_3 H37_3 1_555 1_555
O15_3 H43_3 1_555 1_555
O15_3 H44_3 1_555 1_555
O13_3 H33_2 1_555 1_555
O29_3 H42_2 1_555 1_555
C15_3 C16_3 1_555 1_555
C16_3 C17_3 1_555 1_555
C17_3 H9_3 1_555 1_555
C21_3 C16_3 1_555 1_555
H12_3 C21_3 1_555 1_555
O5_3 C15_3 1_555 1_555
O6_3 C15_3 1_555 1_555
C48_3 C49_3 1_555 1_555
C49_3 C50_3 1_555 1_555
C50_3 H26_3 1_555 1_555
C54_3 C49_3 1_555 1_555
H29_3 C54_3 1_555 1_555
O23_3 C48_3 1_555 1_555
O24_3 C48_3 1_555 1_555
Zr9_2 O24_3 1_555 1_555
Zr10_2 O6_3 1_555 1_555
Zr13_2 O23_3 1_555 1_555
Zr14_2 O5_3 1_555 1_555
Zr1_3 O1_5 1_555 1_555
Zr2_3 O7_5 1_555 1_555
Zr3_3 O7_5 1_555 1_555
C1_5 C2_5 1_555 1_555
C2_5 C3_3 1_555 1_555
C3_3 H1_3 1_555 1_555
C4_3 C3_3 1_555 1_555
H2_3 C4_3 1_555 1_555
C5_3 C4_3 1_555 1_555
C6_5 C5_3 1_555 1_555
H3_5 C6_5 1_555 1_555
C7_5 C2_5 1_555 1_555
H4_5 C7_5 1_555 1_555
C8_5 C9_5 1_555 1_555
C9_5 C10_5 1_555 1_555
C10_5 H5_5 1_555 1_555
C11_5 C10_5 1_555 1_555
H6_5 C11_5 1_555 1_555
C12_3 C11_5 1_555 1_555
C13_3 C12_3 1_555 1_555
H7_3 C13_3 1_555 1_555
C14_3 C9_5 1_555 1_555
H8_3 C14_3 1_555 1_555
H10_3 C18_3 1_555 1_555
C19_3 C18_3 1_555 1_555
C20_3 C19_3 1_555 1_555
H11_3 C20_3 1_555 1_555
C22_3 C19_3 1_555 1_555
C23_3 C12_3 1_555 1_555
C24_3 C5_3 1_555 1_555
C25_5 C26_5 1_555 1_555
C27_5 C28_5 1_555 1_555
C28_5 C29_5 1_555 1_555
C29_5 H13_5 1_555 1_555
C30_5 C29_5 1_555 1_555
H14_5 C30_5 1_555 1_555
C31_5 C30_5 1_555 1_555
H15_5 C31_5 1_555 1_555
N1_3 C22_3 1_555 1_555
N2_3 C23_3 1_555 1_555
N3_3 C22_3 1_555 1_555
O1_5 C1_5 1_555 1_555
O2_3 C1_5 1_555 1_555
O3_5 C8_5 1_555 1_555
O4_3 C8_5 1_555 1_555
O7_5 Zr1_3 1_555 1_555
O8_3 Zr2_3 1_555 1_555
O9_3 Zr1_3 1_555 1_555
O10_3 Zr1_3 1_555 1_555
O11_3 Zr3_3 1_555 1_555
O12_3 Zr2_3 1_555 1_555
O13_4 Zr1_3 1_555 1_555
O14_4 Zr1_3 1_555 1_555
O15_4 Zr2_3 1_555 1_555
O16_4 Zr3_3 1_555 1_555
O17_5 C25_5 1_555 1_555
C32_5 C28_5 1_555 1_555
H16_5 C32_5 1_555 1_555
C33_5 C31_5 1_555 1_555
H17_5 C33_5 1_555 1_555
O18_5 C27_5 1_555 1_555
Zr4_3 O3_5 1_555 1_555
Zr5_3 O25_5 1_555 1_555
Zr6_3 O25_5 1_555 1_555
C34_5 C35_5 1_555 1_555
C35_5 C36_3 1_555 1_555
C36_3 H18_3 1_555 1_555
C37_3 C36_3 1_555 1_555
H19_3 C37_3 1_555 1_555
C38_3 C37_3 1_555 1_555
C39_5 C38_3 1_555 1_555
H20_5 C39_5 1_555 1_555
C40_5 C35_5 1_555 1_555
H21_5 C40_5 1_555 1_555
C41_5 C42_5 1_555 1_555
C42_5 C43_5 1_555 1_555
C43_5 H22_5 1_555 1_555
C44_5 C43_5 1_555 1_555
H23_5 C44_5 1_555 1_555
C45_3 C44_5 1_555 1_555
C46_3 C45_3 1_555 1_555
H24_3 C46_3 1_555 1_555
C47_3 C42_5 1_555 1_555
H25_3 C47_3 1_555 1_555
H27_3 C51_3 1_555 1_555
C52_3 C51_3 1_555 1_555
C53_3 C52_3 1_555 1_555
H28_3 C53_3 1_555 1_555
C55_3 C52_3 1_555 1_555
C56_3 C45_3 1_555 1_555
C57_3 C38_3 1_555 1_555
N4_3 C55_3 1_555 1_555
N5_3 C56_3 1_555 1_555
N6_3 C55_3 1_555 1_555
O19_5 Zr4_3 1_555 1_555
O20_3 C34_5 1_555 1_555
O21_5 Zr1_3 1_555 1_555
O22_3 C41_5 1_555 1_555
O25_5 Zr4_3 1_555 1_555
O26_3 Zr5_3 1_555 1_555
O27_3 Zr4_3 1_555 1_555
O28_3 Zr4_3 1_555 1_555
O29_4 Zr4_3 1_555 1_555
O30_4 Zr4_3 1_555 1_555
O31_4 Zr5_3 1_555 1_555
O32_4 Zr6_3 1_555 1_555
Zr7_3 O26_3 1_555 1_555
Zr8_3 O8_3 1_555 1_555
Zr10_2 O4_3 1_555 1_555
Zr9_2 O10_3 1_555 1_555
Zr14_2 O20_3 1_555 1_555
Zr13_2 O2_3 1_555 1_555
O33_3 Zr6_3 1_555 1_555
O34_3 Zr3_3 1_555 1_555
O35_3 Zr2_3 1_555 1_555
O36_3 Zr5_3 1_555 1_555
O37_2 Zr6_3 1_555 1_555
O38_2 Zr3_3 1_555 1_555
O39_2 Zr5_3 1_555 1_555
O40_2 Zr2_3 1_555 1_555
O41_3 Zr4_3 1_555 1_555
O42_3 Zr1_3 1_555 1_555
O43_3 Zr6_3 1_555 1_555
O44_3 Zr3_3 1_555 1_555
O45_3 Zr5_3 1_555 1_555
O46_3 Zr2_3 1_555 1_555
O47_3 Zr6_3 1_555 1_555
O48_3 Zr5_3 1_555 1_555
Zr2_3 O10_3 1_555 1_555
Zr3_3 O8_3 1_555 1_555
Zr3_3 O9_3 1_555 1_555
C6_5 C7_5 1_555 1_555
C13_3 C14_3 1_555 1_555
C23_3 N3_3 1_555 1_555
C24_3 N1_3 1_555 1_555
C24_3 N2_3 1_555 1_555
C25_5 O11_3 1_555 1_555
C27_5 O12_3 1_555 1_555
O9_3 Zr13_2 1_555 1_555
O17_5 Zr13_2 1_555 1_555
C32_5 C33_5 1_555 1_555
O18_5 Zr9_2 1_555 1_555
Zr5_3 O28_3 1_555 1_555
Zr6_3 O26_3 1_555 1_555
Zr6_3 O27_3 1_555 1_555
C34_5 O19_5 1_555 1_555
C39_5 C40_5 1_555 1_555
C41_5 O21_5 1_555 1_555
C46_3 C47_3 1_555 1_555
C56_3 N6_3 1_555 1_555
C57_3 N4_3 1_555 1_555
C57_3 N5_3 1_555 1_555
O22_3 Zr9_2 1_555 1_555
O27_3 Zr14_2 1_555 1_555
O28_3 Zr10_2 1_555 1_555
Zr7_3 O43_3 1_555 1_555
Zr7_3 O45_3 1_555 1_555
Zr8_3 O44_3 1_555 1_555
Zr8_3 O46_3 1_555 1_555
Zr10_2 O41_3 1_555 1_555
Zr10_2 O45_3 1_555 1_555
Zr9_2 O42_3 1_555 1_555
Zr9_2 O46_3 1_555 1_555
Zr14_2 O41_3 1_555 1_555
Zr14_2 O43_3 1_555 1_555
Zr13_2 O42_3 1_555 1_555
Zr13_2 O44_3 1_555 1_555
O31_4 H30_4 1_555 1_555
O31_4 H31_4 1_555 1_555
O32_4 H36_4 1_555 1_555
O32_4 H37_4 1_555 1_555
C26_5 H38_9 1_555 1_555
C26_5 H39_9 1_555 1_555
C26_5 H40_9 1_555 1_555
O15_4 H43_4 1_555 1_555
O15_4 H44_4 1_555 1_555
O16_4 H45_4 1_555 1_555
O16_4 H46_4 1_555 1_555
C25_6 C26_6 1_555 1_555
C27_6 C28_6 1_555 1_555
C28_6 C29_6 1_555 1_555
C29_6 H13_6 1_555 1_555
C30_6 C29_6 1_555 1_555
H14_6 C30_6 1_555 1_555
C31_6 C30_6 1_555 1_555
H15_6 C31_6 1_555 1_555
O17_6 C25_6 1_555 1_555
C32_6 C28_6 1_555 1_555
H16_6 C32_6 1_555 1_555
C33_6 C31_6 1_555 1_555
H17_6 C33_6 1_555 1_555
O18_6 C27_6 1_555 1_555
C25_6 O47_3 1_555 1_555
C27_6 O48_3 1_555 1_555
O17_6 Zr14_2 1_555 1_555
C32_6 C33_6 1_555 1_555
O18_6 Zr10_2 1_555 1_555
C26_6 H38_10 1_555 1_555
C26_6 H39_10 1_555 1_555
C26_6 H40_10 1_555 1_555
C36_4 H18_4 1_555 1_555
C37_4 C36_4 1_555 1_555
H19_4 C37_4 1_555 1_555
C38_4 C37_4 1_555 1_555
C46_4 C45_4 1_555 1_555
H24_4 C46_4 1_555 1_555
H25_4 C47_4 1_555 1_555
C48_4 C49_4 1_555 1_555
C49_4 C50_4 1_555 1_555
C50_4 H26_4 1_555 1_555
C51_4 C50_4 1_555 1_555
H27_4 C51_4 1_555 1_555
C52_4 C51_4 1_555 1_555
C53_4 C52_4 1_555 1_555
H28_4 C53_4 1_555 1_555
C54_4 C49_4 1_555 1_555
H29_4 C54_4 1_555 1_555
C55_4 C52_4 1_555 1_555
C56_4 C45_4 1_555 1_555
C57_4 C38_4 1_555 1_555
N4_4 C55_4 1_555 1_555
N5_4 C56_4 1_555 1_555
N6_4 C55_4 1_555 1_555
O38_2 C48_4 1_555 1_555
O40_2 C48_4 1_555 1_555
C46_4 C47_4 1_555 1_555
C53_4 C54_4 1_555 1_555
C56_4 N6_4 1_555 1_555
C57_4 N4_4 1_555 1_555
C57_4 N5_4 1_555 1_555
C3_4 H1_4 1_555 1_555
C4_4 C3_4 1_555 1_555
H2_4 C4_4 1_555 1_555
C5_4 C4_4 1_555 1_555
C13_4 C12_4 1_555 1_555
H7_4 C13_4 1_555 1_555
H8_4 C14_4 1_555 1_555
C15_4 C16_4 1_555 1_555
C16_4 C17_4 1_555 1_555
C17_4 H9_4 1_555 1_555
C18_4 C17_4 1_555 1_555
H10_4 C18_4 1_555 1_555
C19_4 C18_4 1_555 1_555
C20_4 C19_4 1_555 1_555
H11_4 C20_4 1_555 1_555
C21_4 C16_4 1_555 1_555
H12_4 C21_4 1_555 1_555
C22_4 C19_4 1_555 1_555
C23_4 C12_4 1_555 1_555
C24_4 C5_4 1_555 1_555
N1_4 C22_4 1_555 1_555
N2_4 C23_4 1_555 1_555
N3_4 C22_4 1_555 1_555
O37_2 C15_4 1_555 1_555
O39_2 C15_4 1_555 1_555
C13_4 C14_4 1_555 1_555
C20_4 C21_4 1_555 1_555
C23_4 N3_4 1_555 1_555
C24_4 N1_4 1_555 1_555
C24_4 N2_4 1_555 1_555
Zr8_3 O1_6 1_555 1_555
Zr9_2 O7_6 1_555 1_555
Zr13_2 O7_6 1_555 1_555
C1_6 C2_6 1_555 1_555
C2_6 C3_5 1_555 1_555
C3_5 H1_5 1_555 1_555
C4_5 C3_5 1_555 1_555
H2_5 C4_5 1_555 1_555
C5_5 C4_5 1_555 1_555
C6_6 C5_5 1_555 1_555
H3_6 C6_6 1_555 1_555
C7_6 C2_6 1_555 1_555
H4_6 C7_6 1_555 1_555
C15_5 C16_5 1_555 1_555
C16_5 C17_5 1_555 1_555
C17_5 H9_5 1_555 1_555
C18_5 C17_5 1_555 1_555
H10_5 C18_5 1_555 1_555
C19_5 C18_5 1_555 1_555
C22_5 C19_5 1_555 1_555
C24_5 C5_5 1_555 1_555
N1_5 C22_5 1_555 1_555
O1_6 C1_6 1_555 1_555
O34_3 C1_6 1_555 1_555
O39 C15_5 1_555 1_555
O7_6 Zr8_3 1_555 1_555
O13_5 Zr8_3 1_555 1_555
O14_5 Zr8_3 1_555 1_555
O15_5 Zr9_2 1_555 1_555
O16_5 Zr13_2 1_555 1_555
C41_6 C42_6 1_555 1_555
C42_6 C43_6 1_555 1_555
C43_6 H22_6 1_555 1_555
C44_6 C43_6 1_555 1_555
H23_6 C44_6 1_555 1_555
C45_5 C44_6 1_555 1_555
C46_5 C45_5 1_555 1_555
H24_5 C46_5 1_555 1_555
C47_5 C42_6 1_555 1_555
H25_5 C47_5 1_555 1_555
H28_5 C53_5 1_555 1_555
H29_5 C54_5 1_555 1_555
C56_5 C45_5 1_555 1_555
O21_6 Zr8_3 1_555 1_555
O35_3 C41_6 1_555 1_555
C6_6 C7_6 1_555 1_555
C24_5 N1_5 1_555 1_555
C24_5 N2_5 1_555 1_555
C41_6 O21_6 1_555 1_555
C46_5 C47_5 1_555 1_555
C53_5 C54_5 1_555 1_555
C56_5 N6_5 1_555 1_555
C26_5 H38_11 1_555 1_555
C26_5 H39_11 1_555 1_555
C26_5 H40_11 1_555 1_555
O15_5 H43_5 1_555 1_555
O15_5 H44_5 1_555 1_555
O16_5 H45_5 1_555 1_555
O16_5 H46_5 1_555 1_555
C8_6 C9_6 1_555 1_555
C9_6 C10_6 1_555 1_555
C10_6 H5_6 1_555 1_555
C11_6 C10_6 1_555 1_555
H6_6 C11_6 1_555 1_555
C12_5 C11_6 1_555 1_555
C13_5 C12_5 1_555 1_555
H7_5 C13_5 1_555 1_555
C14_5 C9_6 1_555 1_555
H8_5 C14_5 1_555 1_555
H11_5 C20_5 1_555 1_555
H12_5 C21_5 1_555 1_555
C23_5 C12_5 1_555 1_555
O3_6 C8_6 1_555 1_555
O36_3 C8_6 1_555 1_555
Zr7_3 O3_6 1_555 1_555
Zr10_2 O25_6 1_555 1_555
Zr14_2 O25_6 1_555 1_555
C34_6 C35_6 1_555 1_555
C35_6 C36_5 1_555 1_555
C36_5 H18_5 1_555 1_555
C37_5 C36_5 1_555 1_555
H19_5 C37_5 1_555 1_555
C38_5 C37_5 1_555 1_555
C39_6 C38_5 1_555 1_555
H20_6 C39_6 1_555 1_555
C40_6 C35_6 1_555 1_555
H21_6 C40_6 1_555 1_555
C48_5 C49_5 1_555 1_555
C49_5 C50_5 1_555 1_555
C50_5 H26_5 1_555 1_555
C51_5 C50_5 1_555 1_555
H27_5 C51_5 1_555 1_555
C52_5 C51_5 1_555 1_555
C55_5 C52_5 1_555 1_555
C57_5 C38_5 1_555 1_555
N4_5 C55_5 1_555 1_555
O19_6 Zr7_3 1_555 1_555
O33_3 C34_6 1_555 1_555
O40 C48_5 1_555 1_555
O25_6 Zr7_3 1_555 1_555
O29_5 Zr7_3 1_555 1_555
O30_5 Zr7_3 1_555 1_555
O31_5 Zr10_2 1_555 1_555
O32_5 Zr14_2 1_555 1_555
C13_5 C14_5 1_555 1_555
C20_5 C21_5 1_555 1_555
C23_5 N3_5 1_555 1_555
C34_6 O19_6 1_555 1_555
C39_6 C40_6 1_555 1_555
C57_5 N4_5 1_555 1_555
C57_5 N5_5 1_555 1_555
O31_5 H30_5 1_555 1_555
O31_5 H31_5 1_555 1_555
O32_5 H36_5 1_555 1_555
O32_5 H37_5 1_555 1_555
C26_6 H38_12 1_555 1_555
C26_6 H39_12 1_555 1_555
C26_6 H40_12 1_555 1_555
O29_6 H33_3 1_555 1_555
O32_6 H36_6 1_555 1_555
O32_6 H37_6 1_555 1_555
O31_6 H30_6 1_555 1_555
O31_6 H31_6 1_555 1_555
O15_6 H43_6 1_555 1_555
O15_6 H44_6 1_555 1_555
O13_6 H42_3 1_555 1_555
O16_6 H45_6 1_555 1_555
O16_6 H46_6 1_555 1_555
O29_6 H42_4 1_555 1_555
O13_6 H33_4 1_555 1_555
C8_7 C9_7 1_555 1_555
C9_7 C10_7 1_555 1_555
C10_7 H5_7 1_555 1_555
C11_7 C10_7 1_555 1_555
H6_7 C11_7 1_555 1_555
C12_6 C11_7 1_555 1_555
C13_6 C12_6 1_555 1_555
H7_6 C13_6 1_555 1_555
C14_6 C9_7 1_555 1_555
H8_6 C14_6 1_555 1_555
H11_6 C20_6 1_555 1_555
H12_6 C21_6 1_555 1_555
C23_6 C12_6 1_555 1_555
O3_7 C8_7 1_555 1_555
O4_4 C8_7 1_555 1_555
Zr4_4 O3_7 1_555 1_555
Zr5_4 O25_7 1_555 1_555
Zr6_4 O25_7 1_555 1_555
C34_7 C35_7 1_555 1_555
C35_7 C36_6 1_555 1_555
C36_6 H18_6 1_555 1_555
C37_6 C36_6 1_555 1_555
H19_6 C37_6 1_555 1_555
C38_6 C37_6 1_555 1_555
C39_7 C38_6 1_555 1_555
H20_7 C39_7 1_555 1_555
C40_7 C35_7 1_555 1_555
H21_7 C40_7 1_555 1_555
C48_6 C49_6 1_555 1_555
C49_6 C50_6 1_555 1_555
C50_6 H26_6 1_555 1_555
C51_6 C50_6 1_555 1_555
H27_6 C51_6 1_555 1_555
C52_6 C51_6 1_555 1_555
C55_6 C52_6 1_555 1_555
C57_6 C38_6 1_555 1_555
N4_6 C55_6 1_555 1_555
O19_7 Zr4_4 1_555 1_555
O20_4 C34_7 1_555 1_555
O40_3 C48_6 1_555 1_555
O25_7 Zr4_4 1_555 1_555
O26_4 Zr5_4 1_555 1_555
O27_4 Zr4_4 1_555 1_555
O28_4 Zr4_4 1_555 1_555
O29_7 Zr4_4 1_555 1_555
O30_7 Zr4_4 1_555 1_555
O31_7 Zr5_4 1_555 1_555
O32_7 Zr6_4 1_555 1_555
Zr7_4 O26_4 1_555 1_555
Zr11_2 O4_4 1_555 1_555
Zr15_2 O20_4 1_555 1_555
O33_4 Zr6_4 1_555 1_555
O36_4 Zr5_4 1_555 1_555
O37_4 Zr6_4 1_555 1_555
O39_4 Zr5_4 1_555 1_555
O41_4 Zr4_4 1_555 1_555
O43_4 Zr6_4 1_555 1_555
O45_4 Zr5_4 1_555 1_555
O47_4 Zr6_4 1_555 1_555
O48_4 Zr5_4 1_555 1_555
C13_6 C14_6 1_555 1_555
C20_6 C21_6 1_555 1_555
C23_6 N3_6 1_555 1_555
Zr5_4 O28_4 1_555 1_555
Zr6_4 O26_4 1_555 1_555
Zr6_4 O27_4 1_555 1_555
C34_7 O19_7 1_555 1_555
C39_7 C40_7 1_555 1_555
C57_6 N4_6 1_555 1_555
C57_6 N5_6 1_555 1_555
O27_4 Zr15_2 1_555 1_555
O28_4 Zr11_2 1_555 1_555
Zr7_4 O43_4 1_555 1_555
Zr7_4 O45_4 1_555 1_555
Zr11_2 O41_4 1_555 1_555
Zr11_2 O45_4 1_555 1_555
Zr15_2 O41_4 1_555 1_555
Zr15_2 O43_4 1_555 1_555
O31_7 H30_7 1_555 1_555
O31_7 H31_7 1_555 1_555
O32_7 H36_7 1_555 1_555
O32_7 H37_7 1_555 1_555
Zr1_4 O1_7 1_555 1_555
Zr2_4 O7_7 1_555 1_555
Zr3_4 O7_7 1_555 1_555
C1_7 C2_7 1_555 1_555
C2_7 C3_6 1_555 1_555
C3_6 H1_6 1_555 1_555
C4_6 C3_6 1_555 1_555
H2_6 C4_6 1_555 1_555
C5_6 C4_6 1_555 1_555
C6_7 C5_6 1_555 1_555
H3_7 C6_7 1_555 1_555
C7_7 C2_7 1_555 1_555
H4_7 C7_7 1_555 1_555
C15_6 C16_6 1_555 1_555
C16_6 C17_6 1_555 1_555
C17_6 H9_6 1_555 1_555
C18_6 C17_6 1_555 1_555
H10_6 C18_6 1_555 1_555
C19_6 C18_6 1_555 1_555
C22_6 C19_6 1_555 1_555
C24_6 C5_6 1_555 1_555
C25_7 C26_7 1_555 1_555
C27_7 C28_7 1_555 1_555
C28_7 C29_7 1_555 1_555
C29_7 H13_7 1_555 1_555
C30_7 C29_7 1_555 1_555
H14_7 C30_7 1_555 1_555
C31_7 C30_7 1_555 1_555
H15_7 C31_7 1_555 1_555
N1_6 C22_6 1_555 1_555
O1_7 C1_7 1_555 1_555
O2_4 C1_7 1_555 1_555
O39_3 C15_6 1_555 1_555
O7_7 Zr1_4 1_555 1_555
O8_4 Zr2_4 1_555 1_555
O9_4 Zr1_4 1_555 1_555
O10_4 Zr1_4 1_555 1_555
O11_4 Zr3_4 1_555 1_555
O12_4 Zr2_4 1_555 1_555
O13_7 Zr1_4 1_555 1_555
O14_7 Zr1_4 1_555 1_555
O15_7 Zr2_4 1_555 1_555
O16_7 Zr3_4 1_555 1_555
O17_7 C25_7 1_555 1_555
C32_7 C28_7 1_555 1_555
H16_7 C32_7 1_555 1_555
C33_7 C31_7 1_555 1_555
H17_7 C33_7 1_555 1_555
O18_7 C27_7 1_555 1_555
C41_7 C42_7 1_555 1_555
C42_7 C43_7 1_555 1_555
C43_7 H22_7 1_555 1_555
C44_7 C43_7 1_555 1_555
H23_7 C44_7 1_555 1_555
C45_6 C44_7 1_555 1_555
C46_6 C45_6 1_555 1_555
H24_6 C46_6 1_555 1_555
C47_6 C42_7 1_555 1_555
H25_6 C47_6 1_555 1_555
H28_6 C53_6 1_555 1_555
H29_6 C54_6 1_555 1_555
C56_6 C45_6 1_555 1_555
O21_7 Zr1_4 1_555 1_555
O22_4 C41_7 1_555 1_555
Zr8_4 O8_4 1_555 1_555
Zr12_2 O10_4 1_555 1_555
Zr16_2 O2_4 1_555 1_555
O34_4 Zr3_4 1_555 1_555
O35_4 Zr2_4 1_555 1_555
O38_4 Zr3_4 1_555 1_555
O40_4 Zr2_4 1_555 1_555
O42_4 Zr1_4 1_555 1_555
O44_4 Zr3_4 1_555 1_555
O46_4 Zr2_4 1_555 1_555
Zr2_4 O10_4 1_555 1_555
Zr3_4 O8_4 1_555 1_555
Zr3_4 O9_4 1_555 1_555
C6_7 C7_7 1_555 1_555
C24_6 N1_6 1_555 1_555
C24_6 N2_6 1_555 1_555
C25_7 O11_4 1_555 1_555
C27_7 O12_4 1_555 1_555
O9_4 Zr16_2 1_555 1_555
O17_7 Zr16_2 1_555 1_555
C32_7 C33_7 1_555 1_555
O18_7 Zr12_2 1_555 1_555
C41_7 O21_7 1_555 1_555
C46_6 C47_6 1_555 1_555
C53_6 C54_6 1_555 1_555
C56_6 N6_6 1_555 1_555
O22_4 Zr12_2 1_555 1_555
Zr8_4 O44_4 1_555 1_555
Zr8_4 O46_4 1_555 1_555
Zr12_2 O42_4 1_555 1_555
Zr12_2 O46_4 1_555 1_555
Zr16_2 O42_4 1_555 1_555
Zr16_2 O44_4 1_555 1_555
C26_7 H38_13 1_555 1_555
C26_7 H39_13 1_555 1_555
C26_7 H40_13 1_555 1_555
O15_7 H43_7 1_555 1_555
O15_7 H44_7 1_555 1_555
O16_7 H45_7 1_555 1_555
O16_7 H46_7 1_555 1_555
C25_8 C26_8 1_555 1_555
C27_8 C28_8 1_555 1_555
C28_8 C29_8 1_555 1_555
C29_8 H13_8 1_555 1_555
C30_8 C29_8 1_555 1_555
H14_8 C30_8 1_555 1_555
C31_8 C30_8 1_555 1_555
H15_8 C31_8 1_555 1_555
O17_8 C25_8 1_555 1_555
C32_8 C28_8 1_555 1_555
H16_8 C32_8 1_555 1_555
C33_8 C31_8 1_555 1_555
H17_8 C33_8 1_555 1_555
O18_8 C27_8 1_555 1_555
C25_8 O47_4 1_555 1_555
C27_8 O48_4 1_555 1_555
O17_8 Zr15_2 1_555 1_555
C32_8 C33_8 1_555 1_555
O18_8 Zr11_2 1_555 1_555
C26_8 H38_14 1_555 1_555
C26_8 H39_14 1_555 1_555
C26_8 H40_14 1_555 1_555
C36_7 H18_7 1_555 1_555
C37_7 C36_7 1_555 1_555
H19_7 C37_7 1_555 1_555
C38_7 C37_7 1_555 1_555
C46_7 C45_7 1_555 1_555
H24_7 C46_7 1_555 1_555
H25_7 C47_7 1_555 1_555
C48_7 C49_7 1_555 1_555
C49_7 C50_7 1_555 1_555
C50_7 H26_7 1_555 1_555
C51_7 C50_7 1_555 1_555
H27_7 C51_7 1_555 1_555
C52_7 C51_7 1_555 1_555
C53_7 C52_7 1_555 1_555
H28_7 C53_7 1_555 1_555
C54_7 C49_7 1_555 1_555
H29_7 C54_7 1_555 1_555
C55_7 C52_7 1_555 1_555
C56_7 C45_7 1_555 1_555
C57_7 C38_7 1_555 1_555
N4_7 C55_7 1_555 1_555
N5_7 C56_7 1_555 1_555
N6_7 C55_7 1_555 1_555
O23_4 C48_7 1_555 1_555
O24_4 C48_7 1_555 1_555
Zr11_2 O24_4 1_555 1_555
Zr15_2 O23_4 1_555 1_555
C46_7 C47_7 1_555 1_555
C53_7 C54_7 1_555 1_555
C56_7 N6_7 1_555 1_555
C57_7 N4_7 1_555 1_555
C57_7 N5_7 1_555 1_555
C3_7 H1_7 1_555 1_555
C4_7 C3_7 1_555 1_555
H2_7 C4_7 1_555 1_555
C5_7 C4_7 1_555 1_555
C13_7 C12_7 1_555 1_555
H7_7 C13_7 1_555 1_555
H8_7 C14_7 1_555 1_555
C15_7 C16_7 1_555 1_555
C16_7 C17_7 1_555 1_555
C17_7 H9_7 1_555 1_555
C18_7 C17_7 1_555 1_555
H10_7 C18_7 1_555 1_555
C19_7 C18_7 1_555 1_555
C20_7 C19_7 1_555 1_555
H11_7 C20_7 1_555 1_555
C21_7 C16_7 1_555 1_555
H12_7 C21_7 1_555 1_555
C22_7 C19_7 1_555 1_555
C23_7 C12_7 1_555 1_555
C24_7 C5_7 1_555 1_555
N1_7 C22_7 1_555 1_555
N2_7 C23_7 1_555 1_555
N3_7 C22_7 1_555 1_555
O5_4 C15_7 1_555 1_555
O6_4 C15_7 1_555 1_555
Zr12_2 O6_4 1_555 1_555
Zr16_2 O5_4 1_555 1_555
C13_7 C14_7 1_555 1_555
C20_7 C21_7 1_555 1_555
C23_7 N3_7 1_555 1_555
C24_7 N1_7 1_555 1_555
C24_7 N2_7 1_555 1_555
Zr7_4 O1_8 1_555 1_555
Zr11_2 O7_8 1_555 1_555
Zr15_2 O7_8 1_555 1_555
C1_8 C2_8 1_555 1_555
C2_8 C3_8 1_555 1_555
C3_8 H1_8 1_555 1_555
C4_8 C3_8 1_555 1_555
H2_8 C4_8 1_555 1_555
C5_8 C4_8 1_555 1_555
C6_8 C5_8 1_555 1_555
H3_8 C6_8 1_555 1_555
C7_8 C2_8 1_555 1_555
H4_8 C7_8 1_555 1_555
C8_8 C9_8 1_555 1_555
C9_8 C10_8 1_555 1_555
C10_8 H5_8 1_555 1_555
C11_8 C10_8 1_555 1_555
H6_8 C11_8 1_555 1_555
C12_8 C11_8 1_555 1_555
C13_8 C12_8 1_555 1_555
H7_8 C13_8 1_555 1_555
C14_8 C9_8 1_555 1_555
H8_8 C14_8 1_555 1_555
H10_8 C18_8 1_555 1_555
C19_8 C18_8 1_555 1_555
C20_8 C19_8 1_555 1_555
H11_8 C20_8 1_555 1_555
C22_8 C19_8 1_555 1_555
C23_8 C12_8 1_555 1_555
C24_8 C5_8 1_555 1_555
N1_8 C22_8 1_555 1_555
N2_8 C23_8 1_555 1_555
N3_8 C22_8 1_555 1_555
O1_8 C1_8 1_555 1_555
O33_4 C1_8 1_555 1_555
O3_8 C8_8 1_555 1_555
O35_4 C8_8 1_555 1_555
O7_8 Zr7_4 1_555 1_555
O13_8 Zr7_4 1_555 1_555
O14_8 Zr7_4 1_555 1_555
O15_8 Zr11_2 1_555 1_555
O16_8 Zr15_2 1_555 1_555
Zr8_4 O3_8 1_555 1_555
Zr12_2 O25_8 1_555 1_555
Zr16_2 O25_8 1_555 1_555
C34_8 C35_8 1_555 1_555
C35_8 C36_8 1_555 1_555
C36_8 H18_8 1_555 1_555
C37_8 C36_8 1_555 1_555
H19_8 C37_8 1_555 1_555
C38_8 C37_8 1_555 1_555
C39_8 C38_8 1_555 1_555
H20_8 C39_8 1_555 1_555
C40_8 C35_8 1_555 1_555
H21_8 C40_8 1_555 1_555
C41_8 C42_8 1_555 1_555
C42_8 C43_8 1_555 1_555
C43_8 H22_8 1_555 1_555
C44_8 C43_8 1_555 1_555
H23_8 C44_8 1_555 1_555
C45_8 C44_8 1_555 1_555
C46_8 C45_8 1_555 1_555
H24_8 C46_8 1_555 1_555
C47_8 C42_8 1_555 1_555
H25_8 C47_8 1_555 1_555
H27_8 C51_8 1_555 1_555
C52_8 C51_8 1_555 1_555
C53_8 C52_8 1_555 1_555
H28_8 C53_8 1_555 1_555
C55_8 C52_8 1_555 1_555
C56_8 C45_8 1_555 1_555
C57_8 C38_8 1_555 1_555
N4_8 C55_8 1_555 1_555
N5_8 C56_8 1_555 1_555
N6_8 C55_8 1_555 1_555
O19_8 Zr8_4 1_555 1_555
O34_4 C34_8 1_555 1_555
O21_8 Zr7_4 1_555 1_555
O36_4 C41_8 1_555 1_555
O25_8 Zr8_4 1_555 1_555
O29_8 Zr8_4 1_555 1_555
O30_8 Zr8_4 1_555 1_555
O31_8 Zr12_2 1_555 1_555
O32_8 Zr16_2 1_555 1_555
C6_8 C7_8 1_555 1_555
C13_8 C14_8 1_555 1_555
C23_8 N3_8 1_555 1_555
C24_8 N1_8 1_555 1_555
C24_8 N2_8 1_555 1_555
C34_8 O19_8 1_555 1_555
C39_8 C40_8 1_555 1_555
C41_8 O21_8 1_555 1_555
C46_8 C47_8 1_555 1_555
C56_8 N6_8 1_555 1_555
C57_8 N4_8 1_555 1_555
C57_8 N5_8 1_555 1_555
O31_8 H30_8 1_555 1_555
O31_8 H31_8 1_555 1_555
O32_8 H36_8 1_555 1_555
O32_8 H37_8 1_555 1_555
C26_8 H38_15 1_555 1_555
C26_8 H39_15 1_555 1_555
C26_8 H40_15 1_555 1_555
O15_8 H43_8 1_555 1_555
O15_8 H44_8 1_555 1_555
O16_8 H45_8 1_555 1_555
O16_8 H46_8 1_555 1_555
C26_7 H38_16 1_555 1_555
C26_7 H39_16 1_555 1_555
C26_7 H40_16 1_555 1_555
C15_8 C16_8 1_555 1_555
C16_8 C17_8 1_555 1_555
C17_8 H9_8 1_555 1_555
C21_8 C16_8 1_555 1_555
H12_8 C21_8 1_555 1_555
O37_4 C15_8 1_555 1_555
O39_4 C15_8 1_555 1_555
C48_8 C49_8 1_555 1_555
C49_8 C50_8 1_555 1_555
C50_8 H26_8 1_555 1_555
C54_8 C49_8 1_555 1_555
H29_8 C54_8 1_555 1_555
O38_4 C48_8 1_555 1_555
O40_4 C48_8 1_555 1_555

#END
