
###############################################################################
#
# This file contains modified crystal structure data generated from the
# MOF subset of the Cambridge Structural Database (CSD) v543 
# hosted by the Cambridge Crystallographic Data Centre (CCDC).
#
# This work is licensed under the Creative Commons
# Attribution-NonCommercial-ShareAlike 4.0 International License.
# To view a copy of this license, visit
# http://creativecommons.org/licenses/by-nc-sa/4.0/
# or send a letter to
# Creative Commons, PO Box 1866, Mountain View, CA 94042, USA.
#
# CIF created using the CSD Python API on 29 September 2022
# The structure has been converted into the P1 space group
# The structure has a 3D framework
# The original CSD entry GAVYAG is in the monoclinic crystal system
# The framework has been calculated to contain at least 10.0% void space
# The void calculation uses a probe of radius 1.32A, grid spacing 0.4
# The framework is charged, counterions have been retained in the structure
#
###############################################################################

data_GAVYAG
_chemical_formula_moiety         '(C60 H64 N24 O16 Zn4 1-)n'
_symmetry_cell_setting           triclinic
_symmetry_space_group_name_H-M   'P 1'
_symmetry_Int_Tables_number      1
_space_group_name_Hall           'P 1'
loop_
_symmetry_equiv_pos_site_id
_symmetry_equiv_pos_as_xyz
1 x,y,z
_cell_length_a                   10.370(2)
_cell_length_b                   10.025(2)
_cell_length_c                   19.575(4)
_cell_angle_alpha                90
_cell_angle_beta                 92.13(3)
_cell_angle_gamma                90
_cell_volume                     2033.6
loop_
_atom_site_label
_atom_site_type_symbol
_atom_site_fract_x
_atom_site_fract_y
_atom_site_fract_z
Zn4 Zn 0.00867(9) 0.25801(9) 0.65896(5)
Zn1 Zn 0.99133(9) 0.74199(9) 0.34104(5)
O1 O 0.9340(6) 0.6358(7) 0.4463(4)
O2 O 0.8034(6) 0.6816(7) 0.3602(4)
N3 N 0.8413(7) 0.4814(7) 0.2516(4)
H1 H 0.798245 0.543582 0.270595
H2 H 0.801470 0.416214 0.231509
C1 C 0.4844(8) 0.5382(8) 0.4711(4)
C3 C 0.7144(8) 0.5701(8) 0.4563(4)
C4 C 0.5882(8) 0.5908(8) 0.4329(4)
H3 H 0.571042 0.638253 0.392726
C8 C 0.9725(7) 0.4860(8) 0.2532(4)
C10 C 0.3557(8) 0.5588(9) 0.4487(5)
H7 H 0.337410 0.608405 0.409361
C11 C 0.8230(9) 0.6337(9) 0.4194(5)
C13 C 0.7442(8) 0.4947(9) 0.5150(5)
H8 H 0.829659 0.480832 0.529364
O5 O 0.0660(6) 0.3642(7) 0.5537(4)
O6 O 0.1966(6) 0.3184(7) 0.6398(4)
C14 C 0.5156(8) 0.4618(8) 0.5289(4)
C15 C 0.2856(8) 0.4299(8) 0.5437(4)
C16 C 0.4118(8) 0.4092(8) 0.5671(4)
H9 H 0.428958 0.361747 0.607274
C17 C 0.6443(8) 0.4412(9) 0.5513(5)
H10 H 0.662590 0.391595 0.590639
C18 C 0.1770(9) 0.3663(9) 0.5806(5)
C19 C 0.2558(8) 0.5053(9) 0.4850(5)
H11 H 0.170341 0.519168 0.470636
N8 N 0.1587(7) 0.5186(7) 0.7484(4)
H15 H 0.201755 0.456418 0.729405
H16 H 0.198530 0.583786 0.768491
C26 C 0.0275(7) 0.5140(8) 0.7468(4)
N11 N 0.9516(6) 0.8997(7) 0.2783(4)
N12 N 0.0484(6) 0.1003(7) 0.7217(4)
N10 N 0.1710(7) 0.0549(7) 0.7339(4)
N5 N 0.8290(7) 0.9451(7) 0.2661(4)
C9 C 0.2625(8) 0.0128(8) 0.5202(4)
H6 H 0.180823 0.032573 0.535382
O7 O 0.9531(5) 0.0630(6) 0.5652(3)
O8 O 0.8351(5) 0.2067(6) 0.6209(3)
C20 C 0.4942(8) 0.0357(8) 0.5316(4)
C21 C 0.7252(8) 0.0613(8) 0.5405(5)
C22 C 0.3684(8) 0.0556(9) 0.5566(4)
H12 H 0.358738 0.098338 0.598233
C23 C 0.6074(7) 0.0840(8) 0.5652(4)
H13 H 0.600681 0.132568 0.605407
C25 C 0.8450(8) 0.1114(9) 0.5781(4)
N6 N 0.8318(6) 0.4483(7) 0.7288(4)
N7 N 0.9603(6) 0.4183(7) 0.7173(4)
N9 N 0.9516(6) 0.6003(7) 0.7783(4)
N10_2 N 0.8290(7) 0.5549(7) 0.7661(4)
Zn5 Zn 0.99133(9) 0.75801(9) 0.84104(5)
C13_2 C 0.2558(8) 0.9947(9) 0.9850(5)
H8_2 H 0.170341 0.980832 0.970636
O5_2 O 0.9340(6) 0.8642(7) 0.9463(4)
O6_2 O 0.8034(6) 0.8184(7) 0.8602(4)
C14_2 C 0.4844(8) 0.9618(8) 0.9711(4)
C15_2 C 0.7144(8) 0.9299(8) 0.9563(4)
C16_2 C 0.5882(8) 0.9092(8) 0.9329(4)
H9_2 H 0.571042 0.861747 0.892726
C17_2 C 0.3557(8) 0.9412(9) 0.9487(5)
H10_2 H 0.337410 0.891595 0.909361
C18_2 C 0.8230(9) 0.8663(9) 0.9194(5)
H15_2 H 0.798245 0.956418 0.770595
O3 O 0.0469(5) 0.9370(6) 0.4348(3)
O4 O 0.1649(5) 0.7933(6) 0.3791(3)
N1 N 0.1682(6) 0.5517(7) 0.2712(4)
N2 N 0.0397(6) 0.5817(7) 0.2827(4)
N4 N 0.0484(6) 0.3997(7) 0.2217(4)
N5_2 N 0.1710(7) 0.4451(7) 0.2339(4)
C2 C 0.5058(8) 0.9643(8) 0.4684(4)
C5 C 0.2748(8) 0.9387(8) 0.4595(5)
C6 C 0.6316(8) 0.9444(9) 0.4434(4)
H4 H 0.641262 0.901662 0.401767
C7 C 0.3926(7) 0.9160(8) 0.4348(4)
H5 H 0.399319 0.867432 0.394593
C12 C 0.1550(8) 0.8886(9) 0.4219(4)
C24 C 0.7375(8) 0.9872(8) 0.4798(4)
H14 H 0.819177 0.967427 0.464618
Zn3 Zn 0.00867(9) 0.24199(9) 0.15896(5)
O1_2 O 0.0660(6) 0.1358(7) 0.0537(4)
O2_2 O 0.1966(6) 0.1816(7) 0.1398(4)
H1_2 H 0.201755 0.043582 0.229405
C1_2 C 0.5156(8) 0.0382(8) 0.0289(4)
C3_2 C 0.2856(8) 0.0701(8) 0.0437(4)
C4_2 C 0.4118(8) 0.0908(8) 0.0671(4)
H3_2 H 0.428958 0.138253 0.107274
C10_2 C 0.6443(8) 0.0588(9) 0.0513(5)
H7_2 H 0.662590 0.108405 0.090639
C11_2 C 0.1770(9) 0.1337(9) 0.0806(5)
C19_2 C 0.7442(8) 0.0053(9) 0.0150(5)
H11_2 H 0.829659 0.019168 0.029364
N6_2 N 0.1682(6) 0.9483(7) 0.7712(4)
N7_2 N 0.0397(6) 0.9183(7) 0.7827(4)
O9 O 0.1649(5) 0.7067(6) 0.8791(3)
C9_2 C 0.7375(8) 0.5128(8) 0.9798(4)
H6_2 H 0.819177 0.532573 0.964618
O7_2 O 0.0469(5) 0.5630(6) 0.9348(3)
C20_2 C 0.5058(8) 0.5357(8) 0.9684(4)
C21_2 C 0.2748(8) 0.5613(8) 0.9595(5)
C22_2 C 0.6316(8) 0.5556(9) 0.9434(4)
H12_2 H 0.641262 0.598338 0.901767
C23_2 C 0.3926(7) 0.5840(8) 0.9348(4)
H13_2 H 0.399319 0.632568 0.894593
C25_2 C 0.1550(8) 0.6114(9) 0.9219(4)
N8_2 N 0.8413(7) 0.0186(7) 0.7516(4)
H16_2 H 0.801470 0.083786 0.731509
C26_2 C 0.9725(7) 0.0140(8) 0.7532(4)
N3_2 N 0.1587(7) 0.9814(7) 0.2484(4)
H2_2 H 0.198530 0.916214 0.268491
C8_2 C 0.0275(7) 0.9860(8) 0.2468(4)
O3_2 O 0.9531(5) 0.4370(6) 0.0652(3)
O4_2 O 0.8351(5) 0.2933(6) 0.1209(3)
N1_2 N 0.8318(6) 0.0517(7) 0.2288(4)
N2_2 N 0.9603(6) 0.0817(7) 0.2173(4)
C2_2 C 0.4942(8) 0.4643(8) 0.0316(4)
C5_2 C 0.7252(8) 0.4387(8) 0.0405(5)
C6_2 C 0.3684(8) 0.4444(9) 0.0566(4)
H4_2 H 0.358738 0.401662 0.098233
C7_2 C 0.6074(7) 0.4160(8) 0.0652(4)
H5_2 H 0.600681 0.367432 0.105407
C12_2 C 0.8450(8) 0.3886(9) 0.0781(4)
C24_2 C 0.2625(8) 0.4872(8) 0.0202(4)
H14_2 H 0.180823 0.467427 0.035382
N13 N 0.0287(8) 0.2163(7) 0.4313(4)
H17 H 0.028655 0.130082 0.442163
H18 H 0.041040 0.262427 0.469880
C27 C 0.1382(13) 0.2430(11) 0.3859(6)
H19 H 0.128269 0.189832 0.345264
H20 H 0.218101 0.220664 0.409505
H21 H 0.138722 0.335773 0.373699
C28 C 0.8999(12) 0.2521(11) 0.3999(7)
H22 H 0.900460 0.343812 0.385830
H23 H 0.834614 0.239150 0.432757
H24 H 0.881836 0.196259 0.360843
C28_2 C 0.1001(12) 0.7521(11) 0.1001(7)
H22_2 H 0.099540 0.843812 0.114170
H23_2 H 0.165386 0.739150 0.067243
H24_2 H 0.118164 0.696259 0.139157
N13_2 N 0.9713(8) 0.7163(7) 0.0687(4)
H17_2 H 0.971345 0.630082 0.057837
H18_2 H 0.958960 0.762427 0.030120
C27_2 C 0.8618(13) 0.7430(11) 0.1141(6)
H19_2 H 0.871731 0.689832 0.154736
H20_2 H 0.781899 0.720664 0.090495
H21_2 H 0.861278 0.835773 0.126301
C28_3 C 0.1001(12) 0.7479(11) 0.6001(7)
H22_3 H 0.099540 0.656188 0.614170
H23_3 H 0.165386 0.760850 0.567243
H24_3 H 0.118164 0.803741 0.639157
N13_3 N 0.9713(8) 0.7837(7) 0.5687(4)
H17_3 H 0.971345 0.869918 0.557837
H18_3 H 0.958960 0.737573 0.530120
C27_3 C 0.8618(13) 0.7570(11) 0.6141(6)
H19_3 H 0.871731 0.810168 0.654736
H20_3 H 0.781899 0.779336 0.590495
H21_3 H 0.861278 0.664227 0.626301
N13_4 N 0.0287(8) 0.2837(7) 0.9313(4)
H17_4 H 0.028655 0.369918 0.942163
H18_4 H 0.041040 0.237573 0.969880
C27_4 C 0.1382(13) 0.2570(11) 0.8859(6)
H19_4 H 0.128269 0.310168 0.845264
H20_4 H 0.218101 0.279336 0.909505
H21_4 H 0.138722 0.164227 0.873699
C28_4 C 0.8999(12) 0.2479(11) 0.8999(7)
H22_4 H 0.900460 0.156188 0.885830
H23_4 H 0.834614 0.260850 0.932757
H24_4 H 0.881836 0.303741 0.860843
loop_
_geom_bond_atom_site_label_1
_geom_bond_atom_site_label_2
_geom_bond_site_symmetry_1
_geom_bond_site_symmetry_2
Zn1 O1 1_555 1_555
O1 C11 1_555 1_555
O2 Zn1 1_555 1_555
N3 H1 1_555 1_555
H2 N3 1_555 1_555
C1 C4 1_555 1_555
C3 C4 1_555 1_555
C4 H3 1_555 1_555
C10 C1 1_555 1_555
H7 C10 1_555 1_555
C11 O2 1_555 1_555
C13 C3 1_555 1_555
H8 C13 1_555 1_555
O5 C18 1_555 1_555
O6 C18 1_555 1_555
C14 C1 1_555 1_555
C15 C16 1_555 1_555
C16 C14 1_555 1_555
H9 C16 1_555 1_555
C17 C13 1_555 1_555
H10 C17 1_555 1_555
C18 C15 1_555 1_555
C19 C10 1_555 1_555
H11 C19 1_555 1_555
Zn4 O5 1_555 1_555
N8 H15 1_555 1_555
H16 N8 1_555 1_555
N11 Zn1 1_555 1_555
N12 Zn4 1_555 1_555
N3 C8 1_555 1_555
C3 C11 1_555 1_555
O6 Zn4 1_555 1_555
C14 C17 1_555 1_555
C15 C19 1_555 1_555
N8 C26 1_555 1_555
N12 N10 1_555 1_555
N11 N5 1_555 1_555
H6 C9 1_555 1_555
O7 C25 1_555 1_555
O8 C25 1_555 1_555
C21 C23 1_555 1_555
C22 C9 1_555 1_555
H12 C22 1_555 1_555
C23 C20 1_555 1_555
H13 C23 1_555 1_555
C25 C21 1_555 1_555
C20 C22 1_555 1_555
N6 N7 1_555 1_555
N9 N10_2 1_555 1_555
N10_2 N6 1_555 1_555
Zn5 N9 1_555 1_555
H8_2 C13_2 1_555 1_555
O5_2 C18_2 1_555 1_555
O6_2 C18_2 1_555 1_555
C15_2 C16_2 1_555 1_555
C16_2 C14_2 1_555 1_555
H9_2 C16_2 1_555 1_555
C17_2 C13_2 1_555 1_555
H10_2 C17_2 1_555 1_555
C18_2 C15_2 1_555 1_555
Zn5 O5_2 1_555 1_555
O6_2 Zn5 1_555 1_555
C14_2 C17_2 1_555 1_555
O3 C12 1_555 1_555
N1 N2 1_555 1_555
N4 N5_2 1_555 1_555
N5_2 N1 1_555 1_555
C2 C6 1_555 1_555
C5 C7 1_555 1_555
C6 H4 1_555 1_555
C7 C2 1_555 1_555
H5 C7 1_555 1_555
C12 O4 1_555 1_555
C24 C6 1_555 1_555
H14 C24 1_555 1_555
Zn3 N4 1_555 1_555
C5 C12 1_555 1_555
Zn3 O1_2 1_555 1_555
O1_2 C11_2 1_555 1_555
O2_2 Zn3 1_555 1_555
C1_2 C4_2 1_555 1_555
C3_2 C4_2 1_555 1_555
C4_2 H3_2 1_555 1_555
C10_2 C1_2 1_555 1_555
H7_2 C10_2 1_555 1_555
C11_2 O2_2 1_555 1_555
C19_2 C10_2 1_555 1_555
H11_2 C19_2 1_555 1_555
C3_2 C11_2 1_555 1_555
N6_2 N7_2 1_555 1_555
H6_2 C9_2 1_555 1_555
O7_2 C25_2 1_555 1_555
O9 C25_2 1_555 1_555
C21_2 C23_2 1_555 1_555
C22_2 C9_2 1_555 1_555
H12_2 C22_2 1_555 1_555
C23_2 C20_2 1_555 1_555
H13_2 C23_2 1_555 1_555
C25_2 C21_2 1_555 1_555
C20_2 C22_2 1_555 1_555
H16_2 N8_2 1_555 1_555
N8_2 C26_2 1_555 1_555
H2_2 N3_2 1_555 1_555
N3_2 C8_2 1_555 1_555
O3_2 C12_2 1_555 1_555
N1_2 N2_2 1_555 1_555
C2_2 C6_2 1_555 1_555
C5_2 C7_2 1_555 1_555
C6_2 H4_2 1_555 1_555
C7_2 C2_2 1_555 1_555
H5_2 C7_2 1_555 1_555
C12_2 O4_2 1_555 1_555
C24_2 C6_2 1_555 1_555
H14_2 C24_2 1_555 1_555
C5_2 C12_2 1_555 1_555
N13 H17 1_555 1_555
H18 N13 1_555 1_555
C27 N13 1_555 1_555
H19 C27 1_555 1_555
H20 C27 1_555 1_555
H21 C27 1_555 1_555
H22 C28 1_555 1_555
H23 C28 1_555 1_555
H24 C28 1_555 1_555
H22_2 C28_2 1_555 1_555
H23_2 C28_2 1_555 1_555
H24_2 C28_2 1_555 1_555
N13_2 H17_2 1_555 1_555
H18_2 N13_2 1_555 1_555
C27_2 N13_2 1_555 1_555
H19_2 C27_2 1_555 1_555
H20_2 C27_2 1_555 1_555
H21_2 C27_2 1_555 1_555
H22_3 C28_3 1_555 1_555
H23_3 C28_3 1_555 1_555
H24_3 C28_3 1_555 1_555
N13_3 H17_3 1_555 1_555
H18_3 N13_3 1_555 1_555
C27_3 N13_3 1_555 1_555
H19_3 C27_3 1_555 1_555
H20_3 C27_3 1_555 1_555
H21_3 C27_3 1_555 1_555
N13_4 H17_4 1_555 1_555
H18_4 N13_4 1_555 1_555
C27_4 N13_4 1_555 1_555
H19_4 C27_4 1_555 1_555
H20_4 C27_4 1_555 1_555
H21_4 C27_4 1_555 1_555
H22_4 C28_4 1_555 1_555
H23_4 C28_4 1_555 1_555
H24_4 C28_4 1_555 1_555

#END
