
###############################################################################
#
# This file contains modified crystal structure data generated from the
# MOF subset of the Cambridge Structural Database (CSD) v543 
# hosted by the Cambridge Crystallographic Data Centre (CCDC).
#
# This work is licensed under the Creative Commons
# Attribution-NonCommercial-ShareAlike 4.0 International License.
# To view a copy of this license, visit
# http://creativecommons.org/licenses/by-nc-sa/4.0/
# or send a letter to
# Creative Commons, PO Box 1866, Mountain View, CA 94042, USA.
#
# CIF created using the CSD Python API on 29 September 2022
# The structure has been converted into the P1 space group
# The structure has a 3D framework
# The original CSD entry GAWBUF is in the rhombohedral crystal system
# The framework has been calculated to contain at least 10.0% void space
# The void calculation uses a probe of radius 1.32A, grid spacing 0.4
#
###############################################################################

data_GAWBUF
_chemical_formula_moiety         '(C90 H108 Ce6 Fe15 N18 Na6 O123 P18)n'
_symmetry_cell_setting           triclinic
_symmetry_space_group_name_H-M   'P 1'
_symmetry_Int_Tables_number      1
_space_group_name_Hall           'P 1'
loop_
_symmetry_equiv_pos_site_id
_symmetry_equiv_pos_as_xyz
1 x,y,z
_cell_length_a                   15.4193(11)
_cell_length_b                   15.4193(11)
_cell_length_c                   22.922(2)
_cell_angle_alpha                90
_cell_angle_beta                 90
_cell_angle_gamma                120
_cell_volume                     4719.68
loop_
_atom_site_label
_atom_site_type_symbol
_atom_site_fract_x
_atom_site_fract_y
_atom_site_fract_z
Ce1 Ce 0.000000 -0.000000 0.500000
Fe1 Fe 0.76812(8) 0.55733(8) 0.57688(5)
P1 P 0.21416(14) 0.12435(14) 0.61041(9)
Na1 Na 0.000000 -0.000000 0.6944(3)
O1 O 0.2950(4) 0.0962(4) 0.5968(2)
O2 O 0.1675(4) 0.0877(4) 0.6702(2)
O3 O 0.6167(4) 0.5183(4) 0.5728(3)
O4 O 0.5631(4) 0.3569(4) 0.5604(3)
O5 O 0.4087(4) 0.2046(4) 0.4824(2)
O6 O 0.1378(4) 0.0907(4) 0.5619(3)
O7 O 0.3251(5) 0.2349(5) 0.4161(3)
N1 N 0.3662(4) 0.3033(5) 0.5708(3)
C1 C 0.5500(6) 0.4291(6) 0.5709(4)
C2 C 0.2830(5) 0.2606(6) 0.6136(3)
H1 H 0.237774 0.285700 0.605616
H2 H 0.309839 0.281882 0.652601
C3 C 0.3581(6) 0.2411(6) 0.4689(4)
C4 C 0.3278(6) 0.2969(6) 0.5111(3)
H3 H 0.352030 0.364195 0.496487
H4 H 0.255240 0.263631 0.512566
C5 C 0.4432(6) 0.4063(6) 0.5864(4)
H5 H 0.439675 0.416065 0.627946
H6 H 0.429374 0.453232 0.566038
Na2 Na 0.000000 -0.000000 0.3056(3)
H25 H 0.285700 0.047926 0.394384
H27 H 0.364195 0.012165 0.503513
H28 H 0.263631 0.008391 0.487434
H30 H 0.453232 0.023858 0.433962
Fe8 Fe 0.44267(8) 0.21079(11) 0.57688(5)
Fe16 Fe 0.22400(8) 0.12254(11) 0.75645(5)
Na8 Na 0.666667 0.333333 0.6389(3)
O45 O 0.8012(6) 0.7050(4) 0.5968(2)
O51 O 0.0798(6) 0.1675(4) 0.3298(2)
O54 O 0.7465(6) 0.5008(4) 0.6631(2)
O57 O 0.7938(6) 0.4369(4) 0.5604(3)
O60 O 0.1271(6) 0.1036(4) 0.2271(3)
O64 O 0.0236(4) 0.1271(6) 0.7729(3)
O68 O 0.7959(6) 0.5913(4) 0.4824(2)
O71 O 0.0471(6) 0.1378(4) 0.4381(3)
N9 N 0.9371(6) 0.6338(4) 0.5708(3)
Ce1_2 Ce 0.000000 1.000000 0.500000
Na1_2 Na 0.000000 1.000000 0.6944(3)
H13 H 0.047926 0.762226 0.605616
H15 H 0.012165 0.647970 0.496487
H16 H 0.008391 0.744760 0.512566
H18 H 0.023858 0.570626 0.566038
Na2_2 Na 0.000000 1.000000 0.3056(3)
Fe5 Fe 0.55733(8) 0.78921(11) 0.42312(5)
P5 P 0.12435(14) 0.91019(20) 0.38959(9)
O29 O 0.0962(4) 0.8012(6) 0.4032(2)
O30 O 0.0877(4) 0.9202(6) 0.3298(2)
O31 O 0.5183(4) 0.9016(6) 0.4272(3)
O32 O 0.3569(4) 0.7938(6) 0.4396(3)
O33 O 0.2046(4) 0.7959(6) 0.5176(2)
O34 O 0.0907(4) 0.9529(6) 0.4381(3)
O35 O 0.2349(5) 0.9098(7) 0.5839(3)
N5 N 0.3033(5) 0.9371(6) 0.4292(3)
C21 C 0.4291(6) 0.8791(8) 0.4291(4)
C22 C 0.2606(6) 0.9776(8) 0.3864(3)
H26 H 0.281882 0.972043 0.347399
C23 C 0.2411(6) 0.8830(8) 0.5311(4)
C24 C 0.2969(6) 0.9691(8) 0.4889(3)
C25 C 0.4063(6) 0.9631(8) 0.4136(4)
H29 H 0.416065 0.976390 0.372054
Fe6 Fe 0.21079(11) 0.76812(8) 0.42312(5)
P6 P 0.08981(20) 0.21416(14) 0.38959(9)
O36 O 0.1988(6) 0.2950(4) 0.4032(2)
O38 O 0.0984(6) 0.6167(4) 0.4272(3)
O39 O 0.2062(6) 0.5631(4) 0.4396(3)
O40 O 0.2041(6) 0.4087(4) 0.5176(2)
O42 O 0.0902(7) 0.3251(5) 0.5839(3)
N6 N 0.0629(6) 0.3662(4) 0.4292(3)
C26 C 0.1209(8) 0.5500(6) 0.4291(4)
C27 C 0.0224(8) 0.2830(5) 0.3864(3)
H32 H 0.027957 0.309839 0.347399
C28 C 0.1170(8) 0.3581(6) 0.5311(4)
C29 C 0.0309(8) 0.3278(6) 0.4889(3)
C30 C 0.0369(8) 0.4432(6) 0.4136(4)
H35 H 0.023610 0.439675 0.372054
Fe10 Fe 0.10145(8) 0.22400(8) 0.24355(5)
Fe12 Fe 0.12254(11) 0.89855(8) 0.24355(5)
Fe13 Fe 0.23188(8) 0.44267(8) 0.42312(5)
Na4 Na 0.333333 0.666667 0.3611(3)
O46 O 0.7050(4) 0.9038(4) 0.4032(2)
O48 O 0.5008(4) 0.7544(4) 0.3369(2)
O49 O 0.2456(4) 0.7465(6) 0.3369(2)
O61 O 0.4369(4) 0.6431(4) 0.4396(3)
O63 O 0.1036(4) 0.9764(4) 0.7729(3)
O69 O 0.5913(4) 0.7954(4) 0.5176(2)
N10 N 0.6338(4) 0.6967(5) 0.4292(3)
Ce1_3 Ce 1.000000 -0.000000 0.500000
Na1_3 Na 1.000000 -0.000000 0.6944(3)
P2 P 0.87565(14) 0.08981(20) 0.61041(9)
O8 O 0.9038(4) 0.1988(6) 0.5968(2)
O9 O 0.9123(4) 0.0798(6) 0.6702(2)
O10 O 0.4817(4) 0.0984(6) 0.5728(3)
O11 O 0.6431(4) 0.2062(6) 0.5604(3)
O12 O 0.7954(4) 0.2041(6) 0.4824(2)
O13 O 0.9093(4) 0.0471(6) 0.5619(3)
O14 O 0.7651(5) 0.0902(7) 0.4161(3)
N2 N 0.6967(5) 0.0629(6) 0.5708(3)
C6 C 0.5709(6) 0.1209(8) 0.5709(4)
C7 C 0.7394(6) 0.0224(8) 0.6136(3)
H8 H 0.718118 0.027957 0.652601
C8 C 0.7589(6) 0.1170(8) 0.4689(4)
C9 C 0.7031(6) 0.0309(8) 0.5111(3)
C10 C 0.5937(6) 0.0369(8) 0.5864(4)
H11 H 0.583935 0.023610 0.627946
Na2_3 Na 1.000000 -0.000000 0.3056(3)
Fe9 Fe 0.78921(11) 0.23188(8) 0.57688(5)
Fe17 Fe 0.87746(11) 0.10145(8) 0.75645(5)
O52 O 0.4992(4) 0.2456(4) 0.6631(2)
O58 O 0.8964(4) 0.0236(4) 0.2271(3)
Ce1_4 Ce 1.000000 1.000000 0.500000
Na1_4 Na 1.000000 1.000000 0.6944(3)
H7 H 0.714300 0.952074 0.605616
H9 H 0.635805 0.987835 0.496487
H10 H 0.736369 0.991609 0.512566
H12 H 0.546768 0.976142 0.566038
P3 P 0.91019(20) 0.78584(14) 0.61041(9)
O16 O 0.9202(6) 0.8325(4) 0.6702(2)
O17 O 0.9016(6) 0.3833(4) 0.5728(3)
O20 O 0.9529(6) 0.8622(4) 0.5619(3)
O21 O 0.9098(7) 0.6749(5) 0.4161(3)
C11 C 0.8791(8) 0.4500(6) 0.5709(4)
C12 C 0.9776(8) 0.7170(5) 0.6136(3)
H14 H 0.972043 0.690161 0.652601
C13 C 0.8830(8) 0.6419(6) 0.4689(4)
C14 C 0.9691(8) 0.6722(6) 0.5111(3)
C15 C 0.9631(8) 0.5568(6) 0.5864(4)
H17 H 0.976390 0.560325 0.627946
P4 P 0.78584(14) 0.87565(14) 0.38959(9)
Na2_4 Na 1.000000 1.000000 0.3056(3)
O23 O 0.8325(4) 0.9123(4) 0.3298(2)
O24 O 0.3833(4) 0.4817(4) 0.4272(3)
O27 O 0.8622(4) 0.9093(4) 0.4381(3)
O28 O 0.6749(5) 0.7651(5) 0.5839(3)
C16 C 0.4500(6) 0.5709(6) 0.4291(4)
C17 C 0.7170(5) 0.7394(6) 0.3864(3)
H19 H 0.762226 0.714300 0.394384
H20 H 0.690161 0.718118 0.347399
C18 C 0.6419(6) 0.7589(6) 0.5311(4)
C19 C 0.6722(6) 0.7031(6) 0.4889(3)
H21 H 0.647970 0.635805 0.503513
H22 H 0.744760 0.736369 0.487434
C20 C 0.5568(6) 0.5937(6) 0.4136(4)
H23 H 0.560325 0.583935 0.372054
H24 H 0.570626 0.546768 0.433962
H31 H 0.952074 0.237774 0.394384
H33 H 0.987835 0.352030 0.503513
H34 H 0.991609 0.255240 0.487434
H36 H 0.976142 0.429374 0.433962
Fe11 Fe 0.77600(8) 0.87746(11) 0.24355(5)
Fe15 Fe 0.89855(8) 0.77600(8) 0.75645(5)
O50 O 0.2535(6) 0.4992(4) 0.3369(2)
O53 O 0.7544(4) 0.2535(6) 0.6631(2)
O59 O 0.9764(4) 0.8729(6) 0.2271(3)
O65 O 0.8729(6) 0.8964(4) 0.7729(3)
O45_2 O 0.4679(6) 0.0383(4) 0.9301(2)
Fe1_2 Fe 0.43479(8) 0.89066(8) 0.91021(5)
O3_2 O 0.2834(4) 0.8516(4) 0.9061(3)
O4_2 O 0.2298(4) 0.6902(4) 0.8937(3)
O5_2 O 0.0754(4) 0.5379(4) 0.8157(2)
N1_2 N 0.0329(4) 0.6366(5) 0.9041(3)
C1_2 C 0.2167(6) 0.7624(6) 0.9042(4)
C3_2 C 0.0248(6) 0.5744(6) 0.8022(4)
H3_2 H 0.018697 0.697528 0.829820
C5_2 C 0.1099(6) 0.7396(6) 0.9197(4)
H5_2 H 0.106342 0.749398 0.961279
H6_2 H 0.096041 0.786565 0.899371
O31_2 O 0.1850(4) 0.2349(6) 0.7605(3)
C21_2 C 0.0958(6) 0.2124(8) 0.7624(4)
H27_2 H 0.030862 0.345498 0.836846
C25_2 C 0.0730(6) 0.2964(8) 0.7469(4)
H29_2 H 0.082732 0.309723 0.705387
H30_2 H 0.119899 0.357191 0.767295
Fe8_2 Fe 0.10934(8) 0.54412(11) 0.91021(5)
Na8_2 Na 0.333333 0.666667 0.9723(3)
O46_2 O 0.3717(4) 0.2371(4) 0.7365(2)
O54_2 O 0.4131(6) 0.8342(4) 0.9965(2)
O57_2 O 0.4605(6) 0.7702(4) 0.8937(3)
O68_2 O 0.4626(6) 0.9246(4) 0.8157(2)
O69_2 O 0.2580(4) 0.1287(4) 0.8509(2)
N9_2 N 0.6038(6) 0.9671(4) 0.9041(3)
N10_2 N 0.3005(4) 0.0300(5) 0.7625(3)
Na1_5 Na 0.666667 0.333333 0.0277(3)
O2_2 O 0.8342(4) 0.4210(4) 0.0035(2)
O9_2 O 0.5790(4) 0.4131(6) 0.0035(2)
O16_2 O 0.5869(6) 0.1658(4) 0.0035(2)
Fe15_2 Fe 0.56521(8) 0.10934(8) 0.08979(5)
Fe16_2 Fe 0.89066(8) 0.45588(11) 0.08979(5)
Fe17_2 Fe 0.54412(11) 0.43479(8) 0.08979(5)
O63_2 O 0.7702(4) 0.3098(4) 0.1063(3)
O64_2 O 0.6902(4) 0.4605(6) 0.1063(3)
O65_2 O 0.5395(6) 0.2298(4) 0.1063(3)
Ce1_5 Ce 0.666667 0.333333 0.833333
P1_2 P 0.88083(14) 0.45768(14) 0.94374(9)
O1_2 O 0.9617(4) 0.4295(4) 0.9301(2)
O6_2 O 0.8045(4) 0.4240(4) 0.8952(3)
O7_2 O 0.9918(5) 0.5682(5) 0.7494(3)
C2_2 C 0.9497(5) 0.5939(6) 0.9469(3)
H1_2 H 0.904441 0.619033 0.938949
H2_2 H 0.976506 0.615215 0.985934
C4_2 C 0.9945(6) 0.6302(6) 0.8444(3)
H4_2 H 0.921907 0.596964 0.845899
P2_2 P 0.54232(14) 0.42314(20) 0.94374(9)
O8_2 O 0.5705(4) 0.5321(6) 0.9301(2)
O10_2 O 0.1484(4) 0.4317(6) 0.9061(3)
O11_2 O 0.3098(4) 0.5395(6) 0.8937(3)
O12_2 O 0.4621(4) 0.5374(6) 0.8157(2)
O13_2 O 0.5760(4) 0.3804(6) 0.8952(3)
O14_2 O 0.4318(5) 0.4235(7) 0.7494(3)
N2_2 N 0.3634(5) 0.3962(6) 0.9041(3)
C6_2 C 0.2376(6) 0.4542(8) 0.9042(4)
C7_2 C 0.4061(6) 0.3557(8) 0.9469(3)
H7_2 H 0.380967 0.285407 0.938949
H8_2 H 0.384785 0.361290 0.985934
C8_2 C 0.4256(6) 0.4503(8) 0.8022(4)
C9_2 C 0.3698(6) 0.3642(8) 0.8444(3)
H9_2 H 0.302472 0.321168 0.829820
H10_2 H 0.403036 0.324942 0.845899
C10_2 C 0.2604(6) 0.3702(8) 0.9197(4)
H11_2 H 0.250602 0.356943 0.961279
H12_2 H 0.213435 0.309475 0.899371
P3_2 P 0.57686(20) 0.11917(14) 0.94374(9)
O20_2 O 0.6196(6) 0.1955(4) 0.8952(3)
O21_2 O 0.5765(7) 0.0082(5) 0.7494(3)
C12_2 C 0.6443(8) 0.0503(5) 0.9469(3)
H13_2 H 0.714593 0.095559 0.938949
H14_2 H 0.638710 0.023494 0.985934
C14_2 C 0.6358(8) 0.0055(6) 0.8444(3)
H16_2 H 0.675058 0.078093 0.845899
P4_2 P 0.45251(14) 0.20898(14) 0.72292(9)
O27_2 O 0.5289(4) 0.2426(4) 0.7714(3)
O28_2 O 0.3416(5) 0.0984(5) 0.9172(3)
C17_2 C 0.3837(5) 0.0727(6) 0.7197(3)
H19_2 H 0.428893 0.047633 0.727717
H20_2 H 0.356828 0.051451 0.680732
C18_2 C 0.3086(6) 0.0922(6) 0.8644(4)
C19_2 C 0.3389(6) 0.0364(6) 0.8222(3)
H22_2 H 0.411427 0.069702 0.820767
P5_2 P 0.79102(14) 0.24352(20) 0.72292(9)
O29_2 O 0.7629(4) 0.1345(6) 0.7365(2)
O33_2 O 0.8713(4) 0.1292(6) 0.8509(2)
O34_2 O 0.7574(4) 0.2862(6) 0.7714(3)
O35_2 O 0.9016(5) 0.2431(7) 0.9172(3)
N5_2 N 0.9700(5) 0.2704(6) 0.7625(3)
C22_2 C 0.9273(6) 0.3109(8) 0.7197(3)
H25_2 H 0.952367 0.381259 0.727717
H26_2 H 0.948549 0.305376 0.680732
C23_2 C 0.9078(6) 0.2163(8) 0.8644(4)
C24_2 C 0.9636(6) 0.3024(8) 0.8222(3)
H28_2 H 0.930298 0.341724 0.820767
Fe9_2 Fe 0.45588(11) 0.56521(8) 0.91021(5)
O52_2 O 0.1658(4) 0.5790(4) 0.9965(2)
O71_2 O 0.7138(6) 0.4711(4) 0.7714(3)
O17_2 O 0.5683(6) 0.7166(4) 0.9061(3)
C11_2 C 0.5458(8) 0.7833(6) 0.9042(4)
C13_2 C 0.5497(8) 0.9752(6) 0.8022(4)
H15_2 H 0.678832 0.981303 0.829820
C15_2 C 0.6298(8) 0.8901(6) 0.9197(4)
H17_2 H 0.643057 0.893658 0.961279
H18_2 H 0.690525 0.903959 0.899371
O24_2 O 0.0500(4) 0.8150(4) 0.7605(3)
C16_2 C 0.1167(6) 0.9042(6) 0.7624(4)
H21_2 H 0.314637 0.969138 0.836846
C20_2 C 0.2235(6) 0.9270(6) 0.7469(4)
H23_2 H 0.226992 0.917268 0.705387
H24_2 H 0.237293 0.880101 0.767295
P6_2 P 0.75648(20) 0.54749(14) 0.72292(9)
O36_2 O 0.8655(6) 0.6283(4) 0.7365(2)
O38_2 O 0.7651(6) 0.9500(4) 0.7605(3)
O40_2 O 0.8708(6) 0.7420(4) 0.8509(2)
O42_2 O 0.7569(7) 0.6584(5) 0.9172(3)
N6_2 N 0.7296(6) 0.6995(4) 0.7625(3)
C26_2 C 0.7876(8) 0.8833(6) 0.7624(4)
C27_2 C 0.6891(8) 0.6163(5) 0.7197(3)
H31_2 H 0.618741 0.571107 0.727717
H32_2 H 0.694624 0.643172 0.680732
C28_2 C 0.7837(8) 0.6914(6) 0.8644(4)
C29_2 C 0.6976(8) 0.6611(6) 0.8222(3)
H33_2 H 0.654502 0.685363 0.836846
H34_2 H 0.658276 0.588573 0.820767
C30_2 C 0.7036(8) 0.7765(6) 0.7469(4)
H35_2 H 0.690277 0.773008 0.705387
H36_2 H 0.642809 0.762707 0.767295
O53_2 O 0.4210(4) 0.5869(6) 0.9965(2)
O45_3 O 0.1345(6) 0.3717(4) 0.2635(2)
O68_3 O 0.1292(6) 0.2580(4) 0.1491(2)
N9_3 N 0.2704(6) 0.3005(4) 0.2375(3)
O46_3 O 0.0383(4) 0.5705(4) 0.0699(2)
O3_3 O 0.9500(4) 0.1850(4) 0.2395(3)
C1_3 C 0.8833(6) 0.0958(6) 0.2376(4)
H3_3 H 0.685363 0.030862 0.163154
C5_3 C 0.7765(6) 0.0730(6) 0.2531(4)
H5_3 H 0.773008 0.082732 0.294613
H6_3 H 0.762707 0.119899 0.232705
Ce1_6 Ce 0.333333 0.666667 0.166667
P1_3 P 0.54749(14) 0.79102(14) 0.27708(9)
O1_3 O 0.6283(4) 0.7629(4) 0.2635(2)
O5_3 O 0.7420(4) 0.8713(4) 0.1491(2)
O6_3 O 0.4711(4) 0.7574(4) 0.2286(3)
O7_3 O 0.6584(5) 0.9016(5) 0.0828(3)
N1_3 N 0.6995(4) 0.9700(5) 0.2375(3)
C2_3 C 0.6163(5) 0.9273(6) 0.2803(3)
H1_3 H 0.571107 0.952367 0.272283
H2_3 H 0.643172 0.948549 0.319268
C3_3 C 0.6914(6) 0.9078(6) 0.1356(4)
C4_3 C 0.6611(6) 0.9636(6) 0.1778(3)
H4_3 H 0.588573 0.930298 0.179233
P2_3 P 0.20898(14) 0.75648(20) 0.27708(9)
O8_3 O 0.2371(4) 0.8655(6) 0.2635(2)
O12_3 O 0.1287(4) 0.8708(6) 0.1491(2)
O13_3 O 0.2426(4) 0.7138(6) 0.2286(3)
O14_3 O 0.0984(5) 0.7569(7) 0.0828(3)
N2_3 N 0.0300(5) 0.7296(6) 0.2375(3)
C7_3 C 0.0727(6) 0.6891(8) 0.2803(3)
H7_3 H 0.047633 0.618741 0.272283
H8_3 H 0.051451 0.694624 0.319268
C8_3 C 0.0922(6) 0.7837(8) 0.1356(4)
C9_3 C 0.0364(6) 0.6976(8) 0.1778(3)
H10_3 H 0.069702 0.658276 0.179233
P3_3 P 0.24352(20) 0.45251(14) 0.27708(9)
O17_3 O 0.2349(6) 0.0500(4) 0.2395(3)
O20_3 O 0.2862(6) 0.5289(4) 0.2286(3)
O21_3 O 0.2431(7) 0.3416(5) 0.0828(3)
C11_3 C 0.2124(8) 0.1167(6) 0.2376(4)
C12_3 C 0.3109(8) 0.3837(5) 0.2803(3)
H13_3 H 0.381259 0.428893 0.272283
H14_3 H 0.305376 0.356828 0.319268
C13_3 C 0.2163(8) 0.3086(6) 0.1356(4)
C14_3 C 0.3024(8) 0.3389(6) 0.1778(3)
H15_3 H 0.345498 0.314637 0.163154
H16_3 H 0.341724 0.411427 0.179233
C15_3 C 0.2964(8) 0.2235(6) 0.2531(4)
H17_3 H 0.309723 0.226992 0.294613
H18_3 H 0.357191 0.237293 0.232705
P4_3 P 0.11917(14) 0.54232(14) 0.05626(9)
O27_3 O 0.1955(4) 0.5760(4) 0.1048(3)
O28_3 O 0.0082(5) 0.4318(5) 0.2506(3)
C17_3 C 0.0503(5) 0.4061(6) 0.0531(3)
H19_3 H 0.095559 0.380967 0.061051
H20_3 H 0.023494 0.384785 0.014066
C19_3 C 0.0055(6) 0.3698(6) 0.1556(3)
H22_3 H 0.078093 0.403036 0.154101
P5_3 P 0.45768(14) 0.57686(20) 0.05626(9)
O29_3 O 0.4295(4) 0.4679(6) 0.0699(2)
O31_3 O 0.8516(4) 0.5683(6) 0.0939(3)
O33_3 O 0.5379(4) 0.4626(6) 0.1843(2)
O34_3 O 0.4240(4) 0.6196(6) 0.1048(3)
O35_3 O 0.5682(5) 0.5765(7) 0.2506(3)
N5_3 N 0.6366(5) 0.6038(6) 0.0959(3)
C21_3 C 0.7624(6) 0.5458(8) 0.0958(4)
C22_3 C 0.5939(6) 0.6443(8) 0.0531(3)
H25_3 H 0.619033 0.714593 0.061051
H26_3 H 0.615215 0.638710 0.014066
C23_3 C 0.5744(6) 0.5497(8) 0.1978(4)
C24_3 C 0.6302(6) 0.6358(8) 0.1556(3)
H27_3 H 0.697528 0.678832 0.170180
H28_3 H 0.596964 0.675058 0.154101
C25_3 C 0.7396(6) 0.6298(8) 0.0803(4)
H29_3 H 0.749398 0.643057 0.038721
H30_3 H 0.786565 0.690525 0.100629
O38_3 O 0.4317(6) 0.2834(4) 0.0939(3)
O40_3 O 0.5374(6) 0.0754(4) 0.1843(2)
N6_3 N 0.3962(6) 0.0329(4) 0.0959(3)
C26_3 C 0.4542(8) 0.2167(6) 0.0958(4)
C28_3 C 0.4503(8) 0.0248(6) 0.1978(4)
H33_3 H 0.321168 0.018697 0.170180
C30_3 C 0.3702(8) 0.1099(6) 0.0803(4)
H35_3 H 0.356943 0.106342 0.038721
H36_3 H 0.309475 0.096041 0.100629
O69_3 O 0.9246(4) 0.4621(4) 0.1843(2)
O71_3 O 0.3804(6) 0.8045(4) 0.1048(3)
N10_3 N 0.9671(4) 0.3634(5) 0.0959(3)
P6_3 P 0.42314(20) 0.88083(14) 0.05626(9)
O36_3 O 0.5321(6) 0.9617(4) 0.0699(2)
O42_3 O 0.4235(7) 0.9918(5) 0.2506(3)
C27_3 C 0.3557(8) 0.9497(5) 0.0531(3)
H31_3 H 0.285407 0.904441 0.061051
H32_3 H 0.361290 0.976506 0.014066
C29_3 C 0.3642(8) 0.9945(6) 0.1556(3)
H34_3 H 0.324942 0.921907 0.154101
O10_3 O 0.8150(4) 0.7651(6) 0.2395(3)
C6_3 C 0.9042(6) 0.7876(8) 0.2376(4)
H9_3 H 0.969138 0.654502 0.163154
C10_3 C 0.9270(6) 0.7036(8) 0.2531(4)
H11_3 H 0.917268 0.690277 0.294613
H12_3 H 0.880101 0.642809 0.232705
O24_3 O 0.7166(4) 0.1484(4) 0.0939(3)
C16_3 C 0.7833(6) 0.2376(6) 0.0958(4)
C18_3 C 0.9752(6) 0.4256(6) 0.1978(4)
H21_3 H 0.981303 0.302472 0.170180
C20_3 C 0.8901(6) 0.2604(6) 0.0803(4)
H23_3 H 0.893658 0.250602 0.038721
H24_3 H 0.903959 0.213435 0.100629
loop_
_geom_bond_atom_site_label_1
_geom_bond_atom_site_label_2
_geom_bond_site_symmetry_1
_geom_bond_site_symmetry_2
Ce1 O6 1_555 1_555
Fe1 O3 1_555 1_555
P1 O1 1_555 1_555
Na1 O2 1_555 1_555
O1 Fe8 1_555 1_555
O2 P1 1_555 1_555
O3 C1 1_555 1_555
O4 C1 1_555 1_555
O5 C3 1_555 1_555
O6 P1 1_555 1_555
O7 C3 1_555 1_555
N1 C2 1_555 1_555
C1 C5 1_555 1_555
C2 P1 1_555 1_555
H1 C2 1_555 1_555
H2 C2 1_555 1_555
C3 C4 1_555 1_555
C4 N1 1_555 1_555
H3 C4 1_555 1_555
H4 C4 1_555 1_555
C5 N1 1_555 1_555
H5 C5 1_555 1_555
H6 C5 1_555 1_555
Fe8 O4 1_555 1_555
Fe16 O2 1_555 1_555
Na8 O4 1_555 1_555
O45 Fe1 1_555 1_555
O51 Na2 1_555 1_555
O54 Fe1 1_555 1_555
O57 Fe1 1_555 1_555
O60 Na2 1_555 1_555
O64 Na1 1_555 1_555
O68 Fe1 1_555 1_555
O71 Ce1 1_555 1_555
N9 Fe1 1_555 1_555
O5 Fe8 1_555 1_555
N1 Fe8 1_555 1_555
Na8 O54 1_555 1_555
Na8 O57 1_555 1_555
Fe5 O31 1_555 1_555
P5 O29 1_555 1_555
O29 Fe6 1_555 1_555
O30 Na2_2 1_555 1_555
O31 C21 1_555 1_555
O32 C21 1_555 1_555
O33 C23 1_555 1_555
O34 Ce1_2 1_555 1_555
O35 C23 1_555 1_555
N5 C22 1_555 1_555
C21 C25 1_555 1_555
C22 P5 1_555 1_555
H26 C22 1_555 1_555
C23 C24 1_555 1_555
C24 N5 1_555 1_555
C25 N5 1_555 1_555
H29 C25 1_555 1_555
Fe6 O32 1_555 1_555
P6 O36 1_555 1_555
O36 Fe13 1_555 1_555
O51 P6 1_555 1_555
O38 Fe6 1_555 1_555
O39 C26 1_555 1_555
O40 C28 1_555 1_555
O71 P6 1_555 1_555
O42 C28 1_555 1_555
N6 C27 1_555 1_555
C26 O38 1_555 1_555
C27 P6 1_555 1_555
H32 C27 1_555 1_555
C28 C29 1_555 1_555
C29 N6 1_555 1_555
C30 N6 1_555 1_555
H35 C30 1_555 1_555
Fe10 O51 1_555 1_555
Fe12 O30 1_555 1_555
Fe13 O39 1_555 1_555
Na4 O32 1_555 1_555
O46 Fe5 1_555 1_555
O48 Fe5 1_555 1_555
O49 Fe6 1_555 1_555
O61 Fe5 1_555 1_555
O63 Na1_2 1_555 1_555
O69 Fe5 1_555 1_555
N10 Fe5 1_555 1_555
P5 O30 1_555 1_555
P5 O34 1_555 1_555
O33 Fe6 1_555 1_555
N5 Fe6 1_555 1_555
O39 Na4 1_555 1_555
O40 Fe13 1_555 1_555
N6 Fe13 1_555 1_555
C26 C30 1_555 1_555
Na4 O48 1_555 1_555
Na4 O49 1_555 1_555
Na4 O61 1_555 1_555
Fe8 O10 1_555 1_555
P2 O8 1_555 1_555
O8 Fe9 1_555 1_555
O9 Na1_3 1_555 1_555
O10 C6 1_555 1_555
O11 C6 1_555 1_555
O12 C8 1_555 1_555
O13 Ce1_3 1_555 1_555
O14 C8 1_555 1_555
N2 C7 1_555 1_555
C6 C10 1_555 1_555
C7 P2 1_555 1_555
H8 C7 1_555 1_555
C8 C9 1_555 1_555
C9 N2 1_555 1_555
C10 N2 1_555 1_555
H11 C10 1_555 1_555
Fe9 O11 1_555 1_555
Fe17 O9 1_555 1_555
Na8 O11 1_555 1_555
O52 Fe8 1_555 1_555
O58 Na2_3 1_555 1_555
P2 O9 1_555 1_555
P2 O13 1_555 1_555
O12 Fe9 1_555 1_555
N2 Fe9 1_555 1_555
Na8 O52 1_555 1_555
Fe9 O17 1_555 1_555
P3 O45 1_555 1_555
O16 Na1_4 1_555 1_555
O17 C11 1_555 1_555
O57 C11 1_555 1_555
O68 C13 1_555 1_555
O20 Ce1_4 1_555 1_555
O21 C13 1_555 1_555
N9 C12 1_555 1_555
C11 C15 1_555 1_555
C12 P3 1_555 1_555
H14 C12 1_555 1_555
C13 C14 1_555 1_555
C14 N9 1_555 1_555
C15 N9 1_555 1_555
H17 C15 1_555 1_555
Fe13 O24 1_555 1_555
P4 O46 1_555 1_555
Na2_4 O23 1_555 1_555
O23 P4 1_555 1_555
O24 C16 1_555 1_555
O61 C16 1_555 1_555
O69 C18 1_555 1_555
O27 Ce1_4 1_555 1_555
O28 C18 1_555 1_555
N10 C17 1_555 1_555
C16 C20 1_555 1_555
C17 P4 1_555 1_555
H19 C17 1_555 1_555
H20 C17 1_555 1_555
C18 C19 1_555 1_555
C19 N10 1_555 1_555
H21 C19 1_555 1_555
H22 C19 1_555 1_555
C20 N10 1_555 1_555
H23 C20 1_555 1_555
H24 C20 1_555 1_555
Fe11 O23 1_555 1_555
Fe15 O16 1_555 1_555
O50 Fe13 1_555 1_555
O53 Fe9 1_555 1_555
O59 Na2_4 1_555 1_555
O65 Na1_4 1_555 1_555
P3 O16 1_555 1_555
P3 O20 1_555 1_555
P4 O27 1_555 1_555
Fe15 O65 1_555 1_555
Na4 O50 1_555 1_555
Na8 O53 1_555 1_555
Fe10 O60 1_555 1_555
Fe1_2 O3_2 1_555 1_555
O3_2 C1_2 1_555 1_555
O4_2 C1_2 1_555 1_555
O5_2 C3_2 1_555 1_555
C1_2 C5_2 1_555 1_555
C5_2 N1_2 1_555 1_555
H5_2 C5_2 1_555 1_555
H6_2 C5_2 1_555 1_555
Fe16 O31_2 1_555 1_555
O31_2 C21_2 1_555 1_555
O64 C21_2 1_555 1_555
C21_2 C25_2 1_555 1_555
H29_2 C25_2 1_555 1_555
H30_2 C25_2 1_555 1_555
Fe8_2 O4_2 1_555 1_555
Na8_2 O4_2 1_555 1_555
O46_2 Fe16 1_555 1_555
O54_2 Fe1_2 1_555 1_555
O57_2 Fe1_2 1_555 1_555
O68_2 Fe1_2 1_555 1_555
O69_2 Fe16 1_555 1_555
N9_2 Fe1_2 1_555 1_555
N10_2 Fe16 1_555 1_555
O5_2 Fe8_2 1_555 1_555
N1_2 Fe8_2 1_555 1_555
Na8_2 O54_2 1_555 1_555
Na8_2 O57_2 1_555 1_555
Na1_5 O2_2 1_555 1_555
O9_2 Na1_5 1_555 1_555
O16_2 Na1_5 1_555 1_555
Fe15_2 O16_2 1_555 1_555
Fe16_2 O2_2 1_555 1_555
Fe17_2 O9_2 1_555 1_555
O63_2 Na1_5 1_555 1_555
O64_2 Na1_5 1_555 1_555
O65_2 Na1_5 1_555 1_555
Fe15_2 O65_2 1_555 1_555
Fe16_2 O63_2 1_555 1_555
Fe17_2 O64_2 1_555 1_555
Ce1_5 O6_2 1_555 1_555
P1_2 O1_2 1_555 1_555
O6_2 P1_2 1_555 1_555
C2_2 P1_2 1_555 1_555
H1_2 C2_2 1_555 1_555
H2_2 C2_2 1_555 1_555
H4_2 C4_2 1_555 1_555
Fe8_2 O10_2 1_555 1_555
P2_2 O8_2 1_555 1_555
O8_2 Fe9_2 1_555 1_555
O10_2 C6_2 1_555 1_555
O11_2 C6_2 1_555 1_555
O12_2 C8_2 1_555 1_555
O13_2 Ce1_5 1_555 1_555
O14_2 C8_2 1_555 1_555
N2_2 C7_2 1_555 1_555
C6_2 C10_2 1_555 1_555
C7_2 P2_2 1_555 1_555
H7_2 C7_2 1_555 1_555
H8_2 C7_2 1_555 1_555
C8_2 C9_2 1_555 1_555
C9_2 N2_2 1_555 1_555
H9_2 C9_2 1_555 1_555
H10_2 C9_2 1_555 1_555
C10_2 N2_2 1_555 1_555
H11_2 C10_2 1_555 1_555
H12_2 C10_2 1_555 1_555
P3_2 O45_2 1_555 1_555
O20_2 Ce1_5 1_555 1_555
C12_2 P3_2 1_555 1_555
H13_2 C12_2 1_555 1_555
H14_2 C12_2 1_555 1_555
H16_2 C14_2 1_555 1_555
P4_2 O46_2 1_555 1_555
O52 P4_2 1_555 1_555
O69_2 C18_2 1_555 1_555
O27_2 Ce1_5 1_555 1_555
O28_2 C18_2 1_555 1_555
N10_2 C17_2 1_555 1_555
C17_2 P4_2 1_555 1_555
H19_2 C17_2 1_555 1_555
H20_2 C17_2 1_555 1_555
C18_2 C19_2 1_555 1_555
C19_2 N10_2 1_555 1_555
H22_2 C19_2 1_555 1_555
P5_2 O29_2 1_555 1_555
O29_2 Fe17 1_555 1_555
O33_2 C23_2 1_555 1_555
O34_2 Ce1_5 1_555 1_555
O35_2 C23_2 1_555 1_555
N5_2 C22_2 1_555 1_555
C22_2 P5_2 1_555 1_555
H25_2 C22_2 1_555 1_555
H26_2 C22_2 1_555 1_555
C23_2 C24_2 1_555 1_555
C24_2 N5_2 1_555 1_555
H28_2 C24_2 1_555 1_555
Fe9_2 O11_2 1_555 1_555
Na8_2 O11_2 1_555 1_555
O52_2 Fe8_2 1_555 1_555
O71_2 Ce1_5 1_555 1_555
P2_2 O13_2 1_555 1_555
O12_2 Fe9_2 1_555 1_555
N2_2 Fe9_2 1_555 1_555
P3_2 O20_2 1_555 1_555
P4_2 O27_2 1_555 1_555
P5_2 O53 1_555 1_555
P5_2 O34_2 1_555 1_555
O33_2 Fe17 1_555 1_555
N5_2 Fe17 1_555 1_555
Na8_2 O52_2 1_555 1_555
Fe9_2 O17_2 1_555 1_555
O17_2 C11_2 1_555 1_555
O57_2 C11_2 1_555 1_555
O68_2 C13_2 1_555 1_555
C11_2 C15_2 1_555 1_555
C15_2 N9_2 1_555 1_555
H17_2 C15_2 1_555 1_555
H18_2 C15_2 1_555 1_555
O24_2 C16_2 1_555 1_555
O63 C16_2 1_555 1_555
C16_2 C20_2 1_555 1_555
H23_2 C20_2 1_555 1_555
H24_2 C20_2 1_555 1_555
P6_2 O36_2 1_555 1_555
O36_2 Fe15 1_555 1_555
O54 P6_2 1_555 1_555
O65 C26_2 1_555 1_555
O40_2 C28_2 1_555 1_555
O71_2 P6_2 1_555 1_555
O42_2 C28_2 1_555 1_555
N6_2 C27_2 1_555 1_555
C26_2 O38_2 1_555 1_555
C27_2 P6_2 1_555 1_555
H31_2 C27_2 1_555 1_555
H32_2 C27_2 1_555 1_555
C28_2 C29_2 1_555 1_555
C29_2 N6_2 1_555 1_555
H33_2 C29_2 1_555 1_555
H34_2 C29_2 1_555 1_555
C30_2 N6_2 1_555 1_555
H35_2 C30_2 1_555 1_555
H36_2 C30_2 1_555 1_555
O53_2 Fe9_2 1_555 1_555
O40_2 Fe15 1_555 1_555
N6_2 Fe15 1_555 1_555
C26_2 C30_2 1_555 1_555
Na8_2 O53_2 1_555 1_555
O45_3 Fe10 1_555 1_555
O68_3 Fe10 1_555 1_555
N9_3 Fe10 1_555 1_555
O3_3 C1_3 1_555 1_555
O58 C1_3 1_555 1_555
C1_3 C5_3 1_555 1_555
H5_3 C5_3 1_555 1_555
H6_3 C5_3 1_555 1_555
Ce1_6 O6_3 1_555 1_555
P1_3 O1_3 1_555 1_555
O1_3 Fe11 1_555 1_555
O48 P1_3 1_555 1_555
O5_3 C3_3 1_555 1_555
O6_3 P1_3 1_555 1_555
O7_3 C3_3 1_555 1_555
N1_3 C2_3 1_555 1_555
C2_3 P1_3 1_555 1_555
H1_3 C2_3 1_555 1_555
H2_3 C2_3 1_555 1_555
C3_3 C4_3 1_555 1_555
C4_3 N1_3 1_555 1_555
H4_3 C4_3 1_555 1_555
P2_3 O8_3 1_555 1_555
O8_3 Fe12 1_555 1_555
O12_3 C8_3 1_555 1_555
O13_3 Ce1_6 1_555 1_555
O14_3 C8_3 1_555 1_555
N2_3 C7_3 1_555 1_555
C7_3 P2_3 1_555 1_555
H7_3 C7_3 1_555 1_555
H8_3 C7_3 1_555 1_555
C8_3 C9_3 1_555 1_555
C9_3 N2_3 1_555 1_555
H10_3 C9_3 1_555 1_555
P3_3 O45_3 1_555 1_555
O17_3 C11_3 1_555 1_555
O60 C11_3 1_555 1_555
O68_3 C13_3 1_555 1_555
O20_3 Ce1_6 1_555 1_555
O21_3 C13_3 1_555 1_555
N9_3 C12_3 1_555 1_555
C11_3 C15_3 1_555 1_555
C12_3 P3_3 1_555 1_555
H13_3 C12_3 1_555 1_555
H14_3 C12_3 1_555 1_555
C13_3 C14_3 1_555 1_555
C14_3 N9_3 1_555 1_555
H15_3 C14_3 1_555 1_555
H16_3 C14_3 1_555 1_555
C15_3 N9_3 1_555 1_555
H17_3 C15_3 1_555 1_555
H18_3 C15_3 1_555 1_555
P4_3 O46_3 1_555 1_555
O27_3 Ce1_6 1_555 1_555
C17_3 P4_3 1_555 1_555
H19_3 C17_3 1_555 1_555
H20_3 C17_3 1_555 1_555
H22_3 C19_3 1_555 1_555
Fe16_2 O31_3 1_555 1_555
P5_3 O29_3 1_555 1_555
O29_3 Fe17_2 1_555 1_555
O31_3 C21_3 1_555 1_555
O64_2 C21_3 1_555 1_555
O33_3 C23_3 1_555 1_555
O34_3 Ce1_6 1_555 1_555
O35_3 C23_3 1_555 1_555
N5_3 C22_3 1_555 1_555
C21_3 C25_3 1_555 1_555
C22_3 P5_3 1_555 1_555
H25_3 C22_3 1_555 1_555
H26_3 C22_3 1_555 1_555
C23_3 C24_3 1_555 1_555
C24_3 N5_3 1_555 1_555
H27_3 C24_3 1_555 1_555
H28_3 C24_3 1_555 1_555
C25_3 N5_3 1_555 1_555
H29_3 C25_3 1_555 1_555
H30_3 C25_3 1_555 1_555
O38_3 Fe17_2 1_555 1_555
O65_2 C26_3 1_555 1_555
O40_3 C28_3 1_555 1_555
C26_3 O38_3 1_555 1_555
C30_3 N6_3 1_555 1_555
H35_3 C30_3 1_555 1_555
H36_3 C30_3 1_555 1_555
O69_3 Fe16_2 1_555 1_555
O71_3 Ce1_6 1_555 1_555
N10_3 Fe16_2 1_555 1_555
O5_3 Fe11 1_555 1_555
N1_3 Fe11 1_555 1_555
P2_3 O49 1_555 1_555
P2_3 O13_3 1_555 1_555
O12_3 Fe12 1_555 1_555
N2_3 Fe12 1_555 1_555
P3_3 O50 1_555 1_555
P3_3 O20_3 1_555 1_555
P4_3 O27_3 1_555 1_555
P5_3 O34_3 1_555 1_555
O33_3 Fe17_2 1_555 1_555
N5_3 Fe17_2 1_555 1_555
O40_3 Fe15_2 1_555 1_555
N6_3 Fe15_2 1_555 1_555
C26_3 C30_3 1_555 1_555
P6_3 O36_3 1_555 1_555
O71_3 P6_3 1_555 1_555
C27_3 P6_3 1_555 1_555
H31_3 C27_3 1_555 1_555
H32_3 C27_3 1_555 1_555
H34_3 C29_3 1_555 1_555
Fe11 O10_3 1_555 1_555
O10_3 C6_3 1_555 1_555
O59 C6_3 1_555 1_555
C6_3 C10_3 1_555 1_555
H11_3 C10_3 1_555 1_555
H12_3 C10_3 1_555 1_555
Fe15_2 O24_3 1_555 1_555
O24_3 C16_3 1_555 1_555
O63_2 C16_3 1_555 1_555
O69_3 C18_3 1_555 1_555
C16_3 C20_3 1_555 1_555
C20_3 N10_3 1_555 1_555
H23_3 C20_3 1_555 1_555
H24_3 C20_3 1_555 1_555

#END
