
###############################################################################
#
# This file contains modified crystal structure data generated from the
# MOF subset of the Cambridge Structural Database (CSD) v543 
# hosted by the Cambridge Crystallographic Data Centre (CCDC).
#
# This work is licensed under the Creative Commons
# Attribution-NonCommercial-ShareAlike 4.0 International License.
# To view a copy of this license, visit
# http://creativecommons.org/licenses/by-nc-sa/4.0/
# or send a letter to
# Creative Commons, PO Box 1866, Mountain View, CA 94042, USA.
#
# CIF created using the CSD Python API on 29 September 2022
# The structure has been converted into the P1 space group
# The structure has a 3D framework
# The original CSD entry GAWCAM is in the rhombohedral crystal system
# The framework has been calculated to contain at least 10.0% void space
# The void calculation uses a probe of radius 1.32A, grid spacing 0.4
#
###############################################################################

data_GAWCAM
_chemical_formula_moiety         '(C90 H108 Fe14 La9 N18 Na5 O126 P18)n'
_symmetry_cell_setting           triclinic
_symmetry_space_group_name_H-M   'P 1'
_symmetry_Int_Tables_number      1
_space_group_name_Hall           'P 1'
loop_
_symmetry_equiv_pos_site_id
_symmetry_equiv_pos_as_xyz
1 x,y,z
_cell_length_a                   15.4629(5)
_cell_length_b                   15.4629(5)
_cell_length_c                   22.8939(11)
_cell_angle_alpha                90
_cell_angle_beta                 90
_cell_angle_gamma                120
_cell_volume                     4740.59
loop_
_atom_site_label
_atom_site_type_symbol
_atom_site_fract_x
_atom_site_fract_y
_atom_site_fract_z
Na8 Na 0.000000 -0.000000 0.80634(14)
O56 O 0.1265(2) 0.0234(3) 0.72718(14)
Fe1 Fe 0.10181(4) 0.87794(4) 0.74348(3)
Na8_2 Na 0.000000 1.000000 0.80634(14)
O48 O 0.0794(2) 0.9113(3) 0.83003(13)
O51 O 0.13503(19) 0.76408(27) 0.76329(13)
O53 O 0.03762(19) 0.46836(19) 0.57004(13)
O68 O 0.1300(2) 0.8713(3) 0.64947(14)
N8 N 0.2701(2) 0.9712(3) 0.73762(14)
Fe2 Fe 0.12206(4) 0.22387(6) 0.74348(3)
O10 O 0.2336(2) 0.1845(3) 0.73881(15)
C6 C 0.2118(3) 0.0949(4) 0.73754(19)
C8 C 0.2946(3) 0.0736(4) 0.7535(2)
H7 H 0.355468 0.121141 0.733532
H8 H 0.306929 0.083053 0.795158
H12 H 0.344067 0.032577 0.663267
Na8_3 Na 1.000000 -0.000000 0.80634(14)
O49 O 0.0887(3) 0.1682(2) 0.83003(13)
O52 O 0.23592(27) 0.37095(19) 0.76329(13)
O69 O 0.1287(3) 0.2587(2) 0.64947(14)
N9 N 0.0288(3) 0.2989(2) 0.73762(14)
La1 La 0.333333 0.666667 0.666667
P1 P 0.54865(7) 0.75616(7) 0.77720(4)
Na1 Na 0.333333 0.666667 0.86033(14)
O1 O 0.5015(2) 0.7461(2) 0.83664(13)
O2 O 0.62905(19) 0.86497(19) 0.76329(13)
O3 O 0.9509(2) 0.7664(2) 0.73881(15)
O4 O 0.8969(2) 0.8735(2) 0.72718(14)
O5 O 0.4734(2) 0.7136(2) 0.72836(14)
O6 O 0.7413(2) 0.8700(2) 0.64947(14)
N1 N 0.7011(2) 0.7299(2) 0.73762(14)
O7 O 0.6567(3) 0.7553(2) 0.58289(14)
C1 C 0.8831(3) 0.7882(3) 0.73754(19)
C2 C 0.6902(3) 0.7817(3) 0.63599(19)
C3 C 0.7790(3) 0.7054(3) 0.7535(2)
H1 H 0.765673 0.644532 0.733532
H2 H 0.776124 0.693071 0.795158
C4 C 0.6174(3) 0.6892(3) 0.78060(17)
H3 H 0.643977 0.694735 0.819672
H4 H 0.572426 0.619058 0.772535
C5 C 0.6629(3) 0.6976(3) 0.67804(18)
H5 H 0.590699 0.656910 0.679671
H6 H 0.688510 0.655933 0.663267
P2 P 0.24384(7) 0.79249(10) 0.77720(4)
O8 O 0.2539(2) 0.7554(3) 0.83664(13)
O12 O 0.2864(2) 0.7598(3) 0.72836(14)
O14 O 0.2447(2) 0.9014(4) 0.58289(14)
C7 C 0.2183(3) 0.9085(4) 0.63599(19)
C9 C 0.3108(3) 0.9282(4) 0.78060(17)
H9 H 0.305265 0.949242 0.819672
H10 H 0.380942 0.953368 0.772535
C10 C 0.3024(3) 0.9653(4) 0.67804(18)
H11 H 0.343090 0.933789 0.679671
P3 P 0.20751(10) 0.45135(7) 0.77720(4)
O15 O 0.2446(3) 0.4985(2) 0.83664(13)
O19 O 0.2402(3) 0.5266(2) 0.72836(14)
O21 O 0.0986(4) 0.3433(3) 0.58289(14)
C12 C 0.0915(4) 0.3098(3) 0.63599(19)
C14 C 0.0718(4) 0.3826(3) 0.78060(17)
H15 H 0.050758 0.356023 0.819672
H16 H 0.046632 0.427574 0.772535
C15 C 0.0347(4) 0.3371(3) 0.67804(18)
H17 H 0.066211 0.409301 0.679671
P4 P 0.11802(7) 0.57717(7) 0.55613(4)
Na2 Na 0.333334 0.666666 0.47300(14)
O22 O 0.1652(2) 0.5872(2) 0.49669(13)
O26 O 0.1933(2) 0.6197(2) 0.60497(14)
O28 O 0.0100(3) 0.5780(2) 0.75044(14)
C19 C 0.0493(3) 0.6441(3) 0.55273(17)
H21 H 0.022690 0.638598 0.513661
H22 H 0.094241 0.714275 0.560798
C20 C 0.0038(3) 0.6357(3) 0.65529(18)
H23 H 0.075968 0.676423 0.653662
Fe5 Fe 0.54461(4) 0.10946(6) 0.58985(3)
P5 P 0.42283(7) 0.54084(10) 0.55613(4)
O29 O 0.4128(2) 0.5779(3) 0.49669(13)
O30 O 0.53164(19) 0.56925(27) 0.57004(13)
O31 O 0.4331(2) 0.1488(3) 0.59452(15)
O32 O 0.5402(2) 0.3099(3) 0.60615(14)
O33 O 0.3803(2) 0.5735(3) 0.60497(14)
O34 O 0.5367(2) 0.4620(3) 0.68386(14)
N5 N 0.3966(2) 0.3621(3) 0.59571(14)
O35 O 0.4220(2) 0.4319(4) 0.75044(14)
C21 C 0.4549(3) 0.2384(4) 0.59579(19)
C22 C 0.4484(3) 0.4248(4) 0.69734(19)
C23 C 0.3721(3) 0.2597(4) 0.5798(2)
H25 H 0.311199 0.212192 0.599801
H26 H 0.359738 0.250280 0.538175
C24 C 0.3559(3) 0.4051(4) 0.55273(17)
H27 H 0.361402 0.384091 0.513661
H28 H 0.285725 0.379965 0.560798
C25 C 0.3643(3) 0.3680(4) 0.65529(18)
H29 H 0.323577 0.399544 0.653662
H30 H 0.322600 0.300756 0.670066
Fe6 Fe 0.89054(6) 0.43514(4) 0.58985(3)
O38 O 0.8512(3) 0.2842(2) 0.59452(15)
O39 O 0.6901(3) 0.2302(2) 0.60615(14)
O41 O 0.5380(3) 0.0746(2) 0.68386(14)
N6 N 0.6379(3) 0.0344(2) 0.59571(14)
C26 C 0.7616(4) 0.2164(3) 0.59579(19)
C27 C 0.5752(4) 0.0235(3) 0.69734(19)
C28 C 0.7403(4) 0.1123(3) 0.5798(2)
H31 H 0.787808 0.099006 0.599801
H32 H 0.749720 0.109457 0.538175
H36 H 0.699244 0.021843 0.670066
Fe9 Fe 0.77613(6) 0.89819(4) 0.74348(3)
Fe10 Fe 0.43514(4) 0.54461(4) 0.41015(3)
Fe12 Fe 0.10946(6) 0.56486(4) 0.41015(3)
Fe13 Fe 0.56486(4) 0.45539(4) 0.58985(3)
Fe15 Fe 0.23152(4) 0.78873(4) 0.92319(3)
Fe16 Fe 0.21127(4) 0.44280(6) 0.92319(3)
Fe17 Fe 0.55720(6) 0.76848(4) 0.92319(3)
Na4 Na 0.666666 0.333334 0.52700(14)
Na8_4 Na 1.000000 1.000000 0.80634(14)
O43 O 0.8348(2) 0.4128(2) 0.50331(13)
O45 O 0.5779(3) 0.1652(2) 0.50331(13)
O46 O 0.4221(3) 0.8348(2) 0.49669(13)
O58 O 0.2302(2) 0.5402(2) 0.39385(14)
O59 O 0.4598(2) 0.6901(3) 0.39385(14)
O60 O 0.3099(3) 0.7698(2) 0.39385(14)
O61 O 0.7698(2) 0.4598(2) 0.60615(14)
O63 O 0.4364(2) 0.7932(2) 0.93949(14)
O64 O 0.2068(2) 0.6433(3) 0.93949(14)
O65 O 0.3567(3) 0.5636(2) 0.93949(14)
O66 O 0.4265(3) 0.8067(2) 0.60497(14)
O70 O 0.9254(2) 0.4633(2) 0.68386(14)
N10 N 0.9656(2) 0.6034(2) 0.59571(14)
P6 P 0.45916(10) 0.88198(7) 0.55613(4)
O37 O 0.43075(27) 0.96238(19) 0.57004(13)
O42 O 0.5681(4) 0.9900(3) 0.75044(14)
C29 C 0.5949(4) 0.9507(3) 0.55273(17)
H33 H 0.615909 0.977310 0.513661
H34 H 0.620035 0.905759 0.560798
C30 C 0.6320(4) 0.9962(3) 0.65529(18)
H35 H 0.600456 0.924032 0.653662
Fe11 Fe 0.45539(4) 0.89054(6) 0.41015(3)
O57 O 0.9766(3) 0.1031(2) 0.72718(14)
O17 O 0.8155(3) 0.0491(2) 0.73881(15)
C11 C 0.9051(4) 0.1169(3) 0.73754(19)
C13 C 0.9264(4) 0.2210(3) 0.7535(2)
H13 H 0.878859 0.234327 0.733532
H14 H 0.916947 0.223876 0.795158
H18 H 0.967423 0.311490 0.663267
O24 O 0.7158(2) 0.5669(2) 0.59452(15)
C16 C 0.7836(3) 0.5451(3) 0.59579(19)
C17 C 0.9765(3) 0.5516(3) 0.69734(19)
C18 C 0.8877(3) 0.6279(3) 0.5798(2)
H19 H 0.900994 0.688801 0.599801
H20 H 0.890543 0.640262 0.538175
H24 H 0.978157 0.677400 0.670066
O44 O 0.5872(2) 0.4221(3) 0.50331(13)
O47 O 0.8318(2) 0.9206(2) 0.83003(13)
La1_2 La -0.000000 0.000000 0.000000
Fe1_2 Fe 0.76848(4) 0.21127(4) 0.07681(3)
P1_2 P 0.21532(7) 0.08949(7) 0.11053(4)
Na1_2 Na -0.000000 0.000000 0.19366(14)
O1_2 O 0.1682(2) 0.0794(2) 0.16997(13)
O2_2 O 0.29572(19) 0.19830(19) 0.09662(13)
O3_2 O 0.6176(2) 0.0997(2) 0.07214(15)
O4_2 O 0.5636(2) 0.2068(2) 0.06051(14)
O5_2 O 0.1401(2) 0.0469(2) 0.06169(14)
N1_2 N 0.3678(2) 0.0632(2) 0.07095(14)
C1_2 C 0.5498(3) 0.1215(3) 0.07087(19)
C3_2 C 0.4457(3) 0.0387(3) 0.0868(2)
H2_2 H 0.442791 0.026404 0.128491
C4_2 C 0.2841(3) 0.0225(3) 0.11393(17)
H3_2 H 0.310644 0.028068 0.153005
C5_2 C 0.3296(3) 0.0309(3) 0.01137(18)
H7_2 H 0.022135 0.454474 0.066865
H10_2 H 0.047609 0.286701 0.105868
H11_2 H 0.009757 0.267122 0.013004
Fe9_2 Fe 0.44280(6) 0.23152(4) 0.07681(3)
Fe17_2 Fe 0.22387(6) 0.10181(4) 0.25652(3)
Na8_5 Na 0.666667 0.333333 0.13967(14)
O48_2 O 0.7461(2) 0.2446(3) 0.16336(13)
O51_2 O 0.80170(19) 0.09741(27) 0.09662(13)
O56_2 O 0.7932(2) 0.3567(3) 0.06051(14)
O63_2 O 0.1031(2) 0.1265(2) 0.27282(14)
N8_2 N 0.9368(2) 0.3045(3) 0.07095(14)
La1_3 La -0.000000 0.000000 1.000000
O6_2 O 0.4080(2) 0.2033(2) 0.98280(14)
O7_2 O 0.3234(3) 0.0886(2) 0.91622(14)
C2_2 C 0.3569(3) 0.1150(3) 0.96932(19)
H12_2 H 0.010734 0.365910 0.996600
O66_2 O 0.0931(3) 0.1401(2) 0.93831(14)
O68_2 O 0.7967(2) 0.2046(3) 0.98280(14)
La1_4 La -0.000000 1.000000 0.000000
Na1_3 Na -0.000000 1.000000 0.19366(14)
H1_2 H 0.432340 0.977865 0.066865
H4_2 H 0.239093 0.952391 0.105868
H5_2 H 0.257366 0.990243 0.013004
O34_2 O 0.2033(2) 0.7954(3) 0.01720(14)
O35_2 O 0.0886(2) 0.7653(4) 0.08378(14)
C22_2 C 0.1150(3) 0.7582(4) 0.03068(19)
O41_2 O 0.2046(3) 0.4080(2) 0.01720(14)
O42_2 O 0.2347(4) 0.3234(3) 0.08378(14)
C27_2 C 0.2418(4) 0.3569(3) 0.03068(19)
H36_2 H 0.365910 0.355177 0.003400
O65_2 O 0.0234(3) 0.8969(2) 0.27282(14)
O70_2 O 0.5920(2) 0.7967(2) 0.01720(14)
La1_5 La -0.000000 1.000000 1.000000
H6_2 H 0.355177 0.989266 0.996600
P5_2 P 0.08949(7) 0.87418(10) 0.88947(4)
O30_2 O 0.19830(19) 0.90259(27) 0.90338(13)
O31_2 O 0.0997(2) 0.4822(3) 0.92786(15)
O33_2 O 0.0469(2) 0.9069(3) 0.93831(14)
N5_2 N 0.0632(2) 0.6955(3) 0.92905(14)
C21_2 C 0.1215(3) 0.5718(4) 0.92913(19)
C23_2 C 0.0387(3) 0.5931(4) 0.9132(2)
H26_2 H 0.026404 0.583614 0.871509
C24_2 C 0.0225(3) 0.7385(4) 0.88607(17)
H27_2 H 0.028068 0.717425 0.846995
C25_2 C 0.0309(3) 0.7014(4) 0.98863(18)
P6_2 P 0.12582(10) 0.21532(7) 0.88947(4)
O37_2 O 0.09741(27) 0.29572(19) 0.90338(13)
O38_2 O 0.5178(3) 0.6176(2) 0.92786(15)
N6_2 N 0.3045(3) 0.3678(2) 0.92905(14)
C26_2 C 0.4282(4) 0.5498(3) 0.92913(19)
C28_2 C 0.4069(4) 0.4457(3) 0.9132(2)
H31_2 H 0.454474 0.432340 0.933135
H32_2 H 0.416386 0.442791 0.871509
C29_2 C 0.2615(4) 0.2841(3) 0.88607(17)
H33_2 H 0.282575 0.310644 0.846995
H34_2 H 0.286701 0.239093 0.894132
C30_2 C 0.2986(4) 0.3296(3) 0.98863(18)
H35_2 H 0.267122 0.257366 0.986996
O53_2 O 0.70428(19) 0.80170(19) 0.90338(13)
N10_2 N 0.6322(2) 0.9368(2) 0.92905(14)
La1_6 La 1.000000 0.000000 0.000000
Na1_4 Na 1.000000 0.000000 0.19366(14)
Fe2_2 Fe 0.78873(4) 0.55720(6) 0.07681(3)
P2_2 P 0.91051(7) 0.12582(10) 0.11053(4)
O8_2 O 0.9206(2) 0.0887(3) 0.16997(13)
O10_2 O 0.9003(2) 0.5178(3) 0.07214(15)
O12_2 O 0.9531(2) 0.0931(3) 0.06169(14)
C6_2 C 0.8785(3) 0.4282(4) 0.07087(19)
C8_2 C 0.9613(3) 0.4069(4) 0.0868(2)
H8_2 H 0.973596 0.416386 0.128491
C9_2 C 0.9775(3) 0.2615(4) 0.11393(17)
H9_2 H 0.971932 0.282575 0.153005
C10_2 C 0.9691(3) 0.2986(4) 0.01137(18)
H24_2 H 0.644823 0.010734 0.003400
Fe15_2 Fe 0.89819(4) 0.12206(4) 0.25652(3)
O49_2 O 0.7554(3) 0.5015(2) 0.16336(13)
O52_2 O 0.90259(27) 0.70428(19) 0.09662(13)
O57_2 O 0.6433(3) 0.4364(2) 0.06051(14)
N9_2 N 0.6955(3) 0.6322(2) 0.07095(14)
La1_7 La 1.000000 0.000000 1.000000
O14_2 O 0.9114(2) 0.2347(4) 0.91622(14)
C7_2 C 0.8850(3) 0.2418(4) 0.96932(19)
H19_2 H 0.567660 0.022135 0.933135
H22_2 H 0.760907 0.047609 0.894132
H23_2 H 0.742634 0.009757 0.986996
O69_2 O 0.7954(3) 0.5920(2) 0.98280(14)
La1_8 La 1.000000 1.000000 0.000000
Na1_5 Na 1.000000 1.000000 0.19366(14)
P3_2 P 0.87418(10) 0.78468(7) 0.11053(4)
O15_2 O 0.9113(3) 0.8318(2) 0.16997(13)
O17_2 O 0.4822(3) 0.3824(2) 0.07214(15)
O19_2 O 0.9069(3) 0.8599(2) 0.06169(14)
C11_2 C 0.5718(4) 0.4502(3) 0.07087(19)
C13_2 C 0.5931(4) 0.5543(3) 0.0868(2)
H13_2 H 0.545526 0.567660 0.066865
H14_2 H 0.583614 0.557209 0.128491
C14_2 C 0.7385(4) 0.7159(3) 0.11393(17)
H15_2 H 0.717425 0.689356 0.153005
H16_2 H 0.713299 0.760907 0.105868
C15_2 C 0.7014(4) 0.6704(3) 0.01137(18)
H17_2 H 0.732878 0.742634 0.013004
O28_2 O 0.6766(3) 0.9114(2) 0.08378(14)
C17_2 C 0.6431(3) 0.8850(3) 0.03068(19)
H30_2 H 0.989266 0.634090 0.003400
Fe16_2 Fe 0.87794(4) 0.77613(6) 0.25652(3)
O47_2 O 0.4985(2) 0.2539(2) 0.16336(13)
O64_2 O 0.8735(2) 0.9766(3) 0.27282(14)
La1_9 La 1.000000 1.000000 1.000000
O21_2 O 0.7653(4) 0.6766(3) 0.91622(14)
C12_2 C 0.7582(4) 0.6431(3) 0.96932(19)
H18_2 H 0.634090 0.644823 0.996600
P4_2 P 0.78468(7) 0.91051(7) 0.88947(4)
O24_2 O 0.3824(2) 0.9003(2) 0.92786(15)
O26_2 O 0.8599(2) 0.9531(2) 0.93831(14)
C16_2 C 0.4502(3) 0.8785(3) 0.92913(19)
C18_2 C 0.5543(3) 0.9613(3) 0.9132(2)
H20_2 H 0.557209 0.973596 0.871509
C19_2 C 0.7159(3) 0.9775(3) 0.88607(17)
H21_2 H 0.689356 0.971932 0.846995
C20_2 C 0.6704(3) 0.9691(3) 0.98863(18)
H25_2 H 0.977865 0.545526 0.933135
H28_2 H 0.952391 0.713299 0.894132
H29_2 H 0.990243 0.732878 0.986996
O3_3 O 0.2842(2) 0.4331(2) 0.40548(15)
O6_3 O 0.0746(2) 0.5367(2) 0.31614(14)
N1_3 N 0.0344(2) 0.3966(2) 0.40429(14)
C1_3 C 0.2164(3) 0.4549(3) 0.40421(19)
C2_3 C 0.0235(3) 0.4484(3) 0.30266(19)
C3_3 C 0.1123(3) 0.3721(3) 0.4202(2)
H1_3 H 0.099006 0.311199 0.400199
H2_3 H 0.109457 0.359738 0.461825
H6_3 H 0.021843 0.322600 0.329934
O51_3 O 0.46836(19) 0.43075(27) 0.42996(13)
O53_3 O 0.37095(19) 0.13503(19) 0.23671(13)
O68_3 O 0.4633(2) 0.5380(3) 0.31614(14)
O70_3 O 0.2587(2) 0.1300(2) 0.35053(14)
N8_3 N 0.6034(2) 0.6379(3) 0.40429(14)
N10_3 N 0.2989(2) 0.2701(2) 0.26238(14)
O38_3 O 0.1845(3) 0.9509(2) 0.26119(15)
C26_3 C 0.0949(4) 0.8831(3) 0.26246(19)
C28_3 C 0.0736(4) 0.7790(3) 0.2465(2)
H31_3 H 0.121141 0.765673 0.266468
H32_3 H 0.083053 0.776124 0.204842
H36_3 H 0.032577 0.688510 0.336733
O52_3 O 0.56925(27) 0.03762(19) 0.42996(13)
La1_10 La 0.666666 0.333334 0.333334
P1_3 P 0.88198(7) 0.42283(7) 0.44387(4)
O2_3 O 0.96238(19) 0.53164(19) 0.42996(13)
O5_3 O 0.8067(2) 0.3803(2) 0.39503(14)
O7_3 O 0.9900(3) 0.4220(2) 0.24956(14)
C4_3 C 0.9507(3) 0.3559(3) 0.44727(17)
H3_3 H 0.977310 0.361402 0.486339
H4_3 H 0.905759 0.285725 0.439202
C5_3 C 0.9962(3) 0.3643(3) 0.34471(18)
H5_3 H 0.924032 0.323577 0.346338
P2_3 P 0.57717(7) 0.45916(10) 0.44387(4)
O10_3 O 0.5669(2) 0.8512(3) 0.40548(15)
O12_3 O 0.6197(2) 0.4265(3) 0.39503(14)
O14_3 O 0.5780(2) 0.5681(4) 0.24956(14)
C6_3 C 0.5451(3) 0.7616(4) 0.40421(19)
C7_3 C 0.5516(3) 0.5752(4) 0.30266(19)
C8_3 C 0.6279(3) 0.7403(4) 0.4202(2)
H7_3 H 0.688801 0.787808 0.400199
H8_3 H 0.640262 0.749720 0.461825
C9_3 C 0.6441(3) 0.5949(4) 0.44727(17)
H9_3 H 0.638598 0.615909 0.486339
H10_3 H 0.714275 0.620035 0.439202
C10_3 C 0.6357(3) 0.6320(4) 0.34471(18)
H11_3 H 0.676423 0.600456 0.346338
H12_3 H 0.677400 0.699244 0.329934
P3_3 P 0.54084(10) 0.11802(7) 0.44387(4)
O19_3 O 0.5735(3) 0.1933(2) 0.39503(14)
O21_3 O 0.4319(4) 0.0100(3) 0.24956(14)
C14_3 C 0.4051(4) 0.0493(3) 0.44727(17)
H15_3 H 0.384091 0.022690 0.486339
H16_3 H 0.379965 0.094241 0.439202
C15_3 C 0.3680(4) 0.0038(3) 0.34471(18)
H17_3 H 0.399544 0.075968 0.346338
P4_3 P 0.45135(7) 0.24384(7) 0.22280(4)
O24_3 O 0.0491(2) 0.2336(2) 0.26119(15)
O26_3 O 0.5266(2) 0.2864(2) 0.27164(14)
O28_3 O 0.3433(3) 0.2447(2) 0.41711(14)
C16_3 C 0.1169(3) 0.2118(3) 0.26246(19)
C17_3 C 0.3098(3) 0.2183(3) 0.36401(19)
C18_3 C 0.2210(3) 0.2946(3) 0.2465(2)
H19_3 H 0.234327 0.355468 0.266468
H20_3 H 0.223876 0.306929 0.204842
C19_3 C 0.3826(3) 0.3108(3) 0.21940(17)
H21_3 H 0.356023 0.305265 0.180328
H22_3 H 0.427574 0.380942 0.227465
C20_3 C 0.3371(3) 0.3024(3) 0.32196(18)
H23_3 H 0.409301 0.343090 0.320329
H24_3 H 0.311490 0.344067 0.336733
P5_3 P 0.75616(7) 0.20751(10) 0.22280(4)
O30_3 O 0.86497(19) 0.23592(27) 0.23671(13)
O33_3 O 0.7136(2) 0.2402(3) 0.27164(14)
O34_3 O 0.8700(2) 0.1287(3) 0.35053(14)
N5_3 N 0.7299(2) 0.0288(3) 0.26238(14)
O35_3 O 0.7553(2) 0.0986(4) 0.41711(14)
C22_3 C 0.7817(3) 0.0915(4) 0.36401(19)
C24_3 C 0.6892(3) 0.0718(4) 0.21940(17)
H27_3 H 0.694735 0.050758 0.180328
H28_3 H 0.619058 0.046632 0.227465
C25_3 C 0.6976(3) 0.0347(4) 0.32196(18)
H29_3 H 0.656910 0.066211 0.320329
O66_3 O 0.7598(3) 0.4734(2) 0.27164(14)
O69_3 O 0.4620(3) 0.9254(2) 0.31614(14)
N9_3 N 0.3621(3) 0.9656(2) 0.40429(14)
O17_3 O 0.1488(3) 0.7158(2) 0.40548(15)
C11_3 C 0.2384(4) 0.7836(3) 0.40421(19)
C12_3 C 0.4248(4) 0.9765(3) 0.30266(19)
C13_3 C 0.2597(4) 0.8877(3) 0.4202(2)
H13_3 H 0.212192 0.900994 0.400199
H14_3 H 0.250280 0.890543 0.461825
H18_3 H 0.300756 0.978157 0.329934
O31_3 O 0.7664(2) 0.8155(3) 0.26119(15)
C21_3 C 0.7882(3) 0.9051(4) 0.26246(19)
C23_3 C 0.7054(3) 0.9264(4) 0.2465(2)
H25_3 H 0.644532 0.878859 0.266468
H26_3 H 0.693071 0.916947 0.204842
H30_3 H 0.655933 0.967423 0.336733
P6_3 P 0.79249(10) 0.54865(7) 0.22280(4)
O37_3 O 0.76408(27) 0.62905(19) 0.23671(13)
O41_3 O 0.8713(3) 0.7413(2) 0.35053(14)
N6_3 N 0.9712(3) 0.7011(2) 0.26238(14)
O42_3 O 0.9014(4) 0.6567(3) 0.41711(14)
C27_3 C 0.9085(4) 0.6902(3) 0.36401(19)
C29_3 C 0.9282(4) 0.6174(3) 0.21940(17)
H33_3 H 0.949242 0.643977 0.180328
H34_3 H 0.953368 0.572426 0.227465
C30_3 C 0.9653(4) 0.6629(3) 0.32196(18)
H35_3 H 0.933789 0.590699 0.320329
loop_
_geom_bond_atom_site_label_1
_geom_bond_atom_site_label_2
_geom_bond_site_symmetry_1
_geom_bond_site_symmetry_2
Na8 O56 1_555 1_555
O48 Fe1 1_555 1_555
O51 Fe1 1_555 1_555
O68 Fe1 1_555 1_555
N8 Fe1 1_555 1_555
Na8_2 O48 1_555 1_555
Fe2 O10 1_555 1_555
O10 C6 1_555 1_555
O56 C6 1_555 1_555
C6 C8 1_555 1_555
C8 H7 1_555 1_555
H8 C8 1_555 1_555
O49 Fe2 1_555 1_555
O52 Fe2 1_555 1_555
O69 Fe2 1_555 1_555
N9 Fe2 1_555 1_555
Na8 O49 1_555 1_555
La1 O5 1_555 1_555
P1 O1 1_555 1_555
Na1 O1 1_555 1_555
O1 Fe17 1_555 1_555
O2 P1 1_555 1_555
O3 C1 1_555 1_555
O4 C1 1_555 1_555
O5 P1 1_555 1_555
O6 C2 1_555 1_555
N1 C3 1_555 1_555
O7 C2 1_555 1_555
C1 C3 1_555 1_555
C2 C5 1_555 1_555
C3 H1 1_555 1_555
H2 C3 1_555 1_555
C4 P1 1_555 1_555
H3 C4 1_555 1_555
H4 C4 1_555 1_555
C5 N1 1_555 1_555
H5 C5 1_555 1_555
H6 C5 1_555 1_555
P2 O8 1_555 1_555
O8 Na1 1_555 1_555
O51 P2 1_555 1_555
O12 La1 1_555 1_555
O68 C7 1_555 1_555
O14 C7 1_555 1_555
C7 C10 1_555 1_555
C9 P2 1_555 1_555
H9 C9 1_555 1_555
H10 C9 1_555 1_555
C10 N8 1_555 1_555
H11 C10 1_555 1_555
P3 O15 1_555 1_555
O15 Na1 1_555 1_555
O52 P3 1_555 1_555
O19 La1 1_555 1_555
O69 C12 1_555 1_555
O21 C12 1_555 1_555
C12 C15 1_555 1_555
C14 P3 1_555 1_555
H15 C14 1_555 1_555
H16 C14 1_555 1_555
C15 N9 1_555 1_555
H17 C15 1_555 1_555
P4 O22 1_555 1_555
Na2 O22 1_555 1_555
O22 Fe12 1_555 1_555
O53 P4 1_555 1_555
O26 La1 1_555 1_555
C19 P4 1_555 1_555
H21 C19 1_555 1_555
H22 C19 1_555 1_555
H23 C20 1_555 1_555
Fe5 O31 1_555 1_555
P5 O29 1_555 1_555
O29 Na2 1_555 1_555
O30 P5 1_555 1_555
O31 C21 1_555 1_555
O32 C21 1_555 1_555
O33 La1 1_555 1_555
O34 C22 1_555 1_555
N5 C23 1_555 1_555
O35 C22 1_555 1_555
C21 C23 1_555 1_555
C22 C25 1_555 1_555
C23 H25 1_555 1_555
H26 C23 1_555 1_555
C24 P5 1_555 1_555
H27 C24 1_555 1_555
H28 C24 1_555 1_555
C25 N5 1_555 1_555
H29 C25 1_555 1_555
H30 C25 1_555 1_555
Fe6 O38 1_555 1_555
O38 C26 1_555 1_555
O39 Fe5 1_555 1_555
O41 Fe5 1_555 1_555
N6 Fe5 1_555 1_555
C26 O39 1_555 1_555
C27 O41 1_555 1_555
C28 N6 1_555 1_555
H31 C28 1_555 1_555
H32 C28 1_555 1_555
Fe9 O2 1_555 1_555
Fe10 O29 1_555 1_555
Fe12 O58 1_555 1_555
Fe13 O30 1_555 1_555
Fe15 O8 1_555 1_555
Fe16 O15 1_555 1_555
Fe17 O63 1_555 1_555
Na4 O32 1_555 1_555
Na8_4 O4 1_555 1_555
O43 Fe6 1_555 1_555
O45 Fe5 1_555 1_555
O46 Na2 1_555 1_555
O58 Na2 1_555 1_555
O59 Na2 1_555 1_555
O60 Na2 1_555 1_555
O61 Fe6 1_555 1_555
O63 Na1 1_555 1_555
O64 Na1 1_555 1_555
O65 Na1 1_555 1_555
O66 La1 1_555 1_555
O70 Fe6 1_555 1_555
N10 Fe6 1_555 1_555
O4 Fe9 1_555 1_555
O6 Fe9 1_555 1_555
N1 C4 1_555 1_555
N1 Fe9 1_555 1_555
P2 O12 1_555 1_555
N8 C9 1_555 1_555
P3 O19 1_555 1_555
N9 C14 1_555 1_555
P4 O26 1_555 1_555
P5 O33 1_555 1_555
O32 Fe13 1_555 1_555
O34 Fe13 1_555 1_555
N5 C24 1_555 1_555
N5 Fe13 1_555 1_555
O39 Na4 1_555 1_555
C26 C28 1_555 1_555
Fe10 O59 1_555 1_555
Fe15 O64 1_555 1_555
Fe16 O65 1_555 1_555
Na4 O43 1_555 1_555
Na4 O45 1_555 1_555
Na4 O61 1_555 1_555
P6 O46 1_555 1_555
O46 Fe11 1_555 1_555
O66 P6 1_555 1_555
C29 P6 1_555 1_555
H33 C29 1_555 1_555
H34 C29 1_555 1_555
H35 C30 1_555 1_555
P6 O37 1_555 1_555
Na8_3 O57 1_555 1_555
O17 C11 1_555 1_555
O57 C11 1_555 1_555
C11 C13 1_555 1_555
C13 H13 1_555 1_555
H14 C13 1_555 1_555
Fe13 O24 1_555 1_555
O24 C16 1_555 1_555
O61 C16 1_555 1_555
O70 C17 1_555 1_555
N10 C18 1_555 1_555
C16 C18 1_555 1_555
C18 H19 1_555 1_555
H20 C18 1_555 1_555
O44 Fe13 1_555 1_555
Na4 O44 1_555 1_555
O47 Fe9 1_555 1_555
Na8_4 O47 1_555 1_555
Fe11 O60 1_555 1_555
La1_2 O5_2 1_555 1_555
Fe1_2 O3_2 1_555 1_555
P1_2 O1_2 1_555 1_555
Na1_2 O1_2 1_555 1_555
O1_2 Fe17_2 1_555 1_555
O2_2 P1_2 1_555 1_555
O3_2 C1_2 1_555 1_555
O4_2 C1_2 1_555 1_555
O5_2 P1_2 1_555 1_555
N1_2 C3_2 1_555 1_555
C1_2 C3_2 1_555 1_555
H2_2 C3_2 1_555 1_555
C4_2 P1_2 1_555 1_555
H3_2 C4_2 1_555 1_555
C5_2 N1_2 1_555 1_555
Fe9_2 O2_2 1_555 1_555
Fe17_2 O63_2 1_555 1_555
Na8_5 O4_2 1_555 1_555
O48_2 Fe1_2 1_555 1_555
O51_2 Fe1_2 1_555 1_555
O56_2 Fe1_2 1_555 1_555
O63_2 Na1_2 1_555 1_555
N8_2 Fe1_2 1_555 1_555
O4_2 Fe9_2 1_555 1_555
N1_2 C4_2 1_555 1_555
N1_2 Fe9_2 1_555 1_555
Na8_5 O48_2 1_555 1_555
Na8_5 O56_2 1_555 1_555
O6_2 C2_2 1_555 1_555
O7_2 C2_2 1_555 1_555
O66_2 La1_3 1_555 1_555
O34_2 C22_2 1_555 1_555
O35_2 C22_2 1_555 1_555
O42_2 C27_2 1_555 1_555
C27_2 O41_2 1_555 1_555
O65_2 Na1_3 1_555 1_555
Fe16 O31_2 1_555 1_555
P5_2 O48 1_555 1_555
O30_2 P5_2 1_555 1_555
O31_2 C21_2 1_555 1_555
O64 C21_2 1_555 1_555
O33_2 La1_5 1_555 1_555
N5_2 C23_2 1_555 1_555
C21_2 C23_2 1_555 1_555
H26_2 C23_2 1_555 1_555
C24_2 P5_2 1_555 1_555
H27_2 C24_2 1_555 1_555
C25_2 N5_2 1_555 1_555
Fe17 O38_2 1_555 1_555
P6_2 O49 1_555 1_555
O37_2 Fe16 1_555 1_555
O38_2 C26_2 1_555 1_555
O66_2 P6_2 1_555 1_555
N6_2 Fe16 1_555 1_555
C26_2 O65 1_555 1_555
C28_2 N6_2 1_555 1_555
H31_2 C28_2 1_555 1_555
H32_2 C28_2 1_555 1_555
C29_2 P6_2 1_555 1_555
H33_2 C29_2 1_555 1_555
H34_2 C29_2 1_555 1_555
C30_2 N6_2 1_555 1_555
H35_2 C30_2 1_555 1_555
Fe15 O30_2 1_555 1_555
O53_2 Fe17 1_555 1_555
N10_2 Fe17 1_555 1_555
P5_2 O33_2 1_555 1_555
N5_2 C24_2 1_555 1_555
N5_2 Fe15 1_555 1_555
P6_2 O37_2 1_555 1_555
N6_2 C29_2 1_555 1_555
C26_2 C28_2 1_555 1_555
Fe2_2 O10_2 1_555 1_555
P2_2 O8_2 1_555 1_555
O8_2 Na1_4 1_555 1_555
O51_2 P2_2 1_555 1_555
O10_2 C6_2 1_555 1_555
O56_2 C6_2 1_555 1_555
O12_2 La1_6 1_555 1_555
N8_2 C8_2 1_555 1_555
C6_2 C8_2 1_555 1_555
H8_2 C8_2 1_555 1_555
C9_2 P2_2 1_555 1_555
H9_2 C9_2 1_555 1_555
C10_2 N8_2 1_555 1_555
Fe15_2 O8_2 1_555 1_555
O49_2 Fe2_2 1_555 1_555
O52_2 Fe2_2 1_555 1_555
O57_2 Fe2_2 1_555 1_555
N9_2 Fe2_2 1_555 1_555
P2_2 O12_2 1_555 1_555
N8_2 C9_2 1_555 1_555
Na8_5 O49_2 1_555 1_555
Na8_5 O57_2 1_555 1_555
O68_2 C7_2 1_555 1_555
O14_2 C7_2 1_555 1_555
Fe9_2 O17_2 1_555 1_555
P3_2 O15_2 1_555 1_555
O15_2 Na1_5 1_555 1_555
O52_2 P3_2 1_555 1_555
O17_2 C11_2 1_555 1_555
O57_2 C11_2 1_555 1_555
O19_2 La1_8 1_555 1_555
N9_2 C13_2 1_555 1_555
C11_2 C13_2 1_555 1_555
C13_2 H13_2 1_555 1_555
H14_2 C13_2 1_555 1_555
C14_2 P3_2 1_555 1_555
H15_2 C14_2 1_555 1_555
H16_2 C14_2 1_555 1_555
C15_2 N9_2 1_555 1_555
H17_2 C15_2 1_555 1_555
O70_2 C17_2 1_555 1_555
O28_2 C17_2 1_555 1_555
Fe16_2 O15_2 1_555 1_555
O47_2 Fe9_2 1_555 1_555
O64_2 Na1_5 1_555 1_555
P3_2 O19_2 1_555 1_555
N9_2 C14_2 1_555 1_555
Na8_5 O47_2 1_555 1_555
O69_2 C12_2 1_555 1_555
O21_2 C12_2 1_555 1_555
Fe15 O24_2 1_555 1_555
P4_2 O47 1_555 1_555
O53_2 P4_2 1_555 1_555
O24_2 C16_2 1_555 1_555
O63 C16_2 1_555 1_555
O26_2 La1_9 1_555 1_555
N10_2 C18_2 1_555 1_555
C16_2 C18_2 1_555 1_555
H20_2 C18_2 1_555 1_555
C19_2 P4_2 1_555 1_555
H21_2 C19_2 1_555 1_555
C20_2 N10_2 1_555 1_555
P4_2 O26_2 1_555 1_555
N10_2 C19_2 1_555 1_555
Fe10 O3_3 1_555 1_555
O3_3 C1_3 1_555 1_555
O58 C1_3 1_555 1_555
O6_3 C2_3 1_555 1_555
N1_3 C3_3 1_555 1_555
C1_3 C3_3 1_555 1_555
C3_3 H1_3 1_555 1_555
H2_3 C3_3 1_555 1_555
O51_3 Fe10 1_555 1_555
O53_3 Fe17_2 1_555 1_555
O68_3 Fe10 1_555 1_555
O70_3 Fe17_2 1_555 1_555
N8_3 Fe10 1_555 1_555
N10_3 Fe17_2 1_555 1_555
O6_3 Fe12 1_555 1_555
N1_3 Fe12 1_555 1_555
O38_3 C26_3 1_555 1_555
C26_3 O65_2 1_555 1_555
H31_3 C28_3 1_555 1_555
H32_3 C28_3 1_555 1_555
C26_3 C28_3 1_555 1_555
La1_10 O5_3 1_555 1_555
P1_3 O43 1_555 1_555
O2_3 P1_3 1_555 1_555
O5_3 P1_3 1_555 1_555
C4_3 P1_3 1_555 1_555
H3_3 C4_3 1_555 1_555
H4_3 C4_3 1_555 1_555
H5_3 C5_3 1_555 1_555
Fe11 O10_3 1_555 1_555
P2_3 O44 1_555 1_555
O51_3 P2_3 1_555 1_555
O10_3 C6_3 1_555 1_555
O59 C6_3 1_555 1_555
O12_3 La1_10 1_555 1_555
O68_3 C7_3 1_555 1_555
N8_3 C8_3 1_555 1_555
O14_3 C7_3 1_555 1_555
C6_3 C8_3 1_555 1_555
C7_3 C10_3 1_555 1_555
C8_3 H7_3 1_555 1_555
H8_3 C8_3 1_555 1_555
C9_3 P2_3 1_555 1_555
H9_3 C9_3 1_555 1_555
H10_3 C9_3 1_555 1_555
C10_3 N8_3 1_555 1_555
H11_3 C10_3 1_555 1_555
H12_3 C10_3 1_555 1_555
P3_3 O45 1_555 1_555
O52_3 P3_3 1_555 1_555
O19_3 La1_10 1_555 1_555
C14_3 P3_3 1_555 1_555
H15_3 C14_3 1_555 1_555
H16_3 C14_3 1_555 1_555
H17_3 C15_3 1_555 1_555
P4_3 O47_2 1_555 1_555
O53_3 P4_3 1_555 1_555
O24_3 C16_3 1_555 1_555
O63_2 C16_3 1_555 1_555
O26_3 La1_10 1_555 1_555
O70_3 C17_3 1_555 1_555
N10_3 C18_3 1_555 1_555
O28_3 C17_3 1_555 1_555
C16_3 C18_3 1_555 1_555
C17_3 C20_3 1_555 1_555
C18_3 H19_3 1_555 1_555
H20_3 C18_3 1_555 1_555
C19_3 P4_3 1_555 1_555
H21_3 C19_3 1_555 1_555
H22_3 C19_3 1_555 1_555
C20_3 N10_3 1_555 1_555
H23_3 C20_3 1_555 1_555
H24_3 C20_3 1_555 1_555
P5_3 O48_2 1_555 1_555
O30_3 P5_3 1_555 1_555
O33_3 La1_10 1_555 1_555
O34_3 C22_3 1_555 1_555
O35_3 C22_3 1_555 1_555
C22_3 C25_3 1_555 1_555
C24_3 P5_3 1_555 1_555
H27_3 C24_3 1_555 1_555
H28_3 C24_3 1_555 1_555
C25_3 N5_3 1_555 1_555
H29_3 C25_3 1_555 1_555
Fe15_2 O30_3 1_555 1_555
O66_3 La1_10 1_555 1_555
O69_3 Fe11 1_555 1_555
N9_3 Fe11 1_555 1_555
P2_3 O12_3 1_555 1_555
N8_3 C9_3 1_555 1_555
P3_3 O19_3 1_555 1_555
P4_3 O26_3 1_555 1_555
N10_3 C19_3 1_555 1_555
P5_3 O33_3 1_555 1_555
O34_3 Fe15_2 1_555 1_555
N5_3 C24_3 1_555 1_555
N5_3 Fe15_2 1_555 1_555
Fe12 O17_3 1_555 1_555
O17_3 C11_3 1_555 1_555
O60 C11_3 1_555 1_555
O69_3 C12_3 1_555 1_555
N9_3 C13_3 1_555 1_555
C11_3 C13_3 1_555 1_555
C13_3 H13_3 1_555 1_555
H14_3 C13_3 1_555 1_555
Fe16_2 O31_3 1_555 1_555
O31_3 C21_3 1_555 1_555
O64_2 C21_3 1_555 1_555
C21_3 C23_3 1_555 1_555
C23_3 H25_3 1_555 1_555
H26_3 C23_3 1_555 1_555
P6_3 O49_2 1_555 1_555
O37_3 Fe16_2 1_555 1_555
O66_3 P6_3 1_555 1_555
O41_3 Fe16_2 1_555 1_555
N6_3 Fe16_2 1_555 1_555
O42_3 C27_3 1_555 1_555
C27_3 O41_3 1_555 1_555
C29_3 P6_3 1_555 1_555
H33_3 C29_3 1_555 1_555
H34_3 C29_3 1_555 1_555
C30_3 N6_3 1_555 1_555
H35_3 C30_3 1_555 1_555
P6_3 O37_3 1_555 1_555
N6_3 C29_3 1_555 1_555
C27_3 C30_3 1_555 1_555

#END
