
###############################################################################
#
# This file contains modified crystal structure data generated from the
# MOF subset of the Cambridge Structural Database (CSD) v543 
# hosted by the Cambridge Crystallographic Data Centre (CCDC).
#
# This work is licensed under the Creative Commons
# Attribution-NonCommercial-ShareAlike 4.0 International License.
# To view a copy of this license, visit
# http://creativecommons.org/licenses/by-nc-sa/4.0/
# or send a letter to
# Creative Commons, PO Box 1866, Mountain View, CA 94042, USA.
#
# CIF created using the CSD Python API on 29 September 2022
# The structure has been converted into the P1 space group
# The structure has a 3D framework
# The original CSD entry GAWCEQ is in the rhombohedral crystal system
# The framework has been calculated to contain at least 10.0% void space
# The void calculation uses a probe of radius 1.32A, grid spacing 0.4
#
###############################################################################

data_GAWCEQ
_chemical_formula_moiety         '(C90 H108 Fe17 N18 Na3 O126 P18 Pr5)n'
_symmetry_cell_setting           triclinic
_symmetry_space_group_name_H-M   'P 1'
_symmetry_Int_Tables_number      1
_space_group_name_Hall           'P 1'
loop_
_symmetry_equiv_pos_site_id
_symmetry_equiv_pos_as_xyz
1 x,y,z
_cell_length_a                   15.4277(6)
_cell_length_b                   15.4277(6)
_cell_length_c                   22.8290(14)
_cell_angle_alpha                90
_cell_angle_beta                 90
_cell_angle_gamma                120
_cell_volume                     4705.65
loop_
_atom_site_label
_atom_site_type_symbol
_atom_site_fract_x
_atom_site_fract_y
_atom_site_fract_z
Pr1 Pr 0.666667 0.333333 0.333333
P1 P 0.45257(7) 0.24343(8) 0.22321(5)
Na1 Na 0.666667 0.333333 0.13951(16)
O1 O 0.4990(2) 0.2533(2) 0.16369(14)
O2 O 0.3713(2) 0.1343(2) 0.23677(15)
O3 O 0.5284(2) 0.2857(3) 0.27256(16)
O4 O 0.1033(2) 0.1267(2) 0.27287(16)
O5 O 0.0501(2) 0.2348(2) 0.26073(17)
O6 O 0.2577(3) 0.1283(2) 0.35104(16)
N1 N 0.3005(2) 0.2706(2) 0.26239(16)
O7 O 0.3422(3) 0.2432(3) 0.41799(16)
C1 C 0.1182(3) 0.2125(3) 0.2623(2)
C2 C 0.3091(3) 0.2170(3) 0.3646(2)
C3 C 0.2229(3) 0.2956(3) 0.2472(2)
H1 H 0.226248 0.309248 0.205482
H2 H 0.236317 0.356034 0.267806
C4 C 0.3840(3) 0.3112(3) 0.2199(2)
H3 H 0.429317 0.381364 0.228342
H4 H 0.357870 0.306288 0.180688
C5 C 0.3375(3) 0.3016(3) 0.3224(2)
H5 H 0.311996 0.343557 0.337085
H6 H 0.409929 0.342064 0.321211
Fe3 Fe 0.22396(6) 0.10136(4) 0.25642(3)
H26 H 0.022701 0.453050 0.065527
H27 H 0.048031 0.285380 0.104991
H30 H 0.008731 0.265468 0.012122
Pr5 Pr 0.000000 -0.000000 -0.000000
Fe10 Fe 0.44271(6) 0.23197(4) 0.07691(3)
Na5 Na -0.000000 0.000000 0.19382(16)
O44 O 0.7467(2) 0.2457(3) 0.16369(14)
O46 O 0.7543(3) 0.5010(2) 0.16369(14)
O47 O 0.1677(2) 0.0800(2) 0.16964(14)
O52 O 0.7143(3) 0.2427(4) 0.27256(16)
O53 O 0.7573(4) 0.4716(2) 0.27256(16)
O54 O 0.8049(2) 0.3810(3) 0.39411(16)
O55 O 0.6190(3) 0.4240(4) 0.39411(16)
O56 O 0.5760(4) 0.1951(2) 0.39411(16)
O61 O 0.5634(2) 0.2066(2) 0.06046(16)
O62 O 0.7934(2) 0.3567(3) 0.06046(16)
O64 O 0.6433(3) 0.4366(2) 0.06046(16)
H29 H 0.010224 0.364894 0.996248
Pr5_2 Pr 0.000000 -0.000000 1.000000
O18 O 0.0234(3) 0.8967(2) 0.27287(16)
O19 O 0.1847(3) 0.9499(2) 0.26073(17)
C11 C 0.0943(4) 0.8818(3) 0.2623(2)
C13 C 0.0727(4) 0.7771(3) 0.2472(2)
H13 H 0.083000 0.773752 0.205482
H14 H 0.119717 0.763683 0.267806
H17 H 0.031561 0.688004 0.337085
Pr5_3 Pr 0.000000 1.000000 -0.000000
Na5_2 Na -0.000000 1.000000 0.19382(16)
Pr5_4 Pr 0.000000 1.000000 1.000000
Fe1 Fe 0.89864(4) 0.12260(4) 0.25642(3)
P2 P 0.75657(8) 0.20914(11) 0.22321(5)
O9 O 0.8657(2) 0.2370(3) 0.23677(15)
O13 O 0.8717(2) 0.1294(4) 0.35104(16)
N2 N 0.7294(2) 0.0299(3) 0.26239(16)
O14 O 0.7568(3) 0.0990(4) 0.41799(16)
C7 C 0.7830(3) 0.0921(4) 0.3646(2)
C9 C 0.6888(3) 0.0728(4) 0.2199(2)
H9 H 0.618636 0.047953 0.228342
H10 H 0.693712 0.051582 0.180688
C10 C 0.6984(3) 0.0359(4) 0.3224(2)
H12 H 0.657936 0.067865 0.321211
Fe4 Fe 0.76803(4) 0.21073(4) 0.07691(3)
P4 P 0.21410(7) 0.08990(8) 0.11012(5)
O23 O 0.2954(2) 0.1990(2) 0.09656(15)
O24 O 0.1383(2) 0.0476(3) 0.06077(16)
O26 O 0.6166(2) 0.0985(2) 0.07260(17)
N4 N 0.3662(2) 0.0627(2) 0.07094(16)
C16 C 0.5485(3) 0.1208(3) 0.0710(2)
C18 C 0.4438(3) 0.0377(3) 0.0861(2)
H19 H 0.440419 0.024085 0.127851
C19 C 0.2827(3) 0.0221(3) 0.1134(2)
H22 H 0.308797 0.027045 0.152645
C20 C 0.3292(3) 0.0317(3) 0.0109(2)
Fe5 Fe 0.78927(4) 0.55729(6) 0.07691(3)
P5 P 0.91010(8) 0.12419(11) 0.11012(5)
O29 O 0.9200(2) 0.0876(3) 0.16964(14)
O30 O 0.8010(2) 0.0963(3) 0.09656(15)
O31 O 0.9524(3) 0.0906(4) 0.06077(16)
O33 O 0.9015(2) 0.5180(3) 0.07260(17)
N5 N 0.9373(2) 0.3034(3) 0.07094(16)
C21 C 0.8792(3) 0.4276(4) 0.0710(2)
C23 C 0.9623(3) 0.4060(4) 0.0861(2)
H25 H 0.975915 0.416333 0.127851
C24 C 0.9779(3) 0.2605(4) 0.1134(2)
H28 H 0.972955 0.281751 0.152645
C25 C 0.9683(3) 0.2974(4) 0.0109(2)
Pr5_5 Pr 1.000000 -0.000000 -0.000000
Na5_3 Na 1.000000 0.000000 0.19382(16)
O51 O 0.9037(3) 0.7046(2) 0.09656(15)
N8 N 0.6966(3) 0.6338(2) 0.07094(16)
O27 O 0.4090(3) 0.2050(2) 0.98229(16)
O28 O 0.3245(3) 0.0901(3) 0.91534(16)
C17 C 0.3576(3) 0.1163(3) 0.9687(2)
O34 O 0.7950(2) 0.2039(4) 0.98229(16)
O35 O 0.9099(3) 0.2343(4) 0.91534(16)
C22 C 0.8837(3) 0.2412(4) 0.9687(2)
Pr5_6 Pr 1.000000 -0.000000 1.000000
O66 O 0.7961(4) 0.5910(3) 0.98229(16)
Fe2 Fe 0.87740(4) 0.77604(6) 0.25642(3)
O11 O 0.8733(2) 0.9766(3) 0.27287(16)
O12 O 0.7652(2) 0.8153(3) 0.26073(17)
C6 C 0.7875(3) 0.9057(4) 0.2623(2)
C8 C 0.7044(3) 0.9273(4) 0.2472(2)
H7 H 0.690752 0.917000 0.205482
H8 H 0.643966 0.880283 0.267806
H11 H 0.656443 0.968439 0.337085
P3 P 0.79086(11) 0.54743(7) 0.22321(5)
O16 O 0.7630(3) 0.6287(2) 0.23677(15)
O20 O 0.8706(4) 0.7423(3) 0.35104(16)
N3 N 0.9701(3) 0.6995(2) 0.26239(16)
O21 O 0.9010(4) 0.6578(3) 0.41799(16)
C12 C 0.9079(4) 0.6909(3) 0.3646(2)
C14 C 0.9272(4) 0.6160(3) 0.2199(2)
H15 H 0.952047 0.570683 0.228342
H16 H 0.948418 0.642130 0.180688
C15 C 0.9641(4) 0.6625(3) 0.3224(2)
H18 H 0.932135 0.590071 0.321211
H20 H 0.430350 0.977299 0.065527
H21 H 0.237350 0.951969 0.104991
H24 H 0.256738 0.991269 0.012122
P6 P 0.87581(11) 0.78590(7) 0.11012(5)
O36 O 0.9124(3) 0.8323(2) 0.16964(14)
O38 O 0.9094(4) 0.8617(2) 0.06077(16)
O40 O 0.4820(3) 0.3834(2) 0.07260(17)
C26 C 0.5724(4) 0.4515(3) 0.0710(2)
C28 C 0.5940(4) 0.5562(3) 0.0861(2)
H31 H 0.583667 0.559581 0.127851
H32 H 0.546950 0.569650 0.065527
C29 C 0.7395(4) 0.7173(3) 0.1134(2)
H33 H 0.714620 0.762650 0.104991
H34 H 0.718249 0.691203 0.152645
C30 C 0.7026(4) 0.6708(3) 0.0109(2)
H36 H 0.734532 0.743262 0.012122
Pr5_7 Pr 1.000000 1.000000 -0.000000
Na5_4 Na 1.000000 1.000000 0.19382(16)
H23 H 0.354671 0.989776 0.996248
O42 O 0.7657(4) 0.6755(3) 0.91534(16)
C27 C 0.7588(4) 0.6424(3) 0.9687(2)
H35 H 0.635106 0.645329 0.996248
Pr5_8 Pr 1.000000 1.000000 1.000000
Pr1_2 Pr 0.333334 0.666666 0.666666
P1_2 P 0.11924(7) 0.57676(8) 0.55654(5)
Na1_2 Na 0.333334 0.666666 0.47284(16)
O1_2 O 0.1657(2) 0.5866(2) 0.49702(14)
O2_2 O 0.0380(2) 0.4676(2) 0.57010(15)
O3_2 O 0.1951(2) 0.6190(3) 0.60589(16)
O7_2 O 0.0089(3) 0.5765(3) 0.75132(16)
C4_2 C 0.0507(3) 0.6445(3) 0.5532(2)
H3_2 H 0.095984 0.714697 0.561675
H4_2 H 0.024537 0.639621 0.514021
C5_2 C 0.0042(3) 0.6349(3) 0.6557(2)
H6_2 H 0.076596 0.675397 0.654544
Fe10_2 Fe 0.10937(6) 0.56531(4) 0.41025(3)
O44_2 O 0.4134(2) 0.5790(3) 0.49702(14)
O46_2 O 0.4210(3) 0.8343(2) 0.49702(14)
O52_2 O 0.3810(3) 0.5760(4) 0.60589(16)
O53_2 O 0.4240(4) 0.8049(2) 0.60589(16)
O54_2 O 0.4716(2) 0.7143(3) 0.72744(16)
O55_2 O 0.2857(3) 0.7573(4) 0.72744(16)
O56_2 O 0.2427(4) 0.5284(2) 0.72744(16)
O61_2 O 0.2300(2) 0.5400(2) 0.39380(16)
O62_2 O 0.4600(2) 0.6901(3) 0.39380(16)
O64_2 O 0.3099(3) 0.7700(2) 0.39380(16)
O51_2 O 0.5703(3) 0.0380(2) 0.42990(15)
Fe1_2 Fe 0.56531(4) 0.45593(4) 0.58975(3)
O4_2 O 0.7700(2) 0.4600(2) 0.60620(16)
O5_2 O 0.7168(2) 0.5681(2) 0.59406(17)
O6_2 O 0.9244(3) 0.4616(2) 0.68437(16)
N1_2 N 0.9672(2) 0.6039(2) 0.59572(16)
C1_2 C 0.7849(3) 0.5458(3) 0.5956(2)
C2_2 C 0.9758(3) 0.5503(3) 0.6979(2)
C3_2 C 0.8896(3) 0.6289(3) 0.5805(2)
H1_2 H 0.892915 0.642581 0.538815
H2_2 H 0.902984 0.689367 0.601139
H5_2 H 0.978663 0.676890 0.670418
Fe2_2 Fe 0.54407(4) 0.10937(6) 0.58975(3)
P2_2 P 0.42324(8) 0.54247(11) 0.55654(5)
O9_2 O 0.5324(2) 0.5703(3) 0.57010(15)
O11_2 O 0.5400(2) 0.3099(3) 0.60620(16)
O12_2 O 0.4319(2) 0.1486(3) 0.59406(17)
O13_2 O 0.5384(2) 0.4627(4) 0.68437(16)
N2_2 N 0.3961(2) 0.3632(3) 0.59572(16)
O14_2 O 0.4235(3) 0.4323(4) 0.75132(16)
C6_2 C 0.4542(3) 0.2390(4) 0.5956(2)
C7_2 C 0.4497(3) 0.4254(4) 0.6979(2)
C8_2 C 0.3711(3) 0.2606(4) 0.5805(2)
H7_2 H 0.357419 0.250333 0.538815
H8_2 H 0.310633 0.213616 0.601139
C9_2 C 0.3555(3) 0.4061(4) 0.5532(2)
H9_2 H 0.285303 0.381286 0.561675
H10_2 H 0.360379 0.384915 0.514021
C10_2 C 0.3651(3) 0.3692(4) 0.6557(2)
H11_2 H 0.323110 0.301772 0.670418
H12_2 H 0.324603 0.401198 0.654544
Fe3_2 Fe 0.89063(6) 0.43469(4) 0.58975(3)
O18_2 O 0.6901(3) 0.2300(2) 0.60620(16)
O19_2 O 0.8514(3) 0.2832(2) 0.59406(17)
O20_2 O 0.5373(4) 0.0756(3) 0.68437(16)
N3_2 N 0.6368(3) 0.0328(2) 0.59572(16)
C11_2 C 0.7610(4) 0.2151(3) 0.5956(2)
C12_2 C 0.5746(4) 0.0242(3) 0.6979(2)
C13_2 C 0.7394(4) 0.1104(3) 0.5805(2)
H13_2 H 0.749667 0.107085 0.538815
H14_2 H 0.786384 0.097016 0.601139
H17_2 H 0.698228 0.021337 0.670418
Fe4_2 Fe 0.43469(4) 0.54407(4) 0.41025(3)
O26_2 O 0.2832(2) 0.4319(2) 0.40594(17)
O27_2 O 0.0756(3) 0.5384(2) 0.31563(16)
N4_2 N 0.0328(2) 0.3961(2) 0.40428(16)
C16_2 C 0.2151(3) 0.4542(3) 0.4044(2)
C17_2 C 0.0242(3) 0.4497(3) 0.3021(2)
C18_2 C 0.1104(3) 0.3711(3) 0.4195(2)
H19_2 H 0.107085 0.357419 0.461185
H20_2 H 0.097016 0.310633 0.398861
H23_2 H 0.021337 0.323110 0.329582
Fe5_2 Fe 0.45593(4) 0.89063(6) 0.41025(3)
P5_2 P 0.57676(8) 0.45753(11) 0.44346(5)
O29_2 O 0.5866(2) 0.4210(3) 0.50298(14)
O30_2 O 0.4676(2) 0.4297(3) 0.42990(15)
O33_2 O 0.5681(2) 0.8514(3) 0.40594(17)
O34_2 O 0.4616(2) 0.5373(4) 0.31563(16)
N5_2 N 0.6039(2) 0.6368(3) 0.40428(16)
O35_2 O 0.5765(3) 0.5677(4) 0.24868(16)
C21_2 C 0.5458(3) 0.7610(4) 0.4044(2)
C22_2 C 0.5503(3) 0.5746(4) 0.3021(2)
C23_2 C 0.6289(3) 0.7394(4) 0.4195(2)
H25_2 H 0.642581 0.749667 0.461185
H26_2 H 0.689367 0.786384 0.398861
C24_2 C 0.6445(3) 0.5939(4) 0.4468(2)
H27_2 H 0.714697 0.618714 0.438325
H28_2 H 0.639621 0.615085 0.485979
C25_2 C 0.6349(3) 0.6308(4) 0.3443(2)
H29_2 H 0.676890 0.698228 0.329582
H30_2 H 0.675397 0.598802 0.345456
P6_2 P 0.54247(11) 0.11924(7) 0.44346(5)
O36_2 O 0.5790(3) 0.1657(2) 0.50298(14)
O42_2 O 0.4323(4) 0.0089(3) 0.24868(16)
C29_2 C 0.4061(4) 0.0507(3) 0.4468(2)
H33_2 H 0.381286 0.095984 0.438325
H34_2 H 0.384915 0.024537 0.485979
C30_2 C 0.3692(4) 0.0042(3) 0.3443(2)
H36_2 H 0.401198 0.076596 0.345456
Na5_5 Na 0.666666 0.333334 0.52716(16)
O47_2 O 0.8343(2) 0.4134(2) 0.50298(14)
O66_2 O 0.4627(4) 0.9244(3) 0.31563(16)
N8_2 N 0.3632(3) 0.9672(2) 0.40428(16)
P3_2 P 0.45753(11) 0.88076(7) 0.55654(5)
O16_2 O 0.4297(3) 0.9620(2) 0.57010(15)
O21_2 O 0.5677(4) 0.9911(3) 0.75132(16)
C14_2 C 0.5939(4) 0.9493(3) 0.5532(2)
H15_2 H 0.618714 0.904016 0.561675
H16_2 H 0.615085 0.975463 0.514021
C15_2 C 0.6308(4) 0.9958(3) 0.6557(2)
H18_2 H 0.598802 0.923404 0.654544
O40_2 O 0.1486(3) 0.7168(2) 0.40594(17)
C26_2 C 0.2390(4) 0.7849(3) 0.4044(2)
C27_2 C 0.4254(4) 0.9758(3) 0.3021(2)
C28_2 C 0.2606(4) 0.8896(3) 0.4195(2)
H31_2 H 0.250333 0.892915 0.461185
H32_2 H 0.213616 0.902984 0.398861
H35_2 H 0.301772 0.978663 0.329582
P4_2 P 0.88076(7) 0.42324(8) 0.44346(5)
O23_2 O 0.9620(2) 0.5324(2) 0.42990(15)
O28_2 O 0.9911(3) 0.4235(3) 0.24868(16)
C19_2 C 0.9493(3) 0.3555(3) 0.4468(2)
H21_2 H 0.904016 0.285303 0.438325
H22_2 H 0.975463 0.360379 0.485979
C20_2 C 0.9958(3) 0.3651(3) 0.3443(2)
H24_2 H 0.923404 0.324603 0.345456
Na1_3 Na 0.000000 -0.000000 0.80618(16)
O46_3 O 0.0876(3) 0.1677(2) 0.83036(14)
O53_3 O 0.0906(4) 0.1383(2) 0.93923(16)
O62_3 O 0.1267(2) 0.0234(3) 0.72713(16)
Na1_4 Na 0.000000 1.000000 0.80618(16)
O44_3 O 0.0800(2) 0.9124(3) 0.83036(14)
O52_3 O 0.0476(3) 0.9094(4) 0.93923(16)
H5_3 H 0.645329 0.010224 0.003752
Na1_5 Na 1.000000 -0.000000 0.80618(16)
H2_3 H 0.569650 0.022701 0.934473
H3_3 H 0.762650 0.048031 0.895009
H6_3 H 0.743262 0.008731 0.987878
Fe5_3 Fe 0.12260(4) 0.22396(6) 0.74358(3)
O33_3 O 0.2348(2) 0.1847(3) 0.73927(17)
C21_3 C 0.2125(3) 0.0943(4) 0.7377(2)
C23_3 C 0.2956(3) 0.0727(4) 0.7528(2)
H25_3 H 0.309248 0.083000 0.794518
H26_3 H 0.356034 0.119717 0.732194
H29_3 H 0.343557 0.031561 0.662915
O51_3 O 0.2370(3) 0.3713(2) 0.76323(15)
O64_3 O 0.9766(3) 0.1033(2) 0.72713(16)
O66_3 O 0.1294(4) 0.2577(3) 0.64896(16)
N8_3 N 0.0299(3) 0.3005(2) 0.73761(16)
O6_3 O 0.5910(3) 0.7950(2) 0.01771(16)
O7_3 O 0.6755(3) 0.9099(3) 0.08466(16)
C2_3 C 0.6424(3) 0.8837(3) 0.0313(2)
O13_3 O 0.2050(2) 0.7961(4) 0.01771(16)
O14_3 O 0.0901(3) 0.7657(4) 0.08466(16)
C7_3 C 0.1163(3) 0.7588(4) 0.0313(2)
O20_3 O 0.2039(4) 0.4090(3) 0.01771(16)
O21_3 O 0.2343(4) 0.3245(3) 0.08466(16)
C12_3 C 0.2412(4) 0.3576(3) 0.0313(2)
H17_3 H 0.364894 0.354671 0.003752
Fe1_3 Fe 0.23197(4) 0.78927(4) 0.92309(3)
P1_3 P 0.78590(7) 0.91010(8) 0.88988(5)
Na1_6 Na 1.000000 1.000000 0.80618(16)
O1_3 O 0.8323(2) 0.9200(2) 0.83036(14)
O2_3 O 0.7046(2) 0.8010(2) 0.90344(15)
O3_3 O 0.8617(2) 0.9524(3) 0.93923(16)
O4_3 O 0.4366(2) 0.7934(2) 0.93954(16)
O5_3 O 0.3834(2) 0.9015(2) 0.92740(17)
N1_3 N 0.6338(2) 0.9373(2) 0.92906(16)
C1_3 C 0.4515(3) 0.8792(3) 0.9290(2)
C3_3 C 0.5562(3) 0.9623(3) 0.9139(2)
H1_3 H 0.559581 0.975915 0.872149
C4_3 C 0.7173(3) 0.9779(3) 0.8866(2)
H4_3 H 0.691203 0.972955 0.847355
C5_3 C 0.6708(3) 0.9683(3) 0.9891(2)
Fe2_3 Fe 0.21073(4) 0.44271(6) 0.92309(3)
P2_3 P 0.08990(8) 0.87581(11) 0.88988(5)
O9_3 O 0.1990(2) 0.9037(3) 0.90344(15)
O11_3 O 0.2066(2) 0.6433(3) 0.93954(16)
O12_3 O 0.0985(2) 0.4820(3) 0.92740(17)
N2_3 N 0.0627(2) 0.6966(3) 0.92906(16)
C6_3 C 0.1208(3) 0.5724(4) 0.9290(2)
C8_3 C 0.0377(3) 0.5940(4) 0.9139(2)
H7_3 H 0.024085 0.583667 0.872149
C9_3 C 0.0221(3) 0.7395(4) 0.8866(2)
H10_3 H 0.027045 0.718249 0.847355
C10_3 C 0.0317(3) 0.7026(4) 0.9891(2)
Fe3_3 Fe 0.55729(6) 0.76803(4) 0.92309(3)
P3_3 P 0.12419(11) 0.21410(7) 0.88988(5)
O16_3 O 0.0963(3) 0.2954(2) 0.90344(15)
O18_3 O 0.3567(3) 0.5634(2) 0.93954(16)
O19_3 O 0.5180(3) 0.6166(2) 0.92740(17)
N3_3 N 0.3034(3) 0.3662(2) 0.92906(16)
C11_3 C 0.4276(4) 0.5485(3) 0.9290(2)
C13_3 C 0.4060(4) 0.4438(3) 0.9139(2)
H13_3 H 0.416333 0.440419 0.872149
H14_3 H 0.453050 0.430350 0.934473
C14_3 C 0.2605(4) 0.2827(3) 0.8866(2)
H15_3 H 0.285380 0.237350 0.895009
H16_3 H 0.281751 0.308797 0.847355
C15_3 C 0.2974(4) 0.3292(3) 0.9891(2)
H18_3 H 0.265468 0.256738 0.987878
Fe4_3 Fe 0.10136(4) 0.87740(4) 0.74358(3)
P5_3 P 0.24343(8) 0.79086(11) 0.77679(5)
O29_3 O 0.2533(2) 0.7543(3) 0.83631(14)
O30_3 O 0.1343(2) 0.7630(3) 0.76323(15)
O34_3 O 0.1283(2) 0.8706(4) 0.64896(16)
N5_3 N 0.2706(2) 0.9701(3) 0.73761(16)
O35_3 O 0.2432(3) 0.9010(4) 0.58201(16)
C22_3 C 0.2170(3) 0.9079(4) 0.6354(2)
C24_3 C 0.3112(3) 0.9272(4) 0.7801(2)
H27_3 H 0.381364 0.952047 0.771658
H28_3 H 0.306288 0.948418 0.819312
C25_3 C 0.3016(3) 0.9641(4) 0.6776(2)
H30_3 H 0.342064 0.932135 0.678789
P6_3 P 0.20914(11) 0.45257(7) 0.77679(5)
O36_3 O 0.2457(3) 0.4990(2) 0.83631(14)
O42_3 O 0.0990(4) 0.3422(3) 0.58201(16)
C27_3 C 0.0921(4) 0.3091(3) 0.6354(2)
C29_3 C 0.0728(4) 0.3840(3) 0.7801(2)
H33_3 H 0.047953 0.429317 0.771658
H34_3 H 0.051582 0.357870 0.819312
C30_3 C 0.0359(4) 0.3375(3) 0.6776(2)
H36_3 H 0.067865 0.409929 0.678789
Fe10_3 Fe 0.77604(6) 0.89864(4) 0.74358(3)
Na5_6 Na 0.333333 0.666667 0.86049(16)
O47_3 O 0.5010(2) 0.7467(2) 0.83631(14)
O61_3 O 0.8967(2) 0.8733(2) 0.72713(16)
H11_3 H 0.989776 0.635106 0.003752
H8_3 H 0.977299 0.546950 0.934473
H9_3 H 0.951969 0.714620 0.895009
H12_3 H 0.991269 0.734532 0.987878
P4_3 P 0.54743(7) 0.75657(8) 0.77679(5)
O23_3 O 0.6287(2) 0.8657(2) 0.76323(15)
O26_3 O 0.9499(2) 0.7652(2) 0.73927(17)
O27_3 O 0.7423(3) 0.8717(2) 0.64896(16)
N4_3 N 0.6995(2) 0.7294(2) 0.73761(16)
O28_3 O 0.6578(3) 0.7568(3) 0.58201(16)
C16_3 C 0.8818(3) 0.7875(3) 0.7377(2)
C17_3 C 0.6909(3) 0.7830(3) 0.6354(2)
C18_3 C 0.7771(3) 0.7044(3) 0.7528(2)
H19_3 H 0.773752 0.690752 0.794518
H20_3 H 0.763683 0.643966 0.732194
C19_3 C 0.6160(3) 0.6888(3) 0.7801(2)
H21_3 H 0.570683 0.618636 0.771658
H22_3 H 0.642130 0.693712 0.819312
C20_3 C 0.6625(3) 0.6984(3) 0.6776(2)
H23_3 H 0.688004 0.656443 0.662915
H24_3 H 0.590071 0.657936 0.678789
O40_3 O 0.8153(3) 0.0501(2) 0.73927(17)
C26_3 C 0.9057(4) 0.1182(3) 0.7377(2)
C28_3 C 0.9273(4) 0.2229(3) 0.7528(2)
H31_3 H 0.917000 0.226248 0.794518
H32_3 H 0.880283 0.236317 0.732194
H35_3 H 0.968439 0.311996 0.662915
loop_
_geom_bond_atom_site_label_1
_geom_bond_atom_site_label_2
_geom_bond_site_symmetry_1
_geom_bond_site_symmetry_2
Pr1 O3 1_555 1_555
P1 O1 1_555 1_555
Na1 O1 1_555 1_555
O1 Fe10 1_555 1_555
O2 P1 1_555 1_555
O3 P1 1_555 1_555
O4 C1 1_555 1_555
O5 C1 1_555 1_555
O6 C2 1_555 1_555
N1 C3 1_555 1_555
O7 C2 1_555 1_555
C1 C3 1_555 1_555
C2 C5 1_555 1_555
C3 H1 1_555 1_555
H2 C3 1_555 1_555
C4 P1 1_555 1_555
H3 C4 1_555 1_555
H4 C4 1_555 1_555
C5 N1 1_555 1_555
H5 C5 1_555 1_555
H6 C5 1_555 1_555
Fe3 O2 1_555 1_555
Fe10 O61 1_555 1_555
Na5 O4 1_555 1_555
O44 Na1 1_555 1_555
O46 Na1 1_555 1_555
O47 Fe3 1_555 1_555
O52 Pr1 1_555 1_555
O53 Pr1 1_555 1_555
O54 Pr1 1_555 1_555
O55 Pr1 1_555 1_555
O56 Pr1 1_555 1_555
O61 Na1 1_555 1_555
O62 Na1 1_555 1_555
O64 Na1 1_555 1_555
O4 Fe3 1_555 1_555
O6 Fe3 1_555 1_555
N1 C4 1_555 1_555
N1 Fe3 1_555 1_555
Na5 O47 1_555 1_555
C11 O18 1_555 1_555
H13 C13 1_555 1_555
H14 C13 1_555 1_555
O18 Na5_2 1_555 1_555
O19 C11 1_555 1_555
C11 C13 1_555 1_555
P2 O44 1_555 1_555
O44 Fe4 1_555 1_555
O9 Fe1 1_555 1_555
O52 P2 1_555 1_555
O13 Fe1 1_555 1_555
N2 Fe1 1_555 1_555
O14 C7 1_555 1_555
C7 O13 1_555 1_555
C9 P2 1_555 1_555
H9 C9 1_555 1_555
H10 C9 1_555 1_555
C10 N2 1_555 1_555
H12 C10 1_555 1_555
Fe4 O26 1_555 1_555
P4 O47 1_555 1_555
O23 P4 1_555 1_555
O24 P4 1_555 1_555
O61 C16 1_555 1_555
O26 C16 1_555 1_555
N4 C18 1_555 1_555
C16 C18 1_555 1_555
C18 H19 1_555 1_555
C19 P4 1_555 1_555
H22 C19 1_555 1_555
C20 N4 1_555 1_555
Fe5 O33 1_555 1_555
P5 O29 1_555 1_555
O29 Fe1 1_555 1_555
O30 Fe4 1_555 1_555
O31 P5 1_555 1_555
O62 Fe4 1_555 1_555
O33 C21 1_555 1_555
N5 Fe4 1_555 1_555
C21 O62 1_555 1_555
C23 N5 1_555 1_555
H25 C23 1_555 1_555
C24 P5 1_555 1_555
H28 C24 1_555 1_555
C25 N5 1_555 1_555
Pr5 O24 1_555 1_555
Pr5_5 O31 1_555 1_555
Fe10 O23 1_555 1_555
O46 Fe5 1_555 1_555
O51 Fe5 1_555 1_555
O64 Fe5 1_555 1_555
N8 Fe5 1_555 1_555
P2 O9 1_555 1_555
N2 C9 1_555 1_555
C7 C10 1_555 1_555
N4 C19 1_555 1_555
N4 Fe10 1_555 1_555
P5 O30 1_555 1_555
O29 Na5_3 1_555 1_555
N5 C24 1_555 1_555
C21 C23 1_555 1_555
O27 C17 1_555 1_555
O28 C17 1_555 1_555
O35 C22 1_555 1_555
C22 O34 1_555 1_555
Fe2 O12 1_555 1_555
O12 C6 1_555 1_555
C6 O11 1_555 1_555
H7 C8 1_555 1_555
H8 C8 1_555 1_555
P3 O46 1_555 1_555
O16 Fe2 1_555 1_555
O53 P3 1_555 1_555
O20 Fe2 1_555 1_555
N3 Fe2 1_555 1_555
O21 C12 1_555 1_555
C12 O20 1_555 1_555
C14 P3 1_555 1_555
H15 C14 1_555 1_555
H16 C14 1_555 1_555
C15 N3 1_555 1_555
H18 C15 1_555 1_555
Fe10 O40 1_555 1_555
P6 O36 1_555 1_555
O36 Fe2 1_555 1_555
O51 P6 1_555 1_555
O38 P6 1_555 1_555
O64 C26 1_555 1_555
O40 C26 1_555 1_555
N8 C28 1_555 1_555
C26 C28 1_555 1_555
C28 H31 1_555 1_555
H32 C28 1_555 1_555
C29 P6 1_555 1_555
H33 C29 1_555 1_555
H34 C29 1_555 1_555
C30 N8 1_555 1_555
H36 C30 1_555 1_555
O11 Na5_4 1_555 1_555
C6 C8 1_555 1_555
P3 O16 1_555 1_555
N3 C14 1_555 1_555
C12 C15 1_555 1_555
O36 Na5_4 1_555 1_555
O38 Pr5_7 1_555 1_555
N8 C29 1_555 1_555
O66 C27 1_555 1_555
O42 C27 1_555 1_555
Pr1_2 O3_2 1_555 1_555
P1_2 O1_2 1_555 1_555
Na1_2 O1_2 1_555 1_555
O1_2 Fe10_2 1_555 1_555
O2_2 P1_2 1_555 1_555
O3_2 P1_2 1_555 1_555
C4_2 P1_2 1_555 1_555
H3_2 C4_2 1_555 1_555
H4_2 C4_2 1_555 1_555
H6_2 C5_2 1_555 1_555
Fe10_2 O61_2 1_555 1_555
O44_2 Na1_2 1_555 1_555
O46_2 Na1_2 1_555 1_555
O52_2 Pr1_2 1_555 1_555
O53_2 Pr1_2 1_555 1_555
O54_2 Pr1_2 1_555 1_555
O55_2 Pr1_2 1_555 1_555
O56_2 Pr1_2 1_555 1_555
O61_2 Na1_2 1_555 1_555
O62_2 Na1_2 1_555 1_555
O64_2 Na1_2 1_555 1_555
Fe1_2 O5_2 1_555 1_555
O4_2 C1_2 1_555 1_555
O5_2 C1_2 1_555 1_555
O6_2 C2_2 1_555 1_555
N1_2 C3_2 1_555 1_555
C1_2 C3_2 1_555 1_555
C3_2 H1_2 1_555 1_555
H2_2 C3_2 1_555 1_555
Fe2_2 O12_2 1_555 1_555
P2_2 O44_2 1_555 1_555
O44_2 Fe4_2 1_555 1_555
O9_2 Fe1_2 1_555 1_555
O52_2 P2_2 1_555 1_555
O11_2 Fe1_2 1_555 1_555
O12_2 C6_2 1_555 1_555
O13_2 Fe1_2 1_555 1_555
N2_2 Fe1_2 1_555 1_555
O14_2 C7_2 1_555 1_555
C6_2 O11_2 1_555 1_555
C7_2 O13_2 1_555 1_555
C8_2 N2_2 1_555 1_555
H7_2 C8_2 1_555 1_555
H8_2 C8_2 1_555 1_555
C9_2 P2_2 1_555 1_555
H9_2 C9_2 1_555 1_555
H10_2 C9_2 1_555 1_555
C10_2 N2_2 1_555 1_555
H11_2 C10_2 1_555 1_555
H12_2 C10_2 1_555 1_555
O18_2 Fe2_2 1_555 1_555
O19_2 Fe3_2 1_555 1_555
O20_2 Fe2_2 1_555 1_555
N3_2 Fe2_2 1_555 1_555
C11_2 O18_2 1_555 1_555
C12_2 O20_2 1_555 1_555
C13_2 N3_2 1_555 1_555
H13_2 C13_2 1_555 1_555
H14_2 C13_2 1_555 1_555
Fe4_2 O26_2 1_555 1_555
O61_2 C16_2 1_555 1_555
O26_2 C16_2 1_555 1_555
O27_2 C17_2 1_555 1_555
N4_2 C18_2 1_555 1_555
C16_2 C18_2 1_555 1_555
C18_2 H19_2 1_555 1_555
H20_2 C18_2 1_555 1_555
Fe5_2 O33_2 1_555 1_555
P5_2 O29_2 1_555 1_555
O29_2 Fe1_2 1_555 1_555
O30_2 Fe4_2 1_555 1_555
O55 P5_2 1_555 1_555
O62_2 Fe4_2 1_555 1_555
O33_2 C21_2 1_555 1_555
O34_2 Fe4_2 1_555 1_555
N5_2 Fe4_2 1_555 1_555
O35_2 C22_2 1_555 1_555
C21_2 O62_2 1_555 1_555
C22_2 O34_2 1_555 1_555
C23_2 N5_2 1_555 1_555
H25_2 C23_2 1_555 1_555
H26_2 C23_2 1_555 1_555
C24_2 P5_2 1_555 1_555
H27_2 C24_2 1_555 1_555
H28_2 C24_2 1_555 1_555
C25_2 N5_2 1_555 1_555
H29_2 C25_2 1_555 1_555
H30_2 C25_2 1_555 1_555
P6_2 O36_2 1_555 1_555
O36_2 Fe2_2 1_555 1_555
O51_2 P6_2 1_555 1_555
O56 P6_2 1_555 1_555
C29_2 P6_2 1_555 1_555
H33_2 C29_2 1_555 1_555
H34_2 C29_2 1_555 1_555
H36_2 C30_2 1_555 1_555
Na5_5 O4_2 1_555 1_555
O46_2 Fe5_2 1_555 1_555
O47_2 Fe3_2 1_555 1_555
O64_2 Fe5_2 1_555 1_555
O66_2 Fe5_2 1_555 1_555
N8_2 Fe5_2 1_555 1_555
O4_2 Fe3_2 1_555 1_555
O6_2 Fe3_2 1_555 1_555
N1_2 Fe3_2 1_555 1_555
P2_2 O9_2 1_555 1_555
O11_2 Na5_5 1_555 1_555
N2_2 C9_2 1_555 1_555
C6_2 C8_2 1_555 1_555
C7_2 C10_2 1_555 1_555
O18_2 Na5_5 1_555 1_555
O19_2 C11_2 1_555 1_555
C11_2 C13_2 1_555 1_555
O27_2 Fe10_2 1_555 1_555
N4_2 Fe10_2 1_555 1_555
P5_2 O30_2 1_555 1_555
O29_2 Na5_5 1_555 1_555
N5_2 C24_2 1_555 1_555
C21_2 C23_2 1_555 1_555
C22_2 C25_2 1_555 1_555
O36_2 Na5_5 1_555 1_555
Na5_5 O47_2 1_555 1_555
P3_2 O46_2 1_555 1_555
O53_2 P3_2 1_555 1_555
C14_2 P3_2 1_555 1_555
H15_2 C14_2 1_555 1_555
H16_2 C14_2 1_555 1_555
H18_2 C15_2 1_555 1_555
Fe10_2 O40_2 1_555 1_555
O64_2 C26_2 1_555 1_555
O40_2 C26_2 1_555 1_555
O66_2 C27_2 1_555 1_555
N8_2 C28_2 1_555 1_555
C26_2 C28_2 1_555 1_555
C28_2 H31_2 1_555 1_555
H32_2 C28_2 1_555 1_555
P3_2 O16_2 1_555 1_555
P4_2 O47_2 1_555 1_555
O23_2 P4_2 1_555 1_555
O54 P4_2 1_555 1_555
C19_2 P4_2 1_555 1_555
H21_2 C19_2 1_555 1_555
H22_2 C19_2 1_555 1_555
H24_2 C20_2 1_555 1_555
O46_3 Na1_3 1_555 1_555
O53_3 Pr5_2 1_555 1_555
O62_3 Na1_3 1_555 1_555
O44_3 Na1_4 1_555 1_555
O52_3 Pr5_4 1_555 1_555
Fe5_3 O33_3 1_555 1_555
O33_3 C21_3 1_555 1_555
C21_3 O62_3 1_555 1_555
H25_3 C23_3 1_555 1_555
H26_3 C23_3 1_555 1_555
O46_3 Fe5_3 1_555 1_555
O51_3 Fe5_3 1_555 1_555
O64_3 Na1_5 1_555 1_555
O66_3 Fe5_3 1_555 1_555
N8_3 Fe5_3 1_555 1_555
C21_3 C23_3 1_555 1_555
O6_3 C2_3 1_555 1_555
O7_3 C2_3 1_555 1_555
O14_3 C7_3 1_555 1_555
C7_3 O13_3 1_555 1_555
O21_3 C12_3 1_555 1_555
C12_3 O20_3 1_555 1_555
Pr5_8 O3_3 1_555 1_555
Fe1_3 O5_3 1_555 1_555
P1_3 O1_3 1_555 1_555
Na1_6 O1_3 1_555 1_555
O1_3 Fe10_3 1_555 1_555
O2_3 P1_3 1_555 1_555
O3_3 P1_3 1_555 1_555
O4_3 C1_3 1_555 1_555
O5_3 C1_3 1_555 1_555
N1_3 C3_3 1_555 1_555
C1_3 C3_3 1_555 1_555
C3_3 H1_3 1_555 1_555
C4_3 P1_3 1_555 1_555
H4_3 C4_3 1_555 1_555
C5_3 N1_3 1_555 1_555
Fe2_3 O12_3 1_555 1_555
P2_3 O44_3 1_555 1_555
O44_3 Fe4_3 1_555 1_555
O9_3 Fe1_3 1_555 1_555
O52_3 P2_3 1_555 1_555
O11_3 Fe1_3 1_555 1_555
O12_3 C6_3 1_555 1_555
N2_3 Fe1_3 1_555 1_555
C6_3 O11_3 1_555 1_555
C8_3 N2_3 1_555 1_555
H7_3 C8_3 1_555 1_555
C9_3 P2_3 1_555 1_555
H10_3 C9_3 1_555 1_555
C10_3 N2_3 1_555 1_555
Fe3_3 O2_3 1_555 1_555
P3_3 O46_3 1_555 1_555
O16_3 Fe2_3 1_555 1_555
O53_3 P3_3 1_555 1_555
O18_3 Fe2_3 1_555 1_555
O19_3 Fe3_3 1_555 1_555
N3_3 Fe2_3 1_555 1_555
C11_3 O18_3 1_555 1_555
C13_3 N3_3 1_555 1_555
H13_3 C13_3 1_555 1_555
H14_3 C13_3 1_555 1_555
C14_3 P3_3 1_555 1_555
H15_3 C14_3 1_555 1_555
H16_3 C14_3 1_555 1_555
C15_3 N3_3 1_555 1_555
H18_3 C15_3 1_555 1_555
P5_3 O29_3 1_555 1_555
O29_3 Fe1_3 1_555 1_555
O30_3 Fe4_3 1_555 1_555
O55_2 P5_3 1_555 1_555
O34_3 Fe4_3 1_555 1_555
N5_3 Fe4_3 1_555 1_555
O35_3 C22_3 1_555 1_555
C22_3 O34_3 1_555 1_555
C24_3 P5_3 1_555 1_555
H27_3 C24_3 1_555 1_555
H28_3 C24_3 1_555 1_555
C25_3 N5_3 1_555 1_555
H30_3 C25_3 1_555 1_555
P6_3 O36_3 1_555 1_555
O36_3 Fe2_3 1_555 1_555
O51_3 P6_3 1_555 1_555
O56_2 P6_3 1_555 1_555
O66_3 C27_3 1_555 1_555
O42_3 C27_3 1_555 1_555
C27_3 C30_3 1_555 1_555
C29_3 P6_3 1_555 1_555
H33_3 C29_3 1_555 1_555
H34_3 C29_3 1_555 1_555
C30_3 N8_3 1_555 1_555
H36_3 C30_3 1_555 1_555
Fe10_3 O61_3 1_555 1_555
Na5_6 O4_3 1_555 1_555
O47_3 Fe3_3 1_555 1_555
O61_3 Na1_6 1_555 1_555
O4_3 Fe3_3 1_555 1_555
N1_3 C4_3 1_555 1_555
N1_3 Fe3_3 1_555 1_555
P2_3 O9_3 1_555 1_555
O11_3 Na5_6 1_555 1_555
N2_3 C9_3 1_555 1_555
C6_3 C8_3 1_555 1_555
P3_3 O16_3 1_555 1_555
O18_3 Na5_6 1_555 1_555
O19_3 C11_3 1_555 1_555
N3_3 C14_3 1_555 1_555
C11_3 C13_3 1_555 1_555
P5_3 O30_3 1_555 1_555
O29_3 Na5_6 1_555 1_555
N5_3 C24_3 1_555 1_555
C22_3 C25_3 1_555 1_555
O36_3 Na5_6 1_555 1_555
N8_3 C29_3 1_555 1_555
Na5_6 O47_3 1_555 1_555
P4_3 O47_3 1_555 1_555
O23_3 P4_3 1_555 1_555
O54_2 P4_3 1_555 1_555
O61_3 C16_3 1_555 1_555
O26_3 C16_3 1_555 1_555
O27_3 C17_3 1_555 1_555
N4_3 C18_3 1_555 1_555
O28_3 C17_3 1_555 1_555
C16_3 C18_3 1_555 1_555
C17_3 C20_3 1_555 1_555
C18_3 H19_3 1_555 1_555
H20_3 C18_3 1_555 1_555
C19_3 P4_3 1_555 1_555
H21_3 C19_3 1_555 1_555
H22_3 C19_3 1_555 1_555
C20_3 N4_3 1_555 1_555
H23_3 C20_3 1_555 1_555
H24_3 C20_3 1_555 1_555
O64_3 C26_3 1_555 1_555
O40_3 C26_3 1_555 1_555
C26_3 C28_3 1_555 1_555
C28_3 H31_3 1_555 1_555
H32_3 C28_3 1_555 1_555
Fe10_3 O23_3 1_555 1_555
O27_3 Fe10_3 1_555 1_555
N4_3 C19_3 1_555 1_555
N4_3 Fe10_3 1_555 1_555

#END
