
###############################################################################
#
# This file contains modified crystal structure data generated from the
# MOF subset of the Cambridge Structural Database (CSD) v543 
# hosted by the Cambridge Crystallographic Data Centre (CCDC).
#
# This work is licensed under the Creative Commons
# Attribution-NonCommercial-ShareAlike 4.0 International License.
# To view a copy of this license, visit
# http://creativecommons.org/licenses/by-nc-sa/4.0/
# or send a letter to
# Creative Commons, PO Box 1866, Mountain View, CA 94042, USA.
#
# CIF created using the CSD Python API on 29 September 2022
# The structure has been converted into the P1 space group
# The structure has a 3D framework
# The original CSD entry GAWCUF is in the monoclinic crystal system
# The framework has been calculated to contain at least 10.0% void space
# The void calculation uses a probe of radius 1.32A, grid spacing 0.4
#
###############################################################################

data_GAWCUF
_chemical_formula_moiety         '(C108 H96 Co8 N16 O26)n'
_symmetry_cell_setting           triclinic
_symmetry_space_group_name_H-M   'P 1'
_symmetry_Int_Tables_number      1
_space_group_name_Hall           'P 1'
loop_
_symmetry_equiv_pos_site_id
_symmetry_equiv_pos_as_xyz
1 x,y,z
_cell_length_a                   18.3638(12)
_cell_length_b                   10.9135(4)
_cell_length_c                   18.8942(11)
_cell_angle_alpha                90
_cell_angle_beta                 108.374(5)
_cell_angle_gamma                90
_cell_volume                     3593.6
loop_
_atom_site_label
_atom_site_type_symbol
_atom_site_fract_x
_atom_site_fract_y
_atom_site_fract_z
Co1 Co 0.18635(2) 0.29472(4) 0.47069(2)
Co2 Co 0.28547(2) 0.29775(4) 0.37667(2)
O1 O 0.11172(13) 0.3015(2) 0.36397(11)
O2 O 0.18544(12) 0.3057(2) 0.28995(11)
O3 O 0.25962(14) 0.1177(2) 0.38731(13)
O4 O 0.18782(16) 0.1106(2) 0.46227(14)
N1 N 0.10528(15) 0.3257(2) 0.52198(14)
N2 N 0.04164(16) 0.4047(3) 0.59159(14)
C1 C 0.12169(18) 0.2968(3) 0.30130(16)
C2 C 0.22508(19) 0.0614(3) 0.42456(18)
C10 C 0.05139(17) 0.2793(3) 0.23478(16)
C11 C 0.05623(17) 0.2914(3) 0.16288(16)
H5 H 0.1036 0.3107 0.1563
C17 C 0.11166(18) 0.3878(3) 0.58426(16)
C19 C 0.02817(18) 0.3038(3) 0.48918(17)
H10 H 0.0065 0.2614 0.4441
C20 C 0.0244(2) 0.4678(3) 0.65302(19)
H12 H 0.0651 0.5275 0.6753
C21 C 0.0177(2) 0.3800(3) 0.71364(19)
H13 H 0.0658 0.3343 0.7336
H14 H 0.0093 0.4270 0.7545
C27 C 0.1838(2) 0.4343(4) 0.6375(2)
H22 H 0.1948 0.3901 0.6842
H23 H 0.1785 0.5210 0.6462
H24 H 0.2255 0.4224 0.6170
O9 O 0.28131(13) 0.4815(2) 0.39262(12)
O10 O 0.20443(14) 0.4791(2) 0.46415(13)
O11 O 0.28904(13) 0.2851(3) 0.55285(12)
O12 O 0.36467(13) 0.2821(2) 0.48065(11)
N5 N 0.36057(14) 0.3127(2) 0.31585(13)
C3 C 0.23038(19) 0.9250(3) 0.42573(18)
C4 C 0.2092(2) 0.8585(3) 0.47964(18)
H1 H 0.1905 0.8996 0.5141
C5 C 0.25712(19) 0.8631(3) 0.37473(18)
H2 H 0.2714 0.9075 0.3386
C6 C 0.24353(19) 0.5328(3) 0.42987(17)
C7 C 0.24215(19) 0.6699(3) 0.43074(17)
C8 C 0.21584(19) 0.7321(3) 0.48200(17)
H3 H 0.2024 0.6879 0.5187
C9 C 0.26292(19) 0.7361(3) 0.37662(18)
H4 H 0.2807 0.6948 0.3416
O7 O 0.78904(13) 0.2149(3) 0.05285(12)
N3 N 0.92651(16) 0.2262(3) 0.73942(15)
N4 N 0.86057(14) 0.1873(2) 0.81585(13)
C12 C 0.99172(18) 0.2753(3) 0.10106(17)
H6 H 0.9956 0.2839 0.0529
C13 C 0.92127(18) 0.2464(3) 0.11001(17)
C14 C 0.85334(18) 0.2250(3) 0.04217(17)
C15 C 0.91633(18) 0.2356(3) 0.18126(17)
H7 H 0.8689 0.2166 0.1878
C16 C 0.98067(19) 0.2525(3) 0.24322(17)
H8 H 0.9763 0.2458 0.2913
C18 C 0.9885(2) 0.3521(4) 0.53113(19)
H9 H 0.9351 0.3504 0.5211
H11 H 0.9762 0.5130 0.6331
C22 C 0.9519(2) 0.2906(4) 0.68308(18)
H15 H 0.9081 0.3355 0.6500
H16 H 0.9675 0.2294 0.6527
C23 C 0.88330(18) 0.2741(3) 0.77845(16)
C24 C 0.8906(2) 0.0783(3) 0.79902(18)
H17 H 0.8836 0.0007 0.8175
C25 C 0.9312(2) 0.1006(3) 0.7523(2)
H18 H 0.9575 0.0429 0.7325
C26 C 0.8638(2) 0.4064(3) 0.7783(2)
H19 H 0.8560 0.4402 0.7289
H20 H 0.9055 0.4496 0.8142
H21 H 0.8173 0.4158 0.7916
Co7 Co 0.78547(2) 0.20225(4) 0.87667(2)
O8 O 0.86467(13) 0.2179(2) 0.98065(11)
Co4 Co 0.68635(2) 0.20528(4) 0.97069(2)
O5 O 0.78131(13) 0.0185(2) 0.89262(12)
O6 O 0.70443(14) 0.0209(2) 0.96415(13)
N1_2 N 0.60528(15) 0.1743(2) 0.02198(14)
N2_2 N 0.54164(16) 0.0953(3) 0.09159(14)
N3_2 N 0.42651(16) 0.2738(3) 0.23942(15)
H1_2 H 0.6905 0.6004 0.0141
H3_2 H 0.7024 0.8121 0.0187
C17_2 C 0.61166(18) 0.1122(3) 0.08426(16)
C18_2 C 0.4885(2) 0.1479(4) 0.03113(19)
H9_2 H 0.4351 0.1496 0.0211
C20_2 C 0.5244(2) 0.0322(3) 0.15302(19)
C21_2 C 0.5177(2) 0.1200(3) 0.21364(19)
H13_2 H 0.5658 0.1657 0.2336
H14_2 H 0.5093 0.0730 0.2545
C22_2 C 0.4519(2) 0.2094(4) 0.18308(18)
H15_2 H 0.4081 0.1645 0.1500
H16_2 H 0.4675 0.2706 0.1527
C23_2 C 0.38330(18) 0.2259(3) 0.27845(16)
C24_2 C 0.3906(2) 0.4217(3) 0.29902(18)
H17_2 H 0.3836 0.4993 0.3175
C25_2 C 0.4312(2) 0.3994(3) 0.2523(2)
H18_2 H 0.4575 0.4571 0.2325
C26_2 C 0.3638(2) 0.0936(3) 0.2783(2)
H19_2 H 0.3560 0.0598 0.2289
H20_2 H 0.4055 0.0504 0.3142
H21_2 H 0.3173 0.0842 0.2916
C27_2 C 0.6838(2) 0.0657(4) 0.1375(2)
H22_2 H 0.6948 0.1099 0.1842
H24_2 H 0.7255 0.0776 0.1170
O1_2 O 0.61172(13) 0.1985(2) 0.86397(11)
O2_2 O 0.68544(12) 0.1943(2) 0.78995(11)
O3_2 O 0.75962(14) 0.3823(2) 0.88731(13)
O4_2 O 0.68782(16) 0.3894(2) 0.96227(14)
C1_2 C 0.62169(18) 0.2032(3) 0.80130(16)
C2_2 C 0.72508(19) 0.4386(3) 0.92456(18)
C3_2 C 0.73038(19) 0.5750(3) 0.92573(18)
C4_2 C 0.7092(2) 0.6415(3) 0.97964(18)
C5_2 C 0.75712(19) 0.6369(3) 0.87473(18)
H2_2 H 0.7714 0.5925 0.8386
C6_2 C 0.74353(19) 0.9672(3) 0.92987(17)
C7_2 C 0.74215(19) 0.8301(3) 0.93074(17)
C8_2 C 0.71584(19) 0.7679(3) 0.98200(17)
C9_2 C 0.76292(19) 0.7639(3) 0.87662(18)
H4_2 H 0.7807 0.8052 0.8416
C10_2 C 0.55139(17) 0.2207(3) 0.73478(16)
C11_2 C 0.55623(17) 0.2086(3) 0.66288(16)
H5_2 H 0.6036 0.1893 0.6563
C12_2 C 0.49172(18) 0.2247(3) 0.60106(17)
H6_2 H 0.4956 0.2161 0.5529
C13_2 C 0.42127(18) 0.2536(3) 0.61001(17)
C14_2 C 0.35334(18) 0.2750(3) 0.54217(17)
C15_2 C 0.41633(18) 0.2644(3) 0.68126(17)
H7_2 H 0.3689 0.2834 0.6878
C16_2 C 0.48067(19) 0.2475(3) 0.74322(17)
H8_2 H 0.4763 0.2542 0.7913
C19_2 C 0.52817(18) 0.1962(3) 0.98918(17)
H10_2 H 0.5065 0.2386 0.9441
H11_2 H 0.5238 0.0130 0.8669
H12_2 H 0.4349 0.0275 0.8247
H23_2 H 0.3215 0.0210 0.8538
Co1_2 Co 0.31365(2) 0.79472(4) 0.02931(2)
Co2_2 Co 0.21453(2) 0.79775(4) 0.12333(2)
O1_3 O 0.38828(13) 0.8015(2) 0.13603(11)
O2_3 O 0.31456(12) 0.8057(2) 0.21005(11)
O3_3 O 0.24038(14) 0.6177(2) 0.11269(13)
O4_3 O 0.31218(16) 0.6106(2) 0.03773(14)
O7_2 O 0.71096(13) 0.7149(3) 0.44715(12)
O8_2 O 0.63533(13) 0.7179(2) 0.51935(11)
C1_3 C 0.37831(18) 0.7968(3) 0.19870(16)
C2_3 C 0.27492(19) 0.5614(3) 0.07544(18)
C3_3 C 0.26962(19) 0.4250(3) 0.07427(18)
C4_3 C 0.2908(2) 0.3585(3) 0.02036(18)
C5_3 C 0.24288(19) 0.3631(3) 0.12527(18)
H2_3 H 0.2286 0.4075 0.1614
C6_3 C 0.25647(19) 0.0328(3) 0.07013(17)
C7_3 C 0.25785(19) 0.1699(3) 0.06926(17)
C8_3 C 0.28416(19) 0.2321(3) 0.01800(17)
C9_3 C 0.23708(19) 0.2361(3) 0.12338(18)
H4_3 H 0.2193 0.1948 0.1584
C10_3 C 0.44861(17) 0.7793(3) 0.26522(16)
C11_3 C 0.44377(17) 0.7914(3) 0.33712(16)
H5_3 H 0.3964 0.8107 0.3437
C12_3 C 0.50828(18) 0.7753(3) 0.39894(17)
H6_3 H 0.5044 0.7839 0.4471
C13_3 C 0.57873(18) 0.7464(3) 0.38999(17)
C14_3 C 0.64666(18) 0.7250(3) 0.45783(17)
C15_3 C 0.58367(18) 0.7356(3) 0.31874(17)
H7_3 H 0.6311 0.7166 0.3122
C16_3 C 0.51933(19) 0.7525(3) 0.25678(17)
H8_3 H 0.5237 0.7458 0.2087
C19_3 C 0.47183(18) 0.8038(3) 0.01082(17)
H10_3 H 0.4935 0.7614 0.0559
Co4_2 Co 0.81365(2) 0.70528(4) 0.52931(2)
Co6 Co 0.71453(2) 0.70225(4) 0.62333(2)
O9_2 O 0.21869(13) 0.9815(2) 0.10738(12)
O10_2 O 0.29557(14) 0.9791(2) 0.03585(13)
O12_2 O 0.13533(13) 0.7821(2) 0.01935(11)
N5_2 N 0.13943(14) 0.8127(2) 0.18415(13)
N1_3 N 0.39472(15) 0.8257(2) 0.97802(14)
N2_3 N 0.45836(16) 0.9047(3) 0.90841(14)
N3_3 N 0.57349(16) 0.7262(3) 0.76058(15)
N4_2 N 0.63943(14) 0.6873(2) 0.68415(13)
H1_3 H 0.3095 0.3996 0.9859
H3_3 H 0.2976 0.1879 0.9813
C17_3 C 0.38834(18) 0.8878(3) 0.91574(16)
C18_3 C 0.5115(2) 0.8521(4) 0.96887(19)
H9_3 H 0.5649 0.8504 0.9789
C20_3 C 0.4756(2) 0.9678(3) 0.84698(19)
C21_3 C 0.4823(2) 0.8800(3) 0.78636(19)
H13_3 H 0.4342 0.8343 0.7664
H14_3 H 0.4907 0.9270 0.7455
C22_3 C 0.5481(2) 0.7906(4) 0.81692(18)
H15_3 H 0.5919 0.8355 0.8500
H16_3 H 0.5325 0.7294 0.8473
C23_3 C 0.61670(18) 0.7741(3) 0.72155(16)
C24_3 C 0.6094(2) 0.5783(3) 0.70098(18)
H17_3 H 0.6164 0.5007 0.6825
C25_3 C 0.5688(2) 0.6006(3) 0.7477(2)
H18_3 H 0.5425 0.5429 0.7675
C26_3 C 0.6362(2) 0.9064(3) 0.7217(2)
H19_3 H 0.6440 0.9402 0.7711
H20_3 H 0.5945 0.9496 0.6858
H21_3 H 0.6827 0.9158 0.7084
C27_3 C 0.3162(2) 0.9343(4) 0.8625(2)
H22_3 H 0.3052 0.8901 0.8158
H24_3 H 0.2745 0.9224 0.8830
O11_2 O 0.21096(13) 0.7851(3) 0.94715(12)
N3_4 N 0.07349(16) 0.7738(3) 0.26058(15)
C12_4 C 0.00828(18) 0.7247(3) 0.89894(17)
H6_4 H 0.0044 0.7161 0.9471
C13_4 C 0.07873(18) 0.7536(3) 0.88999(17)
C14_4 C 0.14666(18) 0.7750(3) 0.95783(17)
C15_4 C 0.08367(18) 0.7644(3) 0.81874(17)
H7_4 H 0.1311 0.7834 0.8122
C16_4 C 0.01933(19) 0.7475(3) 0.75678(17)
H8_4 H 0.0237 0.7542 0.7087
C18_4 C 0.0115(2) 0.6479(4) 0.46887(19)
H9_4 H 0.0649 0.6496 0.4789
H11_3 H 0.0238 0.4870 0.3669
C22_4 C 0.0481(2) 0.7094(4) 0.31692(18)
H15_4 H 0.0919 0.6645 0.3500
H16_4 H 0.0325 0.7706 0.3473
C23_4 C 0.11670(18) 0.7259(3) 0.22155(16)
C24_4 C 0.1094(2) 0.9217(3) 0.20098(18)
H17_4 H 0.1164 0.9993 0.1825
C25_4 C 0.0688(2) 0.8994(3) 0.2477(2)
H18_4 H 0.0425 0.9571 0.2675
C26_4 C 0.1362(2) 0.5936(3) 0.2217(2)
H19_4 H 0.1440 0.5598 0.2711
H20_4 H 0.0945 0.5504 0.1858
H21_4 H 0.1827 0.5842 0.2084
O5_2 O 0.71869(13) 0.5185(2) 0.60738(12)
O6_2 O 0.79557(14) 0.5209(2) 0.53585(13)
C3_4 C 0.76962(19) 0.0750(3) 0.57427(18)
C4_4 C 0.7908(2) 0.1415(3) 0.52036(18)
H1_4 H 0.8095 0.1004 0.4859
C5_4 C 0.74288(19) 0.1369(3) 0.62527(18)
H2_4 H 0.7286 0.0925 0.6614
C6_4 C 0.75647(19) 0.4672(3) 0.57013(17)
C7_4 C 0.75785(19) 0.3301(3) 0.56926(17)
C8_4 C 0.78416(19) 0.2679(3) 0.51800(17)
H3_4 H 0.7976 0.3121 0.4813
C9_4 C 0.73708(19) 0.2639(3) 0.62338(18)
H4_4 H 0.7193 0.3052 0.6584
O1_4 O 0.88828(13) 0.6985(2) 0.63603(11)
O2_4 O 0.81456(12) 0.6943(2) 0.71005(11)
O3_4 O 0.74038(14) 0.8823(2) 0.61269(13)
O4_4 O 0.81218(16) 0.8894(2) 0.53773(14)
N1_4 N 0.89472(15) 0.6743(2) 0.47802(14)
N2_4 N 0.95836(16) 0.5953(3) 0.40841(14)
C1_4 C 0.87831(18) 0.7032(3) 0.69870(16)
C2_4 C 0.77492(19) 0.9386(3) 0.57544(18)
C10_4 C 0.94861(17) 0.7207(3) 0.76522(16)
C11_4 C 0.94377(17) 0.7086(3) 0.83712(16)
H5_4 H 0.8964 0.6893 0.8437
C17_4 C 0.88834(18) 0.6122(3) 0.41574(16)
C19_4 C 0.97183(18) 0.6962(3) 0.51082(17)
H10_4 H 0.9935 0.7386 0.5559
C20_4 C 0.9756(2) 0.5322(3) 0.34698(19)
H12_3 H 0.9349 0.4725 0.3247
C21_4 C 0.9823(2) 0.6200(3) 0.28636(19)
H13_4 H 0.9342 0.6657 0.2664
H14_4 H 0.9907 0.5730 0.2455
C27_4 C 0.8162(2) 0.5657(4) 0.3625(2)
H22_4 H 0.8052 0.6099 0.3158
H23_3 H 0.8215 0.4790 0.3538
H24_4 H 0.7745 0.5776 0.3830
H11_4 H 0.4762 0.9870 0.1331
H12_4 H 0.5651 0.9725 0.1753
H23_4 H 0.6785 0.9790 0.1462
loop_
_geom_bond_atom_site_label_1
_geom_bond_atom_site_label_2
_geom_bond_site_symmetry_1
_geom_bond_site_symmetry_2
Co1 Co2 1_555 1_555
Co2 O2 1_555 1_555
O1 Co1 1_555 1_555
O2 C1 1_555 1_555
O3 Co2 1_555 1_555
O4 Co1 1_555 1_555
N1 Co1 1_555 1_555
N2 C17 1_555 1_555
C1 O1 1_555 1_555
C2 O3 1_555 1_555
C10 C1 1_555 1_555
C11 C10 1_555 1_555
H5 C11 1_555 1_555
C17 N1 1_555 1_555
C19 N1 1_555 1_555
H10 C19 1_555 1_555
C20 N2 1_555 1_555
H12 C20 1_555 1_555
C21 C20 1_555 1_555
H13 C21 1_555 1_555
H14 C21 1_555 1_555
C27 C17 1_555 1_555
H22 C27 1_555 1_555
H23 C27 1_555 1_555
H24 C27 1_555 1_555
O9 Co2 1_555 1_555
O10 Co1 1_555 1_555
O11 Co1 1_555 1_555
O12 Co2 1_555 1_555
N5 Co2 1_555 1_555
O4 C2 1_555 1_555
O9 C6 1_555 1_555
O10 C6 1_555 1_555
C4 C3 1_555 1_555
H1 C4 1_555 1_555
C5 C3 1_555 1_555
H2 C5 1_555 1_555
C6 C7 1_555 1_555
C7 C8 1_555 1_555
C8 C4 1_555 1_555
H3 C8 1_555 1_555
C9 C5 1_555 1_555
H4 C9 1_555 1_555
C7 C9 1_555 1_555
O7 C14 1_555 1_555
N3 C22 1_555 1_555
N4 C23 1_555 1_555
H6 C12 1_555 1_555
C13 C12 1_555 1_555
C14 C13 1_555 1_555
C15 C13 1_555 1_555
H7 C15 1_555 1_555
H8 C16 1_555 1_555
H9 C18 1_555 1_555
H15 C22 1_555 1_555
H16 C22 1_555 1_555
C23 N3 1_555 1_555
C24 N4 1_555 1_555
H17 C24 1_555 1_555
C25 N3 1_555 1_555
H18 C25 1_555 1_555
C26 C23 1_555 1_555
H19 C26 1_555 1_555
H20 C26 1_555 1_555
H21 C26 1_555 1_555
Co7 N4 1_555 1_555
C15 C16 1_555 1_555
C24 C25 1_555 1_555
Co7 O8 1_555 1_555
Co4 Co7 1_555 1_555
Co4 O6 1_555 1_555
Co7 O5 1_555 1_555
N2_2 C17_2 1_555 1_555
N3_2 C22_2 1_555 1_555
N5 C23_2 1_555 1_555
C17_2 N1_2 1_555 1_555
C18_2 N2_2 1_555 1_555
H9_2 C18_2 1_555 1_555
C20_2 N2_2 1_555 1_555
C21_2 C20_2 1_555 1_555
H13_2 C21_2 1_555 1_555
H14_2 C21_2 1_555 1_555
C22_2 C21_2 1_555 1_555
H15_2 C22_2 1_555 1_555
H16_2 C22_2 1_555 1_555
C23_2 N3_2 1_555 1_555
C24_2 N5 1_555 1_555
H17_2 C24_2 1_555 1_555
C25_2 N3_2 1_555 1_555
H18_2 C25_2 1_555 1_555
C26_2 C23_2 1_555 1_555
H19_2 C26_2 1_555 1_555
H20_2 C26_2 1_555 1_555
H21_2 C26_2 1_555 1_555
C27_2 C17_2 1_555 1_555
H22_2 C27_2 1_555 1_555
H24_2 C27_2 1_555 1_555
C24_2 C25_2 1_555 1_555
Co7 O2_2 1_555 1_555
O1_2 Co4 1_555 1_555
O2_2 C1_2 1_555 1_555
O3_2 Co7 1_555 1_555
O4_2 Co4 1_555 1_555
O11 C14_2 1_555 1_555
O12 C14_2 1_555 1_555
C1_2 O1_2 1_555 1_555
C2_2 O3_2 1_555 1_555
C3_2 C2_2 1_555 1_555
C4_2 C3_2 1_555 1_555
C5_2 C3_2 1_555 1_555
H2_2 C5_2 1_555 1_555
C6_2 C7_2 1_555 1_555
C7_2 C8_2 1_555 1_555
C8_2 C4_2 1_555 1_555
C9_2 C5_2 1_555 1_555
H4_2 C9_2 1_555 1_555
C10_2 C1_2 1_555 1_555
C11_2 C10_2 1_555 1_555
H5_2 C11_2 1_555 1_555
C12_2 C11_2 1_555 1_555
H6_2 C12_2 1_555 1_555
C13_2 C12_2 1_555 1_555
C14_2 C13_2 1_555 1_555
C15_2 C13_2 1_555 1_555
H7_2 C15_2 1_555 1_555
C16_2 C10_2 1_555 1_555
H8_2 C16_2 1_555 1_555
H10_2 C19_2 1_555 1_555
O4_2 C2_2 1_555 1_555
C7_2 C9_2 1_555 1_555
C15_2 C16_2 1_555 1_555
Co1_2 Co2_2 1_555 1_555
Co2_2 O2_3 1_555 1_555
O1_3 Co1_2 1_555 1_555
O2_3 C1_3 1_555 1_555
O3_3 Co2_2 1_555 1_555
O4_3 Co1_2 1_555 1_555
O7_2 C14_3 1_555 1_555
O8_2 C14_3 1_555 1_555
C1_3 O1_3 1_555 1_555
C2_3 O3_3 1_555 1_555
C3_3 C2_3 1_555 1_555
C4_3 C3_3 1_555 1_555
C5_3 C3_3 1_555 1_555
H2_3 C5_3 1_555 1_555
C6_3 C7_3 1_555 1_555
C7_3 C8_3 1_555 1_555
C8_3 C4_3 1_555 1_555
C9_3 C5_3 1_555 1_555
H4_3 C9_3 1_555 1_555
C10_3 C1_3 1_555 1_555
C11_3 C10_3 1_555 1_555
H5_3 C11_3 1_555 1_555
C12_3 C11_3 1_555 1_555
H6_3 C12_3 1_555 1_555
C13_3 C12_3 1_555 1_555
C14_3 C13_3 1_555 1_555
C15_3 C13_3 1_555 1_555
H7_3 C15_3 1_555 1_555
C16_3 C10_3 1_555 1_555
H8_3 C16_3 1_555 1_555
H10_3 C19_3 1_555 1_555
Co4_2 O7_2 1_555 1_555
Co6 O8_2 1_555 1_555
O9_2 Co2_2 1_555 1_555
O10_2 Co1_2 1_555 1_555
O12_2 Co2_2 1_555 1_555
N5_2 Co2_2 1_555 1_555
O4_3 C2_3 1_555 1_555
C7_3 C9_3 1_555 1_555
C15_3 C16_3 1_555 1_555
Co4_2 Co6 1_555 1_555
N2_3 C17_3 1_555 1_555
N3_3 C22_3 1_555 1_555
N4_2 C23_3 1_555 1_555
C17_3 N1_3 1_555 1_555
C18_3 N2_3 1_555 1_555
H9_3 C18_3 1_555 1_555
C20_3 N2_3 1_555 1_555
C21_3 C20_3 1_555 1_555
H13_3 C21_3 1_555 1_555
H14_3 C21_3 1_555 1_555
C22_3 C21_3 1_555 1_555
H15_3 C22_3 1_555 1_555
H16_3 C22_3 1_555 1_555
C23_3 N3_3 1_555 1_555
C24_3 N4_2 1_555 1_555
H17_3 C24_3 1_555 1_555
C25_3 N3_3 1_555 1_555
H18_3 C25_3 1_555 1_555
C26_3 C23_3 1_555 1_555
H19_3 C26_3 1_555 1_555
H20_3 C26_3 1_555 1_555
H21_3 C26_3 1_555 1_555
C27_3 C17_3 1_555 1_555
H22_3 C27_3 1_555 1_555
H24_3 C27_3 1_555 1_555
Co6 N4_2 1_555 1_555
C24_3 C25_3 1_555 1_555
O11_2 C14_4 1_555 1_555
N3_4 C22_4 1_555 1_555
N5_2 C23_4 1_555 1_555
H6_4 C12_4 1_555 1_555
C13_4 C12_4 1_555 1_555
C14_4 C13_4 1_555 1_555
C15_4 C13_4 1_555 1_555
H7_4 C15_4 1_555 1_555
H8_4 C16_4 1_555 1_555
H9_4 C18_4 1_555 1_555
H15_4 C22_4 1_555 1_555
H16_4 C22_4 1_555 1_555
C23_4 N3_4 1_555 1_555
C24_4 N5_2 1_555 1_555
H17_4 C24_4 1_555 1_555
C25_4 N3_4 1_555 1_555
H18_4 C25_4 1_555 1_555
C26_4 C23_4 1_555 1_555
H19_4 C26_4 1_555 1_555
H20_4 C26_4 1_555 1_555
H21_4 C26_4 1_555 1_555
C15_4 C16_4 1_555 1_555
C24_4 C25_4 1_555 1_555
O5_2 C6_4 1_555 1_555
O6_2 C6_4 1_555 1_555
C4_4 C3_4 1_555 1_555
H1_4 C4_4 1_555 1_555
C5_4 C3_4 1_555 1_555
H2_4 C5_4 1_555 1_555
C6_4 C7_4 1_555 1_555
C7_4 C8_4 1_555 1_555
C8_4 C4_4 1_555 1_555
H3_4 C8_4 1_555 1_555
C9_4 C5_4 1_555 1_555
H4_4 C9_4 1_555 1_555
Co4_2 O6_2 1_555 1_555
Co6 O5_2 1_555 1_555
C7_4 C9_4 1_555 1_555
Co6 O2_4 1_555 1_555
O1_4 Co4_2 1_555 1_555
O2_4 C1_4 1_555 1_555
O3_4 Co6 1_555 1_555
O4_4 Co4_2 1_555 1_555
N1_4 Co4_2 1_555 1_555
N2_4 C17_4 1_555 1_555
C1_4 O1_4 1_555 1_555
C2_4 O3_4 1_555 1_555
C10_4 C1_4 1_555 1_555
C11_4 C10_4 1_555 1_555
H5_4 C11_4 1_555 1_555
C17_4 N1_4 1_555 1_555
C19_4 N1_4 1_555 1_555
H10_4 C19_4 1_555 1_555
C20_4 N2_4 1_555 1_555
H12_3 C20_4 1_555 1_555
C21_4 C20_4 1_555 1_555
H13_4 C21_4 1_555 1_555
H14_4 C21_4 1_555 1_555
C27_4 C17_4 1_555 1_555
H22_4 C27_4 1_555 1_555
H23_3 C27_4 1_555 1_555
H24_4 C27_4 1_555 1_555
O4_4 C2_4 1_555 1_555

#END
