
###############################################################################
#
# This file contains modified crystal structure data generated from the
# MOF subset of the Cambridge Structural Database (CSD) v543 
# hosted by the Cambridge Crystallographic Data Centre (CCDC).
#
# This work is licensed under the Creative Commons
# Attribution-NonCommercial-ShareAlike 4.0 International License.
# To view a copy of this license, visit
# http://creativecommons.org/licenses/by-nc-sa/4.0/
# or send a letter to
# Creative Commons, PO Box 1866, Mountain View, CA 94042, USA.
#
# CIF created using the CSD Python API on 29 September 2022
# The structure has been converted into the P1 space group
# The structure has a 3D framework
# The original CSD entry GAWHOD is in the monoclinic crystal system
# The framework has been calculated to contain at least 10.0% void space
# The void calculation uses a probe of radius 1.32A, grid spacing 0.4
#
###############################################################################

data_GAWHOD
_chemical_formula_moiety         '(C96 H99 Cd44 Cl12 N142 O2)n'
_symmetry_cell_setting           triclinic
_symmetry_space_group_name_H-M   'P 1'
_symmetry_Int_Tables_number      1
_space_group_name_Hall           'P 1'
loop_
_symmetry_equiv_pos_site_id
_symmetry_equiv_pos_as_xyz
1 x,y,z
_cell_length_a                   20.593(4)
_cell_length_b                   16.513(2)
_cell_length_c                   17.963(3)
_cell_angle_alpha                90
_cell_angle_beta                 117.938(3)
_cell_angle_gamma                90
_cell_volume                     5396.46
loop_
_atom_site_label
_atom_site_type_symbol
_atom_site_fract_x
_atom_site_fract_y
_atom_site_fract_z
Cd14 Cd 0.07858(4) 0.39377(4) 0.86952(5)
Cd1 Cd 0.20245(4) 0.40181(4) 0.13714(5)
Cd3 Cd 0.5000 0.5000 0.5000
Cd4 Cd 0.39636(4) 0.69541(4) 0.41470(5)
Cd5 Cd 0.2500 0.2500 0.5000
C1 C 0.1389(6) 0.5039(7) 0.2498(8)
H1 H 0.1808 0.4871 0.2977
C2 C 0.0626(7) 0.5242(9) 0.1257(8)
H2 H 0.0393 0.5251 0.0671
C3 C 0.4302(7) 0.2658(8) 0.5503(8)
H3 H 0.4378 0.2107 0.5622
C4 C 0.3816(6) 0.3802(7) 0.5187(8)
H4 H 0.3471 0.4218 0.5027
C5 C 0.2994(6) 0.5512(7) 0.2687(8)
H5 H 0.2624 0.5879 0.2369
C6 C 0.3635(7) 0.4473(8) 0.3066(8)
H6 H 0.3810 0.3951 0.3082
C7 C 0.2619(6) 0.1605(7) 0.0944(8)
H7 H 0.2490 0.1061 0.0850
C8 C 0.3207(6) 0.2691(6) 0.1171(7)
H8 H 0.3578 0.3065 0.1276
C9 C 0.2366(7) 0.5611(7) 0.0569(8)
H9 H 0.2763 0.5719 0.1092
C11 C 0.1497(7) 0.2288(7) 0.2872(8)
H11 H 0.1188 0.1896 0.2906
C12 C 0.2330(6) 0.3130(7) 0.3184(7)
H12 H 0.2740 0.3454 0.3489
N2 N 0.2026(5) 0.4911(5) 0.0376(6)
N4 N 0.1975(5) 0.3153(5) 0.2375(6)
N5 N 0.1420(5) 0.2585(5) 0.2154(6)
N6 N 0.2077(5) 0.2616(5) 0.3559(6)
N7 N 0.3576(5) 0.5704(6) 0.3420(7)
N8 N 0.4001(5) 0.5032(5) 0.3656(7)
N9 N 0.2997(5) 0.4739(6) 0.2453(6)
N10 N 0.4830(5) 0.3160(5) 0.5528(6)
N11 N 0.4492(5) 0.3908(5) 0.5334(6)
N12 N 0.3665(5) 0.3022(5) 0.5293(6)
N13 N 0.2551(5) 0.2887(5) 0.1100(6)
N14 N 0.2171(5) 0.2162(6) 0.0962(6)
N15 N 0.3273(5) 0.1878(6) 0.1072(6)
N16 N 0.1278(5) 0.4900(6) 0.1718(6)
N17 N 0.0338(5) 0.5567(6) 0.1708(6)
N18 N 0.0838(5) 0.5443(6) 0.2527(6)
Cl1 Cl 0.07021(15) 0.34311(15) 0.01118(17)
Cl2 Cl 0.42988(19) 0.60333(19) 0.5518(2)
Cd6 Cd 0.79755(4) 0.59819(4) 0.86286(5)
Cd7 Cd 0.29755(4) 0.90181(4) 0.36286(5)
Cd8 Cd 0.20245(4) 0.59819(4) 0.63714(5)
Cd9 Cd 0.07858(4) 0.60623(4) 0.36952(5)
Cd10 Cd 0.42142(4) 0.10623(4) 0.13048(5)
Cd13 Cd 0.42142(4) 0.89377(4) 0.63048(5)
Cd15 Cd 0.92142(4) 0.39377(4) 0.63048(5)
Cd16 Cd 0.60364(4) 0.30459(4) 0.58530(5)
Cd17 Cd 0.10364(4) 0.19541(4) 0.08530(5)
Cd18 Cd 0.2500 0.7500 0.0000
Cd19 Cd 0.7500 0.7500 0.5000
C13 C 0.8611(6) 0.4961(7) 0.7502(8)
H14 H 0.8192 0.5129 0.7023
C14 C 0.9374(7) 0.4758(9) 0.8743(8)
H15 H 0.9607 0.4749 0.9329
C15 C 0.5698(7) 0.7342(8) 0.4497(8)
H16 H 0.5622 0.7893 0.4378
C16 C 0.6184(6) 0.6198(7) 0.4813(8)
H17 H 0.6529 0.5782 0.4973
C17 C 0.7006(6) 0.4488(7) 0.7313(8)
H18 H 0.7376 0.4121 0.7631
C18 C 0.6365(7) 0.5527(8) 0.6934(8)
H19 H 0.6190 0.6049 0.6918
C19 C 0.2381(6) 0.6605(7) 0.4056(8)
H20 H 0.2510 0.6061 0.4150
C20 C 0.1793(6) 0.7691(6) 0.3829(7)
H21 H 0.1422 0.8065 0.3724
C21 C 0.2366(7) 0.4389(7) 0.5569(8)
H22 H 0.2763 0.4281 0.6092
C22 C 0.1546(6) 0.4262(7) 0.4328(7)
H23 H 0.1248 0.4047 0.3797
C23 C 0.3503(7) 0.7288(7) 0.2128(8)
H24 H 0.3812 0.6896 0.2094
C24 C 0.2670(6) 0.8130(7) 0.1816(7)
H25 H 0.2260 0.8454 0.1511
N19 N 0.1470(5) 0.4999(5) 0.4543(6)
N20 N 0.2026(5) 0.5089(5) 0.5376(6)
N21 N 0.7974(5) 0.5089(5) 0.9624(6)
N22 N 0.2092(5) 0.3846(5) 0.4946(6)
N23 N 0.2908(5) 0.1154(5) 0.5054(6)
N24 N 0.3025(5) 0.8153(5) 0.2625(6)
N25 N 0.8025(5) 0.6847(5) 0.7625(6)
N26 N 0.3580(5) 0.7585(5) 0.2846(6)
N27 N 0.6420(5) 0.2415(5) 0.7154(6)
N28 N 0.2923(5) 0.7616(5) 0.1441(6)
N29 N 0.2923(5) 0.2384(5) 0.6441(6)
N30 N 0.6424(5) 0.4296(6) 0.6580(7)
N31 N 0.5999(5) 0.4968(5) 0.6344(7)
N32 N 0.7003(5) 0.5261(6) 0.7547(6)
N33 N 0.5170(5) 0.6840(5) 0.4472(6)
N34 N 0.5508(5) 0.6092(5) 0.4666(6)
N35 N 0.6335(5) 0.6978(5) 0.4707(6)
N36 N 0.1335(5) 0.1978(5) 0.4707(6)
N37 N 0.2449(5) 0.7887(5) 0.3900(6)
N38 N 0.7449(5) 0.7113(5) 0.8900(6)
N39 N 0.2829(5) 0.7162(6) 0.4038(6)
N40 N 0.7171(5) 0.2838(6) 0.5962(6)
N41 N 0.1727(5) 0.6878(6) 0.3928(6)
N43 N 0.8722(5) 0.5100(6) 0.8282(6)
N44 N 0.9662(5) 0.4433(6) 0.8292(6)
N47 N 0.9162(5) 0.4557(6) 0.7473(6)
O2 O 0.0000 0.7015(8) 0.2500
H27 H 0.0265 0.7314 0.2366
Cl3 Cl 0.42979(15) 0.84311(15) 0.48882(17)
Cl4 Cl 0.92979(15) 0.65689(15) 0.98882(17)
Cl5 Cl 0.57021(15) 0.15689(15) 0.51118(17)
Cl6 Cl 0.07021(15) 0.65689(15) 0.51118(17)
Cl7 Cl 0.57012(19) 0.39667(19) 0.4482(2)
C10 C 0.1546(6) 0.5738(7) 0.9328(7)
H10 H 0.1248 0.5953 0.8797
N1 N 0.1470(5) 0.5001(5) 0.9543(6)
N3 N 0.2092(5) 0.6154(5) 0.9946(6)
O1 O 0.0000 0.2985(8) 0.7500
H13 H 0.0265 0.2686 0.7366
Cd18_2 Cd 0.2500 0.7500 1.0000
N42 N 0.1727(5) 0.3122(6) 0.8928(6)
N48 N 0.0838(5) 0.4557(6) 0.7527(6)
Cd11 Cd 0.92142(4) 0.60623(4) 0.13048(5)
N46 N 0.9662(5) 0.5567(6) 0.3292(6)
O2_2 O 1.0000 0.7015(8) 0.2500
H28 H 0.9735 0.7314 0.2634
O1_2 O 1.0000 0.2985(8) 0.7500
H26 H 0.9735 0.2686 0.7634
N45 N 0.0338(5) 0.4433(6) 0.6708(6)
Cd1_2 Cd 0.79755(4) 0.40181(4) 0.36286(5)
Cd3_2 Cd 0.5000 0.5000 0.0000
Cd4_2 Cd 0.60364(4) 0.69541(4) 0.08530(5)
Cd5_2 Cd 0.7500 0.2500 0.0000
C1_2 C 0.8611(6) 0.5039(7) 0.2502(8)
H1_2 H 0.8192 0.4871 0.2023
C2_2 C 0.9374(7) 0.5242(9) 0.3743(8)
H2_2 H 0.9607 0.5251 0.4329
C5_2 C 0.7006(6) 0.5512(7) 0.2313(8)
H5_2 H 0.7376 0.5879 0.2631
C6_2 C 0.6365(7) 0.4473(8) 0.1934(8)
H6_2 H 0.6190 0.3951 0.1918
C7_2 C 0.7381(6) 0.1605(7) 0.4056(8)
H7_2 H 0.7510 0.1061 0.4150
C8_2 C 0.6793(6) 0.2691(6) 0.3829(7)
H8_2 H 0.6422 0.3065 0.3724
C9_2 C 0.7634(7) 0.5611(7) 0.4431(8)
H9_2 H 0.7237 0.5719 0.3908
C10_2 C 0.8454(6) 0.5738(7) 0.5672(7)
H10_2 H 0.8752 0.5953 0.6203
C11_2 C 0.8503(7) 0.2288(7) 0.2128(8)
H11_2 H 0.8812 0.1896 0.2094
C12_2 C 0.7670(6) 0.3130(7) 0.1816(7)
H12_2 H 0.7260 0.3454 0.1511
N1_2 N 0.8530(5) 0.5001(5) 0.5457(6)
N2_2 N 0.7974(5) 0.4911(5) 0.4624(6)
N3_2 N 0.7908(5) 0.6154(5) 0.5054(6)
N4_2 N 0.8025(5) 0.3153(5) 0.2625(6)
N5_2 N 0.8580(5) 0.2585(5) 0.2846(6)
N6_2 N 0.7923(5) 0.2616(5) 0.1441(6)
N7_2 N 0.6424(5) 0.5704(6) 0.1580(7)
N8_2 N 0.5999(5) 0.5032(5) 0.1344(7)
N9_2 N 0.7003(5) 0.4739(6) 0.2547(6)
N13_2 N 0.7449(5) 0.2887(5) 0.3900(6)
N14_2 N 0.7829(5) 0.2162(6) 0.4038(6)
N15_2 N 0.6727(5) 0.1878(6) 0.3928(6)
N16_2 N 0.8722(5) 0.4900(6) 0.3282(6)
N18_2 N 0.9162(5) 0.5443(6) 0.2473(6)
Cl1_2 Cl 0.92979(15) 0.34311(15) 0.48882(17)
Cd7_2 Cd 0.70245(4) 0.90181(4) 0.13714(5)
Cd10_2 Cd 0.57858(4) 0.10623(4) 0.36952(5)
Cd17_2 Cd 0.89636(4) 0.19541(4) 0.41470(5)
C15_2 C 0.4302(7) 0.7342(8) 0.0503(8)
H16_2 H 0.4378 0.7893 0.0622
C16_2 C 0.3816(6) 0.6198(7) 0.0187(8)
H17_2 H 0.3471 0.5782 0.0027
C19_2 C 0.7619(6) 0.6605(7) 0.0944(8)
H20_2 H 0.7490 0.6061 0.0850
C20_2 C 0.8207(6) 0.7691(6) 0.1171(7)
H21_2 H 0.8578 0.8065 0.1276
C22_2 C 0.8454(6) 0.4262(7) 0.0672(7)
H23_2 H 0.8752 0.4047 0.1203
C23_2 C 0.6497(7) 0.7288(7) 0.2872(8)
H24_2 H 0.6188 0.6896 0.2906
C24_2 C 0.7330(6) 0.8130(7) 0.3184(7)
H25_2 H 0.7740 0.8454 0.3489
N19_2 N 0.8530(5) 0.4999(5) 0.0457(6)
N22_2 N 0.7908(5) 0.3846(5) 0.0054(6)
N24_2 N 0.6975(5) 0.8153(5) 0.2375(6)
N26_2 N 0.6420(5) 0.7585(5) 0.2154(6)
N28_2 N 0.7077(5) 0.7616(5) 0.3559(6)
N33_2 N 0.4830(5) 0.6840(5) 0.0528(6)
N34_2 N 0.4492(5) 0.6092(5) 0.0334(6)
N35_2 N 0.3665(5) 0.6978(5) 0.0293(6)
N36_2 N 0.8665(5) 0.1978(5) 0.0293(6)
N37_2 N 0.7551(5) 0.7887(5) 0.1100(6)
N39_2 N 0.7171(5) 0.7162(6) 0.0962(6)
N41_2 N 0.8273(5) 0.6878(6) 0.1072(6)
N42_2 N 0.8273(5) 0.3122(6) 0.6072(6)
Cl3_2 Cl 0.57021(15) 0.84311(15) 0.01118(17)
Cl7_2 Cl 0.42988(19) 0.39667(19) 0.0518(2)
Cd3_3 Cd 0.5000 0.5000 1.0000
Cd5_3 Cd 0.7500 0.2500 1.0000
C3_2 C 0.5698(7) 0.2658(8) 0.9497(8)
H3_2 H 0.5622 0.2107 0.9378
C4_2 C 0.6184(6) 0.3802(7) 0.9813(8)
H4_2 H 0.6529 0.4218 0.9973
N10_2 N 0.5170(5) 0.3160(5) 0.9472(6)
N11_2 N 0.5508(5) 0.3908(5) 0.9666(6)
N12_2 N 0.6335(5) 0.3022(5) 0.9707(6)
Cl2_2 Cl 0.57012(19) 0.60333(19) 0.9482(2)
Cd13_2 Cd 0.57858(4) 0.89377(4) 0.86952(5)
Cd16_2 Cd 0.39636(4) 0.30459(4) 0.91470(5)
C13_2 C 0.1389(6) 0.4961(7) 0.7498(8)
H14_2 H 0.1808 0.5129 0.7977
C14_2 C 0.0626(7) 0.4758(9) 0.6257(8)
H15_2 H 0.0393 0.4749 0.5671
C17_2 C 0.2994(6) 0.4488(7) 0.7687(8)
H18_2 H 0.2624 0.4121 0.7369
C18_2 C 0.3635(7) 0.5527(8) 0.8066(8)
H19_2 H 0.3810 0.6049 0.8082
C21_2 C 0.7634(7) 0.4389(7) 0.9431(8)
H22_2 H 0.7237 0.4281 0.8908
N23_2 N 0.7092(5) 0.1154(5) 0.9946(6)
N25_2 N 0.1975(5) 0.6847(5) 0.7375(6)
N27_2 N 0.3580(5) 0.2415(5) 0.7846(6)
N29_2 N 0.7077(5) 0.2384(5) 0.8559(6)
N30_2 N 0.3576(5) 0.4296(6) 0.8420(7)
N31_2 N 0.4001(5) 0.4968(5) 0.8656(7)
N32_2 N 0.2997(5) 0.5261(6) 0.7453(6)
N38_2 N 0.2551(5) 0.7113(5) 0.6100(6)
N40_2 N 0.2829(5) 0.2838(6) 0.9038(6)
N43_2 N 0.1278(5) 0.5100(6) 0.6718(6)
Cl5_2 Cl 0.42979(15) 0.15689(15) 0.98882(17)
Cd3_4 Cd -0.0000 -0.0000 0.5000
Cd6_2 Cd 0.29755(4) 0.09819(4) 0.86286(5)
H14_3 H 0.3192 0.0129 0.7023
C15_3 C 0.0698(7) 0.2342(8) 0.4497(8)
H16_3 H 0.0622 0.2893 0.4378
C16_3 C 0.1184(6) 0.1198(7) 0.4813(8)
H17_3 H 0.1529 0.0782 0.4973
C18_3 C 0.1365(7) 0.0527(8) 0.6934(8)
H19_3 H 0.1190 0.1049 0.6918
N21_2 N 0.2974(5) 0.0089(5) 0.9624(6)
N25_3 N 0.3025(5) 0.1847(5) 0.7625(6)
N32_3 N 0.2003(5) 0.0261(6) 0.7547(6)
N33_3 N 0.0170(5) 0.1840(5) 0.4472(6)
N34_3 N 0.0508(5) 0.1092(5) 0.4666(6)
N38_3 N 0.2449(5) 0.2113(5) 0.8900(6)
N43_3 N 0.3722(5) 0.0100(6) 0.8282(6)
Cd3_5 Cd -0.0000 1.0000 0.5000
Cd16_3 Cd 0.10364(4) 0.80459(4) 0.58530(5)
C13_3 C 0.3611(6) 0.9961(7) 0.7502(8)
C14_3 C 0.4374(7) 0.9758(9) 0.8743(8)
H15_3 H 0.4607 0.9749 0.9329
C17_3 C 0.2006(6) 0.9488(7) 0.7313(8)
H18_3 H 0.2376 0.9121 0.7631
N27_3 N 0.1420(5) 0.7415(5) 0.7154(6)
N30_3 N 0.1424(5) 0.9296(6) 0.6580(7)
N31_3 N 0.0999(5) 0.9968(5) 0.6344(7)
N40_3 N 0.2171(5) 0.7838(6) 0.5962(6)
N44_2 N 0.4662(5) 0.9433(6) 0.8292(6)
N47_2 N 0.4162(5) 0.9557(6) 0.7473(6)
Cl7_3 Cl 0.07012(19) 0.89667(19) 0.4482(2)
Cd3_6 Cd 1.0000 -0.0000 0.5000
C1_3 C 0.6389(6) 0.0039(7) 0.2498(8)
C2_3 C 0.5626(7) 0.0242(9) 0.1257(8)
H2_3 H 0.5393 0.0251 0.0671
C5_3 C 0.7994(6) 0.0512(7) 0.2687(8)
H5_3 H 0.7624 0.0879 0.2369
C9_3 C 0.7366(7) 0.0611(7) 0.0569(8)
H9_3 H 0.7763 0.0719 0.1092
N7_3 N 0.8576(5) 0.0704(6) 0.3420(7)
N8_3 N 0.9001(5) 0.0032(5) 0.3656(7)
N17_2 N 0.5338(5) 0.0567(6) 0.1708(6)
N18_3 N 0.5838(5) 0.0443(6) 0.2527(6)
Cl2_3 Cl 0.92988(19) 0.10333(19) 0.5518(2)
Cd8_2 Cd 0.70245(4) 0.09819(4) 0.63714(5)
N20_2 N 0.7026(5) 0.0089(5) 0.5376(6)
N46_2 N 0.4662(5) 0.0567(6) 0.3292(6)
O2_3 O 0.5000 0.2015(8) 0.2500
H27_2 H 0.5265 0.2314 0.2366
H28_2 H 0.4735 0.2314 0.2634
C10_3 C 0.6546(6) 0.0738(7) 0.9328(7)
H10_3 H 0.6248 0.0953 0.8797
N1_3 N 0.6470(5) 0.0001(5) 0.9543(6)
Cd3_7 Cd 1.0000 1.0000 0.5000
H1_3 H 0.6808 0.9871 0.2977
C3_3 C 0.9302(7) 0.7658(8) 0.5503(8)
H3_3 H 0.9378 0.7107 0.5622
C4_3 C 0.8816(6) 0.8802(7) 0.5187(8)
H4_3 H 0.8471 0.9218 0.5027
C6_3 C 0.8635(7) 0.9473(8) 0.3066(8)
H6_3 H 0.8810 0.8951 0.3082
N2_3 N 0.7026(5) 0.9911(5) 0.0376(6)
N9_3 N 0.7997(5) 0.9739(6) 0.2453(6)
N10_3 N 0.9830(5) 0.8160(5) 0.5528(6)
N11_3 N 0.9492(5) 0.8908(5) 0.5334(6)
N12_3 N 0.8665(5) 0.8022(5) 0.5293(6)
N16_3 N 0.6278(5) 0.9900(6) 0.1718(6)
C21_3 C 0.7366(7) 0.9389(7) 0.5569(8)
H22_3 H 0.7763 0.9281 0.6092
C22_3 C 0.6546(6) 0.9262(7) 0.4328(7)
H23_3 H 0.6248 0.9047 0.3797
N19_3 N 0.6470(5) 0.9999(5) 0.4543(6)
N22_3 N 0.7092(5) 0.8846(5) 0.4946(6)
N29_3 N 0.7923(5) 0.7384(5) 0.6441(6)
O1_3 O 0.5000 0.7985(8) 0.7500
H13_2 H 0.5265 0.7686 0.7366
N42_3 N 0.6727(5) 0.8122(6) 0.8928(6)
N48_2 N 0.5838(5) 0.9557(6) 0.7527(6)
H26_2 H 0.4735 0.7686 0.7634
Cd3_8 Cd -0.0000 -0.0000 0.0000
C1_4 C 0.3611(6) 0.0039(7) 0.2502(8)
C2_4 C 0.4374(7) 0.0242(9) 0.3743(8)
H2_4 H 0.4607 0.0251 0.4329
C5_4 C 0.2006(6) 0.0512(7) 0.2313(8)
H5_4 H 0.2376 0.0879 0.2631
C9_4 C 0.2634(7) 0.0611(7) 0.4431(8)
H9_4 H 0.2237 0.0719 0.3908
C10_4 C 0.3454(6) 0.0738(7) 0.5672(7)
H10_4 H 0.3752 0.0953 0.6203
N1_4 N 0.3530(5) 0.0001(5) 0.5457(6)
N7_4 N 0.1424(5) 0.0704(6) 0.1580(7)
N8_4 N 0.0999(5) 0.0032(5) 0.1344(7)
N18_4 N 0.4162(5) 0.0443(6) 0.2473(6)
Cd3_9 Cd -0.0000 -0.0000 1.0000
Cl2_4 Cl 0.07012(19) 0.10333(19) 0.9482(2)
Cd3_10 Cd 0.0000 1.0000 0.0000
H1_4 H 0.3192 0.9871 0.2023
C6_4 C 0.1365(7) 0.9473(8) 0.1934(8)
H6_4 H 0.1190 0.8951 0.1918
N2_4 N 0.2974(5) 0.9911(5) 0.4624(6)
N9_4 N 0.2003(5) 0.9739(6) 0.2547(6)
N16_4 N 0.3722(5) 0.9900(6) 0.3282(6)
C22_4 C 0.3454(6) 0.9262(7) 0.0672(7)
H23_4 H 0.3752 0.9047 0.1203
N19_4 N 0.3530(5) 0.9999(5) 0.0457(6)
N22_4 N 0.2908(5) 0.8846(5) 0.0054(6)
N42_4 N 0.3273(5) 0.8122(6) 0.6072(6)
N45_2 N 0.5338(5) 0.9433(6) 0.6708(6)
Cd3_11 Cd -0.0000 1.0000 1.0000
C3_4 C 0.0698(7) 0.7658(8) 0.9497(8)
H3_4 H 0.0622 0.7107 0.9378
C4_4 C 0.1184(6) 0.8802(7) 0.9813(8)
H4_4 H 0.1529 0.9218 0.9973
N10_4 N 0.0170(5) 0.8160(5) 0.9472(6)
N11_4 N 0.0508(5) 0.8908(5) 0.9666(6)
N12_4 N 0.1335(5) 0.8022(5) 0.9707(6)
C21_4 C 0.2634(7) 0.9389(7) 0.9431(8)
H22_4 H 0.2237 0.9281 0.8908
N29_4 N 0.2077(5) 0.7384(5) 0.8559(6)
Cd3_12 Cd 1.0000 -0.0000 0.0000
C15_4 C 0.9302(7) 0.2342(8) 0.0503(8)
H16_4 H 0.9378 0.2893 0.0622
C16_4 C 0.8816(6) 0.1198(7) 0.0187(8)
H17_4 H 0.8471 0.0782 0.0027
N33_4 N 0.9830(5) 0.1840(5) 0.0528(6)
N34_4 N 0.9492(5) 0.1092(5) 0.0334(6)
Cd3_13 Cd 1.0000 -0.0000 1.0000
H14_4 H 0.6808 0.0129 0.7977
C18_4 C 0.8635(7) 0.0527(8) 0.8066(8)
H19_4 H 0.8810 0.1049 0.8082
N25_4 N 0.6975(5) 0.1847(5) 0.7375(6)
N32_4 N 0.7997(5) 0.0261(6) 0.7453(6)
N38_4 N 0.7551(5) 0.2113(5) 0.6100(6)
N43_4 N 0.6278(5) 0.0100(6) 0.6718(6)
Cd3_14 Cd 1.0000 1.0000 0.0000
Cl7_4 Cl 0.92988(19) 0.89667(19) 0.0518(2)
Cd3_15 Cd 1.0000 1.0000 1.0000
Cd16_4 Cd 0.89636(4) 0.80459(4) 0.91470(5)
C13_4 C 0.6389(6) 0.9961(7) 0.7498(8)
C14_4 C 0.5626(7) 0.9758(9) 0.6257(8)
H15_4 H 0.5393 0.9749 0.5671
C17_4 C 0.7994(6) 0.9488(7) 0.7687(8)
H18_4 H 0.7624 0.9121 0.7369
N27_4 N 0.8580(5) 0.7415(5) 0.7846(6)
N30_4 N 0.8576(5) 0.9296(6) 0.8420(7)
N31_4 N 0.9001(5) 0.9968(5) 0.8656(7)
N40_4 N 0.7829(5) 0.7838(6) 0.9038(6)
C7_3 C 0.7381(6) 0.8395(7) 0.9056(8)
H7_3 H 0.7510 0.8939 0.9150
C8_3 C 0.6793(6) 0.7309(6) 0.8829(7)
H8_3 H 0.6422 0.6935 0.8724
C11_3 C 0.8503(7) 0.7712(7) 0.7128(8)
H11_3 H 0.8812 0.8104 0.7094
C12_3 C 0.7670(6) 0.6870(7) 0.6816(7)
H12_3 H 0.7260 0.6546 0.6511
C19_3 C 0.7619(6) 0.3395(7) 0.5944(8)
H20_3 H 0.7490 0.3939 0.5850
C20_3 C 0.8207(6) 0.2309(6) 0.6171(7)
H21_3 H 0.8578 0.1935 0.6276
C23_3 C 0.6497(7) 0.2712(7) 0.7872(8)
H24_3 H 0.6188 0.3104 0.7906
C24_3 C 0.7330(6) 0.1870(7) 0.8184(7)
H25_3 H 0.7740 0.1546 0.8489
C7_4 C 0.2619(6) 0.8395(7) 0.5944(8)
H7_4 H 0.2490 0.8939 0.5850
C8_4 C 0.3207(6) 0.7309(6) 0.6171(7)
H8_4 H 0.3578 0.6935 0.6276
C11_4 C 0.1497(7) 0.7712(7) 0.7872(8)
H11_4 H 0.1188 0.8104 0.7906
C12_4 C 0.2330(6) 0.6870(7) 0.8184(7)
H12_4 H 0.2740 0.6546 0.8489
C19_4 C 0.2381(6) 0.3395(7) 0.9056(8)
H20_4 H 0.2510 0.3939 0.9150
C20_4 C 0.1793(6) 0.2309(6) 0.8829(7)
H21_4 H 0.1422 0.1935 0.8724
C23_4 C 0.3503(7) 0.2712(7) 0.7128(8)
H24_4 H 0.3812 0.3104 0.7094
C24_4 C 0.2670(6) 0.1870(7) 0.6816(7)
H25_4 H 0.2260 0.1546 0.6511
loop_
_geom_bond_atom_site_label_1
_geom_bond_atom_site_label_2
_geom_bond_site_symmetry_1
_geom_bond_site_symmetry_2
Cd1 N2 1_555 1_555
Cd3 N8 1_555 1_555
Cd4 N7 1_555 1_555
Cd5 N6 1_555 1_555
C1 H1 1_555 1_555
C2 H2 1_555 1_555
C3 H3 1_555 1_555
C4 H4 1_555 1_555
C5 H5 1_555 1_555
C6 H6 1_555 1_555
C7 H7 1_555 1_555
C8 H8 1_555 1_555
C9 H9 1_555 1_555
C11 H11 1_555 1_555
C12 H12 1_555 1_555
N2 C9 1_555 1_555
N4 Cd1 1_555 1_555
N5 C11 1_555 1_555
N6 C11 1_555 1_555
N7 C5 1_555 1_555
N8 C6 1_555 1_555
N9 Cd1 1_555 1_555
N10 C3 1_555 1_555
N11 Cd3 1_555 1_555
N12 Cd5 1_555 1_555
N13 Cd1 1_555 1_555
N14 C7 1_555 1_555
N15 C7 1_555 1_555
N16 Cd1 1_555 1_555
N17 C2 1_555 1_555
N18 C1 1_555 1_555
Cl1 Cd1 1_555 1_555
Cl2 Cd3 1_555 1_555
Cd6 N21 1_555 1_555
Cd7 N24 1_555 1_555
Cd8 N20 1_555 1_555
Cd9 N18 1_555 1_555
Cd10 N15 1_555 1_555
Cd13 Cl3 1_555 1_555
Cd15 N47 1_555 1_555
Cd16 N10 1_555 1_555
Cd17 N5 1_555 1_555
Cd19 N35 1_555 1_555
C13 H14 1_555 1_555
C14 H15 1_555 1_555
C15 H16 1_555 1_555
C16 H17 1_555 1_555
C17 H18 1_555 1_555
C18 H19 1_555 1_555
C19 H20 1_555 1_555
C20 H21 1_555 1_555
C21 H22 1_555 1_555
C22 H23 1_555 1_555
C23 H24 1_555 1_555
C24 H25 1_555 1_555
N19 Cd9 1_555 1_555
N20 C21 1_555 1_555
N22 Cd5 1_555 1_555
N23 Cd5 1_555 1_555
N24 C24 1_555 1_555
N25 Cd6 1_555 1_555
N26 Cd4 1_555 1_555
N27 Cd16 1_555 1_555
N28 Cd18 1_555 1_555
N29 Cd5 1_555 1_555
N30 Cd16 1_555 1_555
N31 Cd3 1_555 1_555
N32 Cd6 1_555 1_555
N33 Cd4 1_555 1_555
N34 Cd3 1_555 1_555
N35 C15 1_555 1_555
N36 Cd5 1_555 1_555
N37 Cd7 1_555 1_555
N38 Cd6 1_555 1_555
N39 Cd4 1_555 1_555
N40 Cd16 1_555 1_555
N41 Cd9 1_555 1_555
N43 Cd6 1_555 1_555
N44 C14 1_555 1_555
N47 C13 1_555 1_555
O2 Cd9 1_555 1_555
H27 O2 1_555 1_555
Cl3 Cd4 1_555 1_555
Cl4 Cd6 1_555 1_555
Cl5 Cd16 1_555 1_555
Cl6 Cd8 1_555 1_555
Cl7 Cd3 1_555 1_555
Cd4 Cl2 1_555 1_555
C1 N16 1_555 1_555
C2 N16 1_555 1_555
C3 N12 1_555 1_555
C4 N11 1_555 1_555
C4 N12 1_555 1_555
C5 N9 1_555 1_555
C6 N9 1_555 1_555
C8 N13 1_555 1_555
C8 N15 1_555 1_555
C12 N4 1_555 1_555
C12 N6 1_555 1_555
N4 N5 1_555 1_555
N7 N8 1_555 1_555
N10 N11 1_555 1_555
N13 N14 1_555 1_555
N14 Cd17 1_555 1_555
N17 N18 1_555 1_555
Cl1 Cd17 1_555 1_555
Cd7 Cl3 1_555 1_555
Cd9 Cl6 1_555 1_555
Cd16 Cl7 1_555 1_555
C13 N43 1_555 1_555
C14 N43 1_555 1_555
C15 N33 1_555 1_555
C16 N34 1_555 1_555
C16 N35 1_555 1_555
C17 N30 1_555 1_555
C17 N32 1_555 1_555
C18 N31 1_555 1_555
C18 N32 1_555 1_555
C19 N39 1_555 1_555
C19 N41 1_555 1_555
C20 N37 1_555 1_555
C20 N41 1_555 1_555
C21 N22 1_555 1_555
C22 N19 1_555 1_555
C22 N22 1_555 1_555
C23 N26 1_555 1_555
C23 N28 1_555 1_555
C24 N28 1_555 1_555
N19 N20 1_555 1_555
N24 N26 1_555 1_555
N30 N31 1_555 1_555
N33 N34 1_555 1_555
N37 N39 1_555 1_555
N44 N47 1_555 1_555
Cd14 N1 1_555 1_555
C10 H10 1_555 1_555
N1 C10 1_555 1_555
O1 Cd14 1_555 1_555
H13 O1 1_555 1_555
Cd18_2 N3 1_555 1_555
N42 Cd14 1_555 1_555
N48 Cd14 1_555 1_555
C10 N3 1_555 1_555
H28 O2_2 1_555 1_555
Cd11 O2_2 1_555 1_555
Cd15 O1_2 1_555 1_555
H26 O1_2 1_555 1_555
Cd1_2 N2_2 1_555 1_555
Cd15 N1_2 1_555 1_555
Cd3_2 N8_2 1_555 1_555
Cd4_2 N7_2 1_555 1_555
Cd5_2 N6_2 1_555 1_555
C1_2 H1_2 1_555 1_555
C2_2 H2_2 1_555 1_555
C5_2 H5_2 1_555 1_555
C6_2 H6_2 1_555 1_555
C7_2 H7_2 1_555 1_555
C8_2 H8_2 1_555 1_555
C9_2 H9_2 1_555 1_555
C10_2 H10_2 1_555 1_555
C11_2 H11_2 1_555 1_555
C12_2 H12_2 1_555 1_555
N1_2 C10_2 1_555 1_555
N2_2 C9_2 1_555 1_555
N3_2 C9_2 1_555 1_555
N4_2 Cd1_2 1_555 1_555
N5_2 C11_2 1_555 1_555
N6_2 C11_2 1_555 1_555
N7_2 C5_2 1_555 1_555
N8_2 C6_2 1_555 1_555
N9_2 Cd1_2 1_555 1_555
N13_2 Cd1_2 1_555 1_555
N14_2 C7_2 1_555 1_555
N15_2 C7_2 1_555 1_555
N16_2 Cd1_2 1_555 1_555
N46 C2_2 1_555 1_555
N18_2 C1_2 1_555 1_555
Cl1_2 Cd1_2 1_555 1_555
Cd7_2 N24_2 1_555 1_555
Cd11 N18_2 1_555 1_555
Cd10_2 N15_2 1_555 1_555
Cd17_2 N5_2 1_555 1_555
Cd19 N3_2 1_555 1_555
Cd18 N35_2 1_555 1_555
C15_2 H16_2 1_555 1_555
C16_2 H17_2 1_555 1_555
C19_2 H20_2 1_555 1_555
C20_2 H21_2 1_555 1_555
C22_2 H23_2 1_555 1_555
C23_2 H24_2 1_555 1_555
C24_2 H25_2 1_555 1_555
N19_2 Cd11 1_555 1_555
N22_2 Cd5_2 1_555 1_555
N24_2 C24_2 1_555 1_555
N26_2 Cd4_2 1_555 1_555
N28_2 Cd19 1_555 1_555
N33_2 Cd4_2 1_555 1_555
N34_2 Cd3_2 1_555 1_555
N35_2 C15_2 1_555 1_555
N36_2 Cd5_2 1_555 1_555
N37_2 Cd7_2 1_555 1_555
N39_2 Cd4_2 1_555 1_555
N41_2 Cd11 1_555 1_555
N42_2 Cd15 1_555 1_555
Cl3_2 Cd4_2 1_555 1_555
Cl7_2 Cd3_2 1_555 1_555
Cd15 Cl1_2 1_555 1_555
C1_2 N16_2 1_555 1_555
C2_2 N16_2 1_555 1_555
C5_2 N9_2 1_555 1_555
C6_2 N9_2 1_555 1_555
C8_2 N13_2 1_555 1_555
C8_2 N15_2 1_555 1_555
C10_2 N3_2 1_555 1_555
C12_2 N4_2 1_555 1_555
C12_2 N6_2 1_555 1_555
N1_2 N2_2 1_555 1_555
N4_2 N5_2 1_555 1_555
N7_2 N8_2 1_555 1_555
N13_2 N14_2 1_555 1_555
N14_2 Cd17_2 1_555 1_555
N46 N18_2 1_555 1_555
Cl1_2 Cd17_2 1_555 1_555
Cd7_2 Cl3_2 1_555 1_555
C15_2 N33_2 1_555 1_555
C16_2 N34_2 1_555 1_555
C16_2 N35_2 1_555 1_555
C19_2 N39_2 1_555 1_555
C19_2 N41_2 1_555 1_555
C20_2 N37_2 1_555 1_555
C20_2 N41_2 1_555 1_555
C22_2 N19_2 1_555 1_555
C22_2 N22_2 1_555 1_555
C23_2 N26_2 1_555 1_555
C23_2 N28_2 1_555 1_555
C24_2 N28_2 1_555 1_555
N24_2 N26_2 1_555 1_555
N33_2 N34_2 1_555 1_555
N37_2 N39_2 1_555 1_555
C3_2 H3_2 1_555 1_555
C4_2 H4_2 1_555 1_555
N10_2 C3_2 1_555 1_555
N11_2 Cd3_3 1_555 1_555
N12_2 Cd5_3 1_555 1_555
Cl2_2 Cd3_3 1_555 1_555
Cd16_2 N10_2 1_555 1_555
C13_2 H14_2 1_555 1_555
C14_2 H15_2 1_555 1_555
C17_2 H18_2 1_555 1_555
C18_2 H19_2 1_555 1_555
C21_2 H22_2 1_555 1_555
N21 C21_2 1_555 1_555
N23_2 Cd5_3 1_555 1_555
N25_2 Cd8 1_555 1_555
N27_2 Cd16_2 1_555 1_555
N29_2 Cd5_3 1_555 1_555
N30_2 Cd16_2 1_555 1_555
N31_2 Cd3_3 1_555 1_555
N32_2 Cd8 1_555 1_555
N38_2 Cd8 1_555 1_555
N40_2 Cd16_2 1_555 1_555
N43_2 Cd8 1_555 1_555
N45 C14_2 1_555 1_555
N48 C13_2 1_555 1_555
Cl5_2 Cd16_2 1_555 1_555
C3_2 N12_2 1_555 1_555
C4_2 N11_2 1_555 1_555
C4_2 N12_2 1_555 1_555
N10_2 N11_2 1_555 1_555
C13_2 N43_2 1_555 1_555
C14_2 N43_2 1_555 1_555
C17_2 N30_2 1_555 1_555
C17_2 N32_2 1_555 1_555
C18_2 N31_2 1_555 1_555
C18_2 N32_2 1_555 1_555
N30_2 N31_2 1_555 1_555
N45 N48 1_555 1_555
Cd6_2 N21_2 1_555 1_555
C15_3 H16_3 1_555 1_555
C16_3 H17_3 1_555 1_555
C18_3 H19_3 1_555 1_555
N25_3 Cd6_2 1_555 1_555
N32_3 Cd6_2 1_555 1_555
N34_3 Cd3_4 1_555 1_555
N36 C15_3 1_555 1_555
N38_3 Cd6_2 1_555 1_555
N43_3 Cd6_2 1_555 1_555
Cl5_2 Cd6_2 1_555 1_555
C15_3 N33_3 1_555 1_555
C16_3 N34_3 1_555 1_555
C16_3 N36 1_555 1_555
C18_3 N32_3 1_555 1_555
N33_3 N34_3 1_555 1_555
Cd13_2 N44_2 1_555 1_555
Cd13 N47_2 1_555 1_555
C14_3 H15_3 1_555 1_555
C17_3 H18_3 1_555 1_555
N27_3 Cd16_3 1_555 1_555
N30_3 Cd16_3 1_555 1_555
N31_3 Cd3_5 1_555 1_555
N40_3 Cd16_3 1_555 1_555
N44_2 C14_3 1_555 1_555
N47_2 C13_3 1_555 1_555
Cl6 Cd16_3 1_555 1_555
Cl7_3 Cd3_5 1_555 1_555
Cd16_3 Cl7_3 1_555 1_555
C17_3 N30_3 1_555 1_555
N30_3 N31_3 1_555 1_555
N44_2 N47_2 1_555 1_555
Cd3_6 N8_3 1_555 1_555
Cd17_2 N7_3 1_555 1_555
C2_3 H2_3 1_555 1_555
C5_3 H5_3 1_555 1_555
C9_3 H9_3 1_555 1_555
N7_3 C5_3 1_555 1_555
N17_2 C2_3 1_555 1_555
N18_3 C1_3 1_555 1_555
Cl2_3 Cd3_6 1_555 1_555
Cd8_2 N20_2 1_555 1_555
Cd10_2 N18_3 1_555 1_555
Cd10 N17_2 1_555 1_555
N46_2 Cd10_2 1_555 1_555
O2_3 Cd10_2 1_555 1_555
H27_2 O2_3 1_555 1_555
H28_2 O2_3 1_555 1_555
Cl5 Cd8_2 1_555 1_555
Cd17_2 Cl2_3 1_555 1_555
N7_3 N8_3 1_555 1_555
N17_2 N18_3 1_555 1_555
Cd10_2 Cl5 1_555 1_555
Cd10 O2_3 1_555 1_555
C10_3 H10_3 1_555 1_555
N1_3 C10_3 1_555 1_555
C10_3 N23_2 1_555 1_555
Cd7_2 N2_3 1_555 1_555
C3_3 H3_3 1_555 1_555
C4_3 H4_3 1_555 1_555
C6_3 H6_3 1_555 1_555
N9_3 Cd7_2 1_555 1_555
N10_3 C3_3 1_555 1_555
N11_3 Cd3_7 1_555 1_555
N12_3 Cd19 1_555 1_555
N16_3 Cd7_2 1_555 1_555
C21_3 H22_3 1_555 1_555
C22_3 H23_3 1_555 1_555
N22_3 Cd19 1_555 1_555
N29_3 Cd19 1_555 1_555
C3_3 N12_3 1_555 1_555
C4_3 N11_3 1_555 1_555
C4_3 N12_3 1_555 1_555
C6_3 N9_3 1_555 1_555
N10_3 N11_3 1_555 1_555
C21_3 N22_3 1_555 1_555
C22_3 N19_3 1_555 1_555
C22_3 N22_3 1_555 1_555
O1_3 Cd13_2 1_555 1_555
H13_2 O1_3 1_555 1_555
Cd13 O1_3 1_555 1_555
N42_3 Cd13_2 1_555 1_555
N48_2 Cd13_2 1_555 1_555
H26_2 O1_3 1_555 1_555
Cd3_8 N8_4 1_555 1_555
Cd17 N7_4 1_555 1_555
C2_4 H2_4 1_555 1_555
C5_4 H5_4 1_555 1_555
C9_4 H9_4 1_555 1_555
C10_4 H10_4 1_555 1_555
N1_4 C10_4 1_555 1_555
N23 C9_4 1_555 1_555
N7_4 C5_4 1_555 1_555
N46_2 C2_4 1_555 1_555
N18_4 C1_4 1_555 1_555
Cd10 N18_4 1_555 1_555
C10_4 N23 1_555 1_555
N7_4 N8_4 1_555 1_555
N46_2 N18_4 1_555 1_555
Cl2_4 Cd3_9 1_555 1_555
Cd7 N2_4 1_555 1_555
C6_4 H6_4 1_555 1_555
N9_4 Cd7 1_555 1_555
N16_4 Cd7 1_555 1_555
C22_4 H23_4 1_555 1_555
N22_4 Cd18 1_555 1_555
N42_4 Cd13 1_555 1_555
N45_2 Cd13 1_555 1_555
C6_4 N9_4 1_555 1_555
C22_4 N19_4 1_555 1_555
C22_4 N22_4 1_555 1_555
C3_4 H3_4 1_555 1_555
C4_4 H4_4 1_555 1_555
N10_4 C3_4 1_555 1_555
N11_4 Cd3_11 1_555 1_555
N12_4 Cd18_2 1_555 1_555
C21_4 H22_4 1_555 1_555
N29_4 Cd18_2 1_555 1_555
C3_4 N12_4 1_555 1_555
C4_4 N11_4 1_555 1_555
C4_4 N12_4 1_555 1_555
N10_4 N11_4 1_555 1_555
C15_4 H16_4 1_555 1_555
C16_4 H17_4 1_555 1_555
N34_4 Cd3_12 1_555 1_555
N36_2 C15_4 1_555 1_555
C15_4 N33_4 1_555 1_555
C16_4 N34_4 1_555 1_555
C16_4 N36_2 1_555 1_555
N33_4 N34_4 1_555 1_555
C18_4 H19_4 1_555 1_555
N25_4 Cd8_2 1_555 1_555
N32_4 Cd8_2 1_555 1_555
N38_4 Cd8_2 1_555 1_555
N43_4 Cd8_2 1_555 1_555
C18_4 N32_4 1_555 1_555
Cl7_4 Cd3_14 1_555 1_555
C14_4 H15_4 1_555 1_555
C17_4 H18_4 1_555 1_555
N27_4 Cd16_4 1_555 1_555
N30_4 Cd16_4 1_555 1_555
N31_4 Cd3_15 1_555 1_555
N40_4 Cd16_4 1_555 1_555
N45_2 C14_4 1_555 1_555
N48_2 C13_4 1_555 1_555
Cl4 Cd16_4 1_555 1_555
C17_4 N30_4 1_555 1_555
N30_4 N31_4 1_555 1_555
N45_2 N48_2 1_555 1_555
C7_3 H7_3 1_555 1_555
C8_3 H8_3 1_555 1_555
C11_3 H11_3 1_555 1_555
C12_3 H12_3 1_555 1_555
N27_4 C11_3 1_555 1_555
N29_3 C11_3 1_555 1_555
N40_4 C7_3 1_555 1_555
N42_3 C7_3 1_555 1_555
C19_3 H20_3 1_555 1_555
C20_3 H21_3 1_555 1_555
C23_3 H24_3 1_555 1_555
C24_3 H25_3 1_555 1_555
N25_4 C24_3 1_555 1_555
C8_3 N38 1_555 1_555
C8_3 N42_3 1_555 1_555
C12_3 N25 1_555 1_555
C12_3 N29_3 1_555 1_555
N25 N27_4 1_555 1_555
N38 N40_4 1_555 1_555
C19_3 N40 1_555 1_555
C19_3 N42_2 1_555 1_555
C20_3 N38_4 1_555 1_555
C20_3 N42_2 1_555 1_555
C23_3 N27 1_555 1_555
C23_3 N29_2 1_555 1_555
C24_3 N29_2 1_555 1_555
N25_4 N27 1_555 1_555
N38_4 N40 1_555 1_555
C7_4 H7_4 1_555 1_555
C8_4 H8_4 1_555 1_555
C11_4 H11_4 1_555 1_555
C12_4 H12_4 1_555 1_555
N27_3 C11_4 1_555 1_555
N29_4 C11_4 1_555 1_555
N40_3 C7_4 1_555 1_555
N42_4 C7_4 1_555 1_555
C19_4 H20_4 1_555 1_555
C20_4 H21_4 1_555 1_555
C23_4 H24_4 1_555 1_555
C24_4 H25_4 1_555 1_555
N25_3 C24_4 1_555 1_555
C8_4 N38_2 1_555 1_555
C8_4 N42_4 1_555 1_555
C12_4 N25_2 1_555 1_555
C12_4 N29_4 1_555 1_555
N25_2 N27_3 1_555 1_555
N38_2 N40_3 1_555 1_555
C19_4 N40_2 1_555 1_555
C19_4 N42 1_555 1_555
C20_4 N38_3 1_555 1_555
C20_4 N42 1_555 1_555
C23_4 N27_2 1_555 1_555
C23_4 N29 1_555 1_555
C24_4 N29 1_555 1_555
N25_3 N27_2 1_555 1_555
N38_3 N40_2 1_555 1_555

#END
