
###############################################################################
#
# This file contains modified crystal structure data generated from the
# MOF subset of the Cambridge Structural Database (CSD) v543 
# hosted by the Cambridge Crystallographic Data Centre (CCDC).
#
# This work is licensed under the Creative Commons
# Attribution-NonCommercial-ShareAlike 4.0 International License.
# To view a copy of this license, visit
# http://creativecommons.org/licenses/by-nc-sa/4.0/
# or send a letter to
# Creative Commons, PO Box 1866, Mountain View, CA 94042, USA.
#
# CIF created using the CSD Python API on 29 September 2022
# The structure has been converted into the P1 space group
# The structure has a 3D framework
# The original CSD entry GAWJEV is in the monoclinic crystal system
# The framework has been calculated to contain at least 10.0% void space
# The void calculation uses a probe of radius 1.32A, grid spacing 0.4
# H atom positions have been added when not included in the experimental data
#
###############################################################################

data_GAWJEV
_chemical_formula_moiety         '(C192 H136 O122 Zn25)n'
_symmetry_cell_setting           triclinic
_symmetry_space_group_name_H-M   'P 1'
_symmetry_Int_Tables_number      1
_space_group_name_Hall           'P 1'
loop_
_symmetry_equiv_pos_site_id
_symmetry_equiv_pos_as_xyz
1 x,y,z
_cell_length_a                   22.9839(9)
_cell_length_b                   10.6211(4)
_cell_length_c                   27.5720(14)
_cell_angle_alpha                90
_cell_angle_beta                 114.276(1)
_cell_angle_gamma                90
_cell_volume                     6135.56
loop_
_atom_site_label
_atom_site_type_symbol
_atom_site_fract_x
_atom_site_fract_y
_atom_site_fract_z
Zn1 Zn 0.0000 0.06303(5) 0.2500
Zn2 Zn 0.0000 0.5000 0.0000
O2 O 0.09847(10) 0.46284(19) 0.01523(8)
O4 O 0.01768(10) 0.1414(2) 0.19319(8)
O11 O 0.09878(11) 0.2256(2) 0.26088(8)
O12 O 0.23000(10) 0.0829(2) 0.00112(8)
O13 O 0.19813(10) 0.4898(2) 0.07150(8)
C3 C 0.13086(14) 0.3666(3) 0.09946(12)
C4 C 0.13386(15) 0.3621(3) 0.18783(12)
H4 H 0.1486 0.3948 0.2221
C9 C 0.14432(14) 0.4420(3) 0.05964(11)
C11 C 0.09135(13) 0.2590(3) 0.08509(11)
C13 C 0.07548(14) 0.1944(3) 0.03251(11)
C16 C 0.09226(14) 0.2602(3) 0.17327(12)
C18 C 0.15297(14) 0.4143(3) 0.15107(12)
H8 H 0.1810 0.4822 0.1608
C20 C 0.07215(14) 0.2081(3) 0.12241(12)
H10 H 0.0454 0.1382 0.1135
C21 C 0.06900(15) 0.2067(3) 0.21253(12)
C22 C 0.12811(15) 0.1480(3) 0.02484(12)
Zn7 Zn 0.0000 0.5000 0.5000
Zn10 Zn 0.289620(17) 0.46260(3) 0.116320(14)
Zn17 Zn 0.100932(16) 0.38989(4) 0.456979(14)
O32 O 0.01942(10) 0.5703(2) 0.07338(8)
O33 O 0.09714(10) 0.1824(2) 0.52533(9)
O39 O 0.03223(10) 0.33254(19) 0.47589(8)
C31 C 0.04378(15) 0.2287(3) 0.50345(12)
H20 H 0.0352 0.0913 0.5781
H32 H 0.176111 0.159111 0.0558247
Zn2_2 Zn 0.0000 0.5000 1.0000
Zn3 Zn 0.210380(17) 0.03740(3) 0.883680(14)
Zn4 Zn 0.100932(16) 0.61011(4) 0.956979(14)
O8 O 0.19229(11) 0.6200(3) 0.97805(10)
H2 H 0.1995 0.6337 0.9518
O15 O 0.09233(11) 0.7625(2) 0.90229(9)
H3 H 0.0552 0.7680 0.8805
O16 O 0.21551(13) 0.2298(2) 0.91066(11)
C8 C 0.17650(15) 0.0473(3) 0.96919(12)
C10 C 0.00588(15) 0.1078(3) 0.94712(12)
C12 C 0.05774(14) 0.0672(3) 0.93821(12)
H6 H 0.0518 0.0271 0.9065
C15 C 0.11865(14) 0.0871(3) 0.97700(12)
C24 C 0.01416(14) 0.1729(3) 0.99318(12)
H11 H 0.1153(15) 0.828(2) 0.9101(15)
H12 H 0.216(2) 0.557(4) 0.993(2)
H14 H 0.2313(19) 0.252(4) 0.9425(16)
H15 H 0.219(2) 0.291(3) 0.8925(18)
O21 O 0.16660(10) 0.1219(2) 0.81434(8)
O27 O 0.05502(10) 0.4933(2) 0.89845(8)
O37 O 0.30187(10) 0.0102(2) 0.92850(8)
O40 O 0.03223(10) 0.66746(19) 0.97589(8)
O3 O 0.16660(10) 0.8781(2) 0.31434(8)
O5 O 0.07452(10) 0.9700(2) 0.30151(8)
C1 C 0.10750(15) 0.7864(3) 0.20927(12)
C2 C 0.10712(15) 0.8905(3) 0.28935(12)
C5 C 0.02074(15) 0.6567(3) 0.15243(12)
C14 C 0.01617(14) 0.7506(3) 0.23096(11)
C17 C 0.07996(15) 0.7134(3) 0.16444(12)
H7 H 0.1007 0.7017 0.1421
C23 C 0.07536(14) 0.8066(3) 0.24241(11)
Zn9 Zn 0.210380(17) 0.96260(3) 0.383680(14)
O26 O 0.05502(10) 0.5067(2) 0.39845(8)
C30 C 0.00735(14) 0.5718(3) 0.39482(12)
C43 C 0.01014(14) 0.6767(3) 0.31421(11)
H24 H 0.0497 0.6394 0.3225
H31 H 0.154179 0.828636 0.219174
O1 O 0.16670(10) 0.9787(2) 0.92788(8)
O6 O 0.21023(12) 0.8643(2) 0.84730(9)
H1 H 0.2253 0.8099 0.8702
H13 H 0.1743(9) 0.847(4) 0.8225(10)
Zn1_2 Zn 1.0000 0.06303(5) 0.2500
Zn2_3 Zn 1.0000 0.5000 0.0000
O14 O 0.96777(10) 0.33254(19) 0.02411(8)
Zn7_2 Zn 1.0000 0.5000 0.5000
Zn8 Zn 0.789620(17) 0.03740(3) 0.616320(14)
Zn12 Zn 0.710380(17) 0.46260(3) 0.383680(14)
Zn13 Zn 0.899068(16) 0.61011(4) 0.543021(14)
Zn15 Zn 0.899068(16) 0.38989(4) 0.043021(14)
O18 O 0.90153(10) 0.46284(19) 0.48477(8)
O22 O 0.83340(10) 0.1219(2) 0.68566(8)
O23 O 0.98232(10) 0.1414(2) 0.30681(8)
O28 O 0.94498(10) 0.4933(2) 0.60155(8)
O29 O 0.80771(11) 0.6200(3) 0.52195(10)
H17 H 0.8005 0.6337 0.5482
O34 O 0.90122(11) 0.2256(2) 0.23912(8)
O35 O 0.77000(10) 0.0829(2) 0.49888(8)
O36 O 0.80187(10) 0.4898(2) 0.42850(8)
O38 O 0.69813(10) 0.0102(2) 0.57150(8)
O41 O 0.96777(10) 0.66746(19) 0.52411(8)
O42 O 0.90767(11) 0.7625(2) 0.59771(9)
H18 H 0.9448 0.7680 0.6195
C27 C 0.86914(14) 0.3666(3) 0.40054(12)
O43 O 0.78449(13) 0.2298(2) 0.58934(11)
C28 C 0.86614(15) 0.3621(3) 0.31217(12)
H19 H 0.8514 0.3948 0.2779
C32 C 0.82350(15) 0.0473(3) 0.53081(12)
C33 C 0.85568(14) 0.4420(3) 0.44036(11)
C34 C 0.99412(15) 0.1078(3) 0.55288(12)
C35 C 0.90865(13) 0.2590(3) 0.41491(11)
C36 C 0.94226(14) 0.0672(3) 0.56179(12)
H21 H 0.9482 0.0271 0.5935
C37 C 0.92452(14) 0.1944(3) 0.46749(11)
C39 C 0.88135(14) 0.0871(3) 0.52300(12)
C40 C 0.90774(14) 0.2602(3) 0.32673(12)
C42 C 0.84703(14) 0.4143(3) 0.34893(12)
H23 H 0.8190 0.4822 0.3392
C44 C 0.92785(14) 0.2081(3) 0.37759(12)
H25 H 0.9546 0.1382 0.3865
C45 C 0.93100(15) 0.2067(3) 0.28747(12)
C46 C 0.87189(15) 0.1480(3) 0.47516(12)
C48 C 0.98584(14) 0.1729(3) 0.50682(12)
H26 H 0.8847(15) 0.828(2) 0.5899(15)
H27 H 0.784(2) 0.557(4) 0.507(2)
H29 H 0.7687(19) 0.252(4) 0.5575(16)
H30 H 0.781(2) 0.291(3) 0.6075(18)
H34 H 0.823889 0.159111 0.444175
Zn2_4 Zn 1.0000 0.5000 1.0000
O10 O 0.90286(10) 0.1824(2) 0.97467(9)
C7 C 0.95622(15) 0.2287(3) 0.99655(12)
H5 H 0.9648 0.0913 0.9219
O19 O 0.90153(10) 0.53716(19) 0.98477(8)
O31 O 0.98058(10) 0.4297(2) 0.92662(8)
O7 O 0.94498(10) 0.5067(2) 0.10155(8)
C6 C 0.99265(14) 0.5718(3) 0.10518(12)
C19 C 0.98986(14) 0.6767(3) 0.18579(11)
H9 H 0.9503 0.6394 0.1775
Zn11 Zn 0.789620(17) 0.96260(3) 0.116320(14)
O17 O 0.83330(10) 0.9787(2) 0.57212(8)
O20 O 0.83340(10) 0.8781(2) 0.18566(8)
O24 O 0.92548(10) 0.9700(2) 0.19849(8)
O25 O 0.78977(12) 0.8643(2) 0.65270(9)
H16 H 0.7747 0.8099 0.6298
C25 C 0.89250(15) 0.7864(3) 0.29073(12)
O30 O 0.98058(10) 0.5703(2) 0.42662(8)
C26 C 0.89288(15) 0.8905(3) 0.21065(12)
C29 C 0.97926(15) 0.6567(3) 0.34757(12)
C38 C 0.98383(14) 0.7506(3) 0.26904(11)
C41 C 0.92004(15) 0.7134(3) 0.33556(12)
H22 H 0.8993 0.7017 0.3579
C47 C 0.92464(14) 0.8066(3) 0.25759(11)
H28 H 0.8257(9) 0.847(4) 0.6775(10)
H33 H 0.845821 0.828636 0.280826
O19_2 O 0.09847(10) 0.53716(19) 0.51523(8)
O31_2 O 0.01942(10) 0.4297(2) 0.57338(8)
Zn2_5 Zn 0.5000 0.0000 0.0000
Zn7_3 Zn 0.5000 0.0000 0.5000
Zn13_2 Zn 0.399068(16) 0.11011(4) 0.543021(14)
O29_2 O 0.30771(11) 0.1200(3) 0.52195(10)
H17_2 H 0.3005 0.1337 0.5482
O32_2 O 0.51942(10) 0.0703(2) 0.07338(8)
O41_2 O 0.46777(10) 0.16746(19) 0.52411(8)
O42_2 O 0.40767(11) 0.2625(2) 0.59771(9)
H18_2 H 0.4448 0.2680 0.6195
H26_2 H 0.3847(15) 0.328(2) 0.5899(15)
H27_2 H 0.284(2) 0.057(4) 0.507(2)
Zn2_6 Zn 0.5000 -0.0000 1.0000
Zn4_2 Zn 0.600932(16) 0.11011(4) 0.956979(14)
O8_2 O 0.69229(11) 0.1200(3) 0.97805(10)
H2_2 H 0.6995 0.1337 0.9518
O15_2 O 0.59233(11) 0.2625(2) 0.90229(9)
H3_2 H 0.5552 0.2680 0.8805
H11_2 H 0.6153(15) 0.328(2) 0.9101(15)
H12_2 H 0.716(2) 0.057(4) 0.993(2)
O19_3 O 0.40153(10) 0.03716(19) 0.98477(8)
O40_2 O 0.53223(10) 0.16746(19) 0.97589(8)
Zn1_3 Zn 0.5000 0.56303(5) 0.2500
Zn2_7 Zn 0.5000 1.0000 0.0000
O2_2 O 0.59847(10) 0.96284(19) 0.01523(8)
O3_2 O 0.66660(10) 0.3781(2) 0.31434(8)
O4_2 O 0.51768(10) 0.6414(2) 0.19319(8)
O5_2 O 0.57452(10) 0.4700(2) 0.30151(8)
C1_2 C 0.60750(15) 0.2864(3) 0.20927(12)
O7_2 O 0.44498(10) 0.0067(2) 0.10155(8)
O11_2 O 0.59878(11) 0.7256(2) 0.26088(8)
O12_2 O 0.73000(10) 0.5829(2) 0.00112(8)
C2_2 C 0.60712(15) 0.3905(3) 0.28935(12)
O13_2 O 0.69813(10) 0.9898(2) 0.07150(8)
O14_2 O 0.46777(10) 0.83254(19) 0.02411(8)
C3_2 C 0.63086(14) 0.8666(3) 0.09946(12)
C4_2 C 0.63386(15) 0.8621(3) 0.18783(12)
H4_2 H 0.6486 0.8948 0.2221
C5_2 C 0.52074(15) 0.1567(3) 0.15243(12)
C6_2 C 0.49265(14) 0.0718(3) 0.10518(12)
C9_2 C 0.64432(14) 0.9420(3) 0.05964(11)
C11_2 C 0.59135(13) 0.7590(3) 0.08509(11)
C13_2 C 0.57548(14) 0.6944(3) 0.03251(11)
C14_2 C 0.51617(14) 0.2506(3) 0.23096(11)
C16_2 C 0.59226(14) 0.7602(3) 0.17327(12)
C17_2 C 0.57996(15) 0.2134(3) 0.16444(12)
H7_2 H 0.6007 0.2017 0.1421
C18_2 C 0.65297(14) 0.9143(3) 0.15107(12)
H8_2 H 0.6810 0.9822 0.1608
C19_2 C 0.48986(14) 0.1767(3) 0.18579(11)
H9_2 H 0.4503 0.1394 0.1775
C20_2 C 0.57215(14) 0.7081(3) 0.12241(12)
H10_2 H 0.5454 0.6382 0.1135
C21_2 C 0.56900(15) 0.7067(3) 0.21253(12)
C22_2 C 0.62811(15) 0.6480(3) 0.02484(12)
C23_2 C 0.57536(14) 0.3066(3) 0.24241(11)
Zn7_4 Zn 0.5000 1.0000 0.5000
Zn8_2 Zn 0.289620(17) 0.53740(3) 0.616320(14)
Zn15_2 Zn 0.399068(16) 0.88989(4) 0.043021(14)
Zn17_2 Zn 0.600932(16) 0.88989(4) 0.456979(14)
O17_2 O 0.33330(10) 0.4787(2) 0.57212(8)
O18_2 O 0.40153(10) 0.96284(19) 0.48477(8)
O20_2 O 0.33340(10) 0.3781(2) 0.18566(8)
O22_2 O 0.33340(10) 0.6219(2) 0.68566(8)
O23_2 O 0.48232(10) 0.6414(2) 0.30681(8)
O24_2 O 0.42548(10) 0.4700(2) 0.19849(8)
O25_2 O 0.28977(12) 0.3643(2) 0.65270(9)
H16_2 H 0.2747 0.3099 0.6298
C25_2 C 0.39250(15) 0.2864(3) 0.29073(12)
O26_2 O 0.55502(10) 0.0067(2) 0.39845(8)
O28_2 O 0.44498(10) 0.9933(2) 0.60155(8)
O30_2 O 0.48058(10) 0.0703(2) 0.42662(8)
O33_2 O 0.59714(10) 0.6824(2) 0.52533(9)
O34_2 O 0.40122(11) 0.7256(2) 0.23912(8)
O35_2 O 0.27000(10) 0.5829(2) 0.49888(8)
C26_2 C 0.39288(15) 0.3905(3) 0.21065(12)
O36_2 O 0.30187(10) 0.9898(2) 0.42850(8)
O38_2 O 0.19813(10) 0.5102(2) 0.57150(8)
O39_2 O 0.53223(10) 0.83254(19) 0.47589(8)
C27_2 C 0.36914(14) 0.8666(3) 0.40054(12)
O43_2 O 0.28449(13) 0.7298(2) 0.58934(11)
C28_2 C 0.36614(15) 0.8621(3) 0.31217(12)
H19_2 H 0.3514 0.8948 0.2779
C29_2 C 0.47926(15) 0.1567(3) 0.34757(12)
C30_2 C 0.50735(14) 0.0718(3) 0.39482(12)
C31_2 C 0.54378(15) 0.7287(3) 0.50345(12)
C32_2 C 0.32350(15) 0.5473(3) 0.53081(12)
C33_2 C 0.35568(14) 0.9420(3) 0.44036(11)
C34_2 C 0.49412(15) 0.6078(3) 0.55288(12)
H20_2 H 0.5352 0.5913 0.5781
C35_2 C 0.40865(13) 0.7590(3) 0.41491(11)
C36_2 C 0.44226(14) 0.5672(3) 0.56179(12)
H21_2 H 0.4482 0.5271 0.5935
C37_2 C 0.42452(14) 0.6944(3) 0.46749(11)
C38_2 C 0.48383(14) 0.2506(3) 0.26904(11)
C39_2 C 0.38135(14) 0.5871(3) 0.52300(12)
C40_2 C 0.40774(14) 0.7602(3) 0.32673(12)
C41_2 C 0.42004(15) 0.2134(3) 0.33556(12)
H22_2 H 0.3993 0.2017 0.3579
C42_2 C 0.34703(14) 0.9143(3) 0.34893(12)
H23_2 H 0.3190 0.9822 0.3392
C43_2 C 0.51014(14) 0.1767(3) 0.31421(11)
H24_2 H 0.5497 0.1394 0.3225
C44_2 C 0.42785(14) 0.7081(3) 0.37759(12)
H25_2 H 0.4546 0.6382 0.3865
C45_2 C 0.43100(15) 0.7067(3) 0.28747(12)
C46_2 C 0.37189(15) 0.6480(3) 0.47516(12)
C47_2 C 0.42464(14) 0.3066(3) 0.25759(11)
C48_2 C 0.48584(14) 0.6729(3) 0.50682(12)
H28_2 H 0.3257(9) 0.347(4) 0.6775(10)
H29_2 H 0.2687(19) 0.752(4) 0.5575(16)
H30_2 H 0.281(2) 0.791(3) 0.6075(18)
H31_2 H 0.654179 0.328636 0.219174
H32_2 H 0.676111 0.659111 0.0558247
H33_2 H 0.345821 0.328636 0.280826
H34_2 H 0.323889 0.659111 0.444175
Zn2_8 Zn 0.5000 1.0000 1.0000
Zn3_2 Zn 0.710380(17) 0.53740(3) 0.883680(14)
O1_2 O 0.66670(10) 0.4787(2) 0.92788(8)
O6_2 O 0.71023(12) 0.3643(2) 0.84730(9)
H1_2 H 0.7253 0.3099 0.8702
O10_2 O 0.40286(10) 0.6824(2) 0.97467(9)
O16_2 O 0.71551(13) 0.7298(2) 0.91066(11)
C7_2 C 0.45622(15) 0.7287(3) 0.99655(12)
C8_2 C 0.67650(15) 0.5473(3) 0.96919(12)
C10_2 C 0.50588(15) 0.6078(3) 0.94712(12)
H5_2 H 0.4648 0.5913 0.9219
C12_2 C 0.55774(14) 0.5672(3) 0.93821(12)
H6_2 H 0.5518 0.5271 0.9065
C15_2 C 0.61865(14) 0.5871(3) 0.97700(12)
C24_2 C 0.51416(14) 0.6729(3) 0.99318(12)
H13_2 H 0.6743(9) 0.347(4) 0.8225(10)
H14_2 H 0.7313(19) 0.752(4) 0.9425(16)
H15_2 H 0.719(2) 0.791(3) 0.8925(18)
O21_2 O 0.66660(10) 0.6219(2) 0.81434(8)
O27_2 O 0.55502(10) 0.9933(2) 0.89845(8)
O31_3 O 0.48058(10) 0.9297(2) 0.92662(8)
O37_2 O 0.80187(10) 0.5102(2) 0.92850(8)
O19_4 O 0.59847(10) 0.03716(19) 0.51523(8)
O31_4 O 0.51942(10) 0.9297(2) 0.57338(8)
C6_3 C 0.00735(14) 0.4282(3) 0.89482(12)
C19_3 C 0.01014(14) 0.3233(3) 0.81421(11)
H9_3 H 0.0497 0.3606 0.8225
O17_3 O 0.16670(10) 0.0213(2) 0.42788(8)
O24_3 O 0.07452(10) 0.0300(2) 0.80151(8)
O25_3 O 0.21023(12) 0.1357(2) 0.34730(9)
H16_3 H 0.2253 0.1901 0.3702
C25_3 C 0.10750(15) 0.2136(3) 0.70927(12)
C26_3 C 0.10712(15) 0.1095(3) 0.78935(12)
C29_3 C 0.02074(15) 0.3433(3) 0.65243(12)
C38_3 C 0.01617(14) 0.2494(3) 0.73096(11)
C41_3 C 0.07996(15) 0.2866(3) 0.66444(12)
H22_3 H 0.1007 0.2983 0.6421
C47_3 C 0.07536(14) 0.1934(3) 0.74241(11)
H28_3 H 0.1743(9) 0.153(4) 0.3225(10)
H33_3 H 0.154179 0.171364 0.719174
O10_3 O 0.09714(10) 0.8176(2) 0.02533(9)
C7_3 C 0.04378(15) 0.7713(3) 0.00345(12)
H5_3 H 0.0352 0.9087 0.0781
Zn1_4 Zn 0.0000 0.93697(5) 0.7500
O23_3 O 0.01768(10) 0.8586(2) 0.69319(8)
O29_3 O 0.19229(11) 0.3800(3) 0.47805(10)
H17_3 H 0.1995 0.3663 0.4518
O34_3 O 0.09878(11) 0.7744(2) 0.76088(8)
O35_3 O 0.23000(10) 0.9171(2) 0.50112(8)
O42_3 O 0.09233(11) 0.2375(2) 0.40229(9)
H18_3 H 0.0552 0.2320 0.3805
C27_3 C 0.13086(14) 0.6334(3) 0.59946(12)
O43_3 O 0.21551(13) 0.7702(2) 0.41066(11)
C28_3 C 0.13386(15) 0.6379(3) 0.68783(12)
H19_3 H 0.1486 0.6052 0.7221
C32_3 C 0.17650(15) 0.9527(3) 0.46919(12)
C33_3 C 0.14432(14) 0.5580(3) 0.55964(11)
C34_3 C 0.00588(15) 0.8922(3) 0.44712(12)
C35_3 C 0.09135(13) 0.7410(3) 0.58509(11)
C36_3 C 0.05774(14) 0.9328(3) 0.43821(12)
H21_3 H 0.0518 0.9729 0.4065
C37_3 C 0.07548(14) 0.8056(3) 0.53251(11)
C39_3 C 0.11865(14) 0.9129(3) 0.47700(12)
C40_3 C 0.09226(14) 0.7398(3) 0.67327(12)
C42_3 C 0.15297(14) 0.5857(3) 0.65107(12)
H23_3 H 0.1810 0.5178 0.6608
C44_3 C 0.07215(14) 0.7919(3) 0.62241(12)
H25_3 H 0.0454 0.8618 0.6135
C45_3 C 0.06900(15) 0.7933(3) 0.71253(12)
C46_3 C 0.12811(15) 0.8520(3) 0.52484(12)
C48_3 C 0.01416(14) 0.8271(3) 0.49318(12)
H26_3 H 0.1153(15) 0.172(2) 0.4101(15)
H27_3 H 0.216(2) 0.443(4) 0.493(2)
H29_3 H 0.2313(19) 0.748(4) 0.4425(16)
H30_3 H 0.219(2) 0.709(3) 0.3925(18)
H34_3 H 0.176111 0.840889 0.555825
O1_3 O 0.83330(10) 0.0213(2) 0.07212(8)
O6_3 O 0.78977(12) 0.1357(2) 0.15270(9)
H1_3 H 0.7747 0.1901 0.1298
H13_3 H 0.8257(9) 0.153(4) 0.1775(10)
O5_3 O 0.92548(10) 0.0300(2) 0.69849(8)
C1_3 C 0.89250(15) 0.2136(3) 0.79073(12)
C2_3 C 0.89288(15) 0.1095(3) 0.71065(12)
C5_3 C 0.97926(15) 0.3433(3) 0.84757(12)
C14_3 C 0.98383(14) 0.2494(3) 0.76904(11)
C17_3 C 0.92004(15) 0.2866(3) 0.83556(12)
H7_3 H 0.8993 0.2983 0.8579
C23_3 C 0.92464(14) 0.1934(3) 0.75759(11)
C30_3 C 0.99265(14) 0.4282(3) 0.60518(12)
C43_3 C 0.98986(14) 0.3233(3) 0.68579(11)
H24_3 H 0.9503 0.3606 0.6775
H31_3 H 0.845821 0.171364 0.780826
O8_3 O 0.80771(11) 0.3800(3) 0.02195(10)
H2_3 H 0.8005 0.3663 0.0482
O15_3 O 0.90767(11) 0.2375(2) 0.09771(9)
H3_3 H 0.9448 0.2320 0.1195
O16_3 O 0.78449(13) 0.7702(2) 0.08934(11)
C8_3 C 0.82350(15) 0.9527(3) 0.03081(12)
C10_3 C 0.99412(15) 0.8922(3) 0.05288(12)
C12_3 C 0.94226(14) 0.9328(3) 0.06179(12)
H6_3 H 0.9482 0.9729 0.0935
C15_3 C 0.88135(14) 0.9129(3) 0.02300(12)
C24_3 C 0.98584(14) 0.8271(3) 0.00682(12)
H11_3 H 0.8847(15) 0.172(2) 0.0899(15)
H12_3 H 0.784(2) 0.443(4) 0.007(2)
H14_3 H 0.7687(19) 0.748(4) 0.0575(16)
H15_3 H 0.781(2) 0.709(3) 0.1075(18)
Zn1_5 Zn 1.0000 0.93697(5) 0.7500
O4_3 O 0.98232(10) 0.8586(2) 0.80681(8)
O11_3 O 0.90122(11) 0.7744(2) 0.73912(8)
O12_3 O 0.77000(10) 0.9171(2) 0.99888(8)
C3_3 C 0.86914(14) 0.6334(3) 0.90054(12)
C4_3 C 0.86614(15) 0.6379(3) 0.81217(12)
H4_3 H 0.8514 0.6052 0.7779
C9_3 C 0.85568(14) 0.5580(3) 0.94036(11)
C11_3 C 0.90865(13) 0.7410(3) 0.91491(11)
C13_3 C 0.92452(14) 0.8056(3) 0.96749(11)
C16_3 C 0.90774(14) 0.7398(3) 0.82673(12)
C18_3 C 0.84703(14) 0.5857(3) 0.84893(12)
H8_3 H 0.8190 0.5178 0.8392
C20_3 C 0.92785(14) 0.7919(3) 0.87759(12)
H10_3 H 0.9546 0.8618 0.8865
C21_3 C 0.93100(15) 0.7933(3) 0.78747(12)
C22_3 C 0.87189(15) 0.8520(3) 0.97516(12)
O33_3 O 0.90286(10) 0.8176(2) 0.47467(9)
C31_3 C 0.95622(15) 0.7713(3) 0.49655(12)
H20_3 H 0.9648 0.9087 0.4219
H32_3 H 0.823889 0.840889 0.944175
O1_4 O 0.33330(10) 0.5213(2) 0.07212(8)
O6_4 O 0.28977(12) 0.6357(2) 0.15270(9)
H1_4 H 0.2747 0.6901 0.1298
O10_4 O 0.59714(10) 0.3176(2) 0.02533(9)
O16_4 O 0.28449(13) 0.2702(2) 0.08934(11)
C7_4 C 0.54378(15) 0.2713(3) 0.00345(12)
C8_4 C 0.32350(15) 0.4527(3) 0.03081(12)
C10_4 C 0.49412(15) 0.3922(3) 0.05288(12)
H5_4 H 0.5352 0.4087 0.0781
C12_4 C 0.44226(14) 0.4328(3) 0.06179(12)
H6_4 H 0.4482 0.4729 0.0935
C15_4 C 0.38135(14) 0.4129(3) 0.02300(12)
C24_4 C 0.48584(14) 0.3271(3) 0.00682(12)
H13_4 H 0.3257(9) 0.653(4) 0.1775(10)
H14_4 H 0.2687(19) 0.248(4) 0.0575(16)
H15_4 H 0.281(2) 0.209(3) 0.1075(18)
Zn1_6 Zn 0.5000 0.43697(5) 0.7500
O4_4 O 0.48232(10) 0.3586(2) 0.80681(8)
O5_4 O 0.42548(10) 0.5300(2) 0.69849(8)
C1_4 C 0.39250(15) 0.7136(3) 0.79073(12)
O11_4 O 0.40122(11) 0.2744(2) 0.73912(8)
O12_4 O 0.27000(10) 0.4171(2) 0.99888(8)
C2_4 C 0.39288(15) 0.6095(3) 0.71065(12)
C3_4 C 0.36914(14) 0.1334(3) 0.90054(12)
C4_4 C 0.36614(15) 0.1379(3) 0.81217(12)
H4_4 H 0.3514 0.1052 0.7779
C5_4 C 0.47926(15) 0.8433(3) 0.84757(12)
C6_4 C 0.50735(14) 0.9282(3) 0.89482(12)
C9_4 C 0.35568(14) 0.0580(3) 0.94036(11)
C11_4 C 0.40865(13) 0.2410(3) 0.91491(11)
C13_4 C 0.42452(14) 0.3056(3) 0.96749(11)
C14_4 C 0.48383(14) 0.7494(3) 0.76904(11)
C16_4 C 0.40774(14) 0.2398(3) 0.82673(12)
C17_4 C 0.42004(15) 0.7866(3) 0.83556(12)
H7_4 H 0.3993 0.7983 0.8579
C18_4 C 0.34703(14) 0.0857(3) 0.84893(12)
H8_4 H 0.3190 0.0178 0.8392
C19_4 C 0.51014(14) 0.8233(3) 0.81421(11)
H9_4 H 0.5497 0.8606 0.8225
C20_4 C 0.42785(14) 0.2919(3) 0.87759(12)
H10_4 H 0.4546 0.3618 0.8865
C21_4 C 0.43100(15) 0.2933(3) 0.78747(12)
C22_4 C 0.37189(15) 0.3520(3) 0.97516(12)
C23_4 C 0.42464(14) 0.6934(3) 0.75759(11)
O17_4 O 0.66670(10) 0.5213(2) 0.42788(8)
O23_4 O 0.51768(10) 0.3586(2) 0.69319(8)
O24_4 O 0.57452(10) 0.5300(2) 0.80151(8)
O25_4 O 0.71023(12) 0.6357(2) 0.34730(9)
H16_4 H 0.7253 0.6901 0.3702
C25_4 C 0.60750(15) 0.7136(3) 0.70927(12)
O33_4 O 0.40286(10) 0.3176(2) 0.47467(9)
O34_4 O 0.59878(11) 0.2744(2) 0.76088(8)
O35_4 O 0.73000(10) 0.4171(2) 0.50112(8)
C26_4 C 0.60712(15) 0.6095(3) 0.78935(12)
C27_4 C 0.63086(14) 0.1334(3) 0.59946(12)
O43_4 O 0.71551(13) 0.2702(2) 0.41066(11)
C28_4 C 0.63386(15) 0.1379(3) 0.68783(12)
H19_4 H 0.6486 0.1052 0.7221
C29_4 C 0.52074(15) 0.8433(3) 0.65243(12)
C30_4 C 0.49265(14) 0.9282(3) 0.60518(12)
C31_4 C 0.45622(15) 0.2713(3) 0.49655(12)
C32_4 C 0.67650(15) 0.4527(3) 0.46919(12)
C33_4 C 0.64432(14) 0.0580(3) 0.55964(11)
C34_4 C 0.50588(15) 0.3922(3) 0.44712(12)
H20_4 H 0.4648 0.4087 0.4219
C35_4 C 0.59135(13) 0.2410(3) 0.58509(11)
C36_4 C 0.55774(14) 0.4328(3) 0.43821(12)
H21_4 H 0.5518 0.4729 0.4065
C37_4 C 0.57548(14) 0.3056(3) 0.53251(11)
C38_4 C 0.51617(14) 0.7494(3) 0.73096(11)
C39_4 C 0.61865(14) 0.4129(3) 0.47700(12)
C40_4 C 0.59226(14) 0.2398(3) 0.67327(12)
C41_4 C 0.57996(15) 0.7866(3) 0.66444(12)
H22_4 H 0.6007 0.7983 0.6421
C42_4 C 0.65297(14) 0.0857(3) 0.65107(12)
H23_4 H 0.6810 0.0178 0.6608
C43_4 C 0.48986(14) 0.8233(3) 0.68579(11)
H24_4 H 0.4503 0.8606 0.6775
C44_4 C 0.57215(14) 0.2919(3) 0.62241(12)
H25_4 H 0.5454 0.3618 0.6135
C45_4 C 0.56900(15) 0.2933(3) 0.71253(12)
C46_4 C 0.62811(15) 0.3520(3) 0.52484(12)
C47_4 C 0.57536(14) 0.6934(3) 0.74241(11)
C48_4 C 0.51416(14) 0.3271(3) 0.49318(12)
H28_4 H 0.6743(9) 0.653(4) 0.3225(10)
H29_4 H 0.7313(19) 0.248(4) 0.4425(16)
H30_4 H 0.719(2) 0.209(3) 0.3925(18)
H31_4 H 0.345821 0.671364 0.780826
H32_4 H 0.323889 0.340889 0.944175
H33_4 H 0.654179 0.671364 0.719174
H34_4 H 0.676111 0.340889 0.555825
O8_4 O 0.30771(11) 0.8800(3) 0.02195(10)
H2_4 H 0.3005 0.8663 0.0482
O15_4 O 0.40767(11) 0.7375(2) 0.09771(9)
H3_4 H 0.4448 0.7320 0.1195
H11_4 H 0.3847(15) 0.672(2) 0.0899(15)
H12_4 H 0.284(2) 0.943(4) 0.007(2)
O29_4 O 0.69229(11) 0.8800(3) 0.47805(10)
H17_4 H 0.6995 0.8663 0.4518
O42_4 O 0.59233(11) 0.7375(2) 0.40229(9)
H18_4 H 0.5552 0.7320 0.3805
H26_4 H 0.6153(15) 0.672(2) 0.4101(15)
H27_4 H 0.716(2) 0.943(4) 0.493(2)
loop_
_geom_bond_atom_site_label_1
_geom_bond_atom_site_label_2
_geom_bond_site_symmetry_1
_geom_bond_site_symmetry_2
Zn1 O4 1_555 1_555
Zn2 O2 1_555 1_555
O2 C9 1_555 1_555
O4 C21 1_555 1_555
O11 C21 1_555 1_555
O13 C9 1_555 1_555
C3 C9 1_555 1_555
C4 H4 1_555 1_555
C11 C3 1_555 1_555
C13 C11 1_555 1_555
C16 C4 1_555 1_555
C18 C3 1_555 1_555
H8 C18 1_555 1_555
C20 C11 1_555 1_555
H10 C20 1_555 1_555
C21 C16 1_555 1_555
C22 C13 1_555 1_555
Zn10 O13 1_555 1_555
Zn17 O39 1_555 1_555
O32 Zn2 1_555 1_555
O33 C31 1_555 1_555
O39 Zn7 1_555 1_555
C31 O39 1_555 1_555
C4 C18 1_555 1_555
C16 C20 1_555 1_555
C22 H32 1_555 1_555
O8 Zn4 1_555 1_555
H2 O8 1_555 1_555
O15 Zn4 1_555 1_555
H3 O15 1_555 1_555
O16 Zn3 1_555 1_555
C8 C15 1_555 1_555
C12 C10 1_555 1_555
H6 C12 1_555 1_555
C15 C12 1_555 1_555
H11 O15 1_555 1_555
H12 O8 1_555 1_555
H14 O16 1_555 1_555
H15 O16 1_555 1_555
O21 Zn3 1_555 1_555
O27 Zn4 1_555 1_555
O37 Zn3 1_555 1_555
O40 Zn2_2 1_555 1_555
Zn4 O40 1_555 1_555
C10 C24 1_555 1_555
O3 C2 1_555 1_555
C1 C17 1_555 1_555
C2 O5 1_555 1_555
C17 C5 1_555 1_555
H7 C17 1_555 1_555
C23 C1 1_555 1_555
Zn9 O3 1_555 1_555
Zn17 O26 1_555 1_555
O26 C30 1_555 1_555
H24 C43 1_555 1_555
C2 C23 1_555 1_555
C14 C23 1_555 1_555
C1 H31 1_555 1_555
H1 O6 1_555 1_555
H13 O6 1_555 1_555
O14 Zn2_3 1_555 1_555
Zn7_2 O18 1_555 1_555
Zn12 O36 1_555 1_555
Zn13 O18 1_555 1_555
Zn15 O14 1_555 1_555
O18 C33 1_555 1_555
O22 Zn8 1_555 1_555
O23 Zn1_2 1_555 1_555
O28 Zn13 1_555 1_555
O29 Zn13 1_555 1_555
H17 O29 1_555 1_555
O34 C45 1_555 1_555
O35 C32 1_555 1_555
O36 C33 1_555 1_555
O38 Zn8 1_555 1_555
O41 Zn7_2 1_555 1_555
O42 Zn13 1_555 1_555
H18 O42 1_555 1_555
C27 C33 1_555 1_555
O43 Zn8 1_555 1_555
C28 H19 1_555 1_555
C32 C39 1_555 1_555
C35 C27 1_555 1_555
C36 C34 1_555 1_555
H21 C36 1_555 1_555
C37 C35 1_555 1_555
C39 C36 1_555 1_555
C40 C28 1_555 1_555
C42 C27 1_555 1_555
H23 C42 1_555 1_555
C44 C35 1_555 1_555
H25 C44 1_555 1_555
C45 O23 1_555 1_555
C46 C37 1_555 1_555
H26 O42 1_555 1_555
H27 O29 1_555 1_555
H29 O43 1_555 1_555
H30 O43 1_555 1_555
Zn13 O41 1_555 1_555
C28 C42 1_555 1_555
C34 C48 1_555 1_555
C37 C48 1_555 1_555
C39 C46 1_555 1_555
C40 C44 1_555 1_555
C40 C45 1_555 1_555
C46 H34 1_555 1_555
O10 C7 1_555 1_555
O19 Zn2_4 1_555 1_555
O31 Zn2_4 1_555 1_555
O7 C6 1_555 1_555
H9 C19 1_555 1_555
Zn7_2 O30 1_555 1_555
Zn11 O20 1_555 1_555
Zn15 O7 1_555 1_555
O20 C26 1_555 1_555
H16 O25 1_555 1_555
C25 C41 1_555 1_555
C26 O24 1_555 1_555
C41 C29 1_555 1_555
H22 C41 1_555 1_555
C47 C25 1_555 1_555
H28 O25 1_555 1_555
C26 C47 1_555 1_555
C38 C47 1_555 1_555
C25 H33 1_555 1_555
O19_2 Zn7 1_555 1_555
O31_2 Zn7 1_555 1_555
Zn17 O19_2 1_555 1_555
O29_2 Zn13_2 1_555 1_555
H17_2 O29_2 1_555 1_555
O32_2 Zn2_5 1_555 1_555
O41_2 Zn7_3 1_555 1_555
O42_2 Zn13_2 1_555 1_555
H18_2 O42_2 1_555 1_555
H26_2 O42_2 1_555 1_555
H27_2 O29_2 1_555 1_555
Zn13_2 O41_2 1_555 1_555
O8_2 Zn4_2 1_555 1_555
H2_2 O8_2 1_555 1_555
O15_2 Zn4_2 1_555 1_555
H3_2 O15_2 1_555 1_555
H11_2 O15_2 1_555 1_555
H12_2 O8_2 1_555 1_555
O19_3 Zn2_6 1_555 1_555
O40_2 Zn2_6 1_555 1_555
Zn4_2 O40_2 1_555 1_555
Zn1_3 O4_2 1_555 1_555
Zn2_7 O2_2 1_555 1_555
O2_2 C9_2 1_555 1_555
O3_2 C2_2 1_555 1_555
O4_2 C21_2 1_555 1_555
O5_2 Zn1_3 1_555 1_555
C1_2 C17_2 1_555 1_555
O7_2 C6_2 1_555 1_555
O32_2 C6_2 1_555 1_555
O11_2 C21_2 1_555 1_555
C2_2 O5_2 1_555 1_555
O13_2 C9_2 1_555 1_555
O14_2 Zn2_7 1_555 1_555
C3_2 C9_2 1_555 1_555
C4_2 H4_2 1_555 1_555
C5_2 C6_2 1_555 1_555
C11_2 C3_2 1_555 1_555
C13_2 C11_2 1_555 1_555
C14_2 C19_2 1_555 1_555
C16_2 C4_2 1_555 1_555
C17_2 C5_2 1_555 1_555
H7_2 C17_2 1_555 1_555
C18_2 C3_2 1_555 1_555
H8_2 C18_2 1_555 1_555
C19_2 C5_2 1_555 1_555
H9_2 C19_2 1_555 1_555
C20_2 C11_2 1_555 1_555
H10_2 C20_2 1_555 1_555
C21_2 C16_2 1_555 1_555
C22_2 C13_2 1_555 1_555
C23_2 C1_2 1_555 1_555
Zn7_3 O30_2 1_555 1_555
Zn7_4 O18_2 1_555 1_555
Zn8_2 O17_2 1_555 1_555
Zn12 O3_2 1_555 1_555
Zn11 O13_2 1_555 1_555
Zn10 O20_2 1_555 1_555
Zn9 O36_2 1_555 1_555
Zn15_2 O14_2 1_555 1_555
Zn17_2 O39_2 1_555 1_555
O17_2 C32_2 1_555 1_555
O18_2 C33_2 1_555 1_555
O20_2 C26_2 1_555 1_555
O22_2 Zn8_2 1_555 1_555
O23_2 Zn1_3 1_555 1_555
O24_2 Zn1_3 1_555 1_555
O25_2 Zn8_2 1_555 1_555
H16_2 O25_2 1_555 1_555
C25_2 C41_2 1_555 1_555
O26_2 C30_2 1_555 1_555
O30_2 C30_2 1_555 1_555
O33_2 C31_2 1_555 1_555
O34_2 C45_2 1_555 1_555
O35_2 C32_2 1_555 1_555
C26_2 O24_2 1_555 1_555
O36_2 C33_2 1_555 1_555
O38_2 Zn8_2 1_555 1_555
O39_2 Zn7_4 1_555 1_555
C27_2 C33_2 1_555 1_555
O43_2 Zn8_2 1_555 1_555
C28_2 H19_2 1_555 1_555
C29_2 C30_2 1_555 1_555
C31_2 O39_2 1_555 1_555
C32_2 C39_2 1_555 1_555
C34_2 H20_2 1_555 1_555
C35_2 C27_2 1_555 1_555
C36_2 C34_2 1_555 1_555
H21_2 C36_2 1_555 1_555
C37_2 C35_2 1_555 1_555
C38_2 C14_2 1_555 1_555
C39_2 C36_2 1_555 1_555
C40_2 C28_2 1_555 1_555
C41_2 C29_2 1_555 1_555
H22_2 C41_2 1_555 1_555
C42_2 C27_2 1_555 1_555
H23_2 C42_2 1_555 1_555
C43_2 C29_2 1_555 1_555
H24_2 C43_2 1_555 1_555
C44_2 C35_2 1_555 1_555
H25_2 C44_2 1_555 1_555
C45_2 O23_2 1_555 1_555
C46_2 C37_2 1_555 1_555
C47_2 C25_2 1_555 1_555
C48_2 C31_2 1_555 1_555
H28_2 O25_2 1_555 1_555
H29_2 O43_2 1_555 1_555
H30_2 O43_2 1_555 1_555
C2_2 C23_2 1_555 1_555
C4_2 C18_2 1_555 1_555
C14_2 C23_2 1_555 1_555
C16_2 C20_2 1_555 1_555
C26_2 C47_2 1_555 1_555
C28_2 C42_2 1_555 1_555
C34_2 C48_2 1_555 1_555
C37_2 C48_2 1_555 1_555
C38_2 C43_2 1_555 1_555
C38_2 C47_2 1_555 1_555
C39_2 C46_2 1_555 1_555
C40_2 C44_2 1_555 1_555
C40_2 C45_2 1_555 1_555
C1_2 H31_2 1_555 1_555
C22_2 H32_2 1_555 1_555
C25_2 H33_2 1_555 1_555
C46_2 H34_2 1_555 1_555
Zn3_2 O1_2 1_555 1_555
O1_2 C8_2 1_555 1_555
O6_2 Zn3_2 1_555 1_555
H1_2 O6_2 1_555 1_555
O10_2 C7_2 1_555 1_555
O16_2 Zn3_2 1_555 1_555
C8_2 C15_2 1_555 1_555
C10_2 H5_2 1_555 1_555
C12_2 C10_2 1_555 1_555
H6_2 C12_2 1_555 1_555
C15_2 C12_2 1_555 1_555
C24_2 C7_2 1_555 1_555
H13_2 O6_2 1_555 1_555
H14_2 O16_2 1_555 1_555
H15_2 O16_2 1_555 1_555
O21_2 Zn3_2 1_555 1_555
O31_3 Zn2_8 1_555 1_555
O37_2 Zn3_2 1_555 1_555
C10_2 C24_2 1_555 1_555
O19_4 Zn7_3 1_555 1_555
O31_4 Zn7_4 1_555 1_555
O27 C6_3 1_555 1_555
H9_3 C19_3 1_555 1_555
O21 C26_3 1_555 1_555
H16_3 O25_3 1_555 1_555
C25_3 C41_3 1_555 1_555
C26_3 O24_3 1_555 1_555
C41_3 C29_3 1_555 1_555
H22_3 C41_3 1_555 1_555
C47_3 C25_3 1_555 1_555
H28_3 O25_3 1_555 1_555
C26_3 C47_3 1_555 1_555
C38_3 C47_3 1_555 1_555
C25_3 H33_3 1_555 1_555
O10_3 C7_3 1_555 1_555
O19_2 C33_3 1_555 1_555
O23_3 Zn1_4 1_555 1_555
O29_3 Zn17 1_555 1_555
H17_3 O29_3 1_555 1_555
O34_3 C45_3 1_555 1_555
O35_3 C32_3 1_555 1_555
O38_2 C33_3 1_555 1_555
O42_3 Zn17 1_555 1_555
H18_3 O42_3 1_555 1_555
C27_3 C33_3 1_555 1_555
O43_3 Zn9 1_555 1_555
C28_3 H19_3 1_555 1_555
C32_3 C39_3 1_555 1_555
C35_3 C27_3 1_555 1_555
C36_3 C34_3 1_555 1_555
H21_3 C36_3 1_555 1_555
C37_3 C35_3 1_555 1_555
C39_3 C36_3 1_555 1_555
C40_3 C28_3 1_555 1_555
C42_3 C27_3 1_555 1_555
H23_3 C42_3 1_555 1_555
C44_3 C35_3 1_555 1_555
H25_3 C44_3 1_555 1_555
C45_3 O23_3 1_555 1_555
C46_3 C37_3 1_555 1_555
H26_3 O42_3 1_555 1_555
H27_3 O29_3 1_555 1_555
H29_3 O43_3 1_555 1_555
H30_3 O43_3 1_555 1_555
C28_3 C42_3 1_555 1_555
C34_3 C48_3 1_555 1_555
C37_3 C48_3 1_555 1_555
C39_3 C46_3 1_555 1_555
C40_3 C44_3 1_555 1_555
C40_3 C45_3 1_555 1_555
C46_3 H34_3 1_555 1_555
H1_3 O6_3 1_555 1_555
H13_3 O6_3 1_555 1_555
O22 C2_3 1_555 1_555
C1_3 C17_3 1_555 1_555
C2_3 O5_3 1_555 1_555
C17_3 C5_3 1_555 1_555
H7_3 C17_3 1_555 1_555
C23_3 C1_3 1_555 1_555
O28 C30_3 1_555 1_555
H24_3 C43_3 1_555 1_555
C2_3 C23_3 1_555 1_555
C14_3 C23_3 1_555 1_555
C1_3 H31_3 1_555 1_555
O8_3 Zn15 1_555 1_555
H2_3 O8_3 1_555 1_555
O15_3 Zn15 1_555 1_555
H3_3 O15_3 1_555 1_555
O16_3 Zn11 1_555 1_555
C8_3 C15_3 1_555 1_555
C12_3 C10_3 1_555 1_555
H6_3 C12_3 1_555 1_555
C15_3 C12_3 1_555 1_555
H11_3 O15_3 1_555 1_555
H12_3 O8_3 1_555 1_555
H14_3 O16_3 1_555 1_555
H15_3 O16_3 1_555 1_555
C10_3 C24_3 1_555 1_555
Zn1_5 O4_3 1_555 1_555
O19 C9_3 1_555 1_555
O4_3 C21_3 1_555 1_555
O11_3 C21_3 1_555 1_555
O37_2 C9_3 1_555 1_555
C3_3 C9_3 1_555 1_555
C4_3 H4_3 1_555 1_555
C11_3 C3_3 1_555 1_555
C13_3 C11_3 1_555 1_555
C16_3 C4_3 1_555 1_555
C18_3 C3_3 1_555 1_555
H8_3 C18_3 1_555 1_555
C20_3 C11_3 1_555 1_555
H10_3 C20_3 1_555 1_555
C21_3 C16_3 1_555 1_555
C22_3 C13_3 1_555 1_555
O33_3 C31_3 1_555 1_555
C31_3 O41 1_555 1_555
C4_3 C18_3 1_555 1_555
C16_3 C20_3 1_555 1_555
C22_3 H32_3 1_555 1_555
Zn10 O1_4 1_555 1_555
O1_4 C8_4 1_555 1_555
O6_4 Zn10 1_555 1_555
H1_4 O6_4 1_555 1_555
O10_4 C7_4 1_555 1_555
O16_4 Zn10 1_555 1_555
C8_4 C15_4 1_555 1_555
C10_4 H5_4 1_555 1_555
C12_4 C10_4 1_555 1_555
H6_4 C12_4 1_555 1_555
C15_4 C12_4 1_555 1_555
C24_4 C7_4 1_555 1_555
H13_4 O6_4 1_555 1_555
H14_4 O16_4 1_555 1_555
H15_4 O16_4 1_555 1_555
C10_4 C24_4 1_555 1_555
Zn1_6 O4_4 1_555 1_555
O19_3 C9_4 1_555 1_555
O22_2 C2_4 1_555 1_555
O4_4 C21_4 1_555 1_555
O5_4 Zn1_6 1_555 1_555
C1_4 C17_4 1_555 1_555
O27_2 C6_4 1_555 1_555
O31_3 C6_4 1_555 1_555
O11_4 C21_4 1_555 1_555
C2_4 O5_4 1_555 1_555
O37 C9_4 1_555 1_555
C3_4 C9_4 1_555 1_555
C4_4 H4_4 1_555 1_555
C5_4 C6_4 1_555 1_555
C11_4 C3_4 1_555 1_555
C13_4 C11_4 1_555 1_555
C14_4 C19_4 1_555 1_555
C16_4 C4_4 1_555 1_555
C17_4 C5_4 1_555 1_555
H7_4 C17_4 1_555 1_555
C18_4 C3_4 1_555 1_555
H8_4 C18_4 1_555 1_555
C19_4 C5_4 1_555 1_555
H9_4 C19_4 1_555 1_555
C20_4 C11_4 1_555 1_555
H10_4 C20_4 1_555 1_555
C21_4 C16_4 1_555 1_555
C22_4 C13_4 1_555 1_555
C23_4 C1_4 1_555 1_555
Zn12 O17_4 1_555 1_555
O17_4 C32_4 1_555 1_555
O19_4 C33_4 1_555 1_555
O21_2 C26_4 1_555 1_555
O23_4 Zn1_6 1_555 1_555
O24_4 Zn1_6 1_555 1_555
O25_4 Zn12 1_555 1_555
H16_4 O25_4 1_555 1_555
C25_4 C41_4 1_555 1_555
O28_2 C30_4 1_555 1_555
O31_4 C30_4 1_555 1_555
O33_4 C31_4 1_555 1_555
O34_4 C45_4 1_555 1_555
O35_4 C32_4 1_555 1_555
C26_4 O24_4 1_555 1_555
O38 C33_4 1_555 1_555
C27_4 C33_4 1_555 1_555
O43_4 Zn12 1_555 1_555
C28_4 H19_4 1_555 1_555
C29_4 C30_4 1_555 1_555
C31_4 O41_2 1_555 1_555
C32_4 C39_4 1_555 1_555
C34_4 H20_4 1_555 1_555
C35_4 C27_4 1_555 1_555
C36_4 C34_4 1_555 1_555
H21_4 C36_4 1_555 1_555
C37_4 C35_4 1_555 1_555
C38_4 C14_4 1_555 1_555
C39_4 C36_4 1_555 1_555
C40_4 C28_4 1_555 1_555
C41_4 C29_4 1_555 1_555
H22_4 C41_4 1_555 1_555
C42_4 C27_4 1_555 1_555
H23_4 C42_4 1_555 1_555
C43_4 C29_4 1_555 1_555
H24_4 C43_4 1_555 1_555
C44_4 C35_4 1_555 1_555
H25_4 C44_4 1_555 1_555
C45_4 O23_4 1_555 1_555
C46_4 C37_4 1_555 1_555
C47_4 C25_4 1_555 1_555
C48_4 C31_4 1_555 1_555
H28_4 O25_4 1_555 1_555
H29_4 O43_4 1_555 1_555
H30_4 O43_4 1_555 1_555
C2_4 C23_4 1_555 1_555
C4_4 C18_4 1_555 1_555
C14_4 C23_4 1_555 1_555
C16_4 C20_4 1_555 1_555
C26_4 C47_4 1_555 1_555
C28_4 C42_4 1_555 1_555
C34_4 C48_4 1_555 1_555
C37_4 C48_4 1_555 1_555
C38_4 C43_4 1_555 1_555
C38_4 C47_4 1_555 1_555
C39_4 C46_4 1_555 1_555
C40_4 C44_4 1_555 1_555
C40_4 C45_4 1_555 1_555
C1_4 H31_4 1_555 1_555
C22_4 H32_4 1_555 1_555
C25_4 H33_4 1_555 1_555
C46_4 H34_4 1_555 1_555
O8_4 Zn15_2 1_555 1_555
H2_4 O8_4 1_555 1_555
O15_4 Zn15_2 1_555 1_555
H3_4 O15_4 1_555 1_555
H11_4 O15_4 1_555 1_555
H12_4 O8_4 1_555 1_555
O29_4 Zn17_2 1_555 1_555
H17_4 O29_4 1_555 1_555
O42_4 Zn17_2 1_555 1_555
H18_4 O42_4 1_555 1_555
H26_4 O42_4 1_555 1_555
H27_4 O29_4 1_555 1_555

#END
