
###############################################################################
#
# This file contains modified crystal structure data generated from the
# MOF subset of the Cambridge Structural Database (CSD) v543 
# hosted by the Cambridge Crystallographic Data Centre (CCDC).
#
# This work is licensed under the Creative Commons
# Attribution-NonCommercial-ShareAlike 4.0 International License.
# To view a copy of this license, visit
# http://creativecommons.org/licenses/by-nc-sa/4.0/
# or send a letter to
# Creative Commons, PO Box 1866, Mountain View, CA 94042, USA.
#
# CIF created using the CSD Python API on 29 September 2022
# The structure has been converted into the P1 space group
# The structure has a 3D framework
# The original CSD entry GAWKEW is in the monoclinic crystal system
# The framework has been calculated to contain at least 10.0% void space
# The void calculation uses a probe of radius 1.32A, grid spacing 0.4
# H atom positions have been added when not included in the experimental data
#
###############################################################################

data_GAWKEW
_chemical_formula_moiety         '(C48 H144 Cu32 N72 O304 P8 W72)n'
_symmetry_cell_setting           triclinic
_symmetry_space_group_name_H-M   'P 1'
_symmetry_Int_Tables_number      1
_space_group_name_Hall           'P 1'
loop_
_symmetry_equiv_pos_site_id
_symmetry_equiv_pos_as_xyz
1 x,y,z
_cell_length_a                   18.432(5)
_cell_length_b                   14.907(5)
_cell_length_c                   33.284(5)
_cell_angle_alpha                90
_cell_angle_beta                 97.890(5)
_cell_angle_gamma                90
_cell_volume                     9058.73
loop_
_atom_site_label
_atom_site_type_symbol
_atom_site_fract_x
_atom_site_fract_y
_atom_site_fract_z
W1 W 0.10197(5) 0.13925(6) 0.50040(3)
P1 P 0.1660(3) 0.2627(3) 0.42160(18)
O1 O 0.3253(8) 0.2222(10) 0.5611(6)
N1 N 0.0299(12) 0.1637(16) 0.1722(9)
W2 W 0.41878(5) 0.33394(6) 0.27736(3)
P2 P 0.3351(3) 0.3383(3) 0.36801(18)
O4 O 0.0905(8) 0.0745(9) 0.5417(6)
C2 C 0.0896(16) 0.117(2) 0.1681(12)
H2 H 0.1000 0.0943 0.1436
C3 C 0.6256(12) 0.0891(14) 0.4248(8)
H3 H 0.5892 0.1294 0.4296
O8 O 0.8446(9) 0.1431(13) 0.4751(7)
W4 W 0.44384(5) 0.51491(6) 0.34026(3)
O9 O 0.0637(7) 0.0833(10) 0.3883(6)
N4 N 0.1314(9) 0.1069(12) 0.2019(7)
Cu4 Cu 0.05186(18) 0.6969(3) 0.37117(12)
O10 O 0.7585(16) 0.3027(14) 0.4370(8)
W5 W 0.25294(5) 0.05853(6) 0.44752(3)
O11 O 0.4431(9) 0.3216(11) 0.2302(6)
C5 C 0.0939(13) 0.1499(16) 0.2283(9)
H5 H 0.1092 0.1519 0.2561
O12 O 0.6452(10) 0.2369(18) 0.4873(8)
Cu5 Cu 0.22938(14) 0.03409(17) 0.20739(10)
W6 W 0.52704(5) 0.31774(6) 0.36887(3)
Cu6 Cu 0.20471(13) 0.78835(17) 0.34195(9)
O13 O 0.3734(9) 0.6267(11) 0.4543(7)
W7 W 0.14664(5) 0.07232(6) 0.35781(3)
O15 O 0.3431(8) 0.5388(9) 0.3247(5)
Cu8 Cu 0.74513(15) 0.19060(19) 0.47960(10)
W8 W 0.08385(5) 0.46522(6) 0.38945(4)
O17 O 0.3822(8) 0.2203(9) 0.2882(6)
C9 C 0.7582(13) 0.2179(15) 0.5690(9)
H9 H 0.7135 0.1895 0.5696
W9 W 0.28321(5) 0.25589(6) 0.51399(3)
O18 O 0.5082(8) 0.3047(9) 0.3091(5)
C10 C 0.7291(12) 0.0261(14) 0.4259(8)
H10 H 0.7787 0.0125 0.4310
W10 W 0.41076(5) 0.13245(6) 0.39624(3)
O19 O 0.2676(8) 0.3839(10) 0.3437(5)
C11 C 0.8490(12) 0.2789(16) 0.5494(10)
H11 H 0.8818 0.3026 0.5333
W11 W 0.02034(5) 0.33750(6) 0.47223(4)
N10 N 0.7842(11) 0.2412(13) 0.5341(7)
O21 O 0.1929(8) 0.5423(10) 0.5166(6)
N11 N 0.8607(10) 0.2786(13) 0.5882(7)
W12 W 0.05906(5) 0.28868(6) 0.32741(3)
O22 O 0.3304(8) 0.2339(10) 0.3649(6)
O23 O 0.5038(19) 0.013(2) 0.3127(11)
N12 N 0.8015(9) 0.2389(12) 0.6005(7)
W13 W 0.24243(5) 0.53426(6) 0.33781(4)
O24 O 0.2851(8) 0.5403(10) 0.3922(5)
N13 N 0.6994(9) 0.1017(11) 0.4386(6)
W14 W 0.30590(5) 0.14469(6) 0.30606(3)
O25 O 0.0982(8) 0.2347(9) 0.4416(5)
W15 W 0.20130(5) 0.45005(6) 0.48634(4)
O27 O 0.0377(9) 0.5679(12) 0.3898(6)
O28 O 0.022(2) 0.402(2) 0.2130(14)
W16 W 0.21813(5) 0.35828(6) 0.27540(4)
O30 O 0.4443(8) 0.4586(9) 0.2877(5)
N16 N 0.6129(9) 0.0160(11) 0.4050(7)
W17 W 0.35989(5) 0.51872(6) 0.43567(4)
O31 O 0.2993(9) 0.0709(10) 0.2664(6)
W18 W 0.44198(5) 0.32605(7) 0.46284(4)
O32 O 0.6191(9) 0.2913(11) 0.3788(6)
N18 N 0.0342(10) 0.1881(12) 0.2108(7)
O34 O 0.1527(8) 0.5012(10) 0.3543(6)
O35 O 0.1369(8) 0.3248(9) 0.3867(6)
O36 O 0.0251(8) 0.4039(9) 0.4245(5)
O38 O 0.3639(8) 0.3040(10) 0.4937(5)
O39 O 0.1306(7) 0.3401(9) 0.3000(5)
O40 O 0.3791(7) 0.0863(9) 0.3414(5)
O41 O 0.2331(7) 0.0919(9) 0.3352(5)
O42 O 0.4829(7) 0.2044(9) 0.3730(5)
O43 O 0.1664(7) 0.0689(9) 0.4711(5)
O44 O 0.1765(9) 0.3525(11) 0.2248(6)
O45 O 0.0284(8) 0.4046(10) 0.3431(6)
O46 O 0.2921(8) 0.1481(9) 0.4826(5)
O47 O 0.2918(8) 0.4798(9) 0.4688(6)
O48 O 0.2400(8) 0.2343(9) 0.2871(6)
O49 O 0.4242(8) 0.2084(9) 0.4403(6)
O50 O 0.4336(7) 0.4537(9) 0.4684(5)
O51 O 0.1962(7) 0.0052(9) 0.4008(6)
O52 O 0.1980(8) 0.1760(10) 0.4056(5)
O53 O 0.3183(8) 0.3720(10) 0.2663(6)
O54 O 0.0403(8) 0.2394(9) 0.5107(6)
O55 O 0.3276(7) 0.0822(9) 0.4147(5)
O57 O 0.2108(8) 0.4839(9) 0.2847(5)
O58 O 0.5037(8) 0.3450(10) 0.4205(6)
O60 O 0.5293(7) 0.4458(9) 0.3584(5)
O61 O 0.3483(8) 0.3710(10) 0.4117(6)
O62 O 0.1094(8) 0.1773(10) 0.3309(5)
O63 O 0.0218(8) 0.0980(10) 0.4616(6)
O65 O 0.2205(7) 0.3110(9) 0.4537(5)
O66 O 0.2507(7) 0.3727(9) 0.5267(5)
O67 O 0.0028(7) 0.2362(9) 0.3673(5)
O68 O 0.1536(8) 0.4837(10) 0.4344(6)
O69 O 0.4691(8) 0.0410(10) 0.4128(6)
O70 O 0.4829(8) 0.6202(9) 0.3317(6)
O71 O 0.5109(10) 0.2995(13) 0.5014(6)
O72 O 0.4254(7) 0.5273(10) 0.3947(5)
O73 O 0.1089(8) 0.3908(9) 0.4932(5)
O74 O 0.2226(9) 0.6455(10) 0.3266(6)
O75 O 0.4042(7) 0.3665(9) 0.3470(5)
O76 O 0.1858(7) 0.2066(9) 0.5189(5)
O78 O 0.0963(9) 0.7628(16) 0.3319(6)
Cu9 Cu 0.31622(14) 0.13861(18) 0.62394(11)
Cu11 Cu 0.94814(18) 0.3031(3) 0.62883(12)
N20 N 0.1928(9) 0.8394(12) 0.2877(7)
Cu15 Cu 0.79529(13) 0.21165(17) 0.65805(9)
Cu17 Cu 0.52862(13) 0.73766(17) 0.35016(10)
N21 N 0.2834(10) 0.1259(12) 0.1814(7)
N22 N 0.1393(10) 0.7214(13) 0.4118(7)
N23 N 0.1985(9) 0.7611(12) 0.3995(7)
N24 N 0.3153(10) 0.8184(13) 0.3514(7)
H13 H 0.679316 0.00523142 0.320293
H15 H 0.881818 0.189552 0.48429
H16 H 0.85386 0.0888375 0.492346
H19 H 0.766966 0.277847 0.410356
H20 H 0.713465 0.340049 0.433422
H21 H 0.650444 0.28534 0.507975
H22 H 0.620277 0.26097 0.461178
H25 H 0.456382 0.0453396 0.307163
H26 H 0.54455 0.0551548 0.309969
H36 H 0.0544212 0.419835 0.238048
C1 C 0.3566(12) 0.8887(16) 0.3692(10)
H1 H 0.3368 0.9387 0.3803
Cu1 Cu 0.51941(14) 0.94753(18) 0.38710(11)
O3 O 0.7054(17) 0.9470(16) 0.3200(10)
N2 N 0.4256(9) 0.8773(11) 0.3686(7)
O5 O 0.5740(7) 0.8601(10) 0.3586(5)
O6 O 0.5425(11) 0.8705(15) 0.4518(8)
Cu2 Cu 0.68378(14) 0.86139(18) 0.37606(11)
O7 O 0.1097(9) 0.9896(10) 0.3257(6)
C4 C 0.7392(14) 0.7069(16) 0.3328(9)
H4 H 0.7858 0.7307 0.3328
N6 N 0.4322(9) 0.7917(12) 0.3518(7)
O14 O 0.5300(10) 0.6932(11) 0.4160(6)
C7 C 0.3660(11) 0.7616(14) 0.3434(8)
H7 H 0.3553 0.7048 0.3327
O16 O 0.7931(8) 0.8531(12) 0.3931(6)
N7 N 0.7166(10) 0.6259(12) 0.3186(7)
N8 N 0.6839(9) 0.7473(12) 0.3469(7)
N9 N 0.6795(10) 0.9734(12) 0.4054(7)
C12 C 0.6472(13) 0.6235(16) 0.3225(9)
H12 H 0.6169 0.5754 0.3140
O26 O 0.2893(18) 0.945(2) 0.1823(13)
N14 N 0.6239(10) 0.6960(12) 0.3398(7)
O59 O 0.2888(10) 0.9629(11) 0.4721(6)
O77 O 0.6747(8) 0.7778(10) 0.4389(6)
Cu12 Cu 0.77062(14) 0.53409(17) 0.29261(10)
N25 N 0.1942(10) 0.9395(12) 0.2379(7)
H14 H 0.758793 0.958024 0.321245
H17 H 0.547987 0.805218 0.447102
H18 H 0.588168 0.894121 0.467545
H23 H 0.500704 0.735813 0.430131
H24 H 0.508625 0.632152 0.416619
H29 H 0.813693 0.91433 0.397895
H30 H 0.803126 0.81742 0.418448
H31 H 0.300046 0.968067 0.155756
H32 H 0.335963 0.934676 0.20046
O2 O 0.9037(9) 0.2628(16) 0.1681(6)
Cu3 Cu 0.95202(15) 0.2556(2) 0.22662(11)
W3 W 0.99403(5) 0.15597(6) 0.40976(3)
N3 N 0.8733(9) 0.3354(12) 0.2379(7)
N5 N 0.8072(9) 0.3394(12) 0.2123(7)
C6 C 0.7698(13) 0.4028(15) 0.2271(9)
H6 H 0.7236 0.4212 0.2151
C8 C 0.8699(13) 0.3954(14) 0.2671(9)
H8 H 0.9072 0.4057 0.2884
O20 O 0.9831(17) 0.771(2) 0.4044(11)
O29 O 0.8978(16) 0.1244(18) 0.2484(10)
N17 N 0.8058(10) 0.4395(12) 0.2621(7)
O33 O 0.9959(8) 0.2693(10) 0.2841(5)
O37 O 0.9569(9) 0.3979(11) 0.4975(6)
O56 O 0.9565(8) 0.2512(10) 0.4402(6)
O64 O 0.9122(8) 0.0991(11) 0.3936(6)
N19 N 0.9701(12) 0.6637(16) 0.3278(9)
Cu10 Cu 0.94814(18) 0.1969(3) 0.12883(12)
Cu14 Cu 0.79529(13) 0.28835(17) 0.15805(9)
H27 H 0.99913 0.762537 0.433874
H28 H 0.985911 0.835608 0.397515
H33 H 0.909639 0.0728532 0.231554
H34 H 0.917055 0.112693 0.277269
H35 H 0.986215 0.450697 0.204886
O20_2 O 0.0169(17) 0.271(2) 0.0956(11)
H27_2 H 0.00086999 0.262537 0.0661256
H28_2 H 0.0140893 0.335608 0.102485
Cu3_2 Cu 0.04798(15) 0.7556(2) 0.27338(11)
W3_2 W 0.00597(5) 0.65597(6) 0.09024(3)
N3_2 N 0.1267(9) 0.8354(12) 0.2621(7)
C6_2 C 0.2302(13) 0.9028(15) 0.2729(9)
H6_2 H 0.2764 0.9212 0.2849
C8_2 C 0.1301(13) 0.8954(14) 0.2329(9)
H8_2 H 0.0928 0.9057 0.2116
O29_2 O 0.1022(16) 0.6244(18) 0.2516(10)
O33_2 O 0.0041(8) 0.7693(10) 0.2159(5)
O37_2 O 0.0431(9) 0.8979(11) 0.0025(6)
O56_2 O 0.0435(8) 0.7512(10) 0.0598(6)
O64_2 O 0.0878(8) 0.5991(11) 0.1064(6)
H33_2 H 0.0903613 0.572853 0.268446
H34_2 H 0.0829446 0.612693 0.222731
H35_2 H 0.0137847 0.950697 0.295114
W4_2 W 0.55616(5) 0.01491(6) 0.15974(3)
O13_2 O 0.6266(9) 0.1267(11) 0.0457(7)
O15_2 O 0.6569(8) 0.0388(9) 0.1753(5)
W13_2 W 0.75757(5) 0.03426(6) 0.16219(4)
O24_2 O 0.7149(8) 0.0403(10) 0.1078(5)
O27_2 O 0.9623(9) 0.0679(12) 0.1102(6)
W17_2 W 0.64011(5) 0.01872(6) 0.06433(4)
O34_2 O 0.8473(8) 0.0012(10) 0.1457(6)
O70_2 O 0.5171(8) 0.1202(9) 0.1683(6)
O72_2 O 0.5746(7) 0.0273(10) 0.1053(5)
O74_2 O 0.7774(9) 0.1455(10) 0.1734(6)
Cu17_2 Cu 0.47138(13) 0.23766(17) 0.14984(10)
N22_2 N 0.8607(10) 0.2214(13) 0.0882(7)
N23_2 N 0.8015(9) 0.2611(12) 0.1005(7)
N24_2 N 0.6847(10) 0.3184(13) 0.1486(7)
P1_2 P 0.8340(3) 0.7627(3) 0.07840(18)
C1_2 C 0.6434(12) 0.3887(16) 0.1308(10)
H1_2 H 0.6632 0.4387 0.1197
Cu1_2 Cu 0.48059(14) 0.44753(18) 0.11290(11)
O3_2 O 0.2946(17) 0.4470(16) 0.1800(10)
W2_2 W 0.58122(5) 0.83394(6) 0.22264(3)
P2_2 P 0.6649(3) 0.8383(3) 0.13199(18)
N2_2 N 0.5744(9) 0.3773(11) 0.1314(7)
C2_2 C 0.9104(16) 0.617(2) 0.3319(12)
H2_2 H 0.9000 0.5943 0.3564
O5_2 O 0.4260(7) 0.3601(10) 0.1414(5)
O6_2 O 0.4575(11) 0.3705(15) 0.0482(8)
Cu2_2 Cu 0.31622(14) 0.36139(18) 0.12394(11)
O7_2 O 0.8903(9) 0.4896(10) 0.1743(6)
C3_2 C 0.3744(12) 0.5891(14) 0.0752(8)
H3_2 H 0.4108 0.6294 0.0704
O8_2 O 0.1554(9) 0.6431(13) 0.0249(7)
O9_2 O 0.9363(7) 0.5833(10) 0.1117(6)
N4_2 N 0.8686(9) 0.6069(12) 0.2981(7)
C4_2 C 0.2608(14) 0.2069(16) 0.1672(9)
H4_2 H 0.2142 0.2307 0.1672
O10_2 O 0.2415(16) 0.8027(14) 0.0630(8)
W5_2 W 0.74706(5) 0.55853(6) 0.05248(3)
O11_2 O 0.5569(9) 0.8216(11) 0.2698(6)
C5_2 C 0.9061(13) 0.6499(16) 0.2717(9)
H5_2 H 0.8908 0.6519 0.2439
O12_2 O 0.3548(10) 0.7369(18) 0.0127(8)
W6_2 W 0.47296(5) 0.81774(6) 0.13113(3)
N6_2 N 0.5678(9) 0.2917(12) 0.1482(7)
O14_2 O 0.4700(10) 0.1932(11) 0.0840(6)
W7_2 W 0.85336(5) 0.57232(6) 0.14219(3)
C7_2 C 0.6340(11) 0.2616(14) 0.1566(8)
H7_2 H 0.6447 0.2048 0.1673
O16_2 O 0.2069(8) 0.3531(12) 0.1069(6)
Cu8_2 Cu 0.25487(15) 0.69060(19) 0.02040(10)
W8_2 W 0.91615(5) 0.96522(6) 0.11055(4)
O17_2 O 0.6178(8) 0.7203(9) 0.2118(6)
N8_2 N 0.3161(9) 0.2473(12) 0.1531(7)
O18_2 O 0.4918(8) 0.8047(9) 0.1909(5)
C10_2 C 0.2709(12) 0.5261(14) 0.0741(8)
H10_2 H 0.2213 0.5125 0.0690
W10_2 W 0.58924(5) 0.63245(6) 0.10376(3)
N9_2 N 0.3205(10) 0.4734(12) 0.0946(7)
O19_2 O 0.7324(8) 0.8839(10) 0.1563(5)
W11_2 W 0.97966(5) 0.83750(6) 0.02777(4)
C12_2 C 0.3528(13) 0.1235(16) 0.1775(9)
H12_2 H 0.3831 0.0754 0.1860
W12_2 W 0.94094(5) 0.78868(6) 0.17259(3)
O22_2 O 0.6696(8) 0.7339(10) 0.1351(6)
O23_2 O 0.4962(19) 0.513(2) 0.1873(11)
N13_2 N 0.3006(9) 0.6017(11) 0.0614(6)
W14_2 W 0.69410(5) 0.64469(6) 0.19394(3)
O25_2 O 0.9018(8) 0.7347(9) 0.0584(5)
O26_2 O 0.7107(18) 0.445(2) 0.3177(13)
N14_2 N 0.3761(10) 0.1960(12) 0.1602(7)
W15_2 W 0.79870(5) 0.95005(6) 0.01366(4)
O28_2 O 0.978(2) 0.902(2) 0.2870(14)
W16_2 W 0.78187(5) 0.85828(6) 0.22460(4)
O30_2 O 0.5557(8) 0.9586(9) 0.2123(5)
N16_2 N 0.3871(9) 0.5160(11) 0.0950(7)
O31_2 O 0.7007(9) 0.5709(10) 0.2336(6)
W18_2 W 0.55802(5) 0.82605(7) 0.03716(4)
O32_2 O 0.3809(9) 0.7913(11) 0.1212(6)
N18_2 N 0.9658(10) 0.6881(12) 0.2892(7)
O35_2 O 0.8631(8) 0.8248(9) 0.1133(6)
O36_2 O 0.9749(8) 0.9039(9) 0.0755(5)
O38_2 O 0.6361(8) 0.8040(10) 0.0063(5)
O39_2 O 0.8694(7) 0.8401(9) 0.2000(5)
O40_2 O 0.6209(7) 0.5863(9) 0.1586(5)
O41_2 O 0.7669(7) 0.5919(9) 0.1648(5)
O42_2 O 0.5171(7) 0.7044(9) 0.1270(5)
O43_2 O 0.8336(7) 0.5689(9) 0.0289(5)
O44_2 O 0.8235(9) 0.8525(11) 0.2752(6)
O45_2 O 0.9716(8) 0.9046(10) 0.1569(6)
O46_2 O 0.7079(8) 0.6481(9) 0.0174(5)
O47_2 O 0.7082(8) 0.9798(9) 0.0312(6)
O48_2 O 0.7600(8) 0.7343(9) 0.2129(6)
O49_2 O 0.5758(8) 0.7084(9) 0.0597(6)
O50_2 O 0.5664(7) 0.9537(9) 0.0316(5)
O51_2 O 0.8038(7) 0.5052(9) 0.0992(6)
O52_2 O 0.8020(8) 0.6760(10) 0.0944(5)
O53_2 O 0.6817(8) 0.8720(10) 0.2337(6)
O55_2 O 0.6724(7) 0.5822(9) 0.0853(5)
O57_2 O 0.7892(8) 0.9839(9) 0.2153(5)
O58_2 O 0.4963(8) 0.8450(10) 0.0795(6)
O59_2 O 0.7112(10) 0.4629(11) 0.0279(6)
O60_2 O 0.4707(7) 0.9458(9) 0.1416(5)
O61_2 O 0.6517(8) 0.8710(10) 0.0883(6)
O62_2 O 0.8906(8) 0.6773(10) 0.1691(5)
O63_2 O 0.9782(8) 0.5980(10) 0.0384(6)
O65_2 O 0.7795(7) 0.8110(9) 0.0463(5)
O67_2 O 0.9972(7) 0.7362(9) 0.1327(5)
O68_2 O 0.8464(8) 0.9837(10) 0.0656(6)
O69_2 O 0.5309(8) 0.5410(10) 0.0872(6)
O73_2 O 0.8911(8) 0.8908(9) 0.0068(5)
O75_2 O 0.5958(7) 0.8665(9) 0.1530(5)
O77_2 O 0.3253(8) 0.2778(10) 0.0611(6)
H13_2 H 0.320684 0.505231 0.179707
H14_2 H 0.241207 0.458024 0.178755
H15_2 H 0.118182 0.689552 0.0157103
H16_2 H 0.14614 0.588837 0.00765354
H17_2 H 0.452013 0.305218 0.0528979
H18_2 H 0.411832 0.394121 0.032455
H19_2 H 0.233034 0.777847 0.089644
H20_2 H 0.286535 0.840049 0.066578
H22_2 H 0.379723 0.76097 0.0388219
H23_2 H 0.499296 0.235813 0.0698691
H24_2 H 0.491375 0.132152 0.0833806
H25_2 H 0.543618 0.54534 0.192837
H26_2 H 0.45545 0.555155 0.190031
H29_2 H 0.186307 0.41433 0.102105
H30_2 H 0.196874 0.31742 0.0815519
H31_2 H 0.699954 0.468067 0.344244
H32_2 H 0.664037 0.434676 0.29954
H36_2 H 0.945579 0.919835 0.261952
W1_2 W 0.89803(5) 0.63925(6) 0.99960(3)
O1_2 O 0.6747(8) 0.7222(10) 0.9389(6)
O4_2 O 0.9095(8) 0.5745(9) 0.9583(6)
C9_2 C 0.2418(13) 0.7179(15) 0.9310(9)
H9_2 H 0.2865 0.6895 0.9304
W9_2 W 0.71679(5) 0.75589(6) 0.98601(3)
C11_2 C 0.1510(12) 0.7789(16) 0.9506(10)
H11_2 H 0.1182 0.8026 0.9667
N10_2 N 0.2158(11) 0.7412(13) 0.9659(7)
N11_2 N 0.1393(10) 0.7786(13) 0.9118(7)
N12_2 N 0.1985(9) 0.7389(12) 0.8995(7)
O54_2 O 0.9597(8) 0.7394(9) 0.9893(6)
O66_2 O 0.7493(7) 0.8727(9) 0.9733(5)
O71_2 O 0.4891(10) 0.7995(13) 0.9986(6)
O76_2 O 0.8142(7) 0.7066(9) 0.9811(5)
Cu9_2 Cu 0.68378(14) 0.63861(18) 0.87606(11)
Cu11_2 Cu 0.05186(18) 0.8031(3) 0.87117(12)
Cu15_2 Cu 0.20471(13) 0.71165(17) 0.84195(9)
H21_2 H 0.349556 0.78534 0.992025
O2_2 O 0.0963(9) 0.7372(16) 0.8319(6)
Cu3_3 Cu 0.04798(15) 0.7444(2) 0.77338(11)
W3_3 W 0.00597(5) 0.84403(6) 0.59024(3)
N3_3 N 0.1267(9) 0.6646(12) 0.7621(7)
N5_2 N 0.1928(9) 0.6606(12) 0.7877(7)
C6_3 C 0.2302(13) 0.5972(15) 0.7729(9)
H6_3 H 0.2764 0.5788 0.7849
C8_3 C 0.1301(13) 0.6046(14) 0.7329(9)
H8_3 H 0.0928 0.5943 0.7116
O20_3 O 0.0169(17) 0.229(2) 0.5956(11)
O29_3 O 0.1022(16) 0.8756(18) 0.7516(10)
N17_2 N 0.1942(10) 0.5605(12) 0.7379(7)
O33_3 O 0.0041(8) 0.7307(10) 0.7159(5)
O37_3 O 0.0431(9) 0.6021(11) 0.5025(6)
O56_3 O 0.0435(8) 0.7488(10) 0.5598(6)
O64_3 O 0.0878(8) 0.9009(11) 0.6064(6)
N19_2 N 0.0299(12) 0.3363(16) 0.6722(9)
Cu13 Cu 0.22938(14) 0.46591(17) 0.70739(10)
H27_3 H 0.00086999 0.237463 0.566126
H28_3 H 0.0140893 0.164392 0.602485
H33_3 H 0.0903613 0.927147 0.768446
H34_3 H 0.0829446 0.887307 0.722731
H35_3 H 0.0137847 0.549303 0.795114
C1_3 C 0.6434(12) 0.1113(16) 0.6308(10)
H1_3 H 0.6632 0.0613 0.6197
Cu1_3 Cu 0.48059(14) 0.05247(18) 0.61290(11)
O3_3 O 0.2946(17) 0.0530(16) 0.6800(10)
N2_3 N 0.5744(9) 0.1227(11) 0.6314(7)
O5_3 O 0.4260(7) 0.1399(10) 0.6414(5)
O6_3 O 0.4575(11) 0.1295(15) 0.5482(8)
O7_3 O 0.8903(9) 0.0104(10) 0.6743(6)
C4_3 C 0.2608(14) 0.2931(16) 0.6672(9)
H4_3 H 0.2142 0.2693 0.6672
N6_3 N 0.5678(9) 0.2083(12) 0.6482(7)
O14_3 O 0.4700(10) 0.3068(11) 0.5840(6)
Cu7 Cu 0.47138(13) 0.26234(17) 0.64984(10)
C7_3 C 0.6340(11) 0.2384(14) 0.6566(8)
H7_3 H 0.6447 0.2952 0.6673
O16_3 O 0.2069(8) 0.1469(12) 0.6069(6)
N7_2 N 0.2834(10) 0.3741(12) 0.6814(7)
N8_3 N 0.3161(9) 0.2527(12) 0.6531(7)
N9_3 N 0.3205(10) 0.0266(12) 0.5946(7)
C12_3 C 0.3528(13) 0.3765(16) 0.6775(9)
H12_3 H 0.3831 0.4246 0.6860
O26_3 O 0.7107(18) 0.055(2) 0.8177(13)
N14_3 N 0.3761(10) 0.3040(12) 0.6602(7)
N15 N 0.6847(10) 0.1816(13) 0.6486(7)
O59_3 O 0.7112(10) 0.0371(11) 0.5279(6)
N25_2 N 0.8058(10) 0.0605(12) 0.7621(7)
O79 O 0.5171(8) 0.3798(9) 0.6683(6)
H14_3 H 0.241207 0.0419765 0.678755
H17_3 H 0.452013 0.194782 0.552898
H18_3 H 0.411832 0.105879 0.532455
H23_3 H 0.499296 0.264187 0.569869
H24_3 H 0.491375 0.367848 0.583381
H29_3 H 0.186307 0.0856697 0.602105
H30_3 H 0.196874 0.18258 0.581552
H31_3 H 0.699954 0.0319329 0.844244
H32_3 H 0.664037 0.0653245 0.79954
W1_3 W 0.89803(5) 0.86075(6) 0.49960(3)
P1_3 P 0.8340(3) 0.7373(3) 0.57840(18)
N1_2 N 0.9701(12) 0.8363(16) 0.8278(9)
W2_3 W 0.58122(5) 0.66606(6) 0.72264(3)
P2_3 P 0.6649(3) 0.6617(3) 0.63199(18)
O4_3 O 0.9095(8) 0.9255(9) 0.4583(6)
C2_3 C 0.9104(16) 0.883(2) 0.8319(12)
H2_3 H 0.9000 0.9057 0.8564
C3_3 C 0.3744(12) 0.9109(14) 0.5752(8)
H3_3 H 0.4108 0.8706 0.5704
O8_3 O 0.1554(9) 0.8569(13) 0.5249(7)
W4_3 W 0.55616(5) 0.48509(6) 0.65974(3)
O9_3 O 0.9363(7) 0.9167(10) 0.6117(6)
N4_3 N 0.8686(9) 0.8931(12) 0.7981(7)
O10_3 O 0.2415(16) 0.6973(14) 0.5630(8)
W5_3 W 0.74706(5) 0.94147(6) 0.55248(3)
O11_3 O 0.5569(9) 0.6784(11) 0.7698(6)
C5_3 C 0.9061(13) 0.8501(16) 0.7717(9)
H5_3 H 0.8908 0.8481 0.7439
O12_3 O 0.3548(10) 0.7631(18) 0.5127(8)
Cu5_2 Cu 0.77062(14) 0.96591(17) 0.79261(10)
W6_3 W 0.47296(5) 0.68226(6) 0.63113(3)
O13_3 O 0.6266(9) 0.3733(11) 0.5457(7)
W7_3 W 0.85336(5) 0.92768(6) 0.64219(3)
O15_3 O 0.6569(8) 0.4612(9) 0.6753(5)
Cu8_3 Cu 0.25487(15) 0.80940(19) 0.52040(10)
W8_3 W 0.91615(5) 0.53478(6) 0.61055(4)
O17_3 O 0.6178(8) 0.7797(9) 0.7118(6)
C9_3 C 0.2418(13) 0.7821(15) 0.4310(9)
H9_3 H 0.2865 0.8105 0.4304
W9_3 W 0.71679(5) 0.74411(6) 0.48601(3)
O18_3 O 0.4918(8) 0.6953(9) 0.6909(5)
C10_3 C 0.2709(12) 0.9739(14) 0.5741(8)
H10_3 H 0.2213 0.9875 0.5690
W10_3 W 0.58924(5) 0.86755(6) 0.60376(3)
O19_3 O 0.7324(8) 0.6161(10) 0.6563(5)
C11_3 C 0.1510(12) 0.7211(16) 0.4506(10)
H11_3 H 0.1182 0.6974 0.4667
W11_3 W 0.97966(5) 0.66250(6) 0.52777(4)
N10_3 N 0.2158(11) 0.7588(13) 0.4659(7)
O21_2 O 0.8071(8) 0.4577(10) 0.4834(6)
W12_3 W 0.94094(5) 0.71132(6) 0.67259(3)
O22_3 O 0.6696(8) 0.7661(10) 0.6351(6)
O23_3 O 0.4962(19) 0.987(2) 0.6873(11)
W13_3 W 0.75757(5) 0.46574(6) 0.66219(4)
O24_3 O 0.7149(8) 0.4597(10) 0.6078(5)
N13_3 N 0.3006(9) 0.8983(11) 0.5614(6)
W14_3 W 0.69410(5) 0.85531(6) 0.69394(3)
O25_3 O 0.9018(8) 0.7653(9) 0.5584(5)
W15_3 W 0.79870(5) 0.54995(6) 0.51366(4)
O27_3 O 0.9623(9) 0.4321(12) 0.6102(6)
O28_3 O 0.978(2) 0.598(2) 0.7870(14)
W16_3 W 0.78187(5) 0.64172(6) 0.72460(4)
O30_3 O 0.5557(8) 0.5414(9) 0.7123(5)
N16_3 N 0.3871(9) 0.9840(11) 0.5950(7)
W17_3 W 0.64011(5) 0.48128(6) 0.56433(4)
O31_3 O 0.7007(9) 0.9291(10) 0.7336(6)
W18_3 W 0.55802(5) 0.67395(7) 0.53716(4)
O32_3 O 0.3809(9) 0.7087(11) 0.6212(6)
N18_3 N 0.9658(10) 0.8119(12) 0.7892(7)
O34_3 O 0.8473(8) 0.4988(10) 0.6457(6)
O35_3 O 0.8631(8) 0.6752(9) 0.6133(6)
O36_3 O 0.9749(8) 0.5961(9) 0.5755(5)
O38_3 O 0.6361(8) 0.6960(10) 0.5063(5)
O39_3 O 0.8694(7) 0.6599(9) 0.7000(5)
O40_3 O 0.6209(7) 0.9137(9) 0.6586(5)
O41_3 O 0.7669(7) 0.9081(9) 0.6648(5)
O42_3 O 0.5171(7) 0.7956(9) 0.6270(5)
O43_3 O 0.8336(7) 0.9311(9) 0.5289(5)
O44_3 O 0.8235(9) 0.6475(11) 0.7752(6)
O45_3 O 0.9716(8) 0.5954(10) 0.6569(6)
O46_3 O 0.7079(8) 0.8519(9) 0.5174(5)
O47_3 O 0.7082(8) 0.5202(9) 0.5312(6)
O48_3 O 0.7600(8) 0.7657(9) 0.7129(6)
O49_3 O 0.5758(8) 0.7916(9) 0.5597(6)
O50_3 O 0.5664(7) 0.5463(9) 0.5316(5)
O51_3 O 0.8038(7) 0.9948(9) 0.5992(6)
O52_3 O 0.8020(8) 0.8240(10) 0.5944(5)
O53_3 O 0.6817(8) 0.6280(10) 0.7337(6)
O54_3 O 0.9597(8) 0.7606(9) 0.4893(6)
O55_3 O 0.6724(7) 0.9178(9) 0.5853(5)
O57_3 O 0.7892(8) 0.5161(9) 0.7153(5)
O58_3 O 0.4963(8) 0.6550(10) 0.5795(6)
O60_3 O 0.4707(7) 0.5542(9) 0.6416(5)
O61_3 O 0.6517(8) 0.6290(10) 0.5883(6)
O62_3 O 0.8906(8) 0.8227(10) 0.6691(5)
O63_3 O 0.9782(8) 0.9020(10) 0.5384(6)
O65_3 O 0.7795(7) 0.6890(9) 0.5463(5)
O66_3 O 0.7493(7) 0.6273(9) 0.4733(5)
O67_3 O 0.9972(7) 0.7638(9) 0.6327(5)
O68_3 O 0.8464(8) 0.5163(10) 0.5656(6)
O69_3 O 0.5309(8) 0.9590(10) 0.5872(6)
O71_3 O 0.4891(10) 0.7005(13) 0.4986(6)
O72_3 O 0.5746(7) 0.4727(10) 0.6053(5)
O73_3 O 0.8911(8) 0.6092(9) 0.5068(5)
O74_3 O 0.7774(9) 0.3545(10) 0.6734(6)
O75_3 O 0.5958(7) 0.6335(9) 0.6530(5)
O76_3 O 0.8142(7) 0.7934(9) 0.4811(5)
O78_2 O 0.9037(9) 0.2372(16) 0.6681(6)
N20_2 N 0.8072(9) 0.1606(12) 0.7123(7)
N21_2 N 0.7166(10) 0.8741(12) 0.8186(7)
H13_3 H 0.320684 0.994769 0.679707
H15_3 H 0.118182 0.810448 0.51571
H16_3 H 0.14614 0.911163 0.507654
H19_3 H 0.233034 0.722153 0.589644
H20_3 H 0.286535 0.659951 0.566578
H21_3 H 0.349556 0.71466 0.492025
H22_3 H 0.379723 0.73903 0.538822
H25_3 H 0.543618 0.95466 0.692837
H26_3 H 0.45545 0.944845 0.690031
H36_3 H 0.945579 0.580165 0.761952
W1_4 W 0.10197(5) 0.36075(6) 0.00040(3)
O4_4 O 0.0905(8) 0.4255(9) 0.0417(6)
C9_4 C 0.7582(13) 0.2821(15) 0.0690(9)
H9_4 H 0.7135 0.3105 0.0696
W9_4 W 0.28321(5) 0.24411(6) 0.01399(3)
C11_4 C 0.8490(12) 0.2211(16) 0.0494(10)
H11_4 H 0.8818 0.1974 0.0333
N10_4 N 0.7842(11) 0.2588(13) 0.0341(7)
O54_4 O 0.0403(8) 0.2606(9) 0.0107(6)
O66_4 O 0.2507(7) 0.1273(9) 0.0267(5)
O71_4 O 0.5109(10) 0.2005(13) 0.0014(6)
O76_4 O 0.1858(7) 0.2934(9) 0.0189(5)
H21_4 H 0.650444 0.21466 0.00797503
P1_4 P 0.1660(3) 0.2373(3) 0.92160(18)
C1_4 C 0.3566(12) 0.6113(16) 0.8692(10)
H1_4 H 0.3368 0.5613 0.8803
Cu1_4 Cu 0.51941(14) 0.55247(18) 0.88710(11)
O3_4 O 0.7054(17) 0.5530(16) 0.8200(10)
W2_4 W 0.41878(5) 0.16606(6) 0.77736(3)
P2_4 P 0.3351(3) 0.1617(3) 0.86801(18)
N2_4 N 0.4256(9) 0.6227(11) 0.8686(7)
C2_4 C 0.0896(16) 0.383(2) 0.6681(12)
H2_4 H 0.1000 0.4057 0.6436
O5_4 O 0.5740(7) 0.6399(10) 0.8586(5)
O6_4 O 0.5425(11) 0.6295(15) 0.9518(8)
O7_4 O 0.1097(9) 0.5104(10) 0.8257(6)
C3_4 C 0.6256(12) 0.4109(14) 0.9248(8)
H3_4 H 0.5892 0.3706 0.9296
O8_4 O 0.8446(9) 0.3569(13) 0.9751(7)
O9_4 O 0.0637(7) 0.4167(10) 0.8883(6)
N4_4 N 0.1314(9) 0.3931(12) 0.7019(7)
C4_4 C 0.7392(14) 0.7931(16) 0.8328(9)
H4_4 H 0.7858 0.7693 0.8328
O10_4 O 0.7585(16) 0.1973(14) 0.9370(8)
W5_4 W 0.25294(5) 0.44147(6) 0.94752(3)
O11_4 O 0.4431(9) 0.1784(11) 0.7302(6)
C5_4 C 0.0939(13) 0.3501(16) 0.7283(9)
H5_4 H 0.1092 0.3481 0.7561
O12_4 O 0.6452(10) 0.2631(18) 0.9873(8)
W6_4 W 0.52704(5) 0.18226(6) 0.86887(3)
N6_4 N 0.4322(9) 0.7083(12) 0.8518(7)
O14_4 O 0.5300(10) 0.8068(11) 0.9160(6)
Cu7_2 Cu 0.52862(13) 0.76234(17) 0.85016(10)
W7_4 W 0.14664(5) 0.42768(6) 0.85781(3)
C7_4 C 0.3660(11) 0.7384(14) 0.8434(8)
H7_4 H 0.3553 0.7952 0.8327
O16_4 O 0.7931(8) 0.6469(12) 0.8931(6)
Cu8_4 Cu 0.74513(15) 0.30940(19) 0.97960(10)
W8_4 W 0.08385(5) 0.03478(6) 0.88945(4)
O17_4 O 0.3822(8) 0.2797(9) 0.7882(6)
N8_4 N 0.6839(9) 0.7527(12) 0.8469(7)
O18_4 O 0.5082(8) 0.1953(9) 0.8091(5)
C10_4 C 0.7291(12) 0.4739(14) 0.9259(8)
H10_4 H 0.7787 0.4875 0.9310
W10_4 W 0.41076(5) 0.36755(6) 0.89624(3)
N9_4 N 0.6795(10) 0.5266(12) 0.9054(7)
O19_4 O 0.2676(8) 0.1161(10) 0.8437(5)
W11_4 W 0.02034(5) 0.16250(6) 0.97223(4)
C12_4 C 0.6472(13) 0.8765(16) 0.8225(9)
H12_4 H 0.6169 0.9246 0.8140
W12_4 W 0.05906(5) 0.21132(6) 0.82741(3)
O22_4 O 0.3304(8) 0.2661(10) 0.8649(6)
O23_4 O 0.5038(19) 0.487(2) 0.8127(11)
N13_4 N 0.6994(9) 0.3983(11) 0.9386(6)
W14_4 W 0.30590(5) 0.35531(6) 0.80606(3)
O25_4 O 0.0982(8) 0.2653(9) 0.9416(5)
O26_4 O 0.2893(18) 0.555(2) 0.6823(13)
N14_4 N 0.6239(10) 0.8040(12) 0.8398(7)
W15_4 W 0.20130(5) 0.04995(6) 0.98634(4)
O28_4 O 0.022(2) 0.098(2) 0.7130(14)
N15_2 N 0.3153(10) 0.6816(13) 0.8514(7)
W16_4 W 0.21813(5) 0.14172(6) 0.77540(4)
O30_4 O 0.4443(8) 0.0414(9) 0.7877(5)
N16_4 N 0.6129(9) 0.4840(11) 0.9050(7)
O31_4 O 0.2993(9) 0.4291(10) 0.7664(6)
W18_4 W 0.44198(5) 0.17395(7) 0.96284(4)
O32_4 O 0.6191(9) 0.2087(11) 0.8788(6)
N18_4 N 0.0342(10) 0.3119(12) 0.7108(7)
O35_4 O 0.1369(8) 0.1752(9) 0.8867(6)
O36_4 O 0.0251(8) 0.0961(9) 0.9245(5)
O38_4 O 0.3639(8) 0.1960(10) 0.9937(5)
O39_4 O 0.1306(7) 0.1599(9) 0.8000(5)
O40_4 O 0.3791(7) 0.4137(9) 0.8414(5)
O41_4 O 0.2331(7) 0.4081(9) 0.8352(5)
O42_4 O 0.4829(7) 0.2956(9) 0.8730(5)
O43_4 O 0.1664(7) 0.4311(9) 0.9711(5)
O44_4 O 0.1765(9) 0.1475(11) 0.7248(6)
O45_4 O 0.0284(8) 0.0954(10) 0.8431(6)
O46_4 O 0.2921(8) 0.3519(9) 0.9826(5)
O47_4 O 0.2918(8) 0.0202(9) 0.9688(6)
O48_4 O 0.2400(8) 0.2657(9) 0.7871(6)
O49_4 O 0.4242(8) 0.2916(9) 0.9403(6)
O50_4 O 0.4336(7) 0.0463(9) 0.9684(5)
O51_4 O 0.1962(7) 0.4948(9) 0.9008(6)
O52_4 O 0.1980(8) 0.3240(10) 0.9056(5)
O53_4 O 0.3183(8) 0.1280(10) 0.7663(6)
O55_4 O 0.3276(7) 0.4178(9) 0.9147(5)
O57_4 O 0.2108(8) 0.0161(9) 0.7847(5)
O58_4 O 0.5037(8) 0.1550(10) 0.9205(6)
O59_4 O 0.2888(10) 0.5371(11) 0.9721(6)
O60_4 O 0.5293(7) 0.0542(9) 0.8584(5)
O61_4 O 0.3483(8) 0.1290(10) 0.9117(6)
O62_4 O 0.1094(8) 0.3227(10) 0.8309(5)
O63_4 O 0.0218(8) 0.4020(10) 0.9616(6)
O65_4 O 0.2205(7) 0.1890(9) 0.9537(5)
O67_4 O 0.0028(7) 0.2638(9) 0.8673(5)
O68_4 O 0.1536(8) 0.0163(10) 0.9344(6)
O69_4 O 0.4691(8) 0.4590(10) 0.9128(6)
O73_4 O 0.1089(8) 0.1092(9) 0.9932(5)
O75_4 O 0.4042(7) 0.1335(9) 0.8470(5)
O79_2 O 0.4829(8) 0.8798(9) 0.8317(6)
H13_4 H 0.679316 0.494769 0.820293
H14_4 H 0.758793 0.541976 0.821245
H15_4 H 0.881818 0.310448 0.98429
H16_4 H 0.85386 0.411163 0.992346
H17_4 H 0.547987 0.694782 0.947102
H18_4 H 0.588168 0.605879 0.967545
H19_4 H 0.766966 0.222153 0.910356
H20_4 H 0.713465 0.159951 0.933422
H22_4 H 0.620277 0.23903 0.961178
H23_4 H 0.500704 0.764187 0.930131
H24_4 H 0.508625 0.867848 0.916619
H25_4 H 0.456382 0.45466 0.807163
H26_4 H 0.54455 0.444845 0.809969
H29_4 H 0.813693 0.58567 0.897895
H30_4 H 0.803126 0.68258 0.918448
H31_4 H 0.300046 0.531933 0.655756
H32_4 H 0.335963 0.565324 0.70046
H36_4 H 0.0544212 0.0801651 0.738048
W4_4 W 0.44384(5) 0.98509(6) 0.84026(3)
O13_4 O 0.3734(9) 0.8733(11) 0.9543(7)
O15_4 O 0.3431(8) 0.9612(9) 0.8247(5)
W13_4 W 0.24243(5) 0.96574(6) 0.83781(4)
O24_4 O 0.2851(8) 0.9597(10) 0.8922(5)
O27_4 O 0.0377(9) 0.9321(12) 0.8898(6)
W17_4 W 0.35989(5) 0.98128(6) 0.93567(4)
O34_4 O 0.1527(8) 0.9988(10) 0.8543(6)
O72_4 O 0.4254(7) 0.9727(10) 0.8947(5)
O74_4 O 0.2226(9) 0.8545(10) 0.8266(6)
Cu3_4 Cu 0.95202(15) 0.2444(2) 0.72662(11)
W3_4 W 0.99403(5) 0.34403(6) 0.90976(3)
N3_4 N 0.8733(9) 0.1646(12) 0.7379(7)
C6_4 C 0.7698(13) 0.0972(15) 0.7271(9)
H6_4 H 0.7236 0.0788 0.7151
C8_4 C 0.8699(13) 0.1046(14) 0.7671(9)
H8_4 H 0.9072 0.0943 0.7884
O29_4 O 0.8978(16) 0.3756(18) 0.7484(10)
O33_4 O 0.9959(8) 0.2307(10) 0.7841(5)
O37_4 O 0.9569(9) 0.1021(11) 0.9975(6)
O56_4 O 0.9565(8) 0.2488(10) 0.9402(6)
O64_4 O 0.9122(8) 0.4009(11) 0.8936(6)
H33_4 H 0.909639 0.427147 0.731554
H34_4 H 0.917055 0.387307 0.777269
H35_4 H 0.986215 0.0493033 0.704886
O20_4 O 0.9831(17) 0.729(2) 0.9044(11)
H27_4 H 0.99913 0.737463 0.933874
H28_4 H 0.985911 0.664392 0.897515
O21_3 O 0.8071(8) 0.0423(10) 0.9834(6)
O21_4 O 0.1929(8) 0.9577(10) 0.0166(6)
loop_
_geom_bond_atom_site_label_1
_geom_bond_atom_site_label_2
_geom_bond_site_symmetry_1
_geom_bond_site_symmetry_2
W1 O4 1_555 1_555
P1 O25 1_555 1_555
O1 W9 1_555 1_555
N1 C2 1_555 1_555
W2 O11 1_555 1_555
P2 O19 1_555 1_555
C2 H2 1_555 1_555
C3 H3 1_555 1_555
O8 Cu8 1_555 1_555
W4 O15 1_555 1_555
O9 W7 1_555 1_555
N4 C2 1_555 1_555
O10 Cu8 1_555 1_555
W5 O43 1_555 1_555
C5 N4 1_555 1_555
H5 C5 1_555 1_555
O12 Cu8 1_555 1_555
Cu5 N4 1_555 1_555
W6 O18 1_555 1_555
Cu6 O74 1_555 1_555
O13 W17 1_555 1_555
W7 O41 1_555 1_555
O15 W13 1_555 1_555
Cu8 N10 1_555 1_555
W8 O27 1_555 1_555
O17 W2 1_555 1_555
C9 H9 1_555 1_555
W9 O38 1_555 1_555
O18 W2 1_555 1_555
C10 H10 1_555 1_555
W10 O22 1_555 1_555
O19 W13 1_555 1_555
C11 H11 1_555 1_555
W11 O25 1_555 1_555
N10 C9 1_555 1_555
O21 W15 1_555 1_555
N11 C11 1_555 1_555
O22 P2 1_555 1_555
N12 C9 1_555 1_555
W13 O24 1_555 1_555
O24 W17 1_555 1_555
N13 C3 1_555 1_555
W14 O17 1_555 1_555
O25 W1 1_555 1_555
W15 O47 1_555 1_555
O27 Cu4 1_555 1_555
W16 O19 1_555 1_555
O30 W2 1_555 1_555
W17 O47 1_555 1_555
O31 Cu5 1_555 1_555
W18 O38 1_555 1_555
O32 W6 1_555 1_555
N18 N1 1_555 1_555
O34 W8 1_555 1_555
O35 P1 1_555 1_555
O36 W8 1_555 1_555
O39 W12 1_555 1_555
O40 W10 1_555 1_555
O41 W14 1_555 1_555
O42 W6 1_555 1_555
O43 W1 1_555 1_555
O44 W16 1_555 1_555
O45 W8 1_555 1_555
O46 W5 1_555 1_555
O48 W14 1_555 1_555
O49 W10 1_555 1_555
O50 W17 1_555 1_555
O51 W5 1_555 1_555
O52 P1 1_555 1_555
O53 W2 1_555 1_555
O54 W1 1_555 1_555
O55 W5 1_555 1_555
O57 W13 1_555 1_555
O58 W6 1_555 1_555
O60 W4 1_555 1_555
O61 P2 1_555 1_555
O62 W7 1_555 1_555
O63 W1 1_555 1_555
O65 P1 1_555 1_555
O66 W9 1_555 1_555
O68 W8 1_555 1_555
O70 W4 1_555 1_555
O71 W18 1_555 1_555
O72 W4 1_555 1_555
O73 W11 1_555 1_555
O74 W13 1_555 1_555
O75 W2 1_555 1_555
O76 W1 1_555 1_555
O78 Cu4 1_555 1_555
Cu9 O1 1_555 1_555
Cu11 N11 1_555 1_555
N20 Cu6 1_555 1_555
Cu15 N12 1_555 1_555
Cu17 O70 1_555 1_555
N21 Cu5 1_555 1_555
N22 Cu4 1_555 1_555
N23 Cu6 1_555 1_555
N24 Cu6 1_555 1_555
P2 O75 1_555 1_555
C3 N16 1_555 1_555
W4 O30 1_555 1_555
W4 O75 1_555 1_555
W5 O52 1_555 1_555
C5 N18 1_555 1_555
W6 O60 1_555 1_555
W6 O75 1_555 1_555
Cu6 O78 1_555 1_555
W7 O51 1_555 1_555
W7 O52 1_555 1_555
Cu8 N13 1_555 1_555
W8 O35 1_555 1_555
W9 O46 1_555 1_555
W9 O65 1_555 1_555
W9 O76 1_555 1_555
C10 N13 1_555 1_555
W10 O42 1_555 1_555
W10 O55 1_555 1_555
W10 O69 1_555 1_555
C11 N10 1_555 1_555
W11 O36 1_555 1_555
W11 O54 1_555 1_555
N11 N12 1_555 1_555
W12 O35 1_555 1_555
W12 O45 1_555 1_555
W12 O62 1_555 1_555
W12 O67 1_555 1_555
O22 W14 1_555 1_555
W13 O34 1_555 1_555
W14 O31 1_555 1_555
W14 O40 1_555 1_555
W15 O65 1_555 1_555
W15 O66 1_555 1_555
W15 O68 1_555 1_555
W15 O73 1_555 1_555
W16 O39 1_555 1_555
W16 O48 1_555 1_555
W16 O53 1_555 1_555
W16 O57 1_555 1_555
W17 O61 1_555 1_555
W17 O72 1_555 1_555
W18 O49 1_555 1_555
W18 O50 1_555 1_555
W18 O58 1_555 1_555
W18 O61 1_555 1_555
N22 N23 1_555 1_555
O8 H15 1_555 1_555
O8 H16 1_555 1_555
O10 H19 1_555 1_555
O10 H20 1_555 1_555
O12 H21 1_555 1_555
O12 H22 1_555 1_555
O23 H25 1_555 1_555
O23 H26 1_555 1_555
O28 H36 1_555 1_555
C1 H1 1_555 1_555
Cu1 N2 1_555 1_555
O3 Cu2 1_555 1_555
N2 C1 1_555 1_555
O5 Cu1 1_555 1_555
O6 Cu1 1_555 1_555
Cu2 O5 1_555 1_555
C4 H4 1_555 1_555
N6 N2 1_555 1_555
O14 Cu17 1_555 1_555
Cu17 O5 1_555 1_555
C7 N6 1_555 1_555
H7 C7 1_555 1_555
O16 Cu2 1_555 1_555
N7 C4 1_555 1_555
N8 Cu2 1_555 1_555
N9 Cu2 1_555 1_555
C12 N7 1_555 1_555
H12 C12 1_555 1_555
N14 Cu17 1_555 1_555
N24 C1 1_555 1_555
O77 Cu2 1_555 1_555
Cu12 N7 1_555 1_555
C4 N8 1_555 1_555
N6 Cu17 1_555 1_555
C7 N24 1_555 1_555
N8 N14 1_555 1_555
C12 N14 1_555 1_555
O3 H14 1_555 1_555
O6 H17 1_555 1_555
O6 H18 1_555 1_555
O14 H23 1_555 1_555
O14 H24 1_555 1_555
O16 H29 1_555 1_555
O16 H30 1_555 1_555
O26 H31 1_555 1_555
O26 H32 1_555 1_555
O2 Cu3 1_555 1_555
Cu3 N3 1_555 1_555
N3 N5 1_555 1_555
N5 C6 1_555 1_555
C6 H6 1_555 1_555
C8 N3 1_555 1_555
H8 C8 1_555 1_555
O29 Cu3 1_555 1_555
N17 C6 1_555 1_555
O33 Cu3 1_555 1_555
O56 W3 1_555 1_555
O64 W3 1_555 1_555
Cu10 O2 1_555 1_555
Cu12 N17 1_555 1_555
Cu14 O2 1_555 1_555
N5 Cu14 1_555 1_555
C8 N17 1_555 1_555
O20 H27 1_555 1_555
O20 H28 1_555 1_555
O29 H33 1_555 1_555
O29 H34 1_555 1_555
O20_2 H27_2 1_555 1_555
O20_2 H28_2 1_555 1_555
O78 Cu3_2 1_555 1_555
Cu3_2 N3_2 1_555 1_555
N3_2 N20 1_555 1_555
N20 C6_2 1_555 1_555
C6_2 H6_2 1_555 1_555
C8_2 N3_2 1_555 1_555
H8_2 C8_2 1_555 1_555
O29_2 Cu3_2 1_555 1_555
N25 C6_2 1_555 1_555
O33_2 Cu3_2 1_555 1_555
O56_2 W3_2 1_555 1_555
O64_2 W3_2 1_555 1_555
C8_2 N25 1_555 1_555
O29_2 H33_2 1_555 1_555
O29_2 H34_2 1_555 1_555
W4_2 O15_2 1_555 1_555
Cu14 O74_2 1_555 1_555
O13_2 W17_2 1_555 1_555
O15_2 W13_2 1_555 1_555
W13_2 O24_2 1_555 1_555
O24_2 W17_2 1_555 1_555
O27_2 Cu10 1_555 1_555
O70_2 W4_2 1_555 1_555
O72_2 W4_2 1_555 1_555
O74_2 W13_2 1_555 1_555
Cu17_2 O70_2 1_555 1_555
N22_2 Cu10 1_555 1_555
N23_2 Cu14 1_555 1_555
N24_2 Cu14 1_555 1_555
W13_2 O34_2 1_555 1_555
W17_2 O72_2 1_555 1_555
N22_2 N23_2 1_555 1_555
P1_2 O25_2 1_555 1_555
C1_2 H1_2 1_555 1_555
Cu1_2 N2_2 1_555 1_555
N19 C2_2 1_555 1_555
O3_2 Cu2_2 1_555 1_555
W2_2 O11_2 1_555 1_555
P2_2 O19_2 1_555 1_555
N2_2 C1_2 1_555 1_555
C2_2 H2_2 1_555 1_555
O5_2 Cu1_2 1_555 1_555
O6_2 Cu1_2 1_555 1_555
Cu2_2 O5_2 1_555 1_555
O7_2 W7_2 1_555 1_555
C3_2 H3_2 1_555 1_555
O8_2 Cu8_2 1_555 1_555
O9_2 W7_2 1_555 1_555
N4_2 C2_2 1_555 1_555
C4_2 H4_2 1_555 1_555
O10_2 Cu8_2 1_555 1_555
W5_2 O43_2 1_555 1_555
C5_2 N4_2 1_555 1_555
H5_2 C5_2 1_555 1_555
O12_2 Cu8_2 1_555 1_555
Cu12 N4_2 1_555 1_555
W6_2 O18_2 1_555 1_555
N6_2 N2_2 1_555 1_555
O14_2 Cu17_2 1_555 1_555
Cu17_2 O5_2 1_555 1_555
W7_2 O41_2 1_555 1_555
C7_2 N6_2 1_555 1_555
H7_2 C7_2 1_555 1_555
O16_2 Cu2_2 1_555 1_555
N21 C4_2 1_555 1_555
O17_2 W2_2 1_555 1_555
N8_2 Cu2_2 1_555 1_555
O18_2 W2_2 1_555 1_555
C10_2 H10_2 1_555 1_555
W10_2 O22_2 1_555 1_555
N9_2 Cu2_2 1_555 1_555
W11_2 O25_2 1_555 1_555
C12_2 N21 1_555 1_555
H12_2 C12_2 1_555 1_555
O22_2 P2_2 1_555 1_555
O23_2 Cu1_2 1_555 1_555
N13_2 C3_2 1_555 1_555
W14_2 O17_2 1_555 1_555
O26_2 Cu12 1_555 1_555
N14_2 Cu17_2 1_555 1_555
W15_2 O47_2 1_555 1_555
N24_2 C1_2 1_555 1_555
W16_2 O19_2 1_555 1_555
O30_2 W2_2 1_555 1_555
N16_2 Cu1_2 1_555 1_555
O31_2 Cu12 1_555 1_555
W18_2 O38_2 1_555 1_555
O32_2 W6_2 1_555 1_555
N18_2 N19 1_555 1_555
O35_2 P1_2 1_555 1_555
O36_2 W8_2 1_555 1_555
O39_2 W12_2 1_555 1_555
O40_2 W10_2 1_555 1_555
O41_2 W14_2 1_555 1_555
O42_2 W6_2 1_555 1_555
O44_2 W16_2 1_555 1_555
O45_2 W8_2 1_555 1_555
O46_2 W5_2 1_555 1_555
O48_2 W14_2 1_555 1_555
O49_2 W10_2 1_555 1_555
O51_2 W5_2 1_555 1_555
O52_2 P1_2 1_555 1_555
O53_2 W2_2 1_555 1_555
O55_2 W5_2 1_555 1_555
O58_2 W6_2 1_555 1_555
O59_2 W5_2 1_555 1_555
O61_2 P2_2 1_555 1_555
O62_2 W7_2 1_555 1_555
O65_2 P1_2 1_555 1_555
O68_2 W8_2 1_555 1_555
O69_2 Cu1_2 1_555 1_555
O73_2 W11_2 1_555 1_555
O75_2 W2_2 1_555 1_555
O77_2 Cu2_2 1_555 1_555
P2_2 O75_2 1_555 1_555
C3_2 N16_2 1_555 1_555
C4_2 N8_2 1_555 1_555
W5_2 O52_2 1_555 1_555
C5_2 N18_2 1_555 1_555
W6_2 O60_2 1_555 1_555
W6_2 O75_2 1_555 1_555
N6_2 Cu17_2 1_555 1_555
W7_2 O51_2 1_555 1_555
W7_2 O52_2 1_555 1_555
C7_2 N24_2 1_555 1_555
Cu8_2 N13_2 1_555 1_555
W8_2 O35_2 1_555 1_555
N8_2 N14_2 1_555 1_555
C10_2 N9_2 1_555 1_555
C10_2 N13_2 1_555 1_555
W10_2 O42_2 1_555 1_555
W10_2 O55_2 1_555 1_555
W10_2 O69_2 1_555 1_555
N9_2 N16_2 1_555 1_555
W11_2 O36_2 1_555 1_555
C12_2 N14_2 1_555 1_555
W12_2 O35_2 1_555 1_555
W12_2 O45_2 1_555 1_555
W12_2 O62_2 1_555 1_555
W12_2 O67_2 1_555 1_555
O22_2 W14_2 1_555 1_555
W14_2 O31_2 1_555 1_555
W14_2 O40_2 1_555 1_555
W15_2 O65_2 1_555 1_555
W15_2 O68_2 1_555 1_555
W15_2 O73_2 1_555 1_555
W16_2 O39_2 1_555 1_555
W16_2 O48_2 1_555 1_555
W16_2 O53_2 1_555 1_555
W16_2 O57_2 1_555 1_555
W18_2 O49_2 1_555 1_555
W18_2 O50_2 1_555 1_555
W18_2 O58_2 1_555 1_555
W18_2 O61_2 1_555 1_555
O3_2 H13_2 1_555 1_555
O3_2 H14_2 1_555 1_555
O8_2 H15_2 1_555 1_555
O8_2 H16_2 1_555 1_555
O6_2 H17_2 1_555 1_555
O6_2 H18_2 1_555 1_555
O10_2 H19_2 1_555 1_555
O10_2 H20_2 1_555 1_555
O12_2 H22_2 1_555 1_555
O14_2 H23_2 1_555 1_555
O14_2 H24_2 1_555 1_555
O23_2 H25_2 1_555 1_555
O23_2 H26_2 1_555 1_555
O16_2 H29_2 1_555 1_555
O16_2 H30_2 1_555 1_555
O26_2 H31_2 1_555 1_555
O26_2 H32_2 1_555 1_555
O28_2 H36_2 1_555 1_555
W1_2 O4_2 1_555 1_555
O1_2 W9_2 1_555 1_555
C9_2 H9_2 1_555 1_555
C11_2 H11_2 1_555 1_555
N10_2 C9_2 1_555 1_555
N11_2 C11_2 1_555 1_555
N12_2 C9_2 1_555 1_555
O54_2 W1_2 1_555 1_555
O66_2 W9_2 1_555 1_555
O76_2 W1_2 1_555 1_555
Cu9_2 O1_2 1_555 1_555
Cu11_2 N11_2 1_555 1_555
Cu15_2 N12_2 1_555 1_555
W9_2 O76_2 1_555 1_555
C11_2 N10_2 1_555 1_555
N11_2 N12_2 1_555 1_555
O2_2 Cu3_3 1_555 1_555
Cu3_3 N3_3 1_555 1_555
N3_3 N5_2 1_555 1_555
N5_2 C6_3 1_555 1_555
C6_3 H6_3 1_555 1_555
C8_3 N3_3 1_555 1_555
H8_3 C8_3 1_555 1_555
O29_3 Cu3_3 1_555 1_555
N17_2 C6_3 1_555 1_555
O33_3 Cu3_3 1_555 1_555
O56_3 W3_3 1_555 1_555
O64_3 W3_3 1_555 1_555
Cu11_2 O2_2 1_555 1_555
Cu13 N17_2 1_555 1_555
Cu15_2 O2_2 1_555 1_555
N5_2 Cu15_2 1_555 1_555
C8_3 N17_2 1_555 1_555
O20_3 H27_3 1_555 1_555
O20_3 H28_3 1_555 1_555
O29_3 H33_3 1_555 1_555
O29_3 H34_3 1_555 1_555
C1_3 H1_3 1_555 1_555
Cu1_3 N2_3 1_555 1_555
O3_3 Cu9 1_555 1_555
N2_3 C1_3 1_555 1_555
O5_3 Cu1_3 1_555 1_555
O6_3 Cu1_3 1_555 1_555
Cu9 O5_3 1_555 1_555
C4_3 H4_3 1_555 1_555
N6_3 N2_3 1_555 1_555
O14_3 Cu7 1_555 1_555
Cu7 O5_3 1_555 1_555
C7_3 N6_3 1_555 1_555
H7_3 C7_3 1_555 1_555
O16_3 Cu9 1_555 1_555
N7_2 C4_3 1_555 1_555
N8_3 Cu9 1_555 1_555
N9_3 Cu9 1_555 1_555
C12_3 N7_2 1_555 1_555
H12_3 C12_3 1_555 1_555
N14_3 Cu7 1_555 1_555
N15 C1_3 1_555 1_555
Cu13 N7_2 1_555 1_555
Cu15 N15 1_555 1_555
O79 Cu7 1_555 1_555
C4_3 N8_3 1_555 1_555
N6_3 Cu7 1_555 1_555
C7_3 N15 1_555 1_555
N8_3 N14_3 1_555 1_555
C12_3 N14_3 1_555 1_555
O3_3 H14_3 1_555 1_555
O6_3 H17_3 1_555 1_555
O6_3 H18_3 1_555 1_555
O14_3 H23_3 1_555 1_555
O14_3 H24_3 1_555 1_555
O16_3 H29_3 1_555 1_555
O16_3 H30_3 1_555 1_555
O26_3 H31_3 1_555 1_555
O26_3 H32_3 1_555 1_555
W1_3 O4_3 1_555 1_555
P1_3 O25_3 1_555 1_555
O77 W9_3 1_555 1_555
N1_2 C2_3 1_555 1_555
W2_3 O11_3 1_555 1_555
P2_3 O19_3 1_555 1_555
C2_3 H2_3 1_555 1_555
C3_3 H3_3 1_555 1_555
O8_3 Cu8_3 1_555 1_555
W4_3 O15_3 1_555 1_555
O9_3 W7_3 1_555 1_555
N4_3 C2_3 1_555 1_555
O10_3 Cu8_3 1_555 1_555
W5_3 O43_3 1_555 1_555
C5_3 N4_3 1_555 1_555
H5_3 C5_3 1_555 1_555
O12_3 Cu8_3 1_555 1_555
Cu5_2 N4_3 1_555 1_555
W6_3 O18_3 1_555 1_555
Cu15 O74_3 1_555 1_555
O13_3 W17_3 1_555 1_555
W7_3 O41_3 1_555 1_555
O15_3 W13_3 1_555 1_555
Cu8_3 N10_3 1_555 1_555
W8_3 O27_3 1_555 1_555
O17_3 W2_3 1_555 1_555
C9_3 H9_3 1_555 1_555
W9_3 O38_3 1_555 1_555
O18_3 W2_3 1_555 1_555
C10_3 H10_3 1_555 1_555
W10_3 O22_3 1_555 1_555
O19_3 W13_3 1_555 1_555
C11_3 H11_3 1_555 1_555
W11_3 O25_3 1_555 1_555
N10_3 C9_3 1_555 1_555
O21_2 W15_3 1_555 1_555
N22 C11_3 1_555 1_555
O22_3 P2_3 1_555 1_555
N23 C9_3 1_555 1_555
W13_3 O24_3 1_555 1_555
O24_3 W17_3 1_555 1_555
N13_3 C3_3 1_555 1_555
W14_3 O17_3 1_555 1_555
O25_3 W1_3 1_555 1_555
W15_3 O47_3 1_555 1_555
O27_3 Cu11 1_555 1_555
W16_3 O19_3 1_555 1_555
O30_3 W2_3 1_555 1_555
W17_3 O47_3 1_555 1_555
O31_3 Cu5_2 1_555 1_555
W18_3 O38_3 1_555 1_555
O32_3 W6_3 1_555 1_555
N18_3 N1_2 1_555 1_555
O34_3 W8_3 1_555 1_555
O35_3 P1_3 1_555 1_555
O36_3 W8_3 1_555 1_555
O39_3 W12_3 1_555 1_555
O40_3 W10_3 1_555 1_555
O41_3 W14_3 1_555 1_555
O42_3 W6_3 1_555 1_555
O43_3 W1_3 1_555 1_555
O44_3 W16_3 1_555 1_555
O45_3 W8_3 1_555 1_555
O46_3 W5_3 1_555 1_555
O48_3 W14_3 1_555 1_555
O49_3 W10_3 1_555 1_555
O50_3 W17_3 1_555 1_555
O51_3 W5_3 1_555 1_555
O52_3 P1_3 1_555 1_555
O53_3 W2_3 1_555 1_555
O54_3 W1_3 1_555 1_555
O55_3 W5_3 1_555 1_555
O57_3 W13_3 1_555 1_555
O58_3 W6_3 1_555 1_555
O60_3 W4_3 1_555 1_555
O61_3 P2_3 1_555 1_555
O62_3 W7_3 1_555 1_555
O63_3 W1_3 1_555 1_555
O65_3 P1_3 1_555 1_555
O66_3 W9_3 1_555 1_555
O68_3 W8_3 1_555 1_555
O79 W4_3 1_555 1_555
O71_3 W18_3 1_555 1_555
O72_3 W4_3 1_555 1_555
O73_3 W11_3 1_555 1_555
O74_3 W13_3 1_555 1_555
O75_3 W2_3 1_555 1_555
O76_3 W1_3 1_555 1_555
O78_2 Cu11 1_555 1_555
N20_2 Cu15 1_555 1_555
N21_2 Cu5_2 1_555 1_555
P2_3 O75_3 1_555 1_555
C3_3 N16_3 1_555 1_555
W4_3 O30_3 1_555 1_555
W4_3 O75_3 1_555 1_555
W5_3 O52_3 1_555 1_555
C5_3 N18_3 1_555 1_555
W6_3 O60_3 1_555 1_555
W6_3 O75_3 1_555 1_555
Cu15 O78_2 1_555 1_555
W7_3 O51_3 1_555 1_555
W7_3 O52_3 1_555 1_555
Cu8_3 N13_3 1_555 1_555
W8_3 O35_3 1_555 1_555
W9_3 O46_3 1_555 1_555
W9_3 O65_3 1_555 1_555
W9_3 O76_3 1_555 1_555
C10_3 N13_3 1_555 1_555
W10_3 O42_3 1_555 1_555
W10_3 O55_3 1_555 1_555
W10_3 O69_3 1_555 1_555
C11_3 N10_3 1_555 1_555
W11_3 O36_3 1_555 1_555
W11_3 O54_3 1_555 1_555
W12_3 O35_3 1_555 1_555
W12_3 O45_3 1_555 1_555
W12_3 O62_3 1_555 1_555
W12_3 O67_3 1_555 1_555
O22_3 W14_3 1_555 1_555
W13_3 O34_3 1_555 1_555
W14_3 O31_3 1_555 1_555
W14_3 O40_3 1_555 1_555
W15_3 O65_3 1_555 1_555
W15_3 O66_3 1_555 1_555
W15_3 O68_3 1_555 1_555
W15_3 O73_3 1_555 1_555
W16_3 O39_3 1_555 1_555
W16_3 O48_3 1_555 1_555
W16_3 O53_3 1_555 1_555
W16_3 O57_3 1_555 1_555
W17_3 O61_3 1_555 1_555
W17_3 O72_3 1_555 1_555
W18_3 O49_3 1_555 1_555
W18_3 O50_3 1_555 1_555
W18_3 O58_3 1_555 1_555
W18_3 O61_3 1_555 1_555
O8_3 H15_3 1_555 1_555
O8_3 H16_3 1_555 1_555
O10_3 H19_3 1_555 1_555
O10_3 H20_3 1_555 1_555
O12_3 H21_3 1_555 1_555
O12_3 H22_3 1_555 1_555
O23_3 H25_3 1_555 1_555
O23_3 H26_3 1_555 1_555
O28_3 H36_3 1_555 1_555
W1_4 O4_4 1_555 1_555
O77_2 W9_4 1_555 1_555
C9_4 H9_4 1_555 1_555
C11_4 H11_4 1_555 1_555
N10_4 C9_4 1_555 1_555
N22_2 C11_4 1_555 1_555
N23_2 C9_4 1_555 1_555
O54_4 W1_4 1_555 1_555
O66_4 W9_4 1_555 1_555
O76_4 W1_4 1_555 1_555
W9_4 O76_4 1_555 1_555
C11_4 N10_4 1_555 1_555
P1_4 O25_4 1_555 1_555
C1_4 H1_4 1_555 1_555
Cu1_4 N2_4 1_555 1_555
N19_2 C2_4 1_555 1_555
O3_4 Cu9_2 1_555 1_555
W2_4 O11_4 1_555 1_555
P2_4 O19_4 1_555 1_555
N2_4 C1_4 1_555 1_555
C2_4 H2_4 1_555 1_555
O5_4 Cu1_4 1_555 1_555
O6_4 Cu1_4 1_555 1_555
Cu9_2 O5_4 1_555 1_555
O7_4 W7_4 1_555 1_555
C3_4 H3_4 1_555 1_555
O8_4 Cu8_4 1_555 1_555
O9_4 W7_4 1_555 1_555
N4_4 C2_4 1_555 1_555
C4_4 H4_4 1_555 1_555
O10_4 Cu8_4 1_555 1_555
W5_4 O43_4 1_555 1_555
C5_4 N4_4 1_555 1_555
H5_4 C5_4 1_555 1_555
O12_4 Cu8_4 1_555 1_555
Cu13 N4_4 1_555 1_555
W6_4 O18_4 1_555 1_555
N6_4 N2_4 1_555 1_555
O14_4 Cu7_2 1_555 1_555
Cu7_2 O5_4 1_555 1_555
W7_4 O41_4 1_555 1_555
C7_4 N6_4 1_555 1_555
H7_4 C7_4 1_555 1_555
O16_4 Cu9_2 1_555 1_555
N21_2 C4_4 1_555 1_555
O17_4 W2_4 1_555 1_555
N8_4 Cu9_2 1_555 1_555
O18_4 W2_4 1_555 1_555
C10_4 H10_4 1_555 1_555
W10_4 O22_4 1_555 1_555
N9_4 Cu9_2 1_555 1_555
W11_4 O25_4 1_555 1_555
C12_4 N21_2 1_555 1_555
H12_4 C12_4 1_555 1_555
O22_4 P2_4 1_555 1_555
O23_4 Cu1_4 1_555 1_555
N13_4 C3_4 1_555 1_555
W14_4 O17_4 1_555 1_555
O26_4 Cu13 1_555 1_555
N14_4 Cu7_2 1_555 1_555
W15_4 O47_4 1_555 1_555
N15_2 C1_4 1_555 1_555
W16_4 O19_4 1_555 1_555
O30_4 W2_4 1_555 1_555
N16_4 Cu1_4 1_555 1_555
O31_4 Cu13 1_555 1_555
W18_4 O38_4 1_555 1_555
O32_4 W6_4 1_555 1_555
N18_4 N19_2 1_555 1_555
O35_4 P1_4 1_555 1_555
O36_4 W8_4 1_555 1_555
O39_4 W12_4 1_555 1_555
O40_4 W10_4 1_555 1_555
O41_4 W14_4 1_555 1_555
O42_4 W6_4 1_555 1_555
O44_4 W16_4 1_555 1_555
O45_4 W8_4 1_555 1_555
O46_4 W5_4 1_555 1_555
O48_4 W14_4 1_555 1_555
O49_4 W10_4 1_555 1_555
O51_4 W5_4 1_555 1_555
O52_4 P1_4 1_555 1_555
O53_4 W2_4 1_555 1_555
O55_4 W5_4 1_555 1_555
O58_4 W6_4 1_555 1_555
O59_4 W5_4 1_555 1_555
O61_4 P2_4 1_555 1_555
O62_4 W7_4 1_555 1_555
O65_4 P1_4 1_555 1_555
O68_4 W8_4 1_555 1_555
O69_4 Cu1_4 1_555 1_555
O73_4 W11_4 1_555 1_555
O75_4 W2_4 1_555 1_555
Cu15_2 N15_2 1_555 1_555
O79_2 Cu7_2 1_555 1_555
P2_4 O75_4 1_555 1_555
C3_4 N16_4 1_555 1_555
C4_4 N8_4 1_555 1_555
W5_4 O52_4 1_555 1_555
C5_4 N18_4 1_555 1_555
W6_4 O60_4 1_555 1_555
W6_4 O75_4 1_555 1_555
N6_4 Cu7_2 1_555 1_555
W7_4 O51_4 1_555 1_555
W7_4 O52_4 1_555 1_555
C7_4 N15_2 1_555 1_555
Cu8_4 N13_4 1_555 1_555
W8_4 O35_4 1_555 1_555
N8_4 N14_4 1_555 1_555
C10_4 N9_4 1_555 1_555
C10_4 N13_4 1_555 1_555
W10_4 O42_4 1_555 1_555
W10_4 O55_4 1_555 1_555
W10_4 O69_4 1_555 1_555
N9_4 N16_4 1_555 1_555
W11_4 O36_4 1_555 1_555
C12_4 N14_4 1_555 1_555
W12_4 O35_4 1_555 1_555
W12_4 O45_4 1_555 1_555
W12_4 O62_4 1_555 1_555
W12_4 O67_4 1_555 1_555
O22_4 W14_4 1_555 1_555
W14_4 O31_4 1_555 1_555
W14_4 O40_4 1_555 1_555
W15_4 O65_4 1_555 1_555
W15_4 O68_4 1_555 1_555
W15_4 O73_4 1_555 1_555
W16_4 O39_4 1_555 1_555
W16_4 O48_4 1_555 1_555
W16_4 O53_4 1_555 1_555
W16_4 O57_4 1_555 1_555
W18_4 O49_4 1_555 1_555
W18_4 O50_4 1_555 1_555
W18_4 O58_4 1_555 1_555
W18_4 O61_4 1_555 1_555
O3_4 H13_4 1_555 1_555
O3_4 H14_4 1_555 1_555
O8_4 H15_4 1_555 1_555
O8_4 H16_4 1_555 1_555
O6_4 H17_4 1_555 1_555
O6_4 H18_4 1_555 1_555
O10_4 H19_4 1_555 1_555
O10_4 H20_4 1_555 1_555
O12_4 H22_4 1_555 1_555
O14_4 H23_4 1_555 1_555
O14_4 H24_4 1_555 1_555
O23_4 H25_4 1_555 1_555
O23_4 H26_4 1_555 1_555
O16_4 H29_4 1_555 1_555
O16_4 H30_4 1_555 1_555
O26_4 H31_4 1_555 1_555
O26_4 H32_4 1_555 1_555
O28_4 H36_4 1_555 1_555
W4_4 O15_4 1_555 1_555
Cu15_2 O74_4 1_555 1_555
O13_4 W17_4 1_555 1_555
O15_4 W13_4 1_555 1_555
W13_4 O24_4 1_555 1_555
O24_4 W17_4 1_555 1_555
O27_4 Cu11_2 1_555 1_555
O79_2 W4_4 1_555 1_555
O72_4 W4_4 1_555 1_555
O74_4 W13_4 1_555 1_555
W13_4 O34_4 1_555 1_555
W17_4 O72_4 1_555 1_555
O78_2 Cu3_4 1_555 1_555
Cu3_4 N3_4 1_555 1_555
N3_4 N20_2 1_555 1_555
N20_2 C6_4 1_555 1_555
C6_4 H6_4 1_555 1_555
C8_4 N3_4 1_555 1_555
H8_4 C8_4 1_555 1_555
O29_4 Cu3_4 1_555 1_555
N25_2 C6_4 1_555 1_555
O33_4 Cu3_4 1_555 1_555
O56_4 W3_4 1_555 1_555
O64_4 W3_4 1_555 1_555
C8_4 N25_2 1_555 1_555
O29_4 H33_4 1_555 1_555
O29_4 H34_4 1_555 1_555
O20_4 H27_4 1_555 1_555
O20_4 H28_4 1_555 1_555

#END
