
###############################################################################
#
# This file contains modified crystal structure data generated from the
# MOF subset of the Cambridge Structural Database (CSD) v543 
# hosted by the Cambridge Crystallographic Data Centre (CCDC).
#
# This work is licensed under the Creative Commons
# Attribution-NonCommercial-ShareAlike 4.0 International License.
# To view a copy of this license, visit
# http://creativecommons.org/licenses/by-nc-sa/4.0/
# or send a letter to
# Creative Commons, PO Box 1866, Mountain View, CA 94042, USA.
#
# CIF created using the CSD Python API on 29 September 2022
# The structure has been converted into the P1 space group
# The structure has a 3D framework
# The original CSD entry GAWLIB is in the triclinic crystal system
# The framework has been calculated to contain at least 10.0% void space
# The void calculation uses a probe of radius 1.32A, grid spacing 0.4
#
###############################################################################

data_GAWLIB
_chemical_formula_moiety         '(C114 H72 F36 O64 Tb8)n'
_symmetry_cell_setting           triclinic
_symmetry_space_group_name_H-M   'P 1'
_symmetry_Int_Tables_number      1
_space_group_name_Hall           'P 1'
loop_
_symmetry_equiv_pos_site_id
_symmetry_equiv_pos_as_xyz
1 x,y,z
_cell_length_a                   8.1360(7)
_cell_length_b                   21.3945(18)
_cell_length_c                   22.8798(19)
_cell_angle_alpha                82.374(1)
_cell_angle_beta                 82.746(1)
_cell_angle_gamma                79.437(1)
_cell_volume                     3859.17
loop_
_atom_site_label
_atom_site_type_symbol
_atom_site_fract_x
_atom_site_fract_y
_atom_site_fract_z
Tb14 Tb 0.11363(5) 0.528300(17) 0.067600(15)
O4 O 0.2203(8) 0.0135(3) 0.4184(3)
H3 H 0.1303 0.0323 0.4361
H4 H 0.2923 0.0381 0.4162
O20 O 0.0056(8) 0.0664(3) 0.5693(3)
O21 O 0.0662(8) 0.1402(3) 0.6192(3)
O22 O 0.6543(8) 0.1339(3) 0.6230(2)
O23 O 0.7374(7) 0.2140(3) 0.6567(2)
O24 O 0.4214(8) 0.3011(3) 0.6568(3)
O25 O 0.4292(8) 0.3321(3) 0.7454(3)
F7 F 0.0463(7) 0.0653(3) 0.8303(2)
F9 F 0.2064(8) 0.0344(3) 0.9002(2)
F10 F 0.5410(8) 0.0158(3) 0.8674(3)
C22 C 0.1591(10) 0.0327(4) 0.6526(3)
C23 C 0.1974(10) 0.0487(4) 0.7059(3)
H25 H 0.1579 0.0898 0.7163
C24 C 0.2920(10) 0.0053(4) 0.7435(3)
C27 C 0.0701(10) 0.0843(4) 0.6109(3)
C28 C 0.3346(11) 0.0287(4) 0.7996(3)
C29 C 0.3729(10) 0.0976(4) 0.7834(3)
C30 C 0.4816(10) 0.1088(4) 0.7334(3)
H28 H 0.5354 0.0742 0.7135
C31 C 0.5137(10) 0.1689(4) 0.7116(3)
C32 C 0.4297(10) 0.2216(4) 0.7405(3)
C33 C 0.3269(10) 0.2109(4) 0.7924(3)
H29 H 0.2774 0.2452 0.8133
C34 C 0.2961(11) 0.1495(4) 0.8141(3)
H30 H 0.2249 0.1431 0.8487
C35 C 0.6443(10) 0.1739(4) 0.6596(4)
C36 C 0.4286(10) 0.2902(4) 0.7118(4)
C37 C 0.1815(13) 0.0236(4) 0.8467(4)
Tb6 Tb 0.73836(5) 0.094314(19) 0.535204(16)
Tb8 Tb 0.96626(5) 0.247795(19) 0.596153(16)
Tb9 Tb 0.29943(5) 0.424100(18) 0.783780(16)
Tb1 Tb 0.26164(5) 0.905686(19) 0.464796(16)
Tb2 Tb 0.03374(5) 0.752205(19) 0.403847(16)
O1 O 0.4477(8) 0.8276(3) 0.5144(3)
O2 O 0.5357(7) 0.9315(3) 0.4343(3)
H1 H 0.5841 0.9576 0.4480
H2 H 0.5360 0.9439 0.3975
O3 O 0.5443(9) 0.7240(3) 0.5234(3)
O5 O 0.1476(7) 0.8058(3) 0.4787(2)
O9 O 0.2947(8) 0.5344(3) 0.7957(3)
O10 O 0.2879(8) 0.6817(3) 0.4218(3)
H9 H 0.3747 0.6871 0.3982
H10 H 0.3265 0.6499 0.4455
O11 O 0.0688(7) 0.5023(3) 0.8424(2)
O12 O 0.5919(7) 0.4304(3) 0.7823(3)
H11 H 0.6652 0.4079 0.7603
H12 H 0.6170 0.4206 0.8177
O13 O 0.0648(7) 0.5389(2) 0.9584(2)
O14 O 0.0787(8) 0.4506(3) 0.7189(3)
H13 H 0.0164 0.4226 0.7198
H14 H 0.0168 0.4852 0.7281
O15 O 0.1918(7) 0.6081(3) 0.9889(2)
O16 O 0.3981(10) 0.4720(4) 0.6858(3)
H15 H 0.5014 0.4746 0.6849
H16 H 0.3412 0.5092 0.6791
O17 O 0.1149(7) 0.9205(3) 0.5640(2)
O19 O 0.3335(8) 0.9690(3) 0.5370(2)
O27 O 0.1268(8) 0.6404(3) 0.2780(2)
O29 O 0.1231(7) 0.6028(3) 0.1320(2)
O30 O 0.6409(7) 0.6081(3) 0.1204(2)
O31 O 0.8674(7) 0.6039(3) 0.0531(2)
F6 F 0.0591(9) 0.8520(3) 0.7720(2)
F8 F 0.1383(8) 0.9660(2) 0.8514(2)
F11 F 0.4681(7) 0.9292(2) 0.8490(2)
F12 F 0.6196(7) 0.9808(3) 0.7834(3)
F13 F 0.0294(7) 0.8884(3) 0.0324(2)
F17 F 0.3065(8) 0.9272(2) 0.0539(2)
F18 F 0.5198(7) 0.8540(3) 0.0735(2)
C1 C 0.4409(10) 0.7705(4) 0.5376(4)
C2 C 0.3077(11) 0.7622(4) 0.5885(3)
C3 C 0.1388(10) 0.7671(4) 0.5817(3)
C4 C 0.0189(11) 0.7663(4) 0.6306(3)
C5 C 0.0668(11) 0.7600(4) 0.6876(3)
C6 C 0.2356(11) 0.7519(4) 0.6947(4)
H20 H 0.2694 0.7464 0.7326
C7 C 0.3554(11) 0.7518(4) 0.6459(4)
H21 H 0.4688 0.7448 0.6514
C8 C 0.0826(11) 0.7727(4) 0.5205(3)
C11 C 0.0504(10) 0.6589(4) 0.7907(3)
H22 H 0.0586 0.6454 0.7533
C12 C 0.0941(10) 0.6145(4) 0.8382(3)
C13 C 0.0848(10) 0.6350(4) 0.8952(3)
C14 C 0.0307(11) 0.6996(4) 0.9004(3)
H23 H 0.0255 0.7138 0.9374
C16 C 0.1558(11) 0.5465(4) 0.8261(3)
C17 C 0.1176(10) 0.5922(4) 0.9495(3)
C20 C 0.2178(11) 0.9538(4) 0.5755(4)
C21 C 0.2211(10) 0.9718(4) 0.6361(3)
C25 C 0.3493(13) 0.9432(4) 0.7285(4)
H26 H 0.4121 0.9130 0.7537
C26 C 0.3114(12) 0.9273(4) 0.6757(4)
H27 H 0.3471 0.8856 0.6662
C38 C 0.4917(12) 0.9877(4) 0.8252(4)
C39 C 0.0726(10) 0.6990(4) 0.2712(4)
C40 C 0.1071(9) 0.7357(4) 0.2105(3)
C41 C 0.1052(9) 0.7068(4) 0.1581(3)
C42 C 0.1605(10) 0.7364(4) 0.1043(3)
H31 H 0.1568 0.7177 0.0702
C43 C 0.2224(9) 0.7939(4) 0.0990(3)
C44 C 0.2199(10) 0.8228(4) 0.1508(4)
H32 H 0.2567 0.8619 0.1485
C45 C 0.1642(10) 0.7941(4) 0.2041(3)
H33 H 0.1640 0.8141 0.2378
C46 C 0.0352(10) 0.6462(4) 0.1597(3)
C47 C 0.2961(10) 0.8199(4) 0.0360(3)
C48 C 0.4095(11) 0.7636(4) 0.0083(3)
C49 C 0.5117(10) 0.7206(4) 0.0447(4)
H34 H 0.5147 0.7290 0.0834
C50 C 0.6091(10) 0.6659(4) 0.0256(3)
C54 C 0.7168(10) 0.6215(4) 0.0692(3)
C56 C 0.1427(13) 0.8479(4) 0.0017(4)
C57 C 0.3996(12) 0.8723(4) 0.0372(4)
Tb11 Tb 0.70057(5) 0.575900(18) 0.216220(16)
O38 O 0.3457(8) 0.8661(3) 0.3770(2)
O39 O 0.2626(7) 0.7860(3) 0.3433(2)
O41 O 0.1082(7) 0.3555(3) 0.8142(2)
O43 O 0.3591(7) 0.3919(3) 0.8796(2)
O44 O 0.1326(7) 0.3961(3) 0.9469(2)
O32 O 0.6717(7) 0.5408(2) 0.9893(2)
O33 O 0.7463(7) 0.5811(3) 0.8980(2)
F14 F 0.1830(8) 0.8789(3) 0.9498(2)
F15 F 0.0616(7) 0.8030(3) 0.9904(2)
F16 F 0.4790(8) 0.8871(3) 0.9837(2)
C51 C 0.6037(10) 0.6525(4) 0.9680(3)
C52 C 0.5127(11) 0.6975(4) 0.9297(3)
H35 H 0.5166 0.6904 0.8903
C53 C 0.4161(11) 0.7525(4) 0.9490(3)
H36 H 0.3558 0.7821 0.9227
C55 C 0.6799(9) 0.5876(4) 0.9501(3)
Tb15 Tb 0.88637(5) 0.471700(17) 0.932400(15)
O34 O 0.9352(7) 0.4611(2) 0.0416(2)
O35 O 0.8082(7) 0.3919(3) 0.0111(2)
O6 O 0.7385(8) 0.7573(3) 0.4158(3)
H5 H 0.7113 0.7440 0.4518
H6 H 0.6933 0.7371 0.3944
O7 O 0.9775(8) 0.7394(4) 0.5121(3)
O8 O 0.9912(10) 0.6422(3) 0.4295(4)
H7 H 0.9736 0.6273 0.3986
H8 H 0.9065 0.6410 0.4553
O18 O 0.5979(7) 0.4630(3) 0.9158(2)
H17 H 0.5833 0.4275 0.9062
H18 H 0.5151 0.4664 0.9425
O26 O 0.9992(7) 0.7313(3) 0.3122(2)
O28 O 0.8918(7) 0.6445(3) 0.1858(2)
F1 F 0.6796(7) 0.8020(3) 0.6970(3)
F2 F 0.6638(7) 0.7523(3) 0.7848(2)
F3 F 0.7714(7) 0.7014(3) 0.7113(2)
F4 F 0.8939(10) 0.8788(3) 0.7034(2)
F5 F 0.7910(9) 0.8573(3) 0.7938(2)
H19 H 0.9060 0.7701 0.6251
C9 C 0.9347(11) 0.7683(4) 0.7429(3)
C10 C 0.9941(11) 0.7240(4) 0.7974(3)
C15 C 0.9845(12) 0.7436(4) 0.8533(3)
H24 H 0.9470 0.7864 0.8589
C18 C 0.7592(12) 0.7556(5) 0.7344(4)
C19 C 0.9210(15) 0.8402(4) 0.7542(4)
O36 O 0.9944(8) 0.9336(3) 0.4307(3)
O37 O 0.9338(8) 0.8598(3) 0.3808(3)
O42 O 0.8769(7) 0.3972(3) 0.8680(2)
O6_2 O 0.2615(8) 0.2427(3) 0.5842(3)
H5_2 H 0.2887 0.2560 0.5482
H6_2 H 0.3067 0.2629 0.6056
O7_2 O 0.0225(8) 0.2606(4) 0.4879(3)
O8_2 O 0.0088(10) 0.3578(3) 0.5705(4)
H7_2 H 0.0264 0.3727 0.6014
H8_2 H 0.0935 0.3590 0.5447
O18_2 O 0.4021(7) 0.5370(3) 0.0842(2)
H17_2 H 0.4167 0.5725 0.0938
H18_2 H 0.4849 0.5336 0.0575
O26_2 O 0.0008(7) 0.2687(3) 0.6878(2)
F1_2 F 0.3204(7) 0.1980(3) 0.3030(3)
F2_2 F 0.3362(7) 0.2477(3) 0.2152(2)
F3_2 F 0.2286(7) 0.2986(3) 0.2887(2)
F4_2 F 0.1061(10) 0.1212(3) 0.2966(2)
F5_2 F 0.2090(9) 0.1427(3) 0.2062(2)
H19_2 H 0.0940 0.2299 0.3749
C9_2 C 0.0653(11) 0.2317(4) 0.2571(3)
C10_2 C 0.0059(11) 0.2760(4) 0.2026(3)
C15_2 C 0.0155(12) 0.2564(4) 0.1467(3)
H24_2 H 0.0530 0.2136 0.1411
C18_2 C 0.2408(12) 0.2444(5) 0.2656(4)
C19_2 C 0.0790(15) 0.1598(4) 0.2458(4)
O45 O 0.3283(7) 0.4592(2) 0.0107(2)
O46 O 0.2537(7) 0.4189(3) 0.1020(2)
F14_2 F 0.8170(8) 0.1211(3) 0.0502(2)
F15_2 F 0.9384(7) 0.1970(3) 0.0096(2)
F16_2 F 0.5210(8) 0.1129(3) 0.0163(2)
C51_2 C 0.3963(10) 0.3475(4) 0.0320(3)
C52_2 C 0.4873(11) 0.3025(4) 0.0703(3)
H35_2 H 0.4834 0.3096 0.1097
C53_2 C 0.5839(11) 0.2475(4) 0.0510(3)
H36_2 H 0.6442 0.2179 0.0773
C55_2 C 0.3201(9) 0.4124(4) 0.0499(3)
O1_2 O 0.5523(8) 0.1724(3) 0.4856(3)
O2_2 O 0.4643(7) 0.0685(3) 0.5657(3)
H1_2 H 0.4159 0.0424 0.5520
H2_2 H 0.4640 0.0561 0.6025
O3_2 O 0.4557(9) 0.2760(3) 0.4766(3)
O5_2 O 0.8524(7) 0.1942(3) 0.5213(2)
O9_2 O 0.7053(8) 0.4656(3) 0.2043(3)
O10_2 O 0.7121(8) 0.3183(3) 0.5782(3)
H9_2 H 0.6253 0.3129 0.6018
H10_2 H 0.6735 0.3501 0.5545
O11_2 O 0.9312(7) 0.4977(3) 0.1576(2)
O12_2 O 0.4081(7) 0.5696(3) 0.2177(3)
H11_2 H 0.3348 0.5921 0.2397
H12_2 H 0.3830 0.5794 0.1823
O14_2 O 0.9213(8) 0.5494(3) 0.2811(3)
H13_2 H 0.9836 0.5774 0.2802
H14_2 H 0.9832 0.5148 0.2719
O16_2 O 0.6019(10) 0.5280(4) 0.3142(3)
H15_2 H 0.4986 0.5254 0.3151
H16_2 H 0.6588 0.4908 0.3209
O17_2 O 0.8851(7) 0.0795(3) 0.4360(2)
O19_2 O 0.6665(8) 0.0310(3) 0.4630(2)
O27_2 O 0.8732(8) 0.3596(3) 0.7220(2)
F6_2 F 0.9409(9) 0.1480(3) 0.2280(2)
F8_2 F 0.8617(8) 0.0340(2) 0.1486(2)
F11_2 F 0.5319(7) 0.0708(2) 0.1510(2)
F12_2 F 0.3804(7) 0.0192(3) 0.2166(3)
F13_2 F 0.9706(7) 0.1116(3) 0.9676(2)
F17_2 F 0.6935(8) 0.0728(2) 0.9461(2)
F18_2 F 0.4802(7) 0.1460(3) 0.9265(2)
C1_2 C 0.5591(10) 0.2295(4) 0.4624(4)
C2_2 C 0.6923(11) 0.2378(4) 0.4115(3)
C3_2 C 0.8612(10) 0.2329(4) 0.4183(3)
C4_2 C 0.9811(11) 0.2337(4) 0.3694(3)
C5_2 C 0.9332(11) 0.2400(4) 0.3124(3)
C6_2 C 0.7644(11) 0.2481(4) 0.3053(4)
H20_2 H 0.7306 0.2536 0.2674
C7_2 C 0.6446(11) 0.2482(4) 0.3541(4)
H21_2 H 0.5312 0.2552 0.3486
C8_2 C 0.9174(11) 0.2273(4) 0.4795(3)
C11_2 C 0.9496(10) 0.3411(4) 0.2093(3)
H22_2 H 0.9414 0.3546 0.2467
C12_2 C 0.9059(10) 0.3855(4) 0.1618(3)
C13_2 C 0.9152(10) 0.3650(4) 0.1048(3)
C14_2 C 0.9693(11) 0.3004(4) 0.0996(3)
H23_2 H 0.9745 0.2862 0.0626
C16_2 C 0.8442(11) 0.4535(4) 0.1739(3)
C17_2 C 0.8824(10) 0.4078(4) 0.0505(3)
C20_2 C 0.7822(11) 0.0462(4) 0.4245(4)
C21_2 C 0.7789(10) 0.0282(4) 0.3639(3)
C25_2 C 0.6507(13) 0.0568(4) 0.2715(4)
H26_2 H 0.5879 0.0870 0.2463
C26_2 C 0.6886(12) 0.0727(4) 0.3243(4)
H27_2 H 0.6529 0.1144 0.3338
C38_2 C 0.5083(12) 0.0123(4) 0.1748(4)
C39_2 C 0.9274(10) 0.3010(4) 0.7288(4)
C40_2 C 0.8929(9) 0.2643(4) 0.7895(3)
C41_2 C 0.8948(9) 0.2932(4) 0.8419(3)
C42_2 C 0.8395(10) 0.2636(4) 0.8957(3)
H31_2 H 0.8432 0.2823 0.9298
C43_2 C 0.7776(9) 0.2061(4) 0.9010(3)
C44_2 C 0.7801(10) 0.1772(4) 0.8492(4)
H32_2 H 0.7433 0.1381 0.8515
C45_2 C 0.8358(10) 0.2059(4) 0.7959(3)
H33_2 H 0.8360 0.1859 0.7622
C46_2 C 0.9648(10) 0.3538(4) 0.8403(3)
C47_2 C 0.7039(10) 0.1801(4) 0.9640(3)
C48_2 C 0.5905(11) 0.2364(4) 0.9917(3)
C49_2 C 0.4883(10) 0.2794(4) 0.9553(4)
H34_2 H 0.4853 0.2710 0.9166
C50_2 C 0.3909(10) 0.3341(4) 0.9744(3)
C54_2 C 0.2832(10) 0.3785(4) 0.9308(3)
C56_2 C 0.8573(13) 0.1521(4) 0.9983(4)
C57_2 C 0.6004(12) 0.1277(4) 0.9628(4)
O40 O 0.5708(8) 0.6679(3) 0.2546(3)
O4_2 O 0.7797(8) 0.9865(3) 0.5816(3)
H3_2 H 0.8697 0.9677 0.5639
H4_2 H 0.7077 0.9619 0.5838
O24_2 O 0.5786(8) 0.6989(3) 0.3432(3)
F7_2 F 0.9537(7) 0.9347(3) 0.1697(2)
F9_2 F 0.7936(8) 0.9656(3) 0.0998(2)
F10_2 F 0.4590(8) 0.9842(3) 0.1326(3)
C22_2 C 0.8409(10) 0.9673(4) 0.3474(3)
C23_2 C 0.8026(10) 0.9513(4) 0.2941(3)
H25_2 H 0.8421 0.9102 0.2837
C24_2 C 0.7080(10) 0.9947(4) 0.2565(3)
C27_2 C 0.9299(10) 0.9157(4) 0.3891(3)
C28_2 C 0.6654(11) 0.9713(4) 0.2004(3)
C29_2 C 0.6271(10) 0.9024(4) 0.2166(3)
C30_2 C 0.5184(10) 0.8912(4) 0.2666(3)
H28_2 H 0.4646 0.9258 0.2865
C31_2 C 0.4863(10) 0.8311(4) 0.2884(3)
C32_2 C 0.5703(10) 0.7784(4) 0.2595(3)
C33_2 C 0.6731(10) 0.7891(4) 0.2076(3)
H29_2 H 0.7226 0.7548 0.1867
C34_2 C 0.7039(11) 0.8505(4) 0.1859(3)
H30_2 H 0.7751 0.8569 0.1513
C35_2 C 0.3557(10) 0.8261(4) 0.3404(4)
C36_2 C 0.5714(10) 0.7098(4) 0.2882(4)
C37_2 C 0.8185(13) 0.9764(4) 0.1533(4)
loop_
_geom_bond_atom_site_label_1
_geom_bond_atom_site_label_2
_geom_bond_site_symmetry_1
_geom_bond_site_symmetry_2
H3 O4 1_555 1_555
H4 O4 1_555 1_555
O20 C27 1_555 1_555
O21 C27 1_555 1_555
O22 C35 1_555 1_555
O23 C35 1_555 1_555
O24 C36 1_555 1_555
O25 C36 1_555 1_555
F7 C37 1_555 1_555
F9 C37 1_555 1_555
C23 C22 1_555 1_555
H25 C23 1_555 1_555
C24 C23 1_555 1_555
C27 C22 1_555 1_555
C28 C24 1_555 1_555
C29 C28 1_555 1_555
C30 C29 1_555 1_555
H28 C30 1_555 1_555
C31 C30 1_555 1_555
C32 C31 1_555 1_555
C33 C32 1_555 1_555
H29 C33 1_555 1_555
C34 C29 1_555 1_555
H30 C34 1_555 1_555
C35 C31 1_555 1_555
C36 C32 1_555 1_555
C37 C28 1_555 1_555
Tb6 O22 1_555 1_555
Tb8 O23 1_555 1_555
Tb9 O25 1_555 1_555
C33 C34 1_555 1_555
Tb1 O1 1_555 1_555
Tb2 O5 1_555 1_555
Tb9 O9 1_555 1_555
O1 C1 1_555 1_555
O2 Tb1 1_555 1_555
H1 O2 1_555 1_555
H2 O2 1_555 1_555
O3 C1 1_555 1_555
O5 Tb1 1_555 1_555
O9 C16 1_555 1_555
O10 Tb2 1_555 1_555
H9 O10 1_555 1_555
H10 O10 1_555 1_555
O11 Tb9 1_555 1_555
O12 Tb9 1_555 1_555
H11 O12 1_555 1_555
H12 O12 1_555 1_555
O14 Tb9 1_555 1_555
H13 O14 1_555 1_555
H14 O14 1_555 1_555
O15 C17 1_555 1_555
O16 Tb9 1_555 1_555
H15 O16 1_555 1_555
H16 O16 1_555 1_555
O17 Tb1 1_555 1_555
O19 Tb1 1_555 1_555
O27 C39 1_555 1_555
O29 C46 1_555 1_555
O30 C54 1_555 1_555
O31 C54 1_555 1_555
F11 C38 1_555 1_555
F12 C38 1_555 1_555
F13 C56 1_555 1_555
F17 C57 1_555 1_555
F18 C57 1_555 1_555
C1 C2 1_555 1_555
C2 C3 1_555 1_555
C3 C4 1_555 1_555
C5 C4 1_555 1_555
C6 C5 1_555 1_555
H20 C6 1_555 1_555
C7 C2 1_555 1_555
H21 C7 1_555 1_555
C8 O5 1_555 1_555
H22 C11 1_555 1_555
C12 C11 1_555 1_555
C13 C12 1_555 1_555
C14 C13 1_555 1_555
H23 C14 1_555 1_555
C16 O11 1_555 1_555
C17 O13 1_555 1_555
C20 O17 1_555 1_555
C21 C20 1_555 1_555
H26 C25 1_555 1_555
C26 C21 1_555 1_555
H27 C26 1_555 1_555
C40 C39 1_555 1_555
C41 C40 1_555 1_555
C42 C41 1_555 1_555
H31 C42 1_555 1_555
C43 C42 1_555 1_555
C44 C43 1_555 1_555
H32 C44 1_555 1_555
C45 C40 1_555 1_555
H33 C45 1_555 1_555
C46 C41 1_555 1_555
C47 C43 1_555 1_555
C48 C47 1_555 1_555
C49 C48 1_555 1_555
H34 C49 1_555 1_555
C50 C49 1_555 1_555
C54 C50 1_555 1_555
C56 C47 1_555 1_555
C57 C47 1_555 1_555
Tb11 O30 1_555 1_555
Tb14 O29 1_555 1_555
O38 Tb1 1_555 1_555
O39 Tb2 1_555 1_555
O41 Tb9 1_555 1_555
O43 Tb9 1_555 1_555
O19 C20 1_555 1_555
C3 C8 1_555 1_555
C6 C7 1_555 1_555
C12 C16 1_555 1_555
C13 C17 1_555 1_555
C25 C26 1_555 1_555
C44 C45 1_555 1_555
O32 C55 1_555 1_555
O33 C55 1_555 1_555
C52 C51 1_555 1_555
H35 C52 1_555 1_555
H36 C53 1_555 1_555
C55 C51 1_555 1_555
Tb15 O32 1_555 1_555
O33 Tb15 1_555 1_555
C52 C53 1_555 1_555
H5 O6 1_555 1_555
H6 O6 1_555 1_555
H7 O8 1_555 1_555
H8 O8 1_555 1_555
O18 Tb15 1_555 1_555
H17 O18 1_555 1_555
H18 O18 1_555 1_555
F1 C18 1_555 1_555
F2 C18 1_555 1_555
F3 C18 1_555 1_555
F4 C19 1_555 1_555
F5 C19 1_555 1_555
C10 C9 1_555 1_555
C15 C10 1_555 1_555
H24 C15 1_555 1_555
C18 C9 1_555 1_555
C19 C9 1_555 1_555
Tb11 O28 1_555 1_555
O42 Tb15 1_555 1_555
H5_2 O6_2 1_555 1_555
H6_2 O6_2 1_555 1_555
H7_2 O8_2 1_555 1_555
H8_2 O8_2 1_555 1_555
O18_2 Tb14 1_555 1_555
H17_2 O18_2 1_555 1_555
H18_2 O18_2 1_555 1_555
F1_2 C18_2 1_555 1_555
F2_2 C18_2 1_555 1_555
F3_2 C18_2 1_555 1_555
F4_2 C19_2 1_555 1_555
F5_2 C19_2 1_555 1_555
C10_2 C9_2 1_555 1_555
C15_2 C10_2 1_555 1_555
H24_2 C15_2 1_555 1_555
C18_2 C9_2 1_555 1_555
C19_2 C9_2 1_555 1_555
O45 Tb14 1_555 1_555
O46 Tb14 1_555 1_555
O45 C55_2 1_555 1_555
O46 C55_2 1_555 1_555
C52_2 C51_2 1_555 1_555
H35_2 C52_2 1_555 1_555
H36_2 C53_2 1_555 1_555
C55_2 C51_2 1_555 1_555
C52_2 C53_2 1_555 1_555
Tb6 O1_2 1_555 1_555
Tb8 O5_2 1_555 1_555
Tb11 O9_2 1_555 1_555
O1_2 C1_2 1_555 1_555
O2_2 Tb6 1_555 1_555
H1_2 O2_2 1_555 1_555
H2_2 O2_2 1_555 1_555
O3_2 C1_2 1_555 1_555
O5_2 Tb6 1_555 1_555
O9_2 C16_2 1_555 1_555
O10_2 Tb8 1_555 1_555
H9_2 O10_2 1_555 1_555
H10_2 O10_2 1_555 1_555
O11_2 Tb11 1_555 1_555
O12_2 Tb11 1_555 1_555
H11_2 O12_2 1_555 1_555
H12_2 O12_2 1_555 1_555
O14_2 Tb11 1_555 1_555
H13_2 O14_2 1_555 1_555
H14_2 O14_2 1_555 1_555
O35 C17_2 1_555 1_555
O16_2 Tb11 1_555 1_555
H15_2 O16_2 1_555 1_555
H16_2 O16_2 1_555 1_555
O17_2 Tb6 1_555 1_555
O19_2 Tb6 1_555 1_555
O27_2 C39_2 1_555 1_555
O42 C46_2 1_555 1_555
O43 C54_2 1_555 1_555
O44 C54_2 1_555 1_555
F11_2 C38_2 1_555 1_555
F12_2 C38_2 1_555 1_555
F13_2 C56_2 1_555 1_555
F17_2 C57_2 1_555 1_555
F18_2 C57_2 1_555 1_555
C1_2 C2_2 1_555 1_555
C2_2 C3_2 1_555 1_555
C3_2 C4_2 1_555 1_555
C5_2 C4_2 1_555 1_555
C6_2 C5_2 1_555 1_555
H20_2 C6_2 1_555 1_555
C7_2 C2_2 1_555 1_555
H21_2 C7_2 1_555 1_555
C8_2 O5_2 1_555 1_555
H22_2 C11_2 1_555 1_555
C12_2 C11_2 1_555 1_555
C13_2 C12_2 1_555 1_555
C14_2 C13_2 1_555 1_555
H23_2 C14_2 1_555 1_555
C16_2 O11_2 1_555 1_555
C17_2 O34 1_555 1_555
C20_2 O17_2 1_555 1_555
C21_2 C20_2 1_555 1_555
H26_2 C25_2 1_555 1_555
C26_2 C21_2 1_555 1_555
H27_2 C26_2 1_555 1_555
C40_2 C39_2 1_555 1_555
C41_2 C40_2 1_555 1_555
C42_2 C41_2 1_555 1_555
H31_2 C42_2 1_555 1_555
C43_2 C42_2 1_555 1_555
C44_2 C43_2 1_555 1_555
H32_2 C44_2 1_555 1_555
C45_2 C40_2 1_555 1_555
H33_2 C45_2 1_555 1_555
C46_2 C41_2 1_555 1_555
C47_2 C43_2 1_555 1_555
C48_2 C47_2 1_555 1_555
C49_2 C48_2 1_555 1_555
H34_2 C49_2 1_555 1_555
C50_2 C49_2 1_555 1_555
C54_2 C50_2 1_555 1_555
C56_2 C47_2 1_555 1_555
C57_2 C47_2 1_555 1_555
O40 Tb11 1_555 1_555
O19_2 C20_2 1_555 1_555
C3_2 C8_2 1_555 1_555
C6_2 C7_2 1_555 1_555
C12_2 C16_2 1_555 1_555
C13_2 C17_2 1_555 1_555
C25_2 C26_2 1_555 1_555
C44_2 C45_2 1_555 1_555
H3_2 O4_2 1_555 1_555
H4_2 O4_2 1_555 1_555
O36 C27_2 1_555 1_555
O37 C27_2 1_555 1_555
O38 C35_2 1_555 1_555
O39 C35_2 1_555 1_555
O24_2 C36_2 1_555 1_555
O40 C36_2 1_555 1_555
F7_2 C37_2 1_555 1_555
F9_2 C37_2 1_555 1_555
C23_2 C22_2 1_555 1_555
H25_2 C23_2 1_555 1_555
C24_2 C23_2 1_555 1_555
C27_2 C22_2 1_555 1_555
C28_2 C24_2 1_555 1_555
C29_2 C28_2 1_555 1_555
C30_2 C29_2 1_555 1_555
H28_2 C30_2 1_555 1_555
C31_2 C30_2 1_555 1_555
C32_2 C31_2 1_555 1_555
C33_2 C32_2 1_555 1_555
H29_2 C33_2 1_555 1_555
C34_2 C29_2 1_555 1_555
H30_2 C34_2 1_555 1_555
C35_2 C31_2 1_555 1_555
C36_2 C32_2 1_555 1_555
C37_2 C28_2 1_555 1_555
C33_2 C34_2 1_555 1_555

#END
