
###############################################################################
#
# This file contains modified crystal structure data generated from the
# MOF subset of the Cambridge Structural Database (CSD) v543 
# hosted by the Cambridge Crystallographic Data Centre (CCDC).
#
# This work is licensed under the Creative Commons
# Attribution-NonCommercial-ShareAlike 4.0 International License.
# To view a copy of this license, visit
# http://creativecommons.org/licenses/by-nc-sa/4.0/
# or send a letter to
# Creative Commons, PO Box 1866, Mountain View, CA 94042, USA.
#
# CIF created using the CSD Python API on 29 September 2022
# The structure has been converted into the P1 space group
# The structure has a 3D framework
# The original CSD entry GAWMOI is in the triclinic crystal system
# The framework has been calculated to contain at least 10.0% void space
# The void calculation uses a probe of radius 1.32A, grid spacing 0.4
# H atom positions have been added when not included in the experimental data
#
###############################################################################

data_GAWMOI
_chemical_formula_moiety         '(C18 H24 O25 Tb2)n'
_symmetry_cell_setting           triclinic
_symmetry_space_group_name_H-M   'P 1'
_symmetry_Int_Tables_number      1
_space_group_name_Hall           'P 1'
loop_
_symmetry_equiv_pos_site_id
_symmetry_equiv_pos_as_xyz
1 x,y,z
_cell_length_a                   6.0783(2)
_cell_length_b                   8.6457(2)
_cell_length_c                   16.1954(5)
_cell_angle_alpha                77.801(2)
_cell_angle_beta                 88.351(2)
_cell_angle_gamma                83.637(1)
_cell_volume                     826.732
loop_
_atom_site_label
_atom_site_type_symbol
_atom_site_fract_x
_atom_site_fract_y
_atom_site_fract_z
O17 O 0.1613(7) 0.2663(5) 0.1620(3)
H16 H 0.1519 0.0477 0.3554
Tb3 Tb 0.11990(5) 0.89737(3) 0.781910(16)
O18 O 0.1771(9) 0.9904(6) 0.3171(3)
H15 H 0.2554 0.9082 0.3149
O25 O 0.1646(8) 0.9295(5) 0.1464(3)
C4 C 0.1427(12) 0.2297(7) 0.8356(4)
C6 C 0.0815(12) 0.0382(7) 0.9676(4)
H4 H 0.1878 0.0885 0.9949
O6 O 0.1899(8) 0.1699(5) 0.7720(3)
O7 O 0.2358(9) 0.3395(5) 0.8546(3)
O12 O 0.2828(8) 0.0079(5) 0.6416(3)
C16 C 0.8002(13) 0.2433(9) 0.3877(4)
C17 C 0.7369(13) 0.0766(9) 0.4246(4)
H13 H 0.8567 0.0193 0.4619
C18 C 0.5249(12) 0.0826(9) 0.4773(4)
H14 H 0.5450 0.1450 0.5199
O28 O 0.8478(9) 0.2767(5) 0.3096(3)
O30 O 0.8063(12) 0.3340(8) 0.4367(4)
O33 O 0.3430(9) 0.1583(6) 0.4264(3)
Tb6 Tb 0.88010(5) 0.10263(3) 0.218090(16)
H19 H 0.209327 0.167466 0.46249
O5 O 0.5096(8) 0.7083(5) 0.0073(3)
C10 C 0.3687(11) 0.2534(7) 0.1655(4)
C11 C 0.4851(11) 0.3964(7) 0.1192(4)
H9 H 0.4316 0.4896 0.1425
C12 C 0.4354(11) 0.4334(6) 0.0248(4)
H10 H 0.2767 0.4665 0.0169
C14 C 0.0340(12) 0.8411(7) 0.1053(4)
H11 H 0.1274 0.7579 0.0841
O14 O 0.4897(7) 0.1352(5) 0.2048(3)
O19 O 0.7168(7) 0.3606(5) 0.1340(2)
O27 O 0.8051(8) 0.0814(5) 0.0724(3)
C1 C 0.6313(11) 0.7466(7) 0.8345(4)
C2 C 0.5149(11) 0.6036(7) 0.8808(4)
H1 H 0.5684 0.5104 0.8575
C3 C 0.5646(11) 0.5666(6) 0.9752(4)
H2 H 0.7233 0.5335 0.9831
C7 C 0.1998(13) 0.7567(9) 0.6123(4)
C8 C 0.2631(13) 0.9234(9) 0.5754(4)
H5 H 0.1433 0.9807 0.5381
C9 C 0.4751(12) 0.9174(9) 0.5227(4)
H6 H 0.4550 0.8550 0.4801
O1 O 0.5103(7) 0.8648(5) 0.7952(3)
O2 O 0.8387(7) 0.7337(5) 0.8380(3)
O4 O 0.2832(7) 0.6394(5) 0.8660(2)
O9 O 0.1949(8) 0.9186(5) 0.9276(3)
O10 O 0.1522(9) 0.7233(5) 0.6904(3)
O11 O 0.1937(12) 0.6660(8) 0.5633(4)
O13 O 0.6570(9) 0.8417(6) 0.5736(3)
O20 O 0.4904(8) 0.2917(5) 0.9927(3)
O31 O 0.7172(8) 0.9921(5) 0.3584(3)
H17 H 0.349908 0.745084 0.997916
H18 H 0.628523 0.731216 0.600147
H20 H 0.651738 0.258383 0.999107
O22 O 0.8101(8) 0.8301(5) 0.2280(3)
C5 C 0.9660(12) 0.1589(7) 0.8947(4)
H3 H 0.8726 0.2421 0.9159
O3 O 0.8229(9) 0.0096(6) 0.6829(3)
H7 H 0.7446 0.0918 0.6851
O8 O 0.8354(8) 0.0705(5) 0.8536(3)
C13 C 0.8573(12) 0.7703(7) 0.1644(4)
C15 C 0.9185(12) 0.9618(7) 0.0324(4)
H12 H 0.8122 0.9115 0.0051
O23 O 0.7642(9) 0.6605(5) 0.1454(3)
H8 H 0.8481 0.9523 0.6446
H17_2 H 0.650092 0.254916 0.00208372
H18_2 H 0.371477 0.268784 0.399853
H20_2 H 0.348262 0.741617 0.000892804
H19_2 H 0.790673 0.832534 0.53751
loop_
_geom_bond_atom_site_label_1
_geom_bond_atom_site_label_2
_geom_bond_site_symmetry_1
_geom_bond_site_symmetry_2
O18 H15 1_555 1_555
H4 C6 1_555 1_555
O6 C4 1_555 1_555
O7 C4 1_555 1_555
C16 C17 1_555 1_555
C17 H13 1_555 1_555
H14 C18 1_555 1_555
O28 C16 1_555 1_555
O30 C16 1_555 1_555
O33 C18 1_555 1_555
Tb6 O28 1_555 1_555
C17 C18 1_555 1_555
O33 H19 1_555 1_555
C10 C11 1_555 1_555
C11 H9 1_555 1_555
H10 C12 1_555 1_555
C14 H11 1_555 1_555
O14 C10 1_555 1_555
O17 C10 1_555 1_555
O19 C11 1_555 1_555
O25 C14 1_555 1_555
O27 Tb6 1_555 1_555
Tb6 O14 1_555 1_555
C11 C12 1_555 1_555
O19 Tb6 1_555 1_555
C1 C2 1_555 1_555
C2 H1 1_555 1_555
C3 C2 1_555 1_555
H2 C3 1_555 1_555
C7 C8 1_555 1_555
C8 H5 1_555 1_555
C9 C8 1_555 1_555
H6 C9 1_555 1_555
O1 C1 1_555 1_555
O2 C1 1_555 1_555
O4 C2 1_555 1_555
O10 C7 1_555 1_555
O11 C7 1_555 1_555
O13 C9 1_555 1_555
Tb3 O1 1_555 1_555
O4 Tb3 1_555 1_555
O9 Tb3 1_555 1_555
O10 Tb3 1_555 1_555
O13 H18 1_555 1_555
O20 H20 1_555 1_555
C5 H3 1_555 1_555
O3 H7 1_555 1_555
O8 C5 1_555 1_555
H12 C15 1_555 1_555
O22 C13 1_555 1_555
O23 C13 1_555 1_555
O33 H18_2 1_555 1_555
O5 H20_2 1_555 1_555
O13 H19_2 1_555 1_555

#END
