
###############################################################################
#
# This file contains modified crystal structure data generated from the
# MOF subset of the Cambridge Structural Database (CSD) v543 
# hosted by the Cambridge Crystallographic Data Centre (CCDC).
#
# This work is licensed under the Creative Commons
# Attribution-NonCommercial-ShareAlike 4.0 International License.
# To view a copy of this license, visit
# http://creativecommons.org/licenses/by-nc-sa/4.0/
# or send a letter to
# Creative Commons, PO Box 1866, Mountain View, CA 94042, USA.
#
# CIF created using the CSD Python API on 29 September 2022
# The structure has been converted into the P1 space group
# The structure has a 3D framework
# The original CSD entry GAWMOJ is in the tetragonal crystal system
# The framework has been calculated to contain at least 10.0% void space
# The void calculation uses a probe of radius 1.32A, grid spacing 0.4
# H atom positions have been added when not included in the experimental data
#
###############################################################################

data_GAWMOJ
_chemical_formula_moiety         '(C264 H208 O104 Zn16)n'
_symmetry_cell_setting           triclinic
_symmetry_space_group_name_H-M   'P 1'
_symmetry_Int_Tables_number      1
_space_group_name_Hall           'P 1'
loop_
_symmetry_equiv_pos_site_id
_symmetry_equiv_pos_as_xyz
1 x,y,z
_cell_length_a                   28.598(5)
_cell_length_b                   28.598(5)
_cell_length_c                   17.074(5)
_cell_angle_alpha                90
_cell_angle_beta                 90
_cell_angle_gamma                90
_cell_volume                     13963.9
loop_
_atom_site_label
_atom_site_type_symbol
_atom_site_fract_x
_atom_site_fract_y
_atom_site_fract_z
Zn1 Zn 0.177198(19) 0.06671(2) 0.36751(4)
Zn2 Zn 0.281212(18) 0.12308(2) 0.38132(3)
O5 O 0.18796(19) 0.10135(18) 0.2726(3)
C6 C 0.18284(19) 0.2014(2) 0.0367(3)
O9 O 0.24901(16) 0.14593(18) 0.2878(2)
C12 C 0.2041(2) 0.1571(3) 0.1772(4)
C13 C 0.2371(2) 0.1862(2) 0.1390(4)
H9 H 0.2666 0.1899 0.1609
C16 C 0.2143(2) 0.1334(3) 0.2510(4)
C22 C 0.2267(2) 0.2087(3) 0.0716(4)
H14 H 0.2483 0.2287 0.0486
C23 C 0.1512(2) 0.1736(3) 0.0710(4)
H15 H 0.1223 0.1690 0.0471
C25 C 0.1606(2) 0.1517(3) 0.1407(4)
H17 H 0.1378 0.1331 0.1640
H23 H 0.0116 0.3345 0.0219
O13 O 0.1139(2) 0.0386(4) 0.3596(5)
O14 O 0.22505(13) 0.02012(15) 0.3852(3)
O15 O 0.34150(13) 0.15185(14) 0.3694(3)
O16 O 0.24564(16) 0.14214(18) 0.4719(2)
O17 O 0.17641(19) 0.1082(3) 0.4575(3)
O18 O 0.29245(15) 0.05619(14) 0.3643(3)
H25 H 0.112611 0.017553 0.313394
H26 H 0.107148 0.0203853 0.407805
O1 O 0.17637(13) 0.22653(16) 0.9688(3)
O2 O 0.13208(15) 0.21377(14) 0.7686(2)
O3 O 0.05381(15) 0.29225(19) 0.9232(3)
O4 O 0.13898(15) 0.34795(14) 0.8588(3)
C1 C 0.12808(16) 0.26653(17) 0.8783(3)
O6 O 0.27495(13) 0.52012(15) 0.8852(3)
C2 C 0.1527(2) 0.1957(2) 0.7015(3)
C3 C 0.07606(17) 0.2736(2) 0.8545(3)
H1 H 0.0619 0.2440 0.8395
H2 H 0.0735 0.2952 0.8110
C4 C 0.20693(18) 0.47482(19) 0.8725(3)
C5 C 0.1865(2) 0.1567(2) 0.5644(4)
C9 C 0.1501(2) 0.3109(2) 0.9084(3)
H5 H 0.1387 0.3175 0.9608
H6 H 0.1838 0.3072 0.9110
O11 O 0.20755(15) 0.55619(14) 0.8643(3)
C11 C 0.1553(2) 0.25258(19) 0.8041(3)
H7 H 0.1564 0.2787 0.7679
H8 H 0.1871 0.2440 0.8178
C14 C 0.1293(2) 0.2290(2) 0.9400(3)
H10 H 0.1080 0.2366 0.9823
H11 H 0.1201 0.1992 0.9177
C15 C 0.23160(18) 0.51983(19) 0.8743(3)
C17 C 0.2121(2) 0.1877(2) 0.6056(4)
H12 H 0.2415 0.1958 0.5869
C18 C 0.1632(2) 0.3891(2) 0.8666(3)
C19 C 0.2289(2) 0.4359(2) 0.8982(5)
H13 H 0.2592 0.4383 0.9179
C20 C 0.0071(2) 0.3055(3) 0.9194(4)
C21 C 0.2041(2) 0.1346(2) 0.4924(4)
C24 C 0.1962(2) 0.2087(2) 0.6765(4)
H16 H 0.2144 0.2301 0.7042
C26 C 0.1245(2) 0.1647(3) 0.6598(4)
H18 H 0.0947 0.1574 0.6777
C27 C 0.1633(3) 0.4712(2) 0.8410(4)
H19 H 0.1486 0.4977 0.8212
C28 C 0.1414(2) 0.1449(3) 0.5915(4)
H20 H 0.1230 0.1239 0.5634
C29 C 0.2071(2) 0.3925(2) 0.8956(4)
H21 H 0.2226 0.3659 0.9137
C31 C 0.1408(2) 0.4285(2) 0.8381(4)
H22 H 0.1108 0.4262 0.8172
Zn4 Zn 0.322802(19) 0.56671(2) 0.86751(4)
Zn6 Zn 0.218788(18) 0.62308(2) 0.88132(3)
O7 O 0.84150(13) 0.34815(14) 0.8694(3)
C7 C 0.9781(2) 0.2973(2) 0.8573(4)
H3 H 0.9885 0.2809 0.8137
C8 C 0.93285(19) 0.3142(2) 0.8610(4)
H4 H 0.9133 0.3090 0.8184
C10 C 0.8660(2) 0.3533(3) 0.9276(5)
O12 O 0.8520(2) 0.3734(3) 0.9838(4)
C30 C 0.9162(2) 0.3369(3) 0.9206(4)
C32 C 0.9912(3) 0.3282(4) 0.9808(4)
C33 C 0.9472(3) 0.3424(5) 0.9862(6)
Zn7 Zn 0.781212(18) 0.37692(2) 0.88132(3)
O7_2 O 0.15850(13) 0.65185(14) 0.8694(3)
C7_2 C 0.0219(2) 0.7027(2) 0.8573(4)
H3_2 H 0.0115 0.7191 0.8137
C8_2 C 0.06715(19) 0.6858(2) 0.8610(4)
H4_2 H 0.0867 0.6910 0.8184
C10_2 C 0.1340(2) 0.6467(3) 0.9276(5)
O12_2 O 0.1480(2) 0.6266(3) 0.9838(4)
C30_2 C 0.0838(2) 0.6631(3) 0.9206(4)
C32_2 C 0.0088(3) 0.6718(4) 0.9808(4)
C33_2 C 0.0528(3) 0.6576(5) 0.9862(6)
Zn1_2 Zn 0.822802(19) 0.93329(2) 0.36751(4)
Zn2_2 Zn 0.718788(18) 0.87692(2) 0.38132(3)
O5_2 O 0.81204(19) 0.89865(18) 0.2726(3)
C6_2 C 0.81716(19) 0.7986(2) 0.0367(3)
O9_2 O 0.75099(16) 0.85407(18) 0.2878(2)
C12_2 C 0.7959(2) 0.8429(3) 0.1772(4)
C13_2 C 0.7629(2) 0.8138(2) 0.1390(4)
H9_2 H 0.7334 0.8101 0.1609
C16_2 C 0.7857(2) 0.8666(3) 0.2510(4)
C22_2 C 0.7733(2) 0.7913(3) 0.0716(4)
H14_2 H 0.7517 0.7713 0.0486
C23_2 C 0.8488(2) 0.8264(3) 0.0710(4)
H15_2 H 0.8777 0.8310 0.0471
C25_2 C 0.8394(2) 0.8483(3) 0.1407(4)
H17_2 H 0.8622 0.8669 0.1640
H23_2 H 0.9884 0.6655 0.0219
O13_2 O 0.8861(2) 0.9614(4) 0.3596(5)
O14_2 O 0.77495(13) 0.97988(15) 0.3852(3)
O15_2 O 0.65850(13) 0.84815(14) 0.3694(3)
O16_2 O 0.75436(16) 0.85786(18) 0.4719(2)
O17_2 O 0.82359(19) 0.8918(3) 0.4575(3)
O18_2 O 0.70755(15) 0.94381(14) 0.3643(3)
H25_2 H 0.887389 0.982447 0.313394
H26_2 H 0.892852 0.979615 0.407805
O1_2 O 0.82363(13) 0.77347(16) 0.9688(3)
O2_2 O 0.86792(15) 0.78623(14) 0.7686(2)
O3_2 O 0.94619(15) 0.70775(19) 0.9232(3)
O4_2 O 0.86102(15) 0.65205(14) 0.8588(3)
C1_2 C 0.87192(16) 0.73347(17) 0.8783(3)
O6_2 O 0.72505(13) 0.47988(15) 0.8852(3)
C2_2 C 0.8473(2) 0.8043(2) 0.7015(3)
C3_2 C 0.92394(17) 0.7264(2) 0.8545(3)
H1_2 H 0.9381 0.7560 0.8395
H2_2 H 0.9265 0.7048 0.8110
C4_2 C 0.79307(18) 0.52518(19) 0.8725(3)
C5_2 C 0.8135(2) 0.8433(2) 0.5644(4)
C9_2 C 0.8499(2) 0.6891(2) 0.9084(3)
H5_2 H 0.8613 0.6825 0.9608
H6_2 H 0.8162 0.6928 0.9110
O11_2 O 0.79245(15) 0.44381(14) 0.8643(3)
C11_2 C 0.8447(2) 0.74742(19) 0.8041(3)
H7_2 H 0.8436 0.7213 0.7679
H8_2 H 0.8129 0.7560 0.8178
C14_2 C 0.8707(2) 0.7710(2) 0.9400(3)
H10_2 H 0.8920 0.7634 0.9823
H11_2 H 0.8799 0.8008 0.9177
C15_2 C 0.76840(18) 0.48017(19) 0.8743(3)
C17_2 C 0.7879(2) 0.8123(2) 0.6056(4)
H12_2 H 0.7585 0.8042 0.5869
C18_2 C 0.8368(2) 0.6109(2) 0.8666(3)
C19_2 C 0.7711(2) 0.5641(2) 0.8982(5)
H13_2 H 0.7408 0.5617 0.9179
C20_2 C 0.9929(2) 0.6945(3) 0.9194(4)
C21_2 C 0.7959(2) 0.8654(2) 0.4924(4)
C24_2 C 0.8038(2) 0.7913(2) 0.6765(4)
H16_2 H 0.7856 0.7699 0.7042
C26_2 C 0.8755(2) 0.8353(3) 0.6598(4)
H18_2 H 0.9053 0.8426 0.6777
C27_2 C 0.8367(3) 0.5288(2) 0.8410(4)
H19_2 H 0.8514 0.5023 0.8212
C28_2 C 0.8586(2) 0.8551(3) 0.5915(4)
H20_2 H 0.8770 0.8761 0.5634
C29_2 C 0.7929(2) 0.6075(2) 0.8956(4)
H21_2 H 0.7774 0.6341 0.9137
C31_2 C 0.8592(2) 0.5715(2) 0.8381(4)
H22_2 H 0.8892 0.5738 0.8172
Zn4_2 Zn 0.677198(19) 0.43329(2) 0.86751(4)
C15_3 C 0.26840(18) 0.01983(19) 0.3743(3)
O1_3 O 0.32363(13) 0.72653(16) 0.4688(3)
O2_3 O 0.36792(15) 0.71377(14) 0.2686(2)
O3_3 O 0.44619(15) 0.79225(19) 0.4232(3)
O4_3 O 0.36102(15) 0.84795(14) 0.3588(3)
C1_3 C 0.37192(16) 0.76653(17) 0.3783(3)
O5_3 O 0.31204(19) 0.60135(18) 0.7726(3)
C2_3 C 0.3473(2) 0.6957(2) 0.2015(3)
C3_3 C 0.42394(17) 0.7736(2) 0.3545(3)
H1_3 H 0.4381 0.7440 0.3395
H2_3 H 0.4265 0.7952 0.3110
C4_3 C 0.29307(18) 0.97482(19) 0.3725(3)
C5_3 C 0.3135(2) 0.6567(2) 0.0644(4)
C6_3 C 0.31716(19) 0.7014(2) 0.5367(3)
O9_3 O 0.25099(16) 0.64593(18) 0.7878(2)
C7_3 C 0.5219(2) 0.7973(2) 0.3573(4)
H3_3 H 0.5115 0.7809 0.3137
C8_3 C 0.56715(19) 0.8142(2) 0.3610(4)
H4_3 H 0.5867 0.8090 0.3184
C9_3 C 0.3499(2) 0.8109(2) 0.4084(3)
H5_3 H 0.3613 0.8175 0.4608
H6_3 H 0.3162 0.8072 0.4110
C10_3 C 0.6340(2) 0.8533(3) 0.4276(5)
C11_3 C 0.3447(2) 0.75258(19) 0.3041(3)
H7_3 H 0.3436 0.7787 0.2679
H8_3 H 0.3129 0.7440 0.3178
C12_3 C 0.2959(2) 0.6571(3) 0.6772(4)
C13_3 C 0.2629(2) 0.6862(2) 0.6390(4)
H9_3 H 0.2334 0.6899 0.6609
C14_3 C 0.3707(2) 0.7290(2) 0.4400(3)
H10_3 H 0.3920 0.7366 0.4823
H11_3 H 0.3799 0.6992 0.4177
C16_3 C 0.2857(2) 0.6334(3) 0.7510(4)
C17_3 C 0.2879(2) 0.6877(2) 0.1056(4)
H12_3 H 0.2585 0.6958 0.0869
C18_3 C 0.3368(2) 0.8891(2) 0.3666(3)
C19_3 C 0.2711(2) 0.9359(2) 0.3982(5)
H13_3 H 0.2408 0.9383 0.4179
C20_3 C 0.4929(2) 0.8055(3) 0.4194(4)
C22_3 C 0.2733(2) 0.7087(3) 0.5716(4)
H14_3 H 0.2517 0.7287 0.5486
C23_3 C 0.3488(2) 0.6736(3) 0.5710(4)
H15_3 H 0.3777 0.6690 0.5471
C24_3 C 0.3038(2) 0.7087(2) 0.1765(4)
H16_3 H 0.2856 0.7301 0.2042
C25_3 C 0.3394(2) 0.6517(3) 0.6407(4)
H17_3 H 0.3622 0.6331 0.6640
O12_3 O 0.6480(2) 0.8734(3) 0.4838(4)
C26_3 C 0.3755(2) 0.6647(3) 0.1598(4)
H18_3 H 0.4053 0.6574 0.1777
C27_3 C 0.3367(3) 0.9712(2) 0.3410(4)
H19_3 H 0.3514 0.9977 0.3212
C28_3 C 0.3586(2) 0.6449(3) 0.0915(4)
H20_3 H 0.3770 0.6239 0.0634
C29_3 C 0.2929(2) 0.8925(2) 0.3956(4)
H21_3 H 0.2774 0.8659 0.4137
C30_3 C 0.5838(2) 0.8369(3) 0.4206(4)
C31_3 C 0.3592(2) 0.9285(2) 0.3381(4)
H22_3 H 0.3892 0.9262 0.3172
C32_3 C 0.5088(3) 0.8282(4) 0.4808(4)
H23_3 H 0.4884 0.8345 0.5219
C33_3 C 0.5528(3) 0.8424(5) 0.4862(6)
H24 H 0.5636 0.8559 0.5324
O13_3 O 0.3861(2) 0.5386(4) 0.8596(5)
O16_3 O 0.25436(16) 0.64214(18) 0.9719(2)
O17_3 O 0.32359(19) 0.6082(3) 0.9575(3)
H25_3 H 0.387389 0.517553 0.813394
H26_3 H 0.392852 0.520385 0.907805
C21_3 C 0.2959(2) 0.6346(2) 0.9924(4)
O1_4 O 0.67637(13) 0.27347(16) 0.4688(3)
O2_4 O 0.63208(15) 0.28623(14) 0.2686(2)
O3_4 O 0.55381(15) 0.20775(19) 0.4232(3)
O4_4 O 0.63898(15) 0.15205(14) 0.3588(3)
C1_4 C 0.62808(16) 0.23347(17) 0.3783(3)
O5_4 O 0.68796(19) 0.39865(18) 0.7726(3)
C2_4 C 0.6527(2) 0.3043(2) 0.2015(3)
C3_4 C 0.57606(17) 0.2264(2) 0.3545(3)
H1_4 H 0.5619 0.2560 0.3395
H2_4 H 0.5735 0.2048 0.3110
C4_4 C 0.70693(18) 0.02518(19) 0.3725(3)
C5_4 C 0.6865(2) 0.3433(2) 0.0644(4)
C6_4 C 0.68284(19) 0.2986(2) 0.5367(3)
O9_4 O 0.74901(16) 0.35407(18) 0.7878(2)
C7_4 C 0.4781(2) 0.2027(2) 0.3573(4)
H3_4 H 0.4885 0.2191 0.3137
C8_4 C 0.43285(19) 0.1858(2) 0.3610(4)
H4_4 H 0.4133 0.1910 0.3184
C9_4 C 0.6501(2) 0.1891(2) 0.4084(3)
H5_4 H 0.6387 0.1825 0.4608
H6_4 H 0.6838 0.1928 0.4110
C10_4 C 0.3660(2) 0.1467(3) 0.4276(5)
C11_4 C 0.6553(2) 0.24742(19) 0.3041(3)
H7_4 H 0.6564 0.2213 0.2679
H8_4 H 0.6871 0.2560 0.3178
C12_4 C 0.7041(2) 0.3429(3) 0.6772(4)
C13_4 C 0.7371(2) 0.3138(2) 0.6390(4)
H9_4 H 0.7666 0.3101 0.6609
C14_4 C 0.6293(2) 0.2710(2) 0.4400(3)
H10_4 H 0.6080 0.2634 0.4823
H11_4 H 0.6201 0.3008 0.4177
C16_4 C 0.7143(2) 0.3666(3) 0.7510(4)
C17_4 C 0.7121(2) 0.3123(2) 0.1056(4)
H12_4 H 0.7415 0.3042 0.0869
C18_4 C 0.6632(2) 0.1109(2) 0.3666(3)
C19_4 C 0.7289(2) 0.0641(2) 0.3982(5)
H13_4 H 0.7592 0.0617 0.4179
C20_4 C 0.5071(2) 0.1945(3) 0.4194(4)
C22_4 C 0.7267(2) 0.2913(3) 0.5716(4)
H14_4 H 0.7483 0.2713 0.5486
C23_4 C 0.6512(2) 0.3264(3) 0.5710(4)
H15_4 H 0.6223 0.3310 0.5471
C24_4 C 0.6962(2) 0.2913(2) 0.1765(4)
H16_4 H 0.7144 0.2699 0.2042
C25_4 C 0.6606(2) 0.3483(3) 0.6407(4)
H17_4 H 0.6378 0.3669 0.6640
O12_4 O 0.3520(2) 0.1266(3) 0.4838(4)
C26_4 C 0.6245(2) 0.3353(3) 0.1598(4)
H18_4 H 0.5947 0.3426 0.1777
C27_4 C 0.6633(3) 0.0288(2) 0.3410(4)
H19_4 H 0.6486 0.0023 0.3212
C28_4 C 0.6414(2) 0.3551(3) 0.0915(4)
H20_4 H 0.6230 0.3761 0.0634
C29_4 C 0.7071(2) 0.1075(2) 0.3956(4)
H21_4 H 0.7226 0.1341 0.4137
C30_4 C 0.4162(2) 0.1631(3) 0.4206(4)
C31_4 C 0.6408(2) 0.0715(2) 0.3381(4)
H22_4 H 0.6108 0.0738 0.3172
C32_4 C 0.4912(3) 0.1718(4) 0.4808(4)
H23_4 H 0.5116 0.1655 0.5219
C33_4 C 0.4472(3) 0.1576(5) 0.4862(6)
H24_2 H 0.4364 0.1441 0.5324
O13_4 O 0.6139(2) 0.4614(4) 0.8596(5)
O16_4 O 0.74564(16) 0.35786(18) 0.9719(2)
O17_4 O 0.67641(19) 0.3918(3) 0.9575(3)
H25_4 H 0.612611 0.482447 0.813394
H26_4 H 0.607148 0.479615 0.907805
C21_4 C 0.7041(2) 0.3654(2) 0.9924(4)
C15_4 C 0.73160(18) 0.98017(19) 0.3743(3)
H24_3 H 0.9364 0.3559 0.0324
H24_4 H 0.0636 0.6441 0.0324
O8 O 0.35786(18) 0.25436(16) 0.0281(2)
O10 O 0.3918(3) 0.32359(19) 0.0425(3)
C21_5 C 0.3654(2) 0.2959(2) 0.0076(4)
Zn3 Zn 0.43329(2) 0.322802(19) 0.13249(4)
Zn5 Zn 0.37692(2) 0.218788(18) 0.11868(3)
O1_5 O 0.27347(16) 0.32363(13) 0.5312(3)
O2_5 O 0.28623(14) 0.36792(15) 0.7314(2)
O3_5 O 0.20775(19) 0.44619(15) 0.5768(3)
O4_5 O 0.15205(14) 0.36102(15) 0.6412(3)
C1_5 C 0.23347(17) 0.37192(16) 0.6217(3)
O5_5 O 0.39865(18) 0.31204(19) 0.2274(3)
C2_5 C 0.3043(2) 0.3473(2) 0.7985(3)
C3_5 C 0.2264(2) 0.42394(17) 0.6455(3)
H1_5 H 0.2560 0.4381 0.6605
H2_5 H 0.2048 0.4265 0.6890
O7_3 O 0.15185(14) 0.65850(13) 0.6306(3)
C4_5 C 0.02518(19) 0.29307(18) 0.6275(3)
C5_5 C 0.3433(2) 0.3135(2) 0.9356(4)
C6_5 C 0.2986(2) 0.31716(19) 0.4633(3)
O9_5 O 0.35407(18) 0.25099(16) 0.2122(2)
C7_5 C 0.2027(2) 0.5219(2) 0.6427(4)
H3_5 H 0.2191 0.5115 0.6863
C8_5 C 0.1858(2) 0.56715(19) 0.6390(4)
H4_5 H 0.1910 0.5867 0.6816
C9_5 C 0.1891(2) 0.3499(2) 0.5916(3)
H5_5 H 0.1825 0.3613 0.5392
H6_5 H 0.1928 0.3162 0.5890
C10_5 C 0.1467(3) 0.6340(2) 0.5724(5)
C11_5 C 0.24742(19) 0.3447(2) 0.6959(3)
H7_5 H 0.2213 0.3436 0.7321
H8_5 H 0.2560 0.3129 0.6822
C12_5 C 0.3429(3) 0.2959(2) 0.3228(4)
C13_5 C 0.3138(2) 0.2629(2) 0.3610(4)
H9_5 H 0.3101 0.2334 0.3391
C14_5 C 0.2710(2) 0.3707(2) 0.5600(3)
H10_5 H 0.2634 0.3920 0.5177
H11_5 H 0.3008 0.3799 0.5823
C16_5 C 0.3666(3) 0.2857(2) 0.2490(4)
C17_5 C 0.3123(2) 0.2879(2) 0.8944(4)
H12_5 H 0.3042 0.2585 0.9131
C18_5 C 0.1109(2) 0.3368(2) 0.6334(3)
C19_5 C 0.0641(2) 0.2711(2) 0.6018(5)
H13_5 H 0.0617 0.2408 0.5821
C20_5 C 0.1945(3) 0.4929(2) 0.5806(4)
C22_5 C 0.2913(3) 0.2733(2) 0.4284(4)
H14_5 H 0.2713 0.2517 0.4514
C23_5 C 0.3264(3) 0.3488(2) 0.4290(4)
H15_5 H 0.3310 0.3777 0.4529
C24_5 C 0.2913(2) 0.3038(2) 0.8235(4)
H16_5 H 0.2699 0.2856 0.7958
C25_5 C 0.3483(3) 0.3394(2) 0.3593(4)
H17_5 H 0.3669 0.3622 0.3360
O12_5 O 0.1266(3) 0.6480(2) 0.5162(4)
C26_5 C 0.3353(3) 0.3755(2) 0.8402(4)
H18_5 H 0.3426 0.4053 0.8223
C27_5 C 0.0288(2) 0.3367(3) 0.6590(4)
H19_5 H 0.0023 0.3514 0.6788
C28_5 C 0.3551(3) 0.3586(2) 0.9085(4)
H20_5 H 0.3761 0.3770 0.9366
C29_5 C 0.1075(2) 0.2929(2) 0.6044(4)
H21_5 H 0.1341 0.2774 0.5863
C30_5 C 0.1631(3) 0.5838(2) 0.5794(4)
C31_5 C 0.0715(2) 0.3592(2) 0.6619(4)
H22_5 H 0.0738 0.3892 0.6828
C32_5 C 0.1718(4) 0.5088(3) 0.5192(4)
H23_5 H 0.1655 0.4884 0.4781
C33_5 C 0.1576(5) 0.5528(3) 0.5138(6)
H24_5 H 0.1441 0.5636 0.4676
O13_5 O 0.4614(4) 0.3861(2) 0.1404(5)
Zn7_2 Zn 0.12308(2) 0.718788(18) 0.61868(3)
O14_3 O 0.47988(15) 0.27495(13) 0.1148(3)
O15_3 O 0.34815(14) 0.15850(13) 0.1306(3)
O18_3 O 0.44381(14) 0.20755(15) 0.1357(3)
H25_5 H 0.482447 0.387389 0.186606
H26_5 H 0.479615 0.392852 0.0921947
O6_3 O 0.97988(15) 0.22505(13) 0.6148(3)
O11_3 O 0.94381(14) 0.29245(15) 0.6357(3)
C15_5 C 0.98017(19) 0.26840(18) 0.6257(3)
Zn4_3 Zn 0.93329(2) 0.177198(19) 0.63249(4)
Zn6_2 Zn 0.87692(2) 0.281212(18) 0.61868(3)
O6_4 O 0.02012(15) 0.77495(13) 0.6148(3)
O11_4 O 0.05619(14) 0.70755(15) 0.6357(3)
C15_6 C 0.01983(19) 0.73160(18) 0.6257(3)
Zn4_4 Zn 0.06671(2) 0.822802(19) 0.63249(4)
O8_2 O 0.64214(18) 0.74564(16) 0.0281(2)
O10_2 O 0.6082(3) 0.67641(19) 0.0425(3)
C21_6 C 0.6346(2) 0.7041(2) 0.0076(4)
Zn3_2 Zn 0.56671(2) 0.677198(19) 0.13249(4)
Zn5_2 Zn 0.62308(2) 0.781212(18) 0.11868(3)
O1_6 O 0.72653(16) 0.67637(13) 0.5312(3)
O2_6 O 0.71377(14) 0.63208(15) 0.7314(2)
O3_6 O 0.79225(19) 0.55381(15) 0.5768(3)
O4_6 O 0.84795(14) 0.63898(15) 0.6412(3)
C1_6 C 0.76653(17) 0.62808(16) 0.6217(3)
O5_6 O 0.60135(18) 0.68796(19) 0.2274(3)
C2_6 C 0.6957(2) 0.6527(2) 0.7985(3)
C3_6 C 0.7736(2) 0.57606(17) 0.6455(3)
H1_6 H 0.7440 0.5619 0.6605
H2_6 H 0.7952 0.5735 0.6890
O7_4 O 0.84815(14) 0.34150(13) 0.6306(3)
C4_6 C 0.97482(19) 0.70693(18) 0.6275(3)
C5_6 C 0.6567(2) 0.6865(2) 0.9356(4)
C6_6 C 0.7014(2) 0.68284(19) 0.4633(3)
O9_6 O 0.64593(18) 0.74901(16) 0.2122(2)
C7_6 C 0.7973(2) 0.4781(2) 0.6427(4)
H3_6 H 0.7809 0.4885 0.6863
C8_6 C 0.8142(2) 0.43285(19) 0.6390(4)
H4_6 H 0.8090 0.4133 0.6816
C9_6 C 0.8109(2) 0.6501(2) 0.5916(3)
H5_6 H 0.8175 0.6387 0.5392
H6_6 H 0.8072 0.6838 0.5890
C10_6 C 0.8533(3) 0.3660(2) 0.5724(5)
C11_6 C 0.75258(19) 0.6553(2) 0.6959(3)
H7_6 H 0.7787 0.6564 0.7321
H8_6 H 0.7440 0.6871 0.6822
C12_6 C 0.6571(3) 0.7041(2) 0.3228(4)
C13_6 C 0.6862(2) 0.7371(2) 0.3610(4)
H9_6 H 0.6899 0.7666 0.3391
C14_6 C 0.7290(2) 0.6293(2) 0.5600(3)
H10_6 H 0.7366 0.6080 0.5177
H11_6 H 0.6992 0.6201 0.5823
C16_6 C 0.6334(3) 0.7143(2) 0.2490(4)
C17_6 C 0.6877(2) 0.7121(2) 0.8944(4)
H12_6 H 0.6958 0.7415 0.9131
C18_6 C 0.8891(2) 0.6632(2) 0.6334(3)
C19_6 C 0.9359(2) 0.7289(2) 0.6018(5)
H13_6 H 0.9383 0.7592 0.5821
C20_6 C 0.8055(3) 0.5071(2) 0.5806(4)
C22_6 C 0.7087(3) 0.7267(2) 0.4284(4)
H14_6 H 0.7287 0.7483 0.4514
C23_6 C 0.6736(3) 0.6512(2) 0.4290(4)
H15_6 H 0.6690 0.6223 0.4529
C24_6 C 0.7087(2) 0.6962(2) 0.8235(4)
H16_6 H 0.7301 0.7144 0.7958
C25_6 C 0.6517(3) 0.6606(2) 0.3593(4)
H17_6 H 0.6331 0.6378 0.3360
O12_6 O 0.8734(3) 0.3520(2) 0.5162(4)
C26_6 C 0.6647(3) 0.6245(2) 0.8402(4)
H18_6 H 0.6574 0.5947 0.8223
C27_6 C 0.9712(2) 0.6633(3) 0.6590(4)
H19_6 H 0.9977 0.6486 0.6788
C28_6 C 0.6449(3) 0.6414(2) 0.9085(4)
H20_6 H 0.6239 0.6230 0.9366
C29_6 C 0.8925(2) 0.7071(2) 0.6044(4)
H21_6 H 0.8659 0.7226 0.5863
C30_6 C 0.8369(3) 0.4162(2) 0.5794(4)
C31_6 C 0.9285(2) 0.6408(2) 0.6619(4)
H22_6 H 0.9262 0.6108 0.6828
C32_6 C 0.8282(4) 0.4912(3) 0.5192(4)
H23_6 H 0.8345 0.5116 0.4781
C33_6 C 0.8424(5) 0.4472(3) 0.5138(6)
H24_6 H 0.8559 0.4364 0.4676
O13_6 O 0.5386(4) 0.6139(2) 0.1404(5)
O14_4 O 0.52012(15) 0.72505(13) 0.1148(3)
O15_4 O 0.65185(14) 0.84150(13) 0.1306(3)
O18_4 O 0.55619(14) 0.79245(15) 0.1357(3)
H25_6 H 0.517553 0.612611 0.186606
H26_6 H 0.520385 0.607148 0.0921947
O1_7 O 0.77347(16) 0.17637(13) 0.0312(3)
O2_7 O 0.78623(14) 0.13208(15) 0.2314(2)
O3_7 O 0.70775(19) 0.05381(15) 0.0768(3)
O4_7 O 0.65205(14) 0.13898(15) 0.1412(3)
C1_7 C 0.73347(17) 0.12808(16) 0.1217(3)
C2_7 C 0.8043(2) 0.1527(2) 0.2985(3)
C3_7 C 0.7264(2) 0.07606(17) 0.1455(3)
H1_7 H 0.7560 0.0619 0.1605
H2_7 H 0.7048 0.0735 0.1890
O8_3 O 0.85786(18) 0.24564(16) 0.5281(2)
C4_7 C 0.52518(19) 0.20693(18) 0.1275(3)
C5_7 C 0.8433(2) 0.1865(2) 0.4356(4)
O10_3 O 0.8918(3) 0.17641(19) 0.5425(3)
C9_7 C 0.6891(2) 0.1501(2) 0.0916(3)
H5_7 H 0.6825 0.1387 0.0392
H6_7 H 0.6928 0.1838 0.0890
C11_7 C 0.74742(19) 0.1553(2) 0.1959(3)
H7_7 H 0.7213 0.1564 0.2321
H8_7 H 0.7560 0.1871 0.1822
C14_7 C 0.7710(2) 0.1293(2) 0.0600(3)
H10_7 H 0.7634 0.1080 0.0177
H11_7 H 0.8008 0.1201 0.0823
C15_7 C 0.48017(19) 0.23160(18) 0.1257(3)
C17_7 C 0.8123(2) 0.2121(2) 0.3944(4)
H12_7 H 0.8042 0.2415 0.4131
C18_7 C 0.6109(2) 0.1632(2) 0.1334(3)
C19_7 C 0.5641(2) 0.2289(2) 0.1018(5)
H13_7 H 0.5617 0.2592 0.0821
C20_7 C 0.6945(3) 0.0071(2) 0.0806(4)
C21_7 C 0.8654(2) 0.2041(2) 0.5076(4)
C24_7 C 0.7913(2) 0.1962(2) 0.3235(4)
H16_7 H 0.7699 0.2144 0.2958
C26_7 C 0.8353(3) 0.1245(2) 0.3402(4)
H18_7 H 0.8426 0.0947 0.3223
C27_7 C 0.5288(2) 0.1633(3) 0.1590(4)
H19_7 H 0.5023 0.1486 0.1788
C28_7 C 0.8551(3) 0.1414(2) 0.4085(4)
H20_7 H 0.8761 0.1230 0.4366
C29_7 C 0.6075(2) 0.2071(2) 0.1044(4)
H21_7 H 0.6341 0.2226 0.0863
C31_7 C 0.5715(2) 0.1408(2) 0.1619(4)
H22_7 H 0.5738 0.1108 0.1828
O5_7 O 0.89865(18) 0.18796(19) 0.7274(3)
C6_7 C 0.7986(2) 0.18284(19) 0.9633(3)
O9_7 O 0.85407(18) 0.24901(16) 0.7122(2)
C12_7 C 0.8429(3) 0.2041(2) 0.8228(4)
C13_7 C 0.8138(2) 0.2371(2) 0.8610(4)
H9_7 H 0.8101 0.2666 0.8391
C16_7 C 0.8666(3) 0.2143(2) 0.7490(4)
C22_7 C 0.7913(3) 0.2267(2) 0.9284(4)
H14_7 H 0.7713 0.2483 0.9514
C23_7 C 0.8264(3) 0.1512(2) 0.9290(4)
H15_7 H 0.8310 0.1223 0.9529
C25_7 C 0.8483(3) 0.1606(2) 0.8593(4)
H17_7 H 0.8669 0.1378 0.8360
H23_7 H 0.6655 0.0116 0.9781
O13_7 O 0.9614(4) 0.1139(2) 0.6404(5)
H25_7 H 0.982447 0.112611 0.686606
H26_7 H 0.979615 0.107148 0.592195
C7_7 C 0.7027(2) 0.9781(2) 0.1427(4)
H3_7 H 0.7191 0.9885 0.1863
C8_7 C 0.6858(2) 0.93285(19) 0.1390(4)
H4_7 H 0.6910 0.9133 0.1816
C10_7 C 0.6467(3) 0.8660(2) 0.0724(5)
O12_7 O 0.6266(3) 0.8520(2) 0.0162(4)
C30_7 C 0.6631(3) 0.9162(2) 0.0794(4)
C32_7 C 0.6718(4) 0.9912(3) 0.0192(4)
C33_7 C 0.6576(5) 0.9472(3) 0.0138(6)
C7_8 C 0.2973(2) 0.0219(2) 0.1427(4)
H3_8 H 0.2809 0.0115 0.1863
C8_8 C 0.3142(2) 0.06715(19) 0.1390(4)
H4_8 H 0.3090 0.0867 0.1816
C10_8 C 0.3533(3) 0.1340(2) 0.0724(5)
O12_8 O 0.3734(3) 0.1480(2) 0.0162(4)
C30_8 C 0.3369(3) 0.0838(2) 0.0794(4)
C32_8 C 0.3282(4) 0.0088(3) 0.0192(4)
C33_8 C 0.3424(5) 0.0528(3) 0.0138(6)
O1_8 O 0.22653(16) 0.82363(13) 0.0312(3)
O2_8 O 0.21377(14) 0.86792(15) 0.2314(2)
O3_8 O 0.29225(19) 0.94619(15) 0.0768(3)
O4_8 O 0.34795(14) 0.86102(15) 0.1412(3)
C1_8 C 0.26653(17) 0.87192(16) 0.1217(3)
C2_8 C 0.1957(2) 0.8473(2) 0.2985(3)
C3_8 C 0.2736(2) 0.92394(17) 0.1455(3)
H1_8 H 0.2440 0.9381 0.1605
H2_8 H 0.2952 0.9265 0.1890
O8_4 O 0.14214(18) 0.75436(16) 0.5281(2)
C4_8 C 0.47482(19) 0.79307(18) 0.1275(3)
C5_8 C 0.1567(2) 0.8135(2) 0.4356(4)
O10_4 O 0.1082(3) 0.82359(19) 0.5425(3)
C9_8 C 0.3109(2) 0.8499(2) 0.0916(3)
H5_8 H 0.3175 0.8613 0.0392
H6_8 H 0.3072 0.8162 0.0890
C11_8 C 0.25258(19) 0.8447(2) 0.1959(3)
H7_8 H 0.2787 0.8436 0.2321
H8_8 H 0.2440 0.8129 0.1822
C14_8 C 0.2290(2) 0.8707(2) 0.0600(3)
H10_8 H 0.2366 0.8920 0.0177
H11_8 H 0.1992 0.8799 0.0823
C15_8 C 0.51983(19) 0.76840(18) 0.1257(3)
C17_8 C 0.1877(2) 0.7879(2) 0.3944(4)
H12_8 H 0.1958 0.7585 0.4131
C18_8 C 0.3891(2) 0.8368(2) 0.1334(3)
C19_8 C 0.4359(2) 0.7711(2) 0.1018(5)
H13_8 H 0.4383 0.7408 0.0821
C20_8 C 0.3055(3) 0.9929(2) 0.0806(4)
C21_8 C 0.1346(2) 0.7959(2) 0.5076(4)
C24_8 C 0.2087(2) 0.8038(2) 0.3235(4)
H16_8 H 0.2301 0.7856 0.2958
C26_8 C 0.1647(3) 0.8755(2) 0.3402(4)
H18_8 H 0.1574 0.9053 0.3223
C27_8 C 0.4712(2) 0.8367(3) 0.1590(4)
H19_8 H 0.4977 0.8514 0.1788
C28_8 C 0.1449(3) 0.8586(2) 0.4085(4)
H20_8 H 0.1239 0.8770 0.4366
C29_8 C 0.3925(2) 0.7929(2) 0.1044(4)
H21_8 H 0.3659 0.7774 0.0863
C31_8 C 0.4285(2) 0.8592(2) 0.1619(4)
H22_8 H 0.4262 0.8892 0.1828
O5_8 O 0.10135(18) 0.81204(19) 0.7274(3)
C6_8 C 0.2014(2) 0.81716(19) 0.9633(3)
O9_8 O 0.14593(18) 0.75099(16) 0.7122(2)
C12_8 C 0.1571(3) 0.7959(2) 0.8228(4)
C13_8 C 0.1862(2) 0.7629(2) 0.8610(4)
H9_8 H 0.1899 0.7334 0.8391
C16_8 C 0.1334(3) 0.7857(2) 0.7490(4)
C22_8 C 0.2087(3) 0.7733(2) 0.9284(4)
H14_8 H 0.2287 0.7517 0.9514
C23_8 C 0.1736(3) 0.8488(2) 0.9290(4)
H15_8 H 0.1690 0.8777 0.9529
C25_8 C 0.1517(3) 0.8394(2) 0.8593(4)
H17_8 H 0.1331 0.8622 0.8360
H23_8 H 0.3345 0.9884 0.9781
O13_8 O 0.0386(4) 0.8861(2) 0.6404(5)
H25_8 H 0.017553 0.887389 0.686606
H26_8 H 0.0203853 0.892852 0.592195
H24_7 H 0.6441 0.9364 0.9676
H24_8 H 0.3559 0.0636 0.9676
loop_
_geom_bond_atom_site_label_1
_geom_bond_atom_site_label_2
_geom_bond_site_symmetry_1
_geom_bond_site_symmetry_2
Zn1 O5 1_555 1_555
Zn2 O9 1_555 1_555
O5 C16 1_555 1_555
C6 C22 1_555 1_555
O9 C16 1_555 1_555
C12 C13 1_555 1_555
C13 H9 1_555 1_555
C16 C12 1_555 1_555
C22 C13 1_555 1_555
H14 C22 1_555 1_555
C23 C6 1_555 1_555
H15 C23 1_555 1_555
C25 C12 1_555 1_555
H17 C25 1_555 1_555
O13 Zn1 1_555 1_555
O14 Zn1 1_555 1_555
O15 Zn2 1_555 1_555
O16 Zn2 1_555 1_555
O17 Zn1 1_555 1_555
O18 Zn2 1_555 1_555
C23 C25 1_555 1_555
O13 H25 1_555 1_555
O13 H26 1_555 1_555
O2 C2 1_555 1_555
O3 C3 1_555 1_555
O4 C9 1_555 1_555
C1 C3 1_555 1_555
O6 C15 1_555 1_555
C2 C24 1_555 1_555
C3 H1 1_555 1_555
H2 C3 1_555 1_555
O16 C21 1_555 1_555
C4 C15 1_555 1_555
C5 C17 1_555 1_555
O17 C21 1_555 1_555
C9 C1 1_555 1_555
H5 C9 1_555 1_555
H6 C9 1_555 1_555
O11 C15 1_555 1_555
C11 O2 1_555 1_555
H7 C11 1_555 1_555
H8 C11 1_555 1_555
C14 O1 1_555 1_555
H10 C14 1_555 1_555
H11 C14 1_555 1_555
C17 H12 1_555 1_555
C18 O4 1_555 1_555
C19 C4 1_555 1_555
H13 C19 1_555 1_555
C20 O3 1_555 1_555
C21 C5 1_555 1_555
C24 C17 1_555 1_555
H16 C24 1_555 1_555
C26 C2 1_555 1_555
H18 C26 1_555 1_555
C27 C4 1_555 1_555
H19 C27 1_555 1_555
C28 C5 1_555 1_555
H20 C28 1_555 1_555
C29 C18 1_555 1_555
H21 C29 1_555 1_555
C31 C18 1_555 1_555
H22 C31 1_555 1_555
Zn4 O6 1_555 1_555
Zn6 O11 1_555 1_555
C1 C11 1_555 1_555
C1 C14 1_555 1_555
C19 C29 1_555 1_555
C26 C28 1_555 1_555
C27 C31 1_555 1_555
O7 C10 1_555 1_555
C7 H3 1_555 1_555
C8 C7 1_555 1_555
H4 C8 1_555 1_555
C10 O12 1_555 1_555
C30 C8 1_555 1_555
C33 C30 1_555 1_555
Zn7 O7 1_555 1_555
C10 C30 1_555 1_555
C32 C33 1_555 1_555
O7_2 C10_2 1_555 1_555
C7_2 H3_2 1_555 1_555
C8_2 C7_2 1_555 1_555
H4_2 C8_2 1_555 1_555
C10_2 O12_2 1_555 1_555
C30_2 C8_2 1_555 1_555
C33_2 C30_2 1_555 1_555
Zn6 O7_2 1_555 1_555
C10_2 C30_2 1_555 1_555
C32_2 C33_2 1_555 1_555
Zn1_2 O5_2 1_555 1_555
Zn2_2 O9_2 1_555 1_555
O5_2 C16_2 1_555 1_555
C6_2 C22_2 1_555 1_555
O9_2 C16_2 1_555 1_555
C12_2 C13_2 1_555 1_555
C13_2 H9_2 1_555 1_555
C16_2 C12_2 1_555 1_555
C22_2 C13_2 1_555 1_555
H14_2 C22_2 1_555 1_555
C23_2 C6_2 1_555 1_555
H15_2 C23_2 1_555 1_555
C25_2 C12_2 1_555 1_555
H17_2 C25_2 1_555 1_555
O13_2 Zn1_2 1_555 1_555
O14_2 Zn1_2 1_555 1_555
O15_2 Zn2_2 1_555 1_555
O16_2 Zn2_2 1_555 1_555
O17_2 Zn1_2 1_555 1_555
O18_2 Zn2_2 1_555 1_555
C23_2 C25_2 1_555 1_555
O13_2 H25_2 1_555 1_555
O13_2 H26_2 1_555 1_555
O2_2 C2_2 1_555 1_555
O3_2 C3_2 1_555 1_555
O4_2 C9_2 1_555 1_555
C1_2 C3_2 1_555 1_555
O6_2 C15_2 1_555 1_555
C2_2 C24_2 1_555 1_555
C3_2 H1_2 1_555 1_555
H2_2 C3_2 1_555 1_555
O16_2 C21_2 1_555 1_555
C4_2 C15_2 1_555 1_555
C5_2 C17_2 1_555 1_555
O17_2 C21_2 1_555 1_555
C9_2 C1_2 1_555 1_555
H5_2 C9_2 1_555 1_555
H6_2 C9_2 1_555 1_555
O11_2 C15_2 1_555 1_555
C11_2 O2_2 1_555 1_555
H7_2 C11_2 1_555 1_555
H8_2 C11_2 1_555 1_555
C14_2 O1_2 1_555 1_555
H10_2 C14_2 1_555 1_555
H11_2 C14_2 1_555 1_555
C17_2 H12_2 1_555 1_555
C18_2 O4_2 1_555 1_555
C19_2 C4_2 1_555 1_555
H13_2 C19_2 1_555 1_555
C20_2 O3_2 1_555 1_555
C21_2 C5_2 1_555 1_555
C24_2 C17_2 1_555 1_555
H16_2 C24_2 1_555 1_555
C26_2 C2_2 1_555 1_555
H18_2 C26_2 1_555 1_555
C27_2 C4_2 1_555 1_555
H19_2 C27_2 1_555 1_555
C28_2 C5_2 1_555 1_555
H20_2 C28_2 1_555 1_555
C29_2 C18_2 1_555 1_555
H21_2 C29_2 1_555 1_555
C31_2 C18_2 1_555 1_555
H22_2 C31_2 1_555 1_555
Zn4_2 O6_2 1_555 1_555
Zn7 O11_2 1_555 1_555
C1_2 C11_2 1_555 1_555
C1_2 C14_2 1_555 1_555
C19_2 C29_2 1_555 1_555
C26_2 C28_2 1_555 1_555
C27_2 C31_2 1_555 1_555
O14 C15_3 1_555 1_555
O18 C15_3 1_555 1_555
Zn4 O5_3 1_555 1_555
Zn6 O9_3 1_555 1_555
O1_3 C6_3 1_555 1_555
O2_3 C2_3 1_555 1_555
O3_3 C3_3 1_555 1_555
O4_3 C9_3 1_555 1_555
C1_3 C3_3 1_555 1_555
O5_3 C16_3 1_555 1_555
C2_3 C24_3 1_555 1_555
C3_3 H1_3 1_555 1_555
H2_3 C3_3 1_555 1_555
O15_2 C10_3 1_555 1_555
C5_3 C17_3 1_555 1_555
C6_3 C22_3 1_555 1_555
O9_3 C16_3 1_555 1_555
C7_3 H3_3 1_555 1_555
C8_3 C7_3 1_555 1_555
H4_3 C8_3 1_555 1_555
C9_3 C1_3 1_555 1_555
H5_3 C9_3 1_555 1_555
H6_3 C9_3 1_555 1_555
C10_3 O12_3 1_555 1_555
C11_3 O2_3 1_555 1_555
H7_3 C11_3 1_555 1_555
H8_3 C11_3 1_555 1_555
C12_3 C13_3 1_555 1_555
C13_3 H9_3 1_555 1_555
C14_3 O1_3 1_555 1_555
H10_3 C14_3 1_555 1_555
H11_3 C14_3 1_555 1_555
C16_3 C12_3 1_555 1_555
C17_3 H12_3 1_555 1_555
C18_3 O4_3 1_555 1_555
C19_3 C4_3 1_555 1_555
H13_3 C19_3 1_555 1_555
C20_3 O3_3 1_555 1_555
C22_3 C13_3 1_555 1_555
H14_3 C22_3 1_555 1_555
C23_3 C6_3 1_555 1_555
H15_3 C23_3 1_555 1_555
C24_3 C17_3 1_555 1_555
H16_3 C24_3 1_555 1_555
C25_3 C12_3 1_555 1_555
H17_3 C25_3 1_555 1_555
C26_3 C2_3 1_555 1_555
H18_3 C26_3 1_555 1_555
C27_3 C4_3 1_555 1_555
H19_3 C27_3 1_555 1_555
C28_3 C5_3 1_555 1_555
H20_3 C28_3 1_555 1_555
C29_3 C18_3 1_555 1_555
H21_3 C29_3 1_555 1_555
C30_3 C8_3 1_555 1_555
C31_3 C18_3 1_555 1_555
H22_3 C31_3 1_555 1_555
C32_3 C20_3 1_555 1_555
H23_3 C32_3 1_555 1_555
C33_3 C30_3 1_555 1_555
H24 C33_3 1_555 1_555
O13_3 Zn4 1_555 1_555
O16_3 Zn6 1_555 1_555
O17_3 Zn4 1_555 1_555
C1_3 C11_3 1_555 1_555
C1_3 C14_3 1_555 1_555
C7_3 C20_3 1_555 1_555
C10_3 C30_3 1_555 1_555
C19_3 C29_3 1_555 1_555
C23_3 C25_3 1_555 1_555
C26_3 C28_3 1_555 1_555
C27_3 C31_3 1_555 1_555
C32_3 C33_3 1_555 1_555
O13_3 H25_3 1_555 1_555
O13_3 H26_3 1_555 1_555
O16_3 C21_3 1_555 1_555
O17_3 C21_3 1_555 1_555
Zn4_2 O5_4 1_555 1_555
Zn7 O9_4 1_555 1_555
O1_4 C6_4 1_555 1_555
O2_4 C2_4 1_555 1_555
O3_4 C3_4 1_555 1_555
O4_4 C9_4 1_555 1_555
C1_4 C3_4 1_555 1_555
O5_4 C16_4 1_555 1_555
C2_4 C24_4 1_555 1_555
C3_4 H1_4 1_555 1_555
H2_4 C3_4 1_555 1_555
O15 C10_4 1_555 1_555
C5_4 C17_4 1_555 1_555
C6_4 C22_4 1_555 1_555
O9_4 C16_4 1_555 1_555
C7_4 H3_4 1_555 1_555
C8_4 C7_4 1_555 1_555
H4_4 C8_4 1_555 1_555
C9_4 C1_4 1_555 1_555
H5_4 C9_4 1_555 1_555
H6_4 C9_4 1_555 1_555
C10_4 O12_4 1_555 1_555
C11_4 O2_4 1_555 1_555
H7_4 C11_4 1_555 1_555
H8_4 C11_4 1_555 1_555
C12_4 C13_4 1_555 1_555
C13_4 H9_4 1_555 1_555
C14_4 O1_4 1_555 1_555
H10_4 C14_4 1_555 1_555
H11_4 C14_4 1_555 1_555
C16_4 C12_4 1_555 1_555
C17_4 H12_4 1_555 1_555
C18_4 O4_4 1_555 1_555
C19_4 C4_4 1_555 1_555
H13_4 C19_4 1_555 1_555
C20_4 O3_4 1_555 1_555
C22_4 C13_4 1_555 1_555
H14_4 C22_4 1_555 1_555
C23_4 C6_4 1_555 1_555
H15_4 C23_4 1_555 1_555
C24_4 C17_4 1_555 1_555
H16_4 C24_4 1_555 1_555
C25_4 C12_4 1_555 1_555
H17_4 C25_4 1_555 1_555
C26_4 C2_4 1_555 1_555
H18_4 C26_4 1_555 1_555
C27_4 C4_4 1_555 1_555
H19_4 C27_4 1_555 1_555
C28_4 C5_4 1_555 1_555
H20_4 C28_4 1_555 1_555
C29_4 C18_4 1_555 1_555
H21_4 C29_4 1_555 1_555
C30_4 C8_4 1_555 1_555
C31_4 C18_4 1_555 1_555
H22_4 C31_4 1_555 1_555
C32_4 C20_4 1_555 1_555
H23_4 C32_4 1_555 1_555
C33_4 C30_4 1_555 1_555
H24_2 C33_4 1_555 1_555
O13_4 Zn4_2 1_555 1_555
O16_4 Zn7 1_555 1_555
O17_4 Zn4_2 1_555 1_555
C1_4 C11_4 1_555 1_555
C1_4 C14_4 1_555 1_555
C7_4 C20_4 1_555 1_555
C10_4 C30_4 1_555 1_555
C19_4 C29_4 1_555 1_555
C23_4 C25_4 1_555 1_555
C26_4 C28_4 1_555 1_555
C27_4 C31_4 1_555 1_555
C32_4 C33_4 1_555 1_555
O13_4 H25_4 1_555 1_555
O13_4 H26_4 1_555 1_555
O16_4 C21_4 1_555 1_555
O17_4 C21_4 1_555 1_555
O14_2 C15_4 1_555 1_555
O18_2 C15_4 1_555 1_555
O8 C21_5 1_555 1_555
O10 C21_5 1_555 1_555
Zn3 O10 1_555 1_555
Zn5 O8 1_555 1_555
Zn3 O5_5 1_555 1_555
Zn5 O9_5 1_555 1_555
O1_5 C6_5 1_555 1_555
O2_5 C2_5 1_555 1_555
O3_5 C3_5 1_555 1_555
O4_5 C9_5 1_555 1_555
C1_5 C3_5 1_555 1_555
O5_5 C16_5 1_555 1_555
C2_5 C24_5 1_555 1_555
C3_5 H1_5 1_555 1_555
H2_5 C3_5 1_555 1_555
O7_3 C10_5 1_555 1_555
C5_5 C17_5 1_555 1_555
C6_5 C22_5 1_555 1_555
O9_5 C16_5 1_555 1_555
C7_5 H3_5 1_555 1_555
C8_5 C7_5 1_555 1_555
H4_5 C8_5 1_555 1_555
C9_5 C1_5 1_555 1_555
H5_5 C9_5 1_555 1_555
H6_5 C9_5 1_555 1_555
C10_5 O12_5 1_555 1_555
C11_5 O2_5 1_555 1_555
H7_5 C11_5 1_555 1_555
H8_5 C11_5 1_555 1_555
C12_5 C13_5 1_555 1_555
C13_5 H9_5 1_555 1_555
C14_5 O1_5 1_555 1_555
H10_5 C14_5 1_555 1_555
H11_5 C14_5 1_555 1_555
C16_5 C12_5 1_555 1_555
C17_5 H12_5 1_555 1_555
C18_5 O4_5 1_555 1_555
C19_5 C4_5 1_555 1_555
H13_5 C19_5 1_555 1_555
C20_5 O3_5 1_555 1_555
C22_5 C13_5 1_555 1_555
H14_5 C22_5 1_555 1_555
C23_5 C6_5 1_555 1_555
H15_5 C23_5 1_555 1_555
C24_5 C17_5 1_555 1_555
H16_5 C24_5 1_555 1_555
C25_5 C12_5 1_555 1_555
H17_5 C25_5 1_555 1_555
C26_5 C2_5 1_555 1_555
H18_5 C26_5 1_555 1_555
C27_5 C4_5 1_555 1_555
H19_5 C27_5 1_555 1_555
C28_5 C5_5 1_555 1_555
H20_5 C28_5 1_555 1_555
C29_5 C18_5 1_555 1_555
H21_5 C29_5 1_555 1_555
C30_5 C8_5 1_555 1_555
C31_5 C18_5 1_555 1_555
H22_5 C31_5 1_555 1_555
C32_5 C20_5 1_555 1_555
H23_5 C32_5 1_555 1_555
C33_5 C30_5 1_555 1_555
H24_5 C33_5 1_555 1_555
O13_5 Zn3 1_555 1_555
Zn7_2 O7_3 1_555 1_555
O14_3 Zn3 1_555 1_555
O15_3 Zn5 1_555 1_555
O18_3 Zn5 1_555 1_555
C1_5 C11_5 1_555 1_555
C1_5 C14_5 1_555 1_555
C7_5 C20_5 1_555 1_555
C10_5 C30_5 1_555 1_555
C19_5 C29_5 1_555 1_555
C23_5 C25_5 1_555 1_555
C26_5 C28_5 1_555 1_555
C27_5 C31_5 1_555 1_555
C32_5 C33_5 1_555 1_555
O13_5 H25_5 1_555 1_555
O13_5 H26_5 1_555 1_555
O6_3 C15_5 1_555 1_555
O11_3 C15_5 1_555 1_555
Zn4_3 O6_3 1_555 1_555
Zn6_2 O11_3 1_555 1_555
O6_4 C15_6 1_555 1_555
O11_4 C15_6 1_555 1_555
Zn4_4 O6_4 1_555 1_555
Zn7_2 O11_4 1_555 1_555
O8_2 C21_6 1_555 1_555
O10_2 C21_6 1_555 1_555
Zn3_2 O10_2 1_555 1_555
Zn5_2 O8_2 1_555 1_555
Zn3_2 O5_6 1_555 1_555
Zn5_2 O9_6 1_555 1_555
O1_6 C6_6 1_555 1_555
O2_6 C2_6 1_555 1_555
O3_6 C3_6 1_555 1_555
O4_6 C9_6 1_555 1_555
C1_6 C3_6 1_555 1_555
O5_6 C16_6 1_555 1_555
C2_6 C24_6 1_555 1_555
C3_6 H1_6 1_555 1_555
H2_6 C3_6 1_555 1_555
O7_4 C10_6 1_555 1_555
C5_6 C17_6 1_555 1_555
C6_6 C22_6 1_555 1_555
O9_6 C16_6 1_555 1_555
C7_6 H3_6 1_555 1_555
C8_6 C7_6 1_555 1_555
H4_6 C8_6 1_555 1_555
C9_6 C1_6 1_555 1_555
H5_6 C9_6 1_555 1_555
H6_6 C9_6 1_555 1_555
C10_6 O12_6 1_555 1_555
C11_6 O2_6 1_555 1_555
H7_6 C11_6 1_555 1_555
H8_6 C11_6 1_555 1_555
C12_6 C13_6 1_555 1_555
C13_6 H9_6 1_555 1_555
C14_6 O1_6 1_555 1_555
H10_6 C14_6 1_555 1_555
H11_6 C14_6 1_555 1_555
C16_6 C12_6 1_555 1_555
C17_6 H12_6 1_555 1_555
C18_6 O4_6 1_555 1_555
C19_6 C4_6 1_555 1_555
H13_6 C19_6 1_555 1_555
C20_6 O3_6 1_555 1_555
C22_6 C13_6 1_555 1_555
H14_6 C22_6 1_555 1_555
C23_6 C6_6 1_555 1_555
H15_6 C23_6 1_555 1_555
C24_6 C17_6 1_555 1_555
H16_6 C24_6 1_555 1_555
C25_6 C12_6 1_555 1_555
H17_6 C25_6 1_555 1_555
C26_6 C2_6 1_555 1_555
H18_6 C26_6 1_555 1_555
C27_6 C4_6 1_555 1_555
H19_6 C27_6 1_555 1_555
C28_6 C5_6 1_555 1_555
H20_6 C28_6 1_555 1_555
C29_6 C18_6 1_555 1_555
H21_6 C29_6 1_555 1_555
C30_6 C8_6 1_555 1_555
C31_6 C18_6 1_555 1_555
H22_6 C31_6 1_555 1_555
C32_6 C20_6 1_555 1_555
H23_6 C32_6 1_555 1_555
C33_6 C30_6 1_555 1_555
H24_6 C33_6 1_555 1_555
O13_6 Zn3_2 1_555 1_555
Zn6_2 O7_4 1_555 1_555
O14_4 Zn3_2 1_555 1_555
O15_4 Zn5_2 1_555 1_555
O18_4 Zn5_2 1_555 1_555
C1_6 C11_6 1_555 1_555
C1_6 C14_6 1_555 1_555
C7_6 C20_6 1_555 1_555
C10_6 C30_6 1_555 1_555
C19_6 C29_6 1_555 1_555
C23_6 C25_6 1_555 1_555
C26_6 C28_6 1_555 1_555
C27_6 C31_6 1_555 1_555
C32_6 C33_6 1_555 1_555
O13_6 H25_6 1_555 1_555
O13_6 H26_6 1_555 1_555
O2_7 C2_7 1_555 1_555
O3_7 C3_7 1_555 1_555
O4_7 C9_7 1_555 1_555
C1_7 C3_7 1_555 1_555
O14_3 C15_7 1_555 1_555
C2_7 C24_7 1_555 1_555
C3_7 H1_7 1_555 1_555
H2_7 C3_7 1_555 1_555
O8_3 C21_7 1_555 1_555
C4_7 C15_7 1_555 1_555
C5_7 C17_7 1_555 1_555
O10_3 C21_7 1_555 1_555
C9_7 C1_7 1_555 1_555
H5_7 C9_7 1_555 1_555
H6_7 C9_7 1_555 1_555
O18_3 C15_7 1_555 1_555
C11_7 O2_7 1_555 1_555
H7_7 C11_7 1_555 1_555
H8_7 C11_7 1_555 1_555
C14_7 O1_7 1_555 1_555
H10_7 C14_7 1_555 1_555
H11_7 C14_7 1_555 1_555
C17_7 H12_7 1_555 1_555
C18_7 O4_7 1_555 1_555
C19_7 C4_7 1_555 1_555
H13_7 C19_7 1_555 1_555
C20_7 O3_7 1_555 1_555
C21_7 C5_7 1_555 1_555
C24_7 C17_7 1_555 1_555
H16_7 C24_7 1_555 1_555
C26_7 C2_7 1_555 1_555
H18_7 C26_7 1_555 1_555
C27_7 C4_7 1_555 1_555
H19_7 C27_7 1_555 1_555
C28_7 C5_7 1_555 1_555
H20_7 C28_7 1_555 1_555
C29_7 C18_7 1_555 1_555
H21_7 C29_7 1_555 1_555
C31_7 C18_7 1_555 1_555
H22_7 C31_7 1_555 1_555
Zn4_3 O10_3 1_555 1_555
Zn6_2 O8_3 1_555 1_555
C1_7 C11_7 1_555 1_555
C1_7 C14_7 1_555 1_555
C19_7 C29_7 1_555 1_555
C26_7 C28_7 1_555 1_555
C27_7 C31_7 1_555 1_555
Zn4_3 O5_7 1_555 1_555
Zn6_2 O9_7 1_555 1_555
O5_7 C16_7 1_555 1_555
C6_7 C22_7 1_555 1_555
O9_7 C16_7 1_555 1_555
C12_7 C13_7 1_555 1_555
C13_7 H9_7 1_555 1_555
C16_7 C12_7 1_555 1_555
C22_7 C13_7 1_555 1_555
H14_7 C22_7 1_555 1_555
C23_7 C6_7 1_555 1_555
H15_7 C23_7 1_555 1_555
C25_7 C12_7 1_555 1_555
H17_7 C25_7 1_555 1_555
O13_7 Zn4_3 1_555 1_555
C23_7 C25_7 1_555 1_555
O13_7 H25_7 1_555 1_555
O13_7 H26_7 1_555 1_555
O15_4 C10_7 1_555 1_555
C7_7 H3_7 1_555 1_555
C8_7 C7_7 1_555 1_555
H4_7 C8_7 1_555 1_555
C10_7 O12_7 1_555 1_555
C30_7 C8_7 1_555 1_555
C33_7 C30_7 1_555 1_555
C10_7 C30_7 1_555 1_555
C32_7 C33_7 1_555 1_555
O15_3 C10_8 1_555 1_555
C7_8 H3_8 1_555 1_555
C8_8 C7_8 1_555 1_555
H4_8 C8_8 1_555 1_555
C10_8 O12_8 1_555 1_555
C30_8 C8_8 1_555 1_555
C33_8 C30_8 1_555 1_555
C10_8 C30_8 1_555 1_555
C32_8 C33_8 1_555 1_555
O2_8 C2_8 1_555 1_555
O3_8 C3_8 1_555 1_555
O4_8 C9_8 1_555 1_555
C1_8 C3_8 1_555 1_555
O14_4 C15_8 1_555 1_555
C2_8 C24_8 1_555 1_555
C3_8 H1_8 1_555 1_555
H2_8 C3_8 1_555 1_555
O8_4 C21_8 1_555 1_555
C4_8 C15_8 1_555 1_555
C5_8 C17_8 1_555 1_555
O10_4 C21_8 1_555 1_555
C9_8 C1_8 1_555 1_555
H5_8 C9_8 1_555 1_555
H6_8 C9_8 1_555 1_555
O18_4 C15_8 1_555 1_555
C11_8 O2_8 1_555 1_555
H7_8 C11_8 1_555 1_555
H8_8 C11_8 1_555 1_555
C14_8 O1_8 1_555 1_555
H10_8 C14_8 1_555 1_555
H11_8 C14_8 1_555 1_555
C17_8 H12_8 1_555 1_555
C18_8 O4_8 1_555 1_555
C19_8 C4_8 1_555 1_555
H13_8 C19_8 1_555 1_555
C20_8 O3_8 1_555 1_555
C21_8 C5_8 1_555 1_555
C24_8 C17_8 1_555 1_555
H16_8 C24_8 1_555 1_555
C26_8 C2_8 1_555 1_555
H18_8 C26_8 1_555 1_555
C27_8 C4_8 1_555 1_555
H19_8 C27_8 1_555 1_555
C28_8 C5_8 1_555 1_555
H20_8 C28_8 1_555 1_555
C29_8 C18_8 1_555 1_555
H21_8 C29_8 1_555 1_555
C31_8 C18_8 1_555 1_555
H22_8 C31_8 1_555 1_555
Zn4_4 O10_4 1_555 1_555
Zn7_2 O8_4 1_555 1_555
C1_8 C11_8 1_555 1_555
C1_8 C14_8 1_555 1_555
C19_8 C29_8 1_555 1_555
C26_8 C28_8 1_555 1_555
C27_8 C31_8 1_555 1_555
Zn4_4 O5_8 1_555 1_555
Zn7_2 O9_8 1_555 1_555
O5_8 C16_8 1_555 1_555
C6_8 C22_8 1_555 1_555
O9_8 C16_8 1_555 1_555
C12_8 C13_8 1_555 1_555
C13_8 H9_8 1_555 1_555
C16_8 C12_8 1_555 1_555
C22_8 C13_8 1_555 1_555
H14_8 C22_8 1_555 1_555
C23_8 C6_8 1_555 1_555
H15_8 C23_8 1_555 1_555
C25_8 C12_8 1_555 1_555
H17_8 C25_8 1_555 1_555
O13_8 Zn4_4 1_555 1_555
C23_8 C25_8 1_555 1_555
O13_8 H25_8 1_555 1_555
O13_8 H26_8 1_555 1_555

#END
