
###############################################################################
#
# This file contains modified crystal structure data generated from the
# MOF subset of the Cambridge Structural Database (CSD) v543 
# hosted by the Cambridge Crystallographic Data Centre (CCDC).
#
# This work is licensed under the Creative Commons
# Attribution-NonCommercial-ShareAlike 4.0 International License.
# To view a copy of this license, visit
# http://creativecommons.org/licenses/by-nc-sa/4.0/
# or send a letter to
# Creative Commons, PO Box 1866, Mountain View, CA 94042, USA.
#
# CIF created using the CSD Python API on 29 September 2022
# The structure has been converted into the P1 space group
# The structure has a 3D framework
# The original CSD entry GAWPON is in the monoclinic crystal system
# The framework has been calculated to contain at least 10.0% void space
# The void calculation uses a probe of radius 1.32A, grid spacing 0.4
#
###############################################################################

data_GAWPON
_chemical_formula_moiety         '(C184 H176 Cd14 N32 O48)n'
_symmetry_cell_setting           triclinic
_symmetry_space_group_name_H-M   'P 1'
_symmetry_Int_Tables_number      1
_space_group_name_Hall           'P 1'
loop_
_symmetry_equiv_pos_site_id
_symmetry_equiv_pos_as_xyz
1 x,y,z
_cell_length_a                   29.304(2)
_cell_length_b                   13.3566(9)
_cell_length_c                   15.8132(11)
_cell_angle_alpha                90
_cell_angle_beta                 90.8460(10)
_cell_angle_gamma                90
_cell_volume                     6188.64
loop_
_atom_site_label
_atom_site_type_symbol
_atom_site_fract_x
_atom_site_fract_y
_atom_site_fract_z
O7 O 0.53749(8) 0.64462(17) 0.18658(14)
O8 O 0.59720(7) 0.56687(17) 0.13624(14)
C24 C 0.52632(10) 0.5421(2) 0.06456(18)
C25 C 0.55547(10) 0.5875(2) 0.13323(18)
C26 C 0.48239(10) 0.5767(2) 0.0491(2)
H23 H 0.470519 0.628040 0.081833
C27 C 0.54373(10) 0.4654(2) 0.0151(2)
H24 H 0.573213 0.442216 0.025399
H30 H 0.141072 0.139581 0.027182
C43 C 0.38896(14) 0.0587(3) 0.0023(2)
Cd8 Cd 0.61703(2) 0.69198(2) 0.23485(2)
Cd11 Cd 0.500000 0.77390(2) 0.250000
Cd1 Cd 0.61703(2) 0.30802(2) 0.73485(2)
Cd2 Cd 0.500000 0.22610(2) 0.750000
O3 O 0.60146(9) 0.18919(18) 0.63241(16)
O4 O 0.46251(8) 0.35538(17) 0.81342(14)
O5 O 0.53588(8) 0.11582(18) 0.66995(15)
O6 O 0.40280(7) 0.43313(17) 0.86376(14)
N1 N 0.69122(9) 0.31410(18) 0.68825(18)
N2 N 0.85312(10) 0.0467(2) 0.57206(18)
N3 N 0.76241(10) 0.2830(2) 0.6572(2)
C1 C 0.47368(10) 0.4579(2) 0.93544(18)
C2 C 0.71270(13) 0.1334(3) 0.6813(3)
H1 H 0.725164 0.107374 0.733346
H2 H 0.726671 0.100278 0.634471
H3 H 0.680363 0.121973 0.679350
C3 C 0.75649(13) 0.3860(3) 0.6563(3)
H4 H 0.778550 0.433862 0.644527
C4 C 0.44453(10) 0.4125(2) 0.86677(18)
C7 C 0.85463(13) 0.1464(3) 0.5332(2)
H6 H 0.858928 0.139581 0.472818
H7 H 0.880408 0.183384 0.556465
C8 C 0.51761(10) 0.4233(2) 0.9509(2)
H8 H 0.529481 0.371960 0.918167
C10 C 0.57072(11) 0.1243(2) 0.6252(2)
C11 C 0.90960(16) 0.0724(3) 0.6902(3)
H10 H 0.910450 0.048860 0.747599
H11 H 0.900749 0.141581 0.689269
H12 H 0.939291 0.065409 0.666065
C13 C 0.81064(13) 0.2047(3) 0.5492(2)
H13 H 0.810893 0.266016 0.516372
H14 H 0.784740 0.165008 0.530104
C14 C 0.87632(11) 0.0130(3) 0.6408(2)
C15 C 0.80508(12) 0.2300(3) 0.6408(3)
H15 H 0.805871 0.168715 0.673700
H16 H 0.830544 0.271318 0.659306
C16 C 0.57660(11) 0.0481(2) 0.55520(19)
C18 C 0.71283(12) 0.4031(3) 0.6755(2)
H18 H 0.699351 0.465907 0.679629
C19 C 0.61104(14) 0.0587(3) 0.4977(2)
H19 H 0.630725 0.113161 0.501526
C20 C 0.45627(10) 0.5346(2) 0.9849(2)
H20 H 0.426787 0.557784 0.974601
C22 C 0.72184(11) 0.2425(2) 0.6765(2)
Cd3 Cd 0.38297(2) 0.30802(2) 0.76515(2)
O11 O 0.39854(9) 0.18919(18) 0.86759(16)
O12 O 0.46412(8) 0.11582(18) 0.83005(15)
N5 N 0.30878(9) 0.31410(18) 0.81175(18)
N6 N 0.14688(10) 0.0467(2) 0.92794(18)
N7 N 0.23759(10) 0.2830(2) 0.8428(2)
C28 C 0.28730(13) 0.1334(3) 0.8187(3)
H25 H 0.274836 0.107374 0.766654
H26 H 0.273329 0.100278 0.865529
H27 H 0.319637 0.121973 0.820650
C29 C 0.24351(13) 0.3860(3) 0.8437(3)
H28 H 0.221450 0.433862 0.855473
C32 C 0.14537(13) 0.1464(3) 0.9668(2)
H31 H 0.119592 0.183384 0.943535
C34 C 0.42928(11) 0.1243(2) 0.8748(2)
C35 C 0.09040(16) 0.0724(3) 0.8098(3)
H33 H 0.089550 0.048860 0.752401
H34 H 0.099251 0.141581 0.810731
H35 H 0.060709 0.065409 0.833935
C37 C 0.18936(13) 0.2047(3) 0.9508(2)
H36 H 0.189107 0.266016 0.983628
H37 H 0.215260 0.165008 0.969896
C38 C 0.12368(11) 0.0130(3) 0.8592(2)
C39 C 0.19492(12) 0.2300(3) 0.8592(3)
H38 H 0.194129 0.168715 0.826300
H39 H 0.169456 0.271318 0.840694
C40 C 0.42340(11) 0.0481(2) 0.94480(19)
C42 C 0.28717(12) 0.4031(3) 0.8245(2)
H41 H 0.300649 0.465907 0.820371
H42 H 0.369275 0.113161 0.998474
C45 C 0.27816(11) 0.2425(2) 0.8235(2)
O13 O 0.43682(7) 0.22814(15) 0.66056(13)
O14 O 0.56318(7) 0.22814(15) 0.83944(13)
O15 O 0.36674(8) 0.17245(18) 0.67393(16)
O16 O 0.63326(8) 0.17245(18) 0.82607(16)
O17 O 0.53749(8) 0.35538(17) 0.68658(14)
O18 O 0.59720(7) 0.43313(17) 0.63624(14)
N9 N 0.36551(9) 0.4189(2) 0.65669(17)
N10 N 0.63449(9) 0.4189(2) 0.84331(17)
O9 O 0.43682(7) 0.77186(15) 0.16056(13)
O10 O 0.36674(8) 0.82755(18) 0.17393(16)
C31 C 0.40513(10) 0.8316(2) 0.14090(18)
C33 C 0.38348(13) 0.9890(3) 0.0656(2)
H32 H 0.359882 0.996616 0.103702
C36 C 0.41255(10) 0.9080(2) 0.07312(19)
H43 H 0.191777 0.971176 0.005587
C46 C 0.44765(11) 0.8985(3) 0.0172(2)
H44 H 0.467936 0.845260 0.022341
Cd6 Cd 0.38297(2) 0.69198(2) 0.26515(2)
O1 O 0.56318(7) 0.77186(15) 0.33944(13)
O2 O 0.63326(8) 0.82755(18) 0.32607(16)
N4 N 0.86551(9) 0.9189(2) 0.65669(17)
C5 C 0.83508(14) 0.8924(3) 0.5942(2)
H5 H 0.821632 0.829651 0.588764
C6 C 0.59487(10) 0.8316(2) 0.35910(18)
C9 C 0.61652(13) 0.9890(3) 0.4344(2)
H9 H 0.640118 0.996616 0.396298
C12 C 0.58745(10) 0.9080(2) 0.42688(19)
C17 C 0.54699(12) 0.9679(3) 0.5469(2)
H17 H 0.523266 0.960447 0.584816
C21 C 0.82737(15) 0.9702(3) 0.5418(2)
H21 H 0.808223 0.971176 0.494413
C23 C 0.55235(11) 0.8985(3) 0.4828(2)
H22 H 0.532064 0.845260 0.477659
N8 N 0.13449(9) 0.9189(2) 0.84331(17)
C30 C 0.16492(14) 0.8924(3) 0.9058(2)
H29 H 0.178368 0.829651 0.911236
C41 C 0.45301(12) 0.9679(3) 0.9531(2)
H40 H 0.476734 0.960447 0.915184
C44 C 0.17263(15) 0.9702(3) 0.9582(2)
Cd4 Cd 0.11703(2) 0.80802(2) 0.73485(2)
Cd5 Cd 0.88297(2) 0.80802(2) 0.76515(2)
C1_2 C 0.52632(10) 0.4579(2) 0.56456(18)
C4_2 C 0.55547(10) 0.4125(2) 0.63323(18)
C8_2 C 0.48239(10) 0.4233(2) 0.5491(2)
H8_2 H 0.470519 0.371960 0.581833
C20_2 C 0.54373(10) 0.5346(2) 0.5151(2)
H20_2 H 0.573213 0.557784 0.525399
O7_2 O 0.46251(8) 0.64462(17) 0.31342(14)
O8_2 O 0.40280(7) 0.56687(17) 0.36376(14)
C24_2 C 0.47368(10) 0.5421(2) 0.43544(18)
C25_2 C 0.44453(10) 0.5875(2) 0.36677(18)
C26_2 C 0.51761(10) 0.5767(2) 0.4509(2)
H23_2 H 0.529481 0.628040 0.418167
C27_2 C 0.45627(10) 0.4654(2) 0.4849(2)
H24_2 H 0.426787 0.442216 0.474601
O7_3 O 0.03749(8) 0.14462(17) 0.18658(14)
O8_3 O 0.09720(7) 0.06687(17) 0.13624(14)
C24_3 C 0.02632(10) 0.0421(2) 0.06456(18)
C25_3 C 0.05547(10) 0.0875(2) 0.13323(18)
Cd8_2 Cd 0.11703(2) 0.19198(2) 0.23485(2)
Cd11_2 Cd -0.000000 0.27390(2) 0.250000
C27_3 C 0.04373(10) 0.9654(2) 0.0151(2)
H24_3 H 0.073213 0.942216 0.025399
Cd2_2 Cd 0.000000 0.72610(2) 0.750000
O1_2 O 0.06318(7) 0.27186(15) 0.33944(13)
O2_2 O 0.13326(8) 0.32755(18) 0.32607(16)
O3_2 O 0.10146(9) 0.68919(18) 0.63241(16)
O5_2 O 0.03588(8) 0.61582(18) 0.66995(15)
N1_2 N 0.19122(9) 0.81410(18) 0.68825(18)
N2_2 N 0.35312(10) 0.5467(2) 0.57206(18)
N3_2 N 0.26241(10) 0.7830(2) 0.6572(2)
C2_2 C 0.21270(13) 0.6334(3) 0.6813(3)
H1_2 H 0.225164 0.607374 0.733346
H2_2 H 0.226671 0.600278 0.634471
H3_2 H 0.180363 0.621973 0.679350
C3_2 C 0.25649(13) 0.8860(3) 0.6563(3)
H4_2 H 0.278550 0.933862 0.644527
C5_2 C 0.33508(14) 0.3924(3) 0.5942(2)
H5_2 H 0.321632 0.329651 0.588764
C6_2 C 0.09487(10) 0.3316(2) 0.35910(18)
C7_2 C 0.35463(13) 0.6464(3) 0.5332(2)
H6_2 H 0.358928 0.639581 0.472818
H7_2 H 0.380408 0.683384 0.556465
C8_3 C 0.01761(10) 0.9233(2) 0.9509(2)
H8_3 H 0.029481 0.871960 0.918167
C9_2 C 0.11652(13) 0.4890(3) 0.4344(2)
H9_2 H 0.140118 0.496616 0.396298
C10_2 C 0.07072(11) 0.6243(2) 0.6252(2)
C11_2 C 0.40960(16) 0.5724(3) 0.6902(3)
H10_2 H 0.410450 0.548860 0.747599
H11_2 H 0.400749 0.641581 0.689269
H12_2 H 0.439291 0.565409 0.666065
C12_2 C 0.08745(10) 0.4080(2) 0.42688(19)
C13_2 C 0.31064(13) 0.7047(3) 0.5492(2)
H13_2 H 0.310893 0.766016 0.516372
H14_2 H 0.284740 0.665008 0.530104
C14_2 C 0.37632(11) 0.5130(3) 0.6408(2)
C15_2 C 0.30508(12) 0.7300(3) 0.6408(3)
H15_2 H 0.305871 0.668715 0.673700
H16_2 H 0.330544 0.771318 0.659306
C16_2 C 0.07660(11) 0.5481(2) 0.55520(19)
C17_2 C 0.04699(12) 0.4679(3) 0.5469(2)
H17_2 H 0.023266 0.460447 0.584816
C18_2 C 0.21283(12) 0.9031(3) 0.6755(2)
H18_2 H 0.199351 0.965907 0.679629
C19_2 C 0.11104(14) 0.5587(3) 0.4977(2)
H19_2 H 0.130725 0.613161 0.501526
C21_2 C 0.32737(15) 0.4702(3) 0.5418(2)
H21_2 H 0.308223 0.471176 0.494413
C22_2 C 0.22184(11) 0.7425(2) 0.6765(2)
C23_2 C 0.05235(11) 0.3985(3) 0.4828(2)
H22_2 H 0.032064 0.345260 0.477659
O14_2 O 0.06318(7) 0.72814(15) 0.83944(13)
O16_2 O 0.13326(8) 0.67245(18) 0.82607(16)
O17_2 O 0.03749(8) 0.85538(17) 0.68658(14)
O18_2 O 0.09720(7) 0.93313(17) 0.63624(14)
C26_3 C 0.98239(10) 0.0767(2) 0.0491(2)
H23_3 H 0.970519 0.128040 0.081833
Cd11_3 Cd 1.000000 0.27390(2) 0.250000
C20_3 C 0.95627(10) 0.0346(2) 0.9849(2)
H20_3 H 0.926787 0.057784 0.974601
O9_2 O 0.93682(7) 0.27186(15) 0.16056(13)
O10_2 O 0.86674(8) 0.32755(18) 0.17393(16)
C31_2 C 0.90513(10) 0.3316(2) 0.14090(18)
H30_2 H 0.641072 0.639581 0.027182
C33_2 C 0.88348(13) 0.4890(3) 0.0656(2)
H32_2 H 0.859882 0.496616 0.103702
C36_2 C 0.91255(10) 0.4080(2) 0.07312(19)
C43_2 C 0.88896(14) 0.5587(3) 0.0023(2)
H43_2 H 0.691777 0.471176 0.005587
C46_2 C 0.94765(11) 0.3985(3) 0.0172(2)
H44_2 H 0.967936 0.345260 0.022341
Cd6_2 Cd 0.88297(2) 0.19198(2) 0.26515(2)
Cd2_3 Cd 1.000000 0.72610(2) 0.750000
O4_2 O 0.96251(8) 0.85538(17) 0.81342(14)
O6_2 O 0.90280(7) 0.93313(17) 0.86376(14)
C1_3 C 0.97368(10) 0.9579(2) 0.93544(18)
C4_3 C 0.94453(10) 0.9125(2) 0.86677(18)
O11_2 O 0.89854(9) 0.68919(18) 0.86759(16)
O12_2 O 0.96412(8) 0.61582(18) 0.83005(15)
N5_2 N 0.80878(9) 0.81410(18) 0.81175(18)
N6_2 N 0.64688(10) 0.5467(2) 0.92794(18)
N7_2 N 0.73759(10) 0.7830(2) 0.8428(2)
C28_2 C 0.78730(13) 0.6334(3) 0.8187(3)
H25_2 H 0.774836 0.607374 0.766654
H26_2 H 0.773329 0.600278 0.865529
H27_2 H 0.819637 0.621973 0.820650
C29_2 C 0.74351(13) 0.8860(3) 0.8437(3)
H28_2 H 0.721450 0.933862 0.855473
C30_2 C 0.66492(14) 0.3924(3) 0.9058(2)
H29_2 H 0.678368 0.329651 0.911236
C32_2 C 0.64537(13) 0.6464(3) 0.9668(2)
H31_2 H 0.619592 0.683384 0.943535
C34_2 C 0.92928(11) 0.6243(2) 0.8748(2)
C35_2 C 0.59040(16) 0.5724(3) 0.8098(3)
H33_2 H 0.589550 0.548860 0.752401
H34_2 H 0.599251 0.641581 0.810731
H35_2 H 0.560709 0.565409 0.833935
C37_2 C 0.68936(13) 0.7047(3) 0.9508(2)
H36_2 H 0.689107 0.766016 0.983628
H37_2 H 0.715260 0.665008 0.969896
C38_2 C 0.62368(11) 0.5130(3) 0.8592(2)
C39_2 C 0.69492(12) 0.7300(3) 0.8592(3)
H38_2 H 0.694129 0.668715 0.826300
H39_2 H 0.669456 0.771318 0.840694
C40_2 C 0.92340(11) 0.5481(2) 0.94480(19)
C41_2 C 0.95301(12) 0.4679(3) 0.9531(2)
H40_2 H 0.976734 0.460447 0.915184
C42_2 C 0.78717(12) 0.9031(3) 0.8245(2)
H41_2 H 0.800649 0.965907 0.820371
H42_2 H 0.869275 0.613161 0.998474
C44_2 C 0.67263(15) 0.4702(3) 0.9582(2)
C45_2 C 0.77816(11) 0.7425(2) 0.8235(2)
O13_2 O 0.93682(7) 0.72814(15) 0.66056(13)
O15_2 O 0.86674(8) 0.67245(18) 0.67393(16)
C20_4 C 0.04373(10) 0.0346(2) 0.5151(2)
H20_4 H 0.073213 0.057784 0.525399
C26_4 C 0.01761(10) 0.0767(2) 0.4509(2)
H23_4 H 0.029481 0.128040 0.418167
C1_4 C 0.02632(10) 0.9579(2) 0.56456(18)
C4_4 C 0.05547(10) 0.9125(2) 0.63323(18)
O7_4 O 0.96251(8) 0.14462(17) 0.31342(14)
O8_4 O 0.90280(7) 0.06687(17) 0.36376(14)
C24_4 C 0.97368(10) 0.0421(2) 0.43544(18)
C25_4 C 0.94453(10) 0.0875(2) 0.36677(18)
C8_4 C 0.98239(10) 0.9233(2) 0.5491(2)
H8_4 H 0.970519 0.871960 0.581833
C27_4 C 0.95627(10) 0.9654(2) 0.4849(2)
H24_4 H 0.926787 0.942216 0.474601
N4_2 N 0.13449(9) 0.0811(2) 0.34331(17)
C5_3 C 0.16492(14) 0.1076(3) 0.4058(2)
H5_3 H 0.178368 0.170349 0.411236
C6_3 C 0.40513(10) 0.1684(2) 0.64090(18)
C9_3 C 0.38348(13) 0.0110(3) 0.5656(2)
H9_3 H 0.359882 0.003384 0.603702
C12_3 C 0.41255(10) 0.0920(2) 0.57312(19)
C17_3 C 0.45301(12) 0.0321(3) 0.4531(2)
H17_3 H 0.476734 0.039553 0.415184
C21_3 C 0.17263(15) 0.0298(3) 0.4582(2)
H21_3 H 0.191777 0.028824 0.505587
C23_3 C 0.44765(11) 0.1015(3) 0.5172(2)
H22_3 H 0.467936 0.154740 0.522341
N8_2 N 0.86551(9) 0.0811(2) 0.15669(17)
C30_3 C 0.83508(14) 0.1076(3) 0.0942(2)
H29_3 H 0.821632 0.170349 0.088764
C41_3 C 0.54699(12) 0.0321(3) 0.0469(2)
H40_3 H 0.523266 0.039553 0.084816
C44_3 C 0.82737(15) 0.0298(3) 0.0418(2)
C31_3 C 0.59487(10) 0.1684(2) 0.85910(18)
C33_3 C 0.61652(13) 0.0110(3) 0.9344(2)
H32_3 H 0.640118 0.003384 0.896298
C36_3 C 0.58745(10) 0.0920(2) 0.92688(19)
H43_3 H 0.808223 0.028824 0.994413
C46_3 C 0.55235(11) 0.1015(3) 0.9828(2)
H44_3 H 0.532064 0.154740 0.977659
O3_3 O 0.39854(9) 0.81081(18) 0.36759(16)
O5_3 O 0.46412(8) 0.88418(18) 0.33005(15)
N1_3 N 0.30878(9) 0.68590(18) 0.31175(18)
N2_3 N 0.14688(10) 0.9533(2) 0.42794(18)
N3_3 N 0.23759(10) 0.7170(2) 0.3428(2)
C2_3 C 0.28730(13) 0.8666(3) 0.3187(3)
H1_3 H 0.274836 0.892626 0.266654
H2_3 H 0.273329 0.899722 0.365529
H3_3 H 0.319637 0.878027 0.320650
C3_3 C 0.24351(13) 0.6140(3) 0.3437(3)
H4_3 H 0.221450 0.566138 0.355473
C7_3 C 0.14537(13) 0.8536(3) 0.4668(2)
H6_3 H 0.141072 0.860419 0.527182
H7_3 H 0.119592 0.816616 0.443535
C10_3 C 0.42928(11) 0.8757(2) 0.3748(2)
C11_3 C 0.09040(16) 0.9276(3) 0.3098(3)
H10_3 H 0.089550 0.951140 0.252401
H11_3 H 0.099251 0.858419 0.310731
H12_3 H 0.060709 0.934591 0.333935
C13_3 C 0.18936(13) 0.7953(3) 0.4508(2)
H13_3 H 0.189107 0.733984 0.483628
H14_3 H 0.215260 0.834992 0.469896
C14_3 C 0.12368(11) 0.9870(3) 0.3592(2)
C15_3 C 0.19492(12) 0.7700(3) 0.3592(3)
H15_3 H 0.194129 0.831285 0.326300
H16_3 H 0.169456 0.728682 0.340694
C16_3 C 0.42340(11) 0.9519(2) 0.44480(19)
C18_3 C 0.28717(12) 0.5969(3) 0.3245(2)
H18_3 H 0.300649 0.534093 0.320371
C19_3 C 0.38896(14) 0.9413(3) 0.5023(2)
H19_3 H 0.369275 0.886839 0.498474
C22_3 C 0.27816(11) 0.7575(2) 0.3235(2)
O11_3 O 0.60146(9) 0.81081(18) 0.13241(16)
O12_3 O 0.53588(8) 0.88418(18) 0.16995(15)
N5_3 N 0.69122(9) 0.68590(18) 0.18825(18)
N6_3 N 0.85312(10) 0.9533(2) 0.07206(18)
N7_3 N 0.76241(10) 0.7170(2) 0.1572(2)
C28_3 C 0.71270(13) 0.8666(3) 0.1813(3)
H25_3 H 0.725164 0.892626 0.233346
H26_3 H 0.726671 0.899722 0.134471
H27_3 H 0.680363 0.878027 0.179350
C29_3 C 0.75649(13) 0.6140(3) 0.1563(3)
H28_3 H 0.778550 0.566138 0.144527
C32_3 C 0.85463(13) 0.8536(3) 0.0332(2)
H31_3 H 0.880408 0.816616 0.056465
C34_3 C 0.57072(11) 0.8757(2) 0.1252(2)
C35_3 C 0.90960(16) 0.9276(3) 0.1902(3)
H33_3 H 0.910450 0.951140 0.247599
H34_3 H 0.900749 0.858419 0.189269
H35_3 H 0.939291 0.934591 0.166065
C37_3 C 0.81064(13) 0.7953(3) 0.0492(2)
H36_3 H 0.810893 0.733984 0.016372
H37_3 H 0.784740 0.834992 0.030104
C38_3 C 0.87632(11) 0.9870(3) 0.1408(2)
C39_3 C 0.80508(12) 0.7700(3) 0.1408(3)
H38_3 H 0.805871 0.831285 0.173700
H39_3 H 0.830544 0.728682 0.159306
C40_3 C 0.57660(11) 0.9519(2) 0.05520(19)
C42_3 C 0.71283(12) 0.5969(3) 0.1755(2)
H41_3 H 0.699351 0.534093 0.179629
H42_3 H 0.630725 0.886839 0.001526
C45_3 C 0.72184(11) 0.7575(2) 0.1765(2)
N9_2 N 0.63449(9) 0.5811(2) 0.34331(17)
N10_2 N 0.36551(9) 0.5811(2) 0.15669(17)
H30_3 H 0.858928 0.860419 0.972818
C43_3 C 0.61104(14) 0.9413(3) 0.9977(2)
O11_4 O 0.10146(9) 0.31081(18) 0.13241(16)
O12_4 O 0.03588(8) 0.38418(18) 0.16995(15)
N5_4 N 0.19122(9) 0.18590(18) 0.18825(18)
N6_4 N 0.35312(10) 0.4533(2) 0.07206(18)
N7_4 N 0.26241(10) 0.2170(2) 0.1572(2)
C28_4 C 0.21270(13) 0.3666(3) 0.1813(3)
H25_4 H 0.225164 0.392626 0.233346
H26_4 H 0.226671 0.399722 0.134471
H27_4 H 0.180363 0.378027 0.179350
C29_4 C 0.25649(13) 0.1140(3) 0.1563(3)
H28_4 H 0.278550 0.066138 0.144527
C30_4 C 0.33508(14) 0.6076(3) 0.0942(2)
H29_4 H 0.321632 0.670349 0.088764
C32_4 C 0.35463(13) 0.3536(3) 0.0332(2)
H31_4 H 0.380408 0.316616 0.056465
C34_4 C 0.07072(11) 0.3757(2) 0.1252(2)
C35_4 C 0.40960(16) 0.4276(3) 0.1902(3)
H33_4 H 0.410450 0.451140 0.247599
H34_4 H 0.400749 0.358419 0.189269
H35_4 H 0.439291 0.434591 0.166065
C37_4 C 0.31064(13) 0.2953(3) 0.0492(2)
H36_4 H 0.310893 0.233984 0.016372
H37_4 H 0.284740 0.334992 0.030104
C38_4 C 0.37632(11) 0.4870(3) 0.1408(2)
C39_4 C 0.30508(12) 0.2700(3) 0.1408(3)
H38_4 H 0.305871 0.331285 0.173700
H39_4 H 0.330544 0.228682 0.159306
C40_4 C 0.07660(11) 0.4519(2) 0.05520(19)
C41_4 C 0.04699(12) 0.5321(3) 0.0469(2)
H40_4 H 0.023266 0.539553 0.084816
C42_4 C 0.21283(12) 0.0969(3) 0.1755(2)
H41_4 H 0.199351 0.034093 0.179629
H42_4 H 0.130725 0.386839 0.001526
C44_4 C 0.32737(15) 0.5298(3) 0.0418(2)
C45_4 C 0.22184(11) 0.2575(2) 0.1765(2)
C31_4 C 0.09487(10) 0.6684(2) 0.85910(18)
H30_4 H 0.358928 0.360419 0.972818
C33_4 C 0.11652(13) 0.5110(3) 0.9344(2)
H32_4 H 0.140118 0.503384 0.896298
C36_4 C 0.08745(10) 0.5920(2) 0.92688(19)
C43_4 C 0.11104(14) 0.4413(3) 0.9977(2)
H43_4 H 0.308223 0.528824 0.994413
C46_4 C 0.05235(11) 0.6015(3) 0.9828(2)
H44_4 H 0.032064 0.654740 0.977659
O3_4 O 0.89854(9) 0.31081(18) 0.36759(16)
O5_4 O 0.96412(8) 0.38418(18) 0.33005(15)
N1_4 N 0.80878(9) 0.18590(18) 0.31175(18)
N2_4 N 0.64688(10) 0.4533(2) 0.42794(18)
N3_4 N 0.73759(10) 0.2170(2) 0.3428(2)
C2_4 C 0.78730(13) 0.3666(3) 0.3187(3)
H1_4 H 0.774836 0.392626 0.266654
H2_4 H 0.773329 0.399722 0.365529
H3_4 H 0.819637 0.378027 0.320650
C3_4 C 0.74351(13) 0.1140(3) 0.3437(3)
H4_4 H 0.721450 0.066138 0.355473
C5_4 C 0.66492(14) 0.6076(3) 0.4058(2)
H5_4 H 0.678368 0.670349 0.411236
C6_4 C 0.90513(10) 0.6684(2) 0.64090(18)
C7_4 C 0.64537(13) 0.3536(3) 0.4668(2)
H6_4 H 0.641072 0.360419 0.527182
H7_4 H 0.619592 0.316616 0.443535
C9_4 C 0.88348(13) 0.5110(3) 0.5656(2)
H9_4 H 0.859882 0.503384 0.603702
C10_4 C 0.92928(11) 0.3757(2) 0.3748(2)
C11_4 C 0.59040(16) 0.4276(3) 0.3098(3)
H10_4 H 0.589550 0.451140 0.252401
H11_4 H 0.599251 0.358419 0.310731
H12_4 H 0.560709 0.434591 0.333935
C12_4 C 0.91255(10) 0.5920(2) 0.57312(19)
C13_4 C 0.68936(13) 0.2953(3) 0.4508(2)
H13_4 H 0.689107 0.233984 0.483628
H14_4 H 0.715260 0.334992 0.469896
C14_4 C 0.62368(11) 0.4870(3) 0.3592(2)
C15_4 C 0.69492(12) 0.2700(3) 0.3592(3)
H15_4 H 0.694129 0.331285 0.326300
H16_4 H 0.669456 0.228682 0.340694
C16_4 C 0.92340(11) 0.4519(2) 0.44480(19)
C17_4 C 0.95301(12) 0.5321(3) 0.4531(2)
H17_4 H 0.976734 0.539553 0.415184
C18_4 C 0.78717(12) 0.0969(3) 0.3245(2)
H18_4 H 0.800649 0.034093 0.320371
C19_4 C 0.88896(14) 0.4413(3) 0.5023(2)
H19_4 H 0.869275 0.386839 0.498474
C21_4 C 0.67263(15) 0.5298(3) 0.4582(2)
H21_4 H 0.691777 0.528824 0.505587
C22_4 C 0.77816(11) 0.2575(2) 0.3235(2)
C23_4 C 0.94765(11) 0.6015(3) 0.5172(2)
H22_4 H 0.967936 0.654740 0.522341
loop_
_geom_bond_atom_site_label_1
_geom_bond_atom_site_label_2
_geom_bond_site_symmetry_1
_geom_bond_site_symmetry_2
O7 C25 1_555 1_555
O8 C25 1_555 1_555
C24 C25 1_555 1_555
H23 C26 1_555 1_555
H24 C27 1_555 1_555
Cd8 O7 1_555 1_555
Cd11 O7 1_555 1_555
O8 Cd8 1_555 1_555
C24 C26 1_555 1_555
C24 C27 1_555 1_555
Cd1 O3 1_555 1_555
Cd2 O4 1_555 1_555
O3 C10 1_555 1_555
O4 C4 1_555 1_555
O5 Cd2 1_555 1_555
O6 C4 1_555 1_555
N1 Cd1 1_555 1_555
N2 C7 1_555 1_555
N3 C3 1_555 1_555
C1 C4 1_555 1_555
C2 H1 1_555 1_555
H2 C2 1_555 1_555
H3 C2 1_555 1_555
C3 H4 1_555 1_555
C7 H6 1_555 1_555
H7 C7 1_555 1_555
C8 C1 1_555 1_555
H8 C8 1_555 1_555
C10 O5 1_555 1_555
C11 H10 1_555 1_555
H11 C11 1_555 1_555
H12 C11 1_555 1_555
C13 C7 1_555 1_555
H13 C13 1_555 1_555
H14 C13 1_555 1_555
C14 N2 1_555 1_555
C15 N3 1_555 1_555
H15 C15 1_555 1_555
H16 C15 1_555 1_555
C16 C10 1_555 1_555
C18 N1 1_555 1_555
H18 C18 1_555 1_555
H19 C19 1_555 1_555
C20 C1 1_555 1_555
H20 C20 1_555 1_555
C22 N1 1_555 1_555
Cd3 O4 1_555 1_555
O11 Cd3 1_555 1_555
O12 Cd2 1_555 1_555
N5 Cd3 1_555 1_555
N6 C32 1_555 1_555
N7 C29 1_555 1_555
C28 H25 1_555 1_555
H26 C28 1_555 1_555
H27 C28 1_555 1_555
C29 H28 1_555 1_555
H31 C32 1_555 1_555
C34 O11 1_555 1_555
C35 H33 1_555 1_555
H34 C35 1_555 1_555
H35 C35 1_555 1_555
C37 C32 1_555 1_555
H36 C37 1_555 1_555
H37 C37 1_555 1_555
C38 N6 1_555 1_555
C39 N7 1_555 1_555
H38 C39 1_555 1_555
H39 C39 1_555 1_555
C40 C34 1_555 1_555
C42 N5 1_555 1_555
H41 C42 1_555 1_555
C45 N5 1_555 1_555
O13 Cd2 1_555 1_555
O14 Cd1 1_555 1_555
O15 Cd3 1_555 1_555
O16 Cd1 1_555 1_555
O17 Cd1 1_555 1_555
O18 Cd1 1_555 1_555
N9 Cd3 1_555 1_555
N10 Cd1 1_555 1_555
Cd2 O14 1_555 1_555
Cd2 O17 1_555 1_555
O6 Cd3 1_555 1_555
N3 C22 1_555 1_555
C2 C22 1_555 1_555
C3 C18 1_555 1_555
C11 C14 1_555 1_555
C13 C15 1_555 1_555
C16 C19 1_555 1_555
Cd3 O13 1_555 1_555
O12 C34 1_555 1_555
N7 C45 1_555 1_555
C28 C45 1_555 1_555
C29 C42 1_555 1_555
C35 C38 1_555 1_555
C37 C39 1_555 1_555
O9 C31 1_555 1_555
O10 C31 1_555 1_555
C31 C36 1_555 1_555
C33 H32 1_555 1_555
C36 C33 1_555 1_555
C46 C36 1_555 1_555
H44 C46 1_555 1_555
Cd6 O9 1_555 1_555
Cd11 O9 1_555 1_555
O10 Cd6 1_555 1_555
O1 C6 1_555 1_555
O2 C6 1_555 1_555
N4 C5 1_555 1_555
C5 H5 1_555 1_555
C6 C12 1_555 1_555
C9 H9 1_555 1_555
C12 C9 1_555 1_555
H17 C17 1_555 1_555
H21 C21 1_555 1_555
C23 C12 1_555 1_555
H22 C23 1_555 1_555
N8 C30 1_555 1_555
C30 H29 1_555 1_555
H40 C41 1_555 1_555
Cd4 N8 1_555 1_555
Cd5 N4 1_555 1_555
Cd8 O1 1_555 1_555
Cd11 O1 1_555 1_555
O2 Cd8 1_555 1_555
C5 C21 1_555 1_555
C17 C23 1_555 1_555
C30 C44 1_555 1_555
O17 C4_2 1_555 1_555
O18 C4_2 1_555 1_555
C1_2 C4_2 1_555 1_555
C8_2 C1_2 1_555 1_555
H8_2 C8_2 1_555 1_555
C20_2 C1_2 1_555 1_555
H20_2 C20_2 1_555 1_555
O7_2 C25_2 1_555 1_555
O8_2 C25_2 1_555 1_555
C24_2 C25_2 1_555 1_555
C26_2 C20_2 1_555 1_555
H23_2 C26_2 1_555 1_555
C27_2 C8_2 1_555 1_555
H24_2 C27_2 1_555 1_555
Cd6 O7_2 1_555 1_555
Cd11 O7_2 1_555 1_555
O8_2 Cd6 1_555 1_555
C24_2 C26_2 1_555 1_555
C24_2 C27_2 1_555 1_555
O7_3 C25_3 1_555 1_555
O8_3 C25_3 1_555 1_555
C24_3 C25_3 1_555 1_555
Cd8_2 O7_3 1_555 1_555
Cd11_2 O7_3 1_555 1_555
O8_3 Cd8_2 1_555 1_555
H24_3 C27_3 1_555 1_555
Cd4 O3_2 1_555 1_555
O1_2 C6_2 1_555 1_555
O2_2 C6_2 1_555 1_555
O3_2 C10_2 1_555 1_555
O5_2 Cd2_2 1_555 1_555
N1_2 Cd4 1_555 1_555
N2_2 C7_2 1_555 1_555
N3_2 C3_2 1_555 1_555
N9 C5_2 1_555 1_555
C2_2 H1_2 1_555 1_555
H2_2 C2_2 1_555 1_555
H3_2 C2_2 1_555 1_555
C3_2 H4_2 1_555 1_555
C5_2 H5_2 1_555 1_555
C6_2 C12_2 1_555 1_555
C7_2 H6_2 1_555 1_555
H7_2 C7_2 1_555 1_555
H8_3 C8_3 1_555 1_555
C9_2 H9_2 1_555 1_555
C10_2 O5_2 1_555 1_555
C11_2 H10_2 1_555 1_555
H11_2 C11_2 1_555 1_555
H12_2 C11_2 1_555 1_555
C12_2 C9_2 1_555 1_555
C13_2 C7_2 1_555 1_555
H13_2 C13_2 1_555 1_555
H14_2 C13_2 1_555 1_555
C14_2 N2_2 1_555 1_555
C15_2 N3_2 1_555 1_555
H15_2 C15_2 1_555 1_555
H16_2 C15_2 1_555 1_555
C16_2 C10_2 1_555 1_555
C17_2 C16_2 1_555 1_555
H17_2 C17_2 1_555 1_555
C18_2 N1_2 1_555 1_555
H18_2 C18_2 1_555 1_555
C19_2 C9_2 1_555 1_555
H19_2 C19_2 1_555 1_555
C21_2 N2_2 1_555 1_555
H21_2 C21_2 1_555 1_555
C22_2 N1_2 1_555 1_555
C23_2 C12_2 1_555 1_555
H22_2 C23_2 1_555 1_555
Cd8_2 O1_2 1_555 1_555
Cd11_2 O1_2 1_555 1_555
O14_2 Cd4 1_555 1_555
O16_2 Cd4 1_555 1_555
O17_2 Cd4 1_555 1_555
O18_2 Cd4 1_555 1_555
Cd2_2 O14_2 1_555 1_555
Cd2_2 O17_2 1_555 1_555
O2_2 Cd8_2 1_555 1_555
N3_2 C22_2 1_555 1_555
N9 C14_2 1_555 1_555
C2_2 C22_2 1_555 1_555
C3_2 C18_2 1_555 1_555
C5_2 C21_2 1_555 1_555
C11_2 C14_2 1_555 1_555
C13_2 C15_2 1_555 1_555
C16_2 C19_2 1_555 1_555
C17_2 C23_2 1_555 1_555
H23_3 C26_3 1_555 1_555
H20_3 C20_3 1_555 1_555
O9_2 C31_2 1_555 1_555
O10_2 C31_2 1_555 1_555
C31_2 C36_2 1_555 1_555
C33_2 H32_2 1_555 1_555
C36_2 C33_2 1_555 1_555
C43_2 C33_2 1_555 1_555
C46_2 C36_2 1_555 1_555
H44_2 C46_2 1_555 1_555
Cd6_2 O9_2 1_555 1_555
Cd11_3 O9_2 1_555 1_555
O10_2 Cd6_2 1_555 1_555
Cd2_3 O4_2 1_555 1_555
O4_2 C4_3 1_555 1_555
O6_2 C4_3 1_555 1_555
C1_3 C4_3 1_555 1_555
Cd5 O4_2 1_555 1_555
O11_2 Cd5 1_555 1_555
O12_2 Cd2_3 1_555 1_555
N5_2 Cd5 1_555 1_555
N6_2 C32_2 1_555 1_555
N7_2 C29_2 1_555 1_555
N10 C30_2 1_555 1_555
C28_2 H25_2 1_555 1_555
H26_2 C28_2 1_555 1_555
H27_2 C28_2 1_555 1_555
C29_2 H28_2 1_555 1_555
C30_2 H29_2 1_555 1_555
H31_2 C32_2 1_555 1_555
C34_2 O11_2 1_555 1_555
C35_2 H33_2 1_555 1_555
H34_2 C35_2 1_555 1_555
H35_2 C35_2 1_555 1_555
C37_2 C32_2 1_555 1_555
H36_2 C37_2 1_555 1_555
H37_2 C37_2 1_555 1_555
C38_2 N6_2 1_555 1_555
C39_2 N7_2 1_555 1_555
H38_2 C39_2 1_555 1_555
H39_2 C39_2 1_555 1_555
C40_2 C34_2 1_555 1_555
C41_2 C40_2 1_555 1_555
H40_2 C41_2 1_555 1_555
C42_2 N5_2 1_555 1_555
H41_2 C42_2 1_555 1_555
C44_2 N6_2 1_555 1_555
C45_2 N5_2 1_555 1_555
O13_2 Cd2_3 1_555 1_555
O15_2 Cd5 1_555 1_555
O6_2 Cd5 1_555 1_555
Cd5 O13_2 1_555 1_555
O12_2 C34_2 1_555 1_555
N7_2 C45_2 1_555 1_555
N10 C38_2 1_555 1_555
C28_2 C45_2 1_555 1_555
C29_2 C42_2 1_555 1_555
C30_2 C44_2 1_555 1_555
C35_2 C38_2 1_555 1_555
C37_2 C39_2 1_555 1_555
H20_4 C20_4 1_555 1_555
C26_4 C20_4 1_555 1_555
H23_4 C26_4 1_555 1_555
O17_2 C4_4 1_555 1_555
O18_2 C4_4 1_555 1_555
C1_4 C4_4 1_555 1_555
O7_4 C25_4 1_555 1_555
O8_4 C25_4 1_555 1_555
C24_4 C25_4 1_555 1_555
Cd6_2 O7_4 1_555 1_555
Cd11_3 O7_4 1_555 1_555
O8_4 Cd6_2 1_555 1_555
H8_4 C8_4 1_555 1_555
C27_4 C8_4 1_555 1_555
H24_4 C27_4 1_555 1_555
O13 C6_3 1_555 1_555
O15 C6_3 1_555 1_555
N4_2 C5_3 1_555 1_555
C5_3 H5_3 1_555 1_555
C6_3 C12_3 1_555 1_555
C9_3 H9_3 1_555 1_555
C12_3 C9_3 1_555 1_555
H17_3 C17_3 1_555 1_555
H21_3 C21_3 1_555 1_555
C23_3 C12_3 1_555 1_555
H22_3 C23_3 1_555 1_555
N8_2 C30_3 1_555 1_555
C30_3 H29_3 1_555 1_555
H40_3 C41_3 1_555 1_555
Cd6_2 N8_2 1_555 1_555
Cd8_2 N4_2 1_555 1_555
C5_3 C21_3 1_555 1_555
C17_3 C23_3 1_555 1_555
C30_3 C44_3 1_555 1_555
O14 C31_3 1_555 1_555
O16 C31_3 1_555 1_555
C31_3 C36_3 1_555 1_555
C33_3 H32_3 1_555 1_555
C36_3 C33_3 1_555 1_555
C46_3 C36_3 1_555 1_555
H44_3 C46_3 1_555 1_555
Cd6 O3_3 1_555 1_555
O3_3 C10_3 1_555 1_555
O5_3 Cd11 1_555 1_555
N1_3 Cd6 1_555 1_555
N2_3 C7_3 1_555 1_555
N3_3 C3_3 1_555 1_555
C2_3 H1_3 1_555 1_555
H2_3 C2_3 1_555 1_555
H3_3 C2_3 1_555 1_555
C3_3 H4_3 1_555 1_555
C7_3 H6_3 1_555 1_555
H7_3 C7_3 1_555 1_555
C10_3 O5_3 1_555 1_555
C11_3 H10_3 1_555 1_555
H11_3 C11_3 1_555 1_555
H12_3 C11_3 1_555 1_555
C13_3 C7_3 1_555 1_555
H13_3 C13_3 1_555 1_555
H14_3 C13_3 1_555 1_555
C14_3 N2_3 1_555 1_555
C15_3 N3_3 1_555 1_555
H15_3 C15_3 1_555 1_555
H16_3 C15_3 1_555 1_555
C16_3 C10_3 1_555 1_555
C18_3 N1_3 1_555 1_555
H18_3 C18_3 1_555 1_555
H19_3 C19_3 1_555 1_555
C22_3 N1_3 1_555 1_555
O11_3 Cd8 1_555 1_555
O12_3 Cd11 1_555 1_555
N5_3 Cd8 1_555 1_555
N6_3 C32_3 1_555 1_555
N7_3 C29_3 1_555 1_555
C28_3 H25_3 1_555 1_555
H26_3 C28_3 1_555 1_555
H27_3 C28_3 1_555 1_555
C29_3 H28_3 1_555 1_555
H31_3 C32_3 1_555 1_555
C34_3 O11_3 1_555 1_555
C35_3 H33_3 1_555 1_555
H34_3 C35_3 1_555 1_555
H35_3 C35_3 1_555 1_555
C37_3 C32_3 1_555 1_555
H36_3 C37_3 1_555 1_555
H37_3 C37_3 1_555 1_555
C38_3 N6_3 1_555 1_555
C39_3 N7_3 1_555 1_555
H38_3 C39_3 1_555 1_555
H39_3 C39_3 1_555 1_555
C40_3 C34_3 1_555 1_555
C42_3 N5_3 1_555 1_555
H41_3 C42_3 1_555 1_555
C45_3 N5_3 1_555 1_555
N9_2 Cd8 1_555 1_555
N10_2 Cd6 1_555 1_555
N3_3 C22_3 1_555 1_555
C2_3 C22_3 1_555 1_555
C3_3 C18_3 1_555 1_555
C11_3 C14_3 1_555 1_555
C13_3 C15_3 1_555 1_555
C16_3 C19_3 1_555 1_555
O12_3 C34_3 1_555 1_555
N7_3 C45_3 1_555 1_555
C28_3 C45_3 1_555 1_555
C29_3 C42_3 1_555 1_555
C35_3 C38_3 1_555 1_555
C37_3 C39_3 1_555 1_555
O11_4 Cd8_2 1_555 1_555
O12_4 Cd11_2 1_555 1_555
N5_4 Cd8_2 1_555 1_555
N6_4 C32_4 1_555 1_555
N7_4 C29_4 1_555 1_555
N10_2 C30_4 1_555 1_555
C28_4 H25_4 1_555 1_555
H26_4 C28_4 1_555 1_555
H27_4 C28_4 1_555 1_555
C29_4 H28_4 1_555 1_555
C30_4 H29_4 1_555 1_555
H31_4 C32_4 1_555 1_555
C34_4 O11_4 1_555 1_555
C35_4 H33_4 1_555 1_555
H34_4 C35_4 1_555 1_555
H35_4 C35_4 1_555 1_555
C37_4 C32_4 1_555 1_555
H36_4 C37_4 1_555 1_555
H37_4 C37_4 1_555 1_555
C38_4 N6_4 1_555 1_555
C39_4 N7_4 1_555 1_555
H38_4 C39_4 1_555 1_555
H39_4 C39_4 1_555 1_555
C40_4 C34_4 1_555 1_555
C41_4 C40_4 1_555 1_555
H40_4 C41_4 1_555 1_555
C42_4 N5_4 1_555 1_555
H41_4 C42_4 1_555 1_555
C44_4 N6_4 1_555 1_555
C45_4 N5_4 1_555 1_555
O12_4 C34_4 1_555 1_555
N7_4 C45_4 1_555 1_555
N10_2 C38_4 1_555 1_555
C28_4 C45_4 1_555 1_555
C29_4 C42_4 1_555 1_555
C30_4 C44_4 1_555 1_555
C35_4 C38_4 1_555 1_555
C37_4 C39_4 1_555 1_555
O14_2 C31_4 1_555 1_555
O16_2 C31_4 1_555 1_555
C31_4 C36_4 1_555 1_555
C33_4 H32_4 1_555 1_555
C36_4 C33_4 1_555 1_555
C43_4 C33_4 1_555 1_555
C46_4 C36_4 1_555 1_555
H44_4 C46_4 1_555 1_555
Cd6_2 O3_4 1_555 1_555
O13_2 C6_4 1_555 1_555
O15_2 C6_4 1_555 1_555
O3_4 C10_4 1_555 1_555
O5_4 Cd11_3 1_555 1_555
N1_4 Cd6_2 1_555 1_555
N2_4 C7_4 1_555 1_555
N3_4 C3_4 1_555 1_555
N9_2 C5_4 1_555 1_555
C2_4 H1_4 1_555 1_555
H2_4 C2_4 1_555 1_555
H3_4 C2_4 1_555 1_555
C3_4 H4_4 1_555 1_555
C5_4 H5_4 1_555 1_555
C6_4 C12_4 1_555 1_555
C7_4 H6_4 1_555 1_555
H7_4 C7_4 1_555 1_555
C9_4 H9_4 1_555 1_555
C10_4 O5_4 1_555 1_555
C11_4 H10_4 1_555 1_555
H11_4 C11_4 1_555 1_555
H12_4 C11_4 1_555 1_555
C12_4 C9_4 1_555 1_555
C13_4 C7_4 1_555 1_555
H13_4 C13_4 1_555 1_555
H14_4 C13_4 1_555 1_555
C14_4 N2_4 1_555 1_555
C15_4 N3_4 1_555 1_555
H15_4 C15_4 1_555 1_555
H16_4 C15_4 1_555 1_555
C16_4 C10_4 1_555 1_555
C17_4 C16_4 1_555 1_555
H17_4 C17_4 1_555 1_555
C18_4 N1_4 1_555 1_555
H18_4 C18_4 1_555 1_555
C19_4 C9_4 1_555 1_555
H19_4 C19_4 1_555 1_555
C21_4 N2_4 1_555 1_555
H21_4 C21_4 1_555 1_555
C22_4 N1_4 1_555 1_555
C23_4 C12_4 1_555 1_555
H22_4 C23_4 1_555 1_555
N3_4 C22_4 1_555 1_555
N9_2 C14_4 1_555 1_555
C2_4 C22_4 1_555 1_555
C3_4 C18_4 1_555 1_555
C5_4 C21_4 1_555 1_555
C11_4 C14_4 1_555 1_555
C13_4 C15_4 1_555 1_555
C16_4 C19_4 1_555 1_555
C17_4 C23_4 1_555 1_555

#END
