
###############################################################################
#
# This file contains modified crystal structure data generated from the
# MOF subset of the Cambridge Structural Database (CSD) v543 
# hosted by the Cambridge Crystallographic Data Centre (CCDC).
#
# This work is licensed under the Creative Commons
# Attribution-NonCommercial-ShareAlike 4.0 International License.
# To view a copy of this license, visit
# http://creativecommons.org/licenses/by-nc-sa/4.0/
# or send a letter to
# Creative Commons, PO Box 1866, Mountain View, CA 94042, USA.
#
# CIF created using the CSD Python API on 29 September 2022
# The structure has been converted into the P1 space group
# The structure has a 3D framework
# The original CSD entry GAWTOP is in the orthorhombic crystal system
# The framework has been calculated to contain at least 10.0% void space
# The void calculation uses a probe of radius 1.32A, grid spacing 0.4
#
###############################################################################

data_GAWTOP
_chemical_formula_moiety         '(C72 H64 Co8 N8 O35)n'
_symmetry_cell_setting           triclinic
_symmetry_space_group_name_H-M   'P 1'
_symmetry_Int_Tables_number      1
_space_group_name_Hall           'P 1'
loop_
_symmetry_equiv_pos_site_id
_symmetry_equiv_pos_as_xyz
1 x,y,z
_cell_length_a                   23.695(4)
_cell_length_b                   10.2775(18)
_cell_length_c                   9.9729(18)
_cell_angle_alpha                90
_cell_angle_beta                 90
_cell_angle_gamma                90
_cell_volume                     2428.65
loop_
_atom_site_label
_atom_site_type_symbol
_atom_site_fract_x
_atom_site_fract_y
_atom_site_fract_z
O3 O 0.18117(12) 0.1064(3) 0.5183(3)
Co3 Co 0.213769(19) 0.29108(5) 0.48757(5)
N1 N 0.36554(12) 0.8476(3) 0.4036(3)
Co1 Co 0.286231(19) 0.79108(5) 0.48757(5)
C1 C 0.16795(16) 0.7070(4) 0.4069(4)
H1 H 0.1340 0.7559 0.3869
H2 H 0.1569 0.6179 0.4251
C2 C 0.20587(15) 0.7089(3) 0.2856(4)
C3 C 0.20555(16) 0.9983(4) 0.5134(4)
C4 C 0.17191(15) 0.8834(4) 0.5678(4)
H3 H 0.1723 0.8865 0.6650
H4 H 0.1330 0.8913 0.5387
C5 C 0.41352(17) 0.8304(5) 0.4738(4)
H5 H 0.4108 0.8094 0.5643
C6 C 0.46604(16) 0.8426(5) 0.4181(4)
H6 H 0.4980 0.8297 0.4707
C7 C 0.47196(14) 0.8742(4) 0.2829(4)
C8 C 0.42212(15) 0.8962(4) 0.2132(4)
H7 H 0.4236 0.9200 0.1233
C9 C 0.37054(15) 0.8831(4) 0.2756(4)
H8 H 0.3380 0.8997 0.2265
O1 O 0.19356(11) 0.7604(3) 0.5249(3)
O2 O 0.25602(11) 0.7464(3) 0.3001(3)
O4 O 0.18389(11) 0.6704(3) 0.1798(3)
O5 O 0.25455(11) 0.9777(3) 0.4724(3)
N2 N 0.63446(12) 0.8476(3) 0.0964(3)
Co2 Co 0.713769(19) 0.79108(5) 0.01243(5)
C10 C 0.33205(16) 0.2070(4) 0.4069(4)
H9 H 0.3660 0.2559 0.3869
H10 H 0.3431 0.1179 0.4251
C11 C 0.29413(15) 0.2089(3) 0.2856(4)
C12 C 0.29445(16) 0.4983(4) 0.5134(4)
C13 C 0.32809(15) 0.3834(4) 0.5678(4)
H11 H 0.3277 0.3865 0.6650
H12 H 0.3670 0.3913 0.5387
C14 C 0.58648(17) 0.8304(5) 0.0262(4)
C15 C 0.53396(16) 0.8426(5) 0.0819(4)
H14 H 0.5020 0.8297 0.0293
C16 C 0.52804(14) 0.8742(4) 0.2171(4)
C17 C 0.57788(15) 0.8962(4) 0.2868(4)
H15 H 0.5764 0.9200 0.3767
C18 C 0.62946(15) 0.8831(4) 0.2244(4)
H16 H 0.6620 0.8997 0.2735
O6 O 0.30644(11) 0.2604(3) 0.5249(3)
O8 O 0.24398(11) 0.2464(3) 0.3001(3)
O9 O 0.74398(11) 0.7464(3) 0.1999(3)
O10 O 0.31883(12) 0.6064(3) 0.5183(3)
O12 O 0.31611(11) 0.1704(3) 0.1798(3)
O13 O 0.31611(11) 0.8296(3) 0.6798(3)
O15 O 0.24545(11) 0.4777(3) 0.4724(3)
O16 O 0.74545(11) 0.9777(3) 0.0276(3)
Co4 Co 0.213769(19) 0.70892(5) 0.98757(5)
Co6 Co 0.286231(19) 0.20892(5) 0.98757(5)
H13 H 0.5892 0.8094 0.9357
O7 O 0.80644(11) 0.7604(3) 0.9751(3)
O11 O 0.68117(12) 0.6064(3) 0.9817(3)
O14 O 0.68389(11) 0.8296(3) 0.8202(3)
C12_2 C 0.20555(16) 0.0017(4) 0.0134(4)
C13_2 C 0.17191(15) 0.1166(4) 0.0678(4)
H11_2 H 0.1723 0.1135 0.1650
H12_2 H 0.1330 0.1087 0.0387
O6_2 O 0.19356(11) 0.2396(3) 0.0249(3)
C10_2 C 0.16795(16) 0.2930(4) 0.9069(4)
H9_2 H 0.1340 0.2441 0.8869
H10_2 H 0.1569 0.3821 0.9251
C11_2 C 0.20587(15) 0.2911(3) 0.7856(4)
O8_2 O 0.25602(11) 0.2536(3) 0.8001(3)
O12_2 O 0.18389(11) 0.3296(3) 0.6798(3)
O15_2 O 0.25455(11) 0.0223(3) 0.9724(3)
C3_2 C 0.29445(16) 0.5017(4) 0.0134(4)
C4_2 C 0.32809(15) 0.6166(4) 0.0678(4)
H3_2 H 0.3277 0.6135 0.1650
H4_2 H 0.3670 0.6087 0.0387
H5_2 H 0.0892 0.6906 0.0643
O1_2 O 0.30644(11) 0.7396(3) 0.0249(3)
O3_2 O 0.31883(12) 0.3936(3) 0.0183(3)
O10_2 O 0.18117(12) 0.8936(3) 0.0183(3)
N1_2 N 0.13446(12) 0.6524(3) 0.9036(3)
C1_2 C 0.33205(16) 0.7930(4) 0.9069(4)
H1_2 H 0.3660 0.7441 0.8869
H2_2 H 0.3431 0.8821 0.9251
C2_2 C 0.29413(15) 0.7911(3) 0.7856(4)
C5_2 C 0.08648(17) 0.6696(5) 0.9738(4)
C6_2 C 0.03396(16) 0.6574(5) 0.9181(4)
H6_2 H 0.0020 0.6703 0.9707
C7_2 C 0.02804(14) 0.6258(4) 0.7829(4)
C8_2 C 0.07788(15) 0.6038(4) 0.7132(4)
H7_2 H 0.0764 0.5800 0.6233
C9_2 C 0.12946(15) 0.6169(4) 0.7756(4)
H8_2 H 0.1620 0.6003 0.7265
O2_2 O 0.24398(11) 0.7536(3) 0.8001(3)
O5_2 O 0.24545(11) 0.5223(3) 0.9724(3)
N2_2 N 0.86554(12) 0.6524(3) 0.5964(3)
Co2_2 Co 0.786231(19) 0.70892(5) 0.51243(5)
C14_2 C 0.91352(17) 0.6696(5) 0.5262(4)
H13_2 H 0.9108 0.6906 0.4357
C15_2 C 0.96604(16) 0.6574(5) 0.5819(4)
H14_2 H 0.9980 0.6703 0.5293
C16_2 C 0.97196(14) 0.6258(4) 0.7171(4)
C17_2 C 0.92212(15) 0.6038(4) 0.7868(4)
H15_2 H 0.9236 0.5800 0.8767
C18_2 C 0.87054(15) 0.6169(4) 0.7244(4)
H16_2 H 0.8380 0.6003 0.7735
O7_2 O 0.69356(11) 0.7396(3) 0.4751(3)
O9_2 O 0.75602(11) 0.7536(3) 0.6999(3)
O11_2 O 0.81883(12) 0.8936(3) 0.4817(3)
O14_2 O 0.81611(11) 0.6704(3) 0.3202(3)
O16_2 O 0.75455(11) 0.5223(3) 0.5276(3)
Co3_2 Co 0.786231(19) 0.29108(5) 0.01243(5)
O3_3 O 0.81883(12) 0.1064(3) 0.9817(3)
C1_3 C 0.83205(16) 0.7070(4) 0.0931(4)
H1_3 H 0.8660 0.7559 0.1131
H2_3 H 0.8431 0.6179 0.0749
C2_3 C 0.79413(15) 0.7089(3) 0.2144(4)
Co6_2 Co 0.713769(19) 0.20892(5) 0.51243(5)
C10_3 C 0.66795(16) 0.2070(4) 0.0931(4)
H9_3 H 0.6340 0.2559 0.1131
H10_3 H 0.6569 0.1179 0.0749
C11_3 C 0.70587(15) 0.2089(3) 0.2144(4)
O8_3 O 0.75602(11) 0.2464(3) 0.1999(3)
O12_3 O 0.68389(11) 0.1704(3) 0.3202(3)
O15_3 O 0.75455(11) 0.4777(3) 0.0276(3)
C3_3 C 0.79445(16) 0.9983(4) 0.9866(4)
C4_3 C 0.82809(15) 0.8834(4) 0.9322(4)
H3_3 H 0.8277 0.8865 0.8350
H4_3 H 0.8670 0.8913 0.9613
C12_3 C 0.70555(16) 0.4983(4) 0.9866(4)
C13_3 C 0.67191(15) 0.3834(4) 0.9322(4)
H11_3 H 0.6723 0.3865 0.8350
H12_3 H 0.6330 0.3913 0.9613
O6_3 O 0.69356(11) 0.2604(3) 0.9751(3)
C10_4 C 0.83205(16) 0.2930(4) 0.5931(4)
H9_4 H 0.8660 0.2441 0.6131
H10_4 H 0.8431 0.3821 0.5749
C11_4 C 0.79413(15) 0.2911(3) 0.7144(4)
C12_4 C 0.79445(16) 0.0017(4) 0.4866(4)
C13_4 C 0.82809(15) 0.1166(4) 0.4322(4)
H11_4 H 0.8277 0.1135 0.3350
H12_4 H 0.8670 0.1087 0.4613
O6_4 O 0.80644(11) 0.2396(3) 0.4751(3)
O8_4 O 0.74398(11) 0.2536(3) 0.6999(3)
O12_4 O 0.81611(11) 0.3296(3) 0.8202(3)
O15_4 O 0.74545(11) 0.0223(3) 0.5276(3)
C1_4 C 0.66795(16) 0.7930(4) 0.5931(4)
H1_4 H 0.6340 0.7441 0.6131
H2_4 H 0.6569 0.8821 0.5749
C2_4 C 0.70587(15) 0.7911(3) 0.7144(4)
C3_4 C 0.70555(16) 0.5017(4) 0.4866(4)
C4_4 C 0.67191(15) 0.6166(4) 0.4322(4)
H3_4 H 0.6723 0.6135 0.3350
H4_4 H 0.6330 0.6087 0.4613
O3_4 O 0.68117(12) 0.3936(3) 0.4817(3)
H13_3 H 0.4108 0.1906 0.0643
N1_3 N 0.63446(12) 0.1524(3) 0.5964(3)
C5_3 C 0.58648(17) 0.1696(5) 0.5262(4)
H5_3 H 0.5892 0.1906 0.4357
C6_3 C 0.53396(16) 0.1574(5) 0.5819(4)
H6_3 H 0.5020 0.1703 0.5293
C7_3 C 0.52804(14) 0.1258(4) 0.7171(4)
C8_3 C 0.57788(15) 0.1038(4) 0.7868(4)
H7_3 H 0.5764 0.0800 0.8767
C9_3 C 0.62946(15) 0.1169(4) 0.7244(4)
H8_3 H 0.6620 0.1003 0.7735
N2_3 N 0.36554(12) 0.1524(3) 0.9036(3)
C14_3 C 0.41352(17) 0.1696(5) 0.9738(4)
C15_3 C 0.46604(16) 0.1574(5) 0.9181(4)
H14_3 H 0.4980 0.1703 0.9707
C16_3 C 0.47196(14) 0.1258(4) 0.7829(4)
C17_3 C 0.42212(15) 0.1038(4) 0.7132(4)
H15_3 H 0.4236 0.0800 0.6233
C18_3 C 0.37054(15) 0.1169(4) 0.7756(4)
H16_3 H 0.3380 0.1003 0.7265
N2_4 N 0.13446(12) 0.3476(3) 0.4036(3)
C14_4 C 0.08648(17) 0.3304(5) 0.4738(4)
H13_4 H 0.0892 0.3094 0.5643
C15_4 C 0.03396(16) 0.3426(5) 0.4181(4)
H14_4 H 0.0020 0.3297 0.4707
C16_4 C 0.02804(14) 0.3742(4) 0.2829(4)
C17_4 C 0.07788(15) 0.3962(4) 0.2132(4)
H15_4 H 0.0764 0.4200 0.1233
C18_4 C 0.12946(15) 0.3831(4) 0.2756(4)
H16_4 H 0.1620 0.3997 0.2265
N1_4 N 0.86554(12) 0.3476(3) 0.0964(3)
C5_4 C 0.91352(17) 0.3304(5) 0.0262(4)
C6_4 C 0.96604(16) 0.3426(5) 0.0819(4)
H6_4 H 0.9980 0.3297 0.0293
C7_4 C 0.97196(14) 0.3742(4) 0.2171(4)
C8_4 C 0.92212(15) 0.3962(4) 0.2868(4)
H7_4 H 0.9236 0.4200 0.3767
C9_4 C 0.87054(15) 0.3831(4) 0.2244(4)
H8_4 H 0.8380 0.3997 0.2735
H5_4 H 0.9108 0.3094 0.9357
loop_
_geom_bond_atom_site_label_1
_geom_bond_atom_site_label_2
_geom_bond_site_symmetry_1
_geom_bond_site_symmetry_2
Co3 O3 1_555 1_555
N1 Co1 1_555 1_555
Co1 O1 1_555 1_555
C1 H1 1_555 1_555
H2 C1 1_555 1_555
C2 C1 1_555 1_555
C3 C4 1_555 1_555
C4 H3 1_555 1_555
H4 C4 1_555 1_555
C5 N1 1_555 1_555
H5 C5 1_555 1_555
C6 C5 1_555 1_555
H6 C6 1_555 1_555
C7 C6 1_555 1_555
C8 C7 1_555 1_555
H7 C8 1_555 1_555
C9 N1 1_555 1_555
H8 C9 1_555 1_555
O1 C1 1_555 1_555
O2 Co1 1_555 1_555
O4 C2 1_555 1_555
O5 Co1 1_555 1_555
N2 Co2 1_555 1_555
Co3 O6 1_555 1_555
C10 H9 1_555 1_555
H10 C10 1_555 1_555
C11 C10 1_555 1_555
C12 C13 1_555 1_555
C13 H11 1_555 1_555
H12 C13 1_555 1_555
C14 N2 1_555 1_555
C15 C14 1_555 1_555
H14 C15 1_555 1_555
C16 C7 1_555 1_555
C17 C16 1_555 1_555
H15 C17 1_555 1_555
C18 N2 1_555 1_555
H16 C18 1_555 1_555
O6 C10 1_555 1_555
O8 Co3 1_555 1_555
O9 Co2 1_555 1_555
O10 Co1 1_555 1_555
O12 C11 1_555 1_555
O13 Co1 1_555 1_555
O15 Co3 1_555 1_555
O16 Co2 1_555 1_555
C2 O2 1_555 1_555
C3 O5 1_555 1_555
C4 O1 1_555 1_555
C8 C9 1_555 1_555
C11 O8 1_555 1_555
C12 O10 1_555 1_555
C12 O15 1_555 1_555
C13 O6 1_555 1_555
C15 C16 1_555 1_555
C17 C18 1_555 1_555
C12_2 C13_2 1_555 1_555
C13_2 H11_2 1_555 1_555
H12_2 C13_2 1_555 1_555
C13_2 O6_2 1_555 1_555
Co3 O12_2 1_555 1_555
C10_2 H9_2 1_555 1_555
H10_2 C10_2 1_555 1_555
C11_2 C10_2 1_555 1_555
O8_2 Co6 1_555 1_555
O12_2 C11_2 1_555 1_555
O15_2 Co6 1_555 1_555
C11_2 O8_2 1_555 1_555
C3_2 C4_2 1_555 1_555
C4_2 H3_2 1_555 1_555
H4_2 C4_2 1_555 1_555
O3_2 C3_2 1_555 1_555
C4_2 O1_2 1_555 1_555
N1_2 Co4 1_555 1_555
C1_2 H1_2 1_555 1_555
H2_2 C1_2 1_555 1_555
C2_2 C1_2 1_555 1_555
C5_2 N1_2 1_555 1_555
C6_2 C5_2 1_555 1_555
H6_2 C6_2 1_555 1_555
C7_2 C6_2 1_555 1_555
C8_2 C7_2 1_555 1_555
H7_2 C8_2 1_555 1_555
C9_2 N1_2 1_555 1_555
H8_2 C9_2 1_555 1_555
O2_2 Co4 1_555 1_555
O13 C2_2 1_555 1_555
O5_2 Co4 1_555 1_555
C2_2 O2_2 1_555 1_555
C8_2 C9_2 1_555 1_555
N2_2 Co2_2 1_555 1_555
Co2_2 O7_2 1_555 1_555
C14_2 N2_2 1_555 1_555
H13_2 C14_2 1_555 1_555
C15_2 C14_2 1_555 1_555
H14_2 C15_2 1_555 1_555
C17_2 C16_2 1_555 1_555
H15_2 C17_2 1_555 1_555
C18_2 N2_2 1_555 1_555
H16_2 C18_2 1_555 1_555
O9_2 Co2_2 1_555 1_555
O11_2 Co2_2 1_555 1_555
O14_2 Co2_2 1_555 1_555
O16_2 Co2_2 1_555 1_555
C15_2 C16_2 1_555 1_555
C17_2 C18_2 1_555 1_555
C1_3 H1_3 1_555 1_555
H2_3 C1_3 1_555 1_555
C2_3 C1_3 1_555 1_555
O14_2 C2_3 1_555 1_555
Co6_2 O12_3 1_555 1_555
C10_3 H9_3 1_555 1_555
H10_3 C10_3 1_555 1_555
C11_3 C10_3 1_555 1_555
O8_3 Co3_2 1_555 1_555
O12_3 C11_3 1_555 1_555
O15_3 Co3_2 1_555 1_555
C2_3 O9 1_555 1_555
C11_3 O8_3 1_555 1_555
C3_3 C4_3 1_555 1_555
C4_3 H3_3 1_555 1_555
H4_3 C4_3 1_555 1_555
C12_3 C13_3 1_555 1_555
C13_3 H11_3 1_555 1_555
H12_3 C13_3 1_555 1_555
C4_3 O7 1_555 1_555
C12_3 O11 1_555 1_555
C13_3 O6_3 1_555 1_555
Co6_2 O6_4 1_555 1_555
C10_4 H9_4 1_555 1_555
H10_4 C10_4 1_555 1_555
C11_4 C10_4 1_555 1_555
C12_4 C13_4 1_555 1_555
C13_4 H11_4 1_555 1_555
H12_4 C13_4 1_555 1_555
O6_4 C10_4 1_555 1_555
O8_4 Co6_2 1_555 1_555
O12_4 C11_4 1_555 1_555
O15_4 Co6_2 1_555 1_555
C11_4 O8_4 1_555 1_555
C12_4 O15_4 1_555 1_555
C13_4 O6_4 1_555 1_555
C1_4 H1_4 1_555 1_555
H2_4 C1_4 1_555 1_555
C2_4 C1_4 1_555 1_555
C3_4 C4_4 1_555 1_555
C4_4 H3_4 1_555 1_555
H4_4 C4_4 1_555 1_555
O7_2 C1_4 1_555 1_555
O3_4 C3_4 1_555 1_555
O14 C2_4 1_555 1_555
Co6_2 O3_4 1_555 1_555
C2_4 O9_2 1_555 1_555
C3_4 O16_2 1_555 1_555
C4_4 O7_2 1_555 1_555
N1_3 Co6_2 1_555 1_555
C5_3 N1_3 1_555 1_555
H5_3 C5_3 1_555 1_555
C6_3 C5_3 1_555 1_555
H6_3 C6_3 1_555 1_555
C7_3 C6_3 1_555 1_555
C8_3 C7_3 1_555 1_555
H7_3 C8_3 1_555 1_555
C9_3 N1_3 1_555 1_555
H8_3 C9_3 1_555 1_555
N2_3 Co6 1_555 1_555
C14_3 N2_3 1_555 1_555
C15_3 C14_3 1_555 1_555
H14_3 C15_3 1_555 1_555
C16_3 C7_3 1_555 1_555
C17_3 C16_3 1_555 1_555
H15_3 C17_3 1_555 1_555
C18_3 N2_3 1_555 1_555
H16_3 C18_3 1_555 1_555
C8_3 C9_3 1_555 1_555
C15_3 C16_3 1_555 1_555
C17_3 C18_3 1_555 1_555
N2_4 Co3 1_555 1_555
C14_4 N2_4 1_555 1_555
H13_4 C14_4 1_555 1_555
C15_4 C14_4 1_555 1_555
H14_4 C15_4 1_555 1_555
C17_4 C16_4 1_555 1_555
H15_4 C17_4 1_555 1_555
C18_4 N2_4 1_555 1_555
H16_4 C18_4 1_555 1_555
C15_4 C16_4 1_555 1_555
C17_4 C18_4 1_555 1_555
N1_4 Co3_2 1_555 1_555
C5_4 N1_4 1_555 1_555
C6_4 C5_4 1_555 1_555
H6_4 C6_4 1_555 1_555
C7_4 C6_4 1_555 1_555
C8_4 C7_4 1_555 1_555
H7_4 C8_4 1_555 1_555
C9_4 N1_4 1_555 1_555
H8_4 C9_4 1_555 1_555
C8_4 C9_4 1_555 1_555

#END
