
###############################################################################
#
# This file contains modified crystal structure data generated from the
# MOF subset of the Cambridge Structural Database (CSD) v543 
# hosted by the Cambridge Crystallographic Data Centre (CCDC).
#
# This work is licensed under the Creative Commons
# Attribution-NonCommercial-ShareAlike 4.0 International License.
# To view a copy of this license, visit
# http://creativecommons.org/licenses/by-nc-sa/4.0/
# or send a letter to
# Creative Commons, PO Box 1866, Mountain View, CA 94042, USA.
#
# CIF created using the CSD Python API on 29 September 2022
# The structure has been converted into the P1 space group
# The structure has a 3D framework
# The original CSD entry GAWZOX is in the monoclinic crystal system
# The framework has been calculated to contain at least 10.0% void space
# The void calculation uses a probe of radius 1.32A, grid spacing 0.4
# The framework is charged, counterions have been retained in the structure
#
###############################################################################

data_GAWZOX
_chemical_formula_moiety         '(C320 H192 In8 N16 O64 8-)n'
_symmetry_cell_setting           triclinic
_symmetry_space_group_name_H-M   'P 1'
_symmetry_Int_Tables_number      1
_space_group_name_Hall           'P 1'
loop_
_symmetry_equiv_pos_site_id
_symmetry_equiv_pos_as_xyz
1 x,y,z
_cell_length_a                   27.6108(16)
_cell_length_b                   20.8482(6)
_cell_length_c                   27.5192(17)
_cell_angle_alpha                90
_cell_angle_beta                 114.497(7)
_cell_angle_gamma                90
_cell_volume                     14415.1
loop_
_atom_site_label
_atom_site_type_symbol
_atom_site_fract_x
_atom_site_fract_y
_atom_site_fract_z
C27 C 0.42395(18) 0.04034(19) 0.39880(17)
H19 H 0.3209 0.0199 0.3481
O5 O 0.47433(12) 0.03488(12) 0.42210(11)
O6 O 0.40339(11) 0.08957(12) 0.37057(12)
In4 In 0.48690(2) 0.12624(2) 0.38737(2)
C1 C 0.45945(19) 0.3833(2) 0.78240(18)
C2 C 0.45506(13) 0.39117(13) 0.72795(8)
C3 C 0.47450(13) 0.44668(12) 0.71442(10)
H1 H 0.4890 0.4791 0.7396
C4 C 0.47230(14) 0.45378(11) 0.66332(12)
H2 H 0.4853 0.4909 0.6543
C5 C 0.45066(15) 0.40537(13) 0.62576(9)
C6 C 0.43122(14) 0.34986(11) 0.63929(10)
H3 H 0.4167 0.3175 0.6142
C7 C 0.43342(13) 0.34276(11) 0.69039(11)
H4 H 0.4204 0.3056 0.6994
C8 C 0.47604(17) 0.21873(17) 0.44548(18)
C9 C 0.45453(14) 0.36686(10) 0.54217(10)
C10 C 0.42830(13) 0.37023(11) 0.48686(10)
H5 H 0.4060 0.4047 0.4708
C11 C 0.43539(12) 0.32207(12) 0.45549(8)
H6 H 0.4178 0.3243 0.4185
C12 C 0.46871(12) 0.27053(10) 0.47943(9)
C13 C 0.49494(11) 0.26716(11) 0.53474(10)
H7 H 0.5172 0.2327 0.5508
C14 C 0.48785(13) 0.31533(12) 0.56611(7)
H8 H 0.5054 0.3131 0.6031
C15 C 0.42666(14) 0.47633(11) 0.55055(13)
C16 C 0.45641(12) 0.51593(14) 0.53270(13)
H9 H 0.4897 0.5027 0.5356
C17 C 0.43646(13) 0.57536(12) 0.51053(14)
H10 H 0.4564 0.6019 0.4986
C18 C 0.38677(13) 0.59519(10) 0.50620(13)
C19 C 0.35702(11) 0.55558(13) 0.52405(14)
H11 H 0.3238 0.5688 0.5212
C20 C 0.37697(14) 0.49615(12) 0.54623(14)
H12 H 0.3571 0.4697 0.5582
C21 C 0.36552(13) 0.65999(10) 0.48385(12)
C22 C 0.33650(13) 0.69484(12) 0.50572(11)
H13 H 0.3319 0.6789 0.5351
C23 C 0.31435(13) 0.75355(12) 0.48371(13)
H14 H 0.2949 0.7769 0.4983
C24 C 0.32121(13) 0.77742(11) 0.43982(13)
C25 C 0.35023(14) 0.74258(13) 0.41795(12)
H15 H 0.3548 0.7586 0.3886
C26 C 0.37239(13) 0.68387(12) 0.43996(13)
H16 H 0.3918 0.6606 0.4253
C28 C 0.32801(10) 0.88786(11) 0.41322(12)
C29 C 0.38223(10) 0.88902(10) 0.44577(10)
H17 H 0.3976 0.8562 0.4703
C30 C 0.41347(8) 0.93924(12) 0.44174(10)
H18 H 0.4498 0.9400 0.4635
C31 C 0.39050(10) 0.98829(10) 0.40515(11)
C32 C 0.33628(10) 0.98712(11) 0.37260(11)
C33 C 0.30504(8) 0.93691(13) 0.37663(11)
H20 H 0.2688 0.9361 0.3548
C34 C 0.08571(18) 0.86068(19) 0.40083(17)
C35 C 0.24326(9) 0.84552(13) 0.41008(13)
C36 C 0.22794(10) 0.90020(11) 0.42901(12)
H21 H 0.2522 0.9333 0.4441
C37 C 0.17638(11) 0.90545(10) 0.42544(12)
H22 H 0.1661 0.9420 0.4381
C38 C 0.14015(9) 0.85603(12) 0.40295(12)
C39 C 0.15547(10) 0.80135(11) 0.38403(12)
H23 H 0.1312 0.7683 0.3690
C40 C 0.20702(12) 0.79610(10) 0.38760(13)
H24 H 0.2173 0.7595 0.3749
In1 In 0.48690(2) 0.37376(2) 0.88737(2)
N1 N 0.4470(2) 0.41530(17) 0.57365(17)
N2 N 0.29618(16) 0.83628(16) 0.41638(18)
O1 O 0.45344(12) 0.22342(12) 0.39528(11)
O2 O 0.50422(12) 0.17043(12) 0.46778(11)
O3 O 0.48203(13) 0.42732(14) 0.81671(12)
O4 O 0.44425(14) 0.33274(15) 0.79679(12)
O7 O 0.07216(11) 0.90917(13) 0.41952(12)
O8 O 0.05210(12) 0.81602(12) 0.37901(12)
O9 O 0.45344(12) 0.27658(12) 0.89528(11)
O10 O 0.50422(12) 0.32957(12) 0.96778(11)
O11 O 0.47433(12) 0.46512(12) 0.92210(11)
O12 O 0.40339(11) 0.41043(12) 0.87057(12)
O13 O 0.57216(11) 0.40917(13) 0.91952(12)
O14 O 0.55210(12) 0.31602(12) 0.87901(12)
In2 In 0.98690(2) 0.87376(2) 0.38737(2)
H7_2 H 0.0172 0.7327 0.0508
H8_2 H 0.0054 0.8131 0.1031
O10_2 O 0.00422(12) 0.82957(12) 0.46778(11)
O2_2 O 0.00422(12) 0.67043(12) 0.96778(11)
H10_2 H 0.9564 0.1019 0.9986
C21_2 C 0.86552(13) 0.15999(10) 0.98385(12)
C23_2 C 0.81435(13) 0.25355(12) 0.98371(13)
H14_2 H 0.7949 0.2769 0.9983
C24_2 C 0.82121(13) 0.27742(11) 0.93982(13)
C25_2 C 0.85023(14) 0.24258(13) 0.91795(12)
H15_2 H 0.8548 0.2586 0.8886
C26_2 C 0.87239(13) 0.18387(12) 0.93996(13)
H16_2 H 0.8918 0.1606 0.9253
C27_2 C 0.92395(18) 0.54034(19) 0.89880(17)
C28_2 C 0.82801(10) 0.38786(11) 0.91322(12)
C29_2 C 0.88223(10) 0.38902(10) 0.94577(10)
H17_2 H 0.8976 0.3562 0.9703
C30_2 C 0.91347(8) 0.43924(12) 0.94174(10)
H18_2 H 0.9498 0.4400 0.9635
C31_2 C 0.89050(10) 0.48829(10) 0.90515(11)
C32_2 C 0.83628(10) 0.48712(11) 0.87260(11)
H19_2 H 0.8209 0.5199 0.8481
C33_2 C 0.80504(8) 0.43691(13) 0.87663(11)
H20_2 H 0.7688 0.4361 0.8548
C34_2 C 0.58571(18) 0.36068(19) 0.90083(17)
C35_2 C 0.74326(9) 0.34552(13) 0.91008(13)
C36_2 C 0.72794(10) 0.40020(11) 0.92901(12)
H21_2 H 0.7522 0.4333 0.9441
C37_2 C 0.67638(11) 0.40545(10) 0.92544(12)
H22_2 H 0.6661 0.4420 0.9381
C38_2 C 0.64015(9) 0.35603(12) 0.90295(12)
C39_2 C 0.65547(10) 0.30135(11) 0.88403(12)
H23_2 H 0.6312 0.2683 0.8690
C40_2 C 0.70702(12) 0.29610(10) 0.88760(13)
H24_2 H 0.7173 0.2595 0.8749
N2_2 N 0.79618(16) 0.33628(16) 0.91638(18)
O5_2 O 0.97433(12) 0.53488(12) 0.92210(11)
O6_2 O 0.90339(11) 0.58957(12) 0.87057(12)
In4_2 In 0.98690(2) 0.62624(2) 0.88737(2)
C1_2 C 0.95945(19) 0.8833(2) 0.28240(18)
C2_2 C 0.95506(13) 0.89117(13) 0.22795(8)
C3_2 C 0.97450(13) 0.94668(12) 0.21442(10)
H1_2 H 0.9890 0.9791 0.2396
C4_2 C 0.97230(14) 0.95378(11) 0.16332(12)
H2_2 H 0.9853 0.9909 0.1543
C5_2 C 0.95066(15) 0.90537(13) 0.12576(9)
C6_2 C 0.93122(14) 0.84986(11) 0.13929(10)
H3_2 H 0.9167 0.8175 0.1142
C7_2 C 0.93342(13) 0.84276(11) 0.19039(11)
H4_2 H 0.9204 0.8056 0.1994
C9_2 C 0.95453(14) 0.86686(10) 0.04217(10)
C13_2 C 0.99494(11) 0.76716(11) 0.03474(10)
C14_2 C 0.98785(13) 0.81533(12) 0.06611(7)
C15_2 C 0.92666(14) 0.97633(11) 0.05055(13)
C20_2 C 0.87697(14) 0.99615(12) 0.04623(14)
H12_2 H 0.8571 0.9697 0.0582
N1_2 N 0.9470(2) 0.91530(17) 0.07365(17)
O3_2 O 0.98203(13) 0.92732(14) 0.31671(12)
O4_2 O 0.94425(14) 0.83274(15) 0.29679(12)
O9_2 O 0.95344(12) 0.77658(12) 0.39528(11)
O11_2 O 0.97433(12) 0.96512(12) 0.42210(11)
O12_2 O 0.90339(11) 0.91043(12) 0.37057(12)
C8_2 C 0.97604(17) 0.71873(17) 0.94548(18)
C10_2 C 0.92830(13) 0.87023(11) 0.98686(10)
H5_2 H 0.9060 0.9047 0.9708
C11_2 C 0.93539(12) 0.82207(12) 0.95549(8)
H6_2 H 0.9178 0.8243 0.9185
C12_2 C 0.96871(12) 0.77053(10) 0.97943(9)
O1_2 O 0.95344(12) 0.72342(12) 0.89528(11)
H7_3 H 0.0172 0.7673 0.5508
H8_3 H 0.0054 0.6869 0.6031
O13_2 O 0.07216(11) 0.59083(13) 0.91952(12)
O14_2 O 0.05210(12) 0.68398(12) 0.87901(12)
C1_3 C 0.95945(19) 0.6167(2) 0.78240(18)
C2_3 C 0.95506(13) 0.60883(13) 0.72795(8)
C3_3 C 0.97450(13) 0.55332(12) 0.71442(10)
H1_3 H 0.9890 0.5209 0.7396
C4_3 C 0.97230(14) 0.54622(11) 0.66332(12)
H2_3 H 0.9853 0.5091 0.6543
C5_3 C 0.95066(15) 0.59463(13) 0.62576(9)
C6_3 C 0.93122(14) 0.65014(11) 0.63929(10)
H3_3 H 0.9167 0.6825 0.6142
C7_3 C 0.93342(13) 0.65724(11) 0.69039(11)
H4_3 H 0.9204 0.6944 0.6994
C8_3 C 0.97604(17) 0.78127(17) 0.44548(18)
C9_3 C 0.95453(14) 0.63314(10) 0.54217(10)
C10_3 C 0.92830(13) 0.62977(11) 0.48686(10)
H5_3 H 0.9060 0.5953 0.4708
C11_3 C 0.93539(12) 0.67793(12) 0.45549(8)
H6_3 H 0.9178 0.6757 0.4185
C12_3 C 0.96871(12) 0.72947(10) 0.47943(9)
C13_3 C 0.99494(11) 0.73284(11) 0.53474(10)
C14_3 C 0.98785(13) 0.68467(12) 0.56611(7)
C15_3 C 0.92666(14) 0.52367(11) 0.55055(13)
C16_2 C 0.95641(12) 0.48407(14) 0.53270(13)
H9_2 H 0.9897 0.4973 0.5356
C17_2 C 0.93646(13) 0.42464(12) 0.51053(14)
H10_3 H 0.9564 0.3981 0.4986
C18_2 C 0.88677(13) 0.40481(10) 0.50620(13)
C19_2 C 0.85702(11) 0.44442(13) 0.52405(14)
H11_2 H 0.8238 0.4312 0.5212
C20_3 C 0.87697(14) 0.50385(12) 0.54623(14)
H12_3 H 0.8571 0.5303 0.5582
C21_3 C 0.86552(13) 0.34001(10) 0.48385(12)
C22_2 C 0.83650(13) 0.30516(12) 0.50572(11)
H13_2 H 0.8319 0.3211 0.5351
C23_3 C 0.81435(13) 0.24645(12) 0.48371(13)
H14_3 H 0.7949 0.2231 0.4983
C24_3 C 0.82121(13) 0.22258(11) 0.43982(13)
C25_3 C 0.85023(14) 0.25742(13) 0.41795(12)
H15_3 H 0.8548 0.2414 0.3886
C26_3 C 0.87239(13) 0.31613(12) 0.43996(13)
H16_3 H 0.8918 0.3394 0.4253
C28_3 C 0.82801(10) 0.11214(11) 0.41322(12)
C29_3 C 0.88223(10) 0.11098(10) 0.44577(10)
H17_3 H 0.8976 0.1438 0.4703
C30_3 C 0.91347(8) 0.06076(12) 0.44174(10)
H18_3 H 0.9498 0.0600 0.4635
C31_3 C 0.89050(10) 0.01171(10) 0.40515(11)
C32_3 C 0.83628(10) 0.01288(11) 0.37260(11)
C33_3 C 0.80504(8) 0.06309(13) 0.37663(11)
H20_3 H 0.7688 0.0639 0.3548
C34_3 C 0.58571(18) 0.13932(19) 0.40083(17)
C35_3 C 0.74326(9) 0.15448(13) 0.41008(13)
C36_3 C 0.72794(10) 0.09980(11) 0.42901(12)
H21_3 H 0.7522 0.0667 0.4441
C37_3 C 0.67638(11) 0.09455(10) 0.42544(12)
H22_3 H 0.6661 0.0580 0.4381
C38_3 C 0.64015(9) 0.14397(12) 0.40295(12)
C39_3 C 0.65547(10) 0.19865(11) 0.38403(12)
H23_3 H 0.6312 0.2317 0.3690
C40_3 C 0.70702(12) 0.20390(10) 0.38760(13)
H24_3 H 0.7173 0.2405 0.3749
N1_3 N 0.9470(2) 0.58470(17) 0.57365(17)
N2_3 N 0.79618(16) 0.16372(16) 0.41638(18)
O3_3 O 0.98203(13) 0.57268(14) 0.81671(12)
O4_3 O 0.94425(14) 0.66726(15) 0.79679(12)
O7_2 O 0.57216(11) 0.09083(13) 0.41952(12)
O8_2 O 0.55210(12) 0.18398(12) 0.37901(12)
C27_3 C 0.92395(18) 0.95966(19) 0.39880(17)
H19_3 H 0.8209 0.9801 0.3481
C1_4 C 0.45945(19) 0.1167(2) 0.28240(18)
C2_4 C 0.45506(13) 0.10883(13) 0.22795(8)
C3_4 C 0.47450(13) 0.05332(12) 0.21442(10)
H1_4 H 0.4890 0.0209 0.2396
C4_4 C 0.47230(14) 0.04622(11) 0.16332(12)
H2_4 H 0.4853 0.0091 0.1543
C5_4 C 0.45066(15) 0.09463(13) 0.12576(9)
C6_4 C 0.43122(14) 0.15014(11) 0.13929(10)
H3_4 H 0.4167 0.1825 0.1142
C7_4 C 0.43342(13) 0.15724(11) 0.19039(11)
H4_4 H 0.4204 0.1944 0.1994
C9_4 C 0.45453(14) 0.13314(10) 0.04217(10)
C13_4 C 0.49494(11) 0.23284(11) 0.03474(10)
H7_4 H 0.5172 0.2673 0.0508
C14_4 C 0.48785(13) 0.18467(12) 0.06611(7)
H8_4 H 0.5054 0.1869 0.1031
C15_4 C 0.42666(14) 0.02367(11) 0.05055(13)
C20_4 C 0.37697(14) 0.00385(12) 0.04623(14)
H12_4 H 0.3571 0.0303 0.0582
N1_4 N 0.4470(2) 0.08470(17) 0.07365(17)
O3_4 O 0.48203(13) 0.07268(14) 0.31671(12)
O4_4 O 0.44425(14) 0.16726(15) 0.29679(12)
C8_4 C 0.47604(17) 0.28127(17) 0.94548(18)
C10_4 C 0.42830(13) 0.12977(11) 0.98686(10)
H5_4 H 0.4060 0.0953 0.9708
C11_4 C 0.43539(12) 0.17793(12) 0.95549(8)
H6_4 H 0.4178 0.1757 0.9185
C12_4 C 0.46871(12) 0.22947(10) 0.97943(9)
H10_4 H 0.4564 0.8981 0.9986
C21_4 C 0.36552(13) 0.84001(10) 0.98385(12)
C23_4 C 0.31435(13) 0.74645(12) 0.98371(13)
H14_4 H 0.2949 0.7231 0.9983
C24_4 C 0.32121(13) 0.72258(11) 0.93982(13)
C25_4 C 0.35023(14) 0.75742(13) 0.91795(12)
H15_4 H 0.3548 0.7414 0.8886
C26_4 C 0.37239(13) 0.81613(12) 0.93996(13)
H16_4 H 0.3918 0.8394 0.9253
C27_4 C 0.42395(18) 0.45966(19) 0.89880(17)
C28_4 C 0.32801(10) 0.61214(11) 0.91322(12)
C29_4 C 0.38223(10) 0.61098(10) 0.94577(10)
H17_4 H 0.3976 0.6438 0.9703
C30_4 C 0.41347(8) 0.56076(12) 0.94174(10)
H18_4 H 0.4498 0.5600 0.9635
C31_4 C 0.39050(10) 0.51171(10) 0.90515(11)
C32_4 C 0.33628(10) 0.51288(11) 0.87260(11)
H19_4 H 0.3209 0.4801 0.8481
C33_4 C 0.30504(8) 0.56309(13) 0.87663(11)
H20_4 H 0.2688 0.5639 0.8548
C34_4 C 0.08571(18) 0.63932(19) 0.90083(17)
C35_4 C 0.24326(9) 0.65448(13) 0.91008(13)
C36_4 C 0.22794(10) 0.59980(11) 0.92901(12)
H21_4 H 0.2522 0.5667 0.9441
C37_4 C 0.17638(11) 0.59455(10) 0.92544(12)
H22_4 H 0.1661 0.5580 0.9381
C38_4 C 0.14015(9) 0.64397(12) 0.90295(12)
C39_4 C 0.15547(10) 0.69865(11) 0.88403(12)
H23_4 H 0.1312 0.7317 0.8690
C40_4 C 0.20702(12) 0.70390(10) 0.88760(13)
H24_4 H 0.2173 0.7405 0.8749
N2_4 N 0.29618(16) 0.66372(16) 0.91638(18)
C27_5 C 0.07605(18) 0.04034(19) 0.60120(17)
H19_5 H 0.1791 0.0199 0.6519
O5_3 O 0.02567(12) 0.03488(12) 0.57790(11)
O6_3 O 0.09661(11) 0.08957(12) 0.62943(12)
In4_3 In 0.01310(2) 0.12624(2) 0.61263(2)
C1_5 C 0.04055(19) 0.3833(2) 0.21760(18)
C2_5 C 0.04494(13) 0.39117(13) 0.27205(8)
C3_5 C 0.02550(13) 0.44668(12) 0.28558(10)
H1_5 H 0.0110 0.4791 0.2604
C4_5 C 0.02770(14) 0.45378(11) 0.33668(12)
H2_5 H 0.0147 0.4909 0.3457
C5_5 C 0.04934(15) 0.40537(13) 0.37424(9)
C6_5 C 0.06878(14) 0.34986(11) 0.36071(10)
H3_5 H 0.0833 0.3175 0.3858
C7_5 C 0.06658(13) 0.34276(11) 0.30961(11)
H4_5 H 0.0796 0.3056 0.3006
C8_5 C 0.02396(17) 0.21873(17) 0.55452(18)
C9_5 C 0.04547(14) 0.36686(10) 0.45783(10)
C10_5 C 0.07170(13) 0.37023(11) 0.51314(10)
H5_5 H 0.0940 0.4047 0.5292
C11_5 C 0.06461(12) 0.32207(12) 0.54451(8)
H6_5 H 0.0822 0.3243 0.5815
C12_5 C 0.03129(12) 0.27053(10) 0.52057(9)
C13_5 C 0.00506(11) 0.26716(11) 0.46526(10)
C14_5 C 0.01215(13) 0.31533(12) 0.43389(7)
C15_5 C 0.07334(14) 0.47633(11) 0.44945(13)
C16_3 C 0.04359(12) 0.51593(14) 0.46730(13)
H9_3 H 0.0103 0.5027 0.4644
C17_3 C 0.06354(13) 0.57536(12) 0.48947(14)
H10_5 H 0.0436 0.6019 0.5014
C18_3 C 0.11323(13) 0.59519(10) 0.49380(13)
C19_3 C 0.14298(11) 0.55558(13) 0.47595(14)
H11_3 H 0.1762 0.5688 0.4788
C20_5 C 0.12303(14) 0.49615(12) 0.45377(14)
H12_5 H 0.1429 0.4697 0.4418
C21_5 C 0.13448(13) 0.65999(10) 0.51615(12)
C22_3 C 0.16350(13) 0.69484(12) 0.49428(11)
H13_3 H 0.1681 0.6789 0.4649
C23_5 C 0.18565(13) 0.75355(12) 0.51629(13)
H14_5 H 0.2051 0.7769 0.5017
C24_5 C 0.17879(13) 0.77742(11) 0.56018(13)
C25_5 C 0.14977(14) 0.74258(13) 0.58205(12)
H15_5 H 0.1452 0.7586 0.6114
C26_5 C 0.12761(13) 0.68387(12) 0.56004(13)
H16_5 H 0.1082 0.6606 0.5747
C28_5 C 0.17199(10) 0.88786(11) 0.58678(12)
C29_5 C 0.11777(10) 0.88902(10) 0.55423(10)
H17_5 H 0.1024 0.8562 0.5297
C30_5 C 0.08653(8) 0.93924(12) 0.55826(10)
H18_5 H 0.0502 0.9400 0.5365
C31_5 C 0.10950(10) 0.98829(10) 0.59485(11)
C32_5 C 0.16372(10) 0.98712(11) 0.62740(11)
C33_5 C 0.19496(8) 0.93691(13) 0.62337(11)
H20_5 H 0.2312 0.9361 0.6452
C34_5 C 0.41429(18) 0.86068(19) 0.59917(17)
C35_5 C 0.25674(9) 0.84552(13) 0.58992(13)
C36_5 C 0.27206(10) 0.90020(11) 0.57099(12)
H21_5 H 0.2478 0.9333 0.5559
C37_5 C 0.32362(11) 0.90545(10) 0.57456(12)
H22_5 H 0.3339 0.9420 0.5619
C38_5 C 0.35985(9) 0.85603(12) 0.59705(12)
C39_5 C 0.34453(10) 0.80135(11) 0.61597(12)
H23_5 H 0.3688 0.7683 0.6310
C40_5 C 0.29298(12) 0.79610(10) 0.61240(13)
H24_5 H 0.2827 0.7595 0.6251
In1_2 In 0.01310(2) 0.37376(2) 0.11263(2)
N1_5 N 0.0530(2) 0.41530(17) 0.42635(17)
N2_5 N 0.20382(16) 0.83628(16) 0.58362(18)
O1_3 O 0.04656(12) 0.22342(12) 0.60472(11)
O3_5 O 0.01797(13) 0.42732(14) 0.18329(12)
O4_5 O 0.05575(14) 0.33274(15) 0.20321(12)
O7_3 O 0.42784(11) 0.90917(13) 0.58048(12)
O8_3 O 0.44790(12) 0.81602(12) 0.62099(12)
In2_2 In 0.51310(2) 0.87376(2) 0.61263(2)
O9_3 O 0.04656(12) 0.27658(12) 0.10472(11)
O11_3 O 0.02567(12) 0.46512(12) 0.07790(11)
O12_3 O 0.09661(11) 0.41043(12) 0.12943(12)
H7_5 H 0.9828 0.2327 0.4492
H8_5 H 0.9946 0.3131 0.3969
O2_3 O 0.99578(12) 0.17043(12) 0.53222(11)
O10_3 O 0.99578(12) 0.32957(12) 0.03222(11)
O13_3 O 0.92784(11) 0.40917(13) 0.08048(12)
O14_3 O 0.94790(12) 0.31602(12) 0.12099(12)
H10_6 H 0.5436 0.1019 0.0014
C21_6 C 0.63448(13) 0.15999(10) 0.01615(12)
C23_6 C 0.68565(13) 0.25355(12) 0.01629(13)
H14_6 H 0.7051 0.2769 0.0017
C24_6 C 0.67879(13) 0.27742(11) 0.06018(13)
C25_6 C 0.64977(14) 0.24258(13) 0.08205(12)
H15_6 H 0.6452 0.2586 0.1114
C26_6 C 0.62761(13) 0.18387(12) 0.06004(13)
H16_6 H 0.6082 0.1606 0.0747
C27_6 C 0.57605(18) 0.54034(19) 0.10120(17)
C28_6 C 0.67199(10) 0.38786(11) 0.08678(12)
C29_6 C 0.61777(10) 0.38902(10) 0.05423(10)
H17_6 H 0.6024 0.3562 0.0297
C30_6 C 0.58653(8) 0.43924(12) 0.05826(10)
H18_6 H 0.5502 0.4400 0.0365
C31_6 C 0.60950(10) 0.48829(10) 0.09485(11)
C32_6 C 0.66372(10) 0.48712(11) 0.12740(11)
H19_6 H 0.6791 0.5199 0.1519
C33_6 C 0.69496(8) 0.43691(13) 0.12337(11)
H20_6 H 0.7312 0.4361 0.1452
C34_6 C 0.91429(18) 0.36068(19) 0.09917(17)
C35_6 C 0.75674(9) 0.34552(13) 0.08992(13)
C36_6 C 0.77206(10) 0.40020(11) 0.07099(12)
H21_6 H 0.7478 0.4333 0.0559
C37_6 C 0.82362(11) 0.40545(10) 0.07456(12)
H22_6 H 0.8339 0.4420 0.0619
C38_6 C 0.85985(9) 0.35603(12) 0.09705(12)
C39_6 C 0.84453(10) 0.30135(11) 0.11597(12)
H23_6 H 0.8688 0.2683 0.1310
C40_6 C 0.79298(12) 0.29610(10) 0.11240(13)
H24_6 H 0.7827 0.2595 0.1251
N2_6 N 0.70382(16) 0.33628(16) 0.08362(18)
O5_4 O 0.52567(12) 0.53488(12) 0.07790(11)
O6_4 O 0.59661(11) 0.58957(12) 0.12943(12)
In4_4 In 0.51310(2) 0.62624(2) 0.11263(2)
C8_6 C 0.52396(17) 0.71873(17) 0.05452(18)
C10_6 C 0.57170(13) 0.87023(11) 0.01314(10)
H5_6 H 0.5940 0.9047 0.0292
C11_6 C 0.56461(12) 0.82207(12) 0.04451(8)
H6_6 H 0.5822 0.8243 0.0815
C12_6 C 0.53129(12) 0.77053(10) 0.02057(9)
O1_4 O 0.54656(12) 0.72342(12) 0.10472(11)
O2_4 O 0.49578(12) 0.67043(12) 0.03222(11)
C1_6 C 0.54055(19) 0.8833(2) 0.71760(18)
C2_6 C 0.54494(13) 0.89117(13) 0.77205(8)
C3_6 C 0.52550(13) 0.94668(12) 0.78558(10)
H1_6 H 0.5110 0.9791 0.7604
C4_6 C 0.52770(14) 0.95378(11) 0.83668(12)
H2_6 H 0.5147 0.9909 0.8457
C5_6 C 0.54934(15) 0.90537(13) 0.87424(9)
C6_6 C 0.56878(14) 0.84986(11) 0.86071(10)
H3_6 H 0.5833 0.8175 0.8858
C7_6 C 0.56658(13) 0.84276(11) 0.80961(11)
H4_6 H 0.5796 0.8056 0.8006
C9_6 C 0.54547(14) 0.86686(10) 0.95783(10)
C13_6 C 0.50506(11) 0.76716(11) 0.96526(10)
H7_6 H 0.4828 0.7327 0.9492
C14_6 C 0.51215(13) 0.81533(12) 0.93389(7)
H8_6 H 0.4946 0.8131 0.8969
C15_6 C 0.57334(14) 0.97633(11) 0.94945(13)
C20_6 C 0.62303(14) 0.99615(12) 0.95377(14)
H12_6 H 0.6429 0.9697 0.9418
N1_6 N 0.5530(2) 0.91530(17) 0.92635(17)
O3_6 O 0.51797(13) 0.92732(14) 0.68329(12)
O4_6 O 0.55575(14) 0.83274(15) 0.70321(12)
O9_4 O 0.54656(12) 0.77658(12) 0.60472(11)
O10_4 O 0.49578(12) 0.82957(12) 0.53222(11)
O11_4 O 0.52567(12) 0.96512(12) 0.57790(11)
O12_4 O 0.59661(11) 0.91043(12) 0.62943(12)
C1_7 C 0.54055(19) 0.6167(2) 0.21760(18)
C2_7 C 0.54494(13) 0.60883(13) 0.27205(8)
C3_7 C 0.52550(13) 0.55332(12) 0.28558(10)
H1_7 H 0.5110 0.5209 0.2604
C4_7 C 0.52770(14) 0.54622(11) 0.33668(12)
H2_7 H 0.5147 0.5091 0.3457
C5_7 C 0.54934(15) 0.59463(13) 0.37424(9)
C6_7 C 0.56878(14) 0.65014(11) 0.36071(10)
H3_7 H 0.5833 0.6825 0.3858
C7_7 C 0.56658(13) 0.65724(11) 0.30961(11)
H4_7 H 0.5796 0.6944 0.3006
C8_7 C 0.52396(17) 0.78127(17) 0.55452(18)
C9_7 C 0.54547(14) 0.63314(10) 0.45783(10)
C10_7 C 0.57170(13) 0.62977(11) 0.51314(10)
H5_7 H 0.5940 0.5953 0.5292
C11_7 C 0.56461(12) 0.67793(12) 0.54451(8)
H6_7 H 0.5822 0.6757 0.5815
C12_7 C 0.53129(12) 0.72947(10) 0.52057(9)
C13_7 C 0.50506(11) 0.73284(11) 0.46526(10)
H7_7 H 0.4828 0.7673 0.4492
C14_7 C 0.51215(13) 0.68467(12) 0.43389(7)
H8_7 H 0.4946 0.6869 0.3969
C15_7 C 0.57334(14) 0.52367(11) 0.44945(13)
C16_4 C 0.54359(12) 0.48407(14) 0.46730(13)
H9_4 H 0.5103 0.4973 0.4644
C17_4 C 0.56354(13) 0.42464(12) 0.48947(14)
H10_7 H 0.5436 0.3981 0.5014
C18_4 C 0.61323(13) 0.40481(10) 0.49380(13)
C19_4 C 0.64298(11) 0.44442(13) 0.47595(14)
H11_4 H 0.6762 0.4312 0.4788
C20_7 C 0.62303(14) 0.50385(12) 0.45377(14)
H12_7 H 0.6429 0.5303 0.4418
C21_7 C 0.63448(13) 0.34001(10) 0.51615(12)
C22_4 C 0.66350(13) 0.30516(12) 0.49428(11)
H13_4 H 0.6681 0.3211 0.4649
C23_7 C 0.68565(13) 0.24645(12) 0.51629(13)
H14_7 H 0.7051 0.2231 0.5017
C24_7 C 0.67879(13) 0.22258(11) 0.56018(13)
C25_7 C 0.64977(14) 0.25742(13) 0.58205(12)
H15_7 H 0.6452 0.2414 0.6114
C26_7 C 0.62761(13) 0.31613(12) 0.56004(13)
H16_7 H 0.6082 0.3394 0.5747
C28_7 C 0.67199(10) 0.11214(11) 0.58678(12)
C29_7 C 0.61777(10) 0.11098(10) 0.55423(10)
H17_7 H 0.6024 0.1438 0.5297
C30_7 C 0.58653(8) 0.06076(12) 0.55826(10)
H18_7 H 0.5502 0.0600 0.5365
C31_7 C 0.60950(10) 0.01171(10) 0.59485(11)
C32_7 C 0.66372(10) 0.01288(11) 0.62740(11)
C33_7 C 0.69496(8) 0.06309(13) 0.62337(11)
H20_7 H 0.7312 0.0639 0.6452
C34_7 C 0.91429(18) 0.13932(19) 0.59917(17)
C35_7 C 0.75674(9) 0.15448(13) 0.58992(13)
C36_7 C 0.77206(10) 0.09980(11) 0.57099(12)
H21_7 H 0.7478 0.0667 0.5559
C37_7 C 0.82362(11) 0.09455(10) 0.57456(12)
H22_7 H 0.8339 0.0580 0.5619
C38_7 C 0.85985(9) 0.14397(12) 0.59705(12)
C39_7 C 0.84453(10) 0.19865(11) 0.61597(12)
H23_7 H 0.8688 0.2317 0.6310
C40_7 C 0.79298(12) 0.20390(10) 0.61240(13)
H24_7 H 0.7827 0.2405 0.6251
N1_7 N 0.5530(2) 0.58470(17) 0.42635(17)
N2_7 N 0.70382(16) 0.16372(16) 0.58362(18)
O3_7 O 0.51797(13) 0.57268(14) 0.18329(12)
O4_7 O 0.55575(14) 0.66726(15) 0.20321(12)
O7_4 O 0.92784(11) 0.09083(13) 0.58048(12)
O8_4 O 0.94790(12) 0.18398(12) 0.62099(12)
O13_4 O 0.42784(11) 0.59083(13) 0.08048(12)
O14_4 O 0.44790(12) 0.68398(12) 0.12099(12)
C27_7 C 0.57605(18) 0.95966(19) 0.60120(17)
H19_7 H 0.6791 0.9801 0.6519
C8_8 C 0.02396(17) 0.28127(17) 0.05452(18)
C10_8 C 0.07170(13) 0.12977(11) 0.01314(10)
H5_8 H 0.0940 0.0953 0.0292
C11_8 C 0.06461(12) 0.17793(12) 0.04451(8)
H6_8 H 0.0822 0.1757 0.0815
C12_8 C 0.03129(12) 0.22947(10) 0.02057(9)
C1_8 C 0.04055(19) 0.1167(2) 0.71760(18)
C2_8 C 0.04494(13) 0.10883(13) 0.77205(8)
C3_8 C 0.02550(13) 0.05332(12) 0.78558(10)
H1_8 H 0.0110 0.0209 0.7604
C4_8 C 0.02770(14) 0.04622(11) 0.83668(12)
H2_8 H 0.0147 0.0091 0.8457
C5_8 C 0.04934(15) 0.09463(13) 0.87424(9)
C6_8 C 0.06878(14) 0.15014(11) 0.86071(10)
H3_8 H 0.0833 0.1825 0.8858
C7_8 C 0.06658(13) 0.15724(11) 0.80961(11)
H4_8 H 0.0796 0.1944 0.8006
C9_8 C 0.04547(14) 0.13314(10) 0.95783(10)
C13_8 C 0.00506(11) 0.23284(11) 0.96526(10)
C14_8 C 0.01215(13) 0.18467(12) 0.93389(7)
C15_8 C 0.07334(14) 0.02367(11) 0.94945(13)
C20_8 C 0.12303(14) 0.00385(12) 0.95377(14)
H12_8 H 0.1429 0.0303 0.9418
N1_8 N 0.0530(2) 0.08470(17) 0.92635(17)
O3_8 O 0.01797(13) 0.07268(14) 0.68329(12)
O4_8 O 0.05575(14) 0.16726(15) 0.70321(12)
H10_8 H 0.0436 0.8981 0.0014
C21_8 C 0.13448(13) 0.84001(10) 0.01615(12)
C23_8 C 0.18565(13) 0.74645(12) 0.01629(13)
H14_8 H 0.2051 0.7231 0.0017
C24_8 C 0.17879(13) 0.72258(11) 0.06018(13)
C25_8 C 0.14977(14) 0.75742(13) 0.08205(12)
H15_8 H 0.1452 0.7414 0.1114
C26_8 C 0.12761(13) 0.81613(12) 0.06004(13)
H16_8 H 0.1082 0.8394 0.0747
C27_8 C 0.07605(18) 0.45966(19) 0.10120(17)
C28_8 C 0.17199(10) 0.61214(11) 0.08678(12)
C29_8 C 0.11777(10) 0.61098(10) 0.05423(10)
H17_8 H 0.1024 0.6438 0.0297
C30_8 C 0.08653(8) 0.56076(12) 0.05826(10)
H18_8 H 0.0502 0.5600 0.0365
C31_8 C 0.10950(10) 0.51171(10) 0.09485(11)
C32_8 C 0.16372(10) 0.51288(11) 0.12740(11)
H19_8 H 0.1791 0.4801 0.1519
C33_8 C 0.19496(8) 0.56309(13) 0.12337(11)
H20_8 H 0.2312 0.5639 0.1452
C34_8 C 0.41429(18) 0.63932(19) 0.09917(17)
C35_8 C 0.25674(9) 0.65448(13) 0.08992(13)
C36_8 C 0.27206(10) 0.59980(11) 0.07099(12)
H21_8 H 0.2478 0.5667 0.0559
C37_8 C 0.32362(11) 0.59455(10) 0.07456(12)
H22_8 H 0.3339 0.5580 0.0619
C38_8 C 0.35985(9) 0.64397(12) 0.09705(12)
C39_8 C 0.34453(10) 0.69865(11) 0.11597(12)
H23_8 H 0.3688 0.7317 0.1310
C40_8 C 0.29298(12) 0.70390(10) 0.11240(13)
H24_8 H 0.2827 0.7405 0.1251
N2_8 N 0.20382(16) 0.66372(16) 0.08362(18)
H7_8 H 0.9828 0.2673 0.9492
H8_8 H 0.9946 0.1869 0.8969
C16_5 C 0.95641(12) 0.01593(14) 0.03270(13)
H9_5 H 0.9897 0.0027 0.0356
C17_5 C 0.93646(13) 0.07536(12) 0.01053(14)
C18_5 C 0.88677(13) 0.09519(10) 0.00620(13)
C19_5 C 0.85702(11) 0.05558(13) 0.02405(14)
H11_5 H 0.8238 0.0688 0.0212
C22_5 C 0.83650(13) 0.19484(12) 0.00572(11)
H13_5 H 0.8319 0.1789 0.0351
C16_6 C 0.54359(12) 0.01593(14) 0.96730(13)
H9_6 H 0.5103 0.0027 0.9644
C17_6 C 0.56354(13) 0.07536(12) 0.98947(14)
C18_6 C 0.61323(13) 0.09519(10) 0.99380(13)
C19_6 C 0.64298(11) 0.05558(13) 0.97595(14)
H11_6 H 0.6762 0.0688 0.9788
C22_6 C 0.66350(13) 0.19484(12) 0.99428(11)
H13_6 H 0.6681 0.1789 0.9649
C16_7 C 0.04359(12) 0.98407(14) 0.96730(13)
H9_7 H 0.0103 0.9973 0.9644
C17_7 C 0.06354(13) 0.92464(12) 0.98947(14)
C18_7 C 0.11323(13) 0.90481(10) 0.99380(13)
C19_7 C 0.14298(11) 0.94442(13) 0.97595(14)
H11_7 H 0.1762 0.9312 0.9788
C22_7 C 0.16350(13) 0.80516(12) 0.99428(11)
H13_7 H 0.1681 0.8211 0.9649
C16_8 C 0.45641(12) 0.98407(14) 0.03270(13)
H9_8 H 0.4897 0.9973 0.0356
C17_8 C 0.43646(13) 0.92464(12) 0.01053(14)
C18_8 C 0.38677(13) 0.90481(10) 0.00620(13)
C19_8 C 0.35702(11) 0.94442(13) 0.02405(14)
H11_8 H 0.3238 0.9312 0.0212
C22_8 C 0.33650(13) 0.80516(12) 0.00572(11)
H13_8 H 0.3319 0.8211 0.0351
loop_
_geom_bond_atom_site_label_1
_geom_bond_atom_site_label_2
_geom_bond_site_symmetry_1
_geom_bond_site_symmetry_2
O5 C27 1_555 1_555
O6 C27 1_555 1_555
In4 O5 1_555 1_555
O6 In4 1_555 1_555
C1 C2 1_555 1_555
C2 C3 1_555 1_555
C3 H1 1_555 1_555
C4 C3 1_555 1_555
H2 C4 1_555 1_555
C5 C4 1_555 1_555
C6 C5 1_555 1_555
H3 C6 1_555 1_555
C7 C2 1_555 1_555
H4 C7 1_555 1_555
C8 C12 1_555 1_555
C9 C10 1_555 1_555
C10 H5 1_555 1_555
C11 C10 1_555 1_555
H6 C11 1_555 1_555
C12 C11 1_555 1_555
C13 C12 1_555 1_555
H7 C13 1_555 1_555
C14 C9 1_555 1_555
H8 C14 1_555 1_555
C15 C16 1_555 1_555
C16 H9 1_555 1_555
C17 C16 1_555 1_555
H10 C17 1_555 1_555
C18 C17 1_555 1_555
C19 C18 1_555 1_555
H11 C19 1_555 1_555
C20 C15 1_555 1_555
H12 C20 1_555 1_555
C21 C18 1_555 1_555
C22 C21 1_555 1_555
H13 C22 1_555 1_555
C23 C22 1_555 1_555
H14 C23 1_555 1_555
C24 C23 1_555 1_555
C25 C24 1_555 1_555
H15 C25 1_555 1_555
C26 C21 1_555 1_555
H16 C26 1_555 1_555
C28 C29 1_555 1_555
C29 H17 1_555 1_555
C30 C29 1_555 1_555
H18 C30 1_555 1_555
C31 C30 1_555 1_555
C32 C31 1_555 1_555
C33 C28 1_555 1_555
H20 C33 1_555 1_555
C34 C38 1_555 1_555
C35 C36 1_555 1_555
C36 H21 1_555 1_555
C37 C36 1_555 1_555
H22 C37 1_555 1_555
C38 C37 1_555 1_555
C39 C38 1_555 1_555
H23 C39 1_555 1_555
C40 C35 1_555 1_555
H24 C40 1_555 1_555
In1 O3 1_555 1_555
N1 C5 1_555 1_555
N2 C24 1_555 1_555
O1 C8 1_555 1_555
O2 C8 1_555 1_555
O3 C1 1_555 1_555
O4 C1 1_555 1_555
O7 C34 1_555 1_555
O8 C34 1_555 1_555
In4 O1 1_555 1_555
O9 In1 1_555 1_555
O10 In1 1_555 1_555
O11 In1 1_555 1_555
O12 In1 1_555 1_555
O13 In1 1_555 1_555
O14 In1 1_555 1_555
C6 C7 1_555 1_555
C9 N1 1_555 1_555
C13 C14 1_555 1_555
C15 N1 1_555 1_555
C19 C20 1_555 1_555
C25 C26 1_555 1_555
C28 N2 1_555 1_555
C32 C33 1_555 1_555
C35 N2 1_555 1_555
C39 C40 1_555 1_555
In1 O4 1_555 1_555
O2 In4 1_555 1_555
H14_2 C23_2 1_555 1_555
C24_2 C23_2 1_555 1_555
C25_2 C24_2 1_555 1_555
H15_2 C25_2 1_555 1_555
C26_2 C21_2 1_555 1_555
H16_2 C26_2 1_555 1_555
C27_2 C31_2 1_555 1_555
C28_2 C29_2 1_555 1_555
C29_2 H17_2 1_555 1_555
C30_2 C29_2 1_555 1_555
H18_2 C30_2 1_555 1_555
C31_2 C30_2 1_555 1_555
C32_2 C31_2 1_555 1_555
H19_2 C32_2 1_555 1_555
C33_2 C28_2 1_555 1_555
H20_2 C33_2 1_555 1_555
C34_2 C38_2 1_555 1_555
C35_2 C36_2 1_555 1_555
C36_2 H21_2 1_555 1_555
C37_2 C36_2 1_555 1_555
H22_2 C37_2 1_555 1_555
C38_2 C37_2 1_555 1_555
C39_2 C38_2 1_555 1_555
H23_2 C39_2 1_555 1_555
C40_2 C35_2 1_555 1_555
H24_2 C40_2 1_555 1_555
N2_2 C24_2 1_555 1_555
O5_2 C27_2 1_555 1_555
O6_2 C27_2 1_555 1_555
O13 C34_2 1_555 1_555
O14 C34_2 1_555 1_555
In4_2 O5_2 1_555 1_555
C25_2 C26_2 1_555 1_555
C28_2 N2_2 1_555 1_555
C32_2 C33_2 1_555 1_555
C35_2 N2_2 1_555 1_555
C39_2 C40_2 1_555 1_555
O6_2 In4_2 1_555 1_555
C1_2 C2_2 1_555 1_555
C2_2 C3_2 1_555 1_555
C3_2 H1_2 1_555 1_555
C4_2 C3_2 1_555 1_555
H2_2 C4_2 1_555 1_555
C5_2 C4_2 1_555 1_555
C6_2 C5_2 1_555 1_555
H3_2 C6_2 1_555 1_555
C7_2 C2_2 1_555 1_555
H4_2 C7_2 1_555 1_555
C14_2 C9_2 1_555 1_555
C20_2 C15_2 1_555 1_555
H12_2 C20_2 1_555 1_555
In2 O3_2 1_555 1_555
N1_2 C5_2 1_555 1_555
O3_2 C1_2 1_555 1_555
O4_2 C1_2 1_555 1_555
O9_2 In2 1_555 1_555
O11_2 In2 1_555 1_555
O12_2 In2 1_555 1_555
C6_2 C7_2 1_555 1_555
C9_2 N1_2 1_555 1_555
C13_2 C14_2 1_555 1_555
C15_2 N1_2 1_555 1_555
In2 O4_2 1_555 1_555
C8_2 C12_2 1_555 1_555
C10_2 H5_2 1_555 1_555
C11_2 C10_2 1_555 1_555
H6_2 C11_2 1_555 1_555
C12_2 C11_2 1_555 1_555
O1_2 C8_2 1_555 1_555
In4_2 O1_2 1_555 1_555
C1_3 C2_3 1_555 1_555
C2_3 C3_3 1_555 1_555
C3_3 H1_3 1_555 1_555
C4_3 C3_3 1_555 1_555
H2_3 C4_3 1_555 1_555
C5_3 C4_3 1_555 1_555
C6_3 C5_3 1_555 1_555
H3_3 C6_3 1_555 1_555
C7_3 C2_3 1_555 1_555
H4_3 C7_3 1_555 1_555
C8_3 C12_3 1_555 1_555
C9_3 C10_3 1_555 1_555
C10_3 H5_3 1_555 1_555
C11_3 C10_3 1_555 1_555
H6_3 C11_3 1_555 1_555
C12_3 C11_3 1_555 1_555
C13_3 C12_3 1_555 1_555
C14_3 C9_3 1_555 1_555
C15_3 C16_2 1_555 1_555
C16_2 H9_2 1_555 1_555
C17_2 C16_2 1_555 1_555
H10_3 C17_2 1_555 1_555
C18_2 C17_2 1_555 1_555
C19_2 C18_2 1_555 1_555
H11_2 C19_2 1_555 1_555
C20_3 C15_3 1_555 1_555
H12_3 C20_3 1_555 1_555
C21_3 C18_2 1_555 1_555
C22_2 C21_3 1_555 1_555
H13_2 C22_2 1_555 1_555
C23_3 C22_2 1_555 1_555
H14_3 C23_3 1_555 1_555
C24_3 C23_3 1_555 1_555
C25_3 C24_3 1_555 1_555
H15_3 C25_3 1_555 1_555
C26_3 C21_3 1_555 1_555
H16_3 C26_3 1_555 1_555
C28_3 C29_3 1_555 1_555
C29_3 H17_3 1_555 1_555
C30_3 C29_3 1_555 1_555
H18_3 C30_3 1_555 1_555
C31_3 C30_3 1_555 1_555
C32_3 C31_3 1_555 1_555
C33_3 C28_3 1_555 1_555
H20_3 C33_3 1_555 1_555
C34_3 C38_3 1_555 1_555
C35_3 C36_3 1_555 1_555
C36_3 H21_3 1_555 1_555
C37_3 C36_3 1_555 1_555
H22_3 C37_3 1_555 1_555
C38_3 C37_3 1_555 1_555
C39_3 C38_3 1_555 1_555
H23_3 C39_3 1_555 1_555
C40_3 C35_3 1_555 1_555
H24_3 C40_3 1_555 1_555
In4_2 O3_3 1_555 1_555
N1_3 C5_3 1_555 1_555
N2_3 C24_3 1_555 1_555
O9_2 C8_3 1_555 1_555
O3_3 C1_3 1_555 1_555
O4_3 C1_3 1_555 1_555
O7_2 C34_3 1_555 1_555
O8_2 C34_3 1_555 1_555
In4 O7_2 1_555 1_555
C6_3 C7_3 1_555 1_555
C9_3 N1_3 1_555 1_555
C13_3 C14_3 1_555 1_555
C15_3 N1_3 1_555 1_555
C19_2 C20_3 1_555 1_555
C25_3 C26_3 1_555 1_555
C28_3 N2_3 1_555 1_555
C32_3 C33_3 1_555 1_555
C35_3 N2_3 1_555 1_555
C39_3 C40_3 1_555 1_555
In4_2 O4_3 1_555 1_555
O8_2 In4 1_555 1_555
O11_2 C27_3 1_555 1_555
O12_2 C27_3 1_555 1_555
C1_4 C2_4 1_555 1_555
C2_4 C3_4 1_555 1_555
C3_4 H1_4 1_555 1_555
C4_4 C3_4 1_555 1_555
H2_4 C4_4 1_555 1_555
C5_4 C4_4 1_555 1_555
C6_4 C5_4 1_555 1_555
H3_4 C6_4 1_555 1_555
C7_4 C2_4 1_555 1_555
H4_4 C7_4 1_555 1_555
H7_4 C13_4 1_555 1_555
C14_4 C9_4 1_555 1_555
H8_4 C14_4 1_555 1_555
C20_4 C15_4 1_555 1_555
H12_4 C20_4 1_555 1_555
In4 O3_4 1_555 1_555
N1_4 C5_4 1_555 1_555
O3_4 C1_4 1_555 1_555
O4_4 C1_4 1_555 1_555
C6_4 C7_4 1_555 1_555
C9_4 N1_4 1_555 1_555
C13_4 C14_4 1_555 1_555
C15_4 N1_4 1_555 1_555
In4 O4_4 1_555 1_555
C8_4 C12_4 1_555 1_555
C10_4 H5_4 1_555 1_555
C11_4 C10_4 1_555 1_555
H6_4 C11_4 1_555 1_555
C12_4 C11_4 1_555 1_555
O9 C8_4 1_555 1_555
O10 C8_4 1_555 1_555
H14_4 C23_4 1_555 1_555
C24_4 C23_4 1_555 1_555
C25_4 C24_4 1_555 1_555
H15_4 C25_4 1_555 1_555
C26_4 C21_4 1_555 1_555
H16_4 C26_4 1_555 1_555
C27_4 C31_4 1_555 1_555
C28_4 C29_4 1_555 1_555
C29_4 H17_4 1_555 1_555
C30_4 C29_4 1_555 1_555
H18_4 C30_4 1_555 1_555
C31_4 C30_4 1_555 1_555
C32_4 C31_4 1_555 1_555
H19_4 C32_4 1_555 1_555
C33_4 C28_4 1_555 1_555
H20_4 C33_4 1_555 1_555
C34_4 C38_4 1_555 1_555
C35_4 C36_4 1_555 1_555
C36_4 H21_4 1_555 1_555
C37_4 C36_4 1_555 1_555
H22_4 C37_4 1_555 1_555
C38_4 C37_4 1_555 1_555
C39_4 C38_4 1_555 1_555
H23_4 C39_4 1_555 1_555
C40_4 C35_4 1_555 1_555
H24_4 C40_4 1_555 1_555
N2_4 C24_4 1_555 1_555
O11 C27_4 1_555 1_555
O12 C27_4 1_555 1_555
O13_2 C34_4 1_555 1_555
O14_2 C34_4 1_555 1_555
C25_4 C26_4 1_555 1_555
C28_4 N2_4 1_555 1_555
C32_4 C33_4 1_555 1_555
C35_4 N2_4 1_555 1_555
C39_4 C40_4 1_555 1_555
O5_3 C27_5 1_555 1_555
O6_3 C27_5 1_555 1_555
In4_3 O5_3 1_555 1_555
O6_3 In4_3 1_555 1_555
C1_5 C2_5 1_555 1_555
C2_5 C3_5 1_555 1_555
C3_5 H1_5 1_555 1_555
C4_5 C3_5 1_555 1_555
H2_5 C4_5 1_555 1_555
C5_5 C4_5 1_555 1_555
C6_5 C5_5 1_555 1_555
H3_5 C6_5 1_555 1_555
C7_5 C2_5 1_555 1_555
H4_5 C7_5 1_555 1_555
C8_5 C12_5 1_555 1_555
C9_5 C10_5 1_555 1_555
C10_5 H5_5 1_555 1_555
C11_5 C10_5 1_555 1_555
H6_5 C11_5 1_555 1_555
C12_5 C11_5 1_555 1_555
C13_5 C12_5 1_555 1_555
C14_5 C9_5 1_555 1_555
C15_5 C16_3 1_555 1_555
C16_3 H9_3 1_555 1_555
C17_3 C16_3 1_555 1_555
H10_5 C17_3 1_555 1_555
C18_3 C17_3 1_555 1_555
C19_3 C18_3 1_555 1_555
H11_3 C19_3 1_555 1_555
C20_5 C15_5 1_555 1_555
H12_5 C20_5 1_555 1_555
C21_5 C18_3 1_555 1_555
C22_3 C21_5 1_555 1_555
H13_3 C22_3 1_555 1_555
C23_5 C22_3 1_555 1_555
H14_5 C23_5 1_555 1_555
C24_5 C23_5 1_555 1_555
C25_5 C24_5 1_555 1_555
H15_5 C25_5 1_555 1_555
C26_5 C21_5 1_555 1_555
H16_5 C26_5 1_555 1_555
C28_5 C29_5 1_555 1_555
C29_5 H17_5 1_555 1_555
C30_5 C29_5 1_555 1_555
H18_5 C30_5 1_555 1_555
C31_5 C30_5 1_555 1_555
C32_5 C31_5 1_555 1_555
C33_5 C28_5 1_555 1_555
H20_5 C33_5 1_555 1_555
C34_5 C38_5 1_555 1_555
C35_5 C36_5 1_555 1_555
C36_5 H21_5 1_555 1_555
C37_5 C36_5 1_555 1_555
H22_5 C37_5 1_555 1_555
C38_5 C37_5 1_555 1_555
C39_5 C38_5 1_555 1_555
H23_5 C39_5 1_555 1_555
C40_5 C35_5 1_555 1_555
H24_5 C40_5 1_555 1_555
In1_2 O3_5 1_555 1_555
N1_5 C5_5 1_555 1_555
N2_5 C24_5 1_555 1_555
O1_3 C8_5 1_555 1_555
O3_5 C1_5 1_555 1_555
O4_5 C1_5 1_555 1_555
O7_3 C34_5 1_555 1_555
O8_3 C34_5 1_555 1_555
In2_2 O7_3 1_555 1_555
In4_3 O1_3 1_555 1_555
O9_3 In1_2 1_555 1_555
O11_3 In1_2 1_555 1_555
O12_3 In1_2 1_555 1_555
C6_5 C7_5 1_555 1_555
C9_5 N1_5 1_555 1_555
C13_5 C14_5 1_555 1_555
C15_5 N1_5 1_555 1_555
C19_3 C20_5 1_555 1_555
C25_5 C26_5 1_555 1_555
C28_5 N2_5 1_555 1_555
C32_5 C33_5 1_555 1_555
C35_5 N2_5 1_555 1_555
C39_5 C40_5 1_555 1_555
In1_2 O4_5 1_555 1_555
O8_3 In2_2 1_555 1_555
H14_6 C23_6 1_555 1_555
C24_6 C23_6 1_555 1_555
C25_6 C24_6 1_555 1_555
H15_6 C25_6 1_555 1_555
C26_6 C21_6 1_555 1_555
H16_6 C26_6 1_555 1_555
C27_6 C31_6 1_555 1_555
C28_6 C29_6 1_555 1_555
C29_6 H17_6 1_555 1_555
C30_6 C29_6 1_555 1_555
H18_6 C30_6 1_555 1_555
C31_6 C30_6 1_555 1_555
C32_6 C31_6 1_555 1_555
H19_6 C32_6 1_555 1_555
C33_6 C28_6 1_555 1_555
H20_6 C33_6 1_555 1_555
C34_6 C38_6 1_555 1_555
C35_6 C36_6 1_555 1_555
C36_6 H21_6 1_555 1_555
C37_6 C36_6 1_555 1_555
H22_6 C37_6 1_555 1_555
C38_6 C37_6 1_555 1_555
C39_6 C38_6 1_555 1_555
H23_6 C39_6 1_555 1_555
C40_6 C35_6 1_555 1_555
H24_6 C40_6 1_555 1_555
N2_6 C24_6 1_555 1_555
O5_4 C27_6 1_555 1_555
O6_4 C27_6 1_555 1_555
O13_3 C34_6 1_555 1_555
O14_3 C34_6 1_555 1_555
In4_4 O5_4 1_555 1_555
C25_6 C26_6 1_555 1_555
C28_6 N2_6 1_555 1_555
C32_6 C33_6 1_555 1_555
C35_6 N2_6 1_555 1_555
C39_6 C40_6 1_555 1_555
O6_4 In4_4 1_555 1_555
C8_6 C12_6 1_555 1_555
C10_6 H5_6 1_555 1_555
C11_6 C10_6 1_555 1_555
H6_6 C11_6 1_555 1_555
C12_6 C11_6 1_555 1_555
O1_4 C8_6 1_555 1_555
O2_4 C8_6 1_555 1_555
In4_4 O1_4 1_555 1_555
O2_4 In4_4 1_555 1_555
C1_6 C2_6 1_555 1_555
C2_6 C3_6 1_555 1_555
C3_6 H1_6 1_555 1_555
C4_6 C3_6 1_555 1_555
H2_6 C4_6 1_555 1_555
C5_6 C4_6 1_555 1_555
C6_6 C5_6 1_555 1_555
H3_6 C6_6 1_555 1_555
C7_6 C2_6 1_555 1_555
H4_6 C7_6 1_555 1_555
H7_6 C13_6 1_555 1_555
C14_6 C9_6 1_555 1_555
H8_6 C14_6 1_555 1_555
C20_6 C15_6 1_555 1_555
H12_6 C20_6 1_555 1_555
In2_2 O3_6 1_555 1_555
N1_6 C5_6 1_555 1_555
O3_6 C1_6 1_555 1_555
O4_6 C1_6 1_555 1_555
O9_4 In2_2 1_555 1_555
O10_4 In2_2 1_555 1_555
O11_4 In2_2 1_555 1_555
O12_4 In2_2 1_555 1_555
C6_6 C7_6 1_555 1_555
C9_6 N1_6 1_555 1_555
C13_6 C14_6 1_555 1_555
C15_6 N1_6 1_555 1_555
In2_2 O4_6 1_555 1_555
C1_7 C2_7 1_555 1_555
C2_7 C3_7 1_555 1_555
C3_7 H1_7 1_555 1_555
C4_7 C3_7 1_555 1_555
H2_7 C4_7 1_555 1_555
C5_7 C4_7 1_555 1_555
C6_7 C5_7 1_555 1_555
H3_7 C6_7 1_555 1_555
C7_7 C2_7 1_555 1_555
H4_7 C7_7 1_555 1_555
C8_7 C12_7 1_555 1_555
C9_7 C10_7 1_555 1_555
C10_7 H5_7 1_555 1_555
C11_7 C10_7 1_555 1_555
H6_7 C11_7 1_555 1_555
C12_7 C11_7 1_555 1_555
C13_7 C12_7 1_555 1_555
H7_7 C13_7 1_555 1_555
C14_7 C9_7 1_555 1_555
H8_7 C14_7 1_555 1_555
C15_7 C16_4 1_555 1_555
C16_4 H9_4 1_555 1_555
C17_4 C16_4 1_555 1_555
H10_7 C17_4 1_555 1_555
C18_4 C17_4 1_555 1_555
C19_4 C18_4 1_555 1_555
H11_4 C19_4 1_555 1_555
C20_7 C15_7 1_555 1_555
H12_7 C20_7 1_555 1_555
C21_7 C18_4 1_555 1_555
C22_4 C21_7 1_555 1_555
H13_4 C22_4 1_555 1_555
C23_7 C22_4 1_555 1_555
H14_7 C23_7 1_555 1_555
C24_7 C23_7 1_555 1_555
C25_7 C24_7 1_555 1_555
H15_7 C25_7 1_555 1_555
C26_7 C21_7 1_555 1_555
H16_7 C26_7 1_555 1_555
C28_7 C29_7 1_555 1_555
C29_7 H17_7 1_555 1_555
C30_7 C29_7 1_555 1_555
H18_7 C30_7 1_555 1_555
C31_7 C30_7 1_555 1_555
C32_7 C31_7 1_555 1_555
C33_7 C28_7 1_555 1_555
H20_7 C33_7 1_555 1_555
C34_7 C38_7 1_555 1_555
C35_7 C36_7 1_555 1_555
C36_7 H21_7 1_555 1_555
C37_7 C36_7 1_555 1_555
H22_7 C37_7 1_555 1_555
C38_7 C37_7 1_555 1_555
C39_7 C38_7 1_555 1_555
H23_7 C39_7 1_555 1_555
C40_7 C35_7 1_555 1_555
H24_7 C40_7 1_555 1_555
In4_4 O3_7 1_555 1_555
N1_7 C5_7 1_555 1_555
N2_7 C24_7 1_555 1_555
O9_4 C8_7 1_555 1_555
O10_4 C8_7 1_555 1_555
O3_7 C1_7 1_555 1_555
O4_7 C1_7 1_555 1_555
O7_4 C34_7 1_555 1_555
O8_4 C34_7 1_555 1_555
O13_4 In4_4 1_555 1_555
O14_4 In4_4 1_555 1_555
C6_7 C7_7 1_555 1_555
C9_7 N1_7 1_555 1_555
C13_7 C14_7 1_555 1_555
C15_7 N1_7 1_555 1_555
C19_4 C20_7 1_555 1_555
C25_7 C26_7 1_555 1_555
C28_7 N2_7 1_555 1_555
C32_7 C33_7 1_555 1_555
C35_7 N2_7 1_555 1_555
C39_7 C40_7 1_555 1_555
In4_4 O4_7 1_555 1_555
O11_4 C27_7 1_555 1_555
O12_4 C27_7 1_555 1_555
C8_8 C12_8 1_555 1_555
C10_8 H5_8 1_555 1_555
C11_8 C10_8 1_555 1_555
H6_8 C11_8 1_555 1_555
C12_8 C11_8 1_555 1_555
O9_3 C8_8 1_555 1_555
C1_8 C2_8 1_555 1_555
C2_8 C3_8 1_555 1_555
C3_8 H1_8 1_555 1_555
C4_8 C3_8 1_555 1_555
H2_8 C4_8 1_555 1_555
C5_8 C4_8 1_555 1_555
C6_8 C5_8 1_555 1_555
H3_8 C6_8 1_555 1_555
C7_8 C2_8 1_555 1_555
H4_8 C7_8 1_555 1_555
C14_8 C9_8 1_555 1_555
C20_8 C15_8 1_555 1_555
H12_8 C20_8 1_555 1_555
In4_3 O3_8 1_555 1_555
N1_8 C5_8 1_555 1_555
O3_8 C1_8 1_555 1_555
O4_8 C1_8 1_555 1_555
C6_8 C7_8 1_555 1_555
C9_8 N1_8 1_555 1_555
C13_8 C14_8 1_555 1_555
C15_8 N1_8 1_555 1_555
In4_3 O4_8 1_555 1_555
H14_8 C23_8 1_555 1_555
C24_8 C23_8 1_555 1_555
C25_8 C24_8 1_555 1_555
H15_8 C25_8 1_555 1_555
C26_8 C21_8 1_555 1_555
H16_8 C26_8 1_555 1_555
C27_8 C31_8 1_555 1_555
C28_8 C29_8 1_555 1_555
C29_8 H17_8 1_555 1_555
C30_8 C29_8 1_555 1_555
H18_8 C30_8 1_555 1_555
C31_8 C30_8 1_555 1_555
C32_8 C31_8 1_555 1_555
H19_8 C32_8 1_555 1_555
C33_8 C28_8 1_555 1_555
H20_8 C33_8 1_555 1_555
C34_8 C38_8 1_555 1_555
C35_8 C36_8 1_555 1_555
C36_8 H21_8 1_555 1_555
C37_8 C36_8 1_555 1_555
H22_8 C37_8 1_555 1_555
C38_8 C37_8 1_555 1_555
C39_8 C38_8 1_555 1_555
H23_8 C39_8 1_555 1_555
C40_8 C35_8 1_555 1_555
H24_8 C40_8 1_555 1_555
N2_8 C24_8 1_555 1_555
O11_3 C27_8 1_555 1_555
O12_3 C27_8 1_555 1_555
O13_4 C34_8 1_555 1_555
O14_4 C34_8 1_555 1_555
C25_8 C26_8 1_555 1_555
C28_8 N2_8 1_555 1_555
C32_8 C33_8 1_555 1_555
C35_8 N2_8 1_555 1_555
C39_8 C40_8 1_555 1_555
C16_5 H9_5 1_555 1_555
C17_5 C16_5 1_555 1_555
C18_5 C17_5 1_555 1_555
C19_5 C18_5 1_555 1_555
H11_5 C19_5 1_555 1_555
H13_5 C22_5 1_555 1_555
C16_6 H9_6 1_555 1_555
C17_6 C16_6 1_555 1_555
C18_6 C17_6 1_555 1_555
C19_6 C18_6 1_555 1_555
H11_6 C19_6 1_555 1_555
H13_6 C22_6 1_555 1_555
C16_7 H9_7 1_555 1_555
C17_7 C16_7 1_555 1_555
C18_7 C17_7 1_555 1_555
C19_7 C18_7 1_555 1_555
H11_7 C19_7 1_555 1_555
H13_7 C22_7 1_555 1_555
C16_8 H9_8 1_555 1_555
C17_8 C16_8 1_555 1_555
C18_8 C17_8 1_555 1_555
C19_8 C18_8 1_555 1_555
H11_8 C19_8 1_555 1_555
H13_8 C22_8 1_555 1_555

#END
