
###############################################################################
#
# This file contains modified crystal structure data generated from the
# MOF subset of the Cambridge Structural Database (CSD) v543 
# hosted by the Cambridge Crystallographic Data Centre (CCDC).
#
# This work is licensed under the Creative Commons
# Attribution-NonCommercial-ShareAlike 4.0 International License.
# To view a copy of this license, visit
# http://creativecommons.org/licenses/by-nc-sa/4.0/
# or send a letter to
# Creative Commons, PO Box 1866, Mountain View, CA 94042, USA.
#
# CIF created using the CSD Python API on 29 September 2022
# The structure has been converted into the P1 space group
# The structure has a 3D framework
# The original CSD entry GAWZOW is in the tetragonal crystal system
# The original CSD entry GAWZOW is in a Sohncke space group
# The framework has been calculated to contain at least 10.0% void space
# The void calculation uses a probe of radius 1.32A, grid spacing 0.4
#
###############################################################################

data_GAWZOW
_chemical_formula_moiety         '(C192 H128 N16 Ni8 O32)n'
_symmetry_cell_setting           triclinic
_symmetry_space_group_name_H-M   'P 1'
_symmetry_Int_Tables_number      1
_space_group_name_Hall           'P 1'
loop_
_symmetry_equiv_pos_site_id
_symmetry_equiv_pos_as_xyz
1 x,y,z
_cell_length_a                   22.5091(2)
_cell_length_b                   22.5091(2)
_cell_length_c                   12.80495(15)
_cell_angle_alpha                90
_cell_angle_beta                 90
_cell_angle_gamma                90
_cell_volume                     6487.75
loop_
_atom_site_label
_atom_site_type_symbol
_atom_site_fract_x
_atom_site_fract_y
_atom_site_fract_z
N2 N 0.25376(12) 0.16978(10) 0.68547(18)
C9 C 0.27013(19) 0.00552(14) 0.5200(2)
C10 C 0.26639(19) 0.06197(14) 0.5791(2)
C15 C 0.3015(2) 0.00139(16) 0.4277(2)
H7 H 0.3223 0.0343 0.4035
C17 C 0.2715(2) 0.11550(15) 0.5285(3)
H9 H 0.2790 0.1166 0.4571
C18 C 0.26551(19) 0.16740(13) 0.5840(3)
H10 H 0.2699 0.2031 0.5482
C23 C 0.2514(3) 0.11859(17) 0.7344(3)
H15 H 0.2436 0.1186 0.8057
C24 C 0.2602(3) 0.06440(16) 0.6847(3)
H16 H 0.2619 0.0296 0.7239
Ni2 Ni 0.23277(2) 0.24964(2) 0.75182(3)
Ni1 Ni 0.26723(2) 0.74964(2) 0.24818(3)
O1 O 0.24622(9) 0.79889(8) 0.37760(13)
O2 O 0.31582(8) 0.71981(9) 0.12338(14)
O3 O 0.36266(9) 0.73532(12) 0.27005(16)
O4 O 0.28917(10) 0.84487(8) 0.24780(14)
C1 C 0.36354(12) 0.72322(14) 0.1755(2)
C3 C 0.26952(13) 0.84463(12) 0.33880(19)
C4 C 0.42213(13) 0.70267(15) 0.0139(2)
C5 C 0.52976(13) 0.71561(17) 0.0097(2)
C6 C 0.42141(12) 0.71637(17) 0.1188(2)
C8 C 0.27192(15) 0.90014(12) 0.4035(2)
C12 C 0.30259(18) 0.94935(14) 0.3703(3)
H4 H 0.3244 0.9477 0.3087
H8 H 0.6284 0.7754 0.0502
C19 C 0.2418(3) 0.95410(16) 0.5567(3)
H11 H 0.2230 0.9546 0.6213
C20 C 0.52787(15) 0.7268(3) 0.1161(3)
H12 H 0.5630 0.7340 0.1520
C21 C 0.47422(15) 0.7273(2) 0.1700(2)
H13 H 0.4739 0.7352 0.2413
C22 C 0.2416(2) 0.90309(15) 0.4978(3)
H14 H 0.2208 0.8700 0.5215
N3 N 0.18988(10) 0.76186(10) 0.16732(17)
N4 N 0.24624(12) 0.66978(10) 0.31453(18)
N1 N 0.31012(10) 0.26186(10) 0.83268(17)
C2 C 0.35396(14) 0.29743(15) 0.7996(2)
H1 H 0.3494 0.3165 0.7357
H2 H 0.6130 0.3058 0.9788
C7 C 0.31802(14) 0.23557(16) 0.9255(2)
H3 H 0.2881 0.2109 0.9507
C11 C 0.41438(13) 0.27843(17) 0.9504(2)
C13 C 0.52377(13) 0.29829(18) 0.9611(2)
H5 H 0.5234 0.3086 0.8908
C14 C 0.40551(14) 0.30730(17) 0.8553(3)
H6 H 0.4342 0.3331 0.8295
C16 C 0.36858(14) 0.24328(18) 0.9857(2)
O1_2 O 0.25378(9) 0.29889(8) 0.62240(13)
O2_2 O 0.18418(8) 0.21981(9) 0.87662(14)
O3_2 O 0.13734(9) 0.23532(12) 0.72995(16)
O4_2 O 0.21083(10) 0.34487(8) 0.75220(14)
C1_2 C 0.13646(12) 0.22322(14) 0.8245(2)
C3_2 C 0.23048(13) 0.34463(12) 0.66120(19)
C4_2 C 0.07787(13) 0.20267(15) 0.9861(2)
C6_2 C 0.07859(12) 0.21637(17) 0.8812(2)
C8_2 C 0.22808(15) 0.40014(12) 0.5965(2)
C9_2 C 0.22987(19) 0.50552(14) 0.4800(2)
C10_2 C 0.23361(19) 0.56197(14) 0.4209(2)
C12_2 C 0.19741(18) 0.44935(14) 0.6297(3)
H4_2 H 0.1756 0.4477 0.6913
C15_2 C 0.1985(2) 0.50139(16) 0.5723(2)
H7_2 H 0.1777 0.5343 0.5965
C17_2 C 0.2285(2) 0.61550(15) 0.4715(3)
H9_2 H 0.2210 0.6166 0.5429
C18_2 C 0.23449(19) 0.66740(13) 0.4160(3)
H10_2 H 0.2301 0.7031 0.4518
C19_2 C 0.2582(3) 0.45410(16) 0.4433(3)
H11_2 H 0.2770 0.4546 0.3787
C21_2 C 0.02578(15) 0.2273(2) 0.8300(2)
H13_2 H 0.0261 0.2352 0.7587
C22_2 C 0.2584(2) 0.40309(15) 0.5022(3)
H14_2 H 0.2792 0.3700 0.4785
C23_2 C 0.2486(3) 0.61859(17) 0.2656(3)
H15_2 H 0.2564 0.6186 0.1943
C24_2 C 0.2398(3) 0.56440(16) 0.3153(3)
H16_2 H 0.2381 0.5296 0.2761
C2_2 C 0.14604(14) 0.79743(15) 0.2004(2)
H1_2 H 0.1506 0.8165 0.2643
C7_2 C 0.18198(14) 0.73557(16) 0.0745(2)
H3_2 H 0.2119 0.7109 0.0493
C11_2 C 0.08562(13) 0.77843(17) 0.0496(2)
C14_2 C 0.09449(14) 0.80730(17) 0.1447(3)
H6_2 H 0.0658 0.8331 0.1705
C16_2 C 0.13142(14) 0.74328(18) 0.0143(2)
N1_2 N 0.68988(10) 0.73814(10) 0.83268(17)
C2_3 C 0.64604(14) 0.70257(15) 0.7996(2)
H1_3 H 0.6506 0.6835 0.7357
H2_2 H 0.3870 0.6942 0.9788
C7_3 C 0.68198(14) 0.76443(16) 0.9255(2)
H3_3 H 0.7119 0.7891 0.9507
C11_3 C 0.58562(13) 0.72157(17) 0.9504(2)
C13_2 C 0.47623(13) 0.70171(18) 0.9611(2)
H5_2 H 0.4766 0.6914 0.8908
C14_3 C 0.59449(14) 0.69270(17) 0.8553(3)
H6_3 H 0.5658 0.6669 0.8295
C16_3 C 0.63142(14) 0.75672(18) 0.9857(2)
Ni3 Ni 0.76723(2) 0.75036(2) 0.75182(3)
Ni1_2 Ni 0.73277(2) 0.25036(2) 0.24818(3)
O1_3 O 0.75378(9) 0.20111(8) 0.37760(13)
O2_3 O 0.68418(8) 0.28019(9) 0.12338(14)
O3_3 O 0.63734(9) 0.26468(12) 0.27005(16)
O4_3 O 0.71083(10) 0.15513(8) 0.24780(14)
C1_3 C 0.63646(12) 0.27678(14) 0.1755(2)
C3_3 C 0.73048(13) 0.15537(12) 0.33880(19)
C4_3 C 0.57787(13) 0.29733(15) 0.0139(2)
C5_2 C 0.47024(13) 0.28439(17) 0.0097(2)
C6_3 C 0.57859(12) 0.28363(17) 0.1188(2)
C8_3 C 0.72808(15) 0.09986(12) 0.4035(2)
C12_3 C 0.69741(18) 0.05065(14) 0.3703(3)
H4_3 H 0.6756 0.0523 0.3087
H8_2 H 0.3716 0.2246 0.0502
C19_3 C 0.7582(3) 0.04590(16) 0.5567(3)
H11_3 H 0.7770 0.0454 0.6213
C20_2 C 0.47213(15) 0.2732(3) 0.1161(3)
H12_2 H 0.4370 0.2660 0.1520
C21_3 C 0.52578(15) 0.2727(2) 0.1700(2)
H13_3 H 0.5261 0.2648 0.2413
C22_3 C 0.7584(2) 0.09691(15) 0.4978(3)
H14_3 H 0.7792 0.1300 0.5215
N3_2 N 0.81012(10) 0.23814(10) 0.16732(17)
N4_2 N 0.75376(12) 0.33022(10) 0.31453(18)
N2_2 N 0.74624(12) 0.83022(10) 0.68547(18)
C9_3 C 0.72987(19) 0.99448(14) 0.5200(2)
C10_3 C 0.73361(19) 0.93803(14) 0.5791(2)
C15_3 C 0.6985(2) 0.99861(16) 0.4277(2)
H7_3 H 0.6777 0.9657 0.4035
C17_3 C 0.7285(2) 0.88450(15) 0.5285(3)
H9_3 H 0.7210 0.8834 0.4571
C18_3 C 0.73449(19) 0.83260(13) 0.5840(3)
H10_3 H 0.7301 0.7969 0.5482
C23_3 C 0.7486(3) 0.88141(17) 0.7344(3)
H15_3 H 0.7564 0.8814 0.8057
C24_3 C 0.7398(3) 0.93560(16) 0.6847(3)
H16_3 H 0.7381 0.9704 0.7239
C2_4 C 0.85396(14) 0.20257(15) 0.2004(2)
H1_4 H 0.8494 0.1835 0.2643
C7_4 C 0.81802(14) 0.26443(16) 0.0745(2)
H3_4 H 0.7881 0.2891 0.0493
C11_4 C 0.91438(13) 0.22157(17) 0.0496(2)
C14_4 C 0.90551(14) 0.19270(17) 0.1447(3)
H6_4 H 0.9342 0.1669 0.1705
C16_4 C 0.86858(14) 0.25672(18) 0.0143(2)
O1_4 O 0.74622(9) 0.70111(8) 0.62240(13)
O2_4 O 0.81582(8) 0.78019(9) 0.87662(14)
O3_4 O 0.86266(9) 0.76468(12) 0.72995(16)
O4_4 O 0.78917(10) 0.65513(8) 0.75220(14)
C1_4 C 0.86354(12) 0.77678(14) 0.8245(2)
C3_4 C 0.76952(13) 0.65537(12) 0.66120(19)
C4_4 C 0.92213(13) 0.79733(15) 0.9861(2)
C6_4 C 0.92141(12) 0.78363(17) 0.8812(2)
C8_4 C 0.77192(15) 0.59986(12) 0.5965(2)
C9_4 C 0.77013(19) 0.49448(14) 0.4800(2)
C10_4 C 0.76639(19) 0.43803(14) 0.4209(2)
C12_4 C 0.80259(18) 0.55065(14) 0.6297(3)
H4_4 H 0.8244 0.5523 0.6913
C15_4 C 0.8015(2) 0.49861(16) 0.5723(2)
H7_4 H 0.8223 0.4657 0.5965
C17_4 C 0.7715(2) 0.38450(15) 0.4715(3)
H9_4 H 0.7790 0.3834 0.5429
C18_4 C 0.76551(19) 0.33260(13) 0.4160(3)
H10_4 H 0.7699 0.2969 0.4518
C19_4 C 0.7418(3) 0.54590(16) 0.4433(3)
H11_4 H 0.7230 0.5454 0.3787
C21_4 C 0.97422(15) 0.7727(2) 0.8300(2)
H13_4 H 0.9739 0.7648 0.7587
C22_4 C 0.7416(2) 0.59691(15) 0.5022(3)
H14_4 H 0.7208 0.6300 0.4785
C23_4 C 0.7514(3) 0.38141(17) 0.2656(3)
H15_4 H 0.7436 0.3814 0.1943
C24_4 C 0.7602(3) 0.43560(16) 0.3153(3)
H16_4 H 0.7619 0.4704 0.2761
C5_3 C 0.78439(17) 0.02976(13) 0.0097(2)
H8_3 H 0.7246 0.1284 0.0502
C20_3 C 0.7732(3) 0.02787(15) 0.1161(3)
H12_3 H 0.7660 0.0630 0.1520
N1_3 N 0.76186(10) 0.18988(10) 0.83268(17)
C2_5 C 0.79743(15) 0.14604(14) 0.7996(2)
H1_5 H 0.8165 0.1506 0.7357
C7_5 C 0.73557(16) 0.18198(14) 0.9255(2)
H3_5 H 0.7109 0.2119 0.9507
C11_5 C 0.77843(17) 0.08562(13) 0.9504(2)
C14_5 C 0.80730(17) 0.09449(14) 0.8553(3)
H6_5 H 0.8331 0.0658 0.8295
C16_5 C 0.74328(18) 0.13142(14) 0.9857(2)
Ni3_2 Ni 0.74964(2) 0.26723(2) 0.75182(3)
Ni1_3 Ni 0.24964(2) 0.23277(2) 0.24818(3)
O1_5 O 0.29889(8) 0.25378(9) 0.37760(13)
O2_5 O 0.21981(9) 0.18418(8) 0.12338(14)
O3_5 O 0.23532(12) 0.13734(9) 0.27005(16)
O4_5 O 0.34487(8) 0.21083(10) 0.24780(14)
N2_3 N 0.66978(10) 0.24624(12) 0.68547(18)
C1_5 C 0.22322(14) 0.13646(12) 0.1755(2)
C3_5 C 0.34463(12) 0.23048(13) 0.33880(19)
C4_5 C 0.20267(15) 0.07787(13) 0.0139(2)
C6_5 C 0.21637(17) 0.07859(12) 0.1188(2)
C8_5 C 0.40014(12) 0.22808(15) 0.4035(2)
C9_5 C 0.50552(14) 0.22987(19) 0.5200(2)
C10_5 C 0.56197(14) 0.23361(19) 0.5791(2)
C12_5 C 0.44935(14) 0.19741(18) 0.3703(3)
H4_5 H 0.4477 0.1756 0.3087
C15_5 C 0.50139(16) 0.1985(2) 0.4277(2)
H7_5 H 0.5343 0.1777 0.4035
C17_5 C 0.61550(15) 0.2285(2) 0.5285(3)
H9_5 H 0.6166 0.2210 0.4571
C18_5 C 0.66740(13) 0.23449(19) 0.5840(3)
H10_5 H 0.7031 0.2301 0.5482
C19_5 C 0.45410(16) 0.2582(3) 0.5567(3)
H11_5 H 0.4546 0.2770 0.6213
C21_5 C 0.2273(2) 0.02578(15) 0.1700(2)
H13_5 H 0.2352 0.0261 0.2413
C22_5 C 0.40309(15) 0.2584(2) 0.4978(3)
H14_5 H 0.3700 0.2792 0.5215
C23_5 C 0.61859(17) 0.2486(3) 0.7344(3)
H15_5 H 0.6186 0.2564 0.8057
C24_5 C 0.56440(16) 0.2398(3) 0.6847(3)
H16_5 H 0.5296 0.2381 0.7239
N3_3 N 0.26186(10) 0.31012(10) 0.16732(17)
N4_3 N 0.16978(10) 0.25376(12) 0.31453(18)
C9_6 C 0.00552(14) 0.27013(19) 0.4800(2)
C10_6 C 0.06197(14) 0.26639(19) 0.4209(2)
C15_6 C 0.00139(16) 0.3015(2) 0.5723(2)
H7_6 H 0.0343 0.3223 0.5965
C17_6 C 0.11550(15) 0.2715(2) 0.4715(3)
H9_6 H 0.1166 0.2790 0.5429
C18_6 C 0.16740(13) 0.26551(19) 0.4160(3)
H10_6 H 0.2031 0.2699 0.4518
C23_6 C 0.11859(17) 0.2514(3) 0.2656(3)
H15_6 H 0.1186 0.2436 0.1943
C24_6 C 0.06440(16) 0.2602(3) 0.3153(3)
H16_6 H 0.0296 0.2619 0.2761
O1_6 O 0.79889(8) 0.24622(9) 0.62240(13)
O2_6 O 0.71981(9) 0.31582(8) 0.87662(14)
O3_6 O 0.73532(12) 0.36266(9) 0.72995(16)
O4_6 O 0.84487(8) 0.28917(10) 0.75220(14)
C1_6 C 0.72322(14) 0.36354(12) 0.8245(2)
C3_6 C 0.84463(12) 0.26952(13) 0.66120(19)
C4_6 C 0.70267(15) 0.42213(13) 0.9861(2)
C5_4 C 0.71561(17) 0.52976(13) 0.9903(2)
C6_6 C 0.71637(17) 0.42141(12) 0.8812(2)
C8_6 C 0.90014(12) 0.27192(15) 0.5965(2)
C12_6 C 0.94935(14) 0.30259(18) 0.6297(3)
H4_6 H 0.9477 0.3244 0.6913
H8_4 H 0.7754 0.6284 0.9498
C19_6 C 0.95410(16) 0.2418(3) 0.4433(3)
H11_6 H 0.9546 0.2230 0.3787
C20_4 C 0.7268(3) 0.52787(15) 0.8839(3)
H12_4 H 0.7340 0.5630 0.8480
C21_6 C 0.7273(2) 0.47422(15) 0.8300(2)
H13_6 H 0.7352 0.4739 0.7587
C22_6 C 0.90309(15) 0.2416(2) 0.5022(3)
H14_6 H 0.8700 0.2208 0.4785
C2_6 C 0.29743(15) 0.35396(14) 0.2004(2)
H1_6 H 0.3165 0.3494 0.2643
H2_3 H 0.3058 0.6130 0.0212
C7_6 C 0.23557(16) 0.31802(14) 0.0745(2)
H3_6 H 0.2109 0.2881 0.0493
C11_6 C 0.27843(17) 0.41438(13) 0.0496(2)
C13_3 C 0.29829(18) 0.52377(13) 0.0389(2)
H5_3 H 0.3086 0.5234 0.1092
C14_6 C 0.30730(17) 0.40551(14) 0.1447(3)
H6_6 H 0.3331 0.4342 0.1705
C16_6 C 0.24328(18) 0.36858(14) 0.0143(2)
Ni1_4 Ni 0.75036(2) 0.76723(2) 0.24818(3)
O1_7 O 0.70111(8) 0.74622(9) 0.37760(13)
O2_7 O 0.78019(9) 0.81582(8) 0.12338(14)
O3_7 O 0.76468(12) 0.86266(9) 0.27005(16)
O4_7 O 0.65513(8) 0.78917(10) 0.24780(14)
N2_4 N 0.33022(10) 0.75376(12) 0.68547(18)
C1_7 C 0.77678(14) 0.86354(12) 0.1755(2)
C3_7 C 0.65537(12) 0.76952(13) 0.33880(19)
C4_7 C 0.79733(15) 0.92213(13) 0.0139(2)
C6_7 C 0.78363(17) 0.92141(12) 0.1188(2)
C8_7 C 0.59986(12) 0.77192(15) 0.4035(2)
C9_7 C 0.49448(14) 0.77013(19) 0.5200(2)
C10_7 C 0.43803(14) 0.76639(19) 0.5791(2)
C12_7 C 0.55065(14) 0.80259(18) 0.3703(3)
H4_7 H 0.5523 0.8244 0.3087
C15_7 C 0.49861(16) 0.8015(2) 0.4277(2)
H7_7 H 0.4657 0.8223 0.4035
C17_7 C 0.38450(15) 0.7715(2) 0.5285(3)
H9_7 H 0.3834 0.7790 0.4571
C18_7 C 0.33260(13) 0.76551(19) 0.5840(3)
H10_7 H 0.2969 0.7699 0.5482
C19_7 C 0.54590(16) 0.7418(3) 0.5567(3)
H11_7 H 0.5454 0.7230 0.6213
C21_7 C 0.7727(2) 0.97422(15) 0.1700(2)
H13_7 H 0.7648 0.9739 0.2413
C22_7 C 0.59691(15) 0.7416(2) 0.4978(3)
H14_7 H 0.6300 0.7208 0.5215
C23_7 C 0.38141(17) 0.7514(3) 0.7344(3)
H15_7 H 0.3814 0.7436 0.8057
C24_7 C 0.43560(16) 0.7602(3) 0.6847(3)
H16_7 H 0.4704 0.7619 0.7239
Ni2_2 Ni 0.25036(2) 0.73277(2) 0.75182(3)
N3_4 N 0.73814(10) 0.68988(10) 0.16732(17)
N4_4 N 0.83022(10) 0.74624(12) 0.31453(18)
N1_4 N 0.23814(10) 0.81012(10) 0.83268(17)
C2_7 C 0.20257(15) 0.85396(14) 0.7996(2)
H1_7 H 0.1835 0.8494 0.7357
C7_7 C 0.26443(16) 0.81802(14) 0.9255(2)
H3_7 H 0.2891 0.7881 0.9507
C11_7 C 0.22157(17) 0.91438(13) 0.9504(2)
C14_7 C 0.19270(17) 0.90551(14) 0.8553(3)
H6_7 H 0.1669 0.9342 0.8295
C16_7 C 0.25672(18) 0.86858(14) 0.9857(2)
C2_8 C 0.70257(15) 0.64604(14) 0.2004(2)
H1_8 H 0.6835 0.6506 0.2643
H2_4 H 0.6942 0.3870 0.0212
C7_8 C 0.76443(16) 0.68198(14) 0.0745(2)
H3_8 H 0.7891 0.7119 0.0493
C11_8 C 0.72157(17) 0.58562(13) 0.0496(2)
C13_4 C 0.70171(18) 0.47623(13) 0.0389(2)
H5_4 H 0.6914 0.4766 0.1092
C14_8 C 0.69270(17) 0.59449(14) 0.1447(3)
H6_8 H 0.6669 0.5658 0.1705
C16_8 C 0.75672(18) 0.63142(14) 0.0143(2)
O1_8 O 0.20111(8) 0.75378(9) 0.62240(13)
O2_8 O 0.28019(9) 0.68418(8) 0.87662(14)
O3_8 O 0.26468(12) 0.63734(9) 0.72995(16)
O4_8 O 0.15513(8) 0.71083(10) 0.75220(14)
C1_8 C 0.27678(14) 0.63646(12) 0.8245(2)
C3_8 C 0.15537(12) 0.73048(13) 0.66120(19)
C4_8 C 0.29733(15) 0.57787(13) 0.9861(2)
C5_5 C 0.28439(17) 0.47024(13) 0.9903(2)
C6_8 C 0.28363(17) 0.57859(12) 0.8812(2)
C8_8 C 0.09986(12) 0.72808(15) 0.5965(2)
C12_8 C 0.05065(14) 0.69741(18) 0.6297(3)
H4_8 H 0.0523 0.6756 0.6913
H8_5 H 0.2246 0.3716 0.9498
C19_8 C 0.04590(16) 0.7582(3) 0.4433(3)
H11_8 H 0.0454 0.7770 0.3787
C20_5 C 0.2732(3) 0.47213(15) 0.8839(3)
H12_5 H 0.2660 0.4370 0.8480
C21_8 C 0.2727(2) 0.52578(15) 0.8300(2)
H13_8 H 0.2648 0.5261 0.7587
C22_8 C 0.09691(15) 0.7584(2) 0.5022(3)
H14_8 H 0.1300 0.7792 0.4785
C9_8 C 0.99448(14) 0.72987(19) 0.4800(2)
C10_8 C 0.93803(14) 0.73361(19) 0.4209(2)
C15_8 C 0.99861(16) 0.6985(2) 0.5723(2)
H7_8 H 0.9657 0.6777 0.5965
C17_8 C 0.88450(15) 0.7285(2) 0.4715(3)
H9_8 H 0.8834 0.7210 0.5429
C18_8 C 0.83260(13) 0.73449(19) 0.4160(3)
H10_8 H 0.7969 0.7301 0.4518
C23_8 C 0.88141(17) 0.7486(3) 0.2656(3)
H15_8 H 0.8814 0.7564 0.1943
C24_8 C 0.93560(16) 0.7398(3) 0.3153(3)
H16_8 H 0.9704 0.7381 0.2761
H2_5 H 0.8058 0.8870 0.9788
C13_5 C 0.79829(18) 0.97623(13) 0.9611(2)
H5_5 H 0.8086 0.9766 0.8908
H2_6 H 0.1942 0.1130 0.9788
C13_6 C 0.20171(18) 0.02377(13) 0.9611(2)
H5_6 H 0.1914 0.0234 0.8908
C5_6 C 0.21561(17) 0.97024(13) 0.0097(2)
H8_6 H 0.2754 0.8716 0.0502
C20_6 C 0.2268(3) 0.97213(15) 0.1161(3)
H12_6 H 0.2340 0.9370 0.1520
H2_7 H 0.1130 0.1942 0.0212
C13_7 C 0.02377(13) 0.20171(18) 0.0389(2)
H5_7 H 0.0234 0.1914 0.1092
C5_7 C 0.97024(13) 0.21561(17) 0.9903(2)
H8_7 H 0.8716 0.2754 0.9498
C20_7 C 0.97213(15) 0.2268(3) 0.8839(3)
H12_7 H 0.9370 0.2340 0.8480
C5_8 C 0.02976(13) 0.78439(17) 0.9903(2)
H8_8 H 0.1284 0.7246 0.9498
C20_8 C 0.02787(15) 0.7732(3) 0.8839(3)
H12_8 H 0.0630 0.7660 0.8480
H2_8 H 0.8870 0.8058 0.0212
C13_8 C 0.97623(13) 0.79829(18) 0.0389(2)
H5_8 H 0.9766 0.8086 0.1092
loop_
_geom_bond_atom_site_label_1
_geom_bond_atom_site_label_2
_geom_bond_site_symmetry_1
_geom_bond_site_symmetry_2
N2 C18 1_555 1_555
C9 C10 1_555 1_555
C10 C17 1_555 1_555
C15 C9 1_555 1_555
H7 C15 1_555 1_555
C17 H9 1_555 1_555
C18 C17 1_555 1_555
H10 C18 1_555 1_555
C23 N2 1_555 1_555
H15 C23 1_555 1_555
C24 C10 1_555 1_555
H16 C24 1_555 1_555
Ni2 N2 1_555 1_555
C23 C24 1_555 1_555
Ni1 O1 1_555 1_555
O1 C3 1_555 1_555
O2 Ni1 1_555 1_555
O3 Ni1 1_555 1_555
O4 Ni1 1_555 1_555
C1 O2 1_555 1_555
C3 O4 1_555 1_555
C6 C1 1_555 1_555
C8 C3 1_555 1_555
C12 C8 1_555 1_555
H4 C12 1_555 1_555
H11 C19 1_555 1_555
C20 C5 1_555 1_555
H12 C20 1_555 1_555
C21 C6 1_555 1_555
H13 C21 1_555 1_555
C22 C8 1_555 1_555
H14 C22 1_555 1_555
N3 Ni1 1_555 1_555
N4 Ni1 1_555 1_555
O3 C1 1_555 1_555
C4 C6 1_555 1_555
C19 C22 1_555 1_555
C20 C21 1_555 1_555
N1 C2 1_555 1_555
C2 H1 1_555 1_555
C7 N1 1_555 1_555
H3 C7 1_555 1_555
C11 C14 1_555 1_555
H5 C13 1_555 1_555
C14 C2 1_555 1_555
H6 C14 1_555 1_555
C16 C7 1_555 1_555
Ni2 N1 1_555 1_555
C11 C16 1_555 1_555
Ni2 O1_2 1_555 1_555
O1_2 C3_2 1_555 1_555
O2_2 Ni2 1_555 1_555
O3_2 Ni2 1_555 1_555
O4_2 Ni2 1_555 1_555
N4 C18_2 1_555 1_555
C1_2 O2_2 1_555 1_555
C3_2 O4_2 1_555 1_555
C6_2 C1_2 1_555 1_555
C8_2 C3_2 1_555 1_555
C9_2 C10_2 1_555 1_555
C10_2 C17_2 1_555 1_555
C12_2 C8_2 1_555 1_555
H4_2 C12_2 1_555 1_555
C15_2 C9_2 1_555 1_555
H7_2 C15_2 1_555 1_555
C17_2 H9_2 1_555 1_555
C18_2 C17_2 1_555 1_555
H10_2 C18_2 1_555 1_555
C19_2 C9_2 1_555 1_555
H11_2 C19_2 1_555 1_555
C21_2 C6_2 1_555 1_555
H13_2 C21_2 1_555 1_555
C22_2 C8_2 1_555 1_555
H14_2 C22_2 1_555 1_555
C23_2 N4 1_555 1_555
H15_2 C23_2 1_555 1_555
C24_2 C10_2 1_555 1_555
H16_2 C24_2 1_555 1_555
O3_2 C1_2 1_555 1_555
C4_2 C6_2 1_555 1_555
C12_2 C15_2 1_555 1_555
C19_2 C22_2 1_555 1_555
C23_2 C24_2 1_555 1_555
N3 C2_2 1_555 1_555
C2_2 H1_2 1_555 1_555
C7_2 N3 1_555 1_555
H3_2 C7_2 1_555 1_555
C11_2 C14_2 1_555 1_555
C14_2 C2_2 1_555 1_555
H6_2 C14_2 1_555 1_555
C16_2 C7_2 1_555 1_555
C11_2 C16_2 1_555 1_555
N1_2 C2_3 1_555 1_555
C2_3 H1_3 1_555 1_555
C7_3 N1_2 1_555 1_555
H3_3 C7_3 1_555 1_555
C11_3 C14_3 1_555 1_555
H5_2 C13_2 1_555 1_555
C14_3 C2_3 1_555 1_555
H6_3 C14_3 1_555 1_555
C16_3 C7_3 1_555 1_555
Ni3 N1_2 1_555 1_555
C11_3 C16_3 1_555 1_555
Ni1_2 O1_3 1_555 1_555
O1_3 C3_3 1_555 1_555
O2_3 Ni1_2 1_555 1_555
O3_3 Ni1_2 1_555 1_555
O4_3 Ni1_2 1_555 1_555
C1_3 O2_3 1_555 1_555
C3_3 O4_3 1_555 1_555
C6_3 C1_3 1_555 1_555
C8_3 C3_3 1_555 1_555
C12_3 C8_3 1_555 1_555
H4_3 C12_3 1_555 1_555
H11_3 C19_3 1_555 1_555
C20_2 C5_2 1_555 1_555
H12_2 C20_2 1_555 1_555
C21_3 C6_3 1_555 1_555
H13_3 C21_3 1_555 1_555
C22_3 C8_3 1_555 1_555
H14_3 C22_3 1_555 1_555
N3_2 Ni1_2 1_555 1_555
N4_2 Ni1_2 1_555 1_555
O3_3 C1_3 1_555 1_555
C4_3 C6_3 1_555 1_555
C19_3 C22_3 1_555 1_555
C20_2 C21_3 1_555 1_555
N2_2 C18_3 1_555 1_555
C9_3 C10_3 1_555 1_555
C10_3 C17_3 1_555 1_555
C15_3 C9_3 1_555 1_555
H7_3 C15_3 1_555 1_555
C17_3 H9_3 1_555 1_555
C18_3 C17_3 1_555 1_555
H10_3 C18_3 1_555 1_555
C23_3 N2_2 1_555 1_555
H15_3 C23_3 1_555 1_555
C24_3 C10_3 1_555 1_555
H16_3 C24_3 1_555 1_555
Ni3 N2_2 1_555 1_555
C23_3 C24_3 1_555 1_555
N3_2 C2_4 1_555 1_555
C2_4 H1_4 1_555 1_555
C7_4 N3_2 1_555 1_555
H3_4 C7_4 1_555 1_555
C11_4 C14_4 1_555 1_555
C14_4 C2_4 1_555 1_555
H6_4 C14_4 1_555 1_555
C16_4 C7_4 1_555 1_555
C11_4 C16_4 1_555 1_555
Ni3 O1_4 1_555 1_555
O1_4 C3_4 1_555 1_555
O2_4 Ni3 1_555 1_555
O3_4 Ni3 1_555 1_555
O4_4 Ni3 1_555 1_555
N4_2 C18_4 1_555 1_555
C1_4 O2_4 1_555 1_555
C3_4 O4_4 1_555 1_555
C6_4 C1_4 1_555 1_555
C8_4 C3_4 1_555 1_555
C9_4 C10_4 1_555 1_555
C10_4 C17_4 1_555 1_555
C12_4 C8_4 1_555 1_555
H4_4 C12_4 1_555 1_555
C15_4 C9_4 1_555 1_555
H7_4 C15_4 1_555 1_555
C17_4 H9_4 1_555 1_555
C18_4 C17_4 1_555 1_555
H10_4 C18_4 1_555 1_555
C19_4 C9_4 1_555 1_555
H11_4 C19_4 1_555 1_555
C21_4 C6_4 1_555 1_555
H13_4 C21_4 1_555 1_555
C22_4 C8_4 1_555 1_555
H14_4 C22_4 1_555 1_555
C23_4 N4_2 1_555 1_555
H15_4 C23_4 1_555 1_555
C24_4 C10_4 1_555 1_555
H16_4 C24_4 1_555 1_555
O3_4 C1_4 1_555 1_555
C4_4 C6_4 1_555 1_555
C12_4 C15_4 1_555 1_555
C19_4 C22_4 1_555 1_555
C23_4 C24_4 1_555 1_555
C20_3 C5_3 1_555 1_555
H12_3 C20_3 1_555 1_555
N1_3 C2_5 1_555 1_555
C2_5 H1_5 1_555 1_555
C7_5 N1_3 1_555 1_555
H3_5 C7_5 1_555 1_555
C11_5 C14_5 1_555 1_555
C14_5 C2_5 1_555 1_555
H6_5 C14_5 1_555 1_555
C16_5 C7_5 1_555 1_555
Ni3_2 N1_3 1_555 1_555
C11_5 C16_5 1_555 1_555
Ni1_3 O1_5 1_555 1_555
O1_5 C3_5 1_555 1_555
O2_5 Ni1_3 1_555 1_555
O3_5 Ni1_3 1_555 1_555
O4_5 Ni1_3 1_555 1_555
N2_3 C18_5 1_555 1_555
C1_5 O2_5 1_555 1_555
C3_5 O4_5 1_555 1_555
C6_5 C1_5 1_555 1_555
C8_5 C3_5 1_555 1_555
C9_5 C10_5 1_555 1_555
C10_5 C17_5 1_555 1_555
C12_5 C8_5 1_555 1_555
H4_5 C12_5 1_555 1_555
C15_5 C9_5 1_555 1_555
H7_5 C15_5 1_555 1_555
C17_5 H9_5 1_555 1_555
C18_5 C17_5 1_555 1_555
H10_5 C18_5 1_555 1_555
C19_5 C9_5 1_555 1_555
H11_5 C19_5 1_555 1_555
C21_5 C6_5 1_555 1_555
H13_5 C21_5 1_555 1_555
C22_5 C8_5 1_555 1_555
H14_5 C22_5 1_555 1_555
C23_5 N2_3 1_555 1_555
H15_5 C23_5 1_555 1_555
C24_5 C10_5 1_555 1_555
H16_5 C24_5 1_555 1_555
Ni3_2 N2_3 1_555 1_555
N3_3 Ni1_3 1_555 1_555
N4_3 Ni1_3 1_555 1_555
O3_5 C1_5 1_555 1_555
C4_5 C6_5 1_555 1_555
C12_5 C15_5 1_555 1_555
C19_5 C22_5 1_555 1_555
C23_5 C24_5 1_555 1_555
N4_3 C18_6 1_555 1_555
C9_6 C10_6 1_555 1_555
C10_6 C17_6 1_555 1_555
C15_6 C9_6 1_555 1_555
H7_6 C15_6 1_555 1_555
C17_6 H9_6 1_555 1_555
C18_6 C17_6 1_555 1_555
H10_6 C18_6 1_555 1_555
C23_6 N4_3 1_555 1_555
H15_6 C23_6 1_555 1_555
C24_6 C10_6 1_555 1_555
H16_6 C24_6 1_555 1_555
C23_6 C24_6 1_555 1_555
Ni3_2 O1_6 1_555 1_555
O1_6 C3_6 1_555 1_555
O2_6 Ni3_2 1_555 1_555
O3_6 Ni3_2 1_555 1_555
O4_6 Ni3_2 1_555 1_555
C1_6 O2_6 1_555 1_555
C3_6 O4_6 1_555 1_555
C6_6 C1_6 1_555 1_555
C8_6 C3_6 1_555 1_555
C12_6 C8_6 1_555 1_555
H4_6 C12_6 1_555 1_555
H11_6 C19_6 1_555 1_555
C20_4 C5_4 1_555 1_555
H12_4 C20_4 1_555 1_555
C21_6 C6_6 1_555 1_555
H13_6 C21_6 1_555 1_555
C22_6 C8_6 1_555 1_555
H14_6 C22_6 1_555 1_555
O3_6 C1_6 1_555 1_555
C4_6 C6_6 1_555 1_555
C19_6 C22_6 1_555 1_555
C20_4 C21_6 1_555 1_555
N3_3 C2_6 1_555 1_555
C2_6 H1_6 1_555 1_555
C7_6 N3_3 1_555 1_555
H3_6 C7_6 1_555 1_555
C11_6 C14_6 1_555 1_555
H5_3 C13_3 1_555 1_555
C14_6 C2_6 1_555 1_555
H6_6 C14_6 1_555 1_555
C16_6 C7_6 1_555 1_555
C11_6 C16_6 1_555 1_555
Ni1_4 O1_7 1_555 1_555
O1_7 C3_7 1_555 1_555
O2_7 Ni1_4 1_555 1_555
O3_7 Ni1_4 1_555 1_555
O4_7 Ni1_4 1_555 1_555
N2_4 C18_7 1_555 1_555
C1_7 O2_7 1_555 1_555
C3_7 O4_7 1_555 1_555
C6_7 C1_7 1_555 1_555
C8_7 C3_7 1_555 1_555
C9_7 C10_7 1_555 1_555
C10_7 C17_7 1_555 1_555
C12_7 C8_7 1_555 1_555
H4_7 C12_7 1_555 1_555
C15_7 C9_7 1_555 1_555
H7_7 C15_7 1_555 1_555
C17_7 H9_7 1_555 1_555
C18_7 C17_7 1_555 1_555
H10_7 C18_7 1_555 1_555
C19_7 C9_7 1_555 1_555
H11_7 C19_7 1_555 1_555
C21_7 C6_7 1_555 1_555
H13_7 C21_7 1_555 1_555
C22_7 C8_7 1_555 1_555
H14_7 C22_7 1_555 1_555
C23_7 N2_4 1_555 1_555
H15_7 C23_7 1_555 1_555
C24_7 C10_7 1_555 1_555
H16_7 C24_7 1_555 1_555
Ni2_2 N2_4 1_555 1_555
N3_4 Ni1_4 1_555 1_555
N4_4 Ni1_4 1_555 1_555
O3_7 C1_7 1_555 1_555
C4_7 C6_7 1_555 1_555
C12_7 C15_7 1_555 1_555
C19_7 C22_7 1_555 1_555
C23_7 C24_7 1_555 1_555
N1_4 C2_7 1_555 1_555
C2_7 H1_7 1_555 1_555
C7_7 N1_4 1_555 1_555
H3_7 C7_7 1_555 1_555
C11_7 C14_7 1_555 1_555
C14_7 C2_7 1_555 1_555
H6_7 C14_7 1_555 1_555
C16_7 C7_7 1_555 1_555
Ni2_2 N1_4 1_555 1_555
C11_7 C16_7 1_555 1_555
N3_4 C2_8 1_555 1_555
C2_8 H1_8 1_555 1_555
C7_8 N3_4 1_555 1_555
H3_8 C7_8 1_555 1_555
C11_8 C14_8 1_555 1_555
H5_4 C13_4 1_555 1_555
C14_8 C2_8 1_555 1_555
H6_8 C14_8 1_555 1_555
C16_8 C7_8 1_555 1_555
C11_8 C16_8 1_555 1_555
Ni2_2 O1_8 1_555 1_555
O1_8 C3_8 1_555 1_555
O2_8 Ni2_2 1_555 1_555
O3_8 Ni2_2 1_555 1_555
O4_8 Ni2_2 1_555 1_555
C1_8 O2_8 1_555 1_555
C3_8 O4_8 1_555 1_555
C6_8 C1_8 1_555 1_555
C8_8 C3_8 1_555 1_555
C12_8 C8_8 1_555 1_555
H4_8 C12_8 1_555 1_555
H11_8 C19_8 1_555 1_555
C20_5 C5_5 1_555 1_555
H12_5 C20_5 1_555 1_555
C21_8 C6_8 1_555 1_555
H13_8 C21_8 1_555 1_555
C22_8 C8_8 1_555 1_555
H14_8 C22_8 1_555 1_555
O3_8 C1_8 1_555 1_555
C4_8 C6_8 1_555 1_555
C19_8 C22_8 1_555 1_555
C20_5 C21_8 1_555 1_555
N4_4 C18_8 1_555 1_555
C9_8 C10_8 1_555 1_555
C10_8 C17_8 1_555 1_555
C15_8 C9_8 1_555 1_555
H7_8 C15_8 1_555 1_555
C17_8 H9_8 1_555 1_555
C18_8 C17_8 1_555 1_555
H10_8 C18_8 1_555 1_555
C23_8 N4_4 1_555 1_555
H15_8 C23_8 1_555 1_555
C24_8 C10_8 1_555 1_555
H16_8 C24_8 1_555 1_555
C23_8 C24_8 1_555 1_555
H5_5 C13_5 1_555 1_555
H5_6 C13_6 1_555 1_555
C20_6 C5_6 1_555 1_555
H12_6 C20_6 1_555 1_555
H5_7 C13_7 1_555 1_555
C20_7 C5_7 1_555 1_555
H12_7 C20_7 1_555 1_555
C20_8 C5_8 1_555 1_555
H12_8 C20_8 1_555 1_555
H5_8 C13_8 1_555 1_555

#END
