
###############################################################################
#
# This file contains modified crystal structure data generated from the
# MOF subset of the Cambridge Structural Database (CSD) v543 
# hosted by the Cambridge Crystallographic Data Centre (CCDC).
#
# This work is licensed under the Creative Commons
# Attribution-NonCommercial-ShareAlike 4.0 International License.
# To view a copy of this license, visit
# http://creativecommons.org/licenses/by-nc-sa/4.0/
# or send a letter to
# Creative Commons, PO Box 1866, Mountain View, CA 94042, USA.
#
# CIF created using the CSD Python API on 29 September 2022
# The structure has been converted into the P1 space group
# The structure has a 3D framework
# The original CSD entry GAXBAM is in the monoclinic crystal system
# The framework has been calculated to contain at least 10.0% void space
# The void calculation uses a probe of radius 1.32A, grid spacing 0.4
#
###############################################################################

data_GAXBAM
_chemical_formula_moiety         '(C352 H264 In8 N16 O64)n'
_symmetry_cell_setting           triclinic
_symmetry_space_group_name_H-M   'P 1'
_symmetry_Int_Tables_number      1
_space_group_name_Hall           'P 1'
loop_
_symmetry_equiv_pos_site_id
_symmetry_equiv_pos_as_xyz
1 x,y,z
_cell_length_a                   27.0347(11)
_cell_length_b                   20.9978(7)
_cell_length_c                   26.5900(10)
_cell_angle_alpha                90
_cell_angle_beta                 96.465(4)
_cell_angle_gamma                90
_cell_volume                     14998.3
loop_
_atom_site_label
_atom_site_type_symbol
_atom_site_fract_x
_atom_site_fract_y
_atom_site_fract_z
O1 O 0.7388(2) 0.1004(3) 0.5899(3)
O2 O 0.3002(2) 0.8107(3) 0.5403(3)
O3 O 0.3431(3) 0.7636(3) 0.6034(3)
O4 O 0.3406(3) 0.6646(3) 0.1985(2)
O5 O 0.3108(3) 0.5690(4) 0.1854(3)
N1 N 0.3737(3) 0.5666(3) 0.4258(3)
O6 O 0.7361(3) 0.1856(3) 0.6366(3)
N2 N 0.5055(3) 0.1481(3) 0.5526(4)
C1 C 0.3648(4) 0.5749(4) 0.3724(3)
C2 C 0.3266(3) 0.7649(4) 0.5572(4)
C3 C 0.3619(4) 0.6149(4) 0.4590(3)
C4 C 0.3447(4) 0.5964(4) 0.2690(3)
C5 C 0.3934(4) 0.5069(4) 0.4443(4)
C6 C 0.3325(3) 0.6096(5) 0.2143(4)
C7 C 0.4865(3) 0.2089(4) 0.5337(5)
C8 C 0.4505(4) 0.3262(4) 0.4985(4)
C9 C 0.3689(4) 0.6425(4) 0.3002(3)
H2 H 0.3785 0.6804 0.2861
C10 C 0.4981(4) 0.2310(4) 0.4877(5)
C11 C 0.3377(4) 0.7106(4) 0.5248(3)
C12 C 0.6586(3) 0.1416(4) 0.5975(4)
C13 C 0.4417(4) 0.4904(4) 0.4382(4)
C14 C 0.4305(4) 0.3887(5) 0.4804(4)
C15 C 0.4590(4) 0.4310(4) 0.4557(4)
H3 H 0.4912 0.4192 0.4506
C16 C 0.3440(4) 0.5280(4) 0.3408(4)
H4 H 0.3360 0.4887 0.3539
C17 C 0.7143(4) 0.1426(4) 0.6091(4)
C18 C 0.4720(3) 0.0964(4) 0.5542(4)
C19 C 0.5566(3) 0.1445(4) 0.5694(4)
C20 C 0.3791(4) 0.6330(4) 0.3518(4)
H5 H 0.3950 0.6643 0.3725
C21 C 0.4566(4) 0.2439(4) 0.5628(4)
C22 C 0.3244(4) 0.6581(4) 0.4446(3)
H6 H 0.3064 0.6544 0.4128
C23 C 0.3350(4) 0.5395(5) 0.2891(4)
H7 H 0.3220 0.5070 0.2678
C24 C 0.4391(4) 0.3031(5) 0.5443(4)
H8 H 0.4193 0.3274 0.5634
C25 C 0.3132(4) 0.7055(4) 0.4757(3)
H9 H 0.2890 0.7352 0.4643
C26 C 0.5848(4) 0.0920(4) 0.5576(4)
H10 H 0.5695 0.0576 0.5400
C27 C 0.3835(4) 0.4087(4) 0.4867(4)
H11 H 0.3635 0.3818 0.5034
C28 C 0.3932(4) 0.0486(5) 0.5271(5)
H12 H 0.3631 0.0493 0.5064
C29 C 0.4022(4) 0.0005(4) 0.5617(4)
C30 C 0.4803(4) 0.2900(4) 0.4702(4)
H13 H 0.4884 0.3053 0.4394
C31 C 0.6309(4) 0.1927(4) 0.6096(4)
H14 H 0.6464 0.2264 0.6278
C33 C 0.5800(3) 0.1950(4) 0.5952(5)
H15 H 0.5617 0.2305 0.6029
C34 C 0.4818(4) 0.0465(5) 0.5890(5)
H16 H 0.5118 0.0453 0.6098
C35 C 0.3851(5) 0.6188(5) 0.5076(4)
H17 H 0.4092 0.5889 0.5189
C36 C 0.3641(4) 0.4661(4) 0.4697(4)
C37 C 0.3735(4) 0.6655(5) 0.5394(4)
H18 H 0.3902 0.6672 0.5719
C38 C 0.6355(4) 0.0912(4) 0.5721(5)
H19 H 0.6542 0.0560 0.5644
C40 C 0.4277(4) 0.0960(5) 0.5224(5)
H21 H 0.4212 0.1275 0.4979
C41 C 0.5296(5) 0.1924(5) 0.4552(5)
H22 H 0.5635 0.1924 0.4702
H23 H 0.5277 0.2109 0.4220
H24 H 0.5174 0.1494 0.4526
C42 C 0.4449(6) 0.2219(7) 0.6134(5)
H25 H 0.4618 0.1824 0.6218
H26 H 0.4096 0.2158 0.6126
H27 H 0.4558 0.2534 0.6385
C43 C 0.4753(4) 0.5355(6) 0.4134(5)
H28 H 0.4662 0.5353 0.3775
H29 H 0.5092 0.5221 0.4208
H30 H 0.4716 0.5778 0.4263
C44 C 0.3115(5) 0.4834(6) 0.4775(6)
H31 H 0.3098 0.5279 0.4853
H32 H 0.3012 0.4588 0.5049
H33 H 0.2899 0.4745 0.4471
In2 In 0.31277(2) 0.85937(3) 0.61873(2)
In3 In 0.81277(2) 0.14063(3) 0.61873(2)
In4 In 0.31277(2) 0.64063(3) 0.11873(2)
O7 O 0.3742(3) 0.9102(4) 0.6011(3)
O8 O 0.3221(3) 0.9540(4) 0.5435(5)
H1 H 0.3123 0.9176 0.5373
C32 C 0.3630(5) 0.9523(5) 0.5676(6)
C39 C 0.4474(4) 0.9998(5) 0.5924(5)
H20 H 0.4542 0.9670 0.6156
O9 O 0.2388(2) 0.8996(3) 0.5899(3)
O12 O 0.3406(3) 0.8354(3) 0.6985(2)
O13 O 0.3108(3) 0.9310(4) 0.6854(3)
O14 O 0.2361(3) 0.8144(3) 0.6366(3)
O1_2 O 0.2388(2) 0.6004(3) 0.0899(3)
O6_2 O 0.2361(3) 0.6856(3) 0.1366(3)
N2_2 N 0.0055(3) 0.6481(3) 0.0526(4)
C12_2 C 0.1586(3) 0.6416(4) 0.0975(4)
C17_2 C 0.2143(4) 0.6426(4) 0.1091(4)
C19_2 C 0.0566(3) 0.6445(4) 0.0694(4)
C26_2 C 0.0848(4) 0.5920(4) 0.0576(4)
H10_2 H 0.0695 0.5576 0.0400
C31_2 C 0.1309(4) 0.6927(4) 0.1096(4)
H14_2 H 0.1464 0.7264 0.1278
C33_2 C 0.0800(3) 0.6950(4) 0.0952(5)
H15_2 H 0.0617 0.7305 0.1029
H16_2 H 0.0118 0.5453 0.1098
C38_2 C 0.1355(4) 0.5912(4) 0.0721(5)
H19_2 H 0.1542 0.5560 0.0644
O2_2 O 0.8002(2) 0.3107(3) 0.0403(3)
O3_2 O 0.8431(3) 0.2636(3) 0.1034(3)
C2_2 C 0.8266(3) 0.2649(4) 0.0572(4)
C11_2 C 0.8377(4) 0.2106(4) 0.0248(3)
C35_2 C 0.8851(5) 0.1188(5) 0.0076(4)
H17_2 H 0.9092 0.0889 0.0189
C37_2 C 0.8735(4) 0.1655(5) 0.0394(4)
H18_2 H 0.8902 0.1672 0.0719
In2_2 In 0.81277(2) 0.35937(3) 0.11873(2)
O4_2 O 0.8406(3) 0.1646(3) 0.6985(2)
O5_2 O 0.8108(3) 0.0690(4) 0.6854(3)
N1_2 N 0.8737(3) 0.0666(3) 0.9258(3)
C1_2 C 0.8648(4) 0.0749(4) 0.8724(3)
C3_2 C 0.8619(4) 0.1149(4) 0.9590(3)
C4_2 C 0.8447(4) 0.0964(4) 0.7690(3)
C5_2 C 0.8934(4) 0.0069(4) 0.9443(4)
C6_2 C 0.8325(3) 0.1096(5) 0.7143(4)
C9_2 C 0.8689(4) 0.1425(4) 0.8002(3)
H2_2 H 0.8785 0.1804 0.7861
C16_2 C 0.8440(4) 0.0280(4) 0.8408(4)
C20_2 C 0.8791(4) 0.1330(4) 0.8518(4)
H5_2 H 0.8950 0.1643 0.8725
C22_2 C 0.8244(4) 0.1581(4) 0.9446(3)
H6_2 H 0.8064 0.1544 0.9128
C23_2 C 0.8350(4) 0.0395(5) 0.7891(4)
H7_2 H 0.8220 0.0070 0.7678
C25_2 C 0.8132(4) 0.2055(4) 0.9757(3)
H9_2 H 0.7890 0.2352 0.9643
C43_2 C 0.9753(4) 0.0355(6) 0.9134(5)
H28_2 H 0.9662 0.0353 0.8775
H30_2 H 0.9716 0.0778 0.9263
H31_2 H 0.8098 0.0279 0.9853
O7_2 O 0.8742(3) 0.4102(4) 0.1011(3)
O8_2 O 0.8221(3) 0.4540(4) 0.0435(5)
H1_2 H 0.8123 0.4176 0.0373
C7_2 C 0.9865(3) 0.7089(4) 0.0337(5)
C18_2 C 0.9720(3) 0.5964(4) 0.0542(4)
C21_2 C 0.9566(4) 0.7439(4) 0.0628(4)
C24_2 C 0.9391(4) 0.8031(5) 0.0443(4)
H8_2 H 0.9193 0.8274 0.0634
H11_2 H 0.8635 0.8818 0.0034
C28_2 C 0.8932(4) 0.5486(5) 0.0271(5)
H12_2 H 0.8631 0.5493 0.0064
C29_2 C 0.9022(4) 0.5005(4) 0.0617(4)
C32_2 C 0.8630(5) 0.4523(5) 0.0676(6)
C34_2 C 0.9818(4) 0.5465(5) 0.0890(5)
C39_2 C 0.9474(4) 0.4998(5) 0.0924(5)
H20_2 H 0.9542 0.4670 0.1156
C40_2 C 0.9277(4) 0.5960(5) 0.0224(5)
C42_2 C 0.9449(6) 0.7219(7) 0.1134(5)
H25_2 H 0.9618 0.6824 0.1218
H26_2 H 0.9096 0.7158 0.1126
H27_2 H 0.9558 0.7534 0.1385
H32_2 H 0.8012 0.9588 0.0049
O9_2 O 0.7388(2) 0.3996(3) 0.0899(3)
O12_2 O 0.8406(3) 0.3354(3) 0.1985(2)
O13_2 O 0.8108(3) 0.4310(4) 0.1854(3)
O14_2 O 0.7361(3) 0.3144(3) 0.1366(3)
N2_3 N 0.0055(3) 0.8519(3) 0.5526(4)
C12_3 C 0.1586(3) 0.8584(4) 0.5975(4)
C17_3 C 0.2143(4) 0.8574(4) 0.6091(4)
C19_3 C 0.0566(3) 0.8555(4) 0.5694(4)
C26_3 C 0.0848(4) 0.9080(4) 0.5576(4)
H10_3 H 0.0695 0.9424 0.5400
C31_3 C 0.1309(4) 0.8073(4) 0.6096(4)
H14_3 H 0.1464 0.7736 0.6278
C33_3 C 0.0800(3) 0.8050(4) 0.5952(5)
H15_3 H 0.0617 0.7695 0.6029
H16_3 H 0.0118 0.9547 0.6098
C38_3 C 0.1355(4) 0.9088(4) 0.5721(5)
H19_3 H 0.1542 0.9440 0.5644
C41_2 C 0.0296(5) 0.8076(5) 0.4552(5)
H22_2 H 0.0635 0.8076 0.4702
H23_2 H 0.0277 0.7891 0.4220
H24_2 H 0.0174 0.8506 0.4526
H29_2 H 0.0092 0.4779 0.4208
O7_3 O 0.8742(3) 0.0898(4) 0.6011(3)
O8_3 O 0.8221(3) 0.0460(4) 0.5435(5)
H1_3 H 0.8123 0.0824 0.5373
C32_3 C 0.8630(5) 0.0477(5) 0.5676(6)
C39_3 C 0.9474(4) 0.0002(5) 0.5924(5)
H20_3 H 0.9542 0.0330 0.6156
O10 O 0.8002(2) 0.1893(3) 0.5403(3)
O11 O 0.8431(3) 0.2364(3) 0.6034(3)
N1_3 N 0.8737(3) 0.4334(3) 0.4258(3)
C1_3 C 0.8648(4) 0.4251(4) 0.3724(3)
C2_3 C 0.8266(3) 0.2351(4) 0.5572(4)
C3_3 C 0.8619(4) 0.3851(4) 0.4590(3)
C4_3 C 0.8447(4) 0.4036(4) 0.2690(3)
C5_3 C 0.8934(4) 0.4931(4) 0.4443(4)
C6_3 C 0.8325(3) 0.3904(5) 0.2143(4)
C7_3 C 0.9865(3) 0.7911(4) 0.5337(5)
C8_2 C 0.9505(4) 0.6738(4) 0.4985(4)
C9_3 C 0.8689(4) 0.3575(4) 0.3002(3)
H2_3 H 0.8785 0.3196 0.2861
C10_2 C 0.9981(4) 0.7690(4) 0.4877(5)
C11_3 C 0.8377(4) 0.2894(4) 0.5248(3)
C13_2 C 0.9417(4) 0.5096(4) 0.4382(4)
C14_2 C 0.9305(4) 0.6113(5) 0.4804(4)
C15_2 C 0.9590(4) 0.5690(4) 0.4557(4)
H3_2 H 0.9912 0.5808 0.4506
C16_3 C 0.8440(4) 0.4720(4) 0.3408(4)
H4_2 H 0.8360 0.5113 0.3539
C18_3 C 0.9720(3) 0.9036(4) 0.5542(4)
C20_3 C 0.8791(4) 0.3670(4) 0.3518(4)
H5_3 H 0.8950 0.3357 0.3725
C21_3 C 0.9566(4) 0.7561(4) 0.5628(4)
C22_3 C 0.8244(4) 0.3419(4) 0.4446(3)
H6_3 H 0.8064 0.3456 0.4128
C23_3 C 0.8350(4) 0.4605(5) 0.2891(4)
H7_3 H 0.8220 0.4930 0.2678
C24_3 C 0.9391(4) 0.6969(5) 0.5443(4)
H8_3 H 0.9193 0.6726 0.5634
C25_3 C 0.8132(4) 0.2945(4) 0.4757(3)
H9_3 H 0.7890 0.2648 0.4643
C27_2 C 0.8835(4) 0.5913(4) 0.4867(4)
H11_3 H 0.8635 0.6182 0.5034
C28_3 C 0.8932(4) 0.9514(5) 0.5271(5)
H12_3 H 0.8631 0.9507 0.5064
C29_3 C 0.9022(4) 0.9995(4) 0.5617(4)
C30_2 C 0.9803(4) 0.7100(4) 0.4702(4)
H13_2 H 0.9884 0.6947 0.4394
C34_3 C 0.9818(4) 0.9535(5) 0.5890(5)
C35_3 C 0.8851(5) 0.3812(5) 0.5076(4)
H17_3 H 0.9092 0.4111 0.5189
C36_2 C 0.8641(4) 0.5339(4) 0.4697(4)
C37_3 C 0.8735(4) 0.3345(5) 0.5394(4)
H18_3 H 0.8902 0.3328 0.5719
C40_3 C 0.9277(4) 0.9040(5) 0.5224(5)
H21_2 H 0.9212 0.8725 0.4979
C42_3 C 0.9449(6) 0.7781(7) 0.6134(5)
H25_3 H 0.9618 0.8176 0.6218
H26_3 H 0.9096 0.7842 0.6126
H27_3 H 0.9558 0.7466 0.6385
C43_3 C 0.9753(4) 0.4645(6) 0.4134(5)
H28_3 H 0.9662 0.4647 0.3775
H30_3 H 0.9716 0.4222 0.4263
C44_2 C 0.8115(5) 0.5166(6) 0.4775(6)
H31_3 H 0.8098 0.4721 0.4853
H32_3 H 0.8012 0.5412 0.5049
H33_2 H 0.7899 0.5255 0.4471
O7_4 O 0.3742(3) 0.5898(4) 0.1011(3)
N2_4 N 0.5055(3) 0.3519(3) 0.0526(4)
O8_4 O 0.3221(3) 0.5460(4) 0.0435(5)
H1_4 H 0.3123 0.5824 0.0373
C7_4 C 0.4865(3) 0.2911(4) 0.0337(5)
C12_4 C 0.6586(3) 0.3584(4) 0.0975(4)
C17_4 C 0.7143(4) 0.3574(4) 0.1091(4)
C18_4 C 0.4720(3) 0.4036(4) 0.0542(4)
C19_4 C 0.5566(3) 0.3555(4) 0.0694(4)
C21_4 C 0.4566(4) 0.2561(4) 0.0628(4)
C24_4 C 0.4391(4) 0.1969(5) 0.0443(4)
H8_4 H 0.4193 0.1726 0.0634
C26_4 C 0.5848(4) 0.4080(4) 0.0576(4)
H10_4 H 0.5695 0.4424 0.0400
H11_4 H 0.3635 0.1182 0.0034
C28_4 C 0.3932(4) 0.4514(5) 0.0271(5)
H12_4 H 0.3631 0.4507 0.0064
C29_4 C 0.4022(4) 0.4995(4) 0.0617(4)
C31_4 C 0.6309(4) 0.3073(4) 0.1096(4)
H14_4 H 0.6464 0.2736 0.1278
C32_4 C 0.3630(5) 0.5477(5) 0.0676(6)
C33_4 C 0.5800(3) 0.3050(4) 0.0952(5)
H15_4 H 0.5617 0.2695 0.1029
C34_4 C 0.4818(4) 0.4535(5) 0.0890(5)
H16_4 H 0.5118 0.4547 0.1098
C38_4 C 0.6355(4) 0.4088(4) 0.0721(5)
H19_4 H 0.6542 0.4440 0.0644
C39_4 C 0.4474(4) 0.5002(5) 0.0924(5)
H20_4 H 0.4542 0.5330 0.1156
C40_4 C 0.4277(4) 0.4040(5) 0.0224(5)
C42_4 C 0.4449(6) 0.2781(7) 0.1134(5)
H25_4 H 0.4618 0.3176 0.1218
H26_4 H 0.4096 0.2842 0.1126
H27_4 H 0.4558 0.2466 0.1385
H32_4 H 0.3012 0.0412 0.0049
O10_2 O 0.3002(2) 0.6893(3) 0.0403(3)
O11_2 O 0.3431(3) 0.7364(3) 0.1034(3)
C2_4 C 0.3266(3) 0.7351(4) 0.0572(4)
C11_4 C 0.3377(4) 0.7894(4) 0.0248(3)
C35_4 C 0.3851(5) 0.8812(5) 0.0076(4)
H17_4 H 0.4092 0.9111 0.0189
C37_4 C 0.3735(4) 0.8345(5) 0.0394(4)
H18_4 H 0.3902 0.8328 0.0719
N1_4 N 0.3737(3) 0.9334(3) 0.9258(3)
C1_4 C 0.3648(4) 0.9251(4) 0.8724(3)
C3_4 C 0.3619(4) 0.8851(4) 0.9590(3)
C4_4 C 0.3447(4) 0.9036(4) 0.7690(3)
C5_4 C 0.3934(4) 0.9931(4) 0.9443(4)
C6_4 C 0.3325(3) 0.8904(5) 0.7143(4)
C9_4 C 0.3689(4) 0.8575(4) 0.8002(3)
H2_4 H 0.3785 0.8196 0.7861
C16_4 C 0.3440(4) 0.9720(4) 0.8408(4)
C20_4 C 0.3791(4) 0.8670(4) 0.8518(4)
H5_4 H 0.3950 0.8357 0.8725
C22_4 C 0.3244(4) 0.8419(4) 0.9446(3)
H6_4 H 0.3064 0.8456 0.9128
C23_4 C 0.3350(4) 0.9605(5) 0.7891(4)
H7_4 H 0.3220 0.9930 0.7678
C25_4 C 0.3132(4) 0.7945(4) 0.9757(3)
H9_4 H 0.2890 0.7648 0.9643
C43_4 C 0.4753(4) 0.9645(6) 0.9134(5)
H28_4 H 0.4662 0.9647 0.8775
H29_3 H 0.5092 0.9779 0.9208
H30_4 H 0.4716 0.9222 0.9263
H31_4 H 0.3098 0.9721 0.9853
O2_3 O 0.1998(2) 0.8107(3) 0.4597(3)
O3_3 O 0.1569(3) 0.7636(3) 0.3966(3)
O4_3 O 0.1594(3) 0.6646(3) 0.8015(2)
O5_3 O 0.1892(3) 0.5690(4) 0.8146(3)
N1_5 N 0.1263(3) 0.5666(3) 0.5742(3)
C1_5 C 0.1352(4) 0.5749(4) 0.6276(3)
C2_5 C 0.1734(3) 0.7649(4) 0.4428(4)
C3_5 C 0.1381(4) 0.6149(4) 0.5410(3)
C4_5 C 0.1553(4) 0.5964(4) 0.7310(3)
C5_5 C 0.1066(4) 0.5069(4) 0.5557(4)
C6_5 C 0.1675(3) 0.6096(5) 0.7857(4)
C7_5 C 0.0135(3) 0.2089(4) 0.4663(5)
C8_3 C 0.0495(4) 0.3262(4) 0.5015(4)
C9_5 C 0.1311(4) 0.6425(4) 0.6998(3)
H2_5 H 0.1215 0.6804 0.7139
C10_3 C 0.0019(4) 0.2310(4) 0.5123(5)
C11_5 C 0.1623(4) 0.7106(4) 0.4752(3)
C13_3 C 0.0583(4) 0.4904(4) 0.5618(4)
C14_3 C 0.0695(4) 0.3887(5) 0.5196(4)
C15_3 C 0.0410(4) 0.4310(4) 0.5443(4)
H3_3 H 0.0088 0.4192 0.5494
C16_5 C 0.1560(4) 0.5280(4) 0.6592(4)
H4_3 H 0.1640 0.4887 0.6461
C18_5 C 0.0280(3) 0.0964(4) 0.4458(4)
C20_5 C 0.1209(4) 0.6330(4) 0.6482(4)
H5_5 H 0.1050 0.6643 0.6275
C21_5 C 0.0434(4) 0.2439(4) 0.4372(4)
C22_5 C 0.1756(4) 0.6581(4) 0.5554(3)
H6_5 H 0.1936 0.6544 0.5872
C23_5 C 0.1650(4) 0.5395(5) 0.7109(4)
H7_5 H 0.1780 0.5070 0.7322
C24_5 C 0.0609(4) 0.3031(5) 0.4557(4)
H8_5 H 0.0807 0.3274 0.4366
C25_5 C 0.1868(4) 0.7055(4) 0.5243(3)
H9_5 H 0.2110 0.7352 0.5357
C27_3 C 0.1165(4) 0.4087(4) 0.5133(4)
H11_5 H 0.1365 0.3818 0.4966
C28_5 C 0.1068(4) 0.0486(5) 0.4729(5)
H12_5 H 0.1369 0.0493 0.4936
C29_5 C 0.0978(4) 0.0005(4) 0.4383(4)
C30_3 C 0.0197(4) 0.2900(4) 0.5298(4)
H13_3 H 0.0116 0.3053 0.5606
C34_5 C 0.0182(4) 0.0465(5) 0.4110(5)
C35_5 C 0.1149(5) 0.6188(5) 0.4924(4)
H17_5 H 0.0908 0.5889 0.4811
C36_3 C 0.1359(4) 0.4661(4) 0.5303(4)
C37_5 C 0.1265(4) 0.6655(5) 0.4606(4)
H18_5 H 0.1098 0.6672 0.4281
C40_5 C 0.0723(4) 0.0960(5) 0.4776(5)
H21_3 H 0.0788 0.1275 0.5021
C42_5 C 0.0551(6) 0.2219(7) 0.3866(5)
H25_5 H 0.0382 0.1824 0.3782
H26_5 H 0.0904 0.2158 0.3874
H27_5 H 0.0442 0.2534 0.3615
C43_5 C 0.0247(4) 0.5355(6) 0.5866(5)
H28_5 H 0.0338 0.5353 0.6225
H30_5 H 0.0284 0.5778 0.5737
C44_3 C 0.1885(5) 0.4834(6) 0.5225(6)
H31_5 H 0.1902 0.5279 0.5147
H32_5 H 0.1988 0.4588 0.4951
H33_3 H 0.2101 0.4745 0.5529
In2_3 In 0.18723(2) 0.85937(3) 0.38127(2)
In4_2 In 0.18723(2) 0.64063(3) 0.88127(2)
O7_5 O 0.1258(3) 0.9102(4) 0.3989(3)
O8_5 O 0.1779(3) 0.9540(4) 0.4565(5)
H1_5 H 0.1877 0.9176 0.4627
C32_5 C 0.1370(5) 0.9523(5) 0.4324(6)
C39_5 C 0.0526(4) 0.9998(5) 0.4076(5)
H20_5 H 0.0458 0.9670 0.3844
O9_3 O 0.2612(2) 0.8996(3) 0.4101(3)
O12_3 O 0.1594(3) 0.8354(3) 0.3015(2)
O13_3 O 0.1892(3) 0.9310(4) 0.3146(3)
O14_3 O 0.2639(3) 0.8144(3) 0.3634(3)
O1_3 O 0.7612(2) 0.1004(3) 0.4101(3)
O6_3 O 0.7639(3) 0.1856(3) 0.3634(3)
N2_5 N 0.9945(3) 0.1481(3) 0.4474(4)
C12_5 C 0.8414(3) 0.1416(4) 0.4025(4)
C17_5 C 0.7857(4) 0.1426(4) 0.3909(4)
C19_5 C 0.9434(3) 0.1445(4) 0.4306(4)
C26_5 C 0.9152(4) 0.0920(4) 0.4424(4)
H10_5 H 0.9305 0.0576 0.4600
C31_5 C 0.8691(4) 0.1927(4) 0.3904(4)
H14_5 H 0.8536 0.2264 0.3722
C33_5 C 0.9200(3) 0.1950(4) 0.4048(5)
H15_5 H 0.9383 0.2305 0.3971
H16_5 H 0.9882 0.0453 0.3902
C38_5 C 0.8645(4) 0.0912(4) 0.4279(5)
H19_5 H 0.8458 0.0560 0.4356
C41_3 C 0.9704(5) 0.1924(5) 0.5448(5)
H22_3 H 0.9365 0.1924 0.5298
H23_3 H 0.9723 0.2109 0.5780
H24_3 H 0.9826 0.1494 0.5474
H29_4 H 0.9908 0.5221 0.5792
In3_2 In 0.68723(2) 0.14063(3) 0.38127(2)
O4_4 O 0.6594(3) 0.1646(3) 0.3015(2)
O5_4 O 0.6892(3) 0.0690(4) 0.3146(3)
N1_6 N 0.6263(3) 0.0666(3) 0.0742(3)
C1_6 C 0.6352(4) 0.0749(4) 0.1276(3)
C3_6 C 0.6381(4) 0.1149(4) 0.0410(3)
C4_6 C 0.6553(4) 0.0964(4) 0.2310(3)
C5_6 C 0.6066(4) 0.0069(4) 0.0557(4)
C6_6 C 0.6675(3) 0.1096(5) 0.2857(4)
C9_6 C 0.6311(4) 0.1425(4) 0.1998(3)
H2_6 H 0.6215 0.1804 0.2139
C16_6 C 0.6560(4) 0.0280(4) 0.1592(4)
C20_6 C 0.6209(4) 0.1330(4) 0.1482(4)
H5_6 H 0.6050 0.1643 0.1275
C22_6 C 0.6756(4) 0.1581(4) 0.0554(3)
H6_6 H 0.6936 0.1544 0.0872
C23_6 C 0.6650(4) 0.0395(5) 0.2109(4)
H7_6 H 0.6780 0.0070 0.2322
C25_6 C 0.6868(4) 0.2055(4) 0.0243(3)
H9_6 H 0.7110 0.2352 0.0357
C43_6 C 0.5247(4) 0.0355(6) 0.0866(5)
H28_6 H 0.5338 0.0353 0.1225
H29_5 H 0.4908 0.0221 0.0792
H30_6 H 0.5284 0.0778 0.0737
H31_6 H 0.6902 0.0279 0.0147
O2_4 O 0.6998(2) 0.3107(3) 0.9597(3)
O3_4 O 0.6569(3) 0.2636(3) 0.8966(3)
C2_6 C 0.6734(3) 0.2649(4) 0.9428(4)
C11_6 C 0.6623(4) 0.2106(4) 0.9752(3)
C35_6 C 0.6149(5) 0.1188(5) 0.9924(4)
H17_6 H 0.5908 0.0889 0.9811
C37_6 C 0.6265(4) 0.1655(5) 0.9606(4)
H18_6 H 0.6098 0.1672 0.9281
In2_4 In 0.68723(2) 0.35937(3) 0.88127(2)
O1_4 O 0.2612(2) 0.6004(3) 0.9101(3)
O6_4 O 0.2639(3) 0.6856(3) 0.8634(3)
O7_6 O 0.6258(3) 0.4102(4) 0.8989(3)
N2_6 N 0.4945(3) 0.6481(3) 0.9474(4)
O8_6 O 0.6779(3) 0.4540(4) 0.9565(5)
H1_6 H 0.6877 0.4176 0.9627
C7_6 C 0.5135(3) 0.7089(4) 0.9663(5)
C12_6 C 0.3414(3) 0.6416(4) 0.9025(4)
C17_6 C 0.2857(4) 0.6426(4) 0.8909(4)
C18_6 C 0.5280(3) 0.5964(4) 0.9458(4)
C19_6 C 0.4434(3) 0.6445(4) 0.9306(4)
C21_6 C 0.5434(4) 0.7439(4) 0.9372(4)
C24_6 C 0.5609(4) 0.8031(5) 0.9557(4)
H8_6 H 0.5807 0.8274 0.9366
C26_6 C 0.4152(4) 0.5920(4) 0.9424(4)
H10_6 H 0.4305 0.5576 0.9600
H11_6 H 0.6365 0.8818 0.9966
C28_6 C 0.6068(4) 0.5486(5) 0.9729(5)
H12_6 H 0.6369 0.5493 0.9936
C29_6 C 0.5978(4) 0.5005(4) 0.9383(4)
C31_6 C 0.3691(4) 0.6927(4) 0.8904(4)
H14_6 H 0.3536 0.7264 0.8722
C32_6 C 0.6370(5) 0.4523(5) 0.9324(6)
C33_6 C 0.4200(3) 0.6950(4) 0.9048(5)
H15_6 H 0.4383 0.7305 0.8971
C34_6 C 0.5182(4) 0.5465(5) 0.9110(5)
H16_6 H 0.4882 0.5453 0.8902
C38_6 C 0.3645(4) 0.5912(4) 0.9279(5)
H19_6 H 0.3458 0.5560 0.9356
C39_6 C 0.5526(4) 0.4998(5) 0.9076(5)
H20_6 H 0.5458 0.4670 0.8844
C40_6 C 0.5723(4) 0.5960(5) 0.9776(5)
C42_6 C 0.5551(6) 0.7219(7) 0.8866(5)
H25_6 H 0.5382 0.6824 0.8782
H26_6 H 0.5904 0.7158 0.8874
H27_6 H 0.5442 0.7534 0.8615
H32_6 H 0.6988 0.9588 0.9951
O9_4 O 0.7612(2) 0.3996(3) 0.9101(3)
O12_4 O 0.6594(3) 0.3354(3) 0.8015(2)
O13_4 O 0.6892(3) 0.4310(4) 0.8146(3)
O14_4 O 0.7639(3) 0.3144(3) 0.8634(3)
O7_7 O 0.6258(3) 0.0898(4) 0.3989(3)
O8_7 O 0.6779(3) 0.0460(4) 0.4565(5)
H1_7 H 0.6877 0.0824 0.4627
C32_7 C 0.6370(5) 0.0477(5) 0.4324(6)
C39_7 C 0.5526(4) 0.0002(5) 0.4076(5)
H20_7 H 0.5458 0.0330 0.3844
O10_3 O 0.6998(2) 0.1893(3) 0.4597(3)
O11_3 O 0.6569(3) 0.2364(3) 0.3966(3)
N1_7 N 0.6263(3) 0.4334(3) 0.5742(3)
N2_7 N 0.4945(3) 0.8519(3) 0.4474(4)
C1_7 C 0.6352(4) 0.4251(4) 0.6276(3)
C2_7 C 0.6734(3) 0.2351(4) 0.4428(4)
C3_7 C 0.6381(4) 0.3851(4) 0.5410(3)
C4_7 C 0.6553(4) 0.4036(4) 0.7310(3)
C5_7 C 0.6066(4) 0.4931(4) 0.5557(4)
C6_7 C 0.6675(3) 0.3904(5) 0.7857(4)
C7_7 C 0.5135(3) 0.7911(4) 0.4663(5)
C8_4 C 0.5495(4) 0.6738(4) 0.5015(4)
C9_7 C 0.6311(4) 0.3575(4) 0.6998(3)
H2_7 H 0.6215 0.3196 0.7139
C10_4 C 0.5019(4) 0.7690(4) 0.5123(5)
C11_7 C 0.6623(4) 0.2894(4) 0.4752(3)
C12_7 C 0.3414(3) 0.8584(4) 0.4025(4)
C13_4 C 0.5583(4) 0.5096(4) 0.5618(4)
C14_4 C 0.5695(4) 0.6113(5) 0.5196(4)
C15_4 C 0.5410(4) 0.5690(4) 0.5443(4)
H3_4 H 0.5088 0.5808 0.5494
C16_7 C 0.6560(4) 0.4720(4) 0.6592(4)
H4_4 H 0.6640 0.5113 0.6461
C17_7 C 0.2857(4) 0.8574(4) 0.3909(4)
C18_7 C 0.5280(3) 0.9036(4) 0.4458(4)
C19_7 C 0.4434(3) 0.8555(4) 0.4306(4)
C20_7 C 0.6209(4) 0.3670(4) 0.6482(4)
H5_7 H 0.6050 0.3357 0.6275
C21_7 C 0.5434(4) 0.7561(4) 0.4372(4)
C22_7 C 0.6756(4) 0.3419(4) 0.5554(3)
H6_7 H 0.6936 0.3456 0.5872
C23_7 C 0.6650(4) 0.4605(5) 0.7109(4)
H7_7 H 0.6780 0.4930 0.7322
C24_7 C 0.5609(4) 0.6969(5) 0.4557(4)
H8_7 H 0.5807 0.6726 0.4366
C25_7 C 0.6868(4) 0.2945(4) 0.5243(3)
H9_7 H 0.7110 0.2648 0.5357
C26_7 C 0.4152(4) 0.9080(4) 0.4424(4)
H10_7 H 0.4305 0.9424 0.4600
C27_4 C 0.6165(4) 0.5913(4) 0.5133(4)
H11_7 H 0.6365 0.6182 0.4966
C28_7 C 0.6068(4) 0.9514(5) 0.4729(5)
H12_7 H 0.6369 0.9507 0.4936
C29_7 C 0.5978(4) 0.9995(4) 0.4383(4)
C30_4 C 0.5197(4) 0.7100(4) 0.5298(4)
H13_4 H 0.5116 0.6947 0.5606
C31_7 C 0.3691(4) 0.8073(4) 0.3904(4)
H14_7 H 0.3536 0.7736 0.3722
C33_7 C 0.4200(3) 0.8050(4) 0.4048(5)
H15_7 H 0.4383 0.7695 0.3971
C34_7 C 0.5182(4) 0.9535(5) 0.4110(5)
H16_7 H 0.4882 0.9547 0.3902
C35_7 C 0.6149(5) 0.3812(5) 0.4924(4)
H17_7 H 0.5908 0.4111 0.4811
C36_4 C 0.6359(4) 0.5339(4) 0.5303(4)
C37_7 C 0.6265(4) 0.3345(5) 0.4606(4)
H18_7 H 0.6098 0.3328 0.4281
C38_7 C 0.3645(4) 0.9088(4) 0.4279(5)
H19_7 H 0.3458 0.9440 0.4356
C40_7 C 0.5723(4) 0.9040(5) 0.4776(5)
H21_4 H 0.5788 0.8725 0.5021
C41_4 C 0.4704(5) 0.8076(5) 0.5448(5)
H22_4 H 0.4365 0.8076 0.5298
H23_4 H 0.4723 0.7891 0.5780
H24_4 H 0.4826 0.8506 0.5474
C42_7 C 0.5551(6) 0.7781(7) 0.3866(5)
H25_7 H 0.5382 0.8176 0.3782
H26_7 H 0.5904 0.7842 0.3874
H27_7 H 0.5442 0.7466 0.3615
C43_7 C 0.5247(4) 0.4645(6) 0.5866(5)
H28_7 H 0.5338 0.4647 0.6225
H29_6 H 0.4908 0.4779 0.5792
H30_7 H 0.5284 0.4222 0.5737
C44_4 C 0.6885(5) 0.5166(6) 0.5225(6)
H31_7 H 0.6902 0.4721 0.5147
H32_7 H 0.6988 0.5412 0.4951
H33_4 H 0.7101 0.5255 0.5529
O7_8 O 0.1258(3) 0.5898(4) 0.8989(3)
O8_8 O 0.1779(3) 0.5460(4) 0.9565(5)
H1_8 H 0.1877 0.5824 0.9627
C7_8 C 0.0135(3) 0.2911(4) 0.9663(5)
C18_8 C 0.0280(3) 0.4036(4) 0.9458(4)
C21_8 C 0.0434(4) 0.2561(4) 0.9372(4)
C24_8 C 0.0609(4) 0.1969(5) 0.9557(4)
H8_8 H 0.0807 0.1726 0.9366
H11_8 H 0.1365 0.1182 0.9966
C28_8 C 0.1068(4) 0.4514(5) 0.9729(5)
H12_8 H 0.1369 0.4507 0.9936
C29_8 C 0.0978(4) 0.4995(4) 0.9383(4)
C32_8 C 0.1370(5) 0.5477(5) 0.9324(6)
C34_8 C 0.0182(4) 0.4535(5) 0.9110(5)
C39_8 C 0.0526(4) 0.5002(5) 0.9076(5)
H20_8 H 0.0458 0.5330 0.8844
C40_8 C 0.0723(4) 0.4040(5) 0.9776(5)
C42_8 C 0.0551(6) 0.2781(7) 0.8866(5)
H25_8 H 0.0382 0.3176 0.8782
H26_8 H 0.0904 0.2842 0.8874
H27_8 H 0.0442 0.2466 0.8615
H32_8 H 0.1988 0.0412 0.9951
O10_4 O 0.1998(2) 0.6893(3) 0.9597(3)
O11_4 O 0.1569(3) 0.7364(3) 0.8966(3)
N1_8 N 0.1263(3) 0.9334(3) 0.0742(3)
C1_8 C 0.1352(4) 0.9251(4) 0.1276(3)
C3_8 C 0.1381(4) 0.8851(4) 0.0410(3)
C4_8 C 0.1553(4) 0.9036(4) 0.2310(3)
C5_8 C 0.1066(4) 0.9931(4) 0.0557(4)
C6_8 C 0.1675(3) 0.8904(5) 0.2857(4)
C9_8 C 0.1311(4) 0.8575(4) 0.1998(3)
H2_8 H 0.1215 0.8196 0.2139
C16_8 C 0.1560(4) 0.9720(4) 0.1592(4)
C20_8 C 0.1209(4) 0.8670(4) 0.1482(4)
H5_8 H 0.1050 0.8357 0.1275
C22_8 C 0.1756(4) 0.8419(4) 0.0554(3)
H6_8 H 0.1936 0.8456 0.0872
C23_8 C 0.1650(4) 0.9605(5) 0.2109(4)
H7_8 H 0.1780 0.9930 0.2322
C25_8 C 0.1868(4) 0.7945(4) 0.0243(3)
H9_8 H 0.2110 0.7648 0.0357
C43_8 C 0.0247(4) 0.9645(6) 0.0866(5)
H28_8 H 0.0338 0.9647 0.1225
H30_8 H 0.0284 0.9222 0.0737
H31_8 H 0.1902 0.9721 0.0147
C2_8 C 0.1734(3) 0.7351(4) 0.9428(4)
C11_8 C 0.1623(4) 0.7894(4) 0.9752(3)
C35_8 C 0.1149(5) 0.8812(5) 0.9924(4)
H17_8 H 0.0908 0.9111 0.9811
C37_8 C 0.1265(4) 0.8345(5) 0.9606(4)
H18_8 H 0.1098 0.8328 0.9281
N2_8 N 0.9945(3) 0.3519(3) 0.9474(4)
C12_8 C 0.8414(3) 0.3584(4) 0.9025(4)
C17_8 C 0.7857(4) 0.3574(4) 0.8909(4)
C19_8 C 0.9434(3) 0.3555(4) 0.9306(4)
C26_8 C 0.9152(4) 0.4080(4) 0.9424(4)
H10_8 H 0.9305 0.4424 0.9600
C31_8 C 0.8691(4) 0.3073(4) 0.8904(4)
H14_8 H 0.8536 0.2736 0.8722
C33_8 C 0.9200(3) 0.3050(4) 0.9048(5)
H15_8 H 0.9383 0.2695 0.8971
H16_8 H 0.9882 0.4547 0.8902
C38_8 C 0.8645(4) 0.4088(4) 0.9279(5)
H19_8 H 0.8458 0.4440 0.9356
H29_7 H 0.0092 0.0221 0.9208
C41_5 C 0.0296(5) 0.6924(5) 0.9552(5)
H22_5 H 0.0635 0.6924 0.9702
H23_5 H 0.0277 0.7109 0.9220
H24_5 H 0.0174 0.6494 0.9526
C8_5 C 0.9505(4) 0.8262(4) 0.9985(4)
C10_5 C 0.9981(4) 0.7310(4) 0.9877(5)
C13_5 C 0.9417(4) 0.9904(4) 0.9382(4)
C14_5 C 0.9305(4) 0.8887(5) 0.9804(4)
C15_5 C 0.9590(4) 0.9310(4) 0.9557(4)
H3_5 H 0.9912 0.9192 0.9506
H4_5 H 0.8360 0.9887 0.8539
C27_5 C 0.8835(4) 0.9087(4) 0.9867(4)
C30_5 C 0.9803(4) 0.7900(4) 0.9702(4)
H13_5 H 0.9884 0.8053 0.9394
C36_5 C 0.8641(4) 0.9661(4) 0.9697(4)
H21_5 H 0.9212 0.6275 0.9979
C44_5 C 0.8115(5) 0.9834(6) 0.9775(6)
H33_5 H 0.7899 0.9745 0.9471
C8_6 C 0.5495(4) 0.8262(4) 0.0015(4)
C10_6 C 0.5019(4) 0.7310(4) 0.0123(5)
C13_6 C 0.5583(4) 0.9904(4) 0.0618(4)
C14_6 C 0.5695(4) 0.8887(5) 0.0196(4)
C15_6 C 0.5410(4) 0.9310(4) 0.0443(4)
H3_6 H 0.5088 0.9192 0.0494
H4_6 H 0.6640 0.9887 0.1461
C27_6 C 0.6165(4) 0.9087(4) 0.0133(4)
C30_6 C 0.5197(4) 0.7900(4) 0.0298(4)
H13_6 H 0.5116 0.8053 0.0606
C36_6 C 0.6359(4) 0.9661(4) 0.0303(4)
H21_6 H 0.5788 0.6275 0.0021
C41_6 C 0.4704(5) 0.6924(5) 0.0448(5)
H22_6 H 0.4365 0.6924 0.0298
H23_6 H 0.4723 0.7109 0.0780
H24_6 H 0.4826 0.6494 0.0474
C44_6 C 0.6885(5) 0.9834(6) 0.0225(6)
H33_6 H 0.7101 0.9745 0.0529
C8_7 C 0.0495(4) 0.1738(4) 0.0015(4)
C10_7 C 0.0019(4) 0.2690(4) 0.0123(5)
C13_7 C 0.0583(4) 0.0096(4) 0.0618(4)
C14_7 C 0.0695(4) 0.1113(5) 0.0196(4)
C15_7 C 0.0410(4) 0.0690(4) 0.0443(4)
H3_7 H 0.0088 0.0808 0.0494
H4_7 H 0.1640 0.0113 0.1461
C27_7 C 0.1165(4) 0.0913(4) 0.0133(4)
C30_7 C 0.0197(4) 0.2100(4) 0.0298(4)
H13_7 H 0.0116 0.1947 0.0606
C36_7 C 0.1359(4) 0.0339(4) 0.0303(4)
H21_7 H 0.0788 0.3725 0.0021
C44_7 C 0.1885(5) 0.0166(6) 0.0225(6)
H33_7 H 0.2101 0.0255 0.0529
C41_7 C 0.9704(5) 0.3076(5) 0.0448(5)
H22_7 H 0.9365 0.3076 0.0298
H23_7 H 0.9723 0.2891 0.0780
H24_7 H 0.9826 0.3506 0.0474
H29_8 H 0.9908 0.9779 0.0792
C8_8 C 0.4505(4) 0.1738(4) 0.9985(4)
C10_8 C 0.4981(4) 0.2690(4) 0.9877(5)
C13_8 C 0.4417(4) 0.0096(4) 0.9382(4)
C14_8 C 0.4305(4) 0.1113(5) 0.9804(4)
C15_8 C 0.4590(4) 0.0690(4) 0.9557(4)
H3_8 H 0.4912 0.0808 0.9506
H4_8 H 0.3360 0.0113 0.8539
C27_8 C 0.3835(4) 0.0913(4) 0.9867(4)
C30_8 C 0.4803(4) 0.2100(4) 0.9702(4)
H13_8 H 0.4884 0.1947 0.9394
C36_8 C 0.3641(4) 0.0339(4) 0.9697(4)
H21_8 H 0.4212 0.3725 0.9979
C41_8 C 0.5296(5) 0.3076(5) 0.9552(5)
H22_8 H 0.5635 0.3076 0.9702
H23_8 H 0.5277 0.2891 0.9220
H24_8 H 0.5174 0.3506 0.9526
C44_8 C 0.3115(5) 0.0166(6) 0.9775(6)
H33_8 H 0.2899 0.0255 0.9471
loop_
_geom_bond_atom_site_label_1
_geom_bond_atom_site_label_2
_geom_bond_site_symmetry_1
_geom_bond_site_symmetry_2
O1 C17 1_555 1_555
O2 C2 1_555 1_555
O3 C2 1_555 1_555
O4 C6 1_555 1_555
O5 C6 1_555 1_555
N1 C1 1_555 1_555
O6 C17 1_555 1_555
N2 C7 1_555 1_555
C1 C16 1_555 1_555
C2 C11 1_555 1_555
C3 N1 1_555 1_555
C4 C6 1_555 1_555
C5 N1 1_555 1_555
C7 C10 1_555 1_555
C8 C14 1_555 1_555
C9 C4 1_555 1_555
H2 C9 1_555 1_555
C10 C30 1_555 1_555
C11 C25 1_555 1_555
C12 C17 1_555 1_555
C13 C5 1_555 1_555
C14 C15 1_555 1_555
C15 C13 1_555 1_555
H3 C15 1_555 1_555
C16 H4 1_555 1_555
C18 N2 1_555 1_555
C19 N2 1_555 1_555
C20 C1 1_555 1_555
H5 C20 1_555 1_555
C21 C7 1_555 1_555
C22 C3 1_555 1_555
H6 C22 1_555 1_555
C23 C4 1_555 1_555
H7 C23 1_555 1_555
C24 C8 1_555 1_555
H8 C24 1_555 1_555
C25 C22 1_555 1_555
H9 C25 1_555 1_555
C26 C19 1_555 1_555
H10 C26 1_555 1_555
C27 C14 1_555 1_555
H11 C27 1_555 1_555
C28 H12 1_555 1_555
C29 C28 1_555 1_555
C30 C8 1_555 1_555
H13 C30 1_555 1_555
C31 C12 1_555 1_555
H14 C31 1_555 1_555
C33 C19 1_555 1_555
H15 C33 1_555 1_555
C34 C18 1_555 1_555
H16 C34 1_555 1_555
C35 C3 1_555 1_555
H17 C35 1_555 1_555
C36 C5 1_555 1_555
C37 C11 1_555 1_555
H18 C37 1_555 1_555
C38 C12 1_555 1_555
H19 C38 1_555 1_555
C40 C18 1_555 1_555
H21 C40 1_555 1_555
C41 C10 1_555 1_555
H22 C41 1_555 1_555
H23 C41 1_555 1_555
H24 C41 1_555 1_555
C42 C21 1_555 1_555
H25 C42 1_555 1_555
H26 C42 1_555 1_555
H27 C42 1_555 1_555
C43 C13 1_555 1_555
H28 C43 1_555 1_555
H29 C43 1_555 1_555
H30 C43 1_555 1_555
C44 C36 1_555 1_555
H31 C44 1_555 1_555
H32 C44 1_555 1_555
H33 C44 1_555 1_555
In2 O2 1_555 1_555
In3 O1 1_555 1_555
In4 O4 1_555 1_555
O3 In2 1_555 1_555
O5 In4 1_555 1_555
O6 In3 1_555 1_555
C9 C20 1_555 1_555
C16 C23 1_555 1_555
C21 C24 1_555 1_555
C26 C38 1_555 1_555
C27 C36 1_555 1_555
C28 C40 1_555 1_555
C31 C33 1_555 1_555
C35 C37 1_555 1_555
In2 O7 1_555 1_555
O7 C32 1_555 1_555
O8 H1 1_555 1_555
C32 O8 1_555 1_555
H20 C39 1_555 1_555
O9 In2 1_555 1_555
O12 In2 1_555 1_555
O13 In2 1_555 1_555
O14 In2 1_555 1_555
O1_2 C17_2 1_555 1_555
O6_2 C17_2 1_555 1_555
C12_2 C17_2 1_555 1_555
C19_2 N2_2 1_555 1_555
C26_2 C19_2 1_555 1_555
H10_2 C26_2 1_555 1_555
C31_2 C12_2 1_555 1_555
H14_2 C31_2 1_555 1_555
C33_2 C19_2 1_555 1_555
H15_2 C33_2 1_555 1_555
C38_2 C12_2 1_555 1_555
H19_2 C38_2 1_555 1_555
In4 O1_2 1_555 1_555
O6_2 In4 1_555 1_555
C26_2 C38_2 1_555 1_555
C31_2 C33_2 1_555 1_555
O2_2 C2_2 1_555 1_555
O3_2 C2_2 1_555 1_555
C2_2 C11_2 1_555 1_555
H17_2 C35_2 1_555 1_555
C37_2 C11_2 1_555 1_555
H18_2 C37_2 1_555 1_555
In2_2 O2_2 1_555 1_555
O3_2 In2_2 1_555 1_555
C35_2 C37_2 1_555 1_555
O4_2 C6_2 1_555 1_555
O5_2 C6_2 1_555 1_555
N1_2 C1_2 1_555 1_555
C1_2 C16_2 1_555 1_555
C3_2 N1_2 1_555 1_555
C4_2 C6_2 1_555 1_555
C5_2 N1_2 1_555 1_555
C9_2 C4_2 1_555 1_555
H2_2 C9_2 1_555 1_555
C20_2 C1_2 1_555 1_555
H5_2 C20_2 1_555 1_555
C22_2 C3_2 1_555 1_555
H6_2 C22_2 1_555 1_555
C23_2 C4_2 1_555 1_555
H7_2 C23_2 1_555 1_555
C25_2 C22_2 1_555 1_555
H9_2 C25_2 1_555 1_555
H28_2 C43_2 1_555 1_555
H30_2 C43_2 1_555 1_555
In3 O4_2 1_555 1_555
O5_2 In3 1_555 1_555
C9_2 C20_2 1_555 1_555
C16_2 C23_2 1_555 1_555
In2_2 O7_2 1_555 1_555
O7_2 C32_2 1_555 1_555
O8_2 H1_2 1_555 1_555
C21_2 C7_2 1_555 1_555
H8_2 C24_2 1_555 1_555
C28_2 H12_2 1_555 1_555
C29_2 C28_2 1_555 1_555
C32_2 O8_2 1_555 1_555
C34_2 C18_2 1_555 1_555
C39_2 C29_2 1_555 1_555
H20_2 C39_2 1_555 1_555
C40_2 C18_2 1_555 1_555
C42_2 C21_2 1_555 1_555
H25_2 C42_2 1_555 1_555
H26_2 C42_2 1_555 1_555
H27_2 C42_2 1_555 1_555
O9_2 In2_2 1_555 1_555
O12_2 In2_2 1_555 1_555
O13_2 In2_2 1_555 1_555
O14_2 In2_2 1_555 1_555
C21_2 C24_2 1_555 1_555
C28_2 C40_2 1_555 1_555
C29_2 C32_2 1_555 1_555
C34_2 C39_2 1_555 1_555
O9 C17_3 1_555 1_555
O14 C17_3 1_555 1_555
C12_3 C17_3 1_555 1_555
C19_3 N2_3 1_555 1_555
C26_3 C19_3 1_555 1_555
H10_3 C26_3 1_555 1_555
C31_3 C12_3 1_555 1_555
H14_3 C31_3 1_555 1_555
C33_3 C19_3 1_555 1_555
H15_3 C33_3 1_555 1_555
C38_3 C12_3 1_555 1_555
H19_3 C38_3 1_555 1_555
H22_2 C41_2 1_555 1_555
H23_2 C41_2 1_555 1_555
H24_2 C41_2 1_555 1_555
C26_3 C38_3 1_555 1_555
C31_3 C33_3 1_555 1_555
In3 O7_3 1_555 1_555
O7_3 C32_3 1_555 1_555
O8_3 H1_3 1_555 1_555
C32_3 O8_3 1_555 1_555
H20_3 C39_3 1_555 1_555
O10 In3 1_555 1_555
O11 In3 1_555 1_555
O10 C2_3 1_555 1_555
O11 C2_3 1_555 1_555
O12_2 C6_3 1_555 1_555
O13_2 C6_3 1_555 1_555
N1_3 C1_3 1_555 1_555
C1_3 C16_3 1_555 1_555
C2_3 C11_3 1_555 1_555
C3_3 N1_3 1_555 1_555
C4_3 C6_3 1_555 1_555
C5_3 N1_3 1_555 1_555
C7_3 C10_2 1_555 1_555
C8_2 C14_2 1_555 1_555
C9_3 C4_3 1_555 1_555
H2_3 C9_3 1_555 1_555
C10_2 C30_2 1_555 1_555
C11_3 C25_3 1_555 1_555
C13_2 C5_3 1_555 1_555
C14_2 C15_2 1_555 1_555
C15_2 C13_2 1_555 1_555
H3_2 C15_2 1_555 1_555
C16_3 H4_2 1_555 1_555
C20_3 C1_3 1_555 1_555
H5_3 C20_3 1_555 1_555
C21_3 C7_3 1_555 1_555
C22_3 C3_3 1_555 1_555
H6_3 C22_3 1_555 1_555
C23_3 C4_3 1_555 1_555
H7_3 C23_3 1_555 1_555
C24_3 C8_2 1_555 1_555
H8_3 C24_3 1_555 1_555
C25_3 C22_3 1_555 1_555
H9_3 C25_3 1_555 1_555
C27_2 C14_2 1_555 1_555
H11_3 C27_2 1_555 1_555
C28_3 H12_3 1_555 1_555
C29_3 C28_3 1_555 1_555
C30_2 C8_2 1_555 1_555
H13_2 C30_2 1_555 1_555
C34_3 C18_3 1_555 1_555
C35_3 C3_3 1_555 1_555
H17_3 C35_3 1_555 1_555
C36_2 C5_3 1_555 1_555
C37_3 C11_3 1_555 1_555
H18_3 C37_3 1_555 1_555
C40_3 C18_3 1_555 1_555
H21_2 C40_3 1_555 1_555
C42_3 C21_3 1_555 1_555
H25_3 C42_3 1_555 1_555
H26_3 C42_3 1_555 1_555
H27_3 C42_3 1_555 1_555
C43_3 C13_2 1_555 1_555
H28_3 C43_3 1_555 1_555
H30_3 C43_3 1_555 1_555
C44_2 C36_2 1_555 1_555
H31_3 C44_2 1_555 1_555
H32_3 C44_2 1_555 1_555
H33_2 C44_2 1_555 1_555
C9_3 C20_3 1_555 1_555
C16_3 C23_3 1_555 1_555
C21_3 C24_3 1_555 1_555
C27_2 C36_2 1_555 1_555
C28_3 C40_3 1_555 1_555
C35_3 C37_3 1_555 1_555
In4 O7_4 1_555 1_555
O9_2 C17_4 1_555 1_555
O14_2 C17_4 1_555 1_555
O7_4 C32_4 1_555 1_555
N2_4 C7_4 1_555 1_555
O8_4 H1_4 1_555 1_555
C12_4 C17_4 1_555 1_555
C18_4 N2_4 1_555 1_555
C19_4 N2_4 1_555 1_555
C21_4 C7_4 1_555 1_555
H8_4 C24_4 1_555 1_555
C26_4 C19_4 1_555 1_555
H10_4 C26_4 1_555 1_555
C28_4 H12_4 1_555 1_555
C29_4 C28_4 1_555 1_555
C31_4 C12_4 1_555 1_555
H14_4 C31_4 1_555 1_555
C32_4 O8_4 1_555 1_555
C33_4 C19_4 1_555 1_555
H15_4 C33_4 1_555 1_555
C34_4 C18_4 1_555 1_555
H16_4 C34_4 1_555 1_555
C38_4 C12_4 1_555 1_555
H19_4 C38_4 1_555 1_555
C39_4 C29_4 1_555 1_555
H20_4 C39_4 1_555 1_555
C40_4 C18_4 1_555 1_555
C42_4 C21_4 1_555 1_555
H25_4 C42_4 1_555 1_555
H26_4 C42_4 1_555 1_555
H27_4 C42_4 1_555 1_555
O10_2 In4 1_555 1_555
O11_2 In4 1_555 1_555
C21_4 C24_4 1_555 1_555
C26_4 C38_4 1_555 1_555
C28_4 C40_4 1_555 1_555
C29_4 C32_4 1_555 1_555
C31_4 C33_4 1_555 1_555
C34_4 C39_4 1_555 1_555
O10_2 C2_4 1_555 1_555
O11_2 C2_4 1_555 1_555
C2_4 C11_4 1_555 1_555
H17_4 C35_4 1_555 1_555
C37_4 C11_4 1_555 1_555
H18_4 C37_4 1_555 1_555
C35_4 C37_4 1_555 1_555
O12 C6_4 1_555 1_555
O13 C6_4 1_555 1_555
N1_4 C1_4 1_555 1_555
C1_4 C16_4 1_555 1_555
C3_4 N1_4 1_555 1_555
C4_4 C6_4 1_555 1_555
C5_4 N1_4 1_555 1_555
C9_4 C4_4 1_555 1_555
H2_4 C9_4 1_555 1_555
C20_4 C1_4 1_555 1_555
H5_4 C20_4 1_555 1_555
C22_4 C3_4 1_555 1_555
H6_4 C22_4 1_555 1_555
C23_4 C4_4 1_555 1_555
H7_4 C23_4 1_555 1_555
C25_4 C22_4 1_555 1_555
H9_4 C25_4 1_555 1_555
H28_4 C43_4 1_555 1_555
H29_3 C43_4 1_555 1_555
H30_4 C43_4 1_555 1_555
C9_4 C20_4 1_555 1_555
C16_4 C23_4 1_555 1_555
O2_3 C2_5 1_555 1_555
O3_3 C2_5 1_555 1_555
O4_3 C6_5 1_555 1_555
O5_3 C6_5 1_555 1_555
N1_5 C1_5 1_555 1_555
C1_5 C16_5 1_555 1_555
C2_5 C11_5 1_555 1_555
C3_5 N1_5 1_555 1_555
C4_5 C6_5 1_555 1_555
C5_5 N1_5 1_555 1_555
C7_5 C10_3 1_555 1_555
C8_3 C14_3 1_555 1_555
C9_5 C4_5 1_555 1_555
H2_5 C9_5 1_555 1_555
C10_3 C30_3 1_555 1_555
C11_5 C25_5 1_555 1_555
C13_3 C5_5 1_555 1_555
C14_3 C15_3 1_555 1_555
C15_3 C13_3 1_555 1_555
H3_3 C15_3 1_555 1_555
C16_5 H4_3 1_555 1_555
C20_5 C1_5 1_555 1_555
H5_5 C20_5 1_555 1_555
C21_5 C7_5 1_555 1_555
C22_5 C3_5 1_555 1_555
H6_5 C22_5 1_555 1_555
C23_5 C4_5 1_555 1_555
H7_5 C23_5 1_555 1_555
C24_5 C8_3 1_555 1_555
H8_5 C24_5 1_555 1_555
C25_5 C22_5 1_555 1_555
H9_5 C25_5 1_555 1_555
C27_3 C14_3 1_555 1_555
H11_5 C27_3 1_555 1_555
C28_5 H12_5 1_555 1_555
C29_5 C28_5 1_555 1_555
C30_3 C8_3 1_555 1_555
H13_3 C30_3 1_555 1_555
C34_5 C18_5 1_555 1_555
C35_5 C3_5 1_555 1_555
H17_5 C35_5 1_555 1_555
C36_3 C5_5 1_555 1_555
C37_5 C11_5 1_555 1_555
H18_5 C37_5 1_555 1_555
C40_5 C18_5 1_555 1_555
H21_3 C40_5 1_555 1_555
C42_5 C21_5 1_555 1_555
H25_5 C42_5 1_555 1_555
H26_5 C42_5 1_555 1_555
H27_5 C42_5 1_555 1_555
C43_5 C13_3 1_555 1_555
H28_5 C43_5 1_555 1_555
H30_5 C43_5 1_555 1_555
C44_3 C36_3 1_555 1_555
H31_5 C44_3 1_555 1_555
H32_5 C44_3 1_555 1_555
H33_3 C44_3 1_555 1_555
In2_3 O2_3 1_555 1_555
In4_2 O4_3 1_555 1_555
O3_3 In2_3 1_555 1_555
O5_3 In4_2 1_555 1_555
C9_5 C20_5 1_555 1_555
C16_5 C23_5 1_555 1_555
C21_5 C24_5 1_555 1_555
C27_3 C36_3 1_555 1_555
C28_5 C40_5 1_555 1_555
C35_5 C37_5 1_555 1_555
In2_3 O7_5 1_555 1_555
O7_5 C32_5 1_555 1_555
O8_5 H1_5 1_555 1_555
C32_5 O8_5 1_555 1_555
H20_5 C39_5 1_555 1_555
O9_3 In2_3 1_555 1_555
O12_3 In2_3 1_555 1_555
O13_3 In2_3 1_555 1_555
O14_3 In2_3 1_555 1_555
O1_3 C17_5 1_555 1_555
O6_3 C17_5 1_555 1_555
C12_5 C17_5 1_555 1_555
C19_5 N2_5 1_555 1_555
C26_5 C19_5 1_555 1_555
H10_5 C26_5 1_555 1_555
C31_5 C12_5 1_555 1_555
H14_5 C31_5 1_555 1_555
C33_5 C19_5 1_555 1_555
H15_5 C33_5 1_555 1_555
C38_5 C12_5 1_555 1_555
H19_5 C38_5 1_555 1_555
H22_3 C41_3 1_555 1_555
H23_3 C41_3 1_555 1_555
H24_3 C41_3 1_555 1_555
In3_2 O1_3 1_555 1_555
O6_3 In3_2 1_555 1_555
C26_5 C38_5 1_555 1_555
C31_5 C33_5 1_555 1_555
O4_4 C6_6 1_555 1_555
O5_4 C6_6 1_555 1_555
N1_6 C1_6 1_555 1_555
C1_6 C16_6 1_555 1_555
C3_6 N1_6 1_555 1_555
C4_6 C6_6 1_555 1_555
C5_6 N1_6 1_555 1_555
C9_6 C4_6 1_555 1_555
H2_6 C9_6 1_555 1_555
C20_6 C1_6 1_555 1_555
H5_6 C20_6 1_555 1_555
C22_6 C3_6 1_555 1_555
H6_6 C22_6 1_555 1_555
C23_6 C4_6 1_555 1_555
H7_6 C23_6 1_555 1_555
C25_6 C22_6 1_555 1_555
H9_6 C25_6 1_555 1_555
H28_6 C43_6 1_555 1_555
H29_5 C43_6 1_555 1_555
H30_6 C43_6 1_555 1_555
In3_2 O4_4 1_555 1_555
O5_4 In3_2 1_555 1_555
C9_6 C20_6 1_555 1_555
C16_6 C23_6 1_555 1_555
O2_4 C2_6 1_555 1_555
O3_4 C2_6 1_555 1_555
C2_6 C11_6 1_555 1_555
H17_6 C35_6 1_555 1_555
C37_6 C11_6 1_555 1_555
H18_6 C37_6 1_555 1_555
In2_4 O2_4 1_555 1_555
O3_4 In2_4 1_555 1_555
C35_6 C37_6 1_555 1_555
In2_4 O7_6 1_555 1_555
O1_4 C17_6 1_555 1_555
O6_4 C17_6 1_555 1_555
O7_6 C32_6 1_555 1_555
N2_6 C7_6 1_555 1_555
O8_6 H1_6 1_555 1_555
C12_6 C17_6 1_555 1_555
C18_6 N2_6 1_555 1_555
C19_6 N2_6 1_555 1_555
C21_6 C7_6 1_555 1_555
H8_6 C24_6 1_555 1_555
C26_6 C19_6 1_555 1_555
H10_6 C26_6 1_555 1_555
C28_6 H12_6 1_555 1_555
C29_6 C28_6 1_555 1_555
C31_6 C12_6 1_555 1_555
H14_6 C31_6 1_555 1_555
C32_6 O8_6 1_555 1_555
C33_6 C19_6 1_555 1_555
H15_6 C33_6 1_555 1_555
C34_6 C18_6 1_555 1_555
H16_6 C34_6 1_555 1_555
C38_6 C12_6 1_555 1_555
H19_6 C38_6 1_555 1_555
C39_6 C29_6 1_555 1_555
H20_6 C39_6 1_555 1_555
C40_6 C18_6 1_555 1_555
C42_6 C21_6 1_555 1_555
H25_6 C42_6 1_555 1_555
H26_6 C42_6 1_555 1_555
H27_6 C42_6 1_555 1_555
In4_2 O1_4 1_555 1_555
O9_4 In2_4 1_555 1_555
O12_4 In2_4 1_555 1_555
O13_4 In2_4 1_555 1_555
O14_4 In2_4 1_555 1_555
O6_4 In4_2 1_555 1_555
C21_6 C24_6 1_555 1_555
C26_6 C38_6 1_555 1_555
C28_6 C40_6 1_555 1_555
C29_6 C32_6 1_555 1_555
C31_6 C33_6 1_555 1_555
C34_6 C39_6 1_555 1_555
In3_2 O7_7 1_555 1_555
O7_7 C32_7 1_555 1_555
O8_7 H1_7 1_555 1_555
C32_7 O8_7 1_555 1_555
H20_7 C39_7 1_555 1_555
O10_3 In3_2 1_555 1_555
O11_3 In3_2 1_555 1_555
O9_3 C17_7 1_555 1_555
O10_3 C2_7 1_555 1_555
O11_3 C2_7 1_555 1_555
O12_4 C6_7 1_555 1_555
O13_4 C6_7 1_555 1_555
N1_7 C1_7 1_555 1_555
O14_3 C17_7 1_555 1_555
N2_7 C7_7 1_555 1_555
C1_7 C16_7 1_555 1_555
C2_7 C11_7 1_555 1_555
C3_7 N1_7 1_555 1_555
C4_7 C6_7 1_555 1_555
C5_7 N1_7 1_555 1_555
C7_7 C10_4 1_555 1_555
C8_4 C14_4 1_555 1_555
C9_7 C4_7 1_555 1_555
H2_7 C9_7 1_555 1_555
C10_4 C30_4 1_555 1_555
C11_7 C25_7 1_555 1_555
C12_7 C17_7 1_555 1_555
C13_4 C5_7 1_555 1_555
C14_4 C15_4 1_555 1_555
C15_4 C13_4 1_555 1_555
H3_4 C15_4 1_555 1_555
C16_7 H4_4 1_555 1_555
C18_7 N2_7 1_555 1_555
C19_7 N2_7 1_555 1_555
C20_7 C1_7 1_555 1_555
H5_7 C20_7 1_555 1_555
C21_7 C7_7 1_555 1_555
C22_7 C3_7 1_555 1_555
H6_7 C22_7 1_555 1_555
C23_7 C4_7 1_555 1_555
H7_7 C23_7 1_555 1_555
C24_7 C8_4 1_555 1_555
H8_7 C24_7 1_555 1_555
C25_7 C22_7 1_555 1_555
H9_7 C25_7 1_555 1_555
C26_7 C19_7 1_555 1_555
H10_7 C26_7 1_555 1_555
C27_4 C14_4 1_555 1_555
H11_7 C27_4 1_555 1_555
C28_7 H12_7 1_555 1_555
C29_7 C28_7 1_555 1_555
C30_4 C8_4 1_555 1_555
H13_4 C30_4 1_555 1_555
C31_7 C12_7 1_555 1_555
H14_7 C31_7 1_555 1_555
C33_7 C19_7 1_555 1_555
H15_7 C33_7 1_555 1_555
C34_7 C18_7 1_555 1_555
H16_7 C34_7 1_555 1_555
C35_7 C3_7 1_555 1_555
H17_7 C35_7 1_555 1_555
C36_4 C5_7 1_555 1_555
C37_7 C11_7 1_555 1_555
H18_7 C37_7 1_555 1_555
C38_7 C12_7 1_555 1_555
H19_7 C38_7 1_555 1_555
C40_7 C18_7 1_555 1_555
H21_4 C40_7 1_555 1_555
C41_4 C10_4 1_555 1_555
H22_4 C41_4 1_555 1_555
H23_4 C41_4 1_555 1_555
H24_4 C41_4 1_555 1_555
C42_7 C21_7 1_555 1_555
H25_7 C42_7 1_555 1_555
H26_7 C42_7 1_555 1_555
H27_7 C42_7 1_555 1_555
C43_7 C13_4 1_555 1_555
H28_7 C43_7 1_555 1_555
H29_6 C43_7 1_555 1_555
H30_7 C43_7 1_555 1_555
C44_4 C36_4 1_555 1_555
H31_7 C44_4 1_555 1_555
H32_7 C44_4 1_555 1_555
H33_4 C44_4 1_555 1_555
C9_7 C20_7 1_555 1_555
C16_7 C23_7 1_555 1_555
C21_7 C24_7 1_555 1_555
C26_7 C38_7 1_555 1_555
C27_4 C36_4 1_555 1_555
C28_7 C40_7 1_555 1_555
C31_7 C33_7 1_555 1_555
C35_7 C37_7 1_555 1_555
In4_2 O7_8 1_555 1_555
O7_8 C32_8 1_555 1_555
O8_8 H1_8 1_555 1_555
C21_8 C7_8 1_555 1_555
H8_8 C24_8 1_555 1_555
C28_8 H12_8 1_555 1_555
C29_8 C28_8 1_555 1_555
C32_8 O8_8 1_555 1_555
C34_8 C18_8 1_555 1_555
C39_8 C29_8 1_555 1_555
H20_8 C39_8 1_555 1_555
C40_8 C18_8 1_555 1_555
C42_8 C21_8 1_555 1_555
H25_8 C42_8 1_555 1_555
H26_8 C42_8 1_555 1_555
H27_8 C42_8 1_555 1_555
O10_4 In4_2 1_555 1_555
O11_4 In4_2 1_555 1_555
C21_8 C24_8 1_555 1_555
C28_8 C40_8 1_555 1_555
C29_8 C32_8 1_555 1_555
C34_8 C39_8 1_555 1_555
O12_3 C6_8 1_555 1_555
O13_3 C6_8 1_555 1_555
N1_8 C1_8 1_555 1_555
C1_8 C16_8 1_555 1_555
C3_8 N1_8 1_555 1_555
C4_8 C6_8 1_555 1_555
C5_8 N1_8 1_555 1_555
C9_8 C4_8 1_555 1_555
H2_8 C9_8 1_555 1_555
C20_8 C1_8 1_555 1_555
H5_8 C20_8 1_555 1_555
C22_8 C3_8 1_555 1_555
H6_8 C22_8 1_555 1_555
C23_8 C4_8 1_555 1_555
H7_8 C23_8 1_555 1_555
C25_8 C22_8 1_555 1_555
H9_8 C25_8 1_555 1_555
H28_8 C43_8 1_555 1_555
H30_8 C43_8 1_555 1_555
C9_8 C20_8 1_555 1_555
C16_8 C23_8 1_555 1_555
O10_4 C2_8 1_555 1_555
O11_4 C2_8 1_555 1_555
C2_8 C11_8 1_555 1_555
H17_8 C35_8 1_555 1_555
C37_8 C11_8 1_555 1_555
H18_8 C37_8 1_555 1_555
C35_8 C37_8 1_555 1_555
O9_4 C17_8 1_555 1_555
O14_4 C17_8 1_555 1_555
C12_8 C17_8 1_555 1_555
C19_8 N2_8 1_555 1_555
C26_8 C19_8 1_555 1_555
H10_8 C26_8 1_555 1_555
C31_8 C12_8 1_555 1_555
H14_8 C31_8 1_555 1_555
C33_8 C19_8 1_555 1_555
H15_8 C33_8 1_555 1_555
C38_8 C12_8 1_555 1_555
H19_8 C38_8 1_555 1_555
C26_8 C38_8 1_555 1_555
C31_8 C33_8 1_555 1_555
H22_5 C41_5 1_555 1_555
H23_5 C41_5 1_555 1_555
H24_5 C41_5 1_555 1_555
C8_5 C14_5 1_555 1_555
C10_5 C30_5 1_555 1_555
C14_5 C15_5 1_555 1_555
C15_5 C13_5 1_555 1_555
H3_5 C15_5 1_555 1_555
C27_5 C14_5 1_555 1_555
C30_5 C8_5 1_555 1_555
H13_5 C30_5 1_555 1_555
C44_5 C36_5 1_555 1_555
H33_5 C44_5 1_555 1_555
C27_5 C36_5 1_555 1_555
C8_6 C14_6 1_555 1_555
C10_6 C30_6 1_555 1_555
C14_6 C15_6 1_555 1_555
C15_6 C13_6 1_555 1_555
H3_6 C15_6 1_555 1_555
C27_6 C14_6 1_555 1_555
C30_6 C8_6 1_555 1_555
H13_6 C30_6 1_555 1_555
C41_6 C10_6 1_555 1_555
H22_6 C41_6 1_555 1_555
H23_6 C41_6 1_555 1_555
H24_6 C41_6 1_555 1_555
C44_6 C36_6 1_555 1_555
H33_6 C44_6 1_555 1_555
C27_6 C36_6 1_555 1_555
C8_7 C14_7 1_555 1_555
C10_7 C30_7 1_555 1_555
C14_7 C15_7 1_555 1_555
C15_7 C13_7 1_555 1_555
H3_7 C15_7 1_555 1_555
C27_7 C14_7 1_555 1_555
C30_7 C8_7 1_555 1_555
H13_7 C30_7 1_555 1_555
C44_7 C36_7 1_555 1_555
H33_7 C44_7 1_555 1_555
C27_7 C36_7 1_555 1_555
H22_7 C41_7 1_555 1_555
H23_7 C41_7 1_555 1_555
H24_7 C41_7 1_555 1_555
C8_8 C14_8 1_555 1_555
C10_8 C30_8 1_555 1_555
C14_8 C15_8 1_555 1_555
C15_8 C13_8 1_555 1_555
H3_8 C15_8 1_555 1_555
C27_8 C14_8 1_555 1_555
C30_8 C8_8 1_555 1_555
H13_8 C30_8 1_555 1_555
C41_8 C10_8 1_555 1_555
H22_8 C41_8 1_555 1_555
H23_8 C41_8 1_555 1_555
H24_8 C41_8 1_555 1_555
C44_8 C36_8 1_555 1_555
H33_8 C44_8 1_555 1_555
C27_8 C36_8 1_555 1_555

#END
