
###############################################################################
#
# This file contains modified crystal structure data generated from the
# MOF subset of the Cambridge Structural Database (CSD) v543 
# hosted by the Cambridge Crystallographic Data Centre (CCDC).
#
# This work is licensed under the Creative Commons
# Attribution-NonCommercial-ShareAlike 4.0 International License.
# To view a copy of this license, visit
# http://creativecommons.org/licenses/by-nc-sa/4.0/
# or send a letter to
# Creative Commons, PO Box 1866, Mountain View, CA 94042, USA.
#
# CIF created using the CSD Python API on 29 September 2022
# The structure has been converted into the P1 space group
# The structure has a 3D framework
# The original CSD entry GAXBEQ is in the monoclinic crystal system
# The framework has been calculated to contain at least 10.0% void space
# The void calculation uses a probe of radius 1.32A, grid spacing 0.4
#
###############################################################################

data_GAXBEQ
_chemical_formula_moiety         '(C352 H264 In8 N16 O64)n'
_symmetry_cell_setting           triclinic
_symmetry_space_group_name_H-M   'P 1'
_symmetry_Int_Tables_number      1
_space_group_name_Hall           'P 1'
loop_
_symmetry_equiv_pos_site_id
_symmetry_equiv_pos_as_xyz
1 x,y,z
_cell_length_a                   26.8404(6)
_cell_length_b                   20.9548(4)
_cell_length_c                   27.0936(6)
_cell_angle_alpha                90
_cell_angle_beta                 98.809(2)
_cell_angle_gamma                90
_cell_volume                     15058.6
loop_
_atom_site_label
_atom_site_type_symbol
_atom_site_fract_x
_atom_site_fract_y
_atom_site_fract_z
In2 In 0.86868(2) 0.61141(2) 0.06467(2)
In1 In 0.36868(2) 0.11141(2) 0.56467(2)
O2 O 0.83765(14) 0.65424(18) 0.99096(14)
O4 O 0.88305(15) 0.56749(19) 0.99029(14)
O5 O 0.44753(14) 0.08487(19) 0.59559(16)
O6 O 0.43527(14) 0.17983(19) 0.56223(16)
O7 O 0.85014(17) 0.8356(2) 0.62408(16)
O8 O 0.7869(2) 0.7936(2) 0.57153(13)
N1 N 0.67620(17) 0.1801(2) 0.62195(19)
N2 N 0.7996(2) 0.6019(2) 0.75672(18)
C1 C 0.7743(2) 0.0363(3) 0.5875(2)
C3 C 0.6240(2) 0.1711(3) 0.6134(2)
C4 C 0.8563(2) 0.6112(2) 0.9668(2)
C5 C 0.7255(2) 0.0395(3) 0.5619(2)
H1 H 0.7141 0.0092 0.5376
C6 C 0.7093(2) 0.1322(3) 0.6100(2)
C7 C 0.7490(2) 0.4207(3) 0.7019(2)
C8 C 0.6956(2) 0.2398(3) 0.6426(2)
C9 C 0.4648(2) 0.1387(3) 0.5844(2)
C10 C 0.5193(2) 0.1510(3) 0.5955(2)
C11 C 0.7907(2) 0.0818(3) 0.6237(2)
H2 H 0.8236 0.0804 0.6404
C12 C 0.5519(2) 0.1034(3) 0.6173(2)
H3 H 0.5387 0.0647 0.6260
C13 C 0.8454(2) 0.6107(2) 0.9118(2)
C14 C 0.5397(2) 0.2092(3) 0.5846(2)
H4 H 0.5185 0.2419 0.5709
C15 C 0.7937(2) 0.4462(3) 0.6903(2)
H5 H 0.8123 0.4228 0.6702
C16 C 0.7075(2) 0.3146(3) 0.7097(2)
H6 H 0.7031 0.3260 0.7420
C17 C 0.8113(2) 0.5058(3) 0.7080(2)
C18 C 0.6031(2) 0.1128(3) 0.6261(2)
H7 H 0.6242 0.0804 0.6405
C19 C 0.6899(2) 0.2554(3) 0.6912(2)
C20 C 0.8010(2) 0.6526(3) 0.7233(2)
C21 C 0.8087(2) 0.7478(3) 0.6522(2)
C22 C 0.6938(2) 0.0880(3) 0.5726(2)
H8 H 0.6615 0.0910 0.5544
C23 C 0.7190(2) 0.2816(3) 0.6126(2)
C24 C 0.8056(2) 0.6600(3) 0.8355(2)
H9 H 0.7888 0.6945 0.8190
C25 C 0.7821(3) 0.5397(3) 0.7379(2)
C26 C 0.8167(2) 0.6066(3) 0.8084(2)
C27 C 0.7584(2) 0.1289(3) 0.6349(2)
H10 H 0.7697 0.1588 0.6595
C28 C 0.8356(2) 0.7024(3) 0.7335(2)
H11 H 0.8564 0.7040 0.7643
C29 C 0.5913(2) 0.2193(3) 0.5938(2)
H12 H 0.6042 0.2589 0.5869
C30 C 0.8139(2) 0.7950(3) 0.6120(2)
C31 C 0.7737(3) 0.6989(3) 0.6427(2)
H13 H 0.7527 0.6976 0.6121
C32 C 0.7313(2) 0.3576(3) 0.6814(2)
C33 C 0.7378(2) 0.5151(3) 0.7505(2)
C34 C 0.7695(3) 0.6522(3) 0.6775(2)
H14 H 0.7455 0.6202 0.6703
C35 C 0.7367(2) 0.3397(3) 0.6331(2)
H15 H 0.7527 0.3676 0.6139
C36 C 0.8194(2) 0.6616(3) 0.8867(2)
H16 H 0.8114 0.6970 0.9046
C37 C 0.7220(2) 0.4554(3) 0.7320(2)
H17 H 0.6923 0.4383 0.7401
C38 C 0.8393(2) 0.7492(3) 0.6985(2)
H18 H 0.8626 0.7820 0.7059
C39 C 0.8433(3) 0.5560(3) 0.8336(2)
H19 H 0.8514 0.5205 0.8158
C40 C 0.6662(2) 0.2098(3) 0.7238(2)
H20 H 0.6305 0.2084 0.7130
H21 H 0.6730 0.2239 0.7578
H22 H 0.6802 0.1679 0.7212
C41 C 0.8576(2) 0.5582(3) 0.8845(2)
H23 H 0.8756 0.5243 0.9009
C42 C 0.7071(3) 0.5531(3) 0.7829(3)
H24 H 0.7227 0.5505 0.8172
H25 H 0.6736 0.5359 0.7796
H26 H 0.7055 0.5969 0.7724
C43 C 0.8602(3) 0.5317(3) 0.6956(3)
H27 H 0.8795 0.4975 0.6844
H28 H 0.8790 0.5509 0.7248
H29 H 0.8533 0.5631 0.6697
C44 C 0.7249(3) 0.2643(3) 0.5600(3)
H30 H 0.7333 0.3018 0.5426
H31 H 0.6939 0.2466 0.5431
H32 H 0.7514 0.2334 0.5605
H33 H 0.768(2) 0.803(5) 0.5433(9)
In4 In 0.86868(2) 0.88859(2) 0.56467(2)
O9 O 0.29035(13) 0.06347(17) 0.54983(13)
O10 O 0.33765(14) 0.15424(18) 0.49096(14)
O11 O 0.35419(14) 0.01565(19) 0.59566(15)
O12 O 0.38305(15) 0.06749(19) 0.49029(14)
O13 O 0.35014(17) 0.1644(2) 0.62408(16)
O1 O 0.79035(13) 0.93653(17) 0.54983(13)
O3 O 0.85419(14) 0.98435(19) 0.59566(15)
C2 C 0.8074(2) 0.9832(3) 0.5770(2)
O7_2 O 0.35014(17) 0.3356(2) 0.12408(16)
O8_2 O 0.2869(2) 0.2936(2) 0.07153(13)
N2_2 N 0.2996(2) 0.1019(2) 0.25672(18)
C4_2 C 0.3563(2) 0.1112(2) 0.4668(2)
C13_2 C 0.3454(2) 0.1107(2) 0.4118(2)
C17_2 C 0.3113(2) 0.0058(3) 0.2080(2)
C20_2 C 0.3010(2) 0.1526(3) 0.2233(2)
C21_2 C 0.3087(2) 0.2478(3) 0.1522(2)
C24_2 C 0.3056(2) 0.1600(3) 0.3355(2)
H9_2 H 0.2888 0.1945 0.3190
C25_2 C 0.2821(3) 0.0397(3) 0.2379(2)
C26_2 C 0.3167(2) 0.1066(3) 0.3084(2)
C28_2 C 0.3356(2) 0.2024(3) 0.2335(2)
H11_2 H 0.3564 0.2040 0.2643
C30_2 C 0.3139(2) 0.2950(3) 0.1120(2)
C31_2 C 0.2737(3) 0.1989(3) 0.1427(2)
H13_2 H 0.2527 0.1976 0.1121
C33_2 C 0.2378(2) 0.0151(3) 0.2505(2)
C34_2 C 0.2695(3) 0.1522(3) 0.1775(2)
H14_2 H 0.2455 0.1202 0.1703
C36_2 C 0.3194(2) 0.1616(3) 0.3867(2)
H16_2 H 0.3114 0.1970 0.4046
C38_2 C 0.3393(2) 0.2492(3) 0.1985(2)
H18_2 H 0.3626 0.2820 0.2059
C39_2 C 0.3433(3) 0.0560(3) 0.3336(2)
H19_2 H 0.3514 0.0205 0.3158
C41_2 C 0.3576(2) 0.0582(3) 0.3845(2)
H23_2 H 0.3756 0.0243 0.4009
C42_2 C 0.2071(3) 0.0531(3) 0.2829(3)
H24_2 H 0.2227 0.0505 0.3172
H25_2 H 0.1736 0.0359 0.2796
H26_2 H 0.2055 0.0969 0.2724
C43_2 C 0.3602(3) 0.0317(3) 0.1956(3)
H28_2 H 0.3790 0.0509 0.2248
H29_2 H 0.3533 0.0631 0.1697
H33_2 H 0.268(2) 0.303(5) 0.0433(9)
In4_2 In 0.36868(2) 0.38859(2) 0.06467(2)
O1_2 O 0.29035(13) 0.43653(17) 0.04983(13)
O3_2 O 0.35419(14) 0.48435(19) 0.09566(15)
N1_2 N 0.17620(17) 0.6801(2) 0.12195(19)
C1_2 C 0.2743(2) 0.5363(3) 0.0875(2)
C2_2 C 0.3074(2) 0.4832(3) 0.0770(2)
C3_2 C 0.1240(2) 0.6711(3) 0.1134(2)
C5_2 C 0.2255(2) 0.5395(3) 0.0619(2)
H1_2 H 0.2141 0.5092 0.0376
C6_2 C 0.2093(2) 0.6322(3) 0.1100(2)
C7_2 C 0.2490(2) 0.9207(3) 0.2019(2)
C8_2 C 0.1956(2) 0.7398(3) 0.1426(2)
C10_2 C 0.0193(2) 0.6510(3) 0.0955(2)
C11_2 C 0.2907(2) 0.5818(3) 0.1237(2)
H2_2 H 0.3236 0.5804 0.1404
C12_2 C 0.0519(2) 0.6034(3) 0.1173(2)
H3_2 H 0.0387 0.5647 0.1260
C14_2 C 0.0397(2) 0.7092(3) 0.0846(2)
H4_2 H 0.0185 0.7419 0.0709
C15_2 C 0.2937(2) 0.9462(3) 0.1903(2)
H5_2 H 0.3123 0.9228 0.1702
C16_2 C 0.2075(2) 0.8146(3) 0.2097(2)
H6_2 H 0.2031 0.8260 0.2420
C18_2 C 0.1031(2) 0.6128(3) 0.1261(2)
H7_2 H 0.1242 0.5804 0.1405
C19_2 C 0.1899(2) 0.7554(3) 0.1912(2)
C22_2 C 0.1938(2) 0.5880(3) 0.0726(2)
H8_2 H 0.1615 0.5910 0.0544
C23_2 C 0.2190(2) 0.7816(3) 0.1126(2)
C27_2 C 0.2584(2) 0.6289(3) 0.1349(2)
H10_2 H 0.2697 0.6588 0.1595
C29_2 C 0.0913(2) 0.7193(3) 0.0938(2)
H12_2 H 0.1042 0.7589 0.0869
C32_2 C 0.2313(2) 0.8576(3) 0.1814(2)
C35_2 C 0.2367(2) 0.8397(3) 0.1331(2)
H15_2 H 0.2527 0.8676 0.1139
C37_2 C 0.2220(2) 0.9554(3) 0.2320(2)
H17_2 H 0.1923 0.9383 0.2401
C40_2 C 0.1662(2) 0.7098(3) 0.2238(2)
H20_2 H 0.1305 0.7084 0.2130
H21_2 H 0.1730 0.7239 0.2578
H22_2 H 0.1802 0.6679 0.2212
H27_2 H 0.3795 0.9975 0.1844
C44_2 C 0.2249(3) 0.7643(3) 0.0600(3)
H30_2 H 0.2333 0.8018 0.0426
H31_2 H 0.1939 0.7466 0.0431
H32_2 H 0.2514 0.7334 0.0605
O5_2 O 0.94753(14) 0.58487(19) 0.09559(16)
O6_2 O 0.93527(14) 0.67983(19) 0.06223(16)
C9_2 C 0.9648(2) 0.6387(3) 0.0844(2)
O9_2 O 0.79035(13) 0.56347(17) 0.04983(13)
O11_2 O 0.85419(14) 0.51565(19) 0.09566(15)
O13_2 O 0.85014(17) 0.6644(2) 0.12408(16)
C2_3 C 0.3074(2) 0.0168(3) 0.5770(2)
O2_2 O 0.33765(14) 0.34576(18) 0.99096(14)
O4_2 O 0.38305(15) 0.43251(19) 0.99029(14)
O8_3 O 0.2869(2) 0.2064(2) 0.57153(13)
N1_3 N 0.17620(17) 0.8199(2) 0.62195(19)
N2_3 N 0.2996(2) 0.3981(2) 0.75672(18)
C1_3 C 0.2743(2) 0.9637(3) 0.5875(2)
C3_3 C 0.1240(2) 0.8289(3) 0.6134(2)
C4_3 C 0.3563(2) 0.3888(2) 0.9668(2)
C5_3 C 0.2255(2) 0.9605(3) 0.5619(2)
H1_3 H 0.2141 0.9908 0.5376
C6_3 C 0.2093(2) 0.8678(3) 0.6100(2)
C7_3 C 0.2490(2) 0.5793(3) 0.7019(2)
C8_3 C 0.1956(2) 0.7602(3) 0.6426(2)
C10_3 C 0.0193(2) 0.8490(3) 0.5955(2)
C11_3 C 0.2907(2) 0.9182(3) 0.6237(2)
H2_3 H 0.3236 0.9196 0.6404
C12_3 C 0.0519(2) 0.8966(3) 0.6173(2)
H3_3 H 0.0387 0.9353 0.6260
C13_3 C 0.3454(2) 0.3893(2) 0.9118(2)
C14_3 C 0.0397(2) 0.7908(3) 0.5846(2)
H4_3 H 0.0185 0.7581 0.5709
C15_3 C 0.2937(2) 0.5538(3) 0.6903(2)
H5_3 H 0.3123 0.5772 0.6702
C16_3 C 0.2075(2) 0.6854(3) 0.7097(2)
H6_3 H 0.2031 0.6740 0.7420
C17_3 C 0.3113(2) 0.4942(3) 0.7080(2)
C18_3 C 0.1031(2) 0.8872(3) 0.6261(2)
H7_3 H 0.1242 0.9196 0.6405
C19_3 C 0.1899(2) 0.7446(3) 0.6912(2)
C20_3 C 0.3010(2) 0.3474(3) 0.7233(2)
C21_3 C 0.3087(2) 0.2522(3) 0.6522(2)
C22_3 C 0.1938(2) 0.9120(3) 0.5726(2)
H8_3 H 0.1615 0.9090 0.5544
C23_3 C 0.2190(2) 0.7184(3) 0.6126(2)
C24_3 C 0.3056(2) 0.3400(3) 0.8355(2)
H9_3 H 0.2888 0.3055 0.8190
C25_3 C 0.2821(3) 0.4603(3) 0.7379(2)
C26_3 C 0.3167(2) 0.3934(3) 0.8084(2)
C27_3 C 0.2584(2) 0.8711(3) 0.6349(2)
H10_3 H 0.2697 0.8412 0.6595
C28_3 C 0.3356(2) 0.2976(3) 0.7335(2)
H11_3 H 0.3564 0.2960 0.7643
C29_3 C 0.0913(2) 0.7807(3) 0.5938(2)
H12_3 H 0.1042 0.7411 0.5869
C30_3 C 0.3139(2) 0.2050(3) 0.6120(2)
C31_3 C 0.2737(3) 0.3011(3) 0.6427(2)
H13_3 H 0.2527 0.3024 0.6121
C32_3 C 0.2313(2) 0.6424(3) 0.6814(2)
C33_3 C 0.2378(2) 0.4849(3) 0.7505(2)
C34_3 C 0.2695(3) 0.3478(3) 0.6775(2)
H14_3 H 0.2455 0.3798 0.6703
C35_3 C 0.2367(2) 0.6603(3) 0.6331(2)
H15_3 H 0.2527 0.6324 0.6139
C36_3 C 0.3194(2) 0.3384(3) 0.8867(2)
H16_3 H 0.3114 0.3030 0.9046
C37_3 C 0.2220(2) 0.5446(3) 0.7320(2)
H17_3 H 0.1923 0.5617 0.7401
C38_3 C 0.3393(2) 0.2508(3) 0.6985(2)
H18_3 H 0.3626 0.2180 0.7059
C39_3 C 0.3433(3) 0.4440(3) 0.8336(2)
H19_3 H 0.3514 0.4795 0.8158
C40_3 C 0.1662(2) 0.7902(3) 0.7238(2)
H20_3 H 0.1305 0.7916 0.7130
H21_3 H 0.1730 0.7761 0.7578
H22_3 H 0.1802 0.8321 0.7212
C41_3 C 0.3576(2) 0.4418(3) 0.8845(2)
H23_3 H 0.3756 0.4757 0.9009
C42_3 C 0.2071(3) 0.4469(3) 0.7829(3)
H24_3 H 0.2227 0.4495 0.8172
H25_3 H 0.1736 0.4641 0.7796
H26_3 H 0.2055 0.4031 0.7724
C43_3 C 0.3602(3) 0.4683(3) 0.6956(3)
H27_3 H 0.3795 0.5025 0.6844
H28_3 H 0.3790 0.4491 0.7248
H29_3 H 0.3533 0.4369 0.6697
C44_3 C 0.2249(3) 0.7357(3) 0.5600(3)
H30_3 H 0.2333 0.6982 0.5426
H31_3 H 0.1939 0.7534 0.5431
H32_3 H 0.2514 0.7666 0.5605
H33_3 H 0.268(2) 0.197(5) 0.5433(9)
O5_3 O 0.94753(14) 0.91513(19) 0.59559(16)
O6_3 O 0.93527(14) 0.82017(19) 0.56223(16)
C9_3 C 0.9648(2) 0.8613(3) 0.5844(2)
O10_2 O 0.83765(14) 0.84576(18) 0.49096(14)
O12_2 O 0.88305(15) 0.93251(19) 0.49029(14)
O5_4 O 0.44753(14) 0.41513(19) 0.09559(16)
O6_4 O 0.43527(14) 0.32017(19) 0.06223(16)
N1_4 N 0.67620(17) 0.3199(2) 0.12195(19)
C1_4 C 0.7743(2) 0.4637(3) 0.0875(2)
C2_4 C 0.8074(2) 0.5168(3) 0.0770(2)
C3_4 C 0.6240(2) 0.3289(3) 0.1134(2)
C5_4 C 0.7255(2) 0.4605(3) 0.0619(2)
H1_4 H 0.7141 0.4908 0.0376
C6_4 C 0.7093(2) 0.3678(3) 0.1100(2)
C7_4 C 0.7490(2) 0.0793(3) 0.2019(2)
C8_4 C 0.6956(2) 0.2602(3) 0.1426(2)
C9_4 C 0.4648(2) 0.3613(3) 0.0844(2)
C10_4 C 0.5193(2) 0.3490(3) 0.0955(2)
C11_4 C 0.7907(2) 0.4182(3) 0.1237(2)
H2_4 H 0.8236 0.4196 0.1404
C12_4 C 0.5519(2) 0.3966(3) 0.1173(2)
H3_4 H 0.5387 0.4353 0.1260
C14_4 C 0.5397(2) 0.2908(3) 0.0846(2)
H4_4 H 0.5185 0.2581 0.0709
C15_4 C 0.7937(2) 0.0538(3) 0.1903(2)
H5_4 H 0.8123 0.0772 0.1702
C16_4 C 0.7075(2) 0.1854(3) 0.2097(2)
H6_4 H 0.7031 0.1740 0.2420
C18_4 C 0.6031(2) 0.3872(3) 0.1261(2)
H7_4 H 0.6242 0.4196 0.1405
C19_4 C 0.6899(2) 0.2446(3) 0.1912(2)
C22_4 C 0.6938(2) 0.4120(3) 0.0726(2)
H8_4 H 0.6615 0.4090 0.0544
C23_4 C 0.7190(2) 0.2184(3) 0.1126(2)
C27_4 C 0.7584(2) 0.3711(3) 0.1349(2)
H10_4 H 0.7697 0.3412 0.1595
C29_4 C 0.5913(2) 0.2807(3) 0.0938(2)
H12_4 H 0.6042 0.2411 0.0869
C32_4 C 0.7313(2) 0.1424(3) 0.1814(2)
C35_4 C 0.7367(2) 0.1603(3) 0.1331(2)
H15_4 H 0.7527 0.1324 0.1139
C37_4 C 0.7220(2) 0.0446(3) 0.2320(2)
H17_4 H 0.6923 0.0617 0.2401
C40_4 C 0.6662(2) 0.2902(3) 0.2238(2)
H20_4 H 0.6305 0.2916 0.2130
H21_4 H 0.6730 0.2761 0.2578
H22_4 H 0.6802 0.3321 0.2212
H27_4 H 0.8795 0.0025 0.1844
C44_4 C 0.7249(3) 0.2357(3) 0.0600(3)
H30_4 H 0.7333 0.1982 0.0426
H31_4 H 0.6939 0.2534 0.0431
H32_4 H 0.7514 0.2666 0.0605
O8_4 O 0.7869(2) 0.7064(2) 0.07153(13)
N2_4 N 0.7996(2) 0.8981(2) 0.25672(18)
C4_4 C 0.8563(2) 0.8888(2) 0.4668(2)
C13_4 C 0.8454(2) 0.8893(2) 0.4118(2)
C17_4 C 0.8113(2) 0.9942(3) 0.2080(2)
C20_4 C 0.8010(2) 0.8474(3) 0.2233(2)
C21_4 C 0.8087(2) 0.7522(3) 0.1522(2)
C24_4 C 0.8056(2) 0.8400(3) 0.3355(2)
H9_4 H 0.7888 0.8055 0.3190
C25_4 C 0.7821(3) 0.9603(3) 0.2379(2)
C26_4 C 0.8167(2) 0.8934(3) 0.3084(2)
C28_4 C 0.8356(2) 0.7976(3) 0.2335(2)
H11_4 H 0.8564 0.7960 0.2643
C30_4 C 0.8139(2) 0.7050(3) 0.1120(2)
C31_4 C 0.7737(3) 0.8011(3) 0.1427(2)
H13_4 H 0.7527 0.8024 0.1121
C33_4 C 0.7378(2) 0.9849(3) 0.2505(2)
C34_4 C 0.7695(3) 0.8478(3) 0.1775(2)
H14_4 H 0.7455 0.8798 0.1703
C36_4 C 0.8194(2) 0.8384(3) 0.3867(2)
H16_4 H 0.8114 0.8030 0.4046
C38_4 C 0.8393(2) 0.7508(3) 0.1985(2)
H18_4 H 0.8626 0.7180 0.2059
C39_4 C 0.8433(3) 0.9440(3) 0.3336(2)
H19_4 H 0.8514 0.9795 0.3158
C41_4 C 0.8576(2) 0.9418(3) 0.3845(2)
H23_4 H 0.8756 0.9757 0.4009
C42_4 C 0.7071(3) 0.9469(3) 0.2829(3)
H24_4 H 0.7227 0.9495 0.3172
H25_4 H 0.6736 0.9641 0.2796
H26_4 H 0.7055 0.9031 0.2724
C43_4 C 0.8602(3) 0.9683(3) 0.1956(3)
H28_4 H 0.8790 0.9491 0.2248
H29_4 H 0.8533 0.9369 0.1697
H33_4 H 0.768(2) 0.697(5) 0.0433(9)
In1_2 In 0.13132(2) 0.11141(2) 0.43533(2)
O5_5 O 0.05247(14) 0.08487(19) 0.40441(16)
O6_5 O 0.06473(14) 0.17983(19) 0.43777(16)
C9_5 C 0.0352(2) 0.1387(3) 0.4156(2)
O9_3 O 0.20965(13) 0.06347(17) 0.45017(13)
O10_3 O 0.16235(14) 0.15424(18) 0.50904(14)
O11_3 O 0.14581(14) 0.01565(19) 0.40434(15)
O12_3 O 0.11695(15) 0.06749(19) 0.50971(14)
O13_3 O 0.14986(17) 0.1644(2) 0.37592(16)
O2_3 O 0.66235(14) 0.65424(18) 0.00904(14)
O4_3 O 0.61695(15) 0.56749(19) 0.00971(14)
O7_3 O 0.64986(17) 0.8356(2) 0.37592(16)
O8_5 O 0.7131(2) 0.7936(2) 0.42847(13)
N1_5 N 0.82380(17) 0.1801(2) 0.37805(19)
N2_5 N 0.7004(2) 0.6019(2) 0.24328(18)
C1_5 C 0.7257(2) 0.0363(3) 0.4125(2)
C3_5 C 0.8760(2) 0.1711(3) 0.3866(2)
C4_5 C 0.6437(2) 0.6112(2) 0.0332(2)
C5_5 C 0.7745(2) 0.0395(3) 0.4381(2)
H1_5 H 0.7859 0.0092 0.4624
C6_5 C 0.7907(2) 0.1322(3) 0.3900(2)
C7_5 C 0.7510(2) 0.4207(3) 0.2981(2)
C8_5 C 0.8044(2) 0.2398(3) 0.3574(2)
C10_5 C 0.9807(2) 0.1510(3) 0.4045(2)
C11_5 C 0.7093(2) 0.0818(3) 0.3763(2)
H2_5 H 0.6764 0.0804 0.3596
C12_5 C 0.9481(2) 0.1034(3) 0.3827(2)
H3_5 H 0.9613 0.0647 0.3740
C13_5 C 0.6546(2) 0.6107(2) 0.0882(2)
C14_5 C 0.9603(2) 0.2092(3) 0.4154(2)
H4_5 H 0.9815 0.2419 0.4291
C15_5 C 0.7063(2) 0.4462(3) 0.3097(2)
H5_5 H 0.6877 0.4228 0.3298
C16_5 C 0.7925(2) 0.3146(3) 0.2903(2)
H6_5 H 0.7969 0.3260 0.2580
C17_5 C 0.6887(2) 0.5058(3) 0.2920(2)
C18_5 C 0.8969(2) 0.1128(3) 0.3739(2)
H7_5 H 0.8758 0.0804 0.3595
C19_5 C 0.8101(2) 0.2554(3) 0.3088(2)
C20_5 C 0.6990(2) 0.6526(3) 0.2767(2)
C21_5 C 0.6913(2) 0.7478(3) 0.3478(2)
C22_5 C 0.8062(2) 0.0880(3) 0.4274(2)
H8_5 H 0.8385 0.0910 0.4456
C23_5 C 0.7810(2) 0.2816(3) 0.3874(2)
C24_5 C 0.6944(2) 0.6600(3) 0.1645(2)
H9_5 H 0.7112 0.6945 0.1810
C25_5 C 0.7179(3) 0.5397(3) 0.2621(2)
C26_5 C 0.6833(2) 0.6066(3) 0.1916(2)
C27_5 C 0.7416(2) 0.1289(3) 0.3651(2)
H10_5 H 0.7303 0.1588 0.3405
C28_5 C 0.6644(2) 0.7024(3) 0.2665(2)
H11_5 H 0.6436 0.7040 0.2357
C29_5 C 0.9087(2) 0.2193(3) 0.4062(2)
H12_5 H 0.8958 0.2589 0.4131
C30_5 C 0.6861(2) 0.7950(3) 0.3880(2)
C31_5 C 0.7263(3) 0.6989(3) 0.3573(2)
H13_5 H 0.7473 0.6976 0.3879
C32_5 C 0.7687(2) 0.3576(3) 0.3186(2)
C33_5 C 0.7622(2) 0.5151(3) 0.2495(2)
C34_5 C 0.7305(3) 0.6522(3) 0.3225(2)
H14_5 H 0.7545 0.6202 0.3297
C35_5 C 0.7633(2) 0.3397(3) 0.3669(2)
H15_5 H 0.7473 0.3676 0.3861
C36_5 C 0.6806(2) 0.6616(3) 0.1133(2)
H16_5 H 0.6886 0.6970 0.0954
C37_5 C 0.7780(2) 0.4554(3) 0.2680(2)
H17_5 H 0.8077 0.4383 0.2599
C38_5 C 0.6607(2) 0.7492(3) 0.3015(2)
H18_5 H 0.6374 0.7820 0.2941
C39_5 C 0.6567(3) 0.5560(3) 0.1664(2)
H19_5 H 0.6486 0.5205 0.1842
C40_5 C 0.8338(2) 0.2098(3) 0.2762(2)
H20_5 H 0.8695 0.2084 0.2870
H21_5 H 0.8270 0.2239 0.2422
H22_5 H 0.8198 0.1679 0.2788
C41_5 C 0.6424(2) 0.5582(3) 0.1155(2)
H23_5 H 0.6244 0.5243 0.0991
C42_5 C 0.7929(3) 0.5531(3) 0.2171(3)
H24_5 H 0.7773 0.5505 0.1828
H25_5 H 0.8264 0.5359 0.2204
H26_5 H 0.7945 0.5969 0.2276
C43_5 C 0.6398(3) 0.5317(3) 0.3044(3)
H27_5 H 0.6205 0.4975 0.3156
H28_5 H 0.6210 0.5509 0.2752
H29_5 H 0.6467 0.5631 0.3303
C44_5 C 0.7751(3) 0.2643(3) 0.4400(3)
H30_5 H 0.7667 0.3018 0.4574
H31_5 H 0.8061 0.2466 0.4569
H32_5 H 0.7486 0.2334 0.4395
H33_5 H 0.732(2) 0.803(5) 0.4567(9)
In4_3 In 0.63132(2) 0.88859(2) 0.43533(2)
In2_2 In 0.63132(2) 0.61141(2) 0.93533(2)
O1_3 O 0.70965(13) 0.93653(17) 0.45017(13)
O3_3 O 0.64581(14) 0.98435(19) 0.40434(15)
C2_5 C 0.6926(2) 0.9832(3) 0.4230(2)
O7_4 O 0.14986(17) 0.3356(2) 0.87592(16)
O8_6 O 0.2131(2) 0.2936(2) 0.92847(13)
N2_6 N 0.2004(2) 0.1019(2) 0.74328(18)
C4_6 C 0.1437(2) 0.1112(2) 0.5332(2)
C13_6 C 0.1546(2) 0.1107(2) 0.5882(2)
C17_6 C 0.1887(2) 0.0058(3) 0.7920(2)
C20_6 C 0.1990(2) 0.1526(3) 0.7767(2)
C21_6 C 0.1913(2) 0.2478(3) 0.8478(2)
C24_6 C 0.1944(2) 0.1600(3) 0.6645(2)
H9_6 H 0.2112 0.1945 0.6810
C25_6 C 0.2179(3) 0.0397(3) 0.7621(2)
C26_6 C 0.1833(2) 0.1066(3) 0.6916(2)
C28_6 C 0.1644(2) 0.2024(3) 0.7665(2)
H11_6 H 0.1436 0.2040 0.7357
C30_6 C 0.1861(2) 0.2950(3) 0.8880(2)
C31_6 C 0.2263(3) 0.1989(3) 0.8573(2)
H13_6 H 0.2473 0.1976 0.8879
C33_6 C 0.2622(2) 0.0151(3) 0.7495(2)
C34_6 C 0.2305(3) 0.1522(3) 0.8225(2)
H14_6 H 0.2545 0.1202 0.8297
C36_6 C 0.1806(2) 0.1616(3) 0.6133(2)
H16_6 H 0.1886 0.1970 0.5954
C38_6 C 0.1607(2) 0.2492(3) 0.8015(2)
H18_6 H 0.1374 0.2820 0.7941
C39_6 C 0.1567(3) 0.0560(3) 0.6664(2)
H19_6 H 0.1486 0.0205 0.6842
C41_6 C 0.1424(2) 0.0582(3) 0.6155(2)
H23_6 H 0.1244 0.0243 0.5991
C42_6 C 0.2929(3) 0.0531(3) 0.7171(3)
H24_6 H 0.2773 0.0505 0.6828
H25_6 H 0.3264 0.0359 0.7204
H26_6 H 0.2945 0.0969 0.7276
C43_6 C 0.1398(3) 0.0317(3) 0.8044(3)
H28_6 H 0.1210 0.0509 0.7752
H29_6 H 0.1467 0.0631 0.8303
H33_6 H 0.232(2) 0.303(5) 0.9567(9)
In4_4 In 0.13132(2) 0.38859(2) 0.93533(2)
O1_4 O 0.20965(13) 0.43653(17) 0.95017(13)
O3_4 O 0.14581(14) 0.48435(19) 0.90434(15)
O5_6 O 0.55247(14) 0.58487(19) 0.90441(16)
O6_6 O 0.56473(14) 0.67983(19) 0.93777(16)
N1_6 N 0.32380(17) 0.6801(2) 0.87805(19)
C1_6 C 0.2257(2) 0.5363(3) 0.9125(2)
C2_6 C 0.1926(2) 0.4832(3) 0.9230(2)
C3_6 C 0.3760(2) 0.6711(3) 0.8866(2)
C5_6 C 0.2745(2) 0.5395(3) 0.9381(2)
H1_6 H 0.2859 0.5092 0.9624
C6_6 C 0.2907(2) 0.6322(3) 0.8900(2)
C7_6 C 0.2510(2) 0.9207(3) 0.7981(2)
C8_6 C 0.3044(2) 0.7398(3) 0.8574(2)
C9_6 C 0.5352(2) 0.6387(3) 0.9156(2)
C10_6 C 0.4807(2) 0.6510(3) 0.9045(2)
C11_6 C 0.2093(2) 0.5818(3) 0.8763(2)
H2_6 H 0.1764 0.5804 0.8596
C12_6 C 0.4481(2) 0.6034(3) 0.8827(2)
H3_6 H 0.4613 0.5647 0.8740
C14_6 C 0.4603(2) 0.7092(3) 0.9154(2)
H4_6 H 0.4815 0.7419 0.9291
C15_6 C 0.2063(2) 0.9462(3) 0.8097(2)
H5_6 H 0.1877 0.9228 0.8298
C16_6 C 0.2925(2) 0.8146(3) 0.7903(2)
H6_6 H 0.2969 0.8260 0.7580
C18_6 C 0.3969(2) 0.6128(3) 0.8739(2)
H7_6 H 0.3758 0.5804 0.8595
C19_6 C 0.3101(2) 0.7554(3) 0.8088(2)
C22_6 C 0.3062(2) 0.5880(3) 0.9274(2)
H8_6 H 0.3385 0.5910 0.9456
C23_6 C 0.2810(2) 0.7816(3) 0.8874(2)
C27_6 C 0.2416(2) 0.6289(3) 0.8651(2)
H10_6 H 0.2303 0.6588 0.8405
C29_6 C 0.4087(2) 0.7193(3) 0.9062(2)
H12_6 H 0.3958 0.7589 0.9131
C32_6 C 0.2687(2) 0.8576(3) 0.8186(2)
C35_6 C 0.2633(2) 0.8397(3) 0.8669(2)
H15_6 H 0.2473 0.8676 0.8861
C37_6 C 0.2780(2) 0.9554(3) 0.7680(2)
H17_6 H 0.3077 0.9383 0.7599
C40_6 C 0.3338(2) 0.7098(3) 0.7762(2)
H20_6 H 0.3695 0.7084 0.7870
H21_6 H 0.3270 0.7239 0.7422
H22_6 H 0.3198 0.6679 0.7788
H27_6 H 0.1205 0.9975 0.8156
C44_6 C 0.2751(3) 0.7643(3) 0.9400(3)
H30_6 H 0.2667 0.8018 0.9574
H31_6 H 0.3061 0.7466 0.9569
H32_6 H 0.2486 0.7334 0.9395
O9_4 O 0.70965(13) 0.56347(17) 0.95017(13)
O11_4 O 0.64581(14) 0.51565(19) 0.90434(15)
O13_4 O 0.64986(17) 0.6644(2) 0.87592(16)
C2_7 C 0.1926(2) 0.0168(3) 0.4230(2)
O2_4 O 0.16235(14) 0.34576(18) 0.00904(14)
O4_4 O 0.11695(15) 0.43251(19) 0.00971(14)
O5_7 O 0.55247(14) 0.91513(19) 0.40441(16)
O6_7 O 0.56473(14) 0.82017(19) 0.43777(16)
O8_7 O 0.2131(2) 0.2064(2) 0.42847(13)
N1_7 N 0.32380(17) 0.8199(2) 0.37805(19)
N2_7 N 0.2004(2) 0.3981(2) 0.24328(18)
C1_7 C 0.2257(2) 0.9637(3) 0.4125(2)
C3_7 C 0.3760(2) 0.8289(3) 0.3866(2)
C4_7 C 0.1437(2) 0.3888(2) 0.0332(2)
C5_7 C 0.2745(2) 0.9605(3) 0.4381(2)
H1_7 H 0.2859 0.9908 0.4624
C6_7 C 0.2907(2) 0.8678(3) 0.3900(2)
C7_7 C 0.2510(2) 0.5793(3) 0.2981(2)
C8_7 C 0.3044(2) 0.7602(3) 0.3574(2)
C9_7 C 0.5352(2) 0.8613(3) 0.4156(2)
C10_7 C 0.4807(2) 0.8490(3) 0.4045(2)
C11_7 C 0.2093(2) 0.9182(3) 0.3763(2)
H2_7 H 0.1764 0.9196 0.3596
C12_7 C 0.4481(2) 0.8966(3) 0.3827(2)
H3_7 H 0.4613 0.9353 0.3740
C13_7 C 0.1546(2) 0.3893(2) 0.0882(2)
C14_7 C 0.4603(2) 0.7908(3) 0.4154(2)
H4_7 H 0.4815 0.7581 0.4291
C15_7 C 0.2063(2) 0.5538(3) 0.3097(2)
H5_7 H 0.1877 0.5772 0.3298
C16_7 C 0.2925(2) 0.6854(3) 0.2903(2)
H6_7 H 0.2969 0.6740 0.2580
C17_7 C 0.1887(2) 0.4942(3) 0.2920(2)
C18_7 C 0.3969(2) 0.8872(3) 0.3739(2)
H7_7 H 0.3758 0.9196 0.3595
C19_7 C 0.3101(2) 0.7446(3) 0.3088(2)
C20_7 C 0.1990(2) 0.3474(3) 0.2767(2)
C21_7 C 0.1913(2) 0.2522(3) 0.3478(2)
C22_7 C 0.3062(2) 0.9120(3) 0.4274(2)
H8_7 H 0.3385 0.9090 0.4456
C23_7 C 0.2810(2) 0.7184(3) 0.3874(2)
C24_7 C 0.1944(2) 0.3400(3) 0.1645(2)
H9_7 H 0.2112 0.3055 0.1810
C25_7 C 0.2179(3) 0.4603(3) 0.2621(2)
C26_7 C 0.1833(2) 0.3934(3) 0.1916(2)
C27_7 C 0.2416(2) 0.8711(3) 0.3651(2)
H10_7 H 0.2303 0.8412 0.3405
C28_7 C 0.1644(2) 0.2976(3) 0.2665(2)
H11_7 H 0.1436 0.2960 0.2357
C29_7 C 0.4087(2) 0.7807(3) 0.4062(2)
H12_7 H 0.3958 0.7411 0.4131
C30_7 C 0.1861(2) 0.2050(3) 0.3880(2)
C31_7 C 0.2263(3) 0.3011(3) 0.3573(2)
H13_7 H 0.2473 0.3024 0.3879
C32_7 C 0.2687(2) 0.6424(3) 0.3186(2)
C33_7 C 0.2622(2) 0.4849(3) 0.2495(2)
C34_7 C 0.2305(3) 0.3478(3) 0.3225(2)
H14_7 H 0.2545 0.3798 0.3297
C35_7 C 0.2633(2) 0.6603(3) 0.3669(2)
H15_7 H 0.2473 0.6324 0.3861
C36_7 C 0.1806(2) 0.3384(3) 0.1133(2)
H16_7 H 0.1886 0.3030 0.0954
C37_7 C 0.2780(2) 0.5446(3) 0.2680(2)
H17_7 H 0.3077 0.5617 0.2599
C38_7 C 0.1607(2) 0.2508(3) 0.3015(2)
H18_7 H 0.1374 0.2180 0.2941
C39_7 C 0.1567(3) 0.4440(3) 0.1664(2)
H19_7 H 0.1486 0.4795 0.1842
C40_7 C 0.3338(2) 0.7902(3) 0.2762(2)
H20_7 H 0.3695 0.7916 0.2870
H21_7 H 0.3270 0.7761 0.2422
H22_7 H 0.3198 0.8321 0.2788
C41_7 C 0.1424(2) 0.4418(3) 0.1155(2)
H23_7 H 0.1244 0.4757 0.0991
C42_7 C 0.2929(3) 0.4469(3) 0.2171(3)
H24_7 H 0.2773 0.4495 0.1828
H25_7 H 0.3264 0.4641 0.2204
H26_7 H 0.2945 0.4031 0.2276
C43_7 C 0.1398(3) 0.4683(3) 0.3044(3)
H27_7 H 0.1205 0.5025 0.3156
H28_7 H 0.1210 0.4491 0.2752
H29_7 H 0.1467 0.4369 0.3303
C44_7 C 0.2751(3) 0.7357(3) 0.4400(3)
H30_7 H 0.2667 0.6982 0.4574
H31_7 H 0.3061 0.7534 0.4569
H32_7 H 0.2486 0.7666 0.4395
H33_7 H 0.232(2) 0.197(5) 0.4567(9)
O10_4 O 0.66235(14) 0.84576(18) 0.50904(14)
O12_4 O 0.61695(15) 0.93251(19) 0.50971(14)
O5_8 O 0.05247(14) 0.41513(19) 0.90441(16)
O6_8 O 0.06473(14) 0.32017(19) 0.93777(16)
C9_8 C 0.0352(2) 0.3613(3) 0.9156(2)
N1_8 N 0.82380(17) 0.3199(2) 0.87805(19)
C1_8 C 0.7257(2) 0.4637(3) 0.9125(2)
C2_8 C 0.6926(2) 0.5168(3) 0.9230(2)
C3_8 C 0.8760(2) 0.3289(3) 0.8866(2)
C5_8 C 0.7745(2) 0.4605(3) 0.9381(2)
H1_8 H 0.7859 0.4908 0.9624
C6_8 C 0.7907(2) 0.3678(3) 0.8900(2)
C7_8 C 0.7510(2) 0.0793(3) 0.7981(2)
C8_8 C 0.8044(2) 0.2602(3) 0.8574(2)
C10_8 C 0.9807(2) 0.3490(3) 0.9045(2)
C11_8 C 0.7093(2) 0.4182(3) 0.8763(2)
H2_8 H 0.6764 0.4196 0.8596
C12_8 C 0.9481(2) 0.3966(3) 0.8827(2)
H3_8 H 0.9613 0.4353 0.8740
C14_8 C 0.9603(2) 0.2908(3) 0.9154(2)
H4_8 H 0.9815 0.2581 0.9291
C15_8 C 0.7063(2) 0.0538(3) 0.8097(2)
H5_8 H 0.6877 0.0772 0.8298
C16_8 C 0.7925(2) 0.1854(3) 0.7903(2)
H6_8 H 0.7969 0.1740 0.7580
C18_8 C 0.8969(2) 0.3872(3) 0.8739(2)
H7_8 H 0.8758 0.4196 0.8595
C19_8 C 0.8101(2) 0.2446(3) 0.8088(2)
C22_8 C 0.8062(2) 0.4120(3) 0.9274(2)
H8_8 H 0.8385 0.4090 0.9456
C23_8 C 0.7810(2) 0.2184(3) 0.8874(2)
C27_8 C 0.7416(2) 0.3711(3) 0.8651(2)
H10_8 H 0.7303 0.3412 0.8405
C29_8 C 0.9087(2) 0.2807(3) 0.9062(2)
H12_8 H 0.8958 0.2411 0.9131
C32_8 C 0.7687(2) 0.1424(3) 0.8186(2)
C35_8 C 0.7633(2) 0.1603(3) 0.8669(2)
H15_8 H 0.7473 0.1324 0.8861
C37_8 C 0.7780(2) 0.0446(3) 0.7680(2)
H17_8 H 0.8077 0.0617 0.7599
C40_8 C 0.8338(2) 0.2902(3) 0.7762(2)
H20_8 H 0.8695 0.2916 0.7870
H21_8 H 0.8270 0.2761 0.7422
H22_8 H 0.8198 0.3321 0.7788
H27_8 H 0.6205 0.0025 0.8156
C44_8 C 0.7751(3) 0.2357(3) 0.9400(3)
H30_8 H 0.7667 0.1982 0.9574
H31_8 H 0.8061 0.2534 0.9569
H32_8 H 0.7486 0.2666 0.9395
O8_8 O 0.7131(2) 0.7064(2) 0.92847(13)
N2_8 N 0.7004(2) 0.8981(2) 0.74328(18)
C4_8 C 0.6437(2) 0.8888(2) 0.5332(2)
C13_8 C 0.6546(2) 0.8893(2) 0.5882(2)
C17_8 C 0.6887(2) 0.9942(3) 0.7920(2)
C20_8 C 0.6990(2) 0.8474(3) 0.7767(2)
C21_8 C 0.6913(2) 0.7522(3) 0.8478(2)
C24_8 C 0.6944(2) 0.8400(3) 0.6645(2)
H9_8 H 0.7112 0.8055 0.6810
C25_8 C 0.7179(3) 0.9603(3) 0.7621(2)
C26_8 C 0.6833(2) 0.8934(3) 0.6916(2)
C28_8 C 0.6644(2) 0.7976(3) 0.7665(2)
H11_8 H 0.6436 0.7960 0.7357
C30_8 C 0.6861(2) 0.7050(3) 0.8880(2)
C31_8 C 0.7263(3) 0.8011(3) 0.8573(2)
H13_8 H 0.7473 0.8024 0.8879
C33_8 C 0.7622(2) 0.9849(3) 0.7495(2)
C34_8 C 0.7305(3) 0.8478(3) 0.8225(2)
H14_8 H 0.7545 0.8798 0.8297
C36_8 C 0.6806(2) 0.8384(3) 0.6133(2)
H16_8 H 0.6886 0.8030 0.5954
C38_8 C 0.6607(2) 0.7508(3) 0.8015(2)
H18_8 H 0.6374 0.7180 0.7941
C39_8 C 0.6567(3) 0.9440(3) 0.6664(2)
H19_8 H 0.6486 0.9795 0.6842
C41_8 C 0.6424(2) 0.9418(3) 0.6155(2)
H23_8 H 0.6244 0.9757 0.5991
C42_8 C 0.7929(3) 0.9469(3) 0.7171(3)
H24_8 H 0.7773 0.9495 0.6828
H25_8 H 0.8264 0.9641 0.7204
H26_8 H 0.7945 0.9031 0.7276
C43_8 C 0.6398(3) 0.9683(3) 0.8044(3)
H28_8 H 0.6210 0.9491 0.7752
H29_8 H 0.6467 0.9369 0.8303
H33_8 H 0.732(2) 0.697(5) 0.9567(9)
loop_
_geom_bond_atom_site_label_1
_geom_bond_atom_site_label_2
_geom_bond_site_symmetry_1
_geom_bond_site_symmetry_2
In1 O5 1_555 1_555
O2 C4 1_555 1_555
O4 C4 1_555 1_555
O5 C9 1_555 1_555
O6 In1 1_555 1_555
O7 C30 1_555 1_555
O8 C30 1_555 1_555
N1 C3 1_555 1_555
N2 C20 1_555 1_555
C3 C18 1_555 1_555
C4 C13 1_555 1_555
C5 C1 1_555 1_555
H1 C5 1_555 1_555
C6 N1 1_555 1_555
C7 C15 1_555 1_555
C8 N1 1_555 1_555
C9 O6 1_555 1_555
C10 C9 1_555 1_555
C11 C1 1_555 1_555
H2 C11 1_555 1_555
C12 C10 1_555 1_555
H3 C12 1_555 1_555
C13 C36 1_555 1_555
C14 C10 1_555 1_555
H4 C14 1_555 1_555
C15 H5 1_555 1_555
C16 H6 1_555 1_555
C17 C15 1_555 1_555
C18 C12 1_555 1_555
H7 C18 1_555 1_555
C19 C8 1_555 1_555
C20 C28 1_555 1_555
C21 C30 1_555 1_555
C22 C5 1_555 1_555
H8 C22 1_555 1_555
C23 C8 1_555 1_555
C24 H9 1_555 1_555
C25 N2 1_555 1_555
C26 N2 1_555 1_555
C27 C6 1_555 1_555
H10 C27 1_555 1_555
C28 H11 1_555 1_555
C29 C3 1_555 1_555
H12 C29 1_555 1_555
C31 C21 1_555 1_555
H13 C31 1_555 1_555
C32 C7 1_555 1_555
C33 C25 1_555 1_555
C34 C20 1_555 1_555
H14 C34 1_555 1_555
C35 C23 1_555 1_555
H15 C35 1_555 1_555
C36 C24 1_555 1_555
H16 C36 1_555 1_555
C37 C7 1_555 1_555
H17 C37 1_555 1_555
C38 C21 1_555 1_555
H18 C38 1_555 1_555
C39 C26 1_555 1_555
H19 C39 1_555 1_555
C40 C19 1_555 1_555
H20 C40 1_555 1_555
H21 C40 1_555 1_555
H22 C40 1_555 1_555
C41 C13 1_555 1_555
H23 C41 1_555 1_555
C42 C33 1_555 1_555
H24 C42 1_555 1_555
H25 C42 1_555 1_555
H26 C42 1_555 1_555
C43 C17 1_555 1_555
H27 C43 1_555 1_555
H28 C43 1_555 1_555
H29 C43 1_555 1_555
C44 C23 1_555 1_555
H30 C44 1_555 1_555
H31 C44 1_555 1_555
H32 C44 1_555 1_555
H33 O8 1_555 1_555
In4 O7 1_555 1_555
O9 In1 1_555 1_555
O10 In1 1_555 1_555
O11 In1 1_555 1_555
O12 In1 1_555 1_555
O13 In1 1_555 1_555
C6 C22 1_555 1_555
C11 C27 1_555 1_555
C14 C29 1_555 1_555
C16 C19 1_555 1_555
C16 C32 1_555 1_555
C17 C25 1_555 1_555
C24 C26 1_555 1_555
C28 C38 1_555 1_555
C31 C34 1_555 1_555
C32 C35 1_555 1_555
C33 C37 1_555 1_555
C39 C41 1_555 1_555
O1 C2 1_555 1_555
O3 C2 1_555 1_555
In4 O1 1_555 1_555
O3 In4 1_555 1_555
O10 C4_2 1_555 1_555
O12 C4_2 1_555 1_555
O7_2 C30_2 1_555 1_555
O8_2 C30_2 1_555 1_555
N2_2 C20_2 1_555 1_555
C4_2 C13_2 1_555 1_555
C13_2 C36_2 1_555 1_555
C20_2 C28_2 1_555 1_555
C21_2 C30_2 1_555 1_555
C24_2 H9_2 1_555 1_555
C25_2 N2_2 1_555 1_555
C26_2 N2_2 1_555 1_555
C28_2 H11_2 1_555 1_555
C31_2 C21_2 1_555 1_555
H13_2 C31_2 1_555 1_555
C33_2 C25_2 1_555 1_555
C34_2 C20_2 1_555 1_555
H14_2 C34_2 1_555 1_555
C36_2 C24_2 1_555 1_555
H16_2 C36_2 1_555 1_555
C38_2 C21_2 1_555 1_555
H18_2 C38_2 1_555 1_555
C39_2 C26_2 1_555 1_555
H19_2 C39_2 1_555 1_555
C41_2 C13_2 1_555 1_555
H23_2 C41_2 1_555 1_555
C42_2 C33_2 1_555 1_555
H24_2 C42_2 1_555 1_555
H25_2 C42_2 1_555 1_555
H26_2 C42_2 1_555 1_555
C43_2 C17_2 1_555 1_555
H28_2 C43_2 1_555 1_555
H29_2 C43_2 1_555 1_555
H33_2 O8_2 1_555 1_555
In4_2 O7_2 1_555 1_555
C17_2 C25_2 1_555 1_555
C24_2 C26_2 1_555 1_555
C28_2 C38_2 1_555 1_555
C31_2 C34_2 1_555 1_555
C39_2 C41_2 1_555 1_555
O1_2 C2_2 1_555 1_555
O3_2 C2_2 1_555 1_555
N1_2 C3_2 1_555 1_555
C1_2 C2_2 1_555 1_555
C3_2 C18_2 1_555 1_555
C5_2 C1_2 1_555 1_555
H1_2 C5_2 1_555 1_555
C6_2 N1_2 1_555 1_555
C7_2 C15_2 1_555 1_555
C8_2 N1_2 1_555 1_555
C11_2 C1_2 1_555 1_555
H2_2 C11_2 1_555 1_555
C12_2 C10_2 1_555 1_555
H3_2 C12_2 1_555 1_555
C14_2 C10_2 1_555 1_555
H4_2 C14_2 1_555 1_555
C15_2 H5_2 1_555 1_555
C16_2 H6_2 1_555 1_555
C18_2 C12_2 1_555 1_555
H7_2 C18_2 1_555 1_555
C19_2 C8_2 1_555 1_555
C22_2 C5_2 1_555 1_555
H8_2 C22_2 1_555 1_555
C23_2 C8_2 1_555 1_555
C27_2 C6_2 1_555 1_555
H10_2 C27_2 1_555 1_555
C29_2 C3_2 1_555 1_555
H12_2 C29_2 1_555 1_555
C32_2 C7_2 1_555 1_555
C35_2 C23_2 1_555 1_555
H15_2 C35_2 1_555 1_555
C37_2 C7_2 1_555 1_555
H17_2 C37_2 1_555 1_555
C40_2 C19_2 1_555 1_555
H20_2 C40_2 1_555 1_555
H21_2 C40_2 1_555 1_555
H22_2 C40_2 1_555 1_555
C44_2 C23_2 1_555 1_555
H30_2 C44_2 1_555 1_555
H31_2 C44_2 1_555 1_555
H32_2 C44_2 1_555 1_555
In4_2 O1_2 1_555 1_555
O3_2 In4_2 1_555 1_555
C6_2 C22_2 1_555 1_555
C11_2 C27_2 1_555 1_555
C14_2 C29_2 1_555 1_555
C16_2 C19_2 1_555 1_555
C16_2 C32_2 1_555 1_555
C32_2 C35_2 1_555 1_555
In2 O5_2 1_555 1_555
O5_2 C9_2 1_555 1_555
O6_2 In2 1_555 1_555
C9_2 O6_2 1_555 1_555
O9_2 In2 1_555 1_555
O11_2 In2 1_555 1_555
O13_2 In2 1_555 1_555
O9 C2_3 1_555 1_555
O11 C2_3 1_555 1_555
O2_2 C4_3 1_555 1_555
O4_2 C4_3 1_555 1_555
O13 C30_3 1_555 1_555
O8_3 C30_3 1_555 1_555
N1_3 C3_3 1_555 1_555
N2_3 C20_3 1_555 1_555
C3_3 C18_3 1_555 1_555
C4_3 C13_3 1_555 1_555
C5_3 C1_3 1_555 1_555
H1_3 C5_3 1_555 1_555
C6_3 N1_3 1_555 1_555
C7_3 C15_3 1_555 1_555
C8_3 N1_3 1_555 1_555
C11_3 C1_3 1_555 1_555
H2_3 C11_3 1_555 1_555
C12_3 C10_3 1_555 1_555
H3_3 C12_3 1_555 1_555
C13_3 C36_3 1_555 1_555
C14_3 C10_3 1_555 1_555
H4_3 C14_3 1_555 1_555
C15_3 H5_3 1_555 1_555
C16_3 H6_3 1_555 1_555
C17_3 C15_3 1_555 1_555
C18_3 C12_3 1_555 1_555
H7_3 C18_3 1_555 1_555
C19_3 C8_3 1_555 1_555
C20_3 C28_3 1_555 1_555
C21_3 C30_3 1_555 1_555
C22_3 C5_3 1_555 1_555
H8_3 C22_3 1_555 1_555
C23_3 C8_3 1_555 1_555
C24_3 H9_3 1_555 1_555
C25_3 N2_3 1_555 1_555
C26_3 N2_3 1_555 1_555
C27_3 C6_3 1_555 1_555
H10_3 C27_3 1_555 1_555
C28_3 H11_3 1_555 1_555
C29_3 C3_3 1_555 1_555
H12_3 C29_3 1_555 1_555
C31_3 C21_3 1_555 1_555
H13_3 C31_3 1_555 1_555
C32_3 C7_3 1_555 1_555
C33_3 C25_3 1_555 1_555
C34_3 C20_3 1_555 1_555
H14_3 C34_3 1_555 1_555
C35_3 C23_3 1_555 1_555
H15_3 C35_3 1_555 1_555
C36_3 C24_3 1_555 1_555
H16_3 C36_3 1_555 1_555
C37_3 C7_3 1_555 1_555
H17_3 C37_3 1_555 1_555
C38_3 C21_3 1_555 1_555
H18_3 C38_3 1_555 1_555
C39_3 C26_3 1_555 1_555
H19_3 C39_3 1_555 1_555
C40_3 C19_3 1_555 1_555
H20_3 C40_3 1_555 1_555
H21_3 C40_3 1_555 1_555
H22_3 C40_3 1_555 1_555
C41_3 C13_3 1_555 1_555
H23_3 C41_3 1_555 1_555
C42_3 C33_3 1_555 1_555
H24_3 C42_3 1_555 1_555
H25_3 C42_3 1_555 1_555
H26_3 C42_3 1_555 1_555
C43_3 C17_3 1_555 1_555
H27_3 C43_3 1_555 1_555
H28_3 C43_3 1_555 1_555
H29_3 C43_3 1_555 1_555
C44_3 C23_3 1_555 1_555
H30_3 C44_3 1_555 1_555
H31_3 C44_3 1_555 1_555
H32_3 C44_3 1_555 1_555
H33_3 O8_3 1_555 1_555
C6_3 C22_3 1_555 1_555
C11_3 C27_3 1_555 1_555
C14_3 C29_3 1_555 1_555
C16_3 C19_3 1_555 1_555
C16_3 C32_3 1_555 1_555
C17_3 C25_3 1_555 1_555
C24_3 C26_3 1_555 1_555
C28_3 C38_3 1_555 1_555
C31_3 C34_3 1_555 1_555
C32_3 C35_3 1_555 1_555
C33_3 C37_3 1_555 1_555
C39_3 C41_3 1_555 1_555
In4 O5_3 1_555 1_555
O5_3 C9_3 1_555 1_555
O6_3 In4 1_555 1_555
C9_3 O6_3 1_555 1_555
O10_2 In4 1_555 1_555
O12_2 In4 1_555 1_555
In4_2 O5_4 1_555 1_555
O9_2 C2_4 1_555 1_555
O11_2 C2_4 1_555 1_555
O5_4 C9_4 1_555 1_555
O6_4 In4_2 1_555 1_555
N1_4 C3_4 1_555 1_555
C1_4 C2_4 1_555 1_555
C3_4 C18_4 1_555 1_555
C5_4 C1_4 1_555 1_555
H1_4 C5_4 1_555 1_555
C6_4 N1_4 1_555 1_555
C7_4 C15_4 1_555 1_555
C8_4 N1_4 1_555 1_555
C9_4 O6_4 1_555 1_555
C10_4 C9_4 1_555 1_555
C11_4 C1_4 1_555 1_555
H2_4 C11_4 1_555 1_555
C12_4 C10_4 1_555 1_555
H3_4 C12_4 1_555 1_555
C14_4 C10_4 1_555 1_555
H4_4 C14_4 1_555 1_555
C15_4 H5_4 1_555 1_555
C16_4 H6_4 1_555 1_555
C18_4 C12_4 1_555 1_555
H7_4 C18_4 1_555 1_555
C19_4 C8_4 1_555 1_555
C22_4 C5_4 1_555 1_555
H8_4 C22_4 1_555 1_555
C23_4 C8_4 1_555 1_555
C27_4 C6_4 1_555 1_555
H10_4 C27_4 1_555 1_555
C29_4 C3_4 1_555 1_555
H12_4 C29_4 1_555 1_555
C32_4 C7_4 1_555 1_555
C35_4 C23_4 1_555 1_555
H15_4 C35_4 1_555 1_555
C37_4 C7_4 1_555 1_555
H17_4 C37_4 1_555 1_555
C40_4 C19_4 1_555 1_555
H20_4 C40_4 1_555 1_555
H21_4 C40_4 1_555 1_555
H22_4 C40_4 1_555 1_555
C44_4 C23_4 1_555 1_555
H30_4 C44_4 1_555 1_555
H31_4 C44_4 1_555 1_555
H32_4 C44_4 1_555 1_555
C6_4 C22_4 1_555 1_555
C11_4 C27_4 1_555 1_555
C14_4 C29_4 1_555 1_555
C16_4 C19_4 1_555 1_555
C16_4 C32_4 1_555 1_555
C32_4 C35_4 1_555 1_555
O10_2 C4_4 1_555 1_555
O12_2 C4_4 1_555 1_555
O13_2 C30_4 1_555 1_555
O8_4 C30_4 1_555 1_555
N2_4 C20_4 1_555 1_555
C4_4 C13_4 1_555 1_555
C13_4 C36_4 1_555 1_555
C20_4 C28_4 1_555 1_555
C21_4 C30_4 1_555 1_555
C24_4 H9_4 1_555 1_555
C25_4 N2_4 1_555 1_555
C26_4 N2_4 1_555 1_555
C28_4 H11_4 1_555 1_555
C31_4 C21_4 1_555 1_555
H13_4 C31_4 1_555 1_555
C33_4 C25_4 1_555 1_555
C34_4 C20_4 1_555 1_555
H14_4 C34_4 1_555 1_555
C36_4 C24_4 1_555 1_555
H16_4 C36_4 1_555 1_555
C38_4 C21_4 1_555 1_555
H18_4 C38_4 1_555 1_555
C39_4 C26_4 1_555 1_555
H19_4 C39_4 1_555 1_555
C41_4 C13_4 1_555 1_555
H23_4 C41_4 1_555 1_555
C42_4 C33_4 1_555 1_555
H24_4 C42_4 1_555 1_555
H25_4 C42_4 1_555 1_555
H26_4 C42_4 1_555 1_555
C43_4 C17_4 1_555 1_555
H28_4 C43_4 1_555 1_555
H29_4 C43_4 1_555 1_555
H33_4 O8_4 1_555 1_555
C17_4 C25_4 1_555 1_555
C24_4 C26_4 1_555 1_555
C28_4 C38_4 1_555 1_555
C31_4 C34_4 1_555 1_555
C39_4 C41_4 1_555 1_555
In1_2 O5_5 1_555 1_555
O5_5 C9_5 1_555 1_555
O6_5 In1_2 1_555 1_555
C9_5 O6_5 1_555 1_555
O9_3 In1_2 1_555 1_555
O10_3 In1_2 1_555 1_555
O11_3 In1_2 1_555 1_555
O12_3 In1_2 1_555 1_555
O13_3 In1_2 1_555 1_555
O2_3 C4_5 1_555 1_555
O4_3 C4_5 1_555 1_555
O7_3 C30_5 1_555 1_555
O8_5 C30_5 1_555 1_555
N1_5 C3_5 1_555 1_555
N2_5 C20_5 1_555 1_555
C3_5 C18_5 1_555 1_555
C4_5 C13_5 1_555 1_555
C5_5 C1_5 1_555 1_555
H1_5 C5_5 1_555 1_555
C6_5 N1_5 1_555 1_555
C7_5 C15_5 1_555 1_555
C8_5 N1_5 1_555 1_555
C11_5 C1_5 1_555 1_555
H2_5 C11_5 1_555 1_555
C12_5 C10_5 1_555 1_555
H3_5 C12_5 1_555 1_555
C13_5 C36_5 1_555 1_555
C14_5 C10_5 1_555 1_555
H4_5 C14_5 1_555 1_555
C15_5 H5_5 1_555 1_555
C16_5 H6_5 1_555 1_555
C17_5 C15_5 1_555 1_555
C18_5 C12_5 1_555 1_555
H7_5 C18_5 1_555 1_555
C19_5 C8_5 1_555 1_555
C20_5 C28_5 1_555 1_555
C21_5 C30_5 1_555 1_555
C22_5 C5_5 1_555 1_555
H8_5 C22_5 1_555 1_555
C23_5 C8_5 1_555 1_555
C24_5 H9_5 1_555 1_555
C25_5 N2_5 1_555 1_555
C26_5 N2_5 1_555 1_555
C27_5 C6_5 1_555 1_555
H10_5 C27_5 1_555 1_555
C28_5 H11_5 1_555 1_555
C29_5 C3_5 1_555 1_555
H12_5 C29_5 1_555 1_555
C31_5 C21_5 1_555 1_555
H13_5 C31_5 1_555 1_555
C32_5 C7_5 1_555 1_555
C33_5 C25_5 1_555 1_555
C34_5 C20_5 1_555 1_555
H14_5 C34_5 1_555 1_555
C35_5 C23_5 1_555 1_555
H15_5 C35_5 1_555 1_555
C36_5 C24_5 1_555 1_555
H16_5 C36_5 1_555 1_555
C37_5 C7_5 1_555 1_555
H17_5 C37_5 1_555 1_555
C38_5 C21_5 1_555 1_555
H18_5 C38_5 1_555 1_555
C39_5 C26_5 1_555 1_555
H19_5 C39_5 1_555 1_555
C40_5 C19_5 1_555 1_555
H20_5 C40_5 1_555 1_555
H21_5 C40_5 1_555 1_555
H22_5 C40_5 1_555 1_555
C41_5 C13_5 1_555 1_555
H23_5 C41_5 1_555 1_555
C42_5 C33_5 1_555 1_555
H24_5 C42_5 1_555 1_555
H25_5 C42_5 1_555 1_555
H26_5 C42_5 1_555 1_555
C43_5 C17_5 1_555 1_555
H27_5 C43_5 1_555 1_555
H28_5 C43_5 1_555 1_555
H29_5 C43_5 1_555 1_555
C44_5 C23_5 1_555 1_555
H30_5 C44_5 1_555 1_555
H31_5 C44_5 1_555 1_555
H32_5 C44_5 1_555 1_555
H33_5 O8_5 1_555 1_555
In4_3 O7_3 1_555 1_555
C6_5 C22_5 1_555 1_555
C11_5 C27_5 1_555 1_555
C14_5 C29_5 1_555 1_555
C16_5 C19_5 1_555 1_555
C16_5 C32_5 1_555 1_555
C17_5 C25_5 1_555 1_555
C24_5 C26_5 1_555 1_555
C28_5 C38_5 1_555 1_555
C31_5 C34_5 1_555 1_555
C32_5 C35_5 1_555 1_555
C33_5 C37_5 1_555 1_555
C39_5 C41_5 1_555 1_555
O1_3 C2_5 1_555 1_555
O3_3 C2_5 1_555 1_555
In4_3 O1_3 1_555 1_555
O3_3 In4_3 1_555 1_555
O10_3 C4_6 1_555 1_555
O12_3 C4_6 1_555 1_555
O7_4 C30_6 1_555 1_555
O8_6 C30_6 1_555 1_555
N2_6 C20_6 1_555 1_555
C4_6 C13_6 1_555 1_555
C13_6 C36_6 1_555 1_555
C20_6 C28_6 1_555 1_555
C21_6 C30_6 1_555 1_555
C24_6 H9_6 1_555 1_555
C25_6 N2_6 1_555 1_555
C26_6 N2_6 1_555 1_555
C28_6 H11_6 1_555 1_555
C31_6 C21_6 1_555 1_555
H13_6 C31_6 1_555 1_555
C33_6 C25_6 1_555 1_555
C34_6 C20_6 1_555 1_555
H14_6 C34_6 1_555 1_555
C36_6 C24_6 1_555 1_555
H16_6 C36_6 1_555 1_555
C38_6 C21_6 1_555 1_555
H18_6 C38_6 1_555 1_555
C39_6 C26_6 1_555 1_555
H19_6 C39_6 1_555 1_555
C41_6 C13_6 1_555 1_555
H23_6 C41_6 1_555 1_555
C42_6 C33_6 1_555 1_555
H24_6 C42_6 1_555 1_555
H25_6 C42_6 1_555 1_555
H26_6 C42_6 1_555 1_555
C43_6 C17_6 1_555 1_555
H28_6 C43_6 1_555 1_555
H29_6 C43_6 1_555 1_555
H33_6 O8_6 1_555 1_555
In4_4 O7_4 1_555 1_555
C17_6 C25_6 1_555 1_555
C24_6 C26_6 1_555 1_555
C28_6 C38_6 1_555 1_555
C31_6 C34_6 1_555 1_555
C39_6 C41_6 1_555 1_555
In2_2 O5_6 1_555 1_555
O1_4 C2_6 1_555 1_555
O3_4 C2_6 1_555 1_555
O5_6 C9_6 1_555 1_555
O6_6 In2_2 1_555 1_555
N1_6 C3_6 1_555 1_555
C1_6 C2_6 1_555 1_555
C3_6 C18_6 1_555 1_555
C5_6 C1_6 1_555 1_555
H1_6 C5_6 1_555 1_555
C6_6 N1_6 1_555 1_555
C7_6 C15_6 1_555 1_555
C8_6 N1_6 1_555 1_555
C9_6 O6_6 1_555 1_555
C10_6 C9_6 1_555 1_555
C11_6 C1_6 1_555 1_555
H2_6 C11_6 1_555 1_555
C12_6 C10_6 1_555 1_555
H3_6 C12_6 1_555 1_555
C14_6 C10_6 1_555 1_555
H4_6 C14_6 1_555 1_555
C15_6 H5_6 1_555 1_555
C16_6 H6_6 1_555 1_555
C18_6 C12_6 1_555 1_555
H7_6 C18_6 1_555 1_555
C19_6 C8_6 1_555 1_555
C22_6 C5_6 1_555 1_555
H8_6 C22_6 1_555 1_555
C23_6 C8_6 1_555 1_555
C27_6 C6_6 1_555 1_555
H10_6 C27_6 1_555 1_555
C29_6 C3_6 1_555 1_555
H12_6 C29_6 1_555 1_555
C32_6 C7_6 1_555 1_555
C35_6 C23_6 1_555 1_555
H15_6 C35_6 1_555 1_555
C37_6 C7_6 1_555 1_555
H17_6 C37_6 1_555 1_555
C40_6 C19_6 1_555 1_555
H20_6 C40_6 1_555 1_555
H21_6 C40_6 1_555 1_555
H22_6 C40_6 1_555 1_555
C44_6 C23_6 1_555 1_555
H30_6 C44_6 1_555 1_555
H31_6 C44_6 1_555 1_555
H32_6 C44_6 1_555 1_555
In4_4 O1_4 1_555 1_555
O9_4 In2_2 1_555 1_555
O11_4 In2_2 1_555 1_555
O13_4 In2_2 1_555 1_555
O3_4 In4_4 1_555 1_555
C6_6 C22_6 1_555 1_555
C11_6 C27_6 1_555 1_555
C14_6 C29_6 1_555 1_555
C16_6 C19_6 1_555 1_555
C16_6 C32_6 1_555 1_555
C32_6 C35_6 1_555 1_555
O9_3 C2_7 1_555 1_555
O11_3 C2_7 1_555 1_555
In4_3 O5_7 1_555 1_555
O2_4 C4_7 1_555 1_555
O4_4 C4_7 1_555 1_555
O5_7 C9_7 1_555 1_555
O6_7 In4_3 1_555 1_555
O13_3 C30_7 1_555 1_555
O8_7 C30_7 1_555 1_555
N1_7 C3_7 1_555 1_555
N2_7 C20_7 1_555 1_555
C3_7 C18_7 1_555 1_555
C4_7 C13_7 1_555 1_555
C5_7 C1_7 1_555 1_555
H1_7 C5_7 1_555 1_555
C6_7 N1_7 1_555 1_555
C7_7 C15_7 1_555 1_555
C8_7 N1_7 1_555 1_555
C9_7 O6_7 1_555 1_555
C10_7 C9_7 1_555 1_555
C11_7 C1_7 1_555 1_555
H2_7 C11_7 1_555 1_555
C12_7 C10_7 1_555 1_555
H3_7 C12_7 1_555 1_555
C13_7 C36_7 1_555 1_555
C14_7 C10_7 1_555 1_555
H4_7 C14_7 1_555 1_555
C15_7 H5_7 1_555 1_555
C16_7 H6_7 1_555 1_555
C17_7 C15_7 1_555 1_555
C18_7 C12_7 1_555 1_555
H7_7 C18_7 1_555 1_555
C19_7 C8_7 1_555 1_555
C20_7 C28_7 1_555 1_555
C21_7 C30_7 1_555 1_555
C22_7 C5_7 1_555 1_555
H8_7 C22_7 1_555 1_555
C23_7 C8_7 1_555 1_555
C24_7 H9_7 1_555 1_555
C25_7 N2_7 1_555 1_555
C26_7 N2_7 1_555 1_555
C27_7 C6_7 1_555 1_555
H10_7 C27_7 1_555 1_555
C28_7 H11_7 1_555 1_555
C29_7 C3_7 1_555 1_555
H12_7 C29_7 1_555 1_555
C31_7 C21_7 1_555 1_555
H13_7 C31_7 1_555 1_555
C32_7 C7_7 1_555 1_555
C33_7 C25_7 1_555 1_555
C34_7 C20_7 1_555 1_555
H14_7 C34_7 1_555 1_555
C35_7 C23_7 1_555 1_555
H15_7 C35_7 1_555 1_555
C36_7 C24_7 1_555 1_555
H16_7 C36_7 1_555 1_555
C37_7 C7_7 1_555 1_555
H17_7 C37_7 1_555 1_555
C38_7 C21_7 1_555 1_555
H18_7 C38_7 1_555 1_555
C39_7 C26_7 1_555 1_555
H19_7 C39_7 1_555 1_555
C40_7 C19_7 1_555 1_555
H20_7 C40_7 1_555 1_555
H21_7 C40_7 1_555 1_555
H22_7 C40_7 1_555 1_555
C41_7 C13_7 1_555 1_555
H23_7 C41_7 1_555 1_555
C42_7 C33_7 1_555 1_555
H24_7 C42_7 1_555 1_555
H25_7 C42_7 1_555 1_555
H26_7 C42_7 1_555 1_555
C43_7 C17_7 1_555 1_555
H27_7 C43_7 1_555 1_555
H28_7 C43_7 1_555 1_555
H29_7 C43_7 1_555 1_555
C44_7 C23_7 1_555 1_555
H30_7 C44_7 1_555 1_555
H31_7 C44_7 1_555 1_555
H32_7 C44_7 1_555 1_555
H33_7 O8_7 1_555 1_555
O10_4 In4_3 1_555 1_555
O12_4 In4_3 1_555 1_555
C6_7 C22_7 1_555 1_555
C11_7 C27_7 1_555 1_555
C14_7 C29_7 1_555 1_555
C16_7 C19_7 1_555 1_555
C16_7 C32_7 1_555 1_555
C17_7 C25_7 1_555 1_555
C24_7 C26_7 1_555 1_555
C28_7 C38_7 1_555 1_555
C31_7 C34_7 1_555 1_555
C32_7 C35_7 1_555 1_555
C33_7 C37_7 1_555 1_555
C39_7 C41_7 1_555 1_555
In4_4 O5_8 1_555 1_555
O5_8 C9_8 1_555 1_555
O6_8 In4_4 1_555 1_555
C9_8 O6_8 1_555 1_555
O9_4 C2_8 1_555 1_555
O11_4 C2_8 1_555 1_555
N1_8 C3_8 1_555 1_555
C1_8 C2_8 1_555 1_555
C3_8 C18_8 1_555 1_555
C5_8 C1_8 1_555 1_555
H1_8 C5_8 1_555 1_555
C6_8 N1_8 1_555 1_555
C7_8 C15_8 1_555 1_555
C8_8 N1_8 1_555 1_555
C11_8 C1_8 1_555 1_555
H2_8 C11_8 1_555 1_555
C12_8 C10_8 1_555 1_555
H3_8 C12_8 1_555 1_555
C14_8 C10_8 1_555 1_555
H4_8 C14_8 1_555 1_555
C15_8 H5_8 1_555 1_555
C16_8 H6_8 1_555 1_555
C18_8 C12_8 1_555 1_555
H7_8 C18_8 1_555 1_555
C19_8 C8_8 1_555 1_555
C22_8 C5_8 1_555 1_555
H8_8 C22_8 1_555 1_555
C23_8 C8_8 1_555 1_555
C27_8 C6_8 1_555 1_555
H10_8 C27_8 1_555 1_555
C29_8 C3_8 1_555 1_555
H12_8 C29_8 1_555 1_555
C32_8 C7_8 1_555 1_555
C35_8 C23_8 1_555 1_555
H15_8 C35_8 1_555 1_555
C37_8 C7_8 1_555 1_555
H17_8 C37_8 1_555 1_555
C40_8 C19_8 1_555 1_555
H20_8 C40_8 1_555 1_555
H21_8 C40_8 1_555 1_555
H22_8 C40_8 1_555 1_555
C44_8 C23_8 1_555 1_555
H30_8 C44_8 1_555 1_555
H31_8 C44_8 1_555 1_555
H32_8 C44_8 1_555 1_555
C6_8 C22_8 1_555 1_555
C11_8 C27_8 1_555 1_555
C14_8 C29_8 1_555 1_555
C16_8 C19_8 1_555 1_555
C16_8 C32_8 1_555 1_555
C32_8 C35_8 1_555 1_555
O10_4 C4_8 1_555 1_555
O12_4 C4_8 1_555 1_555
O13_4 C30_8 1_555 1_555
O8_8 C30_8 1_555 1_555
N2_8 C20_8 1_555 1_555
C4_8 C13_8 1_555 1_555
C13_8 C36_8 1_555 1_555
C20_8 C28_8 1_555 1_555
C21_8 C30_8 1_555 1_555
C24_8 H9_8 1_555 1_555
C25_8 N2_8 1_555 1_555
C26_8 N2_8 1_555 1_555
C28_8 H11_8 1_555 1_555
C31_8 C21_8 1_555 1_555
H13_8 C31_8 1_555 1_555
C33_8 C25_8 1_555 1_555
C34_8 C20_8 1_555 1_555
H14_8 C34_8 1_555 1_555
C36_8 C24_8 1_555 1_555
H16_8 C36_8 1_555 1_555
C38_8 C21_8 1_555 1_555
H18_8 C38_8 1_555 1_555
C39_8 C26_8 1_555 1_555
H19_8 C39_8 1_555 1_555
C41_8 C13_8 1_555 1_555
H23_8 C41_8 1_555 1_555
C42_8 C33_8 1_555 1_555
H24_8 C42_8 1_555 1_555
H25_8 C42_8 1_555 1_555
H26_8 C42_8 1_555 1_555
C43_8 C17_8 1_555 1_555
H28_8 C43_8 1_555 1_555
H29_8 C43_8 1_555 1_555
H33_8 O8_8 1_555 1_555
C17_8 C25_8 1_555 1_555
C24_8 C26_8 1_555 1_555
C28_8 C38_8 1_555 1_555
C31_8 C34_8 1_555 1_555
C39_8 C41_8 1_555 1_555

#END
