
###############################################################################
#
# This file contains modified crystal structure data generated from the
# MOF subset of the Cambridge Structural Database (CSD) v543 
# hosted by the Cambridge Crystallographic Data Centre (CCDC).
#
# This work is licensed under the Creative Commons
# Attribution-NonCommercial-ShareAlike 4.0 International License.
# To view a copy of this license, visit
# http://creativecommons.org/licenses/by-nc-sa/4.0/
# or send a letter to
# Creative Commons, PO Box 1866, Mountain View, CA 94042, USA.
#
# CIF created using the CSD Python API on 29 September 2022
# The structure has been converted into the P1 space group
# The structure has a 3D framework
# The original CSD entry GAXCER is in the hexagonal crystal system
# The framework has been calculated to contain at least 10.0% void space
# The void calculation uses a probe of radius 1.32A, grid spacing 0.4
# H atom positions have been added when not included in the experimental data
#
###############################################################################

data_GAXCER
_chemical_formula_moiety         '(C582 H450 N316 O130 Zn72)n'
_symmetry_cell_setting           triclinic
_symmetry_space_group_name_H-M   'P 1'
_symmetry_Int_Tables_number      1
_space_group_name_Hall           'P 1'
loop_
_symmetry_equiv_pos_site_id
_symmetry_equiv_pos_as_xyz
1 x,y,z
_cell_length_a                   46.2077(10)
_cell_length_b                   46.2077(10)
_cell_length_c                   18.6293(6)
_cell_angle_alpha                90
_cell_angle_beta                 90
_cell_angle_gamma                120
_cell_volume                     34447.4
loop_
_atom_site_label
_atom_site_type_symbol
_atom_site_fract_x
_atom_site_fract_y
_atom_site_fract_z
Zn1 Zn 0.59406(3) 0.51797(4) 0.51578(8)
Zn2 Zn 0.40885(4) 0.15203(4) 0.53103(9)
Zn3 Zn 0.25664(4) 0.07464(4) 0.53538(11)
Zn4 Zn 0.48596(4) 0.40965(3) 0.34068(8)
Zn5 Zn 0.40980(4) 0.26057(4) 0.35576(10)
Zn6 Zn 0.25770(4) 0.18311(4) 0.36004(11)
N1 N 0.4632(2) 0.3638(2) 0.3837(5)
C1 C 0.4468(3) 0.1154(4) 0.5243(6)
H1 H 0.445555 0.113145 0.574563
C2 C 0.2182(4) -0.000000 0.5359(9)
H2 H 0.220979 -0.000001 0.585839
N2 N 0.4336(2) 0.3074(2) 0.3903(6)
O1 O 0.6211(3) 0.5670(2) 0.7411(5)
O2 O 0.2798(3) 0.0450(3) 0.7522(7)
N3 N 0.6134(3) 0.5532(3) 0.6835(5)
N4 N 0.2438(2) 0.0770(2) 0.6395(7)
O3 O 0.3872(3) 0.0983(3) 0.7470(6)
N5 N 0.2335(2) 0.2061(2) 0.4008(6)
N6 N 0.5505(3) 0.5505(3) 0.5080(9)
N7 N 0.4225(3) 0.1664(3) 0.6363(7)
O4 O 0.2824(3) 0.0473(2) 0.6350(6)
N8 N 0.2387(3) 0.1397(3) 0.4118(10)
C3 C 0.5420(3) 0.4662(2) 0.4256(7)
H3 H 0.530275 0.477971 0.426931
N9 N 0.5891(2) 0.5015(3) 0.6185(7)
N10 N 0.5304(2) 0.4361(2) 0.3902(5)
N11 N 0.4609(3) 0.1026(3) 0.4871(5)
N12 N 0.3628(3) 0.2424(3) 0.3794(9)
N13 N 0.4279(3) 0.2354(3) 0.4054(9)
O5 O 0.6205(2) 0.5695(2) 0.6243(4)
N14 N 0.2732(3) 0.0524(2) 0.6953(7)
O6 O 0.3845(3) 0.0986(3) 0.6301(5)
N15 N 0.4337(3) 0.1319(3) 0.4915(5)
N16 N 0.4260(3) 0.1941(3) 0.4717(11)
N17 N 0.4582(2) 0.4297(2) 0.3691(4)
C4 C 0.2539(3) 0.0690(3) 0.6956(9)
N18 N 0.5695(2) 0.4763(3) 0.4555(6)
O7 O 0.3598(3) 0.1201(3) 0.4994(9)
N19 N 0.3931(3) 0.1124(3) 0.6915(6)
N20 N 0.2304(3) 0.0284(3) 0.5000(5)
N21 N 0.3324(3) 0.1179(4) 0.5239(10)
C5 C 0.4124(3) 0.1485(4) 0.6908(8)
N22 N 0.3049(3) 0.2133(4) 0.3825(9)
N23 N 0.2396(3) 0.0987(3) 0.4729(13)
O8 O 0.3053(3) 0.0918(3) 0.5010(9)
N24 N 0.2460(3) 0.0777(3) 0.7642(7)
O9 O 0.5773(2) 0.5494(2) 0.4895(5)
C6 C 0.4469(3) 0.33523(18) 0.3471(5)
H4 H 0.444704 0.334235 0.296873
C7 C 0.2567(4) 0.1268(4) 0.4450(9)
H5 H 0.280131 0.138521 0.446401
C8 C 0.5544(3) 0.4275(3) 0.4061(8)
C9 C 0.2066(3) 0.1161(4) 0.4239(13)
C10 C 0.5975(3) 0.5183(3) 0.6779(6)
C11 C 0.4605(3) 0.2444(4) 0.4206(12)
C12 C 0.4086(4) 0.2055(4) 0.4464(10)
H6 H 0.385439 0.195466 0.453471
N25 N 0.4208(3) 0.1643(3) 0.7595(7)
C13 C 0.4385(3) 0.1268(3) 0.4196(6)
H7 H 0.431328 0.134234 0.380074
N26 N 0.5882(3) 0.5003(3) 0.7410(7)
C14 C 0.5779(3) 0.4515(3) 0.4472(7)
C15 C 0.4604(5) 0.3550(5) 0.4563(8)
C16 C 0.2069(3) 0.0911(4) 0.4668(12)
C17 C 0.4551(3) 0.1097(3) 0.4155(6)
H8 H 0.461608 0.103490 0.373085
C18 C 0.4426(6) 0.3201(5) 0.4554(8)
C19 C 0.2203(3) 0.2203(3) 0.3588(9)
C20 C 0.4599(3) 0.2175(4) 0.4603(12)
C21 C 0.5820(6) 0.3962(6) 0.4061(14)
H9 H 0.582130 0.376122 0.398462
C22 C 0.4531(2) 0.4531(2) 0.3369(6)
H10 H 0.464825 0.464825 0.295593
C23 C 0.5756(5) 0.4673(4) 0.7165(10)
H11 H 0.570101 0.447965 0.743432
C24 C 0.4749(4) 0.3765(4) 0.5123(7)
H12 H 0.487571 0.399836 0.507965
C25 C 0.3338(2) 0.2164(3) 0.3572(11)
H13 H 0.333591 0.200694 0.324825
C26 C 0.2243(3) 0.0180(4) 0.4283(8)
H14 H 0.230776 0.031908 0.387701
C27 C 0.4912(4) 0.2706(5) 0.3975(17)
H15 H 0.491477 0.286847 0.366616
O10 O 0.5241(2) 0.5241(2) 0.5430(6)
C28 C 0.5187(3) 0.2732(6) 0.4168(17)
H16 H 0.538836 0.293514 0.412218
C29 C 0.4410(5) 0.1993(5) 0.7331(14)
H17 H 0.453704 0.218513 0.761056
C30 C 0.1775(4) 0.1149(5) 0.4000(13)
H18 H 0.178298 0.132378 0.372674
C31 C 0.5732(4) 0.4705(3) 0.6372(9)
H19 H 0.561758 0.452503 0.605418
O11 O 0.3329(2) 0.1430(3) 0.5612(9)
C32 C 0.5570(5) 0.3997(4) 0.3828(14)
H20 H 0.541098 0.383922 0.351142
C33 C 0.2289(5) 0.2102(5) 0.4720(8)
C34 C 0.3516(3) 0.2633(3) 0.4178(8)
H21 H 0.365356 0.284627 0.437232
C35 C 0.3160(3) 0.2448(3) 0.4195(11)
H22 H 0.302103 0.251724 0.440963
C36 C 0.1478(4) 0.0875(7) 0.4175(16)
H23 H 0.127348 0.085818 0.404860
C37 C 0.6075(5) 0.4514(5) 0.4656(12)
H24 H 0.625337 0.468591 0.491135
C38 C 0.4372(6) 0.1980(4) 0.6595(13)
H25 H 0.443998 0.216782 0.629818
C39 C 0.4888(4) 0.2167(6) 0.4765(19)
H26 H 0.489436 0.200040 0.504182
C40 C 0.1781(4) 0.0617(5) 0.4861(14)
H27 H 0.177303 0.044432 0.514283
C41 C 0.4475(5) 0.3247(4) 0.5827(8)
H28 H 0.440008 0.314476 0.627806
C42 C 0.4373(5) 0.3050(4) 0.5217(7)
H29 H 0.426967 0.281605 0.525369
C43 C 0.5181(5) 0.2453(6) 0.4448(15)
H30 H 0.538084 0.244654 0.443426
C44 C 0.6070(6) 0.4215(7) 0.4405(13)
H31 H 0.626108 0.419843 0.449376
C45 C 0.4311(4) 0.4139(4) 0.4190(9)
H32 H 0.425976 0.394975 0.446933
C46 C 0.1490(5) 0.0624(6) 0.4545(16)
H33 H 0.128364 0.042690 0.460648
C47 C 0.2261(5) 0.0916(5) 0.7360(13)
H34 H 0.213011 0.097870 0.763396
C48 C 0.2297(6) 0.0941(5) 0.6618(12)
H35 H 0.223095 0.106229 0.631998
C49 C 0.4679(5) 0.3584(4) 0.5793(8)
H36 H 0.477801 0.370255 0.621692
N28 N 0.2061(2) 0.2335(2) 0.4008(6)
C51 C 0.2102(5) 0.2289(5) 0.4720(8)
O12 O 0.5494(2) 0.5773(2) 0.4895(5)
N29 N 0.4297(2) 0.4582(2) 0.3691(4)
C52 C 0.4139(4) 0.4311(4) 0.4190(9)
H38 H 0.394975 0.425976 0.446933
Zn7 Zn 0.48203(4) 0.07609(5) 0.51578(8)
Zn8 Zn 0.84797(4) 0.25682(6) 0.53103(9)
Zn9 Zn 0.92536(4) 0.18200(6) 0.53538(11)
Zn10 Zn 0.59035(3) 0.07631(5) 0.34068(8)
Zn11 Zn 0.73943(4) 0.14923(6) 0.35576(10)
Zn12 Zn 0.81689(4) 0.07459(6) 0.36004(11)
N30 N 0.6362(2) 0.0994(3) 0.3837(5)
C53 C 0.8846(4) 0.3314(5) 0.5243(6)
H39 H 0.886855 0.332410 0.574563
N31 N 0.6926(2) 0.1262(3) 0.3903(6)
O13 O 0.4330(2) 0.0541(4) 0.7411(5)
O14 O 0.9550(3) 0.2348(4) 0.7522(7)
N32 N 0.4468(3) 0.0602(4) 0.6835(5)
N33 N 0.9230(2) 0.1668(3) 0.6395(7)
O15 O 0.9017(3) 0.2889(4) 0.7470(6)
N34 N 0.8336(3) 0.2561(4) 0.6363(7)
O16 O 0.9527(2) 0.2351(4) 0.6350(6)
N35 N 0.8603(3) 0.0990(4) 0.4118(10)
C54 C 0.5338(2) 0.0758(4) 0.4256(7)
H40 H 0.522029 0.052304 0.426931
N36 N 0.4985(3) 0.0876(4) 0.6185(7)
N37 N 0.5639(2) 0.0943(3) 0.3902(5)
N38 N 0.8974(3) 0.3583(4) 0.4871(5)
N39 N 0.7576(3) 0.1204(4) 0.3794(9)
N40 N 0.7646(3) 0.1925(4) 0.4054(9)
O17 O 0.4305(2) 0.0510(3) 0.6243(4)
N41 N 0.9476(2) 0.2208(4) 0.6953(7)
O18 O 0.9014(3) 0.2859(4) 0.6301(5)
N42 N 0.8681(3) 0.3018(4) 0.4915(5)
N43 N 0.8059(3) 0.2319(4) 0.4717(11)
C55 C 0.9310(3) 0.1849(4) 0.6956(9)
N44 N 0.5237(3) 0.0932(4) 0.4555(6)
O19 O 0.8799(3) 0.2397(4) 0.4994(9)
N45 N 0.8876(3) 0.2807(4) 0.6915(6)
N46 N 0.8821(4) 0.2145(5) 0.5239(10)
C56 C 0.8515(4) 0.2639(5) 0.6908(8)
N47 N 0.7867(4) 0.0916(5) 0.3825(9)
N48 N 0.9013(3) 0.1409(4) 0.4729(13)
O20 O 0.9082(3) 0.2135(4) 0.5010(9)
N49 N 0.9223(3) 0.1683(4) 0.7642(7)
C57 C 0.66477(18) 0.11167(35) 0.3471(5)
H41 H 0.665765 0.110469 0.296873
C58 C 0.8732(4) 0.1299(6) 0.4450(9)
H42 H 0.861479 0.141610 0.446401
C59 C 0.5725(3) 0.1269(4) 0.4061(8)
C60 C 0.8839(4) 0.0905(5) 0.4239(13)
C61 C 0.4817(3) 0.0792(4) 0.6779(6)
C62 C 0.7556(4) 0.2161(5) 0.4206(12)
C63 C 0.7945(4) 0.2031(6) 0.4464(10)
H43 H 0.804534 0.189973 0.453471
N50 N 0.8357(3) 0.2565(4) 0.7595(7)
C64 C 0.8732(3) 0.3117(4) 0.4196(6)
H44 H 0.865766 0.297094 0.380074
N51 N 0.4997(3) 0.0879(4) 0.7410(7)
C65 C 0.5485(3) 0.1264(4) 0.4472(7)
C66 C 0.6450(5) 0.1054(7) 0.4563(8)
C67 C 0.9089(4) 0.1158(5) 0.4668(12)
C68 C 0.8903(3) 0.3454(4) 0.4155(6)
H45 H 0.896510 0.358118 0.373085
C69 C 0.6799(5) 0.1225(8) 0.4554(8)
C70 C 0.7825(4) 0.2424(5) 0.4603(12)
C71 C 0.6038(6) 0.1858(8) 0.4061(14)
H46 H 0.623878 0.206008 0.398462
C72 C 0.5327(4) 0.1083(6) 0.7165(10)
H47 H 0.552035 0.122136 0.743432
C73 C 0.6235(4) 0.0984(6) 0.5123(7)
H48 H 0.600164 0.087735 0.507965
C74 C 0.7836(3) 0.1174(4) 0.3572(11)
H49 H 0.799306 0.132897 0.324825
C75 C 0.7294(5) 0.2206(6) 0.3975(17)
H50 H 0.713153 0.204630 0.366616
C76 C 0.7268(6) 0.2455(7) 0.4168(17)
H51 H 0.706486 0.245322 0.412218
C77 C 0.8007(5) 0.2417(7) 0.7331(14)
H52 H 0.781487 0.235191 0.761056
C78 C 0.8851(5) 0.0626(6) 0.4000(13)
H53 H 0.867622 0.045920 0.372674
C79 C 0.5295(3) 0.1027(5) 0.6372(9)
H54 H 0.547497 0.109255 0.605418
O21 O 0.8570(3) 0.1899(4) 0.5612(9)
C80 C 0.6003(4) 0.1573(6) 0.3828(14)
H55 H 0.616078 0.157176 0.351142
C81 C 0.7367(3) 0.0883(4) 0.4178(8)
H56 H 0.715373 0.080729 0.437232
C82 C 0.7552(3) 0.0712(4) 0.4195(11)
H57 H 0.748276 0.050379 0.440963
C83 C 0.9125(7) 0.0603(8) 0.4175(16)
H58 H 0.914182 0.041530 0.404860
C84 C 0.5486(5) 0.1561(7) 0.4656(12)
H59 H 0.531409 0.156746 0.491135
C85 C 0.8020(4) 0.2392(7) 0.6595(13)
H60 H 0.783218 0.227216 0.629818
C86 C 0.7833(6) 0.2721(7) 0.4765(19)
H61 H 0.799960 0.289396 0.504182
C87 C 0.9383(5) 0.1164(6) 0.4861(14)
H62 H 0.955568 0.132871 0.514283
C88 C 0.6753(4) 0.1228(6) 0.5827(8)
H63 H 0.685524 0.125532 0.627806
C89 C 0.6950(4) 0.1323(6) 0.5217(7)
H64 H 0.718395 0.145362 0.525369
C90 C 0.7547(6) 0.2728(8) 0.4448(15)
H65 H 0.755346 0.293430 0.443426
C91 C 0.5785(7) 0.1855(9) 0.4405(13)
H66 H 0.580157 0.206265 0.449376
C92 C 0.9376(6) 0.0866(8) 0.4545(16)
H67 H 0.957310 0.085674 0.460648
C93 C 0.9084(5) 0.1345(7) 0.7360(13)
H68 H 0.902130 0.115141 0.763396
C94 C 0.9059(5) 0.1356(8) 0.6618(12)
H69 H 0.893771 0.116866 0.631998
C95 C 0.6416(4) 0.1095(6) 0.5793(8)
H70 H 0.629745 0.107546 0.621692
Zn13 Zn 0.92391(5) 0.40594(3) 0.51578(8)
Zn14 Zn 0.51797(4) 0.59406(3) 0.51578(8)
Zn16 Zn 0.48596(4) 0.07631(5) 0.84068(8)
Zn17 Zn 0.59035(3) 0.51404(4) 0.84068(8)
Zn18 Zn 0.40965(3) 0.48596(4) 0.34068(8)
Zn19 Zn 0.85077(6) 0.26057(4) 0.85576(10)
Zn20 Zn 0.40980(4) 0.14923(6) 0.85576(10)
Zn21 Zn 0.92541(6) 0.18311(4) 0.86004(11)
Zn22 Zn 0.25770(4) 0.07459(6) 0.86004(11)
Zn23 Zn 0.18311(4) 0.25770(4) 0.36004(11)
N52 N 0.7939(2) 0.0274(3) 0.4008(6)
N53 N 0.6417(4) 0.5391(3) 0.4871(5)
N54 N 0.5703(2) 0.0285(3) 0.3691(4)
N55 N 0.9716(3) 0.2020(4) 0.5000(5)
N56 N 0.8317(4) 0.0777(3) 0.2642(7)
N57 N 0.2460(3) 0.1683(4) 0.2642(7)
O22 O 0.4506(2) 0.0279(3) 0.4895(5)
N58 N 0.7435(4) 0.1643(3) 0.2595(7)
N59 N 0.4208(3) 0.2565(4) 0.2595(7)
N60 N 0.5882(3) 0.0879(4) 0.2410(7)
N61 N 0.4997(3) 0.4118(3) 0.2410(7)
H71 H 0.201727 0.237048 0.518283
H72 H 0.220996 0.220996 0.300369
H73 H 0.237048 0.201727 0.518283
C2_2 C 0.2182(4) 1.000000 0.5359(9)
H2_2 H 0.220979 0.999999 0.585839
N27 N 0.2020(4) 0.9716(3) 0.5000(5)
C50 C 0.2063(5) 0.9820(4) 0.4283(8)
H37 H 0.198868 0.968092 0.387701
Zn15 Zn 0.18200(6) 0.92536(4) 0.53538(11)
Zn1_2 Zn 0.07609(5) 0.59406(3) 0.01578(8)
Zn2_2 Zn 0.25682(6) 0.40885(4) 0.03103(9)
Zn3_2 Zn 0.18200(6) 0.25664(4) 0.03538(11)
C1_2 C 0.3314(5) 0.4468(3) 0.0243(6)
H1_2 H 0.332410 0.445555 0.074563
C2_3 C 0.21820(40) 0.2182(4) 0.0359(9)
H2_3 H 0.220980 0.220979 0.085839
O1_2 O 0.0541(4) 0.6211(3) 0.2411(5)
O2_2 O 0.2348(4) 0.2798(3) 0.2522(7)
N3_2 N 0.0602(4) 0.6134(3) 0.1835(5)
N4_2 N 0.1668(3) 0.2438(2) 0.1395(7)
O3_2 O 0.2889(4) 0.3872(3) 0.2470(6)
N6_2 N -0.0000(4) 0.5505(3) 0.0080(9)
N7_2 N 0.2561(4) 0.4225(3) 0.1363(7)
O4_2 O 0.2351(4) 0.2824(3) 0.1350(6)
N9_2 N 0.0876(4) 0.5891(2) 0.1185(7)
O5_2 O 0.0510(3) 0.6205(2) 0.1243(4)
N14_2 N 0.2208(4) 0.2732(3) 0.1953(7)
O6_2 O 0.2859(4) 0.3845(3) 0.1301(5)
C4_2 C 0.1849(4) 0.2539(3) 0.1956(9)
N19_2 N 0.2807(4) 0.3931(3) 0.1915(6)
N20_2 N 0.2020(4) 0.2304(3) -0.0000(5)
N21_2 N 0.2145(5) 0.3324(3) 0.0239(10)
C5_2 C 0.2639(5) 0.4124(3) 0.1908(8)
O8_2 O 0.2135(4) 0.3053(3) 0.0010(9)
N24_2 N 0.1683(4) 0.2460(3) 0.2642(7)
C10_2 C 0.0792(4) 0.5975(3) 0.1779(6)
N25_2 N 0.2565(4) 0.4208(3) 0.2595(7)
N26_2 N 0.0879(4) 0.5882(3) 0.2410(7)
C23_2 C 0.1083(6) 0.5756(5) 0.2165(10)
H11_2 H 0.122136 0.570101 0.243432
C24_2 C 0.0984(6) 0.4749(4) 0.0123(7)
H12_2 H 0.087735 0.487571 0.007965
O10_2 O -0.0000(3) 0.5241(2) 0.0430(6)
C29_2 C 0.2417(7) 0.4410(5) 0.2331(14)
H17_2 H 0.235191 0.453704 0.261056
C31_2 C 0.1027(5) 0.5732(4) 0.1372(9)
H19_2 H 0.109255 0.561758 0.105418
O11_2 O 0.1899(4) 0.3329(2) 0.0612(9)
C38_2 C 0.2392(7) 0.4372(6) 0.1595(13)
H25_2 H 0.227216 0.443998 0.129818
H26_2 H 0.289396 0.489436 0.004182
H27_2 H 0.132871 0.177303 0.014283
C41_2 C 0.1228(6) 0.4475(5) 0.0827(8)
H28_2 H 0.125532 0.440008 0.127806
C42_2 C 0.1323(6) 0.4373(5) 0.0217(7)
H29_2 H 0.145362 0.426967 0.025369
C47_2 C 0.1345(7) 0.2261(5) 0.2360(13)
H34_2 H 0.115141 0.213011 0.263396
C48_2 C 0.1356(8) 0.2297(6) 0.1618(12)
H35_2 H 0.116866 0.223095 0.131998
C49_2 C 0.1095(6) 0.4679(5) 0.0793(8)
H36_2 H 0.107546 0.477801 0.121692
N27_2 N 0.2304(5) 0.2020(4) -0.0000(5)
Zn7_2 Zn 0.40594(6) 0.48203(4) 0.01578(8)
Zn8_2 Zn 0.59115(7) 0.84797(4) 0.03103(9)
Zn9_2 Zn 0.74336(7) 0.92536(4) 0.03538(11)
C53_2 C 0.5532(6) 0.8846(4) 0.0243(6)
H39_2 H 0.554445 0.886855 0.074563
O13_2 O 0.3789(4) 0.4330(2) 0.2411(5)
O14_2 O 0.7202(5) 0.9550(3) 0.2522(7)
N32_2 N 0.3866(5) 0.4468(3) 0.1835(5)
N33_2 N 0.7562(4) 0.9230(2) 0.1395(7)
O15_2 O 0.6128(5) 0.9017(3) 0.2470(6)
N34_2 N 0.5775(5) 0.8336(3) 0.1363(7)
O16_2 O 0.7176(4) 0.9527(2) 0.1350(6)
N36_2 N 0.4109(5) 0.4985(3) 0.1185(7)
O17_2 O 0.3795(4) 0.4305(2) 0.1243(4)
N41_2 N 0.7268(4) 0.9476(2) 0.1953(7)
O18_2 O 0.6155(5) 0.9014(3) 0.1301(5)
C55_2 C 0.7461(5) 0.9310(3) 0.1956(9)
N45_2 N 0.6069(5) 0.8876(3) 0.1915(6)
N46_2 N 0.6676(6) 0.8821(4) 0.0239(10)
C56_2 C 0.5876(6) 0.8515(4) 0.1908(8)
O20_2 O 0.6947(5) 0.9082(3) 0.0010(9)
N49_2 N 0.7540(5) 0.9223(3) 0.2642(7)
C61_2 C 0.4025(5) 0.4817(3) 0.1779(6)
N50_2 N 0.5792(5) 0.8357(3) 0.2595(7)
N51_2 N 0.4118(5) 0.4997(3) 0.2410(7)
C72_2 C 0.4244(7) 0.5327(4) 0.2165(10)
H47_2 H 0.429899 0.552035 0.243432
C73_2 C 0.5251(7) 0.6235(4) 0.0123(7)
H48_2 H 0.512429 0.600164 0.007965
C77_2 C 0.5590(9) 0.8007(5) 0.2331(14)
H52_2 H 0.546296 0.781487 0.261056
C79_2 C 0.4268(6) 0.5295(3) 0.1372(9)
H54_2 H 0.438242 0.547497 0.105418
O21_2 O 0.6671(5) 0.8570(3) 0.0612(9)
C85_2 C 0.5628(8) 0.8020(4) 0.1595(13)
H60_2 H 0.556002 0.783218 0.129818
H61_2 H 0.510564 0.799960 0.004182
H62_2 H 0.822697 0.955568 0.014283
C88_2 C 0.5525(7) 0.6753(4) 0.0827(8)
H63_2 H 0.559992 0.685524 0.127806
C89_2 C 0.5627(7) 0.6950(4) 0.0217(7)
H64_2 H 0.573033 0.718395 0.025369
C93_2 C 0.7739(9) 0.9084(5) 0.2360(13)
H68_2 H 0.786989 0.902130 0.263396
C94_2 C 0.7703(9) 0.9059(5) 0.1618(12)
H69_2 H 0.776905 0.893771 0.131998
C95_2 C 0.5321(7) 0.6416(4) 0.0793(8)
H70_2 H 0.522199 0.629745 0.121692
Zn13_2 Zn 0.51797(6) 0.92391(5) 0.01578(8)
Zn15_2 Zn 0.25664(7) 0.18200(6) 0.03538(11)
Zn17_2 Zn 0.07631(5) 0.59035(3) 0.34068(8)
Zn19_2 Zn 0.59020(7) 0.85077(6) 0.35576(10)
Zn20_2 Zn 0.26057(7) 0.40980(4) 0.35576(10)
Zn21_2 Zn 0.74230(7) 0.92541(6) 0.36004(11)
N55_2 N 0.7696(5) 0.9716(3) -0.0000(5)
H73_2 H 0.0353217 0.237048 0.0182834
Zn4_2 Zn 0.07631(5) 0.48596(4) 0.84068(8)
Zn5_2 Zn 0.14923(6) 0.40980(4) 0.85576(10)
Zn6_2 Zn 0.07459(6) 0.25770(4) 0.86004(11)
N1_2 N 0.0994(3) 0.4632(2) 0.8837(5)
N2_2 N 0.1262(3) 0.4336(2) 0.8903(6)
N5_2 N 0.0274(3) 0.2335(2) 0.9008(6)
N8_2 N 0.0990(4) 0.2387(3) 0.9118(10)
C3_2 C 0.0758(4) 0.5420(3) 0.9256(7)
H3_2 H 0.052304 0.530275 0.926931
N10_2 N 0.0943(3) 0.5304(2) 0.8902(5)
N11_2 N 0.3583(4) 0.4609(3) 0.9871(5)
N12_2 N 0.1204(4) 0.3628(3) 0.8794(9)
N13_2 N 0.1925(4) 0.4279(3) 0.9054(9)
N15_2 N 0.3018(4) 0.4337(3) 0.9915(5)
N16_2 N 0.2319(4) 0.4260(3) 0.9717(11)
N17_2 N 0.0285(3) 0.4582(2) 0.8691(4)
N18_2 N 0.0932(4) 0.5695(2) 0.9555(6)
O7_2 O 0.2397(4) 0.3598(3) 0.9994(9)
N20_3 N 0.2020(4) 0.2304(3) 1.0000(5)
N22_2 N 0.0916(5) 0.3049(3) 0.8825(9)
N23_2 N 0.1409(4) 0.2396(3) 0.9729(13)
O9_2 O 0.0279(3) 0.5773(2) 0.9895(5)
C6_2 C 0.11167(35) 0.4469(3) 0.8471(5)
H4_2 H 0.110469 0.444704 0.796873
C7_2 C 0.1299(6) 0.2567(4) 0.9450(9)
H5_2 H 0.141610 0.280131 0.946401
C8_2 C 0.1269(4) 0.5544(3) 0.9061(8)
C9_2 C 0.0905(5) 0.2066(3) 0.9239(13)
C11_2 C 0.2161(5) 0.4605(3) 0.9206(12)
C12_2 C 0.2031(6) 0.4086(4) 0.9464(10)
H6_2 H 0.189973 0.385439 0.953471
C13_2 C 0.3117(4) 0.4385(3) 0.9196(6)
H7_2 H 0.297094 0.431328 0.880074
C14_2 C 0.1264(4) 0.5779(3) 0.9472(7)
C15_2 C 0.1054(7) 0.4604(5) 0.9563(8)
C16_2 C 0.1158(5) 0.2069(3) 0.9668(12)
C17_2 C 0.3454(4) 0.4551(3) 0.9155(6)
H8_2 H 0.358118 0.461608 0.873085
C18_2 C 0.1225(8) 0.4426(6) 0.9554(8)
C19_2 C 0.0000(4) 0.2203(3) 0.8588(9)
C20_2 C 0.2424(5) 0.4599(3) 0.9603(12)
C21_2 C 0.1858(8) 0.5820(6) 0.9061(14)
H9_2 H 0.206008 0.582130 0.898462
C22_2 C -0.0000(3) 0.4531(2) 0.8369(6)
H10_2 H 0.000000 0.464825 0.795593
C25_2 C 0.1174(4) 0.3338(2) 0.8572(11)
H13_2 H 0.132897 0.333591 0.824825
C26_2 C 0.2063(5) 0.2243(3) 0.9283(8)
H14_2 H 0.198868 0.230776 0.887701
C27_2 C 0.2206(6) 0.4912(4) 0.8975(17)
H15_2 H 0.204630 0.491477 0.866616
C28_2 C 0.2455(7) 0.5187(3) 0.9168(17)
H16_2 H 0.245322 0.538836 0.912218
C30_2 C 0.0626(6) 0.1775(4) 0.9000(13)
H18_2 H 0.045920 0.178298 0.872674
C32_2 C 0.1573(6) 0.5570(5) 0.8828(14)
H20_2 H 0.157176 0.541098 0.851142
C33_2 C 0.0187(7) 0.2289(5) 0.9720(8)
C34_2 C 0.0883(4) 0.3516(3) 0.9178(8)
H21_2 H 0.080729 0.365356 0.937232
C35_2 C 0.0712(4) 0.3160(3) 0.9195(11)
H22_2 H 0.050379 0.302103 0.940963
C36_2 C 0.0603(8) 0.1478(4) 0.9175(16)
H23_2 H 0.041530 0.127348 0.904860
C37_2 C 0.1561(7) 0.6075(5) 0.9656(12)
H24_2 H 0.156746 0.625337 0.991135
C39_2 C 0.2721(7) 0.4888(4) 0.9765(19)
C40_2 C 0.1164(6) 0.1781(4) 0.9861(14)
C43_2 C 0.2728(8) 0.5181(5) 0.9448(15)
H30_2 H 0.293430 0.538084 0.943426
C44_2 C 0.1855(9) 0.6070(6) 0.9405(13)
H31_2 H 0.206265 0.626108 0.949376
C45_2 C 0.0172(6) 0.4311(4) 0.9190(9)
H32_2 H 0.031001 0.425976 0.946933
C46_2 C 0.0866(8) 0.1490(5) 0.9545(16)
H33_2 H 0.085674 0.128364 0.960648
N27_3 N 0.2304(5) 0.2020(4) 1.0000(5)
C50_2 C 0.2243(6) 0.2063(5) 0.9283(8)
H37_2 H 0.230776 0.198868 0.887701
Zn10_2 Zn 0.51404(6) 0.59035(3) 0.84068(8)
Zn11_2 Zn 0.59020(7) 0.73943(4) 0.85576(10)
Zn12_2 Zn 0.74230(7) 0.81689(4) 0.86004(11)
N30_2 N 0.5368(4) 0.6362(2) 0.8837(5)
N31_2 N 0.5664(4) 0.6926(2) 0.8903(6)
N35_2 N 0.7613(5) 0.8603(3) 0.9118(10)
C54_2 C 0.4580(4) 0.5338(2) 0.9256(7)
H40_2 H 0.469725 0.522029 0.926931
N37_2 N 0.4696(4) 0.5639(2) 0.8902(5)
N38_2 N 0.5391(5) 0.8974(3) 0.9871(5)
N39_2 N 0.6372(5) 0.7576(3) 0.8794(9)
N40_2 N 0.5721(5) 0.7646(3) 0.9054(9)
N42_2 N 0.5663(5) 0.8681(3) 0.9915(5)
N43_2 N 0.5740(5) 0.8059(3) 0.9717(11)
N44_2 N 0.4305(5) 0.5237(3) 0.9555(6)
O19_2 O 0.6402(5) 0.8799(3) 0.9994(9)
N47_2 N 0.6951(6) 0.7867(4) 0.8825(9)
N48_2 N 0.7604(5) 0.9013(3) 0.9729(13)
C57_2 C 0.55310(39) 0.66477(18) 0.8471(5)
H41_2 H 0.555296 0.665765 0.796873
C58_2 C 0.7433(7) 0.8732(4) 0.9450(9)
H42_2 H 0.719869 0.861479 0.946401
C59_2 C 0.4456(5) 0.5725(3) 0.9061(8)
C60_2 C 0.7934(6) 0.8839(4) 0.9239(13)
C62_2 C 0.5395(6) 0.7556(4) 0.9206(12)
C63_2 C 0.5914(7) 0.7945(4) 0.9464(10)
H43_2 H 0.614561 0.804534 0.953471
C64_2 C 0.5615(5) 0.8732(3) 0.9196(6)
H44_2 H 0.568672 0.865766 0.880074
C65_2 C 0.4221(5) 0.5485(3) 0.9472(7)
C66_2 C 0.5396(9) 0.6450(5) 0.9563(8)
C67_2 C 0.7931(6) 0.9089(4) 0.9668(12)
C68_2 C 0.5449(5) 0.8903(3) 0.9155(6)
H45_2 H 0.538392 0.896510 0.873085
C69_2 C 0.5574(9) 0.6799(5) 0.9554(8)
C70_2 C 0.5401(6) 0.7825(4) 0.9603(12)
C71_2 C 0.4180(10) 0.6038(6) 0.9061(14)
H46_2 H 0.417870 0.623878 0.898462
C74_2 C 0.6662(5) 0.7836(3) 0.8572(11)
H49_2 H 0.666409 0.799306 0.824825
C75_2 C 0.5088(8) 0.7294(5) 0.8975(17)
H50_2 H 0.508523 0.713153 0.866616
C76_2 C 0.4813(9) 0.7268(6) 0.9168(17)
H51_2 H 0.461164 0.706486 0.912218
C78_2 C 0.8225(8) 0.8851(5) 0.9000(13)
H53_2 H 0.821702 0.867622 0.872674
C80_2 C 0.4430(7) 0.6003(4) 0.8828(14)
H55_2 H 0.458902 0.616078 0.851142
C81_2 C 0.6484(5) 0.7367(3) 0.9178(8)
H56_2 H 0.634644 0.715373 0.937232
C82_2 C 0.6840(5) 0.7552(3) 0.9195(11)
H57_2 H 0.697897 0.748276 0.940963
C83_2 C 0.8522(11) 0.9125(7) 0.9175(16)
H58_2 H 0.872652 0.914182 0.904860
C84_2 C 0.3925(9) 0.5486(5) 0.9656(12)
H59_2 H 0.374663 0.531409 0.991135
C86_2 C 0.5112(9) 0.7833(6) 0.9765(19)
C87_2 C 0.8219(8) 0.9383(5) 0.9861(14)
C90_2 C 0.4819(10) 0.7547(6) 0.9448(15)
H65_2 H 0.461916 0.755346 0.943426
C91_2 C 0.3930(11) 0.5785(7) 0.9405(13)
H66_2 H 0.373892 0.580157 0.949376
C92_2 C 0.8510(10) 0.9376(6) 0.9545(16)
H67_2 H 0.871636 0.957310 0.960648
N52_2 N 0.7665(4) 0.7939(2) 0.9008(6)
N53_2 N 0.1026(5) 0.6417(4) 0.9871(5)
N54_2 N 0.5418(4) 0.5703(2) 0.8691(4)
N55_3 N 0.7696(5) 0.9716(3) 1.0000(5)
N56_2 N 0.7540(5) 0.8317(4) 0.7642(7)
N57_2 N 0.0777(5) 0.2460(3) 0.7642(7)
O22_2 O 0.4227(4) 0.4506(2) 0.9895(5)
N58_2 N 0.5792(5) 0.7435(4) 0.7595(7)
N59_2 N 0.1643(5) 0.4208(3) 0.7595(7)
N60_2 N 0.5003(5) 0.5882(3) 0.7410(7)
N61_2 N 0.0879(4) 0.4997(3) 0.7410(7)
H72_2 H 1.59942e-17 0.220996 0.800369
N6_3 N 1.0000(4) 0.5505(3) 0.0080(9)
O10_3 O 1.0000(3) 0.5241(2) 0.0430(6)
Zn14_2 Zn 0.92391(5) 0.51797(4) 0.01578(8)
H71_2 H 0.964678 0.201727 0.0182834
C19_3 C 1.0000(4) 0.2203(3) 0.8588(9)
C22_3 C 1.0000(3) 0.4531(2) 0.8369(6)
H10_3 H 1.000000 0.464825 0.795593
N28_2 N 0.9726(3) 0.2061(2) 0.9008(6)
C51_2 C 0.9813(7) 0.2102(5) 0.9720(8)
O12_2 O 0.9721(3) 0.5494(2) 0.9895(5)
N29_2 N 0.9715(3) 0.4297(2) 0.8691(4)
C52_2 C 0.9828(6) 0.4139(4) 0.9190(9)
H38_2 H 0.968999 0.394975 0.946933
Zn18_2 Zn 0.92369(5) 0.40965(3) 0.84068(8)
H72_3 H 1 0.220996 0.800369
C2_4 C 0.000000 0.21820(40) 0.5359(9)
H2_4 H 0.000001 0.220980 0.585839
N27_4 N 0.0284(3) 0.2304(5) 0.5000(5)
C50_3 C 0.0180(4) 0.2243(6) 0.4283(8)
H37_3 H 0.031908 0.230776 0.387701
Zn15_3 Zn 0.07464(4) 0.25664(7) 0.53538(11)
C2_5 C 1.000000 0.21820(40) 0.5359(9)
H2_5 H 1.000001 0.220980 0.585839
N6_4 N 0.4495(3) 0.0000(4) 0.5080(9)
C19_4 C 0.7797(3) 0.0000(4) 0.3588(9)
C22_4 C 0.5469(2) -0.0000(3) 0.3369(6)
H10_4 H 0.535175 0.000000 0.295593
C26_3 C 0.9820(4) 0.2063(5) 0.4283(8)
H14_3 H 0.968092 0.198868 0.387701
O10_4 O 0.4759(2) 0.0000(3) 0.5430(6)
C33_3 C 0.7898(5) 0.0187(7) 0.4720(8)
C45_3 C 0.5861(4) 0.0172(6) 0.4190(9)
H32_3 H 0.605025 0.031001 0.446933
Zn8_3 Zn 0.74318(6) 0.59115(7) 0.53103(9)
Zn9_3 Zn 0.81800(6) 0.74336(7) 0.53538(11)
Zn10_3 Zn 0.92369(5) 0.51404(6) 0.34068(8)
Zn11_3 Zn 0.85077(6) 0.59020(7) 0.35576(10)
Zn12_3 Zn 0.92541(6) 0.74230(7) 0.36004(11)
N30_3 N 0.9006(3) 0.5368(4) 0.3837(5)
C53_3 C 0.6686(5) 0.5532(6) 0.5243(6)
H39_3 H 0.667590 0.554445 0.574563
N31_3 N 0.8738(3) 0.5664(4) 0.3903(6)
O13_3 O 0.9459(4) 0.3789(4) 0.7411(5)
O14_3 O 0.7652(4) 0.7202(5) 0.7522(7)
N32_3 N 0.9398(4) 0.3866(5) 0.6835(5)
N33_3 N 0.8332(3) 0.7562(4) 0.6395(7)
O15_3 O 0.7111(4) 0.6128(5) 0.7470(6)
N34_3 N 0.7439(4) 0.5775(5) 0.6363(7)
O16_3 O 0.7649(4) 0.7176(4) 0.6350(6)
N35_3 N 0.9010(4) 0.7613(5) 0.4118(10)
C54_3 C 0.9242(4) 0.4580(4) 0.4256(7)
H40_3 H 0.947696 0.469725 0.426931
N36_3 N 0.9124(4) 0.4109(5) 0.6185(7)
N37_3 N 0.9057(3) 0.4696(4) 0.3902(5)
N39_3 N 0.8796(4) 0.6372(5) 0.3794(9)
N40_3 N 0.8075(4) 0.5721(5) 0.4054(9)
O17_3 O 0.9490(3) 0.3795(4) 0.6243(4)
N41_3 N 0.7792(4) 0.7268(4) 0.6953(7)
O18_3 O 0.7141(4) 0.6155(5) 0.6301(5)
N42_3 N 0.6982(4) 0.5663(5) 0.4915(5)
N43_3 N 0.7681(4) 0.5740(5) 0.4717(11)
C55_3 C 0.8151(4) 0.7461(5) 0.6956(9)
N44_3 N 0.9068(4) 0.4305(5) 0.4555(6)
O19_3 O 0.7603(4) 0.6402(5) 0.4994(9)
N45_3 N 0.7193(4) 0.6069(5) 0.6915(6)
N46_3 N 0.7855(5) 0.6676(6) 0.5239(10)
C56_3 C 0.7361(5) 0.5876(6) 0.6908(8)
N47_3 N 0.9084(5) 0.6951(6) 0.3825(9)
N48_3 N 0.8591(4) 0.7604(5) 0.4729(13)
O20_3 O 0.7865(4) 0.6947(5) 0.5010(9)
N49_3 N 0.8317(4) 0.7540(5) 0.7642(7)
C57_3 C 0.88833(35) 0.55310(39) 0.3471(5)
H41_3 H 0.889531 0.555296 0.296873
C58_3 C 0.8701(6) 0.7433(7) 0.4450(9)
H42_3 H 0.858390 0.719869 0.446401
C59_3 C 0.8731(4) 0.4456(5) 0.4061(8)
C60_3 C 0.9095(5) 0.7934(6) 0.4239(13)
C61_3 C 0.9208(4) 0.4025(5) 0.6779(6)
C62_3 C 0.7839(5) 0.5395(6) 0.4206(12)
C63_3 C 0.7969(6) 0.5914(7) 0.4464(10)
H43_3 H 0.810027 0.614561 0.453471
N50_3 N 0.7435(4) 0.5792(5) 0.7595(7)
C64_3 C 0.6883(4) 0.5615(5) 0.4196(6)
H44_3 H 0.702906 0.568672 0.380074
N51_3 N 0.9121(4) 0.4118(5) 0.7410(7)
C65_3 C 0.8736(4) 0.4221(5) 0.4472(7)
C66_3 C 0.8946(7) 0.5396(9) 0.4563(8)
C67_3 C 0.8842(5) 0.7931(6) 0.4668(12)
C68_3 C 0.6546(4) 0.5449(5) 0.4155(6)
H45_3 H 0.641882 0.538392 0.373085
C69_3 C 0.8775(8) 0.5574(9) 0.4554(8)
C70_3 C 0.7576(5) 0.5401(6) 0.4603(12)
C71_3 C 0.8142(8) 0.4180(10) 0.4061(14)
H46_3 H 0.793992 0.417870 0.398462
C72_3 C 0.8917(6) 0.4244(7) 0.7165(10)
H47_3 H 0.877864 0.429899 0.743432
C73_3 C 0.9016(6) 0.5251(7) 0.5123(7)
H48_3 H 0.912265 0.512429 0.507965
C74_3 C 0.8826(4) 0.6662(5) 0.3572(11)
H49_3 H 0.867103 0.666409 0.324825
C75_3 C 0.7794(6) 0.5088(8) 0.3975(17)
H50_3 H 0.795370 0.508523 0.366616
C76_3 C 0.7545(7) 0.4813(9) 0.4168(17)
H51_3 H 0.754678 0.461164 0.412218
C77_3 C 0.7583(7) 0.5590(9) 0.7331(14)
H52_3 H 0.764809 0.546296 0.761056
C78_3 C 0.9374(6) 0.8225(8) 0.4000(13)
H53_3 H 0.954080 0.821702 0.372674
C79_3 C 0.8973(5) 0.4268(6) 0.6372(9)
H54_3 H 0.890745 0.438242 0.605418
O21_3 O 0.8101(4) 0.6671(5) 0.5612(9)
C80_3 C 0.8427(6) 0.4430(7) 0.3828(14)
H55_3 H 0.842824 0.458902 0.351142
C81_3 C 0.9117(4) 0.6484(5) 0.4178(8)
H56_3 H 0.919271 0.634644 0.437232
C82_3 C 0.9288(4) 0.6840(5) 0.4195(11)
H57_3 H 0.949621 0.697897 0.440963
C83_3 C 0.9397(8) 0.8522(11) 0.4175(16)
H58_3 H 0.958470 0.872652 0.404860
C84_3 C 0.8439(7) 0.3925(9) 0.4656(12)
H59_3 H 0.843254 0.374663 0.491135
C85_3 C 0.7608(7) 0.5628(8) 0.6595(13)
H60_3 H 0.772784 0.556002 0.629818
C86_3 C 0.7279(7) 0.5112(9) 0.4765(19)
H61_3 H 0.710604 0.510564 0.504182
C87_3 C 0.8836(6) 0.8219(8) 0.4861(14)
H62_3 H 0.867129 0.822697 0.514283
C88_3 C 0.8772(6) 0.5525(7) 0.5827(8)
H63_3 H 0.874468 0.559992 0.627806
C89_3 C 0.8677(6) 0.5627(7) 0.5217(7)
H64_3 H 0.854638 0.573033 0.525369
C90_3 C 0.7272(8) 0.4819(10) 0.4448(15)
H65_3 H 0.706570 0.461916 0.443426
C91_3 C 0.8145(9) 0.3930(11) 0.4405(13)
H66_3 H 0.793735 0.373892 0.449376
C92_3 C 0.9134(8) 0.8510(10) 0.4545(16)
H67_3 H 0.914326 0.871636 0.460648
C93_3 C 0.8655(7) 0.7739(9) 0.7360(13)
H68_3 H 0.884859 0.786989 0.763396
C94_3 C 0.8644(8) 0.7703(9) 0.6618(12)
H69_3 H 0.883134 0.776905 0.631998
C95_3 C 0.8905(6) 0.5321(7) 0.5793(8)
H70_3 H 0.892454 0.522199 0.621692
Zn19_3 Zn 0.73943(4) 0.59020(7) 0.85576(10)
Zn21_3 Zn 0.81689(4) 0.74230(7) 0.86004(11)
N52_3 N 0.9726(3) 0.7665(4) 0.4008(6)
N54_3 N 0.9715(3) 0.5418(4) 0.3691(4)
N55_4 N 0.7980(4) 0.7696(5) 0.5000(5)
N56_3 N 0.9223(3) 0.7540(5) 0.2642(7)
O22_3 O 0.9721(3) 0.4227(4) 0.4895(5)
N58_3 N 0.8357(3) 0.5792(5) 0.2595(7)
N60_3 N 0.9121(4) 0.5003(5) 0.2410(7)
H72_4 H 0.779004 0 0.300369
H73_3 H 0.798273 0.0353217 0.518283
N6_5 N 0.4495(3) 1.0000(4) 0.5080(9)
C19_5 C 0.7797(3) 1.0000(4) 0.3588(9)
C22_5 C 0.5469(2) 1.0000(3) 0.3369(6)
H10_5 H 0.535175 1.000000 0.295593
O10_5 O 0.4759(2) 1.0000(3) 0.5430(6)
N28_3 N 0.7665(2) 0.9726(3) 0.4008(6)
C51_3 C 0.7711(5) 0.9813(7) 0.4720(8)
O12_3 O 0.4227(2) 0.9721(3) 0.4895(5)
N29_3 N 0.5418(2) 0.9715(3) 0.3691(4)
C52_3 C 0.5689(4) 0.9828(6) 0.4190(9)
H38_3 H 0.574024 0.968999 0.446933
Zn14_3 Zn 0.40594(3) 0.92391(5) 0.51578(8)
Zn18_3 Zn 0.51404(4) 0.92369(5) 0.34068(8)
H71_3 H 0.762952 0.964678 0.518283
H72_5 H 0.779004 1 0.300369
C2_6 C 0.7818(4) 0.000000 0.0359(9)
H2_6 H 0.779021 0.000001 0.085839
N27_5 N 0.7980(4) 0.0284(3) -0.0000(5)
Zn15_4 Zn 0.81800(6) 0.07464(4) 0.03538(11)
N27_6 N 0.7980(4) 0.0284(3) 1.0000(5)
C50_4 C 0.7937(5) 0.0180(4) 0.9283(8)
H37_4 H 0.801132 0.031908 0.887701
C2_7 C 0.7818(4) 1.000000 0.0359(9)
H2_7 H 0.779021 1.000001 0.085839
N6_6 N 0.4495(3) 0.4495(3) 0.0080(9)
O10_6 O 0.4759(2) 0.4759(2) 0.0430(6)
Zn8_4 Zn 0.15203(4) 0.74318(6) 0.03103(9)
Zn9_4 Zn 0.07464(4) 0.81800(6) 0.03538(11)
C53_4 C 0.1154(4) 0.6686(5) 0.0243(6)
H39_4 H 0.113145 0.667590 0.074563
O13_4 O 0.5670(2) 0.9459(4) 0.2411(5)
O14_4 O 0.0450(3) 0.7652(4) 0.2522(7)
N32_4 N 0.5532(3) 0.9398(4) 0.1835(5)
N33_4 N 0.0770(2) 0.8332(3) 0.1395(7)
O15_4 O 0.0983(3) 0.7111(4) 0.2470(6)
N34_4 N 0.1664(3) 0.7439(4) 0.1363(7)
O16_4 O 0.0473(2) 0.7649(4) 0.1350(6)
N36_4 N 0.5015(3) 0.9124(4) 0.1185(7)
O17_4 O 0.5695(2) 0.9490(3) 0.1243(4)
N41_4 N 0.0524(2) 0.7792(4) 0.1953(7)
O18_4 O 0.0986(3) 0.7141(4) 0.1301(5)
C55_4 C 0.0690(3) 0.8151(4) 0.1956(9)
N45_4 N 0.1124(3) 0.7193(4) 0.1915(6)
N46_4 N 0.1179(4) 0.7855(5) 0.0239(10)
C56_4 C 0.1485(4) 0.7361(5) 0.1908(8)
O20_4 O 0.0918(3) 0.7865(4) 0.0010(9)
N49_4 N 0.0777(3) 0.8317(4) 0.2642(7)
C61_4 C 0.5183(3) 0.9208(4) 0.1779(6)
N50_4 N 0.1643(3) 0.7435(4) 0.2595(7)
N51_4 N 0.5003(3) 0.9121(4) 0.2410(7)
C72_4 C 0.4673(4) 0.8917(6) 0.2165(10)
H47_4 H 0.447965 0.877864 0.243432
C73_4 C 0.3765(4) 0.9016(6) 0.0123(7)
H48_4 H 0.399836 0.912265 0.007965
C77_4 C 0.1993(5) 0.7583(7) 0.2331(14)
H52_4 H 0.218513 0.764809 0.261056
C79_4 C 0.4705(3) 0.8973(5) 0.1372(9)
H54_4 H 0.452503 0.890745 0.105418
O21_4 O 0.1430(3) 0.8101(4) 0.0612(9)
C85_4 C 0.1980(4) 0.7608(7) 0.1595(13)
H60_4 H 0.216782 0.772784 0.129818
H61_4 H 0.200040 0.710604 0.004182
H62_4 H 0.044432 0.867129 0.014283
C88_4 C 0.3247(4) 0.8772(6) 0.0827(8)
H63_4 H 0.314476 0.874468 0.127806
C89_4 C 0.3050(4) 0.8677(6) 0.0217(7)
H64_4 H 0.281605 0.854638 0.025369
C93_4 C 0.0916(5) 0.8655(7) 0.2360(13)
H68_4 H 0.097870 0.884859 0.263396
C94_4 C 0.0941(5) 0.8644(8) 0.1618(12)
H69_4 H 0.106229 0.883134 0.131998
C95_4 C 0.3584(4) 0.8905(6) 0.0793(8)
H70_4 H 0.370255 0.892454 0.121692
Zn14_4 Zn 0.48203(4) 0.40594(3) 0.01578(8)
Zn19_4 Zn 0.14923(6) 0.73943(4) 0.35576(10)
Zn21_4 Zn 0.07459(6) 0.81689(4) 0.36004(11)
N55_5 N 0.0284(3) 0.7980(4) -0.0000(5)
H71_4 H 0.798273 0.762952 0.0182834
H73_4 H 0.762952 0.798273 0.0182834
C19_6 C 0.7797(3) 0.7797(3) 0.8588(9)
C22_6 C 0.5469(2) 0.5469(2) 0.8369(6)
H10_6 H 0.535175 0.535175 0.795593
C26_4 C 0.7757(3) 0.9820(4) 0.9283(8)
H14_4 H 0.769224 0.968092 0.887701
C33_4 C 0.7711(5) 0.7898(5) 0.9720(8)
C45_4 C 0.5689(4) 0.5861(4) 0.9190(9)
H32_4 H 0.574024 0.605025 0.946933
N28_4 N 0.7939(2) 0.7665(2) 0.9008(6)
C51_4 C 0.7898(5) 0.7711(5) 0.9720(8)
O12_4 O 0.4506(2) 0.4227(2) 0.9895(5)
N29_4 N 0.5703(2) 0.5418(2) 0.8691(4)
C52_4 C 0.5861(4) 0.5689(4) 0.9190(9)
H38_4 H 0.605025 0.574024 0.946933
Zn10_4 Zn 0.40965(3) 0.92369(5) 0.84068(8)
Zn11_4 Zn 0.26057(4) 0.85077(6) 0.85576(10)
Zn12_4 Zn 0.18311(4) 0.92541(6) 0.86004(11)
N30_4 N 0.3638(2) 0.9006(3) 0.8837(5)
N31_4 N 0.3074(2) 0.8738(3) 0.8903(6)
N35_4 N 0.1397(3) 0.9010(4) 0.9118(10)
C54_4 C 0.4662(2) 0.9242(4) 0.9256(7)
H40_4 H 0.477971 0.947696 0.926931
N37_4 N 0.4361(2) 0.9057(3) 0.8902(5)
N39_4 N 0.2424(3) 0.8796(4) 0.8794(9)
N40_4 N 0.2354(3) 0.8075(4) 0.9054(9)
N42_4 N 0.1319(3) 0.6982(4) 0.9915(5)
N43_4 N 0.1941(3) 0.7681(4) 0.9717(11)
N44_4 N 0.4763(3) 0.9068(4) 0.9555(6)
O19_4 O 0.1201(3) 0.7603(4) 0.9994(9)
N47_4 N 0.2133(4) 0.9084(5) 0.8825(9)
N48_4 N 0.0987(3) 0.8591(4) 0.9729(13)
C57_4 C 0.33523(18) 0.88833(35) 0.8471(5)
H41_4 H 0.334235 0.889531 0.796873
C58_4 C 0.1268(4) 0.8701(6) 0.9450(9)
H42_4 H 0.138521 0.858390 0.946401
C59_4 C 0.4275(3) 0.8731(4) 0.9061(8)
C60_4 C 0.1161(4) 0.9095(5) 0.9239(13)
C62_4 C 0.2444(4) 0.7839(5) 0.9206(12)
C63_4 C 0.2055(4) 0.7969(6) 0.9464(10)
H43_4 H 0.195466 0.810027 0.953471
C64_4 C 0.1268(3) 0.6883(4) 0.9196(6)
H44_4 H 0.134234 0.702906 0.880074
C65_4 C 0.4515(3) 0.8736(4) 0.9472(7)
C66_4 C 0.3550(5) 0.8946(7) 0.9563(8)
C67_4 C 0.0911(4) 0.8842(5) 0.9668(12)
C68_4 C 0.1097(3) 0.6546(4) 0.9155(6)
H45_4 H 0.103490 0.641882 0.873085
C69_4 C 0.3201(5) 0.8775(8) 0.9554(8)
C70_4 C 0.2175(4) 0.7576(5) 0.9603(12)
C71_4 C 0.3962(6) 0.8142(8) 0.9061(14)
H46_4 H 0.376122 0.793992 0.898462
C74_4 C 0.2164(3) 0.8826(4) 0.8572(11)
H49_4 H 0.200694 0.867103 0.824825
C75_4 C 0.2706(5) 0.7794(6) 0.8975(17)
H50_4 H 0.286847 0.795370 0.866616
C76_4 C 0.2732(6) 0.7545(7) 0.9168(17)
H51_4 H 0.293514 0.754678 0.912218
C78_4 C 0.1149(5) 0.9374(6) 0.9000(13)
H53_4 H 0.132378 0.954080 0.872674
C80_4 C 0.3997(4) 0.8427(6) 0.8828(14)
H55_4 H 0.383922 0.842824 0.851142
C81_4 C 0.2633(3) 0.9117(4) 0.9178(8)
H56_4 H 0.284627 0.919271 0.937232
C82_4 C 0.2448(3) 0.9288(4) 0.9195(11)
H57_4 H 0.251724 0.949621 0.940963
C83_4 C 0.0875(7) 0.9397(8) 0.9175(16)
H58_4 H 0.085818 0.958470 0.904860
C84_4 C 0.4514(5) 0.8439(7) 0.9656(12)
H59_4 H 0.468591 0.843254 0.991135
C86_4 C 0.2167(6) 0.7279(7) 0.9765(19)
C87_4 C 0.0617(5) 0.8836(6) 0.9861(14)
C90_4 C 0.2453(6) 0.7272(8) 0.9448(15)
H65_4 H 0.244654 0.706570 0.943426
C91_4 C 0.4215(7) 0.8145(9) 0.9405(13)
H66_4 H 0.419843 0.793735 0.949376
C92_4 C 0.0624(6) 0.9134(8) 0.9545(16)
H67_4 H 0.042690 0.914326 0.960648
N52_4 N 0.2061(2) 0.9726(3) 0.9008(6)
N54_4 N 0.4297(2) 0.9715(3) 0.8691(4)
N55_6 N 0.0284(3) 0.7980(4) 1.0000(5)
N56_4 N 0.1683(4) 0.9223(3) 0.7642(7)
O22_4 O 0.5494(2) 0.9721(3) 0.9895(5)
N58_4 N 0.2565(4) 0.8357(3) 0.7595(7)
N60_4 N 0.4118(3) 0.9121(4) 0.7410(7)
H72_6 H 0.779004 0.779004 0.800369
N6_7 N 0.0000(4) 0.4495(3) 0.5080(9)
C19_7 C -0.0000(4) 0.7797(3) 0.3588(9)
C22_7 C 0.0000(3) 0.5469(2) 0.3369(6)
H10_7 H -0.000000 0.535175 0.295593
O10_7 O -0.0000(3) 0.4759(2) 0.5430(6)
N28_5 N 0.0274(3) 0.7939(2) 0.4008(6)
C51_5 C 0.0187(7) 0.7898(5) 0.4720(8)
O12_5 O 0.0279(3) 0.4506(2) 0.4895(5)
N29_5 N 0.0285(3) 0.5703(2) 0.3691(4)
C52_5 C 0.0172(6) 0.5861(4) 0.4190(9)
H38_5 H 0.031001 0.605025 0.446933
Zn14_5 Zn 0.07609(5) 0.48203(4) 0.51578(8)
H71_5 H 0.0353217 0.798273 0.518283
H72_7 H -1.48302e-17 0.779004 0.300369
C2_8 C 0.78180(40) 0.7818(4) 0.5359(9)
H2_8 H 0.779020 0.779021 0.585839
N6_8 N 1.0000(4) 0.4495(3) 0.5080(9)
C19_8 C 1.0000(4) 0.7797(3) 0.3588(9)
C22_8 C 1.0000(3) 0.5469(2) 0.3369(6)
H10_8 H 1.000000 0.535175 0.295593
C26_5 C 0.7937(5) 0.7757(3) 0.4283(8)
H14_5 H 0.801132 0.769224 0.387701
O10_8 O 1.0000(3) 0.4759(2) 0.5430(6)
C33_5 C 0.9813(7) 0.7711(5) 0.4720(8)
C45_5 C 0.9828(6) 0.5689(4) 0.4190(9)
H32_5 H 0.968999 0.574024 0.446933
N27_7 N 0.7696(5) 0.7980(4) 0.5000(5)
C50_5 C 0.7757(6) 0.7937(5) 0.4283(8)
H37_5 H 0.769224 0.801132 0.387701
Zn15_5 Zn 0.74336(7) 0.81800(6) 0.53538(11)
H72_8 H 1 0.779004 0.300369
H73_5 H 0.964678 0.762952 0.518283
N6_9 N 0.5505(3) 0.0000(4) 0.0080(9)
O10_9 O 0.5241(2) 0.0000(3) 0.0430(6)
Zn14_6 Zn 0.59406(3) 0.07609(5) 0.01578(8)
H71_6 H 0.237048 0.0353217 0.0182834
C19_9 C 0.2203(3) 0.0000(4) 0.8588(9)
C22_9 C 0.4531(2) 0.0000(3) 0.8369(6)
H10_9 H 0.464825 -0.000000 0.795593
N28_6 N 0.2335(2) 0.0274(3) 0.9008(6)
C51_6 C 0.2289(5) 0.0187(7) 0.9720(8)
O12_6 O 0.5773(2) 0.0279(3) 0.9895(5)
N29_6 N 0.4582(2) 0.0285(3) 0.8691(4)
C52_6 C 0.4311(4) 0.0172(6) 0.9190(9)
H38_6 H 0.425976 0.031001 0.946933
H72_9 H 0.220996 0 0.800369
C2_9 C -0.000000 0.78180(40) 0.0359(9)
H2_9 H -0.000001 0.779020 0.085839
N6_10 N 0.5505(3) 1.0000(4) 0.0080(9)
O10_10 O 0.5241(2) 1.0000(3) 0.0430(6)
H73_6 H 0.201727 0.964678 0.0182834
C19_10 C 0.2203(3) 1.0000(4) 0.8588(9)
C22_10 C 0.4531(2) 1.0000(3) 0.8369(6)
H10_10 H 0.464825 1.000000 0.795593
C26_6 C 0.0180(4) 0.7937(5) 0.9283(8)
H14_6 H 0.031908 0.801132 0.887701
C33_6 C 0.2102(5) 0.9813(7) 0.9720(8)
C45_6 C 0.4139(4) 0.9828(6) 0.9190(9)
H32_6 H 0.394975 0.968999 0.946933
H72_10 H 0.220996 1 0.800369
C2_10 C 1.000000 0.78180(40) 0.0359(9)
H2_10 H 0.999999 0.779020 0.085839
N27_8 N 0.9716(3) 0.7696(5) -0.0000(5)
Zn15_6 Zn 0.92536(4) 0.74336(7) 0.03538(11)
N27_9 N 0.9716(3) 0.7696(5) 1.0000(5)
C50_6 C 0.9820(4) 0.7757(6) 0.9283(8)
H37_6 H 0.968092 0.769224 0.887701
Zn2_3 Zn 0.74318(6) 0.15203(4) 0.03103(9)
C1_3 C 0.6686(5) 0.1154(4) 0.0243(6)
H1_3 H 0.667590 0.113145 0.074563
O1_3 O 0.9459(4) 0.5670(2) 0.2411(5)
O2_3 O 0.7652(4) 0.0450(3) 0.2522(7)
N3_3 N 0.9398(4) 0.5532(3) 0.1835(5)
N4_3 N 0.8332(3) 0.0770(2) 0.1395(7)
O3_3 O 0.7111(4) 0.0983(3) 0.2470(6)
N7_3 N 0.7439(4) 0.1664(3) 0.1363(7)
O4_3 O 0.7649(4) 0.0473(2) 0.1350(6)
N9_3 N 0.9124(4) 0.5015(3) 0.1185(7)
O5_3 O 0.9490(3) 0.5695(2) 0.1243(4)
N14_3 N 0.7792(4) 0.0524(2) 0.1953(7)
O6_3 O 0.7141(4) 0.0986(3) 0.1301(5)
C4_3 C 0.8151(4) 0.0690(3) 0.1956(9)
N19_3 N 0.7193(4) 0.1124(3) 0.1915(6)
N21_3 N 0.7855(5) 0.1179(4) 0.0239(10)
C5_3 C 0.7361(5) 0.1485(4) 0.1908(8)
O8_3 O 0.7865(4) 0.0918(3) 0.0010(9)
C10_3 C 0.9208(4) 0.5183(3) 0.1779(6)
C23_3 C 0.8917(6) 0.4673(4) 0.2165(10)
H11_3 H 0.877864 0.447965 0.243432
C24_3 C 0.9016(6) 0.3765(4) 0.0123(7)
H12_3 H 0.912265 0.399836 0.007965
C29_3 C 0.7583(7) 0.1993(5) 0.2331(14)
H17_3 H 0.764809 0.218513 0.261056
C31_3 C 0.8973(5) 0.4705(3) 0.1372(9)
H19_3 H 0.890745 0.452503 0.105418
O11_3 O 0.8101(4) 0.1430(3) 0.0612(9)
C38_3 C 0.7608(7) 0.1980(4) 0.1595(13)
H25_3 H 0.772784 0.216782 0.129818
H26_3 H 0.710604 0.200040 0.004182
H27_3 H 0.867129 0.044432 0.014283
C41_3 C 0.8772(6) 0.3247(4) 0.0827(8)
H28_3 H 0.874468 0.314476 0.127806
C42_3 C 0.8677(6) 0.3050(4) 0.0217(7)
H29_3 H 0.854638 0.281605 0.025369
C47_3 C 0.8655(7) 0.0916(5) 0.2360(13)
H34_3 H 0.884859 0.097870 0.263396
C48_3 C 0.8644(8) 0.0941(5) 0.1618(12)
H35_3 H 0.883134 0.106229 0.131998
C49_3 C 0.8905(6) 0.3584(4) 0.0793(8)
H36_3 H 0.892454 0.370255 0.121692
Zn8_5 Zn 0.40885(7) 0.25682(6) 0.03103(9)
C53_5 C 0.4468(6) 0.3314(5) 0.0243(6)
H39_5 H 0.445555 0.332410 0.074563
O13_5 O 0.6211(4) 0.0541(4) 0.2411(5)
O14_5 O 0.2798(5) 0.2348(4) 0.2522(7)
N32_5 N 0.6134(5) 0.0602(4) 0.1835(5)
N33_5 N 0.2438(4) 0.1668(3) 0.1395(7)
O15_5 O 0.3872(5) 0.2889(4) 0.2470(6)
N34_5 N 0.4225(5) 0.2561(4) 0.1363(7)
O16_5 O 0.2824(4) 0.2351(4) 0.1350(6)
N36_5 N 0.5891(5) 0.0876(4) 0.1185(7)
O17_5 O 0.6205(4) 0.0510(3) 0.1243(4)
N41_5 N 0.2732(4) 0.2208(4) 0.1953(7)
O18_5 O 0.3845(5) 0.2859(4) 0.1301(5)
C55_5 C 0.2539(5) 0.1849(4) 0.1956(9)
N45_5 N 0.3931(5) 0.2807(4) 0.1915(6)
N46_5 N 0.3324(6) 0.2145(5) 0.0239(10)
C56_5 C 0.4124(6) 0.2639(5) 0.1908(8)
O20_5 O 0.3053(5) 0.2135(4) 0.0010(9)
C61_5 C 0.5975(5) 0.0792(4) 0.1779(6)
C72_5 C 0.5756(7) 0.1083(6) 0.2165(10)
H47_5 H 0.570101 0.122136 0.243432
C73_5 C 0.4749(7) 0.0984(6) 0.0123(7)
H48_5 H 0.487571 0.087735 0.007965
C77_5 C 0.4410(9) 0.2417(7) 0.2331(14)
H52_5 H 0.453704 0.235191 0.261056
C79_5 C 0.5732(6) 0.1027(5) 0.1372(9)
H54_5 H 0.561758 0.109255 0.105418
O21_5 O 0.3329(5) 0.1899(4) 0.0612(9)
C85_5 C 0.4372(8) 0.2392(7) 0.1595(13)
H60_5 H 0.443998 0.227216 0.129818
H61_5 H 0.489436 0.289396 0.004182
H62_5 H 0.177303 0.132871 0.014283
C88_5 C 0.4475(7) 0.1228(6) 0.0827(8)
H63_5 H 0.440008 0.125532 0.127806
C89_5 C 0.4373(7) 0.1323(6) 0.0217(7)
H64_5 H 0.426967 0.145362 0.025369
C93_5 C 0.2261(9) 0.1345(7) 0.2360(13)
H68_5 H 0.213011 0.115141 0.263396
C94_5 C 0.2297(9) 0.1356(8) 0.1618(12)
H69_5 H 0.223095 0.116866 0.131998
C95_5 C 0.4679(7) 0.1095(6) 0.0793(8)
H70_5 H 0.477801 0.107546 0.121692
N1_3 N 0.9006(3) 0.3638(2) 0.8837(5)
N2_3 N 0.8738(3) 0.3074(2) 0.8903(6)
N8_3 N 0.9010(4) 0.1397(3) 0.9118(10)
C3_3 C 0.9242(4) 0.4662(2) 0.9256(7)
H3_3 H 0.947696 0.477971 0.926931
N10_3 N 0.9057(3) 0.4361(2) 0.8902(5)
N11_3 N 0.6417(4) 0.1026(3) 0.9871(5)
N12_3 N 0.8796(4) 0.2424(3) 0.8794(9)
N13_3 N 0.8075(4) 0.2354(3) 0.9054(9)
N15_3 N 0.6982(4) 0.1319(3) 0.9915(5)
N16_3 N 0.7681(4) 0.1941(3) 0.9717(11)
N18_3 N 0.9068(4) 0.4763(3) 0.9555(6)
O7_3 O 0.7603(4) 0.1201(3) 0.9994(9)
N22_3 N 0.9084(5) 0.2133(4) 0.8825(9)
N23_3 N 0.8591(4) 0.0987(3) 0.9729(13)
C6_3 C 0.88833(35) 0.33523(18) 0.8471(5)
H4_3 H 0.889531 0.334235 0.796873
C7_3 C 0.8701(6) 0.1268(4) 0.9450(9)
H5_3 H 0.858390 0.138521 0.946401
C8_3 C 0.8731(4) 0.4275(3) 0.9061(8)
C9_3 C 0.9095(5) 0.1161(4) 0.9239(13)
C11_3 C 0.7839(5) 0.2444(4) 0.9206(12)
C12_3 C 0.7969(6) 0.2055(4) 0.9464(10)
H6_3 H 0.810027 0.195466 0.953471
C13_3 C 0.6883(4) 0.1268(3) 0.9196(6)
H7_3 H 0.702906 0.134234 0.880074
C14_3 C 0.8736(4) 0.4515(3) 0.9472(7)
C15_3 C 0.8946(7) 0.3550(5) 0.9563(8)
C16_3 C 0.8842(5) 0.0911(4) 0.9668(12)
C17_3 C 0.6546(4) 0.1097(3) 0.9155(6)
H8_3 H 0.641882 0.103490 0.873085
C18_3 C 0.8775(8) 0.3201(5) 0.9554(8)
C20_3 C 0.7576(5) 0.2175(4) 0.9603(12)
C21_3 C 0.8142(8) 0.3962(6) 0.9061(14)
H9_3 H 0.793992 0.376122 0.898462
C25_3 C 0.8826(4) 0.2164(3) 0.8572(11)
H13_3 H 0.867103 0.200694 0.824825
C27_3 C 0.7794(6) 0.2706(5) 0.8975(17)
H15_3 H 0.795370 0.286847 0.866616
C28_3 C 0.7545(7) 0.2732(6) 0.9168(17)
H16_3 H 0.754678 0.293514 0.912218
C30_3 C 0.9374(6) 0.1149(5) 0.9000(13)
H18_3 H 0.954080 0.132378 0.872674
C32_3 C 0.8427(6) 0.3997(4) 0.8828(14)
H20_3 H 0.842824 0.383922 0.851142
C34_3 C 0.9117(4) 0.2633(3) 0.9178(8)
H21_3 H 0.919271 0.284627 0.937232
C35_3 C 0.9288(4) 0.2448(3) 0.9195(11)
H22_3 H 0.949621 0.251724 0.940963
C36_3 C 0.9397(8) 0.0875(7) 0.9175(16)
H23_3 H 0.958470 0.085818 0.904860
C37_3 C 0.8439(7) 0.4514(5) 0.9656(12)
H24_3 H 0.843254 0.468591 0.991135
C39_3 C 0.7279(7) 0.2167(6) 0.9765(19)
C40_3 C 0.8836(6) 0.0617(5) 0.9861(14)
C43_3 C 0.7272(8) 0.2453(6) 0.9448(15)
H30_3 H 0.706570 0.244654 0.943426
C44_3 C 0.8145(9) 0.4215(7) 0.9405(13)
H31_3 H 0.793735 0.419843 0.949376
C46_3 C 0.9134(8) 0.0624(6) 0.9545(16)
H33_3 H 0.914326 0.042690 0.960648
N30_5 N 0.4632(4) 0.0994(3) 0.8837(5)
N31_5 N 0.4336(4) 0.1262(3) 0.8903(6)
N35_5 N 0.2387(5) 0.0990(4) 0.9118(10)
C54_5 C 0.5420(4) 0.0758(4) 0.9256(7)
H40_5 H 0.530275 0.052304 0.926931
N37_5 N 0.5304(4) 0.0943(3) 0.8902(5)
N38_3 N 0.4609(5) 0.3583(4) 0.9871(5)
N39_5 N 0.3628(5) 0.1204(4) 0.8794(9)
N40_5 N 0.4279(5) 0.1925(4) 0.9054(9)
N42_5 N 0.4337(5) 0.3018(4) 0.9915(5)
N43_5 N 0.4260(5) 0.2319(4) 0.9717(11)
N44_5 N 0.5695(5) 0.0932(4) 0.9555(6)
O19_5 O 0.3598(5) 0.2397(4) 0.9994(9)
N47_5 N 0.3049(6) 0.0916(5) 0.8825(9)
N48_5 N 0.2396(5) 0.1409(4) 0.9729(13)
C57_5 C 0.44690(39) 0.11167(35) 0.8471(5)
H41_5 H 0.444704 0.110469 0.796873
C58_5 C 0.2567(7) 0.1299(6) 0.9450(9)
H42_5 H 0.280131 0.141610 0.946401
C59_5 C 0.5544(5) 0.1269(4) 0.9061(8)
C60_5 C 0.2066(6) 0.0905(5) 0.9239(13)
C62_5 C 0.4605(6) 0.2161(5) 0.9206(12)
C63_5 C 0.4086(7) 0.2031(6) 0.9464(10)
H43_5 H 0.385439 0.189973 0.953471
C64_5 C 0.4385(5) 0.3117(4) 0.9196(6)
H44_5 H 0.431328 0.297094 0.880074
C65_5 C 0.5779(5) 0.1264(4) 0.9472(7)
C66_5 C 0.4604(9) 0.1054(7) 0.9563(8)
C67_5 C 0.2069(6) 0.1158(5) 0.9668(12)
C68_5 C 0.4551(5) 0.3454(4) 0.9155(6)
H45_5 H 0.461608 0.358118 0.873085
C69_5 C 0.4426(9) 0.1225(8) 0.9554(8)
C70_5 C 0.4599(6) 0.2424(5) 0.9603(12)
C71_5 C 0.5820(10) 0.1858(8) 0.9061(14)
H46_5 H 0.582130 0.206008 0.898462
C74_5 C 0.3338(5) 0.1174(4) 0.8572(11)
H49_5 H 0.333591 0.132897 0.824825
C75_5 C 0.4912(8) 0.2206(6) 0.8975(17)
H50_5 H 0.491477 0.204630 0.866616
C76_5 C 0.5187(9) 0.2455(7) 0.9168(17)
H51_5 H 0.538836 0.245322 0.912218
C78_5 C 0.1775(8) 0.0626(6) 0.9000(13)
H53_5 H 0.178298 0.045920 0.872674
C80_5 C 0.5570(7) 0.1573(6) 0.8828(14)
H55_5 H 0.541098 0.157176 0.851142
C81_5 C 0.3516(5) 0.0883(4) 0.9178(8)
H56_5 H 0.365356 0.080729 0.937232
C82_5 C 0.3160(5) 0.0712(4) 0.9195(11)
H57_5 H 0.302103 0.050379 0.940963
C83_5 C 0.1478(11) 0.0603(8) 0.9175(16)
H58_5 H 0.127348 0.041530 0.904860
C84_5 C 0.6075(9) 0.1561(7) 0.9656(12)
H59_5 H 0.625337 0.156746 0.991135
C86_5 C 0.4888(9) 0.2721(7) 0.9765(19)
C87_5 C 0.1781(8) 0.1164(6) 0.9861(14)
C90_5 C 0.5181(10) 0.2728(8) 0.9448(15)
H65_5 H 0.538084 0.293430 0.943426
C91_5 C 0.6070(11) 0.1855(9) 0.9405(13)
H66_5 H 0.626108 0.206265 0.949376
C92_5 C 0.1490(10) 0.0866(8) 0.9545(16)
H67_5 H 0.128364 0.085674 0.960648
N53_3 N 0.8974(5) 0.5391(3) 0.9871(5)
Zn8_6 Zn 0.84797(4) 0.59115(7) 0.03103(9)
C53_6 C 0.8846(4) 0.5532(6) 0.0243(6)
H39_6 H 0.886855 0.554445 0.074563
O13_6 O 0.4330(2) 0.3789(4) 0.2411(5)
O14_6 O 0.9550(3) 0.7202(5) 0.2522(7)
N32_6 N 0.4468(3) 0.3866(5) 0.1835(5)
N33_6 N 0.9230(2) 0.7562(4) 0.1395(7)
O15_6 O 0.9017(3) 0.6128(5) 0.2470(6)
N34_6 N 0.8336(3) 0.5775(5) 0.1363(7)
O16_6 O 0.9527(2) 0.7176(4) 0.1350(6)
N36_6 N 0.4985(3) 0.4109(5) 0.1185(7)
O17_6 O 0.4305(2) 0.3795(4) 0.1243(4)
N41_6 N 0.9476(2) 0.7268(4) 0.1953(7)
O18_6 O 0.9014(3) 0.6155(5) 0.1301(5)
C55_6 C 0.9310(3) 0.7461(5) 0.1956(9)
N45_6 N 0.8876(3) 0.6069(5) 0.1915(6)
N46_6 N 0.8821(4) 0.6676(6) 0.0239(10)
C56_6 C 0.8515(4) 0.5876(6) 0.1908(8)
O20_6 O 0.9082(3) 0.6947(5) 0.0010(9)
C61_6 C 0.4817(3) 0.4025(5) 0.1779(6)
C72_6 C 0.5327(4) 0.4244(7) 0.2165(10)
H47_6 H 0.552035 0.429899 0.243432
C73_6 C 0.6235(4) 0.5251(7) 0.0123(7)
H48_6 H 0.600164 0.512429 0.007965
C77_6 C 0.8007(5) 0.5590(9) 0.2331(14)
H52_6 H 0.781487 0.546296 0.261056
C79_6 C 0.5295(3) 0.4268(6) 0.1372(9)
H54_6 H 0.547497 0.438242 0.105418
O21_6 O 0.8570(3) 0.6671(5) 0.0612(9)
C85_6 C 0.8020(4) 0.5628(8) 0.1595(13)
H60_6 H 0.783218 0.556002 0.129818
H61_6 H 0.799960 0.510564 0.004182
H62_6 H 0.955568 0.822697 0.014283
C88_6 C 0.6753(4) 0.5525(7) 0.0827(8)
H63_6 H 0.685524 0.559992 0.127806
C89_6 C 0.6950(4) 0.5627(7) 0.0217(7)
H64_6 H 0.718395 0.573033 0.025369
C93_6 C 0.9084(5) 0.7739(9) 0.2360(13)
H68_6 H 0.902130 0.786989 0.263396
C94_6 C 0.9059(5) 0.7703(9) 0.1618(12)
H69_6 H 0.893771 0.776905 0.131998
C95_6 C 0.6416(4) 0.5321(7) 0.0793(8)
H70_6 H 0.629745 0.522199 0.121692
N30_6 N 0.6362(2) 0.5368(4) 0.8837(5)
N31_6 N 0.6926(2) 0.5664(4) 0.8903(6)
N35_6 N 0.8603(3) 0.7613(5) 0.9118(10)
C54_6 C 0.5338(2) 0.4580(4) 0.9256(7)
H40_6 H 0.522029 0.469725 0.926931
N37_6 N 0.5639(2) 0.4696(4) 0.8902(5)
N39_6 N 0.7576(3) 0.6372(5) 0.8794(9)
N40_6 N 0.7646(3) 0.5721(5) 0.9054(9)
N42_6 N 0.8681(3) 0.5663(5) 0.9915(5)
N43_6 N 0.8059(3) 0.5740(5) 0.9717(11)
N44_6 N 0.5237(3) 0.4305(5) 0.9555(6)
O19_6 O 0.8799(3) 0.6402(5) 0.9994(9)
N47_6 N 0.7867(4) 0.6951(6) 0.8825(9)
N48_6 N 0.9013(3) 0.7604(5) 0.9729(13)
C57_6 C 0.66477(18) 0.55310(39) 0.8471(5)
H41_6 H 0.665765 0.555296 0.796873
C58_6 C 0.8732(4) 0.7433(7) 0.9450(9)
H42_6 H 0.861479 0.719869 0.946401
C59_6 C 0.5725(3) 0.4456(5) 0.9061(8)
C60_6 C 0.8839(4) 0.7934(6) 0.9239(13)
C62_6 C 0.7556(4) 0.5395(6) 0.9206(12)
C63_6 C 0.7945(4) 0.5914(7) 0.9464(10)
H43_6 H 0.804534 0.614561 0.953471
C64_6 C 0.8732(3) 0.5615(5) 0.9196(6)
H44_6 H 0.865766 0.568672 0.880074
C65_6 C 0.5485(3) 0.4221(5) 0.9472(7)
C66_6 C 0.6450(5) 0.5396(9) 0.9563(8)
C67_6 C 0.9089(4) 0.7931(6) 0.9668(12)
C68_6 C 0.8903(3) 0.5449(5) 0.9155(6)
H45_6 H 0.896510 0.538392 0.873085
C69_6 C 0.6799(5) 0.5574(9) 0.9554(8)
C70_6 C 0.7825(4) 0.5401(6) 0.9603(12)
C71_6 C 0.6038(6) 0.4180(10) 0.9061(14)
H46_6 H 0.623878 0.417870 0.898462
C74_6 C 0.7836(3) 0.6662(5) 0.8572(11)
H49_6 H 0.799306 0.666409 0.824825
C75_6 C 0.7294(5) 0.5088(8) 0.8975(17)
H50_6 H 0.713153 0.508523 0.866616
C76_6 C 0.7268(6) 0.4813(9) 0.9168(17)
H51_6 H 0.706486 0.461164 0.912218
C78_6 C 0.8851(5) 0.8225(8) 0.9000(13)
H53_6 H 0.867622 0.821702 0.872674
C80_6 C 0.6003(4) 0.4430(7) 0.8828(14)
H55_6 H 0.616078 0.458902 0.851142
C81_6 C 0.7367(3) 0.6484(5) 0.9178(8)
H56_6 H 0.715373 0.634644 0.937232
C82_6 C 0.7552(3) 0.6840(5) 0.9195(11)
H57_6 H 0.748276 0.697897 0.940963
C83_6 C 0.9125(7) 0.8522(11) 0.9175(16)
H58_6 H 0.914182 0.872652 0.904860
C84_6 C 0.5486(5) 0.3925(9) 0.9656(12)
H59_6 H 0.531409 0.374663 0.991135
C86_6 C 0.7833(6) 0.5112(9) 0.9765(19)
C87_6 C 0.9383(5) 0.8219(8) 0.9861(14)
C90_6 C 0.7547(6) 0.4819(10) 0.9448(15)
H65_6 H 0.755346 0.461916 0.943426
C91_6 C 0.5785(7) 0.3930(11) 0.9405(13)
H66_6 H 0.580157 0.373892 0.949376
C92_6 C 0.9376(6) 0.8510(10) 0.9545(16)
H67_6 H 0.957310 0.871636 0.960648
Zn2_4 Zn 0.15203(4) 0.40885(4) 0.53103(9)
N1_4 N 0.3638(2) 0.4632(2) 0.3837(5)
C1_4 C 0.1154(4) 0.4468(3) 0.5243(6)
H1_4 H 0.113145 0.445555 0.574563
N2_4 N 0.3074(2) 0.4336(2) 0.3903(6)
O1_4 O 0.5670(2) 0.6211(3) 0.7411(5)
O2_4 O 0.0450(3) 0.2798(3) 0.7522(7)
N3_4 N 0.5532(3) 0.6134(3) 0.6835(5)
N4_4 N 0.0770(2) 0.2438(2) 0.6395(7)
O3_4 O 0.0983(3) 0.3872(3) 0.7470(6)
N7_4 N 0.1664(3) 0.4225(3) 0.6363(7)
O4_4 O 0.0473(2) 0.2824(3) 0.6350(6)
N8_4 N 0.1397(3) 0.2387(3) 0.4118(10)
C3_4 C 0.4662(2) 0.5420(3) 0.4256(7)
H3_4 H 0.477971 0.530275 0.426931
N9_4 N 0.5015(3) 0.5891(2) 0.6185(7)
N10_4 N 0.4361(2) 0.5304(2) 0.3902(5)
N11_4 N 0.1026(3) 0.4609(3) 0.4871(5)
N12_4 N 0.2424(3) 0.3628(3) 0.3794(9)
N13_4 N 0.2354(3) 0.4279(3) 0.4054(9)
O5_4 O 0.5695(2) 0.6205(2) 0.6243(4)
N14_4 N 0.0524(2) 0.2732(3) 0.6953(7)
O6_4 O 0.0986(3) 0.3845(3) 0.6301(5)
N15_4 N 0.1319(3) 0.4337(3) 0.4915(5)
N16_4 N 0.1941(3) 0.4260(3) 0.4717(11)
C4_4 C 0.0690(3) 0.2539(3) 0.6956(9)
N18_4 N 0.4763(3) 0.5695(2) 0.4555(6)
O7_4 O 0.1201(3) 0.3598(3) 0.4994(9)
N19_4 N 0.1124(3) 0.3931(3) 0.6915(6)
N21_4 N 0.1179(4) 0.3324(3) 0.5239(10)
C5_4 C 0.1485(4) 0.4124(3) 0.6908(8)
N22_4 N 0.2133(4) 0.3049(3) 0.3825(9)
N23_4 N 0.0987(3) 0.2396(3) 0.4729(13)
O8_4 O 0.0918(3) 0.3053(3) 0.5010(9)
C6_4 C 0.33523(18) 0.4469(3) 0.3471(5)
H4_4 H 0.334235 0.444704 0.296873
C7_4 C 0.1268(4) 0.2567(4) 0.4450(9)
H5_4 H 0.138521 0.280131 0.446401
C8_4 C 0.4275(3) 0.5544(3) 0.4061(8)
C9_4 C 0.1161(4) 0.2066(3) 0.4239(13)
C10_4 C 0.5183(3) 0.5975(3) 0.6779(6)
C11_4 C 0.2444(4) 0.4605(3) 0.4206(12)
C12_4 C 0.2055(4) 0.4086(4) 0.4464(10)
H6_4 H 0.195466 0.385439 0.453471
C13_4 C 0.1268(3) 0.4385(3) 0.4196(6)
H7_4 H 0.134234 0.431328 0.380074
C14_4 C 0.4515(3) 0.5779(3) 0.4472(7)
C15_4 C 0.3550(5) 0.4604(5) 0.4563(8)
C16_4 C 0.0911(4) 0.2069(3) 0.4668(12)
C17_4 C 0.1097(3) 0.4551(3) 0.4155(6)
H8_4 H 0.103490 0.461608 0.373085
C18_4 C 0.3201(5) 0.4426(6) 0.4554(8)
C20_4 C 0.2175(4) 0.4599(3) 0.4603(12)
C21_4 C 0.3962(6) 0.5820(6) 0.4061(14)
H9_4 H 0.376122 0.582130 0.398462
C23_4 C 0.4673(4) 0.5756(5) 0.7165(10)
H11_4 H 0.447965 0.570101 0.743432
C24_4 C 0.3765(4) 0.4749(4) 0.5123(7)
H12_4 H 0.399836 0.487571 0.507965
C25_4 C 0.2164(3) 0.3338(2) 0.3572(11)
H13_4 H 0.200694 0.333591 0.324825
C27_4 C 0.2706(5) 0.4912(4) 0.3975(17)
H15_4 H 0.286847 0.491477 0.366616
C28_4 C 0.2732(6) 0.5187(3) 0.4168(17)
H16_4 H 0.293514 0.538836 0.412218
C29_4 C 0.1993(5) 0.4410(5) 0.7331(14)
H17_4 H 0.218513 0.453704 0.761056
C30_4 C 0.1149(5) 0.1775(4) 0.4000(13)
H18_4 H 0.132378 0.178298 0.372674
C31_4 C 0.4705(3) 0.5732(4) 0.6372(9)
H19_4 H 0.452503 0.561758 0.605418
O11_4 O 0.1430(3) 0.3329(2) 0.5612(9)
C32_4 C 0.3997(4) 0.5570(5) 0.3828(14)
H20_4 H 0.383922 0.541098 0.351142
C34_4 C 0.2633(3) 0.3516(3) 0.4178(8)
H21_4 H 0.284627 0.365356 0.437232
C35_4 C 0.2448(3) 0.3160(3) 0.4195(11)
H22_4 H 0.251724 0.302103 0.440963
C36_4 C 0.0875(7) 0.1478(4) 0.4175(16)
H23_4 H 0.085818 0.127348 0.404860
C37_4 C 0.4514(5) 0.6075(5) 0.4656(12)
H24_4 H 0.468591 0.625337 0.491135
C38_4 C 0.1980(4) 0.4372(6) 0.6595(13)
H25_4 H 0.216782 0.443998 0.629818
C39_4 C 0.2167(6) 0.4888(4) 0.4765(19)
H26_4 H 0.200040 0.489436 0.504182
C40_4 C 0.0617(5) 0.1781(4) 0.4861(14)
H27_4 H 0.044432 0.177303 0.514283
C41_4 C 0.3247(4) 0.4475(5) 0.5827(8)
H28_4 H 0.314476 0.440008 0.627806
C42_4 C 0.3050(4) 0.4373(5) 0.5217(7)
H29_4 H 0.281605 0.426967 0.525369
C43_4 C 0.2453(6) 0.5181(5) 0.4448(15)
H30_4 H 0.244654 0.538084 0.443426
C44_4 C 0.4215(7) 0.6070(6) 0.4405(13)
H31_4 H 0.419843 0.626108 0.449376
C46_4 C 0.0624(6) 0.1490(5) 0.4545(16)
H33_4 H 0.042690 0.128364 0.460648
C47_4 C 0.0916(5) 0.2261(5) 0.7360(13)
H34_4 H 0.097870 0.213011 0.763396
C48_4 C 0.0941(5) 0.2297(6) 0.6618(12)
H35_4 H 0.106229 0.223095 0.631998
C49_4 C 0.3584(4) 0.4679(5) 0.5793(8)
H36_4 H 0.370255 0.477801 0.621692
Zn8_7 Zn 0.25682(6) 0.84797(4) 0.53103(9)
N30_7 N 0.0994(3) 0.6362(2) 0.3837(5)
C53_7 C 0.3314(5) 0.8846(4) 0.5243(6)
H39_7 H 0.332410 0.886855 0.574563
N31_7 N 0.1262(3) 0.6926(2) 0.3903(6)
O13_7 O 0.0541(4) 0.4330(2) 0.7411(5)
O14_7 O 0.2348(4) 0.9550(3) 0.7522(7)
N32_7 N 0.0602(4) 0.4468(3) 0.6835(5)
N33_7 N 0.1668(3) 0.9230(2) 0.6395(7)
O15_7 O 0.2889(4) 0.9017(3) 0.7470(6)
N34_7 N 0.2561(4) 0.8336(3) 0.6363(7)
O16_7 O 0.2351(4) 0.9527(2) 0.6350(6)
N35_7 N 0.0990(4) 0.8603(3) 0.4118(10)
C54_7 C 0.0758(4) 0.5338(2) 0.4256(7)
H40_7 H 0.052304 0.522029 0.426931
N36_7 N 0.0876(4) 0.4985(3) 0.6185(7)
N37_7 N 0.0943(3) 0.5639(2) 0.3902(5)
N38_4 N 0.3583(4) 0.8974(3) 0.4871(5)
N39_7 N 0.1204(4) 0.7576(3) 0.3794(9)
N40_7 N 0.1925(4) 0.7646(3) 0.4054(9)
O17_7 O 0.0510(3) 0.4305(2) 0.6243(4)
N41_7 N 0.2208(4) 0.9476(2) 0.6953(7)
O18_7 O 0.2859(4) 0.9014(3) 0.6301(5)
N42_7 N 0.3018(4) 0.8681(3) 0.4915(5)
N43_7 N 0.2319(4) 0.8059(3) 0.4717(11)
C55_7 C 0.1849(4) 0.9310(3) 0.6956(9)
N44_7 N 0.0932(4) 0.5237(3) 0.4555(6)
O19_7 O 0.2397(4) 0.8799(3) 0.4994(9)
N45_7 N 0.2807(4) 0.8876(3) 0.6915(6)
N46_7 N 0.2145(5) 0.8821(4) 0.5239(10)
C56_7 C 0.2639(5) 0.8515(4) 0.6908(8)
N47_7 N 0.0916(5) 0.7867(4) 0.3825(9)
N48_7 N 0.1409(4) 0.9013(3) 0.4729(13)
O20_7 O 0.2135(4) 0.9082(3) 0.5010(9)
C57_7 C 0.11167(35) 0.66477(18) 0.3471(5)
H41_7 H 0.110469 0.665765 0.296873
C58_7 C 0.1299(6) 0.8732(4) 0.4450(9)
H42_7 H 0.141610 0.861479 0.446401
C59_7 C 0.1269(4) 0.5725(3) 0.4061(8)
C60_7 C 0.0905(5) 0.8839(4) 0.4239(13)
C61_7 C 0.0792(4) 0.4817(3) 0.6779(6)
C62_7 C 0.2161(5) 0.7556(4) 0.4206(12)
C63_7 C 0.2031(6) 0.7945(4) 0.4464(10)
H43_7 H 0.189973 0.804534 0.453471
C64_7 C 0.3117(4) 0.8732(3) 0.4196(6)
H44_7 H 0.297094 0.865766 0.380074
C65_7 C 0.1264(4) 0.5485(3) 0.4472(7)
C66_7 C 0.1054(7) 0.6450(5) 0.4563(8)
C67_7 C 0.1158(5) 0.9089(4) 0.4668(12)
C68_7 C 0.3454(4) 0.8903(3) 0.4155(6)
H45_7 H 0.358118 0.896510 0.373085
C69_7 C 0.1225(8) 0.6799(5) 0.4554(8)
C70_7 C 0.2424(5) 0.7825(4) 0.4603(12)
C71_7 C 0.1858(8) 0.6038(6) 0.4061(14)
H46_7 H 0.206008 0.623878 0.398462
C72_7 C 0.1083(6) 0.5327(4) 0.7165(10)
H47_7 H 0.122136 0.552035 0.743432
C73_7 C 0.0984(6) 0.6235(4) 0.5123(7)
H48_7 H 0.087735 0.600164 0.507965
C74_7 C 0.1174(4) 0.7836(3) 0.3572(11)
H49_7 H 0.132897 0.799306 0.324825
C75_7 C 0.2206(6) 0.7294(5) 0.3975(17)
H50_7 H 0.204630 0.713153 0.366616
C76_7 C 0.2455(7) 0.7268(6) 0.4168(17)
H51_7 H 0.245322 0.706486 0.412218
C77_7 C 0.2417(7) 0.8007(5) 0.7331(14)
H52_7 H 0.235191 0.781487 0.761056
C78_7 C 0.0626(6) 0.8851(5) 0.4000(13)
H53_7 H 0.045920 0.867622 0.372674
C79_7 C 0.1027(5) 0.5295(3) 0.6372(9)
H54_7 H 0.109255 0.547497 0.605418
O21_7 O 0.1899(4) 0.8570(3) 0.5612(9)
C80_7 C 0.1573(6) 0.6003(4) 0.3828(14)
H55_7 H 0.157176 0.616078 0.351142
C81_7 C 0.0883(4) 0.7367(3) 0.4178(8)
H56_7 H 0.080729 0.715373 0.437232
C82_7 C 0.0712(4) 0.7552(3) 0.4195(11)
H57_7 H 0.050379 0.748276 0.440963
C83_7 C 0.0603(8) 0.9125(7) 0.4175(16)
H58_7 H 0.041530 0.914182 0.404860
C84_7 C 0.1561(7) 0.5486(5) 0.4656(12)
H59_7 H 0.156746 0.531409 0.491135
C85_7 C 0.2392(7) 0.8020(4) 0.6595(13)
H60_7 H 0.227216 0.783218 0.629818
C86_7 C 0.2721(7) 0.7833(6) 0.4765(19)
H61_7 H 0.289396 0.799960 0.504182
C87_7 C 0.1164(6) 0.9383(5) 0.4861(14)
H62_7 H 0.132871 0.955568 0.514283
C88_7 C 0.1228(6) 0.6753(4) 0.5827(8)
H63_7 H 0.125532 0.685524 0.627806
C89_7 C 0.1323(6) 0.6950(4) 0.5217(7)
H64_7 H 0.145362 0.718395 0.525369
C90_7 C 0.2728(8) 0.7547(6) 0.4448(15)
H65_7 H 0.293430 0.755346 0.443426
C91_7 C 0.1855(9) 0.5785(7) 0.4405(13)
H66_7 H 0.206265 0.580157 0.449376
C92_7 C 0.0866(8) 0.9376(6) 0.4545(16)
H67_7 H 0.085674 0.957310 0.460648
C93_7 C 0.1345(7) 0.9084(5) 0.7360(13)
H68_7 H 0.115141 0.902130 0.763396
C94_7 C 0.1356(8) 0.9059(5) 0.6618(12)
H69_7 H 0.116866 0.893771 0.631998
C95_7 C 0.1095(6) 0.6416(4) 0.5793(8)
H70_7 H 0.107546 0.629745 0.621692
N53_4 N 0.5391(3) 0.6417(4) 0.4871(5)
Zn8_8 Zn 0.59115(7) 0.74318(6) 0.53103(9)
N30_8 N 0.5368(4) 0.9006(3) 0.3837(5)
C53_8 C 0.5532(6) 0.6686(5) 0.5243(6)
H39_8 H 0.554445 0.667590 0.574563
N31_8 N 0.5664(4) 0.8738(3) 0.3903(6)
O13_8 O 0.3789(4) 0.9459(4) 0.7411(5)
O14_8 O 0.7202(5) 0.7652(4) 0.7522(7)
N32_8 N 0.3866(5) 0.9398(4) 0.6835(5)
N33_8 N 0.7562(4) 0.8332(3) 0.6395(7)
O15_8 O 0.6128(5) 0.7111(4) 0.7470(6)
N34_8 N 0.5775(5) 0.7439(4) 0.6363(7)
O16_8 O 0.7176(4) 0.7649(4) 0.6350(6)
N35_8 N 0.7613(5) 0.9010(4) 0.4118(10)
C54_8 C 0.4580(4) 0.9242(4) 0.4256(7)
H40_8 H 0.469725 0.947696 0.426931
N36_8 N 0.4109(5) 0.9124(4) 0.6185(7)
N37_8 N 0.4696(4) 0.9057(3) 0.3902(5)
N39_8 N 0.6372(5) 0.8796(4) 0.3794(9)
N40_8 N 0.5721(5) 0.8075(4) 0.4054(9)
O17_8 O 0.3795(4) 0.9490(3) 0.6243(4)
N41_8 N 0.7268(4) 0.7792(4) 0.6953(7)
O18_8 O 0.6155(5) 0.7141(4) 0.6301(5)
N42_8 N 0.5663(5) 0.6982(4) 0.4915(5)
N43_8 N 0.5740(5) 0.7681(4) 0.4717(11)
C55_8 C 0.7461(5) 0.8151(4) 0.6956(9)
N44_8 N 0.4305(5) 0.9068(4) 0.4555(6)
O19_8 O 0.6402(5) 0.7603(4) 0.4994(9)
N45_8 N 0.6069(5) 0.7193(4) 0.6915(6)
N46_8 N 0.6676(6) 0.7855(5) 0.5239(10)
C56_8 C 0.5876(6) 0.7361(5) 0.6908(8)
N47_8 N 0.6951(6) 0.9084(5) 0.3825(9)
N48_8 N 0.7604(5) 0.8591(4) 0.4729(13)
O20_8 O 0.6947(5) 0.7865(4) 0.5010(9)
C57_8 C 0.55310(39) 0.88833(35) 0.3471(5)
H41_8 H 0.555296 0.889531 0.296873
C58_8 C 0.7433(7) 0.8701(6) 0.4450(9)
H42_8 H 0.719869 0.858390 0.446401
C59_8 C 0.4456(5) 0.8731(4) 0.4061(8)
C60_8 C 0.7934(6) 0.9095(5) 0.4239(13)
C61_8 C 0.4025(5) 0.9208(4) 0.6779(6)
C62_8 C 0.5395(6) 0.7839(5) 0.4206(12)
C63_8 C 0.5914(7) 0.7969(6) 0.4464(10)
H43_8 H 0.614561 0.810027 0.453471
C64_8 C 0.5615(5) 0.6883(4) 0.4196(6)
H44_8 H 0.568672 0.702906 0.380074
C65_8 C 0.4221(5) 0.8736(4) 0.4472(7)
C66_8 C 0.5396(9) 0.8946(7) 0.4563(8)
C67_8 C 0.7931(6) 0.8842(5) 0.4668(12)
C68_8 C 0.5449(5) 0.6546(4) 0.4155(6)
H45_8 H 0.538392 0.641882 0.373085
C69_8 C 0.5574(9) 0.8775(8) 0.4554(8)
C70_8 C 0.5401(6) 0.7576(5) 0.4603(12)
C71_8 C 0.4180(10) 0.8142(8) 0.4061(14)
H46_8 H 0.417870 0.793992 0.398462
C72_8 C 0.4244(7) 0.8917(6) 0.7165(10)
H47_8 H 0.429899 0.877864 0.743432
C73_8 C 0.5251(7) 0.9016(6) 0.5123(7)
H48_8 H 0.512429 0.912265 0.507965
C74_8 C 0.6662(5) 0.8826(4) 0.3572(11)
H49_8 H 0.666409 0.867103 0.324825
C75_8 C 0.5088(8) 0.7794(6) 0.3975(17)
H50_8 H 0.508523 0.795370 0.366616
C76_8 C 0.4813(9) 0.7545(7) 0.4168(17)
H51_8 H 0.461164 0.754678 0.412218
C77_8 C 0.5590(9) 0.7583(7) 0.7331(14)
H52_8 H 0.546296 0.764809 0.761056
C78_8 C 0.8225(8) 0.9374(6) 0.4000(13)
H53_8 H 0.821702 0.954080 0.372674
C79_8 C 0.4268(6) 0.8973(5) 0.6372(9)
H54_8 H 0.438242 0.890745 0.605418
O21_8 O 0.6671(5) 0.8101(4) 0.5612(9)
C80_8 C 0.4430(7) 0.8427(6) 0.3828(14)
H55_8 H 0.458902 0.842824 0.351142
C81_8 C 0.6484(5) 0.9117(4) 0.4178(8)
H56_8 H 0.634644 0.919271 0.437232
C82_8 C 0.6840(5) 0.9288(4) 0.4195(11)
H57_8 H 0.697897 0.949621 0.440963
C83_8 C 0.8522(11) 0.9397(8) 0.4175(16)
H58_8 H 0.872652 0.958470 0.404860
C84_8 C 0.3925(9) 0.8439(7) 0.4656(12)
H59_8 H 0.374663 0.843254 0.491135
C85_8 C 0.5628(8) 0.7608(7) 0.6595(13)
H60_8 H 0.556002 0.772784 0.629818
C86_8 C 0.5112(9) 0.7279(7) 0.4765(19)
H61_8 H 0.510564 0.710604 0.504182
C87_8 C 0.8219(8) 0.8836(6) 0.4861(14)
H62_8 H 0.822697 0.867129 0.514283
C88_8 C 0.5525(7) 0.8772(6) 0.5827(8)
H63_8 H 0.559992 0.874468 0.627806
C89_8 C 0.5627(7) 0.8677(6) 0.5217(7)
H64_8 H 0.573033 0.854638 0.525369
C90_8 C 0.4819(10) 0.7272(8) 0.4448(15)
H65_8 H 0.461916 0.706570 0.443426
C91_8 C 0.3930(11) 0.8145(9) 0.4405(13)
H66_8 H 0.373892 0.793735 0.449376
C92_8 C 0.8510(10) 0.9134(8) 0.4545(16)
H67_8 H 0.871636 0.914326 0.460648
C93_8 C 0.7739(9) 0.8655(7) 0.7360(13)
H68_8 H 0.786989 0.884859 0.763396
C94_8 C 0.7703(9) 0.8644(8) 0.6618(12)
H69_8 H 0.776905 0.883134 0.631998
C95_8 C 0.5321(7) 0.8905(6) 0.5793(8)
H70_8 H 0.522199 0.892454 0.621692
loop_
_geom_bond_atom_site_label_1
_geom_bond_atom_site_label_2
_geom_bond_site_symmetry_1
_geom_bond_site_symmetry_2
Zn1 N9 1_555 1_555
Zn2 N7 1_555 1_555
Zn3 N4 1_555 1_555
Zn4 N1 1_555 1_555
Zn5 N2 1_555 1_555
Zn6 N5 1_555 1_555
N1 C6 1_555 1_555
C1 H1 1_555 1_555
C2 H2 1_555 1_555
N2 C6 1_555 1_555
O1 N3 1_555 1_555
O2 N14 1_555 1_555
N3 O5 1_555 1_555
N4 C4 1_555 1_555
O3 N19 1_555 1_555
N5 C19 1_555 1_555
N6 O9 1_555 1_555
N7 C5 1_555 1_555
O4 N14 1_555 1_555
N8 Zn6 1_555 1_555
C3 H3 1_555 1_555
N9 C10 1_555 1_555
N10 Zn4 1_555 1_555
N11 C1 1_555 1_555
N12 Zn5 1_555 1_555
N13 Zn5 1_555 1_555
N14 C4 1_555 1_555
O6 N19 1_555 1_555
N15 Zn2 1_555 1_555
N16 Zn2 1_555 1_555
N17 Zn4 1_555 1_555
C4 N24 1_555 1_555
N18 Zn1 1_555 1_555
O7 Zn2 1_555 1_555
N19 C5 1_555 1_555
N20 Zn3 1_555 1_555
N21 O7 1_555 1_555
C5 N25 1_555 1_555
N22 Zn6 1_555 1_555
N23 Zn3 1_555 1_555
O8 Zn3 1_555 1_555
N24 C47 1_555 1_555
O9 Zn1 1_555 1_555
C6 H4 1_555 1_555
C7 N8 1_555 1_555
H5 C7 1_555 1_555
C8 N10 1_555 1_555
C9 N8 1_555 1_555
C10 N3 1_555 1_555
C11 N13 1_555 1_555
C12 N13 1_555 1_555
H6 C12 1_555 1_555
N25 C29 1_555 1_555
C13 N15 1_555 1_555
H7 C13 1_555 1_555
N26 C10 1_555 1_555
C14 N18 1_555 1_555
C15 N1 1_555 1_555
C16 N23 1_555 1_555
C17 N11 1_555 1_555
H8 C17 1_555 1_555
C18 N2 1_555 1_555
C19 N28 1_555 1_555
C20 N16 1_555 1_555
C21 H9 1_555 1_555
C22 N17 1_555 1_555
H10 C22 1_555 1_555
C23 N26 1_555 1_555
H11 C23 1_555 1_555
C24 C15 1_555 1_555
H12 C24 1_555 1_555
C25 N12 1_555 1_555
H13 C25 1_555 1_555
C26 N20 1_555 1_555
H14 C26 1_555 1_555
C27 C11 1_555 1_555
H15 C27 1_555 1_555
O10 N6 1_555 1_555
C28 C27 1_555 1_555
H16 C28 1_555 1_555
C29 H17 1_555 1_555
C30 C9 1_555 1_555
H18 C30 1_555 1_555
C31 N9 1_555 1_555
H19 C31 1_555 1_555
O11 N21 1_555 1_555
C32 C8 1_555 1_555
H20 C32 1_555 1_555
C33 N5 1_555 1_555
C34 N12 1_555 1_555
H21 C34 1_555 1_555
C35 N22 1_555 1_555
H22 C35 1_555 1_555
C36 C30 1_555 1_555
H23 C36 1_555 1_555
C37 C14 1_555 1_555
H24 C37 1_555 1_555
C38 N7 1_555 1_555
H25 C38 1_555 1_555
C39 C20 1_555 1_555
H26 C39 1_555 1_555
C40 C16 1_555 1_555
H27 C40 1_555 1_555
C41 H28 1_555 1_555
C42 C18 1_555 1_555
H29 C42 1_555 1_555
C43 C28 1_555 1_555
H30 C43 1_555 1_555
C44 C21 1_555 1_555
H31 C44 1_555 1_555
C45 N17 1_555 1_555
H32 C45 1_555 1_555
C46 C36 1_555 1_555
H33 C46 1_555 1_555
C47 H34 1_555 1_555
C48 N4 1_555 1_555
H35 C48 1_555 1_555
C49 C24 1_555 1_555
H36 C49 1_555 1_555
N28 C51 1_555 1_555
C51 C33 1_555 1_555
O12 N6 1_555 1_555
N29 C22 1_555 1_555
C52 C45 1_555 1_555
H38 C52 1_555 1_555
Zn7 N11 1_555 1_555
Zn8 N34 1_555 1_555
Zn9 N33 1_555 1_555
Zn10 N30 1_555 1_555
Zn11 N31 1_555 1_555
Zn12 N35 1_555 1_555
N30 C57 1_555 1_555
C53 H39 1_555 1_555
N31 C57 1_555 1_555
O13 N32 1_555 1_555
O14 N41 1_555 1_555
N32 O17 1_555 1_555
N33 C55 1_555 1_555
O15 N45 1_555 1_555
N34 C56 1_555 1_555
O16 N41 1_555 1_555
N35 C58 1_555 1_555
C54 H40 1_555 1_555
N36 Zn7 1_555 1_555
N37 Zn10 1_555 1_555
N38 C53 1_555 1_555
N39 Zn11 1_555 1_555
N40 Zn11 1_555 1_555
N41 C55 1_555 1_555
O18 N45 1_555 1_555
N42 Zn8 1_555 1_555
N43 Zn8 1_555 1_555
C55 N49 1_555 1_555
N44 Zn7 1_555 1_555
O19 Zn8 1_555 1_555
N45 C56 1_555 1_555
N46 O19 1_555 1_555
C56 N50 1_555 1_555
N47 Zn12 1_555 1_555
N48 Zn9 1_555 1_555
O20 Zn9 1_555 1_555
N49 C93 1_555 1_555
C57 H41 1_555 1_555
C58 N48 1_555 1_555
H42 C58 1_555 1_555
C59 N37 1_555 1_555
C60 N35 1_555 1_555
C61 N32 1_555 1_555
C62 N40 1_555 1_555
C63 N40 1_555 1_555
H43 C63 1_555 1_555
N50 C77 1_555 1_555
C64 N42 1_555 1_555
H44 C64 1_555 1_555
N51 C61 1_555 1_555
C65 N44 1_555 1_555
C66 N30 1_555 1_555
C67 N48 1_555 1_555
C68 N38 1_555 1_555
H45 C68 1_555 1_555
C69 N31 1_555 1_555
C70 N43 1_555 1_555
C71 H46 1_555 1_555
C72 N51 1_555 1_555
H47 C72 1_555 1_555
C73 C66 1_555 1_555
H48 C73 1_555 1_555
C74 N39 1_555 1_555
H49 C74 1_555 1_555
C75 C62 1_555 1_555
H50 C75 1_555 1_555
C76 C75 1_555 1_555
H51 C76 1_555 1_555
C77 H52 1_555 1_555
C78 C60 1_555 1_555
H53 C78 1_555 1_555
C79 N36 1_555 1_555
H54 C79 1_555 1_555
O21 N46 1_555 1_555
C80 C59 1_555 1_555
H55 C80 1_555 1_555
C81 N39 1_555 1_555
H56 C81 1_555 1_555
C82 N47 1_555 1_555
H57 C82 1_555 1_555
C83 C78 1_555 1_555
H58 C83 1_555 1_555
C84 C65 1_555 1_555
H59 C84 1_555 1_555
C85 N34 1_555 1_555
H60 C85 1_555 1_555
C86 C70 1_555 1_555
H61 C86 1_555 1_555
C87 C67 1_555 1_555
H62 C87 1_555 1_555
C88 H63 1_555 1_555
C89 C69 1_555 1_555
H64 C89 1_555 1_555
C90 C76 1_555 1_555
H65 C90 1_555 1_555
C91 C71 1_555 1_555
H66 C91 1_555 1_555
C92 C83 1_555 1_555
H67 C92 1_555 1_555
C93 H68 1_555 1_555
C94 N33 1_555 1_555
H69 C94 1_555 1_555
C95 C73 1_555 1_555
H70 C95 1_555 1_555
Zn13 N38 1_555 1_555
Zn14 O12 1_555 1_555
Zn16 N51 1_555 1_555
Zn17 N26 1_555 1_555
Zn18 N29 1_555 1_555
Zn19 N50 1_555 1_555
Zn20 N25 1_555 1_555
Zn21 N49 1_555 1_555
Zn22 N24 1_555 1_555
Zn23 N28 1_555 1_555
N52 Zn12 1_555 1_555
N53 Zn1 1_555 1_555
N54 Zn10 1_555 1_555
N55 Zn9 1_555 1_555
N56 Zn12 1_555 1_555
N57 Zn6 1_555 1_555
O22 Zn7 1_555 1_555
N58 Zn11 1_555 1_555
N59 Zn5 1_555 1_555
N60 Zn10 1_555 1_555
N61 Zn4 1_555 1_555
C1 N15 1_555 1_555
C2 N20 1_555 1_555
C3 N10 1_555 1_555
C3 N18 1_555 1_555
N16 C12 1_555 1_555
N21 O8 1_555 1_555
N22 C25 1_555 1_555
N23 C7 1_555 1_555
C8 C14 1_555 1_555
C9 C16 1_555 1_555
C11 C20 1_555 1_555
C13 C17 1_555 1_555
C15 C18 1_555 1_555
C21 C32 1_555 1_555
C23 C31 1_555 1_555
C29 C38 1_555 1_555
C34 C35 1_555 1_555
C37 C44 1_555 1_555
C39 C43 1_555 1_555
C40 C46 1_555 1_555
C41 C42 1_555 1_555
C41 C49 1_555 1_555
C47 C48 1_555 1_555
N29 C52 1_555 1_555
C53 N42 1_555 1_555
C54 N37 1_555 1_555
C54 N44 1_555 1_555
N36 C61 1_555 1_555
N43 C63 1_555 1_555
N46 O20 1_555 1_555
N47 C74 1_555 1_555
C59 C65 1_555 1_555
C60 C67 1_555 1_555
C62 C70 1_555 1_555
C64 C68 1_555 1_555
C66 C69 1_555 1_555
C71 C80 1_555 1_555
C72 C79 1_555 1_555
C77 C85 1_555 1_555
C81 C82 1_555 1_555
C84 C91 1_555 1_555
C86 C90 1_555 1_555
C87 C92 1_555 1_555
C88 C89 1_555 1_555
C88 C95 1_555 1_555
C93 C94 1_555 1_555
C51 H71 1_555 1_555
C19 H72 1_555 1_555
C33 H73 1_555 1_555
C2_2 H2_2 1_555 1_555
N27 C2_2 1_555 1_555
H37 C50 1_555 1_555
Zn15 N27 1_555 1_555
N27 C50 1_555 1_555
Zn1_2 N9_2 1_555 1_555
Zn2_2 N7_2 1_555 1_555
Zn3_2 N4_2 1_555 1_555
C1_2 H1_2 1_555 1_555
C2_3 H2_3 1_555 1_555
O1_2 N3_2 1_555 1_555
O2_2 N14_2 1_555 1_555
N3_2 O5_2 1_555 1_555
N4_2 C4_2 1_555 1_555
O3_2 N19_2 1_555 1_555
N7_2 C5_2 1_555 1_555
O4_2 N14_2 1_555 1_555
N9_2 C10_2 1_555 1_555
N14_2 C4_2 1_555 1_555
O6_2 N19_2 1_555 1_555
C4_2 N24_2 1_555 1_555
N19_2 C5_2 1_555 1_555
N20_2 Zn3_2 1_555 1_555
C5_2 N25_2 1_555 1_555
O8_2 Zn3_2 1_555 1_555
N24_2 C47_2 1_555 1_555
C10_2 N3_2 1_555 1_555
N25_2 C29_2 1_555 1_555
N26_2 C10_2 1_555 1_555
C23_2 N26_2 1_555 1_555
H11_2 C23_2 1_555 1_555
H12_2 C24_2 1_555 1_555
O10_2 N6_2 1_555 1_555
C29_2 H17_2 1_555 1_555
C31_2 N9_2 1_555 1_555
H19_2 C31_2 1_555 1_555
O11_2 N21_2 1_555 1_555
C38_2 N7_2 1_555 1_555
H25_2 C38_2 1_555 1_555
C41_2 H28_2 1_555 1_555
H29_2 C42_2 1_555 1_555
C47_2 H34_2 1_555 1_555
C48_2 N4_2 1_555 1_555
H35_2 C48_2 1_555 1_555
C49_2 C24_2 1_555 1_555
H36_2 C49_2 1_555 1_555
N27_2 C2_3 1_555 1_555
Zn8_2 N34_2 1_555 1_555
Zn9_2 N33_2 1_555 1_555
C53_2 H39_2 1_555 1_555
O13_2 N32_2 1_555 1_555
O14_2 N41_2 1_555 1_555
N32_2 O17_2 1_555 1_555
N33_2 C55_2 1_555 1_555
O15_2 N45_2 1_555 1_555
N34_2 C56_2 1_555 1_555
O16_2 N41_2 1_555 1_555
N36_2 Zn7_2 1_555 1_555
N41_2 C55_2 1_555 1_555
O18_2 N45_2 1_555 1_555
C55_2 N49_2 1_555 1_555
N45_2 C56_2 1_555 1_555
C56_2 N50_2 1_555 1_555
O20_2 Zn9_2 1_555 1_555
N49_2 C93_2 1_555 1_555
C61_2 N32_2 1_555 1_555
N50_2 C77_2 1_555 1_555
N51_2 C61_2 1_555 1_555
C72_2 N51_2 1_555 1_555
H47_2 C72_2 1_555 1_555
H48_2 C73_2 1_555 1_555
C77_2 H52_2 1_555 1_555
C79_2 N36_2 1_555 1_555
H54_2 C79_2 1_555 1_555
O21_2 N46_2 1_555 1_555
C85_2 N34_2 1_555 1_555
H60_2 C85_2 1_555 1_555
C88_2 H63_2 1_555 1_555
H64_2 C89_2 1_555 1_555
C93_2 H68_2 1_555 1_555
C94_2 N33_2 1_555 1_555
H69_2 C94_2 1_555 1_555
C95_2 C73_2 1_555 1_555
H70_2 C95_2 1_555 1_555
Zn15_2 N27_2 1_555 1_555
Zn18 N51_2 1_555 1_555
Zn17_2 N26_2 1_555 1_555
Zn19_2 N50_2 1_555 1_555
Zn20_2 N25_2 1_555 1_555
Zn21_2 N49_2 1_555 1_555
Zn23 N24_2 1_555 1_555
N55_2 Zn9_2 1_555 1_555
C2_3 N20_2 1_555 1_555
N21_2 O8_2 1_555 1_555
C23_2 C31_2 1_555 1_555
C29_2 C38_2 1_555 1_555
C41_2 C42_2 1_555 1_555
C41_2 C49_2 1_555 1_555
C47_2 C48_2 1_555 1_555
N36_2 C61_2 1_555 1_555
N46_2 O20_2 1_555 1_555
C72_2 C79_2 1_555 1_555
C77_2 C85_2 1_555 1_555
C88_2 C89_2 1_555 1_555
C88_2 C95_2 1_555 1_555
C93_2 C94_2 1_555 1_555
Zn4_2 N1_2 1_555 1_555
Zn5_2 N2_2 1_555 1_555
Zn6_2 N5_2 1_555 1_555
N1_2 C6_2 1_555 1_555
N2_2 C6_2 1_555 1_555
N5_2 C19_2 1_555 1_555
N8_2 Zn6_2 1_555 1_555
C3_2 H3_2 1_555 1_555
N10_2 Zn4_2 1_555 1_555
N12_2 Zn5_2 1_555 1_555
N13_2 Zn5_2 1_555 1_555
N17_2 Zn4_2 1_555 1_555
N22_2 Zn6_2 1_555 1_555
C6_2 H4_2 1_555 1_555
C7_2 N8_2 1_555 1_555
H5_2 C7_2 1_555 1_555
C8_2 N10_2 1_555 1_555
C9_2 N8_2 1_555 1_555
C11_2 N13_2 1_555 1_555
C12_2 N13_2 1_555 1_555
H6_2 C12_2 1_555 1_555
C13_2 N15_2 1_555 1_555
H7_2 C13_2 1_555 1_555
C14_2 N18_2 1_555 1_555
C15_2 N1_2 1_555 1_555
C16_2 N23_2 1_555 1_555
C17_2 N11_2 1_555 1_555
H8_2 C17_2 1_555 1_555
C18_2 N2_2 1_555 1_555
C20_2 N16_2 1_555 1_555
C21_2 H9_2 1_555 1_555
C22_2 N17_2 1_555 1_555
H10_2 C22_2 1_555 1_555
C25_2 N12_2 1_555 1_555
H13_2 C25_2 1_555 1_555
C26_2 N20_3 1_555 1_555
H14_2 C26_2 1_555 1_555
C27_2 C11_2 1_555 1_555
H15_2 C27_2 1_555 1_555
C28_2 C27_2 1_555 1_555
H16_2 C28_2 1_555 1_555
C30_2 C9_2 1_555 1_555
H18_2 C30_2 1_555 1_555
C32_2 C8_2 1_555 1_555
H20_2 C32_2 1_555 1_555
C33_2 N5_2 1_555 1_555
C34_2 N12_2 1_555 1_555
H21_2 C34_2 1_555 1_555
C35_2 N22_2 1_555 1_555
H22_2 C35_2 1_555 1_555
C36_2 C30_2 1_555 1_555
H23_2 C36_2 1_555 1_555
C37_2 C14_2 1_555 1_555
H24_2 C37_2 1_555 1_555
C39_2 C20_2 1_555 1_555
C40_2 C16_2 1_555 1_555
C43_2 C28_2 1_555 1_555
H30_2 C43_2 1_555 1_555
C44_2 C21_2 1_555 1_555
H31_2 C44_2 1_555 1_555
C45_2 N17_2 1_555 1_555
H32_2 C45_2 1_555 1_555
C46_2 C36_2 1_555 1_555
H33_2 C46_2 1_555 1_555
C50_2 C26_2 1_555 1_555
H37_2 C50_2 1_555 1_555
Zn10_2 N30_2 1_555 1_555
Zn11_2 N31_2 1_555 1_555
Zn12_2 N35_2 1_555 1_555
N30_2 C57_2 1_555 1_555
N31_2 C57_2 1_555 1_555
N35_2 C58_2 1_555 1_555
C54_2 H40_2 1_555 1_555
N37_2 Zn10_2 1_555 1_555
N39_2 Zn11_2 1_555 1_555
N40_2 Zn11_2 1_555 1_555
N47_2 Zn12_2 1_555 1_555
C57_2 H41_2 1_555 1_555
C58_2 N48_2 1_555 1_555
H42_2 C58_2 1_555 1_555
C59_2 N37_2 1_555 1_555
C60_2 N35_2 1_555 1_555
C62_2 N40_2 1_555 1_555
C63_2 N40_2 1_555 1_555
H43_2 C63_2 1_555 1_555
C64_2 N42_2 1_555 1_555
H44_2 C64_2 1_555 1_555
C65_2 N44_2 1_555 1_555
C66_2 N30_2 1_555 1_555
C67_2 N48_2 1_555 1_555
C68_2 N38_2 1_555 1_555
H45_2 C68_2 1_555 1_555
C69_2 N31_2 1_555 1_555
C70_2 N43_2 1_555 1_555
C71_2 H46_2 1_555 1_555
C74_2 N39_2 1_555 1_555
H49_2 C74_2 1_555 1_555
C75_2 C62_2 1_555 1_555
H50_2 C75_2 1_555 1_555
C76_2 C75_2 1_555 1_555
H51_2 C76_2 1_555 1_555
C78_2 C60_2 1_555 1_555
H53_2 C78_2 1_555 1_555
C80_2 C59_2 1_555 1_555
H55_2 C80_2 1_555 1_555
C81_2 N39_2 1_555 1_555
H56_2 C81_2 1_555 1_555
C82_2 N47_2 1_555 1_555
H57_2 C82_2 1_555 1_555
C83_2 C78_2 1_555 1_555
H58_2 C83_2 1_555 1_555
C84_2 C65_2 1_555 1_555
H59_2 C84_2 1_555 1_555
C86_2 C70_2 1_555 1_555
C87_2 C67_2 1_555 1_555
C90_2 C76_2 1_555 1_555
H65_2 C90_2 1_555 1_555
C91_2 C71_2 1_555 1_555
H66_2 C91_2 1_555 1_555
C92_2 C83_2 1_555 1_555
H67_2 C92_2 1_555 1_555
N52_2 Zn12_2 1_555 1_555
N54_2 Zn10_2 1_555 1_555
N56_2 Zn12_2 1_555 1_555
N57_2 Zn6_2 1_555 1_555
N58_2 Zn11_2 1_555 1_555
N59_2 Zn5_2 1_555 1_555
N60_2 Zn10_2 1_555 1_555
N61_2 Zn4_2 1_555 1_555
C3_2 N10_2 1_555 1_555
C3_2 N18_2 1_555 1_555
N16_2 C12_2 1_555 1_555
N22_2 C25_2 1_555 1_555
N23_2 C7_2 1_555 1_555
C8_2 C14_2 1_555 1_555
C9_2 C16_2 1_555 1_555
C11_2 C20_2 1_555 1_555
C13_2 C17_2 1_555 1_555
C15_2 C18_2 1_555 1_555
C21_2 C32_2 1_555 1_555
C34_2 C35_2 1_555 1_555
C37_2 C44_2 1_555 1_555
C39_2 C43_2 1_555 1_555
C40_2 C46_2 1_555 1_555
N27_3 C50_2 1_555 1_555
C54_2 N37_2 1_555 1_555
C54_2 N44_2 1_555 1_555
N43_2 C63_2 1_555 1_555
N47_2 C74_2 1_555 1_555
C59_2 C65_2 1_555 1_555
C60_2 C67_2 1_555 1_555
C62_2 C70_2 1_555 1_555
C64_2 C68_2 1_555 1_555
C66_2 C69_2 1_555 1_555
C71_2 C80_2 1_555 1_555
C81_2 C82_2 1_555 1_555
C84_2 C91_2 1_555 1_555
C86_2 C90_2 1_555 1_555
C87_2 C92_2 1_555 1_555
C19_2 H72_2 1_555 1_555
O10_3 N6_3 1_555 1_555
C19_3 N28_2 1_555 1_555
H10_3 C22_3 1_555 1_555
N28_2 C51_2 1_555 1_555
N29_2 C22_3 1_555 1_555
H38_2 C52_2 1_555 1_555
Zn18_2 N29_2 1_555 1_555
Zn21 N28_2 1_555 1_555
N29_2 C52_2 1_555 1_555
C19_3 H72_3 1_555 1_555
C2_4 H2_4 1_555 1_555
N27_4 C2_4 1_555 1_555
H37_3 C50_3 1_555 1_555
Zn15_3 N27_4 1_555 1_555
N27_4 C50_3 1_555 1_555
C2_5 H2_5 1_555 1_555
N52 C19_4 1_555 1_555
N6_4 O22 1_555 1_555
C22_4 N54 1_555 1_555
H10_4 C22_4 1_555 1_555
C26_3 N55 1_555 1_555
H14_3 C26_3 1_555 1_555
O10_4 N6_4 1_555 1_555
C33_3 N52 1_555 1_555
C45_3 N54 1_555 1_555
H32_3 C45_3 1_555 1_555
Zn8_3 N34_3 1_555 1_555
Zn9_3 N33_3 1_555 1_555
Zn10_3 N30_3 1_555 1_555
Zn11_3 N31_3 1_555 1_555
Zn12_3 N35_3 1_555 1_555
N30_3 C57_3 1_555 1_555
C53_3 H39_3 1_555 1_555
N31_3 C57_3 1_555 1_555
O13_3 N32_3 1_555 1_555
O14_3 N41_3 1_555 1_555
N32_3 O17_3 1_555 1_555
N33_3 C55_3 1_555 1_555
O15_3 N45_3 1_555 1_555
N34_3 C56_3 1_555 1_555
O16_3 N41_3 1_555 1_555
N35_3 C58_3 1_555 1_555
C54_3 H40_3 1_555 1_555
N36_3 Zn13 1_555 1_555
N37_3 Zn10_3 1_555 1_555
N53 C53_3 1_555 1_555
N39_3 Zn11_3 1_555 1_555
N40_3 Zn11_3 1_555 1_555
N41_3 C55_3 1_555 1_555
O18_3 N45_3 1_555 1_555
N42_3 Zn8_3 1_555 1_555
N43_3 Zn8_3 1_555 1_555
C55_3 N49_3 1_555 1_555
N44_3 Zn13 1_555 1_555
O19_3 Zn8_3 1_555 1_555
N45_3 C56_3 1_555 1_555
N46_3 O19_3 1_555 1_555
C56_3 N50_3 1_555 1_555
N47_3 Zn12_3 1_555 1_555
N48_3 Zn9_3 1_555 1_555
O20_3 Zn9_3 1_555 1_555
N49_3 C93_3 1_555 1_555
C57_3 H41_3 1_555 1_555
C58_3 N48_3 1_555 1_555
H42_3 C58_3 1_555 1_555
C59_3 N37_3 1_555 1_555
C60_3 N35_3 1_555 1_555
C61_3 N32_3 1_555 1_555
C62_3 N40_3 1_555 1_555
C63_3 N40_3 1_555 1_555
H43_3 C63_3 1_555 1_555
N50_3 C77_3 1_555 1_555
C64_3 N42_3 1_555 1_555
H44_3 C64_3 1_555 1_555
N51_3 C61_3 1_555 1_555
C65_3 N44_3 1_555 1_555
C66_3 N30_3 1_555 1_555
C67_3 N48_3 1_555 1_555
C68_3 N53 1_555 1_555
H45_3 C68_3 1_555 1_555
C69_3 N31_3 1_555 1_555
C70_3 N43_3 1_555 1_555
C71_3 H46_3 1_555 1_555
C72_3 N51_3 1_555 1_555
H47_3 C72_3 1_555 1_555
C73_3 C66_3 1_555 1_555
H48_3 C73_3 1_555 1_555
C74_3 N39_3 1_555 1_555
H49_3 C74_3 1_555 1_555
C75_3 C62_3 1_555 1_555
H50_3 C75_3 1_555 1_555
C76_3 C75_3 1_555 1_555
H51_3 C76_3 1_555 1_555
C77_3 H52_3 1_555 1_555
C78_3 C60_3 1_555 1_555
H53_3 C78_3 1_555 1_555
C79_3 N36_3 1_555 1_555
H54_3 C79_3 1_555 1_555
O21_3 N46_3 1_555 1_555
C80_3 C59_3 1_555 1_555
H55_3 C80_3 1_555 1_555
C81_3 N39_3 1_555 1_555
H56_3 C81_3 1_555 1_555
C82_3 N47_3 1_555 1_555
H57_3 C82_3 1_555 1_555
C83_3 C78_3 1_555 1_555
H58_3 C83_3 1_555 1_555
C84_3 C65_3 1_555 1_555
H59_3 C84_3 1_555 1_555
C85_3 N34_3 1_555 1_555
H60_3 C85_3 1_555 1_555
C86_3 C70_3 1_555 1_555
H61_3 C86_3 1_555 1_555
C87_3 C67_3 1_555 1_555
H62_3 C87_3 1_555 1_555
C88_3 H63_3 1_555 1_555
C89_3 C69_3 1_555 1_555
H64_3 C89_3 1_555 1_555
C90_3 C76_3 1_555 1_555
H65_3 C90_3 1_555 1_555
C91_3 C71_3 1_555 1_555
H66_3 C91_3 1_555 1_555
C92_3 C83_3 1_555 1_555
H67_3 C92_3 1_555 1_555
C93_3 H68_3 1_555 1_555
C94_3 N33_3 1_555 1_555
H69_3 C94_3 1_555 1_555
C95_3 C73_3 1_555 1_555
H70_3 C95_3 1_555 1_555
Zn18_2 N51_3 1_555 1_555
Zn19_3 N50_3 1_555 1_555
Zn21_3 N49_3 1_555 1_555
N52_3 Zn12_3 1_555 1_555
N54_3 Zn10_3 1_555 1_555
N55_4 Zn9_3 1_555 1_555
N56_3 Zn12_3 1_555 1_555
O22_3 Zn13 1_555 1_555
N58_3 Zn11_3 1_555 1_555
N60_3 Zn10_3 1_555 1_555
C2_5 N55 1_555 1_555
C53_3 N42_3 1_555 1_555
C54_3 N37_3 1_555 1_555
C54_3 N44_3 1_555 1_555
N36_3 C61_3 1_555 1_555
N43_3 C63_3 1_555 1_555
N46_3 O20_3 1_555 1_555
N47_3 C74_3 1_555 1_555
C59_3 C65_3 1_555 1_555
C60_3 C67_3 1_555 1_555
C62_3 C70_3 1_555 1_555
C64_3 C68_3 1_555 1_555
C66_3 C69_3 1_555 1_555
C71_3 C80_3 1_555 1_555
C72_3 C79_3 1_555 1_555
C77_3 C85_3 1_555 1_555
C81_3 C82_3 1_555 1_555
C84_3 C91_3 1_555 1_555
C86_3 C90_3 1_555 1_555
C87_3 C92_3 1_555 1_555
C88_3 C89_3 1_555 1_555
C88_3 C95_3 1_555 1_555
C93_3 C94_3 1_555 1_555
C19_4 H72_4 1_555 1_555
C33_3 H73_3 1_555 1_555
C19_5 N28_3 1_555 1_555
H10_5 C22_5 1_555 1_555
O10_5 N6_5 1_555 1_555
N28_3 C51_3 1_555 1_555
O12_3 N6_5 1_555 1_555
N29_3 C22_5 1_555 1_555
H38_3 C52_3 1_555 1_555
Zn14_3 O12_3 1_555 1_555
Zn18_3 N29_3 1_555 1_555
Zn21_2 N28_3 1_555 1_555
N29_3 C52_3 1_555 1_555
C51_3 H71_3 1_555 1_555
C19_5 H72_5 1_555 1_555
C2_6 H2_6 1_555 1_555
N27_5 C2_6 1_555 1_555
Zn15_4 N27_5 1_555 1_555
H37_4 C50_4 1_555 1_555
N27_6 C50_4 1_555 1_555
C2_7 H2_7 1_555 1_555
O10_6 N6_6 1_555 1_555
Zn8_4 N34_4 1_555 1_555
Zn9_4 N33_4 1_555 1_555
C53_4 H39_4 1_555 1_555
O13_4 N32_4 1_555 1_555
O14_4 N41_4 1_555 1_555
N32_4 O17_4 1_555 1_555
N33_4 C55_4 1_555 1_555
O15_4 N45_4 1_555 1_555
N34_4 C56_4 1_555 1_555
O16_4 N41_4 1_555 1_555
N36_4 Zn13_2 1_555 1_555
N41_4 C55_4 1_555 1_555
O18_4 N45_4 1_555 1_555
C55_4 N49_4 1_555 1_555
N45_4 C56_4 1_555 1_555
C56_4 N50_4 1_555 1_555
O20_4 Zn9_4 1_555 1_555
N49_4 C93_4 1_555 1_555
C61_4 N32_4 1_555 1_555
N50_4 C77_4 1_555 1_555
N51_4 C61_4 1_555 1_555
C72_4 N51_4 1_555 1_555
H47_4 C72_4 1_555 1_555
H48_4 C73_4 1_555 1_555
C77_4 H52_4 1_555 1_555
C79_4 N36_4 1_555 1_555
H54_4 C79_4 1_555 1_555
O21_4 N46_4 1_555 1_555
C85_4 N34_4 1_555 1_555
H60_4 C85_4 1_555 1_555
C88_4 H63_4 1_555 1_555
H64_4 C89_4 1_555 1_555
C93_4 H68_4 1_555 1_555
C94_4 N33_4 1_555 1_555
H69_4 C94_4 1_555 1_555
C95_4 C73_4 1_555 1_555
H70_4 C95_4 1_555 1_555
Zn18_3 N51_4 1_555 1_555
Zn19_4 N50_4 1_555 1_555
Zn21_4 N49_4 1_555 1_555
N55_5 Zn9_4 1_555 1_555
C2_7 N55_2 1_555 1_555
N36_4 C61_4 1_555 1_555
N46_4 O20_4 1_555 1_555
C72_4 C79_4 1_555 1_555
C77_4 C85_4 1_555 1_555
C88_4 C89_4 1_555 1_555
C88_4 C95_4 1_555 1_555
C93_4 C94_4 1_555 1_555
N52_2 C19_6 1_555 1_555
C19_6 N28_4 1_555 1_555
C22_6 N54_2 1_555 1_555
H10_6 C22_6 1_555 1_555
C26_4 N55_3 1_555 1_555
H14_4 C26_4 1_555 1_555
C33_4 N52_2 1_555 1_555
C45_4 N54_2 1_555 1_555
H32_4 C45_4 1_555 1_555
N28_4 C51_4 1_555 1_555
C51_4 C33_4 1_555 1_555
N29_4 C22_6 1_555 1_555
C52_4 C45_4 1_555 1_555
H38_4 C52_4 1_555 1_555
Zn10_4 N30_4 1_555 1_555
Zn11_4 N31_4 1_555 1_555
Zn12_4 N35_4 1_555 1_555
N30_4 C57_4 1_555 1_555
N31_4 C57_4 1_555 1_555
N35_4 C58_4 1_555 1_555
C54_4 H40_4 1_555 1_555
N37_4 Zn10_4 1_555 1_555
N39_4 Zn11_4 1_555 1_555
N40_4 Zn11_4 1_555 1_555
N47_4 Zn12_4 1_555 1_555
C57_4 H41_4 1_555 1_555
C58_4 N48_4 1_555 1_555
H42_4 C58_4 1_555 1_555
C59_4 N37_4 1_555 1_555
C60_4 N35_4 1_555 1_555
C62_4 N40_4 1_555 1_555
C63_4 N40_4 1_555 1_555
H43_4 C63_4 1_555 1_555
C64_4 N42_4 1_555 1_555
H44_4 C64_4 1_555 1_555
C65_4 N44_4 1_555 1_555
C66_4 N30_4 1_555 1_555
C67_4 N48_4 1_555 1_555
C68_4 N53_2 1_555 1_555
H45_4 C68_4 1_555 1_555
C69_4 N31_4 1_555 1_555
C70_4 N43_4 1_555 1_555
C71_4 H46_4 1_555 1_555
C74_4 N39_4 1_555 1_555
H49_4 C74_4 1_555 1_555
C75_4 C62_4 1_555 1_555
H50_4 C75_4 1_555 1_555
C76_4 C75_4 1_555 1_555
H51_4 C76_4 1_555 1_555
C78_4 C60_4 1_555 1_555
H53_4 C78_4 1_555 1_555
C80_4 C59_4 1_555 1_555
H55_4 C80_4 1_555 1_555
C81_4 N39_4 1_555 1_555
H56_4 C81_4 1_555 1_555
C82_4 N47_4 1_555 1_555
H57_4 C82_4 1_555 1_555
C83_4 C78_4 1_555 1_555
H58_4 C83_4 1_555 1_555
C84_4 C65_4 1_555 1_555
H59_4 C84_4 1_555 1_555
C86_4 C70_4 1_555 1_555
C87_4 C67_4 1_555 1_555
C90_4 C76_4 1_555 1_555
H65_4 C90_4 1_555 1_555
C91_4 C71_4 1_555 1_555
H66_4 C91_4 1_555 1_555
C92_4 C83_4 1_555 1_555
H67_4 C92_4 1_555 1_555
Zn17 N29_4 1_555 1_555
Zn21_3 N28_4 1_555 1_555
N52_4 Zn12_4 1_555 1_555
N54_4 Zn10_4 1_555 1_555
N56_4 Zn12_4 1_555 1_555
N58_4 Zn11_4 1_555 1_555
N60_4 Zn10_4 1_555 1_555
N29_4 C52_4 1_555 1_555
C54_4 N37_4 1_555 1_555
C54_4 N44_4 1_555 1_555
N43_4 C63_4 1_555 1_555
N47_4 C74_4 1_555 1_555
C59_4 C65_4 1_555 1_555
C60_4 C67_4 1_555 1_555
C62_4 C70_4 1_555 1_555
C64_4 C68_4 1_555 1_555
C66_4 C69_4 1_555 1_555
C71_4 C80_4 1_555 1_555
C81_4 C82_4 1_555 1_555
C84_4 C91_4 1_555 1_555
C86_4 C90_4 1_555 1_555
C87_4 C92_4 1_555 1_555
C19_6 H72_6 1_555 1_555
C19_7 N28_5 1_555 1_555
H10_7 C22_7 1_555 1_555
O10_7 N6_7 1_555 1_555
N28_5 C51_5 1_555 1_555
O12_5 N6_7 1_555 1_555
N29_5 C22_7 1_555 1_555
H38_5 C52_5 1_555 1_555
Zn14_5 O12_5 1_555 1_555
Zn17_2 N29_5 1_555 1_555
Zn21_4 N28_5 1_555 1_555
N29_5 C52_5 1_555 1_555
C51_5 H71_5 1_555 1_555
C19_7 H72_7 1_555 1_555
C2_8 H2_8 1_555 1_555
N52_3 C19_8 1_555 1_555
N6_8 O22_3 1_555 1_555
C22_8 N54_3 1_555 1_555
H10_8 C22_8 1_555 1_555
C26_5 N55_4 1_555 1_555
H14_5 C26_5 1_555 1_555
O10_8 N6_8 1_555 1_555
C33_5 N52_3 1_555 1_555
C45_5 N54_3 1_555 1_555
H32_5 C45_5 1_555 1_555
N27_7 C2_8 1_555 1_555
C50_5 C26_5 1_555 1_555
H37_5 C50_5 1_555 1_555
Zn15_5 N27_7 1_555 1_555
C2_8 N55_4 1_555 1_555
N27_7 C50_5 1_555 1_555
C19_8 H72_8 1_555 1_555
C33_5 H73_5 1_555 1_555
O10_9 N6_9 1_555 1_555
C19_9 N28_6 1_555 1_555
H10_9 C22_9 1_555 1_555
N28_6 C51_6 1_555 1_555
N29_6 C22_9 1_555 1_555
H38_6 C52_6 1_555 1_555
Zn16 N29_6 1_555 1_555
Zn22 N28_6 1_555 1_555
N29_6 C52_6 1_555 1_555
C19_9 H72_9 1_555 1_555
C2_9 H2_9 1_555 1_555
O10_10 N6_10 1_555 1_555
C2_9 N55_5 1_555 1_555
N52_4 C19_10 1_555 1_555
C22_10 N54_4 1_555 1_555
H10_10 C22_10 1_555 1_555
C26_6 N55_6 1_555 1_555
H14_6 C26_6 1_555 1_555
C33_6 N52_4 1_555 1_555
C45_6 N54_4 1_555 1_555
H32_6 C45_6 1_555 1_555
C19_10 H72_10 1_555 1_555
C2_10 H2_10 1_555 1_555
N27_8 C2_10 1_555 1_555
Zn15_6 N27_8 1_555 1_555
H37_6 C50_6 1_555 1_555
N27_9 C50_6 1_555 1_555
Zn14_2 N9_3 1_555 1_555
Zn2_3 N7_3 1_555 1_555
Zn15_4 N4_3 1_555 1_555
C1_3 H1_3 1_555 1_555
O1_3 N3_3 1_555 1_555
O2_3 N14_3 1_555 1_555
N3_3 O5_3 1_555 1_555
N4_3 C4_3 1_555 1_555
O3_3 N19_3 1_555 1_555
N7_3 C5_3 1_555 1_555
O4_3 N14_3 1_555 1_555
N9_3 C10_3 1_555 1_555
N14_3 C4_3 1_555 1_555
O6_3 N19_3 1_555 1_555
C4_3 N56 1_555 1_555
N19_3 C5_3 1_555 1_555
C5_3 N58 1_555 1_555
O8_3 Zn15_4 1_555 1_555
N56 C47_3 1_555 1_555
C10_3 N3_3 1_555 1_555
N58 C29_3 1_555 1_555
N60_3 C10_3 1_555 1_555
C23_3 N60_3 1_555 1_555
H11_3 C23_3 1_555 1_555
H12_3 C24_3 1_555 1_555
C29_3 H17_3 1_555 1_555
C31_3 N9_3 1_555 1_555
H19_3 C31_3 1_555 1_555
O11_3 N21_3 1_555 1_555
C38_3 N7_3 1_555 1_555
H25_3 C38_3 1_555 1_555
C41_3 H28_3 1_555 1_555
H29_3 C42_3 1_555 1_555
C47_3 H34_3 1_555 1_555
C48_3 N4_3 1_555 1_555
H35_3 C48_3 1_555 1_555
C49_3 C24_3 1_555 1_555
H36_3 C49_3 1_555 1_555
Zn8_5 N34_5 1_555 1_555
Zn15_2 N33_5 1_555 1_555
C53_5 H39_5 1_555 1_555
O13_5 N32_5 1_555 1_555
O14_5 N41_5 1_555 1_555
N32_5 O17_5 1_555 1_555
N33_5 C55_5 1_555 1_555
O15_5 N45_5 1_555 1_555
N34_5 C56_5 1_555 1_555
O16_5 N41_5 1_555 1_555
N36_5 Zn14_6 1_555 1_555
N41_5 C55_5 1_555 1_555
O18_5 N45_5 1_555 1_555
C55_5 N57 1_555 1_555
N45_5 C56_5 1_555 1_555
C56_5 N59 1_555 1_555
O20_5 Zn15_2 1_555 1_555
N57 C93_5 1_555 1_555
C61_5 N32_5 1_555 1_555
N59 C77_5 1_555 1_555
N60 C61_5 1_555 1_555
C72_5 N60 1_555 1_555
H47_5 C72_5 1_555 1_555
H48_5 C73_5 1_555 1_555
C77_5 H52_5 1_555 1_555
C79_5 N36_5 1_555 1_555
H54_5 C79_5 1_555 1_555
O21_5 N46_5 1_555 1_555
C85_5 N34_5 1_555 1_555
H60_5 C85_5 1_555 1_555
C88_5 H63_5 1_555 1_555
H64_5 C89_5 1_555 1_555
C93_5 H68_5 1_555 1_555
C94_5 N33_5 1_555 1_555
H69_5 C94_5 1_555 1_555
C95_5 C73_5 1_555 1_555
H70_5 C95_5 1_555 1_555
N21_3 O8_3 1_555 1_555
C23_3 C31_3 1_555 1_555
C29_3 C38_3 1_555 1_555
C41_3 C42_3 1_555 1_555
C41_3 C49_3 1_555 1_555
C47_3 C48_3 1_555 1_555
N36_5 C61_5 1_555 1_555
N46_5 O20_5 1_555 1_555
C72_5 C79_5 1_555 1_555
C77_5 C85_5 1_555 1_555
C88_5 C89_5 1_555 1_555
C88_5 C95_5 1_555 1_555
C93_5 C94_5 1_555 1_555
Zn18_2 N1_3 1_555 1_555
Zn19 N2_3 1_555 1_555
N1_3 C6_3 1_555 1_555
N2_3 C6_3 1_555 1_555
N8_3 Zn21 1_555 1_555
C3_3 H3_3 1_555 1_555
N10_3 Zn18_2 1_555 1_555
N12_3 Zn19 1_555 1_555
N13_3 Zn19 1_555 1_555
N22_3 Zn21 1_555 1_555
C6_3 H4_3 1_555 1_555
C7_3 N8_3 1_555 1_555
H5_3 C7_3 1_555 1_555
C8_3 N10_3 1_555 1_555
C9_3 N8_3 1_555 1_555
C11_3 N13_3 1_555 1_555
C12_3 N13_3 1_555 1_555
H6_3 C12_3 1_555 1_555
C13_3 N15_3 1_555 1_555
H7_3 C13_3 1_555 1_555
C14_3 N18_3 1_555 1_555
C15_3 N1_3 1_555 1_555
C16_3 N23_3 1_555 1_555
C17_3 N11_3 1_555 1_555
H8_3 C17_3 1_555 1_555
C18_3 N2_3 1_555 1_555
C20_3 N16_3 1_555 1_555
C21_3 H9_3 1_555 1_555
C25_3 N12_3 1_555 1_555
H13_3 C25_3 1_555 1_555
C27_3 C11_3 1_555 1_555
H15_3 C27_3 1_555 1_555
C28_3 C27_3 1_555 1_555
H16_3 C28_3 1_555 1_555
C30_3 C9_3 1_555 1_555
H18_3 C30_3 1_555 1_555
C32_3 C8_3 1_555 1_555
H20_3 C32_3 1_555 1_555
C34_3 N12_3 1_555 1_555
H21_3 C34_3 1_555 1_555
C35_3 N22_3 1_555 1_555
H22_3 C35_3 1_555 1_555
C36_3 C30_3 1_555 1_555
H23_3 C36_3 1_555 1_555
C37_3 C14_3 1_555 1_555
H24_3 C37_3 1_555 1_555
C39_3 C20_3 1_555 1_555
C40_3 C16_3 1_555 1_555
C43_3 C28_3 1_555 1_555
H30_3 C43_3 1_555 1_555
C44_3 C21_3 1_555 1_555
H31_3 C44_3 1_555 1_555
C46_3 C36_3 1_555 1_555
H33_3 C46_3 1_555 1_555
Zn16 N30_5 1_555 1_555
Zn20 N31_5 1_555 1_555
Zn22 N35_5 1_555 1_555
N30_5 C57_5 1_555 1_555
N31_5 C57_5 1_555 1_555
N35_5 C58_5 1_555 1_555
C54_5 H40_5 1_555 1_555
N37_5 Zn16 1_555 1_555
N39_5 Zn20 1_555 1_555
N40_5 Zn20 1_555 1_555
N47_5 Zn22 1_555 1_555
C57_5 H41_5 1_555 1_555
C58_5 N48_5 1_555 1_555
H42_5 C58_5 1_555 1_555
C59_5 N37_5 1_555 1_555
C60_5 N35_5 1_555 1_555
C62_5 N40_5 1_555 1_555
C63_5 N40_5 1_555 1_555
H43_5 C63_5 1_555 1_555
C64_5 N42_5 1_555 1_555
H44_5 C64_5 1_555 1_555
C65_5 N44_5 1_555 1_555
C66_5 N30_5 1_555 1_555
C67_5 N48_5 1_555 1_555
C68_5 N38_3 1_555 1_555
H45_5 C68_5 1_555 1_555
C69_5 N31_5 1_555 1_555
C70_5 N43_5 1_555 1_555
C71_5 H46_5 1_555 1_555
C74_5 N39_5 1_555 1_555
H49_5 C74_5 1_555 1_555
C75_5 C62_5 1_555 1_555
H50_5 C75_5 1_555 1_555
C76_5 C75_5 1_555 1_555
H51_5 C76_5 1_555 1_555
C78_5 C60_5 1_555 1_555
H53_5 C78_5 1_555 1_555
C80_5 C59_5 1_555 1_555
H55_5 C80_5 1_555 1_555
C81_5 N39_5 1_555 1_555
H56_5 C81_5 1_555 1_555
C82_5 N47_5 1_555 1_555
H57_5 C82_5 1_555 1_555
C83_5 C78_5 1_555 1_555
H58_5 C83_5 1_555 1_555
C84_5 C65_5 1_555 1_555
H59_5 C84_5 1_555 1_555
C86_5 C70_5 1_555 1_555
C87_5 C67_5 1_555 1_555
C90_5 C76_5 1_555 1_555
H65_5 C90_5 1_555 1_555
C91_5 C71_5 1_555 1_555
H66_5 C91_5 1_555 1_555
C92_5 C83_5 1_555 1_555
H67_5 C92_5 1_555 1_555
C3_3 N10_3 1_555 1_555
C3_3 N18_3 1_555 1_555
N16_3 C12_3 1_555 1_555
N22_3 C25_3 1_555 1_555
N23_3 C7_3 1_555 1_555
C8_3 C14_3 1_555 1_555
C9_3 C16_3 1_555 1_555
C11_3 C20_3 1_555 1_555
C13_3 C17_3 1_555 1_555
C15_3 C18_3 1_555 1_555
C21_3 C32_3 1_555 1_555
C34_3 C35_3 1_555 1_555
C37_3 C44_3 1_555 1_555
C39_3 C43_3 1_555 1_555
C40_3 C46_3 1_555 1_555
C54_5 N37_5 1_555 1_555
C54_5 N44_5 1_555 1_555
N43_5 C63_5 1_555 1_555
N47_5 C74_5 1_555 1_555
C59_5 C65_5 1_555 1_555
C60_5 C67_5 1_555 1_555
C62_5 C70_5 1_555 1_555
C64_5 C68_5 1_555 1_555
C66_5 C69_5 1_555 1_555
C71_5 C80_5 1_555 1_555
C81_5 C82_5 1_555 1_555
C84_5 C91_5 1_555 1_555
C86_5 C90_5 1_555 1_555
C87_5 C92_5 1_555 1_555
Zn8_6 N34_6 1_555 1_555
Zn15_6 N33_6 1_555 1_555
C53_6 H39_6 1_555 1_555
O13_6 N32_6 1_555 1_555
O14_6 N41_6 1_555 1_555
N32_6 O17_6 1_555 1_555
N33_6 C55_6 1_555 1_555
O15_6 N45_6 1_555 1_555
N34_6 C56_6 1_555 1_555
O16_6 N41_6 1_555 1_555
N36_6 Zn14_4 1_555 1_555
N41_6 C55_6 1_555 1_555
O18_6 N45_6 1_555 1_555
C55_6 N56_3 1_555 1_555
N45_6 C56_6 1_555 1_555
C56_6 N58_3 1_555 1_555
O20_6 Zn15_6 1_555 1_555
N56_3 C93_6 1_555 1_555
C61_6 N32_6 1_555 1_555
N58_3 C77_6 1_555 1_555
N61 C61_6 1_555 1_555
C72_6 N61 1_555 1_555
H47_6 C72_6 1_555 1_555
H48_6 C73_6 1_555 1_555
C77_6 H52_6 1_555 1_555
C79_6 N36_6 1_555 1_555
H54_6 C79_6 1_555 1_555
O21_6 N46_6 1_555 1_555
C85_6 N34_6 1_555 1_555
H60_6 C85_6 1_555 1_555
C88_6 H63_6 1_555 1_555
H64_6 C89_6 1_555 1_555
C93_6 H68_6 1_555 1_555
C94_6 N33_6 1_555 1_555
H69_6 C94_6 1_555 1_555
C95_6 C73_6 1_555 1_555
H70_6 C95_6 1_555 1_555
N36_6 C61_6 1_555 1_555
N46_6 O20_6 1_555 1_555
C72_6 C79_6 1_555 1_555
C77_6 C85_6 1_555 1_555
C88_6 C89_6 1_555 1_555
C88_6 C95_6 1_555 1_555
C93_6 C94_6 1_555 1_555
Zn17 N30_6 1_555 1_555
Zn19_3 N31_6 1_555 1_555
Zn21_3 N35_6 1_555 1_555
N30_6 C57_6 1_555 1_555
N31_6 C57_6 1_555 1_555
N35_6 C58_6 1_555 1_555
C54_6 H40_6 1_555 1_555
N37_6 Zn17 1_555 1_555
N39_6 Zn19_3 1_555 1_555
N40_6 Zn19_3 1_555 1_555
N47_6 Zn21_3 1_555 1_555
C57_6 H41_6 1_555 1_555
C58_6 N48_6 1_555 1_555
H42_6 C58_6 1_555 1_555
C59_6 N37_6 1_555 1_555
C60_6 N35_6 1_555 1_555
C62_6 N40_6 1_555 1_555
C63_6 N40_6 1_555 1_555
H43_6 C63_6 1_555 1_555
C64_6 N42_6 1_555 1_555
H44_6 C64_6 1_555 1_555
C65_6 N44_6 1_555 1_555
C66_6 N30_6 1_555 1_555
C67_6 N48_6 1_555 1_555
C68_6 N53_3 1_555 1_555
H45_6 C68_6 1_555 1_555
C69_6 N31_6 1_555 1_555
C70_6 N43_6 1_555 1_555
C71_6 H46_6 1_555 1_555
C74_6 N39_6 1_555 1_555
H49_6 C74_6 1_555 1_555
C75_6 C62_6 1_555 1_555
H50_6 C75_6 1_555 1_555
C76_6 C75_6 1_555 1_555
H51_6 C76_6 1_555 1_555
C78_6 C60_6 1_555 1_555
H53_6 C78_6 1_555 1_555
C80_6 C59_6 1_555 1_555
H55_6 C80_6 1_555 1_555
C81_6 N39_6 1_555 1_555
H56_6 C81_6 1_555 1_555
C82_6 N47_6 1_555 1_555
H57_6 C82_6 1_555 1_555
C83_6 C78_6 1_555 1_555
H58_6 C83_6 1_555 1_555
C84_6 C65_6 1_555 1_555
H59_6 C84_6 1_555 1_555
C86_6 C70_6 1_555 1_555
C87_6 C67_6 1_555 1_555
C90_6 C76_6 1_555 1_555
H65_6 C90_6 1_555 1_555
C91_6 C71_6 1_555 1_555
H66_6 C91_6 1_555 1_555
C92_6 C83_6 1_555 1_555
H67_6 C92_6 1_555 1_555
C54_6 N37_6 1_555 1_555
C54_6 N44_6 1_555 1_555
N43_6 C63_6 1_555 1_555
N47_6 C74_6 1_555 1_555
C59_6 C65_6 1_555 1_555
C60_6 C67_6 1_555 1_555
C62_6 C70_6 1_555 1_555
C64_6 C68_6 1_555 1_555
C66_6 C69_6 1_555 1_555
C71_6 C80_6 1_555 1_555
C81_6 C82_6 1_555 1_555
C84_6 C91_6 1_555 1_555
C86_6 C90_6 1_555 1_555
C87_6 C92_6 1_555 1_555
Zn14 N9_4 1_555 1_555
Zn2_4 N7_4 1_555 1_555
Zn15_3 N4_4 1_555 1_555
Zn18 N1_4 1_555 1_555
Zn20_2 N2_4 1_555 1_555
N1_4 C6_4 1_555 1_555
C1_4 H1_4 1_555 1_555
N2_4 C6_4 1_555 1_555
O1_4 N3_4 1_555 1_555
O2_4 N14_4 1_555 1_555
N3_4 O5_4 1_555 1_555
N4_4 C4_4 1_555 1_555
O3_4 N19_4 1_555 1_555
N7_4 C5_4 1_555 1_555
O4_4 N14_4 1_555 1_555
N8_4 Zn23 1_555 1_555
C3_4 H3_4 1_555 1_555
N9_4 C10_4 1_555 1_555
N10_4 Zn18 1_555 1_555
N11_4 C1_4 1_555 1_555
N12_4 Zn20_2 1_555 1_555
N13_4 Zn20_2 1_555 1_555
N14_4 C4_4 1_555 1_555
O6_4 N19_4 1_555 1_555
N15_4 Zn2_4 1_555 1_555
N16_4 Zn2_4 1_555 1_555
C4_4 N57_2 1_555 1_555
N18_4 Zn14 1_555 1_555
O7_4 Zn2_4 1_555 1_555
N19_4 C5_4 1_555 1_555
N21_4 O7_4 1_555 1_555
C5_4 N59_2 1_555 1_555
N22_4 Zn23 1_555 1_555
N23_4 Zn15_3 1_555 1_555
O8_4 Zn15_3 1_555 1_555
N57_2 C47_4 1_555 1_555
C6_4 H4_4 1_555 1_555
C7_4 N8_4 1_555 1_555
H5_4 C7_4 1_555 1_555
C8_4 N10_4 1_555 1_555
C9_4 N8_4 1_555 1_555
C10_4 N3_4 1_555 1_555
C11_4 N13_4 1_555 1_555
C12_4 N13_4 1_555 1_555
H6_4 C12_4 1_555 1_555
N59_2 C29_4 1_555 1_555
C13_4 N15_4 1_555 1_555
H7_4 C13_4 1_555 1_555
N60_2 C10_4 1_555 1_555
C14_4 N18_4 1_555 1_555
C15_4 N1_4 1_555 1_555
C16_4 N23_4 1_555 1_555
C17_4 N11_4 1_555 1_555
H8_4 C17_4 1_555 1_555
C18_4 N2_4 1_555 1_555
C20_4 N16_4 1_555 1_555
C21_4 H9_4 1_555 1_555
C23_4 N60_2 1_555 1_555
H11_4 C23_4 1_555 1_555
C24_4 C15_4 1_555 1_555
H12_4 C24_4 1_555 1_555
C25_4 N12_4 1_555 1_555
H13_4 C25_4 1_555 1_555
C27_4 C11_4 1_555 1_555
H15_4 C27_4 1_555 1_555
C28_4 C27_4 1_555 1_555
H16_4 C28_4 1_555 1_555
C29_4 H17_4 1_555 1_555
C30_4 C9_4 1_555 1_555
H18_4 C30_4 1_555 1_555
C31_4 N9_4 1_555 1_555
H19_4 C31_4 1_555 1_555
O11_4 N21_4 1_555 1_555
C32_4 C8_4 1_555 1_555
H20_4 C32_4 1_555 1_555
C34_4 N12_4 1_555 1_555
H21_4 C34_4 1_555 1_555
C35_4 N22_4 1_555 1_555
H22_4 C35_4 1_555 1_555
C36_4 C30_4 1_555 1_555
H23_4 C36_4 1_555 1_555
C37_4 C14_4 1_555 1_555
H24_4 C37_4 1_555 1_555
C38_4 N7_4 1_555 1_555
H25_4 C38_4 1_555 1_555
C39_4 C20_4 1_555 1_555
H26_4 C39_4 1_555 1_555
C40_4 C16_4 1_555 1_555
H27_4 C40_4 1_555 1_555
C41_4 H28_4 1_555 1_555
C42_4 C18_4 1_555 1_555
H29_4 C42_4 1_555 1_555
C43_4 C28_4 1_555 1_555
H30_4 C43_4 1_555 1_555
C44_4 C21_4 1_555 1_555
H31_4 C44_4 1_555 1_555
C46_4 C36_4 1_555 1_555
H33_4 C46_4 1_555 1_555
C47_4 H34_4 1_555 1_555
C48_4 N4_4 1_555 1_555
H35_4 C48_4 1_555 1_555
C49_4 C24_4 1_555 1_555
H36_4 C49_4 1_555 1_555
Zn14_5 N11_4 1_555 1_555
Zn8_7 N34_7 1_555 1_555
Zn15 N33_7 1_555 1_555
Zn17_2 N30_7 1_555 1_555
Zn19_4 N31_7 1_555 1_555
Zn21_4 N35_7 1_555 1_555
N30_7 C57_7 1_555 1_555
C53_7 H39_7 1_555 1_555
N31_7 C57_7 1_555 1_555
O13_7 N32_7 1_555 1_555
O14_7 N41_7 1_555 1_555
N32_7 O17_7 1_555 1_555
N33_7 C55_7 1_555 1_555
O15_7 N45_7 1_555 1_555
N34_7 C56_7 1_555 1_555
O16_7 N41_7 1_555 1_555
N35_7 C58_7 1_555 1_555
C54_7 H40_7 1_555 1_555
N36_7 Zn14_5 1_555 1_555
N37_7 Zn17_2 1_555 1_555
N38_4 C53_7 1_555 1_555
N39_7 Zn19_4 1_555 1_555
N40_7 Zn19_4 1_555 1_555
N41_7 C55_7 1_555 1_555
O18_7 N45_7 1_555 1_555
N42_7 Zn8_7 1_555 1_555
N43_7 Zn8_7 1_555 1_555
C55_7 N56_4 1_555 1_555
N44_7 Zn14_5 1_555 1_555
O19_7 Zn8_7 1_555 1_555
N45_7 C56_7 1_555 1_555
N46_7 O19_7 1_555 1_555
C56_7 N58_4 1_555 1_555
N47_7 Zn21_4 1_555 1_555
N48_7 Zn15 1_555 1_555
O20_7 Zn15 1_555 1_555
N56_4 C93_7 1_555 1_555
C57_7 H41_7 1_555 1_555
C58_7 N48_7 1_555 1_555
H42_7 C58_7 1_555 1_555
C59_7 N37_7 1_555 1_555
C60_7 N35_7 1_555 1_555
C61_7 N32_7 1_555 1_555
C62_7 N40_7 1_555 1_555
C63_7 N40_7 1_555 1_555
H43_7 C63_7 1_555 1_555
N58_4 C77_7 1_555 1_555
C64_7 N42_7 1_555 1_555
H44_7 C64_7 1_555 1_555
N61_2 C61_7 1_555 1_555
C65_7 N44_7 1_555 1_555
C66_7 N30_7 1_555 1_555
C67_7 N48_7 1_555 1_555
C68_7 N38_4 1_555 1_555
H45_7 C68_7 1_555 1_555
C69_7 N31_7 1_555 1_555
C70_7 N43_7 1_555 1_555
C71_7 H46_7 1_555 1_555
C72_7 N61_2 1_555 1_555
H47_7 C72_7 1_555 1_555
C73_7 C66_7 1_555 1_555
H48_7 C73_7 1_555 1_555
C74_7 N39_7 1_555 1_555
H49_7 C74_7 1_555 1_555
C75_7 C62_7 1_555 1_555
H50_7 C75_7 1_555 1_555
C76_7 C75_7 1_555 1_555
H51_7 C76_7 1_555 1_555
C77_7 H52_7 1_555 1_555
C78_7 C60_7 1_555 1_555
H53_7 C78_7 1_555 1_555
C79_7 N36_7 1_555 1_555
H54_7 C79_7 1_555 1_555
O21_7 N46_7 1_555 1_555
C80_7 C59_7 1_555 1_555
H55_7 C80_7 1_555 1_555
C81_7 N39_7 1_555 1_555
H56_7 C81_7 1_555 1_555
C82_7 N47_7 1_555 1_555
H57_7 C82_7 1_555 1_555
C83_7 C78_7 1_555 1_555
H58_7 C83_7 1_555 1_555
C84_7 C65_7 1_555 1_555
H59_7 C84_7 1_555 1_555
C85_7 N34_7 1_555 1_555
H60_7 C85_7 1_555 1_555
C86_7 C70_7 1_555 1_555
H61_7 C86_7 1_555 1_555
C87_7 C67_7 1_555 1_555
H62_7 C87_7 1_555 1_555
C88_7 H63_7 1_555 1_555
C89_7 C69_7 1_555 1_555
H64_7 C89_7 1_555 1_555
C90_7 C76_7 1_555 1_555
H65_7 C90_7 1_555 1_555
C91_7 C71_7 1_555 1_555
H66_7 C91_7 1_555 1_555
C92_7 C83_7 1_555 1_555
H67_7 C92_7 1_555 1_555
C93_7 H68_7 1_555 1_555
C94_7 N33_7 1_555 1_555
H69_7 C94_7 1_555 1_555
C95_7 C73_7 1_555 1_555
H70_7 C95_7 1_555 1_555
Zn14_3 N38_4 1_555 1_555
N53_4 Zn14 1_555 1_555
C1_4 N15_4 1_555 1_555
C3_4 N10_4 1_555 1_555
C3_4 N18_4 1_555 1_555
N16_4 C12_4 1_555 1_555
N21_4 O8_4 1_555 1_555
N22_4 C25_4 1_555 1_555
N23_4 C7_4 1_555 1_555
C8_4 C14_4 1_555 1_555
C9_4 C16_4 1_555 1_555
C11_4 C20_4 1_555 1_555
C13_4 C17_4 1_555 1_555
C15_4 C18_4 1_555 1_555
C21_4 C32_4 1_555 1_555
C23_4 C31_4 1_555 1_555
C29_4 C38_4 1_555 1_555
C34_4 C35_4 1_555 1_555
C37_4 C44_4 1_555 1_555
C39_4 C43_4 1_555 1_555
C40_4 C46_4 1_555 1_555
C41_4 C42_4 1_555 1_555
C41_4 C49_4 1_555 1_555
C47_4 C48_4 1_555 1_555
C53_7 N42_7 1_555 1_555
C54_7 N37_7 1_555 1_555
C54_7 N44_7 1_555 1_555
N36_7 C61_7 1_555 1_555
N43_7 C63_7 1_555 1_555
N46_7 O20_7 1_555 1_555
N47_7 C74_7 1_555 1_555
C59_7 C65_7 1_555 1_555
C60_7 C67_7 1_555 1_555
C62_7 C70_7 1_555 1_555
C64_7 C68_7 1_555 1_555
C66_7 C69_7 1_555 1_555
C71_7 C80_7 1_555 1_555
C72_7 C79_7 1_555 1_555
C77_7 C85_7 1_555 1_555
C81_7 C82_7 1_555 1_555
C84_7 C91_7 1_555 1_555
C86_7 C90_7 1_555 1_555
C87_7 C92_7 1_555 1_555
C88_7 C89_7 1_555 1_555
C88_7 C95_7 1_555 1_555
C93_7 C94_7 1_555 1_555
Zn8_8 N34_8 1_555 1_555
Zn15_5 N33_8 1_555 1_555
Zn18_3 N30_8 1_555 1_555
Zn19_2 N31_8 1_555 1_555
Zn21_2 N35_8 1_555 1_555
N30_8 C57_8 1_555 1_555
C53_8 H39_8 1_555 1_555
N31_8 C57_8 1_555 1_555
O13_8 N32_8 1_555 1_555
O14_8 N41_8 1_555 1_555
N32_8 O17_8 1_555 1_555
N33_8 C55_8 1_555 1_555
O15_8 N45_8 1_555 1_555
N34_8 C56_8 1_555 1_555
O16_8 N41_8 1_555 1_555
N35_8 C58_8 1_555 1_555
C54_8 H40_8 1_555 1_555
N36_8 Zn14_3 1_555 1_555
N37_8 Zn18_3 1_555 1_555
N53_4 C53_8 1_555 1_555
N39_8 Zn19_2 1_555 1_555
N40_8 Zn19_2 1_555 1_555
N41_8 C55_8 1_555 1_555
O18_8 N45_8 1_555 1_555
N42_8 Zn8_8 1_555 1_555
N43_8 Zn8_8 1_555 1_555
C55_8 N56_2 1_555 1_555
N44_8 Zn14_3 1_555 1_555
O19_8 Zn8_8 1_555 1_555
N45_8 C56_8 1_555 1_555
N46_8 O19_8 1_555 1_555
C56_8 N58_2 1_555 1_555
N47_8 Zn21_2 1_555 1_555
N48_8 Zn15_5 1_555 1_555
O20_8 Zn15_5 1_555 1_555
N56_2 C93_8 1_555 1_555
C57_8 H41_8 1_555 1_555
C58_8 N48_8 1_555 1_555
H42_8 C58_8 1_555 1_555
C59_8 N37_8 1_555 1_555
C60_8 N35_8 1_555 1_555
C61_8 N32_8 1_555 1_555
C62_8 N40_8 1_555 1_555
C63_8 N40_8 1_555 1_555
H43_8 C63_8 1_555 1_555
N58_2 C77_8 1_555 1_555
C64_8 N42_8 1_555 1_555
H44_8 C64_8 1_555 1_555
N60_4 C61_8 1_555 1_555
C65_8 N44_8 1_555 1_555
C66_8 N30_8 1_555 1_555
C67_8 N48_8 1_555 1_555
C68_8 N53_4 1_555 1_555
H45_8 C68_8 1_555 1_555
C69_8 N31_8 1_555 1_555
C70_8 N43_8 1_555 1_555
C71_8 H46_8 1_555 1_555
C72_8 N60_4 1_555 1_555
H47_8 C72_8 1_555 1_555
C73_8 C66_8 1_555 1_555
H48_8 C73_8 1_555 1_555
C74_8 N39_8 1_555 1_555
H49_8 C74_8 1_555 1_555
C75_8 C62_8 1_555 1_555
H50_8 C75_8 1_555 1_555
C76_8 C75_8 1_555 1_555
H51_8 C76_8 1_555 1_555
C77_8 H52_8 1_555 1_555
C78_8 C60_8 1_555 1_555
H53_8 C78_8 1_555 1_555
C79_8 N36_8 1_555 1_555
H54_8 C79_8 1_555 1_555
O21_8 N46_8 1_555 1_555
C80_8 C59_8 1_555 1_555
H55_8 C80_8 1_555 1_555
C81_8 N39_8 1_555 1_555
H56_8 C81_8 1_555 1_555
C82_8 N47_8 1_555 1_555
H57_8 C82_8 1_555 1_555
C83_8 C78_8 1_555 1_555
H58_8 C83_8 1_555 1_555
C84_8 C65_8 1_555 1_555
H59_8 C84_8 1_555 1_555
C85_8 N34_8 1_555 1_555
H60_8 C85_8 1_555 1_555
C86_8 C70_8 1_555 1_555
H61_8 C86_8 1_555 1_555
C87_8 C67_8 1_555 1_555
H62_8 C87_8 1_555 1_555
C88_8 H63_8 1_555 1_555
C89_8 C69_8 1_555 1_555
H64_8 C89_8 1_555 1_555
C90_8 C76_8 1_555 1_555
H65_8 C90_8 1_555 1_555
C91_8 C71_8 1_555 1_555
H66_8 C91_8 1_555 1_555
C92_8 C83_8 1_555 1_555
H67_8 C92_8 1_555 1_555
C93_8 H68_8 1_555 1_555
C94_8 N33_8 1_555 1_555
H69_8 C94_8 1_555 1_555
C95_8 C73_8 1_555 1_555
H70_8 C95_8 1_555 1_555
C53_8 N42_8 1_555 1_555
C54_8 N37_8 1_555 1_555
C54_8 N44_8 1_555 1_555
N36_8 C61_8 1_555 1_555
N43_8 C63_8 1_555 1_555
N46_8 O20_8 1_555 1_555
N47_8 C74_8 1_555 1_555
C59_8 C65_8 1_555 1_555
C60_8 C67_8 1_555 1_555
C62_8 C70_8 1_555 1_555
C64_8 C68_8 1_555 1_555
C66_8 C69_8 1_555 1_555
C71_8 C80_8 1_555 1_555
C72_8 C79_8 1_555 1_555
C77_8 C85_8 1_555 1_555
C81_8 C82_8 1_555 1_555
C84_8 C91_8 1_555 1_555
C86_8 C90_8 1_555 1_555
C87_8 C92_8 1_555 1_555
C88_8 C89_8 1_555 1_555
C88_8 C95_8 1_555 1_555
C93_8 C94_8 1_555 1_555

#END
