
###############################################################################
#
# This file contains modified crystal structure data generated from the
# MOF subset of the Cambridge Structural Database (CSD) v543 
# hosted by the Cambridge Crystallographic Data Centre (CCDC).
#
# This work is licensed under the Creative Commons
# Attribution-NonCommercial-ShareAlike 4.0 International License.
# To view a copy of this license, visit
# http://creativecommons.org/licenses/by-nc-sa/4.0/
# or send a letter to
# Creative Commons, PO Box 1866, Mountain View, CA 94042, USA.
#
# CIF created using the CSD Python API on 29 September 2022
# The structure has been converted into the P1 space group
# The structure has a 3D framework
# The original CSD entry GAXGIX is in the monoclinic crystal system
# The framework has been calculated to contain at least 10.0% void space
# The void calculation uses a probe of radius 1.32A, grid spacing 0.4
#
###############################################################################

data_GAXGIX
_chemical_formula_moiety         '(C248 H160 Mn12 N16 O62)n'
_symmetry_cell_setting           triclinic
_symmetry_space_group_name_H-M   'P 1'
_symmetry_Int_Tables_number      1
_space_group_name_Hall           'P 1'
loop_
_symmetry_equiv_pos_site_id
_symmetry_equiv_pos_as_xyz
1 x,y,z
_cell_length_a                   14.271(4)
_cell_length_b                   17.077(4)
_cell_length_c                   25.897(6)
_cell_angle_alpha                90
_cell_angle_beta                 92.986(11)
_cell_angle_gamma                90
_cell_volume                     6302.68
loop_
_atom_site_label
_atom_site_type_symbol
_atom_site_fract_x
_atom_site_fract_y
_atom_site_fract_z
Mn1 Mn 0.00772(3) 0.17698(3) 0.491873(18)
Mn2 Mn 0.2500 0.2500 0.5000
O1 O 0.06953(18) 0.10420(18) 0.54870(10)
O2 O 0.48331(18) 0.22536(18) 0.46027(10)
O3 O 0.21321(18) 0.15741(15) 0.55329(9)
O4 O 0.34091(18) 0.16958(15) 0.46020(9)
O5 O 0.5000 0.0408(2) 0.2500
C1 C 0.1538(2) 0.1094(2) 0.56676(12)
C2 C 0.1818(2) 0.0500(2) 0.60824(12)
H3 H 0.3526 0.0015 0.6901
C6 C 0.2691(3) 0.0540(2) 0.63484(14)
H4 H 0.3103 0.0943 0.6278
C7 C 0.4181(2) 0.1825(2) 0.44080(12)
C8 C 0.4376(2) 0.1460(2) 0.38932(12)
C9 C 0.4998(2) 0.1823(2) 0.35758(13)
H5 H 0.5290 0.2286 0.3686
C10 C 0.5196(2) 0.1514(2) 0.31006(13)
H6 H 0.5605 0.1770 0.2889
C11 C 0.4772(2) 0.0812(2) 0.29448(11)
C12 C 0.4138(3) 0.0455(2) 0.32490(13)
C13 C 0.3940(3) 0.0777(2) 0.37217(13)
H8 H 0.3509 0.0533 0.3926
Mn3 Mn 0.49228(3) 0.32302(3) 0.508127(18)
Mn6 Mn 0.49228(3) 0.67698(3) 0.008127(18)
Mn8 Mn 0.7500 0.2500 0.0000
Mn9 Mn 0.2500 0.7500 0.0000
O9 O 0.43047(18) 0.39580(18) 0.45130(10)
O10 O 0.51669(18) 0.22536(18) 0.03973(10)
O11 O 0.01669(18) 0.27464(18) 0.53973(10)
O12 O 0.28679(18) 0.34259(15) 0.44671(9)
O13 O 0.65909(18) 0.16958(15) 0.03980(9)
O14 O 0.15909(18) 0.33042(15) 0.53980(9)
N3 N 0.5998(3) 0.25712(19) 0.55945(13)
N4 N 0.63337(19) 0.38336(17) 0.50323(11)
C32 C 0.3462(2) 0.3906(2) 0.43324(12)
C33 C 0.3182(2) 0.4500(2) 0.39176(12)
C34 C 0.3785(3) 0.5110(2) 0.38084(13)
H21 H 0.4373 0.5136 0.3980
C35 C 0.3526(3) 0.5681(2) 0.34477(14)
H22 H 0.3930 0.6093 0.3382
C36 C 0.2051(3) 0.5020(3) 0.32817(15)
H23 H 0.1474 0.4985 0.3099
C37 C 0.2309(3) 0.4460(2) 0.36516(14)
H24 H 0.1897 0.4057 0.3722
C38 C 0.5819(2) 0.1825(2) 0.05920(12)
C39 C 0.5624(2) 0.1460(2) 0.11068(12)
C40 C 0.5002(2) 0.1823(2) 0.14242(13)
H25 H 0.4710 0.2286 0.1314
C41 C 0.4804(2) 0.1514(2) 0.18994(13)
H26 H 0.4395 0.1770 0.2111
C42 C 0.5228(2) 0.0812(2) 0.20552(11)
C43 C 0.5862(3) 0.0455(2) 0.17510(13)
C44 C 0.6060(3) 0.0777(2) 0.12783(13)
H28 H 0.6491 0.0533 0.1074
C45 C 0.5783(4) 0.1931(3) 0.5862(2)
H29 H 0.5165 0.1756 0.5853
C46 C 0.6466(7) 0.1526(4) 0.6152(3)
H30 H 0.6305 0.1084 0.6338
C47 C 0.7365(7) 0.1771(5) 0.6166(3)
H31 H 0.7822 0.1506 0.6366
C48 C 0.7602(5) 0.2413(4) 0.5883(3)
H32 H 0.8223 0.2576 0.5879
C49 C 0.6899(3) 0.2816(2) 0.56028(15)
C50 C 0.7079(2) 0.3535(2) 0.53093(15)
C51 C 0.7954(3) 0.3906(3) 0.53149(19)
H33 H 0.8470 0.3688 0.5497
C52 C 0.8043(3) 0.4599(4) 0.5047(2)
H34 H 0.8619 0.4854 0.5051
C53 C 0.7284(3) 0.4909(3) 0.47761(19)
H35 H 0.7333 0.5378 0.4597
C54 C 0.6447(3) 0.4512(2) 0.47740(15)
H36 H 0.5932 0.4720 0.4586
C55 C 0.2659(3) 0.5630(2) 0.31870(13)
O15 O 0.2354(2) 0.62203(19) 0.28416(10)
O16 O 0.36484(16) 0.71836(15) 0.05935(8)
O17 O 0.13516(16) 0.21836(15) 0.44065(8)
O18 O 0.36484(16) 0.28164(15) 0.55935(8)
O19 O 0.44677(18) 0.61041(16) 0.07459(9)
O20 O 0.05323(18) 0.11041(16) 0.42541(9)
O21 O 0.44677(18) 0.38959(16) 0.57459(9)
C56 C 0.2764(3) 0.6296(2) 0.23725(13)
C57 C 0.3340(3) 0.5718(2) 0.21744(14)
H37 H 0.3488 0.5268 0.2363
C58 C 0.3686(3) 0.5834(2) 0.16873(14)
H38 H 0.4078 0.5459 0.1553
C59 C 0.3459(2) 0.6496(2) 0.13981(12)
C60 C 0.2878(3) 0.7059(2) 0.15994(13)
H39 H 0.2718 0.7504 0.1407
C61 C 0.2534(3) 0.6957(2) 0.20884(13)
H40 H 0.2149 0.7337 0.2224
C62 C 0.3871(2) 0.6600(2) 0.08816(12)
Mn5 Mn 0.50772(3) 0.32302(3) 0.991873(18)
Mn8_2 Mn 0.7500 0.2500 1.0000
Mn9_2 Mn 0.2500 0.7500 1.0000
C3 C 0.1215(3) 0.9890(2) 0.61916(13)
H1 H 0.0627 0.9864 0.6020
C4 C 0.1474(3) 0.9319(2) 0.65523(14)
H2 H 0.1070 0.8907 0.6618
C5 C 0.2949(3) 0.9980(3) 0.67183(15)
H7 H 0.3842 0.9995 0.3137
C24 C 0.2341(3) 0.9370(2) 0.68130(13)
O6 O 0.2646(2) 0.87797(19) 0.71584(10)
O7 O 0.13516(16) 0.78164(15) 0.94065(8)
O8 O 0.05323(18) 0.88959(16) 0.92541(9)
C25 C 0.2236(3) 0.8704(2) 0.76275(13)
C26 C 0.1660(3) 0.9282(2) 0.78256(14)
H17 H 0.1512 0.9732 0.7637
C27 C 0.1314(3) 0.9166(2) 0.83127(14)
H18 H 0.0922 0.9541 0.8447
C28 C 0.1541(2) 0.8504(2) 0.86019(12)
C29 C 0.2122(3) 0.7941(2) 0.84006(13)
H19 H 0.2282 0.7496 0.8593
C30 C 0.2466(3) 0.8043(2) 0.79116(13)
H20 H 0.2851 0.7663 0.7776
C31 C 0.1129(2) 0.8400(2) 0.91184(12)
Mn4 Mn 0.00772(3) 0.82302(3) 0.991873(18)
H27 H 0.6158 0.9995 0.1863
N1 N 0.9002(3) 0.24288(19) 0.44055(13)
N2 N 0.86663(19) 0.11664(17) 0.49677(11)
C14 C 0.9217(4) 0.3069(3) 0.4138(2)
H9 H 0.9835 0.3244 0.4147
C15 C 0.8534(7) 0.3474(4) 0.3848(3)
H10 H 0.8695 0.3916 0.3662
C16 C 0.7635(7) 0.3229(5) 0.3834(3)
H11 H 0.7178 0.3494 0.3634
C17 C 0.7398(5) 0.2587(4) 0.4117(3)
H12 H 0.6777 0.2424 0.4121
C18 C 0.8101(3) 0.2184(2) 0.43972(15)
C19 C 0.7921(2) 0.1465(2) 0.46907(15)
C20 C 0.7046(3) 0.1094(3) 0.46851(19)
H13 H 0.6530 0.1312 0.4503
C21 C 0.6957(3) 0.0401(4) 0.4953(2)
H14 H 0.6381 0.0146 0.4949
C22 C 0.7716(3) 0.0091(3) 0.52239(19)
C23 C 0.8553(3) 0.0488(2) 0.52260(15)
H16 H 0.9068 0.0280 0.5414
C22_2 C 0.2284(3) 0.0091(3) 0.97761(19)
C23_2 C 0.1447(3) 0.0488(2) 0.97740(15)
H16_2 H 0.0932 0.0280 0.9586
Mn1_2 Mn 0.99228(3) 0.17698(3) 0.008127(18)
Mn6_2 Mn 0.50772(3) 0.67698(3) 0.491873(18)
Mn9_3 Mn 0.7500 0.7500 0.5000
O9_2 O 0.56953(18) 0.39580(18) 0.04870(10)
O12_2 O 0.71321(18) 0.34259(15) 0.05329(9)
C32_2 C 0.6538(2) 0.3906(2) 0.06676(12)
C33_2 C 0.6818(2) 0.4500(2) 0.10824(12)
C34_2 C 0.6215(3) 0.5110(2) 0.11916(13)
H21_2 H 0.5627 0.5136 0.1020
C35_2 C 0.6474(3) 0.5681(2) 0.15523(14)
H22_2 H 0.6070 0.6093 0.1618
C36_2 C 0.7949(3) 0.5020(3) 0.17183(15)
H23_2 H 0.8526 0.4985 0.1901
C37_2 C 0.7691(3) 0.4460(2) 0.13484(14)
H24_2 H 0.8103 0.4057 0.1278
C53_2 C 0.2716(3) 0.4909(3) 0.02239(19)
H35_2 H 0.2667 0.5378 0.0403
C54_2 C 0.3553(3) 0.4512(2) 0.02260(15)
H36_2 H 0.4068 0.4720 0.0414
C55_2 C 0.7341(3) 0.5630(2) 0.18130(13)
O15_2 O 0.7646(2) 0.62203(19) 0.21584(10)
O16_2 O 0.63516(16) 0.71836(15) 0.44065(8)
O17_2 O 0.86484(16) 0.21836(15) 0.05935(8)
O19_2 O 0.55323(18) 0.61041(16) 0.42541(9)
O20_2 O 0.94677(18) 0.11041(16) 0.07459(9)
C56_2 C 0.7236(3) 0.6296(2) 0.26275(13)
C57_2 C 0.6660(3) 0.5718(2) 0.28256(14)
H37_2 H 0.6512 0.5268 0.2637
C58_2 C 0.6314(3) 0.5834(2) 0.33127(14)
H38_2 H 0.5922 0.5459 0.3447
C59_2 C 0.6541(2) 0.6496(2) 0.36019(12)
C60_2 C 0.7122(3) 0.7059(2) 0.34006(13)
H39_2 H 0.7282 0.7504 0.3593
C61_2 C 0.7466(3) 0.6957(2) 0.29116(13)
H40_2 H 0.7851 0.7337 0.2776
C62_2 C 0.6129(2) 0.6600(2) 0.41184(12)
O1_2 O 0.93047(18) 0.10420(18) 0.95130(10)
O3_2 O 0.78679(18) 0.15741(15) 0.94671(9)
C1_2 C 0.8462(2) 0.1094(2) 0.93324(12)
C2_2 C 0.8182(2) 0.0500(2) 0.89176(12)
H3_2 H 0.6474 0.0015 0.8099
C6_2 C 0.7309(3) 0.0540(2) 0.86516(14)
H4_2 H 0.6897 0.0943 0.8722
O11_2 O 0.98331(18) 0.27464(18) 0.96027(10)
O14_2 O 0.84091(18) 0.33042(15) 0.96020(9)
N3_2 N 0.4002(3) 0.25712(19) 0.94055(13)
N4_2 N 0.36663(19) 0.38336(17) 0.99677(11)
C45_2 C 0.4217(4) 0.1931(3) 0.9138(2)
H29_2 H 0.4835 0.1756 0.9147
C46_2 C 0.3534(7) 0.1526(4) 0.8848(3)
H30_2 H 0.3695 0.1084 0.8662
C47_2 C 0.2635(7) 0.1771(5) 0.8834(3)
H31_2 H 0.2178 0.1506 0.8634
C48_2 C 0.2398(5) 0.2413(4) 0.9117(3)
H32_2 H 0.1777 0.2576 0.9121
C49_2 C 0.3101(3) 0.2816(2) 0.93972(15)
C50_2 C 0.2921(2) 0.3535(2) 0.96907(15)
C51_2 C 0.2046(3) 0.3906(3) 0.96851(19)
H33_2 H 0.1530 0.3688 0.9503
C52_2 C 0.1957(3) 0.4599(4) 0.9953(2)
H34_2 H 0.1381 0.4854 0.9949
O18_2 O 0.63516(16) 0.28164(15) 0.94065(8)
O21_2 O 0.55323(18) 0.38959(16) 0.92541(9)
C3_2 C 0.8785(3) 0.9890(2) 0.88084(13)
H1_2 H 0.9373 0.9864 0.8980
C4_2 C 0.8526(3) 0.9319(2) 0.84477(14)
H2_2 H 0.8930 0.8907 0.8382
C5_2 C 0.7051(3) 0.9980(3) 0.82817(15)
C24_2 C 0.7659(3) 0.9370(2) 0.81870(13)
O6_2 O 0.7354(2) 0.87797(19) 0.78416(10)
O7_2 O 0.86484(16) 0.78164(15) 0.55935(8)
O8_2 O 0.94677(18) 0.88959(16) 0.57459(9)
C25_2 C 0.7764(3) 0.8704(2) 0.73725(13)
C26_2 C 0.8340(3) 0.9282(2) 0.71744(14)
H17_2 H 0.8488 0.9732 0.7363
C27_2 C 0.8686(3) 0.9166(2) 0.66873(14)
H18_2 H 0.9078 0.9541 0.6553
C28_2 C 0.8459(2) 0.8504(2) 0.63981(12)
C29_2 C 0.7878(3) 0.7941(2) 0.65994(13)
H19_2 H 0.7718 0.7496 0.6407
C30_2 C 0.7534(3) 0.8043(2) 0.70884(13)
H20_2 H 0.7149 0.7663 0.7224
C31_2 C 0.8871(2) 0.8400(2) 0.58816(12)
Mn4_2 Mn 0.99228(3) 0.82302(3) 0.508127(18)
O5_2 O -0.0000 0.5408(2) 0.2500
H5_2 H 0.0290 0.7286 0.3686
C10_2 C 0.0196(2) 0.6514(2) 0.31006(13)
H6_2 H 0.0605 0.6770 0.2889
O10_2 O 0.01669(18) 0.72536(18) 0.03973(10)
O13_2 O 0.15909(18) 0.66958(15) 0.03980(9)
N3_3 N 0.0998(3) 0.75712(19) 0.55945(13)
N4_3 N 0.13337(19) 0.88336(17) 0.50323(11)
C38_2 C 0.0819(2) 0.6825(2) 0.05920(12)
C39_2 C 0.0624(2) 0.6460(2) 0.11068(12)
C40_2 C 0.0002(2) 0.6823(2) 0.14242(13)
C42_2 C 0.0228(2) 0.5812(2) 0.20552(11)
C43_2 C 0.0862(3) 0.5455(2) 0.17510(13)
H27_2 H 0.1158 0.4995 0.1863
C44_2 C 0.1060(3) 0.5777(2) 0.12783(13)
H28_2 H 0.1491 0.5533 0.1074
C45_3 C 0.0783(4) 0.6931(3) 0.5862(2)
H29_3 H 0.0165 0.6756 0.5853
C46_3 C 0.1466(7) 0.6526(4) 0.6152(3)
H30_3 H 0.1305 0.6084 0.6338
C47_3 C 0.2365(7) 0.6771(5) 0.6166(3)
H31_3 H 0.2822 0.6506 0.6366
C48_3 C 0.2602(5) 0.7413(4) 0.5883(3)
H32_3 H 0.3223 0.7576 0.5879
C49_3 C 0.1899(3) 0.7816(2) 0.56028(15)
C50_3 C 0.2079(2) 0.8535(2) 0.53093(15)
C51_3 C 0.2954(3) 0.8906(3) 0.53149(19)
H33_3 H 0.3470 0.8688 0.5497
C52_3 C 0.3043(3) 0.9599(4) 0.5047(2)
H34_3 H 0.3619 0.9854 0.5051
C53_3 C 0.2284(3) 0.9909(3) 0.47761(19)
C54_3 C 0.1447(3) 0.9512(2) 0.47740(15)
H36_3 H 0.0932 0.9720 0.4586
C34_3 C 0.8785(3) 0.0110(2) 0.38084(13)
H21_3 H 0.9373 0.0136 0.3980
C35_3 C 0.8526(3) 0.0681(2) 0.34477(14)
H22_3 H 0.8930 0.1093 0.3382
C36_3 C 0.7051(3) 0.0020(3) 0.32817(15)
C55_3 C 0.7659(3) 0.0630(2) 0.31870(13)
O15_3 O 0.7354(2) 0.12203(19) 0.28416(10)
C56_3 C 0.7764(3) 0.1296(2) 0.23725(13)
C57_3 C 0.8340(3) 0.0718(2) 0.21744(14)
H37_3 H 0.8488 0.0268 0.2363
C58_3 C 0.8686(3) 0.0834(2) 0.16873(14)
H38_3 H 0.9078 0.0459 0.1553
C59_3 C 0.8459(2) 0.1496(2) 0.13981(12)
C60_3 C 0.7878(3) 0.2059(2) 0.15994(13)
H39_3 H 0.7718 0.2504 0.1407
C61_3 C 0.7534(3) 0.1957(2) 0.20884(13)
H40_3 H 0.7149 0.2337 0.2224
C62_3 C 0.8871(2) 0.1600(2) 0.08816(12)
O1_3 O 0.56953(18) 0.60420(18) 0.54870(10)
O2_2 O 0.98331(18) 0.72536(18) 0.46027(10)
O3_3 O 0.71321(18) 0.65741(15) 0.55329(9)
O4_2 O 0.84091(18) 0.66958(15) 0.46020(9)
O5_3 O 1.0000 0.5408(2) 0.2500
N1_2 N 0.4002(3) 0.74288(19) 0.44055(13)
N2_2 N 0.36663(19) 0.61664(17) 0.49677(11)
C1_3 C 0.6538(2) 0.6094(2) 0.56676(12)
C2_3 C 0.6818(2) 0.5500(2) 0.60824(12)
C3_3 C 0.6215(3) 0.4890(2) 0.61916(13)
H1_3 H 0.5627 0.4864 0.6020
C4_3 C 0.6474(3) 0.4319(2) 0.65523(14)
H2_3 H 0.6070 0.3907 0.6618
C5_3 C 0.7949(3) 0.4980(3) 0.67183(15)
H3_3 H 0.8526 0.5015 0.6901
C6_3 C 0.7691(3) 0.5540(2) 0.63484(14)
H4_3 H 0.8103 0.5943 0.6278
C7_2 C 0.9181(2) 0.6825(2) 0.44080(12)
C8_2 C 0.9376(2) 0.6460(2) 0.38932(12)
C9_2 C 0.9998(2) 0.6823(2) 0.35758(13)
C11_2 C 0.9772(2) 0.5812(2) 0.29448(11)
C12_2 C 0.9138(3) 0.5455(2) 0.32490(13)
H7_2 H 0.8842 0.4995 0.3137
C13_2 C 0.8940(3) 0.5777(2) 0.37217(13)
H8_2 H 0.8509 0.5533 0.3926
C14_2 C 0.4217(4) 0.8069(3) 0.4138(2)
H9_2 H 0.4835 0.8244 0.4147
C15_2 C 0.3534(7) 0.8474(4) 0.3848(3)
H10_2 H 0.3695 0.8916 0.3662
C16_2 C 0.2635(7) 0.8229(5) 0.3834(3)
H11_2 H 0.2178 0.8494 0.3634
C17_2 C 0.2398(5) 0.7587(4) 0.4117(3)
H12_2 H 0.1777 0.7424 0.4121
C18_2 C 0.3101(3) 0.7184(2) 0.43972(15)
C19_2 C 0.2921(2) 0.6465(2) 0.46907(15)
C20_2 C 0.2046(3) 0.6094(3) 0.46851(19)
H13_2 H 0.1530 0.6312 0.4503
C21_2 C 0.1957(3) 0.5401(4) 0.4953(2)
H14_2 H 0.1381 0.5146 0.4949
C22_3 C 0.2716(3) 0.5091(3) 0.52239(19)
H15 H 0.2667 0.4622 0.5403
C23_3 C 0.3553(3) 0.5488(2) 0.52260(15)
H16_3 H 0.4068 0.5280 0.5414
C24_3 C 0.7341(3) 0.4370(2) 0.68130(13)
O6_3 O 0.7646(2) 0.37797(19) 0.71584(10)
C25_3 C 0.7236(3) 0.3704(2) 0.76275(13)
C26_3 C 0.6660(3) 0.4282(2) 0.78256(14)
H17_3 H 0.6512 0.4732 0.7637
C27_3 C 0.6314(3) 0.4166(2) 0.83127(14)
H18_3 H 0.5922 0.4541 0.8447
C28_3 C 0.6541(2) 0.3504(2) 0.86019(12)
C29_3 C 0.7122(3) 0.2941(2) 0.84006(13)
H19_3 H 0.7282 0.2496 0.8593
C30_3 C 0.7466(3) 0.3043(2) 0.79116(13)
H20_3 H 0.7851 0.2663 0.7776
C31_3 C 0.6129(2) 0.3400(2) 0.91184(12)
O9_3 O 0.93047(18) 0.89580(18) 0.45130(10)
O11_3 O 0.51669(18) 0.77464(18) 0.53973(10)
O12_3 O 0.78679(18) 0.84259(15) 0.44671(9)
O14_3 O 0.65909(18) 0.83042(15) 0.53980(9)
C32_3 C 0.8462(2) 0.8906(2) 0.43324(12)
C33_3 C 0.8182(2) 0.9500(2) 0.39176(12)
H23_3 H 0.6474 0.9985 0.3099
C37_3 C 0.7309(3) 0.9460(2) 0.36516(14)
H24_3 H 0.6897 0.9057 0.3722
H25_2 H 0.9710 0.7286 0.1314
C41_2 C 0.9804(2) 0.6514(2) 0.18994(13)
H26_2 H 0.9395 0.6770 0.2111
C34_4 C 0.1215(3) 0.0110(2) 0.11916(13)
H21_4 H 0.0627 0.0136 0.1020
C35_4 C 0.1474(3) 0.0681(2) 0.15523(14)
H22_4 H 0.1070 0.1093 0.1618
C36_4 C 0.2949(3) 0.0020(3) 0.17183(15)
C55_4 C 0.2341(3) 0.0630(2) 0.18130(13)
O15_4 O 0.2646(2) 0.12203(19) 0.21584(10)
C56_4 C 0.2236(3) 0.1296(2) 0.26275(13)
C57_4 C 0.1660(3) 0.0718(2) 0.28256(14)
H37_4 H 0.1512 0.0268 0.2637
C58_4 C 0.1314(3) 0.0834(2) 0.33127(14)
H38_4 H 0.0922 0.0459 0.3447
C59_4 C 0.1541(2) 0.1496(2) 0.36019(12)
C60_4 C 0.2122(3) 0.2059(2) 0.34006(13)
H39_4 H 0.2282 0.2504 0.3593
C61_4 C 0.2466(3) 0.1957(2) 0.29116(13)
H40_4 H 0.2851 0.2337 0.2776
C62_4 C 0.1129(2) 0.1600(2) 0.41184(12)
N1_3 N 0.5998(3) 0.74288(19) 0.05945(13)
N2_3 N 0.63337(19) 0.61664(17) 0.00323(11)
C14_3 C 0.5783(4) 0.8069(3) 0.0862(2)
H9_3 H 0.5165 0.8244 0.0853
C15_3 C 0.6466(7) 0.8474(4) 0.1152(3)
H10_3 H 0.6305 0.8916 0.1338
C16_3 C 0.7365(7) 0.8229(5) 0.1166(3)
H11_3 H 0.7822 0.8494 0.1366
C17_3 C 0.7602(5) 0.7587(4) 0.0883(3)
H12_3 H 0.8223 0.7424 0.0879
C18_3 C 0.6899(3) 0.7184(2) 0.06028(15)
C19_3 C 0.7079(2) 0.6465(2) 0.03093(15)
C20_3 C 0.7954(3) 0.6094(3) 0.03149(19)
H13_3 H 0.8470 0.6312 0.0497
C21_3 C 0.8043(3) 0.5401(4) 0.0047(2)
H14_3 H 0.8619 0.5146 0.0051
O9_4 O 0.06953(18) 0.89580(18) 0.04870(10)
O12_4 O 0.21321(18) 0.84259(15) 0.05329(9)
C32_4 C 0.1538(2) 0.8906(2) 0.06676(12)
C33_4 C 0.1818(2) 0.9500(2) 0.10824(12)
H23_4 H 0.3526 0.9985 0.1901
C37_4 C 0.2691(3) 0.9460(2) 0.13484(14)
H24_4 H 0.3103 0.9057 0.1278
O1_4 O 0.43047(18) 0.60420(18) 0.95130(10)
O3_4 O 0.28679(18) 0.65741(15) 0.94671(9)
C1_4 C 0.3462(2) 0.6094(2) 0.93324(12)
C2_4 C 0.3182(2) 0.5500(2) 0.89176(12)
C3_4 C 0.3785(3) 0.4890(2) 0.88084(13)
H1_4 H 0.4373 0.4864 0.8980
C4_4 C 0.3526(3) 0.4319(2) 0.84477(14)
H2_4 H 0.3930 0.3907 0.8382
C5_4 C 0.2051(3) 0.4980(3) 0.82817(15)
H3_4 H 0.1474 0.5015 0.8099
C6_4 C 0.2309(3) 0.5540(2) 0.86516(14)
H4_4 H 0.1897 0.5943 0.8722
C22_4 C 0.7284(3) 0.5091(3) 0.97761(19)
H15_2 H 0.7333 0.4622 0.9597
C23_4 C 0.6447(3) 0.5488(2) 0.97740(15)
H16_4 H 0.5932 0.5280 0.9586
C24_4 C 0.2659(3) 0.4370(2) 0.81870(13)
O6_4 O 0.2354(2) 0.37797(19) 0.78416(10)
C25_4 C 0.2764(3) 0.3704(2) 0.73725(13)
C26_4 C 0.3340(3) 0.4282(2) 0.71744(14)
H17_4 H 0.3488 0.4732 0.7363
C27_4 C 0.3686(3) 0.4166(2) 0.66873(14)
H18_4 H 0.4078 0.4541 0.6553
C28_4 C 0.3459(2) 0.3504(2) 0.63981(12)
C29_4 C 0.2878(3) 0.2941(2) 0.65994(13)
H19_4 H 0.2718 0.2496 0.6407
C30_4 C 0.2534(3) 0.3043(2) 0.70884(13)
H20_4 H 0.2149 0.2663 0.7224
C31_4 C 0.3871(2) 0.3400(2) 0.58816(12)
O11_4 O 0.48331(18) 0.77464(18) 0.96027(10)
O14_4 O 0.34091(18) 0.83042(15) 0.96020(9)
C53_4 C 0.7716(3) 0.9909(3) 0.02239(19)
C54_4 C 0.8553(3) 0.9512(2) 0.02260(15)
H36_4 H 0.9068 0.9720 0.0414
H7_3 H 0.6158 0.0005 0.6863
H27_3 H 0.3842 0.0005 0.8137
O5_4 O 0.5000 0.9592(2) 0.7500
C7_3 C 0.5819(2) 0.8175(2) 0.55920(12)
C8_3 C 0.5624(2) 0.8540(2) 0.61068(12)
C9_3 C 0.5002(2) 0.8177(2) 0.64242(13)
H5_3 H 0.4710 0.7714 0.6314
C10_3 C 0.4804(2) 0.8486(2) 0.68994(13)
H6_3 H 0.4395 0.8230 0.7111
C11_3 C 0.5228(2) 0.9188(2) 0.70552(11)
C12_3 C 0.5862(3) 0.9545(2) 0.67510(13)
C13_3 C 0.6060(3) 0.9223(2) 0.62783(13)
H8_3 H 0.6491 0.9467 0.6074
C38_3 C 0.4181(2) 0.8175(2) 0.94080(12)
C39_3 C 0.4376(2) 0.8540(2) 0.88932(12)
C40_3 C 0.4998(2) 0.8177(2) 0.85758(13)
H25_3 H 0.5290 0.7714 0.8686
C41_3 C 0.5196(2) 0.8486(2) 0.81006(13)
H26_3 H 0.5605 0.8230 0.7889
C42_3 C 0.4772(2) 0.9188(2) 0.79448(11)
C43_3 C 0.4138(3) 0.9545(2) 0.82490(13)
C44_3 C 0.3940(3) 0.9223(2) 0.87217(13)
H28_3 H 0.3509 0.9467 0.8926
O5_5 O 0.0000 0.4592(2) 0.7500
C7_4 C 0.0819(2) 0.3175(2) 0.55920(12)
C8_4 C 0.0624(2) 0.3540(2) 0.61068(12)
C9_4 C 0.0002(2) 0.3177(2) 0.64242(13)
C11_4 C 0.0228(2) 0.4188(2) 0.70552(11)
C12_4 C 0.0862(3) 0.4545(2) 0.67510(13)
H7_4 H 0.1158 0.5005 0.6863
C13_4 C 0.1060(3) 0.4223(2) 0.62783(13)
H8_4 H 0.1491 0.4467 0.6074
H25_4 H 0.0290 0.2714 0.8686
C41_4 C 0.0196(2) 0.3486(2) 0.81006(13)
H26_4 H 0.0605 0.3230 0.7889
O5_6 O 1.0000 0.4592(2) 0.7500
H5_4 H 0.9710 0.2714 0.6314
C10_4 C 0.9804(2) 0.3486(2) 0.68994(13)
H6_4 H 0.9395 0.3230 0.7111
C38_4 C 0.9181(2) 0.3175(2) 0.94080(12)
C39_4 C 0.9376(2) 0.3540(2) 0.88932(12)
C40_4 C 0.9998(2) 0.3177(2) 0.85758(13)
C42_4 C 0.9772(2) 0.4188(2) 0.79448(11)
C43_4 C 0.9138(3) 0.4545(2) 0.82490(13)
H27_4 H 0.8842 0.5005 0.8137
C44_4 C 0.8940(3) 0.4223(2) 0.87217(13)
H28_4 H 0.8509 0.4467 0.8926
H15_3 H 0.7667 0.9622 0.5403
N1_4 N 0.0998(3) 0.24288(19) 0.05945(13)
N2_4 N 0.13337(19) 0.11664(17) 0.00323(11)
C14_4 C 0.0783(4) 0.3069(3) 0.0862(2)
H9_4 H 0.0165 0.3244 0.0853
C15_4 C 0.1466(7) 0.3474(4) 0.1152(3)
H10_4 H 0.1305 0.3916 0.1338
C16_4 C 0.2365(7) 0.3229(5) 0.1166(3)
H11_4 H 0.2822 0.3494 0.1366
C17_4 C 0.2602(5) 0.2587(4) 0.0883(3)
H12_4 H 0.3223 0.2424 0.0879
C18_4 C 0.1899(3) 0.2184(2) 0.06028(15)
C19_4 C 0.2079(2) 0.1465(2) 0.03093(15)
C20_4 C 0.2954(3) 0.1094(3) 0.03149(19)
H13_4 H 0.3470 0.1312 0.0497
C21_4 C 0.3043(3) 0.0401(4) 0.0047(2)
H14_4 H 0.3619 0.0146 0.0051
H15_4 H 0.2333 0.9622 0.9597
H35_3 H 0.2333 0.0378 0.4597
H35_4 H 0.7667 0.0378 0.0403
N3_4 N 0.9002(3) 0.75712(19) 0.94055(13)
N4_4 N 0.86663(19) 0.88336(17) 0.99677(11)
C45_4 C 0.9217(4) 0.6931(3) 0.9138(2)
H29_4 H 0.9835 0.6756 0.9147
C46_4 C 0.8534(7) 0.6526(4) 0.8848(3)
H30_4 H 0.8695 0.6084 0.8662
C47_4 C 0.7635(7) 0.6771(5) 0.8834(3)
H31_4 H 0.7178 0.6506 0.8634
C48_4 C 0.7398(5) 0.7413(4) 0.9117(3)
H32_4 H 0.6777 0.7576 0.9121
C49_4 C 0.8101(3) 0.7816(2) 0.93972(15)
C50_4 C 0.7921(2) 0.8535(2) 0.96907(15)
C51_4 C 0.7046(3) 0.8906(3) 0.96851(19)
H33_4 H 0.6530 0.8688 0.9503
C52_4 C 0.6957(3) 0.9599(4) 0.9953(2)
H34_4 H 0.6381 0.9854 0.9949
loop_
_geom_bond_atom_site_label_1
_geom_bond_atom_site_label_2
_geom_bond_site_symmetry_1
_geom_bond_site_symmetry_2
Mn1 O1 1_555 1_555
Mn2 O3 1_555 1_555
O1 C1 1_555 1_555
O2 C7 1_555 1_555
O3 C1 1_555 1_555
O4 Mn2 1_555 1_555
O5 C11 1_555 1_555
C1 C2 1_555 1_555
C6 C2 1_555 1_555
H4 C6 1_555 1_555
C7 O4 1_555 1_555
C8 C7 1_555 1_555
C9 C8 1_555 1_555
H5 C9 1_555 1_555
C10 C9 1_555 1_555
H6 C10 1_555 1_555
C11 C10 1_555 1_555
C12 C11 1_555 1_555
C13 C8 1_555 1_555
H8 C13 1_555 1_555
Mn3 O2 1_555 1_555
Mn6 O16 1_555 1_555
Mn8 O13 1_555 1_555
Mn9 O16 1_555 1_555
O9 Mn3 1_555 1_555
O10 C38 1_555 1_555
O11 Mn1 1_555 1_555
O12 Mn2 1_555 1_555
O13 C38 1_555 1_555
O14 Mn2 1_555 1_555
N3 Mn3 1_555 1_555
N4 Mn3 1_555 1_555
C32 O9 1_555 1_555
C33 C32 1_555 1_555
C34 C33 1_555 1_555
H21 C34 1_555 1_555
C35 C34 1_555 1_555
H22 C35 1_555 1_555
C36 H23 1_555 1_555
C37 C33 1_555 1_555
H24 C37 1_555 1_555
C38 C39 1_555 1_555
C39 C40 1_555 1_555
C40 H25 1_555 1_555
C41 C40 1_555 1_555
H26 C41 1_555 1_555
C42 O5 1_555 1_555
C43 C42 1_555 1_555
C44 C39 1_555 1_555
H28 C44 1_555 1_555
C45 N3 1_555 1_555
H29 C45 1_555 1_555
C46 C45 1_555 1_555
H30 C46 1_555 1_555
C47 C46 1_555 1_555
H31 C47 1_555 1_555
C48 C47 1_555 1_555
H32 C48 1_555 1_555
C49 N3 1_555 1_555
C50 N4 1_555 1_555
C51 C50 1_555 1_555
H33 C51 1_555 1_555
C52 C51 1_555 1_555
H34 C52 1_555 1_555
C53 C52 1_555 1_555
H35 C53 1_555 1_555
C54 N4 1_555 1_555
H36 C54 1_555 1_555
C55 C35 1_555 1_555
O15 C55 1_555 1_555
O16 C62 1_555 1_555
O17 Mn1 1_555 1_555
O18 Mn2 1_555 1_555
O19 Mn6 1_555 1_555
O20 Mn1 1_555 1_555
O21 Mn3 1_555 1_555
C56 O15 1_555 1_555
C57 C56 1_555 1_555
H37 C57 1_555 1_555
C58 C57 1_555 1_555
H38 C58 1_555 1_555
C59 C58 1_555 1_555
C60 C59 1_555 1_555
H39 C60 1_555 1_555
C61 C56 1_555 1_555
H40 C61 1_555 1_555
C62 O19 1_555 1_555
Mn2 O17 1_555 1_555
C12 C13 1_555 1_555
Mn3 O18 1_555 1_555
O12 C32 1_555 1_555
C36 C37 1_555 1_555
C36 C55 1_555 1_555
C41 C42 1_555 1_555
C43 C44 1_555 1_555
C48 C49 1_555 1_555
C49 C50 1_555 1_555
C53 C54 1_555 1_555
C59 C62 1_555 1_555
C60 C61 1_555 1_555
C3 H1 1_555 1_555
C4 C3 1_555 1_555
H2 C4 1_555 1_555
C24 C4 1_555 1_555
O6 C24 1_555 1_555
O7 C31 1_555 1_555
O8 C31 1_555 1_555
C25 O6 1_555 1_555
C26 C25 1_555 1_555
H17 C26 1_555 1_555
C27 C26 1_555 1_555
H18 C27 1_555 1_555
C28 C27 1_555 1_555
C29 C28 1_555 1_555
H19 C29 1_555 1_555
C30 C25 1_555 1_555
H20 C30 1_555 1_555
C31 C28 1_555 1_555
Mn4 O7 1_555 1_555
Mn9_2 O7 1_555 1_555
C5 C24 1_555 1_555
O8 Mn4 1_555 1_555
C29 C30 1_555 1_555
C14 N1 1_555 1_555
H9 C14 1_555 1_555
C15 C14 1_555 1_555
H10 C15 1_555 1_555
C16 C15 1_555 1_555
H11 C16 1_555 1_555
C17 C16 1_555 1_555
H12 C17 1_555 1_555
C18 N1 1_555 1_555
C19 N2 1_555 1_555
C20 C19 1_555 1_555
H13 C20 1_555 1_555
C21 C20 1_555 1_555
H14 C21 1_555 1_555
C22 C21 1_555 1_555
C23 N2 1_555 1_555
H16 C23 1_555 1_555
C17 C18 1_555 1_555
C18 C19 1_555 1_555
C22 C23 1_555 1_555
H16_2 C23_2 1_555 1_555
C22_2 C23_2 1_555 1_555
Mn6_2 O16_2 1_555 1_555
Mn9_3 O16_2 1_555 1_555
O12_2 Mn8 1_555 1_555
C32_2 O9_2 1_555 1_555
C33_2 C32_2 1_555 1_555
C34_2 C33_2 1_555 1_555
H21_2 C34_2 1_555 1_555
C35_2 C34_2 1_555 1_555
H22_2 C35_2 1_555 1_555
C36_2 H23_2 1_555 1_555
C37_2 C33_2 1_555 1_555
H24_2 C37_2 1_555 1_555
H35_2 C53_2 1_555 1_555
H36_2 C54_2 1_555 1_555
C55_2 C35_2 1_555 1_555
O15_2 C55_2 1_555 1_555
O16_2 C62_2 1_555 1_555
O17_2 Mn1_2 1_555 1_555
O19_2 Mn6_2 1_555 1_555
O20_2 Mn1_2 1_555 1_555
C56_2 O15_2 1_555 1_555
C57_2 C56_2 1_555 1_555
H37_2 C57_2 1_555 1_555
C58_2 C57_2 1_555 1_555
H38_2 C58_2 1_555 1_555
C59_2 C58_2 1_555 1_555
C60_2 C59_2 1_555 1_555
H39_2 C60_2 1_555 1_555
C61_2 C56_2 1_555 1_555
H40_2 C61_2 1_555 1_555
C62_2 O19_2 1_555 1_555
Mn8 O17_2 1_555 1_555
O12_2 C32_2 1_555 1_555
C36_2 C37_2 1_555 1_555
C36_2 C55_2 1_555 1_555
C53_2 C54_2 1_555 1_555
C59_2 C62_2 1_555 1_555
C60_2 C61_2 1_555 1_555
Mn8_2 O3_2 1_555 1_555
O1_2 C1_2 1_555 1_555
O3_2 C1_2 1_555 1_555
C1_2 C2_2 1_555 1_555
C6_2 C2_2 1_555 1_555
H4_2 C6_2 1_555 1_555
O14_2 Mn8_2 1_555 1_555
N3_2 Mn5 1_555 1_555
N4_2 Mn5 1_555 1_555
C45_2 N3_2 1_555 1_555
H29_2 C45_2 1_555 1_555
C46_2 C45_2 1_555 1_555
H30_2 C46_2 1_555 1_555
C47_2 C46_2 1_555 1_555
H31_2 C47_2 1_555 1_555
C48_2 C47_2 1_555 1_555
H32_2 C48_2 1_555 1_555
C49_2 N3_2 1_555 1_555
C50_2 N4_2 1_555 1_555
C51_2 C50_2 1_555 1_555
H33_2 C51_2 1_555 1_555
C52_2 C51_2 1_555 1_555
H34_2 C52_2 1_555 1_555
O18_2 Mn8_2 1_555 1_555
O21_2 Mn5 1_555 1_555
Mn5 O18_2 1_555 1_555
C48_2 C49_2 1_555 1_555
C49_2 C50_2 1_555 1_555
C3_2 H1_2 1_555 1_555
C4_2 C3_2 1_555 1_555
H2_2 C4_2 1_555 1_555
C24_2 C4_2 1_555 1_555
O6_2 C24_2 1_555 1_555
O7_2 C31_2 1_555 1_555
O8_2 C31_2 1_555 1_555
C25_2 O6_2 1_555 1_555
C26_2 C25_2 1_555 1_555
H17_2 C26_2 1_555 1_555
C27_2 C26_2 1_555 1_555
H18_2 C27_2 1_555 1_555
C28_2 C27_2 1_555 1_555
C29_2 C28_2 1_555 1_555
H19_2 C29_2 1_555 1_555
C30_2 C25_2 1_555 1_555
H20_2 C30_2 1_555 1_555
C31_2 C28_2 1_555 1_555
Mn4_2 O7_2 1_555 1_555
Mn9_3 O7_2 1_555 1_555
C5_2 C24_2 1_555 1_555
O8_2 Mn4_2 1_555 1_555
C29_2 C30_2 1_555 1_555
H6_2 C10_2 1_555 1_555
Mn9 O13_2 1_555 1_555
O10_2 C38_2 1_555 1_555
O13_2 C38_2 1_555 1_555
C38_2 C39_2 1_555 1_555
C39_2 C40_2 1_555 1_555
C42_2 O5_2 1_555 1_555
C43_2 C42_2 1_555 1_555
H27_2 C43_2 1_555 1_555
C44_2 C39_2 1_555 1_555
H28_2 C44_2 1_555 1_555
C45_3 N3_3 1_555 1_555
H29_3 C45_3 1_555 1_555
C46_3 C45_3 1_555 1_555
H30_3 C46_3 1_555 1_555
C47_3 C46_3 1_555 1_555
H31_3 C47_3 1_555 1_555
C48_3 C47_3 1_555 1_555
H32_3 C48_3 1_555 1_555
C49_3 N3_3 1_555 1_555
C50_3 N4_3 1_555 1_555
C51_3 C50_3 1_555 1_555
H33_3 C51_3 1_555 1_555
C52_3 C51_3 1_555 1_555
H34_3 C52_3 1_555 1_555
C53_3 C52_3 1_555 1_555
C54_3 N4_3 1_555 1_555
H36_3 C54_3 1_555 1_555
C43_2 C44_2 1_555 1_555
C48_3 C49_3 1_555 1_555
C49_3 C50_3 1_555 1_555
C53_3 C54_3 1_555 1_555
H21_3 C34_3 1_555 1_555
C35_3 C34_3 1_555 1_555
H22_3 C35_3 1_555 1_555
C55_3 C35_3 1_555 1_555
O15_3 C55_3 1_555 1_555
O17_2 C62_3 1_555 1_555
C56_3 O15_3 1_555 1_555
C57_3 C56_3 1_555 1_555
H37_3 C57_3 1_555 1_555
C58_3 C57_3 1_555 1_555
H38_3 C58_3 1_555 1_555
C59_3 C58_3 1_555 1_555
C60_3 C59_3 1_555 1_555
H39_3 C60_3 1_555 1_555
C61_3 C56_3 1_555 1_555
H40_3 C61_3 1_555 1_555
C62_3 O20_2 1_555 1_555
C36_3 C55_3 1_555 1_555
C59_3 C62_3 1_555 1_555
C60_3 C61_3 1_555 1_555
Mn6_2 O1_3 1_555 1_555
Mn9_3 O3_3 1_555 1_555
O1_3 C1_3 1_555 1_555
O2_2 C7_2 1_555 1_555
O3_3 C1_3 1_555 1_555
O4_2 Mn9_3 1_555 1_555
O5_3 C11_2 1_555 1_555
N1_2 Mn6_2 1_555 1_555
N2_2 Mn6_2 1_555 1_555
C1_3 C2_3 1_555 1_555
C2_3 C3_3 1_555 1_555
C3_3 H1_3 1_555 1_555
C4_3 C3_3 1_555 1_555
H2_3 C4_3 1_555 1_555
C5_3 H3_3 1_555 1_555
C6_3 C2_3 1_555 1_555
H4_3 C6_3 1_555 1_555
C7_2 O4_2 1_555 1_555
C8_2 C7_2 1_555 1_555
C9_2 C8_2 1_555 1_555
C12_2 C11_2 1_555 1_555
H7_2 C12_2 1_555 1_555
C13_2 C8_2 1_555 1_555
H8_2 C13_2 1_555 1_555
C14_2 N1_2 1_555 1_555
H9_2 C14_2 1_555 1_555
C15_2 C14_2 1_555 1_555
H10_2 C15_2 1_555 1_555
C16_2 C15_2 1_555 1_555
H11_2 C16_2 1_555 1_555
C17_2 C16_2 1_555 1_555
H12_2 C17_2 1_555 1_555
C18_2 N1_2 1_555 1_555
C19_2 N2_2 1_555 1_555
C20_2 C19_2 1_555 1_555
H13_2 C20_2 1_555 1_555
C21_2 C20_2 1_555 1_555
H14_2 C21_2 1_555 1_555
C22_3 C21_2 1_555 1_555
H15 C22_3 1_555 1_555
C23_3 N2_2 1_555 1_555
H16_3 C23_3 1_555 1_555
C24_3 C4_3 1_555 1_555
O6_3 C24_3 1_555 1_555
O18_2 C31_3 1_555 1_555
O21_2 C31_3 1_555 1_555
C25_3 O6_3 1_555 1_555
C26_3 C25_3 1_555 1_555
H17_3 C26_3 1_555 1_555
C27_3 C26_3 1_555 1_555
H18_3 C27_3 1_555 1_555
C28_3 C27_3 1_555 1_555
C29_3 C28_3 1_555 1_555
H19_3 C29_3 1_555 1_555
C30_3 C25_3 1_555 1_555
H20_3 C30_3 1_555 1_555
C31_3 C28_3 1_555 1_555
Mn4_2 O2_2 1_555 1_555
O9_3 Mn4_2 1_555 1_555
O11_3 Mn6_2 1_555 1_555
O12_3 Mn9_3 1_555 1_555
O14_3 Mn9_3 1_555 1_555
C32_3 O9_3 1_555 1_555
C33_3 C32_3 1_555 1_555
C37_3 C33_3 1_555 1_555
H24_3 C37_3 1_555 1_555
H26_2 C41_2 1_555 1_555
C5_3 C6_3 1_555 1_555
C5_3 C24_3 1_555 1_555
C12_2 C13_2 1_555 1_555
C17_2 C18_2 1_555 1_555
C18_2 C19_2 1_555 1_555
C22_3 C23_3 1_555 1_555
C29_3 C30_3 1_555 1_555
O12_3 C32_3 1_555 1_555
H21_4 C34_4 1_555 1_555
C35_4 C34_4 1_555 1_555
H22_4 C35_4 1_555 1_555
C55_4 C35_4 1_555 1_555
O15_4 C55_4 1_555 1_555
O17 C62_4 1_555 1_555
C56_4 O15_4 1_555 1_555
C57_4 C56_4 1_555 1_555
H37_4 C57_4 1_555 1_555
C58_4 C57_4 1_555 1_555
H38_4 C58_4 1_555 1_555
C59_4 C58_4 1_555 1_555
C60_4 C59_4 1_555 1_555
H39_4 C60_4 1_555 1_555
C61_4 C56_4 1_555 1_555
H40_4 C61_4 1_555 1_555
C62_4 O20 1_555 1_555
C36_4 C55_4 1_555 1_555
C59_4 C62_4 1_555 1_555
C60_4 C61_4 1_555 1_555
N1_3 Mn6 1_555 1_555
N2_3 Mn6 1_555 1_555
C14_3 N1_3 1_555 1_555
H9_3 C14_3 1_555 1_555
C15_3 C14_3 1_555 1_555
H10_3 C15_3 1_555 1_555
C16_3 C15_3 1_555 1_555
H11_3 C16_3 1_555 1_555
C17_3 C16_3 1_555 1_555
H12_3 C17_3 1_555 1_555
C18_3 N1_3 1_555 1_555
C19_3 N2_3 1_555 1_555
C20_3 C19_3 1_555 1_555
H13_3 C20_3 1_555 1_555
C21_3 C20_3 1_555 1_555
H14_3 C21_3 1_555 1_555
O12_4 Mn9 1_555 1_555
C32_4 O9_4 1_555 1_555
C33_4 C32_4 1_555 1_555
C37_4 C33_4 1_555 1_555
H24_4 C37_4 1_555 1_555
C17_3 C18_3 1_555 1_555
C18_3 C19_3 1_555 1_555
O12_4 C32_4 1_555 1_555
Mn9_2 O3_4 1_555 1_555
O1_4 C1_4 1_555 1_555
O3_4 C1_4 1_555 1_555
C1_4 C2_4 1_555 1_555
C2_4 C3_4 1_555 1_555
C3_4 H1_4 1_555 1_555
C4_4 C3_4 1_555 1_555
H2_4 C4_4 1_555 1_555
C5_4 H3_4 1_555 1_555
C6_4 C2_4 1_555 1_555
H4_4 C6_4 1_555 1_555
H15_2 C22_4 1_555 1_555
H16_4 C23_4 1_555 1_555
C24_4 C4_4 1_555 1_555
O6_4 C24_4 1_555 1_555
O18 C31_4 1_555 1_555
O21 C31_4 1_555 1_555
C25_4 O6_4 1_555 1_555
C26_4 C25_4 1_555 1_555
H17_4 C26_4 1_555 1_555
C27_4 C26_4 1_555 1_555
H18_4 C27_4 1_555 1_555
C28_4 C27_4 1_555 1_555
C29_4 C28_4 1_555 1_555
H19_4 C29_4 1_555 1_555
C30_4 C25_4 1_555 1_555
H20_4 C30_4 1_555 1_555
C31_4 C28_4 1_555 1_555
O14_4 Mn9_2 1_555 1_555
C5_4 C6_4 1_555 1_555
C5_4 C24_4 1_555 1_555
C22_4 C23_4 1_555 1_555
C29_4 C30_4 1_555 1_555
H36_4 C54_4 1_555 1_555
C53_4 C54_4 1_555 1_555
O11_3 C7_3 1_555 1_555
O5_4 C11_3 1_555 1_555
C7_3 O14_3 1_555 1_555
C8_3 C7_3 1_555 1_555
C9_3 C8_3 1_555 1_555
H5_3 C9_3 1_555 1_555
C10_3 C9_3 1_555 1_555
H6_3 C10_3 1_555 1_555
C11_3 C10_3 1_555 1_555
C12_3 C11_3 1_555 1_555
C13_3 C8_3 1_555 1_555
H8_3 C13_3 1_555 1_555
O11_4 C38_3 1_555 1_555
O14_4 C38_3 1_555 1_555
C38_3 C39_3 1_555 1_555
C39_3 C40_3 1_555 1_555
C40_3 H25_3 1_555 1_555
C41_3 C40_3 1_555 1_555
H26_3 C41_3 1_555 1_555
C42_3 O5_4 1_555 1_555
C43_3 C42_3 1_555 1_555
C44_3 C39_3 1_555 1_555
H28_3 C44_3 1_555 1_555
C12_3 C13_3 1_555 1_555
C41_3 C42_3 1_555 1_555
C43_3 C44_3 1_555 1_555
O11 C7_4 1_555 1_555
O5_5 C11_4 1_555 1_555
C7_4 O14 1_555 1_555
C8_4 C7_4 1_555 1_555
C9_4 C8_4 1_555 1_555
C12_4 C11_4 1_555 1_555
H7_4 C12_4 1_555 1_555
C13_4 C8_4 1_555 1_555
H8_4 C13_4 1_555 1_555
H26_4 C41_4 1_555 1_555
C12_4 C13_4 1_555 1_555
H6_4 C10_4 1_555 1_555
O11_2 C38_4 1_555 1_555
O14_2 C38_4 1_555 1_555
C38_4 C39_4 1_555 1_555
C39_4 C40_4 1_555 1_555
C42_4 O5_6 1_555 1_555
C43_4 C42_4 1_555 1_555
H27_4 C43_4 1_555 1_555
C44_4 C39_4 1_555 1_555
H28_4 C44_4 1_555 1_555
C43_4 C44_4 1_555 1_555
C14_4 N1_4 1_555 1_555
H9_4 C14_4 1_555 1_555
C15_4 C14_4 1_555 1_555
H10_4 C15_4 1_555 1_555
C16_4 C15_4 1_555 1_555
H11_4 C16_4 1_555 1_555
C17_4 C16_4 1_555 1_555
H12_4 C17_4 1_555 1_555
C18_4 N1_4 1_555 1_555
C19_4 N2_4 1_555 1_555
C20_4 C19_4 1_555 1_555
H13_4 C20_4 1_555 1_555
C21_4 C20_4 1_555 1_555
H14_4 C21_4 1_555 1_555
C17_4 C18_4 1_555 1_555
C18_4 C19_4 1_555 1_555
C45_4 N3_4 1_555 1_555
H29_4 C45_4 1_555 1_555
C46_4 C45_4 1_555 1_555
H30_4 C46_4 1_555 1_555
C47_4 C46_4 1_555 1_555
H31_4 C47_4 1_555 1_555
C48_4 C47_4 1_555 1_555
H32_4 C48_4 1_555 1_555
C49_4 N3_4 1_555 1_555
C50_4 N4_4 1_555 1_555
C51_4 C50_4 1_555 1_555
H33_4 C51_4 1_555 1_555
C52_4 C51_4 1_555 1_555
H34_4 C52_4 1_555 1_555
C48_4 C49_4 1_555 1_555
C49_4 C50_4 1_555 1_555

#END
