
###############################################################################
#
# This file contains modified crystal structure data generated from the
# MOF subset of the Cambridge Structural Database (CSD) v543 
# hosted by the Cambridge Crystallographic Data Centre (CCDC).
#
# This work is licensed under the Creative Commons
# Attribution-NonCommercial-ShareAlike 4.0 International License.
# To view a copy of this license, visit
# http://creativecommons.org/licenses/by-nc-sa/4.0/
# or send a letter to
# Creative Commons, PO Box 1866, Mountain View, CA 94042, USA.
#
# CIF created using the CSD Python API on 29 September 2022
# The structure has been converted into the P1 space group
# The structure has a 3D framework
# The original CSD entry GAXGET01 is in the monoclinic crystal system
# The framework has been calculated to contain at least 10.0% void space
# The void calculation uses a probe of radius 1.32A, grid spacing 0.4
#
###############################################################################

data_GAXGET01
_chemical_formula_moiety         '(C264 H160 Co8 N16 O62)n'
_symmetry_cell_setting           triclinic
_symmetry_space_group_name_H-M   'P 1'
_symmetry_Int_Tables_number      1
_space_group_name_Hall           'P 1'
loop_
_symmetry_equiv_pos_site_id
_symmetry_equiv_pos_as_xyz
1 x,y,z
_cell_length_a                   15.097(5)
_cell_length_b                   16.499(4)
_cell_length_c                   25.737(5)
_cell_angle_alpha                90
_cell_angle_beta                 90.92(3)
_cell_angle_gamma                90
_cell_volume                     6409.88
loop_
_atom_site_label
_atom_site_type_symbol
_atom_site_fract_x
_atom_site_fract_y
_atom_site_fract_z
Co2 Co 0.7500 0.2500 0.0000
O3 O 0.7245(2) 0.1550(2) 0.05138(13)
O4 O 0.5888(3) 0.0988(2) 0.04356(14)
O5 O 0.6684(2) 0.3278(2) 0.04295(13)
O6 O 0.5360(3) 0.2676(3) 0.04589(15)
O7 O 0.5000 0.4695(3) 0.2500
N1 N 0.4018(3) 0.1276(3) 0.00165(16)
C9 C 0.2924(4) 0.0310(4) 0.0279(3)
C10 C 0.3788(4) 0.0621(4) 0.0286(2)
H8 H 0.4219 0.0360 0.0487
C19 C 0.5957(4) 0.3136(3) 0.06301(19)
C20 C 0.5748(3) 0.3540(3) 0.11426(18)
C21 C 0.5071(4) 0.3223(4) 0.14364(19)
H13 H 0.4778 0.2759 0.1322
C22 C 0.4821(4) 0.3584(3) 0.1898(2)
H14 H 0.4359 0.3372 0.2090
C23 C 0.5272(4) 0.4264(3) 0.20659(18)
C24 C 0.5963(4) 0.4570(3) 0.17905(19)
H15 H 0.6277 0.5017 0.1915
C25 C 0.6193(4) 0.4210(3) 0.13231(19)
H16 H 0.6653 0.4426 0.1131
C26 C 0.6663(4) 0.1045(3) 0.06335(19)
C27 C 0.6896(4) 0.0428(3) 0.10512(18)
C28 C 0.7701(4) 0.0453(4) 0.1303(2)
H17 H 0.8102 0.0862 0.1225
O9 O 0.3316(2) 0.3278(2) 0.45705(13)
O10 O 0.4640(3) 0.2676(3) 0.45411(15)
C34 C 0.4043(4) 0.3136(3) 0.43699(19)
C35 C 0.4252(3) 0.3540(3) 0.38574(18)
C36 C 0.4929(4) 0.3223(4) 0.35636(19)
H21 H 0.5222 0.2759 0.3678
C37 C 0.5179(4) 0.3584(3) 0.3102(2)
H22 H 0.5641 0.3372 0.2910
C38 C 0.4728(4) 0.4264(3) 0.29341(18)
C39 C 0.4037(4) 0.4570(3) 0.32095(19)
H23 H 0.3723 0.5017 0.3085
C40 C 0.3807(4) 0.4210(3) 0.36769(19)
H24 H 0.3347 0.4426 0.3869
Co3 Co 0.47020(5) 0.17785(4) 0.50556(3)
O13 O 0.2755(2) 0.1550(2) 0.44862(13)
O14 O 0.4112(3) 0.0988(2) 0.45644(14)
N3 N 0.5982(3) 0.1276(3) 0.49835(16)
N4 N 0.5497(3) 0.2547(3) 0.55448(18)
C41 C 0.5222(5) 0.3158(4) 0.5825(3)
H25 H 0.4632 0.3317 0.5796
C42 C 0.5780(6) 0.3573(5) 0.6162(4)
H26 H 0.5566 0.4002 0.6358
C43 C 0.6649(6) 0.3348(5) 0.6206(3)
H27 H 0.7025 0.3624 0.6434
C44 C 0.6976(5) 0.2713(4) 0.5914(3)
C45 C 0.7860(5) 0.2442(5) 0.5922(3)
H28 H 0.8276 0.2702 0.6134
C46 C 0.8111(4) 0.1814(5) 0.5629(3)
H29 H 0.8702 0.1655 0.5638
C47 C 0.7500(4) 0.1384(4) 0.5304(2)
C48 C 0.7717(4) 0.0701(4) 0.5017(3)
H30 H 0.8295 0.0506 0.5025
C49 C 0.7076(4) 0.0310(4) 0.4721(3)
C50 C 0.6212(4) 0.0621(4) 0.4714(2)
H32 H 0.5781 0.0360 0.4513
C51 C 0.6621(3) 0.1648(3) 0.5281(2)
C52 C 0.6350(4) 0.2313(3) 0.5585(2)
C59 C 0.3337(4) 0.1045(3) 0.43665(19)
C60 C 0.3104(4) 0.0428(3) 0.39488(18)
C61 C 0.2299(4) 0.0453(4) 0.3697(2)
H37 H 0.1898 0.0862 0.3775
Co6 Co 0.2500 0.2500 0.5000
O16 O 0.8545(2) 0.2860(2) 0.05413(12)
O17 O 0.3545(2) 0.2140(2) 0.55413(12)
O19 O 0.4404(3) 0.1111(2) 0.57366(13)
Co1 Co 0.52980(5) 0.17785(4) 0.99444(3)
Co2_2 Co 0.7500 0.2500 1.0000
N2 N 0.4503(3) 0.2547(3) 0.94552(18)
C1 C 0.4778(5) 0.3158(4) 0.9175(3)
H1 H 0.5368 0.3317 0.9204
C2 C 0.4220(6) 0.3573(5) 0.8838(4)
H2 H 0.4434 0.4002 0.8642
C3 C 0.3351(6) 0.3348(5) 0.8794(3)
H3 H 0.2975 0.3624 0.8566
C4 C 0.3024(5) 0.2713(4) 0.9086(3)
C5 C 0.2140(5) 0.2442(5) 0.9078(3)
H4 H 0.1724 0.2702 0.8866
C6 C 0.1889(4) 0.1814(5) 0.9371(3)
H5 H 0.1298 0.1655 0.9362
C7 C 0.2500(4) 0.1384(4) 0.9696(2)
C8 C 0.2283(4) 0.0701(4) 0.9983(3)
H6 H 0.1705 0.0506 0.9975
C11 C 0.3379(3) 0.1648(3) 0.9719(2)
C12 C 0.3650(4) 0.2313(3) 0.9415(2)
O18 O 0.6455(2) 0.2140(2) 0.94587(12)
O20 O 0.5596(3) 0.1111(2) 0.92634(13)
O21 O 0.7755(2) 0.3450(2) 0.94862(13)
O22 O 0.8316(2) 0.1722(2) 0.95705(13)
O1 O 0.6455(2) 0.7860(2) 0.44587(12)
O2 O 0.5596(3) 0.8889(2) 0.42634(13)
O8 O 0.7596(3) 0.8655(2) 0.21280(14)
H7 H 0.2784 0.9850 0.0470
C13 C 0.6212(4) 0.8419(3) 0.41403(19)
C14 C 0.6603(3) 0.8493(3) 0.36128(19)
C15 C 0.7153(4) 0.7893(3) 0.34165(19)
H9 H 0.7311 0.7449 0.3620
C16 C 0.7461(4) 0.7965(3) 0.2915(2)
H10 H 0.7821 0.7563 0.2779
C17 C 0.6386(4) 0.9150(3) 0.3309(2)
H11 H 0.6026 0.9554 0.3443
C18 C 0.6690(4) 0.9222(4) 0.2809(2)
H12 H 0.6528 0.9665 0.2605
C29 C 0.7921(4) 0.9871(4) 0.1672(2)
H18 H 0.8468 0.9889 0.1843
C30 C 0.7328(4) 0.9271(4) 0.1783(2)
C31 C 0.6511(4) 0.9248(3) 0.1540(2)
H19 H 0.6107 0.8844 0.1621
C32 C 0.6294(4) 0.9832(3) 0.11734(19)
H20 H 0.5741 0.9823 0.1009
C33 C 0.7235(4) 0.8631(3) 0.2616(2)
O11 O 0.3545(2) 0.7860(2) 0.05413(12)
O12 O 0.4404(3) 0.8889(2) 0.07366(13)
O15 O 0.2404(3) 0.8655(2) 0.28720(14)
H31 H 0.7216 0.9850 0.4530
C53 C 0.3788(4) 0.8419(3) 0.08597(19)
C54 C 0.3397(3) 0.8493(3) 0.13872(19)
C55 C 0.2847(4) 0.7893(3) 0.15835(19)
H33 H 0.2689 0.7449 0.1380
C56 C 0.2539(4) 0.7965(3) 0.2085(2)
H34 H 0.2179 0.7563 0.2221
C57 C 0.3614(4) 0.9150(3) 0.1691(2)
H35 H 0.3974 0.9554 0.1557
C58 C 0.3310(4) 0.9222(4) 0.2191(2)
H36 H 0.3472 0.9665 0.2395
C62 C 0.2079(4) 0.9871(4) 0.3328(2)
H38 H 0.1532 0.9889 0.3157
C63 C 0.2672(4) 0.9271(4) 0.3217(2)
C64 C 0.3489(4) 0.9248(3) 0.3460(2)
H39 H 0.3893 0.8844 0.3379
C65 C 0.3706(4) 0.9832(3) 0.38266(19)
H40 H 0.4259 0.9823 0.3991
C66 C 0.2765(4) 0.8631(3) 0.2384(2)
Co4 Co 0.47020(5) 0.82215(4) 0.00556(3)
Co5 Co 0.52980(5) 0.82215(4) 0.49444(3)
Co7 Co 0.2500 0.7500 0.0000
Co8 Co 0.7500 0.7500 0.5000
Co7_2 Co 0.2500 0.7500 1.0000
O16_2 O 0.1455(2) 0.2860(2) 0.44587(12)
O21_2 O 0.2245(2) 0.3450(2) 0.55138(13)
O22_2 O 0.1684(2) 0.1722(2) 0.54295(13)
O2_2 O 0.0596(3) 0.3889(2) 0.42634(13)
O3_2 O 0.2245(2) 0.6550(2) 0.05138(13)
O4_2 O 0.0888(3) 0.5988(2) 0.04356(14)
O5_2 O 0.1684(2) 0.8278(2) 0.04295(13)
O6_2 O 0.0360(3) 0.7676(3) 0.04589(15)
O7_2 O 0.0000 0.9695(3) 0.2500
O8_2 O 0.2596(3) 0.3655(2) 0.21280(14)
C13_2 C 0.1212(4) 0.3419(3) 0.41403(19)
C14_2 C 0.1603(3) 0.3493(3) 0.36128(19)
C15_2 C 0.2153(4) 0.2893(3) 0.34165(19)
H9_2 H 0.2311 0.2449 0.3620
C16_2 C 0.2461(4) 0.2965(3) 0.2915(2)
H10_2 H 0.2821 0.2563 0.2779
C17_2 C 0.1386(4) 0.4150(3) 0.3309(2)
H11_2 H 0.1026 0.4554 0.3443
C18_2 C 0.1690(4) 0.4222(4) 0.2809(2)
H12_2 H 0.1528 0.4665 0.2605
C19_2 C 0.0957(4) 0.8136(3) 0.06301(19)
C20_2 C 0.0748(3) 0.8540(3) 0.11426(18)
C21_2 C 0.0071(4) 0.8223(4) 0.14364(19)
C23_2 C 0.0272(4) 0.9264(3) 0.20659(18)
C24_2 C 0.0963(4) 0.9570(3) 0.17905(19)
C25_2 C 0.1193(4) 0.9210(3) 0.13231(19)
H16_2 H 0.1653 0.9426 0.1131
C26_2 C 0.1663(4) 0.6045(3) 0.06335(19)
C27_2 C 0.1896(4) 0.5428(3) 0.10512(18)
C28_2 C 0.2701(4) 0.5453(4) 0.1303(2)
H17_2 H 0.3102 0.5862 0.1225
C29_2 C 0.2921(4) 0.4871(4) 0.1672(2)
H18_2 H 0.3468 0.4889 0.1843
C30_2 C 0.2328(4) 0.4271(4) 0.1783(2)
C31_2 C 0.1511(4) 0.4248(3) 0.1540(2)
H19_2 H 0.1107 0.3844 0.1621
C32_2 C 0.1294(4) 0.4832(3) 0.11734(19)
H20_2 H 0.0741 0.4823 0.1009
C33_2 C 0.2235(4) 0.3631(3) 0.2616(2)
H21_2 H 0.0222 0.7759 0.3678
C37_2 C 0.0179(4) 0.8584(3) 0.3102(2)
H22_2 H 0.0641 0.8372 0.2910
N3_2 N 0.0982(3) 0.6276(3) 0.49835(16)
N4_2 N 0.0497(3) 0.7547(3) 0.55448(18)
C41_2 C 0.0222(5) 0.8158(4) 0.5825(3)
C42_2 C 0.0780(6) 0.8573(5) 0.6162(4)
H26_2 H 0.0566 0.9002 0.6358
C43_2 C 0.1649(6) 0.8348(5) 0.6206(3)
H27_2 H 0.2025 0.8624 0.6434
C44_2 C 0.1976(5) 0.7713(4) 0.5914(3)
C45_2 C 0.2860(5) 0.7442(5) 0.5922(3)
H28_2 H 0.3276 0.7702 0.6134
C46_2 C 0.3111(4) 0.6814(5) 0.5629(3)
H29_2 H 0.3702 0.6655 0.5638
C47_2 C 0.2500(4) 0.6384(4) 0.5304(2)
C48_2 C 0.2717(4) 0.5701(4) 0.5017(3)
H30_2 H 0.3295 0.5506 0.5025
C49_2 C 0.2076(4) 0.5310(4) 0.4721(3)
H31_2 H 0.2216 0.4850 0.4530
C50_2 C 0.1212(4) 0.5621(4) 0.4714(2)
H32_2 H 0.0781 0.5360 0.4513
C51_2 C 0.1621(3) 0.6648(3) 0.5281(2)
C52_2 C 0.1350(4) 0.7313(3) 0.5585(2)
Co5_2 Co 0.02980(5) 0.32215(4) 0.49444(3)
Co1_2 Co 0.02980(5) 0.67785(4) 0.99444(3)
H1_2 H 0.0368 0.8317 0.9204
O18_2 O 0.1455(2) 0.7140(2) 0.94587(12)
O20_2 O 0.0596(3) 0.6111(2) 0.92634(13)
O21_3 O 0.2755(2) 0.8450(2) 0.94862(13)
O22_3 O 0.3316(2) 0.6722(2) 0.95705(13)
O7_3 O 1.0000 0.9695(3) 0.2500
N1_2 N 0.9018(3) 0.6276(3) 0.00165(16)
C9_2 C 0.7924(4) 0.5310(4) 0.0279(3)
H7_2 H 0.7784 0.4850 0.0470
C10_2 C 0.8788(4) 0.5621(4) 0.0286(2)
H8_2 H 0.9219 0.5360 0.0487
H13_2 H 0.9778 0.7759 0.1322
C22_2 C 0.9821(4) 0.8584(3) 0.1898(2)
H14_2 H 0.9359 0.8372 0.2090
O9_2 O 0.8316(2) 0.8278(2) 0.45705(13)
O10_2 O 0.9640(3) 0.7676(3) 0.45411(15)
C34_2 C 0.9043(4) 0.8136(3) 0.43699(19)
C35_2 C 0.9252(3) 0.8540(3) 0.38574(18)
C36_2 C 0.9929(4) 0.8223(4) 0.35636(19)
C38_2 C 0.9728(4) 0.9264(3) 0.29341(18)
C39_2 C 0.9037(4) 0.9570(3) 0.32095(19)
C40_2 C 0.8807(4) 0.9210(3) 0.36769(19)
H24_2 H 0.8347 0.9426 0.3869
Co3_2 Co 0.97020(5) 0.67785(4) 0.50556(3)
O12_2 O 0.9404(3) 0.3889(2) 0.07366(13)
O13_2 O 0.7755(2) 0.6550(2) 0.44862(13)
O14_2 O 0.9112(3) 0.5988(2) 0.45644(14)
O15_2 O 0.7404(3) 0.3655(2) 0.28720(14)
H25_2 H 0.9632 0.8317 0.5796
C53_2 C 0.8788(4) 0.3419(3) 0.08597(19)
C54_2 C 0.8397(3) 0.3493(3) 0.13872(19)
C55_2 C 0.7847(4) 0.2893(3) 0.15835(19)
H33_2 H 0.7689 0.2449 0.1380
C56_2 C 0.7539(4) 0.2965(3) 0.2085(2)
H34_2 H 0.7179 0.2563 0.2221
C57_2 C 0.8614(4) 0.4150(3) 0.1691(2)
H35_2 H 0.8974 0.4554 0.1557
C58_2 C 0.8310(4) 0.4222(4) 0.2191(2)
H36_2 H 0.8472 0.4665 0.2395
C59_2 C 0.8337(4) 0.6045(3) 0.43665(19)
C60_2 C 0.8104(4) 0.5428(3) 0.39488(18)
C61_2 C 0.7299(4) 0.5453(4) 0.3697(2)
H37_2 H 0.6898 0.5862 0.3775
C62_2 C 0.7079(4) 0.4871(4) 0.3328(2)
H38_2 H 0.6532 0.4889 0.3157
C63_2 C 0.7672(4) 0.4271(4) 0.3217(2)
C64_2 C 0.8489(4) 0.4248(3) 0.3460(2)
H39_2 H 0.8893 0.3844 0.3379
C65_2 C 0.8706(4) 0.4832(3) 0.38266(19)
H40_2 H 0.9259 0.4823 0.3991
C66_2 C 0.7765(4) 0.3631(3) 0.2384(2)
Co4_2 Co 0.97020(5) 0.32215(4) 0.00556(3)
O17_2 O 0.8545(2) 0.7140(2) 0.55413(12)
O19_2 O 0.9404(3) 0.6111(2) 0.57366(13)
N2_2 N 0.9503(3) 0.7547(3) 0.94552(18)
C1_2 C 0.9778(5) 0.8158(4) 0.9175(3)
C2_2 C 0.9220(6) 0.8573(5) 0.8838(4)
H2_2 H 0.9434 0.9002 0.8642
C3_2 C 0.8351(6) 0.8348(5) 0.8794(3)
H3_2 H 0.7975 0.8624 0.8566
C4_2 C 0.8024(5) 0.7713(4) 0.9086(3)
C5_2 C 0.7140(5) 0.7442(5) 0.9078(3)
H4_2 H 0.6724 0.7702 0.8866
C6_2 C 0.6889(4) 0.6814(5) 0.9371(3)
H5_2 H 0.6298 0.6655 0.9362
C7_2 C 0.7500(4) 0.6384(4) 0.9696(2)
C8_2 C 0.7283(4) 0.5701(4) 0.9983(3)
H6_2 H 0.6705 0.5506 0.9975
C11_2 C 0.8379(3) 0.6648(3) 0.9719(2)
C12_2 C 0.8650(4) 0.7313(3) 0.9415(2)
O21_4 O 0.7245(2) 0.8450(2) 0.55138(13)
O22_4 O 0.6684(2) 0.6722(2) 0.54295(13)
O8_3 O 0.2404(3) 0.1345(2) 0.78720(14)
H7_3 H 0.7216 0.0150 0.9530
C13_3 C 0.3788(4) 0.1581(3) 0.58597(19)
C14_3 C 0.3397(3) 0.1507(3) 0.63872(19)
C15_3 C 0.2847(4) 0.2107(3) 0.65835(19)
H9_3 H 0.2689 0.2551 0.6380
C16_3 C 0.2539(4) 0.2035(3) 0.7085(2)
H10_3 H 0.2179 0.2437 0.7221
C17_3 C 0.3614(4) 0.0850(3) 0.6691(2)
H11_3 H 0.3974 0.0446 0.6557
C18_3 C 0.3310(4) 0.0778(4) 0.7191(2)
H12_3 H 0.3472 0.0335 0.7395
C29_3 C 0.2079(4) 0.0129(4) 0.8328(2)
H18_3 H 0.1532 0.0111 0.8157
C30_3 C 0.2672(4) 0.0729(4) 0.8217(2)
C31_3 C 0.3489(4) 0.0752(3) 0.8460(2)
H19_3 H 0.3893 0.1156 0.8379
C32_3 C 0.3706(4) 0.0168(3) 0.88266(19)
H20_3 H 0.4259 0.0177 0.8991
C33_3 C 0.2765(4) 0.1369(3) 0.7384(2)
O15_3 O 0.7596(3) 0.1345(2) 0.71280(14)
H31_3 H 0.2784 0.0150 0.5470
C53_3 C 0.6212(4) 0.1581(3) 0.91403(19)
C54_3 C 0.6603(3) 0.1507(3) 0.86128(19)
C55_3 C 0.7153(4) 0.2107(3) 0.84165(19)
H33_3 H 0.7311 0.2551 0.8620
C56_3 C 0.7461(4) 0.2035(3) 0.7915(2)
H34_3 H 0.7821 0.2437 0.7779
C57_3 C 0.6386(4) 0.0850(3) 0.8309(2)
H35_3 H 0.6026 0.0446 0.8443
C58_3 C 0.6690(4) 0.0778(4) 0.7809(2)
H36_3 H 0.6528 0.0335 0.7605
C62_3 C 0.7921(4) 0.0129(4) 0.6672(2)
H38_3 H 0.8468 0.0111 0.6843
C63_3 C 0.7328(4) 0.0729(4) 0.6783(2)
C64_3 C 0.6511(4) 0.0752(3) 0.6540(2)
H39_3 H 0.6107 0.1156 0.6621
C65_3 C 0.6294(4) 0.0168(3) 0.61734(19)
H40_3 H 0.5741 0.0177 0.6009
C66_3 C 0.7235(4) 0.1369(3) 0.7616(2)
N2_3 N 0.5497(3) 0.7453(3) 0.05448(18)
C1_3 C 0.5222(5) 0.6842(4) 0.0825(3)
H1_3 H 0.4632 0.6683 0.0796
C2_3 C 0.5780(6) 0.6427(5) 0.1162(4)
H2_3 H 0.5566 0.5998 0.1358
C3_3 C 0.6649(6) 0.6652(5) 0.1206(3)
H3_3 H 0.7025 0.6376 0.1434
C4_3 C 0.6976(5) 0.7287(4) 0.0914(3)
C5_3 C 0.7860(5) 0.7558(5) 0.0922(3)
H4_3 H 0.8276 0.7298 0.1134
C6_3 C 0.8111(4) 0.8186(5) 0.0629(3)
H5_3 H 0.8702 0.8345 0.0638
C7_3 C 0.7500(4) 0.8616(4) 0.0304(2)
C8_3 C 0.7717(4) 0.9299(4) 0.0017(3)
H6_3 H 0.8295 0.9494 0.0025
C11_3 C 0.6621(3) 0.8352(3) 0.0281(2)
C12_3 C 0.6350(4) 0.7687(3) 0.0585(2)
O4_3 O 0.4112(3) 0.9012(2) 0.95644(14)
O6_3 O 0.4640(3) 0.7324(3) 0.95411(15)
O7_4 O 0.5000 0.5305(3) 0.7500
N1_3 N 0.5982(3) 0.8724(3) 0.99835(16)
C9_3 C 0.7076(4) 0.9690(4) 0.9721(3)
C10_3 C 0.6212(4) 0.9379(4) 0.9714(2)
H8_3 H 0.5781 0.9640 0.9513
C19_3 C 0.4043(4) 0.6864(3) 0.93699(19)
C20_3 C 0.4252(3) 0.6460(3) 0.88574(18)
C21_3 C 0.4929(4) 0.6777(4) 0.85636(19)
H13_3 H 0.5222 0.7241 0.8678
C22_3 C 0.5179(4) 0.6416(3) 0.8102(2)
H14_3 H 0.5641 0.6628 0.7910
C23_3 C 0.4728(4) 0.5736(3) 0.79341(18)
C24_3 C 0.4037(4) 0.5430(3) 0.82095(19)
H15_2 H 0.3723 0.4983 0.8085
C25_3 C 0.3807(4) 0.5790(3) 0.86769(19)
H16_3 H 0.3347 0.5574 0.8869
C26_3 C 0.3337(4) 0.8955(3) 0.93665(19)
C27_3 C 0.3104(4) 0.9572(3) 0.89488(18)
C28_3 C 0.2299(4) 0.9547(4) 0.8697(2)
H17_3 H 0.1898 0.9138 0.8775
O10_3 O 0.5360(3) 0.7324(3) 0.54589(15)
C34_3 C 0.5957(4) 0.6864(3) 0.56301(19)
C35_3 C 0.5748(3) 0.6460(3) 0.61426(18)
C36_3 C 0.5071(4) 0.6777(4) 0.64364(19)
H21_3 H 0.4778 0.7241 0.6322
C37_3 C 0.4821(4) 0.6416(3) 0.6898(2)
H22_3 H 0.4359 0.6628 0.7090
C38_3 C 0.5272(4) 0.5736(3) 0.70659(18)
C39_3 C 0.5963(4) 0.5430(3) 0.67905(19)
H23_2 H 0.6277 0.4983 0.6915
C40_3 C 0.6193(4) 0.5790(3) 0.63231(19)
H24_3 H 0.6653 0.5574 0.6131
O14_3 O 0.5888(3) 0.9012(2) 0.54356(14)
N3_3 N 0.4018(3) 0.8724(3) 0.50165(16)
N4_3 N 0.4503(3) 0.7453(3) 0.44552(18)
C41_3 C 0.4778(5) 0.6842(4) 0.4175(3)
H25_3 H 0.5368 0.6683 0.4204
C42_3 C 0.4220(6) 0.6427(5) 0.3838(4)
H26_3 H 0.4434 0.5998 0.3642
C43_3 C 0.3351(6) 0.6652(5) 0.3794(3)
H27_3 H 0.2975 0.6376 0.3566
C44_3 C 0.3024(5) 0.7287(4) 0.4086(3)
C45_3 C 0.2140(5) 0.7558(5) 0.4078(3)
H28_3 H 0.1724 0.7298 0.3866
C46_3 C 0.1889(4) 0.8186(5) 0.4371(3)
H29_3 H 0.1298 0.8345 0.4362
C47_3 C 0.2500(4) 0.8616(4) 0.4696(2)
C48_3 C 0.2283(4) 0.9299(4) 0.4983(3)
H30_3 H 0.1705 0.9494 0.4975
C49_3 C 0.2924(4) 0.9690(4) 0.5279(3)
C50_3 C 0.3788(4) 0.9379(4) 0.5286(2)
H32_3 H 0.4219 0.9640 0.5487
C51_3 C 0.3379(3) 0.8352(3) 0.4719(2)
C52_3 C 0.3650(4) 0.7687(3) 0.4415(2)
C59_3 C 0.6663(4) 0.8955(3) 0.56335(19)
C60_3 C 0.6896(4) 0.9572(3) 0.60512(18)
C61_3 C 0.7701(4) 0.9547(4) 0.6303(2)
H37_3 H 0.8102 0.9138 0.6225
N2_4 N 0.0497(3) 0.2453(3) 0.05448(18)
C1_4 C 0.0222(5) 0.1842(4) 0.0825(3)
C2_4 C 0.0780(6) 0.1427(5) 0.1162(4)
H2_4 H 0.0566 0.0998 0.1358
C3_4 C 0.1649(6) 0.1652(5) 0.1206(3)
H3_4 H 0.2025 0.1376 0.1434
C4_4 C 0.1976(5) 0.2287(4) 0.0914(3)
C5_4 C 0.2860(5) 0.2558(5) 0.0922(3)
H4_4 H 0.3276 0.2298 0.1134
C6_4 C 0.3111(4) 0.3186(5) 0.0629(3)
H5_4 H 0.3702 0.3345 0.0638
C7_4 C 0.2500(4) 0.3616(4) 0.0304(2)
C8_4 C 0.2717(4) 0.4299(4) 0.0017(3)
H6_4 H 0.3295 0.4494 0.0025
C11_4 C 0.1621(3) 0.3352(3) 0.0281(2)
C12_4 C 0.1350(4) 0.2687(3) 0.0585(2)
O7_5 O -0.0000 0.0305(3) 0.7500
N1_4 N 0.0982(3) 0.3724(3) 0.99835(16)
C9_4 C 0.2076(4) 0.4690(4) 0.9721(3)
H7_4 H 0.2216 0.5150 0.9530
C10_4 C 0.1212(4) 0.4379(4) 0.9714(2)
H8_4 H 0.0781 0.4640 0.9513
H13_4 H 0.0222 0.2241 0.8678
C22_4 C 0.0179(4) 0.1416(3) 0.8102(2)
H14_4 H 0.0641 0.1628 0.7910
O10_4 O 0.0360(3) 0.2324(3) 0.54589(15)
C34_4 C 0.0957(4) 0.1864(3) 0.56301(19)
C35_4 C 0.0748(3) 0.1460(3) 0.61426(18)
C36_4 C 0.0071(4) 0.1777(4) 0.64364(19)
C38_4 C 0.0272(4) 0.0736(3) 0.70659(18)
C39_4 C 0.0963(4) 0.0430(3) 0.67905(19)
C40_4 C 0.1193(4) 0.0790(3) 0.63231(19)
H24_4 H 0.1653 0.0574 0.6131
O14_4 O 0.0888(3) 0.4012(2) 0.54356(14)
O15_4 O 0.2596(3) 0.6345(2) 0.71280(14)
H25_4 H 0.0368 0.1683 0.4204
C53_4 C 0.1212(4) 0.6581(3) 0.91403(19)
C54_4 C 0.1603(3) 0.6507(3) 0.86128(19)
C55_4 C 0.2153(4) 0.7107(3) 0.84165(19)
H33_4 H 0.2311 0.7551 0.8620
C56_4 C 0.2461(4) 0.7035(3) 0.7915(2)
H34_4 H 0.2821 0.7437 0.7779
C57_4 C 0.1386(4) 0.5850(3) 0.8309(2)
H35_4 H 0.1026 0.5446 0.8443
C58_4 C 0.1690(4) 0.5778(4) 0.7809(2)
H36_4 H 0.1528 0.5335 0.7605
C59_4 C 0.1663(4) 0.3955(3) 0.56335(19)
C60_4 C 0.1896(4) 0.4572(3) 0.60512(18)
C61_4 C 0.2701(4) 0.4547(4) 0.6303(2)
H37_4 H 0.3102 0.4138 0.6225
C62_4 C 0.2921(4) 0.5129(4) 0.6672(2)
H38_4 H 0.3468 0.5111 0.6843
C63_4 C 0.2328(4) 0.5729(4) 0.6783(2)
C64_4 C 0.1511(4) 0.5752(3) 0.6540(2)
H39_4 H 0.1107 0.6156 0.6621
C65_4 C 0.1294(4) 0.5168(3) 0.61734(19)
H40_4 H 0.0741 0.5177 0.6009
C66_4 C 0.2235(4) 0.6369(3) 0.7616(2)
H1_4 H 0.9632 0.1683 0.0796
O4_4 O 0.9112(3) 0.4012(2) 0.95644(14)
O6_4 O 0.9640(3) 0.2324(3) 0.95411(15)
O7_6 O 1.0000 0.0305(3) 0.7500
O8_4 O 0.7404(3) 0.6345(2) 0.78720(14)
C13_4 C 0.8788(4) 0.6581(3) 0.58597(19)
C14_4 C 0.8397(3) 0.6507(3) 0.63872(19)
C15_4 C 0.7847(4) 0.7107(3) 0.65835(19)
H9_4 H 0.7689 0.7551 0.6380
C16_4 C 0.7539(4) 0.7035(3) 0.7085(2)
H10_4 H 0.7179 0.7437 0.7221
C17_4 C 0.8614(4) 0.5850(3) 0.6691(2)
H11_4 H 0.8974 0.5446 0.6557
C18_4 C 0.8310(4) 0.5778(4) 0.7191(2)
H12_4 H 0.8472 0.5335 0.7395
C19_4 C 0.9043(4) 0.1864(3) 0.93699(19)
C20_4 C 0.9252(3) 0.1460(3) 0.88574(18)
C21_4 C 0.9929(4) 0.1777(4) 0.85636(19)
C23_4 C 0.9728(4) 0.0736(3) 0.79341(18)
C24_4 C 0.9037(4) 0.0430(3) 0.82095(19)
C25_4 C 0.8807(4) 0.0790(3) 0.86769(19)
H16_4 H 0.8347 0.0574 0.8869
C26_4 C 0.8337(4) 0.3955(3) 0.93665(19)
C27_4 C 0.8104(4) 0.4572(3) 0.89488(18)
C28_4 C 0.7299(4) 0.4547(4) 0.8697(2)
H17_4 H 0.6898 0.4138 0.8775
C29_4 C 0.7079(4) 0.5129(4) 0.8328(2)
H18_4 H 0.6532 0.5111 0.8157
C30_4 C 0.7672(4) 0.5729(4) 0.8217(2)
C31_4 C 0.8489(4) 0.5752(3) 0.8460(2)
H19_4 H 0.8893 0.6156 0.8379
C32_4 C 0.8706(4) 0.5168(3) 0.88266(19)
H20_4 H 0.9259 0.5177 0.8991
C33_4 C 0.7765(4) 0.6369(3) 0.7384(2)
H21_4 H 0.9778 0.2241 0.6322
C37_4 C 0.9821(4) 0.1416(3) 0.6898(2)
H22_4 H 0.9359 0.1628 0.7090
N3_4 N 0.9018(3) 0.3724(3) 0.50165(16)
N4_4 N 0.9503(3) 0.2453(3) 0.44552(18)
C41_4 C 0.9778(5) 0.1842(4) 0.4175(3)
C42_4 C 0.9220(6) 0.1427(5) 0.3838(4)
H26_4 H 0.9434 0.0998 0.3642
C43_4 C 0.8351(6) 0.1652(5) 0.3794(3)
H27_4 H 0.7975 0.1376 0.3566
C44_4 C 0.8024(5) 0.2287(4) 0.4086(3)
C45_4 C 0.7140(5) 0.2558(5) 0.4078(3)
H28_4 H 0.6724 0.2298 0.3866
C46_4 C 0.6889(4) 0.3186(5) 0.4371(3)
H29_4 H 0.6298 0.3345 0.4362
C47_4 C 0.7500(4) 0.3616(4) 0.4696(2)
C48_4 C 0.7283(4) 0.4299(4) 0.4983(3)
H30_4 H 0.6705 0.4494 0.4975
C49_4 C 0.7924(4) 0.4690(4) 0.5279(3)
H31_4 H 0.7784 0.5150 0.5470
C50_4 C 0.8788(4) 0.4379(4) 0.5286(2)
H32_4 H 0.9219 0.4640 0.5487
C51_4 C 0.8379(3) 0.3352(3) 0.4719(2)
C52_4 C 0.8650(4) 0.2687(3) 0.4415(2)
H15_3 H 0.1277 0.0017 0.1915
H23_3 H 0.8723 0.0017 0.3085
H23_4 H 0.1277 0.9983 0.6915
H15_4 H 0.8723 0.9983 0.8085
loop_
_geom_bond_atom_site_label_1
_geom_bond_atom_site_label_2
_geom_bond_site_symmetry_1
_geom_bond_site_symmetry_2
Co2 O3 1_555 1_555
O3 C26 1_555 1_555
O4 C26 1_555 1_555
O5 Co2 1_555 1_555
O7 C23 1_555 1_555
C10 N1 1_555 1_555
H8 C10 1_555 1_555
C19 O5 1_555 1_555
C20 C19 1_555 1_555
C21 C20 1_555 1_555
H13 C21 1_555 1_555
C22 C21 1_555 1_555
H14 C22 1_555 1_555
C23 C22 1_555 1_555
C24 C23 1_555 1_555
H15 C24 1_555 1_555
C25 C20 1_555 1_555
H16 C25 1_555 1_555
C26 C27 1_555 1_555
C27 C28 1_555 1_555
C28 H17 1_555 1_555
O9 C34 1_555 1_555
O10 C34 1_555 1_555
C34 C35 1_555 1_555
C35 C36 1_555 1_555
C36 H21 1_555 1_555
C37 C36 1_555 1_555
H22 C37 1_555 1_555
C38 O7 1_555 1_555
C39 C38 1_555 1_555
H23 C39 1_555 1_555
C40 C35 1_555 1_555
H24 C40 1_555 1_555
Co3 O10 1_555 1_555
O13 C59 1_555 1_555
O14 Co3 1_555 1_555
N3 Co3 1_555 1_555
N4 Co3 1_555 1_555
C41 N4 1_555 1_555
H25 C41 1_555 1_555
C42 C41 1_555 1_555
H26 C42 1_555 1_555
C43 C42 1_555 1_555
H27 C43 1_555 1_555
C44 C43 1_555 1_555
C45 C44 1_555 1_555
H28 C45 1_555 1_555
C46 C45 1_555 1_555
H29 C46 1_555 1_555
C47 C46 1_555 1_555
C48 C47 1_555 1_555
H30 C48 1_555 1_555
C49 C48 1_555 1_555
C50 N3 1_555 1_555
H32 C50 1_555 1_555
C51 N3 1_555 1_555
C52 N4 1_555 1_555
C59 O14 1_555 1_555
C60 C59 1_555 1_555
C61 C60 1_555 1_555
H37 C61 1_555 1_555
Co6 O9 1_555 1_555
O16 Co2 1_555 1_555
O17 Co3 1_555 1_555
O19 Co3 1_555 1_555
O6 C19 1_555 1_555
C9 C10 1_555 1_555
C24 C25 1_555 1_555
C37 C38 1_555 1_555
C39 C40 1_555 1_555
O13 Co6 1_555 1_555
C44 C52 1_555 1_555
C47 C51 1_555 1_555
C49 C50 1_555 1_555
C51 C52 1_555 1_555
Co6 O17 1_555 1_555
N2 Co1 1_555 1_555
C1 N2 1_555 1_555
H1 C1 1_555 1_555
C2 C1 1_555 1_555
H2 C2 1_555 1_555
C3 C2 1_555 1_555
H3 C3 1_555 1_555
C4 C3 1_555 1_555
C5 C4 1_555 1_555
H4 C5 1_555 1_555
C6 C5 1_555 1_555
H5 C6 1_555 1_555
C7 C6 1_555 1_555
C8 C7 1_555 1_555
H6 C8 1_555 1_555
C12 N2 1_555 1_555
O18 Co1 1_555 1_555
O20 Co1 1_555 1_555
O21 Co2_2 1_555 1_555
O22 Co2_2 1_555 1_555
Co2_2 O18 1_555 1_555
C4 C12 1_555 1_555
C7 C11 1_555 1_555
C11 C12 1_555 1_555
O1 C13 1_555 1_555
O2 C13 1_555 1_555
O8 C30 1_555 1_555
C13 C14 1_555 1_555
C14 C15 1_555 1_555
C15 H9 1_555 1_555
C16 C15 1_555 1_555
H10 C16 1_555 1_555
C17 C14 1_555 1_555
H11 C17 1_555 1_555
C18 C17 1_555 1_555
H12 C18 1_555 1_555
H18 C29 1_555 1_555
C30 C29 1_555 1_555
C31 C30 1_555 1_555
H19 C31 1_555 1_555
H20 C32 1_555 1_555
C33 O8 1_555 1_555
O11 C53 1_555 1_555
O12 C53 1_555 1_555
O15 C63 1_555 1_555
C53 C54 1_555 1_555
C54 C55 1_555 1_555
C55 H33 1_555 1_555
C56 C55 1_555 1_555
H34 C56 1_555 1_555
C57 C54 1_555 1_555
H35 C57 1_555 1_555
C58 C57 1_555 1_555
H36 C58 1_555 1_555
H38 C62 1_555 1_555
C63 C62 1_555 1_555
C64 C63 1_555 1_555
H39 C64 1_555 1_555
H40 C65 1_555 1_555
C66 O15 1_555 1_555
Co4 O11 1_555 1_555
Co5 O1 1_555 1_555
Co7 O11 1_555 1_555
Co8 O1 1_555 1_555
O2 Co5 1_555 1_555
C16 C33 1_555 1_555
C18 C33 1_555 1_555
C31 C32 1_555 1_555
O12 Co4 1_555 1_555
C56 C66 1_555 1_555
C58 C66 1_555 1_555
C64 C65 1_555 1_555
O16_2 Co6 1_555 1_555
O21_2 Co6 1_555 1_555
O22_2 Co6 1_555 1_555
Co7 O3_2 1_555 1_555
O16_2 C13_2 1_555 1_555
O2_2 C13_2 1_555 1_555
O3_2 C26_2 1_555 1_555
O4_2 C26_2 1_555 1_555
O5_2 Co7 1_555 1_555
O7_2 C23_2 1_555 1_555
O8_2 C30_2 1_555 1_555
C13_2 C14_2 1_555 1_555
C14_2 C15_2 1_555 1_555
C15_2 H9_2 1_555 1_555
C16_2 C15_2 1_555 1_555
H10_2 C16_2 1_555 1_555
C17_2 C14_2 1_555 1_555
H11_2 C17_2 1_555 1_555
C18_2 C17_2 1_555 1_555
H12_2 C18_2 1_555 1_555
C19_2 O5_2 1_555 1_555
C20_2 C19_2 1_555 1_555
C21_2 C20_2 1_555 1_555
C24_2 C23_2 1_555 1_555
C25_2 C20_2 1_555 1_555
H16_2 C25_2 1_555 1_555
C26_2 C27_2 1_555 1_555
C27_2 C28_2 1_555 1_555
C28_2 H17_2 1_555 1_555
C29_2 C28_2 1_555 1_555
H18_2 C29_2 1_555 1_555
C30_2 C29_2 1_555 1_555
C31_2 C30_2 1_555 1_555
H19_2 C31_2 1_555 1_555
C32_2 C27_2 1_555 1_555
H20_2 C32_2 1_555 1_555
C33_2 O8_2 1_555 1_555
H22_2 C37_2 1_555 1_555
C41_2 N4_2 1_555 1_555
C42_2 C41_2 1_555 1_555
H26_2 C42_2 1_555 1_555
C43_2 C42_2 1_555 1_555
H27_2 C43_2 1_555 1_555
C44_2 C43_2 1_555 1_555
C45_2 C44_2 1_555 1_555
H28_2 C45_2 1_555 1_555
C46_2 C45_2 1_555 1_555
H29_2 C46_2 1_555 1_555
C47_2 C46_2 1_555 1_555
C48_2 C47_2 1_555 1_555
H30_2 C48_2 1_555 1_555
C49_2 C48_2 1_555 1_555
H31_2 C49_2 1_555 1_555
C50_2 N3_2 1_555 1_555
H32_2 C50_2 1_555 1_555
C51_2 N3_2 1_555 1_555
C52_2 N4_2 1_555 1_555
Co5_2 O16_2 1_555 1_555
O2_2 Co5_2 1_555 1_555
O6_2 C19_2 1_555 1_555
C16_2 C33_2 1_555 1_555
C18_2 C33_2 1_555 1_555
C24_2 C25_2 1_555 1_555
C31_2 C32_2 1_555 1_555
C44_2 C52_2 1_555 1_555
C47_2 C51_2 1_555 1_555
C49_2 C50_2 1_555 1_555
C51_2 C52_2 1_555 1_555
O18_2 Co1_2 1_555 1_555
O20_2 Co1_2 1_555 1_555
O21_3 Co7_2 1_555 1_555
O22_3 Co7_2 1_555 1_555
Co7_2 O18_2 1_555 1_555
H7_2 C9_2 1_555 1_555
C10_2 N1_2 1_555 1_555
H8_2 C10_2 1_555 1_555
H14_2 C22_2 1_555 1_555
O9_2 C34_2 1_555 1_555
O10_2 C34_2 1_555 1_555
C34_2 C35_2 1_555 1_555
C35_2 C36_2 1_555 1_555
C38_2 O7_3 1_555 1_555
C39_2 C38_2 1_555 1_555
C40_2 C35_2 1_555 1_555
H24_2 C40_2 1_555 1_555
Co3_2 O10_2 1_555 1_555
O16 C53_2 1_555 1_555
O12_2 C53_2 1_555 1_555
O13_2 C59_2 1_555 1_555
O14_2 Co3_2 1_555 1_555
O15_2 C63_2 1_555 1_555
C53_2 C54_2 1_555 1_555
C54_2 C55_2 1_555 1_555
C55_2 H33_2 1_555 1_555
C56_2 C55_2 1_555 1_555
H34_2 C56_2 1_555 1_555
C57_2 C54_2 1_555 1_555
H35_2 C57_2 1_555 1_555
C58_2 C57_2 1_555 1_555
H36_2 C58_2 1_555 1_555
C59_2 O14_2 1_555 1_555
C60_2 C59_2 1_555 1_555
C61_2 C60_2 1_555 1_555
H37_2 C61_2 1_555 1_555
C62_2 C61_2 1_555 1_555
H38_2 C62_2 1_555 1_555
C63_2 C62_2 1_555 1_555
C64_2 C63_2 1_555 1_555
H39_2 C64_2 1_555 1_555
C65_2 C60_2 1_555 1_555
H40_2 C65_2 1_555 1_555
C66_2 O15_2 1_555 1_555
Co4_2 O16 1_555 1_555
Co8 O9_2 1_555 1_555
O17_2 Co3_2 1_555 1_555
O19_2 Co3_2 1_555 1_555
C9_2 C10_2 1_555 1_555
C39_2 C40_2 1_555 1_555
O12_2 Co4_2 1_555 1_555
O13_2 Co8 1_555 1_555
C56_2 C66_2 1_555 1_555
C58_2 C66_2 1_555 1_555
C64_2 C65_2 1_555 1_555
Co8 O17_2 1_555 1_555
C1_2 N2_2 1_555 1_555
C2_2 C1_2 1_555 1_555
H2_2 C2_2 1_555 1_555
C3_2 C2_2 1_555 1_555
H3_2 C3_2 1_555 1_555
C4_2 C3_2 1_555 1_555
C5_2 C4_2 1_555 1_555
H4_2 C5_2 1_555 1_555
C6_2 C5_2 1_555 1_555
H5_2 C6_2 1_555 1_555
C7_2 C6_2 1_555 1_555
C8_2 C7_2 1_555 1_555
H6_2 C8_2 1_555 1_555
C12_2 N2_2 1_555 1_555
C4_2 C12_2 1_555 1_555
C7_2 C11_2 1_555 1_555
C11_2 C12_2 1_555 1_555
O21_4 Co8 1_555 1_555
O22_4 Co8 1_555 1_555
O17 C13_3 1_555 1_555
O19 C13_3 1_555 1_555
O8_3 C30_3 1_555 1_555
C13_3 C14_3 1_555 1_555
C14_3 C15_3 1_555 1_555
C15_3 H9_3 1_555 1_555
C16_3 C15_3 1_555 1_555
H10_3 C16_3 1_555 1_555
C17_3 C14_3 1_555 1_555
H11_3 C17_3 1_555 1_555
C18_3 C17_3 1_555 1_555
H12_3 C18_3 1_555 1_555
H18_3 C29_3 1_555 1_555
C30_3 C29_3 1_555 1_555
C31_3 C30_3 1_555 1_555
H19_3 C31_3 1_555 1_555
H20_3 C32_3 1_555 1_555
C33_3 O8_3 1_555 1_555
O18 C53_3 1_555 1_555
O20 C53_3 1_555 1_555
O15_3 C63_3 1_555 1_555
C53_3 C54_3 1_555 1_555
C54_3 C55_3 1_555 1_555
C55_3 H33_3 1_555 1_555
C56_3 C55_3 1_555 1_555
H34_3 C56_3 1_555 1_555
C57_3 C54_3 1_555 1_555
H35_3 C57_3 1_555 1_555
C58_3 C57_3 1_555 1_555
H36_3 C58_3 1_555 1_555
H38_3 C62_3 1_555 1_555
C63_3 C62_3 1_555 1_555
C64_3 C63_3 1_555 1_555
H39_3 C64_3 1_555 1_555
H40_3 C65_3 1_555 1_555
C66_3 O15_3 1_555 1_555
C16_3 C33_3 1_555 1_555
C18_3 C33_3 1_555 1_555
C31_3 C32_3 1_555 1_555
C56_3 C66_3 1_555 1_555
C58_3 C66_3 1_555 1_555
C64_3 C65_3 1_555 1_555
N2_3 Co4 1_555 1_555
C1_3 N2_3 1_555 1_555
H1_3 C1_3 1_555 1_555
C2_3 C1_3 1_555 1_555
H2_3 C2_3 1_555 1_555
C3_3 C2_3 1_555 1_555
H3_3 C3_3 1_555 1_555
C4_3 C3_3 1_555 1_555
C5_3 C4_3 1_555 1_555
H4_3 C5_3 1_555 1_555
C6_3 C5_3 1_555 1_555
H5_3 C6_3 1_555 1_555
C7_3 C6_3 1_555 1_555
C8_3 C7_3 1_555 1_555
H6_3 C8_3 1_555 1_555
C12_3 N2_3 1_555 1_555
C4_3 C12_3 1_555 1_555
C7_3 C11_3 1_555 1_555
C11_3 C12_3 1_555 1_555
O21_3 C26_3 1_555 1_555
O4_3 C26_3 1_555 1_555
O7_4 C23_3 1_555 1_555
C10_3 N1_3 1_555 1_555
H8_3 C10_3 1_555 1_555
C19_3 O22_3 1_555 1_555
C20_3 C19_3 1_555 1_555
C21_3 C20_3 1_555 1_555
H13_3 C21_3 1_555 1_555
C22_3 C21_3 1_555 1_555
H14_3 C22_3 1_555 1_555
C23_3 C22_3 1_555 1_555
C24_3 C23_3 1_555 1_555
H15_2 C24_3 1_555 1_555
C25_3 C20_3 1_555 1_555
H16_3 C25_3 1_555 1_555
C26_3 C27_3 1_555 1_555
C27_3 C28_3 1_555 1_555
C28_3 H17_3 1_555 1_555
O22_4 C34_3 1_555 1_555
O10_3 C34_3 1_555 1_555
C34_3 C35_3 1_555 1_555
C35_3 C36_3 1_555 1_555
C36_3 H21_3 1_555 1_555
C37_3 C36_3 1_555 1_555
H22_3 C37_3 1_555 1_555
C38_3 O7_4 1_555 1_555
C39_3 C38_3 1_555 1_555
H23_2 C39_3 1_555 1_555
C40_3 C35_3 1_555 1_555
H24_3 C40_3 1_555 1_555
Co5 O10_3 1_555 1_555
O21_4 C59_3 1_555 1_555
O14_3 Co5 1_555 1_555
N3_3 Co5 1_555 1_555
N4_3 Co5 1_555 1_555
C41_3 N4_3 1_555 1_555
H25_3 C41_3 1_555 1_555
C42_3 C41_3 1_555 1_555
H26_3 C42_3 1_555 1_555
C43_3 C42_3 1_555 1_555
H27_3 C43_3 1_555 1_555
C44_3 C43_3 1_555 1_555
C45_3 C44_3 1_555 1_555
H28_3 C45_3 1_555 1_555
C46_3 C45_3 1_555 1_555
H29_3 C46_3 1_555 1_555
C47_3 C46_3 1_555 1_555
C48_3 C47_3 1_555 1_555
H30_3 C48_3 1_555 1_555
C49_3 C48_3 1_555 1_555
C50_3 N3_3 1_555 1_555
H32_3 C50_3 1_555 1_555
C51_3 N3_3 1_555 1_555
C52_3 N4_3 1_555 1_555
C59_3 O14_3 1_555 1_555
C60_3 C59_3 1_555 1_555
C61_3 C60_3 1_555 1_555
H37_3 C61_3 1_555 1_555
O6_3 C19_3 1_555 1_555
C9_3 C10_3 1_555 1_555
C24_3 C25_3 1_555 1_555
C37_3 C38_3 1_555 1_555
C39_3 C40_3 1_555 1_555
C44_3 C52_3 1_555 1_555
C47_3 C51_3 1_555 1_555
C49_3 C50_3 1_555 1_555
C51_3 C52_3 1_555 1_555
C1_4 N2_4 1_555 1_555
C2_4 C1_4 1_555 1_555
H2_4 C2_4 1_555 1_555
C3_4 C2_4 1_555 1_555
H3_4 C3_4 1_555 1_555
C4_4 C3_4 1_555 1_555
C5_4 C4_4 1_555 1_555
H4_4 C5_4 1_555 1_555
C6_4 C5_4 1_555 1_555
H5_4 C6_4 1_555 1_555
C7_4 C6_4 1_555 1_555
C8_4 C7_4 1_555 1_555
H6_4 C8_4 1_555 1_555
C12_4 N2_4 1_555 1_555
C4_4 C12_4 1_555 1_555
C7_4 C11_4 1_555 1_555
C11_4 C12_4 1_555 1_555
H7_4 C9_4 1_555 1_555
C10_4 N1_4 1_555 1_555
H8_4 C10_4 1_555 1_555
H14_4 C22_4 1_555 1_555
O22_2 C34_4 1_555 1_555
O10_4 C34_4 1_555 1_555
C34_4 C35_4 1_555 1_555
C35_4 C36_4 1_555 1_555
C38_4 O7_5 1_555 1_555
C39_4 C38_4 1_555 1_555
C40_4 C35_4 1_555 1_555
H24_4 C40_4 1_555 1_555
Co5_2 O10_4 1_555 1_555
O18_2 C53_4 1_555 1_555
O20_2 C53_4 1_555 1_555
O21_2 C59_4 1_555 1_555
O14_4 Co5_2 1_555 1_555
O15_4 C63_4 1_555 1_555
C53_4 C54_4 1_555 1_555
C54_4 C55_4 1_555 1_555
C55_4 H33_4 1_555 1_555
C56_4 C55_4 1_555 1_555
H34_4 C56_4 1_555 1_555
C57_4 C54_4 1_555 1_555
H35_4 C57_4 1_555 1_555
C58_4 C57_4 1_555 1_555
H36_4 C58_4 1_555 1_555
C59_4 O14_4 1_555 1_555
C60_4 C59_4 1_555 1_555
C61_4 C60_4 1_555 1_555
H37_4 C61_4 1_555 1_555
C62_4 C61_4 1_555 1_555
H38_4 C62_4 1_555 1_555
C63_4 C62_4 1_555 1_555
C64_4 C63_4 1_555 1_555
H39_4 C64_4 1_555 1_555
C65_4 C60_4 1_555 1_555
H40_4 C65_4 1_555 1_555
C66_4 O15_4 1_555 1_555
C9_4 C10_4 1_555 1_555
C39_4 C40_4 1_555 1_555
C56_4 C66_4 1_555 1_555
C58_4 C66_4 1_555 1_555
C64_4 C65_4 1_555 1_555
O17_2 C13_4 1_555 1_555
O19_2 C13_4 1_555 1_555
O21 C26_4 1_555 1_555
O4_4 C26_4 1_555 1_555
O7_6 C23_4 1_555 1_555
O8_4 C30_4 1_555 1_555
C13_4 C14_4 1_555 1_555
C14_4 C15_4 1_555 1_555
C15_4 H9_4 1_555 1_555
C16_4 C15_4 1_555 1_555
H10_4 C16_4 1_555 1_555
C17_4 C14_4 1_555 1_555
H11_4 C17_4 1_555 1_555
C18_4 C17_4 1_555 1_555
H12_4 C18_4 1_555 1_555
C19_4 O22 1_555 1_555
C20_4 C19_4 1_555 1_555
C21_4 C20_4 1_555 1_555
C24_4 C23_4 1_555 1_555
C25_4 C20_4 1_555 1_555
H16_4 C25_4 1_555 1_555
C26_4 C27_4 1_555 1_555
C27_4 C28_4 1_555 1_555
C28_4 H17_4 1_555 1_555
C29_4 C28_4 1_555 1_555
H18_4 C29_4 1_555 1_555
C30_4 C29_4 1_555 1_555
C31_4 C30_4 1_555 1_555
H19_4 C31_4 1_555 1_555
C32_4 C27_4 1_555 1_555
H20_4 C32_4 1_555 1_555
C33_4 O8_4 1_555 1_555
H22_4 C37_4 1_555 1_555
C41_4 N4_4 1_555 1_555
C42_4 C41_4 1_555 1_555
H26_4 C42_4 1_555 1_555
C43_4 C42_4 1_555 1_555
H27_4 C43_4 1_555 1_555
C44_4 C43_4 1_555 1_555
C45_4 C44_4 1_555 1_555
H28_4 C45_4 1_555 1_555
C46_4 C45_4 1_555 1_555
H29_4 C46_4 1_555 1_555
C47_4 C46_4 1_555 1_555
C48_4 C47_4 1_555 1_555
H30_4 C48_4 1_555 1_555
C49_4 C48_4 1_555 1_555
H31_4 C49_4 1_555 1_555
C50_4 N3_4 1_555 1_555
H32_4 C50_4 1_555 1_555
C51_4 N3_4 1_555 1_555
C52_4 N4_4 1_555 1_555
O6_4 C19_4 1_555 1_555
C16_4 C33_4 1_555 1_555
C18_4 C33_4 1_555 1_555
C24_4 C25_4 1_555 1_555
C31_4 C32_4 1_555 1_555
C44_4 C52_4 1_555 1_555
C47_4 C51_4 1_555 1_555
C49_4 C50_4 1_555 1_555
C51_4 C52_4 1_555 1_555

#END
