
###############################################################################
#
# This file contains modified crystal structure data generated from the
# MOF subset of the Cambridge Structural Database (CSD) v543 
# hosted by the Cambridge Crystallographic Data Centre (CCDC).
#
# This work is licensed under the Creative Commons
# Attribution-NonCommercial-ShareAlike 4.0 International License.
# To view a copy of this license, visit
# http://creativecommons.org/licenses/by-nc-sa/4.0/
# or send a letter to
# Creative Commons, PO Box 1866, Mountain View, CA 94042, USA.
#
# CIF created using the CSD Python API on 29 September 2022
# The structure has been converted into the P1 space group
# The structure has a 3D framework
# The original CSD entry GAXGOD is in the monoclinic crystal system
# The framework has been calculated to contain at least 10.0% void space
# The void calculation uses a probe of radius 1.32A, grid spacing 0.4
#
###############################################################################

data_GAXGOD
_chemical_formula_moiety         '(C264 H160 Mn10 N16 O62)n'
_symmetry_cell_setting           triclinic
_symmetry_space_group_name_H-M   'P 1'
_symmetry_Int_Tables_number      1
_space_group_name_Hall           'P 1'
loop_
_symmetry_equiv_pos_site_id
_symmetry_equiv_pos_as_xyz
1 x,y,z
_cell_length_a                   15.2012(11)
_cell_length_b                   16.7136(12)
_cell_length_c                   25.8544(19)
_cell_angle_alpha                90
_cell_angle_beta                 90.2600(10)
_cell_angle_gamma                90
_cell_volume                     6568.68
loop_
_atom_site_label
_atom_site_type_symbol
_atom_site_fract_x
_atom_site_fract_y
_atom_site_fract_z
Mn1 Mn 0.02528(2) 0.67864(2) 0.001010(12)
H20 H 0.0167 0.8379 0.0713
Mn6 Mn 0.52528(2) 0.17864(2) 0.001010(12)
Mn7 Mn 0.2500 0.7500 0.0000
Mn8 Mn 0.7500 0.2500 0.0000
O11 O 0.14265(10) 0.72090(10) 0.05639(6)
O14 O 0.06289(12) 0.61370(10) 0.07107(6)
Mn2 Mn 0.2500 0.2500 0.5000
O1 O 0.07571(12) 0.59956(11) 0.94609(7)
O2 O 0.14265(10) 0.27910(10) 0.55639(6)
O3 O 0.06289(12) 0.38630(10) 0.57107(6)
O4 O 0.45812(11) 0.27650(12) 0.54704(7)
O5 O 0.20972(11) 0.65298(10) 0.94707(6)
O6 O 0.32664(11) 0.33436(10) 0.54481(6)
O7 O 0.26145(13) 0.36923(12) 0.78652(6)
O8 O 0.5000 0.47645(14) 0.7500
C1 C 0.15428(15) 0.60364(13) 0.93145(8)
C2 C 0.18136(14) 0.54295(13) 0.89157(8)
C3 C 0.26238(16) 0.54797(16) 0.86800(9)
H1 H 0.3003 0.5897 0.8764
C4 C 0.28787(17) 0.49094(17) 0.83161(10)
H2 H 0.3421 0.4949 0.8154
C5 C 0.23218(17) 0.42918(16) 0.82012(8)
C6 C 0.15147(17) 0.42237(16) 0.84333(9)
H3 H 0.1146 0.3798 0.8353
C7 C 0.12545(15) 0.47985(15) 0.87906(9)
H4 H 0.0706 0.4761 0.8946
C8 C 0.22376(16) 0.36390(15) 0.73774(8)
C9 C 0.16781(18) 0.42101(17) 0.71766(9)
H5 H 0.1522 0.4654 0.7372
C10 C 0.13517(17) 0.41146(16) 0.66798(9)
H6 H 0.0972 0.4496 0.6543
C11 C 0.15847(14) 0.34563(14) 0.63842(8)
C12 C 0.21545(15) 0.28933(14) 0.65895(8)
H7 H 0.2320 0.2453 0.6392
C13 C 0.24801(16) 0.29824(15) 0.70883(9)
H8 H 0.2860 0.2601 0.7227
C14 C 0.12026(14) 0.33710(14) 0.58559(8)
C15 C 0.39945(15) 0.32080(13) 0.56495(8)
C16 C 0.42226(13) 0.36134(13) 0.61547(7)
C17 C 0.49172(14) 0.33111(15) 0.64449(9)
H9 H 0.5216 0.2860 0.6329
C18 C 0.51721(16) 0.36677(16) 0.69024(9)
H10 H 0.5638 0.3461 0.7095
C19 C 0.47242(16) 0.43355(14) 0.70693(8)
C20 C 0.40051(16) 0.46287(14) 0.67993(8)
H11 H 0.3689 0.5063 0.6925
C21 C 0.37652(15) 0.42634(14) 0.63381(8)
H12 H 0.3289 0.4461 0.6150
Mn4 Mn 0.02528(2) 0.32136(2) 0.501010(12)
Mn5 Mn 0.47472(2) 0.17864(2) 0.498990(12)
Mn7_2 Mn 0.2500 0.7500 1.0000
Mn8_2 Mn 0.7500 0.2500 1.0000
O10 O 0.35735(10) 0.22090(10) 0.44361(6)
O13 O 0.43711(12) 0.11370(10) 0.42893(6)
O16 O 0.54188(11) 0.27650(12) 0.95296(7)
O17 O 0.04188(11) 0.77650(12) 0.95296(7)
O20 O 0.29028(11) 0.15298(10) 0.55293(6)
O21 O 0.20972(11) 0.34702(10) 0.44707(6)
O22 O 0.67336(11) 0.33436(10) 0.95519(6)
O23 O 0.17336(11) 0.16564(10) 0.45519(6)
O24 O 0.23855(13) 0.13077(12) 0.21348(6)
C37 C 0.21213(17) 0.00906(17) 0.16839(10)
H22 H 0.1579 0.0051 0.1846
C38 C 0.26782(17) 0.07082(16) 0.17988(8)
C39 C 0.34853(17) 0.07763(16) 0.15667(9)
H23 H 0.3854 0.1202 0.1647
C40 C 0.37455(15) 0.02015(15) 0.12094(9)
H24 H 0.4294 0.0239 0.1054
C41 C 0.27624(16) 0.13610(15) 0.26226(8)
C42 C 0.33219(18) 0.07899(17) 0.28234(9)
H25 H 0.3478 0.0346 0.2628
C43 C 0.36483(17) 0.08854(16) 0.33202(9)
H26 H 0.4028 0.0504 0.3457
C44 C 0.34153(14) 0.15437(14) 0.36158(8)
C45 C 0.28455(15) 0.21067(14) 0.34105(8)
H27 H 0.2680 0.2547 0.3608
C46 C 0.25199(16) 0.20176(15) 0.29117(9)
H28 H 0.2140 0.2399 0.2773
C47 C 0.37974(14) 0.16290(14) 0.41441(8)
C48 C 0.60055(15) 0.32080(13) 0.93505(8)
C49 C 0.57774(13) 0.36134(13) 0.88453(7)
C50 C 0.50828(14) 0.33111(15) 0.85551(9)
H29 H 0.4784 0.2860 0.8671
C51 C 0.48279(16) 0.36677(16) 0.80976(9)
H30 H 0.4362 0.3461 0.7905
C52 C 0.52758(16) 0.43355(14) 0.79307(8)
C53 C 0.59949(16) 0.46287(14) 0.82007(8)
H31 H 0.6311 0.5063 0.8075
C54 C 0.62348(15) 0.42634(14) 0.86619(8)
H32 H 0.6711 0.4461 0.8850
H34 H 0.7264 0.0279 0.0419
O9 O 0.42429(12) 0.90044(11) 0.05391(7)
O18 O 0.45812(11) 0.72350(12) 0.04704(7)
O19 O 0.29028(11) 0.84702(10) 0.05293(6)
N3 N 0.61001(12) 0.87866(12) 0.00270(7)
C34 C 0.34572(15) 0.89636(13) 0.06855(8)
C35 C 0.31864(14) 0.95705(13) 0.10843(8)
C36 C 0.23762(16) 0.95203(16) 0.13200(9)
H21 H 0.1997 0.9103 0.1236
C55 C 0.63100(17) 0.94573(15) 0.02692(10)
H33 H 0.5882 0.9708 0.0467
C56 C 0.71417(18) 0.98076(18) 0.02420(11)
Mn3 Mn 0.47472(2) 0.82136(2) 0.998990(12)
O12 O 0.35735(10) 0.77910(10) 0.94361(6)
O15 O 0.43711(12) 0.88630(10) 0.92893(6)
N4 N 0.56479(14) 0.74552(12) 0.95016(8)
C57 C 0.77726(18) 0.9444(2) 0.99493(12)
H35 H 0.8329 0.9671 0.9925
C58 C 0.75851(16) 0.87295(18) 0.96850(10)
C59 C 0.67224(15) 0.84263(15) 0.97322(9)
C60 C 0.64817(16) 0.77217(15) 0.94548(9)
C61 C 0.7104(2) 0.73284(19) 0.91370(12)
C62 C 0.82041(19) 0.8306(2) 0.93740(13)
H36 H 0.8779 0.8493 0.9353
C63 C 0.7978(2) 0.7648(2) 0.91119(14)
H37 H 0.8395 0.7392 0.8909
C64 C 0.6825(3) 0.6656(2) 0.88786(15)
H38 H 0.7214 0.6382 0.8665
C65 C 0.5988(3) 0.6388(2) 0.89322(17)
H39 H 0.5802 0.5930 0.8759
C66 C 0.5406(2) 0.68067(18) 0.92514(13)
H40 H 0.4833 0.6621 0.9287
N1 N 0.88999(12) 0.62134(12) 0.99730(7)
C22 C 0.86900(17) 0.55427(15) 0.97308(10)
H13 H 0.9118 0.5292 0.9533
C23 C 0.78583(18) 0.51924(18) 0.97580(11)
H14 H 0.7736 0.4721 0.9581
O10_2 O 0.64265(10) 0.22090(10) 0.05639(6)
O13_2 O 0.56289(12) 0.11370(10) 0.07107(6)
O21_2 O 0.79028(11) 0.34702(10) 0.05293(6)
O23_2 O 0.82664(11) 0.16564(10) 0.04481(6)
O24_2 O 0.76145(13) 0.13077(12) 0.28652(6)
C37_2 C 0.78787(17) 0.00906(17) 0.33161(10)
H22_2 H 0.8421 0.0051 0.3154
C38_2 C 0.73218(17) 0.07082(16) 0.32012(8)
C39_2 C 0.65147(17) 0.07763(16) 0.34333(9)
H23_2 H 0.6146 0.1202 0.3353
C40_2 C 0.62545(15) 0.02015(15) 0.37906(9)
H24_2 H 0.5706 0.0239 0.3946
C41_2 C 0.72376(16) 0.13610(15) 0.23774(8)
C42_2 C 0.66781(18) 0.07899(17) 0.21766(9)
H25_2 H 0.6522 0.0346 0.2372
C43_2 C 0.63517(17) 0.08854(16) 0.16798(9)
H26_2 H 0.5972 0.0504 0.1543
C44_2 C 0.65847(14) 0.15437(14) 0.13842(8)
C45_2 C 0.71545(15) 0.21067(14) 0.15895(8)
H27_2 H 0.7320 0.2547 0.1392
C46_2 C 0.74801(16) 0.20176(15) 0.20883(9)
H28_2 H 0.7860 0.2399 0.2227
C47_2 C 0.62026(14) 0.16290(14) 0.08559(8)
H34_2 H 0.2736 0.0279 0.4581
Mn1_2 Mn 0.97472(2) 0.67864(2) 0.498990(12)
O1_2 O 0.92429(12) 0.59956(11) 0.55391(7)
O2_2 O 0.85735(10) 0.27910(10) 0.94361(6)
O3_2 O 0.93711(12) 0.38630(10) 0.92893(6)
O5_2 O 0.79028(11) 0.65298(10) 0.55293(6)
O7_2 O 0.73855(13) 0.36923(12) 0.71348(6)
C1_2 C 0.84572(15) 0.60364(13) 0.56855(8)
C2_2 C 0.81864(14) 0.54295(13) 0.60843(8)
C3_2 C 0.73762(16) 0.54797(16) 0.63200(9)
H1_2 H 0.6997 0.5897 0.6236
C4_2 C 0.71213(17) 0.49094(17) 0.66839(10)
H2_2 H 0.6579 0.4949 0.6846
C5_2 C 0.76782(17) 0.42918(16) 0.67988(8)
C6_2 C 0.84853(17) 0.42237(16) 0.65667(9)
H3_2 H 0.8854 0.3798 0.6647
C7_2 C 0.87455(15) 0.47985(15) 0.62094(9)
H4_2 H 0.9294 0.4761 0.6054
C8_2 C 0.77624(16) 0.36390(15) 0.76226(8)
C9_2 C 0.83219(18) 0.42101(17) 0.78234(9)
H5_2 H 0.8478 0.4654 0.7628
C10_2 C 0.86483(17) 0.41146(16) 0.83202(9)
H6_2 H 0.9028 0.4496 0.8457
C11_2 C 0.84153(14) 0.34563(14) 0.86158(8)
C12_2 C 0.78455(15) 0.28933(14) 0.84105(8)
H7_2 H 0.7680 0.2453 0.8608
C13_2 C 0.75199(16) 0.29824(15) 0.79117(9)
H8_2 H 0.7140 0.2601 0.7773
C14_2 C 0.87974(14) 0.33710(14) 0.91441(8)
H20_2 H 0.9833 0.8379 0.4287
Mn4_2 Mn 0.97472(2) 0.32136(2) 0.998990(12)
Mn7_3 Mn 0.7500 0.7500 0.5000
O11_2 O 0.85735(10) 0.72090(10) 0.44361(6)
O14_2 O 0.93711(12) 0.61370(10) 0.42893(6)
O17_2 O 0.95812(11) 0.77650(12) 0.54704(7)
O20_2 O 0.70972(11) 0.15298(10) 0.94707(6)
Mn3_2 Mn 0.52528(2) 0.82136(2) 0.501010(12)
O9_2 O 0.57571(12) 0.90044(11) 0.44609(7)
O12_2 O 0.64265(10) 0.77910(10) 0.55639(6)
O15_2 O 0.56289(12) 0.88630(10) 0.57107(6)
O18_2 O 0.54188(11) 0.72350(12) 0.45296(7)
O19_2 O 0.70972(11) 0.84702(10) 0.44707(6)
N3_2 N 0.38999(12) 0.87866(12) 0.49730(7)
N4_2 N 0.43521(14) 0.74552(12) 0.54984(8)
C34_2 C 0.65428(15) 0.89636(13) 0.43145(8)
C35_2 C 0.68136(14) 0.95705(13) 0.39157(8)
C36_2 C 0.76238(16) 0.95203(16) 0.36800(9)
H21_2 H 0.8003 0.9103 0.3764
C55_2 C 0.36900(17) 0.94573(15) 0.47308(10)
H33_2 H 0.4118 0.9708 0.4533
C56_2 C 0.28583(18) 0.98076(18) 0.47580(11)
C57_2 C 0.22274(18) 0.9444(2) 0.50507(12)
H35_2 H 0.1671 0.9671 0.5075
C58_2 C 0.24149(16) 0.87295(18) 0.53150(10)
C59_2 C 0.32776(15) 0.84263(15) 0.52678(9)
C60_2 C 0.35183(16) 0.77217(15) 0.55452(9)
C61_2 C 0.2896(2) 0.73284(19) 0.58630(12)
C62_2 C 0.17959(19) 0.8306(2) 0.56260(13)
H36_2 H 0.1221 0.8493 0.5647
C63_2 C 0.2022(2) 0.7648(2) 0.58881(14)
H37_2 H 0.1605 0.7392 0.6091
C64_2 C 0.3175(3) 0.6656(2) 0.61214(15)
H38_2 H 0.2786 0.6382 0.6335
C65_2 C 0.4012(3) 0.6388(2) 0.60678(17)
H39_2 H 0.4198 0.5930 0.6241
C66_2 C 0.4594(2) 0.68067(18) 0.57486(13)
H40_2 H 0.5167 0.6621 0.5713
H31_2 H 0.1311 0.0063 0.8075
O8_2 O -0.0000 0.97645(14) 0.7500
H9_2 H 0.0216 0.7860 0.6329
C18_2 C 0.01721(16) 0.86677(16) 0.69024(9)
H10_2 H 0.0638 0.8461 0.7095
O22_2 O 0.17336(11) 0.83436(10) 0.95519(6)
N3_3 N 0.11001(12) 0.37866(12) 0.00270(7)
C48_2 C 0.10055(15) 0.82080(13) 0.93505(8)
C49_2 C 0.07774(13) 0.86134(13) 0.88453(7)
C50_2 C 0.00828(14) 0.83111(15) 0.85551(9)
C52_2 C 0.02758(16) 0.93355(14) 0.79307(8)
C53_2 C 0.09949(16) 0.96287(14) 0.82007(8)
C54_2 C 0.12348(15) 0.92634(14) 0.86619(8)
H32_2 H 0.1711 0.9461 0.8850
C55_3 C 0.13100(17) 0.44573(15) 0.02692(10)
H33_3 H 0.0882 0.4708 0.0467
C56_3 C 0.21417(18) 0.48076(18) 0.02420(11)
H34_3 H 0.2264 0.5279 0.0419
N2 N 0.43521(14) 0.25448(12) 0.04984(8)
C24 C 0.22274(18) 0.0556(2) 0.00507(12)
H15 H 0.1671 0.0329 0.0075
C25 C 0.24149(16) 0.12705(18) 0.03150(10)
C26 C 0.32776(15) 0.15737(15) 0.02678(9)
C27 C 0.35183(16) 0.22783(15) 0.05452(9)
C28 C 0.2896(2) 0.26716(19) 0.08630(12)
C29 C 0.17959(19) 0.1694(2) 0.06260(13)
H16 H 0.1221 0.1507 0.0647
C30 C 0.2022(2) 0.2352(2) 0.08881(14)
H17 H 0.1605 0.2608 0.1091
C31 C 0.3175(3) 0.3344(2) 0.11214(15)
H18 H 0.2786 0.3618 0.1335
C32 C 0.4012(3) 0.3612(2) 0.10678(17)
H19 H 0.4198 0.4070 0.1241
C33 C 0.4594(2) 0.31933(18) 0.07486(13)
H20_3 H 0.5167 0.3379 0.0713
O1_3 O 0.57571(12) 0.09956(11) 0.94609(7)
N1_2 N 0.38999(12) 0.12134(12) 0.99730(7)
C1_3 C 0.65428(15) 0.10364(13) 0.93145(8)
C2_3 C 0.68136(14) 0.04295(13) 0.89157(8)
C3_3 C 0.76238(16) 0.04797(16) 0.86800(9)
H1_3 H 0.8003 0.0897 0.8764
H11_2 H 0.8689 0.0063 0.6925
C22_2 C 0.36900(17) 0.05427(15) 0.97308(10)
H13_2 H 0.4118 0.0292 0.9533
C23_2 C 0.28583(18) 0.01924(18) 0.97580(11)
O6_2 O 0.82664(11) 0.83436(10) 0.54481(6)
O7_3 O 0.76145(13) 0.86923(12) 0.78652(6)
O8_3 O 1.0000 0.97645(14) 0.7500
C4_3 C 0.78787(17) 0.99094(17) 0.83161(10)
H2_3 H 0.8421 0.9949 0.8154
C5_3 C 0.73218(17) 0.92918(16) 0.82012(8)
C6_3 C 0.65147(17) 0.92237(16) 0.84333(9)
H3_3 H 0.6146 0.8798 0.8353
C7_3 C 0.62545(15) 0.97985(15) 0.87906(9)
H4_3 H 0.5706 0.9761 0.8946
C8_3 C 0.72376(16) 0.86390(15) 0.73774(8)
C9_3 C 0.66781(18) 0.92101(17) 0.71766(9)
H5_3 H 0.6522 0.9654 0.7372
C10_3 C 0.63517(17) 0.91146(16) 0.66798(9)
H6_3 H 0.5972 0.9496 0.6543
C11_3 C 0.65847(14) 0.84563(14) 0.63842(8)
C12_3 C 0.71545(15) 0.78933(14) 0.65895(8)
H7_3 H 0.7320 0.7453 0.6392
C13_3 C 0.74801(16) 0.79824(15) 0.70883(9)
H8_3 H 0.7860 0.7601 0.7227
C14_3 C 0.62026(14) 0.83710(14) 0.58559(8)
C15_2 C 0.89945(15) 0.82080(13) 0.56495(8)
C16_2 C 0.92226(13) 0.86134(13) 0.61547(7)
C17_2 C 0.99172(14) 0.83111(15) 0.64449(9)
C19_2 C 0.97242(16) 0.93355(14) 0.70693(8)
C20_2 C 0.90051(16) 0.96287(14) 0.67993(8)
C21_2 C 0.87652(15) 0.92634(14) 0.63381(8)
H12_2 H 0.8289 0.9461 0.6150
H14_2 H 0.2736 0.9721 0.9581
O9_3 O 0.92429(12) 0.40044(11) 0.05391(7)
O18_3 O 0.95812(11) 0.22350(12) 0.04704(7)
O23_3 O 0.67336(11) 0.66564(10) 0.45519(6)
O24_3 O 0.73855(13) 0.63077(12) 0.21348(6)
C34_3 C 0.84572(15) 0.39636(13) 0.06855(8)
C35_3 C 0.81864(14) 0.45705(13) 0.10843(8)
C36_3 C 0.73762(16) 0.45203(16) 0.13200(9)
H21_3 H 0.6997 0.4103 0.1236
C37_3 C 0.71213(17) 0.50906(17) 0.16839(10)
H22_3 H 0.6579 0.5051 0.1846
C38_3 C 0.76782(17) 0.57082(16) 0.17988(8)
C39_3 C 0.84853(17) 0.57763(16) 0.15667(9)
H23_3 H 0.8854 0.6202 0.1647
C40_3 C 0.87455(15) 0.52015(15) 0.12094(9)
H24_3 H 0.9294 0.5239 0.1054
C41_3 C 0.77624(16) 0.63610(15) 0.26226(8)
C42_3 C 0.83219(18) 0.57899(17) 0.28234(9)
H25_3 H 0.8478 0.5346 0.2628
C43_3 C 0.86483(17) 0.58854(16) 0.33202(9)
H26_3 H 0.9028 0.5504 0.3457
C44_3 C 0.84153(14) 0.65437(14) 0.36158(8)
C45_3 C 0.78455(15) 0.71067(14) 0.34105(8)
H27_3 H 0.7680 0.7547 0.3608
C46_3 C 0.75199(16) 0.70176(15) 0.29117(9)
H28_3 H 0.7140 0.7399 0.2773
C47_3 C 0.87974(14) 0.66290(14) 0.41441(8)
H29_2 H 0.9784 0.7860 0.8671
C51_2 C 0.98279(16) 0.86677(16) 0.80976(9)
H30_2 H 0.9362 0.8461 0.7905
H40_3 H 0.9833 0.1621 0.9287
O1_4 O 0.42429(12) 0.09956(11) 0.55391(7)
N1_3 N 0.61001(12) 0.12134(12) 0.50270(7)
N2_2 N 0.56479(14) 0.25448(12) 0.45016(8)
C1_4 C 0.34572(15) 0.10364(13) 0.56855(8)
C2_4 C 0.31864(14) 0.04295(13) 0.60843(8)
C3_4 C 0.23762(16) 0.04797(16) 0.63200(9)
H1_4 H 0.1997 0.0897 0.6236
C22_3 C 0.63100(17) 0.05427(15) 0.52692(10)
H13_3 H 0.5882 0.0292 0.5467
C23_3 C 0.71417(18) 0.01924(18) 0.52420(11)
C24_2 C 0.77726(18) 0.0556(2) 0.49493(12)
H15_2 H 0.8329 0.0329 0.4925
C25_2 C 0.75851(16) 0.12705(18) 0.46850(10)
C26_2 C 0.67224(15) 0.15737(15) 0.47322(9)
C27_2 C 0.64817(16) 0.22783(15) 0.44548(9)
C28_2 C 0.7104(2) 0.26716(19) 0.41370(12)
C29_2 C 0.82041(19) 0.1694(2) 0.43740(13)
H16_2 H 0.8779 0.1507 0.4353
C30_2 C 0.7978(2) 0.2352(2) 0.41119(14)
H17_2 H 0.8395 0.2608 0.3909
C31_2 C 0.6825(3) 0.3344(2) 0.38786(15)
H18_2 H 0.7214 0.3618 0.3665
C32_2 C 0.5988(3) 0.3612(2) 0.39322(17)
H19_2 H 0.5802 0.4070 0.3759
C33_2 C 0.5406(2) 0.31933(18) 0.42514(13)
H20_4 H 0.4833 0.3379 0.4287
O9_4 O 0.07571(12) 0.40044(11) 0.44609(7)
O18_4 O 0.04188(11) 0.22350(12) 0.45296(7)
O23_4 O 0.32664(11) 0.66564(10) 0.04481(6)
O24_4 O 0.26145(13) 0.63077(12) 0.28652(6)
C34_4 C 0.15428(15) 0.39636(13) 0.43145(8)
C35_4 C 0.18136(14) 0.45705(13) 0.39157(8)
C36_4 C 0.26238(16) 0.45203(16) 0.36800(9)
H21_4 H 0.3003 0.4103 0.3764
C37_4 C 0.28787(17) 0.50906(17) 0.33161(10)
H22_4 H 0.3421 0.5051 0.3154
C38_4 C 0.23218(17) 0.57082(16) 0.32012(8)
C39_4 C 0.15147(17) 0.57763(16) 0.34333(9)
H23_4 H 0.1146 0.6202 0.3353
C40_4 C 0.12545(15) 0.52015(15) 0.37906(9)
H24_4 H 0.0706 0.5239 0.3946
C41_4 C 0.22376(16) 0.63610(15) 0.23774(8)
C42_4 C 0.16781(18) 0.57899(17) 0.21766(9)
H25_4 H 0.1522 0.5346 0.2372
C43_4 C 0.13517(17) 0.58854(16) 0.16798(9)
H26_4 H 0.0972 0.5504 0.1543
C44_4 C 0.15847(14) 0.65437(14) 0.13842(8)
C45_4 C 0.21545(15) 0.71067(14) 0.15895(8)
H27_4 H 0.2320 0.7547 0.1392
C46_4 C 0.24801(16) 0.70176(15) 0.20883(9)
H28_4 H 0.2860 0.7399 0.2227
C47_4 C 0.12026(14) 0.66290(14) 0.08559(8)
H40_4 H 0.0167 0.1621 0.5713
O7_4 O 0.23855(13) 0.86923(12) 0.71348(6)
C4_4 C 0.21213(17) 0.99094(17) 0.66839(10)
H2_4 H 0.1579 0.9949 0.6846
C5_4 C 0.26782(17) 0.92918(16) 0.67988(8)
C6_4 C 0.34853(17) 0.92237(16) 0.65667(9)
H3_4 H 0.3854 0.8798 0.6647
C7_4 C 0.37455(15) 0.97985(15) 0.62094(9)
H4_4 H 0.4294 0.9761 0.6054
C8_4 C 0.27624(16) 0.86390(15) 0.76226(8)
C9_4 C 0.33219(18) 0.92101(17) 0.78234(9)
H5_4 H 0.3478 0.9654 0.7628
C10_4 C 0.36483(17) 0.91146(16) 0.83202(9)
H6_4 H 0.4028 0.9496 0.8457
C11_4 C 0.34153(14) 0.84563(14) 0.86158(8)
C12_4 C 0.28455(15) 0.78933(14) 0.84105(8)
H7_4 H 0.2680 0.7453 0.8608
C13_4 C 0.25199(16) 0.79824(15) 0.79117(9)
H8_4 H 0.2140 0.7601 0.7773
C14_4 C 0.37974(14) 0.83710(14) 0.91441(8)
H14_3 H 0.7264 0.9721 0.5419
O8_4 O 0.5000 0.52355(14) 0.2500
C15_3 C 0.60055(15) 0.67920(13) 0.43505(8)
C16_3 C 0.57774(13) 0.63866(13) 0.38453(7)
C17_3 C 0.50828(14) 0.66889(15) 0.35551(9)
H9_3 H 0.4784 0.7140 0.3671
C18_3 C 0.48279(16) 0.63323(16) 0.30976(9)
H10_3 H 0.4362 0.6539 0.2905
C19_3 C 0.52758(16) 0.56645(14) 0.29307(8)
C20_3 C 0.59949(16) 0.53713(14) 0.32007(8)
H11_3 H 0.6311 0.4937 0.3075
C21_3 C 0.62348(15) 0.57366(14) 0.36619(8)
H12_3 H 0.6711 0.5539 0.3850
C48_3 C 0.39945(15) 0.67920(13) 0.06495(8)
C49_3 C 0.42226(13) 0.63866(13) 0.11547(7)
C50_3 C 0.49172(14) 0.66889(15) 0.14449(9)
H29_3 H 0.5216 0.7140 0.1329
C51_3 C 0.51721(16) 0.63323(16) 0.19024(9)
H30_3 H 0.5638 0.6539 0.2095
C52_3 C 0.47242(16) 0.56645(14) 0.20693(8)
C53_3 C 0.40051(16) 0.53713(14) 0.17993(8)
H31_3 H 0.3689 0.4937 0.1925
C54_3 C 0.37652(15) 0.57366(14) 0.13381(8)
H32_3 H 0.3289 0.5539 0.1150
O8_5 O 0.0000 0.02355(14) 0.2500
C15_4 C 0.10055(15) 0.17920(13) 0.43505(8)
C16_4 C 0.07774(13) 0.13866(13) 0.38453(7)
C17_4 C 0.00828(14) 0.16889(15) 0.35551(9)
C19_4 C 0.02758(16) 0.06645(14) 0.29307(8)
C20_4 C 0.09949(16) 0.03713(14) 0.32007(8)
C21_4 C 0.12348(15) 0.07366(14) 0.36619(8)
H12_4 H 0.1711 0.0539 0.3850
H29_4 H 0.0216 0.2140 0.1329
C51_4 C 0.01721(16) 0.13323(16) 0.19024(9)
H30_4 H 0.0638 0.1539 0.2095
H11_4 H 0.1311 0.9937 0.3075
O8_6 O 1.0000 0.02355(14) 0.2500
H9_4 H 0.9784 0.2140 0.3671
C18_4 C 0.98279(16) 0.13323(16) 0.30976(9)
H10_4 H 0.9362 0.1539 0.2905
C48_4 C 0.89945(15) 0.17920(13) 0.06495(8)
C49_4 C 0.92226(13) 0.13866(13) 0.11547(7)
C50_4 C 0.99172(14) 0.16889(15) 0.14449(9)
C52_4 C 0.97242(16) 0.06645(14) 0.20693(8)
C53_4 C 0.90051(16) 0.03713(14) 0.17993(8)
C54_4 C 0.87652(15) 0.07366(14) 0.13381(8)
H32_4 H 0.8289 0.0539 0.1150
H31_4 H 0.8689 0.9937 0.1925
N2_3 N 0.93521(14) 0.75448(12) 0.04984(8)
C24_3 C 0.72274(18) 0.5556(2) 0.00507(12)
H15_3 H 0.6671 0.5329 0.0075
C25_3 C 0.74149(16) 0.62705(18) 0.03150(10)
C26_3 C 0.82776(15) 0.65737(15) 0.02678(9)
C27_3 C 0.85183(16) 0.72783(15) 0.05452(9)
C28_3 C 0.7896(2) 0.76716(19) 0.08630(12)
C29_3 C 0.67959(19) 0.6694(2) 0.06260(13)
H16_3 H 0.6221 0.6507 0.0647
C30_3 C 0.7022(2) 0.7352(2) 0.08881(14)
H17_3 H 0.6605 0.7608 0.1091
C31_3 C 0.8175(3) 0.8344(2) 0.11214(15)
H18_3 H 0.7786 0.8618 0.1335
C32_3 C 0.9012(3) 0.8612(2) 0.10678(17)
H19_3 H 0.9198 0.9070 0.1241
C33_3 C 0.9594(2) 0.81933(18) 0.07486(13)
N1_4 N 0.11001(12) 0.62134(12) 0.50270(7)
N2_4 N 0.06479(14) 0.75448(12) 0.45016(8)
C22_4 C 0.13100(17) 0.55427(15) 0.52692(10)
H13_4 H 0.0882 0.5292 0.5467
C23_4 C 0.21417(18) 0.51924(18) 0.52420(11)
H14_4 H 0.2264 0.4721 0.5419
C24_4 C 0.27726(18) 0.5556(2) 0.49493(12)
H15_4 H 0.3329 0.5329 0.4925
C25_4 C 0.25851(16) 0.62705(18) 0.46850(10)
C26_4 C 0.17224(15) 0.65737(15) 0.47322(9)
C27_4 C 0.14817(16) 0.72783(15) 0.44548(9)
C28_4 C 0.2104(2) 0.76716(19) 0.41370(12)
C29_4 C 0.32041(19) 0.6694(2) 0.43740(13)
H16_4 H 0.3779 0.6507 0.4353
C30_4 C 0.2978(2) 0.7352(2) 0.41119(14)
H17_4 H 0.3395 0.7608 0.3909
C31_4 C 0.1825(3) 0.8344(2) 0.38786(15)
H18_4 H 0.2214 0.8618 0.3665
C32_4 C 0.0988(3) 0.8612(2) 0.39322(17)
H19_4 H 0.0802 0.9070 0.3759
C33_4 C 0.0406(2) 0.81933(18) 0.42514(13)
N4_3 N 0.06479(14) 0.24552(12) 0.95016(8)
C57_3 C 0.27726(18) 0.4444(2) 0.99493(12)
H35_3 H 0.3329 0.4671 0.9925
C58_3 C 0.25851(16) 0.37295(18) 0.96850(10)
C59_3 C 0.17224(15) 0.34263(15) 0.97322(9)
C60_3 C 0.14817(16) 0.27217(15) 0.94548(9)
C61_3 C 0.2104(2) 0.23284(19) 0.91370(12)
C62_3 C 0.32041(19) 0.3306(2) 0.93740(13)
H36_3 H 0.3779 0.3493 0.9353
C63_3 C 0.2978(2) 0.2648(2) 0.91119(14)
H37_3 H 0.3395 0.2392 0.8909
C64_3 C 0.1825(3) 0.1656(2) 0.88786(15)
H38_3 H 0.2214 0.1382 0.8665
C65_3 C 0.0988(3) 0.1388(2) 0.89322(17)
H39_3 H 0.0802 0.0930 0.8759
C66_3 C 0.0406(2) 0.18067(18) 0.92514(13)
N3_4 N 0.88999(12) 0.37866(12) 0.49730(7)
N4_4 N 0.93521(14) 0.24552(12) 0.54984(8)
C55_4 C 0.86900(17) 0.44573(15) 0.47308(10)
H33_4 H 0.9118 0.4708 0.4533
C56_4 C 0.78583(18) 0.48076(18) 0.47580(11)
H34_4 H 0.7736 0.5279 0.4581
C57_4 C 0.72274(18) 0.4444(2) 0.50507(12)
H35_4 H 0.6671 0.4671 0.5075
C58_4 C 0.74149(16) 0.37295(18) 0.53150(10)
C59_4 C 0.82776(15) 0.34263(15) 0.52678(9)
C60_4 C 0.85183(16) 0.27217(15) 0.55452(9)
C61_4 C 0.7896(2) 0.23284(19) 0.58630(12)
C62_4 C 0.67959(19) 0.3306(2) 0.56260(13)
H36_4 H 0.6221 0.3493 0.5647
C63_4 C 0.7022(2) 0.2648(2) 0.58881(14)
H37_4 H 0.6605 0.2392 0.6091
C64_4 C 0.8175(3) 0.1656(2) 0.61214(15)
H38_4 H 0.7786 0.1382 0.6335
C65_4 C 0.9012(3) 0.1388(2) 0.60678(17)
H39_4 H 0.9198 0.0930 0.6241
C66_4 C 0.9594(2) 0.18067(18) 0.57486(13)
loop_
_geom_bond_atom_site_label_1
_geom_bond_atom_site_label_2
_geom_bond_site_symmetry_1
_geom_bond_site_symmetry_2
O11 Mn1 1_555 1_555
O14 Mn1 1_555 1_555
Mn7 O11 1_555 1_555
Mn2 O2 1_555 1_555
O1 C1 1_555 1_555
O2 C14 1_555 1_555
O3 C14 1_555 1_555
O4 C15 1_555 1_555
O5 C1 1_555 1_555
O6 Mn2 1_555 1_555
O7 C5 1_555 1_555
O8 C19 1_555 1_555
C1 C2 1_555 1_555
C2 C3 1_555 1_555
C3 H1 1_555 1_555
C4 C3 1_555 1_555
H2 C4 1_555 1_555
C5 C4 1_555 1_555
C6 C5 1_555 1_555
H3 C6 1_555 1_555
C7 C2 1_555 1_555
H4 C7 1_555 1_555
C8 O7 1_555 1_555
C9 C8 1_555 1_555
H5 C9 1_555 1_555
C10 C9 1_555 1_555
H6 C10 1_555 1_555
C11 C10 1_555 1_555
C12 C11 1_555 1_555
H7 C12 1_555 1_555
C13 C8 1_555 1_555
H8 C13 1_555 1_555
C14 C11 1_555 1_555
C15 O6 1_555 1_555
C16 C15 1_555 1_555
C17 C16 1_555 1_555
H9 C17 1_555 1_555
C18 C17 1_555 1_555
H10 C18 1_555 1_555
C19 C18 1_555 1_555
C20 C19 1_555 1_555
H11 C20 1_555 1_555
C21 C16 1_555 1_555
H12 C21 1_555 1_555
Mn4 O2 1_555 1_555
Mn5 O4 1_555 1_555
Mn7_2 O5 1_555 1_555
Mn8_2 O22 1_555 1_555
O10 Mn2 1_555 1_555
O13 Mn5 1_555 1_555
O16 C48 1_555 1_555
O20 Mn2 1_555 1_555
O21 Mn2 1_555 1_555
O22 C48 1_555 1_555
O23 Mn2 1_555 1_555
O24 C38 1_555 1_555
H22 C37 1_555 1_555
C38 C37 1_555 1_555
C39 C38 1_555 1_555
H23 C39 1_555 1_555
H24 C40 1_555 1_555
C41 O24 1_555 1_555
C42 C41 1_555 1_555
H25 C42 1_555 1_555
C43 C42 1_555 1_555
H26 C43 1_555 1_555
C44 C43 1_555 1_555
C45 C44 1_555 1_555
H27 C45 1_555 1_555
C46 C41 1_555 1_555
H28 C46 1_555 1_555
C47 O10 1_555 1_555
C48 C49 1_555 1_555
C49 C50 1_555 1_555
C50 H29 1_555 1_555
C51 C50 1_555 1_555
H30 C51 1_555 1_555
C52 O8 1_555 1_555
C53 C52 1_555 1_555
H31 C53 1_555 1_555
C54 C49 1_555 1_555
H32 C54 1_555 1_555
O3 Mn4 1_555 1_555
C6 C7 1_555 1_555
C12 C13 1_555 1_555
C20 C21 1_555 1_555
Mn5 O10 1_555 1_555
O13 C47 1_555 1_555
C39 C40 1_555 1_555
C44 C47 1_555 1_555
C45 C46 1_555 1_555
C51 C52 1_555 1_555
C53 C54 1_555 1_555
O9 C34 1_555 1_555
O19 Mn7 1_555 1_555
C34 O19 1_555 1_555
C35 C34 1_555 1_555
C36 C35 1_555 1_555
H21 C36 1_555 1_555
C55 N3 1_555 1_555
H33 C55 1_555 1_555
C56 C55 1_555 1_555
Mn7_2 O12 1_555 1_555
O12 Mn3 1_555 1_555
O15 Mn3 1_555 1_555
N4 Mn3 1_555 1_555
H35 C57 1_555 1_555
C58 C57 1_555 1_555
C60 N4 1_555 1_555
C61 C60 1_555 1_555
C62 C58 1_555 1_555
H36 C62 1_555 1_555
C63 C61 1_555 1_555
H37 C63 1_555 1_555
C64 C61 1_555 1_555
H38 C64 1_555 1_555
C65 C64 1_555 1_555
H39 C65 1_555 1_555
C66 N4 1_555 1_555
H40 C66 1_555 1_555
C58 C59 1_555 1_555
C59 C60 1_555 1_555
C62 C63 1_555 1_555
C65 C66 1_555 1_555
C22 N1 1_555 1_555
H13 C22 1_555 1_555
C23 C22 1_555 1_555
H14 C23 1_555 1_555
O10_2 Mn8 1_555 1_555
O13_2 Mn6 1_555 1_555
O21_2 Mn8 1_555 1_555
O23_2 Mn8 1_555 1_555
O24_2 C38_2 1_555 1_555
H22_2 C37_2 1_555 1_555
C38_2 C37_2 1_555 1_555
C39_2 C38_2 1_555 1_555
H23_2 C39_2 1_555 1_555
H24_2 C40_2 1_555 1_555
C41_2 O24_2 1_555 1_555
C42_2 C41_2 1_555 1_555
H25_2 C42_2 1_555 1_555
C43_2 C42_2 1_555 1_555
H26_2 C43_2 1_555 1_555
C44_2 C43_2 1_555 1_555
C45_2 C44_2 1_555 1_555
H27_2 C45_2 1_555 1_555
C46_2 C41_2 1_555 1_555
H28_2 C46_2 1_555 1_555
C47_2 O10_2 1_555 1_555
Mn6 O10_2 1_555 1_555
O13_2 C47_2 1_555 1_555
C39_2 C40_2 1_555 1_555
C44_2 C47_2 1_555 1_555
C45_2 C46_2 1_555 1_555
Mn1_2 O1_2 1_555 1_555
Mn8_2 O2_2 1_555 1_555
O1_2 C1_2 1_555 1_555
O2_2 C14_2 1_555 1_555
O3_2 C14_2 1_555 1_555
O5_2 C1_2 1_555 1_555
O7_2 C5_2 1_555 1_555
C1_2 C2_2 1_555 1_555
C2_2 C3_2 1_555 1_555
C3_2 H1_2 1_555 1_555
C4_2 C3_2 1_555 1_555
H2_2 C4_2 1_555 1_555
C5_2 C4_2 1_555 1_555
C6_2 C5_2 1_555 1_555
H3_2 C6_2 1_555 1_555
C7_2 C2_2 1_555 1_555
H4_2 C7_2 1_555 1_555
C8_2 O7_2 1_555 1_555
C9_2 C8_2 1_555 1_555
H5_2 C9_2 1_555 1_555
C10_2 C9_2 1_555 1_555
H6_2 C10_2 1_555 1_555
C11_2 C10_2 1_555 1_555
C12_2 C11_2 1_555 1_555
H7_2 C12_2 1_555 1_555
C13_2 C8_2 1_555 1_555
H8_2 C13_2 1_555 1_555
C14_2 C11_2 1_555 1_555
Mn4_2 O2_2 1_555 1_555
Mn7_3 O5_2 1_555 1_555
O11_2 Mn1_2 1_555 1_555
O14_2 Mn1_2 1_555 1_555
O17_2 Mn1_2 1_555 1_555
O20_2 Mn8_2 1_555 1_555
O3_2 Mn4_2 1_555 1_555
C6_2 C7_2 1_555 1_555
C12_2 C13_2 1_555 1_555
Mn7_3 O11_2 1_555 1_555
Mn3_2 O9_2 1_555 1_555
Mn7_3 O12_2 1_555 1_555
O9_2 C34_2 1_555 1_555
O12_2 Mn3_2 1_555 1_555
O15_2 Mn3_2 1_555 1_555
O18_2 Mn3_2 1_555 1_555
O19_2 Mn7_3 1_555 1_555
N3_2 Mn3_2 1_555 1_555
N4_2 Mn3_2 1_555 1_555
C34_2 O19_2 1_555 1_555
C35_2 C34_2 1_555 1_555
C36_2 C35_2 1_555 1_555
H21_2 C36_2 1_555 1_555
C55_2 N3_2 1_555 1_555
H33_2 C55_2 1_555 1_555
C56_2 C55_2 1_555 1_555
C57_2 C56_2 1_555 1_555
H35_2 C57_2 1_555 1_555
C58_2 C57_2 1_555 1_555
C59_2 N3_2 1_555 1_555
C60_2 N4_2 1_555 1_555
C61_2 C60_2 1_555 1_555
C62_2 C58_2 1_555 1_555
H36_2 C62_2 1_555 1_555
C63_2 C61_2 1_555 1_555
H37_2 C63_2 1_555 1_555
C64_2 C61_2 1_555 1_555
H38_2 C64_2 1_555 1_555
C65_2 C64_2 1_555 1_555
H39_2 C65_2 1_555 1_555
C66_2 N4_2 1_555 1_555
H40_2 C66_2 1_555 1_555
C58_2 C59_2 1_555 1_555
C59_2 C60_2 1_555 1_555
C62_2 C63_2 1_555 1_555
C65_2 C66_2 1_555 1_555
H10_2 C18_2 1_555 1_555
Mn7_2 O22_2 1_555 1_555
O17 C48_2 1_555 1_555
O22_2 C48_2 1_555 1_555
C48_2 C49_2 1_555 1_555
C49_2 C50_2 1_555 1_555
C52_2 O8_2 1_555 1_555
C53_2 C52_2 1_555 1_555
C54_2 C49_2 1_555 1_555
H32_2 C54_2 1_555 1_555
C55_3 N3_3 1_555 1_555
H33_3 C55_3 1_555 1_555
C56_3 C55_3 1_555 1_555
H34_3 C56_3 1_555 1_555
C53_2 C54_2 1_555 1_555
N2 Mn6 1_555 1_555
H15 C24 1_555 1_555
C25 C24 1_555 1_555
C27 N2 1_555 1_555
C28 C27 1_555 1_555
C29 C25 1_555 1_555
H16 C29 1_555 1_555
C30 C28 1_555 1_555
H17 C30 1_555 1_555
C31 C28 1_555 1_555
H18 C31 1_555 1_555
C32 C31 1_555 1_555
H19 C32 1_555 1_555
C33 N2 1_555 1_555
H20_3 C33 1_555 1_555
C25 C26 1_555 1_555
C26 C27 1_555 1_555
C29 C30 1_555 1_555
C32 C33 1_555 1_555
O1_3 C1_3 1_555 1_555
O20_2 C1_3 1_555 1_555
C1_3 C2_3 1_555 1_555
C2_3 C3_3 1_555 1_555
C3_3 H1_3 1_555 1_555
C22_2 N1_2 1_555 1_555
H13_2 C22_2 1_555 1_555
C23_2 C22_2 1_555 1_555
O12_2 C14_3 1_555 1_555
O15_2 C14_3 1_555 1_555
O17_2 C15_2 1_555 1_555
O6_2 Mn7_3 1_555 1_555
O7_3 C5_3 1_555 1_555
O8_3 C19_2 1_555 1_555
H2_3 C4_3 1_555 1_555
C5_3 C4_3 1_555 1_555
C6_3 C5_3 1_555 1_555
H3_3 C6_3 1_555 1_555
H4_3 C7_3 1_555 1_555
C8_3 O7_3 1_555 1_555
C9_3 C8_3 1_555 1_555
H5_3 C9_3 1_555 1_555
C10_3 C9_3 1_555 1_555
H6_3 C10_3 1_555 1_555
C11_3 C10_3 1_555 1_555
C12_3 C11_3 1_555 1_555
H7_3 C12_3 1_555 1_555
C13_3 C8_3 1_555 1_555
H8_3 C13_3 1_555 1_555
C14_3 C11_3 1_555 1_555
C15_2 O6_2 1_555 1_555
C16_2 C15_2 1_555 1_555
C17_2 C16_2 1_555 1_555
C20_2 C19_2 1_555 1_555
C21_2 C16_2 1_555 1_555
H12_2 C21_2 1_555 1_555
O9_3 C34_3 1_555 1_555
O23_3 Mn7_3 1_555 1_555
O24_3 C38_3 1_555 1_555
C34_3 O21_2 1_555 1_555
C35_3 C34_3 1_555 1_555
C36_3 C35_3 1_555 1_555
H21_3 C36_3 1_555 1_555
C37_3 C36_3 1_555 1_555
H22_3 C37_3 1_555 1_555
C38_3 C37_3 1_555 1_555
C39_3 C38_3 1_555 1_555
H23_3 C39_3 1_555 1_555
C40_3 C35_3 1_555 1_555
H24_3 C40_3 1_555 1_555
C41_3 O24_3 1_555 1_555
C42_3 C41_3 1_555 1_555
H25_3 C42_3 1_555 1_555
C43_3 C42_3 1_555 1_555
H26_3 C43_3 1_555 1_555
C44_3 C43_3 1_555 1_555
C45_3 C44_3 1_555 1_555
H27_3 C45_3 1_555 1_555
C46_3 C41_3 1_555 1_555
H28_3 C46_3 1_555 1_555
C47_3 O11_2 1_555 1_555
H30_2 C51_2 1_555 1_555
C6_3 C7_3 1_555 1_555
C12_3 C13_3 1_555 1_555
C20_2 C21_2 1_555 1_555
O14_2 C47_3 1_555 1_555
C39_3 C40_3 1_555 1_555
C44_3 C47_3 1_555 1_555
C45_3 C46_3 1_555 1_555
Mn5 O1_4 1_555 1_555
O1_4 C1_4 1_555 1_555
O20 C1_4 1_555 1_555
N1_3 Mn5 1_555 1_555
N2_2 Mn5 1_555 1_555
C1_4 C2_4 1_555 1_555
C2_4 C3_4 1_555 1_555
C3_4 H1_4 1_555 1_555
C22_3 N1_3 1_555 1_555
H13_3 C22_3 1_555 1_555
C23_3 C22_3 1_555 1_555
C24_2 C23_3 1_555 1_555
H15_2 C24_2 1_555 1_555
C25_2 C24_2 1_555 1_555
C26_2 N1_3 1_555 1_555
C27_2 N2_2 1_555 1_555
C28_2 C27_2 1_555 1_555
C29_2 C25_2 1_555 1_555
H16_2 C29_2 1_555 1_555
C30_2 C28_2 1_555 1_555
H17_2 C30_2 1_555 1_555
C31_2 C28_2 1_555 1_555
H18_2 C31_2 1_555 1_555
C32_2 C31_2 1_555 1_555
H19_2 C32_2 1_555 1_555
C33_2 N2_2 1_555 1_555
H20_4 C33_2 1_555 1_555
C25_2 C26_2 1_555 1_555
C26_2 C27_2 1_555 1_555
C29_2 C30_2 1_555 1_555
C32_2 C33_2 1_555 1_555
Mn4 O9_4 1_555 1_555
O9_4 C34_4 1_555 1_555
O18_4 Mn4 1_555 1_555
O23_4 Mn7 1_555 1_555
O24_4 C38_4 1_555 1_555
C34_4 O21 1_555 1_555
C35_4 C34_4 1_555 1_555
C36_4 C35_4 1_555 1_555
H21_4 C36_4 1_555 1_555
C37_4 C36_4 1_555 1_555
H22_4 C37_4 1_555 1_555
C38_4 C37_4 1_555 1_555
C39_4 C38_4 1_555 1_555
H23_4 C39_4 1_555 1_555
C40_4 C35_4 1_555 1_555
H24_4 C40_4 1_555 1_555
C41_4 O24_4 1_555 1_555
C42_4 C41_4 1_555 1_555
H25_4 C42_4 1_555 1_555
C43_4 C42_4 1_555 1_555
H26_4 C43_4 1_555 1_555
C44_4 C43_4 1_555 1_555
C45_4 C44_4 1_555 1_555
H27_4 C45_4 1_555 1_555
C46_4 C41_4 1_555 1_555
H28_4 C46_4 1_555 1_555
C47_4 O11 1_555 1_555
O14 C47_4 1_555 1_555
C39_4 C40_4 1_555 1_555
C44_4 C47_4 1_555 1_555
C45_4 C46_4 1_555 1_555
O12 C14_4 1_555 1_555
O15 C14_4 1_555 1_555
O7_4 C5_4 1_555 1_555
H2_4 C4_4 1_555 1_555
C5_4 C4_4 1_555 1_555
C6_4 C5_4 1_555 1_555
H3_4 C6_4 1_555 1_555
H4_4 C7_4 1_555 1_555
C8_4 O7_4 1_555 1_555
C9_4 C8_4 1_555 1_555
H5_4 C9_4 1_555 1_555
C10_4 C9_4 1_555 1_555
H6_4 C10_4 1_555 1_555
C11_4 C10_4 1_555 1_555
C12_4 C11_4 1_555 1_555
H7_4 C12_4 1_555 1_555
C13_4 C8_4 1_555 1_555
H8_4 C13_4 1_555 1_555
C14_4 C11_4 1_555 1_555
C6_4 C7_4 1_555 1_555
C12_4 C13_4 1_555 1_555
O18_2 C15_3 1_555 1_555
O8_4 C19_3 1_555 1_555
C15_3 O23_3 1_555 1_555
C16_3 C15_3 1_555 1_555
C17_3 C16_3 1_555 1_555
H9_3 C17_3 1_555 1_555
C18_3 C17_3 1_555 1_555
H10_3 C18_3 1_555 1_555
C19_3 C18_3 1_555 1_555
C20_3 C19_3 1_555 1_555
H11_3 C20_3 1_555 1_555
C21_3 C16_3 1_555 1_555
H12_3 C21_3 1_555 1_555
O18 C48_3 1_555 1_555
O23_4 C48_3 1_555 1_555
C48_3 C49_3 1_555 1_555
C49_3 C50_3 1_555 1_555
C50_3 H29_3 1_555 1_555
C51_3 C50_3 1_555 1_555
H30_3 C51_3 1_555 1_555
C52_3 O8_4 1_555 1_555
C53_3 C52_3 1_555 1_555
H31_3 C53_3 1_555 1_555
C54_3 C49_3 1_555 1_555
H32_3 C54_3 1_555 1_555
C20_3 C21_3 1_555 1_555
C51_3 C52_3 1_555 1_555
C53_3 C54_3 1_555 1_555
O18_4 C15_4 1_555 1_555
O8_5 C19_4 1_555 1_555
C15_4 O23 1_555 1_555
C16_4 C15_4 1_555 1_555
C17_4 C16_4 1_555 1_555
C20_4 C19_4 1_555 1_555
C21_4 C16_4 1_555 1_555
H12_4 C21_4 1_555 1_555
H30_4 C51_4 1_555 1_555
C20_4 C21_4 1_555 1_555
H10_4 C18_4 1_555 1_555
O18_3 C48_4 1_555 1_555
O23_2 C48_4 1_555 1_555
C48_4 C49_4 1_555 1_555
C49_4 C50_4 1_555 1_555
C52_4 O8_6 1_555 1_555
C53_4 C52_4 1_555 1_555
C54_4 C49_4 1_555 1_555
H32_4 C54_4 1_555 1_555
C53_4 C54_4 1_555 1_555
H15_3 C24_3 1_555 1_555
C25_3 C24_3 1_555 1_555
C27_3 N2_3 1_555 1_555
C28_3 C27_3 1_555 1_555
C29_3 C25_3 1_555 1_555
H16_3 C29_3 1_555 1_555
C30_3 C28_3 1_555 1_555
H17_3 C30_3 1_555 1_555
C31_3 C28_3 1_555 1_555
H18_3 C31_3 1_555 1_555
C32_3 C31_3 1_555 1_555
H19_3 C32_3 1_555 1_555
C33_3 N2_3 1_555 1_555
C25_3 C26_3 1_555 1_555
C26_3 C27_3 1_555 1_555
C29_3 C30_3 1_555 1_555
C32_3 C33_3 1_555 1_555
C22_4 N1_4 1_555 1_555
H13_4 C22_4 1_555 1_555
C23_4 C22_4 1_555 1_555
H14_4 C23_4 1_555 1_555
C24_4 C23_4 1_555 1_555
H15_4 C24_4 1_555 1_555
C25_4 C24_4 1_555 1_555
C26_4 N1_4 1_555 1_555
C27_4 N2_4 1_555 1_555
C28_4 C27_4 1_555 1_555
C29_4 C25_4 1_555 1_555
H16_4 C29_4 1_555 1_555
C30_4 C28_4 1_555 1_555
H17_4 C30_4 1_555 1_555
C31_4 C28_4 1_555 1_555
H18_4 C31_4 1_555 1_555
C32_4 C31_4 1_555 1_555
H19_4 C32_4 1_555 1_555
C33_4 N2_4 1_555 1_555
C25_4 C26_4 1_555 1_555
C26_4 C27_4 1_555 1_555
C29_4 C30_4 1_555 1_555
C32_4 C33_4 1_555 1_555
H35_3 C57_3 1_555 1_555
C58_3 C57_3 1_555 1_555
C60_3 N4_3 1_555 1_555
C61_3 C60_3 1_555 1_555
C62_3 C58_3 1_555 1_555
H36_3 C62_3 1_555 1_555
C63_3 C61_3 1_555 1_555
H37_3 C63_3 1_555 1_555
C64_3 C61_3 1_555 1_555
H38_3 C64_3 1_555 1_555
C65_3 C64_3 1_555 1_555
H39_3 C65_3 1_555 1_555
C66_3 N4_3 1_555 1_555
C58_3 C59_3 1_555 1_555
C59_3 C60_3 1_555 1_555
C62_3 C63_3 1_555 1_555
C65_3 C66_3 1_555 1_555
C55_4 N3_4 1_555 1_555
H33_4 C55_4 1_555 1_555
C56_4 C55_4 1_555 1_555
H34_4 C56_4 1_555 1_555
C57_4 C56_4 1_555 1_555
H35_4 C57_4 1_555 1_555
C58_4 C57_4 1_555 1_555
C59_4 N3_4 1_555 1_555
C60_4 N4_4 1_555 1_555
C61_4 C60_4 1_555 1_555
C62_4 C58_4 1_555 1_555
H36_4 C62_4 1_555 1_555
C63_4 C61_4 1_555 1_555
H37_4 C63_4 1_555 1_555
C64_4 C61_4 1_555 1_555
H38_4 C64_4 1_555 1_555
C65_4 C64_4 1_555 1_555
H39_4 C65_4 1_555 1_555
C66_4 N4_4 1_555 1_555
C58_4 C59_4 1_555 1_555
C59_4 C60_4 1_555 1_555
C62_4 C63_4 1_555 1_555
C65_4 C66_4 1_555 1_555

#END
