
###############################################################################
#
# This file contains modified crystal structure data generated from the
# MOF subset of the Cambridge Structural Database (CSD) v543 
# hosted by the Cambridge Crystallographic Data Centre (CCDC).
#
# This work is licensed under the Creative Commons
# Attribution-NonCommercial-ShareAlike 4.0 International License.
# To view a copy of this license, visit
# http://creativecommons.org/licenses/by-nc-sa/4.0/
# or send a letter to
# Creative Commons, PO Box 1866, Mountain View, CA 94042, USA.
#
# CIF created using the CSD Python API on 29 September 2022
# The structure has been converted into the P1 space group
# The structure has a 3D framework
# The original CSD entry GAXGOD01 is in the monoclinic crystal system
# The framework has been calculated to contain at least 10.0% void space
# The void calculation uses a probe of radius 1.32A, grid spacing 0.4
#
###############################################################################

data_GAXGOD01
_chemical_formula_moiety         '(C264 H160 Mn10 N16 O62)n'
_symmetry_cell_setting           triclinic
_symmetry_space_group_name_H-M   'P 1'
_symmetry_Int_Tables_number      1
_space_group_name_Hall           'P 1'
loop_
_symmetry_equiv_pos_site_id
_symmetry_equiv_pos_as_xyz
1 x,y,z
_cell_length_a                   15.2219(9)
_cell_length_b                   17.0336(10)
_cell_length_c                   25.7712(13)
_cell_angle_alpha                90
_cell_angle_beta                 90.547(2)
_cell_angle_gamma                90
_cell_volume                     6681.75
loop_
_atom_site_label
_atom_site_type_symbol
_atom_site_fract_x
_atom_site_fract_y
_atom_site_fract_z
Mn1 Mn 0.7500 0.2500 0.5000
Mn2 Mn 0.52483(2) 0.32120(2) 0.499291(14)
O1 O 0.71176(13) 0.34397(11) 0.44564(7)
O2 O 0.67194(13) 0.16620(11) 0.45597(7)
O3 O 0.64153(12) 0.71824(11) 0.05574(6)
O4 O 0.54251(13) 0.22633(14) 0.45047(8)
O5 O 0.5000 0.02218(16) 0.2500
O6 O 0.57961(14) 0.40002(12) 0.44742(8)
O7 O 0.55777(14) 0.61619(11) 0.07098(7)
C1 C 0.57613(16) 0.13783(15) 0.38484(9)
O8 O 0.76220(16) 0.62393(14) 0.28558(7)
N1 N 0.43171(17) 0.24565(13) 0.54448(9)
N2 N 0.39134(14) 0.38040(13) 0.49551(8)
C2 C 0.59982(18) 0.17994(15) 0.43432(10)
C3 C 0.50704(17) 0.16616(16) 0.35488(10)
H1 H 0.4771 0.2107 0.3658
C4 C 0.48173(18) 0.13021(18) 0.30967(10)
H2 H 0.4351 0.1498 0.2900
C5 C 0.52665(19) 0.06443(15) 0.29380(9)
C6 C 0.59697(19) 0.03601(15) 0.32139(10)
C7 C 0.62184(18) 0.07332(15) 0.36745(9)
H4 H 0.6696 0.0545 0.3865
C8 C 0.65687(18) 0.39373(16) 0.43107(9)
C9 C 0.68340(17) 0.45344(15) 0.39112(9)
C10 C 0.76436(19) 0.44800(18) 0.36661(11)
H5 H 0.8023 0.4069 0.3747
C11 C 0.7885(2) 0.5035(2) 0.33037(11)
H6 H 0.8420 0.4992 0.3136
C12 C 0.7335(2) 0.56483(19) 0.31921(10)
C13 C 0.72446(19) 0.63028(18) 0.23693(10)
C14 C 0.7481(2) 0.69528(17) 0.20878(10)
H7 H 0.7863 0.7322 0.2231
C15 C 0.71490(19) 0.70564(16) 0.15903(10)
H8 H 0.7317 0.7492 0.1398
C16 C 0.65702(17) 0.65179(16) 0.13768(9)
C17 C 0.61771(17) 0.66238(15) 0.08506(9)
C18 C 0.6349(2) 0.58610(18) 0.16646(10)
H9 H 0.5967 0.5491 0.1523
C19 C 0.6687(2) 0.5744(2) 0.21606(11)
H10 H 0.6541 0.5297 0.2349
C20 C 0.6533(2) 0.57213(19) 0.34362(11)
H11 H 0.6166 0.6144 0.3362
C21 C 0.62875(19) 0.51562(18) 0.37921(11)
H12 H 0.5746 0.5196 0.3953
C22 C 0.35017(19) 0.27461(17) 0.55081(10)
C23 C 0.32806(18) 0.34634(17) 0.52500(10)
C24 C 0.24404(19) 0.3792(2) 0.53124(12)
C25 C 0.2277(2) 0.4506(2) 0.50569(14)
H13 H 0.1731 0.4744 0.5086
C26 C 0.2910(2) 0.4851(2) 0.47686(13)
H14 H 0.2802 0.5327 0.4603
C27 C 0.37195(19) 0.44842(17) 0.47245(11)
H15 H 0.4148 0.4724 0.4524
C28 C 0.1818(2) 0.3385(3) 0.56265(15)
H16 H 0.1258 0.3594 0.5665
C29 C 0.2021(2) 0.2713(3) 0.58651(15)
H17 H 0.1601 0.2468 0.6070
C30 C 0.2866(2) 0.2361(2) 0.58139(13)
C31 C 0.3119(3) 0.1653(2) 0.60434(15)
H18 H 0.2724 0.1380 0.6249
C32 C 0.3925(3) 0.1363(2) 0.59708(16)
H19 H 0.4088 0.0889 0.6123
C33 C 0.4521(3) 0.17782(19) 0.56651(14)
H20 H 0.5079 0.1570 0.5615
O9 O 0.32806(13) 0.16620(11) 0.04403(7)
O10 O 0.45749(13) 0.22633(14) 0.04953(8)
C34 C 0.42387(16) 0.13783(15) 0.11516(9)
C35 C 0.40018(18) 0.17994(15) 0.06568(10)
C36 C 0.49296(17) 0.16616(16) 0.14512(10)
H21 H 0.5229 0.2107 0.1342
C37 C 0.51827(18) 0.13021(18) 0.19033(10)
H22 H 0.5649 0.1498 0.2100
C38 C 0.47335(19) 0.06443(15) 0.20620(9)
C39 C 0.40303(19) 0.03601(15) 0.17861(10)
C40 C 0.37816(18) 0.07332(15) 0.13255(9)
H24 H 0.3304 0.0545 0.1135
Mn3 Mn 0.47517(2) 0.32120(2) 0.000709(14)
O11 O 0.28824(13) 0.34397(11) 0.05436(7)
O12 O 0.35847(12) 0.71824(11) 0.44426(6)
O13 O 0.42039(14) 0.40002(12) 0.05258(8)
O14 O 0.44223(14) 0.61619(11) 0.42902(7)
O15 O 0.23780(16) 0.62393(14) 0.21442(7)
N4 N 0.60866(14) 0.38040(13) 0.00449(8)
C41 C 0.34313(18) 0.39373(16) 0.06893(9)
C42 C 0.31660(17) 0.45344(15) 0.10888(9)
C43 C 0.23564(19) 0.44800(18) 0.13339(11)
H25 H 0.1977 0.4069 0.1253
C44 C 0.2115(2) 0.5035(2) 0.16963(11)
H26 H 0.1580 0.4992 0.1864
C45 C 0.2665(2) 0.56483(19) 0.18079(10)
C46 C 0.27554(19) 0.63028(18) 0.26307(10)
C47 C 0.2519(2) 0.69528(17) 0.29122(10)
H27 H 0.2137 0.7322 0.2769
C48 C 0.28510(19) 0.70564(16) 0.34097(10)
H28 H 0.2683 0.7492 0.3602
C49 C 0.34298(17) 0.65179(16) 0.36232(9)
C50 C 0.38229(17) 0.66238(15) 0.41494(9)
C51 C 0.3651(2) 0.58610(18) 0.33354(10)
H29 H 0.4033 0.5491 0.3477
C52 C 0.3313(2) 0.5744(2) 0.28394(11)
H30 H 0.3459 0.5297 0.2651
C53 C 0.3467(2) 0.57213(19) 0.15638(11)
H31 H 0.3834 0.6144 0.1638
C54 C 0.37125(19) 0.51562(18) 0.12079(11)
H32 H 0.4254 0.5196 0.1047
C59 C 0.7090(2) 0.4851(2) 0.02314(13)
H34 H 0.7198 0.5327 0.0397
C60 C 0.62805(19) 0.44842(17) 0.02755(11)
H35 H 0.5852 0.4724 0.0476
Mn4 Mn 0.2500 0.2500 0.0000
Mn5 Mn 0.2500 0.7500 0.5000
Mn6 Mn 0.7500 0.7500 0.0000
Mn7 Mn 0.47517(2) 0.67880(2) 0.500709(14)
O16 O 0.78824(13) 0.15603(11) 0.55436(7)
O17 O 0.82806(13) 0.33380(11) 0.54403(7)
O18 O 0.85847(12) 0.21824(11) 0.44426(6)
O20 O 0.64153(12) 0.28176(11) 0.55574(6)
O22 O 0.55777(14) 0.38381(11) 0.57098(7)
N3 N 0.56829(17) 0.24565(13) 0.95552(9)
C55 C 0.64983(19) 0.27461(17) 0.94919(10)
C56 C 0.67194(18) 0.34634(17) 0.97500(10)
C57 C 0.75596(19) 0.3792(2) 0.96876(12)
C58 C 0.7723(2) 0.4506(2) 0.99431(14)
H33 H 0.8269 0.4744 0.9914
C61 C 0.8182(2) 0.3385(3) 0.93735(15)
H36 H 0.8742 0.3594 0.9335
C62 C 0.7979(2) 0.2713(3) 0.91349(15)
H37 H 0.8399 0.2468 0.8930
C63 C 0.7134(2) 0.2361(2) 0.91861(13)
C64 C 0.6881(3) 0.1653(2) 0.89566(15)
H38 H 0.7276 0.1380 0.8751
C65 C 0.6075(3) 0.1363(2) 0.90292(16)
H39 H 0.5912 0.0889 0.8877
C66 C 0.5479(3) 0.17782(19) 0.93349(14)
H40 H 0.4921 0.1570 0.9385
Mn4_2 Mn 0.2500 0.2500 1.0000
Mn6_2 Mn 0.7500 0.7500 1.0000
Mn8 Mn 0.52483(2) 0.67880(2) 0.999291(14)
O19 O 0.35847(12) 0.28176(11) 0.94426(6)
O21 O 0.44223(14) 0.38381(11) 0.92902(7)
O18_2 O 0.14153(12) 0.21824(11) 0.05574(6)
O16_2 O 0.21176(13) 0.15603(11) 0.94564(7)
O17_2 O 0.17194(13) 0.33380(11) 0.95597(7)
O7_2 O 0.05777(14) 0.11619(11) 0.07098(7)
O8_2 O 0.26220(16) 0.12393(14) 0.28558(7)
C11_2 C 0.2885(2) 0.0035(2) 0.33037(11)
C12_2 C 0.2335(2) 0.06483(19) 0.31921(10)
C13_2 C 0.22446(19) 0.13028(18) 0.23693(10)
C14_2 C 0.2481(2) 0.19528(17) 0.20878(10)
H7_2 H 0.2863 0.2322 0.2231
C15_2 C 0.21490(19) 0.20564(16) 0.15903(10)
H8_2 H 0.2317 0.2492 0.1398
C16_2 C 0.15702(17) 0.15179(16) 0.13768(9)
C17_2 C 0.11771(17) 0.16238(15) 0.08506(9)
C18_2 C 0.1349(2) 0.08610(18) 0.16646(10)
H9_2 H 0.0967 0.0491 0.1523
C19_2 C 0.1687(2) 0.0744(2) 0.21606(11)
H10_2 H 0.1541 0.0297 0.2349
C20_2 C 0.1533(2) 0.07213(19) 0.34362(11)
H11_2 H 0.1166 0.1144 0.3362
C21_2 C 0.12875(19) 0.01562(18) 0.37921(11)
H12_2 H 0.0746 0.0196 0.3953
H34_2 H 0.2198 0.0327 0.0397
Mn8_2 Mn 0.02483(2) 0.17880(2) 0.999291(14)
Mn2_2 Mn 0.02483(2) 0.82120(2) 0.499291(14)
O1_2 O 0.21176(13) 0.84397(11) 0.44564(7)
O2_2 O 0.17194(13) 0.66620(11) 0.45597(7)
O4_2 O 0.04251(13) 0.72633(14) 0.45047(8)
O5_2 O 0.0000 0.52218(16) 0.2500
O6_2 O 0.07961(14) 0.90002(12) 0.44742(8)
C1_2 C 0.07613(16) 0.63783(15) 0.38484(9)
C2_2 C 0.09982(18) 0.67994(15) 0.43432(10)
C3_2 C 0.00704(17) 0.66616(16) 0.35488(10)
C5_2 C 0.02665(19) 0.56443(15) 0.29380(9)
C6_2 C 0.09697(19) 0.53601(15) 0.32139(10)
H3 H 0.1278 0.4925 0.3096
C7_2 C 0.12184(18) 0.57332(15) 0.36745(9)
H4_2 H 0.1696 0.5545 0.3865
C8_2 C 0.15687(18) 0.89373(16) 0.43107(9)
C9_2 C 0.18340(17) 0.95344(15) 0.39112(9)
C10_2 C 0.26436(19) 0.94800(18) 0.36661(11)
H5_2 H 0.3023 0.9069 0.3747
H6_2 H 0.3420 0.9992 0.3136
H20_2 H 0.0079 0.6570 0.5615
H21_2 H 0.0229 0.7107 0.1342
C37_2 C 0.01827(18) 0.63021(18) 0.19033(10)
H22_2 H 0.0649 0.6498 0.2100
N4_2 N 0.10866(14) 0.88040(13) 0.00449(8)
C59_2 C 0.2090(2) 0.9851(2) 0.02314(13)
C60_2 C 0.12805(19) 0.94842(17) 0.02755(11)
H35_2 H 0.0852 0.9724 0.0476
O16_3 O 0.28824(13) 0.65603(11) 0.55436(7)
O17_3 O 0.32806(13) 0.83380(11) 0.54403(7)
O20_2 O 0.14153(12) 0.78176(11) 0.55574(6)
O22_2 O 0.05777(14) 0.88381(11) 0.57098(7)
H14_2 H 0.7802 0.0327 0.4603
O14_2 O 0.94223(14) 0.11619(11) 0.42902(7)
O15_2 O 0.73780(16) 0.12393(14) 0.21442(7)
C44_2 C 0.7115(2) 0.0035(2) 0.16963(11)
C45_2 C 0.7665(2) 0.06483(19) 0.18079(10)
C46_2 C 0.77554(19) 0.13028(18) 0.26307(10)
C47_2 C 0.7519(2) 0.19528(17) 0.29122(10)
H27_2 H 0.7137 0.2322 0.2769
C48_2 C 0.78510(19) 0.20564(16) 0.34097(10)
H28_2 H 0.7683 0.2492 0.3602
C49_2 C 0.84298(17) 0.15179(16) 0.36232(9)
C50_2 C 0.88229(17) 0.16238(15) 0.41494(9)
C51_2 C 0.8651(2) 0.08610(18) 0.33354(10)
H29_2 H 0.9033 0.0491 0.3477
C52_2 C 0.8313(2) 0.0744(2) 0.28394(11)
H30_2 H 0.8459 0.0297 0.2651
C53_2 C 0.8467(2) 0.07213(19) 0.15638(11)
H31_2 H 0.8834 0.1144 0.1638
C54_2 C 0.87125(19) 0.01562(18) 0.12079(11)
H32_2 H 0.9254 0.0196 0.1047
Mn7_2 Mn 0.97517(2) 0.17880(2) 0.500709(14)
O5_3 O 1.0000 0.52218(16) 0.2500
N1_2 N 0.93171(17) 0.74565(13) 0.54448(9)
N2_2 N 0.89134(14) 0.88040(13) 0.49551(8)
H1_2 H 0.9771 0.7107 0.3658
C4_2 C 0.98173(18) 0.63021(18) 0.30967(10)
H2_2 H 0.9351 0.6498 0.2900
C22_2 C 0.85017(19) 0.77461(17) 0.55081(10)
C23_2 C 0.82806(18) 0.84634(17) 0.52500(10)
C24_2 C 0.74404(19) 0.8792(2) 0.53124(12)
C25_2 C 0.7277(2) 0.9506(2) 0.50569(14)
H13_2 H 0.6731 0.9744 0.5086
C26_2 C 0.7910(2) 0.9851(2) 0.47686(13)
C27_2 C 0.87195(19) 0.94842(17) 0.47245(11)
H15_2 H 0.9148 0.9724 0.4524
C28_2 C 0.6818(2) 0.8385(3) 0.56265(15)
H16_2 H 0.6258 0.8594 0.5665
C29_2 C 0.7021(2) 0.7713(3) 0.58651(15)
H17_2 H 0.6601 0.7468 0.6070
C30_2 C 0.7866(2) 0.7361(2) 0.58139(13)
C31_2 C 0.8119(3) 0.6653(2) 0.60434(15)
H18_2 H 0.7724 0.6380 0.6249
C32_2 C 0.8925(3) 0.6363(2) 0.59708(16)
H19_2 H 0.9088 0.5889 0.6123
C33_2 C 0.9521(3) 0.67782(19) 0.56651(14)
O9_2 O 0.82806(13) 0.66620(11) 0.04403(7)
O10_2 O 0.95749(13) 0.72633(14) 0.04953(8)
C34_2 C 0.92387(16) 0.63783(15) 0.11516(9)
C35_2 C 0.90018(18) 0.67994(15) 0.06568(10)
C36_2 C 0.99296(17) 0.66616(16) 0.14512(10)
C38_2 C 0.97335(19) 0.56443(15) 0.20620(9)
C39_2 C 0.90303(19) 0.53601(15) 0.17861(10)
H23 H 0.8722 0.4925 0.1904
C40_2 C 0.87816(18) 0.57332(15) 0.13255(9)
H24_2 H 0.8304 0.5545 0.1135
Mn3_2 Mn 0.97517(2) 0.82120(2) 0.000709(14)
O11_2 O 0.78824(13) 0.84397(11) 0.05436(7)
O13_2 O 0.92039(14) 0.90002(12) 0.05258(8)
C41_2 C 0.84313(18) 0.89373(16) 0.06893(9)
C42_2 C 0.81660(17) 0.95344(15) 0.10888(9)
C43_2 C 0.73564(19) 0.94800(18) 0.13339(11)
H25_2 H 0.6977 0.9069 0.1253
H26_2 H 0.6580 0.9992 0.1864
H40_2 H 0.9921 0.6570 0.9385
O19_2 O 0.85847(12) 0.78176(11) 0.94426(6)
O21_2 O 0.94223(14) 0.88381(11) 0.92902(7)
O16_4 O 0.71176(13) 0.65603(11) 0.94564(7)
O17_4 O 0.67194(13) 0.83380(11) 0.95597(7)
N3_2 N 0.43171(17) 0.75435(13) 0.04448(9)
C55_2 C 0.35017(19) 0.72539(17) 0.05081(10)
C56_2 C 0.32806(18) 0.65366(17) 0.02500(10)
C57_2 C 0.24404(19) 0.6208(2) 0.03124(12)
C58_2 C 0.2277(2) 0.5494(2) 0.00569(14)
H33_2 H 0.1731 0.5256 0.0086
C61_2 C 0.1818(2) 0.6615(3) 0.06265(15)
H36_2 H 0.1258 0.6406 0.0665
C62_2 C 0.2021(2) 0.7287(3) 0.08651(15)
H37_2 H 0.1601 0.7532 0.1070
C63_2 C 0.2866(2) 0.7639(2) 0.08139(13)
C64_2 C 0.3119(3) 0.8347(2) 0.10434(15)
H38_2 H 0.2724 0.8620 0.1249
C65_2 C 0.3925(3) 0.8637(2) 0.09708(16)
H39_2 H 0.4088 0.9111 0.1123
C66_2 C 0.4521(3) 0.82218(19) 0.06651(14)
H40_3 H 0.5079 0.8430 0.0615
O4_3 O 0.45749(13) 0.77367(14) 0.54953(8)
O5_4 O 0.5000 0.97782(16) 0.7500
O6_3 O 0.42039(14) 0.59998(12) 0.55258(8)
C1_3 C 0.42387(16) 0.86217(15) 0.61516(9)
O8_3 O 0.23780(16) 0.37607(14) 0.71442(7)
N1_3 N 0.56829(17) 0.75435(13) 0.45552(9)
N2_3 N 0.60866(14) 0.61960(13) 0.50449(8)
C2_3 C 0.40018(18) 0.82006(15) 0.56568(10)
C3_3 C 0.49296(17) 0.83384(16) 0.64512(10)
H1_3 H 0.5229 0.7893 0.6342
C4_3 C 0.51827(18) 0.86979(18) 0.69033(10)
H2_3 H 0.5649 0.8502 0.7100
C5_3 C 0.47335(19) 0.93557(15) 0.70620(9)
C6_3 C 0.40303(19) 0.96399(15) 0.67861(10)
C7_3 C 0.37816(18) 0.92668(15) 0.63255(9)
H4_3 H 0.3304 0.9455 0.6135
C8_3 C 0.34313(18) 0.60627(16) 0.56893(9)
C9_3 C 0.31660(17) 0.54656(15) 0.60888(9)
C10_3 C 0.23564(19) 0.55200(18) 0.63339(11)
H5_3 H 0.1977 0.5931 0.6253
C11_3 C 0.2115(2) 0.4965(2) 0.66963(11)
H6_3 H 0.1580 0.5008 0.6864
C12_3 C 0.2665(2) 0.43517(19) 0.68079(10)
C13_3 C 0.27554(19) 0.36972(18) 0.76307(10)
C14_3 C 0.2519(2) 0.30472(17) 0.79122(10)
H7_3 H 0.2137 0.2678 0.7769
C15_3 C 0.28510(19) 0.29436(16) 0.84097(10)
H8_3 H 0.2683 0.2508 0.8602
C16_3 C 0.34298(17) 0.34821(16) 0.86232(9)
C17_3 C 0.38229(17) 0.33762(15) 0.91494(9)
C18_3 C 0.3651(2) 0.41390(18) 0.83354(10)
H9_3 H 0.4033 0.4509 0.8477
C19_3 C 0.3313(2) 0.4256(2) 0.78394(11)
H10_3 H 0.3459 0.4703 0.7651
C20_3 C 0.3467(2) 0.42787(19) 0.65638(11)
H11_3 H 0.3834 0.3856 0.6638
C21_3 C 0.37125(19) 0.48438(18) 0.62079(11)
H12_3 H 0.4254 0.4804 0.6047
C22_3 C 0.64983(19) 0.72539(17) 0.44919(10)
C23_3 C 0.67194(18) 0.65366(17) 0.47500(10)
C24_3 C 0.75596(19) 0.6208(2) 0.46876(12)
C25_3 C 0.7723(2) 0.5494(2) 0.49431(14)
H13_3 H 0.8269 0.5256 0.4914
C26_3 C 0.7090(2) 0.5149(2) 0.52314(13)
H14_3 H 0.7198 0.4673 0.5397
C27_3 C 0.62805(19) 0.55158(17) 0.52755(11)
H15_3 H 0.5852 0.5276 0.5476
C28_3 C 0.8182(2) 0.6615(3) 0.43735(15)
H16_3 H 0.8742 0.6406 0.4335
C29_3 C 0.7979(2) 0.7287(3) 0.41349(15)
H17_3 H 0.8399 0.7532 0.3930
C30_3 C 0.7134(2) 0.7639(2) 0.41861(13)
C31_3 C 0.6881(3) 0.8347(2) 0.39566(15)
H18_3 H 0.7276 0.8620 0.3751
C32_3 C 0.6075(3) 0.8637(2) 0.40292(16)
H19_3 H 0.5912 0.9111 0.3877
C33_3 C 0.5479(3) 0.82218(19) 0.43349(14)
H20_3 H 0.4921 0.8430 0.4385
O10_3 O 0.54251(13) 0.77367(14) 0.95047(8)
C34_3 C 0.57613(16) 0.86217(15) 0.88484(9)
C35_3 C 0.59982(18) 0.82006(15) 0.93432(10)
C36_3 C 0.50704(17) 0.83384(16) 0.85488(10)
H21_3 H 0.4771 0.7893 0.8658
C37_3 C 0.48173(18) 0.86979(18) 0.80967(10)
H22_3 H 0.4351 0.8502 0.7900
C38_3 C 0.52665(19) 0.93557(15) 0.79380(9)
C39_3 C 0.59697(19) 0.96399(15) 0.82139(10)
C40_3 C 0.62184(18) 0.92668(15) 0.86745(9)
H24_3 H 0.6696 0.9455 0.8865
O13_3 O 0.57961(14) 0.59998(12) 0.94742(8)
O15_3 O 0.76220(16) 0.37607(14) 0.78558(7)
N4_3 N 0.39134(14) 0.61960(13) 0.99551(8)
C41_3 C 0.65687(18) 0.60627(16) 0.93107(9)
C42_3 C 0.68340(17) 0.54656(15) 0.89112(9)
C43_3 C 0.76436(19) 0.55200(18) 0.86661(11)
H25_3 H 0.8023 0.5931 0.8747
C44_3 C 0.7885(2) 0.4965(2) 0.83037(11)
H26_3 H 0.8420 0.5008 0.8136
C45_3 C 0.7335(2) 0.43517(19) 0.81921(10)
C46_3 C 0.72446(19) 0.36972(18) 0.73693(10)
C47_3 C 0.7481(2) 0.30472(17) 0.70878(10)
H27_3 H 0.7863 0.2678 0.7231
C48_3 C 0.71490(19) 0.29436(16) 0.65903(10)
H28_3 H 0.7317 0.2508 0.6398
C49_3 C 0.65702(17) 0.34821(16) 0.63768(9)
C50_3 C 0.61771(17) 0.33762(15) 0.58506(9)
C51_3 C 0.6349(2) 0.41390(18) 0.66646(10)
H29_3 H 0.5967 0.4509 0.6523
C52_3 C 0.6687(2) 0.4256(2) 0.71606(11)
H30_3 H 0.6541 0.4703 0.7349
C53_3 C 0.6533(2) 0.42787(19) 0.84362(11)
H31_3 H 0.6166 0.3856 0.8362
C54_3 C 0.62875(19) 0.48438(18) 0.87921(11)
H32_3 H 0.5746 0.4804 0.8953
C59_3 C 0.2910(2) 0.5149(2) 0.97686(13)
H34_3 H 0.2802 0.4673 0.9603
C60_3 C 0.37195(19) 0.55158(17) 0.97245(11)
H35_3 H 0.4148 0.5276 0.9524
H40_4 H 0.0079 0.3430 0.0615
O5_5 O -0.0000 0.47782(16) 0.7500
N1_4 N 0.06829(17) 0.25435(13) 0.45552(9)
N2_4 N 0.10866(14) 0.11960(13) 0.50449(8)
H1_4 H 0.0229 0.2893 0.6342
C4_4 C 0.01827(18) 0.36979(18) 0.69033(10)
H2_4 H 0.0649 0.3502 0.7100
C22_4 C 0.14983(19) 0.22539(17) 0.44919(10)
C23_4 C 0.17194(18) 0.15366(17) 0.47500(10)
C24_4 C 0.25596(19) 0.1208(2) 0.46876(12)
C25_4 C 0.2723(2) 0.0494(2) 0.49431(14)
H13_4 H 0.3269 0.0256 0.4914
C26_4 C 0.2090(2) 0.0149(2) 0.52314(13)
C27_4 C 0.12805(19) 0.05158(17) 0.52755(11)
H15_4 H 0.0852 0.0276 0.5476
C28_4 C 0.3182(2) 0.1615(3) 0.43735(15)
H16_4 H 0.3742 0.1406 0.4335
C29_4 C 0.2979(2) 0.2287(3) 0.41349(15)
H17_4 H 0.3399 0.2532 0.3930
C30_4 C 0.2134(2) 0.2639(2) 0.41861(13)
C31_4 C 0.1881(3) 0.3347(2) 0.39566(15)
H18_4 H 0.2276 0.3620 0.3751
C32_4 C 0.1075(3) 0.3637(2) 0.40292(16)
H19_4 H 0.0912 0.4111 0.3877
C33_4 C 0.0479(3) 0.32218(19) 0.43349(14)
O10_4 O 0.04251(13) 0.27367(14) 0.95047(8)
C34_4 C 0.07613(16) 0.36217(15) 0.88484(9)
C35_4 C 0.09982(18) 0.32006(15) 0.93432(10)
C36_4 C 0.00704(17) 0.33384(16) 0.85488(10)
C38_4 C 0.02665(19) 0.43557(15) 0.79380(9)
C39_4 C 0.09697(19) 0.46399(15) 0.82139(10)
H23_2 H 0.1278 0.5075 0.8096
C40_4 C 0.12184(18) 0.42668(15) 0.86745(9)
H24_4 H 0.1696 0.4455 0.8865
O13_4 O 0.07961(14) 0.09998(12) 0.94742(8)
C41_4 C 0.15687(18) 0.10627(16) 0.93107(9)
C42_4 C 0.18340(17) 0.04656(15) 0.89112(9)
C43_4 C 0.26436(19) 0.05200(18) 0.86661(11)
H25_4 H 0.3023 0.0931 0.8747
H26_4 H 0.3420 0.0008 0.8136
H14_4 H 0.2198 0.9673 0.5397
O15_4 O 0.26220(16) 0.87607(14) 0.78558(7)
C44_4 C 0.2885(2) 0.9965(2) 0.83037(11)
C45_4 C 0.2335(2) 0.93517(19) 0.81921(10)
C46_4 C 0.22446(19) 0.86972(18) 0.73693(10)
C47_4 C 0.2481(2) 0.80472(17) 0.70878(10)
H27_4 H 0.2863 0.7678 0.7231
C48_4 C 0.21490(19) 0.79436(16) 0.65903(10)
H28_4 H 0.2317 0.7508 0.6398
C49_4 C 0.15702(17) 0.84821(16) 0.63768(9)
C50_4 C 0.11771(17) 0.83762(15) 0.58506(9)
C51_4 C 0.1349(2) 0.91390(18) 0.66646(10)
H29_4 H 0.0967 0.9509 0.6523
C52_4 C 0.1687(2) 0.9256(2) 0.71606(11)
H30_4 H 0.1541 0.9703 0.7349
C53_4 C 0.1533(2) 0.92787(19) 0.84362(11)
H31_4 H 0.1166 0.8856 0.8362
C54_4 C 0.12875(19) 0.98438(18) 0.87921(11)
H32_4 H 0.0746 0.9804 0.8953
O4_4 O 0.95749(13) 0.27367(14) 0.54953(8)
O5_6 O 1.0000 0.47782(16) 0.7500
O6_4 O 0.92039(14) 0.09998(12) 0.55258(8)
C1_4 C 0.92387(16) 0.36217(15) 0.61516(9)
C2_4 C 0.90018(18) 0.32006(15) 0.56568(10)
C3_4 C 0.99296(17) 0.33384(16) 0.64512(10)
C5_4 C 0.97335(19) 0.43557(15) 0.70620(9)
C6_4 C 0.90303(19) 0.46399(15) 0.67861(10)
H3_2 H 0.8722 0.5075 0.6904
C7_4 C 0.87816(18) 0.42668(15) 0.63255(9)
H4_4 H 0.8304 0.4455 0.6135
C8_4 C 0.84313(18) 0.10627(16) 0.56893(9)
C9_4 C 0.81660(17) 0.04656(15) 0.60888(9)
C10_4 C 0.73564(19) 0.05200(18) 0.63339(11)
H5_4 H 0.6977 0.0931 0.6253
H6_4 H 0.6580 0.0008 0.6864
H20_4 H 0.9921 0.3430 0.4385
H21_4 H 0.9771 0.2893 0.8658
C37_4 C 0.98173(18) 0.36979(18) 0.80967(10)
H22_4 H 0.9351 0.3502 0.7900
N4_4 N 0.89134(14) 0.11960(13) 0.99551(8)
C59_4 C 0.7910(2) 0.0149(2) 0.97686(13)
C60_4 C 0.87195(19) 0.05158(17) 0.97245(11)
H35_4 H 0.9148 0.0276 0.9524
O8_4 O 0.73780(16) 0.87607(14) 0.71442(7)
C11_4 C 0.7115(2) 0.9965(2) 0.66963(11)
C12_4 C 0.7665(2) 0.93517(19) 0.68079(10)
C13_4 C 0.77554(19) 0.86972(18) 0.76307(10)
C14_4 C 0.7519(2) 0.80472(17) 0.79122(10)
H7_4 H 0.7137 0.7678 0.7769
C15_4 C 0.78510(19) 0.79436(16) 0.84097(10)
H8_4 H 0.7683 0.7508 0.8602
C16_4 C 0.84298(17) 0.84821(16) 0.86232(9)
C17_4 C 0.88229(17) 0.83762(15) 0.91494(9)
C18_4 C 0.8651(2) 0.91390(18) 0.83354(10)
H9_4 H 0.9033 0.9509 0.8477
C19_4 C 0.8313(2) 0.9256(2) 0.78394(11)
H10_4 H 0.8459 0.9703 0.7651
C20_4 C 0.8467(2) 0.92787(19) 0.65638(11)
H11_4 H 0.8834 0.8856 0.6638
C21_4 C 0.87125(19) 0.98438(18) 0.62079(11)
H12_4 H 0.9254 0.9804 0.6047
H34_4 H 0.7802 0.9673 0.9603
H3_3 H 0.6278 0.9925 0.3096
H23_3 H 0.3722 0.9925 0.1904
N3_3 N 0.06829(17) 0.74565(13) 0.95552(9)
C55_3 C 0.14983(19) 0.77461(17) 0.94919(10)
C56_3 C 0.17194(18) 0.84634(17) 0.97500(10)
C57_3 C 0.25596(19) 0.8792(2) 0.96876(12)
C58_3 C 0.2723(2) 0.9506(2) 0.99431(14)
H33_3 H 0.3269 0.9744 0.9914
C61_3 C 0.3182(2) 0.8385(3) 0.93735(15)
H36_3 H 0.3742 0.8594 0.9335
C62_3 C 0.2979(2) 0.7713(3) 0.91349(15)
H37_3 H 0.3399 0.7468 0.8930
C63_3 C 0.2134(2) 0.7361(2) 0.91861(13)
C64_3 C 0.1881(3) 0.6653(2) 0.89566(15)
H38_3 H 0.2276 0.6380 0.8751
C65_3 C 0.1075(3) 0.6363(2) 0.90292(16)
H39_3 H 0.0912 0.5889 0.8877
C66_3 C 0.0479(3) 0.67782(19) 0.93349(14)
H3_4 H 0.3722 0.0075 0.6904
H23_4 H 0.6278 0.0075 0.8096
N3_4 N 0.93171(17) 0.25435(13) 0.04448(9)
C55_4 C 0.85017(19) 0.22539(17) 0.05081(10)
C56_4 C 0.82806(18) 0.15366(17) 0.02500(10)
C57_4 C 0.74404(19) 0.1208(2) 0.03124(12)
C58_4 C 0.7277(2) 0.0494(2) 0.00569(14)
H33_4 H 0.6731 0.0256 0.0086
C61_4 C 0.6818(2) 0.1615(3) 0.06265(15)
H36_4 H 0.6258 0.1406 0.0665
C62_4 C 0.7021(2) 0.2287(3) 0.08651(15)
H37_4 H 0.6601 0.2532 0.1070
C63_4 C 0.7866(2) 0.2639(2) 0.08139(13)
C64_4 C 0.8119(3) 0.3347(2) 0.10434(15)
H38_4 H 0.7724 0.3620 0.1249
C65_4 C 0.8925(3) 0.3637(2) 0.09708(16)
H39_4 H 0.9088 0.4111 0.1123
C66_4 C 0.9521(3) 0.32218(19) 0.06651(14)
loop_
_geom_bond_atom_site_label_1
_geom_bond_atom_site_label_2
_geom_bond_site_symmetry_1
_geom_bond_site_symmetry_2
Mn1 O1 1_555 1_555
Mn2 O4 1_555 1_555
O1 C8 1_555 1_555
O2 Mn1 1_555 1_555
O3 C17 1_555 1_555
O4 C2 1_555 1_555
O5 C5 1_555 1_555
O6 Mn2 1_555 1_555
O7 C17 1_555 1_555
C1 C2 1_555 1_555
O8 C12 1_555 1_555
N1 Mn2 1_555 1_555
N2 Mn2 1_555 1_555
C2 O2 1_555 1_555
C3 C1 1_555 1_555
H1 C3 1_555 1_555
C4 C3 1_555 1_555
H2 C4 1_555 1_555
C5 C4 1_555 1_555
C6 C5 1_555 1_555
C7 C1 1_555 1_555
H4 C7 1_555 1_555
C8 O6 1_555 1_555
C9 C8 1_555 1_555
C10 C9 1_555 1_555
H5 C10 1_555 1_555
C11 C10 1_555 1_555
H6 C11 1_555 1_555
C12 C11 1_555 1_555
C13 O8 1_555 1_555
C14 C13 1_555 1_555
H7 C14 1_555 1_555
C15 C14 1_555 1_555
H8 C15 1_555 1_555
C16 C15 1_555 1_555
C17 C16 1_555 1_555
C18 C16 1_555 1_555
H9 C18 1_555 1_555
C19 C13 1_555 1_555
H10 C19 1_555 1_555
C20 C12 1_555 1_555
H11 C20 1_555 1_555
C21 C9 1_555 1_555
H12 C21 1_555 1_555
C22 N1 1_555 1_555
C23 N2 1_555 1_555
C24 C23 1_555 1_555
C25 C24 1_555 1_555
H13 C25 1_555 1_555
C26 C25 1_555 1_555
H14 C26 1_555 1_555
C27 N2 1_555 1_555
H15 C27 1_555 1_555
C28 C24 1_555 1_555
H16 C28 1_555 1_555
C29 C28 1_555 1_555
H17 C29 1_555 1_555
C30 C22 1_555 1_555
C31 C30 1_555 1_555
H18 C31 1_555 1_555
C32 C31 1_555 1_555
H19 C32 1_555 1_555
C33 N1 1_555 1_555
H20 C33 1_555 1_555
O9 C35 1_555 1_555
O10 C35 1_555 1_555
C34 C35 1_555 1_555
C36 C34 1_555 1_555
H21 C36 1_555 1_555
C37 C36 1_555 1_555
H22 C37 1_555 1_555
C38 O5 1_555 1_555
C39 C38 1_555 1_555
C40 C34 1_555 1_555
H24 C40 1_555 1_555
Mn3 O10 1_555 1_555
O11 C41 1_555 1_555
O12 C50 1_555 1_555
O13 Mn3 1_555 1_555
O14 C50 1_555 1_555
O15 C45 1_555 1_555
N4 Mn3 1_555 1_555
C41 O13 1_555 1_555
C42 C41 1_555 1_555
C43 C42 1_555 1_555
H25 C43 1_555 1_555
C44 C43 1_555 1_555
H26 C44 1_555 1_555
C45 C44 1_555 1_555
C46 O15 1_555 1_555
C47 C46 1_555 1_555
H27 C47 1_555 1_555
C48 C47 1_555 1_555
H28 C48 1_555 1_555
C49 C48 1_555 1_555
C50 C49 1_555 1_555
C51 C49 1_555 1_555
H29 C51 1_555 1_555
C52 C46 1_555 1_555
H30 C52 1_555 1_555
C53 C45 1_555 1_555
H31 C53 1_555 1_555
C54 C42 1_555 1_555
H32 C54 1_555 1_555
H34 C59 1_555 1_555
C60 N4 1_555 1_555
H35 C60 1_555 1_555
Mn4 O9 1_555 1_555
Mn5 O12 1_555 1_555
Mn6 O3 1_555 1_555
Mn7 O12 1_555 1_555
O16 Mn1 1_555 1_555
O17 Mn1 1_555 1_555
O18 Mn1 1_555 1_555
O20 Mn1 1_555 1_555
O22 Mn2 1_555 1_555
Mn2 O20 1_555 1_555
C6 C7 1_555 1_555
C18 C19 1_555 1_555
C20 C21 1_555 1_555
C22 C23 1_555 1_555
C26 C27 1_555 1_555
C29 C30 1_555 1_555
C32 C33 1_555 1_555
C37 C38 1_555 1_555
C39 C40 1_555 1_555
O11 Mn4 1_555 1_555
O14 Mn7 1_555 1_555
C51 C52 1_555 1_555
C53 C54 1_555 1_555
C59 C60 1_555 1_555
C55 N3 1_555 1_555
C57 C56 1_555 1_555
C58 C57 1_555 1_555
H33 C58 1_555 1_555
C61 C57 1_555 1_555
H36 C61 1_555 1_555
C62 C61 1_555 1_555
H37 C62 1_555 1_555
C63 C55 1_555 1_555
C64 C63 1_555 1_555
H38 C64 1_555 1_555
C65 C64 1_555 1_555
H39 C65 1_555 1_555
C66 N3 1_555 1_555
H40 C66 1_555 1_555
C55 C56 1_555 1_555
C62 C63 1_555 1_555
C65 C66 1_555 1_555
Mn4_2 O19 1_555 1_555
O18_2 Mn4 1_555 1_555
O16_2 Mn4_2 1_555 1_555
O17_2 Mn4_2 1_555 1_555
O18_2 C17_2 1_555 1_555
O7_2 C17_2 1_555 1_555
O8_2 C12_2 1_555 1_555
C12_2 C11_2 1_555 1_555
C13_2 O8_2 1_555 1_555
C14_2 C13_2 1_555 1_555
H7_2 C14_2 1_555 1_555
C15_2 C14_2 1_555 1_555
H8_2 C15_2 1_555 1_555
C16_2 C15_2 1_555 1_555
C17_2 C16_2 1_555 1_555
C18_2 C16_2 1_555 1_555
H9_2 C18_2 1_555 1_555
C19_2 C13_2 1_555 1_555
H10_2 C19_2 1_555 1_555
C20_2 C12_2 1_555 1_555
H11_2 C20_2 1_555 1_555
H12_2 C21_2 1_555 1_555
C18_2 C19_2 1_555 1_555
C20_2 C21_2 1_555 1_555
Mn5 O1_2 1_555 1_555
Mn2_2 O4_2 1_555 1_555
O1_2 C8_2 1_555 1_555
O2_2 Mn5 1_555 1_555
O4_2 C2_2 1_555 1_555
O5_2 C5_2 1_555 1_555
O6_2 Mn2_2 1_555 1_555
C1_2 C2_2 1_555 1_555
C2_2 O2_2 1_555 1_555
C3_2 C1_2 1_555 1_555
C6_2 C5_2 1_555 1_555
H3 C6_2 1_555 1_555
C7_2 C1_2 1_555 1_555
H4_2 C7_2 1_555 1_555
C8_2 O6_2 1_555 1_555
C9_2 C8_2 1_555 1_555
C10_2 C9_2 1_555 1_555
H5_2 C10_2 1_555 1_555
H22_2 C37_2 1_555 1_555
C60_2 N4_2 1_555 1_555
H35_2 C60_2 1_555 1_555
O16_3 Mn5 1_555 1_555
O17_3 Mn5 1_555 1_555
O20_2 Mn5 1_555 1_555
O22_2 Mn2_2 1_555 1_555
Mn2_2 O20_2 1_555 1_555
C6_2 C7_2 1_555 1_555
C59_2 C60_2 1_555 1_555
O18 C50_2 1_555 1_555
O14_2 C50_2 1_555 1_555
O15_2 C45_2 1_555 1_555
C45_2 C44_2 1_555 1_555
C46_2 O15_2 1_555 1_555
C47_2 C46_2 1_555 1_555
H27_2 C47_2 1_555 1_555
C48_2 C47_2 1_555 1_555
H28_2 C48_2 1_555 1_555
C49_2 C48_2 1_555 1_555
C50_2 C49_2 1_555 1_555
C51_2 C49_2 1_555 1_555
H29_2 C51_2 1_555 1_555
C52_2 C46_2 1_555 1_555
H30_2 C52_2 1_555 1_555
C53_2 C45_2 1_555 1_555
H31_2 C53_2 1_555 1_555
H32_2 C54_2 1_555 1_555
Mn7_2 O18 1_555 1_555
O14_2 Mn7_2 1_555 1_555
C51_2 C52_2 1_555 1_555
C53_2 C54_2 1_555 1_555
H2_2 C4_2 1_555 1_555
C22_2 N1_2 1_555 1_555
C23_2 N2_2 1_555 1_555
C24_2 C23_2 1_555 1_555
C25_2 C24_2 1_555 1_555
H13_2 C25_2 1_555 1_555
C26_2 C25_2 1_555 1_555
C27_2 N2_2 1_555 1_555
H15_2 C27_2 1_555 1_555
C28_2 C24_2 1_555 1_555
H16_2 C28_2 1_555 1_555
C29_2 C28_2 1_555 1_555
H17_2 C29_2 1_555 1_555
C30_2 C22_2 1_555 1_555
C31_2 C30_2 1_555 1_555
H18_2 C31_2 1_555 1_555
C32_2 C31_2 1_555 1_555
H19_2 C32_2 1_555 1_555
C33_2 N1_2 1_555 1_555
O9_2 C35_2 1_555 1_555
O10_2 C35_2 1_555 1_555
C34_2 C35_2 1_555 1_555
C36_2 C34_2 1_555 1_555
C38_2 O5_3 1_555 1_555
C39_2 C38_2 1_555 1_555
H23 C39_2 1_555 1_555
C40_2 C34_2 1_555 1_555
H24_2 C40_2 1_555 1_555
Mn3_2 O10_2 1_555 1_555
O11_2 C41_2 1_555 1_555
O13_2 Mn3_2 1_555 1_555
C41_2 O13_2 1_555 1_555
C42_2 C41_2 1_555 1_555
C43_2 C42_2 1_555 1_555
H25_2 C43_2 1_555 1_555
Mn6 O9_2 1_555 1_555
C22_2 C23_2 1_555 1_555
C26_2 C27_2 1_555 1_555
C29_2 C30_2 1_555 1_555
C32_2 C33_2 1_555 1_555
C39_2 C40_2 1_555 1_555
O11_2 Mn6 1_555 1_555
Mn6_2 O19_2 1_555 1_555
O16_4 Mn6_2 1_555 1_555
O17_4 Mn6_2 1_555 1_555
C55_2 N3_2 1_555 1_555
C57_2 C56_2 1_555 1_555
C58_2 C57_2 1_555 1_555
H33_2 C58_2 1_555 1_555
C61_2 C57_2 1_555 1_555
H36_2 C61_2 1_555 1_555
C62_2 C61_2 1_555 1_555
H37_2 C62_2 1_555 1_555
C63_2 C55_2 1_555 1_555
C64_2 C63_2 1_555 1_555
H38_2 C64_2 1_555 1_555
C65_2 C64_2 1_555 1_555
H39_2 C65_2 1_555 1_555
C66_2 N3_2 1_555 1_555
H40_3 C66_2 1_555 1_555
C55_2 C56_2 1_555 1_555
C62_2 C63_2 1_555 1_555
C65_2 C66_2 1_555 1_555
Mn7 O4_3 1_555 1_555
O16_3 C8_3 1_555 1_555
O19 C17_3 1_555 1_555
O4_3 C2_3 1_555 1_555
O5_4 C5_3 1_555 1_555
O6_3 Mn7 1_555 1_555
O21 C17_3 1_555 1_555
C1_3 C2_3 1_555 1_555
O8_3 C12_3 1_555 1_555
N1_3 Mn7 1_555 1_555
N2_3 Mn7 1_555 1_555
C2_3 O17_3 1_555 1_555
C3_3 C1_3 1_555 1_555
H1_3 C3_3 1_555 1_555
C4_3 C3_3 1_555 1_555
H2_3 C4_3 1_555 1_555
C5_3 C4_3 1_555 1_555
C6_3 C5_3 1_555 1_555
C7_3 C1_3 1_555 1_555
H4_3 C7_3 1_555 1_555
C8_3 O6_3 1_555 1_555
C9_3 C8_3 1_555 1_555
C10_3 C9_3 1_555 1_555
H5_3 C10_3 1_555 1_555
C11_3 C10_3 1_555 1_555
H6_3 C11_3 1_555 1_555
C12_3 C11_3 1_555 1_555
C13_3 O8_3 1_555 1_555
C14_3 C13_3 1_555 1_555
H7_3 C14_3 1_555 1_555
C15_3 C14_3 1_555 1_555
H8_3 C15_3 1_555 1_555
C16_3 C15_3 1_555 1_555
C17_3 C16_3 1_555 1_555
C18_3 C16_3 1_555 1_555
H9_3 C18_3 1_555 1_555
C19_3 C13_3 1_555 1_555
H10_3 C19_3 1_555 1_555
C20_3 C12_3 1_555 1_555
H11_3 C20_3 1_555 1_555
C21_3 C9_3 1_555 1_555
H12_3 C21_3 1_555 1_555
C22_3 N1_3 1_555 1_555
C23_3 N2_3 1_555 1_555
C24_3 C23_3 1_555 1_555
C25_3 C24_3 1_555 1_555
H13_3 C25_3 1_555 1_555
C26_3 C25_3 1_555 1_555
H14_3 C26_3 1_555 1_555
C27_3 N2_3 1_555 1_555
H15_3 C27_3 1_555 1_555
C28_3 C24_3 1_555 1_555
H16_3 C28_3 1_555 1_555
C29_3 C28_3 1_555 1_555
H17_3 C29_3 1_555 1_555
C30_3 C22_3 1_555 1_555
C31_3 C30_3 1_555 1_555
H18_3 C31_3 1_555 1_555
C32_3 C31_3 1_555 1_555
H19_3 C32_3 1_555 1_555
C33_3 N1_3 1_555 1_555
H20_3 C33_3 1_555 1_555
O17_4 C35_3 1_555 1_555
O10_3 C35_3 1_555 1_555
C34_3 C35_3 1_555 1_555
C36_3 C34_3 1_555 1_555
H21_3 C36_3 1_555 1_555
C37_3 C36_3 1_555 1_555
H22_3 C37_3 1_555 1_555
C38_3 O5_4 1_555 1_555
C39_3 C38_3 1_555 1_555
C40_3 C34_3 1_555 1_555
H24_3 C40_3 1_555 1_555
Mn8 O10_3 1_555 1_555
O16_4 C41_3 1_555 1_555
O20 C50_3 1_555 1_555
O13_3 Mn8 1_555 1_555
O22 C50_3 1_555 1_555
O15_3 C45_3 1_555 1_555
N4_3 Mn8 1_555 1_555
C41_3 O13_3 1_555 1_555
C42_3 C41_3 1_555 1_555
C43_3 C42_3 1_555 1_555
H25_3 C43_3 1_555 1_555
C44_3 C43_3 1_555 1_555
H26_3 C44_3 1_555 1_555
C45_3 C44_3 1_555 1_555
C46_3 O15_3 1_555 1_555
C47_3 C46_3 1_555 1_555
H27_3 C47_3 1_555 1_555
C48_3 C47_3 1_555 1_555
H28_3 C48_3 1_555 1_555
C49_3 C48_3 1_555 1_555
C50_3 C49_3 1_555 1_555
C51_3 C49_3 1_555 1_555
H29_3 C51_3 1_555 1_555
C52_3 C46_3 1_555 1_555
H30_3 C52_3 1_555 1_555
C53_3 C45_3 1_555 1_555
H31_3 C53_3 1_555 1_555
C54_3 C42_3 1_555 1_555
H32_3 C54_3 1_555 1_555
H34_3 C59_3 1_555 1_555
C60_3 N4_3 1_555 1_555
H35_3 C60_3 1_555 1_555
C6_3 C7_3 1_555 1_555
C18_3 C19_3 1_555 1_555
C20_3 C21_3 1_555 1_555
C22_3 C23_3 1_555 1_555
C26_3 C27_3 1_555 1_555
C29_3 C30_3 1_555 1_555
C32_3 C33_3 1_555 1_555
C37_3 C38_3 1_555 1_555
C39_3 C40_3 1_555 1_555
C51_3 C52_3 1_555 1_555
C53_3 C54_3 1_555 1_555
C59_3 C60_3 1_555 1_555
H2_4 C4_4 1_555 1_555
C22_4 N1_4 1_555 1_555
C23_4 N2_4 1_555 1_555
C24_4 C23_4 1_555 1_555
C25_4 C24_4 1_555 1_555
H13_4 C25_4 1_555 1_555
C26_4 C25_4 1_555 1_555
C27_4 N2_4 1_555 1_555
H15_4 C27_4 1_555 1_555
C28_4 C24_4 1_555 1_555
H16_4 C28_4 1_555 1_555
C29_4 C28_4 1_555 1_555
H17_4 C29_4 1_555 1_555
C30_4 C22_4 1_555 1_555
C31_4 C30_4 1_555 1_555
H18_4 C31_4 1_555 1_555
C32_4 C31_4 1_555 1_555
H19_4 C32_4 1_555 1_555
C33_4 N1_4 1_555 1_555
O17_2 C35_4 1_555 1_555
O10_4 C35_4 1_555 1_555
C34_4 C35_4 1_555 1_555
C36_4 C34_4 1_555 1_555
C38_4 O5_5 1_555 1_555
C39_4 C38_4 1_555 1_555
H23_2 C39_4 1_555 1_555
C40_4 C34_4 1_555 1_555
H24_4 C40_4 1_555 1_555
Mn8_2 O10_4 1_555 1_555
O16_2 C41_4 1_555 1_555
O13_4 Mn8_2 1_555 1_555
C41_4 O13_4 1_555 1_555
C42_4 C41_4 1_555 1_555
C43_4 C42_4 1_555 1_555
H25_4 C43_4 1_555 1_555
C22_4 C23_4 1_555 1_555
C26_4 C27_4 1_555 1_555
C29_4 C30_4 1_555 1_555
C32_4 C33_4 1_555 1_555
C39_4 C40_4 1_555 1_555
O20_2 C50_4 1_555 1_555
O22_2 C50_4 1_555 1_555
O15_4 C45_4 1_555 1_555
C45_4 C44_4 1_555 1_555
C46_4 O15_4 1_555 1_555
C47_4 C46_4 1_555 1_555
H27_4 C47_4 1_555 1_555
C48_4 C47_4 1_555 1_555
H28_4 C48_4 1_555 1_555
C49_4 C48_4 1_555 1_555
C50_4 C49_4 1_555 1_555
C51_4 C49_4 1_555 1_555
H29_4 C51_4 1_555 1_555
C52_4 C46_4 1_555 1_555
H30_4 C52_4 1_555 1_555
C53_4 C45_4 1_555 1_555
H31_4 C53_4 1_555 1_555
H32_4 C54_4 1_555 1_555
C51_4 C52_4 1_555 1_555
C53_4 C54_4 1_555 1_555
Mn7_2 O4_4 1_555 1_555
O16 C8_4 1_555 1_555
O4_4 C2_4 1_555 1_555
O5_6 C5_4 1_555 1_555
O6_4 Mn7_2 1_555 1_555
C1_4 C2_4 1_555 1_555
C2_4 O17 1_555 1_555
C3_4 C1_4 1_555 1_555
C6_4 C5_4 1_555 1_555
H3_2 C6_4 1_555 1_555
C7_4 C1_4 1_555 1_555
H4_4 C7_4 1_555 1_555
C8_4 O6_4 1_555 1_555
C9_4 C8_4 1_555 1_555
C10_4 C9_4 1_555 1_555
H5_4 C10_4 1_555 1_555
H22_4 C37_4 1_555 1_555
C60_4 N4_4 1_555 1_555
H35_4 C60_4 1_555 1_555
C6_4 C7_4 1_555 1_555
C59_4 C60_4 1_555 1_555
O19_2 C17_4 1_555 1_555
O21_2 C17_4 1_555 1_555
O8_4 C12_4 1_555 1_555
C12_4 C11_4 1_555 1_555
C13_4 O8_4 1_555 1_555
C14_4 C13_4 1_555 1_555
H7_4 C14_4 1_555 1_555
C15_4 C14_4 1_555 1_555
H8_4 C15_4 1_555 1_555
C16_4 C15_4 1_555 1_555
C17_4 C16_4 1_555 1_555
C18_4 C16_4 1_555 1_555
H9_4 C18_4 1_555 1_555
C19_4 C13_4 1_555 1_555
H10_4 C19_4 1_555 1_555
C20_4 C12_4 1_555 1_555
H11_4 C20_4 1_555 1_555
H12_4 C21_4 1_555 1_555
C18_4 C19_4 1_555 1_555
C20_4 C21_4 1_555 1_555
C55_3 N3_3 1_555 1_555
C57_3 C56_3 1_555 1_555
C58_3 C57_3 1_555 1_555
H33_3 C58_3 1_555 1_555
C61_3 C57_3 1_555 1_555
H36_3 C61_3 1_555 1_555
C62_3 C61_3 1_555 1_555
H37_3 C62_3 1_555 1_555
C63_3 C55_3 1_555 1_555
C64_3 C63_3 1_555 1_555
H38_3 C64_3 1_555 1_555
C65_3 C64_3 1_555 1_555
H39_3 C65_3 1_555 1_555
C66_3 N3_3 1_555 1_555
C55_3 C56_3 1_555 1_555
C62_3 C63_3 1_555 1_555
C65_3 C66_3 1_555 1_555
C55_4 N3_4 1_555 1_555
C57_4 C56_4 1_555 1_555
C58_4 C57_4 1_555 1_555
H33_4 C58_4 1_555 1_555
C61_4 C57_4 1_555 1_555
H36_4 C61_4 1_555 1_555
C62_4 C61_4 1_555 1_555
H37_4 C62_4 1_555 1_555
C63_4 C55_4 1_555 1_555
C64_4 C63_4 1_555 1_555
H38_4 C64_4 1_555 1_555
C65_4 C64_4 1_555 1_555
H39_4 C65_4 1_555 1_555
C66_4 N3_4 1_555 1_555
C55_4 C56_4 1_555 1_555
C62_4 C63_4 1_555 1_555
C65_4 C66_4 1_555 1_555

#END
