
###############################################################################
#
# This file contains modified crystal structure data generated from the
# MOF subset of the Cambridge Structural Database (CSD) v543 
# hosted by the Cambridge Crystallographic Data Centre (CCDC).
#
# This work is licensed under the Creative Commons
# Attribution-NonCommercial-ShareAlike 4.0 International License.
# To view a copy of this license, visit
# http://creativecommons.org/licenses/by-nc-sa/4.0/
# or send a letter to
# Creative Commons, PO Box 1866, Mountain View, CA 94042, USA.
#
# CIF created using the CSD Python API on 29 September 2022
# The structure has been converted into the P1 space group
# The structure has a 3D framework
# The original CSD entry GAXGET is in the monoclinic crystal system
# The framework has been calculated to contain at least 10.0% void space
# The void calculation uses a probe of radius 1.32A, grid spacing 0.4
#
###############################################################################

data_GAXGET
_chemical_formula_moiety         '(C264 H160 Co14 N16 O62)n'
_symmetry_cell_setting           triclinic
_symmetry_space_group_name_H-M   'P 1'
_symmetry_Int_Tables_number      1
_space_group_name_Hall           'P 1'
loop_
_symmetry_equiv_pos_site_id
_symmetry_equiv_pos_as_xyz
1 x,y,z
_cell_length_a                   15.138(2)
_cell_length_b                   16.501(2)
_cell_length_c                   25.844(4)
_cell_angle_alpha                90
_cell_angle_beta                 91.021(2)
_cell_angle_gamma                90
_cell_volume                     6454.6
loop_
_atom_site_label
_atom_site_type_symbol
_atom_site_fract_x
_atom_site_fract_y
_atom_site_fract_z
Co1 Co 0.47004(4) 0.17747(3) 0.50601(2)
Co2 Co 0.2500 0.2500 0.5000
N1 N 0.5493(3) 0.2538(2) 0.55529(14)
N2 N 0.5982(2) 0.1276(2) 0.49834(13)
O1 O 0.35406(18) 0.21325(17) 0.55437(9)
O2 O 0.44044(19) 0.11003(17) 0.57425(10)
O3 O 0.4646(2) 0.2667(2) 0.45459(12)
O4 O 0.2401(2) 0.13490(19) 0.78742(11)
O5 O 0.5000 0.4675(2) 0.2500
C2 C 0.3703(3) 0.0173(3) 0.88252(15)
H1 H 0.4255 0.0187 0.8989
C3 C 0.3492(3) 0.0754(3) 0.84549(16)
H2 H 0.3899 0.1152 0.8370
C4 C 0.2673(3) 0.0733(3) 0.82153(15)
C5 C 0.2066(3) 0.0136(3) 0.83295(16)
H3 H 0.1519 0.0121 0.8161
C7 C 0.2766(3) 0.1374(3) 0.73855(15)
C8 C 0.3309(3) 0.0773(3) 0.71928(16)
H5 H 0.3460 0.0325 0.7394
C9 C 0.3623(3) 0.0850(3) 0.66936(16)
H6 H 0.3989 0.0449 0.6563
C10 C 0.3401(3) 0.1513(2) 0.63845(14)
C11 C 0.2855(3) 0.2105(2) 0.65841(15)
H7 H 0.2697 0.2549 0.6381
C12 C 0.2539(3) 0.2043(3) 0.70822(15)
H8 H 0.2178 0.2447 0.7214
C13 C 0.3784(3) 0.1581(2) 0.58593(15)
C14 C 0.4041(3) 0.3130(3) 0.43690(15)
C15 C 0.4258(3) 0.3534(2) 0.38588(14)
C16 C 0.3816(3) 0.4202(2) 0.36747(15)
H9 H 0.3356 0.4419 0.3865
C17 C 0.4041(3) 0.4561(3) 0.32096(15)
H10 H 0.3731 0.5009 0.3086
C18 C 0.4734(3) 0.4244(3) 0.29329(14)
C19 C 0.5169(3) 0.3560(3) 0.31011(15)
H11 H 0.5620 0.3337 0.2907
C20 C 0.4927(3) 0.3207(3) 0.35640(15)
H12 H 0.5218 0.2742 0.3679
C21 C 0.5226(4) 0.3156(3) 0.5830(2)
H13 H 0.4639 0.3317 0.5797
C22 C 0.5775(5) 0.3582(4) 0.6168(3)
H14 H 0.5555 0.4010 0.6362
C23 C 0.6646(5) 0.3363(4) 0.6214(3)
H15 H 0.7023 0.3641 0.6439
C24 C 0.6967(4) 0.2721(3) 0.59197(19)
C25 C 0.6347(3) 0.2326(3) 0.55909(16)
C26 C 0.6626(3) 0.1645(3) 0.52831(15)
C27 C 0.7504(3) 0.1387(3) 0.52990(18)
C28 C 0.7723(3) 0.0709(3) 0.5009(2)
H16 H 0.8301 0.0517 0.5011
C29 C 0.7078(3) 0.0323(3) 0.47175(19)
C30 C 0.6215(3) 0.0623(3) 0.47127(17)
H18 H 0.5787 0.0357 0.4514
C31 C 0.7862(4) 0.2448(3) 0.5928(2)
H19 H 0.8275 0.2706 0.6141
C32 C 0.8119(3) 0.1820(4) 0.5630(2)
H20 H 0.8709 0.1663 0.5639
O8 O 0.33140(19) 0.32746(17) 0.45705(11)
Co3 Co 0.02996(4) 0.32253(3) 0.49399(2)
Co8 Co 0.7500 0.2500 0.0000
Co9 Co 0.2500 0.7500 0.0000
O9 O 0.14594(18) 0.28675(17) 0.44563(9)
O10 O 0.05956(19) 0.38997(17) 0.42575(10)
O11 O 0.5354(2) 0.2667(2) 0.04541(12)
O12 O 0.0354(2) 0.2333(2) 0.54541(12)
O13 O 0.2599(2) 0.36510(19) 0.21258(11)
C34 C 0.1895(3) 0.5428(2) 0.10449(14)
C35 C 0.1297(3) 0.4827(3) 0.11748(15)
H21 H 0.0745 0.4813 0.1011
C36 C 0.1508(3) 0.4246(3) 0.15451(16)
H22 H 0.1101 0.3848 0.1630
C37 C 0.2327(3) 0.4267(3) 0.17847(15)
C38 C 0.2934(3) 0.4864(3) 0.16705(16)
H23 H 0.3481 0.4879 0.1839
C39 C 0.2710(3) 0.5443(3) 0.12991(16)
H24 H 0.3115 0.5847 0.1220
C40 C 0.2234(3) 0.3626(3) 0.26145(15)
C41 C 0.1691(3) 0.4227(3) 0.28072(16)
H25 H 0.1540 0.4675 0.2606
C42 C 0.1377(3) 0.4150(3) 0.33064(16)
H26 H 0.1011 0.4551 0.3437
C43 C 0.1599(3) 0.3487(2) 0.36155(14)
C44 C 0.2145(3) 0.2895(2) 0.34159(15)
H27 H 0.2303 0.2451 0.3619
C45 C 0.2461(3) 0.2957(3) 0.29178(15)
H28 H 0.2822 0.2553 0.2786
C46 C 0.1216(3) 0.3419(2) 0.41407(15)
C47 C 0.5959(3) 0.3130(3) 0.06310(15)
C48 C 0.5742(3) 0.3534(2) 0.11412(14)
C49 C 0.6184(3) 0.4202(2) 0.13253(15)
H29 H 0.6644 0.4419 0.1135
C50 C 0.5959(3) 0.4561(3) 0.17904(15)
H30 H 0.6269 0.5009 0.1914
C51 C 0.5266(3) 0.4244(3) 0.20671(14)
C52 C 0.4831(3) 0.3560(3) 0.18989(15)
H31 H 0.4380 0.3337 0.2093
C53 C 0.5073(3) 0.3207(3) 0.14360(15)
H32 H 0.4782 0.2742 0.1321
H33 H 0.0361 0.1683 0.4203
O14 O 0.0893(2) 0.59914(19) 0.04317(11)
O15 O 0.4107(2) 0.09914(19) 0.45683(11)
O16 O 0.0893(2) 0.40086(19) 0.54317(11)
O17 O 0.22454(19) 0.65532(17) 0.05125(10)
O18 O 0.22454(19) 0.34468(17) 0.55125(10)
O19 O 0.27546(19) 0.15532(17) 0.44875(10)
C66 C 0.1662(3) 0.6045(2) 0.06284(14)
O20 O 0.66860(19) 0.32746(17) 0.04295(11)
O21 O 0.16860(19) 0.17254(17) 0.54295(11)
Co5 Co 0.52996(4) 0.17747(3) 0.99399(2)
Co6 Co 0.02996(4) 0.67747(3) 0.99399(2)
Co8_2 Co 0.7500 0.2500 1.0000
Co9_2 Co 0.2500 0.7500 1.0000
Co4 Co 0.47004(4) 0.82253(3) 0.00601(2)
C1 C 0.3105(3) 0.9572(2) 0.89551(14)
C6 C 0.2290(3) 0.9557(3) 0.87009(16)
H4 H 0.1885 0.9153 0.8780
H17 H 0.7217 0.9865 0.4525
O6 O 0.4107(2) 0.90086(19) 0.95683(11)
O7 O 0.27546(19) 0.84468(17) 0.94875(10)
C33 C 0.3338(3) 0.8955(2) 0.93716(14)
N3 N 0.9507(3) 0.2462(2) 0.44471(14)
N4 N 0.9018(2) 0.3724(2) 0.50166(13)
C54 C 0.9774(4) 0.1844(3) 0.4170(2)
C55 C 0.9225(5) 0.1418(4) 0.3832(3)
H34 H 0.9445 0.0990 0.3638
C56 C 0.8354(5) 0.1637(4) 0.3786(3)
H35 H 0.7977 0.1359 0.3561
C57 C 0.8033(4) 0.2279(3) 0.40803(19)
C58 C 0.8653(3) 0.2674(3) 0.44091(16)
C59 C 0.8374(3) 0.3355(3) 0.47169(15)
C60 C 0.7496(3) 0.3613(3) 0.47010(18)
C61 C 0.7277(3) 0.4291(3) 0.4991(2)
H36 H 0.6699 0.4483 0.4989
C62 C 0.7922(3) 0.4677(3) 0.52825(19)
H37 H 0.7783 0.5135 0.5475
C63 C 0.8785(3) 0.4377(3) 0.52873(17)
H38 H 0.9213 0.4643 0.5486
C64 C 0.7138(4) 0.2552(3) 0.4072(2)
H39 H 0.6725 0.2294 0.3859
C65 C 0.6881(3) 0.3180(4) 0.4370(2)
H40 H 0.6291 0.3337 0.4361
N4_2 N 0.0982(2) 0.3724(2) 0.99834(13)
C62_2 C 0.2078(3) 0.4677(3) 0.97175(19)
H37_2 H 0.2217 0.5135 0.9525
C63_2 C 0.1215(3) 0.4377(3) 0.97127(17)
H38_2 H 0.0787 0.4643 0.9514
N2_2 N 0.4018(2) 0.1276(2) 0.00166(13)
C29_2 C 0.2922(3) 0.0323(3) 0.02825(19)
C30_2 C 0.3785(3) 0.0623(3) 0.02873(17)
H18_2 H 0.4213 0.0357 0.0486
Co3_2 Co 0.97004(4) 0.32253(3) 0.00601(2)
Co6_2 Co 0.97004(4) 0.67747(3) 0.50601(2)
Co9_3 Co 0.7500 0.7500 0.5000
O9_2 O 0.85406(18) 0.28675(17) 0.05437(9)
O10_2 O 0.94044(19) 0.38997(17) 0.07425(10)
O13_2 O 0.7401(2) 0.36510(19) 0.28742(11)
C34_2 C 0.8105(3) 0.5428(2) 0.39551(14)
C35_2 C 0.8703(3) 0.4827(3) 0.38252(15)
H21_2 H 0.9255 0.4813 0.3989
C36_2 C 0.8492(3) 0.4246(3) 0.34549(16)
H22_2 H 0.8899 0.3848 0.3370
C37_2 C 0.7673(3) 0.4267(3) 0.32153(15)
C38_2 C 0.7066(3) 0.4864(3) 0.33295(16)
H23_2 H 0.6519 0.4879 0.3161
C39_2 C 0.7290(3) 0.5443(3) 0.37009(16)
H24_2 H 0.6885 0.5847 0.3780
C40_2 C 0.7766(3) 0.3626(3) 0.23855(15)
C41_2 C 0.8309(3) 0.4227(3) 0.21928(16)
H25_2 H 0.8460 0.4675 0.2394
C42_2 C 0.8623(3) 0.4150(3) 0.16936(16)
H26_2 H 0.8989 0.4551 0.1563
C43_2 C 0.8401(3) 0.3487(2) 0.13845(14)
C44_2 C 0.7855(3) 0.2895(2) 0.15841(15)
H27_2 H 0.7697 0.2451 0.1381
C45_2 C 0.7539(3) 0.2957(3) 0.20822(15)
H28_2 H 0.7178 0.2553 0.2214
C46_2 C 0.8784(3) 0.3419(2) 0.08593(15)
H33_2 H 0.9639 0.1683 0.0797
O14_2 O 0.9107(2) 0.59914(19) 0.45683(11)
O15_2 O 0.5893(2) 0.09914(19) 0.04317(11)
O17_2 O 0.77546(19) 0.65532(17) 0.44875(10)
O19_2 O 0.72454(19) 0.15532(17) 0.05125(10)
C66_2 C 0.8338(3) 0.6045(2) 0.43716(14)
N1_2 N 0.4507(3) 0.2538(2) 0.94471(14)
O1_2 O 0.64594(18) 0.21325(17) 0.94563(9)
O2_2 O 0.55956(19) 0.11003(17) 0.92575(10)
O4_2 O 0.7599(2) 0.13490(19) 0.71258(11)
C2_2 C 0.6297(3) 0.0173(3) 0.61748(15)
H1_2 H 0.5745 0.0187 0.6011
C3_2 C 0.6508(3) 0.0754(3) 0.65451(16)
H2_2 H 0.6101 0.1152 0.6630
C4_2 C 0.7327(3) 0.0733(3) 0.67847(15)
C5_2 C 0.7934(3) 0.0136(3) 0.66705(16)
H3_2 H 0.8481 0.0121 0.6839
C7_2 C 0.7234(3) 0.1374(3) 0.76145(15)
C8_2 C 0.6691(3) 0.0773(3) 0.78072(16)
H5_2 H 0.6540 0.0325 0.7606
C9_2 C 0.6377(3) 0.0850(3) 0.83064(16)
H6_2 H 0.6011 0.0449 0.8437
C10_2 C 0.6599(3) 0.1513(2) 0.86155(14)
C11_2 C 0.7145(3) 0.2105(2) 0.84159(15)
H7_2 H 0.7303 0.2549 0.8619
C12_2 C 0.7461(3) 0.2043(3) 0.79178(15)
H8_2 H 0.7822 0.2447 0.7786
C13_2 C 0.6216(3) 0.1581(2) 0.91407(15)
C21_2 C 0.4774(4) 0.3156(3) 0.9170(2)
H13_2 H 0.5361 0.3317 0.9203
C22_2 C 0.4225(5) 0.3582(4) 0.8832(3)
H14_2 H 0.4445 0.4010 0.8638
C23_2 C 0.3354(5) 0.3363(4) 0.8786(3)
H15_2 H 0.2977 0.3641 0.8561
C24_2 C 0.3033(4) 0.2721(3) 0.90803(19)
C25_2 C 0.3653(3) 0.2326(3) 0.94091(16)
C26_2 C 0.3374(3) 0.1645(3) 0.97169(15)
C27_2 C 0.2496(3) 0.1387(3) 0.97010(18)
C28_2 C 0.2277(3) 0.0709(3) 0.9991(2)
H16_2 H 0.1699 0.0517 0.9989
C31_2 C 0.2138(4) 0.2448(3) 0.9072(2)
H19_2 H 0.1725 0.2706 0.8859
C32_2 C 0.1881(3) 0.1820(4) 0.9370(2)
H20_2 H 0.1291 0.1663 0.9361
O12_2 O 0.9646(2) 0.2333(2) 0.95459(12)
O16_2 O 0.9107(2) 0.40086(19) 0.95683(11)
O18_2 O 0.77546(19) 0.34468(17) 0.94875(10)
O21_2 O 0.83140(19) 0.17254(17) 0.95705(11)
C1_2 C 0.6895(3) 0.9572(2) 0.60449(14)
C6_2 C 0.7710(3) 0.9557(3) 0.62991(16)
H4_2 H 0.8115 0.9153 0.6220
O6_2 O 0.5893(2) 0.90086(19) 0.54317(11)
O7_2 O 0.72454(19) 0.84468(17) 0.55125(10)
C33_2 C 0.6662(3) 0.8955(2) 0.56284(14)
Co4_2 Co 0.52996(4) 0.82253(3) 0.49399(2)
H30_2 H 0.1269 0.0009 0.1914
N1_3 N 0.0493(3) 0.7538(2) 0.55529(14)
N2_3 N 0.0982(2) 0.6276(2) 0.49834(13)
O5_2 O 0.0000 0.9675(2) 0.2500
C19_2 C 0.0169(3) 0.8560(3) 0.31011(15)
H11_2 H 0.0620 0.8337 0.2907
H12_2 H 0.0218 0.7742 0.3679
C21_3 C 0.0226(4) 0.8156(3) 0.5830(2)
C22_3 C 0.0775(5) 0.8582(4) 0.6168(3)
H14_3 H 0.0555 0.9010 0.6362
C23_3 C 0.1646(5) 0.8363(4) 0.6214(3)
H15_3 H 0.2023 0.8641 0.6439
C24_3 C 0.1967(4) 0.7721(3) 0.59197(19)
C25_3 C 0.1347(3) 0.7326(3) 0.55909(16)
C26_3 C 0.1626(3) 0.6645(3) 0.52831(15)
C27_3 C 0.2504(3) 0.6387(3) 0.52990(18)
C28_3 C 0.2723(3) 0.5709(3) 0.5009(2)
H16_3 H 0.3301 0.5517 0.5011
C29_3 C 0.2078(3) 0.5323(3) 0.47175(19)
H17_2 H 0.2217 0.4865 0.4525
C30_3 C 0.1215(3) 0.5623(3) 0.47127(17)
H18_3 H 0.0787 0.5357 0.4514
C31_3 C 0.2862(4) 0.7448(3) 0.5928(2)
H19_3 H 0.3275 0.7706 0.6141
C32_3 C 0.3119(3) 0.6820(4) 0.5630(2)
H20_3 H 0.3709 0.6663 0.5639
O11_2 O 0.0354(2) 0.7667(2) 0.04541(12)
C47_2 C 0.0959(3) 0.8130(3) 0.06310(15)
C48_2 C 0.0742(3) 0.8534(2) 0.11412(14)
C49_2 C 0.1184(3) 0.9202(2) 0.13253(15)
H29_2 H 0.1644 0.9419 0.1135
C50_2 C 0.0959(3) 0.9561(3) 0.17904(15)
C51_2 C 0.0266(3) 0.9244(3) 0.20671(14)
C53_2 C 0.0073(3) 0.8207(3) 0.14360(15)
O20_2 O 0.16860(19) 0.82746(17) 0.04295(11)
H10_2 H 0.8731 0.0009 0.3086
C34_3 C 0.6895(3) 0.0428(2) 0.10449(14)
C39_3 C 0.7710(3) 0.0443(3) 0.12991(16)
H24_3 H 0.8115 0.0847 0.1220
H37_3 H 0.2783 0.0135 0.5475
C66_3 C 0.6662(3) 0.1045(2) 0.06284(14)
O1_3 O 0.85406(18) 0.71325(17) 0.55437(9)
O2_3 O 0.94044(19) 0.61003(17) 0.57425(10)
O3_2 O 0.9646(2) 0.7667(2) 0.45459(12)
O4_3 O 0.7401(2) 0.63490(19) 0.78742(11)
O5_3 O 1.0000 0.9675(2) 0.2500
C1_3 C 0.8105(3) 0.4572(2) 0.89551(14)
C2_3 C 0.8703(3) 0.5173(3) 0.88252(15)
H1_3 H 0.9255 0.5187 0.8989
C3_3 C 0.8492(3) 0.5754(3) 0.84549(16)
H2_3 H 0.8899 0.6152 0.8370
C4_3 C 0.7673(3) 0.5733(3) 0.82153(15)
C5_3 C 0.7066(3) 0.5136(3) 0.83295(16)
H3_3 H 0.6519 0.5121 0.8161
C6_3 C 0.7290(3) 0.4557(3) 0.87009(16)
H4_3 H 0.6885 0.4153 0.8780
C7_3 C 0.7766(3) 0.6374(3) 0.73855(15)
C8_3 C 0.8309(3) 0.5773(3) 0.71928(16)
H5_3 H 0.8460 0.5325 0.7394
C9_3 C 0.8623(3) 0.5850(3) 0.66936(16)
H6_3 H 0.8989 0.5449 0.6563
C10_3 C 0.8401(3) 0.6513(2) 0.63845(14)
C11_3 C 0.7855(3) 0.7105(2) 0.65841(15)
H7_3 H 0.7697 0.7549 0.6381
C12_3 C 0.7539(3) 0.7043(3) 0.70822(15)
H8_3 H 0.7178 0.7447 0.7214
C13_3 C 0.8784(3) 0.6581(2) 0.58593(15)
C14_2 C 0.9041(3) 0.8130(3) 0.43690(15)
C15_2 C 0.9258(3) 0.8534(2) 0.38588(14)
C16_2 C 0.8816(3) 0.9202(2) 0.36747(15)
H9_2 H 0.8356 0.9419 0.3865
C17_2 C 0.9041(3) 0.9561(3) 0.32096(15)
C18_2 C 0.9734(3) 0.9244(3) 0.29329(14)
C20_2 C 0.9927(3) 0.8207(3) 0.35640(15)
H13_3 H 0.9639 0.8317 0.5797
C33_3 C 0.8338(3) 0.3955(2) 0.93716(14)
O8_2 O 0.83140(19) 0.82746(17) 0.45705(11)
N3_2 N 0.4507(3) 0.7462(2) 0.44471(14)
N4_3 N 0.4018(2) 0.8724(2) 0.50166(13)
O9_3 O 0.64594(18) 0.78675(17) 0.44563(9)
O10_3 O 0.55956(19) 0.88997(17) 0.42575(10)
O12_3 O 0.5354(2) 0.7333(2) 0.54541(12)
O13_3 O 0.7599(2) 0.86510(19) 0.21258(11)
C35_3 C 0.6297(3) 0.9827(3) 0.11748(15)
H21_3 H 0.5745 0.9813 0.1011
C36_3 C 0.6508(3) 0.9246(3) 0.15451(16)
H22_3 H 0.6101 0.8848 0.1630
C37_3 C 0.7327(3) 0.9267(3) 0.17847(15)
C38_3 C 0.7934(3) 0.9864(3) 0.16705(16)
H23_3 H 0.8481 0.9879 0.1839
C40_3 C 0.7234(3) 0.8626(3) 0.26145(15)
C41_3 C 0.6691(3) 0.9227(3) 0.28072(16)
H25_3 H 0.6540 0.9675 0.2606
C42_3 C 0.6377(3) 0.9150(3) 0.33064(16)
H26_3 H 0.6011 0.9551 0.3437
C43_3 C 0.6599(3) 0.8487(2) 0.36155(14)
C44_3 C 0.7145(3) 0.7895(2) 0.34159(15)
H27_3 H 0.7303 0.7451 0.3619
C45_3 C 0.7461(3) 0.7957(3) 0.29178(15)
H28_3 H 0.7822 0.7553 0.2786
C46_3 C 0.6216(3) 0.8419(2) 0.41407(15)
C52_2 C 0.9831(3) 0.8560(3) 0.18989(15)
H31_2 H 0.9380 0.8337 0.2093
H32_2 H 0.9782 0.7742 0.1321
C54_2 C 0.4774(4) 0.6844(3) 0.4170(2)
H33_3 H 0.5361 0.6683 0.4203
C55_2 C 0.4225(5) 0.6418(4) 0.3832(3)
H34_2 H 0.4445 0.5990 0.3638
C56_2 C 0.3354(5) 0.6637(4) 0.3786(3)
H35_2 H 0.2977 0.6359 0.3561
C57_2 C 0.3033(4) 0.7279(3) 0.40803(19)
C58_2 C 0.3653(3) 0.7674(3) 0.44091(16)
C59_2 C 0.3374(3) 0.8355(3) 0.47169(15)
C60_2 C 0.2496(3) 0.8613(3) 0.47010(18)
C61_2 C 0.2277(3) 0.9291(3) 0.4991(2)
H36_2 H 0.1699 0.9483 0.4989
C62_3 C 0.2922(3) 0.9677(3) 0.52825(19)
C63_3 C 0.3785(3) 0.9377(3) 0.52873(17)
H38_3 H 0.4213 0.9643 0.5486
C64_2 C 0.2138(4) 0.7552(3) 0.4072(2)
H39_2 H 0.1725 0.7294 0.3859
C65_2 C 0.1881(3) 0.8180(4) 0.4370(2)
H40_2 H 0.1291 0.8337 0.4361
O21_3 O 0.66860(19) 0.67254(17) 0.54295(11)
C34_4 C 0.3105(3) 0.0428(2) 0.39551(14)
C39_4 C 0.2290(3) 0.0443(3) 0.37009(16)
H24_4 H 0.1885 0.0847 0.3780
C66_4 C 0.3338(3) 0.1045(2) 0.43716(14)
N3_3 N 0.5493(3) 0.7462(2) 0.05529(14)
O9_4 O 0.35406(18) 0.78675(17) 0.05437(9)
O10_4 O 0.44044(19) 0.88997(17) 0.07425(10)
O13_4 O 0.2401(2) 0.86510(19) 0.28742(11)
C35_4 C 0.3703(3) 0.9827(3) 0.38252(15)
H21_4 H 0.4255 0.9813 0.3989
C36_4 C 0.3492(3) 0.9246(3) 0.34549(16)
H22_4 H 0.3899 0.8848 0.3370
C37_4 C 0.2673(3) 0.9267(3) 0.32153(15)
C38_4 C 0.2066(3) 0.9864(3) 0.33295(16)
H23_4 H 0.1519 0.9879 0.3161
C40_4 C 0.2766(3) 0.8626(3) 0.23855(15)
C41_4 C 0.3309(3) 0.9227(3) 0.21928(16)
H25_4 H 0.3460 0.9675 0.2394
C42_4 C 0.3623(3) 0.9150(3) 0.16936(16)
H26_4 H 0.3989 0.9551 0.1563
C43_4 C 0.3401(3) 0.8487(2) 0.13845(14)
C44_4 C 0.2855(3) 0.7895(2) 0.15841(15)
H27_4 H 0.2697 0.7451 0.1381
C45_4 C 0.2539(3) 0.7957(3) 0.20822(15)
H28_4 H 0.2178 0.7553 0.2214
C46_4 C 0.3784(3) 0.8419(2) 0.08593(15)
C54_3 C 0.5226(4) 0.6844(3) 0.0830(2)
H33_4 H 0.4639 0.6683 0.0797
C55_3 C 0.5775(5) 0.6418(4) 0.1168(3)
H34_3 H 0.5555 0.5990 0.1362
C56_3 C 0.6646(5) 0.6637(4) 0.1214(3)
H35_3 H 0.7023 0.6359 0.1439
C57_3 C 0.6967(4) 0.7279(3) 0.09197(19)
C58_3 C 0.6347(3) 0.7674(3) 0.05909(16)
C59_3 C 0.6626(3) 0.8355(3) 0.02831(15)
C60_3 C 0.7504(3) 0.8613(3) 0.02990(18)
C61_3 C 0.7723(3) 0.9291(3) 0.0009(2)
H36_3 H 0.8301 0.9483 0.0011
C64_3 C 0.7862(4) 0.7552(3) 0.0928(2)
H39_3 H 0.8275 0.7294 0.1141
C65_3 C 0.8119(3) 0.8180(4) 0.0630(2)
H40_3 H 0.8709 0.8337 0.0639
O1_4 O 0.14594(18) 0.71325(17) 0.94563(9)
O2_4 O 0.05956(19) 0.61003(17) 0.92575(10)
O4_4 O 0.2599(2) 0.63490(19) 0.71258(11)
C1_4 C 0.1895(3) 0.4572(2) 0.60449(14)
C2_4 C 0.1297(3) 0.5173(3) 0.61748(15)
H1_4 H 0.0745 0.5187 0.6011
C3_4 C 0.1508(3) 0.5754(3) 0.65451(16)
H2_4 H 0.1101 0.6152 0.6630
C4_4 C 0.2327(3) 0.5733(3) 0.67847(15)
C5_4 C 0.2934(3) 0.5136(3) 0.66705(16)
H3_4 H 0.3481 0.5121 0.6839
C6_4 C 0.2710(3) 0.4557(3) 0.62991(16)
H4_4 H 0.3115 0.4153 0.6220
C7_4 C 0.2234(3) 0.6374(3) 0.76145(15)
C8_4 C 0.1691(3) 0.5773(3) 0.78072(16)
H5_4 H 0.1540 0.5325 0.7606
C9_4 C 0.1377(3) 0.5850(3) 0.83064(16)
H6_4 H 0.1011 0.5449 0.8437
C10_4 C 0.1599(3) 0.6513(2) 0.86155(14)
C11_4 C 0.2145(3) 0.7105(2) 0.84159(15)
H7_4 H 0.2303 0.7549 0.8619
C12_4 C 0.2461(3) 0.7043(3) 0.79178(15)
H8_4 H 0.2822 0.7447 0.7786
C13_4 C 0.1216(3) 0.6581(2) 0.91407(15)
H13_4 H 0.0361 0.8317 0.9203
C33_4 C 0.1662(3) 0.3955(2) 0.56284(14)
N4_4 N 0.5982(2) 0.8724(2) 0.99834(13)
O12_4 O 0.4646(2) 0.7333(2) 0.95459(12)
C62_4 C 0.7078(3) 0.9677(3) 0.97175(19)
C63_4 C 0.6215(3) 0.9377(3) 0.97127(17)
H38_4 H 0.5787 0.9643 0.9514
O21_4 O 0.33140(19) 0.67254(17) 0.95705(11)
N2_4 N 0.9018(2) 0.6276(2) 0.00166(13)
C29_4 C 0.7922(3) 0.5323(3) 0.02825(19)
H17_3 H 0.7783 0.4865 0.0475
C30_4 C 0.8785(3) 0.5623(3) 0.02873(17)
H18_4 H 0.9213 0.5357 0.0486
O5_4 O 0.5000 0.5325(2) 0.7500
C14_3 C 0.5959(3) 0.6870(3) 0.56310(15)
C15_3 C 0.5742(3) 0.6466(2) 0.61412(14)
C16_3 C 0.6184(3) 0.5798(2) 0.63253(15)
H9_3 H 0.6644 0.5581 0.6135
C17_3 C 0.5959(3) 0.5439(3) 0.67904(15)
H10_3 H 0.6269 0.4991 0.6914
C18_3 C 0.5266(3) 0.5756(3) 0.70671(14)
C19_3 C 0.4831(3) 0.6440(3) 0.68989(15)
H11_3 H 0.4380 0.6663 0.7093
C20_3 C 0.5073(3) 0.6793(3) 0.64360(15)
H12_3 H 0.4782 0.7258 0.6321
C47_3 C 0.4041(3) 0.6870(3) 0.93690(15)
C48_3 C 0.4258(3) 0.6466(2) 0.88588(14)
C49_3 C 0.3816(3) 0.5798(2) 0.86747(15)
H29_3 H 0.3356 0.5581 0.8865
C50_3 C 0.4041(3) 0.5439(3) 0.82096(15)
H30_3 H 0.3731 0.4991 0.8086
C51_3 C 0.4734(3) 0.5756(3) 0.79329(14)
C52_3 C 0.5169(3) 0.6440(3) 0.81011(15)
H31_3 H 0.5620 0.6663 0.7907
C53_3 C 0.4927(3) 0.6793(3) 0.85640(15)
H32_3 H 0.5218 0.7258 0.8679
O5_5 O -0.0000 0.0325(2) 0.7500
C14_4 C 0.0959(3) 0.1870(3) 0.56310(15)
C15_4 C 0.0742(3) 0.1466(2) 0.61412(14)
C16_4 C 0.1184(3) 0.0798(2) 0.63253(15)
H9_4 H 0.1644 0.0581 0.6135
C17_4 C 0.0959(3) 0.0439(3) 0.67904(15)
C18_4 C 0.0266(3) 0.0756(3) 0.70671(14)
C20_4 C 0.0073(3) 0.1793(3) 0.64360(15)
C52_4 C 0.0169(3) 0.1440(3) 0.81011(15)
H31_4 H 0.0620 0.1663 0.7907
H32_4 H 0.0218 0.2258 0.8679
H10_4 H 0.1269 0.9991 0.6914
O5_6 O 1.0000 0.0325(2) 0.7500
C19_4 C 0.9831(3) 0.1440(3) 0.68989(15)
H11_4 H 0.9380 0.1663 0.7093
H12_4 H 0.9782 0.2258 0.6321
C47_4 C 0.9041(3) 0.1870(3) 0.93690(15)
C48_4 C 0.9258(3) 0.1466(2) 0.88588(14)
C49_4 C 0.8816(3) 0.0798(2) 0.86747(15)
H29_4 H 0.8356 0.0581 0.8865
C50_4 C 0.9041(3) 0.0439(3) 0.82096(15)
C51_4 C 0.9734(3) 0.0756(3) 0.79329(14)
C53_4 C 0.9927(3) 0.1793(3) 0.85640(15)
H30_4 H 0.8731 0.9991 0.8086
N3_4 N 0.0493(3) 0.2462(2) 0.05529(14)
C54_4 C 0.0226(4) 0.1844(3) 0.0830(2)
C55_4 C 0.0775(5) 0.1418(4) 0.1168(3)
H34_4 H 0.0555 0.0990 0.1362
C56_4 C 0.1646(5) 0.1637(4) 0.1214(3)
H35_4 H 0.2023 0.1359 0.1439
C57_4 C 0.1967(4) 0.2279(3) 0.09197(19)
C58_4 C 0.1347(3) 0.2674(3) 0.05909(16)
C59_4 C 0.1626(3) 0.3355(3) 0.02831(15)
C60_4 C 0.2504(3) 0.3613(3) 0.02990(18)
C61_4 C 0.2723(3) 0.4291(3) 0.0009(2)
H36_4 H 0.3301 0.4483 0.0011
C64_4 C 0.2862(4) 0.2552(3) 0.0928(2)
H39_4 H 0.3275 0.2294 0.1141
C65_4 C 0.3119(3) 0.3180(4) 0.0630(2)
H40_4 H 0.3709 0.3337 0.0639
H17_4 H 0.2783 0.9865 0.0475
H37_4 H 0.7217 0.0135 0.9525
N1_4 N 0.9507(3) 0.7538(2) 0.94471(14)
C21_4 C 0.9774(4) 0.8156(3) 0.9170(2)
C22_4 C 0.9225(5) 0.8582(4) 0.8832(3)
H14_4 H 0.9445 0.9010 0.8638
C23_4 C 0.8354(5) 0.8363(4) 0.8786(3)
H15_4 H 0.7977 0.8641 0.8561
C24_4 C 0.8033(4) 0.7721(3) 0.90803(19)
C25_4 C 0.8653(3) 0.7326(3) 0.94091(16)
C26_4 C 0.8374(3) 0.6645(3) 0.97169(15)
C27_4 C 0.7496(3) 0.6387(3) 0.97010(18)
C28_4 C 0.7277(3) 0.5709(3) 0.9991(2)
H16_4 H 0.6699 0.5517 0.9989
C31_4 C 0.7138(4) 0.7448(3) 0.9072(2)
H19_4 H 0.6725 0.7706 0.8859
C32_4 C 0.6881(3) 0.6820(4) 0.9370(2)
H20_4 H 0.6291 0.6663 0.9361
loop_
_geom_bond_atom_site_label_1
_geom_bond_atom_site_label_2
_geom_bond_site_symmetry_1
_geom_bond_site_symmetry_2
Co1 N1 1_555 1_555
Co2 O1 1_555 1_555
N1 C21 1_555 1_555
N2 Co1 1_555 1_555
O1 Co1 1_555 1_555
O2 Co1 1_555 1_555
O3 Co1 1_555 1_555
O4 C4 1_555 1_555
O5 C18 1_555 1_555
C2 H1 1_555 1_555
C3 C2 1_555 1_555
H2 C3 1_555 1_555
C4 C3 1_555 1_555
C5 C4 1_555 1_555
H3 C5 1_555 1_555
C7 O4 1_555 1_555
C8 C7 1_555 1_555
H5 C8 1_555 1_555
C9 C8 1_555 1_555
H6 C9 1_555 1_555
C10 C9 1_555 1_555
C11 C10 1_555 1_555
H7 C11 1_555 1_555
C12 C7 1_555 1_555
H8 C12 1_555 1_555
C13 O1 1_555 1_555
C14 O3 1_555 1_555
C15 C14 1_555 1_555
C16 C15 1_555 1_555
H9 C16 1_555 1_555
C17 C16 1_555 1_555
H10 C17 1_555 1_555
C18 C17 1_555 1_555
C19 C18 1_555 1_555
H11 C19 1_555 1_555
C20 C15 1_555 1_555
H12 C20 1_555 1_555
C21 H13 1_555 1_555
C22 C21 1_555 1_555
H14 C22 1_555 1_555
C23 C22 1_555 1_555
H15 C23 1_555 1_555
C24 C23 1_555 1_555
C25 N1 1_555 1_555
C26 N2 1_555 1_555
C27 C26 1_555 1_555
C28 C27 1_555 1_555
H16 C28 1_555 1_555
C29 C28 1_555 1_555
C30 N2 1_555 1_555
H18 C30 1_555 1_555
C31 C24 1_555 1_555
H19 C31 1_555 1_555
C32 C27 1_555 1_555
H20 C32 1_555 1_555
O8 Co2 1_555 1_555
Co8 O20 1_555 1_555
Co9 O17 1_555 1_555
O9 Co2 1_555 1_555
O10 Co3 1_555 1_555
O11 C47 1_555 1_555
O12 Co3 1_555 1_555
O13 C37 1_555 1_555
C34 C35 1_555 1_555
C35 H21 1_555 1_555
C36 C35 1_555 1_555
H22 C36 1_555 1_555
C37 C36 1_555 1_555
C38 C37 1_555 1_555
H23 C38 1_555 1_555
C39 C34 1_555 1_555
H24 C39 1_555 1_555
C40 O13 1_555 1_555
C41 C40 1_555 1_555
H25 C41 1_555 1_555
C42 C41 1_555 1_555
H26 C42 1_555 1_555
C43 C42 1_555 1_555
C44 C43 1_555 1_555
H27 C44 1_555 1_555
C45 C40 1_555 1_555
H28 C45 1_555 1_555
C46 O9 1_555 1_555
C47 C48 1_555 1_555
C48 C49 1_555 1_555
C49 H29 1_555 1_555
C50 C49 1_555 1_555
H30 C50 1_555 1_555
C51 O5 1_555 1_555
C52 C51 1_555 1_555
H31 C52 1_555 1_555
C53 C48 1_555 1_555
H32 C53 1_555 1_555
O14 C66 1_555 1_555
O15 Co1 1_555 1_555
O16 Co3 1_555 1_555
O17 C66 1_555 1_555
O18 Co2 1_555 1_555
O19 Co2 1_555 1_555
C66 C34 1_555 1_555
O20 C47 1_555 1_555
O21 Co2 1_555 1_555
O2 C13 1_555 1_555
C10 C13 1_555 1_555
C11 C12 1_555 1_555
C14 O8 1_555 1_555
C19 C20 1_555 1_555
C24 C25 1_555 1_555
C25 C26 1_555 1_555
C29 C30 1_555 1_555
C31 C32 1_555 1_555
Co3 O9 1_555 1_555
O10 C46 1_555 1_555
C38 C39 1_555 1_555
C43 C46 1_555 1_555
C44 C45 1_555 1_555
C50 C51 1_555 1_555
C52 C53 1_555 1_555
C6 C1 1_555 1_555
H4 C6 1_555 1_555
O6 C33 1_555 1_555
O7 C33 1_555 1_555
C33 C1 1_555 1_555
Co9_2 O7 1_555 1_555
N3 C54 1_555 1_555
C55 C54 1_555 1_555
H34 C55 1_555 1_555
C56 C55 1_555 1_555
H35 C56 1_555 1_555
C57 C56 1_555 1_555
C58 N3 1_555 1_555
C59 N4 1_555 1_555
C60 C59 1_555 1_555
C61 C60 1_555 1_555
H36 C61 1_555 1_555
C62 C61 1_555 1_555
H37 C62 1_555 1_555
C63 N4 1_555 1_555
H38 C63 1_555 1_555
C64 C57 1_555 1_555
H39 C64 1_555 1_555
C65 C60 1_555 1_555
H40 C65 1_555 1_555
C57 C58 1_555 1_555
C58 C59 1_555 1_555
C62 C63 1_555 1_555
C64 C65 1_555 1_555
H37_2 C62_2 1_555 1_555
C63_2 N4_2 1_555 1_555
H38_2 C63_2 1_555 1_555
C62_2 C63_2 1_555 1_555
C30_2 N2_2 1_555 1_555
H18_2 C30_2 1_555 1_555
Co6_2 O14_2 1_555 1_555
Co9_3 O17_2 1_555 1_555
O9_2 Co8 1_555 1_555
O10_2 Co3_2 1_555 1_555
O13_2 C37_2 1_555 1_555
C34_2 C35_2 1_555 1_555
C35_2 H21_2 1_555 1_555
C36_2 C35_2 1_555 1_555
H22_2 C36_2 1_555 1_555
C37_2 C36_2 1_555 1_555
C38_2 C37_2 1_555 1_555
H23_2 C38_2 1_555 1_555
C39_2 C34_2 1_555 1_555
H24_2 C39_2 1_555 1_555
C40_2 O13_2 1_555 1_555
C41_2 C40_2 1_555 1_555
H25_2 C41_2 1_555 1_555
C42_2 C41_2 1_555 1_555
H26_2 C42_2 1_555 1_555
C43_2 C42_2 1_555 1_555
C44_2 C43_2 1_555 1_555
H27_2 C44_2 1_555 1_555
C45_2 C40_2 1_555 1_555
H28_2 C45_2 1_555 1_555
C46_2 O9_2 1_555 1_555
O14_2 C66_2 1_555 1_555
O17_2 C66_2 1_555 1_555
O19_2 Co8 1_555 1_555
C66_2 C34_2 1_555 1_555
C29_2 C30_2 1_555 1_555
Co3_2 O9_2 1_555 1_555
O10_2 C46_2 1_555 1_555
C38_2 C39_2 1_555 1_555
C43_2 C46_2 1_555 1_555
C44_2 C45_2 1_555 1_555
Co5 N1_2 1_555 1_555
Co8_2 O1_2 1_555 1_555
N1_2 C21_2 1_555 1_555
O1_2 Co5 1_555 1_555
O2_2 Co5 1_555 1_555
O4_2 C4_2 1_555 1_555
C2_2 H1_2 1_555 1_555
C3_2 C2_2 1_555 1_555
H2_2 C3_2 1_555 1_555
C4_2 C3_2 1_555 1_555
C5_2 C4_2 1_555 1_555
H3_2 C5_2 1_555 1_555
C7_2 O4_2 1_555 1_555
C8_2 C7_2 1_555 1_555
H5_2 C8_2 1_555 1_555
C9_2 C8_2 1_555 1_555
H6_2 C9_2 1_555 1_555
C10_2 C9_2 1_555 1_555
C11_2 C10_2 1_555 1_555
H7_2 C11_2 1_555 1_555
C12_2 C7_2 1_555 1_555
H8_2 C12_2 1_555 1_555
C13_2 O1_2 1_555 1_555
C21_2 H13_2 1_555 1_555
C22_2 C21_2 1_555 1_555
H14_2 C22_2 1_555 1_555
C23_2 C22_2 1_555 1_555
H15_2 C23_2 1_555 1_555
C24_2 C23_2 1_555 1_555
C25_2 N1_2 1_555 1_555
C27_2 C26_2 1_555 1_555
C28_2 C27_2 1_555 1_555
H16_2 C28_2 1_555 1_555
C31_2 C24_2 1_555 1_555
H19_2 C31_2 1_555 1_555
C32_2 C27_2 1_555 1_555
H20_2 C32_2 1_555 1_555
O18_2 Co8_2 1_555 1_555
O21_2 Co8_2 1_555 1_555
O2_2 C13_2 1_555 1_555
C10_2 C13_2 1_555 1_555
C11_2 C12_2 1_555 1_555
C24_2 C25_2 1_555 1_555
C25_2 C26_2 1_555 1_555
C31_2 C32_2 1_555 1_555
C6_2 C1_2 1_555 1_555
H4_2 C6_2 1_555 1_555
O6_2 C33_2 1_555 1_555
O7_2 C33_2 1_555 1_555
C33_2 C1_2 1_555 1_555
Co4_2 O6_2 1_555 1_555
Co9_3 O7_2 1_555 1_555
N1_3 C21_3 1_555 1_555
H11_2 C19_2 1_555 1_555
C22_3 C21_3 1_555 1_555
H14_3 C22_3 1_555 1_555
C23_3 C22_3 1_555 1_555
H15_3 C23_3 1_555 1_555
C24_3 C23_3 1_555 1_555
C25_3 N1_3 1_555 1_555
C26_3 N2_3 1_555 1_555
C27_3 C26_3 1_555 1_555
C28_3 C27_3 1_555 1_555
H16_3 C28_3 1_555 1_555
C29_3 C28_3 1_555 1_555
H17_2 C29_3 1_555 1_555
C30_3 N2_3 1_555 1_555
H18_3 C30_3 1_555 1_555
C31_3 C24_3 1_555 1_555
H19_3 C31_3 1_555 1_555
C32_3 C27_3 1_555 1_555
H20_3 C32_3 1_555 1_555
Co9 O20_2 1_555 1_555
O11_2 C47_2 1_555 1_555
C47_2 C48_2 1_555 1_555
C48_2 C49_2 1_555 1_555
C49_2 H29_2 1_555 1_555
C50_2 C49_2 1_555 1_555
C51_2 O5_2 1_555 1_555
C53_2 C48_2 1_555 1_555
O20_2 C47_2 1_555 1_555
C24_3 C25_3 1_555 1_555
C25_3 C26_3 1_555 1_555
C29_3 C30_3 1_555 1_555
C31_3 C32_3 1_555 1_555
C50_2 C51_2 1_555 1_555
C39_3 C34_3 1_555 1_555
H24_3 C39_3 1_555 1_555
O15_2 C66_3 1_555 1_555
O19_2 C66_3 1_555 1_555
C66_3 C34_3 1_555 1_555
Co9_3 O1_3 1_555 1_555
O1_3 Co6_2 1_555 1_555
O2_3 Co6_2 1_555 1_555
O3_2 Co6_2 1_555 1_555
O4_3 C4_3 1_555 1_555
O5_3 C18_2 1_555 1_555
C1_3 C2_3 1_555 1_555
C2_3 H1_3 1_555 1_555
C3_3 C2_3 1_555 1_555
H2_3 C3_3 1_555 1_555
C4_3 C3_3 1_555 1_555
C5_3 C4_3 1_555 1_555
H3_3 C5_3 1_555 1_555
C6_3 C1_3 1_555 1_555
H4_3 C6_3 1_555 1_555
C7_3 O4_3 1_555 1_555
C8_3 C7_3 1_555 1_555
H5_3 C8_3 1_555 1_555
C9_3 C8_3 1_555 1_555
H6_3 C9_3 1_555 1_555
C10_3 C9_3 1_555 1_555
C11_3 C10_3 1_555 1_555
H7_3 C11_3 1_555 1_555
C12_3 C7_3 1_555 1_555
H8_3 C12_3 1_555 1_555
C13_3 O1_3 1_555 1_555
C14_2 O3_2 1_555 1_555
C15_2 C14_2 1_555 1_555
C16_2 C15_2 1_555 1_555
H9_2 C16_2 1_555 1_555
C17_2 C16_2 1_555 1_555
C18_2 C17_2 1_555 1_555
C20_2 C15_2 1_555 1_555
O16_2 C33_3 1_555 1_555
O18_2 C33_3 1_555 1_555
C33_3 C1_3 1_555 1_555
O8_2 Co9_3 1_555 1_555
Co4_2 N3_2 1_555 1_555
N3_2 C54_2 1_555 1_555
N4_3 Co4_2 1_555 1_555
O9_3 Co9_3 1_555 1_555
O10_3 Co4_2 1_555 1_555
O12_3 Co4_2 1_555 1_555
O13_3 C37_3 1_555 1_555
C35_3 H21_3 1_555 1_555
C36_3 C35_3 1_555 1_555
H22_3 C36_3 1_555 1_555
C37_3 C36_3 1_555 1_555
C38_3 C37_3 1_555 1_555
H23_3 C38_3 1_555 1_555
C40_3 O13_3 1_555 1_555
C41_3 C40_3 1_555 1_555
H25_3 C41_3 1_555 1_555
C42_3 C41_3 1_555 1_555
H26_3 C42_3 1_555 1_555
C43_3 C42_3 1_555 1_555
C44_3 C43_3 1_555 1_555
H27_3 C44_3 1_555 1_555
C45_3 C40_3 1_555 1_555
H28_3 C45_3 1_555 1_555
C46_3 O9_3 1_555 1_555
H31_2 C52_2 1_555 1_555
C54_2 H33_3 1_555 1_555
C55_2 C54_2 1_555 1_555
H34_2 C55_2 1_555 1_555
C56_2 C55_2 1_555 1_555
H35_2 C56_2 1_555 1_555
C57_2 C56_2 1_555 1_555
C58_2 N3_2 1_555 1_555
C59_2 N4_3 1_555 1_555
C60_2 C59_2 1_555 1_555
C61_2 C60_2 1_555 1_555
H36_2 C61_2 1_555 1_555
C62_3 C61_2 1_555 1_555
C63_3 N4_3 1_555 1_555
H38_3 C63_3 1_555 1_555
C64_2 C57_2 1_555 1_555
H39_2 C64_2 1_555 1_555
C65_2 C60_2 1_555 1_555
H40_2 C65_2 1_555 1_555
O21_3 Co9_3 1_555 1_555
O2_3 C13_3 1_555 1_555
C5_3 C6_3 1_555 1_555
C10_3 C13_3 1_555 1_555
C11_3 C12_3 1_555 1_555
C14_2 O8_2 1_555 1_555
Co4_2 O9_3 1_555 1_555
O10_3 C46_3 1_555 1_555
C43_3 C46_3 1_555 1_555
C44_3 C45_3 1_555 1_555
C57_2 C58_2 1_555 1_555
C58_2 C59_2 1_555 1_555
C62_3 C63_3 1_555 1_555
C64_2 C65_2 1_555 1_555
C39_4 C34_4 1_555 1_555
H24_4 C39_4 1_555 1_555
O15 C66_4 1_555 1_555
O19 C66_4 1_555 1_555
C66_4 C34_4 1_555 1_555
Co4 N3_3 1_555 1_555
N3_3 C54_3 1_555 1_555
O9_4 Co9 1_555 1_555
O10_4 Co4 1_555 1_555
O13_4 C37_4 1_555 1_555
C35_4 H21_4 1_555 1_555
C36_4 C35_4 1_555 1_555
H22_4 C36_4 1_555 1_555
C37_4 C36_4 1_555 1_555
C38_4 C37_4 1_555 1_555
H23_4 C38_4 1_555 1_555
C40_4 O13_4 1_555 1_555
C41_4 C40_4 1_555 1_555
H25_4 C41_4 1_555 1_555
C42_4 C41_4 1_555 1_555
H26_4 C42_4 1_555 1_555
C43_4 C42_4 1_555 1_555
C44_4 C43_4 1_555 1_555
H27_4 C44_4 1_555 1_555
C45_4 C40_4 1_555 1_555
H28_4 C45_4 1_555 1_555
C46_4 O9_4 1_555 1_555
C54_3 H33_4 1_555 1_555
C55_3 C54_3 1_555 1_555
H34_3 C55_3 1_555 1_555
C56_3 C55_3 1_555 1_555
H35_3 C56_3 1_555 1_555
C57_3 C56_3 1_555 1_555
C58_3 N3_3 1_555 1_555
C60_3 C59_3 1_555 1_555
C61_3 C60_3 1_555 1_555
H36_3 C61_3 1_555 1_555
C64_3 C57_3 1_555 1_555
H39_3 C64_3 1_555 1_555
C65_3 C60_3 1_555 1_555
H40_3 C65_3 1_555 1_555
Co4 O9_4 1_555 1_555
O10_4 C46_4 1_555 1_555
C43_4 C46_4 1_555 1_555
C44_4 C45_4 1_555 1_555
C57_3 C58_3 1_555 1_555
C58_3 C59_3 1_555 1_555
C64_3 C65_3 1_555 1_555
Co9_2 O1_4 1_555 1_555
O1_4 Co6 1_555 1_555
O2_4 Co6 1_555 1_555
O4_4 C4_4 1_555 1_555
C1_4 C2_4 1_555 1_555
C2_4 H1_4 1_555 1_555
C3_4 C2_4 1_555 1_555
H2_4 C3_4 1_555 1_555
C4_4 C3_4 1_555 1_555
C5_4 C4_4 1_555 1_555
H3_4 C5_4 1_555 1_555
C6_4 C1_4 1_555 1_555
H4_4 C6_4 1_555 1_555
C7_4 O4_4 1_555 1_555
C8_4 C7_4 1_555 1_555
H5_4 C8_4 1_555 1_555
C9_4 C8_4 1_555 1_555
H6_4 C9_4 1_555 1_555
C10_4 C9_4 1_555 1_555
C11_4 C10_4 1_555 1_555
H7_4 C11_4 1_555 1_555
C12_4 C7_4 1_555 1_555
H8_4 C12_4 1_555 1_555
C13_4 O1_4 1_555 1_555
O16 C33_4 1_555 1_555
O18 C33_4 1_555 1_555
C33_4 C1_4 1_555 1_555
C63_4 N4_4 1_555 1_555
H38_4 C63_4 1_555 1_555
O21_4 Co9_2 1_555 1_555
O2_4 C13_4 1_555 1_555
C5_4 C6_4 1_555 1_555
C10_4 C13_4 1_555 1_555
C11_4 C12_4 1_555 1_555
C62_4 C63_4 1_555 1_555
H17_3 C29_4 1_555 1_555
C30_4 N2_4 1_555 1_555
H18_4 C30_4 1_555 1_555
C29_4 C30_4 1_555 1_555
O5_4 C18_3 1_555 1_555
C14_3 O12_3 1_555 1_555
C15_3 C14_3 1_555 1_555
C16_3 C15_3 1_555 1_555
H9_3 C16_3 1_555 1_555
C17_3 C16_3 1_555 1_555
H10_3 C17_3 1_555 1_555
C18_3 C17_3 1_555 1_555
C19_3 C18_3 1_555 1_555
H11_3 C19_3 1_555 1_555
C20_3 C15_3 1_555 1_555
H12_3 C20_3 1_555 1_555
O12_4 C47_3 1_555 1_555
C47_3 C48_3 1_555 1_555
C48_3 C49_3 1_555 1_555
C49_3 H29_3 1_555 1_555
C50_3 C49_3 1_555 1_555
H30_3 C50_3 1_555 1_555
C51_3 O5_4 1_555 1_555
C52_3 C51_3 1_555 1_555
H31_3 C52_3 1_555 1_555
C53_3 C48_3 1_555 1_555
H32_3 C53_3 1_555 1_555
O21_4 C47_3 1_555 1_555
C14_3 O21_3 1_555 1_555
C19_3 C20_3 1_555 1_555
C50_3 C51_3 1_555 1_555
C52_3 C53_3 1_555 1_555
O5_5 C18_4 1_555 1_555
C14_4 O12 1_555 1_555
C15_4 C14_4 1_555 1_555
C16_4 C15_4 1_555 1_555
H9_4 C16_4 1_555 1_555
C17_4 C16_4 1_555 1_555
C18_4 C17_4 1_555 1_555
C20_4 C15_4 1_555 1_555
H31_4 C52_4 1_555 1_555
C14_4 O21 1_555 1_555
H11_4 C19_4 1_555 1_555
O12_2 C47_4 1_555 1_555
C47_4 C48_4 1_555 1_555
C48_4 C49_4 1_555 1_555
C49_4 H29_4 1_555 1_555
C50_4 C49_4 1_555 1_555
C51_4 O5_6 1_555 1_555
C53_4 C48_4 1_555 1_555
O21_2 C47_4 1_555 1_555
C50_4 C51_4 1_555 1_555
N3_4 C54_4 1_555 1_555
C55_4 C54_4 1_555 1_555
H34_4 C55_4 1_555 1_555
C56_4 C55_4 1_555 1_555
H35_4 C56_4 1_555 1_555
C57_4 C56_4 1_555 1_555
C58_4 N3_4 1_555 1_555
C60_4 C59_4 1_555 1_555
C61_4 C60_4 1_555 1_555
H36_4 C61_4 1_555 1_555
C64_4 C57_4 1_555 1_555
H39_4 C64_4 1_555 1_555
C65_4 C60_4 1_555 1_555
H40_4 C65_4 1_555 1_555
C57_4 C58_4 1_555 1_555
C58_4 C59_4 1_555 1_555
C64_4 C65_4 1_555 1_555
N1_4 C21_4 1_555 1_555
C22_4 C21_4 1_555 1_555
H14_4 C22_4 1_555 1_555
C23_4 C22_4 1_555 1_555
H15_4 C23_4 1_555 1_555
C24_4 C23_4 1_555 1_555
C25_4 N1_4 1_555 1_555
C27_4 C26_4 1_555 1_555
C28_4 C27_4 1_555 1_555
H16_4 C28_4 1_555 1_555
C31_4 C24_4 1_555 1_555
H19_4 C31_4 1_555 1_555
C32_4 C27_4 1_555 1_555
H20_4 C32_4 1_555 1_555
C24_4 C25_4 1_555 1_555
C25_4 C26_4 1_555 1_555
C31_4 C32_4 1_555 1_555

#END
