
###############################################################################
#
# This file contains modified crystal structure data generated from the
# MOF subset of the Cambridge Structural Database (CSD) v543 
# hosted by the Cambridge Crystallographic Data Centre (CCDC).
#
# This work is licensed under the Creative Commons
# Attribution-NonCommercial-ShareAlike 4.0 International License.
# To view a copy of this license, visit
# http://creativecommons.org/licenses/by-nc-sa/4.0/
# or send a letter to
# Creative Commons, PO Box 1866, Mountain View, CA 94042, USA.
#
# CIF created using the CSD Python API on 29 September 2022
# The structure has been converted into the P1 space group
# The structure has a 3D framework
# The original CSD entry GAXKOH is in the trigonal crystal system
# The framework has been calculated to contain at least 10.0% void space
# The void calculation uses a probe of radius 1.32A, grid spacing 0.4
# H atom positions have been added when not included in the experimental data
# Generated hydrogen atom positions removed from atoms on special positions
#
###############################################################################

data_GAXKOH
_chemical_formula_moiety         '(C144 H120 Cd6 K2 N12 O30)n'
_symmetry_cell_setting           triclinic
_symmetry_space_group_name_H-M   'P 1'
_symmetry_Int_Tables_number      1
_space_group_name_Hall           'P 1'
loop_
_symmetry_equiv_pos_site_id
_symmetry_equiv_pos_as_xyz
1 x,y,z
_cell_length_a                   18.007(3)
_cell_length_b                   18.007(3)
_cell_length_c                   19.288(4)
_cell_angle_alpha                90
_cell_angle_beta                 90
_cell_angle_gamma                120
_cell_volume                     5416.27
loop_
_atom_site_label
_atom_site_type_symbol
_atom_site_fract_x
_atom_site_fract_y
_atom_site_fract_z
Cd7 Cd 0.414466(27) 0.207233(19) 0.2500
N4 N 0.4079(3) 0.1016(3) 0.17780(19)
C50 C 0.4394(5) 0.0527(4) 0.1939(3)
H31 H 0.4635 0.0598 0.2378
C65 C 0.3730(6) 0.0293(5) 0.0701(3)
H41 H 0.3492 0.0241 0.0263
C70 C 0.3757(6) 0.0898(5) 0.1149(3)
H46 H 0.3538 0.1241 0.1001
Cd6 Cd 0.792767(19) 0.207233(19) 0.2500
N3 N 0.6937(4) 0.1016(3) 0.32220(19)
C49 C 0.6133(6) 0.0527(4) 0.3061(3)
H30 H 0.5963 0.0598 0.2622
C64 C 0.6563(8) 0.0293(5) 0.4299(3)
H40 H 0.6749 0.0241 0.4737
C69 C 0.7141(8) 0.0898(5) 0.3851(3)
H45 H 0.7703 0.1241 0.3999
Cd8 Cd 0.792767(19) 0.585534(27) 0.2500
N5 N 0.6937(4) 0.5921(3) 0.17780(19)
C25 C 0.4035(3) 0.9124(3) 0.0392(2)
C26 C 0.5089(4) 0.5965(3) 0.0392(2)
C27 C 0.0876(3) 0.4911(4) 0.0392(2)
C30 C 0.4433(5) 0.8661(5) 0.0558(3)
C31 C 0.4228(7) 0.5567(5) 0.0558(3)
C32 C 0.1339(5) 0.5772(7) 0.0558(3)
H16 H 0.4695 0.8739 0.0988
H17 H 0.4044 0.5305 0.0988
H18 H 0.1261 0.5956 0.0988
C35 C 0.4447(5) 0.8086(5) 0.0094(3)
C36 C 0.3639(7) 0.5553(5) 0.0094(3)
C37 C 0.1914(5) 0.6361(7) 0.0094(3)
H21 H 0.4712 0.7774 0.0216
H22 H 0.3062 0.5288 0.0216
H23 H 0.2226 0.6938 0.0216
C51 C 0.6133(6) 0.5606(5) 0.1939(3)
H32 H 0.5963 0.5365 0.2378
C55 C 0.4402(5) 0.9919(4) 0.1520(3)
C56 C 0.5517(6) 0.5598(5) 0.1520(3)
C57 C 0.0081(4) 0.4483(6) 0.1520(3)
H36 H 0.4655 0.9607 0.1674
H37 H 0.4952 0.5345 0.1674
H38 H 0.0393 0.5048 0.1674
C60 C 0.4039(3) 0.9768(3) 0.0875(2)
C61 C 0.5729(4) 0.5961(3) 0.0875(2)
C62 C 0.0232(3) 0.4271(4) 0.0875(2)
C66 C 0.6563(8) 0.6270(6) 0.0701(3)
H42 H 0.6749 0.6508 0.0263
C71 C 0.7141(8) 0.6243(6) 0.1149(3)
H47 H 0.7703 0.6462 0.1001
Cd1 Cd 0.207233(19) 0.792767(19) 0.7500
K1 K 0.3333 0.6667 0.7500
O1 O 0.1332(2) 0.7172(3) 0.65283(17)
O2 O 0.2271(2) 0.6798(3) 0.68219(17)
O3 O 0.1285(3) 0.8715(3) 0.7500
C1 C 0.1594(3) 0.6342(3) 0.5720(2)
C2 C 0.1014(3) 0.6353(3) 0.5254(2)
H1 H 0.0711 0.6627 0.5377
C3 C 0.0876(3) 0.5965(3) 0.4608(2)
C4 C 0.1339(5) 0.5567(5) 0.4442(3)
H2 H 0.1261 0.5305 0.4012
C5 C 0.1914(5) 0.5553(5) 0.4906(3)
H3 H 0.2226 0.5288 0.4784
C6 C 0.2029(4) 0.5926(4) 0.5548(3)
H4 H 0.2403 0.5897 0.5865
C7 C 0.1744(3) 0.6798(3) 0.6408(2)
C9 C 0.0081(4) 0.5598(5) 0.3480(3)
H6 H 0.0393 0.5345 0.3326
C10 C 0.0232(3) 0.5961(3) 0.4125(2)
Cd2 Cd 0.207233(19) 0.414466(27) 0.7500
Cd3 Cd 0.585534(27) 0.792767(19) 0.7500
O4 O 0.2828(3) 0.4160(4) 0.65283(17)
O5 O 0.5840(4) 0.8668(2) 0.65283(17)
O6 O 0.2828(3) 0.8668(2) 0.84717(17)
O7 O 0.5840(4) 0.7172(3) 0.84717(17)
O8 O 0.1332(2) 0.4160(4) 0.84717(17)
O9 O 0.3202(3) 0.5473(4) 0.68219(17)
O10 O 0.4527(4) 0.7729(2) 0.68219(17)
O11 O 0.3202(3) 0.7729(2) 0.81781(17)
O12 O 0.4527(4) 0.6798(3) 0.81781(17)
O13 O 0.2271(2) 0.5473(4) 0.81781(17)
O14 O 0.1285(3) 0.2570(4) 0.7500
O15 O 0.7430(4) 0.8715(3) 0.7500
N2 N 0.4079(3) 0.3063(4) 0.32220(19)
N7 N 0.3063(4) 0.8984(3) 0.67780(19)
N8 N 0.1016(3) 0.6937(4) 0.82220(19)
N9 N 0.1016(3) 0.4079(3) 0.67780(19)
N10 N 0.3063(4) 0.4079(3) 0.82220(19)
N11 N 0.5921(3) 0.6937(4) 0.67780(19)
N12 N 0.5921(3) 0.8984(3) 0.82220(19)
C13 C 0.3658(3) 0.5252(4) 0.5720(2)
C14 C 0.4748(4) 0.8406(3) 0.5720(2)
C15 C 0.3658(3) 0.8406(3) 0.9280(2)
C16 C 0.4748(4) 0.6342(3) 0.9280(2)
C17 C 0.1594(3) 0.5252(4) 0.9280(2)
C18 C 0.3647(3) 0.4661(4) 0.5254(2)
C19 C 0.5339(4) 0.8986(3) 0.5254(2)
C20 C 0.3647(3) 0.8986(3) 0.9746(2)
C21 C 0.5339(4) 0.6353(3) 0.9746(2)
C22 C 0.1014(3) 0.4661(4) 0.9746(2)
H9 H 0.3373 0.4084 0.5377
H10 H 0.5916 0.9289 0.5377
H11 H 0.3373 0.9289 0.9623
H12 H 0.5916 0.6627 0.9623
H13 H 0.0711 0.4084 0.9623
C23 C 0.4035(3) 0.4911(4) 0.4608(2)
C24 C 0.5089(4) 0.9124(3) 0.4608(2)
C28 C 0.4433(5) 0.5772(7) 0.4442(3)
C29 C 0.4228(7) 0.8661(5) 0.4442(3)
H14 H 0.4695 0.5956 0.4012
H15 H 0.4044 0.8739 0.4012
C33 C 0.4447(5) 0.6361(7) 0.4906(3)
C34 C 0.3639(7) 0.8086(5) 0.4906(3)
H19 H 0.4712 0.6938 0.4784
H20 H 0.3062 0.7774 0.4784
C38 C 0.4074(4) 0.6103(6) 0.5548(3)
C39 C 0.3897(6) 0.7971(4) 0.5548(3)
C40 C 0.4074(4) 0.7971(4) 0.9452(3)
C41 C 0.3897(6) 0.5926(4) 0.9452(3)
C42 C 0.2029(4) 0.6103(6) 0.9452(3)
H24 H 0.4103 0.6506 0.5865
H25 H 0.3494 0.7597 0.5865
H26 H 0.4103 0.7597 0.9135
H27 H 0.3494 0.5897 0.9135
H28 H 0.2403 0.6506 0.9135
C43 C 0.3202(3) 0.4946(4) 0.6408(2)
C44 C 0.5054(4) 0.8256(3) 0.6408(2)
C45 C 0.3202(3) 0.8256(3) 0.8592(2)
C46 C 0.5054(4) 0.6798(3) 0.8592(2)
C47 C 0.1744(3) 0.4946(4) 0.8592(2)
C48 C 0.4394(5) 0.3867(6) 0.3061(3)
H29 H 0.4635 0.4037 0.2622
C53 C 0.4402(5) 0.4483(6) 0.3480(3)
C54 C 0.5517(6) 0.9919(4) 0.3480(3)
H34 H 0.4655 0.5048 0.3326
H35 H 0.4952 0.9607 0.3326
C58 C 0.4039(3) 0.4271(4) 0.4125(2)
C59 C 0.5729(4) 0.9768(3) 0.4125(2)
C63 C 0.3730(6) 0.3437(8) 0.4299(3)
H39 H 0.3492 0.3251 0.4737
C68 C 0.3757(6) 0.2859(8) 0.3851(3)
H44 H 0.3538 0.2297 0.3999
N6 N 0.8984(3) 0.3063(4) 0.17780(19)
C52 C 0.9473(4) 0.3867(6) 0.1939(3)
H33 H 0.9402 0.4037 0.2378
C67 C 0.9707(5) 0.3437(8) 0.0701(3)
H43 H 0.9759 0.3251 0.0263
C72 C 0.9102(5) 0.2859(8) 0.1149(3)
H48 H 0.8759 0.2297 0.1001
N1 N 0.8984(3) 0.5921(3) 0.32220(19)
C8 C 0.9473(4) 0.5606(5) 0.3061(3)
H5 H 0.9402 0.5365 0.2622
C11 C 0.9707(5) 0.6270(6) 0.4299(3)
H7 H 0.9759 0.6508 0.4737
C12 C 0.9102(5) 0.6243(6) 0.3851(3)
H8 H 0.8759 0.6462 0.3999
C8_2 C 0.0527(4) 0.4394(5) 0.6939(3)
H5_2 H 0.0598 0.4635 0.7378
C11_2 C 0.0293(5) 0.3730(6) 0.5701(3)
H7_2 H 0.0241 0.3492 0.5263
C12_2 C 0.0898(5) 0.3757(6) 0.6149(3)
H8_2 H 0.1241 0.3538 0.6001
C52_2 C 0.0527(4) 0.6133(6) 0.8061(3)
H33_2 H 0.0598 0.5963 0.7622
C67_2 C 0.0293(5) 0.6563(8) 0.9299(3)
H43_2 H 0.0241 0.6749 0.9737
C72_2 C 0.0898(5) 0.7141(8) 0.8851(3)
H48_2 H 0.1241 0.7703 0.8999
K1_2 K 0.6667 0.3333 0.2500
O1_2 O 0.8668(2) 0.2828(3) 0.34717(17)
O2_2 O 0.7729(2) 0.3202(3) 0.31781(17)
O3_2 O 0.8715(3) 0.1285(3) 0.2500
C1_2 C 0.8406(3) 0.3658(3) 0.4280(2)
C2_2 C 0.8986(3) 0.3647(3) 0.4746(2)
H1_2 H 0.9289 0.3373 0.4623
C3_2 C 0.9124(3) 0.4035(3) 0.5392(2)
C4_2 C 0.8661(5) 0.4433(5) 0.5558(3)
H2_2 H 0.8739 0.4695 0.5988
C5_2 C 0.8086(5) 0.4447(5) 0.5094(3)
H3_2 H 0.7774 0.4712 0.5216
C6_2 C 0.7971(4) 0.4074(4) 0.4452(3)
H4_2 H 0.7597 0.4103 0.4135
C7_2 C 0.8256(3) 0.3202(3) 0.3592(2)
C9_2 C 0.9919(4) 0.4402(5) 0.6520(3)
H6_2 H 0.9607 0.4655 0.6674
C10_2 C 0.9768(3) 0.4039(3) 0.5875(2)
O4_2 O 0.7172(3) 0.5840(4) 0.34717(17)
O5_2 O 0.4160(4) 0.1332(2) 0.34717(17)
O6_2 O 0.7172(3) 0.1332(2) 0.15283(17)
O7_2 O 0.4160(4) 0.2828(3) 0.15283(17)
O8_2 O 0.8668(2) 0.5840(4) 0.15283(17)
O9_2 O 0.6798(3) 0.4527(4) 0.31781(17)
O10_2 O 0.5473(4) 0.2271(2) 0.31781(17)
O11_2 O 0.6798(3) 0.2271(2) 0.18219(17)
O12_2 O 0.5473(4) 0.3202(3) 0.18219(17)
O13_2 O 0.7729(2) 0.4527(4) 0.18219(17)
O14_2 O 0.8715(3) 0.7430(4) 0.2500
O15_2 O 0.2570(4) 0.1285(3) 0.2500
C13_2 C 0.6342(3) 0.4748(4) 0.4280(2)
C14_2 C 0.5252(4) 0.1594(3) 0.4280(2)
C15_2 C 0.6342(3) 0.1594(3) 0.0720(2)
C16_2 C 0.5252(4) 0.3658(3) 0.0720(2)
C17_2 C 0.8406(3) 0.4748(4) 0.0720(2)
C18_2 C 0.6353(3) 0.5339(4) 0.4746(2)
C19_2 C 0.4661(4) 0.1014(3) 0.4746(2)
C20_2 C 0.6353(3) 0.1014(3) 0.0254(2)
C21_2 C 0.4661(4) 0.3647(3) 0.0254(2)
C22_2 C 0.8986(3) 0.5339(4) 0.0254(2)
H9_2 H 0.6627 0.5916 0.4623
H10_2 H 0.4084 0.0711 0.4623
H11_2 H 0.6627 0.0711 0.0377
H12_2 H 0.4084 0.3373 0.0377
H13_2 H 0.9289 0.5916 0.0377
C23_2 C 0.5965(3) 0.5089(4) 0.5392(2)
C24_2 C 0.4911(4) 0.0876(3) 0.5392(2)
C28_2 C 0.5567(5) 0.4228(7) 0.5558(3)
C29_2 C 0.5772(7) 0.1339(5) 0.5558(3)
H14_2 H 0.5305 0.4044 0.5988
H15_2 H 0.5956 0.1261 0.5988
C33_2 C 0.5553(5) 0.3639(7) 0.5094(3)
C34_2 C 0.6361(7) 0.1914(5) 0.5094(3)
H19_2 H 0.5288 0.3062 0.5216
H20_2 H 0.6938 0.2226 0.5216
C38_2 C 0.5926(4) 0.3897(6) 0.4452(3)
C39_2 C 0.6103(6) 0.2029(4) 0.4452(3)
C40_2 C 0.5926(4) 0.2029(4) 0.0548(3)
C41_2 C 0.6103(6) 0.4074(4) 0.0548(3)
C42_2 C 0.7971(4) 0.3897(6) 0.0548(3)
H24_2 H 0.5897 0.3494 0.4135
H25_2 H 0.6506 0.2403 0.4135
H26_2 H 0.5897 0.2403 0.0865
H27_2 H 0.6506 0.4103 0.0865
H28_2 H 0.7597 0.3494 0.0865
C43_2 C 0.6798(3) 0.5054(4) 0.3592(2)
C44_2 C 0.4946(4) 0.1744(3) 0.3592(2)
C45_2 C 0.6798(3) 0.1744(3) 0.1408(2)
C46_2 C 0.4946(4) 0.3202(3) 0.1408(2)
C47_2 C 0.8256(3) 0.5054(4) 0.1408(2)
C48_2 C 0.5606(5) 0.6133(6) 0.6939(3)
H29_2 H 0.5365 0.5963 0.7378
C53_2 C 0.5598(5) 0.5517(6) 0.6520(3)
C54_2 C 0.4483(6) 0.0081(4) 0.6520(3)
H34_2 H 0.5345 0.4952 0.6674
H35_2 H 0.5048 0.0393 0.6674
C58_2 C 0.5961(3) 0.5729(4) 0.5875(2)
C59_2 C 0.4271(4) 0.0232(3) 0.5875(2)
C63_2 C 0.6270(6) 0.6563(8) 0.5701(3)
H39_2 H 0.6508 0.6749 0.5263
C68_2 C 0.6243(6) 0.7141(8) 0.6149(3)
H44_2 H 0.6462 0.7703 0.6001
C25_2 C 0.5965(3) 0.0876(3) 0.9608(2)
C26_2 C 0.4911(4) 0.4035(3) 0.9608(2)
C27_2 C 0.9124(3) 0.5089(4) 0.9608(2)
C30_2 C 0.5567(5) 0.1339(5) 0.9442(3)
C31_2 C 0.5772(7) 0.4433(5) 0.9442(3)
C32_2 C 0.8661(5) 0.4228(7) 0.9442(3)
H16_2 H 0.5305 0.1261 0.9012
H17_2 H 0.5956 0.4695 0.9012
H18_2 H 0.8739 0.4044 0.9012
C35_2 C 0.5553(5) 0.1914(5) 0.9906(3)
C36_2 C 0.6361(7) 0.4447(5) 0.9906(3)
C37_2 C 0.8086(5) 0.3639(7) 0.9906(3)
H21_2 H 0.5288 0.2226 0.9784
H22_2 H 0.6938 0.4712 0.9784
H23_2 H 0.7774 0.3062 0.9784
C51_2 C 0.3867(6) 0.4394(5) 0.8061(3)
H32_2 H 0.4037 0.4635 0.7622
C55_2 C 0.5598(5) 0.0081(4) 0.8480(3)
C56_2 C 0.4483(6) 0.4402(5) 0.8480(3)
C57_2 C 0.9919(4) 0.5517(6) 0.8480(3)
H36_2 H 0.5345 0.0393 0.8326
H37_2 H 0.5048 0.4655 0.8326
H38_2 H 0.9607 0.4952 0.8326
C60_2 C 0.5961(3) 0.0232(3) 0.9125(2)
C61_2 C 0.4271(4) 0.4039(3) 0.9125(2)
C62_2 C 0.9768(3) 0.5729(4) 0.9125(2)
C66_2 C 0.3437(8) 0.3730(6) 0.9299(3)
H42_2 H 0.3251 0.3492 0.9737
C71_2 C 0.2859(8) 0.3757(6) 0.8851(3)
H47_2 H 0.2297 0.3538 0.8999
C49_2 C 0.3867(6) 0.9473(4) 0.6939(3)
H30_2 H 0.4037 0.9402 0.7378
C64_2 C 0.3437(8) 0.9707(5) 0.5701(3)
H40_2 H 0.3251 0.9759 0.5263
C69_2 C 0.2859(8) 0.9102(5) 0.6149(3)
H45_2 H 0.2297 0.8759 0.6001
C50_2 C 0.5606(5) 0.9473(4) 0.8061(3)
H31_2 H 0.5365 0.9402 0.7622
C65_2 C 0.6270(6) 0.9707(5) 0.9299(3)
H41_2 H 0.6508 0.9759 0.9737
C70_2 C 0.6243(6) 0.9102(5) 0.8851(3)
H46_2 H 0.6462 0.8759 0.8999
loop_
_geom_bond_atom_site_label_1
_geom_bond_atom_site_label_2
_geom_bond_site_symmetry_1
_geom_bond_site_symmetry_2
Cd7 N4 1_555 1_555
N4 C50 1_555 1_555
C50 H31 1_555 1_555
H41 C65 1_555 1_555
C70 N4 1_555 1_555
H46 C70 1_555 1_555
C65 C70 1_555 1_555
Cd6 N3 1_555 1_555
N3 C49 1_555 1_555
C49 H30 1_555 1_555
H40 C64 1_555 1_555
C69 N3 1_555 1_555
H45 C69 1_555 1_555
C64 C69 1_555 1_555
Cd8 N5 1_555 1_555
N5 C51 1_555 1_555
C30 C25 1_555 1_555
C31 C26 1_555 1_555
C32 C27 1_555 1_555
H16 C30 1_555 1_555
H17 C31 1_555 1_555
H18 C32 1_555 1_555
C35 C30 1_555 1_555
C36 C31 1_555 1_555
C37 C32 1_555 1_555
H21 C35 1_555 1_555
H22 C36 1_555 1_555
H23 C37 1_555 1_555
C51 H32 1_555 1_555
C56 C51 1_555 1_555
H36 C55 1_555 1_555
H37 C56 1_555 1_555
H38 C57 1_555 1_555
C60 C25 1_555 1_555
C61 C26 1_555 1_555
C62 C27 1_555 1_555
C66 C61 1_555 1_555
H42 C66 1_555 1_555
C71 N5 1_555 1_555
H47 C71 1_555 1_555
C55 C60 1_555 1_555
C56 C61 1_555 1_555
C57 C62 1_555 1_555
C66 C71 1_555 1_555
Cd1 O1 1_555 1_555
K1 O2 1_555 1_555
O1 C7 1_555 1_555
O2 C7 1_555 1_555
O3 Cd1 1_555 1_555
C1 C2 1_555 1_555
C2 H1 1_555 1_555
C3 C2 1_555 1_555
C4 C3 1_555 1_555
H2 C4 1_555 1_555
C5 C4 1_555 1_555
H3 C5 1_555 1_555
C6 C1 1_555 1_555
H4 C6 1_555 1_555
C7 C1 1_555 1_555
H6 C9 1_555 1_555
C10 C3 1_555 1_555
Cd2 O4 1_555 1_555
Cd3 O5 1_555 1_555
Cd7 N2 1_555 1_555
O4 C43 1_555 1_555
O5 C44 1_555 1_555
O6 Cd1 1_555 1_555
O7 Cd3 1_555 1_555
O8 Cd2 1_555 1_555
O9 K1 1_555 1_555
O10 K1 1_555 1_555
O11 K1 1_555 1_555
O12 K1 1_555 1_555
O13 K1 1_555 1_555
O14 Cd2 1_555 1_555
O15 Cd3 1_555 1_555
N2 C48 1_555 1_555
N7 Cd1 1_555 1_555
N8 Cd1 1_555 1_555
N9 Cd2 1_555 1_555
N10 Cd2 1_555 1_555
N11 Cd3 1_555 1_555
N12 Cd3 1_555 1_555
C13 C18 1_555 1_555
C14 C19 1_555 1_555
C15 C20 1_555 1_555
C16 C21 1_555 1_555
C17 C22 1_555 1_555
C18 H9 1_555 1_555
C19 H10 1_555 1_555
C20 H11 1_555 1_555
C21 H12 1_555 1_555
C22 H13 1_555 1_555
C23 C18 1_555 1_555
C24 C19 1_555 1_555
C28 C23 1_555 1_555
C29 C24 1_555 1_555
H14 C28 1_555 1_555
H15 C29 1_555 1_555
C33 C28 1_555 1_555
C34 C29 1_555 1_555
H19 C33 1_555 1_555
H20 C34 1_555 1_555
C38 C13 1_555 1_555
C39 C14 1_555 1_555
C40 C15 1_555 1_555
C41 C16 1_555 1_555
C42 C17 1_555 1_555
H24 C38 1_555 1_555
H25 C39 1_555 1_555
H26 C40 1_555 1_555
H27 C41 1_555 1_555
H28 C42 1_555 1_555
C43 O9 1_555 1_555
C44 O10 1_555 1_555
C45 O6 1_555 1_555
C46 O7 1_555 1_555
C47 O8 1_555 1_555
C48 H29 1_555 1_555
C53 C48 1_555 1_555
H34 C53 1_555 1_555
H35 C54 1_555 1_555
C58 C23 1_555 1_555
C59 C24 1_555 1_555
C63 C58 1_555 1_555
H39 C63 1_555 1_555
C68 N2 1_555 1_555
H44 C68 1_555 1_555
C5 C6 1_555 1_555
C9 C10 1_555 1_555
O11 C45 1_555 1_555
O12 C46 1_555 1_555
O13 C47 1_555 1_555
C13 C43 1_555 1_555
C14 C44 1_555 1_555
C15 C45 1_555 1_555
C16 C46 1_555 1_555
C17 C47 1_555 1_555
C33 C38 1_555 1_555
C34 C39 1_555 1_555
C53 C58 1_555 1_555
C54 C59 1_555 1_555
C63 C68 1_555 1_555
Cd6 N6 1_555 1_555
N6 C52 1_555 1_555
C52 H33 1_555 1_555
H43 C67 1_555 1_555
C72 N6 1_555 1_555
H48 C72 1_555 1_555
C67 C72 1_555 1_555
N1 C8 1_555 1_555
C8 H5 1_555 1_555
H7 C11 1_555 1_555
C12 N1 1_555 1_555
H8 C12 1_555 1_555
Cd8 N1 1_555 1_555
C11 C12 1_555 1_555
N9 C8_2 1_555 1_555
C8_2 H5_2 1_555 1_555
H7_2 C11_2 1_555 1_555
C12_2 N9 1_555 1_555
H8_2 C12_2 1_555 1_555
C11_2 C12_2 1_555 1_555
N8 C52_2 1_555 1_555
C52_2 H33_2 1_555 1_555
H43_2 C67_2 1_555 1_555
C72_2 N8 1_555 1_555
H48_2 C72_2 1_555 1_555
C67_2 C72_2 1_555 1_555
Cd6 O1_2 1_555 1_555
K1_2 O2_2 1_555 1_555
O1_2 C7_2 1_555 1_555
O2_2 C7_2 1_555 1_555
O3_2 Cd6 1_555 1_555
C1_2 C2_2 1_555 1_555
C2_2 H1_2 1_555 1_555
C3_2 C2_2 1_555 1_555
C4_2 C3_2 1_555 1_555
H2_2 C4_2 1_555 1_555
C5_2 C4_2 1_555 1_555
H3_2 C5_2 1_555 1_555
C6_2 C1_2 1_555 1_555
H4_2 C6_2 1_555 1_555
C7_2 C1_2 1_555 1_555
H6_2 C9_2 1_555 1_555
C10_2 C3_2 1_555 1_555
Cd8 O4_2 1_555 1_555
Cd7 O5_2 1_555 1_555
O4_2 C43_2 1_555 1_555
O5_2 C44_2 1_555 1_555
O6_2 Cd6 1_555 1_555
O7_2 Cd7 1_555 1_555
O8_2 Cd8 1_555 1_555
O9_2 K1_2 1_555 1_555
O10_2 K1_2 1_555 1_555
O11_2 K1_2 1_555 1_555
O12_2 K1_2 1_555 1_555
O13_2 K1_2 1_555 1_555
O14_2 Cd8 1_555 1_555
O15_2 Cd7 1_555 1_555
N11 C48_2 1_555 1_555
C13_2 C18_2 1_555 1_555
C14_2 C19_2 1_555 1_555
C15_2 C20_2 1_555 1_555
C16_2 C21_2 1_555 1_555
C17_2 C22_2 1_555 1_555
C18_2 H9_2 1_555 1_555
C19_2 H10_2 1_555 1_555
C20_2 H11_2 1_555 1_555
C21_2 H12_2 1_555 1_555
C22_2 H13_2 1_555 1_555
C23_2 C18_2 1_555 1_555
C24_2 C19_2 1_555 1_555
C28_2 C23_2 1_555 1_555
C29_2 C24_2 1_555 1_555
H14_2 C28_2 1_555 1_555
H15_2 C29_2 1_555 1_555
C33_2 C28_2 1_555 1_555
C34_2 C29_2 1_555 1_555
H19_2 C33_2 1_555 1_555
H20_2 C34_2 1_555 1_555
C38_2 C13_2 1_555 1_555
C39_2 C14_2 1_555 1_555
C40_2 C15_2 1_555 1_555
C41_2 C16_2 1_555 1_555
C42_2 C17_2 1_555 1_555
H24_2 C38_2 1_555 1_555
H25_2 C39_2 1_555 1_555
H26_2 C40_2 1_555 1_555
H27_2 C41_2 1_555 1_555
H28_2 C42_2 1_555 1_555
C43_2 O9_2 1_555 1_555
C44_2 O10_2 1_555 1_555
C45_2 O6_2 1_555 1_555
C46_2 O7_2 1_555 1_555
C47_2 O8_2 1_555 1_555
C48_2 H29_2 1_555 1_555
C53_2 C48_2 1_555 1_555
H34_2 C53_2 1_555 1_555
H35_2 C54_2 1_555 1_555
C58_2 C23_2 1_555 1_555
C59_2 C24_2 1_555 1_555
C63_2 C58_2 1_555 1_555
H39_2 C63_2 1_555 1_555
C68_2 N11 1_555 1_555
H44_2 C68_2 1_555 1_555
C5_2 C6_2 1_555 1_555
C9_2 C10_2 1_555 1_555
O11_2 C45_2 1_555 1_555
O12_2 C46_2 1_555 1_555
O13_2 C47_2 1_555 1_555
C13_2 C43_2 1_555 1_555
C14_2 C44_2 1_555 1_555
C15_2 C45_2 1_555 1_555
C16_2 C46_2 1_555 1_555
C17_2 C47_2 1_555 1_555
C33_2 C38_2 1_555 1_555
C34_2 C39_2 1_555 1_555
C53_2 C58_2 1_555 1_555
C54_2 C59_2 1_555 1_555
C63_2 C68_2 1_555 1_555
N10 C51_2 1_555 1_555
C30_2 C25_2 1_555 1_555
C31_2 C26_2 1_555 1_555
C32_2 C27_2 1_555 1_555
H16_2 C30_2 1_555 1_555
H17_2 C31_2 1_555 1_555
H18_2 C32_2 1_555 1_555
C35_2 C30_2 1_555 1_555
C36_2 C31_2 1_555 1_555
C37_2 C32_2 1_555 1_555
H21_2 C35_2 1_555 1_555
H22_2 C36_2 1_555 1_555
H23_2 C37_2 1_555 1_555
C51_2 H32_2 1_555 1_555
C56_2 C51_2 1_555 1_555
H36_2 C55_2 1_555 1_555
H37_2 C56_2 1_555 1_555
H38_2 C57_2 1_555 1_555
C60_2 C25_2 1_555 1_555
C61_2 C26_2 1_555 1_555
C62_2 C27_2 1_555 1_555
C66_2 C61_2 1_555 1_555
H42_2 C66_2 1_555 1_555
C71_2 N10 1_555 1_555
H47_2 C71_2 1_555 1_555
C55_2 C60_2 1_555 1_555
C56_2 C61_2 1_555 1_555
C57_2 C62_2 1_555 1_555
C66_2 C71_2 1_555 1_555
N7 C49_2 1_555 1_555
C49_2 H30_2 1_555 1_555
H40_2 C64_2 1_555 1_555
C69_2 N7 1_555 1_555
H45_2 C69_2 1_555 1_555
C64_2 C69_2 1_555 1_555
N12 C50_2 1_555 1_555
C50_2 H31_2 1_555 1_555
H41_2 C65_2 1_555 1_555
C70_2 N12 1_555 1_555
H46_2 C70_2 1_555 1_555
C65_2 C70_2 1_555 1_555

#END
