
###############################################################################
#
# This file contains modified crystal structure data generated from the
# MOF subset of the Cambridge Structural Database (CSD) v543 
# hosted by the Cambridge Crystallographic Data Centre (CCDC).
#
# This work is licensed under the Creative Commons
# Attribution-NonCommercial-ShareAlike 4.0 International License.
# To view a copy of this license, visit
# http://creativecommons.org/licenses/by-nc-sa/4.0/
# or send a letter to
# Creative Commons, PO Box 1866, Mountain View, CA 94042, USA.
#
# CIF created using the CSD Python API on 29 September 2022
# The structure has been converted into the P1 space group
# The structure has a 3D framework
# The original CSD entry GAXREE is in the monoclinic crystal system
# The framework has been calculated to contain at least 10.0% void space
# The void calculation uses a probe of radius 1.32A, grid spacing 0.4
#
###############################################################################

data_GAXREE
_chemical_formula_moiety         '(C128 H96 Co8 N40 O34)n'
_symmetry_cell_setting           triclinic
_symmetry_space_group_name_H-M   'P 1'
_symmetry_Int_Tables_number      1
_space_group_name_Hall           'P 1'
loop_
_symmetry_equiv_pos_site_id
_symmetry_equiv_pos_as_xyz
1 x,y,z
_cell_length_a                   8.2800(17)
_cell_length_b                   28.059(6)
_cell_length_c                   16.424(3)
_cell_angle_alpha                90
_cell_angle_beta                 94.02(3)
_cell_angle_gamma                90
_cell_volume                     3806.38
loop_
_atom_site_label
_atom_site_type_symbol
_atom_site_fract_x
_atom_site_fract_y
_atom_site_fract_z
Co1 Co 0.23010(7) 0.42683(2) 0.84811(4)
C1 C 0.2244(6) 0.40240(16) 0.6604(3)
C2 C 0.3440(6) 0.39913(19) 0.5990(3)
H1 H 0.3068 0.3935 0.5451
C3 C 0.4978(6) 0.40359(19) 0.6153(3)
H2 H 0.5352 0.4078 0.6696
C4 C 0.6189(6) 0.40243(18) 0.5529(3)
C9 C 0.0767(7) 0.34418(18) 0.9358(4)
H5 H 0.0253 0.3687 0.9620
C10 C 0.0401(7) 0.29859(19) 0.9552(4)
C11 C 0.1134(6) 0.26184(17) 0.9177(3)
C12 C 0.2242(8) 0.27377(19) 0.8638(4)
H7 H 0.2797 0.2500 0.8378
C13 C 0.2537(7) 0.32001(19) 0.8480(4)
H8 H 0.3302 0.3271 0.8110
C14 C 0.0723(7) 0.21239(18) 0.9343(3)
C15 C 0.0567(6) 0.13867(17) 0.9235(3)
C16 C 0.0725(6) 0.08947(18) 0.8998(3)
C17 C 0.1922(8) 0.0754(2) 0.8534(4)
H9 H 0.2677 0.0974 0.8372
C18 C 0.2020(8) 0.0292(2) 0.8303(4)
H10 H 0.2851 0.0206 0.7980
C21 C 0.2104(8) 0.5333(2) 0.8435(4)
H13 H 0.1550 0.5270 0.8897
C22 C 0.2176(8) 0.5791(2) 0.8171(4)
H14 H 0.1702 0.6035 0.8454
C23 C 0.2955(7) 0.58894(18) 0.7481(3)
C24 C 0.3681(7) 0.55249(19) 0.7109(4)
H15 H 0.4244 0.5578 0.6647
C25 C 0.3568(6) 0.50759(18) 0.7427(3)
H16 H 0.4082 0.4828 0.7173
C26 C 0.2999(7) 0.63777(18) 0.7199(3)
C27 C 0.2767(7) 0.71078(18) 0.7108(3)
C28 C 0.2359(7) 0.75953(19) 0.7305(3)
C29 C 0.2908(8) 0.7967(2) 0.6887(4)
H17 H 0.3546 0.7916 0.6451
C30 C 0.2525(8) 0.8417(2) 0.7105(4)
H18 H 0.2919 0.8669 0.6809
C31 C 0.1416(9) 0.7695(2) 0.7926(4)
H19 H 0.1009 0.7448 0.8230
C32 C 0.1069(8) 0.81514(19) 0.8103(4)
H20 H 0.0400 0.8210 0.8523
H21 H 0.549(6) 0.426(2) 0.850(3)
H22 H 0.485(7) 0.420(2) 0.9225(14)
H24 H 0.387(8) 0.633(2) 0.613(3)
N1 N 0.1800(5) 0.35570(14) 0.8823(3)
N2 N 0.1273(5) 0.17525(15) 0.8922(3)
N6 N 0.2771(5) 0.49756(14) 0.8075(3)
N7 N 0.2471(6) 0.67428(16) 0.7596(3)
N8 N 0.3408(7) 0.69943(16) 0.6436(3)
N9 N 0.3541(7) 0.65184(16) 0.6501(3)
N10 N 0.1629(5) 0.85164(14) 0.7710(3)
O1 O 0.2735(4) 0.40393(13) 0.7327(2)
O2 O 0.0809(4) 0.40511(12) 0.6336(2)
O3 O 0.7639(4) 0.40526(13) 0.5783(2)
O4 O 0.5716(5) 0.39875(16) 0.4806(2)
O9 O 0.4742(4) 0.41221(13) 0.8726(2)
Co4 Co 0.11951(7) 0.92146(2) 0.81131(4)
Co6 Co 0.88049(7) 0.42146(2) 0.68869(4)
O14 O 0.2051(4) 0.45337(12) 0.9626(2)
N5 N 0.1019(5) 0.99571(15) 0.8508(3)
O11 O 0.2361(4) 0.90526(13) 0.9217(2)
O12 O 0.0155(4) 0.94022(11) 0.6889(2)
O13 O 0.2699(4) 0.94972(11) 0.7201(2)
C5 C 0.8501(6) 0.45626(16) 0.8287(3)
C6 C 0.8352(6) 0.48387(18) 0.9031(3)
H3 H 0.9129 0.4804 0.9464
C7 C 0.7151(6) 0.51327(19) 0.9100(3)
H4 H 0.6392 0.5154 0.8656
C8 C 0.6875(7) 0.5436(2) 0.9814(3)
H6 H 0.9657 0.2924 0.9938
C19 C 0.9685(7) 0.05524(19) 0.9220(4)
H11 H 0.8842 0.0630 0.9542
C20 C 0.9883(7) 0.00962(19) 0.8969(3)
N3 N 0.9760(6) 0.20036(15) 0.9905(3)
N4 N 0.9661(6) 0.15302(16) 0.9819(3)
O5 O 0.9845(4) 0.44022(11) 0.8111(2)
O6 O 0.7301(4) 0.44972(11) 0.7799(2)
O8 O 0.5538(6) 0.5629(2) 0.9795(3)
H12 H 0.9163 0.9868 0.9136
O10 O 0.9191(4) 0.90511(12) 0.8664(2)
C5_2 C 0.1499(6) 0.95626(16) 0.6713(3)
C6_2 C 0.1648(6) 0.98387(18) 0.5969(3)
H3_2 H 0.0871 0.9804 0.5536
H6_2 H 0.0343 0.7924 0.5062
C19_2 C 0.0315(7) 0.55524(19) 0.5780(4)
H11_2 H 0.1158 0.5630 0.5458
C20_2 C 0.0117(7) 0.50962(19) 0.6031(3)
H12_2 H 0.0837 0.4868 0.5864
H23 H 0.083(7) 0.6346(18) 0.485(3)
N3_2 N 0.0240(6) 0.70036(15) 0.5095(3)
N4_2 N 0.0339(6) 0.65302(16) 0.5181(3)
C21_2 C 0.7896(8) 0.0333(2) 0.6565(4)
H13_2 H 0.8450 0.0270 0.6103
C22_2 C 0.7824(8) 0.0791(2) 0.6829(4)
H14_2 H 0.8298 0.1035 0.6546
C23_2 C 0.7045(7) 0.08894(18) 0.7519(3)
C24_2 C 0.6319(7) 0.05249(19) 0.7891(4)
H15_2 H 0.5756 0.0578 0.8353
C25_2 C 0.6432(6) 0.00759(18) 0.7573(3)
C26_2 C 0.7001(7) 0.13777(18) 0.7801(3)
C27_2 C 0.7233(7) 0.21078(18) 0.7892(3)
C28_2 C 0.7641(7) 0.25953(19) 0.7695(3)
C29_2 C 0.7092(8) 0.2967(2) 0.8113(4)
H17_2 H 0.6454 0.2916 0.8549
C30_2 C 0.7475(8) 0.3417(2) 0.7895(4)
H18_2 H 0.7081 0.3669 0.8191
C31_2 C 0.8584(9) 0.2695(2) 0.7074(4)
H19_2 H 0.8991 0.2448 0.6770
C32_2 C 0.8931(8) 0.31514(19) 0.6897(4)
H20_2 H 0.9600 0.3210 0.6477
H24_2 H 0.613(8) 0.133(2) 0.887(3)
N7_2 N 0.7529(6) 0.17428(16) 0.7404(3)
N8_2 N 0.6592(7) 0.19943(16) 0.8564(3)
N9_2 N 0.6459(7) 0.15184(16) 0.8499(3)
N10_2 N 0.8371(5) 0.35164(14) 0.7290(3)
Co1_2 Co 0.76990(7) 0.92683(2) 0.65189(4)
C1_2 C 0.7756(6) 0.90240(16) 0.8396(3)
C2_2 C 0.6560(6) 0.89913(19) 0.9010(3)
H1_2 H 0.6932 0.8935 0.9549
C3_2 C 0.5022(6) 0.90359(19) 0.8847(3)
H2_2 H 0.4648 0.9078 0.8304
C4_2 C 0.3811(6) 0.90243(18) 0.9471(3)
C9_2 C 0.9233(7) 0.84418(18) 0.5642(4)
H5_2 H 0.9747 0.8687 0.5380
C10_2 C 0.9599(7) 0.79859(19) 0.5448(4)
C11_2 C 0.8866(6) 0.76184(17) 0.5823(3)
C12_2 C 0.7758(8) 0.77377(19) 0.6362(4)
H7_2 H 0.7203 0.7500 0.6622
C13_2 C 0.7463(7) 0.82001(19) 0.6520(4)
H8_2 H 0.6698 0.8271 0.6890
C14_2 C 0.9277(7) 0.71239(18) 0.5657(3)
C15_2 C 0.9433(6) 0.63867(17) 0.5765(3)
C16_2 C 0.9275(6) 0.58947(18) 0.6002(3)
C17_2 C 0.8078(8) 0.5754(2) 0.6466(4)
H9_2 H 0.7323 0.5974 0.6628
C18_2 C 0.7980(8) 0.5292(2) 0.6697(4)
H10_2 H 0.7149 0.5206 0.7020
H16_2 H 0.5918 0.9828 0.7827
H21_2 H 0.451(6) 0.926(2) 0.650(3)
H22_2 H 0.515(7) 0.920(2) 0.5775(14)
N1_2 N 0.8200(5) 0.85570(14) 0.6177(3)
N2_2 N 0.8727(5) 0.67525(15) 0.6078(3)
N5_2 N 0.8981(5) 0.49571(15) 0.6492(3)
N6_2 N 0.7229(5) 0.99756(14) 0.6925(3)
O1_2 O 0.7265(4) 0.90393(13) 0.7673(2)
O9_2 O 0.5258(4) 0.91221(13) 0.6274(2)
O14_2 O 0.7949(4) 0.95337(12) 0.5374(2)
H23_2 H 0.083(7) 0.8654(18) 0.985(3)
C7_2 C 0.7151(6) 0.98673(19) 0.4100(3)
H4_2 H 0.6392 0.9846 0.3656
C8_2 C 0.6875(7) 0.9564(2) 0.4814(3)
O8_2 O 0.5538(6) 0.9371(2) 0.4795(3)
H23_3 H 0.917(7) 0.1346(18) 0.015(3)
O7 O 0.7949(4) 0.54663(12) 0.0374(2)
Co3 Co 0.76990(7) 0.57317(2) 0.15189(4)
C7_3 C 0.2849(6) 0.01327(19) 0.5900(3)
H4_3 H 0.3608 0.0154 0.6344
C8_3 C 0.3125(7) 0.0436(2) 0.5186(3)
O7_2 O 0.2051(4) 0.04663(12) 0.4626(2)
O8_3 O 0.4462(6) 0.0629(2) 0.5205(3)
Co3_2 Co 0.23010(7) 0.07317(2) 0.34811(4)
H12_3 H 0.0837 0.0132 0.0864
O10_2 O 0.0809(4) 0.09489(12) 0.1336(2)
C5_3 C 0.1499(6) 0.54374(16) 0.1713(3)
C6_3 C 0.1648(6) 0.51613(18) 0.0969(3)
H3_3 H 0.0871 0.5196 0.0536
C7_4 C 0.2849(6) 0.48673(19) 0.0900(3)
H4_4 H 0.3608 0.4846 0.1344
C8_4 C 0.3125(7) 0.4564(2) 0.0186(3)
H6_3 H 0.0343 0.7076 0.0062
C19_3 C 0.0315(7) 0.94476(19) 0.0780(4)
H11_3 H 0.1158 0.9370 0.0458
C20_3 C 0.0117(7) 0.99038(19) 0.1031(3)
N3_3 N 0.0240(6) 0.79964(15) 0.0095(3)
N4_3 N 0.0339(6) 0.84698(16) 0.0181(3)
O5_2 O 0.0155(4) 0.55978(11) 0.1889(2)
O6_2 O 0.2699(4) 0.55028(11) 0.2201(2)
O8_4 O 0.4462(6) 0.4371(2) 0.0205(3)
Co5 Co 0.11951(7) 0.57854(2) 0.31131(4)
Co2 Co 0.88049(7) 0.07854(2) 0.18869(4)
N5_3 N 0.8981(5) 0.00429(15) 0.1492(3)
N11 N 0.8371(5) 0.14836(14) 0.2290(3)
O11_2 O 0.7639(4) 0.09474(13) 0.0783(2)
O12_2 O 0.9845(4) 0.05978(11) 0.3111(2)
O13_2 O 0.7301(4) 0.05028(11) 0.2799(2)
C1_3 C 0.7756(6) 0.59760(16) 0.3396(3)
C2_3 C 0.6560(6) 0.60087(19) 0.4010(3)
H1_3 H 0.6932 0.6065 0.4549
C3_3 C 0.5022(6) 0.59641(19) 0.3847(3)
H2_3 H 0.4648 0.5922 0.3304
C4_3 C 0.3811(6) 0.59757(18) 0.4471(3)
C9_3 C 0.9233(7) 0.65582(18) 0.0642(4)
H5_3 H 0.9747 0.6313 0.0380
C10_3 C 0.9599(7) 0.70141(19) 0.0448(4)
C11_3 C 0.8866(6) 0.73816(17) 0.0823(3)
C12_3 C 0.7758(8) 0.72623(19) 0.1362(4)
H7_3 H 0.7203 0.7500 0.1622
C13_3 C 0.7463(7) 0.67999(19) 0.1520(4)
H8_3 H 0.6698 0.6729 0.1890
C14_3 C 0.9277(7) 0.78761(18) 0.0657(3)
C15_3 C 0.9433(6) 0.86133(17) 0.0765(3)
C16_3 C 0.9275(6) 0.91053(18) 0.1002(3)
C17_3 C 0.8078(8) 0.9246(2) 0.1466(4)
H9_3 H 0.7323 0.9026 0.1628
C18_3 C 0.7980(8) 0.9708(2) 0.1697(4)
H10_3 H 0.7149 0.9794 0.2020
C21_3 C 0.7896(8) 0.4667(2) 0.1565(4)
H13_3 H 0.8450 0.4730 0.1103
C22_3 C 0.7824(8) 0.4209(2) 0.1829(4)
H14_3 H 0.8298 0.3965 0.1546
C23_3 C 0.7045(7) 0.41106(18) 0.2519(3)
C24_3 C 0.6319(7) 0.44751(19) 0.2891(4)
H15_3 H 0.5756 0.4422 0.3353
C25_3 C 0.6432(6) 0.49241(18) 0.2573(3)
H16_3 H 0.5918 0.5172 0.2827
C26_3 C 0.7001(7) 0.36223(18) 0.2801(3)
C27_3 C 0.7233(7) 0.28922(18) 0.2892(3)
C28_3 C 0.7641(7) 0.24047(19) 0.2695(3)
C29_3 C 0.7092(8) 0.2033(2) 0.3113(4)
H17_3 H 0.6454 0.2084 0.3549
C30_3 C 0.7475(8) 0.1583(2) 0.2895(4)
H18_3 H 0.7081 0.1331 0.3191
C31_3 C 0.8584(9) 0.2305(2) 0.2074(4)
H19_3 H 0.8991 0.2552 0.1770
C32_3 C 0.8931(8) 0.18486(19) 0.1897(4)
H20_3 H 0.9600 0.1790 0.1477
H21_3 H 0.451(6) 0.574(2) 0.150(3)
H22_3 H 0.515(7) 0.580(2) 0.0775(14)
H24_3 H 0.613(8) 0.367(2) 0.387(3)
N1_3 N 0.8200(5) 0.64430(14) 0.1177(3)
N2_3 N 0.8727(5) 0.82475(15) 0.1078(3)
N6_3 N 0.7229(5) 0.50244(14) 0.1925(3)
N7_3 N 0.7529(6) 0.32572(16) 0.2404(3)
N8_3 N 0.6592(7) 0.30057(16) 0.3564(3)
N9_3 N 0.6459(7) 0.34816(16) 0.3499(3)
O1_3 O 0.7265(4) 0.59607(13) 0.2673(2)
O2_2 O 0.9191(4) 0.59489(12) 0.3664(2)
O3_2 O 0.2361(4) 0.59474(13) 0.4217(2)
O4_2 O 0.4284(5) 0.60125(16) 0.5194(2)
O9_3 O 0.5258(4) 0.58779(13) 0.1274(2)
C1_4 C 0.2244(6) 0.09760(16) 0.1604(3)
C2_4 C 0.3440(6) 0.10087(19) 0.0990(3)
H1_4 H 0.3068 0.1065 0.0451
C3_4 C 0.4978(6) 0.09641(19) 0.1153(3)
H2_4 H 0.5352 0.0922 0.1696
C4_4 C 0.6189(6) 0.09757(18) 0.0529(3)
C9_4 C 0.0767(7) 0.15582(18) 0.4358(4)
H5_4 H 0.0253 0.1313 0.4620
C10_4 C 0.0401(7) 0.20141(19) 0.4552(4)
C11_4 C 0.1134(6) 0.23816(17) 0.4177(3)
C12_4 C 0.2242(8) 0.22623(19) 0.3638(4)
H7_4 H 0.2797 0.2500 0.3378
C13_4 C 0.2537(7) 0.17999(19) 0.3480(4)
H8_4 H 0.3302 0.1729 0.3110
C14_4 C 0.0723(7) 0.28761(18) 0.4343(3)
C15_4 C 0.0567(6) 0.36133(17) 0.4235(3)
C16_4 C 0.0725(6) 0.41053(18) 0.3998(3)
C17_4 C 0.1922(8) 0.4246(2) 0.3534(4)
H9_4 H 0.2677 0.4026 0.3372
C18_4 C 0.2020(8) 0.4708(2) 0.3303(4)
H10_4 H 0.2851 0.4794 0.2980
H16_4 H 0.4082 0.0172 0.2173
H21_4 H 0.549(6) 0.074(2) 0.350(3)
H22_4 H 0.485(7) 0.080(2) 0.4225(14)
N1_4 N 0.1800(5) 0.14430(14) 0.3823(3)
N2_4 N 0.1273(5) 0.32475(15) 0.3922(3)
N5_4 N 0.1019(5) 0.50429(15) 0.3508(3)
N6_4 N 0.2771(5) 0.00244(14) 0.3075(3)
O1_4 O 0.2735(4) 0.09607(13) 0.2327(2)
O9_4 O 0.4742(4) 0.08779(13) 0.3726(2)
N11_2 N 0.1629(5) 0.64836(14) 0.2710(3)
C21_4 C 0.2104(8) 0.9667(2) 0.3435(4)
H13_4 H 0.1550 0.9730 0.3897
C22_4 C 0.2176(8) 0.9209(2) 0.3171(4)
H14_4 H 0.1702 0.8965 0.3454
C23_4 C 0.2955(7) 0.91106(18) 0.2481(3)
C24_4 C 0.3681(7) 0.94751(19) 0.2109(4)
H15_4 H 0.4244 0.9422 0.1647
C25_4 C 0.3568(6) 0.99241(18) 0.2427(3)
C26_4 C 0.2999(7) 0.86223(18) 0.2199(3)
C27_4 C 0.2767(7) 0.78922(18) 0.2108(3)
C28_4 C 0.2359(7) 0.74047(19) 0.2305(3)
C29_4 C 0.2908(8) 0.7033(2) 0.1887(4)
H17_4 H 0.3546 0.7084 0.1451
C30_4 C 0.2525(8) 0.6583(2) 0.2105(4)
H18_4 H 0.2919 0.6331 0.1809
C31_4 C 0.1416(9) 0.7305(2) 0.2926(4)
H19_4 H 0.1009 0.7552 0.3230
C32_4 C 0.1069(8) 0.68486(19) 0.3103(4)
H20_4 H 0.0400 0.6790 0.3523
H24_4 H 0.387(8) 0.867(2) 0.113(3)
N7_4 N 0.2471(6) 0.82572(16) 0.2596(3)
N8_4 N 0.3408(7) 0.80057(16) 0.1436(3)
N9_4 N 0.3541(7) 0.84816(16) 0.1501(3)
C5_4 C 0.8501(6) 0.04374(16) 0.3287(3)
C6_4 C 0.8352(6) 0.01613(18) 0.4031(3)
H3_4 H 0.9129 0.0196 0.4464
H6_4 H 0.9657 0.2076 0.4938
C19_4 C 0.9685(7) 0.44476(19) 0.4220(4)
H11_4 H 0.8842 0.4370 0.4542
C20_4 C 0.9883(7) 0.49038(19) 0.3969(3)
H12_4 H 0.9163 0.5132 0.4136
H23_4 H 0.917(7) 0.3654(18) 0.515(3)
N3_4 N 0.9760(6) 0.29964(15) 0.4905(3)
N4_4 N 0.9661(6) 0.34698(16) 0.4819(3)
O4_3 O 0.4284(5) 0.89875(16) 0.0194(2)
O4_4 O 0.5716(5) 0.10125(16) 0.9806(2)
loop_
_geom_bond_atom_site_label_1
_geom_bond_atom_site_label_2
_geom_bond_site_symmetry_1
_geom_bond_site_symmetry_2
Co1 N1 1_555 1_555
C1 C2 1_555 1_555
C2 H1 1_555 1_555
C3 C2 1_555 1_555
H2 C3 1_555 1_555
C4 C3 1_555 1_555
C9 H5 1_555 1_555
C10 C9 1_555 1_555
C11 C10 1_555 1_555
C12 C11 1_555 1_555
H7 C12 1_555 1_555
C13 C12 1_555 1_555
H8 C13 1_555 1_555
C14 C11 1_555 1_555
C15 C16 1_555 1_555
C16 C17 1_555 1_555
C17 H9 1_555 1_555
C18 C17 1_555 1_555
H10 C18 1_555 1_555
C21 H13 1_555 1_555
C22 C21 1_555 1_555
H14 C22 1_555 1_555
C23 C22 1_555 1_555
C24 C23 1_555 1_555
H15 C24 1_555 1_555
C25 C24 1_555 1_555
H16 C25 1_555 1_555
C26 C23 1_555 1_555
C27 C28 1_555 1_555
C28 C29 1_555 1_555
C29 H17 1_555 1_555
C30 C29 1_555 1_555
H18 C30 1_555 1_555
C31 C28 1_555 1_555
H19 C31 1_555 1_555
C32 C31 1_555 1_555
H20 C32 1_555 1_555
H21 O9 1_555 1_555
H22 O9 1_555 1_555
H24 N9 1_555 1_555
N1 C9 1_555 1_555
N2 C14 1_555 1_555
N6 Co1 1_555 1_555
N7 C26 1_555 1_555
N8 C27 1_555 1_555
N9 C26 1_555 1_555
N10 C30 1_555 1_555
O1 Co1 1_555 1_555
O2 C1 1_555 1_555
O3 C4 1_555 1_555
O4 C4 1_555 1_555
O9 Co1 1_555 1_555
Co4 N10 1_555 1_555
Co6 O3 1_555 1_555
O14 Co1 1_555 1_555
C1 O1 1_555 1_555
C13 N1 1_555 1_555
C15 N2 1_555 1_555
C21 N6 1_555 1_555
C25 N6 1_555 1_555
C27 N7 1_555 1_555
C32 N10 1_555 1_555
N8 N9 1_555 1_555
Co4 N5 1_555 1_555
O11 Co4 1_555 1_555
O12 Co4 1_555 1_555
O13 Co4 1_555 1_555
C5 C6 1_555 1_555
C6 H3 1_555 1_555
C7 C6 1_555 1_555
H4 C7 1_555 1_555
C8 C7 1_555 1_555
H11 C19 1_555 1_555
C20 C19 1_555 1_555
O6 C5 1_555 1_555
O8 C8 1_555 1_555
C5 O5 1_555 1_555
N3 N4 1_555 1_555
O5 Co6 1_555 1_555
O6 Co6 1_555 1_555
C5_2 C6_2 1_555 1_555
C6_2 H3_2 1_555 1_555
H11_2 C19_2 1_555 1_555
C20_2 C19_2 1_555 1_555
H12_2 C20_2 1_555 1_555
H23 N4_2 1_555 1_555
O13 C5_2 1_555 1_555
C5_2 O12 1_555 1_555
N3_2 N4_2 1_555 1_555
C21_2 H13_2 1_555 1_555
C22_2 C21_2 1_555 1_555
H14_2 C22_2 1_555 1_555
C23_2 C22_2 1_555 1_555
C24_2 C23_2 1_555 1_555
H15_2 C24_2 1_555 1_555
C25_2 C24_2 1_555 1_555
C26_2 C23_2 1_555 1_555
C27_2 C28_2 1_555 1_555
C28_2 C29_2 1_555 1_555
C29_2 H17_2 1_555 1_555
C30_2 C29_2 1_555 1_555
H18_2 C30_2 1_555 1_555
C31_2 C28_2 1_555 1_555
H19_2 C31_2 1_555 1_555
C32_2 C31_2 1_555 1_555
H20_2 C32_2 1_555 1_555
H24_2 N9_2 1_555 1_555
N7_2 C26_2 1_555 1_555
N8_2 C27_2 1_555 1_555
N9_2 C26_2 1_555 1_555
N10_2 C30_2 1_555 1_555
Co6 N10_2 1_555 1_555
C27_2 N7_2 1_555 1_555
C32_2 N10_2 1_555 1_555
N8_2 N9_2 1_555 1_555
Co1_2 N1_2 1_555 1_555
Co6 N5_2 1_555 1_555
C1_2 C2_2 1_555 1_555
C2_2 H1_2 1_555 1_555
C3_2 C2_2 1_555 1_555
H2_2 C3_2 1_555 1_555
C4_2 C3_2 1_555 1_555
C9_2 H5_2 1_555 1_555
C10_2 C9_2 1_555 1_555
C11_2 C10_2 1_555 1_555
C12_2 C11_2 1_555 1_555
H7_2 C12_2 1_555 1_555
C13_2 C12_2 1_555 1_555
H8_2 C13_2 1_555 1_555
C14_2 C11_2 1_555 1_555
C15_2 C16_2 1_555 1_555
C16_2 C17_2 1_555 1_555
C17_2 H9_2 1_555 1_555
C18_2 C17_2 1_555 1_555
H10_2 C18_2 1_555 1_555
H21_2 O9_2 1_555 1_555
H22_2 O9_2 1_555 1_555
N1_2 C9_2 1_555 1_555
N2_2 C14_2 1_555 1_555
N5_2 C18_2 1_555 1_555
N6_2 Co1_2 1_555 1_555
O1_2 Co1_2 1_555 1_555
O10 C1_2 1_555 1_555
O11 C4_2 1_555 1_555
O9_2 Co1_2 1_555 1_555
O14_2 Co1_2 1_555 1_555
C1_2 O1_2 1_555 1_555
C13_2 N1_2 1_555 1_555
C15_2 N2_2 1_555 1_555
H4_2 C7_2 1_555 1_555
C8_2 C7_2 1_555 1_555
O14_2 C8_2 1_555 1_555
O8_2 C8_2 1_555 1_555
Co3 O7 1_555 1_555
H4_3 C7_3 1_555 1_555
C8_3 C7_3 1_555 1_555
O7_2 C8_3 1_555 1_555
O8_3 C8_3 1_555 1_555
Co3_2 O7_2 1_555 1_555
C5_3 C6_3 1_555 1_555
C6_3 H3_3 1_555 1_555
C7_4 C6_3 1_555 1_555
H4_4 C7_4 1_555 1_555
C8_4 C7_4 1_555 1_555
H11_3 C19_3 1_555 1_555
C20_3 C19_3 1_555 1_555
O6_2 C5_3 1_555 1_555
O8_4 C8_4 1_555 1_555
C5_3 O5_2 1_555 1_555
N3_3 N4_3 1_555 1_555
O5_2 Co5 1_555 1_555
O6_2 Co5 1_555 1_555
Co2 N5_3 1_555 1_555
N11 Co2 1_555 1_555
O11_2 Co2 1_555 1_555
O12_2 Co2 1_555 1_555
O13_2 Co2 1_555 1_555
Co3 N1_3 1_555 1_555
C1_3 C2_3 1_555 1_555
C2_3 H1_3 1_555 1_555
C3_3 C2_3 1_555 1_555
H2_3 C3_3 1_555 1_555
C4_3 C3_3 1_555 1_555
C9_3 H5_3 1_555 1_555
C10_3 C9_3 1_555 1_555
C11_3 C10_3 1_555 1_555
C12_3 C11_3 1_555 1_555
H7_3 C12_3 1_555 1_555
C13_3 C12_3 1_555 1_555
H8_3 C13_3 1_555 1_555
C14_3 C11_3 1_555 1_555
C15_3 C16_3 1_555 1_555
C16_3 C17_3 1_555 1_555
C17_3 H9_3 1_555 1_555
C18_3 C17_3 1_555 1_555
H10_3 C18_3 1_555 1_555
C21_3 H13_3 1_555 1_555
C22_3 C21_3 1_555 1_555
H14_3 C22_3 1_555 1_555
C23_3 C22_3 1_555 1_555
C24_3 C23_3 1_555 1_555
H15_3 C24_3 1_555 1_555
C25_3 C24_3 1_555 1_555
H16_3 C25_3 1_555 1_555
C26_3 C23_3 1_555 1_555
C27_3 C28_3 1_555 1_555
C28_3 C29_3 1_555 1_555
C29_3 H17_3 1_555 1_555
C30_3 C29_3 1_555 1_555
H18_3 C30_3 1_555 1_555
C31_3 C28_3 1_555 1_555
H19_3 C31_3 1_555 1_555
C32_3 C31_3 1_555 1_555
H20_3 C32_3 1_555 1_555
H21_3 O9_3 1_555 1_555
H22_3 O9_3 1_555 1_555
H24_3 N9_3 1_555 1_555
N1_3 C9_3 1_555 1_555
N2_3 C14_3 1_555 1_555
N6_3 Co3 1_555 1_555
N7_3 C26_3 1_555 1_555
N8_3 C27_3 1_555 1_555
N9_3 C26_3 1_555 1_555
N11 C30_3 1_555 1_555
O1_3 Co3 1_555 1_555
O2_2 C1_3 1_555 1_555
O3_2 C4_3 1_555 1_555
O4_2 C4_3 1_555 1_555
O9_3 Co3 1_555 1_555
Co5 O3_2 1_555 1_555
C1_3 O1_3 1_555 1_555
C13_3 N1_3 1_555 1_555
C15_3 N2_3 1_555 1_555
C21_3 N6_3 1_555 1_555
C25_3 N6_3 1_555 1_555
C27_3 N7_3 1_555 1_555
C32_3 N11 1_555 1_555
N8_3 N9_3 1_555 1_555
Co3_2 N1_4 1_555 1_555
Co5 N5_4 1_555 1_555
C1_4 C2_4 1_555 1_555
C2_4 H1_4 1_555 1_555
C3_4 C2_4 1_555 1_555
H2_4 C3_4 1_555 1_555
C4_4 C3_4 1_555 1_555
C9_4 H5_4 1_555 1_555
C10_4 C9_4 1_555 1_555
C11_4 C10_4 1_555 1_555
C12_4 C11_4 1_555 1_555
H7_4 C12_4 1_555 1_555
C13_4 C12_4 1_555 1_555
H8_4 C13_4 1_555 1_555
C14_4 C11_4 1_555 1_555
C15_4 C16_4 1_555 1_555
C16_4 C17_4 1_555 1_555
C17_4 H9_4 1_555 1_555
C18_4 C17_4 1_555 1_555
H10_4 C18_4 1_555 1_555
H21_4 O9_4 1_555 1_555
H22_4 O9_4 1_555 1_555
N1_4 C9_4 1_555 1_555
N2_4 C14_4 1_555 1_555
N5_4 C18_4 1_555 1_555
N6_4 Co3_2 1_555 1_555
O1_4 Co3_2 1_555 1_555
O10_2 C1_4 1_555 1_555
O11_2 C4_4 1_555 1_555
O9_4 Co3_2 1_555 1_555
N11_2 Co5 1_555 1_555
C1_4 O1_4 1_555 1_555
C13_4 N1_4 1_555 1_555
C15_4 N2_4 1_555 1_555
C21_4 H13_4 1_555 1_555
C22_4 C21_4 1_555 1_555
H14_4 C22_4 1_555 1_555
C23_4 C22_4 1_555 1_555
C24_4 C23_4 1_555 1_555
H15_4 C24_4 1_555 1_555
C25_4 C24_4 1_555 1_555
C26_4 C23_4 1_555 1_555
C27_4 C28_4 1_555 1_555
C28_4 C29_4 1_555 1_555
C29_4 H17_4 1_555 1_555
C30_4 C29_4 1_555 1_555
H18_4 C30_4 1_555 1_555
C31_4 C28_4 1_555 1_555
H19_4 C31_4 1_555 1_555
C32_4 C31_4 1_555 1_555
H20_4 C32_4 1_555 1_555
H24_4 N9_4 1_555 1_555
N7_4 C26_4 1_555 1_555
N8_4 C27_4 1_555 1_555
N9_4 C26_4 1_555 1_555
N11_2 C30_4 1_555 1_555
C27_4 N7_4 1_555 1_555
C32_4 N11_2 1_555 1_555
N8_4 N9_4 1_555 1_555
C5_4 C6_4 1_555 1_555
C6_4 H3_4 1_555 1_555
H11_4 C19_4 1_555 1_555
C20_4 C19_4 1_555 1_555
H12_4 C20_4 1_555 1_555
H23_4 N4_4 1_555 1_555
O13_2 C5_4 1_555 1_555
C5_4 O12_2 1_555 1_555
N3_4 N4_4 1_555 1_555

#END
