
###############################################################################
#
# This file contains modified crystal structure data generated from the
# MOF subset of the Cambridge Structural Database (CSD) v543 
# hosted by the Cambridge Crystallographic Data Centre (CCDC).
#
# This work is licensed under the Creative Commons
# Attribution-NonCommercial-ShareAlike 4.0 International License.
# To view a copy of this license, visit
# http://creativecommons.org/licenses/by-nc-sa/4.0/
# or send a letter to
# Creative Commons, PO Box 1866, Mountain View, CA 94042, USA.
#
# CIF created using the CSD Python API on 29 September 2022
# The structure has been converted into the P1 space group
# The structure has a 3D framework
# The original CSD entry GAXWUZ is in the monoclinic crystal system
# The framework has been calculated to contain at least 10.0% void space
# The void calculation uses a probe of radius 1.32A, grid spacing 0.4
# H atom positions have been added when not included in the experimental data
#
###############################################################################

data_GAXWUZ
_chemical_formula_moiety         '(C204 H148 N20 Ni4 O40 Pb8)n'
_symmetry_cell_setting           triclinic
_symmetry_space_group_name_H-M   'P 1'
_symmetry_Int_Tables_number      1
_space_group_name_Hall           'P 1'
loop_
_symmetry_equiv_pos_site_id
_symmetry_equiv_pos_as_xyz
1 x,y,z
_cell_length_a                   10.2406(5)
_cell_length_b                   24.0590(10)
_cell_length_c                   21.2577(8)
_cell_angle_alpha                90
_cell_angle_beta                 93.328(4)
_cell_angle_gamma                90
_cell_volume                     5228.61
loop_
_atom_site_label
_atom_site_type_symbol
_atom_site_fract_x
_atom_site_fract_y
_atom_site_fract_z
Ni1 Ni 0.28240(18) 0.05406(7) 0.50347(7)
O5 O 0.8630(12) 0.0837(5) 0.1544(5)
O6 O 0.7166(12) 0.0316(4) 0.1010(4)
O7 O 0.4270(10) 0.4595(4) 0.5440(5)
O8 O 0.2215(12) 0.4582(4) 0.5101(4)
N1 N 0.1773(11) 0.0005(4) 0.5463(4)
N3 N 0.3606(12) 0.1104(4) 0.4522(5)
N4 N 0.2505(11) 0.1088(4) 0.5674(4)
C5 C 0.0473(16) 0.0544(5) 0.6972(6)
C6 C 0.1161(16) 0.0540(6) 0.7552(7)
H3 H 0.2070 0.0547 0.7579
C7 C 0.0461(18) 0.0524(5) 0.8093(7)
H4 H 0.0931 0.0511 0.8480
C8 C 0.1209(16) 0.0539(6) 0.6373(7)
C9 C 0.1051(14) 0.0084(5) 0.5971(6)
C24 C 0.4184(15) 0.0041(6) 0.3990(6)
C25 C 0.4555(15) 0.0529(6) 0.3735(7)
C26 C 0.5343(15) 0.0539(5) 0.3141(6)
C27 C 0.6634(16) 0.0712(6) 0.3168(7)
H13 H 0.7033 0.0829 0.3549
C28 C 0.7295(16) 0.0710(6) 0.2659(6)
H14 H 0.8180 0.0798 0.2696
C29 C 0.6747(15) 0.0585(6) 0.2080(6)
C30 C 0.5469(18) 0.0433(7) 0.2036(7)
H15 H 0.5078 0.0351 0.1641
C31 C 0.4754(19) 0.0398(7) 0.2539(7)
H16 H 0.3885 0.0284 0.2497
C32 C 0.7596(16) 0.0583(6) 0.1503(6)
C33 C 0.4196(16) 0.1031(6) 0.3982(6)
C34 C 0.4486(18) 0.1566(6) 0.3715(7)
H17 H 0.4898 0.1627 0.3343
C35 C 0.4053(19) 0.1960(6) 0.4102(7)
H18 H 0.4071 0.2344 0.4045
C36 C 0.3568(14) 0.1667(6) 0.4609(7)
C37 C 0.3224(16) 0.1939(6) 0.5165(7)
C38 C 0.3270(18) 0.2557(6) 0.5192(7)
C39 C 0.2405(16) 0.2846(6) 0.4866(7)
H19 H 0.1764 0.2668 0.4612
C40 C 0.2436(12) 0.3390(6) 0.4896(4)
H20 H 0.1796 0.3576 0.4649
C41 C 0.3284(16) 0.3715(5) 0.5242(6)
C42 C 0.3226(18) 0.4325(7) 0.5271(6)
C43 C 0.4251(14) 0.3422(6) 0.5573(5)
H21 H 0.4912 0.3608 0.5806
C44 C 0.4229(14) 0.2857(7) 0.5555(6)
H22 H 0.4868 0.2660 0.5791
C45 C 0.2864(14) 0.1639(6) 0.5684(6)
C46 C 0.2645(17) 0.1883(7) 0.6285(6)
H23 H 0.2859 0.2243 0.6413
C47 C 0.2074(17) 0.1493(7) 0.6627(7)
H24 H 0.1810 0.1529 0.7036
C48 C 0.1949(15) 0.1000(6) 0.6228(6)
Pb3 Pb 0.97276(6) 0.06562(2) 0.06120(3)
Pb6 Pb 0.35472(6) 0.55331(2) 0.53236(3)
Pb7 Pb 0.64528(6) 0.44669(2) 0.46764(3)
H33 H 0.545483 0.0528785 0.403433
H34 H 0.22067 0.195562 0.498581
H37 H 0.20536 0.0345538 0.661912
Pb1 Pb 0.02724(6) 0.56562(2) 0.43880(3)
O3 O 0.2098(14) 0.6458(5) 0.4811(6)
O4 O 0.0129(14) 0.6635(4) 0.4390(6)
N2 N 0.3389(11) 0.9975(4) 0.4466(4)
C10 C 0.0248(17) 0.9628(6) 0.6061(7)
C11 C 0.0537(14) 0.9239(6) 0.5675(9)
H6 H 0.0192 0.8882 0.5658
C12 C 0.1512(15) 0.9468(6) 0.5268(6)
C13 C 0.2235(15) 0.9155(6) 0.4849(6)
C14 C 0.1964(15) 0.8546(5) 0.4782(6)
C15 C 0.0840(14) 0.8341(6) 0.4575(6)
H7 H 0.0160 0.8587 0.4475
C16 C 0.0606(17) 0.7787(6) 0.4499(7)
C17 C 0.1509(16) 0.7408(6) 0.4684(7)
C18 C 0.2703(18) 0.7593(6) 0.4917(8)
H9 H 0.3349 0.7337 0.5039
C19 C 0.2969(18) 0.8165(6) 0.4976(8)
H10 H 0.3779 0.8291 0.5138
C20 C 0.126(2) 0.6793(7) 0.4635(8)
C21 C 0.3168(15) 0.9418(6) 0.4506(6)
C22 C 0.3941(14) 0.9132(6) 0.4068(5)
H11 H 0.3999 0.8749 0.4021
C23 C 0.4566(17) 0.9512(7) 0.3740(7)
H12 H 0.5126 0.9449 0.3419
O12 O 0.1370(12) 0.5837(5) 0.3456(5)
H32 H 0.297321 0.906987 0.522617
O11 O 0.7902(14) 0.1458(5) 0.0189(6)
O14 O 0.4270(10) 0.0405(4) 0.0440(5)
Pb2 Pb 0.64528(6) 0.05331(2) 0.96764(3)
O1 O 0.7182(13) 0.0515(5) 0.8632(5)
O2 O 0.9026(14) 0.0502(5) 0.9183(5)
O9 O 0.4345(10) 0.0625(5) 0.8991(4)
C1 C 0.838(2) 0.0515(6) 0.8673(7)
C2 C 0.9147(16) 0.0525(6) 0.8090(7)
C3 C 0.8472(16) 0.0548(6) 0.7498(6)
H1 H 0.7563 0.0559 0.7473
C4 C 0.9122(18) 0.0555(6) 0.6961(7)
H2 H 0.8646 0.0568 0.6575
Pb4 Pb 0.97276(6) 0.43438(2) 0.56120(3)
H35 H 0.42347 0.029384 0.871421
H36 H 0.359226 0.0652292 0.926355
O10 O 0.8551(12) 0.5821(6) 0.3594(5)
N5 N 0.829(2) 0.6382(8) 0.2747(9)
H5 H 0.9607 0.9606 0.6353
H8 H 0.9806 0.7669 0.4316
C49 C 0.874(4) 0.5879(13) 0.3070(9)
H25 H 0.9179 0.5606 0.2855
C50 C 0.864(5) 0.6262(14) 0.2094(8)
H26 H 0.8866 0.5877 0.2059
H27 H 0.9367 0.6489 0.1992
H28 H 0.7902 0.6344 0.1807
C51 C 0.805(6) 0.6962(11) 0.253(2)
H29 H 0.7783 0.7184 0.2874
H30 H 0.7380 0.6965 0.2196
H31 H 0.8844 0.7113 0.2377
O13 O 0.5730(10) 0.9595(4) 0.9560(5)
O15 O 0.7785(12) 0.5418(4) 0.4899(4)
O16 O 0.7785(12) 0.9582(4) 0.9899(4)
O10_2 O 0.1449(12) 0.0821(6) 0.1406(5)
N5_2 N 0.171(2) 0.1382(8) 0.2253(9)
H8_2 H 0.0194 0.2669 0.0684
C49_2 C 0.126(4) 0.0879(13) 0.1930(9)
H25_2 H 0.0821 0.0606 0.2145
C50_2 C 0.136(5) 0.1262(14) 0.2906(8)
H26_2 H 0.1134 0.0877 0.2941
H27_2 H 0.0633 0.1489 0.3008
H28_2 H 0.2098 0.1344 0.3193
C51_2 C 0.195(6) 0.1962(11) 0.247(2)
H29_2 H 0.2217 0.2184 0.2126
H30_2 H 0.2620 0.1965 0.2804
H31_2 H 0.1156 0.2113 0.2623
O15_2 O 0.2215(12) 0.0418(4) 0.0101(4)
O1_2 O 0.2818(13) 0.5515(5) 0.6368(5)
O2_2 O 0.0974(14) 0.5502(5) 0.5817(5)
O9_2 O 0.5655(10) 0.5625(5) 0.6009(4)
C1_2 C 0.162(2) 0.5515(6) 0.6327(7)
C2_2 C 0.0853(16) 0.5525(6) 0.6910(7)
C3_2 C 0.1528(16) 0.5548(6) 0.7502(6)
H1_2 H 0.2437 0.5559 0.7527
C4_2 C 0.0878(18) 0.5555(6) 0.8039(7)
H2_2 H 0.1354 0.5568 0.8425
H5_2 H 0.0393 0.4606 0.8647
Pb4_2 Pb 0.02724(6) 0.93438(2) 0.93880(3)
O14_2 O 0.5730(10) 0.5405(4) 0.4560(5)
H35_2 H 0.57653 0.529384 0.628579
H36_2 H 0.640774 0.565229 0.573645
O4_2 O 0.9871(14) 0.1635(4) 0.0610(6)
O6_2 O 0.2834(12) 0.5316(4) 0.3990(4)
N2_2 N 0.6611(11) 0.4975(4) 0.0534(4)
N3_2 N 0.6394(12) 0.6104(4) 0.0478(5)
C13_2 C 0.7765(15) 0.4155(6) 0.0151(6)
C14_2 C 0.8036(15) 0.3546(5) 0.0218(6)
C15_2 C 0.9160(14) 0.3341(6) 0.0425(6)
H7_2 H 0.9840 0.3587 0.0525
C16_2 C 0.9394(17) 0.2787(6) 0.0501(7)
C17_2 C 0.8491(16) 0.2408(6) 0.0316(7)
C18_2 C 0.7297(18) 0.2593(6) 0.0083(8)
C19_2 C 0.7031(18) 0.3165(6) 0.0024(8)
C20_2 C 0.874(2) 0.1793(7) 0.0365(8)
C21_2 C 0.6832(15) 0.4418(6) 0.0494(6)
C22_2 C 0.6059(14) 0.4132(6) 0.0932(5)
H11_2 H 0.6001 0.3749 0.0979
C23_2 C 0.5434(17) 0.4512(7) 0.1260(7)
H12_2 H 0.4874 0.4449 0.1581
C24_2 C 0.5816(15) 0.5041(6) 0.1010(6)
C25_2 C 0.5445(15) 0.5529(6) 0.1265(7)
C26_2 C 0.4657(15) 0.5539(5) 0.1859(6)
C27_2 C 0.3366(16) 0.5712(6) 0.1832(7)
H13_2 H 0.2967 0.5829 0.1451
C28_2 C 0.2705(16) 0.5710(6) 0.2341(6)
H14_2 H 0.1820 0.5798 0.2304
C29_2 C 0.3253(15) 0.5585(6) 0.2920(6)
C30_2 C 0.4531(18) 0.5433(7) 0.2964(7)
H15_2 H 0.4922 0.5351 0.3359
C31_2 C 0.5246(19) 0.5398(7) 0.2461(7)
H16_2 H 0.6115 0.5284 0.2503
C32_2 C 0.2404(16) 0.5583(6) 0.3497(6)
C33_2 C 0.5804(16) 0.6031(6) 0.1018(6)
C34_2 C 0.5514(18) 0.6566(6) 0.1285(7)
H17_2 H 0.5102 0.6627 0.1657
C35_2 C 0.5947(19) 0.6960(6) 0.0898(7)
H18_2 H 0.5929 0.7344 0.0955
C36_2 C 0.6432(14) 0.6667(6) 0.0391(7)
C39_2 C 0.7595(16) 0.7846(6) 0.0134(7)
H19_2 H 0.8236 0.7668 0.0388
C40_2 C 0.7564(12) 0.8390(6) 0.0104(4)
H20_2 H 0.8204 0.8576 0.0351
Pb7_2 Pb 0.35472(6) 0.94669(2) 0.03236(3)
H33_2 H 0.454517 0.552879 0.0965674
H34_2 H 0.77933 0.695562 0.00141943
Ni1_2 Ni 0.71760(18) 0.55406(7) 0.99653(7)
N1_2 N 0.8227(11) 0.5005(4) 0.9537(4)
N4_2 N 0.7495(11) 0.6088(4) 0.9326(4)
C5_2 C 0.9527(16) 0.5544(5) 0.8028(6)
C6_2 C 0.8839(16) 0.5540(6) 0.7448(7)
H3_2 H 0.7930 0.5547 0.7421
C7_2 C 0.9539(18) 0.5524(5) 0.6907(7)
H4_2 H 0.9069 0.5511 0.6520
C8_2 C 0.8791(16) 0.5539(6) 0.8627(7)
C9_2 C 0.8949(14) 0.5084(5) 0.9029(6)
C10_2 C 0.9752(17) 0.4628(6) 0.8939(7)
C11_2 C 0.9463(14) 0.4239(6) 0.9325(9)
H6_2 H 0.9808 0.3882 0.9342
C12_2 C 0.8488(15) 0.4468(6) 0.9732(6)
H9_2 H 0.6651 0.2337 0.9961
H10_2 H 0.6221 0.3291 0.9862
C37_2 C 0.6776(16) 0.6939(6) 0.9835(7)
C38_2 C 0.6730(18) 0.7557(6) 0.9808(7)
C41_2 C 0.6716(16) 0.8715(5) 0.9758(6)
C42_2 C 0.6774(18) 0.9325(7) 0.9729(6)
C43_2 C 0.5749(14) 0.8422(6) 0.9427(5)
H21_2 H 0.5088 0.8608 0.9194
C44_2 C 0.5771(14) 0.7857(7) 0.9445(6)
H22_2 H 0.5132 0.7660 0.9209
C45_2 C 0.7136(14) 0.6639(6) 0.9316(6)
C46_2 C 0.7355(17) 0.6883(7) 0.8715(6)
H23_2 H 0.7141 0.7243 0.8587
C47_2 C 0.7926(17) 0.6493(7) 0.8373(7)
H24_2 H 0.8190 0.6529 0.7964
C48_2 C 0.8051(15) 0.6000(6) 0.8772(6)
H32_2 H 0.702679 0.406987 0.977383
H37_2 H 0.79464 0.534554 0.838088
O10_3 O 0.1449(12) 0.4179(6) 0.6406(5)
N5_3 N 0.171(2) 0.3618(8) 0.7253(9)
H5_3 H 0.0393 0.0394 0.3647
H8_3 H 0.0194 0.2331 0.5684
C49_3 C 0.126(4) 0.4121(13) 0.6930(9)
H25_3 H 0.0821 0.4394 0.7145
C50_3 C 0.136(5) 0.3738(14) 0.7906(8)
H26_3 H 0.1134 0.4123 0.7941
H27_3 H 0.0633 0.3511 0.8008
H28_3 H 0.2098 0.3656 0.8193
C51_3 C 0.195(6) 0.3038(11) 0.747(2)
H29_3 H 0.2217 0.2816 0.7126
H30_3 H 0.2620 0.3035 0.7804
H31_3 H 0.1156 0.2887 0.7623
O1_3 O 0.2818(13) 0.9485(5) 0.1368(5)
O2_3 O 0.0974(14) 0.9498(5) 0.0817(5)
O9_3 O 0.5655(10) 0.9375(5) 0.1009(4)
C1_3 C 0.162(2) 0.9485(6) 0.1327(7)
C2_3 C 0.0853(16) 0.9475(6) 0.1910(7)
C3_3 C 0.1528(16) 0.9452(6) 0.2502(6)
H1_3 H 0.2437 0.9441 0.2527
C4_3 C 0.0878(18) 0.9445(6) 0.3039(7)
H2_3 H 0.1354 0.9432 0.3425
H35_3 H 0.57653 0.970616 0.128579
H36_3 H 0.640774 0.934771 0.0736453
O11_2 O 0.2098(14) 0.8542(5) 0.9811(6)
O3_2 O 0.7902(14) 0.3542(5) 0.5189(6)
O4_3 O 0.9871(14) 0.3365(4) 0.5610(6)
N2_3 N 0.6611(11) 0.0025(4) 0.5534(4)
C10_3 C 0.9752(17) 0.0372(6) 0.3939(7)
C11_3 C 0.9463(14) 0.0761(6) 0.4325(9)
H6_3 H 0.9808 0.1118 0.4342
C12_3 C 0.8488(15) 0.0532(6) 0.4732(6)
C13_3 C 0.7765(15) 0.0845(6) 0.5151(6)
C14_3 C 0.8036(15) 0.1454(5) 0.5218(6)
C15_3 C 0.9160(14) 0.1659(6) 0.5425(6)
H7_3 H 0.9840 0.1413 0.5525
C16_3 C 0.9394(17) 0.2213(6) 0.5501(7)
C17_3 C 0.8491(16) 0.2592(6) 0.5316(7)
C18_3 C 0.7297(18) 0.2407(6) 0.5083(8)
H9_3 H 0.6651 0.2663 0.4961
C19_3 C 0.7031(18) 0.1835(6) 0.5024(8)
H10_3 H 0.6221 0.1709 0.4862
C20_3 C 0.874(2) 0.3207(7) 0.5365(8)
C21_3 C 0.6832(15) 0.0582(6) 0.5494(6)
C22_3 C 0.6059(14) 0.0868(6) 0.5932(5)
H11_3 H 0.6001 0.1251 0.5979
C23_3 C 0.5434(17) 0.0488(7) 0.6260(7)
H12_3 H 0.4874 0.0551 0.6581
O12_2 O 0.8630(12) 0.4163(5) 0.6544(5)
H32_3 H 0.702679 0.0930132 0.477383
Ni1_3 Ni 0.71760(18) 0.94594(7) 0.49653(7)
O5_2 O 0.1370(12) 0.9163(5) 0.8456(5)
O6_3 O 0.2834(12) 0.9684(4) 0.8990(4)
N1_3 N 0.8227(11) 0.9995(4) 0.4537(4)
N3_3 N 0.6394(12) 0.8896(4) 0.5478(5)
N4_3 N 0.7495(11) 0.8912(4) 0.4326(4)
C5_3 C 0.9527(16) 0.9456(5) 0.3028(6)
C6_3 C 0.8839(16) 0.9460(6) 0.2448(7)
H3_3 H 0.7930 0.9453 0.2421
C7_3 C 0.9539(18) 0.9476(5) 0.1907(7)
H4_3 H 0.9069 0.9489 0.1520
C8_3 C 0.8791(16) 0.9461(6) 0.3627(7)
C9_3 C 0.8949(14) 0.9916(5) 0.4029(6)
C24_3 C 0.5816(15) 0.9959(6) 0.6010(6)
C25_3 C 0.5445(15) 0.9471(6) 0.6265(7)
C26_3 C 0.4657(15) 0.9461(5) 0.6859(6)
C27_3 C 0.3366(16) 0.9288(6) 0.6832(7)
H13_3 H 0.2967 0.9171 0.6451
C28_3 C 0.2705(16) 0.9290(6) 0.7341(6)
H14_3 H 0.1820 0.9202 0.7304
C29_3 C 0.3253(15) 0.9415(6) 0.7920(6)
C30_3 C 0.4531(18) 0.9567(7) 0.7964(7)
H15_3 H 0.4922 0.9649 0.8359
C31_3 C 0.5246(19) 0.9602(7) 0.7461(7)
H16_3 H 0.6115 0.9716 0.7503
C32_3 C 0.2404(16) 0.9417(6) 0.8497(6)
C33_3 C 0.5804(16) 0.8969(6) 0.6018(6)
C34_3 C 0.5514(18) 0.8434(6) 0.6285(7)
H17_3 H 0.5102 0.8373 0.6657
C35_3 C 0.5947(19) 0.8040(6) 0.5898(7)
H18_3 H 0.5929 0.7656 0.5955
C36_3 C 0.6432(14) 0.8333(6) 0.5391(7)
C37_3 C 0.6776(16) 0.8061(6) 0.4835(7)
C38_3 C 0.6730(18) 0.7443(6) 0.4808(7)
C39_3 C 0.7595(16) 0.7154(6) 0.5134(7)
H19_3 H 0.8236 0.7332 0.5388
C40_3 C 0.7564(12) 0.6610(6) 0.5104(4)
H20_3 H 0.8204 0.6424 0.5351
C41_3 C 0.6716(16) 0.6285(5) 0.4758(6)
C42_3 C 0.6774(18) 0.5675(7) 0.4729(6)
C43_3 C 0.5749(14) 0.6578(6) 0.4427(5)
H21_3 H 0.5088 0.6392 0.4194
C44_3 C 0.5771(14) 0.7143(7) 0.4445(6)
H22_3 H 0.5132 0.7340 0.4209
C45_3 C 0.7136(14) 0.8361(6) 0.4316(6)
C46_3 C 0.7355(17) 0.8117(7) 0.3715(6)
H23_3 H 0.7141 0.7757 0.3587
C47_3 C 0.7926(17) 0.8507(7) 0.3373(7)
H24_3 H 0.8190 0.8471 0.2964
C48_3 C 0.8051(15) 0.9000(6) 0.3772(6)
H33_3 H 0.454517 0.947121 0.596567
H34_3 H 0.77933 0.804438 0.501419
H37_3 H 0.79464 0.965446 0.338088
Ni1_4 Ni 0.28240(18) 0.44594(7) 0.00347(7)
N1_4 N 0.1773(11) 0.4995(4) 0.0463(4)
N4_4 N 0.2505(11) 0.3912(4) 0.0674(4)
C5_4 C 0.0473(16) 0.4456(5) 0.1972(6)
C6_4 C 0.1161(16) 0.4460(6) 0.2552(7)
H3_4 H 0.2070 0.4453 0.2579
C7_4 C 0.0461(18) 0.4476(5) 0.3093(7)
H4_4 H 0.0931 0.4489 0.3480
C8_4 C 0.1209(16) 0.4461(6) 0.1373(7)
C9_4 C 0.1051(14) 0.4916(5) 0.0971(6)
C10_4 C 0.0248(17) 0.5372(6) 0.1061(7)
C11_4 C 0.0537(14) 0.5761(6) 0.0675(9)
H6_4 H 0.0192 0.6118 0.0658
C12_4 C 0.1512(15) 0.5532(6) 0.0268(6)
H9_4 H 0.3349 0.7663 0.0039
H10_4 H 0.3779 0.6709 0.0138
C37_4 C 0.3224(16) 0.3061(6) 0.0165(7)
C38_4 C 0.3270(18) 0.2443(6) 0.0192(7)
C41_4 C 0.3284(16) 0.1285(5) 0.0242(6)
C42_4 C 0.3226(18) 0.0675(7) 0.0271(6)
C43_4 C 0.4251(14) 0.1578(6) 0.0573(5)
H21_4 H 0.4912 0.1392 0.0806
C44_4 C 0.4229(14) 0.2143(7) 0.0555(6)
H22_4 H 0.4868 0.2340 0.0791
C45_4 C 0.2864(14) 0.3361(6) 0.0684(6)
C46_4 C 0.2645(17) 0.3117(7) 0.1285(6)
H23_4 H 0.2859 0.2757 0.1413
C47_4 C 0.2074(17) 0.3507(7) 0.1627(7)
H24_4 H 0.1810 0.3471 0.2036
C48_4 C 0.1949(15) 0.4000(6) 0.1228(6)
H32_4 H 0.297321 0.593013 0.0226169
H37_4 H 0.20536 0.465446 0.161912
O4_4 O 0.0129(14) 0.8365(4) 0.9390(6)
O6_4 O 0.7166(12) 0.4684(4) 0.6010(4)
N2_4 N 0.3389(11) 0.5025(4) 0.9466(4)
N3_4 N 0.3606(12) 0.3896(4) 0.9522(5)
C13_4 C 0.2235(15) 0.5845(6) 0.9849(6)
C14_4 C 0.1964(15) 0.6454(5) 0.9782(6)
C15_4 C 0.0840(14) 0.6659(6) 0.9575(6)
H7_4 H 0.0160 0.6413 0.9475
C16_4 C 0.0606(17) 0.7213(6) 0.9499(7)
C17_4 C 0.1509(16) 0.7592(6) 0.9684(7)
C18_4 C 0.2703(18) 0.7407(6) 0.9917(8)
C19_4 C 0.2969(18) 0.6835(6) 0.9976(8)
C20_4 C 0.126(2) 0.8207(7) 0.9635(8)
C21_4 C 0.3168(15) 0.5582(6) 0.9506(6)
C22_4 C 0.3941(14) 0.5868(6) 0.9068(5)
H11_4 H 0.3999 0.6251 0.9021
C23_4 C 0.4566(17) 0.5488(7) 0.8740(7)
H12_4 H 0.5126 0.5551 0.8419
C24_4 C 0.4184(15) 0.4959(6) 0.8990(6)
C25_4 C 0.4555(15) 0.4471(6) 0.8735(7)
C26_4 C 0.5343(15) 0.4461(5) 0.8141(6)
C27_4 C 0.6634(16) 0.4288(6) 0.8168(7)
H13_4 H 0.7033 0.4171 0.8549
C28_4 C 0.7295(16) 0.4290(6) 0.7659(6)
H14_4 H 0.8180 0.4202 0.7696
C29_4 C 0.6747(15) 0.4415(6) 0.7080(6)
C30_4 C 0.5469(18) 0.4567(7) 0.7036(7)
H15_4 H 0.5078 0.4649 0.6641
C31_4 C 0.4754(19) 0.4602(7) 0.7539(7)
H16_4 H 0.3885 0.4716 0.7497
C32_4 C 0.7596(16) 0.4417(6) 0.6503(6)
C33_4 C 0.4196(16) 0.3969(6) 0.8982(6)
C34_4 C 0.4486(18) 0.3434(6) 0.8715(7)
H17_4 H 0.4898 0.3373 0.8343
C35_4 C 0.4053(19) 0.3040(6) 0.9102(7)
H18_4 H 0.4071 0.2656 0.9045
C36_4 C 0.3568(14) 0.3333(6) 0.9609(7)
C39_4 C 0.2405(16) 0.2154(6) 0.9866(7)
H19_4 H 0.1764 0.2332 0.9612
C40_4 C 0.2436(12) 0.1610(6) 0.9896(4)
H20_4 H 0.1796 0.1424 0.9649
H33_4 H 0.545483 0.447121 0.903433
H34_4 H 0.22067 0.304438 0.998581
O1_4 O 0.7182(13) 0.4485(5) 0.3632(5)
O2_4 O 0.9026(14) 0.4498(5) 0.4183(5)
O9_4 O 0.4345(10) 0.4375(5) 0.3991(4)
C1_4 C 0.838(2) 0.4485(6) 0.3673(7)
C2_4 C 0.9147(16) 0.4475(6) 0.3090(7)
C3_4 C 0.8472(16) 0.4452(6) 0.2498(6)
H1_4 H 0.7563 0.4441 0.2473
C4_4 C 0.9122(18) 0.4445(6) 0.1961(7)
H2_4 H 0.8646 0.4432 0.1575
H5_4 H 0.9607 0.5394 0.1353
H35_4 H 0.42347 0.470616 0.371421
H36_4 H 0.359226 0.434771 0.426355
O10_4 O 0.8551(12) 0.9179(6) 0.8594(5)
N5_4 N 0.829(2) 0.8618(8) 0.7747(9)
H8_4 H 0.9806 0.7331 0.9316
C49_4 C 0.874(4) 0.9121(13) 0.8070(9)
H25_4 H 0.9179 0.9394 0.7855
C50_4 C 0.864(5) 0.8738(14) 0.7094(8)
H26_4 H 0.8866 0.9123 0.7059
H27_4 H 0.9367 0.8511 0.6992
H28_4 H 0.7902 0.8656 0.6807
C51_4 C 0.805(6) 0.8038(11) 0.753(2)
H29_4 H 0.7783 0.7816 0.7874
H30_4 H 0.7380 0.8035 0.7196
H31_4 H 0.8844 0.7887 0.7377
loop_
_geom_bond_atom_site_label_1
_geom_bond_atom_site_label_2
_geom_bond_site_symmetry_1
_geom_bond_site_symmetry_2
Ni1 N1 1_555 1_555
O5 C32 1_555 1_555
O6 C32 1_555 1_555
O7 C42 1_555 1_555
O8 C42 1_555 1_555
N1 C9 1_555 1_555
N3 Ni1 1_555 1_555
N4 Ni1 1_555 1_555
C6 C5 1_555 1_555
H3 C6 1_555 1_555
H4 C7 1_555 1_555
C8 C5 1_555 1_555
C9 C8 1_555 1_555
C25 C24 1_555 1_555
C26 C25 1_555 1_555
C27 C26 1_555 1_555
H13 C27 1_555 1_555
C28 C27 1_555 1_555
H14 C28 1_555 1_555
C29 C28 1_555 1_555
C30 C29 1_555 1_555
H15 C30 1_555 1_555
C31 C26 1_555 1_555
H16 C31 1_555 1_555
C32 C29 1_555 1_555
C33 N3 1_555 1_555
C34 C33 1_555 1_555
H17 C34 1_555 1_555
C35 C34 1_555 1_555
H18 C35 1_555 1_555
C36 N3 1_555 1_555
C37 C36 1_555 1_555
C38 C37 1_555 1_555
C39 C38 1_555 1_555
H19 C39 1_555 1_555
C40 C39 1_555 1_555
H20 C40 1_555 1_555
C41 C40 1_555 1_555
C42 C41 1_555 1_555
C43 C41 1_555 1_555
H21 C43 1_555 1_555
C44 C38 1_555 1_555
H22 C44 1_555 1_555
C45 N4 1_555 1_555
C46 C45 1_555 1_555
H23 C46 1_555 1_555
C47 C46 1_555 1_555
H24 C47 1_555 1_555
C48 N4 1_555 1_555
Pb3 O5 1_555 1_555
Pb6 O7 1_555 1_555
Pb7 O7 1_555 1_555
O8 Pb6 1_555 1_555
C6 C7 1_555 1_555
C8 C48 1_555 1_555
C25 C33 1_555 1_555
C30 C31 1_555 1_555
C35 C36 1_555 1_555
C37 C45 1_555 1_555
C43 C44 1_555 1_555
C47 C48 1_555 1_555
C25 H33 1_555 1_555
C37 H34 1_555 1_555
C8 H37 1_555 1_555
Pb1 O3 1_555 1_555
O3 C20 1_555 1_555
O4 Pb1 1_555 1_555
C11 C10 1_555 1_555
H6 C11 1_555 1_555
C13 C12 1_555 1_555
C14 C13 1_555 1_555
C15 C14 1_555 1_555
H7 C15 1_555 1_555
C16 C15 1_555 1_555
C17 C16 1_555 1_555
C18 C17 1_555 1_555
H9 C18 1_555 1_555
C19 C14 1_555 1_555
H10 C19 1_555 1_555
C20 O4 1_555 1_555
C21 N2 1_555 1_555
C22 C21 1_555 1_555
H11 C22 1_555 1_555
C23 C22 1_555 1_555
H12 C23 1_555 1_555
Pb6 O3 1_555 1_555
O12 Pb1 1_555 1_555
C11 C12 1_555 1_555
C13 C21 1_555 1_555
C17 C20 1_555 1_555
C18 C19 1_555 1_555
C13 H32 1_555 1_555
Pb2 O1 1_555 1_555
O1 C1 1_555 1_555
O2 Pb2 1_555 1_555
O9 Pb2 1_555 1_555
C1 O2 1_555 1_555
C2 C1 1_555 1_555
C3 C2 1_555 1_555
H1 C3 1_555 1_555
C4 C3 1_555 1_555
H2 C4 1_555 1_555
O9 H35 1_555 1_555
O9 H36 1_555 1_555
N5 C49 1_555 1_555
C49 O10 1_555 1_555
H25 C49 1_555 1_555
C50 N5 1_555 1_555
H26 C50 1_555 1_555
H27 C50 1_555 1_555
H28 C50 1_555 1_555
C51 N5 1_555 1_555
H29 C51 1_555 1_555
H30 C51 1_555 1_555
H31 C51 1_555 1_555
N5_2 C49_2 1_555 1_555
C49_2 O10_2 1_555 1_555
H25_2 C49_2 1_555 1_555
C50_2 N5_2 1_555 1_555
H26_2 C50_2 1_555 1_555
H27_2 C50_2 1_555 1_555
H28_2 C50_2 1_555 1_555
C51_2 N5_2 1_555 1_555
H29_2 C51_2 1_555 1_555
H30_2 C51_2 1_555 1_555
H31_2 C51_2 1_555 1_555
Pb6 O1_2 1_555 1_555
O1_2 C1_2 1_555 1_555
O2_2 Pb6 1_555 1_555
O9_2 Pb6 1_555 1_555
C1_2 O2_2 1_555 1_555
C2_2 C1_2 1_555 1_555
C3_2 C2_2 1_555 1_555
H1_2 C3_2 1_555 1_555
C4_2 C3_2 1_555 1_555
H2_2 C4_2 1_555 1_555
O14_2 Pb6 1_555 1_555
O9_2 H35_2 1_555 1_555
O9_2 H36_2 1_555 1_555
Pb3 O11 1_555 1_555
O11 C20_2 1_555 1_555
O4_2 Pb3 1_555 1_555
O12 C32_2 1_555 1_555
O6_2 C32_2 1_555 1_555
C14_2 C13_2 1_555 1_555
C15_2 C14_2 1_555 1_555
H7_2 C15_2 1_555 1_555
C16_2 C15_2 1_555 1_555
C17_2 C16_2 1_555 1_555
C18_2 C17_2 1_555 1_555
C19_2 C14_2 1_555 1_555
C20_2 O4_2 1_555 1_555
C21_2 N2_2 1_555 1_555
C22_2 C21_2 1_555 1_555
H11_2 C22_2 1_555 1_555
C23_2 C22_2 1_555 1_555
H12_2 C23_2 1_555 1_555
C24_2 N2_2 1_555 1_555
C25_2 C24_2 1_555 1_555
C26_2 C25_2 1_555 1_555
C27_2 C26_2 1_555 1_555
H13_2 C27_2 1_555 1_555
C28_2 C27_2 1_555 1_555
H14_2 C28_2 1_555 1_555
C29_2 C28_2 1_555 1_555
C30_2 C29_2 1_555 1_555
H15_2 C30_2 1_555 1_555
C31_2 C26_2 1_555 1_555
H16_2 C31_2 1_555 1_555
C32_2 C29_2 1_555 1_555
C33_2 N3_2 1_555 1_555
C34_2 C33_2 1_555 1_555
H17_2 C34_2 1_555 1_555
C35_2 C34_2 1_555 1_555
H18_2 C35_2 1_555 1_555
C36_2 N3_2 1_555 1_555
H19_2 C39_2 1_555 1_555
C40_2 C39_2 1_555 1_555
H20_2 C40_2 1_555 1_555
C13_2 C21_2 1_555 1_555
C17_2 C20_2 1_555 1_555
C18_2 C19_2 1_555 1_555
C23_2 C24_2 1_555 1_555
C25_2 C33_2 1_555 1_555
C30_2 C31_2 1_555 1_555
C35_2 C36_2 1_555 1_555
C25_2 H33_2 1_555 1_555
Ni1_2 N1_2 1_555 1_555
O13 C42_2 1_555 1_555
O16 C42_2 1_555 1_555
N1_2 C9_2 1_555 1_555
N4_2 Ni1_2 1_555 1_555
C6_2 C5_2 1_555 1_555
H3_2 C6_2 1_555 1_555
H4_2 C7_2 1_555 1_555
C8_2 C5_2 1_555 1_555
C9_2 C8_2 1_555 1_555
C10_2 C9_2 1_555 1_555
C11_2 C10_2 1_555 1_555
H6_2 C11_2 1_555 1_555
C12_2 N1_2 1_555 1_555
C38_2 C37_2 1_555 1_555
C42_2 C41_2 1_555 1_555
C43_2 C41_2 1_555 1_555
H21_2 C43_2 1_555 1_555
C44_2 C38_2 1_555 1_555
H22_2 C44_2 1_555 1_555
C45_2 N4_2 1_555 1_555
C46_2 C45_2 1_555 1_555
H23_2 C46_2 1_555 1_555
C47_2 C46_2 1_555 1_555
H24_2 C47_2 1_555 1_555
C48_2 N4_2 1_555 1_555
C6_2 C7_2 1_555 1_555
C8_2 C48_2 1_555 1_555
C11_2 C12_2 1_555 1_555
C37_2 C45_2 1_555 1_555
C43_2 C44_2 1_555 1_555
C47_2 C48_2 1_555 1_555
C8_2 H37_2 1_555 1_555
N5_3 C49_3 1_555 1_555
C49_3 O10_3 1_555 1_555
H25_3 C49_3 1_555 1_555
C50_3 N5_3 1_555 1_555
H26_3 C50_3 1_555 1_555
H27_3 C50_3 1_555 1_555
H28_3 C50_3 1_555 1_555
C51_3 N5_3 1_555 1_555
H29_3 C51_3 1_555 1_555
H30_3 C51_3 1_555 1_555
H31_3 C51_3 1_555 1_555
Pb7_2 O1_3 1_555 1_555
O1_3 C1_3 1_555 1_555
O2_3 Pb7_2 1_555 1_555
O9_3 Pb7_2 1_555 1_555
C1_3 O2_3 1_555 1_555
C2_3 C1_3 1_555 1_555
C3_3 C2_3 1_555 1_555
H1_3 C3_3 1_555 1_555
C4_3 C3_3 1_555 1_555
H2_3 C4_3 1_555 1_555
O9_3 H35_3 1_555 1_555
O9_3 H36_3 1_555 1_555
Pb4 O3_2 1_555 1_555
O3_2 C20_3 1_555 1_555
O4_3 Pb4 1_555 1_555
C11_3 C10_3 1_555 1_555
H6_3 C11_3 1_555 1_555
C13_3 C12_3 1_555 1_555
C14_3 C13_3 1_555 1_555
C15_3 C14_3 1_555 1_555
H7_3 C15_3 1_555 1_555
C16_3 C15_3 1_555 1_555
C17_3 C16_3 1_555 1_555
C18_3 C17_3 1_555 1_555
H9_3 C18_3 1_555 1_555
C19_3 C14_3 1_555 1_555
H10_3 C19_3 1_555 1_555
C20_3 O4_3 1_555 1_555
C21_3 N2_3 1_555 1_555
C22_3 C21_3 1_555 1_555
H11_3 C22_3 1_555 1_555
C23_3 C22_3 1_555 1_555
H12_3 C23_3 1_555 1_555
Pb7 O3_2 1_555 1_555
O12_2 Pb4 1_555 1_555
C11_3 C12_3 1_555 1_555
C13_3 C21_3 1_555 1_555
C17_3 C20_3 1_555 1_555
C18_3 C19_3 1_555 1_555
C13_3 H32_3 1_555 1_555
Ni1_3 N1_3 1_555 1_555
O5_2 C32_3 1_555 1_555
O6_3 C32_3 1_555 1_555
O14_2 C42_3 1_555 1_555
O15 C42_3 1_555 1_555
N1_3 C9_3 1_555 1_555
N3_3 Ni1_3 1_555 1_555
N4_3 Ni1_3 1_555 1_555
C6_3 C5_3 1_555 1_555
H3_3 C6_3 1_555 1_555
H4_3 C7_3 1_555 1_555
C8_3 C5_3 1_555 1_555
C9_3 C8_3 1_555 1_555
C25_3 C24_3 1_555 1_555
C26_3 C25_3 1_555 1_555
C27_3 C26_3 1_555 1_555
H13_3 C27_3 1_555 1_555
C28_3 C27_3 1_555 1_555
H14_3 C28_3 1_555 1_555
C29_3 C28_3 1_555 1_555
C30_3 C29_3 1_555 1_555
H15_3 C30_3 1_555 1_555
C31_3 C26_3 1_555 1_555
H16_3 C31_3 1_555 1_555
C32_3 C29_3 1_555 1_555
C33_3 N3_3 1_555 1_555
C34_3 C33_3 1_555 1_555
H17_3 C34_3 1_555 1_555
C35_3 C34_3 1_555 1_555
H18_3 C35_3 1_555 1_555
C36_3 N3_3 1_555 1_555
C37_3 C36_3 1_555 1_555
C38_3 C37_3 1_555 1_555
C39_3 C38_3 1_555 1_555
H19_3 C39_3 1_555 1_555
C40_3 C39_3 1_555 1_555
H20_3 C40_3 1_555 1_555
C41_3 C40_3 1_555 1_555
C42_3 C41_3 1_555 1_555
C43_3 C41_3 1_555 1_555
H21_3 C43_3 1_555 1_555
C44_3 C38_3 1_555 1_555
H22_3 C44_3 1_555 1_555
C45_3 N4_3 1_555 1_555
C46_3 C45_3 1_555 1_555
H23_3 C46_3 1_555 1_555
C47_3 C46_3 1_555 1_555
H24_3 C47_3 1_555 1_555
C48_3 N4_3 1_555 1_555
Pb4_2 O5_2 1_555 1_555
Pb7 O14_2 1_555 1_555
O15 Pb7 1_555 1_555
C6_3 C7_3 1_555 1_555
C8_3 C48_3 1_555 1_555
C25_3 C33_3 1_555 1_555
C30_3 C31_3 1_555 1_555
C35_3 C36_3 1_555 1_555
C37_3 C45_3 1_555 1_555
C43_3 C44_3 1_555 1_555
C47_3 C48_3 1_555 1_555
C25_3 H33_3 1_555 1_555
C37_3 H34_3 1_555 1_555
C8_3 H37_3 1_555 1_555
Ni1_4 N1_4 1_555 1_555
O14 C42_4 1_555 1_555
O15_2 C42_4 1_555 1_555
N1_4 C9_4 1_555 1_555
N4_4 Ni1_4 1_555 1_555
C6_4 C5_4 1_555 1_555
H3_4 C6_4 1_555 1_555
H4_4 C7_4 1_555 1_555
C8_4 C5_4 1_555 1_555
C9_4 C8_4 1_555 1_555
C10_4 C9_4 1_555 1_555
C11_4 C10_4 1_555 1_555
H6_4 C11_4 1_555 1_555
C12_4 N1_4 1_555 1_555
C38_4 C37_4 1_555 1_555
C42_4 C41_4 1_555 1_555
C43_4 C41_4 1_555 1_555
H21_4 C43_4 1_555 1_555
C44_4 C38_4 1_555 1_555
H22_4 C44_4 1_555 1_555
C45_4 N4_4 1_555 1_555
C46_4 C45_4 1_555 1_555
H23_4 C46_4 1_555 1_555
C47_4 C46_4 1_555 1_555
H24_4 C47_4 1_555 1_555
C48_4 N4_4 1_555 1_555
C6_4 C7_4 1_555 1_555
C8_4 C48_4 1_555 1_555
C11_4 C12_4 1_555 1_555
C37_4 C45_4 1_555 1_555
C43_4 C44_4 1_555 1_555
C47_4 C48_4 1_555 1_555
C8_4 H37_4 1_555 1_555
Pb4_2 O11_2 1_555 1_555
O11_2 C20_4 1_555 1_555
O4_4 Pb4_2 1_555 1_555
O12_2 C32_4 1_555 1_555
O6_4 C32_4 1_555 1_555
C14_4 C13_4 1_555 1_555
C15_4 C14_4 1_555 1_555
H7_4 C15_4 1_555 1_555
C16_4 C15_4 1_555 1_555
C17_4 C16_4 1_555 1_555
C18_4 C17_4 1_555 1_555
C19_4 C14_4 1_555 1_555
C20_4 O4_4 1_555 1_555
C21_4 N2_4 1_555 1_555
C22_4 C21_4 1_555 1_555
H11_4 C22_4 1_555 1_555
C23_4 C22_4 1_555 1_555
H12_4 C23_4 1_555 1_555
C24_4 N2_4 1_555 1_555
C25_4 C24_4 1_555 1_555
C26_4 C25_4 1_555 1_555
C27_4 C26_4 1_555 1_555
H13_4 C27_4 1_555 1_555
C28_4 C27_4 1_555 1_555
H14_4 C28_4 1_555 1_555
C29_4 C28_4 1_555 1_555
C30_4 C29_4 1_555 1_555
H15_4 C30_4 1_555 1_555
C31_4 C26_4 1_555 1_555
H16_4 C31_4 1_555 1_555
C32_4 C29_4 1_555 1_555
C33_4 N3_4 1_555 1_555
C34_4 C33_4 1_555 1_555
H17_4 C34_4 1_555 1_555
C35_4 C34_4 1_555 1_555
H18_4 C35_4 1_555 1_555
C36_4 N3_4 1_555 1_555
H19_4 C39_4 1_555 1_555
C40_4 C39_4 1_555 1_555
H20_4 C40_4 1_555 1_555
C13_4 C21_4 1_555 1_555
C17_4 C20_4 1_555 1_555
C18_4 C19_4 1_555 1_555
C23_4 C24_4 1_555 1_555
C25_4 C33_4 1_555 1_555
C30_4 C31_4 1_555 1_555
C35_4 C36_4 1_555 1_555
C25_4 H33_4 1_555 1_555
Pb7 O1_4 1_555 1_555
O1_4 C1_4 1_555 1_555
O2_4 Pb7 1_555 1_555
O9_4 Pb7 1_555 1_555
C1_4 O2_4 1_555 1_555
C2_4 C1_4 1_555 1_555
C3_4 C2_4 1_555 1_555
H1_4 C3_4 1_555 1_555
C4_4 C3_4 1_555 1_555
H2_4 C4_4 1_555 1_555
O9_4 H35_4 1_555 1_555
O9_4 H36_4 1_555 1_555
N5_4 C49_4 1_555 1_555
C49_4 O10_4 1_555 1_555
H25_4 C49_4 1_555 1_555
C50_4 N5_4 1_555 1_555
H26_4 C50_4 1_555 1_555
H27_4 C50_4 1_555 1_555
H28_4 C50_4 1_555 1_555
C51_4 N5_4 1_555 1_555
H29_4 C51_4 1_555 1_555
H30_4 C51_4 1_555 1_555
H31_4 C51_4 1_555 1_555

#END
