
###############################################################################
#
# This file contains modified crystal structure data generated from the
# MOF subset of the Cambridge Structural Database (CSD) v543 
# hosted by the Cambridge Crystallographic Data Centre (CCDC).
#
# This work is licensed under the Creative Commons
# Attribution-NonCommercial-ShareAlike 4.0 International License.
# To view a copy of this license, visit
# http://creativecommons.org/licenses/by-nc-sa/4.0/
# or send a letter to
# Creative Commons, PO Box 1866, Mountain View, CA 94042, USA.
#
# CIF created using the CSD Python API on 29 September 2022
# The structure has been converted into the P1 space group
# The structure has a 3D framework
# The original CSD entry GAXXAG is in the monoclinic crystal system
# The framework has been calculated to contain at least 10.0% void space
# The void calculation uses a probe of radius 1.32A, grid spacing 0.4
# H atom positions have been added when not included in the experimental data
#
###############################################################################

data_GAXXAG
_chemical_formula_moiety         '(C204 H148 Cu4 N20 O40 Pb8)n'
_symmetry_cell_setting           triclinic
_symmetry_space_group_name_H-M   'P 1'
_symmetry_Int_Tables_number      1
_space_group_name_Hall           'P 1'
loop_
_symmetry_equiv_pos_site_id
_symmetry_equiv_pos_as_xyz
1 x,y,z
_cell_length_a                   10.9008(2)
_cell_length_b                   24.1824(5)
_cell_length_c                   20.8565(6)
_cell_angle_alpha                90
_cell_angle_beta                 91.678(2)
_cell_angle_gamma                90
_cell_volume                     5495.57
loop_
_atom_site_label
_atom_site_type_symbol
_atom_site_fract_x
_atom_site_fract_y
_atom_site_fract_z
O3 O 0.2790(7) 0.0433(3) 0.1338(4)
O4 O 0.1066(8) 0.0460(3) 0.0781(4)
C15 C 0.0954(9) 0.0494(4) 0.3067(5)
H7 H 0.1387 0.0497 0.3458
C16 C 0.1563(10) 0.0476(4) 0.2502(6)
H8 H 0.2416 0.0463 0.2515
C17 C 0.0941(10) 0.0478(4) 0.1910(5)
C18 C 0.1626(12) 0.0460(4) 0.1299(7)
Pb4 Pb 0.34036(3) 0.046940(14) 0.022740(19)
Cu1 Cu 0.71625(10) 0.05036(4) 0.49769(6)
O5 O 0.7622(6) 0.4540(3) 0.4884(4)
O6 O 0.5655(6) 0.4544(3) 0.4594(4)
O7 O 0.1242(7) 0.0804(3) 0.8444(3)
O8 O 0.2596(7) 0.0320(3) 0.9007(4)
N2 N 0.7629(6) 0.1071(3) 0.4335(4)
N3 N 0.6241(6) 0.1073(3) 0.5457(4)
C12 C 0.8990(8) 0.0049(4) 0.4041(5)
C13 C 0.8956(8) 0.0513(3) 0.3650(5)
C14 C 0.9668(9) 0.0507(3) 0.3047(5)
C19 C 0.9693(9) 0.0510(4) 0.1899(5)
H9 H 0.9259 0.0533 0.1510
C20 C 0.9069(9) 0.0509(4) 0.2471(5)
H10 H 0.8215 0.0510 0.2456
C21 C 0.8294(8) 0.0988(4) 0.3800(5)
C22 C 0.8335(9) 0.1494(4) 0.3442(5)
H11 H 0.8704 0.1544 0.3049
C23 C 0.7745(8) 0.1885(4) 0.3775(5)
H12 H 0.7647 0.2255 0.3664
C24 C 0.7303(8) 0.1617(4) 0.4330(5)
C25 C 0.6749(8) 0.1903(4) 0.4837(5)
C26 C 0.6685(8) 0.2512(3) 0.4798(4)
C27 C 0.7591(9) 0.2821(4) 0.5067(6)
H13 H 0.8247 0.2641 0.5272
C28 C 0.7592(10) 0.3388(4) 0.5053(6)
H14 H 0.8247 0.3582 0.5241
C29 C 0.6633(8) 0.3675(4) 0.4763(5)
C30 C 0.6630(9) 0.4290(4) 0.4747(5)
C31 C 0.5664(9) 0.3370(4) 0.4484(5)
H15 H 0.4993 0.3547 0.4290
C32 C 0.5730(9) 0.2791(4) 0.4502(6)
H16 H 0.5100 0.2588 0.4306
C33 C 0.6252(8) 0.1643(4) 0.5355(5)
C34 C 0.5639(8) 0.1911(4) 0.5865(5)
H17 H 0.5551 0.2291 0.5918
C35 C 0.5215(9) 0.1521(4) 0.6253(5)
H18 H 0.4763 0.1580 0.6618
C36 C 0.5579(8) 0.0992(4) 0.6006(5)
C37 C 0.5296(8) 0.0483(4) 0.6274(5)
C38 C 0.4508(9) 0.0490(4) 0.6848(5)
C39 C 0.3308(8) 0.0673(4) 0.6806(5)
H19 H 0.2967 0.0781 0.6412
C40 C 0.2618(9) 0.0696(4) 0.7344(5)
H20 H 0.1817 0.0827 0.7307
C41 C 0.3065(9) 0.0535(4) 0.7928(5)
C42 C 0.2254(11) 0.0555(4) 0.8511(6)
C43 C 0.4258(9) 0.0351(5) 0.7986(6)
H21 H 0.4593 0.0246 0.8383
C44 C 0.4949(10) 0.0328(5) 0.7437(6)
H22 H 0.5750 0.0196 0.7473
Pb3 Pb 0.01668(3) 0.067280(15) 0.938723(19)
Pb5 Pb 0.65964(3) 0.546940(14) 0.477260(19)
Pb6 Pb 0.34036(3) 0.453060(14) 0.522740(19)
H33 H 0.815745 0.034748 0.338928
H34 H 0.763206 0.193051 0.509296
H35 H 0.611401 0.050848 0.658506
Pb1 Pb 0.98332(3) 0.567280(15) 0.561277(19)
O1 O 0.7956(7) 0.6438(3) 0.5197(4)
O2 O 0.9811(6) 0.6631(3) 0.5583(4)
O10 O 0.4811(9) 0.5913(6) 0.3900(8)
N1 N 0.8252(6) 0.9955(3) 0.4558(4)
N4 N 0.6564(6) 0.9917(3) 0.5566(4)
C1 C 0.8762(11) 0.6764(4) 0.5370(6)
C2 C 0.8473(9) 0.7380(4) 0.5327(5)
C3 C 0.9355(9) 0.7760(4) 0.5511(5)
C4 C 0.9112(8) 0.8321(4) 0.5457(5)
H2 H 0.9728 0.8574 0.5564
C5 C 0.7981(8) 0.8514(4) 0.5249(5)
C6 C 0.7096(9) 0.8126(4) 0.5069(5)
H3 H 0.6328 0.8245 0.4920
C7 C 0.7339(9) 0.7568(4) 0.5107(5)
H4 H 0.6734 0.7315 0.4984
C8 C 0.7739(8) 0.9125(4) 0.5174(4)
C9 C 0.8434(8) 0.9420(4) 0.4733(5)
C10 C 0.9384(8) 0.9184(4) 0.4339(5)
H5 H 0.9707 0.8829 0.4370
C11 C 0.9698(9) 0.9575(4) 0.3928(5)
C45 C 0.5707(8) 0.9983(4) 0.6028(5)
C46 C 0.5379(10) 0.9454(4) 0.6282(6)
H23 H 0.4822 0.9384 0.6602
C47 C 0.6043(9) 0.9082(4) 0.5963(5)
H24 H 0.6002 0.8701 0.6014
C48 C 0.6818(8) 0.9365(4) 0.5537(5)
O11 O 0.7210(7) 0.5433(3) 0.3662(4)
O12 O 0.8934(8) 0.5460(3) 0.4219(4)
O15 O 0.4345(6) 0.5456(3) 0.5406(4)
O16 O 0.8758(7) 0.5804(3) 0.6556(3)
O17 O 0.7404(7) 0.5320(3) 0.5993(4)
H32 H 0.841738 0.921473 0.555344
H36 H 0.522783 0.61016 0.354383
H37 H 0.428803 0.56095 0.372406
Cu1_2 Cu 0.28375(10) 0.55036(4) 0.00231(6)
O5_2 O 0.2378(6) 0.9540(3) 0.0116(4)
O6_2 O 0.4345(6) 0.9544(3) 0.0406(4)
O10_2 O 0.5189(9) 0.0913(6) 0.1100(8)
N1_2 N 0.1748(6) 0.4955(3) 0.0442(4)
N2_2 N 0.2371(6) 0.6071(3) 0.0665(4)
H3_2 H 0.3672 0.3245 0.0080
H4_2 H 0.3266 0.2315 0.0016
C9_2 C 0.1566(8) 0.4420(4) 0.0267(5)
C10_2 C 0.0616(8) 0.4184(4) 0.0661(5)
H5_2 H 0.0293 0.3829 0.0630
C11_2 C 0.0302(9) 0.4575(4) 0.1072(5)
C12_2 C 0.1010(8) 0.5049(4) 0.0959(5)
C13_2 C 0.1044(8) 0.5513(3) 0.1350(5)
C14_2 C 0.0332(9) 0.5507(3) 0.1953(5)
C19_2 C 0.0307(9) 0.5510(4) 0.3101(5)
H9_2 H 0.0741 0.5533 0.3490
C20_2 C 0.0931(9) 0.5509(4) 0.2529(5)
H10_2 H 0.1785 0.5510 0.2544
C21_2 C 0.1706(8) 0.5988(4) 0.1200(5)
C22_2 C 0.1665(9) 0.6494(4) 0.1558(5)
H11_2 H 0.1296 0.6544 0.1951
C23_2 C 0.2255(8) 0.6885(4) 0.1225(5)
H12_2 H 0.2353 0.7255 0.1336
C24_2 C 0.2697(8) 0.6617(4) 0.0670(5)
C25_2 C 0.3251(8) 0.6903(4) 0.0163(5)
C26_2 C 0.3315(8) 0.7512(3) 0.0202(4)
C29_2 C 0.3367(8) 0.8675(4) 0.0237(5)
C30_2 C 0.3370(9) 0.9290(4) 0.0253(5)
C31_2 C 0.4336(9) 0.8370(4) 0.0516(5)
H15_2 H 0.5007 0.8547 0.0710
C32_2 C 0.4270(9) 0.7791(4) 0.0498(6)
H16_2 H 0.4900 0.7588 0.0694
H33_2 H 0.184255 0.534748 0.161072
H36_2 H 0.477217 0.11016 0.145617
H37_2 H 0.571197 0.0609503 0.127594
O1_2 O 0.2044(7) 0.1438(3) 0.9803(4)
O2_2 O 0.0189(6) 0.1631(3) 0.9417(4)
N3_2 N 0.3759(6) 0.6073(3) 0.9543(4)
N4_2 N 0.3436(6) 0.4917(3) 0.9434(4)
C1_2 C 0.1238(11) 0.1764(4) 0.9630(6)
C2_2 C 0.1527(9) 0.2380(4) 0.9673(5)
C3_2 C 0.0645(9) 0.2760(4) 0.9489(5)
C4_2 C 0.0888(8) 0.3321(4) 0.9543(5)
H2_2 H 0.0272 0.3574 0.9436
C5_2 C 0.2019(8) 0.3514(4) 0.9751(5)
C6_2 C 0.2904(9) 0.3126(4) 0.9931(5)
C7_2 C 0.2661(9) 0.2568(4) 0.9893(5)
C8_2 C 0.2261(8) 0.4125(4) 0.9826(4)
C27_2 C 0.2409(9) 0.7821(4) 0.9933(6)
H13_2 H 0.1753 0.7641 0.9728
C28_2 C 0.2408(10) 0.8388(4) 0.9947(6)
H14_2 H 0.1753 0.8582 0.9759
C33_2 C 0.3748(8) 0.6643(4) 0.9645(5)
C34_2 C 0.4361(8) 0.6911(4) 0.9135(5)
H17_2 H 0.4449 0.7291 0.9082
C35_2 C 0.4785(9) 0.6521(4) 0.8747(5)
H18_2 H 0.5237 0.6580 0.8382
C36_2 C 0.4421(8) 0.5992(4) 0.8994(5)
C37_2 C 0.4704(8) 0.5483(4) 0.8726(5)
C38_2 C 0.5492(9) 0.5490(4) 0.8152(5)
C39_2 C 0.6692(8) 0.5673(4) 0.8194(5)
H19_2 H 0.7033 0.5781 0.8588
C40_2 C 0.7382(9) 0.5696(4) 0.7656(5)
H20_2 H 0.8183 0.5827 0.7693
C41_2 C 0.6935(9) 0.5535(4) 0.7072(5)
C42_2 C 0.7746(11) 0.5555(4) 0.6489(6)
C43_2 C 0.5742(9) 0.5351(5) 0.7014(6)
H21_2 H 0.5407 0.5246 0.6617
C44_2 C 0.5051(10) 0.5328(5) 0.7563(6)
H22_2 H 0.4250 0.5196 0.7527
C45_2 C 0.4293(8) 0.4983(4) 0.8972(5)
C46_2 C 0.4621(10) 0.4454(4) 0.8718(6)
H23_2 H 0.5178 0.4384 0.8398
C47_2 C 0.3957(9) 0.4082(4) 0.9037(5)
H24_2 H 0.3998 0.3701 0.8986
C48_2 C 0.3182(8) 0.4365(4) 0.9463(5)
Pb6_2 Pb 0.65964(3) 0.953060(14) 0.977260(19)
O15_2 O 0.5655(6) 0.0456(3) 0.9594(4)
H32_2 H 0.158262 0.421473 0.944656
H34_2 H 0.236794 0.693051 0.990704
H35_2 H 0.388599 0.550848 0.841494
H6 H 0.9711 0.4542 0.1383
C15_2 C 0.9046(9) 0.5494(4) 0.1933(5)
H7_2 H 0.8613 0.5497 0.1542
C16_2 C 0.8437(10) 0.5476(4) 0.2498(6)
H8_2 H 0.7584 0.5463 0.2485
C17_2 C 0.9059(10) 0.5478(4) 0.3090(5)
C18_2 C 0.8374(12) 0.5460(4) 0.3701(7)
Pb1_2 Pb 0.01668(3) 0.432720(15) 0.438723(19)
O1_3 O 0.2044(7) 0.3562(3) 0.4803(4)
O2_3 O 0.0189(6) 0.3369(3) 0.4417(4)
O10_3 O 0.5189(9) 0.4087(6) 0.6100(8)
N1_3 N 0.1748(6) 0.0045(3) 0.5442(4)
N4_3 N 0.3436(6) 0.0083(3) 0.4434(4)
C1_3 C 0.1238(11) 0.3236(4) 0.4630(6)
C2_3 C 0.1527(9) 0.2620(4) 0.4673(5)
C3_3 C 0.0645(9) 0.2240(4) 0.4489(5)
C4_3 C 0.0888(8) 0.1679(4) 0.4543(5)
H2_3 H 0.0272 0.1426 0.4436
C5_3 C 0.2019(8) 0.1486(4) 0.4751(5)
C6_3 C 0.2904(9) 0.1874(4) 0.4931(5)
H3_3 H 0.3672 0.1755 0.5080
C7_3 C 0.2661(9) 0.2432(4) 0.4893(5)
H4_3 H 0.3266 0.2685 0.5016
C8_3 C 0.2261(8) 0.0875(4) 0.4826(4)
C9_3 C 0.1566(8) 0.0580(4) 0.5267(5)
C10_3 C 0.0616(8) 0.0816(4) 0.5661(5)
H5_3 H 0.0293 0.1171 0.5630
C11_3 C 0.0302(9) 0.0425(4) 0.6072(5)
C45_3 C 0.4293(8) 0.0017(4) 0.3972(5)
C46_3 C 0.4621(10) 0.0546(4) 0.3718(6)
H23_3 H 0.5178 0.0616 0.3398
C47_3 C 0.3957(9) 0.0918(4) 0.4037(5)
H24_3 H 0.3998 0.1299 0.3986
C48_3 C 0.3182(8) 0.0635(4) 0.4463(5)
O11_2 O 0.2790(7) 0.4567(3) 0.6338(4)
O12_2 O 0.1066(8) 0.4540(3) 0.5781(4)
O13 O 0.2378(6) 0.5460(3) 0.5116(4)
O16_2 O 0.1242(7) 0.4196(3) 0.3444(3)
O17_2 O 0.2596(7) 0.4680(3) 0.4007(4)
H32_3 H 0.158262 0.0785265 0.444656
H36_3 H 0.477217 0.38984 0.645617
H37_3 H 0.571197 0.43905 0.627594
Cu1_3 Cu 0.28375(10) 0.94964(4) 0.50231(6)
O7_2 O 0.8758(7) 0.9196(3) 0.1556(3)
O8_2 O 0.7404(7) 0.9680(3) 0.0993(4)
N2_3 N 0.2371(6) 0.8929(3) 0.5665(4)
N3_3 N 0.3759(6) 0.8927(3) 0.4543(4)
C12_3 C 0.1010(8) 0.9951(4) 0.5959(5)
C13_3 C 0.1044(8) 0.9487(3) 0.6350(5)
C14_3 C 0.0332(9) 0.9493(3) 0.6953(5)
C19_3 C 0.0307(9) 0.9490(4) 0.8101(5)
H9_3 H 0.0741 0.9467 0.8490
C20_3 C 0.0931(9) 0.9491(4) 0.7529(5)
H10_3 H 0.1785 0.9490 0.7544
C21_3 C 0.1706(8) 0.9012(4) 0.6200(5)
C22_3 C 0.1665(9) 0.8506(4) 0.6558(5)
H11_3 H 0.1296 0.8456 0.6951
C23_3 C 0.2255(8) 0.8115(4) 0.6225(5)
H12_3 H 0.2353 0.7745 0.6336
C24_3 C 0.2697(8) 0.8383(4) 0.5670(5)
C25_3 C 0.3251(8) 0.8097(4) 0.5163(5)
C26_3 C 0.3315(8) 0.7488(3) 0.5202(4)
C27_3 C 0.2409(9) 0.7179(4) 0.4933(6)
H13_3 H 0.1753 0.7359 0.4728
C28_3 C 0.2408(10) 0.6612(4) 0.4947(6)
H14_3 H 0.1753 0.6418 0.4759
C29_3 C 0.3367(8) 0.6325(4) 0.5237(5)
C30_3 C 0.3370(9) 0.5710(4) 0.5253(5)
C31_3 C 0.4336(9) 0.6630(4) 0.5516(5)
H15_3 H 0.5007 0.6453 0.5710
C32_3 C 0.4270(9) 0.7209(4) 0.5498(6)
H16_3 H 0.4900 0.7412 0.5694
C33_3 C 0.3748(8) 0.8357(4) 0.4645(5)
C34_3 C 0.4361(8) 0.8089(4) 0.4135(5)
H17_3 H 0.4449 0.7709 0.4082
C35_3 C 0.4785(9) 0.8479(4) 0.3747(5)
H18_3 H 0.5237 0.8420 0.3382
C36_3 C 0.4421(8) 0.9008(4) 0.3994(5)
C37_3 C 0.4704(8) 0.9517(4) 0.3726(5)
C38_3 C 0.5492(9) 0.9510(4) 0.3152(5)
C39_3 C 0.6692(8) 0.9327(4) 0.3194(5)
H19_3 H 0.7033 0.9219 0.3588
C40_3 C 0.7382(9) 0.9304(4) 0.2656(5)
H20_3 H 0.8183 0.9173 0.2693
C41_3 C 0.6935(9) 0.9465(4) 0.2072(5)
C42_3 C 0.7746(11) 0.9445(4) 0.1489(6)
C43_3 C 0.5742(9) 0.9649(5) 0.2014(6)
H21_3 H 0.5407 0.9754 0.1617
C44_3 C 0.5051(10) 0.9672(5) 0.2563(6)
H22_3 H 0.4250 0.9804 0.2527
Pb3_2 Pb 0.98332(3) 0.932720(15) 0.061277(19)
H33_3 H 0.184255 0.965252 0.661072
H34_3 H 0.236794 0.806949 0.490704
H35_3 H 0.388599 0.949152 0.341494
O3_2 O 0.7210(7) 0.9567(3) 0.8662(4)
O4_2 O 0.8934(8) 0.9540(3) 0.9219(4)
C15_3 C 0.9046(9) 0.9506(4) 0.6933(5)
H7_3 H 0.8613 0.9503 0.6542
C16_3 C 0.8437(10) 0.9524(4) 0.7498(6)
H8_3 H 0.7584 0.9537 0.7485
C17_3 C 0.9059(10) 0.9522(4) 0.8090(5)
C18_3 C 0.8374(12) 0.9540(4) 0.8701(7)
H6_2 H 0.0289 0.5458 0.8617
C15_4 C 0.0954(9) 0.4506(4) 0.8067(5)
H7_4 H 0.1387 0.4503 0.8458
C16_4 C 0.1563(10) 0.4524(4) 0.7502(6)
H8_4 H 0.2416 0.4537 0.7515
C17_4 C 0.0941(10) 0.4522(4) 0.6910(5)
C18_4 C 0.1626(12) 0.4540(4) 0.6299(7)
O13_2 O 0.7622(6) 0.0460(3) 0.9884(4)
O1_4 O 0.7956(7) 0.8562(3) 0.0197(4)
O2_4 O 0.9811(6) 0.8369(3) 0.0583(4)
N3_4 N 0.6241(6) 0.3927(3) 0.0457(4)
N4_4 N 0.6564(6) 0.5083(3) 0.0566(4)
C1_4 C 0.8762(11) 0.8236(4) 0.0370(6)
C2_4 C 0.8473(9) 0.7620(4) 0.0327(5)
C3_4 C 0.9355(9) 0.7240(4) 0.0511(5)
C4_4 C 0.9112(8) 0.6679(4) 0.0457(5)
H2_4 H 0.9728 0.6426 0.0564
C5_4 C 0.7981(8) 0.6486(4) 0.0249(5)
C6_4 C 0.7096(9) 0.6874(4) 0.0069(5)
C7_4 C 0.7339(9) 0.7432(4) 0.0107(5)
C8_4 C 0.7739(8) 0.5875(4) 0.0174(4)
C27_4 C 0.7591(9) 0.2179(4) 0.0067(6)
H13_4 H 0.8247 0.2359 0.0272
C28_4 C 0.7592(10) 0.1612(4) 0.0053(6)
H14_4 H 0.8247 0.1418 0.0241
C33_4 C 0.6252(8) 0.3357(4) 0.0355(5)
C34_4 C 0.5639(8) 0.3089(4) 0.0865(5)
H17_4 H 0.5551 0.2709 0.0918
C35_4 C 0.5215(9) 0.3479(4) 0.1253(5)
H18_4 H 0.4763 0.3420 0.1618
C36_4 C 0.5579(8) 0.4008(4) 0.1006(5)
C37_4 C 0.5296(8) 0.4517(4) 0.1274(5)
C38_4 C 0.4508(9) 0.4510(4) 0.1848(5)
C39_4 C 0.3308(8) 0.4327(4) 0.1806(5)
H19_4 H 0.2967 0.4219 0.1412
C40_4 C 0.2618(9) 0.4304(4) 0.2344(5)
H20_4 H 0.1817 0.4173 0.2307
C41_4 C 0.3065(9) 0.4465(4) 0.2928(5)
C42_4 C 0.2254(11) 0.4445(4) 0.3511(6)
C43_4 C 0.4258(9) 0.4649(5) 0.2986(6)
H21_4 H 0.4593 0.4754 0.3383
C44_4 C 0.4949(10) 0.4672(5) 0.2437(6)
H22_4 H 0.5750 0.4804 0.2473
C45_4 C 0.5707(8) 0.5017(4) 0.1028(5)
C46_4 C 0.5379(10) 0.5546(4) 0.1282(6)
H23_4 H 0.4822 0.5616 0.1602
C47_4 C 0.6043(9) 0.5918(4) 0.0963(5)
H24_4 H 0.6002 0.6299 0.1014
C48_4 C 0.6818(8) 0.5635(4) 0.0537(5)
H32_4 H 0.841738 0.578527 0.0553436
H34_4 H 0.763206 0.306949 0.00929585
H35_4 H 0.611401 0.449152 0.158506
Cu1_4 Cu 0.71625(10) 0.44964(4) 0.99769(6)
O10_4 O 0.4811(9) 0.9087(6) 0.8900(8)
N1_4 N 0.8252(6) 0.5045(3) 0.9558(4)
N2_4 N 0.7629(6) 0.3929(3) 0.9335(4)
H3_4 H 0.6328 0.6755 0.9920
H4_4 H 0.6734 0.7685 0.9984
C9_4 C 0.8434(8) 0.5580(4) 0.9733(5)
C10_4 C 0.9384(8) 0.5816(4) 0.9339(5)
H5_4 H 0.9707 0.6171 0.9370
C11_4 C 0.9698(9) 0.5425(4) 0.8928(5)
C12_4 C 0.8990(8) 0.4951(4) 0.9041(5)
C13_4 C 0.8956(8) 0.4487(3) 0.8650(5)
C14_4 C 0.9668(9) 0.4493(3) 0.8047(5)
C19_4 C 0.9693(9) 0.4490(4) 0.6899(5)
H9_4 H 0.9259 0.4467 0.6510
C20_4 C 0.9069(9) 0.4491(4) 0.7471(5)
H10_4 H 0.8215 0.4490 0.7456
C21_4 C 0.8294(8) 0.4012(4) 0.8800(5)
C22_4 C 0.8335(9) 0.3506(4) 0.8442(5)
H11_4 H 0.8704 0.3456 0.8049
C23_4 C 0.7745(8) 0.3115(4) 0.8775(5)
H12_4 H 0.7647 0.2745 0.8664
C24_4 C 0.7303(8) 0.3383(4) 0.9330(5)
C25_4 C 0.6749(8) 0.3097(4) 0.9837(5)
C26_4 C 0.6685(8) 0.2488(3) 0.9798(4)
C29_4 C 0.6633(8) 0.1325(4) 0.9763(5)
C30_4 C 0.6630(9) 0.0710(4) 0.9747(5)
C31_4 C 0.5664(9) 0.1630(4) 0.9484(5)
H15_4 H 0.4993 0.1453 0.9290
C32_4 C 0.5730(9) 0.2209(4) 0.9502(6)
H16_4 H 0.5100 0.2412 0.9306
H33_4 H 0.815745 0.465252 0.838928
H36_4 H 0.522783 0.88984 0.854383
H37_4 H 0.428803 0.93905 0.872406
O9 O 0.1421(7) 0.5881(4) 0.6395(4)
N5 N 0.2018(9) 0.6315(4) 0.7306(6)
H1 H 0.0115 0.7640 0.5672
H6_3 H 0.0289 0.9542 0.3617
C49 C 0.1292(15) 0.5977(7) 0.6927(9)
H25 H 0.0630 0.5809 0.7121
C50 C 0.3039(17) 0.6580(8) 0.7092(10)
H26 H 0.3154 0.6487 0.6650
H27 H 0.3746 0.6465 0.7344
H28 H 0.2935 0.6972 0.7133
C51 C 0.1777(18) 0.6372(8) 0.8004(10)
H29 H 0.1025 0.6186 0.8099
H30 H 0.1708 0.6756 0.8112
H31 H 0.2441 0.6209 0.8251
O9_2 O 0.8579(7) 0.0881(4) 0.8605(4)
N5_2 N 0.7982(9) 0.1315(4) 0.7694(6)
H1_2 H 0.9885 0.2640 0.9328
C49_2 C 0.8708(15) 0.0977(7) 0.8073(9)
H25_2 H 0.9370 0.0809 0.7879
C50_2 C 0.6961(17) 0.1580(8) 0.7908(10)
H26_2 H 0.6846 0.1487 0.8350
H27_2 H 0.6254 0.1465 0.7656
H28_2 H 0.7065 0.1972 0.7867
C51_2 C 0.8223(18) 0.1372(8) 0.6996(10)
H29_2 H 0.8975 0.1186 0.6901
H30_2 H 0.8292 0.1756 0.6888
H31_2 H 0.7559 0.1209 0.6749
O9_3 O 0.8579(7) 0.4119(4) 0.3605(4)
N5_3 N 0.7982(9) 0.3685(4) 0.2694(6)
H1_3 H 0.9885 0.2360 0.4328
H6_4 H 0.9711 0.0458 0.6383
C49_3 C 0.8708(15) 0.4023(7) 0.3073(9)
H25_3 H 0.9370 0.4191 0.2879
C50_3 C 0.6961(17) 0.3420(8) 0.2908(10)
H26_3 H 0.6846 0.3513 0.3350
H27_3 H 0.6254 0.3535 0.2656
H28_3 H 0.7065 0.3028 0.2867
C51_3 C 0.8223(18) 0.3628(8) 0.1996(10)
H29_3 H 0.8975 0.3814 0.1901
H30_3 H 0.8292 0.3244 0.1888
H31_3 H 0.7559 0.3791 0.1749
O9_4 O 0.1421(7) 0.9119(4) 0.1395(4)
N5_4 N 0.2018(9) 0.8685(4) 0.2306(6)
H1_4 H 0.0115 0.7360 0.0672
C49_4 C 0.1292(15) 0.9023(7) 0.1927(9)
H25_4 H 0.0630 0.9191 0.2121
C50_4 C 0.3039(17) 0.8420(8) 0.2092(10)
H26_4 H 0.3154 0.8513 0.1650
H27_4 H 0.3746 0.8535 0.2344
H28_4 H 0.2935 0.8028 0.2133
C51_4 C 0.1777(18) 0.8628(8) 0.3004(10)
H29_4 H 0.1025 0.8814 0.3099
H30_4 H 0.1708 0.8244 0.3112
H31_4 H 0.2441 0.8791 0.3251
loop_
_geom_bond_atom_site_label_1
_geom_bond_atom_site_label_2
_geom_bond_site_symmetry_1
_geom_bond_site_symmetry_2
O3 C18 1_555 1_555
O4 C18 1_555 1_555
H7 C15 1_555 1_555
C16 C15 1_555 1_555
H8 C16 1_555 1_555
C17 C16 1_555 1_555
C18 C17 1_555 1_555
Pb4 O3 1_555 1_555
O4 Pb4 1_555 1_555
O5 C30 1_555 1_555
O6 C30 1_555 1_555
O7 C42 1_555 1_555
O8 C42 1_555 1_555
N2 Cu1 1_555 1_555
N3 Cu1 1_555 1_555
C13 C12 1_555 1_555
C14 C13 1_555 1_555
H9 C19 1_555 1_555
C20 C14 1_555 1_555
H10 C20 1_555 1_555
C21 N2 1_555 1_555
C22 C21 1_555 1_555
H11 C22 1_555 1_555
C23 C22 1_555 1_555
H12 C23 1_555 1_555
C24 N2 1_555 1_555
C25 C24 1_555 1_555
C26 C25 1_555 1_555
C27 C26 1_555 1_555
H13 C27 1_555 1_555
C28 C27 1_555 1_555
H14 C28 1_555 1_555
C29 C28 1_555 1_555
C30 C29 1_555 1_555
C31 C29 1_555 1_555
H15 C31 1_555 1_555
C32 C26 1_555 1_555
H16 C32 1_555 1_555
C33 N3 1_555 1_555
C34 C33 1_555 1_555
H17 C34 1_555 1_555
C35 C34 1_555 1_555
H18 C35 1_555 1_555
C36 N3 1_555 1_555
C37 C36 1_555 1_555
C38 C37 1_555 1_555
C39 C38 1_555 1_555
H19 C39 1_555 1_555
C40 C39 1_555 1_555
H20 C40 1_555 1_555
C41 C40 1_555 1_555
C42 C41 1_555 1_555
C43 C41 1_555 1_555
H21 C43 1_555 1_555
C44 C38 1_555 1_555
H22 C44 1_555 1_555
Pb3 O7 1_555 1_555
Pb5 O5 1_555 1_555
Pb6 O6 1_555 1_555
O6 Pb5 1_555 1_555
O8 Pb3 1_555 1_555
C13 C21 1_555 1_555
C19 C20 1_555 1_555
C23 C24 1_555 1_555
C25 C33 1_555 1_555
C31 C32 1_555 1_555
C35 C36 1_555 1_555
C43 C44 1_555 1_555
C13 H33 1_555 1_555
C25 H34 1_555 1_555
C37 H35 1_555 1_555
Pb1 O1 1_555 1_555
Pb5 O1 1_555 1_555
O1 C1 1_555 1_555
O2 Pb1 1_555 1_555
O10 Pb5 1_555 1_555
N1 C9 1_555 1_555
C1 O2 1_555 1_555
C2 C1 1_555 1_555
C3 C2 1_555 1_555
C4 C3 1_555 1_555
H2 C4 1_555 1_555
C5 C4 1_555 1_555
C6 C5 1_555 1_555
H3 C6 1_555 1_555
C7 C2 1_555 1_555
H4 C7 1_555 1_555
C8 C5 1_555 1_555
C9 C8 1_555 1_555
C10 C9 1_555 1_555
H5 C10 1_555 1_555
C11 C10 1_555 1_555
C45 N4 1_555 1_555
C46 C45 1_555 1_555
H23 C46 1_555 1_555
C47 C46 1_555 1_555
H24 C47 1_555 1_555
C48 N4 1_555 1_555
O11 Pb5 1_555 1_555
O12 Pb5 1_555 1_555
O15 Pb5 1_555 1_555
O16 Pb1 1_555 1_555
O17 Pb1 1_555 1_555
Pb5 O17 1_555 1_555
C6 C7 1_555 1_555
C8 C48 1_555 1_555
C47 C48 1_555 1_555
C8 H32 1_555 1_555
O10 H36 1_555 1_555
O10 H37 1_555 1_555
Cu1_2 N1_2 1_555 1_555
O5_2 C30_2 1_555 1_555
O6_2 C30_2 1_555 1_555
O10_2 Pb4 1_555 1_555
N1_2 C9_2 1_555 1_555
N2_2 Cu1_2 1_555 1_555
C10_2 C9_2 1_555 1_555
H5_2 C10_2 1_555 1_555
C11_2 C10_2 1_555 1_555
C12_2 N1_2 1_555 1_555
C13_2 C12_2 1_555 1_555
C14_2 C13_2 1_555 1_555
H9_2 C19_2 1_555 1_555
C20_2 C14_2 1_555 1_555
H10_2 C20_2 1_555 1_555
C21_2 N2_2 1_555 1_555
C22_2 C21_2 1_555 1_555
H11_2 C22_2 1_555 1_555
C23_2 C22_2 1_555 1_555
H12_2 C23_2 1_555 1_555
C24_2 N2_2 1_555 1_555
C25_2 C24_2 1_555 1_555
C26_2 C25_2 1_555 1_555
C30_2 C29_2 1_555 1_555
C31_2 C29_2 1_555 1_555
H15_2 C31_2 1_555 1_555
C32_2 C26_2 1_555 1_555
H16_2 C32_2 1_555 1_555
C11_2 C12_2 1_555 1_555
C13_2 C21_2 1_555 1_555
C19_2 C20_2 1_555 1_555
C23_2 C24_2 1_555 1_555
C31_2 C32_2 1_555 1_555
C13_2 H33_2 1_555 1_555
O10_2 H36_2 1_555 1_555
O10_2 H37_2 1_555 1_555
Pb3 O1_2 1_555 1_555
O1_2 C1_2 1_555 1_555
O2_2 Pb3 1_555 1_555
O16 C42_2 1_555 1_555
O17 C42_2 1_555 1_555
C1_2 O2_2 1_555 1_555
C2_2 C1_2 1_555 1_555
C3_2 C2_2 1_555 1_555
C4_2 C3_2 1_555 1_555
H2_2 C4_2 1_555 1_555
C5_2 C4_2 1_555 1_555
C6_2 C5_2 1_555 1_555
C7_2 C2_2 1_555 1_555
C8_2 C5_2 1_555 1_555
H13_2 C27_2 1_555 1_555
C28_2 C27_2 1_555 1_555
H14_2 C28_2 1_555 1_555
C33_2 N3_2 1_555 1_555
C34_2 C33_2 1_555 1_555
H17_2 C34_2 1_555 1_555
C35_2 C34_2 1_555 1_555
H18_2 C35_2 1_555 1_555
C36_2 N3_2 1_555 1_555
C37_2 C36_2 1_555 1_555
C38_2 C37_2 1_555 1_555
C39_2 C38_2 1_555 1_555
H19_2 C39_2 1_555 1_555
C40_2 C39_2 1_555 1_555
H20_2 C40_2 1_555 1_555
C41_2 C40_2 1_555 1_555
C42_2 C41_2 1_555 1_555
C43_2 C41_2 1_555 1_555
H21_2 C43_2 1_555 1_555
C44_2 C38_2 1_555 1_555
H22_2 C44_2 1_555 1_555
C45_2 N4_2 1_555 1_555
C46_2 C45_2 1_555 1_555
H23_2 C46_2 1_555 1_555
C47_2 C46_2 1_555 1_555
H24_2 C47_2 1_555 1_555
C48_2 N4_2 1_555 1_555
C6_2 C7_2 1_555 1_555
C8_2 C48_2 1_555 1_555
C35_2 C36_2 1_555 1_555
C37_2 C45_2 1_555 1_555
C43_2 C44_2 1_555 1_555
C47_2 C48_2 1_555 1_555
C8_2 H32_2 1_555 1_555
C37_2 H35_2 1_555 1_555
O11 C18_2 1_555 1_555
O12 C18_2 1_555 1_555
H7_2 C15_2 1_555 1_555
C16_2 C15_2 1_555 1_555
H8_2 C16_2 1_555 1_555
C17_2 C16_2 1_555 1_555
C18_2 C17_2 1_555 1_555
Pb1_2 O1_3 1_555 1_555
Pb6 O1_3 1_555 1_555
O1_3 C1_3 1_555 1_555
O2_3 Pb1_2 1_555 1_555
O10_3 Pb6 1_555 1_555
N1_3 C9_3 1_555 1_555
C1_3 O2_3 1_555 1_555
C2_3 C1_3 1_555 1_555
C3_3 C2_3 1_555 1_555
C4_3 C3_3 1_555 1_555
H2_3 C4_3 1_555 1_555
C5_3 C4_3 1_555 1_555
C6_3 C5_3 1_555 1_555
H3_3 C6_3 1_555 1_555
C7_3 C2_3 1_555 1_555
H4_3 C7_3 1_555 1_555
C8_3 C5_3 1_555 1_555
C9_3 C8_3 1_555 1_555
C10_3 C9_3 1_555 1_555
H5_3 C10_3 1_555 1_555
C11_3 C10_3 1_555 1_555
C45_3 N4_3 1_555 1_555
C46_3 C45_3 1_555 1_555
H23_3 C46_3 1_555 1_555
C47_3 C46_3 1_555 1_555
H24_3 C47_3 1_555 1_555
C48_3 N4_3 1_555 1_555
O11_2 Pb6 1_555 1_555
O12_2 Pb6 1_555 1_555
O13 Pb6 1_555 1_555
O15 Pb6 1_555 1_555
O16_2 Pb1_2 1_555 1_555
O17_2 Pb1_2 1_555 1_555
Pb6 O17_2 1_555 1_555
C6_3 C7_3 1_555 1_555
C8_3 C48_3 1_555 1_555
C47_3 C48_3 1_555 1_555
C8_3 H32_3 1_555 1_555
O10_3 H36_3 1_555 1_555
O10_3 H37_3 1_555 1_555
O13 C30_3 1_555 1_555
O15 C30_3 1_555 1_555
O7_2 C42_3 1_555 1_555
O8_2 C42_3 1_555 1_555
N2_3 Cu1_3 1_555 1_555
N3_3 Cu1_3 1_555 1_555
C13_3 C12_3 1_555 1_555
C14_3 C13_3 1_555 1_555
H9_3 C19_3 1_555 1_555
C20_3 C14_3 1_555 1_555
H10_3 C20_3 1_555 1_555
C21_3 N2_3 1_555 1_555
C22_3 C21_3 1_555 1_555
H11_3 C22_3 1_555 1_555
C23_3 C22_3 1_555 1_555
H12_3 C23_3 1_555 1_555
C24_3 N2_3 1_555 1_555
C25_3 C24_3 1_555 1_555
C26_3 C25_3 1_555 1_555
C27_3 C26_3 1_555 1_555
H13_3 C27_3 1_555 1_555
C28_3 C27_3 1_555 1_555
H14_3 C28_3 1_555 1_555
C29_3 C28_3 1_555 1_555
C30_3 C29_3 1_555 1_555
C31_3 C29_3 1_555 1_555
H15_3 C31_3 1_555 1_555
C32_3 C26_3 1_555 1_555
H16_3 C32_3 1_555 1_555
C33_3 N3_3 1_555 1_555
C34_3 C33_3 1_555 1_555
H17_3 C34_3 1_555 1_555
C35_3 C34_3 1_555 1_555
H18_3 C35_3 1_555 1_555
C36_3 N3_3 1_555 1_555
C37_3 C36_3 1_555 1_555
C38_3 C37_3 1_555 1_555
C39_3 C38_3 1_555 1_555
H19_3 C39_3 1_555 1_555
C40_3 C39_3 1_555 1_555
H20_3 C40_3 1_555 1_555
C41_3 C40_3 1_555 1_555
C42_3 C41_3 1_555 1_555
C43_3 C41_3 1_555 1_555
H21_3 C43_3 1_555 1_555
C44_3 C38_3 1_555 1_555
H22_3 C44_3 1_555 1_555
Pb3_2 O7_2 1_555 1_555
O8_2 Pb3_2 1_555 1_555
C13_3 C21_3 1_555 1_555
C19_3 C20_3 1_555 1_555
C23_3 C24_3 1_555 1_555
C25_3 C33_3 1_555 1_555
C31_3 C32_3 1_555 1_555
C35_3 C36_3 1_555 1_555
C43_3 C44_3 1_555 1_555
C13_3 H33_3 1_555 1_555
C25_3 H34_3 1_555 1_555
C37_3 H35_3 1_555 1_555
O3_2 C18_3 1_555 1_555
O4_2 C18_3 1_555 1_555
H7_3 C15_3 1_555 1_555
C16_3 C15_3 1_555 1_555
H8_3 C16_3 1_555 1_555
C17_3 C16_3 1_555 1_555
C18_3 C17_3 1_555 1_555
Pb6_2 O3_2 1_555 1_555
O4_2 Pb6_2 1_555 1_555
O11_2 C18_4 1_555 1_555
O12_2 C18_4 1_555 1_555
H7_4 C15_4 1_555 1_555
C16_4 C15_4 1_555 1_555
H8_4 C16_4 1_555 1_555
C17_4 C16_4 1_555 1_555
C18_4 C17_4 1_555 1_555
Pb3_2 O1_4 1_555 1_555
O1_4 C1_4 1_555 1_555
O2_4 Pb3_2 1_555 1_555
O16_2 C42_4 1_555 1_555
O17_2 C42_4 1_555 1_555
C1_4 O2_4 1_555 1_555
C2_4 C1_4 1_555 1_555
C3_4 C2_4 1_555 1_555
C4_4 C3_4 1_555 1_555
H2_4 C4_4 1_555 1_555
C5_4 C4_4 1_555 1_555
C6_4 C5_4 1_555 1_555
C7_4 C2_4 1_555 1_555
C8_4 C5_4 1_555 1_555
H13_4 C27_4 1_555 1_555
C28_4 C27_4 1_555 1_555
H14_4 C28_4 1_555 1_555
C33_4 N3_4 1_555 1_555
C34_4 C33_4 1_555 1_555
H17_4 C34_4 1_555 1_555
C35_4 C34_4 1_555 1_555
H18_4 C35_4 1_555 1_555
C36_4 N3_4 1_555 1_555
C37_4 C36_4 1_555 1_555
C38_4 C37_4 1_555 1_555
C39_4 C38_4 1_555 1_555
H19_4 C39_4 1_555 1_555
C40_4 C39_4 1_555 1_555
H20_4 C40_4 1_555 1_555
C41_4 C40_4 1_555 1_555
C42_4 C41_4 1_555 1_555
C43_4 C41_4 1_555 1_555
H21_4 C43_4 1_555 1_555
C44_4 C38_4 1_555 1_555
H22_4 C44_4 1_555 1_555
C45_4 N4_4 1_555 1_555
C46_4 C45_4 1_555 1_555
H23_4 C46_4 1_555 1_555
C47_4 C46_4 1_555 1_555
H24_4 C47_4 1_555 1_555
C48_4 N4_4 1_555 1_555
C6_4 C7_4 1_555 1_555
C8_4 C48_4 1_555 1_555
C35_4 C36_4 1_555 1_555
C37_4 C45_4 1_555 1_555
C43_4 C44_4 1_555 1_555
C47_4 C48_4 1_555 1_555
C8_4 H32_4 1_555 1_555
C37_4 H35_4 1_555 1_555
Cu1_4 N1_4 1_555 1_555
O13_2 C30_4 1_555 1_555
O15_2 C30_4 1_555 1_555
O10_4 Pb6_2 1_555 1_555
N1_4 C9_4 1_555 1_555
N2_4 Cu1_4 1_555 1_555
C10_4 C9_4 1_555 1_555
H5_4 C10_4 1_555 1_555
C11_4 C10_4 1_555 1_555
C12_4 N1_4 1_555 1_555
C13_4 C12_4 1_555 1_555
C14_4 C13_4 1_555 1_555
H9_4 C19_4 1_555 1_555
C20_4 C14_4 1_555 1_555
H10_4 C20_4 1_555 1_555
C21_4 N2_4 1_555 1_555
C22_4 C21_4 1_555 1_555
H11_4 C22_4 1_555 1_555
C23_4 C22_4 1_555 1_555
H12_4 C23_4 1_555 1_555
C24_4 N2_4 1_555 1_555
C25_4 C24_4 1_555 1_555
C26_4 C25_4 1_555 1_555
C30_4 C29_4 1_555 1_555
C31_4 C29_4 1_555 1_555
H15_4 C31_4 1_555 1_555
C32_4 C26_4 1_555 1_555
H16_4 C32_4 1_555 1_555
C11_4 C12_4 1_555 1_555
C13_4 C21_4 1_555 1_555
C19_4 C20_4 1_555 1_555
C23_4 C24_4 1_555 1_555
C31_4 C32_4 1_555 1_555
C13_4 H33_4 1_555 1_555
O10_4 H36_4 1_555 1_555
O10_4 H37_4 1_555 1_555
N5 C49 1_555 1_555
C49 O9 1_555 1_555
H25 C49 1_555 1_555
C50 N5 1_555 1_555
H26 C50 1_555 1_555
H27 C50 1_555 1_555
H28 C50 1_555 1_555
C51 N5 1_555 1_555
H29 C51 1_555 1_555
H30 C51 1_555 1_555
H31 C51 1_555 1_555
N5_2 C49_2 1_555 1_555
C49_2 O9_2 1_555 1_555
H25_2 C49_2 1_555 1_555
C50_2 N5_2 1_555 1_555
H26_2 C50_2 1_555 1_555
H27_2 C50_2 1_555 1_555
H28_2 C50_2 1_555 1_555
C51_2 N5_2 1_555 1_555
H29_2 C51_2 1_555 1_555
H30_2 C51_2 1_555 1_555
H31_2 C51_2 1_555 1_555
N5_3 C49_3 1_555 1_555
C49_3 O9_3 1_555 1_555
H25_3 C49_3 1_555 1_555
C50_3 N5_3 1_555 1_555
H26_3 C50_3 1_555 1_555
H27_3 C50_3 1_555 1_555
H28_3 C50_3 1_555 1_555
C51_3 N5_3 1_555 1_555
H29_3 C51_3 1_555 1_555
H30_3 C51_3 1_555 1_555
H31_3 C51_3 1_555 1_555
N5_4 C49_4 1_555 1_555
C49_4 O9_4 1_555 1_555
H25_4 C49_4 1_555 1_555
C50_4 N5_4 1_555 1_555
H26_4 C50_4 1_555 1_555
H27_4 C50_4 1_555 1_555
H28_4 C50_4 1_555 1_555
C51_4 N5_4 1_555 1_555
H29_4 C51_4 1_555 1_555
H30_4 C51_4 1_555 1_555
H31_4 C51_4 1_555 1_555

#END
