
###############################################################################
#
# This file contains modified crystal structure data generated from the
# MOF subset of the Cambridge Structural Database (CSD) v543 
# hosted by the Cambridge Crystallographic Data Centre (CCDC).
#
# This work is licensed under the Creative Commons
# Attribution-NonCommercial-ShareAlike 4.0 International License.
# To view a copy of this license, visit
# http://creativecommons.org/licenses/by-nc-sa/4.0/
# or send a letter to
# Creative Commons, PO Box 1866, Mountain View, CA 94042, USA.
#
# CIF created using the CSD Python API on 29 September 2022
# The structure has been converted into the P1 space group
# The structure has a 3D framework
# The original CSD entry GAYFOD is in the tetragonal crystal system
# The framework has been calculated to contain at least 10.0% void space
# The void calculation uses a probe of radius 1.32A, grid spacing 0.4
#
###############################################################################

data_GAYFOD
_chemical_formula_moiety         '(C28 H16 N16 Zn4)n'
_symmetry_cell_setting           triclinic
_symmetry_space_group_name_H-M   'P 1'
_symmetry_Int_Tables_number      1
_space_group_name_Hall           'P 1'
loop_
_symmetry_equiv_pos_site_id
_symmetry_equiv_pos_as_xyz
1 x,y,z
_cell_length_a                   8.8312(19)
_cell_length_b                   8.8312(19)
_cell_length_c                   7.3007(23)
_cell_angle_alpha                90
_cell_angle_beta                 90
_cell_angle_gamma                90
_cell_volume                     569.382
loop_
_atom_site_label
_atom_site_type_symbol
_atom_site_fract_x
_atom_site_fract_y
_atom_site_fract_z
Zn1 Zn 0.00000 0.00000 0.25000
N5 N 0.202300 0.00000 0.093140
N7 N 0.00000 0.202300 0.406860
Zn4 Zn 0.00000 0.00000 0.75000
Zn1_2 Zn 0.00000 1.00000 0.25000
N5_2 N 0.202300 1.00000 0.093140
N6 N 0.00000 0.797700 0.406860
Zn4_2 Zn 0.00000 1.00000 0.75000
Zn1_3 Zn 1.00000 0.00000 0.25000
C1 C 0.560720 0.00000 0.00000
C2 C 0.651240 0.00000 0.150710
H1 H 0.618000 0.00000 0.274460
N1 N 0.797700 0.00000 0.093140
C3 C 0.439280 0.00000 0.00000
C4 C 0.348760 0.00000 0.150710
H2 H 0.382000 0.00000 0.274460
N7_2 N 1.00000 0.202300 0.406860
C1_2 C 0.560720 0.00000 1.00000
Zn4_3 Zn 1.00000 0.00000 0.75000
C3_2 C 0.439280 0.00000 1.00000
C5 C 0.348760 0.00000 0.849290
C6 C 0.651240 0.00000 0.849290
H3 H 0.382000 0.00000 0.725540
H4 H 0.618000 0.00000 0.725540
N3 N 0.202300 0.00000 0.906860
N4 N 0.797700 0.00000 0.906860
Zn1_4 Zn 1.00000 1.00000 0.25000
C1_3 C 0.560720 1.00000 0.00000
C2_2 C 0.651240 1.00000 0.150710
H1_2 H 0.618000 1.00000 0.274460
N1_2 N 0.797700 1.00000 0.093140
C3_3 C 0.439280 1.00000 0.00000
C4_2 C 0.348760 1.00000 0.150710
H2_2 H 0.382000 1.00000 0.274460
N6_2 N 1.00000 0.797700 0.406860
C1_4 C 0.560720 1.00000 1.00000
Zn4_4 Zn 1.00000 1.00000 0.75000
C3_4 C 0.439280 1.00000 1.00000
C5_2 C 0.348760 1.00000 0.849290
C6_2 C 0.651240 1.00000 0.849290
H3_2 H 0.382000 1.00000 0.725540
H4_2 H 0.618000 1.00000 0.725540
N3_2 N 0.202300 1.00000 0.906860
N4_2 N 0.797700 1.00000 0.906860
N5_3 N 0.00000 0.202300 0.593140
C1_5 C 0.00000 0.560720 0.50000
C2_3 C 0.00000 0.651240 0.650710
H1_3 H 0.00000 0.618000 0.774460
N1_3 N 0.00000 0.797700 0.593140
C3_5 C 0.00000 0.439280 0.50000
C4_3 C 0.00000 0.348760 0.650710
C5_3 C 0.00000 0.348760 0.349290
C6_3 C 0.00000 0.651240 0.349290
H2_3 H 0.00000 0.382000 0.774460
H3_3 H 0.00000 0.382000 0.225540
H4_3 H 0.00000 0.618000 0.225540
N5_4 N 1.00000 0.202300 0.593140
C1_6 C 1.00000 0.560720 0.50000
C2_4 C 1.00000 0.651240 0.650710
H1_4 H 1.00000 0.618000 0.774460
N1_4 N 1.00000 0.797700 0.593140
C3_6 C 1.00000 0.439280 0.50000
C4_4 C 1.00000 0.348760 0.650710
C5_4 C 1.00000 0.348760 0.349290
C6_4 C 1.00000 0.651240 0.349290
H2_4 H 1.00000 0.382000 0.774460
H3_4 H 1.00000 0.382000 0.225540
H4_4 H 1.00000 0.618000 0.225540
loop_
_geom_bond_atom_site_label_1
_geom_bond_atom_site_label_2
_geom_bond_site_symmetry_1
_geom_bond_site_symmetry_2
N5 Zn1 1_555 1_555
N7 Zn1 1_555 1_555
N5_2 Zn1_2 1_555 1_555
N6 Zn1_2 1_555 1_555
Zn1_3 N1 1_555 1_555
C1 C2 1_555 1_555
C2 H1 1_555 1_555
N1 C2 1_555 1_555
C3 C1 1_555 1_555
C4 C3 1_555 1_555
H2 C4 1_555 1_555
N5 C4 1_555 1_555
N7_2 Zn1_3 1_555 1_555
Zn4 N3 1_555 1_555
Zn4_3 N4 1_555 1_555
C3_2 C1_2 1_555 1_555
C5 C3_2 1_555 1_555
C6 C1_2 1_555 1_555
H3 C5 1_555 1_555
H4 C6 1_555 1_555
N3 C5 1_555 1_555
C6 N4 1_555 1_555
Zn1_4 N1_2 1_555 1_555
C1_3 C2_2 1_555 1_555
C2_2 H1_2 1_555 1_555
N1_2 C2_2 1_555 1_555
C3_3 C1_3 1_555 1_555
C4_2 C3_3 1_555 1_555
H2_2 C4_2 1_555 1_555
N5_2 C4_2 1_555 1_555
N6_2 Zn1_4 1_555 1_555
Zn4_2 N3_2 1_555 1_555
Zn4_4 N4_2 1_555 1_555
C3_4 C1_4 1_555 1_555
C5_2 C3_4 1_555 1_555
C6_2 C1_4 1_555 1_555
H3_2 C5_2 1_555 1_555
H4_2 C6_2 1_555 1_555
N3_2 C5_2 1_555 1_555
C6_2 N4_2 1_555 1_555
N5_3 Zn4 1_555 1_555
Zn4_2 N1_3 1_555 1_555
C1_5 C2_3 1_555 1_555
C2_3 H1_3 1_555 1_555
N1_3 C2_3 1_555 1_555
C3_5 C1_5 1_555 1_555
C4_3 C3_5 1_555 1_555
C5_3 C3_5 1_555 1_555
C6_3 C1_5 1_555 1_555
H2_3 C4_3 1_555 1_555
H3_3 C5_3 1_555 1_555
H4_3 C6_3 1_555 1_555
N5_3 C4_3 1_555 1_555
N7 C5_3 1_555 1_555
N6 N1_3 1_555 1_555
C6_3 N6 1_555 1_555
N5_3 N7 1_555 1_555
N5_4 Zn4_3 1_555 1_555
Zn4_4 N1_4 1_555 1_555
C1_6 C2_4 1_555 1_555
C2_4 H1_4 1_555 1_555
N1_4 C2_4 1_555 1_555
C3_6 C1_6 1_555 1_555
C4_4 C3_6 1_555 1_555
C5_4 C3_6 1_555 1_555
C6_4 C1_6 1_555 1_555
H2_4 C4_4 1_555 1_555
H3_4 C5_4 1_555 1_555
H4_4 C6_4 1_555 1_555
N5_4 C4_4 1_555 1_555
N7_2 C5_4 1_555 1_555
N6_2 N1_4 1_555 1_555
C6_4 N6_2 1_555 1_555
N5_4 N7_2 1_555 1_555

#END
