
###############################################################################
#
# This file contains modified crystal structure data generated from the
# MOF subset of the Cambridge Structural Database (CSD) v543 
# hosted by the Cambridge Crystallographic Data Centre (CCDC).
#
# This work is licensed under the Creative Commons
# Attribution-NonCommercial-ShareAlike 4.0 International License.
# To view a copy of this license, visit
# http://creativecommons.org/licenses/by-nc-sa/4.0/
# or send a letter to
# Creative Commons, PO Box 1866, Mountain View, CA 94042, USA.
#
# CIF created using the CSD Python API on 29 September 2022
# The structure has been converted into the P1 space group
# The structure has a 3D framework
# The original CSD entry GAYXIQ is in the tetragonal crystal system
# The framework has been calculated to contain at least 10.0% void space
# The void calculation uses a probe of radius 1.32A, grid spacing 0.4
# H atom positions have been added when not included in the experimental data
# Generated hydrogen atom positions removed from atoms on special positions
#
###############################################################################

data_GAYXIQ
_chemical_formula_moiety         '(C372 H384 N26 O128 Zr28)n'
_symmetry_cell_setting           triclinic
_symmetry_space_group_name_H-M   'P 1'
_symmetry_Int_Tables_number      1
_space_group_name_Hall           'P 1'
loop_
_symmetry_equiv_pos_site_id
_symmetry_equiv_pos_as_xyz
1 x,y,z
_cell_length_a                   20.6568(3)
_cell_length_b                   20.6568(3)
_cell_length_c                   66.6868(14)
_cell_angle_alpha                90
_cell_angle_beta                 90
_cell_angle_gamma                90
_cell_volume                     28455.5
loop_
_atom_site_label
_atom_site_type_symbol
_atom_site_fract_x
_atom_site_fract_y
_atom_site_fract_z
Zr1 Zr 0.5000 0.2500 0.088340(5)
Zr2 Zr 0.414793(12) 0.335208(12) 0.1250
O1 O 0.43530(10) 0.31374(11) 0.07134(3)
O2 O 0.37428(15) 0.36188(17) 0.09488(3)
O3 O 0.42652(12) 0.2500 0.10926(3)
O4 O 0.5000 0.34831(13) 0.10471(3)
O5 O 0.4203(2) 0.44043(15) 0.12275(4)
N1 N 0.27406(19) 0.5000 0.0000
C1 C 0.39077(17) 0.3501(2) 0.07682(5)
C2 C 0.35213(17) 0.3837(2) 0.06107(5)
C3 C 0.37294(18) 0.3825(2) 0.04161(5)
H1 H 0.4113 0.3596 0.0382
C4 C 0.33838(17) 0.4146(2) 0.02686(5)
H2 H 0.3553 0.4170 0.0136
C5 C 0.27969(17) 0.4431(3) 0.03119(6)
C6 C 0.2584(2) 0.4418(3) 0.05084(6)
H3 H 0.2183 0.4614 0.0542
C7 C 0.2949(2) 0.4125(3) 0.06554(6)
H4 H 0.2798 0.4124 0.0790
C8 C 0.24069(18) 0.4748(3) 0.01510(6)
C9 C 0.17458(17) 0.4741(3) 0.01600(7)
H5 H 0.1528 0.4564 0.0273
C10 C 0.1398(3) 0.5000 0.0000
C11 C 0.0674(3) 0.5000 0.0000
C12 C 0.0353(3) 0.4853(4) 0.01460(11)
H6 H 0.0572 0.4733 0.0266
O14 O 0.5000 0.15169(13) 0.10471(3)
O15 O 0.30957(15) 0.3297(2) 0.12725(4)
Zr8 Zr 0.585207(12) 0.164792(12) 0.1250
Zr11 Zr 0.414792(12) 0.164793(12) 0.1250
Zr12 Zr 0.585207(12) 0.335208(12) 0.1250
O17 O 0.56470(10) 0.18626(11) 0.07134(3)
O18 O 0.56470(10) 0.31374(11) 0.07134(3)
O19 O 0.43530(10) 0.18626(11) 0.07134(3)
O20 O 0.38812(17) 0.37572(15) 0.15512(3)
O22 O 0.57348(12) 0.2500 0.10926(3)
O24 O 0.5000 0.32348(12) 0.14074(3)
O27 O 0.40169(13) 0.2500 0.14529(3)
N1_2 N 0.27406(19) 0.5000 1.0000
C10_2 C 0.1398(3) 0.5000 1.0000
C11_2 C 0.0674(3) 0.5000 1.0000
O6 O 0.43530(10) 0.68626(11) 0.92866(3)
O7 O 0.37428(15) 0.63812(17) 0.90512(3)
C13 C 0.39077(17) 0.6499(2) 0.92318(5)
C14 C 0.35213(17) 0.6163(2) 0.93893(5)
C15 C 0.37294(18) 0.6175(2) 0.95839(5)
H7 H 0.4113 0.6404 0.9618
C16 C 0.33838(17) 0.5854(2) 0.97314(5)
H8 H 0.3553 0.5830 0.9864
C17 C 0.27969(17) 0.5569(3) 0.96881(6)
C18 C 0.2584(2) 0.5582(3) 0.94916(6)
H9 H 0.2183 0.5386 0.9458
C19 C 0.2949(2) 0.5875(3) 0.93446(6)
H10 H 0.2798 0.5876 0.9210
C20 C 0.24069(18) 0.5252(3) 0.98490(6)
C21 C 0.17458(17) 0.5259(3) 0.98400(7)
H11 H 0.1528 0.5436 0.9727
C22 C 0.0353(3) 0.5147(4) 0.98540(11)
H12 H 0.0572 0.5267 0.9734
Zr6 Zr 0.5000 0.7500 0.911660(5)
Zr9 Zr 0.414793(12) 0.664792(12) 0.8750
N2 N 0.72594(19) 0.5000 0.0000
C32 C 0.8602(3) 0.5000 0.0000
C33 C 0.9326(3) 0.5000 0.0000
O11 O 0.62572(15) 0.36188(17) 0.09488(3)
C35 C 0.60923(17) 0.3501(2) 0.07682(5)
C36 C 0.64787(17) 0.3837(2) 0.06107(5)
C37 C 0.62706(18) 0.3825(2) 0.04161(5)
H19 H 0.5887 0.3596 0.0382
C38 C 0.66162(17) 0.4146(2) 0.02686(5)
H20 H 0.6447 0.4170 0.0136
C39 C 0.72031(17) 0.4431(3) 0.03119(6)
C40 C 0.7416(2) 0.4418(3) 0.05084(6)
H21 H 0.7817 0.4614 0.0542
C41 C 0.7051(2) 0.4125(3) 0.06554(6)
H22 H 0.7202 0.4124 0.0790
C42 C 0.75931(18) 0.4748(3) 0.01510(6)
C43 C 0.82542(17) 0.4741(3) 0.01600(7)
H23 H 0.8472 0.4564 0.0273
C44 C 0.9647(3) 0.4853(4) 0.01460(11)
H24 H 0.9428 0.4733 0.0266
O13 O 0.5797(2) 0.44043(15) 0.12275(4)
O16 O 0.69043(15) 0.3297(2) 0.12725(4)
O21 O 0.61188(17) 0.37572(15) 0.15512(3)
O26 O 0.59831(13) 0.2500 0.14529(3)
O8 O 0.56470(10) 0.68626(11) 0.92866(3)
O9 O 0.62572(15) 0.63812(17) 0.90512(3)
N2_2 N 0.72594(19) 0.5000 1.0000
C23 C 0.60923(17) 0.6499(2) 0.92318(5)
C24 C 0.64787(17) 0.6163(2) 0.93893(5)
C25 C 0.62706(18) 0.6175(2) 0.95839(5)
H13 H 0.5887 0.6404 0.9618
C26 C 0.66162(17) 0.5854(2) 0.97314(5)
H14 H 0.6447 0.5830 0.9864
C27 C 0.72031(17) 0.5569(3) 0.96881(6)
C28 C 0.7416(2) 0.5582(3) 0.94916(6)
H15 H 0.7817 0.5386 0.9458
C29 C 0.7051(2) 0.5875(3) 0.93446(6)
H16 H 0.7202 0.5876 0.9210
C30 C 0.75931(18) 0.5252(3) 0.98490(6)
C31 C 0.82542(17) 0.5259(3) 0.98400(7)
H17 H 0.8472 0.5436 0.9727
C32_2 C 0.8602(3) 0.5000 1.0000
C33_2 C 0.9326(3) 0.5000 1.0000
C34 C 0.9647(3) 0.5147(4) 0.98540(11)
H18 H 0.9428 0.5267 0.9734
Zr10 Zr 0.585207(12) 0.664792(12) 0.8750
Zr1_2 Zr 0.0000 0.2500 0.338340(5)
O3_2 O -0.0000 0.17652(12) 0.35926(3)
O14_2 O 0.09831(13) 0.2500 0.35471(3)
Zr8_2 Zr 0.085208(12) 0.335207(12) 0.3750
Zr11_2 Zr 0.085207(12) 0.164792(12) 0.3750
O17_2 O 0.06374(11) 0.31470(10) 0.32134(3)
O19_2 O 0.06374(11) 0.18530(10) 0.32134(3)
O22_2 O -0.0000 0.32348(12) 0.35926(3)
O27_2 O 0.0000 0.15169(13) 0.39529(3)
O26_2 O -0.0000 0.34831(13) 0.39529(3)
Zr1_3 Zr 1.0000 0.2500 0.338340(5)
Zr2_2 Zr 0.914792(12) 0.164793(12) 0.3750
O1_2 O 0.93626(11) 0.18530(10) 0.32134(3)
O2_2 O 0.88812(17) 0.12428(15) 0.34488(3)
O3_3 O 1.0000 0.17652(12) 0.35926(3)
O4_2 O 0.90169(13) 0.2500 0.35471(3)
O5_2 O 0.80957(15) 0.1703(2) 0.37275(4)
N1_3 N 0.7500 0.02406(19) 0.2500
C1_2 C 0.8999(2) 0.14077(17) 0.32682(5)
C2_2 C 0.8663(2) 0.10213(17) 0.31107(5)
C3_2 C 0.8675(2) 0.12294(18) 0.29161(5)
H1_2 H 0.8904 0.1613 0.2882
C4_2 C 0.8354(2) 0.08838(17) 0.27686(5)
H2_2 H 0.8330 0.1053 0.2636
C5_2 C 0.8069(3) 0.02969(17) 0.28119(6)
C6_2 C 0.8082(3) 0.0084(2) 0.30084(6)
C7_2 C 0.8375(3) 0.0449(2) 0.31554(6)
H4_2 H 0.8376 0.0298 0.3290
O6_2 O 0.56374(11) 0.18530(10) 0.17866(3)
O7_2 O 0.61188(17) 0.12428(15) 0.15512(3)
C13_2 C 0.6001(2) 0.14077(17) 0.17318(5)
C14_2 C 0.6337(2) 0.10213(17) 0.18893(5)
C15_2 C 0.6325(2) 0.12294(18) 0.20839(5)
H7_2 H 0.6096 0.1613 0.2118
C16_2 C 0.6646(2) 0.08838(17) 0.22314(5)
H8_2 H 0.6670 0.1053 0.2364
C17_2 C 0.6931(3) 0.02969(17) 0.21881(6)
C18_2 C 0.6918(3) 0.0084(2) 0.19916(6)
C19_2 C 0.6625(3) 0.0449(2) 0.18446(6)
H10_2 H 0.6624 0.0298 0.1710
O15_2 O 0.9203(2) 0.05957(15) 0.37725(4)
Zr6_2 Zr 0.5000 0.2500 0.161660(5)
Zr12_2 Zr 0.914792(12) 0.335207(12) 0.3750
O18_2 O 0.93626(11) 0.31470(10) 0.32134(3)
O20_2 O 0.87428(15) 0.13812(17) 0.40512(3)
O22_3 O 1.0000 0.32348(12) 0.35926(3)
O24_2 O 0.92652(12) 0.2500 0.39074(3)
O27_3 O 1.0000 0.15169(13) 0.39529(3)
H3_2 H 0.7886 0.9683 0.3042
C8_2 C 0.7752(3) 0.99069(18) 0.26510(6)
C9_2 C 0.7759(3) 0.92458(17) 0.26600(7)
H5_2 H 0.7936 0.9028 0.2773
C10_3 C 0.7500 0.8898(3) 0.2500
C11_3 C 0.7500 0.8174(3) 0.2500
C12_2 C 0.7647(4) 0.7853(3) 0.26460(11)
H6_2 H 0.7767 0.8072 0.2766
H9_2 H 0.7114 0.9683 0.1958
C20_2 C 0.7248(3) 0.99069(18) 0.23490(6)
C21_2 C 0.7241(3) 0.92458(17) 0.23400(7)
H11_2 H 0.7064 0.9028 0.2227
C22_2 C 0.7353(4) 0.7853(3) 0.23540(11)
H12_2 H 0.7233 0.8072 0.2234
O8_2 O 0.56374(11) 0.31470(10) 0.17866(3)
N2_3 N 0.7500 0.47594(19) 0.2500
C23_2 C 0.6001(2) 0.35923(17) 0.17318(5)
C24_2 C 0.6337(2) 0.39787(17) 0.18893(5)
C25_2 C 0.6325(2) 0.37706(18) 0.20839(5)
H13_2 H 0.6096 0.3387 0.2118
C26_2 C 0.6646(2) 0.41162(17) 0.22314(5)
H14_2 H 0.6670 0.3947 0.2364
C27_2 C 0.6931(3) 0.47031(17) 0.21881(6)
C28_2 C 0.6918(3) 0.4916(2) 0.19916(6)
H15_2 H 0.7114 0.5317 0.1958
C29_2 C 0.6625(3) 0.4551(2) 0.18446(6)
H16_2 H 0.6624 0.4702 0.1710
C30_2 C 0.7248(3) 0.50931(18) 0.23490(6)
C31_2 C 0.7241(3) 0.57542(17) 0.23400(7)
H17_2 H 0.7064 0.5972 0.2227
C32_3 C 0.7500 0.6102(3) 0.2500
C33_3 C 0.7500 0.6826(3) 0.2500
C34_2 C 0.7353(4) 0.7147(3) 0.23540(11)
H18_2 H 0.7233 0.6928 0.2234
O11_2 O 0.88812(17) 0.37572(15) 0.34488(3)
C35_2 C 0.8999(2) 0.35923(17) 0.32682(5)
C36_2 C 0.8663(2) 0.39787(17) 0.31107(5)
C37_2 C 0.8675(2) 0.37706(18) 0.29161(5)
H19_2 H 0.8904 0.3387 0.2882
C38_2 C 0.8354(2) 0.41162(17) 0.27686(5)
H20_2 H 0.8330 0.3947 0.2636
C39_2 C 0.8069(3) 0.47031(17) 0.28119(6)
C40_2 C 0.8082(3) 0.4916(2) 0.30084(6)
H21_2 H 0.7886 0.5317 0.3042
C41_2 C 0.8375(3) 0.4551(2) 0.31554(6)
H22_2 H 0.8376 0.4702 0.3290
C42_2 C 0.7752(3) 0.50931(18) 0.26510(6)
C43_2 C 0.7759(3) 0.57542(17) 0.26600(7)
H23_2 H 0.7936 0.5972 0.2773
C44_2 C 0.7647(4) 0.7147(3) 0.26460(11)
H24_2 H 0.7767 0.6928 0.2766
O13_2 O 0.80957(15) 0.3297(2) 0.37275(4)
O16_2 O 0.9203(2) 0.44043(15) 0.37725(4)
O21_2 O 0.87428(15) 0.36188(17) 0.40512(3)
O26_3 O 1.0000 0.34831(13) 0.39529(3)
N2_4 N 0.27406(19) 0.0000 0.0000
C32_4 C 0.1398(3) 0.0000 0.0000
C33_4 C 0.0674(3) 0.0000 0.0000
O11_3 O 0.37428(15) 0.13812(17) 0.09488(3)
C35_3 C 0.39077(17) 0.1499(2) 0.07682(5)
C36_3 C 0.35213(17) 0.1163(2) 0.06107(5)
C37_3 C 0.37294(18) 0.1175(2) 0.04161(5)
H19_3 H 0.4113 0.1404 0.0382
C38_3 C 0.33838(17) 0.0854(2) 0.02686(5)
H20_3 H 0.3553 0.0830 0.0136
C39_3 C 0.27969(17) 0.0569(3) 0.03119(6)
C40_3 C 0.2584(2) 0.0582(3) 0.05084(6)
H21_3 H 0.2183 0.0386 0.0542
C41_3 C 0.2949(2) 0.0875(3) 0.06554(6)
H22_3 H 0.2798 0.0876 0.0790
C42_3 C 0.24069(18) 0.0252(3) 0.01510(6)
C43_3 C 0.17458(17) 0.0259(3) 0.01600(7)
H23_3 H 0.1528 0.0436 0.0273
C44_3 C 0.0353(3) 0.0147(4) 0.01460(11)
H24_3 H 0.0572 0.0267 0.0266
O13_3 O 0.4203(2) 0.05957(15) 0.12275(4)
O16_3 O 0.30957(15) 0.1703(2) 0.12725(4)
O21_3 O 0.38812(17) 0.12428(15) 0.15512(3)
O23 O 0.5000 0.17652(12) 0.14074(3)
O8_3 O 0.43530(10) 0.81374(11) 0.92866(3)
O9_2 O 0.37428(15) 0.86188(17) 0.90512(3)
N2_5 N 0.27406(19) 1.0000 1.0000
C23_3 C 0.39077(17) 0.8501(2) 0.92318(5)
C24_3 C 0.35213(17) 0.8837(2) 0.93893(5)
C25_3 C 0.37294(18) 0.8825(2) 0.95839(5)
H13_3 H 0.4113 0.8596 0.9618
C26_3 C 0.33838(17) 0.9146(2) 0.97314(5)
H14_3 H 0.3553 0.9170 0.9864
C27_3 C 0.27969(17) 0.9431(3) 0.96881(6)
C28_3 C 0.2584(2) 0.9418(3) 0.94916(6)
H15_3 H 0.2183 0.9614 0.9458
C29_3 C 0.2949(2) 0.9125(3) 0.93446(6)
H16_3 H 0.2798 0.9124 0.9210
C30_3 C 0.24069(18) 0.9748(3) 0.98490(6)
C31_3 C 0.17458(17) 0.9741(3) 0.98400(7)
H17_3 H 0.1528 0.9564 0.9727
C32_5 C 0.1398(3) 1.0000 1.0000
C33_5 C 0.0674(3) 1.0000 1.0000
C34_3 C 0.0353(3) 0.9853(4) 0.98540(11)
H18_3 H 0.0572 0.9733 0.9734
Zr10_2 Zr 0.414793(12) 0.835208(12) 0.8750
O2_3 O 0.62572(15) 0.13812(17) 0.09488(3)
O5_3 O 0.5797(2) 0.05957(15) 0.12275(4)
N1_4 N 0.72594(19) 0.0000 0.0000
C1_3 C 0.60923(17) 0.1499(2) 0.07682(5)
C2_3 C 0.64787(17) 0.1163(2) 0.06107(5)
C3_3 C 0.62706(18) 0.1175(2) 0.04161(5)
H1_3 H 0.5887 0.1404 0.0382
C4_3 C 0.66162(17) 0.0854(2) 0.02686(5)
H2_3 H 0.6447 0.0830 0.0136
C5_3 C 0.72031(17) 0.0569(3) 0.03119(6)
C6_3 C 0.7416(2) 0.0582(3) 0.05084(6)
H3_3 H 0.7817 0.0386 0.0542
C7_3 C 0.7051(2) 0.0875(3) 0.06554(6)
H4_3 H 0.7202 0.0876 0.0790
C8_3 C 0.75931(18) 0.0252(3) 0.01510(6)
C9_3 C 0.82542(17) 0.0259(3) 0.01600(7)
H5_3 H 0.8472 0.0436 0.0273
C10_4 C 0.8602(3) 0.0000 0.0000
C11_4 C 0.9326(3) 0.0000 0.0000
C12_3 C 0.9647(3) 0.0147(4) 0.01460(11)
H6_3 H 0.9428 0.0267 0.0266
O15_3 O 0.69043(15) 0.1703(2) 0.12725(4)
N1_5 N 0.72594(19) 1.0000 1.0000
C10_5 C 0.8602(3) 1.0000 1.0000
C11_5 C 0.9326(3) 1.0000 1.0000
O6_3 O 0.56470(10) 0.81374(11) 0.92866(3)
O7_3 O 0.62572(15) 0.86188(17) 0.90512(3)
C13_3 C 0.60923(17) 0.8501(2) 0.92318(5)
C14_3 C 0.64787(17) 0.8837(2) 0.93893(5)
C15_3 C 0.62706(18) 0.8825(2) 0.95839(5)
H7_3 H 0.5887 0.8596 0.9618
C16_3 C 0.66162(17) 0.9146(2) 0.97314(5)
H8_3 H 0.6447 0.9170 0.9864
C17_3 C 0.72031(17) 0.9431(3) 0.96881(6)
C18_3 C 0.7416(2) 0.9418(3) 0.94916(6)
H9_3 H 0.7817 0.9614 0.9458
C19_3 C 0.7051(2) 0.9125(3) 0.93446(6)
H10_3 H 0.7202 0.9124 0.9210
C20_3 C 0.75931(18) 0.9748(3) 0.98490(6)
C21_3 C 0.82542(17) 0.9741(3) 0.98400(7)
H11_3 H 0.8472 0.9564 0.9727
C22_3 C 0.9647(3) 0.9853(4) 0.98540(11)
H12_3 H 0.9428 0.9733 0.9734
Zr9_2 Zr 0.585207(12) 0.835208(12) 0.8750
Zr5 Zr -0.0000 0.7500 0.661660(5)
H3_4 H 0.7114 0.0317 0.8042
C8_4 C 0.7248(3) 0.00931(18) 0.76510(6)
C9_4 C 0.7241(3) 0.07542(17) 0.76600(7)
H5_4 H 0.7064 0.0972 0.7773
C10_6 C 0.7500 0.1102(3) 0.7500
C11_6 C 0.7500 0.1826(3) 0.7500
C12_4 C 0.7353(4) 0.2147(3) 0.76460(11)
H6_4 H 0.7233 0.1928 0.7766
H9_4 H 0.7886 0.0317 0.6958
C20_4 C 0.7752(3) 0.00931(18) 0.73490(6)
C21_4 C 0.7759(3) 0.07542(17) 0.73400(7)
H11_4 H 0.7936 0.0972 0.7227
C22_4 C 0.7647(4) 0.2147(3) 0.73540(11)
H12_4 H 0.7767 0.1928 0.7234
O8_4 O 0.93626(11) 0.68530(10) 0.67866(3)
O9_3 O 0.88812(17) 0.62428(15) 0.65512(3)
N2_6 N 0.7500 0.52406(19) 0.7500
C23_4 C 0.8999(2) 0.64077(17) 0.67318(5)
C24_4 C 0.8663(2) 0.60213(17) 0.68893(5)
C25_4 C 0.8675(2) 0.62294(18) 0.70839(5)
H13_4 H 0.8904 0.6613 0.7118
C26_4 C 0.8354(2) 0.58838(17) 0.72314(5)
H14_4 H 0.8330 0.6053 0.7364
C27_4 C 0.8069(3) 0.52969(17) 0.71881(6)
C28_4 C 0.8082(3) 0.5084(2) 0.69916(6)
H15_4 H 0.7886 0.4683 0.6958
C29_4 C 0.8375(3) 0.5449(2) 0.68446(6)
H16_4 H 0.8376 0.5298 0.6710
C30_4 C 0.7752(3) 0.49069(18) 0.73490(6)
C31_4 C 0.7759(3) 0.42458(17) 0.73400(7)
H17_4 H 0.7936 0.4028 0.7227
C32_6 C 0.7500 0.3898(3) 0.7500
C33_6 C 0.7500 0.3174(3) 0.7500
C34_4 C 0.7647(4) 0.2853(3) 0.73540(11)
H18_4 H 0.7767 0.3072 0.7234
O10 O 0.56374(11) 0.68530(10) 0.82134(3)
O11_4 O 0.61188(17) 0.62428(15) 0.84488(3)
C35_4 C 0.6001(2) 0.64077(17) 0.82682(5)
C36_4 C 0.6337(2) 0.60213(17) 0.81107(5)
C37_4 C 0.6325(2) 0.62294(18) 0.79161(5)
H19_4 H 0.6096 0.6613 0.7882
C38_4 C 0.6646(2) 0.58838(17) 0.77686(5)
H20_4 H 0.6670 0.6053 0.7636
C39_4 C 0.6931(3) 0.52969(17) 0.78119(6)
C40_4 C 0.6918(3) 0.5084(2) 0.80084(6)
H21_4 H 0.7114 0.4683 0.8042
C41_4 C 0.6625(3) 0.5449(2) 0.81554(6)
H22_4 H 0.6624 0.5298 0.8290
C42_4 C 0.7248(3) 0.49069(18) 0.76510(6)
C43_4 C 0.7241(3) 0.42458(17) 0.76600(7)
H23_4 H 0.7064 0.4028 0.7773
C44_4 C 0.7353(4) 0.2853(3) 0.76460(11)
H24_4 H 0.7233 0.3072 0.7766
O12 O 0.5000 0.67652(12) 0.85926(3)
O13_4 O 0.69043(15) 0.6703(2) 0.87275(4)
O16_4 O 0.5797(2) 0.55957(15) 0.87725(4)
Zr4 Zr 0.5000 0.7500 0.838340(5)
Zr5_2 Zr 1.0000 0.7500 0.661660(5)
Zr10_3 Zr 0.914792(12) 0.664793(12) 0.6250
O23_2 O 0.57348(12) 0.7500 0.89074(3)
O25 O 0.59831(13) 0.7500 0.85471(3)
O26_4 O 0.5000 0.65169(13) 0.89529(3)
O1_3 O 0.56374(11) 0.81470(10) 0.82134(3)
O2_4 O 0.61188(17) 0.87572(15) 0.84488(3)
O3_4 O 0.5000 0.82348(12) 0.85926(3)
O5_4 O 0.69043(15) 0.8297(2) 0.87275(4)
N1_6 N 0.7500 0.97594(19) 0.7500
C1_4 C 0.6001(2) 0.85923(17) 0.82682(5)
C2_4 C 0.6337(2) 0.89787(17) 0.81107(5)
C3_4 C 0.6325(2) 0.87706(18) 0.79161(5)
H1_4 H 0.6096 0.8387 0.7882
C4_4 C 0.6646(2) 0.91162(17) 0.77686(5)
H2_4 H 0.6670 0.8947 0.7636
C5_4 C 0.6931(3) 0.97031(17) 0.78119(6)
C6_4 C 0.6918(3) 0.9916(2) 0.80084(6)
C7_4 C 0.6625(3) 0.9551(2) 0.81554(6)
H4_4 H 0.6624 0.9702 0.8290
O6_4 O 0.93626(11) 0.81470(10) 0.67866(3)
O7_4 O 0.88812(17) 0.87572(15) 0.65512(3)
C13_4 C 0.8999(2) 0.85923(17) 0.67318(5)
C14_4 C 0.8663(2) 0.89787(17) 0.68893(5)
C15_4 C 0.8675(2) 0.87706(18) 0.70839(5)
H7_4 H 0.8904 0.8387 0.7118
C16_4 C 0.8354(2) 0.91162(17) 0.72314(5)
H8_4 H 0.8330 0.8947 0.7364
C17_4 C 0.8069(3) 0.97031(17) 0.71881(6)
C18_4 C 0.8082(3) 0.9916(2) 0.69916(6)
C19_4 C 0.8375(3) 0.9551(2) 0.68446(6)
H10_4 H 0.8376 0.9702 0.6710
O14_3 O 0.40169(13) 0.7500 0.85471(3)
O15_4 O 0.5797(2) 0.94043(15) 0.87725(4)
Zr9_3 Zr 0.914792(12) 0.835207(12) 0.6250
O17_3 O 0.43626(11) 0.68530(10) 0.82134(3)
O19_3 O 0.43626(11) 0.81470(10) 0.82134(3)
O27_4 O 0.5000 0.84831(13) 0.89529(3)
O3_5 O 0.42652(12) 0.7500 0.89074(3)
O5_5 O 0.4203(2) 0.55957(15) 0.87725(4)
O15_5 O 0.30957(15) 0.6703(2) 0.87275(4)
O20_3 O 0.38812(17) 0.62428(15) 0.84488(3)
O13_5 O 0.4203(2) 0.94043(15) 0.87725(4)
O16_5 O 0.30957(15) 0.8297(2) 0.87275(4)
O21_4 O 0.38812(17) 0.87572(15) 0.84488(3)
O17_4 O 0.43626(11) 0.31470(10) 0.17866(3)
O19_4 O 0.43626(11) 0.18530(10) 0.17866(3)
O12_2 O -0.0000 0.67652(12) 0.64074(3)
Zr7 Zr 0.085208(12) 0.664793(12) 0.6250
O26_5 O 0.0000 0.65169(13) 0.60471(3)
O3_6 O -0.0000 0.82348(12) 0.64074(3)
O14_4 O 0.09831(13) 0.7500 0.64529(3)
Zr11_3 Zr 0.085207(12) 0.835208(12) 0.6250
O17_5 O 0.06374(11) 0.68530(10) 0.67866(3)
O19_5 O 0.06374(11) 0.81470(10) 0.67866(3)
O27_5 O 0.0000 0.84831(13) 0.60471(3)
O12_3 O 1.0000 0.67652(12) 0.64074(3)
O13_6 O 0.80957(15) 0.6703(2) 0.62725(4)
O16_6 O 0.9203(2) 0.55957(15) 0.62275(4)
O21_5 O 0.87428(15) 0.63812(17) 0.59488(3)
O23_3 O 0.92652(12) 0.7500 0.60926(3)
O25_2 O 0.90169(13) 0.7500 0.64529(3)
O26_6 O 1.0000 0.65169(13) 0.60471(3)
O3_7 O 1.0000 0.82348(12) 0.64074(3)
O5_6 O 0.80957(15) 0.8297(2) 0.62725(4)
O15_6 O 0.9203(2) 0.94043(15) 0.62275(4)
O20_4 O 0.87428(15) 0.86188(17) 0.59488(3)
O27_6 O 1.0000 0.84831(13) 0.60471(3)
Zr6_3 Zr 0.0000 0.2500 0.411660(5)
Zr1_4 Zr -0.0000 0.7500 0.588340(5)
O17_6 O 0.06470(10) 0.68626(11) 0.57134(3)
O18_3 O 0.06470(10) 0.81374(11) 0.57134(3)
O22_4 O 0.07348(12) 0.7500 0.60926(3)
N1_7 N 0.77406(19) -0.0000 0.5000
C10_7 C 0.6398(3) -0.0000 0.5000
C11_7 C 0.5674(3) -0.0000 0.5000
O6_5 O 0.93530(10) 0.18626(11) 0.42866(3)
C13_5 C 0.89077(17) 0.1499(2) 0.42318(5)
C14_5 C 0.85213(17) 0.1163(2) 0.43893(5)
C15_5 C 0.87294(18) 0.1175(2) 0.45839(5)
H7_5 H 0.9113 0.1404 0.4618
C16_5 C 0.83838(17) 0.0854(2) 0.47314(5)
H8_5 H 0.8553 0.0830 0.4864
C17_5 C 0.77969(17) 0.0569(3) 0.46881(6)
C18_5 C 0.7584(2) 0.0582(3) 0.44916(6)
H9_5 H 0.7183 0.0386 0.4458
C19_5 C 0.7949(2) 0.0875(3) 0.43446(6)
H10_5 H 0.7798 0.0876 0.4210
C20_5 C 0.74069(18) 0.0252(3) 0.48490(6)
C21_5 C 0.67458(17) 0.0259(3) 0.48400(7)
H11_5 H 0.6528 0.0436 0.4727
C22_5 C 0.5353(3) 0.0147(4) 0.48540(11)
H12_5 H 0.5572 0.0267 0.4734
O8_5 O 0.06470(10) 0.18626(11) 0.42866(3)
O9_4 O 0.12572(15) 0.13812(17) 0.40512(3)
N2_7 N 0.22594(19) -0.0000 0.5000
C23_5 C 0.10923(17) 0.1499(2) 0.42318(5)
C24_5 C 0.14787(17) 0.1163(2) 0.43893(5)
C25_5 C 0.12706(18) 0.1175(2) 0.45839(5)
H13_5 H 0.0887 0.1404 0.4618
C26_5 C 0.16162(17) 0.0854(2) 0.47314(5)
H14_5 H 0.1447 0.0830 0.4864
C27_5 C 0.22031(17) 0.0569(3) 0.46881(6)
C28_5 C 0.2416(2) 0.0582(3) 0.44916(6)
H15_5 H 0.2817 0.0386 0.4458
C29_5 C 0.2051(2) 0.0875(3) 0.43446(6)
H16_5 H 0.2202 0.0876 0.4210
C30_5 C 0.25931(18) 0.0252(3) 0.48490(6)
C31_5 C 0.32542(17) 0.0259(3) 0.48400(7)
H17_5 H 0.3472 0.0436 0.4727
C32_7 C 0.3602(3) -0.0000 0.5000
C33_7 C 0.4326(3) -0.0000 0.5000
C34_5 C 0.4647(3) 0.0147(4) 0.48540(11)
H18_5 H 0.4428 0.0267 0.4734
Zr6_4 Zr 1.0000 0.2500 0.411660(5)
Zr1_5 Zr 1.0000 0.7500 0.588340(5)
O1_4 O 0.93530(10) 0.81374(11) 0.57134(3)
N1_8 N 0.77406(19) 1.0000 0.5000
C1_5 C 0.89077(17) 0.8501(2) 0.57682(5)
C2_5 C 0.85213(17) 0.8837(2) 0.56107(5)
C3_5 C 0.87294(18) 0.8825(2) 0.54161(5)
H1_5 H 0.9113 0.8596 0.5382
C4_5 C 0.83838(17) 0.9146(2) 0.52686(5)
H2_5 H 0.8553 0.9170 0.5136
C5_5 C 0.77969(17) 0.9431(3) 0.53119(6)
C6_5 C 0.7584(2) 0.9418(3) 0.55084(6)
H3_5 H 0.7183 0.9614 0.5542
C7_5 C 0.7949(2) 0.9125(3) 0.56554(6)
H4_5 H 0.7798 0.9124 0.5790
C8_5 C 0.74069(18) 0.9748(3) 0.51510(6)
C9_5 C 0.67458(17) 0.9741(3) 0.51600(7)
H5_5 H 0.6528 0.9564 0.5273
C10_8 C 0.6398(3) 1.0000 0.5000
C11_8 C 0.5674(3) 1.0000 0.5000
C12_5 C 0.5353(3) 0.9853(4) 0.51460(11)
H6_5 H 0.5572 0.9733 0.5266
N2_8 N 0.22594(19) 1.0000 0.5000
C32_8 C 0.3602(3) 1.0000 0.5000
C33_8 C 0.4326(3) 1.0000 0.5000
O11_5 O 0.12572(15) 0.86188(17) 0.59488(3)
C35_5 C 0.10923(17) 0.8501(2) 0.57682(5)
C36_5 C 0.14787(17) 0.8837(2) 0.56107(5)
C37_5 C 0.12706(18) 0.8825(2) 0.54161(5)
H19_5 H 0.0887 0.8596 0.5382
C38_5 C 0.16162(17) 0.9146(2) 0.52686(5)
H20_5 H 0.1447 0.9170 0.5136
C39_5 C 0.22031(17) 0.9431(3) 0.53119(6)
C40_5 C 0.2416(2) 0.9418(3) 0.55084(6)
H21_5 H 0.2817 0.9614 0.5542
C41_5 C 0.2051(2) 0.9125(3) 0.56554(6)
H22_5 H 0.2202 0.9124 0.5790
C42_5 C 0.25931(18) 0.9748(3) 0.51510(6)
C43_5 C 0.32542(17) 0.9741(3) 0.51600(7)
H23_5 H 0.3472 0.9564 0.5273
C44_5 C 0.4647(3) 0.9853(4) 0.51460(11)
H24_5 H 0.4428 0.9733 0.5266
O13_7 O 0.0797(2) 0.94043(15) 0.62275(4)
O16_7 O 0.19043(15) 0.8297(2) 0.62725(4)
O19_6 O 0.93530(10) 0.68626(11) 0.57134(3)
O21_6 O 0.11188(17) 0.87572(15) 0.65512(3)
N1_9 N 0.2500 0.52406(19) 0.7500
C1_6 C 0.3999(2) 0.64077(17) 0.82682(5)
C2_6 C 0.3663(2) 0.60213(17) 0.81107(5)
C3_6 C 0.3675(2) 0.62294(18) 0.79161(5)
H1_6 H 0.3904 0.6613 0.7882
C4_6 C 0.3354(2) 0.58838(17) 0.77686(5)
H2_6 H 0.3330 0.6053 0.7636
C5_6 C 0.3069(3) 0.52969(17) 0.78119(6)
C6_6 C 0.3082(3) 0.5084(2) 0.80084(6)
H3_6 H 0.2886 0.4683 0.8042
C7_6 C 0.3375(3) 0.5449(2) 0.81554(6)
H4_6 H 0.3376 0.5298 0.8290
C8_6 C 0.2752(3) 0.49069(18) 0.76510(6)
C9_6 C 0.2759(3) 0.42458(17) 0.76600(7)
H5_6 H 0.2936 0.4028 0.7773
C10_9 C 0.2500 0.3898(3) 0.7500
C11_9 C 0.2500 0.3174(3) 0.7500
C12_6 C 0.2647(4) 0.2853(3) 0.76460(11)
H6_6 H 0.2767 0.3072 0.7766
O7_5 O 0.11188(17) 0.62428(15) 0.65512(3)
C13_6 C 0.1001(2) 0.64077(17) 0.67318(5)
C14_6 C 0.1337(2) 0.60213(17) 0.68893(5)
C15_6 C 0.1325(2) 0.62294(18) 0.70839(5)
H7_6 H 0.1096 0.6613 0.7118
C16_6 C 0.1646(2) 0.58838(17) 0.72314(5)
H8_6 H 0.1670 0.6053 0.7364
C17_6 C 0.1931(3) 0.52969(17) 0.71881(6)
C18_6 C 0.1918(3) 0.5084(2) 0.69916(6)
H9_6 H 0.2114 0.4683 0.6958
C19_6 C 0.1625(3) 0.5449(2) 0.68446(6)
H10_6 H 0.1624 0.5298 0.6710
C20_6 C 0.2248(3) 0.49069(18) 0.73490(6)
C21_6 C 0.2241(3) 0.42458(17) 0.73400(7)
H11_6 H 0.2064 0.4028 0.7227
C22_6 C 0.2353(4) 0.2853(3) 0.73540(11)
H12_6 H 0.2233 0.3072 0.7234
H15_6 H 0.2114 0.0317 0.6958
C30_6 C 0.2248(3) 0.00931(18) 0.73490(6)
C31_6 C 0.2241(3) 0.07542(17) 0.73400(7)
H17_6 H 0.2064 0.0972 0.7227
C32_9 C 0.2500 0.1102(3) 0.7500
C33_9 C 0.2500 0.1826(3) 0.7500
C34_6 C 0.2353(4) 0.2147(3) 0.73540(11)
H18_6 H 0.2233 0.1928 0.7234
H21_6 H 0.2886 0.0317 0.8042
C42_6 C 0.2752(3) 0.00931(18) 0.76510(6)
C43_6 C 0.2759(3) 0.07542(17) 0.76600(7)
H23_6 H 0.2936 0.0972 0.7773
C44_6 C 0.2647(4) 0.2147(3) 0.76460(11)
H24_6 H 0.2767 0.1928 0.7766
N2_9 N 0.2500 0.97594(19) 0.7500
C23_6 C 0.1001(2) 0.85923(17) 0.67318(5)
C24_6 C 0.1337(2) 0.89787(17) 0.68893(5)
C25_6 C 0.1325(2) 0.87706(18) 0.70839(5)
H13_6 H 0.1096 0.8387 0.7118
C26_6 C 0.1646(2) 0.91162(17) 0.72314(5)
H14_6 H 0.1670 0.8947 0.7364
C27_6 C 0.1931(3) 0.97031(17) 0.71881(6)
C28_6 C 0.1918(3) 0.9916(2) 0.69916(6)
C29_6 C 0.1625(3) 0.9551(2) 0.68446(6)
H16_6 H 0.1624 0.9702 0.6710
C35_6 C 0.3999(2) 0.85923(17) 0.82682(5)
C36_6 C 0.3663(2) 0.89787(17) 0.81107(5)
C37_6 C 0.3675(2) 0.87706(18) 0.79161(5)
H19_6 H 0.3904 0.8387 0.7882
C38_6 C 0.3354(2) 0.91162(17) 0.77686(5)
H20_6 H 0.3330 0.8947 0.7636
C39_6 C 0.3069(3) 0.97031(17) 0.78119(6)
C40_6 C 0.3082(3) 0.9916(2) 0.80084(6)
C41_6 C 0.3375(3) 0.9551(2) 0.81554(6)
H22_6 H 0.3376 0.9702 0.8290
O2_5 O 0.12572(15) 0.63812(17) 0.59488(3)
O5_7 O 0.0797(2) 0.55957(15) 0.62275(4)
N1_10 N 0.22594(19) 0.5000 0.5000
C1_7 C 0.10923(17) 0.6499(2) 0.57682(5)
C2_7 C 0.14787(17) 0.6163(2) 0.56107(5)
C3_7 C 0.12706(18) 0.6175(2) 0.54161(5)
H1_7 H 0.0887 0.6404 0.5382
C4_7 C 0.16162(17) 0.5854(2) 0.52686(5)
H2_7 H 0.1447 0.5830 0.5136
C5_7 C 0.22031(17) 0.5569(3) 0.53119(6)
C6_7 C 0.2416(2) 0.5582(3) 0.55084(6)
H3_7 H 0.2817 0.5386 0.5542
C7_7 C 0.2051(2) 0.5875(3) 0.56554(6)
H4_7 H 0.2202 0.5876 0.5790
C8_7 C 0.25931(18) 0.5252(3) 0.51510(6)
C9_7 C 0.32542(17) 0.5259(3) 0.51600(7)
H5_7 H 0.3472 0.5436 0.5273
C10_10 C 0.3602(3) 0.5000 0.5000
C11_10 C 0.4326(3) 0.5000 0.5000
C12_7 C 0.4647(3) 0.5147(4) 0.51460(11)
H6_7 H 0.4428 0.5267 0.5266
O6_6 O 0.06470(10) 0.31374(11) 0.42866(3)
O7_6 O 0.12572(15) 0.36188(17) 0.40512(3)
C13_7 C 0.10923(17) 0.3501(2) 0.42318(5)
C14_7 C 0.14787(17) 0.3837(2) 0.43893(5)
C15_7 C 0.12706(18) 0.3825(2) 0.45839(5)
H7_7 H 0.0887 0.3596 0.4618
C16_7 C 0.16162(17) 0.4146(2) 0.47314(5)
H8_7 H 0.1447 0.4170 0.4864
C17_7 C 0.22031(17) 0.4431(3) 0.46881(6)
C18_7 C 0.2416(2) 0.4418(3) 0.44916(6)
H9_7 H 0.2817 0.4614 0.4458
C19_7 C 0.2051(2) 0.4125(3) 0.43446(6)
H10_7 H 0.2202 0.4124 0.4210
C20_7 C 0.25931(18) 0.4748(3) 0.48490(6)
C21_7 C 0.32542(17) 0.4741(3) 0.48400(7)
H11_7 H 0.3472 0.4564 0.4727
C22_7 C 0.4647(3) 0.4853(4) 0.48540(11)
H12_7 H 0.4428 0.4733 0.4734
O8_6 O 0.93530(10) 0.31374(11) 0.42866(3)
N2_10 N 0.77406(19) 0.5000 0.5000
C23_7 C 0.89077(17) 0.3501(2) 0.42318(5)
C24_7 C 0.85213(17) 0.3837(2) 0.43893(5)
C25_7 C 0.87294(18) 0.3825(2) 0.45839(5)
H13_7 H 0.9113 0.3596 0.4618
C26_7 C 0.83838(17) 0.4146(2) 0.47314(5)
H14_7 H 0.8553 0.4170 0.4864
C27_7 C 0.77969(17) 0.4431(3) 0.46881(6)
C28_7 C 0.7584(2) 0.4418(3) 0.44916(6)
H15_7 H 0.7183 0.4614 0.4458
C29_7 C 0.7949(2) 0.4125(3) 0.43446(6)
H16_7 H 0.7798 0.4124 0.4210
C30_7 C 0.74069(18) 0.4748(3) 0.48490(6)
C31_7 C 0.67458(17) 0.4741(3) 0.48400(7)
H17_7 H 0.6528 0.4564 0.4727
C32_10 C 0.6398(3) 0.5000 0.5000
C33_10 C 0.5674(3) 0.5000 0.5000
C34_7 C 0.5353(3) 0.4853(4) 0.48540(11)
H18_7 H 0.5572 0.4733 0.4734
C35_7 C 0.89077(17) 0.6499(2) 0.57682(5)
C36_7 C 0.85213(17) 0.6163(2) 0.56107(5)
C37_7 C 0.87294(18) 0.6175(2) 0.54161(5)
H19_7 H 0.9113 0.6404 0.5382
C38_7 C 0.83838(17) 0.5854(2) 0.52686(5)
H20_7 H 0.8553 0.5830 0.5136
C39_7 C 0.77969(17) 0.5569(3) 0.53119(6)
C40_7 C 0.7584(2) 0.5582(3) 0.55084(6)
H21_7 H 0.7183 0.5386 0.5542
C41_7 C 0.7949(2) 0.5875(3) 0.56554(6)
H22_7 H 0.7798 0.5876 0.5790
C42_7 C 0.74069(18) 0.5252(3) 0.51510(6)
C43_7 C 0.67458(17) 0.5259(3) 0.51600(7)
H23_7 H 0.6528 0.5436 0.5273
C44_7 C 0.5353(3) 0.5147(4) 0.51460(11)
H24_7 H 0.5572 0.5267 0.5266
O15_7 O 0.19043(15) 0.6703(2) 0.62725(4)
N2_11 N 0.2500 0.02406(19) 0.2500
C23_8 C 0.3999(2) 0.14077(17) 0.17318(5)
C24_8 C 0.3663(2) 0.10213(17) 0.18893(5)
C25_8 C 0.3675(2) 0.12294(18) 0.20839(5)
H13_8 H 0.3904 0.1613 0.2118
C26_8 C 0.3354(2) 0.08838(17) 0.22314(5)
H14_8 H 0.3330 0.1053 0.2364
C27_8 C 0.3069(3) 0.02969(17) 0.21881(6)
C28_8 C 0.3082(3) 0.0084(2) 0.19916(6)
C29_8 C 0.3375(3) 0.0449(2) 0.18446(6)
H16_8 H 0.3376 0.0298 0.1710
O11_6 O 0.11188(17) 0.12428(15) 0.34488(3)
C35_8 C 0.1001(2) 0.14077(17) 0.32682(5)
C36_8 C 0.1337(2) 0.10213(17) 0.31107(5)
C37_8 C 0.1325(2) 0.12294(18) 0.29161(5)
H19_8 H 0.1096 0.1613 0.2882
C38_8 C 0.1646(2) 0.08838(17) 0.27686(5)
H20_8 H 0.1670 0.1053 0.2636
C39_8 C 0.1931(3) 0.02969(17) 0.28119(6)
C40_8 C 0.1918(3) 0.0084(2) 0.30084(6)
C41_8 C 0.1625(3) 0.0449(2) 0.31554(6)
H22_8 H 0.1624 0.0298 0.3290
O13_8 O 0.19043(15) 0.1703(2) 0.37275(4)
O16_8 O 0.0797(2) 0.05957(15) 0.37725(4)
O23_4 O 0.07348(12) 0.2500 0.39074(3)
O2_6 O 0.11188(17) 0.37572(15) 0.34488(3)
O5_8 O 0.19043(15) 0.3297(2) 0.37275(4)
N1_11 N 0.2500 0.47594(19) 0.2500
C1_8 C 0.1001(2) 0.35923(17) 0.32682(5)
C2_8 C 0.1337(2) 0.39787(17) 0.31107(5)
C3_8 C 0.1325(2) 0.37706(18) 0.29161(5)
H1_8 H 0.1096 0.3387 0.2882
C4_8 C 0.1646(2) 0.41162(17) 0.27686(5)
H2_8 H 0.1670 0.3947 0.2636
C5_8 C 0.1931(3) 0.47031(17) 0.28119(6)
C6_8 C 0.1918(3) 0.4916(2) 0.30084(6)
H3_8 H 0.2114 0.5317 0.3042
C7_8 C 0.1625(3) 0.4551(2) 0.31554(6)
H4_8 H 0.1624 0.4702 0.3290
C8_8 C 0.2248(3) 0.50931(18) 0.26510(6)
C9_8 C 0.2241(3) 0.57542(17) 0.26600(7)
H5_8 H 0.2064 0.5972 0.2773
C10_11 C 0.2500 0.6102(3) 0.2500
C11_11 C 0.2500 0.6826(3) 0.2500
C12_8 C 0.2353(4) 0.7147(3) 0.26460(11)
H6_8 H 0.2233 0.6928 0.2766
C13_8 C 0.3999(2) 0.35923(17) 0.17318(5)
C14_8 C 0.3663(2) 0.39787(17) 0.18893(5)
C15_8 C 0.3675(2) 0.37706(18) 0.20839(5)
H7_8 H 0.3904 0.3387 0.2118
C16_8 C 0.3354(2) 0.41162(17) 0.22314(5)
H8_8 H 0.3330 0.3947 0.2364
C17_8 C 0.3069(3) 0.47031(17) 0.21881(6)
C18_8 C 0.3082(3) 0.4916(2) 0.19916(6)
H9_8 H 0.2886 0.5317 0.1958
C19_8 C 0.3375(3) 0.4551(2) 0.18446(6)
H10_8 H 0.3376 0.4702 0.1710
C20_8 C 0.2752(3) 0.50931(18) 0.23490(6)
C21_8 C 0.2759(3) 0.57542(17) 0.23400(7)
H11_8 H 0.2936 0.5972 0.2227
C22_8 C 0.2647(4) 0.7147(3) 0.23540(11)
H12_8 H 0.2767 0.6928 0.2234
H15_8 H 0.2886 0.9683 0.1958
C30_8 C 0.2752(3) 0.99069(18) 0.23490(6)
C31_8 C 0.2759(3) 0.92458(17) 0.23400(7)
H17_8 H 0.2936 0.9028 0.2227
C32_11 C 0.2500 0.8898(3) 0.2500
C33_11 C 0.2500 0.8174(3) 0.2500
C34_8 C 0.2647(4) 0.7853(3) 0.23540(11)
H18_8 H 0.2767 0.8072 0.2234
H21_8 H 0.2114 0.9683 0.3042
C42_8 C 0.2248(3) 0.99069(18) 0.26510(6)
C43_8 C 0.2241(3) 0.92458(17) 0.26600(7)
H23_8 H 0.2064 0.9028 0.2773
C44_8 C 0.2353(4) 0.7853(3) 0.26460(11)
H24_8 H 0.2233 0.8072 0.2766
O15_8 O 0.0797(2) 0.44043(15) 0.37725(4)
N2_12 N 0.27406(19) -0.0000 1.0000
C32_12 C 0.1398(3) -0.0000 1.0000
C33_12 C 0.0674(3) -0.0000 1.0000
N2_13 N 0.27406(19) 1.0000 0.0000
C32_13 C 0.1398(3) 1.0000 0.0000
C33_13 C 0.0674(3) 1.0000 0.0000
N1_12 N 0.72594(19) -0.0000 1.0000
C10_12 C 0.8602(3) -0.0000 1.0000
C11_12 C 0.9326(3) -0.0000 1.0000
N1_13 N 0.72594(19) 1.0000 0.0000
C10_13 C 0.8602(3) 1.0000 0.0000
C11_13 C 0.9326(3) 1.0000 0.0000
loop_
_geom_bond_atom_site_label_1
_geom_bond_atom_site_label_2
_geom_bond_site_symmetry_1
_geom_bond_site_symmetry_2
Zr1 O1 1_555 1_555
Zr2 O2 1_555 1_555
O1 C1 1_555 1_555
O2 C1 1_555 1_555
O3 Zr1 1_555 1_555
O4 Zr1 1_555 1_555
O5 Zr2 1_555 1_555
N1 C8 1_555 1_555
C1 C2 1_555 1_555
C2 C3 1_555 1_555
C3 H1 1_555 1_555
C4 C3 1_555 1_555
H2 C4 1_555 1_555
C5 C4 1_555 1_555
C6 C5 1_555 1_555
H3 C6 1_555 1_555
C7 C2 1_555 1_555
H4 C7 1_555 1_555
C8 C5 1_555 1_555
C9 C8 1_555 1_555
H5 C9 1_555 1_555
C10 C9 1_555 1_555
C11 C10 1_555 1_555
C12 C11 1_555 1_555
H6 C12 1_555 1_555
O14 Zr1 1_555 1_555
O15 Zr2 1_555 1_555
Zr8 O14 1_555 1_555
Zr11 O3 1_555 1_555
Zr12 O4 1_555 1_555
O17 Zr1 1_555 1_555
O18 Zr1 1_555 1_555
O19 Zr1 1_555 1_555
O20 Zr2 1_555 1_555
O22 Zr1 1_555 1_555
O24 Zr2 1_555 1_555
O27 Zr2 1_555 1_555
Zr2 O3 1_555 1_555
Zr2 O4 1_555 1_555
C6 C7 1_555 1_555
O14 Zr11 1_555 1_555
Zr8 O22 1_555 1_555
Zr11 O27 1_555 1_555
Zr12 O22 1_555 1_555
Zr12 O24 1_555 1_555
C11_2 C10_2 1_555 1_555
O6 C13 1_555 1_555
O7 C13 1_555 1_555
C13 C14 1_555 1_555
C14 C15 1_555 1_555
C15 H7 1_555 1_555
C16 C15 1_555 1_555
H8 C16 1_555 1_555
C17 C16 1_555 1_555
C18 C17 1_555 1_555
H9 C18 1_555 1_555
C19 C14 1_555 1_555
H10 C19 1_555 1_555
C20 N1_2 1_555 1_555
C21 C10_2 1_555 1_555
H11 C21 1_555 1_555
C22 C11_2 1_555 1_555
H12 C22 1_555 1_555
Zr6 O6 1_555 1_555
Zr9 O7 1_555 1_555
C17 C20 1_555 1_555
C18 C19 1_555 1_555
C20 C21 1_555 1_555
C33 C32 1_555 1_555
O18 C35 1_555 1_555
O11 C35 1_555 1_555
C35 C36 1_555 1_555
C36 C37 1_555 1_555
C37 H19 1_555 1_555
C38 C37 1_555 1_555
H20 C38 1_555 1_555
C39 C38 1_555 1_555
C40 C39 1_555 1_555
H21 C40 1_555 1_555
C41 C36 1_555 1_555
H22 C41 1_555 1_555
C42 N2 1_555 1_555
C43 C32 1_555 1_555
H23 C43 1_555 1_555
H24 C44 1_555 1_555
Zr12 O11 1_555 1_555
O13 Zr12 1_555 1_555
O16 Zr12 1_555 1_555
O21 Zr12 1_555 1_555
O26 Zr12 1_555 1_555
C33 C44 1_555 1_555
C39 C42 1_555 1_555
C40 C41 1_555 1_555
C42 C43 1_555 1_555
Zr8 O26 1_555 1_555
O8 C23 1_555 1_555
O9 C23 1_555 1_555
N2_2 C30 1_555 1_555
C23 C24 1_555 1_555
C24 C25 1_555 1_555
C25 H13 1_555 1_555
C26 C25 1_555 1_555
H14 C26 1_555 1_555
C27 C26 1_555 1_555
C28 C27 1_555 1_555
H15 C28 1_555 1_555
C29 C24 1_555 1_555
H16 C29 1_555 1_555
C30 C27 1_555 1_555
C31 C30 1_555 1_555
H17 C31 1_555 1_555
C32_2 C31 1_555 1_555
C33_2 C32_2 1_555 1_555
H18 C34 1_555 1_555
Zr6 O8 1_555 1_555
Zr10 O9 1_555 1_555
C28 C29 1_555 1_555
C33_2 C34 1_555 1_555
O3_2 Zr1_2 1_555 1_555
O14_2 Zr1_2 1_555 1_555
Zr8_2 O14_2 1_555 1_555
Zr11_2 O3_2 1_555 1_555
O17_2 Zr1_2 1_555 1_555
O19_2 Zr1_2 1_555 1_555
O22_2 Zr1_2 1_555 1_555
O14_2 Zr11_2 1_555 1_555
Zr8_2 O22_2 1_555 1_555
Zr11_2 O27_2 1_555 1_555
Zr8_2 O26_2 1_555 1_555
Zr1_3 O1_2 1_555 1_555
Zr2_2 O2_2 1_555 1_555
O1_2 C1_2 1_555 1_555
O2_2 C1_2 1_555 1_555
O3_3 Zr1_3 1_555 1_555
O4_2 Zr1_3 1_555 1_555
O5_2 Zr2_2 1_555 1_555
C1_2 C2_2 1_555 1_555
C2_2 C3_2 1_555 1_555
C3_2 H1_2 1_555 1_555
C4_2 C3_2 1_555 1_555
H2_2 C4_2 1_555 1_555
C5_2 C4_2 1_555 1_555
C6_2 C5_2 1_555 1_555
C7_2 C2_2 1_555 1_555
H4_2 C7_2 1_555 1_555
O6_2 C13_2 1_555 1_555
O7_2 C13_2 1_555 1_555
C13_2 C14_2 1_555 1_555
C14_2 C15_2 1_555 1_555
C15_2 H7_2 1_555 1_555
C16_2 C15_2 1_555 1_555
H8_2 C16_2 1_555 1_555
C17_2 C16_2 1_555 1_555
C18_2 C17_2 1_555 1_555
C19_2 C14_2 1_555 1_555
H10_2 C19_2 1_555 1_555
O15_2 Zr2_2 1_555 1_555
Zr6_2 O6_2 1_555 1_555
Zr8 O7_2 1_555 1_555
Zr12_2 O4_2 1_555 1_555
O18_2 Zr1_3 1_555 1_555
O20_2 Zr2_2 1_555 1_555
O22_3 Zr1_3 1_555 1_555
O24_2 Zr2_2 1_555 1_555
O27_3 Zr2_2 1_555 1_555
Zr2_2 O3_3 1_555 1_555
Zr2_2 O4_2 1_555 1_555
C6_2 C7_2 1_555 1_555
C18_2 C19_2 1_555 1_555
Zr12_2 O22_3 1_555 1_555
Zr12_2 O24_2 1_555 1_555
C9_2 C8_2 1_555 1_555
H5_2 C9_2 1_555 1_555
C10_3 C9_2 1_555 1_555
C11_3 C10_3 1_555 1_555
C12_2 C11_3 1_555 1_555
H6_2 C12_2 1_555 1_555
C21_2 C10_3 1_555 1_555
H11_2 C21_2 1_555 1_555
C22_2 C11_3 1_555 1_555
H12_2 C22_2 1_555 1_555
O8_2 C23_2 1_555 1_555
O21 C23_2 1_555 1_555
N2_3 C30_2 1_555 1_555
C23_2 C24_2 1_555 1_555
C24_2 C25_2 1_555 1_555
C25_2 H13_2 1_555 1_555
C26_2 C25_2 1_555 1_555
H14_2 C26_2 1_555 1_555
C27_2 C26_2 1_555 1_555
C28_2 C27_2 1_555 1_555
H15_2 C28_2 1_555 1_555
C29_2 C24_2 1_555 1_555
H16_2 C29_2 1_555 1_555
C30_2 C27_2 1_555 1_555
C31_2 C30_2 1_555 1_555
H17_2 C31_2 1_555 1_555
C32_3 C31_2 1_555 1_555
C33_3 C32_3 1_555 1_555
C34_2 C22_2 1_555 1_555
H18_2 C34_2 1_555 1_555
O18_2 C35_2 1_555 1_555
O11_2 C35_2 1_555 1_555
C35_2 C36_2 1_555 1_555
C36_2 C37_2 1_555 1_555
C37_2 H19_2 1_555 1_555
C38_2 C37_2 1_555 1_555
H20_2 C38_2 1_555 1_555
C39_2 C38_2 1_555 1_555
C40_2 C39_2 1_555 1_555
H21_2 C40_2 1_555 1_555
C41_2 C36_2 1_555 1_555
H22_2 C41_2 1_555 1_555
C42_2 N2_3 1_555 1_555
C43_2 C32_3 1_555 1_555
H23_2 C43_2 1_555 1_555
C44_2 C12_2 1_555 1_555
H24_2 C44_2 1_555 1_555
Zr12_2 O11_2 1_555 1_555
O13_2 Zr12_2 1_555 1_555
O16_2 Zr12_2 1_555 1_555
Zr6_2 O8_2 1_555 1_555
O21_2 Zr12_2 1_555 1_555
O26_3 Zr12_2 1_555 1_555
C20_2 C21_2 1_555 1_555
C28_2 C29_2 1_555 1_555
C33_3 C34_2 1_555 1_555
C33_3 C44_2 1_555 1_555
C39_2 C42_2 1_555 1_555
C40_2 C41_2 1_555 1_555
C42_2 C43_2 1_555 1_555
C33_4 C32_4 1_555 1_555
O19 C35_3 1_555 1_555
O11_3 C35_3 1_555 1_555
C35_3 C36_3 1_555 1_555
C36_3 C37_3 1_555 1_555
C37_3 H19_3 1_555 1_555
C38_3 C37_3 1_555 1_555
H20_3 C38_3 1_555 1_555
C39_3 C38_3 1_555 1_555
C40_3 C39_3 1_555 1_555
H21_3 C40_3 1_555 1_555
C41_3 C36_3 1_555 1_555
H22_3 C41_3 1_555 1_555
C42_3 N2_4 1_555 1_555
C43_3 C32_4 1_555 1_555
H23_3 C43_3 1_555 1_555
H24_3 C44_3 1_555 1_555
Zr11 O11_3 1_555 1_555
O13_3 Zr11 1_555 1_555
O16_3 Zr11 1_555 1_555
O21_3 Zr11 1_555 1_555
O23 Zr11 1_555 1_555
C33_4 C44_3 1_555 1_555
C39_3 C42_3 1_555 1_555
C40_3 C41_3 1_555 1_555
C42_3 C43_3 1_555 1_555
O8_3 C23_3 1_555 1_555
O9_2 C23_3 1_555 1_555
N2_5 C30_3 1_555 1_555
C23_3 C24_3 1_555 1_555
C24_3 C25_3 1_555 1_555
C25_3 H13_3 1_555 1_555
C26_3 C25_3 1_555 1_555
H14_3 C26_3 1_555 1_555
C27_3 C26_3 1_555 1_555
C28_3 C27_3 1_555 1_555
H15_3 C28_3 1_555 1_555
C29_3 C24_3 1_555 1_555
H16_3 C29_3 1_555 1_555
C30_3 C27_3 1_555 1_555
C31_3 C30_3 1_555 1_555
H17_3 C31_3 1_555 1_555
C32_5 C31_3 1_555 1_555
C33_5 C32_5 1_555 1_555
H18_3 C34_3 1_555 1_555
Zr6 O8_3 1_555 1_555
Zr10_2 O9_2 1_555 1_555
C28_3 C29_3 1_555 1_555
C33_5 C34_3 1_555 1_555
Zr8 O2_3 1_555 1_555
O17 C1_3 1_555 1_555
O2_3 C1_3 1_555 1_555
O5_3 Zr8 1_555 1_555
N1_4 C8_3 1_555 1_555
C1_3 C2_3 1_555 1_555
C2_3 C3_3 1_555 1_555
C3_3 H1_3 1_555 1_555
C4_3 C3_3 1_555 1_555
H2_3 C4_3 1_555 1_555
C5_3 C4_3 1_555 1_555
C6_3 C5_3 1_555 1_555
H3_3 C6_3 1_555 1_555
C7_3 C2_3 1_555 1_555
H4_3 C7_3 1_555 1_555
C8_3 C5_3 1_555 1_555
C9_3 C8_3 1_555 1_555
H5_3 C9_3 1_555 1_555
C10_4 C9_3 1_555 1_555
C11_4 C10_4 1_555 1_555
C12_3 C11_4 1_555 1_555
H6_3 C12_3 1_555 1_555
O15_3 Zr8 1_555 1_555
O23 Zr8 1_555 1_555
C6_3 C7_3 1_555 1_555
C11_5 C10_5 1_555 1_555
O6_3 C13_3 1_555 1_555
O7_3 C13_3 1_555 1_555
C13_3 C14_3 1_555 1_555
C14_3 C15_3 1_555 1_555
C15_3 H7_3 1_555 1_555
C16_3 C15_3 1_555 1_555
H8_3 C16_3 1_555 1_555
C17_3 C16_3 1_555 1_555
C18_3 C17_3 1_555 1_555
H9_3 C18_3 1_555 1_555
C19_3 C14_3 1_555 1_555
H10_3 C19_3 1_555 1_555
C20_3 N1_5 1_555 1_555
C21_3 C10_5 1_555 1_555
H11_3 C21_3 1_555 1_555
C22_3 C11_5 1_555 1_555
H12_3 C22_3 1_555 1_555
Zr6 O6_3 1_555 1_555
Zr9_2 O7_3 1_555 1_555
C17_3 C20_3 1_555 1_555
C18_3 C19_3 1_555 1_555
C20_3 C21_3 1_555 1_555
C9_4 C8_4 1_555 1_555
H5_4 C9_4 1_555 1_555
C10_6 C9_4 1_555 1_555
C11_6 C10_6 1_555 1_555
C12_4 C11_6 1_555 1_555
H6_4 C12_4 1_555 1_555
C21_4 C10_6 1_555 1_555
H11_4 C21_4 1_555 1_555
C22_4 C11_6 1_555 1_555
H12_4 C22_4 1_555 1_555
O8_4 C23_4 1_555 1_555
O9_3 C23_4 1_555 1_555
N2_6 C30_4 1_555 1_555
C23_4 C24_4 1_555 1_555
C24_4 C25_4 1_555 1_555
C25_4 H13_4 1_555 1_555
C26_4 C25_4 1_555 1_555
H14_4 C26_4 1_555 1_555
C27_4 C26_4 1_555 1_555
C28_4 C27_4 1_555 1_555
H15_4 C28_4 1_555 1_555
C29_4 C24_4 1_555 1_555
H16_4 C29_4 1_555 1_555
C30_4 C27_4 1_555 1_555
C31_4 C30_4 1_555 1_555
H17_4 C31_4 1_555 1_555
C32_6 C31_4 1_555 1_555
C33_6 C32_6 1_555 1_555
C34_4 C22_4 1_555 1_555
H18_4 C34_4 1_555 1_555
O10 C35_4 1_555 1_555
O11_4 C35_4 1_555 1_555
C35_4 C36_4 1_555 1_555
C36_4 C37_4 1_555 1_555
C37_4 H19_4 1_555 1_555
C38_4 C37_4 1_555 1_555
H20_4 C38_4 1_555 1_555
C39_4 C38_4 1_555 1_555
C40_4 C39_4 1_555 1_555
H21_4 C40_4 1_555 1_555
C41_4 C36_4 1_555 1_555
H22_4 C41_4 1_555 1_555
C42_4 N2_6 1_555 1_555
C43_4 C32_6 1_555 1_555
H23_4 C43_4 1_555 1_555
C44_4 C12_4 1_555 1_555
H24_4 C44_4 1_555 1_555
O12 Zr10 1_555 1_555
Zr10 O11_4 1_555 1_555
O13_4 Zr10 1_555 1_555
O16_4 Zr10 1_555 1_555
Zr4 O10 1_555 1_555
Zr5_2 O8_4 1_555 1_555
Zr9 O12 1_555 1_555
Zr10_3 O9_3 1_555 1_555
O23_2 Zr10 1_555 1_555
O25 Zr10 1_555 1_555
O26_4 Zr10 1_555 1_555
C20_4 C21_4 1_555 1_555
C28_4 C29_4 1_555 1_555
C33_6 C34_4 1_555 1_555
C33_6 C44_4 1_555 1_555
C39_4 C42_4 1_555 1_555
C40_4 C41_4 1_555 1_555
C42_4 C43_4 1_555 1_555
O12 Zr4 1_555 1_555
Zr4 O25 1_555 1_555
Zr9 O26_4 1_555 1_555
Zr4 O1_3 1_555 1_555
Zr9_2 O2_4 1_555 1_555
O1_3 C1_4 1_555 1_555
O2_4 C1_4 1_555 1_555
O3_4 Zr4 1_555 1_555
O5_4 Zr9_2 1_555 1_555
C1_4 C2_4 1_555 1_555
C2_4 C3_4 1_555 1_555
C3_4 H1_4 1_555 1_555
C4_4 C3_4 1_555 1_555
H2_4 C4_4 1_555 1_555
C5_4 C4_4 1_555 1_555
C6_4 C5_4 1_555 1_555
C7_4 C2_4 1_555 1_555
H4_4 C7_4 1_555 1_555
O6_4 C13_4 1_555 1_555
O7_4 C13_4 1_555 1_555
C13_4 C14_4 1_555 1_555
C14_4 C15_4 1_555 1_555
C15_4 H7_4 1_555 1_555
C16_4 C15_4 1_555 1_555
H8_4 C16_4 1_555 1_555
C17_4 C16_4 1_555 1_555
C18_4 C17_4 1_555 1_555
C19_4 C14_4 1_555 1_555
H10_4 C19_4 1_555 1_555
O14_3 Zr4 1_555 1_555
O15_4 Zr9_2 1_555 1_555
Zr5_2 O6_4 1_555 1_555
Zr9 O14_3 1_555 1_555
Zr9_3 O7_4 1_555 1_555
Zr10_2 O3_4 1_555 1_555
O17_3 Zr4 1_555 1_555
O19_3 Zr4 1_555 1_555
O23_2 Zr9_2 1_555 1_555
O27_4 Zr9_2 1_555 1_555
Zr9_2 O3_4 1_555 1_555
Zr9_2 O25 1_555 1_555
C6_4 C7_4 1_555 1_555
C18_4 C19_4 1_555 1_555
O14_3 Zr10_2 1_555 1_555
Zr10_2 O27_4 1_555 1_555
O3_5 Zr6 1_555 1_555
O26_4 Zr6 1_555 1_555
O5_5 Zr9 1_555 1_555
O27_4 Zr6 1_555 1_555
O15_5 Zr9 1_555 1_555
Zr10_2 O3_5 1_555 1_555
O20_3 Zr9 1_555 1_555
O23_2 Zr6 1_555 1_555
Zr9 O3_5 1_555 1_555
O13_5 Zr10_2 1_555 1_555
O16_5 Zr10_2 1_555 1_555
O21_4 Zr10_2 1_555 1_555
O23 Zr6_2 1_555 1_555
O26 Zr6_2 1_555 1_555
O27 Zr6_2 1_555 1_555
O17_4 Zr6_2 1_555 1_555
O19_4 Zr6_2 1_555 1_555
O24 Zr6_2 1_555 1_555
Zr7 O12_2 1_555 1_555
O12_2 Zr5 1_555 1_555
Zr7 O26_5 1_555 1_555
O3_6 Zr5 1_555 1_555
O14_4 Zr5 1_555 1_555
Zr7 O14_4 1_555 1_555
Zr11_3 O3_6 1_555 1_555
O17_5 Zr5 1_555 1_555
O19_5 Zr5 1_555 1_555
O14_4 Zr11_3 1_555 1_555
Zr11_3 O27_5 1_555 1_555
O12_3 Zr10_3 1_555 1_555
O13_6 Zr10_3 1_555 1_555
O16_6 Zr10_3 1_555 1_555
O21_5 Zr10_3 1_555 1_555
O23_3 Zr10_3 1_555 1_555
O25_2 Zr10_3 1_555 1_555
O26_6 Zr10_3 1_555 1_555
O12_3 Zr5_2 1_555 1_555
Zr5_2 O25_2 1_555 1_555
O3_7 Zr5_2 1_555 1_555
O5_6 Zr9_3 1_555 1_555
O15_6 Zr9_3 1_555 1_555
O20_4 Zr9_3 1_555 1_555
O23_3 Zr9_3 1_555 1_555
O27_6 Zr9_3 1_555 1_555
Zr9_3 O3_7 1_555 1_555
Zr9_3 O25_2 1_555 1_555
O27_5 Zr1_4 1_555 1_555
O26_5 Zr1_4 1_555 1_555
O17_6 Zr1_4 1_555 1_555
O18_3 Zr1_4 1_555 1_555
O22_4 Zr1_4 1_555 1_555
Zr7 O22_4 1_555 1_555
Zr11_3 O22_4 1_555 1_555
C11_7 C10_7 1_555 1_555
O6_5 C13_5 1_555 1_555
O20_2 C13_5 1_555 1_555
C13_5 C14_5 1_555 1_555
C14_5 C15_5 1_555 1_555
C15_5 H7_5 1_555 1_555
C16_5 C15_5 1_555 1_555
H8_5 C16_5 1_555 1_555
C17_5 C16_5 1_555 1_555
C18_5 C17_5 1_555 1_555
H9_5 C18_5 1_555 1_555
C19_5 C14_5 1_555 1_555
H10_5 C19_5 1_555 1_555
C20_5 N1_7 1_555 1_555
C21_5 C10_7 1_555 1_555
H11_5 C21_5 1_555 1_555
C22_5 C11_7 1_555 1_555
H12_5 C22_5 1_555 1_555
O8_5 C23_5 1_555 1_555
O9_4 C23_5 1_555 1_555
N2_7 C30_5 1_555 1_555
C23_5 C24_5 1_555 1_555
C24_5 C25_5 1_555 1_555
C25_5 H13_5 1_555 1_555
C26_5 C25_5 1_555 1_555
H14_5 C26_5 1_555 1_555
C27_5 C26_5 1_555 1_555
C28_5 C27_5 1_555 1_555
H15_5 C28_5 1_555 1_555
C29_5 C24_5 1_555 1_555
H16_5 C29_5 1_555 1_555
C30_5 C27_5 1_555 1_555
C31_5 C30_5 1_555 1_555
H17_5 C31_5 1_555 1_555
C32_7 C31_5 1_555 1_555
C33_7 C32_7 1_555 1_555
C34_5 C22_5 1_555 1_555
H18_5 C34_5 1_555 1_555
Zr6_3 O8_5 1_555 1_555
Zr6_4 O6_5 1_555 1_555
Zr11_2 O9_4 1_555 1_555
C17_5 C20_5 1_555 1_555
C18_5 C19_5 1_555 1_555
C20_5 C21_5 1_555 1_555
C28_5 C29_5 1_555 1_555
C33_7 C34_5 1_555 1_555
Zr1_5 O1_4 1_555 1_555
O1_4 C1_5 1_555 1_555
O20_4 C1_5 1_555 1_555
O23_3 Zr1_5 1_555 1_555
O27_6 Zr1_5 1_555 1_555
N1_8 C8_5 1_555 1_555
C1_5 C2_5 1_555 1_555
C2_5 C3_5 1_555 1_555
C3_5 H1_5 1_555 1_555
C4_5 C3_5 1_555 1_555
H2_5 C4_5 1_555 1_555
C5_5 C4_5 1_555 1_555
C6_5 C5_5 1_555 1_555
H3_5 C6_5 1_555 1_555
C7_5 C2_5 1_555 1_555
H4_5 C7_5 1_555 1_555
C8_5 C5_5 1_555 1_555
C9_5 C8_5 1_555 1_555
H5_5 C9_5 1_555 1_555
C10_8 C9_5 1_555 1_555
C11_8 C10_8 1_555 1_555
C12_5 C11_8 1_555 1_555
H6_5 C12_5 1_555 1_555
C33_8 C32_8 1_555 1_555
O18_3 C35_5 1_555 1_555
O11_5 C35_5 1_555 1_555
C35_5 C36_5 1_555 1_555
C36_5 C37_5 1_555 1_555
C37_5 H19_5 1_555 1_555
C38_5 C37_5 1_555 1_555
H20_5 C38_5 1_555 1_555
C39_5 C38_5 1_555 1_555
C40_5 C39_5 1_555 1_555
H21_5 C40_5 1_555 1_555
C41_5 C36_5 1_555 1_555
H22_5 C41_5 1_555 1_555
C42_5 N2_8 1_555 1_555
C43_5 C32_8 1_555 1_555
H23_5 C43_5 1_555 1_555
C44_5 C12_5 1_555 1_555
H24_5 C44_5 1_555 1_555
Zr11_3 O11_5 1_555 1_555
O13_7 Zr11_3 1_555 1_555
O26_6 Zr1_5 1_555 1_555
O16_7 Zr11_3 1_555 1_555
O19_6 Zr1_5 1_555 1_555
O21_6 Zr11_3 1_555 1_555
C6_5 C7_5 1_555 1_555
C33_8 C44_5 1_555 1_555
C39_5 C42_5 1_555 1_555
C40_5 C41_5 1_555 1_555
C42_5 C43_5 1_555 1_555
O17_3 C1_6 1_555 1_555
O20_3 C1_6 1_555 1_555
N1_9 C8_6 1_555 1_555
C1_6 C2_6 1_555 1_555
C2_6 C3_6 1_555 1_555
C3_6 H1_6 1_555 1_555
C4_6 C3_6 1_555 1_555
H2_6 C4_6 1_555 1_555
C5_6 C4_6 1_555 1_555
C6_6 C5_6 1_555 1_555
H3_6 C6_6 1_555 1_555
C7_6 C2_6 1_555 1_555
H4_6 C7_6 1_555 1_555
C8_6 C5_6 1_555 1_555
C9_6 C8_6 1_555 1_555
H5_6 C9_6 1_555 1_555
C10_9 C9_6 1_555 1_555
C11_9 C10_9 1_555 1_555
C12_6 C11_9 1_555 1_555
H6_6 C12_6 1_555 1_555
O17_5 C13_6 1_555 1_555
O7_5 C13_6 1_555 1_555
C13_6 C14_6 1_555 1_555
C14_6 C15_6 1_555 1_555
C15_6 H7_6 1_555 1_555
C16_6 C15_6 1_555 1_555
H8_6 C16_6 1_555 1_555
C17_6 C16_6 1_555 1_555
C18_6 C17_6 1_555 1_555
H9_6 C18_6 1_555 1_555
C19_6 C14_6 1_555 1_555
H10_6 C19_6 1_555 1_555
C20_6 N1_9 1_555 1_555
C21_6 C10_9 1_555 1_555
H11_6 C21_6 1_555 1_555
C22_6 C11_9 1_555 1_555
H12_6 C22_6 1_555 1_555
C31_6 C30_6 1_555 1_555
H17_6 C31_6 1_555 1_555
C32_9 C31_6 1_555 1_555
C33_9 C32_9 1_555 1_555
C34_6 C22_6 1_555 1_555
H18_6 C34_6 1_555 1_555
C43_6 C32_9 1_555 1_555
H23_6 C43_6 1_555 1_555
C44_6 C12_6 1_555 1_555
H24_6 C44_6 1_555 1_555
Zr7 O7_5 1_555 1_555
C6_6 C7_6 1_555 1_555
C17_6 C20_6 1_555 1_555
C18_6 C19_6 1_555 1_555
C20_6 C21_6 1_555 1_555
C33_9 C34_6 1_555 1_555
C33_9 C44_6 1_555 1_555
C42_6 C43_6 1_555 1_555
O19_5 C23_6 1_555 1_555
O21_6 C23_6 1_555 1_555
C23_6 C24_6 1_555 1_555
C24_6 C25_6 1_555 1_555
C25_6 H13_6 1_555 1_555
C26_6 C25_6 1_555 1_555
H14_6 C26_6 1_555 1_555
C27_6 C26_6 1_555 1_555
C28_6 C27_6 1_555 1_555
C29_6 C24_6 1_555 1_555
H16_6 C29_6 1_555 1_555
O19_3 C35_6 1_555 1_555
O21_4 C35_6 1_555 1_555
C35_6 C36_6 1_555 1_555
C36_6 C37_6 1_555 1_555
C37_6 H19_6 1_555 1_555
C38_6 C37_6 1_555 1_555
H20_6 C38_6 1_555 1_555
C39_6 C38_6 1_555 1_555
C40_6 C39_6 1_555 1_555
C41_6 C36_6 1_555 1_555
H22_6 C41_6 1_555 1_555
C28_6 C29_6 1_555 1_555
C40_6 C41_6 1_555 1_555
Zr7 O2_5 1_555 1_555
O17_6 C1_7 1_555 1_555
O2_5 C1_7 1_555 1_555
O5_7 Zr7 1_555 1_555
N1_10 C8_7 1_555 1_555
C1_7 C2_7 1_555 1_555
C2_7 C3_7 1_555 1_555
C3_7 H1_7 1_555 1_555
C4_7 C3_7 1_555 1_555
H2_7 C4_7 1_555 1_555
C5_7 C4_7 1_555 1_555
C6_7 C5_7 1_555 1_555
H3_7 C6_7 1_555 1_555
C7_7 C2_7 1_555 1_555
H4_7 C7_7 1_555 1_555
C8_7 C5_7 1_555 1_555
C9_7 C8_7 1_555 1_555
H5_7 C9_7 1_555 1_555
C10_10 C9_7 1_555 1_555
C11_10 C10_10 1_555 1_555
C12_7 C11_10 1_555 1_555
H6_7 C12_7 1_555 1_555
O6_6 C13_7 1_555 1_555
O7_6 C13_7 1_555 1_555
C13_7 C14_7 1_555 1_555
C14_7 C15_7 1_555 1_555
C15_7 H7_7 1_555 1_555
C16_7 C15_7 1_555 1_555
H8_7 C16_7 1_555 1_555
C17_7 C16_7 1_555 1_555
C18_7 C17_7 1_555 1_555
H9_7 C18_7 1_555 1_555
C19_7 C14_7 1_555 1_555
H10_7 C19_7 1_555 1_555
C20_7 N1_10 1_555 1_555
C21_7 C10_10 1_555 1_555
H11_7 C21_7 1_555 1_555
C22_7 C11_10 1_555 1_555
H12_7 C22_7 1_555 1_555
O8_6 C23_7 1_555 1_555
O21_2 C23_7 1_555 1_555
N2_10 C30_7 1_555 1_555
C23_7 C24_7 1_555 1_555
C24_7 C25_7 1_555 1_555
C25_7 H13_7 1_555 1_555
C26_7 C25_7 1_555 1_555
H14_7 C26_7 1_555 1_555
C27_7 C26_7 1_555 1_555
C28_7 C27_7 1_555 1_555
H15_7 C28_7 1_555 1_555
C29_7 C24_7 1_555 1_555
H16_7 C29_7 1_555 1_555
C30_7 C27_7 1_555 1_555
C31_7 C30_7 1_555 1_555
H17_7 C31_7 1_555 1_555
C32_10 C31_7 1_555 1_555
C33_10 C32_10 1_555 1_555
C34_7 C22_7 1_555 1_555
H18_7 C34_7 1_555 1_555
O19_6 C35_7 1_555 1_555
O21_5 C35_7 1_555 1_555
C35_7 C36_7 1_555 1_555
C36_7 C37_7 1_555 1_555
C37_7 H19_7 1_555 1_555
C38_7 C37_7 1_555 1_555
H20_7 C38_7 1_555 1_555
C39_7 C38_7 1_555 1_555
C40_7 C39_7 1_555 1_555
H21_7 C40_7 1_555 1_555
C41_7 C36_7 1_555 1_555
H22_7 C41_7 1_555 1_555
C42_7 N2_10 1_555 1_555
C43_7 C32_10 1_555 1_555
H23_7 C43_7 1_555 1_555
C44_7 C12_7 1_555 1_555
H24_7 C44_7 1_555 1_555
O15_7 Zr7 1_555 1_555
Zr6_4 O8_6 1_555 1_555
Zr6_3 O6_6 1_555 1_555
Zr8_2 O7_6 1_555 1_555
C6_7 C7_7 1_555 1_555
C17_7 C20_7 1_555 1_555
C18_7 C19_7 1_555 1_555
C20_7 C21_7 1_555 1_555
C28_7 C29_7 1_555 1_555
C33_10 C34_7 1_555 1_555
C33_10 C44_7 1_555 1_555
C39_7 C42_7 1_555 1_555
C40_7 C41_7 1_555 1_555
C42_7 C43_7 1_555 1_555
O19_4 C23_8 1_555 1_555
O21_3 C23_8 1_555 1_555
C23_8 C24_8 1_555 1_555
C24_8 C25_8 1_555 1_555
C25_8 H13_8 1_555 1_555
C26_8 C25_8 1_555 1_555
H14_8 C26_8 1_555 1_555
C27_8 C26_8 1_555 1_555
C28_8 C27_8 1_555 1_555
C29_8 C24_8 1_555 1_555
H16_8 C29_8 1_555 1_555
O19_2 C35_8 1_555 1_555
O11_6 C35_8 1_555 1_555
C35_8 C36_8 1_555 1_555
C36_8 C37_8 1_555 1_555
C37_8 H19_8 1_555 1_555
C38_8 C37_8 1_555 1_555
H20_8 C38_8 1_555 1_555
C39_8 C38_8 1_555 1_555
C40_8 C39_8 1_555 1_555
C41_8 C36_8 1_555 1_555
H22_8 C41_8 1_555 1_555
Zr11_2 O11_6 1_555 1_555
O13_8 Zr11_2 1_555 1_555
O16_8 Zr11_2 1_555 1_555
O23_4 Zr11_2 1_555 1_555
C28_8 C29_8 1_555 1_555
C40_8 C41_8 1_555 1_555
Zr8_2 O2_6 1_555 1_555
O17_2 C1_8 1_555 1_555
O2_6 C1_8 1_555 1_555
O5_8 Zr8_2 1_555 1_555
N1_11 C8_8 1_555 1_555
C1_8 C2_8 1_555 1_555
C2_8 C3_8 1_555 1_555
C3_8 H1_8 1_555 1_555
C4_8 C3_8 1_555 1_555
H2_8 C4_8 1_555 1_555
C5_8 C4_8 1_555 1_555
C6_8 C5_8 1_555 1_555
H3_8 C6_8 1_555 1_555
C7_8 C2_8 1_555 1_555
H4_8 C7_8 1_555 1_555
C8_8 C5_8 1_555 1_555
C9_8 C8_8 1_555 1_555
H5_8 C9_8 1_555 1_555
C10_11 C9_8 1_555 1_555
C11_11 C10_11 1_555 1_555
C12_8 C11_11 1_555 1_555
H6_8 C12_8 1_555 1_555
O17_4 C13_8 1_555 1_555
O20 C13_8 1_555 1_555
C13_8 C14_8 1_555 1_555
C14_8 C15_8 1_555 1_555
C15_8 H7_8 1_555 1_555
C16_8 C15_8 1_555 1_555
H8_8 C16_8 1_555 1_555
C17_8 C16_8 1_555 1_555
C18_8 C17_8 1_555 1_555
H9_8 C18_8 1_555 1_555
C19_8 C14_8 1_555 1_555
H10_8 C19_8 1_555 1_555
C20_8 N1_11 1_555 1_555
C21_8 C10_11 1_555 1_555
H11_8 C21_8 1_555 1_555
C22_8 C11_11 1_555 1_555
H12_8 C22_8 1_555 1_555
C31_8 C30_8 1_555 1_555
H17_8 C31_8 1_555 1_555
C32_11 C31_8 1_555 1_555
C33_11 C32_11 1_555 1_555
C34_8 C22_8 1_555 1_555
H18_8 C34_8 1_555 1_555
C43_8 C32_11 1_555 1_555
H23_8 C43_8 1_555 1_555
C44_8 C12_8 1_555 1_555
H24_8 C44_8 1_555 1_555
O15_8 Zr8_2 1_555 1_555
O23_4 Zr8_2 1_555 1_555
C6_8 C7_8 1_555 1_555
C17_8 C20_8 1_555 1_555
C18_8 C19_8 1_555 1_555
C20_8 C21_8 1_555 1_555
C33_11 C34_8 1_555 1_555
C33_11 C44_8 1_555 1_555
C42_8 C43_8 1_555 1_555
O27_2 Zr6_3 1_555 1_555
O26_2 Zr6_3 1_555 1_555
O23_4 Zr6_3 1_555 1_555
O24_2 Zr6_4 1_555 1_555
O27_3 Zr6_4 1_555 1_555
O26_3 Zr6_4 1_555 1_555
C33_12 C32_12 1_555 1_555
C33_13 C32_13 1_555 1_555
C11_12 C10_12 1_555 1_555
C11_13 C10_13 1_555 1_555

#END
