
###############################################################################
#
# This file contains modified crystal structure data generated from the
# MOF subset of the Cambridge Structural Database (CSD) v543 
# hosted by the Cambridge Crystallographic Data Centre (CCDC).
#
# This work is licensed under the Creative Commons
# Attribution-NonCommercial-ShareAlike 4.0 International License.
# To view a copy of this license, visit
# http://creativecommons.org/licenses/by-nc-sa/4.0/
# or send a letter to
# Creative Commons, PO Box 1866, Mountain View, CA 94042, USA.
#
# CIF created using the CSD Python API on 29 September 2022
# The structure has been converted into the P1 space group
# The structure has a 3D framework
# The original CSD entry GAYXEM is in the tetragonal crystal system
# The framework has been calculated to contain at least 10.0% void space
# The void calculation uses a probe of radius 1.32A, grid spacing 0.4
# H atom positions have been added when not included in the experimental data
# Generated hydrogen atom positions removed from atoms on special positions
#
###############################################################################

data_GAYXEM
_chemical_formula_moiety         '(C398 H474 O126 Zr28)n'
_symmetry_cell_setting           triclinic
_symmetry_space_group_name_H-M   'P 1'
_symmetry_Int_Tables_number      1
_space_group_name_Hall           'P 1'
loop_
_symmetry_equiv_pos_site_id
_symmetry_equiv_pos_as_xyz
1 x,y,z
_cell_length_a                   20.7070(3)
_cell_length_b                   20.7070(3)
_cell_length_c                   66.9823(10)
_cell_angle_alpha                90
_cell_angle_beta                 90
_cell_angle_gamma                90
_cell_volume                     28720.7
loop_
_atom_site_label
_atom_site_type_symbol
_atom_site_fract_x
_atom_site_fract_y
_atom_site_fract_z
Zr1 Zr 0.5000 0.7500 0.411422(15)
O1 O 0.4347(3) 0.6857(3) 0.42849(8)
O2 O 0.4272(3) 0.7500 0.39068(9)
O3 O 0.5000 0.6537(3) 0.39485(9)
C1 C 0.3896(5) 0.6501(6) 0.42283(12)
Zr2 Zr 0.41550(3) 0.66550(3) 0.3750
O4 O 0.3709(3) 0.6435(3) 0.40532(8)
C2 C 0.3504(5) 0.6218(7) 0.43878(13)
O5 O 0.3076(5) 0.6755(5) 0.37246(12)
C3 C 0.2947(5) 0.5871(7) 0.43434(16)
C4 C 0.3675(5) 0.6310(7) 0.45849(13)
H1 H 0.2817 0.5823 0.4208
C5 C 0.2584(5) 0.5597(7) 0.44911(15)
C6 C 0.3305(4) 0.5978(6) 0.47307(14)
H2 H 0.4024 0.6584 0.4621
H3 H 0.2196 0.5379 0.4457
C7 C 0.2766(6) 0.5632(8) 0.4686(2)
H4 H 0.3440 0.5999 0.4866
C8 C 0.2387(5) 0.5294(7) 0.48455(17)
C9 C 0.2704(8) 0.5000 0.5000
C10 C 0.1737(5) 0.5276(8) 0.48388(18)
H5 H 0.3163 0.5000 0.5000
H6 H 0.1511 0.5447 0.4727
C11 C 0.1399(8) 0.5000 0.5000
C12 C 0.0676(8) 0.5000 0.5000
C13 C 0.0396(5) 0.4907(8) 0.48024(19)
H7 H 0.0648 0.4852 0.4685
O6 O 0.4347(3) 0.3143(3) 0.57151(8)
C14 C 0.3896(5) 0.3499(6) 0.57717(12)
O7 O 0.3709(3) 0.3565(3) 0.59468(8)
C15 C 0.3504(5) 0.3782(7) 0.56122(13)
C16 C 0.2947(5) 0.4129(7) 0.56566(16)
C17 C 0.3675(5) 0.3690(7) 0.54151(13)
H8 H 0.2817 0.4177 0.5792
C18 C 0.2584(5) 0.4403(7) 0.55089(15)
C19 C 0.3305(4) 0.4022(6) 0.52693(14)
H9 H 0.4024 0.3416 0.5379
H10 H 0.2196 0.4621 0.5543
C20 C 0.2766(6) 0.4368(8) 0.5314(2)
H11 H 0.3440 0.4001 0.5134
C21 C 0.2387(5) 0.4706(7) 0.51545(17)
C22 C 0.1737(5) 0.4724(8) 0.51612(18)
H12 H 0.1511 0.4553 0.5273
C23 C 0.0396(5) 0.5093(8) 0.51976(19)
H13 H 0.0648 0.5148 0.5315
O14 O 0.5000 0.8463(3) 0.39485(9)
O15 O 0.4255(5) 0.5576(5) 0.37754(12)
Zr6 Zr 0.5000 0.2500 0.588578(15)
O17 O 0.5653(3) 0.8143(3) 0.42849(8)
O18 O 0.5653(3) 0.6857(3) 0.42849(8)
O19 O 0.4347(3) 0.8143(3) 0.42849(8)
O20 O 0.5728(3) 0.7500 0.39068(9)
O22 O 0.5000 0.6772(3) 0.35932(9)
O25 O 0.4037(3) 0.7500 0.35515(9)
Zr8 Zr 0.58450(3) 0.83450(3) 0.3750
Zr9 Zr 0.41550(3) 0.33450(3) 0.6250
Zr11 Zr 0.41550(3) 0.83450(3) 0.3750
Zr12 Zr 0.58450(3) 0.66550(3) 0.3750
O26 O 0.3935(3) 0.6209(3) 0.34468(8)
O8 O 0.5653(3) 0.3143(3) 0.57151(8)
C24 C 0.6104(5) 0.3499(6) 0.57717(12)
O9 O 0.6291(3) 0.3565(3) 0.59468(8)
C25 C 0.6496(5) 0.3782(7) 0.56122(13)
C26 C 0.7053(5) 0.4129(7) 0.56566(16)
C27 C 0.6325(5) 0.3690(7) 0.54151(13)
H14 H 0.7183 0.4177 0.5792
C28 C 0.7416(5) 0.4403(7) 0.55089(15)
C29 C 0.6695(4) 0.4022(6) 0.52693(14)
H15 H 0.5976 0.3416 0.5379
H16 H 0.7804 0.4621 0.5543
C30 C 0.7234(6) 0.4368(8) 0.5314(2)
H17 H 0.6560 0.4001 0.5134
C31 C 0.7613(5) 0.4706(7) 0.51545(17)
C32 C 0.7296(8) 0.5000 0.5000
C33 C 0.8263(5) 0.4724(8) 0.51612(18)
H18 H 0.6837 0.5000 0.5000
H19 H 0.8489 0.4553 0.5273
C34 C 0.8601(8) 0.5000 0.5000
C35 C 0.9324(8) 0.5000 0.5000
C36 C 0.9604(5) 0.5093(8) 0.51976(19)
H20 H 0.9352 0.5148 0.5315
C37 C 0.6104(5) 0.6501(6) 0.42283(12)
O11 O 0.6291(3) 0.6435(3) 0.40532(8)
C38 C 0.6496(5) 0.6218(7) 0.43878(13)
C39 C 0.7053(5) 0.5871(7) 0.43434(16)
C40 C 0.6325(5) 0.6310(7) 0.45849(13)
H21 H 0.7183 0.5823 0.4208
C41 C 0.7416(5) 0.5597(7) 0.44911(15)
C42 C 0.6695(4) 0.5978(6) 0.47307(14)
H22 H 0.5976 0.6584 0.4621
H23 H 0.7804 0.5379 0.4457
C43 C 0.7234(6) 0.5632(8) 0.4686(2)
H24 H 0.6560 0.5999 0.4866
C44 C 0.7613(5) 0.5294(7) 0.48455(17)
C45 C 0.8263(5) 0.5276(8) 0.48388(18)
H25 H 0.8489 0.5447 0.4727
C46 C 0.9604(5) 0.4907(8) 0.48024(19)
H26 H 0.9352 0.4852 0.4685
O13 O 0.6924(5) 0.6755(5) 0.37246(12)
O16 O 0.5745(5) 0.5576(5) 0.37754(12)
O24 O 0.5963(3) 0.7500 0.35515(9)
Zr10 Zr 0.58450(3) 0.33450(3) 0.6250
O27 O 0.6065(3) 0.6209(3) 0.34468(8)
Zr6_2 Zr -0.0000 0.2500 0.838578(15)
Zr1_2 Zr 0.5000 0.2500 0.661422(15)
O1_2 O 0.5643(3) 0.1847(3) 0.67849(8)
O2_2 O 0.5000 0.1772(3) 0.64068(9)
O3_2 O 0.5963(3) 0.2500 0.64485(9)
C1_2 C 0.5999(6) 0.1396(5) 0.67283(12)
Zr2_2 Zr 0.58450(3) 0.16550(3) 0.6250
O4_2 O 0.6065(3) 0.1209(3) 0.65532(8)
C2_2 C 0.6282(7) 0.1004(5) 0.68878(13)
O5_2 O 0.5745(5) 0.0576(5) 0.62246(12)
C3_2 C 0.6629(7) 0.0447(5) 0.68434(16)
C4_2 C 0.6190(7) 0.1175(5) 0.70849(13)
H1_2 H 0.6677 0.0317 0.6708
C5_2 C 0.6903(7) 0.0084(5) 0.69911(15)
C6_2 C 0.6522(6) 0.0805(4) 0.72307(14)
H2_2 H 0.5916 0.1524 0.7121
C7_2 C 0.6868(8) 0.0266(6) 0.7186(2)
H4_2 H 0.6501 0.0940 0.7366
C9_2 C 0.7500 0.0204(8) 0.7500
H5_2 H 0.7500 0.0663 0.7500
O6_2 O 0.9357(3) 0.1847(3) 0.82151(8)
C14_2 C 0.9001(6) 0.1396(5) 0.82717(12)
O7_2 O 0.8935(3) 0.1209(3) 0.84468(8)
C15_2 C 0.8718(7) 0.1004(5) 0.81122(13)
C16_2 C 0.8371(7) 0.0447(5) 0.81566(16)
C17_2 C 0.8810(7) 0.1175(5) 0.79151(13)
H8_2 H 0.8323 0.0317 0.8292
C18_2 C 0.8097(7) 0.0084(5) 0.80089(15)
C19_2 C 0.8478(6) 0.0805(4) 0.77693(14)
H9_2 H 0.9084 0.1524 0.7879
C20_2 C 0.8132(8) 0.0266(6) 0.7814(2)
H11_2 H 0.8499 0.0940 0.7634
O14_2 O 0.4037(3) 0.2500 0.64485(9)
O15_2 O 0.6924(5) 0.1755(5) 0.62754(12)
Zr6_3 Zr 1.0000 0.2500 0.838578(15)
O17_2 O 0.4357(3) 0.3153(3) 0.67849(8)
O18_2 O 0.5643(3) 0.3153(3) 0.67849(8)
O19_2 O 0.4357(3) 0.1847(3) 0.67849(8)
O20_2 O 0.5000 0.3228(3) 0.64068(9)
O22_2 O 0.5728(3) 0.2500 0.60932(9)
O25_2 O 0.5000 0.1537(3) 0.60515(9)
Zr9_2 Zr 0.91550(3) 0.16550(3) 0.8750
Zr11_2 Zr 0.41550(3) 0.16550(3) 0.6250
O26_2 O 0.6291(3) 0.1435(3) 0.59468(8)
H3_2 H 0.7121 0.9696 0.6957
C8_2 C 0.7206(7) 0.9887(5) 0.73455(17)
C10_2 C 0.7224(8) 0.9237(5) 0.73388(18)
H6_2 H 0.7053 0.9011 0.7227
C11_2 C 0.7500 0.8899(8) 0.7500
C12_2 C 0.7500 0.8176(8) 0.7500
C13_2 C 0.7593(8) 0.7896(5) 0.73024(19)
H7_2 H 0.7648 0.8148 0.7185
H10_2 H 0.7879 0.9696 0.8043
C21_2 C 0.7794(7) 0.9887(5) 0.76545(17)
C22_2 C 0.7776(8) 0.9237(5) 0.76612(18)
H12_2 H 0.7947 0.9011 0.7773
C23_2 C 0.7407(8) 0.7896(5) 0.76976(19)
H13_2 H 0.7352 0.8148 0.7815
O8_2 O 0.9357(3) 0.3153(3) 0.82151(8)
C24_2 C 0.9001(6) 0.3604(5) 0.82717(12)
O9_2 O 0.8935(3) 0.3791(3) 0.84468(8)
C25_2 C 0.8718(7) 0.3996(5) 0.81122(13)
C26_2 C 0.8371(7) 0.4553(5) 0.81566(16)
C27_2 C 0.8810(7) 0.3825(5) 0.79151(13)
H14_2 H 0.8323 0.4683 0.8292
C28_2 C 0.8097(7) 0.4916(5) 0.80089(15)
C29_2 C 0.8478(6) 0.4195(4) 0.77693(14)
H15_2 H 0.9084 0.3476 0.7879
H16_2 H 0.7879 0.5304 0.8043
C30_2 C 0.8132(8) 0.4734(6) 0.7814(2)
H17_2 H 0.8499 0.4060 0.7634
C31_2 C 0.7794(7) 0.5113(5) 0.76545(17)
C32_2 C 0.7500 0.4796(8) 0.7500
C33_2 C 0.7776(8) 0.5763(5) 0.76612(18)
H18_2 H 0.7500 0.4337 0.7500
H19_2 H 0.7947 0.5989 0.7773
C34_2 C 0.7500 0.6101(8) 0.7500
C35_2 C 0.7500 0.6824(8) 0.7500
C36_2 C 0.7407(8) 0.7104(5) 0.76976(19)
H20_2 H 0.7352 0.6852 0.7815
C37_2 C 0.5999(6) 0.3604(5) 0.67283(12)
O11_2 O 0.6065(3) 0.3791(3) 0.65532(8)
C38_2 C 0.6282(7) 0.3996(5) 0.68878(13)
C39_2 C 0.6629(7) 0.4553(5) 0.68434(16)
C40_2 C 0.6190(7) 0.3825(5) 0.70849(13)
H21_2 H 0.6677 0.4683 0.6708
C41_2 C 0.6903(7) 0.4916(5) 0.69911(15)
C42_2 C 0.6522(6) 0.4195(4) 0.72307(14)
H22_2 H 0.5916 0.3476 0.7121
H23_2 H 0.7121 0.5304 0.6957
C43_2 C 0.6868(8) 0.4734(6) 0.7186(2)
H24_2 H 0.6501 0.4060 0.7366
C44_2 C 0.7206(7) 0.5113(5) 0.73455(17)
C45_2 C 0.7224(8) 0.5763(5) 0.73388(18)
H25_2 H 0.7053 0.5989 0.7227
C46_2 C 0.7593(8) 0.7104(5) 0.73024(19)
H26_2 H 0.7648 0.6852 0.7185
O13_2 O 0.5745(5) 0.4424(5) 0.62246(12)
O16_2 O 0.6924(5) 0.3245(5) 0.62754(12)
O24_2 O 0.5000 0.3463(3) 0.60515(9)
Zr10_2 Zr 0.91550(3) 0.33450(3) 0.8750
O8_3 O 0.4347(3) 0.1857(3) 0.57151(8)
C24_3 C 0.3896(5) 0.1501(6) 0.57717(12)
O9_3 O 0.3709(3) 0.1435(3) 0.59468(8)
C25_3 C 0.3504(5) 0.1218(7) 0.56122(13)
C26_3 C 0.2947(5) 0.0871(7) 0.56566(16)
C27_3 C 0.3675(5) 0.1310(7) 0.54151(13)
H14_3 H 0.2817 0.0823 0.5792
C28_3 C 0.2584(5) 0.0597(7) 0.55089(15)
C29_3 C 0.3305(4) 0.0978(6) 0.52693(14)
H15_3 H 0.4024 0.1584 0.5379
H16_3 H 0.2196 0.0379 0.5543
C30_3 C 0.2766(6) 0.0632(8) 0.5314(2)
H17_3 H 0.3440 0.0999 0.5134
C31_3 C 0.2387(5) 0.0294(7) 0.51545(17)
C32_3 C 0.2704(8) 0.0000 0.5000
C33_3 C 0.1737(5) 0.0276(8) 0.51612(18)
H18_3 H 0.3163 0.0000 0.5000
H19_3 H 0.1511 0.0447 0.5273
C34_3 C 0.1399(8) 0.0000 0.5000
C35_3 C 0.0676(8) 0.0000 0.5000
C46_3 C 0.0396(5) 0.0093(8) 0.48024(19)
H26_3 H 0.0648 0.0148 0.4685
C32_4 C 0.2704(8) 1.0000 0.5000
H18_4 H 0.3163 1.0000 0.5000
C34_4 C 0.1399(8) 1.0000 0.5000
C35_4 C 0.0676(8) 1.0000 0.5000
C36_3 C 0.0396(5) 0.9907(8) 0.51976(19)
H20_3 H 0.0648 0.9852 0.5315
C37_3 C 0.3896(5) 0.8499(6) 0.42283(12)
O11_3 O 0.3709(3) 0.8565(3) 0.40532(8)
C38_3 C 0.3504(5) 0.8782(7) 0.43878(13)
C39_3 C 0.2947(5) 0.9129(7) 0.43434(16)
C40_3 C 0.3675(5) 0.8690(7) 0.45849(13)
H21_3 H 0.2817 0.9177 0.4208
C41_3 C 0.2584(5) 0.9403(7) 0.44911(15)
C42_3 C 0.3305(4) 0.9022(6) 0.47307(14)
H22_3 H 0.4024 0.8416 0.4621
H23_3 H 0.2196 0.9621 0.4457
C43_3 C 0.2766(6) 0.9368(8) 0.4686(2)
H24_3 H 0.3440 0.9001 0.4866
C44_3 C 0.2387(5) 0.9706(7) 0.48455(17)
C45_3 C 0.1737(5) 0.9724(8) 0.48388(18)
H25_3 H 0.1511 0.9553 0.4727
O13_3 O 0.3076(5) 0.8245(5) 0.37246(12)
O16_3 O 0.4255(5) 0.9424(5) 0.37754(12)
O21 O 0.5000 0.8228(3) 0.35932(9)
O27_2 O 0.3935(3) 0.8791(3) 0.34468(8)
C9_3 C 0.7296(8) 0.0000 0.5000
H5_3 H 0.6837 0.0000 0.5000
C11_3 C 0.8601(8) 0.0000 0.5000
C12_3 C 0.9324(8) 0.0000 0.5000
C13_3 C 0.9604(5) 0.0093(8) 0.48024(19)
H7_3 H 0.9352 0.0148 0.4685
O6_3 O 0.5653(3) 0.1857(3) 0.57151(8)
C14_3 C 0.6104(5) 0.1501(6) 0.57717(12)
C15_3 C 0.6496(5) 0.1218(7) 0.56122(13)
C16_3 C 0.7053(5) 0.0871(7) 0.56566(16)
C17_3 C 0.6325(5) 0.1310(7) 0.54151(13)
H8_3 H 0.7183 0.0823 0.5792
C18_3 C 0.7416(5) 0.0597(7) 0.55089(15)
C19_3 C 0.6695(4) 0.0978(6) 0.52693(14)
H9_3 H 0.5976 0.1584 0.5379
H10_3 H 0.7804 0.0379 0.5543
C20_3 C 0.7234(6) 0.0632(8) 0.5314(2)
H11_3 H 0.6560 0.0999 0.5134
C21_3 C 0.7613(5) 0.0294(7) 0.51545(17)
C22_3 C 0.8263(5) 0.0276(8) 0.51612(18)
H12_3 H 0.8489 0.0447 0.5273
C1_3 C 0.6104(5) 0.8499(6) 0.42283(12)
O4_3 O 0.6291(3) 0.8565(3) 0.40532(8)
C2_3 C 0.6496(5) 0.8782(7) 0.43878(13)
O5_3 O 0.6924(5) 0.8245(5) 0.37246(12)
C3_3 C 0.7053(5) 0.9129(7) 0.43434(16)
C4_3 C 0.6325(5) 0.8690(7) 0.45849(13)
H1_3 H 0.7183 0.9177 0.4208
C5_3 C 0.7416(5) 0.9403(7) 0.44911(15)
C6_3 C 0.6695(4) 0.9022(6) 0.47307(14)
H2_3 H 0.5976 0.8416 0.4621
H3_3 H 0.7804 0.9621 0.4457
C7_3 C 0.7234(6) 0.9368(8) 0.4686(2)
H4_3 H 0.6560 0.9001 0.4866
C8_3 C 0.7613(5) 0.9706(7) 0.48455(17)
C9_4 C 0.7296(8) 1.0000 0.5000
C10_3 C 0.8263(5) 0.9724(8) 0.48388(18)
H5_4 H 0.6837 1.0000 0.5000
H6_3 H 0.8489 0.9553 0.4727
C11_4 C 0.8601(8) 1.0000 0.5000
C12_4 C 0.9324(8) 1.0000 0.5000
C23_3 C 0.9604(5) 0.9907(8) 0.51976(19)
H13_3 H 0.9352 0.9852 0.5315
O15_3 O 0.5745(5) 0.9424(5) 0.37754(12)
O26_3 O 0.6065(3) 0.8791(3) 0.34468(8)
O12 O 0.0000 0.6772(3) 0.14068(9)
Zr4 Zr -0.0000 0.7500 0.161422(15)
O24_3 O -0.0000 0.6537(3) 0.10515(9)
Zr7 Zr 0.08450(3) 0.66550(3) 0.1250
O2_3 O 0.0000 0.8228(3) 0.14068(9)
O14_3 O 0.0963(3) 0.7500 0.14485(9)
O17_3 O 0.0643(3) 0.6847(3) 0.17849(8)
O19_3 O 0.0643(3) 0.8153(3) 0.17849(8)
O25_3 O 0.0000 0.8463(3) 0.10515(9)
Zr11_3 Zr 0.08450(3) 0.83450(3) 0.1250
H3_4 H 0.7879 0.0304 0.1957
C8_4 C 0.7794(7) 0.0113(5) 0.23455(17)
C10_4 C 0.7776(8) 0.0763(5) 0.23388(18)
H6_4 H 0.7947 0.0989 0.2227
C11_5 C 0.7500 0.1101(8) 0.2500
C12_5 C 0.7500 0.1824(8) 0.2500
C13_4 C 0.7407(8) 0.2104(5) 0.23024(19)
H7_4 H 0.7352 0.1852 0.2185
H10_4 H 0.7121 0.0304 0.3043
C21_4 C 0.7206(7) 0.0113(5) 0.26545(17)
C22_4 C 0.7224(8) 0.0763(5) 0.26612(18)
H12_4 H 0.7053 0.0989 0.2773
C23_4 C 0.7593(8) 0.2104(5) 0.26976(19)
H13_4 H 0.7648 0.1852 0.2815
O8_4 O 0.5643(3) 0.6847(3) 0.32151(8)
C24_4 C 0.5999(6) 0.6396(5) 0.32717(12)
C25_4 C 0.6282(7) 0.6004(5) 0.31122(13)
C26_4 C 0.6629(7) 0.5447(5) 0.31566(16)
C27_4 C 0.6190(7) 0.6175(5) 0.29151(13)
H14_4 H 0.6677 0.5317 0.3292
C28_4 C 0.6903(7) 0.5084(5) 0.30089(15)
C29_4 C 0.6522(6) 0.5805(4) 0.27693(14)
H15_4 H 0.5916 0.6524 0.2879
H16_4 H 0.7121 0.4696 0.3043
C30_4 C 0.6868(8) 0.5266(6) 0.2814(2)
H17_4 H 0.6501 0.5940 0.2634
C31_4 C 0.7206(7) 0.4887(5) 0.26545(17)
C32_5 C 0.7500 0.5204(8) 0.2500
C33_4 C 0.7224(8) 0.4237(5) 0.26612(18)
H18_5 H 0.7500 0.5663 0.2500
H19_4 H 0.7053 0.4011 0.2773
C34_5 C 0.7500 0.3899(8) 0.2500
C35_5 C 0.7500 0.3176(8) 0.2500
C36_4 C 0.7593(8) 0.2896(5) 0.26976(19)
H20_4 H 0.7648 0.3148 0.2815
O10 O 0.9357(3) 0.6847(3) 0.17849(8)
C37_4 C 0.9001(6) 0.6396(5) 0.17283(12)
O11_4 O 0.8935(3) 0.6209(3) 0.15532(8)
C38_4 C 0.8718(7) 0.6004(5) 0.18878(13)
C39_4 C 0.8371(7) 0.5447(5) 0.18434(16)
C40_4 C 0.8810(7) 0.6175(5) 0.20849(13)
H21_4 H 0.8323 0.5317 0.1708
C41_4 C 0.8097(7) 0.5084(5) 0.19911(15)
C42_4 C 0.8478(6) 0.5805(4) 0.22307(14)
H22_4 H 0.9084 0.6524 0.2121
H23_4 H 0.7879 0.4696 0.1957
C43_4 C 0.8132(8) 0.5266(6) 0.2186(2)
H24_4 H 0.8499 0.5940 0.2366
C44_4 C 0.7794(7) 0.4887(5) 0.23455(17)
C45_4 C 0.7776(8) 0.4237(5) 0.23388(18)
H25_4 H 0.7947 0.4011 0.2227
C46_4 C 0.7407(8) 0.2896(5) 0.23024(19)
H26_4 H 0.7352 0.3148 0.2185
O12_2 O 1.0000 0.6772(3) 0.14068(9)
Zr3 Zr 0.91550(3) 0.66550(3) 0.1250
O13_4 O 0.9255(5) 0.5576(5) 0.12246(12)
O16_4 O 0.8076(5) 0.6755(5) 0.12754(12)
Zr4_2 Zr 1.0000 0.7500 0.161422(15)
Zr5 Zr 0.5000 0.7500 0.338578(15)
O21_2 O 0.9272(3) 0.7500 0.10932(9)
O23 O 0.9037(3) 0.7500 0.14485(9)
O24_4 O 1.0000 0.6537(3) 0.10515(9)
O27_3 O 0.8709(3) 0.6435(3) 0.09468(8)
O1_3 O 0.9357(3) 0.8153(3) 0.17849(8)
O2_4 O 1.0000 0.8228(3) 0.14068(9)
C1_4 C 0.9001(6) 0.8604(5) 0.17283(12)
Zr2_3 Zr 0.91550(3) 0.83450(3) 0.1250
O4_4 O 0.8935(3) 0.8791(3) 0.15532(8)
C2_4 C 0.8718(7) 0.8996(5) 0.18878(13)
O5_4 O 0.9255(5) 0.9424(5) 0.12246(12)
C3_4 C 0.8371(7) 0.9553(5) 0.18434(16)
C4_4 C 0.8810(7) 0.8825(5) 0.20849(13)
H1_4 H 0.8323 0.9683 0.1708
C5_4 C 0.8097(7) 0.9916(5) 0.19911(15)
C6_4 C 0.8478(6) 0.9195(4) 0.22307(14)
H2_4 H 0.9084 0.8476 0.2121
C7_4 C 0.8132(8) 0.9734(6) 0.2186(2)
H4_4 H 0.8499 0.9060 0.2366
C9_5 C 0.7500 0.9796(8) 0.2500
H5_5 H 0.7500 0.9337 0.2500
O6_4 O 0.5643(3) 0.8153(3) 0.32151(8)
C14_4 C 0.5999(6) 0.8604(5) 0.32717(12)
C15_4 C 0.6282(7) 0.8996(5) 0.31122(13)
C16_4 C 0.6629(7) 0.9553(5) 0.31566(16)
C17_4 C 0.6190(7) 0.8825(5) 0.29151(13)
H8_4 H 0.6677 0.9683 0.3292
C18_4 C 0.6903(7) 0.9916(5) 0.30089(15)
C19_4 C 0.6522(6) 0.9195(4) 0.27693(14)
H9_4 H 0.5916 0.8476 0.2879
C20_4 C 0.6868(8) 0.9734(6) 0.2814(2)
H11_4 H 0.6501 0.9060 0.2634
O15_4 O 0.8076(5) 0.8245(5) 0.12754(12)
O25_4 O 1.0000 0.8463(3) 0.10515(9)
O26_4 O 0.8709(3) 0.8565(3) 0.09468(8)
O2_5 O 0.4272(3) 0.2500 0.60932(9)
O5_5 O 0.3076(5) 0.3245(5) 0.62754(12)
O15_5 O 0.4255(5) 0.4424(5) 0.62246(12)
O26_5 O 0.3935(3) 0.3791(3) 0.65532(8)
O13_5 O 0.3076(5) 0.1755(5) 0.62754(12)
O16_5 O 0.4255(5) 0.0576(5) 0.62246(12)
O27_4 O 0.3935(3) 0.1209(3) 0.65532(8)
O2_6 O -0.0000 0.1772(3) 0.85932(9)
O14_4 O 0.0963(3) 0.2500 0.85515(9)
O17_4 O 0.0643(3) 0.3153(3) 0.82151(8)
O19_4 O 0.0643(3) 0.1847(3) 0.82151(8)
O20_3 O -0.0000 0.3228(3) 0.85932(9)
O25_5 O -0.0000 0.1537(3) 0.89485(9)
Zr8_2 Zr 0.08450(3) 0.33450(3) 0.8750
Zr11_4 Zr 0.08450(3) 0.16550(3) 0.8750
O24_5 O -0.0000 0.3463(3) 0.89485(9)
O2_7 O 1.0000 0.1772(3) 0.85932(9)
O3_3 O 0.9037(3) 0.2500 0.85515(9)
O5_6 O 0.9255(5) 0.0576(5) 0.87754(12)
O15_6 O 0.8076(5) 0.1755(5) 0.87246(12)
O20_4 O 1.0000 0.3228(3) 0.85932(9)
O22_3 O 0.9272(3) 0.2500 0.89068(9)
O25_6 O 1.0000 0.1537(3) 0.89485(9)
O26_6 O 0.8709(3) 0.1435(3) 0.90532(8)
O13_6 O 0.9255(5) 0.4424(5) 0.87754(12)
O16_6 O 0.8076(5) 0.3245(5) 0.87246(12)
O24_6 O 1.0000 0.3463(3) 0.89485(9)
O27_5 O 0.8709(3) 0.3565(3) 0.90532(8)
O17_5 O 0.4357(3) 0.6847(3) 0.32151(8)
O19_5 O 0.4357(3) 0.8153(3) 0.32151(8)
Zr1_3 Zr 0.0000 0.2500 0.911422(15)
O17_6 O 0.0653(3) 0.3143(3) 0.92849(8)
O18_3 O 0.0653(3) 0.1857(3) 0.92849(8)
O20_5 O 0.0728(3) 0.2500 0.89068(9)
Zr6_4 Zr -0.0000 0.7500 0.088578(15)
Zr1_4 Zr 1.0000 0.2500 0.911422(15)
O1_4 O 0.9347(3) 0.1857(3) 0.92849(8)
C1_5 C 0.8896(5) 0.1501(6) 0.92283(12)
C2_5 C 0.8504(5) 0.1218(7) 0.93878(13)
C3_5 C 0.7947(5) 0.0871(7) 0.93434(16)
C4_5 C 0.8675(5) 0.1310(7) 0.95849(13)
H1_5 H 0.7817 0.0823 0.9208
C5_5 C 0.7584(5) 0.0597(7) 0.94911(15)
C6_5 C 0.8305(4) 0.0978(6) 0.97307(14)
H2_5 H 0.9024 0.1584 0.9621
H3_5 H 0.7196 0.0379 0.9457
C7_5 C 0.7766(6) 0.0632(8) 0.9686(2)
H4_5 H 0.8440 0.0999 0.9866
C8_5 C 0.7387(5) 0.0294(7) 0.98455(17)
C9_6 C 0.7704(8) 0.0000 1.0000
C10_5 C 0.6737(5) 0.0276(8) 0.98388(18)
H5_6 H 0.8163 0.0000 1.0000
H6_5 H 0.6511 0.0447 0.9727
C11_6 C 0.6399(8) 0.0000 1.0000
C12_6 C 0.5676(8) 0.0000 1.0000
C32_6 C 0.2296(8) 0.0000 1.0000
H18_6 H 0.1837 0.0000 1.0000
C34_6 C 0.3601(8) 0.0000 1.0000
C35_6 C 0.4324(8) 0.0000 1.0000
C37_5 C 0.1104(5) 0.1501(6) 0.92283(12)
O11_5 O 0.1291(3) 0.1435(3) 0.90532(8)
C38_5 C 0.1496(5) 0.1218(7) 0.93878(13)
C39_5 C 0.2053(5) 0.0871(7) 0.93434(16)
C40_5 C 0.1325(5) 0.1310(7) 0.95849(13)
H21_5 H 0.2183 0.0823 0.9208
C41_5 C 0.2416(5) 0.0597(7) 0.94911(15)
C42_5 C 0.1695(4) 0.0978(6) 0.97307(14)
H22_5 H 0.0976 0.1584 0.9621
H23_5 H 0.2804 0.0379 0.9457
C43_5 C 0.2234(6) 0.0632(8) 0.9686(2)
H24_5 H 0.1560 0.0999 0.9866
C44_5 C 0.2613(5) 0.0294(7) 0.98455(17)
C45_5 C 0.3263(5) 0.0276(8) 0.98388(18)
H25_5 H 0.3489 0.0447 0.9727
O13_7 O 0.1924(5) 0.1755(5) 0.87246(12)
O16_7 O 0.0745(5) 0.0576(5) 0.87754(12)
O19_6 O 0.9347(3) 0.3143(3) 0.92849(8)
O27_6 O 0.1065(3) 0.1209(3) 0.84468(8)
C9_7 C 0.7704(8) 1.0000 0.0000
H5_7 H 0.8163 1.0000 0.0000
C11_7 C 0.6399(8) 1.0000 0.0000
C12_7 C 0.5676(8) 1.0000 0.0000
O6_5 O 0.9347(3) 0.8143(3) 0.07151(8)
C14_5 C 0.8896(5) 0.8499(6) 0.07717(12)
C15_5 C 0.8504(5) 0.8782(7) 0.06122(13)
C16_5 C 0.7947(5) 0.9129(7) 0.06566(16)
C17_5 C 0.8675(5) 0.8690(7) 0.04151(13)
H8_5 H 0.7817 0.9177 0.0792
C18_5 C 0.7584(5) 0.9403(7) 0.05089(15)
C19_5 C 0.8305(4) 0.9022(6) 0.02693(14)
H9_5 H 0.9024 0.8416 0.0379
H10_5 H 0.7196 0.9621 0.0543
C20_5 C 0.7766(6) 0.9368(8) 0.0314(2)
H11_5 H 0.8440 0.9001 0.0134
C21_5 C 0.7387(5) 0.9706(7) 0.01545(17)
C22_5 C 0.6737(5) 0.9724(8) 0.01612(18)
H12_5 H 0.6511 0.9553 0.0273
O8_5 O 0.0653(3) 0.8143(3) 0.07151(8)
C24_5 C 0.1104(5) 0.8499(6) 0.07717(12)
O9_4 O 0.1291(3) 0.8565(3) 0.09468(8)
C25_5 C 0.1496(5) 0.8782(7) 0.06122(13)
C26_5 C 0.2053(5) 0.9129(7) 0.06566(16)
C27_5 C 0.1325(5) 0.8690(7) 0.04151(13)
H14_5 H 0.2183 0.9177 0.0792
C28_5 C 0.2416(5) 0.9403(7) 0.05089(15)
C29_5 C 0.1695(4) 0.9022(6) 0.02693(14)
H15_5 H 0.0976 0.8416 0.0379
H16_5 H 0.2804 0.9621 0.0543
C30_5 C 0.2234(6) 0.9368(8) 0.0314(2)
H17_5 H 0.1560 0.9001 0.0134
C31_5 C 0.2613(5) 0.9706(7) 0.01545(17)
C32_7 C 0.2296(8) 1.0000 0.0000
C33_5 C 0.3263(5) 0.9724(8) 0.01612(18)
H18_7 H 0.1837 1.0000 0.0000
H19_5 H 0.3489 0.9553 0.0273
C34_7 C 0.3601(8) 1.0000 0.0000
C35_7 C 0.4324(8) 1.0000 0.0000
Zr6_5 Zr 1.0000 0.7500 0.088578(15)
C1_6 C 0.0999(6) 0.6396(5) 0.17283(12)
O4_5 O 0.1065(3) 0.6209(3) 0.15532(8)
C2_6 C 0.1282(7) 0.6004(5) 0.18878(13)
O5_7 O 0.0745(5) 0.5576(5) 0.12246(12)
C3_6 C 0.1629(7) 0.5447(5) 0.18434(16)
C4_6 C 0.1190(7) 0.6175(5) 0.20849(13)
H1_6 H 0.1677 0.5317 0.1708
C5_6 C 0.1903(7) 0.5084(5) 0.19911(15)
C6_6 C 0.1522(6) 0.5805(4) 0.22307(14)
H2_6 H 0.0916 0.6524 0.2121
H3_6 H 0.2121 0.4696 0.1957
C7_6 C 0.1868(8) 0.5266(6) 0.2186(2)
H4_6 H 0.1501 0.5940 0.2366
C8_6 C 0.2206(7) 0.4887(5) 0.23455(17)
C9_8 C 0.2500 0.5204(8) 0.2500
C10_6 C 0.2224(8) 0.4237(5) 0.23388(18)
H5_8 H 0.2500 0.5663 0.2500
H6_6 H 0.2053 0.4011 0.2227
C11_8 C 0.2500 0.3899(8) 0.2500
C12_8 C 0.2500 0.3176(8) 0.2500
C13_5 C 0.2593(8) 0.2896(5) 0.23024(19)
H7_5 H 0.2648 0.3148 0.2185
C14_6 C 0.4001(6) 0.6396(5) 0.32717(12)
C15_6 C 0.3718(7) 0.6004(5) 0.31122(13)
C16_6 C 0.3371(7) 0.5447(5) 0.31566(16)
C17_6 C 0.3810(7) 0.6175(5) 0.29151(13)
H8_6 H 0.3323 0.5317 0.3292
C18_6 C 0.3097(7) 0.5084(5) 0.30089(15)
C19_6 C 0.3478(6) 0.5805(4) 0.27693(14)
H9_6 H 0.4084 0.6524 0.2879
H10_6 H 0.2879 0.4696 0.3043
C20_6 C 0.3132(8) 0.5266(6) 0.2814(2)
H11_6 H 0.3499 0.5940 0.2634
C21_6 C 0.2794(7) 0.4887(5) 0.26545(17)
C22_6 C 0.2776(8) 0.4237(5) 0.26612(18)
H12_6 H 0.2947 0.4011 0.2773
C23_5 C 0.2407(8) 0.2896(5) 0.26976(19)
H13_5 H 0.2352 0.3148 0.2815
H16_6 H 0.2879 0.0304 0.3043
C31_6 C 0.2794(7) 0.0113(5) 0.26545(17)
C33_6 C 0.2776(8) 0.0763(5) 0.26612(18)
H19_6 H 0.2947 0.0989 0.2773
C34_8 C 0.2500 0.1101(8) 0.2500
C35_8 C 0.2500 0.1824(8) 0.2500
C36_5 C 0.2407(8) 0.2104(5) 0.26976(19)
H20_5 H 0.2352 0.1852 0.2815
H23_6 H 0.2121 0.0304 0.1957
C44_6 C 0.2206(7) 0.0113(5) 0.23455(17)
C45_6 C 0.2224(8) 0.0763(5) 0.23388(18)
H25_6 H 0.2053 0.0989 0.2227
C46_5 C 0.2593(8) 0.2104(5) 0.23024(19)
H26_5 H 0.2648 0.1852 0.2185
O15_7 O 0.1924(5) 0.6755(5) 0.12754(12)
O22_4 O 0.0728(3) 0.7500 0.10932(9)
O26_7 O 0.1291(3) 0.6435(3) 0.09468(8)
C24_6 C 0.4001(6) 0.8604(5) 0.32717(12)
C25_6 C 0.3718(7) 0.8996(5) 0.31122(13)
C26_6 C 0.3371(7) 0.9553(5) 0.31566(16)
C27_6 C 0.3810(7) 0.8825(5) 0.29151(13)
H14_6 H 0.3323 0.9683 0.3292
C28_6 C 0.3097(7) 0.9916(5) 0.30089(15)
C29_6 C 0.3478(6) 0.9195(4) 0.27693(14)
H15_6 H 0.4084 0.8476 0.2879
C30_6 C 0.3132(8) 0.9734(6) 0.2814(2)
H17_6 H 0.3499 0.9060 0.2634
C32_8 C 0.2500 0.9796(8) 0.2500
H18_8 H 0.2500 0.9337 0.2500
C37_6 C 0.0999(6) 0.8604(5) 0.17283(12)
O11_6 O 0.1065(3) 0.8791(3) 0.15532(8)
C38_6 C 0.1282(7) 0.8996(5) 0.18878(13)
C39_6 C 0.1629(7) 0.9553(5) 0.18434(16)
C40_6 C 0.1190(7) 0.8825(5) 0.20849(13)
H21_6 H 0.1677 0.9683 0.1708
C41_6 C 0.1903(7) 0.9916(5) 0.19911(15)
C42_6 C 0.1522(6) 0.9195(4) 0.22307(14)
H22_6 H 0.0916 0.8476 0.2121
C43_6 C 0.1868(8) 0.9734(6) 0.2186(2)
H24_6 H 0.1501 0.9060 0.2366
O13_8 O 0.0745(5) 0.9424(5) 0.12246(12)
O16_8 O 0.1924(5) 0.8245(5) 0.12754(12)
C9_9 C 0.2296(8) 0.5000 0.0000
H5_9 H 0.1837 0.5000 0.0000
C11_9 C 0.3601(8) 0.5000 0.0000
C12_9 C 0.4324(8) 0.5000 0.0000
O6_6 O 0.0653(3) 0.6857(3) 0.07151(8)
C14_7 C 0.1104(5) 0.6501(6) 0.07717(12)
C15_7 C 0.1496(5) 0.6218(7) 0.06122(13)
C16_7 C 0.2053(5) 0.5871(7) 0.06566(16)
C17_7 C 0.1325(5) 0.6310(7) 0.04151(13)
H8_7 H 0.2183 0.5823 0.0792
C18_7 C 0.2416(5) 0.5597(7) 0.05089(15)
C19_7 C 0.1695(4) 0.5978(6) 0.02693(14)
H9_7 H 0.0976 0.6584 0.0379
H10_7 H 0.2804 0.5379 0.0543
C20_7 C 0.2234(6) 0.5632(8) 0.0314(2)
H11_7 H 0.1560 0.5999 0.0134
C21_7 C 0.2613(5) 0.5294(7) 0.01545(17)
C22_7 C 0.3263(5) 0.5276(8) 0.01612(18)
H12_7 H 0.3489 0.5447 0.0273
C23_6 C 0.4604(5) 0.4907(8) 0.01976(19)
H13_6 H 0.4352 0.4852 0.0315
O8_6 O 0.9347(3) 0.6857(3) 0.07151(8)
C24_7 C 0.8896(5) 0.6501(6) 0.07717(12)
C25_7 C 0.8504(5) 0.6218(7) 0.06122(13)
C26_7 C 0.7947(5) 0.5871(7) 0.06566(16)
C27_7 C 0.8675(5) 0.6310(7) 0.04151(13)
H14_7 H 0.7817 0.5823 0.0792
C28_7 C 0.7584(5) 0.5597(7) 0.05089(15)
C29_7 C 0.8305(4) 0.5978(6) 0.02693(14)
H15_7 H 0.9024 0.6584 0.0379
H16_7 H 0.7196 0.5379 0.0543
C30_7 C 0.7766(6) 0.5632(8) 0.0314(2)
H17_7 H 0.8440 0.5999 0.0134
C31_7 C 0.7387(5) 0.5294(7) 0.01545(17)
C32_9 C 0.7704(8) 0.5000 0.0000
C33_7 C 0.6737(5) 0.5276(8) 0.01612(18)
H18_9 H 0.8163 0.5000 0.0000
H19_7 H 0.6511 0.5447 0.0273
C34_9 C 0.6399(8) 0.5000 0.0000
C35_9 C 0.5676(8) 0.5000 0.0000
C36_6 C 0.5396(5) 0.4907(8) 0.01976(19)
H20_6 H 0.5648 0.4852 0.0315
C1_7 C 0.1104(5) 0.3499(6) 0.92283(12)
O4_6 O 0.1291(3) 0.3565(3) 0.90532(8)
C2_7 C 0.1496(5) 0.3782(7) 0.93878(13)
O5_8 O 0.1924(5) 0.3245(5) 0.87246(12)
C3_7 C 0.2053(5) 0.4129(7) 0.93434(16)
C4_7 C 0.1325(5) 0.3690(7) 0.95849(13)
H1_7 H 0.2183 0.4177 0.9208
C5_7 C 0.2416(5) 0.4403(7) 0.94911(15)
C6_7 C 0.1695(4) 0.4022(6) 0.97307(14)
H2_7 H 0.0976 0.3416 0.9621
H3_7 H 0.2804 0.4621 0.9457
C7_7 C 0.2234(6) 0.4368(8) 0.9686(2)
H4_7 H 0.1560 0.4001 0.9866
C8_7 C 0.2613(5) 0.4706(7) 0.98455(17)
C9_10 C 0.2296(8) 0.5000 1.0000
C10_7 C 0.3263(5) 0.4724(8) 0.98388(18)
H5_10 H 0.1837 0.5000 1.0000
H6_7 H 0.3489 0.4553 0.9727
C11_10 C 0.3601(8) 0.5000 1.0000
C12_10 C 0.4324(8) 0.5000 1.0000
C13_6 C 0.4604(5) 0.5093(8) 0.98024(19)
H7_6 H 0.4352 0.5148 0.9685
C32_10 C 0.7704(8) 0.5000 1.0000
H18_10 H 0.8163 0.5000 1.0000
C34_10 C 0.6399(8) 0.5000 1.0000
C35_10 C 0.5676(8) 0.5000 1.0000
C37_7 C 0.8896(5) 0.3499(6) 0.92283(12)
C38_7 C 0.8504(5) 0.3782(7) 0.93878(13)
C39_7 C 0.7947(5) 0.4129(7) 0.93434(16)
C40_7 C 0.8675(5) 0.3690(7) 0.95849(13)
H21_7 H 0.7817 0.4177 0.9208
C41_7 C 0.7584(5) 0.4403(7) 0.94911(15)
C42_7 C 0.8305(4) 0.4022(6) 0.97307(14)
H22_7 H 0.9024 0.3416 0.9621
H23_7 H 0.7196 0.4621 0.9457
C43_7 C 0.7766(6) 0.4368(8) 0.9686(2)
H24_7 H 0.8440 0.4001 0.9866
C44_7 C 0.7387(5) 0.4706(7) 0.98455(17)
C45_7 C 0.6737(5) 0.4724(8) 0.98388(18)
H25_7 H 0.6511 0.4553 0.9727
C46_6 C 0.5396(5) 0.5093(8) 0.98024(19)
H26_6 H 0.5648 0.5148 0.9685
O15_8 O 0.0745(5) 0.4424(5) 0.87754(12)
O26_8 O 0.1065(3) 0.3791(3) 0.84468(8)
C24_8 C 0.0999(6) 0.1396(5) 0.82717(12)
C25_8 C 0.1282(7) 0.1004(5) 0.81122(13)
C26_8 C 0.1629(7) 0.0447(5) 0.81566(16)
C27_8 C 0.1190(7) 0.1175(5) 0.79151(13)
H14_8 H 0.1677 0.0317 0.8292
C28_8 C 0.1903(7) 0.0084(5) 0.80089(15)
C29_8 C 0.1522(6) 0.0805(4) 0.77693(14)
H15_8 H 0.0916 0.1524 0.7879
C30_8 C 0.1868(8) 0.0266(6) 0.7814(2)
H17_8 H 0.1501 0.0940 0.7634
C32_11 C 0.2500 0.0204(8) 0.7500
H18_11 H 0.2500 0.0663 0.7500
C37_8 C 0.4001(6) 0.1396(5) 0.67283(12)
C38_8 C 0.3718(7) 0.1004(5) 0.68878(13)
C39_8 C 0.3371(7) 0.0447(5) 0.68434(16)
C40_8 C 0.3810(7) 0.1175(5) 0.70849(13)
H21_8 H 0.3323 0.0317 0.6708
C41_8 C 0.3097(7) 0.0084(5) 0.69911(15)
C42_8 C 0.3478(6) 0.0805(4) 0.72307(14)
H22_8 H 0.4084 0.1524 0.7121
C43_8 C 0.3132(8) 0.0266(6) 0.7186(2)
H24_8 H 0.3499 0.0940 0.7366
C1_8 C 0.4001(6) 0.3604(5) 0.67283(12)
C2_8 C 0.3718(7) 0.3996(5) 0.68878(13)
C3_8 C 0.3371(7) 0.4553(5) 0.68434(16)
C4_8 C 0.3810(7) 0.3825(5) 0.70849(13)
H1_8 H 0.3323 0.4683 0.6708
C5_8 C 0.3097(7) 0.4916(5) 0.69911(15)
C6_8 C 0.3478(6) 0.4195(4) 0.72307(14)
H2_8 H 0.4084 0.3476 0.7121
H3_8 H 0.2879 0.5304 0.6957
C7_8 C 0.3132(8) 0.4734(6) 0.7186(2)
H4_8 H 0.3499 0.4060 0.7366
C8_8 C 0.2794(7) 0.5113(5) 0.73455(17)
C9_11 C 0.2500 0.4796(8) 0.7500
C10_8 C 0.2776(8) 0.5763(5) 0.73388(18)
H5_11 H 0.2500 0.4337 0.7500
H6_8 H 0.2947 0.5989 0.7227
C11_11 C 0.2500 0.6101(8) 0.7500
C12_11 C 0.2500 0.6824(8) 0.7500
C13_7 C 0.2407(8) 0.7104(5) 0.73024(19)
H7_7 H 0.2352 0.6852 0.7185
C14_8 C 0.0999(6) 0.3604(5) 0.82717(12)
C15_8 C 0.1282(7) 0.3996(5) 0.81122(13)
C16_8 C 0.1629(7) 0.4553(5) 0.81566(16)
C17_8 C 0.1190(7) 0.3825(5) 0.79151(13)
H8_8 H 0.1677 0.4683 0.8292
C18_8 C 0.1903(7) 0.4916(5) 0.80089(15)
C19_8 C 0.1522(6) 0.4195(4) 0.77693(14)
H9_8 H 0.0916 0.3476 0.7879
H10_8 H 0.2121 0.5304 0.8043
C20_8 C 0.1868(8) 0.4734(6) 0.7814(2)
H11_8 H 0.1501 0.4060 0.7634
C21_8 C 0.2206(7) 0.5113(5) 0.76545(17)
C22_8 C 0.2224(8) 0.5763(5) 0.76612(18)
H12_8 H 0.2053 0.5989 0.7773
C23_7 C 0.2593(8) 0.7104(5) 0.76976(19)
H13_7 H 0.2648 0.6852 0.7815
H16_8 H 0.2121 0.9696 0.8043
C31_8 C 0.2206(7) 0.9887(5) 0.76545(17)
C33_8 C 0.2224(8) 0.9237(5) 0.76612(18)
H19_8 H 0.2053 0.9011 0.7773
C34_11 C 0.2500 0.8899(8) 0.7500
C35_11 C 0.2500 0.8176(8) 0.7500
C36_7 C 0.2593(8) 0.7896(5) 0.76976(19)
H20_7 H 0.2648 0.8148 0.7815
H23_8 H 0.2879 0.9696 0.6957
C44_8 C 0.2794(7) 0.9887(5) 0.73455(17)
C45_8 C 0.2776(8) 0.9237(5) 0.73388(18)
H25_8 H 0.2947 0.9011 0.7227
C46_7 C 0.2407(8) 0.7896(5) 0.73024(19)
H26_7 H 0.2352 0.8148 0.7185
C9_12 C 0.7704(8) 0.0000 0.0000
H5_12 H 0.8163 0.0000 0.0000
C11_12 C 0.6399(8) 0.0000 0.0000
C12_12 C 0.5676(8) 0.0000 0.0000
C23_8 C 0.5396(5) 0.0093(8) 0.01976(19)
H13_8 H 0.5648 0.0148 0.0315
C32_12 C 0.2296(8) 0.0000 0.0000
H18_12 H 0.1837 0.0000 0.0000
C34_12 C 0.3601(8) 0.0000 0.0000
C35_12 C 0.4324(8) 0.0000 0.0000
C36_8 C 0.4604(5) 0.0093(8) 0.01976(19)
H20_8 H 0.4352 0.0148 0.0315
C9_13 C 0.7704(8) 1.0000 1.0000
H5_13 H 0.8163 1.0000 1.0000
C11_13 C 0.6399(8) 1.0000 1.0000
C12_13 C 0.5676(8) 1.0000 1.0000
C13_8 C 0.5396(5) 0.9907(8) 0.98024(19)
H7_8 H 0.5648 0.9852 0.9685
C32_13 C 0.2296(8) 1.0000 1.0000
H18_13 H 0.1837 1.0000 1.0000
C34_13 C 0.3601(8) 1.0000 1.0000
C35_13 C 0.4324(8) 1.0000 1.0000
C46_8 C 0.4604(5) 0.9907(8) 0.98024(19)
H26_8 H 0.4352 0.9852 0.9685
loop_
_geom_bond_atom_site_label_1
_geom_bond_atom_site_label_2
_geom_bond_site_symmetry_1
_geom_bond_site_symmetry_2
Zr1 O1 1_555 1_555
O1 C1 1_555 1_555
O2 Zr1 1_555 1_555
O3 Zr1 1_555 1_555
C1 O4 1_555 1_555
Zr2 O2 1_555 1_555
O4 Zr2 1_555 1_555
C2 C1 1_555 1_555
O5 Zr2 1_555 1_555
C3 C2 1_555 1_555
C4 C2 1_555 1_555
H1 C3 1_555 1_555
C5 C3 1_555 1_555
C6 C4 1_555 1_555
H2 C4 1_555 1_555
H3 C5 1_555 1_555
C7 C5 1_555 1_555
H4 C6 1_555 1_555
C8 C7 1_555 1_555
C9 C8 1_555 1_555
C10 C8 1_555 1_555
H5 C9 1_555 1_555
H6 C10 1_555 1_555
C11 C10 1_555 1_555
C12 C11 1_555 1_555
C13 C12 1_555 1_555
H7 C13 1_555 1_555
O6 C14 1_555 1_555
C14 O7 1_555 1_555
O7 Zr9 1_555 1_555
C15 C14 1_555 1_555
C16 C15 1_555 1_555
C17 C15 1_555 1_555
H8 C16 1_555 1_555
C18 C16 1_555 1_555
C19 C17 1_555 1_555
H9 C17 1_555 1_555
H10 C18 1_555 1_555
C20 C18 1_555 1_555
H11 C19 1_555 1_555
C21 C9 1_555 1_555
C22 C11 1_555 1_555
H12 C22 1_555 1_555
C23 C12 1_555 1_555
H13 C23 1_555 1_555
O14 Zr1 1_555 1_555
O15 Zr2 1_555 1_555
Zr6 O6 1_555 1_555
O17 Zr1 1_555 1_555
O18 Zr1 1_555 1_555
O19 Zr1 1_555 1_555
O20 Zr1 1_555 1_555
O22 Zr2 1_555 1_555
O25 Zr2 1_555 1_555
Zr8 O14 1_555 1_555
Zr11 O2 1_555 1_555
Zr12 O3 1_555 1_555
O26 Zr2 1_555 1_555
O3 Zr2 1_555 1_555
C6 C7 1_555 1_555
C19 C20 1_555 1_555
C20 C21 1_555 1_555
C21 C22 1_555 1_555
O14 Zr11 1_555 1_555
O20 Zr8 1_555 1_555
O20 Zr12 1_555 1_555
O22 Zr12 1_555 1_555
O25 Zr11 1_555 1_555
O8 C24 1_555 1_555
C24 O9 1_555 1_555
O9 Zr10 1_555 1_555
C25 C24 1_555 1_555
C26 C25 1_555 1_555
C27 C25 1_555 1_555
H14 C26 1_555 1_555
C28 C26 1_555 1_555
C29 C27 1_555 1_555
H15 C27 1_555 1_555
H16 C28 1_555 1_555
C30 C28 1_555 1_555
H17 C29 1_555 1_555
C31 C30 1_555 1_555
C32 C31 1_555 1_555
C33 C31 1_555 1_555
H18 C32 1_555 1_555
H19 C33 1_555 1_555
C34 C33 1_555 1_555
C35 C34 1_555 1_555
H20 C36 1_555 1_555
O18 C37 1_555 1_555
C37 O11 1_555 1_555
O11 Zr12 1_555 1_555
C38 C37 1_555 1_555
C39 C38 1_555 1_555
C40 C38 1_555 1_555
H21 C39 1_555 1_555
C41 C39 1_555 1_555
C42 C40 1_555 1_555
H22 C40 1_555 1_555
H23 C41 1_555 1_555
C43 C41 1_555 1_555
H24 C42 1_555 1_555
C44 C32 1_555 1_555
C45 C34 1_555 1_555
H25 C45 1_555 1_555
H26 C46 1_555 1_555
Zr12 O13 1_555 1_555
O16 Zr12 1_555 1_555
Zr6 O8 1_555 1_555
O24 Zr12 1_555 1_555
O27 Zr12 1_555 1_555
C29 C30 1_555 1_555
C35 C36 1_555 1_555
C35 C46 1_555 1_555
C42 C43 1_555 1_555
C43 C44 1_555 1_555
C44 C45 1_555 1_555
O24 Zr8 1_555 1_555
Zr1_2 O1_2 1_555 1_555
O1_2 C1_2 1_555 1_555
O2_2 Zr1_2 1_555 1_555
O3_2 Zr1_2 1_555 1_555
C1_2 O4_2 1_555 1_555
Zr2_2 O2_2 1_555 1_555
O4_2 Zr2_2 1_555 1_555
C2_2 C1_2 1_555 1_555
O5_2 Zr2_2 1_555 1_555
C3_2 C2_2 1_555 1_555
C4_2 C2_2 1_555 1_555
H1_2 C3_2 1_555 1_555
C5_2 C3_2 1_555 1_555
C6_2 C4_2 1_555 1_555
H2_2 C4_2 1_555 1_555
C7_2 C5_2 1_555 1_555
H4_2 C6_2 1_555 1_555
H5_2 C9_2 1_555 1_555
O6_2 C14_2 1_555 1_555
C14_2 O7_2 1_555 1_555
O7_2 Zr9_2 1_555 1_555
C15_2 C14_2 1_555 1_555
C16_2 C15_2 1_555 1_555
C17_2 C15_2 1_555 1_555
H8_2 C16_2 1_555 1_555
C18_2 C16_2 1_555 1_555
C19_2 C17_2 1_555 1_555
H9_2 C17_2 1_555 1_555
C20_2 C18_2 1_555 1_555
H11_2 C19_2 1_555 1_555
O14_2 Zr1_2 1_555 1_555
O15_2 Zr2_2 1_555 1_555
Zr6_3 O6_2 1_555 1_555
O17_2 Zr1_2 1_555 1_555
O18_2 Zr1_2 1_555 1_555
O19_2 Zr1_2 1_555 1_555
O20_2 Zr1_2 1_555 1_555
O22_2 Zr2_2 1_555 1_555
O25_2 Zr2_2 1_555 1_555
Zr9 O14_2 1_555 1_555
Zr11_2 O2_2 1_555 1_555
Zr10 O3_2 1_555 1_555
O26_2 Zr2_2 1_555 1_555
O3_2 Zr2_2 1_555 1_555
C6_2 C7_2 1_555 1_555
C19_2 C20_2 1_555 1_555
O14_2 Zr11_2 1_555 1_555
O20_2 Zr9 1_555 1_555
O20_2 Zr10 1_555 1_555
O22_2 Zr10 1_555 1_555
O25_2 Zr11_2 1_555 1_555
C10_2 C8_2 1_555 1_555
H6_2 C10_2 1_555 1_555
C11_2 C10_2 1_555 1_555
C12_2 C11_2 1_555 1_555
C13_2 C12_2 1_555 1_555
H7_2 C13_2 1_555 1_555
C22_2 C11_2 1_555 1_555
H12_2 C22_2 1_555 1_555
C23_2 C12_2 1_555 1_555
H13_2 C23_2 1_555 1_555
O8_2 C24_2 1_555 1_555
C24_2 O9_2 1_555 1_555
O9_2 Zr10_2 1_555 1_555
C25_2 C24_2 1_555 1_555
C26_2 C25_2 1_555 1_555
C27_2 C25_2 1_555 1_555
H14_2 C26_2 1_555 1_555
C28_2 C26_2 1_555 1_555
C29_2 C27_2 1_555 1_555
H15_2 C27_2 1_555 1_555
H16_2 C28_2 1_555 1_555
C30_2 C28_2 1_555 1_555
H17_2 C29_2 1_555 1_555
C31_2 C30_2 1_555 1_555
C32_2 C31_2 1_555 1_555
C33_2 C31_2 1_555 1_555
H18_2 C32_2 1_555 1_555
H19_2 C33_2 1_555 1_555
C34_2 C33_2 1_555 1_555
C35_2 C34_2 1_555 1_555
C36_2 C23_2 1_555 1_555
H20_2 C36_2 1_555 1_555
O18_2 C37_2 1_555 1_555
C37_2 O11_2 1_555 1_555
O11_2 Zr10 1_555 1_555
C38_2 C37_2 1_555 1_555
C39_2 C38_2 1_555 1_555
C40_2 C38_2 1_555 1_555
H21_2 C39_2 1_555 1_555
C41_2 C39_2 1_555 1_555
C42_2 C40_2 1_555 1_555
H22_2 C40_2 1_555 1_555
H23_2 C41_2 1_555 1_555
C43_2 C41_2 1_555 1_555
H24_2 C42_2 1_555 1_555
C44_2 C32_2 1_555 1_555
C45_2 C34_2 1_555 1_555
H25_2 C45_2 1_555 1_555
C46_2 C13_2 1_555 1_555
H26_2 C46_2 1_555 1_555
Zr10 O13_2 1_555 1_555
O16_2 Zr10 1_555 1_555
Zr6_3 O8_2 1_555 1_555
O24_2 Zr10 1_555 1_555
C21_2 C22_2 1_555 1_555
C29_2 C30_2 1_555 1_555
C35_2 C36_2 1_555 1_555
C35_2 C46_2 1_555 1_555
C42_2 C43_2 1_555 1_555
C43_2 C44_2 1_555 1_555
C44_2 C45_2 1_555 1_555
O24_2 Zr9 1_555 1_555
O8_3 C24_3 1_555 1_555
C24_3 O9_3 1_555 1_555
O9_3 Zr11_2 1_555 1_555
C25_3 C24_3 1_555 1_555
C26_3 C25_3 1_555 1_555
C27_3 C25_3 1_555 1_555
H14_3 C26_3 1_555 1_555
C28_3 C26_3 1_555 1_555
C29_3 C27_3 1_555 1_555
H15_3 C27_3 1_555 1_555
H16_3 C28_3 1_555 1_555
C30_3 C28_3 1_555 1_555
H17_3 C29_3 1_555 1_555
C31_3 C30_3 1_555 1_555
C32_3 C31_3 1_555 1_555
C33_3 C31_3 1_555 1_555
H18_3 C32_3 1_555 1_555
H19_3 C33_3 1_555 1_555
C34_3 C33_3 1_555 1_555
C35_3 C34_3 1_555 1_555
H26_3 C46_3 1_555 1_555
Zr6 O8_3 1_555 1_555
C29_3 C30_3 1_555 1_555
C35_3 C46_3 1_555 1_555
H18_4 C32_4 1_555 1_555
C35_4 C34_4 1_555 1_555
H20_3 C36_3 1_555 1_555
O19 C37_3 1_555 1_555
C37_3 O11_3 1_555 1_555
O11_3 Zr11 1_555 1_555
C38_3 C37_3 1_555 1_555
C39_3 C38_3 1_555 1_555
C40_3 C38_3 1_555 1_555
H21_3 C39_3 1_555 1_555
C41_3 C39_3 1_555 1_555
C42_3 C40_3 1_555 1_555
H22_3 C40_3 1_555 1_555
H23_3 C41_3 1_555 1_555
C43_3 C41_3 1_555 1_555
H24_3 C42_3 1_555 1_555
C44_3 C32_4 1_555 1_555
C45_3 C34_4 1_555 1_555
H25_3 C45_3 1_555 1_555
Zr11 O13_3 1_555 1_555
O16_3 Zr11 1_555 1_555
O21 Zr11 1_555 1_555
O27_2 Zr11 1_555 1_555
C35_4 C36_3 1_555 1_555
C42_3 C43_3 1_555 1_555
C43_3 C44_3 1_555 1_555
C44_3 C45_3 1_555 1_555
H5_3 C9_3 1_555 1_555
C12_3 C11_3 1_555 1_555
C13_3 C12_3 1_555 1_555
H7_3 C13_3 1_555 1_555
O6_3 C14_3 1_555 1_555
C14_3 O26_2 1_555 1_555
C15_3 C14_3 1_555 1_555
C16_3 C15_3 1_555 1_555
C17_3 C15_3 1_555 1_555
H8_3 C16_3 1_555 1_555
C18_3 C16_3 1_555 1_555
C19_3 C17_3 1_555 1_555
H9_3 C17_3 1_555 1_555
H10_3 C18_3 1_555 1_555
C20_3 C18_3 1_555 1_555
H11_3 C19_3 1_555 1_555
C21_3 C9_3 1_555 1_555
C22_3 C11_3 1_555 1_555
H12_3 C22_3 1_555 1_555
Zr6 O6_3 1_555 1_555
C19_3 C20_3 1_555 1_555
C20_3 C21_3 1_555 1_555
C21_3 C22_3 1_555 1_555
O17 C1_3 1_555 1_555
C1_3 O4_3 1_555 1_555
O4_3 Zr8 1_555 1_555
C2_3 C1_3 1_555 1_555
O5_3 Zr8 1_555 1_555
C3_3 C2_3 1_555 1_555
C4_3 C2_3 1_555 1_555
H1_3 C3_3 1_555 1_555
C5_3 C3_3 1_555 1_555
C6_3 C4_3 1_555 1_555
H2_3 C4_3 1_555 1_555
H3_3 C5_3 1_555 1_555
C7_3 C5_3 1_555 1_555
H4_3 C6_3 1_555 1_555
C8_3 C7_3 1_555 1_555
C9_4 C8_3 1_555 1_555
C10_3 C8_3 1_555 1_555
H5_4 C9_4 1_555 1_555
H6_3 C10_3 1_555 1_555
C11_4 C10_3 1_555 1_555
C12_4 C11_4 1_555 1_555
C23_3 C12_4 1_555 1_555
H13_3 C23_3 1_555 1_555
O15_3 Zr8 1_555 1_555
O21 Zr8 1_555 1_555
O26_3 Zr8 1_555 1_555
C6_3 C7_3 1_555 1_555
Zr7 O12 1_555 1_555
O12 Zr4 1_555 1_555
O24_3 Zr7 1_555 1_555
O2_3 Zr4 1_555 1_555
O14_3 Zr4 1_555 1_555
O17_3 Zr4 1_555 1_555
O19_3 Zr4 1_555 1_555
Zr7 O14_3 1_555 1_555
Zr11_3 O2_3 1_555 1_555
O14_3 Zr11_3 1_555 1_555
O25_3 Zr11_3 1_555 1_555
C10_4 C8_4 1_555 1_555
H6_4 C10_4 1_555 1_555
C11_5 C10_4 1_555 1_555
C12_5 C11_5 1_555 1_555
C13_4 C12_5 1_555 1_555
H7_4 C13_4 1_555 1_555
C22_4 C11_5 1_555 1_555
H12_4 C22_4 1_555 1_555
C23_4 C12_5 1_555 1_555
H13_4 C23_4 1_555 1_555
O8_4 C24_4 1_555 1_555
C24_4 O27 1_555 1_555
C25_4 C24_4 1_555 1_555
C26_4 C25_4 1_555 1_555
C27_4 C25_4 1_555 1_555
H14_4 C26_4 1_555 1_555
C28_4 C26_4 1_555 1_555
C29_4 C27_4 1_555 1_555
H15_4 C27_4 1_555 1_555
H16_4 C28_4 1_555 1_555
C30_4 C28_4 1_555 1_555
H17_4 C29_4 1_555 1_555
C31_4 C30_4 1_555 1_555
C32_5 C31_4 1_555 1_555
C33_4 C31_4 1_555 1_555
H18_5 C32_5 1_555 1_555
H19_4 C33_4 1_555 1_555
C34_5 C33_4 1_555 1_555
C35_5 C34_5 1_555 1_555
C36_4 C23_4 1_555 1_555
H20_4 C36_4 1_555 1_555
O10 C37_4 1_555 1_555
C37_4 O11_4 1_555 1_555
O11_4 Zr3 1_555 1_555
C38_4 C37_4 1_555 1_555
C39_4 C38_4 1_555 1_555
C40_4 C38_4 1_555 1_555
H21_4 C39_4 1_555 1_555
C41_4 C39_4 1_555 1_555
C42_4 C40_4 1_555 1_555
H22_4 C40_4 1_555 1_555
H23_4 C41_4 1_555 1_555
C43_4 C41_4 1_555 1_555
H24_4 C42_4 1_555 1_555
C44_4 C32_5 1_555 1_555
C45_4 C34_5 1_555 1_555
H25_4 C45_4 1_555 1_555
C46_4 C13_4 1_555 1_555
H26_4 C46_4 1_555 1_555
O12_2 Zr3 1_555 1_555
Zr3 O13_4 1_555 1_555
O16_4 Zr3 1_555 1_555
Zr4_2 O10 1_555 1_555
Zr5 O8_4 1_555 1_555
O21_2 Zr3 1_555 1_555
O23 Zr3 1_555 1_555
O24_4 Zr3 1_555 1_555
O27_3 Zr3 1_555 1_555
C21_4 C22_4 1_555 1_555
C29_4 C30_4 1_555 1_555
C35_5 C36_4 1_555 1_555
C35_5 C46_4 1_555 1_555
C42_4 C43_4 1_555 1_555
C43_4 C44_4 1_555 1_555
C44_4 C45_4 1_555 1_555
O12_2 Zr4_2 1_555 1_555
Zr4_2 O23 1_555 1_555
Zr4_2 O1_3 1_555 1_555
O1_3 C1_4 1_555 1_555
O2_4 Zr4_2 1_555 1_555
C1_4 O4_4 1_555 1_555
Zr2_3 O2_4 1_555 1_555
O4_4 Zr2_3 1_555 1_555
C2_4 C1_4 1_555 1_555
O5_4 Zr2_3 1_555 1_555
C3_4 C2_4 1_555 1_555
C4_4 C2_4 1_555 1_555
H1_4 C3_4 1_555 1_555
C5_4 C3_4 1_555 1_555
C6_4 C4_4 1_555 1_555
H2_4 C4_4 1_555 1_555
C7_4 C5_4 1_555 1_555
H4_4 C6_4 1_555 1_555
H5_5 C9_5 1_555 1_555
O6_4 C14_4 1_555 1_555
C14_4 O26_3 1_555 1_555
C15_4 C14_4 1_555 1_555
C16_4 C15_4 1_555 1_555
C17_4 C15_4 1_555 1_555
H8_4 C16_4 1_555 1_555
C18_4 C16_4 1_555 1_555
C19_4 C17_4 1_555 1_555
H9_4 C17_4 1_555 1_555
C20_4 C18_4 1_555 1_555
H11_4 C19_4 1_555 1_555
O15_4 Zr2_3 1_555 1_555
Zr5 O6_4 1_555 1_555
O21_2 Zr2_3 1_555 1_555
O25_4 Zr2_3 1_555 1_555
O26_4 Zr2_3 1_555 1_555
O23 Zr2_3 1_555 1_555
C6_4 C7_4 1_555 1_555
C19_4 C20_4 1_555 1_555
O2_5 Zr6 1_555 1_555
O24_2 Zr6 1_555 1_555
Zr9 O2_5 1_555 1_555
O5_5 Zr9 1_555 1_555
O25_2 Zr6 1_555 1_555
O15_5 Zr9 1_555 1_555
O22_2 Zr6 1_555 1_555
Zr11_2 O2_5 1_555 1_555
O26_5 Zr9 1_555 1_555
Zr11_2 O13_5 1_555 1_555
O16_5 Zr11_2 1_555 1_555
O27_4 Zr11_2 1_555 1_555
O2_6 Zr6_2 1_555 1_555
O14_4 Zr6_2 1_555 1_555
O17_4 Zr6_2 1_555 1_555
O19_4 Zr6_2 1_555 1_555
O20_3 Zr6_2 1_555 1_555
Zr8_2 O14_4 1_555 1_555
Zr11_4 O2_6 1_555 1_555
O14_4 Zr11_4 1_555 1_555
O20_3 Zr8_2 1_555 1_555
O25_5 Zr11_4 1_555 1_555
O24_5 Zr8_2 1_555 1_555
O2_7 Zr6_3 1_555 1_555
O3_3 Zr6_3 1_555 1_555
Zr9_2 O2_7 1_555 1_555
O5_6 Zr9_2 1_555 1_555
O15_6 Zr9_2 1_555 1_555
O20_4 Zr6_3 1_555 1_555
O22_3 Zr9_2 1_555 1_555
O25_6 Zr9_2 1_555 1_555
Zr10_2 O3_3 1_555 1_555
O26_6 Zr9_2 1_555 1_555
O3_3 Zr9_2 1_555 1_555
O20_4 Zr10_2 1_555 1_555
O22_3 Zr10_2 1_555 1_555
Zr10_2 O13_6 1_555 1_555
O16_6 Zr10_2 1_555 1_555
O24_6 Zr10_2 1_555 1_555
O27_5 Zr10_2 1_555 1_555
O22 Zr5 1_555 1_555
Zr5 O24 1_555 1_555
O21 Zr5 1_555 1_555
O25 Zr5 1_555 1_555
O17_5 Zr5 1_555 1_555
O19_5 Zr5 1_555 1_555
O25_5 Zr1_3 1_555 1_555
O24_5 Zr1_3 1_555 1_555
O17_6 Zr1_3 1_555 1_555
O18_3 Zr1_3 1_555 1_555
O20_5 Zr1_3 1_555 1_555
O20_5 Zr8_2 1_555 1_555
O20_5 Zr11_4 1_555 1_555
Zr1_4 O1_4 1_555 1_555
O1_4 C1_5 1_555 1_555
O22_3 Zr1_4 1_555 1_555
O25_6 Zr1_4 1_555 1_555
C1_5 O26_6 1_555 1_555
C2_5 C1_5 1_555 1_555
C3_5 C2_5 1_555 1_555
C4_5 C2_5 1_555 1_555
H1_5 C3_5 1_555 1_555
C5_5 C3_5 1_555 1_555
C6_5 C4_5 1_555 1_555
H2_5 C4_5 1_555 1_555
H3_5 C5_5 1_555 1_555
C7_5 C5_5 1_555 1_555
H4_5 C6_5 1_555 1_555
C8_5 C7_5 1_555 1_555
C9_6 C8_5 1_555 1_555
C10_5 C8_5 1_555 1_555
H5_6 C9_6 1_555 1_555
H6_5 C10_5 1_555 1_555
C11_6 C10_5 1_555 1_555
C12_6 C11_6 1_555 1_555
H18_6 C32_6 1_555 1_555
C35_6 C34_6 1_555 1_555
O18_3 C37_5 1_555 1_555
C37_5 O11_5 1_555 1_555
O11_5 Zr11_4 1_555 1_555
C38_5 C37_5 1_555 1_555
C39_5 C38_5 1_555 1_555
C40_5 C38_5 1_555 1_555
H21_5 C39_5 1_555 1_555
C41_5 C39_5 1_555 1_555
C42_5 C40_5 1_555 1_555
H22_5 C40_5 1_555 1_555
H23_5 C41_5 1_555 1_555
C43_5 C41_5 1_555 1_555
H24_5 C42_5 1_555 1_555
C44_5 C32_6 1_555 1_555
C45_5 C34_6 1_555 1_555
H25_5 C45_5 1_555 1_555
Zr11_4 O13_7 1_555 1_555
O24_6 Zr1_4 1_555 1_555
O16_7 Zr11_4 1_555 1_555
O19_6 Zr1_4 1_555 1_555
O27_6 Zr11_4 1_555 1_555
C6_5 C7_5 1_555 1_555
C42_5 C43_5 1_555 1_555
C43_5 C44_5 1_555 1_555
C44_5 C45_5 1_555 1_555
H5_7 C9_7 1_555 1_555
C12_7 C11_7 1_555 1_555
O6_5 C14_5 1_555 1_555
C14_5 O26_4 1_555 1_555
C15_5 C14_5 1_555 1_555
C16_5 C15_5 1_555 1_555
C17_5 C15_5 1_555 1_555
H8_5 C16_5 1_555 1_555
C18_5 C16_5 1_555 1_555
C19_5 C17_5 1_555 1_555
H9_5 C17_5 1_555 1_555
H10_5 C18_5 1_555 1_555
C20_5 C18_5 1_555 1_555
H11_5 C19_5 1_555 1_555
C21_5 C9_7 1_555 1_555
C22_5 C11_7 1_555 1_555
H12_5 C22_5 1_555 1_555
O8_5 C24_5 1_555 1_555
C24_5 O9_4 1_555 1_555
O9_4 Zr11_3 1_555 1_555
C25_5 C24_5 1_555 1_555
C26_5 C25_5 1_555 1_555
C27_5 C25_5 1_555 1_555
H14_5 C26_5 1_555 1_555
C28_5 C26_5 1_555 1_555
C29_5 C27_5 1_555 1_555
H15_5 C27_5 1_555 1_555
H16_5 C28_5 1_555 1_555
C30_5 C28_5 1_555 1_555
H17_5 C29_5 1_555 1_555
C31_5 C30_5 1_555 1_555
C32_7 C31_5 1_555 1_555
C33_5 C31_5 1_555 1_555
H18_7 C32_7 1_555 1_555
H19_5 C33_5 1_555 1_555
C34_7 C33_5 1_555 1_555
C35_7 C34_7 1_555 1_555
Zr6_4 O8_5 1_555 1_555
Zr6_5 O6_5 1_555 1_555
C19_5 C20_5 1_555 1_555
C20_5 C21_5 1_555 1_555
C21_5 C22_5 1_555 1_555
C29_5 C30_5 1_555 1_555
O17_3 C1_6 1_555 1_555
C1_6 O4_5 1_555 1_555
O4_5 Zr7 1_555 1_555
C2_6 C1_6 1_555 1_555
O5_7 Zr7 1_555 1_555
C3_6 C2_6 1_555 1_555
C4_6 C2_6 1_555 1_555
H1_6 C3_6 1_555 1_555
C5_6 C3_6 1_555 1_555
C6_6 C4_6 1_555 1_555
H2_6 C4_6 1_555 1_555
H3_6 C5_6 1_555 1_555
C7_6 C5_6 1_555 1_555
H4_6 C6_6 1_555 1_555
C8_6 C7_6 1_555 1_555
C9_8 C8_6 1_555 1_555
C10_6 C8_6 1_555 1_555
H5_8 C9_8 1_555 1_555
H6_6 C10_6 1_555 1_555
C11_8 C10_6 1_555 1_555
C12_8 C11_8 1_555 1_555
C13_5 C12_8 1_555 1_555
H7_5 C13_5 1_555 1_555
O17_5 C14_6 1_555 1_555
C14_6 O26 1_555 1_555
C15_6 C14_6 1_555 1_555
C16_6 C15_6 1_555 1_555
C17_6 C15_6 1_555 1_555
H8_6 C16_6 1_555 1_555
C18_6 C16_6 1_555 1_555
C19_6 C17_6 1_555 1_555
H9_6 C17_6 1_555 1_555
H10_6 C18_6 1_555 1_555
C20_6 C18_6 1_555 1_555
H11_6 C19_6 1_555 1_555
C21_6 C9_8 1_555 1_555
C22_6 C11_8 1_555 1_555
H12_6 C22_6 1_555 1_555
C23_5 C12_8 1_555 1_555
H13_5 C23_5 1_555 1_555
C33_6 C31_6 1_555 1_555
H19_6 C33_6 1_555 1_555
C34_8 C33_6 1_555 1_555
C35_8 C34_8 1_555 1_555
C36_5 C23_5 1_555 1_555
H20_5 C36_5 1_555 1_555
C45_6 C34_8 1_555 1_555
H25_6 C45_6 1_555 1_555
C46_5 C13_5 1_555 1_555
H26_5 C46_5 1_555 1_555
O15_7 Zr7 1_555 1_555
O22_4 Zr7 1_555 1_555
O26_7 Zr7 1_555 1_555
C6_6 C7_6 1_555 1_555
C19_6 C20_6 1_555 1_555
C20_6 C21_6 1_555 1_555
C21_6 C22_6 1_555 1_555
C35_8 C36_5 1_555 1_555
C35_8 C46_5 1_555 1_555
C44_6 C45_6 1_555 1_555
O22_4 Zr11_3 1_555 1_555
O19_5 C24_6 1_555 1_555
C24_6 O27_2 1_555 1_555
C25_6 C24_6 1_555 1_555
C26_6 C25_6 1_555 1_555
C27_6 C25_6 1_555 1_555
H14_6 C26_6 1_555 1_555
C28_6 C26_6 1_555 1_555
C29_6 C27_6 1_555 1_555
H15_6 C27_6 1_555 1_555
C30_6 C28_6 1_555 1_555
H17_6 C29_6 1_555 1_555
H18_8 C32_8 1_555 1_555
O19_3 C37_6 1_555 1_555
C37_6 O11_6 1_555 1_555
O11_6 Zr11_3 1_555 1_555
C38_6 C37_6 1_555 1_555
C39_6 C38_6 1_555 1_555
C40_6 C38_6 1_555 1_555
H21_6 C39_6 1_555 1_555
C41_6 C39_6 1_555 1_555
C42_6 C40_6 1_555 1_555
H22_6 C40_6 1_555 1_555
C43_6 C41_6 1_555 1_555
H24_6 C42_6 1_555 1_555
Zr11_3 O13_8 1_555 1_555
O16_8 Zr11_3 1_555 1_555
C29_6 C30_6 1_555 1_555
C42_6 C43_6 1_555 1_555
H5_9 C9_9 1_555 1_555
C12_9 C11_9 1_555 1_555
O6_6 C14_7 1_555 1_555
C14_7 O26_7 1_555 1_555
C15_7 C14_7 1_555 1_555
C16_7 C15_7 1_555 1_555
C17_7 C15_7 1_555 1_555
H8_7 C16_7 1_555 1_555
C18_7 C16_7 1_555 1_555
C19_7 C17_7 1_555 1_555
H9_7 C17_7 1_555 1_555
H10_7 C18_7 1_555 1_555
C20_7 C18_7 1_555 1_555
H11_7 C19_7 1_555 1_555
C21_7 C9_9 1_555 1_555
C22_7 C11_9 1_555 1_555
H12_7 C22_7 1_555 1_555
C23_6 C12_9 1_555 1_555
H13_6 C23_6 1_555 1_555
O8_6 C24_7 1_555 1_555
C24_7 O27_3 1_555 1_555
C25_7 C24_7 1_555 1_555
C26_7 C25_7 1_555 1_555
C27_7 C25_7 1_555 1_555
H14_7 C26_7 1_555 1_555
C28_7 C26_7 1_555 1_555
C29_7 C27_7 1_555 1_555
H15_7 C27_7 1_555 1_555
H16_7 C28_7 1_555 1_555
C30_7 C28_7 1_555 1_555
H17_7 C29_7 1_555 1_555
C31_7 C30_7 1_555 1_555
C32_9 C31_7 1_555 1_555
C33_7 C31_7 1_555 1_555
H18_9 C32_9 1_555 1_555
H19_7 C33_7 1_555 1_555
C34_9 C33_7 1_555 1_555
C35_9 C34_9 1_555 1_555
C36_6 C23_6 1_555 1_555
H20_6 C36_6 1_555 1_555
Zr6_5 O8_6 1_555 1_555
Zr6_4 O6_6 1_555 1_555
C19_7 C20_7 1_555 1_555
C20_7 C21_7 1_555 1_555
C21_7 C22_7 1_555 1_555
C29_7 C30_7 1_555 1_555
C35_9 C36_6 1_555 1_555
O17_6 C1_7 1_555 1_555
C1_7 O4_6 1_555 1_555
O4_6 Zr8_2 1_555 1_555
C2_7 C1_7 1_555 1_555
O5_8 Zr8_2 1_555 1_555
C3_7 C2_7 1_555 1_555
C4_7 C2_7 1_555 1_555
H1_7 C3_7 1_555 1_555
C5_7 C3_7 1_555 1_555
C6_7 C4_7 1_555 1_555
H2_7 C4_7 1_555 1_555
H3_7 C5_7 1_555 1_555
C7_7 C5_7 1_555 1_555
H4_7 C6_7 1_555 1_555
C8_7 C7_7 1_555 1_555
C9_10 C8_7 1_555 1_555
C10_7 C8_7 1_555 1_555
H5_10 C9_10 1_555 1_555
H6_7 C10_7 1_555 1_555
C11_10 C10_7 1_555 1_555
C12_10 C11_10 1_555 1_555
C13_6 C12_10 1_555 1_555
H7_6 C13_6 1_555 1_555
H18_10 C32_10 1_555 1_555
C35_10 C34_10 1_555 1_555
O19_6 C37_7 1_555 1_555
C37_7 O27_5 1_555 1_555
C38_7 C37_7 1_555 1_555
C39_7 C38_7 1_555 1_555
C40_7 C38_7 1_555 1_555
H21_7 C39_7 1_555 1_555
C41_7 C39_7 1_555 1_555
C42_7 C40_7 1_555 1_555
H22_7 C40_7 1_555 1_555
H23_7 C41_7 1_555 1_555
C43_7 C41_7 1_555 1_555
H24_7 C42_7 1_555 1_555
C44_7 C32_10 1_555 1_555
C45_7 C34_10 1_555 1_555
H25_7 C45_7 1_555 1_555
C46_6 C13_6 1_555 1_555
H26_6 C46_6 1_555 1_555
O15_8 Zr8_2 1_555 1_555
O26_8 Zr8_2 1_555 1_555
C6_7 C7_7 1_555 1_555
C35_10 C46_6 1_555 1_555
C42_7 C43_7 1_555 1_555
C43_7 C44_7 1_555 1_555
C44_7 C45_7 1_555 1_555
O19_4 C24_8 1_555 1_555
C24_8 O27_6 1_555 1_555
C25_8 C24_8 1_555 1_555
C26_8 C25_8 1_555 1_555
C27_8 C25_8 1_555 1_555
H14_8 C26_8 1_555 1_555
C28_8 C26_8 1_555 1_555
C29_8 C27_8 1_555 1_555
H15_8 C27_8 1_555 1_555
C30_8 C28_8 1_555 1_555
H17_8 C29_8 1_555 1_555
H18_11 C32_11 1_555 1_555
O19_2 C37_8 1_555 1_555
C37_8 O27_4 1_555 1_555
C38_8 C37_8 1_555 1_555
C39_8 C38_8 1_555 1_555
C40_8 C38_8 1_555 1_555
H21_8 C39_8 1_555 1_555
C41_8 C39_8 1_555 1_555
C42_8 C40_8 1_555 1_555
H22_8 C40_8 1_555 1_555
C43_8 C41_8 1_555 1_555
H24_8 C42_8 1_555 1_555
C29_8 C30_8 1_555 1_555
C42_8 C43_8 1_555 1_555
O17_2 C1_8 1_555 1_555
C1_8 O26_5 1_555 1_555
C2_8 C1_8 1_555 1_555
C3_8 C2_8 1_555 1_555
C4_8 C2_8 1_555 1_555
H1_8 C3_8 1_555 1_555
C5_8 C3_8 1_555 1_555
C6_8 C4_8 1_555 1_555
H2_8 C4_8 1_555 1_555
H3_8 C5_8 1_555 1_555
C7_8 C5_8 1_555 1_555
H4_8 C6_8 1_555 1_555
C8_8 C7_8 1_555 1_555
C9_11 C8_8 1_555 1_555
C10_8 C8_8 1_555 1_555
H5_11 C9_11 1_555 1_555
H6_8 C10_8 1_555 1_555
C11_11 C10_8 1_555 1_555
C12_11 C11_11 1_555 1_555
C13_7 C12_11 1_555 1_555
H7_7 C13_7 1_555 1_555
O17_4 C14_8 1_555 1_555
C14_8 O26_8 1_555 1_555
C15_8 C14_8 1_555 1_555
C16_8 C15_8 1_555 1_555
C17_8 C15_8 1_555 1_555
H8_8 C16_8 1_555 1_555
C18_8 C16_8 1_555 1_555
C19_8 C17_8 1_555 1_555
H9_8 C17_8 1_555 1_555
H10_8 C18_8 1_555 1_555
C20_8 C18_8 1_555 1_555
H11_8 C19_8 1_555 1_555
C21_8 C9_11 1_555 1_555
C22_8 C11_11 1_555 1_555
H12_8 C22_8 1_555 1_555
C23_7 C12_11 1_555 1_555
H13_7 C23_7 1_555 1_555
C33_8 C31_8 1_555 1_555
H19_8 C33_8 1_555 1_555
C34_11 C33_8 1_555 1_555
C35_11 C34_11 1_555 1_555
C36_7 C23_7 1_555 1_555
H20_7 C36_7 1_555 1_555
C45_8 C34_11 1_555 1_555
H25_8 C45_8 1_555 1_555
C46_7 C13_7 1_555 1_555
H26_7 C46_7 1_555 1_555
C6_8 C7_8 1_555 1_555
C19_8 C20_8 1_555 1_555
C20_8 C21_8 1_555 1_555
C21_8 C22_8 1_555 1_555
C35_11 C36_7 1_555 1_555
C35_11 C46_7 1_555 1_555
C44_8 C45_8 1_555 1_555
O25_3 Zr6_4 1_555 1_555
O24_3 Zr6_4 1_555 1_555
O22_4 Zr6_4 1_555 1_555
O21_2 Zr6_5 1_555 1_555
O25_4 Zr6_5 1_555 1_555
O24_4 Zr6_5 1_555 1_555
H5_12 C9_12 1_555 1_555
C12_12 C11_12 1_555 1_555
C23_8 C12_12 1_555 1_555
H13_8 C23_8 1_555 1_555
H18_12 C32_12 1_555 1_555
C35_12 C34_12 1_555 1_555
C36_8 C23_8 1_555 1_555
H20_8 C36_8 1_555 1_555
C35_12 C36_8 1_555 1_555
H5_13 C9_13 1_555 1_555
C12_13 C11_13 1_555 1_555
C13_8 C12_13 1_555 1_555
H7_8 C13_8 1_555 1_555
H18_13 C32_13 1_555 1_555
C35_13 C34_13 1_555 1_555
C46_8 C13_8 1_555 1_555
H26_8 C46_8 1_555 1_555
C35_13 C46_8 1_555 1_555

#END
