
###############################################################################
#
# This file contains modified crystal structure data generated from the
# MOF subset of the Cambridge Structural Database (CSD) v543 
# hosted by the Cambridge Crystallographic Data Centre (CCDC).
#
# This work is licensed under the Creative Commons
# Attribution-NonCommercial-ShareAlike 4.0 International License.
# To view a copy of this license, visit
# http://creativecommons.org/licenses/by-nc-sa/4.0/
# or send a letter to
# Creative Commons, PO Box 1866, Mountain View, CA 94042, USA.
#
# CIF created using the CSD Python API on 29 September 2022
# The structure has been converted into the P1 space group
# The structure has a 3D framework
# The original CSD entry GAZLAW is in the orthorhombic crystal system
# The original CSD entry GAZLAW is in a Sohncke space group
# The framework has been calculated to contain at least 10.0% void space
# The void calculation uses a probe of radius 1.32A, grid spacing 0.4
# H atom positions have been added when not included in the experimental data
#
###############################################################################

data_GAZLAW
_chemical_formula_moiety         '(C84 H140 Co4 Na4 O68)n'
_symmetry_cell_setting           triclinic
_symmetry_space_group_name_H-M   'P 1'
_symmetry_Int_Tables_number      1
_space_group_name_Hall           'P 1'
loop_
_symmetry_equiv_pos_site_id
_symmetry_equiv_pos_as_xyz
1 x,y,z
_cell_length_a                   14.9414(8)
_cell_length_b                   15.9918(9)
_cell_length_c                   16.0381(9)
_cell_angle_alpha                90
_cell_angle_beta                 90
_cell_angle_gamma                90
_cell_volume                     3832.14
loop_
_atom_site_label
_atom_site_type_symbol
_atom_site_fract_x
_atom_site_fract_y
_atom_site_fract_z
O1 O 0.73188(14) 0.09589(12) 0.35551(13)
O4 O 0.40565(10) 0.26372(10) 0.05233(11)
H1 H 0.4089 0.3133 0.0399
C1 C 0.36885(13) 0.12356(15) 0.00075(14)
C3 C 0.20699(14) 0.14226(15) 0.03583(15)
H5 H 0.1623 0.1323 0.0785
C4 C 0.29616(15) 0.10490(14) 0.06380(15)
H6 H 0.3130 0.1291 0.1177
H11 H 0.6095 0.0394 0.1025
H13 H 0.6017 0.0319 0.2621
C12 C 0.76551(15) 0.02687(16) 0.18745(15)
H16 H 0.7454 0.0845 0.1885
H17 H 0.8304 0.0269 0.1901
O5 O 0.45026(10) 0.09150(11) 0.03428(11)
O12 O 0.29120(11) 0.01583(11) 0.07182(13)
H24 H 0.7584 0.0180 0.0590
H27 H 0.2784(18) 0.0031(18) 0.1168(18)
H30 H 0.2890(13) 0.276(2) 0.108(2)
H33 H 0.4997(13) 0.1123(16) 0.0132(16)
O14 O 0.23644(10) 0.27855(11) 0.09577(10)
O18 O 0.09101(10) 0.33078(10) 0.03343(11)
C16 C 0.75982(16) 0.02400(16) 0.34366(16)
C18 C 0.21423(14) 0.23532(15) 0.01981(15)
Co2 Co 0.144210(19) 0.36676(2) 0.145110(19)
C8 C 0.63310(15) 0.98219(15) 0.10229(14)
C10 C 0.62636(15) 0.97594(17) 0.25820(15)
H14 H 0.6039 0.9438 0.3050
C11 C 0.59525(15) 0.93548(16) 0.17692(14)
H15 H 0.6151 0.8771 0.1753
O6 O 0.60320(11) 0.94094(11) 0.02874(11)
O8 O 0.77501(10) 0.90408(11) 0.10683(11)
H21 H 0.7605 0.8791 0.0643
O10 O 0.49901(11) 0.93869(13) 0.17027(12)
C15 C 0.73542(15) 0.98592(16) 0.10655(15)
Na1 Na 0.43793(6) 0.94699(6) 0.03770(6)
H28 H 0.765(2) 0.880(2) 0.219(2)
H31 H 0.481(2) 0.914(2) 0.205(2)
Co1 Co 0.855790(19) 0.86676(2) 0.354890(19)
O13 O 0.81476(10) 0.98478(11) 0.39059(10)
O16 O 0.76323(11) 0.89586(11) 0.26588(12)
C21 C 0.72796(15) 0.98060(15) 0.26327(15)
H34 H 0.8745(18) 0.7186(12) 0.2781(18)
H35 H 0.7110(13) 0.776(2) 0.392(2)
O19 O 0.76356(10) 0.77855(11) 0.40423(10)
O20 O 0.98170(10) 0.90339(10) 0.31139(10)
O21 O 0.89216(10) 0.77007(11) 0.27655(11)
O22 O 0.90899(10) 0.83078(10) 0.46657(11)
H36 H 0.764979 0.786781 0.465584
H37 H 0.958338 0.766919 0.281301
C5 C 0.02258(14) 0.11487(13) 0.35938(15)
C7 C 0.07673(15) 0.19032(15) 0.38754(14)
H10 H 0.1376 0.1861 0.3651
C9 C 0.01149(15) 0.11487(15) 0.26450(15)
C13 C 0.03402(15) 0.27135(15) 0.35739(16)
H18 H 0.0718 0.3181 0.3731
O7 O 0.09602(11) 0.11070(11) 0.22215(10)
H20 H 0.1223 0.0679 0.2359
O9 O 0.08033(13) 0.18812(12) 0.47733(11)
O10_2 O 0.00099(11) 0.06131(13) 0.67027(12)
O11 O 0.06636(10) 0.04147(11) 0.38725(10)
Na1_2 Na 0.06207(6) 0.05301(6) 0.53770(6)
H25 H 0.1107(18) 0.2178(18) 0.4937(18)
H29 H 0.1255(18) 0.2186(12) 0.2219(18)
H31_2 H 0.019(2) 0.086(2) 0.705(2)
O15 O 0.01830(10) 0.40339(10) 0.18861(10)
O17 O 0.10784(10) 0.27007(11) 0.22345(11)
C20 C 0.02068(14) 0.27174(15) 0.26243(16)
O2 O 0.89588(11) 0.36184(12) 0.25657(13)
H7 H 0.9632 0.1176 0.3852
C6 C 0.96686(15) 0.19427(15) 0.23540(16)
H8 H 0.9070 0.1974 0.2586
H9 H 0.9617 0.1935 0.1751
C8_2 C 0.86690(15) 0.01781(15) 0.60229(14)
H12 H 0.9748 0.0669 0.2480
C10_2 C 0.87364(15) 0.02406(17) 0.75820(15)
H14_2 H 0.8961 0.0562 0.8050
C11_2 C 0.90475(15) 0.06452(16) 0.67692(14)
H15_2 H 0.8849 0.1229 0.6753
H19 H 0.9765 0.2785 0.3845
O6_2 O 0.89680(11) 0.05906(11) 0.52874(11)
O8_2 O 0.72499(10) 0.09592(11) 0.60683(11)
H21_2 H 0.7395 0.1209 0.5643
C15_2 C 0.76458(15) 0.01408(16) 0.60655(15)
H26 H 0.8719(19) 0.0382(19) 0.4958(18)
H28_2 H 0.735(2) 0.120(2) 0.719(2)
Co1_2 Co 0.644210(19) 0.13324(2) 0.854890(19)
O13_2 O 0.68524(10) 0.01522(11) 0.89059(10)
O16_2 O 0.73677(11) 0.10414(11) 0.76588(12)
C19 C 0.97430(15) 0.35214(15) 0.23417(16)
C21_2 C 0.77204(15) 0.01940(15) 0.76327(15)
H34_2 H 0.6255(18) 0.2814(12) 0.7781(18)
H35_2 H 0.7890(13) 0.224(2) 0.892(2)
O19_2 O 0.73644(10) 0.22145(11) 0.90423(10)
O20_2 O 0.51830(10) 0.09661(10) 0.81139(10)
O21_2 O 0.60784(10) 0.22993(11) 0.77655(11)
O22_2 O 0.59101(10) 0.16922(10) 0.96657(11)
H36_2 H 0.735021 0.213219 0.965584
H37_2 H 0.541662 0.233081 0.781301
O1_2 O 0.26812(14) 0.59589(12) 0.14449(13)
O2_2 O 0.39588(11) 0.13816(12) 0.74343(13)
O3 O 0.91268(10) 0.73993(12) 0.57073(11)
O4_2 O 0.59435(10) 0.76372(10) 0.44767(11)
H1_2 H 0.5911 0.8133 0.4601
C1_2 C 0.63115(13) 0.62356(15) 0.49925(14)
H2 H 0.6448 0.5936 0.5510
C2 C 0.62347(13) 0.71662(15) 0.51865(15)
H3 H 0.5798 0.7241 0.5637
C3_2 C 0.79301(14) 0.64226(15) 0.46417(15)
H4 H 0.8126 0.6145 0.5147
H5_2 H 0.8377 0.6323 0.4215
C4_2 C 0.70384(15) 0.60490(14) 0.43620(15)
H6_2 H 0.6870 0.6291 0.3823
C5_2 C 0.52258(14) 0.38513(13) 0.64062(15)
H7_2 H 0.4632 0.3824 0.6148
C6_2 C 0.46686(15) 0.30573(15) 0.76460(16)
H8_2 H 0.4070 0.3026 0.7414
H9_2 H 0.4617 0.3065 0.8249
C7_2 C 0.57673(15) 0.30968(15) 0.61246(14)
H10_2 H 0.6376 0.3139 0.6349
C8_3 C 0.36690(15) 0.48219(15) 0.39771(14)
H11_2 H 0.3905 0.5394 0.3975
C9_2 C 0.51149(15) 0.38513(15) 0.73550(15)
H12_2 H 0.4748 0.4331 0.7520
C10_3 C 0.37364(15) 0.47594(17) 0.24180(15)
H13_2 H 0.3983 0.5319 0.2379
H14_3 H 0.3961 0.4438 0.1950
C11_3 C 0.40475(15) 0.43548(16) 0.32308(14)
H15_3 H 0.3849 0.3771 0.3247
C12_2 C 0.23449(15) 0.52687(16) 0.31255(15)
H16_2 H 0.2546 0.5845 0.3115
H17_2 H 0.1696 0.5269 0.3099
C13_2 C 0.53402(15) 0.22865(15) 0.64261(16)
H18_2 H 0.5718 0.1819 0.6269
H19_2 H 0.4765 0.2215 0.6155
O5_2 O 0.54974(10) 0.59150(11) 0.46572(11)
O6_3 O 0.39680(11) 0.44094(11) 0.47126(11)
O7_2 O 0.59602(11) 0.38930(11) 0.77785(10)
H20_2 H 0.6223 0.4321 0.7641
O8_3 O 0.22499(10) 0.40408(11) 0.39317(11)
H21_3 H 0.2395 0.3791 0.4357
O9_2 O 0.58033(13) 0.31188(12) 0.52267(11)
O10_3 O 0.50099(11) 0.43869(13) 0.32973(12)
O11_2 O 0.56636(10) 0.45853(11) 0.61275(10)
O12_2 O 0.70880(11) 0.51583(11) 0.42818(13)
C14 C 0.71366(14) 0.75272(15) 0.54705(15)
H22 H 0.7312 0.7273 0.5995
H23 H 0.7080 0.8125 0.5557
C15_3 C 0.26458(15) 0.48592(16) 0.39345(15)
H24_2 H 0.2416 0.5180 0.4410
Na1_3 Na 0.56207(6) 0.44699(6) 0.46230(6)
H25_2 H 0.6107(18) 0.2822(18) 0.5063(18)
H26_2 H 0.3719(19) 0.4618(19) 0.5042(18)
H27_2 H 0.7216(18) 0.5031(18) 0.3832(18)
H28_3 H 0.235(2) 0.380(2) 0.281(2)
H31_3 H 0.519(2) 0.414(2) 0.295(2)
H32 H 0.5415(15) 0.5015(12) 0.6313(15)
H33_2 H 0.5003(13) 0.6123(16) 0.4868(16)
O13_3 O 0.18524(10) 0.48478(11) 0.10941(10)
O16_3 O 0.23677(11) 0.39586(11) 0.23412(12)
C16_2 C 0.24018(16) 0.52400(16) 0.15634(16)
C17 C 0.87593(14) 0.77098(16) 0.50931(15)
C18_2 C 0.78577(14) 0.73532(15) 0.48019(15)
C19_2 C 0.47430(15) 0.14786(15) 0.76583(16)
C20_2 C 0.52068(14) 0.22826(15) 0.73757(16)
C21_3 C 0.27204(15) 0.48060(15) 0.23673(15)
H36_3 H 0.235021 0.286781 0.0344156
H37_3 H 0.0416622 0.266919 0.218699
O3_2 O 0.58732(10) 0.26007(12) 0.07073(11)
H2_2 H 0.8552 0.4064 0.0510
C2_2 C 0.87653(13) 0.28338(15) 0.01865(15)
H3_2 H 0.9202 0.2759 0.0637
H4_2 H 0.6874 0.3855 0.0147
C5_3 C 0.97742(14) 0.61487(13) 0.14062(15)
C7_3 C 0.92327(15) 0.69032(15) 0.11246(14)
H10_3 H 0.8624 0.6861 0.1349
C9_3 C 0.98851(15) 0.61487(15) 0.23550(15)
C13_3 C 0.96598(15) 0.77135(15) 0.14261(16)
H18_3 H 0.9282 0.8181 0.1269
O7_3 O 0.90398(11) 0.61070(11) 0.27785(10)
H20_3 H 0.8777 0.5679 0.2641
O9_3 O 0.91967(13) 0.68812(12) 0.02267(11)
O11_3 O 0.93364(10) 0.54147(11) 0.11275(10)
C14_2 C 0.78634(14) 0.24728(15) 0.04705(15)
H22_2 H 0.7688 0.2727 0.0995
H23_2 H 0.7920 0.1875 0.0557
H25_3 H 0.8893(18) 0.7178(18) 0.0063(18)
H32_2 H 0.9585(15) 0.4985(12) 0.1313(15)
C17_2 C 0.62407(14) 0.22902(16) 0.00931(15)
C20_3 C 0.97932(14) 0.77174(15) 0.23757(16)
O4_3 O 0.90565(10) 0.23628(10) 0.94767(11)
H1_3 H 0.9089 0.1867 0.9601
C1_3 C 0.86885(13) 0.37644(15) 0.99925(14)
C3_3 C 0.70699(14) 0.35774(15) 0.96417(15)
H5_3 H 0.6623 0.3677 0.9215
C4_3 C 0.79616(15) 0.39510(14) 0.93620(15)
H6_3 H 0.8130 0.3709 0.8823
O5_3 O 0.95026(10) 0.40850(11) 0.96572(11)
O10_4 O 0.99901(11) 0.56131(13) 0.82973(12)
O12_3 O 0.79120(11) 0.48417(11) 0.92818(13)
Na1_4 Na 0.93793(6) 0.55301(6) 0.96230(6)
H27_3 H 0.7784(18) 0.4969(18) 0.8832(18)
H31_4 H 0.981(2) 0.586(2) 0.795(2)
H33_3 H 0.9997(13) 0.3877(16) 0.9868(16)
C18_3 C 0.71423(14) 0.26468(15) 0.98019(15)
O3_3 O 0.08732(10) 0.23993(12) 0.92927(11)
H2_3 H 0.3552 0.0936 0.9490
C2_3 C 0.37653(13) 0.21662(15) 0.98135(15)
H3_3 H 0.4202 0.2241 0.9363
H4_3 H 0.1874 0.1145 0.9853
C14_3 C 0.28634(14) 0.25272(15) 0.95295(15)
H22_3 H 0.2688 0.2273 0.9005
H23_3 H 0.2920 0.3125 0.9443
H32_3 H 0.4585(15) 0.0015(12) 0.8687(15)
C17_3 C 0.12407(14) 0.27098(16) 0.99069(15)
O2_3 O 0.60412(11) 0.63816(12) 0.75657(13)
C5_4 C 0.47742(14) 0.88513(13) 0.85938(15)
H7_3 H 0.5368 0.8824 0.8852
C6_3 C 0.53314(15) 0.80573(15) 0.73540(16)
H8_3 H 0.5930 0.8026 0.7586
H9_3 H 0.5383 0.8065 0.6751
C7_4 C 0.42327(15) 0.80968(15) 0.88754(14)
H10_4 H 0.3624 0.8139 0.8651
C9_4 C 0.48851(15) 0.88513(15) 0.76450(15)
H12_3 H 0.5252 0.9331 0.7480
C13_4 C 0.46598(15) 0.72865(15) 0.85739(16)
H18_4 H 0.4282 0.6819 0.8731
H19_3 H 0.5235 0.7215 0.8845
O7_4 O 0.40398(11) 0.88930(11) 0.72215(10)
H20_4 H 0.3777 0.9321 0.7359
O9_4 O 0.41967(13) 0.81188(12) 0.97733(11)
O11_4 O 0.43364(10) 0.95853(11) 0.88725(10)
H25_4 H 0.3893(18) 0.7822(18) 0.9937(18)
H26_3 H 0.6281(19) 0.9618(19) 0.9958(18)
H29_2 H 0.3745(18) 0.7814(12) 0.7219(18)
O15_2 O 0.48170(10) 0.59661(10) 0.68861(10)
O17_2 O 0.39216(10) 0.72993(11) 0.72345(11)
C19_3 C 0.52570(15) 0.64786(15) 0.73417(16)
C20_4 C 0.47932(14) 0.72826(15) 0.76243(16)
Co3 Co 0.355790(19) 0.63324(2) 0.645110(19)
O3_4 O 0.41268(10) 0.76007(12) 0.42927(11)
O4_4 O 0.09435(10) 0.73628(10) 0.55233(11)
H1_4 H 0.0911 0.6867 0.5399
C1_4 C 0.13115(13) 0.87644(15) 0.50075(14)
H2_4 H 0.1448 0.9064 0.4490
C2_4 C 0.12347(13) 0.78338(15) 0.48135(15)
H3_4 H 0.0798 0.7759 0.4363
C3_4 C 0.29301(14) 0.85774(15) 0.53583(15)
H4_4 H 0.3126 0.8855 0.4853
H5_4 H 0.3377 0.8677 0.5785
C4_4 C 0.20384(15) 0.89510(14) 0.56380(15)
H6_4 H 0.1870 0.8709 0.6177
O5_4 O 0.04974(10) 0.90850(11) 0.53428(11)
O12_4 O 0.20880(11) 0.98417(11) 0.57182(13)
C14_4 C 0.21366(14) 0.74728(15) 0.45295(15)
H22_4 H 0.2312 0.7727 0.4005
H23_4 H 0.2080 0.6875 0.4443
H27_4 H 0.2216(18) 0.9969(18) 0.6168(18)
H30_2 H 0.2110(13) 0.724(2) 0.608(2)
H32_4 H 0.0415(15) 0.9985(12) 0.3687(15)
H33_4 H 0.0003(13) 0.8877(16) 0.5132(16)
O14_2 O 0.26356(10) 0.72145(11) 0.59577(10)
O18_2 O 0.40899(10) 0.66922(10) 0.53343(11)
C17_4 C 0.37593(14) 0.72902(16) 0.49069(15)
C18_4 C 0.28577(14) 0.76468(15) 0.51981(15)
O1_3 O 0.23188(14) 0.40411(12) 0.64449(13)
C8_4 C 0.13310(15) 0.51781(15) 0.89771(14)
H11_3 H 0.1095 0.4606 0.8975
C10_4 C 0.12636(15) 0.52406(17) 0.74180(15)
H13_3 H 0.1017 0.4681 0.7379
H14_4 H 0.1039 0.5562 0.6950
C11_4 C 0.09525(15) 0.56452(16) 0.82308(14)
H15_4 H 0.1151 0.6229 0.8247
C12_3 C 0.26551(15) 0.47313(16) 0.81255(15)
H16_3 H 0.2454 0.4155 0.8115
H17_3 H 0.3304 0.4731 0.8099
O6_4 O 0.10320(11) 0.55906(11) 0.97126(11)
O8_4 O 0.27501(10) 0.59592(11) 0.89317(11)
H21_4 H 0.2605 0.6209 0.9357
C15_4 C 0.23542(15) 0.51408(16) 0.89345(15)
H24_3 H 0.2584 0.4820 0.9410
H28_4 H 0.265(2) 0.620(2) 0.781(2)
O13_4 O 0.31476(10) 0.51522(11) 0.60941(10)
O16_4 O 0.26323(11) 0.60414(11) 0.73412(12)
C16_3 C 0.25982(16) 0.47600(16) 0.65634(16)
C21_4 C 0.22796(15) 0.51940(15) 0.73673(15)
H36_4 H 0.264979 0.713219 0.534416
H37_4 H 0.458338 0.733081 0.718699
O1_4 O 0.76812(14) 0.90411(12) 0.85551(13)
H11_4 H 0.8905 0.9606 0.6025
H13_4 H 0.8983 0.9681 0.7621
C12_4 C 0.73449(15) 0.97313(16) 0.68745(15)
H16_4 H 0.7546 0.9155 0.6885
H17_4 H 0.6696 0.9731 0.6901
H24_4 H 0.7416 0.9820 0.5590
C16_4 C 0.74018(16) 0.97600(16) 0.84366(16)
O2_4 O 0.10412(11) 0.86184(12) 0.24343(13)
H7_4 H 0.0368 0.6176 0.1148
C6_4 C 0.03314(15) 0.69427(15) 0.26460(16)
H8_4 H 0.0930 0.6974 0.2414
H9_4 H 0.0383 0.6935 0.3249
H12_4 H 0.0252 0.5669 0.2520
H19_4 H 0.0235 0.7785 0.1155
H26_4 H 0.1281(19) 0.5382(19) 0.0042(18)
C19_4 C 0.02570(15) 0.85214(15) 0.26583(16)
loop_
_geom_bond_atom_site_label_1
_geom_bond_atom_site_label_2
_geom_bond_site_symmetry_1
_geom_bond_site_symmetry_2
O1 C16 1_555 1_555
O4 H1 1_555 1_555
H5 C3 1_555 1_555
C4 C1 1_555 1_555
H6 C4 1_555 1_555
C12 H16 1_555 1_555
H17 C12 1_555 1_555
O5 C1 1_555 1_555
O12 C4 1_555 1_555
H27 O12 1_555 1_555
H30 O14 1_555 1_555
H33 O5 1_555 1_555
O14 C18 1_555 1_555
C18 C3 1_555 1_555
Co2 O14 1_555 1_555
C3 C4 1_555 1_555
O18 Co2 1_555 1_555
H14 C10 1_555 1_555
C11 C8 1_555 1_555
H15 C11 1_555 1_555
O6 C8 1_555 1_555
O8 H21 1_555 1_555
O10 C11 1_555 1_555
C15 C8 1_555 1_555
H28 O16 1_555 1_555
H31 O10 1_555 1_555
Co1 O13 1_555 1_555
O16 Co1 1_555 1_555
C21 C10 1_555 1_555
H34 O21 1_555 1_555
H35 O19 1_555 1_555
O19 Co1 1_555 1_555
O20 Co1 1_555 1_555
O21 Co1 1_555 1_555
O22 Co1 1_555 1_555
C10 C11 1_555 1_555
O6 Na1 1_555 1_555
O8 C15 1_555 1_555
O10 Na1 1_555 1_555
O16 C21 1_555 1_555
O19 H36 1_555 1_555
O21 H37 1_555 1_555
C7 C5 1_555 1_555
H10 C7 1_555 1_555
C9 C5 1_555 1_555
C13 C7 1_555 1_555
H18 C13 1_555 1_555
O7 C9 1_555 1_555
H20 O7 1_555 1_555
O9 C7 1_555 1_555
O11 C5 1_555 1_555
H25 O9 1_555 1_555
H29 O17 1_555 1_555
H31_2 O10_2 1_555 1_555
O17 C20 1_555 1_555
Co2 O15 1_555 1_555
C13 C20 1_555 1_555
O9 Na1_2 1_555 1_555
O10_2 Na1_2 1_555 1_555
O11 Na1_2 1_555 1_555
O17 Co2 1_555 1_555
O2 C19 1_555 1_555
C6 H8 1_555 1_555
H9 C6 1_555 1_555
H14_2 C10_2 1_555 1_555
C11_2 C8_2 1_555 1_555
H15_2 C11_2 1_555 1_555
O6_2 C8_2 1_555 1_555
O8_2 H21_2 1_555 1_555
C15_2 C8_2 1_555 1_555
H26 O6_2 1_555 1_555
H28_2 O16_2 1_555 1_555
Co1_2 O13_2 1_555 1_555
O16_2 Co1_2 1_555 1_555
C21_2 C10_2 1_555 1_555
H34_2 O21_2 1_555 1_555
H35_2 O19_2 1_555 1_555
O19_2 Co1_2 1_555 1_555
O20_2 Co1_2 1_555 1_555
O21_2 Co1_2 1_555 1_555
O22_2 Co1_2 1_555 1_555
C10_2 C11_2 1_555 1_555
O8_2 C15_2 1_555 1_555
O16_2 C21_2 1_555 1_555
O19_2 H36_2 1_555 1_555
O21_2 H37_2 1_555 1_555
O1_2 C16_2 1_555 1_555
O2_2 C19_2 1_555 1_555
O3 C17 1_555 1_555
O4_2 H1_2 1_555 1_555
C1_2 H2 1_555 1_555
C2 O4_2 1_555 1_555
H3 C2 1_555 1_555
C3_2 H4 1_555 1_555
H5_2 C3_2 1_555 1_555
C4_2 C1_2 1_555 1_555
H6_2 C4_2 1_555 1_555
C5_2 H7_2 1_555 1_555
C6_2 H8_2 1_555 1_555
H9_2 C6_2 1_555 1_555
C7_2 C5_2 1_555 1_555
H10_2 C7_2 1_555 1_555
C8_3 H11_2 1_555 1_555
C9_2 C5_2 1_555 1_555
H12_2 C9_2 1_555 1_555
C10_3 H13_2 1_555 1_555
H14_3 C10_3 1_555 1_555
C11_3 C8_3 1_555 1_555
H15_3 C11_3 1_555 1_555
C12_2 H16_2 1_555 1_555
H17_2 C12_2 1_555 1_555
C13_2 C7_2 1_555 1_555
H18_2 C13_2 1_555 1_555
H19_2 C13_2 1_555 1_555
O5_2 C1_2 1_555 1_555
O6_3 C8_3 1_555 1_555
O7_2 C9_2 1_555 1_555
H20_2 O7_2 1_555 1_555
O8_3 H21_3 1_555 1_555
O9_2 C7_2 1_555 1_555
O10_3 C11_3 1_555 1_555
O11_2 C5_2 1_555 1_555
O12_2 C4_2 1_555 1_555
C14 C2 1_555 1_555
H22 C14 1_555 1_555
H23 C14 1_555 1_555
C15_3 C8_3 1_555 1_555
H24_2 C15_3 1_555 1_555
Na1_3 O5_2 1_555 1_555
H25_2 O9_2 1_555 1_555
H26_2 O6_3 1_555 1_555
H27_2 O12_2 1_555 1_555
H28_3 O16_3 1_555 1_555
H31_3 O10_3 1_555 1_555
H32 O11_2 1_555 1_555
H33_2 O5_2 1_555 1_555
Co2 O13_3 1_555 1_555
O13_3 C16_2 1_555 1_555
O19 C18_2 1_555 1_555
O20_2 C19_2 1_555 1_555
O16_3 Co2 1_555 1_555
O21_2 C20_2 1_555 1_555
O22 C17 1_555 1_555
C16_2 C21_3 1_555 1_555
C17 C18_2 1_555 1_555
C18_2 C3_2 1_555 1_555
C19_2 C20_2 1_555 1_555
C20_2 C6_2 1_555 1_555
C21_3 C10_3 1_555 1_555
C1_2 C2 1_555 1_555
C3_2 C4_2 1_555 1_555
C6_2 C9_2 1_555 1_555
C10_3 C11_3 1_555 1_555
C12_2 C15_3 1_555 1_555
C12_2 C21_3 1_555 1_555
C13_2 C20_2 1_555 1_555
O6_3 Na1_3 1_555 1_555
O8_3 C15_3 1_555 1_555
O9_2 Na1_3 1_555 1_555
O10_3 Na1_3 1_555 1_555
O11_2 Na1_3 1_555 1_555
O12_2 Na1_3 1_555 1_555
C14 C18_2 1_555 1_555
O16_3 C21_3 1_555 1_555
O14 H36_3 1_555 1_555
O17 H37_3 1_555 1_555
O3_2 C17_2 1_555 1_555
H3_2 C2_2 1_555 1_555
C7_3 C5_3 1_555 1_555
H10_3 C7_3 1_555 1_555
C9_3 C5_3 1_555 1_555
C13_3 C7_3 1_555 1_555
H18_3 C13_3 1_555 1_555
O7_3 C9_3 1_555 1_555
H20_3 O7_3 1_555 1_555
O9_3 C7_3 1_555 1_555
O11_3 C5_3 1_555 1_555
C14_2 C2_2 1_555 1_555
H22_2 C14_2 1_555 1_555
H23_2 C14_2 1_555 1_555
H25_3 O9_3 1_555 1_555
H32_2 O11_3 1_555 1_555
O21 C20_3 1_555 1_555
C13_3 C20_3 1_555 1_555
O4_3 H1_3 1_555 1_555
H5_3 C3_3 1_555 1_555
C4_3 C1_3 1_555 1_555
H6_3 C4_3 1_555 1_555
O5_3 C1_3 1_555 1_555
O12_3 C4_3 1_555 1_555
Na1_4 O5_3 1_555 1_555
H27_3 O12_3 1_555 1_555
H31_4 O10_4 1_555 1_555
H33_3 O5_3 1_555 1_555
O19_2 C18_3 1_555 1_555
C18_3 C3_3 1_555 1_555
C3_3 C4_3 1_555 1_555
O10_4 Na1_4 1_555 1_555
O12_3 Na1_4 1_555 1_555
O3_3 C17_3 1_555 1_555
H3_3 C2_3 1_555 1_555
C14_3 C2_3 1_555 1_555
H22_3 C14_3 1_555 1_555
H23_3 C14_3 1_555 1_555
O2_3 C19_3 1_555 1_555
C5_4 H7_3 1_555 1_555
C6_3 H8_3 1_555 1_555
H9_3 C6_3 1_555 1_555
C7_4 C5_4 1_555 1_555
H10_4 C7_4 1_555 1_555
C9_4 C5_4 1_555 1_555
H12_3 C9_4 1_555 1_555
C13_4 C7_4 1_555 1_555
H18_4 C13_4 1_555 1_555
H19_3 C13_4 1_555 1_555
O7_4 C9_4 1_555 1_555
H20_4 O7_4 1_555 1_555
O9_4 C7_4 1_555 1_555
O11_4 C5_4 1_555 1_555
H25_4 O9_4 1_555 1_555
H29_2 O17_2 1_555 1_555
O15_2 C19_3 1_555 1_555
O17_2 C20_4 1_555 1_555
C19_3 C20_4 1_555 1_555
C20_4 C6_3 1_555 1_555
Co3 O15_2 1_555 1_555
C6_3 C9_4 1_555 1_555
C13_4 C20_4 1_555 1_555
O17_2 Co3 1_555 1_555
O3_4 C17_4 1_555 1_555
O4_4 H1_4 1_555 1_555
C1_4 H2_4 1_555 1_555
C2_4 O4_4 1_555 1_555
H3_4 C2_4 1_555 1_555
C3_4 H4_4 1_555 1_555
H5_4 C3_4 1_555 1_555
C4_4 C1_4 1_555 1_555
H6_4 C4_4 1_555 1_555
O5_4 C1_4 1_555 1_555
O12_4 C4_4 1_555 1_555
C14_4 C2_4 1_555 1_555
H22_4 C14_4 1_555 1_555
H23_4 C14_4 1_555 1_555
H27_4 O12_4 1_555 1_555
H30_2 O14_2 1_555 1_555
H33_4 O5_4 1_555 1_555
O14_2 C18_4 1_555 1_555
O18_2 C17_4 1_555 1_555
C17_4 C18_4 1_555 1_555
C18_4 C3_4 1_555 1_555
Co3 O14_2 1_555 1_555
C1_4 C2_4 1_555 1_555
C3_4 C4_4 1_555 1_555
C14_4 C18_4 1_555 1_555
O18_2 Co3 1_555 1_555
O1_3 C16_3 1_555 1_555
C8_4 H11_3 1_555 1_555
C10_4 H13_3 1_555 1_555
H14_4 C10_4 1_555 1_555
C11_4 C8_4 1_555 1_555
H15_4 C11_4 1_555 1_555
C12_3 H16_3 1_555 1_555
H17_3 C12_3 1_555 1_555
O6_4 C8_4 1_555 1_555
O8_4 H21_4 1_555 1_555
C15_4 C8_4 1_555 1_555
H24_3 C15_4 1_555 1_555
H28_4 O16_4 1_555 1_555
Co3 O13_4 1_555 1_555
O13_4 C16_3 1_555 1_555
O16_4 Co3 1_555 1_555
C16_3 C21_4 1_555 1_555
C21_4 C10_4 1_555 1_555
C10_4 C11_4 1_555 1_555
C12_3 C15_4 1_555 1_555
C12_3 C21_4 1_555 1_555
O8_4 C15_4 1_555 1_555
O16_4 C21_4 1_555 1_555
O14_2 H36_4 1_555 1_555
O17_2 H37_4 1_555 1_555
O1_4 C16_4 1_555 1_555
C12_4 H16_4 1_555 1_555
H17_4 C12_4 1_555 1_555
O2_4 C19_4 1_555 1_555
C6_4 H8_4 1_555 1_555
H9_4 C6_4 1_555 1_555

#END
