
###############################################################################
#
# This file contains modified crystal structure data generated from the
# MOF subset of the Cambridge Structural Database (CSD) v543 
# hosted by the Cambridge Crystallographic Data Centre (CCDC).
#
# This work is licensed under the Creative Commons
# Attribution-NonCommercial-ShareAlike 4.0 International License.
# To view a copy of this license, visit
# http://creativecommons.org/licenses/by-nc-sa/4.0/
# or send a letter to
# Creative Commons, PO Box 1866, Mountain View, CA 94042, USA.
#
# CIF created using the CSD Python API on 29 September 2022
# The structure has been converted into the P1 space group
# The structure has a 3D framework
# The original CSD entry GAZZIS01 is in the monoclinic crystal system
# The framework has been calculated to contain at least 10.0% void space
# The void calculation uses a probe of radius 1.32A, grid spacing 0.4
#
###############################################################################

data_GAZZIS01
_chemical_formula_moiety         '(C334 H240 In8 N8 O48)n'
_symmetry_cell_setting           triclinic
_symmetry_space_group_name_H-M   'P 1'
_symmetry_Int_Tables_number      1
_space_group_name_Hall           'P 1'
loop_
_symmetry_equiv_pos_site_id
_symmetry_equiv_pos_as_xyz
1 x,y,z
_cell_length_a                   19.812(6)
_cell_length_b                   28.409(8)
_cell_length_c                   26.330(8)
_cell_angle_alpha                90
_cell_angle_beta                 97.863(4)
_cell_angle_gamma                90
_cell_volume                     14680.2
loop_
_atom_site_label
_atom_site_type_symbol
_atom_site_fract_x
_atom_site_fract_y
_atom_site_fract_z
In1 In 0.885670(9) 0.253030(6) 0.115830(7)
O5 O 0.83231(10) 0.18074(7) 0.11692(8)
O6 O 0.78827(10) 0.23777(7) 0.06664(7)
C1 C 0.04721(14) 0.20602(10) 0.04941(11)
C4 C 0.16662(14) 0.18561(11) 0.00728(11)
C5 C 0.16271(17) 0.17943(14) 0.05819(13)
H3 H 0.2016 0.1680 0.0798
C6 C 0.10478(17) 0.18902(13) 0.07943(13)
H4 H 0.1042 0.1839 0.1150
C13 C 0.71743(14) 0.17152(10) 0.07446(12)
C14 C 0.70369(15) 0.13254(12) 0.10368(13)
H9 H 0.7377 0.1207 0.1294
C15 C 0.63993(15) 0.11105(11) 0.09499(13)
H10 H 0.6304 0.0848 0.1151
C16 C 0.58995(14) 0.12792(10) 0.05688(12)
C17 C 0.60599(14) 0.16533(10) 0.02660(12)
C18 C 0.66910(14) 0.18720(10) 0.03547(11)
H12 H 0.6790 0.2130 0.0147
C28 C 0.28263(15) 0.14898(11) 0.01135(11)
H18 H 0.2763 0.1352 0.0432
C31 C 0.44480(15) 0.03979(11) 0.05665(12)
C32 C 0.39010(14) 0.06775(11) 0.03504(12)
H20 H 0.3452 0.0553 0.0315
C33 C 0.40032(14) 0.11330(10) 0.01879(11)
C34 C 0.46512(14) 0.13224(10) 0.02563(11)
H21 H 0.4720 0.1634 0.0144
C35 C 0.52018(14) 0.10640(11) 0.04856(12)
C36 C 0.50975(15) 0.05986(11) 0.06318(12)
H22 H 0.5476 0.0416 0.0778
C39 C 0.78373(14) 0.19722(10) 0.08624(11)
O9 O 0.98415(9) 0.21414(7) 0.12039(7)
O10 O 0.93501(10) 0.23806(8) 0.04469(8)
O11 O 0.89092(13) 0.25781(8) 0.19625(9)
O12 O 0.84838(11) 0.32626(7) 0.09846(10)
O13 O 0.95768(11) 0.31849(8) 0.11903(10)
C41 C 0.98581(14) 0.21933(10) 0.07245(11)
C42 C 0.90752(16) 0.34418(11) 0.10491(12)
O3 O 0.39092(13) 0.24219(8) 0.69625(9)
O4 O 0.27883(14) 0.23607(10) 0.67334(9)
C2 C 0.04944(17) 0.21188(17) 0.99797(14)
H1 H 0.0102 0.2231 0.9766
C3 C 0.10809(18) 0.20167(18) 0.97635(14)
H2 H 0.1084 0.2056 0.9406
C7 C 0.32221(17) 0.22641(12) 0.76146(11)
C8 C 0.37859(16) 0.22522(12) 0.79971(12)
H5 H 0.4224 0.2330 0.7915
C9 C 0.37126(15) 0.21295(11) 0.84896(11)
H6 H 0.4104 0.2114 0.8742
C10 C 0.30736(15) 0.20276(11) 0.86266(11)
C11 C 0.25124(17) 0.20593(13) 0.82490(12)
H7 H 0.2070 0.2001 0.8336
C12 C 0.25845(17) 0.21731(13) 0.77534(12)
H8 H 0.2193 0.2190 0.7502
H11 H 0.5732 0.1761 0.9994
C25 C 0.29958(14) 0.18683(11) 0.91561(11)
C26 C 0.35165(15) 0.16091(11) 0.94368(11)
H17 H 0.3932 0.1562 0.9301
C27 C 0.34393(14) 0.14166(10) 0.99158(11)
C29 C 0.23062(15) 0.17634(11) 0.98469(11)
C30 C 0.24012(15) 0.19544(11) 0.93696(11)
H19 H 0.2055 0.2145 0.9189
C38 C 0.3298(2) 0.23555(12) 0.70631(13)
In2 In 0.385670(9) 0.246970(6) 0.615830(7)
O7 O 0.34838(11) 0.82626(7) 0.09846(10)
O8 O 0.45768(11) 0.81849(8) 0.11903(10)
C19 C 0.41634(15) 0.89484(10) 0.09436(12)
C20 C 0.43486(15) 0.99010(10) 0.07064(12)
C21 C 0.3666(3) 0.9183(2) 0.0605(3)
H13 H 0.3264 0.9024 0.0458
C22 C 0.3773(3) 0.9648(2) 0.0489(2)
H14 H 0.3442 0.9803 0.0251
C23 C 0.4864(3) 0.9643(2) 0.1018(3)
H15 H 0.5278 0.9795 0.1147
C24 C 0.4778(3) 0.9182(2) 0.1136(3)
H16 H 0.5128 0.9018 0.1347
C40 C 0.40752(16) 0.84418(11) 0.10491(12)
In4 In 0.385670(9) 0.753030(6) 0.115830(7)
O5_2 O 0.33231(10) 0.68074(7) 0.11692(8)
O6_2 O 0.28827(10) 0.73777(7) 0.06664(7)
C13_2 C 0.21743(14) 0.67152(10) 0.07446(12)
C14_2 C 0.20369(15) 0.63254(12) 0.10368(13)
H9_2 H 0.2377 0.6207 0.1294
C15_2 C 0.13993(15) 0.61105(11) 0.09499(13)
H10_2 H 0.1304 0.5848 0.1151
C16_2 C 0.08995(14) 0.62792(10) 0.05688(12)
C17_2 C 0.10599(14) 0.66533(10) 0.02660(12)
C18_2 C 0.16910(14) 0.68720(10) 0.03547(11)
H12_2 H 0.1790 0.7130 0.0147
H15_2 H 0.0278 0.4795 0.1147
H16_2 H 0.0128 0.4018 0.1347
C35_2 C 0.02018(14) 0.60640(11) 0.04856(12)
C36_2 C 0.00975(15) 0.55986(11) 0.06318(12)
H22_2 H 0.0476 0.5416 0.0778
C39_2 C 0.28373(14) 0.69722(10) 0.08624(11)
O9_2 O 0.48415(9) 0.71414(7) 0.12039(7)
O10_2 O 0.43501(10) 0.73806(8) 0.04469(8)
O11_2 O 0.39092(13) 0.75781(8) 0.19625(9)
C41_2 C 0.48581(14) 0.71933(10) 0.07245(11)
C1_2 C 0.54721(14) 0.70602(10) 0.04941(11)
C4_2 C 0.66662(14) 0.68561(11) 0.00728(11)
C5_2 C 0.66271(17) 0.67943(14) 0.05819(13)
H3_2 H 0.7016 0.6680 0.0798
C6_2 C 0.60478(17) 0.68902(13) 0.07943(13)
H4_2 H 0.6042 0.6839 0.1150
C19_2 C 0.91634(15) 0.39484(10) 0.09436(12)
C20_2 C 0.93486(15) 0.49010(10) 0.07064(12)
C21_2 C 0.8666(3) 0.4183(2) 0.0605(3)
H13_2 H 0.8264 0.4024 0.0458
C22_2 C 0.8773(3) 0.4648(2) 0.0489(2)
H14_2 H 0.8442 0.4803 0.0251
C23_2 C 0.9864(3) 0.4643(2) 0.1018(3)
C24_2 C 0.9778(3) 0.4182(2) 0.1136(3)
C28_2 C 0.78263(15) 0.64898(11) 0.01135(11)
H18_2 H 0.7763 0.6352 0.0432
C31_2 C 0.94480(15) 0.53979(11) 0.05665(12)
C32_2 C 0.89010(14) 0.56775(11) 0.03504(12)
H20_2 H 0.8452 0.5553 0.0315
C33_2 C 0.90032(14) 0.61330(10) 0.01879(11)
C34_2 C 0.96512(14) 0.63224(10) 0.02563(11)
H21_2 H 0.9720 0.6634 0.0144
O3_2 O 0.89092(13) 0.74219(8) 0.69625(9)
O4_2 O 0.77883(14) 0.73607(10) 0.67334(9)
C2_2 C 0.54944(17) 0.71188(17) 0.99797(14)
H1_2 H 0.5102 0.7231 0.9766
C3_2 C 0.60809(18) 0.70167(18) 0.97635(14)
H2_2 H 0.6084 0.7056 0.9406
C7_2 C 0.82221(17) 0.72641(12) 0.76146(11)
C8_2 C 0.87859(16) 0.72522(12) 0.79971(12)
H5_2 H 0.9224 0.7330 0.7915
C9_2 C 0.87126(15) 0.71295(11) 0.84896(11)
H6_2 H 0.9104 0.7114 0.8742
C10_2 C 0.80736(15) 0.70276(11) 0.86266(11)
C11_2 C 0.75124(17) 0.70593(13) 0.82490(12)
H7_2 H 0.7070 0.7001 0.8336
C12_2 C 0.75845(17) 0.71731(13) 0.77534(12)
H8_2 H 0.7193 0.7190 0.7502
C25_2 C 0.79958(14) 0.68683(11) 0.91561(11)
C26_2 C 0.85165(15) 0.66091(11) 0.94368(11)
H17_2 H 0.8932 0.6562 0.9301
C27_2 C 0.84393(14) 0.64166(10) 0.99158(11)
C29_2 C 0.73062(15) 0.67634(11) 0.98469(11)
C30_2 C 0.74012(15) 0.69544(11) 0.93696(11)
H19_2 H 0.7055 0.7145 0.9189
C38_2 C 0.8298(2) 0.73555(12) 0.70631(13)
In2_2 In 0.885670(9) 0.746970(6) 0.615830(7)
O7_2 O 0.34838(11) 0.17374(7) 0.59846(10)
O8_2 O 0.45768(11) 0.18151(8) 0.61903(10)
C19_3 C 0.41634(15) 0.10516(10) 0.59436(12)
C20_3 C 0.43486(15) 0.00990(10) 0.57064(12)
C21_3 C 0.3666(3) 0.0817(2) 0.5605(3)
H13_3 H 0.3264 0.0976 0.5458
C22_3 C 0.3773(3) 0.0352(2) 0.5489(2)
H14_3 H 0.3442 0.0197 0.5251
C23_3 C 0.4864(3) 0.0357(2) 0.6018(3)
H15_3 H 0.5278 0.0205 0.6147
C24_3 C 0.4778(3) 0.0818(2) 0.6136(3)
H16_3 H 0.5128 0.0982 0.6347
C40_2 C 0.40752(16) 0.15582(11) 0.60491(12)
O4_3 O 0.27883(14) 0.76393(10) 0.17334(9)
O5_3 O 0.83231(10) 0.81926(7) 0.61692(8)
O6_3 O 0.78827(10) 0.76223(7) 0.56664(7)
C1_3 C 0.04721(14) 0.79398(10) 0.54941(11)
C2_3 C 0.04944(17) 0.78812(17) 0.49797(14)
H1_3 H 0.0102 0.7769 0.4766
C3_3 C 0.10809(18) 0.79833(18) 0.47635(14)
H2_3 H 0.1084 0.7944 0.4406
C4_3 C 0.16662(14) 0.81439(11) 0.50728(11)
C5_3 C 0.16271(17) 0.82057(14) 0.55819(13)
H3_3 H 0.2016 0.8320 0.5798
C6_3 C 0.10478(17) 0.81098(13) 0.57943(13)
H4_3 H 0.1042 0.8161 0.6150
C7_3 C 0.32221(17) 0.77359(12) 0.26146(11)
C8_3 C 0.37859(16) 0.77478(12) 0.29971(12)
H5_3 H 0.4224 0.7670 0.2915
C9_3 C 0.37126(15) 0.78705(11) 0.34896(11)
H6_3 H 0.4104 0.7886 0.3742
C10_3 C 0.30736(15) 0.79724(11) 0.36266(11)
C11_3 C 0.25124(17) 0.79407(13) 0.32490(12)
H7_3 H 0.2070 0.7999 0.3336
C12_3 C 0.25845(17) 0.78269(13) 0.27534(12)
H8_3 H 0.2193 0.7810 0.2502
C13_3 C 0.71743(14) 0.82848(10) 0.57446(12)
C14_3 C 0.70369(15) 0.86746(12) 0.60368(13)
H9_3 H 0.7377 0.8793 0.6294
C15_3 C 0.63993(15) 0.88895(11) 0.59499(13)
H10_3 H 0.6304 0.9152 0.6151
C16_3 C 0.58995(14) 0.87208(10) 0.55688(12)
C17_3 C 0.60599(14) 0.83467(10) 0.52660(12)
H11_2 H 0.5732 0.8239 0.4994
C18_3 C 0.66910(14) 0.81280(10) 0.53547(11)
H12_3 H 0.6790 0.7870 0.5147
C25_3 C 0.29958(14) 0.81317(11) 0.41561(11)
C26_3 C 0.35165(15) 0.83909(11) 0.44368(11)
H17_3 H 0.3932 0.8438 0.4301
C27_3 C 0.34393(14) 0.85834(10) 0.49158(11)
C28_3 C 0.28263(15) 0.85102(11) 0.51135(11)
H18_3 H 0.2763 0.8648 0.5432
C29_3 C 0.23062(15) 0.82366(11) 0.48469(11)
C30_3 C 0.24012(15) 0.80456(11) 0.43696(11)
H19_3 H 0.2055 0.7855 0.4189
C31_3 C 0.44480(15) 0.96021(11) 0.55665(12)
C32_3 C 0.39010(14) 0.93225(11) 0.53504(12)
H20_3 H 0.3452 0.9447 0.5315
C33_3 C 0.40032(14) 0.88670(10) 0.51879(11)
C34_3 C 0.46512(14) 0.86776(10) 0.52563(11)
H21_3 H 0.4720 0.8366 0.5144
C35_3 C 0.52018(14) 0.89360(11) 0.54856(12)
C36_3 C 0.50975(15) 0.94014(11) 0.56318(12)
H22_3 H 0.5476 0.9584 0.5778
C38_3 C 0.3298(2) 0.76445(12) 0.20631(13)
C39_3 C 0.78373(14) 0.80278(10) 0.58624(11)
O9_3 O 0.98415(9) 0.78586(7) 0.62039(7)
O10_3 O 0.93501(10) 0.76194(8) 0.54469(8)
O12_2 O 0.84838(11) 0.67374(7) 0.59846(10)
O13_2 O 0.95768(11) 0.68151(8) 0.61903(10)
C41_3 C 0.98581(14) 0.78067(10) 0.57245(11)
C42_2 C 0.90752(16) 0.65582(11) 0.60491(12)
O5_4 O 0.33231(10) 0.31926(7) 0.61692(8)
O6_4 O 0.28827(10) 0.26223(7) 0.56664(7)
C13_4 C 0.21743(14) 0.32848(10) 0.57446(12)
C14_4 C 0.20369(15) 0.36746(12) 0.60368(13)
H9_4 H 0.2377 0.3793 0.6294
C15_4 C 0.13993(15) 0.38895(11) 0.59499(13)
H10_4 H 0.1304 0.4152 0.6151
C16_4 C 0.08995(14) 0.37208(10) 0.55688(12)
C17_4 C 0.10599(14) 0.33467(10) 0.52660(12)
H11_3 H 0.0732 0.3239 0.4994
C18_4 C 0.16910(14) 0.31280(10) 0.53547(11)
H12_4 H 0.1790 0.2870 0.5147
H15_4 H 0.0278 0.5205 0.6147
H16_4 H 0.0128 0.5982 0.6347
C35_4 C 0.02018(14) 0.39360(11) 0.54856(12)
C36_4 C 0.00975(15) 0.44014(11) 0.56318(12)
H22_4 H 0.0476 0.4584 0.5778
C39_4 C 0.28373(14) 0.30278(10) 0.58624(11)
O9_4 O 0.48415(9) 0.28586(7) 0.62039(7)
O10_4 O 0.43501(10) 0.26194(8) 0.54469(8)
C41_4 C 0.48581(14) 0.28067(10) 0.57245(11)
O4_4 O 0.77883(14) 0.26393(10) 0.17334(9)
C1_4 C 0.54721(14) 0.29398(10) 0.54941(11)
C2_4 C 0.54944(17) 0.28812(17) 0.49797(14)
H1_4 H 0.5102 0.2769 0.4766
C3_4 C 0.60809(18) 0.29833(18) 0.47635(14)
H2_4 H 0.6084 0.2944 0.4406
C4_4 C 0.66662(14) 0.31439(11) 0.50728(11)
C5_4 C 0.66271(17) 0.32057(14) 0.55819(13)
H3_4 H 0.7016 0.3320 0.5798
C6_4 C 0.60478(17) 0.31098(13) 0.57943(13)
H4_4 H 0.6042 0.3161 0.6150
C7_4 C 0.82221(17) 0.27359(12) 0.26146(11)
C8_4 C 0.87859(16) 0.27478(12) 0.29971(12)
H5_4 H 0.9224 0.2670 0.2915
C9_4 C 0.87126(15) 0.28705(11) 0.34896(11)
H6_4 H 0.9104 0.2886 0.3742
C10_4 C 0.80736(15) 0.29724(11) 0.36266(11)
C11_4 C 0.75124(17) 0.29407(13) 0.32490(12)
H7_4 H 0.7070 0.2999 0.3336
C12_4 C 0.75845(17) 0.28269(13) 0.27534(12)
H8_4 H 0.7193 0.2810 0.2502
C19_4 C 0.91634(15) 0.60516(10) 0.59436(12)
C20_4 C 0.93486(15) 0.50990(10) 0.57064(12)
C21_4 C 0.8666(3) 0.5817(2) 0.5605(3)
H13_4 H 0.8264 0.5976 0.5458
C22_4 C 0.8773(3) 0.5352(2) 0.5489(2)
H14_4 H 0.8442 0.5197 0.5251
C23_4 C 0.9864(3) 0.5357(2) 0.6018(3)
C24_4 C 0.9778(3) 0.5818(2) 0.6136(3)
C25_4 C 0.79958(14) 0.31317(11) 0.41561(11)
C26_4 C 0.85165(15) 0.33909(11) 0.44368(11)
H17_4 H 0.8932 0.3438 0.4301
C27_4 C 0.84393(14) 0.35834(10) 0.49158(11)
C28_4 C 0.78263(15) 0.35102(11) 0.51135(11)
H18_4 H 0.7763 0.3648 0.5432
C29_4 C 0.73062(15) 0.32366(11) 0.48469(11)
C30_4 C 0.74012(15) 0.30456(11) 0.43696(11)
H19_4 H 0.7055 0.2855 0.4189
C31_4 C 0.94480(15) 0.46021(11) 0.55665(12)
C32_4 C 0.89010(14) 0.43225(11) 0.53504(12)
H20_4 H 0.8452 0.4447 0.5315
C33_4 C 0.90032(14) 0.38670(10) 0.51879(11)
C34_4 C 0.96512(14) 0.36776(10) 0.52563(11)
H21_4 H 0.9720 0.3366 0.5144
C38_4 C 0.8298(2) 0.26445(12) 0.20631(13)
O1 O 0.01585(9) 0.21414(7) 0.37961(7)
O2 O 0.06499(10) 0.23806(8) 0.45531(8)
C37 C 0.01419(14) 0.21933(10) 0.42755(11)
In3 In 0.114330(9) 0.253030(6) 0.384170(7)
O3_3 O 0.60908(13) 0.24219(8) 0.80375(9)
O4_5 O 0.72117(14) 0.23607(10) 0.82666(9)
O5_5 O 0.16769(10) 0.18074(7) 0.38308(8)
O6_5 O 0.21173(10) 0.23777(7) 0.43336(7)
C1_5 C 0.95279(14) 0.20602(10) 0.45059(11)
C2_5 C 0.95056(17) 0.21188(17) 0.50203(14)
H1_5 H 0.9898 0.2231 0.5234
C3_5 C 0.89191(18) 0.20167(18) 0.52365(14)
H2_5 H 0.8916 0.2056 0.5594
C4_5 C 0.83338(14) 0.18561(11) 0.49272(11)
C5_5 C 0.83729(17) 0.17943(14) 0.44181(13)
H3_5 H 0.7984 0.1680 0.4202
C6_5 C 0.89522(17) 0.18902(13) 0.42057(13)
H4_5 H 0.8958 0.1839 0.3850
C7_5 C 0.67779(17) 0.22641(12) 0.73854(11)
C8_5 C 0.62141(16) 0.22522(12) 0.70029(12)
H5_5 H 0.5776 0.2330 0.7085
C9_5 C 0.62874(15) 0.21295(11) 0.65104(11)
H6_5 H 0.5896 0.2114 0.6258
C10_5 C 0.69264(15) 0.20276(11) 0.63734(11)
C11_5 C 0.74876(17) 0.20593(13) 0.67510(12)
H7_5 H 0.7930 0.2001 0.6664
C12_5 C 0.74155(17) 0.21731(13) 0.72466(12)
H8_5 H 0.7807 0.2190 0.7498
C13_5 C 0.28257(14) 0.17152(10) 0.42554(12)
C14_5 C 0.29631(15) 0.13254(12) 0.39632(13)
H9_5 H 0.2623 0.1207 0.3706
C15_5 C 0.36007(15) 0.11105(11) 0.40501(13)
H10_5 H 0.3696 0.0848 0.3849
C16_5 C 0.41005(14) 0.12792(10) 0.44312(12)
C17_5 C 0.39401(14) 0.16533(10) 0.47340(12)
H11_4 H 0.4268 0.1761 0.5006
C18_5 C 0.33090(14) 0.18720(10) 0.46453(11)
H12_5 H 0.3210 0.2130 0.4853
C25_5 C 0.70042(14) 0.18683(11) 0.58439(11)
C26_5 C 0.64835(15) 0.16091(11) 0.55632(11)
H17_5 H 0.6068 0.1562 0.5699
C27_5 C 0.65607(14) 0.14166(10) 0.50842(11)
C28_5 C 0.71737(15) 0.14898(11) 0.48865(11)
H18_5 H 0.7237 0.1352 0.4568
C29_5 C 0.76938(15) 0.17634(11) 0.51531(11)
C30_5 C 0.75988(15) 0.19544(11) 0.56304(11)
H19_5 H 0.7945 0.2145 0.5811
C31_5 C 0.55520(15) 0.03979(11) 0.44335(12)
C32_5 C 0.60990(14) 0.06775(11) 0.46496(12)
H20_5 H 0.6548 0.0553 0.4685
C33_5 C 0.59968(14) 0.11330(10) 0.48121(11)
C34_5 C 0.53488(14) 0.13224(10) 0.47437(11)
H21_5 H 0.5280 0.1634 0.4856
C35_5 C 0.47982(14) 0.10640(11) 0.45144(12)
C36_5 C 0.49025(15) 0.05986(11) 0.43682(12)
H22_5 H 0.4524 0.0416 0.4222
C38_5 C 0.6702(2) 0.23555(12) 0.79369(13)
C39_5 C 0.21627(14) 0.19722(10) 0.41376(11)
In2_3 In 0.614330(9) 0.246970(6) 0.884170(7)
O11_3 O 0.10908(13) 0.25781(8) 0.30375(9)
O12_3 O 0.15162(11) 0.32626(7) 0.40154(10)
O13_3 O 0.04232(11) 0.31849(8) 0.38097(10)
C42_3 C 0.09248(16) 0.34418(11) 0.39509(12)
O7_3 O 0.65162(11) 0.82626(7) 0.40154(10)
O8_3 O 0.54232(11) 0.81849(8) 0.38097(10)
C19_5 C 0.58366(15) 0.89484(10) 0.40564(12)
C20_5 C 0.56514(15) 0.99010(10) 0.42936(12)
C21_5 C 0.6334(3) 0.9183(2) 0.4395(3)
H13_5 H 0.6736 0.9024 0.4542
C22_5 C 0.6227(3) 0.9648(2) 0.4511(2)
H14_5 H 0.6558 0.9803 0.4749
C23_5 C 0.5136(3) 0.9643(2) 0.3982(3)
H15_5 H 0.4722 0.9795 0.3853
C24_5 C 0.5222(3) 0.9182(2) 0.3864(3)
H16_5 H 0.4872 0.9018 0.3653
C40_3 C 0.59248(16) 0.84418(11) 0.39509(12)
In4_2 In 0.614330(9) 0.753030(6) 0.384170(7)
O1_2 O 0.51585(9) 0.71414(7) 0.37961(7)
O2_2 O 0.56499(10) 0.73806(8) 0.45531(8)
O3_4 O 0.10908(13) 0.74219(8) 0.80375(9)
O4_6 O 0.22117(14) 0.73607(10) 0.82666(9)
C1_6 C 0.45279(14) 0.70602(10) 0.45059(11)
C2_6 C 0.45056(17) 0.71188(17) 0.50203(14)
H1_6 H 0.4898 0.7231 0.5234
C3_6 C 0.39191(18) 0.70167(18) 0.52365(14)
H2_6 H 0.3916 0.7056 0.5594
C4_6 C 0.33338(14) 0.68561(11) 0.49272(11)
C5_6 C 0.33729(17) 0.67943(14) 0.44181(13)
H3_6 H 0.2984 0.6680 0.4202
C6_6 C 0.39522(17) 0.68902(13) 0.42057(13)
H4_6 H 0.3958 0.6839 0.3850
C7_6 C 0.17779(17) 0.72641(12) 0.73854(11)
C8_6 C 0.12141(16) 0.72522(12) 0.70029(12)
H5_6 H 0.0776 0.7330 0.7085
C9_6 C 0.12874(15) 0.71295(11) 0.65104(11)
H6_6 H 0.0896 0.7114 0.6258
C10_6 C 0.19264(15) 0.70276(11) 0.63734(11)
C11_6 C 0.24876(17) 0.70593(13) 0.67510(12)
H7_6 H 0.2930 0.7001 0.6664
C12_6 C 0.24155(17) 0.71731(13) 0.72466(12)
H8_6 H 0.2807 0.7190 0.7498
C19_6 C 0.08366(15) 0.39484(10) 0.40564(12)
C20_6 C 0.06514(15) 0.49010(10) 0.42936(12)
C21_6 C 0.1334(3) 0.4183(2) 0.4395(3)
H13_6 H 0.1736 0.4024 0.4542
C22_6 C 0.1227(3) 0.4648(2) 0.4511(2)
H14_6 H 0.1558 0.4803 0.4749
C23_6 C 0.0136(3) 0.4643(2) 0.3982(3)
C24_6 C 0.0222(3) 0.4182(2) 0.3864(3)
C25_6 C 0.20042(14) 0.68683(11) 0.58439(11)
C26_6 C 0.14835(15) 0.66091(11) 0.55632(11)
H17_6 H 0.1068 0.6562 0.5699
C27_6 C 0.15607(14) 0.64166(10) 0.50842(11)
C28_6 C 0.21737(15) 0.64898(11) 0.48865(11)
H18_6 H 0.2237 0.6352 0.4568
C29_6 C 0.26938(15) 0.67634(11) 0.51531(11)
C30_6 C 0.25988(15) 0.69544(11) 0.56304(11)
H19_6 H 0.2945 0.7145 0.5811
C31_6 C 0.05520(15) 0.53979(11) 0.44335(12)
C32_6 C 0.10990(14) 0.56775(11) 0.46496(12)
H20_6 H 0.1548 0.5553 0.4685
C33_6 C 0.09968(14) 0.61330(10) 0.48121(11)
C34_6 C 0.03488(14) 0.63224(10) 0.47437(11)
H21_6 H 0.0280 0.6634 0.4856
C37_2 C 0.51419(14) 0.71933(10) 0.42755(11)
C38_6 C 0.1702(2) 0.73555(12) 0.79369(13)
In2_4 In 0.114330(9) 0.746970(6) 0.884170(7)
O5_6 O 0.66769(10) 0.68074(7) 0.38308(8)
O6_6 O 0.71173(10) 0.73777(7) 0.43336(7)
C13_6 C 0.78257(14) 0.67152(10) 0.42554(12)
C14_6 C 0.79631(15) 0.63254(12) 0.39632(13)
H9_6 H 0.7623 0.6207 0.3706
C15_6 C 0.86007(15) 0.61105(11) 0.40501(13)
H10_6 H 0.8696 0.5848 0.3849
C16_6 C 0.91005(14) 0.62792(10) 0.44312(12)
C17_6 C 0.89401(14) 0.66533(10) 0.47340(12)
H11_5 H 0.9268 0.6761 0.5006
C18_6 C 0.83090(14) 0.68720(10) 0.46453(11)
H12_6 H 0.8210 0.7130 0.4853
H15_6 H 0.9722 0.4795 0.3853
H16_6 H 0.9872 0.4018 0.3653
C35_6 C 0.97982(14) 0.60640(11) 0.45144(12)
C36_6 C 0.99025(15) 0.55986(11) 0.43682(12)
H22_6 H 0.9524 0.5416 0.4222
C39_6 C 0.71627(14) 0.69722(10) 0.41376(11)
O11_4 O 0.60908(13) 0.75781(8) 0.30375(9)
O1_3 O 0.01585(9) 0.78586(7) 0.87961(7)
O2_3 O 0.06499(10) 0.76194(8) 0.95531(8)
C37_3 C 0.01419(14) 0.78067(10) 0.92755(11)
O7_4 O 0.65162(11) 0.17374(7) 0.90154(10)
O8_4 O 0.54232(11) 0.18151(8) 0.88097(10)
C19_7 C 0.58366(15) 0.10516(10) 0.90564(12)
C20_7 C 0.56514(15) 0.00990(10) 0.92936(12)
C21_7 C 0.6334(3) 0.0817(2) 0.9395(3)
H13_7 H 0.6736 0.0976 0.9542
C22_7 C 0.6227(3) 0.0352(2) 0.9511(2)
H14_7 H 0.6558 0.0197 0.9749
C23_7 C 0.5136(3) 0.0357(2) 0.8982(3)
H15_7 H 0.4722 0.0205 0.8853
C24_7 C 0.5222(3) 0.0818(2) 0.8864(3)
H16_7 H 0.4872 0.0982 0.8653
C40_4 C 0.59248(16) 0.15582(11) 0.89509(12)
O4_7 O 0.72117(14) 0.76393(10) 0.32666(9)
C2_7 C 0.95056(17) 0.78812(17) 0.00203(14)
H1_7 H 0.9898 0.7769 0.0234
C3_7 C 0.89191(18) 0.79833(18) 0.02365(14)
H2_7 H 0.8916 0.7944 0.0594
C7_7 C 0.67779(17) 0.77359(12) 0.23854(11)
C8_7 C 0.62141(16) 0.77478(12) 0.20029(12)
H5_7 H 0.5776 0.7670 0.2085
C9_7 C 0.62874(15) 0.78705(11) 0.15104(11)
H6_7 H 0.5896 0.7886 0.1258
C10_7 C 0.69264(15) 0.79724(11) 0.13734(11)
C11_7 C 0.74876(17) 0.79407(13) 0.17510(12)
H7_7 H 0.7930 0.7999 0.1664
C12_7 C 0.74155(17) 0.78269(13) 0.22466(12)
H8_7 H 0.7807 0.7810 0.2498
H11_6 H 0.4268 0.8239 0.0006
C25_7 C 0.70042(14) 0.81317(11) 0.08439(11)
C26_7 C 0.64835(15) 0.83909(11) 0.05632(11)
H17_7 H 0.6068 0.8438 0.0699
C27_7 C 0.65607(14) 0.85834(10) 0.00842(11)
C29_7 C 0.76938(15) 0.82366(11) 0.01531(11)
C30_7 C 0.75988(15) 0.80456(11) 0.06304(11)
H19_7 H 0.7945 0.7855 0.0811
C38_7 C 0.6702(2) 0.76445(12) 0.29369(13)
O5_7 O 0.16769(10) 0.81926(7) 0.88308(8)
O6_7 O 0.21173(10) 0.76223(7) 0.93336(7)
C1_7 C 0.95279(14) 0.79398(10) 0.95059(11)
C4_7 C 0.83338(14) 0.81439(11) 0.99272(11)
C5_7 C 0.83729(17) 0.82057(14) 0.94181(13)
H3_7 H 0.7984 0.8320 0.9202
C6_7 C 0.89522(17) 0.81098(13) 0.92057(13)
H4_7 H 0.8958 0.8161 0.8850
C13_7 C 0.28257(14) 0.82848(10) 0.92554(12)
C14_7 C 0.29631(15) 0.86746(12) 0.89632(13)
H9_7 H 0.2623 0.8793 0.8706
C15_7 C 0.36007(15) 0.88895(11) 0.90501(13)
H10_7 H 0.3696 0.9152 0.8849
C16_7 C 0.41005(14) 0.87208(10) 0.94312(12)
C17_7 C 0.39401(14) 0.83467(10) 0.97340(12)
C18_7 C 0.33090(14) 0.81280(10) 0.96453(11)
H12_7 H 0.3210 0.7870 0.9853
C28_7 C 0.71737(15) 0.85102(11) 0.98865(11)
H18_7 H 0.7237 0.8648 0.9568
C31_7 C 0.55520(15) 0.96021(11) 0.94335(12)
C32_7 C 0.60990(14) 0.93225(11) 0.96496(12)
H20_7 H 0.6548 0.9447 0.9685
C33_7 C 0.59968(14) 0.88670(10) 0.98121(11)
C34_7 C 0.53488(14) 0.86776(10) 0.97437(11)
H21_7 H 0.5280 0.8366 0.9856
C35_7 C 0.47982(14) 0.89360(11) 0.95144(12)
C36_7 C 0.49025(15) 0.94014(11) 0.93682(12)
H22_7 H 0.4524 0.9584 0.9222
C39_7 C 0.21627(14) 0.80278(10) 0.91376(11)
O12_4 O 0.15162(11) 0.67374(7) 0.90154(10)
O13_4 O 0.04232(11) 0.68151(8) 0.88097(10)
C42_4 C 0.09248(16) 0.65582(11) 0.89509(12)
O4_8 O 0.22117(14) 0.26393(10) 0.32666(9)
C2_8 C 0.45056(17) 0.28812(17) 0.00203(14)
H1_8 H 0.4898 0.2769 0.0234
C3_8 C 0.39191(18) 0.29833(18) 0.02365(14)
H2_8 H 0.3916 0.2944 0.0594
C7_8 C 0.17779(17) 0.27359(12) 0.23854(11)
C8_8 C 0.12141(16) 0.27478(12) 0.20029(12)
H5_8 H 0.0776 0.2670 0.2085
C9_8 C 0.12874(15) 0.28705(11) 0.15104(11)
H6_8 H 0.0896 0.2886 0.1258
C10_8 C 0.19264(15) 0.29724(11) 0.13734(11)
C11_8 C 0.24876(17) 0.29407(13) 0.17510(12)
H7_8 H 0.2930 0.2999 0.1664
C12_8 C 0.24155(17) 0.28269(13) 0.22466(12)
H8_8 H 0.2807 0.2810 0.2498
C25_8 C 0.20042(14) 0.31317(11) 0.08439(11)
C26_8 C 0.14835(15) 0.33909(11) 0.05632(11)
H17_8 H 0.1068 0.3438 0.0699
C27_8 C 0.15607(14) 0.35834(10) 0.00842(11)
C29_8 C 0.26938(15) 0.32366(11) 0.01531(11)
C30_8 C 0.25988(15) 0.30456(11) 0.06304(11)
H19_8 H 0.2945 0.2855 0.0811
C38_8 C 0.1702(2) 0.26445(12) 0.29369(13)
O1_4 O 0.51585(9) 0.28586(7) 0.87961(7)
O2_4 O 0.56499(10) 0.26194(8) 0.95531(8)
C1_8 C 0.45279(14) 0.29398(10) 0.95059(11)
C4_8 C 0.33338(14) 0.31439(11) 0.99272(11)
C5_8 C 0.33729(17) 0.32057(14) 0.94181(13)
H3_8 H 0.2984 0.3320 0.9202
C6_8 C 0.39522(17) 0.31098(13) 0.92057(13)
H4_8 H 0.3958 0.3161 0.8850
C19_8 C 0.08366(15) 0.60516(10) 0.90564(12)
C20_8 C 0.06514(15) 0.50990(10) 0.92936(12)
C21_8 C 0.1334(3) 0.5817(2) 0.9395(3)
H13_8 H 0.1736 0.5976 0.9542
C22_8 C 0.1227(3) 0.5352(2) 0.9511(2)
H14_8 H 0.1558 0.5197 0.9749
C23_8 C 0.0136(3) 0.5357(2) 0.8982(3)
C24_8 C 0.0222(3) 0.5818(2) 0.8864(3)
C28_8 C 0.21737(15) 0.35102(11) 0.98865(11)
H18_8 H 0.2237 0.3648 0.9568
C31_8 C 0.05520(15) 0.46021(11) 0.94335(12)
C32_8 C 0.10990(14) 0.43225(11) 0.96496(12)
H20_8 H 0.1548 0.4447 0.9685
C33_8 C 0.09968(14) 0.38670(10) 0.98121(11)
C34_8 C 0.03488(14) 0.36776(10) 0.97437(11)
H21_8 H 0.0280 0.3366 0.9856
C37_4 C 0.51419(14) 0.28067(10) 0.92755(11)
O5_8 O 0.66769(10) 0.31926(7) 0.88308(8)
O6_8 O 0.71173(10) 0.26223(7) 0.93336(7)
C13_8 C 0.78257(14) 0.32848(10) 0.92554(12)
C14_8 C 0.79631(15) 0.36746(12) 0.89632(13)
H9_8 H 0.7623 0.3793 0.8706
C15_8 C 0.86007(15) 0.38895(11) 0.90501(13)
H10_8 H 0.8696 0.4152 0.8849
C16_8 C 0.91005(14) 0.37208(10) 0.94312(12)
C17_8 C 0.89401(14) 0.33467(10) 0.97340(12)
C18_8 C 0.83090(14) 0.31280(10) 0.96453(11)
H12_8 H 0.8210 0.2870 0.9853
H15_8 H 0.9722 0.5205 0.8853
H16_8 H 0.9872 0.5982 0.8653
C35_8 C 0.97982(14) 0.39360(11) 0.95144(12)
C36_8 C 0.99025(15) 0.44014(11) 0.93682(12)
H22_8 H 0.9524 0.4584 0.9222
C39_8 C 0.71627(14) 0.30278(10) 0.91376(11)
H11_7 H 0.0732 0.6761 0.9994
H11_8 H 0.9268 0.3239 0.0006
N1 N 0.69587(16) 0.31457(11) 0.09384(12)
H23 H 0.7073 0.3389 0.1164
H24 H 0.7316 0.2936 0.0968
C43 C 0.6828(2) 0.33305(15) 0.04064(15)
H25 H 0.7238 0.3489 0.0322
H26 H 0.6450 0.3555 0.0379
H27 H 0.6711 0.3069 0.0167
C44 C 0.6313(3) 0.2898(3) 0.1067(3)
H28 H 0.6399 0.2768 0.1415
H29 H 0.6189 0.2642 0.0822
H30 H 0.5938 0.3125 0.1047
N1_2 N 0.30413(16) 0.31457(11) 0.40616(12)
H23_2 H 0.2927 0.3389 0.3836
H24_2 H 0.2684 0.2936 0.4032
C43_2 C 0.3172(2) 0.33305(15) 0.45936(15)
H25_2 H 0.2762 0.3489 0.4678
H26_2 H 0.3550 0.3555 0.4621
H27_2 H 0.3289 0.3069 0.4833
C44_2 C 0.3687(3) 0.2898(3) 0.3933(3)
H28_2 H 0.3601 0.2768 0.3585
H29_2 H 0.3811 0.2642 0.4178
H30_2 H 0.4062 0.3125 0.3953
N1_3 N 0.19587(16) 0.81457(11) 0.09384(12)
H23_3 H 0.2073 0.8389 0.1164
H24_3 H 0.2316 0.7936 0.0968
C43_3 C 0.1828(2) 0.83305(15) 0.04064(15)
H25_3 H 0.2238 0.8489 0.0322
H26_3 H 0.1450 0.8555 0.0379
H27_3 H 0.1711 0.8069 0.0167
C44_3 C 0.1313(3) 0.7898(3) 0.1067(3)
H28_3 H 0.1399 0.7768 0.1415
H29_3 H 0.1189 0.7642 0.0822
H30_3 H 0.0938 0.8125 0.1047
N1_4 N 0.80413(16) 0.81457(11) 0.40616(12)
H23_4 H 0.7927 0.8389 0.3836
H24_4 H 0.7684 0.7936 0.4032
C43_4 C 0.8172(2) 0.83305(15) 0.45936(15)
H25_4 H 0.7762 0.8489 0.4678
H26_4 H 0.8550 0.8555 0.4621
H27_4 H 0.8289 0.8069 0.4833
C44_4 C 0.8687(3) 0.7898(3) 0.3933(3)
H28_4 H 0.8601 0.7768 0.3585
H29_4 H 0.8811 0.7642 0.4178
H30_4 H 0.9062 0.8125 0.3953
N1_5 N 0.30413(16) 0.68543(11) 0.90616(12)
H23_5 H 0.2927 0.6611 0.8836
H24_5 H 0.2684 0.7064 0.9032
C43_5 C 0.3172(2) 0.66695(15) 0.95936(15)
H25_5 H 0.2762 0.6511 0.9678
H26_5 H 0.3550 0.6445 0.9621
H27_5 H 0.3289 0.6931 0.9833
C44_5 C 0.3687(3) 0.7102(3) 0.8933(3)
H28_5 H 0.3601 0.7232 0.8585
H29_5 H 0.3811 0.7358 0.9178
H30_5 H 0.4062 0.6875 0.8953
N1_6 N 0.69587(16) 0.68543(11) 0.59384(12)
H23_6 H 0.7073 0.6611 0.6164
H24_6 H 0.7316 0.7064 0.5968
C43_6 C 0.6828(2) 0.66695(15) 0.54064(15)
H25_6 H 0.7238 0.6511 0.5322
H26_6 H 0.6450 0.6445 0.5379
H27_6 H 0.6711 0.6931 0.5167
C44_6 C 0.6313(3) 0.7102(3) 0.6067(3)
H28_6 H 0.6399 0.7232 0.6415
H29_6 H 0.6189 0.7358 0.5822
H30_6 H 0.5938 0.6875 0.6047
N1_7 N 0.80413(16) 0.18543(11) 0.90616(12)
H23_7 H 0.7927 0.1611 0.8836
H24_7 H 0.7684 0.2064 0.9032
C43_7 C 0.8172(2) 0.16695(15) 0.95936(15)
H25_7 H 0.7762 0.1511 0.9678
H26_7 H 0.8550 0.1445 0.9621
H27_7 H 0.8289 0.1931 0.9833
C44_7 C 0.8687(3) 0.2102(3) 0.8933(3)
H28_7 H 0.8601 0.2232 0.8585
H29_7 H 0.8811 0.2358 0.9178
H30_7 H 0.9062 0.1875 0.8953
N1_8 N 0.19587(16) 0.18543(11) 0.59384(12)
H23_8 H 0.2073 0.1611 0.6164
H24_8 H 0.2316 0.2064 0.5968
C43_8 C 0.1828(2) 0.16695(15) 0.54064(15)
H25_8 H 0.2238 0.1511 0.5322
H26_8 H 0.1450 0.1445 0.5379
H27_8 H 0.1711 0.1931 0.5167
C44_8 C 0.1313(3) 0.2102(3) 0.6067(3)
H28_8 H 0.1399 0.2232 0.6415
H29_8 H 0.1189 0.2358 0.5822
H30_8 H 0.0938 0.1875 0.6047
loop_
_geom_bond_atom_site_label_1
_geom_bond_atom_site_label_2
_geom_bond_site_symmetry_1
_geom_bond_site_symmetry_2
In1 O5 1_555 1_555
O5 C39 1_555 1_555
O6 In1 1_555 1_555
C5 C4 1_555 1_555
H3 C5 1_555 1_555
C6 C1 1_555 1_555
H4 C6 1_555 1_555
C13 C14 1_555 1_555
C14 H9 1_555 1_555
C15 C14 1_555 1_555
H10 C15 1_555 1_555
C16 C15 1_555 1_555
C17 C16 1_555 1_555
C18 C13 1_555 1_555
H12 C18 1_555 1_555
H18 C28 1_555 1_555
C32 C31 1_555 1_555
H20 C32 1_555 1_555
C34 C33 1_555 1_555
H21 C34 1_555 1_555
C35 C16 1_555 1_555
C36 C31 1_555 1_555
H22 C36 1_555 1_555
C39 O6 1_555 1_555
O9 In1 1_555 1_555
O10 In1 1_555 1_555
O11 In1 1_555 1_555
O12 In1 1_555 1_555
O13 In1 1_555 1_555
C41 O9 1_555 1_555
C42 O12 1_555 1_555
C5 C6 1_555 1_555
C13 C39 1_555 1_555
C17 C18 1_555 1_555
C32 C33 1_555 1_555
C34 C35 1_555 1_555
C35 C36 1_555 1_555
O10 C41 1_555 1_555
O13 C42 1_555 1_555
O3 C38 1_555 1_555
O4 C38 1_555 1_555
C2 H1 1_555 1_555
C3 C2 1_555 1_555
H2 C3 1_555 1_555
C7 C8 1_555 1_555
C8 H5 1_555 1_555
C9 C8 1_555 1_555
H6 C9 1_555 1_555
C10 C9 1_555 1_555
C11 C10 1_555 1_555
H7 C11 1_555 1_555
C12 C7 1_555 1_555
H8 C12 1_555 1_555
C25 C10 1_555 1_555
C26 C25 1_555 1_555
H17 C26 1_555 1_555
C27 C26 1_555 1_555
C30 C25 1_555 1_555
H19 C30 1_555 1_555
C38 C7 1_555 1_555
In2 O3 1_555 1_555
C11 C12 1_555 1_555
C29 C30 1_555 1_555
O7 C40 1_555 1_555
O8 C40 1_555 1_555
C19 C21 1_555 1_555
C20 C22 1_555 1_555
C21 H13 1_555 1_555
C22 C21 1_555 1_555
H14 C22 1_555 1_555
C23 C20 1_555 1_555
H15 C23 1_555 1_555
C24 C19 1_555 1_555
H16 C24 1_555 1_555
C40 C19 1_555 1_555
In4 O7 1_555 1_555
O8 In4 1_555 1_555
C23 C24 1_555 1_555
In4 O5_2 1_555 1_555
O5_2 C39_2 1_555 1_555
O6_2 In4 1_555 1_555
C13_2 C14_2 1_555 1_555
C14_2 H9_2 1_555 1_555
C15_2 C14_2 1_555 1_555
H10_2 C15_2 1_555 1_555
C16_2 C15_2 1_555 1_555
C17_2 C16_2 1_555 1_555
C18_2 C13_2 1_555 1_555
H12_2 C18_2 1_555 1_555
C35_2 C16_2 1_555 1_555
H22_2 C36_2 1_555 1_555
C39_2 O6_2 1_555 1_555
O9_2 In4 1_555 1_555
O10_2 In4 1_555 1_555
O11_2 In4 1_555 1_555
C41_2 O9_2 1_555 1_555
C13_2 C39_2 1_555 1_555
C17_2 C18_2 1_555 1_555
C35_2 C36_2 1_555 1_555
O10_2 C41_2 1_555 1_555
C5_2 C4_2 1_555 1_555
H3_2 C5_2 1_555 1_555
C6_2 C1_2 1_555 1_555
H4_2 C6_2 1_555 1_555
C19_2 C21_2 1_555 1_555
C20_2 C22_2 1_555 1_555
C21_2 H13_2 1_555 1_555
C22_2 C21_2 1_555 1_555
H14_2 C22_2 1_555 1_555
C23_2 C20_2 1_555 1_555
C24_2 C19_2 1_555 1_555
H18_2 C28_2 1_555 1_555
C31_2 C20_2 1_555 1_555
C32_2 C31_2 1_555 1_555
H20_2 C32_2 1_555 1_555
C34_2 C33_2 1_555 1_555
H21_2 C34_2 1_555 1_555
C41_2 C1_2 1_555 1_555
C42 C19_2 1_555 1_555
C5_2 C6_2 1_555 1_555
C23_2 C24_2 1_555 1_555
C32_2 C33_2 1_555 1_555
O3_2 C38_2 1_555 1_555
O4_2 C38_2 1_555 1_555
C2_2 H1_2 1_555 1_555
C3_2 C2_2 1_555 1_555
H2_2 C3_2 1_555 1_555
C7_2 C8_2 1_555 1_555
C8_2 H5_2 1_555 1_555
C9_2 C8_2 1_555 1_555
H6_2 C9_2 1_555 1_555
C10_2 C9_2 1_555 1_555
C11_2 C10_2 1_555 1_555
H7_2 C11_2 1_555 1_555
C12_2 C7_2 1_555 1_555
H8_2 C12_2 1_555 1_555
C25_2 C10_2 1_555 1_555
C26_2 C25_2 1_555 1_555
H17_2 C26_2 1_555 1_555
C27_2 C26_2 1_555 1_555
C30_2 C25_2 1_555 1_555
H19_2 C30_2 1_555 1_555
C38_2 C7_2 1_555 1_555
In2_2 O3_2 1_555 1_555
C11_2 C12_2 1_555 1_555
C29_2 C30_2 1_555 1_555
O7_2 C40_2 1_555 1_555
O8_2 C40_2 1_555 1_555
C19_3 C21_3 1_555 1_555
C20_3 C22_3 1_555 1_555
C21_3 H13_3 1_555 1_555
C22_3 C21_3 1_555 1_555
H14_3 C22_3 1_555 1_555
C23_3 C20_3 1_555 1_555
H15_3 C23_3 1_555 1_555
C24_3 C19_3 1_555 1_555
H16_3 C24_3 1_555 1_555
C40_2 C19_3 1_555 1_555
In2 O7_2 1_555 1_555
O8_2 In2 1_555 1_555
C23_3 C24_3 1_555 1_555
In2_2 O5_3 1_555 1_555
O11_2 C38_3 1_555 1_555
O4_3 C38_3 1_555 1_555
O5_3 C39_3 1_555 1_555
O6_3 In2_2 1_555 1_555
C1_3 C2_3 1_555 1_555
C2_3 H1_3 1_555 1_555
C3_3 C2_3 1_555 1_555
H2_3 C3_3 1_555 1_555
C4_3 C3_3 1_555 1_555
C5_3 C4_3 1_555 1_555
H3_3 C5_3 1_555 1_555
C6_3 C1_3 1_555 1_555
H4_3 C6_3 1_555 1_555
C7_3 C8_3 1_555 1_555
C8_3 H5_3 1_555 1_555
C9_3 C8_3 1_555 1_555
H6_3 C9_3 1_555 1_555
C10_3 C9_3 1_555 1_555
C11_3 C10_3 1_555 1_555
H7_3 C11_3 1_555 1_555
C12_3 C7_3 1_555 1_555
H8_3 C12_3 1_555 1_555
C13_3 C14_3 1_555 1_555
C14_3 H9_3 1_555 1_555
C15_3 C14_3 1_555 1_555
H10_3 C15_3 1_555 1_555
C16_3 C15_3 1_555 1_555
C17_3 C16_3 1_555 1_555
H11_2 C17_3 1_555 1_555
C18_3 C13_3 1_555 1_555
H12_3 C18_3 1_555 1_555
C25_3 C10_3 1_555 1_555
C26_3 C25_3 1_555 1_555
H17_3 C26_3 1_555 1_555
C27_3 C26_3 1_555 1_555
C28_3 C27_3 1_555 1_555
H18_3 C28_3 1_555 1_555
C29_3 C4_3 1_555 1_555
C30_3 C25_3 1_555 1_555
H19_3 C30_3 1_555 1_555
C32_3 C31_3 1_555 1_555
H20_3 C32_3 1_555 1_555
C33_3 C27_3 1_555 1_555
C34_3 C33_3 1_555 1_555
H21_3 C34_3 1_555 1_555
C35_3 C16_3 1_555 1_555
C36_3 C31_3 1_555 1_555
H22_3 C36_3 1_555 1_555
C38_3 C7_3 1_555 1_555
C39_3 O6_3 1_555 1_555
O9_3 In2_2 1_555 1_555
O10_3 In2_2 1_555 1_555
O12_2 In2_2 1_555 1_555
O13_2 In2_2 1_555 1_555
C41_3 O9_3 1_555 1_555
C42_2 O12_2 1_555 1_555
C5_3 C6_3 1_555 1_555
C11_3 C12_3 1_555 1_555
C13_3 C39_3 1_555 1_555
C17_3 C18_3 1_555 1_555
C28_3 C29_3 1_555 1_555
C29_3 C30_3 1_555 1_555
C32_3 C33_3 1_555 1_555
C34_3 C35_3 1_555 1_555
C35_3 C36_3 1_555 1_555
O10_3 C41_3 1_555 1_555
O13_2 C42_2 1_555 1_555
In2 O5_4 1_555 1_555
O5_4 C39_4 1_555 1_555
O6_4 In2 1_555 1_555
C13_4 C14_4 1_555 1_555
C14_4 H9_4 1_555 1_555
C15_4 C14_4 1_555 1_555
H10_4 C15_4 1_555 1_555
C16_4 C15_4 1_555 1_555
C17_4 C16_4 1_555 1_555
H11_3 C17_4 1_555 1_555
C18_4 C13_4 1_555 1_555
H12_4 C18_4 1_555 1_555
C35_4 C16_4 1_555 1_555
H22_4 C36_4 1_555 1_555
C39_4 O6_4 1_555 1_555
O9_4 In2 1_555 1_555
O10_4 In2 1_555 1_555
C41_4 O9_4 1_555 1_555
C13_4 C39_4 1_555 1_555
C17_4 C18_4 1_555 1_555
C35_4 C36_4 1_555 1_555
O10_4 C41_4 1_555 1_555
O11 C38_4 1_555 1_555
O4_4 C38_4 1_555 1_555
C1_4 C2_4 1_555 1_555
C2_4 H1_4 1_555 1_555
C3_4 C2_4 1_555 1_555
H2_4 C3_4 1_555 1_555
C4_4 C3_4 1_555 1_555
C5_4 C4_4 1_555 1_555
H3_4 C5_4 1_555 1_555
C6_4 C1_4 1_555 1_555
H4_4 C6_4 1_555 1_555
C7_4 C8_4 1_555 1_555
C8_4 H5_4 1_555 1_555
C9_4 C8_4 1_555 1_555
H6_4 C9_4 1_555 1_555
C10_4 C9_4 1_555 1_555
C11_4 C10_4 1_555 1_555
H7_4 C11_4 1_555 1_555
C12_4 C7_4 1_555 1_555
H8_4 C12_4 1_555 1_555
C19_4 C21_4 1_555 1_555
C20_4 C22_4 1_555 1_555
C21_4 H13_4 1_555 1_555
C22_4 C21_4 1_555 1_555
H14_4 C22_4 1_555 1_555
C23_4 C20_4 1_555 1_555
C24_4 C19_4 1_555 1_555
C25_4 C10_4 1_555 1_555
C26_4 C25_4 1_555 1_555
H17_4 C26_4 1_555 1_555
C27_4 C26_4 1_555 1_555
C28_4 C27_4 1_555 1_555
H18_4 C28_4 1_555 1_555
C29_4 C4_4 1_555 1_555
C30_4 C25_4 1_555 1_555
H19_4 C30_4 1_555 1_555
C31_4 C20_4 1_555 1_555
C32_4 C31_4 1_555 1_555
H20_4 C32_4 1_555 1_555
C33_4 C27_4 1_555 1_555
C34_4 C33_4 1_555 1_555
H21_4 C34_4 1_555 1_555
C41_4 C1_4 1_555 1_555
C38_4 C7_4 1_555 1_555
C42_2 C19_4 1_555 1_555
C5_4 C6_4 1_555 1_555
C11_4 C12_4 1_555 1_555
C23_4 C24_4 1_555 1_555
C28_4 C29_4 1_555 1_555
C29_4 C30_4 1_555 1_555
C32_4 C33_4 1_555 1_555
O1 C37 1_555 1_555
O2 C37 1_555 1_555
In3 O1 1_555 1_555
O2 In3 1_555 1_555
In3 O5_5 1_555 1_555
O3_3 C38_5 1_555 1_555
O4_5 C38_5 1_555 1_555
O5_5 C39_5 1_555 1_555
O6_5 In3 1_555 1_555
C1_5 C2_5 1_555 1_555
C2_5 H1_5 1_555 1_555
C3_5 C2_5 1_555 1_555
H2_5 C3_5 1_555 1_555
C4_5 C3_5 1_555 1_555
C5_5 C4_5 1_555 1_555
H3_5 C5_5 1_555 1_555
C6_5 C1_5 1_555 1_555
H4_5 C6_5 1_555 1_555
C7_5 C8_5 1_555 1_555
C8_5 H5_5 1_555 1_555
C9_5 C8_5 1_555 1_555
H6_5 C9_5 1_555 1_555
C10_5 C9_5 1_555 1_555
C11_5 C10_5 1_555 1_555
H7_5 C11_5 1_555 1_555
C12_5 C7_5 1_555 1_555
H8_5 C12_5 1_555 1_555
C13_5 C14_5 1_555 1_555
C14_5 H9_5 1_555 1_555
C15_5 C14_5 1_555 1_555
H10_5 C15_5 1_555 1_555
C16_5 C15_5 1_555 1_555
C17_5 C16_5 1_555 1_555
H11_4 C17_5 1_555 1_555
C18_5 C13_5 1_555 1_555
H12_5 C18_5 1_555 1_555
C25_5 C10_5 1_555 1_555
C26_5 C25_5 1_555 1_555
H17_5 C26_5 1_555 1_555
C27_5 C26_5 1_555 1_555
C28_5 C27_5 1_555 1_555
H18_5 C28_5 1_555 1_555
C29_5 C4_5 1_555 1_555
C30_5 C25_5 1_555 1_555
H19_5 C30_5 1_555 1_555
C32_5 C31_5 1_555 1_555
H20_5 C32_5 1_555 1_555
C33_5 C27_5 1_555 1_555
C34_5 C33_5 1_555 1_555
H21_5 C34_5 1_555 1_555
C35_5 C16_5 1_555 1_555
C36_5 C31_5 1_555 1_555
H22_5 C36_5 1_555 1_555
C38_5 C7_5 1_555 1_555
C39_5 O6_5 1_555 1_555
In2_3 O3_3 1_555 1_555
O11_3 In3 1_555 1_555
O12_3 In3 1_555 1_555
O13_3 In3 1_555 1_555
C42_3 O12_3 1_555 1_555
C5_5 C6_5 1_555 1_555
C11_5 C12_5 1_555 1_555
C13_5 C39_5 1_555 1_555
C17_5 C18_5 1_555 1_555
C28_5 C29_5 1_555 1_555
C29_5 C30_5 1_555 1_555
C32_5 C33_5 1_555 1_555
C34_5 C35_5 1_555 1_555
C35_5 C36_5 1_555 1_555
O13_3 C42_3 1_555 1_555
O7_3 C40_3 1_555 1_555
O8_3 C40_3 1_555 1_555
C19_5 C21_5 1_555 1_555
C20_5 C22_5 1_555 1_555
C21_5 H13_5 1_555 1_555
C22_5 C21_5 1_555 1_555
H14_5 C22_5 1_555 1_555
C23_5 C20_5 1_555 1_555
H15_5 C23_5 1_555 1_555
C24_5 C19_5 1_555 1_555
H16_5 C24_5 1_555 1_555
C40_3 C19_5 1_555 1_555
In4_2 O7_3 1_555 1_555
O8_3 In4_2 1_555 1_555
C23_5 C24_5 1_555 1_555
O1_2 C37_2 1_555 1_555
O2_2 C37_2 1_555 1_555
O3_4 C38_6 1_555 1_555
O4_6 C38_6 1_555 1_555
C1_6 C2_6 1_555 1_555
C2_6 H1_6 1_555 1_555
C3_6 C2_6 1_555 1_555
H2_6 C3_6 1_555 1_555
C4_6 C3_6 1_555 1_555
C5_6 C4_6 1_555 1_555
H3_6 C5_6 1_555 1_555
C6_6 C1_6 1_555 1_555
H4_6 C6_6 1_555 1_555
C7_6 C8_6 1_555 1_555
C8_6 H5_6 1_555 1_555
C9_6 C8_6 1_555 1_555
H6_6 C9_6 1_555 1_555
C10_6 C9_6 1_555 1_555
C11_6 C10_6 1_555 1_555
H7_6 C11_6 1_555 1_555
C12_6 C7_6 1_555 1_555
H8_6 C12_6 1_555 1_555
C19_6 C21_6 1_555 1_555
C20_6 C22_6 1_555 1_555
C21_6 H13_6 1_555 1_555
C22_6 C21_6 1_555 1_555
H14_6 C22_6 1_555 1_555
C23_6 C20_6 1_555 1_555
C24_6 C19_6 1_555 1_555
C25_6 C10_6 1_555 1_555
C26_6 C25_6 1_555 1_555
H17_6 C26_6 1_555 1_555
C27_6 C26_6 1_555 1_555
C28_6 C27_6 1_555 1_555
H18_6 C28_6 1_555 1_555
C29_6 C4_6 1_555 1_555
C30_6 C25_6 1_555 1_555
H19_6 C30_6 1_555 1_555
C31_6 C20_6 1_555 1_555
C32_6 C31_6 1_555 1_555
H20_6 C32_6 1_555 1_555
C33_6 C27_6 1_555 1_555
C34_6 C33_6 1_555 1_555
H21_6 C34_6 1_555 1_555
C37_2 C1_6 1_555 1_555
C38_6 C7_6 1_555 1_555
C42_3 C19_6 1_555 1_555
In2_4 O3_4 1_555 1_555
In4_2 O1_2 1_555 1_555
O2_2 In4_2 1_555 1_555
C5_6 C6_6 1_555 1_555
C11_6 C12_6 1_555 1_555
C23_6 C24_6 1_555 1_555
C28_6 C29_6 1_555 1_555
C29_6 C30_6 1_555 1_555
C32_6 C33_6 1_555 1_555
In4_2 O5_6 1_555 1_555
O5_6 C39_6 1_555 1_555
O6_6 In4_2 1_555 1_555
C13_6 C14_6 1_555 1_555
C14_6 H9_6 1_555 1_555
C15_6 C14_6 1_555 1_555
H10_6 C15_6 1_555 1_555
C16_6 C15_6 1_555 1_555
C17_6 C16_6 1_555 1_555
H11_5 C17_6 1_555 1_555
C18_6 C13_6 1_555 1_555
H12_6 C18_6 1_555 1_555
C35_6 C16_6 1_555 1_555
H22_6 C36_6 1_555 1_555
C39_6 O6_6 1_555 1_555
O11_4 In4_2 1_555 1_555
C13_6 C39_6 1_555 1_555
C17_6 C18_6 1_555 1_555
C35_6 C36_6 1_555 1_555
O1_3 C37_3 1_555 1_555
O2_3 C37_3 1_555 1_555
In2_4 O1_3 1_555 1_555
O2_3 In2_4 1_555 1_555
O7_4 C40_4 1_555 1_555
O8_4 C40_4 1_555 1_555
C19_7 C21_7 1_555 1_555
C20_7 C22_7 1_555 1_555
C21_7 H13_7 1_555 1_555
C22_7 C21_7 1_555 1_555
H14_7 C22_7 1_555 1_555
C23_7 C20_7 1_555 1_555
H15_7 C23_7 1_555 1_555
C24_7 C19_7 1_555 1_555
H16_7 C24_7 1_555 1_555
C40_4 C19_7 1_555 1_555
In2_3 O7_4 1_555 1_555
O8_4 In2_3 1_555 1_555
C23_7 C24_7 1_555 1_555
O11_4 C38_7 1_555 1_555
O4_7 C38_7 1_555 1_555
C2_7 H1_7 1_555 1_555
C3_7 C2_7 1_555 1_555
H2_7 C3_7 1_555 1_555
C7_7 C8_7 1_555 1_555
C8_7 H5_7 1_555 1_555
C9_7 C8_7 1_555 1_555
H6_7 C9_7 1_555 1_555
C10_7 C9_7 1_555 1_555
C11_7 C10_7 1_555 1_555
H7_7 C11_7 1_555 1_555
C12_7 C7_7 1_555 1_555
H8_7 C12_7 1_555 1_555
C25_7 C10_7 1_555 1_555
C26_7 C25_7 1_555 1_555
H17_7 C26_7 1_555 1_555
C27_7 C26_7 1_555 1_555
C30_7 C25_7 1_555 1_555
H19_7 C30_7 1_555 1_555
C38_7 C7_7 1_555 1_555
C11_7 C12_7 1_555 1_555
C29_7 C30_7 1_555 1_555
In2_4 O5_7 1_555 1_555
O5_7 C39_7 1_555 1_555
O6_7 In2_4 1_555 1_555
C5_7 C4_7 1_555 1_555
H3_7 C5_7 1_555 1_555
C6_7 C1_7 1_555 1_555
H4_7 C6_7 1_555 1_555
C13_7 C14_7 1_555 1_555
C14_7 H9_7 1_555 1_555
C15_7 C14_7 1_555 1_555
H10_7 C15_7 1_555 1_555
C16_7 C15_7 1_555 1_555
C17_7 C16_7 1_555 1_555
C18_7 C13_7 1_555 1_555
H12_7 C18_7 1_555 1_555
H18_7 C28_7 1_555 1_555
C32_7 C31_7 1_555 1_555
H20_7 C32_7 1_555 1_555
C34_7 C33_7 1_555 1_555
H21_7 C34_7 1_555 1_555
C35_7 C16_7 1_555 1_555
C36_7 C31_7 1_555 1_555
H22_7 C36_7 1_555 1_555
C39_7 O6_7 1_555 1_555
O12_4 In2_4 1_555 1_555
O13_4 In2_4 1_555 1_555
C42_4 O12_4 1_555 1_555
C5_7 C6_7 1_555 1_555
C13_7 C39_7 1_555 1_555
C17_7 C18_7 1_555 1_555
C32_7 C33_7 1_555 1_555
C34_7 C35_7 1_555 1_555
C35_7 C36_7 1_555 1_555
O13_4 C42_4 1_555 1_555
O11_3 C38_8 1_555 1_555
O4_8 C38_8 1_555 1_555
C2_8 H1_8 1_555 1_555
C3_8 C2_8 1_555 1_555
H2_8 C3_8 1_555 1_555
C7_8 C8_8 1_555 1_555
C8_8 H5_8 1_555 1_555
C9_8 C8_8 1_555 1_555
H6_8 C9_8 1_555 1_555
C10_8 C9_8 1_555 1_555
C11_8 C10_8 1_555 1_555
H7_8 C11_8 1_555 1_555
C12_8 C7_8 1_555 1_555
H8_8 C12_8 1_555 1_555
C25_8 C10_8 1_555 1_555
C26_8 C25_8 1_555 1_555
H17_8 C26_8 1_555 1_555
C27_8 C26_8 1_555 1_555
C30_8 C25_8 1_555 1_555
H19_8 C30_8 1_555 1_555
C38_8 C7_8 1_555 1_555
C11_8 C12_8 1_555 1_555
C29_8 C30_8 1_555 1_555
O1_4 C37_4 1_555 1_555
O2_4 C37_4 1_555 1_555
C5_8 C4_8 1_555 1_555
H3_8 C5_8 1_555 1_555
C6_8 C1_8 1_555 1_555
H4_8 C6_8 1_555 1_555
C19_8 C21_8 1_555 1_555
C20_8 C22_8 1_555 1_555
C21_8 H13_8 1_555 1_555
C22_8 C21_8 1_555 1_555
H14_8 C22_8 1_555 1_555
C23_8 C20_8 1_555 1_555
C24_8 C19_8 1_555 1_555
H18_8 C28_8 1_555 1_555
C31_8 C20_8 1_555 1_555
C32_8 C31_8 1_555 1_555
H20_8 C32_8 1_555 1_555
C34_8 C33_8 1_555 1_555
H21_8 C34_8 1_555 1_555
C37_4 C1_8 1_555 1_555
C42_4 C19_8 1_555 1_555
In2_3 O1_4 1_555 1_555
O2_4 In2_3 1_555 1_555
C5_8 C6_8 1_555 1_555
C23_8 C24_8 1_555 1_555
C32_8 C33_8 1_555 1_555
In2_3 O5_8 1_555 1_555
O5_8 C39_8 1_555 1_555
O6_8 In2_3 1_555 1_555
C13_8 C14_8 1_555 1_555
C14_8 H9_8 1_555 1_555
C15_8 C14_8 1_555 1_555
H10_8 C15_8 1_555 1_555
C16_8 C15_8 1_555 1_555
C17_8 C16_8 1_555 1_555
C18_8 C13_8 1_555 1_555
H12_8 C18_8 1_555 1_555
C35_8 C16_8 1_555 1_555
H22_8 C36_8 1_555 1_555
C39_8 O6_8 1_555 1_555
C13_8 C39_8 1_555 1_555
C17_8 C18_8 1_555 1_555
C35_8 C36_8 1_555 1_555
N1 H23 1_555 1_555
H24 N1 1_555 1_555
C43 N1 1_555 1_555
H25 C43 1_555 1_555
H26 C43 1_555 1_555
H27 C43 1_555 1_555
C44 N1 1_555 1_555
H28 C44 1_555 1_555
H29 C44 1_555 1_555
H30 C44 1_555 1_555
N1_2 H23_2 1_555 1_555
H24_2 N1_2 1_555 1_555
C43_2 N1_2 1_555 1_555
H25_2 C43_2 1_555 1_555
H26_2 C43_2 1_555 1_555
H27_2 C43_2 1_555 1_555
C44_2 N1_2 1_555 1_555
H28_2 C44_2 1_555 1_555
H29_2 C44_2 1_555 1_555
H30_2 C44_2 1_555 1_555
N1_3 H23_3 1_555 1_555
H24_3 N1_3 1_555 1_555
C43_3 N1_3 1_555 1_555
H25_3 C43_3 1_555 1_555
H26_3 C43_3 1_555 1_555
H27_3 C43_3 1_555 1_555
C44_3 N1_3 1_555 1_555
H28_3 C44_3 1_555 1_555
H29_3 C44_3 1_555 1_555
H30_3 C44_3 1_555 1_555
N1_4 H23_4 1_555 1_555
H24_4 N1_4 1_555 1_555
C43_4 N1_4 1_555 1_555
H25_4 C43_4 1_555 1_555
H26_4 C43_4 1_555 1_555
H27_4 C43_4 1_555 1_555
C44_4 N1_4 1_555 1_555
H28_4 C44_4 1_555 1_555
H29_4 C44_4 1_555 1_555
H30_4 C44_4 1_555 1_555
N1_5 H23_5 1_555 1_555
H24_5 N1_5 1_555 1_555
C43_5 N1_5 1_555 1_555
H25_5 C43_5 1_555 1_555
H26_5 C43_5 1_555 1_555
H27_5 C43_5 1_555 1_555
C44_5 N1_5 1_555 1_555
H28_5 C44_5 1_555 1_555
H29_5 C44_5 1_555 1_555
H30_5 C44_5 1_555 1_555
N1_6 H23_6 1_555 1_555
H24_6 N1_6 1_555 1_555
C43_6 N1_6 1_555 1_555
H25_6 C43_6 1_555 1_555
H26_6 C43_6 1_555 1_555
H27_6 C43_6 1_555 1_555
C44_6 N1_6 1_555 1_555
H28_6 C44_6 1_555 1_555
H29_6 C44_6 1_555 1_555
H30_6 C44_6 1_555 1_555
N1_7 H23_7 1_555 1_555
H24_7 N1_7 1_555 1_555
C43_7 N1_7 1_555 1_555
H25_7 C43_7 1_555 1_555
H26_7 C43_7 1_555 1_555
H27_7 C43_7 1_555 1_555
C44_7 N1_7 1_555 1_555
H28_7 C44_7 1_555 1_555
H29_7 C44_7 1_555 1_555
H30_7 C44_7 1_555 1_555
N1_8 H23_8 1_555 1_555
H24_8 N1_8 1_555 1_555
C43_8 N1_8 1_555 1_555
H25_8 C43_8 1_555 1_555
H26_8 C43_8 1_555 1_555
H27_8 C43_8 1_555 1_555
C44_8 N1_8 1_555 1_555
H28_8 C44_8 1_555 1_555
H29_8 C44_8 1_555 1_555
H30_8 C44_8 1_555 1_555

#END
