
###############################################################################
#
# This file contains modified crystal structure data generated from the
# MOF subset of the Cambridge Structural Database (CSD) v543 
# hosted by the Cambridge Crystallographic Data Centre (CCDC).
#
# This work is licensed under the Creative Commons
# Attribution-NonCommercial-ShareAlike 4.0 International License.
# To view a copy of this license, visit
# http://creativecommons.org/licenses/by-nc-sa/4.0/
# or send a letter to
# Creative Commons, PO Box 1866, Mountain View, CA 94042, USA.
#
# CIF created using the CSD Python API on 29 September 2022
# The structure has been converted into the P1 space group
# The structure has a 3D framework
# The original CSD entry GAZZIS02 is in the monoclinic crystal system
# The framework has been calculated to contain at least 10.0% void space
# The void calculation uses a probe of radius 1.32A, grid spacing 0.4
#
###############################################################################

data_GAZZIS02
_chemical_formula_moiety         '(C334 H240 In8 N8 O48)n'
_symmetry_cell_setting           triclinic
_symmetry_space_group_name_H-M   'P 1'
_symmetry_Int_Tables_number      1
_space_group_name_Hall           'P 1'
loop_
_symmetry_equiv_pos_site_id
_symmetry_equiv_pos_as_xyz
1 x,y,z
_cell_length_a                   19.787(3)
_cell_length_b                   28.491(5)
_cell_length_c                   26.443(5)
_cell_angle_alpha                90
_cell_angle_beta                 97.234(2)
_cell_angle_gamma                90
_cell_volume                     14788.6
loop_
_atom_site_label
_atom_site_type_symbol
_atom_site_fract_x
_atom_site_fract_y
_atom_site_fract_z
In1 In 0.885750(10) 0.254800(7) 0.115440(7)
O5 O 0.83204(10) 0.18273(7) 0.11751(8)
O6 O 0.78810(10) 0.23926(7) 0.06714(8)
C1 C 0.04751(15) 0.20700(11) 0.04900(11)
C4 C 0.16724(16) 0.18666(11) 0.00665(11)
C5 C 0.16298(18) 0.18122(14) 0.05744(12)
H3 H 0.2018 0.1701 0.0789
C6 C 0.10516(17) 0.19116(13) 0.07851(12)
H4 H 0.1047 0.1871 0.1141
C13 C 0.71792(15) 0.17267(11) 0.07497(12)
C14 C 0.70282(17) 0.13498(12) 0.10443(14)
H9 H 0.7361 0.1238 0.1307
C15 C 0.63959(17) 0.11334(12) 0.09601(14)
H10 H 0.6298 0.0876 0.1167
C16 C 0.59045(15) 0.12906(11) 0.05763(12)
C17 C 0.60733(15) 0.16652(11) 0.02689(12)
C18 C 0.67000(15) 0.18820(11) 0.03581(11)
H12 H 0.6803 0.2138 0.0151
C28 C 0.28321(15) 0.15016(11) 0.01020(12)
H18 H 0.2767 0.1367 0.0421
C31 C 0.44531(16) 0.04137(11) 0.05627(12)
C32 C 0.39067(15) 0.06887(11) 0.03413(12)
H20 H 0.3459 0.0562 0.0302
C33 C 0.40114(15) 0.11430(11) 0.01781(11)
C34 C 0.46588(15) 0.13312(11) 0.02540(11)
H21 H 0.4729 0.1643 0.0144
C35 C 0.52107(15) 0.10749(11) 0.04874(12)
C36 C 0.51010(16) 0.06162(11) 0.06338(13)
H22 H 0.5476 0.0435 0.0786
C39 C 0.78316(15) 0.19868(11) 0.08707(11)
O9 O 0.98430(10) 0.21627(7) 0.11951(7)
O10 O 0.93511(11) 0.23867(8) 0.04460(8)
O11 O 0.89247(14) 0.26004(9) 0.19558(9)
O12 O 0.84869(12) 0.32771(8) 0.09740(10)
O13 O 0.95809(12) 0.31993(8) 0.11659(11)
C41 C 0.98536(15) 0.22088(11) 0.07193(11)
C42 C 0.90784(17) 0.34559(11) 0.10325(12)
O3 O 0.39247(14) 0.23996(9) 0.69558(9)
O4 O 0.28073(15) 0.23348(11) 0.67323(9)
C2 C 0.04905(18) 0.21278(18) 0.99740(14)
H1 H 0.0100 0.2241 0.9764
C3 C 0.10859(19) 0.20182(18) 0.97594(14)
H2 H 0.1090 0.2047 0.9402
C7 C 0.32385(17) 0.22435(12) 0.76119(11)
C8 C 0.37970(17) 0.22357(13) 0.79823(12)
H5 H 0.4235 0.2309 0.7892
C9 C 0.37281(15) 0.21235(12) 0.84811(11)
H6 H 0.4119 0.2115 0.8729
C10 C 0.30898(15) 0.20235(11) 0.86226(11)
C11 C 0.25223(18) 0.20454(14) 0.82492(13)
H7 H 0.2080 0.1988 0.8340
C12 C 0.26007(18) 0.21492(14) 0.77502(13)
H8 H 0.2213 0.2156 0.7499
H11 H 0.5751 0.1770 0.9996
C25 C 0.30035(15) 0.18695(11) 0.91484(11)
C26 C 0.35255(16) 0.16108(11) 0.94321(11)
H17 H 0.3942 0.1562 0.9296
C27 C 0.34461(15) 0.14257(11) 0.99047(11)
C29 C 0.23120(15) 0.17715(11) 0.98378(12)
C30 C 0.24098(15) 0.19519(12) 0.93633(11)
H19 H 0.2060 0.2137 0.9181
C38 C 0.3316(2) 0.23347(13) 0.70616(13)
In2 In 0.385750(10) 0.245200(7) 0.615440(7)
O7 O 0.34869(12) 0.82771(8) 0.09740(10)
O8 O 0.45809(12) 0.81993(8) 0.11659(11)
C19 C 0.41693(16) 0.89640(11) 0.09306(12)
C20 C 0.43527(16) 0.99142(11) 0.07007(13)
C21 C 0.3623(3) 0.9283(2) 0.0920(3)
H13 H 0.3186 0.9172 0.0977
C22 C 0.3715(4) 0.9760(2) 0.0827(3)
H14 H 0.3355 0.9977 0.0847
C23 C 0.4876(3) 0.9610(2) 0.0731(3)
H15 H 0.5313 0.9716 0.0667
C24 C 0.4783(3) 0.9142(2) 0.0853(3)
H16 H 0.5165 0.8938 0.0885
C40 C 0.40784(17) 0.84559(11) 0.10325(12)
In4 In 0.385750(10) 0.754800(7) 0.115440(7)
O5_2 O 0.33204(10) 0.68273(7) 0.11751(8)
O6_2 O 0.28810(10) 0.73926(7) 0.06714(8)
C13_2 C 0.21792(15) 0.67267(11) 0.07497(12)
C14_2 C 0.20282(17) 0.63498(12) 0.10443(14)
H9_2 H 0.2361 0.6238 0.1307
C15_2 C 0.13959(17) 0.61334(12) 0.09601(14)
H10_2 H 0.1298 0.5876 0.1167
C16_2 C 0.09045(15) 0.62906(11) 0.05763(12)
C17_2 C 0.10733(15) 0.66652(11) 0.02689(12)
C18_2 C 0.17000(15) 0.68820(11) 0.03581(11)
H12_2 H 0.1803 0.7138 0.0151
H15_2 H 0.0313 0.4716 0.0667
H16_2 H 0.0165 0.3938 0.0885
C35_2 C 0.02107(15) 0.60749(11) 0.04874(12)
C36_2 C 0.01010(16) 0.56162(11) 0.06338(13)
H22_2 H 0.0476 0.5435 0.0786
C39_2 C 0.28316(15) 0.69868(11) 0.08707(11)
O9_2 O 0.48430(10) 0.71627(7) 0.11951(7)
O10_2 O 0.43511(11) 0.73867(8) 0.04460(8)
O11_2 O 0.39247(14) 0.76004(9) 0.19558(9)
C41_2 C 0.48536(15) 0.72088(11) 0.07193(11)
C1_2 C 0.54751(15) 0.70700(11) 0.04900(11)
C4_2 C 0.66724(16) 0.68666(11) 0.00665(11)
C5_2 C 0.66298(18) 0.68122(14) 0.05744(12)
H3_2 H 0.7018 0.6701 0.0789
C6_2 C 0.60516(17) 0.69116(13) 0.07851(12)
H4_2 H 0.6047 0.6871 0.1141
C19_2 C 0.91693(16) 0.39640(11) 0.09306(12)
C20_2 C 0.93527(16) 0.49142(11) 0.07007(13)
C21_2 C 0.8623(3) 0.4283(2) 0.0920(3)
H13_2 H 0.8186 0.4172 0.0977
C22_2 C 0.8715(4) 0.4760(2) 0.0827(3)
H14_2 H 0.8355 0.4977 0.0847
C23_2 C 0.9876(3) 0.4610(2) 0.0731(3)
C24_2 C 0.9783(3) 0.4142(2) 0.0853(3)
C28_2 C 0.78321(15) 0.65016(11) 0.01020(12)
H18_2 H 0.7767 0.6367 0.0421
C31_2 C 0.94531(16) 0.54137(11) 0.05627(12)
C32_2 C 0.89067(15) 0.56887(11) 0.03413(12)
H20_2 H 0.8459 0.5562 0.0302
C33_2 C 0.90114(15) 0.61430(11) 0.01781(11)
C34_2 C 0.96588(15) 0.63312(11) 0.02540(11)
H21_2 H 0.9729 0.6643 0.0144
O3_2 O 0.89247(14) 0.73996(9) 0.69558(9)
O4_2 O 0.78073(15) 0.73348(11) 0.67323(9)
C2_2 C 0.54905(18) 0.71278(18) 0.99740(14)
H1_2 H 0.5100 0.7241 0.9764
C3_2 C 0.60859(19) 0.70182(18) 0.97594(14)
H2_2 H 0.6090 0.7047 0.9402
C7_2 C 0.82385(17) 0.72435(12) 0.76119(11)
C8_2 C 0.87970(17) 0.72357(13) 0.79823(12)
H5_2 H 0.9235 0.7309 0.7892
C9_2 C 0.87281(15) 0.71235(12) 0.84811(11)
H6_2 H 0.9119 0.7115 0.8729
C10_2 C 0.80898(15) 0.70235(11) 0.86226(11)
C11_2 C 0.75223(18) 0.70454(14) 0.82492(13)
H7_2 H 0.7080 0.6988 0.8340
C12_2 C 0.76007(18) 0.71492(14) 0.77502(13)
H8_2 H 0.7213 0.7156 0.7499
C25_2 C 0.80035(15) 0.68695(11) 0.91484(11)
C26_2 C 0.85255(16) 0.66108(11) 0.94321(11)
H17_2 H 0.8942 0.6562 0.9296
C27_2 C 0.84461(15) 0.64257(11) 0.99047(11)
C29_2 C 0.73120(15) 0.67715(11) 0.98378(12)
C30_2 C 0.74098(15) 0.69519(12) 0.93633(11)
H19_2 H 0.7060 0.7137 0.9181
C38_2 C 0.8316(2) 0.73347(13) 0.70616(13)
In2_2 In 0.885750(10) 0.745200(7) 0.615440(7)
O7_2 O 0.34869(12) 0.17229(8) 0.59740(10)
O8_2 O 0.45809(12) 0.18007(8) 0.61659(11)
C19_3 C 0.41693(16) 0.10360(11) 0.59306(12)
C20_3 C 0.43527(16) 0.00858(11) 0.57007(13)
C21_3 C 0.3623(3) 0.0717(2) 0.5920(3)
H13_3 H 0.3186 0.0828 0.5977
C22_3 C 0.3715(4) 0.0240(2) 0.5827(3)
H14_3 H 0.3355 0.0023 0.5847
C23_3 C 0.4876(3) 0.0390(2) 0.5731(3)
H15_3 H 0.5313 0.0284 0.5667
C24_3 C 0.4783(3) 0.0858(2) 0.5853(3)
H16_3 H 0.5165 0.1062 0.5885
C40_2 C 0.40784(17) 0.15441(11) 0.60325(12)
O4_3 O 0.28073(15) 0.76652(11) 0.17323(9)
O5_3 O 0.83204(10) 0.81727(7) 0.61751(8)
O6_3 O 0.78810(10) 0.76074(7) 0.56714(8)
C1_3 C 0.04751(15) 0.79300(11) 0.54900(11)
C2_3 C 0.04905(18) 0.78722(18) 0.49740(14)
H1_3 H 0.0100 0.7759 0.4764
C3_3 C 0.10859(19) 0.79818(18) 0.47594(14)
H2_3 H 0.1090 0.7953 0.4402
C4_3 C 0.16724(16) 0.81334(11) 0.50665(11)
C5_3 C 0.16298(18) 0.81878(14) 0.55744(12)
H3_3 H 0.2018 0.8299 0.5789
C6_3 C 0.10516(17) 0.80884(13) 0.57851(12)
H4_3 H 0.1047 0.8129 0.6141
C7_3 C 0.32385(17) 0.77565(12) 0.26119(11)
C8_3 C 0.37970(17) 0.77643(13) 0.29823(12)
H5_3 H 0.4235 0.7691 0.2892
C9_3 C 0.37281(15) 0.78765(12) 0.34811(11)
H6_3 H 0.4119 0.7885 0.3729
C10_3 C 0.30898(15) 0.79765(11) 0.36226(11)
C11_3 C 0.25223(18) 0.79546(14) 0.32492(13)
H7_3 H 0.2080 0.8012 0.3340
C12_3 C 0.26007(18) 0.78508(14) 0.27502(13)
H8_3 H 0.2213 0.7844 0.2499
C13_3 C 0.71792(15) 0.82733(11) 0.57497(12)
C14_3 C 0.70282(17) 0.86502(12) 0.60443(14)
H9_3 H 0.7361 0.8762 0.6307
C15_3 C 0.63959(17) 0.88666(12) 0.59601(14)
H10_3 H 0.6298 0.9124 0.6167
C16_3 C 0.59045(15) 0.87094(11) 0.55763(12)
C17_3 C 0.60733(15) 0.83348(11) 0.52689(12)
H11_2 H 0.5751 0.8230 0.4996
C18_3 C 0.67000(15) 0.81180(11) 0.53581(11)
H12_3 H 0.6803 0.7862 0.5151
C25_3 C 0.30035(15) 0.81305(11) 0.41484(11)
C26_3 C 0.35255(16) 0.83892(11) 0.44321(11)
H17_3 H 0.3942 0.8438 0.4296
C27_3 C 0.34461(15) 0.85743(11) 0.49047(11)
C28_3 C 0.28321(15) 0.84984(11) 0.51020(12)
H18_3 H 0.2767 0.8633 0.5421
C29_3 C 0.23120(15) 0.82285(11) 0.48378(12)
C30_3 C 0.24098(15) 0.80481(12) 0.43633(11)
H19_3 H 0.2060 0.7863 0.4181
C31_3 C 0.44531(16) 0.95863(11) 0.55627(12)
C32_3 C 0.39067(15) 0.93113(11) 0.53413(12)
H20_3 H 0.3459 0.9438 0.5302
C33_3 C 0.40114(15) 0.88570(11) 0.51781(11)
C34_3 C 0.46588(15) 0.86688(11) 0.52540(11)
H21_3 H 0.4729 0.8357 0.5144
C35_3 C 0.52107(15) 0.89251(11) 0.54874(12)
C36_3 C 0.51010(16) 0.93838(11) 0.56338(13)
H22_3 H 0.5476 0.9565 0.5786
C38_3 C 0.3316(2) 0.76653(13) 0.20616(13)
C39_3 C 0.78316(15) 0.80132(11) 0.58707(11)
O9_3 O 0.98430(10) 0.78373(7) 0.61951(7)
O10_3 O 0.93511(11) 0.76133(8) 0.54460(8)
O12_2 O 0.84869(12) 0.67229(8) 0.59740(10)
O13_2 O 0.95809(12) 0.68007(8) 0.61659(11)
C41_3 C 0.98536(15) 0.77912(11) 0.57193(11)
C42_2 C 0.90784(17) 0.65441(11) 0.60325(12)
O5_4 O 0.33204(10) 0.31727(7) 0.61751(8)
O6_4 O 0.28810(10) 0.26074(7) 0.56714(8)
C13_4 C 0.21792(15) 0.32733(11) 0.57497(12)
C14_4 C 0.20282(17) 0.36502(12) 0.60443(14)
H9_4 H 0.2361 0.3762 0.6307
C15_4 C 0.13959(17) 0.38666(12) 0.59601(14)
H10_4 H 0.1298 0.4124 0.6167
C16_4 C 0.09045(15) 0.37094(11) 0.55763(12)
C17_4 C 0.10733(15) 0.33348(11) 0.52689(12)
H11_3 H 0.0751 0.3230 0.4996
C18_4 C 0.17000(15) 0.31180(11) 0.53581(11)
H12_4 H 0.1803 0.2862 0.5151
H15_4 H 0.0313 0.5284 0.5667
H16_4 H 0.0165 0.6062 0.5885
C35_4 C 0.02107(15) 0.39251(11) 0.54874(12)
C36_4 C 0.01010(16) 0.43838(11) 0.56338(13)
H22_4 H 0.0476 0.4565 0.5786
C39_4 C 0.28316(15) 0.30132(11) 0.58707(11)
O9_4 O 0.48430(10) 0.28373(7) 0.61951(7)
O10_4 O 0.43511(11) 0.26133(8) 0.54460(8)
C41_4 C 0.48536(15) 0.27912(11) 0.57193(11)
O4_4 O 0.78073(15) 0.26652(11) 0.17323(9)
C1_4 C 0.54751(15) 0.29300(11) 0.54900(11)
C2_4 C 0.54905(18) 0.28722(18) 0.49740(14)
H1_4 H 0.5100 0.2759 0.4764
C3_4 C 0.60859(19) 0.29818(18) 0.47594(14)
H2_4 H 0.6090 0.2953 0.4402
C4_4 C 0.66724(16) 0.31334(11) 0.50665(11)
C5_4 C 0.66298(18) 0.31878(14) 0.55744(12)
H3_4 H 0.7018 0.3299 0.5789
C6_4 C 0.60516(17) 0.30884(13) 0.57851(12)
H4_4 H 0.6047 0.3129 0.6141
C7_4 C 0.82385(17) 0.27565(12) 0.26119(11)
C8_4 C 0.87970(17) 0.27643(13) 0.29823(12)
H5_4 H 0.9235 0.2691 0.2892
C9_4 C 0.87281(15) 0.28765(12) 0.34811(11)
H6_4 H 0.9119 0.2885 0.3729
C10_4 C 0.80898(15) 0.29765(11) 0.36226(11)
C11_4 C 0.75223(18) 0.29546(14) 0.32492(13)
H7_4 H 0.7080 0.3012 0.3340
C12_4 C 0.76007(18) 0.28508(14) 0.27502(13)
H8_4 H 0.7213 0.2844 0.2499
C19_4 C 0.91693(16) 0.60360(11) 0.59306(12)
C20_4 C 0.93527(16) 0.50858(11) 0.57007(13)
C21_4 C 0.8623(3) 0.5717(2) 0.5920(3)
H13_4 H 0.8186 0.5828 0.5977
C22_4 C 0.8715(4) 0.5240(2) 0.5827(3)
H14_4 H 0.8355 0.5023 0.5847
C23_4 C 0.9876(3) 0.5390(2) 0.5731(3)
C24_4 C 0.9783(3) 0.5858(2) 0.5853(3)
C25_4 C 0.80035(15) 0.31305(11) 0.41484(11)
C26_4 C 0.85255(16) 0.33892(11) 0.44321(11)
H17_4 H 0.8942 0.3438 0.4296
C27_4 C 0.84461(15) 0.35743(11) 0.49047(11)
C28_4 C 0.78321(15) 0.34984(11) 0.51020(12)
H18_4 H 0.7767 0.3633 0.5421
C29_4 C 0.73120(15) 0.32285(11) 0.48378(12)
C30_4 C 0.74098(15) 0.30481(12) 0.43633(11)
H19_4 H 0.7060 0.2863 0.4181
C31_4 C 0.94531(16) 0.45863(11) 0.55627(12)
C32_4 C 0.89067(15) 0.43113(11) 0.53413(12)
H20_4 H 0.8459 0.4438 0.5302
C33_4 C 0.90114(15) 0.38570(11) 0.51781(11)
C34_4 C 0.96588(15) 0.36688(11) 0.52540(11)
H21_4 H 0.9729 0.3357 0.5144
C38_4 C 0.8316(2) 0.26653(13) 0.20616(13)
O1 O 0.01570(10) 0.21627(7) 0.38049(7)
O2 O 0.06489(11) 0.23867(8) 0.45540(8)
C37 C 0.01464(15) 0.22088(11) 0.42807(11)
In3 In 0.114250(10) 0.254800(7) 0.384560(7)
O3_3 O 0.60753(14) 0.23996(9) 0.80442(9)
O4_5 O 0.71927(15) 0.23348(11) 0.82677(9)
O5_5 O 0.16796(10) 0.18273(7) 0.38249(8)
O6_5 O 0.21190(10) 0.23926(7) 0.43286(8)
C1_5 C 0.95249(15) 0.20700(11) 0.45100(11)
C2_5 C 0.95095(18) 0.21278(18) 0.50260(14)
H1_5 H 0.9900 0.2241 0.5236
C3_5 C 0.89141(19) 0.20182(18) 0.52406(14)
H2_5 H 0.8910 0.2047 0.5598
C4_5 C 0.83276(16) 0.18666(11) 0.49335(11)
C5_5 C 0.83702(18) 0.18122(14) 0.44256(12)
H3_5 H 0.7982 0.1701 0.4211
C6_5 C 0.89484(17) 0.19116(13) 0.42149(12)
H4_5 H 0.8953 0.1871 0.3859
C7_5 C 0.67615(17) 0.22435(12) 0.73881(11)
C8_5 C 0.62030(17) 0.22357(13) 0.70177(12)
H5_5 H 0.5765 0.2309 0.7108
C9_5 C 0.62719(15) 0.21235(12) 0.65189(11)
H6_5 H 0.5881 0.2115 0.6271
C10_5 C 0.69102(15) 0.20235(11) 0.63774(11)
C11_5 C 0.74777(18) 0.20454(14) 0.67508(13)
H7_5 H 0.7920 0.1988 0.6660
C12_5 C 0.73993(18) 0.21492(14) 0.72498(13)
H8_5 H 0.7787 0.2156 0.7501
C13_5 C 0.28208(15) 0.17267(11) 0.42503(12)
C14_5 C 0.29718(17) 0.13498(12) 0.39557(14)
H9_5 H 0.2639 0.1238 0.3693
C15_5 C 0.36041(17) 0.11334(12) 0.40399(14)
H10_5 H 0.3702 0.0876 0.3833
C16_5 C 0.40955(15) 0.12906(11) 0.44237(12)
C17_5 C 0.39267(15) 0.16652(11) 0.47311(12)
H11_4 H 0.4249 0.1770 0.5004
C18_5 C 0.33000(15) 0.18820(11) 0.46419(11)
H12_5 H 0.3197 0.2138 0.4849
C25_5 C 0.69965(15) 0.18695(11) 0.58516(11)
C26_5 C 0.64745(16) 0.16108(11) 0.55679(11)
H17_5 H 0.6058 0.1562 0.5704
C27_5 C 0.65539(15) 0.14257(11) 0.50953(11)
C28_5 C 0.71679(15) 0.15016(11) 0.48980(12)
H18_5 H 0.7233 0.1367 0.4579
C29_5 C 0.76880(15) 0.17715(11) 0.51622(12)
C30_5 C 0.75902(15) 0.19519(12) 0.56367(11)
H19_5 H 0.7940 0.2137 0.5819
C31_5 C 0.55469(16) 0.04137(11) 0.44373(12)
C32_5 C 0.60933(15) 0.06887(11) 0.46587(12)
H20_5 H 0.6541 0.0562 0.4698
C33_5 C 0.59886(15) 0.11430(11) 0.48219(11)
C34_5 C 0.53412(15) 0.13312(11) 0.47460(11)
H21_5 H 0.5271 0.1643 0.4856
C35_5 C 0.47893(15) 0.10749(11) 0.45126(12)
C36_5 C 0.48990(16) 0.06162(11) 0.43662(13)
H22_5 H 0.4524 0.0435 0.4214
C38_5 C 0.6684(2) 0.23347(13) 0.79384(13)
C39_5 C 0.21684(15) 0.19868(11) 0.41293(11)
In2_3 In 0.614250(10) 0.245200(7) 0.884560(7)
O11_3 O 0.10753(14) 0.26004(9) 0.30442(9)
O12_3 O 0.15131(12) 0.32771(8) 0.40260(10)
O13_3 O 0.04191(12) 0.31993(8) 0.38341(11)
C42_3 C 0.09216(17) 0.34559(11) 0.39675(12)
O7_3 O 0.65131(12) 0.82771(8) 0.40260(10)
O8_3 O 0.54191(12) 0.81993(8) 0.38341(11)
C19_5 C 0.58307(16) 0.89640(11) 0.40694(12)
C20_5 C 0.56473(16) 0.99142(11) 0.42993(13)
C21_5 C 0.6377(3) 0.9283(2) 0.4080(3)
H13_5 H 0.6814 0.9172 0.4023
C22_5 C 0.6285(4) 0.9760(2) 0.4173(3)
H14_5 H 0.6645 0.9977 0.4153
C23_5 C 0.5124(3) 0.9610(2) 0.4269(3)
H15_5 H 0.4687 0.9716 0.4333
C24_5 C 0.5217(3) 0.9142(2) 0.4147(3)
H16_5 H 0.4835 0.8938 0.4115
C40_3 C 0.59216(17) 0.84559(11) 0.39675(12)
In4_2 In 0.614250(10) 0.754800(7) 0.384560(7)
O1_2 O 0.51570(10) 0.71627(7) 0.38049(7)
O2_2 O 0.56489(11) 0.73867(8) 0.45540(8)
O3_4 O 0.10753(14) 0.73996(9) 0.80442(9)
O4_6 O 0.21927(15) 0.73348(11) 0.82677(9)
C1_6 C 0.45249(15) 0.70700(11) 0.45100(11)
C2_6 C 0.45095(18) 0.71278(18) 0.50260(14)
H1_6 H 0.4900 0.7241 0.5236
C3_6 C 0.39141(19) 0.70182(18) 0.52406(14)
H2_6 H 0.3910 0.7047 0.5598
C4_6 C 0.33276(16) 0.68666(11) 0.49335(11)
C5_6 C 0.33702(18) 0.68122(14) 0.44256(12)
H3_6 H 0.2982 0.6701 0.4211
C6_6 C 0.39484(17) 0.69116(13) 0.42149(12)
H4_6 H 0.3953 0.6871 0.3859
C7_6 C 0.17615(17) 0.72435(12) 0.73881(11)
C8_6 C 0.12030(17) 0.72357(13) 0.70177(12)
H5_6 H 0.0765 0.7309 0.7108
C9_6 C 0.12719(15) 0.71235(12) 0.65189(11)
H6_6 H 0.0881 0.7115 0.6271
C10_6 C 0.19102(15) 0.70235(11) 0.63774(11)
C11_6 C 0.24777(18) 0.70454(14) 0.67508(13)
H7_6 H 0.2920 0.6988 0.6660
C12_6 C 0.23993(18) 0.71492(14) 0.72498(13)
H8_6 H 0.2787 0.7156 0.7501
C19_6 C 0.08307(16) 0.39640(11) 0.40694(12)
C20_6 C 0.06473(16) 0.49142(11) 0.42993(13)
C21_6 C 0.1377(3) 0.4283(2) 0.4080(3)
H13_6 H 0.1814 0.4172 0.4023
C22_6 C 0.1285(4) 0.4760(2) 0.4173(3)
H14_6 H 0.1645 0.4977 0.4153
C23_6 C 0.0124(3) 0.4610(2) 0.4269(3)
C24_6 C 0.0217(3) 0.4142(2) 0.4147(3)
C25_6 C 0.19965(15) 0.68695(11) 0.58516(11)
C26_6 C 0.14745(16) 0.66108(11) 0.55679(11)
H17_6 H 0.1058 0.6562 0.5704
C27_6 C 0.15539(15) 0.64257(11) 0.50953(11)
C28_6 C 0.21679(15) 0.65016(11) 0.48980(12)
H18_6 H 0.2233 0.6367 0.4579
C29_6 C 0.26880(15) 0.67715(11) 0.51622(12)
C30_6 C 0.25902(15) 0.69519(12) 0.56367(11)
H19_6 H 0.2940 0.7137 0.5819
C31_6 C 0.05469(16) 0.54137(11) 0.44373(12)
C32_6 C 0.10933(15) 0.56887(11) 0.46587(12)
H20_6 H 0.1541 0.5562 0.4698
C33_6 C 0.09886(15) 0.61430(11) 0.48219(11)
C34_6 C 0.03412(15) 0.63312(11) 0.47460(11)
H21_6 H 0.0271 0.6643 0.4856
C37_2 C 0.51464(15) 0.72088(11) 0.42807(11)
C38_6 C 0.1684(2) 0.73347(13) 0.79384(13)
In2_4 In 0.114250(10) 0.745200(7) 0.884560(7)
O5_6 O 0.66796(10) 0.68273(7) 0.38249(8)
O6_6 O 0.71190(10) 0.73926(7) 0.43286(8)
C13_6 C 0.78208(15) 0.67267(11) 0.42503(12)
C14_6 C 0.79718(17) 0.63498(12) 0.39557(14)
H9_6 H 0.7639 0.6238 0.3693
C15_6 C 0.86041(17) 0.61334(12) 0.40399(14)
H10_6 H 0.8702 0.5876 0.3833
C16_6 C 0.90955(15) 0.62906(11) 0.44237(12)
C17_6 C 0.89267(15) 0.66652(11) 0.47311(12)
H11_5 H 0.9249 0.6770 0.5004
C18_6 C 0.83000(15) 0.68820(11) 0.46419(11)
H12_6 H 0.8197 0.7138 0.4849
H15_6 H 0.9687 0.4716 0.4333
H16_6 H 0.9835 0.3938 0.4115
C35_6 C 0.97893(15) 0.60749(11) 0.45126(12)
C36_6 C 0.98990(16) 0.56162(11) 0.43662(13)
H22_6 H 0.9524 0.5435 0.4214
C39_6 C 0.71684(15) 0.69868(11) 0.41293(11)
O11_4 O 0.60753(14) 0.76004(9) 0.30442(9)
O1_3 O 0.01570(10) 0.78373(7) 0.88049(7)
O2_3 O 0.06489(11) 0.76133(8) 0.95540(8)
C37_3 C 0.01464(15) 0.77912(11) 0.92807(11)
O7_4 O 0.65131(12) 0.17229(8) 0.90260(10)
O8_4 O 0.54191(12) 0.18007(8) 0.88341(11)
C19_7 C 0.58307(16) 0.10360(11) 0.90694(12)
C20_7 C 0.56473(16) 0.00858(11) 0.92993(13)
C21_7 C 0.6377(3) 0.0717(2) 0.9080(3)
H13_7 H 0.6814 0.0828 0.9023
C22_7 C 0.6285(4) 0.0240(2) 0.9173(3)
H14_7 H 0.6645 0.0023 0.9153
C23_7 C 0.5124(3) 0.0390(2) 0.9269(3)
H15_7 H 0.4687 0.0284 0.9333
C24_7 C 0.5217(3) 0.0858(2) 0.9147(3)
H16_7 H 0.4835 0.1062 0.9115
C40_4 C 0.59216(17) 0.15441(11) 0.89675(12)
O4_7 O 0.71927(15) 0.76652(11) 0.32677(9)
C2_7 C 0.95095(18) 0.78722(18) 0.00260(14)
H1_7 H 0.9900 0.7759 0.0236
C3_7 C 0.89141(19) 0.79818(18) 0.02406(14)
H2_7 H 0.8910 0.7953 0.0598
C7_7 C 0.67615(17) 0.77565(12) 0.23881(11)
C8_7 C 0.62030(17) 0.77643(13) 0.20177(12)
H5_7 H 0.5765 0.7691 0.2108
C9_7 C 0.62719(15) 0.78765(12) 0.15189(11)
H6_7 H 0.5881 0.7885 0.1271
C10_7 C 0.69102(15) 0.79765(11) 0.13774(11)
C11_7 C 0.74777(18) 0.79546(14) 0.17508(13)
H7_7 H 0.7920 0.8012 0.1660
C12_7 C 0.73993(18) 0.78508(14) 0.22498(13)
H8_7 H 0.7787 0.7844 0.2501
H11_6 H 0.4249 0.8230 0.0004
C25_7 C 0.69965(15) 0.81305(11) 0.08516(11)
C26_7 C 0.64745(16) 0.83892(11) 0.05679(11)
H17_7 H 0.6058 0.8438 0.0704
C27_7 C 0.65539(15) 0.85743(11) 0.00953(11)
C29_7 C 0.76880(15) 0.82285(11) 0.01622(12)
C30_7 C 0.75902(15) 0.80481(12) 0.06367(11)
H19_7 H 0.7940 0.7863 0.0819
C38_7 C 0.6684(2) 0.76653(13) 0.29384(13)
O5_7 O 0.16796(10) 0.81727(7) 0.88249(8)
O6_7 O 0.21190(10) 0.76074(7) 0.93286(8)
C1_7 C 0.95249(15) 0.79300(11) 0.95100(11)
C4_7 C 0.83276(16) 0.81334(11) 0.99335(11)
C5_7 C 0.83702(18) 0.81878(14) 0.94256(12)
H3_7 H 0.7982 0.8299 0.9211
C6_7 C 0.89484(17) 0.80884(13) 0.92149(12)
H4_7 H 0.8953 0.8129 0.8859
C13_7 C 0.28208(15) 0.82733(11) 0.92503(12)
C14_7 C 0.29718(17) 0.86502(12) 0.89557(14)
H9_7 H 0.2639 0.8762 0.8693
C15_7 C 0.36041(17) 0.88666(12) 0.90399(14)
H10_7 H 0.3702 0.9124 0.8833
C16_7 C 0.40955(15) 0.87094(11) 0.94237(12)
C17_7 C 0.39267(15) 0.83348(11) 0.97311(12)
C18_7 C 0.33000(15) 0.81180(11) 0.96419(11)
H12_7 H 0.3197 0.7862 0.9849
C28_7 C 0.71679(15) 0.84984(11) 0.98980(12)
H18_7 H 0.7233 0.8633 0.9579
C31_7 C 0.55469(16) 0.95863(11) 0.94373(12)
C32_7 C 0.60933(15) 0.93113(11) 0.96587(12)
H20_7 H 0.6541 0.9438 0.9698
C33_7 C 0.59886(15) 0.88570(11) 0.98219(11)
C34_7 C 0.53412(15) 0.86688(11) 0.97460(11)
H21_7 H 0.5271 0.8357 0.9856
C35_7 C 0.47893(15) 0.89251(11) 0.95126(12)
C36_7 C 0.48990(16) 0.93838(11) 0.93662(13)
H22_7 H 0.4524 0.9565 0.9214
C39_7 C 0.21684(15) 0.80132(11) 0.91293(11)
O12_4 O 0.15131(12) 0.67229(8) 0.90260(10)
O13_4 O 0.04191(12) 0.68007(8) 0.88341(11)
C42_4 C 0.09216(17) 0.65441(11) 0.89675(12)
O4_8 O 0.21927(15) 0.26652(11) 0.32677(9)
C2_8 C 0.45095(18) 0.28722(18) 0.00260(14)
H1_8 H 0.4900 0.2759 0.0236
C3_8 C 0.39141(19) 0.29818(18) 0.02406(14)
H2_8 H 0.3910 0.2953 0.0598
C7_8 C 0.17615(17) 0.27565(12) 0.23881(11)
C8_8 C 0.12030(17) 0.27643(13) 0.20177(12)
H5_8 H 0.0765 0.2691 0.2108
C9_8 C 0.12719(15) 0.28765(12) 0.15189(11)
H6_8 H 0.0881 0.2885 0.1271
C10_8 C 0.19102(15) 0.29765(11) 0.13774(11)
C11_8 C 0.24777(18) 0.29546(14) 0.17508(13)
H7_8 H 0.2920 0.3012 0.1660
C12_8 C 0.23993(18) 0.28508(14) 0.22498(13)
H8_8 H 0.2787 0.2844 0.2501
C25_8 C 0.19965(15) 0.31305(11) 0.08516(11)
C26_8 C 0.14745(16) 0.33892(11) 0.05679(11)
H17_8 H 0.1058 0.3438 0.0704
C27_8 C 0.15539(15) 0.35743(11) 0.00953(11)
C29_8 C 0.26880(15) 0.32285(11) 0.01622(12)
C30_8 C 0.25902(15) 0.30481(12) 0.06367(11)
H19_8 H 0.2940 0.2863 0.0819
C38_8 C 0.1684(2) 0.26653(13) 0.29384(13)
O1_4 O 0.51570(10) 0.28373(7) 0.88049(7)
O2_4 O 0.56489(11) 0.26133(8) 0.95540(8)
C1_8 C 0.45249(15) 0.29300(11) 0.95100(11)
C4_8 C 0.33276(16) 0.31334(11) 0.99335(11)
C5_8 C 0.33702(18) 0.31878(14) 0.94256(12)
H3_8 H 0.2982 0.3299 0.9211
C6_8 C 0.39484(17) 0.30884(13) 0.92149(12)
H4_8 H 0.3953 0.3129 0.8859
C19_8 C 0.08307(16) 0.60360(11) 0.90694(12)
C20_8 C 0.06473(16) 0.50858(11) 0.92993(13)
C21_8 C 0.1377(3) 0.5717(2) 0.9080(3)
H13_8 H 0.1814 0.5828 0.9023
C22_8 C 0.1285(4) 0.5240(2) 0.9173(3)
H14_8 H 0.1645 0.5023 0.9153
C23_8 C 0.0124(3) 0.5390(2) 0.9269(3)
C24_8 C 0.0217(3) 0.5858(2) 0.9147(3)
C28_8 C 0.21679(15) 0.34984(11) 0.98980(12)
H18_8 H 0.2233 0.3633 0.9579
C31_8 C 0.05469(16) 0.45863(11) 0.94373(12)
C32_8 C 0.10933(15) 0.43113(11) 0.96587(12)
H20_8 H 0.1541 0.4438 0.9698
C33_8 C 0.09886(15) 0.38570(11) 0.98219(11)
C34_8 C 0.03412(15) 0.36688(11) 0.97460(11)
H21_8 H 0.0271 0.3357 0.9856
C37_4 C 0.51464(15) 0.27912(11) 0.92807(11)
O5_8 O 0.66796(10) 0.31727(7) 0.88249(8)
O6_8 O 0.71190(10) 0.26074(7) 0.93286(8)
C13_8 C 0.78208(15) 0.32733(11) 0.92503(12)
C14_8 C 0.79718(17) 0.36502(12) 0.89557(14)
H9_8 H 0.7639 0.3762 0.8693
C15_8 C 0.86041(17) 0.38666(12) 0.90399(14)
H10_8 H 0.8702 0.4124 0.8833
C16_8 C 0.90955(15) 0.37094(11) 0.94237(12)
C17_8 C 0.89267(15) 0.33348(11) 0.97311(12)
C18_8 C 0.83000(15) 0.31180(11) 0.96419(11)
H12_8 H 0.8197 0.2862 0.9849
H15_8 H 0.9687 0.5284 0.9333
H16_8 H 0.9835 0.6062 0.9115
C35_8 C 0.97893(15) 0.39251(11) 0.95126(12)
C36_8 C 0.98990(16) 0.43838(11) 0.93662(13)
H22_8 H 0.9524 0.4565 0.9214
C39_8 C 0.71684(15) 0.30132(11) 0.91293(11)
H11_7 H 0.0751 0.6770 0.9996
H11_8 H 0.9249 0.3230 0.0004
N1 N 0.69588(18) 0.31605(12) 0.09323(13)
H23 H 0.7075 0.3406 0.1153
H24 H 0.7316 0.2951 0.0960
C43 C 0.6830(3) 0.33375(17) 0.04071(17)
H25 H 0.7238 0.3497 0.0319
H26 H 0.6448 0.3559 0.0379
H27 H 0.6717 0.3074 0.0173
C44 C 0.6330(4) 0.2921(3) 0.1072(3)
H28 H 0.6422 0.2794 0.1418
H29 H 0.6201 0.2665 0.0832
H30 H 0.5956 0.3149 0.1057
N1_2 N 0.30412(18) 0.31605(12) 0.40677(13)
H23_2 H 0.2925 0.3406 0.3847
H24_2 H 0.2684 0.2951 0.4040
C43_2 C 0.3170(3) 0.33375(17) 0.45929(17)
H25_2 H 0.2762 0.3497 0.4681
H26_2 H 0.3552 0.3559 0.4621
H27_2 H 0.3283 0.3074 0.4827
C44_2 C 0.3670(4) 0.2921(3) 0.3928(3)
H28_2 H 0.3578 0.2794 0.3582
H29_2 H 0.3799 0.2665 0.4168
H30_2 H 0.4044 0.3149 0.3943
N1_3 N 0.19588(18) 0.81605(12) 0.09323(13)
H23_3 H 0.2075 0.8406 0.1153
H24_3 H 0.2316 0.7951 0.0960
C43_3 C 0.1830(3) 0.83375(17) 0.04071(17)
H25_3 H 0.2238 0.8497 0.0319
H26_3 H 0.1448 0.8559 0.0379
H27_3 H 0.1717 0.8074 0.0173
C44_3 C 0.1330(4) 0.7921(3) 0.1072(3)
H28_3 H 0.1422 0.7794 0.1418
H29_3 H 0.1201 0.7665 0.0832
H30_3 H 0.0956 0.8149 0.1057
N1_4 N 0.80412(18) 0.81605(12) 0.40677(13)
H23_4 H 0.7925 0.8406 0.3847
H24_4 H 0.7684 0.7951 0.4040
C43_4 C 0.8170(3) 0.83375(17) 0.45929(17)
H25_4 H 0.7762 0.8497 0.4681
H26_4 H 0.8552 0.8559 0.4621
H27_4 H 0.8283 0.8074 0.4827
C44_4 C 0.8670(4) 0.7921(3) 0.3928(3)
H28_4 H 0.8578 0.7794 0.3582
H29_4 H 0.8799 0.7665 0.4168
H30_4 H 0.9044 0.8149 0.3943
N1_5 N 0.30412(18) 0.68395(12) 0.90677(13)
H23_5 H 0.2925 0.6594 0.8847
H24_5 H 0.2684 0.7049 0.9040
C43_5 C 0.3170(3) 0.66625(17) 0.95929(17)
H25_5 H 0.2762 0.6503 0.9681
H26_5 H 0.3552 0.6441 0.9621
H27_5 H 0.3283 0.6926 0.9827
C44_5 C 0.3670(4) 0.7079(3) 0.8928(3)
H28_5 H 0.3578 0.7206 0.8582
H29_5 H 0.3799 0.7335 0.9168
H30_5 H 0.4044 0.6851 0.8943
N1_6 N 0.69588(18) 0.68395(12) 0.59323(13)
H23_6 H 0.7075 0.6594 0.6153
H24_6 H 0.7316 0.7049 0.5960
C43_6 C 0.6830(3) 0.66625(17) 0.54071(17)
H25_6 H 0.7238 0.6503 0.5319
H26_6 H 0.6448 0.6441 0.5379
H27_6 H 0.6717 0.6926 0.5173
C44_6 C 0.6330(4) 0.7079(3) 0.6072(3)
H28_6 H 0.6422 0.7206 0.6418
H29_6 H 0.6201 0.7335 0.5832
H30_6 H 0.5956 0.6851 0.6057
N1_7 N 0.80412(18) 0.18395(12) 0.90677(13)
H23_7 H 0.7925 0.1594 0.8847
H24_7 H 0.7684 0.2049 0.9040
C43_7 C 0.8170(3) 0.16625(17) 0.95929(17)
H25_7 H 0.7762 0.1503 0.9681
H26_7 H 0.8552 0.1441 0.9621
H27_7 H 0.8283 0.1926 0.9827
C44_7 C 0.8670(4) 0.2079(3) 0.8928(3)
H28_7 H 0.8578 0.2206 0.8582
H29_7 H 0.8799 0.2335 0.9168
H30_7 H 0.9044 0.1851 0.8943
N1_8 N 0.19588(18) 0.18395(12) 0.59323(13)
H23_8 H 0.2075 0.1594 0.6153
H24_8 H 0.2316 0.2049 0.5960
C43_8 C 0.1830(3) 0.16625(17) 0.54071(17)
H25_8 H 0.2238 0.1503 0.5319
H26_8 H 0.1448 0.1441 0.5379
H27_8 H 0.1717 0.1926 0.5173
C44_8 C 0.1330(4) 0.2079(3) 0.6072(3)
H28_8 H 0.1422 0.2206 0.6418
H29_8 H 0.1201 0.2335 0.5832
H30_8 H 0.0956 0.1851 0.6057
loop_
_geom_bond_atom_site_label_1
_geom_bond_atom_site_label_2
_geom_bond_site_symmetry_1
_geom_bond_site_symmetry_2
In1 O5 1_555 1_555
O5 C39 1_555 1_555
O6 In1 1_555 1_555
C5 C4 1_555 1_555
H3 C5 1_555 1_555
C6 C1 1_555 1_555
H4 C6 1_555 1_555
C13 C14 1_555 1_555
C14 H9 1_555 1_555
C15 C14 1_555 1_555
H10 C15 1_555 1_555
C16 C15 1_555 1_555
C17 C16 1_555 1_555
C18 C13 1_555 1_555
H12 C18 1_555 1_555
H18 C28 1_555 1_555
C32 C31 1_555 1_555
H20 C32 1_555 1_555
C34 C33 1_555 1_555
H21 C34 1_555 1_555
C35 C16 1_555 1_555
C36 C31 1_555 1_555
H22 C36 1_555 1_555
C39 O6 1_555 1_555
O9 In1 1_555 1_555
O10 In1 1_555 1_555
O11 In1 1_555 1_555
O12 In1 1_555 1_555
O13 In1 1_555 1_555
C41 O9 1_555 1_555
C42 O12 1_555 1_555
C5 C6 1_555 1_555
C13 C39 1_555 1_555
C17 C18 1_555 1_555
C32 C33 1_555 1_555
C34 C35 1_555 1_555
C35 C36 1_555 1_555
O10 C41 1_555 1_555
O13 C42 1_555 1_555
O3 C38 1_555 1_555
O4 C38 1_555 1_555
C2 H1 1_555 1_555
C3 C2 1_555 1_555
H2 C3 1_555 1_555
C7 C8 1_555 1_555
C8 H5 1_555 1_555
C9 C8 1_555 1_555
H6 C9 1_555 1_555
C10 C9 1_555 1_555
C11 C10 1_555 1_555
H7 C11 1_555 1_555
C12 C7 1_555 1_555
H8 C12 1_555 1_555
C25 C10 1_555 1_555
C26 C25 1_555 1_555
H17 C26 1_555 1_555
C27 C26 1_555 1_555
C30 C25 1_555 1_555
H19 C30 1_555 1_555
C38 C7 1_555 1_555
In2 O3 1_555 1_555
C11 C12 1_555 1_555
C29 C30 1_555 1_555
O7 C40 1_555 1_555
O8 C40 1_555 1_555
C19 C21 1_555 1_555
C20 C22 1_555 1_555
C21 H13 1_555 1_555
C22 C21 1_555 1_555
H14 C22 1_555 1_555
C23 C20 1_555 1_555
H15 C23 1_555 1_555
C24 C19 1_555 1_555
H16 C24 1_555 1_555
C40 C19 1_555 1_555
In4 O7 1_555 1_555
O8 In4 1_555 1_555
C23 C24 1_555 1_555
In4 O5_2 1_555 1_555
O5_2 C39_2 1_555 1_555
O6_2 In4 1_555 1_555
C13_2 C14_2 1_555 1_555
C14_2 H9_2 1_555 1_555
C15_2 C14_2 1_555 1_555
H10_2 C15_2 1_555 1_555
C16_2 C15_2 1_555 1_555
C17_2 C16_2 1_555 1_555
C18_2 C13_2 1_555 1_555
H12_2 C18_2 1_555 1_555
C35_2 C16_2 1_555 1_555
H22_2 C36_2 1_555 1_555
C39_2 O6_2 1_555 1_555
O9_2 In4 1_555 1_555
O10_2 In4 1_555 1_555
O11_2 In4 1_555 1_555
C41_2 O9_2 1_555 1_555
C13_2 C39_2 1_555 1_555
C17_2 C18_2 1_555 1_555
C35_2 C36_2 1_555 1_555
O10_2 C41_2 1_555 1_555
C5_2 C4_2 1_555 1_555
H3_2 C5_2 1_555 1_555
C6_2 C1_2 1_555 1_555
H4_2 C6_2 1_555 1_555
C19_2 C21_2 1_555 1_555
C20_2 C22_2 1_555 1_555
C21_2 H13_2 1_555 1_555
C22_2 C21_2 1_555 1_555
H14_2 C22_2 1_555 1_555
C23_2 C20_2 1_555 1_555
C24_2 C19_2 1_555 1_555
H18_2 C28_2 1_555 1_555
C31_2 C20_2 1_555 1_555
C32_2 C31_2 1_555 1_555
H20_2 C32_2 1_555 1_555
C34_2 C33_2 1_555 1_555
H21_2 C34_2 1_555 1_555
C41_2 C1_2 1_555 1_555
C42 C19_2 1_555 1_555
C5_2 C6_2 1_555 1_555
C23_2 C24_2 1_555 1_555
C32_2 C33_2 1_555 1_555
O3_2 C38_2 1_555 1_555
O4_2 C38_2 1_555 1_555
C2_2 H1_2 1_555 1_555
C3_2 C2_2 1_555 1_555
H2_2 C3_2 1_555 1_555
C7_2 C8_2 1_555 1_555
C8_2 H5_2 1_555 1_555
C9_2 C8_2 1_555 1_555
H6_2 C9_2 1_555 1_555
C10_2 C9_2 1_555 1_555
C11_2 C10_2 1_555 1_555
H7_2 C11_2 1_555 1_555
C12_2 C7_2 1_555 1_555
H8_2 C12_2 1_555 1_555
C25_2 C10_2 1_555 1_555
C26_2 C25_2 1_555 1_555
H17_2 C26_2 1_555 1_555
C27_2 C26_2 1_555 1_555
C30_2 C25_2 1_555 1_555
H19_2 C30_2 1_555 1_555
C38_2 C7_2 1_555 1_555
In2_2 O3_2 1_555 1_555
C11_2 C12_2 1_555 1_555
C29_2 C30_2 1_555 1_555
O7_2 C40_2 1_555 1_555
O8_2 C40_2 1_555 1_555
C19_3 C21_3 1_555 1_555
C20_3 C22_3 1_555 1_555
C21_3 H13_3 1_555 1_555
C22_3 C21_3 1_555 1_555
H14_3 C22_3 1_555 1_555
C23_3 C20_3 1_555 1_555
H15_3 C23_3 1_555 1_555
C24_3 C19_3 1_555 1_555
H16_3 C24_3 1_555 1_555
C40_2 C19_3 1_555 1_555
In2 O7_2 1_555 1_555
O8_2 In2 1_555 1_555
C23_3 C24_3 1_555 1_555
In2_2 O5_3 1_555 1_555
O11_2 C38_3 1_555 1_555
O4_3 C38_3 1_555 1_555
O5_3 C39_3 1_555 1_555
O6_3 In2_2 1_555 1_555
C1_3 C2_3 1_555 1_555
C2_3 H1_3 1_555 1_555
C3_3 C2_3 1_555 1_555
H2_3 C3_3 1_555 1_555
C4_3 C3_3 1_555 1_555
C5_3 C4_3 1_555 1_555
H3_3 C5_3 1_555 1_555
C6_3 C1_3 1_555 1_555
H4_3 C6_3 1_555 1_555
C7_3 C8_3 1_555 1_555
C8_3 H5_3 1_555 1_555
C9_3 C8_3 1_555 1_555
H6_3 C9_3 1_555 1_555
C10_3 C9_3 1_555 1_555
C11_3 C10_3 1_555 1_555
H7_3 C11_3 1_555 1_555
C12_3 C7_3 1_555 1_555
H8_3 C12_3 1_555 1_555
C13_3 C14_3 1_555 1_555
C14_3 H9_3 1_555 1_555
C15_3 C14_3 1_555 1_555
H10_3 C15_3 1_555 1_555
C16_3 C15_3 1_555 1_555
C17_3 C16_3 1_555 1_555
H11_2 C17_3 1_555 1_555
C18_3 C13_3 1_555 1_555
H12_3 C18_3 1_555 1_555
C25_3 C10_3 1_555 1_555
C26_3 C25_3 1_555 1_555
H17_3 C26_3 1_555 1_555
C27_3 C26_3 1_555 1_555
C28_3 C27_3 1_555 1_555
H18_3 C28_3 1_555 1_555
C29_3 C4_3 1_555 1_555
C30_3 C25_3 1_555 1_555
H19_3 C30_3 1_555 1_555
C32_3 C31_3 1_555 1_555
H20_3 C32_3 1_555 1_555
C33_3 C27_3 1_555 1_555
C34_3 C33_3 1_555 1_555
H21_3 C34_3 1_555 1_555
C35_3 C16_3 1_555 1_555
C36_3 C31_3 1_555 1_555
H22_3 C36_3 1_555 1_555
C38_3 C7_3 1_555 1_555
C39_3 O6_3 1_555 1_555
O9_3 In2_2 1_555 1_555
O10_3 In2_2 1_555 1_555
O12_2 In2_2 1_555 1_555
O13_2 In2_2 1_555 1_555
C41_3 O9_3 1_555 1_555
C42_2 O12_2 1_555 1_555
C5_3 C6_3 1_555 1_555
C11_3 C12_3 1_555 1_555
C13_3 C39_3 1_555 1_555
C17_3 C18_3 1_555 1_555
C28_3 C29_3 1_555 1_555
C29_3 C30_3 1_555 1_555
C32_3 C33_3 1_555 1_555
C34_3 C35_3 1_555 1_555
C35_3 C36_3 1_555 1_555
O10_3 C41_3 1_555 1_555
O13_2 C42_2 1_555 1_555
In2 O5_4 1_555 1_555
O5_4 C39_4 1_555 1_555
O6_4 In2 1_555 1_555
C13_4 C14_4 1_555 1_555
C14_4 H9_4 1_555 1_555
C15_4 C14_4 1_555 1_555
H10_4 C15_4 1_555 1_555
C16_4 C15_4 1_555 1_555
C17_4 C16_4 1_555 1_555
H11_3 C17_4 1_555 1_555
C18_4 C13_4 1_555 1_555
H12_4 C18_4 1_555 1_555
C35_4 C16_4 1_555 1_555
H22_4 C36_4 1_555 1_555
C39_4 O6_4 1_555 1_555
O9_4 In2 1_555 1_555
O10_4 In2 1_555 1_555
C41_4 O9_4 1_555 1_555
C13_4 C39_4 1_555 1_555
C17_4 C18_4 1_555 1_555
C35_4 C36_4 1_555 1_555
O10_4 C41_4 1_555 1_555
O11 C38_4 1_555 1_555
O4_4 C38_4 1_555 1_555
C1_4 C2_4 1_555 1_555
C2_4 H1_4 1_555 1_555
C3_4 C2_4 1_555 1_555
H2_4 C3_4 1_555 1_555
C4_4 C3_4 1_555 1_555
C5_4 C4_4 1_555 1_555
H3_4 C5_4 1_555 1_555
C6_4 C1_4 1_555 1_555
H4_4 C6_4 1_555 1_555
C7_4 C8_4 1_555 1_555
C8_4 H5_4 1_555 1_555
C9_4 C8_4 1_555 1_555
H6_4 C9_4 1_555 1_555
C10_4 C9_4 1_555 1_555
C11_4 C10_4 1_555 1_555
H7_4 C11_4 1_555 1_555
C12_4 C7_4 1_555 1_555
H8_4 C12_4 1_555 1_555
C19_4 C21_4 1_555 1_555
C20_4 C22_4 1_555 1_555
C21_4 H13_4 1_555 1_555
C22_4 C21_4 1_555 1_555
H14_4 C22_4 1_555 1_555
C23_4 C20_4 1_555 1_555
C24_4 C19_4 1_555 1_555
C25_4 C10_4 1_555 1_555
C26_4 C25_4 1_555 1_555
H17_4 C26_4 1_555 1_555
C27_4 C26_4 1_555 1_555
C28_4 C27_4 1_555 1_555
H18_4 C28_4 1_555 1_555
C29_4 C4_4 1_555 1_555
C30_4 C25_4 1_555 1_555
H19_4 C30_4 1_555 1_555
C31_4 C20_4 1_555 1_555
C32_4 C31_4 1_555 1_555
H20_4 C32_4 1_555 1_555
C33_4 C27_4 1_555 1_555
C34_4 C33_4 1_555 1_555
H21_4 C34_4 1_555 1_555
C41_4 C1_4 1_555 1_555
C38_4 C7_4 1_555 1_555
C42_2 C19_4 1_555 1_555
C5_4 C6_4 1_555 1_555
C11_4 C12_4 1_555 1_555
C23_4 C24_4 1_555 1_555
C28_4 C29_4 1_555 1_555
C29_4 C30_4 1_555 1_555
C32_4 C33_4 1_555 1_555
O1 C37 1_555 1_555
O2 C37 1_555 1_555
In3 O1 1_555 1_555
O2 In3 1_555 1_555
In3 O5_5 1_555 1_555
O3_3 C38_5 1_555 1_555
O4_5 C38_5 1_555 1_555
O5_5 C39_5 1_555 1_555
O6_5 In3 1_555 1_555
C1_5 C2_5 1_555 1_555
C2_5 H1_5 1_555 1_555
C3_5 C2_5 1_555 1_555
H2_5 C3_5 1_555 1_555
C4_5 C3_5 1_555 1_555
C5_5 C4_5 1_555 1_555
H3_5 C5_5 1_555 1_555
C6_5 C1_5 1_555 1_555
H4_5 C6_5 1_555 1_555
C7_5 C8_5 1_555 1_555
C8_5 H5_5 1_555 1_555
C9_5 C8_5 1_555 1_555
H6_5 C9_5 1_555 1_555
C10_5 C9_5 1_555 1_555
C11_5 C10_5 1_555 1_555
H7_5 C11_5 1_555 1_555
C12_5 C7_5 1_555 1_555
H8_5 C12_5 1_555 1_555
C13_5 C14_5 1_555 1_555
C14_5 H9_5 1_555 1_555
C15_5 C14_5 1_555 1_555
H10_5 C15_5 1_555 1_555
C16_5 C15_5 1_555 1_555
C17_5 C16_5 1_555 1_555
H11_4 C17_5 1_555 1_555
C18_5 C13_5 1_555 1_555
H12_5 C18_5 1_555 1_555
C25_5 C10_5 1_555 1_555
C26_5 C25_5 1_555 1_555
H17_5 C26_5 1_555 1_555
C27_5 C26_5 1_555 1_555
C28_5 C27_5 1_555 1_555
H18_5 C28_5 1_555 1_555
C29_5 C4_5 1_555 1_555
C30_5 C25_5 1_555 1_555
H19_5 C30_5 1_555 1_555
C32_5 C31_5 1_555 1_555
H20_5 C32_5 1_555 1_555
C33_5 C27_5 1_555 1_555
C34_5 C33_5 1_555 1_555
H21_5 C34_5 1_555 1_555
C35_5 C16_5 1_555 1_555
C36_5 C31_5 1_555 1_555
H22_5 C36_5 1_555 1_555
C38_5 C7_5 1_555 1_555
C39_5 O6_5 1_555 1_555
In2_3 O3_3 1_555 1_555
O11_3 In3 1_555 1_555
O12_3 In3 1_555 1_555
O13_3 In3 1_555 1_555
C42_3 O12_3 1_555 1_555
C5_5 C6_5 1_555 1_555
C11_5 C12_5 1_555 1_555
C13_5 C39_5 1_555 1_555
C17_5 C18_5 1_555 1_555
C28_5 C29_5 1_555 1_555
C29_5 C30_5 1_555 1_555
C32_5 C33_5 1_555 1_555
C34_5 C35_5 1_555 1_555
C35_5 C36_5 1_555 1_555
O13_3 C42_3 1_555 1_555
O7_3 C40_3 1_555 1_555
O8_3 C40_3 1_555 1_555
C19_5 C21_5 1_555 1_555
C20_5 C22_5 1_555 1_555
C21_5 H13_5 1_555 1_555
C22_5 C21_5 1_555 1_555
H14_5 C22_5 1_555 1_555
C23_5 C20_5 1_555 1_555
H15_5 C23_5 1_555 1_555
C24_5 C19_5 1_555 1_555
H16_5 C24_5 1_555 1_555
C40_3 C19_5 1_555 1_555
In4_2 O7_3 1_555 1_555
O8_3 In4_2 1_555 1_555
C23_5 C24_5 1_555 1_555
O1_2 C37_2 1_555 1_555
O2_2 C37_2 1_555 1_555
O3_4 C38_6 1_555 1_555
O4_6 C38_6 1_555 1_555
C1_6 C2_6 1_555 1_555
C2_6 H1_6 1_555 1_555
C3_6 C2_6 1_555 1_555
H2_6 C3_6 1_555 1_555
C4_6 C3_6 1_555 1_555
C5_6 C4_6 1_555 1_555
H3_6 C5_6 1_555 1_555
C6_6 C1_6 1_555 1_555
H4_6 C6_6 1_555 1_555
C7_6 C8_6 1_555 1_555
C8_6 H5_6 1_555 1_555
C9_6 C8_6 1_555 1_555
H6_6 C9_6 1_555 1_555
C10_6 C9_6 1_555 1_555
C11_6 C10_6 1_555 1_555
H7_6 C11_6 1_555 1_555
C12_6 C7_6 1_555 1_555
H8_6 C12_6 1_555 1_555
C19_6 C21_6 1_555 1_555
C20_6 C22_6 1_555 1_555
C21_6 H13_6 1_555 1_555
C22_6 C21_6 1_555 1_555
H14_6 C22_6 1_555 1_555
C23_6 C20_6 1_555 1_555
C24_6 C19_6 1_555 1_555
C25_6 C10_6 1_555 1_555
C26_6 C25_6 1_555 1_555
H17_6 C26_6 1_555 1_555
C27_6 C26_6 1_555 1_555
C28_6 C27_6 1_555 1_555
H18_6 C28_6 1_555 1_555
C29_6 C4_6 1_555 1_555
C30_6 C25_6 1_555 1_555
H19_6 C30_6 1_555 1_555
C31_6 C20_6 1_555 1_555
C32_6 C31_6 1_555 1_555
H20_6 C32_6 1_555 1_555
C33_6 C27_6 1_555 1_555
C34_6 C33_6 1_555 1_555
H21_6 C34_6 1_555 1_555
C37_2 C1_6 1_555 1_555
C38_6 C7_6 1_555 1_555
C42_3 C19_6 1_555 1_555
In2_4 O3_4 1_555 1_555
In4_2 O1_2 1_555 1_555
O2_2 In4_2 1_555 1_555
C5_6 C6_6 1_555 1_555
C11_6 C12_6 1_555 1_555
C23_6 C24_6 1_555 1_555
C28_6 C29_6 1_555 1_555
C29_6 C30_6 1_555 1_555
C32_6 C33_6 1_555 1_555
In4_2 O5_6 1_555 1_555
O5_6 C39_6 1_555 1_555
O6_6 In4_2 1_555 1_555
C13_6 C14_6 1_555 1_555
C14_6 H9_6 1_555 1_555
C15_6 C14_6 1_555 1_555
H10_6 C15_6 1_555 1_555
C16_6 C15_6 1_555 1_555
C17_6 C16_6 1_555 1_555
H11_5 C17_6 1_555 1_555
C18_6 C13_6 1_555 1_555
H12_6 C18_6 1_555 1_555
C35_6 C16_6 1_555 1_555
H22_6 C36_6 1_555 1_555
C39_6 O6_6 1_555 1_555
O11_4 In4_2 1_555 1_555
C13_6 C39_6 1_555 1_555
C17_6 C18_6 1_555 1_555
C35_6 C36_6 1_555 1_555
O1_3 C37_3 1_555 1_555
O2_3 C37_3 1_555 1_555
In2_4 O1_3 1_555 1_555
O2_3 In2_4 1_555 1_555
O7_4 C40_4 1_555 1_555
O8_4 C40_4 1_555 1_555
C19_7 C21_7 1_555 1_555
C20_7 C22_7 1_555 1_555
C21_7 H13_7 1_555 1_555
C22_7 C21_7 1_555 1_555
H14_7 C22_7 1_555 1_555
C23_7 C20_7 1_555 1_555
H15_7 C23_7 1_555 1_555
C24_7 C19_7 1_555 1_555
H16_7 C24_7 1_555 1_555
C40_4 C19_7 1_555 1_555
In2_3 O7_4 1_555 1_555
O8_4 In2_3 1_555 1_555
C23_7 C24_7 1_555 1_555
O11_4 C38_7 1_555 1_555
O4_7 C38_7 1_555 1_555
C2_7 H1_7 1_555 1_555
C3_7 C2_7 1_555 1_555
H2_7 C3_7 1_555 1_555
C7_7 C8_7 1_555 1_555
C8_7 H5_7 1_555 1_555
C9_7 C8_7 1_555 1_555
H6_7 C9_7 1_555 1_555
C10_7 C9_7 1_555 1_555
C11_7 C10_7 1_555 1_555
H7_7 C11_7 1_555 1_555
C12_7 C7_7 1_555 1_555
H8_7 C12_7 1_555 1_555
C25_7 C10_7 1_555 1_555
C26_7 C25_7 1_555 1_555
H17_7 C26_7 1_555 1_555
C27_7 C26_7 1_555 1_555
C30_7 C25_7 1_555 1_555
H19_7 C30_7 1_555 1_555
C38_7 C7_7 1_555 1_555
C11_7 C12_7 1_555 1_555
C29_7 C30_7 1_555 1_555
In2_4 O5_7 1_555 1_555
O5_7 C39_7 1_555 1_555
O6_7 In2_4 1_555 1_555
C5_7 C4_7 1_555 1_555
H3_7 C5_7 1_555 1_555
C6_7 C1_7 1_555 1_555
H4_7 C6_7 1_555 1_555
C13_7 C14_7 1_555 1_555
C14_7 H9_7 1_555 1_555
C15_7 C14_7 1_555 1_555
H10_7 C15_7 1_555 1_555
C16_7 C15_7 1_555 1_555
C17_7 C16_7 1_555 1_555
C18_7 C13_7 1_555 1_555
H12_7 C18_7 1_555 1_555
H18_7 C28_7 1_555 1_555
C32_7 C31_7 1_555 1_555
H20_7 C32_7 1_555 1_555
C34_7 C33_7 1_555 1_555
H21_7 C34_7 1_555 1_555
C35_7 C16_7 1_555 1_555
C36_7 C31_7 1_555 1_555
H22_7 C36_7 1_555 1_555
C39_7 O6_7 1_555 1_555
O12_4 In2_4 1_555 1_555
O13_4 In2_4 1_555 1_555
C42_4 O12_4 1_555 1_555
C5_7 C6_7 1_555 1_555
C13_7 C39_7 1_555 1_555
C17_7 C18_7 1_555 1_555
C32_7 C33_7 1_555 1_555
C34_7 C35_7 1_555 1_555
C35_7 C36_7 1_555 1_555
O13_4 C42_4 1_555 1_555
O11_3 C38_8 1_555 1_555
O4_8 C38_8 1_555 1_555
C2_8 H1_8 1_555 1_555
C3_8 C2_8 1_555 1_555
H2_8 C3_8 1_555 1_555
C7_8 C8_8 1_555 1_555
C8_8 H5_8 1_555 1_555
C9_8 C8_8 1_555 1_555
H6_8 C9_8 1_555 1_555
C10_8 C9_8 1_555 1_555
C11_8 C10_8 1_555 1_555
H7_8 C11_8 1_555 1_555
C12_8 C7_8 1_555 1_555
H8_8 C12_8 1_555 1_555
C25_8 C10_8 1_555 1_555
C26_8 C25_8 1_555 1_555
H17_8 C26_8 1_555 1_555
C27_8 C26_8 1_555 1_555
C30_8 C25_8 1_555 1_555
H19_8 C30_8 1_555 1_555
C38_8 C7_8 1_555 1_555
C11_8 C12_8 1_555 1_555
C29_8 C30_8 1_555 1_555
O1_4 C37_4 1_555 1_555
O2_4 C37_4 1_555 1_555
C5_8 C4_8 1_555 1_555
H3_8 C5_8 1_555 1_555
C6_8 C1_8 1_555 1_555
H4_8 C6_8 1_555 1_555
C19_8 C21_8 1_555 1_555
C20_8 C22_8 1_555 1_555
C21_8 H13_8 1_555 1_555
C22_8 C21_8 1_555 1_555
H14_8 C22_8 1_555 1_555
C23_8 C20_8 1_555 1_555
C24_8 C19_8 1_555 1_555
H18_8 C28_8 1_555 1_555
C31_8 C20_8 1_555 1_555
C32_8 C31_8 1_555 1_555
H20_8 C32_8 1_555 1_555
C34_8 C33_8 1_555 1_555
H21_8 C34_8 1_555 1_555
C37_4 C1_8 1_555 1_555
C42_4 C19_8 1_555 1_555
In2_3 O1_4 1_555 1_555
O2_4 In2_3 1_555 1_555
C5_8 C6_8 1_555 1_555
C23_8 C24_8 1_555 1_555
C32_8 C33_8 1_555 1_555
In2_3 O5_8 1_555 1_555
O5_8 C39_8 1_555 1_555
O6_8 In2_3 1_555 1_555
C13_8 C14_8 1_555 1_555
C14_8 H9_8 1_555 1_555
C15_8 C14_8 1_555 1_555
H10_8 C15_8 1_555 1_555
C16_8 C15_8 1_555 1_555
C17_8 C16_8 1_555 1_555
C18_8 C13_8 1_555 1_555
H12_8 C18_8 1_555 1_555
C35_8 C16_8 1_555 1_555
H22_8 C36_8 1_555 1_555
C39_8 O6_8 1_555 1_555
C13_8 C39_8 1_555 1_555
C17_8 C18_8 1_555 1_555
C35_8 C36_8 1_555 1_555
N1 H23 1_555 1_555
H24 N1 1_555 1_555
C43 N1 1_555 1_555
H25 C43 1_555 1_555
H26 C43 1_555 1_555
H27 C43 1_555 1_555
C44 N1 1_555 1_555
H28 C44 1_555 1_555
H29 C44 1_555 1_555
H30 C44 1_555 1_555
N1_2 H23_2 1_555 1_555
H24_2 N1_2 1_555 1_555
C43_2 N1_2 1_555 1_555
H25_2 C43_2 1_555 1_555
H26_2 C43_2 1_555 1_555
H27_2 C43_2 1_555 1_555
C44_2 N1_2 1_555 1_555
H28_2 C44_2 1_555 1_555
H29_2 C44_2 1_555 1_555
H30_2 C44_2 1_555 1_555
N1_3 H23_3 1_555 1_555
H24_3 N1_3 1_555 1_555
C43_3 N1_3 1_555 1_555
H25_3 C43_3 1_555 1_555
H26_3 C43_3 1_555 1_555
H27_3 C43_3 1_555 1_555
C44_3 N1_3 1_555 1_555
H28_3 C44_3 1_555 1_555
H29_3 C44_3 1_555 1_555
H30_3 C44_3 1_555 1_555
N1_4 H23_4 1_555 1_555
H24_4 N1_4 1_555 1_555
C43_4 N1_4 1_555 1_555
H25_4 C43_4 1_555 1_555
H26_4 C43_4 1_555 1_555
H27_4 C43_4 1_555 1_555
C44_4 N1_4 1_555 1_555
H28_4 C44_4 1_555 1_555
H29_4 C44_4 1_555 1_555
H30_4 C44_4 1_555 1_555
N1_5 H23_5 1_555 1_555
H24_5 N1_5 1_555 1_555
C43_5 N1_5 1_555 1_555
H25_5 C43_5 1_555 1_555
H26_5 C43_5 1_555 1_555
H27_5 C43_5 1_555 1_555
C44_5 N1_5 1_555 1_555
H28_5 C44_5 1_555 1_555
H29_5 C44_5 1_555 1_555
H30_5 C44_5 1_555 1_555
N1_6 H23_6 1_555 1_555
H24_6 N1_6 1_555 1_555
C43_6 N1_6 1_555 1_555
H25_6 C43_6 1_555 1_555
H26_6 C43_6 1_555 1_555
H27_6 C43_6 1_555 1_555
C44_6 N1_6 1_555 1_555
H28_6 C44_6 1_555 1_555
H29_6 C44_6 1_555 1_555
H30_6 C44_6 1_555 1_555
N1_7 H23_7 1_555 1_555
H24_7 N1_7 1_555 1_555
C43_7 N1_7 1_555 1_555
H25_7 C43_7 1_555 1_555
H26_7 C43_7 1_555 1_555
H27_7 C43_7 1_555 1_555
C44_7 N1_7 1_555 1_555
H28_7 C44_7 1_555 1_555
H29_7 C44_7 1_555 1_555
H30_7 C44_7 1_555 1_555
N1_8 H23_8 1_555 1_555
H24_8 N1_8 1_555 1_555
C43_8 N1_8 1_555 1_555
H25_8 C43_8 1_555 1_555
H26_8 C43_8 1_555 1_555
H27_8 C43_8 1_555 1_555
C44_8 N1_8 1_555 1_555
H28_8 C44_8 1_555 1_555
H29_8 C44_8 1_555 1_555
H30_8 C44_8 1_555 1_555

#END
