
###############################################################################
#
# This file contains modified crystal structure data generated from the
# MOF subset of the Cambridge Structural Database (CSD) v543 
# hosted by the Cambridge Crystallographic Data Centre (CCDC).
#
# This work is licensed under the Creative Commons
# Attribution-NonCommercial-ShareAlike 4.0 International License.
# To view a copy of this license, visit
# http://creativecommons.org/licenses/by-nc-sa/4.0/
# or send a letter to
# Creative Commons, PO Box 1866, Mountain View, CA 94042, USA.
#
# CIF created using the CSD Python API on 29 September 2022
# The structure has been converted into the P1 space group
# The structure has a 3D framework
# The original CSD entry GAZZIS is in the monoclinic crystal system
# The framework has been calculated to contain at least 10.0% void space
# The void calculation uses a probe of radius 1.32A, grid spacing 0.4
#
###############################################################################

data_GAZZIS
_chemical_formula_moiety         '(C334 H240 In8 N8 O48)n'
_symmetry_cell_setting           triclinic
_symmetry_space_group_name_H-M   'P 1'
_symmetry_Int_Tables_number      1
_space_group_name_Hall           'P 1'
loop_
_symmetry_equiv_pos_site_id
_symmetry_equiv_pos_as_xyz
1 x,y,z
_cell_length_a                   19.814(7)
_cell_length_b                   28.330(10)
_cell_length_c                   26.219(10)
_cell_angle_alpha                90
_cell_angle_beta                 97.866(6)
_cell_angle_gamma                90
_cell_volume                     14579
loop_
_atom_site_label
_atom_site_type_symbol
_atom_site_fract_x
_atom_site_fract_y
_atom_site_fract_z
In1 In 0.885810(9) 0.252180(6) 0.115710(7)
O5 O 0.83280(10) 0.17968(7) 0.11610(8)
O6 O 0.78807(9) 0.23727(7) 0.06608(7)
C1 C 0.04681(14) 0.20535(10) 0.04905(11)
C4 C 0.16646(14) 0.18542(11) 0.00719(11)
C5 C 0.16295(17) 0.17916(13) 0.05843(12)
H3 H 0.2020 0.1679 0.0802
C6 C 0.10446(16) 0.18866(12) 0.07941(12)
H4 H 0.1037 0.1837 0.1152
C13 C 0.71768(14) 0.17052(10) 0.07369(11)
C14 C 0.70378(15) 0.13179(11) 0.10328(13)
H9 H 0.7378 0.1200 0.1292
C15 C 0.64012(15) 0.11049(11) 0.09476(13)
H10 H 0.6308 0.0841 0.1150
C16 C 0.58979(14) 0.12740(10) 0.05695(12)
C17 C 0.60591(15) 0.16476(10) 0.02621(11)
C18 C 0.66961(14) 0.18686(10) 0.03494(11)
H12 H 0.6795 0.2129 0.0143
C28 C 0.28281(14) 0.14851(11) 0.01097(11)
H18 H 0.2762 0.1344 0.0428
C31 C 0.44460(14) 0.03927(11) 0.05681(11)
C32 C 0.38913(14) 0.06765(11) 0.03508(12)
H20 H 0.3441 0.0554 0.0316
C33 C 0.40031(14) 0.11350(10) 0.01870(11)
C34 C 0.46485(14) 0.13188(10) 0.02557(11)
H21 H 0.4719 0.1632 0.0144
C35 C 0.52002(14) 0.10588(11) 0.04848(12)
C36 C 0.50939(14) 0.05998(11) 0.06282(12)
H22 H 0.5474 0.0417 0.0773
C39 C 0.78372(14) 0.19645(10) 0.08589(11)
O9 O 0.98440(9) 0.21338(7) 0.12037(7)
O10 O 0.93477(10) 0.23737(8) 0.04448(7)
O11 O 0.89131(12) 0.25672(7) 0.19646(9)
O12 O 0.84815(11) 0.32539(7) 0.09940(10)
O13 O 0.95763(11) 0.31754(7) 0.11846(9)
C41 C 0.98568(14) 0.21891(10) 0.07229(11)
C42 C 0.90731(15) 0.34363(11) 0.10550(11)
O3 O 0.39131(12) 0.24328(7) 0.69646(9)
O4 O 0.27906(13) 0.23800(9) 0.67319(9)
C2 C 0.04870(17) 0.21094(16) 0.99755(13)
H1 H 0.0093 0.2217 0.9760
C3 C 0.10807(17) 0.20096(17) 0.97603(14)
H2 H 0.1085 0.2048 0.9401
C7 C 0.32311(16) 0.22784(12) 0.76175(11)
C8 C 0.37873(15) 0.22608(11) 0.79967(11)
H5 H 0.4226 0.2335 0.7912
C9 C 0.37189(14) 0.21392(11) 0.84916(11)
H6 H 0.4110 0.2125 0.8744
C10 C 0.30730(14) 0.20355(11) 0.86298(11)
C11 C 0.25065(15) 0.20760(13) 0.82462(12)
H7 H 0.2062 0.2028 0.8333
C12 C 0.25861(16) 0.21830(12) 0.77529(12)
H8 H 0.2198 0.2193 0.7496
H11 H 0.5731 0.1754 0.9988
C25 C 0.29933(14) 0.18751(11) 0.91559(11)
C26 C 0.35158(15) 0.16143(11) 0.94383(11)
H17 H 0.3933 0.1572 0.9304
C27 C 0.34374(14) 0.14140(10) 0.99160(11)
C29 C 0.23066(14) 0.17628(11) 0.98418(11)
C30 C 0.23996(14) 0.19529(11) 0.93721(11)
H19 H 0.2049 0.2142 0.9192
C38 C 0.33036(19) 0.23723(12) 0.70635(13)
In2 In 0.385810(9) 0.247820(6) 0.615710(7)
O7 O 0.34815(11) 0.82539(7) 0.09940(10)
O8 O 0.45763(11) 0.81754(7) 0.11846(9)
C19 C 0.41638(14) 0.89448(10) 0.09501(12)
C20 C 0.43488(14) 0.99002(10) 0.07131(12)
C21 C 0.3618(3) 0.9268(2) 0.0956(3)
H13 H 0.3190 0.9161 0.1035
C22 C 0.3711(3) 0.9737(2) 0.0846(3)
H14 H 0.3348 0.9955 0.0858
C23 C 0.4875(3) 0.9590(2) 0.0754(3)
H15 H 0.5317 0.9695 0.0707
C24 C 0.4768(3) 0.9117(2) 0.0865(3)
H16 H 0.5143 0.8905 0.0882
C40 C 0.40731(15) 0.84363(11) 0.10550(11)
In4 In 0.385810(9) 0.752180(6) 0.115710(7)
O5_2 O 0.33280(10) 0.67968(7) 0.11610(8)
O6_2 O 0.28807(9) 0.73727(7) 0.06608(7)
C13_2 C 0.21768(14) 0.67052(10) 0.07369(11)
C14_2 C 0.20378(15) 0.63179(11) 0.10328(13)
H9_2 H 0.2378 0.6200 0.1292
C15_2 C 0.14012(15) 0.61049(11) 0.09476(13)
H10_2 H 0.1308 0.5841 0.1150
C16_2 C 0.08979(14) 0.62740(10) 0.05695(12)
C17_2 C 0.10591(15) 0.66476(10) 0.02621(11)
C18_2 C 0.16961(14) 0.68686(10) 0.03494(11)
H12_2 H 0.1795 0.7129 0.0143
H15_2 H 0.0317 0.4695 0.0707
H16_2 H 0.0143 0.3905 0.0882
C35_2 C 0.02002(14) 0.60588(11) 0.04848(12)
C36_2 C 0.00939(14) 0.55998(11) 0.06282(12)
H22_2 H 0.0474 0.5417 0.0773
C39_2 C 0.28372(14) 0.69645(10) 0.08589(11)
O9_2 O 0.48440(9) 0.71338(7) 0.12037(7)
O10_2 O 0.43477(10) 0.73737(8) 0.04448(7)
O11_2 O 0.39131(12) 0.75672(7) 0.19646(9)
C41_2 C 0.48568(14) 0.71891(10) 0.07229(11)
C1_2 C 0.54681(14) 0.70535(10) 0.04905(11)
C4_2 C 0.66646(14) 0.68542(11) 0.00719(11)
C5_2 C 0.66295(17) 0.67916(13) 0.05843(12)
H3_2 H 0.7020 0.6679 0.0802
C6_2 C 0.60446(16) 0.68866(12) 0.07941(12)
H4_2 H 0.6037 0.6837 0.1152
C19_2 C 0.91638(14) 0.39448(10) 0.09501(12)
C20_2 C 0.93488(14) 0.49002(10) 0.07131(12)
C21_2 C 0.8618(3) 0.4268(2) 0.0956(3)
H13_2 H 0.8190 0.4161 0.1035
C22_2 C 0.8711(3) 0.4737(2) 0.0846(3)
H14_2 H 0.8348 0.4955 0.0858
C23_2 C 0.9875(3) 0.4590(2) 0.0754(3)
C24_2 C 0.9768(3) 0.4117(2) 0.0865(3)
C28_2 C 0.78281(14) 0.64851(11) 0.01097(11)
H18_2 H 0.7762 0.6344 0.0428
C31_2 C 0.94460(14) 0.53927(11) 0.05681(11)
C32_2 C 0.88913(14) 0.56765(11) 0.03508(12)
H20_2 H 0.8441 0.5554 0.0316
C33_2 C 0.90031(14) 0.61350(10) 0.01870(11)
C34_2 C 0.96485(14) 0.63188(10) 0.02557(11)
H21_2 H 0.9719 0.6632 0.0144
O3_2 O 0.89131(12) 0.74328(7) 0.69646(9)
O4_2 O 0.77906(13) 0.73800(9) 0.67319(9)
C2_2 C 0.54870(17) 0.71094(16) 0.99755(13)
H1_2 H 0.5093 0.7217 0.9760
C3_2 C 0.60807(17) 0.70096(17) 0.97603(14)
H2_2 H 0.6085 0.7048 0.9401
C7_2 C 0.82311(16) 0.72784(12) 0.76175(11)
C8_2 C 0.87873(15) 0.72608(11) 0.79967(11)
H5_2 H 0.9226 0.7335 0.7912
C9_2 C 0.87189(14) 0.71392(11) 0.84916(11)
H6_2 H 0.9110 0.7125 0.8744
C10_2 C 0.80730(14) 0.70355(11) 0.86298(11)
C11_2 C 0.75065(15) 0.70760(13) 0.82462(12)
H7_2 H 0.7062 0.7028 0.8333
C12_2 C 0.75861(16) 0.71830(12) 0.77529(12)
H8_2 H 0.7198 0.7193 0.7496
C25_2 C 0.79933(14) 0.68751(11) 0.91559(11)
C26_2 C 0.85158(15) 0.66143(11) 0.94383(11)
H17_2 H 0.8933 0.6572 0.9304
C27_2 C 0.84374(14) 0.64140(10) 0.99160(11)
C29_2 C 0.73066(14) 0.67628(11) 0.98418(11)
C30_2 C 0.73996(14) 0.69529(11) 0.93721(11)
H19_2 H 0.7049 0.7142 0.9192
C38_2 C 0.83036(19) 0.73723(12) 0.70635(13)
In2_2 In 0.885810(9) 0.747820(6) 0.615710(7)
O7_2 O 0.34815(11) 0.17461(7) 0.59940(10)
O8_2 O 0.45763(11) 0.18246(7) 0.61846(9)
C19_3 C 0.41638(14) 0.10552(10) 0.59501(12)
C20_3 C 0.43488(14) 0.00998(10) 0.57131(12)
C21_3 C 0.3618(3) 0.0732(2) 0.5956(3)
H13_3 H 0.3190 0.0839 0.6035
C22_3 C 0.3711(3) 0.0263(2) 0.5846(3)
H14_3 H 0.3348 0.0045 0.5858
C23_3 C 0.4875(3) 0.0410(2) 0.5754(3)
H15_3 H 0.5317 0.0305 0.5707
C24_3 C 0.4768(3) 0.0883(2) 0.5865(3)
H16_3 H 0.5143 0.1095 0.5882
C40_2 C 0.40731(15) 0.15637(11) 0.60550(11)
O4_3 O 0.27906(13) 0.76200(9) 0.17319(9)
O5_3 O 0.83280(10) 0.82032(7) 0.61610(8)
O6_3 O 0.78807(9) 0.76273(7) 0.56608(7)
C1_3 C 0.04681(14) 0.79465(10) 0.54905(11)
C2_3 C 0.04870(17) 0.78906(16) 0.49755(13)
H1_3 H 0.0093 0.7783 0.4760
C3_3 C 0.10807(17) 0.79904(17) 0.47603(14)
H2_3 H 0.1085 0.7952 0.4401
C4_3 C 0.16646(14) 0.81458(11) 0.50719(11)
C5_3 C 0.16295(17) 0.82084(13) 0.55843(12)
H3_3 H 0.2020 0.8321 0.5802
C6_3 C 0.10446(16) 0.81134(12) 0.57941(12)
H4_3 H 0.1037 0.8163 0.6152
C7_3 C 0.32311(16) 0.77216(12) 0.26175(11)
C8_3 C 0.37873(15) 0.77392(11) 0.29967(11)
H5_3 H 0.4226 0.7665 0.2912
C9_3 C 0.37189(14) 0.78608(11) 0.34916(11)
H6_3 H 0.4110 0.7875 0.3744
C10_3 C 0.30730(14) 0.79645(11) 0.36298(11)
C11_3 C 0.25065(15) 0.79240(13) 0.32462(12)
H7_3 H 0.2062 0.7972 0.3333
C12_3 C 0.25861(16) 0.78170(12) 0.27529(12)
H8_3 H 0.2198 0.7807 0.2496
C13_3 C 0.71768(14) 0.82948(10) 0.57369(11)
C14_3 C 0.70378(15) 0.86821(11) 0.60328(13)
H9_3 H 0.7378 0.8800 0.6292
C15_3 C 0.64012(15) 0.88951(11) 0.59476(13)
H10_3 H 0.6308 0.9159 0.6150
C16_3 C 0.58979(14) 0.87260(10) 0.55695(12)
C17_3 C 0.60591(15) 0.83524(10) 0.52621(11)
H11_2 H 0.5731 0.8246 0.4988
C18_3 C 0.66961(14) 0.81314(10) 0.53494(11)
H12_3 H 0.6795 0.7871 0.5143
C25_3 C 0.29933(14) 0.81249(11) 0.41559(11)
C26_3 C 0.35158(15) 0.83857(11) 0.44383(11)
H17_3 H 0.3933 0.8428 0.4304
C27_3 C 0.34374(14) 0.85860(10) 0.49160(11)
C28_3 C 0.28281(14) 0.85149(11) 0.51097(11)
H18_3 H 0.2762 0.8656 0.5428
C29_3 C 0.23066(14) 0.82372(11) 0.48418(11)
C30_3 C 0.23996(14) 0.80471(11) 0.43721(11)
H19_3 H 0.2049 0.7858 0.4192
C31_3 C 0.44460(14) 0.96073(11) 0.55681(11)
C32_3 C 0.38913(14) 0.93235(11) 0.53508(12)
H20_3 H 0.3441 0.9446 0.5316
C33_3 C 0.40031(14) 0.88650(10) 0.51870(11)
C34_3 C 0.46485(14) 0.86812(10) 0.52557(11)
H21_3 H 0.4719 0.8368 0.5144
C35_3 C 0.52002(14) 0.89412(11) 0.54848(12)
C36_3 C 0.50939(14) 0.94002(11) 0.56282(12)
H22_3 H 0.5474 0.9583 0.5773
C38_3 C 0.33036(19) 0.76277(12) 0.20635(13)
C39_3 C 0.78372(14) 0.80355(10) 0.58589(11)
O9_3 O 0.98440(9) 0.78662(7) 0.62037(7)
O10_3 O 0.93477(10) 0.76263(8) 0.54448(7)
O12_2 O 0.84815(11) 0.67461(7) 0.59940(10)
O13_2 O 0.95763(11) 0.68246(7) 0.61846(9)
C41_3 C 0.98568(14) 0.78109(10) 0.57229(11)
C42_2 C 0.90731(15) 0.65637(11) 0.60550(11)
O5_4 O 0.33280(10) 0.32032(7) 0.61610(8)
O6_4 O 0.28807(9) 0.26273(7) 0.56608(7)
C13_4 C 0.21768(14) 0.32948(10) 0.57369(11)
C14_4 C 0.20378(15) 0.36821(11) 0.60328(13)
H9_4 H 0.2378 0.3800 0.6292
C15_4 C 0.14012(15) 0.38951(11) 0.59476(13)
H10_4 H 0.1308 0.4159 0.6150
C16_4 C 0.08979(14) 0.37260(10) 0.55695(12)
C17_4 C 0.10591(15) 0.33524(10) 0.52621(11)
H11_3 H 0.0731 0.3246 0.4988
C18_4 C 0.16961(14) 0.31314(10) 0.53494(11)
H12_4 H 0.1795 0.2871 0.5143
H15_4 H 0.0317 0.5305 0.5707
H16_4 H 0.0143 0.6095 0.5882
C35_4 C 0.02002(14) 0.39412(11) 0.54848(12)
C36_4 C 0.00939(14) 0.44002(11) 0.56282(12)
H22_4 H 0.0474 0.4583 0.5773
C39_4 C 0.28372(14) 0.30355(10) 0.58589(11)
O9_4 O 0.48440(9) 0.28662(7) 0.62037(7)
O10_4 O 0.43477(10) 0.26263(8) 0.54448(7)
C41_4 C 0.48568(14) 0.28109(10) 0.57229(11)
O4_4 O 0.77906(13) 0.26200(9) 0.17319(9)
C1_4 C 0.54681(14) 0.29465(10) 0.54905(11)
C2_4 C 0.54870(17) 0.28906(16) 0.49755(13)
H1_4 H 0.5093 0.2783 0.4760
C3_4 C 0.60807(17) 0.29904(17) 0.47603(14)
H2_4 H 0.6085 0.2952 0.4401
C4_4 C 0.66646(14) 0.31458(11) 0.50719(11)
C5_4 C 0.66295(17) 0.32084(13) 0.55843(12)
H3_4 H 0.7020 0.3321 0.5802
C6_4 C 0.60446(16) 0.31134(12) 0.57941(12)
H4_4 H 0.6037 0.3163 0.6152
C7_4 C 0.82311(16) 0.27216(12) 0.26175(11)
C8_4 C 0.87873(15) 0.27392(11) 0.29967(11)
H5_4 H 0.9226 0.2665 0.2912
C9_4 C 0.87189(14) 0.28608(11) 0.34916(11)
H6_4 H 0.9110 0.2875 0.3744
C10_4 C 0.80730(14) 0.29645(11) 0.36298(11)
C11_4 C 0.75065(15) 0.29240(13) 0.32462(12)
H7_4 H 0.7062 0.2972 0.3333
C12_4 C 0.75861(16) 0.28170(12) 0.27529(12)
H8_4 H 0.7198 0.2807 0.2496
C19_4 C 0.91638(14) 0.60552(10) 0.59501(12)
C20_4 C 0.93488(14) 0.50998(10) 0.57131(12)
C21_4 C 0.8618(3) 0.5732(2) 0.5956(3)
H13_4 H 0.8190 0.5839 0.6035
C22_4 C 0.8711(3) 0.5263(2) 0.5846(3)
H14_4 H 0.8348 0.5045 0.5858
C23_4 C 0.9875(3) 0.5410(2) 0.5754(3)
C24_4 C 0.9768(3) 0.5883(2) 0.5865(3)
C25_4 C 0.79933(14) 0.31249(11) 0.41559(11)
C26_4 C 0.85158(15) 0.33857(11) 0.44383(11)
H17_4 H 0.8933 0.3428 0.4304
C27_4 C 0.84374(14) 0.35860(10) 0.49160(11)
C28_4 C 0.78281(14) 0.35149(11) 0.51097(11)
H18_4 H 0.7762 0.3656 0.5428
C29_4 C 0.73066(14) 0.32372(11) 0.48418(11)
C30_4 C 0.73996(14) 0.30471(11) 0.43721(11)
H19_4 H 0.7049 0.2858 0.4192
C31_4 C 0.94460(14) 0.46073(11) 0.55681(11)
C32_4 C 0.88913(14) 0.43235(11) 0.53508(12)
H20_4 H 0.8441 0.4446 0.5316
C33_4 C 0.90031(14) 0.38650(10) 0.51870(11)
C34_4 C 0.96485(14) 0.36812(10) 0.52557(11)
H21_4 H 0.9719 0.3368 0.5144
C38_4 C 0.83036(19) 0.26277(12) 0.20635(13)
O1 O 0.01560(9) 0.21338(7) 0.37963(7)
O2 O 0.06523(10) 0.23737(8) 0.45552(7)
C37 C 0.01432(14) 0.21891(10) 0.42771(11)
In3 In 0.114190(9) 0.252180(6) 0.384290(7)
O3_3 O 0.60869(12) 0.24328(7) 0.80354(9)
O4_5 O 0.72094(13) 0.23800(9) 0.82681(9)
O5_5 O 0.16720(10) 0.17968(7) 0.38390(8)
O6_5 O 0.21193(9) 0.23727(7) 0.43392(7)
C1_5 C 0.95319(14) 0.20535(10) 0.45095(11)
C2_5 C 0.95130(17) 0.21094(16) 0.50245(13)
H1_5 H 0.9907 0.2217 0.5240
C3_5 C 0.89193(17) 0.20096(17) 0.52397(14)
H2_5 H 0.8915 0.2048 0.5599
C4_5 C 0.83354(14) 0.18542(11) 0.49281(11)
C5_5 C 0.83705(17) 0.17916(13) 0.44157(12)
H3_5 H 0.7980 0.1679 0.4198
C6_5 C 0.89554(16) 0.18866(12) 0.42059(12)
H4_5 H 0.8963 0.1837 0.3848
C7_5 C 0.67689(16) 0.22784(12) 0.73825(11)
C8_5 C 0.62127(15) 0.22608(11) 0.70033(11)
H5_5 H 0.5774 0.2335 0.7088
C9_5 C 0.62811(14) 0.21392(11) 0.65084(11)
H6_5 H 0.5890 0.2125 0.6256
C10_5 C 0.69270(14) 0.20355(11) 0.63702(11)
C11_5 C 0.74935(15) 0.20760(13) 0.67538(12)
H7_5 H 0.7938 0.2028 0.6667
C12_5 C 0.74139(16) 0.21830(12) 0.72471(12)
H8_5 H 0.7802 0.2193 0.7504
C13_5 C 0.28232(14) 0.17052(10) 0.42631(11)
C14_5 C 0.29622(15) 0.13179(11) 0.39672(13)
H9_5 H 0.2622 0.1200 0.3708
C15_5 C 0.35988(15) 0.11049(11) 0.40524(13)
H10_5 H 0.3692 0.0841 0.3850
C16_5 C 0.41021(14) 0.12740(10) 0.44305(12)
C17_5 C 0.39409(15) 0.16476(10) 0.47379(11)
H11_4 H 0.4269 0.1754 0.5012
C18_5 C 0.33039(14) 0.18686(10) 0.46506(11)
H12_5 H 0.3205 0.2129 0.4857
C25_5 C 0.70067(14) 0.18751(11) 0.58441(11)
C26_5 C 0.64842(15) 0.16143(11) 0.55617(11)
H17_5 H 0.6067 0.1572 0.5696
C27_5 C 0.65626(14) 0.14140(10) 0.50840(11)
C28_5 C 0.71719(14) 0.14851(11) 0.48903(11)
H18_5 H 0.7238 0.1344 0.4572
C29_5 C 0.76934(14) 0.17628(11) 0.51582(11)
C30_5 C 0.76004(14) 0.19529(11) 0.56279(11)
H19_5 H 0.7951 0.2142 0.5808
C31_5 C 0.55540(14) 0.03927(11) 0.44319(11)
C32_5 C 0.61087(14) 0.06765(11) 0.46492(12)
H20_5 H 0.6559 0.0554 0.4684
C33_5 C 0.59969(14) 0.11350(10) 0.48130(11)
C34_5 C 0.53515(14) 0.13188(10) 0.47443(11)
H21_5 H 0.5281 0.1632 0.4856
C35_5 C 0.47998(14) 0.10588(11) 0.45152(12)
C36_5 C 0.49061(14) 0.05998(11) 0.43718(12)
H22_5 H 0.4526 0.0417 0.4227
C38_5 C 0.66964(19) 0.23723(12) 0.79365(13)
C39_5 C 0.21628(14) 0.19645(10) 0.41411(11)
In2_3 In 0.614190(9) 0.247820(6) 0.884290(7)
O11_3 O 0.10869(12) 0.25672(7) 0.30354(9)
O12_3 O 0.15185(11) 0.32539(7) 0.40060(10)
O13_3 O 0.04237(11) 0.31754(7) 0.38154(9)
C42_3 C 0.09269(15) 0.34363(11) 0.39450(11)
O7_3 O 0.65185(11) 0.82539(7) 0.40060(10)
O8_3 O 0.54237(11) 0.81754(7) 0.38154(9)
C19_5 C 0.58362(14) 0.89448(10) 0.40499(12)
C20_5 C 0.56512(14) 0.99002(10) 0.42869(12)
C21_5 C 0.6382(3) 0.9268(2) 0.4044(3)
H13_5 H 0.6810 0.9161 0.3965
C22_5 C 0.6289(3) 0.9737(2) 0.4154(3)
H14_5 H 0.6652 0.9955 0.4142
C23_5 C 0.5125(3) 0.9590(2) 0.4246(3)
H15_5 H 0.4683 0.9695 0.4293
C24_5 C 0.5232(3) 0.9117(2) 0.4135(3)
H16_5 H 0.4857 0.8905 0.4118
C40_3 C 0.59269(15) 0.84363(11) 0.39450(11)
In4_2 In 0.614190(9) 0.752180(6) 0.384290(7)
O1_2 O 0.51560(9) 0.71338(7) 0.37963(7)
O2_2 O 0.56523(10) 0.73737(8) 0.45552(7)
O3_4 O 0.10869(12) 0.74328(7) 0.80354(9)
O4_6 O 0.22094(13) 0.73800(9) 0.82681(9)
C1_6 C 0.45319(14) 0.70535(10) 0.45095(11)
C2_6 C 0.45130(17) 0.71094(16) 0.50245(13)
H1_6 H 0.4907 0.7217 0.5240
C3_6 C 0.39193(17) 0.70096(17) 0.52397(14)
H2_6 H 0.3915 0.7048 0.5599
C4_6 C 0.33354(14) 0.68542(11) 0.49281(11)
C5_6 C 0.33705(17) 0.67916(13) 0.44157(12)
H3_6 H 0.2980 0.6679 0.4198
C6_6 C 0.39554(16) 0.68866(12) 0.42059(12)
H4_6 H 0.3963 0.6837 0.3848
C7_6 C 0.17689(16) 0.72784(12) 0.73825(11)
C8_6 C 0.12127(15) 0.72608(11) 0.70033(11)
H5_6 H 0.0774 0.7335 0.7088
C9_6 C 0.12811(14) 0.71392(11) 0.65084(11)
H6_6 H 0.0890 0.7125 0.6256
C10_6 C 0.19270(14) 0.70355(11) 0.63702(11)
C11_6 C 0.24935(15) 0.70760(13) 0.67538(12)
H7_6 H 0.2938 0.7028 0.6667
C12_6 C 0.24139(16) 0.71830(12) 0.72471(12)
H8_6 H 0.2802 0.7193 0.7504
C19_6 C 0.08362(14) 0.39448(10) 0.40499(12)
C20_6 C 0.06512(14) 0.49002(10) 0.42869(12)
C21_6 C 0.1382(3) 0.4268(2) 0.4044(3)
H13_6 H 0.1810 0.4161 0.3965
C22_6 C 0.1289(3) 0.4737(2) 0.4154(3)
H14_6 H 0.1652 0.4955 0.4142
C23_6 C 0.0125(3) 0.4590(2) 0.4246(3)
C24_6 C 0.0232(3) 0.4117(2) 0.4135(3)
C25_6 C 0.20067(14) 0.68751(11) 0.58441(11)
C26_6 C 0.14842(15) 0.66143(11) 0.55617(11)
H17_6 H 0.1067 0.6572 0.5696
C27_6 C 0.15626(14) 0.64140(10) 0.50840(11)
C28_6 C 0.21719(14) 0.64851(11) 0.48903(11)
H18_6 H 0.2238 0.6344 0.4572
C29_6 C 0.26934(14) 0.67628(11) 0.51582(11)
C30_6 C 0.26004(14) 0.69529(11) 0.56279(11)
H19_6 H 0.2951 0.7142 0.5808
C31_6 C 0.05540(14) 0.53927(11) 0.44319(11)
C32_6 C 0.11087(14) 0.56765(11) 0.46492(12)
H20_6 H 0.1559 0.5554 0.4684
C33_6 C 0.09969(14) 0.61350(10) 0.48130(11)
C34_6 C 0.03515(14) 0.63188(10) 0.47443(11)
H21_6 H 0.0281 0.6632 0.4856
C37_2 C 0.51432(14) 0.71891(10) 0.42771(11)
C38_6 C 0.16964(19) 0.73723(12) 0.79365(13)
In2_4 In 0.114190(9) 0.747820(6) 0.884290(7)
O5_6 O 0.66720(10) 0.67968(7) 0.38390(8)
O6_6 O 0.71193(9) 0.73727(7) 0.43392(7)
C13_6 C 0.78232(14) 0.67052(10) 0.42631(11)
C14_6 C 0.79622(15) 0.63179(11) 0.39672(13)
H9_6 H 0.7622 0.6200 0.3708
C15_6 C 0.85988(15) 0.61049(11) 0.40524(13)
H10_6 H 0.8692 0.5841 0.3850
C16_6 C 0.91021(14) 0.62740(10) 0.44305(12)
C17_6 C 0.89409(15) 0.66476(10) 0.47379(11)
H11_5 H 0.9269 0.6754 0.5012
C18_6 C 0.83039(14) 0.68686(10) 0.46506(11)
H12_6 H 0.8205 0.7129 0.4857
H15_6 H 0.9683 0.4695 0.4293
H16_6 H 0.9857 0.3905 0.4118
C35_6 C 0.97998(14) 0.60588(11) 0.45152(12)
C36_6 C 0.99061(14) 0.55998(11) 0.43718(12)
H22_6 H 0.9526 0.5417 0.4227
C39_6 C 0.71628(14) 0.69645(10) 0.41411(11)
O11_4 O 0.60869(12) 0.75672(7) 0.30354(9)
O1_3 O 0.01560(9) 0.78662(7) 0.87963(7)
O2_3 O 0.06523(10) 0.76263(8) 0.95552(7)
C37_3 C 0.01432(14) 0.78109(10) 0.92771(11)
O7_4 O 0.65185(11) 0.17461(7) 0.90060(10)
O8_4 O 0.54237(11) 0.18246(7) 0.88154(9)
C19_7 C 0.58362(14) 0.10552(10) 0.90499(12)
C20_7 C 0.56512(14) 0.00998(10) 0.92869(12)
C21_7 C 0.6382(3) 0.0732(2) 0.9044(3)
H13_7 H 0.6810 0.0839 0.8965
C22_7 C 0.6289(3) 0.0263(2) 0.9154(3)
H14_7 H 0.6652 0.0045 0.9142
C23_7 C 0.5125(3) 0.0410(2) 0.9246(3)
H15_7 H 0.4683 0.0305 0.9293
C24_7 C 0.5232(3) 0.0883(2) 0.9135(3)
H16_7 H 0.4857 0.1095 0.9118
C40_4 C 0.59269(15) 0.15637(11) 0.89450(11)
O4_7 O 0.72094(13) 0.76200(9) 0.32681(9)
C2_7 C 0.95130(17) 0.78906(16) 0.00245(13)
H1_7 H 0.9907 0.7783 0.0240
C3_7 C 0.89193(17) 0.79904(17) 0.02397(14)
H2_7 H 0.8915 0.7952 0.0599
C7_7 C 0.67689(16) 0.77216(12) 0.23825(11)
C8_7 C 0.62127(15) 0.77392(11) 0.20033(11)
H5_7 H 0.5774 0.7665 0.2088
C9_7 C 0.62811(14) 0.78608(11) 0.15084(11)
H6_7 H 0.5890 0.7875 0.1256
C10_7 C 0.69270(14) 0.79645(11) 0.13702(11)
C11_7 C 0.74935(15) 0.79240(13) 0.17538(12)
H7_7 H 0.7938 0.7972 0.1667
C12_7 C 0.74139(16) 0.78170(12) 0.22471(12)
H8_7 H 0.7802 0.7807 0.2504
H11_6 H 0.4269 0.8246 0.0012
C25_7 C 0.70067(14) 0.81249(11) 0.08441(11)
C26_7 C 0.64842(15) 0.83857(11) 0.05617(11)
H17_7 H 0.6067 0.8428 0.0696
C27_7 C 0.65626(14) 0.85860(10) 0.00840(11)
C29_7 C 0.76934(14) 0.82372(11) 0.01582(11)
C30_7 C 0.76004(14) 0.80471(11) 0.06279(11)
H19_7 H 0.7951 0.7858 0.0808
C38_7 C 0.66964(19) 0.76277(12) 0.29365(13)
O5_7 O 0.16720(10) 0.82032(7) 0.88390(8)
O6_7 O 0.21193(9) 0.76273(7) 0.93392(7)
C1_7 C 0.95319(14) 0.79465(10) 0.95095(11)
C4_7 C 0.83354(14) 0.81458(11) 0.99281(11)
C5_7 C 0.83705(17) 0.82084(13) 0.94157(12)
H3_7 H 0.7980 0.8321 0.9198
C6_7 C 0.89554(16) 0.81134(12) 0.92059(12)
H4_7 H 0.8963 0.8163 0.8848
C13_7 C 0.28232(14) 0.82948(10) 0.92631(11)
C14_7 C 0.29622(15) 0.86821(11) 0.89672(13)
H9_7 H 0.2622 0.8800 0.8708
C15_7 C 0.35988(15) 0.88951(11) 0.90524(13)
H10_7 H 0.3692 0.9159 0.8850
C16_7 C 0.41021(14) 0.87260(10) 0.94305(12)
C17_7 C 0.39409(15) 0.83524(10) 0.97379(11)
C18_7 C 0.33039(14) 0.81314(10) 0.96506(11)
H12_7 H 0.3205 0.7871 0.9857
C28_7 C 0.71719(14) 0.85149(11) 0.98903(11)
H18_7 H 0.7238 0.8656 0.9572
C31_7 C 0.55540(14) 0.96073(11) 0.94319(11)
C32_7 C 0.61087(14) 0.93235(11) 0.96492(12)
H20_7 H 0.6559 0.9446 0.9684
C33_7 C 0.59969(14) 0.88650(10) 0.98130(11)
C34_7 C 0.53515(14) 0.86812(10) 0.97443(11)
H21_7 H 0.5281 0.8368 0.9856
C35_7 C 0.47998(14) 0.89412(11) 0.95152(12)
C36_7 C 0.49061(14) 0.94002(11) 0.93718(12)
H22_7 H 0.4526 0.9583 0.9227
C39_7 C 0.21628(14) 0.80355(10) 0.91411(11)
O12_4 O 0.15185(11) 0.67461(7) 0.90060(10)
O13_4 O 0.04237(11) 0.68246(7) 0.88154(9)
C42_4 C 0.09269(15) 0.65637(11) 0.89450(11)
O4_8 O 0.22094(13) 0.26200(9) 0.32681(9)
C2_8 C 0.45130(17) 0.28906(16) 0.00245(13)
H1_8 H 0.4907 0.2783 0.0240
C3_8 C 0.39193(17) 0.29904(17) 0.02397(14)
H2_8 H 0.3915 0.2952 0.0599
C7_8 C 0.17689(16) 0.27216(12) 0.23825(11)
C8_8 C 0.12127(15) 0.27392(11) 0.20033(11)
H5_8 H 0.0774 0.2665 0.2088
C9_8 C 0.12811(14) 0.28608(11) 0.15084(11)
H6_8 H 0.0890 0.2875 0.1256
C10_8 C 0.19270(14) 0.29645(11) 0.13702(11)
C11_8 C 0.24935(15) 0.29240(13) 0.17538(12)
H7_8 H 0.2938 0.2972 0.1667
C12_8 C 0.24139(16) 0.28170(12) 0.22471(12)
H8_8 H 0.2802 0.2807 0.2504
C25_8 C 0.20067(14) 0.31249(11) 0.08441(11)
C26_8 C 0.14842(15) 0.33857(11) 0.05617(11)
H17_8 H 0.1067 0.3428 0.0696
C27_8 C 0.15626(14) 0.35860(10) 0.00840(11)
C29_8 C 0.26934(14) 0.32372(11) 0.01582(11)
C30_8 C 0.26004(14) 0.30471(11) 0.06279(11)
H19_8 H 0.2951 0.2858 0.0808
C38_8 C 0.16964(19) 0.26277(12) 0.29365(13)
O1_4 O 0.51560(9) 0.28662(7) 0.87963(7)
O2_4 O 0.56523(10) 0.26263(8) 0.95552(7)
C1_8 C 0.45319(14) 0.29465(10) 0.95095(11)
C4_8 C 0.33354(14) 0.31458(11) 0.99281(11)
C5_8 C 0.33705(17) 0.32084(13) 0.94157(12)
H3_8 H 0.2980 0.3321 0.9198
C6_8 C 0.39554(16) 0.31134(12) 0.92059(12)
H4_8 H 0.3963 0.3163 0.8848
C19_8 C 0.08362(14) 0.60552(10) 0.90499(12)
C20_8 C 0.06512(14) 0.50998(10) 0.92869(12)
C21_8 C 0.1382(3) 0.5732(2) 0.9044(3)
H13_8 H 0.1810 0.5839 0.8965
C22_8 C 0.1289(3) 0.5263(2) 0.9154(3)
H14_8 H 0.1652 0.5045 0.9142
C23_8 C 0.0125(3) 0.5410(2) 0.9246(3)
C24_8 C 0.0232(3) 0.5883(2) 0.9135(3)
C28_8 C 0.21719(14) 0.35149(11) 0.98903(11)
H18_8 H 0.2238 0.3656 0.9572
C31_8 C 0.05540(14) 0.46073(11) 0.94319(11)
C32_8 C 0.11087(14) 0.43235(11) 0.96492(12)
H20_8 H 0.1559 0.4446 0.9684
C33_8 C 0.09969(14) 0.38650(10) 0.98130(11)
C34_8 C 0.03515(14) 0.36812(10) 0.97443(11)
H21_8 H 0.0281 0.3368 0.9856
C37_4 C 0.51432(14) 0.28109(10) 0.92771(11)
O5_8 O 0.66720(10) 0.32032(7) 0.88390(8)
O6_8 O 0.71193(9) 0.26273(7) 0.93392(7)
C13_8 C 0.78232(14) 0.32948(10) 0.92631(11)
C14_8 C 0.79622(15) 0.36821(11) 0.89672(13)
H9_8 H 0.7622 0.3800 0.8708
C15_8 C 0.85988(15) 0.38951(11) 0.90524(13)
H10_8 H 0.8692 0.4159 0.8850
C16_8 C 0.91021(14) 0.37260(10) 0.94305(12)
C17_8 C 0.89409(15) 0.33524(10) 0.97379(11)
C18_8 C 0.83039(14) 0.31314(10) 0.96506(11)
H12_8 H 0.8205 0.2871 0.9857
H15_8 H 0.9683 0.5305 0.9293
H16_8 H 0.9857 0.6095 0.9118
C35_8 C 0.97998(14) 0.39412(11) 0.95152(12)
C36_8 C 0.99061(14) 0.44002(11) 0.93718(12)
H22_8 H 0.9526 0.4583 0.9227
C39_8 C 0.71628(14) 0.30355(10) 0.91411(11)
H11_7 H 0.0731 0.6754 0.9988
H11_8 H 0.9269 0.3246 0.0012
N1 N 0.69590(15) 0.31354(11) 0.09391(11)
H23 H 0.7084 0.3376 0.1168
H24 H 0.7311 0.2921 0.0962
C43 C 0.6828(2) 0.33259(14) 0.04137(15)
H25 H 0.7239 0.3484 0.0330
H26 H 0.6453 0.3553 0.0391
H27 H 0.6706 0.3068 0.0170
C44 C 0.6327(3) 0.2898(2) 0.1072(3)
H28 H 0.6417 0.2769 0.1421
H29 H 0.6196 0.2642 0.0827
H30 H 0.5956 0.3129 0.1054
N1_2 N 0.30410(15) 0.31354(11) 0.40609(11)
H23_2 H 0.2916 0.3376 0.3832
H24_2 H 0.2689 0.2921 0.4038
C43_2 C 0.3172(2) 0.33259(14) 0.45863(15)
H25_2 H 0.2761 0.3484 0.4670
H26_2 H 0.3547 0.3553 0.4609
H27_2 H 0.3294 0.3068 0.4830
C44_2 C 0.3673(3) 0.2898(2) 0.3928(3)
H28_2 H 0.3583 0.2769 0.3579
H29_2 H 0.3804 0.2642 0.4173
H30_2 H 0.4044 0.3129 0.3946
N1_3 N 0.19590(15) 0.81354(11) 0.09391(11)
H23_3 H 0.2084 0.8376 0.1168
H24_3 H 0.2311 0.7921 0.0962
C43_3 C 0.1828(2) 0.83259(14) 0.04137(15)
H25_3 H 0.2239 0.8484 0.0330
H26_3 H 0.1453 0.8553 0.0391
H27_3 H 0.1706 0.8068 0.0170
C44_3 C 0.1327(3) 0.7898(2) 0.1072(3)
H28_3 H 0.1417 0.7769 0.1421
H29_3 H 0.1196 0.7642 0.0827
H30_3 H 0.0956 0.8129 0.1054
N1_4 N 0.80410(15) 0.81354(11) 0.40609(11)
H23_4 H 0.7916 0.8376 0.3832
H24_4 H 0.7689 0.7921 0.4038
C43_4 C 0.8172(2) 0.83259(14) 0.45863(15)
H25_4 H 0.7761 0.8484 0.4670
H26_4 H 0.8547 0.8553 0.4609
H27_4 H 0.8294 0.8068 0.4830
C44_4 C 0.8673(3) 0.7898(2) 0.3928(3)
H28_4 H 0.8583 0.7769 0.3579
H29_4 H 0.8804 0.7642 0.4173
H30_4 H 0.9044 0.8129 0.3946
N1_5 N 0.30410(15) 0.68646(11) 0.90609(11)
H23_5 H 0.2916 0.6624 0.8832
H24_5 H 0.2689 0.7079 0.9038
C43_5 C 0.3172(2) 0.66741(14) 0.95863(15)
H25_5 H 0.2761 0.6516 0.9670
H26_5 H 0.3547 0.6447 0.9609
H27_5 H 0.3294 0.6932 0.9830
C44_5 C 0.3673(3) 0.7102(2) 0.8928(3)
H28_5 H 0.3583 0.7231 0.8579
H29_5 H 0.3804 0.7358 0.9173
H30_5 H 0.4044 0.6871 0.8946
N1_6 N 0.69590(15) 0.68646(11) 0.59391(11)
H23_6 H 0.7084 0.6624 0.6168
H24_6 H 0.7311 0.7079 0.5962
C43_6 C 0.6828(2) 0.66741(14) 0.54137(15)
H25_6 H 0.7239 0.6516 0.5330
H26_6 H 0.6453 0.6447 0.5391
H27_6 H 0.6706 0.6932 0.5170
C44_6 C 0.6327(3) 0.7102(2) 0.6072(3)
H28_6 H 0.6417 0.7231 0.6421
H29_6 H 0.6196 0.7358 0.5827
H30_6 H 0.5956 0.6871 0.6054
N1_7 N 0.80410(15) 0.18646(11) 0.90609(11)
H23_7 H 0.7916 0.1624 0.8832
H24_7 H 0.7689 0.2079 0.9038
C43_7 C 0.8172(2) 0.16741(14) 0.95863(15)
H25_7 H 0.7761 0.1516 0.9670
H26_7 H 0.8547 0.1447 0.9609
H27_7 H 0.8294 0.1932 0.9830
C44_7 C 0.8673(3) 0.2102(2) 0.8928(3)
H28_7 H 0.8583 0.2231 0.8579
H29_7 H 0.8804 0.2358 0.9173
H30_7 H 0.9044 0.1871 0.8946
N1_8 N 0.19590(15) 0.18646(11) 0.59391(11)
H23_8 H 0.2084 0.1624 0.6168
H24_8 H 0.2311 0.2079 0.5962
C43_8 C 0.1828(2) 0.16741(14) 0.54137(15)
H25_8 H 0.2239 0.1516 0.5330
H26_8 H 0.1453 0.1447 0.5391
H27_8 H 0.1706 0.1932 0.5170
C44_8 C 0.1327(3) 0.2102(2) 0.6072(3)
H28_8 H 0.1417 0.2231 0.6421
H29_8 H 0.1196 0.2358 0.5827
H30_8 H 0.0956 0.1871 0.6054
loop_
_geom_bond_atom_site_label_1
_geom_bond_atom_site_label_2
_geom_bond_site_symmetry_1
_geom_bond_site_symmetry_2
In1 O5 1_555 1_555
O5 C39 1_555 1_555
O6 In1 1_555 1_555
C5 C4 1_555 1_555
H3 C5 1_555 1_555
C6 C1 1_555 1_555
H4 C6 1_555 1_555
C13 C14 1_555 1_555
C14 H9 1_555 1_555
C15 C14 1_555 1_555
H10 C15 1_555 1_555
C16 C15 1_555 1_555
C17 C16 1_555 1_555
C18 C13 1_555 1_555
H12 C18 1_555 1_555
H18 C28 1_555 1_555
C32 C31 1_555 1_555
H20 C32 1_555 1_555
C34 C33 1_555 1_555
H21 C34 1_555 1_555
C35 C16 1_555 1_555
C36 C31 1_555 1_555
H22 C36 1_555 1_555
C39 O6 1_555 1_555
O9 In1 1_555 1_555
O10 In1 1_555 1_555
O11 In1 1_555 1_555
O12 In1 1_555 1_555
O13 In1 1_555 1_555
C41 O9 1_555 1_555
C42 O12 1_555 1_555
C5 C6 1_555 1_555
C13 C39 1_555 1_555
C17 C18 1_555 1_555
C32 C33 1_555 1_555
C34 C35 1_555 1_555
C35 C36 1_555 1_555
O10 C41 1_555 1_555
O13 C42 1_555 1_555
O3 C38 1_555 1_555
O4 C38 1_555 1_555
C2 H1 1_555 1_555
C3 C2 1_555 1_555
H2 C3 1_555 1_555
C7 C8 1_555 1_555
C8 H5 1_555 1_555
C9 C8 1_555 1_555
H6 C9 1_555 1_555
C10 C9 1_555 1_555
C11 C10 1_555 1_555
H7 C11 1_555 1_555
C12 C7 1_555 1_555
H8 C12 1_555 1_555
C25 C10 1_555 1_555
C26 C25 1_555 1_555
H17 C26 1_555 1_555
C27 C26 1_555 1_555
C30 C25 1_555 1_555
H19 C30 1_555 1_555
C38 C7 1_555 1_555
In2 O3 1_555 1_555
C11 C12 1_555 1_555
C29 C30 1_555 1_555
O7 C40 1_555 1_555
O8 C40 1_555 1_555
C19 C21 1_555 1_555
C20 C22 1_555 1_555
C21 H13 1_555 1_555
C22 C21 1_555 1_555
H14 C22 1_555 1_555
C23 C20 1_555 1_555
H15 C23 1_555 1_555
C24 C19 1_555 1_555
H16 C24 1_555 1_555
C40 C19 1_555 1_555
In4 O7 1_555 1_555
O8 In4 1_555 1_555
C23 C24 1_555 1_555
In4 O5_2 1_555 1_555
O5_2 C39_2 1_555 1_555
O6_2 In4 1_555 1_555
C13_2 C14_2 1_555 1_555
C14_2 H9_2 1_555 1_555
C15_2 C14_2 1_555 1_555
H10_2 C15_2 1_555 1_555
C16_2 C15_2 1_555 1_555
C17_2 C16_2 1_555 1_555
C18_2 C13_2 1_555 1_555
H12_2 C18_2 1_555 1_555
C35_2 C16_2 1_555 1_555
H22_2 C36_2 1_555 1_555
C39_2 O6_2 1_555 1_555
O9_2 In4 1_555 1_555
O10_2 In4 1_555 1_555
O11_2 In4 1_555 1_555
C41_2 O9_2 1_555 1_555
C13_2 C39_2 1_555 1_555
C17_2 C18_2 1_555 1_555
C35_2 C36_2 1_555 1_555
O10_2 C41_2 1_555 1_555
C5_2 C4_2 1_555 1_555
H3_2 C5_2 1_555 1_555
C6_2 C1_2 1_555 1_555
H4_2 C6_2 1_555 1_555
C19_2 C21_2 1_555 1_555
C20_2 C22_2 1_555 1_555
C21_2 H13_2 1_555 1_555
C22_2 C21_2 1_555 1_555
H14_2 C22_2 1_555 1_555
C23_2 C20_2 1_555 1_555
C24_2 C19_2 1_555 1_555
H18_2 C28_2 1_555 1_555
C31_2 C20_2 1_555 1_555
C32_2 C31_2 1_555 1_555
H20_2 C32_2 1_555 1_555
C34_2 C33_2 1_555 1_555
H21_2 C34_2 1_555 1_555
C41_2 C1_2 1_555 1_555
C42 C19_2 1_555 1_555
C5_2 C6_2 1_555 1_555
C23_2 C24_2 1_555 1_555
C32_2 C33_2 1_555 1_555
O3_2 C38_2 1_555 1_555
O4_2 C38_2 1_555 1_555
C2_2 H1_2 1_555 1_555
C3_2 C2_2 1_555 1_555
H2_2 C3_2 1_555 1_555
C7_2 C8_2 1_555 1_555
C8_2 H5_2 1_555 1_555
C9_2 C8_2 1_555 1_555
H6_2 C9_2 1_555 1_555
C10_2 C9_2 1_555 1_555
C11_2 C10_2 1_555 1_555
H7_2 C11_2 1_555 1_555
C12_2 C7_2 1_555 1_555
H8_2 C12_2 1_555 1_555
C25_2 C10_2 1_555 1_555
C26_2 C25_2 1_555 1_555
H17_2 C26_2 1_555 1_555
C27_2 C26_2 1_555 1_555
C30_2 C25_2 1_555 1_555
H19_2 C30_2 1_555 1_555
C38_2 C7_2 1_555 1_555
In2_2 O3_2 1_555 1_555
C11_2 C12_2 1_555 1_555
C29_2 C30_2 1_555 1_555
O7_2 C40_2 1_555 1_555
O8_2 C40_2 1_555 1_555
C19_3 C21_3 1_555 1_555
C20_3 C22_3 1_555 1_555
C21_3 H13_3 1_555 1_555
C22_3 C21_3 1_555 1_555
H14_3 C22_3 1_555 1_555
C23_3 C20_3 1_555 1_555
H15_3 C23_3 1_555 1_555
C24_3 C19_3 1_555 1_555
H16_3 C24_3 1_555 1_555
C40_2 C19_3 1_555 1_555
In2 O7_2 1_555 1_555
O8_2 In2 1_555 1_555
C23_3 C24_3 1_555 1_555
In2_2 O5_3 1_555 1_555
O11_2 C38_3 1_555 1_555
O4_3 C38_3 1_555 1_555
O5_3 C39_3 1_555 1_555
O6_3 In2_2 1_555 1_555
C1_3 C2_3 1_555 1_555
C2_3 H1_3 1_555 1_555
C3_3 C2_3 1_555 1_555
H2_3 C3_3 1_555 1_555
C4_3 C3_3 1_555 1_555
C5_3 C4_3 1_555 1_555
H3_3 C5_3 1_555 1_555
C6_3 C1_3 1_555 1_555
H4_3 C6_3 1_555 1_555
C7_3 C8_3 1_555 1_555
C8_3 H5_3 1_555 1_555
C9_3 C8_3 1_555 1_555
H6_3 C9_3 1_555 1_555
C10_3 C9_3 1_555 1_555
C11_3 C10_3 1_555 1_555
H7_3 C11_3 1_555 1_555
C12_3 C7_3 1_555 1_555
H8_3 C12_3 1_555 1_555
C13_3 C14_3 1_555 1_555
C14_3 H9_3 1_555 1_555
C15_3 C14_3 1_555 1_555
H10_3 C15_3 1_555 1_555
C16_3 C15_3 1_555 1_555
C17_3 C16_3 1_555 1_555
H11_2 C17_3 1_555 1_555
C18_3 C13_3 1_555 1_555
H12_3 C18_3 1_555 1_555
C25_3 C10_3 1_555 1_555
C26_3 C25_3 1_555 1_555
H17_3 C26_3 1_555 1_555
C27_3 C26_3 1_555 1_555
C28_3 C27_3 1_555 1_555
H18_3 C28_3 1_555 1_555
C29_3 C4_3 1_555 1_555
C30_3 C25_3 1_555 1_555
H19_3 C30_3 1_555 1_555
C32_3 C31_3 1_555 1_555
H20_3 C32_3 1_555 1_555
C33_3 C27_3 1_555 1_555
C34_3 C33_3 1_555 1_555
H21_3 C34_3 1_555 1_555
C35_3 C16_3 1_555 1_555
C36_3 C31_3 1_555 1_555
H22_3 C36_3 1_555 1_555
C38_3 C7_3 1_555 1_555
C39_3 O6_3 1_555 1_555
O9_3 In2_2 1_555 1_555
O10_3 In2_2 1_555 1_555
O12_2 In2_2 1_555 1_555
O13_2 In2_2 1_555 1_555
C41_3 O9_3 1_555 1_555
C42_2 O12_2 1_555 1_555
C5_3 C6_3 1_555 1_555
C11_3 C12_3 1_555 1_555
C13_3 C39_3 1_555 1_555
C17_3 C18_3 1_555 1_555
C28_3 C29_3 1_555 1_555
C29_3 C30_3 1_555 1_555
C32_3 C33_3 1_555 1_555
C34_3 C35_3 1_555 1_555
C35_3 C36_3 1_555 1_555
O10_3 C41_3 1_555 1_555
O13_2 C42_2 1_555 1_555
In2 O5_4 1_555 1_555
O5_4 C39_4 1_555 1_555
O6_4 In2 1_555 1_555
C13_4 C14_4 1_555 1_555
C14_4 H9_4 1_555 1_555
C15_4 C14_4 1_555 1_555
H10_4 C15_4 1_555 1_555
C16_4 C15_4 1_555 1_555
C17_4 C16_4 1_555 1_555
H11_3 C17_4 1_555 1_555
C18_4 C13_4 1_555 1_555
H12_4 C18_4 1_555 1_555
C35_4 C16_4 1_555 1_555
H22_4 C36_4 1_555 1_555
C39_4 O6_4 1_555 1_555
O9_4 In2 1_555 1_555
O10_4 In2 1_555 1_555
C41_4 O9_4 1_555 1_555
C13_4 C39_4 1_555 1_555
C17_4 C18_4 1_555 1_555
C35_4 C36_4 1_555 1_555
O10_4 C41_4 1_555 1_555
O11 C38_4 1_555 1_555
O4_4 C38_4 1_555 1_555
C1_4 C2_4 1_555 1_555
C2_4 H1_4 1_555 1_555
C3_4 C2_4 1_555 1_555
H2_4 C3_4 1_555 1_555
C4_4 C3_4 1_555 1_555
C5_4 C4_4 1_555 1_555
H3_4 C5_4 1_555 1_555
C6_4 C1_4 1_555 1_555
H4_4 C6_4 1_555 1_555
C7_4 C8_4 1_555 1_555
C8_4 H5_4 1_555 1_555
C9_4 C8_4 1_555 1_555
H6_4 C9_4 1_555 1_555
C10_4 C9_4 1_555 1_555
C11_4 C10_4 1_555 1_555
H7_4 C11_4 1_555 1_555
C12_4 C7_4 1_555 1_555
H8_4 C12_4 1_555 1_555
C19_4 C21_4 1_555 1_555
C20_4 C22_4 1_555 1_555
C21_4 H13_4 1_555 1_555
C22_4 C21_4 1_555 1_555
H14_4 C22_4 1_555 1_555
C23_4 C20_4 1_555 1_555
C24_4 C19_4 1_555 1_555
C25_4 C10_4 1_555 1_555
C26_4 C25_4 1_555 1_555
H17_4 C26_4 1_555 1_555
C27_4 C26_4 1_555 1_555
C28_4 C27_4 1_555 1_555
H18_4 C28_4 1_555 1_555
C29_4 C4_4 1_555 1_555
C30_4 C25_4 1_555 1_555
H19_4 C30_4 1_555 1_555
C31_4 C20_4 1_555 1_555
C32_4 C31_4 1_555 1_555
H20_4 C32_4 1_555 1_555
C33_4 C27_4 1_555 1_555
C34_4 C33_4 1_555 1_555
H21_4 C34_4 1_555 1_555
C41_4 C1_4 1_555 1_555
C38_4 C7_4 1_555 1_555
C42_2 C19_4 1_555 1_555
C5_4 C6_4 1_555 1_555
C11_4 C12_4 1_555 1_555
C23_4 C24_4 1_555 1_555
C28_4 C29_4 1_555 1_555
C29_4 C30_4 1_555 1_555
C32_4 C33_4 1_555 1_555
O1 C37 1_555 1_555
O2 C37 1_555 1_555
In3 O1 1_555 1_555
O2 In3 1_555 1_555
In3 O5_5 1_555 1_555
O3_3 C38_5 1_555 1_555
O4_5 C38_5 1_555 1_555
O5_5 C39_5 1_555 1_555
O6_5 In3 1_555 1_555
C1_5 C2_5 1_555 1_555
C2_5 H1_5 1_555 1_555
C3_5 C2_5 1_555 1_555
H2_5 C3_5 1_555 1_555
C4_5 C3_5 1_555 1_555
C5_5 C4_5 1_555 1_555
H3_5 C5_5 1_555 1_555
C6_5 C1_5 1_555 1_555
H4_5 C6_5 1_555 1_555
C7_5 C8_5 1_555 1_555
C8_5 H5_5 1_555 1_555
C9_5 C8_5 1_555 1_555
H6_5 C9_5 1_555 1_555
C10_5 C9_5 1_555 1_555
C11_5 C10_5 1_555 1_555
H7_5 C11_5 1_555 1_555
C12_5 C7_5 1_555 1_555
H8_5 C12_5 1_555 1_555
C13_5 C14_5 1_555 1_555
C14_5 H9_5 1_555 1_555
C15_5 C14_5 1_555 1_555
H10_5 C15_5 1_555 1_555
C16_5 C15_5 1_555 1_555
C17_5 C16_5 1_555 1_555
H11_4 C17_5 1_555 1_555
C18_5 C13_5 1_555 1_555
H12_5 C18_5 1_555 1_555
C25_5 C10_5 1_555 1_555
C26_5 C25_5 1_555 1_555
H17_5 C26_5 1_555 1_555
C27_5 C26_5 1_555 1_555
C28_5 C27_5 1_555 1_555
H18_5 C28_5 1_555 1_555
C29_5 C4_5 1_555 1_555
C30_5 C25_5 1_555 1_555
H19_5 C30_5 1_555 1_555
C32_5 C31_5 1_555 1_555
H20_5 C32_5 1_555 1_555
C33_5 C27_5 1_555 1_555
C34_5 C33_5 1_555 1_555
H21_5 C34_5 1_555 1_555
C35_5 C16_5 1_555 1_555
C36_5 C31_5 1_555 1_555
H22_5 C36_5 1_555 1_555
C38_5 C7_5 1_555 1_555
C39_5 O6_5 1_555 1_555
In2_3 O3_3 1_555 1_555
O11_3 In3 1_555 1_555
O12_3 In3 1_555 1_555
O13_3 In3 1_555 1_555
C42_3 O12_3 1_555 1_555
C5_5 C6_5 1_555 1_555
C11_5 C12_5 1_555 1_555
C13_5 C39_5 1_555 1_555
C17_5 C18_5 1_555 1_555
C28_5 C29_5 1_555 1_555
C29_5 C30_5 1_555 1_555
C32_5 C33_5 1_555 1_555
C34_5 C35_5 1_555 1_555
C35_5 C36_5 1_555 1_555
O13_3 C42_3 1_555 1_555
O7_3 C40_3 1_555 1_555
O8_3 C40_3 1_555 1_555
C19_5 C21_5 1_555 1_555
C20_5 C22_5 1_555 1_555
C21_5 H13_5 1_555 1_555
C22_5 C21_5 1_555 1_555
H14_5 C22_5 1_555 1_555
C23_5 C20_5 1_555 1_555
H15_5 C23_5 1_555 1_555
C24_5 C19_5 1_555 1_555
H16_5 C24_5 1_555 1_555
C40_3 C19_5 1_555 1_555
In4_2 O7_3 1_555 1_555
O8_3 In4_2 1_555 1_555
C23_5 C24_5 1_555 1_555
O1_2 C37_2 1_555 1_555
O2_2 C37_2 1_555 1_555
O3_4 C38_6 1_555 1_555
O4_6 C38_6 1_555 1_555
C1_6 C2_6 1_555 1_555
C2_6 H1_6 1_555 1_555
C3_6 C2_6 1_555 1_555
H2_6 C3_6 1_555 1_555
C4_6 C3_6 1_555 1_555
C5_6 C4_6 1_555 1_555
H3_6 C5_6 1_555 1_555
C6_6 C1_6 1_555 1_555
H4_6 C6_6 1_555 1_555
C7_6 C8_6 1_555 1_555
C8_6 H5_6 1_555 1_555
C9_6 C8_6 1_555 1_555
H6_6 C9_6 1_555 1_555
C10_6 C9_6 1_555 1_555
C11_6 C10_6 1_555 1_555
H7_6 C11_6 1_555 1_555
C12_6 C7_6 1_555 1_555
H8_6 C12_6 1_555 1_555
C19_6 C21_6 1_555 1_555
C20_6 C22_6 1_555 1_555
C21_6 H13_6 1_555 1_555
C22_6 C21_6 1_555 1_555
H14_6 C22_6 1_555 1_555
C23_6 C20_6 1_555 1_555
C24_6 C19_6 1_555 1_555
C25_6 C10_6 1_555 1_555
C26_6 C25_6 1_555 1_555
H17_6 C26_6 1_555 1_555
C27_6 C26_6 1_555 1_555
C28_6 C27_6 1_555 1_555
H18_6 C28_6 1_555 1_555
C29_6 C4_6 1_555 1_555
C30_6 C25_6 1_555 1_555
H19_6 C30_6 1_555 1_555
C31_6 C20_6 1_555 1_555
C32_6 C31_6 1_555 1_555
H20_6 C32_6 1_555 1_555
C33_6 C27_6 1_555 1_555
C34_6 C33_6 1_555 1_555
H21_6 C34_6 1_555 1_555
C37_2 C1_6 1_555 1_555
C38_6 C7_6 1_555 1_555
C42_3 C19_6 1_555 1_555
In2_4 O3_4 1_555 1_555
In4_2 O1_2 1_555 1_555
O2_2 In4_2 1_555 1_555
C5_6 C6_6 1_555 1_555
C11_6 C12_6 1_555 1_555
C23_6 C24_6 1_555 1_555
C28_6 C29_6 1_555 1_555
C29_6 C30_6 1_555 1_555
C32_6 C33_6 1_555 1_555
In4_2 O5_6 1_555 1_555
O5_6 C39_6 1_555 1_555
O6_6 In4_2 1_555 1_555
C13_6 C14_6 1_555 1_555
C14_6 H9_6 1_555 1_555
C15_6 C14_6 1_555 1_555
H10_6 C15_6 1_555 1_555
C16_6 C15_6 1_555 1_555
C17_6 C16_6 1_555 1_555
H11_5 C17_6 1_555 1_555
C18_6 C13_6 1_555 1_555
H12_6 C18_6 1_555 1_555
C35_6 C16_6 1_555 1_555
H22_6 C36_6 1_555 1_555
C39_6 O6_6 1_555 1_555
O11_4 In4_2 1_555 1_555
C13_6 C39_6 1_555 1_555
C17_6 C18_6 1_555 1_555
C35_6 C36_6 1_555 1_555
O1_3 C37_3 1_555 1_555
O2_3 C37_3 1_555 1_555
In2_4 O1_3 1_555 1_555
O2_3 In2_4 1_555 1_555
O7_4 C40_4 1_555 1_555
O8_4 C40_4 1_555 1_555
C19_7 C21_7 1_555 1_555
C20_7 C22_7 1_555 1_555
C21_7 H13_7 1_555 1_555
C22_7 C21_7 1_555 1_555
H14_7 C22_7 1_555 1_555
C23_7 C20_7 1_555 1_555
H15_7 C23_7 1_555 1_555
C24_7 C19_7 1_555 1_555
H16_7 C24_7 1_555 1_555
C40_4 C19_7 1_555 1_555
In2_3 O7_4 1_555 1_555
O8_4 In2_3 1_555 1_555
C23_7 C24_7 1_555 1_555
O11_4 C38_7 1_555 1_555
O4_7 C38_7 1_555 1_555
C2_7 H1_7 1_555 1_555
C3_7 C2_7 1_555 1_555
H2_7 C3_7 1_555 1_555
C7_7 C8_7 1_555 1_555
C8_7 H5_7 1_555 1_555
C9_7 C8_7 1_555 1_555
H6_7 C9_7 1_555 1_555
C10_7 C9_7 1_555 1_555
C11_7 C10_7 1_555 1_555
H7_7 C11_7 1_555 1_555
C12_7 C7_7 1_555 1_555
H8_7 C12_7 1_555 1_555
C25_7 C10_7 1_555 1_555
C26_7 C25_7 1_555 1_555
H17_7 C26_7 1_555 1_555
C27_7 C26_7 1_555 1_555
C30_7 C25_7 1_555 1_555
H19_7 C30_7 1_555 1_555
C38_7 C7_7 1_555 1_555
C11_7 C12_7 1_555 1_555
C29_7 C30_7 1_555 1_555
In2_4 O5_7 1_555 1_555
O5_7 C39_7 1_555 1_555
O6_7 In2_4 1_555 1_555
C5_7 C4_7 1_555 1_555
H3_7 C5_7 1_555 1_555
C6_7 C1_7 1_555 1_555
H4_7 C6_7 1_555 1_555
C13_7 C14_7 1_555 1_555
C14_7 H9_7 1_555 1_555
C15_7 C14_7 1_555 1_555
H10_7 C15_7 1_555 1_555
C16_7 C15_7 1_555 1_555
C17_7 C16_7 1_555 1_555
C18_7 C13_7 1_555 1_555
H12_7 C18_7 1_555 1_555
H18_7 C28_7 1_555 1_555
C32_7 C31_7 1_555 1_555
H20_7 C32_7 1_555 1_555
C34_7 C33_7 1_555 1_555
H21_7 C34_7 1_555 1_555
C35_7 C16_7 1_555 1_555
C36_7 C31_7 1_555 1_555
H22_7 C36_7 1_555 1_555
C39_7 O6_7 1_555 1_555
O12_4 In2_4 1_555 1_555
O13_4 In2_4 1_555 1_555
C42_4 O12_4 1_555 1_555
C5_7 C6_7 1_555 1_555
C13_7 C39_7 1_555 1_555
C17_7 C18_7 1_555 1_555
C32_7 C33_7 1_555 1_555
C34_7 C35_7 1_555 1_555
C35_7 C36_7 1_555 1_555
O13_4 C42_4 1_555 1_555
O11_3 C38_8 1_555 1_555
O4_8 C38_8 1_555 1_555
C2_8 H1_8 1_555 1_555
C3_8 C2_8 1_555 1_555
H2_8 C3_8 1_555 1_555
C7_8 C8_8 1_555 1_555
C8_8 H5_8 1_555 1_555
C9_8 C8_8 1_555 1_555
H6_8 C9_8 1_555 1_555
C10_8 C9_8 1_555 1_555
C11_8 C10_8 1_555 1_555
H7_8 C11_8 1_555 1_555
C12_8 C7_8 1_555 1_555
H8_8 C12_8 1_555 1_555
C25_8 C10_8 1_555 1_555
C26_8 C25_8 1_555 1_555
H17_8 C26_8 1_555 1_555
C27_8 C26_8 1_555 1_555
C30_8 C25_8 1_555 1_555
H19_8 C30_8 1_555 1_555
C38_8 C7_8 1_555 1_555
C11_8 C12_8 1_555 1_555
C29_8 C30_8 1_555 1_555
O1_4 C37_4 1_555 1_555
O2_4 C37_4 1_555 1_555
C5_8 C4_8 1_555 1_555
H3_8 C5_8 1_555 1_555
C6_8 C1_8 1_555 1_555
H4_8 C6_8 1_555 1_555
C19_8 C21_8 1_555 1_555
C20_8 C22_8 1_555 1_555
C21_8 H13_8 1_555 1_555
C22_8 C21_8 1_555 1_555
H14_8 C22_8 1_555 1_555
C23_8 C20_8 1_555 1_555
C24_8 C19_8 1_555 1_555
H18_8 C28_8 1_555 1_555
C31_8 C20_8 1_555 1_555
C32_8 C31_8 1_555 1_555
H20_8 C32_8 1_555 1_555
C34_8 C33_8 1_555 1_555
H21_8 C34_8 1_555 1_555
C37_4 C1_8 1_555 1_555
C42_4 C19_8 1_555 1_555
In2_3 O1_4 1_555 1_555
O2_4 In2_3 1_555 1_555
C5_8 C6_8 1_555 1_555
C23_8 C24_8 1_555 1_555
C32_8 C33_8 1_555 1_555
In2_3 O5_8 1_555 1_555
O5_8 C39_8 1_555 1_555
O6_8 In2_3 1_555 1_555
C13_8 C14_8 1_555 1_555
C14_8 H9_8 1_555 1_555
C15_8 C14_8 1_555 1_555
H10_8 C15_8 1_555 1_555
C16_8 C15_8 1_555 1_555
C17_8 C16_8 1_555 1_555
C18_8 C13_8 1_555 1_555
H12_8 C18_8 1_555 1_555
C35_8 C16_8 1_555 1_555
H22_8 C36_8 1_555 1_555
C39_8 O6_8 1_555 1_555
C13_8 C39_8 1_555 1_555
C17_8 C18_8 1_555 1_555
C35_8 C36_8 1_555 1_555
N1 H23 1_555 1_555
H24 N1 1_555 1_555
C43 N1 1_555 1_555
H25 C43 1_555 1_555
H26 C43 1_555 1_555
H27 C43 1_555 1_555
C44 N1 1_555 1_555
H28 C44 1_555 1_555
H29 C44 1_555 1_555
H30 C44 1_555 1_555
N1_2 H23_2 1_555 1_555
H24_2 N1_2 1_555 1_555
C43_2 N1_2 1_555 1_555
H25_2 C43_2 1_555 1_555
H26_2 C43_2 1_555 1_555
H27_2 C43_2 1_555 1_555
C44_2 N1_2 1_555 1_555
H28_2 C44_2 1_555 1_555
H29_2 C44_2 1_555 1_555
H30_2 C44_2 1_555 1_555
N1_3 H23_3 1_555 1_555
H24_3 N1_3 1_555 1_555
C43_3 N1_3 1_555 1_555
H25_3 C43_3 1_555 1_555
H26_3 C43_3 1_555 1_555
H27_3 C43_3 1_555 1_555
C44_3 N1_3 1_555 1_555
H28_3 C44_3 1_555 1_555
H29_3 C44_3 1_555 1_555
H30_3 C44_3 1_555 1_555
N1_4 H23_4 1_555 1_555
H24_4 N1_4 1_555 1_555
C43_4 N1_4 1_555 1_555
H25_4 C43_4 1_555 1_555
H26_4 C43_4 1_555 1_555
H27_4 C43_4 1_555 1_555
C44_4 N1_4 1_555 1_555
H28_4 C44_4 1_555 1_555
H29_4 C44_4 1_555 1_555
H30_4 C44_4 1_555 1_555
N1_5 H23_5 1_555 1_555
H24_5 N1_5 1_555 1_555
C43_5 N1_5 1_555 1_555
H25_5 C43_5 1_555 1_555
H26_5 C43_5 1_555 1_555
H27_5 C43_5 1_555 1_555
C44_5 N1_5 1_555 1_555
H28_5 C44_5 1_555 1_555
H29_5 C44_5 1_555 1_555
H30_5 C44_5 1_555 1_555
N1_6 H23_6 1_555 1_555
H24_6 N1_6 1_555 1_555
C43_6 N1_6 1_555 1_555
H25_6 C43_6 1_555 1_555
H26_6 C43_6 1_555 1_555
H27_6 C43_6 1_555 1_555
C44_6 N1_6 1_555 1_555
H28_6 C44_6 1_555 1_555
H29_6 C44_6 1_555 1_555
H30_6 C44_6 1_555 1_555
N1_7 H23_7 1_555 1_555
H24_7 N1_7 1_555 1_555
C43_7 N1_7 1_555 1_555
H25_7 C43_7 1_555 1_555
H26_7 C43_7 1_555 1_555
H27_7 C43_7 1_555 1_555
C44_7 N1_7 1_555 1_555
H28_7 C44_7 1_555 1_555
H29_7 C44_7 1_555 1_555
H30_7 C44_7 1_555 1_555
N1_8 H23_8 1_555 1_555
H24_8 N1_8 1_555 1_555
C43_8 N1_8 1_555 1_555
H25_8 C43_8 1_555 1_555
H26_8 C43_8 1_555 1_555
H27_8 C43_8 1_555 1_555
C44_8 N1_8 1_555 1_555
H28_8 C44_8 1_555 1_555
H29_8 C44_8 1_555 1_555
H30_8 C44_8 1_555 1_555

#END
