
###############################################################################
#
# This file contains modified crystal structure data generated from the
# MOF subset of the Cambridge Structural Database (CSD) v543 
# hosted by the Cambridge Crystallographic Data Centre (CCDC).
#
# This work is licensed under the Creative Commons
# Attribution-NonCommercial-ShareAlike 4.0 International License.
# To view a copy of this license, visit
# http://creativecommons.org/licenses/by-nc-sa/4.0/
# or send a letter to
# Creative Commons, PO Box 1866, Mountain View, CA 94042, USA.
#
# CIF created using the CSD Python API on 29 September 2022
# The structure has been converted into the P1 space group
# The structure has a 3D framework
# The original CSD entry GAZZIS03 is in the monoclinic crystal system
# The framework has been calculated to contain at least 10.0% void space
# The void calculation uses a probe of radius 1.32A, grid spacing 0.4
#
###############################################################################

data_GAZZIS03
_chemical_formula_moiety         '(C334 H240 In8 N8 O48)n'
_symmetry_cell_setting           triclinic
_symmetry_space_group_name_H-M   'P 1'
_symmetry_Int_Tables_number      1
_space_group_name_Hall           'P 1'
loop_
_symmetry_equiv_pos_site_id
_symmetry_equiv_pos_as_xyz
1 x,y,z
_cell_length_a                   19.722(3)
_cell_length_b                   28.524(5)
_cell_length_c                   26.562(5)
_cell_angle_alpha                90
_cell_angle_beta                 96.774(3)
_cell_angle_gamma                90
_cell_volume                     14838.2
loop_
_atom_site_label
_atom_site_type_symbol
_atom_site_fract_x
_atom_site_fract_y
_atom_site_fract_z
In1 In 0.885840(9) 0.256380(7) 0.115180(7)
O5 O 0.83171(10) 0.18432(7) 0.11792(8)
O6 O 0.78844(10) 0.24032(7) 0.06784(8)
C1 C 0.04806(15) 0.20845(10) 0.04803(11)
C4 C 0.16791(15) 0.18739(11) 0.00580(11)
C5 C 0.16462(17) 0.18316(13) 0.05689(12)
H3 H 0.2040 0.1730 0.0782
C6 C 0.10592(17) 0.19319(13) 0.07835(13)
H4 H 0.1051 0.1897 0.1138
C13 C 0.71826(14) 0.17410(10) 0.07552(12)
C14 C 0.70251(16) 0.13626(12) 0.10458(13)
H9 H 0.7355 0.1247 0.1306
C15 C 0.63903(16) 0.11502(12) 0.09601(14)
H10 H 0.6286 0.0895 0.1168
C16 C 0.59068(15) 0.13044(10) 0.05762(12)
C17 C 0.60888(15) 0.16738(11) 0.02717(12)
C18 C 0.67092(15) 0.18889(11) 0.03595(11)
H12 H 0.6817 0.2141 0.0149
C28 C 0.28396(14) 0.15077(10) 0.00942(11)
H18 H 0.2773 0.1374 0.0412
C31 C 0.44526(15) 0.04247(10) 0.05478(11)
C32 C 0.39133(15) 0.06957(10) 0.03271(11)
H20 H 0.3465 0.0568 0.0283
C33 C 0.40205(14) 0.11511(11) 0.01700(11)
C34 C 0.46704(14) 0.13424(11) 0.02471(11)
H21 H 0.4743 0.1653 0.0137
C35 C 0.52171(15) 0.10872(11) 0.04828(12)
C36 C 0.51021(15) 0.06280(11) 0.06283(12)
H22 H 0.5473 0.0448 0.0786
C39 C 0.78359(15) 0.20000(10) 0.08751(11)
O9 O 0.98466(10) 0.21768(7) 0.11868(7)
O10 O 0.93527(11) 0.23925(8) 0.04441(8)
O11 O 0.89454(14) 0.26127(9) 0.19508(9)
O12 O 0.84894(11) 0.32923(8) 0.09603(10)
O13 O 0.95816(12) 0.32147(8) 0.11506(11)
C41 C 0.98610(15) 0.22219(10) 0.07133(11)
C42 C 0.90784(17) 0.34691(11) 0.10173(12)
O3 O 0.39454(14) 0.23873(9) 0.69508(9)
O4 O 0.28375(15) 0.23089(11) 0.67325(9)
C2 C 0.05099(18) 0.21310(16) 0.99742(13)
H1 H 0.0118 0.2240 0.9764
C3 C 0.10954(17) 0.20244(17) 0.97560(14)
H2 H 0.1098 0.2054 0.9400
C7 C 0.32644(18) 0.22296(13) 0.76080(12)
C8 C 0.38240(16) 0.22207(12) 0.79769(12)
H5 H 0.4266 0.2289 0.7888
C9 C 0.37425(16) 0.21130(12) 0.84696(12)
H6 H 0.4132 0.2107 0.8717
C10 C 0.31029(15) 0.20130(11) 0.86156(11)
C11 C 0.25448(17) 0.20302(14) 0.82419(12)
H7 H 0.2101 0.1968 0.8330
C12 C 0.26243(17) 0.21354(14) 0.77508(13)
H8 H 0.2235 0.2144 0.7503
H11 H 0.5772 0.1777 0.9997
C25 C 0.30229(15) 0.18661(11) 0.91407(11)
C26 C 0.35414(15) 0.16121(11) 0.94208(11)
H17 H 0.3960 0.1561 0.9285
C27 C 0.34542(15) 0.14343(10) 0.98935(11)
C29 C 0.23235(15) 0.17756(11) 0.98309(11)
C30 C 0.24228(15) 0.19511(12) 0.93564(11)
H19 H 0.2073 0.2134 0.9174
C38 C 0.3347(2) 0.23159(13) 0.70611(13)
In2 In 0.385840(9) 0.243620(7) 0.615180(7)
O7 O 0.34894(11) 0.82923(8) 0.09603(10)
O8 O 0.45816(12) 0.82147(8) 0.11506(11)
C19 C 0.41701(15) 0.89788(11) 0.09151(12)
C20 C 0.43556(15) 0.99240(11) 0.06851(12)
C21 C 0.3616(3) 0.9294(2) 0.0901(3)
H13 H 0.3180 0.9183 0.0966
C22 C 0.3705(3) 0.9770(2) 0.0793(2)
H14 H 0.3337 0.9985 0.0792
C23 C 0.4881(3) 0.9621(2) 0.0712(3)
H15 H 0.5319 0.9725 0.0644
C24 C 0.4783(3) 0.9158(2) 0.0839(3)
H16 H 0.5168 0.8955 0.0874
C40 C 0.40784(17) 0.84691(11) 0.10173(12)
In4 In 0.385840(9) 0.756380(7) 0.115180(7)
O5_2 O 0.33171(10) 0.68432(7) 0.11792(8)
O6_2 O 0.28844(10) 0.74032(7) 0.06784(8)
C13_2 C 0.21826(14) 0.67410(10) 0.07552(12)
C14_2 C 0.20251(16) 0.63626(12) 0.10458(13)
H9_2 H 0.2355 0.6247 0.1306
C15_2 C 0.13903(16) 0.61502(12) 0.09601(14)
H10_2 H 0.1286 0.5895 0.1168
C16_2 C 0.09068(15) 0.63044(10) 0.05762(12)
C17_2 C 0.10888(15) 0.66738(11) 0.02717(12)
C18_2 C 0.17092(15) 0.68889(11) 0.03595(11)
H12_2 H 0.1817 0.7141 0.0149
H15_2 H 0.0319 0.4725 0.0644
H16_2 H 0.0168 0.3955 0.0874
C35_2 C 0.02171(15) 0.60872(11) 0.04828(12)
C36_2 C 0.01021(15) 0.56280(11) 0.06283(12)
H22_2 H 0.0473 0.5448 0.0786
C39_2 C 0.28359(15) 0.70000(10) 0.08751(11)
O9_2 O 0.48466(10) 0.71768(7) 0.11868(7)
O10_2 O 0.43527(11) 0.73925(8) 0.04441(8)
O11_2 O 0.39454(14) 0.76127(9) 0.19508(9)
C41_2 C 0.48610(15) 0.72219(10) 0.07133(11)
C1_2 C 0.54806(15) 0.70845(10) 0.04803(11)
C4_2 C 0.66791(15) 0.68739(11) 0.00580(11)
C5_2 C 0.66462(17) 0.68316(13) 0.05689(12)
H3_2 H 0.7040 0.6730 0.0782
C6_2 C 0.60592(17) 0.69319(13) 0.07835(13)
H4_2 H 0.6051 0.6897 0.1138
C19_2 C 0.91701(15) 0.39788(11) 0.09151(12)
C20_2 C 0.93556(15) 0.49240(11) 0.06851(12)
C21_2 C 0.8616(3) 0.4294(2) 0.0901(3)
H13_2 H 0.8180 0.4183 0.0966
C22_2 C 0.8705(3) 0.4770(2) 0.0793(2)
H14_2 H 0.8337 0.4985 0.0792
C23_2 C 0.9881(3) 0.4621(2) 0.0712(3)
C24_2 C 0.9783(3) 0.4158(2) 0.0839(3)
C28_2 C 0.78396(14) 0.65077(10) 0.00942(11)
H18_2 H 0.7773 0.6374 0.0412
C31_2 C 0.94526(15) 0.54247(10) 0.05478(11)
C32_2 C 0.89133(15) 0.56957(10) 0.03271(11)
H20_2 H 0.8465 0.5568 0.0283
C33_2 C 0.90205(14) 0.61511(11) 0.01700(11)
C34_2 C 0.96704(14) 0.63424(11) 0.02471(11)
H21_2 H 0.9743 0.6653 0.0137
O3_2 O 0.89454(14) 0.73873(9) 0.69508(9)
O4_2 O 0.78375(15) 0.73089(11) 0.67325(9)
C2_2 C 0.55099(18) 0.71310(16) 0.99742(13)
H1_2 H 0.5118 0.7240 0.9764
C3_2 C 0.60954(17) 0.70244(17) 0.97560(14)
H2_2 H 0.6098 0.7054 0.9400
C7_2 C 0.82644(18) 0.72296(13) 0.76080(12)
C8_2 C 0.88240(16) 0.72207(12) 0.79769(12)
H5_2 H 0.9266 0.7289 0.7888
C9_2 C 0.87425(16) 0.71130(12) 0.84696(12)
H6_2 H 0.9132 0.7107 0.8717
C10_2 C 0.81029(15) 0.70130(11) 0.86156(11)
C11_2 C 0.75448(17) 0.70302(14) 0.82419(12)
H7_2 H 0.7101 0.6968 0.8330
C12_2 C 0.76243(17) 0.71354(14) 0.77508(13)
H8_2 H 0.7235 0.7144 0.7503
C25_2 C 0.80229(15) 0.68661(11) 0.91407(11)
C26_2 C 0.85414(15) 0.66121(11) 0.94208(11)
H17_2 H 0.8960 0.6561 0.9285
C27_2 C 0.84542(15) 0.64343(10) 0.98935(11)
C29_2 C 0.73235(15) 0.67756(11) 0.98309(11)
C30_2 C 0.74228(15) 0.69511(12) 0.93564(11)
H19_2 H 0.7073 0.7134 0.9174
C38_2 C 0.8347(2) 0.73159(13) 0.70611(13)
In2_2 In 0.885840(9) 0.743620(7) 0.615180(7)
O7_2 O 0.34894(11) 0.17077(8) 0.59603(10)
O8_2 O 0.45816(12) 0.17853(8) 0.61506(11)
C19_3 C 0.41701(15) 0.10212(11) 0.59151(12)
C20_3 C 0.43556(15) 0.00760(11) 0.56851(12)
C21_3 C 0.3616(3) 0.0706(2) 0.5901(3)
H13_3 H 0.3180 0.0817 0.5966
C22_3 C 0.3705(3) 0.0230(2) 0.5793(2)
H14_3 H 0.3337 0.0015 0.5792
C23_3 C 0.4881(3) 0.0379(2) 0.5712(3)
H15_3 H 0.5319 0.0275 0.5644
C24_3 C 0.4783(3) 0.0842(2) 0.5839(3)
H16_3 H 0.5168 0.1045 0.5874
C40_2 C 0.40784(17) 0.15309(11) 0.60173(12)
O4_3 O 0.28375(15) 0.76911(11) 0.17325(9)
O5_3 O 0.83171(10) 0.81568(7) 0.61792(8)
O6_3 O 0.78844(10) 0.75968(7) 0.56784(8)
C1_3 C 0.04806(15) 0.79155(10) 0.54803(11)
C2_3 C 0.05099(18) 0.78690(16) 0.49742(13)
H1_3 H 0.0118 0.7760 0.4764
C3_3 C 0.10954(17) 0.79756(17) 0.47560(14)
H2_3 H 0.1098 0.7946 0.4400
C4_3 C 0.16791(15) 0.81261(11) 0.50580(11)
C5_3 C 0.16462(17) 0.81684(13) 0.55689(12)
H3_3 H 0.2040 0.8270 0.5782
C6_3 C 0.10592(17) 0.80681(13) 0.57835(13)
H4_3 H 0.1051 0.8103 0.6138
C7_3 C 0.32644(18) 0.77704(13) 0.26080(12)
C8_3 C 0.38240(16) 0.77793(12) 0.29769(12)
H5_3 H 0.4266 0.7711 0.2888
C9_3 C 0.37425(16) 0.78870(12) 0.34696(12)
H6_3 H 0.4132 0.7893 0.3717
C10_3 C 0.31029(15) 0.79870(11) 0.36156(11)
C11_3 C 0.25448(17) 0.79698(14) 0.32419(12)
H7_3 H 0.2101 0.8032 0.3330
C12_3 C 0.26243(17) 0.78646(14) 0.27508(13)
H8_3 H 0.2235 0.7856 0.2503
C13_3 C 0.71826(14) 0.82590(10) 0.57552(12)
C14_3 C 0.70251(16) 0.86374(12) 0.60458(13)
H9_3 H 0.7355 0.8753 0.6306
C15_3 C 0.63903(16) 0.88498(12) 0.59601(14)
H10_3 H 0.6286 0.9105 0.6168
C16_3 C 0.59068(15) 0.86956(10) 0.55762(12)
C17_3 C 0.60888(15) 0.83262(11) 0.52717(12)
H11_2 H 0.5772 0.8223 0.4997
C18_3 C 0.67092(15) 0.81111(11) 0.53595(11)
H12_3 H 0.6817 0.7859 0.5149
C25_3 C 0.30229(15) 0.81339(11) 0.41407(11)
C26_3 C 0.35414(15) 0.83879(11) 0.44208(11)
H17_3 H 0.3960 0.8439 0.4285
C27_3 C 0.34542(15) 0.85657(10) 0.48935(11)
C28_3 C 0.28396(14) 0.84923(10) 0.50942(11)
H18_3 H 0.2773 0.8626 0.5412
C29_3 C 0.23235(15) 0.82244(11) 0.48309(11)
C30_3 C 0.24228(15) 0.80489(12) 0.43564(11)
H19_3 H 0.2073 0.7866 0.4174
C31_3 C 0.44526(15) 0.95753(10) 0.55478(11)
C32_3 C 0.39133(15) 0.93043(10) 0.53271(11)
H20_3 H 0.3465 0.9432 0.5283
C33_3 C 0.40205(14) 0.88489(11) 0.51700(11)
C34_3 C 0.46704(14) 0.86576(11) 0.52471(11)
H21_3 H 0.4743 0.8347 0.5137
C35_3 C 0.52171(15) 0.89128(11) 0.54828(12)
C36_3 C 0.51021(15) 0.93720(11) 0.56283(12)
H22_3 H 0.5473 0.9552 0.5786
C38_3 C 0.3347(2) 0.76841(13) 0.20611(13)
C39_3 C 0.78359(15) 0.80000(10) 0.58751(11)
O9_3 O 0.98466(10) 0.78232(7) 0.61868(7)
O10_3 O 0.93527(11) 0.76075(8) 0.54441(8)
O12_2 O 0.84894(11) 0.67077(8) 0.59603(10)
O13_2 O 0.95816(12) 0.67853(8) 0.61506(11)
C41_3 C 0.98610(15) 0.77781(10) 0.57133(11)
C42_2 C 0.90784(17) 0.65309(11) 0.60173(12)
O5_4 O 0.33171(10) 0.31568(7) 0.61792(8)
O6_4 O 0.28844(10) 0.25968(7) 0.56784(8)
C13_4 C 0.21826(14) 0.32590(10) 0.57552(12)
C14_4 C 0.20251(16) 0.36374(12) 0.60458(13)
H9_4 H 0.2355 0.3753 0.6306
C15_4 C 0.13903(16) 0.38498(12) 0.59601(14)
H10_4 H 0.1286 0.4105 0.6168
C16_4 C 0.09068(15) 0.36956(10) 0.55762(12)
C17_4 C 0.10888(15) 0.33262(11) 0.52717(12)
H11_3 H 0.0772 0.3223 0.4997
C18_4 C 0.17092(15) 0.31111(11) 0.53595(11)
H12_4 H 0.1817 0.2859 0.5149
H15_4 H 0.0319 0.5275 0.5644
H16_4 H 0.0168 0.6045 0.5874
C35_4 C 0.02171(15) 0.39128(11) 0.54828(12)
C36_4 C 0.01021(15) 0.43720(11) 0.56283(12)
H22_4 H 0.0473 0.4552 0.5786
C39_4 C 0.28359(15) 0.30000(10) 0.58751(11)
O9_4 O 0.48466(10) 0.28232(7) 0.61868(7)
O10_4 O 0.43527(11) 0.26075(8) 0.54441(8)
C41_4 C 0.48610(15) 0.27781(10) 0.57133(11)
O4_4 O 0.78375(15) 0.26911(11) 0.17325(9)
C1_4 C 0.54806(15) 0.29155(10) 0.54803(11)
C2_4 C 0.55099(18) 0.28690(16) 0.49742(13)
H1_4 H 0.5118 0.2760 0.4764
C3_4 C 0.60954(17) 0.29756(17) 0.47560(14)
H2_4 H 0.6098 0.2946 0.4400
C4_4 C 0.66791(15) 0.31261(11) 0.50580(11)
C5_4 C 0.66462(17) 0.31684(13) 0.55689(12)
H3_4 H 0.7040 0.3270 0.5782
C6_4 C 0.60592(17) 0.30681(13) 0.57835(13)
H4_4 H 0.6051 0.3103 0.6138
C7_4 C 0.82644(18) 0.27704(13) 0.26080(12)
C8_4 C 0.88240(16) 0.27793(12) 0.29769(12)
H5_4 H 0.9266 0.2711 0.2888
C9_4 C 0.87425(16) 0.28870(12) 0.34696(12)
H6_4 H 0.9132 0.2893 0.3717
C10_4 C 0.81029(15) 0.29870(11) 0.36156(11)
C11_4 C 0.75448(17) 0.29698(14) 0.32419(12)
H7_4 H 0.7101 0.3032 0.3330
C12_4 C 0.76243(17) 0.28646(14) 0.27508(13)
H8_4 H 0.7235 0.2856 0.2503
C19_4 C 0.91701(15) 0.60212(11) 0.59151(12)
C20_4 C 0.93556(15) 0.50760(11) 0.56851(12)
C21_4 C 0.8616(3) 0.5706(2) 0.5901(3)
H13_4 H 0.8180 0.5817 0.5966
C22_4 C 0.8705(3) 0.5230(2) 0.5793(2)
H14_4 H 0.8337 0.5015 0.5792
C23_4 C 0.9881(3) 0.5379(2) 0.5712(3)
C24_4 C 0.9783(3) 0.5842(2) 0.5839(3)
C25_4 C 0.80229(15) 0.31339(11) 0.41407(11)
C26_4 C 0.85414(15) 0.33879(11) 0.44208(11)
H17_4 H 0.8960 0.3439 0.4285
C27_4 C 0.84542(15) 0.35657(10) 0.48935(11)
C28_4 C 0.78396(14) 0.34923(10) 0.50942(11)
H18_4 H 0.7773 0.3626 0.5412
C29_4 C 0.73235(15) 0.32244(11) 0.48309(11)
C30_4 C 0.74228(15) 0.30489(12) 0.43564(11)
H19_4 H 0.7073 0.2866 0.4174
C31_4 C 0.94526(15) 0.45753(10) 0.55478(11)
C32_4 C 0.89133(15) 0.43043(10) 0.53271(11)
H20_4 H 0.8465 0.4432 0.5283
C33_4 C 0.90205(14) 0.38489(11) 0.51700(11)
C34_4 C 0.96704(14) 0.36576(11) 0.52471(11)
H21_4 H 0.9743 0.3347 0.5137
C38_4 C 0.8347(2) 0.26841(13) 0.20611(13)
O1 O 0.01534(10) 0.21768(7) 0.38132(7)
O2 O 0.06473(11) 0.23925(8) 0.45559(8)
C37 C 0.01390(15) 0.22219(10) 0.42867(11)
In3 In 0.114160(9) 0.256380(7) 0.384820(7)
O3_3 O 0.60546(14) 0.23873(9) 0.80492(9)
O4_5 O 0.71625(15) 0.23089(11) 0.82675(9)
O5_5 O 0.16829(10) 0.18432(7) 0.38208(8)
O6_5 O 0.21156(10) 0.24032(7) 0.43216(8)
C1_5 C 0.95194(15) 0.20845(10) 0.45197(11)
C2_5 C 0.94901(18) 0.21310(16) 0.50258(13)
H1_5 H 0.9882 0.2240 0.5236
C3_5 C 0.89046(17) 0.20244(17) 0.52440(14)
H2_5 H 0.8902 0.2054 0.5600
C4_5 C 0.83209(15) 0.18739(11) 0.49420(11)
C5_5 C 0.83538(17) 0.18316(13) 0.44311(12)
H3_5 H 0.7960 0.1730 0.4218
C6_5 C 0.89408(17) 0.19319(13) 0.42165(13)
H4_5 H 0.8949 0.1897 0.3862
C7_5 C 0.67356(18) 0.22296(13) 0.73920(12)
C8_5 C 0.61760(16) 0.22207(12) 0.70231(12)
H5_5 H 0.5734 0.2289 0.7112
C9_5 C 0.62575(16) 0.21130(12) 0.65304(12)
H6_5 H 0.5868 0.2107 0.6283
C10_5 C 0.68971(15) 0.20130(11) 0.63844(11)
C11_5 C 0.74552(17) 0.20302(14) 0.67581(12)
H7_5 H 0.7899 0.1968 0.6670
C12_5 C 0.73757(17) 0.21354(14) 0.72492(13)
H8_5 H 0.7765 0.2144 0.7497
C13_5 C 0.28174(14) 0.17410(10) 0.42448(12)
C14_5 C 0.29749(16) 0.13626(12) 0.39542(13)
H9_5 H 0.2645 0.1247 0.3694
C15_5 C 0.36097(16) 0.11502(12) 0.40399(14)
H10_5 H 0.3714 0.0895 0.3832
C16_5 C 0.40932(15) 0.13044(10) 0.44238(12)
C17_5 C 0.39112(15) 0.16738(11) 0.47283(12)
H11_4 H 0.4228 0.1777 0.5003
C18_5 C 0.32908(15) 0.18889(11) 0.46405(11)
H12_5 H 0.3183 0.2141 0.4851
C25_5 C 0.69771(15) 0.18661(11) 0.58593(11)
C26_5 C 0.64586(15) 0.16121(11) 0.55792(11)
H17_5 H 0.6040 0.1561 0.5715
C27_5 C 0.65458(15) 0.14343(10) 0.51065(11)
C28_5 C 0.71604(14) 0.15077(10) 0.49058(11)
H18_5 H 0.7227 0.1374 0.4588
C29_5 C 0.76765(15) 0.17756(11) 0.51691(11)
C30_5 C 0.75772(15) 0.19511(12) 0.56436(11)
H19_5 H 0.7927 0.2134 0.5826
C31_5 C 0.55474(15) 0.04247(10) 0.44522(11)
C32_5 C 0.60867(15) 0.06957(10) 0.46729(11)
H20_5 H 0.6535 0.0568 0.4717
C33_5 C 0.59795(14) 0.11511(11) 0.48300(11)
C34_5 C 0.53296(14) 0.13424(11) 0.47529(11)
H21_5 H 0.5257 0.1653 0.4863
C35_5 C 0.47829(15) 0.10872(11) 0.45172(12)
C36_5 C 0.48979(15) 0.06280(11) 0.43717(12)
H22_5 H 0.4527 0.0448 0.4214
C38_5 C 0.6653(2) 0.23159(13) 0.79389(13)
C39_5 C 0.21641(15) 0.20000(10) 0.41249(11)
In2_3 In 0.614160(9) 0.243620(7) 0.884820(7)
O11_3 O 0.10546(14) 0.26127(9) 0.30492(9)
O12_3 O 0.15106(11) 0.32923(8) 0.40397(10)
O13_3 O 0.04184(12) 0.32147(8) 0.38494(11)
C42_3 C 0.09216(17) 0.34691(11) 0.39827(12)
O7_3 O 0.65106(11) 0.82923(8) 0.40397(10)
O8_3 O 0.54184(12) 0.82147(8) 0.38494(11)
C19_5 C 0.58299(15) 0.89788(11) 0.40849(12)
C20_5 C 0.56444(15) 0.99240(11) 0.43149(12)
C21_5 C 0.6384(3) 0.9294(2) 0.4099(3)
H13_5 H 0.6820 0.9183 0.4034
C22_5 C 0.6295(3) 0.9770(2) 0.4207(2)
H14_5 H 0.6663 0.9985 0.4208
C23_5 C 0.5119(3) 0.9621(2) 0.4288(3)
H15_5 H 0.4681 0.9725 0.4356
C24_5 C 0.5217(3) 0.9158(2) 0.4161(3)
H16_5 H 0.4832 0.8955 0.4126
C40_3 C 0.59216(17) 0.84691(11) 0.39827(12)
In4_2 In 0.614160(9) 0.756380(7) 0.384820(7)
O1_2 O 0.51534(10) 0.71768(7) 0.38132(7)
O2_2 O 0.56473(11) 0.73925(8) 0.45559(8)
O3_4 O 0.10546(14) 0.73873(9) 0.80492(9)
O4_6 O 0.21625(15) 0.73089(11) 0.82675(9)
C1_6 C 0.45194(15) 0.70845(10) 0.45197(11)
C2_6 C 0.44901(18) 0.71310(16) 0.50258(13)
H1_6 H 0.4882 0.7240 0.5236
C3_6 C 0.39046(17) 0.70244(17) 0.52440(14)
H2_6 H 0.3902 0.7054 0.5600
C4_6 C 0.33209(15) 0.68739(11) 0.49420(11)
C5_6 C 0.33538(17) 0.68316(13) 0.44311(12)
H3_6 H 0.2960 0.6730 0.4218
C6_6 C 0.39408(17) 0.69319(13) 0.42165(13)
H4_6 H 0.3949 0.6897 0.3862
C7_6 C 0.17356(18) 0.72296(13) 0.73920(12)
C8_6 C 0.11760(16) 0.72207(12) 0.70231(12)
H5_6 H 0.0734 0.7289 0.7112
C9_6 C 0.12575(16) 0.71130(12) 0.65304(12)
H6_6 H 0.0868 0.7107 0.6283
C10_6 C 0.18971(15) 0.70130(11) 0.63844(11)
C11_6 C 0.24552(17) 0.70302(14) 0.67581(12)
H7_6 H 0.2899 0.6968 0.6670
C12_6 C 0.23757(17) 0.71354(14) 0.72492(13)
H8_6 H 0.2765 0.7144 0.7497
C19_6 C 0.08299(15) 0.39788(11) 0.40849(12)
C20_6 C 0.06444(15) 0.49240(11) 0.43149(12)
C21_6 C 0.1384(3) 0.4294(2) 0.4099(3)
H13_6 H 0.1820 0.4183 0.4034
C22_6 C 0.1295(3) 0.4770(2) 0.4207(2)
H14_6 H 0.1663 0.4985 0.4208
C23_6 C 0.0119(3) 0.4621(2) 0.4288(3)
C24_6 C 0.0217(3) 0.4158(2) 0.4161(3)
C25_6 C 0.19771(15) 0.68661(11) 0.58593(11)
C26_6 C 0.14586(15) 0.66121(11) 0.55792(11)
H17_6 H 0.1040 0.6561 0.5715
C27_6 C 0.15458(15) 0.64343(10) 0.51065(11)
C28_6 C 0.21604(14) 0.65077(10) 0.49058(11)
H18_6 H 0.2227 0.6374 0.4588
C29_6 C 0.26765(15) 0.67756(11) 0.51691(11)
C30_6 C 0.25772(15) 0.69511(12) 0.56436(11)
H19_6 H 0.2927 0.7134 0.5826
C31_6 C 0.05474(15) 0.54247(10) 0.44522(11)
C32_6 C 0.10867(15) 0.56957(10) 0.46729(11)
H20_6 H 0.1535 0.5568 0.4717
C33_6 C 0.09795(14) 0.61511(11) 0.48300(11)
C34_6 C 0.03296(14) 0.63424(11) 0.47529(11)
H21_6 H 0.0257 0.6653 0.4863
C37_2 C 0.51390(15) 0.72219(10) 0.42867(11)
C38_6 C 0.1653(2) 0.73159(13) 0.79389(13)
In2_4 In 0.114160(9) 0.743620(7) 0.884820(7)
O5_6 O 0.66829(10) 0.68432(7) 0.38208(8)
O6_6 O 0.71156(10) 0.74032(7) 0.43216(8)
C13_6 C 0.78174(14) 0.67410(10) 0.42448(12)
C14_6 C 0.79749(16) 0.63626(12) 0.39542(13)
H9_6 H 0.7645 0.6247 0.3694
C15_6 C 0.86097(16) 0.61502(12) 0.40399(14)
H10_6 H 0.8714 0.5895 0.3832
C16_6 C 0.90932(15) 0.63044(10) 0.44238(12)
C17_6 C 0.89112(15) 0.66738(11) 0.47283(12)
H11_5 H 0.9228 0.6777 0.5003
C18_6 C 0.82908(15) 0.68889(11) 0.46405(11)
H12_6 H 0.8183 0.7141 0.4851
H15_6 H 0.9681 0.4725 0.4356
H16_6 H 0.9832 0.3955 0.4126
C35_6 C 0.97829(15) 0.60872(11) 0.45172(12)
C36_6 C 0.98979(15) 0.56280(11) 0.43717(12)
H22_6 H 0.9527 0.5448 0.4214
C39_6 C 0.71641(15) 0.70000(10) 0.41249(11)
O11_4 O 0.60546(14) 0.76127(9) 0.30492(9)
O1_3 O 0.01534(10) 0.78232(7) 0.88132(7)
O2_3 O 0.06473(11) 0.76075(8) 0.95559(8)
C37_3 C 0.01390(15) 0.77781(10) 0.92867(11)
O7_4 O 0.65106(11) 0.17077(8) 0.90397(10)
O8_4 O 0.54184(12) 0.17853(8) 0.88494(11)
C19_7 C 0.58299(15) 0.10212(11) 0.90849(12)
C20_7 C 0.56444(15) 0.00760(11) 0.93149(12)
C21_7 C 0.6384(3) 0.0706(2) 0.9099(3)
H13_7 H 0.6820 0.0817 0.9034
C22_7 C 0.6295(3) 0.0230(2) 0.9207(2)
H14_7 H 0.6663 0.0015 0.9208
C23_7 C 0.5119(3) 0.0379(2) 0.9288(3)
H15_7 H 0.4681 0.0275 0.9356
C24_7 C 0.5217(3) 0.0842(2) 0.9161(3)
H16_7 H 0.4832 0.1045 0.9126
C40_4 C 0.59216(17) 0.15309(11) 0.89827(12)
O4_7 O 0.71625(15) 0.76911(11) 0.32675(9)
C2_7 C 0.94901(18) 0.78690(16) 0.00258(13)
H1_7 H 0.9882 0.7760 0.0236
C3_7 C 0.89046(17) 0.79756(17) 0.02440(14)
H2_7 H 0.8902 0.7946 0.0600
C7_7 C 0.67356(18) 0.77704(13) 0.23920(12)
C8_7 C 0.61760(16) 0.77793(12) 0.20231(12)
H5_7 H 0.5734 0.7711 0.2112
C9_7 C 0.62575(16) 0.78870(12) 0.15304(12)
H6_7 H 0.5868 0.7893 0.1283
C10_7 C 0.68971(15) 0.79870(11) 0.13844(11)
C11_7 C 0.74552(17) 0.79698(14) 0.17581(12)
H7_7 H 0.7899 0.8032 0.1670
C12_7 C 0.73757(17) 0.78646(14) 0.22492(13)
H8_7 H 0.7765 0.7856 0.2497
H11_6 H 0.4228 0.8223 0.0003
C25_7 C 0.69771(15) 0.81339(11) 0.08593(11)
C26_7 C 0.64586(15) 0.83879(11) 0.05792(11)
H17_7 H 0.6040 0.8439 0.0715
C27_7 C 0.65458(15) 0.85657(10) 0.01065(11)
C29_7 C 0.76765(15) 0.82244(11) 0.01691(11)
C30_7 C 0.75772(15) 0.80489(12) 0.06436(11)
H19_7 H 0.7927 0.7866 0.0826
C38_7 C 0.6653(2) 0.76841(13) 0.29389(13)
O5_7 O 0.16829(10) 0.81568(7) 0.88208(8)
O6_7 O 0.21156(10) 0.75968(7) 0.93216(8)
C1_7 C 0.95194(15) 0.79155(10) 0.95197(11)
C4_7 C 0.83209(15) 0.81261(11) 0.99420(11)
C5_7 C 0.83538(17) 0.81684(13) 0.94311(12)
H3_7 H 0.7960 0.8270 0.9218
C6_7 C 0.89408(17) 0.80681(13) 0.92165(13)
H4_7 H 0.8949 0.8103 0.8862
C13_7 C 0.28174(14) 0.82590(10) 0.92448(12)
C14_7 C 0.29749(16) 0.86374(12) 0.89542(13)
H9_7 H 0.2645 0.8753 0.8694
C15_7 C 0.36097(16) 0.88498(12) 0.90399(14)
H10_7 H 0.3714 0.9105 0.8832
C16_7 C 0.40932(15) 0.86956(10) 0.94238(12)
C17_7 C 0.39112(15) 0.83262(11) 0.97283(12)
C18_7 C 0.32908(15) 0.81111(11) 0.96405(11)
H12_7 H 0.3183 0.7859 0.9851
C28_7 C 0.71604(14) 0.84923(10) 0.99058(11)
H18_7 H 0.7227 0.8626 0.9588
C31_7 C 0.55474(15) 0.95753(10) 0.94522(11)
C32_7 C 0.60867(15) 0.93043(10) 0.96729(11)
H20_7 H 0.6535 0.9432 0.9717
C33_7 C 0.59795(14) 0.88489(11) 0.98300(11)
C34_7 C 0.53296(14) 0.86576(11) 0.97529(11)
H21_7 H 0.5257 0.8347 0.9863
C35_7 C 0.47829(15) 0.89128(11) 0.95172(12)
C36_7 C 0.48979(15) 0.93720(11) 0.93717(12)
H22_7 H 0.4527 0.9552 0.9214
C39_7 C 0.21641(15) 0.80000(10) 0.91249(11)
O12_4 O 0.15106(11) 0.67077(8) 0.90397(10)
O13_4 O 0.04184(12) 0.67853(8) 0.88494(11)
C42_4 C 0.09216(17) 0.65309(11) 0.89827(12)
O4_8 O 0.21625(15) 0.26911(11) 0.32675(9)
C2_8 C 0.44901(18) 0.28690(16) 0.00258(13)
H1_8 H 0.4882 0.2760 0.0236
C3_8 C 0.39046(17) 0.29756(17) 0.02440(14)
H2_8 H 0.3902 0.2946 0.0600
C7_8 C 0.17356(18) 0.27704(13) 0.23920(12)
C8_8 C 0.11760(16) 0.27793(12) 0.20231(12)
H5_8 H 0.0734 0.2711 0.2112
C9_8 C 0.12575(16) 0.28870(12) 0.15304(12)
H6_8 H 0.0868 0.2893 0.1283
C10_8 C 0.18971(15) 0.29870(11) 0.13844(11)
C11_8 C 0.24552(17) 0.29698(14) 0.17581(12)
H7_8 H 0.2899 0.3032 0.1670
C12_8 C 0.23757(17) 0.28646(14) 0.22492(13)
H8_8 H 0.2765 0.2856 0.2497
C25_8 C 0.19771(15) 0.31339(11) 0.08593(11)
C26_8 C 0.14586(15) 0.33879(11) 0.05792(11)
H17_8 H 0.1040 0.3439 0.0715
C27_8 C 0.15458(15) 0.35657(10) 0.01065(11)
C29_8 C 0.26765(15) 0.32244(11) 0.01691(11)
C30_8 C 0.25772(15) 0.30489(12) 0.06436(11)
H19_8 H 0.2927 0.2866 0.0826
C38_8 C 0.1653(2) 0.26841(13) 0.29389(13)
O1_4 O 0.51534(10) 0.28232(7) 0.88132(7)
O2_4 O 0.56473(11) 0.26075(8) 0.95559(8)
C1_8 C 0.45194(15) 0.29155(10) 0.95197(11)
C4_8 C 0.33209(15) 0.31261(11) 0.99420(11)
C5_8 C 0.33538(17) 0.31684(13) 0.94311(12)
H3_8 H 0.2960 0.3270 0.9218
C6_8 C 0.39408(17) 0.30681(13) 0.92165(13)
H4_8 H 0.3949 0.3103 0.8862
C19_8 C 0.08299(15) 0.60212(11) 0.90849(12)
C20_8 C 0.06444(15) 0.50760(11) 0.93149(12)
C21_8 C 0.1384(3) 0.5706(2) 0.9099(3)
H13_8 H 0.1820 0.5817 0.9034
C22_8 C 0.1295(3) 0.5230(2) 0.9207(2)
H14_8 H 0.1663 0.5015 0.9208
C23_8 C 0.0119(3) 0.5379(2) 0.9288(3)
C24_8 C 0.0217(3) 0.5842(2) 0.9161(3)
C28_8 C 0.21604(14) 0.34923(10) 0.99058(11)
H18_8 H 0.2227 0.3626 0.9588
C31_8 C 0.05474(15) 0.45753(10) 0.94522(11)
C32_8 C 0.10867(15) 0.43043(10) 0.96729(11)
H20_8 H 0.1535 0.4432 0.9717
C33_8 C 0.09795(14) 0.38489(11) 0.98300(11)
C34_8 C 0.03296(14) 0.36576(11) 0.97529(11)
H21_8 H 0.0257 0.3347 0.9863
C37_4 C 0.51390(15) 0.27781(10) 0.92867(11)
O5_8 O 0.66829(10) 0.31568(7) 0.88208(8)
O6_8 O 0.71156(10) 0.25968(7) 0.93216(8)
C13_8 C 0.78174(14) 0.32590(10) 0.92448(12)
C14_8 C 0.79749(16) 0.36374(12) 0.89542(13)
H9_8 H 0.7645 0.3753 0.8694
C15_8 C 0.86097(16) 0.38498(12) 0.90399(14)
H10_8 H 0.8714 0.4105 0.8832
C16_8 C 0.90932(15) 0.36956(10) 0.94238(12)
C17_8 C 0.89112(15) 0.33262(11) 0.97283(12)
C18_8 C 0.82908(15) 0.31111(11) 0.96405(11)
H12_8 H 0.8183 0.2859 0.9851
H15_8 H 0.9681 0.5275 0.9356
H16_8 H 0.9832 0.6045 0.9126
C35_8 C 0.97829(15) 0.39128(11) 0.95172(12)
C36_8 C 0.98979(15) 0.43720(11) 0.93717(12)
H22_8 H 0.9527 0.4552 0.9214
C39_8 C 0.71641(15) 0.30000(10) 0.91249(11)
H11_7 H 0.0772 0.6777 0.9997
H11_8 H 0.9228 0.3223 0.0003
N1 N 0.69497(19) 0.31668(13) 0.09310(14)
H23 H 0.7066 0.3417 0.1142
H24 H 0.7315 0.2964 0.0957
C43 C 0.6816(3) 0.33341(18) 0.04099(18)
H25 H 0.7222 0.3495 0.0316
H26 H 0.6430 0.3552 0.0381
H27 H 0.6707 0.3067 0.0182
C44 C 0.6347(4) 0.2924(3) 0.1099(3)
H28 H 0.6465 0.2804 0.1444
H29 H 0.6214 0.2662 0.0869
H30 H 0.5966 0.3145 0.1094
N1_2 N 0.30503(19) 0.31668(13) 0.40690(14)
H23_2 H 0.2934 0.3417 0.3858
H24_2 H 0.2685 0.2964 0.4043
C43_2 C 0.3184(3) 0.33341(18) 0.45901(18)
H25_2 H 0.2778 0.3495 0.4684
H26_2 H 0.3570 0.3552 0.4619
H27_2 H 0.3293 0.3067 0.4818
C44_2 C 0.3653(4) 0.2924(3) 0.3901(3)
H28_2 H 0.3535 0.2804 0.3556
H29_2 H 0.3786 0.2662 0.4131
H30_2 H 0.4034 0.3145 0.3906
N1_3 N 0.19497(19) 0.81668(13) 0.09310(14)
H23_3 H 0.2066 0.8417 0.1142
H24_3 H 0.2315 0.7964 0.0957
C43_3 C 0.1816(3) 0.83341(18) 0.04099(18)
H25_3 H 0.2222 0.8495 0.0316
H26_3 H 0.1430 0.8552 0.0381
H27_3 H 0.1707 0.8067 0.0182
C44_3 C 0.1347(4) 0.7924(3) 0.1099(3)
H28_3 H 0.1465 0.7804 0.1444
H29_3 H 0.1214 0.7662 0.0869
H30_3 H 0.0966 0.8145 0.1094
N1_4 N 0.80503(19) 0.81668(13) 0.40690(14)
H23_4 H 0.7934 0.8417 0.3858
H24_4 H 0.7685 0.7964 0.4043
C43_4 C 0.8184(3) 0.83341(18) 0.45901(18)
H25_4 H 0.7778 0.8495 0.4684
H26_4 H 0.8570 0.8552 0.4619
H27_4 H 0.8293 0.8067 0.4818
C44_4 C 0.8653(4) 0.7924(3) 0.3901(3)
H28_4 H 0.8535 0.7804 0.3556
H29_4 H 0.8786 0.7662 0.4131
H30_4 H 0.9034 0.8145 0.3906
N1_5 N 0.30503(19) 0.68332(13) 0.90690(14)
H23_5 H 0.2934 0.6583 0.8858
H24_5 H 0.2685 0.7036 0.9043
C43_5 C 0.3184(3) 0.66659(18) 0.95901(18)
H25_5 H 0.2778 0.6505 0.9684
H26_5 H 0.3570 0.6448 0.9619
H27_5 H 0.3293 0.6933 0.9818
C44_5 C 0.3653(4) 0.7076(3) 0.8901(3)
H28_5 H 0.3535 0.7196 0.8556
H29_5 H 0.3786 0.7338 0.9131
H30_5 H 0.4034 0.6855 0.8906
N1_6 N 0.69497(19) 0.68332(13) 0.59310(14)
H23_6 H 0.7066 0.6583 0.6142
H24_6 H 0.7315 0.7036 0.5957
C43_6 C 0.6816(3) 0.66659(18) 0.54099(18)
H25_6 H 0.7222 0.6505 0.5316
H26_6 H 0.6430 0.6448 0.5381
H27_6 H 0.6707 0.6933 0.5182
C44_6 C 0.6347(4) 0.7076(3) 0.6099(3)
H28_6 H 0.6465 0.7196 0.6444
H29_6 H 0.6214 0.7338 0.5869
H30_6 H 0.5966 0.6855 0.6094
N1_7 N 0.80503(19) 0.18332(13) 0.90690(14)
H23_7 H 0.7934 0.1583 0.8858
H24_7 H 0.7685 0.2036 0.9043
C43_7 C 0.8184(3) 0.16659(18) 0.95901(18)
H25_7 H 0.7778 0.1505 0.9684
H26_7 H 0.8570 0.1448 0.9619
H27_7 H 0.8293 0.1933 0.9818
C44_7 C 0.8653(4) 0.2076(3) 0.8901(3)
H28_7 H 0.8535 0.2196 0.8556
H29_7 H 0.8786 0.2338 0.9131
H30_7 H 0.9034 0.1855 0.8906
N1_8 N 0.19497(19) 0.18332(13) 0.59310(14)
H23_8 H 0.2066 0.1583 0.6142
H24_8 H 0.2315 0.2036 0.5957
C43_8 C 0.1816(3) 0.16659(18) 0.54099(18)
H25_8 H 0.2222 0.1505 0.5316
H26_8 H 0.1430 0.1448 0.5381
H27_8 H 0.1707 0.1933 0.5182
C44_8 C 0.1347(4) 0.2076(3) 0.6099(3)
H28_8 H 0.1465 0.2196 0.6444
H29_8 H 0.1214 0.2338 0.5869
H30_8 H 0.0966 0.1855 0.6094
loop_
_geom_bond_atom_site_label_1
_geom_bond_atom_site_label_2
_geom_bond_site_symmetry_1
_geom_bond_site_symmetry_2
In1 O5 1_555 1_555
O5 C39 1_555 1_555
O6 In1 1_555 1_555
C5 C4 1_555 1_555
H3 C5 1_555 1_555
C6 C1 1_555 1_555
H4 C6 1_555 1_555
C13 C14 1_555 1_555
C14 H9 1_555 1_555
C15 C14 1_555 1_555
H10 C15 1_555 1_555
C16 C15 1_555 1_555
C17 C16 1_555 1_555
C18 C13 1_555 1_555
H12 C18 1_555 1_555
H18 C28 1_555 1_555
C32 C31 1_555 1_555
H20 C32 1_555 1_555
C34 C33 1_555 1_555
H21 C34 1_555 1_555
C35 C16 1_555 1_555
C36 C31 1_555 1_555
H22 C36 1_555 1_555
C39 O6 1_555 1_555
O9 In1 1_555 1_555
O10 In1 1_555 1_555
O11 In1 1_555 1_555
O12 In1 1_555 1_555
O13 In1 1_555 1_555
C41 O9 1_555 1_555
C42 O12 1_555 1_555
C5 C6 1_555 1_555
C13 C39 1_555 1_555
C17 C18 1_555 1_555
C32 C33 1_555 1_555
C34 C35 1_555 1_555
C35 C36 1_555 1_555
O10 C41 1_555 1_555
O13 C42 1_555 1_555
O3 C38 1_555 1_555
O4 C38 1_555 1_555
C2 H1 1_555 1_555
C3 C2 1_555 1_555
H2 C3 1_555 1_555
C7 C8 1_555 1_555
C8 H5 1_555 1_555
C9 C8 1_555 1_555
H6 C9 1_555 1_555
C10 C9 1_555 1_555
C11 C10 1_555 1_555
H7 C11 1_555 1_555
C12 C7 1_555 1_555
H8 C12 1_555 1_555
C25 C10 1_555 1_555
C26 C25 1_555 1_555
H17 C26 1_555 1_555
C27 C26 1_555 1_555
C30 C25 1_555 1_555
H19 C30 1_555 1_555
C38 C7 1_555 1_555
In2 O3 1_555 1_555
C11 C12 1_555 1_555
C29 C30 1_555 1_555
O7 C40 1_555 1_555
O8 C40 1_555 1_555
C19 C21 1_555 1_555
C20 C22 1_555 1_555
C21 H13 1_555 1_555
C22 C21 1_555 1_555
H14 C22 1_555 1_555
C23 C20 1_555 1_555
H15 C23 1_555 1_555
C24 C19 1_555 1_555
H16 C24 1_555 1_555
C40 C19 1_555 1_555
In4 O7 1_555 1_555
O8 In4 1_555 1_555
C23 C24 1_555 1_555
In4 O5_2 1_555 1_555
O5_2 C39_2 1_555 1_555
O6_2 In4 1_555 1_555
C13_2 C14_2 1_555 1_555
C14_2 H9_2 1_555 1_555
C15_2 C14_2 1_555 1_555
H10_2 C15_2 1_555 1_555
C16_2 C15_2 1_555 1_555
C17_2 C16_2 1_555 1_555
C18_2 C13_2 1_555 1_555
H12_2 C18_2 1_555 1_555
C35_2 C16_2 1_555 1_555
H22_2 C36_2 1_555 1_555
C39_2 O6_2 1_555 1_555
O9_2 In4 1_555 1_555
O10_2 In4 1_555 1_555
O11_2 In4 1_555 1_555
C41_2 O9_2 1_555 1_555
C13_2 C39_2 1_555 1_555
C17_2 C18_2 1_555 1_555
C35_2 C36_2 1_555 1_555
O10_2 C41_2 1_555 1_555
C5_2 C4_2 1_555 1_555
H3_2 C5_2 1_555 1_555
C6_2 C1_2 1_555 1_555
H4_2 C6_2 1_555 1_555
C19_2 C21_2 1_555 1_555
C20_2 C22_2 1_555 1_555
C21_2 H13_2 1_555 1_555
C22_2 C21_2 1_555 1_555
H14_2 C22_2 1_555 1_555
C23_2 C20_2 1_555 1_555
C24_2 C19_2 1_555 1_555
H18_2 C28_2 1_555 1_555
C31_2 C20_2 1_555 1_555
C32_2 C31_2 1_555 1_555
H20_2 C32_2 1_555 1_555
C34_2 C33_2 1_555 1_555
H21_2 C34_2 1_555 1_555
C41_2 C1_2 1_555 1_555
C42 C19_2 1_555 1_555
C5_2 C6_2 1_555 1_555
C23_2 C24_2 1_555 1_555
C32_2 C33_2 1_555 1_555
O3_2 C38_2 1_555 1_555
O4_2 C38_2 1_555 1_555
C2_2 H1_2 1_555 1_555
C3_2 C2_2 1_555 1_555
H2_2 C3_2 1_555 1_555
C7_2 C8_2 1_555 1_555
C8_2 H5_2 1_555 1_555
C9_2 C8_2 1_555 1_555
H6_2 C9_2 1_555 1_555
C10_2 C9_2 1_555 1_555
C11_2 C10_2 1_555 1_555
H7_2 C11_2 1_555 1_555
C12_2 C7_2 1_555 1_555
H8_2 C12_2 1_555 1_555
C25_2 C10_2 1_555 1_555
C26_2 C25_2 1_555 1_555
H17_2 C26_2 1_555 1_555
C27_2 C26_2 1_555 1_555
C30_2 C25_2 1_555 1_555
H19_2 C30_2 1_555 1_555
C38_2 C7_2 1_555 1_555
In2_2 O3_2 1_555 1_555
C11_2 C12_2 1_555 1_555
C29_2 C30_2 1_555 1_555
O7_2 C40_2 1_555 1_555
O8_2 C40_2 1_555 1_555
C19_3 C21_3 1_555 1_555
C20_3 C22_3 1_555 1_555
C21_3 H13_3 1_555 1_555
C22_3 C21_3 1_555 1_555
H14_3 C22_3 1_555 1_555
C23_3 C20_3 1_555 1_555
H15_3 C23_3 1_555 1_555
C24_3 C19_3 1_555 1_555
H16_3 C24_3 1_555 1_555
C40_2 C19_3 1_555 1_555
In2 O7_2 1_555 1_555
O8_2 In2 1_555 1_555
C23_3 C24_3 1_555 1_555
In2_2 O5_3 1_555 1_555
O11_2 C38_3 1_555 1_555
O4_3 C38_3 1_555 1_555
O5_3 C39_3 1_555 1_555
O6_3 In2_2 1_555 1_555
C1_3 C2_3 1_555 1_555
C2_3 H1_3 1_555 1_555
C3_3 C2_3 1_555 1_555
H2_3 C3_3 1_555 1_555
C4_3 C3_3 1_555 1_555
C5_3 C4_3 1_555 1_555
H3_3 C5_3 1_555 1_555
C6_3 C1_3 1_555 1_555
H4_3 C6_3 1_555 1_555
C7_3 C8_3 1_555 1_555
C8_3 H5_3 1_555 1_555
C9_3 C8_3 1_555 1_555
H6_3 C9_3 1_555 1_555
C10_3 C9_3 1_555 1_555
C11_3 C10_3 1_555 1_555
H7_3 C11_3 1_555 1_555
C12_3 C7_3 1_555 1_555
H8_3 C12_3 1_555 1_555
C13_3 C14_3 1_555 1_555
C14_3 H9_3 1_555 1_555
C15_3 C14_3 1_555 1_555
H10_3 C15_3 1_555 1_555
C16_3 C15_3 1_555 1_555
C17_3 C16_3 1_555 1_555
H11_2 C17_3 1_555 1_555
C18_3 C13_3 1_555 1_555
H12_3 C18_3 1_555 1_555
C25_3 C10_3 1_555 1_555
C26_3 C25_3 1_555 1_555
H17_3 C26_3 1_555 1_555
C27_3 C26_3 1_555 1_555
C28_3 C27_3 1_555 1_555
H18_3 C28_3 1_555 1_555
C29_3 C4_3 1_555 1_555
C30_3 C25_3 1_555 1_555
H19_3 C30_3 1_555 1_555
C32_3 C31_3 1_555 1_555
H20_3 C32_3 1_555 1_555
C33_3 C27_3 1_555 1_555
C34_3 C33_3 1_555 1_555
H21_3 C34_3 1_555 1_555
C35_3 C16_3 1_555 1_555
C36_3 C31_3 1_555 1_555
H22_3 C36_3 1_555 1_555
C38_3 C7_3 1_555 1_555
C39_3 O6_3 1_555 1_555
O9_3 In2_2 1_555 1_555
O10_3 In2_2 1_555 1_555
O12_2 In2_2 1_555 1_555
O13_2 In2_2 1_555 1_555
C41_3 O9_3 1_555 1_555
C42_2 O12_2 1_555 1_555
C5_3 C6_3 1_555 1_555
C11_3 C12_3 1_555 1_555
C13_3 C39_3 1_555 1_555
C17_3 C18_3 1_555 1_555
C28_3 C29_3 1_555 1_555
C29_3 C30_3 1_555 1_555
C32_3 C33_3 1_555 1_555
C34_3 C35_3 1_555 1_555
C35_3 C36_3 1_555 1_555
O10_3 C41_3 1_555 1_555
O13_2 C42_2 1_555 1_555
In2 O5_4 1_555 1_555
O5_4 C39_4 1_555 1_555
O6_4 In2 1_555 1_555
C13_4 C14_4 1_555 1_555
C14_4 H9_4 1_555 1_555
C15_4 C14_4 1_555 1_555
H10_4 C15_4 1_555 1_555
C16_4 C15_4 1_555 1_555
C17_4 C16_4 1_555 1_555
H11_3 C17_4 1_555 1_555
C18_4 C13_4 1_555 1_555
H12_4 C18_4 1_555 1_555
C35_4 C16_4 1_555 1_555
H22_4 C36_4 1_555 1_555
C39_4 O6_4 1_555 1_555
O9_4 In2 1_555 1_555
O10_4 In2 1_555 1_555
C41_4 O9_4 1_555 1_555
C13_4 C39_4 1_555 1_555
C17_4 C18_4 1_555 1_555
C35_4 C36_4 1_555 1_555
O10_4 C41_4 1_555 1_555
O11 C38_4 1_555 1_555
O4_4 C38_4 1_555 1_555
C1_4 C2_4 1_555 1_555
C2_4 H1_4 1_555 1_555
C3_4 C2_4 1_555 1_555
H2_4 C3_4 1_555 1_555
C4_4 C3_4 1_555 1_555
C5_4 C4_4 1_555 1_555
H3_4 C5_4 1_555 1_555
C6_4 C1_4 1_555 1_555
H4_4 C6_4 1_555 1_555
C7_4 C8_4 1_555 1_555
C8_4 H5_4 1_555 1_555
C9_4 C8_4 1_555 1_555
H6_4 C9_4 1_555 1_555
C10_4 C9_4 1_555 1_555
C11_4 C10_4 1_555 1_555
H7_4 C11_4 1_555 1_555
C12_4 C7_4 1_555 1_555
H8_4 C12_4 1_555 1_555
C19_4 C21_4 1_555 1_555
C20_4 C22_4 1_555 1_555
C21_4 H13_4 1_555 1_555
C22_4 C21_4 1_555 1_555
H14_4 C22_4 1_555 1_555
C23_4 C20_4 1_555 1_555
C24_4 C19_4 1_555 1_555
C25_4 C10_4 1_555 1_555
C26_4 C25_4 1_555 1_555
H17_4 C26_4 1_555 1_555
C27_4 C26_4 1_555 1_555
C28_4 C27_4 1_555 1_555
H18_4 C28_4 1_555 1_555
C29_4 C4_4 1_555 1_555
C30_4 C25_4 1_555 1_555
H19_4 C30_4 1_555 1_555
C31_4 C20_4 1_555 1_555
C32_4 C31_4 1_555 1_555
H20_4 C32_4 1_555 1_555
C33_4 C27_4 1_555 1_555
C34_4 C33_4 1_555 1_555
H21_4 C34_4 1_555 1_555
C41_4 C1_4 1_555 1_555
C38_4 C7_4 1_555 1_555
C42_2 C19_4 1_555 1_555
C5_4 C6_4 1_555 1_555
C11_4 C12_4 1_555 1_555
C23_4 C24_4 1_555 1_555
C28_4 C29_4 1_555 1_555
C29_4 C30_4 1_555 1_555
C32_4 C33_4 1_555 1_555
O1 C37 1_555 1_555
O2 C37 1_555 1_555
In3 O1 1_555 1_555
O2 In3 1_555 1_555
In3 O5_5 1_555 1_555
O3_3 C38_5 1_555 1_555
O4_5 C38_5 1_555 1_555
O5_5 C39_5 1_555 1_555
O6_5 In3 1_555 1_555
C1_5 C2_5 1_555 1_555
C2_5 H1_5 1_555 1_555
C3_5 C2_5 1_555 1_555
H2_5 C3_5 1_555 1_555
C4_5 C3_5 1_555 1_555
C5_5 C4_5 1_555 1_555
H3_5 C5_5 1_555 1_555
C6_5 C1_5 1_555 1_555
H4_5 C6_5 1_555 1_555
C7_5 C8_5 1_555 1_555
C8_5 H5_5 1_555 1_555
C9_5 C8_5 1_555 1_555
H6_5 C9_5 1_555 1_555
C10_5 C9_5 1_555 1_555
C11_5 C10_5 1_555 1_555
H7_5 C11_5 1_555 1_555
C12_5 C7_5 1_555 1_555
H8_5 C12_5 1_555 1_555
C13_5 C14_5 1_555 1_555
C14_5 H9_5 1_555 1_555
C15_5 C14_5 1_555 1_555
H10_5 C15_5 1_555 1_555
C16_5 C15_5 1_555 1_555
C17_5 C16_5 1_555 1_555
H11_4 C17_5 1_555 1_555
C18_5 C13_5 1_555 1_555
H12_5 C18_5 1_555 1_555
C25_5 C10_5 1_555 1_555
C26_5 C25_5 1_555 1_555
H17_5 C26_5 1_555 1_555
C27_5 C26_5 1_555 1_555
C28_5 C27_5 1_555 1_555
H18_5 C28_5 1_555 1_555
C29_5 C4_5 1_555 1_555
C30_5 C25_5 1_555 1_555
H19_5 C30_5 1_555 1_555
C32_5 C31_5 1_555 1_555
H20_5 C32_5 1_555 1_555
C33_5 C27_5 1_555 1_555
C34_5 C33_5 1_555 1_555
H21_5 C34_5 1_555 1_555
C35_5 C16_5 1_555 1_555
C36_5 C31_5 1_555 1_555
H22_5 C36_5 1_555 1_555
C38_5 C7_5 1_555 1_555
C39_5 O6_5 1_555 1_555
In2_3 O3_3 1_555 1_555
O11_3 In3 1_555 1_555
O12_3 In3 1_555 1_555
O13_3 In3 1_555 1_555
C42_3 O12_3 1_555 1_555
C5_5 C6_5 1_555 1_555
C11_5 C12_5 1_555 1_555
C13_5 C39_5 1_555 1_555
C17_5 C18_5 1_555 1_555
C28_5 C29_5 1_555 1_555
C29_5 C30_5 1_555 1_555
C32_5 C33_5 1_555 1_555
C34_5 C35_5 1_555 1_555
C35_5 C36_5 1_555 1_555
O13_3 C42_3 1_555 1_555
O7_3 C40_3 1_555 1_555
O8_3 C40_3 1_555 1_555
C19_5 C21_5 1_555 1_555
C20_5 C22_5 1_555 1_555
C21_5 H13_5 1_555 1_555
C22_5 C21_5 1_555 1_555
H14_5 C22_5 1_555 1_555
C23_5 C20_5 1_555 1_555
H15_5 C23_5 1_555 1_555
C24_5 C19_5 1_555 1_555
H16_5 C24_5 1_555 1_555
C40_3 C19_5 1_555 1_555
In4_2 O7_3 1_555 1_555
O8_3 In4_2 1_555 1_555
C23_5 C24_5 1_555 1_555
O1_2 C37_2 1_555 1_555
O2_2 C37_2 1_555 1_555
O3_4 C38_6 1_555 1_555
O4_6 C38_6 1_555 1_555
C1_6 C2_6 1_555 1_555
C2_6 H1_6 1_555 1_555
C3_6 C2_6 1_555 1_555
H2_6 C3_6 1_555 1_555
C4_6 C3_6 1_555 1_555
C5_6 C4_6 1_555 1_555
H3_6 C5_6 1_555 1_555
C6_6 C1_6 1_555 1_555
H4_6 C6_6 1_555 1_555
C7_6 C8_6 1_555 1_555
C8_6 H5_6 1_555 1_555
C9_6 C8_6 1_555 1_555
H6_6 C9_6 1_555 1_555
C10_6 C9_6 1_555 1_555
C11_6 C10_6 1_555 1_555
H7_6 C11_6 1_555 1_555
C12_6 C7_6 1_555 1_555
H8_6 C12_6 1_555 1_555
C19_6 C21_6 1_555 1_555
C20_6 C22_6 1_555 1_555
C21_6 H13_6 1_555 1_555
C22_6 C21_6 1_555 1_555
H14_6 C22_6 1_555 1_555
C23_6 C20_6 1_555 1_555
C24_6 C19_6 1_555 1_555
C25_6 C10_6 1_555 1_555
C26_6 C25_6 1_555 1_555
H17_6 C26_6 1_555 1_555
C27_6 C26_6 1_555 1_555
C28_6 C27_6 1_555 1_555
H18_6 C28_6 1_555 1_555
C29_6 C4_6 1_555 1_555
C30_6 C25_6 1_555 1_555
H19_6 C30_6 1_555 1_555
C31_6 C20_6 1_555 1_555
C32_6 C31_6 1_555 1_555
H20_6 C32_6 1_555 1_555
C33_6 C27_6 1_555 1_555
C34_6 C33_6 1_555 1_555
H21_6 C34_6 1_555 1_555
C37_2 C1_6 1_555 1_555
C38_6 C7_6 1_555 1_555
C42_3 C19_6 1_555 1_555
In2_4 O3_4 1_555 1_555
In4_2 O1_2 1_555 1_555
O2_2 In4_2 1_555 1_555
C5_6 C6_6 1_555 1_555
C11_6 C12_6 1_555 1_555
C23_6 C24_6 1_555 1_555
C28_6 C29_6 1_555 1_555
C29_6 C30_6 1_555 1_555
C32_6 C33_6 1_555 1_555
In4_2 O5_6 1_555 1_555
O5_6 C39_6 1_555 1_555
O6_6 In4_2 1_555 1_555
C13_6 C14_6 1_555 1_555
C14_6 H9_6 1_555 1_555
C15_6 C14_6 1_555 1_555
H10_6 C15_6 1_555 1_555
C16_6 C15_6 1_555 1_555
C17_6 C16_6 1_555 1_555
H11_5 C17_6 1_555 1_555
C18_6 C13_6 1_555 1_555
H12_6 C18_6 1_555 1_555
C35_6 C16_6 1_555 1_555
H22_6 C36_6 1_555 1_555
C39_6 O6_6 1_555 1_555
O11_4 In4_2 1_555 1_555
C13_6 C39_6 1_555 1_555
C17_6 C18_6 1_555 1_555
C35_6 C36_6 1_555 1_555
O1_3 C37_3 1_555 1_555
O2_3 C37_3 1_555 1_555
In2_4 O1_3 1_555 1_555
O2_3 In2_4 1_555 1_555
O7_4 C40_4 1_555 1_555
O8_4 C40_4 1_555 1_555
C19_7 C21_7 1_555 1_555
C20_7 C22_7 1_555 1_555
C21_7 H13_7 1_555 1_555
C22_7 C21_7 1_555 1_555
H14_7 C22_7 1_555 1_555
C23_7 C20_7 1_555 1_555
H15_7 C23_7 1_555 1_555
C24_7 C19_7 1_555 1_555
H16_7 C24_7 1_555 1_555
C40_4 C19_7 1_555 1_555
In2_3 O7_4 1_555 1_555
O8_4 In2_3 1_555 1_555
C23_7 C24_7 1_555 1_555
O11_4 C38_7 1_555 1_555
O4_7 C38_7 1_555 1_555
C2_7 H1_7 1_555 1_555
C3_7 C2_7 1_555 1_555
H2_7 C3_7 1_555 1_555
C7_7 C8_7 1_555 1_555
C8_7 H5_7 1_555 1_555
C9_7 C8_7 1_555 1_555
H6_7 C9_7 1_555 1_555
C10_7 C9_7 1_555 1_555
C11_7 C10_7 1_555 1_555
H7_7 C11_7 1_555 1_555
C12_7 C7_7 1_555 1_555
H8_7 C12_7 1_555 1_555
C25_7 C10_7 1_555 1_555
C26_7 C25_7 1_555 1_555
H17_7 C26_7 1_555 1_555
C27_7 C26_7 1_555 1_555
C30_7 C25_7 1_555 1_555
H19_7 C30_7 1_555 1_555
C38_7 C7_7 1_555 1_555
C11_7 C12_7 1_555 1_555
C29_7 C30_7 1_555 1_555
In2_4 O5_7 1_555 1_555
O5_7 C39_7 1_555 1_555
O6_7 In2_4 1_555 1_555
C5_7 C4_7 1_555 1_555
H3_7 C5_7 1_555 1_555
C6_7 C1_7 1_555 1_555
H4_7 C6_7 1_555 1_555
C13_7 C14_7 1_555 1_555
C14_7 H9_7 1_555 1_555
C15_7 C14_7 1_555 1_555
H10_7 C15_7 1_555 1_555
C16_7 C15_7 1_555 1_555
C17_7 C16_7 1_555 1_555
C18_7 C13_7 1_555 1_555
H12_7 C18_7 1_555 1_555
H18_7 C28_7 1_555 1_555
C32_7 C31_7 1_555 1_555
H20_7 C32_7 1_555 1_555
C34_7 C33_7 1_555 1_555
H21_7 C34_7 1_555 1_555
C35_7 C16_7 1_555 1_555
C36_7 C31_7 1_555 1_555
H22_7 C36_7 1_555 1_555
C39_7 O6_7 1_555 1_555
O12_4 In2_4 1_555 1_555
O13_4 In2_4 1_555 1_555
C42_4 O12_4 1_555 1_555
C5_7 C6_7 1_555 1_555
C13_7 C39_7 1_555 1_555
C17_7 C18_7 1_555 1_555
C32_7 C33_7 1_555 1_555
C34_7 C35_7 1_555 1_555
C35_7 C36_7 1_555 1_555
O13_4 C42_4 1_555 1_555
O11_3 C38_8 1_555 1_555
O4_8 C38_8 1_555 1_555
C2_8 H1_8 1_555 1_555
C3_8 C2_8 1_555 1_555
H2_8 C3_8 1_555 1_555
C7_8 C8_8 1_555 1_555
C8_8 H5_8 1_555 1_555
C9_8 C8_8 1_555 1_555
H6_8 C9_8 1_555 1_555
C10_8 C9_8 1_555 1_555
C11_8 C10_8 1_555 1_555
H7_8 C11_8 1_555 1_555
C12_8 C7_8 1_555 1_555
H8_8 C12_8 1_555 1_555
C25_8 C10_8 1_555 1_555
C26_8 C25_8 1_555 1_555
H17_8 C26_8 1_555 1_555
C27_8 C26_8 1_555 1_555
C30_8 C25_8 1_555 1_555
H19_8 C30_8 1_555 1_555
C38_8 C7_8 1_555 1_555
C11_8 C12_8 1_555 1_555
C29_8 C30_8 1_555 1_555
O1_4 C37_4 1_555 1_555
O2_4 C37_4 1_555 1_555
C5_8 C4_8 1_555 1_555
H3_8 C5_8 1_555 1_555
C6_8 C1_8 1_555 1_555
H4_8 C6_8 1_555 1_555
C19_8 C21_8 1_555 1_555
C20_8 C22_8 1_555 1_555
C21_8 H13_8 1_555 1_555
C22_8 C21_8 1_555 1_555
H14_8 C22_8 1_555 1_555
C23_8 C20_8 1_555 1_555
C24_8 C19_8 1_555 1_555
H18_8 C28_8 1_555 1_555
C31_8 C20_8 1_555 1_555
C32_8 C31_8 1_555 1_555
H20_8 C32_8 1_555 1_555
C34_8 C33_8 1_555 1_555
H21_8 C34_8 1_555 1_555
C37_4 C1_8 1_555 1_555
C42_4 C19_8 1_555 1_555
In2_3 O1_4 1_555 1_555
O2_4 In2_3 1_555 1_555
C5_8 C6_8 1_555 1_555
C23_8 C24_8 1_555 1_555
C32_8 C33_8 1_555 1_555
In2_3 O5_8 1_555 1_555
O5_8 C39_8 1_555 1_555
O6_8 In2_3 1_555 1_555
C13_8 C14_8 1_555 1_555
C14_8 H9_8 1_555 1_555
C15_8 C14_8 1_555 1_555
H10_8 C15_8 1_555 1_555
C16_8 C15_8 1_555 1_555
C17_8 C16_8 1_555 1_555
C18_8 C13_8 1_555 1_555
H12_8 C18_8 1_555 1_555
C35_8 C16_8 1_555 1_555
H22_8 C36_8 1_555 1_555
C39_8 O6_8 1_555 1_555
C13_8 C39_8 1_555 1_555
C17_8 C18_8 1_555 1_555
C35_8 C36_8 1_555 1_555
N1 H23 1_555 1_555
H24 N1 1_555 1_555
C43 N1 1_555 1_555
H25 C43 1_555 1_555
H26 C43 1_555 1_555
H27 C43 1_555 1_555
C44 N1 1_555 1_555
H28 C44 1_555 1_555
H29 C44 1_555 1_555
H30 C44 1_555 1_555
N1_2 H23_2 1_555 1_555
H24_2 N1_2 1_555 1_555
C43_2 N1_2 1_555 1_555
H25_2 C43_2 1_555 1_555
H26_2 C43_2 1_555 1_555
H27_2 C43_2 1_555 1_555
C44_2 N1_2 1_555 1_555
H28_2 C44_2 1_555 1_555
H29_2 C44_2 1_555 1_555
H30_2 C44_2 1_555 1_555
N1_3 H23_3 1_555 1_555
H24_3 N1_3 1_555 1_555
C43_3 N1_3 1_555 1_555
H25_3 C43_3 1_555 1_555
H26_3 C43_3 1_555 1_555
H27_3 C43_3 1_555 1_555
C44_3 N1_3 1_555 1_555
H28_3 C44_3 1_555 1_555
H29_3 C44_3 1_555 1_555
H30_3 C44_3 1_555 1_555
N1_4 H23_4 1_555 1_555
H24_4 N1_4 1_555 1_555
C43_4 N1_4 1_555 1_555
H25_4 C43_4 1_555 1_555
H26_4 C43_4 1_555 1_555
H27_4 C43_4 1_555 1_555
C44_4 N1_4 1_555 1_555
H28_4 C44_4 1_555 1_555
H29_4 C44_4 1_555 1_555
H30_4 C44_4 1_555 1_555
N1_5 H23_5 1_555 1_555
H24_5 N1_5 1_555 1_555
C43_5 N1_5 1_555 1_555
H25_5 C43_5 1_555 1_555
H26_5 C43_5 1_555 1_555
H27_5 C43_5 1_555 1_555
C44_5 N1_5 1_555 1_555
H28_5 C44_5 1_555 1_555
H29_5 C44_5 1_555 1_555
H30_5 C44_5 1_555 1_555
N1_6 H23_6 1_555 1_555
H24_6 N1_6 1_555 1_555
C43_6 N1_6 1_555 1_555
H25_6 C43_6 1_555 1_555
H26_6 C43_6 1_555 1_555
H27_6 C43_6 1_555 1_555
C44_6 N1_6 1_555 1_555
H28_6 C44_6 1_555 1_555
H29_6 C44_6 1_555 1_555
H30_6 C44_6 1_555 1_555
N1_7 H23_7 1_555 1_555
H24_7 N1_7 1_555 1_555
C43_7 N1_7 1_555 1_555
H25_7 C43_7 1_555 1_555
H26_7 C43_7 1_555 1_555
H27_7 C43_7 1_555 1_555
C44_7 N1_7 1_555 1_555
H28_7 C44_7 1_555 1_555
H29_7 C44_7 1_555 1_555
H30_7 C44_7 1_555 1_555
N1_8 H23_8 1_555 1_555
H24_8 N1_8 1_555 1_555
C43_8 N1_8 1_555 1_555
H25_8 C43_8 1_555 1_555
H26_8 C43_8 1_555 1_555
H27_8 C43_8 1_555 1_555
C44_8 N1_8 1_555 1_555
H28_8 C44_8 1_555 1_555
H29_8 C44_8 1_555 1_555
H30_8 C44_8 1_555 1_555

#END
