
###############################################################################
#
# This file contains modified crystal structure data generated from the
# MOF subset of the Cambridge Structural Database (CSD) v543 
# hosted by the Cambridge Crystallographic Data Centre (CCDC).
#
# This work is licensed under the Creative Commons
# Attribution-NonCommercial-ShareAlike 4.0 International License.
# To view a copy of this license, visit
# http://creativecommons.org/licenses/by-nc-sa/4.0/
# or send a letter to
# Creative Commons, PO Box 1866, Mountain View, CA 94042, USA.
#
# CIF created using the CSD Python API on 29 September 2022
# The structure has been converted into the P1 space group
# The structure has a 3D framework
# The original CSD entry GEBCAT is in the tetragonal crystal system
# The framework has been calculated to contain at least 10.0% void space
# The void calculation uses a probe of radius 1.32A, grid spacing 0.4
#
###############################################################################

data_GEBCAT
_chemical_formula_moiety         '(C96 H112 Co17 K8 O120)n'
_symmetry_cell_setting           triclinic
_symmetry_space_group_name_H-M   'P 1'
_symmetry_Int_Tables_number      1
_space_group_name_Hall           'P 1'
loop_
_symmetry_equiv_pos_site_id
_symmetry_equiv_pos_as_xyz
1 x,y,z
_cell_length_a                   13.1927(30)
_cell_length_b                   13.1927(30)
_cell_length_c                   30.066(16)
_cell_angle_alpha                90
_cell_angle_beta                 90
_cell_angle_gamma                90
_cell_volume                     5232.91
loop_
_atom_site_label
_atom_site_type_symbol
_atom_site_fract_x
_atom_site_fract_y
_atom_site_fract_z
_atom_site_U_iso_or_equiv
_atom_site_thermal_displace_type
Co9 Co 0.00000 0.00000 0.80787 0.0218 Uiso
O4 O 0.00928 0.39037 0.14098 0.0208 Uiso
Co4 Co 0.04948 0.39534 0.20967 0.0168 Uiso
O26 O 0.0548 0.40027 0.27867 0.0185 Uiso
O29 O 0.09973 0.9452 0.02867 0.0185 Uiso
K3 K 0.16459 0.25000 0.125 0.0264 Uiso
Co8 Co 0.00000 0.50000 0.05787 0.0218 Uiso
Co7 Co 0.10466 0.95052 0.95967 0.0168 Uiso
C12 C 0.01904 0.75521 0.93203 0.0232 Uiso
O21 O 0.10537 0.80058 0.93834 0.0242 Uiso
O24 O 0.01122 0.66642 0.91489 0.0418 Uiso
H14 H 0.06091 0.64209 0.90362 0.0400 Uiso
K5 K 0.25000 0.83541 0.875 0.0264 Uiso
Co9_2 Co 0.00000 1.00000 0.80787 0.0218 Uiso
O28 O 0.90027 0.0548 0.02867 0.0185 Uiso
Co6 Co 0.89534 0.04948 0.95967 0.0168 Uiso
O14 O 0.89037 0.00928 0.89098 0.0208 Uiso
K4 K 0.75000 0.16459 0.875 0.0264 Uiso
Co9_3 Co 1.00000 0.00000 0.80787 0.0218 Uiso
Co1 Co 0.89534 0.45052 0.29033 0.0168 Uiso
C1 C 0.68249 0.41711 0.26335 0.0204 Uiso
C2 C 0.73127 0.35614 0.22676 0.0213 Uiso
H1 H 0.677 0.3288 0.2079 0.0400 Uiso
H2 H 0.768 0.2977 0.2395 0.0400 Uiso
C3 C 0.80769 0.41968 0.19799 0.0176 Uiso
C4 C 0.83353 0.3501 0.1579 0.0208 Uiso
H3 H 0.8555 0.2828 0.1687 0.0400 Uiso
H4 H 0.7709 0.3399 0.1407 0.0400 Uiso
C5 C 0.91632 0.39241 0.12808 0.0186 Uiso
C6 C 0.75521 0.51904 0.18203 0.0232 Uiso
O1 O 0.73669 0.46093 0.29238 0.0213 Uiso
O2 O 0.5832 0.41947 0.2646 0.0313 Uiso
O3 O 0.68847 0.63118 0.08322 0.1208 Uiso
O5 O 0.88947 0.42896 0.09111 0.0232 Uiso
O6 O 0.80058 0.60537 0.18834 0.0242 Uiso
O7 O 0.66642 0.51122 0.16489 0.0418 Uiso
O8 O 0.90027 0.4452 0.22133 0.0185 Uiso
H5 H 0.64432 0.67401 0.09946 0.0400 Uiso
H6 H 0.63881 0.59034 0.07157 0.0400 Uiso
H7 H 0.64209 0.56091 0.15362 0.0400 Uiso
K1 K 0.83541 0.75000 0.125 0.0264 Uiso
Co2 Co 0.50000 0.50000 0.30787 0.0218 Uiso
Co3 Co 0.95052 0.89534 0.04033 0.0168 Uiso
Co5 Co 0.95052 0.60466 0.20967 0.0168 Uiso
C7 C 0.91711 0.68249 0.01335 0.0204 Uiso
O9 O 0.96093 0.73669 0.04238 0.0213 Uiso
O10 O 0.96093 0.76331 0.20762 0.0213 Uiso
O11 O 0.91947 0.5832 0.0146 0.0313 Uiso
O12 O 0.4168 0.58053 0.2646 0.0313 Uiso
O13 O 0.68847 0.86882 0.16678 0.1208 Uiso
O15 O 0.89037 0.49072 0.35902 0.0208 Uiso
O16 O 0.99072 0.60963 0.14098 0.0208 Uiso
O17 O 0.99072 0.89037 0.10902 0.0208 Uiso
O19 O 0.42896 0.38947 0.34111 0.0232 Uiso
O20 O 0.57104 0.61053 0.34111 0.0232 Uiso
O22 O 0.89463 0.30058 0.31166 0.0242 Uiso
O23 O 0.80058 0.89463 0.06166 0.0242 Uiso
O27 O 0.9452 0.59973 0.27867 0.0185 Uiso
H12 H 0.64432 0.82599 0.15054 0.0400 Uiso
H13 H 0.63881 0.90966 0.17843 0.0400 Uiso
K2 K 0.75000 0.33541 0.375 0.0264 Uiso
Co8_2 Co 1.00000 0.50000 0.05787 0.0218 Uiso
C8 C 0.85614 0.73127 0.97676 0.0213 Uiso
H8 H 0.8288 0.677 0.9579 0.0400 Uiso
H9 H 0.7977 0.768 0.9895 0.0400 Uiso
C9 C 0.91968 0.80769 0.94799 0.0176 Uiso
C10 C 0.8501 0.83353 0.9079 0.0208 Uiso
H10 H 0.7828 0.8555 0.9187 0.0400 Uiso
H11 H 0.8399 0.7709 0.8907 0.0400 Uiso
C11 C 0.89241 0.91632 0.87808 0.0186 Uiso
O18 O 0.92896 0.88947 0.84111 0.0232 Uiso
O25 O 0.9452 0.90027 0.97133 0.0185 Uiso
Co9_4 Co 1.00000 1.00000 0.80787 0.0218 Uiso
Co6_2 Co 0.04948 0.10466 0.04033 0.0168 Uiso
O14_2 O 0.00928 0.10963 0.10902 0.0208 Uiso
Co9_5 Co 0.00000 -0.00000 0.19213 0.0218 Uiso
O28_2 O 0.0548 0.09973 0.97133 0.0185 Uiso
Co9_6 Co 0.00000 1.00000 0.19213 0.0218 Uiso
C8_2 C 0.73127 0.14386 0.02324 0.0213 Uiso
H8_2 H 0.677 0.1712 0.0421 0.0400 Uiso
H9_2 H 0.768 0.2023 0.0105 0.0400 Uiso
C9_2 C 0.80769 0.08032 0.05201 0.0176 Uiso
C10_2 C 0.83353 0.1499 0.0921 0.0208 Uiso
H10_2 H 0.8555 0.2172 0.0813 0.0400 Uiso
H11_2 H 0.7709 0.1601 0.1093 0.0400 Uiso
C11_2 C 0.91632 0.10759 0.12192 0.0186 Uiso
O18_2 O 0.88947 0.07104 0.15889 0.0232 Uiso
Co9_7 Co 1.00000 -0.00000 0.19213 0.0218 Uiso
Co1_2 Co 0.45052 0.10466 0.70967 0.0168 Uiso
C1_2 C 0.41711 0.31751 0.73665 0.0204 Uiso
C2_2 C 0.35614 0.26873 0.77324 0.0213 Uiso
H1_2 H 0.3288 0.323 0.7921 0.0400 Uiso
H2_2 H 0.2977 0.232 0.7605 0.0400 Uiso
C3_2 C 0.41968 0.19231 0.80201 0.0176 Uiso
C4_2 C 0.3501 0.16647 0.8421 0.0208 Uiso
H3_2 H 0.2828 0.1445 0.8313 0.0400 Uiso
H4_2 H 0.3399 0.2291 0.8593 0.0400 Uiso
C5_2 C 0.39241 0.08368 0.87192 0.0186 Uiso
C6_2 C 0.51904 0.24479 0.81797 0.0232 Uiso
O1_2 O 0.46093 0.26331 0.70762 0.0213 Uiso
O2_2 O 0.41947 0.4168 0.7354 0.0313 Uiso
O3_2 O 0.63118 0.31153 0.91678 0.1208 Uiso
O5_2 O 0.42896 0.11053 0.90889 0.0232 Uiso
O6_2 O 0.60537 0.19942 0.81166 0.0242 Uiso
O7_2 O 0.51122 0.33358 0.83511 0.0418 Uiso
O8_2 O 0.4452 0.09973 0.77867 0.0185 Uiso
H5_2 H 0.67401 0.35568 0.90054 0.0400 Uiso
H6_2 H 0.59034 0.36119 0.92843 0.0400 Uiso
H7_2 H 0.56091 0.35791 0.84638 0.0400 Uiso
Co2_2 Co 0.50000 0.50000 0.69213 0.0218 Uiso
Co5_2 Co 0.60466 0.04948 0.79033 0.0168 Uiso
C7_2 C 0.68249 0.08289 0.98665 0.0204 Uiso
O9_2 O 0.73669 0.03907 0.95762 0.0213 Uiso
O10_2 O 0.76331 0.03907 0.79238 0.0213 Uiso
O11_2 O 0.5832 0.08053 0.9854 0.0313 Uiso
O12_2 O 0.58053 0.5832 0.7354 0.0313 Uiso
O13_2 O 0.86882 0.31153 0.83322 0.1208 Uiso
O15_2 O 0.49072 0.10963 0.64098 0.0208 Uiso
O16_2 O 0.60963 0.00928 0.85902 0.0208 Uiso
O19_2 O 0.38947 0.57104 0.65889 0.0232 Uiso
O20_2 O 0.61053 0.42896 0.65889 0.0232 Uiso
O22_2 O 0.30058 0.10537 0.68834 0.0242 Uiso
O23_2 O 0.89463 0.19942 0.93834 0.0242 Uiso
O27_2 O 0.59973 0.0548 0.72133 0.0185 Uiso
H12_2 H 0.82599 0.35568 0.84946 0.0400 Uiso
H13_2 H 0.90966 0.36119 0.82157 0.0400 Uiso
K2_2 K 0.33541 0.25000 0.625 0.0264 Uiso
Co8_3 Co 0.50000 0.00000 0.94213 0.0218 Uiso
C12_2 C 0.75521 0.98096 0.06797 0.0232 Uiso
O24_2 O 0.66642 0.98878 0.08511 0.0418 Uiso
H14_2 H 0.64209 0.93909 0.09638 0.0400 Uiso
Co9_8 Co 1.00000 1.00000 0.19213 0.0218 Uiso
O4_2 O 0.39037 0.99072 0.85902 0.0208 Uiso
Co4_2 Co 0.39534 0.95052 0.79033 0.0168 Uiso
O26_2 O 0.40027 0.9452 0.72133 0.0185 Uiso
Co8_4 Co 0.50000 1.00000 0.94213 0.0218 Uiso
Co1_3 Co 0.10466 0.54948 0.29033 0.0168 Uiso
C1_3 C 0.31751 0.58289 0.26335 0.0204 Uiso
C2_3 C 0.26873 0.64386 0.22676 0.0213 Uiso
H1_3 H 0.323 0.6712 0.2079 0.0400 Uiso
H2_3 H 0.232 0.7023 0.2395 0.0400 Uiso
C3_3 C 0.19231 0.58032 0.19799 0.0176 Uiso
C4_3 C 0.16647 0.6499 0.1579 0.0208 Uiso
H3_3 H 0.1445 0.7172 0.1687 0.0400 Uiso
H4_3 H 0.2291 0.6601 0.1407 0.0400 Uiso
C5_3 C 0.08368 0.60759 0.12808 0.0186 Uiso
C6_3 C 0.24479 0.48096 0.18203 0.0232 Uiso
O1_3 O 0.26331 0.53907 0.29238 0.0213 Uiso
O3_3 O 0.31153 0.36882 0.08322 0.1208 Uiso
O5_3 O 0.11053 0.57104 0.09111 0.0232 Uiso
O6_3 O 0.19942 0.39463 0.18834 0.0242 Uiso
O7_3 O 0.33358 0.48878 0.16489 0.0418 Uiso
O8_3 O 0.09973 0.5548 0.22133 0.0185 Uiso
H5_3 H 0.35568 0.32599 0.09946 0.0400 Uiso
H6_3 H 0.36119 0.40966 0.07157 0.0400 Uiso
H7_3 H 0.35791 0.43909 0.15362 0.0400 Uiso
C7_3 C 0.08289 0.31751 0.01335 0.0204 Uiso
O9_3 O 0.03907 0.26331 0.04238 0.0213 Uiso
O10_3 O 0.03907 0.23669 0.20762 0.0213 Uiso
O11_3 O 0.08053 0.4168 0.0146 0.0313 Uiso
O13_3 O 0.31153 0.13118 0.16678 0.1208 Uiso
O15_3 O 0.10963 0.50928 0.35902 0.0208 Uiso
O22_3 O 0.10537 0.69942 0.31166 0.0242 Uiso
O23_3 O 0.19942 0.10537 0.06166 0.0242 Uiso
H12_3 H 0.35568 0.17401 0.15054 0.0400 Uiso
H13_3 H 0.36119 0.09034 0.17843 0.0400 Uiso
K2_3 K 0.25000 0.66459 0.375 0.0264 Uiso
C8_3 C 0.14386 0.26873 0.97676 0.0213 Uiso
H8_3 H 0.1712 0.323 0.9579 0.0400 Uiso
H9_3 H 0.2023 0.232 0.9895 0.0400 Uiso
C9_3 C 0.08032 0.19231 0.94799 0.0176 Uiso
C10_3 C 0.1499 0.16647 0.9079 0.0208 Uiso
H10_3 H 0.2172 0.1445 0.9187 0.0400 Uiso
H11_3 H 0.1601 0.2291 0.8907 0.0400 Uiso
C11_3 C 0.10759 0.08368 0.87808 0.0186 Uiso
O18_3 O 0.07104 0.11053 0.84111 0.0232 Uiso
O14_3 O 0.10963 0.99072 0.89098 0.0208 Uiso
C12_3 C 0.98096 0.24479 0.93203 0.0232 Uiso
O24_3 O 0.98878 0.33358 0.91489 0.0418 Uiso
H14_3 H 0.93909 0.35791 0.90362 0.0400 Uiso
C12_4 C 0.24479 0.01904 0.06797 0.0232 Uiso
O24_4 O 0.33358 0.01122 0.08511 0.0418 Uiso
H14_4 H 0.35791 0.06091 0.09638 0.0400 Uiso
C8_4 C 0.26873 0.85614 0.02324 0.0213 Uiso
H8_4 H 0.323 0.8288 0.0421 0.0400 Uiso
H9_4 H 0.232 0.7977 0.0105 0.0400 Uiso
C9_4 C 0.19231 0.91968 0.05201 0.0176 Uiso
C10_4 C 0.16647 0.8501 0.0921 0.0208 Uiso
H10_4 H 0.1445 0.7828 0.0813 0.0400 Uiso
H11_4 H 0.2291 0.8399 0.1093 0.0400 Uiso
C11_4 C 0.08368 0.89241 0.12192 0.0186 Uiso
O18_4 O 0.11053 0.92896 0.15889 0.0232 Uiso
Co1_4 Co 0.54948 0.89534 0.70967 0.0168 Uiso
C1_4 C 0.58289 0.68249 0.73665 0.0204 Uiso
C2_4 C 0.64386 0.73127 0.77324 0.0213 Uiso
H1_4 H 0.6712 0.677 0.7921 0.0400 Uiso
H2_4 H 0.7023 0.768 0.7605 0.0400 Uiso
C3_4 C 0.58032 0.80769 0.80201 0.0176 Uiso
C4_4 C 0.6499 0.83353 0.8421 0.0208 Uiso
H3_4 H 0.7172 0.8555 0.8313 0.0400 Uiso
H4_4 H 0.6601 0.7709 0.8593 0.0400 Uiso
C5_4 C 0.60759 0.91632 0.87192 0.0186 Uiso
C6_4 C 0.48096 0.75521 0.81797 0.0232 Uiso
O1_4 O 0.53907 0.73669 0.70762 0.0213 Uiso
O3_4 O 0.36882 0.68847 0.91678 0.1208 Uiso
O5_4 O 0.57104 0.88947 0.90889 0.0232 Uiso
O6_4 O 0.39463 0.80058 0.81166 0.0242 Uiso
O7_4 O 0.48878 0.66642 0.83511 0.0418 Uiso
O8_4 O 0.5548 0.90027 0.77867 0.0185 Uiso
H5_4 H 0.32599 0.64432 0.90054 0.0400 Uiso
H6_4 H 0.40966 0.63881 0.92843 0.0400 Uiso
H7_4 H 0.43909 0.64209 0.84638 0.0400 Uiso
C7_4 C 0.31751 0.91711 0.98665 0.0204 Uiso
O9_4 O 0.26331 0.96093 0.95762 0.0213 Uiso
O10_4 O 0.23669 0.96093 0.79238 0.0213 Uiso
O11_4 O 0.4168 0.91947 0.9854 0.0313 Uiso
O13_4 O 0.13118 0.68847 0.83322 0.1208 Uiso
O15_4 O 0.50928 0.89037 0.64098 0.0208 Uiso
O22_4 O 0.69942 0.89463 0.68834 0.0242 Uiso
H12_4 H 0.17401 0.64432 0.84946 0.0400 Uiso
H13_4 H 0.09034 0.63881 0.82157 0.0400 Uiso
K2_4 K 0.66459 0.75000 0.625 0.0264 Uiso
Co2_3 Co 0.00000 0.50000 0.44213 0.0218 Uiso
O12_3 O 0.0832 0.58053 0.4854 0.0313 Uiso
O19_3 O 0.07104 0.38947 0.40889 0.0232 Uiso
Co1_5 Co 0.60466 0.45052 0.45967 0.0168 Uiso
C1_5 C 0.81751 0.41711 0.48665 0.0204 Uiso
C2_5 C 0.76873 0.35614 0.52324 0.0213 Uiso
H1_5 H 0.823 0.3288 0.5421 0.0400 Uiso
H2_5 H 0.732 0.2977 0.5105 0.0400 Uiso
C3_5 C 0.69231 0.41968 0.55201 0.0176 Uiso
C4_5 C 0.66647 0.3501 0.5921 0.0208 Uiso
H3_5 H 0.6445 0.2828 0.5813 0.0400 Uiso
H4_5 H 0.7291 0.3399 0.6093 0.0400 Uiso
C5_5 C 0.58368 0.39241 0.62192 0.0186 Uiso
C6_5 C 0.74479 0.51904 0.56797 0.0232 Uiso
O1_5 O 0.76331 0.46093 0.45762 0.0213 Uiso
O2_3 O 0.9168 0.41947 0.4854 0.0313 Uiso
O3_5 O 0.81153 0.63118 0.66678 0.1208 Uiso
O4_3 O 0.49072 0.39037 0.60902 0.0208 Uiso
O6_5 O 0.69942 0.60537 0.56166 0.0242 Uiso
O7_5 O 0.83358 0.51122 0.58511 0.0418 Uiso
O8_5 O 0.59973 0.4452 0.52867 0.0185 Uiso
H5_5 H 0.85568 0.67401 0.65054 0.0400 Uiso
H6_5 H 0.86119 0.59034 0.67843 0.0400 Uiso
H7_5 H 0.85791 0.56091 0.59638 0.0400 Uiso
Co2_4 Co 1.00000 0.50000 0.44213 0.0218 Uiso
Co4_3 Co 0.45052 0.39534 0.54033 0.0168 Uiso
Co5_3 Co 0.54948 0.60466 0.54033 0.0168 Uiso
O10_5 O 0.53907 0.76331 0.54238 0.0213 Uiso
O13_5 O 0.81153 0.86882 0.58322 0.1208 Uiso
O15_5 O 0.60963 0.49072 0.39098 0.0208 Uiso
O16_3 O 0.50928 0.60963 0.60902 0.0208 Uiso
O20_3 O 0.92896 0.61053 0.40889 0.0232 Uiso
O22_5 O 0.60537 0.30058 0.43834 0.0242 Uiso
O26_3 O 0.4452 0.40027 0.47133 0.0185 Uiso
O27_3 O 0.5548 0.59973 0.47133 0.0185 Uiso
H12_5 H 0.85568 0.82599 0.59946 0.0400 Uiso
H13_5 H 0.86119 0.90966 0.57157 0.0400 Uiso
C1_6 C 0.41711 0.18249 0.51335 0.0204 Uiso
C2_6 C 0.35614 0.23127 0.47676 0.0213 Uiso
H1_6 H 0.3288 0.177 0.4579 0.0400 Uiso
H2_6 H 0.2977 0.268 0.4895 0.0400 Uiso
C3_6 C 0.41968 0.30769 0.44799 0.0176 Uiso
C4_6 C 0.3501 0.33353 0.4079 0.0208 Uiso
H3_6 H 0.2828 0.3555 0.4187 0.0400 Uiso
H4_6 H 0.3399 0.2709 0.3907 0.0400 Uiso
C5_6 C 0.39241 0.41632 0.37808 0.0186 Uiso
C6_6 C 0.51904 0.25521 0.43203 0.0232 Uiso
O1_6 O 0.46093 0.23669 0.54238 0.0213 Uiso
O2_4 O 0.41947 0.0832 0.5146 0.0313 Uiso
O3_6 O 0.63118 0.18847 0.33322 0.1208 Uiso
O4_4 O 0.39037 0.50928 0.39098 0.0208 Uiso
O7_6 O 0.51122 0.16642 0.41489 0.0418 Uiso
H5_6 H 0.67401 0.14432 0.34946 0.0400 Uiso
H6_6 H 0.59034 0.13881 0.32157 0.0400 Uiso
H7_6 H 0.56091 0.14209 0.40362 0.0400 Uiso
Co2_5 Co 0.50000 0.00000 0.55787 0.0218 Uiso
Co4_4 Co 0.39534 0.54948 0.45967 0.0168 Uiso
O13_6 O 0.86882 0.18847 0.41678 0.1208 Uiso
O20_4 O 0.61053 0.07104 0.59111 0.0232 Uiso
O22_6 O 0.30058 0.39463 0.56166 0.0242 Uiso
O26_4 O 0.40027 0.5548 0.52867 0.0185 Uiso
H12_6 H 0.82599 0.14432 0.40054 0.0400 Uiso
H13_6 H 0.90966 0.13881 0.42843 0.0400 Uiso
Co2_6 Co 0.50000 1.00000 0.55787 0.0218 Uiso
O12_4 O 0.58053 0.9168 0.5146 0.0313 Uiso
O19_4 O 0.38947 0.92896 0.59111 0.0232 Uiso
C1_7 C 0.18249 0.58289 0.48665 0.0204 Uiso
C2_7 C 0.23127 0.64386 0.52324 0.0213 Uiso
H1_7 H 0.177 0.6712 0.5421 0.0400 Uiso
H2_7 H 0.268 0.7023 0.5105 0.0400 Uiso
C3_7 C 0.30769 0.58032 0.55201 0.0176 Uiso
C4_7 C 0.33353 0.6499 0.5921 0.0208 Uiso
H3_7 H 0.3555 0.7172 0.5813 0.0400 Uiso
H4_7 H 0.2709 0.6601 0.6093 0.0400 Uiso
C5_7 C 0.41632 0.60759 0.62192 0.0186 Uiso
C6_7 C 0.25521 0.48096 0.56797 0.0232 Uiso
O1_7 O 0.23669 0.53907 0.45762 0.0213 Uiso
O3_7 O 0.18847 0.36882 0.66678 0.1208 Uiso
O7_7 O 0.16642 0.48878 0.58511 0.0418 Uiso
H5_7 H 0.14432 0.32599 0.65054 0.0400 Uiso
H6_7 H 0.13881 0.40966 0.67843 0.0400 Uiso
H7_7 H 0.14209 0.43909 0.59638 0.0400 Uiso
O13_7 O 0.18847 0.13118 0.58322 0.1208 Uiso
O22_7 O 0.39463 0.69942 0.43834 0.0242 Uiso
H12_7 H 0.14432 0.17401 0.59946 0.0400 Uiso
H13_7 H 0.13881 0.09034 0.57157 0.0400 Uiso
C1_8 C 0.58289 0.81751 0.51335 0.0204 Uiso
C2_8 C 0.64386 0.76873 0.47676 0.0213 Uiso
H1_8 H 0.6712 0.823 0.4579 0.0400 Uiso
H2_8 H 0.7023 0.732 0.4895 0.0400 Uiso
C3_8 C 0.58032 0.69231 0.44799 0.0176 Uiso
C4_8 C 0.6499 0.66647 0.4079 0.0208 Uiso
H3_8 H 0.7172 0.6445 0.4187 0.0400 Uiso
H4_8 H 0.6601 0.7291 0.3907 0.0400 Uiso
C5_8 C 0.60759 0.58368 0.37808 0.0186 Uiso
C6_8 C 0.48096 0.74479 0.43203 0.0232 Uiso
O3_8 O 0.36882 0.81153 0.33322 0.1208 Uiso
O7_8 O 0.48878 0.83358 0.41489 0.0418 Uiso
H5_8 H 0.32599 0.85568 0.34946 0.0400 Uiso
H6_8 H 0.40966 0.86119 0.32157 0.0400 Uiso
H7_8 H 0.43909 0.85791 0.40362 0.0400 Uiso
O13_8 O 0.13118 0.81153 0.41678 0.1208 Uiso
H12_8 H 0.17401 0.85568 0.40054 0.0400 Uiso
H13_8 H 0.09034 0.86119 0.42843 0.0400 Uiso
C6_9 C 0.25521 0.01904 0.68203 0.0232 Uiso
O7_9 O 0.16642 0.01122 0.66489 0.0418 Uiso
H7_9 H 0.14209 0.06091 0.65362 0.0400 Uiso
C1_9 C 0.18249 0.91711 0.76335 0.0204 Uiso
C2_9 C 0.23127 0.85614 0.72676 0.0213 Uiso
H1_9 H 0.177 0.8288 0.7079 0.0400 Uiso
H2_9 H 0.268 0.7977 0.7395 0.0400 Uiso
C3_9 C 0.30769 0.91968 0.69799 0.0176 Uiso
C4_9 C 0.33353 0.8501 0.6579 0.0208 Uiso
H3_9 H 0.3555 0.7828 0.6687 0.0400 Uiso
H4_9 H 0.2709 0.8399 0.6407 0.0400 Uiso
C5_9 C 0.41632 0.89241 0.62808 0.0186 Uiso
O2_5 O 0.0832 0.91947 0.7646 0.0313 Uiso
O12_5 O 0.9168 0.08053 0.7646 0.0313 Uiso
O12_6 O 0.08053 0.0832 0.2354 0.0313 Uiso
C6_10 C 0.01904 0.74479 0.31797 0.0232 Uiso
O7_10 O 0.01122 0.83358 0.33511 0.0418 Uiso
H7_10 H 0.06091 0.85791 0.34638 0.0400 Uiso
C1_10 C 0.91711 0.81751 0.23665 0.0204 Uiso
C2_10 C 0.85614 0.76873 0.27324 0.0213 Uiso
H1_10 H 0.8288 0.823 0.2921 0.0400 Uiso
H2_10 H 0.7977 0.732 0.2605 0.0400 Uiso
C3_10 C 0.91968 0.69231 0.30201 0.0176 Uiso
C4_10 C 0.8501 0.66647 0.3421 0.0208 Uiso
H3_10 H 0.7828 0.6445 0.3313 0.0400 Uiso
H4_10 H 0.8399 0.7291 0.3593 0.0400 Uiso
C5_10 C 0.89241 0.58368 0.37192 0.0186 Uiso
O2_6 O 0.91947 0.9168 0.2354 0.0313 Uiso
C1_11 C 0.81751 0.08289 0.76335 0.0204 Uiso
C2_11 C 0.76873 0.14386 0.72676 0.0213 Uiso
H1_11 H 0.823 0.1712 0.7079 0.0400 Uiso
H2_11 H 0.732 0.2023 0.7395 0.0400 Uiso
C3_11 C 0.69231 0.08032 0.69799 0.0176 Uiso
C4_11 C 0.66647 0.1499 0.6579 0.0208 Uiso
H3_11 H 0.6445 0.2172 0.6687 0.0400 Uiso
H4_11 H 0.7291 0.1601 0.6407 0.0400 Uiso
C5_11 C 0.58368 0.10759 0.62808 0.0186 Uiso
C6_11 C 0.74479 0.98096 0.68203 0.0232 Uiso
O7_11 O 0.83358 0.98878 0.66489 0.0418 Uiso
H7_11 H 0.85791 0.93909 0.65362 0.0400 Uiso
C1_12 C 0.08289 0.18249 0.23665 0.0204 Uiso
C2_12 C 0.14386 0.23127 0.27324 0.0213 Uiso
H1_12 H 0.1712 0.177 0.2921 0.0400 Uiso
H2_12 H 0.2023 0.268 0.2605 0.0400 Uiso
C3_12 C 0.08032 0.30769 0.30201 0.0176 Uiso
C4_12 C 0.1499 0.33353 0.3421 0.0208 Uiso
H3_12 H 0.2172 0.3555 0.3313 0.0400 Uiso
H4_12 H 0.1601 0.2709 0.3593 0.0400 Uiso
C5_12 C 0.10759 0.41632 0.37192 0.0186 Uiso
C6_12 C 0.98096 0.25521 0.31797 0.0232 Uiso
O7_12 O 0.98878 0.16642 0.33511 0.0418 Uiso
H7_12 H 0.93909 0.14209 0.34638 0.0400 Uiso
loop_
_geom_bond_atom_site_label_1
_geom_bond_atom_site_label_2
_geom_bond_site_symmetry_1
_geom_bond_site_symmetry_2
Co4 O4 1_555 1_555
K3 O4 1_555 1_555
Co4 O26 1_555 1_555
Co7 O21 1_555 1_555
O21 C12 1_555 1_555
O24 C12 1_555 1_555
H14 O24 1_555 1_555
K5 O21 1_555 1_555
Co6 O14 1_555 1_555
K4 O14 1_555 1_555
Co1 O1 1_555 1_555
C1 C2 1_555 1_555
C2 H1 1_555 1_555
H2 C2 1_555 1_555
C3 C2 1_555 1_555
C4 C3 1_555 1_555
H3 C4 1_555 1_555
H4 C4 1_555 1_555
C5 C4 1_555 1_555
C6 C3 1_555 1_555
O1 C1 1_555 1_555
O2 C1 1_555 1_555
O3 H5 1_555 1_555
O5 C5 1_555 1_555
O6 C6 1_555 1_555
O7 C6 1_555 1_555
O8 Co1 1_555 1_555
H6 O3 1_555 1_555
H7 O7 1_555 1_555
K1 O3 1_555 1_555
Co2 O2 1_555 1_555
Co3 O9 1_555 1_555
Co5 O6 1_555 1_555
O9 K1 1_555 1_555
O10 K1 1_555 1_555
O11 C7 1_555 1_555
O12 Co2 1_555 1_555
O13 K1 1_555 1_555
O15 Co1 1_555 1_555
O16 K1 1_555 1_555
O17 K1 1_555 1_555
O19 Co2 1_555 1_555
O20 Co2 1_555 1_555
O22 Co1 1_555 1_555
O23 K1 1_555 1_555
O27 Co1 1_555 1_555
H12 O13 1_555 1_555
H13 O13 1_555 1_555
K2 O1 1_555 1_555
Co8_2 O5 1_555 1_555
C3 O8 1_555 1_555
O6 K1 1_555 1_555
O8 Co5 1_555 1_555
Co3 O17 1_555 1_555
Co3 O23 1_555 1_555
Co5 O10 1_555 1_555
Co5 O16 1_555 1_555
Co5 O27 1_555 1_555
C7 O9 1_555 1_555
O11 Co8_2 1_555 1_555
O15 K2 1_555 1_555
O22 K2 1_555 1_555
C8 H8 1_555 1_555
H9 C8 1_555 1_555
C9 C8 1_555 1_555
C10 C9 1_555 1_555
H10 C10 1_555 1_555
H11 C10 1_555 1_555
C11 C10 1_555 1_555
O18 C11 1_555 1_555
Co9_4 O18 1_555 1_555
C9 O25 1_555 1_555
Co6_2 O14_2 1_555 1_555
K3 O14_2 1_555 1_555
C8_2 H8_2 1_555 1_555
H9_2 C8_2 1_555 1_555
C9_2 C8_2 1_555 1_555
C10_2 C9_2 1_555 1_555
H10_2 C10_2 1_555 1_555
H11_2 C10_2 1_555 1_555
C11_2 C10_2 1_555 1_555
O18_2 C11_2 1_555 1_555
Co9_7 O18_2 1_555 1_555
C9_2 O28 1_555 1_555
Co1_2 O1_2 1_555 1_555
C1_2 C2_2 1_555 1_555
C2_2 H1_2 1_555 1_555
H2_2 C2_2 1_555 1_555
C3_2 C2_2 1_555 1_555
C4_2 C3_2 1_555 1_555
H3_2 C4_2 1_555 1_555
H4_2 C4_2 1_555 1_555
C5_2 C4_2 1_555 1_555
C6_2 C3_2 1_555 1_555
O1_2 C1_2 1_555 1_555
O2_2 C1_2 1_555 1_555
O3_2 H5_2 1_555 1_555
O5_2 C5_2 1_555 1_555
O6_2 C6_2 1_555 1_555
O7_2 C6_2 1_555 1_555
O8_2 Co1_2 1_555 1_555
H6_2 O3_2 1_555 1_555
H7_2 O7_2 1_555 1_555
K4 O3_2 1_555 1_555
Co2_2 O2_2 1_555 1_555
Co6 O9_2 1_555 1_555
Co5_2 O6_2 1_555 1_555
O9_2 K4 1_555 1_555
O10_2 K4 1_555 1_555
O11_2 C7_2 1_555 1_555
O12_2 Co2_2 1_555 1_555
O13_2 K4 1_555 1_555
O15_2 Co1_2 1_555 1_555
O16_2 K4 1_555 1_555
O19_2 Co2_2 1_555 1_555
O20_2 Co2_2 1_555 1_555
O22_2 Co1_2 1_555 1_555
O23_2 K4 1_555 1_555
O27_2 Co1_2 1_555 1_555
H12_2 O13_2 1_555 1_555
H13_2 O13_2 1_555 1_555
K2_2 O1_2 1_555 1_555
Co8_3 O5_2 1_555 1_555
C3_2 O8_2 1_555 1_555
O6_2 K4 1_555 1_555
O8_2 Co5_2 1_555 1_555
Co6 O23_2 1_555 1_555
Co5_2 O10_2 1_555 1_555
Co5_2 O16_2 1_555 1_555
Co5_2 O27_2 1_555 1_555
C7_2 O9_2 1_555 1_555
O11_2 Co8_3 1_555 1_555
O15_2 K2_2 1_555 1_555
O22_2 K2_2 1_555 1_555
O23 C12_2 1_555 1_555
O24_2 C12_2 1_555 1_555
H14_2 O24_2 1_555 1_555
Co4_2 O4_2 1_555 1_555
K5 O4_2 1_555 1_555
Co4_2 O26_2 1_555 1_555
Co1_3 O1_3 1_555 1_555
C1_3 C2_3 1_555 1_555
C2_3 H1_3 1_555 1_555
H2_3 C2_3 1_555 1_555
C3_3 C2_3 1_555 1_555
C4_3 C3_3 1_555 1_555
H3_3 C4_3 1_555 1_555
H4_3 C4_3 1_555 1_555
C5_3 C4_3 1_555 1_555
C6_3 C3_3 1_555 1_555
O1_3 C1_3 1_555 1_555
O12 C1_3 1_555 1_555
O3_3 H5_3 1_555 1_555
O5_3 C5_3 1_555 1_555
O6_3 C6_3 1_555 1_555
O7_3 C6_3 1_555 1_555
O8_3 Co1_3 1_555 1_555
H6_3 O3_3 1_555 1_555
H7_3 O7_3 1_555 1_555
K3 O3_3 1_555 1_555
Co6_2 O9_3 1_555 1_555
Co4 O6_3 1_555 1_555
O9_3 K3 1_555 1_555
O10_3 K3 1_555 1_555
O11_3 C7_3 1_555 1_555
O13_3 K3 1_555 1_555
O15_3 Co1_3 1_555 1_555
O22_3 Co1_3 1_555 1_555
O23_3 K3 1_555 1_555
O26 Co1_3 1_555 1_555
H12_3 O13_3 1_555 1_555
H13_3 O13_3 1_555 1_555
K2_3 O1_3 1_555 1_555
Co8 O5_3 1_555 1_555
C3_3 O8_3 1_555 1_555
O6_3 K3 1_555 1_555
O8_3 Co4 1_555 1_555
Co6_2 O23_3 1_555 1_555
Co4 O10_3 1_555 1_555
C7_3 O9_3 1_555 1_555
O11_3 Co8 1_555 1_555
O15_3 K2_3 1_555 1_555
O22_3 K2_3 1_555 1_555
C8_3 H8_3 1_555 1_555
H9_3 C8_3 1_555 1_555
C9_3 C8_3 1_555 1_555
C10_3 C9_3 1_555 1_555
H10_3 C10_3 1_555 1_555
H11_3 C10_3 1_555 1_555
C11_3 C10_3 1_555 1_555
O18_3 C11_3 1_555 1_555
Co9 O18_3 1_555 1_555
C9_3 O28_2 1_555 1_555
Co7 O14_3 1_555 1_555
K5 O14_3 1_555 1_555
O23_2 C12_3 1_555 1_555
O24_3 C12_3 1_555 1_555
H14_3 O24_3 1_555 1_555
O23_3 C12_4 1_555 1_555
O24_4 C12_4 1_555 1_555
H14_4 O24_4 1_555 1_555
C8_4 H8_4 1_555 1_555
H9_4 C8_4 1_555 1_555
C9_4 C8_4 1_555 1_555
C10_4 C9_4 1_555 1_555
H10_4 C10_4 1_555 1_555
H11_4 C10_4 1_555 1_555
C11_4 C10_4 1_555 1_555
O18_4 C11_4 1_555 1_555
Co9_6 O18_4 1_555 1_555
C9_4 O29 1_555 1_555
Co1_4 O1_4 1_555 1_555
C1_4 C2_4 1_555 1_555
C2_4 H1_4 1_555 1_555
H2_4 C2_4 1_555 1_555
C3_4 C2_4 1_555 1_555
C4_4 C3_4 1_555 1_555
H3_4 C4_4 1_555 1_555
H4_4 C4_4 1_555 1_555
C5_4 C4_4 1_555 1_555
C6_4 C3_4 1_555 1_555
O1_4 C1_4 1_555 1_555
O12_2 C1_4 1_555 1_555
O3_4 H5_4 1_555 1_555
O5_4 C5_4 1_555 1_555
O6_4 C6_4 1_555 1_555
O7_4 C6_4 1_555 1_555
O8_4 Co1_4 1_555 1_555
H6_4 O3_4 1_555 1_555
H7_4 O7_4 1_555 1_555
K5 O3_4 1_555 1_555
Co7 O9_4 1_555 1_555
Co4_2 O6_4 1_555 1_555
O9_4 K5 1_555 1_555
O10_4 K5 1_555 1_555
O11_4 C7_4 1_555 1_555
O13_4 K5 1_555 1_555
O15_4 Co1_4 1_555 1_555
O22_4 Co1_4 1_555 1_555
O26_2 Co1_4 1_555 1_555
H12_4 O13_4 1_555 1_555
H13_4 O13_4 1_555 1_555
K2_4 O1_4 1_555 1_555
Co8_4 O5_4 1_555 1_555
C3_4 O8_4 1_555 1_555
O6_4 K5 1_555 1_555
O8_4 Co4_2 1_555 1_555
Co4_2 O10_4 1_555 1_555
C7_4 O9_4 1_555 1_555
O11_4 Co8_4 1_555 1_555
O15_4 K2_4 1_555 1_555
O22_4 K2_4 1_555 1_555
O12_3 Co2_3 1_555 1_555
O19_3 Co2_3 1_555 1_555
Co1_5 O1_5 1_555 1_555
C1_5 C2_5 1_555 1_555
C2_5 H1_5 1_555 1_555
H2_5 C2_5 1_555 1_555
C3_5 C2_5 1_555 1_555
C4_5 C3_5 1_555 1_555
H3_5 C4_5 1_555 1_555
H4_5 C4_5 1_555 1_555
C5_5 C4_5 1_555 1_555
C6_5 C3_5 1_555 1_555
O1_5 C1_5 1_555 1_555
O2_3 C1_5 1_555 1_555
O3_5 H5_5 1_555 1_555
O4_3 C5_5 1_555 1_555
O20_2 C5_5 1_555 1_555
O6_5 C6_5 1_555 1_555
O7_5 C6_5 1_555 1_555
O8_5 Co1_5 1_555 1_555
H6_5 O3_5 1_555 1_555
H7_5 O7_5 1_555 1_555
K2_4 O3_5 1_555 1_555
Co2_4 O2_3 1_555 1_555
Co4_3 O4_3 1_555 1_555
Co5_3 O6_5 1_555 1_555
O10_5 K2_4 1_555 1_555
O13_5 K2_4 1_555 1_555
O15_5 Co1_5 1_555 1_555
O16_3 K2_4 1_555 1_555
O20_3 Co2_4 1_555 1_555
O22_5 Co1_5 1_555 1_555
O26_3 Co1_5 1_555 1_555
O27_3 Co1_5 1_555 1_555
H12_5 O13_5 1_555 1_555
H13_5 O13_5 1_555 1_555
K2 O1_5 1_555 1_555
K2_2 O4_3 1_555 1_555
C3_5 O8_5 1_555 1_555
O6_5 K2_4 1_555 1_555
O8_5 Co4_3 1_555 1_555
O8_5 Co5_3 1_555 1_555
Co4_3 O26_3 1_555 1_555
Co5_3 O10_5 1_555 1_555
Co5_3 O16_3 1_555 1_555
Co5_3 O27_3 1_555 1_555
O15_5 K2 1_555 1_555
O22_5 K2 1_555 1_555
Co4_3 O1_6 1_555 1_555
C1_6 C2_6 1_555 1_555
C2_6 H1_6 1_555 1_555
H2_6 C2_6 1_555 1_555
C3_6 C2_6 1_555 1_555
C4_6 C3_6 1_555 1_555
H3_6 C4_6 1_555 1_555
H4_6 C4_6 1_555 1_555
C5_6 C4_6 1_555 1_555
C6_6 C3_6 1_555 1_555
O1_6 C1_6 1_555 1_555
O2_4 C1_6 1_555 1_555
O3_6 H5_6 1_555 1_555
O4_4 C5_6 1_555 1_555
O19 C5_6 1_555 1_555
O22_5 C6_6 1_555 1_555
O7_6 C6_6 1_555 1_555
H6_6 O3_6 1_555 1_555
H7_6 O7_6 1_555 1_555
K2 O3_6 1_555 1_555
Co2_5 O2_4 1_555 1_555
Co4_4 O4_4 1_555 1_555
O13_6 K2 1_555 1_555
O20_4 Co2_5 1_555 1_555
O22_6 Co4_3 1_555 1_555
O26_4 Co4_3 1_555 1_555
H12_6 O13_6 1_555 1_555
H13_6 O13_6 1_555 1_555
K2_2 O1_6 1_555 1_555
K2_3 O4_4 1_555 1_555
C3_6 O26_3 1_555 1_555
O26_3 Co4_4 1_555 1_555
Co4_4 O26_4 1_555 1_555
O22_6 K2_2 1_555 1_555
O12_4 Co2_6 1_555 1_555
O19_4 Co2_6 1_555 1_555
Co4_4 O1_7 1_555 1_555
C1_7 C2_7 1_555 1_555
C2_7 H1_7 1_555 1_555
H2_7 C2_7 1_555 1_555
C3_7 C2_7 1_555 1_555
C4_7 C3_7 1_555 1_555
H3_7 C4_7 1_555 1_555
H4_7 C4_7 1_555 1_555
C5_7 C4_7 1_555 1_555
C6_7 C3_7 1_555 1_555
O1_7 C1_7 1_555 1_555
O12_3 C1_7 1_555 1_555
O3_7 H5_7 1_555 1_555
O16_3 C5_7 1_555 1_555
O19_2 C5_7 1_555 1_555
O22_6 C6_7 1_555 1_555
O7_7 C6_7 1_555 1_555
H6_7 O3_7 1_555 1_555
H7_7 O7_7 1_555 1_555
K2_2 O3_7 1_555 1_555
O13_7 K2_2 1_555 1_555
O22_7 Co4_4 1_555 1_555
O27_3 Co4_4 1_555 1_555
H12_7 O13_7 1_555 1_555
H13_7 O13_7 1_555 1_555
K2_3 O1_7 1_555 1_555
C3_7 O26_4 1_555 1_555
O26_4 Co5_3 1_555 1_555
O22_7 K2_3 1_555 1_555
C1_8 C2_8 1_555 1_555
C2_8 H1_8 1_555 1_555
H2_8 C2_8 1_555 1_555
C3_8 C2_8 1_555 1_555
C4_8 C3_8 1_555 1_555
H3_8 C4_8 1_555 1_555
H4_8 C4_8 1_555 1_555
C5_8 C4_8 1_555 1_555
C6_8 C3_8 1_555 1_555
O10_5 C1_8 1_555 1_555
O12_4 C1_8 1_555 1_555
O3_8 H5_8 1_555 1_555
O15_5 C5_8 1_555 1_555
O20 C5_8 1_555 1_555
O22_7 C6_8 1_555 1_555
O7_8 C6_8 1_555 1_555
H6_8 O3_8 1_555 1_555
H7_8 O7_8 1_555 1_555
K2_3 O3_8 1_555 1_555
O13_8 K2_3 1_555 1_555
H12_8 O13_8 1_555 1_555
H13_8 O13_8 1_555 1_555
C3_8 O27_3 1_555 1_555
O22_2 C6_9 1_555 1_555
O7_9 C6_9 1_555 1_555
H7_9 O7_9 1_555 1_555
C1_9 C2_9 1_555 1_555
C2_9 H1_9 1_555 1_555
H2_9 C2_9 1_555 1_555
C3_9 C2_9 1_555 1_555
C4_9 C3_9 1_555 1_555
H3_9 C4_9 1_555 1_555
H4_9 C4_9 1_555 1_555
C5_9 C4_9 1_555 1_555
O10_4 C1_9 1_555 1_555
O2_5 C1_9 1_555 1_555
O15_4 C5_9 1_555 1_555
O19_4 C5_9 1_555 1_555
Co9_2 O2_5 1_555 1_555
C3_9 O26_2 1_555 1_555
O12_5 Co9_3 1_555 1_555
O12_6 Co9_5 1_555 1_555
O22_3 C6_10 1_555 1_555
O7_10 C6_10 1_555 1_555
H7_10 O7_10 1_555 1_555
C1_10 C2_10 1_555 1_555
C2_10 H1_10 1_555 1_555
H2_10 C2_10 1_555 1_555
C3_10 C2_10 1_555 1_555
C4_10 C3_10 1_555 1_555
H3_10 C4_10 1_555 1_555
H4_10 C4_10 1_555 1_555
C5_10 C4_10 1_555 1_555
O10 C1_10 1_555 1_555
O2_6 C1_10 1_555 1_555
O15 C5_10 1_555 1_555
O20_3 C5_10 1_555 1_555
Co9_8 O2_6 1_555 1_555
C3_10 O27 1_555 1_555
C1_11 C2_11 1_555 1_555
C2_11 H1_11 1_555 1_555
H2_11 C2_11 1_555 1_555
C3_11 C2_11 1_555 1_555
C4_11 C3_11 1_555 1_555
H3_11 C4_11 1_555 1_555
H4_11 C4_11 1_555 1_555
C5_11 C4_11 1_555 1_555
O10_2 C1_11 1_555 1_555
O12_5 C1_11 1_555 1_555
O15_2 C5_11 1_555 1_555
O20_4 C5_11 1_555 1_555
C3_11 O27_2 1_555 1_555
O22_4 C6_11 1_555 1_555
O7_11 C6_11 1_555 1_555
H7_11 O7_11 1_555 1_555
C1_12 C2_12 1_555 1_555
C2_12 H1_12 1_555 1_555
H2_12 C2_12 1_555 1_555
C3_12 C2_12 1_555 1_555
C4_12 C3_12 1_555 1_555
H3_12 C4_12 1_555 1_555
H4_12 C4_12 1_555 1_555
C5_12 C4_12 1_555 1_555
O10_3 C1_12 1_555 1_555
O12_6 C1_12 1_555 1_555
O15_3 C5_12 1_555 1_555
O19_3 C5_12 1_555 1_555
C3_12 O26 1_555 1_555
O22 C6_12 1_555 1_555
O7_12 C6_12 1_555 1_555
H7_12 O7_12 1_555 1_555

#END
