
###############################################################################
#
# This file contains modified crystal structure data generated from the
# MOF subset of the Cambridge Structural Database (CSD) v543 
# hosted by the Cambridge Crystallographic Data Centre (CCDC).
#
# This work is licensed under the Creative Commons
# Attribution-NonCommercial-ShareAlike 4.0 International License.
# To view a copy of this license, visit
# http://creativecommons.org/licenses/by-nc-sa/4.0/
# or send a letter to
# Creative Commons, PO Box 1866, Mountain View, CA 94042, USA.
#
# CIF created using the CSD Python API on 29 September 2022
# The structure has been converted into the P1 space group
# The structure has a 3D framework
# The original CSD entry GEBDUQ is in the orthorhombic crystal system
# The framework has been calculated to contain at least 10.0% void space
# The void calculation uses a probe of radius 1.32A, grid spacing 0.4
#
###############################################################################

data_GEBDUQ
_chemical_formula_moiety         '(C880 H1088 Ca64 O444 P96)n'
_symmetry_cell_setting           triclinic
_symmetry_space_group_name_H-M   'P 1'
_symmetry_Int_Tables_number      1
_space_group_name_Hall           'P 1'
loop_
_symmetry_equiv_pos_site_id
_symmetry_equiv_pos_as_xyz
1 x,y,z
_cell_length_a                   35.9650(8)
_cell_length_b                   36.8727(8)
_cell_length_c                   22.0224(5)
_cell_angle_alpha                90
_cell_angle_beta                 90
_cell_angle_gamma                90
_cell_volume                     29204.5
loop_
_atom_site_label
_atom_site_type_symbol
_atom_site_fract_x
_atom_site_fract_y
_atom_site_fract_z
Ca1 Ca 0.66052(5) 0.16354(5) 0.33007(11)
Ca2 Ca 0.56404(5) 0.19872(5) 0.29374(11)
Ca3 Ca 0.65100(5) 0.33152(4) 0.41166(10)
Ca4 Ca 0.55641(5) 0.29301(4) 0.44821(11)
O1 O 0.5240(3) 0.2976(3) 0.5416(5)
H1 H 0.5328(13) 0.3144(10) 0.5637(13)
O2 O 0.52856(17) 0.35102(16) 0.4344(3)
H2 H 0.5442(6) 0.3679(5) 0.4404(15)
H3 H 0.5077(5) 0.3568(11) 0.450(2)
P2 P 0.31598(6) 0.11895(7) 0.78276(14)
P3 P 0.59260(6) 0.19712(5) 0.44156(12)
P4 P 0.58458(6) 0.29741(6) 0.29920(12)
P5 P 0.39032(6) 0.58078(5) 0.44576(12)
O4 O 0.7285(3) 0.1652(3) 0.3230(6)
H4 H 0.7414(17) 0.1769(10) 0.349(2)
H5 H 0.7364(8) 0.1435(5) 0.320(3)
O6 O 0.6779(4) 0.2242(4) 0.3277(7)
H6 H 0.696686 0.227731 0.301823
H7 H 0.687212 0.231696 0.363110
O8 O 0.53688(18) 0.14132(18) 0.3162(3)
H8 H 0.5513(7) 0.1241(6) 0.306(2)
H9 H 0.5159(6) 0.1388(9) 0.2989(17)
O9 O 0.3231(2) 0.08811(19) 0.8301(3)
H10 H 0.339271 0.094946 0.855160
O10 O 0.53458(19) 0.1868(2) 0.1950(3)
H11 H 0.5246(8) 0.2067(4) 0.1845(14)
H12 H 0.5182(7) 0.1702(7) 0.196(3)
O11 O 0.2753(2) 0.1201(3) 0.7671(4)
O12 O 0.4975(2) 0.21291(19) 0.3178(3)
H13 H 0.4852(12) 0.2003(14) 0.3432(17)
H14 H 0.4830(10) 0.2208(16) 0.2903(15)
O13 O 0.33243(19) 0.15362(18) 0.8078(3)
O14 O 0.7183(2) 0.3322(3) 0.4157(6)
H15 H 0.729682 0.320435 0.452346
H16 H 0.729561 0.356639 0.419920
O15 O 0.60413(16) 0.18737(16) 0.3770(3)
O16 O 0.6610(2) 0.26633(17) 0.4261(3)
H17 H 0.639807 0.254941 0.438560
H18 H 0.676985 0.261914 0.457310
O17 O 0.62519(17) 0.18882(18) 0.4857(3)
H19 H 0.643273 0.180478 0.466038
H20 H 0.5165(17) 0.2802(8) 0.5639(14)
O18 O 0.58124(18) 0.23585(16) 0.4502(3)
O19 O 0.57067(19) 0.25975(17) 0.2877(4)
O20 O 0.5002(2) 0.2683(2) 0.4079(5)
H21 H 0.5005(10) 0.249(3) 0.384(7)
O21 O 0.59571(16) 0.30553(16) 0.3638(3)
O22 O 0.61809(17) 0.30562(19) 0.2553(3)
H22 H 0.631418 0.322041 0.270261
O26 O 0.36701(16) 0.56764(15) 0.4990(3)
O27 O 0.42681(18) 0.59474(16) 0.4705(3)
O28 O 0.3703(2) 0.60881(17) 0.4067(3)
C2 C 0.4642(4) 0.2810(5) 0.4129(9)
H24 H 0.459183 0.287561 0.455195
H25 H 0.446834 0.262020 0.400011
H26 H 0.461106 0.302384 0.386968
C5 C 0.4115(2) 0.0170(2) 0.4252(4)
C6 C 0.3873(3) 0.0227(3) 0.3775(5)
H29 H 0.377023 0.046192 0.371603
C8 C 0.3419(2) 0.1064(2) 0.7159(4)
C9 C 0.3661(2) 0.0774(2) 0.7157(4)
H31 H 0.368660 0.063014 0.751200
C10 C 0.3871(2) 0.0688(2) 0.6638(4)
H32 H 0.403356 0.048474 0.663975
C11 C 0.3839(2) 0.0906(2) 0.6114(4)
C12 C 0.3592(3) 0.1190(3) 0.6116(5)
H33 H 0.356202 0.133074 0.575831
C13 C 0.3383(3) 0.1276(3) 0.6633(5)
H34 H 0.321725 0.147741 0.662699
C14 C 0.5544(2) 0.1680(2) 0.4625(4)
C15 C 0.5607(2) 0.1323(2) 0.4775(4)
H35 H 0.585444 0.123525 0.479782
C16 C 0.5307(2) 0.1087(2) 0.4896(4)
H36 H 0.535473 0.084349 0.501197
C17 C 0.4941(2) 0.1211(2) 0.4845(4)
C18 C 0.4886(3) 0.1570(3) 0.4699(5)
H37 H 0.463856 0.166020 0.467826
C19 C 0.5182(3) 0.1808(2) 0.4581(4)
H38 H 0.513565 0.205328 0.447175
C20 C 0.4216(2) 0.0472(2) 0.4680(4)
C21 C 0.3981(2) 0.0538(2) 0.5176(4)
C22 C 0.4072(2) 0.0825(2) 0.5574(4)
C23 C 0.4384(2) 0.1043(2) 0.5466(4)
C24 C 0.4616(2) 0.0970(2) 0.4963(4)
C25 C 0.4534(2) 0.0680(2) 0.4576(4)
C26 C 0.3641(2) 0.0316(2) 0.5284(4)
H39 H 0.352488 0.025715 0.489421
H40 H 0.346584 0.045411 0.553454
H41 H 0.370979 0.009192 0.549450
C27 C 0.4477(3) 0.1350(2) 0.5897(4)
H42 H 0.430525 0.155215 0.582934
H43 H 0.473245 0.143076 0.582557
H44 H 0.445262 0.126427 0.631701
C28 C 0.4781(3) 0.0588(2) 0.4039(4)
H45 H 0.493168 0.037389 0.413605
H46 H 0.494543 0.079342 0.395119
H47 H 0.462637 0.053673 0.368315
C29 C 0.5479(2) 0.3283(2) 0.2788(4)
C30 C 0.5113(3) 0.3178(2) 0.2822(5)
H48 H 0.505707 0.293312 0.291706
C31 C 0.4826(3) 0.3416(3) 0.2725(5)
H49 H 0.457615 0.333720 0.277115
C32 C 0.4900(2) 0.3772(2) 0.2558(4)
C33 C 0.5264(2) 0.3876(2) 0.2499(4)
H50 H 0.531916 0.411711 0.237590
C34 C 0.5551(2) 0.3641(2) 0.2613(4)
H51 H 0.580028 0.372238 0.257332
C35 C 0.3989(2) 0.5427(2) 0.3966(4)
C36 C 0.4218(3) 0.5474(2) 0.3460(4)
H52 H 0.432883 0.570367 0.338246
C37 C 0.4284(2) 0.5183(2) 0.3067(4)
H53 H 0.444309 0.521727 0.272754
C38 C 0.4124(2) 0.4852(2) 0.3158(4)
C39 C 0.3889(3) 0.4805(2) 0.3662(4)
H54 H 0.377163 0.457735 0.373153
C40 C 0.3828(3) 0.5095(2) 0.4061(5)
H55 H 0.367205 0.506071 0.440452
C41 C 0.3349(3) 0.3978(3) 0.0283(4)
C42 C 0.3302(3) 0.3772(3) 0.0811(5)
H56 H 0.312252 0.358327 0.082101
C43 C 0.3520(3) 0.3845(3) 0.1327(4)
H57 H 0.348627 0.370548 0.168600
C44 C 0.3785(2) 0.4119(2) 0.1317(4)
C45 C 0.3829(2) 0.4323(2) 0.0783(5)
H58 H 0.400816 0.451272 0.076707
C46 C 0.3612(3) 0.4249(3) 0.0281(4)
C47 C 0.4577(2) 0.4026(2) 0.2434(4)
C48 C 0.4513(2) 0.4322(2) 0.2838(4)
C49 C 0.4195(2) 0.4542(2) 0.2737(4)
C50 C 0.3957(2) 0.4473(2) 0.2250(4)
C51 C 0.4035(2) 0.4184(2) 0.1854(4)
C52 C 0.4342(2) 0.3956(2) 0.1943(4)
C53 C 0.4413(3) 0.3649(3) 0.1508(5)
H60 H 0.467702 0.364389 0.140065
H61 H 0.426374 0.368519 0.114036
H62 H 0.434324 0.341927 0.169980
C54 C 0.4767(3) 0.4387(2) 0.3376(4)
H63 H 0.485854 0.415438 0.352912
H64 H 0.462805 0.451168 0.369793
H65 H 0.497732 0.453795 0.324984
C55 C 0.3618(2) 0.4706(2) 0.2151(5)
H66 H 0.340577 0.460026 0.236642
H67 H 0.356279 0.471932 0.171636
H68 H 0.366606 0.495052 0.230778
Ca7 Ca 0.41052(5) 0.58646(5) 0.58007(11)
Ca8 Ca 0.31404(5) 0.55128(5) 0.54374(11)
Ca9 Ca 0.34900(5) 0.66848(4) 0.41166(10)
Ca10 Ca 0.34900(5) 0.16848(4) 0.91166(10)
O29 O 0.6401(2) 0.10443(17) 0.3360(3)
O30 O 0.60835(17) 0.31300(15) 0.4937(3)
O31 O 0.66746(19) 0.34233(17) 0.5191(3)
O32 O 0.66757(19) 0.34638(18) 0.3078(3)
O33 O 0.67564(18) 0.14864(17) 0.4349(3)
O34 O 0.61701(16) 0.18236(15) 0.2490(3)
O35 O 0.67681(18) 0.15526(16) 0.2205(3)
O36 O 0.6297(2) 0.39119(17) 0.4067(3)
P6 P 0.30827(7) 0.38609(7) 0.96112(13)
O23 O 0.32436(18) 0.35136(17) 0.9349(3)
O24 O 0.2682(2) 0.3846(2) 0.9766(3)
O25 O 0.3156(2) 0.41805(19) 0.9151(3)
H23 H 0.332586 0.412056 0.890912
H59 H 0.364497 0.438942 0.992310
Ca6 Ca 0.33948(5) 0.33646(5) 0.83007(11)
P1 P 0.38168(6) 0.92279(5) 0.29619(12)
O3 O 0.3599(2) 0.89557(17) 0.3360(3)
O5 O 0.35835(17) 0.93700(15) 0.2437(3)
O7 O 0.41746(19) 0.90767(17) 0.2691(3)
C1 C 0.3933(2) 0.9601(2) 0.3460(4)
C3 C 0.4182(3) 0.9545(2) 0.3928(4)
H27 H 0.429535 0.931368 0.397738
C4 C 0.4268(3) 0.9824(2) 0.4327(4)
H28 H 0.443284 0.977926 0.465523
C7 C 0.3777(3) 0.9946(2) 0.3377(4)
H30 H 0.360749 0.998921 0.305376
Ca5 Ca 0.33948(5) 0.83646(5) 0.33007(11)
Ca11 Ca 0.40100(5) 0.91848(4) 0.16166(10)
Ca12 Ca 0.30641(5) 0.95699(4) 0.19821(11)
P1_2 P 0.61832(6) 0.07721(5) 0.29619(12)
O5_2 O 0.64165(17) 0.06300(15) 0.2437(3)
O7_2 O 0.58254(19) 0.09233(17) 0.2691(3)
C1_2 C 0.6067(2) 0.0399(2) 0.3460(4)
C3_2 C 0.5818(3) 0.0455(2) 0.3928(4)
H27_2 H 0.570465 0.068632 0.397738
C4_2 C 0.5732(3) 0.0176(2) 0.4327(4)
H28_2 H 0.556716 0.022074 0.465523
C7_2 C 0.6223(3) 0.0054(2) 0.3377(4)
H30_2 H 0.639251 0.001079 0.305376
Ca11_2 Ca 0.59900(5) 0.08152(4) 0.16166(10)
Ca12_2 Ca 0.69359(5) 0.04301(4) 0.19821(11)
Ca2_2 Ca 0.43596(5) 0.80128(5) 0.29374(11)
Ca4_2 Ca 0.44359(5) 0.70699(4) 0.44821(11)
O1_2 O 0.4760(3) 0.7024(3) 0.5416(5)
H1_2 H 0.4672(13) 0.6856(10) 0.5637(13)
O2_2 O 0.47144(17) 0.64898(16) 0.4344(3)
H2_2 H 0.4558(6) 0.6321(5) 0.4404(15)
H3_2 H 0.4923(5) 0.6432(11) 0.450(2)
P2_2 P 0.68402(6) 0.88105(7) 0.78276(14)
P3_2 P 0.40740(6) 0.80288(5) 0.44156(12)
P4_2 P 0.41542(6) 0.70259(6) 0.29920(12)
P5_2 P 0.60968(6) 0.41922(5) 0.44576(12)
O4_2 O 0.2715(3) 0.8348(3) 0.3230(6)
H4_2 H 0.2586(17) 0.8231(10) 0.349(2)
H5_2 H 0.2636(8) 0.8565(5) 0.320(3)
O6_2 O 0.3221(4) 0.7758(4) 0.3277(7)
H6_2 H 0.303314 0.772269 0.301823
H7_2 H 0.312788 0.768304 0.363110
O8_2 O 0.46312(18) 0.85868(18) 0.3162(3)
H8_2 H 0.4487(7) 0.8759(6) 0.306(2)
H9_2 H 0.4841(6) 0.8612(9) 0.2989(17)
O9_2 O 0.6769(2) 0.91189(19) 0.8301(3)
H10_2 H 0.660729 0.905054 0.855160
O10_2 O 0.46542(19) 0.8132(2) 0.1950(3)
H11_2 H 0.4754(8) 0.7933(4) 0.1845(14)
H12_2 H 0.4818(7) 0.8298(7) 0.196(3)
O11_2 O 0.7247(2) 0.8799(3) 0.7671(4)
O12_2 O 0.5025(2) 0.78709(19) 0.3178(3)
H13_2 H 0.5148(12) 0.7997(14) 0.3432(17)
H14_2 H 0.5170(10) 0.7792(16) 0.2903(15)
O13_2 O 0.66757(19) 0.84638(18) 0.8078(3)
O14_2 O 0.2817(2) 0.6678(3) 0.4157(6)
H15_2 H 0.270318 0.679565 0.452346
H16_2 H 0.270439 0.643361 0.419920
O15_2 O 0.39587(16) 0.81263(16) 0.3770(3)
O16_2 O 0.3390(2) 0.73367(17) 0.4261(3)
H17_2 H 0.360193 0.745059 0.438560
H18_2 H 0.323015 0.738086 0.457310
O17_2 O 0.37481(17) 0.81118(18) 0.4857(3)
H19_2 H 0.356727 0.819522 0.466038
H20_2 H 0.4835(17) 0.7198(8) 0.5639(14)
O18_2 O 0.41876(18) 0.76415(16) 0.4502(3)
O19_2 O 0.42933(19) 0.74025(17) 0.2877(4)
O20_2 O 0.4998(2) 0.7317(2) 0.4079(5)
H21_2 H 0.4995(10) 0.751(3) 0.384(7)
O21_2 O 0.40429(16) 0.69447(16) 0.3638(3)
O22_2 O 0.38191(17) 0.69438(19) 0.2553(3)
H22_2 H 0.368582 0.677959 0.270261
O26_2 O 0.63299(16) 0.43236(15) 0.4990(3)
O27_2 O 0.57319(18) 0.40526(16) 0.4705(3)
C2_2 C 0.5358(4) 0.7190(5) 0.4129(9)
H24_2 H 0.540817 0.712439 0.455195
H25_2 H 0.553166 0.737980 0.400011
H26_2 H 0.538894 0.697616 0.386968
C5_2 C 0.5885(2) 0.9830(2) 0.4252(4)
C6_2 C 0.6127(3) 0.9773(3) 0.3775(5)
H29_2 H 0.622977 0.953808 0.371603
C8_2 C 0.6581(2) 0.8936(2) 0.7159(4)
C9_2 C 0.6339(2) 0.9226(2) 0.7157(4)
H31_2 H 0.631340 0.936986 0.751200
C10_2 C 0.6129(2) 0.9312(2) 0.6638(4)
H32_2 H 0.596644 0.951526 0.663975
C11_2 C 0.6161(2) 0.9094(2) 0.6114(4)
C12_2 C 0.6408(3) 0.8810(3) 0.6116(5)
H33_2 H 0.643798 0.866926 0.575831
C13_2 C 0.6617(3) 0.8724(3) 0.6633(5)
H34_2 H 0.678275 0.852259 0.662699
C14_2 C 0.4456(2) 0.8320(2) 0.4625(4)
C15_2 C 0.4393(2) 0.8677(2) 0.4775(4)
H35_2 H 0.414556 0.876475 0.479782
C16_2 C 0.4693(2) 0.8913(2) 0.4896(4)
H36_2 H 0.464527 0.915651 0.501197
C17_2 C 0.5059(2) 0.8789(2) 0.4845(4)
C18_2 C 0.5114(3) 0.8430(3) 0.4699(5)
H37_2 H 0.536144 0.833980 0.467826
C19_2 C 0.4818(3) 0.8192(2) 0.4581(4)
H38_2 H 0.486435 0.794672 0.447175
C20_2 C 0.5784(2) 0.9528(2) 0.4680(4)
C21_2 C 0.6019(2) 0.9462(2) 0.5176(4)
C22_2 C 0.5928(2) 0.9175(2) 0.5574(4)
C23_2 C 0.5616(2) 0.8957(2) 0.5466(4)
C24_2 C 0.5384(2) 0.9030(2) 0.4963(4)
C25_2 C 0.5466(2) 0.9320(2) 0.4576(4)
C26_2 C 0.6359(2) 0.9684(2) 0.5284(4)
H39_2 H 0.647512 0.974285 0.489421
H40_2 H 0.653416 0.954589 0.553454
H41_2 H 0.629021 0.990808 0.549450
C27_2 C 0.5523(3) 0.8650(2) 0.5897(4)
H42_2 H 0.569475 0.844785 0.582934
H43_2 H 0.526755 0.856924 0.582557
H44_2 H 0.554738 0.873573 0.631701
C28_2 C 0.5219(3) 0.9412(2) 0.4039(4)
H45_2 H 0.506832 0.962611 0.413605
H46_2 H 0.505457 0.920658 0.395119
H47_2 H 0.537363 0.946327 0.368315
C29_2 C 0.4521(2) 0.6717(2) 0.2788(4)
C30_2 C 0.4887(3) 0.6822(2) 0.2822(5)
H48_2 H 0.494293 0.706688 0.291706
C31_2 C 0.5174(3) 0.6584(3) 0.2725(5)
H49_2 H 0.542385 0.666280 0.277115
C32_2 C 0.5100(2) 0.6228(2) 0.2558(4)
C33_2 C 0.4736(2) 0.6124(2) 0.2499(4)
H50_2 H 0.468084 0.588289 0.237590
C34_2 C 0.4449(2) 0.6359(2) 0.2613(4)
H51_2 H 0.419972 0.627762 0.257332
C35_2 C 0.6011(2) 0.4573(2) 0.3966(4)
C36_2 C 0.5782(3) 0.4526(2) 0.3460(4)
H52_2 H 0.567117 0.429633 0.338246
C37_2 C 0.5716(2) 0.4817(2) 0.3067(4)
H53_2 H 0.555691 0.478273 0.272754
C38_2 C 0.5876(2) 0.5148(2) 0.3158(4)
C39_2 C 0.6111(3) 0.5195(2) 0.3662(4)
H54_2 H 0.622837 0.542265 0.373153
C40_2 C 0.6172(3) 0.4905(2) 0.4061(5)
H55_2 H 0.632795 0.493929 0.440452
C41_2 C 0.6651(3) 0.6022(3) 0.0283(4)
C42_2 C 0.6698(3) 0.6228(3) 0.0811(5)
H56_2 H 0.687748 0.641673 0.082101
C43_2 C 0.6480(3) 0.6155(3) 0.1327(4)
H57_2 H 0.651373 0.629452 0.168600
C44_2 C 0.6215(2) 0.5881(2) 0.1317(4)
C45_2 C 0.6171(2) 0.5677(2) 0.0783(5)
H58_2 H 0.599184 0.548728 0.076707
C46_2 C 0.6388(3) 0.5751(3) 0.0281(4)
C47_2 C 0.5423(2) 0.5974(2) 0.2434(4)
C48_2 C 0.5487(2) 0.5678(2) 0.2838(4)
C49_2 C 0.5805(2) 0.5458(2) 0.2737(4)
C50_2 C 0.6043(2) 0.5527(2) 0.2250(4)
C51_2 C 0.5965(2) 0.5816(2) 0.1854(4)
C52_2 C 0.5658(2) 0.6044(2) 0.1943(4)
C53_2 C 0.5587(3) 0.6351(3) 0.1508(5)
H60_2 H 0.532298 0.635611 0.140065
H61_2 H 0.573626 0.631481 0.114036
H62_2 H 0.565676 0.658073 0.169980
C54_2 C 0.5233(3) 0.5613(2) 0.3376(4)
H63_2 H 0.514146 0.584562 0.352912
H64_2 H 0.537195 0.548832 0.369793
H65_2 H 0.502268 0.546205 0.324984
C55_2 C 0.6382(2) 0.5294(2) 0.2151(5)
H66_2 H 0.659423 0.539974 0.236642
H67_2 H 0.643721 0.528068 0.171636
H68_2 H 0.633394 0.504948 0.230778
Ca7_2 Ca 0.58948(5) 0.41354(5) 0.58007(11)
Ca8_2 Ca 0.68596(5) 0.44872(5) 0.54374(11)
Ca10_2 Ca 0.65100(5) 0.83152(4) 0.91166(10)
O30_2 O 0.39165(17) 0.68700(15) 0.4937(3)
O31_2 O 0.33254(19) 0.65767(17) 0.5191(3)
O32_2 O 0.33243(19) 0.65362(18) 0.3078(3)
O33_2 O 0.32436(18) 0.85136(17) 0.4349(3)
O34_2 O 0.38299(16) 0.81764(15) 0.2490(3)
O35_2 O 0.32319(18) 0.84474(16) 0.2205(3)
P6_2 P 0.69173(7) 0.61391(7) 0.96112(13)
O23_2 O 0.67564(18) 0.64864(17) 0.9349(3)
O24_2 O 0.7318(2) 0.6154(2) 0.9766(3)
O25_2 O 0.6844(2) 0.58195(19) 0.9151(3)
H23_2 H 0.667414 0.587944 0.890912
H59_2 H 0.635503 0.561058 0.992310
Ca6_2 Ca 0.66052(5) 0.66354(5) 0.83007(11)
P2_3 P 0.56598(6) 0.13105(7) 0.03276(14)
O9_3 O 0.5731(2) 0.16189(19) 0.0801(3)
H10_3 H 0.589271 0.155054 0.105160
O11_3 O 0.5253(2) 0.1299(3) 0.0171(4)
O13_3 O 0.58243(19) 0.09638(18) 0.0578(3)
H31_3 H 0.618660 0.186986 0.001200
Ca1_2 Ca 0.91052(5) 0.08646(5) 0.58007(11)
Ca2_3 Ca 0.81404(5) 0.05128(5) 0.54374(11)
P1_3 P 0.63168(6) 0.32721(5) 0.54619(12)
P3_3 P 0.84260(6) 0.05288(5) 0.69156(12)
O3_2 O 0.6099(2) 0.35443(17) 0.5860(3)
O4_3 O 0.9785(3) 0.0848(3) 0.5730(6)
H4_3 H 0.9914(17) 0.0731(10) 0.599(2)
H5_3 H 0.9864(8) 0.1065(5) 0.570(3)
O6_3 O 0.9279(4) 0.0258(4) 0.5777(7)
H6_3 H 0.946686 0.022269 0.551823
H7_3 H 0.937212 0.018304 0.613110
O8_3 O 0.78688(18) 0.10868(18) 0.5662(3)
H8_3 H 0.8013(7) 0.1259(6) 0.556(2)
H9_3 H 0.7659(6) 0.1112(9) 0.5489(17)
O10_3 O 0.78458(19) 0.0632(2) 0.4450(3)
H11_3 H 0.7746(8) 0.0433(4) 0.4345(14)
H12_3 H 0.7682(7) 0.0798(7) 0.446(3)
O12_3 O 0.7475(2) 0.03709(19) 0.5678(3)
H13_3 H 0.7352(12) 0.0497(14) 0.5932(17)
H14_3 H 0.7330(10) 0.0292(16) 0.5403(15)
O15_3 O 0.85413(16) 0.06263(16) 0.6270(3)
O17_3 O 0.87519(17) 0.06118(18) 0.7357(3)
H19_3 H 0.893273 0.069522 0.716038
O18_3 O 0.83124(18) 0.01415(16) 0.7002(3)
H21_3 H 0.7505(10) 0.001(3) 0.634(7)
C1_3 C 0.6433(2) 0.2899(2) 0.5960(4)
C3_3 C 0.6682(3) 0.2955(2) 0.6428(4)
H27_3 H 0.679535 0.318632 0.647738
C4_3 C 0.6768(3) 0.2676(2) 0.6827(4)
H28_3 H 0.693284 0.272074 0.715523
C5_3 C 0.6615(2) 0.2330(2) 0.6752(4)
C6_3 C 0.6373(3) 0.2273(3) 0.6275(5)
H29_3 H 0.627023 0.203808 0.621603
C7_3 C 0.6277(3) 0.2554(2) 0.5877(4)
H30_3 H 0.610749 0.251079 0.555376
C8_3 C 0.5919(2) 0.1436(2) 0.9659(4)
C9_3 C 0.6161(2) 0.1726(2) 0.9657(4)
C10_3 C 0.6371(2) 0.1812(2) 0.9138(4)
H32_3 H 0.653356 0.201526 0.913975
C11_3 C 0.6339(2) 0.1594(2) 0.8614(4)
C12_3 C 0.6092(3) 0.1310(3) 0.8616(5)
H33_3 H 0.606202 0.116926 0.825831
C13_3 C 0.5883(3) 0.1224(3) 0.9133(5)
H34_3 H 0.571725 0.102259 0.912699
C14_3 C 0.8044(2) 0.0820(2) 0.7125(4)
C15_3 C 0.8107(2) 0.1177(2) 0.7275(4)
H35_3 H 0.835444 0.126475 0.729782
C16_3 C 0.7807(2) 0.1413(2) 0.7396(4)
H36_3 H 0.785473 0.165651 0.751197
C17_3 C 0.7441(2) 0.1289(2) 0.7345(4)
C18_3 C 0.7386(3) 0.0930(3) 0.7199(5)
H37_3 H 0.713856 0.083980 0.717826
C19_3 C 0.7682(3) 0.0692(2) 0.7081(4)
H38_3 H 0.763565 0.044672 0.697175
C20_3 C 0.6716(2) 0.2028(2) 0.7180(4)
C21_3 C 0.6481(2) 0.1962(2) 0.7676(4)
C22_3 C 0.6572(2) 0.1675(2) 0.8074(4)
C23_3 C 0.6884(2) 0.1457(2) 0.7966(4)
C24_3 C 0.7116(2) 0.1530(2) 0.7463(4)
C25_3 C 0.7034(2) 0.1820(2) 0.7076(4)
C26_3 C 0.6141(2) 0.2184(2) 0.7784(4)
H39_3 H 0.602488 0.224285 0.739421
H40_3 H 0.596584 0.204589 0.803454
H41_3 H 0.620979 0.240808 0.799450
C27_3 C 0.6977(3) 0.1150(2) 0.8397(4)
H42_3 H 0.680525 0.094785 0.832934
H43_3 H 0.723245 0.106924 0.832557
H44_3 H 0.695262 0.123573 0.881701
C28_3 C 0.7281(3) 0.1912(2) 0.6539(4)
H45_3 H 0.743168 0.212611 0.663605
H46_3 H 0.744543 0.170658 0.645119
H47_3 H 0.712637 0.196327 0.618315
O29_2 O 0.8901(2) 0.14557(17) 0.5860(3)
O33_3 O 0.92564(18) 0.10136(17) 0.6849(3)
O34_3 O 0.86701(16) 0.06764(15) 0.4990(3)
O35_3 O 0.92681(18) 0.09474(16) 0.4705(3)
Ca3_2 Ca 0.90100(5) 0.91848(4) 0.66166(10)
Ca4_3 Ca 0.80641(5) 0.95699(4) 0.69821(11)
O1_3 O 0.7740(3) 0.9524(3) 0.7916(5)
H1_3 H 0.7828(13) 0.9356(10) 0.8137(13)
O2_3 O 0.77856(17) 0.89898(16) 0.6844(3)
H2_3 H 0.7942(6) 0.8821(5) 0.6904(15)
H3_3 H 0.7577(5) 0.8932(11) 0.700(2)
P4_3 P 0.83458(6) 0.95259(6) 0.54920(12)
P5_3 P 0.64032(6) 0.66922(5) 0.69576(12)
P6_3 P 0.55827(7) 0.86391(7) 0.21112(13)
O14_3 O 0.9683(2) 0.9178(3) 0.6657(6)
H15_3 H 0.979682 0.929565 0.702346
H16_3 H 0.979561 0.893361 0.669920
O16_3 O 0.9110(2) 0.98367(17) 0.6761(3)
H17_3 H 0.889807 0.995059 0.688560
H18_3 H 0.926985 0.988086 0.707310
H20_3 H 0.7665(17) 0.9698(8) 0.8139(14)
O19_3 O 0.82067(19) 0.99025(17) 0.5377(4)
O20_3 O 0.7502(2) 0.9817(2) 0.6579(5)
O21_3 O 0.84571(16) 0.94447(16) 0.6138(3)
O22_3 O 0.86809(17) 0.94438(19) 0.5053(3)
H22_3 H 0.881418 0.927959 0.520261
O23_3 O 0.57436(18) 0.89864(17) 0.1849(3)
O24_3 O 0.5182(2) 0.8654(2) 0.2266(3)
O25_3 O 0.5656(2) 0.83195(19) 0.1651(3)
H23_3 H 0.582586 0.837944 0.140912
O26_3 O 0.61701(16) 0.68236(15) 0.7490(3)
O27_3 O 0.67681(18) 0.65526(16) 0.7205(3)
O28_2 O 0.6203(2) 0.64119(17) 0.6567(3)
C2_3 C 0.7142(4) 0.9690(5) 0.6629(9)
H24_3 H 0.709183 0.962439 0.705195
H25_3 H 0.696834 0.987980 0.650011
H26_3 H 0.711106 0.947616 0.636968
C29_3 C 0.7979(2) 0.9217(2) 0.5288(4)
C30_3 C 0.7613(3) 0.9322(2) 0.5322(5)
H48_3 H 0.755707 0.956688 0.541706
C31_3 C 0.7326(3) 0.9084(3) 0.5225(5)
H49_3 H 0.707615 0.916280 0.527115
C32_3 C 0.7400(2) 0.8728(2) 0.5058(4)
C33_3 C 0.7764(2) 0.8624(2) 0.4999(4)
H50_3 H 0.781916 0.838289 0.487590
C34_3 C 0.8051(2) 0.8859(2) 0.5113(4)
H51_3 H 0.830028 0.877762 0.507332
C35_3 C 0.6489(2) 0.7073(2) 0.6466(4)
C36_3 C 0.6718(3) 0.7026(2) 0.5960(4)
H52_3 H 0.682883 0.679633 0.588246
C37_3 C 0.6784(2) 0.7317(2) 0.5567(4)
H53_3 H 0.694309 0.728273 0.522754
C38_3 C 0.6624(2) 0.7648(2) 0.5658(4)
C39_3 C 0.6389(3) 0.7695(2) 0.6162(4)
H54_3 H 0.627163 0.792265 0.623153
C40_3 C 0.6328(3) 0.7405(2) 0.6561(5)
H55_3 H 0.617205 0.743929 0.690452
C41_3 C 0.5849(3) 0.8522(3) 0.2783(4)
C42_3 C 0.5802(3) 0.8728(3) 0.3311(5)
H56_3 H 0.562252 0.891673 0.332101
C43_3 C 0.6020(3) 0.8655(3) 0.3827(4)
H57_3 H 0.598627 0.879452 0.418600
C44_3 C 0.6285(2) 0.8381(2) 0.3817(4)
C45_3 C 0.6329(2) 0.8177(2) 0.3283(5)
H58_3 H 0.650816 0.798728 0.326707
C46_3 C 0.6112(3) 0.8251(3) 0.2781(4)
H59_3 H 0.614497 0.811058 0.242310
C47_3 C 0.7077(2) 0.8474(2) 0.4934(4)
C48_3 C 0.7013(2) 0.8178(2) 0.5338(4)
C49_3 C 0.6695(2) 0.7958(2) 0.5237(4)
C50_3 C 0.6457(2) 0.8027(2) 0.4750(4)
C51_3 C 0.6535(2) 0.8316(2) 0.4354(4)
C52_3 C 0.6842(2) 0.8544(2) 0.4443(4)
C53_3 C 0.6913(3) 0.8851(3) 0.4008(5)
H60_3 H 0.717702 0.885611 0.390065
H61_3 H 0.676374 0.881481 0.364036
H62_3 H 0.684324 0.908073 0.419980
C54_3 C 0.7267(3) 0.8113(2) 0.5876(4)
H63_3 H 0.735854 0.834562 0.602912
H64_3 H 0.712805 0.798832 0.619793
H65_3 H 0.747732 0.796205 0.574984
C55_3 C 0.6118(2) 0.7794(2) 0.4651(5)
H66_3 H 0.590577 0.789974 0.486642
H67_3 H 0.606279 0.778068 0.421636
H68_3 H 0.616606 0.754948 0.480778
Ca6_3 Ca 0.58948(5) 0.91354(5) 0.08007(11)
Ca8_3 Ca 0.56404(5) 0.69872(5) 0.79374(11)
Ca9_2 Ca 0.59900(5) 0.58152(4) 0.66166(10)
O30_3 O 0.85835(17) 0.93700(15) 0.7437(3)
O31_3 O 0.91746(19) 0.90767(17) 0.7691(3)
O32_3 O 0.91757(19) 0.90362(18) 0.5578(3)
O36_2 O 0.8797(2) 0.85881(17) 0.6567(3)
P2_4 P 0.93402(6) 0.36895(7) 0.03276(14)
O9_4 O 0.9269(2) 0.33811(19) 0.0801(3)
H10_4 H 0.910729 0.344946 0.105160
O11_4 O 0.9747(2) 0.3701(3) 0.0171(4)
O13_4 O 0.91757(19) 0.40362(18) 0.0578(3)
H31_4 H 0.881340 0.313014 0.001200
Ca10_3 Ca 0.90100(5) 0.41848(4) 0.16166(10)
Ca4_4 Ca 0.69359(5) 0.54301(4) 0.69821(11)
O1_4 O 0.7260(3) 0.5476(3) 0.7916(5)
H1_4 H 0.7172(13) 0.5644(10) 0.8137(13)
O2_4 O 0.72144(17) 0.60102(16) 0.6844(3)
H2_4 H 0.7058(6) 0.6179(5) 0.6904(15)
H3_4 H 0.7423(5) 0.6068(11) 0.700(2)
P1_4 P 0.86832(6) 0.17279(5) 0.54619(12)
P3_4 P 0.65740(6) 0.44712(5) 0.69156(12)
P4_4 P 0.66542(6) 0.54741(6) 0.54920(12)
P5_4 P 0.85968(6) 0.83078(5) 0.69576(12)
P6_4 P 0.94173(7) 0.63609(7) 0.21112(13)
O4_4 O 0.5215(3) 0.4152(3) 0.5730(6)
H4_4 H 0.5086(17) 0.4269(10) 0.599(2)
H5_4 H 0.5136(8) 0.3935(5) 0.570(3)
O5_3 O 0.89165(17) 0.18700(15) 0.4937(3)
O6_4 O 0.5721(4) 0.4742(4) 0.5777(7)
H6_4 H 0.553314 0.477731 0.551823
H7_4 H 0.562788 0.481696 0.613110
O7_3 O 0.83254(19) 0.15767(17) 0.5191(3)
O8_4 O 0.71312(18) 0.39132(18) 0.5662(3)
H8_4 H 0.6987(7) 0.3741(6) 0.556(2)
H9_4 H 0.7341(6) 0.3888(9) 0.5489(17)
O10_4 O 0.71542(19) 0.4368(2) 0.4450(3)
H11_4 H 0.7254(8) 0.4567(4) 0.4345(14)
H12_4 H 0.7318(7) 0.4202(7) 0.446(3)
O12_4 O 0.7525(2) 0.46291(19) 0.5678(3)
H13_4 H 0.7648(12) 0.4503(14) 0.5932(17)
H14_4 H 0.7670(10) 0.4708(16) 0.5403(15)
O14_4 O 0.5317(2) 0.5822(3) 0.6657(6)
H15_4 H 0.520318 0.570435 0.702346
H16_4 H 0.520439 0.606639 0.669920
O15_4 O 0.64587(16) 0.43737(16) 0.6270(3)
O16_4 O 0.5890(2) 0.51633(17) 0.6761(3)
H17_4 H 0.610193 0.504941 0.688560
H18_4 H 0.573015 0.511914 0.707310
O17_4 O 0.62481(17) 0.43882(18) 0.7357(3)
H19_4 H 0.606727 0.430478 0.716038
H20_4 H 0.7335(17) 0.5302(8) 0.8139(14)
O18_4 O 0.66876(18) 0.48585(16) 0.7002(3)
O19_4 O 0.67933(19) 0.50975(17) 0.5377(4)
O20_4 O 0.7498(2) 0.5183(2) 0.6579(5)
H21_4 H 0.7495(10) 0.499(3) 0.634(7)
O21_4 O 0.65429(16) 0.55553(16) 0.6138(3)
O22_4 O 0.63191(17) 0.55562(19) 0.5053(3)
H22_4 H 0.618582 0.572041 0.520261
O23_4 O 0.92564(18) 0.60136(17) 0.1849(3)
O24_4 O 0.9818(2) 0.6346(2) 0.2266(3)
O25_4 O 0.9344(2) 0.66805(19) 0.1651(3)
H23_4 H 0.917414 0.662056 0.140912
O26_4 O 0.88299(16) 0.81764(15) 0.7490(3)
O27_4 O 0.82319(18) 0.84474(16) 0.7205(3)
C1_4 C 0.8567(2) 0.2101(2) 0.5960(4)
C2_4 C 0.7858(4) 0.5310(5) 0.6629(9)
H24_4 H 0.790817 0.537561 0.705195
H25_4 H 0.803166 0.512020 0.650011
H26_4 H 0.788894 0.552384 0.636968
C3_4 C 0.8318(3) 0.2045(2) 0.6428(4)
H27_4 H 0.820465 0.181368 0.647738
C4_4 C 0.8232(3) 0.2324(2) 0.6827(4)
H28_4 H 0.806716 0.227926 0.715523
C5_4 C 0.8385(2) 0.2670(2) 0.6752(4)
C6_4 C 0.8627(3) 0.2727(3) 0.6275(5)
H29_4 H 0.872977 0.296192 0.621603
C7_4 C 0.8723(3) 0.2446(2) 0.5877(4)
H30_4 H 0.889251 0.248921 0.555376
C8_4 C 0.9081(2) 0.3564(2) 0.9659(4)
C9_4 C 0.8839(2) 0.3274(2) 0.9657(4)
C10_4 C 0.8629(2) 0.3188(2) 0.9138(4)
H32_4 H 0.846644 0.298474 0.913975
C11_4 C 0.8661(2) 0.3406(2) 0.8614(4)
C12_4 C 0.8908(3) 0.3690(3) 0.8616(5)
H33_4 H 0.893798 0.383074 0.825831
C13_4 C 0.9117(3) 0.3776(3) 0.9133(5)
H34_4 H 0.928275 0.397741 0.912699
C14_4 C 0.6956(2) 0.4180(2) 0.7125(4)
C15_4 C 0.6893(2) 0.3823(2) 0.7275(4)
H35_4 H 0.664556 0.373525 0.729782
C16_4 C 0.7193(2) 0.3587(2) 0.7396(4)
H36_4 H 0.714527 0.334349 0.751197
C17_4 C 0.7559(2) 0.3711(2) 0.7345(4)
C18_4 C 0.7614(3) 0.4070(3) 0.7199(5)
H37_4 H 0.786144 0.416020 0.717826
C19_4 C 0.7318(3) 0.4308(2) 0.7081(4)
H38_4 H 0.736435 0.455328 0.697175
C20_4 C 0.8284(2) 0.2972(2) 0.7180(4)
C21_4 C 0.8519(2) 0.3038(2) 0.7676(4)
C22_4 C 0.8428(2) 0.3325(2) 0.8074(4)
C23_4 C 0.8116(2) 0.3543(2) 0.7966(4)
C24_4 C 0.7884(2) 0.3470(2) 0.7463(4)
C25_4 C 0.7966(2) 0.3180(2) 0.7076(4)
C26_4 C 0.8859(2) 0.2816(2) 0.7784(4)
H39_4 H 0.897512 0.275715 0.739421
H40_4 H 0.903416 0.295411 0.803454
H41_4 H 0.879021 0.259192 0.799450
C27_4 C 0.8023(3) 0.3850(2) 0.8397(4)
H42_4 H 0.819475 0.405215 0.832934
H43_4 H 0.776755 0.393076 0.832557
H44_4 H 0.804738 0.376427 0.881701
C28_4 C 0.7719(3) 0.3088(2) 0.6539(4)
H45_4 H 0.756832 0.287389 0.663605
H46_4 H 0.755457 0.329342 0.645119
H47_4 H 0.787363 0.303673 0.618315
C29_4 C 0.7021(2) 0.5783(2) 0.5288(4)
C30_4 C 0.7387(3) 0.5678(2) 0.5322(5)
H48_4 H 0.744293 0.543312 0.541706
C31_4 C 0.7674(3) 0.5916(3) 0.5225(5)
H49_4 H 0.792385 0.583720 0.527115
C32_4 C 0.7600(2) 0.6272(2) 0.5058(4)
C33_4 C 0.7236(2) 0.6376(2) 0.4999(4)
H50_4 H 0.718084 0.661711 0.487590
C34_4 C 0.6949(2) 0.6141(2) 0.5113(4)
H51_4 H 0.669972 0.622238 0.507332
C35_4 C 0.8511(2) 0.7927(2) 0.6466(4)
C36_4 C 0.8282(3) 0.7974(2) 0.5960(4)
H52_4 H 0.817117 0.820367 0.588246
C37_4 C 0.8216(2) 0.7683(2) 0.5567(4)
H53_4 H 0.805691 0.771727 0.522754
C38_4 C 0.8376(2) 0.7352(2) 0.5658(4)
C39_4 C 0.8611(3) 0.7305(2) 0.6162(4)
H54_4 H 0.872837 0.707735 0.623153
C40_4 C 0.8672(3) 0.7595(2) 0.6561(5)
H55_4 H 0.882795 0.756071 0.690452
C41_4 C 0.9151(3) 0.6478(3) 0.2783(4)
C42_4 C 0.9198(3) 0.6272(3) 0.3311(5)
H56_4 H 0.937748 0.608327 0.332101
C43_4 C 0.8980(3) 0.6345(3) 0.3827(4)
H57_4 H 0.901373 0.620548 0.418600
C44_4 C 0.8715(2) 0.6619(2) 0.3817(4)
C45_4 C 0.8671(2) 0.6823(2) 0.3283(5)
H58_4 H 0.849184 0.701272 0.326707
C46_4 C 0.8888(3) 0.6749(3) 0.2781(4)
H59_4 H 0.885503 0.688942 0.242310
C47_4 C 0.7923(2) 0.6526(2) 0.4934(4)
C48_4 C 0.7987(2) 0.6822(2) 0.5338(4)
C49_4 C 0.8305(2) 0.7042(2) 0.5237(4)
C50_4 C 0.8543(2) 0.6973(2) 0.4750(4)
C51_4 C 0.8465(2) 0.6684(2) 0.4354(4)
C52_4 C 0.8158(2) 0.6456(2) 0.4443(4)
C53_4 C 0.8087(3) 0.6149(3) 0.4008(5)
H60_4 H 0.782298 0.614389 0.390065
H61_4 H 0.823626 0.618519 0.364036
H62_4 H 0.815676 0.591927 0.419980
C54_4 C 0.7733(3) 0.6887(2) 0.5876(4)
H63_4 H 0.764146 0.665438 0.602912
H64_4 H 0.787195 0.701168 0.619793
H65_4 H 0.752268 0.703795 0.574984
C55_4 C 0.8882(2) 0.7206(2) 0.4651(5)
H66_4 H 0.909423 0.710026 0.486642
H67_4 H 0.893721 0.721932 0.421636
H68_4 H 0.883394 0.745052 0.480778
Ca6_4 Ca 0.91052(5) 0.58646(5) 0.08007(11)
Ca7_3 Ca 0.83948(5) 0.83646(5) 0.83007(11)
Ca8_4 Ca 0.93596(5) 0.80128(5) 0.79374(11)
Ca11_3 Ca 0.84900(5) 0.16848(4) 0.41166(10)
Ca12_3 Ca 0.94359(5) 0.20699(4) 0.44821(11)
O30_4 O 0.64165(17) 0.56300(15) 0.7437(3)
O31_4 O 0.58254(19) 0.59233(17) 0.7691(3)
O32_4 O 0.58243(19) 0.59638(18) 0.5578(3)
O33_4 O 0.57436(18) 0.39864(17) 0.6849(3)
Ca7_4 Ca 0.41052(5) 0.08646(5) 0.08007(11)
Ca8_5 Ca 0.31404(5) 0.05128(5) 0.04374(11)
P5_5 P 0.39032(6) 0.08078(5) 0.94576(12)
O26_5 O 0.36701(16) 0.06764(15) 0.9990(3)
O27_5 O 0.42681(18) 0.09474(16) 0.9705(3)
O28_3 O 0.3703(2) 0.10881(17) 0.9067(3)
C35_5 C 0.3989(2) 0.0427(2) 0.8966(4)
C36_5 C 0.4218(3) 0.0474(2) 0.8460(4)
H52_5 H 0.432883 0.070367 0.838246
C37_5 C 0.4284(2) 0.0183(2) 0.8067(4)
H53_5 H 0.444309 0.021727 0.772754
C40_5 C 0.3828(3) 0.0095(2) 0.9061(5)
H55_5 H 0.367205 0.006071 0.940452
O1_5 O 0.5240(3) 0.7976(3) 0.0416(5)
H1_5 H 0.5328(13) 0.8144(10) 0.0637(13)
P2_5 P 0.31598(6) 0.61895(7) 0.28276(14)
O9_5 O 0.3231(2) 0.58811(19) 0.3301(3)
H10_5 H 0.339271 0.594946 0.355160
O11_5 O 0.2753(2) 0.6201(3) 0.2671(4)
H20_5 H 0.5165(17) 0.7802(8) 0.0639(14)
C8_5 C 0.3419(2) 0.6064(2) 0.2159(4)
C9_5 C 0.3661(2) 0.5774(2) 0.2157(4)
H31_5 H 0.368660 0.563014 0.251200
C10_5 C 0.3871(2) 0.5688(2) 0.1638(4)
H32_5 H 0.403356 0.548474 0.163975
C11_5 C 0.3839(2) 0.5906(2) 0.1114(4)
C12_5 C 0.3592(3) 0.6190(3) 0.1116(5)
H33_5 H 0.356202 0.633074 0.075831
C13_5 C 0.3383(3) 0.6276(3) 0.1633(5)
H34_5 H 0.321725 0.647741 0.162699
H36_5 H 0.535473 0.584349 0.001197
C21_5 C 0.3981(2) 0.5538(2) 0.0176(4)
C22_5 C 0.4072(2) 0.5825(2) 0.0574(4)
C23_5 C 0.4384(2) 0.6043(2) 0.0466(4)
C26_5 C 0.3641(2) 0.5316(2) 0.0284(4)
H40_5 H 0.346584 0.545411 0.053454
H41_5 H 0.370979 0.509192 0.049450
C27_5 C 0.4477(3) 0.6350(2) 0.0897(4)
H42_5 H 0.430525 0.655215 0.082934
H43_5 H 0.473245 0.643076 0.082557
H44_5 H 0.445262 0.626427 0.131701
O31_5 O 0.66746(19) 0.84233(17) 0.0191(3)
Ca4_5 Ca 0.55641(5) 0.79301(4) 0.94821(11)
O2_5 O 0.52856(17) 0.85102(16) 0.9344(3)
H2_5 H 0.5442(6) 0.8679(5) 0.9404(15)
H3_5 H 0.5077(5) 0.8568(11) 0.950(2)
P1_5 P 0.38168(6) 0.42279(5) 0.79619(12)
P3_5 P 0.59260(6) 0.69712(5) 0.94156(12)
P4_5 P 0.58458(6) 0.79741(6) 0.79920(12)
P6_5 P 0.30827(7) 0.88609(7) 0.46112(13)
O3_3 O 0.3599(2) 0.39557(17) 0.8360(3)
O4_5 O 0.7285(3) 0.6652(3) 0.8230(6)
H4_5 H 0.7414(17) 0.6769(10) 0.849(2)
H5_5 H 0.7364(8) 0.6435(5) 0.820(3)
O5_4 O 0.35835(17) 0.43700(15) 0.7437(3)
O6_5 O 0.6779(4) 0.7242(4) 0.8277(7)
H6_5 H 0.696686 0.727731 0.801823
H7_5 H 0.687212 0.731696 0.863110
O7_4 O 0.41746(19) 0.40767(17) 0.7691(3)
O8_5 O 0.53688(18) 0.64132(18) 0.8162(3)
H8_5 H 0.5513(7) 0.6241(6) 0.806(2)
H9_5 H 0.5159(6) 0.6388(9) 0.7989(17)
O10_5 O 0.53458(19) 0.6868(2) 0.6950(3)
H11_5 H 0.5246(8) 0.7067(4) 0.6845(14)
H12_5 H 0.5182(7) 0.6702(7) 0.696(3)
O12_5 O 0.4975(2) 0.71291(19) 0.8178(3)
H13_5 H 0.4852(12) 0.7003(14) 0.8432(17)
H14_5 H 0.4830(10) 0.7208(16) 0.7903(15)
O14_5 O 0.7183(2) 0.8322(3) 0.9157(6)
H15_5 H 0.729682 0.820435 0.952346
H16_5 H 0.729561 0.856639 0.919920
O15_5 O 0.60413(16) 0.68737(16) 0.8770(3)
O16_5 O 0.6610(2) 0.76633(17) 0.9261(3)
H17_5 H 0.639807 0.754941 0.938560
H18_5 H 0.676985 0.761914 0.957310
O17_5 O 0.62519(17) 0.68882(18) 0.9857(3)
H19_5 H 0.643273 0.680478 0.966038
O18_5 O 0.58124(18) 0.73585(16) 0.9502(3)
O19_5 O 0.57067(19) 0.75975(17) 0.7877(4)
O20_5 O 0.5002(2) 0.7683(2) 0.9079(5)
H21_5 H 0.5005(10) 0.749(3) 0.884(7)
O21_5 O 0.59571(16) 0.80553(16) 0.8638(3)
O22_5 O 0.61809(17) 0.80562(19) 0.7553(3)
H22_5 H 0.631418 0.822041 0.770261
O24_5 O 0.2682(2) 0.8846(2) 0.4766(3)
O25_5 O 0.3156(2) 0.91805(19) 0.4151(3)
H23_5 H 0.332586 0.912056 0.390912
C1_5 C 0.3933(2) 0.4601(2) 0.8460(4)
C2_5 C 0.4642(4) 0.7810(5) 0.9129(9)
H24_5 H 0.459183 0.787561 0.955195
H25_5 H 0.446834 0.762020 0.900011
H26_5 H 0.461106 0.802384 0.886968
C3_5 C 0.4182(3) 0.4545(2) 0.8928(4)
H27_5 H 0.429535 0.431368 0.897738
C4_5 C 0.4268(3) 0.4824(2) 0.9327(4)
H28_5 H 0.443284 0.477926 0.965523
C5_5 C 0.4115(2) 0.5170(2) 0.9252(4)
C6_5 C 0.3873(3) 0.5227(3) 0.8775(5)
H29_5 H 0.377023 0.546192 0.871603
C7_5 C 0.3777(3) 0.4946(2) 0.8377(4)
H30_5 H 0.360749 0.498921 0.805376
C14_5 C 0.5544(2) 0.6680(2) 0.9625(4)
C15_5 C 0.5607(2) 0.6323(2) 0.9775(4)
H35_5 H 0.585444 0.623525 0.979782
C16_5 C 0.5307(2) 0.6087(2) 0.9896(4)
C17_5 C 0.4941(2) 0.6211(2) 0.9845(4)
C18_5 C 0.4886(3) 0.6570(3) 0.9699(5)
H37_5 H 0.463856 0.666020 0.967826
C19_5 C 0.5182(3) 0.6808(2) 0.9581(4)
H38_5 H 0.513565 0.705328 0.947175
C20_5 C 0.4216(2) 0.5472(2) 0.9680(4)
C24_5 C 0.4616(2) 0.5970(2) 0.9963(4)
C25_5 C 0.4534(2) 0.5680(2) 0.9576(4)
H39_5 H 0.352488 0.525715 0.989421
C28_5 C 0.4781(3) 0.5588(2) 0.9039(4)
H45_5 H 0.493168 0.537389 0.913605
H46_5 H 0.494543 0.579342 0.895119
H47_5 H 0.462637 0.553673 0.868315
C29_5 C 0.5479(2) 0.8283(2) 0.7788(4)
C30_5 C 0.5113(3) 0.8178(2) 0.7822(5)
H48_5 H 0.505707 0.793312 0.791706
C31_5 C 0.4826(3) 0.8416(3) 0.7725(5)
H49_5 H 0.457615 0.833720 0.777115
C32_5 C 0.4900(2) 0.8772(2) 0.7558(4)
C33_5 C 0.5264(2) 0.8876(2) 0.7499(4)
H50_5 H 0.531916 0.911711 0.737590
C34_5 C 0.5551(2) 0.8641(2) 0.7613(4)
H51_5 H 0.580028 0.872238 0.757332
C38_5 C 0.4124(2) 0.9852(2) 0.8158(4)
C39_5 C 0.3889(3) 0.9805(2) 0.8662(4)
H54_5 H 0.377163 0.957735 0.873153
C41_5 C 0.3349(3) 0.8978(3) 0.5283(4)
C42_5 C 0.3302(3) 0.8772(3) 0.5811(5)
H56_5 H 0.312252 0.858327 0.582101
C43_5 C 0.3520(3) 0.8845(3) 0.6327(4)
H57_5 H 0.348627 0.870548 0.668600
C44_5 C 0.3785(2) 0.9119(2) 0.6317(4)
C45_5 C 0.3829(2) 0.9323(2) 0.5783(5)
H58_5 H 0.400816 0.951272 0.576707
C46_5 C 0.3612(3) 0.9249(3) 0.5281(4)
H59_5 H 0.364497 0.938942 0.492310
C47_5 C 0.4577(2) 0.9026(2) 0.7434(4)
C48_5 C 0.4513(2) 0.9322(2) 0.7838(4)
C49_5 C 0.4195(2) 0.9542(2) 0.7737(4)
C50_5 C 0.3957(2) 0.9473(2) 0.7250(4)
C51_5 C 0.4035(2) 0.9184(2) 0.6854(4)
C52_5 C 0.4342(2) 0.8956(2) 0.6943(4)
C53_5 C 0.4413(3) 0.8649(3) 0.6508(5)
H60_5 H 0.467702 0.864389 0.640065
H61_5 H 0.426374 0.868519 0.614036
H62_5 H 0.434324 0.841927 0.669980
C54_5 C 0.4767(3) 0.9387(2) 0.8376(4)
H63_5 H 0.485854 0.915438 0.852912
H64_5 H 0.462805 0.951168 0.869793
H65_5 H 0.497732 0.953795 0.824984
C55_5 C 0.3618(2) 0.9706(2) 0.7151(5)
H66_5 H 0.340577 0.960026 0.736642
H67_5 H 0.356279 0.971932 0.671636
H68_5 H 0.366606 0.995052 0.730778
Ca11_4 Ca 0.40100(5) 0.41848(4) 0.66166(10)
Ca12_4 Ca 0.30641(5) 0.45699(4) 0.69821(11)
O29_3 O 0.6401(2) 0.60443(17) 0.8360(3)
O30_5 O 0.60835(17) 0.81300(15) 0.9937(3)
O36_3 O 0.6297(2) 0.89119(17) 0.9067(3)
O1_6 O 0.4760(3) 0.2024(3) 0.0416(5)
H1_6 H 0.4672(13) 0.1856(10) 0.0637(13)
P2_6 P 0.68402(6) 0.38105(7) 0.28276(14)
O9_6 O 0.6769(2) 0.41189(19) 0.3301(3)
H10_6 H 0.660729 0.405054 0.355160
O11_6 O 0.7247(2) 0.3799(3) 0.2671(4)
H20_6 H 0.4835(17) 0.2198(8) 0.0639(14)
C8_6 C 0.6581(2) 0.3936(2) 0.2159(4)
C9_6 C 0.6339(2) 0.4226(2) 0.2157(4)
H31_6 H 0.631340 0.436986 0.251200
C10_6 C 0.6129(2) 0.4312(2) 0.1638(4)
H32_6 H 0.596644 0.451526 0.163975
C11_6 C 0.6161(2) 0.4094(2) 0.1114(4)
C12_6 C 0.6408(3) 0.3810(3) 0.1116(5)
H33_6 H 0.643798 0.366926 0.075831
C13_6 C 0.6617(3) 0.3724(3) 0.1633(5)
H34_6 H 0.678275 0.352259 0.162699
H36_6 H 0.464527 0.415651 0.001197
C21_6 C 0.6019(2) 0.4462(2) 0.0176(4)
C22_6 C 0.5928(2) 0.4175(2) 0.0574(4)
C23_6 C 0.5616(2) 0.3957(2) 0.0466(4)
C26_6 C 0.6359(2) 0.4684(2) 0.0284(4)
H40_6 H 0.653416 0.454589 0.053454
H41_6 H 0.629021 0.490808 0.049450
C27_6 C 0.5523(3) 0.3650(2) 0.0897(4)
H42_6 H 0.569475 0.344785 0.082934
H43_6 H 0.526755 0.356924 0.082557
H44_6 H 0.554738 0.373573 0.131701
O31_6 O 0.33254(19) 0.15767(17) 0.0191(3)
Ca2_4 Ca 0.43596(5) 0.30128(5) 0.79374(11)
Ca4_6 Ca 0.44359(5) 0.20699(4) 0.94821(11)
O2_6 O 0.47144(17) 0.14898(16) 0.9344(3)
H2_6 H 0.4558(6) 0.1321(5) 0.9404(15)
H3_6 H 0.4923(5) 0.1432(11) 0.950(2)
P1_6 P 0.61832(6) 0.57721(5) 0.79619(12)
P3_6 P 0.40740(6) 0.30288(5) 0.94156(12)
P4_6 P 0.41542(6) 0.20259(6) 0.79920(12)
P6_6 P 0.69173(7) 0.11391(7) 0.46112(13)
O4_6 O 0.2715(3) 0.3348(3) 0.8230(6)
H4_6 H 0.2586(17) 0.3231(10) 0.849(2)
H5_6 H 0.2636(8) 0.3565(5) 0.820(3)
O6_6 O 0.3221(4) 0.2758(4) 0.8277(7)
H6_6 H 0.303314 0.272269 0.801823
H7_6 H 0.312788 0.268304 0.863110
O8_6 O 0.46312(18) 0.35868(18) 0.8162(3)
H8_6 H 0.4487(7) 0.3759(6) 0.806(2)
H9_6 H 0.4841(6) 0.3612(9) 0.7989(17)
O10_6 O 0.46542(19) 0.3132(2) 0.6950(3)
H11_6 H 0.4754(8) 0.2933(4) 0.6845(14)
H12_6 H 0.4818(7) 0.3298(7) 0.696(3)
O12_6 O 0.5025(2) 0.28709(19) 0.8178(3)
H13_6 H 0.5148(12) 0.2997(14) 0.8432(17)
H14_6 H 0.5170(10) 0.2792(16) 0.7903(15)
O14_6 O 0.2817(2) 0.1678(3) 0.9157(6)
H15_6 H 0.270318 0.179565 0.952346
H16_6 H 0.270439 0.143361 0.919920
O15_6 O 0.39587(16) 0.31263(16) 0.8770(3)
O16_6 O 0.3390(2) 0.23367(17) 0.9261(3)
H17_6 H 0.360193 0.245059 0.938560
H18_6 H 0.323015 0.238086 0.957310
O17_6 O 0.37481(17) 0.31118(18) 0.9857(3)
H19_6 H 0.356727 0.319522 0.966038
O18_6 O 0.41876(18) 0.26415(16) 0.9502(3)
O19_6 O 0.42933(19) 0.24025(17) 0.7877(4)
O20_6 O 0.4998(2) 0.2317(2) 0.9079(5)
H21_6 H 0.4995(10) 0.251(3) 0.884(7)
O21_6 O 0.40429(16) 0.19447(16) 0.8638(3)
O22_6 O 0.38191(17) 0.19438(19) 0.7553(3)
H22_6 H 0.368582 0.177959 0.770261
O24_6 O 0.7318(2) 0.1154(2) 0.4766(3)
O25_6 O 0.6844(2) 0.08195(19) 0.4151(3)
H23_6 H 0.667414 0.087944 0.390912
C1_6 C 0.6067(2) 0.5399(2) 0.8460(4)
C2_6 C 0.5358(4) 0.2190(5) 0.9129(9)
H24_6 H 0.540817 0.212439 0.955195
H25_6 H 0.553166 0.237980 0.900011
H26_6 H 0.538894 0.197616 0.886968
C3_6 C 0.5818(3) 0.5455(2) 0.8928(4)
H27_6 H 0.570465 0.568632 0.897738
C4_6 C 0.5732(3) 0.5176(2) 0.9327(4)
H28_6 H 0.556716 0.522074 0.965523
C5_6 C 0.5885(2) 0.4830(2) 0.9252(4)
C6_6 C 0.6127(3) 0.4773(3) 0.8775(5)
H29_6 H 0.622977 0.453808 0.871603
C7_6 C 0.6223(3) 0.5054(2) 0.8377(4)
H30_6 H 0.639251 0.501079 0.805376
C14_6 C 0.4456(2) 0.3320(2) 0.9625(4)
C15_6 C 0.4393(2) 0.3677(2) 0.9775(4)
H35_6 H 0.414556 0.376475 0.979782
C16_6 C 0.4693(2) 0.3913(2) 0.9896(4)
C17_6 C 0.5059(2) 0.3789(2) 0.9845(4)
C18_6 C 0.5114(3) 0.3430(3) 0.9699(5)
H37_6 H 0.536144 0.333980 0.967826
C19_6 C 0.4818(3) 0.3192(2) 0.9581(4)
H38_6 H 0.486435 0.294672 0.947175
C20_6 C 0.5784(2) 0.4528(2) 0.9680(4)
C24_6 C 0.5384(2) 0.4030(2) 0.9963(4)
C25_6 C 0.5466(2) 0.4320(2) 0.9576(4)
H39_6 H 0.647512 0.474285 0.989421
C28_6 C 0.5219(3) 0.4412(2) 0.9039(4)
H45_6 H 0.506832 0.462611 0.913605
H46_6 H 0.505457 0.420658 0.895119
H47_6 H 0.537363 0.446327 0.868315
C29_6 C 0.4521(2) 0.1717(2) 0.7788(4)
C30_6 C 0.4887(3) 0.1822(2) 0.7822(5)
H48_6 H 0.494293 0.206688 0.791706
C31_6 C 0.5174(3) 0.1584(3) 0.7725(5)
H49_6 H 0.542385 0.166280 0.777115
C32_6 C 0.5100(2) 0.1228(2) 0.7558(4)
C33_6 C 0.4736(2) 0.1124(2) 0.7499(4)
H50_6 H 0.468084 0.088289 0.737590
C34_6 C 0.4449(2) 0.1359(2) 0.7613(4)
H51_6 H 0.419972 0.127762 0.757332
C38_6 C 0.5876(2) 0.0148(2) 0.8158(4)
C39_6 C 0.6111(3) 0.0195(2) 0.8662(4)
H54_6 H 0.622837 0.042265 0.873153
C41_6 C 0.6651(3) 0.1022(3) 0.5283(4)
C42_6 C 0.6698(3) 0.1228(3) 0.5811(5)
H56_6 H 0.687748 0.141673 0.582101
C43_6 C 0.6480(3) 0.1155(3) 0.6327(4)
H57_6 H 0.651373 0.129452 0.668600
C44_6 C 0.6215(2) 0.0881(2) 0.6317(4)
C45_6 C 0.6171(2) 0.0677(2) 0.5783(5)
H58_6 H 0.599184 0.048728 0.576707
C46_6 C 0.6388(3) 0.0751(3) 0.5281(4)
H59_6 H 0.635503 0.061058 0.492310
C47_6 C 0.5423(2) 0.0974(2) 0.7434(4)
C48_6 C 0.5487(2) 0.0678(2) 0.7838(4)
C49_6 C 0.5805(2) 0.0458(2) 0.7737(4)
C50_6 C 0.6043(2) 0.0527(2) 0.7250(4)
C51_6 C 0.5965(2) 0.0816(2) 0.6854(4)
C52_6 C 0.5658(2) 0.1044(2) 0.6943(4)
C53_6 C 0.5587(3) 0.1351(3) 0.6508(5)
H60_6 H 0.532298 0.135611 0.640065
H61_6 H 0.573626 0.131481 0.614036
H62_6 H 0.565676 0.158073 0.669980
C54_6 C 0.5233(3) 0.0613(2) 0.8376(4)
H63_6 H 0.514146 0.084562 0.852912
H64_6 H 0.537195 0.048832 0.869793
H65_6 H 0.502268 0.046205 0.824984
C55_6 C 0.6382(2) 0.0294(2) 0.7151(5)
H66_6 H 0.659423 0.039974 0.736642
H67_6 H 0.643721 0.028068 0.671636
H68_6 H 0.633394 0.004948 0.730778
O30_6 O 0.39165(17) 0.18700(15) 0.9937(3)
O34_4 O 0.38299(16) 0.31764(15) 0.7490(3)
O35_4 O 0.32319(18) 0.34474(16) 0.7205(3)
Ca8_6 Ca 0.68596(5) 0.94872(5) 0.04374(11)
P5_6 P 0.60968(6) 0.91922(5) 0.94576(12)
O26_6 O 0.63299(16) 0.93236(15) 0.9990(3)
O27_6 O 0.57319(18) 0.90526(16) 0.9705(3)
C35_6 C 0.6011(2) 0.9573(2) 0.8966(4)
C36_6 C 0.5782(3) 0.9526(2) 0.8460(4)
H52_6 H 0.567117 0.929633 0.838246
C37_6 C 0.5716(2) 0.9817(2) 0.8067(4)
H53_6 H 0.555691 0.978273 0.772754
C40_6 C 0.6172(3) 0.9905(2) 0.9061(5)
H55_6 H 0.632795 0.993929 0.940452
Ca2_5 Ca 0.81404(5) 0.55128(5) 0.04374(11)
Ca4_7 Ca 0.80641(5) 0.45699(4) 0.19821(11)
O1_7 O 0.7740(3) 0.4524(3) 0.2916(5)
H1_7 H 0.7828(13) 0.4356(10) 0.3137(13)
O2_7 O 0.77856(17) 0.39898(16) 0.1844(3)
H2_7 H 0.7942(6) 0.3821(5) 0.1904(15)
H3_7 H 0.7577(5) 0.3932(11) 0.200(2)
P1_7 P 0.63168(6) 0.82721(5) 0.04619(12)
P2_7 P 0.56598(6) 0.63105(7) 0.53276(14)
P3_7 P 0.84260(6) 0.55288(5) 0.19156(12)
P4_7 P 0.83458(6) 0.45259(6) 0.04920(12)
P5_7 P 0.64032(6) 0.16922(5) 0.19576(12)
O3_4 O 0.6099(2) 0.85443(17) 0.0860(3)
O4_7 O 0.9785(3) 0.5848(3) 0.0730(6)
H4_7 H 0.9914(17) 0.5731(10) 0.099(2)
H5_7 H 0.9864(8) 0.6065(5) 0.070(3)
O6_7 O 0.9279(4) 0.5258(4) 0.0777(7)
H6_7 H 0.946686 0.522269 0.051823
H7_7 H 0.937212 0.518304 0.113110
O8_7 O 0.78688(18) 0.60868(18) 0.0662(3)
H8_7 H 0.8013(7) 0.6259(6) 0.056(2)
H9_7 H 0.7659(6) 0.6112(9) 0.0489(17)
O9_7 O 0.5731(2) 0.66189(19) 0.5801(3)
H10_7 H 0.589271 0.655054 0.605160
O11_7 O 0.5253(2) 0.6299(3) 0.5171(4)
O12_7 O 0.7475(2) 0.53709(19) 0.0678(3)
H13_7 H 0.7352(12) 0.5497(14) 0.0932(17)
H14_7 H 0.7330(10) 0.5292(16) 0.0403(15)
O14_7 O 0.9683(2) 0.4178(3) 0.1657(6)
H15_7 H 0.979682 0.429565 0.202346
H16_7 H 0.979561 0.393361 0.169920
O15_7 O 0.85413(16) 0.56263(16) 0.1270(3)
O16_7 O 0.9110(2) 0.48367(17) 0.1761(3)
H17_7 H 0.889807 0.495059 0.188560
H18_7 H 0.926985 0.488086 0.207310
O17_7 O 0.87519(17) 0.56118(18) 0.2357(3)
H19_7 H 0.893273 0.569522 0.216038
H20_7 H 0.7665(17) 0.4698(8) 0.3139(14)
O18_7 O 0.83124(18) 0.51415(16) 0.2002(3)
O19_7 O 0.82067(19) 0.49025(17) 0.0377(4)
O20_7 O 0.7502(2) 0.4817(2) 0.1579(5)
H21_7 H 0.7505(10) 0.501(3) 0.134(7)
O21_7 O 0.84571(16) 0.44447(16) 0.1138(3)
O22_7 O 0.86809(17) 0.44438(19) 0.0053(3)
H22_7 H 0.881418 0.427959 0.020261
O28_4 O 0.6203(2) 0.14119(17) 0.1567(3)
C1_7 C 0.6433(2) 0.7899(2) 0.0960(4)
C2_7 C 0.7142(4) 0.4690(5) 0.1629(9)
H24_7 H 0.709183 0.462439 0.205195
H25_7 H 0.696834 0.487980 0.150011
H26_7 H 0.711106 0.447616 0.136968
C3_7 C 0.6682(3) 0.7955(2) 0.1428(4)
H27_7 H 0.679535 0.818632 0.147738
C4_7 C 0.6768(3) 0.7676(2) 0.1827(4)
H28_7 H 0.693284 0.772074 0.215523
C5_7 C 0.6615(2) 0.7330(2) 0.1752(4)
C6_7 C 0.6373(3) 0.7273(3) 0.1275(5)
H29_7 H 0.627023 0.703808 0.121603
C7_7 C 0.6277(3) 0.7554(2) 0.0877(4)
H30_7 H 0.610749 0.751079 0.055376
C8_7 C 0.5919(2) 0.6436(2) 0.4659(4)
C9_7 C 0.6161(2) 0.6726(2) 0.4657(4)
H31_7 H 0.618660 0.686986 0.501200
C10_7 C 0.6371(2) 0.6812(2) 0.4138(4)
H32_7 H 0.653356 0.701526 0.413975
C11_7 C 0.6339(2) 0.6594(2) 0.3614(4)
C12_7 C 0.6092(3) 0.6310(3) 0.3616(5)
H33_7 H 0.606202 0.616926 0.325831
C13_7 C 0.5883(3) 0.6224(3) 0.4133(5)
H34_7 H 0.571725 0.602259 0.412699
C14_7 C 0.8044(2) 0.5820(2) 0.2125(4)
C15_7 C 0.8107(2) 0.6177(2) 0.2275(4)
H35_7 H 0.835444 0.626475 0.229782
C16_7 C 0.7807(2) 0.6413(2) 0.2396(4)
H36_7 H 0.785473 0.665651 0.251197
C17_7 C 0.7441(2) 0.6289(2) 0.2345(4)
C18_7 C 0.7386(3) 0.5930(3) 0.2199(5)
H37_7 H 0.713856 0.583980 0.217826
C19_7 C 0.7682(3) 0.5692(2) 0.2081(4)
H38_7 H 0.763565 0.544672 0.197175
C20_7 C 0.6716(2) 0.7028(2) 0.2180(4)
C21_7 C 0.6481(2) 0.6962(2) 0.2676(4)
C22_7 C 0.6572(2) 0.6675(2) 0.3074(4)
C23_7 C 0.6884(2) 0.6457(2) 0.2966(4)
C24_7 C 0.7116(2) 0.6530(2) 0.2463(4)
C25_7 C 0.7034(2) 0.6820(2) 0.2076(4)
C26_7 C 0.6141(2) 0.7184(2) 0.2784(4)
H39_7 H 0.602488 0.724285 0.239421
H40_7 H 0.596584 0.704589 0.303454
H41_7 H 0.620979 0.740808 0.299450
C27_7 C 0.6977(3) 0.6150(2) 0.3397(4)
H42_7 H 0.680525 0.594785 0.332934
H43_7 H 0.723245 0.606924 0.332557
H44_7 H 0.695262 0.623573 0.381701
C28_7 C 0.7281(3) 0.6912(2) 0.1539(4)
H45_7 H 0.743168 0.712611 0.163605
H46_7 H 0.744543 0.670658 0.145119
H47_7 H 0.712637 0.696327 0.118315
C29_7 C 0.7979(2) 0.4217(2) 0.0288(4)
C30_7 C 0.7613(3) 0.4322(2) 0.0322(5)
H48_7 H 0.755707 0.456688 0.041706
C31_7 C 0.7326(3) 0.4084(3) 0.0225(5)
H49_7 H 0.707615 0.416280 0.027115
C32_7 C 0.7400(2) 0.3728(2) 0.0058(4)
C34_7 C 0.8051(2) 0.3859(2) 0.0113(4)
H51_7 H 0.830028 0.377762 0.007332
C35_7 C 0.6489(2) 0.2073(2) 0.1466(4)
C36_7 C 0.6718(3) 0.2026(2) 0.0960(4)
H52_7 H 0.682883 0.179633 0.088246
C37_7 C 0.6784(2) 0.2317(2) 0.0567(4)
H53_7 H 0.694309 0.228273 0.022754
C38_7 C 0.6624(2) 0.2648(2) 0.0658(4)
C39_7 C 0.6389(3) 0.2695(2) 0.1162(4)
H54_7 H 0.627163 0.292265 0.123153
C40_7 C 0.6328(3) 0.2405(2) 0.1561(5)
H55_7 H 0.617205 0.243929 0.190452
C48_7 C 0.7013(2) 0.3178(2) 0.0338(4)
C49_7 C 0.6695(2) 0.2958(2) 0.0237(4)
C54_7 C 0.7267(3) 0.3113(2) 0.0876(4)
H63_7 H 0.735854 0.334562 0.102912
H64_7 H 0.712805 0.298832 0.119793
H65_7 H 0.747732 0.296205 0.074984
O29_4 O 0.8901(2) 0.64557(17) 0.0860(3)
O30_7 O 0.85835(17) 0.43700(15) 0.2437(3)
O31_7 O 0.91746(19) 0.40767(17) 0.2691(3)
O36_4 O 0.8797(2) 0.35881(17) 0.1567(3)
P6_7 P 0.55827(7) 0.36391(7) 0.71112(13)
O10_7 O 0.78458(19) 0.5632(2) 0.9450(3)
H11_7 H 0.7746(8) 0.5433(4) 0.9345(14)
H12_7 H 0.7682(7) 0.5798(7) 0.946(3)
O24_7 O 0.5182(2) 0.3654(2) 0.7266(3)
O25_7 O 0.5656(2) 0.33195(19) 0.6651(3)
H23_7 H 0.582586 0.337944 0.640912
C33_7 C 0.7764(2) 0.3624(2) 0.9999(4)
H50_7 H 0.781916 0.338289 0.987590
C41_7 C 0.5849(3) 0.3522(3) 0.7783(4)
C42_7 C 0.5802(3) 0.3728(3) 0.8311(5)
H56_7 H 0.562252 0.391673 0.832101
C43_7 C 0.6020(3) 0.3655(3) 0.8827(4)
H57_7 H 0.598627 0.379452 0.918600
C44_7 C 0.6285(2) 0.3381(2) 0.8817(4)
C45_7 C 0.6329(2) 0.3177(2) 0.8283(5)
H58_7 H 0.650816 0.298728 0.826707
C46_7 C 0.6112(3) 0.3251(3) 0.7781(4)
H59_7 H 0.614497 0.311058 0.742310
C47_7 C 0.7077(2) 0.3474(2) 0.9934(4)
C50_7 C 0.6457(2) 0.3027(2) 0.9750(4)
C51_7 C 0.6535(2) 0.3316(2) 0.9354(4)
C52_7 C 0.6842(2) 0.3544(2) 0.9443(4)
C53_7 C 0.6913(3) 0.3851(3) 0.9008(5)
H60_7 H 0.717702 0.385611 0.890065
H61_7 H 0.676374 0.381481 0.864036
H62_7 H 0.684324 0.408073 0.919980
C55_7 C 0.6118(2) 0.2794(2) 0.9651(5)
H66_7 H 0.590577 0.289974 0.986642
H67_7 H 0.606279 0.278068 0.921636
H68_7 H 0.616606 0.254948 0.980778
O34_5 O 0.86701(16) 0.56764(15) 0.9990(3)
O35_5 O 0.92681(18) 0.59474(16) 0.9705(3)
O1_8 O 0.7260(3) 0.0476(3) 0.2916(5)
H1_8 H 0.7172(13) 0.0644(10) 0.3137(13)
O2_8 O 0.72144(17) 0.10102(16) 0.1844(3)
H2_8 H 0.7058(6) 0.1179(5) 0.1904(15)
H3_8 H 0.7423(5) 0.1068(11) 0.200(2)
P4_8 P 0.66542(6) 0.04741(6) 0.04920(12)
P5_8 P 0.85968(6) 0.33078(5) 0.19576(12)
O14_8 O 0.5317(2) 0.0822(3) 0.1657(6)
H15_8 H 0.520318 0.070435 0.202346
H16_8 H 0.520439 0.106639 0.169920
O16_8 O 0.5890(2) 0.01633(17) 0.1761(3)
H17_8 H 0.610193 0.004941 0.188560
H18_8 H 0.573015 0.011914 0.207310
H20_8 H 0.7335(17) 0.0302(8) 0.3139(14)
O19_8 O 0.67933(19) 0.00975(17) 0.0377(4)
O20_8 O 0.7498(2) 0.0183(2) 0.1579(5)
O21_8 O 0.65429(16) 0.05553(16) 0.1138(3)
O22_8 O 0.63191(17) 0.05562(19) 0.0053(3)
H22_8 H 0.618582 0.072041 0.020261
O26_7 O 0.88299(16) 0.31764(15) 0.2490(3)
O27_7 O 0.82319(18) 0.34474(16) 0.2205(3)
C2_8 C 0.7858(4) 0.0310(5) 0.1629(9)
H24_8 H 0.790817 0.037561 0.205195
H25_8 H 0.803166 0.012020 0.150011
H26_8 H 0.788894 0.052384 0.136968
C29_8 C 0.7021(2) 0.0783(2) 0.0288(4)
C30_8 C 0.7387(3) 0.0678(2) 0.0322(5)
H48_8 H 0.744293 0.043312 0.041706
C31_8 C 0.7674(3) 0.0916(3) 0.0225(5)
H49_8 H 0.792385 0.083720 0.027115
C32_8 C 0.7600(2) 0.1272(2) 0.0058(4)
C34_8 C 0.6949(2) 0.1141(2) 0.0113(4)
H51_8 H 0.669972 0.122238 0.007332
C35_8 C 0.8511(2) 0.2927(2) 0.1466(4)
C36_8 C 0.8282(3) 0.2974(2) 0.0960(4)
H52_8 H 0.817117 0.320367 0.088246
C37_8 C 0.8216(2) 0.2683(2) 0.0567(4)
H53_8 H 0.805691 0.271727 0.022754
C38_8 C 0.8376(2) 0.2352(2) 0.0658(4)
C39_8 C 0.8611(3) 0.2305(2) 0.1162(4)
H54_8 H 0.872837 0.207735 0.123153
C40_8 C 0.8672(3) 0.2595(2) 0.1561(5)
H55_8 H 0.882795 0.256071 0.190452
C48_8 C 0.7987(2) 0.1822(2) 0.0338(4)
C49_8 C 0.8305(2) 0.2042(2) 0.0237(4)
C54_8 C 0.7733(3) 0.1887(2) 0.0876(4)
H63_8 H 0.764146 0.165438 0.102912
H64_8 H 0.787195 0.201168 0.119793
H65_8 H 0.752268 0.203795 0.074984
Ca7_5 Ca 0.83948(5) 0.33646(5) 0.33007(11)
Ca8_7 Ca 0.93596(5) 0.30128(5) 0.29374(11)
P6_8 P 0.94173(7) 0.13609(7) 0.71112(13)
O24_8 O 0.9818(2) 0.1346(2) 0.7266(3)
O25_8 O 0.9344(2) 0.16805(19) 0.6651(3)
H23_8 H 0.917414 0.162056 0.640912
C33_8 C 0.7236(2) 0.1376(2) 0.9999(4)
H50_8 H 0.718084 0.161711 0.987590
C41_8 C 0.9151(3) 0.1478(3) 0.7783(4)
C42_8 C 0.9198(3) 0.1272(3) 0.8311(5)
H56_8 H 0.937748 0.108327 0.832101
C43_8 C 0.8980(3) 0.1345(3) 0.8827(4)
H57_8 H 0.901373 0.120548 0.918600
C44_8 C 0.8715(2) 0.1619(2) 0.8817(4)
C45_8 C 0.8671(2) 0.1823(2) 0.8283(5)
H58_8 H 0.849184 0.201272 0.826707
C46_8 C 0.8888(3) 0.1749(3) 0.7781(4)
H59_8 H 0.885503 0.188942 0.742310
C47_8 C 0.7923(2) 0.1526(2) 0.9934(4)
C50_8 C 0.8543(2) 0.1973(2) 0.9750(4)
C51_8 C 0.8465(2) 0.1684(2) 0.9354(4)
C52_8 C 0.8158(2) 0.1456(2) 0.9443(4)
C53_8 C 0.8087(3) 0.1149(3) 0.9008(5)
H60_8 H 0.782298 0.114389 0.890065
H61_8 H 0.823626 0.118519 0.864036
H62_8 H 0.815676 0.091927 0.919980
C55_8 C 0.8882(2) 0.2206(2) 0.9651(5)
H66_8 H 0.909423 0.210026 0.986642
H67_8 H 0.893721 0.221932 0.921636
H68_8 H 0.883394 0.245052 0.980778
P1_8 P 0.86832(6) 0.67279(5) 0.04619(12)
P2_8 P 0.93402(6) 0.86895(7) 0.53276(14)
P3_8 P 0.65740(6) 0.94712(5) 0.19156(12)
O4_8 O 0.5215(3) 0.9152(3) 0.0730(6)
H4_8 H 0.5086(17) 0.9269(10) 0.099(2)
H5_8 H 0.5136(8) 0.8935(5) 0.070(3)
O6_8 O 0.5721(4) 0.9742(4) 0.0777(7)
H6_8 H 0.553314 0.977731 0.051823
H7_8 H 0.562788 0.981696 0.113110
O7_5 O 0.83254(19) 0.65767(17) 0.0191(3)
O8_8 O 0.71312(18) 0.89132(18) 0.0662(3)
H8_8 H 0.6987(7) 0.8741(6) 0.056(2)
H9_8 H 0.7341(6) 0.8888(9) 0.0489(17)
O9_8 O 0.9269(2) 0.83811(19) 0.5801(3)
H10_8 H 0.910729 0.844946 0.605160
O11_8 O 0.9747(2) 0.8701(3) 0.5171(4)
O12_8 O 0.7525(2) 0.96291(19) 0.0678(3)
H13_8 H 0.7648(12) 0.9503(14) 0.0932(17)
H14_8 H 0.7670(10) 0.9708(16) 0.0403(15)
O15_8 O 0.64587(16) 0.93737(16) 0.1270(3)
O17_8 O 0.62481(17) 0.93882(18) 0.2357(3)
H19_8 H 0.606727 0.930478 0.216038
O18_8 O 0.66876(18) 0.98585(16) 0.2002(3)
H21_8 H 0.7495(10) 0.999(3) 0.134(7)
C1_8 C 0.8567(2) 0.7101(2) 0.0960(4)
C3_8 C 0.8318(3) 0.7045(2) 0.1428(4)
H27_8 H 0.820465 0.681368 0.147738
C4_8 C 0.8232(3) 0.7324(2) 0.1827(4)
H28_8 H 0.806716 0.727926 0.215523
C5_8 C 0.8385(2) 0.7670(2) 0.1752(4)
C6_8 C 0.8627(3) 0.7727(3) 0.1275(5)
H29_8 H 0.872977 0.796192 0.121603
C7_8 C 0.8723(3) 0.7446(2) 0.0877(4)
H30_8 H 0.889251 0.748921 0.055376
C8_8 C 0.9081(2) 0.8564(2) 0.4659(4)
C9_8 C 0.8839(2) 0.8274(2) 0.4657(4)
H31_8 H 0.881340 0.813014 0.501200
C10_8 C 0.8629(2) 0.8188(2) 0.4138(4)
H32_8 H 0.846644 0.798474 0.413975
C11_8 C 0.8661(2) 0.8406(2) 0.3614(4)
C12_8 C 0.8908(3) 0.8690(3) 0.3616(5)
H33_8 H 0.893798 0.883074 0.325831
C13_8 C 0.9117(3) 0.8776(3) 0.4133(5)
H34_8 H 0.928275 0.897741 0.412699
C14_8 C 0.6956(2) 0.9180(2) 0.2125(4)
C15_8 C 0.6893(2) 0.8823(2) 0.2275(4)
H35_8 H 0.664556 0.873525 0.229782
C16_8 C 0.7193(2) 0.8587(2) 0.2396(4)
H36_8 H 0.714527 0.834349 0.251197
C17_8 C 0.7559(2) 0.8711(2) 0.2345(4)
C18_8 C 0.7614(3) 0.9070(3) 0.2199(5)
H37_8 H 0.786144 0.916020 0.217826
C19_8 C 0.7318(3) 0.9308(2) 0.2081(4)
H38_8 H 0.736435 0.955328 0.197175
C20_8 C 0.8284(2) 0.7972(2) 0.2180(4)
C21_8 C 0.8519(2) 0.8038(2) 0.2676(4)
C22_8 C 0.8428(2) 0.8325(2) 0.3074(4)
C23_8 C 0.8116(2) 0.8543(2) 0.2966(4)
C24_8 C 0.7884(2) 0.8470(2) 0.2463(4)
C25_8 C 0.7966(2) 0.8180(2) 0.2076(4)
C26_8 C 0.8859(2) 0.7816(2) 0.2784(4)
H39_8 H 0.897512 0.775715 0.239421
H40_8 H 0.903416 0.795411 0.303454
H41_8 H 0.879021 0.759192 0.299450
C27_8 C 0.8023(3) 0.8850(2) 0.3397(4)
H42_8 H 0.819475 0.905215 0.332934
H43_8 H 0.776755 0.893076 0.332557
H44_8 H 0.804738 0.876427 0.381701
C28_8 C 0.7719(3) 0.8088(2) 0.1539(4)
H45_8 H 0.756832 0.787389 0.163605
H46_8 H 0.755457 0.829342 0.145119
H47_8 H 0.787363 0.803673 0.118315
O5_5 O 0.89165(17) 0.68700(15) 0.9937(3)
O10_8 O 0.71542(19) 0.9368(2) 0.9450(3)
H11_8 H 0.7254(8) 0.9567(4) 0.9345(14)
H12_8 H 0.7318(7) 0.9202(7) 0.946(3)
Ca11_5 Ca 0.84900(5) 0.66848(4) 0.91166(10)
Ca12_5 Ca 0.94359(5) 0.70699(4) 0.94821(11)
O1_9 O 0.0240(3) 0.2976(3) 0.0416(5)
H1_9 H 0.0328(13) 0.3144(10) 0.0637(13)
H20_9 H 0.0165(17) 0.2802(8) 0.0639(14)
H36_9 H 0.035473 0.084349 0.001197
O31_8 O 0.16746(19) 0.34233(17) 0.0191(3)
Ca1_3 Ca 0.16052(5) 0.16354(5) 0.83007(11)
Ca2_6 Ca 0.06404(5) 0.19872(5) 0.79374(11)
Ca3_3 Ca 0.15100(5) 0.33152(4) 0.91166(10)
Ca4_8 Ca 0.05641(5) 0.29301(4) 0.94821(11)
O2_9 O 0.02856(17) 0.35102(16) 0.9344(3)
H2_9 H 0.0442(6) 0.3679(5) 0.9404(15)
H3_9 H 0.0077(5) 0.3568(11) 0.950(2)
P3_9 P 0.09260(6) 0.19712(5) 0.94156(12)
P4_9 P 0.08458(6) 0.29741(6) 0.79920(12)
O4_9 O 0.2285(3) 0.1652(3) 0.8230(6)
H4_9 H 0.2414(17) 0.1769(10) 0.849(2)
H5_9 H 0.2364(8) 0.1435(5) 0.820(3)
O6_9 O 0.1779(4) 0.2242(4) 0.8277(7)
H6_9 H 0.196686 0.227731 0.801823
H7_9 H 0.187212 0.231696 0.863110
O8_9 O 0.03688(18) 0.14132(18) 0.8162(3)
H8_9 H 0.0513(7) 0.1241(6) 0.806(2)
H9_9 H 0.0159(6) 0.1388(9) 0.7989(17)
O10_9 O 0.03458(19) 0.1868(2) 0.6950(3)
H11_9 H 0.0246(8) 0.2067(4) 0.6845(14)
H12_9 H 0.0182(7) 0.1702(7) 0.696(3)
O14_9 O 0.2183(2) 0.3322(3) 0.9157(6)
H15_9 H 0.229682 0.320435 0.952346
H16_9 H 0.229561 0.356639 0.919920
O15_9 O 0.10413(16) 0.18737(16) 0.8770(3)
O16_9 O 0.1610(2) 0.26633(17) 0.9261(3)
H17_9 H 0.139807 0.254941 0.938560
H18_9 H 0.176985 0.261914 0.957310
O17_9 O 0.12519(17) 0.18882(18) 0.9857(3)
H19_9 H 0.143273 0.180478 0.966038
O18_9 O 0.08124(18) 0.23585(16) 0.9502(3)
O19_9 O 0.07067(19) 0.25975(17) 0.7877(4)
O20_9 O 0.0002(2) 0.2683(2) 0.9079(5)
H21_9 H 0.0005(10) 0.249(3) 0.884(7)
O21_9 O 0.09571(16) 0.30553(16) 0.8638(3)
O22_9 O 0.11809(17) 0.30562(19) 0.7553(3)
H22_9 H 0.131418 0.322041 0.770261
C14_9 C 0.0544(2) 0.1680(2) 0.9625(4)
C15_9 C 0.0607(2) 0.1323(2) 0.9775(4)
H35_9 H 0.085444 0.123525 0.979782
C16_9 C 0.0307(2) 0.1087(2) 0.9896(4)
C19_9 C 0.0182(3) 0.1808(2) 0.9581(4)
H38_9 H 0.013565 0.205328 0.947175
C29_9 C 0.0479(2) 0.3283(2) 0.7788(4)
C30_9 C 0.0113(3) 0.3178(2) 0.7822(5)
H48_9 H 0.005707 0.293312 0.791706
C33_9 C 0.0264(2) 0.3876(2) 0.7499(4)
H50_9 H 0.031916 0.411711 0.737590
C34_9 C 0.0551(2) 0.3641(2) 0.7613(4)
H51_9 H 0.080028 0.372238 0.757332
O29_5 O 0.1401(2) 0.10443(17) 0.8360(3)
O30_8 O 0.10835(17) 0.31300(15) 0.9937(3)
O32_5 O 0.16757(19) 0.34638(18) 0.8078(3)
O33_5 O 0.17564(18) 0.14864(17) 0.9349(3)
O34_6 O 0.11701(16) 0.18236(15) 0.7490(3)
O35_6 O 0.17681(18) 0.15526(16) 0.7205(3)
O36_5 O 0.1297(2) 0.39119(17) 0.9067(3)
P2_9 P 0.81598(6) 0.11895(7) 0.28276(14)
O9_9 O 0.8231(2) 0.08811(19) 0.3301(3)
H10_9 H 0.839271 0.094946 0.355160
O11_9 O 0.7753(2) 0.1201(3) 0.2671(4)
O13_5 O 0.83243(19) 0.15362(18) 0.3078(3)
C8_9 C 0.8419(2) 0.1064(2) 0.2159(4)
C9_9 C 0.8661(2) 0.0774(2) 0.2157(4)
H31_9 H 0.868660 0.063014 0.251200
C10_9 C 0.8871(2) 0.0688(2) 0.1638(4)
H32_9 H 0.903356 0.048474 0.163975
C11_9 C 0.8839(2) 0.0906(2) 0.1114(4)
C12_9 C 0.8592(3) 0.1190(3) 0.1116(5)
H33_9 H 0.856202 0.133074 0.075831
C13_9 C 0.8383(3) 0.1276(3) 0.1633(5)
H34_9 H 0.821725 0.147741 0.162699
C21_9 C 0.8981(2) 0.0538(2) 0.0176(4)
C22_9 C 0.9072(2) 0.0825(2) 0.0574(4)
C23_9 C 0.9384(2) 0.1043(2) 0.0466(4)
C26_9 C 0.8641(2) 0.0316(2) 0.0284(4)
H40_9 H 0.846584 0.045411 0.053454
H41_9 H 0.870979 0.009192 0.049450
C27_9 C 0.9477(3) 0.1350(2) 0.0897(4)
H42_9 H 0.930525 0.155215 0.082934
H43_9 H 0.973245 0.143076 0.082557
H44_9 H 0.945262 0.126427 0.131701
P5_9 P 0.89032(6) 0.58078(5) 0.94576(12)
P6_9 P 0.80827(7) 0.38609(7) 0.46112(13)
O12_9 O 0.9975(2) 0.21291(19) 0.8178(3)
H13_9 H 0.9852(12) 0.2003(14) 0.8432(17)
H14_9 H 0.9830(10) 0.2208(16) 0.7903(15)
O23_5 O 0.82436(18) 0.35136(17) 0.4349(3)
O24_9 O 0.7682(2) 0.3846(2) 0.4766(3)
O25_9 O 0.8156(2) 0.41805(19) 0.4151(3)
H23_9 H 0.832586 0.412056 0.390912
O28_5 O 0.8703(2) 0.60881(17) 0.9067(3)
C2_9 C 0.9642(4) 0.2810(5) 0.9129(9)
H24_9 H 0.959183 0.287561 0.955195
H25_9 H 0.946834 0.262020 0.900011
H26_9 H 0.961106 0.302384 0.886968
C5_9 C 0.9115(2) 0.0170(2) 0.9252(4)
C6_9 C 0.8873(3) 0.0227(3) 0.8775(5)
H29_9 H 0.877023 0.046192 0.871603
C17_9 C 0.9941(2) 0.1211(2) 0.9845(4)
C18_9 C 0.9886(3) 0.1570(3) 0.9699(5)
H37_9 H 0.963856 0.166020 0.967826
C20_9 C 0.9216(2) 0.0472(2) 0.9680(4)
C24_9 C 0.9616(2) 0.0970(2) 0.9963(4)
C25_9 C 0.9534(2) 0.0680(2) 0.9576(4)
H39_9 H 0.852488 0.025715 0.989421
C28_9 C 0.9781(3) 0.0588(2) 0.9039(4)
H45_9 H 0.993168 0.037389 0.913605
H46_9 H 0.994543 0.079342 0.895119
H47_9 H 0.962637 0.053673 0.868315
C31_9 C 0.9826(3) 0.3416(3) 0.7725(5)
H49_9 H 0.957615 0.333720 0.777115
C32_9 C 0.9900(2) 0.3772(2) 0.7558(4)
C35_9 C 0.8989(2) 0.5427(2) 0.8966(4)
C36_9 C 0.9218(3) 0.5474(2) 0.8460(4)
H52_9 H 0.932883 0.570367 0.838246
C37_9 C 0.9284(2) 0.5183(2) 0.8067(4)
H53_9 H 0.944309 0.521727 0.772754
C38_9 C 0.9124(2) 0.4852(2) 0.8158(4)
C39_9 C 0.8889(3) 0.4805(2) 0.8662(4)
H54_9 H 0.877163 0.457735 0.873153
C40_9 C 0.8828(3) 0.5095(2) 0.9061(5)
H55_9 H 0.867205 0.506071 0.940452
C41_9 C 0.8349(3) 0.3978(3) 0.5283(4)
C42_9 C 0.8302(3) 0.3772(3) 0.5811(5)
H56_9 H 0.812252 0.358327 0.582101
C43_9 C 0.8520(3) 0.3845(3) 0.6327(4)
H57_9 H 0.848627 0.370548 0.668600
C44_9 C 0.8785(2) 0.4119(2) 0.6317(4)
C45_9 C 0.8829(2) 0.4323(2) 0.5783(5)
H58_9 H 0.900816 0.451272 0.576707
C46_9 C 0.8612(3) 0.4249(3) 0.5281(4)
H59_9 H 0.864497 0.438942 0.492310
C47_9 C 0.9577(2) 0.4026(2) 0.7434(4)
C48_9 C 0.9513(2) 0.4322(2) 0.7838(4)
C49_9 C 0.9195(2) 0.4542(2) 0.7737(4)
C50_9 C 0.8957(2) 0.4473(2) 0.7250(4)
C51_9 C 0.9035(2) 0.4184(2) 0.6854(4)
C52_9 C 0.9342(2) 0.3956(2) 0.6943(4)
C53_9 C 0.9413(3) 0.3649(3) 0.6508(5)
H60_9 H 0.967702 0.364389 0.640065
H61_9 H 0.926374 0.368519 0.614036
H62_9 H 0.934324 0.341927 0.669980
C54_9 C 0.9767(3) 0.4387(2) 0.8376(4)
H63_9 H 0.985854 0.415438 0.852912
H64_9 H 0.962805 0.451168 0.869793
H65_9 H 0.997732 0.453795 0.824984
C55_9 C 0.8618(2) 0.4706(2) 0.7151(5)
H66_9 H 0.840577 0.460026 0.736642
H67_9 H 0.856279 0.471932 0.671636
H68_9 H 0.866606 0.495052 0.730778
P1_9 P 0.88168(6) 0.92279(5) 0.79619(12)
O3_5 O 0.8599(2) 0.89557(17) 0.8360(3)
C1_9 C 0.8933(2) 0.9601(2) 0.8460(4)
C3_9 C 0.9182(3) 0.9545(2) 0.8928(4)
H27_9 H 0.929535 0.931368 0.897738
C4_9 C 0.9268(3) 0.9824(2) 0.9327(4)
H28_9 H 0.943284 0.977926 0.965523
C7_9 C 0.8777(3) 0.9946(2) 0.8377(4)
H30_9 H 0.860749 0.998921 0.805376
P1_10 P 0.11832(6) 0.07721(5) 0.79619(12)
O5_6 O 0.14165(17) 0.06300(15) 0.7437(3)
O7_6 O 0.08254(19) 0.09233(17) 0.7691(3)
C1_10 C 0.1067(2) 0.0399(2) 0.8460(4)
C3_10 C 0.0818(3) 0.0455(2) 0.8928(4)
H27_10 H 0.070465 0.068632 0.897738
C4_10 C 0.0732(3) 0.0176(2) 0.9327(4)
H28_10 H 0.056716 0.022074 0.965523
C7_10 C 0.1223(3) 0.0054(2) 0.8377(4)
H30_10 H 0.139251 0.001079 0.805376
Ca11_6 Ca 0.09900(5) 0.08152(4) 0.66166(10)
Ca12_6 Ca 0.19359(5) 0.04301(4) 0.69821(11)
P2_10 P 0.18402(6) 0.88105(7) 0.28276(14)
O9_10 O 0.1769(2) 0.91189(19) 0.3301(3)
H10_10 H 0.160729 0.905054 0.355160
O11_10 O 0.2247(2) 0.8799(3) 0.2671(4)
O13_6 O 0.16757(19) 0.84638(18) 0.3078(3)
C8_10 C 0.1581(2) 0.8936(2) 0.2159(4)
C9_10 C 0.1339(2) 0.9226(2) 0.2157(4)
H31_10 H 0.131340 0.936986 0.251200
C10_10 C 0.1129(2) 0.9312(2) 0.1638(4)
H32_10 H 0.096644 0.951526 0.163975
C11_10 C 0.1161(2) 0.9094(2) 0.1114(4)
C12_10 C 0.1408(3) 0.8810(3) 0.1116(5)
H33_10 H 0.143798 0.866926 0.075831
C13_10 C 0.1617(3) 0.8724(3) 0.1633(5)
H34_10 H 0.178275 0.852259 0.162699
C21_10 C 0.1019(2) 0.9462(2) 0.0176(4)
C22_10 C 0.0928(2) 0.9175(2) 0.0574(4)
C23_10 C 0.0616(2) 0.8957(2) 0.0466(4)
C26_10 C 0.1359(2) 0.9684(2) 0.0284(4)
H40_10 H 0.153416 0.954589 0.053454
H41_10 H 0.129021 0.990808 0.049450
C27_10 C 0.0523(3) 0.8650(2) 0.0897(4)
H42_10 H 0.069475 0.844785 0.082934
H43_10 H 0.026755 0.856924 0.082557
H44_10 H 0.054738 0.873573 0.131701
Ca7_6 Ca 0.08948(5) 0.41354(5) 0.08007(11)
Ca8_8 Ca 0.18596(5) 0.44872(5) 0.04374(11)
Ca10_4 Ca 0.15100(5) 0.83152(4) 0.41166(10)
P5_10 P 0.10968(6) 0.41922(5) 0.94576(12)
P6_10 P 0.19173(7) 0.61391(7) 0.46112(13)
O12_10 O 0.0025(2) 0.78709(19) 0.8178(3)
H13_10 H 0.0148(12) 0.7997(14) 0.8432(17)
H14_10 H 0.0170(10) 0.7792(16) 0.7903(15)
O23_6 O 0.17564(18) 0.64864(17) 0.4349(3)
O24_10 O 0.2318(2) 0.6154(2) 0.4766(3)
O25_10 O 0.1844(2) 0.58195(19) 0.4151(3)
H23_10 H 0.167414 0.587944 0.390912
O26_8 O 0.13299(16) 0.43236(15) 0.9990(3)
O27_8 O 0.07319(18) 0.40526(16) 0.9705(3)
C2_10 C 0.0358(4) 0.7190(5) 0.9129(9)
H24_10 H 0.040817 0.712439 0.955195
H25_10 H 0.053166 0.737980 0.900011
H26_10 H 0.038894 0.697616 0.886968
C5_10 C 0.0885(2) 0.9830(2) 0.9252(4)
C6_10 C 0.1127(3) 0.9773(3) 0.8775(5)
H29_10 H 0.122977 0.953808 0.871603
C17_10 C 0.0059(2) 0.8789(2) 0.9845(4)
C18_10 C 0.0114(3) 0.8430(3) 0.9699(5)
H37_10 H 0.036144 0.833980 0.967826
C20_10 C 0.0784(2) 0.9528(2) 0.9680(4)
C24_10 C 0.0384(2) 0.9030(2) 0.9963(4)
C25_10 C 0.0466(2) 0.9320(2) 0.9576(4)
H39_10 H 0.147512 0.974285 0.989421
C28_10 C 0.0219(3) 0.9412(2) 0.9039(4)
H45_10 H 0.006832 0.962611 0.913605
H46_10 H 0.005457 0.920658 0.895119
H47_10 H 0.037363 0.946327 0.868315
C31_10 C 0.0174(3) 0.6584(3) 0.7725(5)
H49_10 H 0.042385 0.666280 0.777115
C32_10 C 0.0100(2) 0.6228(2) 0.7558(4)
C35_10 C 0.1011(2) 0.4573(2) 0.8966(4)
C36_10 C 0.0782(3) 0.4526(2) 0.8460(4)
H52_10 H 0.067117 0.429633 0.838246
C37_10 C 0.0716(2) 0.4817(2) 0.8067(4)
H53_10 H 0.055691 0.478273 0.772754
C38_10 C 0.0876(2) 0.5148(2) 0.8158(4)
C39_10 C 0.1111(3) 0.5195(2) 0.8662(4)
H54_10 H 0.122837 0.542265 0.873153
C40_10 C 0.1172(3) 0.4905(2) 0.9061(5)
H55_10 H 0.132795 0.493929 0.940452
C41_10 C 0.1651(3) 0.6022(3) 0.5283(4)
C42_10 C 0.1698(3) 0.6228(3) 0.5811(5)
H56_10 H 0.187748 0.641673 0.582101
C43_10 C 0.1480(3) 0.6155(3) 0.6327(4)
H57_10 H 0.151373 0.629452 0.668600
C44_10 C 0.1215(2) 0.5881(2) 0.6317(4)
C45_10 C 0.1171(2) 0.5677(2) 0.5783(5)
H58_10 H 0.099184 0.548728 0.576707
C46_10 C 0.1388(3) 0.5751(3) 0.5281(4)
H59_10 H 0.135503 0.561058 0.492310
C47_10 C 0.0423(2) 0.5974(2) 0.7434(4)
C48_10 C 0.0487(2) 0.5678(2) 0.7838(4)
C49_10 C 0.0805(2) 0.5458(2) 0.7737(4)
C50_10 C 0.1043(2) 0.5527(2) 0.7250(4)
C51_10 C 0.0965(2) 0.5816(2) 0.6854(4)
C52_10 C 0.0658(2) 0.6044(2) 0.6943(4)
C53_10 C 0.0587(3) 0.6351(3) 0.6508(5)
H60_10 H 0.032298 0.635611 0.640065
H61_10 H 0.073626 0.631481 0.614036
H62_10 H 0.065676 0.658073 0.669980
C54_10 C 0.0233(3) 0.5613(2) 0.8376(4)
H63_10 H 0.014146 0.584562 0.852912
H64_10 H 0.037195 0.548832 0.869793
H65_10 H 0.002268 0.546205 0.824984
C55_10 C 0.1382(2) 0.5294(2) 0.7151(5)
H66_10 H 0.159423 0.539974 0.736642
H67_10 H 0.143721 0.528068 0.671636
H68_10 H 0.133394 0.504948 0.730778
Ca6_5 Ca 0.16052(5) 0.66354(5) 0.33007(11)
O1_10 O 0.9760(3) 0.7024(3) 0.0416(5)
H1_10 H 0.9672(13) 0.6856(10) 0.0637(13)
H20_10 H 0.9835(17) 0.7198(8) 0.0639(14)
H36_10 H 0.964527 0.915651 0.001197
O2_10 O 0.97144(17) 0.64898(16) 0.9344(3)
H2_10 H 0.9558(6) 0.6321(5) 0.9404(15)
H3_10 H 0.9923(5) 0.6432(11) 0.950(2)
P3_10 P 0.90740(6) 0.80288(5) 0.94156(12)
P4_10 P 0.91542(6) 0.70259(6) 0.79920(12)
O4_10 O 0.7715(3) 0.8348(3) 0.8230(6)
H4_10 H 0.7586(17) 0.8231(10) 0.849(2)
H5_10 H 0.7636(8) 0.8565(5) 0.820(3)
O6_10 O 0.8221(4) 0.7758(4) 0.8277(7)
H6_10 H 0.803314 0.772269 0.801823
H7_10 H 0.812788 0.768304 0.863110
O8_10 O 0.96312(18) 0.85868(18) 0.8162(3)
H8_10 H 0.9487(7) 0.8759(6) 0.806(2)
H9_10 H 0.9841(6) 0.8612(9) 0.7989(17)
O10_10 O 0.96542(19) 0.8132(2) 0.6950(3)
H11_10 H 0.9754(8) 0.7933(4) 0.6845(14)
H12_10 H 0.9818(7) 0.8298(7) 0.696(3)
O14_10 O 0.7817(2) 0.6678(3) 0.9157(6)
H15_10 H 0.770318 0.679565 0.952346
H16_10 H 0.770439 0.643361 0.919920
O15_10 O 0.89587(16) 0.81263(16) 0.8770(3)
O16_10 O 0.8390(2) 0.73367(17) 0.9261(3)
H17_10 H 0.860193 0.745059 0.938560
H18_10 H 0.823015 0.738086 0.957310
O17_10 O 0.87481(17) 0.81118(18) 0.9857(3)
H19_10 H 0.856727 0.819522 0.966038
O18_10 O 0.91876(18) 0.76415(16) 0.9502(3)
O19_10 O 0.92933(19) 0.74025(17) 0.7877(4)
O20_10 O 0.9998(2) 0.7317(2) 0.9079(5)
H21_10 H 0.9995(10) 0.751(3) 0.884(7)
O21_10 O 0.90429(16) 0.69447(16) 0.8638(3)
O22_10 O 0.88191(17) 0.69438(19) 0.7553(3)
H22_10 H 0.868582 0.677959 0.770261
C14_10 C 0.9456(2) 0.8320(2) 0.9625(4)
C15_10 C 0.9393(2) 0.8677(2) 0.9775(4)
H35_10 H 0.914556 0.876475 0.979782
C16_10 C 0.9693(2) 0.8913(2) 0.9896(4)
C19_10 C 0.9818(3) 0.8192(2) 0.9581(4)
H38_10 H 0.986435 0.794672 0.947175
C29_10 C 0.9521(2) 0.6717(2) 0.7788(4)
C30_10 C 0.9887(3) 0.6822(2) 0.7822(5)
H48_10 H 0.994293 0.706688 0.791706
C33_10 C 0.9736(2) 0.6124(2) 0.7499(4)
H50_10 H 0.968084 0.588289 0.737590
C34_10 C 0.9449(2) 0.6359(2) 0.7613(4)
H51_10 H 0.919972 0.627762 0.757332
O32_6 O 0.83243(19) 0.65362(18) 0.8078(3)
O33_6 O 0.82436(18) 0.85136(17) 0.9349(3)
P1_11 P 0.13168(6) 0.32721(5) 0.04619(12)
P2_11 P 0.06598(6) 0.13105(7) 0.53276(14)
P3_11 P 0.34260(6) 0.05288(5) 0.19156(12)
O3_6 O 0.1099(2) 0.35443(17) 0.0860(3)
O4_11 O 0.4785(3) 0.0848(3) 0.0730(6)
H4_11 H 0.4914(17) 0.0731(10) 0.099(2)
H5_11 H 0.4864(8) 0.1065(5) 0.070(3)
O6_11 O 0.4279(4) 0.0258(4) 0.0777(7)
H6_11 H 0.446686 0.022269 0.051823
H7_11 H 0.437212 0.018304 0.113110
O8_11 O 0.28688(18) 0.10868(18) 0.0662(3)
H8_11 H 0.3013(7) 0.1259(6) 0.056(2)
H9_11 H 0.2659(6) 0.1112(9) 0.0489(17)
O9_11 O 0.0731(2) 0.16189(19) 0.5801(3)
H10_11 H 0.089271 0.155054 0.605160
O11_11 O 0.0253(2) 0.1299(3) 0.5171(4)
O12_11 O 0.2475(2) 0.03709(19) 0.0678(3)
H13_11 H 0.2352(12) 0.0497(14) 0.0932(17)
H14_11 H 0.2330(10) 0.0292(16) 0.0403(15)
O13_7 O 0.08243(19) 0.09638(18) 0.5578(3)
O15_11 O 0.35413(16) 0.06263(16) 0.1270(3)
O17_11 O 0.37519(17) 0.06118(18) 0.2357(3)
H19_11 H 0.393273 0.069522 0.216038
O18_11 O 0.33124(18) 0.01415(16) 0.2002(3)
H21_11 H 0.2505(10) 0.001(3) 0.134(7)
C1_11 C 0.1433(2) 0.2899(2) 0.0960(4)
C3_11 C 0.1682(3) 0.2955(2) 0.1428(4)
H27_11 H 0.179535 0.318632 0.147738
C4_11 C 0.1768(3) 0.2676(2) 0.1827(4)
H28_11 H 0.193284 0.272074 0.215523
C5_11 C 0.1615(2) 0.2330(2) 0.1752(4)
C6_11 C 0.1373(3) 0.2273(3) 0.1275(5)
H29_11 H 0.127023 0.203808 0.121603
C7_11 C 0.1277(3) 0.2554(2) 0.0877(4)
H30_11 H 0.110749 0.251079 0.055376
C8_11 C 0.0919(2) 0.1436(2) 0.4659(4)
C9_11 C 0.1161(2) 0.1726(2) 0.4657(4)
H31_11 H 0.118660 0.186986 0.501200
C10_11 C 0.1371(2) 0.1812(2) 0.4138(4)
H32_11 H 0.153356 0.201526 0.413975
C11_11 C 0.1339(2) 0.1594(2) 0.3614(4)
C12_11 C 0.1092(3) 0.1310(3) 0.3616(5)
H33_11 H 0.106202 0.116926 0.325831
C13_11 C 0.0883(3) 0.1224(3) 0.4133(5)
H34_11 H 0.071725 0.102259 0.412699
C14_11 C 0.3044(2) 0.0820(2) 0.2125(4)
C15_11 C 0.3107(2) 0.1177(2) 0.2275(4)
H35_11 H 0.335444 0.126475 0.229782
C16_11 C 0.2807(2) 0.1413(2) 0.2396(4)
H36_11 H 0.285473 0.165651 0.251197
C17_11 C 0.2441(2) 0.1289(2) 0.2345(4)
C18_11 C 0.2386(3) 0.0930(3) 0.2199(5)
H37_11 H 0.213856 0.083980 0.217826
C19_11 C 0.2682(3) 0.0692(2) 0.2081(4)
H38_11 H 0.263565 0.044672 0.197175
C20_11 C 0.1716(2) 0.2028(2) 0.2180(4)
C21_11 C 0.1481(2) 0.1962(2) 0.2676(4)
C22_11 C 0.1572(2) 0.1675(2) 0.3074(4)
C23_11 C 0.1884(2) 0.1457(2) 0.2966(4)
C24_11 C 0.2116(2) 0.1530(2) 0.2463(4)
C25_11 C 0.2034(2) 0.1820(2) 0.2076(4)
C26_11 C 0.1141(2) 0.2184(2) 0.2784(4)
H39_11 H 0.102488 0.224285 0.239421
H40_11 H 0.096584 0.204589 0.303454
H41_11 H 0.120979 0.240808 0.299450
C27_11 C 0.1977(3) 0.1150(2) 0.3397(4)
H42_11 H 0.180525 0.094785 0.332934
H43_11 H 0.223245 0.106924 0.332557
H44_11 H 0.195262 0.123573 0.381701
C28_11 C 0.2281(3) 0.1912(2) 0.1539(4)
H45_11 H 0.243168 0.212611 0.163605
H46_11 H 0.244543 0.170658 0.145119
H47_11 H 0.212637 0.196327 0.118315
O29_6 O 0.3901(2) 0.14557(17) 0.0860(3)
O33_7 O 0.42564(18) 0.10136(17) 0.1849(3)
O10_11 O 0.28458(19) 0.0632(2) 0.9450(3)
H11_11 H 0.2746(8) 0.0433(4) 0.9345(14)
H12_11 H 0.2682(7) 0.0798(7) 0.946(3)
O1_11 O 0.2740(3) 0.9524(3) 0.2916(5)
H1_11 H 0.2828(13) 0.9356(10) 0.3137(13)
O2_11 O 0.27856(17) 0.89898(16) 0.1844(3)
H2_11 H 0.2942(6) 0.8821(5) 0.1904(15)
H3_11 H 0.2577(5) 0.8932(11) 0.200(2)
P4_11 P 0.33458(6) 0.95259(6) 0.04920(12)
P5_11 P 0.14032(6) 0.66922(5) 0.19576(12)
O14_11 O 0.4683(2) 0.9178(3) 0.1657(6)
H15_11 H 0.479682 0.929565 0.202346
H16_11 H 0.479561 0.893361 0.169920
O16_11 O 0.4110(2) 0.98367(17) 0.1761(3)
H17_11 H 0.389807 0.995059 0.188560
H18_11 H 0.426985 0.988086 0.207310
H20_11 H 0.2665(17) 0.9698(8) 0.3139(14)
O19_11 O 0.32067(19) 0.99025(17) 0.0377(4)
O20_11 O 0.2502(2) 0.9817(2) 0.1579(5)
O21_11 O 0.34571(16) 0.94447(16) 0.1138(3)
O22_11 O 0.36809(17) 0.94438(19) 0.0053(3)
H22_11 H 0.381418 0.927959 0.020261
O26_9 O 0.11701(16) 0.68236(15) 0.2490(3)
O27_9 O 0.17681(18) 0.65526(16) 0.2205(3)
O28_6 O 0.1203(2) 0.64119(17) 0.1567(3)
C2_11 C 0.2142(4) 0.9690(5) 0.1629(9)
H24_11 H 0.209183 0.962439 0.205195
H25_11 H 0.196834 0.987980 0.150011
H26_11 H 0.211106 0.947616 0.136968
C29_11 C 0.2979(2) 0.9217(2) 0.0288(4)
C30_11 C 0.2613(3) 0.9322(2) 0.0322(5)
H48_11 H 0.255707 0.956688 0.041706
C31_11 C 0.2326(3) 0.9084(3) 0.0225(5)
H49_11 H 0.207615 0.916280 0.027115
C32_11 C 0.2400(2) 0.8728(2) 0.0058(4)
C34_11 C 0.3051(2) 0.8859(2) 0.0113(4)
H51_11 H 0.330028 0.877762 0.007332
C35_11 C 0.1489(2) 0.7073(2) 0.1466(4)
C36_11 C 0.1718(3) 0.7026(2) 0.0960(4)
H52_11 H 0.182883 0.679633 0.088246
C37_11 C 0.1784(2) 0.7317(2) 0.0567(4)
H53_11 H 0.194309 0.728273 0.022754
C38_11 C 0.1624(2) 0.7648(2) 0.0658(4)
C39_11 C 0.1389(3) 0.7695(2) 0.1162(4)
H54_11 H 0.127163 0.792265 0.123153
C40_11 C 0.1328(3) 0.7405(2) 0.1561(5)
H55_11 H 0.117205 0.743929 0.190452
C48_11 C 0.2013(2) 0.8178(2) 0.0338(4)
C49_11 C 0.1695(2) 0.7958(2) 0.0237(4)
C54_11 C 0.2267(3) 0.8113(2) 0.0876(4)
H63_11 H 0.235854 0.834562 0.102912
H64_11 H 0.212805 0.798832 0.119793
H65_11 H 0.247732 0.796205 0.074984
Ca8_9 Ca 0.06404(5) 0.69872(5) 0.29374(11)
Ca9_3 Ca 0.09900(5) 0.58152(4) 0.16166(10)
O32_7 O 0.41757(19) 0.90362(18) 0.0578(3)
O36_6 O 0.3797(2) 0.85881(17) 0.1567(3)
P6_11 P 0.05827(7) 0.86391(7) 0.71112(13)
O23_7 O 0.07436(18) 0.89864(17) 0.6849(3)
O24_11 O 0.0182(2) 0.8654(2) 0.7266(3)
O25_11 O 0.0656(2) 0.83195(19) 0.6651(3)
H23_11 H 0.082586 0.837944 0.640912
C33_11 C 0.2764(2) 0.8624(2) 0.9999(4)
H50_11 H 0.281916 0.838289 0.987590
C41_11 C 0.0849(3) 0.8522(3) 0.7783(4)
C42_11 C 0.0802(3) 0.8728(3) 0.8311(5)
H56_11 H 0.062252 0.891673 0.832101
C43_11 C 0.1020(3) 0.8655(3) 0.8827(4)
H57_11 H 0.098627 0.879452 0.918600
C44_11 C 0.1285(2) 0.8381(2) 0.8817(4)
C45_11 C 0.1329(2) 0.8177(2) 0.8283(5)
H58_11 H 0.150816 0.798728 0.826707
C46_11 C 0.1112(3) 0.8251(3) 0.7781(4)
H59_11 H 0.114497 0.811058 0.742310
C47_11 C 0.2077(2) 0.8474(2) 0.9934(4)
C50_11 C 0.1457(2) 0.8027(2) 0.9750(4)
C51_11 C 0.1535(2) 0.8316(2) 0.9354(4)
C52_11 C 0.1842(2) 0.8544(2) 0.9443(4)
C53_11 C 0.1913(3) 0.8851(3) 0.9008(5)
H60_11 H 0.217702 0.885611 0.890065
H61_11 H 0.176374 0.881481 0.864036
H62_11 H 0.184324 0.908073 0.919980
C55_11 C 0.1118(2) 0.7794(2) 0.9651(5)
H66_11 H 0.090577 0.789974 0.986642
H67_11 H 0.106279 0.778068 0.921636
H68_11 H 0.116606 0.754948 0.980778
Ca6_6 Ca 0.08948(5) 0.91354(5) 0.58007(11)
Ca4_9 Ca 0.19359(5) 0.54301(4) 0.19821(11)
O1_12 O 0.2260(3) 0.5476(3) 0.2916(5)
H1_12 H 0.2172(13) 0.5644(10) 0.3137(13)
O2_12 O 0.22144(17) 0.60102(16) 0.1844(3)
H2_12 H 0.2058(6) 0.6179(5) 0.1904(15)
H3_12 H 0.2423(5) 0.6068(11) 0.200(2)
P1_12 P 0.36832(6) 0.17279(5) 0.04619(12)
P2_12 P 0.43402(6) 0.36895(7) 0.53276(14)
P3_12 P 0.15740(6) 0.44712(5) 0.19156(12)
P4_12 P 0.16542(6) 0.54741(6) 0.04920(12)
P5_12 P 0.35968(6) 0.83078(5) 0.19576(12)
O4_12 O 0.0215(3) 0.4152(3) 0.0730(6)
H4_12 H 0.0086(17) 0.4269(10) 0.099(2)
H5_12 H 0.0136(8) 0.3935(5) 0.070(3)
O6_12 O 0.0721(4) 0.4742(4) 0.0777(7)
H6_12 H 0.053314 0.477731 0.051823
H7_12 H 0.062788 0.481696 0.113110
O8_12 O 0.21312(18) 0.39132(18) 0.0662(3)
H8_12 H 0.1987(7) 0.3741(6) 0.056(2)
H9_12 H 0.2341(6) 0.3888(9) 0.0489(17)
O9_12 O 0.4269(2) 0.33811(19) 0.5801(3)
H10_12 H 0.410729 0.344946 0.605160
O11_12 O 0.4747(2) 0.3701(3) 0.5171(4)
O12_12 O 0.2525(2) 0.46291(19) 0.0678(3)
H13_12 H 0.2648(12) 0.4503(14) 0.0932(17)
H14_12 H 0.2670(10) 0.4708(16) 0.0403(15)
O13_8 O 0.41757(19) 0.40362(18) 0.5578(3)
O14_12 O 0.0317(2) 0.5822(3) 0.1657(6)
H15_12 H 0.020318 0.570435 0.202346
H16_12 H 0.020439 0.606639 0.169920
O15_12 O 0.14587(16) 0.43737(16) 0.1270(3)
O16_12 O 0.0890(2) 0.51633(17) 0.1761(3)
H17_12 H 0.110193 0.504941 0.188560
H18_12 H 0.073015 0.511914 0.207310
O17_12 O 0.12481(17) 0.43882(18) 0.2357(3)
H19_12 H 0.106727 0.430478 0.216038
H20_12 H 0.2335(17) 0.5302(8) 0.3139(14)
O18_12 O 0.16876(18) 0.48585(16) 0.2002(3)
O19_12 O 0.17933(19) 0.50975(17) 0.0377(4)
O20_12 O 0.2498(2) 0.5183(2) 0.1579(5)
H21_12 H 0.2495(10) 0.499(3) 0.134(7)
O21_12 O 0.15429(16) 0.55553(16) 0.1138(3)
O22_12 O 0.13191(17) 0.55562(19) 0.0053(3)
H22_12 H 0.118582 0.572041 0.020261
C1_12 C 0.3567(2) 0.2101(2) 0.0960(4)
C2_12 C 0.2858(4) 0.5310(5) 0.1629(9)
H24_12 H 0.290817 0.537561 0.205195
H25_12 H 0.303166 0.512020 0.150011
H26_12 H 0.288894 0.552384 0.136968
C3_12 C 0.3318(3) 0.2045(2) 0.1428(4)
H27_12 H 0.320465 0.181368 0.147738
C4_12 C 0.3232(3) 0.2324(2) 0.1827(4)
H28_12 H 0.306716 0.227926 0.215523
C5_12 C 0.3385(2) 0.2670(2) 0.1752(4)
C6_12 C 0.3627(3) 0.2727(3) 0.1275(5)
H29_12 H 0.372977 0.296192 0.121603
C7_12 C 0.3723(3) 0.2446(2) 0.0877(4)
H30_12 H 0.389251 0.248921 0.055376
C8_12 C 0.4081(2) 0.3564(2) 0.4659(4)
C9_12 C 0.3839(2) 0.3274(2) 0.4657(4)
H31_12 H 0.381340 0.313014 0.501200
C10_12 C 0.3629(2) 0.3188(2) 0.4138(4)
H32_12 H 0.346644 0.298474 0.413975
C11_12 C 0.3661(2) 0.3406(2) 0.3614(4)
C12_12 C 0.3908(3) 0.3690(3) 0.3616(5)
H33_12 H 0.393798 0.383074 0.325831
C13_12 C 0.4117(3) 0.3776(3) 0.4133(5)
H34_12 H 0.428275 0.397741 0.412699
C14_12 C 0.1956(2) 0.4180(2) 0.2125(4)
C15_12 C 0.1893(2) 0.3823(2) 0.2275(4)
H35_12 H 0.164556 0.373525 0.229782
C16_12 C 0.2193(2) 0.3587(2) 0.2396(4)
H36_12 H 0.214527 0.334349 0.251197
C17_12 C 0.2559(2) 0.3711(2) 0.2345(4)
C18_12 C 0.2614(3) 0.4070(3) 0.2199(5)
H37_12 H 0.286144 0.416020 0.217826
C19_12 C 0.2318(3) 0.4308(2) 0.2081(4)
H38_12 H 0.236435 0.455328 0.197175
C20_12 C 0.3284(2) 0.2972(2) 0.2180(4)
C21_12 C 0.3519(2) 0.3038(2) 0.2676(4)
C22_12 C 0.3428(2) 0.3325(2) 0.3074(4)
C23_12 C 0.3116(2) 0.3543(2) 0.2966(4)
C24_12 C 0.2884(2) 0.3470(2) 0.2463(4)
C25_12 C 0.2966(2) 0.3180(2) 0.2076(4)
C26_12 C 0.3859(2) 0.2816(2) 0.2784(4)
H39_12 H 0.397512 0.275715 0.239421
H40_12 H 0.403416 0.295411 0.303454
H41_12 H 0.379021 0.259192 0.299450
C27_12 C 0.3023(3) 0.3850(2) 0.3397(4)
H42_12 H 0.319475 0.405215 0.332934
H43_12 H 0.276755 0.393076 0.332557
H44_12 H 0.304738 0.376427 0.381701
C28_12 C 0.2719(3) 0.3088(2) 0.1539(4)
H45_12 H 0.256832 0.287389 0.163605
H46_12 H 0.255457 0.329342 0.145119
H47_12 H 0.287363 0.303673 0.118315
C29_12 C 0.2021(2) 0.5783(2) 0.0288(4)
C30_12 C 0.2387(3) 0.5678(2) 0.0322(5)
H48_12 H 0.244293 0.543312 0.041706
C31_12 C 0.2674(3) 0.5916(3) 0.0225(5)
H49_12 H 0.292385 0.583720 0.027115
C32_12 C 0.2600(2) 0.6272(2) 0.0058(4)
C34_12 C 0.1949(2) 0.6141(2) 0.0113(4)
H51_12 H 0.169972 0.622238 0.007332
C35_12 C 0.3511(2) 0.7927(2) 0.1466(4)
C36_12 C 0.3282(3) 0.7974(2) 0.0960(4)
H52_12 H 0.317117 0.820367 0.088246
C37_12 C 0.3216(2) 0.7683(2) 0.0567(4)
H53_12 H 0.305691 0.771727 0.022754
C38_12 C 0.3376(2) 0.7352(2) 0.0658(4)
C39_12 C 0.3611(3) 0.7305(2) 0.1162(4)
H54_12 H 0.372837 0.707735 0.123153
C40_12 C 0.3672(3) 0.7595(2) 0.1561(5)
H55_12 H 0.382795 0.756071 0.190452
C48_12 C 0.2987(2) 0.6822(2) 0.0338(4)
C49_12 C 0.3305(2) 0.7042(2) 0.0237(4)
C54_12 C 0.2733(3) 0.6887(2) 0.0876(4)
H63_12 H 0.264146 0.665438 0.102912
H64_12 H 0.287195 0.701168 0.119793
H65_12 H 0.252268 0.703795 0.074984
O30_9 O 0.14165(17) 0.56300(15) 0.2437(3)
O31_9 O 0.08254(19) 0.59233(17) 0.2691(3)
O32_8 O 0.08243(19) 0.59638(18) 0.0578(3)
O33_8 O 0.07436(18) 0.39864(17) 0.1849(3)
P6_12 P 0.44173(7) 0.63609(7) 0.71112(13)
O10_12 O 0.21542(19) 0.4368(2) 0.9450(3)
H11_12 H 0.2254(8) 0.4567(4) 0.9345(14)
H12_12 H 0.2318(7) 0.4202(7) 0.946(3)
O23_8 O 0.42564(18) 0.60136(17) 0.6849(3)
O24_12 O 0.4818(2) 0.6346(2) 0.7266(3)
O25_12 O 0.4344(2) 0.66805(19) 0.6651(3)
H23_12 H 0.417414 0.662056 0.640912
C33_12 C 0.2236(2) 0.6376(2) 0.9999(4)
H50_12 H 0.218084 0.661711 0.987590
C41_12 C 0.4151(3) 0.6478(3) 0.7783(4)
C42_12 C 0.4198(3) 0.6272(3) 0.8311(5)
H56_12 H 0.437748 0.608327 0.832101
C43_12 C 0.3980(3) 0.6345(3) 0.8827(4)
H57_12 H 0.401373 0.620548 0.918600
C44_12 C 0.3715(2) 0.6619(2) 0.8817(4)
C45_12 C 0.3671(2) 0.6823(2) 0.8283(5)
H58_12 H 0.349184 0.701272 0.826707
C46_12 C 0.3888(3) 0.6749(3) 0.7781(4)
H59_12 H 0.385503 0.688942 0.742310
C47_12 C 0.2923(2) 0.6526(2) 0.9934(4)
C50_12 C 0.3543(2) 0.6973(2) 0.9750(4)
C51_12 C 0.3465(2) 0.6684(2) 0.9354(4)
C52_12 C 0.3158(2) 0.6456(2) 0.9443(4)
C53_12 C 0.3087(3) 0.6149(3) 0.9008(5)
H60_12 H 0.282298 0.614389 0.890065
H61_12 H 0.323626 0.618519 0.864036
H62_12 H 0.315676 0.591927 0.919980
C55_12 C 0.3882(2) 0.7206(2) 0.9651(5)
H66_12 H 0.409423 0.710026 0.986642
H67_12 H 0.393721 0.721932 0.921636
H68_12 H 0.383394 0.745052 0.980778
Ca4_10 Ca 0.05641(5) 0.79301(4) 0.44821(11)
O1_13 O 0.0240(3) 0.7976(3) 0.5416(5)
H1_13 H 0.0328(13) 0.8144(10) 0.5637(13)
O2_13 O 0.02856(17) 0.85102(16) 0.4344(3)
H2_13 H 0.0442(6) 0.8679(5) 0.4404(15)
H3_13 H 0.0077(5) 0.8568(11) 0.450(2)
P3_13 P 0.09260(6) 0.69712(5) 0.44156(12)
P4_13 P 0.08458(6) 0.79741(6) 0.29920(12)
O4_13 O 0.2285(3) 0.6652(3) 0.3230(6)
H4_13 H 0.2414(17) 0.6769(10) 0.349(2)
H5_13 H 0.2364(8) 0.6435(5) 0.320(3)
O6_13 O 0.1779(4) 0.7242(4) 0.3277(7)
H6_13 H 0.196686 0.727731 0.301823
H7_13 H 0.187212 0.731696 0.363110
O8_13 O 0.03688(18) 0.64132(18) 0.3162(3)
H8_13 H 0.0513(7) 0.6241(6) 0.306(2)
H9_13 H 0.0159(6) 0.6388(9) 0.2989(17)
O10_13 O 0.03458(19) 0.6868(2) 0.1950(3)
H11_13 H 0.0246(8) 0.7067(4) 0.1845(14)
H12_13 H 0.0182(7) 0.6702(7) 0.196(3)
O14_13 O 0.2183(2) 0.8322(3) 0.4157(6)
H15_13 H 0.229682 0.820435 0.452346
H16_13 H 0.229561 0.856639 0.419920
O15_13 O 0.10413(16) 0.68737(16) 0.3770(3)
O16_13 O 0.1610(2) 0.76633(17) 0.4261(3)
H17_13 H 0.139807 0.754941 0.438560
H18_13 H 0.176985 0.761914 0.457310
O17_13 O 0.12519(17) 0.68882(18) 0.4857(3)
H19_13 H 0.143273 0.680478 0.466038
H20_13 H 0.0165(17) 0.7802(8) 0.5639(14)
O18_13 O 0.08124(18) 0.73585(16) 0.4502(3)
O19_13 O 0.07067(19) 0.75975(17) 0.2877(4)
O20_13 O 0.0002(2) 0.7683(2) 0.4079(5)
H21_13 H 0.0005(10) 0.749(3) 0.384(7)
O21_13 O 0.09571(16) 0.80553(16) 0.3638(3)
O22_13 O 0.11809(17) 0.80562(19) 0.2553(3)
H22_13 H 0.131418 0.822041 0.270261
C14_13 C 0.0544(2) 0.6680(2) 0.4625(4)
C15_13 C 0.0607(2) 0.6323(2) 0.4775(4)
H35_13 H 0.085444 0.623525 0.479782
C16_13 C 0.0307(2) 0.6087(2) 0.4896(4)
H36_13 H 0.035473 0.584349 0.501197
C19_13 C 0.0182(3) 0.6808(2) 0.4581(4)
H38_13 H 0.013565 0.705328 0.447175
C29_13 C 0.0479(2) 0.8283(2) 0.2788(4)
C30_13 C 0.0113(3) 0.8178(2) 0.2822(5)
H48_13 H 0.005707 0.793312 0.291706
C33_13 C 0.0264(2) 0.8876(2) 0.2499(4)
H50_13 H 0.031916 0.911711 0.237590
C34_13 C 0.0551(2) 0.8641(2) 0.2613(4)
H51_13 H 0.080028 0.872238 0.257332
O29_7 O 0.1401(2) 0.60443(17) 0.3360(3)
O30_10 O 0.10835(17) 0.81300(15) 0.4937(3)
O31_10 O 0.16746(19) 0.84233(17) 0.5191(3)
O36_7 O 0.1297(2) 0.89119(17) 0.4067(3)
P5_13 P 0.89032(6) 0.08078(5) 0.44576(12)
O28_7 O 0.8703(2) 0.10881(17) 0.4067(3)
C35_13 C 0.8989(2) 0.0427(2) 0.3966(4)
C36_13 C 0.9218(3) 0.0474(2) 0.3460(4)
H52_13 H 0.932883 0.070367 0.338246
C37_13 C 0.9284(2) 0.0183(2) 0.3067(4)
H53_13 H 0.944309 0.021727 0.272754
C40_13 C 0.8828(3) 0.0095(2) 0.4061(5)
H55_13 H 0.867205 0.006071 0.440452
P1_13 P 0.88168(6) 0.42279(5) 0.29619(12)
P2_13 P 0.81598(6) 0.61895(7) 0.78276(14)
O3_7 O 0.8599(2) 0.39557(17) 0.3360(3)
O9_13 O 0.8231(2) 0.58811(19) 0.8301(3)
H10_13 H 0.839271 0.594946 0.855160
O11_13 O 0.7753(2) 0.6201(3) 0.7671(4)
O12_13 O 0.9975(2) 0.71291(19) 0.3178(3)
H13_13 H 0.9852(12) 0.7003(14) 0.3432(17)
H14_13 H 0.9830(10) 0.7208(16) 0.2903(15)
C1_13 C 0.8933(2) 0.4601(2) 0.3460(4)
C2_13 C 0.9642(4) 0.7810(5) 0.4129(9)
H24_13 H 0.959183 0.787561 0.455195
H25_13 H 0.946834 0.762020 0.400011
H26_13 H 0.961106 0.802384 0.386968
C3_13 C 0.9182(3) 0.4545(2) 0.3928(4)
H27_13 H 0.929535 0.431368 0.397738
C4_13 C 0.9268(3) 0.4824(2) 0.4327(4)
H28_13 H 0.943284 0.477926 0.465523
C5_13 C 0.9115(2) 0.5170(2) 0.4252(4)
C6_13 C 0.8873(3) 0.5227(3) 0.3775(5)
H29_13 H 0.877023 0.546192 0.371603
C7_13 C 0.8777(3) 0.4946(2) 0.3377(4)
H30_13 H 0.860749 0.498921 0.305376
C8_13 C 0.8419(2) 0.6064(2) 0.7159(4)
C9_13 C 0.8661(2) 0.5774(2) 0.7157(4)
H31_13 H 0.868660 0.563014 0.751200
C10_13 C 0.8871(2) 0.5688(2) 0.6638(4)
H32_13 H 0.903356 0.548474 0.663975
C11_13 C 0.8839(2) 0.5906(2) 0.6114(4)
C12_13 C 0.8592(3) 0.6190(3) 0.6116(5)
H33_13 H 0.856202 0.633074 0.575831
C13_13 C 0.8383(3) 0.6276(3) 0.6633(5)
H34_13 H 0.821725 0.647741 0.662699
C17_13 C 0.9941(2) 0.6211(2) 0.4845(4)
C18_13 C 0.9886(3) 0.6570(3) 0.4699(5)
H37_13 H 0.963856 0.666020 0.467826
C20_13 C 0.9216(2) 0.5472(2) 0.4680(4)
C21_13 C 0.8981(2) 0.5538(2) 0.5176(4)
C22_13 C 0.9072(2) 0.5825(2) 0.5574(4)
C23_13 C 0.9384(2) 0.6043(2) 0.5466(4)
C24_13 C 0.9616(2) 0.5970(2) 0.4963(4)
C25_13 C 0.9534(2) 0.5680(2) 0.4576(4)
C26_13 C 0.8641(2) 0.5316(2) 0.5284(4)
H39_13 H 0.852488 0.525715 0.489421
H40_13 H 0.846584 0.545411 0.553454
H41_13 H 0.870979 0.509192 0.549450
C27_13 C 0.9477(3) 0.6350(2) 0.5897(4)
H42_13 H 0.930525 0.655215 0.582934
H43_13 H 0.973245 0.643076 0.582557
H44_13 H 0.945262 0.626427 0.631701
C28_13 C 0.9781(3) 0.5588(2) 0.4039(4)
H45_13 H 0.993168 0.537389 0.413605
H46_13 H 0.994543 0.579342 0.395119
H47_13 H 0.962637 0.553673 0.368315
C31_13 C 0.9826(3) 0.8416(3) 0.2725(5)
H49_13 H 0.957615 0.833720 0.277115
C32_13 C 0.9900(2) 0.8772(2) 0.2558(4)
C38_13 C 0.9124(2) 0.9852(2) 0.3158(4)
C39_13 C 0.8889(3) 0.9805(2) 0.3662(4)
H54_13 H 0.877163 0.957735 0.373153
C41_13 C 0.8349(3) 0.8978(3) 0.0283(4)
C42_13 C 0.8302(3) 0.8772(3) 0.0811(5)
H56_13 H 0.812252 0.858327 0.082101
C43_13 C 0.8520(3) 0.8845(3) 0.1327(4)
H57_13 H 0.848627 0.870548 0.168600
C44_13 C 0.8785(2) 0.9119(2) 0.1317(4)
C45_13 C 0.8829(2) 0.9323(2) 0.0783(5)
H58_13 H 0.900816 0.951272 0.076707
C46_13 C 0.8612(3) 0.9249(3) 0.0281(4)
C47_13 C 0.9577(2) 0.9026(2) 0.2434(4)
C48_13 C 0.9513(2) 0.9322(2) 0.2838(4)
C49_13 C 0.9195(2) 0.9542(2) 0.2737(4)
C50_13 C 0.8957(2) 0.9473(2) 0.2250(4)
C51_13 C 0.9035(2) 0.9184(2) 0.1854(4)
C52_13 C 0.9342(2) 0.8956(2) 0.1943(4)
C53_13 C 0.9413(3) 0.8649(3) 0.1508(5)
H60_13 H 0.967702 0.864389 0.140065
H61_13 H 0.926374 0.868519 0.114036
H62_13 H 0.934324 0.841927 0.169980
C54_13 C 0.9767(3) 0.9387(2) 0.3376(4)
H63_13 H 0.985854 0.915438 0.352912
H64_13 H 0.962805 0.951168 0.369793
H65_13 H 0.997732 0.953795 0.324984
C55_13 C 0.8618(2) 0.9706(2) 0.2151(5)
H66_13 H 0.840577 0.960026 0.236642
H67_13 H 0.856279 0.971932 0.171636
H68_13 H 0.866606 0.995052 0.230778
P6_13 P 0.80827(7) 0.88609(7) 0.96112(13)
O24_13 O 0.7682(2) 0.8846(2) 0.9766(3)
O25_13 O 0.8156(2) 0.91805(19) 0.9151(3)
H23_13 H 0.832586 0.912056 0.890912
H59_13 H 0.864497 0.938942 0.992310
P1_14 P 0.11832(6) 0.57721(5) 0.29619(12)
P2_14 P 0.18402(6) 0.38105(7) 0.78276(14)
O9_14 O 0.1769(2) 0.41189(19) 0.8301(3)
H10_14 H 0.160729 0.405054 0.855160
O11_14 O 0.2247(2) 0.3799(3) 0.7671(4)
O12_14 O 0.0025(2) 0.28709(19) 0.3178(3)
H13_14 H 0.0148(12) 0.2997(14) 0.3432(17)
H14_14 H 0.0170(10) 0.2792(16) 0.2903(15)
C1_14 C 0.1067(2) 0.5399(2) 0.3460(4)
C2_14 C 0.0358(4) 0.2190(5) 0.4129(9)
H24_14 H 0.040817 0.212439 0.455195
H25_14 H 0.053166 0.237980 0.400011
H26_14 H 0.038894 0.197616 0.386968
C3_14 C 0.0818(3) 0.5455(2) 0.3928(4)
H27_14 H 0.070465 0.568632 0.397738
C4_14 C 0.0732(3) 0.5176(2) 0.4327(4)
H28_14 H 0.056716 0.522074 0.465523
C5_14 C 0.0885(2) 0.4830(2) 0.4252(4)
C6_14 C 0.1127(3) 0.4773(3) 0.3775(5)
H29_14 H 0.122977 0.453808 0.371603
C7_14 C 0.1223(3) 0.5054(2) 0.3377(4)
H30_14 H 0.139251 0.501079 0.305376
C8_14 C 0.1581(2) 0.3936(2) 0.7159(4)
C9_14 C 0.1339(2) 0.4226(2) 0.7157(4)
H31_14 H 0.131340 0.436986 0.751200
C10_14 C 0.1129(2) 0.4312(2) 0.6638(4)
H32_14 H 0.096644 0.451526 0.663975
C11_14 C 0.1161(2) 0.4094(2) 0.6114(4)
C12_14 C 0.1408(3) 0.3810(3) 0.6116(5)
H33_14 H 0.143798 0.366926 0.575831
C13_14 C 0.1617(3) 0.3724(3) 0.6633(5)
H34_14 H 0.178275 0.352259 0.662699
C17_14 C 0.0059(2) 0.3789(2) 0.4845(4)
C18_14 C 0.0114(3) 0.3430(3) 0.4699(5)
H37_14 H 0.036144 0.333980 0.467826
C20_14 C 0.0784(2) 0.4528(2) 0.4680(4)
C21_14 C 0.1019(2) 0.4462(2) 0.5176(4)
C22_14 C 0.0928(2) 0.4175(2) 0.5574(4)
C23_14 C 0.0616(2) 0.3957(2) 0.5466(4)
C24_14 C 0.0384(2) 0.4030(2) 0.4963(4)
C25_14 C 0.0466(2) 0.4320(2) 0.4576(4)
C26_14 C 0.1359(2) 0.4684(2) 0.5284(4)
H39_14 H 0.147512 0.474285 0.489421
H40_14 H 0.153416 0.454589 0.553454
H41_14 H 0.129021 0.490808 0.549450
C27_14 C 0.0523(3) 0.3650(2) 0.5897(4)
H42_14 H 0.069475 0.344785 0.582934
H43_14 H 0.026755 0.356924 0.582557
H44_14 H 0.054738 0.373573 0.631701
C28_14 C 0.0219(3) 0.4412(2) 0.4039(4)
H45_14 H 0.006832 0.462611 0.413605
H46_14 H 0.005457 0.420658 0.395119
H47_14 H 0.037363 0.446327 0.368315
C31_14 C 0.0174(3) 0.1584(3) 0.2725(5)
H49_14 H 0.042385 0.166280 0.277115
C32_14 C 0.0100(2) 0.1228(2) 0.2558(4)
C38_14 C 0.0876(2) 0.0148(2) 0.3158(4)
C39_14 C 0.1111(3) 0.0195(2) 0.3662(4)
H54_14 H 0.122837 0.042265 0.373153
C41_14 C 0.1651(3) 0.1022(3) 0.0283(4)
C42_14 C 0.1698(3) 0.1228(3) 0.0811(5)
H56_14 H 0.187748 0.141673 0.082101
C43_14 C 0.1480(3) 0.1155(3) 0.1327(4)
H57_14 H 0.151373 0.129452 0.168600
C44_14 C 0.1215(2) 0.0881(2) 0.1317(4)
C45_14 C 0.1171(2) 0.0677(2) 0.0783(5)
H58_14 H 0.099184 0.048728 0.076707
C46_14 C 0.1388(3) 0.0751(3) 0.0281(4)
C47_14 C 0.0423(2) 0.0974(2) 0.2434(4)
C48_14 C 0.0487(2) 0.0678(2) 0.2838(4)
C49_14 C 0.0805(2) 0.0458(2) 0.2737(4)
C50_14 C 0.1043(2) 0.0527(2) 0.2250(4)
C51_14 C 0.0965(2) 0.0816(2) 0.1854(4)
C52_14 C 0.0658(2) 0.1044(2) 0.1943(4)
C53_14 C 0.0587(3) 0.1351(3) 0.1508(5)
H60_14 H 0.032298 0.135611 0.140065
H61_14 H 0.073626 0.131481 0.114036
H62_14 H 0.065676 0.158073 0.169980
C54_14 C 0.0233(3) 0.0613(2) 0.3376(4)
H63_14 H 0.014146 0.084562 0.352912
H64_14 H 0.037195 0.048832 0.369793
H65_14 H 0.002268 0.046205 0.324984
C55_14 C 0.1382(2) 0.0294(2) 0.2151(5)
H66_14 H 0.159423 0.039974 0.236642
H67_14 H 0.143721 0.028068 0.171636
H68_14 H 0.133394 0.004948 0.230778
P6_14 P 0.19173(7) 0.11391(7) 0.96112(13)
O24_14 O 0.2318(2) 0.1154(2) 0.9766(3)
O25_14 O 0.1844(2) 0.08195(19) 0.9151(3)
H23_14 H 0.167414 0.087944 0.890912
H59_14 H 0.135503 0.061058 0.992310
P5_14 P 0.10968(6) 0.91922(5) 0.44576(12)
O26_10 O 0.13299(16) 0.93236(15) 0.4990(3)
O27_10 O 0.07319(18) 0.90526(16) 0.4705(3)
C35_14 C 0.1011(2) 0.9573(2) 0.3966(4)
C36_14 C 0.0782(3) 0.9526(2) 0.3460(4)
H52_14 H 0.067117 0.929633 0.338246
C37_14 C 0.0716(2) 0.9817(2) 0.3067(4)
H53_14 H 0.055691 0.978273 0.272754
C40_14 C 0.1172(3) 0.9905(2) 0.4061(5)
H55_14 H 0.132795 0.993929 0.440452
Ca8_10 Ca 0.18596(5) 0.94872(5) 0.54374(11)
O1_14 O 0.9760(3) 0.2024(3) 0.5416(5)
H1_14 H 0.9672(13) 0.1856(10) 0.5637(13)
O2_14 O 0.97144(17) 0.14898(16) 0.4344(3)
H2_14 H 0.9558(6) 0.1321(5) 0.4404(15)
H3_14 H 0.9923(5) 0.1432(11) 0.450(2)
P3_14 P 0.90740(6) 0.30288(5) 0.44156(12)
P4_14 P 0.91542(6) 0.20259(6) 0.29920(12)
O4_14 O 0.7715(3) 0.3348(3) 0.3230(6)
H4_14 H 0.7586(17) 0.3231(10) 0.349(2)
H5_14 H 0.7636(8) 0.3565(5) 0.320(3)
O6_14 O 0.8221(4) 0.2758(4) 0.3277(7)
H6_14 H 0.803314 0.272269 0.301823
H7_14 H 0.812788 0.268304 0.363110
O8_14 O 0.96312(18) 0.35868(18) 0.3162(3)
H8_14 H 0.9487(7) 0.3759(6) 0.306(2)
H9_14 H 0.9841(6) 0.3612(9) 0.2989(17)
O10_14 O 0.96542(19) 0.3132(2) 0.1950(3)
H11_14 H 0.9754(8) 0.2933(4) 0.1845(14)
H12_14 H 0.9818(7) 0.3298(7) 0.196(3)
O14_14 O 0.7817(2) 0.1678(3) 0.4157(6)
H15_14 H 0.770318 0.179565 0.452346
H16_14 H 0.770439 0.143361 0.419920
O15_14 O 0.89587(16) 0.31263(16) 0.3770(3)
O16_14 O 0.8390(2) 0.23367(17) 0.4261(3)
H17_14 H 0.860193 0.245059 0.438560
H18_14 H 0.823015 0.238086 0.457310
O17_14 O 0.87481(17) 0.31118(18) 0.4857(3)
H19_14 H 0.856727 0.319522 0.466038
H20_14 H 0.9835(17) 0.2198(8) 0.5639(14)
O18_14 O 0.91876(18) 0.26415(16) 0.4502(3)
O19_14 O 0.92933(19) 0.24025(17) 0.2877(4)
O20_14 O 0.9998(2) 0.2317(2) 0.4079(5)
H21_14 H 0.9995(10) 0.251(3) 0.384(7)
O21_14 O 0.90429(16) 0.19447(16) 0.3638(3)
O22_14 O 0.88191(17) 0.19438(19) 0.2553(3)
H22_14 H 0.868582 0.177959 0.270261
C14_14 C 0.9456(2) 0.3320(2) 0.4625(4)
C15_14 C 0.9393(2) 0.3677(2) 0.4775(4)
H35_14 H 0.914556 0.376475 0.479782
C16_14 C 0.9693(2) 0.3913(2) 0.4896(4)
H36_14 H 0.964527 0.415651 0.501197
C19_14 C 0.9818(3) 0.3192(2) 0.4581(4)
H38_14 H 0.986435 0.294672 0.447175
C29_14 C 0.9521(2) 0.1717(2) 0.2788(4)
C30_14 C 0.9887(3) 0.1822(2) 0.2822(5)
H48_14 H 0.994293 0.206688 0.291706
C33_14 C 0.9736(2) 0.1124(2) 0.2499(4)
H50_14 H 0.968084 0.088289 0.237590
C34_14 C 0.9449(2) 0.1359(2) 0.2613(4)
H51_14 H 0.919972 0.127762 0.257332
P2_15 P 0.06598(6) 0.63105(7) 0.03276(14)
O9_15 O 0.0731(2) 0.66189(19) 0.0801(3)
H10_15 H 0.089271 0.655054 0.105160
O11_15 O 0.0253(2) 0.6299(3) 0.0171(4)
H31_15 H 0.118660 0.686986 0.001200
O1_15 O 0.2740(3) 0.4524(3) 0.7916(5)
H1_15 H 0.2828(13) 0.4356(10) 0.8137(13)
O2_15 O 0.27856(17) 0.39898(16) 0.6844(3)
H2_15 H 0.2942(6) 0.3821(5) 0.6904(15)
H3_15 H 0.2577(5) 0.3932(11) 0.700(2)
P1_15 P 0.13168(6) 0.82721(5) 0.54619(12)
P3_15 P 0.34260(6) 0.55288(5) 0.69156(12)
P4_15 P 0.33458(6) 0.45259(6) 0.54920(12)
P5_15 P 0.14032(6) 0.16922(5) 0.69576(12)
P6_15 P 0.05827(7) 0.36391(7) 0.21112(13)
O3_8 O 0.1099(2) 0.85443(17) 0.5860(3)
O4_15 O 0.4785(3) 0.5848(3) 0.5730(6)
H4_15 H 0.4914(17) 0.5731(10) 0.599(2)
H5_15 H 0.4864(8) 0.6065(5) 0.570(3)
O6_15 O 0.4279(4) 0.5258(4) 0.5777(7)
H6_15 H 0.446686 0.522269 0.551823
H7_15 H 0.437212 0.518304 0.613110
O8_15 O 0.28688(18) 0.60868(18) 0.5662(3)
H8_15 H 0.3013(7) 0.6259(6) 0.556(2)
H9_15 H 0.2659(6) 0.6112(9) 0.5489(17)
O10_15 O 0.28458(19) 0.5632(2) 0.4450(3)
H11_15 H 0.2746(8) 0.5433(4) 0.4345(14)
H12_15 H 0.2682(7) 0.5798(7) 0.446(3)
O12_15 O 0.2475(2) 0.53709(19) 0.5678(3)
H13_15 H 0.2352(12) 0.5497(14) 0.5932(17)
H14_15 H 0.2330(10) 0.5292(16) 0.5403(15)
O14_15 O 0.4683(2) 0.4178(3) 0.6657(6)
H15_15 H 0.479682 0.429565 0.702346
H16_15 H 0.479561 0.393361 0.669920
O15_15 O 0.35413(16) 0.56263(16) 0.6270(3)
O16_15 O 0.4110(2) 0.48367(17) 0.6761(3)
H17_15 H 0.389807 0.495059 0.688560
H18_15 H 0.426985 0.488086 0.707310
O17_15 O 0.37519(17) 0.56118(18) 0.7357(3)
H19_15 H 0.393273 0.569522 0.716038
H20_15 H 0.2665(17) 0.4698(8) 0.8139(14)
O18_15 O 0.33124(18) 0.51415(16) 0.7002(3)
O19_15 O 0.32067(19) 0.49025(17) 0.5377(4)
O20_15 O 0.2502(2) 0.4817(2) 0.6579(5)
H21_15 H 0.2505(10) 0.501(3) 0.634(7)
O21_15 O 0.34571(16) 0.44447(16) 0.6138(3)
O22_15 O 0.36809(17) 0.44438(19) 0.5053(3)
H22_15 H 0.381418 0.427959 0.520261
O24_15 O 0.0182(2) 0.3654(2) 0.2266(3)
O25_15 O 0.0656(2) 0.33195(19) 0.1651(3)
H23_15 H 0.082586 0.337944 0.140912
O28_8 O 0.1203(2) 0.14119(17) 0.6567(3)
C1_15 C 0.1433(2) 0.7899(2) 0.5960(4)
C2_15 C 0.2142(4) 0.4690(5) 0.6629(9)
H24_15 H 0.209183 0.462439 0.705195
H25_15 H 0.196834 0.487980 0.650011
H26_15 H 0.211106 0.447616 0.636968
C3_15 C 0.1682(3) 0.7955(2) 0.6428(4)
H27_15 H 0.179535 0.818632 0.647738
C4_15 C 0.1768(3) 0.7676(2) 0.6827(4)
H28_15 H 0.193284 0.772074 0.715523
C5_15 C 0.1615(2) 0.7330(2) 0.6752(4)
C6_15 C 0.1373(3) 0.7273(3) 0.6275(5)
H29_15 H 0.127023 0.703808 0.621603
C7_15 C 0.1277(3) 0.7554(2) 0.5877(4)
H30_15 H 0.110749 0.751079 0.555376
C8_15 C 0.0919(2) 0.6436(2) 0.9659(4)
C9_15 C 0.1161(2) 0.6726(2) 0.9657(4)
C10_15 C 0.1371(2) 0.6812(2) 0.9138(4)
H32_15 H 0.153356 0.701526 0.913975
C11_15 C 0.1339(2) 0.6594(2) 0.8614(4)
C12_15 C 0.1092(3) 0.6310(3) 0.8616(5)
H33_15 H 0.106202 0.616926 0.825831
C13_15 C 0.0883(3) 0.6224(3) 0.9133(5)
H34_15 H 0.071725 0.602259 0.912699
C14_15 C 0.3044(2) 0.5820(2) 0.7125(4)
C15_15 C 0.3107(2) 0.6177(2) 0.7275(4)
H35_15 H 0.335444 0.626475 0.729782
C16_15 C 0.2807(2) 0.6413(2) 0.7396(4)
H36_15 H 0.285473 0.665651 0.751197
C17_15 C 0.2441(2) 0.6289(2) 0.7345(4)
C18_15 C 0.2386(3) 0.5930(3) 0.7199(5)
H37_15 H 0.213856 0.583980 0.717826
C19_15 C 0.2682(3) 0.5692(2) 0.7081(4)
H38_15 H 0.263565 0.544672 0.697175
C20_15 C 0.1716(2) 0.7028(2) 0.7180(4)
C21_15 C 0.1481(2) 0.6962(2) 0.7676(4)
C22_15 C 0.1572(2) 0.6675(2) 0.8074(4)
C23_15 C 0.1884(2) 0.6457(2) 0.7966(4)
C24_15 C 0.2116(2) 0.6530(2) 0.7463(4)
C25_15 C 0.2034(2) 0.6820(2) 0.7076(4)
C26_15 C 0.1141(2) 0.7184(2) 0.7784(4)
H39_15 H 0.102488 0.724285 0.739421
H40_15 H 0.096584 0.704589 0.803454
H41_15 H 0.120979 0.740808 0.799450
C27_15 C 0.1977(3) 0.6150(2) 0.8397(4)
H42_15 H 0.180525 0.594785 0.832934
H43_15 H 0.223245 0.606924 0.832557
H44_15 H 0.195262 0.623573 0.881701
C28_15 C 0.2281(3) 0.6912(2) 0.6539(4)
H45_15 H 0.243168 0.712611 0.663605
H46_15 H 0.244543 0.670658 0.645119
H47_15 H 0.212637 0.696327 0.618315
C29_15 C 0.2979(2) 0.4217(2) 0.5288(4)
C30_15 C 0.2613(3) 0.4322(2) 0.5322(5)
H48_15 H 0.255707 0.456688 0.541706
C31_15 C 0.2326(3) 0.4084(3) 0.5225(5)
H49_15 H 0.207615 0.416280 0.527115
C32_15 C 0.2400(2) 0.3728(2) 0.5058(4)
C33_15 C 0.2764(2) 0.3624(2) 0.4999(4)
H50_15 H 0.281916 0.338289 0.487590
C34_15 C 0.3051(2) 0.3859(2) 0.5113(4)
H51_15 H 0.330028 0.377762 0.507332
C35_15 C 0.1489(2) 0.2073(2) 0.6466(4)
C36_15 C 0.1718(3) 0.2026(2) 0.5960(4)
H52_15 H 0.182883 0.179633 0.588246
C37_15 C 0.1784(2) 0.2317(2) 0.5567(4)
H53_15 H 0.194309 0.228273 0.522754
C38_15 C 0.1624(2) 0.2648(2) 0.5658(4)
C39_15 C 0.1389(3) 0.2695(2) 0.6162(4)
H54_15 H 0.127163 0.292265 0.623153
C40_15 C 0.1328(3) 0.2405(2) 0.6561(5)
H55_15 H 0.117205 0.243929 0.690452
C41_15 C 0.0849(3) 0.3522(3) 0.2783(4)
C42_15 C 0.0802(3) 0.3728(3) 0.3311(5)
H56_15 H 0.062252 0.391673 0.332101
C43_15 C 0.1020(3) 0.3655(3) 0.3827(4)
H57_15 H 0.098627 0.379452 0.418600
C44_15 C 0.1285(2) 0.3381(2) 0.3817(4)
C45_15 C 0.1329(2) 0.3177(2) 0.3283(5)
H58_15 H 0.150816 0.298728 0.326707
C46_15 C 0.1112(3) 0.3251(3) 0.2781(4)
H59_15 H 0.114497 0.311058 0.242310
C47_15 C 0.2077(2) 0.3474(2) 0.4934(4)
C48_15 C 0.2013(2) 0.3178(2) 0.5338(4)
C49_15 C 0.1695(2) 0.2958(2) 0.5237(4)
C50_15 C 0.1457(2) 0.3027(2) 0.4750(4)
C51_15 C 0.1535(2) 0.3316(2) 0.4354(4)
C52_15 C 0.1842(2) 0.3544(2) 0.4443(4)
C53_15 C 0.1913(3) 0.3851(3) 0.4008(5)
H60_15 H 0.217702 0.385611 0.390065
H61_15 H 0.176374 0.381481 0.364036
H62_15 H 0.184324 0.408073 0.419980
C54_15 C 0.2267(3) 0.3113(2) 0.5876(4)
H63_15 H 0.235854 0.334562 0.602912
H64_15 H 0.212805 0.298832 0.619793
H65_15 H 0.247732 0.296205 0.574984
C55_15 C 0.1118(2) 0.2794(2) 0.4651(5)
H66_15 H 0.090577 0.289974 0.486642
H67_15 H 0.106279 0.278068 0.421636
H68_15 H 0.116606 0.254948 0.480778
O29_8 O 0.3901(2) 0.64557(17) 0.5860(3)
O36_8 O 0.3797(2) 0.35881(17) 0.6567(3)
O1_16 O 0.2260(3) 0.0476(3) 0.7916(5)
H1_16 H 0.2172(13) 0.0644(10) 0.8137(13)
O2_16 O 0.22144(17) 0.10102(16) 0.6844(3)
H2_16 H 0.2058(6) 0.1179(5) 0.6904(15)
H3_16 H 0.2423(5) 0.1068(11) 0.700(2)
P4_16 P 0.16542(6) 0.04741(6) 0.54920(12)
P5_16 P 0.35968(6) 0.33078(5) 0.69576(12)
P6_16 P 0.44173(7) 0.13609(7) 0.21112(13)
O14_16 O 0.0317(2) 0.0822(3) 0.6657(6)
H15_16 H 0.020318 0.070435 0.702346
H16_16 H 0.020439 0.106639 0.669920
O16_16 O 0.0890(2) 0.01633(17) 0.6761(3)
H17_16 H 0.110193 0.004941 0.688560
H18_16 H 0.073015 0.011914 0.707310
H20_16 H 0.2335(17) 0.0302(8) 0.8139(14)
O19_16 O 0.17933(19) 0.00975(17) 0.5377(4)
O20_16 O 0.2498(2) 0.0183(2) 0.6579(5)
O21_16 O 0.15429(16) 0.05553(16) 0.6138(3)
O22_16 O 0.13191(17) 0.05562(19) 0.5053(3)
H22_16 H 0.118582 0.072041 0.520261
O24_16 O 0.4818(2) 0.1346(2) 0.2266(3)
O25_16 O 0.4344(2) 0.16805(19) 0.1651(3)
H23_16 H 0.417414 0.162056 0.140912
C2_16 C 0.2858(4) 0.0310(5) 0.6629(9)
H24_16 H 0.290817 0.037561 0.705195
H25_16 H 0.303166 0.012020 0.650011
H26_16 H 0.288894 0.052384 0.636968
C29_16 C 0.2021(2) 0.0783(2) 0.5288(4)
C30_16 C 0.2387(3) 0.0678(2) 0.5322(5)
H48_16 H 0.244293 0.043312 0.541706
C31_16 C 0.2674(3) 0.0916(3) 0.5225(5)
H49_16 H 0.292385 0.083720 0.527115
C32_16 C 0.2600(2) 0.1272(2) 0.5058(4)
C33_16 C 0.2236(2) 0.1376(2) 0.4999(4)
H50_16 H 0.218084 0.161711 0.487590
C34_16 C 0.1949(2) 0.1141(2) 0.5113(4)
H51_16 H 0.169972 0.122238 0.507332
C35_16 C 0.3511(2) 0.2927(2) 0.6466(4)
C36_16 C 0.3282(3) 0.2974(2) 0.5960(4)
H52_16 H 0.317117 0.320367 0.588246
C37_16 C 0.3216(2) 0.2683(2) 0.5567(4)
H53_16 H 0.305691 0.271727 0.522754
C38_16 C 0.3376(2) 0.2352(2) 0.5658(4)
C39_16 C 0.3611(3) 0.2305(2) 0.6162(4)
H54_16 H 0.372837 0.207735 0.623153
C40_16 C 0.3672(3) 0.2595(2) 0.6561(5)
H55_16 H 0.382795 0.256071 0.690452
C41_16 C 0.4151(3) 0.1478(3) 0.2783(4)
C42_16 C 0.4198(3) 0.1272(3) 0.3311(5)
H56_16 H 0.437748 0.108327 0.332101
C43_16 C 0.3980(3) 0.1345(3) 0.3827(4)
H57_16 H 0.401373 0.120548 0.418600
C44_16 C 0.3715(2) 0.1619(2) 0.3817(4)
C45_16 C 0.3671(2) 0.1823(2) 0.3283(5)
H58_16 H 0.349184 0.201272 0.326707
C46_16 C 0.3888(3) 0.1749(3) 0.2781(4)
H59_16 H 0.385503 0.188942 0.242310
C47_16 C 0.2923(2) 0.1526(2) 0.4934(4)
C48_16 C 0.2987(2) 0.1822(2) 0.5338(4)
C49_16 C 0.3305(2) 0.2042(2) 0.5237(4)
C50_16 C 0.3543(2) 0.1973(2) 0.4750(4)
C51_16 C 0.3465(2) 0.1684(2) 0.4354(4)
C52_16 C 0.3158(2) 0.1456(2) 0.4443(4)
C53_16 C 0.3087(3) 0.1149(3) 0.4008(5)
H60_16 H 0.282298 0.114389 0.390065
H61_16 H 0.323626 0.118519 0.364036
H62_16 H 0.315676 0.091927 0.419980
C54_16 C 0.2733(3) 0.1887(2) 0.5876(4)
H63_16 H 0.264146 0.165438 0.602912
H64_16 H 0.287195 0.201168 0.619793
H65_16 H 0.252268 0.203795 0.574984
C55_16 C 0.3882(2) 0.2206(2) 0.4651(5)
H66_16 H 0.409423 0.210026 0.486642
H67_16 H 0.393721 0.221932 0.421636
H68_16 H 0.383394 0.245052 0.480778
P2_16 P 0.43402(6) 0.86895(7) 0.03276(14)
O9_16 O 0.4269(2) 0.83811(19) 0.0801(3)
H10_16 H 0.410729 0.844946 0.105160
O11_16 O 0.4747(2) 0.8701(3) 0.0171(4)
H31_16 H 0.381340 0.813014 0.001200
P1_16 P 0.36832(6) 0.67279(5) 0.54619(12)
P3_16 P 0.15740(6) 0.94712(5) 0.69156(12)
O4_16 O 0.0215(3) 0.9152(3) 0.5730(6)
H4_16 H 0.0086(17) 0.9269(10) 0.599(2)
H5_16 H 0.0136(8) 0.8935(5) 0.570(3)
O6_16 O 0.0721(4) 0.9742(4) 0.5777(7)
H6_16 H 0.053314 0.977731 0.551823
H7_16 H 0.062788 0.981696 0.613110
O8_16 O 0.21312(18) 0.89132(18) 0.5662(3)
H8_16 H 0.1987(7) 0.8741(6) 0.556(2)
H9_16 H 0.2341(6) 0.8888(9) 0.5489(17)
O10_16 O 0.21542(19) 0.9368(2) 0.4450(3)
H11_16 H 0.2254(8) 0.9567(4) 0.4345(14)
H12_16 H 0.2318(7) 0.9202(7) 0.446(3)
O12_16 O 0.2525(2) 0.96291(19) 0.5678(3)
H13_16 H 0.2648(12) 0.9503(14) 0.5932(17)
H14_16 H 0.2670(10) 0.9708(16) 0.5403(15)
O15_16 O 0.14587(16) 0.93737(16) 0.6270(3)
O17_16 O 0.12481(17) 0.93882(18) 0.7357(3)
H19_16 H 0.106727 0.930478 0.716038
O18_16 O 0.16876(18) 0.98585(16) 0.7002(3)
H21_16 H 0.2495(10) 0.999(3) 0.634(7)
C1_16 C 0.3567(2) 0.7101(2) 0.5960(4)
C3_16 C 0.3318(3) 0.7045(2) 0.6428(4)
H27_16 H 0.320465 0.681368 0.647738
C4_16 C 0.3232(3) 0.7324(2) 0.6827(4)
H28_16 H 0.306716 0.727926 0.715523
C5_16 C 0.3385(2) 0.7670(2) 0.6752(4)
C6_16 C 0.3627(3) 0.7727(3) 0.6275(5)
H29_16 H 0.372977 0.796192 0.621603
C7_16 C 0.3723(3) 0.7446(2) 0.5877(4)
H30_16 H 0.389251 0.748921 0.555376
C8_16 C 0.4081(2) 0.8564(2) 0.9659(4)
C9_16 C 0.3839(2) 0.8274(2) 0.9657(4)
C10_16 C 0.3629(2) 0.8188(2) 0.9138(4)
H32_16 H 0.346644 0.798474 0.913975
C11_16 C 0.3661(2) 0.8406(2) 0.8614(4)
C12_16 C 0.3908(3) 0.8690(3) 0.8616(5)
H33_16 H 0.393798 0.883074 0.825831
C13_16 C 0.4117(3) 0.8776(3) 0.9133(5)
H34_16 H 0.428275 0.897741 0.912699
C14_16 C 0.1956(2) 0.9180(2) 0.7125(4)
C15_16 C 0.1893(2) 0.8823(2) 0.7275(4)
H35_16 H 0.164556 0.873525 0.729782
C16_16 C 0.2193(2) 0.8587(2) 0.7396(4)
H36_16 H 0.214527 0.834349 0.751197
C17_16 C 0.2559(2) 0.8711(2) 0.7345(4)
C18_16 C 0.2614(3) 0.9070(3) 0.7199(5)
H37_16 H 0.286144 0.916020 0.717826
C19_16 C 0.2318(3) 0.9308(2) 0.7081(4)
H38_16 H 0.236435 0.955328 0.697175
C20_16 C 0.3284(2) 0.7972(2) 0.7180(4)
C21_16 C 0.3519(2) 0.8038(2) 0.7676(4)
C22_16 C 0.3428(2) 0.8325(2) 0.8074(4)
C23_16 C 0.3116(2) 0.8543(2) 0.7966(4)
C24_16 C 0.2884(2) 0.8470(2) 0.7463(4)
C25_16 C 0.2966(2) 0.8180(2) 0.7076(4)
C26_16 C 0.3859(2) 0.7816(2) 0.7784(4)
H39_16 H 0.397512 0.775715 0.739421
H40_16 H 0.403416 0.795411 0.803454
H41_16 H 0.379021 0.759192 0.799450
C27_16 C 0.3023(3) 0.8850(2) 0.8397(4)
H42_16 H 0.319475 0.905215 0.832934
H43_16 H 0.276755 0.893076 0.832557
H44_16 H 0.304738 0.876427 0.881701
C28_16 C 0.2719(3) 0.8088(2) 0.6539(4)
H45_16 H 0.256832 0.787389 0.663605
H46_16 H 0.255457 0.829342 0.645119
H47_16 H 0.287363 0.803673 0.618315
loop_
_geom_bond_atom_site_label_1
_geom_bond_atom_site_label_2
_geom_bond_site_symmetry_1
_geom_bond_site_symmetry_2
Ca1 O4 1_555 1_555
Ca2 O8 1_555 1_555
Ca3 O14 1_555 1_555
Ca4 O1 1_555 1_555
O1 H1 1_555 1_555
O2 Ca4 1_555 1_555
H2 O2 1_555 1_555
H3 O2 1_555 1_555
P2 O9 1_555 1_555
P3 O15 1_555 1_555
P4 O19 1_555 1_555
P5 O26 1_555 1_555
O4 H4 1_555 1_555
H5 O4 1_555 1_555
O6 Ca1 1_555 1_555
H6 O6 1_555 1_555
H7 O6 1_555 1_555
O8 H8 1_555 1_555
H9 O8 1_555 1_555
O9 H10 1_555 1_555
O10 Ca2 1_555 1_555
H11 O10 1_555 1_555
H12 O10 1_555 1_555
O11 P2 1_555 1_555
O12 Ca2 1_555 1_555
H13 O12 1_555 1_555
H14 O12 1_555 1_555
O13 P2 1_555 1_555
O14 H15 1_555 1_555
H16 O14 1_555 1_555
O15 Ca1 1_555 1_555
O16 Ca3 1_555 1_555
H17 O16 1_555 1_555
H18 O16 1_555 1_555
O17 P3 1_555 1_555
H19 O17 1_555 1_555
H20 O1 1_555 1_555
O18 Ca4 1_555 1_555
O19 Ca2 1_555 1_555
O20 Ca4 1_555 1_555
H21 O20 1_555 1_555
O21 Ca3 1_555 1_555
O22 P4 1_555 1_555
H22 O22 1_555 1_555
O26 Ca7 1_555 1_555
O27 P5 1_555 1_555
O28 P5 1_555 1_555
C2 O20 1_555 1_555
H24 C2 1_555 1_555
H25 C2 1_555 1_555
H26 C2 1_555 1_555
C6 C5 1_555 1_555
H29 C6 1_555 1_555
C8 P2 1_555 1_555
C9 C8 1_555 1_555
H31 C9 1_555 1_555
C10 C9 1_555 1_555
H32 C10 1_555 1_555
C11 C10 1_555 1_555
C12 C11 1_555 1_555
H33 C12 1_555 1_555
C13 C8 1_555 1_555
H34 C13 1_555 1_555
C14 P3 1_555 1_555
C15 C14 1_555 1_555
H35 C15 1_555 1_555
C16 C15 1_555 1_555
H36 C16 1_555 1_555
C17 C16 1_555 1_555
C18 C17 1_555 1_555
H37 C18 1_555 1_555
C19 C14 1_555 1_555
H38 C19 1_555 1_555
C20 C5 1_555 1_555
C21 C20 1_555 1_555
C22 C11 1_555 1_555
C23 C22 1_555 1_555
C24 C17 1_555 1_555
C25 C20 1_555 1_555
C26 C21 1_555 1_555
H39 C26 1_555 1_555
H40 C26 1_555 1_555
H41 C26 1_555 1_555
C27 C23 1_555 1_555
H42 C27 1_555 1_555
H43 C27 1_555 1_555
H44 C27 1_555 1_555
C28 C25 1_555 1_555
H45 C28 1_555 1_555
H46 C28 1_555 1_555
H47 C28 1_555 1_555
C29 P4 1_555 1_555
C30 C29 1_555 1_555
H48 C30 1_555 1_555
C31 C30 1_555 1_555
H49 C31 1_555 1_555
C32 C31 1_555 1_555
C33 C32 1_555 1_555
H50 C33 1_555 1_555
C34 C29 1_555 1_555
H51 C34 1_555 1_555
C35 P5 1_555 1_555
C36 C35 1_555 1_555
H52 C36 1_555 1_555
C37 C36 1_555 1_555
H53 C37 1_555 1_555
C38 C37 1_555 1_555
C39 C38 1_555 1_555
H54 C39 1_555 1_555
C40 C35 1_555 1_555
H55 C40 1_555 1_555
C42 C41 1_555 1_555
H56 C42 1_555 1_555
C43 C42 1_555 1_555
H57 C43 1_555 1_555
C44 C43 1_555 1_555
C45 C44 1_555 1_555
H58 C45 1_555 1_555
C46 C41 1_555 1_555
C47 C32 1_555 1_555
C48 C47 1_555 1_555
C49 C38 1_555 1_555
C50 C49 1_555 1_555
C51 C44 1_555 1_555
C52 C47 1_555 1_555
C53 C52 1_555 1_555
H60 C53 1_555 1_555
H61 C53 1_555 1_555
H62 C53 1_555 1_555
C54 C48 1_555 1_555
H63 C54 1_555 1_555
H64 C54 1_555 1_555
H65 C54 1_555 1_555
C55 C50 1_555 1_555
H66 C55 1_555 1_555
H67 C55 1_555 1_555
H68 C55 1_555 1_555
Ca7 O27 1_555 1_555
Ca8 O26 1_555 1_555
Ca9 O28 1_555 1_555
Ca10 O13 1_555 1_555
O29 Ca1 1_555 1_555
O30 Ca3 1_555 1_555
O31 Ca3 1_555 1_555
O32 Ca3 1_555 1_555
O33 Ca1 1_555 1_555
O34 Ca1 1_555 1_555
O35 Ca1 1_555 1_555
O36 Ca3 1_555 1_555
Ca2 O15 1_555 1_555
Ca2 O34 1_555 1_555
Ca4 O21 1_555 1_555
Ca4 O30 1_555 1_555
P3 O18 1_555 1_555
P4 O21 1_555 1_555
C12 C13 1_555 1_555
C18 C19 1_555 1_555
C21 C22 1_555 1_555
C23 C24 1_555 1_555
C24 C25 1_555 1_555
C33 C34 1_555 1_555
C39 C40 1_555 1_555
C45 C46 1_555 1_555
C48 C49 1_555 1_555
C50 C51 1_555 1_555
C51 C52 1_555 1_555
P6 O23 1_555 1_555
O23 Ca6 1_555 1_555
O24 P6 1_555 1_555
O25 P6 1_555 1_555
H23 O25 1_555 1_555
P1 O3 1_555 1_555
O3 Ca5 1_555 1_555
O5 P1 1_555 1_555
O7 P1 1_555 1_555
C1 P1 1_555 1_555
C3 C1 1_555 1_555
H27 C3 1_555 1_555
C4 C3 1_555 1_555
H28 C4 1_555 1_555
C7 C1 1_555 1_555
H30 C7 1_555 1_555
Ca11 O5 1_555 1_555
Ca12 O5 1_555 1_555
O7 Ca11 1_555 1_555
P1_2 O29 1_555 1_555
O5_2 P1_2 1_555 1_555
O7_2 P1_2 1_555 1_555
C1_2 P1_2 1_555 1_555
C3_2 C1_2 1_555 1_555
H27_2 C3_2 1_555 1_555
C4_2 C3_2 1_555 1_555
H28_2 C4_2 1_555 1_555
C7_2 C1_2 1_555 1_555
H30_2 C7_2 1_555 1_555
Ca11_2 O5_2 1_555 1_555
Ca12_2 O5_2 1_555 1_555
O7_2 Ca11_2 1_555 1_555
Ca5 O4_2 1_555 1_555
Ca2_2 O8_2 1_555 1_555
Ca9 O14_2 1_555 1_555
Ca4_2 O1_2 1_555 1_555
O1_2 H1_2 1_555 1_555
O2_2 Ca4_2 1_555 1_555
H2_2 O2_2 1_555 1_555
H3_2 O2_2 1_555 1_555
P2_2 O9_2 1_555 1_555
P3_2 O15_2 1_555 1_555
P4_2 O19_2 1_555 1_555
P5_2 O26_2 1_555 1_555
O4_2 H4_2 1_555 1_555
H5_2 O4_2 1_555 1_555
O6_2 Ca5 1_555 1_555
H6_2 O6_2 1_555 1_555
H7_2 O6_2 1_555 1_555
O8_2 H8_2 1_555 1_555
H9_2 O8_2 1_555 1_555
O9_2 H10_2 1_555 1_555
O10_2 Ca2_2 1_555 1_555
H11_2 O10_2 1_555 1_555
H12_2 O10_2 1_555 1_555
O11_2 P2_2 1_555 1_555
O12_2 Ca2_2 1_555 1_555
H13_2 O12_2 1_555 1_555
H14_2 O12_2 1_555 1_555
O13_2 P2_2 1_555 1_555
O14_2 H15_2 1_555 1_555
H16_2 O14_2 1_555 1_555
O15_2 Ca5 1_555 1_555
O16_2 Ca9 1_555 1_555
H17_2 O16_2 1_555 1_555
H18_2 O16_2 1_555 1_555
O17_2 P3_2 1_555 1_555
H19_2 O17_2 1_555 1_555
H20_2 O1_2 1_555 1_555
O18_2 Ca4_2 1_555 1_555
O19_2 Ca2_2 1_555 1_555
O20_2 Ca4_2 1_555 1_555
H21_2 O20_2 1_555 1_555
O21_2 Ca9 1_555 1_555
O22_2 P4_2 1_555 1_555
H22_2 O22_2 1_555 1_555
O26_2 Ca7_2 1_555 1_555
O27_2 P5_2 1_555 1_555
O36 P5_2 1_555 1_555
C2_2 O20_2 1_555 1_555
H24_2 C2_2 1_555 1_555
H25_2 C2_2 1_555 1_555
H26_2 C2_2 1_555 1_555
C6_2 C5_2 1_555 1_555
H29_2 C6_2 1_555 1_555
C8_2 P2_2 1_555 1_555
C9_2 C8_2 1_555 1_555
H31_2 C9_2 1_555 1_555
C10_2 C9_2 1_555 1_555
H32_2 C10_2 1_555 1_555
C11_2 C10_2 1_555 1_555
C12_2 C11_2 1_555 1_555
H33_2 C12_2 1_555 1_555
C13_2 C8_2 1_555 1_555
H34_2 C13_2 1_555 1_555
C14_2 P3_2 1_555 1_555
C15_2 C14_2 1_555 1_555
H35_2 C15_2 1_555 1_555
C16_2 C15_2 1_555 1_555
H36_2 C16_2 1_555 1_555
C17_2 C16_2 1_555 1_555
C18_2 C17_2 1_555 1_555
H37_2 C18_2 1_555 1_555
C19_2 C14_2 1_555 1_555
H38_2 C19_2 1_555 1_555
C20_2 C5_2 1_555 1_555
C21_2 C20_2 1_555 1_555
C22_2 C11_2 1_555 1_555
C23_2 C22_2 1_555 1_555
C24_2 C17_2 1_555 1_555
C25_2 C20_2 1_555 1_555
C26_2 C21_2 1_555 1_555
H39_2 C26_2 1_555 1_555
H40_2 C26_2 1_555 1_555
H41_2 C26_2 1_555 1_555
C27_2 C23_2 1_555 1_555
H42_2 C27_2 1_555 1_555
H43_2 C27_2 1_555 1_555
H44_2 C27_2 1_555 1_555
C28_2 C25_2 1_555 1_555
H45_2 C28_2 1_555 1_555
H46_2 C28_2 1_555 1_555
H47_2 C28_2 1_555 1_555
C29_2 P4_2 1_555 1_555
C30_2 C29_2 1_555 1_555
H48_2 C30_2 1_555 1_555
C31_2 C30_2 1_555 1_555
H49_2 C31_2 1_555 1_555
C32_2 C31_2 1_555 1_555
C33_2 C32_2 1_555 1_555
H50_2 C33_2 1_555 1_555
C34_2 C29_2 1_555 1_555
H51_2 C34_2 1_555 1_555
C35_2 P5_2 1_555 1_555
C36_2 C35_2 1_555 1_555
H52_2 C36_2 1_555 1_555
C37_2 C36_2 1_555 1_555
H53_2 C37_2 1_555 1_555
C38_2 C37_2 1_555 1_555
C39_2 C38_2 1_555 1_555
H54_2 C39_2 1_555 1_555
C40_2 C35_2 1_555 1_555
H55_2 C40_2 1_555 1_555
C42_2 C41_2 1_555 1_555
H56_2 C42_2 1_555 1_555
C43_2 C42_2 1_555 1_555
H57_2 C43_2 1_555 1_555
C44_2 C43_2 1_555 1_555
C45_2 C44_2 1_555 1_555
H58_2 C45_2 1_555 1_555
C46_2 C41_2 1_555 1_555
C47_2 C32_2 1_555 1_555
C48_2 C47_2 1_555 1_555
C49_2 C38_2 1_555 1_555
C50_2 C49_2 1_555 1_555
C51_2 C44_2 1_555 1_555
C52_2 C47_2 1_555 1_555
C53_2 C52_2 1_555 1_555
H60_2 C53_2 1_555 1_555
H61_2 C53_2 1_555 1_555
H62_2 C53_2 1_555 1_555
C54_2 C48_2 1_555 1_555
H63_2 C54_2 1_555 1_555
H64_2 C54_2 1_555 1_555
H65_2 C54_2 1_555 1_555
C55_2 C50_2 1_555 1_555
H66_2 C55_2 1_555 1_555
H67_2 C55_2 1_555 1_555
H68_2 C55_2 1_555 1_555
Ca7_2 O27_2 1_555 1_555
Ca8_2 O26_2 1_555 1_555
Ca10_2 O13_2 1_555 1_555
O30_2 Ca9 1_555 1_555
O31_2 Ca9 1_555 1_555
O32_2 Ca9 1_555 1_555
O33_2 Ca5 1_555 1_555
O34_2 Ca5 1_555 1_555
O35_2 Ca5 1_555 1_555
Ca2_2 O15_2 1_555 1_555
Ca2_2 O34_2 1_555 1_555
Ca4_2 O21_2 1_555 1_555
Ca4_2 O30_2 1_555 1_555
P3_2 O18_2 1_555 1_555
P4_2 O21_2 1_555 1_555
C12_2 C13_2 1_555 1_555
C18_2 C19_2 1_555 1_555
C21_2 C22_2 1_555 1_555
C23_2 C24_2 1_555 1_555
C24_2 C25_2 1_555 1_555
C33_2 C34_2 1_555 1_555
C39_2 C40_2 1_555 1_555
C45_2 C46_2 1_555 1_555
C48_2 C49_2 1_555 1_555
C50_2 C51_2 1_555 1_555
C51_2 C52_2 1_555 1_555
P6_2 O23_2 1_555 1_555
O23_2 Ca6_2 1_555 1_555
O24_2 P6_2 1_555 1_555
O25_2 P6_2 1_555 1_555
H23_2 O25_2 1_555 1_555
P2_3 O9_3 1_555 1_555
O9_3 H10_3 1_555 1_555
O11_3 P2_3 1_555 1_555
O13_3 P2_3 1_555 1_555
Ca11_2 O13_3 1_555 1_555
Ca1_2 O4_3 1_555 1_555
Ca2_3 O8_3 1_555 1_555
P1_3 O3_2 1_555 1_555
P3_3 O15_3 1_555 1_555
O3_2 Ca7_2 1_555 1_555
O4_3 H4_3 1_555 1_555
H5_3 O4_3 1_555 1_555
O30 P1_3 1_555 1_555
O6_3 Ca1_2 1_555 1_555
H6_3 O6_3 1_555 1_555
H7_3 O6_3 1_555 1_555
O31 P1_3 1_555 1_555
O8_3 H8_3 1_555 1_555
H9_3 O8_3 1_555 1_555
O10_3 Ca2_3 1_555 1_555
H11_3 O10_3 1_555 1_555
H12_3 O10_3 1_555 1_555
O12_3 Ca2_3 1_555 1_555
H13_3 O12_3 1_555 1_555
H14_3 O12_3 1_555 1_555
O15_3 Ca1_2 1_555 1_555
O17_3 P3_3 1_555 1_555
H19_3 O17_3 1_555 1_555
C1_3 P1_3 1_555 1_555
C3_3 C1_3 1_555 1_555
H27_3 C3_3 1_555 1_555
C4_3 C3_3 1_555 1_555
H28_3 C4_3 1_555 1_555
C5_3 C4_3 1_555 1_555
C6_3 C5_3 1_555 1_555
H29_3 C6_3 1_555 1_555
C7_3 C1_3 1_555 1_555
H30_3 C7_3 1_555 1_555
C9_3 C8_3 1_555 1_555
C10_3 C9_3 1_555 1_555
H32_3 C10_3 1_555 1_555
C11_3 C10_3 1_555 1_555
C12_3 C11_3 1_555 1_555
H33_3 C12_3 1_555 1_555
C13_3 C8_3 1_555 1_555
H34_3 C13_3 1_555 1_555
C14_3 P3_3 1_555 1_555
C15_3 C14_3 1_555 1_555
H35_3 C15_3 1_555 1_555
C16_3 C15_3 1_555 1_555
H36_3 C16_3 1_555 1_555
C17_3 C16_3 1_555 1_555
C18_3 C17_3 1_555 1_555
H37_3 C18_3 1_555 1_555
C19_3 C14_3 1_555 1_555
H38_3 C19_3 1_555 1_555
C20_3 C5_3 1_555 1_555
C21_3 C20_3 1_555 1_555
C22_3 C11_3 1_555 1_555
C23_3 C22_3 1_555 1_555
C24_3 C17_3 1_555 1_555
C25_3 C20_3 1_555 1_555
C26_3 C21_3 1_555 1_555
H39_3 C26_3 1_555 1_555
H40_3 C26_3 1_555 1_555
H41_3 C26_3 1_555 1_555
C27_3 C23_3 1_555 1_555
H42_3 C27_3 1_555 1_555
H43_3 C27_3 1_555 1_555
H44_3 C27_3 1_555 1_555
C28_3 C25_3 1_555 1_555
H45_3 C28_3 1_555 1_555
H46_3 C28_3 1_555 1_555
H47_3 C28_3 1_555 1_555
O29_2 Ca1_2 1_555 1_555
O33_3 Ca1_2 1_555 1_555
O34_3 Ca1_2 1_555 1_555
O35_3 Ca1_2 1_555 1_555
Ca2_3 O15_3 1_555 1_555
Ca2_3 O34_3 1_555 1_555
P3_3 O18_3 1_555 1_555
C6_3 C7_3 1_555 1_555
C12_3 C13_3 1_555 1_555
C18_3 C19_3 1_555 1_555
C21_3 C22_3 1_555 1_555
C23_3 C24_3 1_555 1_555
C24_3 C25_3 1_555 1_555
Ca3_2 O14_3 1_555 1_555
Ca4_3 O1_3 1_555 1_555
O1_3 H1_3 1_555 1_555
O2_3 Ca4_3 1_555 1_555
H2_3 O2_3 1_555 1_555
H3_3 O2_3 1_555 1_555
P4_3 O19_3 1_555 1_555
P5_3 O26_3 1_555 1_555
P6_3 O23_3 1_555 1_555
O14_3 H15_3 1_555 1_555
H16_3 O14_3 1_555 1_555
O16_3 Ca3_2 1_555 1_555
H17_3 O16_3 1_555 1_555
H18_3 O16_3 1_555 1_555
H20_3 O1_3 1_555 1_555
O20_3 Ca4_3 1_555 1_555
O21_3 Ca3_2 1_555 1_555
O22_3 P4_3 1_555 1_555
H22_3 O22_3 1_555 1_555
O23_3 Ca6_3 1_555 1_555
O24_3 P6_3 1_555 1_555
O25_3 P6_3 1_555 1_555
H23_3 O25_3 1_555 1_555
O26_3 Ca6_2 1_555 1_555
O27_3 P5_3 1_555 1_555
O28_2 P5_3 1_555 1_555
C2_3 O20_3 1_555 1_555
H24_3 C2_3 1_555 1_555
H25_3 C2_3 1_555 1_555
H26_3 C2_3 1_555 1_555
C29_3 P4_3 1_555 1_555
C30_3 C29_3 1_555 1_555
H48_3 C30_3 1_555 1_555
C31_3 C30_3 1_555 1_555
H49_3 C31_3 1_555 1_555
C32_3 C31_3 1_555 1_555
C33_3 C32_3 1_555 1_555
H50_3 C33_3 1_555 1_555
C34_3 C29_3 1_555 1_555
H51_3 C34_3 1_555 1_555
C35_3 P5_3 1_555 1_555
C36_3 C35_3 1_555 1_555
H52_3 C36_3 1_555 1_555
C37_3 C36_3 1_555 1_555
H53_3 C37_3 1_555 1_555
C38_3 C37_3 1_555 1_555
C39_3 C38_3 1_555 1_555
H54_3 C39_3 1_555 1_555
C40_3 C35_3 1_555 1_555
H55_3 C40_3 1_555 1_555
C41_3 P6_3 1_555 1_555
C42_3 C41_3 1_555 1_555
H56_3 C42_3 1_555 1_555
C43_3 C42_3 1_555 1_555
H57_3 C43_3 1_555 1_555
C44_3 C43_3 1_555 1_555
C45_3 C44_3 1_555 1_555
H58_3 C45_3 1_555 1_555
C46_3 C41_3 1_555 1_555
H59_3 C46_3 1_555 1_555
C47_3 C32_3 1_555 1_555
C48_3 C47_3 1_555 1_555
C49_3 C38_3 1_555 1_555
C50_3 C49_3 1_555 1_555
C51_3 C44_3 1_555 1_555
C52_3 C47_3 1_555 1_555
C53_3 C52_3 1_555 1_555
H60_3 C53_3 1_555 1_555
H61_3 C53_3 1_555 1_555
H62_3 C53_3 1_555 1_555
C54_3 C48_3 1_555 1_555
H63_3 C54_3 1_555 1_555
H64_3 C54_3 1_555 1_555
H65_3 C54_3 1_555 1_555
C55_3 C50_3 1_555 1_555
H66_3 C55_3 1_555 1_555
H67_3 C55_3 1_555 1_555
H68_3 C55_3 1_555 1_555
Ca6_2 O27_3 1_555 1_555
Ca8_3 O26_3 1_555 1_555
Ca9_2 O28_2 1_555 1_555
O30_3 Ca3_2 1_555 1_555
O31_3 Ca3_2 1_555 1_555
O32_3 Ca3_2 1_555 1_555
O36_2 Ca3_2 1_555 1_555
Ca4_3 O21_3 1_555 1_555
Ca4_3 O30_3 1_555 1_555
P4_3 O21_3 1_555 1_555
C33_3 C34_3 1_555 1_555
C39_3 C40_3 1_555 1_555
C45_3 C46_3 1_555 1_555
C48_3 C49_3 1_555 1_555
C50_3 C51_3 1_555 1_555
C51_3 C52_3 1_555 1_555
P2_4 O9_4 1_555 1_555
O9_4 H10_4 1_555 1_555
O11_4 P2_4 1_555 1_555
O13_4 P2_4 1_555 1_555
Ca10_3 O13_4 1_555 1_555
Ca7_2 O4_4 1_555 1_555
Ca8_2 O8_4 1_555 1_555
Ca9_2 O14_4 1_555 1_555
Ca4_4 O1_4 1_555 1_555
O1_4 H1_4 1_555 1_555
O2_4 Ca4_4 1_555 1_555
H2_4 O2_4 1_555 1_555
H3_4 O2_4 1_555 1_555
P1_4 O29_2 1_555 1_555
P3_4 O15_4 1_555 1_555
P4_4 O19_4 1_555 1_555
P5_4 O26_4 1_555 1_555
P6_4 O23_4 1_555 1_555
O4_4 H4_4 1_555 1_555
H5_4 O4_4 1_555 1_555
O5_3 P1_4 1_555 1_555
O6_4 Ca7_2 1_555 1_555
H6_4 O6_4 1_555 1_555
H7_4 O6_4 1_555 1_555
O7_3 P1_4 1_555 1_555
O8_4 H8_4 1_555 1_555
H9_4 O8_4 1_555 1_555
O10_4 Ca8_2 1_555 1_555
H11_4 O10_4 1_555 1_555
H12_4 O10_4 1_555 1_555
O12_4 Ca8_2 1_555 1_555
H13_4 O12_4 1_555 1_555
H14_4 O12_4 1_555 1_555
O14_4 H15_4 1_555 1_555
H16_4 O14_4 1_555 1_555
O15_4 Ca7_2 1_555 1_555
O16_4 Ca9_2 1_555 1_555
H17_4 O16_4 1_555 1_555
H18_4 O16_4 1_555 1_555
O17_4 P3_4 1_555 1_555
H19_4 O17_4 1_555 1_555
H20_4 O1_4 1_555 1_555
O18_4 Ca4_4 1_555 1_555
O19_4 Ca8_2 1_555 1_555
O20_4 Ca4_4 1_555 1_555
H21_4 O20_4 1_555 1_555
O21_4 Ca9_2 1_555 1_555
O22_4 P4_4 1_555 1_555
H22_4 O22_4 1_555 1_555
O23_4 Ca6_4 1_555 1_555
O24_4 P6_4 1_555 1_555
O25_4 P6_4 1_555 1_555
H23_4 O25_4 1_555 1_555
O26_4 Ca7_3 1_555 1_555
O27_4 P5_4 1_555 1_555
O36_2 P5_4 1_555 1_555
C1_4 P1_4 1_555 1_555
C2_4 O20_4 1_555 1_555
H24_4 C2_4 1_555 1_555
H25_4 C2_4 1_555 1_555
H26_4 C2_4 1_555 1_555
C3_4 C1_4 1_555 1_555
H27_4 C3_4 1_555 1_555
C4_4 C3_4 1_555 1_555
H28_4 C4_4 1_555 1_555
C5_4 C4_4 1_555 1_555
C6_4 C5_4 1_555 1_555
H29_4 C6_4 1_555 1_555
C7_4 C1_4 1_555 1_555
H30_4 C7_4 1_555 1_555
C9_4 C8_4 1_555 1_555
C10_4 C9_4 1_555 1_555
H32_4 C10_4 1_555 1_555
C11_4 C10_4 1_555 1_555
C12_4 C11_4 1_555 1_555
H33_4 C12_4 1_555 1_555
C13_4 C8_4 1_555 1_555
H34_4 C13_4 1_555 1_555
C14_4 P3_4 1_555 1_555
C15_4 C14_4 1_555 1_555
H35_4 C15_4 1_555 1_555
C16_4 C15_4 1_555 1_555
H36_4 C16_4 1_555 1_555
C17_4 C16_4 1_555 1_555
C18_4 C17_4 1_555 1_555
H37_4 C18_4 1_555 1_555
C19_4 C14_4 1_555 1_555
H38_4 C19_4 1_555 1_555
C20_4 C5_4 1_555 1_555
C21_4 C20_4 1_555 1_555
C22_4 C11_4 1_555 1_555
C23_4 C22_4 1_555 1_555
C24_4 C17_4 1_555 1_555
C25_4 C20_4 1_555 1_555
C26_4 C21_4 1_555 1_555
H39_4 C26_4 1_555 1_555
H40_4 C26_4 1_555 1_555
H41_4 C26_4 1_555 1_555
C27_4 C23_4 1_555 1_555
H42_4 C27_4 1_555 1_555
H43_4 C27_4 1_555 1_555
H44_4 C27_4 1_555 1_555
C28_4 C25_4 1_555 1_555
H45_4 C28_4 1_555 1_555
H46_4 C28_4 1_555 1_555
H47_4 C28_4 1_555 1_555
C29_4 P4_4 1_555 1_555
C30_4 C29_4 1_555 1_555
H48_4 C30_4 1_555 1_555
C31_4 C30_4 1_555 1_555
H49_4 C31_4 1_555 1_555
C32_4 C31_4 1_555 1_555
C33_4 C32_4 1_555 1_555
H50_4 C33_4 1_555 1_555
C34_4 C29_4 1_555 1_555
H51_4 C34_4 1_555 1_555
C35_4 P5_4 1_555 1_555
C36_4 C35_4 1_555 1_555
H52_4 C36_4 1_555 1_555
C37_4 C36_4 1_555 1_555
H53_4 C37_4 1_555 1_555
C38_4 C37_4 1_555 1_555
C39_4 C38_4 1_555 1_555
H54_4 C39_4 1_555 1_555
C40_4 C35_4 1_555 1_555
H55_4 C40_4 1_555 1_555
C41_4 P6_4 1_555 1_555
C42_4 C41_4 1_555 1_555
H56_4 C42_4 1_555 1_555
C43_4 C42_4 1_555 1_555
H57_4 C43_4 1_555 1_555
C44_4 C43_4 1_555 1_555
C45_4 C44_4 1_555 1_555
H58_4 C45_4 1_555 1_555
C46_4 C41_4 1_555 1_555
H59_4 C46_4 1_555 1_555
C47_4 C32_4 1_555 1_555
C48_4 C47_4 1_555 1_555
C49_4 C38_4 1_555 1_555
C50_4 C49_4 1_555 1_555
C51_4 C44_4 1_555 1_555
C52_4 C47_4 1_555 1_555
C53_4 C52_4 1_555 1_555
H60_4 C53_4 1_555 1_555
H61_4 C53_4 1_555 1_555
H62_4 C53_4 1_555 1_555
C54_4 C48_4 1_555 1_555
H63_4 C54_4 1_555 1_555
H64_4 C54_4 1_555 1_555
H65_4 C54_4 1_555 1_555
C55_4 C50_4 1_555 1_555
H66_4 C55_4 1_555 1_555
H67_4 C55_4 1_555 1_555
H68_4 C55_4 1_555 1_555
Ca7_3 O27_4 1_555 1_555
Ca8_4 O26_4 1_555 1_555
Ca11_3 O5_3 1_555 1_555
Ca12_3 O5_3 1_555 1_555
O30_4 Ca9_2 1_555 1_555
O31_4 Ca9_2 1_555 1_555
O32_4 Ca9_2 1_555 1_555
O33_4 Ca7_2 1_555 1_555
Ca8_2 O15_4 1_555 1_555
Ca4_4 O21_4 1_555 1_555
Ca4_4 O30_4 1_555 1_555
P3_4 O18_4 1_555 1_555
P4_4 O21_4 1_555 1_555
O7_3 Ca11_3 1_555 1_555
C6_4 C7_4 1_555 1_555
C12_4 C13_4 1_555 1_555
C18_4 C19_4 1_555 1_555
C21_4 C22_4 1_555 1_555
C23_4 C24_4 1_555 1_555
C24_4 C25_4 1_555 1_555
C33_4 C34_4 1_555 1_555
C39_4 C40_4 1_555 1_555
C45_4 C46_4 1_555 1_555
C48_4 C49_4 1_555 1_555
C50_4 C51_4 1_555 1_555
C51_4 C52_4 1_555 1_555
P5_5 O26_5 1_555 1_555
O27_5 P5_5 1_555 1_555
O28_3 P5_5 1_555 1_555
C35_5 P5_5 1_555 1_555
C36_5 C35_5 1_555 1_555
H52_5 C36_5 1_555 1_555
C37_5 C36_5 1_555 1_555
H53_5 C37_5 1_555 1_555
C40_5 C35_5 1_555 1_555
H55_5 C40_5 1_555 1_555
Ca10 O28_3 1_555 1_555
O1_5 H1_5 1_555 1_555
P2_5 O9_5 1_555 1_555
O9_5 H10_5 1_555 1_555
O11_5 P2_5 1_555 1_555
O32_2 P2_5 1_555 1_555
H20_5 O1_5 1_555 1_555
C8_5 P2_5 1_555 1_555
C9_5 C8_5 1_555 1_555
H31_5 C9_5 1_555 1_555
C10_5 C9_5 1_555 1_555
H32_5 C10_5 1_555 1_555
C11_5 C10_5 1_555 1_555
C12_5 C11_5 1_555 1_555
H33_5 C12_5 1_555 1_555
C13_5 C8_5 1_555 1_555
H34_5 C13_5 1_555 1_555
C22_5 C11_5 1_555 1_555
C23_5 C22_5 1_555 1_555
C26_5 C21_5 1_555 1_555
H40_5 C26_5 1_555 1_555
H41_5 C26_5 1_555 1_555
C27_5 C23_5 1_555 1_555
H42_5 C27_5 1_555 1_555
H43_5 C27_5 1_555 1_555
H44_5 C27_5 1_555 1_555
C12_5 C13_5 1_555 1_555
C21_5 C22_5 1_555 1_555
Ca6_2 O4_5 1_555 1_555
Ca8_3 O8_5 1_555 1_555
Ca10_2 O14_5 1_555 1_555
O2_5 Ca4_5 1_555 1_555
H2_5 O2_5 1_555 1_555
H3_5 O2_5 1_555 1_555
P1_5 O3_3 1_555 1_555
P3_5 O15_5 1_555 1_555
P4_5 O19_5 1_555 1_555
P6_5 O33_2 1_555 1_555
O3_3 Ca6 1_555 1_555
O4_5 H4_5 1_555 1_555
H5_5 O4_5 1_555 1_555
O5_4 P1_5 1_555 1_555
O6_5 Ca6_2 1_555 1_555
H6_5 O6_5 1_555 1_555
H7_5 O6_5 1_555 1_555
O7_4 P1_5 1_555 1_555
O8_5 H8_5 1_555 1_555
H9_5 O8_5 1_555 1_555
O10_5 Ca8_3 1_555 1_555
H11_5 O10_5 1_555 1_555
H12_5 O10_5 1_555 1_555
O12_5 Ca8_3 1_555 1_555
H13_5 O12_5 1_555 1_555
H14_5 O12_5 1_555 1_555
O14_5 H15_5 1_555 1_555
H16_5 O14_5 1_555 1_555
O15_5 Ca6_2 1_555 1_555
O16_5 Ca10_2 1_555 1_555
H17_5 O16_5 1_555 1_555
H18_5 O16_5 1_555 1_555
O17_5 P3_5 1_555 1_555
H19_5 O17_5 1_555 1_555
O18_5 Ca4_5 1_555 1_555
O19_5 Ca8_3 1_555 1_555
O20_5 Ca4_5 1_555 1_555
H21_5 O20_5 1_555 1_555
O21_5 Ca10_2 1_555 1_555
O22_5 P4_5 1_555 1_555
H22_5 O22_5 1_555 1_555
O24_5 P6_5 1_555 1_555
O25_5 P6_5 1_555 1_555
H23_5 O25_5 1_555 1_555
C1_5 P1_5 1_555 1_555
C2_5 O20_5 1_555 1_555
H24_5 C2_5 1_555 1_555
H25_5 C2_5 1_555 1_555
H26_5 C2_5 1_555 1_555
C3_5 C1_5 1_555 1_555
H27_5 C3_5 1_555 1_555
C4_5 C3_5 1_555 1_555
H28_5 C4_5 1_555 1_555
C5_5 C4_5 1_555 1_555
C6_5 C5_5 1_555 1_555
H29_5 C6_5 1_555 1_555
C7_5 C1_5 1_555 1_555
H30_5 C7_5 1_555 1_555
C14_5 P3_5 1_555 1_555
C15_5 C14_5 1_555 1_555
H35_5 C15_5 1_555 1_555
C16_5 C15_5 1_555 1_555
C17_5 C16_5 1_555 1_555
C18_5 C17_5 1_555 1_555
H37_5 C18_5 1_555 1_555
C19_5 C14_5 1_555 1_555
H38_5 C19_5 1_555 1_555
C20_5 C5_5 1_555 1_555
C24_5 C17_5 1_555 1_555
C25_5 C20_5 1_555 1_555
C28_5 C25_5 1_555 1_555
H45_5 C28_5 1_555 1_555
H46_5 C28_5 1_555 1_555
H47_5 C28_5 1_555 1_555
C29_5 P4_5 1_555 1_555
C30_5 C29_5 1_555 1_555
H48_5 C30_5 1_555 1_555
C31_5 C30_5 1_555 1_555
H49_5 C31_5 1_555 1_555
C32_5 C31_5 1_555 1_555
C33_5 C32_5 1_555 1_555
H50_5 C33_5 1_555 1_555
C34_5 C29_5 1_555 1_555
H51_5 C34_5 1_555 1_555
C39_5 C38_5 1_555 1_555
H54_5 C39_5 1_555 1_555
C41_5 P6_5 1_555 1_555
C42_5 C41_5 1_555 1_555
H56_5 C42_5 1_555 1_555
C43_5 C42_5 1_555 1_555
H57_5 C43_5 1_555 1_555
C44_5 C43_5 1_555 1_555
C45_5 C44_5 1_555 1_555
H58_5 C45_5 1_555 1_555
C46_5 C41_5 1_555 1_555
H59_5 C46_5 1_555 1_555
C47_5 C32_5 1_555 1_555
C48_5 C47_5 1_555 1_555
C49_5 C38_5 1_555 1_555
C50_5 C49_5 1_555 1_555
C51_5 C44_5 1_555 1_555
C52_5 C47_5 1_555 1_555
C53_5 C52_5 1_555 1_555
H60_5 C53_5 1_555 1_555
H61_5 C53_5 1_555 1_555
H62_5 C53_5 1_555 1_555
C54_5 C48_5 1_555 1_555
H63_5 C54_5 1_555 1_555
H64_5 C54_5 1_555 1_555
H65_5 C54_5 1_555 1_555
C55_5 C50_5 1_555 1_555
H66_5 C55_5 1_555 1_555
H67_5 C55_5 1_555 1_555
H68_5 C55_5 1_555 1_555
Ca11_4 O5_4 1_555 1_555
Ca12_4 O5_4 1_555 1_555
O29_3 Ca6_2 1_555 1_555
O30_5 Ca10_2 1_555 1_555
O36_3 Ca10_2 1_555 1_555
Ca8_3 O15_5 1_555 1_555
Ca4_5 O21_5 1_555 1_555
Ca4_5 O30_5 1_555 1_555
P3_5 O18_5 1_555 1_555
P4_5 O21_5 1_555 1_555
O7_4 Ca11_4 1_555 1_555
C6_5 C7_5 1_555 1_555
C18_5 C19_5 1_555 1_555
C24_5 C25_5 1_555 1_555
C33_5 C34_5 1_555 1_555
C45_5 C46_5 1_555 1_555
C48_5 C49_5 1_555 1_555
C50_5 C51_5 1_555 1_555
C51_5 C52_5 1_555 1_555
O1_6 H1_6 1_555 1_555
P2_6 O9_6 1_555 1_555
O9_6 H10_6 1_555 1_555
O11_6 P2_6 1_555 1_555
O32 P2_6 1_555 1_555
H20_6 O1_6 1_555 1_555
C8_6 P2_6 1_555 1_555
C9_6 C8_6 1_555 1_555
H31_6 C9_6 1_555 1_555
C10_6 C9_6 1_555 1_555
H32_6 C10_6 1_555 1_555
C11_6 C10_6 1_555 1_555
C12_6 C11_6 1_555 1_555
H33_6 C12_6 1_555 1_555
C13_6 C8_6 1_555 1_555
H34_6 C13_6 1_555 1_555
C22_6 C11_6 1_555 1_555
C23_6 C22_6 1_555 1_555
C26_6 C21_6 1_555 1_555
H40_6 C26_6 1_555 1_555
H41_6 C26_6 1_555 1_555
C27_6 C23_6 1_555 1_555
H42_6 C27_6 1_555 1_555
H43_6 C27_6 1_555 1_555
H44_6 C27_6 1_555 1_555
C12_6 C13_6 1_555 1_555
C21_6 C22_6 1_555 1_555
Ca6 O4_6 1_555 1_555
Ca2_4 O8_6 1_555 1_555
Ca10 O14_6 1_555 1_555
O2_6 Ca4_6 1_555 1_555
H2_6 O2_6 1_555 1_555
H3_6 O2_6 1_555 1_555
P1_6 O29_3 1_555 1_555
P3_6 O15_6 1_555 1_555
P4_6 O19_6 1_555 1_555
P6_6 O33 1_555 1_555
O4_6 H4_6 1_555 1_555
H5_6 O4_6 1_555 1_555
O30_4 P1_6 1_555 1_555
O6_6 Ca6 1_555 1_555
H6_6 O6_6 1_555 1_555
H7_6 O6_6 1_555 1_555
O31_4 P1_6 1_555 1_555
O8_6 H8_6 1_555 1_555
H9_6 O8_6 1_555 1_555
O10_6 Ca2_4 1_555 1_555
H11_6 O10_6 1_555 1_555
H12_6 O10_6 1_555 1_555
O12_6 Ca2_4 1_555 1_555
H13_6 O12_6 1_555 1_555
H14_6 O12_6 1_555 1_555
O14_6 H15_6 1_555 1_555
H16_6 O14_6 1_555 1_555
O15_6 Ca6 1_555 1_555
O16_6 Ca10 1_555 1_555
H17_6 O16_6 1_555 1_555
H18_6 O16_6 1_555 1_555
O17_6 P3_6 1_555 1_555
H19_6 O17_6 1_555 1_555
O18_6 Ca4_6 1_555 1_555
O19_6 Ca2_4 1_555 1_555
O20_6 Ca4_6 1_555 1_555
H21_6 O20_6 1_555 1_555
O21_6 Ca10 1_555 1_555
O22_6 P4_6 1_555 1_555
H22_6 O22_6 1_555 1_555
O24_6 P6_6 1_555 1_555
O25_6 P6_6 1_555 1_555
H23_6 O25_6 1_555 1_555
C1_6 P1_6 1_555 1_555
C2_6 O20_6 1_555 1_555
H24_6 C2_6 1_555 1_555
H25_6 C2_6 1_555 1_555
H26_6 C2_6 1_555 1_555
C3_6 C1_6 1_555 1_555
H27_6 C3_6 1_555 1_555
C4_6 C3_6 1_555 1_555
H28_6 C4_6 1_555 1_555
C5_6 C4_6 1_555 1_555
C6_6 C5_6 1_555 1_555
H29_6 C6_6 1_555 1_555
C7_6 C1_6 1_555 1_555
H30_6 C7_6 1_555 1_555
C14_6 P3_6 1_555 1_555
C15_6 C14_6 1_555 1_555
H35_6 C15_6 1_555 1_555
C16_6 C15_6 1_555 1_555
C17_6 C16_6 1_555 1_555
C18_6 C17_6 1_555 1_555
H37_6 C18_6 1_555 1_555
C19_6 C14_6 1_555 1_555
H38_6 C19_6 1_555 1_555
C20_6 C5_6 1_555 1_555
C24_6 C17_6 1_555 1_555
C25_6 C20_6 1_555 1_555
C28_6 C25_6 1_555 1_555
H45_6 C28_6 1_555 1_555
H46_6 C28_6 1_555 1_555
H47_6 C28_6 1_555 1_555
C29_6 P4_6 1_555 1_555
C30_6 C29_6 1_555 1_555
H48_6 C30_6 1_555 1_555
C31_6 C30_6 1_555 1_555
H49_6 C31_6 1_555 1_555
C32_6 C31_6 1_555 1_555
C33_6 C32_6 1_555 1_555
H50_6 C33_6 1_555 1_555
C34_6 C29_6 1_555 1_555
H51_6 C34_6 1_555 1_555
C39_6 C38_6 1_555 1_555
H54_6 C39_6 1_555 1_555
C41_6 P6_6 1_555 1_555
C42_6 C41_6 1_555 1_555
H56_6 C42_6 1_555 1_555
C43_6 C42_6 1_555 1_555
H57_6 C43_6 1_555 1_555
C44_6 C43_6 1_555 1_555
C45_6 C44_6 1_555 1_555
H58_6 C45_6 1_555 1_555
C46_6 C41_6 1_555 1_555
H59_6 C46_6 1_555 1_555
C47_6 C32_6 1_555 1_555
C48_6 C47_6 1_555 1_555
C49_6 C38_6 1_555 1_555
C50_6 C49_6 1_555 1_555
C51_6 C44_6 1_555 1_555
C52_6 C47_6 1_555 1_555
C53_6 C52_6 1_555 1_555
H60_6 C53_6 1_555 1_555
H61_6 C53_6 1_555 1_555
H62_6 C53_6 1_555 1_555
C54_6 C48_6 1_555 1_555
H63_6 C54_6 1_555 1_555
H64_6 C54_6 1_555 1_555
H65_6 C54_6 1_555 1_555
C55_6 C50_6 1_555 1_555
H66_6 C55_6 1_555 1_555
H67_6 C55_6 1_555 1_555
H68_6 C55_6 1_555 1_555
O30_6 Ca10 1_555 1_555
O34_4 Ca6 1_555 1_555
O35_4 Ca6 1_555 1_555
Ca2_4 O15_6 1_555 1_555
Ca2_4 O34_4 1_555 1_555
Ca4_6 O21_6 1_555 1_555
Ca4_6 O30_6 1_555 1_555
P3_6 O18_6 1_555 1_555
P4_6 O21_6 1_555 1_555
C6_6 C7_6 1_555 1_555
C18_6 C19_6 1_555 1_555
C24_6 C25_6 1_555 1_555
C33_6 C34_6 1_555 1_555
C45_6 C46_6 1_555 1_555
C48_6 C49_6 1_555 1_555
C50_6 C51_6 1_555 1_555
C51_6 C52_6 1_555 1_555
P5_6 O26_6 1_555 1_555
O27_6 P5_6 1_555 1_555
O36_3 P5_6 1_555 1_555
C35_6 P5_6 1_555 1_555
C36_6 C35_6 1_555 1_555
H52_6 C36_6 1_555 1_555
C37_6 C36_6 1_555 1_555
H53_6 C37_6 1_555 1_555
C40_6 C35_6 1_555 1_555
H55_6 C40_6 1_555 1_555
Ca6_4 O4_7 1_555 1_555
Ca2_5 O8_7 1_555 1_555
Ca10_3 O14_7 1_555 1_555
Ca4_7 O1_7 1_555 1_555
O1_7 H1_7 1_555 1_555
O2_7 Ca4_7 1_555 1_555
H2_7 O2_7 1_555 1_555
H3_7 O2_7 1_555 1_555
P1_7 O3_4 1_555 1_555
P2_7 O9_7 1_555 1_555
P3_7 O15_7 1_555 1_555
P4_7 O19_7 1_555 1_555
P5_7 O34 1_555 1_555
O3_4 Ca6_3 1_555 1_555
O4_7 H4_7 1_555 1_555
H5_7 O4_7 1_555 1_555
O6_7 Ca6_4 1_555 1_555
H6_7 O6_7 1_555 1_555
H7_7 O6_7 1_555 1_555
O31_5 P1_7 1_555 1_555
O8_7 H8_7 1_555 1_555
H9_7 O8_7 1_555 1_555
O9_7 H10_7 1_555 1_555
O11_7 P2_7 1_555 1_555
O12_7 Ca2_5 1_555 1_555
H13_7 O12_7 1_555 1_555
H14_7 O12_7 1_555 1_555
O32_4 P2_7 1_555 1_555
O14_7 H15_7 1_555 1_555
H16_7 O14_7 1_555 1_555
O15_7 Ca6_4 1_555 1_555
O16_7 Ca10_3 1_555 1_555
H17_7 O16_7 1_555 1_555
H18_7 O16_7 1_555 1_555
O17_7 P3_7 1_555 1_555
H19_7 O17_7 1_555 1_555
H20_7 O1_7 1_555 1_555
O18_7 Ca4_7 1_555 1_555
O19_7 Ca2_5 1_555 1_555
O20_7 Ca4_7 1_555 1_555
H21_7 O20_7 1_555 1_555
O21_7 Ca10_3 1_555 1_555
O22_7 P4_7 1_555 1_555
H22_7 O22_7 1_555 1_555
O35 P5_7 1_555 1_555
O28_4 P5_7 1_555 1_555
C1_7 P1_7 1_555 1_555
C2_7 O20_7 1_555 1_555
H24_7 C2_7 1_555 1_555
H25_7 C2_7 1_555 1_555
H26_7 C2_7 1_555 1_555
C3_7 C1_7 1_555 1_555
H27_7 C3_7 1_555 1_555
C4_7 C3_7 1_555 1_555
H28_7 C4_7 1_555 1_555
C5_7 C4_7 1_555 1_555
C6_7 C5_7 1_555 1_555
H29_7 C6_7 1_555 1_555
C7_7 C1_7 1_555 1_555
H30_7 C7_7 1_555 1_555
C8_7 P2_7 1_555 1_555
C9_7 C8_7 1_555 1_555
H31_7 C9_7 1_555 1_555
C10_7 C9_7 1_555 1_555
H32_7 C10_7 1_555 1_555
C11_7 C10_7 1_555 1_555
C12_7 C11_7 1_555 1_555
H33_7 C12_7 1_555 1_555
C13_7 C8_7 1_555 1_555
H34_7 C13_7 1_555 1_555
C14_7 P3_7 1_555 1_555
C15_7 C14_7 1_555 1_555
H35_7 C15_7 1_555 1_555
C16_7 C15_7 1_555 1_555
H36_7 C16_7 1_555 1_555
C17_7 C16_7 1_555 1_555
C18_7 C17_7 1_555 1_555
H37_7 C18_7 1_555 1_555
C19_7 C14_7 1_555 1_555
H38_7 C19_7 1_555 1_555
C20_7 C5_7 1_555 1_555
C21_7 C20_7 1_555 1_555
C22_7 C11_7 1_555 1_555
C23_7 C22_7 1_555 1_555
C24_7 C17_7 1_555 1_555
C25_7 C20_7 1_555 1_555
C26_7 C21_7 1_555 1_555
H39_7 C26_7 1_555 1_555
H40_7 C26_7 1_555 1_555
H41_7 C26_7 1_555 1_555
C27_7 C23_7 1_555 1_555
H42_7 C27_7 1_555 1_555
H43_7 C27_7 1_555 1_555
H44_7 C27_7 1_555 1_555
C28_7 C25_7 1_555 1_555
H45_7 C28_7 1_555 1_555
H46_7 C28_7 1_555 1_555
H47_7 C28_7 1_555 1_555
C29_7 P4_7 1_555 1_555
C30_7 C29_7 1_555 1_555
H48_7 C30_7 1_555 1_555
C31_7 C30_7 1_555 1_555
H49_7 C31_7 1_555 1_555
C32_7 C31_7 1_555 1_555
C34_7 C29_7 1_555 1_555
H51_7 C34_7 1_555 1_555
C35_7 P5_7 1_555 1_555
C36_7 C35_7 1_555 1_555
H52_7 C36_7 1_555 1_555
C37_7 C36_7 1_555 1_555
H53_7 C37_7 1_555 1_555
C38_7 C37_7 1_555 1_555
C39_7 C38_7 1_555 1_555
H54_7 C39_7 1_555 1_555
C40_7 C35_7 1_555 1_555
H55_7 C40_7 1_555 1_555
C49_7 C38_7 1_555 1_555
C54_7 C48_7 1_555 1_555
H63_7 C54_7 1_555 1_555
H64_7 C54_7 1_555 1_555
H65_7 C54_7 1_555 1_555
Ca11_2 O28_4 1_555 1_555
O29_4 Ca6_4 1_555 1_555
O30_7 Ca10_3 1_555 1_555
O31_7 Ca10_3 1_555 1_555
O36_4 Ca10_3 1_555 1_555
Ca2_5 O15_7 1_555 1_555
Ca4_7 O21_7 1_555 1_555
Ca4_7 O30_7 1_555 1_555
P3_7 O18_7 1_555 1_555
P4_7 O21_7 1_555 1_555
C6_7 C7_7 1_555 1_555
C12_7 C13_7 1_555 1_555
C18_7 C19_7 1_555 1_555
C21_7 C22_7 1_555 1_555
C23_7 C24_7 1_555 1_555
C24_7 C25_7 1_555 1_555
C39_7 C40_7 1_555 1_555
C48_7 C49_7 1_555 1_555
P6_7 O33_4 1_555 1_555
H11_7 O10_7 1_555 1_555
H12_7 O10_7 1_555 1_555
O24_7 P6_7 1_555 1_555
O25_7 P6_7 1_555 1_555
H23_7 O25_7 1_555 1_555
H50_7 C33_7 1_555 1_555
C41_7 P6_7 1_555 1_555
C42_7 C41_7 1_555 1_555
H56_7 C42_7 1_555 1_555
C43_7 C42_7 1_555 1_555
H57_7 C43_7 1_555 1_555
C44_7 C43_7 1_555 1_555
C45_7 C44_7 1_555 1_555
H58_7 C45_7 1_555 1_555
C46_7 C41_7 1_555 1_555
H59_7 C46_7 1_555 1_555
C51_7 C44_7 1_555 1_555
C52_7 C47_7 1_555 1_555
C53_7 C52_7 1_555 1_555
H60_7 C53_7 1_555 1_555
H61_7 C53_7 1_555 1_555
H62_7 C53_7 1_555 1_555
C55_7 C50_7 1_555 1_555
H66_7 C55_7 1_555 1_555
H67_7 C55_7 1_555 1_555
H68_7 C55_7 1_555 1_555
C45_7 C46_7 1_555 1_555
C50_7 C51_7 1_555 1_555
C51_7 C52_7 1_555 1_555
Ca11_2 O14_8 1_555 1_555
Ca12_2 O1_8 1_555 1_555
O1_8 H1_8 1_555 1_555
O2_8 Ca12_2 1_555 1_555
H2_8 O2_8 1_555 1_555
H3_8 O2_8 1_555 1_555
P4_8 O19_8 1_555 1_555
P5_8 O26_7 1_555 1_555
O14_8 H15_8 1_555 1_555
H16_8 O14_8 1_555 1_555
O16_8 Ca11_2 1_555 1_555
H17_8 O16_8 1_555 1_555
H18_8 O16_8 1_555 1_555
H20_8 O1_8 1_555 1_555
O20_8 Ca12_2 1_555 1_555
O21_8 Ca11_2 1_555 1_555
O22_8 P4_8 1_555 1_555
H22_8 O22_8 1_555 1_555
O26_7 Ca7_5 1_555 1_555
O27_7 P5_8 1_555 1_555
O36_4 P5_8 1_555 1_555
C2_8 O20_8 1_555 1_555
H24_8 C2_8 1_555 1_555
H25_8 C2_8 1_555 1_555
H26_8 C2_8 1_555 1_555
C29_8 P4_8 1_555 1_555
C30_8 C29_8 1_555 1_555
H48_8 C30_8 1_555 1_555
C31_8 C30_8 1_555 1_555
H49_8 C31_8 1_555 1_555
C32_8 C31_8 1_555 1_555
C34_8 C29_8 1_555 1_555
H51_8 C34_8 1_555 1_555
C35_8 P5_8 1_555 1_555
C36_8 C35_8 1_555 1_555
H52_8 C36_8 1_555 1_555
C37_8 C36_8 1_555 1_555
H53_8 C37_8 1_555 1_555
C38_8 C37_8 1_555 1_555
C39_8 C38_8 1_555 1_555
H54_8 C39_8 1_555 1_555
C40_8 C35_8 1_555 1_555
H55_8 C40_8 1_555 1_555
C49_8 C38_8 1_555 1_555
C54_8 C48_8 1_555 1_555
H63_8 C54_8 1_555 1_555
H64_8 C54_8 1_555 1_555
H65_8 C54_8 1_555 1_555
Ca7_5 O27_7 1_555 1_555
Ca8_7 O26_7 1_555 1_555
Ca12_2 O21_8 1_555 1_555
P4_8 O21_8 1_555 1_555
C39_8 C40_8 1_555 1_555
C48_8 C49_8 1_555 1_555
P6_8 O33_3 1_555 1_555
O24_8 P6_8 1_555 1_555
O25_8 P6_8 1_555 1_555
H23_8 O25_8 1_555 1_555
H50_8 C33_8 1_555 1_555
C41_8 P6_8 1_555 1_555
C42_8 C41_8 1_555 1_555
H56_8 C42_8 1_555 1_555
C43_8 C42_8 1_555 1_555
H57_8 C43_8 1_555 1_555
C44_8 C43_8 1_555 1_555
C45_8 C44_8 1_555 1_555
H58_8 C45_8 1_555 1_555
C46_8 C41_8 1_555 1_555
H59_8 C46_8 1_555 1_555
C51_8 C44_8 1_555 1_555
C52_8 C47_8 1_555 1_555
C53_8 C52_8 1_555 1_555
H60_8 C53_8 1_555 1_555
H61_8 C53_8 1_555 1_555
H62_8 C53_8 1_555 1_555
C55_8 C50_8 1_555 1_555
H66_8 C55_8 1_555 1_555
H67_8 C55_8 1_555 1_555
H68_8 C55_8 1_555 1_555
C45_8 C46_8 1_555 1_555
C50_8 C51_8 1_555 1_555
C51_8 C52_8 1_555 1_555
Ca6_3 O4_8 1_555 1_555
Ca8_6 O8_8 1_555 1_555
P1_8 O29_4 1_555 1_555
P2_8 O9_8 1_555 1_555
P3_8 O15_8 1_555 1_555
O4_8 H4_8 1_555 1_555
H5_8 O4_8 1_555 1_555
O6_8 Ca6_3 1_555 1_555
H6_8 O6_8 1_555 1_555
H7_8 O6_8 1_555 1_555
O7_5 P1_8 1_555 1_555
O8_8 H8_8 1_555 1_555
H9_8 O8_8 1_555 1_555
O9_8 H10_8 1_555 1_555
O11_8 P2_8 1_555 1_555
O12_8 Ca8_6 1_555 1_555
H13_8 O12_8 1_555 1_555
H14_8 O12_8 1_555 1_555
O32_3 P2_8 1_555 1_555
O15_8 Ca6_3 1_555 1_555
O17_8 P3_8 1_555 1_555
H19_8 O17_8 1_555 1_555
C1_8 P1_8 1_555 1_555
C3_8 C1_8 1_555 1_555
H27_8 C3_8 1_555 1_555
C4_8 C3_8 1_555 1_555
H28_8 C4_8 1_555 1_555
C5_8 C4_8 1_555 1_555
C6_8 C5_8 1_555 1_555
H29_8 C6_8 1_555 1_555
C7_8 C1_8 1_555 1_555
H30_8 C7_8 1_555 1_555
C8_8 P2_8 1_555 1_555
C9_8 C8_8 1_555 1_555
H31_8 C9_8 1_555 1_555
C10_8 C9_8 1_555 1_555
H32_8 C10_8 1_555 1_555
C11_8 C10_8 1_555 1_555
C12_8 C11_8 1_555 1_555
H33_8 C12_8 1_555 1_555
C13_8 C8_8 1_555 1_555
H34_8 C13_8 1_555 1_555
C14_8 P3_8 1_555 1_555
C15_8 C14_8 1_555 1_555
H35_8 C15_8 1_555 1_555
C16_8 C15_8 1_555 1_555
H36_8 C16_8 1_555 1_555
C17_8 C16_8 1_555 1_555
C18_8 C17_8 1_555 1_555
H37_8 C18_8 1_555 1_555
C19_8 C14_8 1_555 1_555
H38_8 C19_8 1_555 1_555
C20_8 C5_8 1_555 1_555
C21_8 C20_8 1_555 1_555
C22_8 C11_8 1_555 1_555
C23_8 C22_8 1_555 1_555
C24_8 C17_8 1_555 1_555
C25_8 C20_8 1_555 1_555
C26_8 C21_8 1_555 1_555
H39_8 C26_8 1_555 1_555
H40_8 C26_8 1_555 1_555
H41_8 C26_8 1_555 1_555
C27_8 C23_8 1_555 1_555
H42_8 C27_8 1_555 1_555
H43_8 C27_8 1_555 1_555
H44_8 C27_8 1_555 1_555
C28_8 C25_8 1_555 1_555
H45_8 C28_8 1_555 1_555
H46_8 C28_8 1_555 1_555
H47_8 C28_8 1_555 1_555
Ca8_6 O15_8 1_555 1_555
P3_8 O18_8 1_555 1_555
C6_8 C7_8 1_555 1_555
C12_8 C13_8 1_555 1_555
C18_8 C19_8 1_555 1_555
C21_8 C22_8 1_555 1_555
C23_8 C24_8 1_555 1_555
C24_8 C25_8 1_555 1_555
H11_8 O10_8 1_555 1_555
H12_8 O10_8 1_555 1_555
Ca11_5 O5_5 1_555 1_555
Ca12_5 O5_5 1_555 1_555
O1_9 H1_9 1_555 1_555
H20_9 O1_9 1_555 1_555
Ca1_3 O4_9 1_555 1_555
Ca2_6 O8_9 1_555 1_555
Ca3_3 O14_9 1_555 1_555
O2_9 Ca4_8 1_555 1_555
H2_9 O2_9 1_555 1_555
H3_9 O2_9 1_555 1_555
P3_9 O15_9 1_555 1_555
P4_9 O19_9 1_555 1_555
O4_9 H4_9 1_555 1_555
H5_9 O4_9 1_555 1_555
O6_9 Ca1_3 1_555 1_555
H6_9 O6_9 1_555 1_555
H7_9 O6_9 1_555 1_555
O8_9 H8_9 1_555 1_555
H9_9 O8_9 1_555 1_555
O10_9 Ca2_6 1_555 1_555
H11_9 O10_9 1_555 1_555
H12_9 O10_9 1_555 1_555
O14_9 H15_9 1_555 1_555
H16_9 O14_9 1_555 1_555
O15_9 Ca1_3 1_555 1_555
O16_9 Ca3_3 1_555 1_555
H17_9 O16_9 1_555 1_555
H18_9 O16_9 1_555 1_555
O17_9 P3_9 1_555 1_555
H19_9 O17_9 1_555 1_555
O18_9 Ca4_8 1_555 1_555
O19_9 Ca2_6 1_555 1_555
O20_9 Ca4_8 1_555 1_555
H21_9 O20_9 1_555 1_555
O21_9 Ca3_3 1_555 1_555
O22_9 P4_9 1_555 1_555
H22_9 O22_9 1_555 1_555
C14_9 P3_9 1_555 1_555
C15_9 C14_9 1_555 1_555
H35_9 C15_9 1_555 1_555
C16_9 C15_9 1_555 1_555
C19_9 C14_9 1_555 1_555
H38_9 C19_9 1_555 1_555
C29_9 P4_9 1_555 1_555
C30_9 C29_9 1_555 1_555
H48_9 C30_9 1_555 1_555
H50_9 C33_9 1_555 1_555
C34_9 C29_9 1_555 1_555
H51_9 C34_9 1_555 1_555
O29_5 Ca1_3 1_555 1_555
O30_8 Ca3_3 1_555 1_555
O32_5 Ca3_3 1_555 1_555
O33_5 Ca1_3 1_555 1_555
O34_6 Ca1_3 1_555 1_555
O35_6 Ca1_3 1_555 1_555
O36_5 Ca3_3 1_555 1_555
Ca2_6 O15_9 1_555 1_555
Ca2_6 O34_6 1_555 1_555
Ca4_8 O21_9 1_555 1_555
Ca4_8 O30_8 1_555 1_555
P3_9 O18_9 1_555 1_555
P4_9 O21_9 1_555 1_555
C33_9 C34_9 1_555 1_555
P2_9 O9_9 1_555 1_555
O9_9 H10_9 1_555 1_555
O11_9 P2_9 1_555 1_555
O13_5 P2_9 1_555 1_555
C8_9 P2_9 1_555 1_555
C9_9 C8_9 1_555 1_555
H31_9 C9_9 1_555 1_555
C10_9 C9_9 1_555 1_555
H32_9 C10_9 1_555 1_555
C11_9 C10_9 1_555 1_555
C12_9 C11_9 1_555 1_555
H33_9 C12_9 1_555 1_555
C13_9 C8_9 1_555 1_555
H34_9 C13_9 1_555 1_555
C22_9 C11_9 1_555 1_555
C23_9 C22_9 1_555 1_555
C26_9 C21_9 1_555 1_555
H40_9 C26_9 1_555 1_555
H41_9 C26_9 1_555 1_555
C27_9 C23_9 1_555 1_555
H42_9 C27_9 1_555 1_555
H43_9 C27_9 1_555 1_555
H44_9 C27_9 1_555 1_555
Ca11_3 O13_5 1_555 1_555
C12_9 C13_9 1_555 1_555
C21_9 C22_9 1_555 1_555
P5_9 O34_5 1_555 1_555
P6_9 O23_5 1_555 1_555
H13_9 O12_9 1_555 1_555
H14_9 O12_9 1_555 1_555
O23_5 Ca7_5 1_555 1_555
O24_9 P6_9 1_555 1_555
O25_9 P6_9 1_555 1_555
H23_9 O25_9 1_555 1_555
O35_5 P5_9 1_555 1_555
O28_5 P5_9 1_555 1_555
H24_9 C2_9 1_555 1_555
H25_9 C2_9 1_555 1_555
H26_9 C2_9 1_555 1_555
C6_9 C5_9 1_555 1_555
H29_9 C6_9 1_555 1_555
C18_9 C17_9 1_555 1_555
H37_9 C18_9 1_555 1_555
C20_9 C5_9 1_555 1_555
C24_9 C17_9 1_555 1_555
C25_9 C20_9 1_555 1_555
C28_9 C25_9 1_555 1_555
H45_9 C28_9 1_555 1_555
H46_9 C28_9 1_555 1_555
H47_9 C28_9 1_555 1_555
H49_9 C31_9 1_555 1_555
C32_9 C31_9 1_555 1_555
C35_9 P5_9 1_555 1_555
C36_9 C35_9 1_555 1_555
H52_9 C36_9 1_555 1_555
C37_9 C36_9 1_555 1_555
H53_9 C37_9 1_555 1_555
C38_9 C37_9 1_555 1_555
C39_9 C38_9 1_555 1_555
H54_9 C39_9 1_555 1_555
C40_9 C35_9 1_555 1_555
H55_9 C40_9 1_555 1_555
C41_9 P6_9 1_555 1_555
C42_9 C41_9 1_555 1_555
H56_9 C42_9 1_555 1_555
C43_9 C42_9 1_555 1_555
H57_9 C43_9 1_555 1_555
C44_9 C43_9 1_555 1_555
C45_9 C44_9 1_555 1_555
H58_9 C45_9 1_555 1_555
C46_9 C41_9 1_555 1_555
H59_9 C46_9 1_555 1_555
C47_9 C32_9 1_555 1_555
C48_9 C47_9 1_555 1_555
C49_9 C38_9 1_555 1_555
C50_9 C49_9 1_555 1_555
C51_9 C44_9 1_555 1_555
C52_9 C47_9 1_555 1_555
C53_9 C52_9 1_555 1_555
H60_9 C53_9 1_555 1_555
H61_9 C53_9 1_555 1_555
H62_9 C53_9 1_555 1_555
C54_9 C48_9 1_555 1_555
H63_9 C54_9 1_555 1_555
H64_9 C54_9 1_555 1_555
H65_9 C54_9 1_555 1_555
C55_9 C50_9 1_555 1_555
H66_9 C55_9 1_555 1_555
H67_9 C55_9 1_555 1_555
H68_9 C55_9 1_555 1_555
Ca11_5 O28_5 1_555 1_555
C24_9 C25_9 1_555 1_555
C39_9 C40_9 1_555 1_555
C45_9 C46_9 1_555 1_555
C48_9 C49_9 1_555 1_555
C50_9 C51_9 1_555 1_555
C51_9 C52_9 1_555 1_555
P1_9 O3_5 1_555 1_555
O3_5 Ca7_3 1_555 1_555
O30_3 P1_9 1_555 1_555
O31_3 P1_9 1_555 1_555
C1_9 P1_9 1_555 1_555
C3_9 C1_9 1_555 1_555
H27_9 C3_9 1_555 1_555
C4_9 C3_9 1_555 1_555
H28_9 C4_9 1_555 1_555
C7_9 C1_9 1_555 1_555
H30_9 C7_9 1_555 1_555
P1_10 O29_5 1_555 1_555
O5_6 P1_10 1_555 1_555
O7_6 P1_10 1_555 1_555
C1_10 P1_10 1_555 1_555
C3_10 C1_10 1_555 1_555
H27_10 C3_10 1_555 1_555
C4_10 C3_10 1_555 1_555
H28_10 C4_10 1_555 1_555
C7_10 C1_10 1_555 1_555
H30_10 C7_10 1_555 1_555
Ca11_6 O5_6 1_555 1_555
Ca12_6 O5_6 1_555 1_555
O7_6 Ca11_6 1_555 1_555
P2_10 O9_10 1_555 1_555
O9_10 H10_10 1_555 1_555
O11_10 P2_10 1_555 1_555
O13_6 P2_10 1_555 1_555
C8_10 P2_10 1_555 1_555
C9_10 C8_10 1_555 1_555
H31_10 C9_10 1_555 1_555
C10_10 C9_10 1_555 1_555
H32_10 C10_10 1_555 1_555
C11_10 C10_10 1_555 1_555
C12_10 C11_10 1_555 1_555
H33_10 C12_10 1_555 1_555
C13_10 C8_10 1_555 1_555
H34_10 C13_10 1_555 1_555
C22_10 C11_10 1_555 1_555
C23_10 C22_10 1_555 1_555
C26_10 C21_10 1_555 1_555
H40_10 C26_10 1_555 1_555
H41_10 C26_10 1_555 1_555
C27_10 C23_10 1_555 1_555
H42_10 C27_10 1_555 1_555
H43_10 C27_10 1_555 1_555
H44_10 C27_10 1_555 1_555
Ca10_4 O13_6 1_555 1_555
C12_10 C13_10 1_555 1_555
C21_10 C22_10 1_555 1_555
P5_10 O26_8 1_555 1_555
P6_10 O23_6 1_555 1_555
H13_10 O12_10 1_555 1_555
H14_10 O12_10 1_555 1_555
O23_6 Ca6_5 1_555 1_555
O24_10 P6_10 1_555 1_555
O25_10 P6_10 1_555 1_555
H23_10 O25_10 1_555 1_555
O27_8 P5_10 1_555 1_555
O36_5 P5_10 1_555 1_555
H24_10 C2_10 1_555 1_555
H25_10 C2_10 1_555 1_555
H26_10 C2_10 1_555 1_555
C6_10 C5_10 1_555 1_555
H29_10 C6_10 1_555 1_555
C18_10 C17_10 1_555 1_555
H37_10 C18_10 1_555 1_555
C20_10 C5_10 1_555 1_555
C24_10 C17_10 1_555 1_555
C25_10 C20_10 1_555 1_555
C28_10 C25_10 1_555 1_555
H45_10 C28_10 1_555 1_555
H46_10 C28_10 1_555 1_555
H47_10 C28_10 1_555 1_555
H49_10 C31_10 1_555 1_555
C32_10 C31_10 1_555 1_555
C35_10 P5_10 1_555 1_555
C36_10 C35_10 1_555 1_555
H52_10 C36_10 1_555 1_555
C37_10 C36_10 1_555 1_555
H53_10 C37_10 1_555 1_555
C38_10 C37_10 1_555 1_555
C39_10 C38_10 1_555 1_555
H54_10 C39_10 1_555 1_555
C40_10 C35_10 1_555 1_555
H55_10 C40_10 1_555 1_555
C41_10 P6_10 1_555 1_555
C42_10 C41_10 1_555 1_555
H56_10 C42_10 1_555 1_555
C43_10 C42_10 1_555 1_555
H57_10 C43_10 1_555 1_555
C44_10 C43_10 1_555 1_555
C45_10 C44_10 1_555 1_555
H58_10 C45_10 1_555 1_555
C46_10 C41_10 1_555 1_555
H59_10 C46_10 1_555 1_555
C47_10 C32_10 1_555 1_555
C48_10 C47_10 1_555 1_555
C49_10 C38_10 1_555 1_555
C50_10 C49_10 1_555 1_555
C51_10 C44_10 1_555 1_555
C52_10 C47_10 1_555 1_555
C53_10 C52_10 1_555 1_555
H60_10 C53_10 1_555 1_555
H61_10 C53_10 1_555 1_555
H62_10 C53_10 1_555 1_555
C54_10 C48_10 1_555 1_555
H63_10 C54_10 1_555 1_555
H64_10 C54_10 1_555 1_555
H65_10 C54_10 1_555 1_555
C55_10 C50_10 1_555 1_555
H66_10 C55_10 1_555 1_555
H67_10 C55_10 1_555 1_555
H68_10 C55_10 1_555 1_555
C24_10 C25_10 1_555 1_555
C39_10 C40_10 1_555 1_555
C45_10 C46_10 1_555 1_555
C48_10 C49_10 1_555 1_555
C50_10 C51_10 1_555 1_555
C51_10 C52_10 1_555 1_555
O1_10 H1_10 1_555 1_555
H20_10 O1_10 1_555 1_555
Ca7_3 O4_10 1_555 1_555
Ca8_4 O8_10 1_555 1_555
Ca11_5 O14_10 1_555 1_555
O2_10 Ca12_5 1_555 1_555
H2_10 O2_10 1_555 1_555
H3_10 O2_10 1_555 1_555
P3_10 O15_10 1_555 1_555
P4_10 O19_10 1_555 1_555
O4_10 H4_10 1_555 1_555
H5_10 O4_10 1_555 1_555
O6_10 Ca7_3 1_555 1_555
H6_10 O6_10 1_555 1_555
H7_10 O6_10 1_555 1_555
O8_10 H8_10 1_555 1_555
H9_10 O8_10 1_555 1_555
O10_10 Ca8_4 1_555 1_555
H11_10 O10_10 1_555 1_555
H12_10 O10_10 1_555 1_555
O14_10 H15_10 1_555 1_555
H16_10 O14_10 1_555 1_555
O15_10 Ca7_3 1_555 1_555
O16_10 Ca11_5 1_555 1_555
H17_10 O16_10 1_555 1_555
H18_10 O16_10 1_555 1_555
O17_10 P3_10 1_555 1_555
H19_10 O17_10 1_555 1_555
O18_10 Ca12_5 1_555 1_555
O19_10 Ca8_4 1_555 1_555
O20_10 Ca12_5 1_555 1_555
H21_10 O20_10 1_555 1_555
O21_10 Ca11_5 1_555 1_555
O22_10 P4_10 1_555 1_555
H22_10 O22_10 1_555 1_555
C14_10 P3_10 1_555 1_555
C15_10 C14_10 1_555 1_555
H35_10 C15_10 1_555 1_555
C16_10 C15_10 1_555 1_555
C19_10 C14_10 1_555 1_555
H38_10 C19_10 1_555 1_555
C29_10 P4_10 1_555 1_555
C30_10 C29_10 1_555 1_555
H48_10 C30_10 1_555 1_555
H50_10 C33_10 1_555 1_555
C34_10 C29_10 1_555 1_555
H51_10 C34_10 1_555 1_555
O32_6 Ca11_5 1_555 1_555
O33_6 Ca7_3 1_555 1_555
Ca8_4 O15_10 1_555 1_555
Ca12_5 O21_10 1_555 1_555
P3_10 O18_10 1_555 1_555
P4_10 O21_10 1_555 1_555
C33_10 C34_10 1_555 1_555
Ca7_4 O4_11 1_555 1_555
Ca8_5 O8_11 1_555 1_555
P1_11 O3_6 1_555 1_555
P2_11 O9_11 1_555 1_555
P3_11 O15_11 1_555 1_555
O3_6 Ca7_6 1_555 1_555
O4_11 H4_11 1_555 1_555
H5_11 O4_11 1_555 1_555
O6_11 Ca7_4 1_555 1_555
H6_11 O6_11 1_555 1_555
H7_11 O6_11 1_555 1_555
O31_8 P1_11 1_555 1_555
O8_11 H8_11 1_555 1_555
H9_11 O8_11 1_555 1_555
O9_11 H10_11 1_555 1_555
O11_11 P2_11 1_555 1_555
O12_11 Ca8_5 1_555 1_555
H13_11 O12_11 1_555 1_555
H14_11 O12_11 1_555 1_555
O13_7 P2_11 1_555 1_555
O15_11 Ca7_4 1_555 1_555
O17_11 P3_11 1_555 1_555
H19_11 O17_11 1_555 1_555
C1_11 P1_11 1_555 1_555
C3_11 C1_11 1_555 1_555
H27_11 C3_11 1_555 1_555
C4_11 C3_11 1_555 1_555
H28_11 C4_11 1_555 1_555
C5_11 C4_11 1_555 1_555
C6_11 C5_11 1_555 1_555
H29_11 C6_11 1_555 1_555
C7_11 C1_11 1_555 1_555
H30_11 C7_11 1_555 1_555
C8_11 P2_11 1_555 1_555
C9_11 C8_11 1_555 1_555
H31_11 C9_11 1_555 1_555
C10_11 C9_11 1_555 1_555
H32_11 C10_11 1_555 1_555
C11_11 C10_11 1_555 1_555
C12_11 C11_11 1_555 1_555
H33_11 C12_11 1_555 1_555
C13_11 C8_11 1_555 1_555
H34_11 C13_11 1_555 1_555
C14_11 P3_11 1_555 1_555
C15_11 C14_11 1_555 1_555
H35_11 C15_11 1_555 1_555
C16_11 C15_11 1_555 1_555
H36_11 C16_11 1_555 1_555
C17_11 C16_11 1_555 1_555
C18_11 C17_11 1_555 1_555
H37_11 C18_11 1_555 1_555
C19_11 C14_11 1_555 1_555
H38_11 C19_11 1_555 1_555
C20_11 C5_11 1_555 1_555
C21_11 C20_11 1_555 1_555
C22_11 C11_11 1_555 1_555
C23_11 C22_11 1_555 1_555
C24_11 C17_11 1_555 1_555
C25_11 C20_11 1_555 1_555
C26_11 C21_11 1_555 1_555
H39_11 C26_11 1_555 1_555
H40_11 C26_11 1_555 1_555
H41_11 C26_11 1_555 1_555
C27_11 C23_11 1_555 1_555
H42_11 C27_11 1_555 1_555
H43_11 C27_11 1_555 1_555
H44_11 C27_11 1_555 1_555
C28_11 C25_11 1_555 1_555
H45_11 C28_11 1_555 1_555
H46_11 C28_11 1_555 1_555
H47_11 C28_11 1_555 1_555
Ca11_6 O13_7 1_555 1_555
O29_6 Ca7_4 1_555 1_555
O33_7 Ca7_4 1_555 1_555
Ca8_5 O15_11 1_555 1_555
P3_11 O18_11 1_555 1_555
C6_11 C7_11 1_555 1_555
C12_11 C13_11 1_555 1_555
C18_11 C19_11 1_555 1_555
C21_11 C22_11 1_555 1_555
C23_11 C24_11 1_555 1_555
C24_11 C25_11 1_555 1_555
H11_11 O10_11 1_555 1_555
H12_11 O10_11 1_555 1_555
Ca11 O14_11 1_555 1_555
Ca12 O1_11 1_555 1_555
O1_11 H1_11 1_555 1_555
O2_11 Ca12 1_555 1_555
H2_11 O2_11 1_555 1_555
H3_11 O2_11 1_555 1_555
P4_11 O19_11 1_555 1_555
P5_11 O26_9 1_555 1_555
O14_11 H15_11 1_555 1_555
H16_11 O14_11 1_555 1_555
O16_11 Ca11 1_555 1_555
H17_11 O16_11 1_555 1_555
H18_11 O16_11 1_555 1_555
H20_11 O1_11 1_555 1_555
O20_11 Ca12 1_555 1_555
O21_11 Ca11 1_555 1_555
O22_11 P4_11 1_555 1_555
H22_11 O22_11 1_555 1_555
O26_9 Ca6_5 1_555 1_555
O27_9 P5_11 1_555 1_555
O28_6 P5_11 1_555 1_555
C2_11 O20_11 1_555 1_555
H24_11 C2_11 1_555 1_555
H25_11 C2_11 1_555 1_555
H26_11 C2_11 1_555 1_555
C29_11 P4_11 1_555 1_555
C30_11 C29_11 1_555 1_555
H48_11 C30_11 1_555 1_555
C31_11 C30_11 1_555 1_555
H49_11 C31_11 1_555 1_555
C32_11 C31_11 1_555 1_555
C34_11 C29_11 1_555 1_555
H51_11 C34_11 1_555 1_555
C35_11 P5_11 1_555 1_555
C36_11 C35_11 1_555 1_555
H52_11 C36_11 1_555 1_555
C37_11 C36_11 1_555 1_555
H53_11 C37_11 1_555 1_555
C38_11 C37_11 1_555 1_555
C39_11 C38_11 1_555 1_555
H54_11 C39_11 1_555 1_555
C40_11 C35_11 1_555 1_555
H55_11 C40_11 1_555 1_555
C49_11 C38_11 1_555 1_555
C54_11 C48_11 1_555 1_555
H63_11 C54_11 1_555 1_555
H64_11 C54_11 1_555 1_555
H65_11 C54_11 1_555 1_555
Ca6_5 O27_9 1_555 1_555
Ca8_9 O26_9 1_555 1_555
Ca9_3 O28_6 1_555 1_555
O32_7 Ca11 1_555 1_555
O36_6 Ca11 1_555 1_555
Ca12 O21_11 1_555 1_555
P4_11 O21_11 1_555 1_555
C39_11 C40_11 1_555 1_555
C48_11 C49_11 1_555 1_555
P6_11 O23_7 1_555 1_555
O23_7 Ca6_6 1_555 1_555
O24_11 P6_11 1_555 1_555
O25_11 P6_11 1_555 1_555
H23_11 O25_11 1_555 1_555
H50_11 C33_11 1_555 1_555
C41_11 P6_11 1_555 1_555
C42_11 C41_11 1_555 1_555
H56_11 C42_11 1_555 1_555
C43_11 C42_11 1_555 1_555
H57_11 C43_11 1_555 1_555
C44_11 C43_11 1_555 1_555
C45_11 C44_11 1_555 1_555
H58_11 C45_11 1_555 1_555
C46_11 C41_11 1_555 1_555
H59_11 C46_11 1_555 1_555
C51_11 C44_11 1_555 1_555
C52_11 C47_11 1_555 1_555
C53_11 C52_11 1_555 1_555
H60_11 C53_11 1_555 1_555
H61_11 C53_11 1_555 1_555
H62_11 C53_11 1_555 1_555
C55_11 C50_11 1_555 1_555
H66_11 C55_11 1_555 1_555
H67_11 C55_11 1_555 1_555
H68_11 C55_11 1_555 1_555
C45_11 C46_11 1_555 1_555
C50_11 C51_11 1_555 1_555
C51_11 C52_11 1_555 1_555
Ca7_6 O4_12 1_555 1_555
Ca8_8 O8_12 1_555 1_555
Ca9_3 O14_12 1_555 1_555
Ca4_9 O1_12 1_555 1_555
O1_12 H1_12 1_555 1_555
O2_12 Ca4_9 1_555 1_555
H2_12 O2_12 1_555 1_555
H3_12 O2_12 1_555 1_555
P1_12 O29_6 1_555 1_555
P2_12 O9_12 1_555 1_555
P3_12 O15_12 1_555 1_555
P4_12 O19_12 1_555 1_555
P5_12 O34_2 1_555 1_555
O4_12 H4_12 1_555 1_555
H5_12 O4_12 1_555 1_555
O6_12 Ca7_6 1_555 1_555
H6_12 O6_12 1_555 1_555
H7_12 O6_12 1_555 1_555
O31_6 P1_12 1_555 1_555
O8_12 H8_12 1_555 1_555
H9_12 O8_12 1_555 1_555
O9_12 H10_12 1_555 1_555
O11_12 P2_12 1_555 1_555
O12_12 Ca8_8 1_555 1_555
H13_12 O12_12 1_555 1_555
H14_12 O12_12 1_555 1_555
O13_8 P2_12 1_555 1_555
O14_12 H15_12 1_555 1_555
H16_12 O14_12 1_555 1_555
O15_12 Ca7_6 1_555 1_555
O16_12 Ca9_3 1_555 1_555
H17_12 O16_12 1_555 1_555
H18_12 O16_12 1_555 1_555
O17_12 P3_12 1_555 1_555
H19_12 O17_12 1_555 1_555
H20_12 O1_12 1_555 1_555
O18_12 Ca4_9 1_555 1_555
O19_12 Ca8_8 1_555 1_555
O20_12 Ca4_9 1_555 1_555
H21_12 O20_12 1_555 1_555
O21_12 Ca9_3 1_555 1_555
O22_12 P4_12 1_555 1_555
H22_12 O22_12 1_555 1_555
O35_2 P5_12 1_555 1_555
O36_6 P5_12 1_555 1_555
C1_12 P1_12 1_555 1_555
C2_12 O20_12 1_555 1_555
H24_12 C2_12 1_555 1_555
H25_12 C2_12 1_555 1_555
H26_12 C2_12 1_555 1_555
C3_12 C1_12 1_555 1_555
H27_12 C3_12 1_555 1_555
C4_12 C3_12 1_555 1_555
H28_12 C4_12 1_555 1_555
C5_12 C4_12 1_555 1_555
C6_12 C5_12 1_555 1_555
H29_12 C6_12 1_555 1_555
C7_12 C1_12 1_555 1_555
H30_12 C7_12 1_555 1_555
C8_12 P2_12 1_555 1_555
C9_12 C8_12 1_555 1_555
H31_12 C9_12 1_555 1_555
C10_12 C9_12 1_555 1_555
H32_12 C10_12 1_555 1_555
C11_12 C10_12 1_555 1_555
C12_12 C11_12 1_555 1_555
H33_12 C12_12 1_555 1_555
C13_12 C8_12 1_555 1_555
H34_12 C13_12 1_555 1_555
C14_12 P3_12 1_555 1_555
C15_12 C14_12 1_555 1_555
H35_12 C15_12 1_555 1_555
C16_12 C15_12 1_555 1_555
H36_12 C16_12 1_555 1_555
C17_12 C16_12 1_555 1_555
C18_12 C17_12 1_555 1_555
H37_12 C18_12 1_555 1_555
C19_12 C14_12 1_555 1_555
H38_12 C19_12 1_555 1_555
C20_12 C5_12 1_555 1_555
C21_12 C20_12 1_555 1_555
C22_12 C11_12 1_555 1_555
C23_12 C22_12 1_555 1_555
C24_12 C17_12 1_555 1_555
C25_12 C20_12 1_555 1_555
C26_12 C21_12 1_555 1_555
H39_12 C26_12 1_555 1_555
H40_12 C26_12 1_555 1_555
H41_12 C26_12 1_555 1_555
C27_12 C23_12 1_555 1_555
H42_12 C27_12 1_555 1_555
H43_12 C27_12 1_555 1_555
H44_12 C27_12 1_555 1_555
C28_12 C25_12 1_555 1_555
H45_12 C28_12 1_555 1_555
H46_12 C28_12 1_555 1_555
H47_12 C28_12 1_555 1_555
C29_12 P4_12 1_555 1_555
C30_12 C29_12 1_555 1_555
H48_12 C30_12 1_555 1_555
C31_12 C30_12 1_555 1_555
H49_12 C31_12 1_555 1_555
C32_12 C31_12 1_555 1_555
C34_12 C29_12 1_555 1_555
H51_12 C34_12 1_555 1_555
C35_12 P5_12 1_555 1_555
C36_12 C35_12 1_555 1_555
H52_12 C36_12 1_555 1_555
C37_12 C36_12 1_555 1_555
H53_12 C37_12 1_555 1_555
C38_12 C37_12 1_555 1_555
C39_12 C38_12 1_555 1_555
H54_12 C39_12 1_555 1_555
C40_12 C35_12 1_555 1_555
H55_12 C40_12 1_555 1_555
C49_12 C38_12 1_555 1_555
C54_12 C48_12 1_555 1_555
H63_12 C54_12 1_555 1_555
H64_12 C54_12 1_555 1_555
H65_12 C54_12 1_555 1_555
Ca11_4 O13_8 1_555 1_555
O30_9 Ca9_3 1_555 1_555
O31_9 Ca9_3 1_555 1_555
O32_8 Ca9_3 1_555 1_555
O33_8 Ca7_6 1_555 1_555
Ca8_8 O15_12 1_555 1_555
Ca4_9 O21_12 1_555 1_555
Ca4_9 O30_9 1_555 1_555
P3_12 O18_12 1_555 1_555
P4_12 O21_12 1_555 1_555
C6_12 C7_12 1_555 1_555
C12_12 C13_12 1_555 1_555
C18_12 C19_12 1_555 1_555
C21_12 C22_12 1_555 1_555
C23_12 C24_12 1_555 1_555
C24_12 C25_12 1_555 1_555
C39_12 C40_12 1_555 1_555
C48_12 C49_12 1_555 1_555
P6_12 O23_8 1_555 1_555
H11_12 O10_12 1_555 1_555
H12_12 O10_12 1_555 1_555
O23_8 Ca7 1_555 1_555
O24_12 P6_12 1_555 1_555
O25_12 P6_12 1_555 1_555
H23_12 O25_12 1_555 1_555
H50_12 C33_12 1_555 1_555
C41_12 P6_12 1_555 1_555
C42_12 C41_12 1_555 1_555
H56_12 C42_12 1_555 1_555
C43_12 C42_12 1_555 1_555
H57_12 C43_12 1_555 1_555
C44_12 C43_12 1_555 1_555
C45_12 C44_12 1_555 1_555
H58_12 C45_12 1_555 1_555
C46_12 C41_12 1_555 1_555
H59_12 C46_12 1_555 1_555
C51_12 C44_12 1_555 1_555
C52_12 C47_12 1_555 1_555
C53_12 C52_12 1_555 1_555
H60_12 C53_12 1_555 1_555
H61_12 C53_12 1_555 1_555
H62_12 C53_12 1_555 1_555
C55_12 C50_12 1_555 1_555
H66_12 C55_12 1_555 1_555
H67_12 C55_12 1_555 1_555
H68_12 C55_12 1_555 1_555
C45_12 C46_12 1_555 1_555
C50_12 C51_12 1_555 1_555
C51_12 C52_12 1_555 1_555
Ca6_5 O4_13 1_555 1_555
Ca8_9 O8_13 1_555 1_555
Ca10_4 O14_13 1_555 1_555
Ca4_10 O1_13 1_555 1_555
O1_13 H1_13 1_555 1_555
O2_13 Ca4_10 1_555 1_555
H2_13 O2_13 1_555 1_555
H3_13 O2_13 1_555 1_555
P3_13 O15_13 1_555 1_555
P4_13 O19_13 1_555 1_555
O4_13 H4_13 1_555 1_555
H5_13 O4_13 1_555 1_555
O6_13 Ca6_5 1_555 1_555
H6_13 O6_13 1_555 1_555
H7_13 O6_13 1_555 1_555
O8_13 H8_13 1_555 1_555
H9_13 O8_13 1_555 1_555
O10_13 Ca8_9 1_555 1_555
H11_13 O10_13 1_555 1_555
H12_13 O10_13 1_555 1_555
O14_13 H15_13 1_555 1_555
H16_13 O14_13 1_555 1_555
O15_13 Ca6_5 1_555 1_555
O16_13 Ca10_4 1_555 1_555
H17_13 O16_13 1_555 1_555
H18_13 O16_13 1_555 1_555
O17_13 P3_13 1_555 1_555
H19_13 O17_13 1_555 1_555
H20_13 O1_13 1_555 1_555
O18_13 Ca4_10 1_555 1_555
O19_13 Ca8_9 1_555 1_555
O20_13 Ca4_10 1_555 1_555
H21_13 O20_13 1_555 1_555
O21_13 Ca10_4 1_555 1_555
O22_13 P4_13 1_555 1_555
H22_13 O22_13 1_555 1_555
C14_13 P3_13 1_555 1_555
C15_13 C14_13 1_555 1_555
H35_13 C15_13 1_555 1_555
C16_13 C15_13 1_555 1_555
H36_13 C16_13 1_555 1_555
C19_13 C14_13 1_555 1_555
H38_13 C19_13 1_555 1_555
C29_13 P4_13 1_555 1_555
C30_13 C29_13 1_555 1_555
H48_13 C30_13 1_555 1_555
H50_13 C33_13 1_555 1_555
C34_13 C29_13 1_555 1_555
H51_13 C34_13 1_555 1_555
O29_7 Ca6_5 1_555 1_555
O30_10 Ca10_4 1_555 1_555
O31_10 Ca10_4 1_555 1_555
O36_7 Ca10_4 1_555 1_555
Ca8_9 O15_13 1_555 1_555
Ca4_10 O21_13 1_555 1_555
Ca4_10 O30_10 1_555 1_555
P3_13 O18_13 1_555 1_555
P4_13 O21_13 1_555 1_555
C33_13 C34_13 1_555 1_555
P5_13 O34_3 1_555 1_555
O35_3 P5_13 1_555 1_555
O28_7 P5_13 1_555 1_555
C35_13 P5_13 1_555 1_555
C36_13 C35_13 1_555 1_555
H52_13 C36_13 1_555 1_555
C37_13 C36_13 1_555 1_555
H53_13 C37_13 1_555 1_555
C40_13 C35_13 1_555 1_555
H55_13 C40_13 1_555 1_555
Ca11_3 O28_7 1_555 1_555
P1_13 O3_7 1_555 1_555
P2_13 O9_13 1_555 1_555
O3_7 Ca7_5 1_555 1_555
O30_7 P1_13 1_555 1_555
O31_7 P1_13 1_555 1_555
O9_13 H10_13 1_555 1_555
O11_13 P2_13 1_555 1_555
H13_13 O12_13 1_555 1_555
H14_13 O12_13 1_555 1_555
O32_6 P2_13 1_555 1_555
C1_13 P1_13 1_555 1_555
H24_13 C2_13 1_555 1_555
H25_13 C2_13 1_555 1_555
H26_13 C2_13 1_555 1_555
C3_13 C1_13 1_555 1_555
H27_13 C3_13 1_555 1_555
C4_13 C3_13 1_555 1_555
H28_13 C4_13 1_555 1_555
C5_13 C4_13 1_555 1_555
C6_13 C5_13 1_555 1_555
H29_13 C6_13 1_555 1_555
C7_13 C1_13 1_555 1_555
H30_13 C7_13 1_555 1_555
C8_13 P2_13 1_555 1_555
C9_13 C8_13 1_555 1_555
H31_13 C9_13 1_555 1_555
C10_13 C9_13 1_555 1_555
H32_13 C10_13 1_555 1_555
C11_13 C10_13 1_555 1_555
C12_13 C11_13 1_555 1_555
H33_13 C12_13 1_555 1_555
C13_13 C8_13 1_555 1_555
H34_13 C13_13 1_555 1_555
C18_13 C17_13 1_555 1_555
H37_13 C18_13 1_555 1_555
C20_13 C5_13 1_555 1_555
C21_13 C20_13 1_555 1_555
C22_13 C11_13 1_555 1_555
C23_13 C22_13 1_555 1_555
C24_13 C17_13 1_555 1_555
C25_13 C20_13 1_555 1_555
C26_13 C21_13 1_555 1_555
H39_13 C26_13 1_555 1_555
H40_13 C26_13 1_555 1_555
H41_13 C26_13 1_555 1_555
C27_13 C23_13 1_555 1_555
H42_13 C27_13 1_555 1_555
H43_13 C27_13 1_555 1_555
H44_13 C27_13 1_555 1_555
C28_13 C25_13 1_555 1_555
H45_13 C28_13 1_555 1_555
H46_13 C28_13 1_555 1_555
H47_13 C28_13 1_555 1_555
H49_13 C31_13 1_555 1_555
C32_13 C31_13 1_555 1_555
C39_13 C38_13 1_555 1_555
H54_13 C39_13 1_555 1_555
C42_13 C41_13 1_555 1_555
H56_13 C42_13 1_555 1_555
C43_13 C42_13 1_555 1_555
H57_13 C43_13 1_555 1_555
C44_13 C43_13 1_555 1_555
C45_13 C44_13 1_555 1_555
H58_13 C45_13 1_555 1_555
C46_13 C41_13 1_555 1_555
C47_13 C32_13 1_555 1_555
C48_13 C47_13 1_555 1_555
C49_13 C38_13 1_555 1_555
C50_13 C49_13 1_555 1_555
C51_13 C44_13 1_555 1_555
C52_13 C47_13 1_555 1_555
C53_13 C52_13 1_555 1_555
H60_13 C53_13 1_555 1_555
H61_13 C53_13 1_555 1_555
H62_13 C53_13 1_555 1_555
C54_13 C48_13 1_555 1_555
H63_13 C54_13 1_555 1_555
H64_13 C54_13 1_555 1_555
H65_13 C54_13 1_555 1_555
C55_13 C50_13 1_555 1_555
H66_13 C55_13 1_555 1_555
H67_13 C55_13 1_555 1_555
H68_13 C55_13 1_555 1_555
C6_13 C7_13 1_555 1_555
C12_13 C13_13 1_555 1_555
C21_13 C22_13 1_555 1_555
C23_13 C24_13 1_555 1_555
C24_13 C25_13 1_555 1_555
C45_13 C46_13 1_555 1_555
C48_13 C49_13 1_555 1_555
C50_13 C51_13 1_555 1_555
C51_13 C52_13 1_555 1_555
P6_13 O33_6 1_555 1_555
O24_13 P6_13 1_555 1_555
O25_13 P6_13 1_555 1_555
H23_13 O25_13 1_555 1_555
P1_14 O29_7 1_555 1_555
P2_14 O9_14 1_555 1_555
O30_9 P1_14 1_555 1_555
O31_9 P1_14 1_555 1_555
O9_14 H10_14 1_555 1_555
O11_14 P2_14 1_555 1_555
H13_14 O12_14 1_555 1_555
H14_14 O12_14 1_555 1_555
O32_5 P2_14 1_555 1_555
C1_14 P1_14 1_555 1_555
H24_14 C2_14 1_555 1_555
H25_14 C2_14 1_555 1_555
H26_14 C2_14 1_555 1_555
C3_14 C1_14 1_555 1_555
H27_14 C3_14 1_555 1_555
C4_14 C3_14 1_555 1_555
H28_14 C4_14 1_555 1_555
C5_14 C4_14 1_555 1_555
C6_14 C5_14 1_555 1_555
H29_14 C6_14 1_555 1_555
C7_14 C1_14 1_555 1_555
H30_14 C7_14 1_555 1_555
C8_14 P2_14 1_555 1_555
C9_14 C8_14 1_555 1_555
H31_14 C9_14 1_555 1_555
C10_14 C9_14 1_555 1_555
H32_14 C10_14 1_555 1_555
C11_14 C10_14 1_555 1_555
C12_14 C11_14 1_555 1_555
H33_14 C12_14 1_555 1_555
C13_14 C8_14 1_555 1_555
H34_14 C13_14 1_555 1_555
C18_14 C17_14 1_555 1_555
H37_14 C18_14 1_555 1_555
C20_14 C5_14 1_555 1_555
C21_14 C20_14 1_555 1_555
C22_14 C11_14 1_555 1_555
C23_14 C22_14 1_555 1_555
C24_14 C17_14 1_555 1_555
C25_14 C20_14 1_555 1_555
C26_14 C21_14 1_555 1_555
H39_14 C26_14 1_555 1_555
H40_14 C26_14 1_555 1_555
H41_14 C26_14 1_555 1_555
C27_14 C23_14 1_555 1_555
H42_14 C27_14 1_555 1_555
H43_14 C27_14 1_555 1_555
H44_14 C27_14 1_555 1_555
C28_14 C25_14 1_555 1_555
H45_14 C28_14 1_555 1_555
H46_14 C28_14 1_555 1_555
H47_14 C28_14 1_555 1_555
H49_14 C31_14 1_555 1_555
C32_14 C31_14 1_555 1_555
C39_14 C38_14 1_555 1_555
H54_14 C39_14 1_555 1_555
C42_14 C41_14 1_555 1_555
H56_14 C42_14 1_555 1_555
C43_14 C42_14 1_555 1_555
H57_14 C43_14 1_555 1_555
C44_14 C43_14 1_555 1_555
C45_14 C44_14 1_555 1_555
H58_14 C45_14 1_555 1_555
C46_14 C41_14 1_555 1_555
C47_14 C32_14 1_555 1_555
C48_14 C47_14 1_555 1_555
C49_14 C38_14 1_555 1_555
C50_14 C49_14 1_555 1_555
C51_14 C44_14 1_555 1_555
C52_14 C47_14 1_555 1_555
C53_14 C52_14 1_555 1_555
H60_14 C53_14 1_555 1_555
H61_14 C53_14 1_555 1_555
H62_14 C53_14 1_555 1_555
C54_14 C48_14 1_555 1_555
H63_14 C54_14 1_555 1_555
H64_14 C54_14 1_555 1_555
H65_14 C54_14 1_555 1_555
C55_14 C50_14 1_555 1_555
H66_14 C55_14 1_555 1_555
H67_14 C55_14 1_555 1_555
H68_14 C55_14 1_555 1_555
C6_14 C7_14 1_555 1_555
C12_14 C13_14 1_555 1_555
C21_14 C22_14 1_555 1_555
C23_14 C24_14 1_555 1_555
C24_14 C25_14 1_555 1_555
C45_14 C46_14 1_555 1_555
C48_14 C49_14 1_555 1_555
C50_14 C51_14 1_555 1_555
C51_14 C52_14 1_555 1_555
P6_14 O33_5 1_555 1_555
O24_14 P6_14 1_555 1_555
O25_14 P6_14 1_555 1_555
H23_14 O25_14 1_555 1_555
P5_14 O26_10 1_555 1_555
O26_10 Ca6_6 1_555 1_555
O27_10 P5_14 1_555 1_555
O36_7 P5_14 1_555 1_555
C35_14 P5_14 1_555 1_555
C36_14 C35_14 1_555 1_555
H52_14 C36_14 1_555 1_555
C37_14 C36_14 1_555 1_555
H53_14 C37_14 1_555 1_555
C40_14 C35_14 1_555 1_555
H55_14 C40_14 1_555 1_555
Ca6_6 O27_10 1_555 1_555
Ca8_10 O26_10 1_555 1_555
Ca7_5 O4_14 1_555 1_555
Ca8_7 O8_14 1_555 1_555
Ca11_3 O14_14 1_555 1_555
Ca12_3 O1_14 1_555 1_555
O1_14 H1_14 1_555 1_555
O2_14 Ca12_3 1_555 1_555
H2_14 O2_14 1_555 1_555
H3_14 O2_14 1_555 1_555
P3_14 O15_14 1_555 1_555
P4_14 O19_14 1_555 1_555
O4_14 H4_14 1_555 1_555
H5_14 O4_14 1_555 1_555
O6_14 Ca7_5 1_555 1_555
H6_14 O6_14 1_555 1_555
H7_14 O6_14 1_555 1_555
O8_14 H8_14 1_555 1_555
H9_14 O8_14 1_555 1_555
O10_14 Ca8_7 1_555 1_555
H11_14 O10_14 1_555 1_555
H12_14 O10_14 1_555 1_555
O14_14 H15_14 1_555 1_555
H16_14 O14_14 1_555 1_555
O15_14 Ca7_5 1_555 1_555
O16_14 Ca11_3 1_555 1_555
H17_14 O16_14 1_555 1_555
H18_14 O16_14 1_555 1_555
O17_14 P3_14 1_555 1_555
H19_14 O17_14 1_555 1_555
H20_14 O1_14 1_555 1_555
O18_14 Ca12_3 1_555 1_555
O19_14 Ca8_7 1_555 1_555
O20_14 Ca12_3 1_555 1_555
H21_14 O20_14 1_555 1_555
O21_14 Ca11_3 1_555 1_555
O22_14 P4_14 1_555 1_555
H22_14 O22_14 1_555 1_555
C14_14 P3_14 1_555 1_555
C15_14 C14_14 1_555 1_555
H35_14 C15_14 1_555 1_555
C16_14 C15_14 1_555 1_555
H36_14 C16_14 1_555 1_555
C19_14 C14_14 1_555 1_555
H38_14 C19_14 1_555 1_555
C29_14 P4_14 1_555 1_555
C30_14 C29_14 1_555 1_555
H48_14 C30_14 1_555 1_555
H50_14 C33_14 1_555 1_555
C34_14 C29_14 1_555 1_555
H51_14 C34_14 1_555 1_555
Ca8_7 O15_14 1_555 1_555
Ca12_3 O21_14 1_555 1_555
P3_14 O18_14 1_555 1_555
P4_14 O21_14 1_555 1_555
C33_14 C34_14 1_555 1_555
P2_15 O9_15 1_555 1_555
O9_15 H10_15 1_555 1_555
O11_15 P2_15 1_555 1_555
O32_8 P2_15 1_555 1_555
Ca7 O4_15 1_555 1_555
Ca8 O8_15 1_555 1_555
Ca11_4 O14_15 1_555 1_555
Ca12_4 O1_15 1_555 1_555
O1_15 H1_15 1_555 1_555
O2_15 Ca12_4 1_555 1_555
H2_15 O2_15 1_555 1_555
H3_15 O2_15 1_555 1_555
P1_15 O3_8 1_555 1_555
P3_15 O15_15 1_555 1_555
P4_15 O19_15 1_555 1_555
P5_15 O34_6 1_555 1_555
P6_15 O33_8 1_555 1_555
O3_8 Ca6_6 1_555 1_555
O4_15 H4_15 1_555 1_555
H5_15 O4_15 1_555 1_555
O30_10 P1_15 1_555 1_555
O6_15 Ca7 1_555 1_555
H6_15 O6_15 1_555 1_555
H7_15 O6_15 1_555 1_555
O31_10 P1_15 1_555 1_555
O8_15 H8_15 1_555 1_555
H9_15 O8_15 1_555 1_555
O10_15 Ca8 1_555 1_555
H11_15 O10_15 1_555 1_555
H12_15 O10_15 1_555 1_555
O12_15 Ca8 1_555 1_555
H13_15 O12_15 1_555 1_555
H14_15 O12_15 1_555 1_555
O14_15 H15_15 1_555 1_555
H16_15 O14_15 1_555 1_555
O15_15 Ca7 1_555 1_555
O16_15 Ca11_4 1_555 1_555
H17_15 O16_15 1_555 1_555
H18_15 O16_15 1_555 1_555
O17_15 P3_15 1_555 1_555
H19_15 O17_15 1_555 1_555
H20_15 O1_15 1_555 1_555
O18_15 Ca12_4 1_555 1_555
O19_15 Ca8 1_555 1_555
O20_15 Ca12_4 1_555 1_555
H21_15 O20_15 1_555 1_555
O21_15 Ca11_4 1_555 1_555
O22_15 P4_15 1_555 1_555
H22_15 O22_15 1_555 1_555
O24_15 P6_15 1_555 1_555
O25_15 P6_15 1_555 1_555
H23_15 O25_15 1_555 1_555
O35_6 P5_15 1_555 1_555
O28_8 P5_15 1_555 1_555
C1_15 P1_15 1_555 1_555
C2_15 O20_15 1_555 1_555
H24_15 C2_15 1_555 1_555
H25_15 C2_15 1_555 1_555
H26_15 C2_15 1_555 1_555
C3_15 C1_15 1_555 1_555
H27_15 C3_15 1_555 1_555
C4_15 C3_15 1_555 1_555
H28_15 C4_15 1_555 1_555
C5_15 C4_15 1_555 1_555
C6_15 C5_15 1_555 1_555
H29_15 C6_15 1_555 1_555
C7_15 C1_15 1_555 1_555
H30_15 C7_15 1_555 1_555
C9_15 C8_15 1_555 1_555
C10_15 C9_15 1_555 1_555
H32_15 C10_15 1_555 1_555
C11_15 C10_15 1_555 1_555
C12_15 C11_15 1_555 1_555
H33_15 C12_15 1_555 1_555
C13_15 C8_15 1_555 1_555
H34_15 C13_15 1_555 1_555
C14_15 P3_15 1_555 1_555
C15_15 C14_15 1_555 1_555
H35_15 C15_15 1_555 1_555
C16_15 C15_15 1_555 1_555
H36_15 C16_15 1_555 1_555
C17_15 C16_15 1_555 1_555
C18_15 C17_15 1_555 1_555
H37_15 C18_15 1_555 1_555
C19_15 C14_15 1_555 1_555
H38_15 C19_15 1_555 1_555
C20_15 C5_15 1_555 1_555
C21_15 C20_15 1_555 1_555
C22_15 C11_15 1_555 1_555
C23_15 C22_15 1_555 1_555
C24_15 C17_15 1_555 1_555
C25_15 C20_15 1_555 1_555
C26_15 C21_15 1_555 1_555
H39_15 C26_15 1_555 1_555
H40_15 C26_15 1_555 1_555
H41_15 C26_15 1_555 1_555
C27_15 C23_15 1_555 1_555
H42_15 C27_15 1_555 1_555
H43_15 C27_15 1_555 1_555
H44_15 C27_15 1_555 1_555
C28_15 C25_15 1_555 1_555
H45_15 C28_15 1_555 1_555
H46_15 C28_15 1_555 1_555
H47_15 C28_15 1_555 1_555
C29_15 P4_15 1_555 1_555
C30_15 C29_15 1_555 1_555
H48_15 C30_15 1_555 1_555
C31_15 C30_15 1_555 1_555
H49_15 C31_15 1_555 1_555
C32_15 C31_15 1_555 1_555
C33_15 C32_15 1_555 1_555
H50_15 C33_15 1_555 1_555
C34_15 C29_15 1_555 1_555
H51_15 C34_15 1_555 1_555
C35_15 P5_15 1_555 1_555
C36_15 C35_15 1_555 1_555
H52_15 C36_15 1_555 1_555
C37_15 C36_15 1_555 1_555
H53_15 C37_15 1_555 1_555
C38_15 C37_15 1_555 1_555
C39_15 C38_15 1_555 1_555
H54_15 C39_15 1_555 1_555
C40_15 C35_15 1_555 1_555
H55_15 C40_15 1_555 1_555
C41_15 P6_15 1_555 1_555
C42_15 C41_15 1_555 1_555
H56_15 C42_15 1_555 1_555
C43_15 C42_15 1_555 1_555
H57_15 C43_15 1_555 1_555
C44_15 C43_15 1_555 1_555
C45_15 C44_15 1_555 1_555
H58_15 C45_15 1_555 1_555
C46_15 C41_15 1_555 1_555
H59_15 C46_15 1_555 1_555
C47_15 C32_15 1_555 1_555
C48_15 C47_15 1_555 1_555
C49_15 C38_15 1_555 1_555
C50_15 C49_15 1_555 1_555
C51_15 C44_15 1_555 1_555
C52_15 C47_15 1_555 1_555
C53_15 C52_15 1_555 1_555
H60_15 C53_15 1_555 1_555
H61_15 C53_15 1_555 1_555
H62_15 C53_15 1_555 1_555
C54_15 C48_15 1_555 1_555
H63_15 C54_15 1_555 1_555
H64_15 C54_15 1_555 1_555
H65_15 C54_15 1_555 1_555
C55_15 C50_15 1_555 1_555
H66_15 C55_15 1_555 1_555
H67_15 C55_15 1_555 1_555
H68_15 C55_15 1_555 1_555
Ca11_6 O28_8 1_555 1_555
O29_8 Ca7 1_555 1_555
O36_8 Ca11_4 1_555 1_555
Ca8 O15_15 1_555 1_555
Ca12_4 O21_15 1_555 1_555
P3_15 O18_15 1_555 1_555
P4_15 O21_15 1_555 1_555
C6_15 C7_15 1_555 1_555
C12_15 C13_15 1_555 1_555
C18_15 C19_15 1_555 1_555
C21_15 C22_15 1_555 1_555
C23_15 C24_15 1_555 1_555
C24_15 C25_15 1_555 1_555
C33_15 C34_15 1_555 1_555
C39_15 C40_15 1_555 1_555
C45_15 C46_15 1_555 1_555
C48_15 C49_15 1_555 1_555
C50_15 C51_15 1_555 1_555
C51_15 C52_15 1_555 1_555
Ca11_6 O14_16 1_555 1_555
Ca12_6 O1_16 1_555 1_555
O1_16 H1_16 1_555 1_555
O2_16 Ca12_6 1_555 1_555
H2_16 O2_16 1_555 1_555
H3_16 O2_16 1_555 1_555
P4_16 O19_16 1_555 1_555
P5_16 O34_4 1_555 1_555
P6_16 O33_7 1_555 1_555
O14_16 H15_16 1_555 1_555
H16_16 O14_16 1_555 1_555
O16_16 Ca11_6 1_555 1_555
H17_16 O16_16 1_555 1_555
H18_16 O16_16 1_555 1_555
H20_16 O1_16 1_555 1_555
O20_16 Ca12_6 1_555 1_555
O21_16 Ca11_6 1_555 1_555
O22_16 P4_16 1_555 1_555
H22_16 O22_16 1_555 1_555
O24_16 P6_16 1_555 1_555
O25_16 P6_16 1_555 1_555
H23_16 O25_16 1_555 1_555
O35_4 P5_16 1_555 1_555
O36_8 P5_16 1_555 1_555
C2_16 O20_16 1_555 1_555
H24_16 C2_16 1_555 1_555
H25_16 C2_16 1_555 1_555
H26_16 C2_16 1_555 1_555
C29_16 P4_16 1_555 1_555
C30_16 C29_16 1_555 1_555
H48_16 C30_16 1_555 1_555
C31_16 C30_16 1_555 1_555
H49_16 C31_16 1_555 1_555
C32_16 C31_16 1_555 1_555
C33_16 C32_16 1_555 1_555
H50_16 C33_16 1_555 1_555
C34_16 C29_16 1_555 1_555
H51_16 C34_16 1_555 1_555
C35_16 P5_16 1_555 1_555
C36_16 C35_16 1_555 1_555
H52_16 C36_16 1_555 1_555
C37_16 C36_16 1_555 1_555
H53_16 C37_16 1_555 1_555
C38_16 C37_16 1_555 1_555
C39_16 C38_16 1_555 1_555
H54_16 C39_16 1_555 1_555
C40_16 C35_16 1_555 1_555
H55_16 C40_16 1_555 1_555
C41_16 P6_16 1_555 1_555
C42_16 C41_16 1_555 1_555
H56_16 C42_16 1_555 1_555
C43_16 C42_16 1_555 1_555
H57_16 C43_16 1_555 1_555
C44_16 C43_16 1_555 1_555
C45_16 C44_16 1_555 1_555
H58_16 C45_16 1_555 1_555
C46_16 C41_16 1_555 1_555
H59_16 C46_16 1_555 1_555
C47_16 C32_16 1_555 1_555
C48_16 C47_16 1_555 1_555
C49_16 C38_16 1_555 1_555
C50_16 C49_16 1_555 1_555
C51_16 C44_16 1_555 1_555
C52_16 C47_16 1_555 1_555
C53_16 C52_16 1_555 1_555
H60_16 C53_16 1_555 1_555
H61_16 C53_16 1_555 1_555
H62_16 C53_16 1_555 1_555
C54_16 C48_16 1_555 1_555
H63_16 C54_16 1_555 1_555
H64_16 C54_16 1_555 1_555
H65_16 C54_16 1_555 1_555
C55_16 C50_16 1_555 1_555
H66_16 C55_16 1_555 1_555
H67_16 C55_16 1_555 1_555
H68_16 C55_16 1_555 1_555
Ca12_6 O21_16 1_555 1_555
P4_16 O21_16 1_555 1_555
C33_16 C34_16 1_555 1_555
C39_16 C40_16 1_555 1_555
C45_16 C46_16 1_555 1_555
C48_16 C49_16 1_555 1_555
C50_16 C51_16 1_555 1_555
C51_16 C52_16 1_555 1_555
P2_16 O9_16 1_555 1_555
O9_16 H10_16 1_555 1_555
O11_16 P2_16 1_555 1_555
O32_7 P2_16 1_555 1_555
Ca6_6 O4_16 1_555 1_555
Ca8_10 O8_16 1_555 1_555
P1_16 O29_8 1_555 1_555
P3_16 O15_16 1_555 1_555
O4_16 H4_16 1_555 1_555
H5_16 O4_16 1_555 1_555
O30_2 P1_16 1_555 1_555
O6_16 Ca6_6 1_555 1_555
H6_16 O6_16 1_555 1_555
H7_16 O6_16 1_555 1_555
O31_2 P1_16 1_555 1_555
O8_16 H8_16 1_555 1_555
H9_16 O8_16 1_555 1_555
O10_16 Ca8_10 1_555 1_555
H11_16 O10_16 1_555 1_555
H12_16 O10_16 1_555 1_555
O12_16 Ca8_10 1_555 1_555
H13_16 O12_16 1_555 1_555
H14_16 O12_16 1_555 1_555
O15_16 Ca6_6 1_555 1_555
O17_16 P3_16 1_555 1_555
H19_16 O17_16 1_555 1_555
C1_16 P1_16 1_555 1_555
C3_16 C1_16 1_555 1_555
H27_16 C3_16 1_555 1_555
C4_16 C3_16 1_555 1_555
H28_16 C4_16 1_555 1_555
C5_16 C4_16 1_555 1_555
C6_16 C5_16 1_555 1_555
H29_16 C6_16 1_555 1_555
C7_16 C1_16 1_555 1_555
H30_16 C7_16 1_555 1_555
C9_16 C8_16 1_555 1_555
C10_16 C9_16 1_555 1_555
H32_16 C10_16 1_555 1_555
C11_16 C10_16 1_555 1_555
C12_16 C11_16 1_555 1_555
H33_16 C12_16 1_555 1_555
C13_16 C8_16 1_555 1_555
H34_16 C13_16 1_555 1_555
C14_16 P3_16 1_555 1_555
C15_16 C14_16 1_555 1_555
H35_16 C15_16 1_555 1_555
C16_16 C15_16 1_555 1_555
H36_16 C16_16 1_555 1_555
C17_16 C16_16 1_555 1_555
C18_16 C17_16 1_555 1_555
H37_16 C18_16 1_555 1_555
C19_16 C14_16 1_555 1_555
H38_16 C19_16 1_555 1_555
C20_16 C5_16 1_555 1_555
C21_16 C20_16 1_555 1_555
C22_16 C11_16 1_555 1_555
C23_16 C22_16 1_555 1_555
C24_16 C17_16 1_555 1_555
C25_16 C20_16 1_555 1_555
C26_16 C21_16 1_555 1_555
H39_16 C26_16 1_555 1_555
H40_16 C26_16 1_555 1_555
H41_16 C26_16 1_555 1_555
C27_16 C23_16 1_555 1_555
H42_16 C27_16 1_555 1_555
H43_16 C27_16 1_555 1_555
H44_16 C27_16 1_555 1_555
C28_16 C25_16 1_555 1_555
H45_16 C28_16 1_555 1_555
H46_16 C28_16 1_555 1_555
H47_16 C28_16 1_555 1_555
Ca8_10 O15_16 1_555 1_555
P3_16 O18_16 1_555 1_555
C6_16 C7_16 1_555 1_555
C12_16 C13_16 1_555 1_555
C18_16 C19_16 1_555 1_555
C21_16 C22_16 1_555 1_555
C23_16 C24_16 1_555 1_555
C24_16 C25_16 1_555 1_555

#END
