
###############################################################################
#
# This file contains modified crystal structure data generated from the
# MOF subset of the Cambridge Structural Database (CSD) v543 
# hosted by the Cambridge Crystallographic Data Centre (CCDC).
#
# This work is licensed under the Creative Commons
# Attribution-NonCommercial-ShareAlike 4.0 International License.
# To view a copy of this license, visit
# http://creativecommons.org/licenses/by-nc-sa/4.0/
# or send a letter to
# Creative Commons, PO Box 1866, Mountain View, CA 94042, USA.
#
# CIF created using the CSD Python API on 29 September 2022
# The structure has been converted into the P1 space group
# The structure has a 3D framework
# The original CSD entry GEBFAY is in the monoclinic crystal system
# The framework has been calculated to contain at least 10.0% void space
# The void calculation uses a probe of radius 1.32A, grid spacing 0.4
#
###############################################################################

data_GEBFAY
_chemical_formula_moiety         '(C432 H544 Mg30 O222 P48)n'
_symmetry_cell_setting           triclinic
_symmetry_space_group_name_H-M   'P 1'
_symmetry_Int_Tables_number      1
_space_group_name_Hall           'P 1'
loop_
_symmetry_equiv_pos_site_id
_symmetry_equiv_pos_as_xyz
1 x,y,z
_cell_length_a                   37.0767(11)
_cell_length_b                   21.8178(7)
_cell_length_c                   25.6370(14)
_cell_angle_alpha                90
_cell_angle_beta                 131.7280(10)
_cell_angle_gamma                90
_cell_volume                     15477.5
loop_
_atom_site_label
_atom_site_type_symbol
_atom_site_fract_x
_atom_site_fract_y
_atom_site_fract_z
P2 P 0.40674(2) 0.20002(3) 0.45207(3)
P4 P 0.57472(3) 0.21141(3) 0.61796(4)
P5 P 0.70111(2) 0.70186(3) 0.47531(3)
P6 P 0.24832(2) 0.57322(3) 0.12608(3)
Mg2 Mg 0.49037(3) 0.09539(4) 0.54165(5)
Mg3 Mg 0.80167(3) 0.64895(4) 0.51974(4)
Mg4 Mg 0.72694(3) 0.71985(4) 0.37643(4)
O5 O 0.49951(8) 0.07838(9) 0.02400(13)
O7 O 0.42735(6) 0.13663(8) 0.47960(9)
O9 O 0.44651(7) 0.24811(9) 0.50629(10)
H9 H 0.473731 0.231071 0.532675
O11 O 0.36126(7) 0.21172(9) 0.43782(11)
O12 O 0.52060(10) 0.08470(11) 0.64214(12)
H12 H 0.516046 0.117389 0.656349
H13 H 0.505699 0.056453 0.645360
O14 O 0.85778(7) 0.64087(11) 0.52262(12)
H14 H 0.868920 0.604168 0.534068
H15 H 0.847410 0.645157 0.481300
O16 O 0.84994(8) 0.66838(10) 0.62567(11)
H17 H 0.874964 0.645624 0.646745
H18 H 0.860812 0.704830 0.632386
O18 O 0.70070(14) 0.80598(11) 0.32855(16)
H19 H 0.724600 0.830611 0.346297
H20 H 0.686835 0.803702 0.285132
O19 O 0.52693(7) 0.17835(9) 0.57703(11)
O20 O 0.76715(9) 0.72410(15) 0.34628(13)
H21 H 0.749073 0.714769 0.303155
H22 H 0.775422 0.761073 0.348421
O21 O 0.61051(8) 0.17180(10) 0.61908(12)
H23 H 0.599517 0.136088 0.605446
O22 O 0.66718(8) 0.68908(10) 0.27557(11)
H24 H 0.650050 0.663270 0.277110
H25 H 0.647268 0.719145 0.250825
O23 O 0.59740(9) 0.22933(10) 0.69082(11)
O24 O 0.74564(6) 0.66031(8) 0.51886(10)
O25 O 0.70973(6) 0.75930(8) 0.51638(10)
O26 O 0.68703(7) 0.71742(9) 0.40567(10)
O27 O 0.22988(7) 0.58430(10) 0.16237(10)
O28 O 0.24744(6) 0.62848(8) 0.08886(9)
O29 O 0.21959(7) 0.51961(9) 0.07174(10)
H26 H 0.215047 0.528005 0.035772
C1 C 0.43055(9) 0.09743(11) 0.02909(13)
C2 C 0.38341(11) 0.09127(17) 0.00067(19)
C3 C 0.36537(11) 0.12779(17) 0.02297(19)
H28 H 0.332717 0.123181 0.002274
C4 C 0.39441(9) 0.17092(11) 0.07506(13)
C5 C 0.44166(10) 0.17657(12) 0.10406(14)
H29 H 0.462212 0.205757 0.140095
C6 C 0.45961(9) 0.14021(12) 0.08131(14)
H30 H 0.492244 0.144837 0.101916
C7 C 0.39641(9) 0.21177(11) 0.37337(13)
C8 C 0.43236(10) 0.23462(12) 0.37556(14)
H31 H 0.463117 0.244676 0.419238
C9 C 0.42359(10) 0.24284(13) 0.31429(15)
H32 H 0.448525 0.258565 0.316625
C10 C 0.37920(10) 0.22857(11) 0.24983(13)
C11 C 0.34365(10) 0.20415(13) 0.24789(15)
H33 H 0.313314 0.192737 0.204310
C12 C 0.35204(10) 0.19626(13) 0.30901(15)
H34 H 0.327223 0.180135 0.306753
C16 C 0.29812(9) 0.35550(11) 0.03499(13)
C17 C 0.31980(10) 0.41113(12) 0.04417(14)
H37 H 0.354041 0.414220 0.076896
C18 C 0.29191(10) 0.46247(12) 0.00595(14)
H38 H 0.307197 0.500267 0.012517
C19 C 0.37490(9) 0.21220(11) 0.09820(13)
C20 C 0.38648(9) 0.20094(11) 0.16176(13)
C21 C 0.36837(9) 0.24056(11) 0.18295(13)
C22 C 0.33978(10) 0.29095(11) 0.14198(14)
C23 C 0.32836(9) 0.30123(11) 0.07867(13)
C24 C 0.34523(9) 0.26169(12) 0.05575(13)
C25 C 0.41709(11) 0.14649(13) 0.20627(15)
H39 H 0.403437 0.127005 0.224260
H40 H 0.450116 0.160169 0.245491
H41 H 0.417596 0.116944 0.177975
C26 C 0.32133(12) 0.33469(13) 0.16581(16)
H42 H 0.345193 0.337788 0.216907
H43 H 0.290763 0.319237 0.150513
H44 H 0.316144 0.375256 0.145392
C28 C 0.56417(10) 0.27975(12) 0.56987(14)
C29 C 0.54538(11) 0.33102(13) 0.57617(15)
H48 H 0.540985 0.330713 0.608684
C30 C 0.53282(10) 0.38299(13) 0.53583(15)
H49 H 0.519141 0.417282 0.540085
C31 C 0.54019(9) 0.38510(12) 0.48914(14)
C32 C 0.55925(10) 0.33369(13) 0.48312(16)
H50 H 0.564309 0.334169 0.451344
C33 C 0.57107(11) 0.28145(13) 0.52292(16)
H51 H 0.583964 0.246679 0.517902
C34 C 0.65248(9) 0.65708(11) 0.45644(14)
C35 C 0.62941(11) 0.61409(15) 0.40355(17)
H52 H 0.637246 0.611555 0.375079
C36 C 0.59514(11) 0.57461(14) 0.39100(16)
H53 H 0.580567 0.544861 0.354945
C37 C 0.58174(9) 0.57768(11) 0.42999(13)
C38 C 0.60383(12) 0.62150(14) 0.48158(18)
H54 H 0.594818 0.625336 0.508504
C39 C 0.63927(11) 0.66059(14) 0.49538(17)
H55 H 0.654357 0.689826 0.532014
C40 C 0.30970(9) 0.54615(11) 0.19019(13)
C41 C 0.33461(10) 0.52458(15) 0.17119(14)
H56 H 0.318149 0.519859 0.123073
C42 C 0.38319(10) 0.50972(14) 0.22120(15)
H57 H 0.399498 0.494671 0.206905
C43 C 0.40828(9) 0.51650(11) 0.29163(13)
C44 C 0.38251(10) 0.53441(14) 0.31072(15)
H58 H 0.398482 0.536691 0.358841
C45 C 0.33397(10) 0.54897(14) 0.26078(15)
H59 H 0.317038 0.561063 0.275042
C46 C 0.52543(9) 0.44080(11) 0.44488(14)
C47 C 0.56002(9) 0.48223(12) 0.45895(14)
C48 C 0.54489(9) 0.53380(11) 0.41624(13)
C49 C 0.49544(9) 0.54471(11) 0.36001(13)
C50 C 0.46118(9) 0.50355(12) 0.34748(13)
C51 C 0.47605(9) 0.45151(12) 0.38949(14)
C52 C 0.61314(10) 0.47093(14) 0.52016(16)
H60 H 0.628734 0.509470 0.545278
H61 H 0.628361 0.455065 0.503053
H62 H 0.616727 0.440938 0.551808
C53 C 0.47957(10) 0.60079(13) 0.31475(15)
H63 H 0.479202 0.591497 0.276999
H64 H 0.502149 0.634493 0.343182
H65 H 0.447067 0.612778 0.294703
C54 C 0.43871(10) 0.40642(14) 0.37378(17)
H66 H 0.428354 0.418805 0.398816
H67 H 0.452928 0.365322 0.388984
H68 H 0.410748 0.406035 0.323410
Mg8 Mg 0.69833(3) 0.85105(4) 0.48026(4)
Mg9 Mg 0.27306(3) 0.71985(4) 0.12357(4)
Mg10 Mg 0.77306(3) 0.78015(4) 0.62357(4)
O30 O 0.45826(7) 0.01364(8) 0.52425(11)
O31 O 0.50049(8) 0.07838(9) 0.47600(13)
O32 O 0.80381(6) 0.55629(7) 0.54328(9)
O33 O 0.79027(6) 0.74070(8) 0.48362(10)
O34 O 0.75256(6) 0.62848(8) 0.41114(9)
P1 P 0.54763(3) 0.05025(3) 0.50272(4)
P2_2 P 0.59326(2) 0.20002(3) 0.04793(3)
P3 P 0.79504(2) 0.52536(3) 0.58721(3)
P5_2 P 0.29889(2) 0.70186(3) 0.02469(3)
P6_2 P 0.75168(2) 0.57322(3) 0.37392(3)
Mg1 Mg 0.63298(4) 0.00347(4) 0.66760(5)
O1 O 0.58510(9) 0.05598(9) 0.58284(11)
O2 O 0.69230(12) 0.05293(17) 0.70119(16)
H1 H 0.703327 0.058551 0.679192
H2 H 0.713282 0.073892 0.741297
O4 O 0.62384(13) 0.06383(11) 0.72164(14)
H3 H 0.592522 0.075062 0.696441
H4 H 0.630731 0.046064 0.759383
O7_2 O 0.57265(6) 0.13663(8) 0.02040(9)
O11_2 O 0.63874(7) 0.21172(9) 0.06218(11)
H15_2 H 0.152590 0.645157 0.018700
O15 O 0.76375(8) 0.56947(8) 0.59185(11)
H16 H 0.753879 0.598943 0.564156
O17 O 0.83951(7) 0.50591(9) 0.65883(10)
O18_2 O 0.29930(14) 0.80598(11) 0.17145(16)
H19_2 H 0.275400 0.830611 0.153703
H20_2 H 0.313165 0.803702 0.214868
O20_2 O 0.23285(9) 0.72410(15) 0.15372(13)
H21_2 H 0.250927 0.714769 0.196845
H22_2 H 0.224578 0.761073 0.151579
O22_2 O 0.33282(8) 0.68908(10) 0.22443(11)
H24_2 H 0.349950 0.663270 0.222890
H25_2 H 0.352732 0.719145 0.249175
O26_2 O 0.31297(7) 0.71742(9) 0.09433(10)
O27_2 O 0.77012(7) 0.58430(10) 0.33763(10)
O29_2 O 0.78041(7) 0.51961(9) 0.42826(10)
H26_2 H 0.784953 0.528005 0.464228
C1_2 C 0.56945(9) 0.09743(11) 0.47091(13)
C2_2 C 0.61659(11) 0.09127(17) 0.49933(19)
H27 H 0.636955 0.061532 0.534728
C3_2 C 0.63463(11) 0.12779(17) 0.47703(19)
H28_2 H 0.667283 0.123181 0.497726
C4_2 C 0.60559(9) 0.17092(11) 0.42494(13)
C5_2 C 0.55834(10) 0.17657(12) 0.39594(14)
H29_2 H 0.537788 0.205757 0.359905
C6_2 C 0.54039(9) 0.14021(12) 0.41869(14)
H30_2 H 0.507756 0.144837 0.398084
C7_2 C 0.60359(9) 0.21177(11) 0.12663(13)
C8_2 C 0.56764(10) 0.23462(12) 0.12444(14)
H31_2 H 0.536883 0.244676 0.080762
C9_2 C 0.57641(10) 0.24284(13) 0.18571(15)
H32_2 H 0.551475 0.258565 0.183375
C10_2 C 0.62080(10) 0.22857(11) 0.25017(13)
C11_2 C 0.65635(10) 0.20415(13) 0.25211(15)
H33_2 H 0.686686 0.192737 0.295690
C12_2 C 0.64796(10) 0.19626(13) 0.19099(15)
H34_2 H 0.672777 0.180135 0.193247
C13 C 0.75808(9) 0.45871(11) 0.54165(13)
C14 C 0.77966(10) 0.40237(12) 0.55248(15)
H35 H 0.813868 0.398831 0.586395
C15 C 0.75183(10) 0.35140(12) 0.51435(15)
H36 H 0.767094 0.313272 0.522072
C16_2 C 0.70188(9) 0.35550(11) 0.46501(13)
C17_2 C 0.68020(10) 0.41113(12) 0.45583(14)
H37_2 H 0.645959 0.414220 0.423104
C18_2 C 0.70809(10) 0.46247(12) 0.49405(14)
H38_2 H 0.692803 0.500267 0.487483
C19_2 C 0.62510(9) 0.21220(11) 0.40180(13)
C20_2 C 0.61352(9) 0.20094(11) 0.33824(13)
C21_2 C 0.63163(9) 0.24056(11) 0.31705(13)
C22_2 C 0.66022(10) 0.29095(11) 0.35802(14)
C23_2 C 0.67164(9) 0.30123(11) 0.42133(13)
C24_2 C 0.65477(9) 0.26169(12) 0.44425(13)
C25_2 C 0.58291(11) 0.14649(13) 0.29373(15)
H39_2 H 0.596563 0.127005 0.275740
H40_2 H 0.549884 0.160169 0.254509
H41_2 H 0.582404 0.116944 0.322025
C26_2 C 0.67867(12) 0.33469(13) 0.33419(16)
H42_2 H 0.654807 0.337788 0.283093
H43_2 H 0.709237 0.319237 0.349487
H44_2 H 0.683856 0.375256 0.354608
C27 C 0.66929(11) 0.27327(14) 0.51405(15)
H45 H 0.663957 0.316522 0.517462
H46 H 0.703562 0.263277 0.551585
H47 H 0.649787 0.247526 0.518479
C31_2 C 0.45981(9) 0.38510(12) 0.01086(14)
C32_2 C 0.44075(10) 0.33369(13) 0.01688(16)
H50_2 H 0.435691 0.334169 0.048656
C34_2 C 0.34752(9) 0.65708(11) 0.04356(14)
C35_2 C 0.37059(11) 0.61409(15) 0.09645(17)
H52_2 H 0.362754 0.611555 0.124921
C36_2 C 0.40486(11) 0.57461(14) 0.10900(16)
H53_2 H 0.419433 0.544861 0.145055
C37_2 C 0.41826(9) 0.57768(11) 0.07001(13)
C38_2 C 0.39617(12) 0.62150(14) 0.01842(18)
C39_2 C 0.36073(11) 0.66059(14) 0.00462(17)
C40_2 C 0.69030(9) 0.54615(11) 0.30981(13)
C41_2 C 0.66539(10) 0.52458(15) 0.32881(14)
H56_2 H 0.681851 0.519859 0.376927
C42_2 C 0.61681(10) 0.50972(14) 0.27880(15)
H57_2 H 0.600502 0.494671 0.293095
C43_2 C 0.59172(9) 0.51650(11) 0.20837(13)
C44_2 C 0.61749(10) 0.53441(14) 0.18928(15)
H58_2 H 0.601518 0.536691 0.141159
C45_2 C 0.66603(10) 0.54897(14) 0.23922(15)
H59_2 H 0.682962 0.561063 0.224958
C46_2 C 0.47457(9) 0.44080(11) 0.05512(14)
C47_2 C 0.43998(9) 0.48223(12) 0.04105(14)
C48_2 C 0.45511(9) 0.53380(11) 0.08376(13)
C49_2 C 0.50456(9) 0.54471(11) 0.13999(13)
C50_2 C 0.53882(9) 0.50355(12) 0.15252(13)
C51_2 C 0.52395(9) 0.45151(12) 0.11051(14)
C53_2 C 0.52043(10) 0.60079(13) 0.18525(15)
H63_2 H 0.520798 0.591497 0.223001
H64_2 H 0.497851 0.634493 0.156818
H65_2 H 0.552933 0.612778 0.205297
C54_2 C 0.56129(10) 0.40642(14) 0.12622(17)
H66_2 H 0.571646 0.418805 0.101184
H67_2 H 0.547072 0.365322 0.111016
H68_2 H 0.589252 0.406035 0.176590
Mg8_2 Mg 0.30167(3) 0.85105(4) 0.01974(4)
O33_2 O 0.20973(6) 0.74070(8) 0.01638(10)
O6 O 0.41907(9) 0.05571(11) 0.35179(13)
H5 H 0.406515 0.091322 0.334316
H6 H 0.427638 0.043761 0.329357
O8 O 0.35594(7) 0.05349(11) 0.38299(12)
H7 H 0.382467 0.070595 0.416776
H8 H 0.348333 0.032416 0.402354
O10 O 0.32216(9) 0.04688(11) 0.23888(12)
H10 H 0.293404 0.050016 0.224191
H11 H 0.317665 0.026866 0.205876
P3_2 P 0.29504(2) 0.97464(3) 0.08721(3)
O13 O 0.30381(6) 0.94371(7) 0.04328(9)
O15_2 O 0.26375(8) 0.93053(8) 0.09185(11)
H16_2 H 0.253879 0.901057 0.064156
O17_2 O 0.33951(7) 0.99409(9) 0.15883(10)
P5_3 P 0.79889(2) 0.79814(3) 0.52469(3)
O14_2 O 0.64222(7) 0.85913(11) 0.47738(12)
H14_2 H 0.631080 0.895832 0.465932
H15_3 H 0.652590 0.854843 0.518700
O16_2 O 0.65006(8) 0.83162(10) 0.37433(11)
H17_2 H 0.625036 0.854376 0.353255
H18_2 H 0.639188 0.795170 0.367614
O18_3 O 0.79930(14) 0.69402(11) 0.67145(16)
H19_3 H 0.775400 0.669389 0.653703
H20_3 H 0.813165 0.696298 0.714868
O20_3 O 0.73285(9) 0.77590(15) 0.65372(13)
H21_3 H 0.750927 0.785231 0.696845
H22_3 H 0.724578 0.738927 0.651579
O22_3 O 0.83282(8) 0.81092(10) 0.72443(11)
H24_3 H 0.849950 0.836730 0.722890
H25_3 H 0.852732 0.780855 0.749175
O24_2 O 0.75436(6) 0.83969(8) 0.48114(10)
O26_3 O 0.81297(7) 0.78258(9) 0.59433(10)
C34_3 C 0.84752(9) 0.84292(11) 0.54356(14)
C35_3 C 0.87059(11) 0.88591(15) 0.59645(17)
H52_3 H 0.862754 0.888445 0.624921
C36_3 C 0.90486(11) 0.92539(14) 0.60900(16)
H53_3 H 0.919433 0.955139 0.645055
C37_3 C 0.91826(9) 0.92232(11) 0.57001(13)
C38_3 C 0.89617(12) 0.87850(14) 0.51842(18)
H54_2 H 0.905182 0.874664 0.491496
C39_3 C 0.86073(11) 0.83941(14) 0.50462(17)
H55_2 H 0.845643 0.810174 0.467986
C48_3 C 0.95511(9) 0.96620(11) 0.58376(13)
H60_2 H 0.871266 0.990530 0.454722
H64_3 H 0.997851 0.865507 0.656818
O32_2 O 0.69619(6) 0.94371(7) 0.45672(9)
O34_2 O 0.74744(6) 0.87152(8) 0.58886(9)
O14_3 O 0.35778(7) 0.85913(11) 0.02262(12)
H14_3 H 0.368920 0.895832 0.034068
O16_3 O 0.34994(8) 0.83162(10) 0.12567(11)
H17_3 H 0.374964 0.854376 0.146745
H18_3 H 0.360812 0.795170 0.132386
O24_3 O 0.24564(6) 0.83969(8) 0.01886(10)
H54_3 H 0.094818 0.874664 0.008504
H55_3 H 0.154357 0.810174 0.032014
H60_3 H 0.128734 0.990530 0.045278
P3_3 P 0.70496(2) 0.97464(3) 0.41279(3)
P6_3 P 0.74832(2) 0.92678(3) 0.62608(3)
O15_3 O 0.73625(8) 0.93053(8) 0.40815(11)
H16_3 H 0.746121 0.901057 0.435844
O17_3 O 0.66049(7) 0.99409(9) 0.34117(10)
O27_3 O 0.72988(7) 0.91570(10) 0.66237(10)
O29_3 O 0.71959(7) 0.98039(9) 0.57174(10)
H26_3 H 0.715047 0.971995 0.535772
H38_3 H 0.807197 0.999733 0.512517
C40_3 C 0.80970(9) 0.95385(11) 0.69019(13)
C41_3 C 0.83461(10) 0.97542(15) 0.67119(14)
H56_3 H 0.818149 0.980141 0.623073
C42_3 C 0.88319(10) 0.99028(14) 0.72120(15)
C43_3 C 0.90828(9) 0.98350(11) 0.79163(13)
C44_3 C 0.88251(10) 0.96559(14) 0.81072(15)
H58_3 H 0.898482 0.963309 0.858841
C45_3 C 0.83397(10) 0.95103(14) 0.76078(15)
H59_3 H 0.817038 0.938937 0.775042
C49_3 C 0.99544(9) 0.95529(11) 0.86001(13)
C50_3 C 0.96118(9) 0.99645(12) 0.84748(13)
C53_3 C 0.97957(10) 0.89921(13) 0.81475(15)
H63_3 H 0.979202 0.908503 0.776999
H65_3 H 0.947067 0.887222 0.794703
P1_2 P 0.45237(3) 0.05025(3) 0.99728(4)
P3_4 P 0.20496(2) 0.52536(3) 0.91279(3)
Mg1_2 Mg 0.36702(4) 0.00347(4) 0.83240(5)
O1_2 O 0.41490(9) 0.05598(9) 0.91716(11)
O2_2 O 0.30770(12) 0.05293(17) 0.79881(16)
H1_2 H 0.296673 0.058551 0.820808
H2_2 H 0.286718 0.073892 0.758703
O4_2 O 0.37616(13) 0.06383(11) 0.77836(14)
H3_2 H 0.407478 0.075062 0.803559
H4_2 H 0.369269 0.046064 0.740617
O13_2 O 0.19619(6) 0.55629(7) 0.95672(9)
O15_4 O 0.23625(8) 0.56947(8) 0.90815(11)
H16_4 H 0.246121 0.598943 0.935844
O17_4 O 0.16049(7) 0.50591(9) 0.84117(10)
H27_2 H 0.363045 0.061532 0.965272
C13_2 C 0.24192(9) 0.45871(11) 0.95835(13)
C14_2 C 0.22034(10) 0.40237(12) 0.94752(15)
H35_2 H 0.186132 0.398831 0.913605
C15_2 C 0.24817(10) 0.35140(12) 0.98565(15)
H36_2 H 0.232906 0.313272 0.977928
C27_2 C 0.33071(11) 0.27327(14) 0.98595(15)
H45_2 H 0.336043 0.316522 0.982538
H46_2 H 0.296438 0.263277 0.948415
H47_2 H 0.350213 0.247526 0.981521
Mg5 Mg 0.50963(3) 0.09539(4) 0.95835(5)
Mg7 Mg 0.19833(3) 0.64895(4) 0.98026(4)
P4_2 P 0.42528(3) 0.21141(3) 0.88204(4)
O9_2 O 0.55349(7) 0.24811(9) 0.99371(10)
H9_2 H 0.526269 0.231071 0.967325
O12_2 O 0.47940(10) 0.08470(11) 0.85786(12)
H12_2 H 0.483954 0.117389 0.843651
H13_2 H 0.494301 0.056453 0.854640
O14_4 O 0.14222(7) 0.64087(11) 0.97738(12)
H14_4 H 0.131080 0.604168 0.965932
O16_4 O 0.15006(8) 0.66838(10) 0.87433(11)
H17_4 H 0.125036 0.645624 0.853255
H18_4 H 0.139188 0.704830 0.867614
O19_2 O 0.47307(7) 0.17835(9) 0.92297(11)
O21_2 O 0.38949(8) 0.17180(10) 0.88092(12)
H23_2 H 0.400483 0.136088 0.894554
O23_2 O 0.40260(9) 0.22933(10) 0.80918(11)
O24_4 O 0.25436(6) 0.66031(8) 0.98114(10)
O25_2 O 0.29027(6) 0.75930(8) 0.98362(10)
C28_2 C 0.43583(10) 0.27975(12) 0.93013(14)
C29_2 C 0.45462(11) 0.33102(13) 0.92383(15)
H48_2 H 0.459015 0.330713 0.891316
C30_2 C 0.46718(10) 0.38299(13) 0.96417(15)
H49_2 H 0.480859 0.417282 0.959915
C33_2 C 0.42893(11) 0.28145(13) 0.97708(16)
H51_2 H 0.416036 0.246679 0.982098
H54_4 H 0.405182 0.625336 0.991496
H55_4 H 0.345643 0.689826 0.967986
C52_2 C 0.38686(10) 0.47093(14) 0.97984(16)
H60_4 H 0.371266 0.509470 0.954722
H61_2 H 0.371639 0.455065 0.996947
H62_2 H 0.383273 0.440938 0.948192
Mg10_2 Mg 0.22694(3) 0.78015(4) 0.87643(4)
O30_2 O 0.54174(7) 0.01364(8) 0.97575(11)
P6_4 P 0.25168(2) 0.92678(3) 0.87392(3)
O27_4 O 0.27012(7) 0.91570(10) 0.83763(10)
O28_2 O 0.25256(6) 0.87152(8) 0.91114(9)
O29_4 O 0.28041(7) 0.98039(9) 0.92826(10)
H26_4 H 0.284953 0.971995 0.964228
H38_4 H 0.192803 0.999733 0.987483
C40_4 C 0.19030(9) 0.95385(11) 0.80981(13)
C41_4 C 0.16539(10) 0.97542(15) 0.82881(14)
H56_4 H 0.181851 0.980141 0.876927
C42_4 C 0.11681(10) 0.99028(14) 0.77880(15)
C43_4 C 0.09172(9) 0.98350(11) 0.70837(13)
C44_4 C 0.11749(10) 0.96559(14) 0.68928(15)
H58_4 H 0.101518 0.963309 0.641159
C45_4 C 0.16603(10) 0.95103(14) 0.73922(15)
H59_4 H 0.182962 0.938937 0.724958
C49_4 C 0.00456(9) 0.95529(11) 0.63999(13)
C50_4 C 0.03882(9) 0.99645(12) 0.65252(13)
C53_4 C 0.02043(10) 0.89921(13) 0.68525(15)
H63_4 H 0.020798 0.908503 0.723001
H65_4 H 0.052933 0.887222 0.705297
P5_4 P 0.20111(2) 0.79814(3) 0.97531(3)
H15_4 H 0.347410 0.854843 0.981300
O18_4 O 0.20070(14) 0.69402(11) 0.82855(16)
H19_4 H 0.224600 0.669389 0.846297
H20_4 H 0.186835 0.696298 0.785132
O20_4 O 0.26715(9) 0.77590(15) 0.84628(13)
H21_4 H 0.249073 0.785231 0.803155
H22_4 H 0.275422 0.738927 0.848421
O22_4 O 0.16718(8) 0.81092(10) 0.77557(11)
H24_4 H 0.150050 0.836730 0.777110
H25_4 H 0.147268 0.780855 0.750825
O26_4 O 0.18703(7) 0.78258(9) 0.90567(10)
C34_4 C 0.15248(9) 0.84292(11) 0.95644(14)
C35_4 C 0.12941(11) 0.88591(15) 0.90355(17)
H52_4 H 0.137246 0.888445 0.875079
C36_4 C 0.09514(11) 0.92539(14) 0.89100(16)
H53_4 H 0.080567 0.955139 0.854945
C37_4 C 0.08174(9) 0.92232(11) 0.92999(13)
C38_4 C 0.10383(12) 0.87850(14) 0.98158(18)
C39_4 C 0.13927(11) 0.83941(14) 0.99538(17)
C48_4 C 0.04489(9) 0.96620(11) 0.91624(13)
H64_4 H 0.002149 0.865507 0.843182
O3 O 0.45826(7) 0.98636(8) 0.02425(11)
Mg6 Mg 0.49037(3) 0.90461(4) 0.04165(5)
P6_5 P 0.74832(2) 0.07322(3) 0.12608(3)
O27_5 O 0.72988(7) 0.08430(10) 0.16237(10)
O28_3 O 0.74744(6) 0.12848(8) 0.08886(9)
O29_5 O 0.71959(7) 0.01961(9) 0.07174(10)
H26_5 H 0.715047 0.028005 0.035772
H38_5 H 0.807197 0.000267 0.012517
C40_5 C 0.80970(9) 0.04615(11) 0.19019(13)
C41_5 C 0.83461(10) 0.02458(15) 0.17119(14)
H56_5 H 0.818149 0.019859 0.123073
C42_5 C 0.88319(10) 0.00972(14) 0.22120(15)
C43_5 C 0.90828(9) 0.01650(11) 0.29163(13)
C44_5 C 0.88251(10) 0.03441(14) 0.31072(15)
H58_5 H 0.898482 0.036691 0.358841
C45_5 C 0.83397(10) 0.04897(14) 0.26078(15)
H59_5 H 0.817038 0.061063 0.275042
C49_5 C 0.99544(9) 0.04471(11) 0.36001(13)
C50_5 C 0.96118(9) 0.00355(12) 0.34748(13)
C53_5 C 0.97957(10) 0.10079(13) 0.31475(15)
H63_5 H 0.979202 0.091497 0.276999
H65_5 H 0.947067 0.112778 0.294703
Mg9_2 Mg 0.77306(3) 0.21985(4) 0.12357(4)
P5_5 P 0.79889(2) 0.20186(3) 0.02469(3)
H15_5 H 0.652590 0.145157 0.018700
O18_5 O 0.79930(14) 0.30598(11) 0.17145(16)
H19_5 H 0.775400 0.330611 0.153703
H20_5 H 0.813165 0.303702 0.214868
O20_5 O 0.73285(9) 0.22410(15) 0.15372(13)
H21_5 H 0.750927 0.214769 0.196845
H22_5 H 0.724578 0.261073 0.151579
O22_5 O 0.83282(8) 0.18908(10) 0.22443(11)
H24_5 H 0.849950 0.163270 0.222890
H25_5 H 0.852732 0.219145 0.249175
O26_5 O 0.81297(7) 0.21742(9) 0.09433(10)
C34_5 C 0.84752(9) 0.15708(11) 0.04356(14)
C35_5 C 0.87059(11) 0.11409(15) 0.09645(17)
H52_5 H 0.862754 0.111555 0.124921
C36_5 C 0.90486(11) 0.07461(14) 0.10900(16)
H53_5 H 0.919433 0.044861 0.145055
C37_5 C 0.91826(9) 0.07768(11) 0.07001(13)
C38_5 C 0.89617(12) 0.12150(14) 0.01842(18)
C39_5 C 0.86073(11) 0.16059(14) 0.00462(17)
C48_5 C 0.95511(9) 0.03380(11) 0.08376(13)
H64_5 H 0.997851 0.134493 0.156818
Mg8_3 Mg 0.80167(3) 0.35105(4) 0.01974(4)
O33_3 O 0.70973(6) 0.24070(8) 0.01638(10)
P1_3 P 0.54763(3) 0.94975(3) 0.00272(4)
P3_5 P 0.79504(2) 0.47464(3) 0.08721(3)
Mg1_3 Mg 0.63298(4) 0.99653(4) 0.16760(5)
O1_3 O 0.58510(9) 0.94402(9) 0.08284(11)
O2_3 O 0.69230(12) 0.94707(17) 0.20119(16)
H1_3 H 0.703327 0.941449 0.179192
H2_3 H 0.713282 0.926108 0.241297
O4_3 O 0.62384(13) 0.93617(11) 0.22164(14)
H3_3 H 0.592522 0.924938 0.196441
H4_3 H 0.630731 0.953936 0.259383
O13_3 O 0.80381(6) 0.44371(7) 0.04328(9)
O15_5 O 0.76375(8) 0.43053(8) 0.09185(11)
H16_5 H 0.753879 0.401057 0.064156
O17_5 O 0.83951(7) 0.49409(9) 0.15883(10)
H27_3 H 0.636955 0.938468 0.034728
C13_3 C 0.75808(9) 0.54129(11) 0.04165(13)
C14_3 C 0.77966(10) 0.59763(12) 0.05248(15)
H35_3 H 0.813868 0.601169 0.086395
C15_3 C 0.75183(10) 0.64860(12) 0.01435(15)
H36_3 H 0.767094 0.686728 0.022072
C27_3 C 0.66929(11) 0.72673(14) 0.01405(15)
H45_3 H 0.663957 0.683478 0.017462
H46_3 H 0.703562 0.736723 0.051585
H47_3 H 0.649787 0.752474 0.018479
P4_3 P 0.57472(3) 0.78859(3) 0.11796(4)
O9_3 O 0.44651(7) 0.75189(9) 0.00629(10)
H9_3 H 0.473731 0.768929 0.032675
O12_3 O 0.52060(10) 0.91530(11) 0.14214(12)
H12_3 H 0.516046 0.882611 0.156349
H13_3 H 0.505699 0.943547 0.145360
O14_5 O 0.85778(7) 0.35913(11) 0.02262(12)
H14_5 H 0.868920 0.395832 0.034068
O16_5 O 0.84994(8) 0.33162(10) 0.12567(11)
H17_5 H 0.874964 0.354376 0.146745
H18_5 H 0.860812 0.295170 0.132386
O19_3 O 0.52693(7) 0.82165(9) 0.07703(11)
O21_3 O 0.61051(8) 0.82820(10) 0.11908(12)
H23_3 H 0.599517 0.863912 0.105446
O23_3 O 0.59740(9) 0.77067(10) 0.19082(11)
O24_5 O 0.74564(6) 0.33969(8) 0.01886(10)
C28_3 C 0.56417(10) 0.72025(12) 0.06987(14)
C29_3 C 0.54538(11) 0.66898(13) 0.07617(15)
H48_3 H 0.540985 0.669287 0.108684
C30_3 C 0.53282(10) 0.61701(13) 0.03583(15)
H49_3 H 0.519141 0.582718 0.040085
C33_3 C 0.57107(11) 0.71855(13) 0.02292(16)
H51_3 H 0.583964 0.753321 0.017902
H54_5 H 0.594818 0.374664 0.008504
H55_5 H 0.654357 0.310174 0.032014
C52_3 C 0.61314(10) 0.52907(14) 0.02016(16)
H60_5 H 0.628734 0.490530 0.045278
H61_3 H 0.628361 0.544935 0.003053
H62_3 H 0.616727 0.559062 0.051808
O6_2 O 0.41907(9) 0.94429(11) 0.85179(13)
H5_2 H 0.406515 0.908678 0.834316
H6_2 H 0.427638 0.956239 0.829357
O8_2 O 0.35594(7) 0.94651(11) 0.88299(12)
H7_2 H 0.382467 0.929405 0.916776
H8_2 H 0.348333 0.967584 0.902354
O10_2 O 0.32216(9) 0.95312(11) 0.73888(12)
H10_2 H 0.293404 0.949984 0.724191
H11_2 H 0.317665 0.973134 0.705876
O3_2 O 0.54174(7) 0.98636(8) 0.47575(11)
O6_3 O 0.58093(9) 0.94429(11) 0.64821(13)
H5_3 H 0.593485 0.908678 0.665684
H6_3 H 0.572362 0.956239 0.670643
O8_3 O 0.64406(7) 0.94651(11) 0.61701(12)
H7_3 H 0.617533 0.929405 0.583224
H8_3 H 0.651667 0.967584 0.597646
O10_3 O 0.67784(9) 0.95312(11) 0.76112(12)
H10_3 H 0.706596 0.949984 0.775809
H11_3 H 0.682335 0.973134 0.794124
Mg6_2 Mg 0.50963(3) 0.90461(4) 0.45835(5)
P5_6 P 0.20111(2) 0.20186(3) 0.47531(3)
Mg3_2 Mg 0.30167(3) 0.14895(4) 0.51974(4)
Mg4_2 Mg 0.22694(3) 0.21985(4) 0.37643(4)
O14_6 O 0.35778(7) 0.14087(11) 0.52262(12)
H14_6 H 0.368920 0.104168 0.534068
H15_6 H 0.347410 0.145157 0.481300
O16_6 O 0.34994(8) 0.16838(10) 0.62567(11)
H17_6 H 0.374964 0.145624 0.646745
H18_6 H 0.360812 0.204830 0.632386
O18_6 O 0.20070(14) 0.30598(11) 0.32855(16)
H19_6 H 0.224600 0.330611 0.346297
H20_6 H 0.186835 0.303702 0.285132
O20_6 O 0.26715(9) 0.22410(15) 0.34628(13)
H21_6 H 0.249073 0.214769 0.303155
H22_6 H 0.275422 0.261073 0.348421
O22_6 O 0.16718(8) 0.18908(10) 0.27557(11)
H24_6 H 0.150050 0.163270 0.277110
H25_6 H 0.147268 0.219145 0.250825
O24_6 O 0.24564(6) 0.16031(8) 0.51886(10)
O25_3 O 0.20973(6) 0.25930(8) 0.51638(10)
O26_6 O 0.18703(7) 0.21742(9) 0.40567(10)
C34_6 C 0.15248(9) 0.15708(11) 0.45644(14)
C35_6 C 0.12941(11) 0.11409(15) 0.40355(17)
H52_6 H 0.137246 0.111555 0.375079
C36_6 C 0.09514(11) 0.07461(14) 0.39100(16)
H53_6 H 0.080567 0.044861 0.354945
C37_6 C 0.08174(9) 0.07768(11) 0.42999(13)
C38_6 C 0.10383(12) 0.12150(14) 0.48158(18)
H54_6 H 0.094818 0.125336 0.508504
C39_6 C 0.13927(11) 0.16059(14) 0.49538(17)
H55_6 H 0.154357 0.189826 0.532014
C48_6 C 0.04489(9) 0.03380(11) 0.41624(13)
H60_6 H 0.128734 0.009470 0.545278
H64_6 H 0.002149 0.134493 0.343182
Mg8_4 Mg 0.19833(3) 0.35105(4) 0.48026(4)
Mg10_3 Mg 0.27306(3) 0.28015(4) 0.62357(4)
O32_3 O 0.30381(6) 0.05629(7) 0.54328(9)
O33_4 O 0.29027(6) 0.24070(8) 0.48362(10)
O34_3 O 0.25256(6) 0.12848(8) 0.41114(9)
P3_6 P 0.70496(2) 0.02536(3) 0.91279(3)
O13_4 O 0.69619(6) 0.05629(7) 0.95672(9)
O15_6 O 0.73625(8) 0.06947(8) 0.90815(11)
H16_6 H 0.746121 0.098943 0.935844
O17_6 O 0.66049(7) 0.00591(9) 0.84117(10)
Mg7_2 Mg 0.69833(3) 0.14895(4) 0.98026(4)
P3_7 P 0.29504(2) 0.02536(3) 0.58721(3)
P6_6 P 0.25168(2) 0.07322(3) 0.37392(3)
O15_7 O 0.26375(8) 0.06947(8) 0.59185(11)
H16_7 H 0.253879 0.098943 0.564156
O17_7 O 0.33951(7) 0.00591(9) 0.65883(10)
O27_6 O 0.27012(7) 0.08430(10) 0.33763(10)
O29_6 O 0.28041(7) 0.01961(9) 0.42826(10)
H26_6 H 0.284953 0.028005 0.464228
H38_6 H 0.192803 0.000267 0.487483
C40_6 C 0.19030(9) 0.04615(11) 0.30981(13)
C41_6 C 0.16539(10) 0.02458(15) 0.32881(14)
H56_6 H 0.181851 0.019859 0.376927
C42_6 C 0.11681(10) 0.00972(14) 0.27880(15)
C43_6 C 0.09172(9) 0.01650(11) 0.20837(13)
C44_6 C 0.11749(10) 0.03441(14) 0.18928(15)
H58_6 H 0.101518 0.036691 0.141159
C45_6 C 0.16603(10) 0.04897(14) 0.23922(15)
H59_6 H 0.182962 0.061063 0.224958
C49_6 C 0.00456(9) 0.04471(11) 0.13999(13)
C50_6 C 0.03882(9) 0.00355(12) 0.15252(13)
C53_6 C 0.02043(10) 0.10079(13) 0.18525(15)
H63_6 H 0.020798 0.091497 0.223001
H65_6 H 0.052933 0.112778 0.205297
O14_7 O 0.64222(7) 0.14087(11) 0.97738(12)
H14_7 H 0.631080 0.104168 0.965932
O16_7 O 0.65006(8) 0.16838(10) 0.87433(11)
H17_7 H 0.625036 0.145624 0.853255
H18_7 H 0.639188 0.204830 0.867614
O24_7 O 0.75436(6) 0.16031(8) 0.98114(10)
O25_4 O 0.79027(6) 0.25930(8) 0.98362(10)
H54_7 H 0.905182 0.125336 0.991496
H55_7 H 0.845643 0.189826 0.967986
H60_7 H 0.871266 0.009470 0.954722
Mg10_4 Mg 0.72694(3) 0.28015(4) 0.87643(4)
P2_3 P 0.59326(2) 0.79998(3) 0.54793(3)
P4_4 P 0.42528(3) 0.78859(3) 0.38204(4)
P5_7 P 0.29889(2) 0.29814(3) 0.52469(3)
P6_7 P 0.75168(2) 0.42678(3) 0.87392(3)
O5_2 O 0.50049(8) 0.92162(9) 0.97600(13)
O7_3 O 0.57265(6) 0.86337(8) 0.52040(9)
O9_4 O 0.55349(7) 0.75189(9) 0.49371(10)
H9_4 H 0.526269 0.768929 0.467325
O11_3 O 0.63874(7) 0.78828(9) 0.56218(11)
O12_4 O 0.47940(10) 0.91530(11) 0.35786(12)
H12_4 H 0.483954 0.882611 0.343651
H13_4 H 0.494301 0.943547 0.354640
O14_8 O 0.14222(7) 0.35913(11) 0.47738(12)
H14_8 H 0.131080 0.395832 0.465932
H15_7 H 0.152590 0.354843 0.518700
O16_8 O 0.15006(8) 0.33162(10) 0.37433(11)
H17_8 H 0.125036 0.354376 0.353255
H18_8 H 0.139188 0.295170 0.367614
O18_7 O 0.29930(14) 0.19402(11) 0.67145(16)
H19_7 H 0.275400 0.169389 0.653703
H20_7 H 0.313165 0.196298 0.714868
O19_4 O 0.47307(7) 0.82165(9) 0.42297(11)
O20_7 O 0.23285(9) 0.27590(15) 0.65372(13)
H21_7 H 0.250927 0.285231 0.696845
H22_7 H 0.224578 0.238927 0.651579
O21_4 O 0.38949(8) 0.82820(10) 0.38092(12)
H23_4 H 0.400483 0.863912 0.394554
O22_7 O 0.33282(8) 0.31092(10) 0.72443(11)
H24_7 H 0.349950 0.336730 0.722890
H25_7 H 0.352732 0.280855 0.749175
O23_4 O 0.40260(9) 0.77067(10) 0.30918(11)
O24_8 O 0.25436(6) 0.33969(8) 0.48114(10)
O26_7 O 0.31297(7) 0.28258(9) 0.59433(10)
O27_7 O 0.77012(7) 0.41570(10) 0.83763(10)
O28_4 O 0.75256(6) 0.37152(8) 0.91114(9)
O29_7 O 0.78041(7) 0.48039(9) 0.92826(10)
H26_7 H 0.784953 0.471995 0.964228
C1_3 C 0.56945(9) 0.90257(11) 0.97091(13)
C2_3 C 0.61659(11) 0.90873(17) 0.99933(19)
C3_3 C 0.63463(11) 0.87221(17) 0.97703(19)
H28_3 H 0.667283 0.876819 0.997726
C4_3 C 0.60559(9) 0.82908(11) 0.92494(13)
C5_3 C 0.55834(10) 0.82343(12) 0.89594(14)
H29_3 H 0.537788 0.794243 0.859905
C6_3 C 0.54039(9) 0.85979(12) 0.91869(14)
H30_3 H 0.507756 0.855163 0.898084
C7_3 C 0.60359(9) 0.78823(11) 0.62663(13)
C8_3 C 0.56764(10) 0.76538(12) 0.62444(14)
H31_3 H 0.536883 0.755324 0.580762
C9_3 C 0.57641(10) 0.75716(13) 0.68571(15)
H32_3 H 0.551475 0.741435 0.683375
C10_3 C 0.62080(10) 0.77143(11) 0.75017(13)
C11_3 C 0.65635(10) 0.79585(13) 0.75211(15)
H33_3 H 0.686686 0.807263 0.795690
C12_3 C 0.64796(10) 0.80374(13) 0.69099(15)
H34_3 H 0.672777 0.819865 0.693247
C16_3 C 0.70188(9) 0.64450(11) 0.96501(13)
C17_3 C 0.68020(10) 0.58887(12) 0.95583(14)
H37_3 H 0.645959 0.585780 0.923104
C18_3 C 0.70809(10) 0.53753(12) 0.99405(14)
H38_7 H 0.692803 0.499733 0.987483
C19_3 C 0.62510(9) 0.78780(11) 0.90180(13)
C20_3 C 0.61352(9) 0.79906(11) 0.83824(13)
C21_3 C 0.63163(9) 0.75944(11) 0.81705(13)
C22_3 C 0.66022(10) 0.70905(11) 0.85802(14)
C23_3 C 0.67164(9) 0.69877(11) 0.92133(13)
C24_3 C 0.65477(9) 0.73831(12) 0.94425(13)
C25_3 C 0.58291(11) 0.85351(13) 0.79373(15)
H39_3 H 0.596563 0.872995 0.775740
H40_3 H 0.549884 0.839831 0.754509
H41_3 H 0.582404 0.883056 0.822025
C26_3 C 0.67867(12) 0.66531(13) 0.83419(16)
H42_3 H 0.654807 0.662212 0.783093
H43_3 H 0.709237 0.680763 0.849487
H44_3 H 0.683856 0.624744 0.854608
C28_4 C 0.43583(10) 0.72025(12) 0.43013(14)
C29_4 C 0.45462(11) 0.66898(13) 0.42383(15)
H48_4 H 0.459015 0.669287 0.391316
C30_4 C 0.46718(10) 0.61701(13) 0.46417(15)
H49_4 H 0.480859 0.582718 0.459915
C31_3 C 0.45981(9) 0.61490(12) 0.51086(14)
C32_3 C 0.44075(10) 0.66631(13) 0.51688(16)
H50_3 H 0.435691 0.665831 0.548656
C33_4 C 0.42893(11) 0.71855(13) 0.47708(16)
H51_4 H 0.416036 0.753321 0.482098
C34_7 C 0.34752(9) 0.34292(11) 0.54356(14)
C35_7 C 0.37059(11) 0.38591(15) 0.59645(17)
H52_7 H 0.362754 0.388445 0.624921
C36_7 C 0.40486(11) 0.42539(14) 0.60900(16)
H53_7 H 0.419433 0.455139 0.645055
C37_7 C 0.41826(9) 0.42232(11) 0.57001(13)
C38_7 C 0.39617(12) 0.37850(14) 0.51842(18)
H54_8 H 0.405182 0.374664 0.491496
C39_7 C 0.36073(11) 0.33941(14) 0.50462(17)
H55_8 H 0.345643 0.310174 0.467986
C40_7 C 0.69030(9) 0.45385(11) 0.80981(13)
C41_7 C 0.66539(10) 0.47542(15) 0.82881(14)
H56_7 H 0.681851 0.480141 0.876927
C42_7 C 0.61681(10) 0.49028(14) 0.77880(15)
H57_3 H 0.600502 0.505329 0.793095
C43_7 C 0.59172(9) 0.48350(11) 0.70837(13)
C44_7 C 0.61749(10) 0.46559(14) 0.68928(15)
H58_7 H 0.601518 0.463309 0.641159
C45_7 C 0.66603(10) 0.45103(14) 0.73922(15)
H59_7 H 0.682962 0.438937 0.724958
C46_3 C 0.47457(9) 0.55920(11) 0.55512(14)
C47_3 C 0.43998(9) 0.51777(12) 0.54105(14)
C48_7 C 0.45511(9) 0.46620(11) 0.58376(13)
C49_7 C 0.50456(9) 0.45529(11) 0.63999(13)
C50_7 C 0.53882(9) 0.49645(12) 0.65252(13)
C51_3 C 0.52395(9) 0.54849(12) 0.61051(14)
C52_4 C 0.38686(10) 0.52907(14) 0.47984(16)
H60_8 H 0.371266 0.490530 0.454722
H61_4 H 0.371639 0.544935 0.496947
H62_4 H 0.383273 0.559062 0.448192
C53_7 C 0.52043(10) 0.39921(13) 0.68525(15)
H63_7 H 0.520798 0.408503 0.723001
H64_7 H 0.497851 0.365507 0.656818
H65_7 H 0.552933 0.387222 0.705297
C54_3 C 0.56129(10) 0.59358(14) 0.62622(17)
H66_3 H 0.571646 0.581195 0.601184
H67_3 H 0.547072 0.634678 0.611016
H68_3 H 0.589252 0.593965 0.676590
O31_2 O 0.49951(8) 0.92162(9) 0.52400(13)
O32_4 O 0.19619(6) 0.44371(7) 0.45672(9)
O34_4 O 0.24744(6) 0.37152(8) 0.58886(9)
P1_4 P 0.45237(3) 0.94975(3) 0.49728(4)
P2_4 P 0.40674(2) 0.79998(3) 0.95207(3)
P3_8 P 0.20496(2) 0.47464(3) 0.41279(3)
P5_8 P 0.70111(2) 0.29814(3) 0.97531(3)
P6_8 P 0.24832(2) 0.42678(3) 0.62608(3)
Mg1_4 Mg 0.36702(4) 0.99653(4) 0.33240(5)
O1_4 O 0.41490(9) 0.94402(9) 0.41716(11)
O2_4 O 0.30770(12) 0.94707(17) 0.29881(16)
H1_4 H 0.296673 0.941449 0.320808
H2_4 H 0.286718 0.926108 0.258703
O4_4 O 0.37616(13) 0.93617(11) 0.27836(14)
H3_4 H 0.407478 0.924938 0.303559
H4_4 H 0.369269 0.953936 0.240617
O7_4 O 0.42735(6) 0.86337(8) 0.97960(9)
O11_4 O 0.36126(7) 0.78828(9) 0.93782(11)
H15_8 H 0.847410 0.354843 0.981300
O15_8 O 0.23625(8) 0.43053(8) 0.40815(11)
H16_8 H 0.246121 0.401057 0.435844
O17_8 O 0.16049(7) 0.49409(9) 0.34117(10)
O18_8 O 0.70070(14) 0.19402(11) 0.82855(16)
H19_8 H 0.724600 0.169389 0.846297
H20_8 H 0.686835 0.196298 0.785132
O20_8 O 0.76715(9) 0.27590(15) 0.84628(13)
H21_8 H 0.749073 0.285231 0.803155
H22_8 H 0.775422 0.238927 0.848421
O22_8 O 0.66718(8) 0.31092(10) 0.77557(11)
H24_8 H 0.650050 0.336730 0.777110
H25_8 H 0.647268 0.280855 0.750825
O26_8 O 0.68703(7) 0.28258(9) 0.90567(10)
O27_8 O 0.22988(7) 0.41570(10) 0.66237(10)
O29_8 O 0.21959(7) 0.48039(9) 0.57174(10)
H26_8 H 0.215047 0.471995 0.535772
C1_4 C 0.43055(9) 0.90257(11) 0.52909(13)
C2_4 C 0.38341(11) 0.90873(17) 0.50067(19)
H27_4 H 0.363045 0.938468 0.465272
C3_4 C 0.36537(11) 0.87221(17) 0.52297(19)
H28_4 H 0.332717 0.876819 0.502274
C4_4 C 0.39441(9) 0.82908(11) 0.57506(13)
C5_4 C 0.44166(10) 0.82343(12) 0.60406(14)
H29_4 H 0.462212 0.794243 0.640095
C6_4 C 0.45961(9) 0.85979(12) 0.58131(14)
H30_4 H 0.492244 0.855163 0.601916
C7_4 C 0.39641(9) 0.78823(11) 0.87337(13)
C8_4 C 0.43236(10) 0.76538(12) 0.87556(14)
H31_4 H 0.463117 0.755324 0.919238
C9_4 C 0.42359(10) 0.75716(13) 0.81429(15)
H32_4 H 0.448525 0.741435 0.816625
C10_4 C 0.37920(10) 0.77143(11) 0.74983(13)
C11_4 C 0.34365(10) 0.79585(13) 0.74789(15)
H33_4 H 0.313314 0.807263 0.704310
C12_4 C 0.35204(10) 0.80374(13) 0.80901(15)
H34_4 H 0.327223 0.819865 0.806753
C13_4 C 0.24192(9) 0.54129(11) 0.45835(13)
C14_4 C 0.22034(10) 0.59763(12) 0.44752(15)
H35_4 H 0.186132 0.601169 0.413605
C15_4 C 0.24817(10) 0.64860(12) 0.48565(15)
H36_4 H 0.232906 0.686728 0.477928
C16_4 C 0.29812(9) 0.64450(11) 0.53499(13)
C17_4 C 0.31980(10) 0.58887(12) 0.54417(14)
H37_4 H 0.354041 0.585780 0.576896
C18_4 C 0.29191(10) 0.53753(12) 0.50595(14)
H38_8 H 0.307197 0.499733 0.512517
C19_4 C 0.37490(9) 0.78780(11) 0.59820(13)
C20_4 C 0.38648(9) 0.79906(11) 0.66176(13)
C21_4 C 0.36837(9) 0.75944(11) 0.68295(13)
C22_4 C 0.33978(10) 0.70905(11) 0.64198(14)
C23_4 C 0.32836(9) 0.69877(11) 0.57867(13)
C24_4 C 0.34523(9) 0.73831(12) 0.55575(13)
C25_4 C 0.41709(11) 0.85351(13) 0.70627(15)
H39_4 H 0.403437 0.872995 0.724260
H40_4 H 0.450116 0.839831 0.745491
H41_4 H 0.417596 0.883056 0.677975
C26_4 C 0.32133(12) 0.66531(13) 0.66581(16)
H42_4 H 0.345193 0.662212 0.716907
H43_4 H 0.290763 0.680763 0.650513
H44_4 H 0.316144 0.624744 0.645392
C27_4 C 0.33071(11) 0.72673(14) 0.48595(15)
H45_4 H 0.336043 0.683478 0.482538
H46_4 H 0.296438 0.736723 0.448415
H47_4 H 0.350213 0.752474 0.481521
C31_4 C 0.54019(9) 0.61490(12) 0.98914(14)
C32_4 C 0.55925(10) 0.66631(13) 0.98312(16)
H50_4 H 0.564309 0.665831 0.951344
C34_8 C 0.65248(9) 0.34292(11) 0.95644(14)
C35_8 C 0.62941(11) 0.38591(15) 0.90355(17)
H52_8 H 0.637246 0.388445 0.875079
C36_8 C 0.59514(11) 0.42539(14) 0.89100(16)
H53_8 H 0.580567 0.455139 0.854945
C37_8 C 0.58174(9) 0.42232(11) 0.92999(13)
C38_8 C 0.60383(12) 0.37850(14) 0.98158(18)
C39_8 C 0.63927(11) 0.33941(14) 0.99538(17)
C40_8 C 0.30970(9) 0.45385(11) 0.69019(13)
C41_8 C 0.33461(10) 0.47542(15) 0.67119(14)
H56_8 H 0.318149 0.480141 0.623073
C42_8 C 0.38319(10) 0.49028(14) 0.72120(15)
H57_4 H 0.399498 0.505329 0.706905
C43_8 C 0.40828(9) 0.48350(11) 0.79163(13)
C44_8 C 0.38251(10) 0.46559(14) 0.81072(15)
H58_8 H 0.398482 0.463309 0.858841
C45_8 C 0.33397(10) 0.45103(14) 0.76078(15)
H59_8 H 0.317038 0.438937 0.775042
C46_4 C 0.52543(9) 0.55920(11) 0.94488(14)
C47_4 C 0.56002(9) 0.51777(12) 0.95895(14)
C48_8 C 0.54489(9) 0.46620(11) 0.91624(13)
C49_8 C 0.49544(9) 0.45529(11) 0.86001(13)
C50_8 C 0.46118(9) 0.49645(12) 0.84748(13)
C51_4 C 0.47605(9) 0.54849(12) 0.88949(14)
C53_8 C 0.47957(10) 0.39921(13) 0.81475(15)
H63_8 H 0.479202 0.408503 0.776999
H64_8 H 0.502149 0.365507 0.843182
H65_8 H 0.447067 0.387222 0.794703
C54_4 C 0.43871(10) 0.59358(14) 0.87378(17)
H66_4 H 0.428354 0.581195 0.898816
H67_4 H 0.452928 0.634678 0.888984
H68_4 H 0.410748 0.593965 0.823410
P4_5 P 0.07472(3) 0.71141(3) 0.61796(4)
O12_5 O 0.02060(10) 0.58470(11) 0.64214(12)
H12_5 H 0.016046 0.617389 0.656349
H13_5 H 0.005699 0.556453 0.645360
O19_5 O 0.02693(7) 0.67835(9) 0.57703(11)
O21_5 O 0.11051(8) 0.67180(10) 0.61908(12)
H23_5 H 0.099517 0.636088 0.605446
O23_5 O 0.09740(9) 0.72933(10) 0.69082(11)
C28_5 C 0.06417(10) 0.77975(12) 0.56987(14)
C29_5 C 0.04538(11) 0.83102(13) 0.57617(15)
H48_5 H 0.040985 0.830713 0.608684
C30_5 C 0.03282(10) 0.88299(13) 0.53583(15)
H49_5 H 0.019141 0.917282 0.540085
C31_5 C 0.04019(9) 0.88510(12) 0.48914(14)
C32_5 C 0.05925(10) 0.83369(13) 0.48312(16)
H50_5 H 0.064309 0.834169 0.451344
C33_5 C 0.07107(11) 0.78145(13) 0.52292(16)
H51_5 H 0.083964 0.746679 0.517902
C46_5 C 0.02543(9) 0.94080(11) 0.44488(14)
C47_5 C 0.06002(9) 0.98223(12) 0.45895(14)
C52_5 C 0.11314(10) 0.97093(14) 0.52016(16)
H61_5 H 0.128361 0.955065 0.503053
H62_5 H 0.116727 0.940938 0.551808
O31_3 O 0.00049(8) 0.57838(9) 0.47600(13)
Mg5_2 Mg 0.00963(3) 0.59539(4) 0.95835(5)
P1_5 P 0.04763(3) 0.55025(3) 0.50272(4)
P2_5 P 0.09326(2) 0.70002(3) 0.04793(3)
Mg1_5 Mg 0.13298(4) 0.50347(4) 0.66760(5)
O1_5 O 0.08510(9) 0.55598(9) 0.58284(11)
O2_5 O 0.19230(12) 0.55293(17) 0.70119(16)
H1_5 H 0.203327 0.558551 0.679192
H2_5 H 0.213282 0.573892 0.741297
O3_3 O 0.04174(7) 0.48636(8) 0.47575(11)
O4_5 O 0.12384(13) 0.56383(11) 0.72164(14)
H3_5 H 0.092522 0.575062 0.696441
H4_5 H 0.130731 0.546064 0.759383
O6_4 O 0.08093(9) 0.44429(11) 0.64821(13)
H5_4 H 0.093485 0.408678 0.665684
H6_4 H 0.072362 0.456239 0.670643
O7_5 O 0.07265(6) 0.63663(8) 0.02040(9)
O8_4 O 0.14406(7) 0.44651(11) 0.61701(12)
H7_4 H 0.117533 0.429405 0.583224
H8_4 H 0.151667 0.467584 0.597646
O10_4 O 0.17784(9) 0.45312(11) 0.76112(12)
H10_4 H 0.206596 0.449984 0.775809
H11_4 H 0.182335 0.473134 0.794124
O11_5 O 0.13874(7) 0.71172(9) 0.06218(11)
C1_5 C 0.06945(9) 0.59743(11) 0.47091(13)
C2_5 C 0.11659(11) 0.59127(17) 0.49933(19)
H27_5 H 0.136955 0.561532 0.534728
C3_5 C 0.13463(11) 0.62779(17) 0.47703(19)
H28_5 H 0.167283 0.623181 0.497726
C4_5 C 0.10559(9) 0.67092(11) 0.42494(13)
C5_5 C 0.05834(10) 0.67657(12) 0.39594(14)
H29_5 H 0.037788 0.705757 0.359905
C6_5 C 0.04039(9) 0.64021(12) 0.41869(14)
H30_5 H 0.007756 0.644837 0.398084
C7_5 C 0.10359(9) 0.71177(11) 0.12663(13)
C8_5 C 0.06764(10) 0.73462(12) 0.12444(14)
H31_5 H 0.036883 0.744676 0.080762
C9_5 C 0.07641(10) 0.74284(13) 0.18571(15)
H32_5 H 0.051475 0.758565 0.183375
C10_5 C 0.12080(10) 0.72857(11) 0.25017(13)
C11_5 C 0.15635(10) 0.70415(13) 0.25211(15)
H33_5 H 0.186686 0.692737 0.295690
C12_5 C 0.14796(10) 0.69626(13) 0.19099(15)
H34_5 H 0.172777 0.680135 0.193247
C13_5 C 0.25808(9) 0.95871(11) 0.54165(13)
C14_5 C 0.27966(10) 0.90237(12) 0.55248(15)
H35_5 H 0.313868 0.898831 0.586395
C15_5 C 0.25183(10) 0.85140(12) 0.51435(15)
H36_5 H 0.267094 0.813272 0.522072
C16_5 C 0.20188(9) 0.85550(11) 0.46501(13)
C17_5 C 0.18020(10) 0.91113(12) 0.45583(14)
H37_5 H 0.145959 0.914220 0.423104
C18_5 C 0.20809(10) 0.96247(12) 0.49405(14)
C19_5 C 0.12510(9) 0.71220(11) 0.40180(13)
C20_5 C 0.11352(9) 0.70094(11) 0.33824(13)
C21_5 C 0.13163(9) 0.74056(11) 0.31705(13)
C22_5 C 0.16022(10) 0.79095(11) 0.35802(14)
C23_5 C 0.17164(9) 0.80123(11) 0.42133(13)
C24_5 C 0.15477(9) 0.76169(12) 0.44425(13)
C25_5 C 0.08291(11) 0.64649(13) 0.29373(15)
H39_5 H 0.096563 0.627005 0.275740
H40_5 H 0.049884 0.660169 0.254509
H41_5 H 0.082404 0.616944 0.322025
C26_5 C 0.17867(12) 0.83469(13) 0.33419(16)
H42_5 H 0.154807 0.837788 0.283093
H43_5 H 0.209237 0.819237 0.349487
H44_5 H 0.183856 0.875256 0.354608
C27_5 C 0.16929(11) 0.77327(14) 0.51405(15)
H45_5 H 0.163957 0.816522 0.517462
H46_5 H 0.203562 0.763277 0.551585
H47_5 H 0.149787 0.747526 0.518479
H57_5 H 0.100502 0.994671 0.293095
C51_5 C 0.02395(9) 0.95151(12) 0.11051(14)
C54_5 C 0.06129(10) 0.90642(14) 0.12622(17)
H66_5 H 0.071646 0.918805 0.101184
H67_5 H 0.047072 0.865322 0.111016
H68_5 H 0.089252 0.906035 0.176590
Mg6_3 Mg 0.00963(3) 0.40461(4) 0.45835(5)
O9_5 O 0.05349(7) 0.74811(9) 0.99371(10)
H9_5 H 0.026269 0.731071 0.967325
O30_3 O 0.04174(7) 0.51364(8) 0.97575(11)
P2_6 P 0.09326(2) 0.29998(3) 0.54793(3)
O5_3 O 0.00049(8) 0.42162(9) 0.97600(13)
O7_6 O 0.07265(6) 0.36337(8) 0.52040(9)
O9_6 O 0.05349(7) 0.25189(9) 0.49371(10)
H9_6 H 0.026269 0.268929 0.467325
O11_6 O 0.13874(7) 0.28828(9) 0.56218(11)
C1_6 C 0.06945(9) 0.40257(11) 0.97091(13)
C2_6 C 0.11659(11) 0.40873(17) 0.99933(19)
C3_6 C 0.13463(11) 0.37221(17) 0.97703(19)
H28_6 H 0.167283 0.376819 0.997726
C4_6 C 0.10559(9) 0.32908(11) 0.92494(13)
C5_6 C 0.05834(10) 0.32343(12) 0.89594(14)
H29_6 H 0.037788 0.294243 0.859905
C6_6 C 0.04039(9) 0.35979(12) 0.91869(14)
H30_6 H 0.007756 0.355163 0.898084
C7_6 C 0.10359(9) 0.28823(11) 0.62663(13)
C8_6 C 0.06764(10) 0.26538(12) 0.62444(14)
H31_6 H 0.036883 0.255324 0.580762
C9_6 C 0.07641(10) 0.25716(13) 0.68571(15)
H32_6 H 0.051475 0.241435 0.683375
C10_6 C 0.12080(10) 0.27143(11) 0.75017(13)
C11_6 C 0.15635(10) 0.29585(13) 0.75211(15)
H33_6 H 0.186686 0.307263 0.795690
C12_6 C 0.14796(10) 0.30374(13) 0.69099(15)
H34_6 H 0.172777 0.319865 0.693247
C16_6 C 0.20188(9) 0.14450(11) 0.96501(13)
C17_6 C 0.18020(10) 0.08887(12) 0.95583(14)
H37_6 H 0.145959 0.085780 0.923104
C18_6 C 0.20809(10) 0.03753(12) 0.99405(14)
C19_6 C 0.12510(9) 0.28780(11) 0.90180(13)
C20_6 C 0.11352(9) 0.29906(11) 0.83824(13)
C21_6 C 0.13163(9) 0.25944(11) 0.81705(13)
C22_6 C 0.16022(10) 0.20905(11) 0.85802(14)
C23_6 C 0.17164(9) 0.19877(11) 0.92133(13)
C24_6 C 0.15477(9) 0.23831(12) 0.94425(13)
C25_6 C 0.08291(11) 0.35351(13) 0.79373(15)
H39_6 H 0.096563 0.372995 0.775740
H40_6 H 0.049884 0.339831 0.754509
H41_6 H 0.082404 0.383056 0.822025
C26_6 C 0.17867(12) 0.16531(13) 0.83419(16)
H42_6 H 0.154807 0.162212 0.783093
H43_6 H 0.209237 0.180763 0.849487
H44_6 H 0.183856 0.124744 0.854608
H57_6 H 0.100502 0.005329 0.793095
C51_6 C 0.02395(9) 0.04849(12) 0.61051(14)
C54_6 C 0.06129(10) 0.09358(14) 0.62622(17)
H66_6 H 0.071646 0.081195 0.601184
H67_6 H 0.047072 0.134678 0.611016
H68_6 H 0.089252 0.093965 0.676590
C31_6 C 0.04019(9) 0.11490(12) 0.98914(14)
C32_6 C 0.05925(10) 0.16631(13) 0.98312(16)
H50_6 H 0.064309 0.165831 0.951344
C46_6 C 0.02543(9) 0.05920(11) 0.94488(14)
C47_6 C 0.06002(9) 0.01777(12) 0.95895(14)
P2_7 P 0.90674(2) 0.70002(3) 0.45207(3)
Mg2_2 Mg 0.99037(3) 0.59539(4) 0.54165(5)
O3_4 O 0.95826(7) 0.48636(8) 0.02425(11)
O5_4 O 0.99951(8) 0.57838(9) 0.02400(13)
O7_7 O 0.92735(6) 0.63663(8) 0.47960(9)
O9_7 O 0.94651(7) 0.74811(9) 0.50629(10)
H9_7 H 0.973731 0.731071 0.532675
O11_7 O 0.86126(7) 0.71172(9) 0.43782(11)
C1_7 C 0.93055(9) 0.59743(11) 0.02909(13)
C2_7 C 0.88341(11) 0.59127(17) 0.00067(19)
C3_7 C 0.86537(11) 0.62779(17) 0.02297(19)
H28_7 H 0.832717 0.623181 0.002274
C4_7 C 0.89441(9) 0.67092(11) 0.07506(13)
C5_7 C 0.94166(10) 0.67657(12) 0.10406(14)
H29_7 H 0.962212 0.705757 0.140095
C6_7 C 0.95961(9) 0.64021(12) 0.08131(14)
H30_7 H 0.992244 0.644837 0.101916
C7_7 C 0.89641(9) 0.71177(11) 0.37337(13)
C8_7 C 0.93236(10) 0.73462(12) 0.37556(14)
H31_7 H 0.963117 0.744676 0.419238
C9_7 C 0.92359(10) 0.74284(13) 0.31429(15)
H32_7 H 0.948525 0.758565 0.316625
C10_7 C 0.87920(10) 0.72857(11) 0.24983(13)
C11_7 C 0.84365(10) 0.70415(13) 0.24789(15)
H33_7 H 0.813314 0.692737 0.204310
C12_7 C 0.85204(10) 0.69626(13) 0.30901(15)
H34_7 H 0.827223 0.680135 0.306753
C16_7 C 0.79812(9) 0.85550(11) 0.03499(13)
C17_7 C 0.81980(10) 0.91113(12) 0.04417(14)
H37_7 H 0.854041 0.914220 0.076896
C18_7 C 0.79191(10) 0.96247(12) 0.00595(14)
C19_7 C 0.87490(9) 0.71220(11) 0.09820(13)
C20_7 C 0.88648(9) 0.70094(11) 0.16176(13)
C21_7 C 0.86837(9) 0.74056(11) 0.18295(13)
C22_7 C 0.83978(10) 0.79095(11) 0.14198(14)
C23_7 C 0.82836(9) 0.80123(11) 0.07867(13)
C24_7 C 0.84523(9) 0.76169(12) 0.05575(13)
C25_7 C 0.91709(11) 0.64649(13) 0.20627(15)
H39_7 H 0.903437 0.627005 0.224260
H40_7 H 0.950116 0.660169 0.245491
H41_7 H 0.917596 0.616944 0.177975
C26_7 C 0.82133(12) 0.83469(13) 0.16581(16)
H42_7 H 0.845193 0.837788 0.216907
H43_7 H 0.790763 0.819237 0.150513
H44_7 H 0.816144 0.875256 0.145392
H57_7 H 0.899498 0.994671 0.206905
C51_7 C 0.97605(9) 0.95151(12) 0.38949(14)
C54_7 C 0.93871(10) 0.90642(14) 0.37378(17)
H66_7 H 0.928354 0.918805 0.398816
H67_7 H 0.952928 0.865322 0.388984
H68_7 H 0.910748 0.906035 0.323410
Mg6_4 Mg 0.99037(3) 0.40461(4) 0.04165(5)
O30_4 O 0.95826(7) 0.51364(8) 0.52425(11)
C31_7 C 0.95981(9) 0.88510(12) 0.01086(14)
C32_7 C 0.94075(10) 0.83369(13) 0.01688(16)
H50_7 H 0.935691 0.834169 0.048656
C46_7 C 0.97457(9) 0.94080(11) 0.05512(14)
C47_7 C 0.93998(9) 0.98223(12) 0.04105(14)
P4_6 P 0.92528(3) 0.28859(3) 0.38204(4)
O12_6 O 0.97940(10) 0.41530(11) 0.35786(12)
H12_6 H 0.983954 0.382611 0.343651
H13_6 H 0.994301 0.443547 0.354640
O19_6 O 0.97307(7) 0.32165(9) 0.42297(11)
O21_6 O 0.88949(8) 0.32820(10) 0.38092(12)
H23_6 H 0.900483 0.363912 0.394554
O23_6 O 0.90260(9) 0.27067(10) 0.30918(11)
C28_6 C 0.93583(10) 0.22025(12) 0.43013(14)
C29_6 C 0.95462(11) 0.16898(13) 0.42383(15)
H48_6 H 0.959015 0.169287 0.391316
C30_6 C 0.96718(10) 0.11701(13) 0.46417(15)
H49_6 H 0.980859 0.082718 0.459915
C31_8 C 0.95981(9) 0.11490(12) 0.51086(14)
C32_8 C 0.94075(10) 0.16631(13) 0.51688(16)
H50_8 H 0.935691 0.165831 0.548656
C33_6 C 0.92893(11) 0.21855(13) 0.47708(16)
H51_6 H 0.916036 0.253321 0.482098
C46_8 C 0.97457(9) 0.05920(11) 0.55512(14)
C47_8 C 0.93998(9) 0.01777(12) 0.54105(14)
C52_6 C 0.88686(10) 0.02907(14) 0.47984(16)
H61_6 H 0.871639 0.044935 0.496947
H62_6 H 0.883273 0.059062 0.448192
O31_4 O 0.99951(8) 0.42162(9) 0.52400(13)
O9_8 O 0.94651(7) 0.25189(9) 0.00629(10)
H9_8 H 0.973731 0.268929 0.032675
P1_6 P 0.95237(3) 0.44975(3) 0.49728(4)
P2_8 P 0.90674(2) 0.29998(3) 0.95207(3)
Mg1_6 Mg 0.86702(4) 0.49653(4) 0.33240(5)
O1_6 O 0.91490(9) 0.44402(9) 0.41716(11)
O2_6 O 0.80770(12) 0.44707(17) 0.29881(16)
H1_6 H 0.796673 0.441449 0.320808
H2_6 H 0.786718 0.426108 0.258703
O4_6 O 0.87616(13) 0.43617(11) 0.27836(14)
H3_6 H 0.907478 0.424938 0.303559
H4_6 H 0.869269 0.453936 0.240617
O6_5 O 0.91907(9) 0.55571(11) 0.35179(13)
H5_5 H 0.906515 0.591322 0.334316
H6_5 H 0.927638 0.543761 0.329357
O7_8 O 0.92735(6) 0.36337(8) 0.97960(9)
O8_5 O 0.85594(7) 0.55349(11) 0.38299(12)
H7_5 H 0.882467 0.570595 0.416776
H8_5 H 0.848333 0.532416 0.402354
O10_5 O 0.82216(9) 0.54688(11) 0.23888(12)
H10_5 H 0.793404 0.550016 0.224191
H11_5 H 0.817665 0.526866 0.205876
O11_8 O 0.86126(7) 0.28828(9) 0.93782(11)
C1_8 C 0.93055(9) 0.40257(11) 0.52909(13)
C2_8 C 0.88341(11) 0.40873(17) 0.50067(19)
H27_6 H 0.863045 0.438468 0.465272
C3_8 C 0.86537(11) 0.37221(17) 0.52297(19)
H28_8 H 0.832717 0.376819 0.502274
C4_8 C 0.89441(9) 0.32908(11) 0.57506(13)
C5_8 C 0.94166(10) 0.32343(12) 0.60406(14)
H29_8 H 0.962212 0.294243 0.640095
C6_8 C 0.95961(9) 0.35979(12) 0.58131(14)
H30_8 H 0.992244 0.355163 0.601916
C7_8 C 0.89641(9) 0.28823(11) 0.87337(13)
C8_8 C 0.93236(10) 0.26538(12) 0.87556(14)
H31_8 H 0.963117 0.255324 0.919238
C9_8 C 0.92359(10) 0.25716(13) 0.81429(15)
H32_8 H 0.948525 0.241435 0.816625
C10_8 C 0.87920(10) 0.27143(11) 0.74983(13)
C11_8 C 0.84365(10) 0.29585(13) 0.74789(15)
H33_8 H 0.813314 0.307263 0.704310
C12_8 C 0.85204(10) 0.30374(13) 0.80901(15)
H34_8 H 0.827223 0.319865 0.806753
C13_6 C 0.74192(9) 0.04129(11) 0.45835(13)
C14_6 C 0.72034(10) 0.09763(12) 0.44752(15)
H35_6 H 0.686132 0.101169 0.413605
C15_6 C 0.74817(10) 0.14860(12) 0.48565(15)
H36_6 H 0.732906 0.186728 0.477928
C16_8 C 0.79812(9) 0.14450(11) 0.53499(13)
C17_8 C 0.81980(10) 0.08887(12) 0.54417(14)
H37_8 H 0.854041 0.085780 0.576896
C18_8 C 0.79191(10) 0.03753(12) 0.50595(14)
C19_8 C 0.87490(9) 0.28780(11) 0.59820(13)
C20_8 C 0.88648(9) 0.29906(11) 0.66176(13)
C21_8 C 0.86837(9) 0.25944(11) 0.68295(13)
C22_8 C 0.83978(10) 0.20905(11) 0.64198(14)
C23_8 C 0.82836(9) 0.19877(11) 0.57867(13)
C24_8 C 0.84523(9) 0.23831(12) 0.55575(13)
C25_8 C 0.91709(11) 0.35351(13) 0.70627(15)
H39_8 H 0.903437 0.372995 0.724260
H40_8 H 0.950116 0.339831 0.745491
H41_8 H 0.917596 0.383056 0.677975
C26_8 C 0.82133(12) 0.16531(13) 0.66581(16)
H42_8 H 0.845193 0.162212 0.716907
H43_8 H 0.790763 0.180763 0.650513
H44_8 H 0.816144 0.124744 0.645392
C27_6 C 0.83071(11) 0.22673(14) 0.48595(15)
H45_6 H 0.836043 0.183478 0.482538
H46_6 H 0.796438 0.236723 0.448415
H47_6 H 0.850213 0.252474 0.481521
H57_8 H 0.899498 0.005329 0.706905
C51_8 C 0.97605(9) 0.04849(12) 0.88949(14)
C54_8 C 0.93871(10) 0.09358(14) 0.87378(17)
H66_8 H 0.928354 0.081195 0.898816
H67_8 H 0.952928 0.134678 0.888984
H68_8 H 0.910748 0.093965 0.823410
P1_7 P 0.95237(3) 0.55025(3) 0.99728(4)
Mg1_7 Mg 0.86702(4) 0.50347(4) 0.83240(5)
O1_7 O 0.91490(9) 0.55598(9) 0.91716(11)
O2_7 O 0.80770(12) 0.55293(17) 0.79881(16)
H1_7 H 0.796673 0.558551 0.820808
H2_7 H 0.786718 0.573892 0.758703
O4_7 O 0.87616(13) 0.56383(11) 0.77836(14)
H3_7 H 0.907478 0.575062 0.803559
H4_7 H 0.869269 0.546064 0.740617
O6_6 O 0.91907(9) 0.44429(11) 0.85179(13)
H5_6 H 0.906515 0.408678 0.834316
H6_6 H 0.927638 0.456239 0.829357
O8_6 O 0.85594(7) 0.44651(11) 0.88299(12)
H7_6 H 0.882467 0.429405 0.916776
H8_6 H 0.848333 0.467584 0.902354
O10_6 O 0.82216(9) 0.45312(11) 0.73888(12)
H10_6 H 0.793404 0.449984 0.724191
H11_6 H 0.817665 0.473134 0.705876
H27_7 H 0.863045 0.561532 0.965272
C13_7 C 0.74192(9) 0.95871(11) 0.95835(13)
C14_7 C 0.72034(10) 0.90237(12) 0.94752(15)
H35_7 H 0.686132 0.898831 0.913605
C15_7 C 0.74817(10) 0.85140(12) 0.98565(15)
H36_7 H 0.732906 0.813272 0.977928
C27_7 C 0.83071(11) 0.77327(14) 0.98595(15)
H45_7 H 0.836043 0.816522 0.982538
H46_7 H 0.796438 0.763277 0.948415
H47_7 H 0.850213 0.747526 0.981521
P4_7 P 0.92528(3) 0.71141(3) 0.88204(4)
O12_7 O 0.97940(10) 0.58470(11) 0.85786(12)
H12_7 H 0.983954 0.617389 0.843651
H13_7 H 0.994301 0.556453 0.854640
O19_7 O 0.97307(7) 0.67835(9) 0.92297(11)
O21_7 O 0.88949(8) 0.67180(10) 0.88092(12)
H23_7 H 0.900483 0.636088 0.894554
O23_7 O 0.90260(9) 0.72933(10) 0.80918(11)
C28_7 C 0.93583(10) 0.77975(12) 0.93013(14)
C29_7 C 0.95462(11) 0.83102(13) 0.92383(15)
H48_7 H 0.959015 0.830713 0.891316
C30_7 C 0.96718(10) 0.88299(13) 0.96417(15)
H49_7 H 0.980859 0.917282 0.959915
C33_7 C 0.92893(11) 0.78145(13) 0.97708(16)
H51_7 H 0.916036 0.746679 0.982098
C52_7 C 0.88686(10) 0.97093(14) 0.97984(16)
H61_7 H 0.871639 0.955065 0.996947
H62_7 H 0.883273 0.940938 0.948192
O6_7 O 0.58093(9) 0.05571(11) 0.14821(13)
H5_7 H 0.593485 0.091322 0.165684
H6_7 H 0.572362 0.043761 0.170643
O8_7 O 0.64406(7) 0.05349(11) 0.11701(12)
H7_7 H 0.617533 0.070595 0.083224
H8_7 H 0.651667 0.032416 0.097646
O10_7 O 0.67784(9) 0.04688(11) 0.26112(12)
H10_7 H 0.706596 0.050016 0.275809
H11_7 H 0.682335 0.026866 0.294124
P1_8 P 0.04763(3) 0.44975(3) 0.00272(4)
Mg1_8 Mg 0.13298(4) 0.49653(4) 0.16760(5)
O1_8 O 0.08510(9) 0.44402(9) 0.08284(11)
O2_8 O 0.19230(12) 0.44707(17) 0.20119(16)
H1_8 H 0.203327 0.441449 0.179192
H2_8 H 0.213282 0.426108 0.241297
O4_8 O 0.12384(13) 0.43617(11) 0.22164(14)
H3_8 H 0.092522 0.424938 0.196441
H4_8 H 0.130731 0.453936 0.259383
O6_8 O 0.08093(9) 0.55571(11) 0.14821(13)
H5_8 H 0.093485 0.591322 0.165684
H6_8 H 0.072362 0.543761 0.170643
O8_8 O 0.14406(7) 0.55349(11) 0.11701(12)
H7_8 H 0.117533 0.570595 0.083224
H8_8 H 0.151667 0.532416 0.097646
O10_8 O 0.17784(9) 0.54688(11) 0.26112(12)
H10_8 H 0.206596 0.550016 0.275809
H11_8 H 0.182335 0.526866 0.294124
H27_8 H 0.136955 0.438468 0.034728
C13_8 C 0.25808(9) 0.04129(11) 0.04165(13)
C14_8 C 0.27966(10) 0.09763(12) 0.05248(15)
H35_8 H 0.313868 0.101169 0.086395
C15_8 C 0.25183(10) 0.14860(12) 0.01435(15)
H36_8 H 0.267094 0.186728 0.022072
C27_8 C 0.16929(11) 0.22673(14) 0.01405(15)
H45_8 H 0.163957 0.183478 0.017462
H46_8 H 0.203562 0.236723 0.051585
H47_8 H 0.149787 0.252474 0.018479
P4_8 P 0.07472(3) 0.28859(3) 0.11796(4)
O12_8 O 0.02060(10) 0.41530(11) 0.14214(12)
H12_8 H 0.016046 0.382611 0.156349
H13_8 H 0.005699 0.443547 0.145360
O19_8 O 0.02693(7) 0.32165(9) 0.07703(11)
O21_8 O 0.11051(8) 0.32820(10) 0.11908(12)
H23_8 H 0.099517 0.363912 0.105446
O23_8 O 0.09740(9) 0.27067(10) 0.19082(11)
C28_8 C 0.06417(10) 0.22025(12) 0.06987(14)
C29_8 C 0.04538(11) 0.16898(13) 0.07617(15)
H48_8 H 0.040985 0.169287 0.108684
C30_8 C 0.03282(10) 0.11701(13) 0.03583(15)
H49_8 H 0.019141 0.082718 0.040085
C33_8 C 0.07107(11) 0.21855(13) 0.02292(16)
H51_8 H 0.083964 0.253321 0.017902
C52_8 C 0.11314(10) 0.02907(14) 0.02016(16)
H61_8 H 0.128361 0.044935 0.003053
H62_8 H 0.116727 0.059062 0.051808
loop_
_geom_bond_atom_site_label_1
_geom_bond_atom_site_label_2
_geom_bond_site_symmetry_1
_geom_bond_site_symmetry_2
P2 O7 1_555 1_555
P4 O19 1_555 1_555
P5 O24 1_555 1_555
P6 O27 1_555 1_555
Mg2 O7 1_555 1_555
Mg3 O14 1_555 1_555
Mg4 O18 1_555 1_555
O9 P2 1_555 1_555
H9 O9 1_555 1_555
O11 P2 1_555 1_555
O12 Mg2 1_555 1_555
H12 O12 1_555 1_555
H13 O12 1_555 1_555
O14 H14 1_555 1_555
H15 O14 1_555 1_555
O16 Mg3 1_555 1_555
H17 O16 1_555 1_555
H18 O16 1_555 1_555
O18 H19 1_555 1_555
H20 O18 1_555 1_555
O19 Mg2 1_555 1_555
O20 Mg4 1_555 1_555
H21 O20 1_555 1_555
H22 O20 1_555 1_555
O21 P4 1_555 1_555
H23 O21 1_555 1_555
O22 Mg4 1_555 1_555
H24 O22 1_555 1_555
H25 O22 1_555 1_555
O23 P4 1_555 1_555
O24 Mg3 1_555 1_555
O25 P5 1_555 1_555
O26 P5 1_555 1_555
O28 P6 1_555 1_555
O29 P6 1_555 1_555
H26 O29 1_555 1_555
C2 C1 1_555 1_555
C3 C2 1_555 1_555
H28 C3 1_555 1_555
C4 C3 1_555 1_555
C5 C4 1_555 1_555
H29 C5 1_555 1_555
C6 C1 1_555 1_555
H30 C6 1_555 1_555
C7 P2 1_555 1_555
C8 C7 1_555 1_555
H31 C8 1_555 1_555
C9 C8 1_555 1_555
H32 C9 1_555 1_555
C10 C9 1_555 1_555
C11 C10 1_555 1_555
H33 C11 1_555 1_555
C12 C7 1_555 1_555
H34 C12 1_555 1_555
C17 C16 1_555 1_555
H37 C17 1_555 1_555
H38 C18 1_555 1_555
C19 C4 1_555 1_555
C20 C19 1_555 1_555
C21 C10 1_555 1_555
C22 C21 1_555 1_555
C23 C16 1_555 1_555
C24 C19 1_555 1_555
C25 C20 1_555 1_555
H39 C25 1_555 1_555
H40 C25 1_555 1_555
H41 C25 1_555 1_555
C26 C22 1_555 1_555
H42 C26 1_555 1_555
H43 C26 1_555 1_555
H44 C26 1_555 1_555
C28 P4 1_555 1_555
C29 C28 1_555 1_555
H48 C29 1_555 1_555
C30 C29 1_555 1_555
H49 C30 1_555 1_555
C31 C30 1_555 1_555
C32 C31 1_555 1_555
H50 C32 1_555 1_555
C33 C28 1_555 1_555
H51 C33 1_555 1_555
C34 P5 1_555 1_555
C35 C34 1_555 1_555
H52 C35 1_555 1_555
C36 C35 1_555 1_555
H53 C36 1_555 1_555
C37 C36 1_555 1_555
C38 C37 1_555 1_555
H54 C38 1_555 1_555
C39 C34 1_555 1_555
H55 C39 1_555 1_555
C40 P6 1_555 1_555
C41 C40 1_555 1_555
H56 C41 1_555 1_555
C42 C41 1_555 1_555
H57 C42 1_555 1_555
C43 C42 1_555 1_555
C44 C43 1_555 1_555
H58 C44 1_555 1_555
C45 C40 1_555 1_555
H59 C45 1_555 1_555
C46 C31 1_555 1_555
C47 C46 1_555 1_555
C48 C37 1_555 1_555
C49 C48 1_555 1_555
C50 C43 1_555 1_555
C51 C46 1_555 1_555
C52 C47 1_555 1_555
H60 C52 1_555 1_555
H61 C52 1_555 1_555
H62 C52 1_555 1_555
C53 C49 1_555 1_555
H63 C53 1_555 1_555
H64 C53 1_555 1_555
H65 C53 1_555 1_555
C54 C51 1_555 1_555
H66 C54 1_555 1_555
H67 C54 1_555 1_555
H68 C54 1_555 1_555
Mg8 O25 1_555 1_555
Mg9 O28 1_555 1_555
Mg10 O25 1_555 1_555
O30 Mg2 1_555 1_555
O31 Mg2 1_555 1_555
O32 Mg3 1_555 1_555
O33 Mg3 1_555 1_555
O34 Mg3 1_555 1_555
Mg4 O26 1_555 1_555
Mg4 O33 1_555 1_555
Mg4 O34 1_555 1_555
C5 C6 1_555 1_555
C11 C12 1_555 1_555
C17 C18 1_555 1_555
C20 C21 1_555 1_555
C22 C23 1_555 1_555
C23 C24 1_555 1_555
C32 C33 1_555 1_555
C38 C39 1_555 1_555
C44 C45 1_555 1_555
C47 C48 1_555 1_555
C49 C50 1_555 1_555
C50 C51 1_555 1_555
P1 O1 1_555 1_555
P2_2 O7_2 1_555 1_555
P3 O32 1_555 1_555
P6_2 O27_2 1_555 1_555
Mg1 O1 1_555 1_555
Mg9 O18_2 1_555 1_555
O2 Mg1 1_555 1_555
H1 O2 1_555 1_555
H2 O2 1_555 1_555
O4 Mg1 1_555 1_555
H3 O4 1_555 1_555
H4 O4 1_555 1_555
O31 P1 1_555 1_555
O11_2 P2_2 1_555 1_555
O15 P3 1_555 1_555
H16 O15 1_555 1_555
O17 P3 1_555 1_555
O18_2 H19_2 1_555 1_555
H20_2 O18_2 1_555 1_555
O20_2 Mg9 1_555 1_555
H21_2 O20_2 1_555 1_555
H22_2 O20_2 1_555 1_555
O22_2 Mg9 1_555 1_555
H24_2 O22_2 1_555 1_555
H25_2 O22_2 1_555 1_555
O26_2 P5_2 1_555 1_555
O34 P6_2 1_555 1_555
O29_2 P6_2 1_555 1_555
H26_2 O29_2 1_555 1_555
C1_2 P1 1_555 1_555
C2_2 C1_2 1_555 1_555
H27 C2_2 1_555 1_555
C3_2 C2_2 1_555 1_555
H28_2 C3_2 1_555 1_555
C4_2 C3_2 1_555 1_555
C5_2 C4_2 1_555 1_555
H29_2 C5_2 1_555 1_555
C6_2 C1_2 1_555 1_555
H30_2 C6_2 1_555 1_555
C7_2 P2_2 1_555 1_555
C8_2 C7_2 1_555 1_555
H31_2 C8_2 1_555 1_555
C9_2 C8_2 1_555 1_555
H32_2 C9_2 1_555 1_555
C10_2 C9_2 1_555 1_555
C11_2 C10_2 1_555 1_555
H33_2 C11_2 1_555 1_555
C12_2 C7_2 1_555 1_555
H34_2 C12_2 1_555 1_555
C13 P3 1_555 1_555
C14 C13 1_555 1_555
H35 C14 1_555 1_555
C15 C14 1_555 1_555
H36 C15 1_555 1_555
C16_2 C15 1_555 1_555
C17_2 C16_2 1_555 1_555
H37_2 C17_2 1_555 1_555
C18_2 C13 1_555 1_555
H38_2 C18_2 1_555 1_555
C19_2 C4_2 1_555 1_555
C20_2 C19_2 1_555 1_555
C21_2 C10_2 1_555 1_555
C22_2 C21_2 1_555 1_555
C23_2 C16_2 1_555 1_555
C24_2 C19_2 1_555 1_555
C25_2 C20_2 1_555 1_555
H39_2 C25_2 1_555 1_555
H40_2 C25_2 1_555 1_555
H41_2 C25_2 1_555 1_555
C26_2 C22_2 1_555 1_555
H42_2 C26_2 1_555 1_555
H43_2 C26_2 1_555 1_555
H44_2 C26_2 1_555 1_555
C27 C24_2 1_555 1_555
H45 C27 1_555 1_555
H46 C27 1_555 1_555
H47 C27 1_555 1_555
C32_2 C31_2 1_555 1_555
H50_2 C32_2 1_555 1_555
C34_2 P5_2 1_555 1_555
C35_2 C34_2 1_555 1_555
H52_2 C35_2 1_555 1_555
C36_2 C35_2 1_555 1_555
H53_2 C36_2 1_555 1_555
C37_2 C36_2 1_555 1_555
C38_2 C37_2 1_555 1_555
C39_2 C34_2 1_555 1_555
C40_2 P6_2 1_555 1_555
C41_2 C40_2 1_555 1_555
H56_2 C41_2 1_555 1_555
C42_2 C41_2 1_555 1_555
H57_2 C42_2 1_555 1_555
C43_2 C42_2 1_555 1_555
C44_2 C43_2 1_555 1_555
H58_2 C44_2 1_555 1_555
C45_2 C40_2 1_555 1_555
H59_2 C45_2 1_555 1_555
C46_2 C31_2 1_555 1_555
C47_2 C46_2 1_555 1_555
C48_2 C37_2 1_555 1_555
C49_2 C48_2 1_555 1_555
C50_2 C43_2 1_555 1_555
C51_2 C46_2 1_555 1_555
C53_2 C49_2 1_555 1_555
H63_2 C53_2 1_555 1_555
H64_2 C53_2 1_555 1_555
H65_2 C53_2 1_555 1_555
C54_2 C51_2 1_555 1_555
H66_2 C54_2 1_555 1_555
H67_2 C54_2 1_555 1_555
H68_2 C54_2 1_555 1_555
Mg9 O26_2 1_555 1_555
Mg9 O33_2 1_555 1_555
C5_2 C6_2 1_555 1_555
C11_2 C12_2 1_555 1_555
C17_2 C18_2 1_555 1_555
C20_2 C21_2 1_555 1_555
C22_2 C23_2 1_555 1_555
C23_2 C24_2 1_555 1_555
C38_2 C39_2 1_555 1_555
C44_2 C45_2 1_555 1_555
C47_2 C48_2 1_555 1_555
C49_2 C50_2 1_555 1_555
C50_2 C51_2 1_555 1_555
H5 O6 1_555 1_555
H6 O6 1_555 1_555
H7 O8 1_555 1_555
H8 O8 1_555 1_555
H10 O10 1_555 1_555
H11 O10 1_555 1_555
P3_2 O13 1_555 1_555
O13 Mg8_2 1_555 1_555
O15_2 P3_2 1_555 1_555
H16_2 O15_2 1_555 1_555
O17_2 P3_2 1_555 1_555
P5_3 O24_2 1_555 1_555
Mg8 O14_2 1_555 1_555
Mg10 O18_3 1_555 1_555
O14_2 H14_2 1_555 1_555
H15_3 O14_2 1_555 1_555
O16_2 Mg8 1_555 1_555
H17_2 O16_2 1_555 1_555
H18_2 O16_2 1_555 1_555
O18_3 H19_3 1_555 1_555
H20_3 O18_3 1_555 1_555
O20_3 Mg10 1_555 1_555
H21_3 O20_3 1_555 1_555
H22_3 O20_3 1_555 1_555
O22_3 Mg10 1_555 1_555
H24_3 O22_3 1_555 1_555
H25_3 O22_3 1_555 1_555
O24_2 Mg8 1_555 1_555
O33 P5_3 1_555 1_555
O26_3 P5_3 1_555 1_555
C34_3 P5_3 1_555 1_555
C35_3 C34_3 1_555 1_555
H52_3 C35_3 1_555 1_555
C36_3 C35_3 1_555 1_555
H53_3 C36_3 1_555 1_555
C37_3 C36_3 1_555 1_555
C38_3 C37_3 1_555 1_555
H54_2 C38_3 1_555 1_555
C39_3 C34_3 1_555 1_555
H55_2 C39_3 1_555 1_555
C48_3 C37_3 1_555 1_555
O32_2 Mg8 1_555 1_555
O34_2 Mg8 1_555 1_555
Mg10 O26_3 1_555 1_555
Mg10 O34_2 1_555 1_555
C38_3 C39_3 1_555 1_555
Mg8_2 O14_3 1_555 1_555
O14_3 H14_3 1_555 1_555
O16_3 Mg8_2 1_555 1_555
H17_3 O16_3 1_555 1_555
H18_3 O16_3 1_555 1_555
O24_3 Mg8_2 1_555 1_555
P3_3 O32_2 1_555 1_555
P6_3 O27_3 1_555 1_555
O15_3 P3_3 1_555 1_555
H16_3 O15_3 1_555 1_555
O17_3 P3_3 1_555 1_555
O34_2 P6_3 1_555 1_555
O29_3 P6_3 1_555 1_555
H26_3 O29_3 1_555 1_555
C40_3 P6_3 1_555 1_555
C41_3 C40_3 1_555 1_555
H56_3 C41_3 1_555 1_555
C42_3 C41_3 1_555 1_555
C43_3 C42_3 1_555 1_555
C44_3 C43_3 1_555 1_555
H58_3 C44_3 1_555 1_555
C45_3 C40_3 1_555 1_555
H59_3 C45_3 1_555 1_555
C50_3 C43_3 1_555 1_555
C53_3 C49_3 1_555 1_555
H63_3 C53_3 1_555 1_555
H65_3 C53_3 1_555 1_555
C44_3 C45_3 1_555 1_555
C49_3 C50_3 1_555 1_555
P1_2 O1_2 1_555 1_555
P3_4 O13_2 1_555 1_555
Mg1_2 O1_2 1_555 1_555
O2_2 Mg1_2 1_555 1_555
H1_2 O2_2 1_555 1_555
H2_2 O2_2 1_555 1_555
O4_2 Mg1_2 1_555 1_555
H3_2 O4_2 1_555 1_555
H4_2 O4_2 1_555 1_555
O13_2 Mg7 1_555 1_555
O15_4 P3_4 1_555 1_555
H16_4 O15_4 1_555 1_555
O17_4 P3_4 1_555 1_555
C13_2 P3_4 1_555 1_555
C14_2 C13_2 1_555 1_555
H35_2 C14_2 1_555 1_555
C15_2 C14_2 1_555 1_555
H36_2 C15_2 1_555 1_555
H45_2 C27_2 1_555 1_555
H46_2 C27_2 1_555 1_555
H47_2 C27_2 1_555 1_555
P4_2 O19_2 1_555 1_555
Mg7 O14_4 1_555 1_555
H9_2 O9_2 1_555 1_555
O12_2 Mg5 1_555 1_555
H12_2 O12_2 1_555 1_555
H13_2 O12_2 1_555 1_555
O14_4 H14_4 1_555 1_555
O16_4 Mg7 1_555 1_555
H17_4 O16_4 1_555 1_555
H18_4 O16_4 1_555 1_555
O19_2 Mg5 1_555 1_555
O21_2 P4_2 1_555 1_555
H23_2 O21_2 1_555 1_555
O23_2 P4_2 1_555 1_555
O24_4 Mg7 1_555 1_555
C28_2 P4_2 1_555 1_555
C29_2 C28_2 1_555 1_555
H48_2 C29_2 1_555 1_555
C30_2 C29_2 1_555 1_555
H49_2 C30_2 1_555 1_555
C33_2 C28_2 1_555 1_555
H51_2 C33_2 1_555 1_555
H60_4 C52_2 1_555 1_555
H61_2 C52_2 1_555 1_555
H62_2 C52_2 1_555 1_555
Mg10_2 O25_2 1_555 1_555
O30_2 Mg5 1_555 1_555
P6_4 O27_4 1_555 1_555
O28_2 P6_4 1_555 1_555
O29_4 P6_4 1_555 1_555
H26_4 O29_4 1_555 1_555
C40_4 P6_4 1_555 1_555
C41_4 C40_4 1_555 1_555
H56_4 C41_4 1_555 1_555
C42_4 C41_4 1_555 1_555
C43_4 C42_4 1_555 1_555
C44_4 C43_4 1_555 1_555
H58_4 C44_4 1_555 1_555
C45_4 C40_4 1_555 1_555
H59_4 C45_4 1_555 1_555
C50_4 C43_4 1_555 1_555
C53_4 C49_4 1_555 1_555
H63_4 C53_4 1_555 1_555
H65_4 C53_4 1_555 1_555
Mg10_2 O28_2 1_555 1_555
C44_4 C45_4 1_555 1_555
C49_4 C50_4 1_555 1_555
Mg10_2 O18_4 1_555 1_555
O18_4 H19_4 1_555 1_555
H20_4 O18_4 1_555 1_555
O20_4 Mg10_2 1_555 1_555
H21_4 O20_4 1_555 1_555
H22_4 O20_4 1_555 1_555
O22_4 Mg10_2 1_555 1_555
H24_4 O22_4 1_555 1_555
H25_4 O22_4 1_555 1_555
O26_4 P5_4 1_555 1_555
C34_4 P5_4 1_555 1_555
C35_4 C34_4 1_555 1_555
H52_4 C35_4 1_555 1_555
C36_4 C35_4 1_555 1_555
H53_4 C36_4 1_555 1_555
C37_4 C36_4 1_555 1_555
C38_4 C37_4 1_555 1_555
C39_4 C34_4 1_555 1_555
C48_4 C37_4 1_555 1_555
Mg10_2 O26_4 1_555 1_555
C38_4 C39_4 1_555 1_555
Mg6 O3 1_555 1_555
P6_5 O27_5 1_555 1_555
O28_3 P6_5 1_555 1_555
O29_5 P6_5 1_555 1_555
H26_5 O29_5 1_555 1_555
C40_5 P6_5 1_555 1_555
C41_5 C40_5 1_555 1_555
H56_5 C41_5 1_555 1_555
C42_5 C41_5 1_555 1_555
C43_5 C42_5 1_555 1_555
C44_5 C43_5 1_555 1_555
H58_5 C44_5 1_555 1_555
C45_5 C40_5 1_555 1_555
H59_5 C45_5 1_555 1_555
C50_5 C43_5 1_555 1_555
C53_5 C49_5 1_555 1_555
H63_5 C53_5 1_555 1_555
H65_5 C53_5 1_555 1_555
Mg9_2 O28_3 1_555 1_555
C44_5 C45_5 1_555 1_555
C49_5 C50_5 1_555 1_555
Mg9_2 O18_5 1_555 1_555
O18_5 H19_5 1_555 1_555
H20_5 O18_5 1_555 1_555
O20_5 Mg9_2 1_555 1_555
H21_5 O20_5 1_555 1_555
H22_5 O20_5 1_555 1_555
O22_5 Mg9_2 1_555 1_555
H24_5 O22_5 1_555 1_555
H25_5 O22_5 1_555 1_555
O26_5 P5_5 1_555 1_555
C34_5 P5_5 1_555 1_555
C35_5 C34_5 1_555 1_555
H52_5 C35_5 1_555 1_555
C36_5 C35_5 1_555 1_555
H53_5 C36_5 1_555 1_555
C37_5 C36_5 1_555 1_555
C38_5 C37_5 1_555 1_555
C39_5 C34_5 1_555 1_555
C48_5 C37_5 1_555 1_555
Mg9_2 O26_5 1_555 1_555
Mg9_2 O33_3 1_555 1_555
C38_5 C39_5 1_555 1_555
P1_3 O1_3 1_555 1_555
P3_5 O13_3 1_555 1_555
Mg1_3 O1_3 1_555 1_555
O2_3 Mg1_3 1_555 1_555
H1_3 O2_3 1_555 1_555
H2_3 O2_3 1_555 1_555
O4_3 Mg1_3 1_555 1_555
H3_3 O4_3 1_555 1_555
H4_3 O4_3 1_555 1_555
O13_3 Mg8_3 1_555 1_555
O15_5 P3_5 1_555 1_555
H16_5 O15_5 1_555 1_555
O17_5 P3_5 1_555 1_555
C13_3 P3_5 1_555 1_555
C14_3 C13_3 1_555 1_555
H35_3 C14_3 1_555 1_555
C15_3 C14_3 1_555 1_555
H36_3 C15_3 1_555 1_555
H45_3 C27_3 1_555 1_555
H46_3 C27_3 1_555 1_555
H47_3 C27_3 1_555 1_555
P4_3 O19_3 1_555 1_555
Mg8_3 O14_5 1_555 1_555
H9_3 O9_3 1_555 1_555
O12_3 Mg6 1_555 1_555
H12_3 O12_3 1_555 1_555
H13_3 O12_3 1_555 1_555
O14_5 H14_5 1_555 1_555
O16_5 Mg8_3 1_555 1_555
H17_5 O16_5 1_555 1_555
H18_5 O16_5 1_555 1_555
O19_3 Mg6 1_555 1_555
O21_3 P4_3 1_555 1_555
H23_3 O21_3 1_555 1_555
O23_3 P4_3 1_555 1_555
O24_5 Mg8_3 1_555 1_555
C28_3 P4_3 1_555 1_555
C29_3 C28_3 1_555 1_555
H48_3 C29_3 1_555 1_555
C30_3 C29_3 1_555 1_555
H49_3 C30_3 1_555 1_555
C33_3 C28_3 1_555 1_555
H51_3 C33_3 1_555 1_555
H60_5 C52_3 1_555 1_555
H61_3 C52_3 1_555 1_555
H62_3 C52_3 1_555 1_555
H5_2 O6_2 1_555 1_555
H6_2 O6_2 1_555 1_555
H7_2 O8_2 1_555 1_555
H8_2 O8_2 1_555 1_555
H10_2 O10_2 1_555 1_555
H11_2 O10_2 1_555 1_555
H5_3 O6_3 1_555 1_555
H6_3 O6_3 1_555 1_555
H7_3 O8_3 1_555 1_555
H8_3 O8_3 1_555 1_555
H10_3 O10_3 1_555 1_555
H11_3 O10_3 1_555 1_555
Mg6_2 O3_2 1_555 1_555
P5_6 O24_6 1_555 1_555
Mg3_2 O14_6 1_555 1_555
Mg4_2 O18_6 1_555 1_555
O14_6 H14_6 1_555 1_555
H15_6 O14_6 1_555 1_555
O16_6 Mg3_2 1_555 1_555
H17_6 O16_6 1_555 1_555
H18_6 O16_6 1_555 1_555
O18_6 H19_6 1_555 1_555
H20_6 O18_6 1_555 1_555
O20_6 Mg4_2 1_555 1_555
H21_6 O20_6 1_555 1_555
H22_6 O20_6 1_555 1_555
O22_6 Mg4_2 1_555 1_555
H24_6 O22_6 1_555 1_555
H25_6 O22_6 1_555 1_555
O24_6 Mg3_2 1_555 1_555
O25_3 P5_6 1_555 1_555
O26_6 P5_6 1_555 1_555
C34_6 P5_6 1_555 1_555
C35_6 C34_6 1_555 1_555
H52_6 C35_6 1_555 1_555
C36_6 C35_6 1_555 1_555
H53_6 C36_6 1_555 1_555
C37_6 C36_6 1_555 1_555
C38_6 C37_6 1_555 1_555
H54_6 C38_6 1_555 1_555
C39_6 C34_6 1_555 1_555
H55_6 C39_6 1_555 1_555
C48_6 C37_6 1_555 1_555
Mg8_4 O25_3 1_555 1_555
Mg10_3 O25_3 1_555 1_555
O32_3 Mg3_2 1_555 1_555
O33_4 Mg3_2 1_555 1_555
O34_3 Mg3_2 1_555 1_555
Mg4_2 O26_6 1_555 1_555
Mg4_2 O33_4 1_555 1_555
Mg4_2 O34_3 1_555 1_555
C38_6 C39_6 1_555 1_555
P3_6 O13_4 1_555 1_555
O13_4 Mg7_2 1_555 1_555
O15_6 P3_6 1_555 1_555
H16_6 O15_6 1_555 1_555
O17_6 P3_6 1_555 1_555
P3_7 O32_3 1_555 1_555
P6_6 O27_6 1_555 1_555
O15_7 P3_7 1_555 1_555
H16_7 O15_7 1_555 1_555
O17_7 P3_7 1_555 1_555
O34_3 P6_6 1_555 1_555
O29_6 P6_6 1_555 1_555
H26_6 O29_6 1_555 1_555
C40_6 P6_6 1_555 1_555
C41_6 C40_6 1_555 1_555
H56_6 C41_6 1_555 1_555
C42_6 C41_6 1_555 1_555
C43_6 C42_6 1_555 1_555
C44_6 C43_6 1_555 1_555
H58_6 C44_6 1_555 1_555
C45_6 C40_6 1_555 1_555
H59_6 C45_6 1_555 1_555
C50_6 C43_6 1_555 1_555
C53_6 C49_6 1_555 1_555
H63_6 C53_6 1_555 1_555
H65_6 C53_6 1_555 1_555
C44_6 C45_6 1_555 1_555
C49_6 C50_6 1_555 1_555
Mg7_2 O14_7 1_555 1_555
O14_7 H14_7 1_555 1_555
O16_7 Mg7_2 1_555 1_555
H17_7 O16_7 1_555 1_555
H18_7 O16_7 1_555 1_555
O24_7 Mg7_2 1_555 1_555
Mg10_4 O25_4 1_555 1_555
P2_3 O7_3 1_555 1_555
P4_4 O19_4 1_555 1_555
P5_7 O24_8 1_555 1_555
P6_7 O27_7 1_555 1_555
Mg6_2 O7_3 1_555 1_555
Mg8_4 O14_8 1_555 1_555
Mg10_3 O18_7 1_555 1_555
O9_4 P2_3 1_555 1_555
H9_4 O9_4 1_555 1_555
O11_3 P2_3 1_555 1_555
O12_4 Mg6_2 1_555 1_555
H12_4 O12_4 1_555 1_555
H13_4 O12_4 1_555 1_555
O14_8 H14_8 1_555 1_555
H15_7 O14_8 1_555 1_555
O16_8 Mg8_4 1_555 1_555
H17_8 O16_8 1_555 1_555
H18_8 O16_8 1_555 1_555
O18_7 H19_7 1_555 1_555
H20_7 O18_7 1_555 1_555
O19_4 Mg6_2 1_555 1_555
O20_7 Mg10_3 1_555 1_555
H21_7 O20_7 1_555 1_555
H22_7 O20_7 1_555 1_555
O21_4 P4_4 1_555 1_555
H23_4 O21_4 1_555 1_555
O22_7 Mg10_3 1_555 1_555
H24_7 O22_7 1_555 1_555
H25_7 O22_7 1_555 1_555
O23_4 P4_4 1_555 1_555
O24_8 Mg8_4 1_555 1_555
O33_4 P5_7 1_555 1_555
O26_7 P5_7 1_555 1_555
O28_4 P6_7 1_555 1_555
O29_7 P6_7 1_555 1_555
H26_7 O29_7 1_555 1_555
C2_3 C1_3 1_555 1_555
C3_3 C2_3 1_555 1_555
H28_3 C3_3 1_555 1_555
C4_3 C3_3 1_555 1_555
C5_3 C4_3 1_555 1_555
H29_3 C5_3 1_555 1_555
C6_3 C1_3 1_555 1_555
H30_3 C6_3 1_555 1_555
C7_3 P2_3 1_555 1_555
C8_3 C7_3 1_555 1_555
H31_3 C8_3 1_555 1_555
C9_3 C8_3 1_555 1_555
H32_3 C9_3 1_555 1_555
C10_3 C9_3 1_555 1_555
C11_3 C10_3 1_555 1_555
H33_3 C11_3 1_555 1_555
C12_3 C7_3 1_555 1_555
H34_3 C12_3 1_555 1_555
C17_3 C16_3 1_555 1_555
H37_3 C17_3 1_555 1_555
H38_7 C18_3 1_555 1_555
C19_3 C4_3 1_555 1_555
C20_3 C19_3 1_555 1_555
C21_3 C10_3 1_555 1_555
C22_3 C21_3 1_555 1_555
C23_3 C16_3 1_555 1_555
C24_3 C19_3 1_555 1_555
C25_3 C20_3 1_555 1_555
H39_3 C25_3 1_555 1_555
H40_3 C25_3 1_555 1_555
H41_3 C25_3 1_555 1_555
C26_3 C22_3 1_555 1_555
H42_3 C26_3 1_555 1_555
H43_3 C26_3 1_555 1_555
H44_3 C26_3 1_555 1_555
C28_4 P4_4 1_555 1_555
C29_4 C28_4 1_555 1_555
H48_4 C29_4 1_555 1_555
C30_4 C29_4 1_555 1_555
H49_4 C30_4 1_555 1_555
C31_3 C30_4 1_555 1_555
C32_3 C31_3 1_555 1_555
H50_3 C32_3 1_555 1_555
C33_4 C28_4 1_555 1_555
H51_4 C33_4 1_555 1_555
C34_7 P5_7 1_555 1_555
C35_7 C34_7 1_555 1_555
H52_7 C35_7 1_555 1_555
C36_7 C35_7 1_555 1_555
H53_7 C36_7 1_555 1_555
C37_7 C36_7 1_555 1_555
C38_7 C37_7 1_555 1_555
H54_8 C38_7 1_555 1_555
C39_7 C34_7 1_555 1_555
H55_8 C39_7 1_555 1_555
C40_7 P6_7 1_555 1_555
C41_7 C40_7 1_555 1_555
H56_7 C41_7 1_555 1_555
C42_7 C41_7 1_555 1_555
H57_3 C42_7 1_555 1_555
C43_7 C42_7 1_555 1_555
C44_7 C43_7 1_555 1_555
H58_7 C44_7 1_555 1_555
C45_7 C40_7 1_555 1_555
H59_7 C45_7 1_555 1_555
C46_3 C31_3 1_555 1_555
C47_3 C46_3 1_555 1_555
C48_7 C37_7 1_555 1_555
C49_7 C48_7 1_555 1_555
C50_7 C43_7 1_555 1_555
C51_3 C46_3 1_555 1_555
C52_4 C47_3 1_555 1_555
H60_8 C52_4 1_555 1_555
H61_4 C52_4 1_555 1_555
H62_4 C52_4 1_555 1_555
C53_7 C49_7 1_555 1_555
H63_7 C53_7 1_555 1_555
H64_7 C53_7 1_555 1_555
H65_7 C53_7 1_555 1_555
C54_3 C51_3 1_555 1_555
H66_3 C54_3 1_555 1_555
H67_3 C54_3 1_555 1_555
H68_3 C54_3 1_555 1_555
Mg10_4 O28_4 1_555 1_555
O31_2 Mg6_2 1_555 1_555
O32_4 Mg8_4 1_555 1_555
O34_4 Mg8_4 1_555 1_555
Mg10_3 O26_7 1_555 1_555
Mg10_3 O34_4 1_555 1_555
C5_3 C6_3 1_555 1_555
C11_3 C12_3 1_555 1_555
C17_3 C18_3 1_555 1_555
C20_3 C21_3 1_555 1_555
C22_3 C23_3 1_555 1_555
C23_3 C24_3 1_555 1_555
C32_3 C33_4 1_555 1_555
C38_7 C39_7 1_555 1_555
C44_7 C45_7 1_555 1_555
C47_3 C48_7 1_555 1_555
C49_7 C50_7 1_555 1_555
C50_7 C51_3 1_555 1_555
P1_4 O1_4 1_555 1_555
P2_4 O7_4 1_555 1_555
P3_8 O32_4 1_555 1_555
P6_8 O27_8 1_555 1_555
Mg1_4 O1_4 1_555 1_555
Mg10_4 O18_8 1_555 1_555
O2_4 Mg1_4 1_555 1_555
H1_4 O2_4 1_555 1_555
H2_4 O2_4 1_555 1_555
O4_4 Mg1_4 1_555 1_555
H3_4 O4_4 1_555 1_555
H4_4 O4_4 1_555 1_555
O31_2 P1_4 1_555 1_555
O11_4 P2_4 1_555 1_555
O15_8 P3_8 1_555 1_555
H16_8 O15_8 1_555 1_555
O17_8 P3_8 1_555 1_555
O18_8 H19_8 1_555 1_555
H20_8 O18_8 1_555 1_555
O20_8 Mg10_4 1_555 1_555
H21_8 O20_8 1_555 1_555
H22_8 O20_8 1_555 1_555
O22_8 Mg10_4 1_555 1_555
H24_8 O22_8 1_555 1_555
H25_8 O22_8 1_555 1_555
O26_8 P5_8 1_555 1_555
O34_4 P6_8 1_555 1_555
O29_8 P6_8 1_555 1_555
H26_8 O29_8 1_555 1_555
C1_4 P1_4 1_555 1_555
C2_4 C1_4 1_555 1_555
H27_4 C2_4 1_555 1_555
C3_4 C2_4 1_555 1_555
H28_4 C3_4 1_555 1_555
C4_4 C3_4 1_555 1_555
C5_4 C4_4 1_555 1_555
H29_4 C5_4 1_555 1_555
C6_4 C1_4 1_555 1_555
H30_4 C6_4 1_555 1_555
C7_4 P2_4 1_555 1_555
C8_4 C7_4 1_555 1_555
H31_4 C8_4 1_555 1_555
C9_4 C8_4 1_555 1_555
H32_4 C9_4 1_555 1_555
C10_4 C9_4 1_555 1_555
C11_4 C10_4 1_555 1_555
H33_4 C11_4 1_555 1_555
C12_4 C7_4 1_555 1_555
H34_4 C12_4 1_555 1_555
C13_4 P3_8 1_555 1_555
C14_4 C13_4 1_555 1_555
H35_4 C14_4 1_555 1_555
C15_4 C14_4 1_555 1_555
H36_4 C15_4 1_555 1_555
C16_4 C15_4 1_555 1_555
C17_4 C16_4 1_555 1_555
H37_4 C17_4 1_555 1_555
C18_4 C13_4 1_555 1_555
H38_8 C18_4 1_555 1_555
C19_4 C4_4 1_555 1_555
C20_4 C19_4 1_555 1_555
C21_4 C10_4 1_555 1_555
C22_4 C21_4 1_555 1_555
C23_4 C16_4 1_555 1_555
C24_4 C19_4 1_555 1_555
C25_4 C20_4 1_555 1_555
H39_4 C25_4 1_555 1_555
H40_4 C25_4 1_555 1_555
H41_4 C25_4 1_555 1_555
C26_4 C22_4 1_555 1_555
H42_4 C26_4 1_555 1_555
H43_4 C26_4 1_555 1_555
H44_4 C26_4 1_555 1_555
C27_4 C24_4 1_555 1_555
H45_4 C27_4 1_555 1_555
H46_4 C27_4 1_555 1_555
H47_4 C27_4 1_555 1_555
C32_4 C31_4 1_555 1_555
H50_4 C32_4 1_555 1_555
C34_8 P5_8 1_555 1_555
C35_8 C34_8 1_555 1_555
H52_8 C35_8 1_555 1_555
C36_8 C35_8 1_555 1_555
H53_8 C36_8 1_555 1_555
C37_8 C36_8 1_555 1_555
C38_8 C37_8 1_555 1_555
C39_8 C34_8 1_555 1_555
C40_8 P6_8 1_555 1_555
C41_8 C40_8 1_555 1_555
H56_8 C41_8 1_555 1_555
C42_8 C41_8 1_555 1_555
H57_4 C42_8 1_555 1_555
C43_8 C42_8 1_555 1_555
C44_8 C43_8 1_555 1_555
H58_8 C44_8 1_555 1_555
C45_8 C40_8 1_555 1_555
H59_8 C45_8 1_555 1_555
C46_4 C31_4 1_555 1_555
C47_4 C46_4 1_555 1_555
C48_8 C37_8 1_555 1_555
C49_8 C48_8 1_555 1_555
C50_8 C43_8 1_555 1_555
C51_4 C46_4 1_555 1_555
C53_8 C49_8 1_555 1_555
H63_8 C53_8 1_555 1_555
H64_8 C53_8 1_555 1_555
H65_8 C53_8 1_555 1_555
C54_4 C51_4 1_555 1_555
H66_4 C54_4 1_555 1_555
H67_4 C54_4 1_555 1_555
H68_4 C54_4 1_555 1_555
Mg10_4 O26_8 1_555 1_555
C5_4 C6_4 1_555 1_555
C11_4 C12_4 1_555 1_555
C17_4 C18_4 1_555 1_555
C20_4 C21_4 1_555 1_555
C22_4 C23_4 1_555 1_555
C23_4 C24_4 1_555 1_555
C38_8 C39_8 1_555 1_555
C44_8 C45_8 1_555 1_555
C47_4 C48_8 1_555 1_555
C49_8 C50_8 1_555 1_555
C50_8 C51_4 1_555 1_555
P4_5 O19_5 1_555 1_555
H12_5 O12_5 1_555 1_555
H13_5 O12_5 1_555 1_555
O21_5 P4_5 1_555 1_555
H23_5 O21_5 1_555 1_555
O23_5 P4_5 1_555 1_555
C28_5 P4_5 1_555 1_555
C29_5 C28_5 1_555 1_555
H48_5 C29_5 1_555 1_555
C30_5 C29_5 1_555 1_555
H49_5 C30_5 1_555 1_555
C31_5 C30_5 1_555 1_555
C32_5 C31_5 1_555 1_555
H50_5 C32_5 1_555 1_555
C33_5 C28_5 1_555 1_555
H51_5 C33_5 1_555 1_555
C46_5 C31_5 1_555 1_555
C47_5 C46_5 1_555 1_555
C52_5 C47_5 1_555 1_555
H61_5 C52_5 1_555 1_555
H62_5 C52_5 1_555 1_555
C32_5 C33_5 1_555 1_555
P1_5 O1_5 1_555 1_555
P2_5 O7_5 1_555 1_555
Mg1_5 O1_5 1_555 1_555
O2_5 Mg1_5 1_555 1_555
H1_5 O2_5 1_555 1_555
H2_5 O2_5 1_555 1_555
O3_3 P1_5 1_555 1_555
O4_5 Mg1_5 1_555 1_555
H3_5 O4_5 1_555 1_555
H4_5 O4_5 1_555 1_555
O31_3 P1_5 1_555 1_555
O6_4 Mg1_5 1_555 1_555
H5_4 O6_4 1_555 1_555
H6_4 O6_4 1_555 1_555
O8_4 Mg1_5 1_555 1_555
H7_4 O8_4 1_555 1_555
H8_4 O8_4 1_555 1_555
O10_4 Mg1_5 1_555 1_555
H10_4 O10_4 1_555 1_555
H11_4 O10_4 1_555 1_555
O11_5 P2_5 1_555 1_555
C1_5 P1_5 1_555 1_555
C2_5 C1_5 1_555 1_555
H27_5 C2_5 1_555 1_555
C3_5 C2_5 1_555 1_555
H28_5 C3_5 1_555 1_555
C4_5 C3_5 1_555 1_555
C5_5 C4_5 1_555 1_555
H29_5 C5_5 1_555 1_555
C6_5 C1_5 1_555 1_555
H30_5 C6_5 1_555 1_555
C7_5 P2_5 1_555 1_555
C8_5 C7_5 1_555 1_555
H31_5 C8_5 1_555 1_555
C9_5 C8_5 1_555 1_555
H32_5 C9_5 1_555 1_555
C10_5 C9_5 1_555 1_555
C11_5 C10_5 1_555 1_555
H33_5 C11_5 1_555 1_555
C12_5 C7_5 1_555 1_555
H34_5 C12_5 1_555 1_555
C14_5 C13_5 1_555 1_555
H35_5 C14_5 1_555 1_555
C15_5 C14_5 1_555 1_555
H36_5 C15_5 1_555 1_555
C16_5 C15_5 1_555 1_555
C17_5 C16_5 1_555 1_555
H37_5 C17_5 1_555 1_555
C18_5 C13_5 1_555 1_555
C19_5 C4_5 1_555 1_555
C20_5 C19_5 1_555 1_555
C21_5 C10_5 1_555 1_555
C22_5 C21_5 1_555 1_555
C23_5 C16_5 1_555 1_555
C24_5 C19_5 1_555 1_555
C25_5 C20_5 1_555 1_555
H39_5 C25_5 1_555 1_555
H40_5 C25_5 1_555 1_555
H41_5 C25_5 1_555 1_555
C26_5 C22_5 1_555 1_555
H42_5 C26_5 1_555 1_555
H43_5 C26_5 1_555 1_555
H44_5 C26_5 1_555 1_555
C27_5 C24_5 1_555 1_555
H45_5 C27_5 1_555 1_555
H46_5 C27_5 1_555 1_555
H47_5 C27_5 1_555 1_555
C54_5 C51_5 1_555 1_555
H66_5 C54_5 1_555 1_555
H67_5 C54_5 1_555 1_555
H68_5 C54_5 1_555 1_555
Mg6_3 O3_3 1_555 1_555
C5_5 C6_5 1_555 1_555
C11_5 C12_5 1_555 1_555
C17_5 C18_5 1_555 1_555
C20_5 C21_5 1_555 1_555
C22_5 C23_5 1_555 1_555
C23_5 C24_5 1_555 1_555
H9_5 O9_5 1_555 1_555
O30_3 Mg5_2 1_555 1_555
P2_6 O7_6 1_555 1_555
Mg6_3 O7_6 1_555 1_555
O9_6 P2_6 1_555 1_555
H9_6 O9_6 1_555 1_555
O11_6 P2_6 1_555 1_555
C2_6 C1_6 1_555 1_555
C3_6 C2_6 1_555 1_555
H28_6 C3_6 1_555 1_555
C4_6 C3_6 1_555 1_555
C5_6 C4_6 1_555 1_555
H29_6 C5_6 1_555 1_555
C6_6 C1_6 1_555 1_555
H30_6 C6_6 1_555 1_555
C7_6 P2_6 1_555 1_555
C8_6 C7_6 1_555 1_555
H31_6 C8_6 1_555 1_555
C9_6 C8_6 1_555 1_555
H32_6 C9_6 1_555 1_555
C10_6 C9_6 1_555 1_555
C11_6 C10_6 1_555 1_555
H33_6 C11_6 1_555 1_555
C12_6 C7_6 1_555 1_555
H34_6 C12_6 1_555 1_555
C17_6 C16_6 1_555 1_555
H37_6 C17_6 1_555 1_555
C19_6 C4_6 1_555 1_555
C20_6 C19_6 1_555 1_555
C21_6 C10_6 1_555 1_555
C22_6 C21_6 1_555 1_555
C23_6 C16_6 1_555 1_555
C24_6 C19_6 1_555 1_555
C25_6 C20_6 1_555 1_555
H39_6 C25_6 1_555 1_555
H40_6 C25_6 1_555 1_555
H41_6 C25_6 1_555 1_555
C26_6 C22_6 1_555 1_555
H42_6 C26_6 1_555 1_555
H43_6 C26_6 1_555 1_555
H44_6 C26_6 1_555 1_555
C54_6 C51_6 1_555 1_555
H66_6 C54_6 1_555 1_555
H67_6 C54_6 1_555 1_555
H68_6 C54_6 1_555 1_555
C5_6 C6_6 1_555 1_555
C11_6 C12_6 1_555 1_555
C17_6 C18_6 1_555 1_555
C20_6 C21_6 1_555 1_555
C22_6 C23_6 1_555 1_555
C23_6 C24_6 1_555 1_555
C32_6 C31_6 1_555 1_555
H50_6 C32_6 1_555 1_555
C46_6 C31_6 1_555 1_555
C47_6 C46_6 1_555 1_555
P2_7 O7_7 1_555 1_555
Mg2_2 O7_7 1_555 1_555
O9_7 P2_7 1_555 1_555
H9_7 O9_7 1_555 1_555
O11_7 P2_7 1_555 1_555
C2_7 C1_7 1_555 1_555
C3_7 C2_7 1_555 1_555
H28_7 C3_7 1_555 1_555
C4_7 C3_7 1_555 1_555
C5_7 C4_7 1_555 1_555
H29_7 C5_7 1_555 1_555
C6_7 C1_7 1_555 1_555
H30_7 C6_7 1_555 1_555
C7_7 P2_7 1_555 1_555
C8_7 C7_7 1_555 1_555
H31_7 C8_7 1_555 1_555
C9_7 C8_7 1_555 1_555
H32_7 C9_7 1_555 1_555
C10_7 C9_7 1_555 1_555
C11_7 C10_7 1_555 1_555
H33_7 C11_7 1_555 1_555
C12_7 C7_7 1_555 1_555
H34_7 C12_7 1_555 1_555
C17_7 C16_7 1_555 1_555
H37_7 C17_7 1_555 1_555
C19_7 C4_7 1_555 1_555
C20_7 C19_7 1_555 1_555
C21_7 C10_7 1_555 1_555
C22_7 C21_7 1_555 1_555
C23_7 C16_7 1_555 1_555
C24_7 C19_7 1_555 1_555
C25_7 C20_7 1_555 1_555
H39_7 C25_7 1_555 1_555
H40_7 C25_7 1_555 1_555
H41_7 C25_7 1_555 1_555
C26_7 C22_7 1_555 1_555
H42_7 C26_7 1_555 1_555
H43_7 C26_7 1_555 1_555
H44_7 C26_7 1_555 1_555
C54_7 C51_7 1_555 1_555
H66_7 C54_7 1_555 1_555
H67_7 C54_7 1_555 1_555
H68_7 C54_7 1_555 1_555
Mg6_4 O3_4 1_555 1_555
O30_4 Mg2_2 1_555 1_555
C5_7 C6_7 1_555 1_555
C11_7 C12_7 1_555 1_555
C17_7 C18_7 1_555 1_555
C20_7 C21_7 1_555 1_555
C22_7 C23_7 1_555 1_555
C23_7 C24_7 1_555 1_555
C32_7 C31_7 1_555 1_555
H50_7 C32_7 1_555 1_555
C46_7 C31_7 1_555 1_555
C47_7 C46_7 1_555 1_555
P4_6 O19_6 1_555 1_555
H12_6 O12_6 1_555 1_555
H13_6 O12_6 1_555 1_555
O21_6 P4_6 1_555 1_555
H23_6 O21_6 1_555 1_555
O23_6 P4_6 1_555 1_555
C28_6 P4_6 1_555 1_555
C29_6 C28_6 1_555 1_555
H48_6 C29_6 1_555 1_555
C30_6 C29_6 1_555 1_555
H49_6 C30_6 1_555 1_555
C31_8 C30_6 1_555 1_555
C32_8 C31_8 1_555 1_555
H50_8 C32_8 1_555 1_555
C33_6 C28_6 1_555 1_555
H51_6 C33_6 1_555 1_555
C46_8 C31_8 1_555 1_555
C47_8 C46_8 1_555 1_555
C52_6 C47_8 1_555 1_555
H61_6 C52_6 1_555 1_555
H62_6 C52_6 1_555 1_555
C32_8 C33_6 1_555 1_555
H9_8 O9_8 1_555 1_555
P1_6 O1_6 1_555 1_555
P2_8 O7_8 1_555 1_555
Mg1_6 O1_6 1_555 1_555
O2_6 Mg1_6 1_555 1_555
H1_6 O2_6 1_555 1_555
H2_6 O2_6 1_555 1_555
O30_4 P1_6 1_555 1_555
O4_6 Mg1_6 1_555 1_555
H3_6 O4_6 1_555 1_555
H4_6 O4_6 1_555 1_555
O31_4 P1_6 1_555 1_555
O6_5 Mg1_6 1_555 1_555
H5_5 O6_5 1_555 1_555
H6_5 O6_5 1_555 1_555
O8_5 Mg1_6 1_555 1_555
H7_5 O8_5 1_555 1_555
H8_5 O8_5 1_555 1_555
O10_5 Mg1_6 1_555 1_555
H10_5 O10_5 1_555 1_555
H11_5 O10_5 1_555 1_555
O11_8 P2_8 1_555 1_555
C1_8 P1_6 1_555 1_555
C2_8 C1_8 1_555 1_555
H27_6 C2_8 1_555 1_555
C3_8 C2_8 1_555 1_555
H28_8 C3_8 1_555 1_555
C4_8 C3_8 1_555 1_555
C5_8 C4_8 1_555 1_555
H29_8 C5_8 1_555 1_555
C6_8 C1_8 1_555 1_555
H30_8 C6_8 1_555 1_555
C7_8 P2_8 1_555 1_555
C8_8 C7_8 1_555 1_555
H31_8 C8_8 1_555 1_555
C9_8 C8_8 1_555 1_555
H32_8 C9_8 1_555 1_555
C10_8 C9_8 1_555 1_555
C11_8 C10_8 1_555 1_555
H33_8 C11_8 1_555 1_555
C12_8 C7_8 1_555 1_555
H34_8 C12_8 1_555 1_555
C14_6 C13_6 1_555 1_555
H35_6 C14_6 1_555 1_555
C15_6 C14_6 1_555 1_555
H36_6 C15_6 1_555 1_555
C16_8 C15_6 1_555 1_555
C17_8 C16_8 1_555 1_555
H37_8 C17_8 1_555 1_555
C18_8 C13_6 1_555 1_555
C19_8 C4_8 1_555 1_555
C20_8 C19_8 1_555 1_555
C21_8 C10_8 1_555 1_555
C22_8 C21_8 1_555 1_555
C23_8 C16_8 1_555 1_555
C24_8 C19_8 1_555 1_555
C25_8 C20_8 1_555 1_555
H39_8 C25_8 1_555 1_555
H40_8 C25_8 1_555 1_555
H41_8 C25_8 1_555 1_555
C26_8 C22_8 1_555 1_555
H42_8 C26_8 1_555 1_555
H43_8 C26_8 1_555 1_555
H44_8 C26_8 1_555 1_555
C27_6 C24_8 1_555 1_555
H45_6 C27_6 1_555 1_555
H46_6 C27_6 1_555 1_555
H47_6 C27_6 1_555 1_555
C54_8 C51_8 1_555 1_555
H66_8 C54_8 1_555 1_555
H67_8 C54_8 1_555 1_555
H68_8 C54_8 1_555 1_555
C5_8 C6_8 1_555 1_555
C11_8 C12_8 1_555 1_555
C17_8 C18_8 1_555 1_555
C20_8 C21_8 1_555 1_555
C22_8 C23_8 1_555 1_555
C23_8 C24_8 1_555 1_555
P1_7 O1_7 1_555 1_555
Mg1_7 O1_7 1_555 1_555
O2_7 Mg1_7 1_555 1_555
H1_7 O2_7 1_555 1_555
H2_7 O2_7 1_555 1_555
O4_7 Mg1_7 1_555 1_555
H3_7 O4_7 1_555 1_555
H4_7 O4_7 1_555 1_555
O6_6 Mg1_7 1_555 1_555
H5_6 O6_6 1_555 1_555
H6_6 O6_6 1_555 1_555
O8_6 Mg1_7 1_555 1_555
H7_6 O8_6 1_555 1_555
H8_6 O8_6 1_555 1_555
O10_6 Mg1_7 1_555 1_555
H10_6 O10_6 1_555 1_555
H11_6 O10_6 1_555 1_555
C14_7 C13_7 1_555 1_555
H35_7 C14_7 1_555 1_555
C15_7 C14_7 1_555 1_555
H36_7 C15_7 1_555 1_555
H45_7 C27_7 1_555 1_555
H46_7 C27_7 1_555 1_555
H47_7 C27_7 1_555 1_555
P4_7 O19_7 1_555 1_555
H12_7 O12_7 1_555 1_555
H13_7 O12_7 1_555 1_555
O21_7 P4_7 1_555 1_555
H23_7 O21_7 1_555 1_555
O23_7 P4_7 1_555 1_555
C28_7 P4_7 1_555 1_555
C29_7 C28_7 1_555 1_555
H48_7 C29_7 1_555 1_555
C30_7 C29_7 1_555 1_555
H49_7 C30_7 1_555 1_555
C33_7 C28_7 1_555 1_555
H51_7 C33_7 1_555 1_555
H61_7 C52_7 1_555 1_555
H62_7 C52_7 1_555 1_555
H5_7 O6_7 1_555 1_555
H6_7 O6_7 1_555 1_555
H7_7 O8_7 1_555 1_555
H8_7 O8_7 1_555 1_555
H10_7 O10_7 1_555 1_555
H11_7 O10_7 1_555 1_555
P1_8 O1_8 1_555 1_555
Mg1_8 O1_8 1_555 1_555
O2_8 Mg1_8 1_555 1_555
H1_8 O2_8 1_555 1_555
H2_8 O2_8 1_555 1_555
O4_8 Mg1_8 1_555 1_555
H3_8 O4_8 1_555 1_555
H4_8 O4_8 1_555 1_555
O6_8 Mg1_8 1_555 1_555
H5_8 O6_8 1_555 1_555
H6_8 O6_8 1_555 1_555
O8_8 Mg1_8 1_555 1_555
H7_8 O8_8 1_555 1_555
H8_8 O8_8 1_555 1_555
O10_8 Mg1_8 1_555 1_555
H10_8 O10_8 1_555 1_555
H11_8 O10_8 1_555 1_555
C14_8 C13_8 1_555 1_555
H35_8 C14_8 1_555 1_555
C15_8 C14_8 1_555 1_555
H36_8 C15_8 1_555 1_555
H45_8 C27_8 1_555 1_555
H46_8 C27_8 1_555 1_555
H47_8 C27_8 1_555 1_555
P4_8 O19_8 1_555 1_555
H12_8 O12_8 1_555 1_555
H13_8 O12_8 1_555 1_555
O21_8 P4_8 1_555 1_555
H23_8 O21_8 1_555 1_555
O23_8 P4_8 1_555 1_555
C28_8 P4_8 1_555 1_555
C29_8 C28_8 1_555 1_555
H48_8 C29_8 1_555 1_555
C30_8 C29_8 1_555 1_555
H49_8 C30_8 1_555 1_555
C33_8 C28_8 1_555 1_555
H51_8 C33_8 1_555 1_555
H61_8 C52_8 1_555 1_555
H62_8 C52_8 1_555 1_555

#END
