
###############################################################################
#
# This file contains modified crystal structure data generated from the
# MOF subset of the Cambridge Structural Database (CSD) v543 
# hosted by the Cambridge Crystallographic Data Centre (CCDC).
#
# This work is licensed under the Creative Commons
# Attribution-NonCommercial-ShareAlike 4.0 International License.
# To view a copy of this license, visit
# http://creativecommons.org/licenses/by-nc-sa/4.0/
# or send a letter to
# Creative Commons, PO Box 1866, Mountain View, CA 94042, USA.
#
# CIF created using the CSD Python API on 29 September 2022
# The structure has been converted into the P1 space group
# The structure has a 3D framework
# The original CSD entry GECKUX is in the monoclinic crystal system
# The framework has been calculated to contain at least 10.0% void space
# The void calculation uses a probe of radius 1.32A, grid spacing 0.4
#
###############################################################################

data_GECKUX
_chemical_formula_moiety         '(C152 H104 Co16 N48 O60)n'
_symmetry_cell_setting           triclinic
_symmetry_space_group_name_H-M   'P 1'
_symmetry_Int_Tables_number      1
_space_group_name_Hall           'P 1'
loop_
_symmetry_equiv_pos_site_id
_symmetry_equiv_pos_as_xyz
1 x,y,z
_cell_length_a                   29.293(11)
_cell_length_b                   11.127(4)
_cell_length_c                   19.674(7)
_cell_angle_alpha                90
_cell_angle_beta                 95.699(8)
_cell_angle_gamma                90
_cell_volume                     6380.91
loop_
_atom_site_label
_atom_site_type_symbol
_atom_site_fract_x
_atom_site_fract_y
_atom_site_fract_z
O1 O 0.1433(6) 0.4496(14) 0.5070(8)
O2 O 0.2581(3) 0.5575(6) 0.0826(4)
O3 O 0.2838(3) 0.4315(6) 0.0078(3)
C1 C 0.2681(4) 0.4574(11) 0.0638(5)
C2 C 0.2624(4) 0.3558(10) 0.1125(5)
N1 N 0.2477(3) 0.1460(7) 0.1299(4)
Co1 Co 0.21642(5) 0.22736(13) 0.43534(7)
Co2 Co 0.27111(5) 0.47053(13) 0.41793(6)
O4 O 0.2186(3) 0.2374(7) 0.3278(4)
O5 O 0.2607(3) 0.4042(7) 0.3203(4)
N4 N 0.1480(3) 0.1712(10) 0.4161(5)
C7 C 0.1158(5) 0.1911(15) 0.4575(8)
H4 H 0.1201 0.2326 0.4998
N5 N 0.0761(4) 0.1435(14) 0.4302(7)
C10 C 0.0335(6) 0.1962(17) 0.5247(8)
H7 H 0.0611 0.2270 0.5476
C11 C 0.0843(6) 0.0889(15) 0.3752(8)
H8 H 0.0621 0.0472 0.3455
C12 C 0.1306(5) 0.1003(15) 0.3659(8)
H9 H 0.1464 0.0648 0.3310
C13 C 0.0329(6) 0.1527(17) 0.4593(8)
C14 C 0.2455(4) 0.2856(12) 0.2223(6)
C15 C 0.2606(4) 0.2373(10) 0.0920(5)
H10 H 0.2692 0.2192 0.0478
C16 C 0.2399(4) 0.1731(12) 0.1953(6)
H11 H 0.2302 0.1107 0.2235
C17 C 0.2399(4) 0.3091(12) 0.2952(6)
C18 C 0.2560(4) 0.3779(11) 0.1792(5)
H12 H 0.2588 0.4577 0.1963
O6 O 0.2824(3) 0.3004(6) 0.4596(4)
O7 O 0.2011(3) 0.4177(7) 0.4388(4)
N6 N 0.1729(6) 0.4750(14) 0.4668(10)
O8 O 0.1652(6) 0.5855(13) 0.4716(8)
O9 O 0.2419(3) 0.0575(6) 0.4174(4)
O10 O 0.2838(3) 0.5685(6) 0.5078(3)
N7 N 0.2523(3) 0.6460(7) 0.3701(4)
N8 N 0.3406(3) 0.5021(9) 0.3996(5)
Co3 Co 0.28358(5) 0.72736(13) 0.06466(7)
Co4 Co 0.28358(5) 0.27264(13) 0.56466(7)
O11 O 0.2176(3) 0.1996(6) 0.5404(4)
Co7 Co 0.27111(5) 0.52947(13) 0.91793(6)
Co6 Co 0.22889(5) 0.97053(13) 0.08207(6)
N2 N 0.8406(3) 0.0021(9) 0.3996(5)
C3 C 0.8703(5) 0.0605(16) 0.4389(8)
H1 H 0.8634 0.0950 0.4809
N3 N 0.9115(4) 0.0692(16) 0.4165(7)
C4 C 0.9526(6) 0.1125(17) 0.4550(8)
C5 C 0.9944(5) 0.1011(16) 0.4267(8)
H2 H 0.9960 0.0579 0.3854
C6 C 0.9064(6) 0.0165(17) 0.3546(9)
H3 H 0.9280 0.0136 0.3218
C9 C 0.9512(6) 0.1506(16) 0.5242(8)
H6 H 0.9237 0.1461 0.5460
C19 C 0.9919(6) 0.1948(17) 0.5585(9)
H13 H 0.9922 0.2239 0.6039
C8 C 0.8631(6) 0.9680(16) 0.3491(9)
H5 H 0.8511 0.9164 0.3132
Co5 Co 0.77111(5) 0.97053(13) 0.41793(6)
N2_2 N 0.1594(3) 0.0021(9) 0.1004(5)
C3_2 C 0.1297(5) 0.0605(16) 0.0611(8)
H1_2 H 0.1366 0.0950 0.0191
N3_2 N 0.0885(4) 0.0692(16) 0.0835(7)
C4_2 C 0.0474(6) 0.1125(17) 0.0450(8)
C5_2 C 0.0056(5) 0.1011(16) 0.0733(8)
H2_2 H 0.0040 0.0579 0.1146
C6_2 C 0.0936(6) 0.0165(17) 0.1454(9)
H3_2 H 0.0720 0.0136 0.1782
C8_2 C 0.1369(6) 0.9680(16) 0.1509(9)
H5_2 H 0.1489 0.9164 0.1868
O2_2 O 0.7419(3) 0.5575(6) 0.4174(4)
O3_2 O 0.7162(3) 0.4315(6) 0.4922(3)
C1_2 C 0.7319(4) 0.4574(11) 0.4362(5)
C2_2 C 0.7376(4) 0.3558(10) 0.3875(5)
N1_2 N 0.7523(3) 0.1460(7) 0.3701(4)
Co1_2 Co 0.78358(5) 0.22736(13) 0.06466(7)
Co2_2 Co 0.72889(5) 0.47053(13) 0.08207(6)
O4_2 O 0.7814(3) 0.2374(7) 0.1722(4)
O5_2 O 0.7393(3) 0.4042(7) 0.1797(4)
N4_2 N 0.8520(3) 0.1712(10) 0.0839(5)
C7_2 C 0.8842(5) 0.1911(15) 0.0425(8)
H4_2 H 0.8799 0.2326 0.0002
N5_2 N 0.9239(4) 0.1435(14) 0.0698(7)
C11_2 C 0.9157(6) 0.0889(15) 0.1248(8)
H8_2 H 0.9379 0.0472 0.1545
C12_2 C 0.8694(5) 0.1003(15) 0.1341(8)
H9_2 H 0.8536 0.0648 0.1690
C13_2 C 0.9671(6) 0.1527(17) 0.0407(8)
C14_2 C 0.7545(4) 0.2856(12) 0.2777(6)
C15_2 C 0.7394(4) 0.2373(10) 0.4080(5)
H10_2 H 0.7308 0.2192 0.4522
C16_2 C 0.7601(4) 0.1731(12) 0.3047(6)
H11_2 H 0.7698 0.1107 0.2765
C17_2 C 0.7601(4) 0.3091(12) 0.2048(6)
C18_2 C 0.7440(4) 0.3779(11) 0.3208(5)
H12_2 H 0.7412 0.4577 0.3037
O6_2 O 0.7176(3) 0.3004(6) 0.0404(4)
O7_2 O 0.7989(3) 0.4177(7) 0.0612(4)
N6_2 N 0.8271(6) 0.4750(14) 0.0332(10)
O8_2 O 0.8348(6) 0.5855(13) 0.0284(8)
O9_2 O 0.7581(3) 0.0575(6) 0.0826(4)
N7_2 N 0.7477(3) 0.6460(7) 0.1299(4)
N8_2 N 0.6594(3) 0.5021(9) 0.1004(5)
Co3_2 Co 0.71642(5) 0.72736(13) 0.43534(7)
Co7_2 Co 0.72889(5) 0.52947(13) 0.58207(6)
O1_2 O 0.8567(6) 0.4496(14) 0.9930(8)
C10_2 C 0.9665(6) 0.1962(17) 0.9753(8)
H7_2 H 0.9389 0.2270 0.9524
O10_2 O 0.7162(3) 0.5685(6) 0.9922(3)
Co4_2 Co 0.71642(5) 0.27264(13) 0.93534(7)
O11_2 O 0.7824(3) 0.1996(6) 0.9596(4)
O8_3 O 0.6652(6) 0.0855(13) 0.4716(8)
O10_3 O 0.7838(3) 0.0685(6) 0.5078(3)
Co7_3 Co 0.77111(5) 0.02947(13) 0.91793(6)
O1_3 O 0.6433(6) 0.9496(14) 0.5070(8)
O3_3 O 0.7838(3) 0.9315(6) 0.0078(3)
C1_3 C 0.7681(4) 0.9574(11) 0.0638(5)
C2_3 C 0.7624(4) 0.8558(10) 0.1125(5)
C3_3 C 0.3703(5) 0.5605(16) 0.4389(8)
H1_3 H 0.3634 0.5950 0.4809
N3_3 N 0.4115(4) 0.5692(16) 0.4165(7)
C4_3 C 0.4526(6) 0.6125(17) 0.4550(8)
C5_3 C 0.4944(5) 0.6011(16) 0.4267(8)
H2_3 H 0.4960 0.5579 0.3854
O4_3 O 0.7186(3) 0.7374(7) 0.3278(4)
O5_3 O 0.7607(3) 0.9042(7) 0.3203(4)
N4_3 N 0.6480(3) 0.6712(10) 0.4161(5)
C6_3 C 0.4064(6) 0.5165(17) 0.3546(9)
H3_3 H 0.4280 0.5136 0.3218
C7_3 C 0.6158(5) 0.6911(15) 0.4575(8)
H4_3 H 0.6201 0.7326 0.4998
N5_3 N 0.5761(4) 0.6435(14) 0.4302(7)
C8_3 C 0.3631(6) 0.4680(16) 0.3491(9)
H5_3 H 0.3511 0.4164 0.3132
C9_2 C 0.4512(6) 0.6506(16) 0.5242(8)
H6_2 H 0.4237 0.6461 0.5460
C10_3 C 0.5335(6) 0.6962(17) 0.5247(8)
H7_3 H 0.5611 0.7270 0.5476
C11_3 C 0.5843(6) 0.5889(15) 0.3752(8)
H8_3 H 0.5621 0.5472 0.3455
C12_3 C 0.6306(5) 0.6003(15) 0.3659(8)
H9_3 H 0.6464 0.5648 0.3310
C13_3 C 0.5329(6) 0.6527(17) 0.4593(8)
C14_3 C 0.7455(4) 0.7856(12) 0.2223(6)
C15_3 C 0.7606(4) 0.7373(10) 0.0920(5)
H10_3 H 0.7692 0.7192 0.0478
C16_3 C 0.7399(4) 0.6731(12) 0.1953(6)
H11_3 H 0.7302 0.6107 0.2235
C17_3 C 0.7399(4) 0.8091(12) 0.2952(6)
C18_3 C 0.7560(4) 0.8779(11) 0.1792(5)
H12_3 H 0.7588 0.9577 0.1963
C19_2 C 0.4919(6) 0.6948(17) 0.5585(9)
H13_2 H 0.4922 0.7239 0.6039
O6_3 O 0.7824(3) 0.8004(6) 0.4596(4)
O7_3 O 0.7011(3) 0.9177(7) 0.4388(4)
N6_3 N 0.6729(6) 0.9750(14) 0.4668(10)
Co4_3 Co 0.78358(5) 0.77264(13) 0.56466(7)
O11_3 O 0.7176(3) 0.6996(6) 0.5404(4)
O8_4 O 0.3348(6) 0.0855(13) 0.0284(8)
Co7_4 Co 0.22889(5) 0.02947(13) 0.58207(6)
O10_4 O 0.2162(3) 0.0685(6) 0.9922(3)
O3_4 O 0.2162(3) 0.9315(6) 0.4922(3)
C1_4 C 0.2319(4) 0.9574(11) 0.4362(5)
C2_4 C 0.2376(4) 0.8558(10) 0.3875(5)
C3_4 C 0.6297(5) 0.5605(16) 0.0611(8)
H1_4 H 0.6366 0.5950 0.0191
N3_4 N 0.5885(4) 0.5692(16) 0.0835(7)
C4_4 C 0.5474(6) 0.6125(17) 0.0450(8)
C5_4 C 0.5056(5) 0.6011(16) 0.0733(8)
H2_4 H 0.5040 0.5579 0.1146
O4_4 O 0.2814(3) 0.7374(7) 0.1722(4)
O5_4 O 0.2393(3) 0.9042(7) 0.1797(4)
N4_4 N 0.3520(3) 0.6712(10) 0.0839(5)
C6_4 C 0.5936(6) 0.5165(17) 0.1454(9)
H3_4 H 0.5720 0.5136 0.1782
C7_4 C 0.3842(5) 0.6911(15) 0.0425(8)
H4_4 H 0.3799 0.7326 0.0002
N5_4 N 0.4239(4) 0.6435(14) 0.0698(7)
C8_4 C 0.6369(6) 0.4680(16) 0.1509(9)
H5_4 H 0.6489 0.4164 0.1868
C11_4 C 0.4157(6) 0.5889(15) 0.1248(8)
H8_4 H 0.4379 0.5472 0.1545
C12_4 C 0.3694(5) 0.6003(15) 0.1341(8)
H9_4 H 0.3536 0.5648 0.1690
C13_4 C 0.4671(6) 0.6527(17) 0.0407(8)
C14_4 C 0.2545(4) 0.7856(12) 0.2777(6)
C15_4 C 0.2394(4) 0.7373(10) 0.4080(5)
H10_4 H 0.2308 0.7192 0.4522
C16_4 C 0.2601(4) 0.6731(12) 0.3047(6)
H11_4 H 0.2698 0.6107 0.2765
C17_4 C 0.2601(4) 0.8091(12) 0.2048(6)
C18_4 C 0.2440(4) 0.8779(11) 0.3208(5)
H12_4 H 0.2412 0.9577 0.3037
O6_4 O 0.2176(3) 0.8004(6) 0.0404(4)
O7_4 O 0.2989(3) 0.9177(7) 0.0612(4)
N6_4 N 0.3271(6) 0.9750(14) 0.0332(10)
O1_4 O 0.3567(6) 0.9496(14) 0.9930(8)
C9_3 C 0.5488(6) 0.6506(16) 0.9758(8)
H6_3 H 0.5763 0.6461 0.9540
C10_4 C 0.4665(6) 0.6962(17) 0.9753(8)
H7_4 H 0.4389 0.7270 0.9524
C19_3 C 0.5081(6) 0.6948(17) 0.9415(9)
H13_3 H 0.5078 0.7239 0.8961
Co4_4 Co 0.21642(5) 0.77264(13) 0.93534(7)
O11_4 O 0.2824(3) 0.6996(6) 0.9596(4)
C8_5 C 0.1369(6) 0.0320(16) 0.6509(9)
H5_5 H 0.1489 0.0836 0.6868
N2_3 N 0.1594(3) 0.9979(9) 0.6004(5)
C3_5 C 0.1297(5) 0.9395(16) 0.5611(8)
H1_5 H 0.1366 0.9050 0.5191
N3_5 N 0.0885(4) 0.9308(16) 0.5835(7)
C4_5 C 0.0474(6) 0.8875(17) 0.5450(8)
C5_5 C 0.0056(5) 0.8989(16) 0.5733(8)
H2_5 H 0.0040 0.9421 0.6146
C6_5 C 0.0936(6) 0.9835(17) 0.6454(9)
H3_5 H 0.0720 0.9864 0.6782
C9_4 C 0.0488(6) 0.8494(16) 0.4758(8)
H6_4 H 0.0763 0.8539 0.4540
C19_4 C 0.0081(6) 0.8052(17) 0.4415(9)
H13_4 H 0.0078 0.7761 0.3961
O1_5 O 0.8567(6) 0.5504(14) 0.4930(8)
O2_3 O 0.7419(3) 0.4425(6) 0.9174(4)
C1_5 C 0.7319(4) 0.5426(11) 0.9362(5)
C2_5 C 0.7376(4) 0.6442(10) 0.8875(5)
N1_3 N 0.7523(3) 0.8540(7) 0.8701(4)
O4_5 O 0.7814(3) 0.7626(7) 0.6722(4)
O5_5 O 0.7393(3) 0.5958(7) 0.6797(4)
N4_5 N 0.8520(3) 0.8288(10) 0.5839(5)
C7_5 C 0.8842(5) 0.8089(15) 0.5425(8)
H4_5 H 0.8799 0.7674 0.5002
N5_5 N 0.9239(4) 0.8565(14) 0.5698(7)
C10_5 C 0.9665(6) 0.8038(17) 0.4753(8)
H7_5 H 0.9389 0.7730 0.4524
C11_5 C 0.9157(6) 0.9111(15) 0.6248(8)
H8_5 H 0.9379 0.9528 0.6545
C12_5 C 0.8694(5) 0.8997(15) 0.6341(8)
H9_5 H 0.8536 0.9352 0.6690
C13_5 C 0.9671(6) 0.8473(17) 0.5407(8)
C14_5 C 0.7545(4) 0.7144(12) 0.7777(6)
C15_5 C 0.7394(4) 0.7627(10) 0.9080(5)
H10_5 H 0.7308 0.7808 0.9522
C16_5 C 0.7601(4) 0.8269(12) 0.8047(6)
H11_5 H 0.7698 0.8893 0.7765
C17_5 C 0.7601(4) 0.6909(12) 0.7048(6)
C18_5 C 0.7440(4) 0.6221(11) 0.8208(5)
H12_5 H 0.7412 0.5423 0.8037
O7_5 O 0.7989(3) 0.5823(7) 0.5612(4)
N6_5 N 0.8271(6) 0.5250(14) 0.5332(10)
O8_5 O 0.8348(6) 0.4145(13) 0.5284(8)
O9_3 O 0.7581(3) 0.9425(6) 0.5826(4)
N7_3 N 0.7477(3) 0.3540(7) 0.6299(4)
N8_3 N 0.6594(3) 0.4979(9) 0.6004(5)
O1_6 O 0.1433(6) 0.5504(14) 0.0070(8)
C10_6 C 0.0335(6) 0.8038(17) 0.0247(8)
H7_6 H 0.0611 0.7730 0.0476
O2_4 O 0.2581(3) 0.4425(6) 0.5826(4)
C1_6 C 0.2681(4) 0.5426(11) 0.5638(5)
C2_6 C 0.2624(4) 0.6442(10) 0.6125(5)
N1_4 N 0.2477(3) 0.8540(7) 0.6299(4)
O4_6 O 0.2186(3) 0.7626(7) 0.8278(4)
O5_6 O 0.2607(3) 0.5958(7) 0.8203(4)
N4_6 N 0.1480(3) 0.8288(10) 0.9161(5)
C7_6 C 0.1158(5) 0.8089(15) 0.9575(8)
H4_6 H 0.1201 0.7674 0.9998
N5_6 N 0.0761(4) 0.8565(14) 0.9302(7)
C11_6 C 0.0843(6) 0.9111(15) 0.8752(8)
H8_6 H 0.0621 0.9528 0.8455
C12_6 C 0.1306(5) 0.8997(15) 0.8659(8)
H9_6 H 0.1464 0.9352 0.8310
C13_6 C 0.0329(6) 0.8473(17) 0.9593(8)
C14_6 C 0.2455(4) 0.7144(12) 0.7223(6)
C15_6 C 0.2606(4) 0.7627(10) 0.5920(5)
H10_6 H 0.2692 0.7808 0.5478
C16_6 C 0.2399(4) 0.8269(12) 0.6953(6)
H11_6 H 0.2302 0.8893 0.7235
C17_6 C 0.2399(4) 0.6909(12) 0.7952(6)
C18_6 C 0.2560(4) 0.6221(11) 0.6792(5)
H12_6 H 0.2588 0.5423 0.6963
O7_6 O 0.2011(3) 0.5823(7) 0.9388(4)
N6_6 N 0.1729(6) 0.5250(14) 0.9668(10)
O8_6 O 0.1652(6) 0.4145(13) 0.9716(8)
O9_4 O 0.2419(3) 0.9425(6) 0.9174(4)
N7_4 N 0.2523(3) 0.3540(7) 0.8701(4)
N8_4 N 0.3406(3) 0.4979(9) 0.8996(5)
C8_6 C 0.8631(6) 0.0320(16) 0.8491(9)
H5_6 H 0.8511 0.0836 0.8132
N2_4 N 0.8406(3) 0.9979(9) 0.8996(5)
C3_6 C 0.8703(5) 0.9395(16) 0.9389(8)
H1_6 H 0.8634 0.9050 0.9809
N3_6 N 0.9115(4) 0.9308(16) 0.9165(7)
C4_6 C 0.9526(6) 0.8875(17) 0.9550(8)
C5_6 C 0.9944(5) 0.8989(16) 0.9267(8)
H2_6 H 0.9960 0.9421 0.8854
C6_6 C 0.9064(6) 0.9835(17) 0.8546(9)
H3_6 H 0.9280 0.9864 0.8218
O1_7 O 0.3567(6) 0.0504(14) 0.4930(8)
C1_7 C 0.2319(4) 0.0426(11) 0.9362(5)
C2_7 C 0.2376(4) 0.1442(10) 0.8875(5)
C3_7 C 0.6297(5) 0.4395(16) 0.5611(8)
H1_7 H 0.6366 0.4050 0.5191
N3_7 N 0.5885(4) 0.4308(16) 0.5835(7)
C4_7 C 0.5474(6) 0.3875(17) 0.5450(8)
C5_7 C 0.5056(5) 0.3989(16) 0.5733(8)
H2_7 H 0.5040 0.4421 0.6146
O4_7 O 0.2814(3) 0.2626(7) 0.6722(4)
O5_7 O 0.2393(3) 0.0958(7) 0.6797(4)
N4_7 N 0.3520(3) 0.3288(10) 0.5839(5)
C6_7 C 0.5936(6) 0.4835(17) 0.6454(9)
H3_7 H 0.5720 0.4864 0.6782
C7_7 C 0.3842(5) 0.3089(15) 0.5425(8)
H4_7 H 0.3799 0.2674 0.5002
N5_7 N 0.4239(4) 0.3565(14) 0.5698(7)
C8_7 C 0.6369(6) 0.5320(16) 0.6509(9)
H5_7 H 0.6489 0.5836 0.6868
C9_5 C 0.5488(6) 0.3494(16) 0.4758(8)
H6_5 H 0.5763 0.3539 0.4540
C10_7 C 0.4665(6) 0.3038(17) 0.4753(8)
H7_7 H 0.4389 0.2730 0.4524
C11_7 C 0.4157(6) 0.4111(15) 0.6248(8)
H8_7 H 0.4379 0.4528 0.6545
C12_7 C 0.3694(5) 0.3997(15) 0.6341(8)
H9_7 H 0.3536 0.4352 0.6690
C13_7 C 0.4671(6) 0.3473(17) 0.5407(8)
C14_7 C 0.2545(4) 0.2144(12) 0.7777(6)
C15_7 C 0.2394(4) 0.2627(10) 0.9080(5)
H10_7 H 0.2308 0.2808 0.9522
C16_7 C 0.2601(4) 0.3269(12) 0.8047(6)
H11_7 H 0.2698 0.3893 0.7765
C17_7 C 0.2601(4) 0.1909(12) 0.7048(6)
C18_7 C 0.2440(4) 0.1221(11) 0.8208(5)
H12_7 H 0.2412 0.0423 0.8037
C19_5 C 0.5081(6) 0.3052(17) 0.4415(9)
H13_5 H 0.5078 0.2761 0.3961
O7_7 O 0.2989(3) 0.0823(7) 0.5612(4)
N6_7 N 0.3271(6) 0.0250(14) 0.5332(10)
O8_7 O 0.3348(6) 0.9145(13) 0.5284(8)
O1_8 O 0.6433(6) 0.0504(14) 0.0070(8)
C9_6 C 0.4512(6) 0.3494(16) 0.0242(8)
H6_6 H 0.4237 0.3539 0.0460
C10_8 C 0.5335(6) 0.3038(17) 0.0247(8)
H7_8 H 0.5611 0.2730 0.0476
C19_6 C 0.4919(6) 0.3052(17) 0.0585(9)
H13_6 H 0.4922 0.2761 0.1039
C1_8 C 0.7681(4) 0.0426(11) 0.5638(5)
C2_8 C 0.7624(4) 0.1442(10) 0.6125(5)
C3_8 C 0.3703(5) 0.4395(16) 0.9389(8)
H1_8 H 0.3634 0.4050 0.9809
N3_8 N 0.4115(4) 0.4308(16) 0.9165(7)
C4_8 C 0.4526(6) 0.3875(17) 0.9550(8)
C5_8 C 0.4944(5) 0.3989(16) 0.9267(8)
H2_8 H 0.4960 0.4421 0.8854
O4_8 O 0.7186(3) 0.2626(7) 0.8278(4)
O5_8 O 0.7607(3) 0.0958(7) 0.8203(4)
N4_8 N 0.6480(3) 0.3288(10) 0.9161(5)
C6_8 C 0.4064(6) 0.4835(17) 0.8546(9)
H3_8 H 0.4280 0.4864 0.8218
C7_8 C 0.6158(5) 0.3089(15) 0.9575(8)
H4_8 H 0.6201 0.2674 0.9998
N5_8 N 0.5761(4) 0.3565(14) 0.9302(7)
C8_8 C 0.3631(6) 0.5320(16) 0.8491(9)
H5_8 H 0.3511 0.5836 0.8132
C11_8 C 0.5843(6) 0.4111(15) 0.8752(8)
H8_8 H 0.5621 0.4528 0.8455
C12_8 C 0.6306(5) 0.3997(15) 0.8659(8)
H9_8 H 0.6464 0.4352 0.8310
C13_8 C 0.5329(6) 0.3473(17) 0.9593(8)
C14_8 C 0.7455(4) 0.2144(12) 0.7223(6)
C15_8 C 0.7606(4) 0.2627(10) 0.5920(5)
H10_8 H 0.7692 0.2808 0.5478
C16_8 C 0.7399(4) 0.3269(12) 0.6953(6)
H11_8 H 0.7302 0.3893 0.7235
C17_8 C 0.7399(4) 0.1909(12) 0.7952(6)
C18_8 C 0.7560(4) 0.1221(11) 0.6792(5)
H12_8 H 0.7588 0.0423 0.6963
O7_8 O 0.7011(3) 0.0823(7) 0.9388(4)
N6_8 N 0.6729(6) 0.0250(14) 0.9668(10)
O8_8 O 0.6652(6) 0.9145(13) 0.9716(8)
C9_7 C 0.0488(6) 0.1506(16) 0.9758(8)
H6_7 H 0.0763 0.1461 0.9540
C19_7 C 0.0081(6) 0.1948(17) 0.9415(9)
H13_7 H 0.0078 0.2239 0.8961
C9_8 C 0.9512(6) 0.8494(16) 0.0242(8)
H6_8 H 0.9237 0.8539 0.0460
C19_8 C 0.9919(6) 0.8052(17) 0.0585(9)
H13_8 H 0.9922 0.7761 0.1039
loop_
_geom_bond_atom_site_label_1
_geom_bond_atom_site_label_2
_geom_bond_site_symmetry_1
_geom_bond_site_symmetry_2
O1 N6 1_555 1_555
O2 C1 1_555 1_555
O3 C1 1_555 1_555
C1 C2 1_555 1_555
C2 C15 1_555 1_555
N1 C15 1_555 1_555
Co1 O4 1_555 1_555
Co2 O5 1_555 1_555
O4 C17 1_555 1_555
O5 C17 1_555 1_555
N4 Co1 1_555 1_555
C7 N4 1_555 1_555
H4 C7 1_555 1_555
N5 C7 1_555 1_555
C10 H7 1_555 1_555
C11 N5 1_555 1_555
H8 C11 1_555 1_555
C12 N4 1_555 1_555
H9 C12 1_555 1_555
C14 C16 1_555 1_555
C15 H10 1_555 1_555
C16 N1 1_555 1_555
H11 C16 1_555 1_555
C17 C14 1_555 1_555
C18 C2 1_555 1_555
H12 C18 1_555 1_555
O6 Co1 1_555 1_555
O7 Co1 1_555 1_555
N6 O7 1_555 1_555
O8 N6 1_555 1_555
O9 Co1 1_555 1_555
O10 Co2 1_555 1_555
N7 Co2 1_555 1_555
N8 Co2 1_555 1_555
Co3 O2 1_555 1_555
Co4 O6 1_555 1_555
O11 Co1 1_555 1_555
Co2 O6 1_555 1_555
Co2 O7 1_555 1_555
N5 C13 1_555 1_555
C10 C13 1_555 1_555
C11 C12 1_555 1_555
C14 C18 1_555 1_555
Co4 O11 1_555 1_555
N2 C3 1_555 1_555
C3 H1 1_555 1_555
N3 C3 1_555 1_555
C4 N3 1_555 1_555
C5 C4 1_555 1_555
H2 C5 1_555 1_555
C6 N3 1_555 1_555
H3 C6 1_555 1_555
C9 C4 1_555 1_555
H6 C9 1_555 1_555
C19 C9 1_555 1_555
H13 C19 1_555 1_555
H5 C8 1_555 1_555
N2_2 C3_2 1_555 1_555
C3_2 H1_2 1_555 1_555
N3_2 C3_2 1_555 1_555
C4_2 N3_2 1_555 1_555
C5_2 C4_2 1_555 1_555
H2_2 C5_2 1_555 1_555
C6_2 N3_2 1_555 1_555
H3_2 C6_2 1_555 1_555
H5_2 C8_2 1_555 1_555
O2_2 C1_2 1_555 1_555
O3_2 C1_2 1_555 1_555
C1_2 C2_2 1_555 1_555
C2_2 C15_2 1_555 1_555
N1_2 C15_2 1_555 1_555
Co1_2 O4_2 1_555 1_555
Co2_2 O5_2 1_555 1_555
O4_2 C17_2 1_555 1_555
O5_2 C17_2 1_555 1_555
N4_2 Co1_2 1_555 1_555
C7_2 N4_2 1_555 1_555
H4_2 C7_2 1_555 1_555
N5_2 C7_2 1_555 1_555
C11_2 N5_2 1_555 1_555
H8_2 C11_2 1_555 1_555
C12_2 N4_2 1_555 1_555
H9_2 C12_2 1_555 1_555
C14_2 C16_2 1_555 1_555
C15_2 H10_2 1_555 1_555
C16_2 N1_2 1_555 1_555
H11_2 C16_2 1_555 1_555
C17_2 C14_2 1_555 1_555
C18_2 C2_2 1_555 1_555
H12_2 C18_2 1_555 1_555
O6_2 Co1_2 1_555 1_555
O7_2 Co1_2 1_555 1_555
N6_2 O7_2 1_555 1_555
O8_2 N6_2 1_555 1_555
O9_2 Co1_2 1_555 1_555
N7_2 Co2_2 1_555 1_555
N8_2 Co2_2 1_555 1_555
Co3_2 O2_2 1_555 1_555
Co7_2 O3_2 1_555 1_555
Co2_2 O6_2 1_555 1_555
Co2_2 O7_2 1_555 1_555
N5_2 C13_2 1_555 1_555
C11_2 C12_2 1_555 1_555
C14_2 C18_2 1_555 1_555
C10_2 H7_2 1_555 1_555
Co4_2 O11_2 1_555 1_555
O1_3 N6_3 1_555 1_555
O3_3 C1_3 1_555 1_555
C1_3 C2_3 1_555 1_555
C2_3 C15_3 1_555 1_555
N7_2 C15_3 1_555 1_555
N8 C3_3 1_555 1_555
C3_3 H1_3 1_555 1_555
N3_3 C3_3 1_555 1_555
C4_3 N3_3 1_555 1_555
C5_3 C4_3 1_555 1_555
H2_3 C5_3 1_555 1_555
Co3_2 O4_3 1_555 1_555
Co5 O5_3 1_555 1_555
O4_3 C17_3 1_555 1_555
O5_3 C17_3 1_555 1_555
N4_3 Co3_2 1_555 1_555
C6_3 N3_3 1_555 1_555
H3_3 C6_3 1_555 1_555
C7_3 N4_3 1_555 1_555
H4_3 C7_3 1_555 1_555
N5_3 C7_3 1_555 1_555
C8_3 N8 1_555 1_555
H5_3 C8_3 1_555 1_555
C9_2 C4_3 1_555 1_555
H6_2 C9_2 1_555 1_555
C10_3 H7_3 1_555 1_555
C11_3 N5_3 1_555 1_555
H8_3 C11_3 1_555 1_555
C12_3 N4_3 1_555 1_555
H9_3 C12_3 1_555 1_555
C13_3 C5_3 1_555 1_555
C14_3 C16_3 1_555 1_555
C15_3 H10_3 1_555 1_555
C16_3 N7_2 1_555 1_555
H11_3 C16_3 1_555 1_555
C17_3 C14_3 1_555 1_555
C18_3 C2_3 1_555 1_555
H12_3 C18_3 1_555 1_555
C19_2 C9_2 1_555 1_555
H13_2 C19_2 1_555 1_555
O6_3 Co3_2 1_555 1_555
O7_3 Co3_2 1_555 1_555
N6_3 O7_3 1_555 1_555
Co4_3 O6_3 1_555 1_555
O11_3 Co3_2 1_555 1_555
Co5 O6_3 1_555 1_555
Co5 O7_3 1_555 1_555
C6_3 C8_3 1_555 1_555
N5_3 C13_3 1_555 1_555
C10_3 C13_3 1_555 1_555
C10_3 C19_2 1_555 1_555
C11_3 C12_3 1_555 1_555
C14_3 C18_3 1_555 1_555
Co4_3 O11_3 1_555 1_555
O3_4 C1_4 1_555 1_555
C1_4 C2_4 1_555 1_555
C2_4 C15_4 1_555 1_555
N7 C15_4 1_555 1_555
N8_2 C3_4 1_555 1_555
C3_4 H1_4 1_555 1_555
N3_4 C3_4 1_555 1_555
C4_4 N3_4 1_555 1_555
C5_4 C4_4 1_555 1_555
H2_4 C5_4 1_555 1_555
Co3 O4_4 1_555 1_555
Co6 O5_4 1_555 1_555
O4_4 C17_4 1_555 1_555
O5_4 C17_4 1_555 1_555
N4_4 Co3 1_555 1_555
C6_4 N3_4 1_555 1_555
H3_4 C6_4 1_555 1_555
C7_4 N4_4 1_555 1_555
H4_4 C7_4 1_555 1_555
N5_4 C7_4 1_555 1_555
C8_4 N8_2 1_555 1_555
H5_4 C8_4 1_555 1_555
C11_4 N5_4 1_555 1_555
H8_4 C11_4 1_555 1_555
C12_4 N4_4 1_555 1_555
H9_4 C12_4 1_555 1_555
C13_4 C5_4 1_555 1_555
C14_4 C16_4 1_555 1_555
C15_4 H10_4 1_555 1_555
C16_4 N7 1_555 1_555
H11_4 C16_4 1_555 1_555
C17_4 C14_4 1_555 1_555
C18_4 C2_4 1_555 1_555
H12_4 C18_4 1_555 1_555
O6_4 Co3 1_555 1_555
O7_4 Co3 1_555 1_555
N6_4 O7_4 1_555 1_555
Co6 O6_4 1_555 1_555
Co6 O7_4 1_555 1_555
C6_4 C8_4 1_555 1_555
N5_4 C13_4 1_555 1_555
C11_4 C12_4 1_555 1_555
C14_4 C18_4 1_555 1_555
H6_3 C9_3 1_555 1_555
C10_4 H7_4 1_555 1_555
C19_3 C9_3 1_555 1_555
H13_3 C19_3 1_555 1_555
C10_4 C19_3 1_555 1_555
Co4_4 O11_4 1_555 1_555
H5_5 C8_5 1_555 1_555
N2_3 C3_5 1_555 1_555
C3_5 H1_5 1_555 1_555
N3_5 C3_5 1_555 1_555
C4_5 N3_5 1_555 1_555
C5_5 C4_5 1_555 1_555
H2_5 C5_5 1_555 1_555
C6_5 N3_5 1_555 1_555
H3_5 C6_5 1_555 1_555
C9_4 C4_5 1_555 1_555
H6_4 C9_4 1_555 1_555
C19_4 C9_4 1_555 1_555
H13_4 C19_4 1_555 1_555
O1_5 N6_5 1_555 1_555
O2_3 C1_5 1_555 1_555
O10_2 C1_5 1_555 1_555
C1_5 C2_5 1_555 1_555
C2_5 C15_5 1_555 1_555
N1_3 C15_5 1_555 1_555
Co4_3 O4_5 1_555 1_555
Co7_2 O5_5 1_555 1_555
O4_5 C17_5 1_555 1_555
O5_5 C17_5 1_555 1_555
N4_5 Co4_3 1_555 1_555
C7_5 N4_5 1_555 1_555
H4_5 C7_5 1_555 1_555
N5_5 C7_5 1_555 1_555
C10_5 H7_5 1_555 1_555
C11_5 N5_5 1_555 1_555
H8_5 C11_5 1_555 1_555
C12_5 N4_5 1_555 1_555
H9_5 C12_5 1_555 1_555
C14_5 C16_5 1_555 1_555
C15_5 H10_5 1_555 1_555
C16_5 N1_3 1_555 1_555
H11_5 C16_5 1_555 1_555
C17_5 C14_5 1_555 1_555
C18_5 C2_5 1_555 1_555
H12_5 C18_5 1_555 1_555
O7_5 Co4_3 1_555 1_555
N6_5 O7_5 1_555 1_555
O8_5 N6_5 1_555 1_555
O9_3 Co4_3 1_555 1_555
N7_3 Co7_2 1_555 1_555
N8_3 Co7_2 1_555 1_555
Co4_2 O2_3 1_555 1_555
Co7_2 O11_3 1_555 1_555
Co7_2 O7_5 1_555 1_555
N5_5 C13_5 1_555 1_555
C10_5 C13_5 1_555 1_555
C11_5 C12_5 1_555 1_555
C14_5 C18_5 1_555 1_555
C10_6 H7_6 1_555 1_555
O2_4 C1_6 1_555 1_555
O10 C1_6 1_555 1_555
C1_6 C2_6 1_555 1_555
C2_6 C15_6 1_555 1_555
N1_4 C15_6 1_555 1_555
Co4_4 O4_6 1_555 1_555
Co7 O5_6 1_555 1_555
O4_6 C17_6 1_555 1_555
O5_6 C17_6 1_555 1_555
N4_6 Co4_4 1_555 1_555
C7_6 N4_6 1_555 1_555
H4_6 C7_6 1_555 1_555
N5_6 C7_6 1_555 1_555
C11_6 N5_6 1_555 1_555
H8_6 C11_6 1_555 1_555
C12_6 N4_6 1_555 1_555
H9_6 C12_6 1_555 1_555
C14_6 C16_6 1_555 1_555
C15_6 H10_6 1_555 1_555
C16_6 N1_4 1_555 1_555
H11_6 C16_6 1_555 1_555
C17_6 C14_6 1_555 1_555
C18_6 C2_6 1_555 1_555
H12_6 C18_6 1_555 1_555
O7_6 Co4_4 1_555 1_555
N6_6 O7_6 1_555 1_555
O8_6 N6_6 1_555 1_555
O9_4 Co4_4 1_555 1_555
N7_4 Co7 1_555 1_555
N8_4 Co7 1_555 1_555
Co4 O2_4 1_555 1_555
Co7 O11_4 1_555 1_555
Co7 O7_6 1_555 1_555
N5_6 C13_6 1_555 1_555
C11_6 C12_6 1_555 1_555
C14_6 C18_6 1_555 1_555
H5_6 C8_6 1_555 1_555
N2_4 C3_6 1_555 1_555
C3_6 H1_6 1_555 1_555
N3_6 C3_6 1_555 1_555
C4_6 N3_6 1_555 1_555
C5_6 C4_6 1_555 1_555
H2_6 C5_6 1_555 1_555
C6_6 N3_6 1_555 1_555
H3_6 C6_6 1_555 1_555
O1_7 N6_7 1_555 1_555
O10_4 C1_7 1_555 1_555
C1_7 C2_7 1_555 1_555
C2_7 C15_7 1_555 1_555
N7_4 C15_7 1_555 1_555
N8_3 C3_7 1_555 1_555
C3_7 H1_7 1_555 1_555
N3_7 C3_7 1_555 1_555
C4_7 N3_7 1_555 1_555
C5_7 C4_7 1_555 1_555
H2_7 C5_7 1_555 1_555
Co4 O4_7 1_555 1_555
Co7_4 O5_7 1_555 1_555
O4_7 C17_7 1_555 1_555
O5_7 C17_7 1_555 1_555
N4_7 Co4 1_555 1_555
C6_7 N3_7 1_555 1_555
H3_7 C6_7 1_555 1_555
C7_7 N4_7 1_555 1_555
H4_7 C7_7 1_555 1_555
N5_7 C7_7 1_555 1_555
C8_7 N8_3 1_555 1_555
H5_7 C8_7 1_555 1_555
C9_5 C4_7 1_555 1_555
H6_5 C9_5 1_555 1_555
C10_7 H7_7 1_555 1_555
C11_7 N5_7 1_555 1_555
H8_7 C11_7 1_555 1_555
C12_7 N4_7 1_555 1_555
H9_7 C12_7 1_555 1_555
C13_7 C5_7 1_555 1_555
C14_7 C16_7 1_555 1_555
C15_7 H10_7 1_555 1_555
C16_7 N7_4 1_555 1_555
H11_7 C16_7 1_555 1_555
C17_7 C14_7 1_555 1_555
C18_7 C2_7 1_555 1_555
H12_7 C18_7 1_555 1_555
C19_5 C9_5 1_555 1_555
H13_5 C19_5 1_555 1_555
O7_7 Co4 1_555 1_555
N6_7 O7_7 1_555 1_555
Co7_4 O11 1_555 1_555
Co7_4 O7_7 1_555 1_555
C6_7 C8_7 1_555 1_555
N5_7 C13_7 1_555 1_555
C10_7 C13_7 1_555 1_555
C10_7 C19_5 1_555 1_555
C11_7 C12_7 1_555 1_555
C14_7 C18_7 1_555 1_555
H6_6 C9_6 1_555 1_555
C10_8 H7_8 1_555 1_555
C19_6 C9_6 1_555 1_555
H13_6 C19_6 1_555 1_555
C10_8 C19_6 1_555 1_555
O10_3 C1_8 1_555 1_555
C1_8 C2_8 1_555 1_555
C2_8 C15_8 1_555 1_555
N7_3 C15_8 1_555 1_555
N8_4 C3_8 1_555 1_555
C3_8 H1_8 1_555 1_555
N3_8 C3_8 1_555 1_555
C4_8 N3_8 1_555 1_555
C5_8 C4_8 1_555 1_555
H2_8 C5_8 1_555 1_555
Co4_2 O4_8 1_555 1_555
Co7_3 O5_8 1_555 1_555
O4_8 C17_8 1_555 1_555
O5_8 C17_8 1_555 1_555
N4_8 Co4_2 1_555 1_555
C6_8 N3_8 1_555 1_555
H3_8 C6_8 1_555 1_555
C7_8 N4_8 1_555 1_555
H4_8 C7_8 1_555 1_555
N5_8 C7_8 1_555 1_555
C8_8 N8_4 1_555 1_555
H5_8 C8_8 1_555 1_555
C11_8 N5_8 1_555 1_555
H8_8 C11_8 1_555 1_555
C12_8 N4_8 1_555 1_555
H9_8 C12_8 1_555 1_555
C13_8 C5_8 1_555 1_555
C14_8 C16_8 1_555 1_555
C15_8 H10_8 1_555 1_555
C16_8 N7_3 1_555 1_555
H11_8 C16_8 1_555 1_555
C17_8 C14_8 1_555 1_555
C18_8 C2_8 1_555 1_555
H12_8 C18_8 1_555 1_555
O7_8 Co4_2 1_555 1_555
N6_8 O7_8 1_555 1_555
Co7_3 O11_2 1_555 1_555
Co7_3 O7_8 1_555 1_555
C6_8 C8_8 1_555 1_555
N5_8 C13_8 1_555 1_555
C11_8 C12_8 1_555 1_555
C14_8 C18_8 1_555 1_555
H6_7 C9_7 1_555 1_555
C19_7 C9_7 1_555 1_555
H13_7 C19_7 1_555 1_555
H6_8 C9_8 1_555 1_555
C19_8 C9_8 1_555 1_555
H13_8 C19_8 1_555 1_555

#END
