
###############################################################################
#
# This file contains modified crystal structure data generated from the
# MOF subset of the Cambridge Structural Database (CSD) v543 
# hosted by the Cambridge Crystallographic Data Centre (CCDC).
#
# This work is licensed under the Creative Commons
# Attribution-NonCommercial-ShareAlike 4.0 International License.
# To view a copy of this license, visit
# http://creativecommons.org/licenses/by-nc-sa/4.0/
# or send a letter to
# Creative Commons, PO Box 1866, Mountain View, CA 94042, USA.
#
# CIF created using the CSD Python API on 29 September 2022
# The structure has been converted into the P1 space group
# The structure has a 3D framework
# The original CSD entry GECLAE is in the monoclinic crystal system
# The framework has been calculated to contain at least 10.0% void space
# The void calculation uses a probe of radius 1.32A, grid spacing 0.4
#
###############################################################################

data_GECLAE
_chemical_formula_moiety         '(C152 H104 N48 Ni16 O60)n'
_symmetry_cell_setting           triclinic
_symmetry_space_group_name_H-M   'P 1'
_symmetry_Int_Tables_number      1
_space_group_name_Hall           'P 1'
loop_
_symmetry_equiv_pos_site_id
_symmetry_equiv_pos_as_xyz
1 x,y,z
_cell_length_a                   28.978(4)
_cell_length_b                   11.0040(15)
_cell_length_c                   19.605(3)
_cell_angle_alpha                90
_cell_angle_beta                 95.042(3)
_cell_angle_gamma                90
_cell_volume                     6227.33
loop_
_atom_site_label
_atom_site_type_symbol
_atom_site_fract_x
_atom_site_fract_y
_atom_site_fract_z
O1 O 0.23795(19) 0.0977(4) 0.1794(2)
O2 O 0.28181(19) 0.2633(4) 0.1713(2)
C1 C 0.2590(3) 0.1906(6) 0.2026(3)
O3 O 0.21684(18) 0.0670(4) 0.4936(2)
C2 C 0.2312(3) 0.0420(6) 0.4368(3)
C3 C 0.2380(2) 0.1440(6) 0.3879(3)
Ni1 Ni 0.21679(3) 0.77130(7) 0.43601(4)
Ni2 Ni 0.27086(3) 0.52978(7) 0.41699(4)
O4 O 0.28132(16) 0.7007(4) 0.4592(2)
N3 N 0.2532(2) 0.3552(5) 0.3707(3)
N4 N 0.1491(2) 0.8269(7) 0.4177(4)
N5 N 0.0756(3) 0.8507(9) 0.4305(5)
C5 C 0.1161(4) 0.8060(12) 0.4583(6)
H2 H 0.1204 0.7651 0.5010
C6 C 0.0324(4) 0.8465(15) 0.4615(7)
C9 C 0.1306(4) 0.8923(13) 0.3656(6)
H5 H 0.1469 0.9238 0.3296
C11 C 0.0319(4) 0.7949(15) 0.5246(7)
H7 H 0.0593 0.7624 0.5479
O5 O 0.20236(17) 0.5807(4) 0.4373(3)
C12 C 0.2402(3) 0.2636(7) 0.4094(4)
H8 H 0.2320 0.2816 0.4541
C13 C 0.2604(3) 0.3287(7) 0.3056(4)
H9 H 0.2699 0.3926 0.2774
C14 C 0.2550(3) 0.2149(6) 0.2773(3)
C15 C 0.2439(3) 0.1197(6) 0.3202(3)
H10 H 0.2404 0.0392 0.3029
C18 C 0.0842(4) 0.9074(13) 0.3715(7)
H12 H 0.0625 0.9491 0.3407
N6 N 0.1743(4) 0.5229(9) 0.4666(6)
O7 O 0.1654(5) 0.4140(9) 0.4746(7)
O8 O 0.1468(4) 0.5509(12) 0.5100(6)
O9 O 0.26205(19) 0.5977(4) 0.3206(2)
O10 O 0.21819(19) 0.7633(4) 0.3287(2)
O11 O 0.28316(18) 0.4330(4) 0.5064(2)
N7 N 0.3400(2) 0.4996(7) 0.4015(4)
Ni4 Ni 0.28321(3) 0.27130(7) 0.06399(4)
Ni5 Ni 0.28321(3) 0.72870(7) 0.56399(4)
Ni7 Ni 0.22914(3) 0.02978(7) 0.08301(4)
O12 O 0.21868(16) 0.7993(4) 0.5408(2)
O13 O 0.2421(2) 0.9395(4) 0.4165(3)
Ni8 Ni 0.22914(3) 0.97022(7) 0.58301(4)
C19 C 0.8633(4) 0.0334(13) 0.3482(7)
H13 H 0.8508 0.0795 0.3100
Ni6 Ni 0.77086(3) 0.02978(7) 0.41699(4)
N1 N 0.8400(2) 0.9996(7) 0.4015(4)
C4 C 0.8694(4) 0.9432(13) 0.4427(6)
H1 H 0.8622 0.9089 0.4849
N2 N 0.9113(3) 0.9380(10) 0.4196(5)
C7 C 0.9941(4) 0.8940(13) 0.4284(6)
H3 H 0.9955 0.9304 0.3847
C8 C 0.9067(4) 0.9920(15) 0.3573(7)
H4 H 0.9299 0.9990 0.3261
C10 C 0.9894(4) 0.7914(15) 0.5541(7)
H6 H 0.9880 0.7581 0.5985
C16 C 0.9525(4) 0.8898(15) 0.4580(7)
C17 C 0.9499(4) 0.8358(15) 0.5191(7)
H11 H 0.9208 0.8284 0.5378
C19_2 C 0.1367(4) 0.0334(13) 0.1518(7)
H13_2 H 0.1492 0.0795 0.1900
N1_2 N 0.1600(2) 0.9996(7) 0.0985(4)
C4_2 C 0.1306(4) 0.9432(13) 0.0573(6)
H1_2 H 0.1378 0.9089 0.0151
N2_2 N 0.0887(3) 0.9380(10) 0.0804(5)
C7_2 C 0.0059(4) 0.8940(13) 0.0716(6)
H3_2 H 0.0045 0.9304 0.1153
C8_2 C 0.0933(4) 0.9920(15) 0.1427(7)
H4_2 H 0.0701 0.9990 0.1739
C16_2 C 0.0475(4) 0.8898(15) 0.0420(7)
O1_2 O 0.76205(19) 0.0977(4) 0.3206(2)
O2_2 O 0.71819(19) 0.2633(4) 0.3287(2)
C1_2 C 0.7410(3) 0.1906(6) 0.2974(3)
O3_2 O 0.78316(18) 0.0670(4) 0.0064(2)
C2_2 C 0.7688(3) 0.0420(6) 0.0632(3)
C3_2 C 0.7620(2) 0.1440(6) 0.1121(3)
Ni1_2 Ni 0.78321(3) 0.77130(7) 0.06399(4)
Ni2_2 Ni 0.72914(3) 0.52978(7) 0.08301(4)
O4_2 O 0.71868(16) 0.7007(4) 0.0408(2)
N3_2 N 0.7468(2) 0.3552(5) 0.1293(3)
N4_2 N 0.8509(2) 0.8269(7) 0.0823(4)
N5_2 N 0.9244(3) 0.8507(9) 0.0695(5)
C5_2 C 0.8839(4) 0.8060(12) 0.0417(6)
C6_2 C 0.9676(4) 0.8465(15) 0.0385(7)
C9_2 C 0.8694(4) 0.8923(13) 0.1344(6)
H5_2 H 0.8531 0.9238 0.1704
O5_2 O 0.79764(17) 0.5807(4) 0.0627(3)
C12_2 C 0.7598(3) 0.2636(7) 0.0906(4)
H8_2 H 0.7680 0.2816 0.0459
C13_2 C 0.7396(3) 0.3287(7) 0.1944(4)
H9_2 H 0.7301 0.3926 0.2226
C14_2 C 0.7450(3) 0.2149(6) 0.2227(3)
C15_2 C 0.7561(3) 0.1197(6) 0.1798(3)
H10_2 H 0.7596 0.0392 0.1971
C18_2 C 0.9158(4) 0.9074(13) 0.1285(7)
H12_2 H 0.9375 0.9491 0.1593
N6_2 N 0.8257(4) 0.5229(9) 0.0334(6)
O7_2 O 0.8346(5) 0.4140(9) 0.0254(7)
O9_2 O 0.73795(19) 0.5977(4) 0.1794(2)
O10_2 O 0.78181(19) 0.7633(4) 0.1713(2)
N7_2 N 0.6600(2) 0.4996(7) 0.0985(4)
Ni4_2 Ni 0.71679(3) 0.27130(7) 0.43601(4)
O13_2 O 0.7579(2) 0.9395(4) 0.0835(3)
H2_2 H 0.8796 0.7651 0.9990
C11_2 C 0.9681(4) 0.7949(15) 0.9754(7)
H7_2 H 0.9407 0.7624 0.9521
O8_2 O 0.8532(4) 0.5509(12) 0.9900(6)
O11_2 O 0.71684(18) 0.4330(4) 0.9936(2)
Ni5_2 Ni 0.71679(3) 0.72870(7) 0.93601(4)
O12_2 O 0.78132(16) 0.7993(4) 0.9592(2)
Ni8_2 Ni 0.77086(3) 0.97022(7) 0.91699(4)
C4_3 C 0.3694(4) 0.4432(13) 0.4427(6)
H1_3 H 0.3622 0.4089 0.4849
N2_3 N 0.4113(3) 0.4380(10) 0.4196(5)
O4_3 O 0.78132(16) 0.2007(4) 0.4592(2)
N4_3 N 0.6491(2) 0.3269(7) 0.4177(4)
N5_3 N 0.5756(3) 0.3507(9) 0.4305(5)
C5_3 C 0.6161(4) 0.3060(12) 0.4583(6)
H2_3 H 0.6204 0.2651 0.5010
C6_3 C 0.5324(4) 0.3465(15) 0.4615(7)
C7_3 C 0.4941(4) 0.3940(13) 0.4284(6)
H3_3 H 0.4955 0.4304 0.3847
C8_3 C 0.4067(4) 0.4920(15) 0.3573(7)
H4_3 H 0.4299 0.4990 0.3261
C9_3 C 0.6306(4) 0.3923(13) 0.3656(6)
H5_3 H 0.6469 0.4238 0.3296
C10_2 C 0.4894(4) 0.2914(15) 0.5541(7)
H6_2 H 0.4880 0.2581 0.5985
C11_3 C 0.5319(4) 0.2949(15) 0.5246(7)
H7_3 H 0.5593 0.2624 0.5479
O5_3 O 0.70236(17) 0.0807(4) 0.4373(3)
C16_3 C 0.4525(4) 0.3898(15) 0.4580(7)
C17_2 C 0.4499(4) 0.3358(15) 0.5191(7)
H11_2 H 0.4208 0.3284 0.5378
C18_3 C 0.5842(4) 0.4074(13) 0.3715(7)
H12_3 H 0.5625 0.4491 0.3407
C19_3 C 0.3633(4) 0.5334(13) 0.3482(7)
H13_3 H 0.3508 0.5795 0.3100
N6_3 N 0.6743(4) 0.0229(9) 0.4666(6)
O8_3 O 0.6468(4) 0.0509(12) 0.5100(6)
Ni5_3 Ni 0.78321(3) 0.22870(7) 0.56399(4)
O12_3 O 0.71868(16) 0.2993(4) 0.5408(2)
O13_3 O 0.7421(2) 0.4395(4) 0.4165(3)
C1_3 C 0.7590(3) 0.6906(6) 0.2026(3)
O3_3 O 0.71684(18) 0.5670(4) 0.4936(2)
C2_3 C 0.7312(3) 0.5420(6) 0.4368(3)
C3_3 C 0.7380(2) 0.6440(6) 0.3879(3)
N3_3 N 0.7532(2) 0.8552(5) 0.3707(3)
C12_3 C 0.7402(3) 0.7636(7) 0.4094(4)
H8_3 H 0.7320 0.7816 0.4541
C13_3 C 0.7604(3) 0.8287(7) 0.3056(4)
H9_3 H 0.7699 0.8926 0.2774
C14_3 C 0.7550(3) 0.7149(6) 0.2773(3)
C15_3 C 0.7439(3) 0.6197(6) 0.3202(3)
H10_3 H 0.7404 0.5392 0.3029
O7_3 O 0.6654(5) 0.9140(9) 0.4746(7)
O11_3 O 0.78316(18) 0.9330(4) 0.5064(2)
Ni8_3 Ni 0.72914(3) 0.47022(7) 0.58301(4)
C4_4 C 0.6306(4) 0.4432(13) 0.0573(6)
H1_4 H 0.6378 0.4089 0.0151
N2_4 N 0.5887(3) 0.4380(10) 0.0804(5)
O4_4 O 0.21868(16) 0.2007(4) 0.0408(2)
N4_4 N 0.3509(2) 0.3269(7) 0.0823(4)
N5_4 N 0.4244(3) 0.3507(9) 0.0695(5)
C5_4 C 0.3839(4) 0.3060(12) 0.0417(6)
C6_4 C 0.4676(4) 0.3465(15) 0.0385(7)
C7_4 C 0.5059(4) 0.3940(13) 0.0716(6)
H3_4 H 0.5045 0.4304 0.1153
C8_4 C 0.5933(4) 0.4920(15) 0.1427(7)
H4_4 H 0.5701 0.4990 0.1739
C9_4 C 0.3694(4) 0.3923(13) 0.1344(6)
H5_4 H 0.3531 0.4238 0.1704
O5_4 O 0.29764(17) 0.0807(4) 0.0627(3)
C16_4 C 0.5475(4) 0.3898(15) 0.0420(7)
C18_4 C 0.4158(4) 0.4074(13) 0.1285(7)
H12_4 H 0.4375 0.4491 0.1593
C19_4 C 0.6367(4) 0.5334(13) 0.1518(7)
H13_4 H 0.6492 0.5795 0.1900
N6_4 N 0.3257(4) 0.0229(9) 0.0334(6)
O13_4 O 0.2579(2) 0.4395(4) 0.0835(3)
H2_4 H 0.3796 0.2651 0.9990
C10_3 C 0.5106(4) 0.2914(15) 0.9459(7)
H6_3 H 0.5120 0.2581 0.9015
C11_4 C 0.4681(4) 0.2949(15) 0.9754(7)
H7_4 H 0.4407 0.2624 0.9521
C17_3 C 0.5501(4) 0.3358(15) 0.9809(7)
H11_3 H 0.5792 0.3284 0.9622
O8_4 O 0.3532(4) 0.0509(12) 0.9900(6)
Ni5_4 Ni 0.21679(3) 0.22870(7) 0.93601(4)
O12_4 O 0.28132(16) 0.2993(4) 0.9592(2)
C1_4 C 0.2410(3) 0.6906(6) 0.2974(3)
O3_4 O 0.28316(18) 0.5670(4) 0.0064(2)
C2_4 C 0.2688(3) 0.5420(6) 0.0632(3)
C3_4 C 0.2620(2) 0.6440(6) 0.1121(3)
N3_4 N 0.2468(2) 0.8552(5) 0.1293(3)
C12_4 C 0.2598(3) 0.7636(7) 0.0906(4)
H8_4 H 0.2680 0.7816 0.0459
C13_4 C 0.2396(3) 0.8287(7) 0.1944(4)
H9_4 H 0.2301 0.8926 0.2226
C14_4 C 0.2450(3) 0.7149(6) 0.2227(3)
C15_4 C 0.2561(3) 0.6197(6) 0.1798(3)
H10_4 H 0.2596 0.5392 0.1971
O7_4 O 0.3346(5) 0.9140(9) 0.0254(7)
O11_4 O 0.21684(18) 0.9330(4) 0.9936(2)
Ni8_4 Ni 0.27086(3) 0.47022(7) 0.91699(4)
N1_3 N 0.1600(2) 0.0004(7) 0.5985(4)
C4_5 C 0.1306(4) 0.0568(13) 0.5573(6)
H1_5 H 0.1378 0.0911 0.5151
N2_5 N 0.0887(3) 0.0620(10) 0.5804(5)
C7_5 C 0.0059(4) 0.1060(13) 0.5716(6)
H3_5 H 0.0045 0.0696 0.6153
C8_5 C 0.0933(4) 0.0080(15) 0.6427(7)
H4_5 H 0.0701 0.0010 0.6739
C10_4 C 0.0106(4) 0.2086(15) 0.4459(7)
H6_4 H 0.0120 0.2419 0.4015
C16_5 C 0.0475(4) 0.1102(15) 0.5420(7)
C17_4 C 0.0501(4) 0.1642(15) 0.4809(7)
H11_4 H 0.0792 0.1716 0.4622
C19_5 C 0.1367(4) 0.9666(13) 0.6518(7)
H13_5 H 0.1492 0.9205 0.6900
O6 O 0.7579(2) 0.0605(4) 0.5835(3)
O1_3 O 0.76205(19) 0.9023(4) 0.8206(2)
O2_3 O 0.71819(19) 0.7367(4) 0.8287(2)
C1_5 C 0.7410(3) 0.8094(6) 0.7974(3)
C2_5 C 0.7688(3) 0.9580(6) 0.5632(3)
C3_5 C 0.7620(2) 0.8560(6) 0.6121(3)
N3_5 N 0.7468(2) 0.6448(5) 0.6293(3)
N4_5 N 0.8509(2) 0.1731(7) 0.5823(4)
N5_5 N 0.9244(3) 0.1493(9) 0.5695(5)
C5_5 C 0.8839(4) 0.1940(12) 0.5417(6)
H2_5 H 0.8796 0.2349 0.4990
C6_5 C 0.9676(4) 0.1535(15) 0.5385(7)
C9_5 C 0.8694(4) 0.1077(13) 0.6344(6)
H5_5 H 0.8531 0.0762 0.6704
C11_5 C 0.9681(4) 0.2051(15) 0.4754(7)
H7_5 H 0.9407 0.2376 0.4521
O5_5 O 0.79764(17) 0.4193(4) 0.5627(3)
C12_5 C 0.7598(3) 0.7364(7) 0.5906(4)
H8_5 H 0.7680 0.7184 0.5459
C13_5 C 0.7396(3) 0.6713(7) 0.6944(4)
H9_5 H 0.7301 0.6074 0.7226
C14_5 C 0.7450(3) 0.7851(6) 0.7227(3)
C15_5 C 0.7561(3) 0.8803(6) 0.6798(3)
H10_5 H 0.7596 0.9608 0.6971
C18_5 C 0.9158(4) 0.0926(13) 0.6285(7)
H12_5 H 0.9375 0.0509 0.6593
N6_5 N 0.8257(4) 0.4771(9) 0.5334(6)
O7_5 O 0.8346(5) 0.5860(9) 0.5254(7)
O8_5 O 0.8532(4) 0.4491(12) 0.4900(6)
O9_3 O 0.73795(19) 0.4023(4) 0.6794(2)
O10_3 O 0.78181(19) 0.2367(4) 0.6713(2)
N7_3 N 0.6600(2) 0.5004(7) 0.5985(4)
O6_2 O 0.2421(2) 0.0605(4) 0.9165(3)
H2_6 H 0.1204 0.2349 0.0010
C11_6 C 0.0319(4) 0.2051(15) 0.0246(7)
H7_6 H 0.0593 0.2376 0.0479
O8_6 O 0.1468(4) 0.4491(12) 0.0100(6)
O1_4 O 0.23795(19) 0.9023(4) 0.6794(2)
O2_4 O 0.28181(19) 0.7367(4) 0.6713(2)
C1_6 C 0.2590(3) 0.8094(6) 0.7026(3)
C2_6 C 0.2312(3) 0.9580(6) 0.9368(3)
C3_6 C 0.2380(2) 0.8560(6) 0.8879(3)
N3_6 N 0.2532(2) 0.6448(5) 0.8707(3)
N4_6 N 0.1491(2) 0.1731(7) 0.9177(4)
N5_6 N 0.0756(3) 0.1493(9) 0.9305(5)
C5_6 C 0.1161(4) 0.1940(12) 0.9583(6)
C6_6 C 0.0324(4) 0.1535(15) 0.9615(7)
C9_6 C 0.1306(4) 0.1077(13) 0.8656(6)
H5_6 H 0.1469 0.0762 0.8296
O5_6 O 0.20236(17) 0.4193(4) 0.9373(3)
C12_6 C 0.2402(3) 0.7364(7) 0.9094(4)
H8_6 H 0.2320 0.7184 0.9541
C13_6 C 0.2604(3) 0.6713(7) 0.8056(4)
H9_6 H 0.2699 0.6074 0.7774
C14_6 C 0.2550(3) 0.7851(6) 0.7773(3)
C15_6 C 0.2439(3) 0.8803(6) 0.8202(3)
H10_6 H 0.2404 0.9608 0.8029
C18_6 C 0.0842(4) 0.0926(13) 0.8715(7)
H12_6 H 0.0625 0.0509 0.8407
N6_6 N 0.1743(4) 0.4771(9) 0.9666(6)
O7_6 O 0.1654(5) 0.5860(9) 0.9746(7)
O9_4 O 0.26205(19) 0.4023(4) 0.8206(2)
O10_4 O 0.21819(19) 0.2367(4) 0.8287(2)
N7_4 N 0.3400(2) 0.5004(7) 0.9015(4)
N1_4 N 0.8400(2) 0.0004(7) 0.9015(4)
C4_6 C 0.8694(4) 0.0568(13) 0.9427(6)
H1_6 H 0.8622 0.0911 0.9849
N2_6 N 0.9113(3) 0.0620(10) 0.9196(5)
C7_6 C 0.9941(4) 0.1060(13) 0.9284(6)
H3_6 H 0.9955 0.0696 0.8847
C8_6 C 0.9067(4) 0.0080(15) 0.8573(7)
H4_6 H 0.9299 0.0010 0.8261
C16_6 C 0.9525(4) 0.1102(15) 0.9580(7)
C19_6 C 0.8633(4) 0.9666(13) 0.8482(7)
H13_6 H 0.8508 0.9205 0.8100
C1_7 C 0.2410(3) 0.3094(6) 0.7974(3)
C2_7 C 0.2688(3) 0.4580(6) 0.5632(3)
C3_7 C 0.2620(2) 0.3560(6) 0.6121(3)
N3_7 N 0.2468(2) 0.1448(5) 0.6293(3)
C12_7 C 0.2598(3) 0.2364(7) 0.5906(4)
H8_7 H 0.2680 0.2184 0.5459
C13_7 C 0.2396(3) 0.1713(7) 0.6944(4)
H9_7 H 0.2301 0.1074 0.7226
C14_7 C 0.2450(3) 0.2851(6) 0.7227(3)
C15_7 C 0.2561(3) 0.3803(6) 0.6798(3)
H10_7 H 0.2596 0.4608 0.6971
O6_3 O 0.2579(2) 0.5605(4) 0.5835(3)
O7_7 O 0.3346(5) 0.0860(9) 0.5254(7)
C4_7 C 0.6306(4) 0.5568(13) 0.5573(6)
H1_7 H 0.6378 0.5911 0.5151
N2_7 N 0.5887(3) 0.5620(10) 0.5804(5)
N4_7 N 0.3509(2) 0.6731(7) 0.5823(4)
N5_7 N 0.4244(3) 0.6493(9) 0.5695(5)
C5_7 C 0.3839(4) 0.6940(12) 0.5417(6)
H2_7 H 0.3796 0.7349 0.4990
C6_7 C 0.4676(4) 0.6535(15) 0.5385(7)
C7_7 C 0.5059(4) 0.6060(13) 0.5716(6)
H3_7 H 0.5045 0.5696 0.6153
C8_7 C 0.5933(4) 0.5080(15) 0.6427(7)
H4_7 H 0.5701 0.5010 0.6739
C9_7 C 0.3694(4) 0.6077(13) 0.6344(6)
H5_7 H 0.3531 0.5762 0.6704
C10_5 C 0.5106(4) 0.7086(15) 0.4459(7)
H6_5 H 0.5120 0.7419 0.4015
C11_7 C 0.4681(4) 0.7051(15) 0.4754(7)
H7_7 H 0.4407 0.7376 0.4521
O5_7 O 0.29764(17) 0.9193(4) 0.5627(3)
C16_7 C 0.5475(4) 0.6102(15) 0.5420(7)
C17_5 C 0.5501(4) 0.6642(15) 0.4809(7)
H11_5 H 0.5792 0.6716 0.4622
C18_7 C 0.4158(4) 0.5926(13) 0.6285(7)
H12_7 H 0.4375 0.5509 0.6593
C19_7 C 0.6367(4) 0.4666(13) 0.6518(7)
H13_7 H 0.6492 0.4205 0.6900
N6_7 N 0.3257(4) 0.9771(9) 0.5334(6)
O8_7 O 0.3532(4) 0.9491(12) 0.4900(6)
C1_8 C 0.7590(3) 0.3094(6) 0.7026(3)
C2_8 C 0.7312(3) 0.4580(6) 0.9368(3)
C3_8 C 0.7380(2) 0.3560(6) 0.8879(3)
N3_8 N 0.7532(2) 0.1448(5) 0.8707(3)
C12_8 C 0.7402(3) 0.2364(7) 0.9094(4)
H8_8 H 0.7320 0.2184 0.9541
C13_8 C 0.7604(3) 0.1713(7) 0.8056(4)
H9_8 H 0.7699 0.1074 0.7774
C14_8 C 0.7550(3) 0.2851(6) 0.7773(3)
C15_8 C 0.7439(3) 0.3803(6) 0.8202(3)
H10_8 H 0.7404 0.4608 0.8029
O6_4 O 0.7421(2) 0.5605(4) 0.9165(3)
O7_8 O 0.6654(5) 0.0860(9) 0.9746(7)
H2_8 H 0.6204 0.7349 0.0010
C10_6 C 0.4894(4) 0.7086(15) 0.0541(7)
H6_6 H 0.4880 0.7419 0.0985
C11_8 C 0.5319(4) 0.7051(15) 0.0246(7)
H7_8 H 0.5593 0.7376 0.0479
C17_6 C 0.4499(4) 0.6642(15) 0.0191(7)
H11_6 H 0.4208 0.6716 0.0378
O8_8 O 0.6468(4) 0.9491(12) 0.0100(6)
C4_8 C 0.3694(4) 0.5568(13) 0.9427(6)
H1_8 H 0.3622 0.5911 0.9849
N2_8 N 0.4113(3) 0.5620(10) 0.9196(5)
N4_8 N 0.6491(2) 0.6731(7) 0.9177(4)
N5_8 N 0.5756(3) 0.6493(9) 0.9305(5)
C5_8 C 0.6161(4) 0.6940(12) 0.9583(6)
C6_8 C 0.5324(4) 0.6535(15) 0.9615(7)
C7_8 C 0.4941(4) 0.6060(13) 0.9284(6)
H3_8 H 0.4955 0.5696 0.8847
C8_8 C 0.4067(4) 0.5080(15) 0.8573(7)
H4_8 H 0.4299 0.5010 0.8261
C9_8 C 0.6306(4) 0.6077(13) 0.8656(6)
H5_8 H 0.6469 0.5762 0.8296
O5_8 O 0.70236(17) 0.9193(4) 0.9373(3)
C16_8 C 0.4525(4) 0.6102(15) 0.9580(7)
C18_8 C 0.5842(4) 0.5926(13) 0.8715(7)
H12_8 H 0.5625 0.5509 0.8407
C19_8 C 0.3633(4) 0.4666(13) 0.8482(7)
H13_8 H 0.3508 0.4205 0.8100
N6_8 N 0.6743(4) 0.9771(9) 0.9666(6)
C10_7 C 0.0106(4) 0.7914(15) 0.9459(7)
H6_7 H 0.0120 0.7581 0.9015
C17_7 C 0.0501(4) 0.8358(15) 0.9809(7)
H11_7 H 0.0792 0.8284 0.9622
C10_8 C 0.9894(4) 0.2086(15) 0.0541(7)
H6_8 H 0.9880 0.2419 0.0985
C17_8 C 0.9499(4) 0.1642(15) 0.0191(7)
H11_8 H 0.9208 0.1716 0.0378
loop_
_geom_bond_atom_site_label_1
_geom_bond_atom_site_label_2
_geom_bond_site_symmetry_1
_geom_bond_site_symmetry_2
O1 C1 1_555 1_555
O2 C1 1_555 1_555
C1 C14 1_555 1_555
O3 C2 1_555 1_555
C2 C3 1_555 1_555
C3 C12 1_555 1_555
Ni1 O4 1_555 1_555
Ni2 O4 1_555 1_555
O4 Ni5 1_555 1_555
N3 Ni2 1_555 1_555
N4 Ni1 1_555 1_555
N5 C5 1_555 1_555
C5 N4 1_555 1_555
H2 C5 1_555 1_555
C6 N5 1_555 1_555
C9 N4 1_555 1_555
H5 C9 1_555 1_555
C11 C6 1_555 1_555
H7 C11 1_555 1_555
O5 Ni1 1_555 1_555
C12 N3 1_555 1_555
H8 C12 1_555 1_555
C13 N3 1_555 1_555
H9 C13 1_555 1_555
C14 C13 1_555 1_555
C15 C3 1_555 1_555
H10 C15 1_555 1_555
C18 N5 1_555 1_555
H12 C18 1_555 1_555
N6 O5 1_555 1_555
O7 N6 1_555 1_555
O8 N6 1_555 1_555
O9 Ni2 1_555 1_555
O10 Ni1 1_555 1_555
O11 Ni2 1_555 1_555
N7 Ni2 1_555 1_555
Ni4 O2 1_555 1_555
Ni5 O12 1_555 1_555
Ni7 O1 1_555 1_555
O12 Ni1 1_555 1_555
O13 Ni1 1_555 1_555
Ni2 O5 1_555 1_555
C9 C18 1_555 1_555
C14 C15 1_555 1_555
H13 C19 1_555 1_555
N1 C4 1_555 1_555
C4 H1 1_555 1_555
N2 C4 1_555 1_555
H3 C7 1_555 1_555
C8 N2 1_555 1_555
H4 C8 1_555 1_555
C10 H6 1_555 1_555
C16 N2 1_555 1_555
C17 C10 1_555 1_555
H11 C17 1_555 1_555
C7 C16 1_555 1_555
C16 C17 1_555 1_555
H13_2 C19_2 1_555 1_555
N1_2 C4_2 1_555 1_555
C4_2 H1_2 1_555 1_555
N2_2 C4_2 1_555 1_555
H3_2 C7_2 1_555 1_555
C8_2 N2_2 1_555 1_555
H4_2 C8_2 1_555 1_555
C16_2 N2_2 1_555 1_555
C7_2 C16_2 1_555 1_555
O1_2 C1_2 1_555 1_555
O2_2 C1_2 1_555 1_555
C1_2 C14_2 1_555 1_555
O3_2 C2_2 1_555 1_555
C2_2 C3_2 1_555 1_555
C3_2 C12_2 1_555 1_555
Ni1_2 O4_2 1_555 1_555
Ni2_2 O4_2 1_555 1_555
N3_2 Ni2_2 1_555 1_555
N4_2 Ni1_2 1_555 1_555
N5_2 C5_2 1_555 1_555
C5_2 N4_2 1_555 1_555
C6_2 N5_2 1_555 1_555
C9_2 N4_2 1_555 1_555
H5_2 C9_2 1_555 1_555
O5_2 Ni1_2 1_555 1_555
C12_2 N3_2 1_555 1_555
H8_2 C12_2 1_555 1_555
C13_2 N3_2 1_555 1_555
H9_2 C13_2 1_555 1_555
C14_2 C13_2 1_555 1_555
C15_2 C3_2 1_555 1_555
H10_2 C15_2 1_555 1_555
C18_2 N5_2 1_555 1_555
H12_2 C18_2 1_555 1_555
N6_2 O5_2 1_555 1_555
O7_2 N6_2 1_555 1_555
O9_2 Ni2_2 1_555 1_555
O10_2 Ni1_2 1_555 1_555
N7_2 Ni2_2 1_555 1_555
Ni4_2 O2_2 1_555 1_555
Ni6 O1_2 1_555 1_555
O13_2 Ni1_2 1_555 1_555
Ni2_2 O5_2 1_555 1_555
C9_2 C18_2 1_555 1_555
C14_2 C15_2 1_555 1_555
H7_2 C11_2 1_555 1_555
Ni5_2 O12_2 1_555 1_555
N7 C4_3 1_555 1_555
C4_3 H1_3 1_555 1_555
N2_3 C4_3 1_555 1_555
Ni4_2 O4_3 1_555 1_555
Ni6 O4_3 1_555 1_555
O4_3 Ni5_3 1_555 1_555
N4_3 Ni4_2 1_555 1_555
N5_3 C5_3 1_555 1_555
C5_3 N4_3 1_555 1_555
H2_3 C5_3 1_555 1_555
C6_3 N5_3 1_555 1_555
C7_3 C6_3 1_555 1_555
H3_3 C7_3 1_555 1_555
C8_3 N2_3 1_555 1_555
H4_3 C8_3 1_555 1_555
C9_3 N4_3 1_555 1_555
H5_3 C9_3 1_555 1_555
C10_2 H6_2 1_555 1_555
C11_3 C6_3 1_555 1_555
H7_3 C11_3 1_555 1_555
O5_3 Ni4_2 1_555 1_555
C16_3 N2_3 1_555 1_555
C17_2 C10_2 1_555 1_555
H11_2 C17_2 1_555 1_555
C18_3 N5_3 1_555 1_555
H12_3 C18_3 1_555 1_555
C19_3 N7 1_555 1_555
H13_3 C19_3 1_555 1_555
N6_3 O5_3 1_555 1_555
O8_3 N6_3 1_555 1_555
Ni5_3 O12_3 1_555 1_555
O12_3 Ni4_2 1_555 1_555
O13_3 Ni4_2 1_555 1_555
Ni6 O5_3 1_555 1_555
C7_3 C16_3 1_555 1_555
C8_3 C19_3 1_555 1_555
C9_3 C18_3 1_555 1_555
C10_2 C11_3 1_555 1_555
C16_3 C17_2 1_555 1_555
O9_2 C1_3 1_555 1_555
O10_2 C1_3 1_555 1_555
C1_3 C14_3 1_555 1_555
O3_3 C2_3 1_555 1_555
C2_3 C3_3 1_555 1_555
C3_3 C12_3 1_555 1_555
C12_3 N3_3 1_555 1_555
H8_3 C12_3 1_555 1_555
C13_3 N3_3 1_555 1_555
H9_3 C13_3 1_555 1_555
C14_3 C13_3 1_555 1_555
C15_3 C3_3 1_555 1_555
H10_3 C15_3 1_555 1_555
O13_3 C2_3 1_555 1_555
Ni8_3 O3_3 1_555 1_555
C14_3 C15_3 1_555 1_555
N7_2 C4_4 1_555 1_555
C4_4 H1_4 1_555 1_555
N2_4 C4_4 1_555 1_555
Ni4 O4_4 1_555 1_555
Ni7 O4_4 1_555 1_555
N4_4 Ni4 1_555 1_555
N5_4 C5_4 1_555 1_555
C5_4 N4_4 1_555 1_555
C6_4 N5_4 1_555 1_555
C7_4 C6_4 1_555 1_555
H3_4 C7_4 1_555 1_555
C8_4 N2_4 1_555 1_555
H4_4 C8_4 1_555 1_555
C9_4 N4_4 1_555 1_555
H5_4 C9_4 1_555 1_555
O5_4 Ni4 1_555 1_555
C16_4 N2_4 1_555 1_555
C18_4 N5_4 1_555 1_555
H12_4 C18_4 1_555 1_555
C19_4 N7_2 1_555 1_555
H13_4 C19_4 1_555 1_555
N6_4 O5_4 1_555 1_555
O13_4 Ni4 1_555 1_555
Ni7 O5_4 1_555 1_555
C7_4 C16_4 1_555 1_555
C8_4 C19_4 1_555 1_555
C9_4 C18_4 1_555 1_555
C10_3 H6_3 1_555 1_555
H7_4 C11_4 1_555 1_555
C17_3 C10_3 1_555 1_555
H11_3 C17_3 1_555 1_555
Ni5_4 O12_4 1_555 1_555
C10_3 C11_4 1_555 1_555
O9 C1_4 1_555 1_555
O10 C1_4 1_555 1_555
C1_4 C14_4 1_555 1_555
O3_4 C2_4 1_555 1_555
C2_4 C3_4 1_555 1_555
C3_4 C12_4 1_555 1_555
C12_4 N3_4 1_555 1_555
H8_4 C12_4 1_555 1_555
C13_4 N3_4 1_555 1_555
H9_4 C13_4 1_555 1_555
C14_4 C13_4 1_555 1_555
C15_4 C3_4 1_555 1_555
H10_4 C15_4 1_555 1_555
O13_4 C2_4 1_555 1_555
C14_4 C15_4 1_555 1_555
N1_3 C4_5 1_555 1_555
C4_5 H1_5 1_555 1_555
N2_5 C4_5 1_555 1_555
H3_5 C7_5 1_555 1_555
C8_5 N2_5 1_555 1_555
H4_5 C8_5 1_555 1_555
C10_4 H6_4 1_555 1_555
C16_5 N2_5 1_555 1_555
C17_4 C10_4 1_555 1_555
H11_4 C17_4 1_555 1_555
C7_5 C16_5 1_555 1_555
C16_5 C17_4 1_555 1_555
H13_5 C19_5 1_555 1_555
Ni5_3 O6 1_555 1_555
O1_3 C1_5 1_555 1_555
O2_3 C1_5 1_555 1_555
C1_5 C14_5 1_555 1_555
O11_3 C2_5 1_555 1_555
C2_5 C3_5 1_555 1_555
C3_5 C12_5 1_555 1_555
Ni8_3 O12_3 1_555 1_555
N3_5 Ni8_3 1_555 1_555
N4_5 Ni5_3 1_555 1_555
N5_5 C5_5 1_555 1_555
C5_5 N4_5 1_555 1_555
H2_5 C5_5 1_555 1_555
C6_5 N5_5 1_555 1_555
C9_5 N4_5 1_555 1_555
H5_5 C9_5 1_555 1_555
C11_5 C6_5 1_555 1_555
H7_5 C11_5 1_555 1_555
O5_5 Ni5_3 1_555 1_555
C12_5 N3_5 1_555 1_555
H8_5 C12_5 1_555 1_555
C13_5 N3_5 1_555 1_555
H9_5 C13_5 1_555 1_555
C14_5 C13_5 1_555 1_555
C15_5 C3_5 1_555 1_555
H10_5 C15_5 1_555 1_555
C18_5 N5_5 1_555 1_555
H12_5 C18_5 1_555 1_555
N6_5 O5_5 1_555 1_555
O7_5 N6_5 1_555 1_555
O8_5 N6_5 1_555 1_555
O9_3 Ni8_3 1_555 1_555
O10_3 Ni5_3 1_555 1_555
N7_3 Ni8_3 1_555 1_555
Ni5_2 O2_3 1_555 1_555
Ni8_2 O1_3 1_555 1_555
Ni8_3 O5_5 1_555 1_555
C9_5 C18_5 1_555 1_555
C14_5 C15_5 1_555 1_555
Ni5_4 O6_2 1_555 1_555
H7_6 C11_6 1_555 1_555
O1_4 C1_6 1_555 1_555
O2_4 C1_6 1_555 1_555
C1_6 C14_6 1_555 1_555
O11_4 C2_6 1_555 1_555
C2_6 C3_6 1_555 1_555
C3_6 C12_6 1_555 1_555
Ni8_4 O12_4 1_555 1_555
N3_6 Ni8_4 1_555 1_555
N4_6 Ni5_4 1_555 1_555
N5_6 C5_6 1_555 1_555
C5_6 N4_6 1_555 1_555
C6_6 N5_6 1_555 1_555
C9_6 N4_6 1_555 1_555
H5_6 C9_6 1_555 1_555
O5_6 Ni5_4 1_555 1_555
C12_6 N3_6 1_555 1_555
H8_6 C12_6 1_555 1_555
C13_6 N3_6 1_555 1_555
H9_6 C13_6 1_555 1_555
C14_6 C13_6 1_555 1_555
C15_6 C3_6 1_555 1_555
H10_6 C15_6 1_555 1_555
C18_6 N5_6 1_555 1_555
H12_6 C18_6 1_555 1_555
N6_6 O5_6 1_555 1_555
O7_6 N6_6 1_555 1_555
O9_4 Ni8_4 1_555 1_555
O10_4 Ni5_4 1_555 1_555
N7_4 Ni8_4 1_555 1_555
Ni5 O2_4 1_555 1_555
Ni8 O1_4 1_555 1_555
Ni8_4 O5_6 1_555 1_555
C9_6 C18_6 1_555 1_555
C14_6 C15_6 1_555 1_555
N1_4 C4_6 1_555 1_555
C4_6 H1_6 1_555 1_555
N2_6 C4_6 1_555 1_555
H3_6 C7_6 1_555 1_555
C8_6 N2_6 1_555 1_555
H4_6 C8_6 1_555 1_555
C16_6 N2_6 1_555 1_555
C7_6 C16_6 1_555 1_555
H13_6 C19_6 1_555 1_555
O9_4 C1_7 1_555 1_555
O10_4 C1_7 1_555 1_555
C1_7 C14_7 1_555 1_555
O11 C2_7 1_555 1_555
C2_7 C3_7 1_555 1_555
C3_7 C12_7 1_555 1_555
C12_7 N3_7 1_555 1_555
H8_7 C12_7 1_555 1_555
C13_7 N3_7 1_555 1_555
H9_7 C13_7 1_555 1_555
C14_7 C13_7 1_555 1_555
C15_7 C3_7 1_555 1_555
H10_7 C15_7 1_555 1_555
O6_3 C2_7 1_555 1_555
Ni5 O6_3 1_555 1_555
C14_7 C15_7 1_555 1_555
N7_3 C4_7 1_555 1_555
C4_7 H1_7 1_555 1_555
N2_7 C4_7 1_555 1_555
Ni8 O12 1_555 1_555
N4_7 Ni5 1_555 1_555
N5_7 C5_7 1_555 1_555
C5_7 N4_7 1_555 1_555
H2_7 C5_7 1_555 1_555
C6_7 N5_7 1_555 1_555
C7_7 C6_7 1_555 1_555
H3_7 C7_7 1_555 1_555
C8_7 N2_7 1_555 1_555
H4_7 C8_7 1_555 1_555
C9_7 N4_7 1_555 1_555
H5_7 C9_7 1_555 1_555
C10_5 H6_5 1_555 1_555
C11_7 C6_7 1_555 1_555
H7_7 C11_7 1_555 1_555
O5_7 Ni5 1_555 1_555
C16_7 N2_7 1_555 1_555
C17_5 C10_5 1_555 1_555
H11_5 C17_5 1_555 1_555
C18_7 N5_7 1_555 1_555
H12_7 C18_7 1_555 1_555
C19_7 N7_3 1_555 1_555
H13_7 C19_7 1_555 1_555
N6_7 O5_7 1_555 1_555
O8_7 N6_7 1_555 1_555
Ni8 O5_7 1_555 1_555
C7_7 C16_7 1_555 1_555
C8_7 C19_7 1_555 1_555
C9_7 C18_7 1_555 1_555
C10_5 C11_7 1_555 1_555
C16_7 C17_5 1_555 1_555
O9_3 C1_8 1_555 1_555
O10_3 C1_8 1_555 1_555
C1_8 C14_8 1_555 1_555
O11_2 C2_8 1_555 1_555
C2_8 C3_8 1_555 1_555
C3_8 C12_8 1_555 1_555
C12_8 N3_8 1_555 1_555
H8_8 C12_8 1_555 1_555
C13_8 N3_8 1_555 1_555
H9_8 C13_8 1_555 1_555
C14_8 C13_8 1_555 1_555
C15_8 C3_8 1_555 1_555
H10_8 C15_8 1_555 1_555
O6_4 C2_8 1_555 1_555
Ni5_2 O6_4 1_555 1_555
C14_8 C15_8 1_555 1_555
C10_6 H6_6 1_555 1_555
H7_8 C11_8 1_555 1_555
C17_6 C10_6 1_555 1_555
H11_6 C17_6 1_555 1_555
C10_6 C11_8 1_555 1_555
N7_4 C4_8 1_555 1_555
C4_8 H1_8 1_555 1_555
N2_8 C4_8 1_555 1_555
Ni8_2 O12_2 1_555 1_555
N4_8 Ni5_2 1_555 1_555
N5_8 C5_8 1_555 1_555
C5_8 N4_8 1_555 1_555
C6_8 N5_8 1_555 1_555
C7_8 C6_8 1_555 1_555
H3_8 C7_8 1_555 1_555
C8_8 N2_8 1_555 1_555
H4_8 C8_8 1_555 1_555
C9_8 N4_8 1_555 1_555
H5_8 C9_8 1_555 1_555
O5_8 Ni5_2 1_555 1_555
C16_8 N2_8 1_555 1_555
C18_8 N5_8 1_555 1_555
H12_8 C18_8 1_555 1_555
C19_8 N7_4 1_555 1_555
H13_8 C19_8 1_555 1_555
N6_8 O5_8 1_555 1_555
Ni8_2 O5_8 1_555 1_555
C7_8 C16_8 1_555 1_555
C8_8 C19_8 1_555 1_555
C9_8 C18_8 1_555 1_555
C10_7 H6_7 1_555 1_555
C17_7 C10_7 1_555 1_555
H11_7 C17_7 1_555 1_555
C10_8 H6_8 1_555 1_555
C17_8 C10_8 1_555 1_555
H11_8 C17_8 1_555 1_555

#END
