
###############################################################################
#
# This file contains modified crystal structure data generated from the
# MOF subset of the Cambridge Structural Database (CSD) v543 
# hosted by the Cambridge Crystallographic Data Centre (CCDC).
#
# This work is licensed under the Creative Commons
# Attribution-NonCommercial-ShareAlike 4.0 International License.
# To view a copy of this license, visit
# http://creativecommons.org/licenses/by-nc-sa/4.0/
# or send a letter to
# Creative Commons, PO Box 1866, Mountain View, CA 94042, USA.
#
# CIF created using the CSD Python API on 29 September 2022
# The structure has been converted into the P1 space group
# The structure has a 3D framework
# The original CSD entry GEDBIE is in the orthorhombic crystal system
# The framework has been calculated to contain at least 10.0% void space
# The void calculation uses a probe of radius 1.32A, grid spacing 0.4
#
###############################################################################

data_GEDBIE
_chemical_formula_moiety         '(C184 H128 Cd8 N48 O32)n'
_symmetry_cell_setting           triclinic
_symmetry_space_group_name_H-M   'P 1'
_symmetry_Int_Tables_number      1
_space_group_name_Hall           'P 1'
loop_
_symmetry_equiv_pos_site_id
_symmetry_equiv_pos_as_xyz
1 x,y,z
_cell_length_a                   23.3818(7)
_cell_length_b                   13.7522(4)
_cell_length_c                   20.7872(7)
_cell_angle_alpha                90
_cell_angle_beta                 90
_cell_angle_gamma                90
_cell_volume                     6684.15
loop_
_atom_site_label
_atom_site_type_symbol
_atom_site_fract_x
_atom_site_fract_y
_atom_site_fract_z
N1 N 0.6299(2) 0.0967(3) 0.6018(2)
N3 N 0.52621(18) 0.2780(3) 0.4388(2)
N4 N 0.44462(19) 0.2554(3) 0.3906(2)
N5 N 0.65604(16) 0.4450(3) 0.5833(2)
N6 N 0.6655(2) 0.6018(3) 0.6037(2)
C9 C 0.6353(2) 0.0070(3) 0.5757(3)
C11 C 0.6337(3) 0.0845(4) 0.6675(3)
H7 H 0.631749 0.132933 0.698616
C12 C 0.4761(2) 0.2301(4) 0.4396(3)
H8 H 0.465399 0.185164 0.470812
C13 C 0.4763(2) 0.3233(4) 0.3569(3)
H9 H 0.464737 0.353239 0.318920
C14 C 0.5261(2) 0.3397(4) 0.3871(3)
H10 H 0.554451 0.383605 0.375435
C15 C 0.6314(2) 0.5341(3) 0.5826(3)
H11 H 0.594242 0.545674 0.568489
C16 C 0.7143(2) 0.5550(4) 0.6196(3)
H12 H 0.746581 0.585387 0.636365
C17 C 0.7102(2) 0.4576(4) 0.6081(3)
H13 H 0.737791 0.410179 0.615269
C18 C 0.6186(2) 0.1855(4) 0.5697(3)
C19 C 0.5808(2) 0.1876(3) 0.5181(3)
H14 H 0.564287 0.130371 0.503205
C20 C 0.5681(2) 0.2734(3) 0.4899(3)
C21 C 0.5924(2) 0.3614(4) 0.5103(3)
H15 H 0.583573 0.420022 0.490346
C22 C 0.6305(2) 0.3571(3) 0.5617(3)
C23 C 0.6453(2) 0.2690(4) 0.5917(3)
H16 H 0.671884 0.266987 0.624973
Cd2 Cd 0.65302(2) 0.77025(2) 0.61224(2)
Cd4 Cd 0.34698(2) 0.22975(2) 0.38776(2)
N2 N 0.64177(19) 0.9392(3) 0.6198(2)
O1 O 0.72243(19) 0.7824(3) 0.53199(19)
O2 O 0.6387(2) 0.7809(4) 0.4879(2)
O3 O 0.76794(18) 0.7311(3) 0.18522(19)
O4 O 0.85176(18) 0.7395(3) 0.2302(2)
C1 C 0.6918(3) 0.7790(4) 0.4839(3)
C2 C 0.7988(3) 0.7411(3) 0.2338(3)
C3 C 0.7194(3) 0.7693(3) 0.4184(3)
C4 C 0.7778(3) 0.7691(4) 0.4126(3)
H1 H 0.800207 0.775202 0.449320
C5 C 0.8038(3) 0.7602(4) 0.3539(3)
H2 H 0.843482 0.760298 0.351070
C6 C 0.7708(2) 0.7510(3) 0.2986(2)
C7 C 0.7122(3) 0.7494(4) 0.3042(3)
H3 H 0.689636 0.741720 0.267678
C8 C 0.6866(3) 0.7591(4) 0.3638(3)
H4 H 0.646899 0.758720 0.367115
H5 H 0.634537 0.994608 0.531759
C10 C 0.6407(3) 0.9881(4) 0.6777(3)
H6 H 0.644348 0.958999 0.717904
Cd3 Cd 0.84698(2) 0.72975(2) 0.11224(2)
N7 N 0.55538(19) 0.7446(3) 0.6094(2)
O5 O 0.73206(18) 0.7689(3) 0.68522(19)
O6 O 0.64824(18) 0.7605(3) 0.7302(2)
N4_2 N 0.05538(19) 0.2446(3) 0.8906(2)
C12_2 C 0.0239(2) 0.2699(4) 0.9396(3)
H8_2 H 0.034601 0.314836 0.970812
C13_2 C 0.0237(2) 0.1767(4) 0.8569(3)
H9_2 H 0.035263 0.146761 0.818920
Cd4_2 Cd 0.15302(2) 0.27025(2) 0.88776(2)
N1_2 N 0.8701(2) 0.4033(3) 0.1018(2)
N2_2 N 0.85823(19) 0.5608(3) 0.1198(2)
N5_2 N 0.84396(16) 0.0550(3) 0.0833(2)
O1_2 O 0.77757(19) 0.7176(3) 0.03199(19)
C9_2 C 0.8647(2) 0.4930(3) 0.0757(3)
H5_2 H 0.865463 0.505392 0.031759
C10_2 C 0.8593(3) 0.5119(4) 0.1777(3)
H6_2 H 0.855652 0.541001 0.217904
C11_2 C 0.8663(3) 0.4155(4) 0.1675(3)
H7_2 H 0.868251 0.367067 0.198616
C17_2 C 0.7898(2) 0.0424(4) 0.1081(3)
H13_2 H 0.762209 0.089821 0.115269
C18_2 C 0.8814(2) 0.3145(4) 0.0697(3)
C19_2 C 0.9192(2) 0.3124(3) 0.0181(3)
H14_2 H 0.935713 0.369629 0.003205
C21_2 C 0.9076(2) 0.1386(4) 0.0103(3)
C22_2 C 0.8695(2) 0.1429(3) 0.0617(3)
C23_2 C 0.8547(2) 0.2310(4) 0.0917(3)
H16_2 H 0.828116 0.233013 0.124973
N7_2 N 0.94462(19) 0.7554(3) 0.1094(2)
N8 N 0.8345(2) 0.8982(3) 0.1037(2)
N3_2 N 0.97379(18) 0.2220(3) 0.9388(2)
O2_2 O 0.8613(2) 0.7191(4) 0.9879(2)
C1_2 C 0.8082(3) 0.7210(4) 0.9839(3)
C2_2 C 0.7012(3) 0.7589(3) 0.7338(3)
C3_2 C 0.7806(3) 0.7307(3) 0.9184(3)
C4_2 C 0.7222(3) 0.7309(4) 0.9126(3)
H1_2 H 0.699793 0.724798 0.949320
C5_2 C 0.6962(3) 0.7398(4) 0.8539(3)
H2_2 H 0.656518 0.739702 0.851070
C6_2 C 0.7292(2) 0.7490(3) 0.7986(2)
C7_2 C 0.7878(3) 0.7506(4) 0.8042(3)
H3_2 H 0.810364 0.758280 0.767678
C8_2 C 0.8134(3) 0.7409(4) 0.8638(3)
H4_2 H 0.853101 0.741280 0.867115
C14_2 C 0.9739(2) 0.1603(4) 0.8871(3)
H10_2 H 0.945549 0.116395 0.875435
C20_2 C 0.9319(2) 0.2266(3) 0.9899(3)
H15_2 H 0.916427 0.079978 0.990346
C15_2 C 0.8686(2) 0.9659(3) 0.0826(3)
H11_2 H 0.905758 0.954326 0.068489
C16_2 C 0.7857(2) 0.9450(4) 0.1196(3)
H12_2 H 0.753419 0.914613 0.136365
N2_3 N 0.35823(19) 0.0608(3) 0.3802(2)
O1_3 O 0.27757(19) 0.2176(3) 0.46801(19)
O2_3 O 0.3613(2) 0.2191(4) 0.5121(2)
O3_2 O 0.23206(18) 0.2689(3) 0.81478(19)
O4_2 O 0.14824(18) 0.2605(3) 0.7698(2)
C1_3 C 0.3082(3) 0.2210(4) 0.5161(3)
C2_3 C 0.2012(3) 0.2589(3) 0.7662(3)
C3_3 C 0.2806(3) 0.2307(3) 0.5816(3)
C4_3 C 0.2222(3) 0.2309(4) 0.5874(3)
H1_3 H 0.199793 0.224798 0.550680
C5_3 C 0.1962(3) 0.2398(4) 0.6461(3)
H2_3 H 0.156518 0.239702 0.648930
C6_3 C 0.2292(2) 0.2490(3) 0.7014(2)
C7_3 C 0.2878(3) 0.2506(4) 0.6958(3)
H3_3 H 0.310364 0.258280 0.732322
C8_3 C 0.3134(3) 0.2409(4) 0.6362(3)
H4_3 H 0.353101 0.241280 0.632885
H5_3 H 0.365463 0.005392 0.468241
C10_3 C 0.3593(3) 0.0119(4) 0.3223(3)
H6_3 H 0.355652 0.041001 0.282096
N8_2 N 0.3345(2) 0.3982(3) 0.3963(2)
O5_2 O 0.26794(18) 0.2311(3) 0.31478(19)
O6_2 O 0.35176(18) 0.2395(3) 0.2698(2)
N1_3 N 0.3701(2) 0.9033(3) 0.3982(2)
N3_3 N 0.47379(18) 0.7220(3) 0.5612(2)
N5_3 N 0.34396(16) 0.5550(3) 0.4167(2)
C9_3 C 0.3647(2) 0.9930(3) 0.4243(3)
C11_3 C 0.3663(3) 0.9155(4) 0.3325(3)
H7_3 H 0.368251 0.867067 0.301384
C12_3 C 0.5239(2) 0.7699(4) 0.5604(3)
H8_3 H 0.534601 0.814836 0.529188
C13_3 C 0.5237(2) 0.6767(4) 0.6431(3)
H9_3 H 0.535263 0.646761 0.681080
C14_3 C 0.4739(2) 0.6603(4) 0.6129(3)
H10_3 H 0.445549 0.616395 0.624565
C15_3 C 0.3686(2) 0.4659(3) 0.4174(3)
H11_3 H 0.405758 0.454326 0.431511
C16_3 C 0.2857(2) 0.4450(4) 0.3804(3)
H12_3 H 0.253419 0.414613 0.363635
C17_3 C 0.2898(2) 0.5424(4) 0.3919(3)
H13_3 H 0.262209 0.589821 0.384731
C18_3 C 0.3814(2) 0.8145(4) 0.4303(3)
C19_3 C 0.4192(2) 0.8124(3) 0.4819(3)
H14_3 H 0.435713 0.869629 0.496795
C20_3 C 0.4319(2) 0.7266(3) 0.5101(3)
C21_3 C 0.4076(2) 0.6386(4) 0.4897(3)
H15_3 H 0.416427 0.579978 0.509654
C22_3 C 0.3695(2) 0.6429(3) 0.4383(3)
C23_3 C 0.3547(2) 0.7310(4) 0.4083(3)
H16_3 H 0.328116 0.733013 0.375027
N6_2 N 0.1655(2) 0.1018(3) 0.8963(2)
C15_4 C 0.1314(2) 0.0341(3) 0.9174(3)
H11_4 H 0.094242 0.045674 0.931511
C16_4 C 0.2143(2) 0.0550(4) 0.8804(3)
H12_4 H 0.246581 0.085387 0.863635
N3_4 N 0.02621(18) 0.7780(3) 0.0612(2)
O2_4 O 0.1387(2) 0.2809(4) 0.0121(2)
C1_4 C 0.1918(3) 0.2790(4) 0.0161(3)
C2_4 C 0.2988(3) 0.2411(3) 0.2662(3)
C3_4 C 0.2194(3) 0.2693(3) 0.0816(3)
C4_4 C 0.2778(3) 0.2691(4) 0.0874(3)
H1_4 H 0.300207 0.275202 0.050680
C5_4 C 0.3038(3) 0.2602(4) 0.1461(3)
H2_4 H 0.343482 0.260298 0.148930
C6_4 C 0.2708(2) 0.2510(3) 0.2014(2)
C7_4 C 0.2122(3) 0.2494(4) 0.1958(3)
H3_4 H 0.189636 0.241720 0.232322
C8_4 C 0.1866(3) 0.2591(4) 0.1362(3)
H4_4 H 0.146899 0.258720 0.132885
C14_4 C 0.0261(2) 0.8397(4) 0.1129(3)
H10_4 H 0.054451 0.883605 0.124565
C20_4 C 0.0681(2) 0.7734(3) 0.0101(3)
H15_4 H 0.083573 0.920022 0.009654
N1_4 N 0.1299(2) 0.5967(3) 0.8982(2)
N2_4 N 0.14177(19) 0.4392(3) 0.8802(2)
N5_4 N 0.15604(16) 0.9450(3) 0.9167(2)
O1_4 O 0.22243(19) 0.2824(3) 0.96801(19)
C9_4 C 0.1353(2) 0.5070(3) 0.9243(3)
H5_4 H 0.134537 0.494608 0.968241
C10_4 C 0.1407(3) 0.4881(4) 0.8223(3)
H6_4 H 0.144348 0.458999 0.782096
C11_4 C 0.1337(3) 0.5845(4) 0.8325(3)
H7_4 H 0.131749 0.632933 0.801384
C17_4 C 0.2102(2) 0.9576(4) 0.8919(3)
H13_4 H 0.237791 0.910179 0.884731
C18_4 C 0.1186(2) 0.6855(4) 0.9303(3)
C19_4 C 0.0808(2) 0.6876(3) 0.9819(3)
H14_4 H 0.064287 0.630371 0.996795
C21_4 C 0.0924(2) 0.8614(4) 0.9897(3)
C22_4 C 0.1305(2) 0.8571(3) 0.9383(3)
C23_4 C 0.1453(2) 0.7690(4) 0.9083(3)
H16_4 H 0.171884 0.766987 0.875027
C12_4 C 0.9761(2) 0.7301(4) 0.0604(3)
H8_4 H 0.965399 0.685164 0.029188
C13_4 C 0.9763(2) 0.8233(4) 0.1431(3)
H9_4 H 0.964737 0.853239 0.181080
Cd1 Cd 0.15302(2) 0.72975(2) 0.38776(2)
N1_5 N 0.1299(2) 0.4033(3) 0.3982(2)
N2_5 N 0.14177(19) 0.5608(3) 0.3802(2)
N3_5 N 0.02621(18) 0.2220(3) 0.5612(2)
N5_5 N 0.15604(16) 0.0550(3) 0.4167(2)
O1_5 O 0.22243(19) 0.7176(3) 0.46801(19)
O2_5 O 0.1387(2) 0.7191(4) 0.5121(2)
O3_3 O 0.26794(18) 0.7689(3) 0.81478(19)
O4_3 O 0.35176(18) 0.7605(3) 0.7698(2)
C1_5 C 0.1918(3) 0.7210(4) 0.5161(3)
C2_5 C 0.2988(3) 0.7589(3) 0.7662(3)
C3_5 C 0.2194(3) 0.7307(3) 0.5816(3)
C4_5 C 0.2778(3) 0.7309(4) 0.5874(3)
H1_5 H 0.300207 0.724798 0.550680
C5_5 C 0.3038(3) 0.7398(4) 0.6461(3)
H2_5 H 0.343482 0.739702 0.648930
C6_5 C 0.2708(2) 0.7490(3) 0.7014(2)
C7_5 C 0.2122(3) 0.7506(4) 0.6958(3)
H3_5 H 0.189636 0.758280 0.732322
C8_5 C 0.1866(3) 0.7409(4) 0.6362(3)
H4_5 H 0.146899 0.741280 0.632885
C9_5 C 0.1353(2) 0.4930(3) 0.4243(3)
H5_5 H 0.134537 0.505392 0.468241
C10_5 C 0.1407(3) 0.5119(4) 0.3223(3)
H6_5 H 0.144348 0.541001 0.282096
C11_5 C 0.1337(3) 0.4155(4) 0.3325(3)
H7_5 H 0.131749 0.367067 0.301384
C14_5 C 0.0261(2) 0.1603(4) 0.6129(3)
H10_5 H 0.054451 0.116395 0.624565
C17_5 C 0.2102(2) 0.0424(4) 0.3919(3)
H13_5 H 0.237791 0.089821 0.384731
C18_5 C 0.1186(2) 0.3145(4) 0.4303(3)
C19_5 C 0.0808(2) 0.3124(3) 0.4819(3)
H14_5 H 0.064287 0.369629 0.496795
C20_5 C 0.0681(2) 0.2266(3) 0.5101(3)
C21_5 C 0.0924(2) 0.1386(4) 0.4897(3)
H15_5 H 0.083573 0.079978 0.509654
C22_5 C 0.1305(2) 0.1429(3) 0.4383(3)
C23_5 C 0.1453(2) 0.2310(4) 0.4083(3)
H16_5 H 0.171884 0.233013 0.375027
Cd3_2 Cd 0.34698(2) 0.77025(2) 0.88776(2)
N7_3 N 0.05538(19) 0.7554(3) 0.3906(2)
N8_3 N 0.1655(2) 0.8982(3) 0.3963(2)
O5_3 O 0.23206(18) 0.7311(3) 0.31478(19)
O6_3 O 0.14824(18) 0.7395(3) 0.2698(2)
C15_5 C 0.1314(2) 0.9659(3) 0.4174(3)
H11_5 H 0.094242 0.954326 0.431511
C16_5 C 0.2143(2) 0.9450(4) 0.3804(3)
H12_5 H 0.246581 0.914613 0.363635
N1_6 N 0.3701(2) 0.0967(3) 0.8982(2)
N5_6 N 0.34396(16) 0.4450(3) 0.9167(2)
N6_3 N 0.3345(2) 0.6018(3) 0.8963(2)
C9_6 C 0.3647(2) 0.0070(3) 0.9243(3)
C11_6 C 0.3663(3) 0.0845(4) 0.8325(3)
H7_6 H 0.368251 0.132933 0.801384
C15_6 C 0.3686(2) 0.5341(3) 0.9174(3)
H11_6 H 0.405758 0.545674 0.931511
C16_6 C 0.2857(2) 0.5550(4) 0.8804(3)
H12_6 H 0.253419 0.585387 0.863635
C17_6 C 0.2898(2) 0.4576(4) 0.8919(3)
H13_6 H 0.262209 0.410179 0.884731
C18_6 C 0.3814(2) 0.1855(4) 0.9303(3)
C19_6 C 0.4192(2) 0.1876(3) 0.9819(3)
H14_6 H 0.435713 0.130371 0.996795
C21_6 C 0.4076(2) 0.3614(4) 0.9897(3)
C22_6 C 0.3695(2) 0.3571(3) 0.9383(3)
C23_6 C 0.3547(2) 0.2690(4) 0.9083(3)
H16_6 H 0.328116 0.266987 0.875027
O2_6 O 0.3613(2) 0.7809(4) 0.0121(2)
C1_6 C 0.3082(3) 0.7790(4) 0.0161(3)
C2_6 C 0.2012(3) 0.7411(3) 0.2662(3)
C3_6 C 0.2806(3) 0.7693(3) 0.0816(3)
C4_6 C 0.2222(3) 0.7691(4) 0.0874(3)
H1_6 H 0.199793 0.775202 0.050680
C5_6 C 0.1962(3) 0.7602(4) 0.1461(3)
H2_6 H 0.156518 0.760298 0.148930
C6_6 C 0.2292(2) 0.7510(3) 0.2014(2)
C7_6 C 0.2878(3) 0.7494(4) 0.1958(3)
H3_6 H 0.310364 0.741720 0.232322
C8_6 C 0.3134(3) 0.7591(4) 0.1362(3)
H4_6 H 0.353101 0.758720 0.132885
N2_6 N 0.35823(19) 0.9392(3) 0.8802(2)
O1_6 O 0.27757(19) 0.7824(3) 0.96801(19)
H5_6 H 0.365463 0.994608 0.968241
C10_6 C 0.3593(3) 0.9881(4) 0.8223(3)
H6_6 H 0.355652 0.958999 0.782096
N7_4 N 0.44462(19) 0.7446(3) 0.8906(2)
C12_5 C 0.0239(2) 0.7301(4) 0.4396(3)
H8_5 H 0.034601 0.685164 0.470812
C13_5 C 0.0237(2) 0.8233(4) 0.3569(3)
H9_5 H 0.035263 0.853239 0.318920
N3_6 N 0.52621(18) 0.7220(3) 0.9388(2)
C12_6 C 0.4761(2) 0.7699(4) 0.9396(3)
H8_6 H 0.465399 0.814836 0.970812
C13_6 C 0.4763(2) 0.6767(4) 0.8569(3)
H9_6 H 0.464737 0.646761 0.818920
C14_6 C 0.5261(2) 0.6603(4) 0.8871(3)
H10_6 H 0.554451 0.616395 0.875435
C20_6 C 0.5681(2) 0.7266(3) 0.9899(3)
H15_6 H 0.583573 0.579978 0.990346
N4_3 N 0.94462(19) 0.2446(3) 0.6094(2)
C12_7 C 0.9761(2) 0.2699(4) 0.5604(3)
H8_7 H 0.965399 0.314836 0.529188
C13_7 C 0.9763(2) 0.1767(4) 0.6431(3)
H9_7 H 0.964737 0.146761 0.681080
Cd4_3 Cd 0.84698(2) 0.27025(2) 0.61224(2)
N3_7 N 0.47379(18) 0.2780(3) 0.0612(2)
N4_4 N 0.55538(19) 0.2554(3) 0.1094(2)
C12_8 C 0.5239(2) 0.2301(4) 0.0604(3)
H8_8 H 0.534601 0.185164 0.029188
C13_8 C 0.5237(2) 0.3233(4) 0.1431(3)
H9_8 H 0.535263 0.353239 0.181080
C14_7 C 0.4739(2) 0.3397(4) 0.1129(3)
H10_7 H 0.445549 0.383605 0.124565
C20_7 C 0.4319(2) 0.2734(3) 0.0101(3)
H15_7 H 0.416427 0.420022 0.009654
Cd4_4 Cd 0.65302(2) 0.22975(2) 0.11224(2)
N6_4 N 0.8345(2) 0.1018(3) 0.6037(2)
C15_7 C 0.8686(2) 0.0341(3) 0.5826(3)
H11_7 H 0.905758 0.045674 0.568489
C16_7 C 0.7857(2) 0.0550(4) 0.6196(3)
H12_7 H 0.753419 0.085387 0.636365
N1_7 N 0.8701(2) 0.5967(3) 0.6018(2)
N2_7 N 0.85823(19) 0.4392(3) 0.6198(2)
N3_8 N 0.97379(18) 0.7780(3) 0.4388(2)
N5_7 N 0.84396(16) 0.9450(3) 0.5833(2)
O1_7 O 0.77757(19) 0.2824(3) 0.53199(19)
O2_7 O 0.8613(2) 0.2809(4) 0.4879(2)
O3_4 O 0.73206(18) 0.2311(3) 0.18522(19)
O4_4 O 0.64824(18) 0.2395(3) 0.2302(2)
C1_7 C 0.8082(3) 0.2790(4) 0.4839(3)
C2_7 C 0.7012(3) 0.2411(3) 0.2338(3)
C3_7 C 0.7806(3) 0.2693(3) 0.4184(3)
C4_7 C 0.7222(3) 0.2691(4) 0.4126(3)
H1_7 H 0.699793 0.275202 0.449320
C5_7 C 0.6962(3) 0.2602(4) 0.3539(3)
H2_7 H 0.656518 0.260298 0.351070
C6_7 C 0.7292(2) 0.2510(3) 0.2986(2)
C7_7 C 0.7878(3) 0.2494(4) 0.3042(3)
H3_7 H 0.810364 0.241720 0.267678
C8_7 C 0.8134(3) 0.2591(4) 0.3638(3)
H4_7 H 0.853101 0.258720 0.367115
C9_7 C 0.8647(2) 0.5070(3) 0.5757(3)
H5_7 H 0.865463 0.494608 0.531759
C10_7 C 0.8593(3) 0.4881(4) 0.6777(3)
H6_7 H 0.855652 0.458999 0.717904
C11_7 C 0.8663(3) 0.5845(4) 0.6675(3)
H7_7 H 0.868251 0.632933 0.698616
C14_8 C 0.9739(2) 0.8397(4) 0.3871(3)
H10_8 H 0.945549 0.883605 0.375435
C17_7 C 0.7898(2) 0.9576(4) 0.6081(3)
H13_7 H 0.762209 0.910179 0.615269
C18_7 C 0.8814(2) 0.6855(4) 0.5697(3)
C19_7 C 0.9192(2) 0.6876(3) 0.5181(3)
H14_7 H 0.935713 0.630371 0.503205
C20_8 C 0.9319(2) 0.7734(3) 0.4899(3)
C21_7 C 0.9076(2) 0.8614(4) 0.5103(3)
H15_8 H 0.916427 0.920022 0.490346
C22_7 C 0.8695(2) 0.8571(3) 0.5617(3)
C23_7 C 0.8547(2) 0.7690(4) 0.5917(3)
H16_7 H 0.828116 0.766987 0.624973
O5_4 O 0.76794(18) 0.2689(3) 0.68522(19)
O6_4 O 0.85176(18) 0.2605(3) 0.7302(2)
N2_8 N 0.64177(19) 0.0608(3) 0.1198(2)
O1_8 O 0.72243(19) 0.2176(3) 0.03199(19)
H5_8 H 0.634537 0.005392 0.031759
C10_8 C 0.6407(3) 0.0119(4) 0.1777(3)
H6_8 H 0.644348 0.041001 0.217904
N8_4 N 0.6655(2) 0.3982(3) 0.1037(2)
O2_8 O 0.6387(2) 0.2191(4) 0.9879(2)
C1_8 C 0.6918(3) 0.2210(4) 0.9839(3)
C2_8 C 0.7988(3) 0.2589(3) 0.7338(3)
C3_8 C 0.7194(3) 0.2307(3) 0.9184(3)
C4_8 C 0.7778(3) 0.2309(4) 0.9126(3)
H1_8 H 0.800207 0.224798 0.949320
C5_8 C 0.8038(3) 0.2398(4) 0.8539(3)
H2_8 H 0.843482 0.239702 0.851070
C6_8 C 0.7708(2) 0.2490(3) 0.7986(2)
C7_8 C 0.7122(3) 0.2506(4) 0.8042(3)
H3_8 H 0.689636 0.258280 0.767678
C8_8 C 0.6866(3) 0.2409(4) 0.8638(3)
H4_8 H 0.646899 0.241280 0.867115
N1_8 N 0.6299(2) 0.9033(3) 0.1018(2)
N5_8 N 0.65604(16) 0.5550(3) 0.0833(2)
C9_8 C 0.6353(2) 0.9930(3) 0.0757(3)
C11_8 C 0.6337(3) 0.9155(4) 0.1675(3)
H7_8 H 0.631749 0.867067 0.198616
C15_8 C 0.6314(2) 0.4659(3) 0.0826(3)
H11_8 H 0.594242 0.454326 0.068489
C16_8 C 0.7143(2) 0.4450(4) 0.1196(3)
H12_8 H 0.746581 0.414613 0.136365
C17_8 C 0.7102(2) 0.5424(4) 0.1081(3)
H13_8 H 0.737791 0.589821 0.115269
C18_8 C 0.6186(2) 0.8145(4) 0.0697(3)
C19_8 C 0.5808(2) 0.8124(3) 0.0181(3)
H14_8 H 0.564287 0.869629 0.003205
C21_8 C 0.5924(2) 0.6386(4) 0.0103(3)
C22_8 C 0.6305(2) 0.6429(3) 0.0617(3)
C23_8 C 0.6453(2) 0.7310(4) 0.0917(3)
H16_8 H 0.671884 0.733013 0.124973
loop_
_geom_bond_atom_site_label_1
_geom_bond_atom_site_label_2
_geom_bond_site_symmetry_1
_geom_bond_site_symmetry_2
N1 C9 1_555 1_555
N3 C12 1_555 1_555
N4 C12 1_555 1_555
N5 C15 1_555 1_555
N6 C15 1_555 1_555
C11 N1 1_555 1_555
H7 C11 1_555 1_555
C12 H8 1_555 1_555
C13 N4 1_555 1_555
H9 C13 1_555 1_555
C14 N3 1_555 1_555
H10 C14 1_555 1_555
C15 H11 1_555 1_555
C16 N6 1_555 1_555
H12 C16 1_555 1_555
C17 N5 1_555 1_555
H13 C17 1_555 1_555
C18 N1 1_555 1_555
C19 C18 1_555 1_555
H14 C19 1_555 1_555
C20 N3 1_555 1_555
C21 C20 1_555 1_555
H15 C21 1_555 1_555
C22 N5 1_555 1_555
C23 C18 1_555 1_555
H16 C23 1_555 1_555
Cd2 N6 1_555 1_555
Cd4 N4 1_555 1_555
C13 C14 1_555 1_555
C16 C17 1_555 1_555
C19 C20 1_555 1_555
C21 C22 1_555 1_555
C22 C23 1_555 1_555
Cd2 N2 1_555 1_555
O1 Cd2 1_555 1_555
O2 Cd2 1_555 1_555
O3 C2 1_555 1_555
O4 C2 1_555 1_555
C1 O1 1_555 1_555
C2 C6 1_555 1_555
C3 C1 1_555 1_555
C4 C3 1_555 1_555
H1 C4 1_555 1_555
C5 C4 1_555 1_555
H2 C5 1_555 1_555
C6 C5 1_555 1_555
C7 C6 1_555 1_555
H3 C7 1_555 1_555
C8 C3 1_555 1_555
H4 C8 1_555 1_555
C10 N2 1_555 1_555
H6 C10 1_555 1_555
Cd3 O3 1_555 1_555
N7 Cd2 1_555 1_555
O5 Cd2 1_555 1_555
O6 Cd2 1_555 1_555
O2 C1 1_555 1_555
O4 Cd3 1_555 1_555
C7 C8 1_555 1_555
N4_2 C12_2 1_555 1_555
C12_2 H8_2 1_555 1_555
C13_2 N4_2 1_555 1_555
H9_2 C13_2 1_555 1_555
Cd4_2 N4_2 1_555 1_555
Cd3 N2_2 1_555 1_555
N1_2 C9_2 1_555 1_555
N2_2 C9_2 1_555 1_555
O1_2 Cd3 1_555 1_555
C9_2 H5_2 1_555 1_555
C10_2 N2_2 1_555 1_555
H6_2 C10_2 1_555 1_555
C11_2 N1_2 1_555 1_555
H7_2 C11_2 1_555 1_555
C17_2 N5_2 1_555 1_555
H13_2 C17_2 1_555 1_555
C18_2 N1_2 1_555 1_555
C19_2 C18_2 1_555 1_555
H14_2 C19_2 1_555 1_555
C22_2 N5_2 1_555 1_555
C23_2 C18_2 1_555 1_555
H16_2 C23_2 1_555 1_555
N7_2 Cd3 1_555 1_555
N8 Cd3 1_555 1_555
C10_2 C11_2 1_555 1_555
C21_2 C22_2 1_555 1_555
C22_2 C23_2 1_555 1_555
O5 C2_2 1_555 1_555
O6 C2_2 1_555 1_555
C2_2 C6_2 1_555 1_555
C3_2 C1_2 1_555 1_555
C4_2 C3_2 1_555 1_555
H1_2 C4_2 1_555 1_555
C5_2 C4_2 1_555 1_555
H2_2 C5_2 1_555 1_555
C6_2 C5_2 1_555 1_555
C7_2 C6_2 1_555 1_555
H3_2 C7_2 1_555 1_555
C8_2 C3_2 1_555 1_555
H4_2 C8_2 1_555 1_555
C14_2 N3_2 1_555 1_555
H10_2 C14_2 1_555 1_555
C20_2 N3_2 1_555 1_555
O2_2 C1_2 1_555 1_555
C7_2 C8_2 1_555 1_555
N8 C15_2 1_555 1_555
C15_2 H11_2 1_555 1_555
C16_2 N8 1_555 1_555
H12_2 C16_2 1_555 1_555
Cd4 N2_3 1_555 1_555
O1_3 Cd4 1_555 1_555
O2_3 Cd4 1_555 1_555
O3_2 C2_3 1_555 1_555
O4_2 C2_3 1_555 1_555
C1_3 O1_3 1_555 1_555
C2_3 C6_3 1_555 1_555
C3_3 C1_3 1_555 1_555
C4_3 C3_3 1_555 1_555
H1_3 C4_3 1_555 1_555
C5_3 C4_3 1_555 1_555
H2_3 C5_3 1_555 1_555
C6_3 C5_3 1_555 1_555
C7_3 C6_3 1_555 1_555
H3_3 C7_3 1_555 1_555
C8_3 C3_3 1_555 1_555
H4_3 C8_3 1_555 1_555
C10_3 N2_3 1_555 1_555
H6_3 C10_3 1_555 1_555
Cd4_2 O3_2 1_555 1_555
N8_2 Cd4 1_555 1_555
O5_2 Cd4 1_555 1_555
O6_2 Cd4 1_555 1_555
O2_3 C1_3 1_555 1_555
O4_2 Cd4_2 1_555 1_555
C7_3 C8_3 1_555 1_555
N1_3 C9_3 1_555 1_555
N3_3 C12_3 1_555 1_555
N7 C12_3 1_555 1_555
N5_3 C15_3 1_555 1_555
N8_2 C15_3 1_555 1_555
C11_3 N1_3 1_555 1_555
H7_3 C11_3 1_555 1_555
C12_3 H8_3 1_555 1_555
C13_3 N7 1_555 1_555
H9_3 C13_3 1_555 1_555
C14_3 N3_3 1_555 1_555
H10_3 C14_3 1_555 1_555
C15_3 H11_3 1_555 1_555
C16_3 N8_2 1_555 1_555
H12_3 C16_3 1_555 1_555
C17_3 N5_3 1_555 1_555
H13_3 C17_3 1_555 1_555
C18_3 N1_3 1_555 1_555
C19_3 C18_3 1_555 1_555
H14_3 C19_3 1_555 1_555
C20_3 N3_3 1_555 1_555
C21_3 C20_3 1_555 1_555
H15_3 C21_3 1_555 1_555
C22_3 N5_3 1_555 1_555
C23_3 C18_3 1_555 1_555
H16_3 C23_3 1_555 1_555
C13_3 C14_3 1_555 1_555
C16_3 C17_3 1_555 1_555
C19_3 C20_3 1_555 1_555
C21_3 C22_3 1_555 1_555
C22_3 C23_3 1_555 1_555
N6_2 C15_4 1_555 1_555
C15_4 H11_4 1_555 1_555
C16_4 N6_2 1_555 1_555
H12_4 C16_4 1_555 1_555
Cd4_2 N6_2 1_555 1_555
O5_2 C2_4 1_555 1_555
O6_2 C2_4 1_555 1_555
C2_4 C6_4 1_555 1_555
C3_4 C1_4 1_555 1_555
C4_4 C3_4 1_555 1_555
H1_4 C4_4 1_555 1_555
C5_4 C4_4 1_555 1_555
H2_4 C5_4 1_555 1_555
C6_4 C5_4 1_555 1_555
C7_4 C6_4 1_555 1_555
H3_4 C7_4 1_555 1_555
C8_4 C3_4 1_555 1_555
H4_4 C8_4 1_555 1_555
C14_4 N3_4 1_555 1_555
H10_4 C14_4 1_555 1_555
C20_4 N3_4 1_555 1_555
O2_4 C1_4 1_555 1_555
C7_4 C8_4 1_555 1_555
Cd4_2 N2_4 1_555 1_555
N1_4 C9_4 1_555 1_555
N2_4 C9_4 1_555 1_555
O1_4 Cd4_2 1_555 1_555
C9_4 H5_4 1_555 1_555
C10_4 N2_4 1_555 1_555
H6_4 C10_4 1_555 1_555
C11_4 N1_4 1_555 1_555
H7_4 C11_4 1_555 1_555
C17_4 N5_4 1_555 1_555
H13_4 C17_4 1_555 1_555
C18_4 N1_4 1_555 1_555
C19_4 C18_4 1_555 1_555
H14_4 C19_4 1_555 1_555
C22_4 N5_4 1_555 1_555
C23_4 C18_4 1_555 1_555
H16_4 C23_4 1_555 1_555
C10_4 C11_4 1_555 1_555
C21_4 C22_4 1_555 1_555
C22_4 C23_4 1_555 1_555
N7_2 C12_4 1_555 1_555
C12_4 H8_4 1_555 1_555
C13_4 N7_2 1_555 1_555
H9_4 C13_4 1_555 1_555
Cd1 N2_5 1_555 1_555
N1_5 C9_5 1_555 1_555
N2_5 C9_5 1_555 1_555
O1_5 Cd1 1_555 1_555
O2_5 Cd1 1_555 1_555
O3_3 C2_5 1_555 1_555
O4_3 C2_5 1_555 1_555
C1_5 O1_5 1_555 1_555
C2_5 C6_5 1_555 1_555
C3_5 C1_5 1_555 1_555
C4_5 C3_5 1_555 1_555
H1_5 C4_5 1_555 1_555
C5_5 C4_5 1_555 1_555
H2_5 C5_5 1_555 1_555
C6_5 C5_5 1_555 1_555
C7_5 C6_5 1_555 1_555
H3_5 C7_5 1_555 1_555
C8_5 C3_5 1_555 1_555
H4_5 C8_5 1_555 1_555
C9_5 H5_5 1_555 1_555
C10_5 N2_5 1_555 1_555
H6_5 C10_5 1_555 1_555
C11_5 N1_5 1_555 1_555
H7_5 C11_5 1_555 1_555
C14_5 N3_5 1_555 1_555
H10_5 C14_5 1_555 1_555
C17_5 N5_5 1_555 1_555
H13_5 C17_5 1_555 1_555
C18_5 N1_5 1_555 1_555
C19_5 C18_5 1_555 1_555
H14_5 C19_5 1_555 1_555
C20_5 N3_5 1_555 1_555
C21_5 C20_5 1_555 1_555
H15_5 C21_5 1_555 1_555
C22_5 N5_5 1_555 1_555
C23_5 C18_5 1_555 1_555
H16_5 C23_5 1_555 1_555
Cd3_2 O3_3 1_555 1_555
N7_3 Cd1 1_555 1_555
N8_3 Cd1 1_555 1_555
O5_3 Cd1 1_555 1_555
O6_3 Cd1 1_555 1_555
O2_5 C1_5 1_555 1_555
O4_3 Cd3_2 1_555 1_555
C7_5 C8_5 1_555 1_555
C10_5 C11_5 1_555 1_555
C19_5 C20_5 1_555 1_555
C21_5 C22_5 1_555 1_555
C22_5 C23_5 1_555 1_555
N8_3 C15_5 1_555 1_555
C15_5 H11_5 1_555 1_555
C16_5 N8_3 1_555 1_555
H12_5 C16_5 1_555 1_555
N1_6 C9_6 1_555 1_555
N5_6 C15_6 1_555 1_555
N6_3 C15_6 1_555 1_555
C11_6 N1_6 1_555 1_555
H7_6 C11_6 1_555 1_555
C15_6 H11_6 1_555 1_555
C16_6 N6_3 1_555 1_555
H12_6 C16_6 1_555 1_555
C17_6 N5_6 1_555 1_555
H13_6 C17_6 1_555 1_555
C18_6 N1_6 1_555 1_555
C19_6 C18_6 1_555 1_555
H14_6 C19_6 1_555 1_555
C22_6 N5_6 1_555 1_555
C23_6 C18_6 1_555 1_555
H16_6 C23_6 1_555 1_555
Cd3_2 N6_3 1_555 1_555
C16_6 C17_6 1_555 1_555
C21_6 C22_6 1_555 1_555
C22_6 C23_6 1_555 1_555
O5_3 C2_6 1_555 1_555
O6_3 C2_6 1_555 1_555
C2_6 C6_6 1_555 1_555
C3_6 C1_6 1_555 1_555
C4_6 C3_6 1_555 1_555
H1_6 C4_6 1_555 1_555
C5_6 C4_6 1_555 1_555
H2_6 C5_6 1_555 1_555
C6_6 C5_6 1_555 1_555
C7_6 C6_6 1_555 1_555
H3_6 C7_6 1_555 1_555
C8_6 C3_6 1_555 1_555
H4_6 C8_6 1_555 1_555
O2_6 C1_6 1_555 1_555
C7_6 C8_6 1_555 1_555
Cd3_2 N2_6 1_555 1_555
O1_6 Cd3_2 1_555 1_555
C10_6 N2_6 1_555 1_555
H6_6 C10_6 1_555 1_555
N7_4 Cd3_2 1_555 1_555
N7_3 C12_5 1_555 1_555
C12_5 H8_5 1_555 1_555
C13_5 N7_3 1_555 1_555
H9_5 C13_5 1_555 1_555
N3_6 C12_6 1_555 1_555
N7_4 C12_6 1_555 1_555
C12_6 H8_6 1_555 1_555
C13_6 N7_4 1_555 1_555
H9_6 C13_6 1_555 1_555
C14_6 N3_6 1_555 1_555
H10_6 C14_6 1_555 1_555
C20_6 N3_6 1_555 1_555
C13_6 C14_6 1_555 1_555
N4_3 C12_7 1_555 1_555
C12_7 H8_7 1_555 1_555
C13_7 N4_3 1_555 1_555
H9_7 C13_7 1_555 1_555
Cd4_3 N4_3 1_555 1_555
N3_7 C12_8 1_555 1_555
N4_4 C12_8 1_555 1_555
C12_8 H8_8 1_555 1_555
C13_8 N4_4 1_555 1_555
H9_8 C13_8 1_555 1_555
C14_7 N3_7 1_555 1_555
H10_7 C14_7 1_555 1_555
C20_7 N3_7 1_555 1_555
Cd4_4 N4_4 1_555 1_555
C13_8 C14_7 1_555 1_555
N6_4 C15_7 1_555 1_555
C15_7 H11_7 1_555 1_555
C16_7 N6_4 1_555 1_555
H12_7 C16_7 1_555 1_555
Cd4_3 N6_4 1_555 1_555
Cd4_3 N2_7 1_555 1_555
N1_7 C9_7 1_555 1_555
N2_7 C9_7 1_555 1_555
O1_7 Cd4_3 1_555 1_555
O2_7 Cd4_3 1_555 1_555
O3_4 C2_7 1_555 1_555
O4_4 C2_7 1_555 1_555
C1_7 O1_7 1_555 1_555
C2_7 C6_7 1_555 1_555
C3_7 C1_7 1_555 1_555
C4_7 C3_7 1_555 1_555
H1_7 C4_7 1_555 1_555
C5_7 C4_7 1_555 1_555
H2_7 C5_7 1_555 1_555
C6_7 C5_7 1_555 1_555
C7_7 C6_7 1_555 1_555
H3_7 C7_7 1_555 1_555
C8_7 C3_7 1_555 1_555
H4_7 C8_7 1_555 1_555
C9_7 H5_7 1_555 1_555
C10_7 N2_7 1_555 1_555
H6_7 C10_7 1_555 1_555
C11_7 N1_7 1_555 1_555
H7_7 C11_7 1_555 1_555
C14_8 N3_8 1_555 1_555
H10_8 C14_8 1_555 1_555
C17_7 N5_7 1_555 1_555
H13_7 C17_7 1_555 1_555
C18_7 N1_7 1_555 1_555
C19_7 C18_7 1_555 1_555
H14_7 C19_7 1_555 1_555
C20_8 N3_8 1_555 1_555
C21_7 C20_8 1_555 1_555
H15_8 C21_7 1_555 1_555
C22_7 N5_7 1_555 1_555
C23_7 C18_7 1_555 1_555
H16_7 C23_7 1_555 1_555
Cd4_4 O3_4 1_555 1_555
O5_4 Cd4_3 1_555 1_555
O6_4 Cd4_3 1_555 1_555
O2_7 C1_7 1_555 1_555
O4_4 Cd4_4 1_555 1_555
C7_7 C8_7 1_555 1_555
C10_7 C11_7 1_555 1_555
C19_7 C20_8 1_555 1_555
C21_7 C22_7 1_555 1_555
C22_7 C23_7 1_555 1_555
Cd4_4 N2_8 1_555 1_555
O1_8 Cd4_4 1_555 1_555
C10_8 N2_8 1_555 1_555
H6_8 C10_8 1_555 1_555
N8_4 Cd4_4 1_555 1_555
O5_4 C2_8 1_555 1_555
O6_4 C2_8 1_555 1_555
C2_8 C6_8 1_555 1_555
C3_8 C1_8 1_555 1_555
C4_8 C3_8 1_555 1_555
H1_8 C4_8 1_555 1_555
C5_8 C4_8 1_555 1_555
H2_8 C5_8 1_555 1_555
C6_8 C5_8 1_555 1_555
C7_8 C6_8 1_555 1_555
H3_8 C7_8 1_555 1_555
C8_8 C3_8 1_555 1_555
H4_8 C8_8 1_555 1_555
O2_8 C1_8 1_555 1_555
C7_8 C8_8 1_555 1_555
N1_8 C9_8 1_555 1_555
N5_8 C15_8 1_555 1_555
N8_4 C15_8 1_555 1_555
C11_8 N1_8 1_555 1_555
H7_8 C11_8 1_555 1_555
C15_8 H11_8 1_555 1_555
C16_8 N8_4 1_555 1_555
H12_8 C16_8 1_555 1_555
C17_8 N5_8 1_555 1_555
H13_8 C17_8 1_555 1_555
C18_8 N1_8 1_555 1_555
C19_8 C18_8 1_555 1_555
H14_8 C19_8 1_555 1_555
C22_8 N5_8 1_555 1_555
C23_8 C18_8 1_555 1_555
H16_8 C23_8 1_555 1_555
C16_8 C17_8 1_555 1_555
C21_8 C22_8 1_555 1_555
C22_8 C23_8 1_555 1_555

#END
