
###############################################################################
#
# This file contains modified crystal structure data generated from the
# MOF subset of the Cambridge Structural Database (CSD) v543 
# hosted by the Cambridge Crystallographic Data Centre (CCDC).
#
# This work is licensed under the Creative Commons
# Attribution-NonCommercial-ShareAlike 4.0 International License.
# To view a copy of this license, visit
# http://creativecommons.org/licenses/by-nc-sa/4.0/
# or send a letter to
# Creative Commons, PO Box 1866, Mountain View, CA 94042, USA.
#
# CIF created using the CSD Python API on 29 September 2022
# The structure has been converted into the P1 space group
# The structure has a 3D framework
# The original CSD entry GEDDAW is in the rhombohedral crystal system
# The framework has been calculated to contain at least 10.0% void space
# The void calculation uses a probe of radius 1.32A, grid spacing 0.4
#
###############################################################################

data_GEDDAW
_chemical_formula_moiety         '(C288 H532 Co70 O309 S90)n'
_symmetry_cell_setting           triclinic
_symmetry_space_group_name_H-M   'P 1'
_symmetry_Int_Tables_number      1
_space_group_name_Hall           'P 1'
loop_
_symmetry_equiv_pos_site_id
_symmetry_equiv_pos_as_xyz
1 x,y,z
_cell_length_a                   27.402(4)
_cell_length_b                   27.402(4)
_cell_length_c                   28.865(6)
_cell_angle_alpha                90
_cell_angle_beta                 90
_cell_angle_gamma                120
_cell_volume                     18770.1
loop_
_atom_site_label
_atom_site_type_symbol
_atom_site_fract_x
_atom_site_fract_y
_atom_site_fract_z
Co1 Co 0.04483(5) 0.28349(5) 0.03696(4)
Co4 Co 0.17714(5) 0.35180(5) 0.02917(4)
O1 O 0.1510(3) 0.4043(3) 0.0560(2)
O2 O 0.0640(3) 0.3457(3) 0.0831(2)
O3 O 0.0045(3) 0.3915(3) 0.2342(2)
O4 O 0.0505(3) 0.4831(3) 0.2527(3)
C1 C 0.1112(4) 0.3909(4) 0.0850(3)
C2 C 0.0442(4) 0.4413(4) 0.2300(3)
C3 C 0.1208(4) 0.4295(4) 0.1250(3)
C4 C 0.1742(4) 0.4784(5) 0.1298(4)
H1 H 0.2032 0.4869 0.1078
C5 C 0.1833(4) 0.5136(5) 0.1669(4)
H2 H 0.2188 0.5469 0.1703
C6 C 0.1417(5) 0.5013(5) 0.1991(4)
H3 H 0.1489 0.5262 0.2244
C7 C 0.0894(4) 0.4528(4) 0.1949(3)
C8 C 0.0797(4) 0.4170(4) 0.1577(3)
H4 H 0.0443 0.3835 0.1548
S1 S 0.11110(10) 0.22182(10) 0.07215(8)
O5 O 0.1119(3) 0.2772(3) 0.0679(2)
O6 O 0.1666(3) 0.2341(3) 0.0901(2)
O7 O 0.0666(3) 0.1854(3) 0.1043(2)
O8 O 0.1002(3) 0.1950(3) 0.0257(2)
C10 C 0.2634(10) 0.5197(7) 0.0003(7)
H10 H 0.2448 0.5140 0.0305
H12 H 0.3018 0.5266 0.0049
Co5 Co 0.24244(7) 0.27378(5) 0.05255(4)
Co9 Co 0.01847(5) 0.50799(7) 0.30416(4)
O19 O 0.2341(4) 0.3838(3) 0.0806(3)
O23 O 0.2149(2) 0.2103(3) 0.0029(2)
H32 H 0.2017 0.1770 0.0135
O24 O 0.2059(3) 0.3024(2) 0.0035(2)
Co3 Co 0.15817(5) 0.22626(5) 0.97020(4)
S2 S 0.10383(10) 0.30196(10) 0.93383(8)
O9 O 0.1077(2) 0.3226(3) 0.9831(2)
O10 O 0.1086(3) 0.2507(3) 0.9347(2)
O11 O 0.0485(3) 0.2874(3) 0.9154(2)
O12 O 0.1481(3) 0.3461(3) 0.9065(2)
O13 O 0.0046(2) 0.2149(2) 0.9971(2)
H5 H 0.0247 0.2017 0.9865
S3 S 0.22514(19) 0.45896(18) 0.96596(15)
O15 O 0.2348(3) 0.4147(3) 0.9839(3)
C9 C 0.2719(10) 0.4851(8) 0.9165(7)
H7 H 0.2576 0.4567 0.8919
H8 H 0.3096 0.4931 0.9257
H9 H 0.2739 0.5197 0.9051
H11 H 0.2648 0.5521 0.9847
S5 S 0.01488(13) 0.37580(12) 0.99760(11)
C14 C 0.0522(6) 0.4020(5) 0.9433(5)
H22 H 0.0881 0.4023 0.9447
H23 H 0.0594 0.4403 0.9379
H24 H 0.0292 0.3775 0.9179
O18 O 0.1155(3) 0.1505(3) 0.9373(2)
H25 H 0.1345 0.1465 0.9159
C15 C 0.0625(15) 0.1322(14) 0.9199(17)
H26 H 0.0456 0.0906 0.9198
H27 H 0.0435 0.1400 0.9456
C16 C 0.0357(19) 0.1429(10) 0.8758(10)
H29 H 0.0435 0.1819 0.8760
H30 H 0.0520 0.1364 0.8479
H33 H 0.2322 0.3231 0.9848
O25 O 0.2288(3) 0.2530(4) 0.9199(2)
Co2 Co 0.94045(5) 0.36468(5) 0.28078(4)
O14 O 0.9691(2) 0.4299(2) 0.3298(2)
H6 H 0.9898 0.4243 0.3485
S4 S 0.97476(14) 0.24168(14) 0.13232(10)
O16 O 0.9758(3) 0.2288(3) 0.0801(2)
C11 C 0.9227(5) 0.2613(5) 0.1362(4)
H13 H 0.9365 0.2981 0.1214
H14 H 0.9144 0.2637 0.1689
H15 H 0.8884 0.2331 0.1205
C12 C 0.9398(6) 0.1759(6) 0.1594(5)
H16 H 0.9644 0.1594 0.1600
H17 H 0.9053 0.1509 0.1422
H18 H 0.9300 0.1804 0.1912
H19 H 0.9285 0.3656 0.0129
Co7 Co 0.93191(7) 0.15817(5) 0.02980(4)
Co8 Co 0.89293(5) 0.40142(7) 0.36313(4)
O20 O 0.9008(3) 0.4008(4) 0.2432(2)
O21 O 0.9056(4) 0.2848(3) 0.2487(2)
O22 O 0.8770(3) 0.3287(2) 0.3304(2)
H31 H 0.8437 0.3086 0.3198
O26 O 0.9832(4) 0.3370(3) 0.3320(2)
O17 O 0.9963(3) 0.3128(3) 0.9987(2)
C13 C 0.9533(6) 0.3786(6) 0.9857(5)
H20 H 0.9337 0.3543 0.9592
H21 H 0.9634 0.4175 0.9785
H28 H 0.9948 0.1171 0.8760
Co6 Co 0.96865(5) 0.24244(7) 0.94745(4)
O23_2 O 0.7897(3) 0.0046(4) 0.0029(2)
H32_2 H 0.8230 0.0247 0.0135
Co1_2 Co 0.71651(5) 0.76134(7) 0.03696(4)
Co2_2 Co 0.63532(5) 0.57577(7) 0.28078(4)
Co4_2 Co 0.64820(5) 0.82534(7) 0.02917(4)
O1_2 O 0.5957(3) 0.7467(4) 0.0560(2)
O2_2 O 0.6543(3) 0.7183(4) 0.0831(2)
O3_2 O 0.6085(3) 0.6130(4) 0.2342(2)
O4_2 O 0.5169(3) 0.5674(4) 0.2527(3)
C1_2 C 0.6091(4) 0.7203(6) 0.0850(3)
C2_2 C 0.5587(4) 0.6029(6) 0.2300(3)
C3_2 C 0.5705(4) 0.6913(6) 0.1250(3)
C4_2 C 0.5216(5) 0.6958(6) 0.1298(4)
H1_2 H 0.5131 0.7163 0.1078
C5_2 C 0.4864(5) 0.6697(6) 0.1669(4)
H2_2 H 0.4531 0.6719 0.1703
C6_2 C 0.4987(5) 0.6404(7) 0.1991(4)
H3_2 H 0.4738 0.6227 0.2244
C7_2 C 0.5472(4) 0.6366(6) 0.1949(3)
C8_2 C 0.5830(4) 0.6627(6) 0.1577(3)
H4_2 H 0.6165 0.6608 0.1548
S1_2 S 0.77818(10) 0.88928(14) 0.07215(8)
O5_2 O 0.7228(3) 0.8347(4) 0.0679(2)
O6_2 O 0.7659(3) 0.9325(4) 0.0901(2)
O7_2 O 0.8146(3) 0.8812(4) 0.1043(2)
O8_2 O 0.8050(3) 0.9052(4) 0.0257(2)
O14_2 O 0.5701(2) 0.5392(3) 0.3298(2)
H6_2 H 0.5757 0.5655 0.3485
C10_2 C 0.4803(7) 0.7437(12) 0.0003(7)
H10_2 H 0.4860 0.7308 0.0305
H12_2 H 0.4734 0.7752 0.0049
S4_2 S 0.75832(14) 0.73308(20) 0.13232(10)
O16_2 O 0.7712(3) 0.7470(4) 0.0801(2)
C11_2 C 0.7387(5) 0.6614(7) 0.1362(4)
H13_2 H 0.7019 0.6384 0.1214
H14_2 H 0.7363 0.6507 0.1689
H15_2 H 0.7669 0.6553 0.1205
C12_2 C 0.8241(6) 0.7639(8) 0.1594(5)
H16_2 H 0.8406 0.8050 0.1600
H17_2 H 0.8491 0.7544 0.1422
H18_2 H 0.8196 0.7496 0.1912
H19_2 H 0.6344 0.5629 0.0129
Co5_2 Co 0.72622(5) 0.96865(9) 0.05255(4)
Co7_2 Co 0.84183(5) 0.77374(9) 0.02980(4)
Co8_2 Co 0.59858(7) 0.49150(9) 0.36313(4)
Co9_2 Co 0.49201(7) 0.51047(9) 0.30416(4)
O19_2 O 0.6162(3) 0.8502(5) 0.0806(3)
O20_2 O 0.5992(4) 0.4999(5) 0.2432(2)
O21_2 O 0.7152(3) 0.6207(5) 0.2487(2)
O22_2 O 0.6713(2) 0.5482(4) 0.3304(2)
H31_2 H 0.6914 0.5350 0.3198
O24_2 O 0.6976(2) 0.9034(4) 0.0035(2)
O26_2 O 0.6630(3) 0.6461(5) 0.3320(2)
Co3_2 Co 0.77374(5) 0.93191(7) 0.97020(4)
S2_2 S 0.69804(10) 0.80187(14) 0.93383(8)
O9_2 O 0.6774(3) 0.7851(4) 0.9831(2)
O10_2 O 0.7493(3) 0.8579(4) 0.9347(2)
O11_2 O 0.7126(3) 0.7611(4) 0.9154(2)
O12_2 O 0.6539(3) 0.8020(4) 0.9065(2)
O13_2 O 0.7851(2) 0.7897(3) 0.9971(2)
H5_2 H 0.7983 0.8230 0.9865
S3_2 S 0.54104(18) 0.76618(26) 0.96596(15)
O15_2 O 0.5853(3) 0.8201(4) 0.9839(3)
C9_2 C 0.5149(8) 0.7868(13) 0.9165(7)
H7_2 H 0.5433 0.8009 0.8919
H8_2 H 0.5069 0.8165 0.9257
H9_2 H 0.4803 0.7542 0.9051
H11_2 H 0.4479 0.7127 0.9847
S5_2 S 0.62420(12) 0.63908(18) 0.99760(11)
O17_2 O 0.6872(3) 0.6835(4) 0.9987(2)
C13_2 C 0.6214(6) 0.5747(8) 0.9857(5)
H20_2 H 0.6457 0.5794 0.9592
H21_2 H 0.5825 0.5459 0.9785
C14_2 C 0.5980(5) 0.6502(8) 0.9433(5)
H22_2 H 0.5977 0.6858 0.9447
H23_2 H 0.5597 0.6191 0.9379
H24_2 H 0.6225 0.6517 0.9179
O18_2 O 0.8495(3) 0.9650(4) 0.9373(2)
H25_2 H 0.8535 0.9880 0.9159
C15_2 C 0.8678(14) 0.9303(21) 0.9199(17)
H26_2 H 0.9094 0.9550 0.9198
H27_2 H 0.8600 0.9035 0.9456
C16_2 C 0.8571(10) 0.8928(21) 0.8758(10)
H28_2 H 0.8829 0.8777 0.8760
H29_2 H 0.8181 0.8616 0.8760
H30_2 H 0.8636 0.9156 0.8479
Co6_2 Co 0.75756(7) 0.72622(9) 0.94745(4)
H33_2 H 0.6769 0.9090 0.9848
O25_2 O 0.7470(4) 0.9758(5) 0.9199(2)
Co2_3 Co 0.42423(7) 0.05955(5) 0.28078(4)
O14_3 O 0.4608(3) 0.0309(2) 0.3298(2)
H6_3 H 0.4345 0.0102 0.3485
S4_3 S 0.26692(20) 0.02524(14) 0.13232(10)
O16_3 O 0.2530(4) 0.0242(3) 0.0801(2)
C11_3 C 0.3386(7) 0.0773(5) 0.1362(4)
H13_3 H 0.3616 0.0635 0.1214
H14_3 H 0.3493 0.0856 0.1689
H15_3 H 0.3447 0.1116 0.1205
C12_3 C 0.2361(8) 0.0602(6) 0.1594(5)
H16_3 H 0.1950 0.0356 0.1600
H17_3 H 0.2456 0.0947 0.1422
H18_3 H 0.2504 0.0700 0.1912
H19_3 H 0.4371 0.0715 0.0129
Co7_3 Co 0.22626(9) 0.06809(7) 0.02980(4)
Co8_3 Co 0.50850(9) 0.10707(5) 0.36313(4)
O20_3 O 0.5001(5) 0.0992(3) 0.2432(2)
O21_3 O 0.3793(5) 0.0944(4) 0.2487(2)
O22_3 O 0.4518(4) 0.1230(3) 0.3304(2)
H31_3 H 0.4650 0.1563 0.3198
O26_3 O 0.3539(5) 0.0168(4) 0.3320(2)
O17_3 O 0.3165(4) 0.0037(3) 0.9987(2)
C13_3 C 0.4253(8) 0.0467(6) 0.9857(5)
H20_3 H 0.4206 0.0663 0.9592
H21_3 H 0.4541 0.0366 0.9785
H28_3 H 0.1223 0.0052 0.8760
Co6_3 Co 0.27378(9) 0.03135(5) 0.94745(4)
Co1_3 Co 0.23866(7) 0.95517(5) 0.03696(4)
Co4_3 Co 0.17466(7) 0.82286(5) 0.02917(4)
O1_3 O 0.2533(4) 0.8490(3) 0.0560(2)
O2_3 O 0.2817(4) 0.9360(3) 0.0831(2)
O3_3 O 0.3870(4) 0.9955(3) 0.2342(2)
O4_3 O 0.4326(4) 0.9495(3) 0.2527(3)
C1_3 C 0.2797(6) 0.8888(4) 0.0850(3)
C2_3 C 0.3971(6) 0.9558(4) 0.2300(3)
C3_3 C 0.3087(6) 0.8792(4) 0.1250(3)
C4_3 C 0.3042(6) 0.8258(4) 0.1298(4)
H1_3 H 0.2837 0.7968 0.1078
C5_3 C 0.3303(6) 0.8167(4) 0.1669(4)
H2_3 H 0.3281 0.7812 0.1703
C6_3 C 0.3596(7) 0.8583(5) 0.1991(4)
H3_3 H 0.3773 0.8511 0.2244
C7_3 C 0.3634(6) 0.9106(4) 0.1949(3)
C8_3 C 0.3373(6) 0.9203(4) 0.1577(3)
H4_3 H 0.3392 0.9557 0.1548
S1_3 S 0.11072(14) 0.88890(10) 0.07215(8)
O5_3 O 0.1653(4) 0.8881(3) 0.0679(2)
O6_3 O 0.0675(4) 0.8334(3) 0.0901(2)
O7_3 O 0.1188(4) 0.9334(3) 0.1043(2)
O8_3 O 0.0948(4) 0.8998(3) 0.0257(2)
C10_3 C 0.2563(12) 0.7366(10) 0.0003(7)
H10_3 H 0.2692 0.7552 0.0305
H12_3 H 0.2248 0.6982 0.0049
Co5_3 Co 0.03135(9) 0.75756(7) 0.05255(4)
Co9_3 Co 0.48953(9) 0.98153(5) 0.30416(4)
O19_3 O 0.1498(5) 0.7659(4) 0.0806(3)
O24_3 O 0.0966(4) 0.7941(3) 0.0035(2)
Co3_3 Co 0.06809(7) 0.84183(5) 0.97020(4)
S2_3 S 0.19813(14) 0.89617(10) 0.93383(8)
O9_3 O 0.2149(4) 0.8923(2) 0.9831(2)
O10_3 O 0.1421(4) 0.8914(3) 0.9347(2)
O11_3 O 0.2389(4) 0.9515(3) 0.9154(2)
O12_3 O 0.1980(4) 0.8519(3) 0.9065(2)
O13_3 O 0.2103(3) 0.9954(2) 0.9971(2)
H5_3 H 0.1770 0.9753 0.9865
S3_3 S 0.23382(26) 0.77486(19) 0.96596(15)
O15_3 O 0.1799(4) 0.7652(3) 0.9839(3)
C9_3 C 0.2132(13) 0.7281(10) 0.9165(7)
H7_3 H 0.1991 0.7424 0.8919
H8_3 H 0.1835 0.6904 0.9257
H9_3 H 0.2458 0.7261 0.9051
H11_3 H 0.2873 0.7352 0.9847
S5_3 S 0.36092(18) 0.98512(13) 0.99760(11)
C14_3 C 0.3498(8) 0.9478(6) 0.9433(5)
H22_3 H 0.3142 0.9119 0.9447
H23_3 H 0.3809 0.9406 0.9379
H24_3 H 0.3483 0.9708 0.9179
O18_3 O 0.0350(4) 0.8845(3) 0.9373(2)
H25_3 H 0.0120 0.8655 0.9159
C15_3 C 0.0697(21) 0.9375(15) 0.9199(17)
H26_3 H 0.0450 0.9544 0.9198
H27_3 H 0.0965 0.9565 0.9456
C16_3 C 0.1072(21) 0.9643(19) 0.8758(10)
H29_3 H 0.1384 0.9565 0.8760
H30_3 H 0.0844 0.9480 0.8479
H33_3 H 0.0910 0.7678 0.9848
O25_3 O 0.0242(5) 0.7712(3) 0.9199(2)
O23_3 O 0.9954(4) 0.7851(2) 0.0029(2)
H32_3 H 0.9753 0.7983 0.0135
Co1_4 Co 0.71150(5) 0.61682(5) 0.37029(4)
Co2_4 Co 0.60712(5) 0.69801(5) 0.61411(4)
Co3_4 Co 0.82484(5) 0.55959(5) 0.30353(4)
Co4_4 Co 0.84381(5) 0.68513(5) 0.36250(4)
O1_4 O 0.8177(3) 0.7376(3) 0.3893(2)
O2_4 O 0.7307(3) 0.6790(3) 0.4164(2)
O3_4 O 0.6712(3) 0.7248(3) 0.5675(2)
O4_4 O 0.7172(3) 0.8164(3) 0.5860(3)
C1_4 C 0.7779(4) 0.7242(4) 0.4183(3)
C2_4 C 0.7109(4) 0.7746(4) 0.5633(3)
C3_4 C 0.7875(4) 0.7628(4) 0.4583(3)
C4_4 C 0.8409(4) 0.8117(5) 0.4631(4)
H1_4 H 0.8699 0.8202 0.4411
C5_4 C 0.8500(4) 0.8469(5) 0.5002(4)
H2_4 H 0.8855 0.8802 0.5036
C6_4 C 0.8084(5) 0.8346(5) 0.5324(4)
H3_4 H 0.8156 0.8595 0.5577
C7_4 C 0.7561(4) 0.7861(4) 0.5282(3)
C8_4 C 0.7464(4) 0.7503(4) 0.4910(3)
H4_4 H 0.7110 0.7168 0.4881
S1_4 S 0.77777(10) 0.55515(10) 0.40548(8)
O5_4 O 0.7786(3) 0.6105(3) 0.4012(2)
O6_4 O 0.8333(3) 0.5674(3) 0.4234(2)
O7_4 O 0.7333(3) 0.5187(3) 0.4376(2)
O8_4 O 0.7669(3) 0.5283(3) 0.3590(2)
S2_4 S 0.77050(10) 0.63529(10) 0.26716(8)
O9_4 O 0.7744(2) 0.6559(3) 0.3164(2)
O10_4 O 0.7753(3) 0.5840(3) 0.2680(2)
O12_4 O 0.8148(3) 0.6794(3) 0.2398(2)
O14_4 O 0.6358(2) 0.7632(2) 0.6631(2)
H6_4 H 0.6565 0.7576 0.6818
S3_4 S 0.89181(19) 0.79229(18) 0.29929(15)
O15_4 O 0.9015(3) 0.7480(3) 0.3172(3)
C9_4 C 0.9386(10) 0.8184(8) 0.2498(7)
H7_4 H 0.9243 0.7900 0.2252
H8_4 H 0.9763 0.8264 0.2590
H9_4 H 0.9406 0.8530 0.2384
C10_4 C 0.9301(10) 0.8530(7) 0.3336(7)
H10_4 H 0.9115 0.8473 0.3638
H11_4 H 0.9315 0.8854 0.3180
H12_4 H 0.9685 0.8599 0.3382
S4_4 S 0.64143(14) 0.57501(14) 0.46565(10)
O16_4 O 0.6425(3) 0.5621(3) 0.4134(2)
C11_4 C 0.5894(5) 0.5946(5) 0.4695(4)
H13_4 H 0.6032 0.6314 0.4547
H14_4 H 0.5811 0.5970 0.5022
H15_4 H 0.5551 0.5664 0.4538
C12_4 C 0.6065(6) 0.5092(6) 0.4927(5)
H16_4 H 0.6311 0.4927 0.4933
H17_4 H 0.5720 0.4842 0.4755
H18_4 H 0.5967 0.5137 0.5245
S5_4 S 0.68155(13) 0.70913(12) 0.33093(11)
C13_4 C 0.6200(6) 0.7119(6) 0.3190(5)
H19_4 H 0.5952 0.6989 0.3462
H20_4 H 0.6004 0.6876 0.2925
H21_4 H 0.6301 0.7508 0.3118
C14_4 C 0.7189(6) 0.7353(5) 0.2766(5)
H22_4 H 0.7548 0.7356 0.2780
H23_4 H 0.7261 0.7736 0.2712
H24_4 H 0.6959 0.7108 0.2512
O18_4 O 0.7822(3) 0.4838(3) 0.2706(2)
H25_4 H 0.8012 0.4798 0.2492
C15_4 C 0.7292(15) 0.4655(14) 0.2532(17)
H26_4 H 0.7123 0.4239 0.2531
H27_4 H 0.7102 0.4733 0.2789
C16_4 C 0.7024(19) 0.4762(10) 0.2091(10)
H28_4 H 0.6615 0.4504 0.2093
H29_4 H 0.7102 0.5152 0.2093
H30_4 H 0.7187 0.4697 0.1812
Co5_4 Co 0.90910(7) 0.60712(5) 0.38589(4)
Co8_4 Co 0.55959(5) 0.73476(7) 0.69647(4)
Co9_4 Co 0.68513(5) 0.84133(7) 0.63750(4)
O19_4 O 0.9007(4) 0.7172(3) 0.4140(3)
O20_4 O 0.5674(3) 0.7342(4) 0.5766(2)
O21_4 O 0.5722(4) 0.6182(3) 0.5821(2)
O22_4 O 0.5436(3) 0.6621(2) 0.6638(2)
O23_4 O 0.8816(2) 0.5436(3) 0.3362(2)
H31_4 H 0.5103 0.6420 0.6532
H32_4 H 0.8684 0.5103 0.3468
O24_4 O 0.8725(3) 0.6358(2) 0.3369(2)
H33_4 H 0.8988 0.6565 0.3182
O25_4 O 0.8955(3) 0.5863(4) 0.2532(2)
O26_4 O 0.6498(4) 0.6704(3) 0.6654(2)
Co1_5 Co 0.38318(5) 0.09467(7) 0.37029(4)
Co3_5 Co 0.44041(5) 0.26524(7) 0.30353(4)
Co4_5 Co 0.31487(5) 0.15867(7) 0.36250(4)
O1_5 O 0.2624(3) 0.0800(4) 0.3893(2)
O2_5 O 0.3210(3) 0.0516(4) 0.4164(2)
C1_5 C 0.2758(4) 0.0536(6) 0.4183(3)
C3_5 C 0.2372(4) 0.0246(6) 0.4583(3)
C4_5 C 0.1883(5) 0.0291(6) 0.4631(4)
H1_5 H 0.1798 0.0496 0.4411
C5_5 C 0.1531(5) 0.0030(6) 0.5002(4)
H2_5 H 0.1198 0.0052 0.5036
S1_5 S 0.44485(10) 0.22261(14) 0.40548(8)
O5_5 O 0.3895(3) 0.1680(4) 0.4012(2)
O6_5 O 0.4326(3) 0.2658(4) 0.4234(2)
O7_5 O 0.4813(3) 0.2145(4) 0.4376(2)
O8_5 O 0.4717(3) 0.2385(4) 0.3590(2)
S2_5 S 0.36471(10) 0.13520(14) 0.26716(8)
O9_5 O 0.3441(3) 0.1184(4) 0.3164(2)
O10_5 O 0.4160(3) 0.1912(4) 0.2680(2)
O12_5 O 0.3206(3) 0.1353(4) 0.2398(2)
S3_5 S 0.20771(18) 0.09951(26) 0.29929(15)
O15_5 O 0.2520(3) 0.1534(4) 0.3172(3)
C9_5 C 0.1816(8) 0.1201(13) 0.2498(7)
H7_5 H 0.2100 0.1342 0.2252
H8_5 H 0.1736 0.1498 0.2590
H9_5 H 0.1470 0.0875 0.2384
C10_5 C 0.1470(7) 0.0770(12) 0.3336(7)
H10_5 H 0.1527 0.0641 0.3638
H11_5 H 0.1146 0.0460 0.3180
H12_5 H 0.1401 0.1085 0.3382
S4_5 S 0.42499(14) 0.06641(20) 0.46565(10)
O16_5 O 0.4379(3) 0.0803(4) 0.4134(2)
C12_5 C 0.4908(6) 0.0972(8) 0.4927(5)
H16_5 H 0.5073 0.1383 0.4933
H17_5 H 0.5158 0.0877 0.4755
H18_5 H 0.4863 0.0829 0.5245
H22_5 H 0.2644 0.0191 0.2780
O18_5 O 0.5162(3) 0.2983(4) 0.2706(2)
H25_5 H 0.5202 0.3213 0.2492
C15_5 C 0.5345(14) 0.2636(21) 0.2532(17)
H26_5 H 0.5761 0.2883 0.2531
H27_5 H 0.5267 0.2368 0.2789
C16_5 C 0.5238(10) 0.2261(21) 0.2091(10)
H28_5 H 0.5496 0.2110 0.2093
H29_5 H 0.4848 0.1949 0.2093
H30_5 H 0.5303 0.2489 0.1812
Co5_5 Co 0.39288(5) 0.30199(9) 0.38589(4)
O19_5 O 0.2828(3) 0.1836(5) 0.4140(3)
O23_5 O 0.4564(3) 0.3379(4) 0.3362(2)
H32_5 H 0.4897 0.3580 0.3468
O24_5 O 0.3642(2) 0.2368(4) 0.3369(2)
H33_5 H 0.3435 0.2424 0.3182
O25_5 O 0.4137(4) 0.3091(5) 0.2532(2)
Co2_5 Co 0.30199(5) 0.90910(7) 0.61411(4)
O3_5 O 0.2752(3) 0.9463(4) 0.5675(2)
O4_5 O 0.1836(3) 0.9007(4) 0.5860(3)
C2_5 C 0.2254(4) 0.9362(6) 0.5633(3)
C6_5 C 0.1654(5) 0.9737(7) 0.5324(4)
H3_5 H 0.1405 0.9560 0.5577
C7_5 C 0.2139(4) 0.9699(6) 0.5282(3)
C8_5 C 0.2497(4) 0.9960(6) 0.4910(3)
H4_5 H 0.2832 0.9941 0.4881
O14_5 O 0.2368(2) 0.8725(3) 0.6631(2)
H6_5 H 0.2424 0.8988 0.6818
C11_5 C 0.4054(5) 0.9947(7) 0.4695(4)
H13_5 H 0.3686 0.9717 0.4547
H14_5 H 0.4030 0.9840 0.5022
H15_5 H 0.4336 0.9886 0.4538
S5_5 S 0.29087(12) 0.97241(18) 0.33093(11)
C13_5 C 0.2881(6) 0.9080(8) 0.3190(5)
H19_5 H 0.3011 0.8962 0.3462
H20_5 H 0.3124 0.9127 0.2925
H21_5 H 0.2492 0.8792 0.3118
C14_5 C 0.2647(5) 0.9835(8) 0.2766(5)
H23_5 H 0.2264 0.9524 0.2712
H24_5 H 0.2892 0.9850 0.2512
Co8_5 Co 0.26524(7) 0.82484(9) 0.69647(4)
Co9_5 Co 0.15867(7) 0.84381(9) 0.63750(4)
O20_5 O 0.2658(4) 0.8333(5) 0.5766(2)
O21_5 O 0.3818(3) 0.9541(5) 0.5821(2)
O22_5 O 0.3379(2) 0.8816(4) 0.6638(2)
H31_5 H 0.3580 0.8684 0.6532
O26_5 O 0.3296(3) 0.9795(5) 0.6654(2)
Co2_6 Co 0.09090(7) 0.39288(5) 0.61411(4)
O3_6 O 0.0537(4) 0.3288(3) 0.5675(2)
O4_6 O 0.0993(4) 0.2828(3) 0.5860(3)
C2_6 C 0.0638(6) 0.2891(4) 0.5633(3)
C6_6 C 0.0263(7) 0.1916(5) 0.5324(4)
H3_6 H 0.0440 0.1844 0.5577
C7_6 C 0.0301(6) 0.2439(4) 0.5282(3)
C8_6 C 0.0040(6) 0.2536(4) 0.4910(3)
H4_6 H 0.0059 0.2890 0.4881
O14_6 O 0.1275(3) 0.3642(2) 0.6631(2)
H6_6 H 0.1012 0.3435 0.6818
C11_6 C 0.0053(7) 0.4106(5) 0.4695(4)
H13_6 H 0.0283 0.3968 0.4547
H14_6 H 0.0160 0.4189 0.5022
H15_6 H 0.0114 0.4449 0.4538
S5_6 S 0.02759(18) 0.31845(13) 0.33093(11)
C13_6 C 0.0920(8) 0.3800(6) 0.3190(5)
H19_6 H 0.1038 0.4048 0.3462
H20_6 H 0.0873 0.3996 0.2925
H21_6 H 0.1208 0.3699 0.3118
C14_6 C 0.0165(8) 0.2811(6) 0.2766(5)
H23_6 H 0.0476 0.2739 0.2712
H24_6 H 0.0150 0.3041 0.2512
Co8_6 Co 0.17516(9) 0.44041(5) 0.69647(4)
Co9_6 Co 0.15619(9) 0.31487(5) 0.63750(4)
O20_6 O 0.1667(5) 0.4326(3) 0.5766(2)
O21_6 O 0.0459(5) 0.4278(4) 0.5821(2)
O22_6 O 0.1184(4) 0.4564(3) 0.6638(2)
H31_6 H 0.1316 0.4897 0.6532
O26_6 O 0.0205(5) 0.3502(4) 0.6654(2)
Co1_6 Co 0.90533(7) 0.28850(5) 0.37029(4)
Co3_6 Co 0.73476(7) 0.17516(5) 0.30353(4)
Co4_6 Co 0.84133(7) 0.15619(5) 0.36250(4)
O1_6 O 0.9200(4) 0.1823(3) 0.3893(2)
O2_6 O 0.9484(4) 0.2693(3) 0.4164(2)
C1_6 C 0.9464(6) 0.2221(4) 0.4183(3)
C3_6 C 0.9754(6) 0.2125(4) 0.4583(3)
C4_6 C 0.9709(6) 0.1591(4) 0.4631(4)
H1_6 H 0.9504 0.1301 0.4411
C5_6 C 0.9970(6) 0.1500(4) 0.5002(4)
H2_6 H 0.9948 0.1145 0.5036
S1_6 S 0.77739(14) 0.22223(10) 0.40548(8)
O5_6 O 0.8320(4) 0.2214(3) 0.4012(2)
O6_6 O 0.7342(4) 0.1667(3) 0.4234(2)
O7_6 O 0.7855(4) 0.2667(3) 0.4376(2)
O8_6 O 0.7615(4) 0.2331(3) 0.3590(2)
S2_6 S 0.86480(14) 0.22950(10) 0.26716(8)
O9_6 O 0.8816(4) 0.2256(2) 0.3164(2)
O10_6 O 0.8088(4) 0.2247(3) 0.2680(2)
O12_6 O 0.8647(4) 0.1852(3) 0.2398(2)
S3_6 S 0.90049(26) 0.10819(19) 0.29929(15)
O15_6 O 0.8466(4) 0.0985(3) 0.3172(3)
C9_6 C 0.8799(13) 0.0614(10) 0.2498(7)
H7_6 H 0.8658 0.0757 0.2252
H8_6 H 0.8502 0.0237 0.2590
H9_6 H 0.9125 0.0594 0.2384
C10_6 C 0.9230(12) 0.0699(10) 0.3336(7)
H10_6 H 0.9359 0.0885 0.3638
H11_6 H 0.9540 0.0685 0.3180
H12_6 H 0.8915 0.0315 0.3382
S4_6 S 0.93359(20) 0.35857(14) 0.46565(10)
O16_6 O 0.9197(4) 0.3575(3) 0.4134(2)
C12_6 C 0.9028(8) 0.3935(6) 0.4927(5)
H16_6 H 0.8617 0.3689 0.4933
H17_6 H 0.9123 0.4280 0.4755
H18_6 H 0.9171 0.4033 0.5245
H22_6 H 0.9809 0.2452 0.2780
O18_6 O 0.7017(4) 0.2178(3) 0.2706(2)
H25_6 H 0.6787 0.1988 0.2492
C15_6 C 0.7364(21) 0.2708(15) 0.2532(17)
H26_6 H 0.7117 0.2877 0.2531
H27_6 H 0.7632 0.2898 0.2789
C16_6 C 0.7739(21) 0.2976(19) 0.2091(10)
H28_6 H 0.7890 0.3385 0.2093
H29_6 H 0.8051 0.2898 0.2093
H30_6 H 0.7511 0.2813 0.1812
Co5_6 Co 0.69801(9) 0.09090(7) 0.38589(4)
O19_6 O 0.8164(5) 0.0993(4) 0.4140(3)
O23_6 O 0.6621(4) 0.1184(2) 0.3362(2)
H32_6 H 0.6420 0.1316 0.3468
O24_6 O 0.7632(4) 0.1275(3) 0.3369(2)
H33_6 H 0.7576 0.1012 0.3182
O25_6 O 0.6909(5) 0.1045(3) 0.2532(2)
H6_7 H 0.3231 0.0910 0.0152
Co4_7 Co 0.51047(5) 0.01847(5) 0.69584(4)
O1_7 O 0.4843(3) 0.0710(3) 0.7227(2)
O2_7 O 0.3973(3) 0.0124(3) 0.7498(2)
O3_7 O 0.3378(3) 0.0582(3) 0.9009(2)
O4_7 O 0.3838(3) 0.1498(3) 0.9194(3)
C1_7 C 0.4445(4) 0.0576(4) 0.7517(3)
C2_7 C 0.3775(4) 0.1080(4) 0.8967(3)
C3_7 C 0.4541(4) 0.0962(4) 0.7917(3)
C4_7 C 0.5075(4) 0.1451(5) 0.7965(4)
H1_7 H 0.5365 0.1536 0.7745
C5_7 C 0.5166(4) 0.1803(5) 0.8336(4)
H2_7 H 0.5521 0.2136 0.8370
C6_7 C 0.4750(5) 0.1680(5) 0.8658(4)
H3_7 H 0.4822 0.1929 0.8911
C7_7 C 0.4227(4) 0.1195(4) 0.8616(3)
C8_7 C 0.4130(4) 0.0837(4) 0.8244(3)
H4_7 H 0.3776 0.0502 0.8215
O12_7 O 0.4814(3) 0.0128(3) 0.5732(2)
O14_7 O 0.3024(2) 0.0966(2) 0.9965(2)
S3_7 S 0.55847(19) 0.12563(18) 0.63263(15)
O15_7 O 0.5681(3) 0.0814(3) 0.6506(3)
C9_7 C 0.6052(10) 0.1518(8) 0.5832(7)
H7_7 H 0.5909 0.1234 0.5586
H8_7 H 0.6429 0.1598 0.5924
H9_7 H 0.6072 0.1864 0.5718
C10_7 C 0.5967(10) 0.1864(7) 0.6670(7)
H10_7 H 0.5781 0.1807 0.6972
H11_7 H 0.5981 0.2188 0.6514
H12_7 H 0.6351 0.1933 0.6716
S5_7 S 0.34821(13) 0.04247(12) 0.66427(11)
C13_7 C 0.2866(6) 0.0453(6) 0.6524(5)
H19_7 H 0.2618 0.0323 0.6796
H20_7 H 0.2670 0.0210 0.6259
H21_7 H 0.2967 0.0842 0.6452
C14_7 C 0.3855(6) 0.0687(5) 0.6100(5)
H22_7 H 0.4214 0.0690 0.6114
H23_7 H 0.3927 0.1070 0.6046
H24_7 H 0.3625 0.0442 0.5846
Co9_7 Co 0.35180(5) 0.17466(7) 0.97083(4)
O19_7 O 0.5674(4) 0.0505(3) 0.7473(3)
O20_7 O 0.2341(3) 0.0675(4) 0.9099(2)
Co1_7 Co 0.37816(5) 0.95016(5) 0.70363(4)
Co3_7 Co 0.49150(5) 0.89293(5) 0.63687(4)
S1_7 S 0.44443(10) 0.88849(10) 0.73882(8)
O5_7 O 0.4452(3) 0.9439(3) 0.7346(2)
O6_7 O 0.4999(3) 0.9008(3) 0.7568(2)
O7_7 O 0.3999(3) 0.8521(3) 0.7710(2)
O8_7 O 0.4335(3) 0.8617(3) 0.6924(2)
S2_7 S 0.43716(10) 0.96863(10) 0.60050(8)
O9_7 O 0.4410(2) 0.9893(3) 0.6498(2)
O10_7 O 0.4419(3) 0.9174(3) 0.6014(2)
S4_7 S 0.30809(14) 0.90835(14) 0.79899(10)
O16_7 O 0.3091(3) 0.8955(3) 0.7468(2)
C11_7 C 0.2560(5) 0.9280(5) 0.8029(4)
H13_7 H 0.2698 0.9648 0.7881
H14_7 H 0.2477 0.9304 0.8356
H15_7 H 0.2217 0.8998 0.7872
C12_7 C 0.2731(6) 0.8426(6) 0.8261(5)
H16_7 H 0.2977 0.8261 0.8267
H17_7 H 0.2386 0.8176 0.8089
H18_7 H 0.2633 0.8471 0.8579
O18_7 O 0.4488(3) 0.8172(3) 0.6040(2)
H25_7 H 0.4678 0.8132 0.5826
C15_7 C 0.3958(15) 0.7989(14) 0.5866(17)
H26_7 H 0.3789 0.7573 0.5865
H27_7 H 0.3768 0.8067 0.6123
C16_7 C 0.3690(19) 0.8096(10) 0.5425(10)
H28_7 H 0.3281 0.7838 0.5427
H29_7 H 0.3768 0.8486 0.5427
H30_7 H 0.3853 0.8031 0.5146
Co5_7 Co 0.57577(7) 0.94045(5) 0.71922(4)
O23_7 O 0.5482(2) 0.8770(3) 0.6696(2)
H32_7 H 0.5350 0.8437 0.6802
O24_7 O 0.5392(3) 0.9691(2) 0.6702(2)
H33_7 H 0.5655 0.9898 0.6515
O25_7 O 0.5621(3) 0.9197(4) 0.5866(2)
Co1_8 Co 0.04984(5) 0.42801(7) 0.70363(4)
Co3_8 Co 0.10707(5) 0.59858(7) 0.63687(4)
S1_8 S 0.11151(10) 0.55595(14) 0.73882(8)
O5_8 O 0.0561(3) 0.5014(4) 0.7346(2)
O6_8 O 0.0992(3) 0.5992(4) 0.7568(2)
O7_8 O 0.1479(3) 0.5479(4) 0.7710(2)
O8_8 O 0.1383(3) 0.5719(4) 0.6924(2)
S2_8 S 0.03137(10) 0.46854(14) 0.60050(8)
O9_8 O 0.0107(3) 0.4518(4) 0.6498(2)
O10_8 O 0.0826(3) 0.5246(4) 0.6014(2)
S4_8 S 0.09165(14) 0.39975(20) 0.79899(10)
O16_8 O 0.1045(3) 0.4137(4) 0.7468(2)
C11_8 C 0.0720(5) 0.3281(7) 0.8029(4)
H13_8 H 0.0352 0.3051 0.7881
H14_8 H 0.0696 0.3174 0.8356
H15_8 H 0.1002 0.3220 0.7872
C12_8 C 0.1574(6) 0.4306(8) 0.8261(5)
H16_8 H 0.1739 0.4717 0.8267
H17_8 H 0.1824 0.4211 0.8089
H18_8 H 0.1529 0.4163 0.8579
O18_8 O 0.1828(3) 0.6317(4) 0.6040(2)
H25_8 H 0.1868 0.6547 0.5826
C15_8 C 0.2011(14) 0.5970(21) 0.5866(17)
H26_8 H 0.2427 0.6217 0.5865
H27_8 H 0.1933 0.5702 0.6123
C16_8 C 0.1904(10) 0.5595(21) 0.5425(10)
H28_8 H 0.2162 0.5444 0.5427
H29_8 H 0.1514 0.5283 0.5427
H30_8 H 0.1969 0.5823 0.5146
Co5_8 Co 0.05955(5) 0.63532(9) 0.71922(4)
O23_8 O 0.1230(3) 0.6713(4) 0.6696(2)
H32_8 H 0.1563 0.6914 0.6802
O24_8 O 0.0309(2) 0.5701(4) 0.6702(2)
H33_8 H 0.0102 0.5757 0.6515
O25_8 O 0.0803(4) 0.6425(5) 0.5866(2)
H6_8 H 0.9090 0.2322 0.0152
Co4_8 Co 0.98153(5) 0.49201(7) 0.69584(4)
O1_8 O 0.9290(3) 0.4134(4) 0.7227(2)
O2_8 O 0.9876(3) 0.3850(4) 0.7498(2)
O3_8 O 0.9418(3) 0.2797(4) 0.9009(2)
O4_8 O 0.8502(3) 0.2341(4) 0.9194(3)
C1_8 C 0.9424(4) 0.3870(6) 0.7517(3)
C2_8 C 0.8920(4) 0.2696(6) 0.8967(3)
C3_8 C 0.9038(4) 0.3580(6) 0.7917(3)
C4_8 C 0.8549(5) 0.3625(6) 0.7965(4)
H1_8 H 0.8464 0.3830 0.7745
C5_8 C 0.8197(5) 0.3364(6) 0.8336(4)
H2_8 H 0.7864 0.3386 0.8370
C6_8 C 0.8320(5) 0.3071(7) 0.8658(4)
H3_8 H 0.8071 0.2894 0.8911
C7_8 C 0.8805(4) 0.3033(6) 0.8616(3)
C8_8 C 0.9163(4) 0.3294(6) 0.8244(3)
H4_8 H 0.9498 0.3275 0.8215
O12_8 O 0.9872(3) 0.4687(4) 0.5732(2)
O14_8 O 0.9034(2) 0.2059(3) 0.9965(2)
S3_8 S 0.87437(18) 0.43285(26) 0.63263(15)
O15_8 O 0.9186(3) 0.4868(4) 0.6506(3)
C9_8 C 0.8482(8) 0.4535(13) 0.5832(7)
H7_8 H 0.8766 0.4676 0.5586
H8_8 H 0.8402 0.4832 0.5924
H9_8 H 0.8136 0.4209 0.5718
C10_8 C 0.8136(7) 0.4104(12) 0.6670(7)
H10_8 H 0.8193 0.3975 0.6972
H11_8 H 0.7812 0.3794 0.6514
H12_8 H 0.8067 0.4419 0.6716
S5_8 S 0.95753(12) 0.30575(18) 0.66427(11)
C13_8 C 0.9547(6) 0.2414(8) 0.6524(5)
H19_8 H 0.9677 0.2296 0.6796
H20_8 H 0.9790 0.2461 0.6259
H21_8 H 0.9158 0.2126 0.6452
C14_8 C 0.9313(5) 0.3169(8) 0.6100(5)
H22_8 H 0.9310 0.3525 0.6114
H23_8 H 0.8930 0.2858 0.6046
H24_8 H 0.9558 0.3184 0.5846
Co9_8 Co 0.82534(7) 0.17714(9) 0.97083(4)
O19_8 O 0.9495(3) 0.5169(5) 0.7473(3)
O20_8 O 0.9325(4) 0.1666(5) 0.9099(2)
H6_9 H 0.7678 0.6769 0.0152
Co1_9 Co 0.57199(7) 0.62184(5) 0.70363(4)
Co3_9 Co 0.40142(7) 0.50850(5) 0.63687(4)
Co4_9 Co 0.50799(7) 0.48953(5) 0.69584(4)
O1_9 O 0.5866(4) 0.5157(3) 0.7227(2)
O2_9 O 0.6150(4) 0.6027(3) 0.7498(2)
O3_9 O 0.7203(4) 0.6622(3) 0.9009(2)
O4_9 O 0.7659(4) 0.6162(3) 0.9194(3)
C1_9 C 0.6130(6) 0.5555(4) 0.7517(3)
C2_9 C 0.7304(6) 0.6225(4) 0.8967(3)
C3_9 C 0.6420(6) 0.5459(4) 0.7917(3)
C4_9 C 0.6375(6) 0.4925(4) 0.7965(4)
H1_9 H 0.6170 0.4635 0.7745
C5_9 C 0.6636(6) 0.4834(4) 0.8336(4)
H2_9 H 0.6614 0.4479 0.8370
C6_9 C 0.6929(7) 0.5250(5) 0.8658(4)
H3_9 H 0.7106 0.5178 0.8911
C7_9 C 0.6967(6) 0.5773(4) 0.8616(3)
C8_9 C 0.6706(6) 0.5870(4) 0.8244(3)
H4_9 H 0.6725 0.6224 0.8215
S1_9 S 0.44405(14) 0.55557(10) 0.73882(8)
O5_9 O 0.4986(4) 0.5548(3) 0.7346(2)
O6_9 O 0.4008(4) 0.5001(3) 0.7568(2)
O7_9 O 0.4521(4) 0.6001(3) 0.7710(2)
O8_9 O 0.4281(4) 0.5665(3) 0.6924(2)
S2_9 S 0.53146(14) 0.56284(10) 0.60050(8)
O9_9 O 0.5482(4) 0.5590(2) 0.6498(2)
O10_9 O 0.4754(4) 0.5581(3) 0.6014(2)
O12_9 O 0.5313(4) 0.5186(3) 0.5732(2)
O14_9 O 0.7941(3) 0.6976(2) 0.9965(2)
S3_9 S 0.56715(26) 0.44153(19) 0.63263(15)
O15_9 O 0.5132(4) 0.4319(3) 0.6506(3)
C9_9 C 0.5465(13) 0.3948(10) 0.5832(7)
H7_9 H 0.5324 0.4091 0.5586
H8_9 H 0.5168 0.3571 0.5924
H9_9 H 0.5791 0.3928 0.5718
C10_9 C 0.5896(12) 0.4033(10) 0.6670(7)
H10_9 H 0.6025 0.4219 0.6972
H11_9 H 0.6206 0.4019 0.6514
H12_9 H 0.5581 0.3649 0.6716
S4_9 S 0.60025(20) 0.69191(14) 0.79899(10)
O16_9 O 0.5863(4) 0.6909(3) 0.7468(2)
C11_9 C 0.6719(7) 0.7440(5) 0.8029(4)
H13_9 H 0.6949 0.7302 0.7881
H14_9 H 0.6826 0.7523 0.8356
H15_9 H 0.6780 0.7783 0.7872
C12_9 C 0.5694(8) 0.7269(6) 0.8261(5)
H16_9 H 0.5283 0.7023 0.8267
H17_9 H 0.5789 0.7614 0.8089
H18_9 H 0.5837 0.7367 0.8579
S5_9 S 0.69425(18) 0.65179(13) 0.66427(11)
C13_9 C 0.7586(8) 0.7134(6) 0.6524(5)
H19_9 H 0.7704 0.7382 0.6796
H20_9 H 0.7539 0.7330 0.6259
H21_9 H 0.7874 0.7033 0.6452
C14_9 C 0.6831(8) 0.6145(6) 0.6100(5)
H22_9 H 0.6475 0.5786 0.6114
H23_9 H 0.7142 0.6073 0.6046
H24_9 H 0.6816 0.6375 0.5846
O18_9 O 0.3683(4) 0.5512(3) 0.6040(2)
H25_9 H 0.3453 0.5322 0.5826
C15_9 C 0.4030(21) 0.6042(15) 0.5866(17)
H26_9 H 0.3783 0.6211 0.5865
H27_9 H 0.4298 0.6232 0.6123
C16_9 C 0.4405(21) 0.6310(19) 0.5425(10)
H28_9 H 0.4556 0.6719 0.5427
H29_9 H 0.4717 0.6232 0.5427
H30_9 H 0.4177 0.6147 0.5146
Co5_9 Co 0.36468(9) 0.42423(7) 0.71922(4)
Co9_9 Co 0.82286(9) 0.64820(5) 0.97083(4)
O19_9 O 0.4831(5) 0.4326(4) 0.7473(3)
O20_9 O 0.8334(5) 0.7659(3) 0.9099(2)
O23_9 O 0.3287(4) 0.4518(2) 0.6696(2)
H32_9 H 0.3086 0.4650 0.6802
O24_9 O 0.4299(4) 0.4608(3) 0.6702(2)
H33_9 H 0.4243 0.4345 0.6515
O25_9 O 0.3575(5) 0.4379(3) 0.5866(2)
O17_4 O 0.0037(3) 0.6872(3) 0.0013(2)
C13_10 C 0.0467(6) 0.6214(6) 0.0143(5)
H20_10 H 0.0663 0.6457 0.0408
H21_10 H 0.0366 0.5825 0.0215
H28_10 H 0.0052 0.8829 0.1240
S4_10 S 0.02524(14) 0.75832(14) 0.86768(10)
C11_10 C 0.0773(5) 0.7387(5) 0.8638(4)
H13_10 H 0.0635 0.7019 0.8786
H14_10 H 0.0856 0.7363 0.8311
H15_10 H 0.1116 0.7669 0.8795
C12_10 C 0.0602(6) 0.8241(6) 0.8406(5)
H16_10 H 0.0356 0.8406 0.8400
H17_10 H 0.0947 0.8491 0.8578
H18_10 H 0.0700 0.8196 0.8088
H19_10 H 0.0715 0.6344 0.9871
O21_7 O 0.0944(4) 0.7152(3) 0.7513(2)
O26_7 O 0.0168(4) 0.6630(3) 0.6680(2)
S2_10 S 0.89617(10) 0.69804(10) 0.06617(8)
O9_10 O 0.8923(2) 0.6774(3) 0.0169(2)
O10_10 O 0.8914(3) 0.7493(3) 0.0653(2)
O11_4 O 0.9515(3) 0.7126(3) 0.0846(2)
O12_10 O 0.8519(3) 0.6539(3) 0.0935(2)
S3_10 S 0.77486(19) 0.54104(18) 0.03404(15)
O15_10 O 0.7652(3) 0.5853(3) 0.0161(3)
C9_10 C 0.7281(10) 0.5149(8) 0.0835(7)
H7_10 H 0.7424 0.5433 0.1081
H8_10 H 0.6904 0.5069 0.0743
H9_10 H 0.7261 0.4803 0.0949
H11_10 H 0.7352 0.4479 0.0153
S5_10 S 0.98512(13) 0.62420(12) 0.00240(11)
C14_10 C 0.9478(6) 0.5980(5) 0.0567(5)
H22_10 H 0.9119 0.5977 0.0553
H23_10 H 0.9406 0.5597 0.0621
H24_10 H 0.9708 0.6225 0.0821
O18_10 O 0.8845(3) 0.8495(3) 0.0627(2)
H25_10 H 0.8655 0.8535 0.0841
C15_10 C 0.9375(15) 0.8678(14) 0.0801(17)
H26_10 H 0.9544 0.9094 0.0802
H27_10 H 0.9565 0.8600 0.0544
C16_10 C 0.9643(19) 0.8571(10) 0.1242(10)
H29_10 H 0.9565 0.8181 0.1240
H30_10 H 0.9480 0.8636 0.1521
Co1_10 Co 0.95517(5) 0.71651(5) 0.96304(4)
O1_10 O 0.8490(3) 0.5957(3) 0.9440(2)
O2_10 O 0.9360(3) 0.6543(3) 0.9169(2)
O3_10 O 0.9955(3) 0.6085(3) 0.7658(2)
C1_10 C 0.8888(4) 0.6091(4) 0.9150(3)
C2_10 C 0.9558(4) 0.5587(4) 0.7700(3)
C3_10 C 0.8792(4) 0.5705(4) 0.8750(3)
C4_10 C 0.8258(4) 0.5216(5) 0.8702(4)
H1_10 H 0.7968 0.5131 0.8922
C5_10 C 0.8167(4) 0.4864(5) 0.8331(4)
H2_10 H 0.7812 0.4531 0.8297
C6_10 C 0.8583(5) 0.4987(5) 0.8009(4)
H3_10 H 0.8511 0.4738 0.7756
C7_10 C 0.9106(4) 0.5472(4) 0.8051(3)
C8_10 C 0.9203(4) 0.5830(4) 0.8423(3)
H4_10 H 0.9557 0.6165 0.8452
S1_10 S 0.88890(10) 0.77818(10) 0.92785(8)
O5_10 O 0.8881(3) 0.7228(3) 0.9321(2)
O7_10 O 0.9334(3) 0.8146(3) 0.8957(2)
O8_10 O 0.8998(3) 0.8050(3) 0.9743(2)
C10_10 C 0.7366(10) 0.4803(7) 0.9997(7)
H10_10 H 0.7552 0.4860 0.9695
H12_10 H 0.6982 0.4734 0.9951
S2_11 S 0.30196(10) 0.19813(14) 0.06617(8)
O9_11 O 0.3226(3) 0.2149(4) 0.0169(2)
O10_11 O 0.2507(3) 0.1421(4) 0.0653(2)
O11_5 O 0.2874(3) 0.2389(4) 0.0846(2)
O12_11 O 0.3461(3) 0.1980(4) 0.0935(2)
S3_11 S 0.45896(18) 0.23382(26) 0.03404(15)
O15_11 O 0.4147(3) 0.1799(4) 0.0161(3)
C9_11 C 0.4851(8) 0.2132(13) 0.0835(7)
H7_11 H 0.4567 0.1991 0.1081
H8_11 H 0.4931 0.1835 0.0743
H9_11 H 0.5197 0.2458 0.0949
H11_11 H 0.5521 0.2873 0.0153
S5_11 S 0.37580(12) 0.36092(18) 0.00240(11)
O17_5 O 0.3128(3) 0.3165(4) 0.0013(2)
C13_11 C 0.3786(6) 0.4253(8) 0.0143(5)
H20_11 H 0.3543 0.4206 0.0408
H21_11 H 0.4175 0.4541 0.0215
C14_11 C 0.4020(5) 0.3498(8) 0.0567(5)
H22_11 H 0.4023 0.3142 0.0553
H23_11 H 0.4403 0.3809 0.0621
H24_11 H 0.3775 0.3483 0.0821
O18_11 O 0.1505(3) 0.0350(4) 0.0627(2)
H25_11 H 0.1465 0.0120 0.0841
C15_11 C 0.1322(14) 0.0697(21) 0.0801(17)
H26_11 H 0.0906 0.0450 0.0802
H27_11 H 0.1400 0.0965 0.0544
C16_11 C 0.1429(10) 0.1072(21) 0.1242(10)
H28_11 H 0.1171 0.1223 0.1240
H29_11 H 0.1819 0.1384 0.1240
H30_11 H 0.1364 0.0844 0.1521
Co1_11 Co 0.28349(5) 0.23866(7) 0.96304(4)
O1_11 O 0.4043(3) 0.2533(4) 0.9440(2)
O2_11 O 0.3457(3) 0.2817(4) 0.9169(2)
O3_11 O 0.3915(3) 0.3870(4) 0.7658(2)
C1_11 C 0.3909(4) 0.2797(6) 0.9150(3)
C2_11 C 0.4413(4) 0.3971(6) 0.7700(3)
C3_11 C 0.4295(4) 0.3087(6) 0.8750(3)
C4_11 C 0.4784(5) 0.3042(6) 0.8702(4)
H1_11 H 0.4869 0.2837 0.8922
C5_11 C 0.5136(5) 0.3303(6) 0.8331(4)
H2_11 H 0.5469 0.3281 0.8297
C6_11 C 0.5013(5) 0.3596(7) 0.8009(4)
H3_11 H 0.5262 0.3773 0.7756
C7_11 C 0.4528(4) 0.3634(6) 0.8051(3)
C8_11 C 0.4170(4) 0.3373(6) 0.8423(3)
H4_11 H 0.3835 0.3392 0.8452
S1_11 S 0.22182(10) 0.11072(14) 0.92785(8)
O5_11 O 0.2772(3) 0.1653(4) 0.9321(2)
O7_11 O 0.1854(3) 0.1188(4) 0.8957(2)
O8_11 O 0.1950(3) 0.0948(4) 0.9743(2)
C10_11 C 0.5197(7) 0.2563(12) 0.9997(7)
H10_11 H 0.5140 0.2692 0.9695
H12_11 H 0.5266 0.2248 0.9951
S4_11 S 0.24168(14) 0.26692(20) 0.86768(10)
C11_11 C 0.2613(5) 0.3386(7) 0.8638(4)
H13_11 H 0.2981 0.3616 0.8786
H14_11 H 0.2637 0.3493 0.8311
H15_11 H 0.2331 0.3447 0.8795
C12_11 C 0.1759(6) 0.2361(8) 0.8406(5)
H16_11 H 0.1594 0.1950 0.8400
H17_11 H 0.1509 0.2456 0.8578
H18_11 H 0.1804 0.2504 0.8088
H19_11 H 0.3656 0.4371 0.9871
O21_8 O 0.2848(3) 0.3793(5) 0.7513(2)
O26_8 O 0.3370(3) 0.3539(5) 0.6680(2)
S2_12 S 0.80187(14) 0.10383(10) 0.06617(8)
O9_12 O 0.7851(4) 0.1077(2) 0.0169(2)
O10_12 O 0.8579(4) 0.1086(3) 0.0653(2)
O11_6 O 0.7611(4) 0.0485(3) 0.0846(2)
O12_12 O 0.8020(4) 0.1481(3) 0.0935(2)
S3_12 S 0.76618(26) 0.22514(19) 0.03404(15)
O15_12 O 0.8201(4) 0.2348(3) 0.0161(3)
C9_12 C 0.7868(13) 0.2719(10) 0.0835(7)
H7_12 H 0.8009 0.2576 0.1081
H8_12 H 0.8165 0.3096 0.0743
H9_12 H 0.7542 0.2739 0.0949
H11_12 H 0.7127 0.2648 0.0153
S5_12 S 0.63908(18) 0.01488(13) 0.00240(11)
C14_12 C 0.6502(8) 0.0522(6) 0.0567(5)
H22_12 H 0.6858 0.0881 0.0553
H23_12 H 0.6191 0.0594 0.0621
H24_12 H 0.6517 0.0292 0.0821
O18_12 O 0.9650(4) 0.1155(3) 0.0627(2)
H25_12 H 0.9880 0.1345 0.0841
C15_12 C 0.9303(21) 0.0625(15) 0.0801(17)
H26_12 H 0.9550 0.0456 0.0802
H27_12 H 0.9035 0.0435 0.0544
C16_12 C 0.8928(21) 0.0357(19) 0.1242(10)
H29_12 H 0.8616 0.0435 0.1240
H30_12 H 0.9156 0.0520 0.1521
Co1_12 Co 0.76134(7) 0.04483(5) 0.96304(4)
O1_12 O 0.7467(4) 0.1510(3) 0.9440(2)
O2_12 O 0.7183(4) 0.0640(3) 0.9169(2)
O3_12 O 0.6130(4) 0.0045(3) 0.7658(2)
C1_12 C 0.7203(6) 0.1112(4) 0.9150(3)
C2_12 C 0.6029(6) 0.0442(4) 0.7700(3)
C3_12 C 0.6913(6) 0.1208(4) 0.8750(3)
C4_12 C 0.6958(6) 0.1742(4) 0.8702(4)
H1_12 H 0.7163 0.2032 0.8922
C5_12 C 0.6697(6) 0.1833(4) 0.8331(4)
H2_12 H 0.6719 0.2188 0.8297
C6_12 C 0.6404(7) 0.1417(5) 0.8009(4)
H3_12 H 0.6227 0.1489 0.7756
C7_12 C 0.6366(6) 0.0894(4) 0.8051(3)
C8_12 C 0.6627(6) 0.0797(4) 0.8423(3)
H4_12 H 0.6608 0.0443 0.8452
S1_12 S 0.88928(14) 0.11110(10) 0.92785(8)
O5_12 O 0.8347(4) 0.1119(3) 0.9321(2)
O7_12 O 0.8812(4) 0.0666(3) 0.8957(2)
O8_12 O 0.9052(4) 0.1002(3) 0.9743(2)
C10_12 C 0.7437(12) 0.2634(10) 0.9997(7)
H10_12 H 0.7308 0.2448 0.9695
H12_12 H 0.7752 0.3018 0.9951
O17_6 O 0.6835(4) 0.9963(3) 0.0013(2)
C13_12 C 0.5747(8) 0.9533(6) 0.0143(5)
H20_12 H 0.5794 0.9337 0.0408
H21_12 H 0.5459 0.9634 0.0215
H28_12 H 0.8777 0.9948 0.1240
S4_12 S 0.73308(20) 0.97476(14) 0.86768(10)
C11_12 C 0.6614(7) 0.9227(5) 0.8638(4)
H13_12 H 0.6384 0.9365 0.8786
H14_12 H 0.6507 0.9144 0.8311
H15_12 H 0.6553 0.8884 0.8795
C12_12 C 0.7639(8) 0.9398(6) 0.8406(5)
H16_12 H 0.8050 0.9644 0.8400
H17_12 H 0.7544 0.9053 0.8578
H18_12 H 0.7496 0.9300 0.8088
H19_12 H 0.5629 0.9285 0.9871
O21_9 O 0.6207(5) 0.9056(4) 0.7513(2)
O26_9 O 0.6461(5) 0.9832(4) 0.6680(2)
Co1_13 Co 0.28850(5) 0.38318(5) 0.62971(4)
O1_13 O 0.1823(3) 0.2624(3) 0.6107(2)
O2_13 O 0.2693(3) 0.3210(3) 0.5836(2)
O3_13 O 0.3288(3) 0.2752(3) 0.4325(2)
C1_13 C 0.2221(4) 0.2758(4) 0.5817(3)
C2_13 C 0.2891(4) 0.2254(4) 0.4367(3)
C3_13 C 0.2125(4) 0.2372(4) 0.5417(3)
C4_13 C 0.1591(4) 0.1883(5) 0.5369(4)
H1_13 H 0.1301 0.1798 0.5589
C5_13 C 0.1500(4) 0.1531(5) 0.4998(4)
H2_13 H 0.1145 0.1198 0.4964
C6_13 C 0.1916(5) 0.1654(5) 0.4676(4)
H3_13 H 0.1844 0.1405 0.4423
C7_13 C 0.2439(4) 0.2139(4) 0.4718(3)
C8_13 C 0.2536(4) 0.2497(4) 0.5090(3)
H4_13 H 0.2890 0.2832 0.5119
S1_13 S 0.22223(10) 0.44485(10) 0.59452(8)
O5_13 O 0.2214(3) 0.3895(3) 0.5988(2)
O7_13 O 0.2667(3) 0.4813(3) 0.5624(2)
O8_13 O 0.2331(3) 0.4717(3) 0.6410(2)
S2_13 S 0.22950(10) 0.36471(10) 0.73284(8)
O9_13 O 0.2256(2) 0.3441(3) 0.6836(2)
O10_13 O 0.2247(3) 0.4160(3) 0.7320(2)
O12_13 O 0.1852(3) 0.3206(3) 0.7602(2)
S3_13 S 0.10819(19) 0.20771(18) 0.70071(15)
O15_13 O 0.0985(3) 0.2520(3) 0.6828(3)
C9_13 C 0.0614(10) 0.1816(8) 0.7502(7)
H7_13 H 0.0757 0.2100 0.7748
H8_13 H 0.0237 0.1736 0.7410
H9_13 H 0.0594 0.1470 0.7616
C10_13 C 0.0699(10) 0.1470(7) 0.6664(7)
H10_13 H 0.0885 0.1527 0.6362
H11_13 H 0.0685 0.1146 0.6820
H12_13 H 0.0315 0.1401 0.6618
S4_13 S 0.35857(14) 0.42499(14) 0.53435(10)
C11_13 C 0.4106(5) 0.4054(5) 0.5305(4)
H13_13 H 0.3968 0.3686 0.5453
H14_13 H 0.4189 0.4030 0.4978
H15_13 H 0.4449 0.4336 0.5462
C12_13 C 0.3935(6) 0.4908(6) 0.5073(5)
H16_13 H 0.3689 0.5073 0.5067
H17_13 H 0.4280 0.5158 0.5245
H18_13 H 0.4033 0.4863 0.4755
S5_13 S 0.31845(13) 0.29087(12) 0.66907(11)
C13_13 C 0.3800(6) 0.2881(6) 0.6810(5)
H19_13 H 0.4048 0.3011 0.6538
H20_13 H 0.3996 0.3124 0.7075
H21_13 H 0.3699 0.2492 0.6882
C14_13 C 0.2811(6) 0.2647(5) 0.7234(5)
H22_13 H 0.2452 0.2644 0.7220
H23_13 H 0.2739 0.2264 0.7288
H24_13 H 0.3041 0.2892 0.7488
O18_13 O 0.2178(3) 0.5162(3) 0.7294(2)
H25_13 H 0.1988 0.5202 0.7508
C15_13 C 0.2708(15) 0.5345(14) 0.7468(17)
H26_13 H 0.2877 0.5761 0.7469
H27_13 H 0.2898 0.5267 0.7211
C16_13 C 0.2976(19) 0.5238(10) 0.7909(10)
H28_13 H 0.3385 0.5496 0.7907
H29_13 H 0.2898 0.4848 0.7907
H30_13 H 0.2813 0.5303 0.8188
O21_10 O 0.4278(4) 0.3818(3) 0.4179(2)
O26_10 O 0.3502(4) 0.3296(3) 0.3346(2)
O3_14 O 0.7248(3) 0.0537(4) 0.4325(2)
C2_14 C 0.7746(4) 0.0638(6) 0.4367(3)
C6_14 C 0.8346(5) 0.0263(7) 0.4676(4)
H3_14 H 0.8595 0.0440 0.4423
C7_14 C 0.7861(4) 0.0301(6) 0.4718(3)
C8_14 C 0.7503(4) 0.0040(6) 0.5090(3)
H4_14 H 0.7168 0.0059 0.5119
C11_14 C 0.5946(5) 0.0053(7) 0.5305(4)
H13_14 H 0.6314 0.0283 0.5453
H14_14 H 0.5970 0.0160 0.4978
H15_14 H 0.5664 0.0114 0.5462
S5_14 S 0.70913(12) 0.02759(18) 0.66907(11)
C13_14 C 0.7119(6) 0.0920(8) 0.6810(5)
H19_14 H 0.6989 0.1038 0.6538
H20_14 H 0.6876 0.0873 0.7075
H21_14 H 0.7508 0.1208 0.6882
C14_14 C 0.7353(5) 0.0165(8) 0.7234(5)
H23_14 H 0.7736 0.0476 0.7288
H24_14 H 0.7108 0.0150 0.7488
O21_11 O 0.6182(3) 0.0459(5) 0.4179(2)
O26_11 O 0.6704(3) 0.0205(5) 0.3346(2)
Co1_14 Co 0.61682(5) 0.90533(7) 0.62971(4)
O1_14 O 0.7376(3) 0.9200(4) 0.6107(2)
O2_14 O 0.6790(3) 0.9484(4) 0.5836(2)
C1_14 C 0.7242(4) 0.9464(6) 0.5817(3)
C3_14 C 0.7628(4) 0.9754(6) 0.5417(3)
C4_14 C 0.8117(5) 0.9709(6) 0.5369(4)
H1_14 H 0.8202 0.9504 0.5589
C5_14 C 0.8469(5) 0.9970(6) 0.4998(4)
H2_14 H 0.8802 0.9948 0.4964
S1_14 S 0.55515(10) 0.77739(14) 0.59452(8)
O5_14 O 0.6105(3) 0.8320(4) 0.5988(2)
O7_14 O 0.5187(3) 0.7855(4) 0.5624(2)
O8_14 O 0.5283(3) 0.7615(4) 0.6410(2)
S2_14 S 0.63529(10) 0.86480(14) 0.73284(8)
O9_14 O 0.6559(3) 0.8816(4) 0.6836(2)
O10_14 O 0.5840(3) 0.8088(4) 0.7320(2)
O12_14 O 0.6794(3) 0.8647(4) 0.7602(2)
S3_14 S 0.79229(18) 0.90049(26) 0.70071(15)
O15_14 O 0.7480(3) 0.8466(4) 0.6828(3)
C9_14 C 0.8184(8) 0.8799(13) 0.7502(7)
H7_14 H 0.7900 0.8658 0.7748
H8_14 H 0.8264 0.8502 0.7410
H9_14 H 0.8530 0.9125 0.7616
C10_14 C 0.8530(7) 0.9230(12) 0.6664(7)
H10_14 H 0.8473 0.9359 0.6362
H11_14 H 0.8854 0.9540 0.6820
H12_14 H 0.8599 0.8915 0.6618
S4_14 S 0.57501(14) 0.93359(20) 0.53435(10)
C12_14 C 0.5092(6) 0.9028(8) 0.5073(5)
H16_14 H 0.4927 0.8617 0.5067
H17_14 H 0.4842 0.9123 0.5245
H18_14 H 0.5137 0.9171 0.4755
H22_14 H 0.7356 0.9809 0.7220
O18_14 O 0.4838(3) 0.7017(4) 0.7294(2)
H25_14 H 0.4798 0.6787 0.7508
C15_14 C 0.4655(14) 0.7364(21) 0.7468(17)
H26_14 H 0.4239 0.7117 0.7469
H27_14 H 0.4733 0.7632 0.7211
C16_14 C 0.4762(10) 0.7739(21) 0.7909(10)
H28_14 H 0.4504 0.7890 0.7907
H29_14 H 0.5152 0.8051 0.7907
H30_14 H 0.4697 0.7511 0.8188
Co1_15 Co 0.09467(7) 0.71150(5) 0.62971(4)
O1_15 O 0.0800(4) 0.8177(3) 0.6107(2)
O2_15 O 0.0516(4) 0.7307(3) 0.5836(2)
C1_15 C 0.0536(6) 0.7779(4) 0.5817(3)
C3_15 C 0.0246(6) 0.7875(4) 0.5417(3)
C4_15 C 0.0291(6) 0.8409(4) 0.5369(4)
H1_15 H 0.0496 0.8699 0.5589
C5_15 C 0.0030(6) 0.8500(4) 0.4998(4)
H2_15 H 0.0052 0.8855 0.4964
S1_15 S 0.22261(14) 0.77777(10) 0.59452(8)
O5_15 O 0.1680(4) 0.7786(3) 0.5988(2)
O7_15 O 0.2145(4) 0.7333(3) 0.5624(2)
O8_15 O 0.2385(4) 0.7669(3) 0.6410(2)
S2_15 S 0.13520(14) 0.77050(10) 0.73284(8)
O9_15 O 0.1184(4) 0.7744(2) 0.6836(2)
O10_15 O 0.1912(4) 0.7753(3) 0.7320(2)
O12_15 O 0.1353(4) 0.8148(3) 0.7602(2)
S3_15 S 0.09951(26) 0.89181(19) 0.70071(15)
O15_15 O 0.1534(4) 0.9015(3) 0.6828(3)
C9_15 C 0.1201(13) 0.9386(10) 0.7502(7)
H7_15 H 0.1342 0.9243 0.7748
H8_15 H 0.1498 0.9763 0.7410
H9_15 H 0.0875 0.9406 0.7616
C10_15 C 0.0770(12) 0.9301(10) 0.6664(7)
H10_15 H 0.0641 0.9115 0.6362
H11_15 H 0.0460 0.9315 0.6820
H12_15 H 0.1085 0.9685 0.6618
S4_15 S 0.06641(20) 0.64143(14) 0.53435(10)
C12_15 C 0.0972(8) 0.6065(6) 0.5073(5)
H16_15 H 0.1383 0.6311 0.5067
H17_15 H 0.0877 0.5720 0.5245
H18_15 H 0.0829 0.5967 0.4755
H22_15 H 0.0191 0.7548 0.7220
O18_15 O 0.2983(4) 0.7822(3) 0.7294(2)
H25_15 H 0.3213 0.8012 0.7508
C15_15 C 0.2636(21) 0.7292(15) 0.7468(17)
H26_15 H 0.2883 0.7123 0.7469
H27_15 H 0.2368 0.7102 0.7211
C16_15 C 0.2261(21) 0.7024(19) 0.7909(10)
H28_15 H 0.2110 0.6615 0.7907
H29_15 H 0.1949 0.7102 0.7907
H30_15 H 0.2489 0.7187 0.8188
O3_15 O 0.9463(4) 0.6712(3) 0.4325(2)
C2_15 C 0.9362(6) 0.7109(4) 0.4367(3)
C6_15 C 0.9737(7) 0.8084(5) 0.4676(4)
H3_15 H 0.9560 0.8156 0.4423
C7_15 C 0.9699(6) 0.7561(4) 0.4718(3)
C8_15 C 0.9960(6) 0.7464(4) 0.5090(3)
H4_15 H 0.9941 0.7110 0.5119
C11_15 C 0.9947(7) 0.5894(5) 0.5305(4)
H13_15 H 0.9717 0.6032 0.5453
H14_15 H 0.9840 0.5811 0.4978
H15_15 H 0.9886 0.5551 0.5462
S5_15 S 0.97241(18) 0.68155(13) 0.66907(11)
C13_15 C 0.9080(8) 0.6200(6) 0.6810(5)
H19_15 H 0.8962 0.5952 0.6538
H20_15 H 0.9127 0.6004 0.7075
H21_15 H 0.8792 0.6301 0.6882
C14_15 C 0.9835(8) 0.7189(6) 0.7234(5)
H23_15 H 0.9524 0.7261 0.7288
H24_15 H 0.9850 0.6959 0.7488
O21_12 O 0.9541(5) 0.5722(4) 0.4179(2)
O26_12 O 0.9795(5) 0.6498(4) 0.3346(2)
Co1_16 Co 0.62184(5) 0.04984(5) 0.29637(4)
S1_16 S 0.55557(10) 0.11151(10) 0.26118(8)
O5_16 O 0.5548(3) 0.0561(3) 0.2654(2)
O7_16 O 0.6001(3) 0.1479(3) 0.2290(2)
O8_16 O 0.5665(3) 0.1383(3) 0.3076(2)
S2_16 S 0.56284(10) 0.03137(10) 0.39950(8)
O9_16 O 0.5590(2) 0.0107(3) 0.3502(2)
O10_16 O 0.5581(3) 0.0826(3) 0.3986(2)
S4_16 S 0.69191(14) 0.09165(14) 0.20101(10)
C11_16 C 0.7440(5) 0.0720(5) 0.1971(4)
H13_16 H 0.7302 0.0352 0.2119
H14_16 H 0.7523 0.0696 0.1644
H15_16 H 0.7783 0.1002 0.2128
C12_16 C 0.7269(6) 0.1574(6) 0.1739(5)
H16_16 H 0.7023 0.1739 0.1733
H17_16 H 0.7614 0.1824 0.1911
H18_16 H 0.7367 0.1529 0.1421
O18_16 O 0.5512(3) 0.1828(3) 0.3960(2)
H25_16 H 0.5322 0.1868 0.4174
C15_16 C 0.6042(15) 0.2011(14) 0.4134(17)
H26_16 H 0.6211 0.2427 0.4135
H27_16 H 0.6232 0.1933 0.3877
C16_16 C 0.6310(19) 0.1904(10) 0.4575(10)
H28_16 H 0.6719 0.2162 0.4573
H29_16 H 0.6232 0.1514 0.4573
H30_16 H 0.6147 0.1969 0.4854
O1_16 O 0.5157(3) 0.9290(3) 0.2773(2)
O2_16 O 0.6027(3) 0.9876(3) 0.2502(2)
O3_16 O 0.6622(3) 0.9418(3) 0.0991(2)
C1_16 C 0.5555(4) 0.9424(4) 0.2483(3)
C2_16 C 0.6225(4) 0.8920(4) 0.1033(3)
C3_16 C 0.5459(4) 0.9038(4) 0.2083(3)
C4_16 C 0.4925(4) 0.8549(5) 0.2035(4)
H1_16 H 0.4635 0.8464 0.2255
C5_16 C 0.4834(4) 0.8197(5) 0.1664(4)
H2_16 H 0.4479 0.7864 0.1630
C6_16 C 0.5250(5) 0.8320(5) 0.1342(4)
H3_16 H 0.5178 0.8071 0.1089
C7_16 C 0.5773(4) 0.8805(4) 0.1384(3)
C8_16 C 0.5870(4) 0.9163(4) 0.1756(3)
H4_16 H 0.6224 0.9498 0.1785
O12_16 O 0.5186(3) 0.9872(3) 0.4268(2)
S3_16 S 0.44153(19) 0.87437(18) 0.36737(15)
O15_16 O 0.4319(3) 0.9186(3) 0.3494(3)
C9_16 C 0.3948(10) 0.8482(8) 0.4168(7)
H7_16 H 0.4091 0.8766 0.4414
H8_16 H 0.3571 0.8402 0.4076
H9_16 H 0.3928 0.8136 0.4282
C10_16 C 0.4033(10) 0.8136(7) 0.3330(7)
H10_16 H 0.4219 0.8193 0.3028
H11_16 H 0.4019 0.7812 0.3486
H12_16 H 0.3649 0.8067 0.3284
S5_16 S 0.65179(13) 0.95753(12) 0.33573(11)
C13_16 C 0.7134(6) 0.9547(6) 0.3476(5)
H19_16 H 0.7382 0.9677 0.3204
H20_16 H 0.7330 0.9790 0.3741
H21_16 H 0.7033 0.9158 0.3548
C14_16 C 0.6145(6) 0.9313(5) 0.3900(5)
H22_16 H 0.5786 0.9310 0.3886
H23_16 H 0.6073 0.8930 0.3954
H24_16 H 0.6375 0.9558 0.4154
O1_17 O 0.0710(3) 0.5866(4) 0.2773(2)
O2_17 O 0.0124(3) 0.6150(4) 0.2502(2)
O3_17 O 0.0582(3) 0.7203(4) 0.0991(2)
C1_17 C 0.0576(4) 0.6130(6) 0.2483(3)
C2_17 C 0.1080(4) 0.7304(6) 0.1033(3)
C3_17 C 0.0962(4) 0.6420(6) 0.2083(3)
C4_17 C 0.1451(5) 0.6375(6) 0.2035(4)
H1_17 H 0.1536 0.6170 0.2255
C5_17 C 0.1803(5) 0.6636(6) 0.1664(4)
H2_17 H 0.2136 0.6614 0.1630
C6_17 C 0.1680(5) 0.6929(7) 0.1342(4)
H3_17 H 0.1929 0.7106 0.1089
C7_17 C 0.1195(4) 0.6967(6) 0.1384(3)
C8_17 C 0.0837(4) 0.6706(6) 0.1756(3)
H4_17 H 0.0502 0.6725 0.1785
O12_17 O 0.0128(3) 0.5313(4) 0.4268(2)
S3_17 S 0.12563(18) 0.56715(26) 0.36737(15)
O15_17 O 0.0814(3) 0.5132(4) 0.3494(3)
C9_17 C 0.1518(8) 0.5465(13) 0.4168(7)
H7_17 H 0.1234 0.5324 0.4414
H8_17 H 0.1598 0.5168 0.4076
H9_17 H 0.1864 0.5791 0.4282
C10_17 C 0.1864(7) 0.5896(12) 0.3330(7)
H10_17 H 0.1807 0.6025 0.3028
H11_17 H 0.2188 0.6206 0.3486
H12_17 H 0.1933 0.5581 0.3284
S5_17 S 0.04247(12) 0.69425(18) 0.33573(11)
C13_17 C 0.0453(6) 0.7586(8) 0.3476(5)
H19_17 H 0.0323 0.7704 0.3204
H20_17 H 0.0210 0.7539 0.3741
H21_17 H 0.0842 0.7874 0.3548
C14_17 C 0.0687(5) 0.6831(8) 0.3900(5)
H22_17 H 0.0690 0.6475 0.3886
H23_17 H 0.1070 0.7142 0.3954
H24_17 H 0.0442 0.6816 0.4154
Co1_17 Co 0.95016(5) 0.57199(7) 0.29637(4)
S1_17 S 0.88849(10) 0.44405(14) 0.26118(8)
O5_17 O 0.9439(3) 0.4986(4) 0.2654(2)
O7_17 O 0.8521(3) 0.4521(4) 0.2290(2)
O8_17 O 0.8617(3) 0.4281(4) 0.3076(2)
S2_17 S 0.96863(10) 0.53146(14) 0.39950(8)
O9_17 O 0.9893(3) 0.5482(4) 0.3502(2)
O10_17 O 0.9174(3) 0.4754(4) 0.3986(2)
S4_17 S 0.90835(14) 0.60025(20) 0.20101(10)
C11_17 C 0.9280(5) 0.6719(7) 0.1971(4)
H13_17 H 0.9648 0.6949 0.2119
H14_17 H 0.9304 0.6826 0.1644
H15_17 H 0.8998 0.6780 0.2128
C12_17 C 0.8426(6) 0.5694(8) 0.1739(5)
H16_17 H 0.8261 0.5283 0.1733
H17_17 H 0.8176 0.5789 0.1911
H18_17 H 0.8471 0.5837 0.1421
O18_17 O 0.8172(3) 0.3683(4) 0.3960(2)
H25_17 H 0.8132 0.3453 0.4174
C15_17 C 0.7989(14) 0.4030(21) 0.4134(17)
H26_17 H 0.7573 0.3783 0.4135
H27_17 H 0.8067 0.4298 0.3877
C16_17 C 0.8096(10) 0.4405(21) 0.4575(10)
H28_17 H 0.7838 0.4556 0.4573
H29_17 H 0.8486 0.4717 0.4573
H30_17 H 0.8031 0.4177 0.4854
Co1_18 Co 0.42801(7) 0.37816(5) 0.29637(4)
O1_18 O 0.4134(4) 0.4843(3) 0.2773(2)
O2_18 O 0.3850(4) 0.3973(3) 0.2502(2)
O3_18 O 0.2797(4) 0.3378(3) 0.0991(2)
C1_18 C 0.3870(6) 0.4445(4) 0.2483(3)
C2_18 C 0.2696(6) 0.3775(4) 0.1033(3)
C3_18 C 0.3580(6) 0.4541(4) 0.2083(3)
C4_18 C 0.3625(6) 0.5075(4) 0.2035(4)
H1_18 H 0.3830 0.5365 0.2255
C5_18 C 0.3364(6) 0.5166(4) 0.1664(4)
H2_18 H 0.3386 0.5521 0.1630
C6_18 C 0.3071(7) 0.4750(5) 0.1342(4)
H3_18 H 0.2894 0.4822 0.1089
C7_18 C 0.3033(6) 0.4227(4) 0.1384(3)
C8_18 C 0.3294(6) 0.4130(4) 0.1756(3)
H4_18 H 0.3275 0.3776 0.1785
S1_18 S 0.55595(14) 0.44443(10) 0.26118(8)
O5_18 O 0.5014(4) 0.4452(3) 0.2654(2)
O7_18 O 0.5479(4) 0.3999(3) 0.2290(2)
O8_18 O 0.5719(4) 0.4335(3) 0.3076(2)
S2_18 S 0.46854(14) 0.43716(10) 0.39950(8)
O9_18 O 0.4518(4) 0.4410(2) 0.3502(2)
O10_18 O 0.5246(4) 0.4419(3) 0.3986(2)
O12_18 O 0.4687(4) 0.4814(3) 0.4268(2)
S3_18 S 0.43285(26) 0.55847(19) 0.36737(15)
O15_18 O 0.4868(4) 0.5681(3) 0.3494(3)
C9_18 C 0.4535(13) 0.6052(10) 0.4168(7)
H7_18 H 0.4676 0.5909 0.4414
H8_18 H 0.4832 0.6429 0.4076
H9_18 H 0.4209 0.6072 0.4282
C10_18 C 0.4104(12) 0.5967(10) 0.3330(7)
H10_18 H 0.3975 0.5781 0.3028
H11_18 H 0.3794 0.5981 0.3486
H12_18 H 0.4419 0.6351 0.3284
S4_18 S 0.39975(20) 0.30809(14) 0.20101(10)
C11_18 C 0.3281(7) 0.2560(5) 0.1971(4)
H13_18 H 0.3051 0.2698 0.2119
H14_18 H 0.3174 0.2477 0.1644
H15_18 H 0.3220 0.2217 0.2128
C12_18 C 0.4306(8) 0.2731(6) 0.1739(5)
H16_18 H 0.4717 0.2977 0.1733
H17_18 H 0.4211 0.2386 0.1911
H18_18 H 0.4163 0.2633 0.1421
S5_18 S 0.30575(18) 0.34821(13) 0.33573(11)
C13_18 C 0.2414(8) 0.2866(6) 0.3476(5)
H19_18 H 0.2296 0.2618 0.3204
H20_18 H 0.2461 0.2670 0.3741
H21_18 H 0.2126 0.2967 0.3548
C14_18 C 0.3169(8) 0.3855(6) 0.3900(5)
H22_18 H 0.3525 0.4214 0.3886
H23_18 H 0.2858 0.3927 0.3954
H24_18 H 0.3184 0.3625 0.4154
O18_18 O 0.6317(4) 0.4488(3) 0.3960(2)
H25_18 H 0.6547 0.4678 0.4174
C15_18 C 0.5970(21) 0.3958(15) 0.4134(17)
H26_18 H 0.6217 0.3789 0.4135
H27_18 H 0.5702 0.3768 0.3877
C16_18 C 0.5595(21) 0.3690(19) 0.4575(10)
H28_18 H 0.5444 0.3281 0.4573
H29_18 H 0.5283 0.3768 0.4573
H30_18 H 0.5823 0.3853 0.4854
loop_
_geom_bond_atom_site_label_1
_geom_bond_atom_site_label_2
_geom_bond_site_symmetry_1
_geom_bond_site_symmetry_2
Co1 O2 1_555 1_555
Co4 O1 1_555 1_555
O1 C1 1_555 1_555
O2 C1 1_555 1_555
O3 C2 1_555 1_555
O4 C2 1_555 1_555
C1 C3 1_555 1_555
C2 C7 1_555 1_555
C3 C4 1_555 1_555
C4 H1 1_555 1_555
C5 C4 1_555 1_555
H2 C5 1_555 1_555
C6 C5 1_555 1_555
H3 C6 1_555 1_555
C7 C6 1_555 1_555
C8 C3 1_555 1_555
H4 C8 1_555 1_555
S1 O5 1_555 1_555
O5 Co1 1_555 1_555
O6 S1 1_555 1_555
O7 S1 1_555 1_555
O8 S1 1_555 1_555
H10 C10 1_555 1_555
H12 C10 1_555 1_555
Co5 O6 1_555 1_555
Co9 O4 1_555 1_555
O19 Co4 1_555 1_555
H32 O23 1_555 1_555
Co4 O5 1_555 1_555
Co4 O24 1_555 1_555
C7 C8 1_555 1_555
Co5 O23 1_555 1_555
Co5 O24 1_555 1_555
S2 O9 1_555 1_555
O10 Co3 1_555 1_555
O11 S2 1_555 1_555
O12 S2 1_555 1_555
H5 O13 1_555 1_555
S3 O15 1_555 1_555
C9 S3 1_555 1_555
H7 C9 1_555 1_555
H8 C9 1_555 1_555
H9 C9 1_555 1_555
C14 S5 1_555 1_555
H22 C14 1_555 1_555
H23 C14 1_555 1_555
H24 C14 1_555 1_555
O18 Co3 1_555 1_555
H25 O18 1_555 1_555
C15 O18 1_555 1_555
H26 C15 1_555 1_555
H27 C15 1_555 1_555
C16 C15 1_555 1_555
H29 C16 1_555 1_555
H30 C16 1_555 1_555
O25 Co3 1_555 1_555
S2 O10 1_555 1_555
O14 Co2 1_555 1_555
H6 O14 1_555 1_555
S4 O16 1_555 1_555
C11 S4 1_555 1_555
H13 C11 1_555 1_555
H14 C11 1_555 1_555
H15 C11 1_555 1_555
C12 S4 1_555 1_555
H16 C12 1_555 1_555
H17 C12 1_555 1_555
H18 C12 1_555 1_555
Co8 O14 1_555 1_555
O20 Co2 1_555 1_555
O21 Co2 1_555 1_555
O22 Co2 1_555 1_555
H31 O22 1_555 1_555
O26 Co2 1_555 1_555
O16 Co7 1_555 1_555
Co8 O22 1_555 1_555
H20 C13 1_555 1_555
H21 C13 1_555 1_555
O17 Co6 1_555 1_555
H32_2 O23_2 1_555 1_555
Co1_2 O2_2 1_555 1_555
Co2_2 O3_2 1_555 1_555
Co4_2 O1_2 1_555 1_555
O1_2 C1_2 1_555 1_555
O2_2 C1_2 1_555 1_555
O3_2 C2_2 1_555 1_555
O4_2 C2_2 1_555 1_555
C1_2 C3_2 1_555 1_555
C2_2 C7_2 1_555 1_555
C3_2 C4_2 1_555 1_555
C4_2 H1_2 1_555 1_555
C5_2 C4_2 1_555 1_555
H2_2 C5_2 1_555 1_555
C6_2 C5_2 1_555 1_555
H3_2 C6_2 1_555 1_555
C7_2 C6_2 1_555 1_555
C8_2 C3_2 1_555 1_555
H4_2 C8_2 1_555 1_555
S1_2 O5_2 1_555 1_555
O5_2 Co1_2 1_555 1_555
O6_2 S1_2 1_555 1_555
O7_2 S1_2 1_555 1_555
O8_2 S1_2 1_555 1_555
O14_2 Co2_2 1_555 1_555
H6_2 O14_2 1_555 1_555
H10_2 C10_2 1_555 1_555
H12_2 C10_2 1_555 1_555
S4_2 O16_2 1_555 1_555
O16_2 Co1_2 1_555 1_555
C11_2 S4_2 1_555 1_555
H13_2 C11_2 1_555 1_555
H14_2 C11_2 1_555 1_555
H15_2 C11_2 1_555 1_555
C12_2 S4_2 1_555 1_555
H16_2 C12_2 1_555 1_555
H17_2 C12_2 1_555 1_555
H18_2 C12_2 1_555 1_555
Co5_2 O6_2 1_555 1_555
Co8_2 O14_2 1_555 1_555
Co9_2 O4_2 1_555 1_555
O19_2 Co4_2 1_555 1_555
O20_2 Co2_2 1_555 1_555
O21_2 Co2_2 1_555 1_555
O22_2 Co2_2 1_555 1_555
H31_2 O22_2 1_555 1_555
O26_2 Co2_2 1_555 1_555
Co4_2 O5_2 1_555 1_555
Co4_2 O24_2 1_555 1_555
C7_2 C8_2 1_555 1_555
O14_2 Co9_2 1_555 1_555
O16_2 Co7_2 1_555 1_555
Co5_2 O24_2 1_555 1_555
Co8_2 O22_2 1_555 1_555
S2_2 O9_2 1_555 1_555
O10_2 Co3_2 1_555 1_555
O11_2 S2_2 1_555 1_555
O12_2 S2_2 1_555 1_555
H5_2 O13_2 1_555 1_555
S3_2 O15_2 1_555 1_555
C9_2 S3_2 1_555 1_555
H7_2 C9_2 1_555 1_555
H8_2 C9_2 1_555 1_555
H9_2 C9_2 1_555 1_555
S5_2 O17_2 1_555 1_555
C13_2 S5_2 1_555 1_555
H20_2 C13_2 1_555 1_555
H21_2 C13_2 1_555 1_555
C14_2 S5_2 1_555 1_555
H22_2 C14_2 1_555 1_555
H23_2 C14_2 1_555 1_555
H24_2 C14_2 1_555 1_555
O18_2 Co3_2 1_555 1_555
H25_2 O18_2 1_555 1_555
C15_2 O18_2 1_555 1_555
H26_2 C15_2 1_555 1_555
H27_2 C15_2 1_555 1_555
C16_2 C15_2 1_555 1_555
H28_2 C16_2 1_555 1_555
H29_2 C16_2 1_555 1_555
H30_2 C16_2 1_555 1_555
Co6_2 O11_2 1_555 1_555
O25_2 Co3_2 1_555 1_555
S2_2 O10_2 1_555 1_555
O13_2 Co6_2 1_555 1_555
O17_2 Co6_2 1_555 1_555
O14_3 Co2_3 1_555 1_555
H6_3 O14_3 1_555 1_555
S4_3 O16_3 1_555 1_555
C11_3 S4_3 1_555 1_555
H13_3 C11_3 1_555 1_555
H14_3 C11_3 1_555 1_555
H15_3 C11_3 1_555 1_555
C12_3 S4_3 1_555 1_555
H16_3 C12_3 1_555 1_555
H17_3 C12_3 1_555 1_555
H18_3 C12_3 1_555 1_555
Co8_3 O14_3 1_555 1_555
O20_3 Co2_3 1_555 1_555
O21_3 Co2_3 1_555 1_555
O22_3 Co2_3 1_555 1_555
H31_3 O22_3 1_555 1_555
O26_3 Co2_3 1_555 1_555
O16_3 Co7_3 1_555 1_555
Co8_3 O22_3 1_555 1_555
H20_3 C13_3 1_555 1_555
H21_3 C13_3 1_555 1_555
O17_3 Co6_3 1_555 1_555
Co1_3 O2_3 1_555 1_555
Co4_3 O1_3 1_555 1_555
O1_3 C1_3 1_555 1_555
O2_3 C1_3 1_555 1_555
O3_3 C2_3 1_555 1_555
O4_3 C2_3 1_555 1_555
C1_3 C3_3 1_555 1_555
C2_3 C7_3 1_555 1_555
C3_3 C4_3 1_555 1_555
C4_3 H1_3 1_555 1_555
C5_3 C4_3 1_555 1_555
H2_3 C5_3 1_555 1_555
C6_3 C5_3 1_555 1_555
H3_3 C6_3 1_555 1_555
C7_3 C6_3 1_555 1_555
C8_3 C3_3 1_555 1_555
H4_3 C8_3 1_555 1_555
S1_3 O5_3 1_555 1_555
O5_3 Co1_3 1_555 1_555
O6_3 S1_3 1_555 1_555
O7_3 S1_3 1_555 1_555
O8_3 S1_3 1_555 1_555
H10_3 C10_3 1_555 1_555
H12_3 C10_3 1_555 1_555
Co5_3 O6_3 1_555 1_555
Co9_3 O4_3 1_555 1_555
O19_3 Co4_3 1_555 1_555
Co4_3 O5_3 1_555 1_555
Co4_3 O24_3 1_555 1_555
C7_3 C8_3 1_555 1_555
Co5_3 O24_3 1_555 1_555
S2_3 O9_3 1_555 1_555
O10_3 Co3_3 1_555 1_555
O11_3 S2_3 1_555 1_555
O12_3 S2_3 1_555 1_555
H5_3 O13_3 1_555 1_555
S3_3 O15_3 1_555 1_555
C9_3 S3_3 1_555 1_555
H7_3 C9_3 1_555 1_555
H8_3 C9_3 1_555 1_555
H9_3 C9_3 1_555 1_555
C14_3 S5_3 1_555 1_555
H22_3 C14_3 1_555 1_555
H23_3 C14_3 1_555 1_555
H24_3 C14_3 1_555 1_555
O18_3 Co3_3 1_555 1_555
H25_3 O18_3 1_555 1_555
C15_3 O18_3 1_555 1_555
H26_3 C15_3 1_555 1_555
H27_3 C15_3 1_555 1_555
C16_3 C15_3 1_555 1_555
H29_3 C16_3 1_555 1_555
H30_3 C16_3 1_555 1_555
O25_3 Co3_3 1_555 1_555
S2_3 O10_3 1_555 1_555
H32_3 O23_3 1_555 1_555
Co1_4 O2_4 1_555 1_555
Co2_4 O3_4 1_555 1_555
Co3_4 O8_4 1_555 1_555
Co4_4 O1_4 1_555 1_555
O1_4 C1_4 1_555 1_555
O2_4 C1_4 1_555 1_555
O3_4 C2_4 1_555 1_555
O4_4 C2_4 1_555 1_555
C1_4 C3_4 1_555 1_555
C2_4 C7_4 1_555 1_555
C3_4 C4_4 1_555 1_555
C4_4 H1_4 1_555 1_555
C5_4 C4_4 1_555 1_555
H2_4 C5_4 1_555 1_555
C6_4 C5_4 1_555 1_555
H3_4 C6_4 1_555 1_555
C7_4 C6_4 1_555 1_555
C8_4 C3_4 1_555 1_555
H4_4 C8_4 1_555 1_555
S1_4 O5_4 1_555 1_555
O5_4 Co1_4 1_555 1_555
O6_4 S1_4 1_555 1_555
O7_4 S1_4 1_555 1_555
O8_4 S1_4 1_555 1_555
S2_4 O9_4 1_555 1_555
O9_4 Co1_4 1_555 1_555
O10_4 Co3_4 1_555 1_555
O21_2 S2_4 1_555 1_555
O12_4 S2_4 1_555 1_555
O22_2 Co1_4 1_555 1_555
O14_4 Co2_4 1_555 1_555
H6_4 O14_4 1_555 1_555
S3_4 O15_4 1_555 1_555
O15_4 Co4_4 1_555 1_555
C9_4 S3_4 1_555 1_555
H7_4 C9_4 1_555 1_555
H8_4 C9_4 1_555 1_555
H9_4 C9_4 1_555 1_555
C10_4 S3_4 1_555 1_555
H10_4 C10_4 1_555 1_555
H11_4 C10_4 1_555 1_555
H12_4 C10_4 1_555 1_555
S4_4 O16_4 1_555 1_555
O16_4 Co1_4 1_555 1_555
C11_4 S4_4 1_555 1_555
H13_4 C11_4 1_555 1_555
H14_4 C11_4 1_555 1_555
H15_4 C11_4 1_555 1_555
C12_4 S4_4 1_555 1_555
H16_4 C12_4 1_555 1_555
H17_4 C12_4 1_555 1_555
H18_4 C12_4 1_555 1_555
S5_4 O26_2 1_555 1_555
O26_2 Co1_4 1_555 1_555
C13_4 S5_4 1_555 1_555
H19_4 C13_4 1_555 1_555
H20_4 C13_4 1_555 1_555
H21_4 C13_4 1_555 1_555
C14_4 S5_4 1_555 1_555
H22_4 C14_4 1_555 1_555
H23_4 C14_4 1_555 1_555
H24_4 C14_4 1_555 1_555
O18_4 Co3_4 1_555 1_555
H25_4 O18_4 1_555 1_555
C15_4 O18_4 1_555 1_555
H26_4 C15_4 1_555 1_555
H27_4 C15_4 1_555 1_555
C16_4 C15_4 1_555 1_555
H28_4 C16_4 1_555 1_555
H29_4 C16_4 1_555 1_555
H30_4 C16_4 1_555 1_555
Co5_4 O6_4 1_555 1_555
Co8_4 O14_4 1_555 1_555
Co9_4 O4_4 1_555 1_555
O19_4 Co4_4 1_555 1_555
O20_4 Co2_4 1_555 1_555
O21_4 Co2_4 1_555 1_555
O22_4 Co2_4 1_555 1_555
O23_4 Co3_4 1_555 1_555
H31_4 O22_4 1_555 1_555
H32_4 O23_4 1_555 1_555
O24_4 Co3_4 1_555 1_555
H33_4 O24_4 1_555 1_555
O25_4 Co3_4 1_555 1_555
O26_4 Co2_4 1_555 1_555
Co4_4 O5_4 1_555 1_555
Co4_4 O9_4 1_555 1_555
Co4_4 O24_4 1_555 1_555
C7_4 C8_4 1_555 1_555
S2_4 O10_4 1_555 1_555
O14_4 Co9_4 1_555 1_555
O16_4 Co8_2 1_555 1_555
Co5_4 O23_4 1_555 1_555
Co5_4 O24_4 1_555 1_555
Co8_4 O22_4 1_555 1_555
Co1_5 O2_5 1_555 1_555
Co3_5 O8_5 1_555 1_555
Co4_5 O1_5 1_555 1_555
O1_5 C1_5 1_555 1_555
O2_5 C1_5 1_555 1_555
C1_5 C3_5 1_555 1_555
C3_5 C4_5 1_555 1_555
C4_5 H1_5 1_555 1_555
C5_5 C4_5 1_555 1_555
H2_5 C5_5 1_555 1_555
S1_5 O5_5 1_555 1_555
O5_5 Co1_5 1_555 1_555
O6_5 S1_5 1_555 1_555
O7_5 S1_5 1_555 1_555
O8_5 S1_5 1_555 1_555
S2_5 O9_5 1_555 1_555
O9_5 Co1_5 1_555 1_555
O10_5 Co3_5 1_555 1_555
O21_3 S2_5 1_555 1_555
O12_5 S2_5 1_555 1_555
O22_3 Co1_5 1_555 1_555
S3_5 O15_5 1_555 1_555
O15_5 Co4_5 1_555 1_555
C9_5 S3_5 1_555 1_555
H7_5 C9_5 1_555 1_555
H8_5 C9_5 1_555 1_555
H9_5 C9_5 1_555 1_555
C10_5 S3_5 1_555 1_555
H10_5 C10_5 1_555 1_555
H11_5 C10_5 1_555 1_555
H12_5 C10_5 1_555 1_555
S4_5 O16_5 1_555 1_555
O16_5 Co1_5 1_555 1_555
C12_5 S4_5 1_555 1_555
H16_5 C12_5 1_555 1_555
H17_5 C12_5 1_555 1_555
H18_5 C12_5 1_555 1_555
O26_3 Co1_5 1_555 1_555
O18_5 Co3_5 1_555 1_555
H25_5 O18_5 1_555 1_555
C15_5 O18_5 1_555 1_555
H26_5 C15_5 1_555 1_555
H27_5 C15_5 1_555 1_555
C16_5 C15_5 1_555 1_555
H28_5 C16_5 1_555 1_555
H29_5 C16_5 1_555 1_555
H30_5 C16_5 1_555 1_555
Co5_5 O6_5 1_555 1_555
O19_5 Co4_5 1_555 1_555
O23_5 Co3_5 1_555 1_555
H32_5 O23_5 1_555 1_555
O24_5 Co3_5 1_555 1_555
H33_5 O24_5 1_555 1_555
O25_5 Co3_5 1_555 1_555
Co4_5 O5_5 1_555 1_555
Co4_5 O9_5 1_555 1_555
Co4_5 O24_5 1_555 1_555
S2_5 O10_5 1_555 1_555
O16_5 Co8_3 1_555 1_555
Co5_5 O23_5 1_555 1_555
Co5_5 O24_5 1_555 1_555
Co2_5 O3_5 1_555 1_555
O3_5 C2_5 1_555 1_555
O4_5 C2_5 1_555 1_555
C2_5 C7_5 1_555 1_555
H3_5 C6_5 1_555 1_555
C7_5 C6_5 1_555 1_555
H4_5 C8_5 1_555 1_555
O14_5 Co2_5 1_555 1_555
H6_5 O14_5 1_555 1_555
H13_5 C11_5 1_555 1_555
H14_5 C11_5 1_555 1_555
H15_5 C11_5 1_555 1_555
C13_5 S5_5 1_555 1_555
H19_5 C13_5 1_555 1_555
H20_5 C13_5 1_555 1_555
H21_5 C13_5 1_555 1_555
C14_5 S5_5 1_555 1_555
H23_5 C14_5 1_555 1_555
H24_5 C14_5 1_555 1_555
Co8_5 O14_5 1_555 1_555
Co9_5 O4_5 1_555 1_555
O20_5 Co2_5 1_555 1_555
O21_5 Co2_5 1_555 1_555
O22_5 Co2_5 1_555 1_555
H31_5 O22_5 1_555 1_555
O26_5 Co2_5 1_555 1_555
C7_5 C8_5 1_555 1_555
O14_5 Co9_5 1_555 1_555
Co8_5 O22_5 1_555 1_555
Co2_6 O3_6 1_555 1_555
O3_6 C2_6 1_555 1_555
O4_6 C2_6 1_555 1_555
C2_6 C7_6 1_555 1_555
H3_6 C6_6 1_555 1_555
C7_6 C6_6 1_555 1_555
H4_6 C8_6 1_555 1_555
O14_6 Co2_6 1_555 1_555
H6_6 O14_6 1_555 1_555
H13_6 C11_6 1_555 1_555
H14_6 C11_6 1_555 1_555
H15_6 C11_6 1_555 1_555
C13_6 S5_6 1_555 1_555
H19_6 C13_6 1_555 1_555
H20_6 C13_6 1_555 1_555
H21_6 C13_6 1_555 1_555
C14_6 S5_6 1_555 1_555
H23_6 C14_6 1_555 1_555
H24_6 C14_6 1_555 1_555
Co8_6 O14_6 1_555 1_555
Co9_6 O4_6 1_555 1_555
O20_6 Co2_6 1_555 1_555
O21_6 Co2_6 1_555 1_555
O22_6 Co2_6 1_555 1_555
H31_6 O22_6 1_555 1_555
O26_6 Co2_6 1_555 1_555
C7_6 C8_6 1_555 1_555
O14_6 Co9_6 1_555 1_555
Co8_6 O22_6 1_555 1_555
Co1_6 O2_6 1_555 1_555
Co3_6 O8_6 1_555 1_555
Co4_6 O1_6 1_555 1_555
O1_6 C1_6 1_555 1_555
O2_6 C1_6 1_555 1_555
C1_6 C3_6 1_555 1_555
C3_6 C4_6 1_555 1_555
C4_6 H1_6 1_555 1_555
C5_6 C4_6 1_555 1_555
H2_6 C5_6 1_555 1_555
S1_6 O5_6 1_555 1_555
O5_6 Co1_6 1_555 1_555
O6_6 S1_6 1_555 1_555
O7_6 S1_6 1_555 1_555
O8_6 S1_6 1_555 1_555
S2_6 O9_6 1_555 1_555
O9_6 Co1_6 1_555 1_555
O10_6 Co3_6 1_555 1_555
O21 S2_6 1_555 1_555
O12_6 S2_6 1_555 1_555
O22 Co1_6 1_555 1_555
S3_6 O15_6 1_555 1_555
O15_6 Co4_6 1_555 1_555
C9_6 S3_6 1_555 1_555
H7_6 C9_6 1_555 1_555
H8_6 C9_6 1_555 1_555
H9_6 C9_6 1_555 1_555
C10_6 S3_6 1_555 1_555
H10_6 C10_6 1_555 1_555
H11_6 C10_6 1_555 1_555
H12_6 C10_6 1_555 1_555
S4_6 O16_6 1_555 1_555
O16_6 Co1_6 1_555 1_555
C12_6 S4_6 1_555 1_555
H16_6 C12_6 1_555 1_555
H17_6 C12_6 1_555 1_555
H18_6 C12_6 1_555 1_555
O26 Co1_6 1_555 1_555
O18_6 Co3_6 1_555 1_555
H25_6 O18_6 1_555 1_555
C15_6 O18_6 1_555 1_555
H26_6 C15_6 1_555 1_555
H27_6 C15_6 1_555 1_555
C16_6 C15_6 1_555 1_555
H28_6 C16_6 1_555 1_555
H29_6 C16_6 1_555 1_555
H30_6 C16_6 1_555 1_555
Co5_6 O6_6 1_555 1_555
O19_6 Co4_6 1_555 1_555
O23_6 Co3_6 1_555 1_555
H32_6 O23_6 1_555 1_555
O24_6 Co3_6 1_555 1_555
H33_6 O24_6 1_555 1_555
O25_6 Co3_6 1_555 1_555
Co4_6 O5_6 1_555 1_555
Co4_6 O9_6 1_555 1_555
Co4_6 O24_6 1_555 1_555
S2_6 O10_6 1_555 1_555
O16_6 Co8 1_555 1_555
Co5_6 O23_6 1_555 1_555
Co5_6 O24_6 1_555 1_555
Co6_3 O3_7 1_555 1_555
Co4_7 O1_7 1_555 1_555
O1_7 C1_7 1_555 1_555
O2_7 C1_7 1_555 1_555
O3_7 C2_7 1_555 1_555
O4_7 C2_7 1_555 1_555
C1_7 C3_7 1_555 1_555
C2_7 C7_7 1_555 1_555
C3_7 C4_7 1_555 1_555
C4_7 H1_7 1_555 1_555
C5_7 C4_7 1_555 1_555
H2_7 C5_7 1_555 1_555
C6_7 C5_7 1_555 1_555
H3_7 C6_7 1_555 1_555
C7_7 C6_7 1_555 1_555
C8_7 C3_7 1_555 1_555
H4_7 C8_7 1_555 1_555
O14_7 Co6_3 1_555 1_555
S3_7 O15_7 1_555 1_555
O15_7 Co4_7 1_555 1_555
C9_7 S3_7 1_555 1_555
H7_7 C9_7 1_555 1_555
H8_7 C9_7 1_555 1_555
H9_7 C9_7 1_555 1_555
C10_7 S3_7 1_555 1_555
H10_7 C10_7 1_555 1_555
H11_7 C10_7 1_555 1_555
H12_7 C10_7 1_555 1_555
C13_7 S5_7 1_555 1_555
H19_7 C13_7 1_555 1_555
H20_7 C13_7 1_555 1_555
H21_7 C13_7 1_555 1_555
C14_7 S5_7 1_555 1_555
H22_7 C14_7 1_555 1_555
H23_7 C14_7 1_555 1_555
H24_7 C14_7 1_555 1_555
Co9_7 O4_7 1_555 1_555
O19_7 Co4_7 1_555 1_555
O20_7 Co6_3 1_555 1_555
C7_7 C8_7 1_555 1_555
O14_7 Co9_7 1_555 1_555
Co3_7 O8_7 1_555 1_555
S1_7 O5_7 1_555 1_555
O5_7 Co1_7 1_555 1_555
O6_7 S1_7 1_555 1_555
O7_7 S1_7 1_555 1_555
O8_7 S1_7 1_555 1_555
S2_7 O9_7 1_555 1_555
O9_7 Co1_7 1_555 1_555
O10_7 Co3_7 1_555 1_555
O21_5 S2_7 1_555 1_555
O22_5 Co1_7 1_555 1_555
S4_7 O16_7 1_555 1_555
O16_7 Co1_7 1_555 1_555
C11_7 S4_7 1_555 1_555
H13_7 C11_7 1_555 1_555
H14_7 C11_7 1_555 1_555
H15_7 C11_7 1_555 1_555
C12_7 S4_7 1_555 1_555
H16_7 C12_7 1_555 1_555
H17_7 C12_7 1_555 1_555
H18_7 C12_7 1_555 1_555
O26_5 Co1_7 1_555 1_555
O18_7 Co3_7 1_555 1_555
H25_7 O18_7 1_555 1_555
C15_7 O18_7 1_555 1_555
H26_7 C15_7 1_555 1_555
H27_7 C15_7 1_555 1_555
C16_7 C15_7 1_555 1_555
H28_7 C16_7 1_555 1_555
H29_7 C16_7 1_555 1_555
H30_7 C16_7 1_555 1_555
Co5_7 O6_7 1_555 1_555
O23_7 Co3_7 1_555 1_555
H32_7 O23_7 1_555 1_555
O24_7 Co3_7 1_555 1_555
H33_7 O24_7 1_555 1_555
O25_7 Co3_7 1_555 1_555
S2_7 O10_7 1_555 1_555
O16_7 Co8_5 1_555 1_555
Co5_7 O23_7 1_555 1_555
Co5_7 O24_7 1_555 1_555
Co3_8 O8_8 1_555 1_555
S1_8 O5_8 1_555 1_555
O5_8 Co1_8 1_555 1_555
O6_8 S1_8 1_555 1_555
O7_8 S1_8 1_555 1_555
O8_8 S1_8 1_555 1_555
S2_8 O9_8 1_555 1_555
O9_8 Co1_8 1_555 1_555
O10_8 Co3_8 1_555 1_555
O21_6 S2_8 1_555 1_555
O22_6 Co1_8 1_555 1_555
S4_8 O16_8 1_555 1_555
O16_8 Co1_8 1_555 1_555
C11_8 S4_8 1_555 1_555
H13_8 C11_8 1_555 1_555
H14_8 C11_8 1_555 1_555
H15_8 C11_8 1_555 1_555
C12_8 S4_8 1_555 1_555
H16_8 C12_8 1_555 1_555
H17_8 C12_8 1_555 1_555
H18_8 C12_8 1_555 1_555
O26_6 Co1_8 1_555 1_555
O18_8 Co3_8 1_555 1_555
H25_8 O18_8 1_555 1_555
C15_8 O18_8 1_555 1_555
H26_8 C15_8 1_555 1_555
H27_8 C15_8 1_555 1_555
C16_8 C15_8 1_555 1_555
H28_8 C16_8 1_555 1_555
H29_8 C16_8 1_555 1_555
H30_8 C16_8 1_555 1_555
Co5_8 O6_8 1_555 1_555
O23_8 Co3_8 1_555 1_555
H32_8 O23_8 1_555 1_555
O24_8 Co3_8 1_555 1_555
H33_8 O24_8 1_555 1_555
O25_8 Co3_8 1_555 1_555
S2_8 O10_8 1_555 1_555
O16_8 Co8_6 1_555 1_555
Co5_8 O23_8 1_555 1_555
Co5_8 O24_8 1_555 1_555
Co6 O3_8 1_555 1_555
Co4_8 O1_8 1_555 1_555
O1_8 C1_8 1_555 1_555
O2_8 C1_8 1_555 1_555
O3_8 C2_8 1_555 1_555
O4_8 C2_8 1_555 1_555
C1_8 C3_8 1_555 1_555
C2_8 C7_8 1_555 1_555
C3_8 C4_8 1_555 1_555
C4_8 H1_8 1_555 1_555
C5_8 C4_8 1_555 1_555
H2_8 C5_8 1_555 1_555
C6_8 C5_8 1_555 1_555
H3_8 C6_8 1_555 1_555
C7_8 C6_8 1_555 1_555
C8_8 C3_8 1_555 1_555
H4_8 C8_8 1_555 1_555
O14_8 Co6 1_555 1_555
S3_8 O15_8 1_555 1_555
O15_8 Co4_8 1_555 1_555
C9_8 S3_8 1_555 1_555
H7_8 C9_8 1_555 1_555
H8_8 C9_8 1_555 1_555
H9_8 C9_8 1_555 1_555
C10_8 S3_8 1_555 1_555
H10_8 C10_8 1_555 1_555
H11_8 C10_8 1_555 1_555
H12_8 C10_8 1_555 1_555
C13_8 S5_8 1_555 1_555
H19_8 C13_8 1_555 1_555
H20_8 C13_8 1_555 1_555
H21_8 C13_8 1_555 1_555
C14_8 S5_8 1_555 1_555
H22_8 C14_8 1_555 1_555
H23_8 C14_8 1_555 1_555
H24_8 C14_8 1_555 1_555
Co9_8 O4_8 1_555 1_555
O19_8 Co4_8 1_555 1_555
O20_8 Co6 1_555 1_555
C7_8 C8_8 1_555 1_555
O14_8 Co9_8 1_555 1_555
Co1_9 O2_9 1_555 1_555
Co6_2 O3_9 1_555 1_555
Co3_9 O8_9 1_555 1_555
Co4_9 O1_9 1_555 1_555
O1_9 C1_9 1_555 1_555
O2_9 C1_9 1_555 1_555
O3_9 C2_9 1_555 1_555
O4_9 C2_9 1_555 1_555
C1_9 C3_9 1_555 1_555
C2_9 C7_9 1_555 1_555
C3_9 C4_9 1_555 1_555
C4_9 H1_9 1_555 1_555
C5_9 C4_9 1_555 1_555
H2_9 C5_9 1_555 1_555
C6_9 C5_9 1_555 1_555
H3_9 C6_9 1_555 1_555
C7_9 C6_9 1_555 1_555
C8_9 C3_9 1_555 1_555
H4_9 C8_9 1_555 1_555
S1_9 O5_9 1_555 1_555
O5_9 Co1_9 1_555 1_555
O6_9 S1_9 1_555 1_555
O7_9 S1_9 1_555 1_555
O8_9 S1_9 1_555 1_555
S2_9 O9_9 1_555 1_555
O9_9 Co1_9 1_555 1_555
O10_9 Co3_9 1_555 1_555
O21_4 S2_9 1_555 1_555
O12_9 S2_9 1_555 1_555
O22_4 Co1_9 1_555 1_555
O14_9 Co6_2 1_555 1_555
S3_9 O15_9 1_555 1_555
O15_9 Co4_9 1_555 1_555
C9_9 S3_9 1_555 1_555
H7_9 C9_9 1_555 1_555
H8_9 C9_9 1_555 1_555
H9_9 C9_9 1_555 1_555
C10_9 S3_9 1_555 1_555
H10_9 C10_9 1_555 1_555
H11_9 C10_9 1_555 1_555
H12_9 C10_9 1_555 1_555
S4_9 O16_9 1_555 1_555
O16_9 Co1_9 1_555 1_555
C11_9 S4_9 1_555 1_555
H13_9 C11_9 1_555 1_555
H14_9 C11_9 1_555 1_555
H15_9 C11_9 1_555 1_555
C12_9 S4_9 1_555 1_555
H16_9 C12_9 1_555 1_555
H17_9 C12_9 1_555 1_555
H18_9 C12_9 1_555 1_555
S5_9 O26_4 1_555 1_555
O26_4 Co1_9 1_555 1_555
C13_9 S5_9 1_555 1_555
H19_9 C13_9 1_555 1_555
H20_9 C13_9 1_555 1_555
H21_9 C13_9 1_555 1_555
C14_9 S5_9 1_555 1_555
H22_9 C14_9 1_555 1_555
H23_9 C14_9 1_555 1_555
H24_9 C14_9 1_555 1_555
O18_9 Co3_9 1_555 1_555
H25_9 O18_9 1_555 1_555
C15_9 O18_9 1_555 1_555
H26_9 C15_9 1_555 1_555
H27_9 C15_9 1_555 1_555
C16_9 C15_9 1_555 1_555
H28_9 C16_9 1_555 1_555
H29_9 C16_9 1_555 1_555
H30_9 C16_9 1_555 1_555
Co5_9 O6_9 1_555 1_555
Co9_9 O4_9 1_555 1_555
O19_9 Co4_9 1_555 1_555
O20_9 Co6_2 1_555 1_555
O23_9 Co3_9 1_555 1_555
H32_9 O23_9 1_555 1_555
O24_9 Co3_9 1_555 1_555
H33_9 O24_9 1_555 1_555
O25_9 Co3_9 1_555 1_555
Co4_9 O5_9 1_555 1_555
Co4_9 O9_9 1_555 1_555
Co4_9 O24_9 1_555 1_555
C7_9 C8_9 1_555 1_555
S2_9 O10_9 1_555 1_555
O14_9 Co9_9 1_555 1_555
O16_9 Co8_4 1_555 1_555
Co5_9 O23_9 1_555 1_555
Co5_9 O24_9 1_555 1_555
H20_10 C13_10 1_555 1_555
H21_10 C13_10 1_555 1_555
O17_4 Co5_3 1_555 1_555
S4_10 O25_3 1_555 1_555
C11_10 S4_10 1_555 1_555
H13_10 C11_10 1_555 1_555
H14_10 C11_10 1_555 1_555
H15_10 C11_10 1_555 1_555
C12_10 S4_10 1_555 1_555
H16_10 C12_10 1_555 1_555
H17_10 C12_10 1_555 1_555
H18_10 C12_10 1_555 1_555
O21_7 Co5_8 1_555 1_555
O26_7 Co5_8 1_555 1_555
S2_10 O9_10 1_555 1_555
O10_10 Co7_2 1_555 1_555
O11_4 S2_10 1_555 1_555
O12_10 S2_10 1_555 1_555
S3_10 O15_10 1_555 1_555
C9_10 S3_10 1_555 1_555
H7_10 C9_10 1_555 1_555
H8_10 C9_10 1_555 1_555
H9_10 C9_10 1_555 1_555
C14_10 S5_10 1_555 1_555
H22_10 C14_10 1_555 1_555
H23_10 C14_10 1_555 1_555
H24_10 C14_10 1_555 1_555
O18_10 Co7_2 1_555 1_555
H25_10 O18_10 1_555 1_555
C15_10 O18_10 1_555 1_555
H26_10 C15_10 1_555 1_555
H27_10 C15_10 1_555 1_555
C16_10 C15_10 1_555 1_555
H29_10 C16_10 1_555 1_555
H30_10 C16_10 1_555 1_555
S2_10 O10_10 1_555 1_555
Co1_10 O2_10 1_555 1_555
Co9_9 O1_10 1_555 1_555
O1_10 C1_10 1_555 1_555
O2_10 C1_10 1_555 1_555
O3_10 C2_10 1_555 1_555
O19_8 C2_10 1_555 1_555
C1_10 C3_10 1_555 1_555
C2_10 C7_10 1_555 1_555
C3_10 C4_10 1_555 1_555
C4_10 H1_10 1_555 1_555
C5_10 C4_10 1_555 1_555
H2_10 C5_10 1_555 1_555
C6_10 C5_10 1_555 1_555
H3_10 C6_10 1_555 1_555
C7_10 C6_10 1_555 1_555
C8_10 C3_10 1_555 1_555
H4_10 C8_10 1_555 1_555
S1_10 O5_10 1_555 1_555
O5_10 Co1_10 1_555 1_555
O20_9 S1_10 1_555 1_555
O7_10 S1_10 1_555 1_555
O8_10 S1_10 1_555 1_555
H10_10 C10_10 1_555 1_555
H12_10 C10_10 1_555 1_555
Co9_9 O5_10 1_555 1_555
C7_10 C8_10 1_555 1_555
S2_11 O9_11 1_555 1_555
O10_11 Co7_3 1_555 1_555
O11_5 S2_11 1_555 1_555
O12_11 S2_11 1_555 1_555
S3_11 O15_11 1_555 1_555
C9_11 S3_11 1_555 1_555
H7_11 C9_11 1_555 1_555
H8_11 C9_11 1_555 1_555
H9_11 C9_11 1_555 1_555
S5_11 O17_5 1_555 1_555
C13_11 S5_11 1_555 1_555
H20_11 C13_11 1_555 1_555
H21_11 C13_11 1_555 1_555
C14_11 S5_11 1_555 1_555
H22_11 C14_11 1_555 1_555
H23_11 C14_11 1_555 1_555
H24_11 C14_11 1_555 1_555
O18_11 Co7_3 1_555 1_555
H25_11 O18_11 1_555 1_555
C15_11 O18_11 1_555 1_555
H26_11 C15_11 1_555 1_555
H27_11 C15_11 1_555 1_555
C16_11 C15_11 1_555 1_555
H28_11 C16_11 1_555 1_555
H29_11 C16_11 1_555 1_555
H30_11 C16_11 1_555 1_555
Co5 O11_5 1_555 1_555
S2_11 O10_11 1_555 1_555
O17_5 Co5 1_555 1_555
Co1_11 O2_11 1_555 1_555
Co5_9 O3_11 1_555 1_555
Co9_7 O1_11 1_555 1_555
O1_11 C1_11 1_555 1_555
O2_11 C1_11 1_555 1_555
O3_11 C2_11 1_555 1_555
O19_9 C2_11 1_555 1_555
C1_11 C3_11 1_555 1_555
C2_11 C7_11 1_555 1_555
C3_11 C4_11 1_555 1_555
C4_11 H1_11 1_555 1_555
C5_11 C4_11 1_555 1_555
H2_11 C5_11 1_555 1_555
C6_11 C5_11 1_555 1_555
H3_11 C6_11 1_555 1_555
C7_11 C6_11 1_555 1_555
C8_11 C3_11 1_555 1_555
H4_11 C8_11 1_555 1_555
S1_11 O5_11 1_555 1_555
O5_11 Co1_11 1_555 1_555
O20_7 S1_11 1_555 1_555
O7_11 S1_11 1_555 1_555
O8_11 S1_11 1_555 1_555
H10_11 C10_11 1_555 1_555
H12_11 C10_11 1_555 1_555
S4_11 O25 1_555 1_555
O25 Co1_11 1_555 1_555
C11_11 S4_11 1_555 1_555
H13_11 C11_11 1_555 1_555
H14_11 C11_11 1_555 1_555
H15_11 C11_11 1_555 1_555
C12_11 S4_11 1_555 1_555
H16_11 C12_11 1_555 1_555
H17_11 C12_11 1_555 1_555
H18_11 C12_11 1_555 1_555
O21_8 Co5_9 1_555 1_555
O26_8 Co5_9 1_555 1_555
Co9_7 O5_11 1_555 1_555
C7_11 C8_11 1_555 1_555
S2_12 O9_12 1_555 1_555
O10_12 Co7 1_555 1_555
O11_6 S2_12 1_555 1_555
O12_12 S2_12 1_555 1_555
S3_12 O15_12 1_555 1_555
C9_12 S3_12 1_555 1_555
H7_12 C9_12 1_555 1_555
H8_12 C9_12 1_555 1_555
H9_12 C9_12 1_555 1_555
C14_12 S5_12 1_555 1_555
H22_12 C14_12 1_555 1_555
H23_12 C14_12 1_555 1_555
H24_12 C14_12 1_555 1_555
O18_12 Co7 1_555 1_555
H25_12 O18_12 1_555 1_555
C15_12 O18_12 1_555 1_555
H26_12 C15_12 1_555 1_555
H27_12 C15_12 1_555 1_555
C16_12 C15_12 1_555 1_555
H29_12 C16_12 1_555 1_555
H30_12 C16_12 1_555 1_555
S2_12 O10_12 1_555 1_555
Co1_12 O2_12 1_555 1_555
Co9_8 O1_12 1_555 1_555
O1_12 C1_12 1_555 1_555
O2_12 C1_12 1_555 1_555
O3_12 C2_12 1_555 1_555
O19_7 C2_12 1_555 1_555
C1_12 C3_12 1_555 1_555
C2_12 C7_12 1_555 1_555
C3_12 C4_12 1_555 1_555
C4_12 H1_12 1_555 1_555
C5_12 C4_12 1_555 1_555
H2_12 C5_12 1_555 1_555
C6_12 C5_12 1_555 1_555
H3_12 C6_12 1_555 1_555
C7_12 C6_12 1_555 1_555
C8_12 C3_12 1_555 1_555
H4_12 C8_12 1_555 1_555
S1_12 O5_12 1_555 1_555
O5_12 Co1_12 1_555 1_555
O20_8 S1_12 1_555 1_555
O7_12 S1_12 1_555 1_555
O8_12 S1_12 1_555 1_555
H10_12 C10_12 1_555 1_555
H12_12 C10_12 1_555 1_555
Co9_8 O5_12 1_555 1_555
C7_12 C8_12 1_555 1_555
H20_12 C13_12 1_555 1_555
H21_12 C13_12 1_555 1_555
O17_6 Co5_2 1_555 1_555
S4_12 O25_2 1_555 1_555
C11_12 S4_12 1_555 1_555
H13_12 C11_12 1_555 1_555
H14_12 C11_12 1_555 1_555
H15_12 C11_12 1_555 1_555
C12_12 S4_12 1_555 1_555
H16_12 C12_12 1_555 1_555
H17_12 C12_12 1_555 1_555
H18_12 C12_12 1_555 1_555
O21_9 Co5_7 1_555 1_555
O26_9 Co5_7 1_555 1_555
Co1_13 O2_13 1_555 1_555
Co5_5 O3_13 1_555 1_555
Co8_6 O8_13 1_555 1_555
Co9_6 O1_13 1_555 1_555
O1_13 C1_13 1_555 1_555
O2_13 C1_13 1_555 1_555
O3_13 C2_13 1_555 1_555
O19_5 C2_13 1_555 1_555
C1_13 C3_13 1_555 1_555
C2_13 C7_13 1_555 1_555
C3_13 C4_13 1_555 1_555
C4_13 H1_13 1_555 1_555
C5_13 C4_13 1_555 1_555
H2_13 C5_13 1_555 1_555
C6_13 C5_13 1_555 1_555
H3_13 C6_13 1_555 1_555
C7_13 C6_13 1_555 1_555
C8_13 C3_13 1_555 1_555
H4_13 C8_13 1_555 1_555
S1_13 O5_13 1_555 1_555
O5_13 Co1_13 1_555 1_555
O20_6 S1_13 1_555 1_555
O7_13 S1_13 1_555 1_555
O8_13 S1_13 1_555 1_555
S2_13 O9_13 1_555 1_555
O9_13 Co1_13 1_555 1_555
O10_13 Co8_6 1_555 1_555
O21_8 S2_13 1_555 1_555
O12_13 S2_13 1_555 1_555
O23_9 Co1_13 1_555 1_555
S3_13 O15_13 1_555 1_555
O15_13 Co9_6 1_555 1_555
C9_13 S3_13 1_555 1_555
H7_13 C9_13 1_555 1_555
H8_13 C9_13 1_555 1_555
H9_13 C9_13 1_555 1_555
C10_13 S3_13 1_555 1_555
H10_13 C10_13 1_555 1_555
H11_13 C10_13 1_555 1_555
H12_13 C10_13 1_555 1_555
S4_13 O25_9 1_555 1_555
O25_9 Co1_13 1_555 1_555
C11_13 S4_13 1_555 1_555
H13_13 C11_13 1_555 1_555
H14_13 C11_13 1_555 1_555
H15_13 C11_13 1_555 1_555
C12_13 S4_13 1_555 1_555
H16_13 C12_13 1_555 1_555
H17_13 C12_13 1_555 1_555
H18_13 C12_13 1_555 1_555
S5_13 O26_8 1_555 1_555
O26_8 Co1_13 1_555 1_555
C13_13 S5_13 1_555 1_555
H19_13 C13_13 1_555 1_555
H20_13 C13_13 1_555 1_555
H21_13 C13_13 1_555 1_555
C14_13 S5_13 1_555 1_555
H22_13 C14_13 1_555 1_555
H23_13 C14_13 1_555 1_555
H24_13 C14_13 1_555 1_555
O18_13 Co8_6 1_555 1_555
H25_13 O18_13 1_555 1_555
C15_13 O18_13 1_555 1_555
H26_13 C15_13 1_555 1_555
H27_13 C15_13 1_555 1_555
C16_13 C15_13 1_555 1_555
H28_13 C16_13 1_555 1_555
H29_13 C16_13 1_555 1_555
H30_13 C16_13 1_555 1_555
O21_10 Co5_5 1_555 1_555
O26_10 Co5_5 1_555 1_555
Co9_6 O5_13 1_555 1_555
Co9_6 O9_13 1_555 1_555
C7_13 C8_13 1_555 1_555
S2_13 O10_13 1_555 1_555
Co5_6 O3_14 1_555 1_555
O3_14 C2_14 1_555 1_555
O19_6 C2_14 1_555 1_555
C2_14 C7_14 1_555 1_555
H3_14 C6_14 1_555 1_555
C7_14 C6_14 1_555 1_555
H4_14 C8_14 1_555 1_555
H13_14 C11_14 1_555 1_555
H14_14 C11_14 1_555 1_555
H15_14 C11_14 1_555 1_555
C13_14 S5_14 1_555 1_555
H19_14 C13_14 1_555 1_555
H20_14 C13_14 1_555 1_555
H21_14 C13_14 1_555 1_555
C14_14 S5_14 1_555 1_555
H23_14 C14_14 1_555 1_555
H24_14 C14_14 1_555 1_555
O21_11 Co5_6 1_555 1_555
O26_11 Co5_6 1_555 1_555
C7_14 C8_14 1_555 1_555
Co1_14 O2_14 1_555 1_555
Co8_4 O8_14 1_555 1_555
Co9_4 O1_14 1_555 1_555
O1_14 C1_14 1_555 1_555
O2_14 C1_14 1_555 1_555
C1_14 C3_14 1_555 1_555
C3_14 C4_14 1_555 1_555
C4_14 H1_14 1_555 1_555
C5_14 C4_14 1_555 1_555
H2_14 C5_14 1_555 1_555
S1_14 O5_14 1_555 1_555
O5_14 Co1_14 1_555 1_555
O20_4 S1_14 1_555 1_555
O7_14 S1_14 1_555 1_555
O8_14 S1_14 1_555 1_555
S2_14 O9_14 1_555 1_555
O9_14 Co1_14 1_555 1_555
O10_14 Co8_4 1_555 1_555
O21_9 S2_14 1_555 1_555
O12_14 S2_14 1_555 1_555
O23_7 Co1_14 1_555 1_555
S3_14 O15_14 1_555 1_555
O15_14 Co9_4 1_555 1_555
C9_14 S3_14 1_555 1_555
H7_14 C9_14 1_555 1_555
H8_14 C9_14 1_555 1_555
H9_14 C9_14 1_555 1_555
C10_14 S3_14 1_555 1_555
H10_14 C10_14 1_555 1_555
H11_14 C10_14 1_555 1_555
H12_14 C10_14 1_555 1_555
S4_14 O25_7 1_555 1_555
O25_7 Co1_14 1_555 1_555
C12_14 S4_14 1_555 1_555
H16_14 C12_14 1_555 1_555
H17_14 C12_14 1_555 1_555
H18_14 C12_14 1_555 1_555
O26_9 Co1_14 1_555 1_555
O18_14 Co8_4 1_555 1_555
H25_14 O18_14 1_555 1_555
C15_14 O18_14 1_555 1_555
H26_14 C15_14 1_555 1_555
H27_14 C15_14 1_555 1_555
C16_14 C15_14 1_555 1_555
H28_14 C16_14 1_555 1_555
H29_14 C16_14 1_555 1_555
H30_14 C16_14 1_555 1_555
Co9_4 O5_14 1_555 1_555
Co9_4 O9_14 1_555 1_555
S2_14 O10_14 1_555 1_555
Co1_15 O2_15 1_555 1_555
Co8_5 O8_15 1_555 1_555
Co9_5 O1_15 1_555 1_555
O1_15 C1_15 1_555 1_555
O2_15 C1_15 1_555 1_555
C1_15 C3_15 1_555 1_555
C3_15 C4_15 1_555 1_555
C4_15 H1_15 1_555 1_555
C5_15 C4_15 1_555 1_555
H2_15 C5_15 1_555 1_555
S1_15 O5_15 1_555 1_555
O5_15 Co1_15 1_555 1_555
O20_5 S1_15 1_555 1_555
O7_15 S1_15 1_555 1_555
O8_15 S1_15 1_555 1_555
S2_15 O9_15 1_555 1_555
O9_15 Co1_15 1_555 1_555
O10_15 Co8_5 1_555 1_555
O21_7 S2_15 1_555 1_555
O12_15 S2_15 1_555 1_555
O23_8 Co1_15 1_555 1_555
S3_15 O15_15 1_555 1_555
O15_15 Co9_5 1_555 1_555
C9_15 S3_15 1_555 1_555
H7_15 C9_15 1_555 1_555
H8_15 C9_15 1_555 1_555
H9_15 C9_15 1_555 1_555
C10_15 S3_15 1_555 1_555
H10_15 C10_15 1_555 1_555
H11_15 C10_15 1_555 1_555
H12_15 C10_15 1_555 1_555
S4_15 O25_8 1_555 1_555
O25_8 Co1_15 1_555 1_555
C12_15 S4_15 1_555 1_555
H16_15 C12_15 1_555 1_555
H17_15 C12_15 1_555 1_555
H18_15 C12_15 1_555 1_555
O26_7 Co1_15 1_555 1_555
O18_15 Co8_5 1_555 1_555
H25_15 O18_15 1_555 1_555
C15_15 O18_15 1_555 1_555
H26_15 C15_15 1_555 1_555
H27_15 C15_15 1_555 1_555
C16_15 C15_15 1_555 1_555
H28_15 C16_15 1_555 1_555
H29_15 C16_15 1_555 1_555
H30_15 C16_15 1_555 1_555
Co9_5 O5_15 1_555 1_555
Co9_5 O9_15 1_555 1_555
S2_15 O10_15 1_555 1_555
Co5_4 O3_15 1_555 1_555
O3_15 C2_15 1_555 1_555
O19_4 C2_15 1_555 1_555
C2_15 C7_15 1_555 1_555
H3_15 C6_15 1_555 1_555
C7_15 C6_15 1_555 1_555
H4_15 C8_15 1_555 1_555
H13_15 C11_15 1_555 1_555
H14_15 C11_15 1_555 1_555
H15_15 C11_15 1_555 1_555
C13_15 S5_15 1_555 1_555
H19_15 C13_15 1_555 1_555
H20_15 C13_15 1_555 1_555
H21_15 C13_15 1_555 1_555
C14_15 S5_15 1_555 1_555
H23_15 C14_15 1_555 1_555
H24_15 C14_15 1_555 1_555
O21_12 Co5_4 1_555 1_555
O26_12 Co5_4 1_555 1_555
C7_15 C8_15 1_555 1_555
Co8_3 O8_16 1_555 1_555
S1_16 O5_16 1_555 1_555
O5_16 Co1_16 1_555 1_555
O20_3 S1_16 1_555 1_555
O7_16 S1_16 1_555 1_555
O8_16 S1_16 1_555 1_555
S2_16 O9_16 1_555 1_555
O9_16 Co1_16 1_555 1_555
O10_16 Co8_3 1_555 1_555
O21_11 S2_16 1_555 1_555
O23_6 Co1_16 1_555 1_555
S4_16 O25_6 1_555 1_555
O25_6 Co1_16 1_555 1_555
C11_16 S4_16 1_555 1_555
H13_16 C11_16 1_555 1_555
H14_16 C11_16 1_555 1_555
H15_16 C11_16 1_555 1_555
C12_16 S4_16 1_555 1_555
H16_16 C12_16 1_555 1_555
H17_16 C12_16 1_555 1_555
H18_16 C12_16 1_555 1_555
O26_11 Co1_16 1_555 1_555
O18_16 Co8_3 1_555 1_555
H25_16 O18_16 1_555 1_555
C15_16 O18_16 1_555 1_555
H26_16 C15_16 1_555 1_555
H27_16 C15_16 1_555 1_555
C16_16 C15_16 1_555 1_555
H28_16 C16_16 1_555 1_555
H29_16 C16_16 1_555 1_555
H30_16 C16_16 1_555 1_555
S2_16 O10_16 1_555 1_555
Co5_2 O3_16 1_555 1_555
Co9_3 O1_16 1_555 1_555
O1_16 C1_16 1_555 1_555
O2_16 C1_16 1_555 1_555
O3_16 C2_16 1_555 1_555
O19_2 C2_16 1_555 1_555
C1_16 C3_16 1_555 1_555
C2_16 C7_16 1_555 1_555
C3_16 C4_16 1_555 1_555
C4_16 H1_16 1_555 1_555
C5_16 C4_16 1_555 1_555
H2_16 C5_16 1_555 1_555
C6_16 C5_16 1_555 1_555
H3_16 C6_16 1_555 1_555
C7_16 C6_16 1_555 1_555
C8_16 C3_16 1_555 1_555
H4_16 C8_16 1_555 1_555
S3_16 O15_16 1_555 1_555
O15_16 Co9_3 1_555 1_555
C9_16 S3_16 1_555 1_555
H7_16 C9_16 1_555 1_555
H8_16 C9_16 1_555 1_555
H9_16 C9_16 1_555 1_555
C10_16 S3_16 1_555 1_555
H10_16 C10_16 1_555 1_555
H11_16 C10_16 1_555 1_555
H12_16 C10_16 1_555 1_555
C13_16 S5_16 1_555 1_555
H19_16 C13_16 1_555 1_555
H20_16 C13_16 1_555 1_555
H21_16 C13_16 1_555 1_555
C14_16 S5_16 1_555 1_555
H22_16 C14_16 1_555 1_555
H23_16 C14_16 1_555 1_555
H24_16 C14_16 1_555 1_555
C7_16 C8_16 1_555 1_555
Co5_3 O3_17 1_555 1_555
Co9 O1_17 1_555 1_555
O1_17 C1_17 1_555 1_555
O2_17 C1_17 1_555 1_555
O3_17 C2_17 1_555 1_555
O19_3 C2_17 1_555 1_555
C1_17 C3_17 1_555 1_555
C2_17 C7_17 1_555 1_555
C3_17 C4_17 1_555 1_555
C4_17 H1_17 1_555 1_555
C5_17 C4_17 1_555 1_555
H2_17 C5_17 1_555 1_555
C6_17 C5_17 1_555 1_555
H3_17 C6_17 1_555 1_555
C7_17 C6_17 1_555 1_555
C8_17 C3_17 1_555 1_555
H4_17 C8_17 1_555 1_555
S3_17 O15_17 1_555 1_555
O15_17 Co9 1_555 1_555
C9_17 S3_17 1_555 1_555
H7_17 C9_17 1_555 1_555
H8_17 C9_17 1_555 1_555
H9_17 C9_17 1_555 1_555
C10_17 S3_17 1_555 1_555
H10_17 C10_17 1_555 1_555
H11_17 C10_17 1_555 1_555
H12_17 C10_17 1_555 1_555
C13_17 S5_17 1_555 1_555
H19_17 C13_17 1_555 1_555
H20_17 C13_17 1_555 1_555
H21_17 C13_17 1_555 1_555
C14_17 S5_17 1_555 1_555
H22_17 C14_17 1_555 1_555
H23_17 C14_17 1_555 1_555
H24_17 C14_17 1_555 1_555
C7_17 C8_17 1_555 1_555
Co8 O8_17 1_555 1_555
S1_17 O5_17 1_555 1_555
O5_17 Co1_17 1_555 1_555
O20 S1_17 1_555 1_555
O7_17 S1_17 1_555 1_555
O8_17 S1_17 1_555 1_555
S2_17 O9_17 1_555 1_555
O9_17 Co1_17 1_555 1_555
O10_17 Co8 1_555 1_555
O21_12 S2_17 1_555 1_555
O23_4 Co1_17 1_555 1_555
S4_17 O25_4 1_555 1_555
O25_4 Co1_17 1_555 1_555
C11_17 S4_17 1_555 1_555
H13_17 C11_17 1_555 1_555
H14_17 C11_17 1_555 1_555
H15_17 C11_17 1_555 1_555
C12_17 S4_17 1_555 1_555
H16_17 C12_17 1_555 1_555
H17_17 C12_17 1_555 1_555
H18_17 C12_17 1_555 1_555
O26_12 Co1_17 1_555 1_555
O18_17 Co8 1_555 1_555
H25_17 O18_17 1_555 1_555
C15_17 O18_17 1_555 1_555
H26_17 C15_17 1_555 1_555
H27_17 C15_17 1_555 1_555
C16_17 C15_17 1_555 1_555
H28_17 C16_17 1_555 1_555
H29_17 C16_17 1_555 1_555
H30_17 C16_17 1_555 1_555
S2_17 O10_17 1_555 1_555
Co1_18 O2_18 1_555 1_555
Co5 O3_18 1_555 1_555
Co8_2 O8_18 1_555 1_555
Co9_2 O1_18 1_555 1_555
O1_18 C1_18 1_555 1_555
O2_18 C1_18 1_555 1_555
O3_18 C2_18 1_555 1_555
O19 C2_18 1_555 1_555
C1_18 C3_18 1_555 1_555
C2_18 C7_18 1_555 1_555
C3_18 C4_18 1_555 1_555
C4_18 H1_18 1_555 1_555
C5_18 C4_18 1_555 1_555
H2_18 C5_18 1_555 1_555
C6_18 C5_18 1_555 1_555
H3_18 C6_18 1_555 1_555
C7_18 C6_18 1_555 1_555
C8_18 C3_18 1_555 1_555
H4_18 C8_18 1_555 1_555
S1_18 O5_18 1_555 1_555
O5_18 Co1_18 1_555 1_555
O20_2 S1_18 1_555 1_555
O7_18 S1_18 1_555 1_555
O8_18 S1_18 1_555 1_555
S2_18 O9_18 1_555 1_555
O9_18 Co1_18 1_555 1_555
O10_18 Co8_2 1_555 1_555
O21_10 S2_18 1_555 1_555
O12_18 S2_18 1_555 1_555
O23_5 Co1_18 1_555 1_555
S3_18 O15_18 1_555 1_555
O15_18 Co9_2 1_555 1_555
C9_18 S3_18 1_555 1_555
H7_18 C9_18 1_555 1_555
H8_18 C9_18 1_555 1_555
H9_18 C9_18 1_555 1_555
C10_18 S3_18 1_555 1_555
H10_18 C10_18 1_555 1_555
H11_18 C10_18 1_555 1_555
H12_18 C10_18 1_555 1_555
S4_18 O25_5 1_555 1_555
O25_5 Co1_18 1_555 1_555
C11_18 S4_18 1_555 1_555
H13_18 C11_18 1_555 1_555
H14_18 C11_18 1_555 1_555
H15_18 C11_18 1_555 1_555
C12_18 S4_18 1_555 1_555
H16_18 C12_18 1_555 1_555
H17_18 C12_18 1_555 1_555
H18_18 C12_18 1_555 1_555
S5_18 O26_10 1_555 1_555
O26_10 Co1_18 1_555 1_555
C13_18 S5_18 1_555 1_555
H19_18 C13_18 1_555 1_555
H20_18 C13_18 1_555 1_555
H21_18 C13_18 1_555 1_555
C14_18 S5_18 1_555 1_555
H22_18 C14_18 1_555 1_555
H23_18 C14_18 1_555 1_555
H24_18 C14_18 1_555 1_555
O18_18 Co8_2 1_555 1_555
H25_18 O18_18 1_555 1_555
C15_18 O18_18 1_555 1_555
H26_18 C15_18 1_555 1_555
H27_18 C15_18 1_555 1_555
C16_18 C15_18 1_555 1_555
H28_18 C16_18 1_555 1_555
H29_18 C16_18 1_555 1_555
H30_18 C16_18 1_555 1_555
Co9_2 O5_18 1_555 1_555
Co9_2 O9_18 1_555 1_555
C7_18 C8_18 1_555 1_555
S2_18 O10_18 1_555 1_555

#END
