
###############################################################################
#
# This file contains modified crystal structure data generated from the
# MOF subset of the Cambridge Structural Database (CSD) v543 
# hosted by the Cambridge Crystallographic Data Centre (CCDC).
#
# This work is licensed under the Creative Commons
# Attribution-NonCommercial-ShareAlike 4.0 International License.
# To view a copy of this license, visit
# http://creativecommons.org/licenses/by-nc-sa/4.0/
# or send a letter to
# Creative Commons, PO Box 1866, Mountain View, CA 94042, USA.
#
# CIF created using the CSD Python API on 29 September 2022
# The structure has been converted into the P1 space group
# The structure has a 3D framework
# The original CSD entry GEDDEA is in the rhombohedral crystal system
# The framework has been calculated to contain at least 10.0% void space
# The void calculation uses a probe of radius 1.32A, grid spacing 0.4
# H atom positions have been added when not included in the experimental data
#
###############################################################################

data_GEDDEA
_chemical_formula_moiety         '(C216 H391 Ni70 O315 S72)n'
_symmetry_cell_setting           triclinic
_symmetry_space_group_name_H-M   'P 1'
_symmetry_Int_Tables_number      1
_space_group_name_Hall           'P 1'
loop_
_symmetry_equiv_pos_site_id
_symmetry_equiv_pos_as_xyz
1 x,y,z
_cell_length_a                   26.907(2)
_cell_length_b                   26.907(2)
_cell_length_c                   28.712(4)
_cell_angle_alpha                90
_cell_angle_beta                 90
_cell_angle_gamma                120
_cell_volume                     18002.2
loop_
_atom_site_label
_atom_site_type_symbol
_atom_site_fract_x
_atom_site_fract_y
_atom_site_fract_z
Ni1 Ni 0.04888(7) 0.42780(7) 0.20472(6)
Ni3 Ni 0.17342(7) 0.43923(7) 0.19680(6)
O5 O 0.1194(3) 0.4581(3) 0.16367(18)
H5 H 0.1355 0.4978 0.1509
O7 O 0.2175(3) 0.5150(3) 0.2303(2)
S1 S 0.11067(10) 0.55799(11) 0.23756(9)
O9 O 0.0983(3) 0.6029(3) 0.2548(2)
O10 O 0.1382(3) 0.5734(3) 0.1898(3)
O11 O 0.0559(3) 0.5024(3) 0.2336(2)
O12 O 0.1490(3) 0.5511(3) 0.2698(3)
S2 S 0.03026(10) 0.46761(11) 0.10169(9)
O13 O 0.0078(3) 0.4507(3) 0.1500(3)
O14 O 0.0832(3) 0.5240(3) 0.1020(2)
O16 O 0.0433(3) 0.4241(3) 0.0835(2)
O17 O 0.0197(2) 0.3522(3) 0.16663(19)
S4 S 0.09149(14) 0.40106(14) 0.29884(12)
O18 O 0.1047(3) 0.4149(3) 0.2448(2)
C11 C 0.1571(11) 0.4216(11) 0.3218(12)
H13 H 0.1804 0.4636 0.3216
H14 H 0.1762 0.4055 0.3032
H15 H 0.1527 0.4076 0.3539
C12 C 0.0673(6) 0.3267(5) 0.3031(3)
H16 H 0.0276 0.3048 0.2920
H17 H 0.0691 0.3168 0.3356
H18 H 0.0917 0.3175 0.2840
Ni5 Ni 0.08808(7) 0.39120(10) 0.11680(6)
Ni6 Ni 0.05786(10) 0.63645(7) 0.21654(6)
Ni8 Ni 0.10590(7) 0.59914(10) 0.13653(6)
O20 O 0.0054(4) 0.2139(3) 0.49700(18)
H19 H 0.0290 0.1978 0.4842
O21 O 0.1265(3) 0.3638(4) 0.1618(2)
O22 O 0.0304(4) 0.5706(3) 0.1716(2)
H20 H 0.0953 0.3389 0.1841
H21 H 0.0055 0.5769 0.1493
O24 O 0.2315(4) 0.4715(3) 0.1435(3)
O25 O 0.2259(4) 0.4165(3) 0.2313(2)
O26 O 0.0475(4) 0.2900(3) 0.4168(2)
H22 H 0.190934 0.520872 0.250524
H23 H 0.247963 0.514862 0.249728
Ni2 Ni 0.96978(7) 0.24525(7) 0.45013(6)
Ni4 Ni 0.97988(7) 0.49078(7) 0.19492(6)
O1 O 0.9247(3) 0.4105(3) 0.2217(3)
O2 O 0.9887(3) 0.3874(3) 0.2515(2)
O3 O 0.9414(3) 0.2832(3) 0.4065(2)
O4 O 0.8479(3) 0.2360(3) 0.4223(3)
C1 C 0.9411(5) 0.3859(5) 0.2540(4)
C2 C 0.8915(4) 0.2734(4) 0.3991(3)
C3 C 0.9012(4) 0.3590(4) 0.2903(3)
C4 C 0.9158(4) 0.3305(4) 0.3272(4)
H1 H 0.9503 0.3290 0.3251
C5 C 0.8794(4) 0.3058(4) 0.3653(4)
C6 C 0.8288(5) 0.3087(6) 0.3689(4)
H2 H 0.8028 0.2897 0.3938
C7 C 0.8159(5) 0.3406(5) 0.3345(4)
H3 H 0.7840 0.3463 0.3383
C8 C 0.8520(5) 0.3625(4) 0.2962(4)
H4 H 0.8422 0.3808 0.2726
O6 O 0.9039(3) 0.2068(3) 0.4951(2)
H6 H 0.9102 0.2380 0.5174
O8 O 0.9182(4) 0.4818(3) 0.1483(3)
O15 O 0.9851(3) 0.4707(3) 0.0734(2)
S3 S 0.95568(13) 0.30582(13) 0.16628(13)
C9 C 0.9312(5) 0.3136(6) 0.1096(6)
H7 H 0.9300 0.3495 0.1086
H8 H 0.8927 0.2811 0.1038
H9 H 0.9576 0.3146 0.0856
C10 C 0.9572(6) 0.2402(6) 0.1609(6)
H10 H 0.9716 0.2328 0.1899
H11 H 0.9824 0.2434 0.1350
H12 H 0.9183 0.2085 0.1548
Ni7 Ni 0.93248(10) 0.15991(7) 0.53013(6)
Ni9 Ni 0.82411(7) 0.17757(10) 0.47175(6)
O19 O 0.9452(4) 0.5146(3) 0.2444(3)
O23 O 0.9362(3) 0.1713(4) 0.4119(2)
O27 O 0.9992(4) 0.3136(2) 0.49996(19)
H24 H 0.883776 0.476316 0.16547
H25 H 0.933388 0.516803 0.128694
Ni1_2 Ni 0.57220(7) 0.62108(10) 0.20472(6)
Ni2_2 Ni 0.75475(7) 0.72453(10) 0.45013(6)
Ni3_2 Ni 0.56077(7) 0.73419(10) 0.19680(6)
Ni4_2 Ni 0.50922(7) 0.48910(10) 0.19492(6)
O1_2 O 0.5895(3) 0.5142(4) 0.2217(3)
O2_2 O 0.6126(3) 0.6013(4) 0.2515(2)
O3_2 O 0.7168(3) 0.6582(4) 0.4065(2)
O4_2 O 0.7640(3) 0.6119(4) 0.4223(3)
C1_2 C 0.6141(5) 0.5552(7) 0.2540(4)
C2_2 C 0.7266(4) 0.6181(6) 0.3991(3)
C3_2 C 0.6410(4) 0.5422(6) 0.2903(3)
C4_2 C 0.6695(4) 0.5853(6) 0.3272(4)
H1_2 H 0.6710 0.6213 0.3251
C5_2 C 0.6942(4) 0.5736(6) 0.3653(4)
C6_2 C 0.6913(6) 0.5201(8) 0.3689(4)
H2_2 H 0.7103 0.5131 0.3938
C7_2 C 0.6594(5) 0.4753(7) 0.3345(4)
H3_2 H 0.6537 0.4377 0.3383
C8_2 C 0.6375(4) 0.4895(6) 0.2962(4)
H4_2 H 0.6192 0.4614 0.2726
O5_2 O 0.5419(3) 0.6613(4) 0.16367(18)
H5_2 H 0.5022 0.6377 0.1509
O6_2 O 0.7932(3) 0.6971(4) 0.4951(2)
H6_2 H 0.7620 0.6722 0.5174
O7_2 O 0.4850(3) 0.7025(4) 0.2303(2)
O8_2 O 0.5182(3) 0.4364(5) 0.1483(3)
S1_2 S 0.44201(11) 0.55268(15) 0.23756(9)
O9_2 O 0.3971(3) 0.4954(4) 0.2548(2)
O10_2 O 0.4266(3) 0.5648(4) 0.1898(3)
O11_2 O 0.4976(3) 0.5535(4) 0.2336(2)
O12_2 O 0.4489(3) 0.5979(4) 0.2698(3)
S2_2 S 0.53239(11) 0.56265(15) 0.10169(9)
O13_2 O 0.5493(3) 0.5571(4) 0.1500(3)
O14_2 O 0.4760(3) 0.5592(4) 0.1020(2)
O15_2 O 0.5293(3) 0.5144(4) 0.0734(2)
O16_2 O 0.5759(3) 0.6192(4) 0.0835(2)
S3_2 S 0.69418(13) 0.64986(18) 0.16628(13)
O17_2 O 0.6478(3) 0.6675(4) 0.16663(19)
C9_2 C 0.6864(6) 0.6176(8) 0.1096(6)
H7_2 H 0.6505 0.5805 0.1086
H8_2 H 0.7189 0.6116 0.1038
H9_2 H 0.6854 0.6430 0.0856
C10_2 C 0.7598(6) 0.7170(8) 0.1609(6)
H10_2 H 0.7672 0.7388 0.1899
H11_2 H 0.7566 0.7390 0.1350
H12_2 H 0.7915 0.7098 0.1548
S4_2 S 0.59894(14) 0.69043(20) 0.29884(12)
O18_2 O 0.5851(3) 0.6898(4) 0.2448(2)
C11_2 C 0.5784(11) 0.7355(16) 0.3218(12)
H13_2 H 0.5364 0.7168 0.3216
H14_2 H 0.5945 0.7707 0.3032
H15_2 H 0.5924 0.7451 0.3539
C12_2 C 0.6733(5) 0.7406(8) 0.3031(3)
H16_2 H 0.6952 0.7228 0.2920
H17_2 H 0.6832 0.7523 0.3356
H18_2 H 0.6825 0.7742 0.2840
Ni5_2 Ni 0.60880(10) 0.69689(12) 0.11680(6)
Ni6_2 Ni 0.36355(7) 0.42142(12) 0.21654(6)
Ni7_2 Ni 0.84009(7) 0.77256(12) 0.53013(6)
Ni8_2 Ni 0.40086(10) 0.50675(12) 0.13653(6)
Ni9_2 Ni 0.82243(10) 0.64655(12) 0.47175(6)
O19_2 O 0.4854(3) 0.4307(5) 0.2444(3)
O20_2 O 0.7861(3) 0.7914(5) 0.49700(18)
H19_2 H 0.8022 0.8311 0.4842
O21_2 O 0.6362(4) 0.7628(5) 0.1618(2)
O22_2 O 0.4294(3) 0.4599(5) 0.1716(2)
H20_2 H 0.6611 0.7565 0.1841
H21_2 H 0.4231 0.4287 0.1493
O23_2 O 0.8287(4) 0.7650(5) 0.4119(2)
O24_2 O 0.5285(3) 0.7599(5) 0.1435(3)
O25_2 O 0.5835(3) 0.8093(5) 0.2313(2)
O26_2 O 0.7100(3) 0.7574(5) 0.4168(2)
O27_2 O 0.6864(2) 0.6855(4) 0.49996(19)
H22_2 H 0.479128 0.670061 0.250524
H23_2 H 0.485138 0.733101 0.249728
H24_2 H 0.523684 0.40746 0.16547
H25_2 H 0.483197 0.416585 0.128694
Ni2_3 Ni 0.27547(10) 0.03022(7) 0.45013(6)
Ni4_3 Ni 0.51090(10) 0.02012(7) 0.19492(6)
O1_3 O 0.4858(4) 0.0753(3) 0.2217(3)
O2_3 O 0.3987(4) 0.0113(3) 0.2515(2)
O3_3 O 0.3418(4) 0.0586(3) 0.4065(2)
O4_3 O 0.3881(4) 0.1521(3) 0.4223(3)
C1_3 C 0.4448(7) 0.0589(5) 0.2540(4)
C2_3 C 0.3819(6) 0.1085(4) 0.3991(3)
C3_3 C 0.4578(6) 0.0988(4) 0.2903(3)
C4_3 C 0.4147(6) 0.0842(4) 0.3272(4)
H1_3 H 0.3787 0.0497 0.3251
C5_3 C 0.4264(6) 0.1206(4) 0.3653(4)
C6_3 C 0.4799(8) 0.1712(5) 0.3689(4)
H2_3 H 0.4869 0.1972 0.3938
C7_3 C 0.5247(7) 0.1841(5) 0.3345(4)
H3_3 H 0.5623 0.2160 0.3383
C8_3 C 0.5105(6) 0.1480(5) 0.2962(4)
H4_3 H 0.5386 0.1578 0.2726
O6_3 O 0.3029(4) 0.0961(3) 0.4951(2)
H6_3 H 0.3278 0.0898 0.5174
O8_3 O 0.5636(5) 0.0818(4) 0.1483(3)
O15_3 O 0.4856(4) 0.0149(3) 0.0734(2)
S3_3 S 0.35014(18) 0.04432(13) 0.16628(13)
C9_3 C 0.3824(8) 0.0688(5) 0.1096(6)
H7_3 H 0.4195 0.0700 0.1086
H8_3 H 0.3884 0.1073 0.1038
H9_3 H 0.3570 0.0424 0.0856
C10_3 C 0.2830(8) 0.0428(6) 0.1609(6)
H10_3 H 0.2612 0.0284 0.1899
H11_3 H 0.2610 0.0176 0.1350
H12_3 H 0.2902 0.0817 0.1548
Ni7_3 Ni 0.22744(12) 0.06752(10) 0.53013(6)
Ni9_3 Ni 0.35345(12) 0.17589(7) 0.47175(6)
O19_3 O 0.5693(5) 0.0548(4) 0.2444(3)
O23_3 O 0.2350(5) 0.0638(3) 0.4119(2)
O27_3 O 0.3145(4) 0.0008(4) 0.49996(19)
H24_3 H 0.59254 0.116224 0.16547
H25_3 H 0.583415 0.066612 0.128694
Ni1_3 Ni 0.37892(10) 0.95112(7) 0.20472(6)
Ni3_3 Ni 0.26581(10) 0.82658(7) 0.19680(6)
O5_3 O 0.3387(4) 0.8806(3) 0.16367(18)
H5_3 H 0.3623 0.8645 0.1509
O7_3 O 0.2975(4) 0.7825(3) 0.2303(2)
S1_3 S 0.44732(15) 0.88933(10) 0.23756(9)
O9_3 O 0.5046(4) 0.9017(3) 0.2548(2)
O10_3 O 0.4352(4) 0.8618(3) 0.1898(3)
O11_3 O 0.4465(4) 0.9441(3) 0.2336(2)
O12_3 O 0.4021(4) 0.8510(3) 0.2698(3)
S2_3 S 0.43735(15) 0.96974(10) 0.10169(9)
O13_3 O 0.4429(4) 0.9922(3) 0.1500(3)
O14_3 O 0.4408(4) 0.9168(3) 0.1020(2)
O16_3 O 0.3808(4) 0.9567(3) 0.0835(2)
O17_3 O 0.3325(4) 0.9803(2) 0.16663(19)
S4_3 S 0.30957(20) 0.90851(14) 0.29884(12)
O18_3 O 0.3102(4) 0.8953(3) 0.2448(2)
C11_3 C 0.2645(16) 0.8429(11) 0.3218(12)
H13_3 H 0.2832 0.8196 0.3216
H14_3 H 0.2293 0.8238 0.3032
H15_3 H 0.2549 0.8473 0.3539
C12_3 C 0.2594(8) 0.9327(6) 0.3031(3)
H16_3 H 0.2772 0.9724 0.2920
H17_3 H 0.2477 0.9309 0.3356
H18_3 H 0.2258 0.9083 0.2840
Ni5_3 Ni 0.30311(12) 0.91192(7) 0.11680(6)
Ni6_3 Ni 0.57858(12) 0.94214(10) 0.21654(6)
Ni8_3 Ni 0.49325(12) 0.89410(7) 0.13653(6)
O20_3 O 0.2086(5) 0.9946(4) 0.49700(18)
H19_3 H 0.1689 0.9710 0.4842
O21_3 O 0.2372(5) 0.8735(3) 0.1618(2)
O22_3 O 0.5401(5) 0.9696(4) 0.1716(2)
H20_3 H 0.2435 0.9047 0.1841
H21_3 H 0.5713 0.9945 0.1493
O24_3 O 0.2401(5) 0.7685(4) 0.1435(3)
O25_3 O 0.1907(5) 0.7741(4) 0.2313(2)
O26_3 O 0.2426(5) 0.9525(4) 0.4168(2)
H22_3 H 0.329939 0.809066 0.250524
H23_3 H 0.266899 0.752037 0.249728
Ni1_4 Ni 0.71555(7) 0.76113(7) 0.53805(6)
Ni2_4 Ni 0.63645(7) 0.57858(7) 0.78346(6)
Ni4_4 Ni 0.64655(7) 0.82411(7) 0.52825(6)
O1_4 O 0.5914(3) 0.7438(3) 0.5550(3)
O2_4 O 0.6554(3) 0.7207(3) 0.5848(2)
O3_4 O 0.6081(3) 0.6165(3) 0.7398(2)
O4_4 O 0.5146(3) 0.5693(3) 0.7556(3)
C1_4 C 0.6078(5) 0.7192(5) 0.5873(4)
C2_4 C 0.5582(4) 0.6067(4) 0.7324(3)
C3_4 C 0.5679(4) 0.6923(4) 0.6236(3)
C4_4 C 0.5825(4) 0.6638(4) 0.6605(4)
H1_4 H 0.6170 0.6623 0.6584
C5_4 C 0.5461(4) 0.6391(4) 0.6986(4)
C6_4 C 0.4955(5) 0.6420(6) 0.7022(4)
H2_4 H 0.4695 0.6230 0.7271
C7_4 C 0.4826(5) 0.6739(5) 0.6678(4)
H3_4 H 0.4507 0.6796 0.6716
C8_4 C 0.5187(5) 0.6958(4) 0.6295(4)
H4_4 H 0.5089 0.7141 0.6059
O6_4 O 0.5706(3) 0.5401(3) 0.8284(2)
H6_4 H 0.5769 0.5713 0.8507
O7_4 O 0.8842(3) 0.8483(3) 0.5636(2)
O8_4 O 0.5849(4) 0.8151(3) 0.4816(3)
S1_4 S 0.77734(10) 0.89132(11) 0.57089(9)
O9_4 O 0.7650(3) 0.9362(3) 0.5881(2)
O10_4 O 0.8049(3) 0.9067(3) 0.5231(3)
O11_4 O 0.7226(3) 0.8357(3) 0.5669(2)
O12_4 O 0.8157(3) 0.8844(3) 0.6031(3)
S2_4 S 0.69693(10) 0.80094(11) 0.43502(9)
O13_4 O 0.6745(3) 0.7840(3) 0.4833(3)
O14_4 O 0.7499(3) 0.8573(3) 0.4353(2)
O15_4 O 0.6518(3) 0.8040(3) 0.4067(2)
S3_4 S 0.62235(13) 0.63915(13) 0.49961(13)
C9_4 C 0.5979(5) 0.6469(6) 0.4429(6)
H7_4 H 0.5967 0.6828 0.4419
H8_4 H 0.5594 0.6144 0.4371
H9_4 H 0.6243 0.6479 0.4189
C10_4 C 0.6239(6) 0.5735(6) 0.4942(6)
H10_4 H 0.6383 0.5661 0.5232
H11_4 H 0.6491 0.5767 0.4683
H12_4 H 0.5850 0.5418 0.4881
S4_4 S 0.75816(14) 0.73439(14) 0.63217(12)
O18_4 O 0.7714(3) 0.7482(3) 0.5781(2)
C11_4 C 0.8238(11) 0.7549(11) 0.6551(12)
H13_4 H 0.8471 0.7969 0.6549
H14_4 H 0.8429 0.7388 0.6365
H15_4 H 0.8194 0.7409 0.6872
C12_4 C 0.7340(6) 0.6600(5) 0.6364(3)
H16_4 H 0.6943 0.6381 0.6253
H17_4 H 0.7358 0.6501 0.6689
H18_4 H 0.7584 0.6508 0.6173
Ni6_4 Ni 0.72453(10) 0.96978(7) 0.54987(6)
Ni7_4 Ni 0.59914(10) 0.49325(7) 0.86347(6)
Ni8_4 Ni 0.77256(7) 0.93248(10) 0.46987(6)
Ni9_4 Ni 0.49078(7) 0.51090(10) 0.80508(6)
O19_4 O 0.6119(4) 0.8479(3) 0.5777(3)
O20_4 O 0.6720(4) 0.5473(3) 0.83034(18)
H19_4 H 0.6956 0.5312 0.8176
O22_4 O 0.6971(4) 0.9039(3) 0.5049(2)
H21_4 H 0.6722 0.9102 0.4826
O23_4 O 0.6029(3) 0.5046(4) 0.7452(2)
O24_4 O 0.8981(4) 0.8049(3) 0.4769(3)
O25_4 O 0.8925(4) 0.7499(3) 0.5647(2)
O26_4 O 0.7141(4) 0.6234(3) 0.7502(2)
O27_4 O 0.6658(4) 0.6470(2) 0.83330(19)
H22_4 H 0.8576 0.854206 0.583857
H23_4 H 0.91463 0.848195 0.583061
H24_4 H 0.550443 0.809649 0.498803
H25_4 H 0.600055 0.850137 0.462027
Ni2_5 Ni 0.42142(7) 0.05786(10) 0.78346(6)
O6_5 O 0.4599(3) 0.0304(4) 0.8284(2)
H6_5 H 0.4287 0.0055 0.8507
O7_5 O 0.1517(3) 0.0358(4) 0.5636(2)
C10_5 C 0.4265(6) 0.0503(8) 0.4942(6)
H10_5 H 0.4339 0.0721 0.5232
H11_5 H 0.4233 0.0723 0.4683
H12_5 H 0.4582 0.0431 0.4881
S4_5 S 0.26561(14) 0.02376(20) 0.63217(12)
O18_5 O 0.2518(3) 0.0231(4) 0.5781(2)
C11_5 C 0.2451(11) 0.0688(16) 0.6551(12)
H13_5 H 0.2031 0.0501 0.6549
H14_5 H 0.2612 0.1040 0.6365
H15_5 H 0.2591 0.0784 0.6872
C12_5 C 0.3400(5) 0.0739(8) 0.6364(3)
H16_5 H 0.3619 0.0561 0.6253
H17_5 H 0.3499 0.0856 0.6689
H18_5 H 0.3492 0.1075 0.6173
Ni7_5 Ni 0.50675(7) 0.10590(12) 0.86347(6)
O20_5 O 0.4527(3) 0.1248(5) 0.83034(18)
H19_5 H 0.4688 0.1645 0.8176
O23_5 O 0.4954(4) 0.0983(5) 0.7452(2)
O24_5 O 0.1951(3) 0.0933(5) 0.4769(3)
O25_5 O 0.2501(3) 0.1427(5) 0.5647(2)
O26_5 O 0.3766(3) 0.0908(5) 0.7502(2)
O27_5 O 0.3530(2) 0.0189(4) 0.83330(19)
H22_5 H 0.145794 0.00339472 0.583857
H23_5 H 0.151805 0.066434 0.583061
Ni1_5 Ni 0.23887(7) 0.95441(10) 0.53805(6)
Ni4_5 Ni 0.17589(7) 0.82243(10) 0.52825(6)
O1_5 O 0.2562(3) 0.8475(4) 0.5550(3)
O2_5 O 0.2793(3) 0.9346(4) 0.5848(2)
O3_5 O 0.3835(3) 0.9915(4) 0.7398(2)
O4_5 O 0.4307(3) 0.9452(4) 0.7556(3)
C1_5 C 0.2808(5) 0.8885(7) 0.5873(4)
C2_5 C 0.3933(4) 0.9514(6) 0.7324(3)
C3_5 C 0.3077(4) 0.8755(6) 0.6236(3)
C4_5 C 0.3362(4) 0.9186(6) 0.6605(4)
H1_5 H 0.3377 0.9546 0.6584
C5_5 C 0.3609(4) 0.9069(6) 0.6986(4)
C6_5 C 0.3580(6) 0.8534(8) 0.7022(4)
H2_5 H 0.3770 0.8464 0.7271
C7_5 C 0.3261(5) 0.8086(7) 0.6678(4)
H3_5 H 0.3204 0.7710 0.6716
C8_5 C 0.3042(4) 0.8228(6) 0.6295(4)
H4_5 H 0.2859 0.7947 0.6059
O8_5 O 0.1849(3) 0.7697(5) 0.4816(3)
S1_5 S 0.10868(11) 0.88601(15) 0.57089(9)
O9_5 O 0.0638(3) 0.8287(4) 0.5881(2)
O10_5 O 0.0933(3) 0.8981(4) 0.5231(3)
O11_5 O 0.1643(3) 0.8868(4) 0.5669(2)
O12_5 O 0.1156(3) 0.9312(4) 0.6031(3)
S2_5 S 0.19906(11) 0.89598(15) 0.43502(9)
O13_5 O 0.2160(3) 0.8904(4) 0.4833(3)
O14_5 O 0.1427(3) 0.8925(4) 0.4353(2)
O15_5 O 0.1960(3) 0.8477(4) 0.4067(2)
S3_5 S 0.36085(13) 0.98319(18) 0.49961(13)
C9_5 C 0.3531(6) 0.9509(8) 0.4429(6)
H7_5 H 0.3172 0.9138 0.4419
H8_5 H 0.3856 0.9449 0.4371
H9_5 H 0.3521 0.9763 0.4189
Ni6_5 Ni 0.03022(7) 0.75475(12) 0.54987(6)
Ni8_5 Ni 0.06752(10) 0.84009(12) 0.46987(6)
Ni9_5 Ni 0.48910(10) 0.97988(12) 0.80508(6)
O19_5 O 0.1521(3) 0.7640(5) 0.5777(3)
O22_5 O 0.0961(3) 0.7932(5) 0.5049(2)
H21_5 H 0.0898 0.7620 0.4826
H24_5 H 0.190351 0.740794 0.498803
H25_5 H 0.149863 0.749918 0.462027
Ni1_6 Ni 0.04559(10) 0.28445(7) 0.53805(6)
Ni4_6 Ni 0.17757(10) 0.35345(7) 0.52825(6)
O1_6 O 0.1525(4) 0.4086(3) 0.5550(3)
O2_6 O 0.0654(4) 0.3446(3) 0.5848(2)
O3_6 O 0.0085(4) 0.3919(3) 0.7398(2)
O4_6 O 0.0548(4) 0.4854(3) 0.7556(3)
C1_6 C 0.1115(7) 0.3922(5) 0.5873(4)
C2_6 C 0.0486(6) 0.4418(4) 0.7324(3)
C3_6 C 0.1245(6) 0.4321(4) 0.6236(3)
C4_6 C 0.0814(6) 0.4175(4) 0.6605(4)
H1_6 H 0.0454 0.3830 0.6584
C5_6 C 0.0931(6) 0.4539(4) 0.6986(4)
C6_6 C 0.1466(8) 0.5045(5) 0.7022(4)
H2_6 H 0.1536 0.5305 0.7271
C7_6 C 0.1914(7) 0.5174(5) 0.6678(4)
H3_6 H 0.2290 0.5493 0.6716
C8_6 C 0.1772(6) 0.4813(5) 0.6295(4)
H4_6 H 0.2053 0.4911 0.6059
O8_6 O 0.2303(5) 0.4151(4) 0.4816(3)
S1_6 S 0.11399(15) 0.22266(10) 0.57089(9)
O9_6 O 0.1713(4) 0.2350(3) 0.5881(2)
O10_6 O 0.1019(4) 0.1951(3) 0.5231(3)
O11_6 O 0.1132(4) 0.2774(3) 0.5669(2)
O12_6 O 0.0688(4) 0.1843(3) 0.6031(3)
S2_6 S 0.10402(15) 0.30307(10) 0.43502(9)
O13_6 O 0.1096(4) 0.3255(3) 0.4833(3)
O14_6 O 0.1075(4) 0.2501(3) 0.4353(2)
O15_6 O 0.1523(4) 0.3482(3) 0.4067(2)
S3_6 S 0.01681(18) 0.37765(13) 0.49961(13)
C9_6 C 0.0491(8) 0.4021(5) 0.4429(6)
H7_6 H 0.0862 0.4033 0.4419
H8_6 H 0.0551 0.4406 0.4371
H9_6 H 0.0237 0.3757 0.4189
Ni6_6 Ni 0.24525(12) 0.27547(10) 0.54987(6)
Ni8_6 Ni 0.15991(12) 0.22744(7) 0.46987(6)
Ni9_6 Ni 0.02012(12) 0.50922(7) 0.80508(6)
O19_6 O 0.2360(5) 0.3881(4) 0.5777(3)
O22_6 O 0.2068(5) 0.3029(4) 0.5049(2)
H21_6 H 0.2380 0.3278 0.4826
H24_6 H 0.259206 0.449557 0.498803
H25_6 H 0.250082 0.399945 0.462027
Ni2_6 Ni 0.94214(10) 0.36355(7) 0.78346(6)
O6_6 O 0.9696(4) 0.4294(3) 0.8284(2)
H6_6 H 0.9945 0.4231 0.8507
O7_6 O 0.9642(4) 0.1158(3) 0.5636(2)
C10_6 C 0.9497(8) 0.3761(6) 0.4942(6)
H10_6 H 0.9279 0.3617 0.5232
H11_6 H 0.9277 0.3509 0.4683
H12_6 H 0.9569 0.4150 0.4881
S4_6 S 0.97624(20) 0.24184(14) 0.63217(12)
O18_6 O 0.9769(4) 0.2286(3) 0.5781(2)
C11_6 C 0.9312(16) 0.1762(11) 0.6551(12)
H13_6 H 0.9499 0.1529 0.6549
H14_6 H 0.8960 0.1571 0.6365
H15_6 H 0.9216 0.1806 0.6872
C12_6 C 0.9261(8) 0.2660(6) 0.6364(3)
H16_6 H 0.9439 0.3057 0.6253
H17_6 H 0.9144 0.2642 0.6689
H18_6 H 0.8925 0.2416 0.6173
Ni7_6 Ni 0.89410(12) 0.40086(10) 0.86347(6)
O20_6 O 0.8752(5) 0.3280(4) 0.83034(18)
H19_6 H 0.8355 0.3044 0.8176
O23_6 O 0.9017(5) 0.3971(3) 0.7452(2)
O24_6 O 0.9067(5) 0.1019(4) 0.4769(3)
O25_6 O 0.8573(5) 0.1075(4) 0.5647(2)
O26_6 O 0.9092(5) 0.2859(4) 0.7502(2)
O27_6 O 0.9811(4) 0.3342(4) 0.83330(19)
H22_6 H 0.996605 0.1424 0.583857
H23_6 H 0.933566 0.0853705 0.583061
Ni1_7 Ni 0.38221(7) 0.09447(7) 0.87139(6)
Ni4_7 Ni 0.31321(7) 0.15745(7) 0.86159(6)
O1_7 O 0.2580(3) 0.0772(3) 0.8884(3)
O2_7 O 0.3220(3) 0.0541(3) 0.9182(2)
C1_7 C 0.2744(5) 0.0526(5) 0.9207(4)
C3_7 C 0.2345(4) 0.0257(4) 0.9570(3)
C8_7 C 0.1853(5) 0.0292(4) 0.9629(4)
H4_7 H 0.1755 0.0475 0.9393
O7_7 O 0.5508(3) 0.1817(3) 0.8970(2)
O8_7 O 0.2515(4) 0.1485(3) 0.8150(3)
S1_7 S 0.44400(10) 0.22466(11) 0.90423(9)
O9_7 O 0.4316(3) 0.2696(3) 0.9215(2)
O10_7 O 0.4715(3) 0.2401(3) 0.8565(3)
O11_7 O 0.3892(3) 0.1691(3) 0.9003(2)
O12_7 O 0.4823(3) 0.2178(3) 0.9365(3)
S2_7 S 0.36359(10) 0.13428(11) 0.76836(9)
O13_7 O 0.3411(3) 0.1174(3) 0.8167(3)
O14_7 O 0.4165(3) 0.1907(3) 0.7687(2)
O15_7 O 0.3184(3) 0.1374(3) 0.7401(2)
H7_7 H 0.2633 0.0162 0.7753
S4_7 S 0.42482(14) 0.06773(14) 0.96551(12)
O18_7 O 0.4380(3) 0.0816(3) 0.9115(2)
C11_7 C 0.4904(11) 0.0883(11) 0.9885(12)
H13_7 H 0.5137 0.1303 0.9883
H14_7 H 0.5095 0.0722 0.9699
Ni6_7 Ni 0.39120(10) 0.30311(7) 0.88320(6)
Ni8_7 Ni 0.43923(7) 0.26581(10) 0.80320(6)
O19_7 O 0.2786(4) 0.1812(3) 0.9110(3)
O22_7 O 0.3638(4) 0.2372(3) 0.8382(2)
H21_7 H 0.3389 0.2435 0.8159
O24_7 O 0.5648(4) 0.1382(3) 0.8102(3)
O25_7 O 0.5592(4) 0.0832(3) 0.8980(2)
H22_7 H 0.524267 0.187539 0.91719
H23_7 H 0.581296 0.181529 0.916394
H24_7 H 0.21711 0.142982 0.832137
H25_7 H 0.266721 0.18347 0.795361
O3_7 O 0.2747(3) 0.9499(3) 0.0732(2)
O4_7 O 0.1812(3) 0.9027(3) 0.0890(3)
C2_7 C 0.2248(4) 0.9401(4) 0.0658(3)
C5_7 C 0.2127(4) 0.9725(4) 0.0320(4)
C6_7 C 0.1621(5) 0.9754(6) 0.0356(4)
H2_7 H 0.1361 0.9564 0.0605
H17_7 H 0.4024 0.9835 0.0023
Ni9_7 Ni 0.15745(7) 0.84423(10) 0.13841(6)
O23_7 O 0.2696(3) 0.8379(4) 0.0785(2)
O3_8 O 0.0501(3) 0.3249(4) 0.0732(2)
O4_8 O 0.0973(3) 0.2786(4) 0.0890(3)
C2_8 C 0.0599(4) 0.2848(6) 0.0658(3)
C5_8 C 0.0275(4) 0.2403(6) 0.0320(4)
C6_8 C 0.0246(6) 0.1868(8) 0.0356(4)
H2_8 H 0.0436 0.1798 0.0605
H17_8 H 0.0165 0.4190 0.0023
Ni9_8 Ni 0.15577(10) 0.31321(12) 0.13841(6)
O23_8 O 0.1621(4) 0.4316(5) 0.0785(2)
Ni1_8 Ni 0.90553(7) 0.28775(10) 0.87139(6)
Ni4_8 Ni 0.84255(7) 0.15577(10) 0.86159(6)
O1_8 O 0.9228(3) 0.1809(4) 0.8884(3)
O2_8 O 0.9459(3) 0.2680(4) 0.9182(2)
C1_8 C 0.9474(5) 0.2219(7) 0.9207(4)
C3_8 C 0.9743(4) 0.2089(6) 0.9570(3)
C8_8 C 0.9708(4) 0.1562(6) 0.9629(4)
H4_8 H 0.9525 0.1281 0.9393
O7_8 O 0.8183(3) 0.3692(4) 0.8970(2)
O8_8 O 0.8515(3) 0.1031(5) 0.8150(3)
S1_8 S 0.77534(11) 0.21935(15) 0.90423(9)
O9_8 O 0.7304(3) 0.1621(4) 0.9215(2)
O10_8 O 0.7599(3) 0.2315(4) 0.8565(3)
O11_8 O 0.8309(3) 0.2202(4) 0.9003(2)
O12_8 O 0.7822(3) 0.2646(4) 0.9365(3)
S2_8 S 0.86572(11) 0.22932(15) 0.76836(9)
O13_8 O 0.8826(3) 0.2238(4) 0.8167(3)
O14_8 O 0.8093(3) 0.2259(4) 0.7687(2)
O15_8 O 0.8626(3) 0.1811(4) 0.7401(2)
H7_8 H 0.9838 0.2472 0.7753
S4_8 S 0.93227(14) 0.35710(20) 0.96551(12)
O18_8 O 0.9184(3) 0.3565(4) 0.9115(2)
C11_8 C 0.9117(11) 0.4022(16) 0.9885(12)
H13_8 H 0.8697 0.3835 0.9883
H14_8 H 0.9278 0.4374 0.9699
Ni6_8 Ni 0.69689(7) 0.08808(12) 0.88320(6)
Ni8_8 Ni 0.73419(10) 0.17342(12) 0.80320(6)
O19_8 O 0.8188(3) 0.0973(5) 0.9110(3)
O22_8 O 0.7628(3) 0.1265(5) 0.8382(2)
H21_8 H 0.7565 0.0953 0.8159
O24_8 O 0.8618(3) 0.4266(5) 0.8102(3)
O25_8 O 0.9168(3) 0.4760(5) 0.8980(2)
H22_8 H 0.812461 0.336728 0.91719
H23_8 H 0.818471 0.399767 0.916394
H24_8 H 0.857018 0.0741271 0.832137
H25_8 H 0.81653 0.0832515 0.795361
O3_9 O 0.6751(4) 0.7253(3) 0.0732(2)
O4_9 O 0.7214(4) 0.8188(3) 0.0890(3)
C2_9 C 0.7152(6) 0.7752(4) 0.0658(3)
C5_9 C 0.7597(6) 0.7873(4) 0.0320(4)
C6_9 C 0.8132(8) 0.8379(5) 0.0356(4)
H2_9 H 0.8202 0.8639 0.0605
C7_7 C 0.8580(7) 0.8508(5) 0.0012(4)
H3_7 H 0.8956 0.8827 0.0050
H15_7 H 0.5882 0.5140 0.0206
H17_9 H 0.5810 0.5976 0.0023
Ni9_9 Ni 0.68679(12) 0.84255(7) 0.13841(6)
O23_9 O 0.5684(5) 0.7304(3) 0.0785(2)
Ni1_9 Ni 0.71225(10) 0.61779(7) 0.87139(6)
Ni4_9 Ni 0.84423(10) 0.68679(7) 0.86159(6)
O1_9 O 0.8191(4) 0.7420(3) 0.8884(3)
O2_9 O 0.7320(4) 0.6780(3) 0.9182(2)
C1_9 C 0.7781(7) 0.7256(5) 0.9207(4)
C3_9 C 0.7911(6) 0.7655(4) 0.9570(3)
C4_7 C 0.7480(6) 0.7509(4) 0.9939(4)
H1_7 H 0.7120 0.7164 0.9918
C8_9 C 0.8438(6) 0.8147(5) 0.9629(4)
H4_9 H 0.8719 0.8245 0.9393
O7_9 O 0.6308(4) 0.4492(3) 0.8970(2)
O8_9 O 0.8969(5) 0.7485(4) 0.8150(3)
S1_9 S 0.78065(15) 0.55600(10) 0.90423(9)
O9_9 O 0.8379(4) 0.5684(3) 0.9215(2)
O10_9 O 0.7685(4) 0.5285(3) 0.8565(3)
O11_9 O 0.7798(4) 0.6108(3) 0.9003(2)
O12_9 O 0.7354(4) 0.5177(3) 0.9365(3)
S2_9 S 0.77068(15) 0.63641(10) 0.76836(9)
O13_9 O 0.7762(4) 0.6589(3) 0.8167(3)
O14_9 O 0.7741(4) 0.5835(3) 0.7687(2)
O15_9 O 0.8189(4) 0.6816(3) 0.7401(2)
S3_7 S 0.68347(18) 0.71099(13) 0.83295(13)
C9_7 C 0.7157(8) 0.7355(5) 0.7763(6)
H7_9 H 0.7528 0.7367 0.7753
H8_7 H 0.7217 0.7740 0.7705
H9_7 H 0.6903 0.7091 0.7523
C10_7 C 0.6163(8) 0.7095(6) 0.8276(6)
H10_7 H 0.5945 0.6951 0.8566
H11_7 H 0.5943 0.6843 0.8017
H12_7 H 0.6235 0.7484 0.8215
S4_9 S 0.64290(20) 0.57518(14) 0.96551(12)
O18_9 O 0.6435(4) 0.5620(3) 0.9115(2)
C11_9 C 0.5978(16) 0.5096(11) 0.9885(12)
H13_9 H 0.6165 0.4863 0.9883
H14_9 H 0.5626 0.4905 0.9699
C12_7 C 0.5927(8) 0.5994(6) 0.9698(3)
H16_7 H 0.6105 0.6391 0.9587
H18_7 H 0.5591 0.5750 0.9507
Ni6_9 Ni 0.91192(12) 0.60880(10) 0.88320(6)
Ni8_9 Ni 0.82658(12) 0.56077(7) 0.80320(6)
O19_9 O 0.9027(5) 0.7214(4) 0.9110(3)
O22_9 O 0.8735(5) 0.6362(4) 0.8382(2)
H21_9 H 0.9047 0.6611 0.8159
O24_9 O 0.5734(5) 0.4352(4) 0.8102(3)
O25_9 O 0.5240(5) 0.4408(4) 0.8980(2)
H22_9 H 0.663272 0.475733 0.91719
H23_9 H 0.600233 0.418704 0.916394
H24_9 H 0.925873 0.78289 0.832137
H25_9 H 0.916749 0.733279 0.795361
O1_10 O 0.0753(3) 0.5895(3) 0.7783(3)
O2_10 O 0.0113(3) 0.6126(3) 0.7485(2)
O3_10 O 0.0586(3) 0.7168(3) 0.5935(2)
C1_10 C 0.0589(5) 0.6141(5) 0.7460(4)
C2_10 C 0.1085(4) 0.7266(4) 0.6009(3)
C3_10 C 0.0988(4) 0.6410(4) 0.7097(3)
C4_8 C 0.0842(4) 0.6695(4) 0.6728(4)
H1_8 H 0.0497 0.6710 0.6749
C5_10 C 0.1206(4) 0.6942(4) 0.6347(4)
C6_10 C 0.1712(5) 0.6913(6) 0.6311(4)
H2_10 H 0.1972 0.7103 0.6062
C7_8 C 0.1841(5) 0.6594(5) 0.6655(4)
H3_8 H 0.2160 0.6537 0.6617
C8_10 C 0.1480(5) 0.6375(4) 0.7038(4)
H4_10 H 0.1578 0.6192 0.7274
O8_10 O 0.0818(4) 0.5182(3) 0.8517(3)
O15_10 O 0.0149(3) 0.5293(3) 0.9266(2)
S3_8 S 0.04432(13) 0.69418(13) 0.83372(13)
C9_8 C 0.0688(5) 0.6864(6) 0.8904(6)
H7_10 H 0.0700 0.6505 0.8914
H8_8 H 0.1073 0.7189 0.8962
H9_8 H 0.0424 0.6854 0.9144
C10_8 C 0.0428(6) 0.7598(6) 0.8391(6)
H10_8 H 0.0284 0.7672 0.8101
H11_8 H 0.0176 0.7566 0.8650
H12_8 H 0.0817 0.7915 0.8452
O27_7 O 0.0008(4) 0.6864(2) 0.50004(19)
H24_10 H 0.116224 0.523684 0.83453
H25_10 H 0.066612 0.483197 0.871306
Ni1_10 Ni 0.95112(7) 0.57220(7) 0.79528(6)
O5_4 O 0.8806(3) 0.5419(3) 0.83633(18)
H5_4 H 0.8645 0.5022 0.8491
O7_10 O 0.7825(3) 0.4850(3) 0.7697(2)
S1_10 S 0.88933(10) 0.44201(11) 0.76244(9)
O11_10 O 0.9441(3) 0.4976(3) 0.7664(2)
O12_10 O 0.8510(3) 0.4489(3) 0.7302(3)
S2_10 S 0.96974(10) 0.53239(11) 0.89831(9)
O13_10 O 0.9922(3) 0.5493(3) 0.8500(3)
O16_4 O 0.9567(3) 0.5759(3) 0.9165(2)
O17_4 O 0.9803(2) 0.6478(3) 0.83337(19)
S4_10 S 0.90851(14) 0.59894(14) 0.70116(12)
O18_10 O 0.8953(3) 0.5851(3) 0.7552(2)
C11_10 C 0.8429(11) 0.5784(11) 0.6782(12)
H13_10 H 0.8196 0.5364 0.6784
H14_10 H 0.8238 0.5945 0.6968
H15_8 H 0.8473 0.5924 0.6461
C12_8 C 0.9327(6) 0.6733(5) 0.6969(3)
H16_8 H 0.9724 0.6952 0.7080
H17_10 H 0.9309 0.6832 0.6644
H18_8 H 0.9083 0.6825 0.7160
O20_7 O 0.9946(4) 0.7861(3) 0.50300(18)
H19_7 H 0.9710 0.8022 0.5158
O26_7 O 0.9525(4) 0.7100(3) 0.5832(2)
H22_10 H 0.809066 0.479128 0.749476
H23_10 H 0.752037 0.485138 0.750272
Ni1_11 Ni 0.42780(7) 0.37892(10) 0.79528(6)
O1_11 O 0.4105(3) 0.4858(4) 0.7783(3)
O2_11 O 0.3874(3) 0.3987(4) 0.7485(2)
O3_11 O 0.2832(3) 0.3418(4) 0.5935(2)
C1_11 C 0.3859(5) 0.4448(7) 0.7460(4)
C2_11 C 0.2734(4) 0.3819(6) 0.6009(3)
C3_11 C 0.3590(4) 0.4578(6) 0.7097(3)
C4_9 C 0.3305(4) 0.4147(6) 0.6728(4)
H1_9 H 0.3290 0.3787 0.6749
C5_11 C 0.3058(4) 0.4264(6) 0.6347(4)
C6_11 C 0.3087(6) 0.4799(8) 0.6311(4)
H2_11 H 0.2897 0.4869 0.6062
C7_9 C 0.3406(5) 0.5247(7) 0.6655(4)
H3_9 H 0.3463 0.5623 0.6617
C8_11 C 0.3625(4) 0.5105(6) 0.7038(4)
H4_11 H 0.3808 0.5386 0.7274
O5_5 O 0.4581(3) 0.3387(4) 0.83633(18)
H5_5 H 0.4978 0.3623 0.8491
O7_11 O 0.5150(3) 0.2975(4) 0.7697(2)
O8_11 O 0.4818(3) 0.5636(5) 0.8517(3)
S1_11 S 0.55799(11) 0.44732(15) 0.76244(9)
O11_11 O 0.5024(3) 0.4465(4) 0.7664(2)
O12_11 O 0.5511(3) 0.4021(4) 0.7302(3)
S2_11 S 0.46761(11) 0.43735(15) 0.89831(9)
O13_11 O 0.4507(3) 0.4429(4) 0.8500(3)
O15_11 O 0.4707(3) 0.4856(4) 0.9266(2)
O16_5 O 0.4241(3) 0.3808(4) 0.9165(2)
S3_9 S 0.30582(13) 0.35014(18) 0.83372(13)
O17_5 O 0.3522(3) 0.3325(4) 0.83337(19)
C9_9 C 0.3136(6) 0.3824(8) 0.8904(6)
H7_11 H 0.3495 0.4195 0.8914
H8_9 H 0.2811 0.3884 0.8962
H9_9 H 0.3146 0.3570 0.9144
C10_9 C 0.2402(6) 0.2830(8) 0.8391(6)
H10_9 H 0.2328 0.2612 0.8101
H11_9 H 0.2434 0.2610 0.8650
H12_9 H 0.2085 0.2902 0.8452
S4_11 S 0.40106(14) 0.30957(20) 0.70116(12)
O18_11 O 0.4149(3) 0.3102(4) 0.7552(2)
C11_11 C 0.4216(11) 0.2645(16) 0.6782(12)
H13_11 H 0.4636 0.2832 0.6784
H14_11 H 0.4055 0.2293 0.6968
H15_9 H 0.4076 0.2549 0.6461
C12_9 C 0.3267(5) 0.2594(8) 0.6969(3)
H16_9 H 0.3048 0.2772 0.7080
H17_11 H 0.3168 0.2477 0.6644
H18_9 H 0.3175 0.2258 0.7160
O20_8 O 0.2139(3) 0.2086(5) 0.50300(18)
H19_8 H 0.1978 0.1689 0.5158
O26_8 O 0.2900(3) 0.2426(5) 0.5832(2)
O27_8 O 0.3136(2) 0.3145(4) 0.50004(19)
H22_11 H 0.520872 0.329939 0.749476
H23_11 H 0.514862 0.266899 0.750272
H24_11 H 0.476316 0.59254 0.83453
H25_11 H 0.516803 0.583415 0.871306
Ni1_12 Ni 0.62108(10) 0.04888(7) 0.79528(6)
O5_6 O 0.6613(4) 0.1194(3) 0.83633(18)
H5_6 H 0.6377 0.1355 0.8491
O7_12 O 0.7025(4) 0.2175(3) 0.7697(2)
S1_12 S 0.55268(15) 0.11067(10) 0.76244(9)
O11_12 O 0.5535(4) 0.0559(3) 0.7664(2)
O12_12 O 0.5979(4) 0.1490(3) 0.7302(3)
S2_12 S 0.56265(15) 0.03026(10) 0.89831(9)
O13_12 O 0.5571(4) 0.0078(3) 0.8500(3)
O16_6 O 0.6192(4) 0.0433(3) 0.9165(2)
O17_6 O 0.6675(4) 0.0197(2) 0.83337(19)
S4_12 S 0.69043(20) 0.09149(14) 0.70116(12)
O18_12 O 0.6898(4) 0.1047(3) 0.7552(2)
C11_12 C 0.7355(16) 0.1571(11) 0.6782(12)
H13_12 H 0.7168 0.1804 0.6784
H14_12 H 0.7707 0.1762 0.6968
H15_10 H 0.7451 0.1527 0.6461
C12_10 C 0.7406(8) 0.0673(6) 0.6969(3)
H16_10 H 0.7228 0.0276 0.7080
H17_12 H 0.7523 0.0691 0.6644
H18_10 H 0.7742 0.0917 0.7160
O20_9 O 0.7914(5) 0.0054(4) 0.50300(18)
H19_9 H 0.8311 0.0290 0.5158
O26_9 O 0.7574(5) 0.0475(4) 0.5832(2)
H22_12 H 0.670061 0.190934 0.749476
H23_12 H 0.733101 0.247963 0.750272
O1_12 O 0.5142(4) 0.9247(3) 0.7783(3)
O2_12 O 0.6013(4) 0.9887(3) 0.7485(2)
O3_12 O 0.6582(4) 0.9414(3) 0.5935(2)
C1_12 C 0.5552(7) 0.9411(5) 0.7460(4)
C2_12 C 0.6181(6) 0.8915(4) 0.6009(3)
C3_12 C 0.5422(6) 0.9012(4) 0.7097(3)
C4_10 C 0.5853(6) 0.9158(4) 0.6728(4)
H1_10 H 0.6213 0.9503 0.6749
C5_12 C 0.5736(6) 0.8794(4) 0.6347(4)
C6_12 C 0.5201(8) 0.8288(5) 0.6311(4)
H2_12 H 0.5131 0.8028 0.6062
C7_10 C 0.4753(7) 0.8159(5) 0.6655(4)
H3_10 H 0.4377 0.7840 0.6617
C8_12 C 0.4895(6) 0.8520(5) 0.7038(4)
H4_12 H 0.4614 0.8422 0.7274
O8_12 O 0.4364(5) 0.9182(4) 0.8517(3)
O15_12 O 0.5144(4) 0.9851(3) 0.9266(2)
S3_10 S 0.64986(18) 0.95568(13) 0.83372(13)
C9_10 C 0.6176(8) 0.9312(5) 0.8904(6)
H7_12 H 0.5805 0.9300 0.8914
H8_10 H 0.6116 0.8927 0.8962
H9_10 H 0.6430 0.9576 0.9144
C10_10 C 0.7170(8) 0.9572(6) 0.8391(6)
H10_10 H 0.7388 0.9716 0.8101
H11_10 H 0.7390 0.9824 0.8650
H12_10 H 0.7098 0.9183 0.8452
O27_9 O 0.6855(4) 0.9992(4) 0.50004(19)
H24_12 H 0.40746 0.883776 0.83453
H25_12 H 0.416585 0.933388 0.871306
Ni1_13 Ni 0.28445(7) 0.23887(7) 0.46195(6)
O1_13 O 0.4086(3) 0.2562(3) 0.4450(3)
O2_13 O 0.3446(3) 0.2793(3) 0.4152(2)
O3_13 O 0.3919(3) 0.3835(3) 0.2602(2)
C1_13 C 0.3922(5) 0.2808(5) 0.4127(4)
C2_13 C 0.4418(4) 0.3933(4) 0.2676(3)
C3_13 C 0.4321(4) 0.3077(4) 0.3764(3)
C4_11 C 0.4175(4) 0.3362(4) 0.3395(4)
H1_11 H 0.3830 0.3377 0.3416
C5_13 C 0.4539(4) 0.3609(4) 0.3014(4)
C6_13 C 0.5045(5) 0.3580(6) 0.2978(4)
H2_13 H 0.5305 0.3770 0.2729
C7_11 C 0.5174(5) 0.3261(5) 0.3322(4)
H3_11 H 0.5493 0.3204 0.3284
C8_13 C 0.4813(5) 0.3042(4) 0.3705(4)
H4_13 H 0.4911 0.2859 0.3941
O7_13 O 0.1158(3) 0.1517(3) 0.4364(2)
O8_13 O 0.4151(4) 0.1849(3) 0.5184(3)
S1_13 S 0.22266(10) 0.10868(11) 0.42911(9)
O11_13 O 0.2774(3) 0.1643(3) 0.4331(2)
O12_13 O 0.1843(3) 0.1156(3) 0.3969(3)
S2_13 S 0.30307(10) 0.19906(11) 0.56498(9)
O13_13 O 0.3255(3) 0.2160(3) 0.5167(3)
O15_13 O 0.3482(3) 0.1960(3) 0.5933(2)
S3_11 S 0.37765(13) 0.36085(13) 0.50039(13)
C9_11 C 0.4021(5) 0.3531(6) 0.5571(6)
H7_13 H 0.4033 0.3172 0.5581
H8_11 H 0.4406 0.3856 0.5629
H9_11 H 0.3757 0.3521 0.5811
C10_11 C 0.3761(6) 0.4265(6) 0.5058(6)
H10_11 H 0.3617 0.4339 0.4768
H11_11 H 0.3509 0.4233 0.5317
H12_11 H 0.4150 0.4582 0.5119
S4_13 S 0.24184(14) 0.26561(14) 0.36783(12)
O18_13 O 0.2286(3) 0.2518(3) 0.4219(2)
C11_13 C 0.1762(11) 0.2451(11) 0.3449(12)
H13_13 H 0.1529 0.2031 0.3451
H14_13 H 0.1571 0.2612 0.3635
H15_11 H 0.1806 0.2591 0.3128
C12_11 C 0.2660(6) 0.3400(5) 0.3636(3)
H16_11 H 0.3057 0.3619 0.3747
H17_13 H 0.2642 0.3499 0.3311
H18_11 H 0.2416 0.3492 0.3827
O20_10 O 0.3280(4) 0.4527(3) 0.16966(18)
H19_10 H 0.3044 0.4688 0.1824
O26_10 O 0.2859(4) 0.3766(3) 0.2498(2)
O27_10 O 0.3342(4) 0.3530(2) 0.16670(19)
H22_13 H 0.1424 0.145794 0.416143
H23_13 H 0.0853705 0.151805 0.416939
H24_13 H 0.449557 0.190351 0.501197
H25_13 H 0.399945 0.149863 0.537973
Ni1_14 Ni 0.76113(7) 0.04559(10) 0.46195(6)
O1_14 O 0.7438(3) 0.1525(4) 0.4450(3)
O2_14 O 0.7207(3) 0.0654(4) 0.4152(2)
O3_14 O 0.6165(3) 0.0085(4) 0.2602(2)
C1_14 C 0.7192(5) 0.1115(7) 0.4127(4)
C2_14 C 0.6067(4) 0.0486(6) 0.2676(3)
C3_14 C 0.6923(4) 0.1245(6) 0.3764(3)
C4_12 C 0.6638(4) 0.0814(6) 0.3395(4)
H1_12 H 0.6623 0.0454 0.3416
C5_14 C 0.6391(4) 0.0931(6) 0.3014(4)
C6_14 C 0.6420(6) 0.1466(8) 0.2978(4)
H2_14 H 0.6230 0.1536 0.2729
C7_12 C 0.6739(5) 0.1914(7) 0.3322(4)
H3_12 H 0.6796 0.2290 0.3284
C8_14 C 0.6958(4) 0.1772(6) 0.3705(4)
H4_14 H 0.7141 0.2053 0.3941
O8_14 O 0.8151(3) 0.2303(5) 0.5184(3)
S1_14 S 0.89132(11) 0.11399(15) 0.42911(9)
O11_14 O 0.8357(3) 0.1132(4) 0.4331(2)
O12_14 O 0.8844(3) 0.0688(4) 0.3969(3)
S2_14 S 0.80094(11) 0.10402(15) 0.56498(9)
O13_14 O 0.7840(3) 0.1096(4) 0.5167(3)
O15_14 O 0.8040(3) 0.1523(4) 0.5933(2)
S3_12 S 0.63915(13) 0.01681(18) 0.50039(13)
C9_12 C 0.6469(6) 0.0491(8) 0.5571(6)
H7_14 H 0.6828 0.0862 0.5581
H8_12 H 0.6144 0.0551 0.5629
H9_12 H 0.6479 0.0237 0.5811
H24_14 H 0.809649 0.259206 0.501197
H25_14 H 0.850137 0.250082 0.537973
O7_14 O 0.8483(3) 0.9642(4) 0.4364(2)
C10_12 C 0.5735(6) 0.9497(8) 0.5058(6)
H10_12 H 0.5661 0.9279 0.4768
H11_12 H 0.5767 0.9277 0.5317
H12_12 H 0.5418 0.9569 0.5119
S4_14 S 0.73439(14) 0.97624(20) 0.36783(12)
O18_14 O 0.7482(3) 0.9769(4) 0.4219(2)
C11_14 C 0.7549(11) 0.9312(16) 0.3449(12)
H13_14 H 0.7969 0.9499 0.3451
H14_14 H 0.7388 0.8960 0.3635
H15_12 H 0.7409 0.9216 0.3128
C12_12 C 0.6600(5) 0.9261(8) 0.3636(3)
H16_12 H 0.6381 0.9439 0.3747
H17_14 H 0.6501 0.9144 0.3311
H18_12 H 0.6508 0.8925 0.3827
O20_11 O 0.5473(3) 0.8752(5) 0.16966(18)
H19_11 H 0.5312 0.8355 0.1824
O26_11 O 0.6234(3) 0.9092(5) 0.2498(2)
O27_11 O 0.6470(2) 0.9811(4) 0.16670(19)
H22_14 H 0.854206 0.996605 0.416143
H23_14 H 0.848195 0.933566 0.416939
O7_15 O 0.0358(4) 0.8842(3) 0.4364(2)
C10_13 C 0.0503(8) 0.6239(6) 0.5058(6)
H10_13 H 0.0721 0.6383 0.4768
H11_13 H 0.0723 0.6491 0.5317
H12_13 H 0.0431 0.5850 0.5119
S4_15 S 0.02376(20) 0.75816(14) 0.36783(12)
O18_15 O 0.0231(4) 0.7714(3) 0.4219(2)
C11_15 C 0.0688(16) 0.8238(11) 0.3449(12)
H13_15 H 0.0501 0.8471 0.3451
H14_15 H 0.1040 0.8429 0.3635
H15_13 H 0.0784 0.8194 0.3128
C12_13 C 0.0739(8) 0.7340(6) 0.3636(3)
H16_13 H 0.0561 0.6943 0.3747
H17_15 H 0.0856 0.7358 0.3311
H18_13 H 0.1075 0.7584 0.3827
O20_12 O 0.1248(5) 0.6720(4) 0.16966(18)
H19_12 H 0.1645 0.6956 0.1824
O26_12 O 0.0908(5) 0.7141(4) 0.2498(2)
O27_12 O 0.0189(4) 0.6658(4) 0.16670(19)
H22_15 H 0.00339472 0.8576 0.416143
H23_15 H 0.066434 0.91463 0.416939
Ni1_15 Ni 0.95441(10) 0.71555(7) 0.46195(6)
O1_15 O 0.8475(4) 0.5914(3) 0.4450(3)
O2_15 O 0.9346(4) 0.6554(3) 0.4152(2)
O3_15 O 0.9915(4) 0.6081(3) 0.2602(2)
C1_15 C 0.8885(7) 0.6078(5) 0.4127(4)
C2_15 C 0.9514(6) 0.5582(4) 0.2676(3)
C3_15 C 0.8755(6) 0.5679(4) 0.3764(3)
C4_13 C 0.9186(6) 0.5825(4) 0.3395(4)
H1_13 H 0.9546 0.6170 0.3416
C5_15 C 0.9069(6) 0.5461(4) 0.3014(4)
C6_15 C 0.8534(8) 0.4955(5) 0.2978(4)
H2_15 H 0.8464 0.4695 0.2729
C7_13 C 0.8086(7) 0.4826(5) 0.3322(4)
H3_13 H 0.7710 0.4507 0.3284
C8_15 C 0.8228(6) 0.5187(5) 0.3705(4)
H4_15 H 0.7947 0.5089 0.3941
O8_15 O 0.7697(5) 0.5849(4) 0.5184(3)
S1_15 S 0.88601(15) 0.77734(10) 0.42911(9)
O11_15 O 0.8868(4) 0.7226(3) 0.4331(2)
O12_15 O 0.9312(4) 0.8157(3) 0.3969(3)
S2_15 S 0.89598(15) 0.69693(10) 0.56498(9)
O13_15 O 0.8904(4) 0.6745(3) 0.5167(3)
O15_15 O 0.8477(4) 0.6518(3) 0.5933(2)
S3_13 S 0.98319(18) 0.62235(13) 0.50039(13)
C9_13 C 0.9509(8) 0.5979(5) 0.5571(6)
H7_15 H 0.9138 0.5967 0.5581
H8_13 H 0.9449 0.5594 0.5629
H9_13 H 0.9763 0.6243 0.5811
H24_15 H 0.740794 0.550443 0.501197
H25_15 H 0.749918 0.600055 0.537973
O3_16 O 0.7253(3) 0.0501(3) 0.9268(2)
C2_16 C 0.7752(4) 0.0599(4) 0.9342(3)
C5_16 C 0.7873(4) 0.0275(4) 0.9680(4)
C6_16 C 0.8379(5) 0.0246(6) 0.9644(4)
H2_16 H 0.8639 0.0436 0.9395
H17_16 H 0.5976 0.0165 0.9977
Ni1_16 Ni 0.61779(7) 0.90553(7) 0.12861(6)
O1_16 O 0.7420(3) 0.9228(3) 0.1116(3)
O2_16 O 0.6780(3) 0.9459(3) 0.0818(2)
C1_16 C 0.7256(5) 0.9474(5) 0.0793(4)
C3_16 C 0.7655(4) 0.9743(4) 0.0430(3)
C8_16 C 0.8147(5) 0.9708(4) 0.0371(4)
H4_16 H 0.8245 0.9525 0.0607
O7_16 O 0.4492(3) 0.8183(3) 0.1030(2)
O8_16 O 0.7485(4) 0.8515(3) 0.1850(3)
S1_16 S 0.55600(10) 0.77534(11) 0.09577(9)
O11_16 O 0.6108(3) 0.8309(3) 0.0997(2)
O12_16 O 0.5177(3) 0.7822(3) 0.0635(3)
S2_16 S 0.63641(10) 0.86572(11) 0.23164(9)
O13_16 O 0.6589(3) 0.8826(3) 0.1833(3)
O15_16 O 0.6816(3) 0.8626(3) 0.2599(2)
H7_16 H 0.7367 0.9838 0.2247
S4_16 S 0.57518(14) 0.93227(14) 0.03449(12)
O18_16 O 0.5620(3) 0.9184(3) 0.0885(2)
C11_16 C 0.5096(11) 0.9117(11) 0.0115(12)
H13_16 H 0.4863 0.8697 0.0117
H14_16 H 0.4905 0.9278 0.0301
H22_16 H 0.475733 0.812461 0.0828096
H23_16 H 0.418704 0.818471 0.0836058
H24_16 H 0.78289 0.857018 0.167863
H25_16 H 0.733279 0.81653 0.204639
Ni1_17 Ni 0.09447(7) 0.71225(10) 0.12861(6)
O1_17 O 0.0772(3) 0.8191(4) 0.1116(3)
O2_17 O 0.0541(3) 0.7320(4) 0.0818(2)
C1_17 C 0.0526(5) 0.7781(7) 0.0793(4)
C3_17 C 0.0257(4) 0.7911(6) 0.0430(3)
C8_17 C 0.0292(4) 0.8438(6) 0.0371(4)
H4_17 H 0.0475 0.8719 0.0607
O7_17 O 0.1817(3) 0.6308(4) 0.1030(2)
O8_17 O 0.1485(3) 0.8969(5) 0.1850(3)
S1_17 S 0.22466(11) 0.78065(15) 0.09577(9)
O11_17 O 0.1691(3) 0.7798(4) 0.0997(2)
O12_17 O 0.2178(3) 0.7354(4) 0.0635(3)
S2_17 S 0.13428(11) 0.77068(15) 0.23164(9)
O13_17 O 0.1174(3) 0.7762(4) 0.1833(3)
O15_17 O 0.1374(3) 0.8189(4) 0.2599(2)
H7_17 H 0.0162 0.7528 0.2247
S4_17 S 0.06773(14) 0.64290(20) 0.03449(12)
O18_17 O 0.0816(3) 0.6435(4) 0.0885(2)
C11_17 C 0.0883(11) 0.5978(16) 0.0115(12)
H13_17 H 0.1303 0.6165 0.0117
H14_17 H 0.0722 0.5626 0.0301
H22_17 H 0.187539 0.663272 0.0828096
H23_17 H 0.181529 0.600233 0.0836058
H24_17 H 0.142982 0.925873 0.167863
H25_17 H 0.18347 0.916749 0.204639
O3_17 O 0.9499(3) 0.6751(4) 0.9268(2)
C2_17 C 0.9401(4) 0.7152(6) 0.9342(3)
C5_17 C 0.9725(4) 0.7597(6) 0.9680(4)
C6_17 C 0.9754(6) 0.8132(8) 0.9644(4)
H2_17 H 0.9564 0.8202 0.9395
H17_17 H 0.9835 0.5810 0.9977
Ni1_18 Ni 0.28775(10) 0.38221(7) 0.12861(6)
O1_18 O 0.1809(4) 0.2580(3) 0.1116(3)
O2_18 O 0.2680(4) 0.3220(3) 0.0818(2)
C1_18 C 0.2219(7) 0.2744(5) 0.0793(4)
C3_18 C 0.2089(6) 0.2345(4) 0.0430(3)
C4_14 C 0.2520(6) 0.2491(4) 0.0061(4)
H1_14 H 0.2880 0.2836 0.0082
C8_18 C 0.1562(6) 0.1853(5) 0.0371(4)
H4_18 H 0.1281 0.1755 0.0607
O7_18 O 0.3692(4) 0.5508(3) 0.1030(2)
O8_18 O 0.1031(5) 0.2515(4) 0.1850(3)
S1_18 S 0.21935(15) 0.44400(10) 0.09577(9)
O11_18 O 0.2202(4) 0.3892(3) 0.0997(2)
O12_18 O 0.2646(4) 0.4823(3) 0.0635(3)
S2_18 S 0.22932(15) 0.36359(10) 0.23164(9)
O13_18 O 0.2238(4) 0.3411(3) 0.1833(3)
O15_18 O 0.1811(4) 0.3184(3) 0.2599(2)
S3_14 S 0.31653(18) 0.28901(13) 0.16705(13)
C9_14 C 0.2843(8) 0.2645(5) 0.2237(6)
H7_18 H 0.2472 0.2633 0.2247
H8_14 H 0.2783 0.2260 0.2295
H9_14 H 0.3097 0.2909 0.2477
C10_14 C 0.3837(8) 0.2905(6) 0.1724(6)
H10_14 H 0.4055 0.3049 0.1434
H11_14 H 0.4057 0.3157 0.1983
H12_14 H 0.3765 0.2516 0.1785
S4_18 S 0.35710(20) 0.42482(14) 0.03449(12)
O18_18 O 0.3565(4) 0.4380(3) 0.0885(2)
C11_18 C 0.4022(16) 0.4904(11) 0.0115(12)
H13_18 H 0.3835 0.5137 0.0117
H14_18 H 0.4374 0.5095 0.0301
C12_14 C 0.4073(8) 0.4006(6) 0.0302(3)
H16_14 H 0.3895 0.3609 0.0413
H18_14 H 0.4409 0.4250 0.0493
H22_18 H 0.336728 0.524267 0.0828096
H23_18 H 0.399767 0.581296 0.0836058
H24_18 H 0.0741271 0.21711 0.167863
H25_18 H 0.0832515 0.266721 0.204639
O3_18 O 0.3249(4) 0.2747(3) 0.9268(2)
C2_18 C 0.2848(6) 0.2248(4) 0.9342(3)
C5_18 C 0.2403(6) 0.2127(4) 0.9680(4)
C6_18 C 0.1868(8) 0.1621(5) 0.9644(4)
H2_18 H 0.1798 0.1361 0.9395
C7_14 C 0.1420(7) 0.1492(5) 0.9988(4)
H3_14 H 0.1044 0.1173 0.9950
H15_14 H 0.4118 0.4860 0.9794
H17_18 H 0.4190 0.4024 0.9977
C7_15 C 0.1492(5) 0.0073(5) 0.0012(4)
H3_15 H 0.1173 0.0130 0.0050
H15_15 H 0.4860 0.0743 0.0206
C4_15 C 0.2491(4) 0.9972(4) 0.9939(4)
H1_15 H 0.2836 0.9957 0.9918
S3_15 S 0.28901(13) 0.97249(13) 0.83295(13)
C9_15 C 0.2645(5) 0.9803(6) 0.7763(6)
H8_15 H 0.2260 0.9478 0.7705
H9_15 H 0.2909 0.9813 0.7523
C10_15 C 0.2905(6) 0.9069(6) 0.8276(6)
H10_15 H 0.3049 0.8995 0.8566
H11_15 H 0.3157 0.9101 0.8017
H12_15 H 0.2516 0.8752 0.8215
C12_15 C 0.4006(6) 0.9934(5) 0.9698(3)
H16_15 H 0.3609 0.9715 0.9587
H18_15 H 0.4250 0.9842 0.9507
C4_16 C 0.0028(4) 0.2520(6) 0.9939(4)
H1_16 H 0.0043 0.2880 0.9918
S3_16 S 0.02751(13) 0.31653(18) 0.83295(13)
C9_16 C 0.0197(6) 0.2843(8) 0.7763(6)
H8_16 H 0.0522 0.2783 0.7705
H9_16 H 0.0187 0.3097 0.7523
C10_16 C 0.0931(6) 0.3837(8) 0.8276(6)
H10_16 H 0.1005 0.4055 0.8566
H11_16 H 0.0899 0.4057 0.8017
H12_16 H 0.1248 0.3765 0.8215
C12_16 C 0.0066(5) 0.4073(8) 0.9698(3)
H16_16 H 0.0285 0.3895 0.9587
H18_16 H 0.0158 0.4409 0.9507
C7_16 C 0.9927(5) 0.1420(7) 0.0012(4)
H3_16 H 0.9870 0.1044 0.0050
H15_16 H 0.9257 0.4118 0.0206
C4_17 C 0.7509(4) 0.0028(4) 0.0061(4)
H1_17 H 0.7164 0.0043 0.0082
S3_17 S 0.71099(13) 0.02751(13) 0.16705(13)
C9_17 C 0.7355(5) 0.0197(6) 0.2237(6)
H8_17 H 0.7740 0.0522 0.2295
H9_17 H 0.7091 0.0187 0.2477
C10_17 C 0.7095(6) 0.0931(6) 0.1724(6)
H10_17 H 0.6951 0.1005 0.1434
H11_17 H 0.6843 0.0899 0.1983
H12_17 H 0.7484 0.1248 0.1785
C12_17 C 0.5994(6) 0.0066(5) 0.0302(3)
H16_17 H 0.6391 0.0285 0.0413
H18_17 H 0.5750 0.0158 0.0493
C7_17 C 0.8508(5) 0.9927(5) 0.9988(4)
H3_17 H 0.8827 0.9870 0.9950
H15_17 H 0.5140 0.9257 0.9794
C7_18 C 0.0073(5) 0.8580(7) 0.9988(4)
H3_18 H 0.0130 0.8956 0.9950
H15_18 H 0.0743 0.5882 0.9794
C4_18 C 0.9972(4) 0.7480(6) 0.0061(4)
H1_18 H 0.9957 0.7120 0.0082
S3_18 S 0.97249(13) 0.68347(18) 0.16705(13)
C9_18 C 0.9803(6) 0.7157(8) 0.2237(6)
H8_18 H 0.9478 0.7217 0.2295
H9_18 H 0.9813 0.6903 0.2477
C10_18 C 0.9069(6) 0.6163(8) 0.1724(6)
H10_18 H 0.8995 0.5945 0.1434
H11_18 H 0.9101 0.5943 0.1983
H12_18 H 0.8752 0.6235 0.1785
C12_18 C 0.9934(5) 0.5927(8) 0.0302(3)
H16_18 H 0.9715 0.6105 0.0413
H18_18 H 0.9842 0.5591 0.0493
loop_
_geom_bond_atom_site_label_1
_geom_bond_atom_site_label_2
_geom_bond_site_symmetry_1
_geom_bond_site_symmetry_2
Ni3 O5 1_555 1_555
O5 Ni1 1_555 1_555
H5 O5 1_555 1_555
O7 Ni3 1_555 1_555
S1 O9 1_555 1_555
O9 Ni6 1_555 1_555
O10 S1 1_555 1_555
O11 Ni1 1_555 1_555
O12 S1 1_555 1_555
S2 O13 1_555 1_555
O13 Ni1 1_555 1_555
O14 S2 1_555 1_555
O16 S2 1_555 1_555
O17 Ni1 1_555 1_555
S4 O18 1_555 1_555
O18 Ni1 1_555 1_555
C11 S4 1_555 1_555
H13 C11 1_555 1_555
H14 C11 1_555 1_555
H15 C11 1_555 1_555
C12 S4 1_555 1_555
H16 C12 1_555 1_555
H17 C12 1_555 1_555
H18 C12 1_555 1_555
Ni5 O5 1_555 1_555
Ni6 O22 1_555 1_555
Ni8 O10 1_555 1_555
H19 O20 1_555 1_555
O21 Ni3 1_555 1_555
H20 O21 1_555 1_555
H21 O22 1_555 1_555
O24 Ni3 1_555 1_555
O25 Ni3 1_555 1_555
Ni3 O18 1_555 1_555
S1 O11 1_555 1_555
O14 Ni8 1_555 1_555
O16 Ni5 1_555 1_555
O17 Ni5 1_555 1_555
Ni5 O21 1_555 1_555
Ni8 O22 1_555 1_555
O7 H22 1_555 1_555
O7 H23 1_555 1_555
Ni2 O3 1_555 1_555
Ni4 O1 1_555 1_555
O1 C1 1_555 1_555
O2 C1 1_555 1_555
O3 C2 1_555 1_555
O4 C2 1_555 1_555
C1 C3 1_555 1_555
C2 C5 1_555 1_555
C3 C4 1_555 1_555
C4 H1 1_555 1_555
C5 C4 1_555 1_555
C6 C5 1_555 1_555
H2 C6 1_555 1_555
C7 C6 1_555 1_555
H3 C7 1_555 1_555
C8 C3 1_555 1_555
H4 C8 1_555 1_555
O6 Ni2 1_555 1_555
H6 O6 1_555 1_555
O8 Ni4 1_555 1_555
C9 S3 1_555 1_555
H7 C9 1_555 1_555
H8 C9 1_555 1_555
H9 C9 1_555 1_555
C10 S3 1_555 1_555
H10 C10 1_555 1_555
H11 C10 1_555 1_555
H12 C10 1_555 1_555
Ni7 O6 1_555 1_555
Ni9 O4 1_555 1_555
O19 Ni4 1_555 1_555
O23 Ni2 1_555 1_555
O27 Ni2 1_555 1_555
C7 C8 1_555 1_555
O6 Ni9 1_555 1_555
O8 H24 1_555 1_555
O8 H25 1_555 1_555
Ni1_2 O2_2 1_555 1_555
Ni2_2 O3_2 1_555 1_555
Ni3_2 O5_2 1_555 1_555
Ni4_2 O1_2 1_555 1_555
O1_2 C1_2 1_555 1_555
O2_2 C1_2 1_555 1_555
O3_2 C2_2 1_555 1_555
O4_2 C2_2 1_555 1_555
C1_2 C3_2 1_555 1_555
C2_2 C5_2 1_555 1_555
C3_2 C4_2 1_555 1_555
C4_2 H1_2 1_555 1_555
C5_2 C4_2 1_555 1_555
C6_2 C5_2 1_555 1_555
H2_2 C6_2 1_555 1_555
C7_2 C6_2 1_555 1_555
H3_2 C7_2 1_555 1_555
C8_2 C3_2 1_555 1_555
H4_2 C8_2 1_555 1_555
O5_2 Ni1_2 1_555 1_555
H5_2 O5_2 1_555 1_555
O6_2 Ni2_2 1_555 1_555
H6_2 O6_2 1_555 1_555
O7_2 Ni3_2 1_555 1_555
O8_2 Ni4_2 1_555 1_555
S1_2 O9_2 1_555 1_555
O9_2 Ni6_2 1_555 1_555
O10_2 S1_2 1_555 1_555
O11_2 Ni1_2 1_555 1_555
O12_2 S1_2 1_555 1_555
S2_2 O13_2 1_555 1_555
O13_2 Ni1_2 1_555 1_555
O14_2 S2_2 1_555 1_555
O15_2 S2_2 1_555 1_555
O16_2 S2_2 1_555 1_555
S3_2 O17_2 1_555 1_555
O17_2 Ni1_2 1_555 1_555
C9_2 S3_2 1_555 1_555
H7_2 C9_2 1_555 1_555
H8_2 C9_2 1_555 1_555
H9_2 C9_2 1_555 1_555
C10_2 S3_2 1_555 1_555
H10_2 C10_2 1_555 1_555
H11_2 C10_2 1_555 1_555
H12_2 C10_2 1_555 1_555
S4_2 O18_2 1_555 1_555
O18_2 Ni1_2 1_555 1_555
C11_2 S4_2 1_555 1_555
H13_2 C11_2 1_555 1_555
H14_2 C11_2 1_555 1_555
H15_2 C11_2 1_555 1_555
C12_2 S4_2 1_555 1_555
H16_2 C12_2 1_555 1_555
H17_2 C12_2 1_555 1_555
H18_2 C12_2 1_555 1_555
Ni5_2 O5_2 1_555 1_555
Ni6_2 O22_2 1_555 1_555
Ni7_2 O6_2 1_555 1_555
Ni8_2 O10_2 1_555 1_555
Ni9_2 O4_2 1_555 1_555
O19_2 Ni4_2 1_555 1_555
O20_2 Ni2_2 1_555 1_555
H19_2 O20_2 1_555 1_555
O21_2 Ni3_2 1_555 1_555
O22_2 Ni4_2 1_555 1_555
H20_2 O21_2 1_555 1_555
H21_2 O22_2 1_555 1_555
O23_2 Ni2_2 1_555 1_555
O24_2 Ni3_2 1_555 1_555
O25_2 Ni3_2 1_555 1_555
O26_2 Ni2_2 1_555 1_555
O27_2 Ni2_2 1_555 1_555
Ni3_2 O18_2 1_555 1_555
Ni4_2 O11_2 1_555 1_555
Ni4_2 O13_2 1_555 1_555
C7_2 C8_2 1_555 1_555
O6_2 Ni9_2 1_555 1_555
S1_2 O11_2 1_555 1_555
O14_2 Ni8_2 1_555 1_555
O16_2 Ni5_2 1_555 1_555
O17_2 Ni5_2 1_555 1_555
Ni5_2 O21_2 1_555 1_555
Ni7_2 O20_2 1_555 1_555
Ni8_2 O22_2 1_555 1_555
O7_2 H22_2 1_555 1_555
O7_2 H23_2 1_555 1_555
O8_2 H24_2 1_555 1_555
O8_2 H25_2 1_555 1_555
Ni2_3 O3_3 1_555 1_555
Ni4_3 O1_3 1_555 1_555
O1_3 C1_3 1_555 1_555
O2_3 C1_3 1_555 1_555
O3_3 C2_3 1_555 1_555
O4_3 C2_3 1_555 1_555
C1_3 C3_3 1_555 1_555
C2_3 C5_3 1_555 1_555
C3_3 C4_3 1_555 1_555
C4_3 H1_3 1_555 1_555
C5_3 C4_3 1_555 1_555
C6_3 C5_3 1_555 1_555
H2_3 C6_3 1_555 1_555
C7_3 C6_3 1_555 1_555
H3_3 C7_3 1_555 1_555
C8_3 C3_3 1_555 1_555
H4_3 C8_3 1_555 1_555
O6_3 Ni2_3 1_555 1_555
H6_3 O6_3 1_555 1_555
O8_3 Ni4_3 1_555 1_555
C9_3 S3_3 1_555 1_555
H7_3 C9_3 1_555 1_555
H8_3 C9_3 1_555 1_555
H9_3 C9_3 1_555 1_555
C10_3 S3_3 1_555 1_555
H10_3 C10_3 1_555 1_555
H11_3 C10_3 1_555 1_555
H12_3 C10_3 1_555 1_555
Ni7_3 O6_3 1_555 1_555
Ni9_3 O4_3 1_555 1_555
O19_3 Ni4_3 1_555 1_555
O23_3 Ni2_3 1_555 1_555
O27_3 Ni2_3 1_555 1_555
C7_3 C8_3 1_555 1_555
O6_3 Ni9_3 1_555 1_555
O8_3 H24_3 1_555 1_555
O8_3 H25_3 1_555 1_555
Ni3_3 O5_3 1_555 1_555
O5_3 Ni1_3 1_555 1_555
H5_3 O5_3 1_555 1_555
O7_3 Ni3_3 1_555 1_555
S1_3 O9_3 1_555 1_555
O9_3 Ni6_3 1_555 1_555
O10_3 S1_3 1_555 1_555
O11_3 Ni1_3 1_555 1_555
O12_3 S1_3 1_555 1_555
S2_3 O13_3 1_555 1_555
O13_3 Ni1_3 1_555 1_555
O14_3 S2_3 1_555 1_555
O16_3 S2_3 1_555 1_555
O17_3 Ni1_3 1_555 1_555
S4_3 O18_3 1_555 1_555
O18_3 Ni1_3 1_555 1_555
C11_3 S4_3 1_555 1_555
H13_3 C11_3 1_555 1_555
H14_3 C11_3 1_555 1_555
H15_3 C11_3 1_555 1_555
C12_3 S4_3 1_555 1_555
H16_3 C12_3 1_555 1_555
H17_3 C12_3 1_555 1_555
H18_3 C12_3 1_555 1_555
Ni5_3 O5_3 1_555 1_555
Ni6_3 O22_3 1_555 1_555
Ni8_3 O10_3 1_555 1_555
H19_3 O20_3 1_555 1_555
O21_3 Ni3_3 1_555 1_555
H20_3 O21_3 1_555 1_555
H21_3 O22_3 1_555 1_555
O24_3 Ni3_3 1_555 1_555
O25_3 Ni3_3 1_555 1_555
Ni3_3 O18_3 1_555 1_555
S1_3 O11_3 1_555 1_555
O14_3 Ni8_3 1_555 1_555
O16_3 Ni5_3 1_555 1_555
O17_3 Ni5_3 1_555 1_555
Ni5_3 O21_3 1_555 1_555
Ni8_3 O22_3 1_555 1_555
O7_3 H22_3 1_555 1_555
O7_3 H23_3 1_555 1_555
Ni1_4 O2_4 1_555 1_555
Ni2_4 O3_4 1_555 1_555
Ni4_4 O1_4 1_555 1_555
O1_4 C1_4 1_555 1_555
O2_4 C1_4 1_555 1_555
O3_4 C2_4 1_555 1_555
O4_4 C2_4 1_555 1_555
C1_4 C3_4 1_555 1_555
C2_4 C5_4 1_555 1_555
C3_4 C4_4 1_555 1_555
C4_4 H1_4 1_555 1_555
C5_4 C4_4 1_555 1_555
C6_4 C5_4 1_555 1_555
H2_4 C6_4 1_555 1_555
C7_4 C6_4 1_555 1_555
H3_4 C7_4 1_555 1_555
C8_4 C3_4 1_555 1_555
H4_4 C8_4 1_555 1_555
O20_2 Ni1_4 1_555 1_555
O6_4 Ni2_4 1_555 1_555
H6_4 O6_4 1_555 1_555
O7_4 Ni7_2 1_555 1_555
O8_4 Ni4_4 1_555 1_555
S1_4 O9_4 1_555 1_555
O9_4 Ni6_4 1_555 1_555
O10_4 S1_4 1_555 1_555
O11_4 Ni1_4 1_555 1_555
O12_4 S1_4 1_555 1_555
S2_4 O13_4 1_555 1_555
O13_4 Ni1_4 1_555 1_555
O14_4 S2_4 1_555 1_555
O15_4 S2_4 1_555 1_555
O26_2 S2_4 1_555 1_555
S3_4 O27_2 1_555 1_555
O27_2 Ni1_4 1_555 1_555
C9_4 S3_4 1_555 1_555
H7_4 C9_4 1_555 1_555
H8_4 C9_4 1_555 1_555
H9_4 C9_4 1_555 1_555
C10_4 S3_4 1_555 1_555
H10_4 C10_4 1_555 1_555
H11_4 C10_4 1_555 1_555
H12_4 C10_4 1_555 1_555
S4_4 O18_4 1_555 1_555
O18_4 Ni1_4 1_555 1_555
C11_4 S4_4 1_555 1_555
H13_4 C11_4 1_555 1_555
H14_4 C11_4 1_555 1_555
H15_4 C11_4 1_555 1_555
C12_4 S4_4 1_555 1_555
H16_4 C12_4 1_555 1_555
H17_4 C12_4 1_555 1_555
H18_4 C12_4 1_555 1_555
Ni6_4 O22_4 1_555 1_555
Ni7_4 O6_4 1_555 1_555
Ni8_4 O10_4 1_555 1_555
Ni9_4 O4_4 1_555 1_555
O19_4 Ni4_4 1_555 1_555
O20_4 Ni2_4 1_555 1_555
H19_4 O20_4 1_555 1_555
O22_4 Ni4_4 1_555 1_555
H21_4 O22_4 1_555 1_555
O23_4 Ni2_4 1_555 1_555
O24_4 Ni7_2 1_555 1_555
O25_4 Ni7_2 1_555 1_555
O26_4 Ni2_4 1_555 1_555
O27_4 Ni2_4 1_555 1_555
Ni7_2 O18_4 1_555 1_555
Ni4_4 O11_4 1_555 1_555
Ni4_4 O13_4 1_555 1_555
C7_4 C8_4 1_555 1_555
O6_4 Ni9_4 1_555 1_555
S1_4 O11_4 1_555 1_555
O14_4 Ni8_4 1_555 1_555
Ni7_4 O20_4 1_555 1_555
Ni8_4 O22_4 1_555 1_555
O7_4 H22_4 1_555 1_555
O7_4 H23_4 1_555 1_555
O8_4 H24_4 1_555 1_555
O8_4 H25_4 1_555 1_555
O6_5 Ni2_5 1_555 1_555
H6_5 O6_5 1_555 1_555
O7_5 Ni7_3 1_555 1_555
H10_5 C10_5 1_555 1_555
H11_5 C10_5 1_555 1_555
H12_5 C10_5 1_555 1_555
S4_5 O18_5 1_555 1_555
C11_5 S4_5 1_555 1_555
H13_5 C11_5 1_555 1_555
H14_5 C11_5 1_555 1_555
H15_5 C11_5 1_555 1_555
C12_5 S4_5 1_555 1_555
H16_5 C12_5 1_555 1_555
H17_5 C12_5 1_555 1_555
H18_5 C12_5 1_555 1_555
Ni7_5 O6_5 1_555 1_555
O20_5 Ni2_5 1_555 1_555
H19_5 O20_5 1_555 1_555
O23_5 Ni2_5 1_555 1_555
O24_5 Ni7_3 1_555 1_555
O25_5 Ni7_3 1_555 1_555
O26_5 Ni2_5 1_555 1_555
O27_5 Ni2_5 1_555 1_555
Ni7_3 O18_5 1_555 1_555
Ni7_5 O20_5 1_555 1_555
O7_5 H22_5 1_555 1_555
O7_5 H23_5 1_555 1_555
Ni1_5 O2_5 1_555 1_555
Ni4_5 O1_5 1_555 1_555
O1_5 C1_5 1_555 1_555
O2_5 C1_5 1_555 1_555
O3_5 C2_5 1_555 1_555
O4_5 C2_5 1_555 1_555
C1_5 C3_5 1_555 1_555
C2_5 C5_5 1_555 1_555
C3_5 C4_5 1_555 1_555
C4_5 H1_5 1_555 1_555
C5_5 C4_5 1_555 1_555
C6_5 C5_5 1_555 1_555
H2_5 C6_5 1_555 1_555
C7_5 C6_5 1_555 1_555
H3_5 C7_5 1_555 1_555
C8_5 C3_5 1_555 1_555
H4_5 C8_5 1_555 1_555
O20_3 Ni1_5 1_555 1_555
O8_5 Ni4_5 1_555 1_555
S1_5 O9_5 1_555 1_555
O9_5 Ni6_5 1_555 1_555
O10_5 S1_5 1_555 1_555
O11_5 Ni1_5 1_555 1_555
O12_5 S1_5 1_555 1_555
S2_5 O13_5 1_555 1_555
O13_5 Ni1_5 1_555 1_555
O14_5 S2_5 1_555 1_555
O15_5 S2_5 1_555 1_555
O26_3 S2_5 1_555 1_555
C9_5 S3_5 1_555 1_555
H7_5 C9_5 1_555 1_555
H8_5 C9_5 1_555 1_555
H9_5 C9_5 1_555 1_555
Ni6_5 O22_5 1_555 1_555
Ni8_5 O10_5 1_555 1_555
Ni9_5 O4_5 1_555 1_555
O19_5 Ni4_5 1_555 1_555
O22_5 Ni4_5 1_555 1_555
H21_5 O22_5 1_555 1_555
Ni4_5 O11_5 1_555 1_555
Ni4_5 O13_5 1_555 1_555
C7_5 C8_5 1_555 1_555
S1_5 O11_5 1_555 1_555
O14_5 Ni8_5 1_555 1_555
Ni8_5 O22_5 1_555 1_555
O8_5 H24_5 1_555 1_555
O8_5 H25_5 1_555 1_555
Ni1_6 O2_6 1_555 1_555
Ni4_6 O1_6 1_555 1_555
O1_6 C1_6 1_555 1_555
O2_6 C1_6 1_555 1_555
O3_6 C2_6 1_555 1_555
O4_6 C2_6 1_555 1_555
C1_6 C3_6 1_555 1_555
C2_6 C5_6 1_555 1_555
C3_6 C4_6 1_555 1_555
C4_6 H1_6 1_555 1_555
C5_6 C4_6 1_555 1_555
C6_6 C5_6 1_555 1_555
H2_6 C6_6 1_555 1_555
C7_6 C6_6 1_555 1_555
H3_6 C7_6 1_555 1_555
C8_6 C3_6 1_555 1_555
H4_6 C8_6 1_555 1_555
O20 Ni1_6 1_555 1_555
O8_6 Ni4_6 1_555 1_555
S1_6 O9_6 1_555 1_555
O9_6 Ni6_6 1_555 1_555
O10_6 S1_6 1_555 1_555
O11_6 Ni1_6 1_555 1_555
O12_6 S1_6 1_555 1_555
S2_6 O13_6 1_555 1_555
O13_6 Ni1_6 1_555 1_555
O14_6 S2_6 1_555 1_555
O15_6 S2_6 1_555 1_555
O26 S2_6 1_555 1_555
C9_6 S3_6 1_555 1_555
H7_6 C9_6 1_555 1_555
H8_6 C9_6 1_555 1_555
H9_6 C9_6 1_555 1_555
Ni6_6 O22_6 1_555 1_555
Ni8_6 O10_6 1_555 1_555
Ni9_6 O4_6 1_555 1_555
O19_6 Ni4_6 1_555 1_555
O22_6 Ni4_6 1_555 1_555
H21_6 O22_6 1_555 1_555
Ni4_6 O11_6 1_555 1_555
Ni4_6 O13_6 1_555 1_555
C7_6 C8_6 1_555 1_555
S1_6 O11_6 1_555 1_555
O14_6 Ni8_6 1_555 1_555
Ni8_6 O22_6 1_555 1_555
O8_6 H24_6 1_555 1_555
O8_6 H25_6 1_555 1_555
O6_6 Ni2_6 1_555 1_555
H6_6 O6_6 1_555 1_555
O7_6 Ni7 1_555 1_555
H10_6 C10_6 1_555 1_555
H11_6 C10_6 1_555 1_555
H12_6 C10_6 1_555 1_555
S4_6 O18_6 1_555 1_555
C11_6 S4_6 1_555 1_555
H13_6 C11_6 1_555 1_555
H14_6 C11_6 1_555 1_555
H15_6 C11_6 1_555 1_555
C12_6 S4_6 1_555 1_555
H16_6 C12_6 1_555 1_555
H17_6 C12_6 1_555 1_555
H18_6 C12_6 1_555 1_555
Ni7_6 O6_6 1_555 1_555
O20_6 Ni2_6 1_555 1_555
H19_6 O20_6 1_555 1_555
O23_6 Ni2_6 1_555 1_555
O24_6 Ni7 1_555 1_555
O25_6 Ni7 1_555 1_555
O26_6 Ni2_6 1_555 1_555
O27_6 Ni2_6 1_555 1_555
Ni7 O18_6 1_555 1_555
Ni7_6 O20_6 1_555 1_555
O7_6 H22_6 1_555 1_555
O7_6 H23_6 1_555 1_555
Ni1_7 O2_7 1_555 1_555
Ni4_7 O1_7 1_555 1_555
O1_7 C1_7 1_555 1_555
O2_7 C1_7 1_555 1_555
C1_7 C3_7 1_555 1_555
C8_7 C3_7 1_555 1_555
H4_7 C8_7 1_555 1_555
O20_5 Ni1_7 1_555 1_555
O7_7 Ni7_5 1_555 1_555
O8_7 Ni4_7 1_555 1_555
S1_7 O9_7 1_555 1_555
O9_7 Ni6_7 1_555 1_555
O10_7 S1_7 1_555 1_555
O11_7 Ni1_7 1_555 1_555
O12_7 S1_7 1_555 1_555
S2_7 O13_7 1_555 1_555
O13_7 Ni1_7 1_555 1_555
O14_7 S2_7 1_555 1_555
O15_7 S2_7 1_555 1_555
O26_5 S2_7 1_555 1_555
O27_5 Ni1_7 1_555 1_555
S4_7 O18_7 1_555 1_555
O18_7 Ni1_7 1_555 1_555
C11_7 S4_7 1_555 1_555
H13_7 C11_7 1_555 1_555
H14_7 C11_7 1_555 1_555
Ni6_7 O22_7 1_555 1_555
Ni8_7 O10_7 1_555 1_555
O19_7 Ni4_7 1_555 1_555
O22_7 Ni4_7 1_555 1_555
H21_7 O22_7 1_555 1_555
O24_7 Ni7_5 1_555 1_555
O25_7 Ni7_5 1_555 1_555
Ni7_5 O18_7 1_555 1_555
Ni4_7 O11_7 1_555 1_555
Ni4_7 O13_7 1_555 1_555
S1_7 O11_7 1_555 1_555
O14_7 Ni8_7 1_555 1_555
Ni8_7 O22_7 1_555 1_555
O7_7 H22_7 1_555 1_555
O7_7 H23_7 1_555 1_555
O8_7 H24_7 1_555 1_555
O8_7 H25_7 1_555 1_555
Ni5_3 O3_7 1_555 1_555
O3_7 C2_7 1_555 1_555
O4_7 C2_7 1_555 1_555
C2_7 C5_7 1_555 1_555
C6_7 C5_7 1_555 1_555
H2_7 C6_7 1_555 1_555
Ni9_7 O4_7 1_555 1_555
O23_7 Ni5_3 1_555 1_555
O21_3 Ni9_7 1_555 1_555
Ni5 O3_8 1_555 1_555
O3_8 C2_8 1_555 1_555
O4_8 C2_8 1_555 1_555
C2_8 C5_8 1_555 1_555
C6_8 C5_8 1_555 1_555
H2_8 C6_8 1_555 1_555
Ni9_8 O4_8 1_555 1_555
O23_8 Ni5 1_555 1_555
O21 Ni9_8 1_555 1_555
Ni1_8 O2_8 1_555 1_555
Ni4_8 O1_8 1_555 1_555
O1_8 C1_8 1_555 1_555
O2_8 C1_8 1_555 1_555
C1_8 C3_8 1_555 1_555
C8_8 C3_8 1_555 1_555
H4_8 C8_8 1_555 1_555
O20_6 Ni1_8 1_555 1_555
O7_8 Ni7_6 1_555 1_555
O8_8 Ni4_8 1_555 1_555
S1_8 O9_8 1_555 1_555
O9_8 Ni6_8 1_555 1_555
O10_8 S1_8 1_555 1_555
O11_8 Ni1_8 1_555 1_555
O12_8 S1_8 1_555 1_555
S2_8 O13_8 1_555 1_555
O13_8 Ni1_8 1_555 1_555
O14_8 S2_8 1_555 1_555
O15_8 S2_8 1_555 1_555
O26_6 S2_8 1_555 1_555
O27_6 Ni1_8 1_555 1_555
S4_8 O18_8 1_555 1_555
O18_8 Ni1_8 1_555 1_555
C11_8 S4_8 1_555 1_555
H13_8 C11_8 1_555 1_555
H14_8 C11_8 1_555 1_555
Ni6_8 O22_8 1_555 1_555
Ni8_8 O10_8 1_555 1_555
O19_8 Ni4_8 1_555 1_555
O22_8 Ni4_8 1_555 1_555
H21_8 O22_8 1_555 1_555
O24_8 Ni7_6 1_555 1_555
O25_8 Ni7_6 1_555 1_555
Ni7_6 O18_8 1_555 1_555
Ni4_8 O11_8 1_555 1_555
Ni4_8 O13_8 1_555 1_555
S1_8 O11_8 1_555 1_555
O14_8 Ni8_8 1_555 1_555
Ni8_8 O22_8 1_555 1_555
O7_8 H22_8 1_555 1_555
O7_8 H23_8 1_555 1_555
O8_8 H24_8 1_555 1_555
O8_8 H25_8 1_555 1_555
Ni5_2 O3_9 1_555 1_555
O3_9 C2_9 1_555 1_555
O4_9 C2_9 1_555 1_555
C2_9 C5_9 1_555 1_555
C6_9 C5_9 1_555 1_555
H2_9 C6_9 1_555 1_555
C7_7 C6_9 1_555 1_555
H3_7 C7_7 1_555 1_555
Ni9_9 O4_9 1_555 1_555
O23_9 Ni5_2 1_555 1_555
O21_2 Ni9_9 1_555 1_555
Ni1_9 O2_9 1_555 1_555
Ni4_9 O1_9 1_555 1_555
O1_9 C1_9 1_555 1_555
O2_9 C1_9 1_555 1_555
C1_9 C3_9 1_555 1_555
C3_9 C4_7 1_555 1_555
C4_7 H1_7 1_555 1_555
C8_9 C3_9 1_555 1_555
H4_9 C8_9 1_555 1_555
O20_4 Ni1_9 1_555 1_555
O7_9 Ni7_4 1_555 1_555
O8_9 Ni4_9 1_555 1_555
S1_9 O9_9 1_555 1_555
O9_9 Ni6_9 1_555 1_555
O10_9 S1_9 1_555 1_555
O11_9 Ni1_9 1_555 1_555
O12_9 S1_9 1_555 1_555
S2_9 O13_9 1_555 1_555
O13_9 Ni1_9 1_555 1_555
O14_9 S2_9 1_555 1_555
O15_9 S2_9 1_555 1_555
O26_4 S2_9 1_555 1_555
S3_7 O27_4 1_555 1_555
O27_4 Ni1_9 1_555 1_555
C9_7 S3_7 1_555 1_555
H7_9 C9_7 1_555 1_555
H8_7 C9_7 1_555 1_555
H9_7 C9_7 1_555 1_555
C10_7 S3_7 1_555 1_555
H10_7 C10_7 1_555 1_555
H11_7 C10_7 1_555 1_555
H12_7 C10_7 1_555 1_555
S4_9 O18_9 1_555 1_555
O18_9 Ni1_9 1_555 1_555
C11_9 S4_9 1_555 1_555
H13_9 C11_9 1_555 1_555
H14_9 C11_9 1_555 1_555
C12_7 S4_9 1_555 1_555
H16_7 C12_7 1_555 1_555
H18_7 C12_7 1_555 1_555
Ni6_9 O22_9 1_555 1_555
Ni8_9 O10_9 1_555 1_555
O19_9 Ni4_9 1_555 1_555
O22_9 Ni4_9 1_555 1_555
H21_9 O22_9 1_555 1_555
O24_9 Ni7_4 1_555 1_555
O25_9 Ni7_4 1_555 1_555
Ni7_4 O18_9 1_555 1_555
Ni4_9 O11_9 1_555 1_555
Ni4_9 O13_9 1_555 1_555
S1_9 O11_9 1_555 1_555
O14_9 Ni8_9 1_555 1_555
Ni8_9 O22_9 1_555 1_555
O7_9 H22_9 1_555 1_555
O7_9 H23_9 1_555 1_555
O8_9 H24_9 1_555 1_555
O8_9 H25_9 1_555 1_555
Ni6_5 O3_10 1_555 1_555
Ni9_6 O1_10 1_555 1_555
O1_10 C1_10 1_555 1_555
O2_10 C1_10 1_555 1_555
O3_10 C2_10 1_555 1_555
O19_5 C2_10 1_555 1_555
C1_10 C3_10 1_555 1_555
C2_10 C5_10 1_555 1_555
C3_10 C4_8 1_555 1_555
C4_8 H1_8 1_555 1_555
C5_10 C4_8 1_555 1_555
C6_10 C5_10 1_555 1_555
H2_10 C6_10 1_555 1_555
C7_8 C6_10 1_555 1_555
H3_8 C7_8 1_555 1_555
C8_10 C3_10 1_555 1_555
H4_10 C8_10 1_555 1_555
O8_10 Ni9_6 1_555 1_555
C9_8 S3_8 1_555 1_555
H7_10 C9_8 1_555 1_555
H8_8 C9_8 1_555 1_555
H9_8 C9_8 1_555 1_555
C10_8 S3_8 1_555 1_555
H10_8 C10_8 1_555 1_555
H11_8 C10_8 1_555 1_555
H12_8 C10_8 1_555 1_555
O27_7 Ni6_5 1_555 1_555
C7_8 C8_10 1_555 1_555
O8_10 H24_10 1_555 1_555
O8_10 H25_10 1_555 1_555
Ni8_9 O5_4 1_555 1_555
O5_4 Ni1_10 1_555 1_555
H5_4 O5_4 1_555 1_555
O7_10 Ni8_9 1_555 1_555
S1_10 O23_6 1_555 1_555
O24_8 S1_10 1_555 1_555
O11_10 Ni1_10 1_555 1_555
O12_10 S1_10 1_555 1_555
S2_10 O13_10 1_555 1_555
O13_10 Ni1_10 1_555 1_555
O25_8 S2_10 1_555 1_555
O16_4 S2_10 1_555 1_555
O17_4 Ni1_10 1_555 1_555
S4_10 O18_10 1_555 1_555
O18_10 Ni1_10 1_555 1_555
C11_10 S4_10 1_555 1_555
H13_10 C11_10 1_555 1_555
H14_10 C11_10 1_555 1_555
H15_8 C11_10 1_555 1_555
C12_8 S4_10 1_555 1_555
H16_8 C12_8 1_555 1_555
H17_10 C12_8 1_555 1_555
H18_8 C12_8 1_555 1_555
Ni6_9 O5_4 1_555 1_555
H19_7 O20_7 1_555 1_555
Ni8_9 O18_10 1_555 1_555
S1_10 O11_10 1_555 1_555
O16_4 Ni6_9 1_555 1_555
O17_4 Ni6_9 1_555 1_555
O7_10 H22_10 1_555 1_555
O7_10 H23_10 1_555 1_555
Ni1_11 O2_11 1_555 1_555
Ni6_6 O3_11 1_555 1_555
Ni8_7 O5_5 1_555 1_555
Ni9_4 O1_11 1_555 1_555
O1_11 C1_11 1_555 1_555
O2_11 C1_11 1_555 1_555
O3_11 C2_11 1_555 1_555
O19_6 C2_11 1_555 1_555
C1_11 C3_11 1_555 1_555
C2_11 C5_11 1_555 1_555
C3_11 C4_9 1_555 1_555
C4_9 H1_9 1_555 1_555
C5_11 C4_9 1_555 1_555
C6_11 C5_11 1_555 1_555
H2_11 C6_11 1_555 1_555
C7_9 C6_11 1_555 1_555
H3_9 C7_9 1_555 1_555
C8_11 C3_11 1_555 1_555
H4_11 C8_11 1_555 1_555
O5_5 Ni1_11 1_555 1_555
H5_5 O5_5 1_555 1_555
O7_11 Ni8_7 1_555 1_555
O8_11 Ni9_4 1_555 1_555
S1_11 O23_4 1_555 1_555
O24_9 S1_11 1_555 1_555
O11_11 Ni1_11 1_555 1_555
O12_11 S1_11 1_555 1_555
S2_11 O13_11 1_555 1_555
O13_11 Ni1_11 1_555 1_555
O25_9 S2_11 1_555 1_555
O15_11 S2_11 1_555 1_555
O16_5 S2_11 1_555 1_555
S3_9 O17_5 1_555 1_555
O17_5 Ni1_11 1_555 1_555
C9_9 S3_9 1_555 1_555
H7_11 C9_9 1_555 1_555
H8_9 C9_9 1_555 1_555
H9_9 C9_9 1_555 1_555
C10_9 S3_9 1_555 1_555
H10_9 C10_9 1_555 1_555
H11_9 C10_9 1_555 1_555
H12_9 C10_9 1_555 1_555
S4_11 O18_11 1_555 1_555
O18_11 Ni1_11 1_555 1_555
C11_11 S4_11 1_555 1_555
H13_11 C11_11 1_555 1_555
H14_11 C11_11 1_555 1_555
H15_9 C11_11 1_555 1_555
C12_9 S4_11 1_555 1_555
H16_9 C12_9 1_555 1_555
H17_11 C12_9 1_555 1_555
H18_9 C12_9 1_555 1_555
Ni6_7 O5_5 1_555 1_555
O20_8 Ni6_6 1_555 1_555
H19_8 O20_8 1_555 1_555
O26_8 Ni6_6 1_555 1_555
O27_8 Ni6_6 1_555 1_555
Ni8_7 O18_11 1_555 1_555
Ni9_4 O11_11 1_555 1_555
Ni9_4 O13_11 1_555 1_555
C7_9 C8_11 1_555 1_555
S1_11 O11_11 1_555 1_555
O16_5 Ni6_7 1_555 1_555
O17_5 Ni6_7 1_555 1_555
Ni8_6 O20_8 1_555 1_555
O7_11 H22_11 1_555 1_555
O7_11 H23_11 1_555 1_555
O8_11 H24_11 1_555 1_555
O8_11 H25_11 1_555 1_555
Ni8_8 O5_6 1_555 1_555
O5_6 Ni1_12 1_555 1_555
H5_6 O5_6 1_555 1_555
O7_12 Ni8_8 1_555 1_555
S1_12 O23_5 1_555 1_555
O24_7 S1_12 1_555 1_555
O11_12 Ni1_12 1_555 1_555
O12_12 S1_12 1_555 1_555
S2_12 O13_12 1_555 1_555
O13_12 Ni1_12 1_555 1_555
O25_7 S2_12 1_555 1_555
O16_6 S2_12 1_555 1_555
O17_6 Ni1_12 1_555 1_555
S4_12 O18_12 1_555 1_555
O18_12 Ni1_12 1_555 1_555
C11_12 S4_12 1_555 1_555
H13_12 C11_12 1_555 1_555
H14_12 C11_12 1_555 1_555
H15_10 C11_12 1_555 1_555
C12_10 S4_12 1_555 1_555
H16_10 C12_10 1_555 1_555
H17_12 C12_10 1_555 1_555
H18_10 C12_10 1_555 1_555
Ni6_8 O5_6 1_555 1_555
H19_9 O20_9 1_555 1_555
Ni8_8 O18_12 1_555 1_555
S1_12 O11_12 1_555 1_555
O16_6 Ni6_8 1_555 1_555
O17_6 Ni6_8 1_555 1_555
O7_12 H22_12 1_555 1_555
O7_12 H23_12 1_555 1_555
Ni6_4 O3_12 1_555 1_555
Ni9_5 O1_12 1_555 1_555
O1_12 C1_12 1_555 1_555
O2_12 C1_12 1_555 1_555
O3_12 C2_12 1_555 1_555
O19_4 C2_12 1_555 1_555
C1_12 C3_12 1_555 1_555
C2_12 C5_12 1_555 1_555
C3_12 C4_10 1_555 1_555
C4_10 H1_10 1_555 1_555
C5_12 C4_10 1_555 1_555
C6_12 C5_12 1_555 1_555
H2_12 C6_12 1_555 1_555
C7_10 C6_12 1_555 1_555
H3_10 C7_10 1_555 1_555
C8_12 C3_12 1_555 1_555
H4_12 C8_12 1_555 1_555
O8_12 Ni9_5 1_555 1_555
C9_10 S3_10 1_555 1_555
H7_12 C9_10 1_555 1_555
H8_10 C9_10 1_555 1_555
H9_10 C9_10 1_555 1_555
C10_10 S3_10 1_555 1_555
H10_10 C10_10 1_555 1_555
H11_10 C10_10 1_555 1_555
H12_10 C10_10 1_555 1_555
O27_9 Ni6_4 1_555 1_555
C7_10 C8_12 1_555 1_555
O8_12 H24_12 1_555 1_555
O8_12 H25_12 1_555 1_555
Ni1_13 O2_13 1_555 1_555
Ni6_2 O3_13 1_555 1_555
Ni9_3 O1_13 1_555 1_555
O1_13 C1_13 1_555 1_555
O2_13 C1_13 1_555 1_555
O3_13 C2_13 1_555 1_555
O19_2 C2_13 1_555 1_555
C1_13 C3_13 1_555 1_555
C2_13 C5_13 1_555 1_555
C3_13 C4_11 1_555 1_555
C4_11 H1_11 1_555 1_555
C5_13 C4_11 1_555 1_555
C6_13 C5_13 1_555 1_555
H2_13 C6_13 1_555 1_555
C7_11 C6_13 1_555 1_555
H3_11 C7_11 1_555 1_555
C8_13 C3_13 1_555 1_555
H4_13 C8_13 1_555 1_555
O20_8 Ni1_13 1_555 1_555
O7_13 Ni8_6 1_555 1_555
O8_13 Ni9_3 1_555 1_555
S1_13 O23_3 1_555 1_555
O24_5 S1_13 1_555 1_555
O11_13 Ni1_13 1_555 1_555
O12_13 S1_13 1_555 1_555
S2_13 O13_13 1_555 1_555
O13_13 Ni1_13 1_555 1_555
O25_5 S2_13 1_555 1_555
O15_13 S2_13 1_555 1_555
O26_8 S2_13 1_555 1_555
S3_11 O27_8 1_555 1_555
O27_8 Ni1_13 1_555 1_555
C9_11 S3_11 1_555 1_555
H7_13 C9_11 1_555 1_555
H8_11 C9_11 1_555 1_555
H9_11 C9_11 1_555 1_555
C10_11 S3_11 1_555 1_555
H10_11 C10_11 1_555 1_555
H11_11 C10_11 1_555 1_555
H12_11 C10_11 1_555 1_555
S4_13 O18_13 1_555 1_555
O18_13 Ni1_13 1_555 1_555
C11_13 S4_13 1_555 1_555
H13_13 C11_13 1_555 1_555
H14_13 C11_13 1_555 1_555
H15_11 C11_13 1_555 1_555
C12_11 S4_13 1_555 1_555
H16_11 C12_11 1_555 1_555
H17_13 C12_11 1_555 1_555
H18_11 C12_11 1_555 1_555
O20_10 Ni6_2 1_555 1_555
H19_10 O20_10 1_555 1_555
O26_10 Ni6_2 1_555 1_555
O27_10 Ni6_2 1_555 1_555
Ni8_6 O18_13 1_555 1_555
Ni9_3 O11_13 1_555 1_555
Ni9_3 O13_13 1_555 1_555
C7_11 C8_13 1_555 1_555
S1_13 O11_13 1_555 1_555
Ni8_2 O20_10 1_555 1_555
O7_13 H22_13 1_555 1_555
O7_13 H23_13 1_555 1_555
O8_13 H24_13 1_555 1_555
O8_13 H25_13 1_555 1_555
Ni1_14 O2_14 1_555 1_555
Ni9 O1_14 1_555 1_555
O1_14 C1_14 1_555 1_555
O2_14 C1_14 1_555 1_555
O3_14 C2_14 1_555 1_555
O19_3 C2_14 1_555 1_555
C1_14 C3_14 1_555 1_555
C2_14 C5_14 1_555 1_555
C3_14 C4_12 1_555 1_555
C4_12 H1_12 1_555 1_555
C5_14 C4_12 1_555 1_555
C6_14 C5_14 1_555 1_555
H2_14 C6_14 1_555 1_555
C7_12 C6_14 1_555 1_555
H3_12 C7_12 1_555 1_555
C8_14 C3_14 1_555 1_555
H4_14 C8_14 1_555 1_555
O20_9 Ni1_14 1_555 1_555
O8_14 Ni9 1_555 1_555
S1_14 O23 1_555 1_555
O24_6 S1_14 1_555 1_555
O11_14 Ni1_14 1_555 1_555
O12_14 S1_14 1_555 1_555
S2_14 O13_14 1_555 1_555
O13_14 Ni1_14 1_555 1_555
O25_6 S2_14 1_555 1_555
O15_14 S2_14 1_555 1_555
O26_9 S2_14 1_555 1_555
C9_12 S3_12 1_555 1_555
H7_14 C9_12 1_555 1_555
H8_12 C9_12 1_555 1_555
H9_12 C9_12 1_555 1_555
Ni9 O11_14 1_555 1_555
Ni9 O13_14 1_555 1_555
C7_12 C8_14 1_555 1_555
S1_14 O11_14 1_555 1_555
O8_14 H24_14 1_555 1_555
O8_14 H25_14 1_555 1_555
O7_14 Ni8_4 1_555 1_555
H10_12 C10_12 1_555 1_555
H11_12 C10_12 1_555 1_555
H12_12 C10_12 1_555 1_555
S4_14 O18_14 1_555 1_555
C11_14 S4_14 1_555 1_555
H13_14 C11_14 1_555 1_555
H14_14 C11_14 1_555 1_555
H15_12 C11_14 1_555 1_555
C12_12 S4_14 1_555 1_555
H16_12 C12_12 1_555 1_555
H17_14 C12_12 1_555 1_555
H18_12 C12_12 1_555 1_555
O20_11 Ni6_3 1_555 1_555
H19_11 O20_11 1_555 1_555
O26_11 Ni6_3 1_555 1_555
O27_11 Ni6_3 1_555 1_555
Ni8_4 O18_14 1_555 1_555
Ni8_3 O20_11 1_555 1_555
O7_14 H22_14 1_555 1_555
O7_14 H23_14 1_555 1_555
O7_15 Ni8_5 1_555 1_555
H10_13 C10_13 1_555 1_555
H11_13 C10_13 1_555 1_555
H12_13 C10_13 1_555 1_555
S4_15 O18_15 1_555 1_555
C11_15 S4_15 1_555 1_555
H13_15 C11_15 1_555 1_555
H14_15 C11_15 1_555 1_555
H15_13 C11_15 1_555 1_555
C12_13 S4_15 1_555 1_555
H16_13 C12_13 1_555 1_555
H17_15 C12_13 1_555 1_555
H18_13 C12_13 1_555 1_555
O20_12 Ni6 1_555 1_555
H19_12 O20_12 1_555 1_555
O26_12 Ni6 1_555 1_555
O27_12 Ni6 1_555 1_555
Ni8_5 O18_15 1_555 1_555
Ni8 O20_12 1_555 1_555
O7_15 H22_15 1_555 1_555
O7_15 H23_15 1_555 1_555
Ni1_15 O2_15 1_555 1_555
Ni9_2 O1_15 1_555 1_555
O1_15 C1_15 1_555 1_555
O2_15 C1_15 1_555 1_555
O3_15 C2_15 1_555 1_555
O19 C2_15 1_555 1_555
C1_15 C3_15 1_555 1_555
C2_15 C5_15 1_555 1_555
C3_15 C4_13 1_555 1_555
C4_13 H1_13 1_555 1_555
C5_15 C4_13 1_555 1_555
C6_15 C5_15 1_555 1_555
H2_15 C6_15 1_555 1_555
C7_13 C6_15 1_555 1_555
H3_13 C7_13 1_555 1_555
C8_15 C3_15 1_555 1_555
H4_15 C8_15 1_555 1_555
O20_7 Ni1_15 1_555 1_555
O8_15 Ni9_2 1_555 1_555
S1_15 O23_2 1_555 1_555
O24_4 S1_15 1_555 1_555
O11_15 Ni1_15 1_555 1_555
O12_15 S1_15 1_555 1_555
S2_15 O13_15 1_555 1_555
O13_15 Ni1_15 1_555 1_555
O25_4 S2_15 1_555 1_555
O15_15 S2_15 1_555 1_555
O26_7 S2_15 1_555 1_555
C9_13 S3_13 1_555 1_555
H7_15 C9_13 1_555 1_555
H8_13 C9_13 1_555 1_555
H9_13 C9_13 1_555 1_555
Ni9_2 O11_15 1_555 1_555
Ni9_2 O13_15 1_555 1_555
C7_13 C8_15 1_555 1_555
S1_15 O11_15 1_555 1_555
O8_15 H24_15 1_555 1_555
O8_15 H25_15 1_555 1_555
Ni6_8 O3_16 1_555 1_555
O3_16 C2_16 1_555 1_555
O19_8 C2_16 1_555 1_555
C2_16 C5_16 1_555 1_555
C6_16 C5_16 1_555 1_555
H2_16 C6_16 1_555 1_555
Ni1_16 O2_16 1_555 1_555
Ni9_9 O1_16 1_555 1_555
O1_16 C1_16 1_555 1_555
O2_16 C1_16 1_555 1_555
C1_16 C3_16 1_555 1_555
C8_16 C3_16 1_555 1_555
H4_16 C8_16 1_555 1_555
O20_11 Ni1_16 1_555 1_555
O7_16 Ni8_3 1_555 1_555
O8_16 Ni9_9 1_555 1_555
S1_16 O23_9 1_555 1_555
O24_2 S1_16 1_555 1_555
O11_16 Ni1_16 1_555 1_555
O12_16 S1_16 1_555 1_555
S2_16 O13_16 1_555 1_555
O13_16 Ni1_16 1_555 1_555
O25_2 S2_16 1_555 1_555
O15_16 S2_16 1_555 1_555
O26_11 S2_16 1_555 1_555
O27_11 Ni1_16 1_555 1_555
S4_16 O18_16 1_555 1_555
O18_16 Ni1_16 1_555 1_555
C11_16 S4_16 1_555 1_555
H13_16 C11_16 1_555 1_555
H14_16 C11_16 1_555 1_555
Ni8_3 O18_16 1_555 1_555
Ni9_9 O11_16 1_555 1_555
Ni9_9 O13_16 1_555 1_555
S1_16 O11_16 1_555 1_555
O7_16 H22_16 1_555 1_555
O7_16 H23_16 1_555 1_555
O8_16 H24_16 1_555 1_555
O8_16 H25_16 1_555 1_555
Ni1_17 O2_17 1_555 1_555
Ni9_7 O1_17 1_555 1_555
O1_17 C1_17 1_555 1_555
O2_17 C1_17 1_555 1_555
C1_17 C3_17 1_555 1_555
C8_17 C3_17 1_555 1_555
H4_17 C8_17 1_555 1_555
O20_12 Ni1_17 1_555 1_555
O7_17 Ni8 1_555 1_555
O8_17 Ni9_7 1_555 1_555
S1_17 O23_7 1_555 1_555
O24_3 S1_17 1_555 1_555
O11_17 Ni1_17 1_555 1_555
O12_17 S1_17 1_555 1_555
S2_17 O13_17 1_555 1_555
O13_17 Ni1_17 1_555 1_555
O25_3 S2_17 1_555 1_555
O15_17 S2_17 1_555 1_555
O26_12 S2_17 1_555 1_555
O27_12 Ni1_17 1_555 1_555
S4_17 O18_17 1_555 1_555
O18_17 Ni1_17 1_555 1_555
C11_17 S4_17 1_555 1_555
H13_17 C11_17 1_555 1_555
H14_17 C11_17 1_555 1_555
Ni8 O18_17 1_555 1_555
Ni9_7 O11_17 1_555 1_555
Ni9_7 O13_17 1_555 1_555
S1_17 O11_17 1_555 1_555
O7_17 H22_17 1_555 1_555
O7_17 H23_17 1_555 1_555
O8_17 H24_17 1_555 1_555
O8_17 H25_17 1_555 1_555
Ni6_9 O3_17 1_555 1_555
O3_17 C2_17 1_555 1_555
O19_9 C2_17 1_555 1_555
C2_17 C5_17 1_555 1_555
C6_17 C5_17 1_555 1_555
H2_17 C6_17 1_555 1_555
Ni1_18 O2_18 1_555 1_555
Ni9_8 O1_18 1_555 1_555
O1_18 C1_18 1_555 1_555
O2_18 C1_18 1_555 1_555
C1_18 C3_18 1_555 1_555
C3_18 C4_14 1_555 1_555
C4_14 H1_14 1_555 1_555
C8_18 C3_18 1_555 1_555
H4_18 C8_18 1_555 1_555
O20_10 Ni1_18 1_555 1_555
O7_18 Ni8_2 1_555 1_555
O8_18 Ni9_8 1_555 1_555
S1_18 O23_8 1_555 1_555
O24 S1_18 1_555 1_555
O11_18 Ni1_18 1_555 1_555
O12_18 S1_18 1_555 1_555
S2_18 O13_18 1_555 1_555
O13_18 Ni1_18 1_555 1_555
O25 S2_18 1_555 1_555
O15_18 S2_18 1_555 1_555
O26_10 S2_18 1_555 1_555
S3_14 O27_10 1_555 1_555
O27_10 Ni1_18 1_555 1_555
C9_14 S3_14 1_555 1_555
H7_18 C9_14 1_555 1_555
H8_14 C9_14 1_555 1_555
H9_14 C9_14 1_555 1_555
C10_14 S3_14 1_555 1_555
H10_14 C10_14 1_555 1_555
H11_14 C10_14 1_555 1_555
H12_14 C10_14 1_555 1_555
S4_18 O18_18 1_555 1_555
O18_18 Ni1_18 1_555 1_555
C11_18 S4_18 1_555 1_555
H13_18 C11_18 1_555 1_555
H14_18 C11_18 1_555 1_555
C12_14 S4_18 1_555 1_555
H16_14 C12_14 1_555 1_555
H18_14 C12_14 1_555 1_555
Ni8_2 O18_18 1_555 1_555
Ni9_8 O11_18 1_555 1_555
Ni9_8 O13_18 1_555 1_555
S1_18 O11_18 1_555 1_555
O7_18 H22_18 1_555 1_555
O7_18 H23_18 1_555 1_555
O8_18 H24_18 1_555 1_555
O8_18 H25_18 1_555 1_555
Ni6_7 O3_18 1_555 1_555
O3_18 C2_18 1_555 1_555
O19_7 C2_18 1_555 1_555
C2_18 C5_18 1_555 1_555
C6_18 C5_18 1_555 1_555
H2_18 C6_18 1_555 1_555
C7_14 C6_18 1_555 1_555
H3_14 C7_14 1_555 1_555
H3_15 C7_15 1_555 1_555
C4_15 H1_15 1_555 1_555
C9_15 S3_15 1_555 1_555
H8_15 C9_15 1_555 1_555
H9_15 C9_15 1_555 1_555
C10_15 S3_15 1_555 1_555
H10_15 C10_15 1_555 1_555
H11_15 C10_15 1_555 1_555
H12_15 C10_15 1_555 1_555
H16_15 C12_15 1_555 1_555
H18_15 C12_15 1_555 1_555
C4_16 H1_16 1_555 1_555
C9_16 S3_16 1_555 1_555
H8_16 C9_16 1_555 1_555
H9_16 C9_16 1_555 1_555
C10_16 S3_16 1_555 1_555
H10_16 C10_16 1_555 1_555
H11_16 C10_16 1_555 1_555
H12_16 C10_16 1_555 1_555
H16_16 C12_16 1_555 1_555
H18_16 C12_16 1_555 1_555
H3_16 C7_16 1_555 1_555
C4_17 H1_17 1_555 1_555
C9_17 S3_17 1_555 1_555
H8_17 C9_17 1_555 1_555
H9_17 C9_17 1_555 1_555
C10_17 S3_17 1_555 1_555
H10_17 C10_17 1_555 1_555
H11_17 C10_17 1_555 1_555
H12_17 C10_17 1_555 1_555
H16_17 C12_17 1_555 1_555
H18_17 C12_17 1_555 1_555
H3_17 C7_17 1_555 1_555
H3_18 C7_18 1_555 1_555
C4_18 H1_18 1_555 1_555
C9_18 S3_18 1_555 1_555
H8_18 C9_18 1_555 1_555
H9_18 C9_18 1_555 1_555
C10_18 S3_18 1_555 1_555
H10_18 C10_18 1_555 1_555
H11_18 C10_18 1_555 1_555
H12_18 C10_18 1_555 1_555
H16_18 C12_18 1_555 1_555
H18_18 C12_18 1_555 1_555

#END
