
###############################################################################
#
# This file contains modified crystal structure data generated from the
# MOF subset of the Cambridge Structural Database (CSD) v543 
# hosted by the Cambridge Crystallographic Data Centre (CCDC).
#
# This work is licensed under the Creative Commons
# Attribution-NonCommercial-ShareAlike 4.0 International License.
# To view a copy of this license, visit
# http://creativecommons.org/licenses/by-nc-sa/4.0/
# or send a letter to
# Creative Commons, PO Box 1866, Mountain View, CA 94042, USA.
#
# CIF created using the CSD Python API on 29 September 2022
# The structure has been converted into the P1 space group
# The structure has a 3D framework
# The original CSD entry GEDLIM is in the tetragonal crystal system
# The framework has been calculated to contain at least 10.0% void space
# The void calculation uses a probe of radius 1.32A, grid spacing 0.4
#
###############################################################################

data_GEDLIM
_chemical_formula_moiety         '(C80 H64 N24 O16 Zn8)n'
_symmetry_cell_setting           triclinic
_symmetry_space_group_name_H-M   'P 1'
_symmetry_Int_Tables_number      1
_space_group_name_Hall           'P 1'
loop_
_symmetry_equiv_pos_site_id
_symmetry_equiv_pos_as_xyz
1 x,y,z
_cell_length_a                   14.5956(16)
_cell_length_b                   14.5956(16)
_cell_length_c                   12.8842(14)
_cell_angle_alpha                90
_cell_angle_beta                 90
_cell_angle_gamma                90
_cell_volume                     2744.74
loop_
_atom_site_label
_atom_site_type_symbol
_atom_site_fract_x
_atom_site_fract_y
_atom_site_fract_z
Zn3 Zn 0.0000 0.5000 0.5000(2)
Zn1 Zn 0.5000 0.0000 0.0000(2)
C11 C 0.3353(3) 0.0802(3) 0.0555(4)
C12 C 0.2734(3) 0.1289(3) 0.1301(3)
C13 C 0.2023(4) 0.1842(4) 0.0934(4)
H9 H 0.1917 0.1886 0.0216
C14 C 0.1465(4) 0.2333(4) 0.1624(4)
H10 H 0.0985 0.2703 0.1380
C15 C 0.1642(3) 0.2256(4) 0.2677(4)
C16 C 0.2337(4) 0.1728(4) 0.3050(4)
H11 H 0.2437 0.1688 0.3769
C17 C 0.2891(4) 0.1254(4) 0.2375(4)
H12 H 0.3380 0.0904 0.2635
C18 C 0.0607(5) 0.2417(4) 0.4212(5)
H13 H 0.0578 0.1788 0.4364
C19 C 0.0947(3) 0.3695(3) 0.3447(4)
C20 C 0.1346(4) 0.4370(4) 0.2734(4)
H14 H 0.0957 0.4430 0.2127
H15 H 0.1951 0.4168 0.2522
H16 H 0.1394 0.4958 0.3081
N4 N 0.0198(3) 0.3048(3) 0.4760(3)
N5 N 0.0417(3) 0.3862(3) 0.4260(3)
N8 N 0.1083(3) 0.2775(3) 0.3395(3)
O3 O 0.4043(2) 0.0401(3) 0.0973(3)
O2 O 0.6819(3) 0.9200(3) 0.9608(3)
Zn1_2 Zn 0.5000 1.0000 1.0000(2)
N7 N 0.4583(3) 0.8862(3) 0.9260(3)
C11_2 C 0.1647(3) 0.5802(3) 0.5555(4)
C12_2 C 0.2266(3) 0.6289(3) 0.6301(3)
C13_2 C 0.2977(4) 0.6842(4) 0.5934(4)
H9_2 H 0.3083 0.6886 0.5216
C14_2 C 0.3535(4) 0.7333(4) 0.6624(4)
H10_2 H 0.4015 0.7703 0.6380
C15_2 C 0.3358(3) 0.7256(4) 0.7677(4)
C16_2 C 0.2663(4) 0.6728(4) 0.8050(4)
H11_2 H 0.2563 0.6688 0.8769
C17_2 C 0.2109(4) 0.6254(4) 0.7375(4)
H12_2 H 0.1620 0.5904 0.7635
C18_2 C 0.4393(5) 0.7417(4) 0.9212(5)
H13_2 H 0.4422 0.6788 0.9364
C19_2 C 0.4053(3) 0.8695(3) 0.8447(4)
C20_2 C 0.3654(4) 0.9370(4) 0.7734(4)
H14_2 H 0.4043 0.9430 0.7127
H15_2 H 0.3049 0.9168 0.7522
H16_2 H 0.3606 0.9958 0.8081
N4_2 N 0.4802(3) 0.8048(3) 0.9760(3)
N8_2 N 0.3917(3) 0.7775(3) 0.8395(3)
O3_2 O 0.0957(2) 0.5401(3) 0.5973(3)
O4 O 0.1819(3) 0.5800(3) 0.4608(3)
Zn1_3 Zn 0.5000 0.0000 1.0000(2)
N6 N 0.5417(3) 0.1138(3) 0.9260(3)
O4_2 O 0.3181(3) 0.0800(3) 0.9608(3)
C1 C 0.6647(3) 0.9198(3) 0.0555(4)
C2 C 0.7266(3) 0.8711(3) 0.1301(3)
C3 C 0.7977(4) 0.8158(4) 0.0934(4)
H1 H 0.8083 0.8114 0.0216
C4 C 0.8535(4) 0.7667(4) 0.1624(4)
H2 H 0.9015 0.7297 0.1380
C5 C 0.8358(3) 0.7744(4) 0.2677(4)
C6 C 0.7663(4) 0.8272(4) 0.3050(4)
H3 H 0.7563 0.8312 0.3769
C7 C 0.7109(4) 0.8746(4) 0.2375(4)
H4 H 0.6620 0.9096 0.2635
C8 C 0.9393(5) 0.7583(4) 0.4212(5)
H5 H 0.9422 0.8212 0.4364
C9 C 0.9053(3) 0.6305(3) 0.3447(4)
C10 C 0.8654(4) 0.5630(4) 0.2734(4)
H6 H 0.9043 0.5570 0.2127
H7 H 0.8049 0.5832 0.2522
H8 H 0.8606 0.5042 0.3081
N1 N 0.9802(3) 0.6952(3) 0.4760(3)
N2 N 0.9583(3) 0.6138(3) 0.4260(3)
N3 N 0.8917(3) 0.7225(3) 0.3395(3)
O1 O 0.5957(2) 0.9599(3) 0.0973(3)
Zn1_4 Zn 0.5000 1.0000 0.0000(2)
Zn3_2 Zn 1.0000 0.5000 0.5000(2)
C1_2 C 0.8353(3) 0.4198(3) 0.5555(4)
C2_2 C 0.7734(3) 0.3711(3) 0.6301(3)
C3_2 C 0.7023(4) 0.3158(4) 0.5934(4)
H1_2 H 0.6917 0.3114 0.5216
C4_2 C 0.6465(4) 0.2667(4) 0.6624(4)
H2_2 H 0.5985 0.2297 0.6380
C5_2 C 0.6642(3) 0.2744(4) 0.7677(4)
C6_2 C 0.7337(4) 0.3272(4) 0.8050(4)
H3_2 H 0.7437 0.3312 0.8769
C7_2 C 0.7891(4) 0.3746(4) 0.7375(4)
H4_2 H 0.8380 0.4096 0.7635
C8_2 C 0.5607(5) 0.2583(4) 0.9212(5)
H5_2 H 0.5578 0.3212 0.9364
C9_2 C 0.5947(3) 0.1305(3) 0.8447(4)
C10_2 C 0.6346(4) 0.0630(4) 0.7734(4)
H6_2 H 0.5957 0.0570 0.7127
H7_2 H 0.6951 0.0832 0.7522
H8_2 H 0.6394 0.0042 0.8081
N1_2 N 0.5198(3) 0.1952(3) 0.9760(3)
N3_2 N 0.6083(3) 0.2225(3) 0.8395(3)
O1_2 O 0.9043(2) 0.4599(3) 0.5973(3)
O2_2 O 0.8181(3) 0.4200(3) 0.4608(3)
Zn3_3 Zn -0.0000 0.5000 0.0000(2)
C1_3 C 0.5802(3) 0.8353(3) 0.5555(4)
C2_3 C 0.6289(3) 0.7734(3) 0.6301(3)
C3_3 C 0.6842(4) 0.7023(4) 0.5934(4)
H1_3 H 0.6886 0.6917 0.5216
C4_3 C 0.7333(4) 0.6465(4) 0.6624(4)
H2_3 H 0.7703 0.5985 0.6380
C5_3 C 0.7256(4) 0.6642(3) 0.7677(4)
C6_3 C 0.6728(4) 0.7337(4) 0.8050(4)
H3_3 H 0.6688 0.7437 0.8769
C7_3 C 0.6254(4) 0.7891(4) 0.7375(4)
H4_3 H 0.5904 0.8380 0.7635
C8_3 C 0.7417(4) 0.5607(5) 0.9212(5)
H5_3 H 0.6788 0.5578 0.9364
C9_3 C 0.8695(3) 0.5947(3) 0.8447(4)
C10_3 C 0.9370(4) 0.6346(4) 0.7734(4)
H6_3 H 0.9430 0.5957 0.7127
H7_3 H 0.9168 0.6951 0.7522
H8_3 H 0.9958 0.6394 0.8081
N1_3 N 0.8048(3) 0.5198(3) 0.9760(3)
N2_2 N 0.8862(3) 0.5417(3) 0.9260(3)
N3_3 N 0.7775(3) 0.6083(3) 0.8395(3)
O1_3 O 0.5401(3) 0.9043(2) 0.5973(3)
O2_3 O 0.5800(3) 0.8181(3) 0.4608(3)
Zn1_5 Zn 0.5000 1.0000 0.5000(2)
N6_2 N 0.3862(3) 0.9583(3) 0.4260(3)
Zn3_4 Zn 1.0000 0.5000 1.0000(2)
C11_3 C 0.0802(3) 0.6647(3) 0.0555(4)
C12_3 C 0.1289(3) 0.7266(3) 0.1301(3)
C13_3 C 0.1842(4) 0.7977(4) 0.0934(4)
H9_3 H 0.1886 0.8083 0.0216
C14_3 C 0.2333(4) 0.8535(4) 0.1624(4)
H10_3 H 0.2703 0.9015 0.1380
C15_3 C 0.2256(4) 0.8358(3) 0.2677(4)
C16_3 C 0.1728(4) 0.7663(4) 0.3050(4)
H11_3 H 0.1688 0.7563 0.3769
C17_3 C 0.1254(4) 0.7109(4) 0.2375(4)
H12_3 H 0.0904 0.6620 0.2635
C18_3 C 0.2417(4) 0.9393(5) 0.4212(5)
H13_3 H 0.1788 0.9422 0.4364
C19_3 C 0.3695(3) 0.9053(3) 0.3447(4)
C20_3 C 0.4370(4) 0.8654(4) 0.2734(4)
H14_3 H 0.4430 0.9043 0.2127
H15_3 H 0.4168 0.8049 0.2522
H16_3 H 0.4958 0.8606 0.3081
N4_3 N 0.3048(3) 0.9802(3) 0.4760(3)
N8_3 N 0.2775(3) 0.8917(3) 0.3395(3)
O3_3 O 0.0401(3) 0.5957(2) 0.0973(3)
O2_4 O 0.9200(3) 0.3181(3) 0.9608(3)
Zn3_5 Zn -0.0000 0.5000 1.0000(2)
Zn1_6 Zn 0.5000 0.0000 0.5000(2)
C11_4 C 0.4198(3) 0.1647(3) 0.5555(4)
C12_4 C 0.3711(3) 0.2266(3) 0.6301(3)
C13_4 C 0.3158(4) 0.2977(4) 0.5934(4)
H9_4 H 0.3114 0.3083 0.5216
C14_4 C 0.2667(4) 0.3535(4) 0.6624(4)
H10_4 H 0.2297 0.4015 0.6380
C15_4 C 0.2744(4) 0.3358(3) 0.7677(4)
C16_4 C 0.3272(4) 0.2663(4) 0.8050(4)
H11_4 H 0.3312 0.2563 0.8769
C17_4 C 0.3746(4) 0.2109(4) 0.7375(4)
H12_4 H 0.4096 0.1620 0.7635
C18_4 C 0.2583(4) 0.4393(5) 0.9212(5)
H13_4 H 0.3212 0.4422 0.9364
C19_4 C 0.1305(3) 0.4053(3) 0.8447(4)
C20_4 C 0.0630(4) 0.3654(4) 0.7734(4)
H14_4 H 0.0570 0.4043 0.7127
H15_4 H 0.0832 0.3049 0.7522
H16_4 H 0.0042 0.3606 0.8081
N4_4 N 0.1952(3) 0.4802(3) 0.9760(3)
N5_2 N 0.1138(3) 0.4583(3) 0.9260(3)
N7_2 N 0.6138(3) 0.0417(3) 0.4260(3)
N8_4 N 0.2225(3) 0.3917(3) 0.8395(3)
O3_4 O 0.4599(3) 0.0957(2) 0.5973(3)
O4_3 O 0.4200(3) 0.1819(3) 0.4608(3)
Zn3_6 Zn 1.0000 0.5000 0.0000(2)
O4_4 O 0.0800(3) 0.6819(3) 0.9608(3)
C1_4 C 0.9198(3) 0.3353(3) 0.0555(4)
C2_4 C 0.8711(3) 0.2734(3) 0.1301(3)
C3_4 C 0.8158(4) 0.2023(4) 0.0934(4)
H1_4 H 0.8114 0.1917 0.0216
C4_4 C 0.7667(4) 0.1465(4) 0.1624(4)
H2_4 H 0.7297 0.0985 0.1380
C5_4 C 0.7744(4) 0.1642(3) 0.2677(4)
C6_4 C 0.8272(4) 0.2337(4) 0.3050(4)
H3_4 H 0.8312 0.2437 0.3769
C7_4 C 0.8746(4) 0.2891(4) 0.2375(4)
H4_4 H 0.9096 0.3380 0.2635
C8_4 C 0.7583(4) 0.0607(5) 0.4212(5)
H5_4 H 0.8212 0.0578 0.4364
C9_4 C 0.6305(3) 0.0947(3) 0.3447(4)
C10_4 C 0.5630(4) 0.1346(4) 0.2734(4)
H6_4 H 0.5570 0.0957 0.2127
H7_4 H 0.5832 0.1951 0.2522
H8_4 H 0.5042 0.1394 0.3081
N1_4 N 0.6952(3) 0.0198(3) 0.4760(3)
N3_4 N 0.7225(3) 0.1083(3) 0.3395(3)
O1_4 O 0.9599(3) 0.4043(2) 0.0973(3)
loop_
_geom_bond_atom_site_label_1
_geom_bond_atom_site_label_2
_geom_bond_site_symmetry_1
_geom_bond_site_symmetry_2
C11 C12 1_555 1_555
C12 C13 1_555 1_555
C13 H9 1_555 1_555
C14 C13 1_555 1_555
H10 C14 1_555 1_555
C15 C14 1_555 1_555
C16 C15 1_555 1_555
H11 C16 1_555 1_555
C17 C12 1_555 1_555
H12 C17 1_555 1_555
C18 H13 1_555 1_555
C19 C20 1_555 1_555
C20 H14 1_555 1_555
H15 C20 1_555 1_555
H16 C20 1_555 1_555
N4 C18 1_555 1_555
N5 C19 1_555 1_555
N8 C15 1_555 1_555
O3 Zn1 1_555 1_555
Zn3 N5 1_555 1_555
C11 O3 1_555 1_555
C16 C17 1_555 1_555
C18 N8 1_555 1_555
C19 N8 1_555 1_555
N4 N5 1_555 1_555
N7 Zn1_2 1_555 1_555
C11_2 C12_2 1_555 1_555
C12_2 C13_2 1_555 1_555
C13_2 H9_2 1_555 1_555
C14_2 C13_2 1_555 1_555
H10_2 C14_2 1_555 1_555
C15_2 C14_2 1_555 1_555
C16_2 C15_2 1_555 1_555
H11_2 C16_2 1_555 1_555
C17_2 C12_2 1_555 1_555
H12_2 C17_2 1_555 1_555
C18_2 H13_2 1_555 1_555
C19_2 C20_2 1_555 1_555
C20_2 H14_2 1_555 1_555
H15_2 C20_2 1_555 1_555
H16_2 C20_2 1_555 1_555
N4_2 C18_2 1_555 1_555
N7 C19_2 1_555 1_555
N8_2 C15_2 1_555 1_555
O3_2 Zn3 1_555 1_555
O4 C11_2 1_555 1_555
C11_2 O3_2 1_555 1_555
C16_2 C17_2 1_555 1_555
C18_2 N8_2 1_555 1_555
C19_2 N8_2 1_555 1_555
N4_2 N7 1_555 1_555
N6 Zn1_3 1_555 1_555
C1 C2 1_555 1_555
C2 C3 1_555 1_555
C3 H1 1_555 1_555
C4 C3 1_555 1_555
H2 C4 1_555 1_555
C5 C4 1_555 1_555
C6 C5 1_555 1_555
H3 C6 1_555 1_555
C7 C2 1_555 1_555
H4 C7 1_555 1_555
C8 H5 1_555 1_555
C9 C10 1_555 1_555
C10 H6 1_555 1_555
H7 C10 1_555 1_555
H8 C10 1_555 1_555
N1 C8 1_555 1_555
N2 C9 1_555 1_555
N3 C5 1_555 1_555
O1 C1 1_555 1_555
Zn1_4 O1 1_555 1_555
Zn3_2 N2 1_555 1_555
C6 C7 1_555 1_555
C8 N3 1_555 1_555
C9 N3 1_555 1_555
N1 N2 1_555 1_555
C1_2 C2_2 1_555 1_555
C2_2 C3_2 1_555 1_555
C3_2 H1_2 1_555 1_555
C4_2 C3_2 1_555 1_555
H2_2 C4_2 1_555 1_555
C5_2 C4_2 1_555 1_555
C6_2 C5_2 1_555 1_555
H3_2 C6_2 1_555 1_555
C7_2 C2_2 1_555 1_555
H4_2 C7_2 1_555 1_555
C8_2 H5_2 1_555 1_555
C9_2 C10_2 1_555 1_555
C10_2 H6_2 1_555 1_555
H7_2 C10_2 1_555 1_555
H8_2 C10_2 1_555 1_555
N1_2 C8_2 1_555 1_555
N6 C9_2 1_555 1_555
N3_2 C5_2 1_555 1_555
O1_2 C1_2 1_555 1_555
O2_2 C1_2 1_555 1_555
Zn3_2 O1_2 1_555 1_555
C6_2 C7_2 1_555 1_555
C8_2 N3_2 1_555 1_555
C9_2 N3_2 1_555 1_555
N1_2 N6 1_555 1_555
C1_3 C2_3 1_555 1_555
C2_3 C3_3 1_555 1_555
C3_3 H1_3 1_555 1_555
C4_3 C3_3 1_555 1_555
H2_3 C4_3 1_555 1_555
C5_3 C4_3 1_555 1_555
C6_3 C5_3 1_555 1_555
H3_3 C6_3 1_555 1_555
C7_3 C2_3 1_555 1_555
H4_3 C7_3 1_555 1_555
C8_3 H5_3 1_555 1_555
C9_3 C10_3 1_555 1_555
C10_3 H6_3 1_555 1_555
H7_3 C10_3 1_555 1_555
H8_3 C10_3 1_555 1_555
N1_3 C8_3 1_555 1_555
N2_2 C9_3 1_555 1_555
N3_3 C5_3 1_555 1_555
O1_3 C1_3 1_555 1_555
O2_3 C1_3 1_555 1_555
Zn1_5 O1_3 1_555 1_555
N6_2 Zn1_5 1_555 1_555
Zn3_4 N2_2 1_555 1_555
C6_3 C7_3 1_555 1_555
C8_3 N3_3 1_555 1_555
C9_3 N3_3 1_555 1_555
N1_3 N2_2 1_555 1_555
C11_3 C12_3 1_555 1_555
C12_3 C13_3 1_555 1_555
C13_3 H9_3 1_555 1_555
C14_3 C13_3 1_555 1_555
H10_3 C14_3 1_555 1_555
C15_3 C14_3 1_555 1_555
C16_3 C15_3 1_555 1_555
H11_3 C16_3 1_555 1_555
C17_3 C12_3 1_555 1_555
H12_3 C17_3 1_555 1_555
C18_3 H13_3 1_555 1_555
C19_3 C20_3 1_555 1_555
C20_3 H14_3 1_555 1_555
H15_3 C20_3 1_555 1_555
H16_3 C20_3 1_555 1_555
N4_3 C18_3 1_555 1_555
N6_2 C19_3 1_555 1_555
N8_3 C15_3 1_555 1_555
O3_3 Zn3_3 1_555 1_555
C11_3 O3_3 1_555 1_555
C16_3 C17_3 1_555 1_555
C18_3 N8_3 1_555 1_555
C19_3 N8_3 1_555 1_555
N4_3 N6_2 1_555 1_555
C11_4 C12_4 1_555 1_555
C12_4 C13_4 1_555 1_555
C13_4 H9_4 1_555 1_555
C14_4 C13_4 1_555 1_555
H10_4 C14_4 1_555 1_555
C15_4 C14_4 1_555 1_555
C16_4 C15_4 1_555 1_555
H11_4 C16_4 1_555 1_555
C17_4 C12_4 1_555 1_555
H12_4 C17_4 1_555 1_555
C18_4 H13_4 1_555 1_555
C19_4 C20_4 1_555 1_555
C20_4 H14_4 1_555 1_555
H15_4 C20_4 1_555 1_555
H16_4 C20_4 1_555 1_555
N4_4 C18_4 1_555 1_555
N5_2 C19_4 1_555 1_555
N7_2 Zn1_6 1_555 1_555
N8_4 C15_4 1_555 1_555
O3_4 Zn1_6 1_555 1_555
O4_3 C11_4 1_555 1_555
Zn3_5 N5_2 1_555 1_555
C11_4 O3_4 1_555 1_555
C16_4 C17_4 1_555 1_555
C18_4 N8_4 1_555 1_555
C19_4 N8_4 1_555 1_555
N4_4 N5_2 1_555 1_555
C1_4 C2_4 1_555 1_555
C2_4 C3_4 1_555 1_555
C3_4 H1_4 1_555 1_555
C4_4 C3_4 1_555 1_555
H2_4 C4_4 1_555 1_555
C5_4 C4_4 1_555 1_555
C6_4 C5_4 1_555 1_555
H3_4 C6_4 1_555 1_555
C7_4 C2_4 1_555 1_555
H4_4 C7_4 1_555 1_555
C8_4 H5_4 1_555 1_555
C9_4 C10_4 1_555 1_555
C10_4 H6_4 1_555 1_555
H7_4 C10_4 1_555 1_555
H8_4 C10_4 1_555 1_555
N1_4 C8_4 1_555 1_555
N7_2 C9_4 1_555 1_555
N3_4 C5_4 1_555 1_555
O1_4 C1_4 1_555 1_555
Zn3_6 O1_4 1_555 1_555
C6_4 C7_4 1_555 1_555
C8_4 N3_4 1_555 1_555
C9_4 N3_4 1_555 1_555
N1_4 N7_2 1_555 1_555

#END
