
###############################################################################
#
# This file contains modified crystal structure data generated from the
# MOF subset of the Cambridge Structural Database (CSD) v543 
# hosted by the Cambridge Crystallographic Data Centre (CCDC).
#
# This work is licensed under the Creative Commons
# Attribution-NonCommercial-ShareAlike 4.0 International License.
# To view a copy of this license, visit
# http://creativecommons.org/licenses/by-nc-sa/4.0/
# or send a letter to
# Creative Commons, PO Box 1866, Mountain View, CA 94042, USA.
#
# CIF created using the CSD Python API on 29 September 2022
# The structure has been converted into the P1 space group
# The structure has a 3D framework
# The original CSD entry GEDPEN is in the cubic crystal system
# The framework has been calculated to contain at least 10.0% void space
# The void calculation uses a probe of radius 1.32A, grid spacing 0.4
#
###############################################################################

data_GEDPEN
_chemical_formula_moiety         '(C1152 H384 F192 Hf37 O242)n'
_symmetry_cell_setting           triclinic
_symmetry_space_group_name_H-M   'P 1'
_symmetry_Int_Tables_number      1
_space_group_name_Hall           'P 1'
loop_
_symmetry_equiv_pos_site_id
_symmetry_equiv_pos_as_xyz
1 x,y,z
_cell_length_a                   39.828(14)
_cell_length_b                   39.828(14)
_cell_length_c                   39.828(14)
_cell_angle_alpha                90
_cell_angle_beta                 90
_cell_angle_gamma                90
_cell_volume                     63177.9
loop_
_atom_site_label
_atom_site_type_symbol
_atom_site_fract_x
_atom_site_fract_y
_atom_site_fract_z
O4 O 0.5771(2) 0.0352(2) 0.1254(2)
C10 C 0.5472(4) 0.0472(4) 0.1211(7)
C11 C 0.5202(4) 0.0202(4) 0.1182(5)
O6 O 0.5352(2) 0.0771(2) 0.1254(2)
C22 C 0.4850(4) 0.0304(5) 0.1172(6)
H7 H 0.4790 0.0534 0.1190
C23 C 0.4598(5) 0.0055(5) 0.1135(6)
H8 H 0.4366 0.0111 0.1132
O10 O 0.1254(2) 0.0771(2) 0.5352(2)
C34 C 0.1211(7) 0.0472(4) 0.5472(4)
C35 C 0.1182(5) 0.0202(4) 0.5202(4)
C36 C 0.1172(6) 0.0304(5) 0.4850(4)
H11 H 0.1190 0.0534 0.4790
C37 C 0.1135(6) 0.0055(5) 0.4598(5)
H12 H 0.1132 0.0111 0.4366
O12 O 0.1254(2) 0.0352(2) 0.5771(2)
Hf5 Hf 0.1250 0.06297(2) 0.6250
Hf7 Hf 0.6250 0.06297(2) 0.1250
Hf8 Hf 0.1250 0.1250 0.56297(2)
Hf9 Hf 0.56297(2) 0.1250 0.1250
O14 O 0.1246(2) 0.0771(2) 0.7148(2)
C58 C 0.1289(7) 0.0472(4) 0.7028(4)
C59 C 0.1318(5) 0.0202(4) 0.7298(4)
C60 C 0.1328(6) 0.0304(5) 0.7650(4)
H19 H 0.1310 0.0534 0.7710
C61 C 0.1365(6) 0.0055(5) 0.7902(5)
H20 H 0.1368 0.0111 0.8134
O16 O 0.1246(2) 0.0352(2) 0.6729(2)
Hf6 Hf 0.1250 0.1250 0.68703(2)
Hf1 Hf 0.18703(2) 0.6250 0.1250
F1 F 0.3923(5) 0.8092(4) 0.0958(6)
O1 O 0.2148(2) 0.6729(2) 0.1254(2)
O2 O 0.1551(4) 0.6551(4) 0.0949(4)
O3 O 0.1568(3) 0.6568(3) 0.1568(3)
C1 C 0.2028(4) 0.7028(4) 0.1211(7)
C2 C 0.2298(4) 0.7298(4) 0.1182(5)
C3 C 0.2650(4) 0.7196(5) 0.1172(6)
H1 H 0.2710 0.6966 0.1190
C4 C 0.2902(5) 0.7445(5) 0.1135(6)
H2 H 0.3134 0.7389 0.1132
C5 C 0.2790(5) 0.7790(5) 0.1103(9)
C6 C 0.3050(5) 0.8050(5) 0.1058(10)
C7 C 0.3258(5) 0.8258(5) 0.1042(14)
C8 C 0.3501(3) 0.8501(3) 0.0959(7)
C9 C 0.3840(2) 0.8416(3) 0.0959(7)
F2 F 0.4408(4) 0.8577(5) 0.0958(6)
C12 C 0.5304(5) 0.9850(4) 0.1172(6)
H3 H 0.5534 0.9790 0.1190
C13 C 0.5055(5) 0.9598(5) 0.1135(6)
H4 H 0.5111 0.9366 0.1132
C14 C 0.4710(5) 0.9710(5) 0.1103(9)
C15 C 0.4450(5) 0.9450(5) 0.1058(10)
C16 C 0.4242(5) 0.9242(5) 0.1042(14)
C17 C 0.3999(3) 0.8999(3) 0.0959(7)
C18 C 0.4084(3) 0.8660(2) 0.0959(7)
F3 F 0.3092(4) 0.8923(5) 0.0958(6)
O5 O 0.1729(2) 0.7148(2) 0.1254(2)
C19 C 0.2196(5) 0.7650(4) 0.1172(6)
H5 H 0.1966 0.7710 0.1190
C20 C 0.2445(5) 0.7902(5) 0.1135(6)
H6 H 0.2389 0.8134 0.1132
C21 C 0.3416(3) 0.8840(2) 0.0959(7)
F4 F 0.3577(5) 0.9408(4) 0.0958(6)
C24 C 0.3660(2) 0.9084(3) 0.0959(7)
O7 O 0.1551(4) 0.5949(4) 0.1551(4)
O8 O 0.1568(3) 0.5932(3) 0.0932(3)
Hf2 Hf 0.1250 0.68703(2) 0.1250
F5 F 0.0958(6) 0.8923(5) 0.3092(4)
O9 O 0.1254(2) 0.7148(2) 0.1729(2)
C25 C 0.1211(7) 0.7028(4) 0.2028(4)
C26 C 0.1182(5) 0.7298(4) 0.2298(4)
C27 C 0.1172(6) 0.7650(4) 0.2196(5)
H9 H 0.1190 0.7710 0.1966
C28 C 0.1135(6) 0.7902(5) 0.2445(5)
H10 H 0.1132 0.8134 0.2389
C29 C 0.1103(9) 0.7790(5) 0.2790(5)
C30 C 0.1058(10) 0.8050(5) 0.3050(5)
C31 C 0.1042(14) 0.8258(5) 0.3258(5)
C32 C 0.0959(7) 0.8501(3) 0.3501(3)
C33 C 0.0959(7) 0.8840(2) 0.3416(3)
F6 F 0.0958(6) 0.9408(4) 0.3577(5)
C38 C 0.1103(9) 0.9710(5) 0.4710(5)
C39 C 0.1058(10) 0.9450(5) 0.4450(5)
C40 C 0.1042(14) 0.9242(5) 0.4242(5)
C41 C 0.0959(7) 0.8999(3) 0.3999(3)
C42 C 0.0959(7) 0.9084(3) 0.3660(2)
F7 F 0.0958(6) 0.8092(4) 0.3923(5)
O11 O 0.1254(2) 0.6729(2) 0.2148(2)
C43 C 0.1172(6) 0.7196(5) 0.2650(4)
H13 H 0.1190 0.6966 0.2710
C44 C 0.1135(6) 0.7445(5) 0.2902(5)
H14 H 0.1132 0.7389 0.3134
C45 C 0.0959(7) 0.8416(3) 0.3840(2)
F8 F 0.0958(6) 0.8577(5) 0.4408(4)
C46 C 0.1172(6) 0.9850(4) 0.5304(5)
H15 H 0.1190 0.9790 0.5534
C47 C 0.1135(6) 0.9598(5) 0.5055(5)
H16 H 0.1132 0.9366 0.5111
C48 C 0.0959(7) 0.8660(2) 0.4084(3)
Hf3 Hf 0.1250 0.56297(2) 0.1250
O13 O 0.1246(2) 0.7148(2) 0.0771(2)
C49 C 0.1289(7) 0.7028(4) 0.0472(4)
C50 C 0.1318(5) 0.7298(4) 0.0202(4)
C51 C 0.1328(6) 0.7650(4) 0.0304(5)
H17 H 0.1310 0.7710 0.0534
C52 C 0.1365(6) 0.7902(5) 0.0055(5)
H18 H 0.1368 0.8134 0.0111
O15 O 0.1246(2) 0.6729(2) 0.0352(2)
Hf10 Hf 0.1250 0.6250 0.18703(2)
Hf11 Hf 0.1250 0.6250 0.06297(2)
O17 O 0.2148(2) 0.5771(2) 0.1246(2)
O18 O 0.1254(2) 0.5352(2) 0.0771(2)
O19 O 0.1246(2) 0.5352(2) 0.1729(2)
O20 O 0.0771(2) 0.5352(2) 0.1254(2)
O21 O 0.2148(2) 0.6246(2) 0.0771(2)
O22 O 0.0771(2) 0.7148(2) 0.1246(2)
O23 O 0.2148(2) 0.6254(2) 0.1729(2)
O24 O 0.1729(2) 0.5352(2) 0.1246(2)
O25 O 0.0949(4) 0.5949(4) 0.0949(4)
O26 O 0.0949(4) 0.6551(4) 0.1551(4)
O27 O 0.0932(3) 0.5932(3) 0.1568(3)
O28 O 0.0932(3) 0.6568(3) 0.0932(3)
F9 F 0.1542(6) 0.8923(5) 0.9408(4)
C53 C 0.1397(9) 0.7790(5) 0.9710(5)
C54 C 0.1442(10) 0.8050(5) 0.9450(5)
C55 C 0.1458(14) 0.8258(5) 0.9242(5)
C56 C 0.1541(7) 0.8501(3) 0.8999(3)
C57 C 0.1541(7) 0.8840(2) 0.9084(3)
F10 F 0.1542(6) 0.9408(4) 0.8923(5)
C62 C 0.1397(9) 0.9710(5) 0.7790(5)
C63 C 0.1442(10) 0.9450(5) 0.8050(5)
C64 C 0.1458(14) 0.9242(5) 0.8258(5)
C65 C 0.1541(7) 0.8999(3) 0.8501(3)
C66 C 0.1541(7) 0.9084(3) 0.8840(2)
F11 F 0.1542(6) 0.8092(4) 0.8577(5)
C67 C 0.1328(6) 0.7196(5) 0.9850(4)
H21 H 0.1310 0.6966 0.9790
C68 C 0.1365(6) 0.7445(5) 0.9598(5)
H22 H 0.1368 0.7389 0.9366
C69 C 0.1541(7) 0.8416(3) 0.8660(2)
F12 F 0.1542(6) 0.8577(5) 0.8092(4)
C70 C 0.1328(6) 0.9850(4) 0.7196(5)
H23 H 0.1310 0.9790 0.6966
C71 C 0.1365(6) 0.9598(5) 0.7445(5)
H24 H 0.1368 0.9366 0.7389
C72 C 0.1541(7) 0.8660(2) 0.8416(3)
Hf1_2 Hf 0.06297(2) 0.6250 0.1250
O1_2 O 0.0352(2) 0.5771(2) 0.1254(2)
C1_2 C 0.0472(4) 0.5472(4) 0.1211(7)
C2_2 C 0.0202(4) 0.5202(4) 0.1182(5)
C19_2 C 0.0304(5) 0.4850(4) 0.1172(6)
H5_2 H 0.0534 0.4790 0.1190
C20_2 C 0.0055(5) 0.4598(5) 0.1135(6)
H6_2 H 0.0111 0.4366 0.1132
F5_2 F 0.1542(6) 0.3577(5) 0.3092(4)
C25_2 C 0.1289(7) 0.5472(4) 0.2028(4)
C26_2 C 0.1318(5) 0.5202(4) 0.2298(4)
C27_2 C 0.1328(6) 0.4850(4) 0.2196(5)
H9_2 H 0.1310 0.4790 0.1966
C28_2 C 0.1365(6) 0.4598(5) 0.2445(5)
H10_2 H 0.1368 0.4366 0.2389
C29_2 C 0.1397(9) 0.4710(5) 0.2790(5)
C30_2 C 0.1442(10) 0.4450(5) 0.3050(5)
C31_2 C 0.1458(14) 0.4242(5) 0.3258(5)
C32_2 C 0.1541(7) 0.3999(3) 0.3501(3)
C33_2 C 0.1541(7) 0.3660(2) 0.3416(3)
F6_2 F 0.1542(6) 0.3092(4) 0.3577(5)
O10_2 O 0.1246(2) 0.1729(2) 0.5352(2)
C34_2 C 0.1289(7) 0.2028(4) 0.5472(4)
C35_2 C 0.1318(5) 0.2298(4) 0.5202(4)
C36_2 C 0.1328(6) 0.2196(5) 0.4850(4)
H11_2 H 0.1310 0.1966 0.4790
C37_2 C 0.1365(6) 0.2445(5) 0.4598(5)
H12_2 H 0.1368 0.2389 0.4366
C38_2 C 0.1397(9) 0.2790(5) 0.4710(5)
C39_2 C 0.1442(10) 0.3050(5) 0.4450(5)
C40_2 C 0.1458(14) 0.3258(5) 0.4242(5)
C41_2 C 0.1541(7) 0.3501(3) 0.3999(3)
C42_2 C 0.1541(7) 0.3416(3) 0.3660(2)
F7_2 F 0.1542(6) 0.4408(4) 0.3923(5)
O11_2 O 0.1246(2) 0.5771(2) 0.2148(2)
C43_2 C 0.1328(6) 0.5304(5) 0.2650(4)
H13_2 H 0.1310 0.5534 0.2710
C44_2 C 0.1365(6) 0.5055(5) 0.2902(5)
H14_2 H 0.1368 0.5111 0.3134
C45_2 C 0.1541(7) 0.4084(3) 0.3840(2)
F8_2 F 0.1542(6) 0.3923(5) 0.4408(4)
O12_2 O 0.1246(2) 0.2148(2) 0.5771(2)
C46_2 C 0.1328(6) 0.2650(4) 0.5304(5)
H15_2 H 0.1310 0.2710 0.5534
C47_2 C 0.1365(6) 0.2902(5) 0.5055(5)
H16_2 H 0.1368 0.3134 0.5111
C48_2 C 0.1541(7) 0.3840(2) 0.4084(3)
C49_2 C 0.1211(7) 0.5472(4) 0.0472(4)
C50_2 C 0.1182(5) 0.5202(4) 0.0202(4)
C51_2 C 0.1172(6) 0.4850(4) 0.0304(5)
H17_2 H 0.1190 0.4790 0.0534
C52_2 C 0.1135(6) 0.4598(5) 0.0055(5)
H18_2 H 0.1132 0.4366 0.0111
O15_2 O 0.1254(2) 0.5771(2) 0.0352(2)
Hf5_2 Hf 0.1250 0.18703(2) 0.6250
O17_2 O 0.0352(2) 0.6729(2) 0.1246(2)
O21_2 O 0.0352(2) 0.6254(2) 0.0771(2)
O23_2 O 0.0352(2) 0.6246(2) 0.1729(2)
F9_2 F 0.0958(6) 0.3577(5) 0.9408(4)
C53_2 C 0.1103(9) 0.4710(5) 0.9710(5)
C54_2 C 0.1058(10) 0.4450(5) 0.9450(5)
C55_2 C 0.1042(14) 0.4242(5) 0.9242(5)
C56_2 C 0.0959(7) 0.3999(3) 0.8999(3)
C57_2 C 0.0959(7) 0.3660(2) 0.9084(3)
F10_2 F 0.0958(6) 0.3092(4) 0.8923(5)
O14_2 O 0.1254(2) 0.1729(2) 0.7148(2)
C58_2 C 0.1211(7) 0.2028(4) 0.7028(4)
C59_2 C 0.1182(5) 0.2298(4) 0.7298(4)
C60_2 C 0.1172(6) 0.2196(5) 0.7650(4)
H19_2 H 0.1190 0.1966 0.7710
C61_2 C 0.1135(6) 0.2445(5) 0.7902(5)
H20_2 H 0.1132 0.2389 0.8134
C62_2 C 0.1103(9) 0.2790(5) 0.7790(5)
C63_2 C 0.1058(10) 0.3050(5) 0.8050(5)
C64_2 C 0.1042(14) 0.3258(5) 0.8258(5)
C65_2 C 0.0959(7) 0.3501(3) 0.8501(3)
C66_2 C 0.0959(7) 0.3416(3) 0.8840(2)
F11_2 F 0.0958(6) 0.4408(4) 0.8577(5)
C67_2 C 0.1172(6) 0.5304(5) 0.9850(4)
H21_2 H 0.1190 0.5534 0.9790
C68_2 C 0.1135(6) 0.5055(5) 0.9598(5)
H22_2 H 0.1132 0.5111 0.9366
C69_2 C 0.0959(7) 0.4084(3) 0.8660(2)
F12_2 F 0.0958(6) 0.3923(5) 0.8092(4)
O16_2 O 0.1254(2) 0.2148(2) 0.6729(2)
C70_2 C 0.1172(6) 0.2650(4) 0.7196(5)
H23_2 H 0.1190 0.2710 0.6966
C71_2 C 0.1135(6) 0.2902(5) 0.7445(5)
H24_2 H 0.1132 0.3134 0.7389
C72_2 C 0.0959(7) 0.3840(2) 0.8416(3)
F1_2 F 0.8577(5) 0.4408(4) 0.0958(6)
C3_2 C 0.9850(4) 0.5304(5) 0.1172(6)
H1_2 H 0.9790 0.5534 0.1190
C4_2 C 0.9598(5) 0.5055(5) 0.1135(6)
H2_2 H 0.9366 0.5111 0.1132
C5_2 C 0.9710(5) 0.4710(5) 0.1103(9)
C6_2 C 0.9450(5) 0.4450(5) 0.1058(10)
C7_2 C 0.9242(5) 0.4242(5) 0.1042(14)
C8_2 C 0.8999(3) 0.3999(3) 0.0959(7)
C9_2 C 0.8660(2) 0.4084(3) 0.0959(7)
F2_2 F 0.8092(4) 0.3923(5) 0.0958(6)
O4_2 O 0.6729(2) 0.2148(2) 0.1254(2)
C10_2 C 0.7028(4) 0.2028(4) 0.1211(7)
C11_2 C 0.7298(4) 0.2298(4) 0.1182(5)
C12_2 C 0.7196(5) 0.2650(4) 0.1172(6)
H3_2 H 0.6966 0.2710 0.1190
C13_2 C 0.7445(5) 0.2902(5) 0.1135(6)
H4_2 H 0.7389 0.3134 0.1132
C14_2 C 0.7790(5) 0.2790(5) 0.1103(9)
C15_2 C 0.8050(5) 0.3050(5) 0.1058(10)
C16_2 C 0.8258(5) 0.3258(5) 0.1042(14)
C17_2 C 0.8501(3) 0.3501(3) 0.0959(7)
C18_2 C 0.8416(3) 0.3840(2) 0.0959(7)
F3_2 F 0.9408(4) 0.3577(5) 0.0958(6)
C21_2 C 0.9084(3) 0.3660(2) 0.0959(7)
F4_2 F 0.8923(5) 0.3092(4) 0.0958(6)
O6_2 O 0.7148(2) 0.1729(2) 0.1254(2)
C22_2 C 0.7650(4) 0.2196(5) 0.1172(6)
H7_2 H 0.7710 0.1966 0.1190
C23_2 C 0.7902(5) 0.2445(5) 0.1135(6)
H8_2 H 0.8134 0.2389 0.1132
C24_2 C 0.8840(2) 0.3416(3) 0.0959(7)
Hf7_2 Hf 0.6250 0.18703(2) 0.1250
Hf9_2 Hf 0.68703(2) 0.1250 0.1250
F1_3 F 0.3923(5) 0.4408(4) 0.1542(6)
C1_3 C 0.2028(4) 0.5472(4) 0.1289(7)
C2_3 C 0.2298(4) 0.5202(4) 0.1318(5)
C3_3 C 0.2650(4) 0.5304(5) 0.1328(6)
H1_3 H 0.2710 0.5534 0.1310
C4_3 C 0.2902(5) 0.5055(5) 0.1365(6)
H2_3 H 0.3134 0.5111 0.1368
C5_3 C 0.2790(5) 0.4710(5) 0.1397(9)
C6_3 C 0.3050(5) 0.4450(5) 0.1442(10)
C7_3 C 0.3258(5) 0.4242(5) 0.1458(14)
C8_3 C 0.3501(3) 0.3999(3) 0.1541(7)
C9_3 C 0.3840(2) 0.4084(3) 0.1541(7)
F2_3 F 0.4408(4) 0.3923(5) 0.1542(6)
O4_3 O 0.5771(2) 0.2148(2) 0.1246(2)
C10_3 C 0.5472(4) 0.2028(4) 0.1289(7)
C11_3 C 0.5202(4) 0.2298(4) 0.1318(5)
C12_3 C 0.5304(5) 0.2650(4) 0.1328(6)
H3_3 H 0.5534 0.2710 0.1310
C13_3 C 0.5055(5) 0.2902(5) 0.1365(6)
H4_3 H 0.5111 0.3134 0.1368
C14_3 C 0.4710(5) 0.2790(5) 0.1397(9)
C15_3 C 0.4450(5) 0.3050(5) 0.1442(10)
C16_3 C 0.4242(5) 0.3258(5) 0.1458(14)
C17_3 C 0.3999(3) 0.3501(3) 0.1541(7)
C18_3 C 0.4084(3) 0.3840(2) 0.1541(7)
F3_3 F 0.3092(4) 0.3577(5) 0.1542(6)
C19_3 C 0.2196(5) 0.4850(4) 0.1328(6)
H5_3 H 0.1966 0.4790 0.1310
C20_3 C 0.2445(5) 0.4598(5) 0.1365(6)
H6_3 H 0.2389 0.4366 0.1368
C21_3 C 0.3416(3) 0.3660(2) 0.1541(7)
F4_3 F 0.3577(5) 0.3092(4) 0.1542(6)
O6_3 O 0.5352(2) 0.1729(2) 0.1246(2)
C22_3 C 0.4850(4) 0.2196(5) 0.1328(6)
H7_3 H 0.4790 0.1966 0.1310
C23_3 C 0.4598(5) 0.2445(5) 0.1365(6)
H8_3 H 0.4366 0.2389 0.1368
C24_3 C 0.3660(2) 0.3416(3) 0.1541(7)
C1_4 C 0.0472(4) 0.7028(4) 0.1289(7)
C2_4 C 0.0202(4) 0.7298(4) 0.1318(5)
C19_4 C 0.0304(5) 0.7650(4) 0.1328(6)
H5_4 H 0.0534 0.7710 0.1310
C20_4 C 0.0055(5) 0.7902(5) 0.1365(6)
H6_4 H 0.0111 0.8134 0.1368
O4_4 O 0.6729(2) 0.0352(2) 0.1246(2)
C10_4 C 0.7028(4) 0.0472(4) 0.1289(7)
C11_4 C 0.7298(4) 0.0202(4) 0.1318(5)
O6_4 O 0.7148(2) 0.0771(2) 0.1246(2)
C22_4 C 0.7650(4) 0.0304(5) 0.1328(6)
H7_4 H 0.7710 0.0534 0.1310
C23_4 C 0.7902(5) 0.0055(5) 0.1365(6)
H8_4 H 0.8134 0.0111 0.1368
F1_4 F 0.8577(5) 0.8092(4) 0.1542(6)
C3_4 C 0.9850(4) 0.7196(5) 0.1328(6)
H1_4 H 0.9790 0.6966 0.1310
C4_4 C 0.9598(5) 0.7445(5) 0.1365(6)
H2_4 H 0.9366 0.7389 0.1368
C5_4 C 0.9710(5) 0.7790(5) 0.1397(9)
C6_4 C 0.9450(5) 0.8050(5) 0.1442(10)
C7_4 C 0.9242(5) 0.8258(5) 0.1458(14)
C8_4 C 0.8999(3) 0.8501(3) 0.1541(7)
C9_4 C 0.8660(2) 0.8416(3) 0.1541(7)
F2_4 F 0.8092(4) 0.8577(5) 0.1542(6)
C12_4 C 0.7196(5) 0.9850(4) 0.1328(6)
H3_4 H 0.6966 0.9790 0.1310
C13_4 C 0.7445(5) 0.9598(5) 0.1365(6)
H4_4 H 0.7389 0.9366 0.1368
C14_4 C 0.7790(5) 0.9710(5) 0.1397(9)
C15_4 C 0.8050(5) 0.9450(5) 0.1442(10)
C16_4 C 0.8258(5) 0.9242(5) 0.1458(14)
C17_4 C 0.8501(3) 0.8999(3) 0.1541(7)
C18_4 C 0.8416(3) 0.8660(2) 0.1541(7)
F3_4 F 0.9408(4) 0.8923(5) 0.1542(6)
C21_4 C 0.9084(3) 0.8840(2) 0.1541(7)
F4_4 F 0.8923(5) 0.9408(4) 0.1542(6)
C24_4 C 0.8840(2) 0.9084(3) 0.1541(7)
O10_3 O 0.5352(2) 0.1254(2) 0.0771(2)
C34_3 C 0.5472(4) 0.1211(7) 0.0472(4)
C35_3 C 0.5202(4) 0.1182(5) 0.0202(4)
C36_3 C 0.4850(4) 0.1172(6) 0.0304(5)
H11_3 H 0.4790 0.1190 0.0534
C37_3 C 0.4598(5) 0.1135(6) 0.0055(5)
H12_3 H 0.4366 0.1132 0.0111
O12_3 O 0.5771(2) 0.1254(2) 0.0352(2)
Hf5_3 Hf 0.6250 0.1250 0.06297(2)
O2_2 O 0.0949(4) 0.1551(4) 0.6551(4)
O3_2 O 0.1568(3) 0.1568(3) 0.6568(3)
O7_2 O 0.1551(4) 0.1551(4) 0.5949(4)
O8_2 O 0.0932(3) 0.1568(3) 0.5932(3)
F5_3 F 0.3092(4) 0.0958(6) 0.8923(5)
O9_2 O 0.1729(2) 0.1254(2) 0.7148(2)
C25_3 C 0.2028(4) 0.1211(7) 0.7028(4)
C26_3 C 0.2298(4) 0.1182(5) 0.7298(4)
C27_3 C 0.2196(5) 0.1172(6) 0.7650(4)
H9_3 H 0.1966 0.1190 0.7710
C28_3 C 0.2445(5) 0.1135(6) 0.7902(5)
H10_3 H 0.2389 0.1132 0.8134
C29_3 C 0.2790(5) 0.1103(9) 0.7790(5)
C30_3 C 0.3050(5) 0.1058(10) 0.8050(5)
C31_3 C 0.3258(5) 0.1042(14) 0.8258(5)
C32_3 C 0.3501(3) 0.0959(7) 0.8501(3)
C33_3 C 0.3416(3) 0.0959(7) 0.8840(2)
F6_3 F 0.3577(5) 0.0958(6) 0.9408(4)
C38_3 C 0.4710(5) 0.1103(9) 0.9710(5)
C39_3 C 0.4450(5) 0.1058(10) 0.9450(5)
C40_3 C 0.4242(5) 0.1042(14) 0.9242(5)
C41_3 C 0.3999(3) 0.0959(7) 0.8999(3)
C42_3 C 0.3660(2) 0.0959(7) 0.9084(3)
F7_3 F 0.3923(5) 0.0958(6) 0.8092(4)
O11_3 O 0.2148(2) 0.1254(2) 0.6729(2)
C43_3 C 0.2650(4) 0.1172(6) 0.7196(5)
H13_3 H 0.2710 0.1190 0.6966
C44_3 C 0.2902(5) 0.1135(6) 0.7445(5)
H14_3 H 0.3134 0.1132 0.7389
C45_3 C 0.3840(2) 0.0959(7) 0.8416(3)
F8_3 F 0.4408(4) 0.0958(6) 0.8577(5)
C46_3 C 0.5304(5) 0.1172(6) 0.9850(4)
H15_3 H 0.5534 0.1190 0.9790
C47_3 C 0.5055(5) 0.1135(6) 0.9598(5)
H16_3 H 0.5111 0.1132 0.9366
C48_3 C 0.4084(3) 0.0959(7) 0.8660(2)
O13_2 O 0.0771(2) 0.1246(2) 0.7148(2)
C49_3 C 0.0472(4) 0.1289(7) 0.7028(4)
C50_3 C 0.0202(4) 0.1318(5) 0.7298(4)
C51_3 C 0.0304(5) 0.1328(6) 0.7650(4)
H17_3 H 0.0534 0.1310 0.7710
C52_3 C 0.0055(5) 0.1365(6) 0.7902(5)
H18_3 H 0.0111 0.1368 0.8134
O15_3 O 0.0352(2) 0.1246(2) 0.6729(2)
Hf10_2 Hf 0.18703(2) 0.1250 0.6250
Hf11_2 Hf 0.06297(2) 0.1250 0.6250
O18_2 O 0.0771(2) 0.1254(2) 0.5352(2)
O19_2 O 0.1729(2) 0.1246(2) 0.5352(2)
O21_3 O 0.0771(2) 0.2148(2) 0.6246(2)
O23_3 O 0.1729(2) 0.2148(2) 0.6254(2)
O25_2 O 0.0949(4) 0.0949(4) 0.5949(4)
O26_2 O 0.1551(4) 0.0949(4) 0.6551(4)
O27_2 O 0.1568(3) 0.0932(3) 0.5932(3)
O28_2 O 0.0932(3) 0.0932(3) 0.6568(3)
O14_3 O 0.7148(2) 0.1246(2) 0.0771(2)
C58_3 C 0.7028(4) 0.1289(7) 0.0472(4)
C59_3 C 0.7298(4) 0.1318(5) 0.0202(4)
C60_3 C 0.7650(4) 0.1328(6) 0.0304(5)
H19_3 H 0.7710 0.1310 0.0534
C61_3 C 0.7902(5) 0.1365(6) 0.0055(5)
H20_3 H 0.8134 0.1368 0.0111
O16_3 O 0.6729(2) 0.1246(2) 0.0352(2)
F9_3 F 0.9408(4) 0.1542(6) 0.8923(5)
C53_3 C 0.9710(5) 0.1397(9) 0.7790(5)
C54_3 C 0.9450(5) 0.1442(10) 0.8050(5)
C55_3 C 0.9242(5) 0.1458(14) 0.8258(5)
C56_3 C 0.8999(3) 0.1541(7) 0.8501(3)
C57_3 C 0.9084(3) 0.1541(7) 0.8840(2)
F10_3 F 0.8923(5) 0.1542(6) 0.9408(4)
C62_3 C 0.7790(5) 0.1397(9) 0.9710(5)
C63_3 C 0.8050(5) 0.1442(10) 0.9450(5)
C64_3 C 0.8258(5) 0.1458(14) 0.9242(5)
C65_3 C 0.8501(3) 0.1541(7) 0.8999(3)
C66_3 C 0.8840(2) 0.1541(7) 0.9084(3)
F11_3 F 0.8577(5) 0.1542(6) 0.8092(4)
C67_3 C 0.9850(4) 0.1328(6) 0.7196(5)
H21_3 H 0.9790 0.1310 0.6966
C68_3 C 0.9598(5) 0.1365(6) 0.7445(5)
H22_3 H 0.9366 0.1368 0.7389
C69_3 C 0.8660(2) 0.1541(7) 0.8416(3)
F12_3 F 0.8092(4) 0.1542(6) 0.8577(5)
C70_3 C 0.7196(5) 0.1328(6) 0.9850(4)
H23_3 H 0.6966 0.1310 0.9790
C71_3 C 0.7445(5) 0.1365(6) 0.9598(5)
H24_3 H 0.7389 0.1368 0.9366
C72_3 C 0.8416(3) 0.1541(7) 0.8660(2)
O4_5 O 0.0352(2) 0.1254(2) 0.5771(2)
C10_5 C 0.0472(4) 0.1211(7) 0.5472(4)
C11_5 C 0.0202(4) 0.1182(5) 0.5202(4)
C22_5 C 0.0304(5) 0.1172(6) 0.4850(4)
H7_5 H 0.0534 0.1190 0.4790
C23_5 C 0.0055(5) 0.1135(6) 0.4598(5)
H8_5 H 0.0111 0.1132 0.4366
Hf1_3 Hf 0.6250 0.1250 0.18703(2)
F1_5 F 0.8092(4) 0.0958(6) 0.3923(5)
O1_3 O 0.6729(2) 0.1254(2) 0.2148(2)
O2_3 O 0.6551(4) 0.0949(4) 0.1551(4)
O3_3 O 0.6568(3) 0.1568(3) 0.1568(3)
C1_5 C 0.7028(4) 0.1211(7) 0.2028(4)
C2_5 C 0.7298(4) 0.1182(5) 0.2298(4)
C3_5 C 0.7196(5) 0.1172(6) 0.2650(4)
H1_5 H 0.6966 0.1190 0.2710
C4_5 C 0.7445(5) 0.1135(6) 0.2902(5)
H2_5 H 0.7389 0.1132 0.3134
C5_5 C 0.7790(5) 0.1103(9) 0.2790(5)
C6_5 C 0.8050(5) 0.1058(10) 0.3050(5)
C7_5 C 0.8258(5) 0.1042(14) 0.3258(5)
C8_5 C 0.8501(3) 0.0959(7) 0.3501(3)
C9_5 C 0.8416(3) 0.0959(7) 0.3840(2)
F2_5 F 0.8577(5) 0.0958(6) 0.4408(4)
C12_5 C 0.9850(4) 0.1172(6) 0.5304(5)
H3_5 H 0.9790 0.1190 0.5534
C13_5 C 0.9598(5) 0.1135(6) 0.5055(5)
H4_5 H 0.9366 0.1132 0.5111
C14_5 C 0.9710(5) 0.1103(9) 0.4710(5)
C15_5 C 0.9450(5) 0.1058(10) 0.4450(5)
C16_5 C 0.9242(5) 0.1042(14) 0.4242(5)
C17_5 C 0.8999(3) 0.0959(7) 0.3999(3)
C18_5 C 0.8660(2) 0.0959(7) 0.4084(3)
F3_5 F 0.8923(5) 0.0958(6) 0.3092(4)
O5_2 O 0.7148(2) 0.1254(2) 0.1729(2)
C19_5 C 0.7650(4) 0.1172(6) 0.2196(5)
H5_5 H 0.7710 0.1190 0.1966
C20_5 C 0.7902(5) 0.1135(6) 0.2445(5)
H6_5 H 0.8134 0.1132 0.2389
C21_5 C 0.8840(2) 0.0959(7) 0.3416(3)
F4_5 F 0.9408(4) 0.0958(6) 0.3577(5)
C24_5 C 0.9084(3) 0.0959(7) 0.3660(2)
O7_3 O 0.5949(4) 0.1551(4) 0.1551(4)
O8_3 O 0.5932(3) 0.0932(3) 0.1568(3)
O17_3 O 0.5771(2) 0.1246(2) 0.2148(2)
O21_4 O 0.6246(2) 0.0771(2) 0.2148(2)
O23_4 O 0.6254(2) 0.1729(2) 0.2148(2)
O24_2 O 0.5352(2) 0.1246(2) 0.1729(2)
O25_3 O 0.5949(4) 0.0949(4) 0.0949(4)
O26_3 O 0.6551(4) 0.1551(4) 0.0949(4)
O27_3 O 0.5932(3) 0.1568(3) 0.0932(3)
O28_3 O 0.6568(3) 0.0932(3) 0.0932(3)
F1_6 F 0.4408(4) 0.1542(6) 0.3923(5)
C1_6 C 0.5472(4) 0.1289(7) 0.2028(4)
C2_6 C 0.5202(4) 0.1318(5) 0.2298(4)
C3_6 C 0.5304(5) 0.1328(6) 0.2650(4)
H1_6 H 0.5534 0.1310 0.2710
C4_6 C 0.5055(5) 0.1365(6) 0.2902(5)
H2_6 H 0.5111 0.1368 0.3134
C5_6 C 0.4710(5) 0.1397(9) 0.2790(5)
C6_6 C 0.4450(5) 0.1442(10) 0.3050(5)
C7_6 C 0.4242(5) 0.1458(14) 0.3258(5)
C8_6 C 0.3999(3) 0.1541(7) 0.3501(3)
C9_6 C 0.4084(3) 0.1541(7) 0.3840(2)
F2_6 F 0.3923(5) 0.1542(6) 0.4408(4)
O4_6 O 0.2148(2) 0.1246(2) 0.5771(2)
C10_6 C 0.2028(4) 0.1289(7) 0.5472(4)
C11_6 C 0.2298(4) 0.1318(5) 0.5202(4)
C12_6 C 0.2650(4) 0.1328(6) 0.5304(5)
H3_6 H 0.2710 0.1310 0.5534
C13_6 C 0.2902(5) 0.1365(6) 0.5055(5)
H4_6 H 0.3134 0.1368 0.5111
C14_6 C 0.2790(5) 0.1397(9) 0.4710(5)
C15_6 C 0.3050(5) 0.1442(10) 0.4450(5)
C16_6 C 0.3258(5) 0.1458(14) 0.4242(5)
C17_6 C 0.3501(3) 0.1541(7) 0.3999(3)
C18_6 C 0.3840(2) 0.1541(7) 0.4084(3)
F3_6 F 0.3577(5) 0.1542(6) 0.3092(4)
C19_6 C 0.4850(4) 0.1328(6) 0.2196(5)
H5_6 H 0.4790 0.1310 0.1966
C20_6 C 0.4598(5) 0.1365(6) 0.2445(5)
H6_6 H 0.4366 0.1368 0.2389
C21_6 C 0.3660(2) 0.1541(7) 0.3416(3)
F4_6 F 0.3092(4) 0.1542(6) 0.3577(5)
C22_6 C 0.2196(5) 0.1328(6) 0.4850(4)
H7_6 H 0.1966 0.1310 0.4790
C23_6 C 0.2445(5) 0.1365(6) 0.4598(5)
H8_6 H 0.2389 0.1368 0.4366
C24_6 C 0.3416(3) 0.1541(7) 0.3660(2)
O21_5 O 0.0771(2) 0.0352(2) 0.6254(2)
O23_5 O 0.1729(2) 0.0352(2) 0.6246(2)
O21_6 O 0.6254(2) 0.0771(2) 0.0352(2)
O23_6 O 0.6246(2) 0.1729(2) 0.0352(2)
F1_7 F 0.3923(5) 0.3092(4) 0.5958(6)
O1_4 O 0.2148(2) 0.1729(2) 0.6254(2)
C1_7 C 0.2028(4) 0.2028(4) 0.6211(7)
C2_7 C 0.2298(4) 0.2298(4) 0.6182(5)
C3_7 C 0.2650(4) 0.2196(5) 0.6172(6)
H1_7 H 0.2710 0.1966 0.6190
C4_7 C 0.2902(5) 0.2445(5) 0.6135(6)
H2_7 H 0.3134 0.2389 0.6132
C5_7 C 0.2790(5) 0.2790(5) 0.6103(9)
C6_7 C 0.3050(5) 0.3050(5) 0.6058(10)
C7_7 C 0.3258(5) 0.3258(5) 0.6042(14)
C8_7 C 0.3501(3) 0.3501(3) 0.5959(7)
C9_7 C 0.3840(2) 0.3416(3) 0.5959(7)
F2_7 F 0.4408(4) 0.3577(5) 0.5958(6)
O4_7 O 0.5771(2) 0.5352(2) 0.6254(2)
C10_7 C 0.5472(4) 0.5472(4) 0.6211(7)
C11_7 C 0.5202(4) 0.5202(4) 0.6182(5)
C12_7 C 0.5304(5) 0.4850(4) 0.6172(6)
H3_7 H 0.5534 0.4790 0.6190
C13_7 C 0.5055(5) 0.4598(5) 0.6135(6)
H4_7 H 0.5111 0.4366 0.6132
C14_7 C 0.4710(5) 0.4710(5) 0.6103(9)
C15_7 C 0.4450(5) 0.4450(5) 0.6058(10)
C16_7 C 0.4242(5) 0.4242(5) 0.6042(14)
C17_7 C 0.3999(3) 0.3999(3) 0.5959(7)
C18_7 C 0.4084(3) 0.3660(2) 0.5959(7)
F3_7 F 0.3092(4) 0.3923(5) 0.5958(6)
C19_7 C 0.2196(5) 0.2650(4) 0.6172(6)
H5_7 H 0.1966 0.2710 0.6190
C20_7 C 0.2445(5) 0.2902(5) 0.6135(6)
H6_7 H 0.2389 0.3134 0.6132
C21_7 C 0.3416(3) 0.3840(2) 0.5959(7)
F4_7 F 0.3577(5) 0.4408(4) 0.5958(6)
O6_5 O 0.5352(2) 0.5771(2) 0.6254(2)
C22_7 C 0.4850(4) 0.5304(5) 0.6172(6)
H7_7 H 0.4790 0.5534 0.6190
C23_7 C 0.4598(5) 0.5055(5) 0.6135(6)
H8_7 H 0.4366 0.5111 0.6132
C24_7 C 0.3660(2) 0.4084(3) 0.5959(7)
Hf7_3 Hf 0.6250 0.56297(2) 0.6250
Hf9_3 Hf 0.56297(2) 0.6250 0.6250
O17_4 O 0.2148(2) 0.0771(2) 0.6246(2)
O1_5 O 0.0352(2) 0.0771(2) 0.6254(2)
C1_8 C 0.0472(4) 0.0472(4) 0.6211(7)
C2_8 C 0.0202(4) 0.0202(4) 0.6182(5)
O17_5 O 0.0352(2) 0.1729(2) 0.6246(2)
C19_8 C 0.0304(5) 0.9850(4) 0.6172(6)
H5_8 H 0.0534 0.9790 0.6190
C20_8 C 0.0055(5) 0.9598(5) 0.6135(6)
H6_8 H 0.0111 0.9366 0.6132
C3_8 C 0.9850(4) 0.0304(5) 0.6172(6)
H1_8 H 0.9790 0.0534 0.6190
C4_8 C 0.9598(5) 0.0055(5) 0.6135(6)
H2_8 H 0.9366 0.0111 0.6132
F1_8 F 0.8577(5) 0.9408(4) 0.5958(6)
C5_8 C 0.9710(5) 0.9710(5) 0.6103(9)
C6_8 C 0.9450(5) 0.9450(5) 0.6058(10)
C7_8 C 0.9242(5) 0.9242(5) 0.6042(14)
C8_8 C 0.8999(3) 0.8999(3) 0.5959(7)
C9_8 C 0.8660(2) 0.9084(3) 0.5959(7)
F2_8 F 0.8092(4) 0.8923(5) 0.5958(6)
O4_8 O 0.6729(2) 0.7148(2) 0.6254(2)
C10_8 C 0.7028(4) 0.7028(4) 0.6211(7)
C11_8 C 0.7298(4) 0.7298(4) 0.6182(5)
C12_8 C 0.7196(5) 0.7650(4) 0.6172(6)
H3_8 H 0.6966 0.7710 0.6190
C13_8 C 0.7445(5) 0.7902(5) 0.6135(6)
H4_8 H 0.7389 0.8134 0.6132
C14_8 C 0.7790(5) 0.7790(5) 0.6103(9)
C15_8 C 0.8050(5) 0.8050(5) 0.6058(10)
C16_8 C 0.8258(5) 0.8258(5) 0.6042(14)
C17_8 C 0.8501(3) 0.8501(3) 0.5959(7)
C18_8 C 0.8416(3) 0.8840(2) 0.5959(7)
F3_8 F 0.9408(4) 0.8577(5) 0.5958(6)
C21_8 C 0.9084(3) 0.8660(2) 0.5959(7)
F4_8 F 0.8923(5) 0.8092(4) 0.5958(6)
O6_6 O 0.7148(2) 0.6729(2) 0.6254(2)
C22_8 C 0.7650(4) 0.7196(5) 0.6172(6)
H7_8 H 0.7710 0.6966 0.6190
C23_8 C 0.7902(5) 0.7445(5) 0.6135(6)
H8_8 H 0.8134 0.7389 0.6132
C24_8 C 0.8840(2) 0.8416(3) 0.5959(7)
Hf7_4 Hf 0.6250 0.68703(2) 0.6250
Hf9_4 Hf 0.68703(2) 0.6250 0.6250
C1_9 C 0.2028(4) 0.0472(4) 0.6289(7)
C2_9 C 0.2298(4) 0.0202(4) 0.6318(5)
C3_9 C 0.2650(4) 0.0304(5) 0.6328(6)
H1_9 H 0.2710 0.0534 0.6310
C4_9 C 0.2902(5) 0.0055(5) 0.6365(6)
H2_9 H 0.3134 0.0111 0.6368
F1_9 F 0.3923(5) 0.9408(4) 0.6542(6)
C5_9 C 0.2790(5) 0.9710(5) 0.6397(9)
C6_9 C 0.3050(5) 0.9450(5) 0.6442(10)
C7_9 C 0.3258(5) 0.9242(5) 0.6458(14)
C8_9 C 0.3501(3) 0.8999(3) 0.6541(7)
C9_9 C 0.3840(2) 0.9084(3) 0.6541(7)
F2_9 F 0.4408(4) 0.8923(5) 0.6542(6)
O4_9 O 0.5771(2) 0.7148(2) 0.6246(2)
C10_9 C 0.5472(4) 0.7028(4) 0.6289(7)
C11_9 C 0.5202(4) 0.7298(4) 0.6318(5)
C12_9 C 0.5304(5) 0.7650(4) 0.6328(6)
H3_9 H 0.5534 0.7710 0.6310
C13_9 C 0.5055(5) 0.7902(5) 0.6365(6)
H4_9 H 0.5111 0.8134 0.6368
C14_9 C 0.4710(5) 0.7790(5) 0.6397(9)
C15_9 C 0.4450(5) 0.8050(5) 0.6442(10)
C16_9 C 0.4242(5) 0.8258(5) 0.6458(14)
C17_9 C 0.3999(3) 0.8501(3) 0.6541(7)
C18_9 C 0.4084(3) 0.8840(2) 0.6541(7)
F3_9 F 0.3092(4) 0.8577(5) 0.6542(6)
C19_9 C 0.2196(5) 0.9850(4) 0.6328(6)
H5_9 H 0.1966 0.9790 0.6310
C20_9 C 0.2445(5) 0.9598(5) 0.6365(6)
H6_9 H 0.2389 0.9366 0.6368
C21_9 C 0.3416(3) 0.8660(2) 0.6541(7)
F4_9 F 0.3577(5) 0.8092(4) 0.6542(6)
O6_7 O 0.5352(2) 0.6729(2) 0.6246(2)
C22_9 C 0.4850(4) 0.7196(5) 0.6328(6)
H7_9 H 0.4790 0.6966 0.6310
C23_9 C 0.4598(5) 0.7445(5) 0.6365(6)
H8_9 H 0.4366 0.7389 0.6368
C24_9 C 0.3660(2) 0.8416(3) 0.6541(7)
C1_10 C 0.0472(4) 0.2028(4) 0.6289(7)
C2_10 C 0.0202(4) 0.2298(4) 0.6318(5)
C19_10 C 0.0304(5) 0.2650(4) 0.6328(6)
H5_10 H 0.0534 0.2710 0.6310
C20_10 C 0.0055(5) 0.2902(5) 0.6365(6)
H6_10 H 0.0111 0.3134 0.6368
F1_10 F 0.8577(5) 0.3092(4) 0.6542(6)
C3_10 C 0.9850(4) 0.2196(5) 0.6328(6)
H1_10 H 0.9790 0.1966 0.6310
C4_10 C 0.9598(5) 0.2445(5) 0.6365(6)
H2_10 H 0.9366 0.2389 0.6368
C5_10 C 0.9710(5) 0.2790(5) 0.6397(9)
C6_10 C 0.9450(5) 0.3050(5) 0.6442(10)
C7_10 C 0.9242(5) 0.3258(5) 0.6458(14)
C8_10 C 0.8999(3) 0.3501(3) 0.6541(7)
C9_10 C 0.8660(2) 0.3416(3) 0.6541(7)
F2_10 F 0.8092(4) 0.3577(5) 0.6542(6)
O4_10 O 0.6729(2) 0.5352(2) 0.6246(2)
C10_10 C 0.7028(4) 0.5472(4) 0.6289(7)
C11_10 C 0.7298(4) 0.5202(4) 0.6318(5)
C12_10 C 0.7196(5) 0.4850(4) 0.6328(6)
H3_10 H 0.6966 0.4790 0.6310
C13_10 C 0.7445(5) 0.4598(5) 0.6365(6)
H4_10 H 0.7389 0.4366 0.6368
C14_10 C 0.7790(5) 0.4710(5) 0.6397(9)
C15_10 C 0.8050(5) 0.4450(5) 0.6442(10)
C16_10 C 0.8258(5) 0.4242(5) 0.6458(14)
C17_10 C 0.8501(3) 0.3999(3) 0.6541(7)
C18_10 C 0.8416(3) 0.3660(2) 0.6541(7)
F3_10 F 0.9408(4) 0.3923(5) 0.6542(6)
C21_10 C 0.9084(3) 0.3840(2) 0.6541(7)
F4_10 F 0.8923(5) 0.4408(4) 0.6542(6)
O6_8 O 0.7148(2) 0.5771(2) 0.6246(2)
C22_10 C 0.7650(4) 0.5304(5) 0.6328(6)
H7_10 H 0.7710 0.5534 0.6310
C23_10 C 0.7902(5) 0.5055(5) 0.6365(6)
H8_10 H 0.8134 0.5111 0.6368
C24_10 C 0.8840(2) 0.4084(3) 0.6541(7)
F5_4 F 0.3092(4) 0.5958(6) 0.3923(5)
O9_3 O 0.1729(2) 0.6254(2) 0.2148(2)
C25_4 C 0.2028(4) 0.6211(7) 0.2028(4)
C26_4 C 0.2298(4) 0.6182(5) 0.2298(4)
C27_4 C 0.2196(5) 0.6172(6) 0.2650(4)
H9_4 H 0.1966 0.6190 0.2710
C28_4 C 0.2445(5) 0.6135(6) 0.2902(5)
H10_4 H 0.2389 0.6132 0.3134
C29_4 C 0.2790(5) 0.6103(9) 0.2790(5)
C30_4 C 0.3050(5) 0.6058(10) 0.3050(5)
C31_4 C 0.3258(5) 0.6042(14) 0.3258(5)
C32_4 C 0.3501(3) 0.5959(7) 0.3501(3)
C33_4 C 0.3416(3) 0.5959(7) 0.3840(2)
F6_4 F 0.3577(5) 0.5958(6) 0.4408(4)
O10_4 O 0.5352(2) 0.6254(2) 0.5771(2)
C34_4 C 0.5472(4) 0.6211(7) 0.5472(4)
C35_4 C 0.5202(4) 0.6182(5) 0.5202(4)
C36_4 C 0.4850(4) 0.6172(6) 0.5304(5)
H11_4 H 0.4790 0.6190 0.5534
C37_4 C 0.4598(5) 0.6135(6) 0.5055(5)
H12_4 H 0.4366 0.6132 0.5111
C38_4 C 0.4710(5) 0.6103(9) 0.4710(5)
C39_4 C 0.4450(5) 0.6058(10) 0.4450(5)
C40_4 C 0.4242(5) 0.6042(14) 0.4242(5)
C41_4 C 0.3999(3) 0.5959(7) 0.3999(3)
C42_4 C 0.3660(2) 0.5959(7) 0.4084(3)
F7_4 F 0.3923(5) 0.5958(6) 0.3092(4)
C43_4 C 0.2650(4) 0.6172(6) 0.2196(5)
H13_4 H 0.2710 0.6190 0.1966
C44_4 C 0.2902(5) 0.6135(6) 0.2445(5)
H14_4 H 0.3134 0.6132 0.2389
C45_4 C 0.3840(2) 0.5959(7) 0.3416(3)
F8_4 F 0.4408(4) 0.5958(6) 0.3577(5)
O12_4 O 0.5771(2) 0.6254(2) 0.5352(2)
C46_4 C 0.5304(5) 0.6172(6) 0.4850(4)
H15_4 H 0.5534 0.6190 0.4790
C47_4 C 0.5055(5) 0.6135(6) 0.4598(5)
H16_4 H 0.5111 0.6132 0.4366
C48_4 C 0.4084(3) 0.5959(7) 0.3660(2)
O13_3 O 0.0771(2) 0.6246(2) 0.2148(2)
C49_4 C 0.0472(4) 0.6289(7) 0.2028(4)
C50_4 C 0.0202(4) 0.6318(5) 0.2298(4)
C51_4 C 0.0304(5) 0.6328(6) 0.2650(4)
H17_4 H 0.0534 0.6310 0.2710
C52_4 C 0.0055(5) 0.6365(6) 0.2902(5)
H18_4 H 0.0111 0.6368 0.3134
Hf5_4 Hf 0.6250 0.6250 0.56297(2)
O18_3 O 0.0771(2) 0.6254(2) 0.0352(2)
O19_3 O 0.1729(2) 0.6246(2) 0.0352(2)
F9_4 F 0.9408(4) 0.6542(6) 0.3923(5)
C53_4 C 0.9710(5) 0.6397(9) 0.2790(5)
C54_4 C 0.9450(5) 0.6442(10) 0.3050(5)
C55_4 C 0.9242(5) 0.6458(14) 0.3258(5)
C56_4 C 0.8999(3) 0.6541(7) 0.3501(3)
C57_4 C 0.9084(3) 0.6541(7) 0.3840(2)
F10_4 F 0.8923(5) 0.6542(6) 0.4408(4)
O14_4 O 0.7148(2) 0.6246(2) 0.5771(2)
C58_4 C 0.7028(4) 0.6289(7) 0.5472(4)
C59_4 C 0.7298(4) 0.6318(5) 0.5202(4)
C60_4 C 0.7650(4) 0.6328(6) 0.5304(5)
H19_4 H 0.7710 0.6310 0.5534
C61_4 C 0.7902(5) 0.6365(6) 0.5055(5)
H20_4 H 0.8134 0.6368 0.5111
C62_4 C 0.7790(5) 0.6397(9) 0.4710(5)
C63_4 C 0.8050(5) 0.6442(10) 0.4450(5)
C64_4 C 0.8258(5) 0.6458(14) 0.4242(5)
C65_4 C 0.8501(3) 0.6541(7) 0.3999(3)
C66_4 C 0.8840(2) 0.6541(7) 0.4084(3)
F11_4 F 0.8577(5) 0.6542(6) 0.3092(4)
C67_4 C 0.9850(4) 0.6328(6) 0.2196(5)
H21_4 H 0.9790 0.6310 0.1966
C68_4 C 0.9598(5) 0.6365(6) 0.2445(5)
H22_4 H 0.9366 0.6368 0.2389
C69_4 C 0.8660(2) 0.6541(7) 0.3416(3)
F12_4 F 0.8092(4) 0.6542(6) 0.3577(5)
O16_4 O 0.6729(2) 0.6246(2) 0.5352(2)
C70_4 C 0.7196(5) 0.6328(6) 0.4850(4)
H23_4 H 0.6966 0.6310 0.4790
C71_4 C 0.7445(5) 0.6365(6) 0.4598(5)
H24_4 H 0.7389 0.6368 0.4366
C72_4 C 0.8416(3) 0.6541(7) 0.3660(2)
C10_11 C 0.0472(4) 0.6211(7) 0.0472(4)
C11_11 C 0.0202(4) 0.6182(5) 0.0202(4)
C22_11 C 0.0304(5) 0.6172(6) 0.9850(4)
H7_11 H 0.0534 0.6190 0.9790
C23_11 C 0.0055(5) 0.6135(6) 0.9598(5)
H8_11 H 0.0111 0.6132 0.9366
C12_11 C 0.9850(4) 0.6172(6) 0.0304(5)
H3_11 H 0.9790 0.6190 0.0534
C13_11 C 0.9598(5) 0.6135(6) 0.0055(5)
H4_11 H 0.9366 0.6132 0.0111
Hf1_4 Hf 0.6250 0.6250 0.68703(2)
F1_11 F 0.8092(4) 0.5958(6) 0.8923(5)
O1_6 O 0.6729(2) 0.6254(2) 0.7148(2)
O2_4 O 0.6551(4) 0.5949(4) 0.6551(4)
O3_4 O 0.6568(3) 0.6568(3) 0.6568(3)
C1_11 C 0.7028(4) 0.6211(7) 0.7028(4)
C2_11 C 0.7298(4) 0.6182(5) 0.7298(4)
C3_11 C 0.7196(5) 0.6172(6) 0.7650(4)
H1_11 H 0.6966 0.6190 0.7710
C4_11 C 0.7445(5) 0.6135(6) 0.7902(5)
H2_11 H 0.7389 0.6132 0.8134
C5_11 C 0.7790(5) 0.6103(9) 0.7790(5)
C6_11 C 0.8050(5) 0.6058(10) 0.8050(5)
C7_11 C 0.8258(5) 0.6042(14) 0.8258(5)
C8_11 C 0.8501(3) 0.5959(7) 0.8501(3)
C9_11 C 0.8416(3) 0.5959(7) 0.8840(2)
F2_11 F 0.8577(5) 0.5958(6) 0.9408(4)
C14_11 C 0.9710(5) 0.6103(9) 0.9710(5)
C15_11 C 0.9450(5) 0.6058(10) 0.9450(5)
C16_11 C 0.9242(5) 0.6042(14) 0.9242(5)
C17_11 C 0.8999(3) 0.5959(7) 0.8999(3)
C18_11 C 0.8660(2) 0.5959(7) 0.9084(3)
F3_11 F 0.8923(5) 0.5958(6) 0.8092(4)
O5_3 O 0.7148(2) 0.6254(2) 0.6729(2)
C19_11 C 0.7650(4) 0.6172(6) 0.7196(5)
H5_11 H 0.7710 0.6190 0.6966
C20_11 C 0.7902(5) 0.6135(6) 0.7445(5)
H6_11 H 0.8134 0.6132 0.7389
C21_11 C 0.8840(2) 0.5959(7) 0.8416(3)
F4_11 F 0.9408(4) 0.5958(6) 0.8577(5)
C24_11 C 0.9084(3) 0.5959(7) 0.8660(2)
O7_4 O 0.5949(4) 0.6551(4) 0.6551(4)
O8_4 O 0.5932(3) 0.5932(3) 0.6568(3)
O17_6 O 0.5771(2) 0.6246(2) 0.7148(2)
O21_7 O 0.6246(2) 0.5771(2) 0.7148(2)
O23_7 O 0.6254(2) 0.6729(2) 0.7148(2)
O24_3 O 0.5352(2) 0.6246(2) 0.6729(2)
O25_4 O 0.5949(4) 0.5949(4) 0.5949(4)
O26_4 O 0.6551(4) 0.6551(4) 0.5949(4)
O27_4 O 0.5932(3) 0.6568(3) 0.5932(3)
O28_4 O 0.6568(3) 0.5932(3) 0.5932(3)
C10_12 C 0.2028(4) 0.6289(7) 0.0472(4)
C11_12 C 0.2298(4) 0.6318(5) 0.0202(4)
C12_12 C 0.2650(4) 0.6328(6) 0.0304(5)
H3_12 H 0.2710 0.6310 0.0534
C13_12 C 0.2902(5) 0.6365(6) 0.0055(5)
H4_12 H 0.3134 0.6368 0.0111
F1_12 F 0.4408(4) 0.6542(6) 0.8923(5)
C1_12 C 0.5472(4) 0.6289(7) 0.7028(4)
C2_12 C 0.5202(4) 0.6318(5) 0.7298(4)
C3_12 C 0.5304(5) 0.6328(6) 0.7650(4)
H1_12 H 0.5534 0.6310 0.7710
C4_12 C 0.5055(5) 0.6365(6) 0.7902(5)
H2_12 H 0.5111 0.6368 0.8134
C5_12 C 0.4710(5) 0.6397(9) 0.7790(5)
C6_12 C 0.4450(5) 0.6442(10) 0.8050(5)
C7_12 C 0.4242(5) 0.6458(14) 0.8258(5)
C8_12 C 0.3999(3) 0.6541(7) 0.8501(3)
C9_12 C 0.4084(3) 0.6541(7) 0.8840(2)
F2_12 F 0.3923(5) 0.6542(6) 0.9408(4)
C14_12 C 0.2790(5) 0.6397(9) 0.9710(5)
C15_12 C 0.3050(5) 0.6442(10) 0.9450(5)
C16_12 C 0.3258(5) 0.6458(14) 0.9242(5)
C17_12 C 0.3501(3) 0.6541(7) 0.8999(3)
C18_12 C 0.3840(2) 0.6541(7) 0.9084(3)
F3_12 F 0.3577(5) 0.6542(6) 0.8092(4)
C19_12 C 0.4850(4) 0.6328(6) 0.7196(5)
H5_12 H 0.4790 0.6310 0.6966
C20_12 C 0.4598(5) 0.6365(6) 0.7445(5)
H6_12 H 0.4366 0.6368 0.7389
C21_12 C 0.3660(2) 0.6541(7) 0.8416(3)
F4_12 F 0.3092(4) 0.6542(6) 0.8577(5)
C22_12 C 0.2196(5) 0.6328(6) 0.9850(4)
H7_12 H 0.1966 0.6310 0.9790
C23_12 C 0.2445(5) 0.6365(6) 0.9598(5)
H8_12 H 0.2389 0.6368 0.9366
C24_12 C 0.3416(3) 0.6541(7) 0.8660(2)
O21_8 O 0.6254(2) 0.5771(2) 0.5352(2)
O23_8 O 0.6246(2) 0.6729(2) 0.5352(2)
C34_5 C 0.6211(7) 0.0472(4) 0.0472(4)
C35_5 C 0.6182(5) 0.0202(4) 0.0202(4)
O12_5 O 0.6254(2) 0.0352(2) 0.0771(2)
C36_5 C 0.6172(6) 0.0304(5) 0.9850(4)
H11_5 H 0.6190 0.0534 0.9790
C37_5 C 0.6135(6) 0.0055(5) 0.9598(5)
H12_5 H 0.6132 0.0111 0.9366
C58_5 C 0.6289(7) 0.0472(4) 0.2028(4)
C59_5 C 0.6318(5) 0.0202(4) 0.2298(4)
C60_5 C 0.6328(6) 0.0304(5) 0.2650(4)
H19_5 H 0.6310 0.0534 0.2710
C61_5 C 0.6365(6) 0.0055(5) 0.2902(5)
H20_5 H 0.6368 0.0111 0.3134
O16_5 O 0.6246(2) 0.0352(2) 0.1729(2)
C46_5 C 0.6172(6) 0.9850(4) 0.0304(5)
H15_5 H 0.6190 0.9790 0.0534
C47_5 C 0.6135(6) 0.9598(5) 0.0055(5)
H16_5 H 0.6132 0.9366 0.0111
F5_5 F 0.5958(6) 0.8923(5) 0.8092(4)
O9_4 O 0.6254(2) 0.7148(2) 0.6729(2)
C25_5 C 0.6211(7) 0.7028(4) 0.7028(4)
C26_5 C 0.6182(5) 0.7298(4) 0.7298(4)
C27_5 C 0.6172(6) 0.7650(4) 0.7196(5)
H9_5 H 0.6190 0.7710 0.6966
C28_5 C 0.6135(6) 0.7902(5) 0.7445(5)
H10_5 H 0.6132 0.8134 0.7389
C29_5 C 0.6103(9) 0.7790(5) 0.7790(5)
C30_5 C 0.6058(10) 0.8050(5) 0.8050(5)
C31_5 C 0.6042(14) 0.8258(5) 0.8258(5)
C32_5 C 0.5959(7) 0.8501(3) 0.8501(3)
C33_5 C 0.5959(7) 0.8840(2) 0.8416(3)
F6_5 F 0.5958(6) 0.9408(4) 0.8577(5)
C38_5 C 0.6103(9) 0.9710(5) 0.9710(5)
C39_5 C 0.6058(10) 0.9450(5) 0.9450(5)
C40_5 C 0.6042(14) 0.9242(5) 0.9242(5)
C41_5 C 0.5959(7) 0.8999(3) 0.8999(3)
C42_5 C 0.5959(7) 0.9084(3) 0.8660(2)
F7_5 F 0.5958(6) 0.8092(4) 0.8923(5)
C43_5 C 0.6172(6) 0.7196(5) 0.7650(4)
H13_5 H 0.6190 0.6966 0.7710
C44_5 C 0.6135(6) 0.7445(5) 0.7902(5)
H14_5 H 0.6132 0.7389 0.8134
C45_5 C 0.5959(7) 0.8416(3) 0.8840(2)
F8_5 F 0.5958(6) 0.8577(5) 0.9408(4)
C48_5 C 0.5959(7) 0.8660(2) 0.9084(3)
F9_5 F 0.6542(6) 0.8923(5) 0.4408(4)
O13_4 O 0.6246(2) 0.7148(2) 0.5771(2)
C49_5 C 0.6289(7) 0.7028(4) 0.5472(4)
C50_5 C 0.6318(5) 0.7298(4) 0.5202(4)
C51_5 C 0.6328(6) 0.7650(4) 0.5304(5)
H17_5 H 0.6310 0.7710 0.5534
C52_5 C 0.6365(6) 0.7902(5) 0.5055(5)
H18_5 H 0.6368 0.8134 0.5111
C53_5 C 0.6397(9) 0.7790(5) 0.4710(5)
C54_5 C 0.6442(10) 0.8050(5) 0.4450(5)
C55_5 C 0.6458(14) 0.8258(5) 0.4242(5)
C56_5 C 0.6541(7) 0.8501(3) 0.3999(3)
C57_5 C 0.6541(7) 0.8840(2) 0.4084(3)
F10_5 F 0.6542(6) 0.9408(4) 0.3923(5)
C62_5 C 0.6397(9) 0.9710(5) 0.2790(5)
C63_5 C 0.6442(10) 0.9450(5) 0.3050(5)
C64_5 C 0.6458(14) 0.9242(5) 0.3258(5)
C65_5 C 0.6541(7) 0.8999(3) 0.3501(3)
C66_5 C 0.6541(7) 0.9084(3) 0.3840(2)
F11_5 F 0.6542(6) 0.8092(4) 0.3577(5)
C67_5 C 0.6328(6) 0.7196(5) 0.4850(4)
H21_5 H 0.6310 0.6966 0.4790
C68_5 C 0.6365(6) 0.7445(5) 0.4598(5)
H22_5 H 0.6368 0.7389 0.4366
C69_5 C 0.6541(7) 0.8416(3) 0.3660(2)
F12_5 F 0.6542(6) 0.8577(5) 0.3092(4)
C70_5 C 0.6328(6) 0.9850(4) 0.2196(5)
H23_5 H 0.6310 0.9790 0.1966
C71_5 C 0.6365(6) 0.9598(5) 0.2445(5)
H24_5 H 0.6368 0.9366 0.2389
C72_5 C 0.6541(7) 0.8660(2) 0.3416(3)
O18_4 O 0.6254(2) 0.5352(2) 0.5771(2)
O19_4 O 0.6246(2) 0.5352(2) 0.6729(2)
C34_6 C 0.6289(7) 0.2028(4) 0.0472(4)
C35_6 C 0.6318(5) 0.2298(4) 0.0202(4)
O12_6 O 0.6246(2) 0.2148(2) 0.0771(2)
C46_6 C 0.6328(6) 0.2650(4) 0.0304(5)
H15_6 H 0.6310 0.2710 0.0534
C47_6 C 0.6365(6) 0.2902(5) 0.0055(5)
H16_6 H 0.6368 0.3134 0.0111
F5_6 F 0.6542(6) 0.3577(5) 0.8092(4)
C25_6 C 0.6289(7) 0.5472(4) 0.7028(4)
C26_6 C 0.6318(5) 0.5202(4) 0.7298(4)
C27_6 C 0.6328(6) 0.4850(4) 0.7196(5)
H9_6 H 0.6310 0.4790 0.6966
C28_6 C 0.6365(6) 0.4598(5) 0.7445(5)
H10_6 H 0.6368 0.4366 0.7389
C29_6 C 0.6397(9) 0.4710(5) 0.7790(5)
C30_6 C 0.6442(10) 0.4450(5) 0.8050(5)
C31_6 C 0.6458(14) 0.4242(5) 0.8258(5)
C32_6 C 0.6541(7) 0.3999(3) 0.8501(3)
C33_6 C 0.6541(7) 0.3660(2) 0.8416(3)
F6_6 F 0.6542(6) 0.3092(4) 0.8577(5)
C36_6 C 0.6328(6) 0.2196(5) 0.9850(4)
H11_6 H 0.6310 0.1966 0.9790
C37_6 C 0.6365(6) 0.2445(5) 0.9598(5)
H12_6 H 0.6368 0.2389 0.9366
C38_6 C 0.6397(9) 0.2790(5) 0.9710(5)
C39_6 C 0.6442(10) 0.3050(5) 0.9450(5)
C40_6 C 0.6458(14) 0.3258(5) 0.9242(5)
C41_6 C 0.6541(7) 0.3501(3) 0.8999(3)
C42_6 C 0.6541(7) 0.3416(3) 0.8660(2)
F7_6 F 0.6542(6) 0.4408(4) 0.8923(5)
C43_6 C 0.6328(6) 0.5304(5) 0.7650(4)
H13_6 H 0.6310 0.5534 0.7710
C44_6 C 0.6365(6) 0.5055(5) 0.7902(5)
H14_6 H 0.6368 0.5111 0.8134
C45_6 C 0.6541(7) 0.4084(3) 0.8840(2)
F8_6 F 0.6542(6) 0.3923(5) 0.9408(4)
C48_6 C 0.6541(7) 0.3840(2) 0.9084(3)
F9_6 F 0.5958(6) 0.3577(5) 0.4408(4)
C49_6 C 0.6211(7) 0.5472(4) 0.5472(4)
C50_6 C 0.6182(5) 0.5202(4) 0.5202(4)
C51_6 C 0.6172(6) 0.4850(4) 0.5304(5)
H17_6 H 0.6190 0.4790 0.5534
C52_6 C 0.6135(6) 0.4598(5) 0.5055(5)
H18_6 H 0.6132 0.4366 0.5111
C53_6 C 0.6103(9) 0.4710(5) 0.4710(5)
C54_6 C 0.6058(10) 0.4450(5) 0.4450(5)
C55_6 C 0.6042(14) 0.4242(5) 0.4242(5)
C56_6 C 0.5959(7) 0.3999(3) 0.3999(3)
C57_6 C 0.5959(7) 0.3660(2) 0.4084(3)
F10_6 F 0.5958(6) 0.3092(4) 0.3923(5)
C58_6 C 0.6211(7) 0.2028(4) 0.2028(4)
C59_6 C 0.6182(5) 0.2298(4) 0.2298(4)
C60_6 C 0.6172(6) 0.2196(5) 0.2650(4)
H19_6 H 0.6190 0.1966 0.2710
C61_6 C 0.6135(6) 0.2445(5) 0.2902(5)
H20_6 H 0.6132 0.2389 0.3134
C62_6 C 0.6103(9) 0.2790(5) 0.2790(5)
C63_6 C 0.6058(10) 0.3050(5) 0.3050(5)
C64_6 C 0.6042(14) 0.3258(5) 0.3258(5)
C65_6 C 0.5959(7) 0.3501(3) 0.3501(3)
C66_6 C 0.5959(7) 0.3416(3) 0.3840(2)
F11_6 F 0.5958(6) 0.4408(4) 0.3577(5)
C67_6 C 0.6172(6) 0.5304(5) 0.4850(4)
H21_6 H 0.6190 0.5534 0.4790
C68_6 C 0.6135(6) 0.5055(5) 0.4598(5)
H22_6 H 0.6132 0.5111 0.4366
C69_6 C 0.5959(7) 0.4084(3) 0.3660(2)
F12_6 F 0.5958(6) 0.3923(5) 0.3092(4)
O16_6 O 0.6254(2) 0.2148(2) 0.1729(2)
C70_6 C 0.6172(6) 0.2650(4) 0.2196(5)
H23_6 H 0.6190 0.2710 0.1966
C71_6 C 0.6135(6) 0.2902(5) 0.2445(5)
H24_6 H 0.6132 0.3134 0.2389
C72_6 C 0.5959(7) 0.3840(2) 0.3416(3)
Hf1_5 Hf 0.3750 0.43703(2) 0.3750
F1_13 F 0.1908(4) 0.6423(5) 0.3458(6)
O1_7 O 0.3271(2) 0.4648(2) 0.3754(2)
O2_5 O 0.3449(4) 0.4051(4) 0.3449(4)
O3_5 O 0.3432(3) 0.4068(3) 0.4068(3)
C1_13 C 0.2972(4) 0.4528(4) 0.3711(7)
C2_13 C 0.2702(4) 0.4798(4) 0.3682(5)
C3_13 C 0.2804(5) 0.5150(4) 0.3672(6)
H1_13 H 0.3034 0.5210 0.3690
C4_13 C 0.2555(5) 0.5402(5) 0.3635(6)
H2_13 H 0.2611 0.5634 0.3632
C5_13 C 0.2210(5) 0.5290(5) 0.3603(9)
C6_13 C 0.1950(5) 0.5550(5) 0.3558(10)
C7_13 C 0.1742(5) 0.5758(5) 0.3542(14)
C8_13 C 0.1499(3) 0.6001(3) 0.3459(7)
C9_13 C 0.1584(3) 0.6340(2) 0.3459(7)
F2_13 F 0.1423(5) 0.6908(4) 0.3458(6)
C12_13 C 0.0150(4) 0.7804(5) 0.3672(6)
H3_13 H 0.0210 0.8034 0.3690
C13_13 C 0.0402(5) 0.7555(5) 0.3635(6)
H4_13 H 0.0634 0.7611 0.3632
C14_13 C 0.0290(5) 0.7210(5) 0.3603(9)
C15_13 C 0.0550(5) 0.6950(5) 0.3558(10)
C16_13 C 0.0758(5) 0.6742(5) 0.3542(14)
C17_13 C 0.1001(3) 0.6499(3) 0.3459(7)
C18_13 C 0.1340(2) 0.6584(3) 0.3459(7)
F3_13 F 0.1077(5) 0.5592(4) 0.3458(6)
O5_4 O 0.2852(2) 0.4229(2) 0.3754(2)
C19_13 C 0.2350(4) 0.4696(5) 0.3672(6)
H5_13 H 0.2290 0.4466 0.3690
C20_13 C 0.2098(5) 0.4945(5) 0.3635(6)
H6_13 H 0.1866 0.4889 0.3632
C21_13 C 0.1160(2) 0.5916(3) 0.3459(7)
F4_13 F 0.0592(4) 0.6077(5) 0.3458(6)
C24_13 C 0.0916(3) 0.6160(2) 0.3459(7)
O7_5 O 0.4051(4) 0.4051(4) 0.4051(4)
O8_5 O 0.4068(3) 0.4068(3) 0.3432(3)
Hf2_2 Hf 0.31297(2) 0.3750 0.3750
F5_7 F 0.1077(5) 0.3458(6) 0.5592(4)
O9_5 O 0.2852(2) 0.3754(2) 0.4229(2)
C25_7 C 0.2972(4) 0.3711(7) 0.4528(4)
C26_7 C 0.2702(4) 0.3682(5) 0.4798(4)
C27_7 C 0.2350(4) 0.3672(6) 0.4696(5)
H9_7 H 0.2290 0.3690 0.4466
C28_7 C 0.2098(5) 0.3635(6) 0.4945(5)
H10_7 H 0.1866 0.3632 0.4889
C29_7 C 0.2210(5) 0.3603(9) 0.5290(5)
C30_7 C 0.1950(5) 0.3558(10) 0.5550(5)
C31_7 C 0.1742(5) 0.3542(14) 0.5758(5)
C32_7 C 0.1499(3) 0.3459(7) 0.6001(3)
C33_7 C 0.1160(2) 0.3459(7) 0.5916(3)
F6_7 F 0.0592(4) 0.3458(6) 0.6077(5)
C38_7 C 0.0290(5) 0.3603(9) 0.7210(5)
C39_7 C 0.0550(5) 0.3558(10) 0.6950(5)
C40_7 C 0.0758(5) 0.3542(14) 0.6742(5)
C41_7 C 0.1001(3) 0.3459(7) 0.6499(3)
C42_7 C 0.0916(3) 0.3459(7) 0.6160(2)
F7_7 F 0.1908(4) 0.3458(6) 0.6423(5)
O11_4 O 0.3271(2) 0.3754(2) 0.4648(2)
C43_7 C 0.2804(5) 0.3672(6) 0.5150(4)
H13_7 H 0.3034 0.3690 0.5210
C44_7 C 0.2555(5) 0.3635(6) 0.5402(5)
H14_7 H 0.2611 0.3632 0.5634
C45_7 C 0.1584(3) 0.3459(7) 0.6340(2)
F8_7 F 0.1423(5) 0.3458(6) 0.6908(4)
C46_7 C 0.0150(4) 0.3672(6) 0.7804(5)
H15_7 H 0.0210 0.3690 0.8034
C47_7 C 0.0402(5) 0.3635(6) 0.7555(5)
H16_7 H 0.0634 0.3632 0.7611
C48_7 C 0.1340(2) 0.3459(7) 0.6584(3)
Hf3_2 Hf 0.43703(2) 0.3750 0.3750
F9_7 F 0.1077(5) 0.4042(6) 0.1908(4)
O13_5 O 0.2852(2) 0.3746(2) 0.3271(2)
C49_7 C 0.2972(4) 0.3789(7) 0.2972(4)
C50_7 C 0.2702(4) 0.3818(5) 0.2702(4)
C51_7 C 0.2350(4) 0.3828(6) 0.2804(5)
H17_7 H 0.2290 0.3810 0.3034
C52_7 C 0.2098(5) 0.3865(6) 0.2555(5)
H18_7 H 0.1866 0.3868 0.2611
C53_7 C 0.2210(5) 0.3897(9) 0.2210(5)
C54_7 C 0.1950(5) 0.3942(10) 0.1950(5)
C55_7 C 0.1742(5) 0.3958(14) 0.1742(5)
C56_7 C 0.1499(3) 0.4041(7) 0.1499(3)
C57_7 C 0.1160(2) 0.4041(7) 0.1584(3)
F10_7 F 0.0592(4) 0.4042(6) 0.1423(5)
C62_7 C 0.0290(5) 0.3897(9) 0.0290(5)
C63_7 C 0.0550(5) 0.3942(10) 0.0550(5)
C64_7 C 0.0758(5) 0.3958(14) 0.0758(5)
C65_7 C 0.1001(3) 0.4041(7) 0.1001(3)
C66_7 C 0.0916(3) 0.4041(7) 0.1340(2)
F11_7 F 0.1908(4) 0.4042(6) 0.1077(5)
O15_4 O 0.3271(2) 0.3746(2) 0.2852(2)
C67_7 C 0.2804(5) 0.3828(6) 0.2350(4)
H21_7 H 0.3034 0.3810 0.2290
C68_7 C 0.2555(5) 0.3865(6) 0.2098(5)
H22_7 H 0.2611 0.3868 0.1866
C69_7 C 0.1584(3) 0.4041(7) 0.1160(2)
F12_7 F 0.1423(5) 0.4042(6) 0.0592(4)
C72_7 C 0.1340(2) 0.4041(7) 0.0916(3)
Hf10_3 Hf 0.3750 0.3750 0.43703(2)
Hf11_3 Hf 0.3750 0.3750 0.31297(2)
O17_7 O 0.4229(2) 0.4648(2) 0.3746(2)
O18_5 O 0.4648(2) 0.3754(2) 0.3271(2)
O19_5 O 0.4648(2) 0.3746(2) 0.4229(2)
O20_2 O 0.4648(2) 0.3271(2) 0.3754(2)
O21_9 O 0.3754(2) 0.4648(2) 0.3271(2)
O22_2 O 0.2852(2) 0.3271(2) 0.3746(2)
O23_9 O 0.3746(2) 0.4648(2) 0.4229(2)
O24_4 O 0.4648(2) 0.4229(2) 0.3746(2)
O25_5 O 0.4051(4) 0.3449(4) 0.3449(4)
O26_5 O 0.3449(4) 0.3449(4) 0.4051(4)
O27_5 O 0.4068(3) 0.3432(3) 0.4068(3)
O28_5 O 0.3432(3) 0.3432(3) 0.3432(3)
C70_7 C 0.0150(4) 0.3828(6) 0.9696(5)
H23_7 H 0.0210 0.3810 0.9466
C71_7 C 0.0402(5) 0.3865(6) 0.9945(5)
H24_7 H 0.0634 0.3868 0.9889
O4_11 O 0.9648(2) 0.8271(2) 0.3754(2)
C10_13 C 0.9528(4) 0.7972(4) 0.3711(7)
C11_13 C 0.9798(4) 0.7702(4) 0.3682(5)
O6_9 O 0.9229(2) 0.7852(2) 0.3754(2)
C22_13 C 0.9696(5) 0.7350(4) 0.3672(6)
H7_13 H 0.9466 0.7290 0.3690
C23_13 C 0.9945(5) 0.7098(5) 0.3635(6)
H8_13 H 0.9889 0.6866 0.3632
O10_5 O 0.9229(2) 0.3754(2) 0.7852(2)
C34_7 C 0.9528(4) 0.3711(7) 0.7972(4)
C35_7 C 0.9798(4) 0.3682(5) 0.7702(4)
C36_7 C 0.9696(5) 0.3672(6) 0.7350(4)
H11_7 H 0.9466 0.3690 0.7290
C37_7 C 0.9945(5) 0.3635(6) 0.7098(5)
H12_7 H 0.9889 0.3632 0.6866
O12_7 O 0.9648(2) 0.3754(2) 0.8271(2)
C60_7 C 0.9696(5) 0.3828(6) 0.0150(4)
H19_7 H 0.9466 0.3810 0.0210
C61_7 C 0.9945(5) 0.3865(6) 0.0402(5)
H20_7 H 0.9889 0.3868 0.0634
Hf5_5 Hf 0.93703(2) 0.3750 0.8750
Hf7_5 Hf 0.93703(2) 0.8750 0.3750
Hf8_2 Hf 0.8750 0.3750 0.81297(2)
Hf9_5 Hf 0.8750 0.81297(2) 0.3750
O14_5 O 0.9229(2) 0.3746(2) 0.9648(2)
C58_7 C 0.9528(4) 0.3789(7) 0.9528(4)
C59_7 C 0.9798(4) 0.3818(5) 0.9798(4)
O16_7 O 0.9648(2) 0.3746(2) 0.9229(2)
Hf6_2 Hf 0.8750 0.3750 0.93703(2)
F5_8 F 0.1423(5) 0.9042(6) 0.5592(4)
C27_8 C 0.0150(4) 0.8828(6) 0.4696(5)
H9_8 H 0.0210 0.8810 0.4466
C28_8 C 0.0402(5) 0.8865(6) 0.4945(5)
H10_8 H 0.0634 0.8868 0.4889
C29_8 C 0.0290(5) 0.8897(9) 0.5290(5)
C30_8 C 0.0550(5) 0.8942(10) 0.5550(5)
C31_8 C 0.0758(5) 0.8958(14) 0.5758(5)
C32_8 C 0.1001(3) 0.9041(7) 0.6001(3)
C33_8 C 0.1340(2) 0.9041(7) 0.5916(3)
F6_8 F 0.1908(4) 0.9042(6) 0.6077(5)
O10_6 O 0.3271(2) 0.8746(2) 0.7852(2)
C34_8 C 0.2972(4) 0.8789(7) 0.7972(4)
C35_8 C 0.2702(4) 0.8818(5) 0.7702(4)
C36_8 C 0.2804(5) 0.8828(6) 0.7350(4)
H11_8 H 0.3034 0.8810 0.7290
C37_8 C 0.2555(5) 0.8865(6) 0.7098(5)
H12_8 H 0.2611 0.8868 0.6866
C38_8 C 0.2210(5) 0.8897(9) 0.7210(5)
C39_8 C 0.1950(5) 0.8942(10) 0.6950(5)
C40_8 C 0.1742(5) 0.8958(14) 0.6742(5)
C41_8 C 0.1499(3) 0.9041(7) 0.6499(3)
C42_8 C 0.1584(3) 0.9041(7) 0.6160(2)
F7_8 F 0.0592(4) 0.9042(6) 0.6423(5)
C45_8 C 0.0916(3) 0.9041(7) 0.6340(2)
F8_8 F 0.1077(5) 0.9042(6) 0.6908(4)
O12_8 O 0.2852(2) 0.8746(2) 0.8271(2)
C46_8 C 0.2350(4) 0.8828(6) 0.7804(5)
H15_8 H 0.2290 0.8810 0.8034
C47_8 C 0.2098(5) 0.8865(6) 0.7555(5)
H16_8 H 0.1866 0.8868 0.7611
C48_8 C 0.1160(2) 0.9041(7) 0.6584(3)
F9_8 F 0.1423(5) 0.8458(6) 0.1908(4)
C51_8 C 0.0150(4) 0.8672(6) 0.2804(5)
H17_8 H 0.0210 0.8690 0.3034
C52_8 C 0.0402(5) 0.8635(6) 0.2555(5)
H18_8 H 0.0634 0.8632 0.2611
C53_8 C 0.0290(5) 0.8603(9) 0.2210(5)
C54_8 C 0.0550(5) 0.8558(10) 0.1950(5)
C55_8 C 0.0758(5) 0.8542(14) 0.1742(5)
C56_8 C 0.1001(3) 0.8459(7) 0.1499(3)
C57_8 C 0.1340(2) 0.8459(7) 0.1584(3)
F10_8 F 0.1908(4) 0.8458(6) 0.1423(5)
C60_8 C 0.2804(5) 0.8672(6) 0.0150(4)
H19_8 H 0.3034 0.8690 0.0210
C61_8 C 0.2555(5) 0.8635(6) 0.0402(5)
H20_8 H 0.2611 0.8632 0.0634
C62_8 C 0.2210(5) 0.8603(9) 0.0290(5)
C63_8 C 0.1950(5) 0.8558(10) 0.0550(5)
C64_8 C 0.1742(5) 0.8542(14) 0.0758(5)
C65_8 C 0.1499(3) 0.8459(7) 0.1001(3)
C66_8 C 0.1584(3) 0.8459(7) 0.1340(2)
F11_8 F 0.0592(4) 0.8458(6) 0.1077(5)
C69_8 C 0.0916(3) 0.8459(7) 0.1160(2)
F12_8 F 0.1077(5) 0.8458(6) 0.0592(4)
C72_8 C 0.1160(2) 0.8459(7) 0.0916(3)
Hf5_6 Hf 0.31297(2) 0.8750 0.8750
Hf8_3 Hf 0.3750 0.8750 0.81297(2)
O14_6 O 0.3271(2) 0.8754(2) 0.9648(2)
C58_8 C 0.2972(4) 0.8711(7) 0.9528(4)
C59_8 C 0.2702(4) 0.8682(5) 0.9798(4)
O16_8 O 0.2852(2) 0.8754(2) 0.9229(2)
C70_8 C 0.2350(4) 0.8672(6) 0.9696(5)
H23_8 H 0.2290 0.8690 0.9466
C71_8 C 0.2098(5) 0.8635(6) 0.9945(5)
H24_8 H 0.1866 0.8632 0.9889
Hf6_3 Hf 0.3750 0.8750 0.93703(2)
O2_6 O 0.9051(4) 0.8449(4) 0.3449(4)
O3_6 O 0.9068(3) 0.8432(3) 0.4068(3)
O7_6 O 0.8449(4) 0.8449(4) 0.4051(4)
O8_6 O 0.8432(3) 0.8432(3) 0.3432(3)
O9_6 O 0.9648(2) 0.8746(2) 0.4229(2)
C25_8 C 0.9528(4) 0.8789(7) 0.4528(4)
C26_8 C 0.9798(4) 0.8818(5) 0.4798(4)
O11_5 O 0.9229(2) 0.8746(2) 0.4648(2)
C43_8 C 0.9696(5) 0.8828(6) 0.5150(4)
H13_8 H 0.9466 0.8810 0.5210
C44_8 C 0.9945(5) 0.8865(6) 0.5402(5)
H14_8 H 0.9889 0.8868 0.5634
Hf3_3 Hf 0.81297(2) 0.8750 0.3750
O13_6 O 0.9648(2) 0.8754(2) 0.3271(2)
C49_8 C 0.9528(4) 0.8711(7) 0.2972(4)
C50_8 C 0.9798(4) 0.8682(5) 0.2702(4)
O15_5 O 0.9229(2) 0.8754(2) 0.2852(2)
C67_8 C 0.9696(5) 0.8672(6) 0.2350(4)
H21_8 H 0.9466 0.8690 0.2290
C68_8 C 0.9945(5) 0.8635(6) 0.2098(5)
H22_8 H 0.9889 0.8632 0.1866
Hf10_4 Hf 0.8750 0.8750 0.43703(2)
Hf11_4 Hf 0.8750 0.8750 0.31297(2)
O17_8 O 0.8271(2) 0.7852(2) 0.3746(2)
O18_6 O 0.7852(2) 0.8746(2) 0.3271(2)
O19_6 O 0.7852(2) 0.8754(2) 0.4229(2)
O20_3 O 0.7852(2) 0.9229(2) 0.3754(2)
O21_10 O 0.8746(2) 0.7852(2) 0.3271(2)
O22_3 O 0.9648(2) 0.9229(2) 0.3746(2)
O23_10 O 0.8754(2) 0.7852(2) 0.4229(2)
O24_5 O 0.7852(2) 0.8271(2) 0.3746(2)
O25_6 O 0.8449(4) 0.9051(4) 0.3449(4)
O26_6 O 0.9051(4) 0.9051(4) 0.4051(4)
O27_6 O 0.8432(3) 0.9068(3) 0.4068(3)
O28_6 O 0.9068(3) 0.9068(3) 0.3432(3)
F9_9 F 0.4042(6) 0.0592(4) 0.1423(5)
C53_9 C 0.3897(9) 0.0290(5) 0.0290(5)
C54_9 C 0.3942(10) 0.0550(5) 0.0550(5)
C55_9 C 0.3958(14) 0.0758(5) 0.0758(5)
C56_9 C 0.4041(7) 0.1001(3) 0.1001(3)
C57_9 C 0.4041(7) 0.0916(3) 0.1340(2)
F10_9 F 0.4042(6) 0.1077(5) 0.1908(4)
O14_7 O 0.3746(2) 0.2852(2) 0.3271(2)
C58_9 C 0.3789(7) 0.2972(4) 0.2972(4)
C59_9 C 0.3818(5) 0.2702(4) 0.2702(4)
C60_9 C 0.3828(6) 0.2350(4) 0.2804(5)
H19_9 H 0.3810 0.2290 0.3034
C61_9 C 0.3865(6) 0.2098(5) 0.2555(5)
H20_9 H 0.3868 0.1866 0.2611
C62_9 C 0.3897(9) 0.2210(5) 0.2210(5)
C63_9 C 0.3942(10) 0.1950(5) 0.1950(5)
C64_9 C 0.3958(14) 0.1742(5) 0.1742(5)
C65_9 C 0.4041(7) 0.1499(3) 0.1499(3)
C66_9 C 0.4041(7) 0.1160(2) 0.1584(3)
F11_9 F 0.4042(6) 0.1423(5) 0.0592(4)
C69_9 C 0.4041(7) 0.1340(2) 0.0916(3)
F12_9 F 0.4042(6) 0.1908(4) 0.1077(5)
O16_9 O 0.3746(2) 0.3271(2) 0.2852(2)
C70_9 C 0.3828(6) 0.2804(5) 0.2350(4)
H23_9 H 0.3810 0.3034 0.2290
C71_9 C 0.3865(6) 0.2555(5) 0.2098(5)
H24_9 H 0.3868 0.2611 0.1866
C72_9 C 0.4041(7) 0.1584(3) 0.1160(2)
Hf6_4 Hf 0.3750 0.31297(2) 0.3750
C67_9 C 0.3828(6) 0.0150(4) 0.9696(5)
H21_9 H 0.3810 0.0210 0.9466
C68_9 C 0.3865(6) 0.0402(5) 0.9945(5)
H22_9 H 0.3868 0.0634 0.9889
F1_14 F 0.6423(5) 0.9042(6) 0.0592(4)
C5_14 C 0.5290(5) 0.8897(9) 0.0290(5)
C6_14 C 0.5550(5) 0.8942(10) 0.0550(5)
C7_14 C 0.5758(5) 0.8958(14) 0.0758(5)
C8_14 C 0.6001(3) 0.9041(7) 0.1001(3)
C9_14 C 0.6340(2) 0.9041(7) 0.0916(3)
F2_14 F 0.6908(4) 0.9042(6) 0.1077(5)
O4_12 O 0.8271(2) 0.8746(2) 0.2852(2)
C10_14 C 0.7972(4) 0.8789(7) 0.2972(4)
C11_14 C 0.7702(4) 0.8818(5) 0.2702(4)
C12_14 C 0.7804(5) 0.8828(6) 0.2350(4)
H3_14 H 0.8034 0.8810 0.2290
C13_14 C 0.7555(5) 0.8865(6) 0.2098(5)
H4_14 H 0.7611 0.8868 0.1866
C14_14 C 0.7210(5) 0.8897(9) 0.2210(5)
C15_14 C 0.6950(5) 0.8942(10) 0.1950(5)
C16_14 C 0.6742(5) 0.8958(14) 0.1742(5)
C17_14 C 0.6499(3) 0.9041(7) 0.1499(3)
C18_14 C 0.6584(3) 0.9041(7) 0.1160(2)
F3_14 F 0.5592(4) 0.9042(6) 0.1423(5)
C19_14 C 0.4696(5) 0.8828(6) 0.0150(4)
H5_14 H 0.4466 0.8810 0.0210
C20_14 C 0.4945(5) 0.8865(6) 0.0402(5)
H6_14 H 0.4889 0.8868 0.0634
C21_14 C 0.5916(3) 0.9041(7) 0.1340(2)
F4_14 F 0.6077(5) 0.9042(6) 0.1908(4)
C22_14 C 0.7350(4) 0.8828(6) 0.2804(5)
H7_14 H 0.7290 0.8810 0.3034
C23_14 C 0.7098(5) 0.8865(6) 0.2555(5)
H8_14 H 0.6866 0.8868 0.2611
C24_14 C 0.6160(2) 0.9041(7) 0.1584(3)
F5_9 F 0.3458(6) 0.6908(4) 0.1423(5)
C27_9 C 0.3672(6) 0.7804(5) 0.0150(4)
H9_9 H 0.3690 0.8034 0.0210
C28_9 C 0.3635(6) 0.7555(5) 0.0402(5)
H10_9 H 0.3632 0.7611 0.0634
C29_9 C 0.3603(9) 0.7210(5) 0.0290(5)
C30_9 C 0.3558(10) 0.6950(5) 0.0550(5)
C31_9 C 0.3542(14) 0.6742(5) 0.0758(5)
C32_9 C 0.3459(7) 0.6499(3) 0.1001(3)
C33_9 C 0.3459(7) 0.6584(3) 0.1340(2)
F6_9 F 0.3458(6) 0.6423(5) 0.1908(4)
C34_9 C 0.3711(7) 0.4528(4) 0.2972(4)
C35_9 C 0.3682(5) 0.4798(4) 0.2702(4)
C36_9 C 0.3672(6) 0.5150(4) 0.2804(5)
H11_9 H 0.3690 0.5210 0.3034
C37_9 C 0.3635(6) 0.5402(5) 0.2555(5)
H12_9 H 0.3632 0.5634 0.2611
C38_9 C 0.3603(9) 0.5290(5) 0.2210(5)
C39_9 C 0.3558(10) 0.5550(5) 0.1950(5)
C40_9 C 0.3542(14) 0.5758(5) 0.1742(5)
C41_9 C 0.3459(7) 0.6001(3) 0.1499(3)
C42_9 C 0.3459(7) 0.6340(2) 0.1584(3)
F7_9 F 0.3458(6) 0.6077(5) 0.0592(4)
C45_9 C 0.3459(7) 0.6160(2) 0.0916(3)
F8_9 F 0.3458(6) 0.5592(4) 0.1077(5)
O12_9 O 0.3754(2) 0.4229(2) 0.2852(2)
C46_9 C 0.3672(6) 0.4696(5) 0.2350(4)
H15_9 H 0.3690 0.4466 0.2290
C47_9 C 0.3635(6) 0.4945(5) 0.2098(5)
H16_9 H 0.3632 0.4889 0.1866
C48_9 C 0.3459(7) 0.5916(3) 0.1160(2)
C51_9 C 0.3828(6) 0.9696(5) 0.0150(4)
H17_9 H 0.3810 0.9466 0.0210
C52_9 C 0.3865(6) 0.9945(5) 0.0402(5)
H18_9 H 0.3868 0.9889 0.0634
Hf1_6 Hf 0.43703(2) 0.8750 0.8750
O1_8 O 0.4648(2) 0.8746(2) 0.9229(2)
O2_7 O 0.4051(4) 0.9051(4) 0.9051(4)
O3_7 O 0.4068(3) 0.8432(3) 0.9068(3)
C1_14 C 0.4528(4) 0.8789(7) 0.9528(4)
C2_14 C 0.4798(4) 0.8818(5) 0.9798(4)
C3_14 C 0.5150(4) 0.8828(6) 0.9696(5)
H1_14 H 0.5210 0.8810 0.9466
C4_14 C 0.5402(5) 0.8865(6) 0.9945(5)
H2_14 H 0.5634 0.8868 0.9889
O5_5 O 0.4229(2) 0.8746(2) 0.9648(2)
O7_7 O 0.4051(4) 0.8449(4) 0.8449(4)
O8_7 O 0.4068(3) 0.9068(3) 0.8432(3)
O9_7 O 0.3754(2) 0.8271(2) 0.9648(2)
C25_9 C 0.3711(7) 0.7972(4) 0.9528(4)
C26_9 C 0.3682(5) 0.7702(4) 0.9798(4)
O11_6 O 0.3754(2) 0.7852(2) 0.9229(2)
C43_9 C 0.3672(6) 0.7350(4) 0.9696(5)
H13_9 H 0.3690 0.7290 0.9466
C44_9 C 0.3635(6) 0.7098(5) 0.9945(5)
H14_9 H 0.3632 0.6866 0.9889
O13_7 O 0.3746(2) 0.9229(2) 0.9648(2)
C49_9 C 0.3789(7) 0.9528(4) 0.9528(4)
C50_9 C 0.3818(5) 0.9798(4) 0.9798(4)
O15_6 O 0.3746(2) 0.9648(2) 0.9229(2)
Hf10_5 Hf 0.3750 0.81297(2) 0.8750
Hf11_5 Hf 0.3750 0.93703(2) 0.8750
O17_9 O 0.4648(2) 0.8754(2) 0.8271(2)
O18_7 O 0.3754(2) 0.9229(2) 0.7852(2)
O19_7 O 0.3746(2) 0.8271(2) 0.7852(2)
O21_11 O 0.4648(2) 0.9229(2) 0.8746(2)
O23_11 O 0.4648(2) 0.8271(2) 0.8754(2)
O24_6 O 0.4229(2) 0.8754(2) 0.7852(2)
O25_7 O 0.3449(4) 0.9051(4) 0.8449(4)
O26_7 O 0.3449(4) 0.8449(4) 0.9051(4)
O27_7 O 0.3432(3) 0.8432(3) 0.8432(3)
O28_7 O 0.3432(3) 0.9068(3) 0.9068(3)
F1_15 F 0.6423(5) 0.3458(6) 0.1908(4)
C1_15 C 0.4528(4) 0.3711(7) 0.2972(4)
C2_15 C 0.4798(4) 0.3682(5) 0.2702(4)
C3_15 C 0.5150(4) 0.3672(6) 0.2804(5)
H1_15 H 0.5210 0.3690 0.3034
C4_15 C 0.5402(5) 0.3635(6) 0.2555(5)
H2_15 H 0.5634 0.3632 0.2611
C5_15 C 0.5290(5) 0.3603(9) 0.2210(5)
C6_15 C 0.5550(5) 0.3558(10) 0.1950(5)
C7_15 C 0.5758(5) 0.3542(14) 0.1742(5)
C8_15 C 0.6001(3) 0.3459(7) 0.1499(3)
C9_15 C 0.6340(2) 0.3459(7) 0.1584(3)
F2_15 F 0.6908(4) 0.3458(6) 0.1423(5)
C12_15 C 0.7804(5) 0.3672(6) 0.0150(4)
H3_15 H 0.8034 0.3690 0.0210
C13_15 C 0.7555(5) 0.3635(6) 0.0402(5)
H4_15 H 0.7611 0.3632 0.0634
C14_15 C 0.7210(5) 0.3603(9) 0.0290(5)
C15_15 C 0.6950(5) 0.3558(10) 0.0550(5)
C16_15 C 0.6742(5) 0.3542(14) 0.0758(5)
C17_15 C 0.6499(3) 0.3459(7) 0.1001(3)
C18_15 C 0.6584(3) 0.3459(7) 0.1340(2)
F3_15 F 0.5592(4) 0.3458(6) 0.1077(5)
O5_6 O 0.4229(2) 0.3754(2) 0.2852(2)
C19_15 C 0.4696(5) 0.3672(6) 0.2350(4)
H5_15 H 0.4466 0.3690 0.2290
C20_15 C 0.4945(5) 0.3635(6) 0.2098(5)
H6_15 H 0.4889 0.3632 0.1866
C21_15 C 0.5916(3) 0.3459(7) 0.1160(2)
F4_15 F 0.6077(5) 0.3458(6) 0.0592(4)
C24_15 C 0.6160(2) 0.3459(7) 0.0916(3)
O18_8 O 0.3754(2) 0.3271(2) 0.4648(2)
O19_8 O 0.3746(2) 0.4229(2) 0.4648(2)
O24_7 O 0.4229(2) 0.3746(2) 0.4648(2)
O4_13 O 0.8271(2) 0.3754(2) 0.9648(2)
C10_15 C 0.7972(4) 0.3711(7) 0.9528(4)
C11_15 C 0.7702(4) 0.3682(5) 0.9798(4)
O6_10 O 0.7852(2) 0.3754(2) 0.9229(2)
C22_15 C 0.7350(4) 0.3672(6) 0.9696(5)
H7_15 H 0.7290 0.3690 0.9466
C23_15 C 0.7098(5) 0.3635(6) 0.9945(5)
H8_15 H 0.6866 0.3632 0.9889
Hf9_6 Hf 0.81297(2) 0.3750 0.8750
F1_16 F 0.3458(6) 0.0592(4) 0.6077(5)
C5_16 C 0.3603(9) 0.0290(5) 0.7210(5)
C6_16 C 0.3558(10) 0.0550(5) 0.6950(5)
C7_16 C 0.3542(14) 0.0758(5) 0.6742(5)
C8_16 C 0.3459(7) 0.1001(3) 0.6499(3)
C9_16 C 0.3459(7) 0.0916(3) 0.6160(2)
F2_16 F 0.3458(6) 0.1077(5) 0.5592(4)
O4_14 O 0.3754(2) 0.2852(2) 0.4229(2)
C10_16 C 0.3711(7) 0.2972(4) 0.4528(4)
C11_16 C 0.3682(5) 0.2702(4) 0.4798(4)
C12_16 C 0.3672(6) 0.2350(4) 0.4696(5)
H3_16 H 0.3690 0.2290 0.4466
C13_16 C 0.3635(6) 0.2098(5) 0.4945(5)
H4_16 H 0.3632 0.1866 0.4889
C14_16 C 0.3603(9) 0.2210(5) 0.5290(5)
C15_16 C 0.3558(10) 0.1950(5) 0.5550(5)
C16_16 C 0.3542(14) 0.1742(5) 0.5758(5)
C17_16 C 0.3459(7) 0.1499(3) 0.6001(3)
C18_16 C 0.3459(7) 0.1160(2) 0.5916(3)
F3_16 F 0.3458(6) 0.1423(5) 0.6908(4)
C19_16 C 0.3672(6) 0.0150(4) 0.7804(5)
H5_16 H 0.3690 0.0210 0.8034
C20_16 C 0.3635(6) 0.0402(5) 0.7555(5)
H6_16 H 0.3632 0.0634 0.7611
C21_16 C 0.3459(7) 0.1340(2) 0.6584(3)
F4_16 F 0.3458(6) 0.1908(4) 0.6423(5)
C22_16 C 0.3672(6) 0.2804(5) 0.5150(4)
H7_16 H 0.3690 0.3034 0.5210
C23_16 C 0.3635(6) 0.2555(5) 0.5402(5)
H8_16 H 0.3632 0.2611 0.5634
C24_16 C 0.3459(7) 0.1584(3) 0.6340(2)
F5_10 F 0.5592(4) 0.1423(5) 0.9042(6)
C27_10 C 0.4696(5) 0.0150(4) 0.8828(6)
H9_10 H 0.4466 0.0210 0.8810
C28_10 C 0.4945(5) 0.0402(5) 0.8865(6)
H10_10 H 0.4889 0.0634 0.8868
C29_10 C 0.5290(5) 0.0290(5) 0.8897(9)
C30_10 C 0.5550(5) 0.0550(5) 0.8942(10)
C31_10 C 0.5758(5) 0.0758(5) 0.8958(14)
C32_10 C 0.6001(3) 0.1001(3) 0.9041(7)
C33_10 C 0.5916(3) 0.1340(2) 0.9041(7)
F6_10 F 0.6077(5) 0.1908(4) 0.9042(6)
O10_7 O 0.7852(2) 0.3271(2) 0.8746(2)
C34_10 C 0.7972(4) 0.2972(4) 0.8789(7)
C35_10 C 0.7702(4) 0.2702(4) 0.8818(5)
C36_10 C 0.7350(4) 0.2804(5) 0.8828(6)
H11_10 H 0.7290 0.3034 0.8810
C37_10 C 0.7098(5) 0.2555(5) 0.8865(6)
H12_10 H 0.6866 0.2611 0.8868
C38_10 C 0.7210(5) 0.2210(5) 0.8897(9)
C39_10 C 0.6950(5) 0.1950(5) 0.8942(10)
C40_10 C 0.6742(5) 0.1742(5) 0.8958(14)
C41_10 C 0.6499(3) 0.1499(3) 0.9041(7)
C42_10 C 0.6160(2) 0.1584(3) 0.9041(7)
F7_10 F 0.6423(5) 0.0592(4) 0.9042(6)
C45_10 C 0.6340(2) 0.0916(3) 0.9041(7)
F8_10 F 0.6908(4) 0.1077(5) 0.9042(6)
O12_10 O 0.8271(2) 0.2852(2) 0.8746(2)
C46_10 C 0.7804(5) 0.2350(4) 0.8828(6)
H15_10 H 0.8034 0.2290 0.8810
C47_10 C 0.7555(5) 0.2098(5) 0.8865(6)
H16_10 H 0.7611 0.1866 0.8868
C48_10 C 0.6584(3) 0.1160(2) 0.9041(7)
F9_10 F 0.1908(4) 0.1423(5) 0.8458(6)
C51_10 C 0.2804(5) 0.0150(4) 0.8672(6)
H17_10 H 0.3034 0.0210 0.8690
C52_10 C 0.2555(5) 0.0402(5) 0.8635(6)
H18_10 H 0.2611 0.0634 0.8632
C53_10 C 0.2210(5) 0.0290(5) 0.8603(9)
C54_10 C 0.1950(5) 0.0550(5) 0.8558(10)
C55_10 C 0.1742(5) 0.0758(5) 0.8542(14)
C56_10 C 0.1499(3) 0.1001(3) 0.8459(7)
C57_10 C 0.1584(3) 0.1340(2) 0.8459(7)
F10_10 F 0.1423(5) 0.1908(4) 0.8458(6)
C60_10 C 0.0150(4) 0.2804(5) 0.8672(6)
H19_10 H 0.0210 0.3034 0.8690
C61_10 C 0.0402(5) 0.2555(5) 0.8635(6)
H20_10 H 0.0634 0.2611 0.8632
C62_10 C 0.0290(5) 0.2210(5) 0.8603(9)
C63_10 C 0.0550(5) 0.1950(5) 0.8558(10)
C64_10 C 0.0758(5) 0.1742(5) 0.8542(14)
C65_10 C 0.1001(3) 0.1499(3) 0.8459(7)
C66_10 C 0.1340(2) 0.1584(3) 0.8459(7)
F11_10 F 0.1077(5) 0.0592(4) 0.8458(6)
C69_10 C 0.1160(2) 0.0916(3) 0.8459(7)
F12_10 F 0.0592(4) 0.1077(5) 0.8458(6)
C72_10 C 0.0916(3) 0.1160(2) 0.8459(7)
Hf5_7 Hf 0.8750 0.31297(2) 0.8750
C1_16 C 0.3711(7) 0.9528(4) 0.7972(4)
C2_16 C 0.3682(5) 0.9798(4) 0.7702(4)
C3_16 C 0.3672(6) 0.9696(5) 0.7350(4)
H1_16 H 0.3690 0.9466 0.7290
C4_16 C 0.3635(6) 0.9945(5) 0.7098(5)
H2_16 H 0.3632 0.9889 0.6866
O5_7 O 0.3754(2) 0.9648(2) 0.8271(2)
O9_8 O 0.4229(2) 0.9648(2) 0.8746(2)
C25_10 C 0.4528(4) 0.9528(4) 0.8789(7)
C26_10 C 0.4798(4) 0.9798(4) 0.8818(5)
C43_10 C 0.5150(4) 0.9696(5) 0.8828(6)
H13_10 H 0.5210 0.9466 0.8810
C44_10 C 0.5402(5) 0.9945(5) 0.8865(6)
H14_10 H 0.5634 0.9889 0.8868
O13_8 O 0.3271(2) 0.9648(2) 0.8754(2)
C49_10 C 0.2972(4) 0.9528(4) 0.8711(7)
C50_10 C 0.2702(4) 0.9798(4) 0.8682(5)
O15_7 O 0.2852(2) 0.9229(2) 0.8754(2)
C67_10 C 0.2350(4) 0.9696(5) 0.8672(6)
H21_10 H 0.2290 0.9466 0.8690
C68_10 C 0.2098(5) 0.9945(5) 0.8635(6)
H22_10 H 0.1866 0.9889 0.8632
O18_9 O 0.3271(2) 0.7852(2) 0.8746(2)
O19_9 O 0.4229(2) 0.7852(2) 0.8754(2)
O24_8 O 0.3746(2) 0.7852(2) 0.8271(2)
O14_8 O 0.9648(2) 0.3271(2) 0.8754(2)
C58_10 C 0.9528(4) 0.2972(4) 0.8711(7)
C59_10 C 0.9798(4) 0.2702(4) 0.8682(5)
O16_10 O 0.9229(2) 0.2852(2) 0.8754(2)
C70_10 C 0.9696(5) 0.2350(4) 0.8672(6)
H23_10 H 0.9466 0.2290 0.8690
C71_10 C 0.9945(5) 0.2098(5) 0.8635(6)
H24_10 H 0.9889 0.1866 0.8632
F9_11 F 0.0592(4) 0.1423(5) 0.4042(6)
C53_11 C 0.0290(5) 0.0290(5) 0.3897(9)
C54_11 C 0.0550(5) 0.0550(5) 0.3942(10)
C55_11 C 0.0758(5) 0.0758(5) 0.3958(14)
C56_11 C 0.1001(3) 0.1001(3) 0.4041(7)
C57_11 C 0.0916(3) 0.1340(2) 0.4041(7)
F10_11 F 0.1077(5) 0.1908(4) 0.4042(6)
C58_11 C 0.2972(4) 0.2972(4) 0.3789(7)
C59_11 C 0.2702(4) 0.2702(4) 0.3818(5)
C60_11 C 0.2350(4) 0.2804(5) 0.3828(6)
H19_11 H 0.2290 0.3034 0.3810
C61_11 C 0.2098(5) 0.2555(5) 0.3865(6)
H20_11 H 0.1866 0.2611 0.3868
C62_11 C 0.2210(5) 0.2210(5) 0.3897(9)
C63_11 C 0.1950(5) 0.1950(5) 0.3942(10)
C64_11 C 0.1742(5) 0.1742(5) 0.3958(14)
C65_11 C 0.1499(3) 0.1499(3) 0.4041(7)
C66_11 C 0.1160(2) 0.1584(3) 0.4041(7)
F11_11 F 0.1423(5) 0.0592(4) 0.4042(6)
C69_11 C 0.1340(2) 0.0916(3) 0.4041(7)
F12_11 F 0.1908(4) 0.1077(5) 0.4042(6)
O16_11 O 0.3271(2) 0.2852(2) 0.3746(2)
C70_11 C 0.2804(5) 0.2350(4) 0.3828(6)
H23_11 H 0.3034 0.2290 0.3810
C71_11 C 0.2555(5) 0.2098(5) 0.3865(6)
H24_11 H 0.2611 0.1866 0.3868
C72_11 C 0.1584(3) 0.1160(2) 0.4041(7)
C67_11 C 0.0150(4) 0.9696(5) 0.3828(6)
H21_11 H 0.0210 0.9466 0.3810
C68_11 C 0.0402(5) 0.9945(5) 0.3865(6)
H22_11 H 0.0634 0.9889 0.3868
F1_17 F 0.9042(6) 0.0592(4) 0.6423(5)
C5_17 C 0.8897(9) 0.0290(5) 0.5290(5)
C6_17 C 0.8942(10) 0.0550(5) 0.5550(5)
C7_17 C 0.8958(14) 0.0758(5) 0.5758(5)
C8_17 C 0.9041(7) 0.1001(3) 0.6001(3)
C9_17 C 0.9041(7) 0.0916(3) 0.6340(2)
F2_17 F 0.9042(6) 0.1077(5) 0.6908(4)
O4_15 O 0.8746(2) 0.2852(2) 0.8271(2)
C10_17 C 0.8789(7) 0.2972(4) 0.7972(4)
C11_17 C 0.8818(5) 0.2702(4) 0.7702(4)
C12_17 C 0.8828(6) 0.2350(4) 0.7804(5)
H3_17 H 0.8810 0.2290 0.8034
C13_17 C 0.8865(6) 0.2098(5) 0.7555(5)
H4_17 H 0.8868 0.1866 0.7611
C14_17 C 0.8897(9) 0.2210(5) 0.7210(5)
C15_17 C 0.8942(10) 0.1950(5) 0.6950(5)
C16_17 C 0.8958(14) 0.1742(5) 0.6742(5)
C17_17 C 0.9041(7) 0.1499(3) 0.6499(3)
C18_17 C 0.9041(7) 0.1160(2) 0.6584(3)
F3_17 F 0.9042(6) 0.1423(5) 0.5592(4)
C19_17 C 0.8828(6) 0.0150(4) 0.4696(5)
H5_17 H 0.8810 0.0210 0.4466
C20_17 C 0.8865(6) 0.0402(5) 0.4945(5)
H6_17 H 0.8868 0.0634 0.4889
C21_17 C 0.9041(7) 0.1340(2) 0.5916(3)
F4_17 F 0.9042(6) 0.1908(4) 0.6077(5)
O6_11 O 0.8746(2) 0.3271(2) 0.7852(2)
C22_17 C 0.8828(6) 0.2804(5) 0.7350(4)
H7_17 H 0.8810 0.3034 0.7290
C23_17 C 0.8865(6) 0.2555(5) 0.7098(5)
H8_17 H 0.8868 0.2611 0.6866
C24_17 C 0.9041(7) 0.1584(3) 0.6160(2)
F5_11 F 0.6908(4) 0.1423(5) 0.3458(6)
C27_11 C 0.7804(5) 0.0150(4) 0.3672(6)
H9_11 H 0.8034 0.0210 0.3690
C28_11 C 0.7555(5) 0.0402(5) 0.3635(6)
H10_11 H 0.7611 0.0634 0.3632
C29_11 C 0.7210(5) 0.0290(5) 0.3603(9)
C30_11 C 0.6950(5) 0.0550(5) 0.3558(10)
C31_11 C 0.6742(5) 0.0758(5) 0.3542(14)
C32_11 C 0.6499(3) 0.1001(3) 0.3459(7)
C33_11 C 0.6584(3) 0.1340(2) 0.3459(7)
F6_11 F 0.6423(5) 0.1908(4) 0.3458(6)
C34_11 C 0.4528(4) 0.2972(4) 0.3711(7)
C35_11 C 0.4798(4) 0.2702(4) 0.3682(5)
C36_11 C 0.5150(4) 0.2804(5) 0.3672(6)
H11_11 H 0.5210 0.3034 0.3690
C37_11 C 0.5402(5) 0.2555(5) 0.3635(6)
H12_11 H 0.5634 0.2611 0.3632
C38_11 C 0.5290(5) 0.2210(5) 0.3603(9)
C39_11 C 0.5550(5) 0.1950(5) 0.3558(10)
C40_11 C 0.5758(5) 0.1742(5) 0.3542(14)
C41_11 C 0.6001(3) 0.1499(3) 0.3459(7)
C42_11 C 0.6340(2) 0.1584(3) 0.3459(7)
F7_11 F 0.6077(5) 0.0592(4) 0.3458(6)
C45_11 C 0.6160(2) 0.0916(3) 0.3459(7)
F8_11 F 0.5592(4) 0.1077(5) 0.3458(6)
O12_11 O 0.4229(2) 0.2852(2) 0.3754(2)
C46_11 C 0.4696(5) 0.2350(4) 0.3672(6)
H15_11 H 0.4466 0.2290 0.3690
C47_11 C 0.4945(5) 0.2098(5) 0.3635(6)
H16_11 H 0.4889 0.1866 0.3632
C48_11 C 0.5916(3) 0.1160(2) 0.3459(7)
C51_11 C 0.9696(5) 0.0150(4) 0.3828(6)
H17_11 H 0.9466 0.0210 0.3810
C52_11 C 0.9945(5) 0.0402(5) 0.3865(6)
H18_11 H 0.9889 0.0634 0.3868
O1_9 O 0.8746(2) 0.9229(2) 0.4648(2)
C1_17 C 0.8789(7) 0.9528(4) 0.4528(4)
C2_17 C 0.8818(5) 0.9798(4) 0.4798(4)
C3_17 C 0.8828(6) 0.9696(5) 0.5150(4)
H1_17 H 0.8810 0.9466 0.5210
C4_17 C 0.8865(6) 0.9945(5) 0.5402(5)
H2_17 H 0.8868 0.9889 0.5634
O5_8 O 0.8746(2) 0.9648(2) 0.4229(2)
Hf2_3 Hf 0.8750 0.93703(2) 0.3750
O9_9 O 0.8271(2) 0.9648(2) 0.3754(2)
C25_11 C 0.7972(4) 0.9528(4) 0.3711(7)
C26_11 C 0.7702(4) 0.9798(4) 0.3682(5)
C43_11 C 0.7350(4) 0.9696(5) 0.3672(6)
H13_11 H 0.7290 0.9466 0.3690
C44_11 C 0.7098(5) 0.9945(5) 0.3635(6)
H14_11 H 0.6866 0.9889 0.3632
O13_9 O 0.9229(2) 0.9648(2) 0.3746(2)
C49_11 C 0.9528(4) 0.9528(4) 0.3789(7)
C50_11 C 0.9798(4) 0.9798(4) 0.3818(5)
O17_10 O 0.8754(2) 0.8271(2) 0.4648(2)
O22_4 O 0.8754(2) 0.9648(2) 0.3271(2)
O23_12 O 0.8271(2) 0.8754(2) 0.4648(2)
F1_18 F 0.0592(4) 0.6423(5) 0.9042(6)
C5_18 C 0.0290(5) 0.5290(5) 0.8897(9)
C6_18 C 0.0550(5) 0.5550(5) 0.8942(10)
C7_18 C 0.0758(5) 0.5758(5) 0.8958(14)
C8_18 C 0.1001(3) 0.6001(3) 0.9041(7)
C9_18 C 0.0916(3) 0.6340(2) 0.9041(7)
F2_18 F 0.1077(5) 0.6908(4) 0.9042(6)
O4_16 O 0.2852(2) 0.8271(2) 0.8746(2)
C10_18 C 0.2972(4) 0.7972(4) 0.8789(7)
C11_18 C 0.2702(4) 0.7702(4) 0.8818(5)
C12_18 C 0.2350(4) 0.7804(5) 0.8828(6)
H3_18 H 0.2290 0.8034 0.8810
C13_18 C 0.2098(5) 0.7555(5) 0.8865(6)
H4_18 H 0.1866 0.7611 0.8868
C14_18 C 0.2210(5) 0.7210(5) 0.8897(9)
C15_18 C 0.1950(5) 0.6950(5) 0.8942(10)
C16_18 C 0.1742(5) 0.6742(5) 0.8958(14)
C17_18 C 0.1499(3) 0.6499(3) 0.9041(7)
C18_18 C 0.1160(2) 0.6584(3) 0.9041(7)
F3_18 F 0.1423(5) 0.5592(4) 0.9042(6)
C19_18 C 0.0150(4) 0.4696(5) 0.8828(6)
H5_18 H 0.0210 0.4466 0.8810
C20_18 C 0.0402(5) 0.4945(5) 0.8865(6)
H6_18 H 0.0634 0.4889 0.8868
C21_18 C 0.1340(2) 0.5916(3) 0.9041(7)
F4_18 F 0.1908(4) 0.6077(5) 0.9042(6)
C22_18 C 0.2804(5) 0.7350(4) 0.8828(6)
H7_18 H 0.3034 0.7290 0.8810
C23_18 C 0.2555(5) 0.7098(5) 0.8865(6)
H8_18 H 0.2611 0.6866 0.8868
C24_18 C 0.1584(3) 0.6160(2) 0.9041(7)
Hf1_7 Hf 0.8750 0.43703(2) 0.8750
O1_10 O 0.9229(2) 0.4648(2) 0.8746(2)
O2_8 O 0.9051(4) 0.4051(4) 0.9051(4)
O3_8 O 0.9068(3) 0.4068(3) 0.8432(3)
C1_18 C 0.9528(4) 0.4528(4) 0.8789(7)
C2_18 C 0.9798(4) 0.4798(4) 0.8818(5)
C3_18 C 0.9696(5) 0.5150(4) 0.8828(6)
H1_18 H 0.9466 0.5210 0.8810
C4_18 C 0.9945(5) 0.5402(5) 0.8865(6)
H2_18 H 0.9889 0.5634 0.8868
O5_9 O 0.9648(2) 0.4229(2) 0.8746(2)
O7_8 O 0.8449(4) 0.4051(4) 0.8449(4)
O8_8 O 0.8432(3) 0.4068(3) 0.9068(3)
O17_11 O 0.8271(2) 0.4648(2) 0.8754(2)
O19_10 O 0.7852(2) 0.3746(2) 0.8271(2)
O21_12 O 0.8746(2) 0.4648(2) 0.9229(2)
O23_13 O 0.8754(2) 0.4648(2) 0.8271(2)
O24_9 O 0.7852(2) 0.4229(2) 0.8754(2)
O25_8 O 0.8449(4) 0.3449(4) 0.9051(4)
O26_8 O 0.9051(4) 0.3449(4) 0.8449(4)
O27_8 O 0.8432(3) 0.3432(3) 0.8432(3)
O28_8 O 0.9068(3) 0.3432(3) 0.9068(3)
F5_12 F 0.9042(6) 0.5592(4) 0.1423(5)
C27_12 C 0.8828(6) 0.4696(5) 0.0150(4)
H9_12 H 0.8810 0.4466 0.0210
C28_12 C 0.8865(6) 0.4945(5) 0.0402(5)
H10_12 H 0.8868 0.4889 0.0634
C29_12 C 0.8897(9) 0.5290(5) 0.0290(5)
C30_12 C 0.8942(10) 0.5550(5) 0.0550(5)
C31_12 C 0.8958(14) 0.5758(5) 0.0758(5)
C32_12 C 0.9041(7) 0.6001(3) 0.1001(3)
C33_12 C 0.9041(7) 0.5916(3) 0.1340(2)
F6_12 F 0.9042(6) 0.6077(5) 0.1908(4)
C34_12 C 0.8789(7) 0.7972(4) 0.2972(4)
C35_12 C 0.8818(5) 0.7702(4) 0.2702(4)
C36_12 C 0.8828(6) 0.7350(4) 0.2804(5)
H11_12 H 0.8810 0.7290 0.3034
C37_12 C 0.8865(6) 0.7098(5) 0.2555(5)
H12_12 H 0.8868 0.6866 0.2611
C38_12 C 0.8897(9) 0.7210(5) 0.2210(5)
C39_12 C 0.8942(10) 0.6950(5) 0.1950(5)
C40_12 C 0.8958(14) 0.6742(5) 0.1742(5)
C41_12 C 0.9041(7) 0.6499(3) 0.1499(3)
C42_12 C 0.9041(7) 0.6160(2) 0.1584(3)
F7_12 F 0.9042(6) 0.6423(5) 0.0592(4)
C45_12 C 0.9041(7) 0.6340(2) 0.0916(3)
F8_12 F 0.9042(6) 0.6908(4) 0.1077(5)
O12_12 O 0.8746(2) 0.8271(2) 0.2852(2)
C46_12 C 0.8828(6) 0.7804(5) 0.2350(4)
H15_12 H 0.8810 0.8034 0.2290
C47_12 C 0.8865(6) 0.7555(5) 0.2098(5)
H16_12 H 0.8868 0.7611 0.1866
C48_12 C 0.9041(7) 0.6584(3) 0.1160(2)
F9_12 F 0.8458(6) 0.1908(4) 0.1423(5)
C51_12 C 0.8672(6) 0.2804(5) 0.0150(4)
H17_12 H 0.8690 0.3034 0.0210
C52_12 C 0.8635(6) 0.2555(5) 0.0402(5)
H18_12 H 0.8632 0.2611 0.0634
C53_12 C 0.8603(9) 0.2210(5) 0.0290(5)
C54_12 C 0.8558(10) 0.1950(5) 0.0550(5)
C55_12 C 0.8542(14) 0.1742(5) 0.0758(5)
C56_12 C 0.8459(7) 0.1499(3) 0.1001(3)
C57_12 C 0.8459(7) 0.1584(3) 0.1340(2)
F10_12 F 0.8458(6) 0.1423(5) 0.1908(4)
C60_12 C 0.8672(6) 0.0150(4) 0.2804(5)
H19_12 H 0.8690 0.0210 0.3034
C61_12 C 0.8635(6) 0.0402(5) 0.2555(5)
H20_12 H 0.8632 0.0634 0.2611
C62_12 C 0.8603(9) 0.0290(5) 0.2210(5)
C63_12 C 0.8558(10) 0.0550(5) 0.1950(5)
C64_12 C 0.8542(14) 0.0758(5) 0.1742(5)
C65_12 C 0.8459(7) 0.1001(3) 0.1499(3)
C66_12 C 0.8459(7) 0.1340(2) 0.1584(3)
F11_12 F 0.8458(6) 0.1077(5) 0.0592(4)
C69_12 C 0.8459(7) 0.1160(2) 0.0916(3)
F12_12 F 0.8458(6) 0.0592(4) 0.1077(5)
C72_12 C 0.8459(7) 0.0916(3) 0.1160(2)
O9_10 O 0.8746(2) 0.4229(2) 0.9648(2)
C25_12 C 0.8789(7) 0.4528(4) 0.9528(4)
C26_12 C 0.8818(5) 0.4798(4) 0.9798(4)
C43_12 C 0.8828(6) 0.5150(4) 0.9696(5)
H13_12 H 0.8810 0.5210 0.9466
C44_12 C 0.8865(6) 0.5402(5) 0.9945(5)
H14_12 H 0.8868 0.5634 0.9889
O13_10 O 0.8754(2) 0.3271(2) 0.9648(2)
C49_12 C 0.8711(7) 0.2972(4) 0.9528(4)
C50_12 C 0.8682(5) 0.2702(4) 0.9798(4)
O15_8 O 0.8754(2) 0.2852(2) 0.9229(2)
C67_12 C 0.8672(6) 0.2350(4) 0.9696(5)
H21_12 H 0.8690 0.2290 0.9466
C68_12 C 0.8635(6) 0.2098(5) 0.9945(5)
H22_12 H 0.8632 0.1866 0.9889
O19_11 O 0.8754(2) 0.4229(2) 0.7852(2)
O24_10 O 0.8271(2) 0.3746(2) 0.7852(2)
C58_12 C 0.8711(7) 0.9528(4) 0.2972(4)
C59_12 C 0.8682(5) 0.9798(4) 0.2702(4)
O16_12 O 0.8754(2) 0.9229(2) 0.2852(2)
C70_12 C 0.8672(6) 0.9696(5) 0.2350(4)
H23_12 H 0.8690 0.9466 0.2290
C71_12 C 0.8635(6) 0.9945(5) 0.2098(5)
H24_12 H 0.8632 0.9889 0.1866
F1_19 F 0.6423(5) 0.4042(6) 0.5592(4)
C1_19 C 0.4528(4) 0.3789(7) 0.4528(4)
C2_19 C 0.4798(4) 0.3818(5) 0.4798(4)
C3_19 C 0.5150(4) 0.3828(6) 0.4696(5)
H1_19 H 0.5210 0.3810 0.4466
C4_19 C 0.5402(5) 0.3865(6) 0.4945(5)
H2_19 H 0.5634 0.3868 0.4889
C5_19 C 0.5290(5) 0.3897(9) 0.5290(5)
C6_19 C 0.5550(5) 0.3942(10) 0.5550(5)
C7_19 C 0.5758(5) 0.3958(14) 0.5758(5)
C8_19 C 0.6001(3) 0.4041(7) 0.6001(3)
C9_19 C 0.6340(2) 0.4041(7) 0.5916(3)
F2_19 F 0.6908(4) 0.4042(6) 0.6077(5)
C10_19 C 0.7972(4) 0.3789(7) 0.7972(4)
C11_19 C 0.7702(4) 0.3818(5) 0.7702(4)
C12_19 C 0.7804(5) 0.3828(6) 0.7350(4)
H3_19 H 0.8034 0.3810 0.7290
C13_19 C 0.7555(5) 0.3865(6) 0.7098(5)
H4_19 H 0.7611 0.3868 0.6866
C14_19 C 0.7210(5) 0.3897(9) 0.7210(5)
C15_19 C 0.6950(5) 0.3942(10) 0.6950(5)
C16_19 C 0.6742(5) 0.3958(14) 0.6742(5)
C17_19 C 0.6499(3) 0.4041(7) 0.6499(3)
C18_19 C 0.6584(3) 0.4041(7) 0.6160(2)
F3_19 F 0.5592(4) 0.4042(6) 0.6423(5)
C19_19 C 0.4696(5) 0.3828(6) 0.5150(4)
H5_19 H 0.4466 0.3810 0.5210
C20_19 C 0.4945(5) 0.3865(6) 0.5402(5)
H6_19 H 0.4889 0.3868 0.5634
C21_19 C 0.5916(3) 0.4041(7) 0.6340(2)
F4_19 F 0.6077(5) 0.4042(6) 0.6908(4)
C22_19 C 0.7350(4) 0.3828(6) 0.7804(5)
H7_19 H 0.7290 0.3810 0.8034
C23_19 C 0.7098(5) 0.3865(6) 0.7555(5)
H8_19 H 0.6866 0.3868 0.7611
C24_19 C 0.6160(2) 0.4041(7) 0.6584(3)
F9_13 F 0.4042(6) 0.5592(4) 0.6423(5)
C49_13 C 0.3789(7) 0.4528(4) 0.4528(4)
C50_13 C 0.3818(5) 0.4798(4) 0.4798(4)
C51_13 C 0.3828(6) 0.4696(5) 0.5150(4)
H17_13 H 0.3810 0.4466 0.5210
C52_13 C 0.3865(6) 0.4945(5) 0.5402(5)
H18_13 H 0.3868 0.4889 0.5634
C53_13 C 0.3897(9) 0.5290(5) 0.5290(5)
C54_13 C 0.3942(10) 0.5550(5) 0.5550(5)
C55_13 C 0.3958(14) 0.5758(5) 0.5758(5)
C56_13 C 0.4041(7) 0.6001(3) 0.6001(3)
C57_13 C 0.4041(7) 0.5916(3) 0.6340(2)
F10_13 F 0.4042(6) 0.6077(5) 0.6908(4)
C58_13 C 0.3789(7) 0.7972(4) 0.7972(4)
C59_13 C 0.3818(5) 0.7702(4) 0.7702(4)
C60_13 C 0.3828(6) 0.7350(4) 0.7804(5)
H19_13 H 0.3810 0.7290 0.8034
C61_13 C 0.3865(6) 0.7098(5) 0.7555(5)
H20_13 H 0.3868 0.6866 0.7611
C62_13 C 0.3897(9) 0.7210(5) 0.7210(5)
C63_13 C 0.3942(10) 0.6950(5) 0.6950(5)
C64_13 C 0.3958(14) 0.6742(5) 0.6742(5)
C65_13 C 0.4041(7) 0.6499(3) 0.6499(3)
C66_13 C 0.4041(7) 0.6160(2) 0.6584(3)
F11_13 F 0.4042(6) 0.6423(5) 0.5592(4)
C67_13 C 0.3828(6) 0.5150(4) 0.4696(5)
H21_13 H 0.3810 0.5210 0.4466
C68_13 C 0.3865(6) 0.5402(5) 0.4945(5)
H22_13 H 0.3868 0.5634 0.4889
C69_13 C 0.4041(7) 0.6340(2) 0.5916(3)
F12_13 F 0.4042(6) 0.6908(4) 0.6077(5)
C70_13 C 0.3828(6) 0.7804(5) 0.7350(4)
H23_13 H 0.3810 0.8034 0.7290
C71_13 C 0.3865(6) 0.7555(5) 0.7098(5)
H24_13 H 0.3868 0.7611 0.6866
C72_13 C 0.4041(7) 0.6584(3) 0.6160(2)
F1_20 F 0.6423(5) 0.8458(6) 0.6908(4)
C1_20 C 0.4528(4) 0.8711(7) 0.7972(4)
C2_20 C 0.4798(4) 0.8682(5) 0.7702(4)
C3_20 C 0.5150(4) 0.8672(6) 0.7804(5)
H1_20 H 0.5210 0.8690 0.8034
C4_20 C 0.5402(5) 0.8635(6) 0.7555(5)
H2_20 H 0.5634 0.8632 0.7611
C5_20 C 0.5290(5) 0.8603(9) 0.7210(5)
C6_20 C 0.5550(5) 0.8558(10) 0.6950(5)
C7_20 C 0.5758(5) 0.8542(14) 0.6742(5)
C8_20 C 0.6001(3) 0.8459(7) 0.6499(3)
C9_20 C 0.6340(2) 0.8459(7) 0.6584(3)
F2_20 F 0.6908(4) 0.8458(6) 0.6423(5)
C10_20 C 0.7972(4) 0.8711(7) 0.4528(4)
C11_20 C 0.7702(4) 0.8682(5) 0.4798(4)
C12_20 C 0.7804(5) 0.8672(6) 0.5150(4)
H3_20 H 0.8034 0.8690 0.5210
C13_20 C 0.7555(5) 0.8635(6) 0.5402(5)
H4_20 H 0.7611 0.8632 0.5634
C14_20 C 0.7210(5) 0.8603(9) 0.5290(5)
C15_20 C 0.6950(5) 0.8558(10) 0.5550(5)
C16_20 C 0.6742(5) 0.8542(14) 0.5758(5)
C17_20 C 0.6499(3) 0.8459(7) 0.6001(3)
C18_20 C 0.6584(3) 0.8459(7) 0.6340(2)
F3_20 F 0.5592(4) 0.8458(6) 0.6077(5)
C19_20 C 0.4696(5) 0.8672(6) 0.7350(4)
H5_20 H 0.4466 0.8690 0.7290
C20_20 C 0.4945(5) 0.8635(6) 0.7098(5)
H6_20 H 0.4889 0.8632 0.6866
C21_20 C 0.5916(3) 0.8459(7) 0.6160(2)
F4_20 F 0.6077(5) 0.8458(6) 0.5592(4)
C22_20 C 0.7350(4) 0.8672(6) 0.4696(5)
H7_20 H 0.7290 0.8690 0.4466
C23_20 C 0.7098(5) 0.8635(6) 0.4945(5)
H8_20 H 0.6866 0.8632 0.4889
C24_20 C 0.6160(2) 0.8459(7) 0.5916(3)
F5_13 F 0.5592(4) 0.6423(5) 0.4042(6)
C25_13 C 0.4528(4) 0.4528(4) 0.3789(7)
C26_13 C 0.4798(4) 0.4798(4) 0.3818(5)
C27_13 C 0.4696(5) 0.5150(4) 0.3828(6)
H9_13 H 0.4466 0.5210 0.3810
C28_13 C 0.4945(5) 0.5402(5) 0.3865(6)
H10_13 H 0.4889 0.5634 0.3868
C29_13 C 0.5290(5) 0.5290(5) 0.3897(9)
C30_13 C 0.5550(5) 0.5550(5) 0.3942(10)
C31_13 C 0.5758(5) 0.5758(5) 0.3958(14)
C32_13 C 0.6001(3) 0.6001(3) 0.4041(7)
C33_13 C 0.5916(3) 0.6340(2) 0.4041(7)
F6_13 F 0.6077(5) 0.6908(4) 0.4042(6)
C34_13 C 0.7972(4) 0.7972(4) 0.3789(7)
C35_13 C 0.7702(4) 0.7702(4) 0.3818(5)
C36_13 C 0.7350(4) 0.7804(5) 0.3828(6)
H11_13 H 0.7290 0.8034 0.3810
C37_13 C 0.7098(5) 0.7555(5) 0.3865(6)
H12_13 H 0.6866 0.7611 0.3868
C38_13 C 0.7210(5) 0.7210(5) 0.3897(9)
C39_13 C 0.6950(5) 0.6950(5) 0.3942(10)
C40_13 C 0.6742(5) 0.6742(5) 0.3958(14)
C41_13 C 0.6499(3) 0.6499(3) 0.4041(7)
C42_13 C 0.6160(2) 0.6584(3) 0.4041(7)
F7_13 F 0.6423(5) 0.5592(4) 0.4042(6)
C43_13 C 0.5150(4) 0.4696(5) 0.3828(6)
H13_13 H 0.5210 0.4466 0.3810
C44_13 C 0.5402(5) 0.4945(5) 0.3865(6)
H14_13 H 0.5634 0.4889 0.3868
C45_13 C 0.6340(2) 0.5916(3) 0.4041(7)
F8_13 F 0.6908(4) 0.6077(5) 0.4042(6)
C46_13 C 0.7804(5) 0.7350(4) 0.3828(6)
H15_13 H 0.8034 0.7290 0.3810
C47_13 C 0.7555(5) 0.7098(5) 0.3865(6)
H16_13 H 0.7611 0.6866 0.3868
C48_13 C 0.6584(3) 0.6160(2) 0.4041(7)
F5_14 F 0.6908(4) 0.6423(5) 0.8458(6)
C25_14 C 0.7972(4) 0.4528(4) 0.8711(7)
C26_14 C 0.7702(4) 0.4798(4) 0.8682(5)
C27_14 C 0.7804(5) 0.5150(4) 0.8672(6)
H9_14 H 0.8034 0.5210 0.8690
C28_14 C 0.7555(5) 0.5402(5) 0.8635(6)
H10_14 H 0.7611 0.5634 0.8632
C29_14 C 0.7210(5) 0.5290(5) 0.8603(9)
C30_14 C 0.6950(5) 0.5550(5) 0.8558(10)
C31_14 C 0.6742(5) 0.5758(5) 0.8542(14)
C32_14 C 0.6499(3) 0.6001(3) 0.8459(7)
C33_14 C 0.6584(3) 0.6340(2) 0.8459(7)
F6_14 F 0.6423(5) 0.6908(4) 0.8458(6)
C34_14 C 0.4528(4) 0.7972(4) 0.8711(7)
C35_14 C 0.4798(4) 0.7702(4) 0.8682(5)
C36_14 C 0.5150(4) 0.7804(5) 0.8672(6)
H11_14 H 0.5210 0.8034 0.8690
C37_14 C 0.5402(5) 0.7555(5) 0.8635(6)
H12_14 H 0.5634 0.7611 0.8632
C38_14 C 0.5290(5) 0.7210(5) 0.8603(9)
C39_14 C 0.5550(5) 0.6950(5) 0.8558(10)
C40_14 C 0.5758(5) 0.6742(5) 0.8542(14)
C41_14 C 0.6001(3) 0.6499(3) 0.8459(7)
C42_14 C 0.6340(2) 0.6584(3) 0.8459(7)
F7_14 F 0.6077(5) 0.5592(4) 0.8458(6)
C43_14 C 0.7350(4) 0.4696(5) 0.8672(6)
H13_14 H 0.7290 0.4466 0.8690
C44_14 C 0.7098(5) 0.4945(5) 0.8635(6)
H14_14 H 0.6866 0.4889 0.8632
C45_14 C 0.6160(2) 0.5916(3) 0.8459(7)
F8_14 F 0.5592(4) 0.6077(5) 0.8458(6)
C46_14 C 0.4696(5) 0.7350(4) 0.8672(6)
H15_14 H 0.4466 0.7290 0.8690
C47_14 C 0.4945(5) 0.7098(5) 0.8635(6)
H16_14 H 0.4889 0.6866 0.8632
C48_14 C 0.5916(3) 0.6160(2) 0.8459(7)
F9_14 F 0.8458(6) 0.6908(4) 0.6423(5)
C49_14 C 0.8711(7) 0.7972(4) 0.4528(4)
C50_14 C 0.8682(5) 0.7702(4) 0.4798(4)
C51_14 C 0.8672(6) 0.7804(5) 0.5150(4)
H17_14 H 0.8690 0.8034 0.5210
C52_14 C 0.8635(6) 0.7555(5) 0.5402(5)
H18_14 H 0.8632 0.7611 0.5634
C53_14 C 0.8603(9) 0.7210(5) 0.5290(5)
C54_14 C 0.8558(10) 0.6950(5) 0.5550(5)
C55_14 C 0.8542(14) 0.6742(5) 0.5758(5)
C56_14 C 0.8459(7) 0.6499(3) 0.6001(3)
C57_14 C 0.8459(7) 0.6584(3) 0.6340(2)
F10_14 F 0.8458(6) 0.6423(5) 0.6908(4)
C58_14 C 0.8711(7) 0.4528(4) 0.7972(4)
C59_14 C 0.8682(5) 0.4798(4) 0.7702(4)
C60_14 C 0.8672(6) 0.5150(4) 0.7804(5)
H19_14 H 0.8690 0.5210 0.8034
C61_14 C 0.8635(6) 0.5402(5) 0.7555(5)
H20_14 H 0.8632 0.5634 0.7611
C62_14 C 0.8603(9) 0.5290(5) 0.7210(5)
C63_14 C 0.8558(10) 0.5550(5) 0.6950(5)
C64_14 C 0.8542(14) 0.5758(5) 0.6742(5)
C65_14 C 0.8459(7) 0.6001(3) 0.6499(3)
C66_14 C 0.8459(7) 0.6340(2) 0.6584(3)
F11_14 F 0.8458(6) 0.6077(5) 0.5592(4)
C67_14 C 0.8672(6) 0.7350(4) 0.4696(5)
H21_14 H 0.8690 0.7290 0.4466
C68_14 C 0.8635(6) 0.7098(5) 0.4945(5)
H22_14 H 0.8632 0.6866 0.4889
C69_14 C 0.8459(7) 0.6160(2) 0.5916(3)
F12_14 F 0.8458(6) 0.5592(4) 0.6077(5)
C70_14 C 0.8672(6) 0.4696(5) 0.7350(4)
H23_14 H 0.8690 0.4466 0.7290
C71_14 C 0.8635(6) 0.4945(5) 0.7098(5)
H24_14 H 0.8632 0.4889 0.6866
C72_14 C 0.8459(7) 0.5916(3) 0.6160(2)
loop_
_geom_bond_atom_site_label_1
_geom_bond_atom_site_label_2
_geom_bond_site_symmetry_1
_geom_bond_site_symmetry_2
O4 C10 1_555 1_555
C10 C11 1_555 1_555
O6 C10 1_555 1_555
C22 C11 1_555 1_555
H7 C22 1_555 1_555
H8 C23 1_555 1_555
O10 C34 1_555 1_555
C34 C35 1_555 1_555
C35 C36 1_555 1_555
C36 H11 1_555 1_555
C37 C36 1_555 1_555
H12 C37 1_555 1_555
O12 C34 1_555 1_555
Hf5 O12 1_555 1_555
Hf7 O4 1_555 1_555
Hf8 O10 1_555 1_555
Hf9 O6 1_555 1_555
C22 C23 1_555 1_555
O14 C58 1_555 1_555
C58 C59 1_555 1_555
C59 C60 1_555 1_555
C60 H19 1_555 1_555
C61 C60 1_555 1_555
H20 C61 1_555 1_555
O16 C58 1_555 1_555
Hf5 O16 1_555 1_555
Hf6 O14 1_555 1_555
Hf1 O1 1_555 1_555
F1 C9 1_555 1_555
O1 C1 1_555 1_555
O2 Hf1 1_555 1_555
O3 Hf1 1_555 1_555
C1 C2 1_555 1_555
C2 C3 1_555 1_555
C3 H1 1_555 1_555
C4 C3 1_555 1_555
H2 C4 1_555 1_555
C5 C4 1_555 1_555
C6 C5 1_555 1_555
C7 C6 1_555 1_555
C8 C7 1_555 1_555
C9 C8 1_555 1_555
F2 C18 1_555 1_555
C12 H3 1_555 1_555
C13 C12 1_555 1_555
H4 C13 1_555 1_555
C14 C13 1_555 1_555
C15 C14 1_555 1_555
C16 C15 1_555 1_555
C17 C16 1_555 1_555
C18 C9 1_555 1_555
F3 C21 1_555 1_555
O5 C1 1_555 1_555
C19 C2 1_555 1_555
H5 C19 1_555 1_555
C20 C5 1_555 1_555
H6 C20 1_555 1_555
C21 C8 1_555 1_555
F4 C24 1_555 1_555
C24 C17 1_555 1_555
O7 Hf1 1_555 1_555
O8 Hf1 1_555 1_555
Hf2 O2 1_555 1_555
F5 C33 1_555 1_555
O9 Hf2 1_555 1_555
C25 O9 1_555 1_555
C26 C25 1_555 1_555
C27 C26 1_555 1_555
H9 C27 1_555 1_555
C28 C27 1_555 1_555
H10 C28 1_555 1_555
C29 C28 1_555 1_555
C30 C29 1_555 1_555
C31 C30 1_555 1_555
C32 C31 1_555 1_555
C33 C32 1_555 1_555
F6 C42 1_555 1_555
C39 C38 1_555 1_555
C40 C39 1_555 1_555
C41 C40 1_555 1_555
C42 C33 1_555 1_555
F7 C45 1_555 1_555
O11 C25 1_555 1_555
C43 C26 1_555 1_555
H13 C43 1_555 1_555
C44 C29 1_555 1_555
H14 C44 1_555 1_555
C45 C32 1_555 1_555
F8 C48 1_555 1_555
H15 C46 1_555 1_555
C47 C38 1_555 1_555
H16 C47 1_555 1_555
C48 C41 1_555 1_555
Hf3 O7 1_555 1_555
O13 Hf2 1_555 1_555
C49 O13 1_555 1_555
C50 C49 1_555 1_555
C51 C50 1_555 1_555
H17 C51 1_555 1_555
C52 C51 1_555 1_555
H18 C52 1_555 1_555
O15 C49 1_555 1_555
Hf10 O3 1_555 1_555
Hf11 O2 1_555 1_555
O17 Hf1 1_555 1_555
O18 Hf3 1_555 1_555
O19 Hf3 1_555 1_555
O20 Hf3 1_555 1_555
O21 Hf1 1_555 1_555
O22 Hf2 1_555 1_555
O23 Hf1 1_555 1_555
O24 Hf3 1_555 1_555
O25 Hf3 1_555 1_555
O26 Hf2 1_555 1_555
O27 Hf3 1_555 1_555
O28 Hf2 1_555 1_555
O3 Hf2 1_555 1_555
C17 C18 1_555 1_555
O5 Hf2 1_555 1_555
C19 C20 1_555 1_555
C21 C24 1_555 1_555
O7 Hf10 1_555 1_555
O8 Hf3 1_555 1_555
O8 Hf11 1_555 1_555
C41 C42 1_555 1_555
O11 Hf10 1_555 1_555
C43 C44 1_555 1_555
C45 C48 1_555 1_555
C46 C47 1_555 1_555
O15 Hf11 1_555 1_555
Hf10 O26 1_555 1_555
Hf10 O27 1_555 1_555
Hf11 O25 1_555 1_555
Hf11 O28 1_555 1_555
F9 C57 1_555 1_555
C54 C53 1_555 1_555
C55 C54 1_555 1_555
C56 C55 1_555 1_555
C57 C56 1_555 1_555
F10 C66 1_555 1_555
C63 C62 1_555 1_555
C64 C63 1_555 1_555
C65 C64 1_555 1_555
C66 C57 1_555 1_555
F11 C69 1_555 1_555
H21 C67 1_555 1_555
C68 C53 1_555 1_555
H22 C68 1_555 1_555
C69 C56 1_555 1_555
F12 C72 1_555 1_555
H23 C70 1_555 1_555
C71 C62 1_555 1_555
H24 C71 1_555 1_555
C72 C65 1_555 1_555
C65 C66 1_555 1_555
C67 C68 1_555 1_555
C69 C72 1_555 1_555
C70 C71 1_555 1_555
Hf1_2 O1_2 1_555 1_555
O1_2 C1_2 1_555 1_555
O25 Hf1_2 1_555 1_555
O27 Hf1_2 1_555 1_555
C1_2 C2_2 1_555 1_555
O20 C1_2 1_555 1_555
C19_2 C2_2 1_555 1_555
H5_2 C19_2 1_555 1_555
H6_2 C20_2 1_555 1_555
O26 Hf1_2 1_555 1_555
O28 Hf1_2 1_555 1_555
F5_2 C33_2 1_555 1_555
C25_2 O19 1_555 1_555
C26_2 C25_2 1_555 1_555
C27_2 C26_2 1_555 1_555
H9_2 C27_2 1_555 1_555
C28_2 C27_2 1_555 1_555
H10_2 C28_2 1_555 1_555
C29_2 C28_2 1_555 1_555
C30_2 C29_2 1_555 1_555
C31_2 C30_2 1_555 1_555
C32_2 C31_2 1_555 1_555
C33_2 C32_2 1_555 1_555
F6_2 C42_2 1_555 1_555
O10_2 C34_2 1_555 1_555
C34_2 C35_2 1_555 1_555
C35_2 C36_2 1_555 1_555
C36_2 H11_2 1_555 1_555
C37_2 C36_2 1_555 1_555
H12_2 C37_2 1_555 1_555
C38_2 C37_2 1_555 1_555
C39_2 C38_2 1_555 1_555
C40_2 C39_2 1_555 1_555
C41_2 C40_2 1_555 1_555
C42_2 C33_2 1_555 1_555
F7_2 C45_2 1_555 1_555
O11_2 C25_2 1_555 1_555
C43_2 C26_2 1_555 1_555
H13_2 C43_2 1_555 1_555
C44_2 C29_2 1_555 1_555
H14_2 C44_2 1_555 1_555
C45_2 C32_2 1_555 1_555
F8_2 C48_2 1_555 1_555
O12_2 C34_2 1_555 1_555
C46_2 C35_2 1_555 1_555
H15_2 C46_2 1_555 1_555
C47_2 C38_2 1_555 1_555
H16_2 C47_2 1_555 1_555
C48_2 C41_2 1_555 1_555
C49_2 O18 1_555 1_555
C50_2 C49_2 1_555 1_555
C51_2 C50_2 1_555 1_555
H17_2 C51_2 1_555 1_555
C52_2 C51_2 1_555 1_555
H18_2 C52_2 1_555 1_555
O15_2 C49_2 1_555 1_555
Hf5_2 O12_2 1_555 1_555
Hf8 O10_2 1_555 1_555
O17_2 Hf1_2 1_555 1_555
O21_2 Hf1_2 1_555 1_555
O23_2 Hf1_2 1_555 1_555
C19_2 C20_2 1_555 1_555
C41_2 C42_2 1_555 1_555
O11_2 Hf10 1_555 1_555
C43_2 C44_2 1_555 1_555
C45_2 C48_2 1_555 1_555
C46_2 C47_2 1_555 1_555
O15_2 Hf11 1_555 1_555
F9_2 C57_2 1_555 1_555
C54_2 C53_2 1_555 1_555
C55_2 C54_2 1_555 1_555
C56_2 C55_2 1_555 1_555
C57_2 C56_2 1_555 1_555
F10_2 C66_2 1_555 1_555
O14_2 C58_2 1_555 1_555
C58_2 C59_2 1_555 1_555
C59_2 C60_2 1_555 1_555
C60_2 H19_2 1_555 1_555
C61_2 C60_2 1_555 1_555
H20_2 C61_2 1_555 1_555
C62_2 C61_2 1_555 1_555
C63_2 C62_2 1_555 1_555
C64_2 C63_2 1_555 1_555
C65_2 C64_2 1_555 1_555
C66_2 C57_2 1_555 1_555
F11_2 C69_2 1_555 1_555
H21_2 C67_2 1_555 1_555
C68_2 C53_2 1_555 1_555
H22_2 C68_2 1_555 1_555
C69_2 C56_2 1_555 1_555
F12_2 C72_2 1_555 1_555
O16_2 C58_2 1_555 1_555
C70_2 C59_2 1_555 1_555
H23_2 C70_2 1_555 1_555
C71_2 C62_2 1_555 1_555
H24_2 C71_2 1_555 1_555
C72_2 C65_2 1_555 1_555
Hf5_2 O16_2 1_555 1_555
Hf6 O14_2 1_555 1_555
C65_2 C66_2 1_555 1_555
C67_2 C68_2 1_555 1_555
C69_2 C72_2 1_555 1_555
C70_2 C71_2 1_555 1_555
F1_2 C9_2 1_555 1_555
C3_2 H1_2 1_555 1_555
C4_2 C3_2 1_555 1_555
H2_2 C4_2 1_555 1_555
C5_2 C4_2 1_555 1_555
C6_2 C5_2 1_555 1_555
C7_2 C6_2 1_555 1_555
C8_2 C7_2 1_555 1_555
C9_2 C8_2 1_555 1_555
F2_2 C18_2 1_555 1_555
O4_2 C10_2 1_555 1_555
C10_2 C11_2 1_555 1_555
C11_2 C12_2 1_555 1_555
C12_2 H3_2 1_555 1_555
C13_2 C12_2 1_555 1_555
H4_2 C13_2 1_555 1_555
C14_2 C13_2 1_555 1_555
C15_2 C14_2 1_555 1_555
C16_2 C15_2 1_555 1_555
C17_2 C16_2 1_555 1_555
C18_2 C9_2 1_555 1_555
F3_2 C21_2 1_555 1_555
C21_2 C8_2 1_555 1_555
F4_2 C24_2 1_555 1_555
O6_2 C10_2 1_555 1_555
C22_2 C11_2 1_555 1_555
H7_2 C22_2 1_555 1_555
C23_2 C14_2 1_555 1_555
H8_2 C23_2 1_555 1_555
C24_2 C17_2 1_555 1_555
Hf7_2 O4_2 1_555 1_555
Hf9_2 O6_2 1_555 1_555
C17_2 C18_2 1_555 1_555
C21_2 C24_2 1_555 1_555
C22_2 C23_2 1_555 1_555
F1_3 C9_3 1_555 1_555
O17 C1_3 1_555 1_555
C1_3 C2_3 1_555 1_555
C2_3 C3_3 1_555 1_555
C3_3 H1_3 1_555 1_555
C4_3 C3_3 1_555 1_555
H2_3 C4_3 1_555 1_555
C5_3 C4_3 1_555 1_555
C6_3 C5_3 1_555 1_555
C7_3 C6_3 1_555 1_555
C8_3 C7_3 1_555 1_555
C9_3 C8_3 1_555 1_555
F2_3 C18_3 1_555 1_555
O4_3 C10_3 1_555 1_555
C10_3 C11_3 1_555 1_555
C11_3 C12_3 1_555 1_555
C12_3 H3_3 1_555 1_555
C13_3 C12_3 1_555 1_555
H4_3 C13_3 1_555 1_555
C14_3 C13_3 1_555 1_555
C15_3 C14_3 1_555 1_555
C16_3 C15_3 1_555 1_555
C17_3 C16_3 1_555 1_555
C18_3 C9_3 1_555 1_555
F3_3 C21_3 1_555 1_555
O24 C1_3 1_555 1_555
C19_3 C2_3 1_555 1_555
H5_3 C19_3 1_555 1_555
C20_3 C5_3 1_555 1_555
H6_3 C20_3 1_555 1_555
C21_3 C8_3 1_555 1_555
F4_3 C24_3 1_555 1_555
O6_3 C10_3 1_555 1_555
C22_3 C11_3 1_555 1_555
H7_3 C22_3 1_555 1_555
C23_3 C14_3 1_555 1_555
H8_3 C23_3 1_555 1_555
C24_3 C17_3 1_555 1_555
Hf7_2 O4_3 1_555 1_555
Hf9 O6_3 1_555 1_555
C17_3 C18_3 1_555 1_555
C19_3 C20_3 1_555 1_555
C21_3 C24_3 1_555 1_555
C22_3 C23_3 1_555 1_555
O17_2 C1_4 1_555 1_555
C1_4 C2_4 1_555 1_555
O22 C1_4 1_555 1_555
C19_4 C2_4 1_555 1_555
H5_4 C19_4 1_555 1_555
H6_4 C20_4 1_555 1_555
C19_4 C20_4 1_555 1_555
O4_4 C10_4 1_555 1_555
C10_4 C11_4 1_555 1_555
O6_4 C10_4 1_555 1_555
C22_4 C11_4 1_555 1_555
H7_4 C22_4 1_555 1_555
H8_4 C23_4 1_555 1_555
Hf7 O4_4 1_555 1_555
Hf9_2 O6_4 1_555 1_555
C22_4 C23_4 1_555 1_555
F1_4 C9_4 1_555 1_555
C3_4 H1_4 1_555 1_555
C4_4 C3_4 1_555 1_555
H2_4 C4_4 1_555 1_555
C5_4 C4_4 1_555 1_555
C6_4 C5_4 1_555 1_555
C7_4 C6_4 1_555 1_555
C8_4 C7_4 1_555 1_555
C9_4 C8_4 1_555 1_555
F2_4 C18_4 1_555 1_555
C12_4 H3_4 1_555 1_555
C13_4 C12_4 1_555 1_555
H4_4 C13_4 1_555 1_555
C14_4 C13_4 1_555 1_555
C15_4 C14_4 1_555 1_555
C16_4 C15_4 1_555 1_555
C17_4 C16_4 1_555 1_555
C18_4 C9_4 1_555 1_555
F3_4 C21_4 1_555 1_555
C21_4 C8_4 1_555 1_555
F4_4 C24_4 1_555 1_555
C24_4 C17_4 1_555 1_555
C17_4 C18_4 1_555 1_555
C21_4 C24_4 1_555 1_555
O10_3 C34_3 1_555 1_555
C34_3 C35_3 1_555 1_555
C35_3 C36_3 1_555 1_555
C36_3 H11_3 1_555 1_555
C37_3 C36_3 1_555 1_555
H12_3 C37_3 1_555 1_555
O12_3 C34_3 1_555 1_555
Hf5_3 O12_3 1_555 1_555
Hf9 O10_3 1_555 1_555
O2_2 Hf5_2 1_555 1_555
O3_2 Hf5_2 1_555 1_555
O7_2 Hf5_2 1_555 1_555
O8_2 Hf5_2 1_555 1_555
Hf6 O2_2 1_555 1_555
F5_3 C33_3 1_555 1_555
O9_2 Hf6 1_555 1_555
C25_3 O9_2 1_555 1_555
C26_3 C25_3 1_555 1_555
C27_3 C26_3 1_555 1_555
H9_3 C27_3 1_555 1_555
C28_3 C27_3 1_555 1_555
H10_3 C28_3 1_555 1_555
C29_3 C28_3 1_555 1_555
C30_3 C29_3 1_555 1_555
C31_3 C30_3 1_555 1_555
C32_3 C31_3 1_555 1_555
C33_3 C32_3 1_555 1_555
F6_3 C42_3 1_555 1_555
C39_3 C38_3 1_555 1_555
C40_3 C39_3 1_555 1_555
C41_3 C40_3 1_555 1_555
C42_3 C33_3 1_555 1_555
F7_3 C45_3 1_555 1_555
O11_3 C25_3 1_555 1_555
C43_3 C26_3 1_555 1_555
H13_3 C43_3 1_555 1_555
C44_3 C29_3 1_555 1_555
H14_3 C44_3 1_555 1_555
C45_3 C32_3 1_555 1_555
F8_3 C48_3 1_555 1_555
H15_3 C46_3 1_555 1_555
C47_3 C38_3 1_555 1_555
H16_3 C47_3 1_555 1_555
C48_3 C41_3 1_555 1_555
Hf8 O7_2 1_555 1_555
O13_2 Hf6 1_555 1_555
C49_3 O13_2 1_555 1_555
C50_3 C49_3 1_555 1_555
C51_3 C50_3 1_555 1_555
H17_3 C51_3 1_555 1_555
C52_3 C51_3 1_555 1_555
H18_3 C52_3 1_555 1_555
O15_3 C49_3 1_555 1_555
Hf10_2 O3_2 1_555 1_555
Hf11_2 O2_2 1_555 1_555
O18_2 Hf8 1_555 1_555
O19_2 Hf8 1_555 1_555
O21_3 Hf5_2 1_555 1_555
O23_3 Hf5_2 1_555 1_555
O25_2 Hf8 1_555 1_555
O26_2 Hf6 1_555 1_555
O27_2 Hf8 1_555 1_555
O28_2 Hf6 1_555 1_555
O3_2 Hf6 1_555 1_555
O7_2 Hf10_2 1_555 1_555
O8_2 Hf8 1_555 1_555
O8_2 Hf11_2 1_555 1_555
C41_3 C42_3 1_555 1_555
O11_3 Hf10_2 1_555 1_555
C43_3 C44_3 1_555 1_555
C45_3 C48_3 1_555 1_555
C46_3 C47_3 1_555 1_555
O15_3 Hf11_2 1_555 1_555
Hf10_2 O26_2 1_555 1_555
Hf10_2 O27_2 1_555 1_555
Hf11_2 O25_2 1_555 1_555
Hf11_2 O28_2 1_555 1_555
O14_3 C58_3 1_555 1_555
C58_3 C59_3 1_555 1_555
C59_3 C60_3 1_555 1_555
C60_3 H19_3 1_555 1_555
C61_3 C60_3 1_555 1_555
H20_3 C61_3 1_555 1_555
O16_3 C58_3 1_555 1_555
Hf5_3 O16_3 1_555 1_555
Hf9_2 O14_3 1_555 1_555
F9_3 C57_3 1_555 1_555
C54_3 C53_3 1_555 1_555
C55_3 C54_3 1_555 1_555
C56_3 C55_3 1_555 1_555
C57_3 C56_3 1_555 1_555
F10_3 C66_3 1_555 1_555
C63_3 C62_3 1_555 1_555
C64_3 C63_3 1_555 1_555
C65_3 C64_3 1_555 1_555
C66_3 C57_3 1_555 1_555
F11_3 C69_3 1_555 1_555
H21_3 C67_3 1_555 1_555
C68_3 C53_3 1_555 1_555
H22_3 C68_3 1_555 1_555
C69_3 C56_3 1_555 1_555
F12_3 C72_3 1_555 1_555
H23_3 C70_3 1_555 1_555
C71_3 C62_3 1_555 1_555
H24_3 C71_3 1_555 1_555
C72_3 C65_3 1_555 1_555
C65_3 C66_3 1_555 1_555
C67_3 C68_3 1_555 1_555
C69_3 C72_3 1_555 1_555
C70_3 C71_3 1_555 1_555
O4_5 C10_5 1_555 1_555
C10_5 C11_5 1_555 1_555
O18_2 C10_5 1_555 1_555
C22_5 C11_5 1_555 1_555
H7_5 C22_5 1_555 1_555
H8_5 C23_5 1_555 1_555
Hf11_2 O4_5 1_555 1_555
C22_5 C23_5 1_555 1_555
Hf1_3 O1_3 1_555 1_555
F1_5 C9_5 1_555 1_555
O1_3 C1_5 1_555 1_555
O2_3 Hf1_3 1_555 1_555
O3_3 Hf1_3 1_555 1_555
C1_5 C2_5 1_555 1_555
C2_5 C3_5 1_555 1_555
C3_5 H1_5 1_555 1_555
C4_5 C3_5 1_555 1_555
H2_5 C4_5 1_555 1_555
C5_5 C4_5 1_555 1_555
C6_5 C5_5 1_555 1_555
C7_5 C6_5 1_555 1_555
C8_5 C7_5 1_555 1_555
C9_5 C8_5 1_555 1_555
F2_5 C18_5 1_555 1_555
C12_5 H3_5 1_555 1_555
C13_5 C12_5 1_555 1_555
H4_5 C13_5 1_555 1_555
C14_5 C13_5 1_555 1_555
C15_5 C14_5 1_555 1_555
C16_5 C15_5 1_555 1_555
C17_5 C16_5 1_555 1_555
C18_5 C9_5 1_555 1_555
F3_5 C21_5 1_555 1_555
O5_2 C1_5 1_555 1_555
C19_5 C2_5 1_555 1_555
H5_5 C19_5 1_555 1_555
C20_5 C5_5 1_555 1_555
H6_5 C20_5 1_555 1_555
C21_5 C8_5 1_555 1_555
F4_5 C24_5 1_555 1_555
C24_5 C17_5 1_555 1_555
O7_3 Hf1_3 1_555 1_555
O8_3 Hf1_3 1_555 1_555
Hf9_2 O2_3 1_555 1_555
Hf9 O7_3 1_555 1_555
Hf7_2 O3_3 1_555 1_555
Hf7 O2_3 1_555 1_555
O17_3 Hf1_3 1_555 1_555
O21_4 Hf1_3 1_555 1_555
O23_4 Hf1_3 1_555 1_555
O24_2 Hf9 1_555 1_555
O25_3 Hf9 1_555 1_555
O26_3 Hf9_2 1_555 1_555
O27_3 Hf9 1_555 1_555
O28_3 Hf9_2 1_555 1_555
O3_3 Hf9_2 1_555 1_555
C17_5 C18_5 1_555 1_555
O5_2 Hf9_2 1_555 1_555
C19_5 C20_5 1_555 1_555
C21_5 C24_5 1_555 1_555
O7_3 Hf7_2 1_555 1_555
O8_3 Hf9 1_555 1_555
O8_3 Hf7 1_555 1_555
Hf7_2 O26_3 1_555 1_555
Hf7_2 O27_3 1_555 1_555
Hf7 O25_3 1_555 1_555
Hf7 O28_3 1_555 1_555
F1_6 C9_6 1_555 1_555
O17_3 C1_6 1_555 1_555
C1_6 C2_6 1_555 1_555
C2_6 C3_6 1_555 1_555
C3_6 H1_6 1_555 1_555
C4_6 C3_6 1_555 1_555
H2_6 C4_6 1_555 1_555
C5_6 C4_6 1_555 1_555
C6_6 C5_6 1_555 1_555
C7_6 C6_6 1_555 1_555
C8_6 C7_6 1_555 1_555
C9_6 C8_6 1_555 1_555
F2_6 C18_6 1_555 1_555
O4_6 C10_6 1_555 1_555
C10_6 C11_6 1_555 1_555
C11_6 C12_6 1_555 1_555
C12_6 H3_6 1_555 1_555
C13_6 C12_6 1_555 1_555
H4_6 C13_6 1_555 1_555
C14_6 C13_6 1_555 1_555
C15_6 C14_6 1_555 1_555
C16_6 C15_6 1_555 1_555
C17_6 C16_6 1_555 1_555
C18_6 C9_6 1_555 1_555
F3_6 C21_6 1_555 1_555
O24_2 C1_6 1_555 1_555
C19_6 C2_6 1_555 1_555
H5_6 C19_6 1_555 1_555
C20_6 C5_6 1_555 1_555
H6_6 C20_6 1_555 1_555
C21_6 C8_6 1_555 1_555
F4_6 C24_6 1_555 1_555
O19_2 C10_6 1_555 1_555
C22_6 C11_6 1_555 1_555
H7_6 C22_6 1_555 1_555
C23_6 C14_6 1_555 1_555
H8_6 C23_6 1_555 1_555
C24_6 C17_6 1_555 1_555
Hf10_2 O4_6 1_555 1_555
C17_6 C18_6 1_555 1_555
C19_6 C20_6 1_555 1_555
C21_6 C24_6 1_555 1_555
C22_6 C23_6 1_555 1_555
O25_2 Hf5 1_555 1_555
O27_2 Hf5 1_555 1_555
O26_2 Hf5 1_555 1_555
O28_2 Hf5 1_555 1_555
O21_5 Hf5 1_555 1_555
O23_5 Hf5 1_555 1_555
O25_3 Hf5_3 1_555 1_555
O27_3 Hf5_3 1_555 1_555
O26_3 Hf5_3 1_555 1_555
O28_3 Hf5_3 1_555 1_555
O21_6 Hf5_3 1_555 1_555
O23_6 Hf5_3 1_555 1_555
Hf10_2 O1_4 1_555 1_555
F1_7 C9_7 1_555 1_555
O1_4 C1_7 1_555 1_555
C1_7 C2_7 1_555 1_555
C2_7 C3_7 1_555 1_555
C3_7 H1_7 1_555 1_555
C4_7 C3_7 1_555 1_555
H2_7 C4_7 1_555 1_555
C5_7 C4_7 1_555 1_555
C6_7 C5_7 1_555 1_555
C7_7 C6_7 1_555 1_555
C8_7 C7_7 1_555 1_555
C9_7 C8_7 1_555 1_555
F2_7 C18_7 1_555 1_555
O4_7 C10_7 1_555 1_555
C10_7 C11_7 1_555 1_555
C11_7 C12_7 1_555 1_555
C12_7 H3_7 1_555 1_555
C13_7 C12_7 1_555 1_555
H4_7 C13_7 1_555 1_555
C14_7 C13_7 1_555 1_555
C15_7 C14_7 1_555 1_555
C16_7 C15_7 1_555 1_555
C17_7 C16_7 1_555 1_555
C18_7 C9_7 1_555 1_555
F3_7 C21_7 1_555 1_555
O23_3 C1_7 1_555 1_555
C19_7 C2_7 1_555 1_555
H5_7 C19_7 1_555 1_555
C20_7 C5_7 1_555 1_555
H6_7 C20_7 1_555 1_555
C21_7 C8_7 1_555 1_555
F4_7 C24_7 1_555 1_555
O6_5 C10_7 1_555 1_555
C22_7 C11_7 1_555 1_555
H7_7 C22_7 1_555 1_555
C23_7 C14_7 1_555 1_555
H8_7 C23_7 1_555 1_555
C24_7 C17_7 1_555 1_555
Hf7_3 O4_7 1_555 1_555
Hf9_3 O6_5 1_555 1_555
O17_4 Hf10_2 1_555 1_555
C17_7 C18_7 1_555 1_555
C19_7 C20_7 1_555 1_555
C21_7 C24_7 1_555 1_555
C22_7 C23_7 1_555 1_555
Hf11_2 O1_5 1_555 1_555
O1_5 C1_8 1_555 1_555
C1_8 C2_8 1_555 1_555
O21_5 C1_8 1_555 1_555
O17_5 Hf11_2 1_555 1_555
H5_8 C19_8 1_555 1_555
H6_8 C20_8 1_555 1_555
C19_8 C20_8 1_555 1_555
C3_8 H1_8 1_555 1_555
C4_8 C3_8 1_555 1_555
H2_8 C4_8 1_555 1_555
F1_8 C9_8 1_555 1_555
C6_8 C5_8 1_555 1_555
C7_8 C6_8 1_555 1_555
C8_8 C7_8 1_555 1_555
C9_8 C8_8 1_555 1_555
F2_8 C18_8 1_555 1_555
O4_8 C10_8 1_555 1_555
C10_8 C11_8 1_555 1_555
C11_8 C12_8 1_555 1_555
C12_8 H3_8 1_555 1_555
C13_8 C12_8 1_555 1_555
H4_8 C13_8 1_555 1_555
C14_8 C13_8 1_555 1_555
C15_8 C14_8 1_555 1_555
C16_8 C15_8 1_555 1_555
C17_8 C16_8 1_555 1_555
C18_8 C9_8 1_555 1_555
F3_8 C21_8 1_555 1_555
C21_8 C8_8 1_555 1_555
F4_8 C24_8 1_555 1_555
O6_6 C10_8 1_555 1_555
C22_8 C11_8 1_555 1_555
H7_8 C22_8 1_555 1_555
C23_8 C14_8 1_555 1_555
H8_8 C23_8 1_555 1_555
C24_8 C17_8 1_555 1_555
Hf7_4 O4_8 1_555 1_555
Hf9_4 O6_6 1_555 1_555
C17_8 C18_8 1_555 1_555
C21_8 C24_8 1_555 1_555
C22_8 C23_8 1_555 1_555
O17_4 C1_9 1_555 1_555
C1_9 C2_9 1_555 1_555
C2_9 C3_9 1_555 1_555
C3_9 H1_9 1_555 1_555
C4_9 C3_9 1_555 1_555
H2_9 C4_9 1_555 1_555
O23_5 C1_9 1_555 1_555
F1_9 C9_9 1_555 1_555
C6_9 C5_9 1_555 1_555
C7_9 C6_9 1_555 1_555
C8_9 C7_9 1_555 1_555
C9_9 C8_9 1_555 1_555
F2_9 C18_9 1_555 1_555
O4_9 C10_9 1_555 1_555
C10_9 C11_9 1_555 1_555
C11_9 C12_9 1_555 1_555
C12_9 H3_9 1_555 1_555
C13_9 C12_9 1_555 1_555
H4_9 C13_9 1_555 1_555
C14_9 C13_9 1_555 1_555
C15_9 C14_9 1_555 1_555
C16_9 C15_9 1_555 1_555
C17_9 C16_9 1_555 1_555
C18_9 C9_9 1_555 1_555
F3_9 C21_9 1_555 1_555
H5_9 C19_9 1_555 1_555
C20_9 C5_9 1_555 1_555
H6_9 C20_9 1_555 1_555
C21_9 C8_9 1_555 1_555
F4_9 C24_9 1_555 1_555
O6_7 C10_9 1_555 1_555
C22_9 C11_9 1_555 1_555
H7_9 C22_9 1_555 1_555
C23_9 C14_9 1_555 1_555
H8_9 C23_9 1_555 1_555
C24_9 C17_9 1_555 1_555
Hf7_4 O4_9 1_555 1_555
Hf9_3 O6_7 1_555 1_555
C17_9 C18_9 1_555 1_555
C19_9 C20_9 1_555 1_555
C21_9 C24_9 1_555 1_555
C22_9 C23_9 1_555 1_555
O17_5 C1_10 1_555 1_555
C1_10 C2_10 1_555 1_555
O21_3 C1_10 1_555 1_555
C19_10 C2_10 1_555 1_555
H5_10 C19_10 1_555 1_555
H6_10 C20_10 1_555 1_555
C19_10 C20_10 1_555 1_555
F1_10 C9_10 1_555 1_555
C3_10 H1_10 1_555 1_555
C4_10 C3_10 1_555 1_555
H2_10 C4_10 1_555 1_555
C5_10 C4_10 1_555 1_555
C6_10 C5_10 1_555 1_555
C7_10 C6_10 1_555 1_555
C8_10 C7_10 1_555 1_555
C9_10 C8_10 1_555 1_555
F2_10 C18_10 1_555 1_555
O4_10 C10_10 1_555 1_555
C10_10 C11_10 1_555 1_555
C11_10 C12_10 1_555 1_555
C12_10 H3_10 1_555 1_555
C13_10 C12_10 1_555 1_555
H4_10 C13_10 1_555 1_555
C14_10 C13_10 1_555 1_555
C15_10 C14_10 1_555 1_555
C16_10 C15_10 1_555 1_555
C17_10 C16_10 1_555 1_555
C18_10 C9_10 1_555 1_555
F3_10 C21_10 1_555 1_555
C21_10 C8_10 1_555 1_555
F4_10 C24_10 1_555 1_555
O6_8 C10_10 1_555 1_555
C22_10 C11_10 1_555 1_555
H7_10 C22_10 1_555 1_555
C23_10 C14_10 1_555 1_555
H8_10 C23_10 1_555 1_555
C24_10 C17_10 1_555 1_555
Hf7_3 O4_10 1_555 1_555
Hf9_4 O6_8 1_555 1_555
C17_10 C18_10 1_555 1_555
C21_10 C24_10 1_555 1_555
C22_10 C23_10 1_555 1_555
F5_4 C33_4 1_555 1_555
O9_3 Hf10 1_555 1_555
C25_4 O9_3 1_555 1_555
C26_4 C25_4 1_555 1_555
C27_4 C26_4 1_555 1_555
H9_4 C27_4 1_555 1_555
C28_4 C27_4 1_555 1_555
H10_4 C28_4 1_555 1_555
C29_4 C28_4 1_555 1_555
C30_4 C29_4 1_555 1_555
C31_4 C30_4 1_555 1_555
C32_4 C31_4 1_555 1_555
C33_4 C32_4 1_555 1_555
F6_4 C42_4 1_555 1_555
O10_4 C34_4 1_555 1_555
C34_4 C35_4 1_555 1_555
C35_4 C36_4 1_555 1_555
C36_4 H11_4 1_555 1_555
C37_4 C36_4 1_555 1_555
H12_4 C37_4 1_555 1_555
C38_4 C37_4 1_555 1_555
C39_4 C38_4 1_555 1_555
C40_4 C39_4 1_555 1_555
C41_4 C40_4 1_555 1_555
C42_4 C33_4 1_555 1_555
F7_4 C45_4 1_555 1_555
O23 C25_4 1_555 1_555
C43_4 C26_4 1_555 1_555
H13_4 C43_4 1_555 1_555
C44_4 C29_4 1_555 1_555
H14_4 C44_4 1_555 1_555
C45_4 C32_4 1_555 1_555
F8_4 C48_4 1_555 1_555
O12_4 C34_4 1_555 1_555
C46_4 C35_4 1_555 1_555
H15_4 C46_4 1_555 1_555
C47_4 C38_4 1_555 1_555
H16_4 C47_4 1_555 1_555
C48_4 C41_4 1_555 1_555
O13_3 Hf10 1_555 1_555
C49_4 O13_3 1_555 1_555
C50_4 C49_4 1_555 1_555
C51_4 C50_4 1_555 1_555
H17_4 C51_4 1_555 1_555
C52_4 C51_4 1_555 1_555
H18_4 C52_4 1_555 1_555
O23_2 C49_4 1_555 1_555
Hf5_4 O12_4 1_555 1_555
Hf9_3 O10_4 1_555 1_555
O18_3 Hf11 1_555 1_555
O19_3 Hf11 1_555 1_555
C41_4 C42_4 1_555 1_555
C43_4 C44_4 1_555 1_555
C45_4 C48_4 1_555 1_555
C46_4 C47_4 1_555 1_555
F9_4 C57_4 1_555 1_555
C54_4 C53_4 1_555 1_555
C55_4 C54_4 1_555 1_555
C56_4 C55_4 1_555 1_555
C57_4 C56_4 1_555 1_555
F10_4 C66_4 1_555 1_555
O14_4 C58_4 1_555 1_555
C58_4 C59_4 1_555 1_555
C59_4 C60_4 1_555 1_555
C60_4 H19_4 1_555 1_555
C61_4 C60_4 1_555 1_555
H20_4 C61_4 1_555 1_555
C62_4 C61_4 1_555 1_555
C63_4 C62_4 1_555 1_555
C64_4 C63_4 1_555 1_555
C65_4 C64_4 1_555 1_555
C66_4 C57_4 1_555 1_555
F11_4 C69_4 1_555 1_555
H21_4 C67_4 1_555 1_555
C68_4 C53_4 1_555 1_555
H22_4 C68_4 1_555 1_555
C69_4 C56_4 1_555 1_555
F12_4 C72_4 1_555 1_555
O16_4 C58_4 1_555 1_555
C70_4 C59_4 1_555 1_555
H23_4 C70_4 1_555 1_555
C71_4 C62_4 1_555 1_555
H24_4 C71_4 1_555 1_555
C72_4 C65_4 1_555 1_555
Hf5_4 O16_4 1_555 1_555
Hf9_4 O14_4 1_555 1_555
C65_4 C66_4 1_555 1_555
C67_4 C68_4 1_555 1_555
C69_4 C72_4 1_555 1_555
C70_4 C71_4 1_555 1_555
O21_2 C10_11 1_555 1_555
C10_11 C11_11 1_555 1_555
O18_3 C10_11 1_555 1_555
H7_11 C22_11 1_555 1_555
H8_11 C23_11 1_555 1_555
C22_11 C23_11 1_555 1_555
C12_11 H3_11 1_555 1_555
C13_11 C12_11 1_555 1_555
H4_11 C13_11 1_555 1_555
Hf1_4 O1_6 1_555 1_555
F1_11 C9_11 1_555 1_555
O1_6 C1_11 1_555 1_555
O2_4 Hf1_4 1_555 1_555
O3_4 Hf1_4 1_555 1_555
C1_11 C2_11 1_555 1_555
C2_11 C3_11 1_555 1_555
C3_11 H1_11 1_555 1_555
C4_11 C3_11 1_555 1_555
H2_11 C4_11 1_555 1_555
C5_11 C4_11 1_555 1_555
C6_11 C5_11 1_555 1_555
C7_11 C6_11 1_555 1_555
C8_11 C7_11 1_555 1_555
C9_11 C8_11 1_555 1_555
F2_11 C18_11 1_555 1_555
C15_11 C14_11 1_555 1_555
C16_11 C15_11 1_555 1_555
C17_11 C16_11 1_555 1_555
C18_11 C9_11 1_555 1_555
F3_11 C21_11 1_555 1_555
O5_3 C1_11 1_555 1_555
C19_11 C2_11 1_555 1_555
H5_11 C19_11 1_555 1_555
C20_11 C5_11 1_555 1_555
H6_11 C20_11 1_555 1_555
C21_11 C8_11 1_555 1_555
F4_11 C24_11 1_555 1_555
C24_11 C17_11 1_555 1_555
O7_4 Hf1_4 1_555 1_555
O8_4 Hf1_4 1_555 1_555
Hf9_4 O2_4 1_555 1_555
Hf9_3 O7_4 1_555 1_555
Hf7_4 O3_4 1_555 1_555
Hf7_3 O2_4 1_555 1_555
O17_6 Hf1_4 1_555 1_555
O21_7 Hf1_4 1_555 1_555
O23_7 Hf1_4 1_555 1_555
O24_3 Hf9_3 1_555 1_555
O25_4 Hf9_3 1_555 1_555
O26_4 Hf9_4 1_555 1_555
O27_4 Hf9_3 1_555 1_555
O28_4 Hf9_4 1_555 1_555
O3_4 Hf9_4 1_555 1_555
C17_11 C18_11 1_555 1_555
O5_3 Hf9_4 1_555 1_555
C19_11 C20_11 1_555 1_555
C21_11 C24_11 1_555 1_555
O7_4 Hf7_4 1_555 1_555
O8_4 Hf9_3 1_555 1_555
O8_4 Hf7_3 1_555 1_555
Hf7_4 O26_4 1_555 1_555
Hf7_4 O27_4 1_555 1_555
Hf7_3 O25_4 1_555 1_555
Hf7_3 O28_4 1_555 1_555
O21 C10_12 1_555 1_555
C10_12 C11_12 1_555 1_555
C11_12 C12_12 1_555 1_555
C12_12 H3_12 1_555 1_555
C13_12 C12_12 1_555 1_555
H4_12 C13_12 1_555 1_555
O19_3 C10_12 1_555 1_555
F1_12 C9_12 1_555 1_555
O17_6 C1_12 1_555 1_555
C1_12 C2_12 1_555 1_555
C2_12 C3_12 1_555 1_555
C3_12 H1_12 1_555 1_555
C4_12 C3_12 1_555 1_555
H2_12 C4_12 1_555 1_555
C5_12 C4_12 1_555 1_555
C6_12 C5_12 1_555 1_555
C7_12 C6_12 1_555 1_555
C8_12 C7_12 1_555 1_555
C9_12 C8_12 1_555 1_555
F2_12 C18_12 1_555 1_555
C15_12 C14_12 1_555 1_555
C16_12 C15_12 1_555 1_555
C17_12 C16_12 1_555 1_555
C18_12 C9_12 1_555 1_555
F3_12 C21_12 1_555 1_555
O24_3 C1_12 1_555 1_555
C19_12 C2_12 1_555 1_555
H5_12 C19_12 1_555 1_555
C20_12 C5_12 1_555 1_555
H6_12 C20_12 1_555 1_555
C21_12 C8_12 1_555 1_555
F4_12 C24_12 1_555 1_555
H7_12 C22_12 1_555 1_555
C23_12 C14_12 1_555 1_555
H8_12 C23_12 1_555 1_555
C24_12 C17_12 1_555 1_555
C17_12 C18_12 1_555 1_555
C19_12 C20_12 1_555 1_555
C21_12 C24_12 1_555 1_555
C22_12 C23_12 1_555 1_555
O25_4 Hf5_4 1_555 1_555
O27_4 Hf5_4 1_555 1_555
O26_4 Hf5_4 1_555 1_555
O28_4 Hf5_4 1_555 1_555
O21_8 Hf5_4 1_555 1_555
O23_8 Hf5_4 1_555 1_555
O21_6 C34_5 1_555 1_555
C34_5 C35_5 1_555 1_555
O12_5 C34_5 1_555 1_555
Hf7 O12_5 1_555 1_555
C36_5 H11_5 1_555 1_555
C37_5 C36_5 1_555 1_555
H12_5 C37_5 1_555 1_555
O21_4 C58_5 1_555 1_555
C58_5 C59_5 1_555 1_555
C59_5 C60_5 1_555 1_555
C60_5 H19_5 1_555 1_555
C61_5 C60_5 1_555 1_555
H20_5 C61_5 1_555 1_555
O16_5 C58_5 1_555 1_555
Hf7 O16_5 1_555 1_555
H15_5 C46_5 1_555 1_555
H16_5 C47_5 1_555 1_555
C46_5 C47_5 1_555 1_555
F5_5 C33_5 1_555 1_555
O9_4 Hf7_4 1_555 1_555
C25_5 O9_4 1_555 1_555
C26_5 C25_5 1_555 1_555
C27_5 C26_5 1_555 1_555
H9_5 C27_5 1_555 1_555
C28_5 C27_5 1_555 1_555
H10_5 C28_5 1_555 1_555
C29_5 C28_5 1_555 1_555
C30_5 C29_5 1_555 1_555
C31_5 C30_5 1_555 1_555
C32_5 C31_5 1_555 1_555
C33_5 C32_5 1_555 1_555
F6_5 C42_5 1_555 1_555
C39_5 C38_5 1_555 1_555
C40_5 C39_5 1_555 1_555
C41_5 C40_5 1_555 1_555
C42_5 C33_5 1_555 1_555
F7_5 C45_5 1_555 1_555
O23_7 C25_5 1_555 1_555
C43_5 C26_5 1_555 1_555
H13_5 C43_5 1_555 1_555
C44_5 C29_5 1_555 1_555
H14_5 C44_5 1_555 1_555
C45_5 C32_5 1_555 1_555
F8_5 C48_5 1_555 1_555
C48_5 C41_5 1_555 1_555
F9_5 C57_5 1_555 1_555
O13_4 Hf7_4 1_555 1_555
C49_5 O13_4 1_555 1_555
C50_5 C49_5 1_555 1_555
C51_5 C50_5 1_555 1_555
H17_5 C51_5 1_555 1_555
C52_5 C51_5 1_555 1_555
H18_5 C52_5 1_555 1_555
C53_5 C52_5 1_555 1_555
C54_5 C53_5 1_555 1_555
C55_5 C54_5 1_555 1_555
C56_5 C55_5 1_555 1_555
C57_5 C56_5 1_555 1_555
F10_5 C66_5 1_555 1_555
C63_5 C62_5 1_555 1_555
C64_5 C63_5 1_555 1_555
C65_5 C64_5 1_555 1_555
C66_5 C57_5 1_555 1_555
F11_5 C69_5 1_555 1_555
O23_8 C49_5 1_555 1_555
C67_5 C50_5 1_555 1_555
H21_5 C67_5 1_555 1_555
C68_5 C53_5 1_555 1_555
H22_5 C68_5 1_555 1_555
C69_5 C56_5 1_555 1_555
F12_5 C72_5 1_555 1_555
H23_5 C70_5 1_555 1_555
C71_5 C62_5 1_555 1_555
H24_5 C71_5 1_555 1_555
C72_5 C65_5 1_555 1_555
O18_4 Hf7_3 1_555 1_555
O19_4 Hf7_3 1_555 1_555
C41_5 C42_5 1_555 1_555
C43_5 C44_5 1_555 1_555
C45_5 C48_5 1_555 1_555
C65_5 C66_5 1_555 1_555
C67_5 C68_5 1_555 1_555
C69_5 C72_5 1_555 1_555
C70_5 C71_5 1_555 1_555
O23_6 C34_6 1_555 1_555
C34_6 C35_6 1_555 1_555
O12_6 C34_6 1_555 1_555
C46_6 C35_6 1_555 1_555
H15_6 C46_6 1_555 1_555
H16_6 C47_6 1_555 1_555
Hf7_2 O12_6 1_555 1_555
C46_6 C47_6 1_555 1_555
F5_6 C33_6 1_555 1_555
C25_6 O19_4 1_555 1_555
C26_6 C25_6 1_555 1_555
C27_6 C26_6 1_555 1_555
H9_6 C27_6 1_555 1_555
C28_6 C27_6 1_555 1_555
H10_6 C28_6 1_555 1_555
C29_6 C28_6 1_555 1_555
C30_6 C29_6 1_555 1_555
C31_6 C30_6 1_555 1_555
C32_6 C31_6 1_555 1_555
C33_6 C32_6 1_555 1_555
F6_6 C42_6 1_555 1_555
C36_6 H11_6 1_555 1_555
C37_6 C36_6 1_555 1_555
H12_6 C37_6 1_555 1_555
C38_6 C37_6 1_555 1_555
C39_6 C38_6 1_555 1_555
C40_6 C39_6 1_555 1_555
C41_6 C40_6 1_555 1_555
C42_6 C33_6 1_555 1_555
F7_6 C45_6 1_555 1_555
O21_7 C25_6 1_555 1_555
C43_6 C26_6 1_555 1_555
H13_6 C43_6 1_555 1_555
C44_6 C29_6 1_555 1_555
H14_6 C44_6 1_555 1_555
C45_6 C32_6 1_555 1_555
F8_6 C48_6 1_555 1_555
C48_6 C41_6 1_555 1_555
F9_6 C57_6 1_555 1_555
C49_6 O18_4 1_555 1_555
C50_6 C49_6 1_555 1_555
C51_6 C50_6 1_555 1_555
H17_6 C51_6 1_555 1_555
C52_6 C51_6 1_555 1_555
H18_6 C52_6 1_555 1_555
C53_6 C52_6 1_555 1_555
C54_6 C53_6 1_555 1_555
C55_6 C54_6 1_555 1_555
C56_6 C55_6 1_555 1_555
C57_6 C56_6 1_555 1_555
F10_6 C66_6 1_555 1_555
O23_4 C58_6 1_555 1_555
C58_6 C59_6 1_555 1_555
C59_6 C60_6 1_555 1_555
C60_6 H19_6 1_555 1_555
C61_6 C60_6 1_555 1_555
H20_6 C61_6 1_555 1_555
C62_6 C61_6 1_555 1_555
C63_6 C62_6 1_555 1_555
C64_6 C63_6 1_555 1_555
C65_6 C64_6 1_555 1_555
C66_6 C57_6 1_555 1_555
F11_6 C69_6 1_555 1_555
O21_8 C49_6 1_555 1_555
C67_6 C50_6 1_555 1_555
H21_6 C67_6 1_555 1_555
C68_6 C53_6 1_555 1_555
H22_6 C68_6 1_555 1_555
C69_6 C56_6 1_555 1_555
F12_6 C72_6 1_555 1_555
O16_6 C58_6 1_555 1_555
C70_6 C59_6 1_555 1_555
H23_6 C70_6 1_555 1_555
C71_6 C62_6 1_555 1_555
H24_6 C71_6 1_555 1_555
C72_6 C65_6 1_555 1_555
Hf7_2 O16_6 1_555 1_555
C41_6 C42_6 1_555 1_555
C43_6 C44_6 1_555 1_555
C45_6 C48_6 1_555 1_555
C65_6 C66_6 1_555 1_555
C67_6 C68_6 1_555 1_555
C69_6 C72_6 1_555 1_555
C70_6 C71_6 1_555 1_555
Hf1_5 O1_7 1_555 1_555
F1_13 C9_13 1_555 1_555
O1_7 C1_13 1_555 1_555
O2_5 Hf1_5 1_555 1_555
O3_5 Hf1_5 1_555 1_555
C1_13 C2_13 1_555 1_555
C2_13 C3_13 1_555 1_555
C3_13 H1_13 1_555 1_555
C4_13 C3_13 1_555 1_555
H2_13 C4_13 1_555 1_555
C5_13 C4_13 1_555 1_555
C6_13 C5_13 1_555 1_555
C7_13 C6_13 1_555 1_555
C8_13 C7_13 1_555 1_555
C9_13 C8_13 1_555 1_555
F2_13 C18_13 1_555 1_555
C12_13 H3_13 1_555 1_555
C13_13 C12_13 1_555 1_555
H4_13 C13_13 1_555 1_555
C14_13 C13_13 1_555 1_555
C15_13 C14_13 1_555 1_555
C16_13 C15_13 1_555 1_555
C17_13 C16_13 1_555 1_555
C18_13 C9_13 1_555 1_555
F3_13 C21_13 1_555 1_555
O5_4 C1_13 1_555 1_555
C19_13 C2_13 1_555 1_555
H5_13 C19_13 1_555 1_555
C20_13 C5_13 1_555 1_555
H6_13 C20_13 1_555 1_555
C21_13 C8_13 1_555 1_555
F4_13 C24_13 1_555 1_555
C24_13 C17_13 1_555 1_555
O7_5 Hf1_5 1_555 1_555
O8_5 Hf1_5 1_555 1_555
Hf2_2 O2_5 1_555 1_555
F5_7 C33_7 1_555 1_555
O9_5 Hf2_2 1_555 1_555
C25_7 O9_5 1_555 1_555
C26_7 C25_7 1_555 1_555
C27_7 C26_7 1_555 1_555
H9_7 C27_7 1_555 1_555
C28_7 C27_7 1_555 1_555
H10_7 C28_7 1_555 1_555
C29_7 C28_7 1_555 1_555
C30_7 C29_7 1_555 1_555
C31_7 C30_7 1_555 1_555
C32_7 C31_7 1_555 1_555
C33_7 C32_7 1_555 1_555
F6_7 C42_7 1_555 1_555
C39_7 C38_7 1_555 1_555
C40_7 C39_7 1_555 1_555
C41_7 C40_7 1_555 1_555
C42_7 C33_7 1_555 1_555
F7_7 C45_7 1_555 1_555
O11_4 C25_7 1_555 1_555
C43_7 C26_7 1_555 1_555
H13_7 C43_7 1_555 1_555
C44_7 C29_7 1_555 1_555
H14_7 C44_7 1_555 1_555
C45_7 C32_7 1_555 1_555
F8_7 C48_7 1_555 1_555
H15_7 C46_7 1_555 1_555
C47_7 C38_7 1_555 1_555
H16_7 C47_7 1_555 1_555
C48_7 C41_7 1_555 1_555
Hf3_2 O7_5 1_555 1_555
F9_7 C57_7 1_555 1_555
O13_5 Hf2_2 1_555 1_555
C49_7 O13_5 1_555 1_555
C50_7 C49_7 1_555 1_555
C51_7 C50_7 1_555 1_555
H17_7 C51_7 1_555 1_555
C52_7 C51_7 1_555 1_555
H18_7 C52_7 1_555 1_555
C53_7 C52_7 1_555 1_555
C54_7 C53_7 1_555 1_555
C55_7 C54_7 1_555 1_555
C56_7 C55_7 1_555 1_555
C57_7 C56_7 1_555 1_555
F10_7 C66_7 1_555 1_555
C63_7 C62_7 1_555 1_555
C64_7 C63_7 1_555 1_555
C65_7 C64_7 1_555 1_555
C66_7 C57_7 1_555 1_555
F11_7 C69_7 1_555 1_555
O15_4 C49_7 1_555 1_555
C67_7 C50_7 1_555 1_555
H21_7 C67_7 1_555 1_555
C68_7 C53_7 1_555 1_555
H22_7 C68_7 1_555 1_555
C69_7 C56_7 1_555 1_555
F12_7 C72_7 1_555 1_555
C72_7 C65_7 1_555 1_555
Hf10_3 O3_5 1_555 1_555
Hf11_3 O2_5 1_555 1_555
O17_7 Hf1_5 1_555 1_555
O18_5 Hf3_2 1_555 1_555
O19_5 Hf3_2 1_555 1_555
O20_2 Hf3_2 1_555 1_555
O21_9 Hf1_5 1_555 1_555
O22_2 Hf2_2 1_555 1_555
O23_9 Hf1_5 1_555 1_555
O24_4 Hf3_2 1_555 1_555
O25_5 Hf3_2 1_555 1_555
O26_5 Hf2_2 1_555 1_555
O27_5 Hf3_2 1_555 1_555
O28_5 Hf2_2 1_555 1_555
O3_5 Hf2_2 1_555 1_555
C17_13 C18_13 1_555 1_555
O5_4 Hf2_2 1_555 1_555
C19_13 C20_13 1_555 1_555
C21_13 C24_13 1_555 1_555
O7_5 Hf10_3 1_555 1_555
O8_5 Hf3_2 1_555 1_555
O8_5 Hf11_3 1_555 1_555
C41_7 C42_7 1_555 1_555
O11_4 Hf10_3 1_555 1_555
C43_7 C44_7 1_555 1_555
C45_7 C48_7 1_555 1_555
C46_7 C47_7 1_555 1_555
C65_7 C66_7 1_555 1_555
O15_4 Hf11_3 1_555 1_555
C67_7 C68_7 1_555 1_555
C69_7 C72_7 1_555 1_555
Hf10_3 O26_5 1_555 1_555
Hf10_3 O27_5 1_555 1_555
Hf11_3 O25_5 1_555 1_555
Hf11_3 O28_5 1_555 1_555
H23_7 C70_7 1_555 1_555
H24_7 C71_7 1_555 1_555
C70_7 C71_7 1_555 1_555
O4_11 C10_13 1_555 1_555
C10_13 C11_13 1_555 1_555
O6_9 C10_13 1_555 1_555
C22_13 C11_13 1_555 1_555
H7_13 C22_13 1_555 1_555
H8_13 C23_13 1_555 1_555
O10_5 C34_7 1_555 1_555
C34_7 C35_7 1_555 1_555
C35_7 C36_7 1_555 1_555
C36_7 H11_7 1_555 1_555
C37_7 C36_7 1_555 1_555
H12_7 C37_7 1_555 1_555
O12_7 C34_7 1_555 1_555
C60_7 H19_7 1_555 1_555
C61_7 C60_7 1_555 1_555
H20_7 C61_7 1_555 1_555
Hf5_5 O12_7 1_555 1_555
Hf7_5 O4_11 1_555 1_555
Hf8_2 O10_5 1_555 1_555
Hf9_5 O6_9 1_555 1_555
C22_13 C23_13 1_555 1_555
O14_5 C58_7 1_555 1_555
C58_7 C59_7 1_555 1_555
O16_7 C58_7 1_555 1_555
Hf5_5 O16_7 1_555 1_555
Hf6_2 O14_5 1_555 1_555
F5_8 C33_8 1_555 1_555
H9_8 C27_8 1_555 1_555
C28_8 C27_8 1_555 1_555
H10_8 C28_8 1_555 1_555
C29_8 C28_8 1_555 1_555
C30_8 C29_8 1_555 1_555
C31_8 C30_8 1_555 1_555
C32_8 C31_8 1_555 1_555
C33_8 C32_8 1_555 1_555
F6_8 C42_8 1_555 1_555
O10_6 C34_8 1_555 1_555
C34_8 C35_8 1_555 1_555
C35_8 C36_8 1_555 1_555
C36_8 H11_8 1_555 1_555
C37_8 C36_8 1_555 1_555
H12_8 C37_8 1_555 1_555
C38_8 C37_8 1_555 1_555
C39_8 C38_8 1_555 1_555
C40_8 C39_8 1_555 1_555
C41_8 C40_8 1_555 1_555
C42_8 C33_8 1_555 1_555
F7_8 C45_8 1_555 1_555
C45_8 C32_8 1_555 1_555
F8_8 C48_8 1_555 1_555
O12_8 C34_8 1_555 1_555
C46_8 C35_8 1_555 1_555
H15_8 C46_8 1_555 1_555
C47_8 C38_8 1_555 1_555
H16_8 C47_8 1_555 1_555
C48_8 C41_8 1_555 1_555
F9_8 C57_8 1_555 1_555
H17_8 C51_8 1_555 1_555
C52_8 C51_8 1_555 1_555
H18_8 C52_8 1_555 1_555
C53_8 C52_8 1_555 1_555
C54_8 C53_8 1_555 1_555
C55_8 C54_8 1_555 1_555
C56_8 C55_8 1_555 1_555
C57_8 C56_8 1_555 1_555
F10_8 C66_8 1_555 1_555
C60_8 H19_8 1_555 1_555
C61_8 C60_8 1_555 1_555
H20_8 C61_8 1_555 1_555
C62_8 C61_8 1_555 1_555
C63_8 C62_8 1_555 1_555
C64_8 C63_8 1_555 1_555
C65_8 C64_8 1_555 1_555
C66_8 C57_8 1_555 1_555
F11_8 C69_8 1_555 1_555
C69_8 C56_8 1_555 1_555
F12_8 C72_8 1_555 1_555
C72_8 C65_8 1_555 1_555
Hf5_6 O12_8 1_555 1_555
Hf8_3 O10_6 1_555 1_555
C41_8 C42_8 1_555 1_555
C45_8 C48_8 1_555 1_555
C46_8 C47_8 1_555 1_555
C65_8 C66_8 1_555 1_555
C69_8 C72_8 1_555 1_555
O14_6 C58_8 1_555 1_555
C58_8 C59_8 1_555 1_555
O16_8 C58_8 1_555 1_555
C70_8 C59_8 1_555 1_555
H23_8 C70_8 1_555 1_555
H24_8 C71_8 1_555 1_555
Hf5_6 O16_8 1_555 1_555
Hf6_3 O14_6 1_555 1_555
C70_8 C71_8 1_555 1_555
O2_6 Hf9_5 1_555 1_555
O3_6 Hf9_5 1_555 1_555
O7_6 Hf9_5 1_555 1_555
O8_6 Hf9_5 1_555 1_555
Hf7_5 O2_6 1_555 1_555
O9_6 Hf7_5 1_555 1_555
C25_8 O9_6 1_555 1_555
C26_8 C25_8 1_555 1_555
O11_5 C25_8 1_555 1_555
C43_8 C26_8 1_555 1_555
H13_8 C43_8 1_555 1_555
H14_8 C44_8 1_555 1_555
Hf3_3 O7_6 1_555 1_555
O13_6 Hf7_5 1_555 1_555
C49_8 O13_6 1_555 1_555
C50_8 C49_8 1_555 1_555
O15_5 C49_8 1_555 1_555
C67_8 C50_8 1_555 1_555
H21_8 C67_8 1_555 1_555
H22_8 C68_8 1_555 1_555
Hf10_4 O3_6 1_555 1_555
Hf11_4 O2_6 1_555 1_555
O17_8 Hf9_5 1_555 1_555
O18_6 Hf3_3 1_555 1_555
O19_6 Hf3_3 1_555 1_555
O20_3 Hf3_3 1_555 1_555
O21_10 Hf9_5 1_555 1_555
O22_3 Hf7_5 1_555 1_555
O23_10 Hf9_5 1_555 1_555
O24_5 Hf3_3 1_555 1_555
O25_6 Hf3_3 1_555 1_555
O26_6 Hf7_5 1_555 1_555
O27_6 Hf3_3 1_555 1_555
O28_6 Hf7_5 1_555 1_555
O3_6 Hf7_5 1_555 1_555
O7_6 Hf10_4 1_555 1_555
O8_6 Hf3_3 1_555 1_555
O8_6 Hf11_4 1_555 1_555
O11_5 Hf10_4 1_555 1_555
C43_8 C44_8 1_555 1_555
O15_5 Hf11_4 1_555 1_555
C67_8 C68_8 1_555 1_555
Hf10_4 O26_6 1_555 1_555
Hf10_4 O27_6 1_555 1_555
Hf11_4 O25_6 1_555 1_555
Hf11_4 O28_6 1_555 1_555
F9_9 C57_9 1_555 1_555
C54_9 C53_9 1_555 1_555
C55_9 C54_9 1_555 1_555
C56_9 C55_9 1_555 1_555
C57_9 C56_9 1_555 1_555
F10_9 C66_9 1_555 1_555
O14_7 C58_9 1_555 1_555
C58_9 C59_9 1_555 1_555
C59_9 C60_9 1_555 1_555
C60_9 H19_9 1_555 1_555
C61_9 C60_9 1_555 1_555
H20_9 C61_9 1_555 1_555
C62_9 C61_9 1_555 1_555
C63_9 C62_9 1_555 1_555
C64_9 C63_9 1_555 1_555
C65_9 C64_9 1_555 1_555
C66_9 C57_9 1_555 1_555
F11_9 C69_9 1_555 1_555
C69_9 C56_9 1_555 1_555
F12_9 C72_9 1_555 1_555
O16_9 C58_9 1_555 1_555
C70_9 C59_9 1_555 1_555
H23_9 C70_9 1_555 1_555
C71_9 C62_9 1_555 1_555
H24_9 C71_9 1_555 1_555
C72_9 C65_9 1_555 1_555
Hf11_3 O16_9 1_555 1_555
Hf6_4 O14_7 1_555 1_555
C65_9 C66_9 1_555 1_555
C69_9 C72_9 1_555 1_555
C70_9 C71_9 1_555 1_555
H21_9 C67_9 1_555 1_555
H22_9 C68_9 1_555 1_555
C67_9 C68_9 1_555 1_555
F1_14 C9_14 1_555 1_555
C6_14 C5_14 1_555 1_555
C7_14 C6_14 1_555 1_555
C8_14 C7_14 1_555 1_555
C9_14 C8_14 1_555 1_555
F2_14 C18_14 1_555 1_555
O4_12 C10_14 1_555 1_555
C10_14 C11_14 1_555 1_555
C11_14 C12_14 1_555 1_555
C12_14 H3_14 1_555 1_555
C13_14 C12_14 1_555 1_555
H4_14 C13_14 1_555 1_555
C14_14 C13_14 1_555 1_555
C15_14 C14_14 1_555 1_555
C16_14 C15_14 1_555 1_555
C17_14 C16_14 1_555 1_555
C18_14 C9_14 1_555 1_555
F3_14 C21_14 1_555 1_555
H5_14 C19_14 1_555 1_555
C20_14 C5_14 1_555 1_555
H6_14 C20_14 1_555 1_555
C21_14 C8_14 1_555 1_555
F4_14 C24_14 1_555 1_555
O18_6 C10_14 1_555 1_555
C22_14 C11_14 1_555 1_555
H7_14 C22_14 1_555 1_555
C23_14 C14_14 1_555 1_555
H8_14 C23_14 1_555 1_555
C24_14 C17_14 1_555 1_555
F5_9 C33_9 1_555 1_555
H9_9 C27_9 1_555 1_555
C28_9 C27_9 1_555 1_555
H10_9 C28_9 1_555 1_555
C29_9 C28_9 1_555 1_555
C30_9 C29_9 1_555 1_555
C31_9 C30_9 1_555 1_555
C32_9 C31_9 1_555 1_555
C33_9 C32_9 1_555 1_555
F6_9 C42_9 1_555 1_555
O21_9 C34_9 1_555 1_555
C34_9 C35_9 1_555 1_555
C35_9 C36_9 1_555 1_555
C36_9 H11_9 1_555 1_555
C37_9 C36_9 1_555 1_555
H12_9 C37_9 1_555 1_555
C38_9 C37_9 1_555 1_555
C39_9 C38_9 1_555 1_555
C40_9 C39_9 1_555 1_555
C41_9 C40_9 1_555 1_555
C42_9 C33_9 1_555 1_555
F7_9 C45_9 1_555 1_555
C45_9 C32_9 1_555 1_555
F8_9 C48_9 1_555 1_555
O12_9 C34_9 1_555 1_555
C46_9 C35_9 1_555 1_555
H15_9 C46_9 1_555 1_555
C47_9 C38_9 1_555 1_555
H16_9 C47_9 1_555 1_555
C48_9 C41_9 1_555 1_555
H17_9 C51_9 1_555 1_555
C52_9 C51_9 1_555 1_555
H18_9 C52_9 1_555 1_555
Hf11_3 O12_9 1_555 1_555
Hf11_4 O4_12 1_555 1_555
C17_14 C18_14 1_555 1_555
C19_14 C20_14 1_555 1_555
C21_14 C24_14 1_555 1_555
C22_14 C23_14 1_555 1_555
C41_9 C42_9 1_555 1_555
C45_9 C48_9 1_555 1_555
C46_9 C47_9 1_555 1_555
Hf1_6 O1_8 1_555 1_555
O1_8 C1_14 1_555 1_555
O2_7 Hf1_6 1_555 1_555
O3_7 Hf1_6 1_555 1_555
C1_14 C2_14 1_555 1_555
C2_14 C3_14 1_555 1_555
C3_14 H1_14 1_555 1_555
C4_14 C3_14 1_555 1_555
H2_14 C4_14 1_555 1_555
O5_5 C1_14 1_555 1_555
O7_7 Hf1_6 1_555 1_555
O8_7 Hf1_6 1_555 1_555
Hf6_3 O2_7 1_555 1_555
O9_7 Hf6_3 1_555 1_555
C25_9 O9_7 1_555 1_555
C26_9 C25_9 1_555 1_555
O11_6 C25_9 1_555 1_555
C43_9 C26_9 1_555 1_555
H13_9 C43_9 1_555 1_555
H14_9 C44_9 1_555 1_555
Hf8_3 O7_7 1_555 1_555
O13_7 Hf6_3 1_555 1_555
C49_9 O13_7 1_555 1_555
C50_9 C49_9 1_555 1_555
O15_6 C49_9 1_555 1_555
Hf10_5 O3_7 1_555 1_555
Hf11_5 O2_7 1_555 1_555
O17_9 Hf1_6 1_555 1_555
O18_7 Hf8_3 1_555 1_555
O19_7 Hf8_3 1_555 1_555
O21_11 Hf1_6 1_555 1_555
O23_11 Hf1_6 1_555 1_555
O24_6 Hf8_3 1_555 1_555
O25_7 Hf8_3 1_555 1_555
O26_7 Hf6_3 1_555 1_555
O27_7 Hf8_3 1_555 1_555
O28_7 Hf6_3 1_555 1_555
O3_7 Hf6_3 1_555 1_555
O5_5 Hf6_3 1_555 1_555
O7_7 Hf10_5 1_555 1_555
O8_7 Hf8_3 1_555 1_555
O8_7 Hf11_5 1_555 1_555
O11_6 Hf10_5 1_555 1_555
C43_9 C44_9 1_555 1_555
O15_6 Hf11_5 1_555 1_555
Hf10_5 O26_7 1_555 1_555
Hf10_5 O27_7 1_555 1_555
Hf11_5 O25_7 1_555 1_555
Hf11_5 O28_7 1_555 1_555
F1_15 C9_15 1_555 1_555
O18_5 C1_15 1_555 1_555
C1_15 C2_15 1_555 1_555
C2_15 C3_15 1_555 1_555
C3_15 H1_15 1_555 1_555
C4_15 C3_15 1_555 1_555
H2_15 C4_15 1_555 1_555
C5_15 C4_15 1_555 1_555
C6_15 C5_15 1_555 1_555
C7_15 C6_15 1_555 1_555
C8_15 C7_15 1_555 1_555
C9_15 C8_15 1_555 1_555
F2_15 C18_15 1_555 1_555
C12_15 H3_15 1_555 1_555
C13_15 C12_15 1_555 1_555
H4_15 C13_15 1_555 1_555
C14_15 C13_15 1_555 1_555
C15_15 C14_15 1_555 1_555
C16_15 C15_15 1_555 1_555
C17_15 C16_15 1_555 1_555
C18_15 C9_15 1_555 1_555
F3_15 C21_15 1_555 1_555
O5_6 C1_15 1_555 1_555
C19_15 C2_15 1_555 1_555
H5_15 C19_15 1_555 1_555
C20_15 C5_15 1_555 1_555
H6_15 C20_15 1_555 1_555
C21_15 C8_15 1_555 1_555
F4_15 C24_15 1_555 1_555
C24_15 C17_15 1_555 1_555
Hf6_4 O25_5 1_555 1_555
O18_8 Hf10_3 1_555 1_555
O19_8 Hf10_3 1_555 1_555
O24_7 Hf10_3 1_555 1_555
C17_15 C18_15 1_555 1_555
O5_6 Hf11_3 1_555 1_555
C19_15 C20_15 1_555 1_555
C21_15 C24_15 1_555 1_555
O27_5 Hf6_4 1_555 1_555
Hf6_4 O26_5 1_555 1_555
Hf6_4 O28_5 1_555 1_555
O4_13 C10_15 1_555 1_555
C10_15 C11_15 1_555 1_555
O6_10 C10_15 1_555 1_555
C22_15 C11_15 1_555 1_555
H7_15 C22_15 1_555 1_555
H8_15 C23_15 1_555 1_555
Hf6_2 O4_13 1_555 1_555
Hf9_6 O6_10 1_555 1_555
C22_15 C23_15 1_555 1_555
F1_16 C9_16 1_555 1_555
C6_16 C5_16 1_555 1_555
C7_16 C6_16 1_555 1_555
C8_16 C7_16 1_555 1_555
C9_16 C8_16 1_555 1_555
F2_16 C18_16 1_555 1_555
O4_14 C10_16 1_555 1_555
C10_16 C11_16 1_555 1_555
C11_16 C12_16 1_555 1_555
C12_16 H3_16 1_555 1_555
C13_16 C12_16 1_555 1_555
H4_16 C13_16 1_555 1_555
C14_16 C13_16 1_555 1_555
C15_16 C14_16 1_555 1_555
C16_16 C15_16 1_555 1_555
C17_16 C16_16 1_555 1_555
C18_16 C9_16 1_555 1_555
F3_16 C21_16 1_555 1_555
H5_16 C19_16 1_555 1_555
C20_16 C5_16 1_555 1_555
H6_16 C20_16 1_555 1_555
C21_16 C8_16 1_555 1_555
F4_16 C24_16 1_555 1_555
O18_8 C10_16 1_555 1_555
C22_16 C11_16 1_555 1_555
H7_16 C22_16 1_555 1_555
C23_16 C14_16 1_555 1_555
H8_16 C23_16 1_555 1_555
C24_16 C17_16 1_555 1_555
F5_10 C33_10 1_555 1_555
H9_10 C27_10 1_555 1_555
C28_10 C27_10 1_555 1_555
H10_10 C28_10 1_555 1_555
C29_10 C28_10 1_555 1_555
C30_10 C29_10 1_555 1_555
C31_10 C30_10 1_555 1_555
C32_10 C31_10 1_555 1_555
C33_10 C32_10 1_555 1_555
F6_10 C42_10 1_555 1_555
O10_7 C34_10 1_555 1_555
C34_10 C35_10 1_555 1_555
C35_10 C36_10 1_555 1_555
C36_10 H11_10 1_555 1_555
C37_10 C36_10 1_555 1_555
H12_10 C37_10 1_555 1_555
C38_10 C37_10 1_555 1_555
C39_10 C38_10 1_555 1_555
C40_10 C39_10 1_555 1_555
C41_10 C40_10 1_555 1_555
C42_10 C33_10 1_555 1_555
F7_10 C45_10 1_555 1_555
C45_10 C32_10 1_555 1_555
F8_10 C48_10 1_555 1_555
O12_10 C34_10 1_555 1_555
C46_10 C35_10 1_555 1_555
H15_10 C46_10 1_555 1_555
C47_10 C38_10 1_555 1_555
H16_10 C47_10 1_555 1_555
C48_10 C41_10 1_555 1_555
F9_10 C57_10 1_555 1_555
H17_10 C51_10 1_555 1_555
C52_10 C51_10 1_555 1_555
H18_10 C52_10 1_555 1_555
C53_10 C52_10 1_555 1_555
C54_10 C53_10 1_555 1_555
C55_10 C54_10 1_555 1_555
C56_10 C55_10 1_555 1_555
C57_10 C56_10 1_555 1_555
F10_10 C66_10 1_555 1_555
C60_10 H19_10 1_555 1_555
C61_10 C60_10 1_555 1_555
H20_10 C61_10 1_555 1_555
C62_10 C61_10 1_555 1_555
C63_10 C62_10 1_555 1_555
C64_10 C63_10 1_555 1_555
C65_10 C64_10 1_555 1_555
C66_10 C57_10 1_555 1_555
F11_10 C69_10 1_555 1_555
C69_10 C56_10 1_555 1_555
F12_10 C72_10 1_555 1_555
C72_10 C65_10 1_555 1_555
Hf5_7 O12_10 1_555 1_555
Hf6_4 O4_14 1_555 1_555
Hf9_6 O10_7 1_555 1_555
C17_16 C18_16 1_555 1_555
C19_16 C20_16 1_555 1_555
C21_16 C24_16 1_555 1_555
C22_16 C23_16 1_555 1_555
C41_10 C42_10 1_555 1_555
C45_10 C48_10 1_555 1_555
C46_10 C47_10 1_555 1_555
C65_10 C66_10 1_555 1_555
C69_10 C72_10 1_555 1_555
O18_7 C1_16 1_555 1_555
C1_16 C2_16 1_555 1_555
C2_16 C3_16 1_555 1_555
C3_16 H1_16 1_555 1_555
C4_16 C3_16 1_555 1_555
H2_16 C4_16 1_555 1_555
O5_7 C1_16 1_555 1_555
O9_8 Hf11_5 1_555 1_555
C25_10 O9_8 1_555 1_555
C26_10 C25_10 1_555 1_555
O21_11 C25_10 1_555 1_555
C43_10 C26_10 1_555 1_555
H13_10 C43_10 1_555 1_555
H14_10 C44_10 1_555 1_555
O13_8 Hf11_5 1_555 1_555
C49_10 O13_8 1_555 1_555
C50_10 C49_10 1_555 1_555
O15_7 C49_10 1_555 1_555
C67_10 C50_10 1_555 1_555
H21_10 C67_10 1_555 1_555
H22_10 C68_10 1_555 1_555
Hf5_6 O25_7 1_555 1_555
O18_9 Hf10_5 1_555 1_555
O19_9 Hf10_5 1_555 1_555
O24_8 Hf10_5 1_555 1_555
O5_7 Hf11_5 1_555 1_555
O27_7 Hf5_6 1_555 1_555
C43_10 C44_10 1_555 1_555
O15_7 Hf5_6 1_555 1_555
C67_10 C68_10 1_555 1_555
Hf5_6 O26_7 1_555 1_555
Hf5_6 O28_7 1_555 1_555
O14_8 C58_10 1_555 1_555
C58_10 C59_10 1_555 1_555
O16_10 C58_10 1_555 1_555
C70_10 C59_10 1_555 1_555
H23_10 C70_10 1_555 1_555
H24_10 C71_10 1_555 1_555
Hf5_7 O16_10 1_555 1_555
Hf5_5 O14_8 1_555 1_555
C70_10 C71_10 1_555 1_555
F9_11 C57_11 1_555 1_555
C54_11 C53_11 1_555 1_555
C55_11 C54_11 1_555 1_555
C56_11 C55_11 1_555 1_555
C57_11 C56_11 1_555 1_555
F10_11 C66_11 1_555 1_555
O22_2 C58_11 1_555 1_555
C58_11 C59_11 1_555 1_555
C59_11 C60_11 1_555 1_555
C60_11 H19_11 1_555 1_555
C61_11 C60_11 1_555 1_555
H20_11 C61_11 1_555 1_555
C62_11 C61_11 1_555 1_555
C63_11 C62_11 1_555 1_555
C64_11 C63_11 1_555 1_555
C65_11 C64_11 1_555 1_555
C66_11 C57_11 1_555 1_555
F11_11 C69_11 1_555 1_555
C69_11 C56_11 1_555 1_555
F12_11 C72_11 1_555 1_555
O16_11 C58_11 1_555 1_555
C70_11 C59_11 1_555 1_555
H23_11 C70_11 1_555 1_555
C71_11 C62_11 1_555 1_555
H24_11 C71_11 1_555 1_555
C72_11 C65_11 1_555 1_555
Hf6_4 O16_11 1_555 1_555
C65_11 C66_11 1_555 1_555
C69_11 C72_11 1_555 1_555
C70_11 C71_11 1_555 1_555
H21_11 C67_11 1_555 1_555
H22_11 C68_11 1_555 1_555
C67_11 C68_11 1_555 1_555
F1_17 C9_17 1_555 1_555
C6_17 C5_17 1_555 1_555
C7_17 C6_17 1_555 1_555
C8_17 C7_17 1_555 1_555
C9_17 C8_17 1_555 1_555
F2_17 C18_17 1_555 1_555
O4_15 C10_17 1_555 1_555
C10_17 C11_17 1_555 1_555
C11_17 C12_17 1_555 1_555
C12_17 H3_17 1_555 1_555
C13_17 C12_17 1_555 1_555
H4_17 C13_17 1_555 1_555
C14_17 C13_17 1_555 1_555
C15_17 C14_17 1_555 1_555
C16_17 C15_17 1_555 1_555
C17_17 C16_17 1_555 1_555
C18_17 C9_17 1_555 1_555
F3_17 C21_17 1_555 1_555
H5_17 C19_17 1_555 1_555
C20_17 C5_17 1_555 1_555
H6_17 C20_17 1_555 1_555
C21_17 C8_17 1_555 1_555
F4_17 C24_17 1_555 1_555
O6_11 C10_17 1_555 1_555
C22_17 C11_17 1_555 1_555
H7_17 C22_17 1_555 1_555
C23_17 C14_17 1_555 1_555
H8_17 C23_17 1_555 1_555
C24_17 C17_17 1_555 1_555
F5_11 C33_11 1_555 1_555
H9_11 C27_11 1_555 1_555
C28_11 C27_11 1_555 1_555
H10_11 C28_11 1_555 1_555
C29_11 C28_11 1_555 1_555
C30_11 C29_11 1_555 1_555
C31_11 C30_11 1_555 1_555
C32_11 C31_11 1_555 1_555
C33_11 C32_11 1_555 1_555
F6_11 C42_11 1_555 1_555
O20_2 C34_11 1_555 1_555
C34_11 C35_11 1_555 1_555
C35_11 C36_11 1_555 1_555
C36_11 H11_11 1_555 1_555
C37_11 C36_11 1_555 1_555
H12_11 C37_11 1_555 1_555
C38_11 C37_11 1_555 1_555
C39_11 C38_11 1_555 1_555
C40_11 C39_11 1_555 1_555
C41_11 C40_11 1_555 1_555
C42_11 C33_11 1_555 1_555
F7_11 C45_11 1_555 1_555
C45_11 C32_11 1_555 1_555
F8_11 C48_11 1_555 1_555
O12_11 C34_11 1_555 1_555
C46_11 C35_11 1_555 1_555
H15_11 C46_11 1_555 1_555
C47_11 C38_11 1_555 1_555
H16_11 C47_11 1_555 1_555
C48_11 C41_11 1_555 1_555
H17_11 C51_11 1_555 1_555
C52_11 C51_11 1_555 1_555
H18_11 C52_11 1_555 1_555
Hf6_4 O12_11 1_555 1_555
Hf5_7 O4_15 1_555 1_555
Hf8_2 O6_11 1_555 1_555
C17_17 C18_17 1_555 1_555
C19_17 C20_17 1_555 1_555
C21_17 C24_17 1_555 1_555
C22_17 C23_17 1_555 1_555
C41_11 C42_11 1_555 1_555
C45_11 C48_11 1_555 1_555
C46_11 C47_11 1_555 1_555
Hf10_4 O1_9 1_555 1_555
O1_9 C1_17 1_555 1_555
C1_17 C2_17 1_555 1_555
C2_17 C3_17 1_555 1_555
C3_17 H1_17 1_555 1_555
C4_17 C3_17 1_555 1_555
H2_17 C4_17 1_555 1_555
O5_8 C1_17 1_555 1_555
Hf2_3 O26_6 1_555 1_555
O9_9 Hf2_3 1_555 1_555
C25_11 O9_9 1_555 1_555
C26_11 C25_11 1_555 1_555
O20_3 C25_11 1_555 1_555
C43_11 C26_11 1_555 1_555
H13_11 C43_11 1_555 1_555
H14_11 C44_11 1_555 1_555
O13_9 Hf2_3 1_555 1_555
C49_11 O13_9 1_555 1_555
C50_11 C49_11 1_555 1_555
O22_3 C49_11 1_555 1_555
O17_10 Hf10_4 1_555 1_555
O22_4 Hf2_3 1_555 1_555
O23_12 Hf10_4 1_555 1_555
O25_6 Hf2_3 1_555 1_555
O28_6 Hf2_3 1_555 1_555
O27_6 Hf2_3 1_555 1_555
O5_8 Hf2_3 1_555 1_555
C43_11 C44_11 1_555 1_555
F1_18 C9_18 1_555 1_555
C6_18 C5_18 1_555 1_555
C7_18 C6_18 1_555 1_555
C8_18 C7_18 1_555 1_555
C9_18 C8_18 1_555 1_555
F2_18 C18_18 1_555 1_555
O4_16 C10_18 1_555 1_555
C10_18 C11_18 1_555 1_555
C11_18 C12_18 1_555 1_555
C12_18 H3_18 1_555 1_555
C13_18 C12_18 1_555 1_555
H4_18 C13_18 1_555 1_555
C14_18 C13_18 1_555 1_555
C15_18 C14_18 1_555 1_555
C16_18 C15_18 1_555 1_555
C17_18 C16_18 1_555 1_555
C18_18 C9_18 1_555 1_555
F3_18 C21_18 1_555 1_555
H5_18 C19_18 1_555 1_555
C20_18 C5_18 1_555 1_555
H6_18 C20_18 1_555 1_555
C21_18 C8_18 1_555 1_555
F4_18 C24_18 1_555 1_555
O18_9 C10_18 1_555 1_555
C22_18 C11_18 1_555 1_555
H7_18 C22_18 1_555 1_555
C23_18 C14_18 1_555 1_555
H8_18 C23_18 1_555 1_555
C24_18 C17_18 1_555 1_555
Hf5_6 O4_16 1_555 1_555
C17_18 C18_18 1_555 1_555
C19_18 C20_18 1_555 1_555
C21_18 C24_18 1_555 1_555
C22_18 C23_18 1_555 1_555
Hf1_7 O1_10 1_555 1_555
O1_10 C1_18 1_555 1_555
O2_8 Hf1_7 1_555 1_555
O3_8 Hf1_7 1_555 1_555
C1_18 C2_18 1_555 1_555
C2_18 C3_18 1_555 1_555
C3_18 H1_18 1_555 1_555
C4_18 C3_18 1_555 1_555
H2_18 C4_18 1_555 1_555
O5_9 C1_18 1_555 1_555
O7_8 Hf1_7 1_555 1_555
O8_8 Hf1_7 1_555 1_555
Hf5_5 O2_8 1_555 1_555
Hf9_6 O7_8 1_555 1_555
Hf8_2 O3_8 1_555 1_555
Hf6_2 O2_8 1_555 1_555
O17_11 Hf1_7 1_555 1_555
O19_10 Hf9_6 1_555 1_555
O21_12 Hf1_7 1_555 1_555
O23_13 Hf1_7 1_555 1_555
O24_9 Hf9_6 1_555 1_555
O25_8 Hf9_6 1_555 1_555
O26_8 Hf5_5 1_555 1_555
O27_8 Hf9_6 1_555 1_555
O28_8 Hf5_5 1_555 1_555
O3_8 Hf5_5 1_555 1_555
O5_9 Hf5_5 1_555 1_555
O7_8 Hf8_2 1_555 1_555
O8_8 Hf9_6 1_555 1_555
O8_8 Hf6_2 1_555 1_555
Hf8_2 O26_8 1_555 1_555
Hf8_2 O27_8 1_555 1_555
Hf6_2 O25_8 1_555 1_555
Hf6_2 O28_8 1_555 1_555
F5_12 C33_12 1_555 1_555
H9_12 C27_12 1_555 1_555
C28_12 C27_12 1_555 1_555
H10_12 C28_12 1_555 1_555
C29_12 C28_12 1_555 1_555
C30_12 C29_12 1_555 1_555
C31_12 C30_12 1_555 1_555
C32_12 C31_12 1_555 1_555
C33_12 C32_12 1_555 1_555
F6_12 C42_12 1_555 1_555
O21_10 C34_12 1_555 1_555
C34_12 C35_12 1_555 1_555
C35_12 C36_12 1_555 1_555
C36_12 H11_12 1_555 1_555
C37_12 C36_12 1_555 1_555
H12_12 C37_12 1_555 1_555
C38_12 C37_12 1_555 1_555
C39_12 C38_12 1_555 1_555
C40_12 C39_12 1_555 1_555
C41_12 C40_12 1_555 1_555
C42_12 C33_12 1_555 1_555
F7_12 C45_12 1_555 1_555
C45_12 C32_12 1_555 1_555
F8_12 C48_12 1_555 1_555
O12_12 C34_12 1_555 1_555
C46_12 C35_12 1_555 1_555
H15_12 C46_12 1_555 1_555
C47_12 C38_12 1_555 1_555
H16_12 C47_12 1_555 1_555
C48_12 C41_12 1_555 1_555
F9_12 C57_12 1_555 1_555
H17_12 C51_12 1_555 1_555
C52_12 C51_12 1_555 1_555
H18_12 C52_12 1_555 1_555
C53_12 C52_12 1_555 1_555
C54_12 C53_12 1_555 1_555
C55_12 C54_12 1_555 1_555
C56_12 C55_12 1_555 1_555
C57_12 C56_12 1_555 1_555
F10_12 C66_12 1_555 1_555
C60_12 H19_12 1_555 1_555
C61_12 C60_12 1_555 1_555
H20_12 C61_12 1_555 1_555
C62_12 C61_12 1_555 1_555
C63_12 C62_12 1_555 1_555
C64_12 C63_12 1_555 1_555
C65_12 C64_12 1_555 1_555
C66_12 C57_12 1_555 1_555
F11_12 C69_12 1_555 1_555
C69_12 C56_12 1_555 1_555
F12_12 C72_12 1_555 1_555
C72_12 C65_12 1_555 1_555
Hf11_4 O12_12 1_555 1_555
C41_12 C42_12 1_555 1_555
C45_12 C48_12 1_555 1_555
C46_12 C47_12 1_555 1_555
C65_12 C66_12 1_555 1_555
C69_12 C72_12 1_555 1_555
O9_10 Hf6_2 1_555 1_555
C25_12 O9_10 1_555 1_555
C26_12 C25_12 1_555 1_555
O21_12 C25_12 1_555 1_555
C43_12 C26_12 1_555 1_555
H13_12 C43_12 1_555 1_555
H14_12 C44_12 1_555 1_555
O13_10 Hf6_2 1_555 1_555
C49_12 O13_10 1_555 1_555
C50_12 C49_12 1_555 1_555
O15_8 C49_12 1_555 1_555
C67_12 C50_12 1_555 1_555
H21_12 C67_12 1_555 1_555
H22_12 C68_12 1_555 1_555
Hf5_7 O25_8 1_555 1_555
O19_11 Hf8_2 1_555 1_555
O24_10 Hf8_2 1_555 1_555
O27_8 Hf5_7 1_555 1_555
C43_12 C44_12 1_555 1_555
O15_8 Hf5_7 1_555 1_555
C67_12 C68_12 1_555 1_555
Hf5_7 O26_8 1_555 1_555
Hf5_7 O28_8 1_555 1_555
O22_4 C58_12 1_555 1_555
C58_12 C59_12 1_555 1_555
O16_12 C58_12 1_555 1_555
C70_12 C59_12 1_555 1_555
H23_12 C70_12 1_555 1_555
H24_12 C71_12 1_555 1_555
Hf11_4 O16_12 1_555 1_555
C70_12 C71_12 1_555 1_555
F1_19 C9_19 1_555 1_555
O19_5 C1_19 1_555 1_555
C1_19 C2_19 1_555 1_555
C2_19 C3_19 1_555 1_555
C3_19 H1_19 1_555 1_555
C4_19 C3_19 1_555 1_555
H2_19 C4_19 1_555 1_555
C5_19 C4_19 1_555 1_555
C6_19 C5_19 1_555 1_555
C7_19 C6_19 1_555 1_555
C8_19 C7_19 1_555 1_555
C9_19 C8_19 1_555 1_555
F2_19 C18_19 1_555 1_555
O24_10 C10_19 1_555 1_555
C10_19 C11_19 1_555 1_555
C11_19 C12_19 1_555 1_555
C12_19 H3_19 1_555 1_555
C13_19 C12_19 1_555 1_555
H4_19 C13_19 1_555 1_555
C14_19 C13_19 1_555 1_555
C15_19 C14_19 1_555 1_555
C16_19 C15_19 1_555 1_555
C17_19 C16_19 1_555 1_555
C18_19 C9_19 1_555 1_555
F3_19 C21_19 1_555 1_555
O24_7 C1_19 1_555 1_555
C19_19 C2_19 1_555 1_555
H5_19 C19_19 1_555 1_555
C20_19 C5_19 1_555 1_555
H6_19 C20_19 1_555 1_555
C21_19 C8_19 1_555 1_555
F4_19 C24_19 1_555 1_555
O19_10 C10_19 1_555 1_555
C22_19 C11_19 1_555 1_555
H7_19 C22_19 1_555 1_555
C23_19 C14_19 1_555 1_555
H8_19 C23_19 1_555 1_555
C24_19 C17_19 1_555 1_555
F9_13 C57_13 1_555 1_555
C49_13 O19_8 1_555 1_555
C50_13 C49_13 1_555 1_555
C51_13 C50_13 1_555 1_555
H17_13 C51_13 1_555 1_555
C52_13 C51_13 1_555 1_555
H18_13 C52_13 1_555 1_555
C53_13 C52_13 1_555 1_555
C54_13 C53_13 1_555 1_555
C55_13 C54_13 1_555 1_555
C56_13 C55_13 1_555 1_555
C57_13 C56_13 1_555 1_555
F10_13 C66_13 1_555 1_555
O24_8 C58_13 1_555 1_555
C58_13 C59_13 1_555 1_555
C59_13 C60_13 1_555 1_555
C60_13 H19_13 1_555 1_555
C61_13 C60_13 1_555 1_555
H20_13 C61_13 1_555 1_555
C62_13 C61_13 1_555 1_555
C63_13 C62_13 1_555 1_555
C64_13 C63_13 1_555 1_555
C65_13 C64_13 1_555 1_555
C66_13 C57_13 1_555 1_555
F11_13 C69_13 1_555 1_555
O23_9 C49_13 1_555 1_555
C67_13 C50_13 1_555 1_555
H21_13 C67_13 1_555 1_555
C68_13 C53_13 1_555 1_555
H22_13 C68_13 1_555 1_555
C69_13 C56_13 1_555 1_555
F12_13 C72_13 1_555 1_555
O19_7 C58_13 1_555 1_555
C70_13 C59_13 1_555 1_555
H23_13 C70_13 1_555 1_555
C71_13 C62_13 1_555 1_555
H24_13 C71_13 1_555 1_555
C72_13 C65_13 1_555 1_555
C17_19 C18_19 1_555 1_555
C19_19 C20_19 1_555 1_555
C21_19 C24_19 1_555 1_555
C22_19 C23_19 1_555 1_555
C65_13 C66_13 1_555 1_555
C67_13 C68_13 1_555 1_555
C69_13 C72_13 1_555 1_555
C70_13 C71_13 1_555 1_555
F1_20 C9_20 1_555 1_555
O17_9 C1_20 1_555 1_555
C1_20 C2_20 1_555 1_555
C2_20 C3_20 1_555 1_555
C3_20 H1_20 1_555 1_555
C4_20 C3_20 1_555 1_555
H2_20 C4_20 1_555 1_555
C5_20 C4_20 1_555 1_555
C6_20 C5_20 1_555 1_555
C7_20 C6_20 1_555 1_555
C8_20 C7_20 1_555 1_555
C9_20 C8_20 1_555 1_555
F2_20 C18_20 1_555 1_555
O23_12 C10_20 1_555 1_555
C10_20 C11_20 1_555 1_555
C11_20 C12_20 1_555 1_555
C12_20 H3_20 1_555 1_555
C13_20 C12_20 1_555 1_555
H4_20 C13_20 1_555 1_555
C14_20 C13_20 1_555 1_555
C15_20 C14_20 1_555 1_555
C16_20 C15_20 1_555 1_555
C17_20 C16_20 1_555 1_555
C18_20 C9_20 1_555 1_555
F3_20 C21_20 1_555 1_555
O24_6 C1_20 1_555 1_555
C19_20 C2_20 1_555 1_555
H5_20 C19_20 1_555 1_555
C20_20 C5_20 1_555 1_555
H6_20 C20_20 1_555 1_555
C21_20 C8_20 1_555 1_555
F4_20 C24_20 1_555 1_555
O19_6 C10_20 1_555 1_555
C22_20 C11_20 1_555 1_555
H7_20 C22_20 1_555 1_555
C23_20 C14_20 1_555 1_555
H8_20 C23_20 1_555 1_555
C24_20 C17_20 1_555 1_555
C17_20 C18_20 1_555 1_555
C19_20 C20_20 1_555 1_555
C21_20 C24_20 1_555 1_555
C22_20 C23_20 1_555 1_555
F5_13 C33_13 1_555 1_555
C25_13 O17_7 1_555 1_555
C26_13 C25_13 1_555 1_555
C27_13 C26_13 1_555 1_555
H9_13 C27_13 1_555 1_555
C28_13 C27_13 1_555 1_555
H10_13 C28_13 1_555 1_555
C29_13 C28_13 1_555 1_555
C30_13 C29_13 1_555 1_555
C31_13 C30_13 1_555 1_555
C32_13 C31_13 1_555 1_555
C33_13 C32_13 1_555 1_555
F6_13 C42_13 1_555 1_555
O24_5 C34_13 1_555 1_555
C34_13 C35_13 1_555 1_555
C35_13 C36_13 1_555 1_555
C36_13 H11_13 1_555 1_555
C37_13 C36_13 1_555 1_555
H12_13 C37_13 1_555 1_555
C38_13 C37_13 1_555 1_555
C39_13 C38_13 1_555 1_555
C40_13 C39_13 1_555 1_555
C41_13 C40_13 1_555 1_555
C42_13 C33_13 1_555 1_555
F7_13 C45_13 1_555 1_555
O24_4 C25_13 1_555 1_555
C43_13 C26_13 1_555 1_555
H13_13 C43_13 1_555 1_555
C44_13 C29_13 1_555 1_555
H14_13 C44_13 1_555 1_555
C45_13 C32_13 1_555 1_555
F8_13 C48_13 1_555 1_555
O17_8 C34_13 1_555 1_555
C46_13 C35_13 1_555 1_555
H15_13 C46_13 1_555 1_555
C47_13 C38_13 1_555 1_555
H16_13 C47_13 1_555 1_555
C48_13 C41_13 1_555 1_555
C41_13 C42_13 1_555 1_555
C43_13 C44_13 1_555 1_555
C45_13 C48_13 1_555 1_555
C46_13 C47_13 1_555 1_555
F5_14 C33_14 1_555 1_555
C25_14 O17_11 1_555 1_555
C26_14 C25_14 1_555 1_555
C27_14 C26_14 1_555 1_555
H9_14 C27_14 1_555 1_555
C28_14 C27_14 1_555 1_555
H10_14 C28_14 1_555 1_555
C29_14 C28_14 1_555 1_555
C30_14 C29_14 1_555 1_555
C31_14 C30_14 1_555 1_555
C32_14 C31_14 1_555 1_555
C33_14 C32_14 1_555 1_555
F6_14 C42_14 1_555 1_555
O23_11 C34_14 1_555 1_555
C34_14 C35_14 1_555 1_555
C35_14 C36_14 1_555 1_555
C36_14 H11_14 1_555 1_555
C37_14 C36_14 1_555 1_555
H12_14 C37_14 1_555 1_555
C38_14 C37_14 1_555 1_555
C39_14 C38_14 1_555 1_555
C40_14 C39_14 1_555 1_555
C41_14 C40_14 1_555 1_555
C42_14 C33_14 1_555 1_555
F7_14 C45_14 1_555 1_555
O24_9 C25_14 1_555 1_555
C43_14 C26_14 1_555 1_555
H13_14 C43_14 1_555 1_555
C44_14 C29_14 1_555 1_555
H14_14 C44_14 1_555 1_555
C45_14 C32_14 1_555 1_555
F8_14 C48_14 1_555 1_555
O19_9 C34_14 1_555 1_555
C46_14 C35_14 1_555 1_555
H15_14 C46_14 1_555 1_555
C47_14 C38_14 1_555 1_555
H16_14 C47_14 1_555 1_555
C48_14 C41_14 1_555 1_555
C41_14 C42_14 1_555 1_555
C43_14 C44_14 1_555 1_555
C45_14 C48_14 1_555 1_555
C46_14 C47_14 1_555 1_555
F9_14 C57_14 1_555 1_555
C49_14 O17_10 1_555 1_555
C50_14 C49_14 1_555 1_555
C51_14 C50_14 1_555 1_555
H17_14 C51_14 1_555 1_555
C52_14 C51_14 1_555 1_555
H18_14 C52_14 1_555 1_555
C53_14 C52_14 1_555 1_555
C54_14 C53_14 1_555 1_555
C55_14 C54_14 1_555 1_555
C56_14 C55_14 1_555 1_555
C57_14 C56_14 1_555 1_555
F10_14 C66_14 1_555 1_555
O23_13 C58_14 1_555 1_555
C58_14 C59_14 1_555 1_555
C59_14 C60_14 1_555 1_555
C60_14 H19_14 1_555 1_555
C61_14 C60_14 1_555 1_555
H20_14 C61_14 1_555 1_555
C62_14 C61_14 1_555 1_555
C63_14 C62_14 1_555 1_555
C64_14 C63_14 1_555 1_555
C65_14 C64_14 1_555 1_555
C66_14 C57_14 1_555 1_555
F11_14 C69_14 1_555 1_555
O23_10 C49_14 1_555 1_555
C67_14 C50_14 1_555 1_555
H21_14 C67_14 1_555 1_555
C68_14 C53_14 1_555 1_555
H22_14 C68_14 1_555 1_555
C69_14 C56_14 1_555 1_555
F12_14 C72_14 1_555 1_555
O19_11 C58_14 1_555 1_555
C70_14 C59_14 1_555 1_555
H23_14 C70_14 1_555 1_555
C71_14 C62_14 1_555 1_555
H24_14 C71_14 1_555 1_555
C72_14 C65_14 1_555 1_555
C65_14 C66_14 1_555 1_555
C67_14 C68_14 1_555 1_555
C69_14 C72_14 1_555 1_555
C70_14 C71_14 1_555 1_555

#END
