
###############################################################################
#
# This file contains modified crystal structure data generated from the
# MOF subset of the Cambridge Structural Database (CSD) v543 
# hosted by the Cambridge Crystallographic Data Centre (CCDC).
#
# This work is licensed under the Creative Commons
# Attribution-NonCommercial-ShareAlike 4.0 International License.
# To view a copy of this license, visit
# http://creativecommons.org/licenses/by-nc-sa/4.0/
# or send a letter to
# Creative Commons, PO Box 1866, Mountain View, CA 94042, USA.
#
# CIF created using the CSD Python API on 29 September 2022
# The structure has been converted into the P1 space group
# The structure has a 3D framework
# The original CSD entry GEDQIR is in the monoclinic crystal system
# The framework has been calculated to contain at least 10.0% void space
# The void calculation uses a probe of radius 1.32A, grid spacing 0.4
# H atom positions have been added when not included in the experimental data
#
###############################################################################

data_GEDQIR
_chemical_formula_moiety         '(C208 H184 N16 Nd8 O72)n'
_symmetry_cell_setting           triclinic
_symmetry_space_group_name_H-M   'P 1'
_symmetry_Int_Tables_number      1
_space_group_name_Hall           'P 1'
loop_
_symmetry_equiv_pos_site_id
_symmetry_equiv_pos_as_xyz
1 x,y,z
_cell_length_a                   28.2238(8)
_cell_length_b                   15.1581(5)
_cell_length_c                   13.5868(5)
_cell_angle_alpha                90
_cell_angle_beta                 100.014(3)
_cell_angle_gamma                90
_cell_volume                     5724.14
loop_
_atom_site_label
_atom_site_type_symbol
_atom_site_fract_x
_atom_site_fract_y
_atom_site_fract_z
Nd1 Nd 0.319489(9) 0.213217(18) 0.53874(2)
O1 O 0.38904(14) 0.1845(3) 0.4450(3)
O2 O 0.39102(15) 0.3079(3) 0.5309(4)
O3 O 0.79701(12) 0.5902(2) 0.4202(3)
O4 O 0.73336(12) 0.6672(3) 0.4380(3)
O5 O 0.69844(15) 0.2964(3) 0.1129(3)
O6 O 0.77147(13) 0.3607(3) 0.1466(3)
O7 O 0.35326(19) 0.2643(4) 0.7115(4)
O8 O 0.37040(16) 0.0922(3) 0.6274(4)
N1 N 0.59844(17) 0.4404(4) 0.3417(4)
N2 N 0.3519(6) 0.3386(12) 0.8674(11)
C1 C 0.4081(2) 0.2568(5) 0.4721(5)
C2 C 0.4523(2) 0.2856(4) 0.4323(5)
C3 C 0.4822(2) 0.2227(5) 0.3995(6)
H2 H 0.4735 0.1636 0.3969
C4 C 0.5247(3) 0.2487(5) 0.3711(6)
H3 H 0.5453 0.2067 0.3519
C5 C 0.5370(2) 0.3396(5) 0.3710(5)
C6 C 0.5065(2) 0.4003(5) 0.4008(6)
H4 H 0.5137 0.4600 0.3989
C7 C 0.4649(2) 0.3740(5) 0.4337(6)
H5 H 0.4454 0.4157 0.4568
C8 C 0.5835(2) 0.3614(5) 0.3435(5)
C9 C 0.75250(19) 0.5997(4) 0.4057(4)
C10 C 0.72119(18) 0.5303(4) 0.3502(4)
C11 C 0.67379(19) 0.5198(4) 0.3659(4)
H6 H 0.6614 0.5574 0.4090
C12 C 0.64548(19) 0.4533(4) 0.3170(4)
C13 C 0.6627(2) 0.4011(4) 0.2474(4)
H7 H 0.6427 0.3592 0.2115
C14 C 0.70990(19) 0.4111(4) 0.2308(4)
C15 C 0.73918(18) 0.4758(4) 0.2831(4)
H8 H 0.7707 0.4825 0.2731
C16 C 0.7281(2) 0.3527(4) 0.1572(4)
C17 C 0.3307(6) 0.2838(11) 0.7846(12)
C18 C 0.3103(10) 0.373(2) 0.918(2)
H9 H 0.3231 0.4116 0.9724
H10 H 0.2945 0.3243 0.9435
H11 H 0.2876 0.4048 0.8703
C19 C 0.4015(8) 0.3728(19) 0.870(2)
H12 H 0.4101 0.4107 0.9268
H13 H 0.4027 0.4054 0.8100
H14 H 0.4236 0.3244 0.8749
C20 C 0.3867(4) 0.0090(7) 0.5904(8)
H16 H 0.3892 0.0161 0.5207
H21 H 0.592(5) 0.321(8) 0.290(8)
H22 H 0.373(5) 0.071(9) 0.698(4)
Nd2 Nd 0.819489(9) 0.713217(18) 0.53874(2)
Nd3 Nd 0.680511(9) 0.786783(18) 0.46126(2)
Nd5 Nd 0.819489(9) 0.286783(18) 0.03874(2)
O10 O 0.29701(12) 0.0902(2) 0.4202(3)
O11 O 0.23336(12) 0.1672(3) 0.4380(3)
O12 O 0.26664(12) 0.3328(3) 0.5620(3)
O13 O 0.30156(15) 0.2964(3) 0.3871(3)
O14 O 0.27147(13) 0.1393(3) 0.6466(3)
H23 H 0.294608 0.257818 0.78309
Nd4 Nd 0.680511(9) 0.213217(18) 0.96126(2)
O1_2 O 0.61096(14) 0.1845(3) 0.0550(3)
O3_2 O 0.20299(12) 0.5902(2) 0.0798(3)
O4_2 O 0.26664(12) 0.6672(3) 0.0620(3)
O6_2 O 0.22853(13) 0.3607(3) 0.3534(3)
N1_2 N 0.40156(17) 0.4404(4) 0.1583(4)
C1_2 C 0.5919(2) 0.2568(5) 0.0279(5)
C2_2 C 0.5477(2) 0.2856(4) 0.0677(5)
C3_2 C 0.5178(2) 0.2227(5) 0.1005(6)
H2_2 H 0.5265 0.1636 0.1031
C4_2 C 0.4753(3) 0.2487(5) 0.1289(6)
H3_2 H 0.4547 0.2067 0.1481
C5_2 C 0.4630(2) 0.3396(5) 0.1290(5)
C6_2 C 0.4935(2) 0.4003(5) 0.0992(6)
H4_2 H 0.4863 0.4600 0.1011
C7_2 C 0.5351(2) 0.3740(5) 0.0663(6)
H5_2 H 0.5546 0.4157 0.0432
C8_2 C 0.4165(2) 0.3614(5) 0.1565(5)
C9_2 C 0.24750(19) 0.5997(4) 0.0943(4)
C10_2 C 0.27881(18) 0.5303(4) 0.1498(4)
C11_2 C 0.32621(19) 0.5198(4) 0.1341(4)
H6_2 H 0.3386 0.5574 0.0910
C12_2 C 0.35452(19) 0.4533(4) 0.1830(4)
C13_2 C 0.3373(2) 0.4011(4) 0.2526(4)
H7_2 H 0.3573 0.3592 0.2885
C14_2 C 0.29010(19) 0.4111(4) 0.2692(4)
C15_2 C 0.26082(18) 0.4758(4) 0.2169(4)
H8_2 H 0.2293 0.4825 0.2269
C16_2 C 0.2719(2) 0.3527(4) 0.3428(4)
H21_2 H 0.408(5) 0.321(8) 0.210(8)
Nd3_2 Nd 0.319489(9) 0.786783(18) 0.03874(2)
Nd5_2 Nd 0.180511(9) 0.286783(18) 0.46126(2)
O10_2 O 0.70299(12) 0.0902(2) 0.0798(3)
O11_2 O 0.76664(12) 0.1672(3) 0.0620(3)
O2_2 O 0.60898(15) 0.3079(3) 0.9691(4)
O7_2 O 0.64674(19) 0.2643(4) 0.7885(4)
O8_2 O 0.62960(16) 0.0922(3) 0.8726(4)
N2_2 N 0.6481(6) 0.3386(12) 0.6326(11)
C17_2 C 0.6693(6) 0.2838(11) 0.7154(12)
C18_2 C 0.6897(10) 0.373(2) 0.582(2)
H9_2 H 0.6769 0.4116 0.5276
H10_2 H 0.7055 0.3243 0.5565
H11_2 H 0.7124 0.4048 0.6297
C19_2 C 0.5985(8) 0.3728(19) 0.630(2)
H12_2 H 0.5899 0.4107 0.5732
H13_2 H 0.5973 0.4054 0.6900
H14_2 H 0.5764 0.3244 0.6251
C20_2 C 0.6133(4) 0.0090(7) 0.9096(8)
H16_2 H 0.6108 0.0161 0.9793
H22_2 H 0.627(5) 0.071(9) 0.802(4)
Nd2_2 Nd 0.180511(9) 0.713217(18) 0.96126(2)
O12_2 O 0.73336(12) 0.3328(3) 0.9380(3)
O14_2 O 0.72853(13) 0.1393(3) 0.8534(3)
H23_2 H 0.705392 0.257818 0.71691
C9_3 C 0.25250(19) 0.0997(4) 0.4057(4)
C10_3 C 0.22119(18) 0.0303(4) 0.3502(4)
C11_3 C 0.17379(19) 0.0198(4) 0.3659(4)
H6_3 H 0.1614 0.0574 0.4090
O5_2 O 0.19844(15) 0.7964(3) 0.1129(3)
O6_3 O 0.27147(13) 0.8607(3) 0.1466(3)
N1_3 N 0.09844(17) 0.9404(4) 0.3417(4)
C4_3 C 0.0247(3) 0.7487(5) 0.3711(6)
H3_3 H 0.0453 0.7067 0.3519
C5_3 C 0.0370(2) 0.8396(5) 0.3710(5)
C6_3 C 0.0065(2) 0.9003(5) 0.4008(6)
H4_3 H 0.0137 0.9600 0.3989
C8_3 C 0.0835(2) 0.8614(5) 0.3435(5)
C12_3 C 0.14548(19) 0.9533(4) 0.3170(4)
C13_3 C 0.1627(2) 0.9011(4) 0.2474(4)
H7_3 H 0.1427 0.8592 0.2115
C14_3 C 0.20990(19) 0.9111(4) 0.2308(4)
C15_3 C 0.23918(18) 0.9758(4) 0.2831(4)
H8_3 H 0.2707 0.9825 0.2731
C16_3 C 0.2281(2) 0.8527(4) 0.1572(4)
H21_3 H 0.092(5) 0.821(8) 0.290(8)
O1_3 O 0.88904(14) 0.6845(3) 0.4450(3)
O2_3 O 0.89102(15) 0.8079(3) 0.5309(4)
O7_3 O 0.85326(19) 0.7643(4) 0.7115(4)
O8_3 O 0.87040(16) 0.5922(3) 0.6274(4)
O9 O 0.8839(3) 0.4253(6) 0.7738(6)
H1 H 0.8798 0.3988 0.8242
N2_3 N 0.8519(6) 0.8386(12) 0.8674(11)
C1_3 C 0.9081(2) 0.7568(5) 0.4721(5)
C2_3 C 0.9523(2) 0.7856(4) 0.4323(5)
C3_3 C 0.9822(2) 0.7227(5) 0.3995(6)
H2_3 H 0.9735 0.6636 0.3969
C7_3 C 0.9649(2) 0.8740(5) 0.4337(6)
H5_3 H 0.9454 0.9157 0.4568
C17_3 C 0.8307(6) 0.7838(11) 0.7846(12)
C18_3 C 0.8103(10) 0.873(2) 0.918(2)
H9_3 H 0.8231 0.9116 0.9724
H10_3 H 0.7945 0.8243 0.9435
H11_3 H 0.7876 0.9048 0.8703
C19_3 C 0.9015(8) 0.8728(19) 0.870(2)
H12_3 H 0.9101 0.9107 0.9268
H13_3 H 0.9027 0.9054 0.8100
H14_3 H 0.9236 0.8244 0.8749
C20_3 C 0.8867(4) 0.5090(7) 0.5904(8)
H15 H 0.9185 0.4957 0.6269
H16_3 H 0.8892 0.5161 0.5207
C21 C 0.8539(4) 0.4319(6) 0.6000(8)
C22 C 0.8525(3) 0.3934(6) 0.6929(7)
C23 C 0.8229(4) 0.3274(6) 0.7009(8)
H17 H 0.8223 0.3024 0.7631
C24 C 0.7934(6) 0.2960(8) 0.6196(12)
H18 H 0.7726 0.2497 0.6251
C25 C 0.7949(7) 0.3339(12) 0.5285(16)
H19 H 0.7746 0.3131 0.4720
C26 C 0.8250(5) 0.4002(10) 0.5201(10)
H20 H 0.8258 0.4245 0.4576
H22_3 H 0.873(5) 0.571(9) 0.698(4)
O12_3 O 0.76664(12) 0.8328(3) 0.5620(3)
O13_2 O 0.80156(15) 0.7964(3) 0.3871(3)
O14_3 O 0.77147(13) 0.6393(3) 0.6466(3)
H23_3 H 0.794608 0.757818 0.78309
O1_4 O 0.11096(14) 0.6845(3) 0.0550(3)
C1_4 C 0.0919(2) 0.7568(5) 0.0279(5)
C2_4 C 0.0477(2) 0.7856(4) 0.0677(5)
C3_4 C 0.0178(2) 0.7227(5) 0.1005(6)
H2_4 H 0.0265 0.6636 0.1031
C7_4 C 0.0351(2) 0.8740(5) 0.0663(6)
H5_4 H 0.0546 0.9157 0.0432
H19_2 H 0.2254 0.3131 0.0280
H20_2 H 0.1742 0.4245 0.0424
O2_4 O 0.10898(15) 0.8079(3) 0.9691(4)
O7_4 O 0.14674(19) 0.7643(4) 0.7885(4)
O8_4 O 0.12960(16) 0.5922(3) 0.8726(4)
O9_2 O 0.1161(3) 0.4253(6) 0.7262(6)
H1_2 H 0.1202 0.3988 0.6758
N2_4 N 0.1481(6) 0.8386(12) 0.6326(11)
C17_4 C 0.1693(6) 0.7838(11) 0.7154(12)
C18_4 C 0.1897(10) 0.873(2) 0.582(2)
H9_4 H 0.1769 0.9116 0.5276
H10_4 H 0.2055 0.8243 0.5565
H11_4 H 0.2124 0.9048 0.6297
C19_4 C 0.0985(8) 0.8728(19) 0.630(2)
H12_4 H 0.0899 0.9107 0.5732
H13_4 H 0.0973 0.9054 0.6900
H14_4 H 0.0764 0.8244 0.6251
C20_4 C 0.1133(4) 0.5090(7) 0.9096(8)
H15_2 H 0.0815 0.4957 0.8731
H16_4 H 0.1108 0.5161 0.9793
C21_2 C 0.1461(4) 0.4319(6) 0.9000(8)
C22_2 C 0.1475(3) 0.3934(6) 0.8071(7)
C23_2 C 0.1771(4) 0.3274(6) 0.7991(8)
H17_2 H 0.1777 0.3024 0.7369
C24_2 C 0.2066(6) 0.2960(8) 0.8804(12)
H18_2 H 0.2274 0.2497 0.8749
C25_2 C 0.2051(7) 0.3339(12) 0.9715(16)
C26_2 C 0.1750(5) 0.4002(10) 0.9799(10)
H22_4 H 0.127(5) 0.571(9) 0.802(4)
O12_4 O 0.23336(12) 0.8328(3) 0.9380(3)
O14_4 O 0.22853(13) 0.6393(3) 0.8534(3)
H23_4 H 0.205392 0.757818 0.71691
C9_4 C 0.74750(19) 0.0997(4) 0.0943(4)
C10_4 C 0.77881(18) 0.0303(4) 0.1498(4)
C11_4 C 0.82621(19) 0.0198(4) 0.1341(4)
H6_4 H 0.8386 0.0574 0.0910
O6_4 O 0.72853(13) 0.8607(3) 0.3534(3)
N1_4 N 0.90156(17) 0.9404(4) 0.1583(4)
C4_4 C 0.9753(3) 0.7487(5) 0.1289(6)
H3_4 H 0.9547 0.7067 0.1481
C5_4 C 0.9630(2) 0.8396(5) 0.1290(5)
C6_4 C 0.9935(2) 0.9003(5) 0.0992(6)
H4_4 H 0.9863 0.9600 0.1011
C8_4 C 0.9165(2) 0.8614(5) 0.1565(5)
C12_4 C 0.85452(19) 0.9533(4) 0.1830(4)
C13_4 C 0.8373(2) 0.9011(4) 0.2526(4)
H7_4 H 0.8573 0.8592 0.2885
C14_4 C 0.79010(19) 0.9111(4) 0.2692(4)
C15_4 C 0.76082(18) 0.9758(4) 0.2169(4)
H8_4 H 0.7293 0.9825 0.2269
C16_4 C 0.7719(2) 0.8527(4) 0.3428(4)
H21_4 H 0.908(5) 0.821(8) 0.210(8)
O1_5 O 0.61096(14) 0.8155(3) 0.5550(3)
O2_5 O 0.60898(15) 0.6921(3) 0.4691(4)
O3_3 O 0.20299(12) 0.4098(2) 0.5798(3)
O5_3 O 0.30156(15) 0.7036(3) 0.8871(3)
O7_5 O 0.64674(19) 0.7357(4) 0.2885(4)
O8_5 O 0.62960(16) 0.9078(3) 0.3726(4)
N1_5 N 0.40156(17) 0.5596(4) 0.6583(4)
N2_5 N 0.6481(6) 0.6614(12) 0.1326(11)
C1_5 C 0.5919(2) 0.7432(5) 0.5279(5)
C2_5 C 0.5477(2) 0.7144(4) 0.5677(5)
C3_5 C 0.5178(2) 0.7773(5) 0.6005(6)
H2_5 H 0.5265 0.8364 0.6031
C4_5 C 0.4753(3) 0.7513(5) 0.6289(6)
H3_5 H 0.4547 0.7933 0.6481
C5_5 C 0.4630(2) 0.6604(5) 0.6290(5)
C6_5 C 0.4935(2) 0.5997(5) 0.5992(6)
H4_5 H 0.4863 0.5400 0.6011
C7_5 C 0.5351(2) 0.6260(5) 0.5663(6)
H5_5 H 0.5546 0.5843 0.5432
C8_5 C 0.4165(2) 0.6386(5) 0.6565(5)
C9_5 C 0.24750(19) 0.4003(4) 0.5943(4)
C10_5 C 0.27881(18) 0.4697(4) 0.6498(4)
C11_5 C 0.32621(19) 0.4802(4) 0.6341(4)
H6_5 H 0.3386 0.4426 0.5910
C12_5 C 0.35452(19) 0.5467(4) 0.6830(4)
C13_5 C 0.3373(2) 0.5989(4) 0.7526(4)
H7_5 H 0.3573 0.6408 0.7885
C14_5 C 0.29010(19) 0.5889(4) 0.7692(4)
C15_5 C 0.26082(18) 0.5242(4) 0.7169(4)
H8_5 H 0.2293 0.5175 0.7269
C16_5 C 0.2719(2) 0.6473(4) 0.8428(4)
C17_5 C 0.6693(6) 0.7162(11) 0.2154(12)
C18_5 C 0.6897(10) 0.627(2) 0.082(2)
H9_5 H 0.6769 0.5884 0.0276
H10_5 H 0.7055 0.6757 0.0565
H11_5 H 0.7124 0.5952 0.1297
C19_5 C 0.5985(8) 0.6272(19) 0.130(2)
H12_5 H 0.5899 0.5893 0.0732
H13_5 H 0.5973 0.5946 0.1900
H14_5 H 0.5764 0.6756 0.1251
C20_5 C 0.6133(4) 0.9910(7) 0.4096(8)
H16_5 H 0.6108 0.9839 0.4793
H21_5 H 0.408(5) 0.679(8) 0.710(8)
H22_5 H 0.627(5) 0.929(9) 0.302(4)
O10_3 O 0.70299(12) 0.9098(2) 0.5798(3)
O13_3 O 0.69844(15) 0.7036(3) 0.6129(3)
H23_5 H 0.705392 0.742182 0.21691
O2_6 O 0.39102(15) 0.6921(3) 0.0309(4)
O7_6 O 0.35326(19) 0.7357(4) 0.2115(4)
O8_6 O 0.37040(16) 0.9078(3) 0.1274(4)
N2_6 N 0.3519(6) 0.6614(12) 0.3674(11)
C17_6 C 0.3307(6) 0.7162(11) 0.2846(12)
C18_6 C 0.3103(10) 0.627(2) 0.418(2)
H9_6 H 0.3231 0.5884 0.4724
H10_6 H 0.2945 0.6757 0.4435
H11_6 H 0.2876 0.5952 0.3703
C19_6 C 0.4015(8) 0.6272(19) 0.370(2)
H12_6 H 0.4101 0.5893 0.4268
H13_6 H 0.4027 0.5946 0.3100
H14_6 H 0.4236 0.6756 0.3749
C20_6 C 0.3867(4) 0.9910(7) 0.0904(8)
H16_6 H 0.3892 0.9839 0.0207
H22_6 H 0.373(5) 0.929(9) 0.198(4)
H23_6 H 0.294608 0.742182 0.28309
O1_6 O 0.38904(14) 0.8155(3) 0.9450(3)
O3_4 O 0.79701(12) 0.4098(2) 0.9202(3)
N1_6 N 0.59844(17) 0.5596(4) 0.8417(4)
C1_6 C 0.4081(2) 0.7432(5) 0.9721(5)
C2_6 C 0.4523(2) 0.7144(4) 0.9323(5)
C3_6 C 0.4822(2) 0.7773(5) 0.8995(6)
H2_6 H 0.4735 0.8364 0.8969
C4_6 C 0.5247(3) 0.7513(5) 0.8711(6)
H3_6 H 0.5453 0.7933 0.8519
C5_6 C 0.5370(2) 0.6604(5) 0.8710(5)
C6_6 C 0.5065(2) 0.5997(5) 0.9008(6)
H4_6 H 0.5137 0.5400 0.8989
C7_6 C 0.4649(2) 0.6260(5) 0.9337(6)
H5_6 H 0.4454 0.5843 0.9568
C8_6 C 0.5835(2) 0.6386(5) 0.8435(5)
C9_6 C 0.75250(19) 0.4003(4) 0.9057(4)
C10_6 C 0.72119(18) 0.4697(4) 0.8502(4)
C11_6 C 0.67379(19) 0.4802(4) 0.8659(4)
H6_6 H 0.6614 0.4426 0.9090
C12_6 C 0.64548(19) 0.5467(4) 0.8170(4)
C13_6 C 0.6627(2) 0.5989(4) 0.7474(4)
H7_6 H 0.6427 0.6408 0.7115
C14_6 C 0.70990(19) 0.5889(4) 0.7308(4)
C15_6 C 0.73918(18) 0.5242(4) 0.7831(4)
H8_6 H 0.7707 0.5175 0.7731
C16_6 C 0.7281(2) 0.6473(4) 0.6572(4)
H21_6 H 0.592(5) 0.679(8) 0.790(8)
O10_4 O 0.29701(12) 0.9098(2) 0.9202(3)
O1_7 O 0.11096(14) 0.3155(3) 0.5550(3)
O2_7 O 0.10898(15) 0.1921(3) 0.4691(4)
O7_7 O 0.14674(19) 0.2357(4) 0.2885(4)
O8_7 O 0.12960(16) 0.4078(3) 0.3726(4)
O9_3 O 0.1161(3) 0.5747(6) 0.2262(6)
H1_3 H 0.1202 0.6012 0.1758
N2_7 N 0.1481(6) 0.1614(12) 0.1326(11)
C1_7 C 0.0919(2) 0.2432(5) 0.5279(5)
C2_7 C 0.0477(2) 0.2144(4) 0.5677(5)
C3_7 C 0.0178(2) 0.2773(5) 0.6005(6)
H2_7 H 0.0265 0.3364 0.6031
C7_7 C 0.0351(2) 0.1260(5) 0.5663(6)
H5_7 H 0.0546 0.0843 0.5432
C17_7 C 0.1693(6) 0.2162(11) 0.2154(12)
C18_7 C 0.1897(10) 0.127(2) 0.082(2)
H9_7 H 0.1769 0.0884 0.0276
H10_7 H 0.2055 0.1757 0.0565
H11_7 H 0.2124 0.0952 0.1297
C19_7 C 0.0985(8) 0.1272(19) 0.130(2)
H12_7 H 0.0899 0.0893 0.0732
H13_7 H 0.0973 0.0946 0.1900
H14_7 H 0.0764 0.1756 0.1251
C20_7 C 0.1133(4) 0.4910(7) 0.4096(8)
H15_3 H 0.0815 0.5043 0.3731
H16_7 H 0.1108 0.4839 0.4793
C21_3 C 0.1461(4) 0.5681(6) 0.4000(8)
C22_3 C 0.1475(3) 0.6066(6) 0.3071(7)
C23_3 C 0.1771(4) 0.6726(6) 0.2991(8)
H17_3 H 0.1777 0.6976 0.2369
C24_3 C 0.2066(6) 0.7040(8) 0.3804(12)
H18_3 H 0.2274 0.7503 0.3749
C25_3 C 0.2051(7) 0.6661(12) 0.4715(16)
H19_3 H 0.2254 0.6869 0.5280
C26_3 C 0.1750(5) 0.5998(10) 0.4799(10)
H20_3 H 0.1742 0.5755 0.5424
H22_7 H 0.127(5) 0.429(9) 0.302(4)
O13_4 O 0.19844(15) 0.2036(3) 0.6129(3)
H23_7 H 0.205392 0.242182 0.21691
O5_4 O 0.80156(15) 0.2036(3) 0.8871(3)
N1_7 N 0.90156(17) 0.0596(4) 0.6583(4)
C4_7 C 0.9753(3) 0.2513(5) 0.6289(6)
H3_7 H 0.9547 0.2933 0.6481
C5_7 C 0.9630(2) 0.1604(5) 0.6290(5)
C6_7 C 0.9935(2) 0.0997(5) 0.5992(6)
H4_7 H 0.9863 0.0400 0.6011
C8_7 C 0.9165(2) 0.1386(5) 0.6565(5)
C12_7 C 0.85452(19) 0.0467(4) 0.6830(4)
C13_7 C 0.8373(2) 0.0989(4) 0.7526(4)
H7_7 H 0.8573 0.1408 0.7885
C14_7 C 0.79010(19) 0.0889(4) 0.7692(4)
C15_7 C 0.76082(18) 0.0242(4) 0.7169(4)
H8_7 H 0.7293 0.0175 0.7269
C16_7 C 0.7719(2) 0.1473(4) 0.8428(4)
H21_7 H 0.908(5) 0.179(8) 0.710(8)
C9_7 C 0.74750(19) 0.9003(4) 0.5943(4)
C10_7 C 0.77881(18) 0.9697(4) 0.6498(4)
C11_7 C 0.82621(19) 0.9802(4) 0.6341(4)
H6_7 H 0.8386 0.9426 0.5910
N1_8 N 0.09844(17) 0.0596(4) 0.8417(4)
C4_8 C 0.0247(3) 0.2513(5) 0.8711(6)
H3_8 H 0.0453 0.2933 0.8519
C5_8 C 0.0370(2) 0.1604(5) 0.8710(5)
C6_8 C 0.0065(2) 0.0997(5) 0.9008(6)
H4_8 H 0.0137 0.0400 0.8989
C8_8 C 0.0835(2) 0.1386(5) 0.8435(5)
C12_8 C 0.14548(19) 0.0467(4) 0.8170(4)
C13_8 C 0.1627(2) 0.0989(4) 0.7474(4)
H7_8 H 0.1427 0.1408 0.7115
C14_8 C 0.20990(19) 0.0889(4) 0.7308(4)
C15_8 C 0.23918(18) 0.0242(4) 0.7831(4)
H8_8 H 0.2707 0.0175 0.7731
C16_8 C 0.2281(2) 0.1473(4) 0.6572(4)
H21_8 H 0.092(5) 0.179(8) 0.790(8)
C9_8 C 0.25250(19) 0.9003(4) 0.9057(4)
C10_8 C 0.22119(18) 0.9697(4) 0.8502(4)
C11_8 C 0.17379(19) 0.9802(4) 0.8659(4)
H6_8 H 0.1614 0.9426 0.9090
O2_8 O 0.89102(15) 0.1921(3) 0.0309(4)
O7_8 O 0.85326(19) 0.2357(4) 0.2115(4)
O8_8 O 0.87040(16) 0.4078(3) 0.1274(4)
O9_4 O 0.8839(3) 0.5747(6) 0.2738(6)
H1_4 H 0.8798 0.6012 0.3242
N2_8 N 0.8519(6) 0.1614(12) 0.3674(11)
C17_8 C 0.8307(6) 0.2162(11) 0.2846(12)
C18_8 C 0.8103(10) 0.127(2) 0.418(2)
H9_8 H 0.8231 0.0884 0.4724
H10_8 H 0.7945 0.1757 0.4435
H11_8 H 0.7876 0.0952 0.3703
C19_8 C 0.9015(8) 0.1272(19) 0.370(2)
H12_8 H 0.9101 0.0893 0.4268
H13_8 H 0.9027 0.0946 0.3100
H14_8 H 0.9236 0.1756 0.3749
C20_8 C 0.8867(4) 0.4910(7) 0.0904(8)
H15_4 H 0.9185 0.5043 0.1269
H16_8 H 0.8892 0.4839 0.0207
C21_4 C 0.8539(4) 0.5681(6) 0.1000(8)
C22_4 C 0.8525(3) 0.6066(6) 0.1929(7)
C23_4 C 0.8229(4) 0.6726(6) 0.2009(8)
H17_4 H 0.8223 0.6976 0.2631
C24_4 C 0.7934(6) 0.7040(8) 0.1196(12)
H18_4 H 0.7726 0.7503 0.1251
C25_4 C 0.7949(7) 0.6661(12) 0.0285(16)
C26_4 C 0.8250(5) 0.5998(10) 0.0201(10)
H22_8 H 0.873(5) 0.429(9) 0.198(4)
H23_8 H 0.794608 0.242182 0.28309
O1_8 O 0.88904(14) 0.3155(3) 0.9450(3)
C1_8 C 0.9081(2) 0.2432(5) 0.9721(5)
C2_8 C 0.9523(2) 0.2144(4) 0.9323(5)
C3_8 C 0.9822(2) 0.2773(5) 0.8995(6)
H2_8 H 0.9735 0.3364 0.8969
C7_8 C 0.9649(2) 0.1260(5) 0.9337(6)
H5_8 H 0.9454 0.0843 0.9568
H19_4 H 0.7746 0.6869 0.9720
H20_4 H 0.8258 0.5755 0.9576
O9_5 O 0.3839(3) 0.9253(6) 0.7738(6)
H1_5 H 0.3798 0.8988 0.8242
H15_5 H 0.4185 0.9957 0.6269
C21_5 C 0.3539(4) 0.9319(6) 0.6000(8)
C22_5 C 0.3525(3) 0.8934(6) 0.6929(7)
C23_5 C 0.3229(4) 0.8274(6) 0.7009(8)
H17_5 H 0.3223 0.8024 0.7631
C24_5 C 0.2934(6) 0.7960(8) 0.6196(12)
H18_5 H 0.2726 0.7497 0.6251
C25_5 C 0.2949(7) 0.8339(12) 0.5285(16)
H19_5 H 0.2746 0.8131 0.4720
C26_5 C 0.3250(5) 0.9002(10) 0.5201(10)
H20_5 H 0.3258 0.9245 0.4576
H19_6 H 0.7254 0.8131 0.0280
H20_6 H 0.6742 0.9245 0.0424
O9_6 O 0.6161(3) 0.9253(6) 0.7262(6)
H1_6 H 0.6202 0.8988 0.6758
H15_6 H 0.5815 0.9957 0.8731
C21_6 C 0.6461(4) 0.9319(6) 0.9000(8)
C22_6 C 0.6475(3) 0.8934(6) 0.8071(7)
C23_6 C 0.6771(4) 0.8274(6) 0.7991(8)
H17_6 H 0.6777 0.8024 0.7369
C24_6 C 0.7066(6) 0.7960(8) 0.8804(12)
H18_6 H 0.7274 0.7497 0.8749
C25_6 C 0.7051(7) 0.8339(12) 0.9715(16)
C26_6 C 0.6750(5) 0.9002(10) 0.9799(10)
O9_7 O 0.6161(3) 0.0747(6) 0.2262(6)
H1_7 H 0.6202 0.1012 0.1758
H15_7 H 0.5815 0.0043 0.3731
C21_7 C 0.6461(4) 0.0681(6) 0.4000(8)
C22_7 C 0.6475(3) 0.1066(6) 0.3071(7)
C23_7 C 0.6771(4) 0.1726(6) 0.2991(8)
H17_7 H 0.6777 0.1976 0.2369
C24_7 C 0.7066(6) 0.2040(8) 0.3804(12)
H18_7 H 0.7274 0.2503 0.3749
C25_7 C 0.7051(7) 0.1661(12) 0.4715(16)
H19_7 H 0.7254 0.1869 0.5280
C26_7 C 0.6750(5) 0.0998(10) 0.4799(10)
H20_7 H 0.6742 0.0755 0.5424
O9_8 O 0.3839(3) 0.0747(6) 0.2738(6)
H1_8 H 0.3798 0.1012 0.3242
H15_8 H 0.4185 0.0043 0.1269
C21_8 C 0.3539(4) 0.0681(6) 0.1000(8)
C22_8 C 0.3525(3) 0.1066(6) 0.1929(7)
C23_8 C 0.3229(4) 0.1726(6) 0.2009(8)
H17_8 H 0.3223 0.1976 0.2631
C24_8 C 0.2934(6) 0.2040(8) 0.1196(12)
H18_8 H 0.2726 0.2503 0.1251
C25_8 C 0.2949(7) 0.1661(12) 0.0285(16)
C26_8 C 0.3250(5) 0.0998(10) 0.0201(10)
H19_8 H 0.2746 0.1869 0.9720
H20_8 H 0.3258 0.0755 0.9576
loop_
_geom_bond_atom_site_label_1
_geom_bond_atom_site_label_2
_geom_bond_site_symmetry_1
_geom_bond_site_symmetry_2
Nd1 O1 1_555 1_555
O1 C1 1_555 1_555
O2 Nd1 1_555 1_555
O3 C9 1_555 1_555
O4 C9 1_555 1_555
O5 C16 1_555 1_555
O6 C16 1_555 1_555
O7 Nd1 1_555 1_555
O8 Nd1 1_555 1_555
N1 C8 1_555 1_555
N2 C17 1_555 1_555
C1 O2 1_555 1_555
C2 C1 1_555 1_555
C3 C2 1_555 1_555
H2 C3 1_555 1_555
C4 C3 1_555 1_555
H3 C4 1_555 1_555
C5 C4 1_555 1_555
C6 C5 1_555 1_555
H4 C6 1_555 1_555
C7 C2 1_555 1_555
H5 C7 1_555 1_555
C8 C5 1_555 1_555
C9 C10 1_555 1_555
C10 C11 1_555 1_555
C11 H6 1_555 1_555
C12 N1 1_555 1_555
C13 C12 1_555 1_555
H7 C13 1_555 1_555
C14 C13 1_555 1_555
C15 C10 1_555 1_555
H8 C15 1_555 1_555
C16 C14 1_555 1_555
C17 O7 1_555 1_555
C18 N2 1_555 1_555
H9 C18 1_555 1_555
H10 C18 1_555 1_555
H11 C18 1_555 1_555
C19 N2 1_555 1_555
H12 C19 1_555 1_555
H13 C19 1_555 1_555
H14 C19 1_555 1_555
C20 O8 1_555 1_555
H16 C20 1_555 1_555
H21 C8 1_555 1_555
H22 O8 1_555 1_555
Nd2 O3 1_555 1_555
Nd3 O4 1_555 1_555
Nd5 O6 1_555 1_555
O10 Nd1 1_555 1_555
O11 Nd1 1_555 1_555
O12 Nd1 1_555 1_555
O13 Nd1 1_555 1_555
O14 Nd1 1_555 1_555
O4 Nd2 1_555 1_555
C6 C7 1_555 1_555
C11 C12 1_555 1_555
C14 C15 1_555 1_555
C17 H23 1_555 1_555
O1_2 C1_2 1_555 1_555
O3_2 C9_2 1_555 1_555
O4_2 C9_2 1_555 1_555
O13 C16_2 1_555 1_555
O6_2 C16_2 1_555 1_555
N1_2 C8_2 1_555 1_555
C2_2 C1_2 1_555 1_555
C3_2 C2_2 1_555 1_555
H2_2 C3_2 1_555 1_555
C4_2 C3_2 1_555 1_555
H3_2 C4_2 1_555 1_555
C5_2 C4_2 1_555 1_555
C6_2 C5_2 1_555 1_555
H4_2 C6_2 1_555 1_555
C7_2 C2_2 1_555 1_555
H5_2 C7_2 1_555 1_555
C8_2 C5_2 1_555 1_555
C9_2 C10_2 1_555 1_555
C10_2 C11_2 1_555 1_555
C11_2 H6_2 1_555 1_555
C12_2 N1_2 1_555 1_555
C13_2 C12_2 1_555 1_555
H7_2 C13_2 1_555 1_555
C14_2 C13_2 1_555 1_555
C15_2 C10_2 1_555 1_555
H8_2 C15_2 1_555 1_555
C16_2 C14_2 1_555 1_555
H21_2 C8_2 1_555 1_555
Nd3_2 O4_2 1_555 1_555
Nd5_2 O6_2 1_555 1_555
C6_2 C7_2 1_555 1_555
C11_2 C12_2 1_555 1_555
C14_2 C15_2 1_555 1_555
O2_2 Nd4 1_555 1_555
O7_2 Nd4 1_555 1_555
O8_2 Nd4 1_555 1_555
N2_2 C17_2 1_555 1_555
C17_2 O7_2 1_555 1_555
C18_2 N2_2 1_555 1_555
H9_2 C18_2 1_555 1_555
H10_2 C18_2 1_555 1_555
H11_2 C18_2 1_555 1_555
C19_2 N2_2 1_555 1_555
H12_2 C19_2 1_555 1_555
H13_2 C19_2 1_555 1_555
H14_2 C19_2 1_555 1_555
C20_2 O8_2 1_555 1_555
H16_2 C20_2 1_555 1_555
H22_2 O8_2 1_555 1_555
O12_2 Nd4 1_555 1_555
O14_2 Nd4 1_555 1_555
C17_2 H23_2 1_555 1_555
O10 C9_3 1_555 1_555
O11 C9_3 1_555 1_555
C9_3 C10_3 1_555 1_555
C10_3 C11_3 1_555 1_555
C11_3 H6_3 1_555 1_555
Nd5_2 O11 1_555 1_555
O5_2 C16_3 1_555 1_555
O6_3 C16_3 1_555 1_555
N1_3 C8_3 1_555 1_555
H3_3 C4_3 1_555 1_555
C5_3 C4_3 1_555 1_555
C6_3 C5_3 1_555 1_555
H4_3 C6_3 1_555 1_555
C8_3 C5_3 1_555 1_555
C12_3 N1_3 1_555 1_555
C13_3 C12_3 1_555 1_555
H7_3 C13_3 1_555 1_555
C14_3 C13_3 1_555 1_555
H8_3 C15_3 1_555 1_555
C16_3 C14_3 1_555 1_555
H21_3 C8_3 1_555 1_555
Nd3_2 O6_3 1_555 1_555
C14_3 C15_3 1_555 1_555
Nd2 O1_3 1_555 1_555
O1_3 C1_3 1_555 1_555
O2_3 Nd2 1_555 1_555
O7_3 Nd2 1_555 1_555
O8_3 Nd2 1_555 1_555
O9 H1 1_555 1_555
N2_3 C17_3 1_555 1_555
C1_3 O2_3 1_555 1_555
C2_3 C1_3 1_555 1_555
C3_3 C2_3 1_555 1_555
H2_3 C3_3 1_555 1_555
C7_3 C2_3 1_555 1_555
H5_3 C7_3 1_555 1_555
C17_3 O7_3 1_555 1_555
C18_3 N2_3 1_555 1_555
H9_3 C18_3 1_555 1_555
H10_3 C18_3 1_555 1_555
H11_3 C18_3 1_555 1_555
C19_3 N2_3 1_555 1_555
H12_3 C19_3 1_555 1_555
H13_3 C19_3 1_555 1_555
H14_3 C19_3 1_555 1_555
C20_3 O8_3 1_555 1_555
H15 C20_3 1_555 1_555
H16_3 C20_3 1_555 1_555
C21 C20_3 1_555 1_555
C22 O9 1_555 1_555
C23 C22 1_555 1_555
H17 C23 1_555 1_555
C24 C23 1_555 1_555
H18 C24 1_555 1_555
C25 C24 1_555 1_555
H19 C25 1_555 1_555
C26 C21 1_555 1_555
H20 C26 1_555 1_555
H22_3 O8_3 1_555 1_555
O12_3 Nd2 1_555 1_555
O13_2 Nd2 1_555 1_555
O14_3 Nd2 1_555 1_555
C21 C22 1_555 1_555
C25 C26 1_555 1_555
C17_3 H23_3 1_555 1_555
O1_4 C1_4 1_555 1_555
C2_4 C1_4 1_555 1_555
C3_4 C2_4 1_555 1_555
H2_4 C3_4 1_555 1_555
C7_4 C2_4 1_555 1_555
H5_4 C7_4 1_555 1_555
O2_4 Nd2_2 1_555 1_555
O7_4 Nd2_2 1_555 1_555
O8_4 Nd2_2 1_555 1_555
O9_2 H1_2 1_555 1_555
N2_4 C17_4 1_555 1_555
C17_4 O7_4 1_555 1_555
C18_4 N2_4 1_555 1_555
H9_4 C18_4 1_555 1_555
H10_4 C18_4 1_555 1_555
H11_4 C18_4 1_555 1_555
C19_4 N2_4 1_555 1_555
H12_4 C19_4 1_555 1_555
H13_4 C19_4 1_555 1_555
H14_4 C19_4 1_555 1_555
C20_4 O8_4 1_555 1_555
H15_2 C20_4 1_555 1_555
H16_4 C20_4 1_555 1_555
C21_2 C20_4 1_555 1_555
C22_2 O9_2 1_555 1_555
C23_2 C22_2 1_555 1_555
H17_2 C23_2 1_555 1_555
C24_2 C23_2 1_555 1_555
H18_2 C24_2 1_555 1_555
C25_2 C24_2 1_555 1_555
C26_2 C21_2 1_555 1_555
H22_4 O8_4 1_555 1_555
O12_4 Nd2_2 1_555 1_555
O14_4 Nd2_2 1_555 1_555
C21_2 C22_2 1_555 1_555
C25_2 C26_2 1_555 1_555
C17_4 H23_4 1_555 1_555
O10_2 C9_4 1_555 1_555
O11_2 C9_4 1_555 1_555
C9_4 C10_4 1_555 1_555
C10_4 C11_4 1_555 1_555
C11_4 H6_4 1_555 1_555
Nd5 O11_2 1_555 1_555
O13_2 C16_4 1_555 1_555
O6_4 C16_4 1_555 1_555
N1_4 C8_4 1_555 1_555
H3_4 C4_4 1_555 1_555
C5_4 C4_4 1_555 1_555
C6_4 C5_4 1_555 1_555
H4_4 C6_4 1_555 1_555
C8_4 C5_4 1_555 1_555
C12_4 N1_4 1_555 1_555
C13_4 C12_4 1_555 1_555
H7_4 C13_4 1_555 1_555
C14_4 C13_4 1_555 1_555
H8_4 C15_4 1_555 1_555
C16_4 C14_4 1_555 1_555
H21_4 C8_4 1_555 1_555
Nd3 O6_4 1_555 1_555
C14_4 C15_4 1_555 1_555
Nd3 O1_5 1_555 1_555
O1_5 C1_5 1_555 1_555
O2_5 Nd3 1_555 1_555
O3_3 C9_5 1_555 1_555
O12 C9_5 1_555 1_555
O5_3 C16_5 1_555 1_555
O14_4 C16_5 1_555 1_555
O7_5 Nd3 1_555 1_555
O8_5 Nd3 1_555 1_555
N1_5 C8_5 1_555 1_555
N2_5 C17_5 1_555 1_555
C1_5 O2_5 1_555 1_555
C2_5 C1_5 1_555 1_555
C3_5 C2_5 1_555 1_555
H2_5 C3_5 1_555 1_555
C4_5 C3_5 1_555 1_555
H3_5 C4_5 1_555 1_555
C5_5 C4_5 1_555 1_555
C6_5 C5_5 1_555 1_555
H4_5 C6_5 1_555 1_555
C7_5 C2_5 1_555 1_555
H5_5 C7_5 1_555 1_555
C8_5 C5_5 1_555 1_555
C9_5 C10_5 1_555 1_555
C10_5 C11_5 1_555 1_555
C11_5 H6_5 1_555 1_555
C12_5 N1_5 1_555 1_555
C13_5 C12_5 1_555 1_555
H7_5 C13_5 1_555 1_555
C14_5 C13_5 1_555 1_555
C15_5 C10_5 1_555 1_555
H8_5 C15_5 1_555 1_555
C16_5 C14_5 1_555 1_555
C17_5 O7_5 1_555 1_555
C18_5 N2_5 1_555 1_555
H9_5 C18_5 1_555 1_555
H10_5 C18_5 1_555 1_555
H11_5 C18_5 1_555 1_555
C19_5 N2_5 1_555 1_555
H12_5 C19_5 1_555 1_555
H13_5 C19_5 1_555 1_555
H14_5 C19_5 1_555 1_555
C20_5 O8_5 1_555 1_555
H16_5 C20_5 1_555 1_555
H21_5 C8_5 1_555 1_555
H22_5 O8_5 1_555 1_555
Nd5_2 O3_3 1_555 1_555
O10_3 Nd3 1_555 1_555
O12_3 Nd3 1_555 1_555
O13_3 Nd3 1_555 1_555
O12 Nd5_2 1_555 1_555
C6_5 C7_5 1_555 1_555
C11_5 C12_5 1_555 1_555
C14_5 C15_5 1_555 1_555
C17_5 H23_5 1_555 1_555
O2_6 Nd3_2 1_555 1_555
O7_6 Nd3_2 1_555 1_555
O8_6 Nd3_2 1_555 1_555
N2_6 C17_6 1_555 1_555
C17_6 O7_6 1_555 1_555
C18_6 N2_6 1_555 1_555
H9_6 C18_6 1_555 1_555
H10_6 C18_6 1_555 1_555
H11_6 C18_6 1_555 1_555
C19_6 N2_6 1_555 1_555
H12_6 C19_6 1_555 1_555
H13_6 C19_6 1_555 1_555
H14_6 C19_6 1_555 1_555
C20_6 O8_6 1_555 1_555
H16_6 C20_6 1_555 1_555
H22_6 O8_6 1_555 1_555
C17_6 H23_6 1_555 1_555
O1_6 C1_6 1_555 1_555
O3_4 C9_6 1_555 1_555
O12_2 C9_6 1_555 1_555
O13_3 C16_6 1_555 1_555
O14_3 C16_6 1_555 1_555
N1_6 C8_6 1_555 1_555
C2_6 C1_6 1_555 1_555
C3_6 C2_6 1_555 1_555
H2_6 C3_6 1_555 1_555
C4_6 C3_6 1_555 1_555
H3_6 C4_6 1_555 1_555
C5_6 C4_6 1_555 1_555
C6_6 C5_6 1_555 1_555
H4_6 C6_6 1_555 1_555
C7_6 C2_6 1_555 1_555
H5_6 C7_6 1_555 1_555
C8_6 C5_6 1_555 1_555
C9_6 C10_6 1_555 1_555
C10_6 C11_6 1_555 1_555
C11_6 H6_6 1_555 1_555
C12_6 N1_6 1_555 1_555
C13_6 C12_6 1_555 1_555
H7_6 C13_6 1_555 1_555
C14_6 C13_6 1_555 1_555
C15_6 C10_6 1_555 1_555
H8_6 C15_6 1_555 1_555
C16_6 C14_6 1_555 1_555
H21_6 C8_6 1_555 1_555
C6_6 C7_6 1_555 1_555
C11_6 C12_6 1_555 1_555
C14_6 C15_6 1_555 1_555
Nd5_2 O1_7 1_555 1_555
O1_7 C1_7 1_555 1_555
O2_7 Nd5_2 1_555 1_555
O7_7 Nd5_2 1_555 1_555
O8_7 Nd5_2 1_555 1_555
O9_3 H1_3 1_555 1_555
N2_7 C17_7 1_555 1_555
C1_7 O2_7 1_555 1_555
C2_7 C1_7 1_555 1_555
C3_7 C2_7 1_555 1_555
H2_7 C3_7 1_555 1_555
C7_7 C2_7 1_555 1_555
H5_7 C7_7 1_555 1_555
C17_7 O7_7 1_555 1_555
C18_7 N2_7 1_555 1_555
H9_7 C18_7 1_555 1_555
H10_7 C18_7 1_555 1_555
H11_7 C18_7 1_555 1_555
C19_7 N2_7 1_555 1_555
H12_7 C19_7 1_555 1_555
H13_7 C19_7 1_555 1_555
H14_7 C19_7 1_555 1_555
C20_7 O8_7 1_555 1_555
H15_3 C20_7 1_555 1_555
H16_7 C20_7 1_555 1_555
C21_3 C20_7 1_555 1_555
C22_3 O9_3 1_555 1_555
C23_3 C22_3 1_555 1_555
H17_3 C23_3 1_555 1_555
C24_3 C23_3 1_555 1_555
H18_3 C24_3 1_555 1_555
C25_3 C24_3 1_555 1_555
H19_3 C25_3 1_555 1_555
C26_3 C21_3 1_555 1_555
H20_3 C26_3 1_555 1_555
H22_7 O8_7 1_555 1_555
O13_4 Nd5_2 1_555 1_555
C21_3 C22_3 1_555 1_555
C25_3 C26_3 1_555 1_555
C17_7 H23_7 1_555 1_555
O5_4 C16_7 1_555 1_555
O14_2 C16_7 1_555 1_555
N1_7 C8_7 1_555 1_555
H3_7 C4_7 1_555 1_555
C5_7 C4_7 1_555 1_555
C6_7 C5_7 1_555 1_555
H4_7 C6_7 1_555 1_555
C8_7 C5_7 1_555 1_555
C12_7 N1_7 1_555 1_555
C13_7 C12_7 1_555 1_555
H7_7 C13_7 1_555 1_555
C14_7 C13_7 1_555 1_555
H8_7 C15_7 1_555 1_555
C16_7 C14_7 1_555 1_555
H21_7 C8_7 1_555 1_555
C14_7 C15_7 1_555 1_555
O10_3 C9_7 1_555 1_555
O12_3 C9_7 1_555 1_555
C9_7 C10_7 1_555 1_555
C10_7 C11_7 1_555 1_555
C11_7 H6_7 1_555 1_555
O13_4 C16_8 1_555 1_555
O14 C16_8 1_555 1_555
N1_8 C8_8 1_555 1_555
H3_8 C4_8 1_555 1_555
C5_8 C4_8 1_555 1_555
C6_8 C5_8 1_555 1_555
H4_8 C6_8 1_555 1_555
C8_8 C5_8 1_555 1_555
C12_8 N1_8 1_555 1_555
C13_8 C12_8 1_555 1_555
H7_8 C13_8 1_555 1_555
C14_8 C13_8 1_555 1_555
H8_8 C15_8 1_555 1_555
C16_8 C14_8 1_555 1_555
H21_8 C8_8 1_555 1_555
C14_8 C15_8 1_555 1_555
O10_4 C9_8 1_555 1_555
O12_4 C9_8 1_555 1_555
C9_8 C10_8 1_555 1_555
C10_8 C11_8 1_555 1_555
C11_8 H6_8 1_555 1_555
O2_8 Nd5 1_555 1_555
O7_8 Nd5 1_555 1_555
O8_8 Nd5 1_555 1_555
O9_4 H1_4 1_555 1_555
N2_8 C17_8 1_555 1_555
C17_8 O7_8 1_555 1_555
C18_8 N2_8 1_555 1_555
H9_8 C18_8 1_555 1_555
H10_8 C18_8 1_555 1_555
H11_8 C18_8 1_555 1_555
C19_8 N2_8 1_555 1_555
H12_8 C19_8 1_555 1_555
H13_8 C19_8 1_555 1_555
H14_8 C19_8 1_555 1_555
C20_8 O8_8 1_555 1_555
H15_4 C20_8 1_555 1_555
H16_8 C20_8 1_555 1_555
C21_4 C20_8 1_555 1_555
C22_4 O9_4 1_555 1_555
C23_4 C22_4 1_555 1_555
H17_4 C23_4 1_555 1_555
C24_4 C23_4 1_555 1_555
H18_4 C24_4 1_555 1_555
C25_4 C24_4 1_555 1_555
C26_4 C21_4 1_555 1_555
H22_8 O8_8 1_555 1_555
C21_4 C22_4 1_555 1_555
C25_4 C26_4 1_555 1_555
C17_8 H23_8 1_555 1_555
O1_8 C1_8 1_555 1_555
C2_8 C1_8 1_555 1_555
C3_8 C2_8 1_555 1_555
H2_8 C3_8 1_555 1_555
C7_8 C2_8 1_555 1_555
H5_8 C7_8 1_555 1_555
O9_5 H1_5 1_555 1_555
C22_5 O9_5 1_555 1_555
C23_5 C22_5 1_555 1_555
H17_5 C23_5 1_555 1_555
C24_5 C23_5 1_555 1_555
H18_5 C24_5 1_555 1_555
C25_5 C24_5 1_555 1_555
H19_5 C25_5 1_555 1_555
C26_5 C21_5 1_555 1_555
H20_5 C26_5 1_555 1_555
C21_5 C22_5 1_555 1_555
C25_5 C26_5 1_555 1_555
O9_6 H1_6 1_555 1_555
C22_6 O9_6 1_555 1_555
C23_6 C22_6 1_555 1_555
H17_6 C23_6 1_555 1_555
C24_6 C23_6 1_555 1_555
H18_6 C24_6 1_555 1_555
C25_6 C24_6 1_555 1_555
C26_6 C21_6 1_555 1_555
C21_6 C22_6 1_555 1_555
C25_6 C26_6 1_555 1_555
O9_7 H1_7 1_555 1_555
C22_7 O9_7 1_555 1_555
C23_7 C22_7 1_555 1_555
H17_7 C23_7 1_555 1_555
C24_7 C23_7 1_555 1_555
H18_7 C24_7 1_555 1_555
C25_7 C24_7 1_555 1_555
H19_7 C25_7 1_555 1_555
C26_7 C21_7 1_555 1_555
H20_7 C26_7 1_555 1_555
C21_7 C22_7 1_555 1_555
C25_7 C26_7 1_555 1_555
O9_8 H1_8 1_555 1_555
C22_8 O9_8 1_555 1_555
C23_8 C22_8 1_555 1_555
H17_8 C23_8 1_555 1_555
C24_8 C23_8 1_555 1_555
H18_8 C24_8 1_555 1_555
C25_8 C24_8 1_555 1_555
C26_8 C21_8 1_555 1_555
C21_8 C22_8 1_555 1_555
C25_8 C26_8 1_555 1_555

#END
