
###############################################################################
#
# This file contains modified crystal structure data generated from the
# MOF subset of the Cambridge Structural Database (CSD) v543 
# hosted by the Cambridge Crystallographic Data Centre (CCDC).
#
# This work is licensed under the Creative Commons
# Attribution-NonCommercial-ShareAlike 4.0 International License.
# To view a copy of this license, visit
# http://creativecommons.org/licenses/by-nc-sa/4.0/
# or send a letter to
# Creative Commons, PO Box 1866, Mountain View, CA 94042, USA.
#
# CIF created using the CSD Python API on 29 September 2022
# The structure has been converted into the P1 space group
# The structure has a 3D framework
# The original CSD entry GEDRAK is in the monoclinic crystal system
# The framework has been calculated to contain at least 10.0% void space
# The void calculation uses a probe of radius 1.32A, grid spacing 0.4
#
###############################################################################

data_GEDRAK
_chemical_formula_moiety         '(C160 H144 N8 Nd8 O64)n'
_symmetry_cell_setting           triclinic
_symmetry_space_group_name_H-M   'P 1'
_symmetry_Int_Tables_number      1
_space_group_name_Hall           'P 1'
loop_
_symmetry_equiv_pos_site_id
_symmetry_equiv_pos_as_xyz
1 x,y,z
_cell_length_a                   28.6605(11)
_cell_length_b                   14.8265(9)
_cell_length_c                   12.6284(9)
_cell_angle_alpha                90
_cell_angle_beta                 103.357(5)
_cell_angle_gamma                90
_cell_volume                     5221.09
loop_
_atom_site_label
_atom_site_type_symbol
_atom_site_fract_x
_atom_site_fract_y
_atom_site_fract_z
Nd1 Nd 0.320095(11) 0.28497(2) 0.55718(3)
O1 O 0.38438(16) 0.1795(3) 0.5278(4)
O2 O 0.39270(18) 0.3220(4) 0.4850(5)
O5 O 0.77351(15) 0.1771(4) 0.1875(4)
O6 O 0.70131(16) 0.2418(3) 0.1339(4)
O7 O 0.3628(3) 0.2091(4) 0.7289(5)
O8 O 0.3656(2) 0.4067(5) 0.6769(6)
N1 N 0.59584(17) 0.0765(4) 0.3477(5)
C1 C 0.4056(2) 0.2405(5) 0.4894(6)
C2 C 0.4495(2) 0.2175(5) 0.4475(6)
C3 C 0.4781(3) 0.2852(5) 0.4208(8)
H1 H 0.4688 0.3452 0.4227
C4 C 0.5203(3) 0.2639(5) 0.3911(7)
H2 H 0.5397 0.3097 0.3751
C5 C 0.5339(2) 0.1746(5) 0.3852(5)
C6 C 0.5041(2) 0.1062(5) 0.4076(5)
H3 H 0.5123 0.0460 0.4015
C7 C 0.4620(2) 0.1284(5) 0.4393(5)
H4 H 0.4422 0.0830 0.4548
C8 C 0.5803(2) 0.1552(5) 0.3589(5)
C12 C 0.6431(2) 0.0695(5) 0.3306(5)
C13 C 0.6620(2) 0.1285(5) 0.2670(5)
H6 H 0.6429 0.1744 0.2299
C14 C 0.7092(2) 0.1206(4) 0.2574(5)
C15 C 0.7378(2) 0.0528(4) 0.3144(5)
H7 H 0.7699 0.0489 0.3114
C16 C 0.7292(2) 0.1849(5) 0.1884(5)
C17 C 0.3620(5) 0.2157(9) 0.8395(10)
H8 H 0.3451 0.2699 0.8519
H9 H 0.3945 0.2189 0.8838
C18 C 0.3373(6) 0.1350(11) 0.8696(14)
H10 H 0.3352 0.1398 0.9442
H11 H 0.3551 0.0818 0.8606
H12 H 0.3057 0.1311 0.8236
C19 C 0.3595(8) 0.4308(18) 0.7841(11)
H13 H 0.3604 0.3697 0.8119
H14 H 0.3255 0.4438 0.7618
C20 C 0.3676(6) 0.4767(12) 0.8928(11)
H15 H 0.3945 0.5169 0.9013
H16 H 0.3740 0.4322 0.9496
H17 H 0.3395 0.5104 0.8971
H18 H 0.599(3) 0.204(5) 0.361(7)
Nd5 Nd 0.820095(11) 0.21503(2) 0.05718(3)
O9 O 0.29546(15) 0.4277(3) 0.4586(4)
O10 O 0.23129(14) 0.3462(3) 0.4613(3)
O11 O 0.26871(14) 0.1538(3) 0.5387(3)
O12 O 0.27351(15) 0.3229(4) 0.6875(4)
O13 O 0.29869(16) 0.2418(3) 0.3661(4)
Nd2 Nd 0.679905(11) 0.28497(2) 0.94282(3)
O3 O 0.79546(15) 0.9277(3) 0.4586(4)
O4 O 0.73129(14) 0.8462(3) 0.4613(3)
C9 C 0.7508(2) 0.9168(4) 0.4356(5)
C10 C 0.7191(2) 0.9912(4) 0.3755(5)
C11 C 0.6712(2) 0.9990(4) 0.3840(5)
H5 H 0.6584 0.9576 0.4249
Nd3 Nd 0.820095(11) 0.78497(2) 0.55718(3)
Nd4 Nd 0.679905(11) 0.71503(2) 0.44282(3)
O2_2 O 0.60730(18) 0.3220(4) 0.0150(5)
O5_2 O 0.22649(15) 0.1771(4) 0.3125(4)
N1_2 N 0.40416(17) 0.0765(4) 0.1523(5)
C1_2 C 0.5944(2) 0.2405(5) 0.0106(6)
C2_2 C 0.5505(2) 0.2175(5) 0.0525(6)
C3_2 C 0.5219(3) 0.2852(5) 0.0792(8)
H1_2 H 0.5312 0.3452 0.0773
C4_2 C 0.4797(3) 0.2639(5) 0.1089(7)
H2_2 H 0.4603 0.3097 0.1249
C5_2 C 0.4661(2) 0.1746(5) 0.1148(5)
C6_2 C 0.4959(2) 0.1062(5) 0.0924(5)
H3_2 H 0.4877 0.0460 0.0985
C7_2 C 0.5380(2) 0.1284(5) 0.0607(5)
H4_2 H 0.5578 0.0830 0.0452
C8_2 C 0.4197(2) 0.1552(5) 0.1411(5)
C12_2 C 0.3569(2) 0.0695(5) 0.1694(5)
C13_2 C 0.3380(2) 0.1285(5) 0.2330(5)
H6_2 H 0.3571 0.1744 0.2701
C14_2 C 0.2908(2) 0.1206(4) 0.2426(5)
C15_2 C 0.2622(2) 0.0528(4) 0.1856(5)
H7_2 H 0.2301 0.0489 0.1886
C16_2 C 0.2708(2) 0.1849(5) 0.3116(5)
H18_2 H 0.401(3) 0.204(5) 0.139(7)
Nd5_2 Nd 0.179905(11) 0.21503(2) 0.44282(3)
O9_2 O 0.70454(15) 0.4277(3) 0.0414(4)
O10_2 O 0.76871(14) 0.3462(3) 0.0387(3)
O1_2 O 0.61562(16) 0.1795(3) 0.9722(4)
O7_2 O 0.6372(3) 0.2091(4) 0.7711(5)
O8_2 O 0.6344(2) 0.4067(5) 0.8231(6)
C17_2 C 0.6380(5) 0.2157(9) 0.6605(10)
H8_2 H 0.6549 0.2699 0.6481
H9_2 H 0.6055 0.2189 0.6162
C18_2 C 0.6627(6) 0.1350(11) 0.6304(14)
H10_2 H 0.6648 0.1398 0.5558
H11_2 H 0.6449 0.0818 0.6394
H12_2 H 0.6943 0.1311 0.6764
C19_2 C 0.6405(8) 0.4308(18) 0.7159(11)
H13_2 H 0.6396 0.3697 0.6881
H14_2 H 0.6745 0.4438 0.7382
C20_2 C 0.6324(6) 0.4767(12) 0.6072(11)
H15_2 H 0.6055 0.5169 0.5987
H16_2 H 0.6260 0.4322 0.5504
H17_2 H 0.6605 0.5104 0.6029
O11_2 O 0.73129(14) 0.1538(3) 0.9613(3)
O12_2 O 0.72649(15) 0.3229(4) 0.8125(4)
O3_2 O 0.20454(15) 0.9277(3) 0.0414(4)
O4_2 O 0.26871(14) 0.8462(3) 0.0387(3)
C9_2 C 0.2492(2) 0.9168(4) 0.0644(5)
C10_2 C 0.2809(2) 0.9912(4) 0.1245(5)
C11_2 C 0.3288(2) 0.9990(4) 0.1160(5)
H5_2 H 0.3416 0.9576 0.0751
Nd4_2 Nd 0.320095(11) 0.71503(2) 0.05718(3)
Nd3_2 Nd 0.179905(11) 0.78497(2) 0.94282(3)
O5_3 O 0.27351(15) 0.6771(4) 0.1875(4)
O6_2 O 0.20131(16) 0.7418(3) 0.1339(4)
N1_3 N 0.09584(17) 0.5765(4) 0.3477(5)
C4_3 C 0.0203(3) 0.7639(5) 0.3911(7)
H2_3 H 0.0397 0.8097 0.3751
C5_3 C 0.0339(2) 0.6746(5) 0.3852(5)
C6_3 C 0.0041(2) 0.6062(5) 0.4076(5)
H3_3 H 0.0123 0.5460 0.4015
C8_3 C 0.0803(2) 0.6552(5) 0.3589(5)
C9_3 C 0.2508(2) 0.4168(4) 0.4356(5)
C10_3 C 0.2191(2) 0.4912(4) 0.3755(5)
C11_3 C 0.1712(2) 0.4990(4) 0.3840(5)
H5_3 H 0.1584 0.4576 0.4249
C12_3 C 0.1431(2) 0.5695(5) 0.3306(5)
C13_3 C 0.1620(2) 0.6285(5) 0.2670(5)
H6_3 H 0.1429 0.6744 0.2299
C14_3 C 0.2092(2) 0.6206(4) 0.2574(5)
C15_3 C 0.2378(2) 0.5528(4) 0.3144(5)
H7_3 H 0.2699 0.5489 0.3114
C16_3 C 0.2292(2) 0.6849(5) 0.1884(5)
H18_3 H 0.099(3) 0.704(5) 0.361(7)
O1_3 O 0.88438(16) 0.6795(3) 0.5278(4)
O2_3 O 0.89270(18) 0.8220(4) 0.4850(5)
O7_3 O 0.8628(3) 0.7091(4) 0.7289(5)
O8_3 O 0.8656(2) 0.9067(5) 0.6769(6)
C1_3 C 0.9056(2) 0.7405(5) 0.4894(6)
C2_3 C 0.9495(2) 0.7175(5) 0.4475(6)
C3_3 C 0.9781(3) 0.7852(5) 0.4208(8)
H1_3 H 0.9688 0.8452 0.4227
C7_3 C 0.9620(2) 0.6284(5) 0.4393(5)
H4_3 H 0.9422 0.5830 0.4548
C17_3 C 0.8620(5) 0.7157(9) 0.8395(10)
H8_3 H 0.8451 0.7699 0.8519
H9_3 H 0.8945 0.7189 0.8838
C18_3 C 0.8373(6) 0.6350(11) 0.8696(14)
H10_3 H 0.8352 0.6398 0.9442
H11_3 H 0.8551 0.5818 0.8606
H12_3 H 0.8057 0.6311 0.8236
C19_3 C 0.8595(8) 0.9308(18) 0.7841(11)
H13_3 H 0.8604 0.8697 0.8119
H14_3 H 0.8255 0.9438 0.7618
C20_3 C 0.8676(6) 0.9767(12) 0.8928(11)
H16_3 H 0.8740 0.9322 0.9496
O11_3 O 0.76871(14) 0.6538(3) 0.5387(3)
O12_3 O 0.77351(15) 0.8229(4) 0.6875(4)
O13_2 O 0.79869(16) 0.7418(3) 0.3661(4)
O2_4 O 0.10730(18) 0.8220(4) 0.0150(5)
C1_4 C 0.0944(2) 0.7405(5) 0.0106(6)
C2_4 C 0.0505(2) 0.7175(5) 0.0525(6)
C3_4 C 0.0219(3) 0.7852(5) 0.0792(8)
H1_4 H 0.0312 0.8452 0.0773
C7_4 C 0.0380(2) 0.6284(5) 0.0607(5)
H4_4 H 0.0578 0.5830 0.0452
O1_4 O 0.11562(16) 0.6795(3) 0.9722(4)
O7_4 O 0.1372(3) 0.7091(4) 0.7711(5)
O8_4 O 0.1344(2) 0.9067(5) 0.8231(6)
C17_4 C 0.1380(5) 0.7157(9) 0.6605(10)
H8_4 H 0.1549 0.7699 0.6481
H9_4 H 0.1055 0.7189 0.6162
C18_4 C 0.1627(6) 0.6350(11) 0.6304(14)
H10_4 H 0.1648 0.6398 0.5558
H11_4 H 0.1449 0.5818 0.6394
H12_4 H 0.1943 0.6311 0.6764
C19_4 C 0.1405(8) 0.9308(18) 0.7159(11)
H13_4 H 0.1396 0.8697 0.6881
H14_4 H 0.1745 0.9438 0.7382
C20_4 C 0.1324(6) 0.9767(12) 0.6072(11)
H16_4 H 0.1260 0.9322 0.5504
O11_4 O 0.23129(14) 0.6538(3) 0.9613(3)
O12_4 O 0.22649(15) 0.8229(4) 0.8125(4)
O5_4 O 0.72649(15) 0.6771(4) 0.3125(4)
N1_4 N 0.90416(17) 0.5765(4) 0.1523(5)
C4_4 C 0.9797(3) 0.7639(5) 0.1089(7)
H2_4 H 0.9603 0.8097 0.1249
C5_4 C 0.9661(2) 0.6746(5) 0.1148(5)
C6_4 C 0.9959(2) 0.6062(5) 0.0924(5)
H3_4 H 0.9877 0.5460 0.0985
C8_4 C 0.9197(2) 0.6552(5) 0.1411(5)
C9_4 C 0.7492(2) 0.4168(4) 0.0644(5)
C10_4 C 0.7809(2) 0.4912(4) 0.1245(5)
C11_4 C 0.8288(2) 0.4990(4) 0.1160(5)
H5_4 H 0.8416 0.4576 0.0751
C12_4 C 0.8569(2) 0.5695(5) 0.1694(5)
C13_4 C 0.8380(2) 0.6285(5) 0.2330(5)
H6_4 H 0.8571 0.6744 0.2701
C14_4 C 0.7908(2) 0.6206(4) 0.2426(5)
C15_4 C 0.7622(2) 0.5528(4) 0.1856(5)
H7_4 H 0.7301 0.5489 0.1886
C16_4 C 0.7708(2) 0.6849(5) 0.3116(5)
H18_4 H 0.901(3) 0.704(5) 0.139(7)
O3_3 O 0.20454(15) 0.0723(3) 0.5414(4)
C9_5 C 0.2492(2) 0.0832(4) 0.5644(5)
C10_5 C 0.2809(2) 0.0088(4) 0.6245(5)
C11_5 C 0.3288(2) 0.0010(4) 0.6160(5)
H5_5 H 0.3416 0.0424 0.5751
O1_5 O 0.61562(16) 0.8205(3) 0.4722(4)
O2_5 O 0.60730(18) 0.6780(4) 0.5150(5)
O6_3 O 0.29869(16) 0.7582(3) 0.8661(4)
O7_5 O 0.6372(3) 0.7909(4) 0.2711(5)
O8_5 O 0.6344(2) 0.5933(5) 0.3231(6)
N1_5 N 0.40416(17) 0.9235(4) 0.6523(5)
C1_5 C 0.5944(2) 0.7595(5) 0.5106(6)
C2_5 C 0.5505(2) 0.7825(5) 0.5525(6)
C3_5 C 0.5219(3) 0.7148(5) 0.5792(8)
H1_5 H 0.5312 0.6548 0.5773
C4_5 C 0.4797(3) 0.7361(5) 0.6089(7)
H2_5 H 0.4603 0.6903 0.6249
C5_5 C 0.4661(2) 0.8254(5) 0.6148(5)
C6_5 C 0.4959(2) 0.8938(5) 0.5924(5)
H3_5 H 0.4877 0.9540 0.5985
C7_5 C 0.5380(2) 0.8716(5) 0.5607(5)
H4_5 H 0.5578 0.9170 0.5452
C8_5 C 0.4197(2) 0.8448(5) 0.6411(5)
C12_5 C 0.3569(2) 0.9305(5) 0.6694(5)
C13_5 C 0.3380(2) 0.8715(5) 0.7330(5)
H6_5 H 0.3571 0.8256 0.7701
C14_5 C 0.2908(2) 0.8794(4) 0.7426(5)
C15_5 C 0.2622(2) 0.9472(4) 0.6856(5)
H7_5 H 0.2301 0.9511 0.6886
C16_5 C 0.2708(2) 0.8151(5) 0.8116(5)
C17_5 C 0.6380(5) 0.7843(9) 0.1605(10)
H8_5 H 0.6549 0.7301 0.1481
H9_5 H 0.6055 0.7811 0.1162
C18_5 C 0.6627(6) 0.8650(11) 0.1304(14)
H10_5 H 0.6648 0.8602 0.0558
H11_5 H 0.6449 0.9182 0.1394
H12_5 H 0.6943 0.8689 0.1764
C19_5 C 0.6405(8) 0.5692(18) 0.2159(11)
H13_5 H 0.6396 0.6303 0.1881
H14_5 H 0.6745 0.5562 0.2382
C20_5 C 0.6324(6) 0.5233(12) 0.1072(11)
H15_3 H 0.6055 0.4831 0.0987
H16_5 H 0.6260 0.5678 0.0504
H17_3 H 0.6605 0.4896 0.1029
H18_5 H 0.401(3) 0.796(5) 0.639(7)
O9_3 O 0.70454(15) 0.5723(3) 0.5414(4)
O13_3 O 0.70131(16) 0.7582(3) 0.6339(4)
O3_4 O 0.79546(15) 0.0723(3) 0.9586(4)
C9_6 C 0.7508(2) 0.0832(4) 0.9356(5)
C10_6 C 0.7191(2) 0.0088(4) 0.8755(5)
C11_6 C 0.6712(2) 0.0010(4) 0.8840(5)
H5_6 H 0.6584 0.0424 0.9249
O1_6 O 0.38438(16) 0.8205(3) 0.0278(4)
O7_6 O 0.3628(3) 0.7909(4) 0.2289(5)
O8_6 O 0.3656(2) 0.5933(5) 0.1769(6)
C17_6 C 0.3620(5) 0.7843(9) 0.3395(10)
H8_6 H 0.3451 0.7301 0.3519
H9_6 H 0.3945 0.7811 0.3838
C18_6 C 0.3373(6) 0.8650(11) 0.3696(14)
H10_6 H 0.3352 0.8602 0.4442
H11_6 H 0.3551 0.9182 0.3606
H12_6 H 0.3057 0.8689 0.3236
C19_6 C 0.3595(8) 0.5692(18) 0.2841(11)
H13_6 H 0.3604 0.6303 0.3119
H14_6 H 0.3255 0.5562 0.2618
C20_6 C 0.3676(6) 0.5233(12) 0.3928(11)
H15_4 H 0.3945 0.4831 0.4013
H16_6 H 0.3740 0.5678 0.4496
H17_4 H 0.3395 0.4896 0.3971
O2_6 O 0.39270(18) 0.6780(4) 0.9850(5)
N1_6 N 0.59584(17) 0.9235(4) 0.8477(5)
C1_6 C 0.4056(2) 0.7595(5) 0.9894(6)
C2_6 C 0.4495(2) 0.7825(5) 0.9475(6)
C3_6 C 0.4781(3) 0.7148(5) 0.9208(8)
H1_6 H 0.4688 0.6548 0.9227
C4_6 C 0.5203(3) 0.7361(5) 0.8911(7)
H2_6 H 0.5397 0.6903 0.8751
C5_6 C 0.5339(2) 0.8254(5) 0.8852(5)
C6_6 C 0.5041(2) 0.8938(5) 0.9076(5)
H3_6 H 0.5123 0.9540 0.9015
C7_6 C 0.4620(2) 0.8716(5) 0.9393(5)
H4_6 H 0.4422 0.9170 0.9548
C8_6 C 0.5803(2) 0.8448(5) 0.8589(5)
C12_6 C 0.6431(2) 0.9305(5) 0.8306(5)
C13_6 C 0.6620(2) 0.8715(5) 0.7670(5)
H6_6 H 0.6429 0.8256 0.7299
C14_6 C 0.7092(2) 0.8794(4) 0.7574(5)
C15_6 C 0.7378(2) 0.9472(4) 0.8144(5)
H7_6 H 0.7699 0.9511 0.8114
C16_6 C 0.7292(2) 0.8151(5) 0.6884(5)
H18_6 H 0.599(3) 0.796(5) 0.861(7)
O9_4 O 0.29546(15) 0.5723(3) 0.9586(4)
O1_7 O 0.11562(16) 0.3205(3) 0.4722(4)
O2_7 O 0.10730(18) 0.1780(4) 0.5150(5)
O7_7 O 0.1372(3) 0.2909(4) 0.2711(5)
O8_7 O 0.1344(2) 0.0933(5) 0.3231(6)
C1_7 C 0.0944(2) 0.2595(5) 0.5106(6)
C2_7 C 0.0505(2) 0.2825(5) 0.5525(6)
C3_7 C 0.0219(3) 0.2148(5) 0.5792(8)
H1_7 H 0.0312 0.1548 0.5773
C7_7 C 0.0380(2) 0.3716(5) 0.5607(5)
H4_7 H 0.0578 0.4170 0.5452
C17_7 C 0.1380(5) 0.2843(9) 0.1605(10)
H8_7 H 0.1549 0.2301 0.1481
H9_7 H 0.1055 0.2811 0.1162
C18_7 C 0.1627(6) 0.3650(11) 0.1304(14)
H10_7 H 0.1648 0.3602 0.0558
H11_7 H 0.1449 0.4182 0.1394
H12_7 H 0.1943 0.3689 0.1764
C19_7 C 0.1405(8) 0.0692(18) 0.2159(11)
H13_7 H 0.1396 0.1303 0.1881
H14_7 H 0.1745 0.0562 0.2382
C20_7 C 0.1324(6) 0.0233(12) 0.1072(11)
H16_7 H 0.1260 0.0678 0.0504
O13_4 O 0.20131(16) 0.2582(3) 0.6339(4)
O6_4 O 0.79869(16) 0.2582(3) 0.8661(4)
N1_7 N 0.90416(17) 0.4235(4) 0.6523(5)
C4_7 C 0.9797(3) 0.2361(5) 0.6089(7)
H2_7 H 0.9603 0.1903 0.6249
C5_7 C 0.9661(2) 0.3254(5) 0.6148(5)
C6_7 C 0.9959(2) 0.3938(5) 0.5924(5)
H3_7 H 0.9877 0.4540 0.5985
C8_7 C 0.9197(2) 0.3448(5) 0.6411(5)
C9_7 C 0.7492(2) 0.5832(4) 0.5644(5)
C10_7 C 0.7809(2) 0.5088(4) 0.6245(5)
C11_7 C 0.8288(2) 0.5010(4) 0.6160(5)
H5_7 H 0.8416 0.5424 0.5751
C12_7 C 0.8569(2) 0.4305(5) 0.6694(5)
C13_7 C 0.8380(2) 0.3715(5) 0.7330(5)
H6_7 H 0.8571 0.3256 0.7701
C14_7 C 0.7908(2) 0.3794(4) 0.7426(5)
C15_7 C 0.7622(2) 0.4472(4) 0.6856(5)
H7_7 H 0.7301 0.4511 0.6886
C16_7 C 0.7708(2) 0.3151(5) 0.8116(5)
H18_7 H 0.901(3) 0.296(5) 0.639(7)
N1_8 N 0.09584(17) 0.4235(4) 0.8477(5)
C4_8 C 0.0203(3) 0.2361(5) 0.8911(7)
H2_8 H 0.0397 0.1903 0.8751
C5_8 C 0.0339(2) 0.3254(5) 0.8852(5)
C6_8 C 0.0041(2) 0.3938(5) 0.9076(5)
H3_8 H 0.0123 0.4540 0.9015
C8_8 C 0.0803(2) 0.3448(5) 0.8589(5)
C9_8 C 0.2508(2) 0.5832(4) 0.9356(5)
C10_8 C 0.2191(2) 0.5088(4) 0.8755(5)
C11_8 C 0.1712(2) 0.5010(4) 0.8840(5)
H5_8 H 0.1584 0.5424 0.9249
C12_8 C 0.1431(2) 0.4305(5) 0.8306(5)
C13_8 C 0.1620(2) 0.3715(5) 0.7670(5)
H6_8 H 0.1429 0.3256 0.7299
C14_8 C 0.2092(2) 0.3794(4) 0.7574(5)
C15_8 C 0.2378(2) 0.4472(4) 0.8144(5)
H7_8 H 0.2699 0.4511 0.8114
C16_8 C 0.2292(2) 0.3151(5) 0.6884(5)
H18_8 H 0.099(3) 0.296(5) 0.861(7)
O1_8 O 0.88438(16) 0.3205(3) 0.0278(4)
O7_8 O 0.8628(3) 0.2909(4) 0.2289(5)
O8_8 O 0.8656(2) 0.0933(5) 0.1769(6)
C17_8 C 0.8620(5) 0.2843(9) 0.3395(10)
H8_8 H 0.8451 0.2301 0.3519
H9_8 H 0.8945 0.2811 0.3838
C18_8 C 0.8373(6) 0.3650(11) 0.3696(14)
H10_8 H 0.8352 0.3602 0.4442
H11_8 H 0.8551 0.4182 0.3606
H12_8 H 0.8057 0.3689 0.3236
C19_8 C 0.8595(8) 0.0692(18) 0.2841(11)
H13_8 H 0.8604 0.1303 0.3119
H14_8 H 0.8255 0.0562 0.2618
C20_8 C 0.8676(6) 0.0233(12) 0.3928(11)
H16_8 H 0.8740 0.0678 0.4496
O2_8 O 0.89270(18) 0.1780(4) 0.9850(5)
C1_8 C 0.9056(2) 0.2595(5) 0.9894(6)
C2_8 C 0.9495(2) 0.2825(5) 0.9475(6)
C3_8 C 0.9781(3) 0.2148(5) 0.9208(8)
H1_8 H 0.9688 0.1548 0.9227
C7_8 C 0.9620(2) 0.3716(5) 0.9393(5)
H4_8 H 0.9422 0.4170 0.9548
H15_5 H 0.8945 0.0169 0.9013
H17_5 H 0.8395 0.0104 0.8971
H15_6 H 0.1055 0.0169 0.5987
H17_6 H 0.1605 0.0104 0.6029
H15_7 H 0.1055 0.9831 0.0987
H17_7 H 0.1605 0.9896 0.1029
H15_8 H 0.8945 0.9831 0.4013
H17_8 H 0.8395 0.9896 0.3971
loop_
_geom_bond_atom_site_label_1
_geom_bond_atom_site_label_2
_geom_bond_site_symmetry_1
_geom_bond_site_symmetry_2
Nd1 O1 1_555 1_555
O1 C1 1_555 1_555
O2 Nd1 1_555 1_555
O5 C16 1_555 1_555
O6 C16 1_555 1_555
O7 Nd1 1_555 1_555
O8 Nd1 1_555 1_555
N1 C8 1_555 1_555
C1 O2 1_555 1_555
C2 C1 1_555 1_555
C3 C2 1_555 1_555
H1 C3 1_555 1_555
C4 C3 1_555 1_555
H2 C4 1_555 1_555
C5 C4 1_555 1_555
C6 C5 1_555 1_555
H3 C6 1_555 1_555
C7 C2 1_555 1_555
H4 C7 1_555 1_555
C8 C5 1_555 1_555
C12 N1 1_555 1_555
C13 C12 1_555 1_555
H6 C13 1_555 1_555
C14 C13 1_555 1_555
H7 C15 1_555 1_555
C16 C14 1_555 1_555
C17 O7 1_555 1_555
H8 C17 1_555 1_555
H9 C17 1_555 1_555
C18 C17 1_555 1_555
H10 C18 1_555 1_555
H11 C18 1_555 1_555
H12 C18 1_555 1_555
C19 O8 1_555 1_555
H13 C19 1_555 1_555
H14 C19 1_555 1_555
C20 C19 1_555 1_555
H15 C20 1_555 1_555
H16 C20 1_555 1_555
H17 C20 1_555 1_555
H18 C8 1_555 1_555
Nd5 O5 1_555 1_555
O9 Nd1 1_555 1_555
O10 Nd1 1_555 1_555
O11 Nd1 1_555 1_555
O12 Nd1 1_555 1_555
O13 Nd1 1_555 1_555
C6 C7 1_555 1_555
C14 C15 1_555 1_555
O3 C9 1_555 1_555
O4 C9 1_555 1_555
C9 C10 1_555 1_555
C10 C11 1_555 1_555
C11 H5 1_555 1_555
Nd3 O3 1_555 1_555
Nd4 O4 1_555 1_555
O4 Nd3 1_555 1_555
O5_2 C16_2 1_555 1_555
O13 C16_2 1_555 1_555
N1_2 C8_2 1_555 1_555
C1_2 O2_2 1_555 1_555
C2_2 C1_2 1_555 1_555
C3_2 C2_2 1_555 1_555
H1_2 C3_2 1_555 1_555
C4_2 C3_2 1_555 1_555
H2_2 C4_2 1_555 1_555
C5_2 C4_2 1_555 1_555
C6_2 C5_2 1_555 1_555
H3_2 C6_2 1_555 1_555
C7_2 C2_2 1_555 1_555
H4_2 C7_2 1_555 1_555
C8_2 C5_2 1_555 1_555
C12_2 N1_2 1_555 1_555
C13_2 C12_2 1_555 1_555
H6_2 C13_2 1_555 1_555
C14_2 C13_2 1_555 1_555
H7_2 C15_2 1_555 1_555
C16_2 C14_2 1_555 1_555
H18_2 C8_2 1_555 1_555
Nd5_2 O5_2 1_555 1_555
C6_2 C7_2 1_555 1_555
C14_2 C15_2 1_555 1_555
Nd2 O1_2 1_555 1_555
O7_2 Nd2 1_555 1_555
O8_2 Nd2 1_555 1_555
C17_2 O7_2 1_555 1_555
H8_2 C17_2 1_555 1_555
H9_2 C17_2 1_555 1_555
C18_2 C17_2 1_555 1_555
H10_2 C18_2 1_555 1_555
H11_2 C18_2 1_555 1_555
H12_2 C18_2 1_555 1_555
C19_2 O8_2 1_555 1_555
H13_2 C19_2 1_555 1_555
H14_2 C19_2 1_555 1_555
C20_2 C19_2 1_555 1_555
H15_2 C20_2 1_555 1_555
H16_2 C20_2 1_555 1_555
H17_2 C20_2 1_555 1_555
O11_2 Nd2 1_555 1_555
O12_2 Nd2 1_555 1_555
O3_2 C9_2 1_555 1_555
O4_2 C9_2 1_555 1_555
C9_2 C10_2 1_555 1_555
C10_2 C11_2 1_555 1_555
C11_2 H5_2 1_555 1_555
Nd4_2 O4_2 1_555 1_555
O9 C9_3 1_555 1_555
O10 C9_3 1_555 1_555
O5_3 C16_3 1_555 1_555
O6_2 C16_3 1_555 1_555
N1_3 C8_3 1_555 1_555
H2_3 C4_3 1_555 1_555
C5_3 C4_3 1_555 1_555
C6_3 C5_3 1_555 1_555
H3_3 C6_3 1_555 1_555
C8_3 C5_3 1_555 1_555
C9_3 C10_3 1_555 1_555
C10_3 C11_3 1_555 1_555
C11_3 H5_3 1_555 1_555
C12_3 N1_3 1_555 1_555
C13_3 C12_3 1_555 1_555
H6_3 C13_3 1_555 1_555
C14_3 C13_3 1_555 1_555
C15_3 C10_3 1_555 1_555
H7_3 C15_3 1_555 1_555
C16_3 C14_3 1_555 1_555
H18_3 C8_3 1_555 1_555
Nd5_2 O10 1_555 1_555
Nd4_2 O5_3 1_555 1_555
C11_3 C12_3 1_555 1_555
C14_3 C15_3 1_555 1_555
Nd3 O1_3 1_555 1_555
O1_3 C1_3 1_555 1_555
O2_3 Nd3 1_555 1_555
O7_3 Nd3 1_555 1_555
O8_3 Nd3 1_555 1_555
C1_3 O2_3 1_555 1_555
C2_3 C1_3 1_555 1_555
C3_3 C2_3 1_555 1_555
H1_3 C3_3 1_555 1_555
C7_3 C2_3 1_555 1_555
H4_3 C7_3 1_555 1_555
C17_3 O7_3 1_555 1_555
H8_3 C17_3 1_555 1_555
H9_3 C17_3 1_555 1_555
C18_3 C17_3 1_555 1_555
H10_3 C18_3 1_555 1_555
H11_3 C18_3 1_555 1_555
H12_3 C18_3 1_555 1_555
C19_3 O8_3 1_555 1_555
H13_3 C19_3 1_555 1_555
H14_3 C19_3 1_555 1_555
C20_3 C19_3 1_555 1_555
H16_3 C20_3 1_555 1_555
O11_3 Nd3 1_555 1_555
O12_3 Nd3 1_555 1_555
O13_2 Nd3 1_555 1_555
C1_4 O2_4 1_555 1_555
C2_4 C1_4 1_555 1_555
C3_4 C2_4 1_555 1_555
H1_4 C3_4 1_555 1_555
C7_4 C2_4 1_555 1_555
H4_4 C7_4 1_555 1_555
Nd3_2 O1_4 1_555 1_555
O7_4 Nd3_2 1_555 1_555
O8_4 Nd3_2 1_555 1_555
C17_4 O7_4 1_555 1_555
H8_4 C17_4 1_555 1_555
H9_4 C17_4 1_555 1_555
C18_4 C17_4 1_555 1_555
H10_4 C18_4 1_555 1_555
H11_4 C18_4 1_555 1_555
H12_4 C18_4 1_555 1_555
C19_4 O8_4 1_555 1_555
H13_4 C19_4 1_555 1_555
H14_4 C19_4 1_555 1_555
C20_4 C19_4 1_555 1_555
H16_4 C20_4 1_555 1_555
O11_4 Nd3_2 1_555 1_555
O12_4 Nd3_2 1_555 1_555
O9_2 C9_4 1_555 1_555
O10_2 C9_4 1_555 1_555
O5_4 C16_4 1_555 1_555
O13_2 C16_4 1_555 1_555
N1_4 C8_4 1_555 1_555
H2_4 C4_4 1_555 1_555
C5_4 C4_4 1_555 1_555
C6_4 C5_4 1_555 1_555
H3_4 C6_4 1_555 1_555
C8_4 C5_4 1_555 1_555
C9_4 C10_4 1_555 1_555
C10_4 C11_4 1_555 1_555
C11_4 H5_4 1_555 1_555
C12_4 N1_4 1_555 1_555
C13_4 C12_4 1_555 1_555
H6_4 C13_4 1_555 1_555
C14_4 C13_4 1_555 1_555
C15_4 C10_4 1_555 1_555
H7_4 C15_4 1_555 1_555
C16_4 C14_4 1_555 1_555
H18_4 C8_4 1_555 1_555
Nd5 O10_2 1_555 1_555
Nd4 O5_4 1_555 1_555
C11_4 C12_4 1_555 1_555
C14_4 C15_4 1_555 1_555
O3_3 C9_5 1_555 1_555
O11 C9_5 1_555 1_555
C9_5 C10_5 1_555 1_555
C10_5 C11_5 1_555 1_555
C11_5 H5_5 1_555 1_555
Nd5_2 O3_3 1_555 1_555
O11 Nd5_2 1_555 1_555
Nd4 O1_5 1_555 1_555
O1_5 C1_5 1_555 1_555
O2_5 Nd4 1_555 1_555
O12_4 C16_5 1_555 1_555
O6_3 C16_5 1_555 1_555
O7_5 Nd4 1_555 1_555
O8_5 Nd4 1_555 1_555
N1_5 C8_5 1_555 1_555
C1_5 O2_5 1_555 1_555
C2_5 C1_5 1_555 1_555
C3_5 C2_5 1_555 1_555
H1_5 C3_5 1_555 1_555
C4_5 C3_5 1_555 1_555
H2_5 C4_5 1_555 1_555
C5_5 C4_5 1_555 1_555
C6_5 C5_5 1_555 1_555
H3_5 C6_5 1_555 1_555
C7_5 C2_5 1_555 1_555
H4_5 C7_5 1_555 1_555
C8_5 C5_5 1_555 1_555
C12_5 N1_5 1_555 1_555
C13_5 C12_5 1_555 1_555
H6_5 C13_5 1_555 1_555
C14_5 C13_5 1_555 1_555
H7_5 C15_5 1_555 1_555
C16_5 C14_5 1_555 1_555
C17_5 O7_5 1_555 1_555
H8_5 C17_5 1_555 1_555
H9_5 C17_5 1_555 1_555
C18_5 C17_5 1_555 1_555
H10_5 C18_5 1_555 1_555
H11_5 C18_5 1_555 1_555
H12_5 C18_5 1_555 1_555
C19_5 O8_5 1_555 1_555
H13_5 C19_5 1_555 1_555
H14_5 C19_5 1_555 1_555
C20_5 C19_5 1_555 1_555
H15_3 C20_5 1_555 1_555
H16_5 C20_5 1_555 1_555
H17_3 C20_5 1_555 1_555
H18_5 C8_5 1_555 1_555
O9_3 Nd4 1_555 1_555
O11_3 Nd4 1_555 1_555
O13_3 Nd4 1_555 1_555
C6_5 C7_5 1_555 1_555
C14_5 C15_5 1_555 1_555
O3_4 C9_6 1_555 1_555
O11_2 C9_6 1_555 1_555
C9_6 C10_6 1_555 1_555
C10_6 C11_6 1_555 1_555
C11_6 H5_6 1_555 1_555
Nd4_2 O1_6 1_555 1_555
O7_6 Nd4_2 1_555 1_555
O8_6 Nd4_2 1_555 1_555
C17_6 O7_6 1_555 1_555
H8_6 C17_6 1_555 1_555
H9_6 C17_6 1_555 1_555
C18_6 C17_6 1_555 1_555
H10_6 C18_6 1_555 1_555
H11_6 C18_6 1_555 1_555
H12_6 C18_6 1_555 1_555
C19_6 O8_6 1_555 1_555
H13_6 C19_6 1_555 1_555
H14_6 C19_6 1_555 1_555
C20_6 C19_6 1_555 1_555
H15_4 C20_6 1_555 1_555
H16_6 C20_6 1_555 1_555
H17_4 C20_6 1_555 1_555
O12_3 C16_6 1_555 1_555
O13_3 C16_6 1_555 1_555
N1_6 C8_6 1_555 1_555
C1_6 O2_6 1_555 1_555
C2_6 C1_6 1_555 1_555
C3_6 C2_6 1_555 1_555
H1_6 C3_6 1_555 1_555
C4_6 C3_6 1_555 1_555
H2_6 C4_6 1_555 1_555
C5_6 C4_6 1_555 1_555
C6_6 C5_6 1_555 1_555
H3_6 C6_6 1_555 1_555
C7_6 C2_6 1_555 1_555
H4_6 C7_6 1_555 1_555
C8_6 C5_6 1_555 1_555
C12_6 N1_6 1_555 1_555
C13_6 C12_6 1_555 1_555
H6_6 C13_6 1_555 1_555
C14_6 C13_6 1_555 1_555
H7_6 C15_6 1_555 1_555
C16_6 C14_6 1_555 1_555
H18_6 C8_6 1_555 1_555
C6_6 C7_6 1_555 1_555
C14_6 C15_6 1_555 1_555
Nd5_2 O1_7 1_555 1_555
O1_7 C1_7 1_555 1_555
O2_7 Nd5_2 1_555 1_555
O7_7 Nd5_2 1_555 1_555
O8_7 Nd5_2 1_555 1_555
C1_7 O2_7 1_555 1_555
C2_7 C1_7 1_555 1_555
C3_7 C2_7 1_555 1_555
H1_7 C3_7 1_555 1_555
C7_7 C2_7 1_555 1_555
H4_7 C7_7 1_555 1_555
C17_7 O7_7 1_555 1_555
H8_7 C17_7 1_555 1_555
H9_7 C17_7 1_555 1_555
C18_7 C17_7 1_555 1_555
H10_7 C18_7 1_555 1_555
H11_7 C18_7 1_555 1_555
H12_7 C18_7 1_555 1_555
C19_7 O8_7 1_555 1_555
H13_7 C19_7 1_555 1_555
H14_7 C19_7 1_555 1_555
C20_7 C19_7 1_555 1_555
H16_7 C20_7 1_555 1_555
O13_4 Nd5_2 1_555 1_555
O9_3 C9_7 1_555 1_555
O11_3 C9_7 1_555 1_555
O12_2 C16_7 1_555 1_555
O6_4 C16_7 1_555 1_555
N1_7 C8_7 1_555 1_555
H2_7 C4_7 1_555 1_555
C5_7 C4_7 1_555 1_555
C6_7 C5_7 1_555 1_555
H3_7 C6_7 1_555 1_555
C8_7 C5_7 1_555 1_555
C9_7 C10_7 1_555 1_555
C10_7 C11_7 1_555 1_555
C11_7 H5_7 1_555 1_555
C12_7 N1_7 1_555 1_555
C13_7 C12_7 1_555 1_555
H6_7 C13_7 1_555 1_555
C14_7 C13_7 1_555 1_555
C15_7 C10_7 1_555 1_555
H7_7 C15_7 1_555 1_555
C16_7 C14_7 1_555 1_555
H18_7 C8_7 1_555 1_555
C11_7 C12_7 1_555 1_555
C14_7 C15_7 1_555 1_555
O9_4 C9_8 1_555 1_555
O11_4 C9_8 1_555 1_555
O12 C16_8 1_555 1_555
O13_4 C16_8 1_555 1_555
N1_8 C8_8 1_555 1_555
H2_8 C4_8 1_555 1_555
C5_8 C4_8 1_555 1_555
C6_8 C5_8 1_555 1_555
H3_8 C6_8 1_555 1_555
C8_8 C5_8 1_555 1_555
C9_8 C10_8 1_555 1_555
C10_8 C11_8 1_555 1_555
C11_8 H5_8 1_555 1_555
C12_8 N1_8 1_555 1_555
C13_8 C12_8 1_555 1_555
H6_8 C13_8 1_555 1_555
C14_8 C13_8 1_555 1_555
C15_8 C10_8 1_555 1_555
H7_8 C15_8 1_555 1_555
C16_8 C14_8 1_555 1_555
H18_8 C8_8 1_555 1_555
C11_8 C12_8 1_555 1_555
C14_8 C15_8 1_555 1_555
Nd5 O1_8 1_555 1_555
O7_8 Nd5 1_555 1_555
O8_8 Nd5 1_555 1_555
C17_8 O7_8 1_555 1_555
H8_8 C17_8 1_555 1_555
H9_8 C17_8 1_555 1_555
C18_8 C17_8 1_555 1_555
H10_8 C18_8 1_555 1_555
H11_8 C18_8 1_555 1_555
H12_8 C18_8 1_555 1_555
C19_8 O8_8 1_555 1_555
H13_8 C19_8 1_555 1_555
H14_8 C19_8 1_555 1_555
C20_8 C19_8 1_555 1_555
H16_8 C20_8 1_555 1_555
C1_8 O2_8 1_555 1_555
C2_8 C1_8 1_555 1_555
C3_8 C2_8 1_555 1_555
H1_8 C3_8 1_555 1_555
C7_8 C2_8 1_555 1_555
H4_8 C7_8 1_555 1_555

#END
