
###############################################################################
#
# This file contains modified crystal structure data generated from the
# MOF subset of the Cambridge Structural Database (CSD) v543 
# hosted by the Cambridge Crystallographic Data Centre (CCDC).
#
# This work is licensed under the Creative Commons
# Attribution-NonCommercial-ShareAlike 4.0 International License.
# To view a copy of this license, visit
# http://creativecommons.org/licenses/by-nc-sa/4.0/
# or send a letter to
# Creative Commons, PO Box 1866, Mountain View, CA 94042, USA.
#
# CIF created using the CSD Python API on 29 September 2022
# The structure has been converted into the P1 space group
# The structure has a 3D framework
# The original CSD entry GEDROY is in the monoclinic crystal system
# The framework has been calculated to contain at least 10.0% void space
# The void calculation uses a probe of radius 1.32A, grid spacing 0.4
# H atom positions have been added when not included in the experimental data
#
###############################################################################

data_GEDROY
_chemical_formula_moiety         '(C136 H104 N8 Nd8 O64)n'
_symmetry_cell_setting           triclinic
_symmetry_space_group_name_H-M   'P 1'
_symmetry_Int_Tables_number      1
_space_group_name_Hall           'P 1'
loop_
_symmetry_equiv_pos_site_id
_symmetry_equiv_pos_as_xyz
1 x,y,z
_cell_length_a                   28.483(3)
_cell_length_b                   14.5232(12)
_cell_length_c                   12.3002(15)
_cell_angle_alpha                90
_cell_angle_beta                 106.765(11)
_cell_angle_gamma                90
_cell_volume                     4871.89
loop_
_atom_site_label
_atom_site_type_symbol
_atom_site_fract_x
_atom_site_fract_y
_atom_site_fract_z
Nd1 Nd 0.322039(13) 0.21760(3) 0.07040(4)
O1 O 0.3945(2) 0.1682(5) 0.0034(6)
O2 O 0.3870(2) 0.3174(5) 0.0338(7)
O7 O 0.3651(3) 0.3099(6) 0.2406(7)
O8 O 0.3713(3) 0.1035(6) 0.2066(7)
C17 C 0.3564(11) 0.330(2) 0.3422(18)
H8 H 0.3823 0.3684 0.3868
H9 H 0.3550 0.2741 0.3825
H10 H 0.3257 0.3621 0.3281
Nd2 Nd 0.822039(13) 0.71760(3) 0.07040(4)
O11 O 0.26800(18) 0.3498(4) 0.0301(5)
O12 O 0.2756(2) 0.1905(5) 0.2023(5)
H12 H 0.405103 0.127408 0.239334
H13 H 0.355959 0.0928303 0.268477
O3 O 0.7980(2) 0.5651(5) 0.9824(6)
O4 O 0.73200(18) 0.6502(4) 0.9699(5)
O5 O 0.7756(2) 0.3095(5) 0.7023(5)
O6 O 0.7011(2) 0.2459(4) 0.6329(5)
N1 N 0.5960(2) 0.4093(6) 0.8510(6)
C1 C 0.4078(3) 0.2526(7) 0.9984(8)
C2 C 0.4508(3) 0.2704(7) 0.9546(9)
C3 C 0.4641(3) 0.3617(8) 0.9457(8)
H1 H 0.4452 0.4089 0.9623
C4 C 0.5058(3) 0.3828(7) 0.9118(8)
H2 H 0.5142 0.4438 0.9036
C5 C 0.5342(3) 0.3117(7) 0.8909(8)
C6 C 0.5203(4) 0.2196(8) 0.8973(11)
H3 H 0.5387 0.1720 0.8795
C7 C 0.4787(4) 0.2010(8) 0.9309(11)
H4 H 0.4696 0.1402 0.9372
C8 C 0.5810(3) 0.3282(7) 0.8643(8)
C9 C 0.7519(3) 0.5765(6) 0.9496(8)
C10 C 0.7204(3) 0.5002(6) 0.8877(7)
C11 C 0.6720(3) 0.4920(6) 0.8909(7)
H5 H 0.6587 0.5356 0.9289
C12 C 0.6438(3) 0.4180(7) 0.8368(7)
C13 C 0.6621(3) 0.3572(7) 0.7718(7)
H6 H 0.6423 0.3103 0.7317
C14 C 0.7103(3) 0.3666(6) 0.7669(7)
C15 C 0.7393(3) 0.4364(6) 0.8275(7)
H7 H 0.7719 0.4406 0.8280
C16 C 0.7303(3) 0.3024(6) 0.6944(7)
H11 H 0.602(4) 0.278(7) 0.888(9)
Nd3 Nd 0.677961(13) 0.78240(3) 0.92960(4)
Nd4 Nd 0.822039(13) 0.28240(3) 0.57040(4)
Nd5 Nd 0.677961(13) 0.21760(3) 0.42960(4)
O9 O 0.2980(2) 0.0651(5) 0.9824(6)
O10 O 0.23200(18) 0.1502(4) 0.9699(5)
O13 O 0.2989(2) 0.2459(4) 0.8671(5)
O1_2 O 0.6055(2) 0.1682(5) 0.4966(6)
O2_2 O 0.6130(2) 0.3174(5) 0.4662(7)
O3_2 O 0.2020(2) 0.5651(5) 0.5176(6)
O4_2 O 0.26800(18) 0.6502(4) 0.5301(5)
O5_2 O 0.2244(2) 0.3095(5) 0.7977(5)
O7_2 O 0.6349(3) 0.3099(6) 0.2594(7)
O8_2 O 0.6287(3) 0.1035(6) 0.2934(7)
N1_2 N 0.4040(2) 0.4093(6) 0.6490(6)
C1_2 C 0.5922(3) 0.2526(7) 0.5016(8)
C2_2 C 0.5492(3) 0.2704(7) 0.5454(9)
C3_2 C 0.5359(3) 0.3617(8) 0.5543(8)
H1_2 H 0.5548 0.4089 0.5377
C4_2 C 0.4942(3) 0.3828(7) 0.5882(8)
H2_2 H 0.4858 0.4438 0.5964
C5_2 C 0.4658(3) 0.3117(7) 0.6091(8)
C6_2 C 0.4797(4) 0.2196(8) 0.6027(11)
H3_2 H 0.4613 0.1720 0.6205
C7_2 C 0.5213(4) 0.2010(8) 0.5691(11)
H4_2 H 0.5304 0.1402 0.5628
C8_2 C 0.4190(3) 0.3282(7) 0.6357(8)
C9_2 C 0.2481(3) 0.5765(6) 0.5504(8)
C10_2 C 0.2796(3) 0.5002(6) 0.6123(7)
C11_2 C 0.3280(3) 0.4920(6) 0.6091(7)
H5_2 H 0.3413 0.5356 0.5711
C12_2 C 0.3562(3) 0.4180(7) 0.6632(7)
C13_2 C 0.3379(3) 0.3572(7) 0.7282(7)
H6_2 H 0.3577 0.3103 0.7683
C14_2 C 0.2897(3) 0.3666(6) 0.7331(7)
C15_2 C 0.2607(3) 0.4364(6) 0.6725(7)
H7_2 H 0.2281 0.4406 0.6720
C16_2 C 0.2697(3) 0.3024(6) 0.8056(7)
C17_2 C 0.6436(11) 0.330(2) 0.1578(18)
H8_2 H 0.6177 0.3684 0.1132
H9_2 H 0.6450 0.2741 0.1175
H10_2 H 0.6743 0.3621 0.1719
H11_2 H 0.398(4) 0.278(7) 0.612(9)
Nd2_2 Nd 0.177961(13) 0.71760(3) 0.42960(4)
Nd3_2 Nd 0.322039(13) 0.78240(3) 0.57040(4)
Nd4_2 Nd 0.177961(13) 0.28240(3) 0.92960(4)
O9_2 O 0.7020(2) 0.0651(5) 0.5176(6)
O10_2 O 0.76800(18) 0.1502(4) 0.5301(5)
O11_2 O 0.73200(18) 0.3498(4) 0.4699(5)
O12_2 O 0.7244(2) 0.1905(5) 0.2977(5)
H12_2 H 0.594897 0.127408 0.260666
H13_2 H 0.644041 0.0928303 0.231523
C9_3 C 0.2519(3) 0.0765(6) 0.9496(8)
C10_3 C 0.2204(3) 0.0002(6) 0.8877(7)
H5_3 H 0.1587 0.0356 0.9289
O5_3 O 0.2756(2) 0.8095(5) 0.7023(5)
O6_2 O 0.2011(2) 0.7459(4) 0.6329(5)
N1_3 N 0.0960(2) 0.9093(6) 0.8510(6)
C4_3 C 0.0058(3) 0.8828(7) 0.9118(8)
H2_3 H 0.0142 0.9438 0.9036
C5_3 C 0.0342(3) 0.8117(7) 0.8909(8)
C6_3 C 0.0203(4) 0.7196(8) 0.8973(11)
H3_3 H 0.0387 0.6720 0.8795
C8_3 C 0.0810(3) 0.8282(7) 0.8643(8)
C11_3 C 0.1720(3) 0.9920(6) 0.8909(7)
C12_3 C 0.1438(3) 0.9180(7) 0.8368(7)
C13_3 C 0.1621(3) 0.8572(7) 0.7718(7)
H6_3 H 0.1423 0.8103 0.7317
C14_3 C 0.2103(3) 0.8666(6) 0.7669(7)
C15_3 C 0.2393(3) 0.9364(6) 0.8275(7)
H7_3 H 0.2719 0.9406 0.8280
C16_3 C 0.2303(3) 0.8024(6) 0.6944(7)
H11_3 H 0.102(4) 0.778(7) 0.888(9)
O1_3 O 0.8945(2) 0.6682(5) 0.0034(6)
O2_3 O 0.8870(2) 0.8174(5) 0.0338(7)
O7_3 O 0.8651(3) 0.8099(6) 0.2406(7)
O8_3 O 0.8713(3) 0.6035(6) 0.2066(7)
C17_3 C 0.8564(11) 0.830(2) 0.3422(18)
H8_3 H 0.8823 0.8684 0.3868
H9_3 H 0.8550 0.7741 0.3825
H10_3 H 0.8257 0.8621 0.3281
O11_3 O 0.76800(18) 0.8498(4) 0.0301(5)
O12_3 O 0.7756(2) 0.6905(5) 0.2023(5)
H12_3 H 0.905103 0.627408 0.239334
H13_3 H 0.855959 0.59283 0.268477
C1_3 C 0.9078(3) 0.7526(7) 0.9984(8)
C2_3 C 0.9508(3) 0.7704(7) 0.9546(9)
C3_3 C 0.9641(3) 0.8617(8) 0.9457(8)
H1_3 H 0.9452 0.9089 0.9623
C7_3 C 0.9787(4) 0.7010(8) 0.9309(11)
H4_3 H 0.9696 0.6402 0.9372
O13_2 O 0.7989(2) 0.7459(4) 0.8671(5)
O1_4 O 0.1055(2) 0.6682(5) 0.4966(6)
O2_4 O 0.1130(2) 0.8174(5) 0.4662(7)
O7_4 O 0.1349(3) 0.8099(6) 0.2594(7)
O8_4 O 0.1287(3) 0.6035(6) 0.2934(7)
C1_4 C 0.0922(3) 0.7526(7) 0.5016(8)
C2_4 C 0.0492(3) 0.7704(7) 0.5454(9)
C3_4 C 0.0359(3) 0.8617(8) 0.5543(8)
H1_4 H 0.0548 0.9089 0.5377
C7_4 C 0.0213(4) 0.7010(8) 0.5691(11)
H4_4 H 0.0304 0.6402 0.5628
C17_4 C 0.1436(11) 0.830(2) 0.1578(18)
H8_4 H 0.1177 0.8684 0.1132
H9_4 H 0.1450 0.7741 0.1175
H10_4 H 0.1743 0.8621 0.1719
O11_4 O 0.23200(18) 0.8498(4) 0.4699(5)
O12_4 O 0.2244(2) 0.6905(5) 0.2977(5)
H12_4 H 0.0948969 0.627408 0.260666
H13_4 H 0.144041 0.59283 0.231523
C9_4 C 0.7481(3) 0.0765(6) 0.5504(8)
C10_4 C 0.7796(3) 0.0002(6) 0.6123(7)
H5_4 H 0.8413 0.0356 0.5711
O5_4 O 0.7244(2) 0.8095(5) 0.7977(5)
N1_4 N 0.9040(2) 0.9093(6) 0.6490(6)
C4_4 C 0.9942(3) 0.8828(7) 0.5882(8)
H2_4 H 0.9858 0.9438 0.5964
C5_4 C 0.9658(3) 0.8117(7) 0.6091(8)
C6_4 C 0.9797(4) 0.7196(8) 0.6027(11)
H3_4 H 0.9613 0.6720 0.6205
C8_4 C 0.9190(3) 0.8282(7) 0.6357(8)
C11_4 C 0.8280(3) 0.9920(6) 0.6091(7)
C12_4 C 0.8562(3) 0.9180(7) 0.6632(7)
C13_4 C 0.8379(3) 0.8572(7) 0.7282(7)
H6_4 H 0.8577 0.8103 0.7683
C14_4 C 0.7897(3) 0.8666(6) 0.7331(7)
C15_4 C 0.7607(3) 0.9364(6) 0.6725(7)
H7_4 H 0.7281 0.9406 0.6720
C16_4 C 0.7697(3) 0.8024(6) 0.8056(7)
H11_4 H 0.898(4) 0.778(7) 0.612(9)
O3_3 O 0.2020(2) 0.4349(5) 0.0176(6)
O6_3 O 0.2989(2) 0.7541(4) 0.3671(5)
N1_5 N 0.4040(2) 0.5907(6) 0.1490(6)
C1_5 C 0.5922(3) 0.7474(7) 0.0016(8)
C2_5 C 0.5492(3) 0.7296(7) 0.0454(9)
C3_5 C 0.5359(3) 0.6383(8) 0.0543(8)
H1_5 H 0.5548 0.5911 0.0377
C4_5 C 0.4942(3) 0.6172(7) 0.0882(8)
H2_5 H 0.4858 0.5562 0.0964
C5_5 C 0.4658(3) 0.6883(7) 0.1091(8)
C6_5 C 0.4797(4) 0.7804(8) 0.1027(11)
H3_5 H 0.4613 0.8280 0.1205
C7_5 C 0.5213(4) 0.7990(8) 0.0691(11)
H4_5 H 0.5304 0.8598 0.0628
C8_5 C 0.4190(3) 0.6718(7) 0.1357(8)
C9_5 C 0.2481(3) 0.4235(6) 0.0504(8)
C10_5 C 0.2796(3) 0.4998(6) 0.1123(7)
C11_5 C 0.3280(3) 0.5080(6) 0.1091(7)
H5_5 H 0.3413 0.4644 0.0711
C12_5 C 0.3562(3) 0.5820(7) 0.1632(7)
C13_5 C 0.3379(3) 0.6428(7) 0.2282(7)
H6_5 H 0.3577 0.6897 0.2683
C14_5 C 0.2897(3) 0.6334(6) 0.2331(7)
C15_5 C 0.2607(3) 0.5636(6) 0.1725(7)
H7_5 H 0.2281 0.5594 0.1720
C16_5 C 0.2697(3) 0.6976(6) 0.3056(7)
H11_5 H 0.398(4) 0.722(7) 0.112(9)
O9_3 O 0.7020(2) 0.9349(5) 0.0176(6)
O13_3 O 0.7011(2) 0.7541(4) 0.1329(5)
O1_5 O 0.6055(2) 0.8318(5) 0.9966(6)
O2_5 O 0.6130(2) 0.6826(5) 0.9662(7)
O7_5 O 0.6349(3) 0.6901(6) 0.7594(7)
O8_5 O 0.6287(3) 0.8965(6) 0.7934(7)
C17_5 C 0.6436(11) 0.670(2) 0.6578(18)
H8_5 H 0.6177 0.6316 0.6132
H9_5 H 0.6450 0.7259 0.6175
H10_5 H 0.6743 0.6379 0.6719
H12_5 H 0.594897 0.872592 0.760666
H13_5 H 0.644041 0.90717 0.731523
O1_6 O 0.3945(2) 0.8318(5) 0.5034(6)
O2_6 O 0.3870(2) 0.6826(5) 0.5338(7)
O3_4 O 0.7980(2) 0.4349(5) 0.4824(6)
O7_6 O 0.3651(3) 0.6901(6) 0.7406(7)
O8_6 O 0.3713(3) 0.8965(6) 0.7066(7)
N1_6 N 0.5960(2) 0.5907(6) 0.3510(6)
C1_6 C 0.4078(3) 0.7474(7) 0.4984(8)
C2_6 C 0.4508(3) 0.7296(7) 0.4546(9)
C3_6 C 0.4641(3) 0.6383(8) 0.4457(8)
H1_6 H 0.4452 0.5911 0.4623
C4_6 C 0.5058(3) 0.6172(7) 0.4118(8)
H2_6 H 0.5142 0.5562 0.4036
C5_6 C 0.5342(3) 0.6883(7) 0.3909(8)
C6_6 C 0.5203(4) 0.7804(8) 0.3973(11)
H3_6 H 0.5387 0.8280 0.3795
C7_6 C 0.4787(4) 0.7990(8) 0.4309(11)
H4_6 H 0.4696 0.8598 0.4372
C8_6 C 0.5810(3) 0.6718(7) 0.3643(8)
C9_6 C 0.7519(3) 0.4235(6) 0.4496(8)
C10_6 C 0.7204(3) 0.4998(6) 0.3877(7)
C11_6 C 0.6720(3) 0.5080(6) 0.3909(7)
H5_6 H 0.6587 0.4644 0.4289
C12_6 C 0.6438(3) 0.5820(7) 0.3368(7)
C13_6 C 0.6621(3) 0.6428(7) 0.2718(7)
H6_6 H 0.6423 0.6897 0.2317
C14_6 C 0.7103(3) 0.6334(6) 0.2669(7)
C15_6 C 0.7393(3) 0.5636(6) 0.3275(7)
H7_6 H 0.7719 0.5594 0.3280
C16_6 C 0.7303(3) 0.6976(6) 0.1944(7)
C17_6 C 0.3564(11) 0.670(2) 0.8422(18)
H8_6 H 0.3823 0.6316 0.8868
H9_6 H 0.3550 0.7259 0.8825
H10_6 H 0.3257 0.6379 0.8281
H11_6 H 0.602(4) 0.722(7) 0.388(9)
O9_4 O 0.2980(2) 0.9349(5) 0.4824(6)
H12_6 H 0.405103 0.872592 0.739334
H13_6 H 0.355959 0.90717 0.768477
C1_7 C 0.0922(3) 0.2474(7) 0.0016(8)
C2_7 C 0.0492(3) 0.2296(7) 0.0454(9)
C3_7 C 0.0359(3) 0.1383(8) 0.0543(8)
H1_7 H 0.0548 0.0911 0.0377
C7_7 C 0.0213(4) 0.2990(8) 0.0691(11)
H4_7 H 0.0304 0.3598 0.0628
O13_4 O 0.2011(2) 0.2541(4) 0.1329(5)
O1_7 O 0.1055(2) 0.3318(5) 0.9966(6)
O2_7 O 0.1130(2) 0.1826(5) 0.9662(7)
O7_7 O 0.1349(3) 0.1901(6) 0.7594(7)
O8_7 O 0.1287(3) 0.3965(6) 0.7934(7)
C17_7 C 0.1436(11) 0.170(2) 0.6578(18)
H8_7 H 0.1177 0.1316 0.6132
H9_7 H 0.1450 0.2259 0.6175
H10_7 H 0.1743 0.1379 0.6719
H12_7 H 0.0948969 0.372592 0.760666
H13_7 H 0.144041 0.40717 0.731523
O6_4 O 0.7989(2) 0.2541(4) 0.3671(5)
N1_7 N 0.9040(2) 0.0907(6) 0.1490(6)
C4_7 C 0.9942(3) 0.1172(7) 0.0882(8)
H2_7 H 0.9858 0.0562 0.0964
C5_7 C 0.9658(3) 0.1883(7) 0.1091(8)
C6_7 C 0.9797(4) 0.2804(8) 0.1027(11)
H3_7 H 0.9613 0.3280 0.1205
C8_7 C 0.9190(3) 0.1718(7) 0.1357(8)
C11_7 C 0.8280(3) 0.0080(6) 0.1091(7)
C12_7 C 0.8562(3) 0.0820(7) 0.1632(7)
C13_7 C 0.8379(3) 0.1428(7) 0.2282(7)
H6_7 H 0.8577 0.1897 0.2683
C14_7 C 0.7897(3) 0.1334(6) 0.2331(7)
C15_7 C 0.7607(3) 0.0636(6) 0.1725(7)
H7_7 H 0.7281 0.0594 0.1720
C16_7 C 0.7697(3) 0.1976(6) 0.3056(7)
H11_7 H 0.898(4) 0.222(7) 0.112(9)
C9_7 C 0.7481(3) 0.9235(6) 0.0504(8)
C10_7 C 0.7796(3) 0.9998(6) 0.1123(7)
H5_7 H 0.8413 0.9644 0.0711
N1_8 N 0.0960(2) 0.0907(6) 0.3510(6)
C4_8 C 0.0058(3) 0.1172(7) 0.4118(8)
H2_8 H 0.0142 0.0562 0.4036
C5_8 C 0.0342(3) 0.1883(7) 0.3909(8)
C6_8 C 0.0203(4) 0.2804(8) 0.3973(11)
H3_8 H 0.0387 0.3280 0.3795
C8_8 C 0.0810(3) 0.1718(7) 0.3643(8)
C11_8 C 0.1720(3) 0.0080(6) 0.3909(7)
C12_8 C 0.1438(3) 0.0820(7) 0.3368(7)
C13_8 C 0.1621(3) 0.1428(7) 0.2718(7)
H6_8 H 0.1423 0.1897 0.2317
C14_8 C 0.2103(3) 0.1334(6) 0.2669(7)
C15_8 C 0.2393(3) 0.0636(6) 0.3275(7)
H7_8 H 0.2719 0.0594 0.3280
C16_8 C 0.2303(3) 0.1976(6) 0.1944(7)
H11_8 H 0.102(4) 0.222(7) 0.388(9)
C9_8 C 0.2519(3) 0.9235(6) 0.4496(8)
C10_8 C 0.2204(3) 0.9998(6) 0.3877(7)
H5_8 H 0.1587 0.9644 0.4289
O1_8 O 0.8945(2) 0.3318(5) 0.5034(6)
O2_8 O 0.8870(2) 0.1826(5) 0.5338(7)
O7_8 O 0.8651(3) 0.1901(6) 0.7406(7)
O8_8 O 0.8713(3) 0.3965(6) 0.7066(7)
C1_8 C 0.9078(3) 0.2474(7) 0.4984(8)
C2_8 C 0.9508(3) 0.2296(7) 0.4546(9)
C3_8 C 0.9641(3) 0.1383(8) 0.4457(8)
H1_8 H 0.9452 0.0911 0.4623
C7_8 C 0.9787(4) 0.2990(8) 0.4309(11)
H4_8 H 0.9696 0.3598 0.4372
C17_8 C 0.8564(11) 0.170(2) 0.8422(18)
H8_8 H 0.8823 0.1316 0.8868
H9_8 H 0.8550 0.2259 0.8825
H10_8 H 0.8257 0.1379 0.8281
H12_8 H 0.905103 0.372592 0.739334
H13_8 H 0.855959 0.40717 0.768477
loop_
_geom_bond_atom_site_label_1
_geom_bond_atom_site_label_2
_geom_bond_site_symmetry_1
_geom_bond_site_symmetry_2
Nd1 O1 1_555 1_555
O2 Nd1 1_555 1_555
O7 Nd1 1_555 1_555
O8 Nd1 1_555 1_555
C17 O7 1_555 1_555
H8 C17 1_555 1_555
H9 C17 1_555 1_555
H10 C17 1_555 1_555
O11 Nd1 1_555 1_555
O12 Nd1 1_555 1_555
O8 H12 1_555 1_555
O8 H13 1_555 1_555
O3 C9 1_555 1_555
O4 C9 1_555 1_555
O5 C16 1_555 1_555
O6 C16 1_555 1_555
N1 C8 1_555 1_555
C2 C1 1_555 1_555
C3 C2 1_555 1_555
H1 C3 1_555 1_555
C4 C3 1_555 1_555
H2 C4 1_555 1_555
C5 C4 1_555 1_555
C6 C5 1_555 1_555
H3 C6 1_555 1_555
C7 C2 1_555 1_555
H4 C7 1_555 1_555
C8 C5 1_555 1_555
C9 C10 1_555 1_555
C10 C11 1_555 1_555
C11 H5 1_555 1_555
C12 N1 1_555 1_555
C13 C12 1_555 1_555
H6 C13 1_555 1_555
C14 C13 1_555 1_555
C15 C10 1_555 1_555
H7 C15 1_555 1_555
C16 C14 1_555 1_555
H11 C8 1_555 1_555
Nd3 O4 1_555 1_555
Nd4 O5 1_555 1_555
Nd5 O6 1_555 1_555
C6 C7 1_555 1_555
C11 C12 1_555 1_555
C14 C15 1_555 1_555
Nd5 O1_2 1_555 1_555
O1_2 C1_2 1_555 1_555
O2_2 Nd5 1_555 1_555
O3_2 C9_2 1_555 1_555
O4_2 C9_2 1_555 1_555
O5_2 C16_2 1_555 1_555
O13 C16_2 1_555 1_555
O7_2 Nd5 1_555 1_555
O8_2 Nd5 1_555 1_555
N1_2 C8_2 1_555 1_555
C1_2 O2_2 1_555 1_555
C2_2 C1_2 1_555 1_555
C3_2 C2_2 1_555 1_555
H1_2 C3_2 1_555 1_555
C4_2 C3_2 1_555 1_555
H2_2 C4_2 1_555 1_555
C5_2 C4_2 1_555 1_555
C6_2 C5_2 1_555 1_555
H3_2 C6_2 1_555 1_555
C7_2 C2_2 1_555 1_555
H4_2 C7_2 1_555 1_555
C8_2 C5_2 1_555 1_555
C9_2 C10_2 1_555 1_555
C10_2 C11_2 1_555 1_555
C11_2 H5_2 1_555 1_555
C12_2 N1_2 1_555 1_555
C13_2 C12_2 1_555 1_555
H6_2 C13_2 1_555 1_555
C14_2 C13_2 1_555 1_555
C15_2 C10_2 1_555 1_555
H7_2 C15_2 1_555 1_555
C16_2 C14_2 1_555 1_555
C17_2 O7_2 1_555 1_555
H8_2 C17_2 1_555 1_555
H9_2 C17_2 1_555 1_555
H10_2 C17_2 1_555 1_555
H11_2 C8_2 1_555 1_555
Nd2_2 O3_2 1_555 1_555
Nd3_2 O4_2 1_555 1_555
Nd4_2 O5_2 1_555 1_555
O9_2 Nd5 1_555 1_555
O10_2 Nd5 1_555 1_555
O11_2 Nd5 1_555 1_555
O12_2 Nd5 1_555 1_555
O4_2 Nd2_2 1_555 1_555
C6_2 C7_2 1_555 1_555
C11_2 C12_2 1_555 1_555
C14_2 C15_2 1_555 1_555
O8_2 H12_2 1_555 1_555
O8_2 H13_2 1_555 1_555
O9 C9_3 1_555 1_555
O10 C9_3 1_555 1_555
C9_3 C10_3 1_555 1_555
Nd4_2 O10 1_555 1_555
O5_3 C16_3 1_555 1_555
O6_2 C16_3 1_555 1_555
N1_3 C8_3 1_555 1_555
H2_3 C4_3 1_555 1_555
C5_3 C4_3 1_555 1_555
C6_3 C5_3 1_555 1_555
H3_3 C6_3 1_555 1_555
C8_3 C5_3 1_555 1_555
C12_3 N1_3 1_555 1_555
C13_3 C12_3 1_555 1_555
H6_3 C13_3 1_555 1_555
C14_3 C13_3 1_555 1_555
H7_3 C15_3 1_555 1_555
C16_3 C14_3 1_555 1_555
H11_3 C8_3 1_555 1_555
Nd3_2 O5_3 1_555 1_555
Nd2_2 O6_2 1_555 1_555
C11_3 C12_3 1_555 1_555
C14_3 C15_3 1_555 1_555
Nd2 O1_3 1_555 1_555
O2_3 Nd2 1_555 1_555
O7_3 Nd2 1_555 1_555
O8_3 Nd2 1_555 1_555
C17_3 O7_3 1_555 1_555
H8_3 C17_3 1_555 1_555
H9_3 C17_3 1_555 1_555
H10_3 C17_3 1_555 1_555
O11_3 Nd2 1_555 1_555
O12_3 Nd2 1_555 1_555
O8_3 H12_3 1_555 1_555
O8_3 H13_3 1_555 1_555
C2_3 C1_3 1_555 1_555
C3_3 C2_3 1_555 1_555
H1_3 C3_3 1_555 1_555
C7_3 C2_3 1_555 1_555
H4_3 C7_3 1_555 1_555
Nd2_2 O1_4 1_555 1_555
O1_4 C1_4 1_555 1_555
O2_4 Nd2_2 1_555 1_555
O7_4 Nd2_2 1_555 1_555
O8_4 Nd2_2 1_555 1_555
C1_4 O2_4 1_555 1_555
C2_4 C1_4 1_555 1_555
C3_4 C2_4 1_555 1_555
H1_4 C3_4 1_555 1_555
C7_4 C2_4 1_555 1_555
H4_4 C7_4 1_555 1_555
C17_4 O7_4 1_555 1_555
H8_4 C17_4 1_555 1_555
H9_4 C17_4 1_555 1_555
H10_4 C17_4 1_555 1_555
O11_4 Nd2_2 1_555 1_555
O12_4 Nd2_2 1_555 1_555
O8_4 H12_4 1_555 1_555
O8_4 H13_4 1_555 1_555
O9_2 C9_4 1_555 1_555
O10_2 C9_4 1_555 1_555
C9_4 C10_4 1_555 1_555
Nd4 O10_2 1_555 1_555
O5_4 C16_4 1_555 1_555
O13_2 C16_4 1_555 1_555
N1_4 C8_4 1_555 1_555
H2_4 C4_4 1_555 1_555
C5_4 C4_4 1_555 1_555
C6_4 C5_4 1_555 1_555
H3_4 C6_4 1_555 1_555
C8_4 C5_4 1_555 1_555
C12_4 N1_4 1_555 1_555
C13_4 C12_4 1_555 1_555
H6_4 C13_4 1_555 1_555
C14_4 C13_4 1_555 1_555
H7_4 C15_4 1_555 1_555
C16_4 C14_4 1_555 1_555
H11_4 C8_4 1_555 1_555
Nd3 O5_4 1_555 1_555
C11_4 C12_4 1_555 1_555
C14_4 C15_4 1_555 1_555
O3_3 C9_5 1_555 1_555
O11 C9_5 1_555 1_555
O12_4 C16_5 1_555 1_555
O6_3 C16_5 1_555 1_555
N1_5 C8_5 1_555 1_555
C2_5 C1_5 1_555 1_555
C3_5 C2_5 1_555 1_555
H1_5 C3_5 1_555 1_555
C4_5 C3_5 1_555 1_555
H2_5 C4_5 1_555 1_555
C5_5 C4_5 1_555 1_555
C6_5 C5_5 1_555 1_555
H3_5 C6_5 1_555 1_555
C7_5 C2_5 1_555 1_555
H4_5 C7_5 1_555 1_555
C8_5 C5_5 1_555 1_555
C9_5 C10_5 1_555 1_555
C10_5 C11_5 1_555 1_555
C11_5 H5_5 1_555 1_555
C12_5 N1_5 1_555 1_555
C13_5 C12_5 1_555 1_555
H6_5 C13_5 1_555 1_555
C14_5 C13_5 1_555 1_555
C15_5 C10_5 1_555 1_555
H7_5 C15_5 1_555 1_555
C16_5 C14_5 1_555 1_555
H11_5 C8_5 1_555 1_555
Nd3_2 O6_3 1_555 1_555
C6_5 C7_5 1_555 1_555
C11_5 C12_5 1_555 1_555
C14_5 C15_5 1_555 1_555
Nd3 O1_5 1_555 1_555
O2_5 Nd3 1_555 1_555
O7_5 Nd3 1_555 1_555
O8_5 Nd3 1_555 1_555
C17_5 O7_5 1_555 1_555
H8_5 C17_5 1_555 1_555
H9_5 C17_5 1_555 1_555
H10_5 C17_5 1_555 1_555
O8_5 H12_5 1_555 1_555
O8_5 H13_5 1_555 1_555
Nd3_2 O1_6 1_555 1_555
O1_6 C1_6 1_555 1_555
O2_6 Nd3_2 1_555 1_555
O3_4 C9_6 1_555 1_555
O11_2 C9_6 1_555 1_555
O12_3 C16_6 1_555 1_555
O13_3 C16_6 1_555 1_555
O7_6 Nd3_2 1_555 1_555
O8_6 Nd3_2 1_555 1_555
N1_6 C8_6 1_555 1_555
C1_6 O2_6 1_555 1_555
C2_6 C1_6 1_555 1_555
C3_6 C2_6 1_555 1_555
H1_6 C3_6 1_555 1_555
C4_6 C3_6 1_555 1_555
H2_6 C4_6 1_555 1_555
C5_6 C4_6 1_555 1_555
C6_6 C5_6 1_555 1_555
H3_6 C6_6 1_555 1_555
C7_6 C2_6 1_555 1_555
H4_6 C7_6 1_555 1_555
C8_6 C5_6 1_555 1_555
C9_6 C10_6 1_555 1_555
C10_6 C11_6 1_555 1_555
C11_6 H5_6 1_555 1_555
C12_6 N1_6 1_555 1_555
C13_6 C12_6 1_555 1_555
H6_6 C13_6 1_555 1_555
C14_6 C13_6 1_555 1_555
C15_6 C10_6 1_555 1_555
H7_6 C15_6 1_555 1_555
C16_6 C14_6 1_555 1_555
C17_6 O7_6 1_555 1_555
H8_6 C17_6 1_555 1_555
H9_6 C17_6 1_555 1_555
H10_6 C17_6 1_555 1_555
H11_6 C8_6 1_555 1_555
Nd4 O3_4 1_555 1_555
O9_4 Nd3_2 1_555 1_555
O11_4 Nd3_2 1_555 1_555
O11_2 Nd4 1_555 1_555
C6_6 C7_6 1_555 1_555
C11_6 C12_6 1_555 1_555
C14_6 C15_6 1_555 1_555
O8_6 H12_6 1_555 1_555
O8_6 H13_6 1_555 1_555
C2_7 C1_7 1_555 1_555
C3_7 C2_7 1_555 1_555
H1_7 C3_7 1_555 1_555
C7_7 C2_7 1_555 1_555
H4_7 C7_7 1_555 1_555
Nd4_2 O1_7 1_555 1_555
O2_7 Nd4_2 1_555 1_555
O7_7 Nd4_2 1_555 1_555
O8_7 Nd4_2 1_555 1_555
C17_7 O7_7 1_555 1_555
H8_7 C17_7 1_555 1_555
H9_7 C17_7 1_555 1_555
H10_7 C17_7 1_555 1_555
O8_7 H12_7 1_555 1_555
O8_7 H13_7 1_555 1_555
O12_2 C16_7 1_555 1_555
O6_4 C16_7 1_555 1_555
N1_7 C8_7 1_555 1_555
H2_7 C4_7 1_555 1_555
C5_7 C4_7 1_555 1_555
C6_7 C5_7 1_555 1_555
H3_7 C6_7 1_555 1_555
C8_7 C5_7 1_555 1_555
C12_7 N1_7 1_555 1_555
C13_7 C12_7 1_555 1_555
H6_7 C13_7 1_555 1_555
C14_7 C13_7 1_555 1_555
H7_7 C15_7 1_555 1_555
C16_7 C14_7 1_555 1_555
H11_7 C8_7 1_555 1_555
Nd4 O6_4 1_555 1_555
C11_7 C12_7 1_555 1_555
C14_7 C15_7 1_555 1_555
O9_3 C9_7 1_555 1_555
O11_3 C9_7 1_555 1_555
C9_7 C10_7 1_555 1_555
O12 C16_8 1_555 1_555
O13_4 C16_8 1_555 1_555
N1_8 C8_8 1_555 1_555
H2_8 C4_8 1_555 1_555
C5_8 C4_8 1_555 1_555
C6_8 C5_8 1_555 1_555
H3_8 C6_8 1_555 1_555
C8_8 C5_8 1_555 1_555
C12_8 N1_8 1_555 1_555
C13_8 C12_8 1_555 1_555
H6_8 C13_8 1_555 1_555
C14_8 C13_8 1_555 1_555
H7_8 C15_8 1_555 1_555
C16_8 C14_8 1_555 1_555
H11_8 C8_8 1_555 1_555
C11_8 C12_8 1_555 1_555
C14_8 C15_8 1_555 1_555
O9_4 C9_8 1_555 1_555
O11_4 C9_8 1_555 1_555
C9_8 C10_8 1_555 1_555
Nd4 O1_8 1_555 1_555
O1_8 C1_8 1_555 1_555
O2_8 Nd4 1_555 1_555
O7_8 Nd4 1_555 1_555
O8_8 Nd4 1_555 1_555
C1_8 O2_8 1_555 1_555
C2_8 C1_8 1_555 1_555
C3_8 C2_8 1_555 1_555
H1_8 C3_8 1_555 1_555
C7_8 C2_8 1_555 1_555
H4_8 C7_8 1_555 1_555
C17_8 O7_8 1_555 1_555
H8_8 C17_8 1_555 1_555
H9_8 C17_8 1_555 1_555
H10_8 C17_8 1_555 1_555
O8_8 H12_8 1_555 1_555
O8_8 H13_8 1_555 1_555

#END
