
###############################################################################
#
# This file contains modified crystal structure data generated from the
# MOF subset of the Cambridge Structural Database (CSD) v543 
# hosted by the Cambridge Crystallographic Data Centre (CCDC).
#
# This work is licensed under the Creative Commons
# Attribution-NonCommercial-ShareAlike 4.0 International License.
# To view a copy of this license, visit
# http://creativecommons.org/licenses/by-nc-sa/4.0/
# or send a letter to
# Creative Commons, PO Box 1866, Mountain View, CA 94042, USA.
#
# CIF created using the CSD Python API on 29 September 2022
# The structure has been converted into the P1 space group
# The structure has a 3D framework
# The original CSD entry GEDRIS is in the monoclinic crystal system
# The framework has been calculated to contain at least 10.0% void space
# The void calculation uses a probe of radius 1.32A, grid spacing 0.4
# H atom positions have been added when not included in the experimental data
#
###############################################################################

data_GEDRIS
_chemical_formula_moiety         '(C176 H128 N40 Nd8 O48)n'
_symmetry_cell_setting           triclinic
_symmetry_space_group_name_H-M   'P 1'
_symmetry_Int_Tables_number      1
_space_group_name_Hall           'P 1'
loop_
_symmetry_equiv_pos_site_id
_symmetry_equiv_pos_as_xyz
1 x,y,z
_cell_length_a                   28.6180(12)
_cell_length_b                   14.0687(6)
_cell_length_c                   13.2796(7)
_cell_angle_alpha                90
_cell_angle_beta                 102.717(5)
_cell_angle_gamma                90
_cell_volume                     5215.45
loop_
_atom_site_label
_atom_site_type_symbol
_atom_site_fract_x
_atom_site_fract_y
_atom_site_fract_z
Nd1 Nd 0.182125(11) 0.20347(2) 0.43996(3)
O1 O 0.10872(16) 0.1559(4) 0.5052(4)
O2 O 0.1120(2) 0.3028(4) 0.4555(7)
N2 N 0.1461(5) 0.2804(8) 0.2662(8)
N3 N 0.1068(9) 0.3771(16) 0.1343(19)
N4 N 0.1450(3) 0.0634(6) 0.3230(5)
C1 C 0.0937(2) 0.2396(6) 0.4984(6)
C2 C 0.0516(3) 0.2652(6) 0.5449(7)
C3 C 0.0238(4) 0.1957(7) 0.5740(11)
H1 H 0.0328 0.1324 0.5710
C7 C 0.0389(3) 0.3587(6) 0.5527(7)
H4 H 0.0574 0.4066 0.5325
C17 C 0.1047(7) 0.321(2) 0.216(2)
H8 H 0.0762 0.3116 0.2370
C18 C 0.1711(11) 0.313(2) 0.198(2)
H9 H 0.2027 0.2942 0.2053
C19 C 0.1521(10) 0.373(2) 0.120(2)
H10 H 0.1661 0.4024 0.0712
C20 C 0.1417(3) 0.0517(5) 0.2217(5)
H11 H 0.1475 0.1009 0.1792
O7 O 0.19292(18) 0.2578(4) 0.6192(4)
O8 O 0.23548(18) 0.1739(4) 0.3275(4)
O9 O 0.27042(16) 0.1538(3) 0.5423(4)
O10 O 0.22958(16) 0.3462(3) 0.4577(4)
O11 O 0.20945(16) 0.0594(3) 0.5443(4)
H16 H 0.079377 0.415274 0.0915729
Nd2 Nd 0.817875(11) 0.20347(2) 0.06004(3)
O3 O 0.80708(18) 0.2578(4) 0.8808(4)
O4 O 0.73548(18) 0.3261(4) 0.8275(4)
O5 O 0.77042(16) 0.6538(3) 0.5423(4)
O6 O 0.70945(16) 0.5594(3) 0.5443(4)
N1 N 0.9089(2) 0.4147(5) 0.6501(5)
C4 C 0.9825(4) 0.2175(7) 0.6077(12)
H2 H 0.9629 0.1693 0.6232
C5 C 0.9707(3) 0.3120(6) 0.6180(8)
C6 C 0.9986(3) 0.3824(6) 0.5906(7)
H3 H 0.9907 0.4459 0.5972
C8 C 0.9253(3) 0.3341(7) 0.6480(8)
C9 C 0.7786(3) 0.3152(6) 0.8267(6)
C10 C 0.7984(2) 0.3776(5) 0.7531(5)
C11 C 0.8450(3) 0.3682(5) 0.7405(6)
H5 H 0.8650 0.3226 0.7783
C12 C 0.8621(2) 0.4258(5) 0.6727(6)
C13 C 0.8335(2) 0.4972(5) 0.6203(6)
H6 H 0.8458 0.5391 0.5785
C14 C 0.7867(2) 0.5059(5) 0.6303(5)
C15 C 0.7691(2) 0.4455(5) 0.6960(5)
H7 H 0.7374 0.4509 0.7015
C16 C 0.7529(2) 0.5769(5) 0.5685(5)
H14 H 0.905(3) 0.274(6) 0.655(6)
Nd3 Nd 0.682125(11) 0.29653(2) 0.93996(3)
Nd4 Nd 0.682125(11) 0.70347(2) 0.43996(3)
Nd5 Nd 0.817875(11) 0.79653(2) 0.56004(3)
Nd4_2 Nd 0.317875(11) 0.70347(2) 0.06004(3)
O4_2 O 0.26452(18) 0.3261(4) 0.6725(4)
O5_2 O 0.22958(16) 0.6538(3) 0.9577(4)
O6_2 O 0.29055(16) 0.5594(3) 0.9557(4)
N1_2 N 0.0911(2) 0.4147(5) 0.8499(5)
C4_2 C 0.0175(4) 0.2175(7) 0.8923(12)
H2_2 H 0.0371 0.1693 0.8768
C5_2 C 0.0293(3) 0.3120(6) 0.8820(8)
C6_2 C 0.0014(3) 0.3824(6) 0.9094(7)
H3_2 H 0.0093 0.4459 0.9028
C8_2 C 0.0747(3) 0.3341(7) 0.8520(8)
C9_2 C 0.2214(3) 0.3152(6) 0.6733(6)
C10_2 C 0.2016(2) 0.3776(5) 0.7469(5)
C11_2 C 0.1550(3) 0.3682(5) 0.7595(6)
H5_2 H 0.1350 0.3226 0.7217
C12_2 C 0.1379(2) 0.4258(5) 0.8273(6)
C13_2 C 0.1665(2) 0.4972(5) 0.8797(6)
H6_2 H 0.1542 0.5391 0.9215
C14_2 C 0.2133(2) 0.5059(5) 0.8697(5)
C15_2 C 0.2309(2) 0.4455(5) 0.8040(5)
H7_2 H 0.2626 0.4509 0.7985
C16_2 C 0.2471(2) 0.5769(5) 0.9315(5)
H14_2 H 0.095(3) 0.274(6) 0.845(6)
Nd3_2 Nd 0.317875(11) 0.29653(2) 0.56004(3)
Nd5_2 Nd 0.182125(11) 0.79653(2) 0.93996(3)
O2_2 O 0.8880(2) 0.3028(4) 0.0445(7)
N2_2 N 0.8539(5) 0.2804(8) 0.2338(8)
N3_2 N 0.8932(9) 0.3771(16) 0.3657(19)
N4_2 N 0.8550(3) 0.0634(6) 0.1770(5)
C1_2 C 0.9063(2) 0.2396(6) 0.0016(6)
C17_2 C 0.8953(7) 0.321(2) 0.284(2)
H8_2 H 0.9238 0.3116 0.2630
C18_2 C 0.8289(11) 0.313(2) 0.302(2)
H9_2 H 0.7973 0.2942 0.2947
C19_2 C 0.8479(10) 0.373(2) 0.380(2)
H10_2 H 0.8339 0.4024 0.4288
C20_2 C 0.8583(3) 0.0517(5) 0.2783(5)
H11_2 H 0.8525 0.1009 0.3208
O8_2 O 0.76452(18) 0.1739(4) 0.1725(4)
O10_2 O 0.77042(16) 0.3462(3) 0.0423(4)
H16_2 H 0.920623 0.415274 0.408427
O1_2 O 0.89128(16) 0.1559(4) 0.9948(4)
C2_2 C 0.9484(3) 0.2652(6) 0.9551(7)
C3_2 C 0.9762(4) 0.1957(7) 0.9260(11)
H1_2 H 0.9672 0.1324 0.9290
C7_2 C 0.9611(3) 0.3587(6) 0.9473(7)
H4_2 H 0.9426 0.4066 0.9675
O9_2 O 0.72958(16) 0.1538(3) 0.9577(4)
O11_2 O 0.79055(16) 0.0594(3) 0.9557(4)
H6_3 H 0.3458 0.0391 0.5785
C14_3 C 0.2867(2) 0.0059(5) 0.6303(5)
C16_3 C 0.2529(2) 0.0769(5) 0.5685(5)
O1_3 O 0.60872(16) 0.6559(4) 0.5052(4)
O2_3 O 0.6120(2) 0.8028(4) 0.4555(7)
O3_2 O 0.30708(18) 0.7578(4) 0.8808(4)
O4_3 O 0.23548(18) 0.8261(4) 0.8275(4)
N1_3 N 0.4089(2) 0.9147(5) 0.6501(5)
N2_3 N 0.6461(5) 0.7804(8) 0.2662(8)
N3_3 N 0.6068(9) 0.8771(16) 0.1343(19)
N4_3 N 0.6450(3) 0.5634(6) 0.3230(5)
N5 N 0.6292(3) 0.4638(6) 0.1855(8)
C1_3 C 0.5937(2) 0.7396(6) 0.4984(6)
C2_3 C 0.5516(3) 0.7652(6) 0.5449(7)
C3_3 C 0.5238(4) 0.6957(7) 0.5740(11)
H1_3 H 0.5328 0.6324 0.5710
C4_3 C 0.4825(4) 0.7175(7) 0.6077(12)
H2_3 H 0.4629 0.6693 0.6232
C5_3 C 0.4707(3) 0.8120(6) 0.6180(8)
C6_3 C 0.4986(3) 0.8824(6) 0.5906(7)
H3_3 H 0.4907 0.9459 0.5972
C7_3 C 0.5389(3) 0.8587(6) 0.5527(7)
H4_3 H 0.5574 0.9066 0.5325
C8_3 C 0.4253(3) 0.8341(7) 0.6480(8)
C9_3 C 0.2786(3) 0.8152(6) 0.8267(6)
C10_3 C 0.2984(2) 0.8776(5) 0.7531(5)
C11_3 C 0.3450(3) 0.8682(5) 0.7405(6)
H5_3 H 0.3650 0.8226 0.7783
C12_3 C 0.3621(2) 0.9258(5) 0.6727(6)
C13_3 C 0.3335(2) 0.9972(5) 0.6203(6)
C15_3 C 0.2691(2) 0.9455(5) 0.6960(5)
H7_3 H 0.2374 0.9509 0.7015
C17_3 C 0.6047(7) 0.821(2) 0.216(2)
H8_3 H 0.5762 0.8116 0.2370
C18_3 C 0.6711(11) 0.813(2) 0.198(2)
H9_3 H 0.7027 0.7942 0.2053
C19_3 C 0.6521(10) 0.873(2) 0.120(2)
H10_3 H 0.6661 0.9024 0.0712
C20_3 C 0.6417(3) 0.5517(5) 0.2217(5)
H11_3 H 0.6475 0.6009 0.1792
C21 C 0.6243(8) 0.417(3) 0.2711(19)
H12 H 0.6158 0.3530 0.2734
C22 C 0.6338(7) 0.4762(12) 0.353(3)
H13 H 0.6327 0.4595 0.4199
H14_3 H 0.405(3) 0.774(6) 0.655(6)
O7_2 O 0.69292(18) 0.7578(4) 0.6192(4)
O8_3 O 0.73548(18) 0.6739(4) 0.3275(4)
O10_3 O 0.72958(16) 0.8462(3) 0.4577(4)
H15 H 0.624621 0.439026 0.11219
H16_3 H 0.579377 0.915274 0.0915729
H6_4 H 0.6542 0.0391 0.9215
C14_4 C 0.7133(2) 0.0059(5) 0.8697(5)
C16_4 C 0.7471(2) 0.0769(5) 0.9315(5)
O2_4 O 0.3880(2) 0.8028(4) 0.0445(7)
N2_4 N 0.3539(5) 0.7804(8) 0.2338(8)
N3_4 N 0.3932(9) 0.8771(16) 0.3657(19)
N4_4 N 0.3550(3) 0.5634(6) 0.1770(5)
N5_2 N 0.3708(3) 0.4638(6) 0.3145(8)
C1_4 C 0.4063(2) 0.7396(6) 0.0016(6)
C17_4 C 0.3953(7) 0.821(2) 0.284(2)
H8_4 H 0.4238 0.8116 0.2630
C18_4 C 0.3289(11) 0.813(2) 0.302(2)
H9_4 H 0.2973 0.7942 0.2947
C19_4 C 0.3479(10) 0.873(2) 0.380(2)
H10_4 H 0.3339 0.9024 0.4288
C20_4 C 0.3583(3) 0.5517(5) 0.2783(5)
H11_4 H 0.3525 0.6009 0.3208
C21_2 C 0.3757(8) 0.417(3) 0.2289(19)
H12_2 H 0.3842 0.3530 0.2266
C22_2 C 0.3662(7) 0.4762(12) 0.147(3)
H13_2 H 0.3673 0.4595 0.0801
O8_4 O 0.26452(18) 0.6739(4) 0.1725(4)
O10_4 O 0.27042(16) 0.8462(3) 0.0423(4)
H15_2 H 0.375379 0.439026 0.38781
H16_4 H 0.420623 0.915274 0.408427
O1_4 O 0.39128(16) 0.6559(4) 0.9948(4)
O4_4 O 0.76452(18) 0.8261(4) 0.6725(4)
N1_4 N 0.5911(2) 0.9147(5) 0.8499(5)
C2_4 C 0.4484(3) 0.7652(6) 0.9551(7)
C3_4 C 0.4762(4) 0.6957(7) 0.9260(11)
H1_4 H 0.4672 0.6324 0.9290
C4_4 C 0.5175(4) 0.7175(7) 0.8923(12)
H2_4 H 0.5371 0.6693 0.8768
C5_4 C 0.5293(3) 0.8120(6) 0.8820(8)
C6_4 C 0.5014(3) 0.8824(6) 0.9094(7)
H3_4 H 0.5093 0.9459 0.9028
C7_4 C 0.4611(3) 0.8587(6) 0.9473(7)
H4_4 H 0.4426 0.9066 0.9675
C8_4 C 0.5747(3) 0.8341(7) 0.8520(8)
C9_4 C 0.7214(3) 0.8152(6) 0.6733(6)
C10_4 C 0.7016(2) 0.8776(5) 0.7469(5)
C11_4 C 0.6550(3) 0.8682(5) 0.7595(6)
H5_4 H 0.6350 0.8226 0.7217
C12_4 C 0.6379(2) 0.9258(5) 0.8273(6)
C13_4 C 0.6665(2) 0.9972(5) 0.8797(6)
C15_4 C 0.7309(2) 0.9455(5) 0.8040(5)
H7_4 H 0.7626 0.9509 0.7985
H14_4 H 0.595(3) 0.774(6) 0.845(6)
O3_3 O 0.19292(18) 0.7422(4) 0.1192(4)
O6_3 O 0.29055(16) 0.4406(3) 0.4557(4)
N1_5 N 0.0911(2) 0.5853(5) 0.3499(5)
C4_5 C 0.0175(4) 0.7825(7) 0.3923(12)
H2_5 H 0.0371 0.8307 0.3768
C5_5 C 0.0293(3) 0.6880(6) 0.3820(8)
C6_5 C 0.0014(3) 0.6176(6) 0.4094(7)
H3_5 H 0.0093 0.5541 0.4028
C8_5 C 0.0747(3) 0.6659(7) 0.3520(8)
C9_5 C 0.2214(3) 0.6848(6) 0.1733(6)
C10_5 C 0.2016(2) 0.6224(5) 0.2469(5)
C11_5 C 0.1550(3) 0.6318(5) 0.2595(6)
H5_5 H 0.1350 0.6774 0.2217
C12_5 C 0.1379(2) 0.5742(5) 0.3273(6)
C13_5 C 0.1665(2) 0.5028(5) 0.3797(6)
H6_5 H 0.1542 0.4609 0.4215
C14_5 C 0.2133(2) 0.4941(5) 0.3697(5)
C15_5 C 0.2309(2) 0.5545(5) 0.3040(5)
H7_5 H 0.2626 0.5491 0.2985
C16_5 C 0.2471(2) 0.4231(5) 0.4315(5)
H14_5 H 0.095(3) 0.726(6) 0.345(6)
O1_5 O 0.89128(16) 0.8441(4) 0.4948(4)
O2_5 O 0.8880(2) 0.6972(4) 0.5445(7)
N2_5 N 0.8539(5) 0.7196(8) 0.7338(8)
N3_5 N 0.8932(9) 0.6229(16) 0.8657(19)
N4_5 N 0.8550(3) 0.9366(6) 0.6770(5)
C1_5 C 0.9063(2) 0.7604(6) 0.5016(6)
C2_5 C 0.9484(3) 0.7348(6) 0.4551(7)
C3_5 C 0.9762(4) 0.8043(7) 0.4260(11)
H1_5 H 0.9672 0.8676 0.4290
C7_5 C 0.9611(3) 0.6413(6) 0.4473(7)
H4_5 H 0.9426 0.5934 0.4675
C17_5 C 0.8953(7) 0.679(2) 0.784(2)
H8_5 H 0.9238 0.6884 0.7630
C18_5 C 0.8289(11) 0.687(2) 0.802(2)
H9_5 H 0.7973 0.7058 0.7947
C19_5 C 0.8479(10) 0.627(2) 0.880(2)
H10_5 H 0.8339 0.5976 0.9288
C20_5 C 0.8583(3) 0.9483(5) 0.7783(5)
H11_5 H 0.8525 0.8991 0.8208
O7_3 O 0.80708(18) 0.7422(4) 0.3808(4)
O11_3 O 0.79055(16) 0.9406(3) 0.4557(4)
H16_5 H 0.920623 0.584726 0.908427
O1_6 O 0.10872(16) 0.8441(4) 0.0052(4)
C2_6 C 0.0516(3) 0.7348(6) 0.0449(7)
C3_6 C 0.0238(4) 0.8043(7) 0.0740(11)
H1_6 H 0.0328 0.8676 0.0710
C7_6 C 0.0389(3) 0.6413(6) 0.0527(7)
H4_6 H 0.0574 0.5934 0.0325
O11_4 O 0.20945(16) 0.9406(3) 0.0443(4)
O2_6 O 0.1120(2) 0.6972(4) 0.9555(7)
N2_6 N 0.1461(5) 0.7196(8) 0.7662(8)
N3_6 N 0.1068(9) 0.6229(16) 0.6343(19)
N4_6 N 0.1450(3) 0.9366(6) 0.8230(5)
C1_6 C 0.0937(2) 0.7604(6) 0.9984(6)
C17_6 C 0.1047(7) 0.679(2) 0.716(2)
H8_6 H 0.0762 0.6884 0.7370
C18_6 C 0.1711(11) 0.687(2) 0.698(2)
H9_6 H 0.2027 0.7058 0.7053
C19_6 C 0.1521(10) 0.627(2) 0.620(2)
H10_6 H 0.1661 0.5976 0.5712
C20_6 C 0.1417(3) 0.9483(5) 0.7217(5)
H11_6 H 0.1475 0.8991 0.6792
H16_6 H 0.079377 0.584726 0.591573
O6_4 O 0.70945(16) 0.4406(3) 0.0443(4)
N1_6 N 0.9089(2) 0.5853(5) 0.1501(5)
C4_6 C 0.9825(4) 0.7825(7) 0.1077(12)
H2_6 H 0.9629 0.8307 0.1232
C5_6 C 0.9707(3) 0.6880(6) 0.1180(8)
C6_6 C 0.9986(3) 0.6176(6) 0.0906(7)
H3_6 H 0.9907 0.5541 0.0972
C8_6 C 0.9253(3) 0.6659(7) 0.1480(8)
C9_6 C 0.7786(3) 0.6848(6) 0.3267(6)
C10_6 C 0.7984(2) 0.6224(5) 0.2531(5)
C11_6 C 0.8450(3) 0.6318(5) 0.2405(6)
H5_6 H 0.8650 0.6774 0.2783
C12_6 C 0.8621(2) 0.5742(5) 0.1727(6)
C13_6 C 0.8335(2) 0.5028(5) 0.1203(6)
H6_6 H 0.8458 0.4609 0.0785
C14_6 C 0.7867(2) 0.4941(5) 0.1303(5)
C15_6 C 0.7691(2) 0.5545(5) 0.1960(5)
H7_6 H 0.7374 0.5491 0.2015
C16_6 C 0.7529(2) 0.4231(5) 0.0685(5)
H14_6 H 0.905(3) 0.726(6) 0.155(6)
O1_7 O 0.39128(16) 0.3441(4) 0.4948(4)
O2_7 O 0.3880(2) 0.1972(4) 0.5445(7)
O3_4 O 0.69292(18) 0.2422(4) 0.1192(4)
N1_7 N 0.5911(2) 0.0853(5) 0.3499(5)
N2_7 N 0.3539(5) 0.2196(8) 0.7338(8)
N3_7 N 0.3932(9) 0.1229(16) 0.8657(19)
N4_7 N 0.3550(3) 0.4366(6) 0.6770(5)
N5_3 N 0.3708(3) 0.5362(6) 0.8145(8)
C1_7 C 0.4063(2) 0.2604(6) 0.5016(6)
C2_7 C 0.4484(3) 0.2348(6) 0.4551(7)
C3_7 C 0.4762(4) 0.3043(7) 0.4260(11)
H1_7 H 0.4672 0.3676 0.4290
C4_7 C 0.5175(4) 0.2825(7) 0.3923(12)
H2_7 H 0.5371 0.3307 0.3768
C5_7 C 0.5293(3) 0.1880(6) 0.3820(8)
C6_7 C 0.5014(3) 0.1176(6) 0.4094(7)
H3_7 H 0.5093 0.0541 0.4028
C7_7 C 0.4611(3) 0.1413(6) 0.4473(7)
H4_7 H 0.4426 0.0934 0.4675
C8_7 C 0.5747(3) 0.1659(7) 0.3520(8)
C9_7 C 0.7214(3) 0.1848(6) 0.1733(6)
C10_7 C 0.7016(2) 0.1224(5) 0.2469(5)
C11_7 C 0.6550(3) 0.1318(5) 0.2595(6)
H5_7 H 0.6350 0.1774 0.2217
C12_7 C 0.6379(2) 0.0742(5) 0.3273(6)
C13_7 C 0.6665(2) 0.0028(5) 0.3797(6)
C15_7 C 0.7309(2) 0.0545(5) 0.3040(5)
H7_7 H 0.7626 0.0491 0.2985
C17_7 C 0.3953(7) 0.179(2) 0.784(2)
H8_7 H 0.4238 0.1884 0.7630
C18_7 C 0.3289(11) 0.187(2) 0.802(2)
H9_7 H 0.2973 0.2058 0.7947
C19_7 C 0.3479(10) 0.127(2) 0.880(2)
H10_7 H 0.3339 0.0976 0.9288
C20_7 C 0.3583(3) 0.4483(5) 0.7783(5)
H11_7 H 0.3525 0.3991 0.8208
C21_3 C 0.3757(8) 0.583(3) 0.7289(19)
H12_3 H 0.3842 0.6470 0.7266
C22_3 C 0.3662(7) 0.5238(12) 0.647(3)
H13_3 H 0.3673 0.5405 0.5801
H14_7 H 0.595(3) 0.226(6) 0.345(6)
O7_4 O 0.30708(18) 0.2422(4) 0.3808(4)
H15_3 H 0.375379 0.560974 0.88781
H16_7 H 0.420623 0.0847257 0.908427
H6_7 H 0.6542 0.9609 0.4215
C14_7 C 0.7133(2) 0.9941(5) 0.3697(5)
C16_7 C 0.7471(2) 0.9231(5) 0.4315(5)
O1_8 O 0.60872(16) 0.3441(4) 0.0052(4)
N1_8 N 0.4089(2) 0.0853(5) 0.1501(5)
C2_8 C 0.5516(3) 0.2348(6) 0.0449(7)
C3_8 C 0.5238(4) 0.3043(7) 0.0740(11)
H1_8 H 0.5328 0.3676 0.0710
C4_8 C 0.4825(4) 0.2825(7) 0.1077(12)
H2_8 H 0.4629 0.3307 0.1232
C5_8 C 0.4707(3) 0.1880(6) 0.1180(8)
C6_8 C 0.4986(3) 0.1176(6) 0.0906(7)
H3_8 H 0.4907 0.0541 0.0972
C7_8 C 0.5389(3) 0.1413(6) 0.0527(7)
H4_8 H 0.5574 0.0934 0.0325
C8_8 C 0.4253(3) 0.1659(7) 0.1480(8)
C9_8 C 0.2786(3) 0.1848(6) 0.3267(6)
C10_8 C 0.2984(2) 0.1224(5) 0.2531(5)
C11_8 C 0.3450(3) 0.1318(5) 0.2405(6)
H5_8 H 0.3650 0.1774 0.2783
C12_8 C 0.3621(2) 0.0742(5) 0.1727(6)
C13_8 C 0.3335(2) 0.0028(5) 0.1203(6)
C15_8 C 0.2691(2) 0.0545(5) 0.1960(5)
H7_8 H 0.2374 0.0491 0.2015
H14_8 H 0.405(3) 0.226(6) 0.155(6)
O2_8 O 0.6120(2) 0.1972(4) 0.9555(7)
N2_8 N 0.6461(5) 0.2196(8) 0.7662(8)
N3_8 N 0.6068(9) 0.1229(16) 0.6343(19)
N4_8 N 0.6450(3) 0.4366(6) 0.8230(5)
N5_4 N 0.6292(3) 0.5362(6) 0.6855(8)
C1_8 C 0.5937(2) 0.2604(6) 0.9984(6)
C17_8 C 0.6047(7) 0.179(2) 0.716(2)
H8_8 H 0.5762 0.1884 0.7370
C18_8 C 0.6711(11) 0.187(2) 0.698(2)
H9_8 H 0.7027 0.2058 0.7053
C19_8 C 0.6521(10) 0.127(2) 0.620(2)
H10_8 H 0.6661 0.0976 0.5712
C20_8 C 0.6417(3) 0.4483(5) 0.7217(5)
H11_8 H 0.6475 0.3991 0.6792
C21_4 C 0.6243(8) 0.583(3) 0.7711(19)
H12_4 H 0.6158 0.6470 0.7734
C22_4 C 0.6338(7) 0.5238(12) 0.853(3)
H13_4 H 0.6327 0.5405 0.9199
H15_4 H 0.624621 0.560974 0.61219
H16_8 H 0.579377 0.0847257 0.591573
H6_8 H 0.3458 0.9609 0.0785
C14_8 C 0.2867(2) 0.9941(5) 0.1303(5)
C16_8 C 0.2529(2) 0.9231(5) 0.0685(5)
N5_5 N 0.1292(3) 0.9638(6) 0.1855(8)
C21_5 C 0.1243(8) 0.917(3) 0.2711(19)
H12_5 H 0.1158 0.8530 0.2734
C22_5 C 0.1338(7) 0.9762(12) 0.353(3)
H13_5 H 0.1327 0.9595 0.4199
H15_5 H 0.124621 0.939026 0.11219
N5_6 N 0.8708(3) 0.9638(6) 0.3145(8)
C21_6 C 0.8757(8) 0.917(3) 0.2289(19)
H12_6 H 0.8842 0.8530 0.2266
C22_6 C 0.8662(7) 0.9762(12) 0.147(3)
H13_6 H 0.8673 0.9595 0.0801
H15_6 H 0.875379 0.939026 0.38781
N5_7 N 0.8708(3) 0.0362(6) 0.8145(8)
C21_7 C 0.8757(8) 0.083(3) 0.7289(19)
H12_7 H 0.8842 0.1470 0.7266
C22_7 C 0.8662(7) 0.0238(12) 0.647(3)
H13_7 H 0.8673 0.0405 0.5801
H15_7 H 0.875379 0.0609738 0.88781
N5_8 N 0.1292(3) 0.0362(6) 0.6855(8)
C21_8 C 0.1243(8) 0.083(3) 0.7711(19)
H12_8 H 0.1158 0.1470 0.7734
C22_8 C 0.1338(7) 0.0238(12) 0.853(3)
H13_8 H 0.1327 0.0405 0.9199
H15_8 H 0.124621 0.0609738 0.61219
loop_
_geom_bond_atom_site_label_1
_geom_bond_atom_site_label_2
_geom_bond_site_symmetry_1
_geom_bond_site_symmetry_2
Nd1 O1 1_555 1_555
O1 C1 1_555 1_555
O2 Nd1 1_555 1_555
N2 Nd1 1_555 1_555
N3 C17 1_555 1_555
N4 Nd1 1_555 1_555
C1 O2 1_555 1_555
C2 C1 1_555 1_555
C3 C2 1_555 1_555
H1 C3 1_555 1_555
C7 C2 1_555 1_555
H4 C7 1_555 1_555
C17 N2 1_555 1_555
H8 C17 1_555 1_555
C18 N2 1_555 1_555
H9 C18 1_555 1_555
C19 N3 1_555 1_555
H10 C19 1_555 1_555
C20 N4 1_555 1_555
H11 C20 1_555 1_555
O7 Nd1 1_555 1_555
O8 Nd1 1_555 1_555
O9 Nd1 1_555 1_555
O10 Nd1 1_555 1_555
O11 Nd1 1_555 1_555
C18 C19 1_555 1_555
N3 H16 1_555 1_555
O3 C9 1_555 1_555
O4 C9 1_555 1_555
O5 C16 1_555 1_555
O6 C16 1_555 1_555
N1 C8 1_555 1_555
H2 C4 1_555 1_555
C5 C4 1_555 1_555
C6 C5 1_555 1_555
H3 C6 1_555 1_555
C8 C5 1_555 1_555
C9 C10 1_555 1_555
C10 C11 1_555 1_555
C11 H5 1_555 1_555
C12 N1 1_555 1_555
C13 C12 1_555 1_555
H6 C13 1_555 1_555
C14 C13 1_555 1_555
C15 C10 1_555 1_555
H7 C15 1_555 1_555
C16 C14 1_555 1_555
H14 C8 1_555 1_555
Nd3 O4 1_555 1_555
Nd4 O5 1_555 1_555
Nd5 O5 1_555 1_555
O6 Nd4 1_555 1_555
C11 C12 1_555 1_555
C14 C15 1_555 1_555
O7 C9_2 1_555 1_555
O4_2 C9_2 1_555 1_555
O5_2 C16_2 1_555 1_555
O6_2 C16_2 1_555 1_555
N1_2 C8_2 1_555 1_555
H2_2 C4_2 1_555 1_555
C5_2 C4_2 1_555 1_555
C6_2 C5_2 1_555 1_555
H3_2 C6_2 1_555 1_555
C8_2 C5_2 1_555 1_555
C9_2 C10_2 1_555 1_555
C10_2 C11_2 1_555 1_555
C11_2 H5_2 1_555 1_555
C12_2 N1_2 1_555 1_555
C13_2 C12_2 1_555 1_555
H6_2 C13_2 1_555 1_555
C14_2 C13_2 1_555 1_555
C15_2 C10_2 1_555 1_555
H7_2 C15_2 1_555 1_555
C16_2 C14_2 1_555 1_555
H14_2 C8_2 1_555 1_555
Nd3_2 O4_2 1_555 1_555
Nd5_2 O5_2 1_555 1_555
C11_2 C12_2 1_555 1_555
C14_2 C15_2 1_555 1_555
O2_2 Nd2 1_555 1_555
N2_2 Nd2 1_555 1_555
N3_2 C17_2 1_555 1_555
N4_2 Nd2 1_555 1_555
C1_2 O2_2 1_555 1_555
C17_2 N2_2 1_555 1_555
H8_2 C17_2 1_555 1_555
C18_2 N2_2 1_555 1_555
H9_2 C18_2 1_555 1_555
C19_2 N3_2 1_555 1_555
H10_2 C19_2 1_555 1_555
C20_2 N4_2 1_555 1_555
H11_2 C20_2 1_555 1_555
O8_2 Nd2 1_555 1_555
O10_2 Nd2 1_555 1_555
C18_2 C19_2 1_555 1_555
N3_2 H16_2 1_555 1_555
C3_2 C2_2 1_555 1_555
H1_2 C3_2 1_555 1_555
C7_2 C2_2 1_555 1_555
H4_2 C7_2 1_555 1_555
O9 C16_3 1_555 1_555
O11 C16_3 1_555 1_555
C16_3 C14_3 1_555 1_555
Nd3_2 O9 1_555 1_555
Nd4 O1_3 1_555 1_555
O1_3 C1_3 1_555 1_555
O2_3 Nd4 1_555 1_555
O3_2 C9_3 1_555 1_555
O4_3 C9_3 1_555 1_555
N1_3 C8_3 1_555 1_555
N2_3 Nd4 1_555 1_555
N3_3 C17_3 1_555 1_555
N4_3 Nd4 1_555 1_555
N5 C20_3 1_555 1_555
C1_3 O2_3 1_555 1_555
C2_3 C1_3 1_555 1_555
C3_3 C2_3 1_555 1_555
H1_3 C3_3 1_555 1_555
C4_3 C3_3 1_555 1_555
H2_3 C4_3 1_555 1_555
C5_3 C4_3 1_555 1_555
C6_3 C5_3 1_555 1_555
H3_3 C6_3 1_555 1_555
C7_3 C2_3 1_555 1_555
H4_3 C7_3 1_555 1_555
C8_3 C5_3 1_555 1_555
C9_3 C10_3 1_555 1_555
C10_3 C11_3 1_555 1_555
C11_3 H5_3 1_555 1_555
C12_3 N1_3 1_555 1_555
C13_3 C12_3 1_555 1_555
C15_3 C10_3 1_555 1_555
H7_3 C15_3 1_555 1_555
C17_3 N2_3 1_555 1_555
H8_3 C17_3 1_555 1_555
C18_3 N2_3 1_555 1_555
H9_3 C18_3 1_555 1_555
C19_3 N3_3 1_555 1_555
H10_3 C19_3 1_555 1_555
C20_3 N4_3 1_555 1_555
H11_3 C20_3 1_555 1_555
C21 N5 1_555 1_555
H12 C21 1_555 1_555
C22 N4_3 1_555 1_555
H13 C22 1_555 1_555
H14_3 C8_3 1_555 1_555
Nd5_2 O4_3 1_555 1_555
O7_2 Nd4 1_555 1_555
O8_3 Nd4 1_555 1_555
O10_3 Nd4 1_555 1_555
C6_3 C7_3 1_555 1_555
C11_3 C12_3 1_555 1_555
C18_3 C19_3 1_555 1_555
C21 C22 1_555 1_555
N5 H15 1_555 1_555
N3_3 H16_3 1_555 1_555
O9_2 C16_4 1_555 1_555
O11_2 C16_4 1_555 1_555
C16_4 C14_4 1_555 1_555
Nd3 O9_2 1_555 1_555
O2_4 Nd4_2 1_555 1_555
N2_4 Nd4_2 1_555 1_555
N3_4 C17_4 1_555 1_555
N4_4 Nd4_2 1_555 1_555
N5_2 C20_4 1_555 1_555
C1_4 O2_4 1_555 1_555
C17_4 N2_4 1_555 1_555
H8_4 C17_4 1_555 1_555
C18_4 N2_4 1_555 1_555
H9_4 C18_4 1_555 1_555
C19_4 N3_4 1_555 1_555
H10_4 C19_4 1_555 1_555
C20_4 N4_4 1_555 1_555
H11_4 C20_4 1_555 1_555
C21_2 N5_2 1_555 1_555
H12_2 C21_2 1_555 1_555
C22_2 N4_4 1_555 1_555
H13_2 C22_2 1_555 1_555
O8_4 Nd4_2 1_555 1_555
O10_4 Nd4_2 1_555 1_555
C18_4 C19_4 1_555 1_555
C21_2 C22_2 1_555 1_555
N5_2 H15_2 1_555 1_555
N3_4 H16_4 1_555 1_555
O7_2 C9_4 1_555 1_555
O4_4 C9_4 1_555 1_555
N1_4 C8_4 1_555 1_555
C3_4 C2_4 1_555 1_555
H1_4 C3_4 1_555 1_555
C4_4 C3_4 1_555 1_555
H2_4 C4_4 1_555 1_555
C5_4 C4_4 1_555 1_555
C6_4 C5_4 1_555 1_555
H3_4 C6_4 1_555 1_555
C7_4 C2_4 1_555 1_555
H4_4 C7_4 1_555 1_555
C8_4 C5_4 1_555 1_555
C9_4 C10_4 1_555 1_555
C10_4 C11_4 1_555 1_555
C11_4 H5_4 1_555 1_555
C12_4 N1_4 1_555 1_555
C13_4 C12_4 1_555 1_555
C15_4 C10_4 1_555 1_555
H7_4 C15_4 1_555 1_555
H14_4 C8_4 1_555 1_555
Nd5 O4_4 1_555 1_555
C6_4 C7_4 1_555 1_555
C11_4 C12_4 1_555 1_555
O3_3 C9_5 1_555 1_555
O8_4 C9_5 1_555 1_555
O10 C16_5 1_555 1_555
O6_3 C16_5 1_555 1_555
N1_5 C8_5 1_555 1_555
H2_5 C4_5 1_555 1_555
C5_5 C4_5 1_555 1_555
C6_5 C5_5 1_555 1_555
H3_5 C6_5 1_555 1_555
C8_5 C5_5 1_555 1_555
C9_5 C10_5 1_555 1_555
C10_5 C11_5 1_555 1_555
C11_5 H5_5 1_555 1_555
C12_5 N1_5 1_555 1_555
C13_5 C12_5 1_555 1_555
H6_5 C13_5 1_555 1_555
C14_5 C13_5 1_555 1_555
C15_5 C10_5 1_555 1_555
H7_5 C15_5 1_555 1_555
C16_5 C14_5 1_555 1_555
H14_5 C8_5 1_555 1_555
Nd3_2 O10 1_555 1_555
O6_3 Nd3_2 1_555 1_555
C11_5 C12_5 1_555 1_555
C14_5 C15_5 1_555 1_555
Nd5 O1_5 1_555 1_555
O1_5 C1_5 1_555 1_555
O2_5 Nd5 1_555 1_555
N2_5 Nd5 1_555 1_555
N3_5 C17_5 1_555 1_555
N4_5 Nd5 1_555 1_555
C1_5 O2_5 1_555 1_555
C2_5 C1_5 1_555 1_555
C3_5 C2_5 1_555 1_555
H1_5 C3_5 1_555 1_555
C7_5 C2_5 1_555 1_555
H4_5 C7_5 1_555 1_555
C17_5 N2_5 1_555 1_555
H8_5 C17_5 1_555 1_555
C18_5 N2_5 1_555 1_555
H9_5 C18_5 1_555 1_555
C19_5 N3_5 1_555 1_555
H10_5 C19_5 1_555 1_555
C20_5 N4_5 1_555 1_555
H11_5 C20_5 1_555 1_555
O7_3 Nd5 1_555 1_555
O10_3 Nd5 1_555 1_555
O11_3 Nd5 1_555 1_555
C18_5 C19_5 1_555 1_555
N3_5 H16_5 1_555 1_555
C3_6 C2_6 1_555 1_555
H1_6 C3_6 1_555 1_555
C7_6 C2_6 1_555 1_555
H4_6 C7_6 1_555 1_555
O2_6 Nd5_2 1_555 1_555
N2_6 Nd5_2 1_555 1_555
N3_6 C17_6 1_555 1_555
N4_6 Nd5_2 1_555 1_555
C1_6 O2_6 1_555 1_555
C17_6 N2_6 1_555 1_555
H8_6 C17_6 1_555 1_555
C18_6 N2_6 1_555 1_555
H9_6 C18_6 1_555 1_555
C19_6 N3_6 1_555 1_555
H10_6 C19_6 1_555 1_555
C20_6 N4_6 1_555 1_555
H11_6 C20_6 1_555 1_555
C18_6 C19_6 1_555 1_555
N3_6 H16_6 1_555 1_555
O7_3 C9_6 1_555 1_555
O8_3 C9_6 1_555 1_555
O10_2 C16_6 1_555 1_555
O6_4 C16_6 1_555 1_555
N1_6 C8_6 1_555 1_555
H2_6 C4_6 1_555 1_555
C5_6 C4_6 1_555 1_555
C6_6 C5_6 1_555 1_555
H3_6 C6_6 1_555 1_555
C8_6 C5_6 1_555 1_555
C9_6 C10_6 1_555 1_555
C10_6 C11_6 1_555 1_555
C11_6 H5_6 1_555 1_555
C12_6 N1_6 1_555 1_555
C13_6 C12_6 1_555 1_555
H6_6 C13_6 1_555 1_555
C14_6 C13_6 1_555 1_555
C15_6 C10_6 1_555 1_555
H7_6 C15_6 1_555 1_555
C16_6 C14_6 1_555 1_555
H14_6 C8_6 1_555 1_555
C11_6 C12_6 1_555 1_555
C14_6 C15_6 1_555 1_555
Nd3_2 O1_7 1_555 1_555
O1_7 C1_7 1_555 1_555
O2_7 Nd3_2 1_555 1_555
O3_4 C9_7 1_555 1_555
O8_2 C9_7 1_555 1_555
N1_7 C8_7 1_555 1_555
N2_7 Nd3_2 1_555 1_555
N3_7 C17_7 1_555 1_555
N4_7 Nd3_2 1_555 1_555
N5_3 C20_7 1_555 1_555
C1_7 O2_7 1_555 1_555
C2_7 C1_7 1_555 1_555
C3_7 C2_7 1_555 1_555
H1_7 C3_7 1_555 1_555
C4_7 C3_7 1_555 1_555
H2_7 C4_7 1_555 1_555
C5_7 C4_7 1_555 1_555
C6_7 C5_7 1_555 1_555
H3_7 C6_7 1_555 1_555
C7_7 C2_7 1_555 1_555
H4_7 C7_7 1_555 1_555
C8_7 C5_7 1_555 1_555
C9_7 C10_7 1_555 1_555
C10_7 C11_7 1_555 1_555
C11_7 H5_7 1_555 1_555
C12_7 N1_7 1_555 1_555
C13_7 C12_7 1_555 1_555
C15_7 C10_7 1_555 1_555
H7_7 C15_7 1_555 1_555
C17_7 N2_7 1_555 1_555
H8_7 C17_7 1_555 1_555
C18_7 N2_7 1_555 1_555
H9_7 C18_7 1_555 1_555
C19_7 N3_7 1_555 1_555
H10_7 C19_7 1_555 1_555
C20_7 N4_7 1_555 1_555
H11_7 C20_7 1_555 1_555
C21_3 N5_3 1_555 1_555
H12_3 C21_3 1_555 1_555
C22_3 N4_7 1_555 1_555
H13_3 C22_3 1_555 1_555
H14_7 C8_7 1_555 1_555
O7_4 Nd3_2 1_555 1_555
C6_7 C7_7 1_555 1_555
C11_7 C12_7 1_555 1_555
C18_7 C19_7 1_555 1_555
C21_3 C22_3 1_555 1_555
N5_3 H15_3 1_555 1_555
N3_7 H16_7 1_555 1_555
O10_3 C16_7 1_555 1_555
O11_3 C16_7 1_555 1_555
C16_7 C14_7 1_555 1_555
O7_4 C9_8 1_555 1_555
O8 C9_8 1_555 1_555
N1_8 C8_8 1_555 1_555
C3_8 C2_8 1_555 1_555
H1_8 C3_8 1_555 1_555
C4_8 C3_8 1_555 1_555
H2_8 C4_8 1_555 1_555
C5_8 C4_8 1_555 1_555
C6_8 C5_8 1_555 1_555
H3_8 C6_8 1_555 1_555
C7_8 C2_8 1_555 1_555
H4_8 C7_8 1_555 1_555
C8_8 C5_8 1_555 1_555
C9_8 C10_8 1_555 1_555
C10_8 C11_8 1_555 1_555
C11_8 H5_8 1_555 1_555
C12_8 N1_8 1_555 1_555
C13_8 C12_8 1_555 1_555
C15_8 C10_8 1_555 1_555
H7_8 C15_8 1_555 1_555
H14_8 C8_8 1_555 1_555
C6_8 C7_8 1_555 1_555
C11_8 C12_8 1_555 1_555
O2_8 Nd3 1_555 1_555
N2_8 Nd3 1_555 1_555
N3_8 C17_8 1_555 1_555
N4_8 Nd3 1_555 1_555
N5_4 C20_8 1_555 1_555
C1_8 O2_8 1_555 1_555
C17_8 N2_8 1_555 1_555
H8_8 C17_8 1_555 1_555
C18_8 N2_8 1_555 1_555
H9_8 C18_8 1_555 1_555
C19_8 N3_8 1_555 1_555
H10_8 C19_8 1_555 1_555
C20_8 N4_8 1_555 1_555
H11_8 C20_8 1_555 1_555
C21_4 N5_4 1_555 1_555
H12_4 C21_4 1_555 1_555
C22_4 N4_8 1_555 1_555
H13_4 C22_4 1_555 1_555
C18_8 C19_8 1_555 1_555
C21_4 C22_4 1_555 1_555
N5_4 H15_4 1_555 1_555
N3_8 H16_8 1_555 1_555
O10_4 C16_8 1_555 1_555
O11_4 C16_8 1_555 1_555
C16_8 C14_8 1_555 1_555
C21_5 N5_5 1_555 1_555
H12_5 C21_5 1_555 1_555
H13_5 C22_5 1_555 1_555
C21_5 C22_5 1_555 1_555
N5_5 H15_5 1_555 1_555
C21_6 N5_6 1_555 1_555
H12_6 C21_6 1_555 1_555
H13_6 C22_6 1_555 1_555
C21_6 C22_6 1_555 1_555
N5_6 H15_6 1_555 1_555
C21_7 N5_7 1_555 1_555
H12_7 C21_7 1_555 1_555
H13_7 C22_7 1_555 1_555
C21_7 C22_7 1_555 1_555
N5_7 H15_7 1_555 1_555
C21_8 N5_8 1_555 1_555
H12_8 C21_8 1_555 1_555
H13_8 C22_8 1_555 1_555
C21_8 C22_8 1_555 1_555
N5_8 H15_8 1_555 1_555

#END
