
###############################################################################
#
# This file contains modified crystal structure data generated from the
# MOF subset of the Cambridge Structural Database (CSD) v543 
# hosted by the Cambridge Crystallographic Data Centre (CCDC).
#
# This work is licensed under the Creative Commons
# Attribution-NonCommercial-ShareAlike 4.0 International License.
# To view a copy of this license, visit
# http://creativecommons.org/licenses/by-nc-sa/4.0/
# or send a letter to
# Creative Commons, PO Box 1866, Mountain View, CA 94042, USA.
#
# CIF created using the CSD Python API on 29 September 2022
# The structure has been converted into the P1 space group
# The structure has a 3D framework
# The original CSD entry GEDREO is in the monoclinic crystal system
# The framework has been calculated to contain at least 10.0% void space
# The void calculation uses a probe of radius 1.32A, grid spacing 0.4
# H atom positions have been added when not included in the experimental data
#
###############################################################################

data_GEDREO
_chemical_formula_moiety         '(C152 H112 N24 Nd8 O56)n'
_symmetry_cell_setting           triclinic
_symmetry_space_group_name_H-M   'P 1'
_symmetry_Int_Tables_number      1
_space_group_name_Hall           'P 1'
loop_
_symmetry_equiv_pos_site_id
_symmetry_equiv_pos_as_xyz
1 x,y,z
_cell_length_a                   29.8458(10)
_cell_length_b                   12.5843(5)
_cell_length_c                   14.1180(5)
_cell_angle_alpha                90
_cell_angle_beta                 95.627(3)
_cell_angle_gamma                90
_cell_volume                     5277.01
loop_
_atom_site_label
_atom_site_type_symbol
_atom_site_fract_x
_atom_site_fract_y
_atom_site_fract_z
N3 N 0.34405(17) 0.0758(4) 0.7580(3)
C17 C 0.3200(2) 0.0257(4) 0.6850(4)
H8 H 0.2894 0.0360 0.6681
C18 C 0.3873(2) 0.0403(4) 0.7599(4)
H9 H 0.4117 0.0603 0.8023
H14 H 0.332156 0.129627 0.802869
Nd1 Nd 0.314202(8) 0.801325(19) 0.538731(17)
O1 O 0.38470(12) 0.8613(3) 0.4702(3)
O2 O 0.37642(14) 0.6877(3) 0.4835(3)
O3 O 0.72860(11) 0.3624(3) 0.4809(2)
O4 O 0.78518(12) 0.4720(3) 0.4668(2)
O5 O 0.76710(12) 0.6902(2) 0.1701(2)
O6 O 0.70196(12) 0.7746(3) 0.1347(2)
O7 O 0.35998(13) 0.7215(3) 0.6748(3)
N1 N 0.59610(15) 0.6054(3) 0.3565(3)
N2 N 0.34562(15) 0.9601(3) 0.6410(3)
C1 C 0.39926(19) 0.7681(4) 0.4626(4)
C2 C 0.44505(19) 0.7507(5) 0.4299(4)
C3 C 0.4584(2) 0.6503(5) 0.4062(5)
H1 H 0.4384 0.5939 0.4076
C4 C 0.5010(2) 0.6323(5) 0.3803(5)
H2 H 0.5092 0.5641 0.3633
C5 C 0.5320(2) 0.7145(5) 0.3793(4)
C6 C 0.5180(2) 0.8154(5) 0.4009(5)
H3 H 0.5379 0.8718 0.3981
C7 C 0.47515(19) 0.8354(5) 0.4267(4)
H4 H 0.4666 0.9040 0.4416
C8 C 0.5789(2) 0.6976(5) 0.3605(4)
C9 C 0.74437(17) 0.4472(4) 0.4485(3)
C10 C 0.71477(17) 0.5202(4) 0.3871(3)
C11 C 0.66890(17) 0.5257(4) 0.3968(3)
H5 H 0.6562 0.4822 0.4403
C12 C 0.64192(17) 0.5973(4) 0.3404(3)
C13 C 0.66102(17) 0.6548(4) 0.2699(3)
H6 H 0.6428 0.6985 0.2293
C14 C 0.70618(17) 0.6481(4) 0.2594(3)
C15 C 0.73381(17) 0.5820(4) 0.3195(3)
H7 H 0.7646 0.5792 0.3145
C16 C 0.72718(19) 0.7079(4) 0.1825(4)
C19 C 0.38747(19) 0.9694(5) 0.6871(4)
H10 H 0.4127 0.9325 0.6713
H11 H 0.597(2) 0.758(6) 0.355(5)
Nd2 Nd 0.814202(8) 0.301325(19) 0.538731(17)
Nd3 Nd 0.685798(8) 0.198675(19) 0.461269(17)
Nd4 Nd 0.814202(8) 0.698675(19) 0.038731(17)
O8 O 0.22860(11) 0.8624(3) 0.4809(2)
O9 O 0.27140(11) 0.6376(3) 0.5191(2)
O10 O 0.28518(12) 0.9720(3) 0.4668(2)
O11 O 0.26710(12) 0.8098(2) 0.6701(2)
O12 O 0.29804(12) 0.7746(3) 0.3653(2)
H12 H 0.378518 0.777453 0.709277
H13 H 0.339886 0.688488 0.718532
Nd5 Nd 0.685798(8) 0.801325(19) 0.961269(17)
O1_2 O 0.61530(12) 0.8613(3) 0.0298(3)
O2_2 O 0.62358(14) 0.6877(3) 0.0165(3)
O3_2 O 0.27140(11) 0.3624(3) 0.0191(2)
O4_2 O 0.21482(12) 0.4720(3) 0.0332(2)
O5_2 O 0.23290(12) 0.6902(2) 0.3299(2)
N1_2 N 0.40390(15) 0.6054(3) 0.1435(3)
C1_2 C 0.60074(19) 0.7681(4) 0.0374(4)
C2_2 C 0.55495(19) 0.7507(5) 0.0701(4)
C3_2 C 0.5416(2) 0.6503(5) 0.0938(5)
H1_2 H 0.5616 0.5939 0.0924
C4_2 C 0.4990(2) 0.6323(5) 0.1197(5)
H2_2 H 0.4908 0.5641 0.1367
C5_2 C 0.4680(2) 0.7145(5) 0.1207(4)
C6_2 C 0.4820(2) 0.8154(5) 0.0991(5)
H3_2 H 0.4621 0.8718 0.1019
C7_2 C 0.52485(19) 0.8354(5) 0.0733(4)
H4_2 H 0.5334 0.9040 0.0584
C8_2 C 0.4211(2) 0.6976(5) 0.1395(4)
C9_2 C 0.25563(17) 0.4472(4) 0.0515(3)
C10_2 C 0.28523(17) 0.5202(4) 0.1129(3)
C11_2 C 0.33110(17) 0.5257(4) 0.1032(3)
H5_2 H 0.3438 0.4822 0.0597
C12_2 C 0.35808(17) 0.5973(4) 0.1596(3)
C13_2 C 0.33898(17) 0.6548(4) 0.2301(3)
H6_2 H 0.3572 0.6985 0.2707
C14_2 C 0.29382(17) 0.6481(4) 0.2406(3)
C15_2 C 0.26619(17) 0.5820(4) 0.1805(3)
H7_2 H 0.2354 0.5792 0.1855
C16_2 C 0.27282(19) 0.7079(4) 0.3175(4)
H11_2 H 0.403(2) 0.758(6) 0.145(5)
Nd3_2 Nd 0.314202(8) 0.198675(19) 0.038731(17)
Nd4_2 Nd 0.185798(8) 0.698675(19) 0.461269(17)
O8_2 O 0.77140(11) 0.8624(3) 0.0191(2)
O10_2 O 0.71482(12) 0.9720(3) 0.0332(2)
O7_2 O 0.64002(13) 0.7215(3) 0.8252(3)
N2_2 N 0.65438(15) 0.9601(3) 0.8590(3)
C19_2 C 0.61253(19) 0.9694(5) 0.8129(4)
H10_2 H 0.5873 0.9325 0.8287
Nd2_2 Nd 0.185798(8) 0.301325(19) 0.961269(17)
O9_2 O 0.72860(11) 0.6376(3) 0.9809(2)
O11_2 O 0.73290(12) 0.8098(2) 0.8299(2)
H12_2 H 0.621482 0.777453 0.790723
H13_2 H 0.660114 0.688488 0.781468
O5_3 O 0.26710(12) 0.1902(2) 0.1701(2)
O6_2 O 0.20196(12) 0.2746(3) 0.1347(2)
N1_3 N 0.09610(15) 0.1054(3) 0.3565(3)
C4_3 C 0.0010(2) 0.1323(5) 0.3803(5)
H2_3 H 0.0092 0.0641 0.3633
C5_3 C 0.0320(2) 0.2145(5) 0.3793(4)
C6_3 C 0.0180(2) 0.3154(5) 0.4009(5)
H3_3 H 0.0379 0.3718 0.3981
C8_3 C 0.0789(2) 0.1976(5) 0.3605(4)
C10_3 C 0.21477(17) 0.0202(4) 0.3871(3)
C11_3 C 0.16890(17) 0.0257(4) 0.3968(3)
C12_3 C 0.14192(17) 0.0973(4) 0.3404(3)
C13_3 C 0.16102(17) 0.1548(4) 0.2699(3)
H6_3 H 0.1428 0.1985 0.2293
C14_3 C 0.20618(17) 0.1481(4) 0.2594(3)
C15_3 C 0.23381(17) 0.0820(4) 0.3195(3)
H7_3 H 0.2646 0.0792 0.3145
C16_3 C 0.22718(19) 0.2079(4) 0.1825(4)
H11_3 H 0.097(2) 0.258(6) 0.355(5)
C9_3 C 0.24437(17) 0.9472(4) 0.4485(3)
H5_3 H 0.1562 0.9822 0.4403
O1_3 O 0.88470(12) 0.3613(3) 0.4702(3)
O2_3 O 0.87642(14) 0.1877(3) 0.4835(3)
O7_3 O 0.85998(13) 0.2215(3) 0.6748(3)
N2_3 N 0.84562(15) 0.4601(3) 0.6410(3)
N3_2 N 0.84405(17) 0.5758(4) 0.7580(3)
C1_3 C 0.89926(19) 0.2681(4) 0.4626(4)
C2_3 C 0.94505(19) 0.2507(5) 0.4299(4)
C3_3 C 0.9584(2) 0.1503(5) 0.4062(5)
H1_3 H 0.9384 0.0939 0.4076
C7_3 C 0.97515(19) 0.3354(5) 0.4267(4)
H4_3 H 0.9666 0.4040 0.4416
C17_2 C 0.8200(2) 0.5257(4) 0.6850(4)
H8_2 H 0.7894 0.5360 0.6681
C18_2 C 0.8873(2) 0.5403(4) 0.7599(4)
H9_2 H 0.9117 0.5603 0.8023
C19_3 C 0.88747(19) 0.4694(5) 0.6871(4)
H10_3 H 0.9127 0.4325 0.6713
O9_3 O 0.77140(11) 0.1376(3) 0.5191(2)
O11_3 O 0.76710(12) 0.3098(2) 0.6701(2)
O12_2 O 0.79804(12) 0.2746(3) 0.3653(2)
H12_3 H 0.878518 0.277453 0.709277
H13_3 H 0.839886 0.188488 0.718532
H14_2 H 0.832156 0.629627 0.802869
O1_4 O 0.11530(12) 0.3613(3) 0.0298(3)
O2_4 O 0.12358(14) 0.1877(3) 0.0165(3)
C1_4 C 0.10074(19) 0.2681(4) 0.0374(4)
C2_4 C 0.05495(19) 0.2507(5) 0.0701(4)
C3_4 C 0.0416(2) 0.1503(5) 0.0938(5)
H1_4 H 0.0616 0.0939 0.0924
C7_4 C 0.02485(19) 0.3354(5) 0.0733(4)
H4_4 H 0.0334 0.4040 0.0584
O7_4 O 0.14002(13) 0.2215(3) 0.8252(3)
N2_4 N 0.15438(15) 0.4601(3) 0.8590(3)
N3_3 N 0.15595(17) 0.5758(4) 0.7420(3)
C17_3 C 0.1800(2) 0.5257(4) 0.8150(4)
H8_3 H 0.2106 0.5360 0.8319
C18_3 C 0.1127(2) 0.5403(4) 0.7401(4)
H9_3 H 0.0883 0.5603 0.6977
C19_4 C 0.11253(19) 0.4694(5) 0.8129(4)
H10_4 H 0.0873 0.4325 0.8287
O9_4 O 0.22860(11) 0.1376(3) 0.9809(2)
O11_4 O 0.23290(12) 0.3098(2) 0.8299(2)
H12_4 H 0.121482 0.277453 0.790723
H13_4 H 0.160114 0.188488 0.781468
H14_3 H 0.167844 0.629627 0.697131
O5_4 O 0.73290(12) 0.1902(2) 0.3299(2)
N1_4 N 0.90390(15) 0.1054(3) 0.1435(3)
C4_4 C 0.9990(2) 0.1323(5) 0.1197(5)
H2_4 H 0.9908 0.0641 0.1367
C5_4 C 0.9680(2) 0.2145(5) 0.1207(4)
C6_4 C 0.9820(2) 0.3154(5) 0.0991(5)
H3_4 H 0.9621 0.3718 0.1019
C8_4 C 0.9211(2) 0.1976(5) 0.1395(4)
C10_4 C 0.78523(17) 0.0202(4) 0.1129(3)
C11_4 C 0.83110(17) 0.0257(4) 0.1032(3)
C12_4 C 0.85808(17) 0.0973(4) 0.1596(3)
C13_4 C 0.83898(17) 0.1548(4) 0.2301(3)
H6_4 H 0.8572 0.1985 0.2707
C14_4 C 0.79382(17) 0.1481(4) 0.2406(3)
C15_4 C 0.76619(17) 0.0820(4) 0.1805(3)
H7_4 H 0.7354 0.0792 0.1855
C16_4 C 0.77282(19) 0.2079(4) 0.3175(4)
H11_4 H 0.903(2) 0.258(6) 0.145(5)
C9_4 C 0.75563(17) 0.9472(4) 0.0515(3)
H5_4 H 0.8438 0.9822 0.0597
O1_5 O 0.61530(12) 0.1387(3) 0.5298(3)
O2_5 O 0.62358(14) 0.3123(3) 0.5165(3)
O4_3 O 0.21482(12) 0.5280(3) 0.5332(2)
O6_3 O 0.29804(12) 0.2254(3) 0.8653(2)
O7_5 O 0.64002(13) 0.2785(3) 0.3252(3)
N1_5 N 0.40390(15) 0.3946(3) 0.6435(3)
N2_5 N 0.65438(15) 0.0399(3) 0.3590(3)
C1_5 C 0.60074(19) 0.2319(4) 0.5374(4)
C2_5 C 0.55495(19) 0.2493(5) 0.5701(4)
C3_5 C 0.5416(2) 0.3497(5) 0.5938(5)
H1_5 H 0.5616 0.4061 0.5924
C4_5 C 0.4990(2) 0.3677(5) 0.6197(5)
H2_5 H 0.4908 0.4359 0.6367
C5_5 C 0.4680(2) 0.2855(5) 0.6207(4)
C6_5 C 0.4820(2) 0.1846(5) 0.5991(5)
H3_5 H 0.4621 0.1282 0.6019
C7_5 C 0.52485(19) 0.1646(5) 0.5733(4)
H4_5 H 0.5334 0.0960 0.5584
C8_5 C 0.4211(2) 0.3024(5) 0.6395(4)
C9_5 C 0.25563(17) 0.5528(4) 0.5515(3)
C10_5 C 0.28523(17) 0.4798(4) 0.6129(3)
C11_5 C 0.33110(17) 0.4743(4) 0.6032(3)
H5_5 H 0.3438 0.5178 0.5597
C12_5 C 0.35808(17) 0.4027(4) 0.6596(3)
C13_5 C 0.33898(17) 0.3452(4) 0.7301(3)
H6_5 H 0.3572 0.3015 0.7707
C14_5 C 0.29382(17) 0.3519(4) 0.7406(3)
C15_5 C 0.26619(17) 0.4180(4) 0.6805(3)
H7_5 H 0.2354 0.4208 0.6855
C16_5 C 0.27282(19) 0.2921(4) 0.8175(4)
C19_5 C 0.61253(19) 0.0306(5) 0.3129(4)
H10_5 H 0.5873 0.0675 0.3287
H11_5 H 0.403(2) 0.242(6) 0.645(5)
O10_3 O 0.71482(12) 0.0280(3) 0.5332(2)
O12_3 O 0.70196(12) 0.2254(3) 0.6347(2)
H12_5 H 0.621482 0.222547 0.290723
H13_5 H 0.660114 0.311512 0.281468
O7_6 O 0.35998(13) 0.2785(3) 0.1748(3)
N2_6 N 0.34562(15) 0.0399(3) 0.1410(3)
C19_6 C 0.38747(19) 0.0306(5) 0.1871(4)
H10_6 H 0.4127 0.0675 0.1713
H12_6 H 0.378518 0.222547 0.209277
H13_6 H 0.339886 0.311512 0.218532
O1_6 O 0.38470(12) 0.1387(3) 0.9702(3)
O2_6 O 0.37642(14) 0.3123(3) 0.9835(3)
O4_4 O 0.78518(12) 0.5280(3) 0.9668(2)
N1_6 N 0.59610(15) 0.3946(3) 0.8565(3)
C1_6 C 0.39926(19) 0.2319(4) 0.9626(4)
C2_6 C 0.44505(19) 0.2493(5) 0.9299(4)
C3_6 C 0.4584(2) 0.3497(5) 0.9062(5)
H1_6 H 0.4384 0.4061 0.9076
C4_6 C 0.5010(2) 0.3677(5) 0.8803(5)
H2_6 H 0.5092 0.4359 0.8633
C5_6 C 0.5320(2) 0.2855(5) 0.8793(4)
C6_6 C 0.5180(2) 0.1846(5) 0.9009(5)
H3_6 H 0.5379 0.1282 0.8981
C7_6 C 0.47515(19) 0.1646(5) 0.9267(4)
H4_6 H 0.4666 0.0960 0.9416
C8_6 C 0.5789(2) 0.3024(5) 0.8605(4)
C9_6 C 0.74437(17) 0.5528(4) 0.9485(3)
C10_6 C 0.71477(17) 0.4798(4) 0.8871(3)
C11_6 C 0.66890(17) 0.4743(4) 0.8968(3)
H5_6 H 0.6562 0.5178 0.9403
C12_6 C 0.64192(17) 0.4027(4) 0.8404(3)
C13_6 C 0.66102(17) 0.3452(4) 0.7699(3)
H6_6 H 0.6428 0.3015 0.7293
C14_6 C 0.70618(17) 0.3519(4) 0.7594(3)
C15_6 C 0.73381(17) 0.4180(4) 0.8195(3)
H7_6 H 0.7646 0.4208 0.8145
C16_6 C 0.72718(19) 0.2921(4) 0.6825(4)
H11_6 H 0.597(2) 0.242(6) 0.855(5)
O10_4 O 0.28518(12) 0.0280(3) 0.9668(2)
O1_7 O 0.11530(12) 0.6387(3) 0.5298(3)
O2_7 O 0.12358(14) 0.8123(3) 0.5165(3)
O7_7 O 0.14002(13) 0.7785(3) 0.3252(3)
N2_7 N 0.15438(15) 0.5399(3) 0.3590(3)
N3_4 N 0.15595(17) 0.4242(4) 0.2420(3)
C1_7 C 0.10074(19) 0.7319(4) 0.5374(4)
C2_7 C 0.05495(19) 0.7493(5) 0.5701(4)
C3_7 C 0.0416(2) 0.8497(5) 0.5938(5)
H1_7 H 0.0616 0.9061 0.5924
C7_7 C 0.02485(19) 0.6646(5) 0.5733(4)
H4_7 H 0.0334 0.5960 0.5584
C17_4 C 0.1800(2) 0.4743(4) 0.3150(4)
H8_4 H 0.2106 0.4640 0.3319
C18_4 C 0.1127(2) 0.4597(4) 0.2401(4)
H9_4 H 0.0883 0.4397 0.1977
C19_7 C 0.11253(19) 0.5306(5) 0.3129(4)
H10_7 H 0.0873 0.5675 0.3287
O12_4 O 0.20196(12) 0.7254(3) 0.6347(2)
H12_7 H 0.121482 0.722547 0.290723
H13_7 H 0.160114 0.811512 0.281468
H14_4 H 0.167844 0.370373 0.197131
C9_7 C 0.75563(17) 0.0528(4) 0.5515(3)
H5_7 H 0.8438 0.0178 0.5597
O6_4 O 0.79804(12) 0.7254(3) 0.8653(2)
N1_7 N 0.90390(15) 0.8946(3) 0.6435(3)
C4_7 C 0.9990(2) 0.8677(5) 0.6197(5)
H2_7 H 0.9908 0.9359 0.6367
C5_7 C 0.9680(2) 0.7855(5) 0.6207(4)
C6_7 C 0.9820(2) 0.6846(5) 0.5991(5)
H3_7 H 0.9621 0.6282 0.6019
C8_7 C 0.9211(2) 0.8024(5) 0.6395(4)
C10_7 C 0.78523(17) 0.9798(4) 0.6129(3)
C11_7 C 0.83110(17) 0.9743(4) 0.6032(3)
C12_7 C 0.85808(17) 0.9027(4) 0.6596(3)
C13_7 C 0.83898(17) 0.8452(4) 0.7301(3)
H6_7 H 0.8572 0.8015 0.7707
C14_7 C 0.79382(17) 0.8519(4) 0.7406(3)
C15_7 C 0.76619(17) 0.9180(4) 0.6805(3)
H7_7 H 0.7354 0.9208 0.6855
C16_7 C 0.77282(19) 0.7921(4) 0.8175(4)
H11_7 H 0.903(2) 0.742(6) 0.645(5)
C9_8 C 0.24437(17) 0.0528(4) 0.9485(3)
H5_8 H 0.1562 0.0178 0.9403
N1_8 N 0.09610(15) 0.8946(3) 0.8565(3)
C4_8 C 0.0010(2) 0.8677(5) 0.8803(5)
H2_8 H 0.0092 0.9359 0.8633
C5_8 C 0.0320(2) 0.7855(5) 0.8793(4)
C6_8 C 0.0180(2) 0.6846(5) 0.9009(5)
H3_8 H 0.0379 0.6282 0.8981
C8_8 C 0.0789(2) 0.8024(5) 0.8605(4)
C10_8 C 0.21477(17) 0.9798(4) 0.8871(3)
C11_8 C 0.16890(17) 0.9743(4) 0.8968(3)
C12_8 C 0.14192(17) 0.9027(4) 0.8404(3)
C13_8 C 0.16102(17) 0.8452(4) 0.7699(3)
H6_8 H 0.1428 0.8015 0.7293
C14_8 C 0.20618(17) 0.8519(4) 0.7594(3)
C15_8 C 0.23381(17) 0.9180(4) 0.8195(3)
H7_8 H 0.2646 0.9208 0.8145
C16_8 C 0.22718(19) 0.7921(4) 0.6825(4)
H11_8 H 0.097(2) 0.742(6) 0.855(5)
O7_8 O 0.85998(13) 0.7785(3) 0.1748(3)
N2_8 N 0.84562(15) 0.5399(3) 0.1410(3)
N3_5 N 0.84405(17) 0.4242(4) 0.2580(3)
C17_5 C 0.8200(2) 0.4743(4) 0.1850(4)
H8_5 H 0.7894 0.4640 0.1681
C18_5 C 0.8873(2) 0.4597(4) 0.2599(4)
H9_5 H 0.9117 0.4397 0.3023
C19_8 C 0.88747(19) 0.5306(5) 0.1871(4)
H10_8 H 0.9127 0.5675 0.1713
H12_8 H 0.878518 0.722547 0.209277
H13_8 H 0.839886 0.811512 0.218532
H14_5 H 0.832156 0.370373 0.302869
O1_8 O 0.88470(12) 0.6387(3) 0.9702(3)
O2_8 O 0.87642(14) 0.8123(3) 0.9835(3)
C1_8 C 0.89926(19) 0.7319(4) 0.9626(4)
C2_8 C 0.94505(19) 0.7493(5) 0.9299(4)
C3_8 C 0.9584(2) 0.8497(5) 0.9062(5)
H1_8 H 0.9384 0.9061 0.9076
C7_8 C 0.97515(19) 0.6646(5) 0.9267(4)
H4_8 H 0.9666 0.5960 0.9416
N3_6 N 0.65595(17) 0.0758(4) 0.7420(3)
C17_6 C 0.6800(2) 0.0257(4) 0.8150(4)
H8_6 H 0.7106 0.0360 0.8319
C18_6 C 0.6127(2) 0.0403(4) 0.7401(4)
H9_6 H 0.5883 0.0603 0.6977
H14_6 H 0.667844 0.129627 0.697131
N3_7 N 0.65595(17) 0.9242(4) 0.2420(3)
C17_7 C 0.6800(2) 0.9743(4) 0.3150(4)
H8_7 H 0.7106 0.9640 0.3319
C18_7 C 0.6127(2) 0.9597(4) 0.2401(4)
H9_7 H 0.5883 0.9397 0.1977
H14_7 H 0.667844 0.870373 0.197131
N3_8 N 0.34405(17) 0.9242(4) 0.2580(3)
C17_8 C 0.3200(2) 0.9743(4) 0.1850(4)
H8_8 H 0.2894 0.9640 0.1681
C18_8 C 0.3873(2) 0.9597(4) 0.2599(4)
H9_8 H 0.4117 0.9397 0.3023
H14_8 H 0.332156 0.870373 0.302869
loop_
_geom_bond_atom_site_label_1
_geom_bond_atom_site_label_2
_geom_bond_site_symmetry_1
_geom_bond_site_symmetry_2
N3 C17 1_555 1_555
H8 C17 1_555 1_555
C18 N3 1_555 1_555
H9 C18 1_555 1_555
N3 H14 1_555 1_555
Nd1 O1 1_555 1_555
O1 C1 1_555 1_555
O2 Nd1 1_555 1_555
O3 C9 1_555 1_555
O4 C9 1_555 1_555
O5 C16 1_555 1_555
O6 C16 1_555 1_555
O7 Nd1 1_555 1_555
N1 C8 1_555 1_555
N2 Nd1 1_555 1_555
C1 O2 1_555 1_555
C2 C1 1_555 1_555
C3 C2 1_555 1_555
H1 C3 1_555 1_555
C4 C3 1_555 1_555
H2 C4 1_555 1_555
C5 C4 1_555 1_555
C6 C5 1_555 1_555
H3 C6 1_555 1_555
C7 C2 1_555 1_555
H4 C7 1_555 1_555
C8 C5 1_555 1_555
C9 C10 1_555 1_555
C10 C11 1_555 1_555
C11 H5 1_555 1_555
C12 N1 1_555 1_555
C13 C12 1_555 1_555
H6 C13 1_555 1_555
C14 C13 1_555 1_555
C15 C10 1_555 1_555
H7 C15 1_555 1_555
C16 C14 1_555 1_555
C19 N2 1_555 1_555
H10 C19 1_555 1_555
H11 C8 1_555 1_555
Nd2 O3 1_555 1_555
Nd3 O3 1_555 1_555
Nd4 O5 1_555 1_555
O8 Nd1 1_555 1_555
O9 Nd1 1_555 1_555
O10 Nd1 1_555 1_555
O11 Nd1 1_555 1_555
O12 Nd1 1_555 1_555
O4 Nd2 1_555 1_555
C6 C7 1_555 1_555
C11 C12 1_555 1_555
C14 C15 1_555 1_555
O7 H12 1_555 1_555
O7 H13 1_555 1_555
O1_2 C1_2 1_555 1_555
O3_2 C9_2 1_555 1_555
O4_2 C9_2 1_555 1_555
O5_2 C16_2 1_555 1_555
O12 C16_2 1_555 1_555
N1_2 C8_2 1_555 1_555
C1_2 O2_2 1_555 1_555
C2_2 C1_2 1_555 1_555
C3_2 C2_2 1_555 1_555
H1_2 C3_2 1_555 1_555
C4_2 C3_2 1_555 1_555
H2_2 C4_2 1_555 1_555
C5_2 C4_2 1_555 1_555
C6_2 C5_2 1_555 1_555
H3_2 C6_2 1_555 1_555
C7_2 C2_2 1_555 1_555
H4_2 C7_2 1_555 1_555
C8_2 C5_2 1_555 1_555
C9_2 C10_2 1_555 1_555
C10_2 C11_2 1_555 1_555
C11_2 H5_2 1_555 1_555
C12_2 N1_2 1_555 1_555
C13_2 C12_2 1_555 1_555
H6_2 C13_2 1_555 1_555
C14_2 C13_2 1_555 1_555
C15_2 C10_2 1_555 1_555
H7_2 C15_2 1_555 1_555
C16_2 C14_2 1_555 1_555
H11_2 C8_2 1_555 1_555
Nd3_2 O3_2 1_555 1_555
Nd4_2 O5_2 1_555 1_555
C6_2 C7_2 1_555 1_555
C11_2 C12_2 1_555 1_555
C14_2 C15_2 1_555 1_555
O7_2 Nd5 1_555 1_555
N2_2 Nd5 1_555 1_555
C19_2 N2_2 1_555 1_555
H10_2 C19_2 1_555 1_555
O9_2 Nd5 1_555 1_555
O11_2 Nd5 1_555 1_555
O7_2 H12_2 1_555 1_555
O7_2 H13_2 1_555 1_555
O5_3 C16_3 1_555 1_555
O6_2 C16_3 1_555 1_555
N1_3 C8_3 1_555 1_555
H2_3 C4_3 1_555 1_555
C5_3 C4_3 1_555 1_555
C6_3 C5_3 1_555 1_555
H3_3 C6_3 1_555 1_555
C8_3 C5_3 1_555 1_555
C10_3 C11_3 1_555 1_555
C12_3 N1_3 1_555 1_555
C13_3 C12_3 1_555 1_555
H6_3 C13_3 1_555 1_555
C14_3 C13_3 1_555 1_555
C15_3 C10_3 1_555 1_555
H7_3 C15_3 1_555 1_555
C16_3 C14_3 1_555 1_555
H11_3 C8_3 1_555 1_555
Nd3_2 O5_3 1_555 1_555
C11_3 C12_3 1_555 1_555
C14_3 C15_3 1_555 1_555
O8 C9_3 1_555 1_555
O10 C9_3 1_555 1_555
Nd4_2 O8 1_555 1_555
Nd2 O1_3 1_555 1_555
O1_3 C1_3 1_555 1_555
O2_3 Nd2 1_555 1_555
O7_3 Nd2 1_555 1_555
N2_3 Nd2 1_555 1_555
N3_2 C17_2 1_555 1_555
C1_3 O2_3 1_555 1_555
C2_3 C1_3 1_555 1_555
C3_3 C2_3 1_555 1_555
H1_3 C3_3 1_555 1_555
C7_3 C2_3 1_555 1_555
H4_3 C7_3 1_555 1_555
C17_2 N2_3 1_555 1_555
H8_2 C17_2 1_555 1_555
C18_2 N3_2 1_555 1_555
H9_2 C18_2 1_555 1_555
C19_3 N2_3 1_555 1_555
H10_3 C19_3 1_555 1_555
O9_3 Nd2 1_555 1_555
O11_3 Nd2 1_555 1_555
O12_2 Nd2 1_555 1_555
C18_2 C19_3 1_555 1_555
O7_3 H12_3 1_555 1_555
O7_3 H13_3 1_555 1_555
N3_2 H14_2 1_555 1_555
O1_4 C1_4 1_555 1_555
C1_4 O2_4 1_555 1_555
C2_4 C1_4 1_555 1_555
C3_4 C2_4 1_555 1_555
H1_4 C3_4 1_555 1_555
C7_4 C2_4 1_555 1_555
H4_4 C7_4 1_555 1_555
O7_4 Nd2_2 1_555 1_555
N2_4 Nd2_2 1_555 1_555
N3_3 C17_3 1_555 1_555
C17_3 N2_4 1_555 1_555
H8_3 C17_3 1_555 1_555
C18_3 N3_3 1_555 1_555
H9_3 C18_3 1_555 1_555
C19_4 N2_4 1_555 1_555
H10_4 C19_4 1_555 1_555
O9_4 Nd2_2 1_555 1_555
O11_4 Nd2_2 1_555 1_555
C18_3 C19_4 1_555 1_555
O7_4 H12_4 1_555 1_555
O7_4 H13_4 1_555 1_555
N3_3 H14_3 1_555 1_555
O5_4 C16_4 1_555 1_555
O12_2 C16_4 1_555 1_555
N1_4 C8_4 1_555 1_555
H2_4 C4_4 1_555 1_555
C5_4 C4_4 1_555 1_555
C6_4 C5_4 1_555 1_555
H3_4 C6_4 1_555 1_555
C8_4 C5_4 1_555 1_555
C10_4 C11_4 1_555 1_555
C12_4 N1_4 1_555 1_555
C13_4 C12_4 1_555 1_555
H6_4 C13_4 1_555 1_555
C14_4 C13_4 1_555 1_555
C15_4 C10_4 1_555 1_555
H7_4 C15_4 1_555 1_555
C16_4 C14_4 1_555 1_555
H11_4 C8_4 1_555 1_555
Nd3 O5_4 1_555 1_555
C11_4 C12_4 1_555 1_555
C14_4 C15_4 1_555 1_555
O8_2 C9_4 1_555 1_555
O10_2 C9_4 1_555 1_555
Nd4 O8_2 1_555 1_555
Nd3 O1_5 1_555 1_555
O1_5 C1_5 1_555 1_555
O2_5 Nd3 1_555 1_555
O9 C9_5 1_555 1_555
O4_3 C9_5 1_555 1_555
O11_4 C16_5 1_555 1_555
O6_3 C16_5 1_555 1_555
O7_5 Nd3 1_555 1_555
N1_5 C8_5 1_555 1_555
N2_5 Nd3 1_555 1_555
C1_5 O2_5 1_555 1_555
C2_5 C1_5 1_555 1_555
C3_5 C2_5 1_555 1_555
H1_5 C3_5 1_555 1_555
C4_5 C3_5 1_555 1_555
H2_5 C4_5 1_555 1_555
C5_5 C4_5 1_555 1_555
C6_5 C5_5 1_555 1_555
H3_5 C6_5 1_555 1_555
C7_5 C2_5 1_555 1_555
H4_5 C7_5 1_555 1_555
C8_5 C5_5 1_555 1_555
C9_5 C10_5 1_555 1_555
C10_5 C11_5 1_555 1_555
C11_5 H5_5 1_555 1_555
C12_5 N1_5 1_555 1_555
C13_5 C12_5 1_555 1_555
H6_5 C13_5 1_555 1_555
C14_5 C13_5 1_555 1_555
C15_5 C10_5 1_555 1_555
H7_5 C15_5 1_555 1_555
C16_5 C14_5 1_555 1_555
C19_5 N2_5 1_555 1_555
H10_5 C19_5 1_555 1_555
H11_5 C8_5 1_555 1_555
Nd4_2 O9 1_555 1_555
O9_3 Nd3 1_555 1_555
O10_3 Nd3 1_555 1_555
O12_3 Nd3 1_555 1_555
O4_3 Nd4_2 1_555 1_555
C6_5 C7_5 1_555 1_555
C11_5 C12_5 1_555 1_555
C14_5 C15_5 1_555 1_555
O7_5 H12_5 1_555 1_555
O7_5 H13_5 1_555 1_555
O7_6 Nd3_2 1_555 1_555
N2_6 Nd3_2 1_555 1_555
C19_6 N2_6 1_555 1_555
H10_6 C19_6 1_555 1_555
O7_6 H12_6 1_555 1_555
O7_6 H13_6 1_555 1_555
O1_6 C1_6 1_555 1_555
O9_2 C9_6 1_555 1_555
O4_4 C9_6 1_555 1_555
O11_3 C16_6 1_555 1_555
O12_3 C16_6 1_555 1_555
N1_6 C8_6 1_555 1_555
C1_6 O2_6 1_555 1_555
C2_6 C1_6 1_555 1_555
C3_6 C2_6 1_555 1_555
H1_6 C3_6 1_555 1_555
C4_6 C3_6 1_555 1_555
H2_6 C4_6 1_555 1_555
C5_6 C4_6 1_555 1_555
C6_6 C5_6 1_555 1_555
H3_6 C6_6 1_555 1_555
C7_6 C2_6 1_555 1_555
H4_6 C7_6 1_555 1_555
C8_6 C5_6 1_555 1_555
C9_6 C10_6 1_555 1_555
C10_6 C11_6 1_555 1_555
C11_6 H5_6 1_555 1_555
C12_6 N1_6 1_555 1_555
C13_6 C12_6 1_555 1_555
H6_6 C13_6 1_555 1_555
C14_6 C13_6 1_555 1_555
C15_6 C10_6 1_555 1_555
H7_6 C15_6 1_555 1_555
C16_6 C14_6 1_555 1_555
H11_6 C8_6 1_555 1_555
C6_6 C7_6 1_555 1_555
C11_6 C12_6 1_555 1_555
C14_6 C15_6 1_555 1_555
Nd4_2 O1_7 1_555 1_555
O1_7 C1_7 1_555 1_555
O2_7 Nd4_2 1_555 1_555
O7_7 Nd4_2 1_555 1_555
N2_7 Nd4_2 1_555 1_555
N3_4 C17_4 1_555 1_555
C1_7 O2_7 1_555 1_555
C2_7 C1_7 1_555 1_555
C3_7 C2_7 1_555 1_555
H1_7 C3_7 1_555 1_555
C7_7 C2_7 1_555 1_555
H4_7 C7_7 1_555 1_555
C17_4 N2_7 1_555 1_555
H8_4 C17_4 1_555 1_555
C18_4 N3_4 1_555 1_555
H9_4 C18_4 1_555 1_555
C19_7 N2_7 1_555 1_555
H10_7 C19_7 1_555 1_555
O12_4 Nd4_2 1_555 1_555
C18_4 C19_7 1_555 1_555
O7_7 H12_7 1_555 1_555
O7_7 H13_7 1_555 1_555
N3_4 H14_4 1_555 1_555
O9_3 C9_7 1_555 1_555
O10_3 C9_7 1_555 1_555
O11_2 C16_7 1_555 1_555
O6_4 C16_7 1_555 1_555
N1_7 C8_7 1_555 1_555
H2_7 C4_7 1_555 1_555
C5_7 C4_7 1_555 1_555
C6_7 C5_7 1_555 1_555
H3_7 C6_7 1_555 1_555
C8_7 C5_7 1_555 1_555
C10_7 C11_7 1_555 1_555
C12_7 N1_7 1_555 1_555
C13_7 C12_7 1_555 1_555
H6_7 C13_7 1_555 1_555
C14_7 C13_7 1_555 1_555
C15_7 C10_7 1_555 1_555
H7_7 C15_7 1_555 1_555
C16_7 C14_7 1_555 1_555
H11_7 C8_7 1_555 1_555
C11_7 C12_7 1_555 1_555
C14_7 C15_7 1_555 1_555
O9_4 C9_8 1_555 1_555
O10_4 C9_8 1_555 1_555
O11 C16_8 1_555 1_555
O12_4 C16_8 1_555 1_555
N1_8 C8_8 1_555 1_555
H2_8 C4_8 1_555 1_555
C5_8 C4_8 1_555 1_555
C6_8 C5_8 1_555 1_555
H3_8 C6_8 1_555 1_555
C8_8 C5_8 1_555 1_555
C10_8 C11_8 1_555 1_555
C12_8 N1_8 1_555 1_555
C13_8 C12_8 1_555 1_555
H6_8 C13_8 1_555 1_555
C14_8 C13_8 1_555 1_555
C15_8 C10_8 1_555 1_555
H7_8 C15_8 1_555 1_555
C16_8 C14_8 1_555 1_555
H11_8 C8_8 1_555 1_555
C11_8 C12_8 1_555 1_555
C14_8 C15_8 1_555 1_555
O7_8 Nd4 1_555 1_555
N2_8 Nd4 1_555 1_555
N3_5 C17_5 1_555 1_555
C17_5 N2_8 1_555 1_555
H8_5 C17_5 1_555 1_555
C18_5 N3_5 1_555 1_555
H9_5 C18_5 1_555 1_555
C19_8 N2_8 1_555 1_555
H10_8 C19_8 1_555 1_555
C18_5 C19_8 1_555 1_555
O7_8 H12_8 1_555 1_555
O7_8 H13_8 1_555 1_555
N3_5 H14_5 1_555 1_555
O1_8 C1_8 1_555 1_555
C1_8 O2_8 1_555 1_555
C2_8 C1_8 1_555 1_555
C3_8 C2_8 1_555 1_555
H1_8 C3_8 1_555 1_555
C7_8 C2_8 1_555 1_555
H4_8 C7_8 1_555 1_555
N3_6 C17_6 1_555 1_555
H8_6 C17_6 1_555 1_555
C18_6 N3_6 1_555 1_555
H9_6 C18_6 1_555 1_555
N3_6 H14_6 1_555 1_555
N3_7 C17_7 1_555 1_555
H8_7 C17_7 1_555 1_555
C18_7 N3_7 1_555 1_555
H9_7 C18_7 1_555 1_555
N3_7 H14_7 1_555 1_555
N3_8 C17_8 1_555 1_555
H8_8 C17_8 1_555 1_555
C18_8 N3_8 1_555 1_555
H9_8 C18_8 1_555 1_555
N3_8 H14_8 1_555 1_555

#END
