
###############################################################################
#
# This file contains modified crystal structure data generated from the
# MOF subset of the Cambridge Structural Database (CSD) v543 
# hosted by the Cambridge Crystallographic Data Centre (CCDC).
#
# This work is licensed under the Creative Commons
# Attribution-NonCommercial-ShareAlike 4.0 International License.
# To view a copy of this license, visit
# http://creativecommons.org/licenses/by-nc-sa/4.0/
# or send a letter to
# Creative Commons, PO Box 1866, Mountain View, CA 94042, USA.
#
# CIF created using the CSD Python API on 29 September 2022
# The structure has been converted into the P1 space group
# The structure has a 3D framework
# The original CSD entry GEDRUE is in the monoclinic crystal system
# The framework has been calculated to contain at least 10.0% void space
# The void calculation uses a probe of radius 1.32A, grid spacing 0.4
# H atom positions have been added when not included in the experimental data
#
###############################################################################

data_GEDRUE
_chemical_formula_moiety         '(C160 H144 N8 Nd8 O64)n'
_symmetry_cell_setting           triclinic
_symmetry_space_group_name_H-M   'P 1'
_symmetry_Int_Tables_number      1
_space_group_name_Hall           'P 1'
loop_
_symmetry_equiv_pos_site_id
_symmetry_equiv_pos_as_xyz
1 x,y,z
_cell_length_a                   28.8320(18)
_cell_length_b                   14.3769(10)
_cell_length_c                   13.2474(10)
_cell_angle_alpha                90
_cell_angle_beta                 100.622(7)
_cell_angle_gamma                90
_cell_volume                     5397.15
loop_
_atom_site_label
_atom_site_type_symbol
_atom_site_fract_x
_atom_site_fract_y
_atom_site_fract_z
N1 N 0.09704(18) 0.0780(4) 0.3500(4)
O5 O 0.20142(15) 0.2408(3) 0.1314(3)
O6 O 0.27125(15) 0.1702(4) 0.1731(4)
C4 C 0.0186(3) 0.2680(6) 0.3824(7)
H2 H 0.0377 0.3159 0.3662
C5 C 0.0329(2) 0.1768(5) 0.3764(6)
C6 C 0.0036(2) 0.1057(5) 0.3997(6)
H3 H 0.0123 0.0439 0.3936
C8 C 0.0791(2) 0.1582(6) 0.3511(5)
H5 H 0.094(3) 0.212(6) 0.341(6)
C11 C 0.1720(2) 0.0010(5) 0.3841(5)
C12 C 0.1439(2) 0.0713(5) 0.3320(5)
C13 C 0.1623(2) 0.1274(5) 0.2642(5)
H7 H 0.1432 0.1712 0.2252
C14 C 0.2091(2) 0.1188(5) 0.2538(5)
C15 C 0.2373(2) 0.0537(5) 0.3100(5)
H8 H 0.2690 0.0498 0.3048
C16 C 0.2288(2) 0.1822(5) 0.1799(5)
Nd5 Nd 0.318565(11) 0.21273(2) 0.04668(3)
Nd4 Nd 0.181435(11) 0.28727(2) 0.95332(3)
O3 O 0.29412(15) 0.9338(3) 0.4543(4)
O4 O 0.23164(14) 0.8475(3) 0.4619(3)
C9 C 0.2498(2) 0.9199(5) 0.4335(5)
C10 C 0.2191(2) 0.9934(5) 0.3748(5)
H6 H 0.1592 0.9592 0.4250
Nd2 Nd 0.318565(11) 0.78727(2) 0.54668(3)
Nd3 Nd 0.181435(11) 0.71273(2) 0.45332(3)
Nd1 Nd 0.818565(11) 0.28727(2) 0.54668(3)
O1 O 0.88136(16) 0.1773(4) 0.5114(4)
O2 O 0.89145(16) 0.3256(4) 0.4787(4)
O7 O 0.8657(2) 0.4068(5) 0.6620(5)
O8 O 0.8564(2) 0.2068(5) 0.7119(5)
C1 C 0.9041(2) 0.2409(5) 0.4793(6)
C2 C 0.9479(2) 0.2181(5) 0.4389(6)
C3 C 0.9765(3) 0.2886(5) 0.4120(7)
H1 H 0.9670 0.3503 0.4141
C7 C 0.9621(2) 0.1263(5) 0.4314(6)
H4 H 0.9432 0.0784 0.4481
C17 C 0.9049(4) 0.1761(10) 0.7412(10)
H9 H 0.9107 0.1244 0.6981
H10 H 0.9261 0.2264 0.7314
C18 C 0.9141(7) 0.1476(13) 0.8474(12)
H11 H 0.9261 0.1990 0.8919
H12 H 0.9367 0.0969 0.8585
C19 C 0.8663(6) 0.1162(10) 0.8673(10)
H13 H 0.8643 0.1226 0.9392
H14 H 0.8598 0.0523 0.8461
C20 C 0.8317(5) 0.1859(9) 0.7979(8)
H15 H 0.8013 0.1571 0.7731
H16 H 0.8270 0.2420 0.8355
O9 O 0.79412(15) 0.4338(3) 0.4543(4)
O10 O 0.73164(14) 0.3475(3) 0.4619(3)
O11 O 0.76836(14) 0.1525(3) 0.5381(3)
O12 O 0.79858(15) 0.2408(3) 0.3686(3)
O13 O 0.77125(15) 0.3298(4) 0.6731(4)
H17 H 0.888762 0.436829 0.625178
H18 H 0.844063 0.454686 0.68117
O2_2 O 0.10855(16) 0.3256(4) 0.0213(4)
C1_2 C 0.0959(2) 0.2409(5) 0.0207(6)
C2_2 C 0.0521(2) 0.2181(5) 0.0611(6)
C3_2 C 0.0235(3) 0.2886(5) 0.0880(7)
H1_2 H 0.0330 0.3503 0.0859
C7_2 C 0.0379(2) 0.1263(5) 0.0686(6)
H4_2 H 0.0568 0.0784 0.0519
O9_2 O 0.20588(15) 0.4338(3) 0.0457(4)
O10_2 O 0.26836(14) 0.3475(3) 0.0381(3)
O1_2 O 0.11864(16) 0.1773(4) 0.9886(4)
O7_2 O 0.1343(2) 0.4068(5) 0.8380(5)
O8_2 O 0.1436(2) 0.2068(5) 0.7881(5)
C17_2 C 0.0951(4) 0.1761(10) 0.7588(10)
H9_2 H 0.0893 0.1244 0.8019
H10_2 H 0.0739 0.2264 0.7686
C18_2 C 0.0859(7) 0.1476(13) 0.6526(12)
H11_2 H 0.0739 0.1990 0.6081
H12_2 H 0.0633 0.0969 0.6415
C19_2 C 0.1337(6) 0.1162(10) 0.6327(10)
H13_2 H 0.1357 0.1226 0.5608
H14_2 H 0.1402 0.0523 0.6539
C20_2 C 0.1683(5) 0.1859(9) 0.7021(8)
H15_2 H 0.1987 0.1571 0.7269
H16_2 H 0.1730 0.2420 0.6645
O11_2 O 0.23164(14) 0.1525(3) 0.9619(3)
O13_2 O 0.22875(15) 0.3298(4) 0.8269(4)
H17_2 H 0.111238 0.436829 0.874822
H18_2 H 0.155937 0.454686 0.81883
N1_2 N 0.90296(18) 0.0780(4) 0.1500(4)
O6_2 O 0.72875(15) 0.1702(4) 0.3269(4)
C4_2 C 0.9814(3) 0.2680(6) 0.1176(7)
H2_2 H 0.9623 0.3159 0.1338
C5_2 C 0.9671(2) 0.1768(5) 0.1236(6)
C6_2 C 0.9964(2) 0.1057(5) 0.1003(6)
H3_2 H 0.9877 0.0439 0.1064
C8_2 C 0.9209(2) 0.1582(6) 0.1489(5)
H5_2 H 0.906(3) 0.212(6) 0.159(6)
C11_2 C 0.8280(2) 0.0010(5) 0.1159(5)
C12_2 C 0.8561(2) 0.0713(5) 0.1680(5)
C13_2 C 0.8377(2) 0.1274(5) 0.2358(5)
H7_2 H 0.8568 0.1712 0.2748
C14_2 C 0.7909(2) 0.1188(5) 0.2462(5)
C15_2 C 0.7627(2) 0.0537(5) 0.1900(5)
H8_2 H 0.7310 0.0498 0.1952
C16_2 C 0.7712(2) 0.1822(5) 0.3201(5)
Nd5_2 Nd 0.681435(11) 0.21273(2) 0.45332(3)
O3_2 O 0.70588(15) 0.9338(3) 0.0457(4)
O4_2 O 0.76836(14) 0.8475(3) 0.0381(3)
C9_2 C 0.7502(2) 0.9199(5) 0.0665(5)
C10_2 C 0.7809(2) 0.9934(5) 0.1252(5)
H6_2 H 0.8408 0.9592 0.0750
Nd3_2 Nd 0.818565(11) 0.71273(2) 0.04668(3)
Nd2_2 Nd 0.681435(11) 0.78727(2) 0.95332(3)
N1_3 N 0.59704(18) 0.5780(4) 0.3500(4)
O1_3 O 0.38136(16) 0.6773(4) 0.5114(4)
O2_3 O 0.39145(16) 0.8256(4) 0.4787(4)
O5_2 O 0.70142(15) 0.7408(3) 0.1314(3)
O6_3 O 0.77125(15) 0.6702(4) 0.1731(4)
O7_3 O 0.3657(2) 0.9068(5) 0.6620(5)
O8_3 O 0.3564(2) 0.7068(5) 0.7119(5)
C1_3 C 0.4041(2) 0.7409(5) 0.4793(6)
C2_3 C 0.4479(2) 0.7181(5) 0.4389(6)
C3_3 C 0.4765(3) 0.7886(5) 0.4120(7)
H1_3 H 0.4670 0.8503 0.4141
C4_3 C 0.5186(3) 0.7680(6) 0.3824(7)
H2_3 H 0.5377 0.8159 0.3662
C5_3 C 0.5329(2) 0.6768(5) 0.3764(6)
C6_3 C 0.5036(2) 0.6057(5) 0.3997(6)
H3_3 H 0.5123 0.5439 0.3936
C7_3 C 0.4621(2) 0.6263(5) 0.4314(6)
H4_3 H 0.4432 0.5784 0.4481
C8_3 C 0.5791(2) 0.6582(6) 0.3511(5)
H5_3 H 0.594(3) 0.712(6) 0.341(6)
C9_3 C 0.7498(2) 0.4199(5) 0.4335(5)
C10_3 C 0.7191(2) 0.4934(5) 0.3748(5)
C11_3 C 0.6720(2) 0.5010(5) 0.3841(5)
H6_3 H 0.6592 0.4592 0.4250
C12_3 C 0.6439(2) 0.5713(5) 0.3320(5)
C13_3 C 0.6623(2) 0.6274(5) 0.2642(5)
H7_3 H 0.6432 0.6712 0.2252
C14_3 C 0.7091(2) 0.6188(5) 0.2538(5)
C15_3 C 0.7373(2) 0.5537(5) 0.3100(5)
H8_3 H 0.7690 0.5498 0.3048
C16_3 C 0.7288(2) 0.6822(5) 0.1799(5)
C17_3 C 0.4049(4) 0.6761(10) 0.7412(10)
H9_3 H 0.4107 0.6244 0.6981
H10_3 H 0.4261 0.7264 0.7314
C18_3 C 0.4141(7) 0.6476(13) 0.8474(12)
H11_3 H 0.4261 0.6990 0.8919
H12_3 H 0.4367 0.5969 0.8585
C19_3 C 0.3663(6) 0.6162(10) 0.8673(10)
H13_3 H 0.3643 0.6226 0.9392
H14_3 H 0.3598 0.5523 0.8461
C20_3 C 0.3317(5) 0.6859(9) 0.7979(8)
H15_3 H 0.3013 0.6571 0.7731
H16_3 H 0.3270 0.7420 0.8355
O11_3 O 0.26836(14) 0.6525(3) 0.5381(3)
O12_2 O 0.29858(15) 0.7408(3) 0.3686(3)
O13_3 O 0.27125(15) 0.8298(4) 0.6731(4)
H17_3 H 0.388762 0.936829 0.625178
H18_3 H 0.344063 0.954686 0.68117
N1_4 N 0.40296(18) 0.5780(4) 0.1500(4)
O2_4 O 0.60855(16) 0.8256(4) 0.0213(4)
O6_4 O 0.22875(15) 0.6702(4) 0.3269(4)
C1_4 C 0.5959(2) 0.7409(5) 0.0207(6)
C2_4 C 0.5521(2) 0.7181(5) 0.0611(6)
C3_4 C 0.5235(3) 0.7886(5) 0.0880(7)
H1_4 H 0.5330 0.8503 0.0859
C4_4 C 0.4814(3) 0.7680(6) 0.1176(7)
H2_4 H 0.4623 0.8159 0.1338
C5_4 C 0.4671(2) 0.6768(5) 0.1236(6)
C6_4 C 0.4964(2) 0.6057(5) 0.1003(6)
H3_4 H 0.4877 0.5439 0.1064
C7_4 C 0.5379(2) 0.6263(5) 0.0686(6)
H4_4 H 0.5568 0.5784 0.0519
C8_4 C 0.4209(2) 0.6582(6) 0.1489(5)
H5_4 H 0.406(3) 0.712(6) 0.159(6)
C9_4 C 0.2502(2) 0.4199(5) 0.0665(5)
C10_4 C 0.2809(2) 0.4934(5) 0.1252(5)
C11_4 C 0.3280(2) 0.5010(5) 0.1159(5)
H6_4 H 0.3408 0.4592 0.0750
C12_4 C 0.3561(2) 0.5713(5) 0.1680(5)
C13_4 C 0.3377(2) 0.6274(5) 0.2358(5)
H7_4 H 0.3568 0.6712 0.2748
C14_4 C 0.2909(2) 0.6188(5) 0.2462(5)
C15_4 C 0.2627(2) 0.5537(5) 0.1900(5)
H8_4 H 0.2310 0.5498 0.1952
C16_4 C 0.2712(2) 0.6822(5) 0.3201(5)
O1_4 O 0.61864(16) 0.6773(4) 0.9886(4)
O7_4 O 0.6343(2) 0.9068(5) 0.8380(5)
O8_4 O 0.6436(2) 0.7068(5) 0.7881(5)
C17_4 C 0.5951(4) 0.6761(10) 0.7588(10)
H9_4 H 0.5893 0.6244 0.8019
H10_4 H 0.5739 0.7264 0.7686
C18_4 C 0.5859(7) 0.6476(13) 0.6526(12)
H11_4 H 0.5739 0.6990 0.6081
H12_4 H 0.5633 0.5969 0.6415
C19_4 C 0.6337(6) 0.6162(10) 0.6327(10)
H13_4 H 0.6357 0.6226 0.5608
H14_4 H 0.6402 0.5523 0.6539
C20_4 C 0.6683(5) 0.6859(9) 0.7021(8)
H15_4 H 0.6987 0.6571 0.7269
H16_4 H 0.6730 0.7420 0.6645
O11_4 O 0.73164(14) 0.6525(3) 0.9619(3)
O13_4 O 0.72875(15) 0.8298(4) 0.8269(4)
H17_4 H 0.611238 0.936829 0.874822
H18_4 H 0.655937 0.954686 0.81883
O1_5 O 0.11864(16) 0.8227(4) 0.4886(4)
O2_5 O 0.10855(16) 0.6744(4) 0.5213(4)
O7_5 O 0.1343(2) 0.5932(5) 0.3380(5)
O8_5 O 0.1436(2) 0.7932(5) 0.2881(5)
C1_5 C 0.0959(2) 0.7591(5) 0.5207(6)
C2_5 C 0.0521(2) 0.7819(5) 0.5611(6)
C3_5 C 0.0235(3) 0.7114(5) 0.5880(7)
H1_5 H 0.0330 0.6497 0.5859
C7_5 C 0.0379(2) 0.8737(5) 0.5686(6)
H4_5 H 0.0568 0.9216 0.5519
C17_5 C 0.0951(4) 0.8239(10) 0.2588(10)
H9_5 H 0.0893 0.8756 0.3019
H10_5 H 0.0739 0.7736 0.2686
C18_5 C 0.0859(7) 0.8524(13) 0.1526(12)
H11_5 H 0.0739 0.8010 0.1081
H12_5 H 0.0633 0.9031 0.1415
C19_5 C 0.1337(6) 0.8838(10) 0.1327(10)
H13_5 H 0.1357 0.8774 0.0608
H14_5 H 0.1402 0.9477 0.1539
C20_5 C 0.1683(5) 0.8141(9) 0.2021(8)
H15_5 H 0.1987 0.8429 0.2269
H16_5 H 0.1730 0.7580 0.1645
O9_3 O 0.20588(15) 0.5662(3) 0.5457(4)
O12_3 O 0.20142(15) 0.7592(3) 0.6314(3)
H17_5 H 0.111238 0.563171 0.374822
H18_5 H 0.155937 0.545314 0.31883
O3_3 O 0.70588(15) 0.0662(3) 0.5457(4)
C9_5 C 0.7502(2) 0.0801(5) 0.5665(5)
C10_5 C 0.7809(2) 0.0066(5) 0.6252(5)
H6_5 H 0.8408 0.0408 0.5750
N1_5 N 0.90296(18) 0.9220(4) 0.6500(4)
O5_3 O 0.79858(15) 0.7592(3) 0.8686(3)
C4_5 C 0.9814(3) 0.7320(6) 0.6176(7)
H2_5 H 0.9623 0.6841 0.6338
C5_5 C 0.9671(2) 0.8232(5) 0.6236(6)
C6_5 C 0.9964(2) 0.8943(5) 0.6003(6)
H3_5 H 0.9877 0.9561 0.6064
C8_5 C 0.9209(2) 0.8418(6) 0.6489(5)
H5_5 H 0.906(3) 0.788(6) 0.659(6)
C11_5 C 0.8280(2) 0.9990(5) 0.6159(5)
C12_5 C 0.8561(2) 0.9287(5) 0.6680(5)
C13_5 C 0.8377(2) 0.8726(5) 0.7358(5)
H7_5 H 0.8568 0.8288 0.7748
C14_5 C 0.7909(2) 0.8812(5) 0.7462(5)
C15_5 C 0.7627(2) 0.9463(5) 0.6900(5)
H8_5 H 0.7310 0.9502 0.6952
C16_5 C 0.7712(2) 0.8178(5) 0.8201(5)
O3_4 O 0.29412(15) 0.0662(3) 0.9543(4)
C9_6 C 0.2498(2) 0.0801(5) 0.9335(5)
C10_6 C 0.2191(2) 0.0066(5) 0.8748(5)
H6_6 H 0.1592 0.0408 0.9250
N1_6 N 0.09704(18) 0.9220(4) 0.8500(4)
C4_6 C 0.0186(3) 0.7320(6) 0.8824(7)
H2_6 H 0.0377 0.6841 0.8662
C5_6 C 0.0329(2) 0.8232(5) 0.8764(6)
C6_6 C 0.0036(2) 0.8943(5) 0.8997(6)
H3_6 H 0.0123 0.9561 0.8936
C8_6 C 0.0791(2) 0.8418(6) 0.8511(5)
H5_6 H 0.094(3) 0.788(6) 0.841(6)
C11_6 C 0.1720(2) 0.9990(5) 0.8841(5)
C12_6 C 0.1439(2) 0.9287(5) 0.8320(5)
C13_6 C 0.1623(2) 0.8726(5) 0.7642(5)
H7_6 H 0.1432 0.8288 0.7252
C14_6 C 0.2091(2) 0.8812(5) 0.7538(5)
C15_6 C 0.2373(2) 0.9463(5) 0.8100(5)
H8_6 H 0.2690 0.9502 0.8048
C16_6 C 0.2288(2) 0.8178(5) 0.6799(5)
O1_6 O 0.88136(16) 0.8227(4) 0.0114(4)
O7_6 O 0.8657(2) 0.5932(5) 0.1620(5)
O8_6 O 0.8564(2) 0.7932(5) 0.2119(5)
C17_6 C 0.9049(4) 0.8239(10) 0.2412(10)
H9_6 H 0.9107 0.8756 0.1981
H10_6 H 0.9261 0.7736 0.2314
C18_6 C 0.9141(7) 0.8524(13) 0.3474(12)
H11_6 H 0.9261 0.8010 0.3919
H12_6 H 0.9367 0.9031 0.3585
C19_6 C 0.8663(6) 0.8838(10) 0.3673(10)
H13_6 H 0.8643 0.8774 0.4392
H14_6 H 0.8598 0.9477 0.3461
C20_6 C 0.8317(5) 0.8141(9) 0.2979(8)
H15_6 H 0.8013 0.8429 0.2731
H16_6 H 0.8270 0.7580 0.3355
H17_6 H 0.888762 0.563171 0.125178
H18_6 H 0.844063 0.545314 0.18117
O2_6 O 0.89145(16) 0.6744(4) 0.9787(4)
C1_6 C 0.9041(2) 0.7591(5) 0.9793(6)
C2_6 C 0.9479(2) 0.7819(5) 0.9389(6)
C3_6 C 0.9765(3) 0.7114(5) 0.9120(7)
H1_6 H 0.9670 0.6497 0.9141
C7_6 C 0.9621(2) 0.8737(5) 0.9314(6)
H4_6 H 0.9432 0.9216 0.9481
O9_4 O 0.79412(15) 0.5662(3) 0.9543(4)
N1_7 N 0.40296(18) 0.4220(4) 0.6500(4)
O1_7 O 0.61864(16) 0.3227(4) 0.4886(4)
O2_7 O 0.60855(16) 0.1744(4) 0.5213(4)
O5_4 O 0.29858(15) 0.2592(3) 0.8686(3)
O7_7 O 0.6343(2) 0.0932(5) 0.3380(5)
O8_7 O 0.6436(2) 0.2932(5) 0.2881(5)
C1_7 C 0.5959(2) 0.2591(5) 0.5207(6)
C2_7 C 0.5521(2) 0.2819(5) 0.5611(6)
C3_7 C 0.5235(3) 0.2114(5) 0.5880(7)
H1_7 H 0.5330 0.1497 0.5859
C4_7 C 0.4814(3) 0.2320(6) 0.6176(7)
H2_7 H 0.4623 0.1841 0.6338
C5_7 C 0.4671(2) 0.3232(5) 0.6236(6)
C6_7 C 0.4964(2) 0.3943(5) 0.6003(6)
H3_7 H 0.4877 0.4561 0.6064
C7_7 C 0.5379(2) 0.3737(5) 0.5686(6)
H4_7 H 0.5568 0.4216 0.5519
C8_7 C 0.4209(2) 0.3418(6) 0.6489(5)
H5_7 H 0.406(3) 0.288(6) 0.659(6)
C9_7 C 0.2502(2) 0.5801(5) 0.5665(5)
C10_7 C 0.2809(2) 0.5066(5) 0.6252(5)
C11_7 C 0.3280(2) 0.4990(5) 0.6159(5)
H6_7 H 0.3408 0.5408 0.5750
C12_7 C 0.3561(2) 0.4287(5) 0.6680(5)
C13_7 C 0.3377(2) 0.3726(5) 0.7358(5)
H7_7 H 0.3568 0.3288 0.7748
C14_7 C 0.2909(2) 0.3812(5) 0.7462(5)
C15_7 C 0.2627(2) 0.4463(5) 0.6900(5)
H8_7 H 0.2310 0.4502 0.6952
C16_7 C 0.2712(2) 0.3178(5) 0.8201(5)
C17_7 C 0.5951(4) 0.3239(10) 0.2588(10)
H9_7 H 0.5893 0.3756 0.3019
H10_7 H 0.5739 0.2736 0.2686
C18_7 C 0.5859(7) 0.3524(13) 0.1526(12)
H11_7 H 0.5739 0.3010 0.1081
H12_7 H 0.5633 0.4031 0.1415
C19_7 C 0.6337(6) 0.3838(10) 0.1327(10)
H13_7 H 0.6357 0.3774 0.0608
H14_7 H 0.6402 0.4477 0.1539
C20_7 C 0.6683(5) 0.3141(9) 0.2021(8)
H15_7 H 0.6987 0.3429 0.2269
H16_7 H 0.6730 0.2580 0.1645
O12_4 O 0.70142(15) 0.2592(3) 0.6314(3)
H17_7 H 0.611238 0.0631708 0.374822
H18_7 H 0.655937 0.0453136 0.31883
O1_8 O 0.38136(16) 0.3227(4) 0.0114(4)
O7_8 O 0.3657(2) 0.0932(5) 0.1620(5)
O8_8 O 0.3564(2) 0.2932(5) 0.2119(5)
C17_8 C 0.4049(4) 0.3239(10) 0.2412(10)
H9_8 H 0.4107 0.3756 0.1981
H10_8 H 0.4261 0.2736 0.2314
C18_8 C 0.4141(7) 0.3524(13) 0.3474(12)
H11_8 H 0.4261 0.3010 0.3919
H12_8 H 0.4367 0.4031 0.3585
C19_8 C 0.3663(6) 0.3838(10) 0.3673(10)
H13_8 H 0.3643 0.3774 0.4392
H14_8 H 0.3598 0.4477 0.3461
C20_8 C 0.3317(5) 0.3141(9) 0.2979(8)
H15_8 H 0.3013 0.3429 0.2731
H16_8 H 0.3270 0.2580 0.3355
H17_8 H 0.388762 0.0631708 0.125178
H18_8 H 0.344063 0.0453136 0.18117
N1_8 N 0.59704(18) 0.4220(4) 0.8500(4)
O2_8 O 0.39145(16) 0.1744(4) 0.9787(4)
C1_8 C 0.4041(2) 0.2591(5) 0.9793(6)
C2_8 C 0.4479(2) 0.2819(5) 0.9389(6)
C3_8 C 0.4765(3) 0.2114(5) 0.9120(7)
H1_8 H 0.4670 0.1497 0.9141
C4_8 C 0.5186(3) 0.2320(6) 0.8824(7)
H2_8 H 0.5377 0.1841 0.8662
C5_8 C 0.5329(2) 0.3232(5) 0.8764(6)
C6_8 C 0.5036(2) 0.3943(5) 0.8997(6)
H3_8 H 0.5123 0.4561 0.8936
C7_8 C 0.4621(2) 0.3737(5) 0.9314(6)
H4_8 H 0.4432 0.4216 0.9481
C8_8 C 0.5791(2) 0.3418(6) 0.8511(5)
H5_8 H 0.594(3) 0.288(6) 0.841(6)
C9_8 C 0.7498(2) 0.5801(5) 0.9335(5)
C10_8 C 0.7191(2) 0.5066(5) 0.8748(5)
C11_8 C 0.6720(2) 0.4990(5) 0.8841(5)
H6_8 H 0.6592 0.5408 0.9250
C12_8 C 0.6439(2) 0.4287(5) 0.8320(5)
C13_8 C 0.6623(2) 0.3726(5) 0.7642(5)
H7_8 H 0.6432 0.3288 0.7252
C14_8 C 0.7091(2) 0.3812(5) 0.7538(5)
C15_8 C 0.7373(2) 0.4463(5) 0.8100(5)
H8_8 H 0.7690 0.4502 0.8048
C16_8 C 0.7288(2) 0.3178(5) 0.6799(5)
loop_
_geom_bond_atom_site_label_1
_geom_bond_atom_site_label_2
_geom_bond_site_symmetry_1
_geom_bond_site_symmetry_2
N1 C8 1_555 1_555
O5 C16 1_555 1_555
O6 C16 1_555 1_555
H2 C4 1_555 1_555
C5 C4 1_555 1_555
C6 C5 1_555 1_555
H3 C6 1_555 1_555
C8 C5 1_555 1_555
H5 C8 1_555 1_555
C12 N1 1_555 1_555
C13 C12 1_555 1_555
H7 C13 1_555 1_555
C14 C13 1_555 1_555
H8 C15 1_555 1_555
C16 C14 1_555 1_555
Nd5 O6 1_555 1_555
C11 C12 1_555 1_555
C14 C15 1_555 1_555
O3 C9 1_555 1_555
O4 C9 1_555 1_555
C9 C10 1_555 1_555
Nd2 O3 1_555 1_555
Nd3 O4 1_555 1_555
O4 Nd2 1_555 1_555
Nd1 O1 1_555 1_555
O1 C1 1_555 1_555
O2 Nd1 1_555 1_555
O7 Nd1 1_555 1_555
O8 Nd1 1_555 1_555
C1 O2 1_555 1_555
C2 C1 1_555 1_555
C3 C2 1_555 1_555
H1 C3 1_555 1_555
C7 C2 1_555 1_555
H4 C7 1_555 1_555
C17 O8 1_555 1_555
H9 C17 1_555 1_555
H10 C17 1_555 1_555
C18 C17 1_555 1_555
H11 C18 1_555 1_555
H12 C18 1_555 1_555
C19 C18 1_555 1_555
H13 C19 1_555 1_555
H14 C19 1_555 1_555
C20 O8 1_555 1_555
H15 C20 1_555 1_555
H16 C20 1_555 1_555
O9 Nd1 1_555 1_555
O10 Nd1 1_555 1_555
O11 Nd1 1_555 1_555
O12 Nd1 1_555 1_555
O13 Nd1 1_555 1_555
C19 C20 1_555 1_555
O7 H17 1_555 1_555
O7 H18 1_555 1_555
C1_2 O2_2 1_555 1_555
C2_2 C1_2 1_555 1_555
C3_2 C2_2 1_555 1_555
H1_2 C3_2 1_555 1_555
C7_2 C2_2 1_555 1_555
H4_2 C7_2 1_555 1_555
Nd4 O1_2 1_555 1_555
O7_2 Nd4 1_555 1_555
O8_2 Nd4 1_555 1_555
C17_2 O8_2 1_555 1_555
H9_2 C17_2 1_555 1_555
H10_2 C17_2 1_555 1_555
C18_2 C17_2 1_555 1_555
H11_2 C18_2 1_555 1_555
H12_2 C18_2 1_555 1_555
C19_2 C18_2 1_555 1_555
H13_2 C19_2 1_555 1_555
H14_2 C19_2 1_555 1_555
C20_2 O8_2 1_555 1_555
H15_2 C20_2 1_555 1_555
H16_2 C20_2 1_555 1_555
O11_2 Nd4 1_555 1_555
O13_2 Nd4 1_555 1_555
C19_2 C20_2 1_555 1_555
O7_2 H17_2 1_555 1_555
O7_2 H18_2 1_555 1_555
N1_2 C8_2 1_555 1_555
O12 C16_2 1_555 1_555
O6_2 C16_2 1_555 1_555
H2_2 C4_2 1_555 1_555
C5_2 C4_2 1_555 1_555
C6_2 C5_2 1_555 1_555
H3_2 C6_2 1_555 1_555
C8_2 C5_2 1_555 1_555
H5_2 C8_2 1_555 1_555
C12_2 N1_2 1_555 1_555
C13_2 C12_2 1_555 1_555
H7_2 C13_2 1_555 1_555
C14_2 C13_2 1_555 1_555
H8_2 C15_2 1_555 1_555
C16_2 C14_2 1_555 1_555
Nd5_2 O6_2 1_555 1_555
C11_2 C12_2 1_555 1_555
C14_2 C15_2 1_555 1_555
O3_2 C9_2 1_555 1_555
O4_2 C9_2 1_555 1_555
C9_2 C10_2 1_555 1_555
Nd3_2 O4_2 1_555 1_555
Nd2 O1_3 1_555 1_555
N1_3 C8_3 1_555 1_555
O1_3 C1_3 1_555 1_555
O2_3 Nd2 1_555 1_555
O9 C9_3 1_555 1_555
O10 C9_3 1_555 1_555
O5_2 C16_3 1_555 1_555
O6_3 C16_3 1_555 1_555
O7_3 Nd2 1_555 1_555
O8_3 Nd2 1_555 1_555
C1_3 O2_3 1_555 1_555
C2_3 C1_3 1_555 1_555
C3_3 C2_3 1_555 1_555
H1_3 C3_3 1_555 1_555
C4_3 C3_3 1_555 1_555
H2_3 C4_3 1_555 1_555
C5_3 C4_3 1_555 1_555
C6_3 C5_3 1_555 1_555
H3_3 C6_3 1_555 1_555
C7_3 C2_3 1_555 1_555
H4_3 C7_3 1_555 1_555
C8_3 C5_3 1_555 1_555
H5_3 C8_3 1_555 1_555
C9_3 C10_3 1_555 1_555
C10_3 C11_3 1_555 1_555
C11_3 H6_3 1_555 1_555
C12_3 N1_3 1_555 1_555
C13_3 C12_3 1_555 1_555
H7_3 C13_3 1_555 1_555
C14_3 C13_3 1_555 1_555
C15_3 C10_3 1_555 1_555
H8_3 C15_3 1_555 1_555
C16_3 C14_3 1_555 1_555
C17_3 O8_3 1_555 1_555
H9_3 C17_3 1_555 1_555
H10_3 C17_3 1_555 1_555
C18_3 C17_3 1_555 1_555
H11_3 C18_3 1_555 1_555
H12_3 C18_3 1_555 1_555
C19_3 C18_3 1_555 1_555
H13_3 C19_3 1_555 1_555
H14_3 C19_3 1_555 1_555
C20_3 O8_3 1_555 1_555
H15_3 C20_3 1_555 1_555
H16_3 C20_3 1_555 1_555
Nd5_2 O10 1_555 1_555
Nd3_2 O6_3 1_555 1_555
O11_3 Nd2 1_555 1_555
O12_2 Nd2 1_555 1_555
O13_3 Nd2 1_555 1_555
C6_3 C7_3 1_555 1_555
C11_3 C12_3 1_555 1_555
C14_3 C15_3 1_555 1_555
C19_3 C20_3 1_555 1_555
O7_3 H17_3 1_555 1_555
O7_3 H18_3 1_555 1_555
N1_4 C8_4 1_555 1_555
O9_2 C9_4 1_555 1_555
O10_2 C9_4 1_555 1_555
O12_2 C16_4 1_555 1_555
O6_4 C16_4 1_555 1_555
C1_4 O2_4 1_555 1_555
C2_4 C1_4 1_555 1_555
C3_4 C2_4 1_555 1_555
H1_4 C3_4 1_555 1_555
C4_4 C3_4 1_555 1_555
H2_4 C4_4 1_555 1_555
C5_4 C4_4 1_555 1_555
C6_4 C5_4 1_555 1_555
H3_4 C6_4 1_555 1_555
C7_4 C2_4 1_555 1_555
H4_4 C7_4 1_555 1_555
C8_4 C5_4 1_555 1_555
H5_4 C8_4 1_555 1_555
C9_4 C10_4 1_555 1_555
C10_4 C11_4 1_555 1_555
C11_4 H6_4 1_555 1_555
C12_4 N1_4 1_555 1_555
C13_4 C12_4 1_555 1_555
H7_4 C13_4 1_555 1_555
C14_4 C13_4 1_555 1_555
C15_4 C10_4 1_555 1_555
H8_4 C15_4 1_555 1_555
C16_4 C14_4 1_555 1_555
Nd5 O10_2 1_555 1_555
Nd3 O6_4 1_555 1_555
C6_4 C7_4 1_555 1_555
C11_4 C12_4 1_555 1_555
C14_4 C15_4 1_555 1_555
Nd2_2 O1_4 1_555 1_555
O7_4 Nd2_2 1_555 1_555
O8_4 Nd2_2 1_555 1_555
C17_4 O8_4 1_555 1_555
H9_4 C17_4 1_555 1_555
H10_4 C17_4 1_555 1_555
C18_4 C17_4 1_555 1_555
H11_4 C18_4 1_555 1_555
H12_4 C18_4 1_555 1_555
C19_4 C18_4 1_555 1_555
H13_4 C19_4 1_555 1_555
H14_4 C19_4 1_555 1_555
C20_4 O8_4 1_555 1_555
H15_4 C20_4 1_555 1_555
H16_4 C20_4 1_555 1_555
O11_4 Nd2_2 1_555 1_555
O13_4 Nd2_2 1_555 1_555
C19_4 C20_4 1_555 1_555
O7_4 H17_4 1_555 1_555
O7_4 H18_4 1_555 1_555
Nd3 O1_5 1_555 1_555
O1_5 C1_5 1_555 1_555
O2_5 Nd3 1_555 1_555
O7_5 Nd3 1_555 1_555
O8_5 Nd3 1_555 1_555
C1_5 O2_5 1_555 1_555
C2_5 C1_5 1_555 1_555
C3_5 C2_5 1_555 1_555
H1_5 C3_5 1_555 1_555
C7_5 C2_5 1_555 1_555
H4_5 C7_5 1_555 1_555
C17_5 O8_5 1_555 1_555
H9_5 C17_5 1_555 1_555
H10_5 C17_5 1_555 1_555
C18_5 C17_5 1_555 1_555
H11_5 C18_5 1_555 1_555
H12_5 C18_5 1_555 1_555
C19_5 C18_5 1_555 1_555
H13_5 C19_5 1_555 1_555
H14_5 C19_5 1_555 1_555
C20_5 O8_5 1_555 1_555
H15_5 C20_5 1_555 1_555
H16_5 C20_5 1_555 1_555
O9_3 Nd3 1_555 1_555
O11_3 Nd3 1_555 1_555
O12_3 Nd3 1_555 1_555
C19_5 C20_5 1_555 1_555
O7_5 H17_5 1_555 1_555
O7_5 H18_5 1_555 1_555
O3_3 C9_5 1_555 1_555
O11 C9_5 1_555 1_555
C9_5 C10_5 1_555 1_555
Nd5_2 O3_3 1_555 1_555
O11 Nd5_2 1_555 1_555
N1_5 C8_5 1_555 1_555
O5_3 C16_5 1_555 1_555
O13_4 C16_5 1_555 1_555
H2_5 C4_5 1_555 1_555
C5_5 C4_5 1_555 1_555
C6_5 C5_5 1_555 1_555
H3_5 C6_5 1_555 1_555
C8_5 C5_5 1_555 1_555
H5_5 C8_5 1_555 1_555
C12_5 N1_5 1_555 1_555
C13_5 C12_5 1_555 1_555
H7_5 C13_5 1_555 1_555
C14_5 C13_5 1_555 1_555
H8_5 C15_5 1_555 1_555
C16_5 C14_5 1_555 1_555
C11_5 C12_5 1_555 1_555
C14_5 C15_5 1_555 1_555
O3_4 C9_6 1_555 1_555
O11_2 C9_6 1_555 1_555
C9_6 C10_6 1_555 1_555
N1_6 C8_6 1_555 1_555
O12_3 C16_6 1_555 1_555
O13_3 C16_6 1_555 1_555
H2_6 C4_6 1_555 1_555
C5_6 C4_6 1_555 1_555
C6_6 C5_6 1_555 1_555
H3_6 C6_6 1_555 1_555
C8_6 C5_6 1_555 1_555
H5_6 C8_6 1_555 1_555
C12_6 N1_6 1_555 1_555
C13_6 C12_6 1_555 1_555
H7_6 C13_6 1_555 1_555
C14_6 C13_6 1_555 1_555
H8_6 C15_6 1_555 1_555
C16_6 C14_6 1_555 1_555
C11_6 C12_6 1_555 1_555
C14_6 C15_6 1_555 1_555
Nd3_2 O1_6 1_555 1_555
O7_6 Nd3_2 1_555 1_555
O8_6 Nd3_2 1_555 1_555
C17_6 O8_6 1_555 1_555
H9_6 C17_6 1_555 1_555
H10_6 C17_6 1_555 1_555
C18_6 C17_6 1_555 1_555
H11_6 C18_6 1_555 1_555
H12_6 C18_6 1_555 1_555
C19_6 C18_6 1_555 1_555
H13_6 C19_6 1_555 1_555
H14_6 C19_6 1_555 1_555
C20_6 O8_6 1_555 1_555
H15_6 C20_6 1_555 1_555
H16_6 C20_6 1_555 1_555
C19_6 C20_6 1_555 1_555
O7_6 H17_6 1_555 1_555
O7_6 H18_6 1_555 1_555
C1_6 O2_6 1_555 1_555
C2_6 C1_6 1_555 1_555
C3_6 C2_6 1_555 1_555
H1_6 C3_6 1_555 1_555
C7_6 C2_6 1_555 1_555
H4_6 C7_6 1_555 1_555
Nd5_2 O1_7 1_555 1_555
N1_7 C8_7 1_555 1_555
O1_7 C1_7 1_555 1_555
O2_7 Nd5_2 1_555 1_555
O9_3 C9_7 1_555 1_555
O11_3 C9_7 1_555 1_555
O5_4 C16_7 1_555 1_555
O13_2 C16_7 1_555 1_555
O7_7 Nd5_2 1_555 1_555
O8_7 Nd5_2 1_555 1_555
C1_7 O2_7 1_555 1_555
C2_7 C1_7 1_555 1_555
C3_7 C2_7 1_555 1_555
H1_7 C3_7 1_555 1_555
C4_7 C3_7 1_555 1_555
H2_7 C4_7 1_555 1_555
C5_7 C4_7 1_555 1_555
C6_7 C5_7 1_555 1_555
H3_7 C6_7 1_555 1_555
C7_7 C2_7 1_555 1_555
H4_7 C7_7 1_555 1_555
C8_7 C5_7 1_555 1_555
H5_7 C8_7 1_555 1_555
C9_7 C10_7 1_555 1_555
C10_7 C11_7 1_555 1_555
C11_7 H6_7 1_555 1_555
C12_7 N1_7 1_555 1_555
C13_7 C12_7 1_555 1_555
H7_7 C13_7 1_555 1_555
C14_7 C13_7 1_555 1_555
C15_7 C10_7 1_555 1_555
H8_7 C15_7 1_555 1_555
C16_7 C14_7 1_555 1_555
C17_7 O8_7 1_555 1_555
H9_7 C17_7 1_555 1_555
H10_7 C17_7 1_555 1_555
C18_7 C17_7 1_555 1_555
H11_7 C18_7 1_555 1_555
H12_7 C18_7 1_555 1_555
C19_7 C18_7 1_555 1_555
H13_7 C19_7 1_555 1_555
H14_7 C19_7 1_555 1_555
C20_7 O8_7 1_555 1_555
H15_7 C20_7 1_555 1_555
H16_7 C20_7 1_555 1_555
O12_4 Nd5_2 1_555 1_555
C6_7 C7_7 1_555 1_555
C11_7 C12_7 1_555 1_555
C14_7 C15_7 1_555 1_555
C19_7 C20_7 1_555 1_555
O7_7 H17_7 1_555 1_555
O7_7 H18_7 1_555 1_555
Nd5 O1_8 1_555 1_555
O7_8 Nd5 1_555 1_555
O8_8 Nd5 1_555 1_555
C17_8 O8_8 1_555 1_555
H9_8 C17_8 1_555 1_555
H10_8 C17_8 1_555 1_555
C18_8 C17_8 1_555 1_555
H11_8 C18_8 1_555 1_555
H12_8 C18_8 1_555 1_555
C19_8 C18_8 1_555 1_555
H13_8 C19_8 1_555 1_555
H14_8 C19_8 1_555 1_555
C20_8 O8_8 1_555 1_555
H15_8 C20_8 1_555 1_555
H16_8 C20_8 1_555 1_555
C19_8 C20_8 1_555 1_555
O7_8 H17_8 1_555 1_555
O7_8 H18_8 1_555 1_555
N1_8 C8_8 1_555 1_555
O9_4 C9_8 1_555 1_555
O11_4 C9_8 1_555 1_555
O12_4 C16_8 1_555 1_555
O13 C16_8 1_555 1_555
C1_8 O2_8 1_555 1_555
C2_8 C1_8 1_555 1_555
C3_8 C2_8 1_555 1_555
H1_8 C3_8 1_555 1_555
C4_8 C3_8 1_555 1_555
H2_8 C4_8 1_555 1_555
C5_8 C4_8 1_555 1_555
C6_8 C5_8 1_555 1_555
H3_8 C6_8 1_555 1_555
C7_8 C2_8 1_555 1_555
H4_8 C7_8 1_555 1_555
C8_8 C5_8 1_555 1_555
H5_8 C8_8 1_555 1_555
C9_8 C10_8 1_555 1_555
C10_8 C11_8 1_555 1_555
C11_8 H6_8 1_555 1_555
C12_8 N1_8 1_555 1_555
C13_8 C12_8 1_555 1_555
H7_8 C13_8 1_555 1_555
C14_8 C13_8 1_555 1_555
C15_8 C10_8 1_555 1_555
H8_8 C15_8 1_555 1_555
C16_8 C14_8 1_555 1_555
C6_8 C7_8 1_555 1_555
C11_8 C12_8 1_555 1_555
C14_8 C15_8 1_555 1_555

#END
