
###############################################################################
#
# This file contains modified crystal structure data generated from the
# MOF subset of the Cambridge Structural Database (CSD) v543 
# hosted by the Cambridge Crystallographic Data Centre (CCDC).
#
# This work is licensed under the Creative Commons
# Attribution-NonCommercial-ShareAlike 4.0 International License.
# To view a copy of this license, visit
# http://creativecommons.org/licenses/by-nc-sa/4.0/
# or send a letter to
# Creative Commons, PO Box 1866, Mountain View, CA 94042, USA.
#
# CIF created using the CSD Python API on 29 September 2022
# The structure has been converted into the P1 space group
# The structure has a 3D framework
# The original CSD entry GEDSAL is in the monoclinic crystal system
# The framework has been calculated to contain at least 10.0% void space
# The void calculation uses a probe of radius 1.32A, grid spacing 0.4
#
###############################################################################

data_GEDSAL
_chemical_formula_moiety         '(C176 H160 N8 Nd8 O64)n'
_symmetry_cell_setting           triclinic
_symmetry_space_group_name_H-M   'P 1'
_symmetry_Int_Tables_number      1
_space_group_name_Hall           'P 1'
loop_
_symmetry_equiv_pos_site_id
_symmetry_equiv_pos_as_xyz
1 x,y,z
_cell_length_a                   28.6181(18)
_cell_length_b                   14.4649(10)
_cell_length_c                   12.8273(10)
_cell_angle_alpha                90
_cell_angle_beta                 103.661(7)
_cell_angle_gamma                90
_cell_volume                     5159.74
loop_
_atom_site_label
_atom_site_type_symbol
_atom_site_fract_x
_atom_site_fract_y
_atom_site_fract_z
O5 O 0.27158(17) 0.1775(4) 0.1849(4)
O6 O 0.19930(17) 0.2464(4) 0.1288(4)
N1 N 0.0960(2) 0.0869(5) 0.3522(5)
C4 C 0.0042(3) 0.1103(6) 0.4070(6)
H2 H 0.0125 0.0491 0.3984
C5 C 0.0334(3) 0.1838(6) 0.3847(7)
C6 C 0.0201(4) 0.2754(6) 0.3962(10)
H3 H 0.0397 0.3235 0.3840
C8 C 0.0791(3) 0.1676(7) 0.3566(7)
H5 H 0.097(3) 0.228(4) 0.353(7)
C11 C 0.1712(2) 0.0051(5) 0.3867(6)
C12 C 0.1436(2) 0.0792(5) 0.3342(6)
C13 C 0.1612(2) 0.1364(5) 0.2673(5)
H7 H 0.1417 0.1822 0.2285
C14 C 0.2084(2) 0.1254(5) 0.2579(5)
C15 C 0.2366(2) 0.0574(5) 0.3156(5)
H8 H 0.2686 0.0528 0.3119
C16 C 0.2277(3) 0.1893(5) 0.1845(6)
Nd4 Nd 0.319715(12) 0.21383(3) 0.05916(3)
Nd5 Nd 0.180285(12) 0.28617(3) 0.94084(3)
O3 O 0.29466(16) 0.9346(3) 0.4649(4)
O4 O 0.23130(16) 0.8490(3) 0.4639(4)
C9 C 0.2507(2) 0.9233(5) 0.4391(6)
C10 C 0.2190(2) 0.9959(5) 0.3788(5)
H6 H 0.1580 0.9627 0.4261
Nd2 Nd 0.319715(12) 0.78617(3) 0.55916(3)
Nd3 Nd 0.180285(12) 0.71383(3) 0.44084(3)
Nd1 Nd 0.819715(12) 0.28617(3) 0.55916(3)
O1 O 0.8939(2) 0.3271(4) 0.4988(6)
O2 O 0.88422(18) 0.1796(4) 0.5280(4)
O7 O 0.8560(3) 0.2017(5) 0.7282(5)
O8 O 0.8635(3) 0.4049(8) 0.6812(7)
C1 C 0.9062(3) 0.2452(6) 0.4966(7)
C2 C 0.9498(3) 0.2230(5) 0.4530(7)
C3 C 0.9629(2) 0.1314(5) 0.4418(6)
H1 H 0.9439 0.0838 0.4579
C7 C 0.9772(3) 0.2944(6) 0.4262(10)
H4 H 0.9669 0.3553 0.4283
C17 C 0.8867(5) 0.1516(9) 0.7881(9)
C18 C 0.8697(7) 0.0915(10) 0.8673(11)
H9 H 0.8390 0.1128 0.8750
H10 H 0.8925 0.0944 0.9355
H11 H 0.8669 0.0287 0.8421
C19 C 0.9354(4) 0.1209(13) 0.7741(13)
H12 H 0.9453 0.1604 0.7231
H13 H 0.9334 0.0582 0.7487
H14 H 0.9585 0.1246 0.8418
C20 C 0.8725(11) 0.4603(14) 0.7585(14)
C21 C 0.8612(10) 0.5600(17) 0.730(2)
H15 H 0.8551 0.5674 0.6533
H16 H 0.8880 0.5979 0.7637
H17 H 0.8333 0.5783 0.7538
C22 C 0.8812(9) 0.4620(17) 0.8788(14)
H18 H 0.8871 0.4003 0.9062
H19 H 0.8535 0.4867 0.8988
H20 H 0.9087 0.5001 0.9081
O9 O 0.79466(16) 0.4346(3) 0.4649(4)
O10 O 0.73130(16) 0.3490(3) 0.4639(4)
O11 O 0.76870(16) 0.1510(3) 0.5361(4)
O12 O 0.77158(17) 0.3225(4) 0.6849(4)
O13 O 0.80070(17) 0.2464(4) 0.3712(4)
O1_2 O 0.1061(2) 0.3271(4) 0.0012(6)
C1_2 C 0.0938(3) 0.2452(6) 0.0034(7)
C2_2 C 0.0502(3) 0.2230(5) 0.0470(7)
C3_2 C 0.0371(2) 0.1314(5) 0.0582(6)
H1_2 H 0.0561 0.0838 0.0421
C7_2 C 0.0228(3) 0.2944(6) 0.0738(10)
H4_2 H 0.0331 0.3553 0.0717
O9_2 O 0.20534(16) 0.4346(3) 0.0351(4)
O10_2 O 0.26870(16) 0.3490(3) 0.0361(4)
O2_2 O 0.11578(18) 0.1796(4) 0.9720(4)
O7_2 O 0.1440(3) 0.2017(5) 0.7718(5)
O8_2 O 0.1365(3) 0.4049(8) 0.8188(7)
C17_2 C 0.1133(5) 0.1516(9) 0.7119(9)
C18_2 C 0.1303(7) 0.0915(10) 0.6327(11)
H9_2 H 0.1610 0.1128 0.6250
H10_2 H 0.1075 0.0944 0.5645
H11_2 H 0.1331 0.0287 0.6579
C19_2 C 0.0646(4) 0.1209(13) 0.7259(13)
H12_2 H 0.0547 0.1604 0.7769
H13_2 H 0.0666 0.0582 0.7513
H14_2 H 0.0415 0.1246 0.6582
C20_2 C 0.1275(11) 0.4603(14) 0.7415(14)
C21_2 C 0.1388(10) 0.5600(17) 0.770(2)
H15_2 H 0.1449 0.5674 0.8467
H16_2 H 0.1120 0.5979 0.7363
H17_2 H 0.1667 0.5783 0.7462
C22_2 C 0.1188(9) 0.4620(17) 0.6212(14)
H18_2 H 0.1129 0.4003 0.5938
H19_2 H 0.1465 0.4867 0.6012
H20_2 H 0.0913 0.5001 0.5919
O11_2 O 0.23130(16) 0.1510(3) 0.9639(4)
O12_2 O 0.22842(17) 0.3225(4) 0.8151(4)
O5_2 O 0.72842(17) 0.1775(4) 0.3151(4)
N1_2 N 0.9040(2) 0.0869(5) 0.1478(5)
C4_2 C 0.9958(3) 0.1103(6) 0.0930(6)
H2_2 H 0.9875 0.0491 0.1016
C5_2 C 0.9666(3) 0.1838(6) 0.1153(7)
C6_2 C 0.9799(4) 0.2754(6) 0.1038(10)
H3_2 H 0.9603 0.3235 0.1160
C8_2 C 0.9209(3) 0.1676(7) 0.1434(7)
H5_2 H 0.903(3) 0.228(4) 0.147(7)
C11_2 C 0.8288(2) 0.0051(5) 0.1133(6)
C12_2 C 0.8564(2) 0.0792(5) 0.1658(6)
C13_2 C 0.8388(2) 0.1364(5) 0.2327(5)
H7_2 H 0.8583 0.1822 0.2715
C14_2 C 0.7916(2) 0.1254(5) 0.2421(5)
C15_2 C 0.7634(2) 0.0574(5) 0.1844(5)
H8_2 H 0.7314 0.0528 0.1881
C16_2 C 0.7723(3) 0.1893(5) 0.3155(6)
Nd4_2 Nd 0.680285(12) 0.21383(3) 0.44084(3)
O3_2 O 0.70534(16) 0.9346(3) 0.0351(4)
O4_2 O 0.76870(16) 0.8490(3) 0.0361(4)
C9_2 C 0.7493(2) 0.9233(5) 0.0609(6)
C10_2 C 0.7810(2) 0.9959(5) 0.1212(5)
H6_2 H 0.8420 0.9627 0.0739
Nd3_2 Nd 0.819715(12) 0.71383(3) 0.05916(3)
Nd2_2 Nd 0.680285(12) 0.78617(3) 0.94084(3)
O1_3 O 0.3939(2) 0.8271(4) 0.4988(6)
O2_3 O 0.38422(18) 0.6796(4) 0.5280(4)
O5_3 O 0.77158(17) 0.6775(4) 0.1849(4)
O6_2 O 0.69930(17) 0.7464(4) 0.1288(4)
O7_3 O 0.3560(3) 0.7017(5) 0.7282(5)
O8_3 O 0.3635(3) 0.9049(8) 0.6812(7)
N1_3 N 0.5960(2) 0.5869(5) 0.3522(5)
C1_3 C 0.4062(3) 0.7452(6) 0.4966(7)
C2_3 C 0.4498(3) 0.7230(5) 0.4530(7)
C3_3 C 0.4629(2) 0.6314(5) 0.4418(6)
H1_3 H 0.4439 0.5838 0.4579
C4_3 C 0.5042(3) 0.6103(6) 0.4070(6)
H2_3 H 0.5125 0.5491 0.3984
C5_3 C 0.5334(3) 0.6838(6) 0.3847(7)
C6_3 C 0.5201(4) 0.7754(6) 0.3962(10)
H3_3 H 0.5397 0.8235 0.3840
C7_3 C 0.4772(3) 0.7944(6) 0.4262(10)
H4_3 H 0.4669 0.8553 0.4283
C8_3 C 0.5791(3) 0.6676(7) 0.3566(7)
H5_3 H 0.597(3) 0.728(4) 0.353(7)
C9_3 C 0.7507(2) 0.4233(5) 0.4391(6)
C10_3 C 0.7190(2) 0.4959(5) 0.3788(5)
C11_3 C 0.6712(2) 0.5051(5) 0.3867(6)
H6_3 H 0.6580 0.4627 0.4261
C12_3 C 0.6436(2) 0.5792(5) 0.3342(6)
C13_3 C 0.6612(2) 0.6364(5) 0.2673(5)
H7_3 H 0.6417 0.6822 0.2285
C14_3 C 0.7084(2) 0.6254(5) 0.2579(5)
C15_3 C 0.7366(2) 0.5574(5) 0.3156(5)
H8_3 H 0.7686 0.5528 0.3119
C16_3 C 0.7277(3) 0.6893(5) 0.1845(6)
C17_3 C 0.3867(5) 0.6516(9) 0.7881(9)
C18_3 C 0.3697(7) 0.5915(10) 0.8673(11)
H9_3 H 0.3390 0.6128 0.8750
H10_3 H 0.3925 0.5944 0.9355
H11_3 H 0.3669 0.5287 0.8421
C19_3 C 0.4354(4) 0.6209(13) 0.7741(13)
H12_3 H 0.4453 0.6604 0.7231
H13_3 H 0.4334 0.5582 0.7487
H14_3 H 0.4585 0.6246 0.8418
C20_3 C 0.3725(11) 0.9603(14) 0.7585(14)
C22_3 C 0.3812(9) 0.9620(17) 0.8788(14)
H18_3 H 0.3871 0.9003 0.9062
H19_3 H 0.3535 0.9867 0.8988
O11_3 O 0.26870(16) 0.6510(3) 0.5361(4)
O12_3 O 0.27158(17) 0.8225(4) 0.6849(4)
O13_2 O 0.30070(17) 0.7464(4) 0.3712(4)
O1_4 O 0.6061(2) 0.8271(4) 0.0012(6)
O5_4 O 0.22842(17) 0.6775(4) 0.3151(4)
N1_4 N 0.4040(2) 0.5869(5) 0.1478(5)
C1_4 C 0.5938(3) 0.7452(6) 0.0034(7)
C2_4 C 0.5502(3) 0.7230(5) 0.0470(7)
C3_4 C 0.5371(2) 0.6314(5) 0.0582(6)
H1_4 H 0.5561 0.5838 0.0421
C4_4 C 0.4958(3) 0.6103(6) 0.0930(6)
H2_4 H 0.4875 0.5491 0.1016
C5_4 C 0.4666(3) 0.6838(6) 0.1153(7)
C6_4 C 0.4799(4) 0.7754(6) 0.1038(10)
H3_4 H 0.4603 0.8235 0.1160
C7_4 C 0.5228(3) 0.7944(6) 0.0738(10)
H4_4 H 0.5331 0.8553 0.0717
C8_4 C 0.4209(3) 0.6676(7) 0.1434(7)
H5_4 H 0.403(3) 0.728(4) 0.147(7)
C9_4 C 0.2493(2) 0.4233(5) 0.0609(6)
C10_4 C 0.2810(2) 0.4959(5) 0.1212(5)
C11_4 C 0.3288(2) 0.5051(5) 0.1133(6)
H6_4 H 0.3420 0.4627 0.0739
C12_4 C 0.3564(2) 0.5792(5) 0.1658(6)
C13_4 C 0.3388(2) 0.6364(5) 0.2327(5)
H7_4 H 0.3583 0.6822 0.2715
C14_4 C 0.2916(2) 0.6254(5) 0.2421(5)
C15_4 C 0.2634(2) 0.5574(5) 0.1844(5)
H8_4 H 0.2314 0.5528 0.1881
C16_4 C 0.2723(3) 0.6893(5) 0.3155(6)
O2_4 O 0.61578(18) 0.6796(4) 0.9720(4)
O7_4 O 0.6440(3) 0.7017(5) 0.7718(5)
O8_4 O 0.6365(3) 0.9049(8) 0.8188(7)
C17_4 C 0.6133(5) 0.6516(9) 0.7119(9)
C18_4 C 0.6303(7) 0.5915(10) 0.6327(11)
H9_4 H 0.6610 0.6128 0.6250
H10_4 H 0.6075 0.5944 0.5645
H11_4 H 0.6331 0.5287 0.6579
C19_4 C 0.5646(4) 0.6209(13) 0.7259(13)
H12_4 H 0.5547 0.6604 0.7769
H13_4 H 0.5666 0.5582 0.7513
H14_4 H 0.5415 0.6246 0.6582
C20_4 C 0.6275(11) 0.9603(14) 0.7415(14)
C22_4 C 0.6188(9) 0.9620(17) 0.6212(14)
H18_4 H 0.6129 0.9003 0.5938
H19_4 H 0.6465 0.9867 0.6012
O11_4 O 0.73130(16) 0.6510(3) 0.9639(4)
O12_4 O 0.72842(17) 0.8225(4) 0.8151(4)
O1_5 O 0.1061(2) 0.6729(4) 0.5012(6)
O2_5 O 0.11578(18) 0.8204(4) 0.4720(4)
O7_5 O 0.1440(3) 0.7983(5) 0.2718(5)
O8_5 O 0.1365(3) 0.5951(8) 0.3188(7)
C1_5 C 0.0938(3) 0.7548(6) 0.5034(7)
C2_5 C 0.0502(3) 0.7770(5) 0.5470(7)
C3_5 C 0.0371(2) 0.8686(5) 0.5582(6)
H1_5 H 0.0561 0.9162 0.5421
C7_5 C 0.0228(3) 0.7056(6) 0.5738(10)
H4_5 H 0.0331 0.6447 0.5717
C17_5 C 0.1133(5) 0.8484(9) 0.2119(9)
C18_5 C 0.1303(7) 0.9085(10) 0.1327(11)
H9_5 H 0.1610 0.8872 0.1250
H10_5 H 0.1075 0.9056 0.0645
H11_5 H 0.1331 0.9713 0.1579
C19_5 C 0.0646(4) 0.8791(13) 0.2259(13)
H12_5 H 0.0547 0.8396 0.2769
H13_5 H 0.0666 0.9418 0.2513
H14_5 H 0.0415 0.8754 0.1582
C20_5 C 0.1275(11) 0.5397(14) 0.2415(14)
C21_3 C 0.1388(10) 0.4400(17) 0.270(2)
H15_3 H 0.1449 0.4326 0.3467
H16_3 H 0.1120 0.4021 0.2363
H17_3 H 0.1667 0.4217 0.2462
C22_5 C 0.1188(9) 0.5380(17) 0.1212(14)
H18_5 H 0.1129 0.5997 0.0938
H19_5 H 0.1465 0.5133 0.1012
H20_3 H 0.0913 0.4999 0.0919
O9_3 O 0.20534(16) 0.5654(3) 0.5351(4)
O13_3 O 0.19930(17) 0.7536(4) 0.6288(4)
O3_3 O 0.70534(16) 0.0654(3) 0.5351(4)
C9_5 C 0.7493(2) 0.0767(5) 0.5609(6)
C10_5 C 0.7810(2) 0.0041(5) 0.6212(5)
H6_5 H 0.8420 0.0373 0.5739
O6_3 O 0.80070(17) 0.7536(4) 0.8712(4)
N1_5 N 0.9040(2) 0.9131(5) 0.6478(5)
C4_5 C 0.9958(3) 0.8897(6) 0.5930(6)
H2_5 H 0.9875 0.9509 0.6016
C5_5 C 0.9666(3) 0.8162(6) 0.6153(7)
C6_5 C 0.9799(4) 0.7246(6) 0.6038(10)
H3_5 H 0.9603 0.6765 0.6160
C8_5 C 0.9209(3) 0.8324(7) 0.6434(7)
H5_5 H 0.903(3) 0.772(4) 0.647(7)
C11_5 C 0.8288(2) 0.9949(5) 0.6133(6)
C12_5 C 0.8564(2) 0.9208(5) 0.6658(6)
C13_5 C 0.8388(2) 0.8636(5) 0.7327(5)
H7_5 H 0.8583 0.8178 0.7715
C14_5 C 0.7916(2) 0.8746(5) 0.7421(5)
C15_5 C 0.7634(2) 0.9426(5) 0.6844(5)
H8_5 H 0.7314 0.9472 0.6881
C16_5 C 0.7723(3) 0.8107(5) 0.8155(6)
O3_4 O 0.29466(16) 0.0654(3) 0.9649(4)
C9_6 C 0.2507(2) 0.0767(5) 0.9391(6)
C10_6 C 0.2190(2) 0.0041(5) 0.8788(5)
H6_6 H 0.1580 0.0373 0.9261
N1_6 N 0.0960(2) 0.9131(5) 0.8522(5)
C4_6 C 0.0042(3) 0.8897(6) 0.9070(6)
H2_6 H 0.0125 0.9509 0.8984
C5_6 C 0.0334(3) 0.8162(6) 0.8847(7)
C6_6 C 0.0201(4) 0.7246(6) 0.8962(10)
H3_6 H 0.0397 0.6765 0.8840
C8_6 C 0.0791(3) 0.8324(7) 0.8566(7)
H5_6 H 0.097(3) 0.772(4) 0.853(7)
C11_6 C 0.1712(2) 0.9949(5) 0.8867(6)
C12_6 C 0.1436(2) 0.9208(5) 0.8342(6)
C13_6 C 0.1612(2) 0.8636(5) 0.7673(5)
H7_6 H 0.1417 0.8178 0.7285
C14_6 C 0.2084(2) 0.8746(5) 0.7579(5)
C15_6 C 0.2366(2) 0.9426(5) 0.8156(5)
H8_6 H 0.2686 0.9472 0.8119
C16_6 C 0.2277(3) 0.8107(5) 0.6845(6)
O2_6 O 0.88422(18) 0.8204(4) 0.0280(4)
O7_6 O 0.8560(3) 0.7983(5) 0.2282(5)
O8_6 O 0.8635(3) 0.5951(8) 0.1812(7)
C17_6 C 0.8867(5) 0.8484(9) 0.2881(9)
C18_6 C 0.8697(7) 0.9085(10) 0.3673(11)
H9_6 H 0.8390 0.8872 0.3750
H10_6 H 0.8925 0.9056 0.4355
H11_6 H 0.8669 0.9713 0.3421
C19_6 C 0.9354(4) 0.8791(13) 0.2741(13)
H12_6 H 0.9453 0.8396 0.2231
H13_6 H 0.9334 0.9418 0.2487
H14_6 H 0.9585 0.8754 0.3418
C20_6 C 0.8725(11) 0.5397(14) 0.2585(14)
C21_4 C 0.8612(10) 0.4400(17) 0.230(2)
H15_4 H 0.8551 0.4326 0.1533
H16_4 H 0.8880 0.4021 0.2637
H17_4 H 0.8333 0.4217 0.2538
C22_6 C 0.8812(9) 0.5380(17) 0.3788(14)
H18_6 H 0.8871 0.5997 0.4062
H19_6 H 0.8535 0.5133 0.3988
H20_4 H 0.9087 0.4999 0.4081
O1_6 O 0.8939(2) 0.6729(4) 0.9988(6)
C1_6 C 0.9062(3) 0.7548(6) 0.9966(7)
C2_6 C 0.9498(3) 0.7770(5) 0.9530(7)
C3_6 C 0.9629(2) 0.8686(5) 0.9418(6)
H1_6 H 0.9439 0.9162 0.9579
C7_6 C 0.9772(3) 0.7056(6) 0.9262(10)
H4_6 H 0.9669 0.6447 0.9283
O9_4 O 0.79466(16) 0.5654(3) 0.9649(4)
O1_7 O 0.6061(2) 0.1729(4) 0.5012(6)
O2_7 O 0.61578(18) 0.3204(4) 0.4720(4)
O6_4 O 0.30070(17) 0.2536(4) 0.8712(4)
O7_7 O 0.6440(3) 0.2983(5) 0.2718(5)
O8_7 O 0.6365(3) 0.0951(8) 0.3188(7)
N1_7 N 0.4040(2) 0.4131(5) 0.6478(5)
C1_7 C 0.5938(3) 0.2548(6) 0.5034(7)
C2_7 C 0.5502(3) 0.2770(5) 0.5470(7)
C3_7 C 0.5371(2) 0.3686(5) 0.5582(6)
H1_7 H 0.5561 0.4162 0.5421
C4_7 C 0.4958(3) 0.3897(6) 0.5930(6)
H2_7 H 0.4875 0.4509 0.6016
C5_7 C 0.4666(3) 0.3162(6) 0.6153(7)
C6_7 C 0.4799(4) 0.2246(6) 0.6038(10)
H3_7 H 0.4603 0.1765 0.6160
C7_7 C 0.5228(3) 0.2056(6) 0.5738(10)
H4_7 H 0.5331 0.1447 0.5717
C8_7 C 0.4209(3) 0.3324(7) 0.6434(7)
H5_7 H 0.403(3) 0.272(4) 0.647(7)
C9_7 C 0.2493(2) 0.5767(5) 0.5609(6)
C10_7 C 0.2810(2) 0.5041(5) 0.6212(5)
C11_7 C 0.3288(2) 0.4949(5) 0.6133(6)
H6_7 H 0.3420 0.5373 0.5739
C12_7 C 0.3564(2) 0.4208(5) 0.6658(6)
C13_7 C 0.3388(2) 0.3636(5) 0.7327(5)
H7_7 H 0.3583 0.3178 0.7715
C14_7 C 0.2916(2) 0.3746(5) 0.7421(5)
C15_7 C 0.2634(2) 0.4426(5) 0.6844(5)
H8_7 H 0.2314 0.4472 0.6881
C16_7 C 0.2723(3) 0.3107(5) 0.8155(6)
C17_7 C 0.6133(5) 0.3484(9) 0.2119(9)
C18_7 C 0.6303(7) 0.4085(10) 0.1327(11)
H9_7 H 0.6610 0.3872 0.1250
H10_7 H 0.6075 0.4056 0.0645
H11_7 H 0.6331 0.4713 0.1579
C19_7 C 0.5646(4) 0.3791(13) 0.2259(13)
H12_7 H 0.5547 0.3396 0.2769
H13_7 H 0.5666 0.4418 0.2513
H14_7 H 0.5415 0.3754 0.1582
C20_7 C 0.6275(11) 0.0397(14) 0.2415(14)
C22_7 C 0.6188(9) 0.0380(17) 0.1212(14)
H18_7 H 0.6129 0.0997 0.0938
H19_7 H 0.6465 0.0133 0.1012
O13_4 O 0.69930(17) 0.2536(4) 0.6288(4)
O2_8 O 0.38422(18) 0.3204(4) 0.0280(4)
O7_8 O 0.3560(3) 0.2983(5) 0.2282(5)
O8_8 O 0.3635(3) 0.0951(8) 0.1812(7)
C17_8 C 0.3867(5) 0.3484(9) 0.2881(9)
C18_8 C 0.3697(7) 0.4085(10) 0.3673(11)
H9_8 H 0.3390 0.3872 0.3750
H10_8 H 0.3925 0.4056 0.4355
H11_8 H 0.3669 0.4713 0.3421
C19_8 C 0.4354(4) 0.3791(13) 0.2741(13)
H12_8 H 0.4453 0.3396 0.2231
H13_8 H 0.4334 0.4418 0.2487
H14_8 H 0.4585 0.3754 0.3418
C20_8 C 0.3725(11) 0.0397(14) 0.2585(14)
C22_8 C 0.3812(9) 0.0380(17) 0.3788(14)
H18_8 H 0.3871 0.0997 0.4062
H19_8 H 0.3535 0.0133 0.3988
O1_8 O 0.3939(2) 0.1729(4) 0.9988(6)
N1_8 N 0.5960(2) 0.4131(5) 0.8522(5)
C1_8 C 0.4062(3) 0.2548(6) 0.9966(7)
C2_8 C 0.4498(3) 0.2770(5) 0.9530(7)
C3_8 C 0.4629(2) 0.3686(5) 0.9418(6)
H1_8 H 0.4439 0.4162 0.9579
C4_8 C 0.5042(3) 0.3897(6) 0.9070(6)
H2_8 H 0.5125 0.4509 0.8984
C5_8 C 0.5334(3) 0.3162(6) 0.8847(7)
C6_8 C 0.5201(4) 0.2246(6) 0.8962(10)
H3_8 H 0.5397 0.1765 0.8840
C7_8 C 0.4772(3) 0.2056(6) 0.9262(10)
H4_8 H 0.4669 0.1447 0.9283
C8_8 C 0.5791(3) 0.3324(7) 0.8566(7)
H5_8 H 0.597(3) 0.272(4) 0.853(7)
C9_8 C 0.7507(2) 0.5767(5) 0.9391(6)
C10_8 C 0.7190(2) 0.5041(5) 0.8788(5)
C11_8 C 0.6712(2) 0.4949(5) 0.8867(6)
H6_8 H 0.6580 0.5373 0.9261
C12_8 C 0.6436(2) 0.4208(5) 0.8342(6)
C13_8 C 0.6612(2) 0.3636(5) 0.7673(5)
H7_8 H 0.6417 0.3178 0.7285
C14_8 C 0.7084(2) 0.3746(5) 0.7579(5)
C15_8 C 0.7366(2) 0.4426(5) 0.8156(5)
H8_8 H 0.7686 0.4472 0.8119
C16_8 C 0.7277(3) 0.3107(5) 0.6845(6)
C21_5 C 0.3612(10) 0.0600(17) 0.730(2)
H15_5 H 0.3551 0.0674 0.6533
H16_5 H 0.3880 0.0979 0.7637
H17_5 H 0.3333 0.0783 0.7538
H20_5 H 0.4087 0.0001 0.9081
C21_6 C 0.6388(10) 0.0600(17) 0.770(2)
H15_6 H 0.6449 0.0674 0.8467
H16_6 H 0.6120 0.0979 0.7363
H17_6 H 0.6667 0.0783 0.7462
H20_6 H 0.5913 0.0001 0.5919
C21_7 C 0.6388(10) 0.9400(17) 0.270(2)
H15_7 H 0.6449 0.9326 0.3467
H16_7 H 0.6120 0.9021 0.2363
H17_7 H 0.6667 0.9217 0.2462
H20_7 H 0.5913 0.9999 0.0919
C21_8 C 0.3612(10) 0.9400(17) 0.230(2)
H15_8 H 0.3551 0.9326 0.1533
H16_8 H 0.3880 0.9021 0.2637
H17_8 H 0.3333 0.9217 0.2538
H20_8 H 0.4087 0.9999 0.4081
loop_
_geom_bond_atom_site_label_1
_geom_bond_atom_site_label_2
_geom_bond_site_symmetry_1
_geom_bond_site_symmetry_2
O5 C16 1_555 1_555
O6 C16 1_555 1_555
N1 C8 1_555 1_555
H2 C4 1_555 1_555
C5 C4 1_555 1_555
C6 C5 1_555 1_555
H3 C6 1_555 1_555
C8 C5 1_555 1_555
H5 C8 1_555 1_555
C12 N1 1_555 1_555
C13 C12 1_555 1_555
H7 C13 1_555 1_555
C14 C13 1_555 1_555
H8 C15 1_555 1_555
C16 C14 1_555 1_555
Nd4 O5 1_555 1_555
C11 C12 1_555 1_555
C14 C15 1_555 1_555
O3 C9 1_555 1_555
O4 C9 1_555 1_555
C9 C10 1_555 1_555
Nd2 O3 1_555 1_555
Nd3 O4 1_555 1_555
O4 Nd2 1_555 1_555
Nd1 O1 1_555 1_555
O1 C1 1_555 1_555
O2 Nd1 1_555 1_555
O7 Nd1 1_555 1_555
O8 Nd1 1_555 1_555
C1 O2 1_555 1_555
C2 C1 1_555 1_555
C3 C2 1_555 1_555
H1 C3 1_555 1_555
C7 C2 1_555 1_555
H4 C7 1_555 1_555
C17 O7 1_555 1_555
C18 C17 1_555 1_555
H9 C18 1_555 1_555
H10 C18 1_555 1_555
H11 C18 1_555 1_555
C19 C17 1_555 1_555
H12 C19 1_555 1_555
H13 C19 1_555 1_555
H14 C19 1_555 1_555
C20 O8 1_555 1_555
C21 C20 1_555 1_555
H15 C21 1_555 1_555
H16 C21 1_555 1_555
H17 C21 1_555 1_555
C22 C20 1_555 1_555
H18 C22 1_555 1_555
H19 C22 1_555 1_555
H20 C22 1_555 1_555
O9 Nd1 1_555 1_555
O10 Nd1 1_555 1_555
O11 Nd1 1_555 1_555
O12 Nd1 1_555 1_555
O13 Nd1 1_555 1_555
O1_2 C1_2 1_555 1_555
C2_2 C1_2 1_555 1_555
C3_2 C2_2 1_555 1_555
H1_2 C3_2 1_555 1_555
C7_2 C2_2 1_555 1_555
H4_2 C7_2 1_555 1_555
O2_2 Nd5 1_555 1_555
O7_2 Nd5 1_555 1_555
O8_2 Nd5 1_555 1_555
C17_2 O7_2 1_555 1_555
C18_2 C17_2 1_555 1_555
H9_2 C18_2 1_555 1_555
H10_2 C18_2 1_555 1_555
H11_2 C18_2 1_555 1_555
C19_2 C17_2 1_555 1_555
H12_2 C19_2 1_555 1_555
H13_2 C19_2 1_555 1_555
H14_2 C19_2 1_555 1_555
C20_2 O8_2 1_555 1_555
C21_2 C20_2 1_555 1_555
H15_2 C21_2 1_555 1_555
H16_2 C21_2 1_555 1_555
H17_2 C21_2 1_555 1_555
C22_2 C20_2 1_555 1_555
H18_2 C22_2 1_555 1_555
H19_2 C22_2 1_555 1_555
H20_2 C22_2 1_555 1_555
O11_2 Nd5 1_555 1_555
O12_2 Nd5 1_555 1_555
O5_2 C16_2 1_555 1_555
O13 C16_2 1_555 1_555
N1_2 C8_2 1_555 1_555
H2_2 C4_2 1_555 1_555
C5_2 C4_2 1_555 1_555
C6_2 C5_2 1_555 1_555
H3_2 C6_2 1_555 1_555
C8_2 C5_2 1_555 1_555
H5_2 C8_2 1_555 1_555
C12_2 N1_2 1_555 1_555
C13_2 C12_2 1_555 1_555
H7_2 C13_2 1_555 1_555
C14_2 C13_2 1_555 1_555
H8_2 C15_2 1_555 1_555
C16_2 C14_2 1_555 1_555
Nd4_2 O5_2 1_555 1_555
C11_2 C12_2 1_555 1_555
C14_2 C15_2 1_555 1_555
O3_2 C9_2 1_555 1_555
O4_2 C9_2 1_555 1_555
C9_2 C10_2 1_555 1_555
Nd3_2 O4_2 1_555 1_555
Nd2 O1_3 1_555 1_555
O1_3 C1_3 1_555 1_555
O2_3 Nd2 1_555 1_555
O9 C9_3 1_555 1_555
O10 C9_3 1_555 1_555
O5_3 C16_3 1_555 1_555
O6_2 C16_3 1_555 1_555
O7_3 Nd2 1_555 1_555
O8_3 Nd2 1_555 1_555
N1_3 C8_3 1_555 1_555
C1_3 O2_3 1_555 1_555
C2_3 C1_3 1_555 1_555
C3_3 C2_3 1_555 1_555
H1_3 C3_3 1_555 1_555
C4_3 C3_3 1_555 1_555
H2_3 C4_3 1_555 1_555
C5_3 C4_3 1_555 1_555
C6_3 C5_3 1_555 1_555
H3_3 C6_3 1_555 1_555
C7_3 C2_3 1_555 1_555
H4_3 C7_3 1_555 1_555
C8_3 C5_3 1_555 1_555
H5_3 C8_3 1_555 1_555
C9_3 C10_3 1_555 1_555
C10_3 C11_3 1_555 1_555
C11_3 H6_3 1_555 1_555
C12_3 N1_3 1_555 1_555
C13_3 C12_3 1_555 1_555
H7_3 C13_3 1_555 1_555
C14_3 C13_3 1_555 1_555
C15_3 C10_3 1_555 1_555
H8_3 C15_3 1_555 1_555
C16_3 C14_3 1_555 1_555
C17_3 O7_3 1_555 1_555
C18_3 C17_3 1_555 1_555
H9_3 C18_3 1_555 1_555
H10_3 C18_3 1_555 1_555
H11_3 C18_3 1_555 1_555
C19_3 C17_3 1_555 1_555
H12_3 C19_3 1_555 1_555
H13_3 C19_3 1_555 1_555
H14_3 C19_3 1_555 1_555
C20_3 O8_3 1_555 1_555
C22_3 C20_3 1_555 1_555
H18_3 C22_3 1_555 1_555
H19_3 C22_3 1_555 1_555
Nd4_2 O10 1_555 1_555
Nd3_2 O5_3 1_555 1_555
O11_3 Nd2 1_555 1_555
O12_3 Nd2 1_555 1_555
O13_2 Nd2 1_555 1_555
C6_3 C7_3 1_555 1_555
C11_3 C12_3 1_555 1_555
C14_3 C15_3 1_555 1_555
O1_4 C1_4 1_555 1_555
O9_2 C9_4 1_555 1_555
O10_2 C9_4 1_555 1_555
O5_4 C16_4 1_555 1_555
O13_2 C16_4 1_555 1_555
N1_4 C8_4 1_555 1_555
C2_4 C1_4 1_555 1_555
C3_4 C2_4 1_555 1_555
H1_4 C3_4 1_555 1_555
C4_4 C3_4 1_555 1_555
H2_4 C4_4 1_555 1_555
C5_4 C4_4 1_555 1_555
C6_4 C5_4 1_555 1_555
H3_4 C6_4 1_555 1_555
C7_4 C2_4 1_555 1_555
H4_4 C7_4 1_555 1_555
C8_4 C5_4 1_555 1_555
H5_4 C8_4 1_555 1_555
C9_4 C10_4 1_555 1_555
C10_4 C11_4 1_555 1_555
C11_4 H6_4 1_555 1_555
C12_4 N1_4 1_555 1_555
C13_4 C12_4 1_555 1_555
H7_4 C13_4 1_555 1_555
C14_4 C13_4 1_555 1_555
C15_4 C10_4 1_555 1_555
H8_4 C15_4 1_555 1_555
C16_4 C14_4 1_555 1_555
Nd4 O10_2 1_555 1_555
Nd3 O5_4 1_555 1_555
C6_4 C7_4 1_555 1_555
C11_4 C12_4 1_555 1_555
C14_4 C15_4 1_555 1_555
O2_4 Nd2_2 1_555 1_555
O7_4 Nd2_2 1_555 1_555
O8_4 Nd2_2 1_555 1_555
C17_4 O7_4 1_555 1_555
C18_4 C17_4 1_555 1_555
H9_4 C18_4 1_555 1_555
H10_4 C18_4 1_555 1_555
H11_4 C18_4 1_555 1_555
C19_4 C17_4 1_555 1_555
H12_4 C19_4 1_555 1_555
H13_4 C19_4 1_555 1_555
H14_4 C19_4 1_555 1_555
C20_4 O8_4 1_555 1_555
C22_4 C20_4 1_555 1_555
H18_4 C22_4 1_555 1_555
H19_4 C22_4 1_555 1_555
O11_4 Nd2_2 1_555 1_555
O12_4 Nd2_2 1_555 1_555
Nd3 O1_5 1_555 1_555
O1_5 C1_5 1_555 1_555
O2_5 Nd3 1_555 1_555
O7_5 Nd3 1_555 1_555
O8_5 Nd3 1_555 1_555
C1_5 O2_5 1_555 1_555
C2_5 C1_5 1_555 1_555
C3_5 C2_5 1_555 1_555
H1_5 C3_5 1_555 1_555
C7_5 C2_5 1_555 1_555
H4_5 C7_5 1_555 1_555
C17_5 O7_5 1_555 1_555
C18_5 C17_5 1_555 1_555
H9_5 C18_5 1_555 1_555
H10_5 C18_5 1_555 1_555
H11_5 C18_5 1_555 1_555
C19_5 C17_5 1_555 1_555
H12_5 C19_5 1_555 1_555
H13_5 C19_5 1_555 1_555
H14_5 C19_5 1_555 1_555
C20_5 O8_5 1_555 1_555
C21_3 C20_5 1_555 1_555
H15_3 C21_3 1_555 1_555
H16_3 C21_3 1_555 1_555
H17_3 C21_3 1_555 1_555
C22_5 C20_5 1_555 1_555
H18_5 C22_5 1_555 1_555
H19_5 C22_5 1_555 1_555
H20_3 C22_5 1_555 1_555
O9_3 Nd3 1_555 1_555
O11_3 Nd3 1_555 1_555
O13_3 Nd3 1_555 1_555
O3_3 C9_5 1_555 1_555
O11 C9_5 1_555 1_555
C9_5 C10_5 1_555 1_555
Nd4_2 O3_3 1_555 1_555
O11 Nd4_2 1_555 1_555
O12_4 C16_5 1_555 1_555
O6_3 C16_5 1_555 1_555
N1_5 C8_5 1_555 1_555
H2_5 C4_5 1_555 1_555
C5_5 C4_5 1_555 1_555
C6_5 C5_5 1_555 1_555
H3_5 C6_5 1_555 1_555
C8_5 C5_5 1_555 1_555
H5_5 C8_5 1_555 1_555
C12_5 N1_5 1_555 1_555
C13_5 C12_5 1_555 1_555
H7_5 C13_5 1_555 1_555
C14_5 C13_5 1_555 1_555
H8_5 C15_5 1_555 1_555
C16_5 C14_5 1_555 1_555
C11_5 C12_5 1_555 1_555
C14_5 C15_5 1_555 1_555
O3_4 C9_6 1_555 1_555
O11_2 C9_6 1_555 1_555
C9_6 C10_6 1_555 1_555
O12_3 C16_6 1_555 1_555
O13_3 C16_6 1_555 1_555
N1_6 C8_6 1_555 1_555
H2_6 C4_6 1_555 1_555
C5_6 C4_6 1_555 1_555
C6_6 C5_6 1_555 1_555
H3_6 C6_6 1_555 1_555
C8_6 C5_6 1_555 1_555
H5_6 C8_6 1_555 1_555
C12_6 N1_6 1_555 1_555
C13_6 C12_6 1_555 1_555
H7_6 C13_6 1_555 1_555
C14_6 C13_6 1_555 1_555
H8_6 C15_6 1_555 1_555
C16_6 C14_6 1_555 1_555
C11_6 C12_6 1_555 1_555
C14_6 C15_6 1_555 1_555
O2_6 Nd3_2 1_555 1_555
O7_6 Nd3_2 1_555 1_555
O8_6 Nd3_2 1_555 1_555
C17_6 O7_6 1_555 1_555
C18_6 C17_6 1_555 1_555
H9_6 C18_6 1_555 1_555
H10_6 C18_6 1_555 1_555
H11_6 C18_6 1_555 1_555
C19_6 C17_6 1_555 1_555
H12_6 C19_6 1_555 1_555
H13_6 C19_6 1_555 1_555
H14_6 C19_6 1_555 1_555
C20_6 O8_6 1_555 1_555
C21_4 C20_6 1_555 1_555
H15_4 C21_4 1_555 1_555
H16_4 C21_4 1_555 1_555
H17_4 C21_4 1_555 1_555
C22_6 C20_6 1_555 1_555
H18_6 C22_6 1_555 1_555
H19_6 C22_6 1_555 1_555
H20_4 C22_6 1_555 1_555
O1_6 C1_6 1_555 1_555
C2_6 C1_6 1_555 1_555
C3_6 C2_6 1_555 1_555
H1_6 C3_6 1_555 1_555
C7_6 C2_6 1_555 1_555
H4_6 C7_6 1_555 1_555
Nd4_2 O1_7 1_555 1_555
O1_7 C1_7 1_555 1_555
O2_7 Nd4_2 1_555 1_555
O9_3 C9_7 1_555 1_555
O11_3 C9_7 1_555 1_555
O12_2 C16_7 1_555 1_555
O6_4 C16_7 1_555 1_555
O7_7 Nd4_2 1_555 1_555
O8_7 Nd4_2 1_555 1_555
N1_7 C8_7 1_555 1_555
C1_7 O2_7 1_555 1_555
C2_7 C1_7 1_555 1_555
C3_7 C2_7 1_555 1_555
H1_7 C3_7 1_555 1_555
C4_7 C3_7 1_555 1_555
H2_7 C4_7 1_555 1_555
C5_7 C4_7 1_555 1_555
C6_7 C5_7 1_555 1_555
H3_7 C6_7 1_555 1_555
C7_7 C2_7 1_555 1_555
H4_7 C7_7 1_555 1_555
C8_7 C5_7 1_555 1_555
H5_7 C8_7 1_555 1_555
C9_7 C10_7 1_555 1_555
C10_7 C11_7 1_555 1_555
C11_7 H6_7 1_555 1_555
C12_7 N1_7 1_555 1_555
C13_7 C12_7 1_555 1_555
H7_7 C13_7 1_555 1_555
C14_7 C13_7 1_555 1_555
C15_7 C10_7 1_555 1_555
H8_7 C15_7 1_555 1_555
C16_7 C14_7 1_555 1_555
C17_7 O7_7 1_555 1_555
C18_7 C17_7 1_555 1_555
H9_7 C18_7 1_555 1_555
H10_7 C18_7 1_555 1_555
H11_7 C18_7 1_555 1_555
C19_7 C17_7 1_555 1_555
H12_7 C19_7 1_555 1_555
H13_7 C19_7 1_555 1_555
H14_7 C19_7 1_555 1_555
C20_7 O8_7 1_555 1_555
C22_7 C20_7 1_555 1_555
H18_7 C22_7 1_555 1_555
H19_7 C22_7 1_555 1_555
O13_4 Nd4_2 1_555 1_555
C6_7 C7_7 1_555 1_555
C11_7 C12_7 1_555 1_555
C14_7 C15_7 1_555 1_555
O2_8 Nd4 1_555 1_555
O7_8 Nd4 1_555 1_555
O8_8 Nd4 1_555 1_555
C17_8 O7_8 1_555 1_555
C18_8 C17_8 1_555 1_555
H9_8 C18_8 1_555 1_555
H10_8 C18_8 1_555 1_555
H11_8 C18_8 1_555 1_555
C19_8 C17_8 1_555 1_555
H12_8 C19_8 1_555 1_555
H13_8 C19_8 1_555 1_555
H14_8 C19_8 1_555 1_555
C20_8 O8_8 1_555 1_555
C22_8 C20_8 1_555 1_555
H18_8 C22_8 1_555 1_555
H19_8 C22_8 1_555 1_555
O1_8 C1_8 1_555 1_555
O9_4 C9_8 1_555 1_555
O11_4 C9_8 1_555 1_555
O12 C16_8 1_555 1_555
O13_4 C16_8 1_555 1_555
N1_8 C8_8 1_555 1_555
C2_8 C1_8 1_555 1_555
C3_8 C2_8 1_555 1_555
H1_8 C3_8 1_555 1_555
C4_8 C3_8 1_555 1_555
H2_8 C4_8 1_555 1_555
C5_8 C4_8 1_555 1_555
C6_8 C5_8 1_555 1_555
H3_8 C6_8 1_555 1_555
C7_8 C2_8 1_555 1_555
H4_8 C7_8 1_555 1_555
C8_8 C5_8 1_555 1_555
H5_8 C8_8 1_555 1_555
C9_8 C10_8 1_555 1_555
C10_8 C11_8 1_555 1_555
C11_8 H6_8 1_555 1_555
C12_8 N1_8 1_555 1_555
C13_8 C12_8 1_555 1_555
H7_8 C13_8 1_555 1_555
C14_8 C13_8 1_555 1_555
C15_8 C10_8 1_555 1_555
H8_8 C15_8 1_555 1_555
C16_8 C14_8 1_555 1_555
C6_8 C7_8 1_555 1_555
C11_8 C12_8 1_555 1_555
C14_8 C15_8 1_555 1_555
H15_5 C21_5 1_555 1_555
H16_5 C21_5 1_555 1_555
H17_5 C21_5 1_555 1_555
H15_6 C21_6 1_555 1_555
H16_6 C21_6 1_555 1_555
H17_6 C21_6 1_555 1_555
H15_7 C21_7 1_555 1_555
H16_7 C21_7 1_555 1_555
H17_7 C21_7 1_555 1_555
H15_8 C21_8 1_555 1_555
H16_8 C21_8 1_555 1_555
H17_8 C21_8 1_555 1_555

#END
