
###############################################################################
#
# This file contains modified crystal structure data generated from the
# MOF subset of the Cambridge Structural Database (CSD) v543 
# hosted by the Cambridge Crystallographic Data Centre (CCDC).
#
# This work is licensed under the Creative Commons
# Attribution-NonCommercial-ShareAlike 4.0 International License.
# To view a copy of this license, visit
# http://creativecommons.org/licenses/by-nc-sa/4.0/
# or send a letter to
# Creative Commons, PO Box 1866, Mountain View, CA 94042, USA.
#
# CIF created using the CSD Python API on 29 September 2022
# The structure has been converted into the P1 space group
# The structure has a 3D framework
# The original CSD entry GEDSEP is in the monoclinic crystal system
# The framework has been calculated to contain at least 10.0% void space
# The void calculation uses a probe of radius 1.32A, grid spacing 0.4
# H atom positions have been added when not included in the experimental data
#
###############################################################################

data_GEDSEP
_chemical_formula_moiety         '(C144 H112 N40 Nd8 O56)n'
_symmetry_cell_setting           triclinic
_symmetry_space_group_name_H-M   'P 1'
_symmetry_Int_Tables_number      1
_space_group_name_Hall           'P 1'
loop_
_symmetry_equiv_pos_site_id
_symmetry_equiv_pos_as_xyz
1 x,y,z
_cell_length_a                   28.9274(17)
_cell_length_b                   13.8282(7)
_cell_length_c                   13.1654(11)
_cell_angle_alpha                90
_cell_angle_beta                 102.340(7)
_cell_angle_gamma                90
_cell_volume                     5144.67
loop_
_atom_site_label
_atom_site_type_symbol
_atom_site_fract_x
_atom_site_fract_y
_atom_site_fract_z
O5 O 0.26772(14) 0.1815(3) 0.6802(4)
O6 O 0.19636(14) 0.2502(3) 0.6229(3)
N1 N 0.09427(19) 0.0958(4) 0.8555(5)
C4 C 0.0056(3) 0.1254(5) 0.9161(9)
H2 H 0.0157 0.0617 0.9144
C5 C 0.0322(3) 0.1992(4) 0.8876(7)
C6 C 0.0168(3) 0.2931(4) 0.8896(7)
H3 H 0.0343 0.3430 0.8691
C8 C 0.0782(3) 0.1809(5) 0.8591(7)
C10 C 0.21544(18) 0.0019(4) 0.8798(4)
C11 C 0.1686(2) 0.0123(4) 0.8888(5)
C12 C 0.1407(2) 0.0856(4) 0.8363(6)
C13 C 0.15810(19) 0.1445(4) 0.7666(5)
H6 H 0.1390 0.1919 0.7288
C14 C 0.20415(19) 0.1314(4) 0.7545(5)
C15 C 0.23328(18) 0.0620(4) 0.8130(4)
H7 H 0.2646 0.0559 0.8071
C16 C 0.2240(2) 0.1927(4) 0.6789(5)
H9 H 0.093(3) 0.229(6) 0.838(7)
Nd4 Nd 0.318126(9) 0.206866(18) 0.55933(2)
Nd5 Nd 0.181874(9) 0.293134(18) 0.44067(2)
Nd2 Nd 0.318126(9) 0.793134(18) 0.05933(2)
O3 O 0.29164(13) 0.9461(2) 0.9654(3)
O4 O 0.23066(13) 0.8499(2) 0.9662(3)
C9 C 0.24791(18) 0.9287(4) 0.9409(4)
H5 H 0.1560 0.9698 0.9304
Nd3 Nd 0.181874(9) 0.706866(18) 0.94067(2)
Nd1 Nd 0.818126(9) 0.293134(18) 0.05933(2)
O1 O 0.88740(17) 0.1959(3) 0.0366(5)
O7 O 0.8563(2) 0.2059(4) 0.2278(5)
N2 N 0.86168(17) 0.4306(3) 0.1825(4)
N3 N 0.8856(2) 0.5864(4) 0.2096(5)
N4 N 0.87396(19) 0.5478(4) 0.2983(4)
N5 N 0.8510(2) 0.3986(4) 0.3576(5)
C17 C 0.8604(2) 0.4567(4) 0.2795(5)
C18 C 0.8776(2) 0.5136(5) 0.1447(5)
H8 H 0.8824 0.5180 0.0772
H10 H 0.881(3) 0.586(5) 0.364(3)
O10 O 0.76934(13) 0.1501(2) 0.0338(3)
O11 O 0.76772(14) 0.3185(3) 0.1802(4)
H11 H 0.851056 0.427113 0.428667
H12 H 0.844016 0.327261 0.344101
H13 H 0.889681 0.227278 0.2506
H14 H 0.838644 0.221568 0.282611
O2 O 0.88881(12) 0.3464(3) 0.9857(3)
C1 C 0.9060(2) 0.2630(4) 0.9934(5)
C2 C 0.9496(2) 0.2416(4) 0.9545(6)
C3 C 0.9637(3) 0.1462(5) 0.9473(9)
H1 H 0.9450 0.0961 0.9635
C7 C 0.9757(2) 0.3136(5) 0.9219(6)
H4 H 0.9654 0.3773 0.9217
O8 O 0.79164(13) 0.4461(2) 0.9654(3)
O9 O 0.73066(13) 0.3499(2) 0.9662(3)
O12 O 0.80364(14) 0.2502(3) 0.8771(3)
O1_2 O 0.11260(17) 0.1959(3) 0.4634(5)
O2_2 O 0.11119(12) 0.3464(3) 0.5143(3)
O7_2 O 0.1437(2) 0.2059(4) 0.2722(5)
N2_2 N 0.13832(17) 0.4306(3) 0.3175(4)
N3_2 N 0.1144(2) 0.5864(4) 0.2904(5)
N4_2 N 0.12604(19) 0.5478(4) 0.2017(4)
N5_2 N 0.1490(2) 0.3986(4) 0.1424(5)
C1_2 C 0.0940(2) 0.2630(4) 0.5066(5)
C2_2 C 0.0504(2) 0.2416(4) 0.5455(6)
C3_2 C 0.0363(3) 0.1462(5) 0.5527(9)
H1_2 H 0.0550 0.0961 0.5365
C7_2 C 0.0243(2) 0.3136(5) 0.5781(6)
H4_2 H 0.0346 0.3773 0.5783
C17_2 C 0.1396(2) 0.4567(4) 0.2205(5)
C18_2 C 0.1224(2) 0.5136(5) 0.3553(5)
H8_2 H 0.1176 0.5180 0.4228
H10_2 H 0.119(3) 0.586(5) 0.136(3)
O8_2 O 0.20836(13) 0.4461(2) 0.5346(3)
O9_2 O 0.26934(13) 0.3499(2) 0.5338(3)
O10_2 O 0.23066(13) 0.1501(2) 0.4662(3)
O11_2 O 0.23228(14) 0.3185(3) 0.3198(4)
H11_2 H 0.148944 0.427113 0.0713327
H12_2 H 0.155984 0.327261 0.155899
H13_2 H 0.110319 0.227278 0.2494
H14_2 H 0.161356 0.221568 0.217389
O5_2 O 0.73228(14) 0.1815(3) 0.8198(4)
N1_2 N 0.90573(19) 0.0958(4) 0.6445(5)
C4_2 C 0.9944(3) 0.1254(5) 0.5839(9)
H2_2 H 0.9843 0.0617 0.5856
C5_2 C 0.9678(3) 0.1992(4) 0.6124(7)
C6_2 C 0.9832(3) 0.2931(4) 0.6104(7)
H3_2 H 0.9657 0.3430 0.6309
C8_2 C 0.9218(3) 0.1809(5) 0.6409(7)
C10_2 C 0.78456(18) 0.0019(4) 0.6202(4)
C11_2 C 0.8314(2) 0.0123(4) 0.6112(5)
C12_2 C 0.8593(2) 0.0856(4) 0.6637(6)
C13_2 C 0.84190(19) 0.1445(4) 0.7334(5)
H6_2 H 0.8610 0.1919 0.7712
C14_2 C 0.79585(19) 0.1314(4) 0.7455(5)
C15_2 C 0.76672(18) 0.0620(4) 0.6870(4)
H7_2 H 0.7354 0.0559 0.6929
C16_2 C 0.7760(2) 0.1927(4) 0.8211(5)
H9_2 H 0.907(3) 0.229(6) 0.662(7)
Nd4_2 Nd 0.681874(9) 0.206866(18) 0.94067(2)
O3_2 O 0.70836(13) 0.9461(2) 0.5346(3)
O4_2 O 0.76934(13) 0.8499(2) 0.5338(3)
C9_2 C 0.75209(18) 0.9287(4) 0.5591(4)
H5_2 H 0.8440 0.9698 0.5696
Nd2_2 Nd 0.681874(9) 0.793134(18) 0.44067(2)
Nd3_2 Nd 0.818126(9) 0.706866(18) 0.55933(2)
O1_3 O 0.38740(17) 0.6959(3) 0.0366(5)
O7_3 O 0.3563(2) 0.7059(4) 0.2278(5)
N2_3 N 0.36168(17) 0.9306(3) 0.1825(4)
N5_3 N 0.3510(2) 0.8986(4) 0.3576(5)
C17_3 C 0.3604(2) 0.9567(4) 0.2795(5)
O10_3 O 0.26934(13) 0.6501(2) 0.0338(3)
O11_3 O 0.26772(14) 0.8185(3) 0.1802(4)
H11_3 H 0.351056 0.927113 0.428667
H12_3 H 0.344016 0.827261 0.344101
H13_3 H 0.389681 0.727278 0.2506
H14_3 H 0.338644 0.721568 0.282611
O2_3 O 0.38881(12) 0.8464(3) 0.9857(3)
O5_3 O 0.76772(14) 0.6815(3) 0.6802(4)
O6_2 O 0.69636(14) 0.7502(3) 0.6229(3)
N1_3 N 0.59427(19) 0.5958(4) 0.8555(5)
C1_3 C 0.4060(2) 0.7630(4) 0.9934(5)
C2_3 C 0.4496(2) 0.7416(4) 0.9545(6)
C3_3 C 0.4637(3) 0.6462(5) 0.9473(9)
H1_3 H 0.4450 0.5961 0.9635
C4_3 C 0.5056(3) 0.6254(5) 0.9161(9)
H2_3 H 0.5157 0.5617 0.9144
C5_3 C 0.5322(3) 0.6992(4) 0.8876(7)
C6_3 C 0.5168(3) 0.7931(4) 0.8896(7)
H3_3 H 0.5343 0.8430 0.8691
C7_3 C 0.4757(2) 0.8136(5) 0.9219(6)
H4_3 H 0.4654 0.8773 0.9217
C8_3 C 0.5782(3) 0.6809(5) 0.8591(7)
C9_3 C 0.74791(18) 0.4287(4) 0.9409(4)
C10_3 C 0.71544(18) 0.5019(4) 0.8798(4)
C11_3 C 0.6686(2) 0.5123(4) 0.8888(5)
H5_3 H 0.6560 0.4698 0.9304
C12_3 C 0.6407(2) 0.5856(4) 0.8363(6)
C13_3 C 0.65810(19) 0.6445(4) 0.7666(5)
H6_3 H 0.6390 0.6919 0.7288
C14_3 C 0.70415(19) 0.6314(4) 0.7545(5)
C15_3 C 0.73328(18) 0.5620(4) 0.8130(4)
H7_3 H 0.7646 0.5559 0.8071
C16_3 C 0.7240(2) 0.6927(4) 0.6789(5)
H9_3 H 0.593(3) 0.729(6) 0.838(7)
O12_2 O 0.30364(14) 0.7502(3) 0.8771(3)
O1_4 O 0.61260(17) 0.6959(3) 0.4634(5)
O2_4 O 0.61119(12) 0.8464(3) 0.5143(3)
O5_4 O 0.23228(14) 0.6815(3) 0.8198(4)
O7_4 O 0.6437(2) 0.7059(4) 0.2722(5)
N1_4 N 0.40573(19) 0.5958(4) 0.6445(5)
N2_4 N 0.63832(17) 0.9306(3) 0.3175(4)
N5_4 N 0.6490(2) 0.8986(4) 0.1424(5)
C1_4 C 0.5940(2) 0.7630(4) 0.5066(5)
C2_4 C 0.5504(2) 0.7416(4) 0.5455(6)
C3_4 C 0.5363(3) 0.6462(5) 0.5527(9)
H1_4 H 0.5550 0.5961 0.5365
C4_4 C 0.4944(3) 0.6254(5) 0.5839(9)
H2_4 H 0.4843 0.5617 0.5856
C5_4 C 0.4678(3) 0.6992(4) 0.6124(7)
C6_4 C 0.4832(3) 0.7931(4) 0.6104(7)
H3_4 H 0.4657 0.8430 0.6309
C7_4 C 0.5243(2) 0.8136(5) 0.5781(6)
H4_4 H 0.5346 0.8773 0.5783
C8_4 C 0.4218(3) 0.6809(5) 0.6409(7)
C9_4 C 0.25209(18) 0.4287(4) 0.5591(4)
C10_4 C 0.28456(18) 0.5019(4) 0.6202(4)
C11_4 C 0.3314(2) 0.5123(4) 0.6112(5)
H5_4 H 0.3440 0.4698 0.5696
C12_4 C 0.3593(2) 0.5856(4) 0.6637(6)
C13_4 C 0.34190(19) 0.6445(4) 0.7334(5)
H6_4 H 0.3610 0.6919 0.7712
C14_4 C 0.29585(19) 0.6314(4) 0.7455(5)
C15_4 C 0.26672(18) 0.5620(4) 0.6870(4)
H7_4 H 0.2354 0.5559 0.6929
C16_4 C 0.2760(2) 0.6927(4) 0.8211(5)
C17_4 C 0.6396(2) 0.9567(4) 0.2205(5)
H9_4 H 0.407(3) 0.729(6) 0.662(7)
O10_4 O 0.73066(13) 0.6501(2) 0.4662(3)
O11_4 O 0.73228(14) 0.8185(3) 0.3198(4)
H11_4 H 0.648944 0.927113 0.0713327
H12_4 H 0.655984 0.827261 0.155899
H13_4 H 0.610319 0.727278 0.2494
H14_4 H 0.661356 0.721568 0.217389
O2_5 O 0.11119(12) 0.6536(3) 0.0143(3)
C1_5 C 0.0940(2) 0.7370(4) 0.0066(5)
C2_5 C 0.0504(2) 0.7584(4) 0.0455(6)
C3_5 C 0.0363(3) 0.8538(5) 0.0527(9)
H1_5 H 0.0550 0.9039 0.0365
C7_5 C 0.0243(2) 0.6864(5) 0.0781(6)
H4_5 H 0.0346 0.6227 0.0783
O8_3 O 0.20836(13) 0.5539(2) 0.0346(3)
O12_3 O 0.19636(14) 0.7498(3) 0.1229(3)
O1_5 O 0.11260(17) 0.8041(3) 0.9634(5)
O7_5 O 0.1437(2) 0.7941(4) 0.7722(5)
N2_5 N 0.13832(17) 0.5694(3) 0.8175(4)
N3_3 N 0.1144(2) 0.4136(4) 0.7904(5)
N4_3 N 0.12604(19) 0.4522(4) 0.7017(4)
N5_5 N 0.1490(2) 0.6014(4) 0.6424(5)
C17_5 C 0.1396(2) 0.5433(4) 0.7205(5)
C18_3 C 0.1224(2) 0.4864(5) 0.8553(5)
H8_3 H 0.1176 0.4820 0.9228
H10_3 H 0.119(3) 0.414(5) 0.636(3)
H11_5 H 0.148944 0.572887 0.571333
H12_5 H 0.155984 0.672739 0.655899
H13_5 H 0.110319 0.772722 0.7494
H14_5 H 0.161356 0.778432 0.717389
O3_3 O 0.70836(13) 0.0539(2) 0.0346(3)
C9_5 C 0.75209(18) 0.0713(4) 0.0591(4)
H5_5 H 0.8440 0.0302 0.0696
O6_3 O 0.80364(14) 0.7498(3) 0.3771(3)
N1_5 N 0.90573(19) 0.9042(4) 0.1445(5)
C4_5 C 0.9944(3) 0.8746(5) 0.0839(9)
H2_5 H 0.9843 0.9383 0.0856
C5_5 C 0.9678(3) 0.8008(4) 0.1124(7)
C6_5 C 0.9832(3) 0.7069(4) 0.1104(7)
H3_5 H 0.9657 0.6570 0.1309
C8_5 C 0.9218(3) 0.8191(5) 0.1409(7)
C10_5 C 0.78456(18) 0.9981(4) 0.1202(4)
C11_5 C 0.8314(2) 0.9877(4) 0.1112(5)
C12_5 C 0.8593(2) 0.9144(4) 0.1637(6)
C13_5 C 0.84190(19) 0.8555(4) 0.2334(5)
H6_5 H 0.8610 0.8081 0.2712
C14_5 C 0.79585(19) 0.8686(4) 0.2455(5)
C15_5 C 0.76672(18) 0.9380(4) 0.1870(4)
H7_5 H 0.7354 0.9441 0.1929
C16_5 C 0.7760(2) 0.8073(4) 0.3211(5)
H9_5 H 0.907(3) 0.771(6) 0.162(7)
O3_4 O 0.29164(13) 0.0539(2) 0.4654(3)
C9_6 C 0.24791(18) 0.0713(4) 0.4409(4)
H5_6 H 0.1560 0.0302 0.4304
N1_6 N 0.09427(19) 0.9042(4) 0.3555(5)
C4_6 C 0.0056(3) 0.8746(5) 0.4161(9)
H2_6 H 0.0157 0.9383 0.4144
C5_6 C 0.0322(3) 0.8008(4) 0.3876(7)
C6_6 C 0.0168(3) 0.7069(4) 0.3896(7)
H3_6 H 0.0343 0.6570 0.3691
C8_6 C 0.0782(3) 0.8191(5) 0.3591(7)
C10_6 C 0.21544(18) 0.9981(4) 0.3798(4)
C11_6 C 0.1686(2) 0.9877(4) 0.3888(5)
C12_6 C 0.1407(2) 0.9144(4) 0.3363(6)
C13_6 C 0.15810(19) 0.8555(4) 0.2666(5)
H6_6 H 0.1390 0.8081 0.2288
C14_6 C 0.20415(19) 0.8686(4) 0.2545(5)
C15_6 C 0.23328(18) 0.9380(4) 0.3130(4)
H7_6 H 0.2646 0.9441 0.3071
C16_6 C 0.2240(2) 0.8073(4) 0.1789(5)
H9_6 H 0.093(3) 0.771(6) 0.338(7)
O1_6 O 0.88740(17) 0.8041(3) 0.5366(5)
O2_6 O 0.88881(12) 0.6536(3) 0.4857(3)
O7_6 O 0.8563(2) 0.7941(4) 0.7278(5)
N2_6 N 0.86168(17) 0.5694(3) 0.6825(4)
N3_4 N 0.8856(2) 0.4136(4) 0.7096(5)
N4_4 N 0.87396(19) 0.4522(4) 0.7983(4)
N5_6 N 0.8510(2) 0.6014(4) 0.8576(5)
C1_6 C 0.9060(2) 0.7370(4) 0.4934(5)
C2_6 C 0.9496(2) 0.7584(4) 0.4545(6)
C3_6 C 0.9637(3) 0.8538(5) 0.4473(9)
H1_6 H 0.9450 0.9039 0.4635
C7_6 C 0.9757(2) 0.6864(5) 0.4219(6)
H4_6 H 0.9654 0.6227 0.4217
C17_6 C 0.8604(2) 0.5433(4) 0.7795(5)
C18_4 C 0.8776(2) 0.4864(5) 0.6447(5)
H8_4 H 0.8824 0.4820 0.5772
H10_4 H 0.881(3) 0.414(5) 0.864(3)
O8_4 O 0.79164(13) 0.5539(2) 0.4654(3)
H11_6 H 0.851056 0.572887 0.928667
H12_6 H 0.844016 0.672739 0.844101
H13_6 H 0.889681 0.772722 0.7506
H14_6 H 0.838644 0.778432 0.782611
O2_7 O 0.61119(12) 0.1536(3) 0.0143(3)
O6_4 O 0.30364(14) 0.2498(3) 0.3771(3)
N1_7 N 0.40573(19) 0.4042(4) 0.1445(5)
C1_7 C 0.5940(2) 0.2370(4) 0.0066(5)
C2_7 C 0.5504(2) 0.2584(4) 0.0455(6)
C3_7 C 0.5363(3) 0.3538(5) 0.0527(9)
H1_7 H 0.5550 0.4039 0.0365
C4_7 C 0.4944(3) 0.3746(5) 0.0839(9)
H2_7 H 0.4843 0.4383 0.0856
C5_7 C 0.4678(3) 0.3008(4) 0.1124(7)
C6_7 C 0.4832(3) 0.2069(4) 0.1104(7)
H3_7 H 0.4657 0.1570 0.1309
C7_7 C 0.5243(2) 0.1864(5) 0.0781(6)
H4_7 H 0.5346 0.1227 0.0783
C8_7 C 0.4218(3) 0.3191(5) 0.1409(7)
C9_7 C 0.25209(18) 0.5713(4) 0.0591(4)
C10_7 C 0.28456(18) 0.4981(4) 0.1202(4)
C11_7 C 0.3314(2) 0.4877(4) 0.1112(5)
H5_7 H 0.3440 0.5302 0.0696
C12_7 C 0.3593(2) 0.4144(4) 0.1637(6)
C13_7 C 0.34190(19) 0.3555(4) 0.2334(5)
H6_7 H 0.3610 0.3081 0.2712
C14_7 C 0.29585(19) 0.3686(4) 0.2455(5)
C15_7 C 0.26672(18) 0.4380(4) 0.1870(4)
H7_7 H 0.2354 0.4441 0.1929
C16_7 C 0.2760(2) 0.3073(4) 0.3211(5)
H9_7 H 0.407(3) 0.271(6) 0.162(7)
O12_4 O 0.69636(14) 0.2498(3) 0.1229(3)
O1_7 O 0.61260(17) 0.3041(3) 0.9634(5)
O7_7 O 0.6437(2) 0.2941(4) 0.7722(5)
N2_7 N 0.63832(17) 0.0694(3) 0.8175(4)
N5_7 N 0.6490(2) 0.1014(4) 0.6424(5)
C17_7 C 0.6396(2) 0.0433(4) 0.7205(5)
H11_7 H 0.648944 0.0728867 0.571333
H12_7 H 0.655984 0.172739 0.655899
H13_7 H 0.610319 0.272722 0.7494
H14_7 H 0.661356 0.278432 0.717389
O1_8 O 0.38740(17) 0.3041(3) 0.5366(5)
O2_8 O 0.38881(12) 0.1536(3) 0.4857(3)
O7_8 O 0.3563(2) 0.2941(4) 0.7278(5)
N1_8 N 0.59427(19) 0.4042(4) 0.3555(5)
N2_8 N 0.36168(17) 0.0694(3) 0.6825(4)
N5_8 N 0.3510(2) 0.1014(4) 0.8576(5)
C1_8 C 0.4060(2) 0.2370(4) 0.4934(5)
C2_8 C 0.4496(2) 0.2584(4) 0.4545(6)
C3_8 C 0.4637(3) 0.3538(5) 0.4473(9)
H1_8 H 0.4450 0.4039 0.4635
C4_8 C 0.5056(3) 0.3746(5) 0.4161(9)
H2_8 H 0.5157 0.4383 0.4144
C5_8 C 0.5322(3) 0.3008(4) 0.3876(7)
C6_8 C 0.5168(3) 0.2069(4) 0.3896(7)
H3_8 H 0.5343 0.1570 0.3691
C7_8 C 0.4757(2) 0.1864(5) 0.4219(6)
H4_8 H 0.4654 0.1227 0.4217
C8_8 C 0.5782(3) 0.3191(5) 0.3591(7)
C9_8 C 0.74791(18) 0.5713(4) 0.4409(4)
C10_8 C 0.71544(18) 0.4981(4) 0.3798(4)
C11_8 C 0.6686(2) 0.4877(4) 0.3888(5)
H5_8 H 0.6560 0.5302 0.4304
C12_8 C 0.6407(2) 0.4144(4) 0.3363(6)
C13_8 C 0.65810(19) 0.3555(4) 0.2666(5)
H6_8 H 0.6390 0.3081 0.2288
C14_8 C 0.70415(19) 0.3686(4) 0.2545(5)
C15_8 C 0.73328(18) 0.4380(4) 0.3130(4)
H7_8 H 0.7646 0.4441 0.3071
C16_8 C 0.7240(2) 0.3073(4) 0.1789(5)
C17_8 C 0.3604(2) 0.0433(4) 0.7795(5)
H9_8 H 0.593(3) 0.271(6) 0.338(7)
H11_8 H 0.351056 0.0728867 0.928667
H12_8 H 0.344016 0.172739 0.844101
H13_8 H 0.389681 0.272722 0.7506
H14_8 H 0.338644 0.278432 0.782611
N3_5 N 0.3856(2) 0.0864(4) 0.2096(5)
N4_5 N 0.37396(19) 0.0478(4) 0.2983(4)
C18_5 C 0.3776(2) 0.0136(5) 0.1447(5)
H8_5 H 0.3824 0.0180 0.0772
H10_5 H 0.381(3) 0.086(5) 0.364(3)
N3_6 N 0.6144(2) 0.0864(4) 0.2904(5)
N4_6 N 0.62604(19) 0.0478(4) 0.2017(4)
C18_6 C 0.6224(2) 0.0136(5) 0.3553(5)
H8_6 H 0.6176 0.0180 0.4228
H10_6 H 0.619(3) 0.086(5) 0.136(3)
N3_7 N 0.6144(2) 0.9136(4) 0.7904(5)
N4_7 N 0.62604(19) 0.9522(4) 0.7017(4)
C18_7 C 0.6224(2) 0.9864(5) 0.8553(5)
H8_7 H 0.6176 0.9820 0.9228
H10_7 H 0.619(3) 0.914(5) 0.636(3)
N3_8 N 0.3856(2) 0.9136(4) 0.7096(5)
N4_8 N 0.37396(19) 0.9522(4) 0.7983(4)
C18_8 C 0.3776(2) 0.9864(5) 0.6447(5)
H8_8 H 0.3824 0.9820 0.5772
H10_8 H 0.381(3) 0.914(5) 0.864(3)
loop_
_geom_bond_atom_site_label_1
_geom_bond_atom_site_label_2
_geom_bond_site_symmetry_1
_geom_bond_site_symmetry_2
O5 C16 1_555 1_555
O6 C16 1_555 1_555
N1 C8 1_555 1_555
H2 C4 1_555 1_555
C5 C4 1_555 1_555
C6 C5 1_555 1_555
H3 C6 1_555 1_555
C8 C5 1_555 1_555
C10 C11 1_555 1_555
C12 N1 1_555 1_555
C13 C12 1_555 1_555
H6 C13 1_555 1_555
C14 C13 1_555 1_555
C15 C10 1_555 1_555
H7 C15 1_555 1_555
C16 C14 1_555 1_555
H9 C8 1_555 1_555
Nd4 O5 1_555 1_555
Nd5 O6 1_555 1_555
C11 C12 1_555 1_555
C14 C15 1_555 1_555
O3 C9 1_555 1_555
O4 C9 1_555 1_555
Nd3 O4 1_555 1_555
Nd1 O1 1_555 1_555
O7 Nd1 1_555 1_555
N2 Nd1 1_555 1_555
N3 N4 1_555 1_555
N4 C17 1_555 1_555
N5 C17 1_555 1_555
C17 N2 1_555 1_555
C18 N2 1_555 1_555
H8 C18 1_555 1_555
H10 N4 1_555 1_555
O10 Nd1 1_555 1_555
O11 Nd1 1_555 1_555
N3 C18 1_555 1_555
N5 H11 1_555 1_555
N5 H12 1_555 1_555
O7 H13 1_555 1_555
O7 H14 1_555 1_555
C1 O2 1_555 1_555
C2 C1 1_555 1_555
C3 C2 1_555 1_555
H1 C3 1_555 1_555
C7 C2 1_555 1_555
H4 C7 1_555 1_555
Nd5 O1_2 1_555 1_555
O1_2 C1_2 1_555 1_555
O2_2 Nd5 1_555 1_555
O7_2 Nd5 1_555 1_555
N2_2 Nd5 1_555 1_555
N3_2 N4_2 1_555 1_555
N4_2 C17_2 1_555 1_555
N5_2 C17_2 1_555 1_555
C1_2 O2_2 1_555 1_555
C2_2 C1_2 1_555 1_555
C3_2 C2_2 1_555 1_555
H1_2 C3_2 1_555 1_555
C7_2 C2_2 1_555 1_555
H4_2 C7_2 1_555 1_555
C17_2 N2_2 1_555 1_555
C18_2 N2_2 1_555 1_555
H8_2 C18_2 1_555 1_555
H10_2 N4_2 1_555 1_555
O8_2 Nd5 1_555 1_555
O9_2 Nd5 1_555 1_555
O10_2 Nd5 1_555 1_555
O11_2 Nd5 1_555 1_555
N3_2 C18_2 1_555 1_555
N5_2 H11_2 1_555 1_555
N5_2 H12_2 1_555 1_555
O7_2 H13_2 1_555 1_555
O7_2 H14_2 1_555 1_555
O5_2 C16_2 1_555 1_555
O12 C16_2 1_555 1_555
N1_2 C8_2 1_555 1_555
H2_2 C4_2 1_555 1_555
C5_2 C4_2 1_555 1_555
C6_2 C5_2 1_555 1_555
H3_2 C6_2 1_555 1_555
C8_2 C5_2 1_555 1_555
C10_2 C11_2 1_555 1_555
C12_2 N1_2 1_555 1_555
C13_2 C12_2 1_555 1_555
H6_2 C13_2 1_555 1_555
C14_2 C13_2 1_555 1_555
C15_2 C10_2 1_555 1_555
H7_2 C15_2 1_555 1_555
C16_2 C14_2 1_555 1_555
H9_2 C8_2 1_555 1_555
Nd4_2 O5_2 1_555 1_555
C11_2 C12_2 1_555 1_555
C14_2 C15_2 1_555 1_555
O3_2 C9_2 1_555 1_555
O4_2 C9_2 1_555 1_555
Nd2_2 O3_2 1_555 1_555
Nd3_2 O4_2 1_555 1_555
O4_2 Nd2_2 1_555 1_555
Nd2 O1_3 1_555 1_555
O7_3 Nd2 1_555 1_555
N2_3 Nd2 1_555 1_555
N5_3 C17_3 1_555 1_555
C17_3 N2_3 1_555 1_555
O10_3 Nd2 1_555 1_555
O11_3 Nd2 1_555 1_555
N5_3 H11_3 1_555 1_555
N5_3 H12_3 1_555 1_555
O7_3 H13_3 1_555 1_555
O7_3 H14_3 1_555 1_555
O8 C9_3 1_555 1_555
O9 C9_3 1_555 1_555
O5_3 C16_3 1_555 1_555
O6_2 C16_3 1_555 1_555
N1_3 C8_3 1_555 1_555
C1_3 O2_3 1_555 1_555
C2_3 C1_3 1_555 1_555
C3_3 C2_3 1_555 1_555
H1_3 C3_3 1_555 1_555
C4_3 C3_3 1_555 1_555
H2_3 C4_3 1_555 1_555
C5_3 C4_3 1_555 1_555
C6_3 C5_3 1_555 1_555
H3_3 C6_3 1_555 1_555
C7_3 C2_3 1_555 1_555
H4_3 C7_3 1_555 1_555
C8_3 C5_3 1_555 1_555
C9_3 C10_3 1_555 1_555
C10_3 C11_3 1_555 1_555
C11_3 H5_3 1_555 1_555
C12_3 N1_3 1_555 1_555
C13_3 C12_3 1_555 1_555
H6_3 C13_3 1_555 1_555
C14_3 C13_3 1_555 1_555
C15_3 C10_3 1_555 1_555
H7_3 C15_3 1_555 1_555
C16_3 C14_3 1_555 1_555
H9_3 C8_3 1_555 1_555
Nd4_2 O9 1_555 1_555
Nd3_2 O5_3 1_555 1_555
Nd2_2 O6_2 1_555 1_555
C6_3 C7_3 1_555 1_555
C11_3 C12_3 1_555 1_555
C14_3 C15_3 1_555 1_555
Nd2_2 O1_4 1_555 1_555
O1_4 C1_4 1_555 1_555
O2_4 Nd2_2 1_555 1_555
O8_2 C9_4 1_555 1_555
O9_2 C9_4 1_555 1_555
O5_4 C16_4 1_555 1_555
O12_2 C16_4 1_555 1_555
O7_4 Nd2_2 1_555 1_555
N1_4 C8_4 1_555 1_555
N2_4 Nd2_2 1_555 1_555
N5_4 C17_4 1_555 1_555
C1_4 O2_4 1_555 1_555
C2_4 C1_4 1_555 1_555
C3_4 C2_4 1_555 1_555
H1_4 C3_4 1_555 1_555
C4_4 C3_4 1_555 1_555
H2_4 C4_4 1_555 1_555
C5_4 C4_4 1_555 1_555
C6_4 C5_4 1_555 1_555
H3_4 C6_4 1_555 1_555
C7_4 C2_4 1_555 1_555
H4_4 C7_4 1_555 1_555
C8_4 C5_4 1_555 1_555
C9_4 C10_4 1_555 1_555
C10_4 C11_4 1_555 1_555
C11_4 H5_4 1_555 1_555
C12_4 N1_4 1_555 1_555
C13_4 C12_4 1_555 1_555
H6_4 C13_4 1_555 1_555
C14_4 C13_4 1_555 1_555
C15_4 C10_4 1_555 1_555
H7_4 C15_4 1_555 1_555
C16_4 C14_4 1_555 1_555
C17_4 N2_4 1_555 1_555
H9_4 C8_4 1_555 1_555
Nd4 O9_2 1_555 1_555
Nd3 O5_4 1_555 1_555
O10_4 Nd2_2 1_555 1_555
O11_4 Nd2_2 1_555 1_555
C6_4 C7_4 1_555 1_555
C11_4 C12_4 1_555 1_555
C14_4 C15_4 1_555 1_555
N5_4 H11_4 1_555 1_555
N5_4 H12_4 1_555 1_555
O7_4 H13_4 1_555 1_555
O7_4 H14_4 1_555 1_555
C1_5 O2_5 1_555 1_555
C2_5 C1_5 1_555 1_555
C3_5 C2_5 1_555 1_555
H1_5 C3_5 1_555 1_555
C7_5 C2_5 1_555 1_555
H4_5 C7_5 1_555 1_555
Nd3 O1_5 1_555 1_555
O7_5 Nd3 1_555 1_555
N2_5 Nd3 1_555 1_555
N3_3 N4_3 1_555 1_555
N4_3 C17_5 1_555 1_555
N5_5 C17_5 1_555 1_555
C17_5 N2_5 1_555 1_555
C18_3 N2_5 1_555 1_555
H8_3 C18_3 1_555 1_555
H10_3 N4_3 1_555 1_555
N3_3 C18_3 1_555 1_555
N5_5 H11_5 1_555 1_555
N5_5 H12_5 1_555 1_555
O7_5 H13_5 1_555 1_555
O7_5 H14_5 1_555 1_555
O3_3 C9_5 1_555 1_555
O10 C9_5 1_555 1_555
O11_4 C16_5 1_555 1_555
O6_3 C16_5 1_555 1_555
N1_5 C8_5 1_555 1_555
H2_5 C4_5 1_555 1_555
C5_5 C4_5 1_555 1_555
C6_5 C5_5 1_555 1_555
H3_5 C6_5 1_555 1_555
C8_5 C5_5 1_555 1_555
C10_5 C11_5 1_555 1_555
C12_5 N1_5 1_555 1_555
C13_5 C12_5 1_555 1_555
H6_5 C13_5 1_555 1_555
C14_5 C13_5 1_555 1_555
C15_5 C10_5 1_555 1_555
H7_5 C15_5 1_555 1_555
C16_5 C14_5 1_555 1_555
H9_5 C8_5 1_555 1_555
Nd3_2 O6_3 1_555 1_555
C11_5 C12_5 1_555 1_555
C14_5 C15_5 1_555 1_555
O3_4 C9_6 1_555 1_555
O10_2 C9_6 1_555 1_555
Nd4 O3_4 1_555 1_555
O10_2 Nd4 1_555 1_555
O11_3 C16_6 1_555 1_555
O12_3 C16_6 1_555 1_555
N1_6 C8_6 1_555 1_555
H2_6 C4_6 1_555 1_555
C5_6 C4_6 1_555 1_555
C6_6 C5_6 1_555 1_555
H3_6 C6_6 1_555 1_555
C8_6 C5_6 1_555 1_555
C10_6 C11_6 1_555 1_555
C12_6 N1_6 1_555 1_555
C13_6 C12_6 1_555 1_555
H6_6 C13_6 1_555 1_555
C14_6 C13_6 1_555 1_555
C15_6 C10_6 1_555 1_555
H7_6 C15_6 1_555 1_555
C16_6 C14_6 1_555 1_555
H9_6 C8_6 1_555 1_555
C11_6 C12_6 1_555 1_555
C14_6 C15_6 1_555 1_555
Nd3_2 O1_6 1_555 1_555
O1_6 C1_6 1_555 1_555
O2_6 Nd3_2 1_555 1_555
O7_6 Nd3_2 1_555 1_555
N2_6 Nd3_2 1_555 1_555
N3_4 N4_4 1_555 1_555
N4_4 C17_6 1_555 1_555
N5_6 C17_6 1_555 1_555
C1_6 O2_6 1_555 1_555
C2_6 C1_6 1_555 1_555
C3_6 C2_6 1_555 1_555
H1_6 C3_6 1_555 1_555
C7_6 C2_6 1_555 1_555
H4_6 C7_6 1_555 1_555
C17_6 N2_6 1_555 1_555
C18_4 N2_6 1_555 1_555
H8_4 C18_4 1_555 1_555
H10_4 N4_4 1_555 1_555
O8_4 Nd3_2 1_555 1_555
O10_4 Nd3_2 1_555 1_555
N3_4 C18_4 1_555 1_555
N5_6 H11_6 1_555 1_555
N5_6 H12_6 1_555 1_555
O7_6 H13_6 1_555 1_555
O7_6 H14_6 1_555 1_555
O8_3 C9_7 1_555 1_555
O10_3 C9_7 1_555 1_555
O11_2 C16_7 1_555 1_555
O6_4 C16_7 1_555 1_555
N1_7 C8_7 1_555 1_555
C1_7 O2_7 1_555 1_555
C2_7 C1_7 1_555 1_555
C3_7 C2_7 1_555 1_555
H1_7 C3_7 1_555 1_555
C4_7 C3_7 1_555 1_555
H2_7 C4_7 1_555 1_555
C5_7 C4_7 1_555 1_555
C6_7 C5_7 1_555 1_555
H3_7 C6_7 1_555 1_555
C7_7 C2_7 1_555 1_555
H4_7 C7_7 1_555 1_555
C8_7 C5_7 1_555 1_555
C9_7 C10_7 1_555 1_555
C10_7 C11_7 1_555 1_555
C11_7 H5_7 1_555 1_555
C12_7 N1_7 1_555 1_555
C13_7 C12_7 1_555 1_555
H6_7 C13_7 1_555 1_555
C14_7 C13_7 1_555 1_555
C15_7 C10_7 1_555 1_555
H7_7 C15_7 1_555 1_555
C16_7 C14_7 1_555 1_555
H9_7 C8_7 1_555 1_555
Nd4 O6_4 1_555 1_555
C6_7 C7_7 1_555 1_555
C11_7 C12_7 1_555 1_555
C14_7 C15_7 1_555 1_555
Nd4_2 O1_7 1_555 1_555
O7_7 Nd4_2 1_555 1_555
N2_7 Nd4_2 1_555 1_555
N5_7 C17_7 1_555 1_555
C17_7 N2_7 1_555 1_555
N5_7 H11_7 1_555 1_555
N5_7 H12_7 1_555 1_555
O7_7 H13_7 1_555 1_555
O7_7 H14_7 1_555 1_555
Nd4 O1_8 1_555 1_555
O1_8 C1_8 1_555 1_555
O2_8 Nd4 1_555 1_555
O8_4 C9_8 1_555 1_555
O10_4 C9_8 1_555 1_555
O11 C16_8 1_555 1_555
O12_4 C16_8 1_555 1_555
O7_8 Nd4 1_555 1_555
N1_8 C8_8 1_555 1_555
N2_8 Nd4 1_555 1_555
N5_8 C17_8 1_555 1_555
C1_8 O2_8 1_555 1_555
C2_8 C1_8 1_555 1_555
C3_8 C2_8 1_555 1_555
H1_8 C3_8 1_555 1_555
C4_8 C3_8 1_555 1_555
H2_8 C4_8 1_555 1_555
C5_8 C4_8 1_555 1_555
C6_8 C5_8 1_555 1_555
H3_8 C6_8 1_555 1_555
C7_8 C2_8 1_555 1_555
H4_8 C7_8 1_555 1_555
C8_8 C5_8 1_555 1_555
C9_8 C10_8 1_555 1_555
C10_8 C11_8 1_555 1_555
C11_8 H5_8 1_555 1_555
C12_8 N1_8 1_555 1_555
C13_8 C12_8 1_555 1_555
H6_8 C13_8 1_555 1_555
C14_8 C13_8 1_555 1_555
C15_8 C10_8 1_555 1_555
H7_8 C15_8 1_555 1_555
C16_8 C14_8 1_555 1_555
C17_8 N2_8 1_555 1_555
H9_8 C8_8 1_555 1_555
C6_8 C7_8 1_555 1_555
C11_8 C12_8 1_555 1_555
C14_8 C15_8 1_555 1_555
N5_8 H11_8 1_555 1_555
N5_8 H12_8 1_555 1_555
O7_8 H13_8 1_555 1_555
O7_8 H14_8 1_555 1_555
N3_5 N4_5 1_555 1_555
H8_5 C18_5 1_555 1_555
H10_5 N4_5 1_555 1_555
N3_5 C18_5 1_555 1_555
N3_6 N4_6 1_555 1_555
H8_6 C18_6 1_555 1_555
H10_6 N4_6 1_555 1_555
N3_6 C18_6 1_555 1_555
N3_7 N4_7 1_555 1_555
H8_7 C18_7 1_555 1_555
H10_7 N4_7 1_555 1_555
N3_7 C18_7 1_555 1_555
N3_8 N4_8 1_555 1_555
H8_8 C18_8 1_555 1_555
H10_8 N4_8 1_555 1_555
N3_8 C18_8 1_555 1_555

#END
