
###############################################################################
#
# This file contains modified crystal structure data generated from the
# MOF subset of the Cambridge Structural Database (CSD) v543 
# hosted by the Cambridge Crystallographic Data Centre (CCDC).
#
# This work is licensed under the Creative Commons
# Attribution-NonCommercial-ShareAlike 4.0 International License.
# To view a copy of this license, visit
# http://creativecommons.org/licenses/by-nc-sa/4.0/
# or send a letter to
# Creative Commons, PO Box 1866, Mountain View, CA 94042, USA.
#
# CIF created using the CSD Python API on 29 September 2022
# The structure has been converted into the P1 space group
# The structure has a 3D framework
# The original CSD entry GEDSOZ is in the monoclinic crystal system
# The framework has been calculated to contain at least 10.0% void space
# The void calculation uses a probe of radius 1.32A, grid spacing 0.4
# H atom positions have been added when not included in the experimental data
#
###############################################################################

data_GEDSOZ
_chemical_formula_moiety         '(C176 H176 N8 Nd8 O80 S16)n'
_symmetry_cell_setting           triclinic
_symmetry_space_group_name_H-M   'P 1'
_symmetry_Int_Tables_number      1
_space_group_name_Hall           'P 1'
loop_
_symmetry_equiv_pos_site_id
_symmetry_equiv_pos_as_xyz
1 x,y,z
_cell_length_a                   29.16760(11)
_cell_length_b                   14.4488(6)
_cell_length_c                   13.0926(5)
_cell_angle_alpha                90
_cell_angle_beta                 98.748(4)
_cell_angle_gamma                90
_cell_volume                     5453.52
loop_
_atom_site_label
_atom_site_type_symbol
_atom_site_fract_x
_atom_site_fract_y
_atom_site_fract_z
Nd1 Nd 0.316094(10) 0.29266(2) 0.54413(2)
S1 S 0.29113(17) 0.6627(3) 0.5831(3)
S2 S 0.3996(4) 0.0756(6) 0.8614(7)
N1 N 0.59556(19) 0.0786(5) 0.3577(4)
O1 O 0.38336(18) 0.1918(4) 0.5266(4)
O2 O 0.38706(16) 0.3314(4) 0.4604(4)
O5 O 0.76758(15) 0.1689(4) 0.1701(3)
O6 O 0.69925(15) 0.2391(4) 0.1316(3)
O7 O 0.35899(19) 0.4184(5) 0.6478(4)
O8 O 0.3547(2) 0.2281(5) 0.7168(4)
O9 O 0.3936(4) 0.5589(11) 0.7916(9)
H1 H 0.3759 0.5598 0.8348
O10 O 0.3814(8) 0.3786(13) 0.8537(9)
H2 H 0.3884 0.3756 0.7955
C1 C 0.4034(2) 0.2499(6) 0.4775(5)
C2 C 0.4473(2) 0.2243(6) 0.4417(5)
C3 C 0.4617(3) 0.1341(6) 0.4425(6)
H3 H 0.4431 0.0885 0.4649
C4 C 0.5030(2) 0.1085(6) 0.4113(6)
H4 H 0.5117 0.0465 0.4112
C5 C 0.5319(2) 0.1781(6) 0.3796(6)
C6 C 0.5175(3) 0.2694(7) 0.3801(8)
H5 H 0.5364 0.3158 0.3603
C7 C 0.4753(3) 0.2926(6) 0.4099(7)
H6 H 0.4658 0.3541 0.4085
C8 C 0.5781(3) 0.1556(7) 0.3547(6)
C12 C 0.6418(2) 0.0699(5) 0.3387(5)
C13 C 0.6607(2) 0.1282(5) 0.2693(5)
H8 H 0.6420 0.1721 0.2314
C14 C 0.7068(2) 0.1206(6) 0.2575(5)
C15 C 0.7346(2) 0.0547(5) 0.3133(5)
H9 H 0.7658 0.0506 0.3068
C16 C 0.7260(2) 0.1802(5) 0.1809(5)
C17 C 0.3761(5) 0.5079(12) 0.6189(12)
H10 H 0.4089 0.5035 0.6139
H11 H 0.3597 0.5265 0.5520
C18 C 0.3691(5) 0.5761(11) 0.6958(10)
H12 H 0.3813 0.6344 0.6728
C19 C 0.3201(5) 0.5932(10) 0.7007(10)
H13 H 0.3173 0.6271 0.7634
H14 H 0.3042 0.5345 0.7034
C20 C 0.3458(5) 0.2323(14) 0.8246(10)
H15 H 0.3151 0.2601 0.8237
C21 C 0.3789(8) 0.2877(12) 0.8945(11)
H16 H 0.3691 0.2908 0.9620
H17 H 0.4093 0.2589 0.9025
C22 C 0.3437(6) 0.1317(13) 0.8678(11)
H18 H 0.3189 0.0973 0.8269
H19 H 0.3378 0.1335 0.9387
H20 H 0.592(3) 0.204(5) 0.340(6)
Nd4 Nd 0.816094(10) 0.20734(2) 0.04413(2)
O11 O 0.22942(14) 0.3450(4) 0.4572(3)
O12 O 0.27058(14) 0.1550(4) 0.5428(3)
O13 O 0.28958(14) 0.4351(4) 0.4527(4)
O14 O 0.26758(15) 0.3311(4) 0.6701(3)
O15 O 0.30075(15) 0.2391(4) 0.3684(3)
H21 H 0.435102 0.125674 0.921068
H22 H 0.294389 0.61323 0.492541
Nd5 Nd 0.683906(10) 0.29266(2) 0.95587(2)
O3 O 0.72942(14) 0.8450(4) 0.4572(3)
O4 O 0.78958(14) 0.9351(4) 0.4527(4)
C9 C 0.7470(2) 0.9194(5) 0.4328(5)
C10 C 0.7163(2) 0.9955(5) 0.3784(5)
C11 C 0.6697(2) 0.9999(5) 0.3891(5)
H7 H 0.6571 0.9566 0.4295
Nd2 Nd 0.816094(10) 0.79266(2) 0.54413(2)
Nd3 Nd 0.683906(10) 0.70734(2) 0.45587(2)
N1_2 N 0.40444(19) 0.0786(5) 0.1423(4)
O2_2 O 0.61294(16) 0.3314(4) 0.0396(4)
O5_2 O 0.23242(15) 0.1689(4) 0.3299(3)
C1_2 C 0.5966(2) 0.2499(6) 0.0225(5)
C2_2 C 0.5527(2) 0.2243(6) 0.0583(5)
C3_2 C 0.5383(3) 0.1341(6) 0.0575(6)
H3_2 H 0.5569 0.0885 0.0351
C4_2 C 0.4970(2) 0.1085(6) 0.0887(6)
H4_2 H 0.4883 0.0465 0.0888
C5_2 C 0.4681(2) 0.1781(6) 0.1204(6)
C6_2 C 0.4825(3) 0.2694(7) 0.1199(8)
H5_2 H 0.4636 0.3158 0.1397
C7_2 C 0.5247(3) 0.2926(6) 0.0901(7)
H6_2 H 0.5342 0.3541 0.0915
C8_2 C 0.4219(3) 0.1556(7) 0.1453(6)
C12_2 C 0.3582(2) 0.0699(5) 0.1613(5)
C13_2 C 0.3393(2) 0.1282(5) 0.2307(5)
H8_2 H 0.3580 0.1721 0.2686
C14_2 C 0.2932(2) 0.1206(6) 0.2425(5)
C15_2 C 0.2654(2) 0.0547(5) 0.1867(5)
H9_2 H 0.2342 0.0506 0.1932
C16_2 C 0.2740(2) 0.1802(5) 0.3191(5)
H20_2 H 0.408(3) 0.204(5) 0.160(6)
Nd4_2 Nd 0.183906(10) 0.20734(2) 0.45587(2)
O11_2 O 0.77058(14) 0.3450(4) 0.0428(3)
O13_2 O 0.71042(14) 0.4351(4) 0.0473(4)
H22_2 H 0.705611 0.61323 0.00745885
S1_2 S 0.70887(17) 0.6627(3) 0.9169(3)
S2_2 S 0.6004(4) 0.0756(6) 0.6386(7)
O1_2 O 0.61664(18) 0.1918(4) 0.9734(4)
O7_2 O 0.64101(19) 0.4184(5) 0.8522(4)
O8_2 O 0.6453(2) 0.2281(5) 0.7832(4)
O9_2 O 0.6064(4) 0.5589(11) 0.7084(9)
H1_2 H 0.6241 0.5598 0.6652
O10_2 O 0.6186(8) 0.3786(13) 0.6463(9)
H2_2 H 0.6116 0.3756 0.7045
C17_2 C 0.6239(5) 0.5079(12) 0.8811(12)
H10_2 H 0.5911 0.5035 0.8861
H11_2 H 0.6403 0.5265 0.9480
C18_2 C 0.6309(5) 0.5761(11) 0.8042(10)
H12_2 H 0.6187 0.6344 0.8272
C19_2 C 0.6799(5) 0.5932(10) 0.7993(10)
H13_2 H 0.6827 0.6271 0.7366
H14_2 H 0.6958 0.5345 0.7966
C20_2 C 0.6542(5) 0.2323(14) 0.6754(10)
H15_2 H 0.6849 0.2601 0.6763
C21_2 C 0.6211(8) 0.2877(12) 0.6055(11)
H16_2 H 0.6309 0.2908 0.5380
H17_2 H 0.5907 0.2589 0.5975
C22_2 C 0.6563(6) 0.1317(13) 0.6322(11)
H18_2 H 0.6811 0.0973 0.6731
H19_2 H 0.6622 0.1335 0.5613
O12_2 O 0.72942(14) 0.1550(4) 0.9572(3)
O14_2 O 0.73242(15) 0.3311(4) 0.8299(3)
H21_2 H 0.564898 0.125674 0.578932
O3_2 O 0.27058(14) 0.8450(4) 0.0428(3)
O4_2 O 0.21042(14) 0.9351(4) 0.0473(4)
C9_2 C 0.2530(2) 0.9194(5) 0.0672(5)
C10_2 C 0.2837(2) 0.9955(5) 0.1216(5)
C11_2 C 0.3303(2) 0.9999(5) 0.1109(5)
H7_2 H 0.3429 0.9566 0.0705
Nd3_2 Nd 0.316094(10) 0.70734(2) 0.04413(2)
Nd2_2 Nd 0.183906(10) 0.79266(2) 0.95587(2)
N1_3 N 0.09556(19) 0.5786(5) 0.3577(4)
O5_3 O 0.26758(15) 0.6689(4) 0.1701(3)
O6_2 O 0.19925(15) 0.7391(4) 0.1316(3)
C4_3 C 0.0030(2) 0.6085(6) 0.4113(6)
H4_3 H 0.0117 0.5465 0.4112
C5_3 C 0.0319(2) 0.6781(6) 0.3796(6)
C6_3 C 0.0175(3) 0.7694(7) 0.3801(8)
H5_3 H 0.0364 0.8158 0.3603
C8_3 C 0.0781(3) 0.6556(7) 0.3547(6)
C9_3 C 0.2470(2) 0.4194(5) 0.4328(5)
C10_3 C 0.2163(2) 0.4955(5) 0.3784(5)
C11_3 C 0.1697(2) 0.4999(5) 0.3891(5)
H7_3 H 0.1571 0.4566 0.4295
C12_3 C 0.1418(2) 0.5699(5) 0.3387(5)
C13_3 C 0.1607(2) 0.6282(5) 0.2693(5)
H8_3 H 0.1420 0.6721 0.2314
C14_3 C 0.2068(2) 0.6206(6) 0.2575(5)
C15_3 C 0.2346(2) 0.5547(5) 0.3133(5)
H9_3 H 0.2658 0.5506 0.3068
C16_3 C 0.2260(2) 0.6802(5) 0.1809(5)
H20_3 H 0.092(3) 0.704(5) 0.340(6)
S2_3 S 0.8996(4) 0.5756(6) 0.8614(7)
O1_3 O 0.88336(18) 0.6918(4) 0.5266(4)
O2_3 O 0.88706(16) 0.8314(4) 0.4604(4)
O7_3 O 0.85899(19) 0.9184(5) 0.6478(4)
O8_3 O 0.8547(2) 0.7281(5) 0.7168(4)
O10_3 O 0.8814(8) 0.8786(13) 0.8537(9)
H2_3 H 0.8884 0.8756 0.7955
C1_3 C 0.9034(2) 0.7499(6) 0.4775(5)
C2_3 C 0.9473(2) 0.7243(6) 0.4417(5)
C3_3 C 0.9617(3) 0.6341(6) 0.4425(6)
H3_3 H 0.9431 0.5885 0.4649
C7_3 C 0.9753(3) 0.7926(6) 0.4099(7)
H6_3 H 0.9658 0.8541 0.4085
C20_3 C 0.8458(5) 0.7323(14) 0.8246(10)
H15_3 H 0.8151 0.7601 0.8237
C21_3 C 0.8789(8) 0.7877(12) 0.8945(11)
H16_3 H 0.8691 0.7908 0.9620
H17_3 H 0.9093 0.7589 0.9025
C22_3 C 0.8437(6) 0.6317(13) 0.8678(11)
H18_3 H 0.8189 0.5973 0.8269
H19_3 H 0.8378 0.6335 0.9387
O12_3 O 0.77058(14) 0.6550(4) 0.5428(3)
O14_3 O 0.76758(15) 0.8311(4) 0.6701(3)
O15_2 O 0.80075(15) 0.7391(4) 0.3684(3)
H21_3 H 0.935102 0.625674 0.921068
O2_4 O 0.11294(16) 0.8314(4) 0.0396(4)
C1_4 C 0.0966(2) 0.7499(6) 0.0225(5)
C2_4 C 0.0527(2) 0.7243(6) 0.0583(5)
C3_4 C 0.0383(3) 0.6341(6) 0.0575(6)
H3_4 H 0.0569 0.5885 0.0351
C7_4 C 0.0247(3) 0.7926(6) 0.0901(7)
H6_4 H 0.0342 0.8541 0.0915
S2_4 S 0.1004(4) 0.5756(6) 0.6386(7)
O1_4 O 0.11664(18) 0.6918(4) 0.9734(4)
O7_4 O 0.14101(19) 0.9184(5) 0.8522(4)
O8_4 O 0.1453(2) 0.7281(5) 0.7832(4)
O10_4 O 0.1186(8) 0.8786(13) 0.6463(9)
H2_4 H 0.1116 0.8756 0.7045
C20_4 C 0.1542(5) 0.7323(14) 0.6754(10)
H15_4 H 0.1849 0.7601 0.6763
C21_4 C 0.1211(8) 0.7877(12) 0.6055(11)
H16_4 H 0.1309 0.7908 0.5380
H17_4 H 0.0907 0.7589 0.5975
C22_4 C 0.1563(6) 0.6317(13) 0.6322(11)
H18_4 H 0.1811 0.5973 0.6731
H19_4 H 0.1622 0.6335 0.5613
O12_4 O 0.22942(14) 0.6550(4) 0.9572(3)
O14_4 O 0.23242(15) 0.8311(4) 0.8299(3)
H21_4 H 0.0648977 0.625674 0.578932
N1_4 N 0.90444(19) 0.5786(5) 0.1423(4)
O5_4 O 0.73242(15) 0.6689(4) 0.3299(3)
C4_4 C 0.9970(2) 0.6085(6) 0.0887(6)
H4_4 H 0.9883 0.5465 0.0888
C5_4 C 0.9681(2) 0.6781(6) 0.1204(6)
C6_4 C 0.9825(3) 0.7694(7) 0.1199(8)
H5_4 H 0.9636 0.8158 0.1397
C8_4 C 0.9219(3) 0.6556(7) 0.1453(6)
C9_4 C 0.7530(2) 0.4194(5) 0.0672(5)
C10_4 C 0.7837(2) 0.4955(5) 0.1216(5)
C11_4 C 0.8303(2) 0.4999(5) 0.1109(5)
H7_4 H 0.8429 0.4566 0.0705
C12_4 C 0.8582(2) 0.5699(5) 0.1613(5)
C13_4 C 0.8393(2) 0.6282(5) 0.2307(5)
H8_4 H 0.8580 0.6721 0.2686
C14_4 C 0.7932(2) 0.6206(6) 0.2425(5)
C15_4 C 0.7654(2) 0.5547(5) 0.1867(5)
H9_4 H 0.7342 0.5506 0.1932
C16_4 C 0.7740(2) 0.6802(5) 0.3191(5)
H20_4 H 0.908(3) 0.704(5) 0.160(6)
O4_3 O 0.21042(14) 0.0649(4) 0.5473(4)
C9_5 C 0.2530(2) 0.0806(5) 0.5672(5)
C10_5 C 0.2837(2) 0.0045(5) 0.6216(5)
C11_5 C 0.3303(2) 0.0001(5) 0.6109(5)
H7_5 H 0.3429 0.0434 0.5705
S1_3 S 0.70887(17) 0.3373(3) 0.4169(3)
S2_5 S 0.6004(4) 0.9244(6) 0.1386(7)
N1_5 N 0.40444(19) 0.9214(5) 0.6423(4)
O1_5 O 0.61664(18) 0.8082(4) 0.4734(4)
O2_5 O 0.61294(16) 0.6686(4) 0.5396(4)
O6_3 O 0.30075(15) 0.7609(4) 0.8684(3)
O7_5 O 0.64101(19) 0.5816(5) 0.3522(4)
O8_5 O 0.6453(2) 0.7719(5) 0.2832(4)
O9_3 O 0.6064(4) 0.4411(11) 0.2084(9)
H1_3 H 0.6241 0.4402 0.1652
O10_5 O 0.6186(8) 0.6214(13) 0.1463(9)
H2_5 H 0.6116 0.6244 0.2045
C1_5 C 0.5966(2) 0.7501(6) 0.5225(5)
C2_5 C 0.5527(2) 0.7757(6) 0.5583(5)
C3_5 C 0.5383(3) 0.8659(6) 0.5575(6)
H3_5 H 0.5569 0.9115 0.5351
C4_5 C 0.4970(2) 0.8915(6) 0.5887(6)
H4_5 H 0.4883 0.9535 0.5888
C5_5 C 0.4681(2) 0.8219(6) 0.6204(6)
C6_5 C 0.4825(3) 0.7306(7) 0.6199(8)
H5_5 H 0.4636 0.6842 0.6397
C7_5 C 0.5247(3) 0.7074(6) 0.5901(7)
H6_5 H 0.5342 0.6459 0.5915
C8_5 C 0.4219(3) 0.8444(7) 0.6453(6)
C12_5 C 0.3582(2) 0.9301(5) 0.6613(5)
C13_5 C 0.3393(2) 0.8718(5) 0.7307(5)
H8_5 H 0.3580 0.8279 0.7686
C14_5 C 0.2932(2) 0.8794(6) 0.7425(5)
C15_5 C 0.2654(2) 0.9453(5) 0.6867(5)
H9_5 H 0.2342 0.9494 0.6932
C16_5 C 0.2740(2) 0.8198(5) 0.8191(5)
C17_3 C 0.6239(5) 0.4921(12) 0.3811(12)
H10_3 H 0.5911 0.4965 0.3861
H11_3 H 0.6403 0.4735 0.4480
C18_3 C 0.6309(5) 0.4239(11) 0.3042(10)
H12_3 H 0.6187 0.3656 0.3272
C19_3 C 0.6799(5) 0.4068(10) 0.2993(10)
H13_3 H 0.6827 0.3729 0.2366
H14_3 H 0.6958 0.4655 0.2966
C20_5 C 0.6542(5) 0.7677(14) 0.1754(10)
H15_5 H 0.6849 0.7399 0.1763
C21_5 C 0.6211(8) 0.7123(12) 0.1055(11)
H16_5 H 0.6309 0.7092 0.0380
H17_5 H 0.5907 0.7411 0.0975
C22_5 C 0.6563(6) 0.8683(13) 0.1322(11)
H18_5 H 0.6811 0.9027 0.1731
H19_5 H 0.6622 0.8665 0.0613
H20_5 H 0.408(3) 0.796(5) 0.660(6)
O13_3 O 0.71042(14) 0.5649(4) 0.5473(4)
O15_3 O 0.69925(15) 0.7609(4) 0.6316(3)
H21_5 H 0.564898 0.874326 0.0789316
H22_3 H 0.705611 0.38677 0.507459
O4_4 O 0.78958(14) 0.0649(4) 0.9527(4)
C9_6 C 0.7470(2) 0.0806(5) 0.9328(5)
C10_6 C 0.7163(2) 0.0045(5) 0.8784(5)
C11_6 C 0.6697(2) 0.0001(5) 0.8891(5)
H7_6 H 0.6571 0.0434 0.9295
S1_4 S 0.29113(17) 0.3373(3) 0.0831(3)
S2_6 S 0.3996(4) 0.9244(6) 0.3614(7)
O1_6 O 0.38336(18) 0.8082(4) 0.0266(4)
O7_6 O 0.35899(19) 0.5816(5) 0.1478(4)
O8_6 O 0.3547(2) 0.7719(5) 0.2168(4)
O9_4 O 0.3936(4) 0.4411(11) 0.2916(9)
H1_4 H 0.3759 0.4402 0.3348
O10_6 O 0.3814(8) 0.6214(13) 0.3537(9)
H2_6 H 0.3884 0.6244 0.2955
C17_4 C 0.3761(5) 0.4921(12) 0.1189(12)
H10_4 H 0.4089 0.4965 0.1139
H11_4 H 0.3597 0.4735 0.0520
C18_4 C 0.3691(5) 0.4239(11) 0.1958(10)
H12_4 H 0.3813 0.3656 0.1728
C19_4 C 0.3201(5) 0.4068(10) 0.2007(10)
H13_4 H 0.3173 0.3729 0.2634
H14_4 H 0.3042 0.4655 0.2034
C20_6 C 0.3458(5) 0.7677(14) 0.3246(10)
H15_6 H 0.3151 0.7399 0.3237
C21_6 C 0.3789(8) 0.7123(12) 0.3945(11)
H16_6 H 0.3691 0.7092 0.4620
H17_6 H 0.4093 0.7411 0.4025
C22_6 C 0.3437(6) 0.8683(13) 0.3678(11)
H18_6 H 0.3189 0.9027 0.3269
H19_6 H 0.3378 0.8665 0.4387
H21_6 H 0.435102 0.874326 0.421068
N1_6 N 0.59556(19) 0.9214(5) 0.8577(4)
O2_6 O 0.38706(16) 0.6686(4) 0.9604(4)
C1_6 C 0.4034(2) 0.7501(6) 0.9775(5)
C2_6 C 0.4473(2) 0.7757(6) 0.9417(5)
C3_6 C 0.4617(3) 0.8659(6) 0.9425(6)
H3_6 H 0.4431 0.9115 0.9649
C4_6 C 0.5030(2) 0.8915(6) 0.9113(6)
H4_6 H 0.5117 0.9535 0.9112
C5_6 C 0.5319(2) 0.8219(6) 0.8796(6)
C6_6 C 0.5175(3) 0.7306(7) 0.8801(8)
H5_6 H 0.5364 0.6842 0.8603
C7_6 C 0.4753(3) 0.7074(6) 0.9099(7)
H6_6 H 0.4658 0.6459 0.9085
C8_6 C 0.5781(3) 0.8444(7) 0.8547(6)
C12_6 C 0.6418(2) 0.9301(5) 0.8387(5)
C13_6 C 0.6607(2) 0.8718(5) 0.7693(5)
H8_6 H 0.6420 0.8279 0.7314
C14_6 C 0.7068(2) 0.8794(6) 0.7575(5)
C15_6 C 0.7346(2) 0.9453(5) 0.8133(5)
H9_6 H 0.7658 0.9494 0.8068
C16_6 C 0.7260(2) 0.8198(5) 0.6809(5)
H20_6 H 0.592(3) 0.796(5) 0.840(6)
O13_4 O 0.28958(14) 0.5649(4) 0.9527(4)
H22_4 H 0.294389 0.38677 0.992541
S2_7 S 0.1004(4) 0.4244(6) 0.1386(7)
O1_7 O 0.11664(18) 0.3082(4) 0.4734(4)
O2_7 O 0.11294(16) 0.1686(4) 0.5396(4)
O7_7 O 0.14101(19) 0.0816(5) 0.3522(4)
O8_7 O 0.1453(2) 0.2719(5) 0.2832(4)
O10_7 O 0.1186(8) 0.1214(13) 0.1463(9)
H2_7 H 0.1116 0.1244 0.2045
C1_7 C 0.0966(2) 0.2501(6) 0.5225(5)
C2_7 C 0.0527(2) 0.2757(6) 0.5583(5)
C3_7 C 0.0383(3) 0.3659(6) 0.5575(6)
H3_7 H 0.0569 0.4115 0.5351
C7_7 C 0.0247(3) 0.2074(6) 0.5901(7)
H6_7 H 0.0342 0.1459 0.5915
C20_7 C 0.1542(5) 0.2677(14) 0.1754(10)
H15_7 H 0.1849 0.2399 0.1763
C21_7 C 0.1211(8) 0.2123(12) 0.1055(11)
H16_7 H 0.1309 0.2092 0.0380
H17_7 H 0.0907 0.2411 0.0975
C22_7 C 0.1563(6) 0.3683(13) 0.1322(11)
H18_7 H 0.1811 0.4027 0.1731
H19_7 H 0.1622 0.3665 0.0613
O15_4 O 0.19925(15) 0.2609(4) 0.6316(3)
H21_7 H 0.0648977 0.374326 0.0789316
N1_7 N 0.90444(19) 0.4214(5) 0.6423(4)
O6_4 O 0.80075(15) 0.2609(4) 0.8684(3)
C4_7 C 0.9970(2) 0.3915(6) 0.5887(6)
H4_7 H 0.9883 0.4535 0.5888
C5_7 C 0.9681(2) 0.3219(6) 0.6204(6)
C6_7 C 0.9825(3) 0.2306(7) 0.6199(8)
H5_7 H 0.9636 0.1842 0.6397
C8_7 C 0.9219(3) 0.3444(7) 0.6453(6)
C9_7 C 0.7530(2) 0.5806(5) 0.5672(5)
C10_7 C 0.7837(2) 0.5045(5) 0.6216(5)
C11_7 C 0.8303(2) 0.5001(5) 0.6109(5)
H7_7 H 0.8429 0.5434 0.5705
C12_7 C 0.8582(2) 0.4301(5) 0.6613(5)
C13_7 C 0.8393(2) 0.3718(5) 0.7307(5)
H8_7 H 0.8580 0.3279 0.7686
C14_7 C 0.7932(2) 0.3794(6) 0.7425(5)
C15_7 C 0.7654(2) 0.4453(5) 0.6867(5)
H9_7 H 0.7342 0.4494 0.6932
C16_7 C 0.7740(2) 0.3198(5) 0.8191(5)
H20_7 H 0.908(3) 0.296(5) 0.660(6)
N1_8 N 0.09556(19) 0.4214(5) 0.8577(4)
C4_8 C 0.0030(2) 0.3915(6) 0.9113(6)
H4_8 H 0.0117 0.4535 0.9112
C5_8 C 0.0319(2) 0.3219(6) 0.8796(6)
C6_8 C 0.0175(3) 0.2306(7) 0.8801(8)
H5_8 H 0.0364 0.1842 0.8603
C8_8 C 0.0781(3) 0.3444(7) 0.8547(6)
C9_8 C 0.2470(2) 0.5806(5) 0.9328(5)
C10_8 C 0.2163(2) 0.5045(5) 0.8784(5)
C11_8 C 0.1697(2) 0.5001(5) 0.8891(5)
H7_8 H 0.1571 0.5434 0.9295
C12_8 C 0.1418(2) 0.4301(5) 0.8387(5)
C13_8 C 0.1607(2) 0.3718(5) 0.7693(5)
H8_8 H 0.1420 0.3279 0.7314
C14_8 C 0.2068(2) 0.3794(6) 0.7575(5)
C15_8 C 0.2346(2) 0.4453(5) 0.8133(5)
H9_8 H 0.2658 0.4494 0.8068
C16_8 C 0.2260(2) 0.3198(5) 0.6809(5)
H20_8 H 0.092(3) 0.296(5) 0.840(6)
S2_8 S 0.8996(4) 0.4244(6) 0.3614(7)
O1_8 O 0.88336(18) 0.3082(4) 0.0266(4)
O7_8 O 0.85899(19) 0.0816(5) 0.1478(4)
O8_8 O 0.8547(2) 0.2719(5) 0.2168(4)
O10_8 O 0.8814(8) 0.1214(13) 0.3537(9)
H2_8 H 0.8884 0.1244 0.2955
C20_8 C 0.8458(5) 0.2677(14) 0.3246(10)
H15_8 H 0.8151 0.2399 0.3237
C21_8 C 0.8789(8) 0.2123(12) 0.3945(11)
H16_8 H 0.8691 0.2092 0.4620
H17_8 H 0.9093 0.2411 0.4025
C22_8 C 0.8437(6) 0.3683(13) 0.3678(11)
H18_8 H 0.8189 0.4027 0.3269
H19_8 H 0.8378 0.3665 0.4387
H21_8 H 0.935102 0.374326 0.421068
O2_8 O 0.88706(16) 0.1686(4) 0.9604(4)
C1_8 C 0.9034(2) 0.2501(6) 0.9775(5)
C2_8 C 0.9473(2) 0.2757(6) 0.9417(5)
C3_8 C 0.9617(3) 0.3659(6) 0.9425(6)
H3_8 H 0.9431 0.4115 0.9649
C7_8 C 0.9753(3) 0.2074(6) 0.9099(7)
H6_8 H 0.9658 0.1459 0.9085
S1_5 S 0.79113(17) 0.1627(3) 0.5831(3)
O9_5 O 0.8936(4) 0.0589(11) 0.7916(9)
H1_5 H 0.8759 0.0598 0.8348
C17_5 C 0.8761(5) 0.0079(12) 0.6189(12)
H10_5 H 0.9089 0.0035 0.6139
H11_5 H 0.8597 0.0265 0.5520
C18_5 C 0.8691(5) 0.0761(11) 0.6958(10)
H12_5 H 0.8813 0.1344 0.6728
C19_5 C 0.8201(5) 0.0932(10) 0.7007(10)
H13_5 H 0.8173 0.1271 0.7634
H14_5 H 0.8042 0.0345 0.7034
H22_5 H 0.794389 0.11323 0.492541
H22_6 H 0.205611 0.11323 0.00745885
S1_6 S 0.20887(17) 0.1627(3) 0.9169(3)
O9_6 O 0.1064(4) 0.0589(11) 0.7084(9)
H1_6 H 0.1241 0.0598 0.6652
C17_6 C 0.1239(5) 0.0079(12) 0.8811(12)
H10_6 H 0.0911 0.0035 0.8861
H11_6 H 0.1403 0.0265 0.9480
C18_6 C 0.1309(5) 0.0761(11) 0.8042(10)
H12_6 H 0.1187 0.1344 0.8272
C19_6 C 0.1799(5) 0.0932(10) 0.7993(10)
H13_6 H 0.1827 0.1271 0.7366
H14_6 H 0.1958 0.0345 0.7966
S1_7 S 0.20887(17) 0.8373(3) 0.4169(3)
O9_7 O 0.1064(4) 0.9411(11) 0.2084(9)
H1_7 H 0.1241 0.9402 0.1652
C17_7 C 0.1239(5) 0.9921(12) 0.3811(12)
H10_7 H 0.0911 0.9965 0.3861
H11_7 H 0.1403 0.9735 0.4480
C18_7 C 0.1309(5) 0.9239(11) 0.3042(10)
H12_7 H 0.1187 0.8656 0.3272
C19_7 C 0.1799(5) 0.9068(10) 0.2993(10)
H13_7 H 0.1827 0.8729 0.2366
H14_7 H 0.1958 0.9655 0.2966
H22_7 H 0.205611 0.88677 0.507459
S1_8 S 0.79113(17) 0.8373(3) 0.0831(3)
O9_8 O 0.8936(4) 0.9411(11) 0.2916(9)
H1_8 H 0.8759 0.9402 0.3348
C17_8 C 0.8761(5) 0.9921(12) 0.1189(12)
H10_8 H 0.9089 0.9965 0.1139
H11_8 H 0.8597 0.9735 0.0520
C18_8 C 0.8691(5) 0.9239(11) 0.1958(10)
H12_8 H 0.8813 0.8656 0.1728
C19_8 C 0.8201(5) 0.9068(10) 0.2007(10)
H13_8 H 0.8173 0.8729 0.2634
H14_8 H 0.8042 0.9655 0.2034
H22_8 H 0.794389 0.88677 0.992541
loop_
_geom_bond_atom_site_label_1
_geom_bond_atom_site_label_2
_geom_bond_site_symmetry_1
_geom_bond_site_symmetry_2
Nd1 O1 1_555 1_555
S1 C19 1_555 1_555
S2 C22 1_555 1_555
N1 C8 1_555 1_555
O1 C1 1_555 1_555
O2 Nd1 1_555 1_555
O5 C16 1_555 1_555
O6 C16 1_555 1_555
O7 Nd1 1_555 1_555
O8 Nd1 1_555 1_555
O9 H1 1_555 1_555
O10 H2 1_555 1_555
C1 O2 1_555 1_555
C2 C1 1_555 1_555
C3 C2 1_555 1_555
H3 C3 1_555 1_555
C4 C3 1_555 1_555
H4 C4 1_555 1_555
C5 C4 1_555 1_555
C6 C5 1_555 1_555
H5 C6 1_555 1_555
C7 C2 1_555 1_555
H6 C7 1_555 1_555
C8 C5 1_555 1_555
C12 N1 1_555 1_555
C13 C12 1_555 1_555
H8 C13 1_555 1_555
C14 C13 1_555 1_555
H9 C15 1_555 1_555
C16 C14 1_555 1_555
C17 O7 1_555 1_555
H10 C17 1_555 1_555
H11 C17 1_555 1_555
C18 O9 1_555 1_555
H12 C18 1_555 1_555
C19 C18 1_555 1_555
H13 C19 1_555 1_555
H14 C19 1_555 1_555
C20 O8 1_555 1_555
H15 C20 1_555 1_555
C21 O10 1_555 1_555
H16 C21 1_555 1_555
H17 C21 1_555 1_555
C22 C20 1_555 1_555
H18 C22 1_555 1_555
H19 C22 1_555 1_555
H20 C8 1_555 1_555
Nd4 O5 1_555 1_555
O11 Nd1 1_555 1_555
O12 Nd1 1_555 1_555
O13 Nd1 1_555 1_555
O14 Nd1 1_555 1_555
O15 Nd1 1_555 1_555
C6 C7 1_555 1_555
C14 C15 1_555 1_555
C17 C18 1_555 1_555
C20 C21 1_555 1_555
S2 H21 1_555 1_555
S1 H22 1_555 1_555
O3 C9 1_555 1_555
O4 C9 1_555 1_555
C9 C10 1_555 1_555
C10 C11 1_555 1_555
C11 H7 1_555 1_555
Nd2 O3 1_555 1_555
Nd3 O3 1_555 1_555
O4 Nd2 1_555 1_555
N1_2 C8_2 1_555 1_555
O5_2 C16_2 1_555 1_555
O15 C16_2 1_555 1_555
C1_2 O2_2 1_555 1_555
C2_2 C1_2 1_555 1_555
C3_2 C2_2 1_555 1_555
H3_2 C3_2 1_555 1_555
C4_2 C3_2 1_555 1_555
H4_2 C4_2 1_555 1_555
C5_2 C4_2 1_555 1_555
C6_2 C5_2 1_555 1_555
H5_2 C6_2 1_555 1_555
C7_2 C2_2 1_555 1_555
H6_2 C7_2 1_555 1_555
C8_2 C5_2 1_555 1_555
C12_2 N1_2 1_555 1_555
C13_2 C12_2 1_555 1_555
H8_2 C13_2 1_555 1_555
C14_2 C13_2 1_555 1_555
H9_2 C15_2 1_555 1_555
C16_2 C14_2 1_555 1_555
H20_2 C8_2 1_555 1_555
Nd4_2 O5_2 1_555 1_555
C6_2 C7_2 1_555 1_555
C14_2 C15_2 1_555 1_555
Nd5 O1_2 1_555 1_555
S1_2 C19_2 1_555 1_555
S2_2 C22_2 1_555 1_555
O7_2 Nd5 1_555 1_555
O8_2 Nd5 1_555 1_555
O9_2 H1_2 1_555 1_555
O10_2 H2_2 1_555 1_555
C17_2 O7_2 1_555 1_555
H10_2 C17_2 1_555 1_555
H11_2 C17_2 1_555 1_555
C18_2 O9_2 1_555 1_555
H12_2 C18_2 1_555 1_555
C19_2 C18_2 1_555 1_555
H13_2 C19_2 1_555 1_555
H14_2 C19_2 1_555 1_555
C20_2 O8_2 1_555 1_555
H15_2 C20_2 1_555 1_555
C21_2 O10_2 1_555 1_555
H16_2 C21_2 1_555 1_555
H17_2 C21_2 1_555 1_555
C22_2 C20_2 1_555 1_555
H18_2 C22_2 1_555 1_555
H19_2 C22_2 1_555 1_555
O12_2 Nd5 1_555 1_555
O14_2 Nd5 1_555 1_555
C17_2 C18_2 1_555 1_555
C20_2 C21_2 1_555 1_555
S2_2 H21_2 1_555 1_555
O3_2 C9_2 1_555 1_555
O4_2 C9_2 1_555 1_555
C9_2 C10_2 1_555 1_555
C10_2 C11_2 1_555 1_555
C11_2 H7_2 1_555 1_555
Nd3_2 O3_2 1_555 1_555
N1_3 C8_3 1_555 1_555
O11 C9_3 1_555 1_555
O13 C9_3 1_555 1_555
O5_3 C16_3 1_555 1_555
O6_2 C16_3 1_555 1_555
H4_3 C4_3 1_555 1_555
C5_3 C4_3 1_555 1_555
C6_3 C5_3 1_555 1_555
H5_3 C6_3 1_555 1_555
C8_3 C5_3 1_555 1_555
C9_3 C10_3 1_555 1_555
C10_3 C11_3 1_555 1_555
C11_3 H7_3 1_555 1_555
C12_3 N1_3 1_555 1_555
C13_3 C12_3 1_555 1_555
H8_3 C13_3 1_555 1_555
C14_3 C13_3 1_555 1_555
C15_3 C10_3 1_555 1_555
H9_3 C15_3 1_555 1_555
C16_3 C14_3 1_555 1_555
H20_3 C8_3 1_555 1_555
Nd4_2 O11 1_555 1_555
Nd3_2 O5_3 1_555 1_555
C11_3 C12_3 1_555 1_555
C14_3 C15_3 1_555 1_555
Nd2 O1_3 1_555 1_555
S2_3 C22_3 1_555 1_555
O1_3 C1_3 1_555 1_555
O2_3 Nd2 1_555 1_555
O7_3 Nd2 1_555 1_555
O8_3 Nd2 1_555 1_555
O10_3 H2_3 1_555 1_555
C1_3 O2_3 1_555 1_555
C2_3 C1_3 1_555 1_555
C3_3 C2_3 1_555 1_555
H3_3 C3_3 1_555 1_555
C7_3 C2_3 1_555 1_555
H6_3 C7_3 1_555 1_555
C20_3 O8_3 1_555 1_555
H15_3 C20_3 1_555 1_555
C21_3 O10_3 1_555 1_555
H16_3 C21_3 1_555 1_555
H17_3 C21_3 1_555 1_555
C22_3 C20_3 1_555 1_555
H18_3 C22_3 1_555 1_555
H19_3 C22_3 1_555 1_555
O12_3 Nd2 1_555 1_555
O14_3 Nd2 1_555 1_555
O15_2 Nd2 1_555 1_555
C20_3 C21_3 1_555 1_555
S2_3 H21_3 1_555 1_555
C1_4 O2_4 1_555 1_555
C2_4 C1_4 1_555 1_555
C3_4 C2_4 1_555 1_555
H3_4 C3_4 1_555 1_555
C7_4 C2_4 1_555 1_555
H6_4 C7_4 1_555 1_555
Nd2_2 O1_4 1_555 1_555
S2_4 C22_4 1_555 1_555
O7_4 Nd2_2 1_555 1_555
O8_4 Nd2_2 1_555 1_555
O10_4 H2_4 1_555 1_555
C20_4 O8_4 1_555 1_555
H15_4 C20_4 1_555 1_555
C21_4 O10_4 1_555 1_555
H16_4 C21_4 1_555 1_555
H17_4 C21_4 1_555 1_555
C22_4 C20_4 1_555 1_555
H18_4 C22_4 1_555 1_555
H19_4 C22_4 1_555 1_555
O12_4 Nd2_2 1_555 1_555
O14_4 Nd2_2 1_555 1_555
C20_4 C21_4 1_555 1_555
S2_4 H21_4 1_555 1_555
N1_4 C8_4 1_555 1_555
O11_2 C9_4 1_555 1_555
O13_2 C9_4 1_555 1_555
O5_4 C16_4 1_555 1_555
O15_2 C16_4 1_555 1_555
H4_4 C4_4 1_555 1_555
C5_4 C4_4 1_555 1_555
C6_4 C5_4 1_555 1_555
H5_4 C6_4 1_555 1_555
C8_4 C5_4 1_555 1_555
C9_4 C10_4 1_555 1_555
C10_4 C11_4 1_555 1_555
C11_4 H7_4 1_555 1_555
C12_4 N1_4 1_555 1_555
C13_4 C12_4 1_555 1_555
H8_4 C13_4 1_555 1_555
C14_4 C13_4 1_555 1_555
C15_4 C10_4 1_555 1_555
H9_4 C15_4 1_555 1_555
C16_4 C14_4 1_555 1_555
H20_4 C8_4 1_555 1_555
Nd4 O11_2 1_555 1_555
Nd3 O5_4 1_555 1_555
C11_4 C12_4 1_555 1_555
C14_4 C15_4 1_555 1_555
O12 C9_5 1_555 1_555
O4_3 C9_5 1_555 1_555
C9_5 C10_5 1_555 1_555
C10_5 C11_5 1_555 1_555
C11_5 H7_5 1_555 1_555
Nd4_2 O12 1_555 1_555
O4_3 Nd4_2 1_555 1_555
Nd3 O1_5 1_555 1_555
S1_3 C19_3 1_555 1_555
S2_5 C22_5 1_555 1_555
N1_5 C8_5 1_555 1_555
O1_5 C1_5 1_555 1_555
O2_5 Nd3 1_555 1_555
O14_4 C16_5 1_555 1_555
O6_3 C16_5 1_555 1_555
O7_5 Nd3 1_555 1_555
O8_5 Nd3 1_555 1_555
O9_3 H1_3 1_555 1_555
O10_5 H2_5 1_555 1_555
C1_5 O2_5 1_555 1_555
C2_5 C1_5 1_555 1_555
C3_5 C2_5 1_555 1_555
H3_5 C3_5 1_555 1_555
C4_5 C3_5 1_555 1_555
H4_5 C4_5 1_555 1_555
C5_5 C4_5 1_555 1_555
C6_5 C5_5 1_555 1_555
H5_5 C6_5 1_555 1_555
C7_5 C2_5 1_555 1_555
H6_5 C7_5 1_555 1_555
C8_5 C5_5 1_555 1_555
C12_5 N1_5 1_555 1_555
C13_5 C12_5 1_555 1_555
H8_5 C13_5 1_555 1_555
C14_5 C13_5 1_555 1_555
H9_5 C15_5 1_555 1_555
C16_5 C14_5 1_555 1_555
C17_3 O7_5 1_555 1_555
H10_3 C17_3 1_555 1_555
H11_3 C17_3 1_555 1_555
C18_3 O9_3 1_555 1_555
H12_3 C18_3 1_555 1_555
C19_3 C18_3 1_555 1_555
H13_3 C19_3 1_555 1_555
H14_3 C19_3 1_555 1_555
C20_5 O8_5 1_555 1_555
H15_5 C20_5 1_555 1_555
C21_5 O10_5 1_555 1_555
H16_5 C21_5 1_555 1_555
H17_5 C21_5 1_555 1_555
C22_5 C20_5 1_555 1_555
H18_5 C22_5 1_555 1_555
H19_5 C22_5 1_555 1_555
H20_5 C8_5 1_555 1_555
O12_3 Nd3 1_555 1_555
O13_3 Nd3 1_555 1_555
O15_3 Nd3 1_555 1_555
C6_5 C7_5 1_555 1_555
C14_5 C15_5 1_555 1_555
C17_3 C18_3 1_555 1_555
C20_5 C21_5 1_555 1_555
S2_5 H21_5 1_555 1_555
S1_3 H22_3 1_555 1_555
O12_2 C9_6 1_555 1_555
O4_4 C9_6 1_555 1_555
C9_6 C10_6 1_555 1_555
C10_6 C11_6 1_555 1_555
C11_6 H7_6 1_555 1_555
Nd3_2 O1_6 1_555 1_555
S1_4 C19_4 1_555 1_555
S2_6 C22_6 1_555 1_555
O7_6 Nd3_2 1_555 1_555
O8_6 Nd3_2 1_555 1_555
O9_4 H1_4 1_555 1_555
O10_6 H2_6 1_555 1_555
C17_4 O7_6 1_555 1_555
H10_4 C17_4 1_555 1_555
H11_4 C17_4 1_555 1_555
C18_4 O9_4 1_555 1_555
H12_4 C18_4 1_555 1_555
C19_4 C18_4 1_555 1_555
H13_4 C19_4 1_555 1_555
H14_4 C19_4 1_555 1_555
C20_6 O8_6 1_555 1_555
H15_6 C20_6 1_555 1_555
C21_6 O10_6 1_555 1_555
H16_6 C21_6 1_555 1_555
H17_6 C21_6 1_555 1_555
C22_6 C20_6 1_555 1_555
H18_6 C22_6 1_555 1_555
H19_6 C22_6 1_555 1_555
C17_4 C18_4 1_555 1_555
C20_6 C21_6 1_555 1_555
S2_6 H21_6 1_555 1_555
N1_6 C8_6 1_555 1_555
O14_3 C16_6 1_555 1_555
O15_3 C16_6 1_555 1_555
C1_6 O2_6 1_555 1_555
C2_6 C1_6 1_555 1_555
C3_6 C2_6 1_555 1_555
H3_6 C3_6 1_555 1_555
C4_6 C3_6 1_555 1_555
H4_6 C4_6 1_555 1_555
C5_6 C4_6 1_555 1_555
C6_6 C5_6 1_555 1_555
H5_6 C6_6 1_555 1_555
C7_6 C2_6 1_555 1_555
H6_6 C7_6 1_555 1_555
C8_6 C5_6 1_555 1_555
C12_6 N1_6 1_555 1_555
C13_6 C12_6 1_555 1_555
H8_6 C13_6 1_555 1_555
C14_6 C13_6 1_555 1_555
H9_6 C15_6 1_555 1_555
C16_6 C14_6 1_555 1_555
H20_6 C8_6 1_555 1_555
C6_6 C7_6 1_555 1_555
C14_6 C15_6 1_555 1_555
Nd4_2 O1_7 1_555 1_555
S2_7 C22_7 1_555 1_555
O1_7 C1_7 1_555 1_555
O2_7 Nd4_2 1_555 1_555
O7_7 Nd4_2 1_555 1_555
O8_7 Nd4_2 1_555 1_555
O10_7 H2_7 1_555 1_555
C1_7 O2_7 1_555 1_555
C2_7 C1_7 1_555 1_555
C3_7 C2_7 1_555 1_555
H3_7 C3_7 1_555 1_555
C7_7 C2_7 1_555 1_555
H6_7 C7_7 1_555 1_555
C20_7 O8_7 1_555 1_555
H15_7 C20_7 1_555 1_555
C21_7 O10_7 1_555 1_555
H16_7 C21_7 1_555 1_555
H17_7 C21_7 1_555 1_555
C22_7 C20_7 1_555 1_555
H18_7 C22_7 1_555 1_555
H19_7 C22_7 1_555 1_555
O15_4 Nd4_2 1_555 1_555
C20_7 C21_7 1_555 1_555
S2_7 H21_7 1_555 1_555
N1_7 C8_7 1_555 1_555
O12_3 C9_7 1_555 1_555
O13_3 C9_7 1_555 1_555
O14_2 C16_7 1_555 1_555
O6_4 C16_7 1_555 1_555
H4_7 C4_7 1_555 1_555
C5_7 C4_7 1_555 1_555
C6_7 C5_7 1_555 1_555
H5_7 C6_7 1_555 1_555
C8_7 C5_7 1_555 1_555
C9_7 C10_7 1_555 1_555
C10_7 C11_7 1_555 1_555
C11_7 H7_7 1_555 1_555
C12_7 N1_7 1_555 1_555
C13_7 C12_7 1_555 1_555
H8_7 C13_7 1_555 1_555
C14_7 C13_7 1_555 1_555
C15_7 C10_7 1_555 1_555
H9_7 C15_7 1_555 1_555
C16_7 C14_7 1_555 1_555
H20_7 C8_7 1_555 1_555
C11_7 C12_7 1_555 1_555
C14_7 C15_7 1_555 1_555
N1_8 C8_8 1_555 1_555
O12_4 C9_8 1_555 1_555
O13_4 C9_8 1_555 1_555
O14 C16_8 1_555 1_555
O15_4 C16_8 1_555 1_555
H4_8 C4_8 1_555 1_555
C5_8 C4_8 1_555 1_555
C6_8 C5_8 1_555 1_555
H5_8 C6_8 1_555 1_555
C8_8 C5_8 1_555 1_555
C9_8 C10_8 1_555 1_555
C10_8 C11_8 1_555 1_555
C11_8 H7_8 1_555 1_555
C12_8 N1_8 1_555 1_555
C13_8 C12_8 1_555 1_555
H8_8 C13_8 1_555 1_555
C14_8 C13_8 1_555 1_555
C15_8 C10_8 1_555 1_555
H9_8 C15_8 1_555 1_555
C16_8 C14_8 1_555 1_555
H20_8 C8_8 1_555 1_555
C11_8 C12_8 1_555 1_555
C14_8 C15_8 1_555 1_555
Nd4 O1_8 1_555 1_555
S2_8 C22_8 1_555 1_555
O7_8 Nd4 1_555 1_555
O8_8 Nd4 1_555 1_555
O10_8 H2_8 1_555 1_555
C20_8 O8_8 1_555 1_555
H15_8 C20_8 1_555 1_555
C21_8 O10_8 1_555 1_555
H16_8 C21_8 1_555 1_555
H17_8 C21_8 1_555 1_555
C22_8 C20_8 1_555 1_555
H18_8 C22_8 1_555 1_555
H19_8 C22_8 1_555 1_555
C20_8 C21_8 1_555 1_555
S2_8 H21_8 1_555 1_555
C1_8 O2_8 1_555 1_555
C2_8 C1_8 1_555 1_555
C3_8 C2_8 1_555 1_555
H3_8 C3_8 1_555 1_555
C7_8 C2_8 1_555 1_555
H6_8 C7_8 1_555 1_555
S1_5 C19_5 1_555 1_555
O9_5 H1_5 1_555 1_555
H10_5 C17_5 1_555 1_555
H11_5 C17_5 1_555 1_555
C18_5 O9_5 1_555 1_555
H12_5 C18_5 1_555 1_555
C19_5 C18_5 1_555 1_555
H13_5 C19_5 1_555 1_555
H14_5 C19_5 1_555 1_555
C17_5 C18_5 1_555 1_555
S1_5 H22_5 1_555 1_555
S1_6 C19_6 1_555 1_555
O9_6 H1_6 1_555 1_555
H10_6 C17_6 1_555 1_555
H11_6 C17_6 1_555 1_555
C18_6 O9_6 1_555 1_555
H12_6 C18_6 1_555 1_555
C19_6 C18_6 1_555 1_555
H13_6 C19_6 1_555 1_555
H14_6 C19_6 1_555 1_555
C17_6 C18_6 1_555 1_555
S1_7 C19_7 1_555 1_555
O9_7 H1_7 1_555 1_555
H10_7 C17_7 1_555 1_555
H11_7 C17_7 1_555 1_555
C18_7 O9_7 1_555 1_555
H12_7 C18_7 1_555 1_555
C19_7 C18_7 1_555 1_555
H13_7 C19_7 1_555 1_555
H14_7 C19_7 1_555 1_555
C17_7 C18_7 1_555 1_555
S1_7 H22_7 1_555 1_555
S1_8 C19_8 1_555 1_555
O9_8 H1_8 1_555 1_555
H10_8 C17_8 1_555 1_555
H11_8 C17_8 1_555 1_555
C18_8 O9_8 1_555 1_555
H12_8 C18_8 1_555 1_555
C19_8 C18_8 1_555 1_555
H13_8 C19_8 1_555 1_555
H14_8 C19_8 1_555 1_555
C17_8 C18_8 1_555 1_555

#END
