
###############################################################################
#
# This file contains modified crystal structure data generated from the
# MOF subset of the Cambridge Structural Database (CSD) v543 
# hosted by the Cambridge Crystallographic Data Centre (CCDC).
#
# This work is licensed under the Creative Commons
# Attribution-NonCommercial-ShareAlike 4.0 International License.
# To view a copy of this license, visit
# http://creativecommons.org/licenses/by-nc-sa/4.0/
# or send a letter to
# Creative Commons, PO Box 1866, Mountain View, CA 94042, USA.
#
# CIF created using the CSD Python API on 29 September 2022
# The structure has been converted into the P1 space group
# The structure has a 3D framework
# The original CSD entry GEDSIT is in the monoclinic crystal system
# The framework has been calculated to contain at least 10.0% void space
# The void calculation uses a probe of radius 1.32A, grid spacing 0.4
# H atom positions have been added when not included in the experimental data
#
###############################################################################

data_GEDSIT
_chemical_formula_moiety         '(C168 H128 N24 Nd8 O56)n'
_symmetry_cell_setting           triclinic
_symmetry_space_group_name_H-M   'P 1'
_symmetry_Int_Tables_number      1
_space_group_name_Hall           'P 1'
loop_
_symmetry_equiv_pos_site_id
_symmetry_equiv_pos_as_xyz
1 x,y,z
_cell_length_a                   29.0425(10)
_cell_length_b                   13.7951(6)
_cell_length_c                   13.0814(6)
_cell_angle_alpha                90
_cell_angle_beta                 100.785(4)
_cell_angle_gamma                90
_cell_volume                     5148.41
loop_
_atom_site_label
_atom_site_type_symbol
_atom_site_fract_x
_atom_site_fract_y
_atom_site_fract_z
H9 H 0.3979 0.5098 0.0009
H11 H 0.3817 0.4016 0.0045
Nd1 Nd 0.316580(12) 0.29026(3) 0.55163(3)
O1 O 0.38929(18) 0.3324(4) 0.4875(5)
O2 O 0.37838(19) 0.1759(4) 0.5102(5)
O5 O 0.77089(19) 0.1973(5) 0.1879(5)
O6 O 0.69949(18) 0.2629(4) 0.1346(4)
O7 O 0.3664(3) 0.2235(5) 0.7141(6)
N1 N 0.5953(2) 0.0875(5) 0.3507(6)
N2 N 0.3521(3) 0.4221(6) 0.6829(7)
N3 N 0.3618(4) 0.5341(9) 0.8160(7)
C1 C 0.4019(3) 0.2446(6) 0.4840(6)
C2 C 0.4460(3) 0.2237(5) 0.4437(6)
C3 C 0.4720(3) 0.2987(6) 0.4130(7)
H1 H 0.4612 0.3621 0.4133
C4 C 0.5141(3) 0.2795(6) 0.3819(8)
H2 H 0.5312 0.3302 0.3606
C5 C 0.5309(3) 0.1862(6) 0.3822(7)
C6 C 0.5037(3) 0.1108(7) 0.4061(8)
H3 H 0.5139 0.0473 0.4016
C7 C 0.4608(3) 0.1285(7) 0.4369(8)
H4 H 0.4425 0.0773 0.4526
C8 C 0.5778(3) 0.1706(7) 0.3559(7)
C10 C 0.7183(2) 0.0051(5) 0.3857(6)
C11 C 0.6706(3) 0.0100(5) 0.3891(7)
C12 C 0.6419(3) 0.0825(6) 0.3349(6)
C13 C 0.6610(2) 0.1434(6) 0.2701(6)
H6 H 0.6419 0.1890 0.2306
C14 C 0.7082(2) 0.1385(6) 0.2621(6)
C15 C 0.7371(2) 0.0719(5) 0.3224(6)
H7 H 0.7691 0.0712 0.3212
C16 C 0.7273(3) 0.2055(6) 0.1909(6)
C17 C 0.3730(4) 0.3831(9) 0.7853(9)
C18 C 0.3795(4) 0.4507(8) 0.8636(9)
C19 C 0.3440(5) 0.5132(10) 0.7108(10)
H8 H 0.3280 0.5585 0.6647
C20 C 0.3991(5) 0.4466(10) 0.9707(11)
H10 H 0.4311 0.4258 0.9795
C21 C 0.3814(5) 0.2798(11) 0.7950(13)
H12 H 0.353(4) 0.162(7) 0.743(10)
H13 H 0.363(5) 0.593(7) 0.869(8)
H14 H 0.597(3) 0.231(6) 0.336(6)
Nd4 Nd 0.816580(12) 0.20974(3) 0.05163(3)
O8 O 0.23097(15) 0.3539(3) 0.4728(4)
O9 O 0.26903(15) 0.1461(3) 0.5272(4)
O10 O 0.29246(16) 0.4494(3) 0.4713(4)
O11 O 0.27089(19) 0.3027(5) 0.6879(5)
O12 O 0.30051(18) 0.2629(4) 0.3654(4)
H15 H 0.41918 0.269723 0.816007
H16 H 0.364886 0.254342 0.858227
Nd5 Nd 0.683420(12) 0.29026(3) 0.94837(3)
O3 O 0.73097(15) 0.8539(3) 0.4728(4)
O4 O 0.79246(16) 0.9494(3) 0.4713(4)
C9 C 0.7487(2) 0.9337(5) 0.4462(6)
H5 H 0.6576 0.9645 0.4279
Nd2 Nd 0.816580(12) 0.79026(3) 0.55163(3)
Nd3 Nd 0.683420(12) 0.70974(3) 0.44837(3)
O1_2 O 0.61071(18) 0.3324(4) 0.0125(5)
O5_2 O 0.22911(19) 0.1973(5) 0.3121(5)
N1_2 N 0.4047(2) 0.0875(5) 0.1493(6)
C1_2 C 0.5981(3) 0.2446(6) 0.0160(6)
C2_2 C 0.5540(3) 0.2237(5) 0.0563(6)
C3_2 C 0.5280(3) 0.2987(6) 0.0870(7)
H1_2 H 0.5388 0.3621 0.0867
C4_2 C 0.4859(3) 0.2795(6) 0.1181(8)
H2_2 H 0.4688 0.3302 0.1394
C5_2 C 0.4691(3) 0.1862(6) 0.1178(7)
C6_2 C 0.4963(3) 0.1108(7) 0.0939(8)
H3_2 H 0.4861 0.0473 0.0984
C7_2 C 0.5392(3) 0.1285(7) 0.0631(8)
H4_2 H 0.5575 0.0773 0.0474
C8_2 C 0.4222(3) 0.1706(7) 0.1441(7)
C10_2 C 0.2817(2) 0.0051(5) 0.1143(6)
C11_2 C 0.3294(3) 0.0100(5) 0.1109(7)
C12_2 C 0.3581(3) 0.0825(6) 0.1651(6)
C13_2 C 0.3390(2) 0.1434(6) 0.2299(6)
H6_2 H 0.3581 0.1890 0.2694
C14_2 C 0.2918(2) 0.1385(6) 0.2379(6)
C15_2 C 0.2629(2) 0.0719(5) 0.1776(6)
H7_2 H 0.2309 0.0712 0.1788
C16_2 C 0.2727(3) 0.2055(6) 0.3091(6)
H14_2 H 0.403(3) 0.231(6) 0.164(6)
Nd4_2 Nd 0.183420(12) 0.20974(3) 0.44837(3)
O8_2 O 0.76903(15) 0.3539(3) 0.0272(4)
O10_2 O 0.70754(16) 0.4494(3) 0.0287(4)
O2_2 O 0.62162(19) 0.1759(4) 0.9898(5)
O7_2 O 0.6336(3) 0.2235(5) 0.7859(6)
N2_2 N 0.6479(3) 0.4221(6) 0.8171(7)
N3_2 N 0.6382(4) 0.5341(9) 0.6840(7)
C17_2 C 0.6270(4) 0.3831(9) 0.7147(9)
C18_2 C 0.6205(4) 0.4507(8) 0.6364(9)
C19_2 C 0.6560(5) 0.5132(10) 0.7892(10)
H8_2 H 0.6720 0.5585 0.8353
C20_2 C 0.6009(5) 0.4466(10) 0.5293(11)
H9_2 H 0.6021 0.5098 0.4991
H10_2 H 0.5689 0.4258 0.5205
H11_2 H 0.6183 0.4016 0.4955
C21_2 C 0.6186(5) 0.2798(11) 0.7050(13)
H12_2 H 0.647(4) 0.162(7) 0.757(10)
H13_2 H 0.637(5) 0.593(7) 0.631(8)
O9_2 O 0.73097(15) 0.1461(3) 0.9728(4)
O11_2 O 0.72911(19) 0.3027(5) 0.8121(5)
H15_2 H 0.58082 0.269723 0.683993
H16_2 H 0.635114 0.254342 0.641773
O3_2 O 0.26903(15) 0.8539(3) 0.0272(4)
O4_2 O 0.20754(16) 0.9494(3) 0.0287(4)
C9_2 C 0.2513(2) 0.9337(5) 0.0538(6)
H5_2 H 0.3424 0.9645 0.0721
Nd3_2 Nd 0.316580(12) 0.70974(3) 0.05163(3)
Nd2_2 Nd 0.183420(12) 0.79026(3) 0.94837(3)
O5_3 O 0.27089(19) 0.6973(5) 0.1879(5)
O6_2 O 0.19949(18) 0.7629(4) 0.1346(4)
N1_3 N 0.0953(2) 0.5875(5) 0.3507(6)
C4_3 C 0.0141(3) 0.7795(6) 0.3819(8)
H2_3 H 0.0312 0.8302 0.3606
C5_3 C 0.0309(3) 0.6862(6) 0.3822(7)
C6_3 C 0.0037(3) 0.6108(7) 0.4061(8)
H3_3 H 0.0139 0.5473 0.4016
C8_3 C 0.0778(3) 0.6706(7) 0.3559(7)
C9_3 C 0.2487(2) 0.4337(5) 0.4462(6)
C10_3 C 0.2183(2) 0.5051(5) 0.3857(6)
C11_3 C 0.1706(3) 0.5100(5) 0.3891(7)
H5_3 H 0.1576 0.4645 0.4279
C12_3 C 0.1419(3) 0.5825(6) 0.3349(6)
C13_3 C 0.1610(2) 0.6434(6) 0.2701(6)
H6_3 H 0.1419 0.6890 0.2306
C14_3 C 0.2082(2) 0.6385(6) 0.2621(6)
C15_3 C 0.2371(2) 0.5719(5) 0.3224(6)
H7_3 H 0.2691 0.5712 0.3212
C16_3 C 0.2273(3) 0.7055(6) 0.1909(6)
H14_3 H 0.097(3) 0.731(6) 0.336(6)
O1_3 O 0.88929(18) 0.8324(4) 0.4875(5)
O2_3 O 0.87838(19) 0.6759(4) 0.5102(5)
O7_3 O 0.8664(3) 0.7235(5) 0.7141(6)
N2_3 N 0.8521(3) 0.9221(6) 0.6829(7)
C1_3 C 0.9019(3) 0.7446(6) 0.4840(6)
C2_3 C 0.9460(3) 0.7237(5) 0.4437(6)
C3_3 C 0.9720(3) 0.7987(6) 0.4130(7)
H1_3 H 0.9612 0.8621 0.4133
C7_3 C 0.9608(3) 0.6285(7) 0.4369(8)
H4_3 H 0.9425 0.5773 0.4526
C17_3 C 0.8730(4) 0.8831(9) 0.7853(9)
C18_3 C 0.8795(4) 0.9507(8) 0.8636(9)
C20_3 C 0.8991(5) 0.9466(10) 0.9707(11)
H10_3 H 0.9311 0.9258 0.9795
C21_3 C 0.8814(5) 0.7798(11) 0.7950(13)
H12_3 H 0.853(4) 0.662(7) 0.743(10)
O9_3 O 0.76903(15) 0.6461(3) 0.5272(4)
O11_3 O 0.77089(19) 0.8027(5) 0.6879(5)
O12_2 O 0.80051(18) 0.7629(4) 0.3654(4)
H15_3 H 0.91918 0.769723 0.816007
H16_3 H 0.864886 0.754342 0.858227
O1_4 O 0.11071(18) 0.8324(4) 0.0125(5)
C1_4 C 0.0981(3) 0.7446(6) 0.0160(6)
C2_4 C 0.0540(3) 0.7237(5) 0.0563(6)
C3_4 C 0.0280(3) 0.7987(6) 0.0870(7)
H1_4 H 0.0388 0.8621 0.0867
C7_4 C 0.0392(3) 0.6285(7) 0.0631(8)
H4_4 H 0.0575 0.5773 0.0474
O2_4 O 0.12162(19) 0.6759(4) 0.9898(5)
O7_4 O 0.1336(3) 0.7235(5) 0.7859(6)
N2_4 N 0.1479(3) 0.9221(6) 0.8171(7)
C17_4 C 0.1270(4) 0.8831(9) 0.7147(9)
C18_4 C 0.1205(4) 0.9507(8) 0.6364(9)
C20_4 C 0.1009(5) 0.9466(10) 0.5293(11)
H10_4 H 0.0689 0.9258 0.5205
H11_3 H 0.1183 0.9016 0.4955
C21_4 C 0.1186(5) 0.7798(11) 0.7050(13)
H12_4 H 0.147(4) 0.662(7) 0.757(10)
O9_4 O 0.23097(15) 0.6461(3) 0.9728(4)
O11_4 O 0.22911(19) 0.8027(5) 0.8121(5)
H15_4 H 0.0808197 0.769723 0.683993
H16_4 H 0.135114 0.754342 0.641773
O5_4 O 0.72911(19) 0.6973(5) 0.3121(5)
N1_4 N 0.9047(2) 0.5875(5) 0.1493(6)
C4_4 C 0.9859(3) 0.7795(6) 0.1181(8)
H2_4 H 0.9688 0.8302 0.1394
C5_4 C 0.9691(3) 0.6862(6) 0.1178(7)
C6_4 C 0.9963(3) 0.6108(7) 0.0939(8)
H3_4 H 0.9861 0.5473 0.0984
C8_4 C 0.9222(3) 0.6706(7) 0.1441(7)
C9_4 C 0.7513(2) 0.4337(5) 0.0538(6)
C10_4 C 0.7817(2) 0.5051(5) 0.1143(6)
C11_4 C 0.8294(3) 0.5100(5) 0.1109(7)
H5_4 H 0.8424 0.4645 0.0721
C12_4 C 0.8581(3) 0.5825(6) 0.1651(6)
C13_4 C 0.8390(2) 0.6434(6) 0.2299(6)
H6_4 H 0.8581 0.6890 0.2694
C14_4 C 0.7918(2) 0.6385(6) 0.2379(6)
C15_4 C 0.7629(2) 0.5719(5) 0.1776(6)
H7_4 H 0.7309 0.5712 0.1788
C16_4 C 0.7727(3) 0.7055(6) 0.3091(6)
H14_4 H 0.903(3) 0.731(6) 0.164(6)
O4_3 O 0.20754(16) 0.0506(3) 0.5287(4)
C9_5 C 0.2513(2) 0.0663(5) 0.5538(6)
H5_5 H 0.3424 0.0355 0.5721
O1_5 O 0.61071(18) 0.6676(4) 0.5125(5)
O2_5 O 0.62162(19) 0.8241(4) 0.4898(5)
O6_3 O 0.30051(18) 0.7371(4) 0.8654(4)
O7_5 O 0.6336(3) 0.7765(5) 0.2859(6)
N1_5 N 0.4047(2) 0.9125(5) 0.6493(6)
N2_5 N 0.6479(3) 0.5779(6) 0.3171(7)
N3_3 N 0.6382(4) 0.4659(9) 0.1840(7)
C1_5 C 0.5981(3) 0.7554(6) 0.5160(6)
C2_5 C 0.5540(3) 0.7763(5) 0.5563(6)
C3_5 C 0.5280(3) 0.7013(6) 0.5870(7)
H1_5 H 0.5388 0.6379 0.5867
C4_5 C 0.4859(3) 0.7205(6) 0.6181(8)
H2_5 H 0.4688 0.6698 0.6394
C5_5 C 0.4691(3) 0.8138(6) 0.6178(7)
C6_5 C 0.4963(3) 0.8892(7) 0.5939(8)
H3_5 H 0.4861 0.9527 0.5984
C7_5 C 0.5392(3) 0.8715(7) 0.5631(8)
H4_5 H 0.5575 0.9227 0.5474
C8_5 C 0.4222(3) 0.8294(7) 0.6441(7)
C10_5 C 0.2817(2) 0.9949(5) 0.6143(6)
C11_5 C 0.3294(3) 0.9900(5) 0.6109(7)
C12_5 C 0.3581(3) 0.9175(6) 0.6651(6)
C13_5 C 0.3390(2) 0.8566(6) 0.7299(6)
H6_5 H 0.3581 0.8110 0.7694
C14_5 C 0.2918(2) 0.8615(6) 0.7379(6)
C15_5 C 0.2629(2) 0.9281(5) 0.6776(6)
H7_5 H 0.2309 0.9288 0.6788
C16_5 C 0.2727(3) 0.7945(6) 0.8091(6)
C17_5 C 0.6270(4) 0.6169(9) 0.2147(9)
C18_5 C 0.6205(4) 0.5493(8) 0.1364(9)
C19_3 C 0.6560(5) 0.4868(10) 0.2892(10)
H8_3 H 0.6720 0.4415 0.3353
C20_5 C 0.6009(5) 0.5534(10) 0.0293(11)
H10_5 H 0.5689 0.5742 0.0205
C21_5 C 0.6186(5) 0.7202(11) 0.2050(13)
H12_5 H 0.647(4) 0.838(7) 0.257(10)
H13_3 H 0.637(5) 0.407(7) 0.131(8)
H14_5 H 0.403(3) 0.769(6) 0.664(6)
O10_3 O 0.70754(16) 0.5506(3) 0.5287(4)
O12_3 O 0.69949(18) 0.7371(4) 0.6346(4)
H15_5 H 0.58082 0.730277 0.183993
H16_5 H 0.635114 0.745658 0.141773
O4_4 O 0.79246(16) 0.0506(3) 0.9713(4)
C9_6 C 0.7487(2) 0.0663(5) 0.9462(6)
H5_6 H 0.6576 0.0355 0.9279
O2_6 O 0.37838(19) 0.8241(4) 0.0102(5)
O7_6 O 0.3664(3) 0.7765(5) 0.2141(6)
N2_6 N 0.3521(3) 0.5779(6) 0.1829(7)
N3_4 N 0.3618(4) 0.4659(9) 0.3160(7)
C17_6 C 0.3730(4) 0.6169(9) 0.2853(9)
C18_6 C 0.3795(4) 0.5493(8) 0.3636(9)
C19_4 C 0.3440(5) 0.4868(10) 0.2108(10)
H8_4 H 0.3280 0.4415 0.1647
C20_6 C 0.3991(5) 0.5534(10) 0.4707(11)
H9_3 H 0.3979 0.4902 0.5009
H10_6 H 0.4311 0.5742 0.4795
H11_4 H 0.3817 0.5984 0.5045
C21_6 C 0.3814(5) 0.7202(11) 0.2950(13)
H12_6 H 0.353(4) 0.838(7) 0.243(10)
H13_4 H 0.363(5) 0.407(7) 0.369(8)
H15_6 H 0.41918 0.730277 0.316007
H16_6 H 0.364886 0.745658 0.358227
O1_6 O 0.38929(18) 0.6676(4) 0.9875(5)
N1_6 N 0.5953(2) 0.9125(5) 0.8507(6)
C1_6 C 0.4019(3) 0.7554(6) 0.9840(6)
C2_6 C 0.4460(3) 0.7763(5) 0.9437(6)
C3_6 C 0.4720(3) 0.7013(6) 0.9130(7)
H1_6 H 0.4612 0.6379 0.9133
C4_6 C 0.5141(3) 0.7205(6) 0.8819(8)
H2_6 H 0.5312 0.6698 0.8606
C5_6 C 0.5309(3) 0.8138(6) 0.8822(7)
C6_6 C 0.5037(3) 0.8892(7) 0.9061(8)
H3_6 H 0.5139 0.9527 0.9016
C7_6 C 0.4608(3) 0.8715(7) 0.9369(8)
H4_6 H 0.4425 0.9227 0.9526
C8_6 C 0.5778(3) 0.8294(7) 0.8559(7)
C10_6 C 0.7183(2) 0.9949(5) 0.8857(6)
C11_6 C 0.6706(3) 0.9900(5) 0.8891(7)
C12_6 C 0.6419(3) 0.9175(6) 0.8349(6)
C13_6 C 0.6610(2) 0.8566(6) 0.7701(6)
H6_6 H 0.6419 0.8110 0.7306
C14_6 C 0.7082(2) 0.8615(6) 0.7621(6)
C15_6 C 0.7371(2) 0.9281(5) 0.8224(6)
H7_6 H 0.7691 0.9288 0.8212
C16_6 C 0.7273(3) 0.7945(6) 0.6909(6)
H14_6 H 0.597(3) 0.769(6) 0.836(6)
O10_4 O 0.29246(16) 0.5506(3) 0.9713(4)
O1_7 O 0.11071(18) 0.1676(4) 0.5125(5)
O2_7 O 0.12162(19) 0.3241(4) 0.4898(5)
O7_7 O 0.1336(3) 0.2765(5) 0.2859(6)
N2_7 N 0.1479(3) 0.0779(6) 0.3171(7)
C1_7 C 0.0981(3) 0.2554(6) 0.5160(6)
C2_7 C 0.0540(3) 0.2763(5) 0.5563(6)
C3_7 C 0.0280(3) 0.2013(6) 0.5870(7)
H1_7 H 0.0388 0.1379 0.5867
C7_7 C 0.0392(3) 0.3715(7) 0.5631(8)
H4_7 H 0.0575 0.4227 0.5474
C17_7 C 0.1270(4) 0.1169(9) 0.2147(9)
C18_7 C 0.1205(4) 0.0493(8) 0.1364(9)
C20_7 C 0.1009(5) 0.0534(10) 0.0293(11)
H10_7 H 0.0689 0.0742 0.0205
C21_7 C 0.1186(5) 0.2202(11) 0.2050(13)
H12_7 H 0.147(4) 0.338(7) 0.257(10)
O12_4 O 0.19949(18) 0.2371(4) 0.6346(4)
H15_7 H 0.0808197 0.230277 0.183993
H16_7 H 0.135114 0.245658 0.141773
O6_4 O 0.80051(18) 0.2371(4) 0.8654(4)
N1_7 N 0.9047(2) 0.4125(5) 0.6493(6)
C4_7 C 0.9859(3) 0.2205(6) 0.6181(8)
H2_7 H 0.9688 0.1698 0.6394
C5_7 C 0.9691(3) 0.3138(6) 0.6178(7)
C6_7 C 0.9963(3) 0.3892(7) 0.5939(8)
H3_7 H 0.9861 0.4527 0.5984
C8_7 C 0.9222(3) 0.3294(7) 0.6441(7)
C9_7 C 0.7513(2) 0.5663(5) 0.5538(6)
C10_7 C 0.7817(2) 0.4949(5) 0.6143(6)
C11_7 C 0.8294(3) 0.4900(5) 0.6109(7)
H5_7 H 0.8424 0.5355 0.5721
C12_7 C 0.8581(3) 0.4175(6) 0.6651(6)
C13_7 C 0.8390(2) 0.3566(6) 0.7299(6)
H6_7 H 0.8581 0.3110 0.7694
C14_7 C 0.7918(2) 0.3615(6) 0.7379(6)
C15_7 C 0.7629(2) 0.4281(5) 0.6776(6)
H7_7 H 0.7309 0.4288 0.6788
C16_7 C 0.7727(3) 0.2945(6) 0.8091(6)
H14_7 H 0.903(3) 0.269(6) 0.664(6)
N1_8 N 0.0953(2) 0.4125(5) 0.8507(6)
C4_8 C 0.0141(3) 0.2205(6) 0.8819(8)
H2_8 H 0.0312 0.1698 0.8606
C5_8 C 0.0309(3) 0.3138(6) 0.8822(7)
C6_8 C 0.0037(3) 0.3892(7) 0.9061(8)
H3_8 H 0.0139 0.4527 0.9016
C8_8 C 0.0778(3) 0.3294(7) 0.8559(7)
C9_8 C 0.2487(2) 0.5663(5) 0.9462(6)
C10_8 C 0.2183(2) 0.4949(5) 0.8857(6)
C11_8 C 0.1706(3) 0.4900(5) 0.8891(7)
H5_8 H 0.1576 0.5355 0.9279
C12_8 C 0.1419(3) 0.4175(6) 0.8349(6)
C13_8 C 0.1610(2) 0.3566(6) 0.7701(6)
H6_8 H 0.1419 0.3110 0.7306
C14_8 C 0.2082(2) 0.3615(6) 0.7621(6)
C15_8 C 0.2371(2) 0.4281(5) 0.8224(6)
H7_8 H 0.2691 0.4288 0.8212
C16_8 C 0.2273(3) 0.2945(6) 0.6909(6)
H14_8 H 0.097(3) 0.269(6) 0.836(6)
O2_8 O 0.87838(19) 0.3241(4) 0.0102(5)
O7_8 O 0.8664(3) 0.2765(5) 0.2141(6)
N2_8 N 0.8521(3) 0.0779(6) 0.1829(7)
C17_8 C 0.8730(4) 0.1169(9) 0.2853(9)
C18_8 C 0.8795(4) 0.0493(8) 0.3636(9)
C20_8 C 0.8991(5) 0.0534(10) 0.4707(11)
H10_8 H 0.9311 0.0742 0.4795
H11_5 H 0.8817 0.0984 0.5045
C21_8 C 0.8814(5) 0.2202(11) 0.2950(13)
H12_8 H 0.853(4) 0.338(7) 0.243(10)
H15_8 H 0.91918 0.230277 0.316007
H16_8 H 0.864886 0.245658 0.358227
O1_8 O 0.88929(18) 0.1676(4) 0.9875(5)
C1_8 C 0.9019(3) 0.2554(6) 0.9840(6)
C2_8 C 0.9460(3) 0.2763(5) 0.9437(6)
C3_8 C 0.9720(3) 0.2013(6) 0.9130(7)
H1_8 H 0.9612 0.1379 0.9133
C7_8 C 0.9608(3) 0.3715(7) 0.9369(8)
H4_8 H 0.9425 0.4227 0.9526
H9_4 H 0.8979 0.0098 0.0009
N3_5 N 0.8618(4) 0.0341(9) 0.8160(7)
C19_5 C 0.8440(5) 0.0132(10) 0.7108(10)
H8_5 H 0.8280 0.0585 0.6647
H13_5 H 0.863(5) 0.093(7) 0.869(8)
H11_6 H 0.8817 0.9016 0.0045
N3_6 N 0.1382(4) 0.0341(9) 0.6840(7)
C19_6 C 0.1560(5) 0.0132(10) 0.7892(10)
H8_6 H 0.1720 0.0585 0.8353
H9_5 H 0.1021 0.0098 0.4991
H13_6 H 0.137(5) 0.093(7) 0.631(8)
H9_6 H 0.6021 0.4902 0.9991
H11_7 H 0.6183 0.5984 0.9955
H11_8 H 0.1183 0.0984 0.9955
N3_7 N 0.1382(4) 0.9659(9) 0.1840(7)
C19_7 C 0.1560(5) 0.9868(10) 0.2892(10)
H8_7 H 0.1720 0.9415 0.3353
H13_7 H 0.137(5) 0.907(7) 0.131(8)
H9_7 H 0.1021 0.9902 0.9991
N3_8 N 0.8618(4) 0.9659(9) 0.3160(7)
C19_8 C 0.8440(5) 0.9868(10) 0.2108(10)
H8_8 H 0.8280 0.9415 0.1647
H9_8 H 0.8979 0.9902 0.5009
H13_8 H 0.863(5) 0.907(7) 0.369(8)
loop_
_geom_bond_atom_site_label_1
_geom_bond_atom_site_label_2
_geom_bond_site_symmetry_1
_geom_bond_site_symmetry_2
Nd1 O1 1_555 1_555
O1 C1 1_555 1_555
O2 Nd1 1_555 1_555
O5 C16 1_555 1_555
O6 C16 1_555 1_555
O7 Nd1 1_555 1_555
N1 C8 1_555 1_555
N2 Nd1 1_555 1_555
N3 C18 1_555 1_555
C1 O2 1_555 1_555
C2 C1 1_555 1_555
C3 C2 1_555 1_555
H1 C3 1_555 1_555
C4 C3 1_555 1_555
H2 C4 1_555 1_555
C5 C4 1_555 1_555
C6 C5 1_555 1_555
H3 C6 1_555 1_555
C7 C2 1_555 1_555
H4 C7 1_555 1_555
C8 C5 1_555 1_555
C10 C11 1_555 1_555
C12 N1 1_555 1_555
C13 C12 1_555 1_555
H6 C13 1_555 1_555
C14 C13 1_555 1_555
C15 C10 1_555 1_555
H7 C15 1_555 1_555
C16 C14 1_555 1_555
C17 N2 1_555 1_555
C18 C17 1_555 1_555
C19 N2 1_555 1_555
H8 C19 1_555 1_555
C20 C18 1_555 1_555
H10 C20 1_555 1_555
C21 O7 1_555 1_555
H12 O7 1_555 1_555
H13 N3 1_555 1_555
H14 C8 1_555 1_555
Nd4 O5 1_555 1_555
O8 Nd1 1_555 1_555
O9 Nd1 1_555 1_555
O10 Nd1 1_555 1_555
O11 Nd1 1_555 1_555
O12 Nd1 1_555 1_555
N3 C19 1_555 1_555
C6 C7 1_555 1_555
C11 C12 1_555 1_555
C14 C15 1_555 1_555
C17 C21 1_555 1_555
C21 H15 1_555 1_555
C21 H16 1_555 1_555
O3 C9 1_555 1_555
O4 C9 1_555 1_555
Nd2 O3 1_555 1_555
Nd3 O3 1_555 1_555
O4 Nd2 1_555 1_555
O1_2 C1_2 1_555 1_555
O5_2 C16_2 1_555 1_555
O12 C16_2 1_555 1_555
N1_2 C8_2 1_555 1_555
C2_2 C1_2 1_555 1_555
C3_2 C2_2 1_555 1_555
H1_2 C3_2 1_555 1_555
C4_2 C3_2 1_555 1_555
H2_2 C4_2 1_555 1_555
C5_2 C4_2 1_555 1_555
C6_2 C5_2 1_555 1_555
H3_2 C6_2 1_555 1_555
C7_2 C2_2 1_555 1_555
H4_2 C7_2 1_555 1_555
C8_2 C5_2 1_555 1_555
C10_2 C11_2 1_555 1_555
C12_2 N1_2 1_555 1_555
C13_2 C12_2 1_555 1_555
H6_2 C13_2 1_555 1_555
C14_2 C13_2 1_555 1_555
C15_2 C10_2 1_555 1_555
H7_2 C15_2 1_555 1_555
C16_2 C14_2 1_555 1_555
H14_2 C8_2 1_555 1_555
Nd4_2 O5_2 1_555 1_555
C6_2 C7_2 1_555 1_555
C11_2 C12_2 1_555 1_555
C14_2 C15_2 1_555 1_555
O2_2 Nd5 1_555 1_555
O7_2 Nd5 1_555 1_555
N2_2 Nd5 1_555 1_555
N3_2 C18_2 1_555 1_555
C17_2 N2_2 1_555 1_555
C18_2 C17_2 1_555 1_555
C19_2 N2_2 1_555 1_555
H8_2 C19_2 1_555 1_555
C20_2 C18_2 1_555 1_555
H9_2 C20_2 1_555 1_555
H10_2 C20_2 1_555 1_555
H11_2 C20_2 1_555 1_555
C21_2 O7_2 1_555 1_555
H12_2 O7_2 1_555 1_555
H13_2 N3_2 1_555 1_555
O9_2 Nd5 1_555 1_555
O11_2 Nd5 1_555 1_555
N3_2 C19_2 1_555 1_555
C17_2 C21_2 1_555 1_555
C21_2 H15_2 1_555 1_555
C21_2 H16_2 1_555 1_555
O3_2 C9_2 1_555 1_555
O4_2 C9_2 1_555 1_555
Nd3_2 O3_2 1_555 1_555
O8 C9_3 1_555 1_555
O10 C9_3 1_555 1_555
O5_3 C16_3 1_555 1_555
O6_2 C16_3 1_555 1_555
N1_3 C8_3 1_555 1_555
H2_3 C4_3 1_555 1_555
C5_3 C4_3 1_555 1_555
C6_3 C5_3 1_555 1_555
H3_3 C6_3 1_555 1_555
C8_3 C5_3 1_555 1_555
C9_3 C10_3 1_555 1_555
C10_3 C11_3 1_555 1_555
C11_3 H5_3 1_555 1_555
C12_3 N1_3 1_555 1_555
C13_3 C12_3 1_555 1_555
H6_3 C13_3 1_555 1_555
C14_3 C13_3 1_555 1_555
C15_3 C10_3 1_555 1_555
H7_3 C15_3 1_555 1_555
C16_3 C14_3 1_555 1_555
H14_3 C8_3 1_555 1_555
Nd4_2 O8 1_555 1_555
Nd3_2 O5_3 1_555 1_555
C11_3 C12_3 1_555 1_555
C14_3 C15_3 1_555 1_555
Nd2 O1_3 1_555 1_555
O1_3 C1_3 1_555 1_555
O2_3 Nd2 1_555 1_555
O7_3 Nd2 1_555 1_555
N2_3 Nd2 1_555 1_555
C1_3 O2_3 1_555 1_555
C2_3 C1_3 1_555 1_555
C3_3 C2_3 1_555 1_555
H1_3 C3_3 1_555 1_555
C7_3 C2_3 1_555 1_555
H4_3 C7_3 1_555 1_555
C17_3 N2_3 1_555 1_555
C18_3 C17_3 1_555 1_555
C20_3 C18_3 1_555 1_555
H10_3 C20_3 1_555 1_555
C21_3 O7_3 1_555 1_555
H12_3 O7_3 1_555 1_555
O9_3 Nd2 1_555 1_555
O11_3 Nd2 1_555 1_555
O12_2 Nd2 1_555 1_555
C17_3 C21_3 1_555 1_555
C21_3 H15_3 1_555 1_555
C21_3 H16_3 1_555 1_555
O1_4 C1_4 1_555 1_555
C2_4 C1_4 1_555 1_555
C3_4 C2_4 1_555 1_555
H1_4 C3_4 1_555 1_555
C7_4 C2_4 1_555 1_555
H4_4 C7_4 1_555 1_555
O2_4 Nd2_2 1_555 1_555
O7_4 Nd2_2 1_555 1_555
N2_4 Nd2_2 1_555 1_555
C17_4 N2_4 1_555 1_555
C18_4 C17_4 1_555 1_555
C20_4 C18_4 1_555 1_555
H10_4 C20_4 1_555 1_555
H11_3 C20_4 1_555 1_555
C21_4 O7_4 1_555 1_555
H12_4 O7_4 1_555 1_555
O9_4 Nd2_2 1_555 1_555
O11_4 Nd2_2 1_555 1_555
C17_4 C21_4 1_555 1_555
C21_4 H15_4 1_555 1_555
C21_4 H16_4 1_555 1_555
O8_2 C9_4 1_555 1_555
O10_2 C9_4 1_555 1_555
O5_4 C16_4 1_555 1_555
O12_2 C16_4 1_555 1_555
N1_4 C8_4 1_555 1_555
H2_4 C4_4 1_555 1_555
C5_4 C4_4 1_555 1_555
C6_4 C5_4 1_555 1_555
H3_4 C6_4 1_555 1_555
C8_4 C5_4 1_555 1_555
C9_4 C10_4 1_555 1_555
C10_4 C11_4 1_555 1_555
C11_4 H5_4 1_555 1_555
C12_4 N1_4 1_555 1_555
C13_4 C12_4 1_555 1_555
H6_4 C13_4 1_555 1_555
C14_4 C13_4 1_555 1_555
C15_4 C10_4 1_555 1_555
H7_4 C15_4 1_555 1_555
C16_4 C14_4 1_555 1_555
H14_4 C8_4 1_555 1_555
Nd4 O8_2 1_555 1_555
Nd3 O5_4 1_555 1_555
C11_4 C12_4 1_555 1_555
C14_4 C15_4 1_555 1_555
O9 C9_5 1_555 1_555
O4_3 C9_5 1_555 1_555
Nd4_2 O9 1_555 1_555
O4_3 Nd4_2 1_555 1_555
Nd3 O1_5 1_555 1_555
O1_5 C1_5 1_555 1_555
O2_5 Nd3 1_555 1_555
O11_4 C16_5 1_555 1_555
O6_3 C16_5 1_555 1_555
O7_5 Nd3 1_555 1_555
N1_5 C8_5 1_555 1_555
N2_5 Nd3 1_555 1_555
N3_3 C18_5 1_555 1_555
C1_5 O2_5 1_555 1_555
C2_5 C1_5 1_555 1_555
C3_5 C2_5 1_555 1_555
H1_5 C3_5 1_555 1_555
C4_5 C3_5 1_555 1_555
H2_5 C4_5 1_555 1_555
C5_5 C4_5 1_555 1_555
C6_5 C5_5 1_555 1_555
H3_5 C6_5 1_555 1_555
C7_5 C2_5 1_555 1_555
H4_5 C7_5 1_555 1_555
C8_5 C5_5 1_555 1_555
C10_5 C11_5 1_555 1_555
C12_5 N1_5 1_555 1_555
C13_5 C12_5 1_555 1_555
H6_5 C13_5 1_555 1_555
C14_5 C13_5 1_555 1_555
C15_5 C10_5 1_555 1_555
H7_5 C15_5 1_555 1_555
C16_5 C14_5 1_555 1_555
C17_5 N2_5 1_555 1_555
C18_5 C17_5 1_555 1_555
C19_3 N2_5 1_555 1_555
H8_3 C19_3 1_555 1_555
C20_5 C18_5 1_555 1_555
H10_5 C20_5 1_555 1_555
C21_5 O7_5 1_555 1_555
H12_5 O7_5 1_555 1_555
H13_3 N3_3 1_555 1_555
H14_5 C8_5 1_555 1_555
O9_3 Nd3 1_555 1_555
O10_3 Nd3 1_555 1_555
O12_3 Nd3 1_555 1_555
N3_3 C19_3 1_555 1_555
C6_5 C7_5 1_555 1_555
C11_5 C12_5 1_555 1_555
C14_5 C15_5 1_555 1_555
C17_5 C21_5 1_555 1_555
C21_5 H15_5 1_555 1_555
C21_5 H16_5 1_555 1_555
O9_2 C9_6 1_555 1_555
O4_4 C9_6 1_555 1_555
O2_6 Nd3_2 1_555 1_555
O7_6 Nd3_2 1_555 1_555
N2_6 Nd3_2 1_555 1_555
N3_4 C18_6 1_555 1_555
C17_6 N2_6 1_555 1_555
C18_6 C17_6 1_555 1_555
C19_4 N2_6 1_555 1_555
H8_4 C19_4 1_555 1_555
C20_6 C18_6 1_555 1_555
H9_3 C20_6 1_555 1_555
H10_6 C20_6 1_555 1_555
H11_4 C20_6 1_555 1_555
C21_6 O7_6 1_555 1_555
H12_6 O7_6 1_555 1_555
H13_4 N3_4 1_555 1_555
N3_4 C19_4 1_555 1_555
C17_6 C21_6 1_555 1_555
C21_6 H15_6 1_555 1_555
C21_6 H16_6 1_555 1_555
O1_6 C1_6 1_555 1_555
O11_3 C16_6 1_555 1_555
O12_3 C16_6 1_555 1_555
N1_6 C8_6 1_555 1_555
C2_6 C1_6 1_555 1_555
C3_6 C2_6 1_555 1_555
H1_6 C3_6 1_555 1_555
C4_6 C3_6 1_555 1_555
H2_6 C4_6 1_555 1_555
C5_6 C4_6 1_555 1_555
C6_6 C5_6 1_555 1_555
H3_6 C6_6 1_555 1_555
C7_6 C2_6 1_555 1_555
H4_6 C7_6 1_555 1_555
C8_6 C5_6 1_555 1_555
C10_6 C11_6 1_555 1_555
C12_6 N1_6 1_555 1_555
C13_6 C12_6 1_555 1_555
H6_6 C13_6 1_555 1_555
C14_6 C13_6 1_555 1_555
C15_6 C10_6 1_555 1_555
H7_6 C15_6 1_555 1_555
C16_6 C14_6 1_555 1_555
H14_6 C8_6 1_555 1_555
C6_6 C7_6 1_555 1_555
C11_6 C12_6 1_555 1_555
C14_6 C15_6 1_555 1_555
Nd4_2 O1_7 1_555 1_555
O1_7 C1_7 1_555 1_555
O2_7 Nd4_2 1_555 1_555
O7_7 Nd4_2 1_555 1_555
N2_7 Nd4_2 1_555 1_555
C1_7 O2_7 1_555 1_555
C2_7 C1_7 1_555 1_555
C3_7 C2_7 1_555 1_555
H1_7 C3_7 1_555 1_555
C7_7 C2_7 1_555 1_555
H4_7 C7_7 1_555 1_555
C17_7 N2_7 1_555 1_555
C18_7 C17_7 1_555 1_555
C20_7 C18_7 1_555 1_555
H10_7 C20_7 1_555 1_555
C21_7 O7_7 1_555 1_555
H12_7 O7_7 1_555 1_555
O12_4 Nd4_2 1_555 1_555
C17_7 C21_7 1_555 1_555
C21_7 H15_7 1_555 1_555
C21_7 H16_7 1_555 1_555
O9_3 C9_7 1_555 1_555
O10_3 C9_7 1_555 1_555
O11_2 C16_7 1_555 1_555
O6_4 C16_7 1_555 1_555
N1_7 C8_7 1_555 1_555
H2_7 C4_7 1_555 1_555
C5_7 C4_7 1_555 1_555
C6_7 C5_7 1_555 1_555
H3_7 C6_7 1_555 1_555
C8_7 C5_7 1_555 1_555
C9_7 C10_7 1_555 1_555
C10_7 C11_7 1_555 1_555
C11_7 H5_7 1_555 1_555
C12_7 N1_7 1_555 1_555
C13_7 C12_7 1_555 1_555
H6_7 C13_7 1_555 1_555
C14_7 C13_7 1_555 1_555
C15_7 C10_7 1_555 1_555
H7_7 C15_7 1_555 1_555
C16_7 C14_7 1_555 1_555
H14_7 C8_7 1_555 1_555
C11_7 C12_7 1_555 1_555
C14_7 C15_7 1_555 1_555
O9_4 C9_8 1_555 1_555
O10_4 C9_8 1_555 1_555
O11 C16_8 1_555 1_555
O12_4 C16_8 1_555 1_555
N1_8 C8_8 1_555 1_555
H2_8 C4_8 1_555 1_555
C5_8 C4_8 1_555 1_555
C6_8 C5_8 1_555 1_555
H3_8 C6_8 1_555 1_555
C8_8 C5_8 1_555 1_555
C9_8 C10_8 1_555 1_555
C10_8 C11_8 1_555 1_555
C11_8 H5_8 1_555 1_555
C12_8 N1_8 1_555 1_555
C13_8 C12_8 1_555 1_555
H6_8 C13_8 1_555 1_555
C14_8 C13_8 1_555 1_555
C15_8 C10_8 1_555 1_555
H7_8 C15_8 1_555 1_555
C16_8 C14_8 1_555 1_555
H14_8 C8_8 1_555 1_555
C11_8 C12_8 1_555 1_555
C14_8 C15_8 1_555 1_555
O2_8 Nd4 1_555 1_555
O7_8 Nd4 1_555 1_555
N2_8 Nd4 1_555 1_555
C17_8 N2_8 1_555 1_555
C18_8 C17_8 1_555 1_555
C20_8 C18_8 1_555 1_555
H10_8 C20_8 1_555 1_555
H11_5 C20_8 1_555 1_555
C21_8 O7_8 1_555 1_555
H12_8 O7_8 1_555 1_555
C17_8 C21_8 1_555 1_555
C21_8 H15_8 1_555 1_555
C21_8 H16_8 1_555 1_555
O1_8 C1_8 1_555 1_555
C2_8 C1_8 1_555 1_555
C3_8 C2_8 1_555 1_555
H1_8 C3_8 1_555 1_555
C7_8 C2_8 1_555 1_555
H4_8 C7_8 1_555 1_555
H8_5 C19_5 1_555 1_555
H13_5 N3_5 1_555 1_555
N3_5 C19_5 1_555 1_555
H8_6 C19_6 1_555 1_555
H13_6 N3_6 1_555 1_555
N3_6 C19_6 1_555 1_555
H8_7 C19_7 1_555 1_555
H13_7 N3_7 1_555 1_555
N3_7 C19_7 1_555 1_555
H8_8 C19_8 1_555 1_555
H13_8 N3_8 1_555 1_555
N3_8 C19_8 1_555 1_555

#END
