
###############################################################################
#
# This file contains modified crystal structure data generated from the
# MOF subset of the Cambridge Structural Database (CSD) v543 
# hosted by the Cambridge Crystallographic Data Centre (CCDC).
#
# This work is licensed under the Creative Commons
# Attribution-NonCommercial-ShareAlike 4.0 International License.
# To view a copy of this license, visit
# http://creativecommons.org/licenses/by-nc-sa/4.0/
# or send a letter to
# Creative Commons, PO Box 1866, Mountain View, CA 94042, USA.
#
# CIF created using the CSD Python API on 29 September 2022
# The structure has been converted into the P1 space group
# The structure has a 3D framework
# The original CSD entry GEDXOF is in the cubic crystal system
# The framework has been calculated to contain at least 10.0% void space
# The void calculation uses a probe of radius 1.32A, grid spacing 0.4
#
###############################################################################

data_GEDXOF
_chemical_formula_moiety         '(C1152 H384 F192 O228 Zr32)n'
_symmetry_cell_setting           triclinic
_symmetry_space_group_name_H-M   'P 1'
_symmetry_Int_Tables_number      1
_space_group_name_Hall           'P 1'
loop_
_symmetry_equiv_pos_site_id
_symmetry_equiv_pos_as_xyz
1 x,y,z
_cell_length_a                   39.8334(2)
_cell_length_b                   39.8334(2)
_cell_length_c                   39.8334(2)
_cell_angle_alpha                90
_cell_angle_beta                 90
_cell_angle_gamma                90
_cell_volume                     63203.6
loop_
_atom_site_label
_atom_site_type_symbol
_atom_site_fract_x
_atom_site_fract_y
_atom_site_fract_z
O11 O 0.03573(6) 0.12447(6) 0.07645(6)
C37 C 0.04633(8) 0.12224(13) 0.04633(8)
C38 C 0.01976(8) 0.11747(14) 0.01976(8)
O12 O 0.07645(6) 0.12447(6) 0.03573(6)
Zr5 Zr 0.1250 0.1250 0.06292(2)
Zr7 Zr 0.06292(2) 0.1250 0.1250
C39 C 0.02927(11) 0.11503(14) 0.98655(10)
H13 H 0.0518 0.1170 0.9807
C40 C 0.00544(13) 0.1098(2) 0.96220(11)
H14 H 0.0117 0.1081 0.9398
O5 O 0.62447(6) 0.57645(6) 0.03573(6)
C13 C 0.62224(13) 0.54633(8) 0.04633(8)
C14 C 0.61747(14) 0.51976(8) 0.01976(8)
C15 C 0.61503(14) 0.48655(10) 0.02927(11)
H5 H 0.6170 0.4807 0.0518
C16 C 0.6098(2) 0.46220(11) 0.00544(13)
H6 H 0.6081 0.4398 0.0117
O6 O 0.62447(6) 0.53573(6) 0.07645(6)
C46 C 0.98655(10) 0.11503(14) 0.02927(11)
H15 H 0.9807 0.1170 0.0518
C47 C 0.96220(11) 0.1098(2) 0.00544(13)
H16 H 0.9398 0.1081 0.0117
Zr9 Zr 0.6250 0.6250 0.06292(2)
Zr12 Zr 0.6250 0.56292(2) 0.1250
Zr1 Zr 0.6250 0.18708(2) 0.6250
F1 F 0.59194(16) 0.30973(10) 0.89238(12)
O1 O 0.62447(6) 0.21427(6) 0.67355(6)
O2 O 0.59247(15) 0.15753(15) 0.59247(15)
O3 O 0.65451(14) 0.15451(14) 0.59549(14)
C1 C 0.62224(13) 0.20367(8) 0.70367(8)
C2 C 0.61747(14) 0.23024(8) 0.73024(8)
C3 C 0.61503(14) 0.22073(11) 0.76345(10)
H1 H 0.6170 0.1982 0.7693
C4 C 0.6098(2) 0.24456(13) 0.78780(11)
H2 H 0.6081 0.2383 0.8102
C5 C 0.6069(3) 0.27851(11) 0.77851(11)
C6 C 0.6014(3) 0.30389(11) 0.80389(11)
C7 C 0.5969(3) 0.32492(13) 0.82492(13)
C8 C 0.5937(3) 0.35033(13) 0.85033(13)
C9 C 0.59283(18) 0.34279(14) 0.88342(15)
F2 F 0.59194(16) 0.39238(12) 0.80973(10)
O4 O 0.62447(6) 0.17355(6) 0.71427(6)
C10 C 0.61503(14) 0.26345(10) 0.72073(11)
H3 H 0.6170 0.2693 0.6982
C11 C 0.6098(2) 0.28780(11) 0.74456(13)
H4 H 0.6081 0.3102 0.7383
C12 C 0.59283(18) 0.38342(15) 0.84279(14)
F3 F 0.59194(16) 0.35762(12) 0.94027(10)
C17 C 0.6069(3) 0.47149(11) 0.97149(11)
C18 C 0.6014(3) 0.44611(11) 0.94611(11)
C19 C 0.5969(3) 0.42508(13) 0.92508(13)
C20 C 0.5937(3) 0.39967(13) 0.89967(13)
C21 C 0.59283(18) 0.36658(15) 0.90721(14)
F4 F 0.59194(16) 0.44027(10) 0.85762(12)
C22 C 0.61503(14) 0.52927(11) 0.98655(10)
H7 H 0.6170 0.5518 0.9807
C23 C 0.6098(2) 0.50544(13) 0.96220(11)
H8 H 0.6081 0.5117 0.9398
C24 C 0.59283(18) 0.40721(14) 0.86658(15)
Zr2 Zr 0.6250 0.1250 0.56292(2)
O7 O 0.65753(15) 0.09247(15) 0.59247(15)
Zr3 Zr 0.68708(2) 0.1250 0.6250
O8 O 0.59549(14) 0.15451(14) 0.65451(14)
F5 F 0.89238(12) 0.09194(16) 0.80973(10)
O9 O 0.67355(6) 0.12447(6) 0.71427(6)
C25 C 0.70367(8) 0.12224(13) 0.70367(8)
C26 C 0.73024(8) 0.11747(14) 0.73024(8)
C27 C 0.76345(10) 0.11503(14) 0.72073(11)
H9 H 0.7693 0.1170 0.6982
C28 C 0.78780(11) 0.1098(2) 0.74456(13)
H10 H 0.8102 0.1081 0.7383
C29 C 0.77851(11) 0.1069(3) 0.77851(11)
C30 C 0.80389(11) 0.1014(3) 0.80389(11)
C31 C 0.82492(13) 0.0969(3) 0.82492(13)
C32 C 0.85033(13) 0.0937(3) 0.85033(13)
C33 C 0.88342(15) 0.09283(18) 0.84279(14)
F6 F 0.80973(10) 0.09194(16) 0.89238(12)
O10 O 0.71427(6) 0.12447(6) 0.67355(6)
C34 C 0.72073(11) 0.11503(14) 0.76345(10)
H11 H 0.6982 0.1170 0.7693
C35 C 0.74456(13) 0.1098(2) 0.78780(11)
H12 H 0.7383 0.1081 0.8102
C36 C 0.84279(14) 0.09283(18) 0.88342(15)
F7 F 0.94027(10) 0.09194(16) 0.85762(12)
C41 C 0.97149(11) 0.1069(3) 0.97149(11)
C42 C 0.94611(11) 0.1014(3) 0.94611(11)
C43 C 0.92508(13) 0.0969(3) 0.92508(13)
C44 C 0.89967(13) 0.0937(3) 0.89967(13)
C45 C 0.90721(14) 0.09283(18) 0.86658(15)
F8 F 0.85762(12) 0.09194(16) 0.94027(10)
C48 C 0.86658(15) 0.09283(18) 0.90721(14)
F9 F 0.44027(10) 0.39238(12) 0.65806(16)
O13 O 0.53573(6) 0.17355(6) 0.62553(6)
C49 C 0.54633(8) 0.20367(8) 0.62776(13)
C50 C 0.51976(8) 0.23024(8) 0.63253(14)
C51 C 0.52927(11) 0.26345(10) 0.63497(14)
H17 H 0.5518 0.2693 0.6330
C52 C 0.50544(13) 0.28780(11) 0.6402(2)
H18 H 0.5117 0.3102 0.6419
C53 C 0.47149(11) 0.27851(11) 0.6431(3)
C54 C 0.44611(11) 0.30389(11) 0.6486(3)
C55 C 0.42508(13) 0.32492(13) 0.6531(3)
C56 C 0.39967(13) 0.35033(13) 0.6563(3)
C57 C 0.40721(14) 0.38342(15) 0.65717(18)
F10 F 0.35762(12) 0.30973(10) 0.65806(16)
O14 O 0.57645(6) 0.21427(6) 0.62553(6)
C58 C 0.48655(10) 0.22073(11) 0.63497(14)
H19 H 0.4807 0.1982 0.6330
C59 C 0.46220(11) 0.24456(13) 0.6402(2)
H20 H 0.4398 0.2383 0.6419
C60 C 0.36658(15) 0.34279(14) 0.65717(18)
F11 F 0.39238(12) 0.44027(10) 0.65806(16)
O15 O 0.17355(6) 0.53573(6) 0.62553(6)
C61 C 0.20367(8) 0.54633(8) 0.62776(13)
C62 C 0.23024(8) 0.51976(8) 0.63253(14)
C63 C 0.26345(10) 0.52927(11) 0.63497(14)
H21 H 0.2693 0.5518 0.6330
C64 C 0.28780(11) 0.50544(13) 0.6402(2)
H22 H 0.3102 0.5117 0.6419
C65 C 0.27851(11) 0.47149(11) 0.6431(3)
C66 C 0.30389(11) 0.44611(11) 0.6486(3)
C67 C 0.32492(13) 0.42508(13) 0.6531(3)
C68 C 0.35033(13) 0.39967(13) 0.6563(3)
C69 C 0.38342(15) 0.40721(14) 0.65717(18)
F12 F 0.30973(10) 0.35762(12) 0.65806(16)
O16 O 0.21427(6) 0.57645(6) 0.62553(6)
C70 C 0.22073(11) 0.48655(10) 0.63497(14)
H23 H 0.1982 0.4807 0.6330
C71 C 0.24456(13) 0.46220(11) 0.6402(2)
H24 H 0.2383 0.4398 0.6419
C72 C 0.34279(14) 0.36658(15) 0.65717(18)
Zr4 Zr 0.1250 0.56292(2) 0.6250
Zr6 Zr 0.18708(2) 0.6250 0.6250
Zr8 Zr 0.6250 0.1250 0.68708(2)
Zr10 Zr 0.56292(2) 0.1250 0.6250
Zr11 Zr 0.6250 0.06292(2) 0.6250
O17 O 0.57645(6) 0.12447(6) 0.53573(6)
O18 O 0.71427(6) 0.07645(6) 0.62553(6)
O19 O 0.62553(6) 0.21427(6) 0.57645(6)
O20 O 0.67355(6) 0.12553(6) 0.53573(6)
O21 O 0.71427(6) 0.17355(6) 0.62447(6)
O22 O 0.67355(6) 0.21427(6) 0.62447(6)
O23 O 0.71427(6) 0.12553(6) 0.57645(6)
O24 O 0.62553(6) 0.17355(6) 0.53573(6)
O25 O 0.62447(6) 0.07645(6) 0.53573(6)
O26 O 0.65753(15) 0.15753(15) 0.65753(15)
O27 O 0.59549(14) 0.09549(14) 0.59549(14)
O28 O 0.65451(14) 0.09549(14) 0.65451(14)
Zr1_2 Zr 0.1250 0.06292(2) 0.1250
O1_2 O 0.12553(6) 0.03573(6) 0.17355(6)
O2_2 O 0.15753(15) 0.09247(15) 0.09247(15)
O3_2 O 0.09549(14) 0.09549(14) 0.09549(14)
C1_2 C 0.12776(13) 0.04633(8) 0.20367(8)
C2_2 C 0.13253(14) 0.01976(8) 0.23024(8)
C3_2 C 0.13497(14) 0.02927(11) 0.26345(10)
H1_2 H 0.1330 0.0518 0.2693
C4_2 C 0.1402(2) 0.00544(13) 0.28780(11)
H2_2 H 0.1419 0.0117 0.3102
O4_2 O 0.12553(6) 0.07645(6) 0.21427(6)
O7_2 O 0.09247(15) 0.15753(15) 0.09247(15)
O8_2 O 0.15451(14) 0.09549(14) 0.15451(14)
O9_2 O 0.07645(6) 0.12553(6) 0.21427(6)
C25_2 C 0.04633(8) 0.12776(13) 0.20367(8)
C26_2 C 0.01976(8) 0.13253(14) 0.23024(8)
O10_2 O 0.03573(6) 0.12553(6) 0.17355(6)
C34_2 C 0.02927(11) 0.13497(14) 0.26345(10)
H11_2 H 0.0518 0.1330 0.2693
C35_2 C 0.00544(13) 0.1402(2) 0.28780(11)
H12_2 H 0.0117 0.1419 0.3102
O13_2 O 0.21427(6) 0.07645(6) 0.12553(6)
C49_2 C 0.20367(8) 0.04633(8) 0.12776(13)
C50_2 C 0.23024(8) 0.01976(8) 0.13253(14)
O14_2 O 0.17355(6) 0.03573(6) 0.12553(6)
C58_2 C 0.26345(10) 0.02927(11) 0.13497(14)
H19_2 H 0.2693 0.0518 0.1330
C59_2 C 0.28780(11) 0.00544(13) 0.1402(2)
H20_2 H 0.3102 0.0117 0.1419
Zr8_2 Zr 0.1250 0.1250 0.18708(2)
Zr10_2 Zr 0.18708(2) 0.1250 0.1250
Zr11_2 Zr 0.1250 0.18708(2) 0.1250
O17_2 O 0.17355(6) 0.12553(6) 0.03573(6)
O18_2 O 0.03573(6) 0.17355(6) 0.12553(6)
O19_2 O 0.12447(6) 0.03573(6) 0.07645(6)
O21_2 O 0.03573(6) 0.07645(6) 0.12447(6)
O22_2 O 0.07645(6) 0.03573(6) 0.12447(6)
O24_2 O 0.12447(6) 0.07645(6) 0.03573(6)
O25_2 O 0.12553(6) 0.17355(6) 0.03573(6)
O26_2 O 0.09247(15) 0.09247(15) 0.15753(15)
O27_2 O 0.15451(14) 0.15451(14) 0.09549(14)
O28_2 O 0.09549(14) 0.15451(14) 0.15451(14)
F1_2 F 0.15806(16) 0.94027(10) 0.39238(12)
C5_2 C 0.1431(3) 0.97149(11) 0.27851(11)
C6_2 C 0.1486(3) 0.94611(11) 0.30389(11)
C7_2 C 0.1531(3) 0.92508(13) 0.32492(13)
C8_2 C 0.1563(3) 0.89967(13) 0.35033(13)
C9_2 C 0.15717(18) 0.90721(14) 0.38342(15)
F2_2 F 0.15806(16) 0.85762(12) 0.30973(10)
C10_2 C 0.13497(14) 0.98655(10) 0.22073(11)
H3_2 H 0.1330 0.9807 0.1982
C11_2 C 0.1402(2) 0.96220(11) 0.24456(13)
H4_2 H 0.1419 0.9398 0.2383
C12_2 C 0.15717(18) 0.86658(15) 0.34279(14)
F3_2 F 0.15806(16) 0.89238(12) 0.44027(10)
O5_2 O 0.12553(6) 0.67355(6) 0.53573(6)
C13_2 C 0.12776(13) 0.70367(8) 0.54633(8)
C14_2 C 0.13253(14) 0.73024(8) 0.51976(8)
C15_2 C 0.13497(14) 0.76345(10) 0.52927(11)
H5_2 H 0.1330 0.7693 0.5518
C16_2 C 0.1402(2) 0.78780(11) 0.50544(13)
H6_2 H 0.1419 0.8102 0.5117
C17_2 C 0.1431(3) 0.77851(11) 0.47149(11)
C18_2 C 0.1486(3) 0.80389(11) 0.44611(11)
C19_2 C 0.1531(3) 0.82492(13) 0.42508(13)
C20_2 C 0.1563(3) 0.85033(13) 0.39967(13)
C21_2 C 0.15717(18) 0.88342(15) 0.40721(14)
F4_2 F 0.15806(16) 0.80973(10) 0.35762(12)
O6_2 O 0.12553(6) 0.71427(6) 0.57645(6)
C22_2 C 0.13497(14) 0.72073(11) 0.48655(10)
H7_2 H 0.1330 0.6982 0.4807
C23_2 C 0.1402(2) 0.74456(13) 0.46220(11)
H8_2 H 0.1419 0.7383 0.4398
C24_2 C 0.15717(18) 0.84279(14) 0.36658(15)
F9_2 F 0.30973(10) 0.85762(12) 0.15806(16)
C51_2 C 0.22073(11) 0.98655(10) 0.13497(14)
H17_2 H 0.1982 0.9807 0.1330
C52_2 C 0.24456(13) 0.96220(11) 0.1402(2)
H18_2 H 0.2383 0.9398 0.1419
C53_2 C 0.27851(11) 0.97149(11) 0.1431(3)
C54_2 C 0.30389(11) 0.94611(11) 0.1486(3)
C55_2 C 0.32492(13) 0.92508(13) 0.1531(3)
C56_2 C 0.35033(13) 0.89967(13) 0.1563(3)
C57_2 C 0.34279(14) 0.86658(15) 0.15717(18)
F10_2 F 0.39238(12) 0.94027(10) 0.15806(16)
C60_2 C 0.38342(15) 0.90721(14) 0.15717(18)
F11_2 F 0.35762(12) 0.80973(10) 0.15806(16)
O15_2 O 0.57645(6) 0.71427(6) 0.12553(6)
C61_2 C 0.54633(8) 0.70367(8) 0.12776(13)
C62_2 C 0.51976(8) 0.73024(8) 0.13253(14)
C63_2 C 0.48655(10) 0.72073(11) 0.13497(14)
H21_2 H 0.4807 0.6982 0.1330
C64_2 C 0.46220(11) 0.74456(13) 0.1402(2)
H22_2 H 0.4398 0.7383 0.1419
C65_2 C 0.47149(11) 0.77851(11) 0.1431(3)
C66_2 C 0.44611(11) 0.80389(11) 0.1486(3)
C67_2 C 0.42508(13) 0.82492(13) 0.1531(3)
C68_2 C 0.39967(13) 0.85033(13) 0.1563(3)
C69_2 C 0.36658(15) 0.84279(14) 0.15717(18)
F12_2 F 0.44027(10) 0.89238(12) 0.15806(16)
O16_2 O 0.53573(6) 0.67355(6) 0.12553(6)
C70_2 C 0.52927(11) 0.76345(10) 0.13497(14)
H23_2 H 0.5518 0.7693 0.1330
C71_2 C 0.50544(13) 0.78780(11) 0.1402(2)
H24_2 H 0.5117 0.8102 0.1419
C72_2 C 0.40721(14) 0.88342(15) 0.15717(18)
Zr4_2 Zr 0.6250 0.68708(2) 0.1250
Zr6_2 Zr 0.56292(2) 0.6250 0.1250
Zr9_2 Zr 0.1250 0.6250 0.56292(2)
Zr12_2 Zr 0.1250 0.68708(2) 0.6250
F5_2 F 0.85762(12) 0.15806(16) 0.30973(10)
C27_2 C 0.98655(10) 0.13497(14) 0.22073(11)
H9_2 H 0.9807 0.1330 0.1982
C28_2 C 0.96220(11) 0.1402(2) 0.24456(13)
H10_2 H 0.9398 0.1419 0.2383
C29_2 C 0.97149(11) 0.1431(3) 0.27851(11)
C30_2 C 0.94611(11) 0.1486(3) 0.30389(11)
C31_2 C 0.92508(13) 0.1531(3) 0.32492(13)
C32_2 C 0.89967(13) 0.1563(3) 0.35033(13)
C33_2 C 0.86658(15) 0.15717(18) 0.34279(14)
F6_2 F 0.94027(10) 0.15806(16) 0.39238(12)
C36_2 C 0.90721(14) 0.15717(18) 0.38342(15)
F7_2 F 0.80973(10) 0.15806(16) 0.35762(12)
C37_2 C 0.70367(8) 0.12776(13) 0.54633(8)
C38_2 C 0.73024(8) 0.13253(14) 0.51976(8)
C39_2 C 0.72073(11) 0.13497(14) 0.48655(10)
H13_2 H 0.6982 0.1330 0.4807
C40_2 C 0.74456(13) 0.1402(2) 0.46220(11)
H14_2 H 0.7383 0.1419 0.4398
C41_2 C 0.77851(11) 0.1431(3) 0.47149(11)
C42_2 C 0.80389(11) 0.1486(3) 0.44611(11)
C43_2 C 0.82492(13) 0.1531(3) 0.42508(13)
C44_2 C 0.85033(13) 0.1563(3) 0.39967(13)
C45_2 C 0.84279(14) 0.15717(18) 0.36658(15)
F8_2 F 0.89238(12) 0.15806(16) 0.44027(10)
C46_2 C 0.76345(10) 0.13497(14) 0.52927(11)
H15_2 H 0.7693 0.1330 0.5518
C47_2 C 0.78780(11) 0.1402(2) 0.50544(13)
H16_2 H 0.8102 0.1419 0.5117
C48_2 C 0.88342(15) 0.15717(18) 0.40721(14)
C61_3 C 0.04633(8) 0.04633(8) 0.12224(13)
C62_3 C 0.01976(8) 0.01976(8) 0.11747(14)
C70_3 C 0.02927(11) 0.98655(10) 0.11503(14)
H23_3 H 0.0518 0.9807 0.1170
C71_3 C 0.00544(13) 0.96220(11) 0.1098(2)
H24_3 H 0.0117 0.9398 0.1081
C63_3 C 0.98655(10) 0.02927(11) 0.11503(14)
H21_3 H 0.9807 0.0518 0.1170
C64_3 C 0.96220(11) 0.00544(13) 0.1098(2)
H22_3 H 0.9398 0.0117 0.1081
O5_3 O 0.62553(6) 0.07645(6) 0.71427(6)
C13_3 C 0.62776(13) 0.04633(8) 0.70367(8)
C14_3 C 0.63253(14) 0.01976(8) 0.73024(8)
O6_3 O 0.62553(6) 0.03573(6) 0.67355(6)
C22_3 C 0.63497(14) 0.02927(11) 0.76345(10)
H7_3 H 0.6330 0.0518 0.7693
C23_3 C 0.6402(2) 0.00544(13) 0.78780(11)
H8_3 H 0.6419 0.0117 0.8102
O1_3 O 0.62553(6) 0.71427(6) 0.07645(6)
O2_3 O 0.65753(15) 0.65753(15) 0.15753(15)
O3_3 O 0.59549(14) 0.65451(14) 0.15451(14)
C1_3 C 0.62776(13) 0.70367(8) 0.04633(8)
C2_3 C 0.63253(14) 0.73024(8) 0.01976(8)
O4_3 O 0.62553(6) 0.67355(6) 0.03573(6)
C10_3 C 0.63497(14) 0.76345(10) 0.02927(11)
H3_3 H 0.6330 0.7693 0.0518
C11_3 C 0.6402(2) 0.78780(11) 0.00544(13)
H4_3 H 0.6419 0.8102 0.0117
Zr2_2 Zr 0.6250 0.6250 0.18708(2)
O7_3 O 0.59247(15) 0.59247(15) 0.15753(15)
O8_3 O 0.65451(14) 0.65451(14) 0.09549(14)
O9_3 O 0.57645(6) 0.62447(6) 0.03573(6)
C25_3 C 0.54633(8) 0.62224(13) 0.04633(8)
C26_3 C 0.51976(8) 0.61747(14) 0.01976(8)
C27_3 C 0.48655(10) 0.61503(14) 0.02927(11)
H9_3 H 0.4807 0.6170 0.0518
C28_3 C 0.46220(11) 0.6098(2) 0.00544(13)
H10_3 H 0.4398 0.6081 0.0117
O10_3 O 0.53573(6) 0.62447(6) 0.07645(6)
F9_3 F 0.80973(10) 0.89238(12) 0.09194(16)
O13_3 O 0.71427(6) 0.67355(6) 0.12447(6)
C49_3 C 0.70367(8) 0.70367(8) 0.12224(13)
C50_3 C 0.73024(8) 0.73024(8) 0.11747(14)
C51_3 C 0.72073(11) 0.76345(10) 0.11503(14)
H17_3 H 0.6982 0.7693 0.1170
C52_3 C 0.74456(13) 0.78780(11) 0.1098(2)
H18_3 H 0.7383 0.8102 0.1081
C53_3 C 0.77851(11) 0.77851(11) 0.1069(3)
C54_3 C 0.80389(11) 0.80389(11) 0.1014(3)
C55_3 C 0.82492(13) 0.82492(13) 0.0969(3)
C56_3 C 0.85033(13) 0.85033(13) 0.0937(3)
C57_3 C 0.84279(14) 0.88342(15) 0.09283(18)
F10_3 F 0.89238(12) 0.80973(10) 0.09194(16)
O14_3 O 0.67355(6) 0.71427(6) 0.12447(6)
C58_3 C 0.76345(10) 0.72073(11) 0.11503(14)
H19_3 H 0.7693 0.6982 0.1170
C59_3 C 0.78780(11) 0.74456(13) 0.1098(2)
H20_3 H 0.8102 0.7383 0.1081
C60_3 C 0.88342(15) 0.84279(14) 0.09283(18)
F11_3 F 0.85762(12) 0.94027(10) 0.09194(16)
C65_3 C 0.97149(11) 0.97149(11) 0.1069(3)
C66_3 C 0.94611(11) 0.94611(11) 0.1014(3)
C67_3 C 0.92508(13) 0.92508(13) 0.0969(3)
C68_3 C 0.89967(13) 0.89967(13) 0.0937(3)
C69_3 C 0.86658(15) 0.90721(14) 0.09283(18)
F12_3 F 0.94027(10) 0.85762(12) 0.09194(16)
C72_3 C 0.90721(14) 0.86658(15) 0.09283(18)
Zr10_3 Zr 0.68708(2) 0.6250 0.1250
O17_3 O 0.67355(6) 0.62447(6) 0.21427(6)
O18_3 O 0.53573(6) 0.57645(6) 0.12447(6)
O19_3 O 0.62447(6) 0.71427(6) 0.17355(6)
O20_2 O 0.57645(6) 0.62553(6) 0.21427(6)
O23_2 O 0.53573(6) 0.62553(6) 0.17355(6)
O24_3 O 0.62447(6) 0.67355(6) 0.21427(6)
O25_3 O 0.62553(6) 0.57645(6) 0.21427(6)
O26_3 O 0.59247(15) 0.65753(15) 0.09247(15)
O27_3 O 0.65451(14) 0.59549(14) 0.15451(14)
O28_3 O 0.59549(14) 0.59549(14) 0.09549(14)
F1_3 F 0.65806(16) 0.80973(10) 0.85762(12)
C3_3 C 0.63497(14) 0.72073(11) 0.98655(10)
H1_3 H 0.6330 0.6982 0.9807
C4_3 C 0.6402(2) 0.74456(13) 0.96220(11)
H2_3 H 0.6419 0.7383 0.9398
C5_3 C 0.6431(3) 0.77851(11) 0.97149(11)
C6_3 C 0.6486(3) 0.80389(11) 0.94611(11)
C7_3 C 0.6531(3) 0.82492(13) 0.92508(13)
C8_3 C 0.6563(3) 0.85033(13) 0.89967(13)
C9_3 C 0.65717(18) 0.84279(14) 0.86658(15)
F2_3 F 0.65806(16) 0.89238(12) 0.94027(10)
C12_3 C 0.65717(18) 0.88342(15) 0.90721(14)
F3_3 F 0.65806(16) 0.85762(12) 0.80973(10)
C15_3 C 0.63497(14) 0.98655(10) 0.72073(11)
H5_3 H 0.6330 0.9807 0.6982
C16_3 C 0.6402(2) 0.96220(11) 0.74456(13)
H6_3 H 0.6419 0.9398 0.7383
C17_3 C 0.6431(3) 0.97149(11) 0.77851(11)
C18_3 C 0.6486(3) 0.94611(11) 0.80389(11)
C19_3 C 0.6531(3) 0.92508(13) 0.82492(13)
C20_3 C 0.6563(3) 0.89967(13) 0.85033(13)
C21_3 C 0.65717(18) 0.86658(15) 0.84279(14)
F4_3 F 0.65806(16) 0.94027(10) 0.89238(12)
C24_3 C 0.65717(18) 0.90721(14) 0.88342(15)
F5_3 F 0.35762(12) 0.59194(16) 0.94027(10)
C29_3 C 0.47149(11) 0.6069(3) 0.97149(11)
C30_3 C 0.44611(11) 0.6014(3) 0.94611(11)
C31_3 C 0.42508(13) 0.5969(3) 0.92508(13)
C32_3 C 0.39967(13) 0.5937(3) 0.89967(13)
C33_3 C 0.36658(15) 0.59283(18) 0.90721(14)
F6_3 F 0.44027(10) 0.59194(16) 0.85762(12)
C34_3 C 0.52927(11) 0.61503(14) 0.98655(10)
H11_3 H 0.5518 0.6170 0.9807
C35_3 C 0.50544(13) 0.6098(2) 0.96220(11)
H12_3 H 0.5117 0.6081 0.9398
C36_3 C 0.40721(14) 0.59283(18) 0.86658(15)
F7_3 F 0.30973(10) 0.59194(16) 0.89238(12)
O11_2 O 0.21427(6) 0.62447(6) 0.67355(6)
C37_3 C 0.20367(8) 0.62224(13) 0.70367(8)
C38_3 C 0.23024(8) 0.61747(14) 0.73024(8)
C39_3 C 0.22073(11) 0.61503(14) 0.76345(10)
H13_3 H 0.1982 0.6170 0.7693
C40_3 C 0.24456(13) 0.6098(2) 0.78780(11)
H14_3 H 0.2383 0.6081 0.8102
C41_3 C 0.27851(11) 0.6069(3) 0.77851(11)
C42_3 C 0.30389(11) 0.6014(3) 0.80389(11)
C43_3 C 0.32492(13) 0.5969(3) 0.82492(13)
C44_3 C 0.35033(13) 0.5937(3) 0.85033(13)
C45_3 C 0.34279(14) 0.59283(18) 0.88342(15)
F8_3 F 0.39238(12) 0.59194(16) 0.80973(10)
O12_2 O 0.17355(6) 0.62447(6) 0.71427(6)
C46_3 C 0.26345(10) 0.61503(14) 0.72073(11)
H15_3 H 0.2693 0.6170 0.6982
C47_3 C 0.28780(11) 0.6098(2) 0.74456(13)
H16_3 H 0.3102 0.6081 0.7383
C48_3 C 0.38342(15) 0.59283(18) 0.84279(14)
Zr5_2 Zr 0.1250 0.6250 0.68708(2)
F1_4 F 0.09194(16) 0.44027(10) 0.35762(12)
O1_4 O 0.12447(6) 0.53573(6) 0.57645(6)
O2_4 O 0.09247(15) 0.59247(15) 0.65753(15)
O3_4 O 0.15451(14) 0.59549(14) 0.65451(14)
C1_4 C 0.12224(13) 0.54633(8) 0.54633(8)
C2_4 C 0.11747(14) 0.51976(8) 0.51976(8)
C3_4 C 0.11503(14) 0.52927(11) 0.48655(10)
H1_4 H 0.1170 0.5518 0.4807
C4_4 C 0.1098(2) 0.50544(13) 0.46220(11)
H2_4 H 0.1081 0.5117 0.4398
C5_4 C 0.1069(3) 0.47149(11) 0.47149(11)
C6_4 C 0.1014(3) 0.44611(11) 0.44611(11)
C7_4 C 0.0969(3) 0.42508(13) 0.42508(13)
C8_4 C 0.0937(3) 0.39967(13) 0.39967(13)
C9_4 C 0.09283(18) 0.40721(14) 0.36658(15)
F2_4 F 0.09194(16) 0.35762(12) 0.44027(10)
O4_4 O 0.12447(6) 0.57645(6) 0.53573(6)
C10_4 C 0.11503(14) 0.48655(10) 0.52927(11)
H3_4 H 0.1170 0.4807 0.5518
C11_4 C 0.1098(2) 0.46220(11) 0.50544(13)
H4_4 H 0.1081 0.4398 0.5117
C12_4 C 0.09283(18) 0.36658(15) 0.40721(14)
F3_4 F 0.09194(16) 0.39238(12) 0.30973(10)
O5_4 O 0.12447(6) 0.17355(6) 0.21427(6)
C13_4 C 0.12224(13) 0.20367(8) 0.20367(8)
C14_4 C 0.11747(14) 0.23024(8) 0.23024(8)
C15_4 C 0.11503(14) 0.26345(10) 0.22073(11)
H5_4 H 0.1170 0.2693 0.1982
C16_4 C 0.1098(2) 0.28780(11) 0.24456(13)
H6_4 H 0.1081 0.3102 0.2383
C17_4 C 0.1069(3) 0.27851(11) 0.27851(11)
C18_4 C 0.1014(3) 0.30389(11) 0.30389(11)
C19_4 C 0.0969(3) 0.32492(13) 0.32492(13)
C20_4 C 0.0937(3) 0.35033(13) 0.35033(13)
C21_4 C 0.09283(18) 0.38342(15) 0.34279(14)
F4_4 F 0.09194(16) 0.30973(10) 0.39238(12)
O6_4 O 0.12447(6) 0.21427(6) 0.17355(6)
C22_4 C 0.11503(14) 0.22073(11) 0.26345(10)
H7_4 H 0.1170 0.1982 0.2693
C23_4 C 0.1098(2) 0.24456(13) 0.28780(11)
H8_4 H 0.1081 0.2383 0.3102
C24_4 C 0.09283(18) 0.34279(14) 0.38342(15)
O7_4 O 0.15753(15) 0.65753(15) 0.65753(15)
O8_4 O 0.09549(14) 0.59549(14) 0.59549(14)
F5_4 F 0.39238(12) 0.65806(16) 0.44027(10)
O9_4 O 0.17355(6) 0.62553(6) 0.53573(6)
C25_4 C 0.20367(8) 0.62776(13) 0.54633(8)
C26_4 C 0.23024(8) 0.63253(14) 0.51976(8)
C27_4 C 0.26345(10) 0.63497(14) 0.52927(11)
H9_4 H 0.2693 0.6330 0.5518
C28_4 C 0.28780(11) 0.6402(2) 0.50544(13)
H10_4 H 0.3102 0.6419 0.5117
C29_4 C 0.27851(11) 0.6431(3) 0.47149(11)
C30_4 C 0.30389(11) 0.6486(3) 0.44611(11)
C31_4 C 0.32492(13) 0.6531(3) 0.42508(13)
C32_4 C 0.35033(13) 0.6563(3) 0.39967(13)
C33_4 C 0.38342(15) 0.65717(18) 0.40721(14)
F6_4 F 0.30973(10) 0.65806(16) 0.35762(12)
O10_4 O 0.21427(6) 0.62553(6) 0.57645(6)
C34_4 C 0.22073(11) 0.63497(14) 0.48655(10)
H11_4 H 0.1982 0.6330 0.4807
C35_4 C 0.24456(13) 0.6402(2) 0.46220(11)
H12_4 H 0.2383 0.6419 0.4398
C36_4 C 0.34279(14) 0.65717(18) 0.36658(15)
F7_4 F 0.44027(10) 0.65806(16) 0.39238(12)
C37_4 C 0.54633(8) 0.62776(13) 0.20367(8)
C38_4 C 0.51976(8) 0.63253(14) 0.23024(8)
C39_4 C 0.52927(11) 0.63497(14) 0.26345(10)
H13_4 H 0.5518 0.6330 0.2693
C40_4 C 0.50544(13) 0.6402(2) 0.28780(11)
H14_4 H 0.5117 0.6419 0.3102
C41_4 C 0.47149(11) 0.6431(3) 0.27851(11)
C42_4 C 0.44611(11) 0.6486(3) 0.30389(11)
C43_4 C 0.42508(13) 0.6531(3) 0.32492(13)
C44_4 C 0.39967(13) 0.6563(3) 0.35033(13)
C45_4 C 0.40721(14) 0.65717(18) 0.38342(15)
F8_4 F 0.35762(12) 0.65806(16) 0.30973(10)
C46_4 C 0.48655(10) 0.63497(14) 0.22073(11)
H15_4 H 0.4807 0.6330 0.1982
C47_4 C 0.46220(11) 0.6402(2) 0.24456(13)
H16_4 H 0.4398 0.6419 0.2383
C48_4 C 0.36658(15) 0.65717(18) 0.34279(14)
O13_4 O 0.03573(6) 0.57645(6) 0.62447(6)
C49_4 C 0.04633(8) 0.54633(8) 0.62224(13)
C50_4 C 0.01976(8) 0.51976(8) 0.61747(14)
C51_4 C 0.02927(11) 0.48655(10) 0.61503(14)
H17_4 H 0.0518 0.4807 0.6170
C52_4 C 0.00544(13) 0.46220(11) 0.6098(2)
H18_4 H 0.0117 0.4398 0.6081
O14_4 O 0.07645(6) 0.53573(6) 0.62447(6)
Zr10_4 Zr 0.06292(2) 0.6250 0.6250
O17_4 O 0.07645(6) 0.62553(6) 0.71427(6)
O18_4 O 0.21427(6) 0.67355(6) 0.62447(6)
O19_4 O 0.12553(6) 0.53573(6) 0.67355(6)
O24_4 O 0.12553(6) 0.57645(6) 0.71427(6)
O25_4 O 0.12447(6) 0.67355(6) 0.71427(6)
O26_4 O 0.15753(15) 0.59247(15) 0.59247(15)
O27_4 O 0.09549(14) 0.65451(14) 0.65451(14)
O28_4 O 0.15451(14) 0.65451(14) 0.59549(14)
F9_4 F 0.94027(10) 0.35762(12) 0.59194(16)
C53_4 C 0.97149(11) 0.47149(11) 0.6069(3)
C54_4 C 0.94611(11) 0.44611(11) 0.6014(3)
C55_4 C 0.92508(13) 0.42508(13) 0.5969(3)
C56_4 C 0.89967(13) 0.39967(13) 0.5937(3)
C57_4 C 0.90721(14) 0.36658(15) 0.59283(18)
F10_4 F 0.85762(12) 0.44027(10) 0.59194(16)
C58_4 C 0.98655(10) 0.52927(11) 0.61503(14)
H19_4 H 0.9807 0.5518 0.6170
C59_4 C 0.96220(11) 0.50544(13) 0.6098(2)
H20_4 H 0.9398 0.5117 0.6081
C60_4 C 0.86658(15) 0.40721(14) 0.59283(18)
F11_4 F 0.89238(12) 0.30973(10) 0.59194(16)
C61_4 C 0.70367(8) 0.20367(8) 0.62224(13)
C62_4 C 0.73024(8) 0.23024(8) 0.61747(14)
C63_4 C 0.76345(10) 0.22073(11) 0.61503(14)
H21_4 H 0.7693 0.1982 0.6170
C64_4 C 0.78780(11) 0.24456(13) 0.6098(2)
H22_4 H 0.8102 0.2383 0.6081
C65_4 C 0.77851(11) 0.27851(11) 0.6069(3)
C66_4 C 0.80389(11) 0.30389(11) 0.6014(3)
C67_4 C 0.82492(13) 0.32492(13) 0.5969(3)
C68_4 C 0.85033(13) 0.35033(13) 0.5937(3)
C69_4 C 0.88342(15) 0.34279(14) 0.59283(18)
F12_4 F 0.80973(10) 0.39238(12) 0.59194(16)
C70_4 C 0.72073(11) 0.26345(10) 0.61503(14)
H23_4 H 0.6982 0.2693 0.6170
C71_4 C 0.74456(13) 0.28780(11) 0.6098(2)
H24_4 H 0.7383 0.3102 0.6081
C72_4 C 0.84279(14) 0.38342(15) 0.59283(18)
O5_5 O 0.03573(6) 0.62447(6) 0.57645(6)
C13_5 C 0.04633(8) 0.62224(13) 0.54633(8)
C14_5 C 0.01976(8) 0.61747(14) 0.51976(8)
C15_5 C 0.02927(11) 0.61503(14) 0.48655(10)
H5_5 H 0.0518 0.6170 0.4807
C16_5 C 0.00544(13) 0.6098(2) 0.46220(11)
H6_5 H 0.0117 0.6081 0.4398
O6_5 O 0.07645(6) 0.62447(6) 0.53573(6)
F1_5 F 0.89238(12) 0.59194(16) 0.30973(10)
C1_5 C 0.70367(8) 0.62224(13) 0.20367(8)
C2_5 C 0.73024(8) 0.61747(14) 0.23024(8)
C3_5 C 0.76345(10) 0.61503(14) 0.22073(11)
H1_5 H 0.7693 0.6170 0.1982
C4_5 C 0.78780(11) 0.6098(2) 0.24456(13)
H2_5 H 0.8102 0.6081 0.2383
C5_5 C 0.77851(11) 0.6069(3) 0.27851(11)
C6_5 C 0.80389(11) 0.6014(3) 0.30389(11)
C7_5 C 0.82492(13) 0.5969(3) 0.32492(13)
C8_5 C 0.85033(13) 0.5937(3) 0.35033(13)
C9_5 C 0.88342(15) 0.59283(18) 0.34279(14)
F2_5 F 0.80973(10) 0.59194(16) 0.39238(12)
O4_5 O 0.71427(6) 0.62447(6) 0.17355(6)
C10_5 C 0.72073(11) 0.61503(14) 0.26345(10)
H3_5 H 0.6982 0.6170 0.2693
C11_5 C 0.74456(13) 0.6098(2) 0.28780(11)
H4_5 H 0.7383 0.6081 0.3102
C12_5 C 0.84279(14) 0.59283(18) 0.38342(15)
F3_5 F 0.94027(10) 0.59194(16) 0.35762(12)
C17_5 C 0.97149(11) 0.6069(3) 0.47149(11)
C18_5 C 0.94611(11) 0.6014(3) 0.44611(11)
C19_5 C 0.92508(13) 0.5969(3) 0.42508(13)
C20_5 C 0.89967(13) 0.5937(3) 0.39967(13)
C21_5 C 0.90721(14) 0.59283(18) 0.36658(15)
F4_5 F 0.85762(12) 0.59194(16) 0.44027(10)
C22_5 C 0.98655(10) 0.61503(14) 0.52927(11)
H7_5 H 0.9807 0.6170 0.5518
C23_5 C 0.96220(11) 0.6098(2) 0.50544(13)
H8_5 H 0.9398 0.6081 0.5117
C24_5 C 0.86658(15) 0.59283(18) 0.40721(14)
F9_5 F 0.65806(16) 0.44027(10) 0.39238(12)
O13_5 O 0.62553(6) 0.53573(6) 0.17355(6)
C49_5 C 0.62776(13) 0.54633(8) 0.20367(8)
C50_5 C 0.63253(14) 0.51976(8) 0.23024(8)
C51_5 C 0.63497(14) 0.52927(11) 0.26345(10)
H17_5 H 0.6330 0.5518 0.2693
C52_5 C 0.6402(2) 0.50544(13) 0.28780(11)
H18_5 H 0.6419 0.5117 0.3102
C53_5 C 0.6431(3) 0.47149(11) 0.27851(11)
C54_5 C 0.6486(3) 0.44611(11) 0.30389(11)
C55_5 C 0.6531(3) 0.42508(13) 0.32492(13)
C56_5 C 0.6563(3) 0.39967(13) 0.35033(13)
C57_5 C 0.65717(18) 0.40721(14) 0.38342(15)
F10_5 F 0.65806(16) 0.35762(12) 0.30973(10)
C58_5 C 0.63497(14) 0.48655(10) 0.22073(11)
H19_5 H 0.6330 0.4807 0.1982
C59_5 C 0.6402(2) 0.46220(11) 0.24456(13)
H20_5 H 0.6419 0.4398 0.2383
C60_5 C 0.65717(18) 0.36658(15) 0.34279(14)
F11_5 F 0.65806(16) 0.39238(12) 0.44027(10)
C61_5 C 0.62776(13) 0.20367(8) 0.54633(8)
C62_5 C 0.63253(14) 0.23024(8) 0.51976(8)
C63_5 C 0.63497(14) 0.26345(10) 0.52927(11)
H21_5 H 0.6330 0.2693 0.5518
C64_5 C 0.6402(2) 0.28780(11) 0.50544(13)
H22_5 H 0.6419 0.3102 0.5117
C65_5 C 0.6431(3) 0.27851(11) 0.47149(11)
C66_5 C 0.6486(3) 0.30389(11) 0.44611(11)
C67_5 C 0.6531(3) 0.32492(13) 0.42508(13)
C68_5 C 0.6563(3) 0.35033(13) 0.39967(13)
C69_5 C 0.65717(18) 0.38342(15) 0.40721(14)
F12_5 F 0.65806(16) 0.30973(10) 0.35762(12)
C70_5 C 0.63497(14) 0.22073(11) 0.48655(10)
H23_5 H 0.6330 0.1982 0.4807
C71_5 C 0.6402(2) 0.24456(13) 0.46220(11)
H24_5 H 0.6419 0.2383 0.4398
C72_5 C 0.65717(18) 0.34279(14) 0.36658(15)
C1_6 C 0.20367(8) 0.12776(13) 0.04633(8)
C2_6 C 0.23024(8) 0.13253(14) 0.01976(8)
C3_6 C 0.26345(10) 0.13497(14) 0.02927(11)
H1_6 H 0.2693 0.1330 0.0518
C4_6 C 0.28780(11) 0.1402(2) 0.00544(13)
H2_6 H 0.3102 0.1419 0.0117
O4_6 O 0.21427(6) 0.12553(6) 0.07645(6)
O13_6 O 0.12553(6) 0.21427(6) 0.07645(6)
C49_6 C 0.12776(13) 0.20367(8) 0.04633(8)
C50_6 C 0.13253(14) 0.23024(8) 0.01976(8)
C58_6 C 0.13497(14) 0.26345(10) 0.02927(11)
H19_6 H 0.1330 0.2693 0.0518
C59_6 C 0.1402(2) 0.28780(11) 0.00544(13)
H20_6 H 0.1419 0.3102 0.0117
F1_6 F 0.39238(12) 0.15806(16) 0.94027(10)
C5_6 C 0.27851(11) 0.1431(3) 0.97149(11)
C6_6 C 0.30389(11) 0.1486(3) 0.94611(11)
C7_6 C 0.32492(13) 0.1531(3) 0.92508(13)
C8_6 C 0.35033(13) 0.1563(3) 0.89967(13)
C9_6 C 0.38342(15) 0.15717(18) 0.90721(14)
F2_6 F 0.30973(10) 0.15806(16) 0.85762(12)
C10_6 C 0.22073(11) 0.13497(14) 0.98655(10)
H3_6 H 0.1982 0.1330 0.9807
C11_6 C 0.24456(13) 0.1402(2) 0.96220(11)
H4_6 H 0.2383 0.1419 0.9398
C12_6 C 0.34279(14) 0.15717(18) 0.86658(15)
F3_6 F 0.44027(10) 0.15806(16) 0.89238(12)
O5_6 O 0.53573(6) 0.12553(6) 0.67355(6)
C13_6 C 0.54633(8) 0.12776(13) 0.70367(8)
C14_6 C 0.51976(8) 0.13253(14) 0.73024(8)
C15_6 C 0.52927(11) 0.13497(14) 0.76345(10)
H5_6 H 0.5518 0.1330 0.7693
C16_6 C 0.50544(13) 0.1402(2) 0.78780(11)
H6_6 H 0.5117 0.1419 0.8102
C17_6 C 0.47149(11) 0.1431(3) 0.77851(11)
C18_6 C 0.44611(11) 0.1486(3) 0.80389(11)
C19_6 C 0.42508(13) 0.1531(3) 0.82492(13)
C20_6 C 0.39967(13) 0.1563(3) 0.85033(13)
C21_6 C 0.40721(14) 0.15717(18) 0.88342(15)
F4_6 F 0.35762(12) 0.15806(16) 0.80973(10)
O6_6 O 0.57645(6) 0.12553(6) 0.71427(6)
C22_6 C 0.48655(10) 0.13497(14) 0.72073(11)
H7_6 H 0.4807 0.1330 0.6982
C23_6 C 0.46220(11) 0.1402(2) 0.74456(13)
H8_6 H 0.4398 0.1419 0.7383
C24_6 C 0.36658(15) 0.15717(18) 0.84279(14)
F9_6 F 0.15806(16) 0.30973(10) 0.85762(12)
C51_6 C 0.13497(14) 0.22073(11) 0.98655(10)
H17_6 H 0.1330 0.1982 0.9807
C52_6 C 0.1402(2) 0.24456(13) 0.96220(11)
H18_6 H 0.1419 0.2383 0.9398
C53_6 C 0.1431(3) 0.27851(11) 0.97149(11)
C54_6 C 0.1486(3) 0.30389(11) 0.94611(11)
C55_6 C 0.1531(3) 0.32492(13) 0.92508(13)
C56_6 C 0.1563(3) 0.35033(13) 0.89967(13)
C57_6 C 0.15717(18) 0.34279(14) 0.86658(15)
F10_6 F 0.15806(16) 0.39238(12) 0.94027(10)
C60_6 C 0.15717(18) 0.38342(15) 0.90721(14)
F11_6 F 0.15806(16) 0.35762(12) 0.80973(10)
C61_6 C 0.12776(13) 0.54633(8) 0.70367(8)
C62_6 C 0.13253(14) 0.51976(8) 0.73024(8)
C63_6 C 0.13497(14) 0.48655(10) 0.72073(11)
H21_6 H 0.1330 0.4807 0.6982
C64_6 C 0.1402(2) 0.46220(11) 0.74456(13)
H22_6 H 0.1419 0.4398 0.7383
C65_6 C 0.1431(3) 0.47149(11) 0.77851(11)
C66_6 C 0.1486(3) 0.44611(11) 0.80389(11)
C67_6 C 0.1531(3) 0.42508(13) 0.82492(13)
C68_6 C 0.1563(3) 0.39967(13) 0.85033(13)
C69_6 C 0.15717(18) 0.36658(15) 0.84279(14)
F12_6 F 0.15806(16) 0.44027(10) 0.89238(12)
C70_6 C 0.13497(14) 0.52927(11) 0.76345(10)
H23_6 H 0.1330 0.5518 0.7693
C71_6 C 0.1402(2) 0.50544(13) 0.78780(11)
H24_6 H 0.1419 0.5117 0.8102
C72_6 C 0.15717(18) 0.40721(14) 0.88342(15)
C61_7 C 0.12224(13) 0.04633(8) 0.04633(8)
C62_7 C 0.11747(14) 0.01976(8) 0.01976(8)
C70_7 C 0.11503(14) 0.02927(11) 0.98655(10)
H23_7 H 0.1170 0.0518 0.9807
C71_7 C 0.1098(2) 0.00544(13) 0.96220(11)
H24_7 H 0.1081 0.0117 0.9398
C63_7 C 0.11503(14) 0.98655(10) 0.02927(11)
H21_7 H 0.1170 0.9807 0.0518
C64_7 C 0.1098(2) 0.96220(11) 0.00544(13)
H22_7 H 0.1081 0.9398 0.0117
C1_7 C 0.04633(8) 0.62776(13) 0.70367(8)
C2_7 C 0.01976(8) 0.63253(14) 0.73024(8)
O4_7 O 0.03573(6) 0.62553(6) 0.67355(6)
C10_7 C 0.02927(11) 0.63497(14) 0.76345(10)
H3_7 H 0.0518 0.6330 0.7693
C11_7 C 0.00544(13) 0.6402(2) 0.78780(11)
H4_7 H 0.0117 0.6419 0.8102
F9_7 F 0.09194(16) 0.80973(10) 0.89238(12)
O13_7 O 0.12447(6) 0.71427(6) 0.67355(6)
C49_7 C 0.12224(13) 0.70367(8) 0.70367(8)
C50_7 C 0.11747(14) 0.73024(8) 0.73024(8)
C51_7 C 0.11503(14) 0.72073(11) 0.76345(10)
H17_7 H 0.1170 0.6982 0.7693
C52_7 C 0.1098(2) 0.74456(13) 0.78780(11)
H18_7 H 0.1081 0.7383 0.8102
C53_7 C 0.1069(3) 0.77851(11) 0.77851(11)
C54_7 C 0.1014(3) 0.80389(11) 0.80389(11)
C55_7 C 0.0969(3) 0.82492(13) 0.82492(13)
C56_7 C 0.0937(3) 0.85033(13) 0.85033(13)
C57_7 C 0.09283(18) 0.84279(14) 0.88342(15)
F10_7 F 0.09194(16) 0.89238(12) 0.80973(10)
C58_7 C 0.11503(14) 0.76345(10) 0.72073(11)
H19_7 H 0.1170 0.7693 0.6982
C59_7 C 0.1098(2) 0.78780(11) 0.74456(13)
H20_7 H 0.1081 0.8102 0.7383
C60_7 C 0.09283(18) 0.88342(15) 0.84279(14)
F11_7 F 0.09194(16) 0.85762(12) 0.94027(10)
C65_7 C 0.1069(3) 0.97149(11) 0.97149(11)
C66_7 C 0.1014(3) 0.94611(11) 0.94611(11)
C67_7 C 0.0969(3) 0.92508(13) 0.92508(13)
C68_7 C 0.0937(3) 0.89967(13) 0.89967(13)
C69_7 C 0.09283(18) 0.86658(15) 0.90721(14)
F12_7 F 0.09194(16) 0.94027(10) 0.85762(12)
C72_7 C 0.09283(18) 0.90721(14) 0.86658(15)
O5_7 O 0.71427(6) 0.62553(6) 0.07645(6)
C13_7 C 0.70367(8) 0.62776(13) 0.04633(8)
C14_7 C 0.73024(8) 0.63253(14) 0.01976(8)
O6_7 O 0.67355(6) 0.62553(6) 0.03573(6)
C22_7 C 0.76345(10) 0.63497(14) 0.02927(11)
H7_7 H 0.7693 0.6330 0.0518
C23_7 C 0.78780(11) 0.6402(2) 0.00544(13)
H8_7 H 0.8102 0.6419 0.0117
F1_7 F 0.85762(12) 0.65806(16) 0.80973(10)
C3_7 C 0.98655(10) 0.63497(14) 0.72073(11)
H1_7 H 0.9807 0.6330 0.6982
C4_7 C 0.96220(11) 0.6402(2) 0.74456(13)
H2_7 H 0.9398 0.6419 0.7383
C5_7 C 0.97149(11) 0.6431(3) 0.77851(11)
C6_7 C 0.94611(11) 0.6486(3) 0.80389(11)
C7_7 C 0.92508(13) 0.6531(3) 0.82492(13)
C8_7 C 0.89967(13) 0.6563(3) 0.85033(13)
C9_7 C 0.86658(15) 0.65717(18) 0.84279(14)
F2_7 F 0.94027(10) 0.65806(16) 0.89238(12)
C12_7 C 0.90721(14) 0.65717(18) 0.88342(15)
F3_7 F 0.80973(10) 0.65806(16) 0.85762(12)
C15_7 C 0.72073(11) 0.63497(14) 0.98655(10)
H5_7 H 0.6982 0.6330 0.9807
C16_7 C 0.74456(13) 0.6402(2) 0.96220(11)
H6_7 H 0.7383 0.6419 0.9398
C17_7 C 0.77851(11) 0.6431(3) 0.97149(11)
C18_7 C 0.80389(11) 0.6486(3) 0.94611(11)
C19_7 C 0.82492(13) 0.6531(3) 0.92508(13)
C20_7 C 0.85033(13) 0.6563(3) 0.89967(13)
C21_7 C 0.84279(14) 0.65717(18) 0.86658(15)
F4_7 F 0.89238(12) 0.65806(16) 0.94027(10)
C24_7 C 0.88342(15) 0.65717(18) 0.90721(14)
F1_8 F 0.35762(12) 0.09194(16) 0.44027(10)
C1_8 C 0.54633(8) 0.12224(13) 0.54633(8)
C2_8 C 0.51976(8) 0.11747(14) 0.51976(8)
C3_8 C 0.48655(10) 0.11503(14) 0.52927(11)
H1_8 H 0.4807 0.1170 0.5518
C4_8 C 0.46220(11) 0.1098(2) 0.50544(13)
H2_8 H 0.4398 0.1081 0.5117
C5_8 C 0.47149(11) 0.1069(3) 0.47149(11)
C6_8 C 0.44611(11) 0.1014(3) 0.44611(11)
C7_8 C 0.42508(13) 0.0969(3) 0.42508(13)
C8_8 C 0.39967(13) 0.0937(3) 0.39967(13)
C9_8 C 0.36658(15) 0.09283(18) 0.40721(14)
F2_8 F 0.44027(10) 0.09194(16) 0.35762(12)
O4_8 O 0.53573(6) 0.12447(6) 0.57645(6)
C10_8 C 0.52927(11) 0.11503(14) 0.48655(10)
H3_8 H 0.5518 0.1170 0.4807
C11_8 C 0.50544(13) 0.1098(2) 0.46220(11)
H4_8 H 0.5117 0.1081 0.4398
C12_8 C 0.40721(14) 0.09283(18) 0.36658(15)
F3_8 F 0.30973(10) 0.09194(16) 0.39238(12)
O5_8 O 0.21427(6) 0.12447(6) 0.17355(6)
C13_8 C 0.20367(8) 0.12224(13) 0.20367(8)
C14_8 C 0.23024(8) 0.11747(14) 0.23024(8)
C15_8 C 0.22073(11) 0.11503(14) 0.26345(10)
H5_8 H 0.1982 0.1170 0.2693
C16_8 C 0.24456(13) 0.1098(2) 0.28780(11)
H6_8 H 0.2383 0.1081 0.3102
C17_8 C 0.27851(11) 0.1069(3) 0.27851(11)
C18_8 C 0.30389(11) 0.1014(3) 0.30389(11)
C19_8 C 0.32492(13) 0.0969(3) 0.32492(13)
C20_8 C 0.35033(13) 0.0937(3) 0.35033(13)
C21_8 C 0.34279(14) 0.09283(18) 0.38342(15)
F4_8 F 0.39238(12) 0.09194(16) 0.30973(10)
O6_8 O 0.17355(6) 0.12447(6) 0.21427(6)
C22_8 C 0.26345(10) 0.11503(14) 0.22073(11)
H7_8 H 0.2693 0.1170 0.1982
C23_8 C 0.28780(11) 0.1098(2) 0.24456(13)
H8_8 H 0.3102 0.1081 0.2383
C24_8 C 0.38342(15) 0.09283(18) 0.34279(14)
O13_8 O 0.62447(6) 0.03573(6) 0.57645(6)
C49_8 C 0.62224(13) 0.04633(8) 0.54633(8)
C50_8 C 0.61747(14) 0.01976(8) 0.51976(8)
C51_8 C 0.61503(14) 0.02927(11) 0.48655(10)
H17_8 H 0.6170 0.0518 0.4807
C52_8 C 0.6098(2) 0.00544(13) 0.46220(11)
H18_8 H 0.6081 0.0117 0.4398
F9_8 F 0.59194(16) 0.94027(10) 0.35762(12)
C53_8 C 0.6069(3) 0.97149(11) 0.47149(11)
C54_8 C 0.6014(3) 0.94611(11) 0.44611(11)
C55_8 C 0.5969(3) 0.92508(13) 0.42508(13)
C56_8 C 0.5937(3) 0.89967(13) 0.39967(13)
C57_8 C 0.59283(18) 0.90721(14) 0.36658(15)
F10_8 F 0.59194(16) 0.85762(12) 0.44027(10)
C58_8 C 0.61503(14) 0.98655(10) 0.52927(11)
H19_8 H 0.6170 0.9807 0.5518
C59_8 C 0.6098(2) 0.96220(11) 0.50544(13)
H20_8 H 0.6081 0.9398 0.5117
C60_8 C 0.59283(18) 0.86658(15) 0.40721(14)
F11_8 F 0.59194(16) 0.89238(12) 0.30973(10)
C61_8 C 0.62224(13) 0.70367(8) 0.20367(8)
C62_8 C 0.61747(14) 0.73024(8) 0.23024(8)
C63_8 C 0.61503(14) 0.76345(10) 0.22073(11)
H21_8 H 0.6170 0.7693 0.1982
C64_8 C 0.6098(2) 0.78780(11) 0.24456(13)
H22_8 H 0.6081 0.8102 0.2383
C65_8 C 0.6069(3) 0.77851(11) 0.27851(11)
C66_8 C 0.6014(3) 0.80389(11) 0.30389(11)
C67_8 C 0.5969(3) 0.82492(13) 0.32492(13)
C68_8 C 0.5937(3) 0.85033(13) 0.35033(13)
C69_8 C 0.59283(18) 0.88342(15) 0.34279(14)
F12_8 F 0.59194(16) 0.80973(10) 0.39238(12)
C70_8 C 0.61503(14) 0.72073(11) 0.26345(10)
H23_8 H 0.6170 0.6982 0.2693
C71_8 C 0.6098(2) 0.74456(13) 0.28780(11)
H24_8 H 0.6081 0.7383 0.3102
C72_8 C 0.59283(18) 0.84279(14) 0.38342(15)
O5_9 O 0.57645(6) 0.03573(6) 0.62447(6)
C13_9 C 0.54633(8) 0.04633(8) 0.62224(13)
C14_9 C 0.51976(8) 0.01976(8) 0.61747(14)
C15_9 C 0.48655(10) 0.02927(11) 0.61503(14)
H5_9 H 0.4807 0.0518 0.6170
C16_9 C 0.46220(11) 0.00544(13) 0.6098(2)
H6_9 H 0.4398 0.0117 0.6081
O6_9 O 0.53573(6) 0.07645(6) 0.62447(6)
F1_9 F 0.30973(10) 0.89238(12) 0.59194(16)
C1_9 C 0.20367(8) 0.70367(8) 0.62224(13)
C2_9 C 0.23024(8) 0.73024(8) 0.61747(14)
C3_9 C 0.22073(11) 0.76345(10) 0.61503(14)
H1_9 H 0.1982 0.7693 0.6170
C4_9 C 0.24456(13) 0.78780(11) 0.6098(2)
H2_9 H 0.2383 0.8102 0.6081
C5_9 C 0.27851(11) 0.77851(11) 0.6069(3)
C6_9 C 0.30389(11) 0.80389(11) 0.6014(3)
C7_9 C 0.32492(13) 0.82492(13) 0.5969(3)
C8_9 C 0.35033(13) 0.85033(13) 0.5937(3)
C9_9 C 0.34279(14) 0.88342(15) 0.59283(18)
F2_9 F 0.39238(12) 0.80973(10) 0.59194(16)
O4_9 O 0.17355(6) 0.71427(6) 0.62447(6)
C10_9 C 0.26345(10) 0.72073(11) 0.61503(14)
H3_9 H 0.2693 0.6982 0.6170
C11_9 C 0.28780(11) 0.74456(13) 0.6098(2)
H4_9 H 0.3102 0.7383 0.6081
C12_9 C 0.38342(15) 0.84279(14) 0.59283(18)
F3_9 F 0.35762(12) 0.94027(10) 0.59194(16)
C17_9 C 0.47149(11) 0.97149(11) 0.6069(3)
C18_9 C 0.44611(11) 0.94611(11) 0.6014(3)
C19_9 C 0.42508(13) 0.92508(13) 0.5969(3)
C20_9 C 0.39967(13) 0.89967(13) 0.5937(3)
C21_9 C 0.36658(15) 0.90721(14) 0.59283(18)
F4_9 F 0.44027(10) 0.85762(12) 0.59194(16)
C22_9 C 0.52927(11) 0.98655(10) 0.61503(14)
H7_9 H 0.5518 0.9807 0.6170
C23_9 C 0.50544(13) 0.96220(11) 0.6098(2)
H8_9 H 0.5117 0.9398 0.6081
C24_9 C 0.40721(14) 0.86658(15) 0.59283(18)
C1_10 C 0.04633(8) 0.20367(8) 0.12776(13)
C2_10 C 0.01976(8) 0.23024(8) 0.13253(14)
C3_10 C 0.02927(11) 0.26345(10) 0.13497(14)
H1_10 H 0.0518 0.2693 0.1330
C4_10 C 0.00544(13) 0.28780(11) 0.1402(2)
H2_10 H 0.0117 0.3102 0.1419
O4_10 O 0.07645(6) 0.21427(6) 0.12553(6)
F1_10 F 0.94027(10) 0.39238(12) 0.15806(16)
C5_10 C 0.97149(11) 0.27851(11) 0.1431(3)
C6_10 C 0.94611(11) 0.30389(11) 0.1486(3)
C7_10 C 0.92508(13) 0.32492(13) 0.1531(3)
C8_10 C 0.89967(13) 0.35033(13) 0.1563(3)
C9_10 C 0.90721(14) 0.38342(15) 0.15717(18)
F2_10 F 0.85762(12) 0.30973(10) 0.15806(16)
C10_10 C 0.98655(10) 0.22073(11) 0.13497(14)
H3_10 H 0.9807 0.1982 0.1330
C11_10 C 0.96220(11) 0.24456(13) 0.1402(2)
H4_10 H 0.9398 0.2383 0.1419
C12_10 C 0.86658(15) 0.34279(14) 0.15717(18)
F3_10 F 0.89238(12) 0.44027(10) 0.15806(16)
O5_10 O 0.67355(6) 0.53573(6) 0.12553(6)
C13_10 C 0.70367(8) 0.54633(8) 0.12776(13)
C14_10 C 0.73024(8) 0.51976(8) 0.13253(14)
C15_10 C 0.76345(10) 0.52927(11) 0.13497(14)
H5_10 H 0.7693 0.5518 0.1330
C16_10 C 0.78780(11) 0.50544(13) 0.1402(2)
H6_10 H 0.8102 0.5117 0.1419
C17_10 C 0.77851(11) 0.47149(11) 0.1431(3)
C18_10 C 0.80389(11) 0.44611(11) 0.1486(3)
C19_10 C 0.82492(13) 0.42508(13) 0.1531(3)
C20_10 C 0.85033(13) 0.39967(13) 0.1563(3)
C21_10 C 0.88342(15) 0.40721(14) 0.15717(18)
F4_10 F 0.80973(10) 0.35762(12) 0.15806(16)
O6_10 O 0.71427(6) 0.57645(6) 0.12553(6)
C22_10 C 0.72073(11) 0.48655(10) 0.13497(14)
H7_10 H 0.6982 0.4807 0.1330
C23_10 C 0.74456(13) 0.46220(11) 0.1402(2)
H8_10 H 0.7383 0.4398 0.1419
C24_10 C 0.84279(14) 0.36658(15) 0.15717(18)
O5_11 O 0.07645(6) 0.71427(6) 0.62553(6)
C13_11 C 0.04633(8) 0.70367(8) 0.62776(13)
C14_11 C 0.01976(8) 0.73024(8) 0.63253(14)
O6_11 O 0.03573(6) 0.67355(6) 0.62553(6)
C22_11 C 0.02927(11) 0.76345(10) 0.63497(14)
H7_11 H 0.0518 0.7693 0.6330
C23_11 C 0.00544(13) 0.78780(11) 0.6402(2)
H8_11 H 0.0117 0.8102 0.6419
C1_11 C 0.70367(8) 0.04633(8) 0.62776(13)
C2_11 C 0.73024(8) 0.01976(8) 0.63253(14)
O4_11 O 0.67355(6) 0.03573(6) 0.62553(6)
C10_11 C 0.76345(10) 0.02927(11) 0.63497(14)
H3_11 H 0.7693 0.0518 0.6330
C11_11 C 0.78780(11) 0.00544(13) 0.6402(2)
H4_11 H 0.8102 0.0117 0.6419
F1_11 F 0.80973(10) 0.85762(12) 0.65806(16)
C3_11 C 0.72073(11) 0.98655(10) 0.63497(14)
H1_11 H 0.6982 0.9807 0.6330
C4_11 C 0.74456(13) 0.96220(11) 0.6402(2)
H2_11 H 0.7383 0.9398 0.6419
C5_11 C 0.77851(11) 0.97149(11) 0.6431(3)
C6_11 C 0.80389(11) 0.94611(11) 0.6486(3)
C7_11 C 0.82492(13) 0.92508(13) 0.6531(3)
C8_11 C 0.85033(13) 0.89967(13) 0.6563(3)
C9_11 C 0.84279(14) 0.86658(15) 0.65717(18)
F2_11 F 0.89238(12) 0.94027(10) 0.65806(16)
C12_11 C 0.88342(15) 0.90721(14) 0.65717(18)
F3_11 F 0.85762(12) 0.80973(10) 0.65806(16)
C15_11 C 0.98655(10) 0.72073(11) 0.63497(14)
H5_11 H 0.9807 0.6982 0.6330
C16_11 C 0.96220(11) 0.74456(13) 0.6402(2)
H6_11 H 0.9398 0.7383 0.6419
C17_11 C 0.97149(11) 0.77851(11) 0.6431(3)
C18_11 C 0.94611(11) 0.80389(11) 0.6486(3)
C19_11 C 0.92508(13) 0.82492(13) 0.6531(3)
C20_11 C 0.89967(13) 0.85033(13) 0.6563(3)
C21_11 C 0.86658(15) 0.84279(14) 0.65717(18)
F4_11 F 0.94027(10) 0.89238(12) 0.65806(16)
C24_11 C 0.90721(14) 0.88342(15) 0.65717(18)
F1_12 F 0.44027(10) 0.35762(12) 0.09194(16)
C1_12 C 0.54633(8) 0.54633(8) 0.12224(13)
C2_12 C 0.51976(8) 0.51976(8) 0.11747(14)
C3_12 C 0.52927(11) 0.48655(10) 0.11503(14)
H1_12 H 0.5518 0.4807 0.1170
C4_12 C 0.50544(13) 0.46220(11) 0.1098(2)
H2_12 H 0.5117 0.4398 0.1081
C5_12 C 0.47149(11) 0.47149(11) 0.1069(3)
C6_12 C 0.44611(11) 0.44611(11) 0.1014(3)
C7_12 C 0.42508(13) 0.42508(13) 0.0969(3)
C8_12 C 0.39967(13) 0.39967(13) 0.0937(3)
C9_12 C 0.40721(14) 0.36658(15) 0.09283(18)
F2_12 F 0.35762(12) 0.44027(10) 0.09194(16)
O4_12 O 0.57645(6) 0.53573(6) 0.12447(6)
C10_12 C 0.48655(10) 0.52927(11) 0.11503(14)
H3_12 H 0.4807 0.5518 0.1170
C11_12 C 0.46220(11) 0.50544(13) 0.1098(2)
H4_12 H 0.4398 0.5117 0.1081
C12_12 C 0.36658(15) 0.40721(14) 0.09283(18)
F3_12 F 0.39238(12) 0.30973(10) 0.09194(16)
O5_12 O 0.17355(6) 0.21427(6) 0.12447(6)
C13_12 C 0.20367(8) 0.20367(8) 0.12224(13)
C14_12 C 0.23024(8) 0.23024(8) 0.11747(14)
C15_12 C 0.26345(10) 0.22073(11) 0.11503(14)
H5_12 H 0.2693 0.1982 0.1170
C16_12 C 0.28780(11) 0.24456(13) 0.1098(2)
H6_12 H 0.3102 0.2383 0.1081
C17_12 C 0.27851(11) 0.27851(11) 0.1069(3)
C18_12 C 0.30389(11) 0.30389(11) 0.1014(3)
C19_12 C 0.32492(13) 0.32492(13) 0.0969(3)
C20_12 C 0.35033(13) 0.35033(13) 0.0937(3)
C21_12 C 0.38342(15) 0.34279(14) 0.09283(18)
F4_12 F 0.30973(10) 0.39238(12) 0.09194(16)
O6_12 O 0.21427(6) 0.17355(6) 0.12447(6)
C22_12 C 0.22073(11) 0.26345(10) 0.11503(14)
H7_12 H 0.1982 0.2693 0.1170
C23_12 C 0.24456(13) 0.28780(11) 0.1098(2)
H8_12 H 0.2383 0.3102 0.1081
C24_12 C 0.34279(14) 0.38342(15) 0.09283(18)
O7_5 O 0.65753(15) 0.59247(15) 0.09247(15)
O7_6 O 0.09247(15) 0.65753(15) 0.59247(15)
O7_7 O 0.59247(15) 0.09247(15) 0.65753(15)
O7_8 O 0.15753(15) 0.15753(15) 0.15753(15)
F1_13 F 0.05973(10) 0.84194(16) 0.60762(12)
C5_13 C 0.02851(11) 0.8569(3) 0.72149(11)
C6_13 C 0.05389(11) 0.8514(3) 0.69611(11)
C7_13 C 0.07492(13) 0.8469(3) 0.67508(13)
C8_13 C 0.10033(13) 0.8437(3) 0.64967(13)
C9_13 C 0.09279(14) 0.84283(18) 0.61658(15)
F2_13 F 0.14238(12) 0.84194(16) 0.69027(10)
C10_13 C 0.01345(10) 0.86503(14) 0.77927(11)
H3_13 H 0.0193 0.8670 0.8018
C11_13 C 0.03780(11) 0.8598(2) 0.75544(13)
H4_13 H 0.0602 0.8581 0.7617
C12_13 C 0.13342(15) 0.84283(18) 0.65721(14)
F3_13 F 0.10762(12) 0.84194(16) 0.55973(10)
O5_13 O 0.32645(6) 0.87447(6) 0.46427(6)
C13_13 C 0.29633(8) 0.87224(13) 0.45367(8)
C14_13 C 0.26976(8) 0.86747(14) 0.48024(8)
C15_13 C 0.23655(10) 0.86503(14) 0.47073(11)
H5_13 H 0.2307 0.8670 0.4482
C16_13 C 0.21220(11) 0.8598(2) 0.49456(13)
H6_13 H 0.1898 0.8581 0.4883
C17_13 C 0.22149(11) 0.8569(3) 0.52851(11)
C18_13 C 0.19611(11) 0.8514(3) 0.55389(11)
C19_13 C 0.17508(13) 0.8469(3) 0.57492(13)
C20_13 C 0.14967(13) 0.8437(3) 0.60033(13)
C21_13 C 0.11658(15) 0.84283(18) 0.59279(14)
F4_13 F 0.19027(10) 0.84194(16) 0.64238(12)
O6_13 O 0.28573(6) 0.87447(6) 0.42355(6)
C22_13 C 0.27927(11) 0.86503(14) 0.51345(10)
H7_13 H 0.3018 0.8670 0.5193
C23_13 C 0.25544(13) 0.8598(2) 0.53780(11)
H8_13 H 0.2617 0.8581 0.5602
C24_13 C 0.15721(14) 0.84283(18) 0.63342(15)
F9_9 F 0.14238(12) 0.69027(10) 0.84194(16)
C51_9 C 0.01345(10) 0.77927(11) 0.86503(14)
H17_9 H 0.0193 0.8018 0.8670
C52_9 C 0.03780(11) 0.75544(13) 0.8598(2)
H18_9 H 0.0602 0.7617 0.8581
C53_9 C 0.02851(11) 0.72149(11) 0.8569(3)
C54_9 C 0.05389(11) 0.69611(11) 0.8514(3)
C55_9 C 0.07492(13) 0.67508(13) 0.8469(3)
C56_9 C 0.10033(13) 0.64967(13) 0.8437(3)
C57_9 C 0.13342(15) 0.65721(14) 0.84283(18)
F10_9 F 0.05973(10) 0.60762(12) 0.84194(16)
C60_9 C 0.09279(14) 0.61658(15) 0.84283(18)
F11_9 F 0.19027(10) 0.64238(12) 0.84194(16)
O15_3 O 0.28573(6) 0.42355(6) 0.87447(6)
C61_9 C 0.29633(8) 0.45367(8) 0.87224(13)
C62_9 C 0.26976(8) 0.48024(8) 0.86747(14)
C63_9 C 0.27927(11) 0.51345(10) 0.86503(14)
H21_9 H 0.3018 0.5193 0.8670
C64_9 C 0.25544(13) 0.53780(11) 0.8598(2)
H22_9 H 0.2617 0.5602 0.8581
C65_9 C 0.22149(11) 0.52851(11) 0.8569(3)
C66_9 C 0.19611(11) 0.55389(11) 0.8514(3)
C67_9 C 0.17508(13) 0.57492(13) 0.8469(3)
C68_9 C 0.14967(13) 0.60033(13) 0.8437(3)
C69_9 C 0.15721(14) 0.63342(15) 0.84283(18)
F12_9 F 0.10762(12) 0.55973(10) 0.84194(16)
O16_3 O 0.32645(6) 0.46427(6) 0.87447(6)
C70_9 C 0.23655(10) 0.47073(11) 0.86503(14)
H23_9 H 0.2307 0.4482 0.8670
C71_9 C 0.21220(11) 0.49456(13) 0.8598(2)
H24_9 H 0.1898 0.4883 0.8581
C72_9 C 0.11658(15) 0.59279(14) 0.84283(18)
Zr4_3 Zr 0.31292(2) 0.3750 0.8750
Zr6_3 Zr 0.3750 0.43708(2) 0.8750
Zr9_3 Zr 0.3750 0.8750 0.43708(2)
Zr12_3 Zr 0.31292(2) 0.8750 0.3750
F5_5 F 0.84194(16) 0.14238(12) 0.69027(10)
C27_5 C 0.86503(14) 0.01345(10) 0.77927(11)
H9_5 H 0.8670 0.0193 0.8018
C28_5 C 0.8598(2) 0.03780(11) 0.75544(13)
H10_5 H 0.8581 0.0602 0.7617
C29_5 C 0.8569(3) 0.02851(11) 0.72149(11)
C30_5 C 0.8514(3) 0.05389(11) 0.69611(11)
C31_5 C 0.8469(3) 0.07492(13) 0.67508(13)
C32_5 C 0.8437(3) 0.10033(13) 0.64967(13)
C33_5 C 0.84283(18) 0.13342(15) 0.65721(14)
F6_5 F 0.84194(16) 0.05973(10) 0.60762(12)
C36_5 C 0.84283(18) 0.09279(14) 0.61658(15)
F7_5 F 0.84194(16) 0.19027(10) 0.64238(12)
O11_3 O 0.87447(6) 0.28573(6) 0.42355(6)
C37_5 C 0.87224(13) 0.29633(8) 0.45367(8)
C38_5 C 0.86747(14) 0.26976(8) 0.48024(8)
C39_5 C 0.86503(14) 0.27927(11) 0.51345(10)
H13_5 H 0.8670 0.3018 0.5193
C40_5 C 0.8598(2) 0.25544(13) 0.53780(11)
H14_5 H 0.8581 0.2617 0.5602
C41_5 C 0.8569(3) 0.22149(11) 0.52851(11)
C42_5 C 0.8514(3) 0.19611(11) 0.55389(11)
C43_5 C 0.8469(3) 0.17508(13) 0.57492(13)
C44_5 C 0.8437(3) 0.14967(13) 0.60033(13)
C45_5 C 0.84283(18) 0.15721(14) 0.63342(15)
F8_5 F 0.84194(16) 0.10762(12) 0.55973(10)
O12_3 O 0.87447(6) 0.32645(6) 0.46427(6)
C46_5 C 0.86503(14) 0.23655(10) 0.47073(11)
H15_5 H 0.8670 0.2307 0.4482
C47_5 C 0.8598(2) 0.21220(11) 0.49456(13)
H16_5 H 0.8581 0.1898 0.4883
C48_5 C 0.84283(18) 0.11658(15) 0.59279(14)
Zr5_3 Zr 0.8750 0.3750 0.43708(2)
Zr7_2 Zr 0.8750 0.31292(2) 0.3750
Zr1_3 Zr 0.93708(2) 0.8750 0.8750
O1_5 O 0.96427(6) 0.87447(6) 0.82645(6)
O2_5 O 0.90753(15) 0.84247(15) 0.90753(15)
O3_5 O 0.90451(14) 0.90451(14) 0.90451(14)
C1_13 C 0.95367(8) 0.87224(13) 0.79633(8)
C2_13 C 0.98024(8) 0.86747(14) 0.76976(8)
C3_13 C 0.97073(11) 0.86503(14) 0.73655(10)
H1_13 H 0.9482 0.8670 0.7307
C4_13 C 0.99456(13) 0.8598(2) 0.71220(11)
H2_13 H 0.9883 0.8581 0.6898
O4_13 O 0.92355(6) 0.87447(6) 0.78573(6)
Zr2_3 Zr 0.8750 0.8750 0.93708(2)
O7_9 O 0.84247(15) 0.90753(15) 0.90753(15)
Zr3_2 Zr 0.8750 0.93708(2) 0.8750
O8_5 O 0.90451(14) 0.84549(14) 0.84549(14)
O9_5 O 0.87447(6) 0.92355(6) 0.78573(6)
C25_5 C 0.87224(13) 0.95367(8) 0.79633(8)
C26_5 C 0.86747(14) 0.98024(8) 0.76976(8)
O10_5 O 0.87447(6) 0.96427(6) 0.82645(6)
C34_5 C 0.86503(14) 0.97073(11) 0.73655(10)
H11_5 H 0.8670 0.9482 0.7307
C35_5 C 0.8598(2) 0.99456(13) 0.71220(11)
H12_5 H 0.8581 0.9883 0.6898
O13_9 O 0.92355(6) 0.78573(6) 0.87447(6)
C49_9 C 0.95367(8) 0.79633(8) 0.87224(13)
C50_9 C 0.98024(8) 0.76976(8) 0.86747(14)
O14_5 O 0.96427(6) 0.82645(6) 0.87447(6)
C58_9 C 0.97073(11) 0.73655(10) 0.86503(14)
H19_9 H 0.9482 0.7307 0.8670
C59_9 C 0.99456(13) 0.71220(11) 0.8598(2)
H20_9 H 0.9883 0.6898 0.8581
Zr8_3 Zr 0.8750 0.8750 0.81292(2)
Zr10_5 Zr 0.8750 0.81292(2) 0.8750
Zr11_3 Zr 0.81292(2) 0.8750 0.8750
O17_5 O 0.87447(6) 0.82645(6) 0.96427(6)
O18_5 O 0.82645(6) 0.96427(6) 0.87447(6)
O19_5 O 0.96427(6) 0.87553(6) 0.92355(6)
O20_3 O 0.87553(6) 0.92355(6) 0.96427(6)
O21_3 O 0.92355(6) 0.96427(6) 0.87553(6)
O22_3 O 0.96427(6) 0.92355(6) 0.87553(6)
O23_3 O 0.87553(6) 0.96427(6) 0.92355(6)
O24_5 O 0.92355(6) 0.87553(6) 0.96427(6)
O25_5 O 0.82645(6) 0.87447(6) 0.96427(6)
O26_5 O 0.90753(15) 0.90753(15) 0.84247(15)
O27_5 O 0.84549(14) 0.84549(14) 0.90451(14)
O28_5 O 0.84549(14) 0.90451(14) 0.84549(14)
Zr1_4 Zr 0.81292(2) 0.3750 0.3750
F1_14 F 0.69027(10) 0.40806(16) 0.10762(12)
O1_6 O 0.78573(6) 0.37553(6) 0.32645(6)
O2_6 O 0.84247(15) 0.40753(15) 0.40753(15)
O3_6 O 0.84549(14) 0.34549(14) 0.40451(14)
C1_14 C 0.79633(8) 0.37776(13) 0.29633(8)
C2_14 C 0.76976(8) 0.38253(14) 0.26976(8)
C3_14 C 0.77927(11) 0.38497(14) 0.23655(10)
H1_14 H 0.8018 0.3830 0.2307
C4_14 C 0.75544(13) 0.3902(2) 0.21220(11)
H2_14 H 0.7617 0.3919 0.1898
C5_14 C 0.72149(11) 0.3931(3) 0.22149(11)
C6_14 C 0.69611(11) 0.3986(3) 0.19611(11)
C7_14 C 0.67508(13) 0.4031(3) 0.17508(13)
C8_14 C 0.64967(13) 0.4063(3) 0.14967(13)
C9_14 C 0.65721(14) 0.40717(18) 0.11658(15)
F2_14 F 0.60762(12) 0.40806(16) 0.19027(10)
O4_14 O 0.82645(6) 0.37553(6) 0.28573(6)
C10_14 C 0.73655(10) 0.38497(14) 0.27927(11)
H3_14 H 0.7307 0.3830 0.3018
C11_14 C 0.71220(11) 0.3902(2) 0.25544(13)
H4_14 H 0.6898 0.3919 0.2617
C12_14 C 0.61658(15) 0.40717(18) 0.15721(14)
F3_14 F 0.64238(12) 0.40806(16) 0.05973(10)
C17_14 C 0.52851(11) 0.3931(3) 0.02851(11)
C18_14 C 0.55389(11) 0.3986(3) 0.05389(11)
C19_14 C 0.57492(13) 0.4031(3) 0.07492(13)
C20_14 C 0.60033(13) 0.4063(3) 0.10033(13)
C21_14 C 0.63342(15) 0.40717(18) 0.09279(14)
F4_14 F 0.55973(10) 0.40806(16) 0.14238(12)
C22_14 C 0.47073(11) 0.38497(14) 0.01345(10)
H7_14 H 0.4482 0.3830 0.0193
C23_14 C 0.49456(13) 0.3902(2) 0.03780(11)
H8_14 H 0.4883 0.3919 0.0602
C24_14 C 0.59279(14) 0.40717(18) 0.13342(15)
O7_10 O 0.90753(15) 0.34247(15) 0.40753(15)
O8_6 O 0.84549(14) 0.40451(14) 0.34549(14)
F5_6 F 0.90806(16) 0.10762(12) 0.19027(10)
O9_6 O 0.87553(6) 0.32645(6) 0.28573(6)
C25_6 C 0.87776(13) 0.29633(8) 0.29633(8)
C26_6 C 0.88253(14) 0.26976(8) 0.26976(8)
C27_6 C 0.88497(14) 0.23655(10) 0.27927(11)
H9_6 H 0.8830 0.2307 0.3018
C28_6 C 0.8902(2) 0.21220(11) 0.25544(13)
H10_6 H 0.8919 0.1898 0.2617
C29_6 C 0.8931(3) 0.22149(11) 0.22149(11)
C30_6 C 0.8986(3) 0.19611(11) 0.19611(11)
C31_6 C 0.9031(3) 0.17508(13) 0.17508(13)
C32_6 C 0.9063(3) 0.14967(13) 0.14967(13)
C33_6 C 0.90717(18) 0.11658(15) 0.15721(14)
F6_6 F 0.90806(16) 0.19027(10) 0.10762(12)
O10_6 O 0.87553(6) 0.28573(6) 0.32645(6)
C34_6 C 0.88497(14) 0.27927(11) 0.23655(10)
H11_6 H 0.8830 0.3018 0.2307
C35_6 C 0.8902(2) 0.25544(13) 0.21220(11)
H12_6 H 0.8919 0.2617 0.1898
C36_6 C 0.90717(18) 0.15721(14) 0.11658(15)
F7_6 F 0.90806(16) 0.05973(10) 0.14238(12)
C41_6 C 0.8931(3) 0.02851(11) 0.02851(11)
C42_6 C 0.8986(3) 0.05389(11) 0.05389(11)
C43_6 C 0.9031(3) 0.07492(13) 0.07492(13)
C44_6 C 0.9063(3) 0.10033(13) 0.10033(13)
C45_6 C 0.90717(18) 0.09279(14) 0.13342(15)
F8_6 F 0.90806(16) 0.14238(12) 0.05973(10)
C48_6 C 0.90717(18) 0.13342(15) 0.09279(14)
F9_10 F 0.60762(12) 0.55973(10) 0.34194(16)
O13_10 O 0.82645(6) 0.46427(6) 0.37447(6)
C49_10 C 0.79633(8) 0.45367(8) 0.37224(13)
C50_10 C 0.76976(8) 0.48024(8) 0.36747(14)
C51_10 C 0.73655(10) 0.47073(11) 0.36503(14)
H17_10 H 0.7307 0.4482 0.3670
C52_10 C 0.71220(11) 0.49456(13) 0.3598(2)
H18_10 H 0.6898 0.4883 0.3581
C53_10 C 0.72149(11) 0.52851(11) 0.3569(3)
C54_10 C 0.69611(11) 0.55389(11) 0.3514(3)
C55_10 C 0.67508(13) 0.57492(13) 0.3469(3)
C56_10 C 0.64967(13) 0.60033(13) 0.3437(3)
C57_10 C 0.61658(15) 0.59279(14) 0.34283(18)
F10_10 F 0.69027(10) 0.64238(12) 0.34194(16)
O14_6 O 0.78573(6) 0.42355(6) 0.37447(6)
C58_10 C 0.77927(11) 0.51345(10) 0.36503(14)
H19_10 H 0.8018 0.5193 0.3670
C59_10 C 0.75544(13) 0.53780(11) 0.3598(2)
H20_10 H 0.7617 0.5602 0.3581
C60_10 C 0.65721(14) 0.63342(15) 0.34283(18)
F11_10 F 0.55973(10) 0.60762(12) 0.34194(16)
O15_4 O 0.46427(6) 0.82645(6) 0.37447(6)
C61_10 C 0.45367(8) 0.79633(8) 0.37224(13)
C62_10 C 0.48024(8) 0.76976(8) 0.36747(14)
C63_10 C 0.47073(11) 0.73655(10) 0.36503(14)
H21_10 H 0.4482 0.7307 0.3670
C64_10 C 0.49456(13) 0.71220(11) 0.3598(2)
H22_10 H 0.4883 0.6898 0.3581
C65_10 C 0.52851(11) 0.72149(11) 0.3569(3)
C66_10 C 0.55389(11) 0.69611(11) 0.3514(3)
C67_10 C 0.57492(13) 0.67508(13) 0.3469(3)
C68_10 C 0.60033(13) 0.64967(13) 0.3437(3)
C69_10 C 0.59279(14) 0.61658(15) 0.34283(18)
F12_10 F 0.64238(12) 0.69027(10) 0.34194(16)
O16_4 O 0.42355(6) 0.78573(6) 0.37447(6)
C70_10 C 0.51345(10) 0.77927(11) 0.36503(14)
H23_10 H 0.5193 0.8018 0.3670
C71_10 C 0.53780(11) 0.75544(13) 0.3598(2)
H24_10 H 0.5602 0.7617 0.3581
C72_10 C 0.63342(15) 0.65721(14) 0.34283(18)
Zr4_4 Zr 0.43708(2) 0.8750 0.3750
Zr6_4 Zr 0.3750 0.81292(2) 0.3750
Zr8_4 Zr 0.8750 0.3750 0.31292(2)
Zr10_6 Zr 0.8750 0.43708(2) 0.3750
Zr11_4 Zr 0.93708(2) 0.3750 0.3750
O17_6 O 0.87553(6) 0.42355(6) 0.46427(6)
O18_6 O 0.92355(6) 0.28573(6) 0.37447(6)
O19_6 O 0.78573(6) 0.37447(6) 0.42355(6)
O21_4 O 0.82645(6) 0.28573(6) 0.37553(6)
O22_4 O 0.78573(6) 0.32645(6) 0.37553(6)
O24_6 O 0.82645(6) 0.37447(6) 0.46427(6)
O25_6 O 0.92355(6) 0.37553(6) 0.46427(6)
O26_6 O 0.84247(15) 0.34247(15) 0.34247(15)
O27_6 O 0.90451(14) 0.40451(14) 0.40451(14)
O28_6 O 0.90451(14) 0.34549(14) 0.34549(14)
O5_14 O 0.42355(6) 0.37553(6) 0.96427(6)
C13_14 C 0.45367(8) 0.37776(13) 0.95367(8)
C14_14 C 0.48024(8) 0.38253(14) 0.98024(8)
C15_14 C 0.51345(10) 0.38497(14) 0.97073(11)
H5_14 H 0.5193 0.3830 0.9482
C16_14 C 0.53780(11) 0.3902(2) 0.99456(13)
H6_14 H 0.5602 0.3919 0.9883
O6_14 O 0.46427(6) 0.37553(6) 0.92355(6)
C46_6 C 0.88497(14) 0.01345(10) 0.97073(11)
H15_6 H 0.8830 0.0193 0.9482
C47_6 C 0.8902(2) 0.03780(11) 0.99456(13)
H16_6 H 0.8919 0.0602 0.9883
Zr9_4 Zr 0.3750 0.3750 0.93708(2)
Zr12_4 Zr 0.43708(2) 0.3750 0.8750
C39_6 C 0.88497(14) 0.97073(11) 0.01345(10)
H13_6 H 0.8830 0.9482 0.0193
C40_6 C 0.8902(2) 0.99456(13) 0.03780(11)
H14_6 H 0.8919 0.9883 0.0602
C37_6 C 0.87776(13) 0.95367(8) 0.95367(8)
C38_6 C 0.88253(14) 0.98024(8) 0.98024(8)
F9_11 F 0.64238(12) 0.05973(10) 0.40806(16)
C53_11 C 0.52851(11) 0.02851(11) 0.3931(3)
C54_11 C 0.55389(11) 0.05389(11) 0.3986(3)
C55_11 C 0.57492(13) 0.07492(13) 0.4031(3)
C56_11 C 0.60033(13) 0.10033(13) 0.4063(3)
C57_11 C 0.63342(15) 0.09279(14) 0.40717(18)
F10_11 F 0.55973(10) 0.14238(12) 0.40806(16)
C58_11 C 0.47073(11) 0.01345(10) 0.38497(14)
H19_11 H 0.4482 0.0193 0.3830
C59_11 C 0.49456(13) 0.03780(11) 0.3902(2)
H20_11 H 0.4883 0.0602 0.3919
C60_11 C 0.59279(14) 0.13342(15) 0.40717(18)
F11_11 F 0.69027(10) 0.10762(12) 0.40806(16)
C61_11 C 0.79633(8) 0.29633(8) 0.37776(13)
C62_11 C 0.76976(8) 0.26976(8) 0.38253(14)
C63_11 C 0.77927(11) 0.23655(10) 0.38497(14)
H21_11 H 0.8018 0.2307 0.3830
C64_11 C 0.75544(13) 0.21220(11) 0.3902(2)
H22_11 H 0.7617 0.1898 0.3919
C65_11 C 0.72149(11) 0.22149(11) 0.3931(3)
C66_11 C 0.69611(11) 0.19611(11) 0.3986(3)
C67_11 C 0.67508(13) 0.17508(13) 0.4031(3)
C68_11 C 0.64967(13) 0.14967(13) 0.4063(3)
C69_11 C 0.65721(14) 0.11658(15) 0.40717(18)
F12_11 F 0.60762(12) 0.19027(10) 0.40806(16)
C70_11 C 0.73655(10) 0.27927(11) 0.38497(14)
H23_11 H 0.7307 0.3018 0.3830
C71_11 C 0.71220(11) 0.25544(13) 0.3902(2)
H24_11 H 0.6898 0.2617 0.3919
C72_11 C 0.61658(15) 0.15721(14) 0.40717(18)
F1_15 F 0.55973(10) 0.90806(16) 0.64238(12)
O1_7 O 0.46427(6) 0.87553(6) 0.42355(6)
O2_7 O 0.40753(15) 0.90753(15) 0.34247(15)
O3_7 O 0.40451(14) 0.84549(14) 0.34549(14)
C1_15 C 0.45367(8) 0.87776(13) 0.45367(8)
C2_15 C 0.48024(8) 0.88253(14) 0.48024(8)
C3_15 C 0.47073(11) 0.88497(14) 0.51345(10)
H1_15 H 0.4482 0.8830 0.5193
C4_15 C 0.49456(13) 0.8902(2) 0.53780(11)
H2_15 H 0.4883 0.8919 0.5602
C5_15 C 0.52851(11) 0.8931(3) 0.52851(11)
C6_15 C 0.55389(11) 0.8986(3) 0.55389(11)
C7_15 C 0.57492(13) 0.9031(3) 0.57492(13)
C8_15 C 0.60033(13) 0.9063(3) 0.60033(13)
C9_15 C 0.59279(14) 0.90717(18) 0.63342(15)
F2_15 F 0.64238(12) 0.90806(16) 0.55973(10)
O4_15 O 0.42355(6) 0.87553(6) 0.46427(6)
C10_15 C 0.51345(10) 0.88497(14) 0.47073(11)
H3_15 H 0.5193 0.8830 0.4482
C11_15 C 0.53780(11) 0.8902(2) 0.49456(13)
H4_15 H 0.5602 0.8919 0.4883
C12_15 C 0.63342(15) 0.90717(18) 0.59279(14)
F3_15 F 0.60762(12) 0.90806(16) 0.69027(10)
O5_15 O 0.82645(6) 0.87553(6) 0.78573(6)
C13_15 C 0.79633(8) 0.87776(13) 0.79633(8)
C14_15 C 0.76976(8) 0.88253(14) 0.76976(8)
C15_15 C 0.73655(10) 0.88497(14) 0.77927(11)
H5_15 H 0.7307 0.8830 0.8018
C16_15 C 0.71220(11) 0.8902(2) 0.75544(13)
H6_15 H 0.6898 0.8919 0.7617
C17_15 C 0.72149(11) 0.8931(3) 0.72149(11)
C18_15 C 0.69611(11) 0.8986(3) 0.69611(11)
C19_15 C 0.67508(13) 0.9031(3) 0.67508(13)
C20_15 C 0.64967(13) 0.9063(3) 0.64967(13)
C21_15 C 0.61658(15) 0.90717(18) 0.65721(14)
F4_15 F 0.69027(10) 0.90806(16) 0.60762(12)
O6_15 O 0.78573(6) 0.87553(6) 0.82645(6)
C22_15 C 0.77927(11) 0.88497(14) 0.73655(10)
H7_15 H 0.8018 0.8830 0.7307
C23_15 C 0.75544(13) 0.8902(2) 0.71220(11)
H8_15 H 0.7617 0.8919 0.6898
C24_15 C 0.65721(14) 0.90717(18) 0.61658(15)
Zr2_4 Zr 0.3750 0.8750 0.31292(2)
O7_11 O 0.34247(15) 0.84247(15) 0.34247(15)
O8_7 O 0.40451(14) 0.90451(14) 0.40451(14)
F5_7 F 0.34194(16) 0.60762(12) 0.55973(10)
O9_7 O 0.37447(6) 0.82645(6) 0.46427(6)
C25_7 C 0.37224(13) 0.79633(8) 0.45367(8)
C26_7 C 0.36747(14) 0.76976(8) 0.48024(8)
C27_7 C 0.36503(14) 0.73655(10) 0.47073(11)
H9_7 H 0.3670 0.7307 0.4482
C28_7 C 0.3598(2) 0.71220(11) 0.49456(13)
H10_7 H 0.3581 0.6898 0.4883
C29_7 C 0.3569(3) 0.72149(11) 0.52851(11)
C30_7 C 0.3514(3) 0.69611(11) 0.55389(11)
C31_7 C 0.3469(3) 0.67508(13) 0.57492(13)
C32_7 C 0.3437(3) 0.64967(13) 0.60033(13)
C33_7 C 0.34283(18) 0.61658(15) 0.59279(14)
F6_7 F 0.34194(16) 0.69027(10) 0.64238(12)
O10_7 O 0.37447(6) 0.78573(6) 0.42355(6)
C34_7 C 0.36503(14) 0.77927(11) 0.51345(10)
H11_7 H 0.3670 0.8018 0.5193
C35_7 C 0.3598(2) 0.75544(13) 0.53780(11)
H12_7 H 0.3581 0.7617 0.5602
C36_7 C 0.34283(18) 0.65721(14) 0.63342(15)
F7_7 F 0.34194(16) 0.55973(10) 0.60762(12)
O11_4 O 0.37447(6) 0.46427(6) 0.82645(6)
C37_7 C 0.37224(13) 0.45367(8) 0.79633(8)
C38_7 C 0.36747(14) 0.48024(8) 0.76976(8)
C39_7 C 0.36503(14) 0.47073(11) 0.73655(10)
H13_7 H 0.3670 0.4482 0.7307
C40_7 C 0.3598(2) 0.49456(13) 0.71220(11)
H14_7 H 0.3581 0.4883 0.6898
C41_7 C 0.3569(3) 0.52851(11) 0.72149(11)
C42_7 C 0.3514(3) 0.55389(11) 0.69611(11)
C43_7 C 0.3469(3) 0.57492(13) 0.67508(13)
C44_7 C 0.3437(3) 0.60033(13) 0.64967(13)
C45_7 C 0.34283(18) 0.59279(14) 0.61658(15)
F8_7 F 0.34194(16) 0.64238(12) 0.69027(10)
O12_4 O 0.37447(6) 0.42355(6) 0.78573(6)
C46_7 C 0.36503(14) 0.51345(10) 0.77927(11)
H15_7 H 0.3670 0.5193 0.8018
C47_7 C 0.3598(2) 0.53780(11) 0.75544(13)
H16_7 H 0.3581 0.5602 0.7617
C48_7 C 0.34283(18) 0.63342(15) 0.65721(14)
O13_11 O 0.42355(6) 0.96427(6) 0.37553(6)
C49_11 C 0.45367(8) 0.95367(8) 0.37776(13)
C50_11 C 0.48024(8) 0.98024(8) 0.38253(14)
C51_11 C 0.51345(10) 0.97073(11) 0.38497(14)
H17_11 H 0.5193 0.9482 0.3830
C52_11 C 0.53780(11) 0.99456(13) 0.3902(2)
H18_11 H 0.5602 0.9883 0.3919
O14_7 O 0.46427(6) 0.92355(6) 0.37553(6)
Zr5_4 Zr 0.3750 0.3750 0.81292(2)
Zr10_7 Zr 0.3750 0.93708(2) 0.3750
O17_7 O 0.37447(6) 0.92355(6) 0.28573(6)
O18_7 O 0.32645(6) 0.78573(6) 0.37553(6)
O19_7 O 0.46427(6) 0.87447(6) 0.32645(6)
O20_4 O 0.37553(6) 0.82645(6) 0.28573(6)
O23_4 O 0.37553(6) 0.78573(6) 0.32645(6)
O24_7 O 0.42355(6) 0.87447(6) 0.28573(6)
O25_7 O 0.32645(6) 0.87553(6) 0.28573(6)
O26_7 O 0.40753(15) 0.84247(15) 0.40753(15)
O27_7 O 0.34549(14) 0.90451(14) 0.34549(14)
O28_7 O 0.34549(14) 0.84549(14) 0.40451(14)
F1_16 F 0.19027(10) 0.34194(16) 0.14238(12)
C3_16 C 0.27927(11) 0.36503(14) 0.01345(10)
H1_16 H 0.3018 0.3670 0.0193
C4_16 C 0.25544(13) 0.3598(2) 0.03780(11)
H2_16 H 0.2617 0.3581 0.0602
C5_16 C 0.22149(11) 0.3569(3) 0.02851(11)
C6_16 C 0.19611(11) 0.3514(3) 0.05389(11)
C7_16 C 0.17508(13) 0.3469(3) 0.07492(13)
C8_16 C 0.14967(13) 0.3437(3) 0.10033(13)
C9_16 C 0.15721(14) 0.34283(18) 0.13342(15)
F2_16 F 0.10762(12) 0.34194(16) 0.05973(10)
C12_16 C 0.11658(15) 0.34283(18) 0.09279(14)
F3_16 F 0.14238(12) 0.34194(16) 0.19027(10)
C15_16 C 0.01345(10) 0.36503(14) 0.27927(11)
H5_16 H 0.0193 0.3670 0.3018
C16_16 C 0.03780(11) 0.3598(2) 0.25544(13)
H6_16 H 0.0602 0.3581 0.2617
C17_16 C 0.02851(11) 0.3569(3) 0.22149(11)
C18_16 C 0.05389(11) 0.3514(3) 0.19611(11)
C19_16 C 0.07492(13) 0.3469(3) 0.17508(13)
C20_16 C 0.10033(13) 0.3437(3) 0.14967(13)
C21_16 C 0.13342(15) 0.34283(18) 0.15721(14)
F4_16 F 0.05973(10) 0.34194(16) 0.10762(12)
C24_16 C 0.09279(14) 0.34283(18) 0.11658(15)
F5_8 F 0.40806(16) 0.64238(12) 0.05973(10)
C29_8 C 0.3931(3) 0.52851(11) 0.02851(11)
C30_8 C 0.3986(3) 0.55389(11) 0.05389(11)
C31_8 C 0.4031(3) 0.57492(13) 0.07492(13)
C32_8 C 0.4063(3) 0.60033(13) 0.10033(13)
C33_8 C 0.40717(18) 0.63342(15) 0.09279(14)
F6_8 F 0.40806(16) 0.55973(10) 0.14238(12)
C34_8 C 0.38497(14) 0.47073(11) 0.01345(10)
H11_8 H 0.3830 0.4482 0.0193
C35_8 C 0.3902(2) 0.49456(13) 0.03780(11)
H12_8 H 0.3919 0.4883 0.0602
C36_8 C 0.40717(18) 0.59279(14) 0.13342(15)
F7_8 F 0.40806(16) 0.69027(10) 0.10762(12)
C37_8 C 0.37776(13) 0.79633(8) 0.29633(8)
C38_8 C 0.38253(14) 0.76976(8) 0.26976(8)
C39_8 C 0.38497(14) 0.77927(11) 0.23655(10)
H13_8 H 0.3830 0.8018 0.2307
C40_8 C 0.3902(2) 0.75544(13) 0.21220(11)
H14_8 H 0.3919 0.7617 0.1898
C41_8 C 0.3931(3) 0.72149(11) 0.22149(11)
C42_8 C 0.3986(3) 0.69611(11) 0.19611(11)
C43_8 C 0.4031(3) 0.67508(13) 0.17508(13)
C44_8 C 0.4063(3) 0.64967(13) 0.14967(13)
C45_8 C 0.40717(18) 0.65721(14) 0.11658(15)
F8_8 F 0.40806(16) 0.60762(12) 0.19027(10)
C46_8 C 0.38497(14) 0.73655(10) 0.27927(11)
H15_8 H 0.3830 0.7307 0.3018
C47_8 C 0.3902(2) 0.71220(11) 0.25544(13)
H16_8 H 0.3919 0.6898 0.2617
C48_8 C 0.40717(18) 0.61658(15) 0.15721(14)
O1_8 O 0.28573(6) 0.37447(6) 0.92355(6)
O2_8 O 0.34247(15) 0.34247(15) 0.84247(15)
O3_8 O 0.34549(14) 0.40451(14) 0.84549(14)
C1_16 C 0.29633(8) 0.37224(13) 0.95367(8)
C2_16 C 0.26976(8) 0.36747(14) 0.98024(8)
O4_16 O 0.32645(6) 0.37447(6) 0.96427(6)
C10_16 C 0.23655(10) 0.36503(14) 0.97073(11)
H3_16 H 0.2307 0.3670 0.9482
C11_16 C 0.21220(11) 0.3598(2) 0.99456(13)
H4_16 H 0.1898 0.3581 0.9883
O7_12 O 0.40753(15) 0.40753(15) 0.84247(15)
O8_8 O 0.34549(14) 0.34549(14) 0.90451(14)
O9_8 O 0.37553(6) 0.42355(6) 0.96427(6)
C25_8 C 0.37776(13) 0.45367(8) 0.95367(8)
C26_8 C 0.38253(14) 0.48024(8) 0.98024(8)
C27_8 C 0.38497(14) 0.51345(10) 0.97073(11)
H9_8 H 0.3830 0.5193 0.9482
C28_8 C 0.3902(2) 0.53780(11) 0.99456(13)
H10_8 H 0.3919 0.5602 0.9883
O10_8 O 0.37553(6) 0.46427(6) 0.92355(6)
F9_12 F 0.10762(12) 0.19027(10) 0.90806(16)
O13_12 O 0.32645(6) 0.28573(6) 0.87553(6)
C49_12 C 0.29633(8) 0.29633(8) 0.87776(13)
C50_12 C 0.26976(8) 0.26976(8) 0.88253(14)
C51_12 C 0.23655(10) 0.27927(11) 0.88497(14)
H17_12 H 0.2307 0.3018 0.8830
C52_12 C 0.21220(11) 0.25544(13) 0.8902(2)
H18_12 H 0.1898 0.2617 0.8919
C53_12 C 0.22149(11) 0.22149(11) 0.8931(3)
C54_12 C 0.19611(11) 0.19611(11) 0.8986(3)
C55_12 C 0.17508(13) 0.17508(13) 0.9031(3)
C56_12 C 0.14967(13) 0.14967(13) 0.9063(3)
C57_12 C 0.11658(15) 0.15721(14) 0.90717(18)
F10_12 F 0.19027(10) 0.10762(12) 0.90806(16)
O14_8 O 0.28573(6) 0.32645(6) 0.87553(6)
C58_12 C 0.27927(11) 0.23655(10) 0.88497(14)
H19_12 H 0.3018 0.2307 0.8830
C59_12 C 0.25544(13) 0.21220(11) 0.8902(2)
H20_12 H 0.2617 0.1898 0.8919
C60_12 C 0.15721(14) 0.11658(15) 0.90717(18)
F11_12 F 0.05973(10) 0.14238(12) 0.90806(16)
C65_12 C 0.02851(11) 0.02851(11) 0.8931(3)
C66_12 C 0.05389(11) 0.05389(11) 0.8986(3)
C67_12 C 0.07492(13) 0.07492(13) 0.9031(3)
C68_12 C 0.10033(13) 0.10033(13) 0.9063(3)
C69_12 C 0.09279(14) 0.13342(15) 0.90717(18)
F12_12 F 0.14238(12) 0.05973(10) 0.90806(16)
C72_12 C 0.13342(15) 0.09279(14) 0.90717(18)
Zr10_8 Zr 0.3750 0.31292(2) 0.8750
O17_8 O 0.37553(6) 0.32645(6) 0.78573(6)
O18_8 O 0.42355(6) 0.46427(6) 0.87553(6)
O19_8 O 0.28573(6) 0.37553(6) 0.82645(6)
O24_8 O 0.32645(6) 0.37553(6) 0.78573(6)
O25_8 O 0.42355(6) 0.37447(6) 0.78573(6)
O26_8 O 0.34247(15) 0.40753(15) 0.90753(15)
O27_8 O 0.40451(14) 0.34549(14) 0.84549(14)
O28_8 O 0.40451(14) 0.40451(14) 0.90451(14)
C70_12 C 0.01345(10) 0.97073(11) 0.88497(14)
H23_12 H 0.0193 0.9482 0.8830
C71_12 C 0.03780(11) 0.99456(13) 0.8902(2)
H24_12 H 0.0602 0.9883 0.8919
O5_16 O 0.92355(6) 0.37447(6) 0.28573(6)
C13_16 C 0.95367(8) 0.37224(13) 0.29633(8)
C14_16 C 0.98024(8) 0.36747(14) 0.26976(8)
O6_16 O 0.96427(6) 0.37447(6) 0.32645(6)
C22_16 C 0.97073(11) 0.36503(14) 0.23655(10)
H7_16 H 0.9482 0.3670 0.2307
C23_16 C 0.99456(13) 0.3598(2) 0.21220(11)
H8_16 H 0.9883 0.3581 0.1898
C63_12 C 0.97073(11) 0.01345(10) 0.88497(14)
H21_12 H 0.9482 0.0193 0.8830
C64_12 C 0.99456(13) 0.03780(11) 0.8902(2)
H22_12 H 0.9883 0.0602 0.8919
C61_12 C 0.95367(8) 0.95367(8) 0.87776(13)
C62_12 C 0.98024(8) 0.98024(8) 0.88253(14)
F1_17 F 0.34194(16) 0.14238(12) 0.19027(10)
C3_17 C 0.36503(14) 0.01345(10) 0.27927(11)
H1_17 H 0.3670 0.0193 0.3018
C4_17 C 0.3598(2) 0.03780(11) 0.25544(13)
H2_17 H 0.3581 0.0602 0.2617
C5_17 C 0.3569(3) 0.02851(11) 0.22149(11)
C6_17 C 0.3514(3) 0.05389(11) 0.19611(11)
C7_17 C 0.3469(3) 0.07492(13) 0.17508(13)
C8_17 C 0.3437(3) 0.10033(13) 0.14967(13)
C9_17 C 0.34283(18) 0.13342(15) 0.15721(14)
F2_17 F 0.34194(16) 0.05973(10) 0.10762(12)
C12_17 C 0.34283(18) 0.09279(14) 0.11658(15)
F3_17 F 0.34194(16) 0.19027(10) 0.14238(12)
C15_17 C 0.36503(14) 0.27927(11) 0.01345(10)
H5_17 H 0.3670 0.3018 0.0193
C16_17 C 0.3598(2) 0.25544(13) 0.03780(11)
H6_17 H 0.3581 0.2617 0.0602
C17_17 C 0.3569(3) 0.22149(11) 0.02851(11)
C18_17 C 0.3514(3) 0.19611(11) 0.05389(11)
C19_17 C 0.3469(3) 0.17508(13) 0.07492(13)
C20_17 C 0.3437(3) 0.14967(13) 0.10033(13)
C21_17 C 0.34283(18) 0.15721(14) 0.13342(15)
F4_17 F 0.34194(16) 0.10762(12) 0.05973(10)
C24_17 C 0.34283(18) 0.11658(15) 0.09279(14)
O5_17 O 0.37447(6) 0.28573(6) 0.92355(6)
C13_17 C 0.37224(13) 0.29633(8) 0.95367(8)
C14_17 C 0.36747(14) 0.26976(8) 0.98024(8)
O6_17 O 0.37447(6) 0.32645(6) 0.96427(6)
C22_17 C 0.36503(14) 0.23655(10) 0.97073(11)
H7_17 H 0.3670 0.2307 0.9482
C23_17 C 0.3598(2) 0.21220(11) 0.99456(13)
H8_17 H 0.3581 0.1898 0.9883
C1_17 C 0.37224(13) 0.95367(8) 0.29633(8)
C2_17 C 0.36747(14) 0.98024(8) 0.26976(8)
O4_17 O 0.37447(6) 0.96427(6) 0.32645(6)
C10_17 C 0.36503(14) 0.97073(11) 0.23655(10)
H3_17 H 0.3670 0.9482 0.2307
C11_17 C 0.3598(2) 0.99456(13) 0.21220(11)
H4_17 H 0.3581 0.9883 0.1898
F9_13 F 0.19027(10) 0.90806(16) 0.10762(12)
O13_13 O 0.28573(6) 0.87553(6) 0.32645(6)
C49_13 C 0.29633(8) 0.87776(13) 0.29633(8)
C50_13 C 0.26976(8) 0.88253(14) 0.26976(8)
C51_13 C 0.27927(11) 0.88497(14) 0.23655(10)
H17_13 H 0.3018 0.8830 0.2307
C52_13 C 0.25544(13) 0.8902(2) 0.21220(11)
H18_13 H 0.2617 0.8919 0.1898
C53_13 C 0.22149(11) 0.8931(3) 0.22149(11)
C54_13 C 0.19611(11) 0.8986(3) 0.19611(11)
C55_13 C 0.17508(13) 0.9031(3) 0.17508(13)
C56_13 C 0.14967(13) 0.9063(3) 0.14967(13)
C57_13 C 0.15721(14) 0.90717(18) 0.11658(15)
F10_13 F 0.10762(12) 0.90806(16) 0.19027(10)
C58_13 C 0.23655(10) 0.88497(14) 0.27927(11)
H19_13 H 0.2307 0.8830 0.3018
C59_13 C 0.21220(11) 0.8902(2) 0.25544(13)
H20_13 H 0.1898 0.8919 0.2617
C60_13 C 0.11658(15) 0.90717(18) 0.15721(14)
F11_13 F 0.14238(12) 0.90806(16) 0.05973(10)
C65_13 C 0.02851(11) 0.8931(3) 0.02851(11)
C66_13 C 0.05389(11) 0.8986(3) 0.05389(11)
C67_13 C 0.07492(13) 0.9031(3) 0.07492(13)
C68_13 C 0.10033(13) 0.9063(3) 0.10033(13)
C69_13 C 0.13342(15) 0.90717(18) 0.09279(14)
F12_13 F 0.05973(10) 0.90806(16) 0.14238(12)
C72_13 C 0.09279(14) 0.90717(18) 0.13342(15)
C63_13 C 0.01345(10) 0.88497(14) 0.97073(11)
H21_13 H 0.0193 0.8830 0.9482
C64_13 C 0.03780(11) 0.8902(2) 0.99456(13)
H22_13 H 0.0602 0.8919 0.9883
C70_13 C 0.97073(11) 0.88497(14) 0.01345(10)
H23_13 H 0.9482 0.8830 0.0193
C71_13 C 0.99456(13) 0.8902(2) 0.03780(11)
H24_13 H 0.9883 0.8919 0.0602
C61_13 C 0.95367(8) 0.87776(13) 0.95367(8)
C62_13 C 0.98024(8) 0.88253(14) 0.98024(8)
F9_14 F 0.05973(10) 0.40806(16) 0.64238(12)
C53_14 C 0.02851(11) 0.3931(3) 0.52851(11)
C54_14 C 0.05389(11) 0.3986(3) 0.55389(11)
C55_14 C 0.07492(13) 0.4031(3) 0.57492(13)
C56_14 C 0.10033(13) 0.4063(3) 0.60033(13)
C57_14 C 0.09279(14) 0.40717(18) 0.63342(15)
F10_14 F 0.14238(12) 0.40806(16) 0.55973(10)
C58_14 C 0.01345(10) 0.38497(14) 0.47073(11)
H19_14 H 0.0193 0.3830 0.4482
C59_14 C 0.03780(11) 0.3902(2) 0.49456(13)
H20_14 H 0.0602 0.3919 0.4883
C60_14 C 0.13342(15) 0.40717(18) 0.59279(14)
F11_14 F 0.10762(12) 0.40806(16) 0.69027(10)
C61_14 C 0.29633(8) 0.37776(13) 0.79633(8)
C62_14 C 0.26976(8) 0.38253(14) 0.76976(8)
C63_14 C 0.23655(10) 0.38497(14) 0.77927(11)
H21_14 H 0.2307 0.3830 0.8018
C64_14 C 0.21220(11) 0.3902(2) 0.75544(13)
H22_14 H 0.1898 0.3919 0.7617
C65_14 C 0.22149(11) 0.3931(3) 0.72149(11)
C66_14 C 0.19611(11) 0.3986(3) 0.69611(11)
C67_14 C 0.17508(13) 0.4031(3) 0.67508(13)
C68_14 C 0.14967(13) 0.4063(3) 0.64967(13)
C69_14 C 0.11658(15) 0.40717(18) 0.65721(14)
F12_14 F 0.19027(10) 0.40806(16) 0.60762(12)
C70_14 C 0.27927(11) 0.38497(14) 0.73655(10)
H23_14 H 0.3018 0.3830 0.7307
C71_14 C 0.25544(13) 0.3902(2) 0.71220(11)
H24_14 H 0.2617 0.3919 0.6898
C72_14 C 0.15721(14) 0.40717(18) 0.61658(15)
F1_18 F 0.90806(16) 0.64238(12) 0.55973(10)
C1_18 C 0.87776(13) 0.45367(8) 0.45367(8)
C2_18 C 0.88253(14) 0.48024(8) 0.48024(8)
C3_18 C 0.88497(14) 0.51345(10) 0.47073(11)
H1_18 H 0.8830 0.5193 0.4482
C4_18 C 0.8902(2) 0.53780(11) 0.49456(13)
H2_18 H 0.8919 0.5602 0.4883
C5_18 C 0.8931(3) 0.52851(11) 0.52851(11)
C6_18 C 0.8986(3) 0.55389(11) 0.55389(11)
C7_18 C 0.9031(3) 0.57492(13) 0.57492(13)
C8_18 C 0.9063(3) 0.60033(13) 0.60033(13)
C9_18 C 0.90717(18) 0.63342(15) 0.59279(14)
F2_18 F 0.90806(16) 0.55973(10) 0.64238(12)
O4_18 O 0.87553(6) 0.46427(6) 0.42355(6)
C10_18 C 0.88497(14) 0.47073(11) 0.51345(10)
H3_18 H 0.8830 0.4482 0.5193
C11_18 C 0.8902(2) 0.49456(13) 0.53780(11)
H4_18 H 0.8919 0.4883 0.5602
C12_18 C 0.90717(18) 0.59279(14) 0.63342(15)
F3_18 F 0.90806(16) 0.69027(10) 0.60762(12)
O5_18 O 0.87553(6) 0.78573(6) 0.82645(6)
C13_18 C 0.87776(13) 0.79633(8) 0.79633(8)
C14_18 C 0.88253(14) 0.76976(8) 0.76976(8)
C15_18 C 0.88497(14) 0.77927(11) 0.73655(10)
H5_18 H 0.8830 0.8018 0.7307
C16_18 C 0.8902(2) 0.75544(13) 0.71220(11)
H6_18 H 0.8919 0.7617 0.6898
C17_18 C 0.8931(3) 0.72149(11) 0.72149(11)
C18_18 C 0.8986(3) 0.69611(11) 0.69611(11)
C19_18 C 0.9031(3) 0.67508(13) 0.67508(13)
C20_18 C 0.9063(3) 0.64967(13) 0.64967(13)
C21_18 C 0.90717(18) 0.65721(14) 0.61658(15)
F4_18 F 0.90806(16) 0.60762(12) 0.69027(10)
O6_18 O 0.87553(6) 0.82645(6) 0.78573(6)
C22_18 C 0.88497(14) 0.73655(10) 0.77927(11)
H7_18 H 0.8830 0.7307 0.8018
C23_18 C 0.8902(2) 0.71220(11) 0.75544(13)
H8_18 H 0.8919 0.6898 0.7617
C24_18 C 0.90717(18) 0.61658(15) 0.65721(14)
O13_14 O 0.96427(6) 0.37553(6) 0.42355(6)
C49_14 C 0.95367(8) 0.37776(13) 0.45367(8)
C50_14 C 0.98024(8) 0.38253(14) 0.48024(8)
C51_14 C 0.97073(11) 0.38497(14) 0.51345(10)
H17_14 H 0.9482 0.3830 0.5193
C52_14 C 0.99456(13) 0.3902(2) 0.53780(11)
H18_14 H 0.9883 0.3919 0.5602
F1_19 F 0.40806(16) 0.10762(12) 0.69027(10)
C1_19 C 0.37776(13) 0.29633(8) 0.79633(8)
C2_19 C 0.38253(14) 0.26976(8) 0.76976(8)
C3_19 C 0.38497(14) 0.23655(10) 0.77927(11)
H1_19 H 0.3830 0.2307 0.8018
C4_19 C 0.3902(2) 0.21220(11) 0.75544(13)
H2_19 H 0.3919 0.1898 0.7617
C5_19 C 0.3931(3) 0.22149(11) 0.72149(11)
C6_19 C 0.3986(3) 0.19611(11) 0.69611(11)
C7_19 C 0.4031(3) 0.17508(13) 0.67508(13)
C8_19 C 0.4063(3) 0.14967(13) 0.64967(13)
C9_19 C 0.40717(18) 0.11658(15) 0.65721(14)
F2_19 F 0.40806(16) 0.19027(10) 0.60762(12)
O4_19 O 0.37553(6) 0.28573(6) 0.82645(6)
C10_19 C 0.38497(14) 0.27927(11) 0.73655(10)
H3_19 H 0.3830 0.3018 0.7307
C11_19 C 0.3902(2) 0.25544(13) 0.71220(11)
H4_19 H 0.3919 0.2617 0.6898
C12_19 C 0.40717(18) 0.15721(14) 0.61658(15)
F3_19 F 0.40806(16) 0.05973(10) 0.64238(12)
C17_19 C 0.3931(3) 0.02851(11) 0.52851(11)
C18_19 C 0.3986(3) 0.05389(11) 0.55389(11)
C19_19 C 0.4031(3) 0.07492(13) 0.57492(13)
C20_19 C 0.4063(3) 0.10033(13) 0.60033(13)
C21_19 C 0.40717(18) 0.09279(14) 0.63342(15)
F4_19 F 0.40806(16) 0.14238(12) 0.55973(10)
C22_19 C 0.38497(14) 0.01345(10) 0.47073(11)
H7_19 H 0.3830 0.0193 0.4482
C23_19 C 0.3902(2) 0.03780(11) 0.49456(13)
H8_19 H 0.3919 0.0602 0.4883
C24_19 C 0.40717(18) 0.13342(15) 0.59279(14)
F9_15 F 0.55973(10) 0.34194(16) 0.60762(12)
O13_15 O 0.46427(6) 0.37447(6) 0.82645(6)
C49_15 C 0.45367(8) 0.37224(13) 0.79633(8)
C50_15 C 0.48024(8) 0.36747(14) 0.76976(8)
C51_15 C 0.47073(11) 0.36503(14) 0.73655(10)
H17_15 H 0.4482 0.3670 0.7307
C52_15 C 0.49456(13) 0.3598(2) 0.71220(11)
H18_15 H 0.4883 0.3581 0.6898
C53_15 C 0.52851(11) 0.3569(3) 0.72149(11)
C54_15 C 0.55389(11) 0.3514(3) 0.69611(11)
C55_15 C 0.57492(13) 0.3469(3) 0.67508(13)
C56_15 C 0.60033(13) 0.3437(3) 0.64967(13)
C57_15 C 0.59279(14) 0.34283(18) 0.61658(15)
F10_15 F 0.64238(12) 0.34194(16) 0.69027(10)
C58_15 C 0.51345(10) 0.36503(14) 0.77927(11)
H19_15 H 0.5193 0.3670 0.8018
C59_15 C 0.53780(11) 0.3598(2) 0.75544(13)
H20_15 H 0.5602 0.3581 0.7617
C60_15 C 0.63342(15) 0.34283(18) 0.65721(14)
F11_15 F 0.60762(12) 0.34194(16) 0.55973(10)
C61_15 C 0.79633(8) 0.37224(13) 0.45367(8)
C62_15 C 0.76976(8) 0.36747(14) 0.48024(8)
C63_15 C 0.73655(10) 0.36503(14) 0.47073(11)
H21_15 H 0.7307 0.3670 0.4482
C64_15 C 0.71220(11) 0.3598(2) 0.49456(13)
H22_15 H 0.6898 0.3581 0.4883
C65_15 C 0.72149(11) 0.3569(3) 0.52851(11)
C66_15 C 0.69611(11) 0.3514(3) 0.55389(11)
C67_15 C 0.67508(13) 0.3469(3) 0.57492(13)
C68_15 C 0.64967(13) 0.3437(3) 0.60033(13)
C69_15 C 0.61658(15) 0.34283(18) 0.59279(14)
F12_15 F 0.69027(10) 0.34194(16) 0.64238(12)
C70_15 C 0.77927(11) 0.36503(14) 0.51345(10)
H23_15 H 0.8018 0.3670 0.5193
C71_15 C 0.75544(13) 0.3598(2) 0.53780(11)
H24_15 H 0.7617 0.3581 0.5602
C72_15 C 0.65721(14) 0.34283(18) 0.63342(15)
O5_19 O 0.37553(6) 0.96427(6) 0.42355(6)
C13_19 C 0.37776(13) 0.95367(8) 0.45367(8)
C14_19 C 0.38253(14) 0.98024(8) 0.48024(8)
C15_19 C 0.38497(14) 0.97073(11) 0.51345(10)
H5_19 H 0.3830 0.9482 0.5193
C16_19 C 0.3902(2) 0.99456(13) 0.53780(11)
H6_19 H 0.3919 0.9883 0.5602
O6_19 O 0.37553(6) 0.92355(6) 0.46427(6)
F1_20 F 0.84194(16) 0.60762(12) 0.05973(10)
C5_20 C 0.8569(3) 0.72149(11) 0.02851(11)
C6_20 C 0.8514(3) 0.69611(11) 0.05389(11)
C7_20 C 0.8469(3) 0.67508(13) 0.07492(13)
C8_20 C 0.8437(3) 0.64967(13) 0.10033(13)
C9_20 C 0.84283(18) 0.61658(15) 0.09279(14)
F2_20 F 0.84194(16) 0.69027(10) 0.14238(12)
C10_20 C 0.86503(14) 0.77927(11) 0.01345(10)
H3_20 H 0.8670 0.8018 0.0193
C11_20 C 0.8598(2) 0.75544(13) 0.03780(11)
H4_20 H 0.8581 0.7617 0.0602
C12_20 C 0.84283(18) 0.65721(14) 0.13342(15)
F3_20 F 0.84194(16) 0.55973(10) 0.10762(12)
O5_20 O 0.87447(6) 0.46427(6) 0.32645(6)
C13_20 C 0.87224(13) 0.45367(8) 0.29633(8)
C14_20 C 0.86747(14) 0.48024(8) 0.26976(8)
C15_20 C 0.86503(14) 0.47073(11) 0.23655(10)
H5_20 H 0.8670 0.4482 0.2307
C16_20 C 0.8598(2) 0.49456(13) 0.21220(11)
H6_20 H 0.8581 0.4883 0.1898
C17_20 C 0.8569(3) 0.52851(11) 0.22149(11)
C18_20 C 0.8514(3) 0.55389(11) 0.19611(11)
C19_20 C 0.8469(3) 0.57492(13) 0.17508(13)
C20_20 C 0.8437(3) 0.60033(13) 0.14967(13)
C21_20 C 0.84283(18) 0.59279(14) 0.11658(15)
F4_20 F 0.84194(16) 0.64238(12) 0.19027(10)
O6_20 O 0.87447(6) 0.42355(6) 0.28573(6)
C22_20 C 0.86503(14) 0.51345(10) 0.27927(11)
H7_20 H 0.8670 0.5193 0.3018
C23_20 C 0.8598(2) 0.53780(11) 0.25544(13)
H8_20 H 0.8581 0.5602 0.2617
C24_20 C 0.84283(18) 0.63342(15) 0.15721(14)
F9_16 F 0.69027(10) 0.84194(16) 0.14238(12)
C51_16 C 0.77927(11) 0.86503(14) 0.01345(10)
H17_16 H 0.8018 0.8670 0.0193
C52_16 C 0.75544(13) 0.8598(2) 0.03780(11)
H18_16 H 0.7617 0.8581 0.0602
C53_16 C 0.72149(11) 0.8569(3) 0.02851(11)
C54_16 C 0.69611(11) 0.8514(3) 0.05389(11)
C55_16 C 0.67508(13) 0.8469(3) 0.07492(13)
C56_16 C 0.64967(13) 0.8437(3) 0.10033(13)
C57_16 C 0.65721(14) 0.84283(18) 0.13342(15)
F10_16 F 0.60762(12) 0.84194(16) 0.05973(10)
C60_16 C 0.61658(15) 0.84283(18) 0.09279(14)
F11_16 F 0.64238(12) 0.84194(16) 0.19027(10)
C61_16 C 0.45367(8) 0.87224(13) 0.29633(8)
C62_16 C 0.48024(8) 0.86747(14) 0.26976(8)
C63_16 C 0.51345(10) 0.86503(14) 0.27927(11)
H21_16 H 0.5193 0.8670 0.3018
C64_16 C 0.53780(11) 0.8598(2) 0.25544(13)
H22_16 H 0.5602 0.8581 0.2617
C65_16 C 0.52851(11) 0.8569(3) 0.22149(11)
C66_16 C 0.55389(11) 0.8514(3) 0.19611(11)
C67_16 C 0.57492(13) 0.8469(3) 0.17508(13)
C68_16 C 0.60033(13) 0.8437(3) 0.14967(13)
C69_16 C 0.63342(15) 0.84283(18) 0.15721(14)
F12_16 F 0.55973(10) 0.84194(16) 0.10762(12)
C70_16 C 0.47073(11) 0.86503(14) 0.23655(10)
H23_16 H 0.4482 0.8670 0.2307
C71_16 C 0.49456(13) 0.8598(2) 0.21220(11)
H24_16 H 0.4883 0.8581 0.1898
C72_16 C 0.59279(14) 0.84283(18) 0.11658(15)
C1_20 C 0.87224(13) 0.79633(8) 0.95367(8)
C2_20 C 0.86747(14) 0.76976(8) 0.98024(8)
C3_20 C 0.86503(14) 0.73655(10) 0.97073(11)
H1_20 H 0.8670 0.7307 0.9482
C4_20 C 0.8598(2) 0.71220(11) 0.99456(13)
H2_20 H 0.8581 0.6898 0.9883
O4_20 O 0.87447(6) 0.78573(6) 0.92355(6)
O13_16 O 0.78573(6) 0.87447(6) 0.92355(6)
C49_16 C 0.79633(8) 0.87224(13) 0.95367(8)
C50_16 C 0.76976(8) 0.86747(14) 0.98024(8)
C58_16 C 0.73655(10) 0.86503(14) 0.97073(11)
H19_16 H 0.7307 0.8670 0.9482
C59_16 C 0.71220(11) 0.8598(2) 0.99456(13)
H20_16 H 0.6898 0.8581 0.9883
F1_21 F 0.64238(12) 0.55973(10) 0.90806(16)
C1_21 C 0.45367(8) 0.45367(8) 0.87776(13)
C2_21 C 0.48024(8) 0.48024(8) 0.88253(14)
C3_21 C 0.51345(10) 0.47073(11) 0.88497(14)
H1_21 H 0.5193 0.4482 0.8830
C4_21 C 0.53780(11) 0.49456(13) 0.8902(2)
H2_21 H 0.5602 0.4883 0.8919
C5_21 C 0.52851(11) 0.52851(11) 0.8931(3)
C6_21 C 0.55389(11) 0.55389(11) 0.8986(3)
C7_21 C 0.57492(13) 0.57492(13) 0.9031(3)
C8_21 C 0.60033(13) 0.60033(13) 0.9063(3)
C9_21 C 0.63342(15) 0.59279(14) 0.90717(18)
F2_21 F 0.55973(10) 0.64238(12) 0.90806(16)
O4_21 O 0.46427(6) 0.42355(6) 0.87553(6)
C10_21 C 0.47073(11) 0.51345(10) 0.88497(14)
H3_21 H 0.4482 0.5193 0.8830
C11_21 C 0.49456(13) 0.53780(11) 0.8902(2)
H4_21 H 0.4883 0.5602 0.8919
C12_21 C 0.59279(14) 0.63342(15) 0.90717(18)
F3_21 F 0.69027(10) 0.60762(12) 0.90806(16)
O5_21 O 0.78573(6) 0.82645(6) 0.87553(6)
C13_21 C 0.79633(8) 0.79633(8) 0.87776(13)
C14_21 C 0.76976(8) 0.76976(8) 0.88253(14)
C15_21 C 0.77927(11) 0.73655(10) 0.88497(14)
H5_21 H 0.8018 0.7307 0.8830
C16_21 C 0.75544(13) 0.71220(11) 0.8902(2)
H6_21 H 0.7617 0.6898 0.8919
C17_21 C 0.72149(11) 0.72149(11) 0.8931(3)
C18_21 C 0.69611(11) 0.69611(11) 0.8986(3)
C19_21 C 0.67508(13) 0.67508(13) 0.9031(3)
C20_21 C 0.64967(13) 0.64967(13) 0.9063(3)
C21_21 C 0.65721(14) 0.61658(15) 0.90717(18)
F4_21 F 0.60762(12) 0.69027(10) 0.90806(16)
O6_21 O 0.82645(6) 0.78573(6) 0.87553(6)
C22_21 C 0.73655(10) 0.77927(11) 0.88497(14)
H7_21 H 0.7307 0.8018 0.8830
C23_21 C 0.71220(11) 0.75544(13) 0.8902(2)
H8_21 H 0.6898 0.7617 0.8919
C24_21 C 0.61658(15) 0.65721(14) 0.90717(18)
F1_22 F 0.14238(12) 0.19027(10) 0.34194(16)
C3_22 C 0.01345(10) 0.27927(11) 0.36503(14)
H1_22 H 0.0193 0.3018 0.3670
C4_22 C 0.03780(11) 0.25544(13) 0.3598(2)
H2_22 H 0.0602 0.2617 0.3581
C5_22 C 0.02851(11) 0.22149(11) 0.3569(3)
C6_22 C 0.05389(11) 0.19611(11) 0.3514(3)
C7_22 C 0.07492(13) 0.17508(13) 0.3469(3)
C8_22 C 0.10033(13) 0.14967(13) 0.3437(3)
C9_22 C 0.13342(15) 0.15721(14) 0.34283(18)
F2_22 F 0.05973(10) 0.10762(12) 0.34194(16)
C12_22 C 0.09279(14) 0.11658(15) 0.34283(18)
F3_22 F 0.19027(10) 0.14238(12) 0.34194(16)
C15_22 C 0.27927(11) 0.01345(10) 0.36503(14)
H5_22 H 0.3018 0.0193 0.3670
C16_22 C 0.25544(13) 0.03780(11) 0.3598(2)
H6_22 H 0.2617 0.0602 0.3581
C17_22 C 0.22149(11) 0.02851(11) 0.3569(3)
C18_22 C 0.19611(11) 0.05389(11) 0.3514(3)
C19_22 C 0.17508(13) 0.07492(13) 0.3469(3)
C20_22 C 0.14967(13) 0.10033(13) 0.3437(3)
C21_22 C 0.15721(14) 0.13342(15) 0.34283(18)
F4_22 F 0.10762(12) 0.05973(10) 0.34194(16)
C24_22 C 0.11658(15) 0.09279(14) 0.34283(18)
O5_22 O 0.28573(6) 0.92355(6) 0.37447(6)
C13_22 C 0.29633(8) 0.95367(8) 0.37224(13)
C14_22 C 0.26976(8) 0.98024(8) 0.36747(14)
O6_22 O 0.32645(6) 0.96427(6) 0.37447(6)
C22_22 C 0.23655(10) 0.97073(11) 0.36503(14)
H7_22 H 0.2307 0.9482 0.3670
C23_22 C 0.21220(11) 0.99456(13) 0.3598(2)
H8_22 H 0.1898 0.9883 0.3581
C1_22 C 0.95367(8) 0.29633(8) 0.37224(13)
C2_22 C 0.98024(8) 0.26976(8) 0.36747(14)
O4_22 O 0.96427(6) 0.32645(6) 0.37447(6)
C10_22 C 0.97073(11) 0.23655(10) 0.36503(14)
H3_22 H 0.9482 0.2307 0.3670
C11_22 C 0.99456(13) 0.21220(11) 0.3598(2)
H4_22 H 0.9883 0.1898 0.3581
F1_23 F 0.60762(12) 0.05973(10) 0.84194(16)
C5_23 C 0.72149(11) 0.02851(11) 0.8569(3)
C6_23 C 0.69611(11) 0.05389(11) 0.8514(3)
C7_23 C 0.67508(13) 0.07492(13) 0.8469(3)
C8_23 C 0.64967(13) 0.10033(13) 0.8437(3)
C9_23 C 0.61658(15) 0.09279(14) 0.84283(18)
F2_23 F 0.69027(10) 0.14238(12) 0.84194(16)
C10_23 C 0.77927(11) 0.01345(10) 0.86503(14)
H3_23 H 0.8018 0.0193 0.8670
C11_23 C 0.75544(13) 0.03780(11) 0.8598(2)
H4_23 H 0.7617 0.0602 0.8581
C12_23 C 0.65721(14) 0.13342(15) 0.84283(18)
F3_23 F 0.55973(10) 0.10762(12) 0.84194(16)
O5_23 O 0.46427(6) 0.32645(6) 0.87447(6)
C13_23 C 0.45367(8) 0.29633(8) 0.87224(13)
C14_23 C 0.48024(8) 0.26976(8) 0.86747(14)
C15_23 C 0.47073(11) 0.23655(10) 0.86503(14)
H5_23 H 0.4482 0.2307 0.8670
C16_23 C 0.49456(13) 0.21220(11) 0.8598(2)
H6_23 H 0.4883 0.1898 0.8581
C17_23 C 0.52851(11) 0.22149(11) 0.8569(3)
C18_23 C 0.55389(11) 0.19611(11) 0.8514(3)
C19_23 C 0.57492(13) 0.17508(13) 0.8469(3)
C20_23 C 0.60033(13) 0.14967(13) 0.8437(3)
C21_23 C 0.59279(14) 0.11658(15) 0.84283(18)
F4_23 F 0.64238(12) 0.19027(10) 0.84194(16)
O6_23 O 0.42355(6) 0.28573(6) 0.87447(6)
C22_23 C 0.51345(10) 0.27927(11) 0.86503(14)
H7_23 H 0.5193 0.3018 0.8670
C23_23 C 0.53780(11) 0.25544(13) 0.8598(2)
H8_23 H 0.5602 0.2617 0.8581
C24_23 C 0.63342(15) 0.15721(14) 0.84283(18)
C1_23 C 0.79633(8) 0.95367(8) 0.87224(13)
C2_23 C 0.76976(8) 0.98024(8) 0.86747(14)
C3_23 C 0.73655(10) 0.97073(11) 0.86503(14)
H1_23 H 0.7307 0.9482 0.8670
C4_23 C 0.71220(11) 0.99456(13) 0.8598(2)
H2_23 H 0.6898 0.9883 0.8581
O4_23 O 0.78573(6) 0.92355(6) 0.87447(6)
F1_24 F 0.10762(12) 0.69027(10) 0.40806(16)
C1_24 C 0.29633(8) 0.79633(8) 0.37776(13)
C2_24 C 0.26976(8) 0.76976(8) 0.38253(14)
C3_24 C 0.23655(10) 0.77927(11) 0.38497(14)
H1_24 H 0.2307 0.8018 0.3830
C4_24 C 0.21220(11) 0.75544(13) 0.3902(2)
H2_24 H 0.1898 0.7617 0.3919
C5_24 C 0.22149(11) 0.72149(11) 0.3931(3)
C6_24 C 0.19611(11) 0.69611(11) 0.3986(3)
C7_24 C 0.17508(13) 0.67508(13) 0.4031(3)
C8_24 C 0.14967(13) 0.64967(13) 0.4063(3)
C9_24 C 0.11658(15) 0.65721(14) 0.40717(18)
F2_24 F 0.19027(10) 0.60762(12) 0.40806(16)
O4_24 O 0.28573(6) 0.82645(6) 0.37553(6)
C10_24 C 0.27927(11) 0.73655(10) 0.38497(14)
H3_24 H 0.3018 0.7307 0.3830
C11_24 C 0.25544(13) 0.71220(11) 0.3902(2)
H4_24 H 0.2617 0.6898 0.3919
C12_24 C 0.15721(14) 0.61658(15) 0.40717(18)
F3_24 F 0.05973(10) 0.64238(12) 0.40806(16)
C17_24 C 0.02851(11) 0.52851(11) 0.3931(3)
C18_24 C 0.05389(11) 0.55389(11) 0.3986(3)
C19_24 C 0.07492(13) 0.57492(13) 0.4031(3)
C20_24 C 0.10033(13) 0.60033(13) 0.4063(3)
C21_24 C 0.09279(14) 0.63342(15) 0.40717(18)
F4_24 F 0.14238(12) 0.55973(10) 0.40806(16)
C22_24 C 0.01345(10) 0.47073(11) 0.38497(14)
H7_24 H 0.0193 0.4482 0.3830
C23_24 C 0.03780(11) 0.49456(13) 0.3902(2)
H8_24 H 0.0602 0.4883 0.3919
C24_24 C 0.13342(15) 0.59279(14) 0.40717(18)
O5_24 O 0.96427(6) 0.42355(6) 0.37553(6)
C13_24 C 0.95367(8) 0.45367(8) 0.37776(13)
C14_24 C 0.98024(8) 0.48024(8) 0.38253(14)
C15_24 C 0.97073(11) 0.51345(10) 0.38497(14)
H5_24 H 0.9482 0.5193 0.3830
C16_24 C 0.99456(13) 0.53780(11) 0.3902(2)
H6_24 H 0.9883 0.5602 0.3919
O6_24 O 0.92355(6) 0.46427(6) 0.37553(6)
O26_9 O 0.90753(15) 0.40753(15) 0.34247(15)
O26_10 O 0.84247(15) 0.84247(15) 0.84247(15)
O26_11 O 0.40753(15) 0.34247(15) 0.90753(15)
O26_12 O 0.34247(15) 0.90753(15) 0.40753(15)
loop_
_geom_bond_atom_site_label_1
_geom_bond_atom_site_label_2
_geom_bond_site_symmetry_1
_geom_bond_site_symmetry_2
O11 C37 1_555 1_555
C37 C38 1_555 1_555
O12 C37 1_555 1_555
Zr5 O12 1_555 1_555
Zr7 O11 1_555 1_555
C39 H13 1_555 1_555
C40 C39 1_555 1_555
H14 C40 1_555 1_555
O5 C13 1_555 1_555
C13 C14 1_555 1_555
C14 C15 1_555 1_555
C15 H5 1_555 1_555
C16 C15 1_555 1_555
H6 C16 1_555 1_555
O6 C13 1_555 1_555
H15 C46 1_555 1_555
H16 C47 1_555 1_555
Zr9 O5 1_555 1_555
Zr12 O6 1_555 1_555
C46 C47 1_555 1_555
Zr1 O1 1_555 1_555
F1 C9 1_555 1_555
O1 C1 1_555 1_555
O2 Zr1 1_555 1_555
O3 Zr1 1_555 1_555
C1 C2 1_555 1_555
C2 C3 1_555 1_555
C3 H1 1_555 1_555
C4 C3 1_555 1_555
H2 C4 1_555 1_555
C5 C4 1_555 1_555
C6 C5 1_555 1_555
C7 C6 1_555 1_555
C8 C7 1_555 1_555
C9 C8 1_555 1_555
F2 C12 1_555 1_555
O4 C1 1_555 1_555
C10 C2 1_555 1_555
H3 C10 1_555 1_555
C11 C5 1_555 1_555
H4 C11 1_555 1_555
C12 C8 1_555 1_555
F3 C21 1_555 1_555
C18 C17 1_555 1_555
C19 C18 1_555 1_555
C20 C19 1_555 1_555
C21 C9 1_555 1_555
F4 C24 1_555 1_555
H7 C22 1_555 1_555
C23 C17 1_555 1_555
H8 C23 1_555 1_555
C24 C12 1_555 1_555
Zr2 O2 1_555 1_555
O7 Zr2 1_555 1_555
Zr3 O3 1_555 1_555
O8 Zr1 1_555 1_555
F5 C33 1_555 1_555
O9 C25 1_555 1_555
C25 C26 1_555 1_555
C26 C27 1_555 1_555
C27 H9 1_555 1_555
C28 C27 1_555 1_555
H10 C28 1_555 1_555
C29 C28 1_555 1_555
C30 C29 1_555 1_555
C31 C30 1_555 1_555
C32 C31 1_555 1_555
C33 C32 1_555 1_555
F6 C36 1_555 1_555
O10 Zr3 1_555 1_555
C34 C26 1_555 1_555
H11 C34 1_555 1_555
C35 C29 1_555 1_555
H12 C35 1_555 1_555
C36 C32 1_555 1_555
F7 C45 1_555 1_555
C42 C41 1_555 1_555
C43 C42 1_555 1_555
C44 C43 1_555 1_555
C45 C33 1_555 1_555
F8 C48 1_555 1_555
C48 C36 1_555 1_555
F9 C57 1_555 1_555
O13 C49 1_555 1_555
C49 C50 1_555 1_555
C50 C51 1_555 1_555
C51 H17 1_555 1_555
C52 C51 1_555 1_555
H18 C52 1_555 1_555
C53 C52 1_555 1_555
C54 C53 1_555 1_555
C55 C54 1_555 1_555
C56 C55 1_555 1_555
C57 C56 1_555 1_555
F10 C60 1_555 1_555
O14 Zr1 1_555 1_555
C58 C50 1_555 1_555
H19 C58 1_555 1_555
C59 C53 1_555 1_555
H20 C59 1_555 1_555
C60 C56 1_555 1_555
F11 C69 1_555 1_555
O15 C61 1_555 1_555
C61 C62 1_555 1_555
C62 C63 1_555 1_555
C63 H21 1_555 1_555
C64 C63 1_555 1_555
H22 C64 1_555 1_555
C65 C64 1_555 1_555
C66 C65 1_555 1_555
C67 C66 1_555 1_555
C68 C67 1_555 1_555
C69 C57 1_555 1_555
F12 C72 1_555 1_555
O16 C61 1_555 1_555
C70 C62 1_555 1_555
H23 C70 1_555 1_555
C71 C65 1_555 1_555
H24 C71 1_555 1_555
C72 C60 1_555 1_555
Zr4 O15 1_555 1_555
Zr6 O16 1_555 1_555
Zr8 O4 1_555 1_555
Zr10 O2 1_555 1_555
Zr11 O7 1_555 1_555
O17 Zr2 1_555 1_555
O18 Zr3 1_555 1_555
O19 Zr1 1_555 1_555
O20 Zr2 1_555 1_555
O21 Zr3 1_555 1_555
O22 Zr1 1_555 1_555
O23 Zr3 1_555 1_555
O24 Zr2 1_555 1_555
O25 Zr2 1_555 1_555
O26 Zr1 1_555 1_555
O27 Zr2 1_555 1_555
O28 Zr3 1_555 1_555
O3 Zr2 1_555 1_555
C10 C11 1_555 1_555
C20 C21 1_555 1_555
C20 C24 1_555 1_555
C22 C23 1_555 1_555
O7 Zr3 1_555 1_555
Zr3 O26 1_555 1_555
O8 Zr8 1_555 1_555
O8 Zr10 1_555 1_555
O9 Zr8 1_555 1_555
C25 O10 1_555 1_555
C34 C35 1_555 1_555
C44 C45 1_555 1_555
C44 C48 1_555 1_555
O13 Zr10 1_555 1_555
C49 O14 1_555 1_555
C58 C59 1_555 1_555
C68 C69 1_555 1_555
C68 C72 1_555 1_555
C70 C71 1_555 1_555
Zr8 O26 1_555 1_555
Zr8 O28 1_555 1_555
Zr10 O27 1_555 1_555
Zr11 O27 1_555 1_555
Zr11 O28 1_555 1_555
Zr1_2 O1_2 1_555 1_555
O1_2 C1_2 1_555 1_555
O2_2 Zr1_2 1_555 1_555
O3_2 Zr1_2 1_555 1_555
C1_2 C2_2 1_555 1_555
C2_2 C3_2 1_555 1_555
C3_2 H1_2 1_555 1_555
C4_2 C3_2 1_555 1_555
H2_2 C4_2 1_555 1_555
O4_2 C1_2 1_555 1_555
Zr5 O2_2 1_555 1_555
O7_2 Zr5 1_555 1_555
Zr7 O3_2 1_555 1_555
O8_2 Zr1_2 1_555 1_555
O9_2 C25_2 1_555 1_555
C25_2 C26_2 1_555 1_555
O10_2 Zr7 1_555 1_555
C34_2 C26_2 1_555 1_555
H11_2 C34_2 1_555 1_555
H12_2 C35_2 1_555 1_555
O13_2 C49_2 1_555 1_555
C49_2 C50_2 1_555 1_555
O14_2 Zr1_2 1_555 1_555
C58_2 C50_2 1_555 1_555
H19_2 C58_2 1_555 1_555
H20_2 C59_2 1_555 1_555
Zr8_2 O4_2 1_555 1_555
Zr10_2 O2_2 1_555 1_555
Zr11_2 O7_2 1_555 1_555
O17_2 Zr5 1_555 1_555
O18_2 Zr7 1_555 1_555
O19_2 Zr1_2 1_555 1_555
O21_2 Zr7 1_555 1_555
O22_2 Zr1_2 1_555 1_555
O24_2 Zr5 1_555 1_555
O25_2 Zr5 1_555 1_555
O26_2 Zr1_2 1_555 1_555
O27_2 Zr5 1_555 1_555
O28_2 Zr7 1_555 1_555
O3_2 Zr5 1_555 1_555
O7_2 Zr7 1_555 1_555
Zr7 O26_2 1_555 1_555
O8_2 Zr8_2 1_555 1_555
O8_2 Zr10_2 1_555 1_555
O9_2 Zr8_2 1_555 1_555
C25_2 O10_2 1_555 1_555
C34_2 C35_2 1_555 1_555
O13_2 Zr10_2 1_555 1_555
C49_2 O14_2 1_555 1_555
C58_2 C59_2 1_555 1_555
Zr8_2 O26_2 1_555 1_555
Zr8_2 O28_2 1_555 1_555
Zr10_2 O27_2 1_555 1_555
Zr11_2 O27_2 1_555 1_555
Zr11_2 O28_2 1_555 1_555
F1_2 C9_2 1_555 1_555
C6_2 C5_2 1_555 1_555
C7_2 C6_2 1_555 1_555
C8_2 C7_2 1_555 1_555
C9_2 C8_2 1_555 1_555
F2_2 C12_2 1_555 1_555
H3_2 C10_2 1_555 1_555
C11_2 C5_2 1_555 1_555
H4_2 C11_2 1_555 1_555
C12_2 C8_2 1_555 1_555
F3_2 C21_2 1_555 1_555
O5_2 C13_2 1_555 1_555
C13_2 C14_2 1_555 1_555
C14_2 C15_2 1_555 1_555
C15_2 H5_2 1_555 1_555
C16_2 C15_2 1_555 1_555
H6_2 C16_2 1_555 1_555
C17_2 C16_2 1_555 1_555
C18_2 C17_2 1_555 1_555
C19_2 C18_2 1_555 1_555
C20_2 C19_2 1_555 1_555
C21_2 C9_2 1_555 1_555
F4_2 C24_2 1_555 1_555
O6_2 C13_2 1_555 1_555
C22_2 C14_2 1_555 1_555
H7_2 C22_2 1_555 1_555
C23_2 C17_2 1_555 1_555
H8_2 C23_2 1_555 1_555
C24_2 C12_2 1_555 1_555
F9_2 C57_2 1_555 1_555
C51_2 H17_2 1_555 1_555
C52_2 C51_2 1_555 1_555
H18_2 C52_2 1_555 1_555
C53_2 C52_2 1_555 1_555
C54_2 C53_2 1_555 1_555
C55_2 C54_2 1_555 1_555
C56_2 C55_2 1_555 1_555
C57_2 C56_2 1_555 1_555
F10_2 C60_2 1_555 1_555
C60_2 C56_2 1_555 1_555
F11_2 C69_2 1_555 1_555
O15_2 C61_2 1_555 1_555
C61_2 C62_2 1_555 1_555
C62_2 C63_2 1_555 1_555
C63_2 H21_2 1_555 1_555
C64_2 C63_2 1_555 1_555
H22_2 C64_2 1_555 1_555
C65_2 C64_2 1_555 1_555
C66_2 C65_2 1_555 1_555
C67_2 C66_2 1_555 1_555
C68_2 C67_2 1_555 1_555
C69_2 C57_2 1_555 1_555
F12_2 C72_2 1_555 1_555
O16_2 C61_2 1_555 1_555
C70_2 C62_2 1_555 1_555
H23_2 C70_2 1_555 1_555
C71_2 C65_2 1_555 1_555
H24_2 C71_2 1_555 1_555
C72_2 C60_2 1_555 1_555
Zr4_2 O15_2 1_555 1_555
Zr6_2 O16_2 1_555 1_555
Zr9_2 O5_2 1_555 1_555
Zr12_2 O6_2 1_555 1_555
C10_2 C11_2 1_555 1_555
C20_2 C21_2 1_555 1_555
C20_2 C24_2 1_555 1_555
C22_2 C23_2 1_555 1_555
C68_2 C69_2 1_555 1_555
C68_2 C72_2 1_555 1_555
C70_2 C71_2 1_555 1_555
F5_2 C33_2 1_555 1_555
C27_2 H9_2 1_555 1_555
C28_2 C27_2 1_555 1_555
H10_2 C28_2 1_555 1_555
C29_2 C28_2 1_555 1_555
C30_2 C29_2 1_555 1_555
C31_2 C30_2 1_555 1_555
C32_2 C31_2 1_555 1_555
C33_2 C32_2 1_555 1_555
F6_2 C36_2 1_555 1_555
C36_2 C32_2 1_555 1_555
F7_2 C45_2 1_555 1_555
O23 C37_2 1_555 1_555
C37_2 C38_2 1_555 1_555
C38_2 C39_2 1_555 1_555
C39_2 H13_2 1_555 1_555
C40_2 C39_2 1_555 1_555
H14_2 C40_2 1_555 1_555
C41_2 C40_2 1_555 1_555
C42_2 C41_2 1_555 1_555
C43_2 C42_2 1_555 1_555
C44_2 C43_2 1_555 1_555
C45_2 C33_2 1_555 1_555
F8_2 C48_2 1_555 1_555
O20 C37_2 1_555 1_555
C46_2 C38_2 1_555 1_555
H15_2 C46_2 1_555 1_555
C47_2 C41_2 1_555 1_555
H16_2 C47_2 1_555 1_555
C48_2 C36_2 1_555 1_555
C44_2 C45_2 1_555 1_555
C44_2 C48_2 1_555 1_555
C46_2 C47_2 1_555 1_555
O22_2 C61_3 1_555 1_555
C61_3 C62_3 1_555 1_555
O21_2 C61_3 1_555 1_555
H23_3 C70_3 1_555 1_555
H24_3 C71_3 1_555 1_555
C70_3 C71_3 1_555 1_555
C63_3 H21_3 1_555 1_555
C64_3 C63_3 1_555 1_555
H22_3 C64_3 1_555 1_555
O5_3 C13_3 1_555 1_555
C13_3 C14_3 1_555 1_555
O6_3 C13_3 1_555 1_555
C22_3 C14_3 1_555 1_555
H7_3 C22_3 1_555 1_555
H8_3 C23_3 1_555 1_555
Zr8 O5_3 1_555 1_555
Zr11 O6_3 1_555 1_555
C22_3 C23_3 1_555 1_555
Zr4_2 O1_3 1_555 1_555
O1_3 C1_3 1_555 1_555
O2_3 Zr4_2 1_555 1_555
O3_3 Zr4_2 1_555 1_555
C1_3 C2_3 1_555 1_555
O4_3 C1_3 1_555 1_555
C10_3 C2_3 1_555 1_555
H3_3 C10_3 1_555 1_555
H4_3 C11_3 1_555 1_555
Zr2_2 O2_3 1_555 1_555
O7_3 Zr2_2 1_555 1_555
Zr6_2 O3_3 1_555 1_555
O8_3 Zr4_2 1_555 1_555
O9_3 C25_3 1_555 1_555
C25_3 C26_3 1_555 1_555
C26_3 C27_3 1_555 1_555
C27_3 H9_3 1_555 1_555
C28_3 C27_3 1_555 1_555
H10_3 C28_3 1_555 1_555
O10_3 Zr6_2 1_555 1_555
F9_3 C57_3 1_555 1_555
O13_3 C49_3 1_555 1_555
C49_3 C50_3 1_555 1_555
C50_3 C51_3 1_555 1_555
C51_3 H17_3 1_555 1_555
C52_3 C51_3 1_555 1_555
H18_3 C52_3 1_555 1_555
C53_3 C52_3 1_555 1_555
C54_3 C53_3 1_555 1_555
C55_3 C54_3 1_555 1_555
C56_3 C55_3 1_555 1_555
C57_3 C56_3 1_555 1_555
F10_3 C60_3 1_555 1_555
O14_3 Zr4_2 1_555 1_555
C58_3 C50_3 1_555 1_555
H19_3 C58_3 1_555 1_555
C59_3 C53_3 1_555 1_555
H20_3 C59_3 1_555 1_555
C60_3 C56_3 1_555 1_555
F11_3 C69_3 1_555 1_555
C66_3 C65_3 1_555 1_555
C67_3 C66_3 1_555 1_555
C68_3 C67_3 1_555 1_555
C69_3 C57_3 1_555 1_555
F12_3 C72_3 1_555 1_555
C72_3 C60_3 1_555 1_555
Zr9 O4_3 1_555 1_555
Zr10_3 O2_3 1_555 1_555
Zr12 O7_3 1_555 1_555
O17_3 Zr2_2 1_555 1_555
O18_3 Zr6_2 1_555 1_555
O19_3 Zr4_2 1_555 1_555
O20_2 Zr2_2 1_555 1_555
O23_2 Zr6_2 1_555 1_555
O24_3 Zr2_2 1_555 1_555
O25_3 Zr2_2 1_555 1_555
O26_3 Zr4_2 1_555 1_555
O27_3 Zr2_2 1_555 1_555
O28_3 Zr6_2 1_555 1_555
O3_3 Zr2_2 1_555 1_555
C10_3 C11_3 1_555 1_555
O7_3 Zr6_2 1_555 1_555
Zr6_2 O26_3 1_555 1_555
O8_3 Zr9 1_555 1_555
O8_3 Zr10_3 1_555 1_555
O9_3 Zr9 1_555 1_555
C25_3 O10_3 1_555 1_555
O13_3 Zr10_3 1_555 1_555
C49_3 O14_3 1_555 1_555
C58_3 C59_3 1_555 1_555
C68_3 C69_3 1_555 1_555
C68_3 C72_3 1_555 1_555
Zr9 O26_3 1_555 1_555
Zr9 O28_3 1_555 1_555
Zr10_3 O27_3 1_555 1_555
Zr12 O27_3 1_555 1_555
Zr12 O28_3 1_555 1_555
F1_3 C9_3 1_555 1_555
C3_3 H1_3 1_555 1_555
C4_3 C3_3 1_555 1_555
H2_3 C4_3 1_555 1_555
C5_3 C4_3 1_555 1_555
C6_3 C5_3 1_555 1_555
C7_3 C6_3 1_555 1_555
C8_3 C7_3 1_555 1_555
C9_3 C8_3 1_555 1_555
F2_3 C12_3 1_555 1_555
C12_3 C8_3 1_555 1_555
F3_3 C21_3 1_555 1_555
C15_3 H5_3 1_555 1_555
C16_3 C15_3 1_555 1_555
H6_3 C16_3 1_555 1_555
C17_3 C16_3 1_555 1_555
C18_3 C17_3 1_555 1_555
C19_3 C18_3 1_555 1_555
C20_3 C19_3 1_555 1_555
C21_3 C9_3 1_555 1_555
F4_3 C24_3 1_555 1_555
C24_3 C12_3 1_555 1_555
F5_3 C33_3 1_555 1_555
C30_3 C29_3 1_555 1_555
C31_3 C30_3 1_555 1_555
C32_3 C31_3 1_555 1_555
C33_3 C32_3 1_555 1_555
F6_3 C36_3 1_555 1_555
H11_3 C34_3 1_555 1_555
C35_3 C29_3 1_555 1_555
H12_3 C35_3 1_555 1_555
C36_3 C32_3 1_555 1_555
F7_3 C45_3 1_555 1_555
O11_2 C37_3 1_555 1_555
C37_3 C38_3 1_555 1_555
C38_3 C39_3 1_555 1_555
C39_3 H13_3 1_555 1_555
C40_3 C39_3 1_555 1_555
H14_3 C40_3 1_555 1_555
C41_3 C40_3 1_555 1_555
C42_3 C41_3 1_555 1_555
C43_3 C42_3 1_555 1_555
C44_3 C43_3 1_555 1_555
C45_3 C33_3 1_555 1_555
F8_3 C48_3 1_555 1_555
O12_2 C37_3 1_555 1_555
C46_3 C38_3 1_555 1_555
H15_3 C46_3 1_555 1_555
C47_3 C41_3 1_555 1_555
H16_3 C47_3 1_555 1_555
C48_3 C36_3 1_555 1_555
Zr5_2 O12_2 1_555 1_555
Zr6 O11_2 1_555 1_555
C20_3 C21_3 1_555 1_555
C20_3 C24_3 1_555 1_555
C34_3 C35_3 1_555 1_555
C44_3 C45_3 1_555 1_555
C44_3 C48_3 1_555 1_555
C46_3 C47_3 1_555 1_555
Zr4 O1_4 1_555 1_555
F1_4 C9_4 1_555 1_555
O1_4 C1_4 1_555 1_555
O2_4 Zr4 1_555 1_555
O3_4 Zr4 1_555 1_555
C1_4 C2_4 1_555 1_555
C2_4 C3_4 1_555 1_555
C3_4 H1_4 1_555 1_555
C4_4 C3_4 1_555 1_555
H2_4 C4_4 1_555 1_555
C5_4 C4_4 1_555 1_555
C6_4 C5_4 1_555 1_555
C7_4 C6_4 1_555 1_555
C8_4 C7_4 1_555 1_555
C9_4 C8_4 1_555 1_555
F2_4 C12_4 1_555 1_555
O4_4 C1_4 1_555 1_555
C10_4 C2_4 1_555 1_555
H3_4 C10_4 1_555 1_555
C11_4 C5_4 1_555 1_555
H4_4 C11_4 1_555 1_555
C12_4 C8_4 1_555 1_555
F3_4 C21_4 1_555 1_555
O5_4 C13_4 1_555 1_555
C13_4 C14_4 1_555 1_555
C14_4 C15_4 1_555 1_555
C15_4 H5_4 1_555 1_555
C16_4 C15_4 1_555 1_555
H6_4 C16_4 1_555 1_555
C17_4 C16_4 1_555 1_555
C18_4 C17_4 1_555 1_555
C19_4 C18_4 1_555 1_555
C20_4 C19_4 1_555 1_555
C21_4 C9_4 1_555 1_555
F4_4 C24_4 1_555 1_555
O6_4 C13_4 1_555 1_555
C22_4 C14_4 1_555 1_555
H7_4 C22_4 1_555 1_555
C23_4 C17_4 1_555 1_555
H8_4 C23_4 1_555 1_555
C24_4 C12_4 1_555 1_555
Zr5_2 O2_4 1_555 1_555
O7_4 Zr5_2 1_555 1_555
Zr6 O3_4 1_555 1_555
O8_4 Zr4 1_555 1_555
F5_4 C33_4 1_555 1_555
O9_4 C25_4 1_555 1_555
C25_4 C26_4 1_555 1_555
C26_4 C27_4 1_555 1_555
C27_4 H9_4 1_555 1_555
C28_4 C27_4 1_555 1_555
H10_4 C28_4 1_555 1_555
C29_4 C28_4 1_555 1_555
C30_4 C29_4 1_555 1_555
C31_4 C30_4 1_555 1_555
C32_4 C31_4 1_555 1_555
C33_4 C32_4 1_555 1_555
F6_4 C36_4 1_555 1_555
O10_4 Zr6 1_555 1_555
C34_4 C26_4 1_555 1_555
H11_4 C34_4 1_555 1_555
C35_4 C29_4 1_555 1_555
H12_4 C35_4 1_555 1_555
C36_4 C32_4 1_555 1_555
F7_4 C45_4 1_555 1_555
O23_2 C37_4 1_555 1_555
C37_4 C38_4 1_555 1_555
C38_4 C39_4 1_555 1_555
C39_4 H13_4 1_555 1_555
C40_4 C39_4 1_555 1_555
H14_4 C40_4 1_555 1_555
C41_4 C40_4 1_555 1_555
C42_4 C41_4 1_555 1_555
C43_4 C42_4 1_555 1_555
C44_4 C43_4 1_555 1_555
C45_4 C33_4 1_555 1_555
F8_4 C48_4 1_555 1_555
O20_2 C37_4 1_555 1_555
C46_4 C38_4 1_555 1_555
H15_4 C46_4 1_555 1_555
C47_4 C41_4 1_555 1_555
H16_4 C47_4 1_555 1_555
C48_4 C36_4 1_555 1_555
O13_4 C49_4 1_555 1_555
C49_4 C50_4 1_555 1_555
C50_4 C51_4 1_555 1_555
C51_4 H17_4 1_555 1_555
C52_4 C51_4 1_555 1_555
H18_4 C52_4 1_555 1_555
O14_4 Zr4 1_555 1_555
Zr9_2 O4_4 1_555 1_555
Zr8_2 O5_4 1_555 1_555
Zr10_4 O2_4 1_555 1_555
Zr12_2 O7_4 1_555 1_555
Zr11_2 O6_4 1_555 1_555
O17_4 Zr5_2 1_555 1_555
O18_4 Zr6 1_555 1_555
O19_4 Zr4 1_555 1_555
O24_4 Zr5_2 1_555 1_555
O25_4 Zr5_2 1_555 1_555
O26_4 Zr4 1_555 1_555
O27_4 Zr5_2 1_555 1_555
O28_4 Zr6 1_555 1_555
O3_4 Zr5_2 1_555 1_555
C10_4 C11_4 1_555 1_555
C20_4 C21_4 1_555 1_555
C20_4 C24_4 1_555 1_555
C22_4 C23_4 1_555 1_555
O7_4 Zr6 1_555 1_555
Zr6 O26_4 1_555 1_555
O8_4 Zr9_2 1_555 1_555
O8_4 Zr10_4 1_555 1_555
O9_4 Zr9_2 1_555 1_555
C25_4 O10_4 1_555 1_555
C34_4 C35_4 1_555 1_555
C44_4 C45_4 1_555 1_555
C44_4 C48_4 1_555 1_555
C46_4 C47_4 1_555 1_555
O13_4 Zr10_4 1_555 1_555
C49_4 O14_4 1_555 1_555
Zr9_2 O26_4 1_555 1_555
Zr9_2 O28_4 1_555 1_555
Zr10_4 O27_4 1_555 1_555
Zr12_2 O27_4 1_555 1_555
Zr12_2 O28_4 1_555 1_555
F9_4 C57_4 1_555 1_555
C54_4 C53_4 1_555 1_555
C55_4 C54_4 1_555 1_555
C56_4 C55_4 1_555 1_555
C57_4 C56_4 1_555 1_555
F10_4 C60_4 1_555 1_555
H19_4 C58_4 1_555 1_555
C59_4 C53_4 1_555 1_555
H20_4 C59_4 1_555 1_555
C60_4 C56_4 1_555 1_555
F11_4 C69_4 1_555 1_555
O22 C61_4 1_555 1_555
C61_4 C62_4 1_555 1_555
C62_4 C63_4 1_555 1_555
C63_4 H21_4 1_555 1_555
C64_4 C63_4 1_555 1_555
H22_4 C64_4 1_555 1_555
C65_4 C64_4 1_555 1_555
C66_4 C65_4 1_555 1_555
C67_4 C66_4 1_555 1_555
C68_4 C67_4 1_555 1_555
C69_4 C57_4 1_555 1_555
F12_4 C72_4 1_555 1_555
O21 C61_4 1_555 1_555
C70_4 C62_4 1_555 1_555
H23_4 C70_4 1_555 1_555
C71_4 C65_4 1_555 1_555
H24_4 C71_4 1_555 1_555
C72_4 C60_4 1_555 1_555
C58_4 C59_4 1_555 1_555
C68_4 C69_4 1_555 1_555
C68_4 C72_4 1_555 1_555
C70_4 C71_4 1_555 1_555
O5_5 C13_5 1_555 1_555
C13_5 C14_5 1_555 1_555
C14_5 C15_5 1_555 1_555
C15_5 H5_5 1_555 1_555
C16_5 C15_5 1_555 1_555
H6_5 C16_5 1_555 1_555
O6_5 C13_5 1_555 1_555
Zr10_4 O5_5 1_555 1_555
Zr9_2 O6_5 1_555 1_555
F1_5 C9_5 1_555 1_555
O17_3 C1_5 1_555 1_555
C1_5 C2_5 1_555 1_555
C2_5 C3_5 1_555 1_555
C3_5 H1_5 1_555 1_555
C4_5 C3_5 1_555 1_555
H2_5 C4_5 1_555 1_555
C5_5 C4_5 1_555 1_555
C6_5 C5_5 1_555 1_555
C7_5 C6_5 1_555 1_555
C8_5 C7_5 1_555 1_555
C9_5 C8_5 1_555 1_555
F2_5 C12_5 1_555 1_555
O4_5 C1_5 1_555 1_555
C10_5 C2_5 1_555 1_555
H3_5 C10_5 1_555 1_555
C11_5 C5_5 1_555 1_555
H4_5 C11_5 1_555 1_555
C12_5 C8_5 1_555 1_555
F3_5 C21_5 1_555 1_555
C18_5 C17_5 1_555 1_555
C19_5 C18_5 1_555 1_555
C20_5 C19_5 1_555 1_555
C21_5 C9_5 1_555 1_555
F4_5 C24_5 1_555 1_555
H7_5 C22_5 1_555 1_555
C23_5 C17_5 1_555 1_555
H8_5 C23_5 1_555 1_555
C24_5 C12_5 1_555 1_555
F9_5 C57_5 1_555 1_555
O13_5 C49_5 1_555 1_555
C49_5 C50_5 1_555 1_555
C50_5 C51_5 1_555 1_555
C51_5 H17_5 1_555 1_555
C52_5 C51_5 1_555 1_555
H18_5 C52_5 1_555 1_555
C53_5 C52_5 1_555 1_555
C54_5 C53_5 1_555 1_555
C55_5 C54_5 1_555 1_555
C56_5 C55_5 1_555 1_555
C57_5 C56_5 1_555 1_555
F10_5 C60_5 1_555 1_555
C58_5 C50_5 1_555 1_555
H19_5 C58_5 1_555 1_555
C59_5 C53_5 1_555 1_555
H20_5 C59_5 1_555 1_555
C60_5 C56_5 1_555 1_555
F11_5 C69_5 1_555 1_555
O24 C61_5 1_555 1_555
C61_5 C62_5 1_555 1_555
C62_5 C63_5 1_555 1_555
C63_5 H21_5 1_555 1_555
C64_5 C63_5 1_555 1_555
H22_5 C64_5 1_555 1_555
C65_5 C64_5 1_555 1_555
C66_5 C65_5 1_555 1_555
C67_5 C66_5 1_555 1_555
C68_5 C67_5 1_555 1_555
C69_5 C57_5 1_555 1_555
F12_5 C72_5 1_555 1_555
O19 C61_5 1_555 1_555
C70_5 C62_5 1_555 1_555
H23_5 C70_5 1_555 1_555
C71_5 C65_5 1_555 1_555
H24_5 C71_5 1_555 1_555
C72_5 C60_5 1_555 1_555
Zr10_3 O4_5 1_555 1_555
C10_5 C11_5 1_555 1_555
C20_5 C21_5 1_555 1_555
C20_5 C24_5 1_555 1_555
C22_5 C23_5 1_555 1_555
O13_5 Zr12 1_555 1_555
C49_5 O25_3 1_555 1_555
C58_5 C59_5 1_555 1_555
C68_5 C69_5 1_555 1_555
C68_5 C72_5 1_555 1_555
C70_5 C71_5 1_555 1_555
O17_2 C1_6 1_555 1_555
C1_6 C2_6 1_555 1_555
C2_6 C3_6 1_555 1_555
C3_6 H1_6 1_555 1_555
C4_6 C3_6 1_555 1_555
H2_6 C4_6 1_555 1_555
O4_6 C1_6 1_555 1_555
O13_6 C49_6 1_555 1_555
C49_6 C50_6 1_555 1_555
C58_6 C50_6 1_555 1_555
H19_6 C58_6 1_555 1_555
H20_6 C59_6 1_555 1_555
Zr10_2 O4_6 1_555 1_555
O13_6 Zr11_2 1_555 1_555
C49_6 O25_2 1_555 1_555
C58_6 C59_6 1_555 1_555
F1_6 C9_6 1_555 1_555
C6_6 C5_6 1_555 1_555
C7_6 C6_6 1_555 1_555
C8_6 C7_6 1_555 1_555
C9_6 C8_6 1_555 1_555
F2_6 C12_6 1_555 1_555
H3_6 C10_6 1_555 1_555
C11_6 C5_6 1_555 1_555
H4_6 C11_6 1_555 1_555
C12_6 C8_6 1_555 1_555
F3_6 C21_6 1_555 1_555
O5_6 C13_6 1_555 1_555
C13_6 C14_6 1_555 1_555
C14_6 C15_6 1_555 1_555
C15_6 H5_6 1_555 1_555
C16_6 C15_6 1_555 1_555
H6_6 C16_6 1_555 1_555
C17_6 C16_6 1_555 1_555
C18_6 C17_6 1_555 1_555
C19_6 C18_6 1_555 1_555
C20_6 C19_6 1_555 1_555
C21_6 C9_6 1_555 1_555
F4_6 C24_6 1_555 1_555
O6_6 C13_6 1_555 1_555
C22_6 C14_6 1_555 1_555
H7_6 C22_6 1_555 1_555
C23_6 C17_6 1_555 1_555
H8_6 C23_6 1_555 1_555
C24_6 C12_6 1_555 1_555
F9_6 C57_6 1_555 1_555
C51_6 H17_6 1_555 1_555
C52_6 C51_6 1_555 1_555
H18_6 C52_6 1_555 1_555
C53_6 C52_6 1_555 1_555
C54_6 C53_6 1_555 1_555
C55_6 C54_6 1_555 1_555
C56_6 C55_6 1_555 1_555
C57_6 C56_6 1_555 1_555
F10_6 C60_6 1_555 1_555
C60_6 C56_6 1_555 1_555
F11_6 C69_6 1_555 1_555
O24_4 C61_6 1_555 1_555
C61_6 C62_6 1_555 1_555
C62_6 C63_6 1_555 1_555
C63_6 H21_6 1_555 1_555
C64_6 C63_6 1_555 1_555
H22_6 C64_6 1_555 1_555
C65_6 C64_6 1_555 1_555
C66_6 C65_6 1_555 1_555
C67_6 C66_6 1_555 1_555
C68_6 C67_6 1_555 1_555
C69_6 C57_6 1_555 1_555
F12_6 C72_6 1_555 1_555
O19_4 C61_6 1_555 1_555
C70_6 C62_6 1_555 1_555
H23_6 C70_6 1_555 1_555
C71_6 C65_6 1_555 1_555
H24_6 C71_6 1_555 1_555
C72_6 C60_6 1_555 1_555
Zr10 O5_6 1_555 1_555
Zr8 O6_6 1_555 1_555
C10_6 C11_6 1_555 1_555
C20_6 C21_6 1_555 1_555
C20_6 C24_6 1_555 1_555
C22_6 C23_6 1_555 1_555
C68_6 C69_6 1_555 1_555
C68_6 C72_6 1_555 1_555
C70_6 C71_6 1_555 1_555
O24_2 C61_7 1_555 1_555
C61_7 C62_7 1_555 1_555
O19_2 C61_7 1_555 1_555
H23_7 C70_7 1_555 1_555
H24_7 C71_7 1_555 1_555
C70_7 C71_7 1_555 1_555
C63_7 H21_7 1_555 1_555
C64_7 C63_7 1_555 1_555
H22_7 C64_7 1_555 1_555
O17_4 C1_7 1_555 1_555
C1_7 C2_7 1_555 1_555
O4_7 C1_7 1_555 1_555
C10_7 C2_7 1_555 1_555
H3_7 C10_7 1_555 1_555
H4_7 C11_7 1_555 1_555
F9_7 C57_7 1_555 1_555
O13_7 C49_7 1_555 1_555
C49_7 C50_7 1_555 1_555
C50_7 C51_7 1_555 1_555
C51_7 H17_7 1_555 1_555
C52_7 C51_7 1_555 1_555
H18_7 C52_7 1_555 1_555
C53_7 C52_7 1_555 1_555
C54_7 C53_7 1_555 1_555
C55_7 C54_7 1_555 1_555
C56_7 C55_7 1_555 1_555
C57_7 C56_7 1_555 1_555
F10_7 C60_7 1_555 1_555
C58_7 C50_7 1_555 1_555
H19_7 C58_7 1_555 1_555
C59_7 C53_7 1_555 1_555
H20_7 C59_7 1_555 1_555
C60_7 C56_7 1_555 1_555
F11_7 C69_7 1_555 1_555
C66_7 C65_7 1_555 1_555
C67_7 C66_7 1_555 1_555
C68_7 C67_7 1_555 1_555
C69_7 C57_7 1_555 1_555
F12_7 C72_7 1_555 1_555
C72_7 C60_7 1_555 1_555
Zr10_4 O4_7 1_555 1_555
C10_7 C11_7 1_555 1_555
O13_7 Zr12_2 1_555 1_555
C49_7 O25_4 1_555 1_555
C58_7 C59_7 1_555 1_555
C68_7 C69_7 1_555 1_555
C68_7 C72_7 1_555 1_555
O5_7 C13_7 1_555 1_555
C13_7 C14_7 1_555 1_555
O6_7 C13_7 1_555 1_555
C22_7 C14_7 1_555 1_555
H7_7 C22_7 1_555 1_555
H8_7 C23_7 1_555 1_555
Zr10_3 O5_7 1_555 1_555
Zr9 O6_7 1_555 1_555
C22_7 C23_7 1_555 1_555
F1_7 C9_7 1_555 1_555
C3_7 H1_7 1_555 1_555
C4_7 C3_7 1_555 1_555
H2_7 C4_7 1_555 1_555
C5_7 C4_7 1_555 1_555
C6_7 C5_7 1_555 1_555
C7_7 C6_7 1_555 1_555
C8_7 C7_7 1_555 1_555
C9_7 C8_7 1_555 1_555
F2_7 C12_7 1_555 1_555
C12_7 C8_7 1_555 1_555
F3_7 C21_7 1_555 1_555
C15_7 H5_7 1_555 1_555
C16_7 C15_7 1_555 1_555
H6_7 C16_7 1_555 1_555
C17_7 C16_7 1_555 1_555
C18_7 C17_7 1_555 1_555
C19_7 C18_7 1_555 1_555
C20_7 C19_7 1_555 1_555
C21_7 C9_7 1_555 1_555
F4_7 C24_7 1_555 1_555
C24_7 C12_7 1_555 1_555
C20_7 C21_7 1_555 1_555
C20_7 C24_7 1_555 1_555
F1_8 C9_8 1_555 1_555
O17 C1_8 1_555 1_555
C1_8 C2_8 1_555 1_555
C2_8 C3_8 1_555 1_555
C3_8 H1_8 1_555 1_555
C4_8 C3_8 1_555 1_555
H2_8 C4_8 1_555 1_555
C5_8 C4_8 1_555 1_555
C6_8 C5_8 1_555 1_555
C7_8 C6_8 1_555 1_555
C8_8 C7_8 1_555 1_555
C9_8 C8_8 1_555 1_555
F2_8 C12_8 1_555 1_555
O4_8 C1_8 1_555 1_555
C10_8 C2_8 1_555 1_555
H3_8 C10_8 1_555 1_555
C11_8 C5_8 1_555 1_555
H4_8 C11_8 1_555 1_555
C12_8 C8_8 1_555 1_555
F3_8 C21_8 1_555 1_555
O5_8 C13_8 1_555 1_555
C13_8 C14_8 1_555 1_555
C14_8 C15_8 1_555 1_555
C15_8 H5_8 1_555 1_555
C16_8 C15_8 1_555 1_555
H6_8 C16_8 1_555 1_555
C17_8 C16_8 1_555 1_555
C18_8 C17_8 1_555 1_555
C19_8 C18_8 1_555 1_555
C20_8 C19_8 1_555 1_555
C21_8 C9_8 1_555 1_555
F4_8 C24_8 1_555 1_555
O6_8 C13_8 1_555 1_555
C22_8 C14_8 1_555 1_555
H7_8 C22_8 1_555 1_555
C23_8 C17_8 1_555 1_555
H8_8 C23_8 1_555 1_555
C24_8 C12_8 1_555 1_555
O13_8 C49_8 1_555 1_555
C49_8 C50_8 1_555 1_555
C50_8 C51_8 1_555 1_555
C51_8 H17_8 1_555 1_555
C52_8 C51_8 1_555 1_555
H18_8 C52_8 1_555 1_555
Zr10 O4_8 1_555 1_555
Zr10_2 O5_8 1_555 1_555
Zr8_2 O6_8 1_555 1_555
C10_8 C11_8 1_555 1_555
C20_8 C21_8 1_555 1_555
C20_8 C24_8 1_555 1_555
C22_8 C23_8 1_555 1_555
O13_8 Zr11 1_555 1_555
C49_8 O25 1_555 1_555
F9_8 C57_8 1_555 1_555
C54_8 C53_8 1_555 1_555
C55_8 C54_8 1_555 1_555
C56_8 C55_8 1_555 1_555
C57_8 C56_8 1_555 1_555
F10_8 C60_8 1_555 1_555
H19_8 C58_8 1_555 1_555
C59_8 C53_8 1_555 1_555
H20_8 C59_8 1_555 1_555
C60_8 C56_8 1_555 1_555
F11_8 C69_8 1_555 1_555
O24_3 C61_8 1_555 1_555
C61_8 C62_8 1_555 1_555
C62_8 C63_8 1_555 1_555
C63_8 H21_8 1_555 1_555
C64_8 C63_8 1_555 1_555
H22_8 C64_8 1_555 1_555
C65_8 C64_8 1_555 1_555
C66_8 C65_8 1_555 1_555
C67_8 C66_8 1_555 1_555
C68_8 C67_8 1_555 1_555
C69_8 C57_8 1_555 1_555
F12_8 C72_8 1_555 1_555
O19_3 C61_8 1_555 1_555
C70_8 C62_8 1_555 1_555
H23_8 C70_8 1_555 1_555
C71_8 C65_8 1_555 1_555
H24_8 C71_8 1_555 1_555
C72_8 C60_8 1_555 1_555
C58_8 C59_8 1_555 1_555
C68_8 C69_8 1_555 1_555
C68_8 C72_8 1_555 1_555
C70_8 C71_8 1_555 1_555
O5_9 C13_9 1_555 1_555
C13_9 C14_9 1_555 1_555
C14_9 C15_9 1_555 1_555
C15_9 H5_9 1_555 1_555
C16_9 C15_9 1_555 1_555
H6_9 C16_9 1_555 1_555
O6_9 C13_9 1_555 1_555
Zr11 O5_9 1_555 1_555
Zr10 O6_9 1_555 1_555
F1_9 C9_9 1_555 1_555
O18_4 C1_9 1_555 1_555
C1_9 C2_9 1_555 1_555
C2_9 C3_9 1_555 1_555
C3_9 H1_9 1_555 1_555
C4_9 C3_9 1_555 1_555
H2_9 C4_9 1_555 1_555
C5_9 C4_9 1_555 1_555
C6_9 C5_9 1_555 1_555
C7_9 C6_9 1_555 1_555
C8_9 C7_9 1_555 1_555
C9_9 C8_9 1_555 1_555
F2_9 C12_9 1_555 1_555
O4_9 C1_9 1_555 1_555
C10_9 C2_9 1_555 1_555
H3_9 C10_9 1_555 1_555
C11_9 C5_9 1_555 1_555
H4_9 C11_9 1_555 1_555
C12_9 C8_9 1_555 1_555
F3_9 C21_9 1_555 1_555
C18_9 C17_9 1_555 1_555
C19_9 C18_9 1_555 1_555
C20_9 C19_9 1_555 1_555
C21_9 C9_9 1_555 1_555
F4_9 C24_9 1_555 1_555
H7_9 C22_9 1_555 1_555
C23_9 C17_9 1_555 1_555
H8_9 C23_9 1_555 1_555
C24_9 C12_9 1_555 1_555
Zr12_2 O4_9 1_555 1_555
C10_9 C11_9 1_555 1_555
C20_9 C21_9 1_555 1_555
C20_9 C24_9 1_555 1_555
C22_9 C23_9 1_555 1_555
O18_2 C1_10 1_555 1_555
C1_10 C2_10 1_555 1_555
C2_10 C3_10 1_555 1_555
C3_10 H1_10 1_555 1_555
C4_10 C3_10 1_555 1_555
H2_10 C4_10 1_555 1_555
O4_10 C1_10 1_555 1_555
Zr11_2 O4_10 1_555 1_555
F1_10 C9_10 1_555 1_555
C6_10 C5_10 1_555 1_555
C7_10 C6_10 1_555 1_555
C8_10 C7_10 1_555 1_555
C9_10 C8_10 1_555 1_555
F2_10 C12_10 1_555 1_555
H3_10 C10_10 1_555 1_555
C11_10 C5_10 1_555 1_555
H4_10 C11_10 1_555 1_555
C12_10 C8_10 1_555 1_555
F3_10 C21_10 1_555 1_555
O5_10 C13_10 1_555 1_555
C13_10 C14_10 1_555 1_555
C14_10 C15_10 1_555 1_555
C15_10 H5_10 1_555 1_555
C16_10 C15_10 1_555 1_555
H6_10 C16_10 1_555 1_555
C17_10 C16_10 1_555 1_555
C18_10 C17_10 1_555 1_555
C19_10 C18_10 1_555 1_555
C20_10 C19_10 1_555 1_555
C21_10 C9_10 1_555 1_555
F4_10 C24_10 1_555 1_555
O6_10 C13_10 1_555 1_555
C22_10 C14_10 1_555 1_555
H7_10 C22_10 1_555 1_555
C23_10 C17_10 1_555 1_555
H8_10 C23_10 1_555 1_555
C24_10 C12_10 1_555 1_555
Zr12 O5_10 1_555 1_555
Zr10_3 O6_10 1_555 1_555
C10_10 C11_10 1_555 1_555
C20_10 C21_10 1_555 1_555
C20_10 C24_10 1_555 1_555
C22_10 C23_10 1_555 1_555
O5_11 C13_11 1_555 1_555
C13_11 C14_11 1_555 1_555
O6_11 C13_11 1_555 1_555
C22_11 C14_11 1_555 1_555
H7_11 C22_11 1_555 1_555
H8_11 C23_11 1_555 1_555
Zr12_2 O5_11 1_555 1_555
Zr10_4 O6_11 1_555 1_555
C22_11 C23_11 1_555 1_555
O18 C1_11 1_555 1_555
C1_11 C2_11 1_555 1_555
O4_11 C1_11 1_555 1_555
C10_11 C2_11 1_555 1_555
H3_11 C10_11 1_555 1_555
H4_11 C11_11 1_555 1_555
Zr11 O4_11 1_555 1_555
C10_11 C11_11 1_555 1_555
F1_11 C9_11 1_555 1_555
C3_11 H1_11 1_555 1_555
C4_11 C3_11 1_555 1_555
H2_11 C4_11 1_555 1_555
C5_11 C4_11 1_555 1_555
C6_11 C5_11 1_555 1_555
C7_11 C6_11 1_555 1_555
C8_11 C7_11 1_555 1_555
C9_11 C8_11 1_555 1_555
F2_11 C12_11 1_555 1_555
C12_11 C8_11 1_555 1_555
F3_11 C21_11 1_555 1_555
C15_11 H5_11 1_555 1_555
C16_11 C15_11 1_555 1_555
H6_11 C16_11 1_555 1_555
C17_11 C16_11 1_555 1_555
C18_11 C17_11 1_555 1_555
C19_11 C18_11 1_555 1_555
C20_11 C19_11 1_555 1_555
C21_11 C9_11 1_555 1_555
F4_11 C24_11 1_555 1_555
C24_11 C12_11 1_555 1_555
C20_11 C21_11 1_555 1_555
C20_11 C24_11 1_555 1_555
F1_12 C9_12 1_555 1_555
O18_3 C1_12 1_555 1_555
C1_12 C2_12 1_555 1_555
C2_12 C3_12 1_555 1_555
C3_12 H1_12 1_555 1_555
C4_12 C3_12 1_555 1_555
H2_12 C4_12 1_555 1_555
C5_12 C4_12 1_555 1_555
C6_12 C5_12 1_555 1_555
C7_12 C6_12 1_555 1_555
C8_12 C7_12 1_555 1_555
C9_12 C8_12 1_555 1_555
F2_12 C12_12 1_555 1_555
O4_12 C1_12 1_555 1_555
C10_12 C2_12 1_555 1_555
H3_12 C10_12 1_555 1_555
C11_12 C5_12 1_555 1_555
H4_12 C11_12 1_555 1_555
C12_12 C8_12 1_555 1_555
F3_12 C21_12 1_555 1_555
O5_12 C13_12 1_555 1_555
C13_12 C14_12 1_555 1_555
C14_12 C15_12 1_555 1_555
C15_12 H5_12 1_555 1_555
C16_12 C15_12 1_555 1_555
H6_12 C16_12 1_555 1_555
C17_12 C16_12 1_555 1_555
C18_12 C17_12 1_555 1_555
C19_12 C18_12 1_555 1_555
C20_12 C19_12 1_555 1_555
C21_12 C9_12 1_555 1_555
F4_12 C24_12 1_555 1_555
O6_12 C13_12 1_555 1_555
C22_12 C14_12 1_555 1_555
H7_12 C22_12 1_555 1_555
C23_12 C17_12 1_555 1_555
H8_12 C23_12 1_555 1_555
C24_12 C12_12 1_555 1_555
Zr12 O4_12 1_555 1_555
Zr11_2 O5_12 1_555 1_555
Zr10_2 O6_12 1_555 1_555
C10_12 C11_12 1_555 1_555
C20_12 C21_12 1_555 1_555
C20_12 C24_12 1_555 1_555
C22_12 C23_12 1_555 1_555
O7_5 Zr9 1_555 1_555
Zr12 O7_5 1_555 1_555
O7_5 Zr10_3 1_555 1_555
O7_6 Zr9_2 1_555 1_555
Zr12_2 O7_6 1_555 1_555
O7_6 Zr10_4 1_555 1_555
O7_7 Zr8 1_555 1_555
Zr11 O7_7 1_555 1_555
O7_7 Zr10 1_555 1_555
O7_8 Zr8_2 1_555 1_555
Zr11_2 O7_8 1_555 1_555
O7_8 Zr10_2 1_555 1_555
F1_13 C9_13 1_555 1_555
C6_13 C5_13 1_555 1_555
C7_13 C6_13 1_555 1_555
C8_13 C7_13 1_555 1_555
C9_13 C8_13 1_555 1_555
F2_13 C12_13 1_555 1_555
H3_13 C10_13 1_555 1_555
C11_13 C5_13 1_555 1_555
H4_13 C11_13 1_555 1_555
C12_13 C8_13 1_555 1_555
F3_13 C21_13 1_555 1_555
O5_13 C13_13 1_555 1_555
C13_13 C14_13 1_555 1_555
C14_13 C15_13 1_555 1_555
C15_13 H5_13 1_555 1_555
C16_13 C15_13 1_555 1_555
H6_13 C16_13 1_555 1_555
C17_13 C16_13 1_555 1_555
C18_13 C17_13 1_555 1_555
C19_13 C18_13 1_555 1_555
C20_13 C19_13 1_555 1_555
C21_13 C9_13 1_555 1_555
F4_13 C24_13 1_555 1_555
O6_13 C13_13 1_555 1_555
C22_13 C14_13 1_555 1_555
H7_13 C22_13 1_555 1_555
C23_13 C17_13 1_555 1_555
H8_13 C23_13 1_555 1_555
C24_13 C12_13 1_555 1_555
F9_9 C57_9 1_555 1_555
C51_9 H17_9 1_555 1_555
C52_9 C51_9 1_555 1_555
H18_9 C52_9 1_555 1_555
C53_9 C52_9 1_555 1_555
C54_9 C53_9 1_555 1_555
C55_9 C54_9 1_555 1_555
C56_9 C55_9 1_555 1_555
C57_9 C56_9 1_555 1_555
F10_9 C60_9 1_555 1_555
C60_9 C56_9 1_555 1_555
F11_9 C69_9 1_555 1_555
O15_3 C61_9 1_555 1_555
C61_9 C62_9 1_555 1_555
C62_9 C63_9 1_555 1_555
C63_9 H21_9 1_555 1_555
C64_9 C63_9 1_555 1_555
H22_9 C64_9 1_555 1_555
C65_9 C64_9 1_555 1_555
C66_9 C65_9 1_555 1_555
C67_9 C66_9 1_555 1_555
C68_9 C67_9 1_555 1_555
C69_9 C57_9 1_555 1_555
F12_9 C72_9 1_555 1_555
O16_3 C61_9 1_555 1_555
C70_9 C62_9 1_555 1_555
H23_9 C70_9 1_555 1_555
C71_9 C65_9 1_555 1_555
H24_9 C71_9 1_555 1_555
C72_9 C60_9 1_555 1_555
Zr4_3 O15_3 1_555 1_555
Zr6_3 O16_3 1_555 1_555
Zr9_3 O5_13 1_555 1_555
Zr12_3 O6_13 1_555 1_555
C10_13 C11_13 1_555 1_555
C20_13 C21_13 1_555 1_555
C20_13 C24_13 1_555 1_555
C22_13 C23_13 1_555 1_555
C68_9 C69_9 1_555 1_555
C68_9 C72_9 1_555 1_555
C70_9 C71_9 1_555 1_555
F5_5 C33_5 1_555 1_555
C27_5 H9_5 1_555 1_555
C28_5 C27_5 1_555 1_555
H10_5 C28_5 1_555 1_555
C29_5 C28_5 1_555 1_555
C30_5 C29_5 1_555 1_555
C31_5 C30_5 1_555 1_555
C32_5 C31_5 1_555 1_555
C33_5 C32_5 1_555 1_555
F6_5 C36_5 1_555 1_555
C36_5 C32_5 1_555 1_555
F7_5 C45_5 1_555 1_555
O11_3 C37_5 1_555 1_555
C37_5 C38_5 1_555 1_555
C38_5 C39_5 1_555 1_555
C39_5 H13_5 1_555 1_555
C40_5 C39_5 1_555 1_555
H14_5 C40_5 1_555 1_555
C41_5 C40_5 1_555 1_555
C42_5 C41_5 1_555 1_555
C43_5 C42_5 1_555 1_555
C44_5 C43_5 1_555 1_555
C45_5 C33_5 1_555 1_555
F8_5 C48_5 1_555 1_555
O12_3 C37_5 1_555 1_555
C46_5 C38_5 1_555 1_555
H15_5 C46_5 1_555 1_555
C47_5 C41_5 1_555 1_555
H16_5 C47_5 1_555 1_555
C48_5 C36_5 1_555 1_555
Zr5_3 O12_3 1_555 1_555
Zr7_2 O11_3 1_555 1_555
C44_5 C45_5 1_555 1_555
C44_5 C48_5 1_555 1_555
C46_5 C47_5 1_555 1_555
Zr1_3 O1_5 1_555 1_555
O1_5 C1_13 1_555 1_555
O2_5 Zr1_3 1_555 1_555
O3_5 Zr1_3 1_555 1_555
C1_13 C2_13 1_555 1_555
C2_13 C3_13 1_555 1_555
C3_13 H1_13 1_555 1_555
C4_13 C3_13 1_555 1_555
H2_13 C4_13 1_555 1_555
O4_13 C1_13 1_555 1_555
Zr2_3 O2_5 1_555 1_555
O7_9 Zr2_3 1_555 1_555
Zr3_2 O3_5 1_555 1_555
O8_5 Zr1_3 1_555 1_555
O9_5 C25_5 1_555 1_555
C25_5 C26_5 1_555 1_555
O10_5 Zr3_2 1_555 1_555
C34_5 C26_5 1_555 1_555
H11_5 C34_5 1_555 1_555
H12_5 C35_5 1_555 1_555
O13_9 C49_9 1_555 1_555
C49_9 C50_9 1_555 1_555
O14_5 Zr1_3 1_555 1_555
C58_9 C50_9 1_555 1_555
H19_9 C58_9 1_555 1_555
H20_9 C59_9 1_555 1_555
Zr8_3 O4_13 1_555 1_555
Zr10_5 O2_5 1_555 1_555
Zr11_3 O7_9 1_555 1_555
O17_5 Zr2_3 1_555 1_555
O18_5 Zr3_2 1_555 1_555
O19_5 Zr1_3 1_555 1_555
O20_3 Zr2_3 1_555 1_555
O21_3 Zr3_2 1_555 1_555
O22_3 Zr1_3 1_555 1_555
O23_3 Zr3_2 1_555 1_555
O24_5 Zr2_3 1_555 1_555
O25_5 Zr2_3 1_555 1_555
O26_5 Zr1_3 1_555 1_555
O27_5 Zr2_3 1_555 1_555
O28_5 Zr3_2 1_555 1_555
O3_5 Zr2_3 1_555 1_555
O7_9 Zr3_2 1_555 1_555
Zr3_2 O26_5 1_555 1_555
O8_5 Zr8_3 1_555 1_555
O8_5 Zr10_5 1_555 1_555
O9_5 Zr8_3 1_555 1_555
C25_5 O10_5 1_555 1_555
C34_5 C35_5 1_555 1_555
O13_9 Zr10_5 1_555 1_555
C49_9 O14_5 1_555 1_555
C58_9 C59_9 1_555 1_555
Zr8_3 O26_5 1_555 1_555
Zr8_3 O28_5 1_555 1_555
Zr10_5 O27_5 1_555 1_555
Zr11_3 O27_5 1_555 1_555
Zr11_3 O28_5 1_555 1_555
Zr1_4 O1_6 1_555 1_555
F1_14 C9_14 1_555 1_555
O1_6 C1_14 1_555 1_555
O2_6 Zr1_4 1_555 1_555
O3_6 Zr1_4 1_555 1_555
C1_14 C2_14 1_555 1_555
C2_14 C3_14 1_555 1_555
C3_14 H1_14 1_555 1_555
C4_14 C3_14 1_555 1_555
H2_14 C4_14 1_555 1_555
C5_14 C4_14 1_555 1_555
C6_14 C5_14 1_555 1_555
C7_14 C6_14 1_555 1_555
C8_14 C7_14 1_555 1_555
C9_14 C8_14 1_555 1_555
F2_14 C12_14 1_555 1_555
O4_14 C1_14 1_555 1_555
C10_14 C2_14 1_555 1_555
H3_14 C10_14 1_555 1_555
C11_14 C5_14 1_555 1_555
H4_14 C11_14 1_555 1_555
C12_14 C8_14 1_555 1_555
F3_14 C21_14 1_555 1_555
C18_14 C17_14 1_555 1_555
C19_14 C18_14 1_555 1_555
C20_14 C19_14 1_555 1_555
C21_14 C9_14 1_555 1_555
F4_14 C24_14 1_555 1_555
H7_14 C22_14 1_555 1_555
C23_14 C17_14 1_555 1_555
H8_14 C23_14 1_555 1_555
C24_14 C12_14 1_555 1_555
Zr5_3 O2_6 1_555 1_555
O7_10 Zr5_3 1_555 1_555
Zr7_2 O3_6 1_555 1_555
O8_6 Zr1_4 1_555 1_555
F5_6 C33_6 1_555 1_555
O9_6 C25_6 1_555 1_555
C25_6 C26_6 1_555 1_555
C26_6 C27_6 1_555 1_555
C27_6 H9_6 1_555 1_555
C28_6 C27_6 1_555 1_555
H10_6 C28_6 1_555 1_555
C29_6 C28_6 1_555 1_555
C30_6 C29_6 1_555 1_555
C31_6 C30_6 1_555 1_555
C32_6 C31_6 1_555 1_555
C33_6 C32_6 1_555 1_555
F6_6 C36_6 1_555 1_555
O10_6 Zr7_2 1_555 1_555
C34_6 C26_6 1_555 1_555
H11_6 C34_6 1_555 1_555
C35_6 C29_6 1_555 1_555
H12_6 C35_6 1_555 1_555
C36_6 C32_6 1_555 1_555
F7_6 C45_6 1_555 1_555
C42_6 C41_6 1_555 1_555
C43_6 C42_6 1_555 1_555
C44_6 C43_6 1_555 1_555
C45_6 C33_6 1_555 1_555
F8_6 C48_6 1_555 1_555
C48_6 C36_6 1_555 1_555
F9_10 C57_10 1_555 1_555
O13_10 C49_10 1_555 1_555
C49_10 C50_10 1_555 1_555
C50_10 C51_10 1_555 1_555
C51_10 H17_10 1_555 1_555
C52_10 C51_10 1_555 1_555
H18_10 C52_10 1_555 1_555
C53_10 C52_10 1_555 1_555
C54_10 C53_10 1_555 1_555
C55_10 C54_10 1_555 1_555
C56_10 C55_10 1_555 1_555
C57_10 C56_10 1_555 1_555
F10_10 C60_10 1_555 1_555
O14_6 Zr1_4 1_555 1_555
C58_10 C50_10 1_555 1_555
H19_10 C58_10 1_555 1_555
C59_10 C53_10 1_555 1_555
H20_10 C59_10 1_555 1_555
C60_10 C56_10 1_555 1_555
F11_10 C69_10 1_555 1_555
O15_4 C61_10 1_555 1_555
C61_10 C62_10 1_555 1_555
C62_10 C63_10 1_555 1_555
C63_10 H21_10 1_555 1_555
C64_10 C63_10 1_555 1_555
H22_10 C64_10 1_555 1_555
C65_10 C64_10 1_555 1_555
C66_10 C65_10 1_555 1_555
C67_10 C66_10 1_555 1_555
C68_10 C67_10 1_555 1_555
C69_10 C57_10 1_555 1_555
F12_10 C72_10 1_555 1_555
O16_4 C61_10 1_555 1_555
C70_10 C62_10 1_555 1_555
H23_10 C70_10 1_555 1_555
C71_10 C65_10 1_555 1_555
H24_10 C71_10 1_555 1_555
C72_10 C60_10 1_555 1_555
Zr4_4 O15_4 1_555 1_555
Zr6_4 O16_4 1_555 1_555
Zr8_4 O4_14 1_555 1_555
Zr10_6 O2_6 1_555 1_555
Zr11_4 O7_10 1_555 1_555
O17_6 Zr5_3 1_555 1_555
O18_6 Zr7_2 1_555 1_555
O19_6 Zr1_4 1_555 1_555
O21_4 Zr7_2 1_555 1_555
O22_4 Zr1_4 1_555 1_555
O24_6 Zr5_3 1_555 1_555
O25_6 Zr5_3 1_555 1_555
O26_6 Zr1_4 1_555 1_555
O27_6 Zr5_3 1_555 1_555
O28_6 Zr7_2 1_555 1_555
O3_6 Zr5_3 1_555 1_555
C10_14 C11_14 1_555 1_555
C20_14 C21_14 1_555 1_555
C20_14 C24_14 1_555 1_555
C22_14 C23_14 1_555 1_555
O7_10 Zr7_2 1_555 1_555
Zr7_2 O26_6 1_555 1_555
O8_6 Zr8_4 1_555 1_555
O8_6 Zr10_6 1_555 1_555
O9_6 Zr8_4 1_555 1_555
C25_6 O10_6 1_555 1_555
C34_6 C35_6 1_555 1_555
C44_6 C45_6 1_555 1_555
C44_6 C48_6 1_555 1_555
O13_10 Zr10_6 1_555 1_555
C49_10 O14_6 1_555 1_555
C58_10 C59_10 1_555 1_555
C68_10 C69_10 1_555 1_555
C68_10 C72_10 1_555 1_555
C70_10 C71_10 1_555 1_555
Zr8_4 O26_6 1_555 1_555
Zr8_4 O28_6 1_555 1_555
Zr10_6 O27_6 1_555 1_555
Zr11_4 O27_6 1_555 1_555
Zr11_4 O28_6 1_555 1_555
O5_14 C13_14 1_555 1_555
C13_14 C14_14 1_555 1_555
C14_14 C15_14 1_555 1_555
C15_14 H5_14 1_555 1_555
C16_14 C15_14 1_555 1_555
H6_14 C16_14 1_555 1_555
O6_14 C13_14 1_555 1_555
H15_6 C46_6 1_555 1_555
H16_6 C47_6 1_555 1_555
Zr9_4 O5_14 1_555 1_555
Zr12_4 O6_14 1_555 1_555
C46_6 C47_6 1_555 1_555
C39_6 H13_6 1_555 1_555
C40_6 C39_6 1_555 1_555
H14_6 C40_6 1_555 1_555
O23_3 C37_6 1_555 1_555
C37_6 C38_6 1_555 1_555
O20_3 C37_6 1_555 1_555
F9_11 C57_11 1_555 1_555
C54_11 C53_11 1_555 1_555
C55_11 C54_11 1_555 1_555
C56_11 C55_11 1_555 1_555
C57_11 C56_11 1_555 1_555
F10_11 C60_11 1_555 1_555
H19_11 C58_11 1_555 1_555
C59_11 C53_11 1_555 1_555
H20_11 C59_11 1_555 1_555
C60_11 C56_11 1_555 1_555
F11_11 C69_11 1_555 1_555
O22_4 C61_11 1_555 1_555
C61_11 C62_11 1_555 1_555
C62_11 C63_11 1_555 1_555
C63_11 H21_11 1_555 1_555
C64_11 C63_11 1_555 1_555
H22_11 C64_11 1_555 1_555
C65_11 C64_11 1_555 1_555
C66_11 C65_11 1_555 1_555
C67_11 C66_11 1_555 1_555
C68_11 C67_11 1_555 1_555
C69_11 C57_11 1_555 1_555
F12_11 C72_11 1_555 1_555
O21_4 C61_11 1_555 1_555
C70_11 C62_11 1_555 1_555
H23_11 C70_11 1_555 1_555
C71_11 C65_11 1_555 1_555
H24_11 C71_11 1_555 1_555
C72_11 C60_11 1_555 1_555
C58_11 C59_11 1_555 1_555
C68_11 C69_11 1_555 1_555
C68_11 C72_11 1_555 1_555
C70_11 C71_11 1_555 1_555
Zr4_4 O1_7 1_555 1_555
F1_15 C9_15 1_555 1_555
O1_7 C1_15 1_555 1_555
O2_7 Zr4_4 1_555 1_555
O3_7 Zr4_4 1_555 1_555
C1_15 C2_15 1_555 1_555
C2_15 C3_15 1_555 1_555
C3_15 H1_15 1_555 1_555
C4_15 C3_15 1_555 1_555
H2_15 C4_15 1_555 1_555
C5_15 C4_15 1_555 1_555
C6_15 C5_15 1_555 1_555
C7_15 C6_15 1_555 1_555
C8_15 C7_15 1_555 1_555
C9_15 C8_15 1_555 1_555
F2_15 C12_15 1_555 1_555
O4_15 C1_15 1_555 1_555
C10_15 C2_15 1_555 1_555
H3_15 C10_15 1_555 1_555
C11_15 C5_15 1_555 1_555
H4_15 C11_15 1_555 1_555
C12_15 C8_15 1_555 1_555
F3_15 C21_15 1_555 1_555
O5_15 C13_15 1_555 1_555
C13_15 C14_15 1_555 1_555
C14_15 C15_15 1_555 1_555
C15_15 H5_15 1_555 1_555
C16_15 C15_15 1_555 1_555
H6_15 C16_15 1_555 1_555
C17_15 C16_15 1_555 1_555
C18_15 C17_15 1_555 1_555
C19_15 C18_15 1_555 1_555
C20_15 C19_15 1_555 1_555
C21_15 C9_15 1_555 1_555
F4_15 C24_15 1_555 1_555
O6_15 C13_15 1_555 1_555
C22_15 C14_15 1_555 1_555
H7_15 C22_15 1_555 1_555
C23_15 C17_15 1_555 1_555
H8_15 C23_15 1_555 1_555
C24_15 C12_15 1_555 1_555
Zr2_4 O2_7 1_555 1_555
O7_11 Zr2_4 1_555 1_555
Zr6_4 O3_7 1_555 1_555
O8_7 Zr4_4 1_555 1_555
F5_7 C33_7 1_555 1_555
O9_7 C25_7 1_555 1_555
C25_7 C26_7 1_555 1_555
C26_7 C27_7 1_555 1_555
C27_7 H9_7 1_555 1_555
C28_7 C27_7 1_555 1_555
H10_7 C28_7 1_555 1_555
C29_7 C28_7 1_555 1_555
C30_7 C29_7 1_555 1_555
C31_7 C30_7 1_555 1_555
C32_7 C31_7 1_555 1_555
C33_7 C32_7 1_555 1_555
F6_7 C36_7 1_555 1_555
O10_7 Zr6_4 1_555 1_555
C34_7 C26_7 1_555 1_555
H11_7 C34_7 1_555 1_555
C35_7 C29_7 1_555 1_555
H12_7 C35_7 1_555 1_555
C36_7 C32_7 1_555 1_555
F7_7 C45_7 1_555 1_555
O11_4 C37_7 1_555 1_555
C37_7 C38_7 1_555 1_555
C38_7 C39_7 1_555 1_555
C39_7 H13_7 1_555 1_555
C40_7 C39_7 1_555 1_555
H14_7 C40_7 1_555 1_555
C41_7 C40_7 1_555 1_555
C42_7 C41_7 1_555 1_555
C43_7 C42_7 1_555 1_555
C44_7 C43_7 1_555 1_555
C45_7 C33_7 1_555 1_555
F8_7 C48_7 1_555 1_555
O12_4 C37_7 1_555 1_555
C46_7 C38_7 1_555 1_555
H15_7 C46_7 1_555 1_555
C47_7 C41_7 1_555 1_555
H16_7 C47_7 1_555 1_555
C48_7 C36_7 1_555 1_555
O13_11 C49_11 1_555 1_555
C49_11 C50_11 1_555 1_555
C50_11 C51_11 1_555 1_555
C51_11 H17_11 1_555 1_555
C52_11 C51_11 1_555 1_555
H18_11 C52_11 1_555 1_555
O14_7 Zr4_4 1_555 1_555
Zr5_4 O12_4 1_555 1_555
Zr6_3 O11_4 1_555 1_555
Zr9_3 O4_15 1_555 1_555
Zr8_3 O5_15 1_555 1_555
Zr10_7 O2_7 1_555 1_555
Zr12_3 O7_11 1_555 1_555
Zr11_3 O6_15 1_555 1_555
O17_7 Zr2_4 1_555 1_555
O18_7 Zr6_4 1_555 1_555
O19_7 Zr4_4 1_555 1_555
O20_4 Zr2_4 1_555 1_555
O23_4 Zr6_4 1_555 1_555
O24_7 Zr2_4 1_555 1_555
O25_7 Zr2_4 1_555 1_555
O26_7 Zr4_4 1_555 1_555
O27_7 Zr2_4 1_555 1_555
O28_7 Zr6_4 1_555 1_555
O3_7 Zr2_4 1_555 1_555
C10_15 C11_15 1_555 1_555
C20_15 C21_15 1_555 1_555
C20_15 C24_15 1_555 1_555
C22_15 C23_15 1_555 1_555
O7_11 Zr6_4 1_555 1_555
Zr6_4 O26_7 1_555 1_555
O8_7 Zr9_3 1_555 1_555
O8_7 Zr10_7 1_555 1_555
O9_7 Zr9_3 1_555 1_555
C25_7 O10_7 1_555 1_555
C34_7 C35_7 1_555 1_555
C44_7 C45_7 1_555 1_555
C44_7 C48_7 1_555 1_555
C46_7 C47_7 1_555 1_555
O13_11 Zr10_7 1_555 1_555
C49_11 O14_7 1_555 1_555
Zr9_3 O26_7 1_555 1_555
Zr9_3 O28_7 1_555 1_555
Zr10_7 O27_7 1_555 1_555
Zr12_3 O27_7 1_555 1_555
Zr12_3 O28_7 1_555 1_555
F1_16 C9_16 1_555 1_555
C3_16 H1_16 1_555 1_555
C4_16 C3_16 1_555 1_555
H2_16 C4_16 1_555 1_555
C5_16 C4_16 1_555 1_555
C6_16 C5_16 1_555 1_555
C7_16 C6_16 1_555 1_555
C8_16 C7_16 1_555 1_555
C9_16 C8_16 1_555 1_555
F2_16 C12_16 1_555 1_555
C12_16 C8_16 1_555 1_555
F3_16 C21_16 1_555 1_555
C15_16 H5_16 1_555 1_555
C16_16 C15_16 1_555 1_555
H6_16 C16_16 1_555 1_555
C17_16 C16_16 1_555 1_555
C18_16 C17_16 1_555 1_555
C19_16 C18_16 1_555 1_555
C20_16 C19_16 1_555 1_555
C21_16 C9_16 1_555 1_555
F4_16 C24_16 1_555 1_555
C24_16 C12_16 1_555 1_555
F5_8 C33_8 1_555 1_555
C30_8 C29_8 1_555 1_555
C31_8 C30_8 1_555 1_555
C32_8 C31_8 1_555 1_555
C33_8 C32_8 1_555 1_555
F6_8 C36_8 1_555 1_555
H11_8 C34_8 1_555 1_555
C35_8 C29_8 1_555 1_555
H12_8 C35_8 1_555 1_555
C36_8 C32_8 1_555 1_555
F7_8 C45_8 1_555 1_555
O23_4 C37_8 1_555 1_555
C37_8 C38_8 1_555 1_555
C38_8 C39_8 1_555 1_555
C39_8 H13_8 1_555 1_555
C40_8 C39_8 1_555 1_555
H14_8 C40_8 1_555 1_555
C41_8 C40_8 1_555 1_555
C42_8 C41_8 1_555 1_555
C43_8 C42_8 1_555 1_555
C44_8 C43_8 1_555 1_555
C45_8 C33_8 1_555 1_555
F8_8 C48_8 1_555 1_555
O20_4 C37_8 1_555 1_555
C46_8 C38_8 1_555 1_555
H15_8 C46_8 1_555 1_555
C47_8 C41_8 1_555 1_555
H16_8 C47_8 1_555 1_555
C48_8 C36_8 1_555 1_555
C20_16 C21_16 1_555 1_555
C20_16 C24_16 1_555 1_555
C34_8 C35_8 1_555 1_555
C44_8 C45_8 1_555 1_555
C44_8 C48_8 1_555 1_555
C46_8 C47_8 1_555 1_555
Zr4_3 O1_8 1_555 1_555
O1_8 C1_16 1_555 1_555
O2_8 Zr4_3 1_555 1_555
O3_8 Zr4_3 1_555 1_555
C1_16 C2_16 1_555 1_555
O4_16 C1_16 1_555 1_555
C10_16 C2_16 1_555 1_555
H3_16 C10_16 1_555 1_555
H4_16 C11_16 1_555 1_555
Zr5_4 O2_8 1_555 1_555
O7_12 Zr5_4 1_555 1_555
Zr6_3 O3_8 1_555 1_555
O8_8 Zr4_3 1_555 1_555
O9_8 C25_8 1_555 1_555
C25_8 C26_8 1_555 1_555
C26_8 C27_8 1_555 1_555
C27_8 H9_8 1_555 1_555
C28_8 C27_8 1_555 1_555
H10_8 C28_8 1_555 1_555
O10_8 Zr6_3 1_555 1_555
F9_12 C57_12 1_555 1_555
O13_12 C49_12 1_555 1_555
C49_12 C50_12 1_555 1_555
C50_12 C51_12 1_555 1_555
C51_12 H17_12 1_555 1_555
C52_12 C51_12 1_555 1_555
H18_12 C52_12 1_555 1_555
C53_12 C52_12 1_555 1_555
C54_12 C53_12 1_555 1_555
C55_12 C54_12 1_555 1_555
C56_12 C55_12 1_555 1_555
C57_12 C56_12 1_555 1_555
F10_12 C60_12 1_555 1_555
O14_8 Zr4_3 1_555 1_555
C58_12 C50_12 1_555 1_555
H19_12 C58_12 1_555 1_555
C59_12 C53_12 1_555 1_555
H20_12 C59_12 1_555 1_555
C60_12 C56_12 1_555 1_555
F11_12 C69_12 1_555 1_555
C66_12 C65_12 1_555 1_555
C67_12 C66_12 1_555 1_555
C68_12 C67_12 1_555 1_555
C69_12 C57_12 1_555 1_555
F12_12 C72_12 1_555 1_555
C72_12 C60_12 1_555 1_555
Zr9_4 O4_16 1_555 1_555
Zr10_8 O2_8 1_555 1_555
Zr12_4 O7_12 1_555 1_555
O17_8 Zr5_4 1_555 1_555
O18_8 Zr6_3 1_555 1_555
O19_8 Zr4_3 1_555 1_555
O24_8 Zr5_4 1_555 1_555
O25_8 Zr5_4 1_555 1_555
O26_8 Zr4_3 1_555 1_555
O27_8 Zr5_4 1_555 1_555
O28_8 Zr6_3 1_555 1_555
O3_8 Zr5_4 1_555 1_555
C10_16 C11_16 1_555 1_555
O7_12 Zr6_3 1_555 1_555
Zr6_3 O26_8 1_555 1_555
O8_8 Zr9_4 1_555 1_555
O8_8 Zr10_8 1_555 1_555
O9_8 Zr9_4 1_555 1_555
C25_8 O10_8 1_555 1_555
O13_12 Zr10_8 1_555 1_555
C49_12 O14_8 1_555 1_555
C58_12 C59_12 1_555 1_555
C68_12 C69_12 1_555 1_555
C68_12 C72_12 1_555 1_555
Zr9_4 O26_8 1_555 1_555
Zr9_4 O28_8 1_555 1_555
Zr10_8 O27_8 1_555 1_555
Zr12_4 O27_8 1_555 1_555
Zr12_4 O28_8 1_555 1_555
H23_12 C70_12 1_555 1_555
H24_12 C71_12 1_555 1_555
C70_12 C71_12 1_555 1_555
O5_16 C13_16 1_555 1_555
C13_16 C14_16 1_555 1_555
O6_16 C13_16 1_555 1_555
C22_16 C14_16 1_555 1_555
H7_16 C22_16 1_555 1_555
H8_16 C23_16 1_555 1_555
Zr8_4 O5_16 1_555 1_555
Zr11_4 O6_16 1_555 1_555
C22_16 C23_16 1_555 1_555
C63_12 H21_12 1_555 1_555
C64_12 C63_12 1_555 1_555
H22_12 C64_12 1_555 1_555
O22_3 C61_12 1_555 1_555
C61_12 C62_12 1_555 1_555
O21_3 C61_12 1_555 1_555
F1_17 C9_17 1_555 1_555
C3_17 H1_17 1_555 1_555
C4_17 C3_17 1_555 1_555
H2_17 C4_17 1_555 1_555
C5_17 C4_17 1_555 1_555
C6_17 C5_17 1_555 1_555
C7_17 C6_17 1_555 1_555
C8_17 C7_17 1_555 1_555
C9_17 C8_17 1_555 1_555
F2_17 C12_17 1_555 1_555
C12_17 C8_17 1_555 1_555
F3_17 C21_17 1_555 1_555
C15_17 H5_17 1_555 1_555
C16_17 C15_17 1_555 1_555
H6_17 C16_17 1_555 1_555
C17_17 C16_17 1_555 1_555
C18_17 C17_17 1_555 1_555
C19_17 C18_17 1_555 1_555
C20_17 C19_17 1_555 1_555
C21_17 C9_17 1_555 1_555
F4_17 C24_17 1_555 1_555
C24_17 C12_17 1_555 1_555
C20_17 C21_17 1_555 1_555
C20_17 C24_17 1_555 1_555
O5_17 C13_17 1_555 1_555
C13_17 C14_17 1_555 1_555
O6_17 C13_17 1_555 1_555
C22_17 C14_17 1_555 1_555
H7_17 C22_17 1_555 1_555
H8_17 C23_17 1_555 1_555
Zr10_8 O5_17 1_555 1_555
Zr9_4 O6_17 1_555 1_555
C22_17 C23_17 1_555 1_555
O17_7 C1_17 1_555 1_555
C1_17 C2_17 1_555 1_555
O4_17 C1_17 1_555 1_555
C10_17 C2_17 1_555 1_555
H3_17 C10_17 1_555 1_555
H4_17 C11_17 1_555 1_555
F9_13 C57_13 1_555 1_555
O13_13 C49_13 1_555 1_555
C49_13 C50_13 1_555 1_555
C50_13 C51_13 1_555 1_555
C51_13 H17_13 1_555 1_555
C52_13 C51_13 1_555 1_555
H18_13 C52_13 1_555 1_555
C53_13 C52_13 1_555 1_555
C54_13 C53_13 1_555 1_555
C55_13 C54_13 1_555 1_555
C56_13 C55_13 1_555 1_555
C57_13 C56_13 1_555 1_555
F10_13 C60_13 1_555 1_555
C58_13 C50_13 1_555 1_555
H19_13 C58_13 1_555 1_555
C59_13 C53_13 1_555 1_555
H20_13 C59_13 1_555 1_555
C60_13 C56_13 1_555 1_555
F11_13 C69_13 1_555 1_555
C66_13 C65_13 1_555 1_555
C67_13 C66_13 1_555 1_555
C68_13 C67_13 1_555 1_555
C69_13 C57_13 1_555 1_555
F12_13 C72_13 1_555 1_555
C72_13 C60_13 1_555 1_555
Zr10_7 O4_17 1_555 1_555
C10_17 C11_17 1_555 1_555
O13_13 Zr12_3 1_555 1_555
C49_13 O25_7 1_555 1_555
C58_13 C59_13 1_555 1_555
C68_13 C69_13 1_555 1_555
C68_13 C72_13 1_555 1_555
C63_13 H21_13 1_555 1_555
C64_13 C63_13 1_555 1_555
H22_13 C64_13 1_555 1_555
H23_13 C70_13 1_555 1_555
H24_13 C71_13 1_555 1_555
C70_13 C71_13 1_555 1_555
O24_5 C61_13 1_555 1_555
C61_13 C62_13 1_555 1_555
O19_5 C61_13 1_555 1_555
F9_14 C57_14 1_555 1_555
C54_14 C53_14 1_555 1_555
C55_14 C54_14 1_555 1_555
C56_14 C55_14 1_555 1_555
C57_14 C56_14 1_555 1_555
F10_14 C60_14 1_555 1_555
H19_14 C58_14 1_555 1_555
C59_14 C53_14 1_555 1_555
H20_14 C59_14 1_555 1_555
C60_14 C56_14 1_555 1_555
F11_14 C69_14 1_555 1_555
O24_8 C61_14 1_555 1_555
C61_14 C62_14 1_555 1_555
C62_14 C63_14 1_555 1_555
C63_14 H21_14 1_555 1_555
C64_14 C63_14 1_555 1_555
H22_14 C64_14 1_555 1_555
C65_14 C64_14 1_555 1_555
C66_14 C65_14 1_555 1_555
C67_14 C66_14 1_555 1_555
C68_14 C67_14 1_555 1_555
C69_14 C57_14 1_555 1_555
F12_14 C72_14 1_555 1_555
O19_8 C61_14 1_555 1_555
C70_14 C62_14 1_555 1_555
H23_14 C70_14 1_555 1_555
C71_14 C65_14 1_555 1_555
H24_14 C71_14 1_555 1_555
C72_14 C60_14 1_555 1_555
C58_14 C59_14 1_555 1_555
C68_14 C69_14 1_555 1_555
C68_14 C72_14 1_555 1_555
C70_14 C71_14 1_555 1_555
F1_18 C9_18 1_555 1_555
O17_6 C1_18 1_555 1_555
C1_18 C2_18 1_555 1_555
C2_18 C3_18 1_555 1_555
C3_18 H1_18 1_555 1_555
C4_18 C3_18 1_555 1_555
H2_18 C4_18 1_555 1_555
C5_18 C4_18 1_555 1_555
C6_18 C5_18 1_555 1_555
C7_18 C6_18 1_555 1_555
C8_18 C7_18 1_555 1_555
C9_18 C8_18 1_555 1_555
F2_18 C12_18 1_555 1_555
O4_18 C1_18 1_555 1_555
C10_18 C2_18 1_555 1_555
H3_18 C10_18 1_555 1_555
C11_18 C5_18 1_555 1_555
H4_18 C11_18 1_555 1_555
C12_18 C8_18 1_555 1_555
F3_18 C21_18 1_555 1_555
O5_18 C13_18 1_555 1_555
C13_18 C14_18 1_555 1_555
C14_18 C15_18 1_555 1_555
C15_18 H5_18 1_555 1_555
C16_18 C15_18 1_555 1_555
H6_18 C16_18 1_555 1_555
C17_18 C16_18 1_555 1_555
C18_18 C17_18 1_555 1_555
C19_18 C18_18 1_555 1_555
C20_18 C19_18 1_555 1_555
C21_18 C9_18 1_555 1_555
F4_18 C24_18 1_555 1_555
O6_18 C13_18 1_555 1_555
C22_18 C14_18 1_555 1_555
H7_18 C22_18 1_555 1_555
C23_18 C17_18 1_555 1_555
H8_18 C23_18 1_555 1_555
C24_18 C12_18 1_555 1_555
O13_14 C49_14 1_555 1_555
C49_14 C50_14 1_555 1_555
C50_14 C51_14 1_555 1_555
C51_14 H17_14 1_555 1_555
C52_14 C51_14 1_555 1_555
H18_14 C52_14 1_555 1_555
Zr10_6 O4_18 1_555 1_555
Zr10_5 O5_18 1_555 1_555
Zr8_3 O6_18 1_555 1_555
C10_18 C11_18 1_555 1_555
C20_18 C21_18 1_555 1_555
C20_18 C24_18 1_555 1_555
C22_18 C23_18 1_555 1_555
O13_14 Zr11_4 1_555 1_555
C49_14 O25_6 1_555 1_555
F1_19 C9_19 1_555 1_555
O17_8 C1_19 1_555 1_555
C1_19 C2_19 1_555 1_555
C2_19 C3_19 1_555 1_555
C3_19 H1_19 1_555 1_555
C4_19 C3_19 1_555 1_555
H2_19 C4_19 1_555 1_555
C5_19 C4_19 1_555 1_555
C6_19 C5_19 1_555 1_555
C7_19 C6_19 1_555 1_555
C8_19 C7_19 1_555 1_555
C9_19 C8_19 1_555 1_555
F2_19 C12_19 1_555 1_555
O4_19 C1_19 1_555 1_555
C10_19 C2_19 1_555 1_555
H3_19 C10_19 1_555 1_555
C11_19 C5_19 1_555 1_555
H4_19 C11_19 1_555 1_555
C12_19 C8_19 1_555 1_555
F3_19 C21_19 1_555 1_555
C18_19 C17_19 1_555 1_555
C19_19 C18_19 1_555 1_555
C20_19 C19_19 1_555 1_555
C21_19 C9_19 1_555 1_555
F4_19 C24_19 1_555 1_555
H7_19 C22_19 1_555 1_555
C23_19 C17_19 1_555 1_555
H8_19 C23_19 1_555 1_555
C24_19 C12_19 1_555 1_555
F9_15 C57_15 1_555 1_555
O13_15 C49_15 1_555 1_555
C49_15 C50_15 1_555 1_555
C50_15 C51_15 1_555 1_555
C51_15 H17_15 1_555 1_555
C52_15 C51_15 1_555 1_555
H18_15 C52_15 1_555 1_555
C53_15 C52_15 1_555 1_555
C54_15 C53_15 1_555 1_555
C55_15 C54_15 1_555 1_555
C56_15 C55_15 1_555 1_555
C57_15 C56_15 1_555 1_555
F10_15 C60_15 1_555 1_555
C58_15 C50_15 1_555 1_555
H19_15 C58_15 1_555 1_555
C59_15 C53_15 1_555 1_555
H20_15 C59_15 1_555 1_555
C60_15 C56_15 1_555 1_555
F11_15 C69_15 1_555 1_555
O24_6 C61_15 1_555 1_555
C61_15 C62_15 1_555 1_555
C62_15 C63_15 1_555 1_555
C63_15 H21_15 1_555 1_555
C64_15 C63_15 1_555 1_555
H22_15 C64_15 1_555 1_555
C65_15 C64_15 1_555 1_555
C66_15 C65_15 1_555 1_555
C67_15 C66_15 1_555 1_555
C68_15 C67_15 1_555 1_555
C69_15 C57_15 1_555 1_555
F12_15 C72_15 1_555 1_555
O19_6 C61_15 1_555 1_555
C70_15 C62_15 1_555 1_555
H23_15 C70_15 1_555 1_555
C71_15 C65_15 1_555 1_555
H24_15 C71_15 1_555 1_555
C72_15 C60_15 1_555 1_555
Zr10_8 O4_19 1_555 1_555
C10_19 C11_19 1_555 1_555
C20_19 C21_19 1_555 1_555
C20_19 C24_19 1_555 1_555
C22_19 C23_19 1_555 1_555
O13_15 Zr12_4 1_555 1_555
C49_15 O25_8 1_555 1_555
C58_15 C59_15 1_555 1_555
C68_15 C69_15 1_555 1_555
C68_15 C72_15 1_555 1_555
C70_15 C71_15 1_555 1_555
O5_19 C13_19 1_555 1_555
C13_19 C14_19 1_555 1_555
C14_19 C15_19 1_555 1_555
C15_19 H5_19 1_555 1_555
C16_19 C15_19 1_555 1_555
H6_19 C16_19 1_555 1_555
O6_19 C13_19 1_555 1_555
Zr10_7 O5_19 1_555 1_555
Zr9_3 O6_19 1_555 1_555
F1_20 C9_20 1_555 1_555
C6_20 C5_20 1_555 1_555
C7_20 C6_20 1_555 1_555
C8_20 C7_20 1_555 1_555
C9_20 C8_20 1_555 1_555
F2_20 C12_20 1_555 1_555
H3_20 C10_20 1_555 1_555
C11_20 C5_20 1_555 1_555
H4_20 C11_20 1_555 1_555
C12_20 C8_20 1_555 1_555
F3_20 C21_20 1_555 1_555
O5_20 C13_20 1_555 1_555
C13_20 C14_20 1_555 1_555
C14_20 C15_20 1_555 1_555
C15_20 H5_20 1_555 1_555
C16_20 C15_20 1_555 1_555
H6_20 C16_20 1_555 1_555
C17_20 C16_20 1_555 1_555
C18_20 C17_20 1_555 1_555
C19_20 C18_20 1_555 1_555
C20_20 C19_20 1_555 1_555
C21_20 C9_20 1_555 1_555
F4_20 C24_20 1_555 1_555
O6_20 C13_20 1_555 1_555
C22_20 C14_20 1_555 1_555
H7_20 C22_20 1_555 1_555
C23_20 C17_20 1_555 1_555
H8_20 C23_20 1_555 1_555
C24_20 C12_20 1_555 1_555
F9_16 C57_16 1_555 1_555
C51_16 H17_16 1_555 1_555
C52_16 C51_16 1_555 1_555
H18_16 C52_16 1_555 1_555
C53_16 C52_16 1_555 1_555
C54_16 C53_16 1_555 1_555
C55_16 C54_16 1_555 1_555
C56_16 C55_16 1_555 1_555
C57_16 C56_16 1_555 1_555
F10_16 C60_16 1_555 1_555
C60_16 C56_16 1_555 1_555
F11_16 C69_16 1_555 1_555
O24_7 C61_16 1_555 1_555
C61_16 C62_16 1_555 1_555
C62_16 C63_16 1_555 1_555
C63_16 H21_16 1_555 1_555
C64_16 C63_16 1_555 1_555
H22_16 C64_16 1_555 1_555
C65_16 C64_16 1_555 1_555
C66_16 C65_16 1_555 1_555
C67_16 C66_16 1_555 1_555
C68_16 C67_16 1_555 1_555
C69_16 C57_16 1_555 1_555
F12_16 C72_16 1_555 1_555
O19_7 C61_16 1_555 1_555
C70_16 C62_16 1_555 1_555
H23_16 C70_16 1_555 1_555
C71_16 C65_16 1_555 1_555
H24_16 C71_16 1_555 1_555
C72_16 C60_16 1_555 1_555
Zr10_6 O5_20 1_555 1_555
Zr8_4 O6_20 1_555 1_555
C10_20 C11_20 1_555 1_555
C20_20 C21_20 1_555 1_555
C20_20 C24_20 1_555 1_555
C22_20 C23_20 1_555 1_555
C68_16 C69_16 1_555 1_555
C68_16 C72_16 1_555 1_555
C70_16 C71_16 1_555 1_555
O17_5 C1_20 1_555 1_555
C1_20 C2_20 1_555 1_555
C2_20 C3_20 1_555 1_555
C3_20 H1_20 1_555 1_555
C4_20 C3_20 1_555 1_555
H2_20 C4_20 1_555 1_555
O4_20 C1_20 1_555 1_555
O13_16 C49_16 1_555 1_555
C49_16 C50_16 1_555 1_555
C58_16 C50_16 1_555 1_555
H19_16 C58_16 1_555 1_555
H20_16 C59_16 1_555 1_555
Zr10_5 O4_20 1_555 1_555
O13_16 Zr11_3 1_555 1_555
C49_16 O25_5 1_555 1_555
C58_16 C59_16 1_555 1_555
F1_21 C9_21 1_555 1_555
O18_8 C1_21 1_555 1_555
C1_21 C2_21 1_555 1_555
C2_21 C3_21 1_555 1_555
C3_21 H1_21 1_555 1_555
C4_21 C3_21 1_555 1_555
H2_21 C4_21 1_555 1_555
C5_21 C4_21 1_555 1_555
C6_21 C5_21 1_555 1_555
C7_21 C6_21 1_555 1_555
C8_21 C7_21 1_555 1_555
C9_21 C8_21 1_555 1_555
F2_21 C12_21 1_555 1_555
O4_21 C1_21 1_555 1_555
C10_21 C2_21 1_555 1_555
H3_21 C10_21 1_555 1_555
C11_21 C5_21 1_555 1_555
H4_21 C11_21 1_555 1_555
C12_21 C8_21 1_555 1_555
F3_21 C21_21 1_555 1_555
O5_21 C13_21 1_555 1_555
C13_21 C14_21 1_555 1_555
C14_21 C15_21 1_555 1_555
C15_21 H5_21 1_555 1_555
C16_21 C15_21 1_555 1_555
H6_21 C16_21 1_555 1_555
C17_21 C16_21 1_555 1_555
C18_21 C17_21 1_555 1_555
C19_21 C18_21 1_555 1_555
C20_21 C19_21 1_555 1_555
C21_21 C9_21 1_555 1_555
F4_21 C24_21 1_555 1_555
O6_21 C13_21 1_555 1_555
C22_21 C14_21 1_555 1_555
H7_21 C22_21 1_555 1_555
C23_21 C17_21 1_555 1_555
H8_21 C23_21 1_555 1_555
C24_21 C12_21 1_555 1_555
Zr12_4 O4_21 1_555 1_555
Zr11_3 O5_21 1_555 1_555
Zr10_5 O6_21 1_555 1_555
C10_21 C11_21 1_555 1_555
C20_21 C21_21 1_555 1_555
C20_21 C24_21 1_555 1_555
C22_21 C23_21 1_555 1_555
F1_22 C9_22 1_555 1_555
C3_22 H1_22 1_555 1_555
C4_22 C3_22 1_555 1_555
H2_22 C4_22 1_555 1_555
C5_22 C4_22 1_555 1_555
C6_22 C5_22 1_555 1_555
C7_22 C6_22 1_555 1_555
C8_22 C7_22 1_555 1_555
C9_22 C8_22 1_555 1_555
F2_22 C12_22 1_555 1_555
C12_22 C8_22 1_555 1_555
F3_22 C21_22 1_555 1_555
C15_22 H5_22 1_555 1_555
C16_22 C15_22 1_555 1_555
H6_22 C16_22 1_555 1_555
C17_22 C16_22 1_555 1_555
C18_22 C17_22 1_555 1_555
C19_22 C18_22 1_555 1_555
C20_22 C19_22 1_555 1_555
C21_22 C9_22 1_555 1_555
F4_22 C24_22 1_555 1_555
C24_22 C12_22 1_555 1_555
C20_22 C21_22 1_555 1_555
C20_22 C24_22 1_555 1_555
O5_22 C13_22 1_555 1_555
C13_22 C14_22 1_555 1_555
O6_22 C13_22 1_555 1_555
C22_22 C14_22 1_555 1_555
H7_22 C22_22 1_555 1_555
H8_22 C23_22 1_555 1_555
Zr12_3 O5_22 1_555 1_555
Zr10_7 O6_22 1_555 1_555
C22_22 C23_22 1_555 1_555
O18_6 C1_22 1_555 1_555
C1_22 C2_22 1_555 1_555
O4_22 C1_22 1_555 1_555
C10_22 C2_22 1_555 1_555
H3_22 C10_22 1_555 1_555
H4_22 C11_22 1_555 1_555
Zr11_4 O4_22 1_555 1_555
C10_22 C11_22 1_555 1_555
F1_23 C9_23 1_555 1_555
C6_23 C5_23 1_555 1_555
C7_23 C6_23 1_555 1_555
C8_23 C7_23 1_555 1_555
C9_23 C8_23 1_555 1_555
F2_23 C12_23 1_555 1_555
H3_23 C10_23 1_555 1_555
C11_23 C5_23 1_555 1_555
H4_23 C11_23 1_555 1_555
C12_23 C8_23 1_555 1_555
F3_23 C21_23 1_555 1_555
O5_23 C13_23 1_555 1_555
C13_23 C14_23 1_555 1_555
C14_23 C15_23 1_555 1_555
C15_23 H5_23 1_555 1_555
C16_23 C15_23 1_555 1_555
H6_23 C16_23 1_555 1_555
C17_23 C16_23 1_555 1_555
C18_23 C17_23 1_555 1_555
C19_23 C18_23 1_555 1_555
C20_23 C19_23 1_555 1_555
C21_23 C9_23 1_555 1_555
F4_23 C24_23 1_555 1_555
O6_23 C13_23 1_555 1_555
C22_23 C14_23 1_555 1_555
H7_23 C22_23 1_555 1_555
C23_23 C17_23 1_555 1_555
H8_23 C23_23 1_555 1_555
C24_23 C12_23 1_555 1_555
Zr12_4 O5_23 1_555 1_555
Zr10_8 O6_23 1_555 1_555
C10_23 C11_23 1_555 1_555
C20_23 C21_23 1_555 1_555
C20_23 C24_23 1_555 1_555
C22_23 C23_23 1_555 1_555
O18_5 C1_23 1_555 1_555
C1_23 C2_23 1_555 1_555
C2_23 C3_23 1_555 1_555
C3_23 H1_23 1_555 1_555
C4_23 C3_23 1_555 1_555
H2_23 C4_23 1_555 1_555
O4_23 C1_23 1_555 1_555
Zr11_3 O4_23 1_555 1_555
F1_24 C9_24 1_555 1_555
O18_7 C1_24 1_555 1_555
C1_24 C2_24 1_555 1_555
C2_24 C3_24 1_555 1_555
C3_24 H1_24 1_555 1_555
C4_24 C3_24 1_555 1_555
H2_24 C4_24 1_555 1_555
C5_24 C4_24 1_555 1_555
C6_24 C5_24 1_555 1_555
C7_24 C6_24 1_555 1_555
C8_24 C7_24 1_555 1_555
C9_24 C8_24 1_555 1_555
F2_24 C12_24 1_555 1_555
O4_24 C1_24 1_555 1_555
C10_24 C2_24 1_555 1_555
H3_24 C10_24 1_555 1_555
C11_24 C5_24 1_555 1_555
H4_24 C11_24 1_555 1_555
C12_24 C8_24 1_555 1_555
F3_24 C21_24 1_555 1_555
C18_24 C17_24 1_555 1_555
C19_24 C18_24 1_555 1_555
C20_24 C19_24 1_555 1_555
C21_24 C9_24 1_555 1_555
F4_24 C24_24 1_555 1_555
H7_24 C22_24 1_555 1_555
C23_24 C17_24 1_555 1_555
H8_24 C23_24 1_555 1_555
C24_24 C12_24 1_555 1_555
Zr12_3 O4_24 1_555 1_555
C10_24 C11_24 1_555 1_555
C20_24 C21_24 1_555 1_555
C20_24 C24_24 1_555 1_555
C22_24 C23_24 1_555 1_555
O5_24 C13_24 1_555 1_555
C13_24 C14_24 1_555 1_555
C14_24 C15_24 1_555 1_555
C15_24 H5_24 1_555 1_555
C16_24 C15_24 1_555 1_555
H6_24 C16_24 1_555 1_555
O6_24 C13_24 1_555 1_555
Zr11_4 O5_24 1_555 1_555
Zr10_6 O6_24 1_555 1_555
O26_9 Zr11_4 1_555 1_555
Zr10_6 O26_9 1_555 1_555
Zr8_4 O26_9 1_555 1_555
O26_10 Zr11_3 1_555 1_555
Zr10_5 O26_10 1_555 1_555
Zr8_3 O26_10 1_555 1_555
O26_11 Zr12_4 1_555 1_555
Zr10_8 O26_11 1_555 1_555
Zr9_4 O26_11 1_555 1_555
O26_12 Zr12_3 1_555 1_555
Zr10_7 O26_12 1_555 1_555
Zr9_3 O26_12 1_555 1_555

#END
