
###############################################################################
#
# This file contains modified crystal structure data generated from the
# MOF subset of the Cambridge Structural Database (CSD) v543 
# hosted by the Cambridge Crystallographic Data Centre (CCDC).
#
# This work is licensed under the Creative Commons
# Attribution-NonCommercial-ShareAlike 4.0 International License.
# To view a copy of this license, visit
# http://creativecommons.org/licenses/by-nc-sa/4.0/
# or send a letter to
# Creative Commons, PO Box 1866, Mountain View, CA 94042, USA.
#
# CIF created using the CSD Python API on 29 September 2022
# The structure has been converted into the P1 space group
# The structure has a 3D framework
# The original CSD entry GEFTET is in the monoclinic crystal system
# The framework has been calculated to contain at least 10.0% void space
# The void calculation uses a probe of radius 1.32A, grid spacing 0.4
# The framework is charged, counterions have been retained in the structure
#
###############################################################################

data_GEFTET
_chemical_formula_moiety         '(C168 H104 N8 O52 Zn12 8-)n'
_symmetry_cell_setting           triclinic
_symmetry_space_group_name_H-M   'P 1'
_symmetry_Int_Tables_number      1
_space_group_name_Hall           'P 1'
loop_
_symmetry_equiv_pos_site_id
_symmetry_equiv_pos_as_xyz
1 x,y,z
_cell_length_a                   13.6154(10)
_cell_length_b                   22.7304(17)
_cell_length_c                   19.5742(14)
_cell_angle_alpha                90
_cell_angle_beta                 97.496(2)
_cell_angle_gamma                90
_cell_volume                     6006.12
loop_
_atom_site_label
_atom_site_type_symbol
_atom_site_fract_x
_atom_site_fract_y
_atom_site_fract_z
C27 C 0.0268(4) 0.4167(3) 0.2613(4)
O6 O 0.0405(3) 0.59065(18) 0.3334(2)
O11 O 0.0701(3) 0.38308(19) 0.3092(2)
O13 O 0.0418(3) 0.5934(2) 0.2193(3)
O14 O 0.0700(3) 0.4563(2) 0.2355(3)
Zn4 Zn 0.20377(4) 0.41547(3) 0.32473(3)
Zn6 Zn 0.18019(4) 0.57348(3) 0.34484(3)
Zn9 Zn 0.37535(4) 0.00210(3) 0.89351(3)
C1 C 0.5463(3) 0.7035(3) 0.1836(3)
C2 C 0.7400(4) 0.6278(3) 0.1874(3)
H1 H 0.705267 0.626885 0.143218
C3 C 0.8433(4) 0.6294(3) 0.3177(3)
H2 H 0.877529 0.629074 0.362090
C4 C 0.4420(3) 0.3892(2) 0.2170(3)
C5 C 0.7164(4) 0.3863(2) 0.2024(3)
C6 C 0.4341(3) 0.2647(2) 0.0884(3)
C8 C 0.3762(4) 0.4158(2) 0.2638(3)
C9 C 0.3313(3) 0.8506(2) 0.0300(3)
C10 C 0.4090(3) 0.3439(2) 0.1715(3)
H3 H 0.342349 0.333581 0.166387
C11 C 0.5833(3) 0.6597(2) 0.2296(3)
C12 C 0.4333(4) 0.8184(2) 0.1321(3)
H4 H 0.478831 0.827582 0.170275
C13 C 0.2945(4) 0.7932(3) 0.0217(3)
C14 C 0.3797(4) 0.6798(2) 0.2050(3)
H6 H 0.311647 0.685469 0.195910
C15 C 0.3998(4) 0.8623(3) 0.0868(3)
H7 H 0.423466 0.900454 0.094480
C17 C 0.4014(3) 0.7611(2) 0.1227(3)
C18 C 0.8390(4) 0.6120(3) 0.1972(3)
H9 H 0.870353 0.600694 0.159844
C19 C 0.3529(4) 0.6028(2) 0.2938(3)
C20 C 0.9190(4) 0.4052(3) 0.2392(3)
C21 C 0.9994(4) 0.5975(3) 0.2713(4)
C22 C 0.4413(4) 0.7137(2) 0.1711(3)
C24 C 0.4526(3) 0.1655(2) 0.0475(3)
H10 H 0.487381 0.130193 0.050394
C25 C 0.7624(4) 0.4340(3) 0.1763(4)
H11 H 0.725797 0.459749 0.146056
C26 C 0.6917(4) 0.6450(2) 0.2421(3)
C28 C 0.3471(3) 0.2701(2) 0.0418(3)
H12 H 0.310451 0.304735 0.040146
C29 C 0.6074(4) 0.3756(2) 0.1868(3)
C30 C 0.4159(3) 0.6375(2) 0.2523(3)
C31 C 0.4719(4) 0.3142(2) 0.1341(3)
C32 C 0.4843(4) 0.2112(2) 0.0907(3)
H13 H 0.540858 0.206273 0.122383
C33 C 0.3296(4) 0.7494(3) 0.0661(3)
H14 H 0.305705 0.711260 0.058699
C34 C 0.8635(4) 0.4437(3) 0.1952(4)
H15 H 0.893671 0.476262 0.178041
C35 C 0.8913(4) 0.6132(3) 0.2630(3)
C37 C 0.5427(4) 0.4040(2) 0.2241(3)
H16 H 0.566280 0.433675 0.254567
C38 C 0.5742(3) 0.3306(2) 0.1407(3)
C39 C 0.7439(4) 0.6464(2) 0.3076(3)
H17 H 0.712849 0.658560 0.344769
C40 C 0.5180(4) 0.6276(2) 0.2644(3)
H18 H 0.542779 0.599081 0.296131
C41 C 0.8734(4) 0.3576(3) 0.2637(3)
H19 H 0.910402 0.331480 0.293354
C42 C 0.7730(4) 0.3474(3) 0.2453(3)
H20 H 0.743626 0.314266 0.261740
N1 N 0.6082(3) 0.7351(2) 0.1486(3)
H21 H 0.670846 0.728082 0.154872
H22 H 0.584837 0.762031 0.120262
N2 N 0.6384(3) 0.3039(2) 0.1026(2)
H23 H 0.699464 0.314710 0.106827
H24 H 0.617935 0.276246 0.074238
O2 O 0.3930(2) 0.57363(15) 0.34211(19)
O3 O 0.2213(2) 0.49261(14) 0.37048(18)
O4 O 0.5280(2) 0.50831(15) 0.42791(18)
H25 H 0.559992 0.511591 0.393148
H26 H 0.549856 0.478331 0.451781
O7 O 0.4129(2) 0.44881(16) 0.31070(19)
O8 O 0.2584(2) 0.60653(18) 0.2764(2)
O9 O 0.2852(2) 0.40062(17) 0.25227(18)
Zn3 Zn 0.37535(4) 0.49790(3) 0.39351(3)
O15 O 0.3802(2) 0.42541(15) 0.45848(18)
O16 O 0.3503(2) 0.55630(16) 0.47969(18)
O18 O 0.2714(2) 0.36367(16) 0.39971(19)
O20 O 0.2294(2) 0.61617(16) 0.4315(2)
C7 C 0.3678(3) 0.1719(2) 0.9989(3)
H5 H 0.245304 0.784767 0.985435
C16 C 0.3160(4) 0.2242(2) 0.9986(3)
H8 H 0.258166 0.228497 0.968049
C23 C 0.3372(3) 0.1245(2) 0.9498(3)
C36 C 0.3014(4) 0.8965(2) 0.9774(3)
O1 O 0.3802(2) 0.07459(15) 0.95848(18)
O5 O 0.3503(2) 0.94370(16) 0.97969(18)
O10 O 0.2714(2) 0.13633(16) 0.89971(19)
O12 O 0.2294(2) 0.88383(16) 0.9315(2)
Zn5 Zn 0.20377(4) 0.08453(3) 0.82473(3)
Zn7 Zn 0.18019(4) 0.92652(3) 0.84484(3)
C27_2 C 0.0268(4) 0.0833(3) 0.7613(4)
O11_2 O 0.0701(3) 0.11692(19) 0.8092(2)
O14_2 O 0.0700(3) 0.0437(2) 0.7355(3)
O6_2 O 0.0405(3) 0.90935(18) 0.8334(2)
O13_2 O 0.0418(3) 0.9066(2) 0.7193(3)
C4_2 C 0.4420(3) 0.1108(2) 0.7170(3)
C5_2 C 0.7164(4) 0.1137(2) 0.7024(3)
C6_2 C 0.4341(3) 0.2353(2) 0.5884(3)
C7_2 C 0.3678(3) 0.3281(2) 0.4989(3)
C8_2 C 0.3762(4) 0.0842(2) 0.7638(3)
C10_2 C 0.4090(3) 0.1561(2) 0.6715(3)
H3_2 H 0.342349 0.166419 0.666387
C16_2 C 0.3160(4) 0.2758(2) 0.4986(3)
H8_2 H 0.258166 0.271503 0.468049
C20_2 C 0.9190(4) 0.0948(3) 0.7392(3)
C23_2 C 0.3372(3) 0.3755(2) 0.4498(3)
C24_2 C 0.4526(3) 0.3345(2) 0.5475(3)
H10_2 H 0.487381 0.369807 0.550394
C25_2 C 0.7624(4) 0.0660(3) 0.6763(4)
H11_2 H 0.725797 0.040251 0.646056
C28_2 C 0.3471(3) 0.2299(2) 0.5418(3)
H12_2 H 0.310451 0.195265 0.540146
C29_2 C 0.6074(4) 0.1244(2) 0.6868(3)
C31_2 C 0.4719(4) 0.1858(2) 0.6341(3)
C32_2 C 0.4843(4) 0.2888(2) 0.5907(3)
H13_2 H 0.540858 0.293727 0.622383
C34_2 C 0.8635(4) 0.0563(3) 0.6952(4)
H15_2 H 0.893671 0.023738 0.678041
C37_2 C 0.5427(4) 0.0960(2) 0.7241(3)
H16_2 H 0.566280 0.066325 0.754567
C38_2 C 0.5742(3) 0.1694(2) 0.6407(3)
C41_2 C 0.8734(4) 0.1424(3) 0.7637(3)
H19_2 H 0.910402 0.168520 0.793354
C42_2 C 0.7730(4) 0.1526(3) 0.7453(3)
H20_2 H 0.743626 0.185734 0.761740
N2_2 N 0.6384(3) 0.1961(2) 0.6026(2)
H23_2 H 0.699464 0.185290 0.606827
H24_2 H 0.617935 0.223754 0.574238
O3_2 O 0.2213(2) 0.00739(14) 0.87048(18)
H26_2 H 0.549856 0.021669 0.951781
O7_2 O 0.4129(2) 0.05119(16) 0.81070(19)
O9_2 O 0.2852(2) 0.09938(17) 0.75227(18)
C1_2 C 0.5463(3) 0.7965(3) 0.6836(3)
C2_2 C 0.7400(4) 0.8722(3) 0.6874(3)
H1_2 H 0.705267 0.873115 0.643218
C3_2 C 0.8433(4) 0.8706(3) 0.8177(3)
H2_2 H 0.877529 0.870926 0.862090
C9_2 C 0.3313(3) 0.6494(2) 0.5300(3)
C11_2 C 0.5833(3) 0.8403(2) 0.7296(3)
C12_2 C 0.4333(4) 0.6816(2) 0.6321(3)
H4_2 H 0.478831 0.672418 0.670275
C13_2 C 0.2945(4) 0.7068(3) 0.5217(3)
H5_2 H 0.245304 0.715233 0.485435
C14_2 C 0.3797(4) 0.8202(2) 0.7050(3)
H6_2 H 0.311647 0.814531 0.695910
C15_2 C 0.3998(4) 0.6377(3) 0.5868(3)
H7_2 H 0.423466 0.599546 0.594480
C17_2 C 0.4014(3) 0.7389(2) 0.6227(3)
C18_2 C 0.8390(4) 0.8880(3) 0.6972(3)
H9_2 H 0.870353 0.899306 0.659844
C19_2 C 0.3529(4) 0.8972(2) 0.7938(3)
C21_2 C 0.9994(4) 0.9025(3) 0.7713(4)
C22_2 C 0.4413(4) 0.7863(2) 0.6711(3)
C26_2 C 0.6917(4) 0.8550(2) 0.7421(3)
C30_2 C 0.4159(3) 0.8625(2) 0.7523(3)
C33_2 C 0.3296(4) 0.7506(3) 0.5661(3)
H14_2 H 0.305705 0.788740 0.558699
C35_2 C 0.8913(4) 0.8868(3) 0.7630(3)
C36_2 C 0.3014(4) 0.6035(2) 0.4774(3)
C39_2 C 0.7439(4) 0.8536(2) 0.8076(3)
H17_2 H 0.712849 0.841440 0.844769
C40_2 C 0.5180(4) 0.8724(2) 0.7644(3)
H18_2 H 0.542779 0.900919 0.796131
N1_2 N 0.6082(3) 0.7649(2) 0.6486(3)
H21_2 H 0.670846 0.771918 0.654872
H22_2 H 0.584837 0.737969 0.620262
O2_2 O 0.3930(2) 0.92637(15) 0.84211(19)
O4_2 O 0.5280(2) 0.99169(15) 0.92791(18)
H25_2 H 0.559992 0.988409 0.893148
O8_2 O 0.2584(2) 0.89347(18) 0.7764(2)
C1_3 C 0.4537(3) 0.2035(3) 0.3164(3)
C2_3 C 0.2600(4) 0.1278(3) 0.3126(3)
H1_3 H 0.294733 0.126885 0.356782
C3_3 C 0.1567(4) 0.1294(3) 0.1823(3)
H2_3 H 0.122471 0.129074 0.137910
C9_3 C 0.6687(3) 0.3506(2) 0.4700(3)
C11_3 C 0.4167(3) 0.1597(2) 0.2704(3)
C12_3 C 0.5667(4) 0.3184(2) 0.3679(3)
H4_3 H 0.521169 0.327582 0.329725
C13_3 C 0.7055(4) 0.2932(3) 0.4783(3)
H5_3 H 0.754696 0.284767 0.514565
C14_3 C 0.6203(4) 0.1798(2) 0.2950(3)
H6_3 H 0.688353 0.185469 0.304090
C15_3 C 0.6002(4) 0.3623(3) 0.4132(3)
H7_3 H 0.576534 0.400454 0.405520
C17_3 C 0.5986(3) 0.2611(2) 0.3773(3)
C18_3 C 0.1610(4) 0.1120(3) 0.3028(3)
H9_3 H 0.129647 0.100694 0.340156
C19_3 C 0.6471(4) 0.1028(2) 0.2062(3)
C21_3 C 0.0006(4) 0.0975(3) 0.2287(4)
C22_3 C 0.5587(4) 0.2137(2) 0.3289(3)
C26_3 C 0.3083(4) 0.1450(2) 0.2579(3)
C30_3 C 0.5841(3) 0.1375(2) 0.2477(3)
C33_3 C 0.6704(4) 0.2494(3) 0.4339(3)
H14_3 H 0.694295 0.211260 0.441301
C35_3 C 0.1087(4) 0.1132(3) 0.2370(3)
C36_3 C 0.6986(4) 0.3965(2) 0.5226(3)
C39_3 C 0.2561(4) 0.1464(2) 0.1924(3)
H17_3 H 0.287151 0.158560 0.155231
C40_3 C 0.4820(4) 0.1276(2) 0.2356(3)
H18_3 H 0.457221 0.099081 0.203869
N1_3 N 0.3918(3) 0.2351(2) 0.3514(3)
H21_3 H 0.329154 0.228082 0.345128
H22_3 H 0.415163 0.262031 0.379738
O2_3 O 0.6070(2) 0.07363(15) 0.15789(19)
O4_3 O 0.4720(2) 0.00831(15) 0.07209(18)
H25_3 H 0.440008 0.011591 0.106852
O5_2 O 0.6497(2) 0.44370(16) 0.52031(18)
O8_3 O 0.7416(2) 0.10653(18) 0.2236(2)
O12_2 O 0.7706(2) 0.38383(16) 0.5685(2)
Zn2 Zn 0.81981(4) 0.07348(3) 0.15516(3)
O16_2 O 0.6497(2) 0.05630(16) 0.02031(18)
O17 O 0.9595(3) 0.09065(18) 0.1666(2)
O20_2 O 0.7706(2) 0.11617(16) 0.0685(2)
Zn7_2 Zn 0.81981(4) 0.42652(3) 0.65516(3)
Zn9_2 Zn 0.62465(4) 0.50210(3) 0.60649(3)
C4_3 C 0.5580(3) 0.8892(2) 0.2830(3)
C5_3 C 0.2836(4) 0.8863(2) 0.2976(3)
C6_3 C 0.5659(3) 0.7647(2) 0.4116(3)
C7_3 C 0.6322(3) 0.6719(2) 0.5011(3)
C8_3 C 0.6238(4) 0.9158(2) 0.2362(3)
C10_3 C 0.5910(3) 0.8439(2) 0.3285(3)
H3_3 H 0.657651 0.833581 0.333613
C16_3 C 0.6840(4) 0.7242(2) 0.5014(3)
H8_3 H 0.741834 0.728497 0.531951
C20_3 C 0.0810(4) 0.9052(3) 0.2608(3)
C23_3 C 0.6628(3) 0.6245(2) 0.5502(3)
C24_3 C 0.5474(3) 0.6655(2) 0.4525(3)
H10_3 H 0.512619 0.630193 0.449606
C25_3 C 0.2376(4) 0.9340(3) 0.3237(4)
H11_3 H 0.274203 0.959749 0.353944
C28_3 C 0.6529(3) 0.7701(2) 0.4582(3)
H12_3 H 0.689549 0.804735 0.459854
C29_3 C 0.3926(4) 0.8756(2) 0.3132(3)
C31_3 C 0.5281(4) 0.8142(2) 0.3659(3)
C32_3 C 0.5157(4) 0.7112(2) 0.4093(3)
H13_3 H 0.459142 0.706273 0.377617
C34_3 C 0.1365(4) 0.9437(3) 0.3048(4)
H15_3 H 0.106329 0.976262 0.321959
C37_3 C 0.4573(4) 0.9040(2) 0.2759(3)
H16_3 H 0.433720 0.933675 0.245433
C38_3 C 0.4258(3) 0.8306(2) 0.3593(3)
C41_3 C 0.1266(4) 0.8576(3) 0.2363(3)
H19_3 H 0.089598 0.831480 0.206646
C42_3 C 0.2270(4) 0.8474(3) 0.2547(3)
H20_3 H 0.256374 0.814266 0.238260
N2_3 N 0.3616(3) 0.8039(2) 0.3974(2)
H23_3 H 0.300536 0.814710 0.393173
H24_3 H 0.382065 0.776246 0.425762
O1_2 O 0.6198(2) 0.57459(15) 0.54152(18)
O3_3 O 0.7787(2) 0.99261(14) 0.12952(18)
H26_3 H 0.450144 0.978331 0.048219
O7_3 O 0.5871(2) 0.94881(16) 0.18930(19)
O9_3 O 0.7148(2) 0.90062(17) 0.24773(18)
O10_2 O 0.7286(2) 0.63633(16) 0.60029(19)
Zn1 Zn 0.79623(4) 0.91547(3) 0.17527(3)
Zn3_2 Zn 0.62465(4) 0.99790(3) 0.10649(3)
O15_2 O 0.6198(2) 0.92541(15) 0.04152(18)
O18_2 O 0.7286(2) 0.86367(16) 0.10029(19)
O19 O 0.9299(3) 0.88308(19) 0.1908(2)
O21 O 0.9300(3) 0.9563(2) 0.2645(3)
Zn5_2 Zn 0.79623(4) 0.58453(3) 0.67527(3)
O13_3 O 0.9582(3) 0.0934(2) 0.2807(3)
C27_3 C 0.9732(4) 0.9167(3) 0.2387(4)
C7_4 C 0.6322(3) 0.8281(2) 0.0011(3)
H5_4 H 0.754696 0.215233 0.014565
C16_4 C 0.6840(4) 0.7758(2) 0.0014(3)
H8_4 H 0.741834 0.771503 0.031951
C23_4 C 0.6628(3) 0.8755(2) 0.0502(3)
C36_4 C 0.6986(4) 0.1035(2) 0.0226(3)
C1_4 C 0.4537(3) 0.2965(3) 0.8164(3)
C2_4 C 0.2600(4) 0.3722(3) 0.8126(3)
H1_4 H 0.294733 0.373115 0.856782
C3_4 C 0.1567(4) 0.3706(3) 0.6823(3)
H2_4 H 0.122471 0.370926 0.637910
C4_4 C 0.5580(3) 0.6108(2) 0.7830(3)
C5_4 C 0.2836(4) 0.6137(2) 0.7976(3)
C6_4 C 0.5659(3) 0.7353(2) 0.9116(3)
C8_4 C 0.6238(4) 0.5842(2) 0.7362(3)
C9_4 C 0.6687(3) 0.1494(2) 0.9700(3)
C10_4 C 0.5910(3) 0.6561(2) 0.8285(3)
H3_4 H 0.657651 0.666419 0.833613
C11_4 C 0.4167(3) 0.3403(2) 0.7704(3)
C12_4 C 0.5667(4) 0.1816(2) 0.8679(3)
H4_4 H 0.521169 0.172418 0.829725
C13_4 C 0.7055(4) 0.2068(3) 0.9783(3)
C14_4 C 0.6203(4) 0.3202(2) 0.7950(3)
H6_4 H 0.688353 0.314531 0.804090
C15_4 C 0.6002(4) 0.1377(3) 0.9132(3)
H7_4 H 0.576534 0.099546 0.905520
C17_4 C 0.5986(3) 0.2389(2) 0.8773(3)
C18_4 C 0.1610(4) 0.3880(3) 0.8028(3)
H9_4 H 0.129647 0.399306 0.840156
C19_4 C 0.6471(4) 0.3972(2) 0.7062(3)
C20_4 C 0.0810(4) 0.5948(3) 0.7608(3)
C21_4 C 0.0006(4) 0.4025(3) 0.7287(4)
C22_4 C 0.5587(4) 0.2863(2) 0.8289(3)
C24_4 C 0.5474(3) 0.8345(2) 0.9525(3)
H10_4 H 0.512619 0.869807 0.949606
C25_4 C 0.2376(4) 0.5660(3) 0.8237(4)
H11_4 H 0.274203 0.540251 0.853944
C26_4 C 0.3083(4) 0.3550(2) 0.7579(3)
C28_4 C 0.6529(3) 0.7299(2) 0.9582(3)
H12_4 H 0.689549 0.695265 0.959854
C29_4 C 0.3926(4) 0.6244(2) 0.8132(3)
C30_4 C 0.5841(3) 0.3625(2) 0.7477(3)
C31_4 C 0.5281(4) 0.6858(2) 0.8659(3)
C32_4 C 0.5157(4) 0.7888(2) 0.9093(3)
H13_4 H 0.459142 0.793727 0.877617
C33_4 C 0.6704(4) 0.2506(3) 0.9339(3)
H14_4 H 0.694295 0.288740 0.941301
C34_4 C 0.1365(4) 0.5563(3) 0.8048(4)
H15_4 H 0.106329 0.523738 0.821959
C35_4 C 0.1087(4) 0.3868(3) 0.7370(3)
C37_4 C 0.4573(4) 0.5960(2) 0.7759(3)
H16_4 H 0.433720 0.566325 0.745433
C38_4 C 0.4258(3) 0.6694(2) 0.8593(3)
C39_4 C 0.2561(4) 0.3536(2) 0.6924(3)
H17_4 H 0.287151 0.341440 0.655231
C40_4 C 0.4820(4) 0.3724(2) 0.7356(3)
H18_4 H 0.457221 0.400919 0.703869
C41_4 C 0.1266(4) 0.6424(3) 0.7363(3)
H19_4 H 0.089598 0.668520 0.706646
C42_4 C 0.2270(4) 0.6526(3) 0.7547(3)
H20_4 H 0.256374 0.685734 0.738260
N1_4 N 0.3918(3) 0.2649(2) 0.8514(3)
H21_4 H 0.329154 0.271918 0.845128
H22_4 H 0.415163 0.237969 0.879738
N2_4 N 0.3616(3) 0.6961(2) 0.8974(2)
H23_4 H 0.300536 0.685290 0.893173
H24_4 H 0.382065 0.723754 0.925762
O2_4 O 0.6070(2) 0.42637(15) 0.65789(19)
O3_4 O 0.7787(2) 0.50739(14) 0.62952(18)
O4_4 O 0.4720(2) 0.49169(15) 0.57209(18)
H25_4 H 0.440008 0.488409 0.606852
H26_4 H 0.450144 0.521669 0.548219
O7_4 O 0.5871(2) 0.55119(16) 0.68930(19)
O8_4 O 0.7416(2) 0.39347(18) 0.7236(2)
O9_4 O 0.7148(2) 0.59938(17) 0.74773(18)
O17_2 O 0.9595(3) 0.40935(18) 0.6666(2)
O19_2 O 0.9299(3) 0.61692(19) 0.6908(2)
O21_2 O 0.9300(3) 0.5437(2) 0.7645(3)
C27_4 C 0.9732(4) 0.5833(3) 0.7387(4)
O13_4 O 0.9582(3) 0.4066(2) 0.7807(3)
loop_
_geom_bond_atom_site_label_1
_geom_bond_atom_site_label_2
_geom_bond_site_symmetry_1
_geom_bond_site_symmetry_2
C27 O11 1_555 1_555
O11 Zn4 1_555 1_555
O14 C27 1_555 1_555
Zn4 O14 1_555 1_555
Zn6 O6 1_555 1_555
C1 C11 1_555 1_555
C2 H1 1_555 1_555
C3 H2 1_555 1_555
C4 C8 1_555 1_555
C5 C25 1_555 1_555
C6 C28 1_555 1_555
C8 O7 1_555 1_555
C9 C13 1_555 1_555
C10 C4 1_555 1_555
H3 C10 1_555 1_555
C11 C26 1_555 1_555
C12 H4 1_555 1_555
C14 H6 1_555 1_555
C15 C9 1_555 1_555
H7 C15 1_555 1_555
C17 C12 1_555 1_555
C18 C2 1_555 1_555
H9 C18 1_555 1_555
C19 C30 1_555 1_555
C21 C35 1_555 1_555
C22 C1 1_555 1_555
H10 C24 1_555 1_555
C25 H11 1_555 1_555
C26 C2 1_555 1_555
H12 C28 1_555 1_555
C29 C5 1_555 1_555
C30 C14 1_555 1_555
C31 C6 1_555 1_555
C32 C6 1_555 1_555
H13 C32 1_555 1_555
C33 C13 1_555 1_555
H14 C33 1_555 1_555
C34 C20 1_555 1_555
H15 C34 1_555 1_555
C35 C3 1_555 1_555
C37 C4 1_555 1_555
H16 C37 1_555 1_555
C38 C29 1_555 1_555
C39 C3 1_555 1_555
H17 C39 1_555 1_555
C40 C11 1_555 1_555
H18 C40 1_555 1_555
C41 C20 1_555 1_555
H19 C41 1_555 1_555
C42 C5 1_555 1_555
H20 C42 1_555 1_555
N1 C1 1_555 1_555
H21 N1 1_555 1_555
H22 N1 1_555 1_555
N2 C38 1_555 1_555
H23 N2 1_555 1_555
H24 N2 1_555 1_555
O2 C19 1_555 1_555
O3 Zn4 1_555 1_555
O4 H25 1_555 1_555
H26 O4 1_555 1_555
O7 Zn3 1_555 1_555
O8 C19 1_555 1_555
O9 C8 1_555 1_555
Zn4 O9 1_555 1_555
Zn6 O3 1_555 1_555
Zn3 O2 1_555 1_555
O15 Zn3 1_555 1_555
O16 Zn3 1_555 1_555
O18 Zn4 1_555 1_555
O20 Zn6 1_555 1_555
C10 C31 1_555 1_555
C12 C15 1_555 1_555
C14 C22 1_555 1_555
C17 C22 1_555 1_555
C17 C33 1_555 1_555
C18 C35 1_555 1_555
C24 C32 1_555 1_555
C25 C34 1_555 1_555
C26 C39 1_555 1_555
C29 C37 1_555 1_555
C30 C40 1_555 1_555
C31 C38 1_555 1_555
C41 C42 1_555 1_555
O3 Zn3 1_555 1_555
O4 Zn3 1_555 1_555
O8 Zn6 1_555 1_555
C7 C16 1_555 1_555
C16 H8 1_555 1_555
C23 C7 1_555 1_555
O1 C23 1_555 1_555
O5 C36 1_555 1_555
O10 C23 1_555 1_555
O12 C36 1_555 1_555
Zn5 O10 1_555 1_555
Zn7 O12 1_555 1_555
Zn9 O1 1_555 1_555
C27_2 O11_2 1_555 1_555
O11_2 Zn5 1_555 1_555
O14_2 C27_2 1_555 1_555
Zn5 O14_2 1_555 1_555
Zn7 O6_2 1_555 1_555
C4_2 C8_2 1_555 1_555
C5_2 C25_2 1_555 1_555
C6_2 C28_2 1_555 1_555
C7_2 C16_2 1_555 1_555
C8_2 O7_2 1_555 1_555
C10_2 C4_2 1_555 1_555
H3_2 C10_2 1_555 1_555
C16_2 H8_2 1_555 1_555
C23_2 C7_2 1_555 1_555
C24_2 C7_2 1_555 1_555
H10_2 C24_2 1_555 1_555
C25_2 H11_2 1_555 1_555
C28_2 C16_2 1_555 1_555
H12_2 C28_2 1_555 1_555
C29_2 C5_2 1_555 1_555
C31_2 C6_2 1_555 1_555
C32_2 C6_2 1_555 1_555
H13_2 C32_2 1_555 1_555
C34_2 C20_2 1_555 1_555
H15_2 C34_2 1_555 1_555
C37_2 C4_2 1_555 1_555
H16_2 C37_2 1_555 1_555
C38_2 C29_2 1_555 1_555
C41_2 C20_2 1_555 1_555
H19_2 C41_2 1_555 1_555
C42_2 C5_2 1_555 1_555
H20_2 C42_2 1_555 1_555
N2_2 C38_2 1_555 1_555
H23_2 N2_2 1_555 1_555
H24_2 N2_2 1_555 1_555
O15 C23_2 1_555 1_555
O3_2 Zn5 1_555 1_555
O7_2 Zn9 1_555 1_555
O9_2 C8_2 1_555 1_555
O18 C23_2 1_555 1_555
Zn5 O9_2 1_555 1_555
C10_2 C31_2 1_555 1_555
C24_2 C32_2 1_555 1_555
C25_2 C34_2 1_555 1_555
C29_2 C37_2 1_555 1_555
C31_2 C38_2 1_555 1_555
C41_2 C42_2 1_555 1_555
O3_2 Zn9 1_555 1_555
C1_2 C11_2 1_555 1_555
C2_2 H1_2 1_555 1_555
C3_2 H2_2 1_555 1_555
C9_2 C13_2 1_555 1_555
C11_2 C26_2 1_555 1_555
C12_2 H4_2 1_555 1_555
C13_2 H5_2 1_555 1_555
C14_2 H6_2 1_555 1_555
C15_2 C9_2 1_555 1_555
H7_2 C15_2 1_555 1_555
C17_2 C12_2 1_555 1_555
C18_2 C2_2 1_555 1_555
H9_2 C18_2 1_555 1_555
C19_2 C30_2 1_555 1_555
C21_2 C35_2 1_555 1_555
C22_2 C1_2 1_555 1_555
C26_2 C2_2 1_555 1_555
C30_2 C14_2 1_555 1_555
C33_2 C13_2 1_555 1_555
H14_2 C33_2 1_555 1_555
C35_2 C3_2 1_555 1_555
C36_2 C9_2 1_555 1_555
C39_2 C3_2 1_555 1_555
H17_2 C39_2 1_555 1_555
C40_2 C11_2 1_555 1_555
H18_2 C40_2 1_555 1_555
N1_2 C1_2 1_555 1_555
H21_2 N1_2 1_555 1_555
H22_2 N1_2 1_555 1_555
O2_2 C19_2 1_555 1_555
O4_2 H25_2 1_555 1_555
O16 C36_2 1_555 1_555
O8_2 C19_2 1_555 1_555
O20 C36_2 1_555 1_555
C12_2 C15_2 1_555 1_555
C14_2 C22_2 1_555 1_555
C17_2 C22_2 1_555 1_555
C17_2 C33_2 1_555 1_555
C18_2 C35_2 1_555 1_555
C26_2 C39_2 1_555 1_555
C30_2 C40_2 1_555 1_555
O8_2 Zn7 1_555 1_555
C1_3 C11_3 1_555 1_555
C2_3 H1_3 1_555 1_555
C3_3 H2_3 1_555 1_555
C9_3 C13_3 1_555 1_555
C11_3 C26_3 1_555 1_555
C12_3 H4_3 1_555 1_555
C13_3 H5_3 1_555 1_555
C14_3 H6_3 1_555 1_555
C15_3 C9_3 1_555 1_555
H7_3 C15_3 1_555 1_555
C17_3 C12_3 1_555 1_555
C18_3 C2_3 1_555 1_555
H9_3 C18_3 1_555 1_555
C19_3 C30_3 1_555 1_555
C21_3 C35_3 1_555 1_555
C22_3 C1_3 1_555 1_555
C26_3 C2_3 1_555 1_555
C30_3 C14_3 1_555 1_555
C33_3 C13_3 1_555 1_555
H14_3 C33_3 1_555 1_555
C35_3 C3_3 1_555 1_555
C36_3 C9_3 1_555 1_555
C39_3 C3_3 1_555 1_555
H17_3 C39_3 1_555 1_555
C40_3 C11_3 1_555 1_555
H18_3 C40_3 1_555 1_555
N1_3 C1_3 1_555 1_555
H21_3 N1_3 1_555 1_555
H22_3 N1_3 1_555 1_555
O2_3 C19_3 1_555 1_555
O4_3 H25_3 1_555 1_555
O5_2 C36_3 1_555 1_555
O8_3 C19_3 1_555 1_555
O12_2 C36_3 1_555 1_555
O17 Zn2 1_555 1_555
O20_2 Zn2 1_555 1_555
Zn7_2 O12_2 1_555 1_555
Zn9_2 O5_2 1_555 1_555
C12_3 C15_3 1_555 1_555
C14_3 C22_3 1_555 1_555
C17_3 C22_3 1_555 1_555
C17_3 C33_3 1_555 1_555
C18_3 C35_3 1_555 1_555
C26_3 C39_3 1_555 1_555
C30_3 C40_3 1_555 1_555
O8_3 Zn2 1_555 1_555
C4_3 C8_3 1_555 1_555
C5_3 C25_3 1_555 1_555
C6_3 C28_3 1_555 1_555
C7_3 C16_3 1_555 1_555
C8_3 O7_3 1_555 1_555
C10_3 C4_3 1_555 1_555
H3_3 C10_3 1_555 1_555
C16_3 H8_3 1_555 1_555
C23_3 C7_3 1_555 1_555
C24_3 C7_3 1_555 1_555
H10_3 C24_3 1_555 1_555
C25_3 H11_3 1_555 1_555
C28_3 C16_3 1_555 1_555
H12_3 C28_3 1_555 1_555
C29_3 C5_3 1_555 1_555
C31_3 C6_3 1_555 1_555
C32_3 C6_3 1_555 1_555
H13_3 C32_3 1_555 1_555
C34_3 C20_3 1_555 1_555
H15_3 C34_3 1_555 1_555
C37_3 C4_3 1_555 1_555
H16_3 C37_3 1_555 1_555
C38_3 C29_3 1_555 1_555
C41_3 C20_3 1_555 1_555
H19_3 C41_3 1_555 1_555
C42_3 C5_3 1_555 1_555
H20_3 C42_3 1_555 1_555
N2_3 C38_3 1_555 1_555
H23_3 N2_3 1_555 1_555
H24_3 N2_3 1_555 1_555
O1_2 C23_3 1_555 1_555
O3_3 Zn1 1_555 1_555
O7_3 Zn3_2 1_555 1_555
O9_3 C8_3 1_555 1_555
O10_2 C23_3 1_555 1_555
Zn1 O9_3 1_555 1_555
O15_2 Zn3_2 1_555 1_555
O18_2 Zn1 1_555 1_555
O19 Zn1 1_555 1_555
O21 Zn1 1_555 1_555
Zn5_2 O10_2 1_555 1_555
Zn9_2 O1_2 1_555 1_555
C10_3 C31_3 1_555 1_555
C24_3 C32_3 1_555 1_555
C25_3 C34_3 1_555 1_555
C29_3 C37_3 1_555 1_555
C31_3 C38_3 1_555 1_555
C41_3 C42_3 1_555 1_555
O3_3 Zn3_2 1_555 1_555
C27_3 O19 1_555 1_555
O21 C27_3 1_555 1_555
C7_4 C16_4 1_555 1_555
C16_4 H8_4 1_555 1_555
C23_4 C7_4 1_555 1_555
O15_2 C23_4 1_555 1_555
O16_2 C36_4 1_555 1_555
O18_2 C23_4 1_555 1_555
O20_2 C36_4 1_555 1_555
C1_4 C11_4 1_555 1_555
C2_4 H1_4 1_555 1_555
C3_4 H2_4 1_555 1_555
C4_4 C8_4 1_555 1_555
C5_4 C25_4 1_555 1_555
C6_4 C28_4 1_555 1_555
C8_4 O7_4 1_555 1_555
C9_4 C13_4 1_555 1_555
C10_4 C4_4 1_555 1_555
H3_4 C10_4 1_555 1_555
C11_4 C26_4 1_555 1_555
C12_4 H4_4 1_555 1_555
C14_4 H6_4 1_555 1_555
C15_4 C9_4 1_555 1_555
H7_4 C15_4 1_555 1_555
C17_4 C12_4 1_555 1_555
C18_4 C2_4 1_555 1_555
H9_4 C18_4 1_555 1_555
C19_4 C30_4 1_555 1_555
C21_4 C35_4 1_555 1_555
C22_4 C1_4 1_555 1_555
H10_4 C24_4 1_555 1_555
C25_4 H11_4 1_555 1_555
C26_4 C2_4 1_555 1_555
H12_4 C28_4 1_555 1_555
C29_4 C5_4 1_555 1_555
C30_4 C14_4 1_555 1_555
C31_4 C6_4 1_555 1_555
C32_4 C6_4 1_555 1_555
H13_4 C32_4 1_555 1_555
C33_4 C13_4 1_555 1_555
H14_4 C33_4 1_555 1_555
C34_4 C20_4 1_555 1_555
H15_4 C34_4 1_555 1_555
C35_4 C3_4 1_555 1_555
C37_4 C4_4 1_555 1_555
H16_4 C37_4 1_555 1_555
C38_4 C29_4 1_555 1_555
C39_4 C3_4 1_555 1_555
H17_4 C39_4 1_555 1_555
C40_4 C11_4 1_555 1_555
H18_4 C40_4 1_555 1_555
C41_4 C20_4 1_555 1_555
H19_4 C41_4 1_555 1_555
C42_4 C5_4 1_555 1_555
H20_4 C42_4 1_555 1_555
N1_4 C1_4 1_555 1_555
H21_4 N1_4 1_555 1_555
H22_4 N1_4 1_555 1_555
N2_4 C38_4 1_555 1_555
H23_4 N2_4 1_555 1_555
H24_4 N2_4 1_555 1_555
O2_4 C19_4 1_555 1_555
O3_4 Zn5_2 1_555 1_555
O4_4 H25_4 1_555 1_555
H26_4 O4_4 1_555 1_555
O7_4 Zn9_2 1_555 1_555
O8_4 C19_4 1_555 1_555
O9_4 C8_4 1_555 1_555
Zn5_2 O9_4 1_555 1_555
Zn7_2 O3_4 1_555 1_555
Zn9_2 O2_4 1_555 1_555
O17_2 Zn7_2 1_555 1_555
O19_2 Zn5_2 1_555 1_555
O21_2 Zn5_2 1_555 1_555
C10_4 C31_4 1_555 1_555
C12_4 C15_4 1_555 1_555
C14_4 C22_4 1_555 1_555
C17_4 C22_4 1_555 1_555
C17_4 C33_4 1_555 1_555
C18_4 C35_4 1_555 1_555
C24_4 C32_4 1_555 1_555
C25_4 C34_4 1_555 1_555
C26_4 C39_4 1_555 1_555
C29_4 C37_4 1_555 1_555
C30_4 C40_4 1_555 1_555
C31_4 C38_4 1_555 1_555
C41_4 C42_4 1_555 1_555
O3_4 Zn9_2 1_555 1_555
O4_4 Zn9_2 1_555 1_555
O8_4 Zn7_2 1_555 1_555
C27_4 O19_2 1_555 1_555
O21_2 C27_4 1_555 1_555

#END
