
###############################################################################
#
# This file contains modified crystal structure data generated from the
# MOF subset of the Cambridge Structural Database (CSD) v543 
# hosted by the Cambridge Crystallographic Data Centre (CCDC).
#
# This work is licensed under the Creative Commons
# Attribution-NonCommercial-ShareAlike 4.0 International License.
# To view a copy of this license, visit
# http://creativecommons.org/licenses/by-nc-sa/4.0/
# or send a letter to
# Creative Commons, PO Box 1866, Mountain View, CA 94042, USA.
#
# CIF created using the CSD Python API on 29 September 2022
# The structure has been converted into the P1 space group
# The structure has a 3D framework
# The original CSD entry GEFZAV is in the rhombohedral crystal system
# The framework has been calculated to contain at least 10.0% void space
# The void calculation uses a probe of radius 1.32A, grid spacing 0.4
# H atom positions have been added when not included in the experimental data
# Generated hydrogen atom positions removed from atoms on special positions
#
###############################################################################

data_GEFZAV
_chemical_formula_moiety         '(C810 H684 N180 Ni54 O322)n'
_symmetry_cell_setting           triclinic
_symmetry_space_group_name_H-M   'P 1'
_symmetry_Int_Tables_number      1
_space_group_name_Hall           'P 1'
loop_
_symmetry_equiv_pos_site_id
_symmetry_equiv_pos_as_xyz
1 x,y,z
_cell_length_a                   22.3712(2)
_cell_length_b                   22.3712(2)
_cell_length_c                   95.1715(16)
_cell_angle_alpha                90
_cell_angle_beta                 90
_cell_angle_gamma                120
_cell_volume                     41249.3
loop_
_atom_site_label
_atom_site_type_symbol
_atom_site_fract_x
_atom_site_fract_y
_atom_site_fract_z
C10 C 0.00351(15) 0.40198(17) 0.17124(3)
H8 H 0.0449 0.4339 0.1754
C20 C 0.06549(15) 0.21300(16) 0.06424(3)
C21 C 0.08894(17) 0.25233(18) 0.07640(4)
H13 H 0.0625 0.2686 0.0807
C22 C 0.15232(18) 0.2673(2) 0.08217(4)
C23 C 0.19074(17) 0.24224(19) 0.07590(4)
H14 H 0.2327 0.2520 0.0799
C24 C 0.16845(15) 0.20279(16) 0.06380(3)
C25 C 0.10641(15) 0.18923(16) 0.05792(3)
H15 H 0.0916 0.1639 0.0496
C31 C 0.21227(21) 0.17471(15) 0.05775(3)
C37 C 0.16181(17) 0.47827(18) 0.14019(3)
C38 C 0.36915(18) 0.4575(2) 0.12940(4)
C39 C 0.29338(17) 0.43591(18) 0.12627(4)
C40 C 0.26169(17) 0.46304(17) 0.13403(3)
H23 H 0.2856 0.4931 0.1414
C41 C 0.19563(17) 0.44724(16) 0.13130(3)
C42 C 0.15931(16) 0.40308(18) 0.12024(4)
H24 H 0.1143 0.3922 0.1182
C43 C 0.19239(18) 0.37518(18) 0.11215(3)
C44 C 0.26029(17) 0.39297(18) 0.11556(4)
H25 H 0.2826 0.3748 0.1103
N7 N 0.15308(15) 0.33169(17) 0.10059(4)
N8 N 0.18543(17) 0.3093(2) 0.09440(4)
Ni1 Ni 0.049837(17) 0.507719(18) 0.147320(3)
O5 O 0.19651(16) 0.14894(12) 0.04573(2)
O6 O 0.26085(17) 0.18124(13) 0.06535(2)
O9 O 0.19430(16) 0.50742(19) 0.15130(3)
O10 O 0.10664(10) 0.47251(11) 0.13685(2)
O11 O 0.39621(14) 0.43076(17) 0.12222(3)
O12 O 0.11919(10) 0.54207(12) 0.16374(2)
O13 O 0.39693(10) 0.50047(15) 0.13863(2)
Ni8 Ni 0.492281(18) 0.542118(25) 0.147320(3)
Ni12 Ni 0.324877(24) 0.141795(17) 0.066360(3)
Ni15 Ni 0.238748(25) 0.104128(18) 0.033926(4)
O48 O 0.10354(18) 0.60307(10) 0.13863(2)
H57 H 0.139886 0.511999 0.16466
H58 H 0.156183 0.590257 0.161884
H64 H 0.00107308 0.513055 0.122819
H35 H 0.0336 0.5535 0.1763
C80 C 0.0006(3) 0.7359(6) 0.27167(9)
C81 C 0.0804(6) 0.8436(8) 0.26227(13)
H48 H 0.0941 0.8352 0.2533
H49 H 0.1172 0.8854 0.2662
H50 H 0.0401 0.8480 0.2612
C90 C 0.1182(6) 0.7894(9) 0.28084(14)
H54 H 0.1442 0.8348 0.2848
H55 H 0.1485 0.7791 0.2756
H56 H 0.0968 0.7561 0.2882
N20 N 0.0650(4) 0.7868(6) 0.27151(10)
C1 C 0.60389(16) 0.06719(17) 0.15214(3)
H1 H 0.6004 0.0758 0.1427
C2 C 0.66437(17) 0.11088(18) 0.15910(3)
H2 H 0.7006 0.1475 0.1544
C3 C 0.67057(15) 0.09970(15) 0.17314(3)
C4 C 0.61542(17) 0.04389(17) 0.17954(3)
H3 H 0.6178 0.0340 0.1890
C5 C 0.55700(17) 0.00319(17) 0.17181(3)
C6 C 0.93460(15) 0.36275(16) 0.15178(3)
H5 H 0.9273 0.3675 0.1423
C7 C 0.88558(15) 0.30607(16) 0.15880(3)
H6 H 0.8461 0.2732 0.1542
C8 C 0.89559(15) 0.29822(16) 0.17300(3)
C9 C 0.95684(16) 0.34738(17) 0.17913(3)
H7 H 0.9661 0.3433 0.1885
C11 C 0.85782(16) 0.21041(16) 0.23829(3)
H9 H 0.8960 0.2424 0.2434
C12 C 0.85696(16) 0.21946(16) 0.22400(3)
H10 H 0.8937 0.2569 0.2196
C13 C 0.80010(16) 0.17159(16) 0.21629(3)
C14 C 0.74760(17) 0.11642(18) 0.22343(3)
H11 H 0.7093 0.0829 0.2186
C15 C 0.75259(17) 0.11163(17) 0.23768(3)
H12 H 0.7168 0.0744 0.2423
C16 C 0.73410(15) 0.14591(15) 0.18097(3)
C17 C 0.84027(15) 0.23880(15) 0.18092(3)
C18 C 0.79569(15) 0.18001(15) 0.20096(3)
C19 C 0.99658(15) 0.19592(15) 0.05824(3)
C26 C 0.7214(2) 0.05987(19) 0.31239(4)
C27 C 0.6505(2) 0.02636(19) 0.33445(4)
H16 H 0.6495 0.0674 0.3338
C28 C 0.6850(2) 0.0106(2) 0.32426(4)
H19 H 0.7091 0.0095 0.2778
N1 N 0.99282(12) 0.41201(12) 0.15780(2)
N2 N 0.80615(12) 0.15764(13) 0.24520(3)
N3 N 0.55036(18) 0.01344(12) 0.15814(2)
N4 N 0.78431(13) 0.19692(13) 0.17360(3)
N5 N 0.84961(13) 0.23343(13) 0.19464(3)
N6 N 0.73710(13) 0.13398(13) 0.19454(3)
Ni2 Ni 0.808462(17) 0.150252(17) 0.266973(3)
Ni3 Ni 0.770795(18) 0.198714(18) 0.299407(4)
O2 O 0.57399(13) 0.05097(17) 0.35428(2)
O3 O 0.72181(12) 0.11553(12) 0.31263(2)
O4 O 0.74977(18) 0.04125(14) 0.30321(3)
O7 O 0.98316(11) 0.17179(12) 0.04608(2)
O8 O 0.95885(11) 0.20912(13) 0.06599(2)
O14 O 0.98439(10) 0.47493(10) 0.12977(2)
O15 O 0.90798(12) 0.16498(14) 0.26557(2)
O16 O 0.77751(15) 0.04622(13) 0.26480(3)
O17 O 0.73145(19) 0.24586(17) 0.31232(3)
O18 O 0.81334(10) 0.14785(10) 0.288272(19)
C79 C 0.82529(15) 0.03756(26) 0.05775(3)
O23 O 0.85106(12) 0.04757(20) 0.04573(2)
O24 O 0.81876(13) 0.07961(21) 0.06535(2)
N21 N 0.98656(12) 0.53692(22) 0.15814(2)
Ni10 Ni 0.858205(17) 0.183081(17) 0.066360(3)
Ni13 Ni 0.895872(18) 0.134619(18) 0.033926(4)
Ni17 Ni 0.532047(18) 0.094586(25) 0.367260(4)
O37 O 0.85635(21) 0.24066(13) 0.31239(2)
O39 O 0.81561(12) 0.28576(20) 0.28760(2)
O41 O 0.84791(13) 0.25372(21) 0.26798(2)
O43 O 0.68351(11) 0.16154(12) 0.28725(2)
O45 O 0.70782(11) 0.12421(13) 0.26734(2)
H61 H 0.938949 0.210307 0.261108
H62 H 0.925232 0.164056 0.275135
H63 H 0.93681 0.461683 0.132754
H4 H 0.5199 0.9664 0.1763
C29 C 0.6850(3) 0.9487(2) 0.32513(4)
H17 H 0.7065 0.9370 0.3182
C30 C 0.6534(3) 0.9043(2) 0.33625(5)
C32 C 0.5788(2) 0.99876(27) 0.35643(4)
C33 C 0.6173(2) 0.98100(28) 0.34558(4)
C34 C 0.6184(3) 0.9200(4) 0.34627(4)
H18 H 0.5954 0.8891 0.3536
C35 C 0.7353(5) 0.9994(3) 0.27167(9)
C36 C 0.7632(6) 0.9196(6) 0.26227(13)
H20 H 0.7411 0.9059 0.2533
H21 H 0.7682 0.8828 0.2662
H22 H 0.8079 0.9599 0.2612
C45 C 0.6712(7) 0.8818(6) 0.28084(14)
H26 H 0.6906 0.8558 0.2848
H27 H 0.6306 0.8515 0.2756
H28 H 0.6593 0.9032 0.2882
N9 N 0.6507(3) 0.8394(2) 0.33802(4)
N10 N 0.7218(5) 0.9350(4) 0.27151(10)
O1 O 0.55535(18) 0.95880(22) 0.36685(3)
C46 C 0.6119(2) 0.60680(19) 0.35428(4)
C47 C 0.6828(2) 0.64031(19) 0.33222(4)
H29 H 0.6838 0.5993 0.3329
C48 C 0.6483(2) 0.6561(2) 0.34241(4)
C49 C 0.6483(3) 0.7180(2) 0.34154(4)
H30 H 0.6268 0.7297 0.3485
C50 C 0.6799(3) 0.7624(2) 0.33042(5)
N11 N 0.6826(3) 0.8273(2) 0.32865(4)
O19 O 0.61152(12) 0.55114(12) 0.35404(2)
O20 O 0.58356(18) 0.62542(14) 0.36346(3)
C51 C 0.7545(2) 0.66791(27) 0.31024(4)
C52 C 0.7160(2) 0.68567(28) 0.32109(4)
C53 C 0.7149(3) 0.7467(4) 0.32040(4)
H31 H 0.7379 0.7776 0.3131
O21 O 0.77798(18) 0.70787(22) 0.29982(3)
O22 O 0.75934(13) 0.61570(17) 0.31239(2)
C54 C 0.93281(17) 0.53670(23) 0.15214(3)
H32 H 0.9242 0.5246 0.1427
C55 C 0.88912(18) 0.55349(25) 0.15910(3)
H33 H 0.8525 0.5531 0.1544
C56 C 0.90030(15) 0.57087(21) 0.17314(3)
C57 C 0.95611(17) 0.57153(24) 0.17954(3)
H34 H 0.9660 0.5838 0.1890
C58 C 0.99681(17) 0.55381(24) 0.17181(3)
C59 C 0.63725(16) 0.57185(22) 0.15178(3)
H36 H 0.6325 0.5598 0.1423
C60 C 0.69393(16) 0.57951(22) 0.15880(3)
H37 H 0.7268 0.5729 0.1542
C61 C 0.70178(16) 0.59737(22) 0.17300(3)
C62 C 0.65262(17) 0.60946(23) 0.17913(3)
H38 H 0.6567 0.6228 0.1885
C63 C 0.59802(17) 0.60153(23) 0.17124(3)
H39 H 0.5661 0.6110 0.1754
C64 C 0.78959(16) 0.64741(23) 0.23829(3)
H40 H 0.7576 0.6536 0.2434
C65 C 0.78054(16) 0.63750(23) 0.22400(3)
H41 H 0.7431 0.6368 0.2196
C66 C 0.82841(16) 0.62851(23) 0.21629(3)
C67 C 0.88358(18) 0.63118(25) 0.22343(3)
H42 H 0.9171 0.6264 0.2186
C68 C 0.88837(17) 0.64096(24) 0.23768(3)
H43 H 0.9256 0.6424 0.2423
C69 C 0.85409(15) 0.58819(21) 0.18097(3)
C70 C 0.76120(15) 0.60147(21) 0.18092(3)
C71 C 0.81999(15) 0.61568(21) 0.20096(3)
C72 C 0.80408(15) 0.80066(21) 0.05824(3)
C73 C 0.78700(16) 0.85249(22) 0.06424(3)
C74 C 0.74767(18) 0.83661(25) 0.07640(4)
H44 H 0.7314 0.7939 0.0807
C75 C 0.7327(2) 0.88502(27) 0.08217(4)
C76 C 0.75776(19) 0.94850(25) 0.07590(4)
H45 H 0.7480 0.9807 0.0799
C77 C 0.79721(16) 0.96566(22) 0.06380(3)
C78 C 0.81077(16) 0.91718(22) 0.05792(3)
H46 H 0.8361 0.9277 0.0496
H47 H 0.9905 0.6996 0.2778
C82 C 0.52173(18) 0.68354(25) 0.14019(3)
C83 C 0.5425(2) 0.91165(27) 0.12940(4)
C84 C 0.56409(18) 0.85747(25) 0.12627(4)
C85 C 0.53696(17) 0.79865(24) 0.13403(3)
H51 H 0.5069 0.7925 0.1414
C86 C 0.55276(16) 0.74839(23) 0.13130(3)
C87 C 0.59692(18) 0.75623(24) 0.12024(4)
H52 H 0.6078 0.7221 0.1182
C88 C 0.62482(18) 0.81721(25) 0.11215(3)
C89 C 0.60703(18) 0.86732(25) 0.11556(4)
H53 H 0.6252 0.9078 0.1103
N12 N 0.58799(12) 0.58081(17) 0.15780(2)
N13 N 0.84236(13) 0.64851(18) 0.24520(3)
N15 N 0.80308(13) 0.58739(18) 0.17360(3)
N16 N 0.76657(13) 0.61618(18) 0.19464(3)
N17 N 0.86602(13) 0.60312(18) 0.19454(3)
N18 N 0.66831(17) 0.82139(23) 0.10059(4)
N19 N 0.6907(2) 0.87613(26) 0.09440(4)
Ni5 Ni 0.849748(17) 0.658210(24) 0.266973(3)
Ni6 Ni 0.801286(18) 0.572081(25) 0.299407(4)
O25 O 0.82821(12) 0.81137(16) 0.04608(2)
O26 O 0.79088(13) 0.74973(17) 0.06599(2)
O27 O 0.49258(19) 0.68688(25) 0.15130(3)
O28 O 0.52749(11) 0.63413(15) 0.13685(2)
O29 O 0.56924(17) 0.96545(22) 0.12222(3)
O30 O 0.45793(12) 0.57712(16) 0.16374(2)
O31 O 0.49953(15) 0.89646(18) 0.13863(2)
O32 O 0.52507(10) 0.50946(14) 0.12977(2)
O33 O 0.83502(14) 0.74300(18) 0.26557(2)
O34 O 0.95378(13) 0.73129(20) 0.26480(3)
O35 O 0.75414(17) 0.48559(25) 0.31232(3)
O36 O 0.85215(10) 0.66549(14) 0.288272(19)
N22 N 0.46308(22) 0.44964(18) 0.15814(2)
Ni9 Ni 0.457882(25) 0.950163(17) 0.147320(3)
Ni11 Ni 0.816919(17) 0.675123(24) 0.066360(3)
Ni14 Ni 0.865381(18) 0.761252(25) 0.033926(4)
Ni16 Ni 0.562538(18) 0.467953(18) 0.367260(4)
O38 O 0.88447(12) 0.60628(17) 0.31263(2)
O40 O 0.71424(20) 0.52984(16) 0.28760(2)
O42 O 0.74628(21) 0.59418(17) 0.26798(2)
O44 O 0.83846(12) 0.52196(16) 0.28725(2)
O46 O 0.87579(13) 0.58360(17) 0.26734(2)
H67 H 0.488001 0.627887 0.16466
H68 H 0.409743 0.565926 0.161884
H69 H 0.538317 0.475127 0.132754
H70 H 0.486945 0.488018 0.122819
H71 H 0.789693 0.728641 0.261108
H72 H 0.835944 0.761176 0.275135
C46_2 C 0.39320(19) 0.00514(28) 0.35428(4)
C47_2 C 0.35969(19) 0.04253(28) 0.33222(4)
H29_2 H 0.4007 0.0846 0.3329
O19_2 O 0.44886(12) 0.06039(17) 0.35404(2)
C51_2 C 0.33209(27) 0.08663(34) 0.31024(4)
C52_2 C 0.31433(28) 0.03037(34) 0.32109(4)
O21_2 O 0.29213(22) 0.07012(28) 0.29982(3)
O22_2 O 0.38430(17) 0.14365(21) 0.31239(2)
C54_2 C 0.46330(23) 0.39611(29) 0.15214(3)
H32_2 H 0.4754 0.3996 0.1427
C55_2 C 0.44651(25) 0.33563(31) 0.15910(3)
H33_2 H 0.4469 0.2994 0.1544
C56_2 C 0.42913(21) 0.32943(26) 0.17314(3)
C57_2 C 0.42847(24) 0.38458(29) 0.17954(3)
H34_2 H 0.4162 0.3822 0.1890
C58_2 C 0.44619(24) 0.44300(29) 0.17181(3)
H35_2 H 0.4465 0.4801 0.1763
C59_2 C 0.42815(22) 0.06540(27) 0.15178(3)
H36_2 H 0.4402 0.0727 0.1423
C60_2 C 0.42049(22) 0.11442(27) 0.15880(3)
H37_2 H 0.4271 0.1539 0.1542
C61_2 C 0.40263(22) 0.10441(27) 0.17300(3)
C62_2 C 0.39054(23) 0.04316(29) 0.17913(3)
H38_2 H 0.3772 0.0339 0.1885
C64_2 C 0.35259(23) 0.14218(28) 0.23829(3)
H40_2 H 0.3464 0.1040 0.2434
C65_2 C 0.36250(23) 0.14304(28) 0.22400(3)
H41_2 H 0.3632 0.1063 0.2196
C66_2 C 0.37149(23) 0.19990(28) 0.21629(3)
C67_2 C 0.36882(25) 0.25240(31) 0.22343(3)
H42_2 H 0.3736 0.2907 0.2186
C68_2 C 0.35904(24) 0.24741(29) 0.23768(3)
H43_2 H 0.3576 0.2832 0.2423
C69_2 C 0.41181(21) 0.26590(26) 0.18097(3)
C70_2 C 0.39853(21) 0.15973(26) 0.18092(3)
C71_2 C 0.38432(21) 0.20431(26) 0.20096(3)
C72_2 C 0.19934(21) 0.00342(26) 0.05824(3)
C80_2 C 0.2641(6) 0.2647(7) 0.27167(9)
H47_2 H 0.3004 0.2909 0.2778
C81_2 C 0.1564(8) 0.2368(10) 0.26227(13)
H48_2 H 0.1648 0.2589 0.2533
H49_2 H 0.1146 0.2318 0.2662
H50_2 H 0.1520 0.1921 0.2612
C90_2 C 0.2106(9) 0.3288(11) 0.28084(14)
H54_2 H 0.1652 0.3094 0.2848
H55_2 H 0.2209 0.3694 0.2756
H56_2 H 0.2439 0.3407 0.2882
N12_2 N 0.41919(17) 0.00718(21) 0.15780(2)
N13_2 N 0.35149(18) 0.19385(22) 0.24520(3)
N15_2 N 0.41261(18) 0.21569(22) 0.17360(3)
N16_2 N 0.38382(18) 0.15039(22) 0.19464(3)
N17_2 N 0.39688(18) 0.26290(22) 0.19454(3)
N20_2 N 0.2132(6) 0.2782(7) 0.27151(10)
Ni5_2 Ni 0.341790(24) 0.191538(29) 0.266973(3)
Ni6_2 Ni 0.427919(25) 0.229205(31) 0.299407(4)
O25_2 O 0.18863(16) 0.01684(20) 0.04608(2)
O26_2 O 0.25027(17) 0.04115(21) 0.06599(2)
O32_2 O 0.49054(14) 0.01561(17) 0.12977(2)
O33_2 O 0.25700(18) 0.09202(23) 0.26557(2)
O34_2 O 0.26871(20) 0.22249(24) 0.26480(3)
O35_2 O 0.51441(25) 0.26855(30) 0.31232(3)
O36_2 O 0.33451(14) 0.18666(17) 0.288272(19)
O38_2 O 0.39372(17) 0.27819(21) 0.31263(2)
O40_2 O 0.47016(16) 0.18439(26) 0.28760(2)
O42_2 O 0.40582(17) 0.15209(27) 0.26798(2)
O44_2 O 0.47804(16) 0.31649(20) 0.28725(2)
O46_2 O 0.41640(17) 0.29218(21) 0.26734(2)
H69_2 H 0.524873 0.0631903 0.132754
H71_2 H 0.271359 0.0610514 0.261108
H72_2 H 0.238824 0.0747681 0.275135
C29_2 C 0.0513(2) 0.7363(4) 0.32513(4)
H17_2 H 0.0630 0.7695 0.3182
C30_2 C 0.0957(2) 0.7491(4) 0.33625(5)
C32_2 C 0.00124(27) 0.58004(34) 0.35643(4)
C33_2 C 0.01900(28) 0.63630(34) 0.34558(4)
C34_2 C 0.0800(4) 0.6984(5) 0.34627(4)
H18_2 H 0.1109 0.7063 0.3536
N9_2 N 0.1606(2) 0.8113(4) 0.33802(4)
O1_2 O 0.04120(22) 0.59655(28) 0.36685(3)
C48_2 C 0.3439(2) 0.9923(3) 0.34241(4)
C49_2 C 0.2820(2) 0.9304(4) 0.34154(4)
H30_2 H 0.2703 0.8972 0.3485
C50_2 C 0.2376(2) 0.9176(4) 0.33042(5)
N11_2 N 0.1727(2) 0.8554(4) 0.32865(4)
O20_2 O 0.37458(14) 0.95815(23) 0.36346(3)
C53_2 C 0.2533(4) 0.9683(5) 0.32040(4)
H31_2 H 0.2224 0.9604 0.3131
C63_2 C 0.39847(23) 0.99649(29) 0.17124(3)
H39_2 H 0.3890 0.9551 0.1754
C73_2 C 0.14751(22) 0.93451(27) 0.06424(3)
C74_2 C 0.16339(25) 0.91106(31) 0.07640(4)
H44_2 H 0.2061 0.9375 0.0807
C75_2 C 0.11498(27) 0.84768(34) 0.08217(4)
C76_2 C 0.05150(25) 0.80926(31) 0.07590(4)
H45_2 H 0.0193 0.7673 0.0799
C77_2 C 0.03434(22) 0.83155(27) 0.06380(3)
C78_2 C 0.08282(22) 0.89359(27) 0.05792(3)
H46_2 H 0.0723 0.9084 0.0496
C82_2 C 0.31646(25) 0.83819(31) 0.14019(3)
C83_2 C 0.08835(27) 0.63085(34) 0.12940(4)
C84_2 C 0.14253(25) 0.70662(31) 0.12627(4)
C85_2 C 0.20135(24) 0.73831(29) 0.13403(3)
H51_2 H 0.2075 0.7144 0.1414
C86_2 C 0.25161(23) 0.80437(28) 0.13130(3)
C87_2 C 0.24377(24) 0.84069(30) 0.12024(4)
H52_2 H 0.2779 0.8857 0.1182
C88_2 C 0.18279(25) 0.80761(31) 0.11215(3)
C89_2 C 0.13268(25) 0.73971(31) 0.11556(4)
H53_2 H 0.0922 0.7174 0.1103
N18_2 N 0.17861(23) 0.84692(29) 0.10059(4)
N19_2 N 0.12387(26) 0.81457(33) 0.09440(4)
O27_2 O 0.31312(25) 0.80570(31) 0.15130(3)
O28_2 O 0.36587(15) 0.89336(19) 0.13685(2)
O29_2 O 0.03455(22) 0.60379(28) 0.12222(3)
O30_2 O 0.42288(16) 0.88081(20) 0.16374(2)
H67_2 H 0.372113 0.860114 0.16466
H68_2 H 0.434074 0.843817 0.161884
H70_2 H 0.511982 0.998927 0.122819
C26_2 C 0.94013(19) 0.66153(28) 0.31239(4)
C27_2 C 0.97364(19) 0.62414(28) 0.33445(4)
H16_2 H 0.9326 0.5821 0.3338
C28_2 C 0.9894(2) 0.6744(3) 0.32426(4)
O2_2 O 0.94903(17) 0.52302(21) 0.35428(2)
O4_2 O 0.95875(14) 0.70852(23) 0.30321(3)
C79_2 C 0.96244(26) 0.78773(30) 0.05775(3)
O23_2 O 0.95243(20) 0.80349(23) 0.04573(2)
O24_2 O 0.92039(21) 0.73915(25) 0.06535(2)
Ni17_2 Ni 0.905414(25) 0.437462(31) 0.367260(4)
C26_3 C 0.33847(28) 0.2786(2) 0.31239(4)
C27_3 C 0.37586(28) 0.3495(2) 0.33445(4)
H16_3 H 0.4179 0.3505 0.3338
C28_3 C 0.3256(3) 0.3150(2) 0.32426(4)
C29_3 C 0.2637(4) 0.3150(3) 0.32513(4)
H17_3 H 0.2305 0.2935 0.3182
C30_3 C 0.2509(4) 0.3466(3) 0.33625(5)
C32_3 C 0.41996(34) 0.4212(2) 0.35643(4)
C33_3 C 0.36370(34) 0.3827(2) 0.34558(4)
C34_3 C 0.3016(5) 0.3816(3) 0.34627(4)
H18_3 H 0.2937 0.4046 0.3536
N9_3 N 0.1887(4) 0.3493(3) 0.33802(4)
O1_3 O 0.40345(28) 0.44465(18) 0.36685(3)
O2_3 O 0.47698(21) 0.42601(13) 0.35428(2)
O4_3 O 0.29148(23) 0.25023(18) 0.30321(3)
C48_3 C 0.0077(3) 0.3517(2) 0.34241(4)
C49_3 C 0.0696(4) 0.3517(3) 0.34154(4)
H30_3 H 0.1028 0.3732 0.3485
C50_3 C 0.0824(4) 0.3201(3) 0.33042(5)
N11_3 N 0.1446(4) 0.3174(3) 0.32865(4)
O20_3 O 0.04185(23) 0.41644(18) 0.36346(3)
C53_3 C 0.0317(5) 0.2851(3) 0.32040(4)
H31_3 H 0.0396 0.2621 0.3131
C46_3 C 0.99486(28) 0.3881(2) 0.35428(4)
C47_3 C 0.95747(28) 0.3172(2) 0.33222(4)
H29_3 H 0.9154 0.3162 0.3329
O19_3 O 0.93961(17) 0.38848(12) 0.35404(2)
C51_3 C 0.91337(34) 0.2455(2) 0.31024(4)
C52_3 C 0.96963(34) 0.2840(2) 0.32109(4)
O21_3 O 0.92988(28) 0.22202(18) 0.29982(3)
C38_2 C 0.03582(18) 0.7908(2) 0.46273(4)
O11_2 O 0.06288(14) 0.76409(17) 0.45555(3)
O13_2 O 0.06360(10) 0.83380(15) 0.47196(2)
Ni8_2 Ni 0.158948(18) 0.875451(25) 0.480653(3)
C1_2 C 0.27056(16) 0.40052(17) 0.48547(3)
H1_2 H 0.2671 0.4091 0.4760
C2_2 C 0.33104(17) 0.44421(18) 0.49243(3)
H2_2 H 0.3673 0.4808 0.4877
C3_2 C 0.33724(15) 0.43303(15) 0.50647(3)
C4_2 C 0.28209(17) 0.37722(17) 0.51287(3)
H3_2 H 0.2845 0.3673 0.5223
C5_2 C 0.22367(17) 0.33652(17) 0.50514(3)
H4_2 H 0.1866 0.2997 0.5096
C6_2 C 0.60127(15) 0.69608(16) 0.48511(3)
H5_2 H 0.5940 0.7008 0.4756
C7_2 C 0.55225(15) 0.63940(16) 0.49213(3)
H6_2 H 0.5128 0.6065 0.4875
C8_2 C 0.56226(15) 0.63155(16) 0.50633(3)
C9_2 C 0.62351(16) 0.68071(17) 0.51246(3)
H7_2 H 0.6328 0.6766 0.5218
C10_2 C 0.67018(15) 0.73531(17) 0.50457(3)
H8_2 H 0.7116 0.7672 0.5087
C11_2 C 0.52449(16) 0.54374(16) 0.57162(3)
H9_2 H 0.5627 0.5757 0.5767
C12_2 C 0.52363(16) 0.55279(16) 0.55733(3)
H10_2 H 0.5604 0.5902 0.5529
C13_2 C 0.46677(16) 0.50492(16) 0.54962(3)
C14_2 C 0.41427(17) 0.44975(18) 0.55676(3)
H11_2 H 0.3760 0.4162 0.5519
C15_2 C 0.41926(17) 0.44496(17) 0.57101(3)
H12_2 H 0.3835 0.4077 0.5756
C16_2 C 0.40077(15) 0.47924(15) 0.51430(3)
C17_2 C 0.50694(15) 0.57213(15) 0.51425(3)
C18_2 C 0.46236(15) 0.51334(15) 0.53429(3)
C19_2 C 0.66325(15) 0.52925(15) 0.39157(3)
C20_2 C 0.73216(15) 0.54633(16) 0.39757(3)
C21_2 C 0.75561(17) 0.58566(18) 0.40973(4)
H13_2 H 0.7292 0.6019 0.4140
C22_2 C 0.81899(18) 0.6006(2) 0.41550(4)
C23_2 C 0.85741(17) 0.57557(19) 0.40923(4)
H14_2 H 0.8994 0.5853 0.4132
C24_2 C 0.83512(15) 0.53612(16) 0.39713(3)
C25_2 C 0.77308(15) 0.52256(16) 0.39125(3)
H15_2 H 0.7583 0.4972 0.3829
C26_4 C 0.3881(2) 0.39320(19) 0.64572(4)
C27_4 C 0.3172(2) 0.35969(19) 0.66778(4)
H16_4 H 0.3162 0.4007 0.6671
C28_4 C 0.3517(2) 0.3439(2) 0.65759(4)
C29_4 C 0.3517(3) 0.2820(2) 0.65846(4)
H17_4 H 0.3732 0.2703 0.6515
C30_4 C 0.3201(3) 0.2376(2) 0.66958(5)
C31_2 C 0.87894(21) 0.50804(15) 0.39108(3)
C32_4 C 0.2455(2) 0.33209(27) 0.68976(4)
C33_4 C 0.2840(2) 0.31433(28) 0.67891(4)
C34_4 C 0.2851(3) 0.2533(4) 0.67960(4)
H18_4 H 0.2621 0.2224 0.6869
C35_2 C 0.4020(5) 0.3327(3) 0.60500(9)
H19_2 H 0.3758 0.3428 0.6111
C36_2 C 0.4299(6) 0.2529(6) 0.59560(13)
H20_2 H 0.4078 0.2392 0.5866
H21_2 H 0.4349 0.2161 0.5995
H22_2 H 0.4746 0.2932 0.5945
C37_2 C 0.82848(17) 0.81160(18) 0.47352(3)
C39_2 C 0.96005(17) 0.76924(18) 0.45960(4)
C40_2 C 0.92836(17) 0.79637(17) 0.46736(3)
H23_2 H 0.9523 0.8264 0.4747
C41_2 C 0.86230(17) 0.78057(16) 0.46463(3)
C42_2 C 0.82598(16) 0.73641(18) 0.45357(4)
H24_2 H 0.7810 0.7255 0.4515
C43_2 C 0.85906(18) 0.70851(18) 0.44548(3)
C44_2 C 0.92696(17) 0.72630(18) 0.44889(4)
H25_2 H 0.9493 0.7081 0.4436
C45_2 C 0.3379(7) 0.2151(6) 0.61417(14)
H26_2 H 0.3573 0.1891 0.6181
H27_2 H 0.2973 0.1848 0.6089
H28_2 H 0.3260 0.2365 0.6215
N1_2 N 0.65949(12) 0.74534(12) 0.49113(2)
N2_2 N 0.47282(12) 0.49097(13) 0.57853(3)
N3_2 N 0.21703(18) 0.34677(12) 0.49147(2)
N4_2 N 0.45098(13) 0.53025(13) 0.50693(3)
N5_2 N 0.51628(13) 0.56676(13) 0.52797(3)
N6_2 N 0.40377(13) 0.46731(13) 0.52787(3)
N7_2 N 0.81975(15) 0.66502(17) 0.43392(4)
N8_2 N 0.85210(17) 0.6426(2) 0.42773(4)
N9_4 N 0.3174(3) 0.1727(2) 0.67135(4)
N10_2 N 0.3885(5) 0.2683(4) 0.60484(10)
Ni1_2 Ni 0.716504(17) 0.841052(18) 0.480653(3)
Ni2_2 Ni 0.475129(17) 0.483585(17) 0.600306(3)
Ni3_2 Ni 0.437462(18) 0.532047(18) 0.632740(4)
O1_4 O 0.22202(18) 0.29213(22) 0.70018(3)
O2_4 O 0.24066(13) 0.38430(17) 0.68761(2)
O3_2 O 0.38848(12) 0.44886(12) 0.64596(2)
O4_4 O 0.41644(18) 0.37458(14) 0.63654(3)
O5_2 O 0.86318(16) 0.48227(12) 0.37906(2)
O6_2 O 0.92752(17) 0.51457(13) 0.39868(2)
O7_2 O 0.64983(11) 0.50512(12) 0.37941(2)
O8_2 O 0.62552(11) 0.54245(13) 0.39932(2)
O9_2 O 0.86097(16) 0.84075(19) 0.48463(3)
O10_2 O 0.77331(10) 0.80584(11) 0.47018(2)
O12_2 O 0.78586(10) 0.87540(12) 0.49707(2)
O14_2 O 0.65106(10) 0.80826(10) 0.46310(2)
O15_2 O 0.57465(12) 0.49831(14) 0.59890(2)
O16_2 O 0.44418(15) 0.37955(13) 0.59813(3)
O17_2 O 0.39812(19) 0.57919(17) 0.64565(3)
O18_2 O 0.48001(10) 0.48118(10) 0.621605(19)
C49_4 C 0.3150(3) 0.0513(2) 0.67487(4)
H30_4 H 0.2935 0.0630 0.6818
C50_4 C 0.3466(3) 0.0957(2) 0.66375(5)
N11_4 N 0.3493(3) 0.1606(2) 0.66198(4)
C51_4 C 0.4212(2) 0.00124(27) 0.64357(4)
C52_4 C 0.3827(2) 0.01900(28) 0.65442(4)
C53_4 C 0.3816(3) 0.0800(4) 0.65373(4)
H31_4 H 0.4046 0.1109 0.6464
O21_4 O 0.44465(18) 0.04120(22) 0.63315(3)
C72_3 C 0.47075(15) 0.13399(21) 0.39157(3)
C73_3 C 0.45367(16) 0.18582(22) 0.39757(3)
C74_3 C 0.41434(18) 0.16994(25) 0.40973(4)
H44_3 H 0.3981 0.1272 0.4140
C75_3 C 0.3994(2) 0.21835(27) 0.41550(4)
C76_3 C 0.42443(19) 0.28183(25) 0.40923(4)
H45_3 H 0.4147 0.3140 0.4132
C77_3 C 0.46388(16) 0.29899(22) 0.39713(3)
C78_3 C 0.47744(16) 0.25051(22) 0.39125(3)
H46_3 H 0.5028 0.2610 0.3829
C79_3 C 0.49196(15) 0.37089(26) 0.39108(3)
C80_3 C 0.6673(3) 0.0692(6) 0.60500(9)
H47_3 H 0.6572 0.0329 0.6111
C81_3 C 0.7471(6) 0.1769(8) 0.59560(13)
H48_3 H 0.7608 0.1685 0.5866
H49_3 H 0.7839 0.2187 0.5995
H50_3 H 0.7068 0.1813 0.5945
C82_3 C 0.18840(18) 0.01687(25) 0.47352(3)
C83_3 C 0.2092(2) 0.24498(27) 0.46273(4)
C84_3 C 0.23076(18) 0.19080(25) 0.45960(4)
C85_3 C 0.20363(17) 0.13198(24) 0.46736(3)
H51_3 H 0.1736 0.1258 0.4747
C86_3 C 0.21943(16) 0.08172(23) 0.46463(3)
C87_3 C 0.26359(18) 0.08956(24) 0.45357(4)
H52_3 H 0.2745 0.0554 0.4515
C88_3 C 0.29149(18) 0.15054(25) 0.44548(3)
C89_3 C 0.27370(18) 0.20065(25) 0.44889(4)
H53_3 H 0.2919 0.2411 0.4436
C90_3 C 0.7849(6) 0.1227(9) 0.61417(14)
H54_3 H 0.8109 0.1681 0.6181
H55_3 H 0.8152 0.1124 0.6089
H56_3 H 0.7635 0.0894 0.6215
N18_3 N 0.33498(17) 0.15472(23) 0.43392(4)
N19_3 N 0.3574(2) 0.20946(26) 0.42773(4)
N20_3 N 0.7317(4) 0.1201(6) 0.60484(10)
O23_3 O 0.51773(12) 0.38090(20) 0.37906(2)
O24_3 O 0.48543(13) 0.41294(21) 0.39868(2)
O25_3 O 0.49488(12) 0.14470(16) 0.37941(2)
O26_3 O 0.45755(13) 0.08306(17) 0.39932(2)
O27_3 O 0.15925(19) 0.02021(25) 0.48463(3)
O29_3 O 0.23591(17) 0.29878(22) 0.45555(3)
O31_2 O 0.16620(15) 0.22979(18) 0.47196(2)
O33_3 O 0.50169(14) 0.07633(18) 0.59890(2)
O34_3 O 0.62045(13) 0.06462(20) 0.59813(3)
N21_2 N 0.65323(12) 0.87025(22) 0.49147(2)
Ni9_2 Ni 0.124549(25) 0.283496(17) 0.480653(3)
Ni10_2 Ni 0.524871(17) 0.516415(17) 0.399694(3)
Ni11_2 Ni 0.483585(17) 0.008457(24) 0.399694(3)
Ni12_2 Ni 0.991543(24) 0.475129(17) 0.399694(3)
Ni17_3 Ni 0.198714(18) 0.427919(25) 0.700593(4)
O37_2 O 0.52302(21) 0.57399(13) 0.64572(2)
O39_2 O 0.48227(12) 0.61910(20) 0.62094(2)
O41_2 O 0.51457(13) 0.58706(21) 0.60132(2)
O43_2 O 0.35017(11) 0.49488(12) 0.62059(2)
O45_2 O 0.37448(11) 0.45755(13) 0.60068(2)
O48_2 O 0.77021(18) 0.93640(10) 0.47196(2)
H57_2 H 0.806553 0.845333 0.497993
H58_2 H 0.82285 0.923591 0.495218
H61_2 H 0.605615 0.543641 0.594441
H62_2 H 0.591899 0.497389 0.608468
H63_2 H 0.603476 0.795016 0.466088
H64_2 H 0.66774 0.846389 0.456152
H71_3 H 0.456359 0.0619747 0.594441
H72_3 H 0.502611 0.0945091 0.608468
C46_4 C 0.2786(2) 0.94013(19) 0.68761(4)
C47_4 C 0.3495(2) 0.97364(19) 0.66555(4)
H29_4 H 0.3505 0.9326 0.6662
C48_4 C 0.3150(2) 0.9894(2) 0.67574(4)
O19_4 O 0.27819(12) 0.88447(12) 0.68737(2)
O20_4 O 0.25023(18) 0.95875(14) 0.69679(3)
O22_3 O 0.42601(13) 0.94903(17) 0.64572(2)
C54_3 C 0.59948(17) 0.87003(23) 0.48547(3)
H32_3 H 0.5909 0.8579 0.4760
C55_3 C 0.55579(18) 0.88682(25) 0.49243(3)
H33_3 H 0.5192 0.8864 0.4877
C56_3 C 0.56697(15) 0.90420(21) 0.50647(3)
C57_3 C 0.62278(17) 0.90486(24) 0.51287(3)
H34_3 H 0.6327 0.9171 0.5223
C58_3 C 0.66348(17) 0.88714(24) 0.50514(3)
H35_3 H 0.7003 0.8868 0.5096
C59_3 C 0.30392(16) 0.90518(22) 0.48511(3)
H36_3 H 0.2992 0.8931 0.4756
C60_3 C 0.36060(16) 0.91284(22) 0.49213(3)
H37_3 H 0.3935 0.9062 0.4875
C61_3 C 0.36845(16) 0.93070(22) 0.50633(3)
C62_3 C 0.31929(17) 0.94279(23) 0.51246(3)
H38_3 H 0.3234 0.9561 0.5218
C63_3 C 0.26469(17) 0.93486(23) 0.50457(3)
H39_3 H 0.2328 0.9443 0.5087
C64_3 C 0.45626(16) 0.98074(23) 0.57162(3)
H40_3 H 0.4243 0.9869 0.5767
C65_3 C 0.44721(16) 0.97083(23) 0.55733(3)
H41_3 H 0.4098 0.9701 0.5529
C66_3 C 0.49508(16) 0.96184(23) 0.54962(3)
C67_3 C 0.55025(18) 0.96451(25) 0.55676(3)
H42_3 H 0.5838 0.9597 0.5519
C68_3 C 0.55504(17) 0.97429(24) 0.57101(3)
H43_3 H 0.5923 0.9757 0.5756
C69_3 C 0.52076(15) 0.92152(21) 0.51430(3)
C70_3 C 0.42787(15) 0.93480(21) 0.51425(3)
C71_3 C 0.48666(15) 0.94901(21) 0.53429(3)
N12_3 N 0.25466(12) 0.91414(17) 0.49113(2)
N13_3 N 0.50903(13) 0.98184(18) 0.57853(3)
N15_3 N 0.46975(13) 0.92072(18) 0.50693(3)
N16_3 N 0.43324(13) 0.94951(18) 0.52797(3)
N17_3 N 0.53269(13) 0.93645(18) 0.52787(3)
Ni5_3 Ni 0.516415(17) 0.991543(24) 0.600306(3)
Ni6_3 Ni 0.467953(18) 0.905414(25) 0.632740(4)
O28_3 O 0.19416(11) 0.96746(15) 0.47018(2)
O30_3 O 0.12460(12) 0.91045(16) 0.49707(2)
O32_3 O 0.19174(10) 0.84279(14) 0.46310(2)
O35_3 O 0.42081(17) 0.81892(25) 0.64565(3)
O36_3 O 0.51882(10) 0.99882(14) 0.621605(19)
N22_2 N 0.12975(22) 0.78297(18) 0.49147(2)
Ni16_2 Ni 0.229205(18) 0.801286(18) 0.700593(4)
O38_3 O 0.55114(12) 0.93961(17) 0.64596(2)
O40_3 O 0.38090(20) 0.86318(16) 0.62094(2)
O42_3 O 0.41294(21) 0.92752(17) 0.60132(2)
O44_3 O 0.50512(12) 0.85530(16) 0.62059(2)
O46_3 O 0.54245(13) 0.91694(17) 0.60068(2)
H67_3 H 0.154667 0.96122 0.497993
H68_3 H 0.0764093 0.899259 0.495218
H69_3 H 0.204984 0.80846 0.466088
H70_3 H 0.153611 0.821351 0.456152
C46_5 C 0.05987(19) 0.33847(28) 0.68761(4)
C47_5 C 0.02636(19) 0.37586(28) 0.66555(4)
H29_5 H 0.0674 0.4179 0.6662
C48_5 C 0.0106(2) 0.3256(3) 0.67574(4)
O19_5 O 0.11553(12) 0.39372(17) 0.68737(2)
O20_5 O 0.04125(14) 0.29148(23) 0.69679(3)
O22_4 O 0.05097(17) 0.47698(21) 0.64572(2)
C54_4 C 0.12997(23) 0.72944(29) 0.48547(3)
H32_4 H 0.1421 0.7329 0.4760
C55_4 C 0.11318(25) 0.66896(31) 0.49243(3)
H33_4 H 0.1136 0.6327 0.4877
C56_4 C 0.09580(21) 0.66276(26) 0.50647(3)
C57_4 C 0.09514(24) 0.71791(29) 0.51287(3)
H34_4 H 0.0829 0.7155 0.5223
C58_4 C 0.11286(24) 0.77633(29) 0.50514(3)
H35_4 H 0.1132 0.8134 0.5096
C59_4 C 0.09482(22) 0.39873(27) 0.48511(3)
H36_4 H 0.1069 0.4060 0.4756
C60_4 C 0.08716(22) 0.44775(27) 0.49213(3)
H37_4 H 0.0938 0.4872 0.4875
C61_4 C 0.06930(22) 0.43774(27) 0.50633(3)
C62_4 C 0.05721(23) 0.37649(29) 0.51246(3)
H38_4 H 0.0439 0.3672 0.5218
C63_4 C 0.06514(23) 0.32982(29) 0.50457(3)
H39_4 H 0.0557 0.2884 0.5087
C64_4 C 0.01926(23) 0.47551(28) 0.57162(3)
H40_4 H 0.0131 0.4373 0.5767
C65_4 C 0.02917(23) 0.47637(28) 0.55733(3)
H41_4 H 0.0299 0.4396 0.5529
C66_4 C 0.03816(23) 0.53323(28) 0.54962(3)
C67_4 C 0.03549(25) 0.58573(31) 0.55676(3)
H42_4 H 0.0403 0.6240 0.5519
C68_4 C 0.02571(24) 0.58074(29) 0.57101(3)
H43_4 H 0.0243 0.6165 0.5756
C69_4 C 0.07848(21) 0.59923(26) 0.51430(3)
C70_4 C 0.06520(21) 0.49306(26) 0.51425(3)
C71_4 C 0.05099(21) 0.53764(26) 0.53429(3)
N12_4 N 0.08586(17) 0.34051(21) 0.49113(2)
N13_4 N 0.01816(18) 0.52718(22) 0.57853(3)
N15_4 N 0.07928(18) 0.54902(22) 0.50693(3)
N16_4 N 0.05049(18) 0.48372(22) 0.52797(3)
N17_4 N 0.06355(18) 0.59623(22) 0.52787(3)
Ni5_4 Ni 0.008457(24) 0.524871(29) 0.600306(3)
Ni6_4 Ni 0.094586(25) 0.562538(31) 0.632740(4)
O28_4 O 0.03254(15) 0.22669(19) 0.47018(2)
O30_4 O 0.08955(16) 0.21414(20) 0.49707(2)
O32_4 O 0.15721(14) 0.34894(17) 0.46310(2)
O35_4 O 0.18108(25) 0.60188(30) 0.64565(3)
O36_4 O 0.00118(14) 0.51999(17) 0.621605(19)
O38_4 O 0.06039(17) 0.61152(21) 0.64596(2)
O40_4 O 0.13682(16) 0.51773(26) 0.62094(2)
O42_4 O 0.07248(17) 0.48543(27) 0.60132(2)
O44_4 O 0.14470(16) 0.64983(20) 0.62059(2)
O46_4 O 0.08306(17) 0.62552(21) 0.60068(2)
H67_4 H 0.0387798 0.193447 0.497993
H68_4 H 0.100741 0.17715 0.495218
H69_4 H 0.19154 0.396524 0.466088
H70_4 H 0.178649 0.33226 0.456152
C28_5 C 0.6561(2) 0.0077(3) 0.65759(4)
C29_5 C 0.7180(2) 0.0696(4) 0.65846(4)
H17_5 H 0.7297 0.1028 0.6515
C30_5 C 0.7624(2) 0.0824(4) 0.66958(5)
C34_5 C 0.7467(4) 0.0317(5) 0.67960(4)
H18_5 H 0.7776 0.0396 0.6869
N9_5 N 0.8273(2) 0.1446(4) 0.67135(4)
O4_5 O 0.62542(14) 0.04185(23) 0.63654(3)
C49_5 C 0.9487(2) 0.2637(4) 0.67487(4)
H30_5 H 0.9370 0.2305 0.6818
C50_5 C 0.9043(2) 0.2509(4) 0.66375(5)
N11_5 N 0.8394(2) 0.1887(4) 0.66198(4)
C51_5 C 0.99876(27) 0.41996(34) 0.64357(4)
C52_5 C 0.98100(28) 0.36370(34) 0.65442(4)
C53_5 C 0.9200(4) 0.3016(5) 0.65373(4)
H31_5 H 0.8891 0.2937 0.6464
O21_5 O 0.95880(22) 0.40345(28) 0.63315(3)
C72_4 C 0.86601(21) 0.33675(26) 0.39157(3)
C73_4 C 0.81418(22) 0.26784(27) 0.39757(3)
C74_4 C 0.83006(25) 0.24439(31) 0.40973(4)
H44_4 H 0.8728 0.2708 0.4140
C75_4 C 0.78165(27) 0.18101(34) 0.41550(4)
C76_4 C 0.71817(25) 0.14259(31) 0.40923(4)
H45_4 H 0.6860 0.1006 0.4132
C77_4 C 0.70101(22) 0.16488(27) 0.39713(3)
C78_4 C 0.74949(22) 0.22692(27) 0.39125(3)
H46_4 H 0.7390 0.2417 0.3829
C79_4 C 0.62911(26) 0.12106(30) 0.39108(3)
C80_4 C 0.9308(6) 0.5980(7) 0.60500(9)
H47_4 H 0.9671 0.6242 0.6111
C81_4 C 0.8231(8) 0.5701(10) 0.59560(13)
H48_4 H 0.8315 0.5922 0.5866
H49_4 H 0.7813 0.5651 0.5995
H50_4 H 0.8187 0.5254 0.5945
C82_4 C 0.98313(25) 0.17152(31) 0.47352(3)
C84_4 C 0.80920(25) 0.03995(31) 0.45960(4)
C85_4 C 0.86802(24) 0.07164(29) 0.46736(3)
H51_4 H 0.8742 0.0477 0.4747
C86_4 C 0.91828(23) 0.13770(28) 0.46463(3)
C87_4 C 0.91044(24) 0.17402(30) 0.45357(4)
H52_4 H 0.9446 0.2190 0.4515
C88_4 C 0.84946(25) 0.14094(31) 0.44548(3)
C89_4 C 0.79935(25) 0.07304(31) 0.44889(4)
H53_4 H 0.7589 0.0507 0.4436
C90_4 C 0.8773(9) 0.6621(11) 0.61417(14)
H54_4 H 0.8319 0.6427 0.6181
H55_4 H 0.8876 0.7027 0.6089
H56_4 H 0.9106 0.6740 0.6215
N18_4 N 0.84528(23) 0.18025(29) 0.43392(4)
N19_4 N 0.79054(26) 0.14790(33) 0.42773(4)
N20_4 N 0.8799(6) 0.6115(7) 0.60484(10)
O23_4 O 0.61910(20) 0.13682(23) 0.37906(2)
O24_4 O 0.58706(21) 0.07248(25) 0.39868(2)
O25_4 O 0.85530(16) 0.35017(20) 0.37941(2)
O26_4 O 0.91694(17) 0.37448(21) 0.39932(2)
O27_4 O 0.97979(25) 0.13903(31) 0.48463(3)
O33_4 O 0.92367(18) 0.42535(23) 0.59890(2)
O34_4 O 0.93538(20) 0.55582(24) 0.59813(3)
H71_4 H 0.938025 0.394385 0.594441
H72_4 H 0.905491 0.408101 0.608468
C26_5 C 0.60680(19) 0.99486(28) 0.64572(4)
C27_5 C 0.64031(19) 0.95747(28) 0.66778(4)
H16_5 H 0.5993 0.9154 0.6671
C32_5 C 0.66791(27) 0.91337(34) 0.68976(4)
C33_5 C 0.68567(28) 0.96963(34) 0.67891(4)
O1_5 O 0.70787(22) 0.92988(28) 0.70018(3)
O2_5 O 0.61570(17) 0.85635(21) 0.68761(2)
C83_4 C 0.75502(27) 0.96418(34) 0.46273(4)
O29_4 O 0.70122(22) 0.93712(28) 0.45555(3)
Ni17_4 Ni 0.572081(25) 0.770795(31) 0.700593(4)
C26_6 C 0.00514(28) 0.6119(2) 0.64572(4)
C27_6 C 0.04253(28) 0.6828(2) 0.66778(4)
H16_6 H 0.0846 0.6838 0.6671
C32_6 C 0.08663(34) 0.7545(2) 0.68976(4)
C33_6 C 0.03037(34) 0.7160(2) 0.67891(4)
O1_6 O 0.07012(28) 0.77798(18) 0.70018(3)
O2_6 O 0.14365(21) 0.75934(13) 0.68761(2)
C28_6 C 0.9923(3) 0.6483(2) 0.65759(4)
C29_6 C 0.9304(4) 0.6483(3) 0.65846(4)
H17_6 H 0.8972 0.6268 0.6515
C30_6 C 0.9176(4) 0.6799(3) 0.66958(5)
C34_6 C 0.9683(5) 0.7149(3) 0.67960(4)
H18_6 H 0.9604 0.7379 0.6869
N9_6 N 0.8554(4) 0.6826(3) 0.67135(4)
O4_6 O 0.95815(23) 0.58356(18) 0.63654(3)
C46_6 C 0.66153(28) 0.7214(2) 0.68761(4)
C47_6 C 0.62414(28) 0.6505(2) 0.66555(4)
H29_6 H 0.5821 0.6495 0.6662
C48_6 C 0.6744(3) 0.6850(2) 0.67574(4)
C49_6 C 0.7363(4) 0.6850(3) 0.67487(4)
H30_6 H 0.7695 0.7065 0.6818
C50_6 C 0.7491(4) 0.6534(3) 0.66375(5)
N11_6 N 0.8113(4) 0.6507(3) 0.66198(4)
O19_6 O 0.60628(17) 0.72181(12) 0.68737(2)
O20_6 O 0.70852(23) 0.74977(18) 0.69679(3)
C51_6 C 0.58004(34) 0.5788(2) 0.64357(4)
C52_6 C 0.63630(34) 0.6173(2) 0.65442(4)
C53_6 C 0.6984(5) 0.6184(3) 0.65373(4)
H31_6 H 0.7063 0.5954 0.6464
O21_6 O 0.59655(28) 0.55535(18) 0.63315(3)
C6_3 C 0.26793(15) 0.02942(16) 0.81845(3)
H5_3 H 0.2606 0.0342 0.8090
C9_3 C 0.29017(16) 0.01405(17) 0.84580(3)
H7_3 H 0.2994 0.0100 0.8552
C10_3 C 0.33684(15) 0.06865(17) 0.83791(3)
H8_3 H 0.3782 0.1006 0.8421
C37_3 C 0.49514(17) 0.14494(18) 0.80686(3)
C38_3 C 0.70248(18) 0.1242(2) 0.79607(4)
C39_3 C 0.62671(17) 0.10258(18) 0.79294(4)
C40_3 C 0.59502(17) 0.12971(17) 0.80070(3)
H23_3 H 0.6189 0.1598 0.8081
C41_3 C 0.52896(17) 0.11391(16) 0.79797(3)
C42_3 C 0.49264(16) 0.06975(18) 0.78691(4)
H24_3 H 0.4476 0.0589 0.7849
C43_3 C 0.52572(18) 0.04185(18) 0.77882(3)
C44_3 C 0.59362(17) 0.05964(18) 0.78223(4)
H25_3 H 0.6159 0.0415 0.7770
N1_3 N 0.32615(12) 0.07868(12) 0.82447(2)
Ni1_3 Ni 0.383170(17) 0.174386(18) 0.813987(3)
O9_3 O 0.52763(16) 0.17409(19) 0.81797(3)
O10_3 O 0.43997(10) 0.13918(11) 0.80352(2)
O11_3 O 0.72954(14) 0.09743(17) 0.78889(3)
O12_3 O 0.45252(10) 0.20874(12) 0.83041(2)
O13_3 O 0.73026(10) 0.16714(15) 0.80530(2)
O14_3 O 0.31772(10) 0.14160(10) 0.79644(2)
N21_3 N 0.31989(12) 0.20359(22) 0.82481(2)
Ni8_3 Ni 0.825614(18) 0.208785(25) 0.813987(3)
O48_3 O 0.43687(18) 0.26974(10) 0.80530(2)
H57_3 H 0.473219 0.178666 0.831327
H58_3 H 0.489517 0.256924 0.828551
H63_3 H 0.270143 0.128349 0.799421
H64_3 H 0.334406 0.179722 0.789486
H2_3 H 0.0339 0.8142 0.8211
C3_3 C 0.00390(15) 0.76637(15) 0.83981(3)
C7_3 C 0.21891(15) 0.97274(16) 0.82547(3)
H6_3 H 0.1794 0.9399 0.8209
C8_3 C 0.22892(15) 0.96489(16) 0.83967(3)
C11_3 C 0.19115(16) 0.87708(16) 0.90496(3)
H9_3 H 0.2293 0.9091 0.9101
C12_3 C 0.19029(16) 0.88613(16) 0.89067(3)
H10_3 H 0.2270 0.9236 0.8863
C13_3 C 0.13343(16) 0.83826(16) 0.88296(3)
C14_3 C 0.08093(17) 0.78309(18) 0.89010(3)
H11_3 H 0.0426 0.7496 0.8853
C15_3 C 0.08592(17) 0.77830(17) 0.90435(3)
H12_3 H 0.0501 0.7411 0.9090
C16_3 C 0.06743(15) 0.81258(15) 0.84764(3)
C17_3 C 0.17360(15) 0.90547(15) 0.84759(3)
C18_3 C 0.12902(15) 0.84668(15) 0.86763(3)
C19_3 C 0.32991(15) 0.86259(15) 0.72491(3)
C20_3 C 0.39882(15) 0.87967(16) 0.73091(3)
C21_3 C 0.42227(17) 0.91900(18) 0.74307(4)
H13_3 H 0.3958 0.9353 0.7474
C22_3 C 0.48565(18) 0.9340(2) 0.74884(4)
C23_3 C 0.52407(17) 0.90891(19) 0.74257(4)
H14_3 H 0.5660 0.9187 0.7466
C24_3 C 0.50178(15) 0.86946(16) 0.73047(3)
C25_3 C 0.43974(15) 0.85590(16) 0.72459(3)
H15_3 H 0.4249 0.8306 0.7163
C26_7 C 0.0547(2) 0.72654(19) 0.97906(4)
C28_7 C 0.0183(2) 0.6773(2) 0.99093(4)
C29_7 C 0.0183(3) 0.6154(2) 0.99180(4)
H17_7 H 0.0398 0.6037 0.9849
C31_3 C 0.54560(21) 0.84138(15) 0.72442(3)
C35_3 C 0.0686(5) 0.6661(3) 0.93834(9)
H19_3 H 0.0424 0.6762 0.9445
C36_3 C 0.0965(6) 0.5863(6) 0.92894(13)
H20_3 H 0.0744 0.5726 0.9200
H21_3 H 0.1015 0.5495 0.9329
H22_3 H 0.1412 0.6266 0.9279
C45_3 C 0.0045(7) 0.5485(6) 0.94751(14)
H26_3 H 0.0239 0.5225 0.9515
N2_3 N 0.13948(12) 0.82431(13) 0.91187(3)
N4_3 N 0.11764(13) 0.86359(13) 0.84027(3)
N5_3 N 0.18294(13) 0.90010(13) 0.86131(3)
N6_3 N 0.07043(13) 0.80065(13) 0.86121(3)
N7_3 N 0.48641(15) 0.99836(17) 0.76726(4)
N8_3 N 0.51876(17) 0.9760(2) 0.76107(4)
N10_3 N 0.0551(5) 0.6017(4) 0.93818(10)
Ni2_3 Ni 0.141795(17) 0.816919(17) 0.933640(3)
Ni3_3 Ni 0.104128(18) 0.865381(18) 0.966074(4)
O3_3 O 0.05514(12) 0.78220(12) 0.97930(2)
O4_7 O 0.08310(18) 0.70792(14) 0.96988(3)
O5_3 O 0.52984(16) 0.81561(12) 0.71240(2)
O6_3 O 0.59418(17) 0.84791(13) 0.73202(2)
O7_3 O 0.31649(11) 0.83846(12) 0.71275(2)
O8_3 O 0.29218(11) 0.87579(13) 0.73266(2)
O15_3 O 0.24131(12) 0.83165(14) 0.93224(2)
O16_3 O 0.11084(15) 0.71289(13) 0.93147(3)
O17_3 O 0.06478(19) 0.91253(17) 0.97899(3)
O18_3 O 0.14667(10) 0.81452(10) 0.954939(19)
C47_7 C 0.0162(2) 0.30697(19) 0.99888(4)
H29_7 H 0.0172 0.2659 0.9995
C50_7 C 0.0133(3) 0.4290(2) 0.99708(5)
N11_7 N 0.0160(3) 0.4939(2) 0.99531(4)
C51_7 C 0.0879(2) 0.33457(27) 0.97690(4)
C52_7 C 0.0494(2) 0.35233(28) 0.98775(4)
C53_7 C 0.0483(3) 0.4133(4) 0.98706(4)
H31_7 H 0.0713 0.4442 0.9797
O21_7 O 0.11132(18) 0.37453(22) 0.96648(3)
O22_5 O 0.09268(13) 0.28236(17) 0.97905(2)
C54_5 C 0.26614(17) 0.20337(23) 0.81881(3)
H32_5 H 0.2575 0.1913 0.8094
C55_5 C 0.22245(18) 0.22016(25) 0.82577(3)
H33_5 H 0.1858 0.2198 0.8211
C56_5 C 0.23363(15) 0.23754(21) 0.83981(3)
C57_5 C 0.28944(17) 0.23820(24) 0.84621(3)
H34_5 H 0.2993 0.2505 0.8557
C58_5 C 0.33014(17) 0.22048(24) 0.83848(3)
H35_5 H 0.3669 0.2202 0.8430
C60_5 C 0.02726(16) 0.24618(22) 0.82547(3)
H37_5 H 0.0601 0.2396 0.8209
C61_5 C 0.03511(16) 0.26404(22) 0.83967(3)
C64_5 C 0.12292(16) 0.31408(23) 0.90496(3)
H40_5 H 0.0909 0.3203 0.9101
C65_5 C 0.11387(16) 0.30417(23) 0.89067(3)
H41_5 H 0.0764 0.3035 0.8863
C66_5 C 0.16174(16) 0.29518(23) 0.88296(3)
C67_5 C 0.21691(18) 0.29785(25) 0.89010(3)
H42_5 H 0.2504 0.2931 0.8853
C68_5 C 0.22170(17) 0.30763(24) 0.90435(3)
H43_5 H 0.2589 0.3091 0.9090
C69_5 C 0.18742(15) 0.25486(21) 0.84764(3)
C70_5 C 0.09453(15) 0.26814(21) 0.84759(3)
C71_5 C 0.15332(15) 0.28235(21) 0.86763(3)
C72_5 C 0.13741(15) 0.46733(21) 0.72491(3)
C73_5 C 0.12033(16) 0.51916(22) 0.73091(3)
C74_5 C 0.08100(18) 0.50328(25) 0.74307(4)
H44_5 H 0.0647 0.4606 0.7474
C75_5 C 0.0660(2) 0.55169(27) 0.74884(4)
C76_5 C 0.09109(19) 0.61517(25) 0.74257(4)
H45_5 H 0.0813 0.6474 0.7466
C77_5 C 0.13054(16) 0.63233(22) 0.73047(3)
C78_5 C 0.14410(16) 0.58385(22) 0.72459(3)
H46_5 H 0.1694 0.5944 0.7163
C79_5 C 0.15862(15) 0.70423(26) 0.72442(3)
C80_5 C 0.3339(3) 0.4026(6) 0.93834(9)
H47_5 H 0.3238 0.3663 0.9445
C81_5 C 0.4137(6) 0.5103(8) 0.92894(13)
H48_5 H 0.4274 0.5019 0.9200
H49_5 H 0.4505 0.5521 0.9329
H50_5 H 0.3734 0.5147 0.9279
C90_5 C 0.4515(6) 0.4561(9) 0.94751(14)
H54_5 H 0.4775 0.5015 0.9515
H55_5 H 0.4818 0.4458 0.9423
H56_5 H 0.4301 0.4228 0.9549
N13_5 N 0.17569(13) 0.31518(18) 0.91187(3)
N15_5 N 0.13641(13) 0.25406(18) 0.84027(3)
N16_5 N 0.09990(13) 0.28285(18) 0.86131(3)
N17_5 N 0.19935(13) 0.26979(18) 0.86121(3)
N18_5 N 0.00164(17) 0.48806(23) 0.76726(4)
N19_5 N 0.0240(2) 0.54280(26) 0.76107(4)
N20_5 N 0.3983(4) 0.4535(6) 0.93818(10)
Ni5_5 Ni 0.183081(17) 0.324877(24) 0.933640(3)
Ni6_5 Ni 0.134619(18) 0.238748(25) 0.966074(4)
O23_5 O 0.18439(12) 0.71424(20) 0.71240(2)
O24_5 O 0.15209(13) 0.74628(21) 0.73202(2)
O25_5 O 0.16154(12) 0.47804(16) 0.71275(2)
O26_5 O 0.12421(13) 0.41640(17) 0.73266(2)
O33_5 O 0.16835(14) 0.40967(18) 0.93224(2)
O34_5 O 0.28711(13) 0.39796(20) 0.93147(3)
O35_5 O 0.08747(17) 0.15226(25) 0.97899(3)
O36_5 O 0.18548(10) 0.33216(14) 0.954939(19)
Ni10_3 Ni 0.191538(17) 0.849748(17) 0.733027(3)
Ni11_3 Ni 0.150252(17) 0.341790(24) 0.733027(3)
Ni12_3 Ni 0.658210(24) 0.808462(17) 0.733027(3)
O37_3 O 0.18969(21) 0.90732(13) 0.97905(2)
O38_5 O 0.21780(12) 0.27295(17) 0.97930(2)
O39_3 O 0.14894(12) 0.95243(20) 0.95427(2)
O40_5 O 0.04757(20) 0.19651(16) 0.95427(2)
O41_3 O 0.18124(13) 0.92039(21) 0.93465(2)
O42_5 O 0.07961(21) 0.26085(17) 0.93465(2)
O43_3 O 0.01684(11) 0.82821(12) 0.95392(2)
O44_5 O 0.17179(12) 0.18863(16) 0.95392(2)
O45_3 O 0.04115(11) 0.79088(13) 0.93401(2)
O46_5 O 0.20912(13) 0.25027(17) 0.93401(2)
H61_3 H 0.272282 0.876974 0.927774
H62_3 H 0.258565 0.830723 0.941802
H71_5 H 0.123026 0.395308 0.927774
H72_5 H 0.169277 0.427842 0.941802
C27_7 C 0.9838(2) 0.69303(19) 0.00112(4)
H16_7 H 0.9828 0.7341 0.0005
C30_7 C 0.9867(3) 0.5710(2) 0.00292(5)
C32_7 C 0.9121(2) 0.66543(27) 0.02310(4)
C33_7 C 0.9506(2) 0.64767(28) 0.01225(4)
C34_7 C 0.9517(3) 0.5867(4) 0.01294(4)
H18_7 H 0.9287 0.5558 0.0203
N9_7 N 0.9840(3) 0.5061(2) 0.00469(4)
O1_7 O 0.88868(18) 0.62547(22) 0.03352(3)
O2_7 O 0.90732(13) 0.71764(17) 0.02095(2)
C46_7 C 0.9453(2) 0.27346(19) 0.02094(4)
C48_7 C 0.9817(2) 0.3227(2) 0.00907(4)
C49_7 C 0.9817(3) 0.3846(2) 0.00820(4)
H30_7 H 0.9602 0.3963 0.0151
O19_7 O 0.94486(12) 0.21780(12) 0.02070(2)
O20_7 O 0.91690(18) 0.29208(14) 0.03012(3)
C1_3 C 0.93722(16) 0.73386(17) 0.81881(3)
H1_3 H 0.9337 0.7425 0.8094
C2_3 C 0.99770(17) 0.77755(18) 0.82577(3)
C4_3 C 0.94875(17) 0.71056(17) 0.84621(3)
H3_3 H 0.9511 0.7007 0.8557
C5_3 C 0.89033(17) 0.66986(17) 0.83848(3)
H4_3 H 0.8532 0.6331 0.8430
H27_3 H 0.9639 0.5182 0.9423
H28_3 H 0.9926 0.5699 0.9549
N3_3 N 0.88369(18) 0.68011(12) 0.82481(2)
C59_5 C 0.97058(16) 0.23852(22) 0.81845(3)
H36_5 H 0.9658 0.2265 0.8090
C62_5 C 0.98595(17) 0.27613(23) 0.84580(3)
H38_5 H 0.9900 0.2895 0.8552
C63_5 C 0.93135(17) 0.26820(23) 0.83791(3)
H39_5 H 0.8994 0.2777 0.8421
C82_5 C 0.85506(18) 0.35021(25) 0.80686(3)
C83_5 C 0.8758(2) 0.57832(27) 0.79607(4)
C84_5 C 0.89742(18) 0.52414(25) 0.79294(4)
C85_5 C 0.87029(17) 0.46532(24) 0.80070(3)
H51_5 H 0.8402 0.4592 0.8081
C86_5 C 0.88609(16) 0.41506(23) 0.79797(3)
C87_5 C 0.93025(18) 0.42290(24) 0.78691(4)
H52_5 H 0.9411 0.3888 0.7849
C88_5 C 0.95815(18) 0.48388(25) 0.77882(3)
C89_5 C 0.94036(18) 0.53399(25) 0.78223(4)
H53_5 H 0.9585 0.5745 0.7770
N12_5 N 0.92132(12) 0.24748(17) 0.82447(2)
O27_5 O 0.82591(19) 0.35355(25) 0.81797(3)
O28_5 O 0.86082(11) 0.30080(15) 0.80352(2)
O29_5 O 0.90257(17) 0.63212(22) 0.78889(3)
O30_5 O 0.79126(12) 0.24379(16) 0.83041(2)
O31_3 O 0.83286(15) 0.56313(18) 0.80530(2)
O32_5 O 0.85840(10) 0.17613(14) 0.79644(2)
N22_3 N 0.79641(22) 0.11631(18) 0.82481(2)
Ni9_3 Ni 0.791215(25) 0.616830(17) 0.813987(3)
H67_5 H 0.821334 0.294553 0.831327
H68_5 H 0.743076 0.232593 0.828551
H69_5 H 0.871651 0.141794 0.799421
H70_5 H 0.820278 0.154684 0.789486
C54_6 C 0.79663(23) 0.06278(29) 0.81881(3)
H32_6 H 0.8087 0.0663 0.8094
C55_6 C 0.77984(25) 0.00230(31) 0.82577(3)
C57_6 C 0.76180(24) 0.05125(29) 0.84621(3)
H34_6 H 0.7495 0.0489 0.8557
C58_6 C 0.77952(24) 0.10967(29) 0.83848(3)
H35_6 H 0.7798 0.1468 0.8430
H55_6 H 0.5542 0.0361 0.9423
H56_6 H 0.5772 0.0074 0.9549
C27_8 C 0.30697(19) 0.29081(28) 0.00112(4)
H16_8 H 0.2659 0.2488 0.0005
C30_8 C 0.4290(2) 0.4158(4) 0.00292(5)
C32_8 C 0.33457(27) 0.24671(34) 0.02310(4)
C33_8 C 0.35233(28) 0.30297(34) 0.01225(4)
C34_8 C 0.4133(4) 0.3651(5) 0.01294(4)
H18_8 H 0.4442 0.3730 0.0203
N9_8 N 0.4939(2) 0.4780(4) 0.00469(4)
O1_8 O 0.37453(22) 0.26322(28) 0.03352(3)
O2_8 O 0.28236(17) 0.18969(21) 0.02095(2)
C46_8 C 0.72654(19) 0.67180(28) 0.02094(4)
C48_8 C 0.6773(2) 0.6589(3) 0.00907(4)
C49_8 C 0.6154(2) 0.5970(4) 0.00820(4)
H30_8 H 0.6037 0.5638 0.0151
O19_8 O 0.78220(12) 0.72705(17) 0.02070(2)
O20_8 O 0.70792(14) 0.62481(23) 0.03012(3)
C26_8 C 0.27346(19) 0.32820(28) 0.97906(4)
C28_8 C 0.3227(2) 0.3411(3) 0.99093(4)
C29_8 C 0.3846(2) 0.4030(4) 0.99180(4)
H17_8 H 0.3963 0.4362 0.9849
O4_8 O 0.29208(14) 0.37519(23) 0.96988(3)
C47_8 C 0.69303(19) 0.70919(28) 0.99888(4)
H29_8 H 0.7341 0.7512 0.9995
C50_8 C 0.5710(2) 0.5842(4) 0.99708(5)
N11_8 N 0.5061(2) 0.5220(4) 0.99531(4)
C51_8 C 0.66543(27) 0.75329(34) 0.97690(4)
C52_8 C 0.64767(28) 0.69703(34) 0.98775(4)
C53_8 C 0.5867(4) 0.6349(5) 0.98706(4)
H31_8 H 0.5558 0.6270 0.9797
O21_8 O 0.62547(22) 0.73678(28) 0.96648(3)
O22_6 O 0.71764(17) 0.81031(21) 0.97905(2)
H33_6 H 0.7802 0.9661 0.8211
C56_6 C 0.76246(21) 0.99610(26) 0.83981(3)
C59_6 C 0.76148(22) 0.73207(27) 0.81845(3)
H36_6 H 0.7735 0.7394 0.8090
C60_6 C 0.75382(22) 0.78109(27) 0.82547(3)
H37_6 H 0.7604 0.8206 0.8209
C61_6 C 0.73596(22) 0.77108(27) 0.83967(3)
C62_6 C 0.72387(23) 0.70983(29) 0.84580(3)
H38_6 H 0.7105 0.7006 0.8552
C63_6 C 0.73180(23) 0.66316(29) 0.83791(3)
H39_6 H 0.7223 0.6218 0.8421
C64_6 C 0.68592(23) 0.80885(28) 0.90496(3)
H40_6 H 0.6797 0.7707 0.9101
C65_6 C 0.69583(23) 0.80971(28) 0.89067(3)
H41_6 H 0.6965 0.7730 0.8863
C66_6 C 0.70482(23) 0.86657(28) 0.88296(3)
C67_6 C 0.70215(25) 0.91907(31) 0.89010(3)
H42_6 H 0.7069 0.9574 0.8853
C68_6 C 0.69237(24) 0.91408(29) 0.90435(3)
H43_6 H 0.6909 0.9499 0.9090
C69_6 C 0.74514(21) 0.93257(26) 0.84764(3)
C70_6 C 0.73186(21) 0.82640(26) 0.84759(3)
C71_6 C 0.71765(21) 0.87098(26) 0.86763(3)
C72_6 C 0.53267(21) 0.67009(26) 0.72491(3)
C73_6 C 0.48084(22) 0.60118(27) 0.73091(3)
C74_6 C 0.49672(25) 0.57773(31) 0.74307(4)
H44_6 H 0.5394 0.6042 0.7474
C75_6 C 0.44831(27) 0.51435(34) 0.74884(4)
C76_6 C 0.38483(25) 0.47593(31) 0.74257(4)
H45_6 H 0.3526 0.4340 0.7466
C77_6 C 0.36767(22) 0.49822(27) 0.73047(3)
C78_6 C 0.41615(22) 0.56026(27) 0.72459(3)
H46_6 H 0.4056 0.5751 0.7163
C79_6 C 0.29577(26) 0.45440(30) 0.72442(3)
C80_6 C 0.5974(6) 0.9314(7) 0.93834(9)
H47_6 H 0.6337 0.9576 0.9445
C81_6 C 0.4897(8) 0.9035(10) 0.92894(13)
H48_6 H 0.4981 0.9256 0.9200
H49_6 H 0.4479 0.8985 0.9329
H50_6 H 0.4853 0.8588 0.9279
C82_6 C 0.64979(25) 0.50486(31) 0.80686(3)
C83_6 C 0.42168(27) 0.29752(34) 0.79607(4)
C84_6 C 0.47586(25) 0.37329(31) 0.79294(4)
C85_6 C 0.53468(24) 0.40498(29) 0.80070(3)
H51_6 H 0.5408 0.3811 0.8081
C86_6 C 0.58494(23) 0.47104(28) 0.79797(3)
C87_6 C 0.57710(24) 0.50736(30) 0.78691(4)
H52_6 H 0.6112 0.5524 0.7849
C88_6 C 0.51612(25) 0.47428(31) 0.77882(3)
C89_6 C 0.46601(25) 0.40638(31) 0.78223(4)
H53_6 H 0.4255 0.3841 0.7770
C90_6 C 0.5439(9) 0.9955(11) 0.94751(14)
H54_6 H 0.4985 0.9761 0.9515
N12_6 N 0.75252(17) 0.67385(21) 0.82447(2)
N13_6 N 0.68482(18) 0.86052(22) 0.91187(3)
N15_6 N 0.74594(18) 0.88236(22) 0.84027(3)
N16_6 N 0.71715(18) 0.81706(22) 0.86131(3)
N17_6 N 0.73021(18) 0.92957(22) 0.86121(3)
N18_6 N 0.51194(23) 0.51359(29) 0.76726(4)
N19_6 N 0.45720(26) 0.48124(33) 0.76107(4)
N20_6 N 0.5465(6) 0.9449(7) 0.93818(10)
Ni5_6 Ni 0.675123(24) 0.858205(29) 0.933640(3)
Ni6_6 Ni 0.761252(25) 0.895872(31) 0.966074(4)
O23_6 O 0.28576(20) 0.47016(23) 0.71240(2)
O24_6 O 0.25372(21) 0.40582(25) 0.73202(2)
O25_6 O 0.52196(16) 0.68351(20) 0.71275(2)
O26_6 O 0.58360(17) 0.70782(21) 0.73266(2)
O27_6 O 0.64645(25) 0.47237(31) 0.81797(3)
O28_6 O 0.69920(15) 0.56003(19) 0.80352(2)
O29_6 O 0.36788(22) 0.27046(28) 0.78889(3)
O30_6 O 0.75621(16) 0.54748(20) 0.83041(2)
O32_6 O 0.82387(14) 0.68228(17) 0.79644(2)
O33_6 O 0.59033(18) 0.75869(23) 0.93224(2)
O34_6 O 0.60204(20) 0.88916(24) 0.93147(3)
O35_6 O 0.84774(25) 0.93522(30) 0.97899(3)
O36_6 O 0.66784(14) 0.85333(17) 0.954939(19)
O38_6 O 0.72705(17) 0.94486(21) 0.97930(2)
O40_6 O 0.80349(16) 0.85106(26) 0.95427(2)
O42_6 O 0.73915(17) 0.81876(27) 0.93465(2)
O44_6 O 0.81137(16) 0.98316(20) 0.95392(2)
O46_6 O 0.74973(17) 0.95885(21) 0.93401(2)
H67_6 H 0.705447 0.526781 0.831327
H68_6 H 0.767407 0.510483 0.828551
H69_6 H 0.858206 0.729857 0.799421
H70_6 H 0.845316 0.665594 0.789486
H71_6 H 0.604692 0.727718 0.927774
H72_6 H 0.572158 0.741435 0.941802
C27_9 C 0.70919(28) 0.0162(2) 0.00112(4)
H16_9 H 0.7512 0.0172 0.0005
C30_9 C 0.5842(4) 0.0133(3) 0.00292(5)
C32_9 C 0.75329(34) 0.0879(2) 0.02310(4)
C33_9 C 0.69703(34) 0.0494(2) 0.01225(4)
C34_9 C 0.6349(5) 0.0483(3) 0.01294(4)
H18_9 H 0.6270 0.0713 0.0203
N9_9 N 0.5220(4) 0.0160(3) 0.00469(4)
O1_9 O 0.73678(28) 0.11132(18) 0.03352(3)
O2_9 O 0.81031(21) 0.09268(13) 0.02095(2)
C46_9 C 0.32820(28) 0.0547(2) 0.02094(4)
C48_9 C 0.3411(3) 0.0183(2) 0.00907(4)
C49_9 C 0.4030(4) 0.0183(3) 0.00820(4)
H30_9 H 0.4362 0.0398 0.0151
O19_9 O 0.27295(17) 0.05514(12) 0.02070(2)
O20_9 O 0.37519(23) 0.08310(18) 0.03012(3)
C26_9 C 0.67180(28) 0.9453(2) 0.97906(4)
C28_9 C 0.6589(3) 0.9817(2) 0.99093(4)
C29_9 C 0.5970(4) 0.9817(3) 0.99180(4)
H17_9 H 0.5638 0.9602 0.9849
O4_9 O 0.62481(23) 0.91690(18) 0.96988(3)
C47_9 C 0.29081(28) 0.9838(2) 0.99888(4)
H29_9 H 0.2488 0.9828 0.9995
C50_9 C 0.4158(4) 0.9867(3) 0.99708(5)
N11_9 N 0.4780(4) 0.9840(3) 0.99531(4)
C51_9 C 0.24671(34) 0.9121(2) 0.97690(4)
C52_9 C 0.30297(34) 0.9506(2) 0.98775(4)
C53_9 C 0.3651(5) 0.9517(3) 0.98706(4)
H31_9 H 0.3730 0.9287 0.9797
O21_9 O 0.26322(28) 0.88868(18) 0.96648(3)
H4_4 H 0.4801 0.0336 0.8237
C35_4 C 0.2647(5) 0.0006(3) 0.72833(9)
C36_4 C 0.2368(6) 0.0804(6) 0.73773(13)
H20_4 H 0.2589 0.0941 0.7467
H21_4 H 0.2318 0.1172 0.7338
H22_4 H 0.1921 0.0401 0.7388
C45_4 C 0.3288(7) 0.1182(6) 0.71916(14)
H26_4 H 0.3094 0.1442 0.7152
H27_4 H 0.3694 0.1485 0.7244
H28_4 H 0.3407 0.0968 0.7118
N10_4 N 0.2782(5) 0.0650(4) 0.72849(10)
C54_7 C 0.06719(17) 0.46330(23) 0.84786(3)
H32_7 H 0.0758 0.4754 0.8573
C55_7 C 0.11088(18) 0.44651(25) 0.84090(3)
H33_7 H 0.1475 0.4469 0.8456
C56_7 C 0.09970(15) 0.42913(21) 0.82686(3)
C57_7 C 0.04389(17) 0.42847(24) 0.82046(3)
H34_7 H 0.0340 0.4162 0.8110
C58_7 C 0.00319(17) 0.44619(24) 0.82819(3)
C59_7 C 0.36275(16) 0.42815(22) 0.84822(3)
H36_7 H 0.3675 0.4402 0.8577
C60_7 C 0.30607(16) 0.42049(22) 0.84120(3)
H37_7 H 0.2732 0.4271 0.8458
C61_7 C 0.29822(16) 0.40263(22) 0.82700(3)
C62_7 C 0.34738(17) 0.39054(23) 0.82087(3)
H38_7 H 0.3433 0.3772 0.8115
C63_7 C 0.40198(17) 0.39847(23) 0.82876(3)
H39_7 H 0.4339 0.3890 0.8246
C64_7 C 0.21041(16) 0.35259(23) 0.76171(3)
H40_7 H 0.2424 0.3464 0.7566
C65_7 C 0.21946(16) 0.36250(23) 0.77600(3)
H41_7 H 0.2569 0.3632 0.7804
C66_7 C 0.17159(16) 0.37149(23) 0.78371(3)
C67_7 C 0.11642(18) 0.36882(25) 0.77657(3)
H42_7 H 0.0829 0.3736 0.7814
C68_7 C 0.11163(17) 0.35904(24) 0.76232(3)
H43_7 H 0.0744 0.3576 0.7577
C69_7 C 0.14591(15) 0.41181(21) 0.81903(3)
C70_7 C 0.23880(15) 0.39853(21) 0.81908(3)
C71_7 C 0.18001(15) 0.38432(21) 0.79904(3)
C72_7 C 0.19592(15) 0.19934(21) 0.94176(3)
C73_7 C 0.21300(16) 0.14751(22) 0.93576(3)
C74_7 C 0.25233(18) 0.16339(25) 0.92360(4)
H44_7 H 0.2686 0.2061 0.9193
C75_7 C 0.2673(2) 0.11498(27) 0.91783(4)
C76_7 C 0.24224(19) 0.05150(25) 0.92410(4)
H45_7 H 0.2520 0.0193 0.9201
C77_7 C 0.20279(16) 0.03434(22) 0.93620(3)
C78_7 C 0.18923(16) 0.08282(22) 0.94208(3)
H46_7 H 0.1639 0.0723 0.9504
H47_7 H 0.0095 0.3004 0.7222
C82_7 C 0.47827(18) 0.31646(25) 0.85981(3)
C83_7 C 0.4575(2) 0.08835(27) 0.87060(4)
C84_7 C 0.43591(18) 0.14253(25) 0.87373(4)
C85_7 C 0.46304(17) 0.20135(24) 0.86597(3)
H51_7 H 0.4931 0.2075 0.8586
C86_7 C 0.44724(16) 0.25161(23) 0.86870(3)
C87_7 C 0.40308(18) 0.24377(24) 0.87976(4)
H52_7 H 0.3922 0.2779 0.8818
C88_7 C 0.37518(18) 0.18279(25) 0.88785(3)
C89_7 C 0.39297(18) 0.13268(25) 0.88444(4)
H53_7 H 0.3748 0.0922 0.8897
N12_7 N 0.41201(12) 0.41919(17) 0.84220(2)
N13_7 N 0.15764(13) 0.35149(18) 0.75480(3)
N14 N 0.01344(12) 0.46308(22) 0.84186(2)
N15_7 N 0.19692(13) 0.41261(18) 0.82640(3)
N16_7 N 0.23343(13) 0.38382(18) 0.80536(3)
N17_7 N 0.13398(13) 0.39688(18) 0.80546(3)
N18_7 N 0.33169(17) 0.17861(23) 0.89941(4)
N19_7 N 0.3093(2) 0.12387(26) 0.90560(4)
Ni4 Ni 0.507719(18) 0.457882(25) 0.852680(3)
O27_7 O 0.50742(19) 0.31312(25) 0.84870(3)
O28_7 O 0.47251(11) 0.36587(15) 0.86315(2)
O29_7 O 0.43076(17) 0.03455(22) 0.87778(3)
O30_7 O 0.54207(12) 0.42288(16) 0.83626(2)
O31_4 O 0.50047(15) 0.10354(18) 0.86137(2)
O32_7 O 0.47493(10) 0.49054(14) 0.87023(2)
O33_7 O 0.16498(14) 0.25700(18) 0.73443(2)
O34_7 O 0.04622(13) 0.26871(20) 0.73520(3)
O35_7 O 0.24586(17) 0.51441(25) 0.68768(3)
O36_7 O 0.14785(10) 0.33451(14) 0.711728(19)
N22_4 N 0.53692(22) 0.55036(18) 0.84186(2)
Ni9_4 Ni 0.542118(25) 0.049837(17) 0.852680(3)
O47 O 0.60307(10) 0.49953(15) 0.86137(2)
H67_7 H 0.511999 0.372113 0.83534
H68_7 H 0.590257 0.434074 0.838116
H69_7 H 0.461683 0.524873 0.867246
H70_7 H 0.513055 0.511982 0.877181
H71_7 H 0.210307 0.271359 0.738892
H72_7 H 0.164056 0.238824 0.724865
C1_4 C 0.39611(16) 0.93281(17) 0.84786(3)
H1_4 H 0.3996 0.9242 0.8573
C2_4 C 0.33563(17) 0.88912(18) 0.84090(3)
H2_4 H 0.2994 0.8525 0.8456
C3_4 C 0.32943(15) 0.90030(15) 0.82686(3)
C4_4 C 0.38458(17) 0.95611(17) 0.82046(3)
H3_4 H 0.3822 0.9660 0.8110
C5_4 C 0.44300(17) 0.99681(17) 0.82819(3)
C6_4 C 0.06540(15) 0.63725(16) 0.84822(3)
H5_4 H 0.0727 0.6325 0.8577
C7_4 C 0.11442(15) 0.69393(16) 0.84120(3)
H6_4 H 0.1539 0.7268 0.8458
C8_4 C 0.10441(15) 0.70178(16) 0.82700(3)
C9_4 C 0.04316(16) 0.65262(17) 0.82087(3)
H7_4 H 0.0339 0.6567 0.8115
C11_4 C 0.14218(16) 0.78959(16) 0.76171(3)
H9_4 H 0.1040 0.7576 0.7566
C12_4 C 0.14304(16) 0.78054(16) 0.77600(3)
H10_4 H 0.1063 0.7431 0.7804
C13_4 C 0.19990(16) 0.82841(16) 0.78371(3)
C14_4 C 0.25240(17) 0.88358(18) 0.77657(3)
H11_4 H 0.2907 0.9171 0.7814
C15_4 C 0.24741(17) 0.88837(17) 0.76232(3)
H12_4 H 0.2832 0.9256 0.7577
C16_4 C 0.26590(15) 0.85409(15) 0.81903(3)
C17_4 C 0.15973(15) 0.76120(15) 0.81908(3)
C18_4 C 0.20431(15) 0.81999(15) 0.79904(3)
C19_4 C 0.00342(15) 0.80408(15) 0.94176(3)
H19_4 H 0.2909 0.9905 0.7222
N1_4 N 0.00718(12) 0.58799(12) 0.84220(2)
N2_4 N 0.19385(12) 0.84236(13) 0.75480(3)
N3_4 N 0.44964(18) 0.98656(12) 0.84186(2)
N4_4 N 0.21569(13) 0.80308(13) 0.82640(3)
N5_4 N 0.15039(13) 0.76657(13) 0.80536(3)
N6_4 N 0.26290(13) 0.86602(13) 0.80546(3)
O14_4 O 0.01561(10) 0.52507(10) 0.87023(2)
O15_4 O 0.09202(12) 0.83502(14) 0.73443(2)
O16_4 O 0.22249(15) 0.95378(13) 0.73520(3)
O17_4 O 0.26855(19) 0.75414(17) 0.68768(3)
O18_4 O 0.18666(10) 0.85215(10) 0.711728(19)
C79_7 C 0.17471(15) 0.96244(26) 0.94225(3)
H61_4 H 0.0610514 0.789693 0.738892
H62_4 H 0.0747681 0.835944 0.724865
H63_4 H 0.0631903 0.538317 0.867246
H35_7 H 0.9664 0.4465 0.8237
C80_7 C 0.9994(3) 0.2641(6) 0.72833(9)
C81_7 C 0.9196(6) 0.1564(8) 0.73773(13)
H48_7 H 0.9059 0.1648 0.7467
H49_7 H 0.8828 0.1146 0.7338
H50_7 H 0.9599 0.1520 0.7388
C90_7 C 0.8818(6) 0.2106(9) 0.71916(14)
H54_7 H 0.8558 0.1652 0.7152
H55_7 H 0.8515 0.2209 0.7244
H56_7 H 0.9032 0.2439 0.7118
N20_7 N 0.9350(4) 0.2132(6) 0.72849(10)
Ni7 Ni 0.950163(17) 0.492281(18) 0.852680(3)
C10_4 C 0.99649(15) 0.59802(17) 0.82876(3)
H8_4 H 0.9551 0.5661 0.8246
C20_4 C 0.93451(15) 0.78700(16) 0.93576(3)
C21_4 C 0.91106(17) 0.74767(18) 0.92360(4)
H13_4 H 0.9375 0.7314 0.9193
C22_4 C 0.84768(18) 0.7327(2) 0.91783(4)
C23_4 C 0.80926(17) 0.75776(19) 0.92410(4)
H14_4 H 0.7673 0.7480 0.9201
C24_4 C 0.83155(15) 0.79721(16) 0.93620(3)
C25_4 C 0.89359(15) 0.81077(16) 0.94208(3)
H15_4 H 0.9084 0.8361 0.9504
C31_4 C 0.78773(21) 0.82529(15) 0.94225(3)
C37_4 C 0.83819(17) 0.52173(18) 0.85981(3)
C38_4 C 0.63085(18) 0.5425(2) 0.87060(4)
C39_4 C 0.70662(17) 0.56409(18) 0.87373(4)
C40_4 C 0.73831(17) 0.53696(17) 0.86597(3)
H23_4 H 0.7144 0.5069 0.8586
C41_4 C 0.80437(17) 0.55276(16) 0.86870(3)
C42_4 C 0.84069(16) 0.59692(18) 0.87976(4)
H24_4 H 0.8857 0.6078 0.8818
C43_4 C 0.80761(18) 0.62482(18) 0.88785(3)
C44_4 C 0.73971(17) 0.60703(18) 0.88444(4)
H25_4 H 0.7174 0.6252 0.8897
N7_4 N 0.84692(15) 0.66831(17) 0.89941(4)
N8_4 N 0.81457(17) 0.6907(2) 0.90560(4)
O9_4 O 0.80570(16) 0.49258(19) 0.84870(3)
O10_4 O 0.89336(10) 0.52749(11) 0.86315(2)
O11_4 O 0.60379(14) 0.56924(17) 0.87778(3)
O12_4 O 0.88081(10) 0.45793(12) 0.83626(2)
O48_4 O 0.89646(18) 0.39693(10) 0.86137(2)
H57_4 H 0.860114 0.488001 0.83534
H58_4 H 0.843817 0.409743 0.838116
H64_4 H 0.998927 0.486945 0.877181
C79_8 C 0.03756(26) 0.21227(30) 0.94225(3)
C63_8 C 0.60153(23) 0.00351(29) 0.82876(3)
H39_8 H 0.6110 0.0449 0.8246
C73_8 C 0.85249(22) 0.06549(27) 0.93576(3)
C74_8 C 0.83661(25) 0.08894(31) 0.92360(4)
H44_8 H 0.7939 0.0625 0.9193
C75_8 C 0.88502(27) 0.15232(34) 0.91783(4)
C76_8 C 0.94850(25) 0.19074(31) 0.92410(4)
H45_8 H 0.9807 0.2327 0.9201
C77_8 C 0.96566(22) 0.16845(27) 0.93620(3)
C78_8 C 0.91718(22) 0.10641(27) 0.94208(3)
H46_8 H 0.9277 0.0916 0.9504
C82_8 C 0.68354(25) 0.16181(31) 0.85981(3)
C83_8 C 0.91165(27) 0.36915(34) 0.87060(4)
C84_8 C 0.85747(25) 0.29338(31) 0.87373(4)
C85_8 C 0.79865(24) 0.26169(29) 0.86597(3)
H51_8 H 0.7925 0.2856 0.8586
C86_8 C 0.74839(23) 0.19563(28) 0.86870(3)
C87_8 C 0.75623(24) 0.15931(30) 0.87976(4)
H52_8 H 0.7221 0.1143 0.8818
C88_8 C 0.81721(25) 0.19239(31) 0.88785(3)
C89_8 C 0.86732(25) 0.26029(31) 0.88444(4)
H53_8 H 0.9078 0.2826 0.8897
N18_8 N 0.82139(23) 0.15308(29) 0.89941(4)
N19_8 N 0.87613(26) 0.18543(33) 0.90560(4)
O27_8 O 0.68688(25) 0.19430(31) 0.84870(3)
O28_8 O 0.63413(15) 0.10664(19) 0.86315(2)
O29_8 O 0.96545(22) 0.39621(28) 0.87778(3)
O30_8 O 0.57712(16) 0.11919(20) 0.83626(2)
H67_8 H 0.627887 0.139886 0.83534
H68_8 H 0.565926 0.156183 0.838116
H70_8 H 0.488018 0.00107308 0.877181
C54_8 C 0.53670(23) 0.60389(29) 0.84786(3)
H32_8 H 0.5246 0.6004 0.8573
C55_8 C 0.55349(25) 0.66437(31) 0.84090(3)
H33_8 H 0.5531 0.7006 0.8456
C56_8 C 0.57087(21) 0.67057(26) 0.82686(3)
C57_8 C 0.57153(24) 0.61542(29) 0.82046(3)
H34_8 H 0.5838 0.6178 0.8110
C58_8 C 0.55381(24) 0.55700(29) 0.82819(3)
H35_8 H 0.5535 0.5199 0.8237
C59_8 C 0.57185(22) 0.93460(27) 0.84822(3)
H36_8 H 0.5598 0.9273 0.8577
C60_8 C 0.57951(22) 0.88558(27) 0.84120(3)
H37_8 H 0.5729 0.8461 0.8458
C61_8 C 0.59737(22) 0.89559(27) 0.82700(3)
C62_8 C 0.60946(23) 0.95684(29) 0.82087(3)
H38_8 H 0.6228 0.9661 0.8115
C64_8 C 0.64741(23) 0.85782(28) 0.76171(3)
H40_8 H 0.6536 0.8960 0.7566
C65_8 C 0.63750(23) 0.85696(28) 0.77600(3)
H41_8 H 0.6368 0.8937 0.7804
C66_8 C 0.62851(23) 0.80010(28) 0.78371(3)
C67_8 C 0.63118(25) 0.74760(31) 0.77657(3)
H42_8 H 0.6264 0.7093 0.7814
C68_8 C 0.64096(24) 0.75259(29) 0.76232(3)
H43_8 H 0.6424 0.7168 0.7577
C69_8 C 0.58819(21) 0.73410(26) 0.81903(3)
C70_8 C 0.60147(21) 0.84027(26) 0.81908(3)
C71_8 C 0.61568(21) 0.79569(26) 0.79904(3)
C72_8 C 0.80066(21) 0.99658(26) 0.94176(3)
C80_8 C 0.7359(6) 0.7353(7) 0.72833(9)
H47_8 H 0.6996 0.7091 0.7222
C81_8 C 0.8436(8) 0.7632(10) 0.73773(13)
H48_8 H 0.8352 0.7411 0.7467
H49_8 H 0.8854 0.7682 0.7338
H50_8 H 0.8480 0.8079 0.7388
C90_8 C 0.7894(9) 0.6712(11) 0.71916(14)
H54_8 H 0.8348 0.6906 0.7152
H55_8 H 0.7791 0.6306 0.7244
H56_8 H 0.7561 0.6593 0.7118
N12_8 N 0.58081(17) 0.99282(21) 0.84220(2)
N13_8 N 0.64851(18) 0.80615(22) 0.75480(3)
N15_8 N 0.58739(18) 0.78431(22) 0.82640(3)
N16_8 N 0.61618(18) 0.84961(22) 0.80536(3)
N17_8 N 0.60312(18) 0.73710(22) 0.80546(3)
N20_8 N 0.7868(6) 0.7218(7) 0.72849(10)
O32_8 O 0.50946(14) 0.98439(17) 0.87023(2)
O33_8 O 0.74300(18) 0.90798(23) 0.73443(2)
O34_8 O 0.73129(20) 0.77751(24) 0.73520(3)
O35_8 O 0.48559(25) 0.73145(30) 0.68768(3)
O36_8 O 0.66549(14) 0.81334(17) 0.711728(19)
H69_8 H 0.475127 0.93681 0.867246
H71_8 H 0.728641 0.938949 0.738892
H72_8 H 0.761176 0.925232 0.724865
C54_9 C 0.40052(17) 0.12997(23) 0.51453(3)
H32_9 H 0.4091 0.1421 0.5240
C55_9 C 0.44421(18) 0.11318(25) 0.50757(3)
H33_9 H 0.4808 0.1136 0.5123
C56_9 C 0.43303(15) 0.09580(21) 0.49353(3)
C57_9 C 0.37722(17) 0.09514(24) 0.48713(3)
H34_9 H 0.3673 0.0829 0.4777
C58_9 C 0.33652(17) 0.11286(24) 0.49486(3)
H35_9 H 0.2997 0.1132 0.4904
C59_9 C 0.69608(16) 0.09482(22) 0.51489(3)
H36_9 H 0.7008 0.1069 0.5244
C60_9 C 0.63940(16) 0.08716(22) 0.50787(3)
H37_9 H 0.6065 0.0938 0.5125
C61_9 C 0.63155(16) 0.06930(22) 0.49367(3)
C62_9 C 0.68071(17) 0.05721(23) 0.48754(3)
H38_9 H 0.6766 0.0439 0.4782
C63_9 C 0.73531(17) 0.06514(23) 0.49543(3)
H39_9 H 0.7672 0.0557 0.4913
C64_9 C 0.54374(16) 0.01926(23) 0.42838(3)
H40_9 H 0.5757 0.0131 0.4233
C65_9 C 0.55279(16) 0.02917(23) 0.44267(3)
H41_9 H 0.5902 0.0299 0.4471
C66_9 C 0.50492(16) 0.03816(23) 0.45038(3)
C67_9 C 0.44975(18) 0.03549(25) 0.44324(3)
H42_9 H 0.4162 0.0403 0.4481
C68_9 C 0.44496(17) 0.02571(24) 0.42899(3)
H43_9 H 0.4077 0.0243 0.4244
C69_9 C 0.47924(15) 0.07848(21) 0.48570(3)
C70_9 C 0.57213(15) 0.06520(21) 0.48575(3)
C71_9 C 0.51334(15) 0.05099(21) 0.46571(3)
N12_9 N 0.74534(12) 0.08586(17) 0.50887(2)
N13_9 N 0.49097(13) 0.01816(18) 0.42147(3)
N14_2 N 0.34677(12) 0.12975(22) 0.50853(2)
N15_9 N 0.53025(13) 0.07928(18) 0.49307(3)
N16_9 N 0.56676(13) 0.05049(18) 0.47203(3)
N17_9 N 0.46731(13) 0.06355(18) 0.47213(3)
Ni4_2 Ni 0.841052(18) 0.124549(25) 0.519347(3)
O28_9 O 0.80584(11) 0.03254(15) 0.52982(2)
O30_9 O 0.87540(12) 0.08955(16) 0.50293(2)
O32_9 O 0.80826(10) 0.15721(14) 0.53690(2)
O35_9 O 0.57919(17) 0.18108(25) 0.35435(3)
O36_9 O 0.48118(10) 0.00118(14) 0.378395(19)
N22_5 N 0.87025(22) 0.21703(18) 0.50853(2)
Ni7_2 Ni 0.283496(17) 0.158948(18) 0.519347(3)
O47_2 O 0.93640(10) 0.16620(15) 0.52804(2)
H67_9 H 0.845333 0.0387798 0.502007
H68_9 H 0.923591 0.100741 0.504782
H69_9 H 0.795016 0.19154 0.533912
H70_9 H 0.846389 0.178649 0.543848
C1_5 C 0.72944(16) 0.59948(17) 0.51453(3)
H1_5 H 0.7329 0.5909 0.5240
C2_5 C 0.66896(17) 0.55579(18) 0.50757(3)
H2_5 H 0.6327 0.5192 0.5123
C3_5 C 0.66276(15) 0.56697(15) 0.49353(3)
C4_5 C 0.71791(17) 0.62278(17) 0.48713(3)
H3_5 H 0.7155 0.6327 0.4777
C5_5 C 0.77633(17) 0.66348(17) 0.49486(3)
H4_5 H 0.8134 0.7003 0.4904
C6_5 C 0.39873(15) 0.30392(16) 0.51489(3)
H5_5 H 0.4060 0.2992 0.5244
C7_5 C 0.44775(15) 0.36060(16) 0.50787(3)
H6_5 H 0.4872 0.3935 0.5125
C8_5 C 0.43774(15) 0.36845(16) 0.49367(3)
C9_5 C 0.37649(16) 0.31929(17) 0.48754(3)
H7_5 H 0.3672 0.3234 0.4782
C10_5 C 0.32982(15) 0.26469(17) 0.49543(3)
H8_5 H 0.2884 0.2328 0.4913
C11_5 C 0.47551(16) 0.45626(16) 0.42838(3)
H9_5 H 0.4373 0.4243 0.4233
C12_5 C 0.47637(16) 0.44721(16) 0.44267(3)
H10_5 H 0.4396 0.4098 0.4471
C13_5 C 0.53323(16) 0.49508(16) 0.45038(3)
C14_5 C 0.58573(17) 0.55025(18) 0.44324(3)
H11_5 H 0.6240 0.5838 0.4481
C15_5 C 0.58074(17) 0.55504(17) 0.42899(3)
H12_5 H 0.6165 0.5923 0.4244
C16_5 C 0.59923(15) 0.52076(15) 0.48570(3)
C17_5 C 0.49306(15) 0.42787(15) 0.48575(3)
C18_5 C 0.53764(15) 0.48666(15) 0.46571(3)
C19_5 C 0.33675(15) 0.47075(15) 0.60843(3)
C20_5 C 0.26784(15) 0.45367(16) 0.60243(3)
C21_5 C 0.24439(17) 0.41434(18) 0.59027(4)
H13_5 H 0.2708 0.3981 0.5860
C22_5 C 0.18101(18) 0.3994(2) 0.58450(4)
C23_5 C 0.14259(17) 0.42443(19) 0.59077(4)
H14_5 H 0.1006 0.4147 0.5868
C24_5 C 0.16488(15) 0.46388(16) 0.60287(3)
C25_5 C 0.22692(15) 0.47744(16) 0.60875(3)
H15_5 H 0.2417 0.5028 0.6171
C31_5 C 0.12106(21) 0.49196(15) 0.60892(3)
C35_5 C 0.5980(5) 0.6673(3) 0.39500(9)
H19_5 H 0.6242 0.6572 0.3889
C36_5 C 0.5701(6) 0.7471(6) 0.40440(13)
H20_5 H 0.5922 0.7608 0.4134
H21_5 H 0.5651 0.7839 0.4005
H22_5 H 0.5254 0.7068 0.4055
C37_5 C 0.17152(17) 0.18840(18) 0.52648(3)
C39_5 C 0.03995(17) 0.23076(18) 0.54040(4)
C40_5 C 0.07164(17) 0.20363(17) 0.53264(3)
H23_5 H 0.0477 0.1736 0.5253
C41_5 C 0.13770(17) 0.21943(16) 0.53537(3)
C42_5 C 0.17402(16) 0.26359(18) 0.54643(4)
H24_5 H 0.2190 0.2745 0.5485
C43_5 C 0.14094(18) 0.29149(18) 0.55452(3)
C44_5 C 0.07304(17) 0.27370(18) 0.55111(4)
H25_5 H 0.0507 0.2919 0.5564
C45_5 C 0.6621(7) 0.7849(6) 0.38583(14)
H26_5 H 0.6427 0.8109 0.3819
H27_5 H 0.7027 0.8152 0.3911
H28_5 H 0.6740 0.7635 0.3785
N1_5 N 0.34051(12) 0.25466(12) 0.50887(2)
N2_5 N 0.52718(12) 0.50903(13) 0.42147(3)
N3_5 N 0.78297(18) 0.65323(12) 0.50853(2)
N4_5 N 0.54902(13) 0.46975(13) 0.49307(3)
N5_5 N 0.48372(13) 0.43324(13) 0.47203(3)
N6_5 N 0.59623(13) 0.53269(13) 0.47213(3)
N7_5 N 0.18025(15) 0.33498(17) 0.56608(4)
N8_5 N 0.14790(17) 0.3574(2) 0.57227(4)
N10_5 N 0.6115(5) 0.7317(4) 0.39516(10)
O9_5 O 0.13903(16) 0.15925(19) 0.51537(3)
O10_5 O 0.22669(10) 0.19416(11) 0.52982(2)
O12_5 O 0.21414(10) 0.12460(12) 0.50293(2)
O14_5 O 0.34894(10) 0.19174(10) 0.53690(2)
O15_5 O 0.42535(12) 0.50169(14) 0.40110(2)
O16_5 O 0.55582(15) 0.62045(13) 0.40187(3)
O17_5 O 0.60188(19) 0.42081(17) 0.35435(3)
O18_5 O 0.51999(10) 0.51882(10) 0.378395(19)
C72_9 C 0.52925(15) 0.86601(21) 0.60843(3)
C73_9 C 0.54633(16) 0.81418(22) 0.60243(3)
C74_9 C 0.58566(18) 0.83006(25) 0.59027(4)
H44_9 H 0.6019 0.8728 0.5860
C75_9 C 0.6006(2) 0.78165(27) 0.58450(4)
C76_9 C 0.57557(19) 0.71817(25) 0.59077(4)
H45_9 H 0.5853 0.6860 0.5868
C77_9 C 0.53612(16) 0.70101(22) 0.60287(3)
C78_9 C 0.52256(16) 0.74949(22) 0.60875(3)
H46_9 H 0.4972 0.7390 0.6171
C79_9 C 0.50804(15) 0.62911(26) 0.60892(3)
C80_9 C 0.3327(3) 0.9308(6) 0.39500(9)
H47_9 H 0.3428 0.9671 0.3889
C81_9 C 0.2529(6) 0.8231(8) 0.40440(13)
H48_9 H 0.2392 0.8315 0.4134
H49_9 H 0.2161 0.7813 0.4005
H50_9 H 0.2932 0.8187 0.4055
C82_9 C 0.81160(18) 0.98313(25) 0.52648(3)
C83_9 C 0.7908(2) 0.75502(27) 0.53727(4)
C84_9 C 0.76924(18) 0.80920(25) 0.54040(4)
C85_9 C 0.79637(17) 0.86802(24) 0.53264(3)
H51_9 H 0.8264 0.8742 0.5253
C86_9 C 0.78057(16) 0.91828(23) 0.53537(3)
C87_9 C 0.73641(18) 0.91044(24) 0.54643(4)
H52_9 H 0.7255 0.9446 0.5485
C88_9 C 0.70851(18) 0.84946(25) 0.55452(3)
C89_9 C 0.72630(18) 0.79935(25) 0.55111(4)
H53_9 H 0.7081 0.7589 0.5564
C90_9 C 0.2151(6) 0.8773(9) 0.38583(14)
H54_9 H 0.1891 0.8319 0.3819
H55_9 H 0.1848 0.8876 0.3911
H56_9 H 0.2365 0.9106 0.3785
N18_9 N 0.66502(17) 0.84528(23) 0.56608(4)
N19_9 N 0.6426(2) 0.79054(26) 0.57227(4)
N20_9 N 0.2683(4) 0.8799(6) 0.39516(10)
O27_9 O 0.84075(19) 0.97979(25) 0.51537(3)
O29_9 O 0.76409(17) 0.70122(22) 0.54445(3)
O31_5 O 0.83380(15) 0.77021(18) 0.52804(2)
O33_9 O 0.49831(14) 0.92367(18) 0.40110(2)
O34_9 O 0.37955(13) 0.93538(20) 0.40187(3)
Ni9_5 Ni 0.875451(25) 0.716504(17) 0.519347(3)
O48_5 O 0.22979(18) 0.06360(10) 0.52804(2)
H57_5 H 0.193447 0.154667 0.502007
H58_5 H 0.17715 0.0764093 0.504782
H61_5 H 0.394385 0.456359 0.405559
H62_5 H 0.408101 0.502611 0.391532
H63_5 H 0.396524 0.204984 0.533912
H64_5 H 0.33226 0.153611 0.543848
H71_9 H 0.543641 0.938025 0.405559
H72_9 H 0.497389 0.905491 0.391532
C38_5 C 0.96418(18) 0.2092(2) 0.53727(4)
O11_5 O 0.93712(14) 0.23591(17) 0.54445(3)
C83_10 C 0.24498(27) 0.03582(34) 0.53727(4)
O29_10 O 0.29878(22) 0.06288(28) 0.54445(3)
C72_10 C 0.13399(21) 0.66325(26) 0.60843(3)
C73_10 C 0.18582(22) 0.73216(27) 0.60243(3)
C74_10 C 0.16994(25) 0.75561(31) 0.59027(4)
H44_10 H 0.1272 0.7292 0.5860
C75_10 C 0.21835(27) 0.81899(34) 0.58450(4)
C76_10 C 0.28183(25) 0.85741(31) 0.59077(4)
H45_10 H 0.3140 0.8994 0.5868
C77_10 C 0.29899(22) 0.83512(27) 0.60287(3)
C78_10 C 0.25051(22) 0.77308(27) 0.60875(3)
H46_10 H 0.2610 0.7583 0.6171
C79_10 C 0.37089(26) 0.87894(30) 0.60892(3)
C80_10 C 0.0692(6) 0.4020(7) 0.39500(9)
H47_10 H 0.0329 0.3758 0.3889
C81_10 C 0.1769(8) 0.4299(10) 0.40440(13)
H48_10 H 0.1685 0.4078 0.4134
H49_10 H 0.2187 0.4349 0.4005
H50_10 H 0.1813 0.4746 0.4055
C82_10 C 0.01687(25) 0.82848(31) 0.52648(3)
C84_10 C 0.19080(25) 0.96005(31) 0.54040(4)
C85_10 C 0.13198(24) 0.92836(29) 0.53264(3)
H51_10 H 0.1258 0.9523 0.5253
C86_10 C 0.08172(23) 0.86230(28) 0.53537(3)
C87_10 C 0.08956(24) 0.82598(30) 0.54643(4)
H52_10 H 0.0554 0.7810 0.5485
C88_10 C 0.15054(25) 0.85906(31) 0.55452(3)
C89_10 C 0.20065(25) 0.92696(31) 0.55111(4)
H53_10 H 0.2411 0.9493 0.5564
C90_10 C 0.1227(9) 0.3379(11) 0.38583(14)
H54_10 H 0.1681 0.3573 0.3819
H55_10 H 0.1124 0.2973 0.3911
H56_10 H 0.0894 0.3260 0.3785
N18_10 N 0.15472(23) 0.81975(29) 0.56608(4)
N19_10 N 0.20946(26) 0.85210(33) 0.57227(4)
N20_10 N 0.1201(6) 0.3885(7) 0.39516(10)
O27_10 O 0.02021(25) 0.86097(31) 0.51537(3)
O33_10 O 0.07633(18) 0.57465(23) 0.40110(2)
O34_10 O 0.06462(20) 0.44418(24) 0.40187(3)
H71_10 H 0.0619747 0.605615 0.405559
H72_10 H 0.0945091 0.591899 0.391532
C54_10 C 0.87003(23) 0.27056(29) 0.51453(3)
H32_10 H 0.8579 0.2671 0.5240
C55_10 C 0.88682(25) 0.33104(31) 0.50757(3)
H33_10 H 0.8864 0.3673 0.5123
C56_10 C 0.90420(21) 0.33724(26) 0.49353(3)
C57_10 C 0.90486(24) 0.28209(29) 0.48713(3)
H34_10 H 0.9171 0.2845 0.4777
C58_10 C 0.88714(24) 0.22367(29) 0.49486(3)
H35_10 H 0.8868 0.1866 0.4904
C59_10 C 0.90518(22) 0.60127(27) 0.51489(3)
H36_10 H 0.8931 0.5940 0.5244
C60_10 C 0.91284(22) 0.55225(27) 0.50787(3)
H37_10 H 0.9062 0.5128 0.5125
C61_10 C 0.93070(22) 0.56226(27) 0.49367(3)
C62_10 C 0.94279(23) 0.62351(29) 0.48754(3)
H38_10 H 0.9561 0.6328 0.4782
C63_10 C 0.93486(23) 0.67018(29) 0.49543(3)
H39_10 H 0.9443 0.7116 0.4913
C64_10 C 0.98074(23) 0.52449(28) 0.42838(3)
H40_10 H 0.9869 0.5627 0.4233
C65_10 C 0.97083(23) 0.52363(28) 0.44267(3)
H41_10 H 0.9701 0.5604 0.4471
C66_10 C 0.96184(23) 0.46677(28) 0.45038(3)
C67_10 C 0.96451(25) 0.41427(31) 0.44324(3)
H42_10 H 0.9597 0.3760 0.4481
C68_10 C 0.97429(24) 0.41926(29) 0.42899(3)
H43_10 H 0.9757 0.3835 0.4244
C69_10 C 0.92152(21) 0.40077(26) 0.48570(3)
C70_10 C 0.93480(21) 0.50694(26) 0.48575(3)
C71_10 C 0.94901(21) 0.46236(26) 0.46571(3)
N12_10 N 0.91414(17) 0.65949(21) 0.50887(2)
N13_10 N 0.98184(18) 0.47282(22) 0.42147(3)
N15_10 N 0.92072(18) 0.45098(22) 0.49307(3)
N16_10 N 0.94951(18) 0.51628(22) 0.47203(3)
N17_10 N 0.93645(18) 0.40377(22) 0.47213(3)
O28_10 O 0.96746(15) 0.77331(19) 0.52982(2)
O30_10 O 0.91045(16) 0.78586(20) 0.50293(2)
O32_10 O 0.84279(14) 0.65106(17) 0.53690(2)
O35_10 O 0.81892(25) 0.39812(30) 0.35435(3)
O36_10 O 0.99882(14) 0.48001(17) 0.378395(19)
H67_10 H 0.96122 0.806553 0.502007
H68_10 H 0.899259 0.82285 0.504782
H69_10 H 0.80846 0.603476 0.533912
H70_10 H 0.821351 0.66774 0.543848
C1_6 C 0.06278(16) 0.26614(17) 0.18119(3)
H1_6 H 0.0663 0.2575 0.1906
C2_6 C 0.00230(17) 0.22245(18) 0.17423(3)
C4_6 C 0.05125(17) 0.28944(17) 0.15379(3)
H3_6 H 0.0489 0.2993 0.1443
C5_6 C 0.10967(17) 0.33014(17) 0.16152(3)
H4_6 H 0.1468 0.3669 0.1570
H27_6 H 0.0361 0.4818 0.0577
H28_6 H 0.0074 0.4301 0.0451
N3_6 N 0.11631(18) 0.31989(12) 0.17519(2)
C59_11 C 0.02942(16) 0.76148(22) 0.18155(3)
H36_11 H 0.0342 0.7735 0.1910
C62_11 C 0.01405(17) 0.72387(23) 0.15420(3)
H38_11 H 0.0100 0.7105 0.1448
C63_11 C 0.06865(17) 0.73180(23) 0.16209(3)
H39_11 H 0.1006 0.7223 0.1579
C82_11 C 0.14494(18) 0.64979(25) 0.19314(3)
C83_11 C 0.1242(2) 0.42168(27) 0.20393(4)
C84_11 C 0.10258(18) 0.47586(25) 0.20706(4)
C85_11 C 0.12971(17) 0.53468(24) 0.19930(3)
H51_11 H 0.1598 0.5408 0.1919
C86_11 C 0.11391(16) 0.58494(23) 0.20203(3)
C87_11 C 0.06975(18) 0.57710(24) 0.21309(4)
H52_11 H 0.0589 0.6112 0.2151
C88_11 C 0.04185(18) 0.51612(25) 0.22118(3)
C89_11 C 0.05964(18) 0.46601(25) 0.21777(4)
H53_11 H 0.0415 0.4255 0.2230
N12_11 N 0.07868(12) 0.75252(17) 0.17553(2)
Ni4_3 Ni 0.174386(18) 0.791215(25) 0.186013(3)
O27_11 O 0.17409(19) 0.64645(25) 0.18203(3)
O28_11 O 0.13918(11) 0.69920(15) 0.19648(2)
O29_11 O 0.09743(17) 0.36788(22) 0.21111(3)
O30_11 O 0.20874(12) 0.75621(16) 0.16959(2)
O31_6 O 0.16714(15) 0.43687(18) 0.19470(2)
O32_11 O 0.14160(10) 0.82387(14) 0.20356(2)
N22_6 N 0.20359(22) 0.88369(18) 0.17519(2)
Ni9_6 Ni 0.208785(25) 0.383170(17) 0.186013(3)
O47_3 O 0.26974(10) 0.83286(15) 0.19470(2)
H67_11 H 0.178666 0.705447 0.168673
H68_11 H 0.256924 0.767407 0.171449
H69_11 H 0.128349 0.858206 0.200579
H70_11 H 0.179722 0.845316 0.210514
H2_6 H 0.9661 0.1858 0.1789
C3_6 C 0.99610(15) 0.23363(15) 0.16019(3)
C7_6 C 0.78109(15) 0.02726(16) 0.17453(3)
H6_6 H 0.8206 0.0601 0.1791
C8_6 C 0.77108(15) 0.03511(16) 0.16033(3)
C11_6 C 0.80885(16) 0.12292(16) 0.09504(3)
H9_6 H 0.7707 0.0909 0.0899
C12_6 C 0.80971(16) 0.11387(16) 0.10933(3)
H10_6 H 0.7730 0.0764 0.1137
C13_6 C 0.86657(16) 0.16174(16) 0.11704(3)
C14_6 C 0.91907(17) 0.21691(18) 0.10990(3)
H11_6 H 0.9574 0.2504 0.1147
C15_6 C 0.91408(17) 0.22170(17) 0.09565(3)
H12_6 H 0.9499 0.2589 0.0910
C16_6 C 0.93257(15) 0.18742(15) 0.15236(3)
C17_6 C 0.82640(15) 0.09453(15) 0.15241(3)
C18_6 C 0.87098(15) 0.15332(15) 0.13237(3)
C19_6 C 0.67009(15) 0.13741(15) 0.27509(3)
C20_6 C 0.60118(15) 0.12033(16) 0.26909(3)
C21_6 C 0.57773(17) 0.08100(18) 0.25693(4)
H13_6 H 0.6042 0.0647 0.2526
C22_6 C 0.51435(18) 0.0660(2) 0.25116(4)
C23_6 C 0.47593(17) 0.09109(19) 0.25743(4)
H14_6 H 0.4340 0.0813 0.2534
C24_6 C 0.49822(15) 0.13054(16) 0.26953(3)
C25_6 C 0.56026(15) 0.14410(16) 0.27541(3)
H15_6 H 0.5751 0.1694 0.2837
C31_6 C 0.45440(21) 0.15862(15) 0.27558(3)
C35_6 C 0.9314(5) 0.3339(3) 0.06166(9)
H19_6 H 0.9576 0.3238 0.0555
C36_6 C 0.9035(6) 0.4137(6) 0.07106(13)
H20_6 H 0.9256 0.4274 0.0800
H21_6 H 0.8985 0.4505 0.0671
H22_6 H 0.8588 0.3734 0.0721
C45_6 C 0.9955(7) 0.4515(6) 0.05249(14)
H26_6 H 0.9761 0.4775 0.0485
N2_6 N 0.86052(12) 0.17569(13) 0.08813(3)
N4_6 N 0.88236(13) 0.13641(13) 0.15973(3)
N5_6 N 0.81706(13) 0.09990(13) 0.13869(3)
N6_6 N 0.92957(13) 0.19935(13) 0.13879(3)
N7_6 N 0.51359(15) 0.00164(17) 0.23274(4)
N8_6 N 0.48124(17) 0.0240(2) 0.23893(4)
N10_6 N 0.9449(5) 0.3983(4) 0.06182(10)
O15_6 O 0.75869(12) 0.16835(14) 0.06776(2)
O16_6 O 0.88916(15) 0.28711(13) 0.06853(3)
O17_6 O 0.93522(19) 0.08747(17) 0.02101(3)
O18_6 O 0.85333(10) 0.18548(10) 0.045061(19)
C54_11 C 0.73386(17) 0.79663(23) 0.18119(3)
H32_11 H 0.7425 0.8087 0.1906
C55_11 C 0.77755(18) 0.77984(25) 0.17423(3)
H33_11 H 0.8142 0.7802 0.1789
C56_11 C 0.76637(15) 0.76246(21) 0.16019(3)
C57_11 C 0.71056(17) 0.76180(24) 0.15379(3)
H34_11 H 0.7007 0.7495 0.1443
C58_11 C 0.66986(17) 0.77952(24) 0.16152(3)
H35_11 H 0.6331 0.7798 0.1570
C60_11 C 0.97274(16) 0.75382(22) 0.17453(3)
H37_11 H 0.9399 0.7604 0.1791
C61_11 C 0.96489(16) 0.73596(22) 0.16033(3)
C64_11 C 0.87708(16) 0.68592(23) 0.09504(3)
H40_11 H 0.9091 0.6797 0.0899
C65_11 C 0.88613(16) 0.69583(23) 0.10933(3)
H41_11 H 0.9236 0.6965 0.1137
C66_11 C 0.83826(16) 0.70482(23) 0.11704(3)
C67_11 C 0.78309(18) 0.70215(25) 0.10990(3)
H42_11 H 0.7496 0.7069 0.1147
C68_11 C 0.77830(17) 0.69237(24) 0.09565(3)
H43_11 H 0.7411 0.6909 0.0910
C69_11 C 0.81258(15) 0.74514(21) 0.15236(3)
C70_11 C 0.90547(15) 0.73186(21) 0.15241(3)
C71_11 C 0.84668(15) 0.71765(21) 0.13237(3)
C72_11 C 0.86259(15) 0.53267(21) 0.27509(3)
C73_11 C 0.87967(16) 0.48084(22) 0.26909(3)
C74_11 C 0.91900(18) 0.49672(25) 0.25693(4)
H44_11 H 0.9353 0.5394 0.2526
C75_11 C 0.9340(2) 0.44831(27) 0.25116(4)
C76_11 C 0.90891(19) 0.38483(25) 0.25743(4)
H45_11 H 0.9187 0.3526 0.2534
C77_11 C 0.86946(16) 0.36767(22) 0.26953(3)
C78_11 C 0.85590(16) 0.41615(22) 0.27541(3)
H46_11 H 0.8306 0.4056 0.2837
C79_11 C 0.84138(15) 0.29577(26) 0.27558(3)
C80_11 C 0.6661(3) 0.5974(6) 0.06166(9)
H47_11 H 0.6762 0.6337 0.0555
C81_11 C 0.5863(6) 0.4897(8) 0.07106(13)
H48_11 H 0.5726 0.4981 0.0800
H49_11 H 0.5495 0.4479 0.0671
H50_11 H 0.6266 0.4853 0.0721
C90_11 C 0.5485(6) 0.5439(9) 0.05249(14)
H54_11 H 0.5225 0.4985 0.0485
H55_11 H 0.5182 0.5542 0.0577
H56_11 H 0.5699 0.5772 0.0451
N13_11 N 0.82431(13) 0.68482(18) 0.08813(3)
N14_3 N 0.68011(12) 0.79641(22) 0.17519(2)
N15_11 N 0.86359(13) 0.74594(18) 0.15973(3)
N16_11 N 0.90010(13) 0.71715(18) 0.13869(3)
N17_11 N 0.80065(13) 0.73021(18) 0.13879(3)
N18_11 N 0.99836(17) 0.51194(23) 0.23274(4)
N19_11 N 0.9760(2) 0.45720(26) 0.23893(4)
N20_11 N 0.6017(4) 0.5465(6) 0.06182(10)
O33_11 O 0.83165(14) 0.59033(18) 0.06776(2)
O34_11 O 0.71289(13) 0.60204(20) 0.06853(3)
O35_11 O 0.91253(17) 0.84774(25) 0.02101(3)
O36_11 O 0.81452(10) 0.66784(14) 0.045061(19)
Ni7_3 Ni 0.616830(17) 0.825614(18) 0.186013(3)
H61_6 H 0.727718 0.123026 0.0722255
H62_6 H 0.741435 0.169277 0.0581982
H71_11 H 0.876974 0.604692 0.0722255
H72_11 H 0.830723 0.572158 0.0581982
C6_6 C 0.73207(15) 0.97058(16) 0.18155(3)
H5_6 H 0.7394 0.9658 0.1910
C9_6 C 0.70983(16) 0.98595(17) 0.15420(3)
H7_6 H 0.7006 0.9900 0.1448
C10_6 C 0.66316(15) 0.93135(17) 0.16209(3)
H8_6 H 0.6218 0.8994 0.1579
C37_6 C 0.50486(17) 0.85506(18) 0.19314(3)
C38_6 C 0.29752(18) 0.8758(2) 0.20393(4)
C39_6 C 0.37329(17) 0.89742(18) 0.20706(4)
C40_6 C 0.40498(17) 0.87029(17) 0.19930(3)
H23_6 H 0.3811 0.8402 0.1919
C41_6 C 0.47104(17) 0.88609(16) 0.20203(3)
C42_6 C 0.50736(16) 0.93025(18) 0.21309(4)
H24_6 H 0.5524 0.9411 0.2151
C43_6 C 0.47428(18) 0.95815(18) 0.22118(3)
C44_6 C 0.40638(17) 0.94036(18) 0.21777(4)
H25_6 H 0.3841 0.9585 0.2230
N1_6 N 0.67385(12) 0.92132(12) 0.17553(2)
O9_6 O 0.47237(16) 0.82591(19) 0.18203(3)
O10_6 O 0.56003(10) 0.86082(11) 0.19648(2)
O11_6 O 0.27046(14) 0.90257(17) 0.21111(3)
O12_6 O 0.54748(10) 0.79126(12) 0.16959(2)
O14_6 O 0.68228(10) 0.85840(10) 0.20356(2)
O48_6 O 0.56313(18) 0.73026(10) 0.19470(2)
H57_6 H 0.526781 0.821334 0.168673
H58_6 H 0.510483 0.743076 0.171449
H63_6 H 0.729857 0.871651 0.200579
H64_6 H 0.665594 0.820278 0.210514
H33_12 H 0.2198 0.0339 0.1789
C56_12 C 0.23754(21) 0.00390(26) 0.16019(3)
C59_12 C 0.23852(22) 0.26793(27) 0.18155(3)
H36_12 H 0.2265 0.2606 0.1910
C60_12 C 0.24618(22) 0.21891(27) 0.17453(3)
H37_12 H 0.2396 0.1794 0.1791
C61_12 C 0.26404(22) 0.22892(27) 0.16033(3)
C62_12 C 0.27613(23) 0.29017(29) 0.15420(3)
H38_12 H 0.2895 0.2994 0.1448
C63_12 C 0.26820(23) 0.33684(29) 0.16209(3)
H39_12 H 0.2777 0.3782 0.1579
C64_12 C 0.31408(23) 0.19115(28) 0.09504(3)
H40_12 H 0.3203 0.2293 0.0899
C65_12 C 0.30417(23) 0.19029(28) 0.10933(3)
H41_12 H 0.3035 0.2270 0.1137
C66_12 C 0.29518(23) 0.13343(28) 0.11704(3)
C67_12 C 0.29785(25) 0.08093(31) 0.10990(3)
H42_12 H 0.2931 0.0426 0.1147
C68_12 C 0.30763(24) 0.08592(29) 0.09565(3)
H43_12 H 0.3091 0.0501 0.0910
C69_12 C 0.25486(21) 0.06743(26) 0.15236(3)
C70_12 C 0.26814(21) 0.17360(26) 0.15241(3)
C71_12 C 0.28235(21) 0.12902(26) 0.13237(3)
C72_12 C 0.46733(21) 0.32991(26) 0.27509(3)
C73_12 C 0.51916(22) 0.39882(27) 0.26909(3)
C74_12 C 0.50328(25) 0.42227(31) 0.25693(4)
H44_12 H 0.4606 0.3958 0.2526
C75_12 C 0.55169(27) 0.48565(34) 0.25116(4)
C76_12 C 0.61517(25) 0.52407(31) 0.25743(4)
H45_12 H 0.6474 0.5660 0.2534
C77_12 C 0.63233(22) 0.50178(27) 0.26953(3)
C78_12 C 0.58385(22) 0.43974(27) 0.27541(3)
H46_12 H 0.5944 0.4249 0.2837
C79_12 C 0.70423(26) 0.54560(30) 0.27558(3)
C80_12 C 0.4026(6) 0.0686(7) 0.06166(9)
H47_12 H 0.3663 0.0424 0.0555
C81_12 C 0.5103(8) 0.0965(10) 0.07106(13)
H48_12 H 0.5019 0.0744 0.0800
H49_12 H 0.5521 0.1015 0.0671
H50_12 H 0.5147 0.1412 0.0721
C82_12 C 0.35021(25) 0.49514(31) 0.19314(3)
C83_12 C 0.57832(27) 0.70248(34) 0.20393(4)
C84_12 C 0.52414(25) 0.62671(31) 0.20706(4)
C85_12 C 0.46532(24) 0.59502(29) 0.19930(3)
H51_12 H 0.4592 0.6189 0.1919
C86_12 C 0.41506(23) 0.52896(28) 0.20203(3)
C87_12 C 0.42290(24) 0.49264(30) 0.21309(4)
H52_12 H 0.3888 0.4476 0.2151
C88_12 C 0.48388(25) 0.52572(31) 0.22118(3)
C89_12 C 0.53399(25) 0.59362(31) 0.21777(4)
H53_12 H 0.5745 0.6159 0.2230
C90_12 C 0.4561(9) 0.0045(11) 0.05249(14)
H54_12 H 0.5015 0.0239 0.0485
N12_12 N 0.24748(17) 0.32615(21) 0.17553(2)
N13_12 N 0.31518(18) 0.13948(22) 0.08813(3)
N15_12 N 0.25406(18) 0.11764(22) 0.15973(3)
N16_12 N 0.28285(18) 0.18294(22) 0.13869(3)
N17_12 N 0.26979(18) 0.07043(22) 0.13879(3)
N18_12 N 0.48806(23) 0.48641(29) 0.23274(4)
N19_12 N 0.54280(26) 0.51876(33) 0.23893(4)
N20_12 N 0.4535(6) 0.0551(7) 0.06182(10)
O27_12 O 0.35355(25) 0.52763(31) 0.18203(3)
O28_12 O 0.30080(15) 0.43997(19) 0.19648(2)
O29_12 O 0.63212(22) 0.72954(28) 0.21111(3)
O30_12 O 0.24379(16) 0.45252(20) 0.16959(2)
O32_12 O 0.17613(14) 0.31772(17) 0.20356(2)
O33_12 O 0.40967(18) 0.24131(23) 0.06776(2)
O34_12 O 0.39796(20) 0.11084(24) 0.06853(3)
O35_12 O 0.15226(25) 0.06478(30) 0.02101(3)
O36_12 O 0.33216(14) 0.14667(17) 0.045061(19)
H67_12 H 0.294553 0.473219 0.168673
H68_12 H 0.232593 0.489517 0.171449
H69_12 H 0.141794 0.270143 0.200579
H70_12 H 0.154684 0.334406 0.210514
H71_12 H 0.395308 0.272282 0.0722255
H72_12 H 0.427842 0.258565 0.0581982
C54_12 C 0.20337(23) 0.93722(29) 0.18119(3)
H32_12 H 0.1913 0.9337 0.1906
C55_12 C 0.22016(25) 0.99770(31) 0.17423(3)
C57_12 C 0.23820(24) 0.94875(29) 0.15379(3)
H34_12 H 0.2505 0.9511 0.1443
C58_12 C 0.22048(24) 0.89033(29) 0.16152(3)
H35_12 H 0.2202 0.8532 0.1570
H55_12 H 0.4458 0.9639 0.0577
H56_12 H 0.4228 0.9926 0.0451
loop_
_geom_bond_atom_site_label_1
_geom_bond_atom_site_label_2
_geom_bond_site_symmetry_1
_geom_bond_site_symmetry_2
H8 C10 1_555 1_555
C20 C21 1_555 1_555
C21 H13 1_555 1_555
C22 C21 1_555 1_555
C23 C22 1_555 1_555
H14 C23 1_555 1_555
C24 C23 1_555 1_555
C25 C20 1_555 1_555
H15 C25 1_555 1_555
C31 C24 1_555 1_555
C37 C41 1_555 1_555
C38 C39 1_555 1_555
C39 C40 1_555 1_555
C40 H23 1_555 1_555
C41 C40 1_555 1_555
C42 C41 1_555 1_555
H24 C42 1_555 1_555
C43 C42 1_555 1_555
C44 C39 1_555 1_555
H25 C44 1_555 1_555
N7 C43 1_555 1_555
N8 C22 1_555 1_555
O5 C31 1_555 1_555
O6 C31 1_555 1_555
O9 C37 1_555 1_555
O10 C37 1_555 1_555
O11 C38 1_555 1_555
O12 Ni1 1_555 1_555
O13 C38 1_555 1_555
Ni8 O13 1_555 1_555
Ni12 O6 1_555 1_555
Ni15 O5 1_555 1_555
O48 Ni1 1_555 1_555
C24 C25 1_555 1_555
C43 C44 1_555 1_555
N7 N8 1_555 1_555
Ni1 O10 1_555 1_555
O12 H57 1_555 1_555
O12 H58 1_555 1_555
C81 H48 1_555 1_555
H49 C81 1_555 1_555
H50 C81 1_555 1_555
C90 H54 1_555 1_555
H55 C90 1_555 1_555
H56 C90 1_555 1_555
N20 C80 1_555 1_555
C81 N20 1_555 1_555
C90 N20 1_555 1_555
C1 H1 1_555 1_555
C2 C1 1_555 1_555
H2 C2 1_555 1_555
C3 C2 1_555 1_555
C4 C3 1_555 1_555
H3 C4 1_555 1_555
C5 C4 1_555 1_555
C6 H5 1_555 1_555
C7 C6 1_555 1_555
H6 C7 1_555 1_555
C8 C7 1_555 1_555
C9 C8 1_555 1_555
H7 C9 1_555 1_555
C11 H9 1_555 1_555
C12 C11 1_555 1_555
H10 C12 1_555 1_555
C13 C12 1_555 1_555
C14 C13 1_555 1_555
H11 C14 1_555 1_555
C15 C14 1_555 1_555
H12 C15 1_555 1_555
C16 C3 1_555 1_555
C17 C8 1_555 1_555
C18 C13 1_555 1_555
C26 C28 1_555 1_555
C27 H16 1_555 1_555
C28 C27 1_555 1_555
N1 C6 1_555 1_555
N2 C11 1_555 1_555
N3 C1 1_555 1_555
N4 C16 1_555 1_555
N5 C17 1_555 1_555
N6 C16 1_555 1_555
Ni2 N2 1_555 1_555
Ni3 O3 1_555 1_555
O3 C26 1_555 1_555
O4 C26 1_555 1_555
O7 C19 1_555 1_555
O8 C19 1_555 1_555
O15 Ni2 1_555 1_555
O17 Ni3 1_555 1_555
O18 Ni2 1_555 1_555
O23 C79 1_555 1_555
O24 C79 1_555 1_555
Ni10 O8 1_555 1_555
Ni13 O7 1_555 1_555
Ni17 O2 1_555 1_555
O37 Ni3 1_555 1_555
O39 Ni3 1_555 1_555
O41 Ni2 1_555 1_555
O43 Ni3 1_555 1_555
O45 Ni2 1_555 1_555
C5 N3 1_555 1_555
C15 N2 1_555 1_555
C17 N4 1_555 1_555
C18 N5 1_555 1_555
C18 N6 1_555 1_555
Ni2 O16 1_555 1_555
Ni3 O18 1_555 1_555
O23 Ni13 1_555 1_555
O24 Ni10 1_555 1_555
O15 H61 1_555 1_555
O15 H62 1_555 1_555
O14 H63 1_555 1_555
H17 C29 1_555 1_555
C30 C29 1_555 1_555
C32 C33 1_555 1_555
C34 C30 1_555 1_555
H18 C34 1_555 1_555
C36 H20 1_555 1_555
H21 C36 1_555 1_555
H22 C36 1_555 1_555
C45 H26 1_555 1_555
H27 C45 1_555 1_555
H28 C45 1_555 1_555
N9 C30 1_555 1_555
N10 C35 1_555 1_555
O1 C32 1_555 1_555
C46 C48 1_555 1_555
C47 H29 1_555 1_555
C48 C47 1_555 1_555
C49 C48 1_555 1_555
H30 C49 1_555 1_555
C50 C49 1_555 1_555
N11 N9 1_555 1_555
O19 C46 1_555 1_555
O20 C46 1_555 1_555
C51 C52 1_555 1_555
C52 C47 1_555 1_555
C53 C50 1_555 1_555
H31 C53 1_555 1_555
O21 C51 1_555 1_555
O22 C51 1_555 1_555
C54 H32 1_555 1_555
C55 C54 1_555 1_555
H33 C55 1_555 1_555
C56 C55 1_555 1_555
C57 C56 1_555 1_555
H34 C57 1_555 1_555
C58 C57 1_555 1_555
C59 H36 1_555 1_555
C60 C59 1_555 1_555
H37 C60 1_555 1_555
C61 C60 1_555 1_555
C62 C61 1_555 1_555
H38 C62 1_555 1_555
C63 C62 1_555 1_555
H39 C63 1_555 1_555
C64 H40 1_555 1_555
C65 C64 1_555 1_555
H41 C65 1_555 1_555
C66 C65 1_555 1_555
C67 C66 1_555 1_555
H42 C67 1_555 1_555
C68 C67 1_555 1_555
H43 C68 1_555 1_555
C69 C56 1_555 1_555
C70 C61 1_555 1_555
C71 C66 1_555 1_555
C72 C73 1_555 1_555
C73 C74 1_555 1_555
C74 H44 1_555 1_555
C75 C74 1_555 1_555
C76 C75 1_555 1_555
H45 C76 1_555 1_555
C77 C76 1_555 1_555
C78 C73 1_555 1_555
H46 C78 1_555 1_555
C82 C86 1_555 1_555
C83 C84 1_555 1_555
C84 C85 1_555 1_555
C85 H51 1_555 1_555
C86 C85 1_555 1_555
C87 C86 1_555 1_555
H52 C87 1_555 1_555
C88 C87 1_555 1_555
C89 C84 1_555 1_555
H53 C89 1_555 1_555
N12 C59 1_555 1_555
N13 C64 1_555 1_555
N21 C54 1_555 1_555
N15 C69 1_555 1_555
N16 C70 1_555 1_555
N17 C69 1_555 1_555
N18 C88 1_555 1_555
N19 C75 1_555 1_555
Ni8 N12 1_555 1_555
Ni5 N13 1_555 1_555
Ni6 O22 1_555 1_555
O25 C72 1_555 1_555
O26 C72 1_555 1_555
O27 C82 1_555 1_555
O28 C82 1_555 1_555
O29 C83 1_555 1_555
O30 Ni8 1_555 1_555
O31 C83 1_555 1_555
O32 Ni8 1_555 1_555
O33 Ni5 1_555 1_555
O35 Ni6 1_555 1_555
O36 Ni5 1_555 1_555
N22 Ni8 1_555 1_555
Ni11 O26 1_555 1_555
Ni14 O25 1_555 1_555
Ni16 O19 1_555 1_555
O38 Ni6 1_555 1_555
O40 Ni6 1_555 1_555
O42 Ni5 1_555 1_555
O44 Ni6 1_555 1_555
O46 Ni5 1_555 1_555
C33 C34 1_555 1_555
C36 N10 1_555 1_555
C45 N10 1_555 1_555
C50 N11 1_555 1_555
C52 C53 1_555 1_555
C58 N21 1_555 1_555
C63 N12 1_555 1_555
C68 N13 1_555 1_555
C70 N15 1_555 1_555
C71 N16 1_555 1_555
C71 N17 1_555 1_555
C77 C78 1_555 1_555
C88 C89 1_555 1_555
N18 N19 1_555 1_555
Ni8 O28 1_555 1_555
Ni5 O34 1_555 1_555
Ni6 O36 1_555 1_555
O31 Ni9 1_555 1_555
O30 H67 1_555 1_555
O30 H68 1_555 1_555
O32 H69 1_555 1_555
O32 H70 1_555 1_555
O33 H71 1_555 1_555
O33 H72 1_555 1_555
C47_2 H29_2 1_555 1_555
O19_2 C46_2 1_555 1_555
C51_2 C52_2 1_555 1_555
C52_2 C47_2 1_555 1_555
O21_2 C51_2 1_555 1_555
O22_2 C51_2 1_555 1_555
C54_2 H32_2 1_555 1_555
C55_2 C54_2 1_555 1_555
H33_2 C55_2 1_555 1_555
C56_2 C55_2 1_555 1_555
C57_2 C56_2 1_555 1_555
H34_2 C57_2 1_555 1_555
C58_2 C57_2 1_555 1_555
H35_2 C58_2 1_555 1_555
C59_2 H36_2 1_555 1_555
C60_2 C59_2 1_555 1_555
H37_2 C60_2 1_555 1_555
C61_2 C60_2 1_555 1_555
C62_2 C61_2 1_555 1_555
H38_2 C62_2 1_555 1_555
C64_2 H40_2 1_555 1_555
C65_2 C64_2 1_555 1_555
H41_2 C65_2 1_555 1_555
C66_2 C65_2 1_555 1_555
C67_2 C66_2 1_555 1_555
H42_2 C67_2 1_555 1_555
C68_2 C67_2 1_555 1_555
H43_2 C68_2 1_555 1_555
C69_2 C56_2 1_555 1_555
C70_2 C61_2 1_555 1_555
C71_2 C66_2 1_555 1_555
C80_2 H47_2 1_555 1_555
C81_2 H48_2 1_555 1_555
H49_2 C81_2 1_555 1_555
H50_2 C81_2 1_555 1_555
C90_2 H54_2 1_555 1_555
H55_2 C90_2 1_555 1_555
H56_2 C90_2 1_555 1_555
N12_2 C59_2 1_555 1_555
N13_2 C64_2 1_555 1_555
N22 C54_2 1_555 1_555
N15_2 C69_2 1_555 1_555
N16_2 C70_2 1_555 1_555
N17_2 C69_2 1_555 1_555
N20_2 C80_2 1_555 1_555
Ni5_2 N13_2 1_555 1_555
Ni6_2 O22_2 1_555 1_555
O25_2 C72_2 1_555 1_555
O26_2 C72_2 1_555 1_555
O33_2 Ni5_2 1_555 1_555
O34_2 C80_2 1_555 1_555
O35_2 Ni6_2 1_555 1_555
O36_2 Ni5_2 1_555 1_555
Ni12 O26_2 1_555 1_555
Ni15 O25_2 1_555 1_555
Ni17 O19_2 1_555 1_555
O38_2 Ni6_2 1_555 1_555
O40_2 Ni6_2 1_555 1_555
O42_2 Ni5_2 1_555 1_555
O44_2 Ni6_2 1_555 1_555
O46_2 Ni5_2 1_555 1_555
C58_2 N22 1_555 1_555
C68_2 N13_2 1_555 1_555
C70_2 N15_2 1_555 1_555
C71_2 N16_2 1_555 1_555
C71_2 N17_2 1_555 1_555
C81_2 N20_2 1_555 1_555
C90_2 N20_2 1_555 1_555
Ni5_2 O34_2 1_555 1_555
Ni6_2 O36_2 1_555 1_555
O32_2 H69_2 1_555 1_555
O33_2 H71_2 1_555 1_555
O33_2 H72_2 1_555 1_555
H17_2 C29_2 1_555 1_555
C30_2 C29_2 1_555 1_555
C32_2 C33_2 1_555 1_555
C34_2 C30_2 1_555 1_555
H18_2 C34_2 1_555 1_555
N9_2 C30_2 1_555 1_555
O1_2 C32_2 1_555 1_555
C49_2 C48_2 1_555 1_555
H30_2 C49_2 1_555 1_555
C50_2 C49_2 1_555 1_555
N11_2 N9_2 1_555 1_555
C53_2 C50_2 1_555 1_555
H31_2 C53_2 1_555 1_555
H39_2 C63_2 1_555 1_555
C73_2 C74_2 1_555 1_555
C74_2 H44_2 1_555 1_555
C75_2 C74_2 1_555 1_555
C76_2 C75_2 1_555 1_555
H45_2 C76_2 1_555 1_555
C77_2 C76_2 1_555 1_555
C78_2 C73_2 1_555 1_555
H46_2 C78_2 1_555 1_555
C82_2 C86_2 1_555 1_555
C83_2 C84_2 1_555 1_555
C84_2 C85_2 1_555 1_555
C85_2 H51_2 1_555 1_555
C86_2 C85_2 1_555 1_555
C87_2 C86_2 1_555 1_555
H52_2 C87_2 1_555 1_555
C88_2 C87_2 1_555 1_555
C89_2 C84_2 1_555 1_555
H53_2 C89_2 1_555 1_555
N18_2 C88_2 1_555 1_555
N19_2 C75_2 1_555 1_555
O27_2 C82_2 1_555 1_555
O28_2 C82_2 1_555 1_555
O29_2 C83_2 1_555 1_555
O30_2 Ni9 1_555 1_555
O48 C83_2 1_555 1_555
C33_2 C34_2 1_555 1_555
C50_2 N11_2 1_555 1_555
C77_2 C78_2 1_555 1_555
C88_2 C89_2 1_555 1_555
N18_2 N19_2 1_555 1_555
Ni9 O28_2 1_555 1_555
O30_2 H67_2 1_555 1_555
O30_2 H68_2 1_555 1_555
C26_2 C28_2 1_555 1_555
C27_2 H16_2 1_555 1_555
C28_2 C27_2 1_555 1_555
O38 C26_2 1_555 1_555
O4_2 C26_2 1_555 1_555
O23_2 C79_2 1_555 1_555
O24_2 C79_2 1_555 1_555
Ni17_2 O2_2 1_555 1_555
O23_2 Ni14 1_555 1_555
O24_2 Ni11 1_555 1_555
C26_3 C28_3 1_555 1_555
C27_3 H16_3 1_555 1_555
C28_3 C27_3 1_555 1_555
C29_3 C28_3 1_555 1_555
H17_3 C29_3 1_555 1_555
C30_3 C29_3 1_555 1_555
C32_3 C33_3 1_555 1_555
C33_3 C27_3 1_555 1_555
C34_3 C30_3 1_555 1_555
H18_3 C34_3 1_555 1_555
N9_3 C30_3 1_555 1_555
O1_3 C32_3 1_555 1_555
O2_3 C32_3 1_555 1_555
O38_2 C26_3 1_555 1_555
O4_3 C26_3 1_555 1_555
C49_3 C48_3 1_555 1_555
H30_3 C49_3 1_555 1_555
C50_3 C49_3 1_555 1_555
N11_3 N9_3 1_555 1_555
C53_3 C50_3 1_555 1_555
H31_3 C53_3 1_555 1_555
Ni16 O2_3 1_555 1_555
C33_3 C34_3 1_555 1_555
C50_3 N11_3 1_555 1_555
C47_3 H29_3 1_555 1_555
O19_3 C46_3 1_555 1_555
C51_3 C52_3 1_555 1_555
C52_3 C47_3 1_555 1_555
O21_3 C51_3 1_555 1_555
O37 C51_3 1_555 1_555
Ni17_2 O19_3 1_555 1_555
O11_2 C38_2 1_555 1_555
O13_2 C38_2 1_555 1_555
Ni8_2 O13_2 1_555 1_555
C1_2 H1_2 1_555 1_555
C2_2 C1_2 1_555 1_555
H2_2 C2_2 1_555 1_555
C3_2 C2_2 1_555 1_555
C4_2 C3_2 1_555 1_555
H3_2 C4_2 1_555 1_555
C5_2 C4_2 1_555 1_555
H4_2 C5_2 1_555 1_555
C6_2 H5_2 1_555 1_555
C7_2 C6_2 1_555 1_555
H6_2 C7_2 1_555 1_555
C8_2 C7_2 1_555 1_555
C9_2 C8_2 1_555 1_555
H7_2 C9_2 1_555 1_555
C10_2 C9_2 1_555 1_555
H8_2 C10_2 1_555 1_555
C11_2 H9_2 1_555 1_555
C12_2 C11_2 1_555 1_555
H10_2 C12_2 1_555 1_555
C13_2 C12_2 1_555 1_555
C14_2 C13_2 1_555 1_555
H11_2 C14_2 1_555 1_555
C15_2 C14_2 1_555 1_555
H12_2 C15_2 1_555 1_555
C16_2 C3_2 1_555 1_555
C17_2 C8_2 1_555 1_555
C18_2 C13_2 1_555 1_555
C19_2 C20_2 1_555 1_555
C20_2 C21_2 1_555 1_555
C21_2 H13_2 1_555 1_555
C22_2 C21_2 1_555 1_555
C23_2 C22_2 1_555 1_555
H14_2 C23_2 1_555 1_555
C24_2 C23_2 1_555 1_555
C25_2 C20_2 1_555 1_555
H15_2 C25_2 1_555 1_555
C26_4 C28_4 1_555 1_555
C27_4 H16_4 1_555 1_555
C28_4 C27_4 1_555 1_555
C29_4 C28_4 1_555 1_555
H17_4 C29_4 1_555 1_555
C30_4 C29_4 1_555 1_555
C31_2 C24_2 1_555 1_555
C32_4 C33_4 1_555 1_555
C33_4 C27_4 1_555 1_555
C34_4 C30_4 1_555 1_555
H18_4 C34_4 1_555 1_555
C35_2 H19_2 1_555 1_555
C36_2 H20_2 1_555 1_555
H21_2 C36_2 1_555 1_555
H22_2 C36_2 1_555 1_555
C37_2 C41_2 1_555 1_555
C39_2 C40_2 1_555 1_555
C40_2 H23_2 1_555 1_555
C41_2 C40_2 1_555 1_555
C42_2 C41_2 1_555 1_555
H24_2 C42_2 1_555 1_555
C43_2 C42_2 1_555 1_555
C44_2 C39_2 1_555 1_555
H25_2 C44_2 1_555 1_555
C45_2 H26_2 1_555 1_555
H27_2 C45_2 1_555 1_555
H28_2 C45_2 1_555 1_555
N1_2 C6_2 1_555 1_555
N2_2 C11_2 1_555 1_555
N3_2 C1_2 1_555 1_555
N4_2 C16_2 1_555 1_555
N5_2 C17_2 1_555 1_555
N6_2 C16_2 1_555 1_555
N7_2 C43_2 1_555 1_555
N8_2 C22_2 1_555 1_555
N9_4 C30_4 1_555 1_555
N10_2 C35_2 1_555 1_555
Ni1_2 N1_2 1_555 1_555
Ni2_2 N2_2 1_555 1_555
Ni3_2 O3_2 1_555 1_555
O1_4 C32_4 1_555 1_555
O2_4 C32_4 1_555 1_555
O3_2 C26_4 1_555 1_555
O4_4 C26_4 1_555 1_555
O5_2 C31_2 1_555 1_555
O6_2 C31_2 1_555 1_555
O7_2 C19_2 1_555 1_555
O8_2 C19_2 1_555 1_555
O9_2 C37_2 1_555 1_555
O10_2 C37_2 1_555 1_555
O12_2 Ni1_2 1_555 1_555
O14_2 Ni1_2 1_555 1_555
O15_2 Ni2_2 1_555 1_555
O16_2 C35_2 1_555 1_555
O17_2 Ni3_2 1_555 1_555
O18_2 Ni2_2 1_555 1_555
H30_4 C49_4 1_555 1_555
C50_4 C49_4 1_555 1_555
N11_4 N9_4 1_555 1_555
C51_4 C52_4 1_555 1_555
C53_4 C50_4 1_555 1_555
H31_4 C53_4 1_555 1_555
O21_4 C51_4 1_555 1_555
C72_3 C73_3 1_555 1_555
C73_3 C74_3 1_555 1_555
C74_3 H44_3 1_555 1_555
C75_3 C74_3 1_555 1_555
C76_3 C75_3 1_555 1_555
H45_3 C76_3 1_555 1_555
C77_3 C76_3 1_555 1_555
C78_3 C73_3 1_555 1_555
H46_3 C78_3 1_555 1_555
C79_3 C77_3 1_555 1_555
C80_3 H47_3 1_555 1_555
C81_3 H48_3 1_555 1_555
H49_3 C81_3 1_555 1_555
H50_3 C81_3 1_555 1_555
C82_3 C86_3 1_555 1_555
C83_3 C84_3 1_555 1_555
C84_3 C85_3 1_555 1_555
C85_3 H51_3 1_555 1_555
C86_3 C85_3 1_555 1_555
C87_3 C86_3 1_555 1_555
H52_3 C87_3 1_555 1_555
C88_3 C87_3 1_555 1_555
C89_3 C84_3 1_555 1_555
H53_3 C89_3 1_555 1_555
C90_3 H54_3 1_555 1_555
H55_3 C90_3 1_555 1_555
H56_3 C90_3 1_555 1_555
N18_3 C88_3 1_555 1_555
N19_3 C75_3 1_555 1_555
N20_3 C80_3 1_555 1_555
O23_3 C79_3 1_555 1_555
O24_3 C79_3 1_555 1_555
O25_3 C72_3 1_555 1_555
O26_3 C72_3 1_555 1_555
O27_3 C82_3 1_555 1_555
O29_3 C83_3 1_555 1_555
O31_2 C83_3 1_555 1_555
O34_3 C80_3 1_555 1_555
N21_2 Ni1_2 1_555 1_555
Ni9_2 N3_2 1_555 1_555
Ni10_2 O8_2 1_555 1_555
Ni11_2 O26_3 1_555 1_555
Ni12_2 O6_2 1_555 1_555
Ni16 O7_2 1_555 1_555
Ni17 O25_3 1_555 1_555
Ni17_2 O5_2 1_555 1_555
Ni17_3 O2_4 1_555 1_555
O37_2 Ni3_2 1_555 1_555
O39_2 Ni3_2 1_555 1_555
O41_2 Ni2_2 1_555 1_555
O43_2 Ni3_2 1_555 1_555
O45_2 Ni2_2 1_555 1_555
O48_2 Ni1_2 1_555 1_555
C5_2 N3_2 1_555 1_555
C10_2 N1_2 1_555 1_555
C15_2 N2_2 1_555 1_555
C17_2 N4_2 1_555 1_555
C18_2 N5_2 1_555 1_555
C18_2 N6_2 1_555 1_555
C24_2 C25_2 1_555 1_555
C33_4 C34_4 1_555 1_555
C36_2 N10_2 1_555 1_555
C43_2 C44_2 1_555 1_555
C45_2 N10_2 1_555 1_555
N7_2 N8_2 1_555 1_555
Ni1_2 O10_2 1_555 1_555
Ni2_2 O16_2 1_555 1_555
Ni3_2 O18_2 1_555 1_555
C50_4 N11_4 1_555 1_555
C52_4 C53_4 1_555 1_555
C77_3 C78_3 1_555 1_555
C81_3 N20_3 1_555 1_555
C88_3 C89_3 1_555 1_555
C90_3 N20_3 1_555 1_555
N18_3 N19_3 1_555 1_555
O23_3 Ni16 1_555 1_555
O24_3 Ni10_2 1_555 1_555
O31_2 Ni9_2 1_555 1_555
O12_2 H57_2 1_555 1_555
O12_2 H58_2 1_555 1_555
O15_2 H61_2 1_555 1_555
O15_2 H62_2 1_555 1_555
O14_2 H63_2 1_555 1_555
O14_2 H64_2 1_555 1_555
O33_3 H71_3 1_555 1_555
O33_3 H72_3 1_555 1_555
C46_4 C48_4 1_555 1_555
C47_4 H29_4 1_555 1_555
C48_4 C47_4 1_555 1_555
O19_4 C46_4 1_555 1_555
O20_4 C46_4 1_555 1_555
C54_3 H32_3 1_555 1_555
C55_3 C54_3 1_555 1_555
H33_3 C55_3 1_555 1_555
C56_3 C55_3 1_555 1_555
C57_3 C56_3 1_555 1_555
H34_3 C57_3 1_555 1_555
C58_3 C57_3 1_555 1_555
H35_3 C58_3 1_555 1_555
C59_3 H36_3 1_555 1_555
C60_3 C59_3 1_555 1_555
H37_3 C60_3 1_555 1_555
C61_3 C60_3 1_555 1_555
C62_3 C61_3 1_555 1_555
H38_3 C62_3 1_555 1_555
C63_3 C62_3 1_555 1_555
H39_3 C63_3 1_555 1_555
C64_3 H40_3 1_555 1_555
C65_3 C64_3 1_555 1_555
H41_3 C65_3 1_555 1_555
C66_3 C65_3 1_555 1_555
C67_3 C66_3 1_555 1_555
H42_3 C67_3 1_555 1_555
C68_3 C67_3 1_555 1_555
H43_3 C68_3 1_555 1_555
C69_3 C56_3 1_555 1_555
C70_3 C61_3 1_555 1_555
C71_3 C66_3 1_555 1_555
N12_3 C59_3 1_555 1_555
N13_3 C64_3 1_555 1_555
N21_2 C54_3 1_555 1_555
N15_3 C69_3 1_555 1_555
N16_3 C70_3 1_555 1_555
N17_3 C69_3 1_555 1_555
Ni8_2 N12_3 1_555 1_555
Ni5_3 N13_3 1_555 1_555
Ni6_3 O22_3 1_555 1_555
O30_3 Ni8_2 1_555 1_555
O32_3 Ni8_2 1_555 1_555
O35_3 Ni6_3 1_555 1_555
O36_3 Ni5_3 1_555 1_555
N22_2 Ni8_2 1_555 1_555
Ni16_2 O19_4 1_555 1_555
O38_3 Ni6_3 1_555 1_555
O40_3 Ni6_3 1_555 1_555
O42_3 Ni5_3 1_555 1_555
O44_3 Ni6_3 1_555 1_555
O46_3 Ni5_3 1_555 1_555
C58_3 N21_2 1_555 1_555
C63_3 N12_3 1_555 1_555
C68_3 N13_3 1_555 1_555
C70_3 N15_3 1_555 1_555
C71_3 N16_3 1_555 1_555
C71_3 N17_3 1_555 1_555
Ni8_2 O28_3 1_555 1_555
Ni6_3 O36_3 1_555 1_555
O30_3 H67_3 1_555 1_555
O30_3 H68_3 1_555 1_555
O32_3 H69_3 1_555 1_555
O32_3 H70_3 1_555 1_555
C46_5 C48_5 1_555 1_555
C47_5 H29_5 1_555 1_555
C48_5 C47_5 1_555 1_555
O19_5 C46_5 1_555 1_555
O20_5 C46_5 1_555 1_555
C54_4 H32_4 1_555 1_555
C55_4 C54_4 1_555 1_555
H33_4 C55_4 1_555 1_555
C56_4 C55_4 1_555 1_555
C57_4 C56_4 1_555 1_555
H34_4 C57_4 1_555 1_555
C58_4 C57_4 1_555 1_555
H35_4 C58_4 1_555 1_555
C59_4 H36_4 1_555 1_555
C60_4 C59_4 1_555 1_555
H37_4 C60_4 1_555 1_555
C61_4 C60_4 1_555 1_555
C62_4 C61_4 1_555 1_555
H38_4 C62_4 1_555 1_555
C63_4 C62_4 1_555 1_555
H39_4 C63_4 1_555 1_555
C64_4 H40_4 1_555 1_555
C65_4 C64_4 1_555 1_555
H41_4 C65_4 1_555 1_555
C66_4 C65_4 1_555 1_555
C67_4 C66_4 1_555 1_555
H42_4 C67_4 1_555 1_555
C68_4 C67_4 1_555 1_555
H43_4 C68_4 1_555 1_555
C69_4 C56_4 1_555 1_555
C70_4 C61_4 1_555 1_555
C71_4 C66_4 1_555 1_555
N12_4 C59_4 1_555 1_555
N13_4 C64_4 1_555 1_555
N22_2 C54_4 1_555 1_555
N15_4 C69_4 1_555 1_555
N16_4 C70_4 1_555 1_555
N17_4 C69_4 1_555 1_555
Ni9_2 N12_4 1_555 1_555
Ni5_4 N13_4 1_555 1_555
Ni6_4 O22_4 1_555 1_555
O30_4 Ni9_2 1_555 1_555
O32_4 Ni9_2 1_555 1_555
O35_4 Ni6_4 1_555 1_555
O36_4 Ni5_4 1_555 1_555
Ni17_3 O19_5 1_555 1_555
O38_4 Ni6_4 1_555 1_555
O40_4 Ni6_4 1_555 1_555
O42_4 Ni5_4 1_555 1_555
O44_4 Ni6_4 1_555 1_555
O46_4 Ni5_4 1_555 1_555
C58_4 N22_2 1_555 1_555
C63_4 N12_4 1_555 1_555
C68_4 N13_4 1_555 1_555
C70_4 N15_4 1_555 1_555
C71_4 N16_4 1_555 1_555
C71_4 N17_4 1_555 1_555
Ni9_2 O28_4 1_555 1_555
Ni6_4 O36_4 1_555 1_555
O30_4 H67_4 1_555 1_555
O30_4 H68_4 1_555 1_555
O32_4 H69_4 1_555 1_555
O32_4 H70_4 1_555 1_555
C29_5 C28_5 1_555 1_555
H17_5 C29_5 1_555 1_555
C30_5 C29_5 1_555 1_555
C34_5 C30_5 1_555 1_555
H18_5 C34_5 1_555 1_555
N9_5 C30_5 1_555 1_555
H30_5 C49_5 1_555 1_555
C50_5 C49_5 1_555 1_555
N11_5 N9_5 1_555 1_555
C51_5 C52_5 1_555 1_555
C53_5 C50_5 1_555 1_555
H31_5 C53_5 1_555 1_555
O21_5 C51_5 1_555 1_555
C72_4 C73_4 1_555 1_555
C73_4 C74_4 1_555 1_555
C74_4 H44_4 1_555 1_555
C75_4 C74_4 1_555 1_555
C76_4 C75_4 1_555 1_555
H45_4 C76_4 1_555 1_555
C77_4 C76_4 1_555 1_555
C78_4 C73_4 1_555 1_555
H46_4 C78_4 1_555 1_555
C79_4 C77_4 1_555 1_555
C80_4 H47_4 1_555 1_555
C81_4 H48_4 1_555 1_555
H49_4 C81_4 1_555 1_555
H50_4 C81_4 1_555 1_555
C82_4 C86_4 1_555 1_555
C84_4 C85_4 1_555 1_555
C85_4 H51_4 1_555 1_555
C86_4 C85_4 1_555 1_555
C87_4 C86_4 1_555 1_555
H52_4 C87_4 1_555 1_555
C88_4 C87_4 1_555 1_555
C89_4 C84_4 1_555 1_555
H53_4 C89_4 1_555 1_555
C90_4 H54_4 1_555 1_555
H55_4 C90_4 1_555 1_555
H56_4 C90_4 1_555 1_555
N18_4 C88_4 1_555 1_555
N19_4 C75_4 1_555 1_555
N20_4 C80_4 1_555 1_555
O23_4 C79_4 1_555 1_555
O24_4 C79_4 1_555 1_555
O25_4 C72_4 1_555 1_555
O26_4 C72_4 1_555 1_555
O27_4 C82_4 1_555 1_555
O34_4 C80_4 1_555 1_555
Ni12_2 O26_4 1_555 1_555
Ni17_2 O25_4 1_555 1_555
C50_5 N11_5 1_555 1_555
C52_5 C53_5 1_555 1_555
C77_4 C78_4 1_555 1_555
C81_4 N20_4 1_555 1_555
C88_4 C89_4 1_555 1_555
C90_4 N20_4 1_555 1_555
N18_4 N19_4 1_555 1_555
O23_4 Ni17 1_555 1_555
O24_4 Ni11_2 1_555 1_555
O33_4 H71_4 1_555 1_555
O33_4 H72_4 1_555 1_555
C27_5 H16_5 1_555 1_555
C32_5 C33_5 1_555 1_555
C33_5 C27_5 1_555 1_555
O1_5 C32_5 1_555 1_555
O2_5 C32_5 1_555 1_555
O38_3 C26_5 1_555 1_555
O29_4 C83_4 1_555 1_555
O48_2 C83_4 1_555 1_555
Ni17_4 O2_5 1_555 1_555
C27_6 H16_6 1_555 1_555
C32_6 C33_6 1_555 1_555
C33_6 C27_6 1_555 1_555
O1_6 C32_6 1_555 1_555
O2_6 C32_6 1_555 1_555
O38_4 C26_6 1_555 1_555
Ni16_2 O2_6 1_555 1_555
C29_6 C28_6 1_555 1_555
H17_6 C29_6 1_555 1_555
C30_6 C29_6 1_555 1_555
C34_6 C30_6 1_555 1_555
H18_6 C34_6 1_555 1_555
N9_6 C30_6 1_555 1_555
C46_6 C48_6 1_555 1_555
C47_6 H29_6 1_555 1_555
C48_6 C47_6 1_555 1_555
C49_6 C48_6 1_555 1_555
H30_6 C49_6 1_555 1_555
C50_6 C49_6 1_555 1_555
N11_6 N9_6 1_555 1_555
O19_6 C46_6 1_555 1_555
O20_6 C46_6 1_555 1_555
C51_6 C52_6 1_555 1_555
C52_6 C47_6 1_555 1_555
C53_6 C50_6 1_555 1_555
H31_6 C53_6 1_555 1_555
O21_6 C51_6 1_555 1_555
O37_2 C51_6 1_555 1_555
Ni17_4 O19_6 1_555 1_555
C50_6 N11_6 1_555 1_555
C52_6 C53_6 1_555 1_555
C6_3 H5_3 1_555 1_555
H7_3 C9_3 1_555 1_555
C10_3 C9_3 1_555 1_555
H8_3 C10_3 1_555 1_555
C37_3 C41_3 1_555 1_555
C38_3 C39_3 1_555 1_555
C39_3 C40_3 1_555 1_555
C40_3 H23_3 1_555 1_555
C41_3 C40_3 1_555 1_555
C42_3 C41_3 1_555 1_555
H24_3 C42_3 1_555 1_555
C43_3 C42_3 1_555 1_555
C44_3 C39_3 1_555 1_555
H25_3 C44_3 1_555 1_555
N1_3 C6_3 1_555 1_555
Ni1_3 N1_3 1_555 1_555
O9_3 C37_3 1_555 1_555
O10_3 C37_3 1_555 1_555
O11_3 C38_3 1_555 1_555
O12_3 Ni1_3 1_555 1_555
O13_3 C38_3 1_555 1_555
O14_3 Ni1_3 1_555 1_555
N21_3 Ni1_3 1_555 1_555
Ni8_3 O13_3 1_555 1_555
O48_3 Ni1_3 1_555 1_555
C10_3 N1_3 1_555 1_555
C43_3 C44_3 1_555 1_555
Ni1_3 O10_3 1_555 1_555
O12_3 H57_3 1_555 1_555
O12_3 H58_3 1_555 1_555
O14_3 H63_3 1_555 1_555
O14_3 H64_3 1_555 1_555
H6_3 C7_3 1_555 1_555
C8_3 C7_3 1_555 1_555
C11_3 H9_3 1_555 1_555
C12_3 C11_3 1_555 1_555
H10_3 C12_3 1_555 1_555
C13_3 C12_3 1_555 1_555
C14_3 C13_3 1_555 1_555
H11_3 C14_3 1_555 1_555
C15_3 C14_3 1_555 1_555
H12_3 C15_3 1_555 1_555
C16_3 C3_3 1_555 1_555
C17_3 C8_3 1_555 1_555
C18_3 C13_3 1_555 1_555
C19_3 C20_3 1_555 1_555
C20_3 C21_3 1_555 1_555
C21_3 H13_3 1_555 1_555
C22_3 C21_3 1_555 1_555
C23_3 C22_3 1_555 1_555
H14_3 C23_3 1_555 1_555
C24_3 C23_3 1_555 1_555
C25_3 C20_3 1_555 1_555
H15_3 C25_3 1_555 1_555
C26_7 C28_7 1_555 1_555
C29_7 C28_7 1_555 1_555
H17_7 C29_7 1_555 1_555
C31_3 C24_3 1_555 1_555
C35_3 H19_3 1_555 1_555
C36_3 H20_3 1_555 1_555
H21_3 C36_3 1_555 1_555
H22_3 C36_3 1_555 1_555
C45_3 H26_3 1_555 1_555
N2_3 C11_3 1_555 1_555
N4_3 C16_3 1_555 1_555
N5_3 C17_3 1_555 1_555
N6_3 C16_3 1_555 1_555
N8_3 C22_3 1_555 1_555
N10_3 C35_3 1_555 1_555
Ni2_3 N2_3 1_555 1_555
Ni3_3 O3_3 1_555 1_555
O3_3 C26_7 1_555 1_555
O4_7 C26_7 1_555 1_555
O5_3 C31_3 1_555 1_555
O6_3 C31_3 1_555 1_555
O7_3 C19_3 1_555 1_555
O8_3 C19_3 1_555 1_555
O15_3 Ni2_3 1_555 1_555
O16_3 C35_3 1_555 1_555
O17_3 Ni3_3 1_555 1_555
O18_3 Ni2_3 1_555 1_555
C47_7 H29_7 1_555 1_555
C51_7 C52_7 1_555 1_555
C52_7 C47_7 1_555 1_555
C53_7 C50_7 1_555 1_555
H31_7 C53_7 1_555 1_555
O21_7 C51_7 1_555 1_555
O22_5 C51_7 1_555 1_555
C54_5 H32_5 1_555 1_555
C55_5 C54_5 1_555 1_555
H33_5 C55_5 1_555 1_555
C56_5 C55_5 1_555 1_555
C57_5 C56_5 1_555 1_555
H34_5 C57_5 1_555 1_555
C58_5 C57_5 1_555 1_555
H35_5 C58_5 1_555 1_555
H37_5 C60_5 1_555 1_555
C61_5 C60_5 1_555 1_555
C64_5 H40_5 1_555 1_555
C65_5 C64_5 1_555 1_555
H41_5 C65_5 1_555 1_555
C66_5 C65_5 1_555 1_555
C67_5 C66_5 1_555 1_555
H42_5 C67_5 1_555 1_555
C68_5 C67_5 1_555 1_555
H43_5 C68_5 1_555 1_555
C69_5 C56_5 1_555 1_555
C70_5 C61_5 1_555 1_555
C71_5 C66_5 1_555 1_555
C72_5 C73_5 1_555 1_555
C73_5 C74_5 1_555 1_555
C74_5 H44_5 1_555 1_555
C75_5 C74_5 1_555 1_555
C76_5 C75_5 1_555 1_555
H45_5 C76_5 1_555 1_555
C77_5 C76_5 1_555 1_555
C78_5 C73_5 1_555 1_555
H46_5 C78_5 1_555 1_555
C79_5 C77_5 1_555 1_555
C80_5 H47_5 1_555 1_555
C81_5 H48_5 1_555 1_555
H49_5 C81_5 1_555 1_555
H50_5 C81_5 1_555 1_555
C90_5 H54_5 1_555 1_555
H55_5 C90_5 1_555 1_555
H56_5 C90_5 1_555 1_555
N13_5 C64_5 1_555 1_555
N21_3 C54_5 1_555 1_555
N15_5 C69_5 1_555 1_555
N16_5 C70_5 1_555 1_555
N17_5 C69_5 1_555 1_555
N19_5 C75_5 1_555 1_555
N20_5 C80_5 1_555 1_555
Ni5_5 N13_5 1_555 1_555
Ni6_5 O22_5 1_555 1_555
O23_5 C79_5 1_555 1_555
O24_5 C79_5 1_555 1_555
O25_5 C72_5 1_555 1_555
O26_5 C72_5 1_555 1_555
O33_5 Ni5_5 1_555 1_555
O34_5 C80_5 1_555 1_555
O35_5 Ni6_5 1_555 1_555
O36_5 Ni5_5 1_555 1_555
Ni10_3 O8_3 1_555 1_555
Ni11_3 O26_5 1_555 1_555
Ni12_3 O6_3 1_555 1_555
Ni16_2 O7_3 1_555 1_555
Ni17_3 O25_5 1_555 1_555
Ni17_4 O5_3 1_555 1_555
O37_3 Ni3_3 1_555 1_555
O38_5 Ni6_5 1_555 1_555
O39_3 Ni3_3 1_555 1_555
O40_5 Ni6_5 1_555 1_555
O41_3 Ni2_3 1_555 1_555
O42_5 Ni5_5 1_555 1_555
O43_3 Ni3_3 1_555 1_555
O44_5 Ni6_5 1_555 1_555
O45_3 Ni2_3 1_555 1_555
O46_5 Ni5_5 1_555 1_555
C15_3 N2_3 1_555 1_555
C17_3 N4_3 1_555 1_555
C18_3 N5_3 1_555 1_555
C18_3 N6_3 1_555 1_555
C24_3 C25_3 1_555 1_555
C36_3 N10_3 1_555 1_555
C45_3 N10_3 1_555 1_555
N7_3 N8_3 1_555 1_555
Ni2_3 O16_3 1_555 1_555
Ni3_3 O18_3 1_555 1_555
C50_7 N11_7 1_555 1_555
C52_7 C53_7 1_555 1_555
C58_5 N21_3 1_555 1_555
C68_5 N13_5 1_555 1_555
C70_5 N15_5 1_555 1_555
C71_5 N16_5 1_555 1_555
C71_5 N17_5 1_555 1_555
C77_5 C78_5 1_555 1_555
C81_5 N20_5 1_555 1_555
C90_5 N20_5 1_555 1_555
N18_5 N19_5 1_555 1_555
Ni5_5 O34_5 1_555 1_555
Ni6_5 O36_5 1_555 1_555
O23_5 Ni16_2 1_555 1_555
O24_5 Ni10_3 1_555 1_555
O15_3 H61_3 1_555 1_555
O15_3 H62_3 1_555 1_555
O33_5 H71_5 1_555 1_555
O33_5 H72_5 1_555 1_555
C27_7 H16_7 1_555 1_555
C32_7 C33_7 1_555 1_555
C33_7 C27_7 1_555 1_555
C34_7 C30_7 1_555 1_555
H18_7 C34_7 1_555 1_555
N9_7 C30_7 1_555 1_555
O1_7 C32_7 1_555 1_555
O2_7 C32_7 1_555 1_555
C46_7 C48_7 1_555 1_555
C49_7 C48_7 1_555 1_555
H30_7 C49_7 1_555 1_555
O19_7 C46_7 1_555 1_555
O20_7 C46_7 1_555 1_555
Ni13 O19_7 1_555 1_555
Ni14 O2_7 1_555 1_555
C33_7 C34_7 1_555 1_555
C1_3 H1_3 1_555 1_555
C2_3 C1_3 1_555 1_555
H3_3 C4_3 1_555 1_555
C5_3 C4_3 1_555 1_555
H4_3 C5_3 1_555 1_555
N3_3 C1_3 1_555 1_555
C59_5 H36_5 1_555 1_555
H38_5 C62_5 1_555 1_555
C63_5 C62_5 1_555 1_555
H39_5 C63_5 1_555 1_555
C82_5 C86_5 1_555 1_555
C83_5 C84_5 1_555 1_555
C84_5 C85_5 1_555 1_555
C85_5 H51_5 1_555 1_555
C86_5 C85_5 1_555 1_555
C87_5 C86_5 1_555 1_555
H52_5 C87_5 1_555 1_555
C88_5 C87_5 1_555 1_555
C89_5 C84_5 1_555 1_555
H53_5 C89_5 1_555 1_555
N12_5 C59_5 1_555 1_555
Ni8_3 N12_5 1_555 1_555
O27_5 C82_5 1_555 1_555
O28_5 C82_5 1_555 1_555
O29_5 C83_5 1_555 1_555
O30_5 Ni8_3 1_555 1_555
O31_3 C83_5 1_555 1_555
O32_5 Ni8_3 1_555 1_555
N22_3 Ni8_3 1_555 1_555
Ni9_3 N3_3 1_555 1_555
C5_3 N3_3 1_555 1_555
C63_5 N12_5 1_555 1_555
C88_5 C89_5 1_555 1_555
Ni8_3 O28_5 1_555 1_555
O31_3 Ni9_3 1_555 1_555
O30_5 H67_5 1_555 1_555
O30_5 H68_5 1_555 1_555
O32_5 H69_5 1_555 1_555
O32_5 H70_5 1_555 1_555
C54_6 H32_6 1_555 1_555
C55_6 C54_6 1_555 1_555
H34_6 C57_6 1_555 1_555
C58_6 C57_6 1_555 1_555
H35_6 C58_6 1_555 1_555
N22_3 C54_6 1_555 1_555
C58_6 N22_3 1_555 1_555
C27_8 H16_8 1_555 1_555
C32_8 C33_8 1_555 1_555
C33_8 C27_8 1_555 1_555
C34_8 C30_8 1_555 1_555
H18_8 C34_8 1_555 1_555
N9_8 C30_8 1_555 1_555
O1_8 C32_8 1_555 1_555
O2_8 C32_8 1_555 1_555
C46_8 C48_8 1_555 1_555
C49_8 C48_8 1_555 1_555
H30_8 C49_8 1_555 1_555
O19_8 C46_8 1_555 1_555
O20_8 C46_8 1_555 1_555
Ni14 O19_8 1_555 1_555
Ni15 O2_8 1_555 1_555
C33_8 C34_8 1_555 1_555
C26_8 C28_8 1_555 1_555
C29_8 C28_8 1_555 1_555
H17_8 C29_8 1_555 1_555
O38_5 C26_8 1_555 1_555
O4_8 C26_8 1_555 1_555
C47_8 H29_8 1_555 1_555
C51_8 C52_8 1_555 1_555
C52_8 C47_8 1_555 1_555
C53_8 C50_8 1_555 1_555
H31_8 C53_8 1_555 1_555
O21_8 C51_8 1_555 1_555
O22_6 C51_8 1_555 1_555
C59_6 H36_6 1_555 1_555
C60_6 C59_6 1_555 1_555
H37_6 C60_6 1_555 1_555
C61_6 C60_6 1_555 1_555
C62_6 C61_6 1_555 1_555
H38_6 C62_6 1_555 1_555
C63_6 C62_6 1_555 1_555
H39_6 C63_6 1_555 1_555
C64_6 H40_6 1_555 1_555
C65_6 C64_6 1_555 1_555
H41_6 C65_6 1_555 1_555
C66_6 C65_6 1_555 1_555
C67_6 C66_6 1_555 1_555
H42_6 C67_6 1_555 1_555
C68_6 C67_6 1_555 1_555
H43_6 C68_6 1_555 1_555
C69_6 C56_6 1_555 1_555
C70_6 C61_6 1_555 1_555
C71_6 C66_6 1_555 1_555
C72_6 C73_6 1_555 1_555
C73_6 C74_6 1_555 1_555
C74_6 H44_6 1_555 1_555
C75_6 C74_6 1_555 1_555
C76_6 C75_6 1_555 1_555
H45_6 C76_6 1_555 1_555
C77_6 C76_6 1_555 1_555
C78_6 C73_6 1_555 1_555
H46_6 C78_6 1_555 1_555
C79_6 C77_6 1_555 1_555
C80_6 H47_6 1_555 1_555
C81_6 H48_6 1_555 1_555
H49_6 C81_6 1_555 1_555
H50_6 C81_6 1_555 1_555
C82_6 C86_6 1_555 1_555
C83_6 C84_6 1_555 1_555
C84_6 C85_6 1_555 1_555
C85_6 H51_6 1_555 1_555
C86_6 C85_6 1_555 1_555
C87_6 C86_6 1_555 1_555
H52_6 C87_6 1_555 1_555
C88_6 C87_6 1_555 1_555
C89_6 C84_6 1_555 1_555
H53_6 C89_6 1_555 1_555
C90_6 H54_6 1_555 1_555
N12_6 C59_6 1_555 1_555
N13_6 C64_6 1_555 1_555
N15_6 C69_6 1_555 1_555
N16_6 C70_6 1_555 1_555
N17_6 C69_6 1_555 1_555
N18_6 C88_6 1_555 1_555
N19_6 C75_6 1_555 1_555
N20_6 C80_6 1_555 1_555
Ni9_3 N12_6 1_555 1_555
Ni5_6 N13_6 1_555 1_555
Ni6_6 O22_6 1_555 1_555
O23_6 C79_6 1_555 1_555
O24_6 C79_6 1_555 1_555
O25_6 C72_6 1_555 1_555
O26_6 C72_6 1_555 1_555
O27_6 C82_6 1_555 1_555
O28_6 C82_6 1_555 1_555
O29_6 C83_6 1_555 1_555
O30_6 Ni9_3 1_555 1_555
O48_3 C83_6 1_555 1_555
O32_6 Ni9_3 1_555 1_555
O33_6 Ni5_6 1_555 1_555
O34_6 C80_6 1_555 1_555
O35_6 Ni6_6 1_555 1_555
O36_6 Ni5_6 1_555 1_555
Ni12_3 O26_6 1_555 1_555
Ni17_4 O25_6 1_555 1_555
O38_6 Ni6_6 1_555 1_555
O40_6 Ni6_6 1_555 1_555
O42_6 Ni5_6 1_555 1_555
O44_6 Ni6_6 1_555 1_555
O46_6 Ni5_6 1_555 1_555
C50_8 N11_8 1_555 1_555
C52_8 C53_8 1_555 1_555
C63_6 N12_6 1_555 1_555
C68_6 N13_6 1_555 1_555
C70_6 N15_6 1_555 1_555
C71_6 N16_6 1_555 1_555
C71_6 N17_6 1_555 1_555
C77_6 C78_6 1_555 1_555
C81_6 N20_6 1_555 1_555
C88_6 C89_6 1_555 1_555
C90_6 N20_6 1_555 1_555
N18_6 N19_6 1_555 1_555
Ni9_3 O28_6 1_555 1_555
Ni5_6 O34_6 1_555 1_555
Ni6_6 O36_6 1_555 1_555
O23_6 Ni17_3 1_555 1_555
O24_6 Ni11_3 1_555 1_555
O30_6 H67_6 1_555 1_555
O30_6 H68_6 1_555 1_555
O32_6 H69_6 1_555 1_555
O32_6 H70_6 1_555 1_555
O33_6 H71_6 1_555 1_555
O33_6 H72_6 1_555 1_555
C27_9 H16_9 1_555 1_555
C32_9 C33_9 1_555 1_555
C33_9 C27_9 1_555 1_555
C34_9 C30_9 1_555 1_555
H18_9 C34_9 1_555 1_555
N9_9 C30_9 1_555 1_555
O1_9 C32_9 1_555 1_555
O2_9 C32_9 1_555 1_555
C46_9 C48_9 1_555 1_555
C49_9 C48_9 1_555 1_555
H30_9 C49_9 1_555 1_555
O19_9 C46_9 1_555 1_555
O20_9 C46_9 1_555 1_555
Ni15 O19_9 1_555 1_555
Ni13 O2_9 1_555 1_555
C33_9 C34_9 1_555 1_555
C26_9 C28_9 1_555 1_555
C29_9 C28_9 1_555 1_555
H17_9 C29_9 1_555 1_555
O38_6 C26_9 1_555 1_555
O4_9 C26_9 1_555 1_555
C47_9 H29_9 1_555 1_555
C51_9 C52_9 1_555 1_555
C52_9 C47_9 1_555 1_555
C53_9 C50_9 1_555 1_555
H31_9 C53_9 1_555 1_555
O21_9 C51_9 1_555 1_555
O37_3 C51_9 1_555 1_555
C50_9 N11_9 1_555 1_555
C52_9 C53_9 1_555 1_555
C36_4 H20_4 1_555 1_555
H21_4 C36_4 1_555 1_555
H22_4 C36_4 1_555 1_555
C45_4 H26_4 1_555 1_555
H27_4 C45_4 1_555 1_555
H28_4 C45_4 1_555 1_555
N10_4 C35_4 1_555 1_555
C54_7 H32_7 1_555 1_555
C55_7 C54_7 1_555 1_555
H33_7 C55_7 1_555 1_555
C56_7 C55_7 1_555 1_555
C57_7 C56_7 1_555 1_555
H34_7 C57_7 1_555 1_555
C58_7 C57_7 1_555 1_555
C59_7 H36_7 1_555 1_555
C60_7 C59_7 1_555 1_555
H37_7 C60_7 1_555 1_555
C61_7 C60_7 1_555 1_555
C62_7 C61_7 1_555 1_555
H38_7 C62_7 1_555 1_555
C63_7 C62_7 1_555 1_555
H39_7 C63_7 1_555 1_555
C64_7 H40_7 1_555 1_555
C65_7 C64_7 1_555 1_555
H41_7 C65_7 1_555 1_555
C66_7 C65_7 1_555 1_555
C67_7 C66_7 1_555 1_555
H42_7 C67_7 1_555 1_555
C68_7 C67_7 1_555 1_555
H43_7 C68_7 1_555 1_555
C69_7 C56_7 1_555 1_555
C70_7 C61_7 1_555 1_555
C71_7 C66_7 1_555 1_555
C72_7 C73_7 1_555 1_555
C73_7 C74_7 1_555 1_555
C74_7 H44_7 1_555 1_555
C75_7 C74_7 1_555 1_555
C76_7 C75_7 1_555 1_555
H45_7 C76_7 1_555 1_555
C77_7 C76_7 1_555 1_555
C78_7 C73_7 1_555 1_555
H46_7 C78_7 1_555 1_555
C82_7 C86_7 1_555 1_555
C83_7 C84_7 1_555 1_555
C84_7 C85_7 1_555 1_555
C85_7 H51_7 1_555 1_555
C86_7 C85_7 1_555 1_555
C87_7 C86_7 1_555 1_555
H52_7 C87_7 1_555 1_555
C88_7 C87_7 1_555 1_555
C89_7 C84_7 1_555 1_555
H53_7 C89_7 1_555 1_555
N12_7 C59_7 1_555 1_555
N13_7 C64_7 1_555 1_555
N14 C54_7 1_555 1_555
N15_7 C69_7 1_555 1_555
N16_7 C70_7 1_555 1_555
N17_7 C69_7 1_555 1_555
N18_7 C88_7 1_555 1_555
N19_7 C75_7 1_555 1_555
Ni4 N12_7 1_555 1_555
Ni11_3 N13_7 1_555 1_555
O44_5 C72_7 1_555 1_555
O46_5 C72_7 1_555 1_555
O27_7 C82_7 1_555 1_555
O28_7 C82_7 1_555 1_555
O29_7 C83_7 1_555 1_555
O30_7 Ni4 1_555 1_555
O31_4 C83_7 1_555 1_555
O32_7 Ni4 1_555 1_555
O33_7 Ni11_3 1_555 1_555
O35_7 Ni17_3 1_555 1_555
O36_7 Ni11_3 1_555 1_555
N22_4 Ni4 1_555 1_555
O47 Ni4 1_555 1_555
C36_4 N10_4 1_555 1_555
C45_4 N10_4 1_555 1_555
C58_7 N14 1_555 1_555
C63_7 N12_7 1_555 1_555
C68_7 N13_7 1_555 1_555
C70_7 N15_7 1_555 1_555
C71_7 N16_7 1_555 1_555
C71_7 N17_7 1_555 1_555
C77_7 C78_7 1_555 1_555
C88_7 C89_7 1_555 1_555
N18_7 N19_7 1_555 1_555
Ni4 O28_7 1_555 1_555
Ni11_3 O34_7 1_555 1_555
Ni17_3 O36_7 1_555 1_555
O31_4 Ni9_4 1_555 1_555
O30_7 H67_7 1_555 1_555
O30_7 H68_7 1_555 1_555
O32_7 H69_7 1_555 1_555
O32_7 H70_7 1_555 1_555
O33_7 H71_7 1_555 1_555
O33_7 H72_7 1_555 1_555
C1_4 H1_4 1_555 1_555
C2_4 C1_4 1_555 1_555
H2_4 C2_4 1_555 1_555
C3_4 C2_4 1_555 1_555
C4_4 C3_4 1_555 1_555
H3_4 C4_4 1_555 1_555
C5_4 C4_4 1_555 1_555
C6_4 H5_4 1_555 1_555
C7_4 C6_4 1_555 1_555
H6_4 C7_4 1_555 1_555
C8_4 C7_4 1_555 1_555
C9_4 C8_4 1_555 1_555
H7_4 C9_4 1_555 1_555
C11_4 H9_4 1_555 1_555
C12_4 C11_4 1_555 1_555
H10_4 C12_4 1_555 1_555
C13_4 C12_4 1_555 1_555
C14_4 C13_4 1_555 1_555
H11_4 C14_4 1_555 1_555
C15_4 C14_4 1_555 1_555
H12_4 C15_4 1_555 1_555
C16_4 C3_4 1_555 1_555
C17_4 C8_4 1_555 1_555
C18_4 C13_4 1_555 1_555
N1_4 C6_4 1_555 1_555
N2_4 C11_4 1_555 1_555
N3_4 C1_4 1_555 1_555
N4_4 C16_4 1_555 1_555
N5_4 C17_4 1_555 1_555
N6_4 C16_4 1_555 1_555
Ni10_3 N2_4 1_555 1_555
O43_3 C19_4 1_555 1_555
O45_3 C19_4 1_555 1_555
O15_4 Ni10_3 1_555 1_555
O17_4 Ni16_2 1_555 1_555
O18_4 Ni10_3 1_555 1_555
O39_3 C79_7 1_555 1_555
O41_3 C79_7 1_555 1_555
C5_4 N3_4 1_555 1_555
C15_4 N2_4 1_555 1_555
C17_4 N4_4 1_555 1_555
C18_4 N5_4 1_555 1_555
C18_4 N6_4 1_555 1_555
Ni10_3 O16_4 1_555 1_555
Ni16_2 O18_4 1_555 1_555
O15_4 H61_4 1_555 1_555
O15_4 H62_4 1_555 1_555
O14_4 H63_4 1_555 1_555
C81_7 H48_7 1_555 1_555
H49_7 C81_7 1_555 1_555
H50_7 C81_7 1_555 1_555
C90_7 H54_7 1_555 1_555
H55_7 C90_7 1_555 1_555
H56_7 C90_7 1_555 1_555
N20_7 C80_7 1_555 1_555
C81_7 N20_7 1_555 1_555
C90_7 N20_7 1_555 1_555
H8_4 C10_4 1_555 1_555
C20_4 C21_4 1_555 1_555
C21_4 H13_4 1_555 1_555
C22_4 C21_4 1_555 1_555
C23_4 C22_4 1_555 1_555
H14_4 C23_4 1_555 1_555
C24_4 C23_4 1_555 1_555
C25_4 C20_4 1_555 1_555
H15_4 C25_4 1_555 1_555
C31_4 C24_4 1_555 1_555
C37_4 C41_4 1_555 1_555
C38_4 C39_4 1_555 1_555
C39_4 C40_4 1_555 1_555
C40_4 H23_4 1_555 1_555
C41_4 C40_4 1_555 1_555
C42_4 C41_4 1_555 1_555
H24_4 C42_4 1_555 1_555
C43_4 C42_4 1_555 1_555
C44_4 C39_4 1_555 1_555
H25_4 C44_4 1_555 1_555
N7_4 C43_4 1_555 1_555
N8_4 C22_4 1_555 1_555
O40_6 C31_4 1_555 1_555
O42_6 C31_4 1_555 1_555
O9_4 C37_4 1_555 1_555
O10_4 C37_4 1_555 1_555
O11_4 C38_4 1_555 1_555
O12_4 Ni7 1_555 1_555
O47 C38_4 1_555 1_555
O48_4 Ni7 1_555 1_555
C24_4 C25_4 1_555 1_555
C43_4 C44_4 1_555 1_555
N7_4 N8_4 1_555 1_555
Ni7 O10_4 1_555 1_555
O12_4 H57_4 1_555 1_555
O12_4 H58_4 1_555 1_555
O40_5 C79_8 1_555 1_555
O42_5 C79_8 1_555 1_555
H39_8 C63_8 1_555 1_555
C73_8 C74_8 1_555 1_555
C74_8 H44_8 1_555 1_555
C75_8 C74_8 1_555 1_555
C76_8 C75_8 1_555 1_555
H45_8 C76_8 1_555 1_555
C77_8 C76_8 1_555 1_555
C78_8 C73_8 1_555 1_555
H46_8 C78_8 1_555 1_555
C82_8 C86_8 1_555 1_555
C83_8 C84_8 1_555 1_555
C84_8 C85_8 1_555 1_555
C85_8 H51_8 1_555 1_555
C86_8 C85_8 1_555 1_555
C87_8 C86_8 1_555 1_555
H52_8 C87_8 1_555 1_555
C88_8 C87_8 1_555 1_555
C89_8 C84_8 1_555 1_555
H53_8 C89_8 1_555 1_555
N18_8 C88_8 1_555 1_555
N19_8 C75_8 1_555 1_555
O27_8 C82_8 1_555 1_555
O28_8 C82_8 1_555 1_555
O29_8 C83_8 1_555 1_555
O30_8 Ni9_4 1_555 1_555
O48_4 C83_8 1_555 1_555
C77_8 C78_8 1_555 1_555
C88_8 C89_8 1_555 1_555
N18_8 N19_8 1_555 1_555
Ni9_4 O28_8 1_555 1_555
O30_8 H67_8 1_555 1_555
O30_8 H68_8 1_555 1_555
C54_8 H32_8 1_555 1_555
C55_8 C54_8 1_555 1_555
H33_8 C55_8 1_555 1_555
C56_8 C55_8 1_555 1_555
C57_8 C56_8 1_555 1_555
H34_8 C57_8 1_555 1_555
C58_8 C57_8 1_555 1_555
H35_8 C58_8 1_555 1_555
C59_8 H36_8 1_555 1_555
C60_8 C59_8 1_555 1_555
H37_8 C60_8 1_555 1_555
C61_8 C60_8 1_555 1_555
C62_8 C61_8 1_555 1_555
H38_8 C62_8 1_555 1_555
C64_8 H40_8 1_555 1_555
C65_8 C64_8 1_555 1_555
H41_8 C65_8 1_555 1_555
C66_8 C65_8 1_555 1_555
C67_8 C66_8 1_555 1_555
H42_8 C67_8 1_555 1_555
C68_8 C67_8 1_555 1_555
H43_8 C68_8 1_555 1_555
C69_8 C56_8 1_555 1_555
C70_8 C61_8 1_555 1_555
C71_8 C66_8 1_555 1_555
C80_8 H47_8 1_555 1_555
C81_8 H48_8 1_555 1_555
H49_8 C81_8 1_555 1_555
H50_8 C81_8 1_555 1_555
C90_8 H54_8 1_555 1_555
H55_8 C90_8 1_555 1_555
H56_8 C90_8 1_555 1_555
N12_8 C59_8 1_555 1_555
N13_8 C64_8 1_555 1_555
N22_4 C54_8 1_555 1_555
N15_8 C69_8 1_555 1_555
N16_8 C70_8 1_555 1_555
N17_8 C69_8 1_555 1_555
N20_8 C80_8 1_555 1_555
Ni12_3 N13_8 1_555 1_555
O44_6 C72_8 1_555 1_555
O46_6 C72_8 1_555 1_555
O33_8 Ni12_3 1_555 1_555
O34_8 C80_8 1_555 1_555
O35_8 Ni17_4 1_555 1_555
O36_8 Ni12_3 1_555 1_555
C58_8 N22_4 1_555 1_555
C68_8 N13_8 1_555 1_555
C70_8 N15_8 1_555 1_555
C71_8 N16_8 1_555 1_555
C71_8 N17_8 1_555 1_555
C81_8 N20_8 1_555 1_555
C90_8 N20_8 1_555 1_555
Ni12_3 O34_8 1_555 1_555
Ni17_4 O36_8 1_555 1_555
O32_8 H69_8 1_555 1_555
O33_8 H71_8 1_555 1_555
O33_8 H72_8 1_555 1_555
C54_9 H32_9 1_555 1_555
C55_9 C54_9 1_555 1_555
H33_9 C55_9 1_555 1_555
C56_9 C55_9 1_555 1_555
C57_9 C56_9 1_555 1_555
H34_9 C57_9 1_555 1_555
C58_9 C57_9 1_555 1_555
H35_9 C58_9 1_555 1_555
C59_9 H36_9 1_555 1_555
C60_9 C59_9 1_555 1_555
H37_9 C60_9 1_555 1_555
C61_9 C60_9 1_555 1_555
C62_9 C61_9 1_555 1_555
H38_9 C62_9 1_555 1_555
C63_9 C62_9 1_555 1_555
H39_9 C63_9 1_555 1_555
C64_9 H40_9 1_555 1_555
C65_9 C64_9 1_555 1_555
H41_9 C65_9 1_555 1_555
C66_9 C65_9 1_555 1_555
C67_9 C66_9 1_555 1_555
H42_9 C67_9 1_555 1_555
C68_9 C67_9 1_555 1_555
H43_9 C68_9 1_555 1_555
C69_9 C56_9 1_555 1_555
C70_9 C61_9 1_555 1_555
C71_9 C66_9 1_555 1_555
N12_9 C59_9 1_555 1_555
N13_9 C64_9 1_555 1_555
N14_2 C54_9 1_555 1_555
N15_9 C69_9 1_555 1_555
N16_9 C70_9 1_555 1_555
N17_9 C69_9 1_555 1_555
Ni4_2 N12_9 1_555 1_555
Ni11_2 N13_9 1_555 1_555
O30_9 Ni4_2 1_555 1_555
O32_9 Ni4_2 1_555 1_555
O35_9 Ni17 1_555 1_555
O36_9 Ni11_2 1_555 1_555
N22_5 Ni4_2 1_555 1_555
Ni7_2 N14_2 1_555 1_555
O47_2 Ni4_2 1_555 1_555
C58_9 N14_2 1_555 1_555
C63_9 N12_9 1_555 1_555
C68_9 N13_9 1_555 1_555
C70_9 N15_9 1_555 1_555
C71_9 N16_9 1_555 1_555
C71_9 N17_9 1_555 1_555
Ni4_2 O28_9 1_555 1_555
Ni17 O36_9 1_555 1_555
O30_9 H67_9 1_555 1_555
O30_9 H68_9 1_555 1_555
O32_9 H69_9 1_555 1_555
O32_9 H70_9 1_555 1_555
C1_5 H1_5 1_555 1_555
C2_5 C1_5 1_555 1_555
H2_5 C2_5 1_555 1_555
C3_5 C2_5 1_555 1_555
C4_5 C3_5 1_555 1_555
H3_5 C4_5 1_555 1_555
C5_5 C4_5 1_555 1_555
H4_5 C5_5 1_555 1_555
C6_5 H5_5 1_555 1_555
C7_5 C6_5 1_555 1_555
H6_5 C7_5 1_555 1_555
C8_5 C7_5 1_555 1_555
C9_5 C8_5 1_555 1_555
H7_5 C9_5 1_555 1_555
C10_5 C9_5 1_555 1_555
H8_5 C10_5 1_555 1_555
C11_5 H9_5 1_555 1_555
C12_5 C11_5 1_555 1_555
H10_5 C12_5 1_555 1_555
C13_5 C12_5 1_555 1_555
C14_5 C13_5 1_555 1_555
H11_5 C14_5 1_555 1_555
C15_5 C14_5 1_555 1_555
H12_5 C15_5 1_555 1_555
C16_5 C3_5 1_555 1_555
C17_5 C8_5 1_555 1_555
C18_5 C13_5 1_555 1_555
C19_5 C20_5 1_555 1_555
C20_5 C21_5 1_555 1_555
C21_5 H13_5 1_555 1_555
C22_5 C21_5 1_555 1_555
C23_5 C22_5 1_555 1_555
H14_5 C23_5 1_555 1_555
C24_5 C23_5 1_555 1_555
C25_5 C20_5 1_555 1_555
H15_5 C25_5 1_555 1_555
C31_5 C24_5 1_555 1_555
C35_5 H19_5 1_555 1_555
C36_5 H20_5 1_555 1_555
H21_5 C36_5 1_555 1_555
H22_5 C36_5 1_555 1_555
C37_5 C41_5 1_555 1_555
C39_5 C40_5 1_555 1_555
C40_5 H23_5 1_555 1_555
C41_5 C40_5 1_555 1_555
C42_5 C41_5 1_555 1_555
H24_5 C42_5 1_555 1_555
C43_5 C42_5 1_555 1_555
C44_5 C39_5 1_555 1_555
H25_5 C44_5 1_555 1_555
C45_5 H26_5 1_555 1_555
H27_5 C45_5 1_555 1_555
H28_5 C45_5 1_555 1_555
N1_5 C6_5 1_555 1_555
N2_5 C11_5 1_555 1_555
N3_5 C1_5 1_555 1_555
N4_5 C16_5 1_555 1_555
N5_5 C17_5 1_555 1_555
N6_5 C16_5 1_555 1_555
N7_5 C43_5 1_555 1_555
N8_5 C22_5 1_555 1_555
N10_5 C35_5 1_555 1_555
Ni7_2 N1_5 1_555 1_555
Ni10_2 N2_5 1_555 1_555
O40_4 C31_5 1_555 1_555
O42_4 C31_5 1_555 1_555
O43_2 C19_5 1_555 1_555
O45_2 C19_5 1_555 1_555
O9_5 C37_5 1_555 1_555
O10_5 C37_5 1_555 1_555
O12_5 Ni7_2 1_555 1_555
O14_5 Ni7_2 1_555 1_555
O15_5 Ni10_2 1_555 1_555
O16_5 C35_5 1_555 1_555
O17_5 Ni16 1_555 1_555
O18_5 Ni10_2 1_555 1_555
C72_9 C73_9 1_555 1_555
C73_9 C74_9 1_555 1_555
C74_9 H44_9 1_555 1_555
C75_9 C74_9 1_555 1_555
C76_9 C75_9 1_555 1_555
H45_9 C76_9 1_555 1_555
C77_9 C76_9 1_555 1_555
C78_9 C73_9 1_555 1_555
H46_9 C78_9 1_555 1_555
C79_9 C77_9 1_555 1_555
C80_9 H47_9 1_555 1_555
C81_9 H48_9 1_555 1_555
H49_9 C81_9 1_555 1_555
H50_9 C81_9 1_555 1_555
C82_9 C86_9 1_555 1_555
C83_9 C84_9 1_555 1_555
C84_9 C85_9 1_555 1_555
C85_9 H51_9 1_555 1_555
C86_9 C85_9 1_555 1_555
C87_9 C86_9 1_555 1_555
H52_9 C87_9 1_555 1_555
C88_9 C87_9 1_555 1_555
C89_9 C84_9 1_555 1_555
H53_9 C89_9 1_555 1_555
C90_9 H54_9 1_555 1_555
H55_9 C90_9 1_555 1_555
H56_9 C90_9 1_555 1_555
N18_9 C88_9 1_555 1_555
N19_9 C75_9 1_555 1_555
N20_9 C80_9 1_555 1_555
O39_2 C79_9 1_555 1_555
O41_2 C79_9 1_555 1_555
O44_3 C72_9 1_555 1_555
O46_3 C72_9 1_555 1_555
O27_9 C82_9 1_555 1_555
O29_9 C83_9 1_555 1_555
O31_5 C83_9 1_555 1_555
O34_9 C80_9 1_555 1_555
Ni9_5 N3_5 1_555 1_555
O48_5 Ni7_2 1_555 1_555
C5_5 N3_5 1_555 1_555
C10_5 N1_5 1_555 1_555
C15_5 N2_5 1_555 1_555
C17_5 N4_5 1_555 1_555
C18_5 N5_5 1_555 1_555
C18_5 N6_5 1_555 1_555
C24_5 C25_5 1_555 1_555
C36_5 N10_5 1_555 1_555
C43_5 C44_5 1_555 1_555
C45_5 N10_5 1_555 1_555
N7_5 N8_5 1_555 1_555
Ni7_2 O10_5 1_555 1_555
Ni10_2 O16_5 1_555 1_555
Ni16 O18_5 1_555 1_555
C77_9 C78_9 1_555 1_555
C81_9 N20_9 1_555 1_555
C88_9 C89_9 1_555 1_555
C90_9 N20_9 1_555 1_555
N18_9 N19_9 1_555 1_555
O31_5 Ni9_5 1_555 1_555
O12_5 H57_5 1_555 1_555
O12_5 H58_5 1_555 1_555
O15_5 H61_5 1_555 1_555
O15_5 H62_5 1_555 1_555
O14_5 H63_5 1_555 1_555
O14_5 H64_5 1_555 1_555
O33_9 H71_9 1_555 1_555
O33_9 H72_9 1_555 1_555
O11_5 C38_5 1_555 1_555
O47_2 C38_5 1_555 1_555
O29_10 C83_10 1_555 1_555
O48_5 C83_10 1_555 1_555
C72_10 C73_10 1_555 1_555
C73_10 C74_10 1_555 1_555
C74_10 H44_10 1_555 1_555
C75_10 C74_10 1_555 1_555
C76_10 C75_10 1_555 1_555
H45_10 C76_10 1_555 1_555
C77_10 C76_10 1_555 1_555
C78_10 C73_10 1_555 1_555
H46_10 C78_10 1_555 1_555
C79_10 C77_10 1_555 1_555
C80_10 H47_10 1_555 1_555
C81_10 H48_10 1_555 1_555
H49_10 C81_10 1_555 1_555
H50_10 C81_10 1_555 1_555
C82_10 C86_10 1_555 1_555
C84_10 C85_10 1_555 1_555
C85_10 H51_10 1_555 1_555
C86_10 C85_10 1_555 1_555
C87_10 C86_10 1_555 1_555
H52_10 C87_10 1_555 1_555
C88_10 C87_10 1_555 1_555
C89_10 C84_10 1_555 1_555
H53_10 C89_10 1_555 1_555
C90_10 H54_10 1_555 1_555
H55_10 C90_10 1_555 1_555
H56_10 C90_10 1_555 1_555
N18_10 C88_10 1_555 1_555
N19_10 C75_10 1_555 1_555
N20_10 C80_10 1_555 1_555
O40_3 C79_10 1_555 1_555
O42_3 C79_10 1_555 1_555
O44_4 C72_10 1_555 1_555
O46_4 C72_10 1_555 1_555
O27_10 C82_10 1_555 1_555
O34_10 C80_10 1_555 1_555
C77_10 C78_10 1_555 1_555
C81_10 N20_10 1_555 1_555
C88_10 C89_10 1_555 1_555
C90_10 N20_10 1_555 1_555
N18_10 N19_10 1_555 1_555
O33_10 H71_10 1_555 1_555
O33_10 H72_10 1_555 1_555
C54_10 H32_10 1_555 1_555
C55_10 C54_10 1_555 1_555
H33_10 C55_10 1_555 1_555
C56_10 C55_10 1_555 1_555
C57_10 C56_10 1_555 1_555
H34_10 C57_10 1_555 1_555
C58_10 C57_10 1_555 1_555
H35_10 C58_10 1_555 1_555
C59_10 H36_10 1_555 1_555
C60_10 C59_10 1_555 1_555
H37_10 C60_10 1_555 1_555
C61_10 C60_10 1_555 1_555
C62_10 C61_10 1_555 1_555
H38_10 C62_10 1_555 1_555
C63_10 C62_10 1_555 1_555
H39_10 C63_10 1_555 1_555
C64_10 H40_10 1_555 1_555
C65_10 C64_10 1_555 1_555
H41_10 C65_10 1_555 1_555
C66_10 C65_10 1_555 1_555
C67_10 C66_10 1_555 1_555
H42_10 C67_10 1_555 1_555
C68_10 C67_10 1_555 1_555
H43_10 C68_10 1_555 1_555
C69_10 C56_10 1_555 1_555
C70_10 C61_10 1_555 1_555
C71_10 C66_10 1_555 1_555
N12_10 C59_10 1_555 1_555
N13_10 C64_10 1_555 1_555
N22_5 C54_10 1_555 1_555
N15_10 C69_10 1_555 1_555
N16_10 C70_10 1_555 1_555
N17_10 C69_10 1_555 1_555
Ni9_5 N12_10 1_555 1_555
Ni12_2 N13_10 1_555 1_555
O30_10 Ni9_5 1_555 1_555
O32_10 Ni9_5 1_555 1_555
O35_10 Ni17_2 1_555 1_555
O36_10 Ni12_2 1_555 1_555
C58_10 N22_5 1_555 1_555
C63_10 N12_10 1_555 1_555
C68_10 N13_10 1_555 1_555
C70_10 N15_10 1_555 1_555
C71_10 N16_10 1_555 1_555
C71_10 N17_10 1_555 1_555
Ni9_5 O28_10 1_555 1_555
Ni17_2 O36_10 1_555 1_555
O30_10 H67_10 1_555 1_555
O30_10 H68_10 1_555 1_555
O32_10 H69_10 1_555 1_555
O32_10 H70_10 1_555 1_555
C1_6 H1_6 1_555 1_555
C2_6 C1_6 1_555 1_555
H3_6 C4_6 1_555 1_555
C5_6 C4_6 1_555 1_555
H4_6 C5_6 1_555 1_555
N3_6 C1_6 1_555 1_555
C59_11 H36_11 1_555 1_555
H38_11 C62_11 1_555 1_555
C63_11 C62_11 1_555 1_555
H39_11 C63_11 1_555 1_555
C82_11 C86_11 1_555 1_555
C83_11 C84_11 1_555 1_555
C84_11 C85_11 1_555 1_555
C85_11 H51_11 1_555 1_555
C86_11 C85_11 1_555 1_555
C87_11 C86_11 1_555 1_555
H52_11 C87_11 1_555 1_555
C88_11 C87_11 1_555 1_555
C89_11 C84_11 1_555 1_555
H53_11 C89_11 1_555 1_555
N12_11 C59_11 1_555 1_555
Ni4_3 N12_11 1_555 1_555
O27_11 C82_11 1_555 1_555
O28_11 C82_11 1_555 1_555
O29_11 C83_11 1_555 1_555
O30_11 Ni4_3 1_555 1_555
O31_6 C83_11 1_555 1_555
O32_11 Ni4_3 1_555 1_555
N22_6 Ni4_3 1_555 1_555
Ni9_6 N3_6 1_555 1_555
O47_3 Ni4_3 1_555 1_555
C5_6 N3_6 1_555 1_555
C63_11 N12_11 1_555 1_555
C88_11 C89_11 1_555 1_555
Ni4_3 O28_11 1_555 1_555
O31_6 Ni9_6 1_555 1_555
O30_11 H67_11 1_555 1_555
O30_11 H68_11 1_555 1_555
O32_11 H69_11 1_555 1_555
O32_11 H70_11 1_555 1_555
H6_6 C7_6 1_555 1_555
C8_6 C7_6 1_555 1_555
C11_6 H9_6 1_555 1_555
C12_6 C11_6 1_555 1_555
H10_6 C12_6 1_555 1_555
C13_6 C12_6 1_555 1_555
C14_6 C13_6 1_555 1_555
H11_6 C14_6 1_555 1_555
C15_6 C14_6 1_555 1_555
H12_6 C15_6 1_555 1_555
C16_6 C3_6 1_555 1_555
C17_6 C8_6 1_555 1_555
C18_6 C13_6 1_555 1_555
C19_6 C20_6 1_555 1_555
C20_6 C21_6 1_555 1_555
C21_6 H13_6 1_555 1_555
C22_6 C21_6 1_555 1_555
C23_6 C22_6 1_555 1_555
H14_6 C23_6 1_555 1_555
C24_6 C23_6 1_555 1_555
C25_6 C20_6 1_555 1_555
H15_6 C25_6 1_555 1_555
C31_6 C24_6 1_555 1_555
C35_6 H19_6 1_555 1_555
C36_6 H20_6 1_555 1_555
H21_6 C36_6 1_555 1_555
H22_6 C36_6 1_555 1_555
C45_6 H26_6 1_555 1_555
N2_6 C11_6 1_555 1_555
N4_6 C16_6 1_555 1_555
N5_6 C17_6 1_555 1_555
N6_6 C16_6 1_555 1_555
N8_6 C22_6 1_555 1_555
N10_6 C35_6 1_555 1_555
Ni10 N2_6 1_555 1_555
O40_2 C31_6 1_555 1_555
O42_2 C31_6 1_555 1_555
O43 C19_6 1_555 1_555
O45 C19_6 1_555 1_555
O15_6 Ni10 1_555 1_555
O16_6 C35_6 1_555 1_555
O17_6 Ni13 1_555 1_555
O18_6 Ni10 1_555 1_555
C54_11 H32_11 1_555 1_555
C55_11 C54_11 1_555 1_555
H33_11 C55_11 1_555 1_555
C56_11 C55_11 1_555 1_555
C57_11 C56_11 1_555 1_555
H34_11 C57_11 1_555 1_555
C58_11 C57_11 1_555 1_555
H35_11 C58_11 1_555 1_555
H37_11 C60_11 1_555 1_555
C61_11 C60_11 1_555 1_555
C64_11 H40_11 1_555 1_555
C65_11 C64_11 1_555 1_555
H41_11 C65_11 1_555 1_555
C66_11 C65_11 1_555 1_555
C67_11 C66_11 1_555 1_555
H42_11 C67_11 1_555 1_555
C68_11 C67_11 1_555 1_555
H43_11 C68_11 1_555 1_555
C69_11 C56_11 1_555 1_555
C70_11 C61_11 1_555 1_555
C71_11 C66_11 1_555 1_555
C72_11 C73_11 1_555 1_555
C73_11 C74_11 1_555 1_555
C74_11 H44_11 1_555 1_555
C75_11 C74_11 1_555 1_555
C76_11 C75_11 1_555 1_555
H45_11 C76_11 1_555 1_555
C77_11 C76_11 1_555 1_555
C78_11 C73_11 1_555 1_555
H46_11 C78_11 1_555 1_555
C79_11 C77_11 1_555 1_555
C80_11 H47_11 1_555 1_555
C81_11 H48_11 1_555 1_555
H49_11 C81_11 1_555 1_555
H50_11 C81_11 1_555 1_555
C90_11 H54_11 1_555 1_555
H55_11 C90_11 1_555 1_555
H56_11 C90_11 1_555 1_555
N13_11 C64_11 1_555 1_555
N14_3 C54_11 1_555 1_555
N15_11 C69_11 1_555 1_555
N16_11 C70_11 1_555 1_555
N17_11 C69_11 1_555 1_555
N19_11 C75_11 1_555 1_555
N20_11 C80_11 1_555 1_555
Ni11 N13_11 1_555 1_555
O39 C79_11 1_555 1_555
O41 C79_11 1_555 1_555
O44 C72_11 1_555 1_555
O46 C72_11 1_555 1_555
O33_11 Ni11 1_555 1_555
O34_11 C80_11 1_555 1_555
O35_11 Ni14 1_555 1_555
O36_11 Ni11 1_555 1_555
Ni7_3 N14_3 1_555 1_555
C15_6 N2_6 1_555 1_555
C17_6 N4_6 1_555 1_555
C18_6 N5_6 1_555 1_555
C18_6 N6_6 1_555 1_555
C24_6 C25_6 1_555 1_555
C36_6 N10_6 1_555 1_555
C45_6 N10_6 1_555 1_555
N7_6 N8_6 1_555 1_555
Ni10 O16_6 1_555 1_555
Ni13 O18_6 1_555 1_555
C58_11 N14_3 1_555 1_555
C68_11 N13_11 1_555 1_555
C70_11 N15_11 1_555 1_555
C71_11 N16_11 1_555 1_555
C71_11 N17_11 1_555 1_555
C77_11 C78_11 1_555 1_555
C81_11 N20_11 1_555 1_555
C90_11 N20_11 1_555 1_555
N18_11 N19_11 1_555 1_555
Ni11 O34_11 1_555 1_555
Ni14 O36_11 1_555 1_555
O15_6 H61_6 1_555 1_555
O15_6 H62_6 1_555 1_555
O33_11 H71_11 1_555 1_555
O33_11 H72_11 1_555 1_555
C6_6 H5_6 1_555 1_555
H7_6 C9_6 1_555 1_555
C10_6 C9_6 1_555 1_555
H8_6 C10_6 1_555 1_555
C37_6 C41_6 1_555 1_555
C38_6 C39_6 1_555 1_555
C39_6 C40_6 1_555 1_555
C40_6 H23_6 1_555 1_555
C41_6 C40_6 1_555 1_555
C42_6 C41_6 1_555 1_555
H24_6 C42_6 1_555 1_555
C43_6 C42_6 1_555 1_555
C44_6 C39_6 1_555 1_555
H25_6 C44_6 1_555 1_555
N1_6 C6_6 1_555 1_555
Ni7_3 N1_6 1_555 1_555
O9_6 C37_6 1_555 1_555
O10_6 C37_6 1_555 1_555
O11_6 C38_6 1_555 1_555
O12_6 Ni7_3 1_555 1_555
O47_3 C38_6 1_555 1_555
O14_6 Ni7_3 1_555 1_555
O48_6 Ni7_3 1_555 1_555
C10_6 N1_6 1_555 1_555
C43_6 C44_6 1_555 1_555
Ni7_3 O10_6 1_555 1_555
O12_6 H57_6 1_555 1_555
O12_6 H58_6 1_555 1_555
O14_6 H63_6 1_555 1_555
O14_6 H64_6 1_555 1_555
C59_12 H36_12 1_555 1_555
C60_12 C59_12 1_555 1_555
H37_12 C60_12 1_555 1_555
C61_12 C60_12 1_555 1_555
C62_12 C61_12 1_555 1_555
H38_12 C62_12 1_555 1_555
C63_12 C62_12 1_555 1_555
H39_12 C63_12 1_555 1_555
C64_12 H40_12 1_555 1_555
C65_12 C64_12 1_555 1_555
H41_12 C65_12 1_555 1_555
C66_12 C65_12 1_555 1_555
C67_12 C66_12 1_555 1_555
H42_12 C67_12 1_555 1_555
C68_12 C67_12 1_555 1_555
H43_12 C68_12 1_555 1_555
C69_12 C56_12 1_555 1_555
C70_12 C61_12 1_555 1_555
C71_12 C66_12 1_555 1_555
C72_12 C73_12 1_555 1_555
C73_12 C74_12 1_555 1_555
C74_12 H44_12 1_555 1_555
C75_12 C74_12 1_555 1_555
C76_12 C75_12 1_555 1_555
H45_12 C76_12 1_555 1_555
C77_12 C76_12 1_555 1_555
C78_12 C73_12 1_555 1_555
H46_12 C78_12 1_555 1_555
C79_12 C77_12 1_555 1_555
C80_12 H47_12 1_555 1_555
C81_12 H48_12 1_555 1_555
H49_12 C81_12 1_555 1_555
H50_12 C81_12 1_555 1_555
C82_12 C86_12 1_555 1_555
C83_12 C84_12 1_555 1_555
C84_12 C85_12 1_555 1_555
C85_12 H51_12 1_555 1_555
C86_12 C85_12 1_555 1_555
C87_12 C86_12 1_555 1_555
H52_12 C87_12 1_555 1_555
C88_12 C87_12 1_555 1_555
C89_12 C84_12 1_555 1_555
H53_12 C89_12 1_555 1_555
C90_12 H54_12 1_555 1_555
N12_12 C59_12 1_555 1_555
N13_12 C64_12 1_555 1_555
N15_12 C69_12 1_555 1_555
N16_12 C70_12 1_555 1_555
N17_12 C69_12 1_555 1_555
N18_12 C88_12 1_555 1_555
N19_12 C75_12 1_555 1_555
N20_12 C80_12 1_555 1_555
Ni9_6 N12_12 1_555 1_555
Ni12 N13_12 1_555 1_555
O40 C79_12 1_555 1_555
O42 C79_12 1_555 1_555
O44_2 C72_12 1_555 1_555
O46_2 C72_12 1_555 1_555
O27_12 C82_12 1_555 1_555
O28_12 C82_12 1_555 1_555
O29_12 C83_12 1_555 1_555
O30_12 Ni9_6 1_555 1_555
O48_6 C83_12 1_555 1_555
O32_12 Ni9_6 1_555 1_555
O33_12 Ni12 1_555 1_555
O34_12 C80_12 1_555 1_555
O35_12 Ni15 1_555 1_555
O36_12 Ni12 1_555 1_555
C63_12 N12_12 1_555 1_555
C68_12 N13_12 1_555 1_555
C70_12 N15_12 1_555 1_555
C71_12 N16_12 1_555 1_555
C71_12 N17_12 1_555 1_555
C77_12 C78_12 1_555 1_555
C81_12 N20_12 1_555 1_555
C88_12 C89_12 1_555 1_555
C90_12 N20_12 1_555 1_555
N18_12 N19_12 1_555 1_555
Ni9_6 O28_12 1_555 1_555
Ni12 O34_12 1_555 1_555
Ni15 O36_12 1_555 1_555
O30_12 H67_12 1_555 1_555
O30_12 H68_12 1_555 1_555
O32_12 H69_12 1_555 1_555
O32_12 H70_12 1_555 1_555
O33_12 H71_12 1_555 1_555
O33_12 H72_12 1_555 1_555
C54_12 H32_12 1_555 1_555
C55_12 C54_12 1_555 1_555
H34_12 C57_12 1_555 1_555
C58_12 C57_12 1_555 1_555
H35_12 C58_12 1_555 1_555
N22_6 C54_12 1_555 1_555
C58_12 N22_6 1_555 1_555

#END
