
###############################################################################
#
# This file contains modified crystal structure data generated from the
# MOF subset of the Cambridge Structural Database (CSD) v543 
# hosted by the Cambridge Crystallographic Data Centre (CCDC).
#
# This work is licensed under the Creative Commons
# Attribution-NonCommercial-ShareAlike 4.0 International License.
# To view a copy of this license, visit
# http://creativecommons.org/licenses/by-nc-sa/4.0/
# or send a letter to
# Creative Commons, PO Box 1866, Mountain View, CA 94042, USA.
#
# CIF created using the CSD Python API on 29 September 2022
# The structure has been converted into the P1 space group
# The structure has a 3D framework
# The original CSD entry GEFZAU is in the trigonal crystal system
# The original CSD entry GEFZAU is in a Sohncke space group
# The framework has been calculated to contain at least 10.0% void space
# The void calculation uses a probe of radius 1.32A, grid spacing 0.4
#
###############################################################################

data_GEFZAU
_chemical_formula_moiety         '(C210 H162 Cl6 Cu4 N6 P12)n'
_symmetry_cell_setting           triclinic
_symmetry_space_group_name_H-M   'P 1'
_symmetry_Int_Tables_number      1
_space_group_name_Hall           'P 1'
loop_
_symmetry_equiv_pos_site_id
_symmetry_equiv_pos_as_xyz
1 x,y,z
_cell_length_a                   18.410(4)
_cell_length_b                   18.410(4)
_cell_length_c                   21.321(2)
_cell_angle_alpha                90
_cell_angle_beta                 90
_cell_angle_gamma                120
_cell_volume                     6258.15
loop_
_atom_site_label
_atom_site_type_symbol
_atom_site_fract_x
_atom_site_fract_y
_atom_site_fract_z
C27 C 0.0028(17) 0.1965(16) 0.1827(10)
H20 H 0.0338 0.1708 0.1964
C28 C 0.0097(16) 0.2271(15) 0.1215(11)
H21 H 0.0444 0.2185 0.0930
C32 C 0.0023(7) 0.5189(9) 0.2395(5)
H24 H 0.0412 0.5307 0.2726
H25 H 0.0002 0.6283 0.2461
C1 C 0.4080(12) 0.0025(11) 0.0649(7)
C2 C 0.4697(14) 0.0699(13) 0.0987(6)
H2 H 0.4534 0.1042 0.1209
C3 C 0.5496(13) 0.0899(12) 0.1024(6)
C4 C 0.5720(13) 0.0395(13) 0.0666(6)
H3 H 0.6280 0.0499 0.0654
C6 C 0.6153(13) 0.1594(12) 0.1377(7)
C7 C 0.5939(12) 0.1812(11) 0.1948(6)
H5 H 0.5378 0.1497 0.2096
C8 C 0.6521(11) 0.2472(11) 0.2302(6)
C9 C 0.7359(13) 0.2929(12) 0.2081(6)
H6 H 0.7773 0.3357 0.2339
C10 C 0.7592(11) 0.2774(11) 0.1508(6)
C11 C 0.6969(14) 0.2054(12) 0.1167(6)
H7 H 0.7124 0.1894 0.0789
C12 C 0.6313(10) 0.3687(7) 0.2954(5)
C13 C 0.5615(7) 0.3732(8) 0.2764(5)
H8 H 0.5085 0.3235 0.2727
C14 C 0.5691(8) 0.4506(10) 0.2628(5)
H9 H 0.5213 0.4537 0.2498
C15 C 0.6465(10) 0.5234(7) 0.2682(5)
H10 H 0.6517 0.5763 0.2590
C16 C 0.7163(7) 0.5189(8) 0.2873(5)
H11 H 0.7693 0.5687 0.2910
C17 C 0.7088(8) 0.4416(10) 0.3009(5)
H12 H 0.7565 0.4385 0.3139
C18 C 0.7058(14) 0.2795(12) 0.3576(7)
C19 C 0.7236(14) 0.3324(13) 0.4130(6)
H13 H 0.6960 0.3635 0.4204
C20 C 0.7827(17) 0.3347(18) 0.4543(10)
H14 H 0.7952 0.3678 0.4911
C21 C 0.8205(16) 0.2947(17) 0.4450(9)
H15 H 0.8572 0.2960 0.4768
C22 C 0.8120(14) 0.2481(15) 0.3904(7)
H16 H 0.8471 0.2251 0.3822
C23 C 0.7476(14) 0.2375(14) 0.3481(8)
H17 H 0.7341 0.2009 0.3132
Cl1 Cl 0.3787(5) 0.1621(5) 0.2941(3)
Cu1 Cu 0.4926(2) 0.1561(2) 0.34181(9)
P1 P 0.6197(4) 0.2653(4) 0.30675(16)
C24 C 0.9116(17) 0.2741(16) 0.1394(11)
C25 C 0.9048(16) 0.2434(15) 0.2044(11)
H18 H 0.8695 0.2507 0.2332
C26 C 0.9464(16) 0.2062(15) 0.2236(12)
H19 H 0.9388 0.1855 0.2654
C29 C 0.9714(16) 0.2672(15) 0.1002(12)
H22 H 0.9834 0.2911 0.0594
C30 C 0.9126(9) 0.4264(7) 0.1585(6)
C31 C 0.9696(9) 0.4437(8) 0.2068(6)
H23 H 0.9862 0.4040 0.2176
C33 C 0.9779(8) 0.5769(7) 0.2238(6)
C34 C 0.9210(9) 0.5597(8) 0.1754(7)
H26 H 0.9043 0.5994 0.1647
C35 C 0.8883(8) 0.4845(10) 0.1428(5)
H27 H 0.8494 0.4727 0.1097
P2 P 0.8610(4) 0.3312(4) 0.11349(17)
Cu3 Cu 0.8439(2) 0.3365(3) 0.00848(9)
N2 N 0.4740(13) 0.0511(9) 0.3004(6)
P3 P 0.4702(6) 0.1390(4) 0.44682(17)
H1 H 0.3528 0.9943 0.0645
C5 C 0.5059(12) 0.9719(11) 0.0323(7)
H4 H 0.5213 0.9397 0.0065
N1 N 0.4229(9) 0.9489(9) 0.0329(6)
Cu2 Cu 0.3365(3) 0.8439(2) 0.99152(9)
H1_2 H 0.0057 0.3585 0.7312
C5_2 C 0.0281(11) 0.5340(16) 0.6990(7)
H4_2 H 0.0603 0.5816 0.6732
N1_2 N 0.0511(9) 0.4740(13) 0.6996(6)
Cu2_2 Cu 0.1561(2) 0.4926(4) 0.65819(9)
C18_2 C 0.7205(12) 0.4263(18) 0.0243(7)
C19_2 C 0.6676(13) 0.3912(19) 0.0797(6)
H13_2 H 0.6365 0.3325 0.0871
C20_2 C 0.6653(18) 0.4480(25) 0.1210(10)
H14_2 H 0.6322 0.4274 0.1578
C21_2 C 0.7053(17) 0.5258(23) 0.1117(9)
H15_2 H 0.7040 0.5612 0.1435
C22_2 C 0.7519(15) 0.5639(21) 0.0571(7)
H16_2 H 0.7749 0.6220 0.0489
C23_2 C 0.7625(14) 0.5101(20) 0.0148(8)
C1_2 C 0.9975(11) 0.4055(16) 0.7316(7)
C2_2 C 0.9301(13) 0.3998(19) 0.7654(6)
H2_2 H 0.8958 0.3492 0.7876
C3_2 C 0.9101(12) 0.4597(18) 0.7691(6)
C4_2 C 0.9605(13) 0.5325(18) 0.7333(6)
H3_2 H 0.9501 0.5781 0.7321
C6_2 C 0.8406(12) 0.4559(18) 0.8044(7)
C7_2 C 0.8188(11) 0.4127(16) 0.8615(6)
H5_2 H 0.8503 0.3881 0.8763
C8_2 C 0.7528(11) 0.4049(16) 0.8969(6)
C9_2 C 0.7071(12) 0.4430(18) 0.8748(6)
H6_2 H 0.6643 0.4416 0.9006
C10_2 C 0.7226(11) 0.4818(16) 0.8175(6)
C11_2 C 0.7946(12) 0.4915(18) 0.7834(6)
H7_2 H 0.8106 0.5230 0.7456
C12_2 C 0.6313(7) 0.2626(12) 0.9621(5)
C13_2 C 0.6268(8) 0.1883(11) 0.9431(5)
H8_2 H 0.6765 0.1850 0.9394
C14_2 C 0.5494(10) 0.1185(13) 0.9295(5)
H9_2 H 0.5463 0.0676 0.9165
C15_2 C 0.4766(7) 0.1231(12) 0.9349(5)
H10_2 H 0.4237 0.0754 0.9257
C16_2 C 0.4811(8) 0.1974(11) 0.9540(5)
H11_2 H 0.4313 0.2006 0.9577
C17_2 C 0.5584(10) 0.2672(13) 0.9676(5)
H12_2 H 0.5615 0.3180 0.9806
H17_2 H 0.7991 0.5332 0.9799
Cl1_2 Cl 0.8379(5) 0.2166(7) 0.9608(3)
P1_2 P 0.7347(4) 0.3544(6) 0.97342(16)
C24_2 C 0.7259(16) 0.6375(23) 0.8061(11)
C25_2 C 0.7566(15) 0.6614(22) 0.8711(11)
H18_2 H 0.7493 0.6188 0.8999
C26_2 C 0.7938(15) 0.7402(22) 0.8903(12)
H19_2 H 0.8145 0.7533 0.9321
C27_2 C 0.8035(16) 0.8063(23) 0.8494(10)
H20_2 H 0.8292 0.8630 0.8631
C28_2 C 0.7729(15) 0.7826(22) 0.7882(11)
H21_2 H 0.7815 0.8259 0.7597
C29_2 C 0.7328(15) 0.7042(22) 0.7669(12)
H22_2 H 0.7089 0.6923 0.7261
C30_2 C 0.5736(7) 0.4862(11) 0.8252(6)
C31_2 C 0.5563(8) 0.5259(12) 0.8735(6)
H23_2 H 0.5960 0.5822 0.8843
C32_2 C 0.4811(9) 0.4834(11) 0.9062(5)
H24_2 H 0.4693 0.5105 0.9393
C33_2 C 0.4231(7) 0.4010(11) 0.8905(6)
H25_2 H 0.3717 0.3719 0.9128
C34_2 C 0.4403(8) 0.3613(12) 0.8421(7)
H26_2 H 0.4006 0.3049 0.8314
C35_2 C 0.5155(10) 0.4038(13) 0.8095(5)
H27_2 H 0.5273 0.3767 0.7764
P2_2 P 0.6688(4) 0.5298(6) 0.78016(17)
Cu3_2 Cu 0.6635(3) 0.5074(4) 0.67514(9)
N2_2 N 0.9489(9) 0.4229(16) 0.9671(6)
C1_3 C 0.5945(16) 0.5920(12) 0.3982(7)
H1_3 H 0.6415 0.6472 0.3978
C2_3 C 0.6002(19) 0.5303(14) 0.4320(6)
H2_3 H 0.6508 0.5466 0.4542
C3_3 C 0.5403(18) 0.4504(13) 0.4357(6)
C4_3 C 0.4675(18) 0.4280(13) 0.3999(6)
H3_3 H 0.4219 0.3720 0.3987
C5_3 C 0.4660(16) 0.4941(12) 0.3656(7)
H4_3 H 0.4184 0.4787 0.3398
C6_3 C 0.5441(18) 0.3847(13) 0.4710(7)
C7_3 C 0.5873(16) 0.4061(12) 0.5281(6)
H5_3 H 0.6119 0.4622 0.5429
C8_3 C 0.5951(16) 0.3479(11) 0.5635(6)
C9_3 C 0.5570(18) 0.2641(13) 0.5414(6)
H6_3 H 0.5584 0.2227 0.5672
C10_3 C 0.5182(16) 0.2408(11) 0.4841(6)
C11_3 C 0.5085(18) 0.3031(14) 0.4500(6)
H7_3 H 0.4770 0.2876 0.4122
C12_3 C 0.7374(12) 0.3687(10) 0.6287(5)
C13_3 C 0.8117(11) 0.4385(7) 0.6097(5)
H8_3 H 0.8150 0.4915 0.6060
C14_3 C 0.8815(13) 0.4309(8) 0.5961(5)
H9_3 H 0.9324 0.4787 0.5831
C15_3 C 0.8769(12) 0.3535(10) 0.6015(5)
H10_3 H 0.9246 0.3483 0.5923
C16_3 C 0.8026(11) 0.2837(7) 0.6206(5)
H11_3 H 0.7994 0.2307 0.6243
C17_3 C 0.7328(13) 0.2912(8) 0.6342(5)
H12_3 H 0.6820 0.2435 0.6472
C18_3 C 0.5737(18) 0.2942(14) 0.6909(7)
C19_3 C 0.6088(19) 0.2764(14) 0.7463(6)
H13_3 H 0.6675 0.3040 0.7537
C20_3 C 0.5520(25) 0.2173(17) 0.7876(10)
H14_3 H 0.5726 0.2048 0.8244
C21_3 C 0.4742(23) 0.1795(16) 0.7783(9)
H15_3 H 0.4388 0.1428 0.8101
C22_3 C 0.4361(21) 0.1880(14) 0.7237(7)
H16_3 H 0.3780 0.1529 0.7155
C23_3 C 0.4899(20) 0.2524(14) 0.6814(8)
H17_3 H 0.4668 0.2659 0.6465
Cl1_3 Cl 0.7834(7) 0.6213(5) 0.6274(3)
N1_3 N 0.5260(13) 0.5771(9) 0.3662(6)
P1_3 P 0.6456(6) 0.3803(4) 0.64008(16)
C24_3 C 0.3625(23) 0.0884(17) 0.4727(11)
C25_3 C 0.3386(22) 0.0952(16) 0.5377(11)
H18_3 H 0.3812 0.1305 0.5665
C26_3 C 0.2598(22) 0.0536(16) 0.5569(12)
H19_3 H 0.2467 0.0612 0.5987
C29_3 C 0.2958(22) 0.0286(16) 0.4335(12)
H22_3 H 0.3077 0.0166 0.3927
C30_3 C 0.5138(11) 0.0874(9) 0.4918(6)
C31_3 C 0.4741(12) 0.0304(9) 0.5401(6)
H23_3 H 0.4178 0.0138 0.5509
C33_3 C 0.5990(11) 0.0221(8) 0.5571(6)
C34_3 C 0.6387(12) 0.0790(9) 0.5087(7)
H26_3 H 0.6951 0.0957 0.4980
C35_3 C 0.5962(13) 0.1117(8) 0.4761(5)
H27_3 H 0.6233 0.1506 0.4430
Cu2_3 Cu 0.5074(4) 0.6635(3) 0.32486(9)
N2_3 N 0.5771(16) 0.5260(13) 0.6338(6)
C1_4 C 0.0025(11) 0.4080(12) 0.9351(7)
C2_4 C 0.0699(13) 0.4697(14) 0.9013(6)
H2_4 H 0.1042 0.4534 0.8791
C3_4 C 0.0899(12) 0.5496(13) 0.8976(6)
C4_4 C 0.0395(13) 0.5720(13) 0.9334(6)
H3_4 H 0.0499 0.6280 0.9346
C6_4 C 0.1594(12) 0.6153(13) 0.8623(7)
C7_4 C 0.1812(11) 0.5939(12) 0.8052(6)
H5_4 H 0.1497 0.5378 0.7904
C8_4 C 0.2472(11) 0.6521(11) 0.7698(6)
C9_4 C 0.2929(12) 0.7359(13) 0.7919(6)
H6_4 H 0.3357 0.7773 0.7661
C10_4 C 0.2774(11) 0.7592(11) 0.8492(6)
C11_4 C 0.2054(12) 0.6969(14) 0.8833(6)
H7_4 H 0.1894 0.7124 0.9211
C12_4 C 0.3687(7) 0.6313(10) 0.7046(5)
C13_4 C 0.3732(8) 0.5615(7) 0.7236(5)
H8_4 H 0.3235 0.5085 0.7273
C14_4 C 0.4506(10) 0.5691(8) 0.7372(5)
H9_4 H 0.4537 0.5213 0.7502
C15_4 C 0.5234(7) 0.6465(10) 0.7318(5)
H10_4 H 0.5763 0.6517 0.7410
C16_4 C 0.5189(8) 0.7163(7) 0.7127(5)
H11_4 H 0.5687 0.7693 0.7090
C17_4 C 0.4416(10) 0.7088(8) 0.6991(5)
H12_4 H 0.4385 0.7565 0.6861
C18_4 C 0.2795(12) 0.7058(14) 0.6424(7)
C19_4 C 0.3324(13) 0.7236(14) 0.5870(6)
H13_4 H 0.3635 0.6960 0.5796
C20_4 C 0.3347(18) 0.7827(17) 0.5457(10)
H14_4 H 0.3678 0.7952 0.5089
C21_4 C 0.2947(17) 0.8205(16) 0.5550(9)
H15_4 H 0.2960 0.8572 0.5232
C22_4 C 0.2481(15) 0.8120(14) 0.6096(7)
H16_4 H 0.2251 0.8471 0.6178
C23_4 C 0.2375(14) 0.7476(14) 0.6519(8)
H17_4 H 0.2009 0.7341 0.6868
Cl1_4 Cl 0.1621(5) 0.3787(5) 0.7059(3)
P1_4 P 0.2653(4) 0.6197(4) 0.69325(16)
C24_4 C 0.2741(16) 0.9116(17) 0.8606(11)
C25_4 C 0.2434(15) 0.9048(16) 0.7956(11)
H18_4 H 0.2507 0.8695 0.7668
C26_4 C 0.2062(15) 0.9464(16) 0.7764(12)
H19_4 H 0.1855 0.9388 0.7346
C29_4 C 0.2672(15) 0.9714(16) 0.8998(12)
H22_4 H 0.2911 0.9834 0.9406
C30_4 C 0.4264(7) 0.9126(9) 0.8415(6)
C31_4 C 0.4437(8) 0.9696(9) 0.7932(6)
H23_4 H 0.4040 0.9862 0.7824
C33_4 C 0.5769(7) 0.9779(8) 0.7762(6)
C34_4 C 0.5597(8) 0.9210(9) 0.8246(7)
H26_4 H 0.5994 0.9043 0.8353
C35_4 C 0.4845(10) 0.8883(8) 0.8572(5)
H27_4 H 0.4727 0.8494 0.8903
P2_3 P 0.3312(4) 0.8610(4) 0.88651(17)
P3_2 P 0.1390(4) 0.4702(6) 0.55318(17)
H1_4 H 0.9943 0.3528 0.9355
C5_4 C 0.9719(11) 0.5059(12) 0.9677(7)
H4_4 H 0.9397 0.5213 0.9935
H1_5 H 0.3585 0.0057 0.2688
C5_5 C 0.5340(16) 0.0281(11) 0.3010(7)
H4_5 H 0.5816 0.0603 0.3268
C1_5 C 0.4055(16) 0.9975(11) 0.2684(7)
C2_5 C 0.3998(19) 0.9301(13) 0.2346(6)
H2_5 H 0.3492 0.8958 0.2124
C3_5 C 0.4597(18) 0.9101(12) 0.2309(6)
C4_5 C 0.5325(18) 0.9605(13) 0.2667(6)
H3_5 H 0.5781 0.9501 0.2679
C6_5 C 0.4559(18) 0.8406(12) 0.1956(7)
C7_5 C 0.4127(16) 0.8188(11) 0.1385(6)
H5_5 H 0.3881 0.8503 0.1237
C8_5 C 0.4049(16) 0.7528(11) 0.1031(6)
C9_5 C 0.4430(18) 0.7071(12) 0.1252(6)
H6_5 H 0.4416 0.6643 0.0994
C10_5 C 0.4818(16) 0.7226(11) 0.1825(6)
C11_5 C 0.4915(18) 0.7946(12) 0.2166(6)
H7_5 H 0.5230 0.8106 0.2544
C12_5 C 0.2626(12) 0.6313(7) 0.0379(5)
C13_5 C 0.1883(11) 0.6268(8) 0.0569(5)
H8_5 H 0.1850 0.6765 0.0606
C14_5 C 0.1185(13) 0.5494(10) 0.0705(5)
H9_5 H 0.0676 0.5463 0.0835
C15_5 C 0.1231(12) 0.4766(7) 0.0651(5)
H10_5 H 0.0754 0.4237 0.0743
C16_5 C 0.1974(11) 0.4811(8) 0.0460(5)
H11_5 H 0.2006 0.4313 0.0423
C17_5 C 0.2672(13) 0.5584(10) 0.0324(5)
H12_5 H 0.3180 0.5615 0.0194
H17_5 H 0.5332 0.7991 0.0201
Cl1_5 Cl 0.2166(7) 0.8379(5) 0.0392(3)
P1_5 P 0.3544(6) 0.7347(4) 0.02658(16)
C24_5 C 0.6375(23) 0.7259(16) 0.1939(11)
C25_5 C 0.6614(22) 0.7566(15) 0.1289(11)
H18_5 H 0.6188 0.7493 0.1001
C26_5 C 0.7402(22) 0.7938(15) 0.1097(12)
H19_5 H 0.7533 0.8145 0.0679
C27_3 C 0.8063(23) 0.8035(16) 0.1506(10)
H20_3 H 0.8630 0.8292 0.1369
C28_3 C 0.7826(22) 0.7729(15) 0.2118(11)
H21_3 H 0.8259 0.7815 0.2403
C29_5 C 0.7042(22) 0.7328(15) 0.2331(12)
H22_5 H 0.6923 0.7089 0.2739
C30_5 C 0.4862(11) 0.5736(7) 0.1748(6)
C31_5 C 0.5259(12) 0.5563(8) 0.1265(6)
H23_5 H 0.5822 0.5960 0.1157
C32_3 C 0.4834(11) 0.4811(9) 0.0938(5)
H24_3 H 0.5105 0.4693 0.0607
C33_5 C 0.4010(11) 0.4231(7) 0.1095(6)
H25_3 H 0.3719 0.3717 0.0872
C34_5 C 0.3613(12) 0.4403(8) 0.1579(7)
H26_5 H 0.3049 0.4006 0.1686
C35_5 C 0.4038(13) 0.5155(10) 0.1905(5)
H27_5 H 0.3767 0.5273 0.2236
P2_4 P 0.5298(6) 0.6688(4) 0.21984(17)
C18_5 C 0.4263(18) 0.7205(12) 0.9757(7)
C19_5 C 0.3912(19) 0.6676(13) 0.9203(6)
H13_5 H 0.3325 0.6365 0.9129
C20_5 C 0.4480(25) 0.6653(18) 0.8790(10)
H14_5 H 0.4274 0.6322 0.8422
C21_5 C 0.5258(23) 0.7053(17) 0.8883(9)
H15_5 H 0.5612 0.7040 0.8565
C22_5 C 0.5639(21) 0.7519(15) 0.9429(7)
H16_5 H 0.6220 0.7749 0.9511
C23_5 C 0.5101(20) 0.7625(14) 0.9852(8)
C1_6 C 0.5920(12) 0.5945(16) 0.6018(7)
H1_6 H 0.6472 0.6415 0.6022
C2_6 C 0.5303(14) 0.6002(19) 0.5680(6)
H2_6 H 0.5466 0.6508 0.5458
C3_6 C 0.4504(13) 0.5403(18) 0.5643(6)
C4_6 C 0.4280(13) 0.4675(18) 0.6001(6)
H3_6 H 0.3720 0.4219 0.6013
C5_6 C 0.4941(12) 0.4660(16) 0.6344(7)
H4_6 H 0.4787 0.4184 0.6602
C6_6 C 0.3847(13) 0.5441(18) 0.5290(7)
C7_6 C 0.4061(12) 0.5873(16) 0.4719(6)
H5_6 H 0.4622 0.6119 0.4571
C8_6 C 0.3479(11) 0.5951(16) 0.4365(6)
C9_6 C 0.2641(13) 0.5570(18) 0.4586(6)
H6_6 H 0.2227 0.5584 0.4328
C10_6 C 0.2408(11) 0.5182(16) 0.5159(6)
C11_6 C 0.3031(14) 0.5085(18) 0.5500(6)
H7_6 H 0.2876 0.4770 0.5878
C12_6 C 0.3687(10) 0.7374(12) 0.3713(5)
C13_6 C 0.4385(7) 0.8117(11) 0.3903(5)
H8_6 H 0.4915 0.8150 0.3940
C14_6 C 0.4309(8) 0.8815(13) 0.4039(5)
H9_6 H 0.4787 0.9324 0.4169
C15_6 C 0.3535(10) 0.8769(12) 0.3985(5)
H10_6 H 0.3483 0.9246 0.4077
C16_6 C 0.2837(7) 0.8026(11) 0.3794(5)
H11_6 H 0.2307 0.7994 0.3757
C17_6 C 0.2912(8) 0.7328(13) 0.3658(5)
H12_6 H 0.2435 0.6820 0.3528
C18_6 C 0.2942(14) 0.5737(18) 0.3091(7)
C19_6 C 0.2764(14) 0.6088(19) 0.2537(6)
H13_6 H 0.3040 0.6675 0.2463
C20_6 C 0.2173(17) 0.5520(25) 0.2124(10)
H14_6 H 0.2048 0.5726 0.1756
C21_6 C 0.1795(16) 0.4742(23) 0.2217(9)
H15_6 H 0.1428 0.4388 0.1899
C22_6 C 0.1880(14) 0.4361(21) 0.2763(7)
H16_6 H 0.1529 0.3780 0.2845
C23_6 C 0.2524(14) 0.4899(20) 0.3186(8)
H17_6 H 0.2659 0.4668 0.3535
Cl1_6 Cl 0.6213(5) 0.7834(7) 0.3726(3)
P1_6 P 0.3803(4) 0.6456(6) 0.35992(16)
C24_6 C 0.0884(17) 0.3625(23) 0.5273(11)
C25_6 C 0.0952(16) 0.3386(22) 0.4623(11)
H18_6 H 0.1305 0.3812 0.4335
C26_6 C 0.0536(16) 0.2598(22) 0.4431(12)
H19_6 H 0.0612 0.2467 0.4013
C29_6 C 0.0286(16) 0.2958(22) 0.5665(12)
H22_6 H 0.0166 0.3077 0.6073
C30_6 C 0.0874(9) 0.5138(11) 0.5082(6)
C31_6 C 0.0304(9) 0.4741(12) 0.4599(6)
H23_6 H 0.0138 0.4178 0.4491
C33_6 C 0.0221(8) 0.5990(11) 0.4429(6)
C34_6 C 0.0790(9) 0.6387(12) 0.4913(7)
H26_6 H 0.0957 0.6951 0.5020
C35_6 C 0.1117(8) 0.5962(13) 0.5239(5)
H27_6 H 0.1506 0.6233 0.5570
C27_4 C 0.1937(23) 0.9972(17) 0.5160(10)
H20_4 H 0.1370 0.9662 0.5297
C28_4 C 0.2174(22) 0.9903(16) 0.4548(11)
H21_4 H 0.1741 0.9556 0.4263
C32_4 C 0.5166(11) 0.9977(7) 0.5728(5)
H24_4 H 0.4895 0.9588 0.6059
H25_4 H 0.6281 0.9998 0.5794
C27_5 C 0.1965(16) 0.0028(17) 0.8173(10)
H20_5 H 0.1708 0.0338 0.8036
C28_5 C 0.2271(15) 0.0097(16) 0.8785(11)
H21_5 H 0.2185 0.0444 0.9070
C32_5 C 0.5189(9) 0.0023(7) 0.7605(5)
H24_5 H 0.5307 0.0412 0.7274
H25_5 H 0.6283 0.0002 0.7539
C27_6 C 0.9972(17) 0.1937(23) 0.4840(10)
H20_6 H 0.9662 0.1370 0.4703
C28_6 C 0.9903(16) 0.2174(22) 0.5452(11)
H21_6 H 0.9556 0.1741 0.5737
C32_6 C 0.9977(7) 0.5166(11) 0.4272(5)
H24_6 H 0.9588 0.4895 0.3941
H25_6 H 0.9998 0.6281 0.4206
loop_
_geom_bond_atom_site_label_1
_geom_bond_atom_site_label_2
_geom_bond_site_symmetry_1
_geom_bond_site_symmetry_2
H20 C27 1_555 1_555
C28 C27 1_555 1_555
H21 C28 1_555 1_555
H24 C32 1_555 1_555
C2 C1 1_555 1_555
H2 C2 1_555 1_555
C3 C2 1_555 1_555
C4 C3 1_555 1_555
H3 C4 1_555 1_555
C6 C3 1_555 1_555
C7 C6 1_555 1_555
H5 C7 1_555 1_555
C8 C7 1_555 1_555
C9 C8 1_555 1_555
H6 C9 1_555 1_555
C10 C9 1_555 1_555
C11 C6 1_555 1_555
H7 C11 1_555 1_555
C12 C13 1_555 1_555
C13 H8 1_555 1_555
C14 C13 1_555 1_555
H9 C14 1_555 1_555
C15 C14 1_555 1_555
H10 C15 1_555 1_555
C16 C15 1_555 1_555
H11 C16 1_555 1_555
C17 C12 1_555 1_555
H12 C17 1_555 1_555
C18 C19 1_555 1_555
C19 H13 1_555 1_555
C20 C19 1_555 1_555
H14 C20 1_555 1_555
C21 C20 1_555 1_555
H15 C21 1_555 1_555
C22 C21 1_555 1_555
H16 C22 1_555 1_555
C23 C18 1_555 1_555
H17 C23 1_555 1_555
Cl1 Cu1 1_555 1_555
Cu1 P1 1_555 1_555
P1 C8 1_555 1_555
C24 C25 1_555 1_555
C25 H18 1_555 1_555
C26 C25 1_555 1_555
H19 C26 1_555 1_555
C29 C24 1_555 1_555
H22 C29 1_555 1_555
C30 C31 1_555 1_555
C31 H23 1_555 1_555
C34 C33 1_555 1_555
H26 C34 1_555 1_555
C35 C30 1_555 1_555
H27 C35 1_555 1_555
P2 C10 1_555 1_555
Cu3 P2 1_555 1_555
N2 Cu1 1_555 1_555
P3 Cu1 1_555 1_555
C10 C11 1_555 1_555
C12 P1 1_555 1_555
C16 C17 1_555 1_555
C18 P1 1_555 1_555
C22 C23 1_555 1_555
C24 P2 1_555 1_555
C30 P2 1_555 1_555
C34 C35 1_555 1_555
H4 C5 1_555 1_555
C5 N1 1_555 1_555
H4_2 C5_2 1_555 1_555
Cu2_2 N1_2 1_555 1_555
C5_2 N1_2 1_555 1_555
C18_2 C19_2 1_555 1_555
C19_2 H13_2 1_555 1_555
C20_2 C19_2 1_555 1_555
H14_2 C20_2 1_555 1_555
C21_2 C20_2 1_555 1_555
H15_2 C21_2 1_555 1_555
C22_2 C21_2 1_555 1_555
H16_2 C22_2 1_555 1_555
C23_2 C18_2 1_555 1_555
C22_2 C23_2 1_555 1_555
C2_2 C1_2 1_555 1_555
H2_2 C2_2 1_555 1_555
C3_2 C2_2 1_555 1_555
C4_2 C3_2 1_555 1_555
H3_2 C4_2 1_555 1_555
C6_2 C3_2 1_555 1_555
C7_2 C6_2 1_555 1_555
H5_2 C7_2 1_555 1_555
C8_2 C7_2 1_555 1_555
C9_2 C8_2 1_555 1_555
H6_2 C9_2 1_555 1_555
C10_2 C9_2 1_555 1_555
C11_2 C6_2 1_555 1_555
H7_2 C11_2 1_555 1_555
C12_2 C13_2 1_555 1_555
C13_2 H8_2 1_555 1_555
C14_2 C13_2 1_555 1_555
H9_2 C14_2 1_555 1_555
C15_2 C14_2 1_555 1_555
H10_2 C15_2 1_555 1_555
C16_2 C15_2 1_555 1_555
H11_2 C16_2 1_555 1_555
C17_2 C12_2 1_555 1_555
H12_2 C17_2 1_555 1_555
P1_2 C8_2 1_555 1_555
C24_2 C25_2 1_555 1_555
C25_2 H18_2 1_555 1_555
C26_2 C25_2 1_555 1_555
H19_2 C26_2 1_555 1_555
C27_2 C26_2 1_555 1_555
H20_2 C27_2 1_555 1_555
C28_2 C27_2 1_555 1_555
H21_2 C28_2 1_555 1_555
C29_2 C24_2 1_555 1_555
H22_2 C29_2 1_555 1_555
C30_2 C31_2 1_555 1_555
C31_2 H23_2 1_555 1_555
C32_2 C31_2 1_555 1_555
H24_2 C32_2 1_555 1_555
C33_2 C32_2 1_555 1_555
H25_2 C33_2 1_555 1_555
C34_2 C33_2 1_555 1_555
H26_2 C34_2 1_555 1_555
C35_2 C30_2 1_555 1_555
H27_2 C35_2 1_555 1_555
P2_2 C10_2 1_555 1_555
Cu3_2 P2_2 1_555 1_555
C10_2 C11_2 1_555 1_555
C12_2 P1_2 1_555 1_555
C16_2 C17_2 1_555 1_555
C24_2 P2_2 1_555 1_555
C28_2 C29_2 1_555 1_555
C30_2 P2_2 1_555 1_555
C34_2 C35_2 1_555 1_555
C1_3 H1_3 1_555 1_555
C2_3 C1_3 1_555 1_555
H2_3 C2_3 1_555 1_555
C3_3 C2_3 1_555 1_555
C4_3 C3_3 1_555 1_555
H3_3 C4_3 1_555 1_555
C5_3 C4_3 1_555 1_555
H4_3 C5_3 1_555 1_555
C6_3 C3_3 1_555 1_555
C7_3 C6_3 1_555 1_555
H5_3 C7_3 1_555 1_555
C8_3 C7_3 1_555 1_555
C9_3 C8_3 1_555 1_555
H6_3 C9_3 1_555 1_555
C10_3 C9_3 1_555 1_555
C11_3 C6_3 1_555 1_555
H7_3 C11_3 1_555 1_555
C12_3 C13_3 1_555 1_555
C13_3 H8_3 1_555 1_555
C14_3 C13_3 1_555 1_555
H9_3 C14_3 1_555 1_555
C15_3 C14_3 1_555 1_555
H10_3 C15_3 1_555 1_555
C16_3 C15_3 1_555 1_555
H11_3 C16_3 1_555 1_555
C17_3 C12_3 1_555 1_555
H12_3 C17_3 1_555 1_555
C18_3 C19_3 1_555 1_555
C19_3 H13_3 1_555 1_555
C20_3 C19_3 1_555 1_555
H14_3 C20_3 1_555 1_555
C21_3 C20_3 1_555 1_555
H15_3 C21_3 1_555 1_555
C22_3 C21_3 1_555 1_555
H16_3 C22_3 1_555 1_555
C23_3 C18_3 1_555 1_555
H17_3 C23_3 1_555 1_555
Cl1_3 Cu3_2 1_555 1_555
Cu3_2 P1_3 1_555 1_555
N1_3 C1_3 1_555 1_555
P1_3 C8_3 1_555 1_555
C24_3 C25_3 1_555 1_555
C25_3 H18_3 1_555 1_555
C26_3 C25_3 1_555 1_555
H19_3 C26_3 1_555 1_555
C29_3 C24_3 1_555 1_555
H22_3 C29_3 1_555 1_555
C30_3 C31_3 1_555 1_555
C31_3 H23_3 1_555 1_555
C34_3 C33_3 1_555 1_555
H26_3 C34_3 1_555 1_555
C35_3 C30_3 1_555 1_555
H27_3 C35_3 1_555 1_555
P3 C10_3 1_555 1_555
Cu2_3 N1_3 1_555 1_555
N2_3 Cu3_2 1_555 1_555
C5_3 N1_3 1_555 1_555
C10_3 C11_3 1_555 1_555
C12_3 P1_3 1_555 1_555
C16_3 C17_3 1_555 1_555
C18_3 P1_3 1_555 1_555
C22_3 C23_3 1_555 1_555
C24_3 P3 1_555 1_555
C30_3 P3 1_555 1_555
C34_3 C35_3 1_555 1_555
C2_4 C1_4 1_555 1_555
H2_4 C2_4 1_555 1_555
C3_4 C2_4 1_555 1_555
C4_4 C3_4 1_555 1_555
H3_4 C4_4 1_555 1_555
C6_4 C3_4 1_555 1_555
C7_4 C6_4 1_555 1_555
H5_4 C7_4 1_555 1_555
C8_4 C7_4 1_555 1_555
C9_4 C8_4 1_555 1_555
H6_4 C9_4 1_555 1_555
C10_4 C9_4 1_555 1_555
C11_4 C6_4 1_555 1_555
H7_4 C11_4 1_555 1_555
C12_4 C13_4 1_555 1_555
C13_4 H8_4 1_555 1_555
C14_4 C13_4 1_555 1_555
H9_4 C14_4 1_555 1_555
C15_4 C14_4 1_555 1_555
H10_4 C15_4 1_555 1_555
C16_4 C15_4 1_555 1_555
H11_4 C16_4 1_555 1_555
C17_4 C12_4 1_555 1_555
H12_4 C17_4 1_555 1_555
C18_4 C19_4 1_555 1_555
C19_4 H13_4 1_555 1_555
C20_4 C19_4 1_555 1_555
H14_4 C20_4 1_555 1_555
C21_4 C20_4 1_555 1_555
H15_4 C21_4 1_555 1_555
C22_4 C21_4 1_555 1_555
H16_4 C22_4 1_555 1_555
C23_4 C18_4 1_555 1_555
H17_4 C23_4 1_555 1_555
Cl1_4 Cu2_2 1_555 1_555
Cu2_2 P1_4 1_555 1_555
P1_4 C8_4 1_555 1_555
C24_4 C25_4 1_555 1_555
C25_4 H18_4 1_555 1_555
C26_4 C25_4 1_555 1_555
H19_4 C26_4 1_555 1_555
C29_4 C24_4 1_555 1_555
H22_4 C29_4 1_555 1_555
C30_4 C31_4 1_555 1_555
C31_4 H23_4 1_555 1_555
C34_4 C33_4 1_555 1_555
H26_4 C34_4 1_555 1_555
C35_4 C30_4 1_555 1_555
H27_4 C35_4 1_555 1_555
P2_3 C10_4 1_555 1_555
Cu2 P2_3 1_555 1_555
P3_2 Cu2_2 1_555 1_555
C10_4 C11_4 1_555 1_555
C12_4 P1_4 1_555 1_555
C16_4 C17_4 1_555 1_555
C18_4 P1_4 1_555 1_555
C22_4 C23_4 1_555 1_555
C24_4 P2_3 1_555 1_555
C30_4 P2_3 1_555 1_555
C34_4 C35_4 1_555 1_555
H4_4 C5_4 1_555 1_555
C5_4 N2_2 1_555 1_555
H4_5 C5_5 1_555 1_555
C5_5 N2 1_555 1_555
C2_5 C1_5 1_555 1_555
H2_5 C2_5 1_555 1_555
C3_5 C2_5 1_555 1_555
C4_5 C3_5 1_555 1_555
H3_5 C4_5 1_555 1_555
C6_5 C3_5 1_555 1_555
C7_5 C6_5 1_555 1_555
H5_5 C7_5 1_555 1_555
C8_5 C7_5 1_555 1_555
C9_5 C8_5 1_555 1_555
H6_5 C9_5 1_555 1_555
C10_5 C9_5 1_555 1_555
C11_5 C6_5 1_555 1_555
H7_5 C11_5 1_555 1_555
C12_5 C13_5 1_555 1_555
C13_5 H8_5 1_555 1_555
C14_5 C13_5 1_555 1_555
H9_5 C14_5 1_555 1_555
C15_5 C14_5 1_555 1_555
H10_5 C15_5 1_555 1_555
C16_5 C15_5 1_555 1_555
H11_5 C16_5 1_555 1_555
C17_5 C12_5 1_555 1_555
H12_5 C17_5 1_555 1_555
P1_5 C8_5 1_555 1_555
C24_5 C25_5 1_555 1_555
C25_5 H18_5 1_555 1_555
C26_5 C25_5 1_555 1_555
H19_5 C26_5 1_555 1_555
C27_3 C26_5 1_555 1_555
H20_3 C27_3 1_555 1_555
C28_3 C27_3 1_555 1_555
H21_3 C28_3 1_555 1_555
C29_5 C24_5 1_555 1_555
H22_5 C29_5 1_555 1_555
C30_5 C31_5 1_555 1_555
C31_5 H23_5 1_555 1_555
C32_3 C31_5 1_555 1_555
H24_3 C32_3 1_555 1_555
C33_5 C32_3 1_555 1_555
H25_3 C33_5 1_555 1_555
C34_5 C33_5 1_555 1_555
H26_5 C34_5 1_555 1_555
C35_5 C30_5 1_555 1_555
H27_5 C35_5 1_555 1_555
P2_4 C10_5 1_555 1_555
Cu2_3 P2_4 1_555 1_555
C10_5 C11_5 1_555 1_555
C12_5 P1_5 1_555 1_555
C16_5 C17_5 1_555 1_555
C24_5 P2_4 1_555 1_555
C28_3 C29_5 1_555 1_555
C30_5 P2_4 1_555 1_555
C34_5 C35_5 1_555 1_555
C18_5 C19_5 1_555 1_555
C19_5 H13_5 1_555 1_555
C20_5 C19_5 1_555 1_555
H14_5 C20_5 1_555 1_555
C21_5 C20_5 1_555 1_555
H15_5 C21_5 1_555 1_555
C22_5 C21_5 1_555 1_555
H16_5 C22_5 1_555 1_555
C23_5 C18_5 1_555 1_555
C22_5 C23_5 1_555 1_555
C1_6 H1_6 1_555 1_555
C2_6 C1_6 1_555 1_555
H2_6 C2_6 1_555 1_555
C3_6 C2_6 1_555 1_555
C4_6 C3_6 1_555 1_555
H3_6 C4_6 1_555 1_555
C5_6 C4_6 1_555 1_555
H4_6 C5_6 1_555 1_555
C6_6 C3_6 1_555 1_555
C7_6 C6_6 1_555 1_555
H5_6 C7_6 1_555 1_555
C8_6 C7_6 1_555 1_555
C9_6 C8_6 1_555 1_555
H6_6 C9_6 1_555 1_555
C10_6 C9_6 1_555 1_555
C11_6 C6_6 1_555 1_555
H7_6 C11_6 1_555 1_555
C12_6 C13_6 1_555 1_555
C13_6 H8_6 1_555 1_555
C14_6 C13_6 1_555 1_555
H9_6 C14_6 1_555 1_555
C15_6 C14_6 1_555 1_555
H10_6 C15_6 1_555 1_555
C16_6 C15_6 1_555 1_555
H11_6 C16_6 1_555 1_555
C17_6 C12_6 1_555 1_555
H12_6 C17_6 1_555 1_555
C18_6 C19_6 1_555 1_555
C19_6 H13_6 1_555 1_555
C20_6 C19_6 1_555 1_555
H14_6 C20_6 1_555 1_555
C21_6 C20_6 1_555 1_555
H15_6 C21_6 1_555 1_555
C22_6 C21_6 1_555 1_555
H16_6 C22_6 1_555 1_555
C23_6 C18_6 1_555 1_555
H17_6 C23_6 1_555 1_555
Cl1_6 Cu2_3 1_555 1_555
Cu2_3 P1_6 1_555 1_555
N2_3 C1_6 1_555 1_555
P1_6 C8_6 1_555 1_555
C24_6 C25_6 1_555 1_555
C25_6 H18_6 1_555 1_555
C26_6 C25_6 1_555 1_555
H19_6 C26_6 1_555 1_555
C29_6 C24_6 1_555 1_555
H22_6 C29_6 1_555 1_555
C30_6 C31_6 1_555 1_555
C31_6 H23_6 1_555 1_555
C34_6 C33_6 1_555 1_555
H26_6 C34_6 1_555 1_555
C35_6 C30_6 1_555 1_555
H27_6 C35_6 1_555 1_555
P3_2 C10_6 1_555 1_555
C5_6 N2_3 1_555 1_555
C10_6 C11_6 1_555 1_555
C12_6 P1_6 1_555 1_555
C16_6 C17_6 1_555 1_555
C18_6 P1_6 1_555 1_555
C22_6 C23_6 1_555 1_555
C24_6 P3_2 1_555 1_555
C30_6 P3_2 1_555 1_555
C34_6 C35_6 1_555 1_555
H20_4 C27_4 1_555 1_555
C28_4 C27_4 1_555 1_555
H21_4 C28_4 1_555 1_555
H24_4 C32_4 1_555 1_555
H20_5 C27_5 1_555 1_555
C28_5 C27_5 1_555 1_555
H21_5 C28_5 1_555 1_555
H24_5 C32_5 1_555 1_555
H20_6 C27_6 1_555 1_555
C28_6 C27_6 1_555 1_555
H21_6 C28_6 1_555 1_555
H24_6 C32_6 1_555 1_555

#END
