
###############################################################################
#
# This file contains modified crystal structure data generated from the
# MOF subset of the Cambridge Structural Database (CSD) v543 
# hosted by the Cambridge Crystallographic Data Centre (CCDC).
#
# This work is licensed under the Creative Commons
# Attribution-NonCommercial-ShareAlike 4.0 International License.
# To view a copy of this license, visit
# http://creativecommons.org/licenses/by-nc-sa/4.0/
# or send a letter to
# Creative Commons, PO Box 1866, Mountain View, CA 94042, USA.
#
# CIF created using the CSD Python API on 29 September 2022
# The structure has been converted into the P1 space group
# The structure has a 3D framework
# The original CSD entry GEGBOL is in the monoclinic crystal system
# The framework has been calculated to contain at least 10.0% void space
# The void calculation uses a probe of radius 1.32A, grid spacing 0.4
# The framework is charged, counterions have been retained in the structure
# H atom positions have been added when not included in the experimental data
#
###############################################################################

data_GEGBOL
_chemical_formula_moiety         '(C344 H308 Ag8 Cl24 Gd4 N84 O100 4-)n'
_symmetry_cell_setting           triclinic
_symmetry_space_group_name_H-M   'P 1'
_symmetry_Int_Tables_number      1
_space_group_name_Hall           'P 1'
loop_
_symmetry_equiv_pos_site_id
_symmetry_equiv_pos_as_xyz
1 x,y,z
_cell_length_a                   14.24580(10)
_cell_length_b                   25.8856(2)
_cell_length_c                   27.8360(2)
_cell_angle_alpha                90
_cell_angle_beta                 97.4470(10)
_cell_angle_gamma                90
_cell_volume                     10178.3
loop_
_atom_site_label
_atom_site_type_symbol
_atom_site_fract_x
_atom_site_fract_y
_atom_site_fract_z
Ag1 Ag 0.07450(5) 0.51991(2) 0.92629(3)
N4 N 0.0156(5) 0.4498(3) 0.8930(3)
N21 N 0.0569(8) 0.5638(4) 0.4634(4)
H10 H 0.0114 0.3266 0.9054
C13 C 0.0444(7) 0.4028(3) 0.9077(4)
H11 H 0.1022 0.3989 0.9286
H22 H 0.0100 0.5449 0.6425
H23 H 0.0170 0.5570 0.5604
C40 C 0.0018(7) 0.7518(4) 0.8766(4)
H34 H 0.0504 0.7468 0.8567
H35 H 0.0382 0.8232 0.8933
C85 C 0.1265(9) 0.5422(4) 0.4666(4)
C86 C 0.2154(8) 0.5145(4) 0.4693(5)
H73 H 0.2181 0.4883 0.4948
H74 H 0.2680 0.5388 0.4768
H75 H 0.2202 0.4978 0.4381
N24 N 0.1185(5) 0.5982(3) 0.9452(3)
Gd1 Gd 0.52287(3) 0.584291(16) 0.781074(15)
Ag2 Ag 0.91733(6) 0.61500(3) 0.46665(3)
Ag3 Ag 0.01542(8) 0.26006(4) 0.81604(4)
N1 N 0.7096(4) 0.5861(2) 0.7853(2)
N2 N 0.6135(4) 0.5139(2) 0.8288(2)
N3 N 0.7176(4) 0.4499(2) 0.8245(2)
N5 N 0.5893(4) 0.5762(2) 0.7023(2)
N6 N 0.6812(4) 0.6161(2) 0.6545(2)
N7 N 0.9041(5) 0.6018(3) 0.5474(3)
N8 N 0.6075(4) 0.6626(2) 0.8196(2)
N9 N 0.7117(5) 0.6818(2) 0.8847(2)
N10 N 0.9272(5) 0.8064(3) 0.9278(3)
N11 N 0.3352(4) 0.5841(2) 0.7744(2)
N12 N 0.4376(4) 0.5007(2) 0.7556(2)
N13 N 0.3495(5) 0.4415(3) 0.7865(2)
N14 N 0.0867(7) 0.3230(4) 0.7802(3)
N15 N 0.4360(4) 0.6492(2) 0.7250(2)
N16 N 0.3355(5) 0.6486(3) 0.6558(2)
N17 N 0.0497(6) 0.7143(4) 0.6321(4)
N18 N 0.4506(4) 0.6015(2) 0.8571(2)
N19 N 0.3558(4) 0.6574(2) 0.8887(2)
C1 C 0.7449(5) 0.5331(3) 0.7814(3)
H1 H 0.8137 0.5317 0.7926
H2 H 0.7343 0.5214 0.7472
C2 C 0.6928(5) 0.4987(3) 0.8121(3)
C3 C 0.5865(6) 0.4717(3) 0.8541(3)
C4 C 0.5069(6) 0.4652(3) 0.8793(3)
H3 H 0.4632 0.4924 0.8821
C5 C 0.4964(6) 0.4166(3) 0.9001(3)
H4 H 0.4441 0.4107 0.9173
C6 C 0.5602(7) 0.3770(3) 0.8961(3)
H5 H 0.5498 0.3447 0.9108
C7 C 0.6376(6) 0.3821(3) 0.8719(3)
H6 H 0.6804 0.3544 0.8692
C8 C 0.6496(6) 0.4313(3) 0.8512(3)
C9 C 0.7940(6) 0.4196(3) 0.8069(3)
H7 H 0.8133 0.4371 0.7781
H8 H 0.7687 0.3852 0.7964
C10 C 0.8810(6) 0.4122(3) 0.8440(3)
C11 C 0.9096(8) 0.3653(4) 0.8604(4)
H9 H 0.8736 0.3356 0.8496
C12 C 0.9919(8) 0.3598(4) 0.8933(5)
C14 C 0.9361(7) 0.4544(4) 0.8617(4)
H12 H 0.9164 0.4880 0.8510
C15 C 0.7348(5) 0.6173(3) 0.7443(3)
H13 H 0.8010 0.6102 0.7391
H14 H 0.7289 0.6545 0.7514
C16 C 0.6680(5) 0.6028(3) 0.6997(3)
C17 C 0.5482(5) 0.5713(3) 0.6546(3)
C18 C 0.4646(6) 0.5467(3) 0.6345(3)
H15 H 0.4266 0.5282 0.6543
C19 C 0.4392(6) 0.5503(3) 0.5849(3)
H16 H 0.3818 0.5349 0.5706
C20 C 0.4961(7) 0.5761(4) 0.5557(3)
H17 H 0.4769 0.5771 0.5218
C21 C 0.5788(6) 0.6002(3) 0.5740(3)
H18 H 0.6167 0.6183 0.5538
C22 C 0.6040(5) 0.5963(3) 0.6243(3)
C23 C 0.7542(6) 0.6507(3) 0.6393(3)
H19 H 0.7838 0.6704 0.6678
H20 H 0.7236 0.6758 0.6153
C24 C 0.8301(6) 0.6218(3) 0.6173(3)
C25 C 0.8950(7) 0.5903(4) 0.6449(3)
H21 H 0.8911 0.5855 0.6785
C26 C 0.9647(7) 0.5661(5) 0.6238(4)
C27 C 0.9678(6) 0.5731(4) 0.5749(3)
C28 C 0.8378(6) 0.6259(3) 0.5684(3)
H24 H 0.7934 0.6469 0.5489
C29 C 0.7524(5) 0.6095(3) 0.8318(3)
H25 H 0.7597 0.5829 0.8576
H26 H 0.8159 0.6234 0.8283
C30 C 0.6905(5) 0.6513(3) 0.8449(3)
C31 C 0.5709(5) 0.7033(3) 0.8436(3)
C32 C 0.4873(6) 0.7315(3) 0.8327(3)
H27 H 0.4450 0.7252 0.8040
C33 C 0.4689(6) 0.7691(3) 0.8656(3)
H28 H 0.4135 0.7897 0.8588
C34 C 0.5293(6) 0.7776(3) 0.9083(3)
H29 H 0.5115 0.8022 0.9308
C35 C 0.6150(7) 0.7515(3) 0.9194(3)
H30 H 0.6568 0.7580 0.9483
C36 C 0.6347(5) 0.7154(3) 0.8855(3)
C37 C 0.7948(6) 0.6793(3) 0.9207(3)
H31 H 0.8241 0.6447 0.9196
H32 H 0.7755 0.6840 0.9533
C38 C 0.8677(6) 0.7203(3) 0.9124(3)
C39 C 0.9381(6) 0.7112(4) 0.8826(3)
H33 H 0.9428 0.6788 0.8669
C41 C 0.9946(7) 0.7966(4) 0.8983(3)
C42 C 0.8670(6) 0.7685(3) 0.9345(3)
H36 H 0.8208 0.7748 0.9556
C43 C 0.3021(5) 0.5342(3) 0.7921(3)
H37 H 0.2356 0.5280 0.7781
H38 H 0.3050 0.5351 0.8279
C44 C 0.3641(5) 0.4915(3) 0.7775(3)
C45 C 0.4752(5) 0.4512(3) 0.7477(3)
C46 C 0.5543(6) 0.4371(3) 0.7251(3)
H39 H 0.5907 0.4619 0.7105
C47 C 0.5758(7) 0.3852(4) 0.7255(3)
H40 H 0.6274 0.3740 0.7097
C48 C 0.5252(7) 0.3487(3) 0.7479(4)
H41 H 0.5450 0.3137 0.7483
C49 C 0.4450(7) 0.3622(3) 0.7701(3)
H42 H 0.4091 0.3374 0.7851
C50 C 0.4225(6) 0.4147(3) 0.7685(3)
C51 C 0.2816(6) 0.4191(3) 0.8163(3)
H43 H 0.2583 0.4469 0.8362
H44 H 0.3151 0.3935 0.8387
C52 C 0.1976(6) 0.3931(3) 0.7872(3)
C53 C 0.1538(10) 0.4119(5) 0.7447(5)
H45 H 0.1775 0.4422 0.7312
C54 C 0.0730(10) 0.3867(6) 0.7201(6)
H46 H 0.0417 0.3993 0.6902
C55 C 0.0429(7) 0.3437(5) 0.7414(4)
C56 C 0.1656(9) 0.3471(4) 0.8023(4)
H48 H 0.2003 0.3310 0.8297
C57 C 0.2970(5) 0.5917(3) 0.7224(3)
H49 H 0.2983 0.5585 0.7048
H50 H 0.2306 0.6037 0.7197
C58 C 0.3550(5) 0.6299(3) 0.7013(3)
C59 C 0.4699(6) 0.6826(3) 0.6911(3)
C60 C 0.5514(6) 0.7128(3) 0.6960(3)
H51 H 0.5917 0.7153 0.7259
C61 C 0.5710(7) 0.7389(3) 0.6549(4)
H52 H 0.6264 0.7597 0.6567
C62 C 0.5116(8) 0.7356(4) 0.6112(4)
H53 H 0.5293 0.7531 0.5838
C63 C 0.4264(7) 0.7074(3) 0.6061(3)
H54 H 0.3847 0.7059 0.5766
C64 C 0.4084(6) 0.6819(3) 0.6479(3)
C65 C 0.2615(6) 0.6288(3) 0.6185(3)
H55 H 0.2389 0.5952 0.6295
H56 H 0.2901 0.6224 0.5884
C66 C 0.1769(6) 0.6645(3) 0.6067(3)
C67 C 0.1412(7) 0.6720(4) 0.5586(4)
H57 H 0.1716 0.6574 0.5333
C68 C 0.0598(8) 0.7014(4) 0.5483(4)
H58 H 0.0343 0.7079 0.5156
C69 C 0.0173(7) 0.7205(4) 0.5845(4)
C70 C 0.1303(8) 0.6859(5) 0.6420(4)
H60 H 0.1556 0.6807 0.6749
C71 C 0.3050(5) 0.6272(3) 0.8036(3)
H61 H 0.2389 0.6219 0.8100
H62 H 0.3083 0.6603 0.7860
C72 C 0.3701(5) 0.6287(3) 0.8504(3)
C73 C 0.4913(5) 0.6135(3) 0.9041(3)
C74 C 0.5751(5) 0.5971(3) 0.9307(3)
H63 H 0.6143 0.5721 0.9182
C75 C 0.5996(6) 0.6184(3) 0.9763(3)
H64 H 0.6572 0.6083 0.9950
C76 C 0.5410(6) 0.6545(3) 0.9952(3)
C77 C 0.4576(6) 0.6702(3) 0.9702(3)
H66 H 0.4177 0.6942 0.9835
C78 C 0.4335(5) 0.6495(3) 0.9243(3)
C79 C 0.2780(6) 0.6930(3) 0.8940(3)
H67 H 0.2424 0.7001 0.8617
H68 H 0.3041 0.7261 0.9076
C80 C 0.2117(6) 0.6707(3) 0.9268(3)
C81 C 0.1868(8) 0.6964(4) 0.9660(4)
H69 H 0.2095 0.7304 0.9733
C82 C 0.1274(10) 0.6721(4) 0.9954(5)
C83 C 0.0947(8) 0.6234(4) 0.9830(4)
C84 C 0.1758(6) 0.6220(3) 0.9175(3)
H72 H 0.1923 0.6042 0.8900
O1 O 0.0765(7) 0.2013(5) 0.7727(6)
Ag5 Ag 0.91733(6) 0.88500(3) 0.96665(3)
N22 N 0.9272(5) 0.6936(3) 0.4278(3)
H76 H 0.146649 0.20309 0.77897
H77 H 0.0550646 0.166528 0.781702
H59 H 0.0394 0.2397 0.9236
H47 H 0.0140 0.8279 0.7730
H47_2 H 0.0140 0.6721 0.2730
H59_2 H 0.0394 0.2603 0.4236
Ag6 Ag 0.01542(8) 0.23994(4) 0.31604(4)
N23 N 0.0497(6) 0.7857(4) 0.1321(4)
Ag1_2 Ag 0.07450(5) 0.98009(2) 0.42629(3)
H22_2 H 0.0100 0.9551 0.1425
H23_2 H 0.0170 0.9430 0.0604
C40_2 C 0.0018(7) 0.7482(4) 0.3766(4)
H34_2 H 0.0504 0.7532 0.3567
H35_2 H 0.0382 0.6768 0.3933
N24_2 N 0.1185(5) 0.9018(3) 0.4452(3)
N3_2 N 0.7176(4) 0.0501(2) 0.3245(2)
N13_2 N 0.3495(5) 0.0585(3) 0.2865(2)
N14_2 N 0.0867(7) 0.1770(4) 0.2802(3)
C2_2 C 0.6928(5) 0.0013(3) 0.3121(3)
C3_2 C 0.5865(6) 0.0283(3) 0.3541(3)
C4_2 C 0.5069(6) 0.0348(3) 0.3793(3)
H3_2 H 0.4632 0.0076 0.3821
C5_2 C 0.4964(6) 0.0834(3) 0.4001(3)
H4_2 H 0.4441 0.0893 0.4173
C6_2 C 0.5602(7) 0.1230(3) 0.3961(3)
H5_2 H 0.5498 0.1553 0.4108
C7_2 C 0.6376(6) 0.1179(3) 0.3719(3)
H6_2 H 0.6804 0.1456 0.3692
C8_2 C 0.6496(6) 0.0687(3) 0.3512(3)
C9_2 C 0.7940(6) 0.0804(3) 0.3069(3)
H7_2 H 0.8133 0.0629 0.2781
H8_2 H 0.7687 0.1148 0.2964
C10_2 C 0.8810(6) 0.0878(3) 0.3440(3)
C11_2 C 0.9096(8) 0.1347(4) 0.3604(4)
H9_2 H 0.8736 0.1644 0.3496
C12_2 C 0.9919(8) 0.1402(4) 0.3933(5)
C14_2 C 0.9361(7) 0.0456(4) 0.3617(4)
H12_2 H 0.9164 0.0120 0.3510
C44_2 C 0.3641(5) 0.0085(3) 0.2775(3)
C45_2 C 0.4752(5) 0.0488(3) 0.2477(3)
C46_2 C 0.5543(6) 0.0629(3) 0.2251(3)
H39_2 H 0.5907 0.0381 0.2105
C47_2 C 0.5758(7) 0.1148(4) 0.2255(3)
H40_2 H 0.6274 0.1260 0.2097
C48_2 C 0.5252(7) 0.1513(3) 0.2479(4)
H41_2 H 0.5450 0.1863 0.2483
C49_2 C 0.4450(7) 0.1378(3) 0.2701(3)
H42_2 H 0.4091 0.1626 0.2851
C50_2 C 0.4225(6) 0.0853(3) 0.2685(3)
C51_2 C 0.2816(6) 0.0809(3) 0.3163(3)
H43_2 H 0.2583 0.0531 0.3362
H44_2 H 0.3151 0.1065 0.3387
C52_2 C 0.1976(6) 0.1069(3) 0.2872(3)
C53_2 C 0.1538(10) 0.0881(5) 0.2447(5)
H45_2 H 0.1775 0.0578 0.2312
C54_2 C 0.0730(10) 0.1133(6) 0.2201(6)
H46_2 H 0.0417 0.1007 0.1902
C55_2 C 0.0429(7) 0.1563(5) 0.2414(4)
C56_2 C 0.1656(9) 0.1529(4) 0.3023(4)
H48_2 H 0.2003 0.1690 0.3297
O1_2 O 0.0765(7) 0.2987(5) 0.2727(6)
H76_2 H 0.146649 0.29691 0.27897
H77_2 H 0.0550646 0.333472 0.281702
Gd1_2 Gd 0.52287(3) 0.915709(16) 0.281074(15)
N1_2 N 0.7096(4) 0.9139(2) 0.2853(2)
N2_2 N 0.6135(4) 0.9861(2) 0.3288(2)
N5_2 N 0.5893(4) 0.9238(2) 0.2023(2)
N6_2 N 0.6812(4) 0.8839(2) 0.1545(2)
N7_2 N 0.9041(5) 0.8982(3) 0.0474(3)
N8_2 N 0.6075(4) 0.8374(2) 0.3196(2)
N9_2 N 0.7117(5) 0.8182(2) 0.3847(2)
N11_2 N 0.3352(4) 0.9159(2) 0.2744(2)
N12_2 N 0.4376(4) 0.9993(2) 0.2556(2)
N15_2 N 0.4360(4) 0.8508(2) 0.2250(2)
N16_2 N 0.3355(5) 0.8514(3) 0.1558(2)
N18_2 N 0.4506(4) 0.8985(2) 0.3571(2)
N19_2 N 0.3558(4) 0.8426(2) 0.3887(2)
C1_2 C 0.7449(5) 0.9669(3) 0.2814(3)
H1_2 H 0.8137 0.9683 0.2926
H2_2 H 0.7343 0.9786 0.2472
C15_2 C 0.7348(5) 0.8827(3) 0.2443(3)
H13_2 H 0.8010 0.8898 0.2391
H14_2 H 0.7289 0.8455 0.2514
C16_2 C 0.6680(5) 0.8972(3) 0.1997(3)
C17_2 C 0.5482(5) 0.9287(3) 0.1546(3)
C18_2 C 0.4646(6) 0.9533(3) 0.1345(3)
H15_2 H 0.4266 0.9718 0.1543
C19_2 C 0.4392(6) 0.9497(3) 0.0849(3)
H16_2 H 0.3818 0.9651 0.0706
C20_2 C 0.4961(7) 0.9239(4) 0.0557(3)
H17_2 H 0.4769 0.9229 0.0218
C21_2 C 0.5788(6) 0.8998(3) 0.0740(3)
H18_2 H 0.6167 0.8817 0.0538
C22_2 C 0.6040(5) 0.9037(3) 0.1243(3)
C23_2 C 0.7542(6) 0.8493(3) 0.1393(3)
H19_2 H 0.7838 0.8296 0.1678
H20_2 H 0.7236 0.8242 0.1153
C24_2 C 0.8301(6) 0.8782(3) 0.1173(3)
C25_2 C 0.8950(7) 0.9097(4) 0.1449(3)
H21_2 H 0.8911 0.9145 0.1785
C26_2 C 0.9647(7) 0.9339(5) 0.1238(4)
C27_2 C 0.9678(6) 0.9269(4) 0.0749(3)
C28_2 C 0.8378(6) 0.8741(3) 0.0684(3)
H24_2 H 0.7934 0.8531 0.0489
C29_2 C 0.7524(5) 0.8905(3) 0.3318(3)
H25_2 H 0.7597 0.9171 0.3576
H26_2 H 0.8159 0.8766 0.3283
C30_2 C 0.6905(5) 0.8487(3) 0.3449(3)
C31_2 C 0.5709(5) 0.7967(3) 0.3436(3)
C32_2 C 0.4873(6) 0.7685(3) 0.3327(3)
H27_2 H 0.4450 0.7748 0.3040
C33_2 C 0.4689(6) 0.7309(3) 0.3656(3)
H28_2 H 0.4135 0.7103 0.3588
C34_2 C 0.5293(6) 0.7224(3) 0.4083(3)
H29_2 H 0.5115 0.6978 0.4308
C35_2 C 0.6150(7) 0.7485(3) 0.4194(3)
H30_2 H 0.6568 0.7420 0.4483
C36_2 C 0.6347(5) 0.7846(3) 0.3855(3)
C37_2 C 0.7948(6) 0.8207(3) 0.4207(3)
H31_2 H 0.8241 0.8553 0.4196
H32_2 H 0.7755 0.8160 0.4533
C38_2 C 0.8677(6) 0.7797(3) 0.4124(3)
C39_2 C 0.9381(6) 0.7888(4) 0.3826(3)
H33_2 H 0.9428 0.8212 0.3669
C41_2 C 0.9946(7) 0.7034(4) 0.3983(3)
C42_2 C 0.8670(6) 0.7315(3) 0.4345(3)
H36_2 H 0.8208 0.7252 0.4556
C43_2 C 0.3021(5) 0.9658(3) 0.2921(3)
H37_2 H 0.2356 0.9720 0.2781
H38_2 H 0.3050 0.9649 0.3279
C57_2 C 0.2970(5) 0.9083(3) 0.2224(3)
H49_2 H 0.2983 0.9415 0.2048
H50_2 H 0.2306 0.8963 0.2197
C58_2 C 0.3550(5) 0.8701(3) 0.2013(3)
C59_2 C 0.4699(6) 0.8174(3) 0.1911(3)
C60_2 C 0.5514(6) 0.7872(3) 0.1960(3)
H51_2 H 0.5917 0.7847 0.2259
C61_2 C 0.5710(7) 0.7611(3) 0.1549(4)
H52_2 H 0.6264 0.7403 0.1567
C62_2 C 0.5116(8) 0.7644(4) 0.1112(4)
H53_2 H 0.5293 0.7469 0.0838
C63_2 C 0.4264(7) 0.7926(3) 0.1061(3)
H54_2 H 0.3847 0.7941 0.0766
C64_2 C 0.4084(6) 0.8181(3) 0.1479(3)
C65_2 C 0.2615(6) 0.8712(3) 0.1185(3)
H55_2 H 0.2389 0.9048 0.1295
H56_2 H 0.2901 0.8776 0.0884
C66_2 C 0.1769(6) 0.8355(3) 0.1067(3)
C67_2 C 0.1412(7) 0.8280(4) 0.0586(4)
H57_2 H 0.1716 0.8426 0.0333
C68_2 C 0.0598(8) 0.7986(4) 0.0483(4)
H58_2 H 0.0343 0.7921 0.0156
C69_2 C 0.0173(7) 0.7795(4) 0.0845(4)
C70_2 C 0.1303(8) 0.8141(5) 0.1420(4)
H60_2 H 0.1556 0.8193 0.1749
C71_2 C 0.3050(5) 0.8728(3) 0.3036(3)
H61_2 H 0.2389 0.8781 0.3100
H62_2 H 0.3083 0.8397 0.2860
C72_2 C 0.3701(5) 0.8713(3) 0.3504(3)
C73_2 C 0.4913(5) 0.8865(3) 0.4041(3)
C74_2 C 0.5751(5) 0.9029(3) 0.4307(3)
H63_2 H 0.6143 0.9279 0.4182
C75_2 C 0.5996(6) 0.8816(3) 0.4763(3)
H64_2 H 0.6572 0.8917 0.4950
C76_2 C 0.5410(6) 0.8455(3) 0.4952(3)
H65 H 0.5602 0.8314 0.5265
C77_2 C 0.4576(6) 0.8298(3) 0.4702(3)
H66_2 H 0.4177 0.8058 0.4835
C78_2 C 0.4335(5) 0.8505(3) 0.4243(3)
C79_2 C 0.2780(6) 0.8070(3) 0.3940(3)
H67_2 H 0.2424 0.7999 0.3617
H68_2 H 0.3041 0.7739 0.4076
C80_2 C 0.2117(6) 0.8293(3) 0.4268(3)
C81_2 C 0.1868(8) 0.8036(4) 0.4660(4)
H69_2 H 0.2095 0.7696 0.4733
C82_2 C 0.1274(10) 0.8279(4) 0.4954(5)
H70 H 0.1102 0.8111 0.5233
C83_2 C 0.0947(8) 0.8766(4) 0.4830(4)
H71 H 0.0532 0.8928 0.5025
C84_2 C 0.1758(6) 0.8780(3) 0.4175(3)
H72_2 H 0.1923 0.8958 0.3900
H65_2 H 0.5602 0.6686 0.0265
H70_2 H 0.1102 0.6889 0.0233
H71_2 H 0.0532 0.6072 0.0025
H47_3 H 0.9860 0.3279 0.7270
H59_3 H 0.9606 0.7397 0.5764
Ag6_2 Ag 0.98458(8) 0.76006(4) 0.68396(4)
N23_2 N 0.9503(6) 0.2143(4) 0.8679(4)
Ag2_2 Ag 0.08267(6) 0.11500(3) 0.03335(3)
N22_2 N 0.0728(5) 0.1936(3) 0.0722(3)
Gd1_3 Gd 0.47713(3) 0.084291(16) 0.718926(15)
N1_3 N 0.2904(4) 0.0861(2) 0.7147(2)
N2_3 N 0.3865(4) 0.0139(2) 0.6712(2)
N5_3 N 0.4107(4) 0.0762(2) 0.7977(2)
N6_3 N 0.3188(4) 0.1161(2) 0.8455(2)
N7_3 N 0.0959(5) 0.1018(3) 0.9526(3)
N8_3 N 0.3925(4) 0.1626(2) 0.6804(2)
N9_3 N 0.2883(5) 0.1818(2) 0.6153(2)
N10_2 N 0.0728(5) 0.3064(3) 0.5722(3)
N11_3 N 0.6648(4) 0.0841(2) 0.7256(2)
N12_3 N 0.5624(4) 0.0007(2) 0.7444(2)
N15_3 N 0.5640(4) 0.1492(2) 0.7750(2)
N16_3 N 0.6645(5) 0.1486(3) 0.8442(2)
N18_3 N 0.5494(4) 0.1015(2) 0.6429(2)
N19_3 N 0.6442(4) 0.1574(2) 0.6113(2)
N20 N 0.8815(5) 0.0982(3) 0.5548(3)
C1_3 C 0.2551(5) 0.0331(3) 0.7186(3)
H1_3 H 0.1863 0.0317 0.7074
H2_3 H 0.2657 0.0214 0.7528
C15_3 C 0.2652(5) 0.1173(3) 0.7557(3)
H13_3 H 0.1990 0.1102 0.7609
H14_3 H 0.2711 0.1545 0.7486
C16_3 C 0.3320(5) 0.1028(3) 0.8003(3)
C17_3 C 0.4518(5) 0.0713(3) 0.8454(3)
C18_3 C 0.5354(6) 0.0467(3) 0.8655(3)
H15_3 H 0.5734 0.0282 0.8457
C19_3 C 0.5608(6) 0.0503(3) 0.9151(3)
H16_3 H 0.6182 0.0349 0.9294
C20_3 C 0.5039(7) 0.0761(4) 0.9443(3)
H17_3 H 0.5231 0.0771 0.9782
C21_3 C 0.4212(6) 0.1002(3) 0.9260(3)
H18_3 H 0.3833 0.1183 0.9462
C22_3 C 0.3960(5) 0.0963(3) 0.8757(3)
C23_3 C 0.2458(6) 0.1507(3) 0.8607(3)
H19_3 H 0.2162 0.1704 0.8322
H20_3 H 0.2764 0.1758 0.8847
C24_3 C 0.1699(6) 0.1218(3) 0.8827(3)
C25_3 C 0.1050(7) 0.0903(4) 0.8551(3)
H21_3 H 0.1089 0.0855 0.8215
C26_3 C 0.0353(7) 0.0661(5) 0.8762(4)
C27_3 C 0.0322(6) 0.0731(4) 0.9251(3)
C28_3 C 0.1622(6) 0.1259(3) 0.9316(3)
H24_3 H 0.2066 0.1469 0.9511
C29_3 C 0.2476(5) 0.1095(3) 0.6682(3)
H25_3 H 0.2403 0.0829 0.6424
H26_3 H 0.1841 0.1234 0.6717
C30_3 C 0.3095(5) 0.1513(3) 0.6551(3)
C31_3 C 0.4291(5) 0.2033(3) 0.6564(3)
C32_3 C 0.5127(6) 0.2315(3) 0.6673(3)
H27_3 H 0.5550 0.2252 0.6960
C33_3 C 0.5311(6) 0.2691(3) 0.6344(3)
H28_3 H 0.5865 0.2897 0.6412
C34_3 C 0.4707(6) 0.2776(3) 0.5917(3)
H29_3 H 0.4885 0.3022 0.5692
C35_3 C 0.3850(7) 0.2515(3) 0.5806(3)
H30_3 H 0.3432 0.2580 0.5517
C36_3 C 0.3653(5) 0.2154(3) 0.6145(3)
C37_3 C 0.2052(6) 0.1793(3) 0.5793(3)
H31_3 H 0.1759 0.1447 0.5804
H32_3 H 0.2245 0.1840 0.5467
C38_3 C 0.1323(6) 0.2203(3) 0.5876(3)
C39_3 C 0.0619(6) 0.2112(4) 0.6174(3)
H33_3 H 0.0572 0.1788 0.6331
C41_3 C 0.0054(7) 0.2966(4) 0.6017(3)
C42_3 C 0.1330(6) 0.2685(3) 0.5655(3)
H36_3 H 0.1792 0.2748 0.5444
C43_3 C 0.6979(5) 0.0342(3) 0.7079(3)
H37_3 H 0.7644 0.0280 0.7219
H38_3 H 0.6950 0.0351 0.6721
C57_3 C 0.7030(5) 0.0917(3) 0.7776(3)
H49_3 H 0.7017 0.0585 0.7952
H50_3 H 0.7694 0.1037 0.7803
C58_3 C 0.6450(5) 0.1299(3) 0.7987(3)
C59_3 C 0.5301(6) 0.1826(3) 0.8089(3)
C60_3 C 0.4486(6) 0.2128(3) 0.8040(3)
H51_3 H 0.4083 0.2153 0.7741
C61_3 C 0.4290(7) 0.2389(3) 0.8451(4)
H52_3 H 0.3736 0.2597 0.8433
C62_3 C 0.4884(8) 0.2356(4) 0.8888(4)
H53_3 H 0.4707 0.2531 0.9162
C63_3 C 0.5736(7) 0.2074(3) 0.8939(3)
H54_3 H 0.6153 0.2059 0.9234
C64_3 C 0.5916(6) 0.1819(3) 0.8521(3)
C65_3 C 0.7385(6) 0.1288(3) 0.8815(3)
H55_3 H 0.7611 0.0952 0.8705
H56_3 H 0.7099 0.1224 0.9116
C66_3 C 0.8231(6) 0.1645(3) 0.8933(3)
C67_3 C 0.8588(7) 0.1720(4) 0.9414(4)
H57_3 H 0.8284 0.1574 0.9667
C68_3 C 0.9402(8) 0.2014(4) 0.9517(4)
H58_3 H 0.9657 0.2079 0.9844
C69_3 C 0.9827(7) 0.2205(4) 0.9155(4)
C70_3 C 0.8697(8) 0.1859(5) 0.8580(4)
H60_3 H 0.8444 0.1807 0.8251
C71_3 C 0.6950(5) 0.1272(3) 0.6964(3)
H61_3 H 0.7611 0.1219 0.6900
H62_3 H 0.6917 0.1603 0.7140
C72_3 C 0.6299(5) 0.1287(3) 0.6496(3)
C73_3 C 0.5087(5) 0.1135(3) 0.5959(3)
C74_3 C 0.4249(5) 0.0971(3) 0.5693(3)
H63_3 H 0.3857 0.0721 0.5818
C75_3 C 0.4004(6) 0.1184(3) 0.5237(3)
H64_3 H 0.3428 0.1083 0.5050
C76_3 C 0.4590(6) 0.1545(3) 0.5048(3)
H65_3 H 0.4398 0.1686 0.4735
C77_3 C 0.5424(6) 0.1702(3) 0.5298(3)
H66_3 H 0.5823 0.1942 0.5165
C78_3 C 0.5665(5) 0.1495(3) 0.5757(3)
C79_3 C 0.7220(6) 0.1930(3) 0.6060(3)
H67_3 H 0.7576 0.2001 0.6383
H68_3 H 0.6959 0.2261 0.5924
C80_3 C 0.7883(6) 0.1707(3) 0.5732(3)
C81_3 C 0.8132(8) 0.1964(4) 0.5340(4)
H69_3 H 0.7905 0.2304 0.5267
C82_3 C 0.8726(10) 0.1721(4) 0.5046(5)
H70_3 H 0.8898 0.1889 0.4767
C83_3 C 0.9053(8) 0.1234(4) 0.5170(4)
H71_3 H 0.9468 0.1072 0.4975
C84_3 C 0.8242(6) 0.1220(3) 0.5825(3)
H72_3 H 0.8077 0.1042 0.6100
Ag4 Ag 0.92550(5) 0.01991(2) 0.57371(3)
Ag5_2 Ag 0.08267(6) 0.38500(3) 0.53335(3)
N3_3 N 0.2824(4) 0.9499(2) 0.6755(2)
N13_3 N 0.6505(5) 0.9415(3) 0.7135(2)
N14_3 N 0.9133(7) 0.8230(4) 0.7198(3)
C2_3 C 0.3072(5) 0.9987(3) 0.6879(3)
C3_3 C 0.4135(6) 0.9717(3) 0.6459(3)
C4_3 C 0.4931(6) 0.9652(3) 0.6207(3)
H3_3 H 0.5368 0.9924 0.6179
C5_3 C 0.5036(6) 0.9166(3) 0.5999(3)
H4_3 H 0.5559 0.9107 0.5827
C6_3 C 0.4398(7) 0.8770(3) 0.6039(3)
H5_3 H 0.4502 0.8447 0.5892
C7_3 C 0.3624(6) 0.8821(3) 0.6281(3)
H6_3 H 0.3196 0.8544 0.6308
C8_3 C 0.3504(6) 0.9313(3) 0.6488(3)
C9_3 C 0.2060(6) 0.9196(3) 0.6931(3)
H7_3 H 0.1867 0.9371 0.7219
H8_3 H 0.2313 0.8852 0.7036
C10_3 C 0.1190(6) 0.9122(3) 0.6560(3)
C11_3 C 0.0904(8) 0.8653(4) 0.6396(4)
H9_3 H 0.1264 0.8356 0.6504
C12_3 C 0.0081(8) 0.8598(4) 0.6067(5)
C14_3 C 0.0639(7) 0.9544(4) 0.6383(4)
H12_3 H 0.0836 0.9880 0.6490
C44_3 C 0.6359(5) 0.9915(3) 0.7225(3)
C45_3 C 0.5248(5) 0.9512(3) 0.7523(3)
C46_3 C 0.4457(6) 0.9371(3) 0.7749(3)
H39_3 H 0.4093 0.9619 0.7895
C47_3 C 0.4242(7) 0.8852(4) 0.7745(3)
H40_3 H 0.3726 0.8740 0.7903
C48_3 C 0.4748(7) 0.8487(3) 0.7521(4)
H41_3 H 0.4550 0.8137 0.7517
C49_3 C 0.5550(7) 0.8622(3) 0.7299(3)
H42_3 H 0.5909 0.8374 0.7149
C50_3 C 0.5775(6) 0.9147(3) 0.7315(3)
C51_3 C 0.7184(6) 0.9191(3) 0.6837(3)
H43_3 H 0.7417 0.9469 0.6638
H44_3 H 0.6849 0.8935 0.6613
C52_3 C 0.8024(6) 0.8931(3) 0.7128(3)
C53_3 C 0.8462(10) 0.9119(5) 0.7553(5)
H45_3 H 0.8225 0.9422 0.7688
C54_3 C 0.9270(10) 0.8867(6) 0.7799(6)
H46_3 H 0.9583 0.8993 0.8098
C55_3 C 0.9571(7) 0.8437(5) 0.7586(4)
C56_3 C 0.8344(9) 0.8471(4) 0.6977(4)
H48_3 H 0.7997 0.8310 0.6703
O1_3 O 0.9235(7) 0.7013(5) 0.7273(6)
H76_3 H 0.853351 0.70309 0.72103
H77_3 H 0.944935 0.666528 0.718298
H22_3 H 0.9900 0.0449 0.8575
H23_3 H 0.9830 0.0570 0.9396
C40_3 C 0.9982(7) 0.2518(4) 0.6234(4)
H34_3 H 0.9496 0.2468 0.6433
H35_3 H 0.9618 0.3232 0.6067
Gd1_4 Gd 0.47713(3) 0.415709(16) 0.218926(15)
Ag3_2 Ag 0.98458(8) 0.73994(4) 0.18396(4)
N1_4 N 0.2904(4) 0.4139(2) 0.2147(2)
N2_4 N 0.3865(4) 0.4861(2) 0.1712(2)
N3_4 N 0.2824(4) 0.5501(2) 0.1755(2)
N5_4 N 0.4107(4) 0.4238(2) 0.2977(2)
N6_4 N 0.3188(4) 0.3839(2) 0.3455(2)
N7_4 N 0.0959(5) 0.3982(3) 0.4526(3)
N8_4 N 0.3925(4) 0.3374(2) 0.1804(2)
N9_4 N 0.2883(5) 0.3182(2) 0.1153(2)
N11_4 N 0.6648(4) 0.4159(2) 0.2256(2)
N12_4 N 0.5624(4) 0.4993(2) 0.2444(2)
N13_4 N 0.6505(5) 0.5585(3) 0.2135(2)
N14_4 N 0.9133(7) 0.6770(4) 0.2198(3)
N15_4 N 0.5640(4) 0.3508(2) 0.2750(2)
N16_4 N 0.6645(5) 0.3514(3) 0.3442(2)
N17_2 N 0.9503(6) 0.2857(4) 0.3679(4)
N18_4 N 0.5494(4) 0.3985(2) 0.1429(2)
N19_4 N 0.6442(4) 0.3426(2) 0.1113(2)
N20_2 N 0.8815(5) 0.4018(3) 0.0548(3)
C1_4 C 0.2551(5) 0.4669(3) 0.2186(3)
H1_4 H 0.1863 0.4683 0.2074
H2_4 H 0.2657 0.4786 0.2528
C2_4 C 0.3072(5) 0.5013(3) 0.1879(3)
C3_4 C 0.4135(6) 0.5283(3) 0.1459(3)
C4_4 C 0.4931(6) 0.5348(3) 0.1207(3)
H3_4 H 0.5368 0.5076 0.1179
C5_4 C 0.5036(6) 0.5834(3) 0.0999(3)
H4_4 H 0.5559 0.5893 0.0827
C6_4 C 0.4398(7) 0.6230(3) 0.1039(3)
H5_4 H 0.4502 0.6553 0.0892
C7_4 C 0.3624(6) 0.6179(3) 0.1281(3)
H6_4 H 0.3196 0.6456 0.1308
C8_4 C 0.3504(6) 0.5687(3) 0.1488(3)
C9_4 C 0.2060(6) 0.5804(3) 0.1931(3)
H7_4 H 0.1867 0.5629 0.2219
H8_4 H 0.2313 0.6148 0.2036
C10_4 C 0.1190(6) 0.5878(3) 0.1560(3)
C11_4 C 0.0904(8) 0.6347(4) 0.1396(4)
H9_4 H 0.1264 0.6644 0.1504
C12_4 C 0.0081(8) 0.6402(4) 0.1067(5)
C14_4 C 0.0639(7) 0.5456(4) 0.1383(4)
H12_4 H 0.0836 0.5120 0.1490
C15_4 C 0.2652(5) 0.3827(3) 0.2557(3)
H13_4 H 0.1990 0.3898 0.2609
H14_4 H 0.2711 0.3455 0.2486
C16_4 C 0.3320(5) 0.3972(3) 0.3003(3)
C17_4 C 0.4518(5) 0.4287(3) 0.3454(3)
C18_4 C 0.5354(6) 0.4533(3) 0.3655(3)
H15_4 H 0.5734 0.4718 0.3457
C19_4 C 0.5608(6) 0.4497(3) 0.4151(3)
H16_4 H 0.6182 0.4651 0.4294
C20_4 C 0.5039(7) 0.4239(4) 0.4443(3)
H17_4 H 0.5231 0.4229 0.4782
C21_4 C 0.4212(6) 0.3998(3) 0.4260(3)
H18_4 H 0.3833 0.3817 0.4462
C22_4 C 0.3960(5) 0.4037(3) 0.3757(3)
C23_4 C 0.2458(6) 0.3493(3) 0.3607(3)
H19_4 H 0.2162 0.3296 0.3322
H20_4 H 0.2764 0.3242 0.3847
C24_4 C 0.1699(6) 0.3782(3) 0.3827(3)
C25_4 C 0.1050(7) 0.4097(4) 0.3551(3)
H21_4 H 0.1089 0.4145 0.3215
C26_4 C 0.0353(7) 0.4339(5) 0.3762(4)
C27_4 C 0.0322(6) 0.4269(4) 0.4251(3)
C28_4 C 0.1622(6) 0.3741(3) 0.4316(3)
H24_4 H 0.2066 0.3531 0.4511
C29_4 C 0.2476(5) 0.3905(3) 0.1682(3)
H25_4 H 0.2403 0.4171 0.1424
H26_4 H 0.1841 0.3766 0.1717
C30_4 C 0.3095(5) 0.3487(3) 0.1551(3)
C31_4 C 0.4291(5) 0.2967(3) 0.1564(3)
C32_4 C 0.5127(6) 0.2685(3) 0.1673(3)
H27_4 H 0.5550 0.2748 0.1960
C33_4 C 0.5311(6) 0.2309(3) 0.1344(3)
H28_4 H 0.5865 0.2103 0.1412
C34_4 C 0.4707(6) 0.2224(3) 0.0917(3)
H29_4 H 0.4885 0.1978 0.0692
C35_4 C 0.3850(7) 0.2485(3) 0.0806(3)
H30_4 H 0.3432 0.2420 0.0517
C36_4 C 0.3653(5) 0.2846(3) 0.1145(3)
C37_4 C 0.2052(6) 0.3207(3) 0.0793(3)
H31_4 H 0.1759 0.3553 0.0804
H32_4 H 0.2245 0.3160 0.0467
C38_4 C 0.1323(6) 0.2797(3) 0.0876(3)
C39_4 C 0.0619(6) 0.2888(4) 0.1174(3)
H33_4 H 0.0572 0.3212 0.1331
C41_4 C 0.0054(7) 0.2034(4) 0.1017(3)
C42_4 C 0.1330(6) 0.2315(3) 0.0655(3)
H36_4 H 0.1792 0.2252 0.0444
C43_4 C 0.6979(5) 0.4658(3) 0.2079(3)
H37_4 H 0.7644 0.4720 0.2219
H38_4 H 0.6950 0.4649 0.1721
C44_4 C 0.6359(5) 0.5085(3) 0.2225(3)
C45_4 C 0.5248(5) 0.5488(3) 0.2523(3)
C46_4 C 0.4457(6) 0.5629(3) 0.2749(3)
H39_4 H 0.4093 0.5381 0.2895
C47_4 C 0.4242(7) 0.6148(4) 0.2745(3)
H40_4 H 0.3726 0.6260 0.2903
C48_4 C 0.4748(7) 0.6513(3) 0.2521(4)
H41_4 H 0.4550 0.6863 0.2517
C49_4 C 0.5550(7) 0.6378(3) 0.2299(3)
H42_4 H 0.5909 0.6626 0.2149
C50_4 C 0.5775(6) 0.5853(3) 0.2315(3)
C51_4 C 0.7184(6) 0.5809(3) 0.1837(3)
H43_4 H 0.7417 0.5531 0.1638
H44_4 H 0.6849 0.6065 0.1613
C52_4 C 0.8024(6) 0.6069(3) 0.2128(3)
C53_4 C 0.8462(10) 0.5881(5) 0.2553(5)
H45_4 H 0.8225 0.5578 0.2688
C54_4 C 0.9270(10) 0.6133(6) 0.2799(6)
H46_4 H 0.9583 0.6007 0.3098
C55_4 C 0.9571(7) 0.6563(5) 0.2586(4)
C56_4 C 0.8344(9) 0.6529(4) 0.1977(4)
H48_4 H 0.7997 0.6690 0.1703
C57_4 C 0.7030(5) 0.4083(3) 0.2776(3)
H49_4 H 0.7017 0.4415 0.2952
H50_4 H 0.7694 0.3963 0.2803
C58_4 C 0.6450(5) 0.3701(3) 0.2987(3)
C59_4 C 0.5301(6) 0.3174(3) 0.3089(3)
C60_4 C 0.4486(6) 0.2872(3) 0.3040(3)
H51_4 H 0.4083 0.2847 0.2741
C61_4 C 0.4290(7) 0.2611(3) 0.3451(4)
H52_4 H 0.3736 0.2403 0.3433
C62_4 C 0.4884(8) 0.2644(4) 0.3888(4)
H53_4 H 0.4707 0.2469 0.4162
C63_4 C 0.5736(7) 0.2926(3) 0.3939(3)
H54_4 H 0.6153 0.2941 0.4234
C64_4 C 0.5916(6) 0.3181(3) 0.3521(3)
C65_4 C 0.7385(6) 0.3712(3) 0.3815(3)
H55_4 H 0.7611 0.4048 0.3705
H56_4 H 0.7099 0.3776 0.4116
C66_4 C 0.8231(6) 0.3355(3) 0.3933(3)
C67_4 C 0.8588(7) 0.3280(4) 0.4414(4)
H57_4 H 0.8284 0.3426 0.4667
C68_4 C 0.9402(8) 0.2986(4) 0.4517(4)
H58_4 H 0.9657 0.2921 0.4844
C69_4 C 0.9827(7) 0.2795(4) 0.4155(4)
C70_4 C 0.8697(8) 0.3141(5) 0.3580(4)
H60_4 H 0.8444 0.3193 0.3251
C71_4 C 0.6950(5) 0.3728(3) 0.1964(3)
H61_4 H 0.7611 0.3781 0.1900
H62_4 H 0.6917 0.3397 0.2140
C72_4 C 0.6299(5) 0.3713(3) 0.1496(3)
C73_4 C 0.5087(5) 0.3865(3) 0.0959(3)
C74_4 C 0.4249(5) 0.4029(3) 0.0693(3)
H63_4 H 0.3857 0.4279 0.0818
C75_4 C 0.4004(6) 0.3816(3) 0.0237(3)
H64_4 H 0.3428 0.3917 0.0050
C76_4 C 0.4590(6) 0.3455(3) 0.0048(3)
C77_4 C 0.5424(6) 0.3298(3) 0.0298(3)
H66_4 H 0.5823 0.3058 0.0165
C78_4 C 0.5665(5) 0.3505(3) 0.0757(3)
C79_4 C 0.7220(6) 0.3070(3) 0.1060(3)
H67_4 H 0.7576 0.2999 0.1383
H68_4 H 0.6959 0.2739 0.0924
C80_4 C 0.7883(6) 0.3293(3) 0.0732(3)
C81_4 C 0.8132(8) 0.3036(4) 0.0340(4)
H69_4 H 0.7905 0.2696 0.0267
C82_4 C 0.8726(10) 0.3279(4) 0.0046(5)
C83_4 C 0.9053(8) 0.3766(4) 0.0170(4)
C84_4 C 0.8242(6) 0.3780(3) 0.0825(3)
H72_4 H 0.8077 0.3958 0.1100
O1_4 O 0.9235(7) 0.7987(5) 0.2273(6)
Ag4_2 Ag 0.92550(5) 0.48009(2) 0.07371(3)
H76_4 H 0.853351 0.79691 0.22103
H77_4 H 0.944935 0.833472 0.218298
N4_2 N 0.9844(5) 0.5502(3) 0.1070(3)
N21_2 N 0.9431(8) 0.4362(4) 0.5366(4)
H10_2 H 0.9886 0.6734 0.0946
C13_2 C 0.9556(7) 0.5972(3) 0.0923(4)
H11_2 H 0.8978 0.6011 0.0714
H22_4 H 0.9900 0.4551 0.3575
H23_4 H 0.9830 0.4430 0.4396
C40_4 C 0.9982(7) 0.2482(4) 0.1234(4)
H34_4 H 0.9496 0.2532 0.1433
H35_4 H 0.9618 0.1768 0.1067
C85_2 C 0.8735(9) 0.4578(4) 0.5334(4)
C86_2 C 0.7846(8) 0.4855(4) 0.5307(5)
H73_2 H 0.7819 0.5117 0.5052
H74_2 H 0.7320 0.4612 0.5232
H75_2 H 0.7798 0.5022 0.5619
H47_4 H 0.9860 0.1721 0.2270
H59_4 H 0.9606 0.7603 0.0764
N21_3 N 0.9431(8) 0.0638(4) 0.0366(4)
C85_3 C 0.8735(9) 0.0422(4) 0.0334(4)
C86_3 C 0.7846(8) 0.0145(4) 0.0307(5)
H74_3 H 0.7320 0.0388 0.0232
H73_3 H 0.7819 0.9883 0.0052
H75_3 H 0.7798 0.9978 0.0619
N4_3 N 0.9844(5) 0.9498(3) 0.6070(3)
H10_3 H 0.9886 0.8266 0.5946
C13_3 C 0.9556(7) 0.9028(3) 0.5923(4)
H11_3 H 0.8978 0.8989 0.5714
H65_4 H 0.4398 0.3314 0.9735
H70_4 H 0.8898 0.3111 0.9767
H71_4 H 0.9468 0.3928 0.9975
N4_4 N 0.0156(5) 0.0502(3) 0.3930(3)
H10_4 H 0.0114 0.1734 0.4054
C13_4 C 0.0444(7) 0.0972(3) 0.4077(4)
H11_4 H 0.1022 0.1011 0.4286
H73_4 H 0.2181 0.0117 0.9948
H75_4 H 0.2202 0.0022 0.9381
N21_4 N 0.0569(8) 0.9362(4) 0.9634(4)
C85_4 C 0.1265(9) 0.9578(4) 0.9666(4)
C86_4 C 0.2154(8) 0.9855(4) 0.9693(5)
H74_4 H 0.2680 0.9612 0.9768
Cl1 Cl 0.30671(15) 0.66150(8) 0.46168(8)
O2 O 0.2123(5) 0.6760(3) 0.4423(3)
O3 O 0.3042(6) 0.6255(3) 0.5002(3)
O4 O 0.3571(5) 0.7074(3) 0.4806(3)
O5 O 0.3536(6) 0.6379(3) 0.4252(3)
Cl1_2 Cl 0.69329(15) 0.16150(8) 0.03832(8)
O2_2 O 0.7877(5) 0.1760(3) 0.0577(3)
O4_2 O 0.6429(5) 0.2074(3) 0.0194(3)
O5_2 O 0.6464(6) 0.1379(3) 0.0748(3)
O3_2 O 0.6958(6) 0.1255(3) 0.9998(3)
Cl1_3 Cl 0.69329(15) 0.33850(8) 0.53832(8)
O2_3 O 0.7877(5) 0.3240(3) 0.5577(3)
O3_3 O 0.6958(6) 0.3745(3) 0.4998(3)
O4_3 O 0.6429(5) 0.2926(3) 0.5194(3)
O5_3 O 0.6464(6) 0.3621(3) 0.5748(3)
O3_4 O 0.3042(6) 0.8745(3) 0.0002(3)
Cl1_4 Cl 0.30671(15) 0.83850(8) 0.96168(8)
O2_4 O 0.2123(5) 0.8240(3) 0.9423(3)
O4_4 O 0.3571(5) 0.7926(3) 0.9806(3)
O5_4 O 0.3536(6) 0.8621(3) 0.9252(3)
Cl2 Cl 0.20979(16) 0.73366(9) 0.26121(9)
O6 O 0.1414(8) 0.7719(4) 0.2698(5)
O7 O 0.2870(8) 0.7571(5) 0.2442(7)
O8 O 0.2554(15) 0.7186(7) 0.3035(6)
O9 O 0.1690(9) 0.6944(5) 0.2346(5)
Cl2_2 Cl 0.79021(16) 0.23366(9) 0.23879(9)
O6_2 O 0.8586(8) 0.2719(4) 0.2302(5)
O7_2 O 0.7130(8) 0.2571(5) 0.2558(7)
O8_2 O 0.7446(15) 0.2186(7) 0.1965(6)
O9_2 O 0.8310(9) 0.1944(5) 0.2654(5)
Cl2_3 Cl 0.79021(16) 0.26634(9) 0.73879(9)
O6_3 O 0.8586(8) 0.2281(4) 0.7302(5)
O7_3 O 0.7130(8) 0.2429(5) 0.7558(7)
O8_3 O 0.7446(15) 0.2814(7) 0.6965(6)
O9_3 O 0.8310(9) 0.3056(5) 0.7654(5)
Cl2_4 Cl 0.20979(16) 0.76634(9) 0.76121(9)
O6_4 O 0.1414(8) 0.7281(4) 0.7698(5)
O7_4 O 0.2870(8) 0.7429(5) 0.7442(7)
O8_4 O 0.2554(15) 0.7814(7) 0.8035(6)
O9_4 O 0.1690(9) 0.8056(5) 0.7346(5)
Cl3 Cl 0.23658(14) 0.28464(7) 0.93011(7)
O10 O 0.2910(6) 0.3274(3) 0.9146(3)
O11 O 0.2996(5) 0.2473(3) 0.9551(3)
O12 O 0.1714(5) 0.3028(3) 0.9611(2)
O13 O 0.1852(4) 0.2614(2) 0.8879(2)
Cl3_2 Cl 0.76342(14) 0.78464(7) 0.56989(7)
O10_2 O 0.7090(6) 0.8274(3) 0.5854(3)
O11_2 O 0.7004(5) 0.7473(3) 0.5449(3)
O12_2 O 0.8286(5) 0.8028(3) 0.5389(2)
O13_2 O 0.8148(4) 0.7614(2) 0.6121(2)
Cl3_3 Cl 0.76342(14) 0.71536(7) 0.06989(7)
O10_3 O 0.7090(6) 0.6726(3) 0.0854(3)
O11_3 O 0.7004(5) 0.7527(3) 0.0449(3)
O12_3 O 0.8286(5) 0.6972(3) 0.0389(2)
O13_3 O 0.8148(4) 0.7386(2) 0.1121(2)
Cl3_4 Cl 0.23658(14) 0.21536(7) 0.43011(7)
O10_4 O 0.2910(6) 0.1726(3) 0.4146(3)
O11_4 O 0.2996(5) 0.2527(3) 0.4551(3)
O12_4 O 0.1714(5) 0.1972(3) 0.4611(2)
O13_4 O 0.1852(4) 0.2386(2) 0.3879(2)
Cl4 Cl 0.02793(18) 0.57800(15) 0.78424(12)
O14 O 0.0944(6) 0.5521(5) 0.8196(3)
O17 O 0.0757(6) 0.5978(5) 0.7458(4)
O15 O 0.9693(11) 0.6140(10) 0.8011(8)
O16 O 0.9615(7) 0.5414(6) 0.7596(4)
O15_2 O 0.0307(11) 0.1140(10) 0.6989(8)
O16_2 O 0.0385(7) 0.0414(6) 0.7404(4)
Cl4_2 Cl 0.97207(18) 0.07800(15) 0.71576(12)
O14_2 O 0.9056(6) 0.0521(5) 0.6804(3)
O17_2 O 0.9243(6) 0.0978(5) 0.7542(4)
O15_3 O 0.0307(11) 0.3860(10) 0.1989(8)
O16_3 O 0.0385(7) 0.4586(6) 0.2404(4)
Cl4_3 Cl 0.97207(18) 0.42200(15) 0.21576(12)
O14_3 O 0.9056(6) 0.4479(5) 0.1804(3)
O17_3 O 0.9243(6) 0.4022(5) 0.2542(4)
Cl4_4 Cl 0.02793(18) 0.92200(15) 0.28424(12)
O14_4 O 0.0944(6) 0.9479(5) 0.3196(3)
O17_4 O 0.0757(6) 0.9022(5) 0.2458(4)
O15_4 O 0.9693(11) 0.8860(10) 0.3011(8)
O16_4 O 0.9615(7) 0.9586(6) 0.2596(4)
Cl5 Cl 0.80223(17) 0.52572(8) 0.37104(10)
O18 O 0.8394(6) 0.4924(3) 0.3385(4)
O19 O 0.7114(6) 0.5419(3) 0.3475(4)
O20 O 0.8621(6) 0.5701(3) 0.3808(3)
O21 O 0.7939(9) 0.4990(4) 0.4143(4)
Cl5_2 Cl 0.19777(17) 0.02572(8) 0.12896(10)
O19_2 O 0.2886(6) 0.0419(3) 0.1525(4)
O20_2 O 0.1379(6) 0.0701(3) 0.1192(3)
O18_2 O 0.1606(6) 0.9924(3) 0.1615(4)
O21_2 O 0.2061(9) 0.9990(4) 0.0857(4)
Cl5_3 Cl 0.19777(17) 0.47428(8) 0.62896(10)
O18_3 O 0.1606(6) 0.5076(3) 0.6615(4)
O19_3 O 0.2886(6) 0.4581(3) 0.6525(4)
O20_3 O 0.1379(6) 0.4299(3) 0.6192(3)
O21_3 O 0.2061(9) 0.5010(4) 0.5857(4)
O18_4 O 0.8394(6) 0.0076(3) 0.8385(4)
O21_4 O 0.7939(9) 0.0010(4) 0.9143(4)
Cl5_4 Cl 0.80223(17) 0.97428(8) 0.87104(10)
O19_4 O 0.7114(6) 0.9581(3) 0.8475(4)
O20_4 O 0.8621(6) 0.9299(3) 0.8808(3)
Cl6 Cl 0.15990(14) 0.46971(8) 0.04446(8)
O22 O 0.2397(5) 0.4827(3) 0.0785(3)
O23 O 0.1011(5) 0.4367(3) 0.0682(4)
O24 O 0.1090(6) 0.5147(3) 0.0284(3)
O25 O 0.1919(6) 0.4434(4) 0.0044(3)
O24_2 O 0.8910(6) 0.0147(3) 0.4716(3)
Cl6_2 Cl 0.84010(14) 0.96971(8) 0.45554(8)
O22_2 O 0.7603(5) 0.9827(3) 0.4215(3)
O23_2 O 0.8989(5) 0.9367(3) 0.4318(4)
O25_2 O 0.8081(6) 0.9434(4) 0.4956(3)
Cl6_3 Cl 0.84010(14) 0.53029(8) 0.95554(8)
O22_3 O 0.7603(5) 0.5173(3) 0.9215(3)
O23_3 O 0.8989(5) 0.5633(3) 0.9318(4)
O24_3 O 0.8910(6) 0.4853(3) 0.9716(3)
O25_3 O 0.8081(6) 0.5566(4) 0.9956(3)
Cl6_4 Cl 0.15990(14) 0.03029(8) 0.54446(8)
O22_4 O 0.2397(5) 0.0173(3) 0.5785(3)
O23_4 O 0.1011(5) 0.0633(3) 0.5682(4)
O25_4 O 0.1919(6) 0.0566(4) 0.5044(3)
O24_4 O 0.1090(6) 0.9853(3) 0.5284(3)
loop_
_geom_bond_atom_site_label_1
_geom_bond_atom_site_label_2
_geom_bond_site_symmetry_1
_geom_bond_site_symmetry_2
Ag1 N4 1_555 1_555
N4 C13 1_555 1_555
H11 C13 1_555 1_555
H34 C40 1_555 1_555
C85 N21 1_555 1_555
C86 C85 1_555 1_555
H73 C86 1_555 1_555
H74 C86 1_555 1_555
H75 C86 1_555 1_555
N24 Ag1 1_555 1_555
Gd1 N1 1_555 1_555
Ag2 N7 1_555 1_555
Ag3 N14 1_555 1_555
N1 C1 1_555 1_555
N2 Gd1 1_555 1_555
N3 C2 1_555 1_555
N5 Gd1 1_555 1_555
N6 C16 1_555 1_555
N7 C27 1_555 1_555
N8 Gd1 1_555 1_555
N9 C30 1_555 1_555
N10 C41 1_555 1_555
N11 Gd1 1_555 1_555
N12 Gd1 1_555 1_555
N13 C44 1_555 1_555
N14 C55 1_555 1_555
N15 Gd1 1_555 1_555
N16 C58 1_555 1_555
N17 C69 1_555 1_555
N18 Gd1 1_555 1_555
N19 C72 1_555 1_555
N24 C83 1_555 1_555
C1 H1 1_555 1_555
H2 C1 1_555 1_555
C2 N2 1_555 1_555
C3 N2 1_555 1_555
C4 C3 1_555 1_555
H3 C4 1_555 1_555
C5 C4 1_555 1_555
H4 C5 1_555 1_555
C6 C5 1_555 1_555
H5 C6 1_555 1_555
C7 C6 1_555 1_555
H6 C7 1_555 1_555
C8 N3 1_555 1_555
C9 N3 1_555 1_555
H7 C9 1_555 1_555
H8 C9 1_555 1_555
C10 C9 1_555 1_555
C11 C10 1_555 1_555
H9 C11 1_555 1_555
C12 C11 1_555 1_555
H12 C14 1_555 1_555
C15 N1 1_555 1_555
H13 C15 1_555 1_555
H14 C15 1_555 1_555
C16 N5 1_555 1_555
C17 N5 1_555 1_555
C18 C17 1_555 1_555
H15 C18 1_555 1_555
C19 C18 1_555 1_555
H16 C19 1_555 1_555
C20 C19 1_555 1_555
H17 C20 1_555 1_555
C21 C20 1_555 1_555
H18 C21 1_555 1_555
C22 N6 1_555 1_555
C23 N6 1_555 1_555
H19 C23 1_555 1_555
H20 C23 1_555 1_555
C24 C23 1_555 1_555
C25 C24 1_555 1_555
H21 C25 1_555 1_555
C26 C25 1_555 1_555
C27 C26 1_555 1_555
C28 N7 1_555 1_555
H24 C28 1_555 1_555
C29 N1 1_555 1_555
H25 C29 1_555 1_555
H26 C29 1_555 1_555
C30 N8 1_555 1_555
C31 N8 1_555 1_555
C32 C31 1_555 1_555
H27 C32 1_555 1_555
C33 C32 1_555 1_555
H28 C33 1_555 1_555
C34 C33 1_555 1_555
H29 C34 1_555 1_555
C35 C34 1_555 1_555
H30 C35 1_555 1_555
C36 N9 1_555 1_555
C37 N9 1_555 1_555
H31 C37 1_555 1_555
H32 C37 1_555 1_555
C38 C37 1_555 1_555
C39 C38 1_555 1_555
H33 C39 1_555 1_555
C42 N10 1_555 1_555
H36 C42 1_555 1_555
C43 N11 1_555 1_555
H37 C43 1_555 1_555
H38 C43 1_555 1_555
C44 N12 1_555 1_555
C45 N12 1_555 1_555
C46 C45 1_555 1_555
H39 C46 1_555 1_555
C47 C46 1_555 1_555
H40 C47 1_555 1_555
C48 C47 1_555 1_555
H41 C48 1_555 1_555
C49 C48 1_555 1_555
H42 C49 1_555 1_555
C50 N13 1_555 1_555
C51 N13 1_555 1_555
H43 C51 1_555 1_555
H44 C51 1_555 1_555
C52 C51 1_555 1_555
C53 C52 1_555 1_555
H45 C53 1_555 1_555
C54 C53 1_555 1_555
H46 C54 1_555 1_555
C55 C54 1_555 1_555
C56 N14 1_555 1_555
H48 C56 1_555 1_555
C57 N11 1_555 1_555
H49 C57 1_555 1_555
H50 C57 1_555 1_555
C58 N15 1_555 1_555
C59 N15 1_555 1_555
C60 C59 1_555 1_555
H51 C60 1_555 1_555
C61 C60 1_555 1_555
H52 C61 1_555 1_555
C62 C61 1_555 1_555
H53 C62 1_555 1_555
C63 C62 1_555 1_555
H54 C63 1_555 1_555
C64 N16 1_555 1_555
C65 N16 1_555 1_555
H55 C65 1_555 1_555
H56 C65 1_555 1_555
C66 C65 1_555 1_555
C67 C66 1_555 1_555
H57 C67 1_555 1_555
C68 C67 1_555 1_555
H58 C68 1_555 1_555
C69 C68 1_555 1_555
C70 N17 1_555 1_555
H60 C70 1_555 1_555
C71 N11 1_555 1_555
H61 C71 1_555 1_555
H62 C71 1_555 1_555
C72 N18 1_555 1_555
C73 N18 1_555 1_555
C74 C73 1_555 1_555
H63 C74 1_555 1_555
C75 C74 1_555 1_555
H64 C75 1_555 1_555
C76 C75 1_555 1_555
C77 C76 1_555 1_555
H66 C77 1_555 1_555
C78 N19 1_555 1_555
C79 N19 1_555 1_555
H67 C79 1_555 1_555
H68 C79 1_555 1_555
C80 C79 1_555 1_555
C81 C80 1_555 1_555
H69 C81 1_555 1_555
C82 C81 1_555 1_555
C83 C82 1_555 1_555
C84 N24 1_555 1_555
H72 C84 1_555 1_555
O1 Ag3 1_555 1_555
Ag5 N10 1_555 1_555
N22 Ag2 1_555 1_555
C1 C2 1_555 1_555
C3 C8 1_555 1_555
C7 C8 1_555 1_555
C10 C14 1_555 1_555
C15 C16 1_555 1_555
C17 C22 1_555 1_555
C21 C22 1_555 1_555
C24 C28 1_555 1_555
C29 C30 1_555 1_555
C31 C36 1_555 1_555
C35 C36 1_555 1_555
C38 C42 1_555 1_555
C43 C44 1_555 1_555
C45 C50 1_555 1_555
C49 C50 1_555 1_555
C52 C56 1_555 1_555
C57 C58 1_555 1_555
C59 C64 1_555 1_555
C63 C64 1_555 1_555
C66 C70 1_555 1_555
C71 C72 1_555 1_555
C73 C78 1_555 1_555
C77 C78 1_555 1_555
C80 C84 1_555 1_555
O1 H76 1_555 1_555
O1 H77 1_555 1_555
H34_2 C40_2 1_555 1_555
N24_2 Ag1_2 1_555 1_555
Ag6 N14_2 1_555 1_555
N3_2 C2_2 1_555 1_555
N13_2 C44_2 1_555 1_555
N14_2 C55_2 1_555 1_555
C4_2 C3_2 1_555 1_555
H3_2 C4_2 1_555 1_555
C5_2 C4_2 1_555 1_555
H4_2 C5_2 1_555 1_555
C6_2 C5_2 1_555 1_555
H5_2 C6_2 1_555 1_555
C7_2 C6_2 1_555 1_555
H6_2 C7_2 1_555 1_555
C8_2 N3_2 1_555 1_555
C9_2 N3_2 1_555 1_555
H7_2 C9_2 1_555 1_555
H8_2 C9_2 1_555 1_555
C10_2 C9_2 1_555 1_555
C11_2 C10_2 1_555 1_555
H9_2 C11_2 1_555 1_555
C12_2 C11_2 1_555 1_555
H12_2 C14_2 1_555 1_555
C46_2 C45_2 1_555 1_555
H39_2 C46_2 1_555 1_555
C47_2 C46_2 1_555 1_555
H40_2 C47_2 1_555 1_555
C48_2 C47_2 1_555 1_555
H41_2 C48_2 1_555 1_555
C49_2 C48_2 1_555 1_555
H42_2 C49_2 1_555 1_555
C50_2 N13_2 1_555 1_555
C51_2 N13_2 1_555 1_555
H43_2 C51_2 1_555 1_555
H44_2 C51_2 1_555 1_555
C52_2 C51_2 1_555 1_555
C53_2 C52_2 1_555 1_555
H45_2 C53_2 1_555 1_555
C54_2 C53_2 1_555 1_555
H46_2 C54_2 1_555 1_555
C55_2 C54_2 1_555 1_555
C56_2 N14_2 1_555 1_555
H48_2 C56_2 1_555 1_555
O1_2 Ag6 1_555 1_555
C3_2 C8_2 1_555 1_555
C7_2 C8_2 1_555 1_555
C10_2 C14_2 1_555 1_555
C45_2 C50_2 1_555 1_555
C49_2 C50_2 1_555 1_555
C52_2 C56_2 1_555 1_555
O1_2 H76_2 1_555 1_555
O1_2 H77_2 1_555 1_555
Gd1_2 N1_2 1_555 1_555
N1_2 C1_2 1_555 1_555
N2_2 Gd1_2 1_555 1_555
N5_2 Gd1_2 1_555 1_555
N6_2 C16_2 1_555 1_555
N7_2 C27_2 1_555 1_555
N8_2 Gd1_2 1_555 1_555
N9_2 C30_2 1_555 1_555
N22 C41_2 1_555 1_555
N11_2 Gd1_2 1_555 1_555
N12_2 Gd1_2 1_555 1_555
N15_2 Gd1_2 1_555 1_555
N16_2 C58_2 1_555 1_555
N23 C69_2 1_555 1_555
N18_2 Gd1_2 1_555 1_555
N19_2 C72_2 1_555 1_555
N24_2 C83_2 1_555 1_555
C1_2 H1_2 1_555 1_555
H2_2 C1_2 1_555 1_555
C15_2 N1_2 1_555 1_555
H13_2 C15_2 1_555 1_555
H14_2 C15_2 1_555 1_555
C16_2 N5_2 1_555 1_555
C17_2 N5_2 1_555 1_555
C18_2 C17_2 1_555 1_555
H15_2 C18_2 1_555 1_555
C19_2 C18_2 1_555 1_555
H16_2 C19_2 1_555 1_555
C20_2 C19_2 1_555 1_555
H17_2 C20_2 1_555 1_555
C21_2 C20_2 1_555 1_555
H18_2 C21_2 1_555 1_555
C22_2 N6_2 1_555 1_555
C23_2 N6_2 1_555 1_555
H19_2 C23_2 1_555 1_555
H20_2 C23_2 1_555 1_555
C24_2 C23_2 1_555 1_555
C25_2 C24_2 1_555 1_555
H21_2 C25_2 1_555 1_555
C26_2 C25_2 1_555 1_555
C27_2 C26_2 1_555 1_555
C28_2 N7_2 1_555 1_555
H24_2 C28_2 1_555 1_555
C29_2 N1_2 1_555 1_555
H25_2 C29_2 1_555 1_555
H26_2 C29_2 1_555 1_555
C30_2 N8_2 1_555 1_555
C31_2 N8_2 1_555 1_555
C32_2 C31_2 1_555 1_555
H27_2 C32_2 1_555 1_555
C33_2 C32_2 1_555 1_555
H28_2 C33_2 1_555 1_555
C34_2 C33_2 1_555 1_555
H29_2 C34_2 1_555 1_555
C35_2 C34_2 1_555 1_555
H30_2 C35_2 1_555 1_555
C36_2 N9_2 1_555 1_555
C37_2 N9_2 1_555 1_555
H31_2 C37_2 1_555 1_555
H32_2 C37_2 1_555 1_555
C38_2 C37_2 1_555 1_555
C39_2 C38_2 1_555 1_555
H33_2 C39_2 1_555 1_555
C42_2 N22 1_555 1_555
H36_2 C42_2 1_555 1_555
C43_2 N11_2 1_555 1_555
H37_2 C43_2 1_555 1_555
H38_2 C43_2 1_555 1_555
C57_2 N11_2 1_555 1_555
H49_2 C57_2 1_555 1_555
H50_2 C57_2 1_555 1_555
C58_2 N15_2 1_555 1_555
C59_2 N15_2 1_555 1_555
C60_2 C59_2 1_555 1_555
H51_2 C60_2 1_555 1_555
C61_2 C60_2 1_555 1_555
H52_2 C61_2 1_555 1_555
C62_2 C61_2 1_555 1_555
H53_2 C62_2 1_555 1_555
C63_2 C62_2 1_555 1_555
H54_2 C63_2 1_555 1_555
C64_2 N16_2 1_555 1_555
C65_2 N16_2 1_555 1_555
H55_2 C65_2 1_555 1_555
H56_2 C65_2 1_555 1_555
C66_2 C65_2 1_555 1_555
C67_2 C66_2 1_555 1_555
H57_2 C67_2 1_555 1_555
C68_2 C67_2 1_555 1_555
H58_2 C68_2 1_555 1_555
C69_2 C68_2 1_555 1_555
C70_2 N23 1_555 1_555
H60_2 C70_2 1_555 1_555
C71_2 N11_2 1_555 1_555
H61_2 C71_2 1_555 1_555
H62_2 C71_2 1_555 1_555
C72_2 N18_2 1_555 1_555
C73_2 N18_2 1_555 1_555
C74_2 C73_2 1_555 1_555
H63_2 C74_2 1_555 1_555
C75_2 C74_2 1_555 1_555
H64_2 C75_2 1_555 1_555
C76_2 C75_2 1_555 1_555
H65 C76_2 1_555 1_555
C77_2 C76_2 1_555 1_555
H66_2 C77_2 1_555 1_555
C78_2 N19_2 1_555 1_555
C79_2 N19_2 1_555 1_555
H67_2 C79_2 1_555 1_555
H68_2 C79_2 1_555 1_555
C80_2 C79_2 1_555 1_555
C81_2 C80_2 1_555 1_555
H69_2 C81_2 1_555 1_555
C82_2 C81_2 1_555 1_555
H70 C82_2 1_555 1_555
C83_2 C82_2 1_555 1_555
H71 C83_2 1_555 1_555
C84_2 N24_2 1_555 1_555
H72_2 C84_2 1_555 1_555
C15_2 C16_2 1_555 1_555
C17_2 C22_2 1_555 1_555
C21_2 C22_2 1_555 1_555
C24_2 C28_2 1_555 1_555
C29_2 C30_2 1_555 1_555
C31_2 C36_2 1_555 1_555
C35_2 C36_2 1_555 1_555
C38_2 C42_2 1_555 1_555
C57_2 C58_2 1_555 1_555
C59_2 C64_2 1_555 1_555
C63_2 C64_2 1_555 1_555
C66_2 C70_2 1_555 1_555
C71_2 C72_2 1_555 1_555
C73_2 C78_2 1_555 1_555
C77_2 C78_2 1_555 1_555
C80_2 C84_2 1_555 1_555
N22_2 Ag2_2 1_555 1_555
Gd1_3 N1_3 1_555 1_555
N1_3 C1_3 1_555 1_555
N2_3 Gd1_3 1_555 1_555
N5_3 Gd1_3 1_555 1_555
N6_3 C16_3 1_555 1_555
N7_3 C27_3 1_555 1_555
N8_3 Gd1_3 1_555 1_555
N9_3 C30_3 1_555 1_555
N10_2 C41_3 1_555 1_555
N11_3 Gd1_3 1_555 1_555
N12_3 Gd1_3 1_555 1_555
N15_3 Gd1_3 1_555 1_555
N16_3 C58_3 1_555 1_555
N23_2 C69_3 1_555 1_555
N18_3 Gd1_3 1_555 1_555
N19_3 C72_3 1_555 1_555
N20 C83_3 1_555 1_555
C1_3 H1_3 1_555 1_555
H2_3 C1_3 1_555 1_555
C15_3 N1_3 1_555 1_555
H13_3 C15_3 1_555 1_555
H14_3 C15_3 1_555 1_555
C16_3 N5_3 1_555 1_555
C17_3 N5_3 1_555 1_555
C18_3 C17_3 1_555 1_555
H15_3 C18_3 1_555 1_555
C19_3 C18_3 1_555 1_555
H16_3 C19_3 1_555 1_555
C20_3 C19_3 1_555 1_555
H17_3 C20_3 1_555 1_555
C21_3 C20_3 1_555 1_555
H18_3 C21_3 1_555 1_555
C22_3 N6_3 1_555 1_555
C23_3 N6_3 1_555 1_555
H19_3 C23_3 1_555 1_555
H20_3 C23_3 1_555 1_555
C24_3 C23_3 1_555 1_555
C25_3 C24_3 1_555 1_555
H21_3 C25_3 1_555 1_555
C26_3 C25_3 1_555 1_555
C27_3 C26_3 1_555 1_555
C28_3 N7_3 1_555 1_555
H24_3 C28_3 1_555 1_555
C29_3 N1_3 1_555 1_555
H25_3 C29_3 1_555 1_555
H26_3 C29_3 1_555 1_555
C30_3 N8_3 1_555 1_555
C31_3 N8_3 1_555 1_555
C32_3 C31_3 1_555 1_555
H27_3 C32_3 1_555 1_555
C33_3 C32_3 1_555 1_555
H28_3 C33_3 1_555 1_555
C34_3 C33_3 1_555 1_555
H29_3 C34_3 1_555 1_555
C35_3 C34_3 1_555 1_555
H30_3 C35_3 1_555 1_555
C36_3 N9_3 1_555 1_555
C37_3 N9_3 1_555 1_555
H31_3 C37_3 1_555 1_555
H32_3 C37_3 1_555 1_555
C38_3 C37_3 1_555 1_555
C39_3 C38_3 1_555 1_555
H33_3 C39_3 1_555 1_555
C42_3 N10_2 1_555 1_555
H36_3 C42_3 1_555 1_555
C43_3 N11_3 1_555 1_555
H37_3 C43_3 1_555 1_555
H38_3 C43_3 1_555 1_555
C57_3 N11_3 1_555 1_555
H49_3 C57_3 1_555 1_555
H50_3 C57_3 1_555 1_555
C58_3 N15_3 1_555 1_555
C59_3 N15_3 1_555 1_555
C60_3 C59_3 1_555 1_555
H51_3 C60_3 1_555 1_555
C61_3 C60_3 1_555 1_555
H52_3 C61_3 1_555 1_555
C62_3 C61_3 1_555 1_555
H53_3 C62_3 1_555 1_555
C63_3 C62_3 1_555 1_555
H54_3 C63_3 1_555 1_555
C64_3 N16_3 1_555 1_555
C65_3 N16_3 1_555 1_555
H55_3 C65_3 1_555 1_555
H56_3 C65_3 1_555 1_555
C66_3 C65_3 1_555 1_555
C67_3 C66_3 1_555 1_555
H57_3 C67_3 1_555 1_555
C68_3 C67_3 1_555 1_555
H58_3 C68_3 1_555 1_555
C69_3 C68_3 1_555 1_555
C70_3 N23_2 1_555 1_555
H60_3 C70_3 1_555 1_555
C71_3 N11_3 1_555 1_555
H61_3 C71_3 1_555 1_555
H62_3 C71_3 1_555 1_555
C72_3 N18_3 1_555 1_555
C73_3 N18_3 1_555 1_555
C74_3 C73_3 1_555 1_555
H63_3 C74_3 1_555 1_555
C75_3 C74_3 1_555 1_555
H64_3 C75_3 1_555 1_555
C76_3 C75_3 1_555 1_555
H65_3 C76_3 1_555 1_555
C77_3 C76_3 1_555 1_555
H66_3 C77_3 1_555 1_555
C78_3 N19_3 1_555 1_555
C79_3 N19_3 1_555 1_555
H67_3 C79_3 1_555 1_555
H68_3 C79_3 1_555 1_555
C80_3 C79_3 1_555 1_555
C81_3 C80_3 1_555 1_555
H69_3 C81_3 1_555 1_555
C82_3 C81_3 1_555 1_555
H70_3 C82_3 1_555 1_555
C83_3 C82_3 1_555 1_555
H71_3 C83_3 1_555 1_555
C84_3 N20 1_555 1_555
H72_3 C84_3 1_555 1_555
Ag4 N20 1_555 1_555
Ag5_2 N10_2 1_555 1_555
C15_3 C16_3 1_555 1_555
C17_3 C22_3 1_555 1_555
C21_3 C22_3 1_555 1_555
C24_3 C28_3 1_555 1_555
C29_3 C30_3 1_555 1_555
C31_3 C36_3 1_555 1_555
C35_3 C36_3 1_555 1_555
C38_3 C42_3 1_555 1_555
C57_3 C58_3 1_555 1_555
C59_3 C64_3 1_555 1_555
C63_3 C64_3 1_555 1_555
C66_3 C70_3 1_555 1_555
C71_3 C72_3 1_555 1_555
C73_3 C78_3 1_555 1_555
C77_3 C78_3 1_555 1_555
C80_3 C84_3 1_555 1_555
Ag6_2 N14_3 1_555 1_555
N3_3 C2_3 1_555 1_555
N13_3 C44_3 1_555 1_555
N14_3 C55_3 1_555 1_555
C4_3 C3_3 1_555 1_555
H3_3 C4_3 1_555 1_555
C5_3 C4_3 1_555 1_555
H4_3 C5_3 1_555 1_555
C6_3 C5_3 1_555 1_555
H5_3 C6_3 1_555 1_555
C7_3 C6_3 1_555 1_555
H6_3 C7_3 1_555 1_555
C8_3 N3_3 1_555 1_555
C9_3 N3_3 1_555 1_555
H7_3 C9_3 1_555 1_555
H8_3 C9_3 1_555 1_555
C10_3 C9_3 1_555 1_555
C11_3 C10_3 1_555 1_555
H9_3 C11_3 1_555 1_555
C12_3 C11_3 1_555 1_555
H12_3 C14_3 1_555 1_555
C46_3 C45_3 1_555 1_555
H39_3 C46_3 1_555 1_555
C47_3 C46_3 1_555 1_555
H40_3 C47_3 1_555 1_555
C48_3 C47_3 1_555 1_555
H41_3 C48_3 1_555 1_555
C49_3 C48_3 1_555 1_555
H42_3 C49_3 1_555 1_555
C50_3 N13_3 1_555 1_555
C51_3 N13_3 1_555 1_555
H43_3 C51_3 1_555 1_555
H44_3 C51_3 1_555 1_555
C52_3 C51_3 1_555 1_555
C53_3 C52_3 1_555 1_555
H45_3 C53_3 1_555 1_555
C54_3 C53_3 1_555 1_555
H46_3 C54_3 1_555 1_555
C55_3 C54_3 1_555 1_555
C56_3 N14_3 1_555 1_555
H48_3 C56_3 1_555 1_555
O1_3 Ag6_2 1_555 1_555
C3_3 C8_3 1_555 1_555
C7_3 C8_3 1_555 1_555
C10_3 C14_3 1_555 1_555
C45_3 C50_3 1_555 1_555
C49_3 C50_3 1_555 1_555
C52_3 C56_3 1_555 1_555
O1_3 H76_3 1_555 1_555
O1_3 H77_3 1_555 1_555
H34_3 C40_3 1_555 1_555
Gd1_4 N1_4 1_555 1_555
Ag5_2 N7_4 1_555 1_555
Ag3_2 N14_4 1_555 1_555
N1_4 C1_4 1_555 1_555
N2_4 Gd1_4 1_555 1_555
N3_4 C2_4 1_555 1_555
N5_4 Gd1_4 1_555 1_555
N6_4 C16_4 1_555 1_555
N7_4 C27_4 1_555 1_555
N8_4 Gd1_4 1_555 1_555
N9_4 C30_4 1_555 1_555
N22_2 C41_4 1_555 1_555
N11_4 Gd1_4 1_555 1_555
N12_4 Gd1_4 1_555 1_555
N13_4 C44_4 1_555 1_555
N14_4 C55_4 1_555 1_555
N15_4 Gd1_4 1_555 1_555
N16_4 C58_4 1_555 1_555
N17_2 C69_4 1_555 1_555
N18_4 Gd1_4 1_555 1_555
N19_4 C72_4 1_555 1_555
N20_2 C83_4 1_555 1_555
C1_4 H1_4 1_555 1_555
H2_4 C1_4 1_555 1_555
C2_4 N2_4 1_555 1_555
C3_4 N2_4 1_555 1_555
C4_4 C3_4 1_555 1_555
H3_4 C4_4 1_555 1_555
C5_4 C4_4 1_555 1_555
H4_4 C5_4 1_555 1_555
C6_4 C5_4 1_555 1_555
H5_4 C6_4 1_555 1_555
C7_4 C6_4 1_555 1_555
H6_4 C7_4 1_555 1_555
C8_4 N3_4 1_555 1_555
C9_4 N3_4 1_555 1_555
H7_4 C9_4 1_555 1_555
H8_4 C9_4 1_555 1_555
C10_4 C9_4 1_555 1_555
C11_4 C10_4 1_555 1_555
H9_4 C11_4 1_555 1_555
C12_4 C11_4 1_555 1_555
H12_4 C14_4 1_555 1_555
C15_4 N1_4 1_555 1_555
H13_4 C15_4 1_555 1_555
H14_4 C15_4 1_555 1_555
C16_4 N5_4 1_555 1_555
C17_4 N5_4 1_555 1_555
C18_4 C17_4 1_555 1_555
H15_4 C18_4 1_555 1_555
C19_4 C18_4 1_555 1_555
H16_4 C19_4 1_555 1_555
C20_4 C19_4 1_555 1_555
H17_4 C20_4 1_555 1_555
C21_4 C20_4 1_555 1_555
H18_4 C21_4 1_555 1_555
C22_4 N6_4 1_555 1_555
C23_4 N6_4 1_555 1_555
H19_4 C23_4 1_555 1_555
H20_4 C23_4 1_555 1_555
C24_4 C23_4 1_555 1_555
C25_4 C24_4 1_555 1_555
H21_4 C25_4 1_555 1_555
C26_4 C25_4 1_555 1_555
C27_4 C26_4 1_555 1_555
C28_4 N7_4 1_555 1_555
H24_4 C28_4 1_555 1_555
C29_4 N1_4 1_555 1_555
H25_4 C29_4 1_555 1_555
H26_4 C29_4 1_555 1_555
C30_4 N8_4 1_555 1_555
C31_4 N8_4 1_555 1_555
C32_4 C31_4 1_555 1_555
H27_4 C32_4 1_555 1_555
C33_4 C32_4 1_555 1_555
H28_4 C33_4 1_555 1_555
C34_4 C33_4 1_555 1_555
H29_4 C34_4 1_555 1_555
C35_4 C34_4 1_555 1_555
H30_4 C35_4 1_555 1_555
C36_4 N9_4 1_555 1_555
C37_4 N9_4 1_555 1_555
H31_4 C37_4 1_555 1_555
H32_4 C37_4 1_555 1_555
C38_4 C37_4 1_555 1_555
C39_4 C38_4 1_555 1_555
H33_4 C39_4 1_555 1_555
C42_4 N22_2 1_555 1_555
H36_4 C42_4 1_555 1_555
C43_4 N11_4 1_555 1_555
H37_4 C43_4 1_555 1_555
H38_4 C43_4 1_555 1_555
C44_4 N12_4 1_555 1_555
C45_4 N12_4 1_555 1_555
C46_4 C45_4 1_555 1_555
H39_4 C46_4 1_555 1_555
C47_4 C46_4 1_555 1_555
H40_4 C47_4 1_555 1_555
C48_4 C47_4 1_555 1_555
H41_4 C48_4 1_555 1_555
C49_4 C48_4 1_555 1_555
H42_4 C49_4 1_555 1_555
C50_4 N13_4 1_555 1_555
C51_4 N13_4 1_555 1_555
H43_4 C51_4 1_555 1_555
H44_4 C51_4 1_555 1_555
C52_4 C51_4 1_555 1_555
C53_4 C52_4 1_555 1_555
H45_4 C53_4 1_555 1_555
C54_4 C53_4 1_555 1_555
H46_4 C54_4 1_555 1_555
C55_4 C54_4 1_555 1_555
C56_4 N14_4 1_555 1_555
H48_4 C56_4 1_555 1_555
C57_4 N11_4 1_555 1_555
H49_4 C57_4 1_555 1_555
H50_4 C57_4 1_555 1_555
C58_4 N15_4 1_555 1_555
C59_4 N15_4 1_555 1_555
C60_4 C59_4 1_555 1_555
H51_4 C60_4 1_555 1_555
C61_4 C60_4 1_555 1_555
H52_4 C61_4 1_555 1_555
C62_4 C61_4 1_555 1_555
H53_4 C62_4 1_555 1_555
C63_4 C62_4 1_555 1_555
H54_4 C63_4 1_555 1_555
C64_4 N16_4 1_555 1_555
C65_4 N16_4 1_555 1_555
H55_4 C65_4 1_555 1_555
H56_4 C65_4 1_555 1_555
C66_4 C65_4 1_555 1_555
C67_4 C66_4 1_555 1_555
H57_4 C67_4 1_555 1_555
C68_4 C67_4 1_555 1_555
H58_4 C68_4 1_555 1_555
C69_4 C68_4 1_555 1_555
C70_4 N17_2 1_555 1_555
H60_4 C70_4 1_555 1_555
C71_4 N11_4 1_555 1_555
H61_4 C71_4 1_555 1_555
H62_4 C71_4 1_555 1_555
C72_4 N18_4 1_555 1_555
C73_4 N18_4 1_555 1_555
C74_4 C73_4 1_555 1_555
H63_4 C74_4 1_555 1_555
C75_4 C74_4 1_555 1_555
H64_4 C75_4 1_555 1_555
C76_4 C75_4 1_555 1_555
C77_4 C76_4 1_555 1_555
H66_4 C77_4 1_555 1_555
C78_4 N19_4 1_555 1_555
C79_4 N19_4 1_555 1_555
H67_4 C79_4 1_555 1_555
H68_4 C79_4 1_555 1_555
C80_4 C79_4 1_555 1_555
C81_4 C80_4 1_555 1_555
H69_4 C81_4 1_555 1_555
C82_4 C81_4 1_555 1_555
C83_4 C82_4 1_555 1_555
C84_4 N20_2 1_555 1_555
H72_4 C84_4 1_555 1_555
O1_4 Ag3_2 1_555 1_555
Ag4_2 N20_2 1_555 1_555
C1_4 C2_4 1_555 1_555
C3_4 C8_4 1_555 1_555
C7_4 C8_4 1_555 1_555
C10_4 C14_4 1_555 1_555
C15_4 C16_4 1_555 1_555
C17_4 C22_4 1_555 1_555
C21_4 C22_4 1_555 1_555
C24_4 C28_4 1_555 1_555
C29_4 C30_4 1_555 1_555
C31_4 C36_4 1_555 1_555
C35_4 C36_4 1_555 1_555
C38_4 C42_4 1_555 1_555
C43_4 C44_4 1_555 1_555
C45_4 C50_4 1_555 1_555
C49_4 C50_4 1_555 1_555
C52_4 C56_4 1_555 1_555
C57_4 C58_4 1_555 1_555
C59_4 C64_4 1_555 1_555
C63_4 C64_4 1_555 1_555
C66_4 C70_4 1_555 1_555
C71_4 C72_4 1_555 1_555
C73_4 C78_4 1_555 1_555
C77_4 C78_4 1_555 1_555
C80_4 C84_4 1_555 1_555
O1_4 H76_4 1_555 1_555
O1_4 H77_4 1_555 1_555
Ag4_2 N4_2 1_555 1_555
N4_2 C13_2 1_555 1_555
H11_2 C13_2 1_555 1_555
H34_4 C40_4 1_555 1_555
C85_2 N21_2 1_555 1_555
C86_2 C85_2 1_555 1_555
H73_2 C86_2 1_555 1_555
H74_2 C86_2 1_555 1_555
H75_2 C86_2 1_555 1_555
C85_3 N21_3 1_555 1_555
C86_3 C85_3 1_555 1_555
H74_3 C86_3 1_555 1_555
N4_3 C13_3 1_555 1_555
H11_3 C13_3 1_555 1_555
N4_4 C13_4 1_555 1_555
H11_4 C13_4 1_555 1_555
C85_4 N21_4 1_555 1_555
C86_4 C85_4 1_555 1_555
H74_4 C86_4 1_555 1_555
Cl1 O2 1_555 1_555
O3 Cl1 1_555 1_555
O4 Cl1 1_555 1_555
O5 Cl1 1_555 1_555
Cl1_2 O2_2 1_555 1_555
O4_2 Cl1_2 1_555 1_555
O5_2 Cl1_2 1_555 1_555
Cl1_3 O2_3 1_555 1_555
O3_3 Cl1_3 1_555 1_555
O4_3 Cl1_3 1_555 1_555
O5_3 Cl1_3 1_555 1_555
Cl1_4 O2_4 1_555 1_555
O4_4 Cl1_4 1_555 1_555
O5_4 Cl1_4 1_555 1_555
Cl2 O6 1_555 1_555
O7 Cl2 1_555 1_555
O8 Cl2 1_555 1_555
O9 Cl2 1_555 1_555
Cl2_2 O6_2 1_555 1_555
O7_2 Cl2_2 1_555 1_555
O8_2 Cl2_2 1_555 1_555
O9_2 Cl2_2 1_555 1_555
Cl2_3 O6_3 1_555 1_555
O7_3 Cl2_3 1_555 1_555
O8_3 Cl2_3 1_555 1_555
O9_3 Cl2_3 1_555 1_555
Cl2_4 O6_4 1_555 1_555
O7_4 Cl2_4 1_555 1_555
O8_4 Cl2_4 1_555 1_555
O9_4 Cl2_4 1_555 1_555
Cl3 O10 1_555 1_555
O11 Cl3 1_555 1_555
O12 Cl3 1_555 1_555
O13 Cl3 1_555 1_555
Cl3_2 O10_2 1_555 1_555
O11_2 Cl3_2 1_555 1_555
O12_2 Cl3_2 1_555 1_555
O13_2 Cl3_2 1_555 1_555
Cl3_3 O10_3 1_555 1_555
O11_3 Cl3_3 1_555 1_555
O12_3 Cl3_3 1_555 1_555
O13_3 Cl3_3 1_555 1_555
Cl3_4 O10_4 1_555 1_555
O11_4 Cl3_4 1_555 1_555
O12_4 Cl3_4 1_555 1_555
O13_4 Cl3_4 1_555 1_555
Cl4 O14 1_555 1_555
O17 Cl4 1_555 1_555
Cl4_2 O14_2 1_555 1_555
O17_2 Cl4_2 1_555 1_555
Cl4_3 O14_3 1_555 1_555
O17_3 Cl4_3 1_555 1_555
Cl4_4 O14_4 1_555 1_555
O17_4 Cl4_4 1_555 1_555
Cl5 O18 1_555 1_555
O19 Cl5 1_555 1_555
O20 Cl5 1_555 1_555
O21 Cl5 1_555 1_555
O19_2 Cl5_2 1_555 1_555
O20_2 Cl5_2 1_555 1_555
Cl5_3 O18_3 1_555 1_555
O19_3 Cl5_3 1_555 1_555
O20_3 Cl5_3 1_555 1_555
O21_3 Cl5_3 1_555 1_555
O19_4 Cl5_4 1_555 1_555
O20_4 Cl5_4 1_555 1_555
Cl6 O22 1_555 1_555
O23 Cl6 1_555 1_555
O24 Cl6 1_555 1_555
O25 Cl6 1_555 1_555
Cl6_2 O22_2 1_555 1_555
O23_2 Cl6_2 1_555 1_555
O25_2 Cl6_2 1_555 1_555
Cl6_3 O22_3 1_555 1_555
O23_3 Cl6_3 1_555 1_555
O24_3 Cl6_3 1_555 1_555
O25_3 Cl6_3 1_555 1_555
Cl6_4 O22_4 1_555 1_555
O23_4 Cl6_4 1_555 1_555
O25_4 Cl6_4 1_555 1_555

#END
