
###############################################################################
#
# This file contains modified crystal structure data generated from the
# MOF subset of the Cambridge Structural Database (CSD) v543 
# hosted by the Cambridge Crystallographic Data Centre (CCDC).
#
# This work is licensed under the Creative Commons
# Attribution-NonCommercial-ShareAlike 4.0 International License.
# To view a copy of this license, visit
# http://creativecommons.org/licenses/by-nc-sa/4.0/
# or send a letter to
# Creative Commons, PO Box 1866, Mountain View, CA 94042, USA.
#
# CIF created using the CSD Python API on 29 September 2022
# The structure has been converted into the P1 space group
# The structure has a 3D framework
# The original CSD entry GEGBEB is in the monoclinic crystal system
# The framework has been calculated to contain at least 10.0% void space
# The void calculation uses a probe of radius 1.32A, grid spacing 0.4
# The framework is charged, counterions have been retained in the structure
# H atom positions have been added when not included in the experimental data
#
###############################################################################

data_GEGBEB
_chemical_formula_moiety         '(C344 H308 Ag8 Cl24 Eu4 N84 O100 4-)n'
_symmetry_cell_setting           triclinic
_symmetry_space_group_name_H-M   'P 1'
_symmetry_Int_Tables_number      1
_space_group_name_Hall           'P 1'
loop_
_symmetry_equiv_pos_site_id
_symmetry_equiv_pos_as_xyz
1 x,y,z
_cell_length_a                   14.2437(3)
_cell_length_b                   25.8296(7)
_cell_length_c                   27.8391(8)
_cell_angle_alpha                90
_cell_angle_beta                 97.592(2)
_cell_angle_gamma                90
_cell_volume                     10152.5
loop_
_atom_site_label
_atom_site_type_symbol
_atom_site_fract_x
_atom_site_fract_y
_atom_site_fract_z
Ag1 Ag 0.07392(4) 0.52020(2) 0.92649(2)
N4 N 0.0151(4) 0.4504(2) 0.8934(2)
N21 N 0.0576(5) 0.5636(3) 0.4646(3)
H10 H 0.0131 0.3279 0.9056
C13 C 0.0425(4) 0.4031(3) 0.9077(2)
H11 H 0.1002 0.3991 0.9287
H22 H 0.0061 0.5434 0.6418
H23 H 0.0172 0.5576 0.5616
C40 C 0.0007(4) 0.7508(3) 0.8769(3)
H34 H 0.0488 0.7455 0.8568
H35 H 0.0378 0.8237 0.8948
C85 C 0.1260(5) 0.5414(3) 0.4678(3)
C86 C 0.2156(6) 0.5133(3) 0.4702(3)
H73 H 0.2186 0.4869 0.4957
H74 H 0.2685 0.5375 0.4776
H75 H 0.2198 0.4965 0.4390
N24 N 0.1185(4) 0.5982(2) 0.9449(2)
Eu1 Eu 0.522242(17) 0.584857(10) 0.780939(9)
Ag2 Ag 0.91786(4) 0.61498(2) 0.46745(2)
Ag3 Ag 0.01572(6) 0.26053(3) 0.81619(3)
N1 N 0.7094(3) 0.58689(16) 0.78529(14)
N2 N 0.6134(3) 0.51418(17) 0.82851(15)
N3 N 0.7171(3) 0.45031(17) 0.82428(16)
N5 N 0.5894(3) 0.57692(17) 0.70225(15)
N6 N 0.6808(3) 0.61705(17) 0.65413(15)
N7 N 0.9056(3) 0.6022(2) 0.54798(18)
N8 N 0.6075(3) 0.66295(17) 0.81972(15)
N9 N 0.7108(3) 0.68269(17) 0.88448(15)
N10 N 0.9272(4) 0.8071(2) 0.92849(18)
N11 N 0.3340(3) 0.58438(17) 0.77409(14)
N12 N 0.4375(3) 0.50088(17) 0.75496(15)
N13 N 0.3495(3) 0.44189(18) 0.78670(16)
N14 N 0.0871(5) 0.3230(3) 0.7802(2)
N15 N 0.4340(3) 0.64984(17) 0.72481(15)
N16 N 0.3342(3) 0.64916(18) 0.65520(16)
N17 N 0.0498(4) 0.7163(3) 0.6313(2)
N18 N 0.4489(3) 0.60177(17) 0.85678(15)
N19 N 0.3546(3) 0.65773(17) 0.88900(15)
C1 C 0.7445(3) 0.5337(2) 0.78140(18)
H1 H 0.8133 0.5323 0.7929
H2 H 0.7343 0.5222 0.7472
C2 C 0.6924(3) 0.4991(2) 0.81154(18)
C3 C 0.5857(4) 0.4713(2) 0.85398(18)
C4 C 0.5081(4) 0.4653(2) 0.87920(19)
H3 H 0.4652 0.4929 0.8822
C5 C 0.4964(4) 0.4170(2) 0.8997(2)
H4 H 0.4437 0.4112 0.9167
C6 C 0.5616(5) 0.3767(2) 0.8958(2)
H5 H 0.5514 0.3441 0.9102
C7 C 0.6385(4) 0.3829(2) 0.8721(2)
H6 H 0.6822 0.3555 0.8698
C8 C 0.6504(4) 0.4316(2) 0.85124(19)
C9 C 0.7934(4) 0.4202(2) 0.8072(2)
H7 H 0.8122 0.4374 0.7781
H8 H 0.7685 0.3855 0.7971
C10 C 0.8815(4) 0.4133(2) 0.8443(2)
C11 C 0.9092(5) 0.3657(3) 0.8609(3)
H9 H 0.8729 0.3359 0.8505
C12 C 0.9925(6) 0.3610(3) 0.8936(3)
C14 C 0.9341(5) 0.4536(3) 0.8619(3)
H12 H 0.9131 0.4872 0.8515
C15 C 0.7352(3) 0.6181(2) 0.74422(18)
H13 H 0.8012 0.6106 0.7389
H14 H 0.7301 0.6555 0.7513
C16 C 0.6682(3) 0.6039(2) 0.70020(18)
C17 C 0.5477(3) 0.5719(2) 0.65423(19)
C18 C 0.4644(4) 0.5475(2) 0.6347(2)
H15 H 0.4262 0.5294 0.6546
C19 C 0.4391(4) 0.5506(2) 0.5847(2)
H16 H 0.3826 0.5343 0.5702
C20 C 0.4961(4) 0.5775(3) 0.5554(2)
H17 H 0.4760 0.5796 0.5216
C21 C 0.5794(4) 0.6007(3) 0.5740(2)
H18 H 0.6183 0.6182 0.5541
C22 C 0.6038(4) 0.5970(2) 0.62404(19)
C23 C 0.7538(4) 0.6514(2) 0.6393(2)
H19 H 0.7835 0.6710 0.6679
H20 H 0.7237 0.6766 0.6153
C24 C 0.8297(4) 0.6219(2) 0.6175(2)
C25 C 0.8949(4) 0.5908(3) 0.6454(2)
H21 H 0.8927 0.5869 0.6791
C26 C 0.9625(5) 0.5660(3) 0.6235(3)
C27 C 0.9673(4) 0.5736(3) 0.5757(2)
C28 C 0.8386(4) 0.6264(2) 0.5693(2)
H24 H 0.7947 0.6479 0.5498
C29 C 0.7520(3) 0.6098(2) 0.83190(18)
H25 H 0.7581 0.5830 0.8576
H26 H 0.8159 0.6233 0.8288
C30 C 0.6904(3) 0.6522(2) 0.84485(18)
C31 C 0.5713(4) 0.7042(2) 0.8443(2)
C32 C 0.4876(4) 0.7321(2) 0.8332(2)
H27 H 0.4458 0.7259 0.8042
C33 C 0.4679(4) 0.7694(2) 0.8662(2)
H28 H 0.4116 0.7894 0.8598
C34 C 0.5292(4) 0.7780(2) 0.9087(2)
H29 H 0.5122 0.8029 0.9312
C35 C 0.6139(4) 0.7517(2) 0.9193(2)
H30 H 0.6558 0.7581 0.9482
C36 C 0.6341(4) 0.7159(2) 0.88580(19)
C37 C 0.7953(4) 0.6803(2) 0.9210(2)
H31 H 0.8244 0.6456 0.9202
H32 H 0.7760 0.6852 0.9536
C38 C 0.8678(4) 0.7209(2) 0.9128(2)
C39 C 0.9374(4) 0.7115(3) 0.8832(3)
H33 H 0.9413 0.6789 0.8677
C41 C 0.9937(5) 0.7972(3) 0.8996(2)
C42 C 0.8673(4) 0.7687(2) 0.9352(2)
H36 H 0.8217 0.7745 0.9567
C43 C 0.3018(3) 0.5344(2) 0.79158(19)
H37 H 0.2354 0.5280 0.7774
H38 H 0.3044 0.5354 0.8273
C44 C 0.3635(3) 0.4921(2) 0.77756(18)
C45 C 0.4750(4) 0.4520(2) 0.74755(19)
C46 C 0.5538(4) 0.4372(2) 0.7252(2)
H39 H 0.5900 0.4619 0.7103
C47 C 0.5760(5) 0.3855(2) 0.7259(2)
H40 H 0.6281 0.3742 0.7105
C48 C 0.5246(5) 0.3490(2) 0.7483(2)
H41 H 0.5444 0.3139 0.7491
C49 C 0.4457(5) 0.3622(2) 0.7696(2)
H42 H 0.4099 0.3371 0.7842
C50 C 0.4216(4) 0.4147(2) 0.7683(2)
C51 C 0.2813(4) 0.4200(2) 0.8166(2)
H43 H 0.2568 0.4481 0.8357
H44 H 0.3144 0.3948 0.8397
C52 C 0.1978(4) 0.3930(2) 0.7863(2)
C53 C 0.1543(5) 0.4123(3) 0.7440(3)
H45 H 0.1759 0.4434 0.7310
C54 C 0.0760(6) 0.3853(4) 0.7196(4)
H46 H 0.0460 0.3968 0.6890
C55 C 0.0451(5) 0.3428(3) 0.7406(3)
C56 C 0.1657(6) 0.3474(3) 0.8023(3)
H48 H 0.1998 0.3319 0.8303
C57 C 0.2951(3) 0.5918(2) 0.72241(18)
H49 H 0.2960 0.5586 0.7047
H50 H 0.2288 0.6041 0.7198
C58 C 0.3542(4) 0.6306(2) 0.70110(19)
C59 C 0.4679(4) 0.6835(2) 0.6913(2)
C60 C 0.5507(4) 0.7136(2) 0.6957(2)
H51 H 0.5914 0.7160 0.7255
C61 C 0.5702(5) 0.7395(2) 0.6550(2)
H52 H 0.6258 0.7601 0.6566
C62 C 0.5090(5) 0.7360(2) 0.6110(2)
H53 H 0.5260 0.7535 0.5833
C63 C 0.4251(4) 0.7081(2) 0.6063(2)
H54 H 0.3832 0.7068 0.5768
C64 C 0.4067(4) 0.6824(2) 0.6475(2)
C65 C 0.2602(4) 0.6298(3) 0.6185(2)
H55 H 0.2376 0.5961 0.6296
H56 H 0.2883 0.6233 0.5884
C66 C 0.1758(4) 0.6650(2) 0.6065(2)
C67 C 0.1401(5) 0.6731(3) 0.5588(2)
H57 H 0.1705 0.6582 0.5337
C68 C 0.0603(5) 0.7029(3) 0.5474(3)
H58 H 0.0361 0.7098 0.5146
C69 C 0.0171(5) 0.7223(3) 0.5840(3)
C70 C 0.1294(5) 0.6869(3) 0.6410(3)
H60 H 0.1542 0.6814 0.6740
C71 C 0.3047(3) 0.6271(2) 0.80395(19)
H61 H 0.2388 0.6215 0.8106
H62 H 0.3072 0.6604 0.7865
C72 C 0.3697(3) 0.6287(2) 0.85012(18)
C73 C 0.4900(3) 0.6143(2) 0.90445(18)
C74 C 0.5746(3) 0.5972(2) 0.93079(19)
H63 H 0.6137 0.5725 0.9179
C75 C 0.5987(4) 0.6181(2) 0.97670(19)
H64 H 0.6555 0.6073 0.9958
C76 C 0.5404(4) 0.6549(2) 0.99539(19)
C77 C 0.4554(4) 0.6707(2) 0.97002(19)
H66 H 0.4154 0.6949 0.9831
C78 C 0.4320(4) 0.6494(2) 0.92451(18)
C79 C 0.2764(4) 0.6932(2) 0.8941(2)
H67 H 0.2406 0.7003 0.8618
H68 H 0.3019 0.7264 0.9079
C80 C 0.2106(4) 0.6701(2) 0.9267(2)
C81 C 0.1867(5) 0.6961(3) 0.9663(3)
H69 H 0.2111 0.7298 0.9740
C82 C 0.1269(6) 0.6728(3) 0.9949(3)
C83 C 0.0950(5) 0.6239(3) 0.9836(3)
C84 C 0.1742(4) 0.6222(3) 0.9174(2)
H72 H 0.1894 0.6047 0.8894
O1 O 0.0762(5) 0.2016(3) 0.7717(4)
Ag5 Ag 0.91786(4) 0.88502(2) 0.96745(2)
N22 N 0.9272(4) 0.6929(2) 0.42849(18)
H76 H 0.146416 0.203293 0.777752
H77 H 0.0547987 0.166671 0.780464
H59 H 0.0400 0.2412 0.9242
H47 H 0.0109 0.8266 0.7745
H47_2 H 0.0109 0.6734 0.2745
H59_2 H 0.0400 0.2588 0.4242
Ag6 Ag 0.01572(6) 0.23947(3) 0.31619(3)
N23 N 0.0498(4) 0.7837(3) 0.1313(2)
Ag1_2 Ag 0.07392(4) 0.97980(2) 0.42649(2)
H22_2 H 0.0061 0.9566 0.1418
H23_2 H 0.0172 0.9424 0.0616
C40_2 C 0.0007(4) 0.7492(3) 0.3769(3)
H34_2 H 0.0488 0.7545 0.3568
H35_2 H 0.0378 0.6763 0.3948
N24_2 N 0.1185(4) 0.9018(2) 0.4449(2)
N3_2 N 0.7171(3) 0.04969(17) 0.32428(16)
N13_2 N 0.3495(3) 0.05811(18) 0.28670(16)
N14_2 N 0.0871(5) 0.1770(3) 0.2802(2)
C2_2 C 0.6924(3) 0.0009(2) 0.31154(18)
C3_2 C 0.5857(4) 0.0287(2) 0.35398(18)
C4_2 C 0.5081(4) 0.0347(2) 0.37920(19)
H3_2 H 0.4652 0.0071 0.3822
C5_2 C 0.4964(4) 0.0830(2) 0.3997(2)
H4_2 H 0.4437 0.0888 0.4167
C6_2 C 0.5616(5) 0.1233(2) 0.3958(2)
H5_2 H 0.5514 0.1559 0.4102
C7_2 C 0.6385(4) 0.1171(2) 0.3721(2)
H6_2 H 0.6822 0.1445 0.3698
C8_2 C 0.6504(4) 0.0684(2) 0.35124(19)
C9_2 C 0.7934(4) 0.0798(2) 0.3072(2)
H7_2 H 0.8122 0.0626 0.2781
H8_2 H 0.7685 0.1145 0.2971
C10_2 C 0.8815(4) 0.0867(2) 0.3443(2)
C11_2 C 0.9092(5) 0.1343(3) 0.3609(3)
H9_2 H 0.8729 0.1641 0.3505
C12_2 C 0.9925(6) 0.1390(3) 0.3936(3)
C14_2 C 0.9341(5) 0.0464(3) 0.3619(3)
H12_2 H 0.9131 0.0128 0.3515
C44_2 C 0.3635(3) 0.0079(2) 0.27756(18)
C45_2 C 0.4750(4) 0.0480(2) 0.24755(19)
C46_2 C 0.5538(4) 0.0628(2) 0.2252(2)
H39_2 H 0.5900 0.0381 0.2103
C47_2 C 0.5760(5) 0.1145(2) 0.2259(2)
H40_2 H 0.6281 0.1258 0.2105
C48_2 C 0.5246(5) 0.1510(2) 0.2483(2)
H41_2 H 0.5444 0.1861 0.2491
C49_2 C 0.4457(5) 0.1378(2) 0.2696(2)
H42_2 H 0.4099 0.1629 0.2842
C50_2 C 0.4216(4) 0.0853(2) 0.2683(2)
C51_2 C 0.2813(4) 0.0800(2) 0.3166(2)
H43_2 H 0.2568 0.0519 0.3357
H44_2 H 0.3144 0.1052 0.3397
C52_2 C 0.1978(4) 0.1070(2) 0.2863(2)
C53_2 C 0.1543(5) 0.0877(3) 0.2440(3)
H45_2 H 0.1759 0.0566 0.2310
C54_2 C 0.0760(6) 0.1147(4) 0.2196(4)
H46_2 H 0.0460 0.1032 0.1890
C55_2 C 0.0451(5) 0.1572(3) 0.2406(3)
C56_2 C 0.1657(6) 0.1526(3) 0.3023(3)
H48_2 H 0.1998 0.1681 0.3303
O1_2 O 0.0762(5) 0.2984(3) 0.2717(4)
H76_2 H 0.146416 0.296707 0.277752
H77_2 H 0.0547987 0.333329 0.280464
Eu1_2 Eu 0.522242(17) 0.915143(10) 0.280939(9)
N1_2 N 0.7094(3) 0.91311(16) 0.28529(14)
N2_2 N 0.6134(3) 0.98582(17) 0.32851(15)
N5_2 N 0.5894(3) 0.92308(17) 0.20225(15)
N6_2 N 0.6808(3) 0.88295(17) 0.15413(15)
N7_2 N 0.9056(3) 0.8978(2) 0.04798(18)
N8_2 N 0.6075(3) 0.83705(17) 0.31972(15)
N9_2 N 0.7108(3) 0.81731(17) 0.38448(15)
N11_2 N 0.3340(3) 0.91562(17) 0.27409(14)
N12_2 N 0.4375(3) 0.99912(17) 0.25496(15)
N15_2 N 0.4340(3) 0.85016(17) 0.22481(15)
N16_2 N 0.3342(3) 0.85084(18) 0.15520(16)
N18_2 N 0.4489(3) 0.89823(17) 0.35678(15)
N19_2 N 0.3546(3) 0.84227(17) 0.38900(15)
C1_2 C 0.7445(3) 0.9663(2) 0.28140(18)
H1_2 H 0.8133 0.9677 0.2929
H2_2 H 0.7343 0.9778 0.2472
C15_2 C 0.7352(3) 0.8819(2) 0.24422(18)
H13_2 H 0.8012 0.8894 0.2389
H14_2 H 0.7301 0.8445 0.2513
C16_2 C 0.6682(3) 0.8961(2) 0.20020(18)
C17_2 C 0.5477(3) 0.9281(2) 0.15423(19)
C18_2 C 0.4644(4) 0.9525(2) 0.1347(2)
H15_2 H 0.4262 0.9706 0.1546
C19_2 C 0.4391(4) 0.9494(2) 0.0847(2)
H16_2 H 0.3826 0.9657 0.0702
C20_2 C 0.4961(4) 0.9225(3) 0.0554(2)
H17_2 H 0.4760 0.9204 0.0216
C21_2 C 0.5794(4) 0.8993(3) 0.0740(2)
H18_2 H 0.6183 0.8818 0.0541
C22_2 C 0.6038(4) 0.9030(2) 0.12404(19)
C23_2 C 0.7538(4) 0.8486(2) 0.1393(2)
H19_2 H 0.7835 0.8290 0.1679
H20_2 H 0.7237 0.8234 0.1153
C24_2 C 0.8297(4) 0.8781(2) 0.1175(2)
C25_2 C 0.8949(4) 0.9092(3) 0.1454(2)
H21_2 H 0.8927 0.9131 0.1791
C26_2 C 0.9625(5) 0.9340(3) 0.1235(3)
C27_2 C 0.9673(4) 0.9264(3) 0.0757(2)
C28_2 C 0.8386(4) 0.8736(2) 0.0693(2)
H24_2 H 0.7947 0.8521 0.0498
C29_2 C 0.7520(3) 0.8902(2) 0.33190(18)
H25_2 H 0.7581 0.9170 0.3576
H26_2 H 0.8159 0.8767 0.3288
C30_2 C 0.6904(3) 0.8478(2) 0.34485(18)
C31_2 C 0.5713(4) 0.7958(2) 0.3443(2)
C32_2 C 0.4876(4) 0.7679(2) 0.3332(2)
H27_2 H 0.4458 0.7741 0.3042
C33_2 C 0.4679(4) 0.7306(2) 0.3662(2)
H28_2 H 0.4116 0.7106 0.3598
C34_2 C 0.5292(4) 0.7220(2) 0.4087(2)
H29_2 H 0.5122 0.6971 0.4312
C35_2 C 0.6139(4) 0.7483(2) 0.4193(2)
H30_2 H 0.6558 0.7419 0.4482
C36_2 C 0.6341(4) 0.7841(2) 0.38580(19)
C37_2 C 0.7953(4) 0.8197(2) 0.4210(2)
H31_2 H 0.8244 0.8544 0.4202
H32_2 H 0.7760 0.8148 0.4536
C38_2 C 0.8678(4) 0.7791(2) 0.4128(2)
C39_2 C 0.9374(4) 0.7885(3) 0.3832(3)
H33_2 H 0.9413 0.8211 0.3677
C41_2 C 0.9937(5) 0.7028(3) 0.3996(2)
C42_2 C 0.8673(4) 0.7313(2) 0.4352(2)
H36_2 H 0.8217 0.7255 0.4567
C43_2 C 0.3018(3) 0.9656(2) 0.29158(19)
H37_2 H 0.2354 0.9720 0.2774
H38_2 H 0.3044 0.9646 0.3273
C57_2 C 0.2951(3) 0.9082(2) 0.22241(18)
H49_2 H 0.2960 0.9414 0.2047
H50_2 H 0.2288 0.8959 0.2198
C58_2 C 0.3542(4) 0.8694(2) 0.20110(19)
C59_2 C 0.4679(4) 0.8165(2) 0.1913(2)
C60_2 C 0.5507(4) 0.7864(2) 0.1957(2)
H51_2 H 0.5914 0.7840 0.2255
C61_2 C 0.5702(5) 0.7605(2) 0.1550(2)
H52_2 H 0.6258 0.7399 0.1566
C62_2 C 0.5090(5) 0.7640(2) 0.1110(2)
H53_2 H 0.5260 0.7465 0.0833
C63_2 C 0.4251(4) 0.7919(2) 0.1063(2)
H54_2 H 0.3832 0.7932 0.0768
C64_2 C 0.4067(4) 0.8176(2) 0.1475(2)
C65_2 C 0.2602(4) 0.8702(3) 0.1185(2)
H55_2 H 0.2376 0.9039 0.1296
H56_2 H 0.2883 0.8767 0.0884
C66_2 C 0.1758(4) 0.8350(2) 0.1065(2)
C67_2 C 0.1401(5) 0.8269(3) 0.0588(2)
H57_2 H 0.1705 0.8418 0.0337
C68_2 C 0.0603(5) 0.7971(3) 0.0474(3)
H58_2 H 0.0361 0.7902 0.0146
C69_2 C 0.0171(5) 0.7777(3) 0.0840(3)
C70_2 C 0.1294(5) 0.8131(3) 0.1410(3)
H60_2 H 0.1542 0.8186 0.1740
C71_2 C 0.3047(3) 0.8729(2) 0.30395(19)
H61_2 H 0.2388 0.8785 0.3106
H62_2 H 0.3072 0.8396 0.2865
C72_2 C 0.3697(3) 0.8713(2) 0.35012(18)
C73_2 C 0.4900(3) 0.8857(2) 0.40445(18)
C74_2 C 0.5746(3) 0.9028(2) 0.43079(19)
H63_2 H 0.6137 0.9275 0.4179
C75_2 C 0.5987(4) 0.8819(2) 0.47670(19)
H64_2 H 0.6555 0.8927 0.4958
C76_2 C 0.5404(4) 0.8451(2) 0.49539(19)
H65 H 0.5602 0.8307 0.5265
C77_2 C 0.4554(4) 0.8293(2) 0.47002(19)
H66_2 H 0.4154 0.8051 0.4831
C78_2 C 0.4320(4) 0.8506(2) 0.42451(18)
C79_2 C 0.2764(4) 0.8068(2) 0.3941(2)
H67_2 H 0.2406 0.7997 0.3618
H68_2 H 0.3019 0.7736 0.4079
C80_2 C 0.2106(4) 0.8299(2) 0.4267(2)
C81_2 C 0.1867(5) 0.8039(3) 0.4663(3)
H69_2 H 0.2111 0.7702 0.4740
C82_2 C 0.1269(6) 0.8272(3) 0.4949(3)
H70 H 0.1081 0.8095 0.5220
C83_2 C 0.0950(5) 0.8761(3) 0.4836(3)
H71 H 0.0549 0.8925 0.5037
C84_2 C 0.1742(4) 0.8778(3) 0.4174(2)
H72_2 H 0.1894 0.8953 0.3894
H65_2 H 0.5602 0.6693 0.0265
H70_2 H 0.1081 0.6905 0.0220
H71_2 H 0.0549 0.6075 0.0037
H47_3 H 0.9891 0.3266 0.7255
H59_3 H 0.9600 0.7412 0.5758
Ag6_2 Ag 0.98428(6) 0.76053(3) 0.68381(3)
N23_2 N 0.9502(4) 0.2163(3) 0.8687(2)
Ag2_2 Ag 0.08214(4) 0.11498(2) 0.03255(2)
N22_2 N 0.0728(4) 0.1929(2) 0.07151(18)
Eu1_3 Eu 0.477758(17) 0.084857(10) 0.719061(9)
N1_3 N 0.2906(3) 0.08689(16) 0.71471(14)
N2_3 N 0.3866(3) 0.01418(17) 0.67149(15)
N5_3 N 0.4106(3) 0.07692(17) 0.79775(15)
N6_3 N 0.3192(3) 0.11705(17) 0.84587(15)
N7_3 N 0.0944(3) 0.1022(2) 0.95202(18)
N8_3 N 0.3925(3) 0.16295(17) 0.68028(15)
N9_3 N 0.2892(3) 0.18269(17) 0.61552(15)
N10_2 N 0.0728(4) 0.3071(2) 0.57151(18)
N11_3 N 0.6660(3) 0.08438(17) 0.72591(14)
N12_3 N 0.5625(3) 0.00088(17) 0.74504(15)
N15_3 N 0.5660(3) 0.14984(17) 0.77519(15)
N16_3 N 0.6658(3) 0.14916(18) 0.84480(16)
N18_3 N 0.5511(3) 0.10177(17) 0.64322(15)
N19_3 N 0.6454(3) 0.15773(17) 0.61100(15)
N20 N 0.8815(4) 0.0982(2) 0.5551(2)
C1_3 C 0.2555(3) 0.0337(2) 0.71860(18)
H1_3 H 0.1867 0.0323 0.7071
H2_3 H 0.2657 0.0222 0.7528
C15_3 C 0.2648(3) 0.1181(2) 0.75578(18)
H13_3 H 0.1988 0.1106 0.7611
H14_3 H 0.2699 0.1555 0.7487
C16_3 C 0.3318(3) 0.1039(2) 0.79980(18)
C17_3 C 0.4523(3) 0.0719(2) 0.84577(19)
C18_3 C 0.5356(4) 0.0475(2) 0.8653(2)
H15_3 H 0.5738 0.0294 0.8454
C19_3 C 0.5609(4) 0.0506(2) 0.9153(2)
H16_3 H 0.6174 0.0343 0.9298
C20_3 C 0.5039(4) 0.0775(3) 0.9446(2)
H17_3 H 0.5240 0.0796 0.9784
C21_3 C 0.4206(4) 0.1007(3) 0.9260(2)
H18_3 H 0.3817 0.1182 0.9459
C22_3 C 0.3962(4) 0.0970(2) 0.87596(19)
C23_3 C 0.2462(4) 0.1514(2) 0.8607(2)
H19_3 H 0.2165 0.1710 0.8321
H20_3 H 0.2763 0.1766 0.8847
C24_3 C 0.1703(4) 0.1219(2) 0.8825(2)
C25_3 C 0.1051(4) 0.0908(3) 0.8546(2)
H21_3 H 0.1073 0.0869 0.8209
C26_3 C 0.0375(5) 0.0660(3) 0.8765(3)
C27_3 C 0.0327(4) 0.0736(3) 0.9243(2)
C28_3 C 0.1614(4) 0.1264(2) 0.9307(2)
H24_3 H 0.2053 0.1479 0.9502
C29_3 C 0.2480(3) 0.1098(2) 0.66810(18)
H25_3 H 0.2419 0.0830 0.6424
H26_3 H 0.1841 0.1233 0.6712
C30_3 C 0.3096(3) 0.1522(2) 0.65515(18)
C31_3 C 0.4287(4) 0.2042(2) 0.6557(2)
C32_3 C 0.5124(4) 0.2321(2) 0.6668(2)
H27_3 H 0.5542 0.2259 0.6958
C33_3 C 0.5321(4) 0.2694(2) 0.6338(2)
H28_3 H 0.5884 0.2894 0.6402
C34_3 C 0.4708(4) 0.2780(2) 0.5913(2)
H29_3 H 0.4878 0.3029 0.5688
C35_3 C 0.3861(4) 0.2517(2) 0.5807(2)
H30_3 H 0.3442 0.2581 0.5518
C36_3 C 0.3659(4) 0.2159(2) 0.61420(19)
C37_3 C 0.2047(4) 0.1803(2) 0.5790(2)
H31_3 H 0.1756 0.1456 0.5798
H32_3 H 0.2240 0.1852 0.5464
C38_3 C 0.1322(4) 0.2209(2) 0.5872(2)
C39_3 C 0.0626(4) 0.2115(3) 0.6168(3)
H33_3 H 0.0587 0.1789 0.6323
C41_3 C 0.0063(5) 0.2972(3) 0.6004(2)
C42_3 C 0.1327(4) 0.2687(2) 0.5648(2)
H36_3 H 0.1783 0.2745 0.5433
C43_3 C 0.6982(3) 0.0344(2) 0.70842(19)
H37_3 H 0.7646 0.0280 0.7226
H38_3 H 0.6956 0.0354 0.6727
C57_3 C 0.7049(3) 0.0918(2) 0.77759(18)
H49_3 H 0.7040 0.0586 0.7953
H50_3 H 0.7712 0.1041 0.7802
C58_3 C 0.6458(4) 0.1306(2) 0.79890(19)
C59_3 C 0.5321(4) 0.1835(2) 0.8087(2)
C60_3 C 0.4493(4) 0.2136(2) 0.8043(2)
H51_3 H 0.4086 0.2160 0.7745
C61_3 C 0.4298(5) 0.2395(2) 0.8450(2)
H52_3 H 0.3742 0.2601 0.8434
C62_3 C 0.4910(5) 0.2360(2) 0.8890(2)
H53_3 H 0.4740 0.2535 0.9167
C63_3 C 0.5749(4) 0.2081(2) 0.8937(2)
H54_3 H 0.6168 0.2068 0.9232
C64_3 C 0.5933(4) 0.1824(2) 0.8525(2)
C65_3 C 0.7398(4) 0.1298(3) 0.8815(2)
H55_3 H 0.7624 0.0961 0.8704
H56_3 H 0.7117 0.1233 0.9116
C66_3 C 0.8242(4) 0.1650(2) 0.8935(2)
C67_3 C 0.8599(5) 0.1731(3) 0.9412(2)
H57_3 H 0.8295 0.1582 0.9663
C68_3 C 0.9397(5) 0.2029(3) 0.9526(3)
H58_3 H 0.9639 0.2098 0.9854
C69_3 C 0.9829(5) 0.2223(3) 0.9160(3)
C70_3 C 0.8706(5) 0.1869(3) 0.8590(3)
H60_3 H 0.8458 0.1814 0.8260
C71_3 C 0.6953(3) 0.1271(2) 0.69605(19)
H61_3 H 0.7612 0.1215 0.6894
H62_3 H 0.6928 0.1604 0.7135
C72_3 C 0.6303(3) 0.1287(2) 0.64988(18)
C73_3 C 0.5100(3) 0.1143(2) 0.59555(18)
C74_3 C 0.4254(3) 0.0972(2) 0.56921(19)
H63_3 H 0.3863 0.0725 0.5821
C75_3 C 0.4013(4) 0.1181(2) 0.52330(19)
H64_3 H 0.3445 0.1073 0.5042
C76_3 C 0.4596(4) 0.1549(2) 0.50461(19)
H65_3 H 0.4398 0.1693 0.4735
C77_3 C 0.5446(4) 0.1707(2) 0.52998(19)
H66_3 H 0.5846 0.1949 0.5169
C78_3 C 0.5680(4) 0.1494(2) 0.57549(18)
C79_3 C 0.7236(4) 0.1932(2) 0.6059(2)
H67_3 H 0.7594 0.2003 0.6382
H68_3 H 0.6981 0.2264 0.5921
C80_3 C 0.7894(4) 0.1701(2) 0.5733(2)
C81_3 C 0.8133(5) 0.1961(3) 0.5337(3)
H69_3 H 0.7889 0.2298 0.5260
C82_3 C 0.8731(6) 0.1728(3) 0.5051(3)
H70_3 H 0.8919 0.1905 0.4780
C83_3 C 0.9050(5) 0.1239(3) 0.5164(3)
H71_3 H 0.9451 0.1075 0.4963
C84_3 C 0.8258(4) 0.1222(3) 0.5826(2)
H72_3 H 0.8106 0.1047 0.6106
Ag4 Ag 0.92608(4) 0.02020(2) 0.57351(2)
Ag5_2 Ag 0.08214(4) 0.38502(2) 0.53255(2)
N3_3 N 0.2829(3) 0.95031(17) 0.67572(16)
N13_3 N 0.6505(3) 0.94189(18) 0.71330(16)
N14_3 N 0.9129(5) 0.8230(3) 0.7198(2)
C2_3 C 0.3076(3) 0.9991(2) 0.68846(18)
C3_3 C 0.4143(4) 0.9713(2) 0.64602(18)
C4_3 C 0.4919(4) 0.9653(2) 0.62080(19)
H3_3 H 0.5348 0.9929 0.6178
C5_3 C 0.5036(4) 0.9170(2) 0.6003(2)
H4_3 H 0.5563 0.9112 0.5833
C6_3 C 0.4384(5) 0.8767(2) 0.6042(2)
H5_3 H 0.4486 0.8441 0.5898
C7_3 C 0.3615(4) 0.8829(2) 0.6279(2)
H6_3 H 0.3178 0.8555 0.6302
C8_3 C 0.3496(4) 0.9316(2) 0.64876(19)
C9_3 C 0.2066(4) 0.9202(2) 0.6928(2)
H7_3 H 0.1878 0.9374 0.7219
H8_3 H 0.2315 0.8855 0.7029
C10_3 C 0.1185(4) 0.9133(2) 0.6557(2)
C11_3 C 0.0908(5) 0.8657(3) 0.6391(3)
H9_3 H 0.1271 0.8359 0.6495
C12_3 C 0.0075(6) 0.8610(3) 0.6064(3)
C14_3 C 0.0659(5) 0.9536(3) 0.6381(3)
H12_3 H 0.0869 0.9872 0.6485
C44_3 C 0.6365(3) 0.9921(2) 0.72244(18)
C45_3 C 0.5250(4) 0.9520(2) 0.75245(19)
C46_3 C 0.4462(4) 0.9372(2) 0.7748(2)
H39_3 H 0.4100 0.9619 0.7897
C47_3 C 0.4240(5) 0.8855(2) 0.7741(2)
H40_3 H 0.3719 0.8742 0.7895
C48_3 C 0.4754(5) 0.8490(2) 0.7517(2)
H41_3 H 0.4556 0.8139 0.7509
C49_3 C 0.5543(5) 0.8622(2) 0.7304(2)
H42_3 H 0.5901 0.8371 0.7158
C50_3 C 0.5784(4) 0.9147(2) 0.7317(2)
C51_3 C 0.7187(4) 0.9200(2) 0.6834(2)
H43_3 H 0.7432 0.9481 0.6643
H44_3 H 0.6856 0.8948 0.6603
C52_3 C 0.8022(4) 0.8930(2) 0.7137(2)
C53_3 C 0.8457(5) 0.9123(3) 0.7560(3)
H45_3 H 0.8241 0.9434 0.7690
C54_3 C 0.9240(6) 0.8853(4) 0.7804(4)
H46_3 H 0.9540 0.8968 0.8110
C55_3 C 0.9549(5) 0.8428(3) 0.7594(3)
C56_3 C 0.8343(6) 0.8474(3) 0.6977(3)
H48_3 H 0.8002 0.8319 0.6697
O1_3 O 0.9238(5) 0.7016(3) 0.7283(4)
H76_3 H 0.853584 0.703293 0.722248
H77_3 H 0.945201 0.666671 0.719536
H22_3 H 0.9939 0.0434 0.8582
H23_3 H 0.9828 0.0576 0.9384
C40_3 C 0.9993(4) 0.2508(3) 0.6231(3)
H34_3 H 0.9512 0.2455 0.6432
H35_3 H 0.9622 0.3237 0.6052
Eu1_4 Eu 0.477758(17) 0.415143(10) 0.219061(9)
Ag3_2 Ag 0.98428(6) 0.73947(3) 0.18381(3)
N1_4 N 0.2906(3) 0.41311(16) 0.21471(14)
N2_4 N 0.3866(3) 0.48582(17) 0.17149(15)
N3_4 N 0.2829(3) 0.54969(17) 0.17572(16)
N5_4 N 0.4106(3) 0.42308(17) 0.29775(15)
N6_4 N 0.3192(3) 0.38295(17) 0.34587(15)
N7_4 N 0.0944(3) 0.3978(2) 0.45202(18)
N8_4 N 0.3925(3) 0.33705(17) 0.18028(15)
N9_4 N 0.2892(3) 0.31731(17) 0.11552(15)
N11_4 N 0.6660(3) 0.41562(17) 0.22591(14)
N12_4 N 0.5625(3) 0.49912(17) 0.24504(15)
N13_4 N 0.6505(3) 0.55811(18) 0.21330(16)
N14_4 N 0.9129(5) 0.6770(3) 0.2198(2)
N15_4 N 0.5660(3) 0.35016(17) 0.27519(15)
N16_4 N 0.6658(3) 0.35084(18) 0.34480(16)
N17_2 N 0.9502(4) 0.2837(3) 0.3687(2)
N18_4 N 0.5511(3) 0.39823(17) 0.14322(15)
N19_4 N 0.6454(3) 0.34227(17) 0.11100(15)
N20_2 N 0.8815(4) 0.4018(2) 0.0551(2)
C1_4 C 0.2555(3) 0.4663(2) 0.21860(18)
H1_4 H 0.1867 0.4677 0.2071
H2_4 H 0.2657 0.4778 0.2528
C2_4 C 0.3076(3) 0.5009(2) 0.18846(18)
C3_4 C 0.4143(4) 0.5287(2) 0.14602(18)
C4_4 C 0.4919(4) 0.5347(2) 0.12080(19)
H3_4 H 0.5348 0.5071 0.1178
C5_4 C 0.5036(4) 0.5830(2) 0.1003(2)
H4_4 H 0.5563 0.5888 0.0833
C6_4 C 0.4384(5) 0.6233(2) 0.1042(2)
H5_4 H 0.4486 0.6559 0.0898
C7_4 C 0.3615(4) 0.6171(2) 0.1279(2)
H6_4 H 0.3178 0.6445 0.1302
C8_4 C 0.3496(4) 0.5684(2) 0.14876(19)
C9_4 C 0.2066(4) 0.5798(2) 0.1928(2)
H7_4 H 0.1878 0.5626 0.2219
H8_4 H 0.2315 0.6145 0.2029
C10_4 C 0.1185(4) 0.5867(2) 0.1557(2)
C11_4 C 0.0908(5) 0.6343(3) 0.1391(3)
H9_4 H 0.1271 0.6641 0.1495
C12_4 C 0.0075(6) 0.6390(3) 0.1064(3)
C14_4 C 0.0659(5) 0.5464(3) 0.1381(3)
H12_4 H 0.0869 0.5128 0.1485
C15_4 C 0.2648(3) 0.3819(2) 0.25578(18)
H13_4 H 0.1988 0.3894 0.2611
H14_4 H 0.2699 0.3445 0.2487
C16_4 C 0.3318(3) 0.3961(2) 0.29980(18)
C17_4 C 0.4523(3) 0.4281(2) 0.34577(19)
C18_4 C 0.5356(4) 0.4525(2) 0.3653(2)
H15_4 H 0.5738 0.4706 0.3454
C19_4 C 0.5609(4) 0.4494(2) 0.4153(2)
H16_4 H 0.6174 0.4657 0.4298
C20_4 C 0.5039(4) 0.4225(3) 0.4446(2)
H17_4 H 0.5240 0.4204 0.4784
C21_4 C 0.4206(4) 0.3993(3) 0.4260(2)
H18_4 H 0.3817 0.3818 0.4459
C22_4 C 0.3962(4) 0.4030(2) 0.37596(19)
C23_4 C 0.2462(4) 0.3486(2) 0.3607(2)
H19_4 H 0.2165 0.3290 0.3321
H20_4 H 0.2763 0.3234 0.3847
C24_4 C 0.1703(4) 0.3781(2) 0.3825(2)
C25_4 C 0.1051(4) 0.4092(3) 0.3546(2)
H21_4 H 0.1073 0.4131 0.3209
C26_4 C 0.0375(5) 0.4340(3) 0.3765(3)
C27_4 C 0.0327(4) 0.4264(3) 0.4243(2)
C28_4 C 0.1614(4) 0.3736(2) 0.4307(2)
H24_4 H 0.2053 0.3521 0.4502
C29_4 C 0.2480(3) 0.3902(2) 0.16810(18)
H25_4 H 0.2419 0.4170 0.1424
H26_4 H 0.1841 0.3767 0.1712
C30_4 C 0.3096(3) 0.3478(2) 0.15515(18)
C31_4 C 0.4287(4) 0.2958(2) 0.1557(2)
C32_4 C 0.5124(4) 0.2679(2) 0.1668(2)
H27_4 H 0.5542 0.2741 0.1958
C33_4 C 0.5321(4) 0.2306(2) 0.1338(2)
H28_4 H 0.5884 0.2106 0.1402
C34_4 C 0.4708(4) 0.2220(2) 0.0913(2)
H29_4 H 0.4878 0.1971 0.0688
C35_4 C 0.3861(4) 0.2483(2) 0.0807(2)
H30_4 H 0.3442 0.2419 0.0518
C36_4 C 0.3659(4) 0.2841(2) 0.11420(19)
C37_4 C 0.2047(4) 0.3197(2) 0.0790(2)
H31_4 H 0.1756 0.3544 0.0798
H32_4 H 0.2240 0.3148 0.0464
C38_4 C 0.1322(4) 0.2791(2) 0.0872(2)
C39_4 C 0.0626(4) 0.2885(3) 0.1168(3)
H33_4 H 0.0587 0.3211 0.1323
C41_4 C 0.0063(5) 0.2028(3) 0.1004(2)
C42_4 C 0.1327(4) 0.2313(2) 0.0648(2)
H36_4 H 0.1783 0.2255 0.0433
C43_4 C 0.6982(3) 0.4656(2) 0.20842(19)
H37_4 H 0.7646 0.4720 0.2226
H38_4 H 0.6956 0.4646 0.1727
C44_4 C 0.6365(3) 0.5079(2) 0.22244(18)
C45_4 C 0.5250(4) 0.5480(2) 0.25245(19)
C46_4 C 0.4462(4) 0.5628(2) 0.2748(2)
H39_4 H 0.4100 0.5381 0.2897
C47_4 C 0.4240(5) 0.6145(2) 0.2741(2)
H40_4 H 0.3719 0.6258 0.2895
C48_4 C 0.4754(5) 0.6510(2) 0.2517(2)
H41_4 H 0.4556 0.6861 0.2509
C49_4 C 0.5543(5) 0.6378(2) 0.2304(2)
H42_4 H 0.5901 0.6629 0.2158
C50_4 C 0.5784(4) 0.5853(2) 0.2317(2)
C51_4 C 0.7187(4) 0.5800(2) 0.1834(2)
H43_4 H 0.7432 0.5519 0.1643
H44_4 H 0.6856 0.6052 0.1603
C52_4 C 0.8022(4) 0.6070(2) 0.2137(2)
C53_4 C 0.8457(5) 0.5877(3) 0.2560(3)
H45_4 H 0.8241 0.5566 0.2690
C54_4 C 0.9240(6) 0.6147(4) 0.2804(4)
H46_4 H 0.9540 0.6032 0.3110
C55_4 C 0.9549(5) 0.6572(3) 0.2594(3)
C56_4 C 0.8343(6) 0.6526(3) 0.1977(3)
H48_4 H 0.8002 0.6681 0.1697
C57_4 C 0.7049(3) 0.4082(2) 0.27759(18)
H49_4 H 0.7040 0.4414 0.2953
H50_4 H 0.7712 0.3959 0.2802
C58_4 C 0.6458(4) 0.3694(2) 0.29890(19)
C59_4 C 0.5321(4) 0.3165(2) 0.3087(2)
C60_4 C 0.4493(4) 0.2864(2) 0.3043(2)
H51_4 H 0.4086 0.2840 0.2745
C61_4 C 0.4298(5) 0.2605(2) 0.3450(2)
H52_4 H 0.3742 0.2399 0.3434
C62_4 C 0.4910(5) 0.2640(2) 0.3890(2)
H53_4 H 0.4740 0.2465 0.4167
C63_4 C 0.5749(4) 0.2919(2) 0.3937(2)
H54_4 H 0.6168 0.2932 0.4232
C64_4 C 0.5933(4) 0.3176(2) 0.3525(2)
C65_4 C 0.7398(4) 0.3702(3) 0.3815(2)
H55_4 H 0.7624 0.4039 0.3704
H56_4 H 0.7117 0.3767 0.4116
C66_4 C 0.8242(4) 0.3350(2) 0.3935(2)
C67_4 C 0.8599(5) 0.3269(3) 0.4412(2)
H57_4 H 0.8295 0.3418 0.4663
C68_4 C 0.9397(5) 0.2971(3) 0.4526(3)
H58_4 H 0.9639 0.2902 0.4854
C69_4 C 0.9829(5) 0.2777(3) 0.4160(3)
C70_4 C 0.8706(5) 0.3131(3) 0.3590(3)
H60_4 H 0.8458 0.3186 0.3260
C71_4 C 0.6953(3) 0.3729(2) 0.19605(19)
H61_4 H 0.7612 0.3785 0.1894
H62_4 H 0.6928 0.3396 0.2135
C72_4 C 0.6303(3) 0.3713(2) 0.14988(18)
C73_4 C 0.5100(3) 0.3857(2) 0.09555(18)
C74_4 C 0.4254(3) 0.4028(2) 0.06921(19)
H63_4 H 0.3863 0.4275 0.0821
C75_4 C 0.4013(4) 0.3819(2) 0.02330(19)
H64_4 H 0.3445 0.3927 0.0042
C76_4 C 0.4596(4) 0.3451(2) 0.00461(19)
C77_4 C 0.5446(4) 0.3293(2) 0.02998(19)
H66_4 H 0.5846 0.3051 0.0169
C78_4 C 0.5680(4) 0.3506(2) 0.07549(18)
C79_4 C 0.7236(4) 0.3068(2) 0.1059(2)
H67_4 H 0.7594 0.2997 0.1382
H68_4 H 0.6981 0.2736 0.0921
C80_4 C 0.7894(4) 0.3299(2) 0.0733(2)
C81_4 C 0.8133(5) 0.3039(3) 0.0337(3)
H69_4 H 0.7889 0.2702 0.0260
C82_4 C 0.8731(6) 0.3272(3) 0.0051(3)
C83_4 C 0.9050(5) 0.3761(3) 0.0164(3)
C84_4 C 0.8258(4) 0.3778(3) 0.0826(2)
H72_4 H 0.8106 0.3953 0.1106
O1_4 O 0.9238(5) 0.7984(3) 0.2283(4)
Ag4_2 Ag 0.92608(4) 0.47980(2) 0.07351(2)
H76_4 H 0.853584 0.796707 0.222248
H77_4 H 0.945201 0.833329 0.219536
N4_2 N 0.9849(4) 0.5496(2) 0.1066(2)
N21_2 N 0.9424(5) 0.4364(3) 0.5354(3)
H10_2 H 0.9869 0.6721 0.0944
C13_2 C 0.9575(4) 0.5969(3) 0.0923(2)
H11_2 H 0.8998 0.6009 0.0713
H22_4 H 0.9939 0.4566 0.3582
H23_4 H 0.9828 0.4424 0.4384
C40_4 C 0.9993(4) 0.2492(3) 0.1231(3)
H34_4 H 0.9512 0.2545 0.1432
H35_4 H 0.9622 0.1763 0.1052
C85_2 C 0.8740(5) 0.4586(3) 0.5322(3)
C86_2 C 0.7844(6) 0.4867(3) 0.5298(3)
H73_2 H 0.7814 0.5131 0.5043
H74_2 H 0.7315 0.4625 0.5224
H75_2 H 0.7802 0.5035 0.5610
H47_4 H 0.9891 0.1734 0.2255
H59_4 H 0.9600 0.7588 0.0758
N21_3 N 0.9424(5) 0.0636(3) 0.0354(3)
C85_3 C 0.8740(5) 0.0414(3) 0.0322(3)
C86_3 C 0.7844(6) 0.0133(3) 0.0298(3)
H74_3 H 0.7315 0.0375 0.0224
H73_3 H 0.7814 0.9869 0.0043
H75_3 H 0.7802 0.9965 0.0610
N4_3 N 0.9849(4) 0.9504(2) 0.6066(2)
H10_3 H 0.9869 0.8279 0.5944
C13_3 C 0.9575(4) 0.9031(3) 0.5923(2)
H11_3 H 0.8998 0.8991 0.5713
H65_4 H 0.4398 0.3307 0.9735
H70_4 H 0.8919 0.3095 0.9780
H71_4 H 0.9451 0.3925 0.9963
N4_4 N 0.0151(4) 0.0496(2) 0.3934(2)
H10_4 H 0.0131 0.1721 0.4056
C13_4 C 0.0425(4) 0.0969(3) 0.4077(2)
H11_4 H 0.1002 0.1009 0.4287
H73_4 H 0.2186 0.0131 0.9957
H75_4 H 0.2198 0.0035 0.9390
N21_4 N 0.0576(5) 0.9364(3) 0.9646(3)
C85_4 C 0.1260(5) 0.9586(3) 0.9678(3)
C86_4 C 0.2156(6) 0.9867(3) 0.9702(3)
H74_4 H 0.2685 0.9625 0.9776
Cl1 Cl 0.30554(11) 0.66132(6) 0.46155(6)
O2 O 0.2125(4) 0.6760(2) 0.4416(2)
O3 O 0.3023(4) 0.6255(2) 0.4996(2)
O4 O 0.3549(4) 0.7065(2) 0.4804(2)
O5 O 0.3535(4) 0.6379(2) 0.4257(2)
Cl1_2 Cl 0.69446(11) 0.16132(6) 0.03845(6)
O2_2 O 0.7875(4) 0.1760(2) 0.0584(2)
O3_2 O 0.6977(4) 0.1255(2) 0.0004(2)
O4_2 O 0.6451(4) 0.2065(2) 0.0196(2)
O5_2 O 0.6465(4) 0.1379(2) 0.0743(2)
Cl1_3 Cl 0.69446(11) 0.33868(6) 0.53845(6)
O2_3 O 0.7875(4) 0.3240(2) 0.5584(2)
O3_3 O 0.6977(4) 0.3745(2) 0.5004(2)
O4_3 O 0.6451(4) 0.2935(2) 0.5196(2)
O5_3 O 0.6465(4) 0.3621(2) 0.5743(2)
Cl1_4 Cl 0.30554(11) 0.83868(6) 0.96155(6)
O2_4 O 0.2125(4) 0.8240(2) 0.9416(2)
O3_4 O 0.3023(4) 0.8745(2) 0.9996(2)
O4_4 O 0.3549(4) 0.7935(2) 0.9804(2)
O5_4 O 0.3535(4) 0.8621(2) 0.9257(2)
Cl2 Cl 0.20874(12) 0.73299(7) 0.26099(7)
O6 O 0.1410(5) 0.7701(3) 0.2691(4)
O7 O 0.2880(6) 0.7563(4) 0.2456(4)
O8 O 0.2537(8) 0.7178(5) 0.3039(4)
O9 O 0.1663(6) 0.6937(3) 0.2367(4)
Cl2_2 Cl 0.79126(12) 0.23299(7) 0.23901(7)
O6_2 O 0.8590(5) 0.2701(3) 0.2309(4)
O7_2 O 0.7120(6) 0.2563(4) 0.2544(4)
O8_2 O 0.7463(8) 0.2178(5) 0.1961(4)
O9_2 O 0.8337(6) 0.1937(3) 0.2633(4)
Cl2_3 Cl 0.79126(12) 0.26701(7) 0.73901(7)
O6_3 O 0.8590(5) 0.2299(3) 0.7309(4)
O7_3 O 0.7120(6) 0.2437(4) 0.7544(4)
O8_3 O 0.7463(8) 0.2822(5) 0.6961(4)
O9_3 O 0.8337(6) 0.3063(3) 0.7633(4)
Cl2_4 Cl 0.20874(12) 0.76701(7) 0.76099(7)
O6_4 O 0.1410(5) 0.7299(3) 0.7691(4)
O7_4 O 0.2880(6) 0.7437(4) 0.7456(4)
O8_4 O 0.2537(8) 0.7822(5) 0.8039(4)
O9_4 O 0.1663(6) 0.8063(3) 0.7367(4)
Cl3 Cl 0.23698(10) 0.28528(6) 0.92991(5)
O10 O 0.2906(4) 0.3275(2) 0.91484(18)
O11 O 0.2990(3) 0.24747(19) 0.95494(17)
O12 O 0.1730(4) 0.3038(2) 0.96087(17)
O13 O 0.1845(3) 0.26214(16) 0.88756(14)
Cl3_2 Cl 0.76302(10) 0.78528(6) 0.57009(5)
O10_2 O 0.7094(4) 0.8275(2) 0.58516(18)
O11_2 O 0.7010(3) 0.74747(19) 0.54506(17)
O12_2 O 0.8270(4) 0.8038(2) 0.53913(17)
O13_2 O 0.8155(3) 0.76214(16) 0.61244(14)
Cl3_3 Cl 0.76302(10) 0.71472(6) 0.07009(5)
O10_3 O 0.7094(4) 0.6725(2) 0.08516(18)
O11_3 O 0.7010(3) 0.75253(19) 0.04506(17)
O12_3 O 0.8270(4) 0.6962(2) 0.03913(17)
O13_3 O 0.8155(3) 0.73786(16) 0.11244(14)
Cl3_4 Cl 0.23698(10) 0.21472(6) 0.42991(5)
O10_4 O 0.2906(4) 0.1725(2) 0.41484(18)
O11_4 O 0.2990(3) 0.25253(19) 0.45494(17)
O12_4 O 0.1730(4) 0.1962(2) 0.46087(17)
O13_4 O 0.1845(3) 0.23786(16) 0.38756(14)
Cl4 Cl 0.80233(12) 0.52541(6) 0.37164(7)
O14 O 0.8403(4) 0.4926(2) 0.3394(3)
O15 O 0.7114(4) 0.5411(2) 0.3477(3)
O16 O 0.8597(4) 0.5695(2) 0.3807(2)
O17 O 0.7936(5) 0.4982(3) 0.4144(2)
Cl4_2 Cl 0.19767(12) 0.02541(6) 0.12836(7)
O15_2 O 0.2886(4) 0.0411(2) 0.1523(3)
O16_2 O 0.1403(4) 0.0695(2) 0.1193(2)
O14_2 O 0.1597(4) 0.9926(2) 0.1606(3)
O17_2 O 0.2064(5) 0.9982(3) 0.0856(2)
Cl4_3 Cl 0.19767(12) 0.47459(6) 0.62836(7)
O14_3 O 0.1597(4) 0.5074(2) 0.6606(3)
O15_3 O 0.2886(4) 0.4589(2) 0.6523(3)
O16_3 O 0.1403(4) 0.4305(2) 0.6193(2)
O17_3 O 0.2064(5) 0.5018(3) 0.5856(2)
O14_4 O 0.8403(4) 0.0074(2) 0.8394(3)
O17_4 O 0.7936(5) 0.0018(3) 0.9144(2)
Cl4_4 Cl 0.80233(12) 0.97459(6) 0.87164(7)
O15_4 O 0.7114(4) 0.9589(2) 0.8477(3)
O16_4 O 0.8597(4) 0.9305(2) 0.8807(2)
Cl5 Cl 0.16029(10) 0.46933(6) 0.04433(6)
O18 O 0.2400(4) 0.4817(2) 0.07839(18)
O19 O 0.1019(4) 0.4359(2) 0.0678(3)
O20 O 0.1103(4) 0.5146(2) 0.0277(2)
O21 O 0.1939(4) 0.4438(3) 0.0048(2)
O20_2 O 0.8897(4) 0.0146(2) 0.4723(2)
Cl5_2 Cl 0.83971(10) 0.96933(6) 0.45567(6)
O18_2 O 0.7600(4) 0.9817(2) 0.42161(18)
O19_2 O 0.8981(4) 0.9359(2) 0.4322(3)
O21_2 O 0.8061(4) 0.9438(3) 0.4952(2)
Cl5_3 Cl 0.83971(10) 0.53067(6) 0.95567(6)
O18_3 O 0.7600(4) 0.5183(2) 0.92161(18)
O19_3 O 0.8981(4) 0.5641(2) 0.9322(3)
O20_3 O 0.8897(4) 0.4854(2) 0.9723(2)
O21_3 O 0.8061(4) 0.5562(3) 0.9952(2)
Cl5_4 Cl 0.16029(10) 0.03067(6) 0.54433(6)
O18_4 O 0.2400(4) 0.0183(2) 0.57839(18)
O19_4 O 0.1019(4) 0.0641(2) 0.5678(3)
O21_4 O 0.1939(4) 0.0562(3) 0.5048(2)
O20_4 O 0.1103(4) 0.9854(2) 0.5277(2)
Cl6 Cl 0.02618(16) 0.57625(16) 0.78185(11)
O22 O 0.0934(4) 0.5511(3) 0.8192(2)
O25 O 0.0754(4) 0.5963(3) 0.7465(3)
O23 O 0.9677(6) 0.6058(5) 0.8037(4)
O24 O 0.9631(5) 0.5393(4) 0.7598(3)
O23_2 O 0.0323(6) 0.1058(5) 0.6963(4)
O24_2 O 0.0369(5) 0.0393(4) 0.7402(3)
Cl6_2 Cl 0.97382(16) 0.07625(16) 0.71815(11)
O22_2 O 0.9066(4) 0.0511(3) 0.6808(2)
O25_2 O 0.9246(4) 0.0963(3) 0.7535(3)
O23_3 O 0.0323(6) 0.3942(5) 0.1963(4)
O24_3 O 0.0369(5) 0.4607(4) 0.2402(3)
Cl6_3 Cl 0.97382(16) 0.42375(16) 0.21815(11)
O22_3 O 0.9066(4) 0.4489(3) 0.1808(2)
O25_3 O 0.9246(4) 0.4037(3) 0.2535(3)
Cl6_4 Cl 0.02618(16) 0.92375(16) 0.28185(11)
O22_4 O 0.0934(4) 0.9489(3) 0.3192(2)
O25_4 O 0.0754(4) 0.9037(3) 0.2465(3)
O23_4 O 0.9677(6) 0.8942(5) 0.3037(4)
O24_4 O 0.9631(5) 0.9607(4) 0.2598(3)
loop_
_geom_bond_atom_site_label_1
_geom_bond_atom_site_label_2
_geom_bond_site_symmetry_1
_geom_bond_site_symmetry_2
Ag1 N4 1_555 1_555
N4 C13 1_555 1_555
H11 C13 1_555 1_555
H34 C40 1_555 1_555
C85 N21 1_555 1_555
C86 C85 1_555 1_555
H73 C86 1_555 1_555
H74 C86 1_555 1_555
H75 C86 1_555 1_555
N24 Ag1 1_555 1_555
Eu1 N1 1_555 1_555
Ag2 N7 1_555 1_555
Ag3 N14 1_555 1_555
N1 C1 1_555 1_555
N2 Eu1 1_555 1_555
N3 C2 1_555 1_555
N5 Eu1 1_555 1_555
N6 C16 1_555 1_555
N7 C27 1_555 1_555
N8 Eu1 1_555 1_555
N9 C30 1_555 1_555
N10 C41 1_555 1_555
N11 Eu1 1_555 1_555
N12 Eu1 1_555 1_555
N13 C44 1_555 1_555
N14 C55 1_555 1_555
N15 Eu1 1_555 1_555
N16 C58 1_555 1_555
N17 C69 1_555 1_555
N18 Eu1 1_555 1_555
N19 C72 1_555 1_555
N24 C83 1_555 1_555
C1 H1 1_555 1_555
H2 C1 1_555 1_555
C2 N2 1_555 1_555
C3 N2 1_555 1_555
C4 C3 1_555 1_555
H3 C4 1_555 1_555
C5 C4 1_555 1_555
H4 C5 1_555 1_555
C6 C5 1_555 1_555
H5 C6 1_555 1_555
C7 C6 1_555 1_555
H6 C7 1_555 1_555
C8 N3 1_555 1_555
C9 N3 1_555 1_555
H7 C9 1_555 1_555
H8 C9 1_555 1_555
C10 C9 1_555 1_555
C11 C10 1_555 1_555
H9 C11 1_555 1_555
C12 C11 1_555 1_555
H12 C14 1_555 1_555
C15 N1 1_555 1_555
H13 C15 1_555 1_555
H14 C15 1_555 1_555
C16 N5 1_555 1_555
C17 N5 1_555 1_555
C18 C17 1_555 1_555
H15 C18 1_555 1_555
C19 C18 1_555 1_555
H16 C19 1_555 1_555
C20 C19 1_555 1_555
H17 C20 1_555 1_555
C21 C20 1_555 1_555
H18 C21 1_555 1_555
C22 N6 1_555 1_555
C23 N6 1_555 1_555
H19 C23 1_555 1_555
H20 C23 1_555 1_555
C24 C23 1_555 1_555
C25 C24 1_555 1_555
H21 C25 1_555 1_555
C26 C25 1_555 1_555
C27 C26 1_555 1_555
C28 N7 1_555 1_555
H24 C28 1_555 1_555
C29 N1 1_555 1_555
H25 C29 1_555 1_555
H26 C29 1_555 1_555
C30 N8 1_555 1_555
C31 N8 1_555 1_555
C32 C31 1_555 1_555
H27 C32 1_555 1_555
C33 C32 1_555 1_555
H28 C33 1_555 1_555
C34 C33 1_555 1_555
H29 C34 1_555 1_555
C35 C34 1_555 1_555
H30 C35 1_555 1_555
C36 N9 1_555 1_555
C37 N9 1_555 1_555
H31 C37 1_555 1_555
H32 C37 1_555 1_555
C38 C37 1_555 1_555
C39 C38 1_555 1_555
H33 C39 1_555 1_555
C42 N10 1_555 1_555
H36 C42 1_555 1_555
C43 N11 1_555 1_555
H37 C43 1_555 1_555
H38 C43 1_555 1_555
C44 N12 1_555 1_555
C45 N12 1_555 1_555
C46 C45 1_555 1_555
H39 C46 1_555 1_555
C47 C46 1_555 1_555
H40 C47 1_555 1_555
C48 C47 1_555 1_555
H41 C48 1_555 1_555
C49 C48 1_555 1_555
H42 C49 1_555 1_555
C50 N13 1_555 1_555
C51 N13 1_555 1_555
H43 C51 1_555 1_555
H44 C51 1_555 1_555
C52 C51 1_555 1_555
C53 C52 1_555 1_555
H45 C53 1_555 1_555
C54 C53 1_555 1_555
H46 C54 1_555 1_555
C55 C54 1_555 1_555
C56 N14 1_555 1_555
H48 C56 1_555 1_555
C57 N11 1_555 1_555
H49 C57 1_555 1_555
H50 C57 1_555 1_555
C58 N15 1_555 1_555
C59 N15 1_555 1_555
C60 C59 1_555 1_555
H51 C60 1_555 1_555
C61 C60 1_555 1_555
H52 C61 1_555 1_555
C62 C61 1_555 1_555
H53 C62 1_555 1_555
C63 C62 1_555 1_555
H54 C63 1_555 1_555
C64 N16 1_555 1_555
C65 N16 1_555 1_555
H55 C65 1_555 1_555
H56 C65 1_555 1_555
C66 C65 1_555 1_555
C67 C66 1_555 1_555
H57 C67 1_555 1_555
C68 C67 1_555 1_555
H58 C68 1_555 1_555
C69 C68 1_555 1_555
C70 N17 1_555 1_555
H60 C70 1_555 1_555
C71 N11 1_555 1_555
H61 C71 1_555 1_555
H62 C71 1_555 1_555
C72 N18 1_555 1_555
C73 N18 1_555 1_555
C74 C73 1_555 1_555
H63 C74 1_555 1_555
C75 C74 1_555 1_555
H64 C75 1_555 1_555
C76 C75 1_555 1_555
C77 C76 1_555 1_555
H66 C77 1_555 1_555
C78 N19 1_555 1_555
C79 N19 1_555 1_555
H67 C79 1_555 1_555
H68 C79 1_555 1_555
C80 C79 1_555 1_555
C81 C80 1_555 1_555
H69 C81 1_555 1_555
C82 C81 1_555 1_555
C83 C82 1_555 1_555
C84 N24 1_555 1_555
H72 C84 1_555 1_555
O1 Ag3 1_555 1_555
Ag5 N10 1_555 1_555
N22 Ag2 1_555 1_555
C1 C2 1_555 1_555
C3 C8 1_555 1_555
C7 C8 1_555 1_555
C10 C14 1_555 1_555
C15 C16 1_555 1_555
C17 C22 1_555 1_555
C21 C22 1_555 1_555
C24 C28 1_555 1_555
C29 C30 1_555 1_555
C31 C36 1_555 1_555
C35 C36 1_555 1_555
C38 C42 1_555 1_555
C43 C44 1_555 1_555
C45 C50 1_555 1_555
C49 C50 1_555 1_555
C52 C56 1_555 1_555
C57 C58 1_555 1_555
C59 C64 1_555 1_555
C63 C64 1_555 1_555
C66 C70 1_555 1_555
C71 C72 1_555 1_555
C73 C78 1_555 1_555
C77 C78 1_555 1_555
C80 C84 1_555 1_555
O1 H76 1_555 1_555
O1 H77 1_555 1_555
H34_2 C40_2 1_555 1_555
N24_2 Ag1_2 1_555 1_555
Ag6 N14_2 1_555 1_555
N3_2 C2_2 1_555 1_555
N13_2 C44_2 1_555 1_555
N14_2 C55_2 1_555 1_555
C4_2 C3_2 1_555 1_555
H3_2 C4_2 1_555 1_555
C5_2 C4_2 1_555 1_555
H4_2 C5_2 1_555 1_555
C6_2 C5_2 1_555 1_555
H5_2 C6_2 1_555 1_555
C7_2 C6_2 1_555 1_555
H6_2 C7_2 1_555 1_555
C8_2 N3_2 1_555 1_555
C9_2 N3_2 1_555 1_555
H7_2 C9_2 1_555 1_555
H8_2 C9_2 1_555 1_555
C10_2 C9_2 1_555 1_555
C11_2 C10_2 1_555 1_555
H9_2 C11_2 1_555 1_555
C12_2 C11_2 1_555 1_555
H12_2 C14_2 1_555 1_555
C46_2 C45_2 1_555 1_555
H39_2 C46_2 1_555 1_555
C47_2 C46_2 1_555 1_555
H40_2 C47_2 1_555 1_555
C48_2 C47_2 1_555 1_555
H41_2 C48_2 1_555 1_555
C49_2 C48_2 1_555 1_555
H42_2 C49_2 1_555 1_555
C50_2 N13_2 1_555 1_555
C51_2 N13_2 1_555 1_555
H43_2 C51_2 1_555 1_555
H44_2 C51_2 1_555 1_555
C52_2 C51_2 1_555 1_555
C53_2 C52_2 1_555 1_555
H45_2 C53_2 1_555 1_555
C54_2 C53_2 1_555 1_555
H46_2 C54_2 1_555 1_555
C55_2 C54_2 1_555 1_555
C56_2 N14_2 1_555 1_555
H48_2 C56_2 1_555 1_555
O1_2 Ag6 1_555 1_555
C3_2 C8_2 1_555 1_555
C7_2 C8_2 1_555 1_555
C10_2 C14_2 1_555 1_555
C45_2 C50_2 1_555 1_555
C49_2 C50_2 1_555 1_555
C52_2 C56_2 1_555 1_555
O1_2 H76_2 1_555 1_555
O1_2 H77_2 1_555 1_555
Eu1_2 N1_2 1_555 1_555
N1_2 C1_2 1_555 1_555
N2_2 Eu1_2 1_555 1_555
N5_2 Eu1_2 1_555 1_555
N6_2 C16_2 1_555 1_555
N7_2 C27_2 1_555 1_555
N8_2 Eu1_2 1_555 1_555
N9_2 C30_2 1_555 1_555
N22 C41_2 1_555 1_555
N11_2 Eu1_2 1_555 1_555
N12_2 Eu1_2 1_555 1_555
N15_2 Eu1_2 1_555 1_555
N16_2 C58_2 1_555 1_555
N23 C69_2 1_555 1_555
N18_2 Eu1_2 1_555 1_555
N19_2 C72_2 1_555 1_555
N24_2 C83_2 1_555 1_555
C1_2 H1_2 1_555 1_555
H2_2 C1_2 1_555 1_555
C15_2 N1_2 1_555 1_555
H13_2 C15_2 1_555 1_555
H14_2 C15_2 1_555 1_555
C16_2 N5_2 1_555 1_555
C17_2 N5_2 1_555 1_555
C18_2 C17_2 1_555 1_555
H15_2 C18_2 1_555 1_555
C19_2 C18_2 1_555 1_555
H16_2 C19_2 1_555 1_555
C20_2 C19_2 1_555 1_555
H17_2 C20_2 1_555 1_555
C21_2 C20_2 1_555 1_555
H18_2 C21_2 1_555 1_555
C22_2 N6_2 1_555 1_555
C23_2 N6_2 1_555 1_555
H19_2 C23_2 1_555 1_555
H20_2 C23_2 1_555 1_555
C24_2 C23_2 1_555 1_555
C25_2 C24_2 1_555 1_555
H21_2 C25_2 1_555 1_555
C26_2 C25_2 1_555 1_555
C27_2 C26_2 1_555 1_555
C28_2 N7_2 1_555 1_555
H24_2 C28_2 1_555 1_555
C29_2 N1_2 1_555 1_555
H25_2 C29_2 1_555 1_555
H26_2 C29_2 1_555 1_555
C30_2 N8_2 1_555 1_555
C31_2 N8_2 1_555 1_555
C32_2 C31_2 1_555 1_555
H27_2 C32_2 1_555 1_555
C33_2 C32_2 1_555 1_555
H28_2 C33_2 1_555 1_555
C34_2 C33_2 1_555 1_555
H29_2 C34_2 1_555 1_555
C35_2 C34_2 1_555 1_555
H30_2 C35_2 1_555 1_555
C36_2 N9_2 1_555 1_555
C37_2 N9_2 1_555 1_555
H31_2 C37_2 1_555 1_555
H32_2 C37_2 1_555 1_555
C38_2 C37_2 1_555 1_555
C39_2 C38_2 1_555 1_555
H33_2 C39_2 1_555 1_555
C42_2 N22 1_555 1_555
H36_2 C42_2 1_555 1_555
C43_2 N11_2 1_555 1_555
H37_2 C43_2 1_555 1_555
H38_2 C43_2 1_555 1_555
C57_2 N11_2 1_555 1_555
H49_2 C57_2 1_555 1_555
H50_2 C57_2 1_555 1_555
C58_2 N15_2 1_555 1_555
C59_2 N15_2 1_555 1_555
C60_2 C59_2 1_555 1_555
H51_2 C60_2 1_555 1_555
C61_2 C60_2 1_555 1_555
H52_2 C61_2 1_555 1_555
C62_2 C61_2 1_555 1_555
H53_2 C62_2 1_555 1_555
C63_2 C62_2 1_555 1_555
H54_2 C63_2 1_555 1_555
C64_2 N16_2 1_555 1_555
C65_2 N16_2 1_555 1_555
H55_2 C65_2 1_555 1_555
H56_2 C65_2 1_555 1_555
C66_2 C65_2 1_555 1_555
C67_2 C66_2 1_555 1_555
H57_2 C67_2 1_555 1_555
C68_2 C67_2 1_555 1_555
H58_2 C68_2 1_555 1_555
C69_2 C68_2 1_555 1_555
C70_2 N23 1_555 1_555
H60_2 C70_2 1_555 1_555
C71_2 N11_2 1_555 1_555
H61_2 C71_2 1_555 1_555
H62_2 C71_2 1_555 1_555
C72_2 N18_2 1_555 1_555
C73_2 N18_2 1_555 1_555
C74_2 C73_2 1_555 1_555
H63_2 C74_2 1_555 1_555
C75_2 C74_2 1_555 1_555
H64_2 C75_2 1_555 1_555
C76_2 C75_2 1_555 1_555
H65 C76_2 1_555 1_555
C77_2 C76_2 1_555 1_555
H66_2 C77_2 1_555 1_555
C78_2 N19_2 1_555 1_555
C79_2 N19_2 1_555 1_555
H67_2 C79_2 1_555 1_555
H68_2 C79_2 1_555 1_555
C80_2 C79_2 1_555 1_555
C81_2 C80_2 1_555 1_555
H69_2 C81_2 1_555 1_555
C82_2 C81_2 1_555 1_555
H70 C82_2 1_555 1_555
C83_2 C82_2 1_555 1_555
H71 C83_2 1_555 1_555
C84_2 N24_2 1_555 1_555
H72_2 C84_2 1_555 1_555
C15_2 C16_2 1_555 1_555
C17_2 C22_2 1_555 1_555
C21_2 C22_2 1_555 1_555
C24_2 C28_2 1_555 1_555
C29_2 C30_2 1_555 1_555
C31_2 C36_2 1_555 1_555
C35_2 C36_2 1_555 1_555
C38_2 C42_2 1_555 1_555
C57_2 C58_2 1_555 1_555
C59_2 C64_2 1_555 1_555
C63_2 C64_2 1_555 1_555
C66_2 C70_2 1_555 1_555
C71_2 C72_2 1_555 1_555
C73_2 C78_2 1_555 1_555
C77_2 C78_2 1_555 1_555
C80_2 C84_2 1_555 1_555
N22_2 Ag2_2 1_555 1_555
Eu1_3 N1_3 1_555 1_555
N1_3 C1_3 1_555 1_555
N2_3 Eu1_3 1_555 1_555
N5_3 Eu1_3 1_555 1_555
N6_3 C16_3 1_555 1_555
N7_3 C27_3 1_555 1_555
N8_3 Eu1_3 1_555 1_555
N9_3 C30_3 1_555 1_555
N10_2 C41_3 1_555 1_555
N11_3 Eu1_3 1_555 1_555
N12_3 Eu1_3 1_555 1_555
N15_3 Eu1_3 1_555 1_555
N16_3 C58_3 1_555 1_555
N23_2 C69_3 1_555 1_555
N18_3 Eu1_3 1_555 1_555
N19_3 C72_3 1_555 1_555
N20 C83_3 1_555 1_555
C1_3 H1_3 1_555 1_555
H2_3 C1_3 1_555 1_555
C15_3 N1_3 1_555 1_555
H13_3 C15_3 1_555 1_555
H14_3 C15_3 1_555 1_555
C16_3 N5_3 1_555 1_555
C17_3 N5_3 1_555 1_555
C18_3 C17_3 1_555 1_555
H15_3 C18_3 1_555 1_555
C19_3 C18_3 1_555 1_555
H16_3 C19_3 1_555 1_555
C20_3 C19_3 1_555 1_555
H17_3 C20_3 1_555 1_555
C21_3 C20_3 1_555 1_555
H18_3 C21_3 1_555 1_555
C22_3 N6_3 1_555 1_555
C23_3 N6_3 1_555 1_555
H19_3 C23_3 1_555 1_555
H20_3 C23_3 1_555 1_555
C24_3 C23_3 1_555 1_555
C25_3 C24_3 1_555 1_555
H21_3 C25_3 1_555 1_555
C26_3 C25_3 1_555 1_555
C27_3 C26_3 1_555 1_555
C28_3 N7_3 1_555 1_555
H24_3 C28_3 1_555 1_555
C29_3 N1_3 1_555 1_555
H25_3 C29_3 1_555 1_555
H26_3 C29_3 1_555 1_555
C30_3 N8_3 1_555 1_555
C31_3 N8_3 1_555 1_555
C32_3 C31_3 1_555 1_555
H27_3 C32_3 1_555 1_555
C33_3 C32_3 1_555 1_555
H28_3 C33_3 1_555 1_555
C34_3 C33_3 1_555 1_555
H29_3 C34_3 1_555 1_555
C35_3 C34_3 1_555 1_555
H30_3 C35_3 1_555 1_555
C36_3 N9_3 1_555 1_555
C37_3 N9_3 1_555 1_555
H31_3 C37_3 1_555 1_555
H32_3 C37_3 1_555 1_555
C38_3 C37_3 1_555 1_555
C39_3 C38_3 1_555 1_555
H33_3 C39_3 1_555 1_555
C42_3 N10_2 1_555 1_555
H36_3 C42_3 1_555 1_555
C43_3 N11_3 1_555 1_555
H37_3 C43_3 1_555 1_555
H38_3 C43_3 1_555 1_555
C57_3 N11_3 1_555 1_555
H49_3 C57_3 1_555 1_555
H50_3 C57_3 1_555 1_555
C58_3 N15_3 1_555 1_555
C59_3 N15_3 1_555 1_555
C60_3 C59_3 1_555 1_555
H51_3 C60_3 1_555 1_555
C61_3 C60_3 1_555 1_555
H52_3 C61_3 1_555 1_555
C62_3 C61_3 1_555 1_555
H53_3 C62_3 1_555 1_555
C63_3 C62_3 1_555 1_555
H54_3 C63_3 1_555 1_555
C64_3 N16_3 1_555 1_555
C65_3 N16_3 1_555 1_555
H55_3 C65_3 1_555 1_555
H56_3 C65_3 1_555 1_555
C66_3 C65_3 1_555 1_555
C67_3 C66_3 1_555 1_555
H57_3 C67_3 1_555 1_555
C68_3 C67_3 1_555 1_555
H58_3 C68_3 1_555 1_555
C69_3 C68_3 1_555 1_555
C70_3 N23_2 1_555 1_555
H60_3 C70_3 1_555 1_555
C71_3 N11_3 1_555 1_555
H61_3 C71_3 1_555 1_555
H62_3 C71_3 1_555 1_555
C72_3 N18_3 1_555 1_555
C73_3 N18_3 1_555 1_555
C74_3 C73_3 1_555 1_555
H63_3 C74_3 1_555 1_555
C75_3 C74_3 1_555 1_555
H64_3 C75_3 1_555 1_555
C76_3 C75_3 1_555 1_555
H65_3 C76_3 1_555 1_555
C77_3 C76_3 1_555 1_555
H66_3 C77_3 1_555 1_555
C78_3 N19_3 1_555 1_555
C79_3 N19_3 1_555 1_555
H67_3 C79_3 1_555 1_555
H68_3 C79_3 1_555 1_555
C80_3 C79_3 1_555 1_555
C81_3 C80_3 1_555 1_555
H69_3 C81_3 1_555 1_555
C82_3 C81_3 1_555 1_555
H70_3 C82_3 1_555 1_555
C83_3 C82_3 1_555 1_555
H71_3 C83_3 1_555 1_555
C84_3 N20 1_555 1_555
H72_3 C84_3 1_555 1_555
Ag4 N20 1_555 1_555
Ag5_2 N10_2 1_555 1_555
C15_3 C16_3 1_555 1_555
C17_3 C22_3 1_555 1_555
C21_3 C22_3 1_555 1_555
C24_3 C28_3 1_555 1_555
C29_3 C30_3 1_555 1_555
C31_3 C36_3 1_555 1_555
C35_3 C36_3 1_555 1_555
C38_3 C42_3 1_555 1_555
C57_3 C58_3 1_555 1_555
C59_3 C64_3 1_555 1_555
C63_3 C64_3 1_555 1_555
C66_3 C70_3 1_555 1_555
C71_3 C72_3 1_555 1_555
C73_3 C78_3 1_555 1_555
C77_3 C78_3 1_555 1_555
C80_3 C84_3 1_555 1_555
Ag6_2 N14_3 1_555 1_555
N3_3 C2_3 1_555 1_555
N13_3 C44_3 1_555 1_555
N14_3 C55_3 1_555 1_555
C4_3 C3_3 1_555 1_555
H3_3 C4_3 1_555 1_555
C5_3 C4_3 1_555 1_555
H4_3 C5_3 1_555 1_555
C6_3 C5_3 1_555 1_555
H5_3 C6_3 1_555 1_555
C7_3 C6_3 1_555 1_555
H6_3 C7_3 1_555 1_555
C8_3 N3_3 1_555 1_555
C9_3 N3_3 1_555 1_555
H7_3 C9_3 1_555 1_555
H8_3 C9_3 1_555 1_555
C10_3 C9_3 1_555 1_555
C11_3 C10_3 1_555 1_555
H9_3 C11_3 1_555 1_555
C12_3 C11_3 1_555 1_555
H12_3 C14_3 1_555 1_555
C46_3 C45_3 1_555 1_555
H39_3 C46_3 1_555 1_555
C47_3 C46_3 1_555 1_555
H40_3 C47_3 1_555 1_555
C48_3 C47_3 1_555 1_555
H41_3 C48_3 1_555 1_555
C49_3 C48_3 1_555 1_555
H42_3 C49_3 1_555 1_555
C50_3 N13_3 1_555 1_555
C51_3 N13_3 1_555 1_555
H43_3 C51_3 1_555 1_555
H44_3 C51_3 1_555 1_555
C52_3 C51_3 1_555 1_555
C53_3 C52_3 1_555 1_555
H45_3 C53_3 1_555 1_555
C54_3 C53_3 1_555 1_555
H46_3 C54_3 1_555 1_555
C55_3 C54_3 1_555 1_555
C56_3 N14_3 1_555 1_555
H48_3 C56_3 1_555 1_555
O1_3 Ag6_2 1_555 1_555
C3_3 C8_3 1_555 1_555
C7_3 C8_3 1_555 1_555
C10_3 C14_3 1_555 1_555
C45_3 C50_3 1_555 1_555
C49_3 C50_3 1_555 1_555
C52_3 C56_3 1_555 1_555
O1_3 H76_3 1_555 1_555
O1_3 H77_3 1_555 1_555
H34_3 C40_3 1_555 1_555
Eu1_4 N1_4 1_555 1_555
Ag5_2 N7_4 1_555 1_555
Ag3_2 N14_4 1_555 1_555
N1_4 C1_4 1_555 1_555
N2_4 Eu1_4 1_555 1_555
N3_4 C2_4 1_555 1_555
N5_4 Eu1_4 1_555 1_555
N6_4 C16_4 1_555 1_555
N7_4 C27_4 1_555 1_555
N8_4 Eu1_4 1_555 1_555
N9_4 C30_4 1_555 1_555
N22_2 C41_4 1_555 1_555
N11_4 Eu1_4 1_555 1_555
N12_4 Eu1_4 1_555 1_555
N13_4 C44_4 1_555 1_555
N14_4 C55_4 1_555 1_555
N15_4 Eu1_4 1_555 1_555
N16_4 C58_4 1_555 1_555
N17_2 C69_4 1_555 1_555
N18_4 Eu1_4 1_555 1_555
N19_4 C72_4 1_555 1_555
N20_2 C83_4 1_555 1_555
C1_4 H1_4 1_555 1_555
H2_4 C1_4 1_555 1_555
C2_4 N2_4 1_555 1_555
C3_4 N2_4 1_555 1_555
C4_4 C3_4 1_555 1_555
H3_4 C4_4 1_555 1_555
C5_4 C4_4 1_555 1_555
H4_4 C5_4 1_555 1_555
C6_4 C5_4 1_555 1_555
H5_4 C6_4 1_555 1_555
C7_4 C6_4 1_555 1_555
H6_4 C7_4 1_555 1_555
C8_4 N3_4 1_555 1_555
C9_4 N3_4 1_555 1_555
H7_4 C9_4 1_555 1_555
H8_4 C9_4 1_555 1_555
C10_4 C9_4 1_555 1_555
C11_4 C10_4 1_555 1_555
H9_4 C11_4 1_555 1_555
C12_4 C11_4 1_555 1_555
H12_4 C14_4 1_555 1_555
C15_4 N1_4 1_555 1_555
H13_4 C15_4 1_555 1_555
H14_4 C15_4 1_555 1_555
C16_4 N5_4 1_555 1_555
C17_4 N5_4 1_555 1_555
C18_4 C17_4 1_555 1_555
H15_4 C18_4 1_555 1_555
C19_4 C18_4 1_555 1_555
H16_4 C19_4 1_555 1_555
C20_4 C19_4 1_555 1_555
H17_4 C20_4 1_555 1_555
C21_4 C20_4 1_555 1_555
H18_4 C21_4 1_555 1_555
C22_4 N6_4 1_555 1_555
C23_4 N6_4 1_555 1_555
H19_4 C23_4 1_555 1_555
H20_4 C23_4 1_555 1_555
C24_4 C23_4 1_555 1_555
C25_4 C24_4 1_555 1_555
H21_4 C25_4 1_555 1_555
C26_4 C25_4 1_555 1_555
C27_4 C26_4 1_555 1_555
C28_4 N7_4 1_555 1_555
H24_4 C28_4 1_555 1_555
C29_4 N1_4 1_555 1_555
H25_4 C29_4 1_555 1_555
H26_4 C29_4 1_555 1_555
C30_4 N8_4 1_555 1_555
C31_4 N8_4 1_555 1_555
C32_4 C31_4 1_555 1_555
H27_4 C32_4 1_555 1_555
C33_4 C32_4 1_555 1_555
H28_4 C33_4 1_555 1_555
C34_4 C33_4 1_555 1_555
H29_4 C34_4 1_555 1_555
C35_4 C34_4 1_555 1_555
H30_4 C35_4 1_555 1_555
C36_4 N9_4 1_555 1_555
C37_4 N9_4 1_555 1_555
H31_4 C37_4 1_555 1_555
H32_4 C37_4 1_555 1_555
C38_4 C37_4 1_555 1_555
C39_4 C38_4 1_555 1_555
H33_4 C39_4 1_555 1_555
C42_4 N22_2 1_555 1_555
H36_4 C42_4 1_555 1_555
C43_4 N11_4 1_555 1_555
H37_4 C43_4 1_555 1_555
H38_4 C43_4 1_555 1_555
C44_4 N12_4 1_555 1_555
C45_4 N12_4 1_555 1_555
C46_4 C45_4 1_555 1_555
H39_4 C46_4 1_555 1_555
C47_4 C46_4 1_555 1_555
H40_4 C47_4 1_555 1_555
C48_4 C47_4 1_555 1_555
H41_4 C48_4 1_555 1_555
C49_4 C48_4 1_555 1_555
H42_4 C49_4 1_555 1_555
C50_4 N13_4 1_555 1_555
C51_4 N13_4 1_555 1_555
H43_4 C51_4 1_555 1_555
H44_4 C51_4 1_555 1_555
C52_4 C51_4 1_555 1_555
C53_4 C52_4 1_555 1_555
H45_4 C53_4 1_555 1_555
C54_4 C53_4 1_555 1_555
H46_4 C54_4 1_555 1_555
C55_4 C54_4 1_555 1_555
C56_4 N14_4 1_555 1_555
H48_4 C56_4 1_555 1_555
C57_4 N11_4 1_555 1_555
H49_4 C57_4 1_555 1_555
H50_4 C57_4 1_555 1_555
C58_4 N15_4 1_555 1_555
C59_4 N15_4 1_555 1_555
C60_4 C59_4 1_555 1_555
H51_4 C60_4 1_555 1_555
C61_4 C60_4 1_555 1_555
H52_4 C61_4 1_555 1_555
C62_4 C61_4 1_555 1_555
H53_4 C62_4 1_555 1_555
C63_4 C62_4 1_555 1_555
H54_4 C63_4 1_555 1_555
C64_4 N16_4 1_555 1_555
C65_4 N16_4 1_555 1_555
H55_4 C65_4 1_555 1_555
H56_4 C65_4 1_555 1_555
C66_4 C65_4 1_555 1_555
C67_4 C66_4 1_555 1_555
H57_4 C67_4 1_555 1_555
C68_4 C67_4 1_555 1_555
H58_4 C68_4 1_555 1_555
C69_4 C68_4 1_555 1_555
C70_4 N17_2 1_555 1_555
H60_4 C70_4 1_555 1_555
C71_4 N11_4 1_555 1_555
H61_4 C71_4 1_555 1_555
H62_4 C71_4 1_555 1_555
C72_4 N18_4 1_555 1_555
C73_4 N18_4 1_555 1_555
C74_4 C73_4 1_555 1_555
H63_4 C74_4 1_555 1_555
C75_4 C74_4 1_555 1_555
H64_4 C75_4 1_555 1_555
C76_4 C75_4 1_555 1_555
C77_4 C76_4 1_555 1_555
H66_4 C77_4 1_555 1_555
C78_4 N19_4 1_555 1_555
C79_4 N19_4 1_555 1_555
H67_4 C79_4 1_555 1_555
H68_4 C79_4 1_555 1_555
C80_4 C79_4 1_555 1_555
C81_4 C80_4 1_555 1_555
H69_4 C81_4 1_555 1_555
C82_4 C81_4 1_555 1_555
C83_4 C82_4 1_555 1_555
C84_4 N20_2 1_555 1_555
H72_4 C84_4 1_555 1_555
O1_4 Ag3_2 1_555 1_555
Ag4_2 N20_2 1_555 1_555
C1_4 C2_4 1_555 1_555
C3_4 C8_4 1_555 1_555
C7_4 C8_4 1_555 1_555
C10_4 C14_4 1_555 1_555
C15_4 C16_4 1_555 1_555
C17_4 C22_4 1_555 1_555
C21_4 C22_4 1_555 1_555
C24_4 C28_4 1_555 1_555
C29_4 C30_4 1_555 1_555
C31_4 C36_4 1_555 1_555
C35_4 C36_4 1_555 1_555
C38_4 C42_4 1_555 1_555
C43_4 C44_4 1_555 1_555
C45_4 C50_4 1_555 1_555
C49_4 C50_4 1_555 1_555
C52_4 C56_4 1_555 1_555
C57_4 C58_4 1_555 1_555
C59_4 C64_4 1_555 1_555
C63_4 C64_4 1_555 1_555
C66_4 C70_4 1_555 1_555
C71_4 C72_4 1_555 1_555
C73_4 C78_4 1_555 1_555
C77_4 C78_4 1_555 1_555
C80_4 C84_4 1_555 1_555
O1_4 H76_4 1_555 1_555
O1_4 H77_4 1_555 1_555
Ag4_2 N4_2 1_555 1_555
N4_2 C13_2 1_555 1_555
H11_2 C13_2 1_555 1_555
H34_4 C40_4 1_555 1_555
C85_2 N21_2 1_555 1_555
C86_2 C85_2 1_555 1_555
H73_2 C86_2 1_555 1_555
H74_2 C86_2 1_555 1_555
H75_2 C86_2 1_555 1_555
C85_3 N21_3 1_555 1_555
C86_3 C85_3 1_555 1_555
H74_3 C86_3 1_555 1_555
N4_3 C13_3 1_555 1_555
H11_3 C13_3 1_555 1_555
N4_4 C13_4 1_555 1_555
H11_4 C13_4 1_555 1_555
C85_4 N21_4 1_555 1_555
C86_4 C85_4 1_555 1_555
H74_4 C86_4 1_555 1_555
Cl1 O2 1_555 1_555
O3 Cl1 1_555 1_555
O4 Cl1 1_555 1_555
O5 Cl1 1_555 1_555
Cl1_2 O2_2 1_555 1_555
O3_2 Cl1_2 1_555 1_555
O4_2 Cl1_2 1_555 1_555
O5_2 Cl1_2 1_555 1_555
Cl1_3 O2_3 1_555 1_555
O3_3 Cl1_3 1_555 1_555
O4_3 Cl1_3 1_555 1_555
O5_3 Cl1_3 1_555 1_555
Cl1_4 O2_4 1_555 1_555
O3_4 Cl1_4 1_555 1_555
O4_4 Cl1_4 1_555 1_555
O5_4 Cl1_4 1_555 1_555
Cl2 O6 1_555 1_555
O7 Cl2 1_555 1_555
O8 Cl2 1_555 1_555
O9 Cl2 1_555 1_555
Cl2_2 O6_2 1_555 1_555
O7_2 Cl2_2 1_555 1_555
O8_2 Cl2_2 1_555 1_555
O9_2 Cl2_2 1_555 1_555
Cl2_3 O6_3 1_555 1_555
O7_3 Cl2_3 1_555 1_555
O8_3 Cl2_3 1_555 1_555
O9_3 Cl2_3 1_555 1_555
Cl2_4 O6_4 1_555 1_555
O7_4 Cl2_4 1_555 1_555
O8_4 Cl2_4 1_555 1_555
O9_4 Cl2_4 1_555 1_555
Cl3 O10 1_555 1_555
O11 Cl3 1_555 1_555
O12 Cl3 1_555 1_555
O13 Cl3 1_555 1_555
Cl3_2 O10_2 1_555 1_555
O11_2 Cl3_2 1_555 1_555
O12_2 Cl3_2 1_555 1_555
O13_2 Cl3_2 1_555 1_555
Cl3_3 O10_3 1_555 1_555
O11_3 Cl3_3 1_555 1_555
O12_3 Cl3_3 1_555 1_555
O13_3 Cl3_3 1_555 1_555
Cl3_4 O10_4 1_555 1_555
O11_4 Cl3_4 1_555 1_555
O12_4 Cl3_4 1_555 1_555
O13_4 Cl3_4 1_555 1_555
Cl4 O14 1_555 1_555
O15 Cl4 1_555 1_555
O16 Cl4 1_555 1_555
O17 Cl4 1_555 1_555
O15_2 Cl4_2 1_555 1_555
O16_2 Cl4_2 1_555 1_555
Cl4_3 O14_3 1_555 1_555
O15_3 Cl4_3 1_555 1_555
O16_3 Cl4_3 1_555 1_555
O17_3 Cl4_3 1_555 1_555
O15_4 Cl4_4 1_555 1_555
O16_4 Cl4_4 1_555 1_555
Cl5 O18 1_555 1_555
O19 Cl5 1_555 1_555
O20 Cl5 1_555 1_555
O21 Cl5 1_555 1_555
Cl5_2 O18_2 1_555 1_555
O19_2 Cl5_2 1_555 1_555
O21_2 Cl5_2 1_555 1_555
Cl5_3 O18_3 1_555 1_555
O19_3 Cl5_3 1_555 1_555
O20_3 Cl5_3 1_555 1_555
O21_3 Cl5_3 1_555 1_555
Cl5_4 O18_4 1_555 1_555
O19_4 Cl5_4 1_555 1_555
O21_4 Cl5_4 1_555 1_555
Cl6 O22 1_555 1_555
O25 Cl6 1_555 1_555
Cl6_2 O22_2 1_555 1_555
O25_2 Cl6_2 1_555 1_555
Cl6_3 O22_3 1_555 1_555
O25_3 Cl6_3 1_555 1_555
Cl6_4 O22_4 1_555 1_555
O25_4 Cl6_4 1_555 1_555

#END
