
###############################################################################
#
# This file contains modified crystal structure data generated from the
# MOF subset of the Cambridge Structural Database (CSD) v543 
# hosted by the Cambridge Crystallographic Data Centre (CCDC).
#
# This work is licensed under the Creative Commons
# Attribution-NonCommercial-ShareAlike 4.0 International License.
# To view a copy of this license, visit
# http://creativecommons.org/licenses/by-nc-sa/4.0/
# or send a letter to
# Creative Commons, PO Box 1866, Mountain View, CA 94042, USA.
#
# CIF created using the CSD Python API on 29 September 2022
# The structure has been converted into the P1 space group
# The structure has a 3D framework
# The original CSD entry GEGDED is in the orthorhombic crystal system
# The framework has been calculated to contain at least 10.0% void space
# The void calculation uses a probe of radius 1.32A, grid spacing 0.4
# H atom positions have been added when not included in the experimental data
# Generated hydrogen atom positions removed from atoms on special positions
#
###############################################################################

data_GEGDED
_chemical_formula_moiety         '(C150 H128 Cu16 O84)n'
_symmetry_cell_setting           triclinic
_symmetry_space_group_name_H-M   'P 1'
_symmetry_Int_Tables_number      1
_space_group_name_Hall           'P 1'
loop_
_symmetry_equiv_pos_site_id
_symmetry_equiv_pos_as_xyz
1 x,y,z
_cell_length_a                   12.2473(5)
_cell_length_b                   25.914
_cell_length_c                   25.9141(9)
_cell_angle_alpha                90
_cell_angle_beta                 90
_cell_angle_gamma                90
_cell_volume                     8224.53
loop_
_atom_site_label
_atom_site_type_symbol
_atom_site_fract_x
_atom_site_fract_y
_atom_site_fract_z
Cu10 Cu 0.07411(4) 0.00601(2) 0.963263(18)
O8 O 0.0019(2) 0.55159(12) 0.07070(10)
O9 O 0.0529(2) 0.69264(12) 0.19693(9)
H9 H 0.0018 0.6244 0.1311
Cu7 Cu 0.07411(4) 0.49399(2) 0.036737(18)
Cu14 Cu 0.14575(5) 0.72377(3) 0.2500
Cu16 Cu 0.14575(5) 0.77623(3) 0.7500
O27 O 0.0019(2) 0.94841(12) 0.92930(10)
O30 O 0.0529(2) 0.80736(12) 0.80307(9)
H19 H 0.0018 0.8756 0.8689
O26 O 0.1246(2) 0.06088(12) 0.00899(10)
O36 O 0.1908(2) 0.02561(16) 0.90225(10)
H28 H 0.15787 0.0516609 0.878852
O1 O 0.1630(2) 0.54371(12) 0.00007(10)
O6 O 0.6744(2) 0.72237(14) 0.06031(11)
O7 O 0.8754(2) 0.56088(12) 0.00899(10)
O10 O 0.9279(3) 0.75513(15) 0.19809(12)
O11 O 0.1908(2) 0.47439(16) 0.09775(10)
C10 C 0.5423(4) 0.7500 0.0000
C11 C 0.6140(3) 0.70473(19) 0.01653(15)
H7 H 0.5685 0.6746 0.0258
C12 C 0.7579(4) 0.6936(2) 0.07741(16)
C13 C 0.8134(3) 0.7136(2) 0.11941(16)
H8 H 0.7888 0.7446 0.1351
C14 C 0.9052(3) 0.6884(2) 0.13875(15)
C15 C 0.9400(3) 0.64190(19) 0.11755(15)
C16 C 0.8815(3) 0.62139(19) 0.07543(15)
C17 C 0.7914(3) 0.6470(2) 0.05558(16)
H10 H 0.7525 0.6328 0.0272
C18 C 0.9657(4) 0.7140(2) 0.18098(15)
C19 C 0.9220(4) 0.57323(18) 0.05025(16)
Cu9 Cu 0.92589(4) 0.99399(2) 0.036737(18)
Cu11 Cu 0.99536(6) 0.79705(3) 0.2500
O15 O 0.0371(2) 0.94782(12) 0.06270(10)
O18 O 0.0830(3) 0.82680(14) 0.19778(11)
O20 O 0.2167(2) 0.76546(13) 0.19596(10)
O22 O 0.4151(3) 0.81328(13) 0.02930(10)
C20 C 0.1275(4) 0.93678(18) 0.04064(16)
C21 C 0.1914(4) 0.8936(2) 0.06434(15)
C22 C 0.1584(4) 0.8716(2) 0.11101(16)
H11 H 0.0977 0.8856 0.1290
C23 C 0.2125(4) 0.83023(19) 0.13089(15)
C24 C 0.3006(3) 0.8093(2) 0.10532(16)
H12 H 0.3381 0.7803 0.1191
C25 C 0.3338(3) 0.83146(19) 0.05876(15)
C26 C 0.2788(4) 0.8729(2) 0.03974(16)
H13 H 0.3023 0.8878 0.0082
C27 C 0.1679(4) 0.8042(3) 0.17974(15)
C28 C 0.4691(3) 0.7680(2) 0.04503(15)
H14 H 0.5142 0.7750 0.0760
H15 H 0.4153 0.7409 0.0537
H16 H 0.6641 0.8053 0.0117
H23 H 0.209199 0.505918 0.117718
H24 H 0.15787 0.448339 0.121148
O2 O 0.0371(2) 0.55218(12) 0.93730(10)
O3 O 0.0830(3) 0.67320(14) 0.80222(11)
O4 O 0.2167(2) 0.73454(13) 0.80404(10)
O5 O 0.4151(3) 0.68672(13) 0.97070(10)
O13 O 0.2627(4) 0.8378(2) 0.7500
C1 C 0.1275(4) 0.56322(18) 0.95936(16)
C2 C 0.1914(4) 0.6064(2) 0.93566(15)
C3 C 0.1584(4) 0.6284(2) 0.88899(16)
H1 H 0.0977 0.6144 0.8710
C4 C 0.2125(4) 0.66977(19) 0.86911(15)
C5 C 0.3006(3) 0.6907(2) 0.89468(16)
H2 H 0.3381 0.7197 0.8809
C6 C 0.3338(3) 0.66854(19) 0.94124(15)
C7 C 0.2788(4) 0.6271(2) 0.96026(16)
H3 H 0.3023 0.6122 0.9918
C8 C 0.1679(4) 0.6958(3) 0.82026(15)
C9 C 0.4691(3) 0.7320(2) 0.95497(15)
H4 H 0.5142 0.7250 0.9240
H5 H 0.4153 0.7591 0.9463
C10_2 C 0.5423(4) 0.7500 1.0000
H6 H 0.6641 0.6947 0.9883
Cu6 Cu 0.92589(4) 0.50601(2) 0.963263(18)
Cu13 Cu 0.99536(6) 0.70295(3) 0.7500
O14 O 0.1630(2) 0.95629(12) 0.99993(10)
O19 O 0.0830(3) 0.67320(14) 0.69778(11)
O21 O 0.2167(2) 0.73454(13) 0.69596(10)
O23 O 0.6744(2) 0.77763(14) 0.93969(11)
O24 O 0.8754(2) 0.93912(12) 0.99101(10)
O25 O 0.1246(2) 0.43912(12) 0.99101(10)
O32 O 0.0529(2) 0.80736(12) 0.69693(9)
O33 O 0.9279(3) 0.74487(15) 0.80191(12)
C29 C 0.6140(3) 0.79527(19) 0.98347(15)
H17 H 0.5685 0.8254 0.9742
C30 C 0.7579(4) 0.8064(2) 0.92259(16)
C31 C 0.8134(3) 0.7864(2) 0.88059(16)
H18 H 0.7888 0.7554 0.8649
C32 C 0.9052(3) 0.8116(2) 0.86125(15)
C33 C 0.9400(3) 0.85810(19) 0.88245(15)
C34 C 0.8815(3) 0.87861(19) 0.92457(15)
C35 C 0.7914(3) 0.8530(2) 0.94442(16)
H20 H 0.7525 0.8672 0.9728
C36 C 0.9657(4) 0.7860(2) 0.81902(15)
C37 C 0.9220(4) 0.92677(18) 0.94975(16)
H27 H 0.209199 0.994082 0.882282
O17 O 0.9629(2) 0.05218(12) 0.93730(10)
O16 O 0.9629(2) 0.44782(12) 0.06270(10)
O12 O 0.8708(4) 0.6445(2) 0.7500
O35 O 0.9279(3) 0.74487(15) 0.69809(12)
Cu2 Cu 0.00464(6) 0.29705(3) 0.2500
O12_2 O 0.1292(4) 0.3555(2) 0.2500
Cu5 Cu 0.07411(4) 0.49399(2) 0.463263(18)
Cu8 Cu 0.07411(4) 0.00601(2) 0.536737(18)
Cu12 Cu 0.00464(6) 0.20295(3) 0.7500
O16_2 O 0.0371(2) 0.55218(12) 0.56270(10)
O34 O 0.0721(3) 0.25513(15) 0.30191(12)
O35_2 O 0.0721(3) 0.25513(15) 0.19809(12)
O17_2 O 0.0371(2) 0.94782(12) 0.43730(10)
Cu1 Cu 0.92589(4) 0.50601(2) 0.536737(18)
Cu3 Cu 0.85425(5) 0.22377(3) 0.2500
O1_2 O 0.8370(2) 0.45629(12) 0.50007(10)
O2_2 O 0.9629(2) 0.44782(12) 0.43730(10)
O3_2 O 0.9170(3) 0.32680(14) 0.30222(11)
O4_2 O 0.7833(2) 0.26546(13) 0.30404(10)
O5_2 O 0.5849(3) 0.31328(13) 0.47070(10)
O6_2 O 0.3256(2) 0.27763(14) 0.56031(11)
O7_2 O 0.1246(2) 0.43912(12) 0.50899(10)
O10_2 O 0.0721(3) 0.24487(15) 0.69809(12)
O11_2 O 0.8092(2) 0.52561(16) 0.59775(10)
O13_2 O 0.7373(4) 0.1622(2) 0.2500
C1_2 C 0.8725(4) 0.43678(18) 0.45936(16)
C2_2 C 0.8086(4) 0.3936(2) 0.43566(15)
C3_2 C 0.8416(4) 0.3716(2) 0.38899(16)
H1_2 H 0.9023 0.3856 0.3710
C4_2 C 0.7875(4) 0.33023(19) 0.36911(15)
C5_2 C 0.6994(3) 0.3093(2) 0.39468(16)
H2_2 H 0.6619 0.2803 0.3809
C6_2 C 0.6662(3) 0.33146(19) 0.44124(15)
C7_2 C 0.7212(4) 0.3729(2) 0.46026(16)
H3_2 H 0.6977 0.3878 0.4918
C8_2 C 0.8321(4) 0.3042(3) 0.32026(15)
C9_2 C 0.5309(3) 0.2680(2) 0.45497(15)
H4_2 H 0.4858 0.2750 0.4240
H5_2 H 0.5847 0.2409 0.4463
C10_3 C 0.4577(4) 0.2500 0.5000
C11_2 C 0.3860(3) 0.29527(19) 0.51653(15)
H6_2 H 0.3359 0.3053 0.4883
H7_2 H 0.4315 0.3254 0.5258
C12_2 C 0.2421(4) 0.3064(2) 0.57741(16)
C13_2 C 0.1866(3) 0.2864(2) 0.61941(16)
H8_2 H 0.2112 0.2554 0.6351
C14_2 C 0.0948(3) 0.3116(2) 0.63875(15)
C15_2 C 0.0600(3) 0.35810(19) 0.61755(15)
C16_2 C 0.1185(3) 0.37861(19) 0.57543(15)
C17_2 C 0.2086(3) 0.3530(2) 0.55558(16)
H10_2 H 0.2475 0.3672 0.5272
C18_2 C 0.0343(4) 0.2860(2) 0.68098(15)
C19_2 C 0.0780(4) 0.42677(18) 0.55025(16)
Cu15 Cu 0.85425(5) 0.27623(3) 0.7500
O14_2 O 0.8370(2) 0.04371(12) 0.49993(10)
O15_2 O 0.9629(2) 0.05218(12) 0.56270(10)
O18_2 O 0.9170(3) 0.17320(14) 0.69778(11)
O19_2 O 0.9170(3) 0.32680(14) 0.19778(11)
O20_2 O 0.7833(2) 0.23454(13) 0.69596(10)
O21_2 O 0.7833(2) 0.26546(13) 0.19596(10)
O22_2 O 0.5849(3) 0.18672(13) 0.52930(10)
O23_2 O 0.3256(2) 0.22237(14) 0.43969(11)
O24_2 O 0.1246(2) 0.06088(12) 0.49101(10)
O25_2 O 0.8754(2) 0.56088(12) 0.49101(10)
O28 O 0.9981(2) 0.44841(12) 0.57070(10)
O29 O 0.9981(2) 0.05159(12) 0.42930(10)
O31 O 0.9471(2) 0.19264(12) 0.30307(9)
O32_2 O 0.9471(2) 0.19264(12) 0.19693(9)
C20_2 C 0.8725(4) 0.06322(18) 0.54064(16)
C21_2 C 0.8086(4) 0.1064(2) 0.56434(15)
C22_2 C 0.8416(4) 0.1284(2) 0.61101(16)
H11_2 H 0.9023 0.1144 0.6290
C23_2 C 0.7875(4) 0.16977(19) 0.63089(15)
C24_2 C 0.6994(3) 0.1907(2) 0.60532(16)
H12_2 H 0.6619 0.2197 0.6191
C25_2 C 0.6662(3) 0.16854(19) 0.55876(15)
C26_2 C 0.7212(4) 0.1271(2) 0.53974(16)
H13_2 H 0.6977 0.1122 0.5082
C27_2 C 0.8321(4) 0.1958(3) 0.67974(15)
C28_2 C 0.5309(3) 0.2320(2) 0.54503(15)
H14_2 H 0.4858 0.2250 0.5760
H15_2 H 0.5847 0.2591 0.5537
C29_2 C 0.3860(3) 0.20473(19) 0.48347(15)
H16_2 H 0.3359 0.1947 0.5117
H17_2 H 0.4315 0.1746 0.4742
C30_2 C 0.2421(4) 0.1936(2) 0.42259(16)
C31_2 C 0.1866(3) 0.2136(2) 0.38059(16)
H18_2 H 0.2112 0.2446 0.3649
C32_2 C 0.0948(3) 0.1884(2) 0.36125(15)
C33_2 C 0.0600(3) 0.14190(19) 0.38245(15)
C34_2 C 0.1185(3) 0.12139(19) 0.42457(15)
C35_2 C 0.2086(3) 0.1470(2) 0.44442(16)
H20_2 H 0.2475 0.1328 0.4728
C36_2 C 0.0343(4) 0.2140(2) 0.31902(15)
C37_2 C 0.0780(4) 0.07323(18) 0.44975(16)
H23_2 H 0.790801 0.494082 0.617718
H24_2 H 0.84213 0.551661 0.621148
H27_2 H 0.790801 0.00591805 0.382282
Cu4 Cu 0.92589(4) 0.99399(2) 0.463263(18)
O26_2 O 0.8754(2) 0.93912(12) 0.50899(10)
O36_2 O 0.8092(2) 0.97439(16) 0.40225(10)
H28_2 H 0.84213 0.948339 0.378852
O9_2 O 0.9471(2) 0.30736(12) 0.69693(9)
H9_2 H 0.9982 0.3756 0.6311
H19_2 H 0.9982 0.1244 0.3689
O13_3 O 0.2627(4) 0.6622(2) 0.2500
O19_3 O 0.0830(3) 0.82680(14) 0.30222(11)
O21_3 O 0.2167(2) 0.76546(13) 0.30404(10)
O32_3 O 0.0529(2) 0.69264(12) 0.30307(9)
O12_3 O 0.8708(4) 0.8555(2) 0.2500
O35_3 O 0.9279(3) 0.75513(15) 0.30191(12)
O12_4 O 0.1292(4) 0.1445(2) 0.7500
O35_4 O 0.0721(3) 0.24487(15) 0.80191(12)
O13_4 O 0.7373(4) 0.3378(2) 0.7500
O19_4 O 0.9170(3) 0.17320(14) 0.80222(11)
O21_4 O 0.7833(2) 0.23454(13) 0.80404(10)
O32_4 O 0.9471(2) 0.30736(12) 0.80307(9)
O5_3 O 0.5849(3) 0.31328(13) 0.02930(10)
C1_3 C 0.8725(4) 0.43678(18) 0.04064(16)
C2_3 C 0.8086(4) 0.3936(2) 0.06434(15)
C3_3 C 0.8416(4) 0.3716(2) 0.11101(16)
H1_3 H 0.9023 0.3856 0.1290
C4_3 C 0.7875(4) 0.33023(19) 0.13089(15)
C5_3 C 0.6994(3) 0.3093(2) 0.10532(16)
H2_3 H 0.6619 0.2803 0.1191
C6_3 C 0.6662(3) 0.33146(19) 0.05876(15)
C7_3 C 0.7212(4) 0.3729(2) 0.03974(16)
H3_3 H 0.6977 0.3878 0.0082
C8_3 C 0.8321(4) 0.3042(3) 0.17974(15)
C9_3 C 0.5309(3) 0.2680(2) 0.04503(15)
H4_3 H 0.4858 0.2750 0.0760
H5_3 H 0.5847 0.2409 0.0537
C10_4 C 0.4577(4) 0.2500 0.0000
H6_3 H 0.3359 0.3053 0.0117
O14_3 O 0.8370(2) 0.04371(12) 0.00007(10)
O23_3 O 0.3256(2) 0.22237(14) 0.06031(11)
O29_2 O 0.9981(2) 0.05159(12) 0.07070(10)
C29_3 C 0.3860(3) 0.20473(19) 0.01653(15)
H17_3 H 0.4315 0.1746 0.0258
C30_3 C 0.2421(4) 0.1936(2) 0.07741(16)
C31_3 C 0.1866(3) 0.2136(2) 0.11941(16)
H18_3 H 0.2112 0.2446 0.1351
C32_3 C 0.0948(3) 0.1884(2) 0.13875(15)
C33_3 C 0.0600(3) 0.14190(19) 0.11755(15)
C34_3 C 0.1185(3) 0.12139(19) 0.07543(15)
C35_3 C 0.2086(3) 0.1470(2) 0.05558(16)
H20_3 H 0.2475 0.1328 0.0272
C36_3 C 0.0343(4) 0.2140(2) 0.18098(15)
C37_3 C 0.0780(4) 0.07323(18) 0.05025(16)
H27_3 H 0.790801 0.00591805 0.117718
O1_3 O 0.8370(2) 0.45629(12) 0.99993(10)
O6_3 O 0.3256(2) 0.27763(14) 0.93969(11)
O11_3 O 0.8092(2) 0.52561(16) 0.90225(10)
C10_5 C 0.4577(4) 0.2500 1.0000
C11_3 C 0.3860(3) 0.29527(19) 0.98347(15)
H7_3 H 0.4315 0.3254 0.9742
C12_3 C 0.2421(4) 0.3064(2) 0.92259(16)
C13_3 C 0.1866(3) 0.2864(2) 0.88059(16)
H8_3 H 0.2112 0.2554 0.8649
C14_3 C 0.0948(3) 0.3116(2) 0.86125(15)
C15_3 C 0.0600(3) 0.35810(19) 0.88245(15)
C16_3 C 0.1185(3) 0.37861(19) 0.92457(15)
C17_3 C 0.2086(3) 0.3530(2) 0.94442(16)
H10_3 H 0.2475 0.3672 0.9728
C18_3 C 0.0343(4) 0.2860(2) 0.81902(15)
C19_3 C 0.0780(4) 0.42677(18) 0.94975(16)
O22_3 O 0.5849(3) 0.18672(13) 0.97070(10)
O28_2 O 0.9981(2) 0.44841(12) 0.92930(10)
C20_3 C 0.8725(4) 0.06322(18) 0.95936(16)
C21_3 C 0.8086(4) 0.1064(2) 0.93566(15)
C22_3 C 0.8416(4) 0.1284(2) 0.88899(16)
H11_3 H 0.9023 0.1144 0.8710
C23_3 C 0.7875(4) 0.16977(19) 0.86911(15)
C24_3 C 0.6994(3) 0.1907(2) 0.89468(16)
H12_3 H 0.6619 0.2197 0.8809
C25_3 C 0.6662(3) 0.16854(19) 0.94124(15)
C26_3 C 0.7212(4) 0.1271(2) 0.96026(16)
H13_3 H 0.6977 0.1122 0.9918
C27_3 C 0.8321(4) 0.1958(3) 0.82026(15)
C28_3 C 0.5309(3) 0.2320(2) 0.95497(15)
H14_3 H 0.4858 0.2250 0.9240
H15_3 H 0.5847 0.2591 0.9463
H16_3 H 0.3359 0.1947 0.9883
H23_3 H 0.790801 0.494082 0.882282
H24_3 H 0.84213 0.551661 0.878852
O36_3 O 0.8092(2) 0.97439(16) 0.09775(10)
H28_3 H 0.84213 0.948339 0.121148
H19_3 H 0.9982 0.1244 0.1311
H9_3 H 0.9982 0.3756 0.8689
O8_2 O 0.0019(2) 0.55159(12) 0.42930(10)
H9_4 H 0.0018 0.6244 0.3689
O27_2 O 0.0019(2) 0.94841(12) 0.57070(10)
H19_4 H 0.0018 0.8756 0.6311
O36_4 O 0.1908(2) 0.02561(16) 0.59775(10)
H28_4 H 0.15787 0.0516609 0.621148
O1_4 O 0.1630(2) 0.54371(12) 0.49993(10)
O5_4 O 0.4151(3) 0.68672(13) 0.52930(10)
O6_4 O 0.6744(2) 0.72237(14) 0.43969(11)
O11_4 O 0.1908(2) 0.47439(16) 0.40225(10)
C1_4 C 0.1275(4) 0.56322(18) 0.54064(16)
C2_4 C 0.1914(4) 0.6064(2) 0.56434(15)
C3_4 C 0.1584(4) 0.6284(2) 0.61101(16)
H1_4 H 0.0977 0.6144 0.6290
C4_4 C 0.2125(4) 0.66977(19) 0.63089(15)
C5_4 C 0.3006(3) 0.6907(2) 0.60532(16)
H2_4 H 0.3381 0.7197 0.6191
C6_4 C 0.3338(3) 0.66854(19) 0.55876(15)
C7_4 C 0.2788(4) 0.6271(2) 0.53974(16)
H3_4 H 0.3023 0.6122 0.5082
C8_4 C 0.1679(4) 0.6958(3) 0.67974(15)
C9_4 C 0.4691(3) 0.7320(2) 0.54503(15)
H4_4 H 0.5142 0.7250 0.5760
H5_4 H 0.4153 0.7591 0.5537
C10_6 C 0.5423(4) 0.7500 0.5000
C11_4 C 0.6140(3) 0.70473(19) 0.48347(15)
H6_4 H 0.6641 0.6947 0.5117
H7_4 H 0.5685 0.6746 0.4742
C12_4 C 0.7579(4) 0.6936(2) 0.42259(16)
C13_4 C 0.8134(3) 0.7136(2) 0.38059(16)
H8_4 H 0.7888 0.7446 0.3649
C14_4 C 0.9052(3) 0.6884(2) 0.36125(15)
C15_4 C 0.9400(3) 0.64190(19) 0.38245(15)
C16_4 C 0.8815(3) 0.62139(19) 0.42457(15)
C17_4 C 0.7914(3) 0.6470(2) 0.44442(16)
H10_4 H 0.7525 0.6328 0.4728
C18_4 C 0.9657(4) 0.7140(2) 0.31902(15)
C19_4 C 0.9220(4) 0.57323(18) 0.44975(16)
O14_4 O 0.1630(2) 0.95629(12) 0.50007(10)
O22_4 O 0.4151(3) 0.81328(13) 0.47070(10)
O23_4 O 0.6744(2) 0.77763(14) 0.56031(11)
C20_4 C 0.1275(4) 0.93678(18) 0.45936(16)
C21_4 C 0.1914(4) 0.8936(2) 0.43566(15)
C22_4 C 0.1584(4) 0.8716(2) 0.38899(16)
H11_4 H 0.0977 0.8856 0.3710
C23_4 C 0.2125(4) 0.83023(19) 0.36911(15)
C24_4 C 0.3006(3) 0.8093(2) 0.39468(16)
H12_4 H 0.3381 0.7803 0.3809
C25_4 C 0.3338(3) 0.83146(19) 0.44124(15)
C26_4 C 0.2788(4) 0.8729(2) 0.46026(16)
H13_4 H 0.3023 0.8878 0.4918
C27_4 C 0.1679(4) 0.8042(3) 0.32026(15)
C28_4 C 0.4691(3) 0.7680(2) 0.45497(15)
H14_4 H 0.5142 0.7750 0.4240
H15_4 H 0.4153 0.7409 0.4463
C29_4 C 0.6140(3) 0.79527(19) 0.51653(15)
H16_4 H 0.6641 0.8053 0.4883
H17_4 H 0.5685 0.8254 0.5258
C30_4 C 0.7579(4) 0.8064(2) 0.57741(16)
C31_4 C 0.8134(3) 0.7864(2) 0.61941(16)
H18_4 H 0.7888 0.7554 0.6351
C32_4 C 0.9052(3) 0.8116(2) 0.63875(15)
C33_4 C 0.9400(3) 0.85810(19) 0.61755(15)
C34_4 C 0.8815(3) 0.87861(19) 0.57543(15)
C35_4 C 0.7914(3) 0.8530(2) 0.55558(16)
H20_4 H 0.7525 0.8672 0.5272
C36_4 C 0.9657(4) 0.7860(2) 0.68098(15)
C37_4 C 0.9220(4) 0.92677(18) 0.55025(16)
H23_4 H 0.209199 0.505918 0.382282
H24_4 H 0.15787 0.448339 0.378852
H27_4 H 0.209199 0.994082 0.617718
loop_
_geom_bond_atom_site_label_1
_geom_bond_atom_site_label_2
_geom_bond_site_symmetry_1
_geom_bond_site_symmetry_2
Cu7 O8 1_555 1_555
Cu14 O9 1_555 1_555
Cu16 O30 1_555 1_555
O36 Cu10 1_555 1_555
O36 H28 1_555 1_555
Cu7 O1 1_555 1_555
O6 C11 1_555 1_555
O7 C19 1_555 1_555
O10 C18 1_555 1_555
O11 Cu7 1_555 1_555
C11 C10 1_555 1_555
H7 C11 1_555 1_555
C12 O6 1_555 1_555
C13 C12 1_555 1_555
H8 C13 1_555 1_555
C14 C13 1_555 1_555
C15 C14 1_555 1_555
C16 C15 1_555 1_555
C17 C12 1_555 1_555
H10 C17 1_555 1_555
C18 C14 1_555 1_555
C19 C16 1_555 1_555
Cu11 O10 1_555 1_555
Cu14 O20 1_555 1_555
O15 C20 1_555 1_555
O18 C27 1_555 1_555
O20 C27 1_555 1_555
O22 C25 1_555 1_555
C20 C21 1_555 1_555
C21 C22 1_555 1_555
C22 H11 1_555 1_555
C23 C22 1_555 1_555
C24 C23 1_555 1_555
H12 C24 1_555 1_555
C25 C24 1_555 1_555
C26 C21 1_555 1_555
H13 C26 1_555 1_555
C27 C23 1_555 1_555
C28 C10 1_555 1_555
H14 C28 1_555 1_555
H15 C28 1_555 1_555
C16 C17 1_555 1_555
O22 C28 1_555 1_555
C25 C26 1_555 1_555
O11 H23 1_555 1_555
O11 H24 1_555 1_555
Cu16 O4 1_555 1_555
O2 C1 1_555 1_555
O3 C8 1_555 1_555
O4 C8 1_555 1_555
O5 C6 1_555 1_555
O13 Cu16 1_555 1_555
C1 C2 1_555 1_555
C2 C3 1_555 1_555
C3 H1 1_555 1_555
C4 C3 1_555 1_555
C5 C4 1_555 1_555
H2 C5 1_555 1_555
C6 C5 1_555 1_555
C7 C2 1_555 1_555
H3 C7 1_555 1_555
C8 C4 1_555 1_555
C9 O5 1_555 1_555
H4 C9 1_555 1_555
H5 C9 1_555 1_555
C10_2 C9 1_555 1_555
Cu13 O33 1_555 1_555
O21 Cu16 1_555 1_555
O23 C29 1_555 1_555
O24 C37 1_555 1_555
O32 Cu16 1_555 1_555
O33 C36 1_555 1_555
C29 C10_2 1_555 1_555
H17 C29 1_555 1_555
C30 O23 1_555 1_555
C31 C30 1_555 1_555
H18 C31 1_555 1_555
C32 C31 1_555 1_555
C33 C32 1_555 1_555
C34 C33 1_555 1_555
C35 C30 1_555 1_555
H20 C35 1_555 1_555
C36 C32 1_555 1_555
C37 C34 1_555 1_555
C6 C7 1_555 1_555
C34 C35 1_555 1_555
O12 Cu13 1_555 1_555
O35 Cu13 1_555 1_555
O12_2 Cu2 1_555 1_555
O34 Cu2 1_555 1_555
O35_2 Cu2 1_555 1_555
Cu1 O1_2 1_555 1_555
Cu3 O4_2 1_555 1_555
O1_2 C1_2 1_555 1_555
O2_2 C1_2 1_555 1_555
O3_2 C8_2 1_555 1_555
O4_2 C8_2 1_555 1_555
O5_2 C6_2 1_555 1_555
O6_2 C11_2 1_555 1_555
O7_2 C19_2 1_555 1_555
O10_2 C18_2 1_555 1_555
O11_2 Cu1 1_555 1_555
O13_2 Cu3 1_555 1_555
C1_2 C2_2 1_555 1_555
C2_2 C3_2 1_555 1_555
C3_2 H1_2 1_555 1_555
C4_2 C3_2 1_555 1_555
C5_2 C4_2 1_555 1_555
H2_2 C5_2 1_555 1_555
C6_2 C5_2 1_555 1_555
C7_2 C2_2 1_555 1_555
H3_2 C7_2 1_555 1_555
C8_2 C4_2 1_555 1_555
C9_2 O5_2 1_555 1_555
H4_2 C9_2 1_555 1_555
H5_2 C9_2 1_555 1_555
C10_3 C9_2 1_555 1_555
C11_2 C10_3 1_555 1_555
H6_2 C11_2 1_555 1_555
H7_2 C11_2 1_555 1_555
C12_2 O6_2 1_555 1_555
C13_2 C12_2 1_555 1_555
H8_2 C13_2 1_555 1_555
C14_2 C13_2 1_555 1_555
C15_2 C14_2 1_555 1_555
C16_2 C15_2 1_555 1_555
C17_2 C12_2 1_555 1_555
H10_2 C17_2 1_555 1_555
C18_2 C14_2 1_555 1_555
C19_2 C16_2 1_555 1_555
Cu5 O7_2 1_555 1_555
Cu8 O24_2 1_555 1_555
Cu12 O10_2 1_555 1_555
Cu15 O20_2 1_555 1_555
O14_2 C20_2 1_555 1_555
O15_2 C20_2 1_555 1_555
O18_2 C27_2 1_555 1_555
O20_2 C27_2 1_555 1_555
O21_2 Cu3 1_555 1_555
O22_2 C25_2 1_555 1_555
O23_2 C29_2 1_555 1_555
O24_2 C37_2 1_555 1_555
O25_2 Cu1 1_555 1_555
O28 Cu1 1_555 1_555
O31 Cu3 1_555 1_555
O32_2 Cu3 1_555 1_555
O34 C36_2 1_555 1_555
C20_2 C21_2 1_555 1_555
C21_2 C22_2 1_555 1_555
C22_2 H11_2 1_555 1_555
C23_2 C22_2 1_555 1_555
C24_2 C23_2 1_555 1_555
H12_2 C24_2 1_555 1_555
C25_2 C24_2 1_555 1_555
C26_2 C21_2 1_555 1_555
H13_2 C26_2 1_555 1_555
C27_2 C23_2 1_555 1_555
C28_2 C10_3 1_555 1_555
H14_2 C28_2 1_555 1_555
H15_2 C28_2 1_555 1_555
C29_2 C10_3 1_555 1_555
H16_2 C29_2 1_555 1_555
H17_2 C29_2 1_555 1_555
C30_2 O23_2 1_555 1_555
C31_2 C30_2 1_555 1_555
H18_2 C31_2 1_555 1_555
C32_2 C31_2 1_555 1_555
C33_2 C32_2 1_555 1_555
C34_2 C33_2 1_555 1_555
C35_2 C30_2 1_555 1_555
H20_2 C35_2 1_555 1_555
C36_2 C32_2 1_555 1_555
C37_2 C34_2 1_555 1_555
C6_2 C7_2 1_555 1_555
C16_2 C17_2 1_555 1_555
O22_2 C28_2 1_555 1_555
C25_2 C26_2 1_555 1_555
C34_2 C35_2 1_555 1_555
O11_2 H23_2 1_555 1_555
O11_2 H24_2 1_555 1_555
O26_2 Cu4 1_555 1_555
O36_2 Cu4 1_555 1_555
O36_2 H28_2 1_555 1_555
Cu15 O9_2 1_555 1_555
O13_3 Cu14 1_555 1_555
O21_3 Cu14 1_555 1_555
O32_3 Cu14 1_555 1_555
O12_3 Cu11 1_555 1_555
O35_3 Cu11 1_555 1_555
O12_4 Cu12 1_555 1_555
O35_4 Cu12 1_555 1_555
O13_4 Cu15 1_555 1_555
O21_4 Cu15 1_555 1_555
O32_4 Cu15 1_555 1_555
O16 C1_3 1_555 1_555
O19_2 C8_3 1_555 1_555
O21_2 C8_3 1_555 1_555
O5_3 C6_3 1_555 1_555
C1_3 C2_3 1_555 1_555
C2_3 C3_3 1_555 1_555
C3_3 H1_3 1_555 1_555
C4_3 C3_3 1_555 1_555
C5_3 C4_3 1_555 1_555
H2_3 C5_3 1_555 1_555
C6_3 C5_3 1_555 1_555
C7_3 C2_3 1_555 1_555
H3_3 C7_3 1_555 1_555
C8_3 C4_3 1_555 1_555
C9_3 O5_3 1_555 1_555
H4_3 C9_3 1_555 1_555
H5_3 C9_3 1_555 1_555
C10_4 C9_3 1_555 1_555
O23_3 C29_3 1_555 1_555
O26 C37_3 1_555 1_555
O35_2 C36_3 1_555 1_555
C29_3 C10_4 1_555 1_555
H17_3 C29_3 1_555 1_555
C30_3 O23_3 1_555 1_555
C31_3 C30_3 1_555 1_555
H18_3 C31_3 1_555 1_555
C32_3 C31_3 1_555 1_555
C33_3 C32_3 1_555 1_555
C34_3 C33_3 1_555 1_555
C35_3 C30_3 1_555 1_555
H20_3 C35_3 1_555 1_555
C36_3 C32_3 1_555 1_555
C37_3 C34_3 1_555 1_555
C6_3 C7_3 1_555 1_555
C34_3 C35_3 1_555 1_555
Cu6 O1_3 1_555 1_555
O6_3 C11_3 1_555 1_555
O25 C19_3 1_555 1_555
O35_4 C18_3 1_555 1_555
O11_3 Cu6 1_555 1_555
C11_3 C10_5 1_555 1_555
H7_3 C11_3 1_555 1_555
C12_3 O6_3 1_555 1_555
C13_3 C12_3 1_555 1_555
H8_3 C13_3 1_555 1_555
C14_3 C13_3 1_555 1_555
C15_3 C14_3 1_555 1_555
C16_3 C15_3 1_555 1_555
C17_3 C12_3 1_555 1_555
H10_3 C17_3 1_555 1_555
C18_3 C14_3 1_555 1_555
C19_3 C16_3 1_555 1_555
O17 C20_3 1_555 1_555
O19_4 C27_3 1_555 1_555
O21_4 C27_3 1_555 1_555
O22_3 C25_3 1_555 1_555
O28_2 Cu6 1_555 1_555
C20_3 C21_3 1_555 1_555
C21_3 C22_3 1_555 1_555
C22_3 H11_3 1_555 1_555
C23_3 C22_3 1_555 1_555
C24_3 C23_3 1_555 1_555
H12_3 C24_3 1_555 1_555
C25_3 C24_3 1_555 1_555
C26_3 C21_3 1_555 1_555
H13_3 C26_3 1_555 1_555
C27_3 C23_3 1_555 1_555
C28_3 C10_5 1_555 1_555
H14_3 C28_3 1_555 1_555
H15_3 C28_3 1_555 1_555
C16_3 C17_3 1_555 1_555
O22_3 C28_3 1_555 1_555
C25_3 C26_3 1_555 1_555
O11_3 H23_3 1_555 1_555
O11_3 H24_3 1_555 1_555
O36_3 Cu9 1_555 1_555
O36_3 H28_3 1_555 1_555
Cu5 O8_2 1_555 1_555
O36_4 Cu8 1_555 1_555
O36_4 H28_4 1_555 1_555
Cu5 O1_4 1_555 1_555
O1_4 C1_4 1_555 1_555
O16_2 C1_4 1_555 1_555
O19 C8_4 1_555 1_555
O21 C8_4 1_555 1_555
O5_4 C6_4 1_555 1_555
O6_4 C11_4 1_555 1_555
O25_2 C19_4 1_555 1_555
O35_3 C18_4 1_555 1_555
O11_4 Cu5 1_555 1_555
C1_4 C2_4 1_555 1_555
C2_4 C3_4 1_555 1_555
C3_4 H1_4 1_555 1_555
C4_4 C3_4 1_555 1_555
C5_4 C4_4 1_555 1_555
H2_4 C5_4 1_555 1_555
C6_4 C5_4 1_555 1_555
C7_4 C2_4 1_555 1_555
H3_4 C7_4 1_555 1_555
C8_4 C4_4 1_555 1_555
C9_4 O5_4 1_555 1_555
H4_4 C9_4 1_555 1_555
H5_4 C9_4 1_555 1_555
C10_6 C9_4 1_555 1_555
C11_4 C10_6 1_555 1_555
H6_4 C11_4 1_555 1_555
H7_4 C11_4 1_555 1_555
C12_4 O6_4 1_555 1_555
C13_4 C12_4 1_555 1_555
H8_4 C13_4 1_555 1_555
C14_4 C13_4 1_555 1_555
C15_4 C14_4 1_555 1_555
C16_4 C15_4 1_555 1_555
C17_4 C12_4 1_555 1_555
H10_4 C17_4 1_555 1_555
C18_4 C14_4 1_555 1_555
C19_4 C16_4 1_555 1_555
O14_4 C20_4 1_555 1_555
O17_2 C20_4 1_555 1_555
O19_3 C27_4 1_555 1_555
O21_3 C27_4 1_555 1_555
O22_4 C25_4 1_555 1_555
O23_4 C29_4 1_555 1_555
O26_2 C37_4 1_555 1_555
O35 C36_4 1_555 1_555
C20_4 C21_4 1_555 1_555
C21_4 C22_4 1_555 1_555
C22_4 H11_4 1_555 1_555
C23_4 C22_4 1_555 1_555
C24_4 C23_4 1_555 1_555
H12_4 C24_4 1_555 1_555
C25_4 C24_4 1_555 1_555
C26_4 C21_4 1_555 1_555
H13_4 C26_4 1_555 1_555
C27_4 C23_4 1_555 1_555
C28_4 C10_6 1_555 1_555
H14_4 C28_4 1_555 1_555
H15_4 C28_4 1_555 1_555
C29_4 C10_6 1_555 1_555
H16_4 C29_4 1_555 1_555
H17_4 C29_4 1_555 1_555
C30_4 O23_4 1_555 1_555
C31_4 C30_4 1_555 1_555
H18_4 C31_4 1_555 1_555
C32_4 C31_4 1_555 1_555
C33_4 C32_4 1_555 1_555
C34_4 C33_4 1_555 1_555
C35_4 C30_4 1_555 1_555
H20_4 C35_4 1_555 1_555
C36_4 C32_4 1_555 1_555
C37_4 C34_4 1_555 1_555
C6_4 C7_4 1_555 1_555
C16_4 C17_4 1_555 1_555
O22_4 C28_4 1_555 1_555
C25_4 C26_4 1_555 1_555
C34_4 C35_4 1_555 1_555
O11_4 H23_4 1_555 1_555
O11_4 H24_4 1_555 1_555

#END
