
###############################################################################
#
# This file contains modified crystal structure data generated from the
# MOF subset of the Cambridge Structural Database (CSD) v543 
# hosted by the Cambridge Crystallographic Data Centre (CCDC).
#
# This work is licensed under the Creative Commons
# Attribution-NonCommercial-ShareAlike 4.0 International License.
# To view a copy of this license, visit
# http://creativecommons.org/licenses/by-nc-sa/4.0/
# or send a letter to
# Creative Commons, PO Box 1866, Mountain View, CA 94042, USA.
#
# CIF created using the CSD Python API on 29 September 2022
# The structure has been converted into the P1 space group
# The structure has a 3D framework
# The original CSD entry GEGSUK is in the monoclinic crystal system
# The framework has been calculated to contain at least 10.0% void space
# The void calculation uses a probe of radius 1.32A, grid spacing 0.4
#
###############################################################################

data_GEGSUK
_chemical_formula_moiety         '(C272 H184 I8 N48 O56 Zn8)n'
_symmetry_cell_setting           triclinic
_symmetry_space_group_name_H-M   'P 1'
_symmetry_Int_Tables_number      1
_space_group_name_Hall           'P 1'
loop_
_symmetry_equiv_pos_site_id
_symmetry_equiv_pos_as_xyz
1 x,y,z
_cell_length_a                   17.2604(3)
_cell_length_b                   19.9238(3)
_cell_length_c                   25.5352(4)
_cell_angle_alpha                90
_cell_angle_beta                 102.913(2)
_cell_angle_gamma                90
_cell_volume                     8559.29
loop_
_atom_site_label
_atom_site_type_symbol
_atom_site_fract_x
_atom_site_fract_y
_atom_site_fract_z
H6 H 0.2087 0.0244 0.3011
C7 C 0.0952(4) 0.0045(3) 0.2878(3)
C8 C 0.0733(4) 0.0548(3) 0.2428(3)
C9 C 0.1293(4) 0.0817(3) 0.2177(3)
H7 H 0.1840 0.0706 0.2295
C10 C 0.1040(4) 0.1254(3) 0.1748(3)
I1 I 0.18668(2) 0.16874(2) 0.13673(2)
C11 C 0.0242(4) 0.1420(3) 0.1566(3)
H8 H 0.0080 0.1712 0.1268
Zn1 Zn 0.40182(4) 0.67653(3) 0.49560(2)
N1 N 0.3655(3) 0.7621(3) 0.4501(2)
C1 C 0.2998(4) 0.7594(3) 0.4095(3)
H1 H 0.2746 0.7172 0.4009
C2 C 0.2677(4) 0.8148(3) 0.3801(3)
H2 H 0.2222 0.8102 0.3515
C3 C 0.3026(3) 0.8773(3) 0.3927(3)
C4 C 0.3706(4) 0.8803(3) 0.4345(3)
H3 H 0.3969 0.9219 0.4440
C5 C 0.3991(4) 0.8223(3) 0.4615(3)
H4 H 0.4452 0.8254 0.4899
C6 C 0.2708(4) 0.9384(3) 0.3635(3)
H5 H 0.3029 0.9773 0.3647
N2 N 0.1992(3) 0.9380(2) 0.3367(2)
N3 N 0.1740(3) 0.9947(2) 0.3072(2)
O1 O 0.0443(3) 0.9739(2) 0.3033(2)
C21 C 0.3651(4) 0.6402(3) 0.5843(2)
O3 O 0.3567(3) 0.6969(2) 0.56012(18)
O4 O 0.3971(3) 0.5915(2) 0.56678(18)
C22 C 0.3352(3) 0.6338(3) 0.6347(2)
C23 C 0.3272(4) 0.5702(3) 0.6569(2)
H16 H 0.3390 0.5309 0.6391
C24 C 0.3024(4) 0.5646(3) 0.7043(3)
H17 H 0.2964 0.5216 0.7191
C25 C 0.2863(3) 0.6225(3) 0.7304(2)
C26 C 0.2933(4) 0.6851(3) 0.7081(3)
H18 H 0.2819 0.7244 0.7260
C27 C 0.3165(4) 0.6903(3) 0.6603(2)
H19 H 0.3197 0.7332 0.6447
O5 O 0.2597(3) 0.6212(2) 0.77790(18)
C28 C 0.2890(4) 0.5724(3) 0.8156(2)
C29 C 0.2374(3) 0.5500(3) 0.8462(2)
H20 H 0.1857 0.5688 0.8415
C30 C 0.2619(3) 0.5001(3) 0.8837(2)
H21 H 0.2265 0.4839 0.9044
C31 C 0.3384(3) 0.4730(3) 0.8916(2)
C32 C 0.3905(4) 0.4987(3) 0.8620(3)
H22 H 0.4432 0.4817 0.8681
C33 C 0.3666(4) 0.5489(3) 0.8235(3)
H23 H 0.4022 0.5664 0.8035
C34 C 0.3632(3) 0.4161(3) 0.9290(2)
O6 O 0.3131(3) 0.3889(2) 0.95176(17)
O7 O 0.4331(3) 0.3938(2) 0.93753(19)
Zn3 Zn 0.40182(4) 0.32347(3) 0.99560(2)
N7 N 0.5203(3) 0.6973(2) 0.52768(19)
O8 O 0.3131(3) 0.6111(2) 0.45176(17)
O9 O 0.4331(3) 0.6062(2) 0.43753(19)
C12 C 0.9683(3) 0.1151(3) 0.1827(3)
C13 C 0.9930(3) 0.0714(3) 0.2256(3)
H9 H 0.9551 0.0527 0.2433
C14 C 0.8804(4) 0.1298(3) 0.1668(3)
O2 O 0.8334(3) 0.0975(3) 0.1835(3)
N4 N 0.8605(3) 0.1830(3) 0.1323(2)
H10 H 0.8966 0.2059 0.1204
N5 N 0.7805(3) 0.1985(3) 0.1173(2)
C15 C 0.7632(3) 0.2470(3) 0.0840(3)
H11 H 0.8037 0.2702 0.0716
C16 C 0.6795(3) 0.2661(3) 0.0655(2)
C17 C 0.6582(4) 0.3157(3) 0.0265(3)
H12 H 0.6977 0.3383 0.0126
C18 C 0.5787(4) 0.3316(3) 0.0082(3)
C19 C 0.5415(4) 0.2568(3) 0.0668(2)
H14 H 0.5012 0.2375 0.0820
C20 C 0.6189(4) 0.2362(3) 0.0860(2)
H15 H 0.6311 0.2023 0.1127
N6 N 0.5203(3) 0.3027(2) 0.02768(19)
H13 H 0.5646 0.3644 0.9807
C21_2 C 0.3651(4) 0.3598(3) 0.0843(2)
O3_2 O 0.3567(3) 0.3031(2) 0.06012(18)
O4_2 O 0.3971(3) 0.4085(2) 0.06678(18)
C22_2 C 0.3352(3) 0.3662(3) 0.1347(2)
C23_2 C 0.3272(4) 0.4298(3) 0.1569(2)
H16_2 H 0.3390 0.4691 0.1391
C24_2 C 0.3024(4) 0.4354(3) 0.2043(3)
H17_2 H 0.2964 0.4784 0.2191
C25_2 C 0.2863(3) 0.3775(3) 0.2304(2)
C26_2 C 0.2933(4) 0.3149(3) 0.2081(3)
H18_2 H 0.2819 0.2756 0.2260
C27_2 C 0.3165(4) 0.3097(3) 0.1603(2)
H19_2 H 0.3197 0.2668 0.1447
O5_2 O 0.2597(3) 0.3788(2) 0.27790(18)
C28_2 C 0.2890(4) 0.4276(3) 0.3156(2)
C29_2 C 0.2374(3) 0.4500(3) 0.3462(2)
H20_2 H 0.1857 0.4312 0.3415
C30_2 C 0.2619(3) 0.4999(3) 0.3837(2)
H21_2 H 0.2265 0.5161 0.4044
C31_2 C 0.3384(3) 0.5270(3) 0.3916(2)
C32_2 C 0.3905(4) 0.5013(3) 0.3620(3)
H22_2 H 0.4432 0.5183 0.3681
C33_2 C 0.3666(4) 0.4511(3) 0.3235(3)
H23_2 H 0.4022 0.4336 0.3035
C34_2 C 0.3632(3) 0.5839(3) 0.4290(2)
N1_2 N 0.3655(3) 0.2379(3) 0.9501(2)
C1_2 C 0.2998(4) 0.2406(3) 0.9095(3)
H1_2 H 0.2746 0.2828 0.9009
C2_2 C 0.2677(4) 0.1852(3) 0.8801(3)
H2_2 H 0.2222 0.1898 0.8515
C3_2 C 0.3026(3) 0.1227(3) 0.8927(3)
C4_2 C 0.3706(4) 0.1197(3) 0.9345(3)
H3_2 H 0.3969 0.0781 0.9440
C5_2 C 0.3991(4) 0.1777(3) 0.9615(3)
H4_2 H 0.4452 0.1746 0.9899
C6_2 C 0.2708(4) 0.0616(3) 0.8635(3)
H5_2 H 0.3029 0.0227 0.8647
N2_2 N 0.1992(3) 0.0620(2) 0.8367(2)
N3_2 N 0.1740(3) 0.0053(2) 0.8072(2)
O1_2 O 0.0443(3) 0.0261(2) 0.8033(2)
C12_2 C 0.9683(3) 0.8849(3) 0.6827(3)
C13_2 C 0.9930(3) 0.9286(3) 0.7256(3)
H9_2 H 0.9551 0.9473 0.7433
C14_2 C 0.8804(4) 0.8702(3) 0.6668(3)
O2_2 O 0.8334(3) 0.9025(3) 0.6835(3)
N4_2 N 0.8605(3) 0.8170(3) 0.6323(2)
H10_2 H 0.8966 0.7941 0.6204
N5_2 N 0.7805(3) 0.8015(3) 0.6173(2)
C15_2 C 0.7632(3) 0.7530(3) 0.5840(3)
H11_2 H 0.8037 0.7298 0.5716
C16_2 C 0.6795(3) 0.7339(3) 0.5655(2)
C17_2 C 0.6582(4) 0.6843(3) 0.5265(3)
H12_2 H 0.6977 0.6617 0.5126
C18_2 C 0.5787(4) 0.6684(3) 0.5082(3)
H13_2 H 0.5646 0.6356 0.4807
C19_2 C 0.5415(4) 0.7432(3) 0.5668(2)
H14_2 H 0.5012 0.7625 0.5820
C20_2 C 0.6189(4) 0.7638(3) 0.5860(2)
H15_2 H 0.6311 0.7977 0.6127
H6_2 H 0.2087 0.9756 0.8011
C7_2 C 0.0952(4) 0.9955(3) 0.7878(3)
C8_2 C 0.0733(4) 0.9452(3) 0.7428(3)
C9_2 C 0.1293(4) 0.9183(3) 0.7177(3)
H7_2 H 0.1840 0.9294 0.7295
C10_2 C 0.1040(4) 0.8746(3) 0.6748(3)
I1_2 I 0.18668(2) 0.83126(2) 0.63673(2)
C11_2 C 0.0242(4) 0.8580(3) 0.6566(3)
H8_2 H 0.0080 0.8288 0.6268
N7_2 N 0.0203(3) 0.1973(2) 0.52768(19)
H21_3 H 0.7265 0.9839 0.9044
C31_3 C 0.8384(3) 0.9730(3) 0.8916(2)
C32_3 C 0.8905(4) 0.9987(3) 0.8620(3)
H22_3 H 0.9432 0.9817 0.8681
C34_3 C 0.8632(3) 0.9161(3) 0.9290(2)
O6_2 O 0.8131(3) 0.8889(2) 0.95176(17)
O7_2 O 0.9331(3) 0.8938(2) 0.93753(19)
Zn3_2 Zn 0.90182(4) 0.82347(3) 0.99560(2)
N1_3 N 0.8655(3) 0.7379(3) 0.9501(2)
C1_3 C 0.7998(4) 0.7406(3) 0.9095(3)
H1_3 H 0.7746 0.7828 0.9009
C2_3 C 0.7677(4) 0.6852(3) 0.8801(3)
H2_3 H 0.7222 0.6898 0.8515
C3_3 C 0.8026(3) 0.6227(3) 0.8927(3)
C4_3 C 0.8706(4) 0.6197(3) 0.9345(3)
H3_3 H 0.8969 0.5781 0.9440
C5_3 C 0.8991(4) 0.6777(3) 0.9615(3)
H4_3 H 0.9452 0.6746 0.9899
C6_3 C 0.7708(4) 0.5616(3) 0.8635(3)
H5_3 H 0.8029 0.5227 0.8647
N2_3 N 0.6992(3) 0.5620(2) 0.8367(2)
N3_3 N 0.6740(3) 0.5053(2) 0.8072(2)
H6_3 H 0.7087 0.4756 0.8011
C7_3 C 0.5952(4) 0.4955(3) 0.7878(3)
O1_3 O 0.5443(3) 0.5261(2) 0.8033(2)
C8_3 C 0.5733(4) 0.4452(3) 0.7428(3)
C9_3 C 0.6293(4) 0.4183(3) 0.7177(3)
H7_3 H 0.6840 0.4294 0.7295
C10_3 C 0.6040(4) 0.3746(3) 0.6748(3)
I1_3 I 0.68668(2) 0.33126(2) 0.63673(2)
C11_3 C 0.5242(4) 0.3580(3) 0.6566(3)
H8_3 H 0.5080 0.3288 0.6268
C12_3 C 0.4683(3) 0.3849(3) 0.6827(3)
C13_3 C 0.4930(3) 0.4286(3) 0.7256(3)
H9_3 H 0.4551 0.4473 0.7433
C14_3 C 0.3804(4) 0.3702(3) 0.6668(3)
O2_3 O 0.3334(3) 0.4025(3) 0.6835(3)
N4_3 N 0.3605(3) 0.3170(3) 0.6323(2)
H10_3 H 0.3966 0.2941 0.6204
N5_3 N 0.2805(3) 0.3015(3) 0.6173(2)
C15_3 C 0.2632(3) 0.2530(3) 0.5840(3)
H11_3 H 0.3037 0.2298 0.5716
C16_3 C 0.1795(3) 0.2339(3) 0.5655(2)
C17_3 C 0.1582(4) 0.1843(3) 0.5265(3)
H12_3 H 0.1977 0.1617 0.5126
C18_3 C 0.0787(4) 0.1684(3) 0.5082(3)
H13_3 H 0.0646 0.1356 0.4807
C19_3 C 0.0415(4) 0.2432(3) 0.5668(2)
H14_3 H 0.0012 0.2625 0.5820
C20_3 C 0.1189(4) 0.2638(3) 0.5860(2)
H15_3 H 0.1311 0.2977 0.6127
Zn1_2 Zn 0.90182(4) 0.17653(3) 0.49560(2)
N1_4 N 0.8655(3) 0.2621(3) 0.4501(2)
C1_4 C 0.7998(4) 0.2594(3) 0.4095(3)
H1_4 H 0.7746 0.2172 0.4009
C2_4 C 0.7677(4) 0.3148(3) 0.3801(3)
H2_4 H 0.7222 0.3102 0.3515
C3_4 C 0.8026(3) 0.3773(3) 0.3927(3)
C4_4 C 0.8706(4) 0.3803(3) 0.4345(3)
H3_4 H 0.8969 0.4219 0.4440
C5_4 C 0.8991(4) 0.3223(3) 0.4615(3)
H4_4 H 0.9452 0.3254 0.4899
C6_4 C 0.7708(4) 0.4384(3) 0.3635(3)
H5_4 H 0.8029 0.4773 0.3647
N2_4 N 0.6992(3) 0.4380(2) 0.3367(2)
N3_4 N 0.6740(3) 0.4947(2) 0.3072(2)
H6_4 H 0.7087 0.5244 0.3011
C7_4 C 0.5952(4) 0.5045(3) 0.2878(3)
O1_4 O 0.5443(3) 0.4739(2) 0.3033(2)
C8_4 C 0.5733(4) 0.5548(3) 0.2428(3)
C9_4 C 0.6293(4) 0.5817(3) 0.2177(3)
H7_4 H 0.6840 0.5706 0.2295
C10_4 C 0.6040(4) 0.6254(3) 0.1748(3)
I1_4 I 0.68668(2) 0.66874(2) 0.13673(2)
C11_4 C 0.5242(4) 0.6420(3) 0.1566(3)
H8_4 H 0.5080 0.6712 0.1268
C12_4 C 0.4683(3) 0.6151(3) 0.1827(3)
C13_4 C 0.4930(3) 0.5714(3) 0.2256(3)
H9_4 H 0.4551 0.5527 0.2433
C14_4 C 0.3804(4) 0.6298(3) 0.1668(3)
O2_4 O 0.3334(3) 0.5975(3) 0.1835(3)
N4_4 N 0.3605(3) 0.6830(3) 0.1323(2)
H10_4 H 0.3966 0.7059 0.1204
N5_4 N 0.2805(3) 0.6985(3) 0.1173(2)
C15_4 C 0.2632(3) 0.7470(3) 0.0840(3)
H11_4 H 0.3037 0.7702 0.0716
C16_4 C 0.1795(3) 0.7661(3) 0.0655(2)
C17_4 C 0.1582(4) 0.8157(3) 0.0265(3)
H12_4 H 0.1977 0.8383 0.0126
C18_4 C 0.0787(4) 0.8316(3) 0.0082(3)
C19_4 C 0.0415(4) 0.7568(3) 0.0668(2)
H14_4 H 0.0012 0.7375 0.0820
C20_4 C 0.1189(4) 0.7362(3) 0.0860(2)
H15_4 H 0.1311 0.7023 0.1127
N6_2 N 0.0203(3) 0.8027(2) 0.02768(19)
C21_3 C 0.8651(4) 0.1402(3) 0.5843(2)
O3_3 O 0.8567(3) 0.1969(2) 0.56012(18)
O4_3 O 0.8971(3) 0.0915(2) 0.56678(18)
C22_3 C 0.8352(3) 0.1338(3) 0.6347(2)
C23_3 C 0.8272(4) 0.0702(3) 0.6569(2)
H16_3 H 0.8390 0.0309 0.6391
C24_3 C 0.8024(4) 0.0646(3) 0.7043(3)
H17_3 H 0.7964 0.0216 0.7191
C25_3 C 0.7863(3) 0.1225(3) 0.7304(2)
C26_3 C 0.7933(4) 0.1851(3) 0.7081(3)
H18_3 H 0.7819 0.2244 0.7260
C27_3 C 0.8165(4) 0.1903(3) 0.6603(2)
H19_3 H 0.8197 0.2332 0.6447
O5_3 O 0.7597(3) 0.1212(2) 0.77790(18)
C28_3 C 0.7890(4) 0.0724(3) 0.8156(2)
C29_3 C 0.7374(3) 0.0500(3) 0.8462(2)
H20_3 H 0.6857 0.0688 0.8415
C30_3 C 0.7619(3) 0.0001(3) 0.8837(2)
C33_3 C 0.8666(4) 0.0489(3) 0.8235(3)
H23_3 H 0.9022 0.0664 0.8035
O8_2 O 0.8131(3) 0.1111(2) 0.45176(17)
O9_2 O 0.9331(3) 0.1062(2) 0.43753(19)
H21_4 H 0.7265 0.0161 0.4044
C31_4 C 0.8384(3) 0.0270(3) 0.3916(2)
C32_4 C 0.8905(4) 0.0013(3) 0.3620(3)
H22_4 H 0.9432 0.0183 0.3681
C34_4 C 0.8632(3) 0.0839(3) 0.4290(2)
H13_4 H 0.0646 0.8644 0.9807
C21_4 C 0.8651(4) 0.8598(3) 0.0843(2)
O3_4 O 0.8567(3) 0.8031(2) 0.06012(18)
O4_4 O 0.8971(3) 0.9085(2) 0.06678(18)
C22_4 C 0.8352(3) 0.8662(3) 0.1347(2)
C23_4 C 0.8272(4) 0.9298(3) 0.1569(2)
H16_4 H 0.8390 0.9691 0.1391
C24_4 C 0.8024(4) 0.9354(3) 0.2043(3)
H17_4 H 0.7964 0.9784 0.2191
C25_4 C 0.7863(3) 0.8775(3) 0.2304(2)
C26_4 C 0.7933(4) 0.8149(3) 0.2081(3)
H18_4 H 0.7819 0.7756 0.2260
C27_4 C 0.8165(4) 0.8097(3) 0.1603(2)
H19_4 H 0.8197 0.7668 0.1447
O5_4 O 0.7597(3) 0.8788(2) 0.27790(18)
C28_4 C 0.7890(4) 0.9276(3) 0.3156(2)
C29_4 C 0.7374(3) 0.9500(3) 0.3462(2)
H20_4 H 0.6857 0.9312 0.3415
C30_4 C 0.7619(3) 0.9999(3) 0.3837(2)
C33_4 C 0.8666(4) 0.9511(3) 0.3235(3)
H23_4 H 0.9022 0.9336 0.3035
C64 C 0.4551(3) 0.0318(3) 0.5167(2)
H44 H 0.4932 0.0532 0.5006
C65 C 0.3751(4) 0.0499(3) 0.5015(2)
C66 C 0.3196(4) 0.0185(3) 0.5248(2)
H45 H 0.2651 0.0308 0.5142
C68 C 0.3509(4) 0.1030(3) 0.4607(2)
O15 O 0.4008(3) 0.1305(2) 0.43769(18)
O16 O 0.2773(3) 0.1193(2) 0.44706(17)
Zn6 Zn 0.29361(4) 0.18487(3) 0.38803(3)
H25 H 0.9981 0.8523 0.8610
C40 C 0.9307(4) 0.7703(3) 0.7816(3)
H28 H 0.8899 0.7973 0.7903
N9 N 0.9140(3) 0.7204(3) 0.7499(2)
N10 N 0.8353(3) 0.7044(3) 0.7322(2)
H29 H 0.7981 0.7296 0.7408
C41 C 0.8156(3) 0.6490(3) 0.7014(3)
O10 O 0.8652(3) 0.6136(3) 0.6863(2)
C42 C 0.7294(3) 0.6305(3) 0.6876(2)
C43 C 0.6765(4) 0.6553(3) 0.7172(2)
H30 H 0.6945 0.6852 0.7464
C44 C 0.5975(4) 0.6357(3) 0.7034(2)
I2 I 0.52056(2) 0.67739(2) 0.74652(2)
C45 C 0.5704(3) 0.5916(3) 0.6618(2)
H31 H 0.5160 0.5787 0.6529
C46 C 0.6234(3) 0.5659(3) 0.6326(2)
C47 C 0.7028(3) 0.5858(3) 0.6462(2)
H32 H 0.7391 0.5684 0.6266
C48 C 0.6005(3) 0.5153(3) 0.5882(2)
O11 O 0.6505(3) 0.4865(2) 0.5693(2)
N11 N 0.5202(3) 0.5025(2) 0.5721(2)
H33 H 0.4855 0.5274 0.5839
N12 N 0.4956(3) 0.4503(2) 0.5375(2)
C49 C 0.4193(4) 0.4415(3) 0.5248(2)
H34 H 0.3849 0.4712 0.5378
C50 C 0.3871(3) 0.3844(3) 0.4900(2)
C51 C 0.3080(3) 0.3666(3) 0.4827(2)
H35 H 0.2732 0.3918 0.4992
C52 C 0.2803(3) 0.3113(3) 0.4511(2)
H36 H 0.2261 0.2990 0.4469
C53 C 0.4018(4) 0.2934(4) 0.4318(3)
H37 H 0.4343 0.2684 0.4133
C54 C 0.4349(4) 0.3474(4) 0.4632(3)
H38 H 0.4891 0.3591 0.4663
N13 N 0.3257(3) 0.2748(2) 0.4265(2)
N8 N 0.1744(3) 0.1956(3) 0.3528(2)
C35 C 0.1168(4) 0.1627(3) 0.3701(3)
H24 H 0.1317 0.1322 0.3992
C36 C 0.0373(4) 0.1713(3) 0.3475(3)
C37 C 0.0157(3) 0.2149(3) 0.3045(2)
C38 C 0.0742(4) 0.2478(3) 0.2853(3)
H26 H 0.0607 0.2774 0.2554
C39 C 0.1526(4) 0.2366(3) 0.3103(3)
H27 H 0.1929 0.2588 0.2969
C55 C 0.3347(3) 0.1304(3) 0.3044(2)
O12 O 0.2990(3) 0.0845(2) 0.32263(17)
O13 O 0.3414(2) 0.1895(2) 0.32435(17)
C56 C 0.3682(3) 0.1180(3) 0.2562(2)
C57 C 0.3617(4) 0.0561(3) 0.2311(2)
H39 H 0.3385 0.0196 0.2460
C58 C 0.3892(4) 0.0467(3) 0.1841(2)
H40 H 0.3863 0.0038 0.1675
C59 C 0.4204(4) 0.1007(3) 0.1621(2)
C60 C 0.4306(4) 0.1622(3) 0.1878(3)
H41 H 0.4556 0.1980 0.1735
C61 C 0.4042(4) 0.1710(3) 0.2344(3)
H42 H 0.4104 0.2134 0.2519
O14 O 0.4501(3) 0.0974(2) 0.11632(19)
C62 C 0.4223(4) 0.0477(3) 0.0784(2)
C63 C 0.4792(4) 0.0178(3) 0.0557(2)
H43 H 0.5334 0.0307 0.0663
C67 C 0.3427(4) 0.0305(3) 0.0632(3)
H46 H 0.3046 0.0523 0.0790
Zn4 Zn 0.29361(4) 0.81513(3) 0.88803(3)
N8_2 N 0.1744(3) 0.8044(3) 0.8528(2)
C35_2 C 0.1168(4) 0.8373(3) 0.8701(3)
H24_2 H 0.1317 0.8678 0.8992
C36_2 C 0.0373(4) 0.8287(3) 0.8475(3)
C37_2 C 0.0157(3) 0.7851(3) 0.8045(2)
C38_2 C 0.0742(4) 0.7522(3) 0.7853(3)
H26_2 H 0.0607 0.7226 0.7554
C39_2 C 0.1526(4) 0.7634(3) 0.8103(3)
H27_2 H 0.1929 0.7412 0.7969
C55_2 C 0.3347(3) 0.8696(3) 0.8044(2)
O12_2 O 0.2990(3) 0.9155(2) 0.82263(17)
O13_2 O 0.3414(2) 0.8105(2) 0.82435(17)
C56_2 C 0.3682(3) 0.8820(3) 0.7562(2)
C57_2 C 0.3617(4) 0.9439(3) 0.7311(2)
H39_2 H 0.3385 0.9804 0.7460
C58_2 C 0.3892(4) 0.9533(3) 0.6841(2)
H40_2 H 0.3863 0.9962 0.6675
C59_2 C 0.4204(4) 0.8993(3) 0.6621(2)
C60_2 C 0.4306(4) 0.8378(3) 0.6878(3)
H41_2 H 0.4556 0.8020 0.6735
C61_2 C 0.4042(4) 0.8290(3) 0.7344(3)
H42_2 H 0.4104 0.7866 0.7519
O14_2 O 0.4501(3) 0.9026(2) 0.61632(19)
C62_2 C 0.4223(4) 0.9523(3) 0.5784(2)
C63_2 C 0.4792(4) 0.9822(3) 0.5557(2)
H43_2 H 0.5334 0.9693 0.5663
C67_2 C 0.3427(4) 0.9695(3) 0.5632(3)
H46_2 H 0.3046 0.9477 0.5790
N14 N 0.3257(3) 0.7252(2) 0.9265(2)
O17 O 0.4008(3) 0.8695(2) 0.93769(18)
O18 O 0.2773(3) 0.8807(2) 0.94706(17)
C68_2 C 0.3509(4) 0.8970(3) 0.9607(2)
C50_2 C 0.3871(3) 0.6156(3) 0.9900(2)
C51_2 C 0.3080(3) 0.6334(3) 0.9827(2)
H35_2 H 0.2732 0.6082 0.9992
C52_2 C 0.2803(3) 0.6887(3) 0.9511(2)
H36_2 H 0.2261 0.7010 0.9469
C53_2 C 0.4018(4) 0.7066(4) 0.9318(3)
H37_2 H 0.4343 0.7316 0.9133
C54_2 C 0.4349(4) 0.6526(4) 0.9632(3)
H38_2 H 0.4891 0.6409 0.9663
C64_2 C 0.4551(3) 0.9682(3) 0.0167(2)
H44_2 H 0.4932 0.9468 0.0006
C65_2 C 0.3751(4) 0.9501(3) 0.0015(2)
C66_2 C 0.3196(4) 0.9815(3) 0.0248(2)
H45_2 H 0.2651 0.9692 0.0142
H25_2 H 0.9981 0.1477 0.3610
C40_2 C 0.9307(4) 0.2297(3) 0.2816(3)
H28_2 H 0.8899 0.2027 0.2903
N9_2 N 0.9140(3) 0.2796(3) 0.2499(2)
N10_2 N 0.8353(3) 0.2956(3) 0.2322(2)
H29_2 H 0.7981 0.2704 0.2408
C41_2 C 0.8156(3) 0.3510(3) 0.2014(3)
O10_2 O 0.8652(3) 0.3864(3) 0.1863(2)
C42_2 C 0.7294(3) 0.3695(3) 0.1876(2)
C43_2 C 0.6765(4) 0.3447(3) 0.2172(2)
H30_2 H 0.6945 0.3148 0.2464
C44_2 C 0.5975(4) 0.3643(3) 0.2034(2)
I2_2 I 0.52056(2) 0.32261(2) 0.24652(2)
C45_2 C 0.5704(3) 0.4084(3) 0.1618(2)
H31_2 H 0.5160 0.4213 0.1529
C46_2 C 0.6234(3) 0.4341(3) 0.1326(2)
C47_2 C 0.7028(3) 0.4142(3) 0.1462(2)
H32_2 H 0.7391 0.4316 0.1266
C48_2 C 0.6005(3) 0.4847(3) 0.0882(2)
O11_2 O 0.6505(3) 0.5135(2) 0.0693(2)
N11_2 N 0.5202(3) 0.4975(2) 0.0721(2)
H33_2 H 0.4855 0.4726 0.0839
N12_2 N 0.4956(3) 0.5497(2) 0.0375(2)
C49_2 C 0.4193(4) 0.5585(3) 0.0248(2)
H34_2 H 0.3849 0.5288 0.0378
H43_3 H 0.0334 0.4693 0.5663
Zn4_2 Zn 0.79361(4) 0.31513(3) 0.88803(3)
N8_3 N 0.6744(3) 0.3044(3) 0.8528(2)
C35_3 C 0.6168(4) 0.3373(3) 0.8701(3)
H24_3 H 0.6317 0.3678 0.8992
C36_3 C 0.5373(4) 0.3287(3) 0.8475(3)
H25_3 H 0.4981 0.3523 0.8610
C37_3 C 0.5157(3) 0.2851(3) 0.8045(2)
C38_3 C 0.5742(4) 0.2522(3) 0.7853(3)
H26_3 H 0.5607 0.2226 0.7554
C39_3 C 0.6526(4) 0.2634(3) 0.8103(3)
H27_3 H 0.6929 0.2412 0.7969
C40_3 C 0.4307(4) 0.2703(3) 0.7816(3)
H28_3 H 0.3899 0.2973 0.7903
N9_3 N 0.4140(3) 0.2204(3) 0.7499(2)
N10_3 N 0.3353(3) 0.2044(3) 0.7322(2)
H29_3 H 0.2981 0.2296 0.7408
C41_3 C 0.3156(3) 0.1490(3) 0.7014(3)
O10_3 O 0.3652(3) 0.1136(3) 0.6863(2)
C42_3 C 0.2294(3) 0.1305(3) 0.6876(2)
C43_3 C 0.1765(4) 0.1553(3) 0.7172(2)
H30_3 H 0.1945 0.1852 0.7464
C44_3 C 0.0975(4) 0.1357(3) 0.7034(2)
I2_3 I 0.02056(2) 0.17739(2) 0.74652(2)
C45_3 C 0.0704(3) 0.0916(3) 0.6618(2)
H31_3 H 0.0160 0.0787 0.6529
C46_3 C 0.1234(3) 0.0659(3) 0.6326(2)
C47_3 C 0.2028(3) 0.0858(3) 0.6462(2)
H32_3 H 0.2391 0.0684 0.6266
C48_3 C 0.1005(3) 0.0153(3) 0.5882(2)
N11_3 N 0.0202(3) 0.0025(2) 0.5721(2)
C55_3 C 0.8347(3) 0.3696(3) 0.8044(2)
O12_3 O 0.7990(3) 0.4155(2) 0.82263(17)
O13_3 O 0.8414(2) 0.3105(2) 0.82435(17)
C56_3 C 0.8682(3) 0.3820(3) 0.7562(2)
C57_3 C 0.8617(4) 0.4439(3) 0.7311(2)
H39_3 H 0.8385 0.4804 0.7460
C58_3 C 0.8892(4) 0.4533(3) 0.6841(2)
H40_3 H 0.8863 0.4962 0.6675
C59_3 C 0.9204(4) 0.3993(3) 0.6621(2)
C60_3 C 0.9306(4) 0.3378(3) 0.6878(3)
H41_3 H 0.9556 0.3020 0.6735
C61_3 C 0.9042(4) 0.3290(3) 0.7344(3)
H42_3 H 0.9104 0.2866 0.7519
O14_3 O 0.9501(3) 0.4026(2) 0.61632(19)
C62_3 C 0.9223(4) 0.4523(3) 0.5784(2)
C63_3 C 0.9792(4) 0.4822(3) 0.5557(2)
C64_3 C 0.9551(3) 0.5318(3) 0.5167(2)
H44_3 H 0.9932 0.5532 0.5006
C65_3 C 0.8751(4) 0.5499(3) 0.5015(2)
C66_3 C 0.8196(4) 0.5185(3) 0.5248(2)
H45_3 H 0.7651 0.5308 0.5142
C67_3 C 0.8427(4) 0.4695(3) 0.5632(3)
H46_3 H 0.8046 0.4477 0.5790
C68_3 C 0.8509(4) 0.6030(3) 0.4607(2)
O15_2 O 0.9008(3) 0.6305(2) 0.43769(18)
O16_2 O 0.7773(3) 0.6193(2) 0.44706(17)
Zn6_2 Zn 0.79361(4) 0.68487(3) 0.38803(3)
N14_2 N 0.8257(3) 0.2252(2) 0.9265(2)
O17_2 O 0.9008(3) 0.3695(2) 0.93769(18)
O18_2 O 0.7773(3) 0.3807(2) 0.94706(17)
N12_3 N 0.9956(3) 0.9503(2) 0.5375(2)
C49_3 C 0.9193(4) 0.9415(3) 0.5248(2)
H34_3 H 0.8849 0.9712 0.5378
C50_3 C 0.8871(3) 0.8844(3) 0.4900(2)
C51_3 C 0.8080(3) 0.8666(3) 0.4827(2)
H35_3 H 0.7732 0.8918 0.4992
C52_3 C 0.7803(3) 0.8113(3) 0.4511(2)
H36_3 H 0.7261 0.7990 0.4469
C53_3 C 0.9018(4) 0.7934(4) 0.4318(3)
H37_3 H 0.9343 0.7684 0.4133
C54_3 C 0.9349(4) 0.8474(4) 0.4632(3)
H38_3 H 0.9891 0.8591 0.4663
N13_2 N 0.8257(3) 0.7748(2) 0.4265(2)
N8_4 N 0.6744(3) 0.6956(3) 0.3528(2)
C35_4 C 0.6168(4) 0.6627(3) 0.3701(3)
H24_4 H 0.6317 0.6322 0.3992
C36_4 C 0.5373(4) 0.6713(3) 0.3475(3)
H25_4 H 0.4981 0.6477 0.3610
C37_4 C 0.5157(3) 0.7149(3) 0.3045(2)
C38_4 C 0.5742(4) 0.7478(3) 0.2853(3)
H26_4 H 0.5607 0.7774 0.2554
C39_4 C 0.6526(4) 0.7366(3) 0.3103(3)
H27_4 H 0.6929 0.7588 0.2969
C40_4 C 0.4307(4) 0.7297(3) 0.2816(3)
H28_4 H 0.3899 0.7027 0.2903
N9_4 N 0.4140(3) 0.7796(3) 0.2499(2)
N10_4 N 0.3353(3) 0.7956(3) 0.2322(2)
H29_4 H 0.2981 0.7704 0.2408
C41_4 C 0.3156(3) 0.8510(3) 0.2014(3)
O10_4 O 0.3652(3) 0.8864(3) 0.1863(2)
C42_4 C 0.2294(3) 0.8695(3) 0.1876(2)
C43_4 C 0.1765(4) 0.8447(3) 0.2172(2)
H30_4 H 0.1945 0.8148 0.2464
C44_4 C 0.0975(4) 0.8643(3) 0.2034(2)
I2_4 I 0.02056(2) 0.82261(2) 0.24652(2)
C45_4 C 0.0704(3) 0.9084(3) 0.1618(2)
H31_4 H 0.0160 0.9213 0.1529
C46_4 C 0.1234(3) 0.9341(3) 0.1326(2)
C47_4 C 0.2028(3) 0.9142(3) 0.1462(2)
H32_4 H 0.2391 0.9316 0.1266
C48_4 C 0.1005(3) 0.9847(3) 0.0882(2)
N11_4 N 0.0202(3) 0.9975(2) 0.0721(2)
C55_4 C 0.8347(3) 0.6304(3) 0.3044(2)
O12_4 O 0.7990(3) 0.5845(2) 0.32263(17)
O13_4 O 0.8414(2) 0.6895(2) 0.32435(17)
C56_4 C 0.8682(3) 0.6180(3) 0.2562(2)
C57_4 C 0.8617(4) 0.5561(3) 0.2311(2)
H39_4 H 0.8385 0.5196 0.2460
C58_4 C 0.8892(4) 0.5467(3) 0.1841(2)
H40_4 H 0.8863 0.5038 0.1675
C59_4 C 0.9204(4) 0.6007(3) 0.1621(2)
C60_4 C 0.9306(4) 0.6622(3) 0.1878(3)
H41_4 H 0.9556 0.6980 0.1735
C61_4 C 0.9042(4) 0.6710(3) 0.2344(3)
H42_4 H 0.9104 0.7134 0.2519
O14_4 O 0.9501(3) 0.5974(2) 0.11632(19)
C62_4 C 0.9223(4) 0.5477(3) 0.0784(2)
C63_4 C 0.9792(4) 0.5178(3) 0.0557(2)
C64_4 C 0.9551(3) 0.4682(3) 0.0167(2)
H44_4 H 0.9932 0.4468 0.0006
C65_4 C 0.8751(4) 0.4501(3) 0.0015(2)
C66_4 C 0.8196(4) 0.4815(3) 0.0248(2)
H45_4 H 0.7651 0.4692 0.0142
C67_4 C 0.8427(4) 0.5305(3) 0.0632(3)
H46_4 H 0.8046 0.5523 0.0790
C68_4 C 0.8509(4) 0.3970(3) 0.9607(2)
C50_4 C 0.8871(3) 0.1156(3) 0.9900(2)
C51_4 C 0.8080(3) 0.1334(3) 0.9827(2)
H35_4 H 0.7732 0.1082 0.9992
C52_4 C 0.7803(3) 0.1887(3) 0.9511(2)
H36_4 H 0.7261 0.2010 0.9469
C53_4 C 0.9018(4) 0.2066(4) 0.9318(3)
H37_4 H 0.9343 0.2316 0.9133
C54_4 C 0.9349(4) 0.1526(4) 0.9632(3)
H38_4 H 0.9891 0.1409 0.9663
O11_3 O 0.1505(3) 0.9865(2) 0.5693(2)
H33_3 H 0.9855 0.0274 0.5839
H43_4 H 0.0334 0.5307 0.0663
O11_4 O 0.1505(3) 0.0135(2) 0.0693(2)
N12_4 N 0.9956(3) 0.0497(2) 0.0375(2)
C49_4 C 0.9193(4) 0.0585(3) 0.0248(2)
H34_4 H 0.8849 0.0288 0.0378
H33_4 H 0.9855 0.9726 0.0839
loop_
_geom_bond_atom_site_label_1
_geom_bond_atom_site_label_2
_geom_bond_site_symmetry_1
_geom_bond_site_symmetry_2
C8 C7 1_555 1_555
C9 C8 1_555 1_555
H7 C9 1_555 1_555
C10 C9 1_555 1_555
I1 C10 1_555 1_555
C11 C10 1_555 1_555
H8 C11 1_555 1_555
Zn1 N1 1_555 1_555
N1 C1 1_555 1_555
C1 H1 1_555 1_555
C2 C1 1_555 1_555
H2 C2 1_555 1_555
C3 C2 1_555 1_555
C4 C3 1_555 1_555
H3 C4 1_555 1_555
C5 N1 1_555 1_555
H4 C5 1_555 1_555
C6 C3 1_555 1_555
H5 C6 1_555 1_555
N2 C6 1_555 1_555
N3 N2 1_555 1_555
C21 O3 1_555 1_555
O3 Zn1 1_555 1_555
O4 Zn1 1_555 1_555
C22 C21 1_555 1_555
C23 C22 1_555 1_555
H16 C23 1_555 1_555
C24 C23 1_555 1_555
H17 C24 1_555 1_555
C25 C24 1_555 1_555
C26 C25 1_555 1_555
H18 C26 1_555 1_555
C27 C22 1_555 1_555
H19 C27 1_555 1_555
O5 C25 1_555 1_555
C28 O5 1_555 1_555
C29 C28 1_555 1_555
H20 C29 1_555 1_555
C30 C29 1_555 1_555
H21 C30 1_555 1_555
C31 C30 1_555 1_555
C32 C31 1_555 1_555
H22 C32 1_555 1_555
C33 C28 1_555 1_555
H23 C33 1_555 1_555
C34 C31 1_555 1_555
O6 C34 1_555 1_555
O7 C34 1_555 1_555
Zn3 O6 1_555 1_555
N7 Zn1 1_555 1_555
O8 Zn1 1_555 1_555
O9 Zn1 1_555 1_555
C4 C5 1_555 1_555
C21 O4 1_555 1_555
C26 C27 1_555 1_555
C32 C33 1_555 1_555
O7 Zn3 1_555 1_555
H9 C13 1_555 1_555
C14 C12 1_555 1_555
O2 C14 1_555 1_555
N4 C14 1_555 1_555
H10 N4 1_555 1_555
N5 N4 1_555 1_555
C15 N5 1_555 1_555
H11 C15 1_555 1_555
C16 C15 1_555 1_555
C17 C16 1_555 1_555
H12 C17 1_555 1_555
C18 C17 1_555 1_555
C19 H14 1_555 1_555
C20 C16 1_555 1_555
H15 C20 1_555 1_555
N6 C18 1_555 1_555
C12 C13 1_555 1_555
C19 C20 1_555 1_555
C19 N6 1_555 1_555
C21_2 O3_2 1_555 1_555
C22_2 C21_2 1_555 1_555
C23_2 C22_2 1_555 1_555
H16_2 C23_2 1_555 1_555
C24_2 C23_2 1_555 1_555
H17_2 C24_2 1_555 1_555
C25_2 C24_2 1_555 1_555
C26_2 C25_2 1_555 1_555
H18_2 C26_2 1_555 1_555
C27_2 C22_2 1_555 1_555
H19_2 C27_2 1_555 1_555
O5_2 C25_2 1_555 1_555
C28_2 O5_2 1_555 1_555
C29_2 C28_2 1_555 1_555
H20_2 C29_2 1_555 1_555
C30_2 C29_2 1_555 1_555
H21_2 C30_2 1_555 1_555
C31_2 C30_2 1_555 1_555
C32_2 C31_2 1_555 1_555
H22_2 C32_2 1_555 1_555
C33_2 C28_2 1_555 1_555
H23_2 C33_2 1_555 1_555
C34_2 C31_2 1_555 1_555
O8 C34_2 1_555 1_555
O9 C34_2 1_555 1_555
C21_2 O4_2 1_555 1_555
C26_2 C27_2 1_555 1_555
C32_2 C33_2 1_555 1_555
Zn3 N1_2 1_555 1_555
N1_2 C1_2 1_555 1_555
C1_2 H1_2 1_555 1_555
C2_2 C1_2 1_555 1_555
H2_2 C2_2 1_555 1_555
C3_2 C2_2 1_555 1_555
C4_2 C3_2 1_555 1_555
H3_2 C4_2 1_555 1_555
C5_2 N1_2 1_555 1_555
H4_2 C5_2 1_555 1_555
C6_2 C3_2 1_555 1_555
H5_2 C6_2 1_555 1_555
N2_2 C6_2 1_555 1_555
N3_2 N2_2 1_555 1_555
C4_2 C5_2 1_555 1_555
H9_2 C13_2 1_555 1_555
C14_2 C12_2 1_555 1_555
O2_2 C14_2 1_555 1_555
N4_2 C14_2 1_555 1_555
H10_2 N4_2 1_555 1_555
N5_2 N4_2 1_555 1_555
C15_2 N5_2 1_555 1_555
H11_2 C15_2 1_555 1_555
C16_2 C15_2 1_555 1_555
C17_2 C16_2 1_555 1_555
H12_2 C17_2 1_555 1_555
C18_2 C17_2 1_555 1_555
H13_2 C18_2 1_555 1_555
C19_2 H14_2 1_555 1_555
C20_2 C16_2 1_555 1_555
H15_2 C20_2 1_555 1_555
N7 C18_2 1_555 1_555
C12_2 C13_2 1_555 1_555
C19_2 C20_2 1_555 1_555
C19_2 N7 1_555 1_555
C8_2 C7_2 1_555 1_555
C9_2 C8_2 1_555 1_555
H7_2 C9_2 1_555 1_555
C10_2 C9_2 1_555 1_555
I1_2 C10_2 1_555 1_555
C11_2 C10_2 1_555 1_555
H8_2 C11_2 1_555 1_555
C32_3 C31_3 1_555 1_555
H22_3 C32_3 1_555 1_555
C34_3 C31_3 1_555 1_555
O6_2 C34_3 1_555 1_555
O7_2 C34_3 1_555 1_555
Zn3_2 O6_2 1_555 1_555
O7_2 Zn3_2 1_555 1_555
Zn3_2 N1_3 1_555 1_555
N1_3 C1_3 1_555 1_555
C1_3 H1_3 1_555 1_555
C2_3 C1_3 1_555 1_555
H2_3 C2_3 1_555 1_555
C3_3 C2_3 1_555 1_555
C4_3 C3_3 1_555 1_555
H3_3 C4_3 1_555 1_555
C5_3 N1_3 1_555 1_555
H4_3 C5_3 1_555 1_555
C6_3 C3_3 1_555 1_555
H5_3 C6_3 1_555 1_555
N2_3 C6_3 1_555 1_555
N3_3 N2_3 1_555 1_555
H6_3 N3_3 1_555 1_555
C7_3 N3_3 1_555 1_555
O1_3 C7_3 1_555 1_555
C8_3 C7_3 1_555 1_555
C9_3 C8_3 1_555 1_555
H7_3 C9_3 1_555 1_555
C10_3 C9_3 1_555 1_555
I1_3 C10_3 1_555 1_555
C11_3 C10_3 1_555 1_555
H8_3 C11_3 1_555 1_555
C12_3 C11_3 1_555 1_555
C13_3 C8_3 1_555 1_555
H9_3 C13_3 1_555 1_555
C14_3 C12_3 1_555 1_555
O2_3 C14_3 1_555 1_555
N4_3 C14_3 1_555 1_555
H10_3 N4_3 1_555 1_555
N5_3 N4_3 1_555 1_555
C15_3 N5_3 1_555 1_555
H11_3 C15_3 1_555 1_555
C16_3 C15_3 1_555 1_555
C17_3 C16_3 1_555 1_555
H12_3 C17_3 1_555 1_555
C18_3 C17_3 1_555 1_555
H13_3 C18_3 1_555 1_555
C19_3 H14_3 1_555 1_555
C20_3 C16_3 1_555 1_555
H15_3 C20_3 1_555 1_555
N7_2 C18_3 1_555 1_555
C4_3 C5_3 1_555 1_555
C12_3 C13_3 1_555 1_555
C19_3 C20_3 1_555 1_555
C19_3 N7_2 1_555 1_555
Zn1_2 N1_4 1_555 1_555
N1_4 C1_4 1_555 1_555
C1_4 H1_4 1_555 1_555
C2_4 C1_4 1_555 1_555
H2_4 C2_4 1_555 1_555
C3_4 C2_4 1_555 1_555
C4_4 C3_4 1_555 1_555
H3_4 C4_4 1_555 1_555
C5_4 N1_4 1_555 1_555
H4_4 C5_4 1_555 1_555
C6_4 C3_4 1_555 1_555
H5_4 C6_4 1_555 1_555
N2_4 C6_4 1_555 1_555
N3_4 N2_4 1_555 1_555
H6_4 N3_4 1_555 1_555
C7_4 N3_4 1_555 1_555
O1_4 C7_4 1_555 1_555
C8_4 C7_4 1_555 1_555
C9_4 C8_4 1_555 1_555
H7_4 C9_4 1_555 1_555
C10_4 C9_4 1_555 1_555
I1_4 C10_4 1_555 1_555
C11_4 C10_4 1_555 1_555
H8_4 C11_4 1_555 1_555
C12_4 C11_4 1_555 1_555
C13_4 C8_4 1_555 1_555
H9_4 C13_4 1_555 1_555
C14_4 C12_4 1_555 1_555
O2_4 C14_4 1_555 1_555
N4_4 C14_4 1_555 1_555
H10_4 N4_4 1_555 1_555
N5_4 N4_4 1_555 1_555
C15_4 N5_4 1_555 1_555
H11_4 C15_4 1_555 1_555
C16_4 C15_4 1_555 1_555
C17_4 C16_4 1_555 1_555
H12_4 C17_4 1_555 1_555
C18_4 C17_4 1_555 1_555
C19_4 H14_4 1_555 1_555
C20_4 C16_4 1_555 1_555
H15_4 C20_4 1_555 1_555
N6_2 C18_4 1_555 1_555
C21_3 O3_3 1_555 1_555
O3_3 Zn1_2 1_555 1_555
O4_3 Zn1_2 1_555 1_555
C22_3 C21_3 1_555 1_555
C23_3 C22_3 1_555 1_555
H16_3 C23_3 1_555 1_555
C24_3 C23_3 1_555 1_555
H17_3 C24_3 1_555 1_555
C25_3 C24_3 1_555 1_555
C26_3 C25_3 1_555 1_555
H18_3 C26_3 1_555 1_555
C27_3 C22_3 1_555 1_555
H19_3 C27_3 1_555 1_555
O5_3 C25_3 1_555 1_555
C28_3 O5_3 1_555 1_555
C29_3 C28_3 1_555 1_555
H20_3 C29_3 1_555 1_555
C30_3 C29_3 1_555 1_555
C33_3 C28_3 1_555 1_555
H23_3 C33_3 1_555 1_555
O8_2 Zn1_2 1_555 1_555
O9_2 Zn1_2 1_555 1_555
C4_4 C5_4 1_555 1_555
C12_4 C13_4 1_555 1_555
C19_4 C20_4 1_555 1_555
C19_4 N6_2 1_555 1_555
C21_3 O4_3 1_555 1_555
C26_3 C27_3 1_555 1_555
C32_4 C31_4 1_555 1_555
H22_4 C32_4 1_555 1_555
C34_4 C31_4 1_555 1_555
O8_2 C34_4 1_555 1_555
O9_2 C34_4 1_555 1_555
C21_4 O3_4 1_555 1_555
C22_4 C21_4 1_555 1_555
C23_4 C22_4 1_555 1_555
H16_4 C23_4 1_555 1_555
C24_4 C23_4 1_555 1_555
H17_4 C24_4 1_555 1_555
C25_4 C24_4 1_555 1_555
C26_4 C25_4 1_555 1_555
H18_4 C26_4 1_555 1_555
C27_4 C22_4 1_555 1_555
H19_4 C27_4 1_555 1_555
O5_4 C25_4 1_555 1_555
C28_4 O5_4 1_555 1_555
C29_4 C28_4 1_555 1_555
H20_4 C29_4 1_555 1_555
C30_4 C29_4 1_555 1_555
C33_4 C28_4 1_555 1_555
H23_4 C33_4 1_555 1_555
C21_4 O4_4 1_555 1_555
C26_4 C27_4 1_555 1_555
H44 C64 1_555 1_555
C65 C64 1_555 1_555
C66 C65 1_555 1_555
H45 C66 1_555 1_555
C68 C65 1_555 1_555
O15 C68 1_555 1_555
O16 C68 1_555 1_555
Zn6 O15 1_555 1_555
O16 Zn6 1_555 1_555
H28 C40 1_555 1_555
N9 C40 1_555 1_555
N10 N9 1_555 1_555
H29 N10 1_555 1_555
C41 N10 1_555 1_555
O10 C41 1_555 1_555
C42 C41 1_555 1_555
C43 C42 1_555 1_555
H30 C43 1_555 1_555
C44 C43 1_555 1_555
I2 C44 1_555 1_555
C45 C44 1_555 1_555
H31 C45 1_555 1_555
C46 C45 1_555 1_555
C47 C42 1_555 1_555
H32 C47 1_555 1_555
C48 C46 1_555 1_555
O11 C48 1_555 1_555
N11 C48 1_555 1_555
H33 N11 1_555 1_555
N12 N11 1_555 1_555
C49 N12 1_555 1_555
H34 C49 1_555 1_555
C50 C49 1_555 1_555
C51 C50 1_555 1_555
H35 C51 1_555 1_555
C52 C51 1_555 1_555
H36 C52 1_555 1_555
C53 H37 1_555 1_555
C54 C50 1_555 1_555
H38 C54 1_555 1_555
N13 C52 1_555 1_555
Zn6 N13 1_555 1_555
C46 C47 1_555 1_555
C53 C54 1_555 1_555
C53 N13 1_555 1_555
Zn6 N8 1_555 1_555
N8 C35 1_555 1_555
C35 H24 1_555 1_555
C36 C35 1_555 1_555
C37 C36 1_555 1_555
C38 C37 1_555 1_555
H26 C38 1_555 1_555
C39 N8 1_555 1_555
H27 C39 1_555 1_555
C55 O12 1_555 1_555
O12 Zn6 1_555 1_555
O13 Zn6 1_555 1_555
C56 C55 1_555 1_555
C57 C56 1_555 1_555
H39 C57 1_555 1_555
C58 C57 1_555 1_555
H40 C58 1_555 1_555
C59 C58 1_555 1_555
C60 C59 1_555 1_555
H41 C60 1_555 1_555
C61 C56 1_555 1_555
H42 C61 1_555 1_555
O14 C59 1_555 1_555
C62 O14 1_555 1_555
C63 C62 1_555 1_555
H43 C63 1_555 1_555
C67 C62 1_555 1_555
H46 C67 1_555 1_555
C38 C39 1_555 1_555
C55 O13 1_555 1_555
C60 C61 1_555 1_555
Zn4 N8_2 1_555 1_555
N8_2 C35_2 1_555 1_555
C35_2 H24_2 1_555 1_555
C36_2 C35_2 1_555 1_555
C37_2 C36_2 1_555 1_555
C38_2 C37_2 1_555 1_555
H26_2 C38_2 1_555 1_555
C39_2 N8_2 1_555 1_555
H27_2 C39_2 1_555 1_555
C55_2 O12_2 1_555 1_555
O12_2 Zn4 1_555 1_555
O13_2 Zn4 1_555 1_555
C56_2 C55_2 1_555 1_555
C57_2 C56_2 1_555 1_555
H39_2 C57_2 1_555 1_555
C58_2 C57_2 1_555 1_555
H40_2 C58_2 1_555 1_555
C59_2 C58_2 1_555 1_555
C60_2 C59_2 1_555 1_555
H41_2 C60_2 1_555 1_555
C61_2 C56_2 1_555 1_555
H42_2 C61_2 1_555 1_555
O14_2 C59_2 1_555 1_555
C62_2 O14_2 1_555 1_555
C63_2 C62_2 1_555 1_555
H43_2 C63_2 1_555 1_555
C67_2 C62_2 1_555 1_555
H46_2 C67_2 1_555 1_555
N14 Zn4 1_555 1_555
O17 Zn4 1_555 1_555
O18 Zn4 1_555 1_555
C38_2 C39_2 1_555 1_555
C55_2 O13_2 1_555 1_555
C60_2 C61_2 1_555 1_555
O17 C68_2 1_555 1_555
O18 C68_2 1_555 1_555
C51_2 C50_2 1_555 1_555
H35_2 C51_2 1_555 1_555
C52_2 C51_2 1_555 1_555
H36_2 C52_2 1_555 1_555
C53_2 H37_2 1_555 1_555
C54_2 C50_2 1_555 1_555
H38_2 C54_2 1_555 1_555
N14 C52_2 1_555 1_555
C53_2 C54_2 1_555 1_555
C53_2 N14 1_555 1_555
H44_2 C64_2 1_555 1_555
C65_2 C64_2 1_555 1_555
C66_2 C65_2 1_555 1_555
H45_2 C66_2 1_555 1_555
H28_2 C40_2 1_555 1_555
N9_2 C40_2 1_555 1_555
N10_2 N9_2 1_555 1_555
H29_2 N10_2 1_555 1_555
C41_2 N10_2 1_555 1_555
O10_2 C41_2 1_555 1_555
C42_2 C41_2 1_555 1_555
C43_2 C42_2 1_555 1_555
H30_2 C43_2 1_555 1_555
C44_2 C43_2 1_555 1_555
I2_2 C44_2 1_555 1_555
C45_2 C44_2 1_555 1_555
H31_2 C45_2 1_555 1_555
C46_2 C45_2 1_555 1_555
C47_2 C42_2 1_555 1_555
H32_2 C47_2 1_555 1_555
C48_2 C46_2 1_555 1_555
O11_2 C48_2 1_555 1_555
N11_2 C48_2 1_555 1_555
H33_2 N11_2 1_555 1_555
N12_2 N11_2 1_555 1_555
C49_2 N12_2 1_555 1_555
H34_2 C49_2 1_555 1_555
C46_2 C47_2 1_555 1_555
Zn4_2 N8_3 1_555 1_555
N8_3 C35_3 1_555 1_555
C35_3 H24_3 1_555 1_555
C36_3 C35_3 1_555 1_555
H25_3 C36_3 1_555 1_555
C37_3 C36_3 1_555 1_555
C38_3 C37_3 1_555 1_555
H26_3 C38_3 1_555 1_555
C39_3 N8_3 1_555 1_555
H27_3 C39_3 1_555 1_555
C40_3 C37_3 1_555 1_555
H28_3 C40_3 1_555 1_555
N9_3 C40_3 1_555 1_555
N10_3 N9_3 1_555 1_555
H29_3 N10_3 1_555 1_555
C41_3 N10_3 1_555 1_555
O10_3 C41_3 1_555 1_555
C42_3 C41_3 1_555 1_555
C43_3 C42_3 1_555 1_555
H30_3 C43_3 1_555 1_555
C44_3 C43_3 1_555 1_555
I2_3 C44_3 1_555 1_555
C45_3 C44_3 1_555 1_555
H31_3 C45_3 1_555 1_555
C46_3 C45_3 1_555 1_555
C47_3 C42_3 1_555 1_555
H32_3 C47_3 1_555 1_555
C48_3 C46_3 1_555 1_555
N11_3 C48_3 1_555 1_555
C55_3 O12_3 1_555 1_555
O12_3 Zn4_2 1_555 1_555
O13_3 Zn4_2 1_555 1_555
C56_3 C55_3 1_555 1_555
C57_3 C56_3 1_555 1_555
H39_3 C57_3 1_555 1_555
C58_3 C57_3 1_555 1_555
H40_3 C58_3 1_555 1_555
C59_3 C58_3 1_555 1_555
C60_3 C59_3 1_555 1_555
H41_3 C60_3 1_555 1_555
C61_3 C56_3 1_555 1_555
H42_3 C61_3 1_555 1_555
O14_3 C59_3 1_555 1_555
C62_3 O14_3 1_555 1_555
C63_3 C62_3 1_555 1_555
C64_3 C63_3 1_555 1_555
H44_3 C64_3 1_555 1_555
C65_3 C64_3 1_555 1_555
C66_3 C65_3 1_555 1_555
H45_3 C66_3 1_555 1_555
C67_3 C62_3 1_555 1_555
H46_3 C67_3 1_555 1_555
C68_3 C65_3 1_555 1_555
O15_2 C68_3 1_555 1_555
O16_2 C68_3 1_555 1_555
Zn6_2 O15_2 1_555 1_555
N14_2 Zn4_2 1_555 1_555
O17_2 Zn4_2 1_555 1_555
O18_2 Zn4_2 1_555 1_555
C38_3 C39_3 1_555 1_555
C46_3 C47_3 1_555 1_555
C55_3 O13_3 1_555 1_555
C60_3 C61_3 1_555 1_555
C66_3 C67_3 1_555 1_555
O16_2 Zn6_2 1_555 1_555
C49_3 N12_3 1_555 1_555
H34_3 C49_3 1_555 1_555
C50_3 C49_3 1_555 1_555
C51_3 C50_3 1_555 1_555
H35_3 C51_3 1_555 1_555
C52_3 C51_3 1_555 1_555
H36_3 C52_3 1_555 1_555
C53_3 H37_3 1_555 1_555
C54_3 C50_3 1_555 1_555
H38_3 C54_3 1_555 1_555
N13_2 C52_3 1_555 1_555
Zn6_2 N13_2 1_555 1_555
C53_3 C54_3 1_555 1_555
C53_3 N13_2 1_555 1_555
Zn6_2 N8_4 1_555 1_555
N8_4 C35_4 1_555 1_555
C35_4 H24_4 1_555 1_555
C36_4 C35_4 1_555 1_555
H25_4 C36_4 1_555 1_555
C37_4 C36_4 1_555 1_555
C38_4 C37_4 1_555 1_555
H26_4 C38_4 1_555 1_555
C39_4 N8_4 1_555 1_555
H27_4 C39_4 1_555 1_555
C40_4 C37_4 1_555 1_555
H28_4 C40_4 1_555 1_555
N9_4 C40_4 1_555 1_555
N10_4 N9_4 1_555 1_555
H29_4 N10_4 1_555 1_555
C41_4 N10_4 1_555 1_555
O10_4 C41_4 1_555 1_555
C42_4 C41_4 1_555 1_555
C43_4 C42_4 1_555 1_555
H30_4 C43_4 1_555 1_555
C44_4 C43_4 1_555 1_555
I2_4 C44_4 1_555 1_555
C45_4 C44_4 1_555 1_555
H31_4 C45_4 1_555 1_555
C46_4 C45_4 1_555 1_555
C47_4 C42_4 1_555 1_555
H32_4 C47_4 1_555 1_555
C48_4 C46_4 1_555 1_555
N11_4 C48_4 1_555 1_555
C55_4 O12_4 1_555 1_555
O12_4 Zn6_2 1_555 1_555
O13_4 Zn6_2 1_555 1_555
C56_4 C55_4 1_555 1_555
C57_4 C56_4 1_555 1_555
H39_4 C57_4 1_555 1_555
C58_4 C57_4 1_555 1_555
H40_4 C58_4 1_555 1_555
C59_4 C58_4 1_555 1_555
C60_4 C59_4 1_555 1_555
H41_4 C60_4 1_555 1_555
C61_4 C56_4 1_555 1_555
H42_4 C61_4 1_555 1_555
O14_4 C59_4 1_555 1_555
C62_4 O14_4 1_555 1_555
C63_4 C62_4 1_555 1_555
C64_4 C63_4 1_555 1_555
H44_4 C64_4 1_555 1_555
C65_4 C64_4 1_555 1_555
C66_4 C65_4 1_555 1_555
H45_4 C66_4 1_555 1_555
C67_4 C62_4 1_555 1_555
H46_4 C67_4 1_555 1_555
C38_4 C39_4 1_555 1_555
C46_4 C47_4 1_555 1_555
C55_4 O13_4 1_555 1_555
C60_4 C61_4 1_555 1_555
C66_4 C67_4 1_555 1_555
O17_2 C68_4 1_555 1_555
O18_2 C68_4 1_555 1_555
C51_4 C50_4 1_555 1_555
H35_4 C51_4 1_555 1_555
C52_4 C51_4 1_555 1_555
H36_4 C52_4 1_555 1_555
C53_4 H37_4 1_555 1_555
C54_4 C50_4 1_555 1_555
H38_4 C54_4 1_555 1_555
N14_2 C52_4 1_555 1_555
C53_4 C54_4 1_555 1_555
C53_4 N14_2 1_555 1_555
C49_4 N12_4 1_555 1_555
H34_4 C49_4 1_555 1_555

#END
