
###############################################################################
#
# This file contains modified crystal structure data generated from the
# MOF subset of the Cambridge Structural Database (CSD) v543 
# hosted by the Cambridge Crystallographic Data Centre (CCDC).
#
# This work is licensed under the Creative Commons
# Attribution-NonCommercial-ShareAlike 4.0 International License.
# To view a copy of this license, visit
# http://creativecommons.org/licenses/by-nc-sa/4.0/
# or send a letter to
# Creative Commons, PO Box 1866, Mountain View, CA 94042, USA.
#
# CIF created using the CSD Python API on 29 September 2022
# The structure has been converted into the P1 space group
# The structure has a 3D framework
# The original CSD entry GEGSIW is in the orthorhombic crystal system
# The framework has been calculated to contain at least 10.0% void space
# The void calculation uses a probe of radius 1.32A, grid spacing 0.4
# H atom positions have been added when not included in the experimental data
# Generated hydrogen atom positions removed from atoms on special positions
#
###############################################################################

data_GEGSIW
_chemical_formula_moiety         '(C168 H148 Ca16 N52 O80)n'
_symmetry_cell_setting           triclinic
_symmetry_space_group_name_H-M   'P 1'
_symmetry_Int_Tables_number      1
_space_group_name_Hall           'P 1'
loop_
_symmetry_equiv_pos_site_id
_symmetry_equiv_pos_as_xyz
1 x,y,z
_cell_length_a                   19.346(2)
_cell_length_b                   24.081(3)
_cell_length_c                   14.2543(15)
_cell_angle_alpha                90
_cell_angle_beta                 90
_cell_angle_gamma                90
_cell_volume                     6640.67
loop_
_atom_site_label
_atom_site_type_symbol
_atom_site_fract_x
_atom_site_fract_y
_atom_site_fract_z
C8 C 0.24926(18) 0.05868(13) 0.1756(2)
H4 H 0.2491 0.0470 0.1134
N1 N 0.24873(14) 0.11023(10) 0.20176(18)
N4 N 0.2500 0.02405(14) 0.2500
C17 C 0.25074(18) 0.05868(13) 0.3244(2)
H7 H 0.2509 0.0470 0.3866
Ca3 Ca 0.23962(3) 0.20080(2) 0.11082(4)
Ca7 Ca 0.26038(3) 0.20080(2) 0.38918(4)
N5 N 0.25127(14) 0.11023(10) 0.29824(18)
C1 C 0.25502(13) 0.84759(11) 0.07310(18)
C2 C 0.2500 0.84935(15) 0.2500
H1 H 0.2500 0.8107 0.2500
C3 C 0.25378(14) 0.93583(12) 0.16558(19)
H2 H 0.2566 0.9553 0.1094
C4 C 0.25334(13) 0.87801(11) 0.16548(17)
C5 C 0.2500 0.96405(16) 0.2500
O4 O 0.26051(10) 0.79544(7) 0.07366(15)
C13 C 0.24498(13) 0.84759(11) 0.42690(18)
C14 C 0.24622(14) 0.93583(12) 0.33442(19)
H6 H 0.2434 0.9553 0.3906
C15 C 0.24666(13) 0.87801(11) 0.33452(17)
Ca2 Ca 0.26038(3) 0.79920(2) 0.61082(4)
Ca5 Ca 0.26038(3) 0.70080(2) 0.11082(4)
Ca6 Ca 0.23962(3) 0.70080(2) 0.38918(4)
N7 N 0.25127(14) 0.88977(10) 0.70176(18)
O8 O 0.17859(9) 0.77861(8) 0.74543(10)
O9 O 0.32141(9) 0.77861(8) 0.75457(10)
O11 O 0.13447(10) 0.78523(10) 0.60247(13)
O12 O 0.24852(12) 0.87502(9) 0.50021(15)
O13 O 0.23949(10) 0.79544(7) 0.42634(15)
O15 O 0.26051(10) 0.70456(7) 0.57366(15)
O16 O 0.37473(12) 0.79454(10) 0.54066(17)
H11 H 0.12622 0.812507 0.0220293
C6 C 0.37077(13) 0.77317(11) 0.81163(19)
C7 C 0.5000 0.76776(18) 0.8158(3)
H3 H 0.5000 0.7895 0.8698
C9 C 0.5000 0.69531(18) 0.6650(3)
C10 C 0.43787(13) 0.75116(12) 0.7746(2)
C11 C 0.43796(14) 0.71506(13) 0.7004(2)
H5 H 0.3964 0.7038 0.6738
C12 C 0.5535(3) 0.6298(3) 0.5539(6)
Ca1 Ca 0.23962(3) 0.79920(2) 0.88918(4)
N2 N 0.5000 0.65418(17) 0.5931(3)
N3 N 0.5336(2) 0.5896(2) 0.4963(4)
O2 O 0.36553(10) 0.78523(10) 0.89753(13)
O3 O 0.25148(12) 0.87502(9) 0.99979(15)
O5 O 0.12527(12) 0.79454(10) 0.95934(17)
C16 C 0.62923(13) 0.77317(11) 0.81163(19)
C18 C 0.56213(13) 0.75116(12) 0.7746(2)
C19 C 0.56204(14) 0.71506(13) 0.7004(2)
H8 H 0.6036 0.7038 0.6738
C20 C 0.4465(3) 0.6298(3) 0.5539(6)
Ca8 Ca 0.76038(3) 0.79920(2) 0.88918(4)
Ca9 Ca 0.73962(3) 0.79920(2) 0.61082(4)
N6 N 0.24873(14) 0.88977(10) 0.79824(18)
N8 N 0.4664(2) 0.5896(2) 0.4963(4)
O6 O 0.67859(9) 0.77861(8) 0.75457(10)
O10 O 0.63447(10) 0.78523(10) 0.89753(13)
O14 O 0.23949(10) 0.70456(7) 0.92634(15)
H9 H 0.607135 0.641125 0.567001
H14 H 0.392865 0.641125 0.567001
Ca2_2 Ca 0.73962(3) 0.70080(2) 0.11082(4)
N7_2 N 0.74873(14) 0.61023(10) 0.20176(18)
O8_2 O 0.82141(9) 0.72139(8) 0.24543(10)
O9_2 O 0.67859(9) 0.72139(8) 0.25457(10)
O11_2 O 0.86553(10) 0.71477(10) 0.10247(13)
O12_2 O 0.75148(12) 0.62498(9) 0.00021(15)
O15_2 O 0.73949(10) 0.79544(7) 0.07366(15)
O16_2 O 0.62527(12) 0.70546(10) 0.04066(17)
C1_2 C 0.74498(13) 0.65241(11) 0.57310(18)
C2_2 C 0.7500 0.65065(15) 0.7500
H1_2 H 0.7500 0.6893 0.7500
C3_2 C 0.74622(14) 0.56417(12) 0.66558(19)
H2_2 H 0.7434 0.5447 0.6094
C4_2 C 0.74666(13) 0.62199(11) 0.66548(17)
C5_2 C 0.7500 0.53595(16) 0.7500
C6_2 C 0.62923(13) 0.72683(11) 0.31163(19)
C7_2 C 0.5000 0.73224(18) 0.3158(3)
H3_2 H 0.5000 0.7105 0.3698
C8_2 C 0.75074(18) 0.44132(13) 0.6756(2)
H4_2 H 0.7509 0.4530 0.6134
C9_2 C 0.5000 0.80469(18) 0.1650(3)
C10_2 C 0.56213(13) 0.74884(12) 0.2746(2)
C11_2 C 0.56204(14) 0.78494(13) 0.2004(2)
H5_2 H 0.6036 0.7962 0.1738
C12_2 C 0.4465(3) 0.8702(3) 0.0539(6)
Ca1_2 Ca 0.76038(3) 0.70080(2) 0.38918(4)
N1_2 N 0.75127(14) 0.38977(10) 0.70176(18)
N2_2 N 0.5000 0.84582(17) 0.0931(3)
N4_2 N 0.7500 0.47595(14) 0.7500
O2_2 O 0.63447(10) 0.71477(10) 0.39753(13)
O3_2 O 0.74852(12) 0.62498(9) 0.49979(15)
O4_2 O 0.73949(10) 0.70456(7) 0.57366(15)
O5_2 O 0.87473(12) 0.70546(10) 0.45934(17)
C13_2 C 0.75502(13) 0.65241(11) 0.92690(18)
C14_2 C 0.75378(14) 0.56417(12) 0.83442(19)
H6_2 H 0.7566 0.5447 0.8906
C15_2 C 0.75334(13) 0.62199(11) 0.83452(17)
C16_2 C 0.37077(13) 0.72683(11) 0.31163(19)
C17_2 C 0.74926(18) 0.44132(13) 0.8244(2)
H7_2 H 0.7491 0.4530 0.8866
C18_2 C 0.43787(13) 0.74884(12) 0.2746(2)
C19_2 C 0.43796(14) 0.78494(13) 0.2004(2)
H8_2 H 0.3964 0.7962 0.1738
C20_2 C 0.5535(3) 0.8702(3) 0.0539(6)
Ca3_2 Ca 0.76038(3) 0.29920(2) 0.61082(4)
Ca7_2 Ca 0.73962(3) 0.29920(2) 0.88918(4)
N5_2 N 0.74873(14) 0.38977(10) 0.79824(18)
N6_2 N 0.75127(14) 0.61023(10) 0.29824(18)
O6_2 O 0.32141(9) 0.72139(8) 0.25457(10)
O10_2 O 0.36553(10) 0.71477(10) 0.39753(13)
O13_2 O 0.76051(10) 0.70456(7) 0.92634(15)
O14_2 O 0.76051(10) 0.79544(7) 0.42634(15)
H9_2 H 0.392865 0.858875 0.0670009
H14_2 H 0.607135 0.858875 0.0670009
C1_3 C 0.74498(13) 0.34759(11) 0.42690(18)
C2_3 C 0.7500 0.34935(15) 0.2500
H1_3 H 0.7500 0.3107 0.2500
C3_3 C 0.74622(14) 0.43583(12) 0.33442(19)
H2_3 H 0.7434 0.4553 0.3906
C4_3 C 0.74666(13) 0.37801(11) 0.33452(17)
C5_3 C 0.7500 0.46405(16) 0.2500
C6_3 C 0.62923(13) 0.27317(11) 0.68837(19)
C7_3 C 0.5000 0.26776(18) 0.6842(3)
H3_3 H 0.5000 0.2895 0.6302
C8_3 C 0.75074(18) 0.55868(13) 0.3244(2)
H4_3 H 0.7509 0.5470 0.3866
C9_3 C 0.5000 0.19531(18) 0.8350(3)
C10_3 C 0.56213(13) 0.25116(12) 0.7254(2)
C11_3 C 0.56204(14) 0.21506(13) 0.7996(2)
H5_3 H 0.6036 0.2038 0.8262
C12_3 C 0.4465(3) 0.1298(3) 0.9461(6)
N2_3 N 0.5000 0.15418(17) 0.9069(3)
N4_3 N 0.7500 0.52405(14) 0.2500
O1 O 0.67859(9) 0.27861(8) 0.74543(10)
O2_3 O 0.63447(10) 0.28523(10) 0.60247(13)
O3_3 O 0.74852(12) 0.37502(9) 0.50021(15)
O4_3 O 0.73949(10) 0.29544(7) 0.42634(15)
O5_3 O 0.87473(12) 0.29454(10) 0.54066(17)
C13_3 C 0.75502(13) 0.34759(11) 0.07310(18)
C14_3 C 0.75378(14) 0.43583(12) 0.16558(19)
H6_3 H 0.7566 0.4553 0.1094
C15_3 C 0.75334(13) 0.37801(11) 0.16548(17)
C16_3 C 0.37077(13) 0.27317(11) 0.68837(19)
C17_3 C 0.74926(18) 0.55868(13) 0.1756(2)
H7_3 H 0.7491 0.5470 0.1134
C18_3 C 0.43787(13) 0.25116(12) 0.7254(2)
C19_3 C 0.43796(14) 0.21506(13) 0.7996(2)
H8_3 H 0.3964 0.2038 0.8262
C20_3 C 0.5535(3) 0.1298(3) 0.9461(6)
Ca5_2 Ca 0.73962(3) 0.20080(2) 0.38918(4)
Ca6_2 Ca 0.76038(3) 0.20080(2) 0.11082(4)
Ca8_2 Ca 0.23962(3) 0.29920(2) 0.61082(4)
Ca9_2 Ca 0.26038(3) 0.29920(2) 0.88918(4)
O6_3 O 0.32141(9) 0.27861(8) 0.74543(10)
O7 O 0.82141(9) 0.27861(8) 0.75457(10)
O10_3 O 0.36553(10) 0.28523(10) 0.60247(13)
O13_3 O 0.76051(10) 0.29544(7) 0.07366(15)
O14_3 O 0.76051(10) 0.20456(7) 0.57366(15)
H9_3 H 0.392865 0.141125 0.932999
H14_3 H 0.607135 0.141125 0.932999
O11_3 O 0.86553(10) 0.28523(10) 0.89753(13)
O12_3 O 0.75148(12) 0.37502(9) 0.99979(15)
O15_3 O 0.73949(10) 0.20456(7) 0.92634(15)
O16_3 O 0.62527(12) 0.29454(10) 0.95934(17)
C6_4 C 0.37077(13) 0.22683(11) 0.18837(19)
C7_4 C 0.5000 0.23224(18) 0.1842(3)
H3_4 H 0.5000 0.2105 0.1302
C9_4 C 0.5000 0.30469(18) 0.3350(3)
C10_4 C 0.43787(13) 0.24884(12) 0.2254(2)
C11_4 C 0.43796(14) 0.28494(13) 0.2996(2)
H5_4 H 0.3964 0.2962 0.3262
C12_4 C 0.5535(3) 0.3702(3) 0.4461(6)
N2_4 N 0.5000 0.34582(17) 0.4069(3)
N3_2 N 0.5336(2) 0.4104(2) 0.5037(4)
O1_2 O 0.32141(9) 0.22139(8) 0.24543(10)
O2_4 O 0.36553(10) 0.21477(10) 0.10247(13)
O3_4 O 0.25148(12) 0.12498(9) 0.00021(15)
O5_4 O 0.12527(12) 0.20546(10) 0.04066(17)
C16_4 C 0.62923(13) 0.22683(11) 0.18837(19)
C18_4 C 0.56213(13) 0.24884(12) 0.2254(2)
C19_4 C 0.56204(14) 0.28494(13) 0.2996(2)
H8_4 H 0.6036 0.2962 0.3262
C20_4 C 0.4465(3) 0.3702(3) 0.4461(6)
N8_2 N 0.4664(2) 0.4104(2) 0.5037(4)
O6_4 O 0.67859(9) 0.22139(8) 0.24543(10)
O7_2 O 0.17859(9) 0.22139(8) 0.25457(10)
O10_4 O 0.63447(10) 0.21477(10) 0.10247(13)
O14_4 O 0.23949(10) 0.29544(7) 0.07366(15)
H9_4 H 0.607135 0.358875 0.432999
H14_4 H 0.392865 0.358875 0.432999
C1_4 C 0.25502(13) 0.15241(11) 0.92690(18)
C2_4 C 0.2500 0.15065(15) 0.7500
H1_4 H 0.2500 0.1893 0.7500
C3_4 C 0.25378(14) 0.06417(12) 0.83442(19)
H2_4 H 0.2566 0.0447 0.8906
C4_4 C 0.25334(13) 0.12199(11) 0.83452(17)
C5_4 C 0.2500 0.03595(16) 0.7500
O4_4 O 0.26051(10) 0.20456(7) 0.92634(15)
C13_4 C 0.24498(13) 0.15241(11) 0.57310(18)
C14_4 C 0.24622(14) 0.06417(12) 0.66558(19)
H6_4 H 0.2434 0.0447 0.6094
C15_4 C 0.24666(13) 0.12199(11) 0.66548(17)
O11_4 O 0.13447(10) 0.21477(10) 0.39753(13)
O12_4 O 0.24852(12) 0.12498(9) 0.49979(15)
O13_4 O 0.23949(10) 0.20456(7) 0.57366(15)
O15_4 O 0.26051(10) 0.29544(7) 0.42634(15)
O16_4 O 0.37473(12) 0.20546(10) 0.45934(17)
H11_2 H 0.12622 0.187493 0.977971
C8_4 C 0.24926(18) 0.94132(13) 0.8244(2)
H4_4 H 0.2491 0.9530 0.8866
N4_4 N 0.2500 0.97595(14) 0.7500
C17_4 C 0.25074(18) 0.94132(13) 0.6756(2)
H7_4 H 0.2509 0.9530 0.6134
C7_5 C -0.0000 0.26776(18) 0.8158(3)
H3_5 H -0.0000 0.2895 0.8698
C9_5 C -0.0000 0.19531(18) 0.6650(3)
C12_5 C 0.0535(3) 0.1298(3) 0.5539(6)
N2_5 N -0.0000 0.15418(17) 0.5931(3)
N3_3 N 0.0336(2) 0.0896(2) 0.4963(4)
C16_5 C 0.12923(13) 0.27317(11) 0.81163(19)
C18_5 C 0.06213(13) 0.25116(12) 0.7746(2)
C19_5 C 0.06204(14) 0.21506(13) 0.7004(2)
H8_5 H 0.1036 0.2038 0.6738
O6_5 O 0.17859(9) 0.27861(8) 0.75457(10)
O10_5 O 0.13447(10) 0.28523(10) 0.89753(13)
H9_5 H 0.107135 0.141125 0.567001
H11_3 H 0.62622 0.312507 0.0220293
C6_5 C 0.87077(13) 0.27317(11) 0.81163(19)
C7_6 C 1.0000 0.26776(18) 0.8158(3)
H3_6 H 1.0000 0.2895 0.8698
C9_6 C 1.0000 0.19531(18) 0.6650(3)
C10_5 C 0.93787(13) 0.25116(12) 0.7746(2)
C11_5 C 0.93796(14) 0.21506(13) 0.7004(2)
H5_5 H 0.8964 0.2038 0.6738
N2_6 N 1.0000 0.15418(17) 0.5931(3)
C20_5 C 0.9465(3) 0.1298(3) 0.5539(6)
N8_3 N 0.9664(2) 0.0896(2) 0.4963(4)
H14_5 H 0.892865 0.141125 0.567001
C6_6 C 0.12923(13) 0.22683(11) 0.31163(19)
C7_7 C 0.0000 0.23224(18) 0.3158(3)
H3_7 H 0.0000 0.2105 0.3698
C9_7 C 0.0000 0.30469(18) 0.1650(3)
C10_6 C 0.06213(13) 0.24884(12) 0.2746(2)
C11_6 C 0.06204(14) 0.28494(13) 0.2004(2)
H5_6 H 0.1036 0.2962 0.1738
N2_7 N 0.0000 0.34582(17) 0.0931(3)
C20_6 C 0.0535(3) 0.3702(3) 0.0539(6)
H14_6 H 0.107135 0.358875 0.0670009
C7_8 C 1.0000 0.23224(18) 0.3158(3)
H3_8 H 1.0000 0.2105 0.3698
C9_8 C 1.0000 0.30469(18) 0.1650(3)
C12_6 C 0.9465(3) 0.3702(3) 0.0539(6)
N2_8 N 1.0000 0.34582(17) 0.0931(3)
C16_6 C 0.87077(13) 0.22683(11) 0.31163(19)
C18_6 C 0.93787(13) 0.24884(12) 0.2746(2)
C19_6 C 0.93796(14) 0.28494(13) 0.2004(2)
H8_6 H 0.8964 0.2962 0.1738
O6_6 O 0.82141(9) 0.22139(8) 0.25457(10)
O10_6 O 0.86553(10) 0.21477(10) 0.39753(13)
H9_6 H 0.892865 0.358875 0.0670009
C6_7 C 0.12923(13) 0.77317(11) 0.68837(19)
C7_9 C 0.0000 0.76776(18) 0.6842(3)
H3_9 H 0.0000 0.7895 0.6302
C9_9 C 0.0000 0.69531(18) 0.8350(3)
C10_7 C 0.06213(13) 0.75116(12) 0.7254(2)
C11_7 C 0.06204(14) 0.71506(13) 0.7996(2)
H5_7 H 0.1036 0.7038 0.8262
N2_9 N 0.0000 0.65418(17) 0.9069(3)
C20_7 C 0.0535(3) 0.6298(3) 0.9461(6)
H14_7 H 0.107135 0.641125 0.932999
C7_10 C 1.0000 0.76776(18) 0.6842(3)
H3_10 H 1.0000 0.7895 0.6302
C9_10 C 1.0000 0.69531(18) 0.8350(3)
C12_7 C 0.9465(3) 0.6298(3) 0.9461(6)
N2_10 N 1.0000 0.65418(17) 0.9069(3)
C16_7 C 0.87077(13) 0.77317(11) 0.68837(19)
C18_7 C 0.93787(13) 0.75116(12) 0.7254(2)
C19_7 C 0.93796(14) 0.71506(13) 0.7996(2)
H8_7 H 0.8964 0.7038 0.8262
O6_7 O 0.82141(9) 0.77861(8) 0.74543(10)
O10_7 O 0.86553(10) 0.78523(10) 0.60247(13)
H9_7 H 0.892865 0.641125 0.932999
C7_11 C -0.0000 0.73224(18) 0.1842(3)
H3_11 H -0.0000 0.7105 0.1302
C9_11 C -0.0000 0.80469(18) 0.3350(3)
C12_8 C 0.0535(3) 0.8702(3) 0.4461(6)
N2_11 N -0.0000 0.84582(17) 0.4069(3)
N3_4 N 0.0336(2) 0.9104(2) 0.5037(4)
C16_8 C 0.12923(13) 0.72683(11) 0.18837(19)
C18_8 C 0.06213(13) 0.74884(12) 0.2254(2)
C19_8 C 0.06204(14) 0.78494(13) 0.2996(2)
H8_8 H 0.1036 0.7962 0.3262
O6_8 O 0.17859(9) 0.72139(8) 0.24543(10)
O10_8 O 0.13447(10) 0.71477(10) 0.10247(13)
H9_8 H 0.107135 0.858875 0.432999
C6_8 C 0.87077(13) 0.72683(11) 0.18837(19)
C7_12 C 1.0000 0.73224(18) 0.1842(3)
H3_12 H 1.0000 0.7105 0.1302
C9_12 C 1.0000 0.80469(18) 0.3350(3)
C10_8 C 0.93787(13) 0.74884(12) 0.2254(2)
C11_8 C 0.93796(14) 0.78494(13) 0.2996(2)
H5_8 H 0.8964 0.7962 0.3262
N2_12 N 1.0000 0.84582(17) 0.4069(3)
C20_8 C 0.9465(3) 0.8702(3) 0.4461(6)
N8_4 N 0.9664(2) 0.9104(2) 0.5037(4)
H14_8 H 0.892865 0.858875 0.432999
H11_4 H 0.62622 0.687493 0.977971
O3_5 O 0.74852(12) 0.12498(9) 0.00021(15)
O5_5 O 0.87473(12) 0.20546(10) 0.04066(17)
N6_3 N 0.75127(14) 0.11023(10) 0.20176(18)
C1_5 C 0.74498(13) 0.15241(11) 0.92690(18)
C2_5 C 0.7500 0.15065(15) 0.7500
H1_5 H 0.7500 0.1893 0.7500
C3_5 C 0.74622(14) 0.06417(12) 0.83442(19)
H2_5 H 0.7434 0.0447 0.8906
C4_5 C 0.74666(13) 0.12199(11) 0.83452(17)
C5_5 C 0.7500 0.03595(16) 0.7500
C13_5 C 0.75502(13) 0.15241(11) 0.57310(18)
C14_5 C 0.75378(14) 0.06417(12) 0.66558(19)
H6_5 H 0.7566 0.0447 0.6094
C15_5 C 0.75334(13) 0.12199(11) 0.66548(17)
N7_3 N 0.74873(14) 0.11023(10) 0.29824(18)
O12_5 O 0.75148(12) 0.12498(9) 0.49979(15)
O16_5 O 0.62527(12) 0.20546(10) 0.45934(17)
H11_5 H 0.87378 0.187493 0.977971
C8_5 C 0.75074(18) 0.94132(13) 0.8244(2)
H4_5 H 0.7509 0.9530 0.8866
N1_3 N 0.75127(14) 0.88977(10) 0.79824(18)
N4_5 N 0.7500 0.97595(14) 0.7500
C17_5 C 0.74926(18) 0.94132(13) 0.6756(2)
H7_5 H 0.7491 0.9530 0.6134
N5_3 N 0.74873(14) 0.88977(10) 0.70176(18)
C1_6 C 0.25502(13) 0.34759(11) 0.42690(18)
C2_6 C 0.2500 0.34935(15) 0.2500
H1_6 H 0.2500 0.3107 0.2500
C3_6 C 0.25378(14) 0.43583(12) 0.33442(19)
H2_6 H 0.2566 0.4553 0.3906
C4_6 C 0.25334(13) 0.37801(11) 0.33452(17)
C5_6 C 0.2500 0.46405(16) 0.2500
C8_6 C 0.24926(18) 0.55868(13) 0.3244(2)
H4_6 H 0.2491 0.5470 0.3866
N1_4 N 0.24873(14) 0.61023(10) 0.29824(18)
N4_6 N 0.2500 0.52405(14) 0.2500
O3_6 O 0.25148(12) 0.37502(9) 0.50021(15)
O5_6 O 0.12527(12) 0.29454(10) 0.54066(17)
C13_6 C 0.24498(13) 0.34759(11) 0.07310(18)
C14_6 C 0.24622(14) 0.43583(12) 0.16558(19)
H6_6 H 0.2434 0.4553 0.1094
C15_6 C 0.24666(13) 0.37801(11) 0.16548(17)
C17_6 C 0.25074(18) 0.55868(13) 0.1756(2)
H7_6 H 0.2509 0.5470 0.1134
N5_4 N 0.25127(14) 0.61023(10) 0.20176(18)
N6_4 N 0.24873(14) 0.38977(10) 0.70176(18)
N7_4 N 0.25127(14) 0.38977(10) 0.79824(18)
O12_6 O 0.24852(12) 0.37502(9) 0.99979(15)
O16_6 O 0.37473(12) 0.29454(10) 0.95934(17)
O12_7 O 0.24852(12) 0.62498(9) 0.00021(15)
O16_7 O 0.37473(12) 0.70546(10) 0.04066(17)
C1_7 C 0.25502(13) 0.65241(11) 0.57310(18)
C2_7 C 0.2500 0.65065(15) 0.7500
H1_7 H 0.2500 0.6893 0.7500
C3_7 C 0.25378(14) 0.56417(12) 0.66558(19)
H2_7 H 0.2566 0.5447 0.6094
C4_7 C 0.25334(13) 0.62199(11) 0.66548(17)
C5_7 C 0.2500 0.53595(16) 0.7500
C8_7 C 0.24926(18) 0.44132(13) 0.6756(2)
H4_7 H 0.2491 0.4530 0.6134
N4_7 N 0.2500 0.47595(14) 0.7500
O3_7 O 0.25148(12) 0.62498(9) 0.49979(15)
O5_7 O 0.12527(12) 0.70546(10) 0.45934(17)
C13_7 C 0.24498(13) 0.65241(11) 0.92690(18)
C14_7 C 0.24622(14) 0.56417(12) 0.83442(19)
H6_7 H 0.2434 0.5447 0.8906
C15_7 C 0.24666(13) 0.62199(11) 0.83452(17)
C17_7 C 0.25074(18) 0.44132(13) 0.8244(2)
H7_7 H 0.2509 0.4530 0.8866
C8_8 C 0.75074(18) 0.05868(13) 0.1756(2)
H4_8 H 0.7509 0.0470 0.1134
N4_8 N 0.7500 0.02405(14) 0.2500
C17_8 C 0.74926(18) 0.05868(13) 0.3244(2)
H7_8 H 0.7491 0.0470 0.3866
C1_8 C 0.74498(13) 0.84759(11) 0.07310(18)
C2_8 C 0.7500 0.84935(15) 0.2500
H1_8 H 0.7500 0.8107 0.2500
C3_8 C 0.74622(14) 0.93583(12) 0.16558(19)
H2_8 H 0.7434 0.9553 0.1094
C4_8 C 0.74666(13) 0.87801(11) 0.16548(17)
C5_8 C 0.7500 0.96405(16) 0.2500
C13_8 C 0.75502(13) 0.84759(11) 0.42690(18)
C14_8 C 0.75378(14) 0.93583(12) 0.33442(19)
H6_8 H 0.7566 0.9553 0.3906
C15_8 C 0.75334(13) 0.87801(11) 0.33452(17)
O12_8 O 0.75148(12) 0.87502(9) 0.50021(15)
O16_8 O 0.62527(12) 0.79454(10) 0.54066(17)
H11_6 H 0.87378 0.812507 0.0220293
O3_8 O 0.74852(12) 0.87502(9) 0.99979(15)
O5_8 O 0.87473(12) 0.79454(10) 0.95934(17)
H11_7 H 0.37378 0.687493 0.977971
H11_8 H 0.37378 0.312507 0.0220293
N3_5 N 0.4664(2) 0.9104(2) 0.9963(4)
N8_5 N 0.5336(2) 0.9104(2) 0.9963(4)
N3_6 N 0.4664(2) 0.0896(2) 0.0037(4)
N8_6 N 0.5336(2) 0.0896(2) 0.0037(4)
N8_7 N 0.0336(2) 0.4104(2) 0.9963(4)
N3_7 N 0.9664(2) 0.4104(2) 0.9963(4)
N8_8 N 0.0336(2) 0.5896(2) 0.0037(4)
N3_8 N 0.9664(2) 0.5896(2) 0.0037(4)
loop_
_geom_bond_atom_site_label_1
_geom_bond_atom_site_label_2
_geom_bond_site_symmetry_1
_geom_bond_site_symmetry_2
C8 H4 1_555 1_555
N1 C8 1_555 1_555
C17 N4 1_555 1_555
H7 C17 1_555 1_555
Ca3 N1 1_555 1_555
Ca7 N5 1_555 1_555
N5 N1 1_555 1_555
C8 N4 1_555 1_555
C17 N5 1_555 1_555
C1 C4 1_555 1_555
C2 H1 1_555 1_555
C3 H2 1_555 1_555
C4 C2 1_555 1_555
C5 C3 1_555 1_555
O4 C1 1_555 1_555
C13 C15 1_555 1_555
C14 C5 1_555 1_555
H6 C14 1_555 1_555
C15 C2 1_555 1_555
Ca2 N7 1_555 1_555
Ca5 O4 1_555 1_555
Ca6 O13 1_555 1_555
O8 Ca2 1_555 1_555
O9 Ca2 1_555 1_555
O11 Ca2 1_555 1_555
O12 C13 1_555 1_555
O13 C13 1_555 1_555
O15 Ca2 1_555 1_555
O16 Ca2 1_555 1_555
C3 C4 1_555 1_555
C14 C15 1_555 1_555
Ca2 O12 1_555 1_555
Ca2 O13 1_555 1_555
Ca6 O15 1_555 1_555
C6 C10 1_555 1_555
C7 H3 1_555 1_555
C9 C11 1_555 1_555
C10 C7 1_555 1_555
C11 C10 1_555 1_555
H5 C11 1_555 1_555
C12 N2 1_555 1_555
Ca1 O9 1_555 1_555
N2 C9 1_555 1_555
N3 C12 1_555 1_555
O9 C6 1_555 1_555
O2 C6 1_555 1_555
O5 Ca1 1_555 1_555
C16 C18 1_555 1_555
C18 C7 1_555 1_555
C19 C9 1_555 1_555
H8 C19 1_555 1_555
C20 N2 1_555 1_555
Ca8 O6 1_555 1_555
Ca9 O6 1_555 1_555
N6 Ca1 1_555 1_555
N8 N3 1_555 1_555
O6 C16 1_555 1_555
O8 Ca1 1_555 1_555
O10 C16 1_555 1_555
O14 Ca1 1_555 1_555
Ca1 O2 1_555 1_555
Ca1 O3 1_555 1_555
C18 C19 1_555 1_555
C20 N8 1_555 1_555
Ca8 O10 1_555 1_555
C12 H9 1_555 1_555
C20 H14 1_555 1_555
Ca2_2 N7_2 1_555 1_555
O8_2 Ca2_2 1_555 1_555
O9_2 Ca2_2 1_555 1_555
O11_2 Ca2_2 1_555 1_555
O15_2 Ca2_2 1_555 1_555
O16_2 Ca2_2 1_555 1_555
Ca2_2 O12_2 1_555 1_555
C1_2 C4_2 1_555 1_555
C2_2 H1_2 1_555 1_555
C3_2 H2_2 1_555 1_555
C4_2 C2_2 1_555 1_555
C5_2 C3_2 1_555 1_555
C6_2 C10_2 1_555 1_555
C7_2 H3_2 1_555 1_555
C8_2 H4_2 1_555 1_555
C9_2 C11_2 1_555 1_555
C10_2 C7_2 1_555 1_555
C11_2 C10_2 1_555 1_555
H5_2 C11_2 1_555 1_555
C12_2 N2_2 1_555 1_555
Ca1_2 O9_2 1_555 1_555
N1_2 C8_2 1_555 1_555
N2_2 C9_2 1_555 1_555
N4_2 C5_2 1_555 1_555
O9_2 C6_2 1_555 1_555
O2_2 C6_2 1_555 1_555
O3_2 C1_2 1_555 1_555
O4_2 C1_2 1_555 1_555
O5_2 Ca1_2 1_555 1_555
C13_2 C15_2 1_555 1_555
C14_2 C5_2 1_555 1_555
H6_2 C14_2 1_555 1_555
C15_2 C2_2 1_555 1_555
C16_2 C18_2 1_555 1_555
C17_2 N4_2 1_555 1_555
H7_2 C17_2 1_555 1_555
C18_2 C7_2 1_555 1_555
C19_2 C9_2 1_555 1_555
H8_2 C19_2 1_555 1_555
C20_2 N2_2 1_555 1_555
Ca3_2 N1_2 1_555 1_555
Ca9 O4_2 1_555 1_555
Ca8 O13_2 1_555 1_555
Ca7_2 N5_2 1_555 1_555
Ca6 O6_2 1_555 1_555
Ca5 O6_2 1_555 1_555
N5_2 N1_2 1_555 1_555
N6_2 Ca1_2 1_555 1_555
O6_2 C16_2 1_555 1_555
O8_2 Ca1_2 1_555 1_555
O10_2 C16_2 1_555 1_555
O13_2 C13_2 1_555 1_555
O14_2 Ca1_2 1_555 1_555
C3_2 C4_2 1_555 1_555
C8_2 N4_2 1_555 1_555
Ca1_2 O2_2 1_555 1_555
Ca1_2 O3_2 1_555 1_555
Ca1_2 O4_2 1_555 1_555
C14_2 C15_2 1_555 1_555
C17_2 N5_2 1_555 1_555
C18_2 C19_2 1_555 1_555
Ca9 O14_2 1_555 1_555
Ca6 O10_2 1_555 1_555
C12_2 H9_2 1_555 1_555
C20_2 H14_2 1_555 1_555
C1_3 C4_3 1_555 1_555
C2_3 H1_3 1_555 1_555
C3_3 H2_3 1_555 1_555
C4_3 C2_3 1_555 1_555
C5_3 C3_3 1_555 1_555
C6_3 C10_3 1_555 1_555
C7_3 H3_3 1_555 1_555
C8_3 H4_3 1_555 1_555
C9_3 C11_3 1_555 1_555
C10_3 C7_3 1_555 1_555
C11_3 C10_3 1_555 1_555
H5_3 C11_3 1_555 1_555
C12_3 N2_3 1_555 1_555
Ca3_2 O1 1_555 1_555
N6_2 C8_3 1_555 1_555
N2_3 C9_3 1_555 1_555
N4_3 C5_3 1_555 1_555
O1 C6_3 1_555 1_555
O2_3 C6_3 1_555 1_555
O3_3 C1_3 1_555 1_555
O4_3 C1_3 1_555 1_555
O5_3 Ca3_2 1_555 1_555
C13_3 C15_3 1_555 1_555
C14_3 C5_3 1_555 1_555
H6_3 C14_3 1_555 1_555
C15_3 C2_3 1_555 1_555
C16_3 C18_3 1_555 1_555
C17_3 N4_3 1_555 1_555
H7_3 C17_3 1_555 1_555
C18_3 C7_3 1_555 1_555
C19_3 C9_3 1_555 1_555
H8_3 C19_3 1_555 1_555
C20_3 N2_3 1_555 1_555
Ca7_2 O1 1_555 1_555
Ca5_2 O4_3 1_555 1_555
Ca6_2 O13_3 1_555 1_555
Ca8_2 O6_3 1_555 1_555
Ca9_2 O6_3 1_555 1_555
N7_2 N6_2 1_555 1_555
O6_3 C16_3 1_555 1_555
O7 Ca3_2 1_555 1_555
O10_3 C16_3 1_555 1_555
O13_3 C13_3 1_555 1_555
O14_3 Ca3_2 1_555 1_555
C3_3 C4_3 1_555 1_555
C8_3 N4_3 1_555 1_555
Ca3_2 O2_3 1_555 1_555
Ca3_2 O3_3 1_555 1_555
Ca3_2 O4_3 1_555 1_555
C14_3 C15_3 1_555 1_555
C17_3 N7_2 1_555 1_555
C18_3 C19_3 1_555 1_555
Ca7_2 O7 1_555 1_555
Ca5_2 O14_3 1_555 1_555
Ca8_2 O10_3 1_555 1_555
C12_3 H9_3 1_555 1_555
C20_3 H14_3 1_555 1_555
O11_3 Ca7_2 1_555 1_555
O15_3 Ca7_2 1_555 1_555
O16_3 Ca7_2 1_555 1_555
Ca7_2 O12_3 1_555 1_555
C6_4 C10_4 1_555 1_555
C7_4 H3_4 1_555 1_555
C9_4 C11_4 1_555 1_555
C10_4 C7_4 1_555 1_555
C11_4 C10_4 1_555 1_555
H5_4 C11_4 1_555 1_555
C12_4 N2_4 1_555 1_555
Ca3 O1_2 1_555 1_555
N2_4 C9_4 1_555 1_555
N3_2 C12_4 1_555 1_555
O1_2 C6_4 1_555 1_555
O2_4 C6_4 1_555 1_555
O5_4 Ca3 1_555 1_555
C16_4 C18_4 1_555 1_555
C18_4 C7_4 1_555 1_555
C19_4 C9_4 1_555 1_555
H8_4 C19_4 1_555 1_555
C20_4 N2_4 1_555 1_555
Ca7 O1_2 1_555 1_555
Ca6_2 O6_4 1_555 1_555
Ca5_2 O6_4 1_555 1_555
N8_2 N3_2 1_555 1_555
O6_4 C16_4 1_555 1_555
O7_2 Ca3 1_555 1_555
O10_4 C16_4 1_555 1_555
O14_4 Ca3 1_555 1_555
Ca3 O2_4 1_555 1_555
Ca3 O3_4 1_555 1_555
C18_4 C19_4 1_555 1_555
C20_4 N8_2 1_555 1_555
Ca7 O7_2 1_555 1_555
Ca6_2 O10_4 1_555 1_555
C12_4 H9_4 1_555 1_555
C20_4 H14_4 1_555 1_555
C1_4 C4_4 1_555 1_555
C2_4 H1_4 1_555 1_555
C3_4 H2_4 1_555 1_555
C4_4 C2_4 1_555 1_555
C5_4 C3_4 1_555 1_555
O4_4 C1_4 1_555 1_555
C13_4 C15_4 1_555 1_555
C14_4 C5_4 1_555 1_555
H6_4 C14_4 1_555 1_555
C15_4 C2_4 1_555 1_555
Ca9_2 O4_4 1_555 1_555
Ca8_2 O13_4 1_555 1_555
O11_4 Ca7 1_555 1_555
O12_4 C13_4 1_555 1_555
O13_4 C13_4 1_555 1_555
O15_4 Ca7 1_555 1_555
O16_4 Ca7 1_555 1_555
C3_4 C4_4 1_555 1_555
C14_4 C15_4 1_555 1_555
Ca7 O12_4 1_555 1_555
Ca7 O13_4 1_555 1_555
Ca8_2 O15_4 1_555 1_555
C8_4 H4_4 1_555 1_555
N6 C8_4 1_555 1_555
C17_4 N4_4 1_555 1_555
H7_4 C17_4 1_555 1_555
N7 N6 1_555 1_555
C8_4 N4_4 1_555 1_555
C17_4 N7 1_555 1_555
C7_5 H3_5 1_555 1_555
C12_5 N2_5 1_555 1_555
N2_5 C9_5 1_555 1_555
N3_3 C12_5 1_555 1_555
C16_5 C18_5 1_555 1_555
C18_5 C7_5 1_555 1_555
C19_5 C9_5 1_555 1_555
H8_5 C19_5 1_555 1_555
Ca9_2 O6_5 1_555 1_555
Ca8_2 O6_5 1_555 1_555
O6_5 C16_5 1_555 1_555
O10_5 C16_5 1_555 1_555
C18_5 C19_5 1_555 1_555
Ca9_2 O10_5 1_555 1_555
C12_5 H9_5 1_555 1_555
C6_5 C10_5 1_555 1_555
C7_6 H3_6 1_555 1_555
C9_6 C11_5 1_555 1_555
C10_5 C7_6 1_555 1_555
C11_5 C10_5 1_555 1_555
H5_5 C11_5 1_555 1_555
N2_6 C9_6 1_555 1_555
O7 C6_5 1_555 1_555
O11_3 C6_5 1_555 1_555
C20_5 N2_6 1_555 1_555
C20_5 N8_3 1_555 1_555
C20_5 H14_5 1_555 1_555
C6_6 C10_6 1_555 1_555
C7_7 H3_7 1_555 1_555
C9_7 C11_6 1_555 1_555
C10_6 C7_7 1_555 1_555
C11_6 C10_6 1_555 1_555
H5_6 C11_6 1_555 1_555
N2_7 C9_7 1_555 1_555
O7_2 C6_6 1_555 1_555
O11_4 C6_6 1_555 1_555
C20_6 N2_7 1_555 1_555
C20_6 H14_6 1_555 1_555
C7_8 H3_8 1_555 1_555
C12_6 N2_8 1_555 1_555
N2_8 C9_8 1_555 1_555
C16_6 C18_6 1_555 1_555
C18_6 C7_8 1_555 1_555
C19_6 C9_8 1_555 1_555
H8_6 C19_6 1_555 1_555
Ca5_2 O6_6 1_555 1_555
Ca6_2 O6_6 1_555 1_555
O6_6 C16_6 1_555 1_555
O10_6 C16_6 1_555 1_555
C18_6 C19_6 1_555 1_555
Ca5_2 O10_6 1_555 1_555
C12_6 H9_6 1_555 1_555
C6_7 C10_7 1_555 1_555
C7_9 H3_9 1_555 1_555
C9_9 C11_7 1_555 1_555
C10_7 C7_9 1_555 1_555
C11_7 C10_7 1_555 1_555
H5_7 C11_7 1_555 1_555
N2_9 C9_9 1_555 1_555
O8 C6_7 1_555 1_555
O11 C6_7 1_555 1_555
C20_7 N2_9 1_555 1_555
C20_7 H14_7 1_555 1_555
C7_10 H3_10 1_555 1_555
C12_7 N2_10 1_555 1_555
N2_10 C9_10 1_555 1_555
C16_7 C18_7 1_555 1_555
C18_7 C7_10 1_555 1_555
C19_7 C9_10 1_555 1_555
H8_7 C19_7 1_555 1_555
Ca9 O6_7 1_555 1_555
Ca8 O6_7 1_555 1_555
O6_7 C16_7 1_555 1_555
O10_7 C16_7 1_555 1_555
C18_7 C19_7 1_555 1_555
Ca9 O10_7 1_555 1_555
C12_7 H9_7 1_555 1_555
C7_11 H3_11 1_555 1_555
C12_8 N2_11 1_555 1_555
N2_11 C9_11 1_555 1_555
N3_4 C12_8 1_555 1_555
C16_8 C18_8 1_555 1_555
C18_8 C7_11 1_555 1_555
C19_8 C9_11 1_555 1_555
H8_8 C19_8 1_555 1_555
Ca5 O6_8 1_555 1_555
Ca6 O6_8 1_555 1_555
O6_8 C16_8 1_555 1_555
O10_8 C16_8 1_555 1_555
C18_8 C19_8 1_555 1_555
Ca5 O10_8 1_555 1_555
C12_8 H9_8 1_555 1_555
C6_8 C10_8 1_555 1_555
C7_12 H3_12 1_555 1_555
C9_12 C11_8 1_555 1_555
C10_8 C7_12 1_555 1_555
C11_8 C10_8 1_555 1_555
H5_8 C11_8 1_555 1_555
N2_12 C9_12 1_555 1_555
O8_2 C6_8 1_555 1_555
O11_2 C6_8 1_555 1_555
C20_8 N2_12 1_555 1_555
C20_8 N8_4 1_555 1_555
C20_8 H14_8 1_555 1_555
O5_5 Ca6_2 1_555 1_555
N6_3 Ca6_2 1_555 1_555
Ca6_2 O3_5 1_555 1_555
C1_5 C4_5 1_555 1_555
C2_5 H1_5 1_555 1_555
C3_5 H2_5 1_555 1_555
C4_5 C2_5 1_555 1_555
C5_5 C3_5 1_555 1_555
O15_3 C1_5 1_555 1_555
C13_5 C15_5 1_555 1_555
C14_5 C5_5 1_555 1_555
H6_5 C14_5 1_555 1_555
C15_5 C2_5 1_555 1_555
Ca5_2 N7_3 1_555 1_555
O12_5 C13_5 1_555 1_555
O14_3 C13_5 1_555 1_555
O16_5 Ca5_2 1_555 1_555
C3_5 C4_5 1_555 1_555
C14_5 C15_5 1_555 1_555
Ca5_2 O12_5 1_555 1_555
C8_5 H4_5 1_555 1_555
N1_3 C8_5 1_555 1_555
C17_5 N4_5 1_555 1_555
H7_5 C17_5 1_555 1_555
Ca8 N1_3 1_555 1_555
Ca9 N5_3 1_555 1_555
N5_3 N1_3 1_555 1_555
C8_5 N4_5 1_555 1_555
C17_5 N5_3 1_555 1_555
C1_6 C4_6 1_555 1_555
C2_6 H1_6 1_555 1_555
C3_6 H2_6 1_555 1_555
C4_6 C2_6 1_555 1_555
C5_6 C3_6 1_555 1_555
C8_6 H4_6 1_555 1_555
N1_4 C8_6 1_555 1_555
N4_6 C5_6 1_555 1_555
O3_6 C1_6 1_555 1_555
O15_4 C1_6 1_555 1_555
O5_6 Ca8_2 1_555 1_555
C13_6 C15_6 1_555 1_555
C14_6 C5_6 1_555 1_555
H6_6 C14_6 1_555 1_555
C15_6 C2_6 1_555 1_555
C17_6 N4_6 1_555 1_555
H7_6 C17_6 1_555 1_555
Ca6 N1_4 1_555 1_555
Ca5 N5_4 1_555 1_555
N5_4 N1_4 1_555 1_555
N6_4 Ca8_2 1_555 1_555
O14_4 C13_6 1_555 1_555
C3_6 C4_6 1_555 1_555
C8_6 N4_6 1_555 1_555
Ca8_2 O3_6 1_555 1_555
C14_6 C15_6 1_555 1_555
C17_6 N5_4 1_555 1_555
Ca9_2 N7_4 1_555 1_555
O16_6 Ca9_2 1_555 1_555
Ca9_2 O12_6 1_555 1_555
O16_7 Ca5 1_555 1_555
Ca5 O12_7 1_555 1_555
C1_7 C4_7 1_555 1_555
C2_7 H1_7 1_555 1_555
C3_7 H2_7 1_555 1_555
C4_7 C2_7 1_555 1_555
C5_7 C3_7 1_555 1_555
C8_7 H4_7 1_555 1_555
N6_4 C8_7 1_555 1_555
N4_7 C5_7 1_555 1_555
O3_7 C1_7 1_555 1_555
O15 C1_7 1_555 1_555
O5_7 Ca6 1_555 1_555
C13_7 C15_7 1_555 1_555
C14_7 C5_7 1_555 1_555
H6_7 C14_7 1_555 1_555
C15_7 C2_7 1_555 1_555
C17_7 N4_7 1_555 1_555
H7_7 C17_7 1_555 1_555
N7_4 N6_4 1_555 1_555
O14 C13_7 1_555 1_555
C3_7 C4_7 1_555 1_555
C8_7 N4_7 1_555 1_555
Ca6 O3_7 1_555 1_555
C14_7 C15_7 1_555 1_555
C17_7 N7_4 1_555 1_555
C8_8 H4_8 1_555 1_555
N6_3 C8_8 1_555 1_555
C17_8 N4_8 1_555 1_555
H7_8 C17_8 1_555 1_555
N7_3 N6_3 1_555 1_555
C8_8 N4_8 1_555 1_555
C17_8 N7_3 1_555 1_555
C1_8 C4_8 1_555 1_555
C2_8 H1_8 1_555 1_555
C3_8 H2_8 1_555 1_555
C4_8 C2_8 1_555 1_555
C5_8 C3_8 1_555 1_555
O15_2 C1_8 1_555 1_555
C13_8 C15_8 1_555 1_555
C14_8 C5_8 1_555 1_555
H6_8 C14_8 1_555 1_555
C15_8 C2_8 1_555 1_555
O12_8 C13_8 1_555 1_555
O14_2 C13_8 1_555 1_555
O16_8 Ca9 1_555 1_555
C3_8 C4_8 1_555 1_555
C14_8 C15_8 1_555 1_555
Ca9 O12_8 1_555 1_555
O5_8 Ca8 1_555 1_555
Ca8 O3_8 1_555 1_555
N8_5 N3_5 1_555 1_555
N8_6 N3_6 1_555 1_555

#END
