
###############################################################################
#
# This file contains modified crystal structure data generated from the
# MOF subset of the Cambridge Structural Database (CSD) v543 
# hosted by the Cambridge Crystallographic Data Centre (CCDC).
#
# This work is licensed under the Creative Commons
# Attribution-NonCommercial-ShareAlike 4.0 International License.
# To view a copy of this license, visit
# http://creativecommons.org/licenses/by-nc-sa/4.0/
# or send a letter to
# Creative Commons, PO Box 1866, Mountain View, CA 94042, USA.
#
# CIF created using the CSD Python API on 29 September 2022
# The structure has been converted into the P1 space group
# The structure has a 3D framework
# The original CSD entry GEGSOE is in the monoclinic crystal system
# The framework has been calculated to contain at least 10.0% void space
# The void calculation uses a probe of radius 1.32A, grid spacing 0.4
#
###############################################################################

data_GEGSOE
_chemical_formula_moiety         '(C272 H184 F8 N48 O56 Zn8)n'
_symmetry_cell_setting           triclinic
_symmetry_space_group_name_H-M   'P 1'
_symmetry_Int_Tables_number      1
_space_group_name_Hall           'P 1'
loop_
_symmetry_equiv_pos_site_id
_symmetry_equiv_pos_as_xyz
1 x,y,z
_cell_length_a                   16.6920(3)
_cell_length_b                   19.3308(3)
_cell_length_c                   25.6846(4)
_cell_angle_alpha                90
_cell_angle_beta                 100.5350(10)
_cell_angle_gamma                90
_cell_volume                     8147.94
loop_
_atom_site_label
_atom_site_type_symbol
_atom_site_fract_x
_atom_site_fract_y
_atom_site_fract_z
C2 C 0.0645(4) 0.3369(3) 0.1954(3)
H2 H 0.107300 0.363434 0.185612
C3 C 0.0807(4) 0.2864(3) 0.2343(3)
C4 C 0.0149(4) 0.2515(4) 0.2488(3)
H3 H 0.023719 0.219120 0.277101
C6 C 0.1653(4) 0.2704(4) 0.2583(3)
H5 H 0.208412 0.299749 0.252401
N2 N 0.1801(3) 0.2168(3) 0.2871(2)
N3 N 0.2623(3) 0.2032(3) 0.3058(2)
H6 H 0.300084 0.232484 0.300175
C7 C 0.2826(4) 0.1432(3) 0.3330(3)
C8 C 0.3711(3) 0.1306(3) 0.3503(2)
C9 C 0.4308(4) 0.1621(3) 0.3259(2)
H7 H 0.415966 0.194643 0.298076
C10 C 0.5115(3) 0.1446(2) 0.3435(2)
F1 F 0.5682(2) 0.17497(17) 0.31988(16)
C11 C 0.5355(3) 0.0966(3) 0.3825(2)
H8 H 0.591543 0.085477 0.393331
C12 C 0.4769(3) 0.0647(2) 0.40590(19)
C13 C 0.3953(3) 0.0806(3) 0.3894(2)
H9 H 0.355266 0.057302 0.404783
C14 C 0.4966(3) 0.0089(2) 0.4476(2)
O2 O 0.2314(3) 0.1035(3) 0.3449(3)
N4 N 0.5785(3) 0.0003(2) 0.46715(17)
H10 H 0.614555 0.029697 0.459086
O1 O 0.4434(2) 0.9738(2) 0.46115(16)
N5 N 0.6024(3) 0.9452(2) 0.49924(18)
C15 C 0.6801(3) 0.9371(3) 0.5136(2)
H11 H 0.716863 0.969323 0.502873
C16 C 0.7106(3) 0.8780(3) 0.5462(2)
C17 C 0.7931(3) 0.8617(3) 0.5565(2)
H12 H 0.830941 0.890113 0.542891
C18 C 0.8201(3) 0.8038(3) 0.5866(2)
H13 H 0.876605 0.793055 0.593049
C19 C 0.6903(4) 0.7802(4) 0.5990(3)
H14 H 0.654744 0.753192 0.615711
C20 C 0.6584(4) 0.8352(4) 0.5683(3)
H15 H 0.601414 0.844063 0.562188
N6 N 0.7694(3) 0.7629(2) 0.60667(18)
Zn3 Zn 0.80092(3) 0.67272(3) 0.64881(2)
Zn1 Zn 0.80092(3) 0.32728(3) 0.14881(2)
N1 N 0.9209(3) 0.3119(2) 0.18357(18)
C1 C 0.9838(3) 0.3476(3) 0.1712(2)
H1 H 0.972645 0.381942 0.144379
C5 C 0.9371(4) 0.2643(4) 0.2220(3)
H4 H 0.893304 0.238462 0.231063
C21 C 0.7519(3) 0.3624(3) 0.2332(2)
O3 O 0.7914(2) 0.4118(2) 0.21812(15)
O4 O 0.7424(2) 0.3056(2) 0.20959(15)
C22 C 0.7154(3) 0.3711(3) 0.28250(19)
C23 C 0.7232(3) 0.4334(3) 0.3094(2)
H16 H 0.746842 0.471961 0.294974
C24 C 0.6967(3) 0.4399(3) 0.3575(2)
H17 H 0.701106 0.482816 0.375859
C25 C 0.6637(3) 0.3825(3) 0.3779(2)
O5 O 0.6362(3) 0.3831(2) 0.42574(15)
C26 C 0.6510(4) 0.3213(3) 0.3501(2)
H18 H 0.624994 0.283483 0.363769
C27 C 0.6768(4) 0.3158(3) 0.3018(2)
H19 H 0.667919 0.274152 0.282008
C28 C 0.6669(3) 0.4330(3) 0.4627(2)
C29 C 0.6105(4) 0.4641(3) 0.4884(2)
H20 H 0.554705 0.451326 0.480081
C30 C 0.6363(3) 0.5141(3) 0.5265(2)
H21 H 0.597885 0.536402 0.543952
C31 C 0.7196(3) 0.5319(3) 0.5393(2)
C32 C 0.7740(3) 0.4989(3) 0.5139(2)
H22 H 0.829977 0.511034 0.522351
C33 C 0.7494(3) 0.4480(3) 0.4758(2)
H23 H 0.788037 0.424260 0.459397
C34 C 0.7470(3) 0.5855(3) 0.5804(2)
O6 O 0.6949(3) 0.6153(2) 0.60298(17)
O7 O 0.8224(2) 0.5997(2) 0.59288(14)
N7 N 0.7694(3) 0.2371(2) 0.10667(18)
O8 O 0.6949(3) 0.3847(2) 0.10298(17)
O9 O 0.8224(2) 0.4003(2) 0.09288(14)
C15_2 C 0.6801(3) 0.0629(3) 0.0136(2)
H11_2 H 0.716863 0.030677 0.002873
C16_2 C 0.7106(3) 0.1220(3) 0.0462(2)
C17_2 C 0.7931(3) 0.1383(3) 0.0565(2)
H12_2 H 0.830941 0.109887 0.042891
C18_2 C 0.8201(3) 0.1962(3) 0.0866(2)
H13_2 H 0.876605 0.206945 0.093049
C19_2 C 0.6903(4) 0.2198(4) 0.0990(3)
H14_2 H 0.654744 0.246808 0.115711
C20_2 C 0.6584(4) 0.1648(4) 0.0683(3)
H15_2 H 0.601414 0.155937 0.062188
C30_2 C 0.6363(3) 0.4859(3) 0.0265(2)
H21_2 H 0.597885 0.463598 0.043952
C31_2 C 0.7196(3) 0.4681(3) 0.0393(2)
C32_2 C 0.7740(3) 0.5011(3) 0.0139(2)
H22_2 H 0.829977 0.488966 0.022351
C34_2 C 0.7470(3) 0.4145(3) 0.0804(2)
N1_2 N 0.9209(3) 0.6881(2) 0.68357(18)
C1_2 C 0.9838(3) 0.6524(3) 0.6712(2)
H1_2 H 0.972645 0.618058 0.644379
C5_2 C 0.9371(4) 0.7357(4) 0.7220(3)
H4_2 H 0.893304 0.761538 0.731063
C21_2 C 0.7519(3) 0.6376(3) 0.7332(2)
O3_2 O 0.7914(2) 0.5882(2) 0.71812(15)
O4_2 O 0.7424(2) 0.6944(2) 0.70959(15)
C22_2 C 0.7154(3) 0.6289(3) 0.78250(19)
C23_2 C 0.7232(3) 0.5666(3) 0.8094(2)
H16_2 H 0.746842 0.528039 0.794974
C24_2 C 0.6967(3) 0.5601(3) 0.8575(2)
H17_2 H 0.701106 0.517184 0.875859
C25_2 C 0.6637(3) 0.6175(3) 0.8779(2)
O5_2 O 0.6362(3) 0.6169(2) 0.92574(15)
C26_2 C 0.6510(4) 0.6787(3) 0.8501(2)
H18_2 H 0.624994 0.716517 0.863769
C27_2 C 0.6768(4) 0.6842(3) 0.8018(2)
H19_2 H 0.667919 0.725848 0.782008
C28_2 C 0.6669(3) 0.5670(3) 0.9627(2)
C29_2 C 0.6105(4) 0.5359(3) 0.9884(2)
H20_2 H 0.554705 0.548674 0.980081
C33_2 C 0.7494(3) 0.5520(3) 0.9758(2)
H23_2 H 0.788037 0.575740 0.959397
O1_2 O 0.4434(2) 0.0262(2) 0.96115(16)
N5_2 N 0.6024(3) 0.0548(2) 0.99924(18)
C2_2 C 0.0645(4) 0.6631(3) 0.6954(3)
H2_2 H 0.107300 0.636566 0.685612
C3_2 C 0.0807(4) 0.7136(3) 0.7343(3)
C4_2 C 0.0149(4) 0.7485(4) 0.7488(3)
H3_2 H 0.023719 0.780880 0.777101
C6_2 C 0.1653(4) 0.7296(4) 0.7583(3)
H5_2 H 0.208412 0.700251 0.752401
N2_2 N 0.1801(3) 0.7832(3) 0.7871(2)
N3_2 N 0.2623(3) 0.7968(3) 0.8058(2)
H6_2 H 0.300084 0.767516 0.800175
C7_2 C 0.2826(4) 0.8568(3) 0.8330(3)
C8_2 C 0.3711(3) 0.8694(3) 0.8503(2)
C9_2 C 0.4308(4) 0.8379(3) 0.8259(2)
H7_2 H 0.415966 0.805357 0.798076
C10_2 C 0.5115(3) 0.8554(2) 0.8435(2)
F1_2 F 0.5682(2) 0.82503(17) 0.81988(16)
C11_2 C 0.5355(3) 0.9034(3) 0.8825(2)
H8_2 H 0.591543 0.914523 0.893331
C12_2 C 0.4769(3) 0.9353(2) 0.90590(19)
C13_2 C 0.3953(3) 0.9194(3) 0.8894(2)
H9_2 H 0.355266 0.942698 0.904783
C14_2 C 0.4966(3) 0.9911(2) 0.9476(2)
O2_2 O 0.2314(3) 0.8965(3) 0.8449(3)
N4_2 N 0.5785(3) 0.9997(2) 0.96715(17)
H10_2 H 0.614555 0.970303 0.959086
C10_3 C 0.0115(3) 0.6446(2) 0.3435(2)
F1_3 F 0.0682(2) 0.67497(17) 0.31988(16)
C11_3 C 0.0355(3) 0.5966(3) 0.3825(2)
H8_3 H 0.091543 0.585477 0.393331
N4_3 N 0.0785(3) 0.5003(2) 0.46715(17)
H10_3 H 0.114555 0.529697 0.459086
N5_3 N 0.1024(3) 0.4452(2) 0.49924(18)
C15_3 C 0.1801(3) 0.4371(3) 0.5136(2)
H11_3 H 0.216863 0.469323 0.502873
C16_3 C 0.2106(3) 0.3780(3) 0.5462(2)
C17_3 C 0.2931(3) 0.3617(3) 0.5565(2)
H12_3 H 0.330941 0.390113 0.542891
C18_3 C 0.3201(3) 0.3038(3) 0.5866(2)
H13_3 H 0.376605 0.293055 0.593049
C19_3 C 0.1903(4) 0.2802(4) 0.5990(3)
H14_3 H 0.154744 0.253192 0.615711
C20_3 C 0.1584(4) 0.3352(4) 0.5683(3)
H15_3 H 0.101414 0.344063 0.562188
N6_2 N 0.2694(3) 0.2629(2) 0.60667(18)
Zn3_2 Zn 0.30092(3) 0.17272(3) 0.64881(2)
C30_3 C 0.1363(3) 0.0141(3) 0.5265(2)
H21_3 H 0.097885 0.036402 0.543952
C31_3 C 0.2196(3) 0.0319(3) 0.5393(2)
H22_3 H 0.329977 0.011034 0.522351
C34_3 C 0.2470(3) 0.0855(3) 0.5804(2)
O6_2 O 0.1949(3) 0.1153(2) 0.60298(17)
O7_2 O 0.3224(2) 0.0997(2) 0.59288(14)
N1_3 N 0.4209(3) 0.1881(2) 0.68357(18)
C1_3 C 0.4838(3) 0.1524(3) 0.6712(2)
H1_3 H 0.472645 0.118058 0.644379
C2_3 C 0.5645(4) 0.1631(3) 0.6954(3)
H2_3 H 0.607300 0.136566 0.685612
C3_3 C 0.5807(4) 0.2136(3) 0.7343(3)
C4_3 C 0.5149(4) 0.2485(4) 0.7488(3)
H3_3 H 0.523719 0.280880 0.777101
C5_3 C 0.4371(4) 0.2357(4) 0.7220(3)
H4_3 H 0.393304 0.261538 0.731063
C6_3 C 0.6653(4) 0.2296(4) 0.7583(3)
H5_3 H 0.708412 0.200251 0.752401
N2_3 N 0.6801(3) 0.2832(3) 0.7871(2)
N3_3 N 0.7623(3) 0.2968(3) 0.8058(2)
H6_3 H 0.800084 0.267516 0.800175
C7_3 C 0.7826(4) 0.3568(3) 0.8330(3)
O1_3 O 0.9434(2) 0.5262(2) 0.96115(16)
C8_3 C 0.8711(3) 0.3694(3) 0.8503(2)
C9_3 C 0.9308(4) 0.3379(3) 0.8259(2)
H7_3 H 0.915966 0.305357 0.798076
C12_3 C 0.9769(3) 0.4353(2) 0.90590(19)
C13_3 C 0.8953(3) 0.4194(3) 0.8894(2)
H9_3 H 0.855266 0.442698 0.904783
C14_3 C 0.9966(3) 0.4911(2) 0.9476(2)
O2_3 O 0.7314(3) 0.3965(3) 0.8449(3)
C21_3 C 0.2519(3) 0.1376(3) 0.7332(2)
O3_3 O 0.2914(2) 0.0882(2) 0.71812(15)
O4_3 O 0.2424(2) 0.1944(2) 0.70959(15)
C22_3 C 0.2154(3) 0.1289(3) 0.78250(19)
C23_3 C 0.2232(3) 0.0666(3) 0.8094(2)
H16_3 H 0.246842 0.028039 0.794974
C24_3 C 0.1967(3) 0.0601(3) 0.8575(2)
H17_3 H 0.201106 0.017184 0.875859
C25_3 C 0.1637(3) 0.1175(3) 0.8779(2)
O5_3 O 0.1362(3) 0.1169(2) 0.92574(15)
C26_3 C 0.1510(4) 0.1787(3) 0.8501(2)
H18_3 H 0.124994 0.216517 0.863769
C27_3 C 0.1768(4) 0.1842(3) 0.8018(2)
H19_3 H 0.167919 0.225848 0.782008
C28_3 C 0.1669(3) 0.0670(3) 0.9627(2)
C29_3 C 0.1105(4) 0.0359(3) 0.9884(2)
H20_3 H 0.054705 0.048674 0.980081
C33_3 C 0.2494(3) 0.0520(3) 0.9758(2)
H23_3 H 0.288037 0.075740 0.959397
Zn1_2 Zn 0.30092(3) 0.82728(3) 0.14881(2)
N1_4 N 0.4209(3) 0.8119(2) 0.18357(18)
C1_4 C 0.4838(3) 0.8476(3) 0.1712(2)
H1_4 H 0.472645 0.881942 0.144379
C2_4 C 0.5645(4) 0.8369(3) 0.1954(3)
H2_4 H 0.607300 0.863434 0.185612
C3_4 C 0.5807(4) 0.7864(3) 0.2343(3)
C4_4 C 0.5149(4) 0.7515(4) 0.2488(3)
H3_4 H 0.523719 0.719120 0.277101
C5_4 C 0.4371(4) 0.7643(4) 0.2220(3)
H4_4 H 0.393304 0.738462 0.231063
C6_4 C 0.6653(4) 0.7704(4) 0.2583(3)
H5_4 H 0.708412 0.799749 0.252401
N2_4 N 0.6801(3) 0.7168(3) 0.2871(2)
N3_4 N 0.7623(3) 0.7032(3) 0.3058(2)
H6_4 H 0.800084 0.732484 0.300175
C7_4 C 0.7826(4) 0.6432(3) 0.3330(3)
O1_4 O 0.9434(2) 0.4738(2) 0.46115(16)
C8_4 C 0.8711(3) 0.6306(3) 0.3503(2)
C9_4 C 0.9308(4) 0.6621(3) 0.3259(2)
H7_4 H 0.915966 0.694643 0.298076
C12_4 C 0.9769(3) 0.5647(2) 0.40590(19)
C13_4 C 0.8953(3) 0.5806(3) 0.3894(2)
H9_4 H 0.855266 0.557302 0.404783
C14_4 C 0.9966(3) 0.5089(2) 0.4476(2)
O2_4 O 0.7314(3) 0.6035(3) 0.3449(3)
C21_4 C 0.2519(3) 0.8624(3) 0.2332(2)
O3_4 O 0.2914(2) 0.9118(2) 0.21812(15)
O4_4 O 0.2424(2) 0.8056(2) 0.20959(15)
C22_4 C 0.2154(3) 0.8711(3) 0.28250(19)
C23_4 C 0.2232(3) 0.9334(3) 0.3094(2)
H16_4 H 0.246842 0.971961 0.294974
C24_4 C 0.1967(3) 0.9399(3) 0.3575(2)
H17_4 H 0.201106 0.982816 0.375859
C25_4 C 0.1637(3) 0.8825(3) 0.3779(2)
O5_4 O 0.1362(3) 0.8831(2) 0.42574(15)
C26_4 C 0.1510(4) 0.8213(3) 0.3501(2)
H18_4 H 0.124994 0.783483 0.363769
C27_4 C 0.1768(4) 0.8158(3) 0.3018(2)
H19_4 H 0.167919 0.774152 0.282008
C28_4 C 0.1669(3) 0.9330(3) 0.4627(2)
C29_4 C 0.1105(4) 0.9641(3) 0.4884(2)
H20_4 H 0.054705 0.951326 0.480081
C32_3 C 0.2740(3) 0.9989(3) 0.5139(2)
C33_4 C 0.2494(3) 0.9480(3) 0.4758(2)
H23_4 H 0.288037 0.924260 0.459397
N7_2 N 0.2694(3) 0.7371(2) 0.10667(18)
O8_2 O 0.1949(3) 0.8847(2) 0.10298(17)
O9_2 O 0.3224(2) 0.9003(2) 0.09288(14)
C15_4 C 0.1801(3) 0.5629(3) 0.0136(2)
H11_4 H 0.216863 0.530677 0.002873
C16_4 C 0.2106(3) 0.6220(3) 0.0462(2)
C17_4 C 0.2931(3) 0.6383(3) 0.0565(2)
H12_4 H 0.330941 0.609887 0.042891
C18_4 C 0.3201(3) 0.6962(3) 0.0866(2)
H13_4 H 0.376605 0.706945 0.093049
C19_4 C 0.1903(4) 0.7198(4) 0.0990(3)
H14_4 H 0.154744 0.746808 0.115711
C20_4 C 0.1584(4) 0.6648(4) 0.0683(3)
H15_4 H 0.101414 0.655937 0.062188
C30_4 C 0.1363(3) 0.9859(3) 0.0265(2)
H21_4 H 0.097885 0.963598 0.043952
C31_4 C 0.2196(3) 0.9681(3) 0.0393(2)
H22_4 H 0.329977 0.988966 0.022351
C34_4 C 0.2470(3) 0.9145(3) 0.0804(2)
C10_4 C 0.0115(3) 0.3554(2) 0.8435(2)
F1_4 F 0.0682(2) 0.32503(17) 0.81988(16)
C11_4 C 0.0355(3) 0.4034(3) 0.8825(2)
H8_4 H 0.091543 0.414523 0.893331
N4_4 N 0.0785(3) 0.4997(2) 0.96715(17)
H10_4 H 0.114555 0.470303 0.959086
N5_4 N 0.1024(3) 0.5548(2) 0.99924(18)
C32_4 C 0.2740(3) 0.0011(3) 0.0139(2)
C51 C 0.4335(3) 0.8230(3) 0.0118(2)
H35 H 0.390374 0.847843 0.022822
C52 C 0.5133(3) 0.8401(3) 0.0320(2)
H36 H 0.524235 0.875995 0.057604
N13 N 0.5759(3) 0.8076(2) 0.01657(16)
Zn6 Zn 0.69507(3) 0.83154(3) 0.04975(2)
H44 H 0.870712 0.991158 0.140127
C65 C 0.7542(3) 0.9878(3) 0.1512(2)
C68 C 0.7275(4) 0.9304(3) 0.1136(2)
O15 O 0.7797(3) 0.9002(2) 0.09191(16)
O16 O 0.6540(3) 0.9108(2) 0.10481(15)
N8 N 0.7263(3) 0.7476(2) 0.09973(18)
C35 C 0.6918(5) 0.6867(4) 0.0903(4)
H24 H 0.644476 0.683549 0.063486
C36 C 0.7198(5) 0.6272(4) 0.1167(4)
H25 H 0.693537 0.584300 0.107111
C37 C 0.7864(4) 0.6303(3) 0.1573(2)
C38 C 0.8219(3) 0.6937(3) 0.1687(2)
H26 H 0.866860 0.698788 0.196948
C39 C 0.7913(3) 0.7500(3) 0.1385(2)
H27 H 0.818313 0.793166 0.145707
C40 C 0.8183(4) 0.5667(3) 0.1855(2)
H28 H 0.786446 0.525725 0.183131
N9 N 0.8894(3) 0.5684(2) 0.21282(18)
N10 N 0.9153(3) 0.5090(2) 0.24059(19)
H29 H 0.880979 0.475364 0.243783
C41 C 0.9957(3) 0.5039(3) 0.2629(2)
C43 C 0.9557(3) 0.4130(3) 0.3257(2)
H30 H 0.899335 0.421601 0.313494
C44 C 0.9813(3) 0.3663(3) 0.3661(2)
F2 F 0.9242(2) 0.33355(17) 0.38802(16)
O10 O 0.0477(2) 0.4578(2) 0.75292(16)
C42 C 0.0148(3) 0.5532(2) 0.8035(2)
C45 C 0.0615(3) 0.6489(3) 0.8849(2)
H31 H 0.076609 0.681388 0.912723
C46 C 0.1207(3) 0.6150(2) 0.8619(2)
C47 C 0.0978(3) 0.5674(3) 0.8224(2)
H32 H 0.138310 0.543792 0.807624
C48 C 0.2113(3) 0.6261(3) 0.8799(2)
O11 O 0.2606(3) 0.5848(2) 0.8693(2)
N11 N 0.2329(3) 0.6847(2) 0.9095(2)
H33 H 0.195801 0.712756 0.917944
N12 N 0.3142(3) 0.6977(2) 0.92523(18)
C49 C 0.3305(3) 0.7502(3) 0.9559(2)
H34 H 0.287686 0.776440 0.965931
C50 C 0.4160(3) 0.7695(3) 0.9754(2)
C53 C 0.5598(3) 0.7578(3) 0.9800(2)
H37 H 0.604164 0.736530 0.967588
C54 C 0.4816(3) 0.7358(3) 0.9593(2)
H38 H 0.472642 0.698646 0.934765
Zn4 Zn 0.69507(3) 0.16846(3) 0.54975(2)
N8_2 N 0.7263(3) 0.2524(2) 0.59973(18)
C35_2 C 0.6918(5) 0.3133(4) 0.5903(4)
H24_2 H 0.644476 0.316451 0.563486
C36_2 C 0.7198(5) 0.3728(4) 0.6167(4)
H25_2 H 0.693537 0.415700 0.607111
C37_2 C 0.7864(4) 0.3697(3) 0.6573(2)
C38_2 C 0.8219(3) 0.3063(3) 0.6687(2)
H26_2 H 0.866860 0.301212 0.696948
C39_2 C 0.7913(3) 0.2500(3) 0.6385(2)
H27_2 H 0.818313 0.206834 0.645707
C40_2 C 0.8183(4) 0.4333(3) 0.6855(2)
H28_2 H 0.786446 0.474275 0.683131
N9_2 N 0.8894(3) 0.4316(2) 0.71282(18)
N10_2 N 0.9153(3) 0.4910(2) 0.74059(19)
H29_2 H 0.880979 0.524636 0.743783
C41_2 C 0.9957(3) 0.4961(3) 0.7629(2)
C43_2 C 0.9557(3) 0.5870(3) 0.8257(2)
H30_2 H 0.899335 0.578399 0.813494
C44_2 C 0.9813(3) 0.6337(3) 0.8661(2)
F2_2 F 0.9242(2) 0.66645(17) 0.88802(16)
C55 C 0.7409(3) 0.1474(3) 0.4620(2)
O12 O 0.7039(2) 0.0962(2) 0.47779(15)
O13 O 0.7523(2) 0.2024(2) 0.48995(15)
C56 C 0.7692(3) 0.1433(3) 0.4111(2)
C57 C 0.7654(3) 0.0806(3) 0.3837(2)
H39 H 0.746920 0.040156 0.398886
C58 C 0.7882(3) 0.0767(3) 0.3349(2)
H40 H 0.786936 0.033676 0.316833
C59 C 0.8131(3) 0.1363(3) 0.3123(2)
O14 O 0.8378(3) 0.1374(2) 0.26401(17)
C60 C 0.8188(4) 0.1988(3) 0.3391(2)
H41 H 0.837165 0.239035 0.323567
C61 C 0.7973(3) 0.2024(3) 0.3888(2)
H42 H 0.801791 0.244944 0.407630
C62 C 0.8063(4) 0.0882(3) 0.2263(2)
C63 C 0.8608(4) 0.0618(3) 0.1969(2)
H43 H 0.915329 0.078029 0.201944
C64 C 0.8336(3) 0.0108(3) 0.1599(2)
C66 C 0.6982(3) 0.0175(3) 0.1793(2)
H45 H 0.642819 0.003318 0.172452
C67 C 0.7246(4) 0.0679(3) 0.2172(2)
H46 H 0.687553 0.088291 0.236719
N14 N 0.5759(3) 0.1924(2) 0.51657(16)
O17 O 0.7797(3) 0.0998(2) 0.59191(16)
O18 O 0.6540(3) 0.0892(2) 0.60481(15)
O10_2 O 0.0477(2) 0.5422(2) 0.25292(16)
C42_2 C 0.0148(3) 0.4468(2) 0.3035(2)
C45_2 C 0.0615(3) 0.3511(3) 0.3849(2)
H31_2 H 0.076609 0.318612 0.412723
C46_2 C 0.1207(3) 0.3850(2) 0.3619(2)
C47_2 C 0.0978(3) 0.4326(3) 0.3224(2)
H32_2 H 0.138310 0.456208 0.307624
C48_2 C 0.2113(3) 0.3739(3) 0.3799(2)
O11_2 O 0.2606(3) 0.4152(2) 0.3693(2)
N11_2 N 0.2329(3) 0.3153(2) 0.4095(2)
H33_2 H 0.195801 0.287244 0.417944
N12_2 N 0.3142(3) 0.3023(2) 0.42523(18)
C49_2 C 0.3305(3) 0.2498(3) 0.4559(2)
H34_2 H 0.287686 0.223560 0.465931
C50_2 C 0.4160(3) 0.2305(3) 0.4754(2)
C51_2 C 0.4335(3) 0.1770(3) 0.5118(2)
H35_2 H 0.390374 0.152157 0.522822
C52_2 C 0.5133(3) 0.1599(3) 0.5320(2)
H36_2 H 0.524235 0.124005 0.557604
C53_2 C 0.5598(3) 0.2422(3) 0.4800(2)
H37_2 H 0.604164 0.263470 0.467588
C54_2 C 0.4816(3) 0.2642(3) 0.4593(2)
H38_2 H 0.472642 0.301354 0.434765
H44_2 H 0.870712 0.008842 0.640127
C65_2 C 0.7542(3) 0.0122(3) 0.6512(2)
C68_2 C 0.7275(4) 0.0696(3) 0.6136(2)
C55_2 C 0.7409(3) 0.8526(3) 0.9620(2)
O12_2 O 0.7039(2) 0.9038(2) 0.97779(15)
O13_2 O 0.7523(2) 0.7976(2) 0.98995(15)
C56_2 C 0.7692(3) 0.8567(3) 0.9111(2)
C57_2 C 0.7654(3) 0.9194(3) 0.8837(2)
H39_2 H 0.746920 0.959844 0.898886
C58_2 C 0.7882(3) 0.9233(3) 0.8349(2)
H40_2 H 0.786936 0.966324 0.816833
C59_2 C 0.8131(3) 0.8637(3) 0.8123(2)
O14_2 O 0.8378(3) 0.8626(2) 0.76401(17)
C60_2 C 0.8188(4) 0.8012(3) 0.8391(2)
H41_2 H 0.837165 0.760965 0.823567
C61_2 C 0.7973(3) 0.7976(3) 0.8888(2)
H42_2 H 0.801791 0.755056 0.907630
C62_2 C 0.8063(4) 0.9118(3) 0.7263(2)
C63_2 C 0.8608(4) 0.9382(3) 0.6969(2)
H43_2 H 0.915329 0.921971 0.701944
C64_2 C 0.8336(3) 0.9892(3) 0.6599(2)
C66_2 C 0.6982(3) 0.9825(3) 0.6793(2)
H45_2 H 0.642819 0.996682 0.672452
C67_2 C 0.7246(4) 0.9321(3) 0.7172(2)
H46_2 H 0.687553 0.911709 0.736719
C52_3 C 0.0133(3) 0.3401(3) 0.0320(2)
H36_3 H 0.024235 0.375995 0.057604
N13_2 N 0.0759(3) 0.3076(2) 0.01657(16)
Zn6_2 Zn 0.19507(3) 0.33154(3) 0.04975(2)
Zn4_2 Zn 0.19507(3) 0.66846(3) 0.54975(2)
N8_3 N 0.2263(3) 0.7524(2) 0.59973(18)
C35_3 C 0.1918(5) 0.8133(4) 0.5903(4)
H24_3 H 0.144476 0.816451 0.563486
C36_3 C 0.2198(5) 0.8728(4) 0.6167(4)
H25_3 H 0.193537 0.915700 0.607111
C37_3 C 0.2864(4) 0.8697(3) 0.6573(2)
C38_3 C 0.3219(3) 0.8063(3) 0.6687(2)
H26_3 H 0.366860 0.801212 0.696948
C39_3 C 0.2913(3) 0.7500(3) 0.6385(2)
H27_3 H 0.318313 0.706834 0.645707
C40_3 C 0.3183(4) 0.9333(3) 0.6855(2)
H28_3 H 0.286446 0.974275 0.683131
N9_3 N 0.3894(3) 0.9316(2) 0.71282(18)
N10_3 N 0.4153(3) 0.9910(2) 0.74059(19)
C41_3 C 0.4957(3) 0.9961(3) 0.7629(2)
O10_3 O 0.5477(2) 0.9578(2) 0.75292(16)
C55_3 C 0.2409(3) 0.6474(3) 0.4620(2)
O12_3 O 0.2039(2) 0.5962(2) 0.47779(15)
O13_3 O 0.2523(2) 0.7024(2) 0.48995(15)
C56_3 C 0.2692(3) 0.6433(3) 0.4111(2)
C57_3 C 0.2654(3) 0.5806(3) 0.3837(2)
H39_3 H 0.246920 0.540156 0.398886
C58_3 C 0.2882(3) 0.5767(3) 0.3349(2)
H40_3 H 0.286936 0.533676 0.316833
C59_3 C 0.3131(3) 0.6363(3) 0.3123(2)
O14_3 O 0.3378(3) 0.6374(2) 0.26401(17)
C60_3 C 0.3188(4) 0.6988(3) 0.3391(2)
H41_3 H 0.337165 0.739035 0.323567
C61_3 C 0.2973(3) 0.7024(3) 0.3888(2)
H42_3 H 0.301791 0.744944 0.407630
C62_3 C 0.3063(4) 0.5882(3) 0.2263(2)
C63_3 C 0.3608(4) 0.5618(3) 0.1969(2)
H43_3 H 0.415329 0.578029 0.201944
C64_3 C 0.3336(3) 0.5108(3) 0.1599(2)
H44_3 H 0.370712 0.491158 0.140127
C65_3 C 0.2542(3) 0.4878(3) 0.1512(2)
C66_3 C 0.1982(3) 0.5175(3) 0.1793(2)
H45_3 H 0.142819 0.503318 0.172452
C67_3 C 0.2246(4) 0.5679(3) 0.2172(2)
H46_3 H 0.187553 0.588291 0.236719
C68_3 C 0.2275(4) 0.4304(3) 0.1136(2)
O15_2 O 0.2797(3) 0.4002(2) 0.09191(16)
O16_2 O 0.1540(3) 0.4108(2) 0.10481(15)
N14_2 N 0.0759(3) 0.6924(2) 0.51657(16)
O17_2 O 0.2797(3) 0.5998(2) 0.59191(16)
O18_2 O 0.1540(3) 0.5892(2) 0.60481(15)
C52_4 C 0.0133(3) 0.6599(3) 0.5320(2)
H36_4 H 0.024235 0.624005 0.557604
C53_3 C 0.0598(3) 0.7422(3) 0.4800(2)
H37_3 H 0.104164 0.763470 0.467588
N8_4 N 0.2263(3) 0.2476(2) 0.09973(18)
C35_4 C 0.1918(5) 0.1867(4) 0.0903(4)
H24_4 H 0.144476 0.183549 0.063486
C36_4 C 0.2198(5) 0.1272(4) 0.1167(4)
H25_4 H 0.193537 0.084300 0.107111
C37_4 C 0.2864(4) 0.1303(3) 0.1573(2)
C38_4 C 0.3219(3) 0.1937(3) 0.1687(2)
H26_4 H 0.366860 0.198788 0.196948
C39_4 C 0.2913(3) 0.2500(3) 0.1385(2)
H27_4 H 0.318313 0.293166 0.145707
C40_4 C 0.3183(4) 0.0667(3) 0.1855(2)
H28_4 H 0.286446 0.025725 0.183131
N9_4 N 0.3894(3) 0.0684(2) 0.21282(18)
N10_4 N 0.4153(3) 0.0090(2) 0.24059(19)
C41_4 C 0.4957(3) 0.0039(3) 0.2629(2)
O10_4 O 0.5477(2) 0.0422(2) 0.25292(16)
C55_4 C 0.2409(3) 0.3526(3) 0.9620(2)
O12_4 O 0.2039(2) 0.4038(2) 0.97779(15)
O13_4 O 0.2523(2) 0.2976(2) 0.98995(15)
C56_4 C 0.2692(3) 0.3567(3) 0.9111(2)
C57_4 C 0.2654(3) 0.4194(3) 0.8837(2)
H39_4 H 0.246920 0.459844 0.898886
C58_4 C 0.2882(3) 0.4233(3) 0.8349(2)
H40_4 H 0.286936 0.466324 0.816833
C59_4 C 0.3131(3) 0.3637(3) 0.8123(2)
O14_4 O 0.3378(3) 0.3626(2) 0.76401(17)
C60_4 C 0.3188(4) 0.3012(3) 0.8391(2)
H41_4 H 0.337165 0.260965 0.823567
C61_4 C 0.2973(3) 0.2976(3) 0.8888(2)
H42_4 H 0.301791 0.255056 0.907630
C62_4 C 0.3063(4) 0.4118(3) 0.7263(2)
C63_4 C 0.3608(4) 0.4382(3) 0.6969(2)
H43_4 H 0.415329 0.421971 0.701944
C64_4 C 0.3336(3) 0.4892(3) 0.6599(2)
H44_4 H 0.370712 0.508842 0.640127
C65_4 C 0.2542(3) 0.5122(3) 0.6512(2)
C66_4 C 0.1982(3) 0.4825(3) 0.6793(2)
H45_4 H 0.142819 0.496682 0.672452
C67_4 C 0.2246(4) 0.4321(3) 0.7172(2)
H46_4 H 0.187553 0.411709 0.736719
C68_4 C 0.2275(4) 0.5696(3) 0.6136(2)
C53_4 C 0.0598(3) 0.2578(3) 0.9800(2)
H37_4 H 0.104164 0.236530 0.967588
C51_3 C 0.9335(3) 0.3230(3) 0.0118(2)
H35_3 H 0.890374 0.347843 0.022822
H29_3 H 0.380979 0.024636 0.743783
C42_3 C 0.5148(3) 0.0532(2) 0.8035(2)
C43_3 C 0.4557(3) 0.0870(3) 0.8257(2)
H30_3 H 0.399335 0.078399 0.813494
C44_3 C 0.4813(3) 0.1337(3) 0.8661(2)
F2_3 F 0.4242(2) 0.16645(17) 0.88802(16)
C45_3 C 0.5615(3) 0.1489(3) 0.8849(2)
H31_3 H 0.576609 0.181388 0.912723
C46_3 C 0.6207(3) 0.1150(2) 0.8619(2)
C47_3 C 0.5978(3) 0.0674(3) 0.8224(2)
H32_3 H 0.638310 0.043792 0.807624
C48_3 C 0.7113(3) 0.1261(3) 0.8799(2)
O11_3 O 0.7606(3) 0.0848(2) 0.8693(2)
N11_3 N 0.7329(3) 0.1847(2) 0.9095(2)
H33_3 H 0.695801 0.212756 0.917944
N12_3 N 0.8142(3) 0.1977(2) 0.92523(18)
C49_3 C 0.8305(3) 0.2502(3) 0.9559(2)
H34_3 H 0.787686 0.276440 0.965931
C50_3 C 0.9160(3) 0.2695(3) 0.9754(2)
C54_3 C 0.9816(3) 0.2358(3) 0.9593(2)
H38_3 H 0.972642 0.198646 0.934765
H29_4 H 0.380979 0.975364 0.243783
C42_4 C 0.5148(3) 0.9468(2) 0.3035(2)
C43_4 C 0.4557(3) 0.9130(3) 0.3257(2)
H30_4 H 0.399335 0.921601 0.313494
C44_4 C 0.4813(3) 0.8663(3) 0.3661(2)
F2_4 F 0.4242(2) 0.83355(17) 0.38802(16)
C45_4 C 0.5615(3) 0.8511(3) 0.3849(2)
H31_4 H 0.576609 0.818612 0.412723
C46_4 C 0.6207(3) 0.8850(2) 0.3619(2)
C47_4 C 0.5978(3) 0.9326(3) 0.3224(2)
H32_4 H 0.638310 0.956208 0.307624
C48_4 C 0.7113(3) 0.8739(3) 0.3799(2)
O11_4 O 0.7606(3) 0.9152(2) 0.3693(2)
N11_4 N 0.7329(3) 0.8153(2) 0.4095(2)
H33_4 H 0.695801 0.787244 0.417944
N12_4 N 0.8142(3) 0.8023(2) 0.42523(18)
C49_4 C 0.8305(3) 0.7498(3) 0.4559(2)
H34_4 H 0.787686 0.723560 0.465931
C50_4 C 0.9160(3) 0.7305(3) 0.4754(2)
C51_4 C 0.9335(3) 0.6770(3) 0.5118(2)
H35_4 H 0.890374 0.652157 0.522822
C54_4 C 0.9816(3) 0.7642(3) 0.4593(2)
H38_4 H 0.972642 0.801354 0.434765
loop_
_geom_bond_atom_site_label_1
_geom_bond_atom_site_label_2
_geom_bond_site_symmetry_1
_geom_bond_site_symmetry_2
H2 C2 1_555 1_555
C3 C2 1_555 1_555
C4 C3 1_555 1_555
H3 C4 1_555 1_555
C6 C3 1_555 1_555
H5 C6 1_555 1_555
N2 C6 1_555 1_555
N3 N2 1_555 1_555
H6 N3 1_555 1_555
C7 N3 1_555 1_555
C8 C7 1_555 1_555
C9 C8 1_555 1_555
H7 C9 1_555 1_555
C10 C9 1_555 1_555
F1 C10 1_555 1_555
C11 C10 1_555 1_555
H8 C11 1_555 1_555
C12 C11 1_555 1_555
C13 C8 1_555 1_555
H9 C13 1_555 1_555
C14 C12 1_555 1_555
O2 C7 1_555 1_555
N4 C14 1_555 1_555
H10 N4 1_555 1_555
C12 C13 1_555 1_555
C15 N5 1_555 1_555
H11 C15 1_555 1_555
C16 C15 1_555 1_555
C17 C16 1_555 1_555
H12 C17 1_555 1_555
C18 C17 1_555 1_555
H13 C18 1_555 1_555
C19 H14 1_555 1_555
C20 C16 1_555 1_555
H15 C20 1_555 1_555
N6 C18 1_555 1_555
Zn3 N6 1_555 1_555
C19 C20 1_555 1_555
C19 N6 1_555 1_555
Zn1 N1 1_555 1_555
N1 C1 1_555 1_555
C1 H1 1_555 1_555
C5 N1 1_555 1_555
H4 C5 1_555 1_555
C21 O3 1_555 1_555
O3 Zn1 1_555 1_555
O4 Zn1 1_555 1_555
C22 C21 1_555 1_555
C23 C22 1_555 1_555
H16 C23 1_555 1_555
C24 C23 1_555 1_555
H17 C24 1_555 1_555
C25 C24 1_555 1_555
O5 C25 1_555 1_555
C26 C25 1_555 1_555
H18 C26 1_555 1_555
C27 C22 1_555 1_555
H19 C27 1_555 1_555
C28 O5 1_555 1_555
C29 C28 1_555 1_555
H20 C29 1_555 1_555
C30 C29 1_555 1_555
H21 C30 1_555 1_555
C31 C30 1_555 1_555
C32 C31 1_555 1_555
H22 C32 1_555 1_555
C33 C28 1_555 1_555
H23 C33 1_555 1_555
C34 C31 1_555 1_555
O6 C34 1_555 1_555
O7 C34 1_555 1_555
Zn3 O6 1_555 1_555
N7 Zn1 1_555 1_555
O8 Zn1 1_555 1_555
O9 Zn1 1_555 1_555
C21 O4 1_555 1_555
C26 C27 1_555 1_555
C32 C33 1_555 1_555
O7 Zn3 1_555 1_555
H11_2 C15_2 1_555 1_555
C16_2 C15_2 1_555 1_555
C17_2 C16_2 1_555 1_555
H12_2 C17_2 1_555 1_555
C18_2 C17_2 1_555 1_555
H13_2 C18_2 1_555 1_555
C19_2 H14_2 1_555 1_555
C20_2 C16_2 1_555 1_555
H15_2 C20_2 1_555 1_555
N7 C18_2 1_555 1_555
C19_2 C20_2 1_555 1_555
C19_2 N7 1_555 1_555
H21_2 C30_2 1_555 1_555
C31_2 C30_2 1_555 1_555
C32_2 C31_2 1_555 1_555
H22_2 C32_2 1_555 1_555
C34_2 C31_2 1_555 1_555
O8 C34_2 1_555 1_555
O9 C34_2 1_555 1_555
Zn3 N1_2 1_555 1_555
N1_2 C1_2 1_555 1_555
C1_2 H1_2 1_555 1_555
C5_2 N1_2 1_555 1_555
H4_2 C5_2 1_555 1_555
C21_2 O3_2 1_555 1_555
O3_2 Zn3 1_555 1_555
O4_2 Zn3 1_555 1_555
C22_2 C21_2 1_555 1_555
C23_2 C22_2 1_555 1_555
H16_2 C23_2 1_555 1_555
C24_2 C23_2 1_555 1_555
H17_2 C24_2 1_555 1_555
C25_2 C24_2 1_555 1_555
O5_2 C25_2 1_555 1_555
C26_2 C25_2 1_555 1_555
H18_2 C26_2 1_555 1_555
C27_2 C22_2 1_555 1_555
H19_2 C27_2 1_555 1_555
C28_2 O5_2 1_555 1_555
C29_2 C28_2 1_555 1_555
H20_2 C29_2 1_555 1_555
C33_2 C28_2 1_555 1_555
H23_2 C33_2 1_555 1_555
C21_2 O4_2 1_555 1_555
C26_2 C27_2 1_555 1_555
H2_2 C2_2 1_555 1_555
C3_2 C2_2 1_555 1_555
C4_2 C3_2 1_555 1_555
H3_2 C4_2 1_555 1_555
C6_2 C3_2 1_555 1_555
H5_2 C6_2 1_555 1_555
N2_2 C6_2 1_555 1_555
N3_2 N2_2 1_555 1_555
H6_2 N3_2 1_555 1_555
C7_2 N3_2 1_555 1_555
C8_2 C7_2 1_555 1_555
C9_2 C8_2 1_555 1_555
H7_2 C9_2 1_555 1_555
C10_2 C9_2 1_555 1_555
F1_2 C10_2 1_555 1_555
C11_2 C10_2 1_555 1_555
H8_2 C11_2 1_555 1_555
C12_2 C11_2 1_555 1_555
C13_2 C8_2 1_555 1_555
H9_2 C13_2 1_555 1_555
C14_2 C12_2 1_555 1_555
O2_2 C7_2 1_555 1_555
N4_2 C14_2 1_555 1_555
H10_2 N4_2 1_555 1_555
C12_2 C13_2 1_555 1_555
F1_3 C10_3 1_555 1_555
C11_3 C10_3 1_555 1_555
H8_3 C11_3 1_555 1_555
H10_3 N4_3 1_555 1_555
N5_3 N4_3 1_555 1_555
C15_3 N5_3 1_555 1_555
H11_3 C15_3 1_555 1_555
C16_3 C15_3 1_555 1_555
C17_3 C16_3 1_555 1_555
H12_3 C17_3 1_555 1_555
C18_3 C17_3 1_555 1_555
H13_3 C18_3 1_555 1_555
C19_3 H14_3 1_555 1_555
C20_3 C16_3 1_555 1_555
H15_3 C20_3 1_555 1_555
N6_2 C18_3 1_555 1_555
Zn3_2 N6_2 1_555 1_555
C19_3 C20_3 1_555 1_555
C19_3 N6_2 1_555 1_555
H21_3 C30_3 1_555 1_555
C31_3 C30_3 1_555 1_555
C34_3 C31_3 1_555 1_555
O6_2 C34_3 1_555 1_555
O7_2 C34_3 1_555 1_555
Zn3_2 O6_2 1_555 1_555
O7_2 Zn3_2 1_555 1_555
Zn3_2 N1_3 1_555 1_555
N1_3 C1_3 1_555 1_555
C1_3 H1_3 1_555 1_555
C2_3 C1_3 1_555 1_555
H2_3 C2_3 1_555 1_555
C3_3 C2_3 1_555 1_555
C4_3 C3_3 1_555 1_555
H3_3 C4_3 1_555 1_555
C5_3 N1_3 1_555 1_555
H4_3 C5_3 1_555 1_555
C6_3 C3_3 1_555 1_555
H5_3 C6_3 1_555 1_555
N2_3 C6_3 1_555 1_555
N3_3 N2_3 1_555 1_555
H6_3 N3_3 1_555 1_555
C7_3 N3_3 1_555 1_555
O1_3 C14_3 1_555 1_555
C8_3 C7_3 1_555 1_555
C9_3 C8_3 1_555 1_555
H7_3 C9_3 1_555 1_555
C13_3 C8_3 1_555 1_555
H9_3 C13_3 1_555 1_555
C14_3 C12_3 1_555 1_555
O2_3 C7_3 1_555 1_555
C21_3 O3_3 1_555 1_555
O3_3 Zn3_2 1_555 1_555
O4_3 Zn3_2 1_555 1_555
C22_3 C21_3 1_555 1_555
C23_3 C22_3 1_555 1_555
H16_3 C23_3 1_555 1_555
C24_3 C23_3 1_555 1_555
H17_3 C24_3 1_555 1_555
C25_3 C24_3 1_555 1_555
O5_3 C25_3 1_555 1_555
C26_3 C25_3 1_555 1_555
H18_3 C26_3 1_555 1_555
C27_3 C22_3 1_555 1_555
H19_3 C27_3 1_555 1_555
C28_3 O5_3 1_555 1_555
C29_3 C28_3 1_555 1_555
H20_3 C29_3 1_555 1_555
C33_3 C28_3 1_555 1_555
H23_3 C33_3 1_555 1_555
C4_3 C5_3 1_555 1_555
C12_3 C13_3 1_555 1_555
C21_3 O4_3 1_555 1_555
C26_3 C27_3 1_555 1_555
Zn1_2 N1_4 1_555 1_555
N1_4 C1_4 1_555 1_555
C1_4 H1_4 1_555 1_555
C2_4 C1_4 1_555 1_555
H2_4 C2_4 1_555 1_555
C3_4 C2_4 1_555 1_555
C4_4 C3_4 1_555 1_555
H3_4 C4_4 1_555 1_555
C5_4 N1_4 1_555 1_555
H4_4 C5_4 1_555 1_555
C6_4 C3_4 1_555 1_555
H5_4 C6_4 1_555 1_555
N2_4 C6_4 1_555 1_555
N3_4 N2_4 1_555 1_555
H6_4 N3_4 1_555 1_555
C7_4 N3_4 1_555 1_555
O1_4 C14_4 1_555 1_555
C8_4 C7_4 1_555 1_555
C9_4 C8_4 1_555 1_555
H7_4 C9_4 1_555 1_555
C13_4 C8_4 1_555 1_555
H9_4 C13_4 1_555 1_555
C14_4 C12_4 1_555 1_555
O2_4 C7_4 1_555 1_555
C21_4 O3_4 1_555 1_555
O3_4 Zn1_2 1_555 1_555
O4_4 Zn1_2 1_555 1_555
C22_4 C21_4 1_555 1_555
C23_4 C22_4 1_555 1_555
H16_4 C23_4 1_555 1_555
C24_4 C23_4 1_555 1_555
H17_4 C24_4 1_555 1_555
C25_4 C24_4 1_555 1_555
O5_4 C25_4 1_555 1_555
C26_4 C25_4 1_555 1_555
H18_4 C26_4 1_555 1_555
C27_4 C22_4 1_555 1_555
H19_4 C27_4 1_555 1_555
C28_4 O5_4 1_555 1_555
C29_4 C28_4 1_555 1_555
H20_4 C29_4 1_555 1_555
C33_4 C28_4 1_555 1_555
H23_4 C33_4 1_555 1_555
N7_2 Zn1_2 1_555 1_555
O8_2 Zn1_2 1_555 1_555
O9_2 Zn1_2 1_555 1_555
C4_4 C5_4 1_555 1_555
C12_4 C13_4 1_555 1_555
C21_4 O4_4 1_555 1_555
C26_4 C27_4 1_555 1_555
C32_3 C33_4 1_555 1_555
H11_4 C15_4 1_555 1_555
C16_4 C15_4 1_555 1_555
C17_4 C16_4 1_555 1_555
H12_4 C17_4 1_555 1_555
C18_4 C17_4 1_555 1_555
H13_4 C18_4 1_555 1_555
C19_4 H14_4 1_555 1_555
C20_4 C16_4 1_555 1_555
H15_4 C20_4 1_555 1_555
N7_2 C18_4 1_555 1_555
C19_4 C20_4 1_555 1_555
C19_4 N7_2 1_555 1_555
H21_4 C30_4 1_555 1_555
C31_4 C30_4 1_555 1_555
C34_4 C31_4 1_555 1_555
O8_2 C34_4 1_555 1_555
O9_2 C34_4 1_555 1_555
F1_4 C10_4 1_555 1_555
C11_4 C10_4 1_555 1_555
H8_4 C11_4 1_555 1_555
H10_4 N4_4 1_555 1_555
N5_4 N4_4 1_555 1_555
H35 C51 1_555 1_555
C52 C51 1_555 1_555
H36 C52 1_555 1_555
N13 C52 1_555 1_555
Zn6 N13 1_555 1_555
C68 C65 1_555 1_555
O15 C68 1_555 1_555
O16 C68 1_555 1_555
Zn6 O15 1_555 1_555
O16 Zn6 1_555 1_555
Zn6 N8 1_555 1_555
N8 C35 1_555 1_555
C35 H24 1_555 1_555
C36 C35 1_555 1_555
H25 C36 1_555 1_555
C37 C36 1_555 1_555
C38 C37 1_555 1_555
H26 C38 1_555 1_555
C39 N8 1_555 1_555
H27 C39 1_555 1_555
C40 C37 1_555 1_555
H28 C40 1_555 1_555
N9 C40 1_555 1_555
N10 N9 1_555 1_555
H29 N10 1_555 1_555
C41 N10 1_555 1_555
H30 C43 1_555 1_555
C44 C43 1_555 1_555
F2 C44 1_555 1_555
C38 C39 1_555 1_555
H31 C45 1_555 1_555
C46 C45 1_555 1_555
C47 C42 1_555 1_555
H32 C47 1_555 1_555
C48 C46 1_555 1_555
O11 C48 1_555 1_555
N11 C48 1_555 1_555
H33 N11 1_555 1_555
N12 N11 1_555 1_555
C49 N12 1_555 1_555
H34 C49 1_555 1_555
C50 C49 1_555 1_555
C53 H37 1_555 1_555
C54 C50 1_555 1_555
H38 C54 1_555 1_555
C46 C47 1_555 1_555
C53 C54 1_555 1_555
Zn4 N8_2 1_555 1_555
N8_2 C35_2 1_555 1_555
C35_2 H24_2 1_555 1_555
C36_2 C35_2 1_555 1_555
H25_2 C36_2 1_555 1_555
C37_2 C36_2 1_555 1_555
C38_2 C37_2 1_555 1_555
H26_2 C38_2 1_555 1_555
C39_2 N8_2 1_555 1_555
H27_2 C39_2 1_555 1_555
C40_2 C37_2 1_555 1_555
H28_2 C40_2 1_555 1_555
N9_2 C40_2 1_555 1_555
N10_2 N9_2 1_555 1_555
H29_2 N10_2 1_555 1_555
C41_2 N10_2 1_555 1_555
H30_2 C43_2 1_555 1_555
C44_2 C43_2 1_555 1_555
F2_2 C44_2 1_555 1_555
C55 O12 1_555 1_555
O12 Zn4 1_555 1_555
O13 Zn4 1_555 1_555
C56 C55 1_555 1_555
C57 C56 1_555 1_555
H39 C57 1_555 1_555
C58 C57 1_555 1_555
H40 C58 1_555 1_555
C59 C58 1_555 1_555
O14 C59 1_555 1_555
C60 C59 1_555 1_555
H41 C60 1_555 1_555
C61 C56 1_555 1_555
H42 C61 1_555 1_555
C62 O14 1_555 1_555
C63 C62 1_555 1_555
H43 C63 1_555 1_555
C64 C63 1_555 1_555
H45 C66 1_555 1_555
C67 C62 1_555 1_555
H46 C67 1_555 1_555
N14 Zn4 1_555 1_555
O17 Zn4 1_555 1_555
O18 Zn4 1_555 1_555
C38_2 C39_2 1_555 1_555
C55 O13 1_555 1_555
C60 C61 1_555 1_555
C66 C67 1_555 1_555
H31_2 C45_2 1_555 1_555
C46_2 C45_2 1_555 1_555
C47_2 C42_2 1_555 1_555
H32_2 C47_2 1_555 1_555
C48_2 C46_2 1_555 1_555
O11_2 C48_2 1_555 1_555
N11_2 C48_2 1_555 1_555
H33_2 N11_2 1_555 1_555
N12_2 N11_2 1_555 1_555
C49_2 N12_2 1_555 1_555
H34_2 C49_2 1_555 1_555
C50_2 C49_2 1_555 1_555
C51_2 C50_2 1_555 1_555
H35_2 C51_2 1_555 1_555
C52_2 C51_2 1_555 1_555
H36_2 C52_2 1_555 1_555
C53_2 H37_2 1_555 1_555
C54_2 C50_2 1_555 1_555
H38_2 C54_2 1_555 1_555
N14 C52_2 1_555 1_555
C46_2 C47_2 1_555 1_555
C53_2 C54_2 1_555 1_555
C53_2 N14 1_555 1_555
C68_2 C65_2 1_555 1_555
O17 C68_2 1_555 1_555
O18 C68_2 1_555 1_555
C55_2 O12_2 1_555 1_555
C56_2 C55_2 1_555 1_555
C57_2 C56_2 1_555 1_555
H39_2 C57_2 1_555 1_555
C58_2 C57_2 1_555 1_555
H40_2 C58_2 1_555 1_555
C59_2 C58_2 1_555 1_555
O14_2 C59_2 1_555 1_555
C60_2 C59_2 1_555 1_555
H41_2 C60_2 1_555 1_555
C61_2 C56_2 1_555 1_555
H42_2 C61_2 1_555 1_555
C62_2 O14_2 1_555 1_555
C63_2 C62_2 1_555 1_555
H43_2 C63_2 1_555 1_555
C64_2 C63_2 1_555 1_555
H45_2 C66_2 1_555 1_555
C67_2 C62_2 1_555 1_555
H46_2 C67_2 1_555 1_555
C55_2 O13_2 1_555 1_555
C60_2 C61_2 1_555 1_555
C66_2 C67_2 1_555 1_555
H36_3 C52_3 1_555 1_555
N13_2 C52_3 1_555 1_555
Zn6_2 N13_2 1_555 1_555
Zn4_2 N8_3 1_555 1_555
N8_3 C35_3 1_555 1_555
C35_3 H24_3 1_555 1_555
C36_3 C35_3 1_555 1_555
H25_3 C36_3 1_555 1_555
C37_3 C36_3 1_555 1_555
C38_3 C37_3 1_555 1_555
H26_3 C38_3 1_555 1_555
C39_3 N8_3 1_555 1_555
H27_3 C39_3 1_555 1_555
C40_3 C37_3 1_555 1_555
H28_3 C40_3 1_555 1_555
N9_3 C40_3 1_555 1_555
N10_3 N9_3 1_555 1_555
C41_3 N10_3 1_555 1_555
O10_3 C41_3 1_555 1_555
C55_3 O12_3 1_555 1_555
O12_3 Zn4_2 1_555 1_555
O13_3 Zn4_2 1_555 1_555
C56_3 C55_3 1_555 1_555
C57_3 C56_3 1_555 1_555
H39_3 C57_3 1_555 1_555
C58_3 C57_3 1_555 1_555
H40_3 C58_3 1_555 1_555
C59_3 C58_3 1_555 1_555
O14_3 C59_3 1_555 1_555
C60_3 C59_3 1_555 1_555
H41_3 C60_3 1_555 1_555
C61_3 C56_3 1_555 1_555
H42_3 C61_3 1_555 1_555
C62_3 O14_3 1_555 1_555
C63_3 C62_3 1_555 1_555
H43_3 C63_3 1_555 1_555
C64_3 C63_3 1_555 1_555
H44_3 C64_3 1_555 1_555
C65_3 C64_3 1_555 1_555
C66_3 C65_3 1_555 1_555
H45_3 C66_3 1_555 1_555
C67_3 C62_3 1_555 1_555
H46_3 C67_3 1_555 1_555
C68_3 C65_3 1_555 1_555
O15_2 C68_3 1_555 1_555
O16_2 C68_3 1_555 1_555
Zn6_2 O15_2 1_555 1_555
N14_2 Zn4_2 1_555 1_555
O17_2 Zn4_2 1_555 1_555
O18_2 Zn4_2 1_555 1_555
C38_3 C39_3 1_555 1_555
C55_3 O13_3 1_555 1_555
C60_3 C61_3 1_555 1_555
C66_3 C67_3 1_555 1_555
O16_2 Zn6_2 1_555 1_555
H36_4 C52_4 1_555 1_555
C53_3 H37_3 1_555 1_555
N14_2 C52_4 1_555 1_555
C53_3 N14_2 1_555 1_555
Zn6_2 N8_4 1_555 1_555
N8_4 C35_4 1_555 1_555
C35_4 H24_4 1_555 1_555
C36_4 C35_4 1_555 1_555
H25_4 C36_4 1_555 1_555
C37_4 C36_4 1_555 1_555
C38_4 C37_4 1_555 1_555
H26_4 C38_4 1_555 1_555
C39_4 N8_4 1_555 1_555
H27_4 C39_4 1_555 1_555
C40_4 C37_4 1_555 1_555
H28_4 C40_4 1_555 1_555
N9_4 C40_4 1_555 1_555
N10_4 N9_4 1_555 1_555
C41_4 N10_4 1_555 1_555
O10_4 C41_4 1_555 1_555
C38_4 C39_4 1_555 1_555
C55_4 O12_4 1_555 1_555
C56_4 C55_4 1_555 1_555
C57_4 C56_4 1_555 1_555
H39_4 C57_4 1_555 1_555
C58_4 C57_4 1_555 1_555
H40_4 C58_4 1_555 1_555
C59_4 C58_4 1_555 1_555
O14_4 C59_4 1_555 1_555
C60_4 C59_4 1_555 1_555
H41_4 C60_4 1_555 1_555
C61_4 C56_4 1_555 1_555
H42_4 C61_4 1_555 1_555
C62_4 O14_4 1_555 1_555
C63_4 C62_4 1_555 1_555
H43_4 C63_4 1_555 1_555
C64_4 C63_4 1_555 1_555
H44_4 C64_4 1_555 1_555
C65_4 C64_4 1_555 1_555
C66_4 C65_4 1_555 1_555
H45_4 C66_4 1_555 1_555
C67_4 C62_4 1_555 1_555
H46_4 C67_4 1_555 1_555
C68_4 C65_4 1_555 1_555
O17_2 C68_4 1_555 1_555
O18_2 C68_4 1_555 1_555
C55_4 O13_4 1_555 1_555
C60_4 C61_4 1_555 1_555
C66_4 C67_4 1_555 1_555
C53_4 H37_4 1_555 1_555
H35_3 C51_3 1_555 1_555
C43_3 C42_3 1_555 1_555
H30_3 C43_3 1_555 1_555
C44_3 C43_3 1_555 1_555
F2_3 C44_3 1_555 1_555
C45_3 C44_3 1_555 1_555
H31_3 C45_3 1_555 1_555
C46_3 C45_3 1_555 1_555
C47_3 C42_3 1_555 1_555
H32_3 C47_3 1_555 1_555
C48_3 C46_3 1_555 1_555
O11_3 C48_3 1_555 1_555
N11_3 C48_3 1_555 1_555
H33_3 N11_3 1_555 1_555
N12_3 N11_3 1_555 1_555
C49_3 N12_3 1_555 1_555
H34_3 C49_3 1_555 1_555
C50_3 C49_3 1_555 1_555
C54_3 C50_3 1_555 1_555
H38_3 C54_3 1_555 1_555
C46_3 C47_3 1_555 1_555
C43_4 C42_4 1_555 1_555
H30_4 C43_4 1_555 1_555
C44_4 C43_4 1_555 1_555
F2_4 C44_4 1_555 1_555
C45_4 C44_4 1_555 1_555
H31_4 C45_4 1_555 1_555
C46_4 C45_4 1_555 1_555
C47_4 C42_4 1_555 1_555
H32_4 C47_4 1_555 1_555
C48_4 C46_4 1_555 1_555
O11_4 C48_4 1_555 1_555
N11_4 C48_4 1_555 1_555
H33_4 N11_4 1_555 1_555
N12_4 N11_4 1_555 1_555
C49_4 N12_4 1_555 1_555
H34_4 C49_4 1_555 1_555
C50_4 C49_4 1_555 1_555
C51_4 C50_4 1_555 1_555
H35_4 C51_4 1_555 1_555
C54_4 C50_4 1_555 1_555
H38_4 C54_4 1_555 1_555
C46_4 C47_4 1_555 1_555

#END
