
###############################################################################
#
# This file contains modified crystal structure data generated from the
# MOF subset of the Cambridge Structural Database (CSD) v543 
# hosted by the Cambridge Crystallographic Data Centre (CCDC).
#
# This work is licensed under the Creative Commons
# Attribution-NonCommercial-ShareAlike 4.0 International License.
# To view a copy of this license, visit
# http://creativecommons.org/licenses/by-nc-sa/4.0/
# or send a letter to
# Creative Commons, PO Box 1866, Mountain View, CA 94042, USA.
#
# CIF created using the CSD Python API on 29 September 2022
# The structure has been converted into the P1 space group
# The structure has a 3D framework
# The original CSD entry GEGSIY is in the monoclinic crystal system
# The framework has been calculated to contain at least 10.0% void space
# The void calculation uses a probe of radius 1.32A, grid spacing 0.4
#
###############################################################################

data_GEGSIY
_chemical_formula_moiety         '(C272 H184 Cl8 N48 O54 Zn8)n'
_symmetry_cell_setting           triclinic
_symmetry_space_group_name_H-M   'P 1'
_symmetry_Int_Tables_number      1
_space_group_name_Hall           'P 1'
loop_
_symmetry_equiv_pos_site_id
_symmetry_equiv_pos_as_xyz
1 x,y,z
_cell_length_a                   16.8380(3)
_cell_length_b                   19.9532(3)
_cell_length_c                   25.2867(4)
_cell_angle_alpha                90
_cell_angle_beta                 101.3660(10)
_cell_angle_gamma                90
_cell_volume                     8329.01
loop_
_atom_site_label
_atom_site_type_symbol
_atom_site_fract_x
_atom_site_fract_y
_atom_site_fract_z
O3 O 0.0017(2) 0.30851(16) 0.60097(13)
C22 C 0.0297(3) 0.3771(2) 0.53040(17)
C23 C 0.0229(3) 0.4385(2) 0.50390(17)
C24 C 0.0497(3) 0.4462(2) 0.45546(18)
H17 H 0.0456 0.4883 0.4376
C25 C 0.0824(3) 0.3912(2) 0.43398(18)
O5 O 0.1090(2) 0.39311(17) 0.38599(14)
C26 C 0.0941(3) 0.3308(2) 0.46122(19)
H18 H 0.1196 0.2944 0.4470
C27 C 0.0681(3) 0.3242(2) 0.50963(19)
H19 H 0.0765 0.2831 0.5289
C28 C 0.0807(3) 0.4433(2) 0.34918(17)
C29 C 0.1379(3) 0.4757(2) 0.32579(18)
H20 H 0.1935 0.4636 0.3352
C30 C 0.1130(3) 0.5254(2) 0.28880(18)
H21 H 0.1517 0.5482 0.2726
C31 C 0.0307(3) 0.5430(2) 0.27473(16)
C34 C 0.0047(3) 0.5974(2) 0.23402(17)
O6 O 0.0562(2) 0.62666(17) 0.21259(13)
O8 O 0.0562(2) 0.37334(17) 0.71259(13)
O3_2 O 0.0017(2) 0.69149(16) 0.10097(13)
C22_2 C 0.0297(3) 0.6229(2) 0.03040(17)
C23_2 C 0.0229(3) 0.5615(2) 0.00390(17)
C27_2 C 0.0681(3) 0.6758(2) 0.00963(19)
H19_2 H 0.0765 0.7169 0.0289
C24_2 C 0.0497(3) 0.5538(2) 0.95546(18)
H17_2 H 0.0456 0.5117 0.9376
C25_2 C 0.0824(3) 0.6088(2) 0.93398(18)
O5_2 O 0.1090(2) 0.60689(17) 0.88599(14)
C26_2 C 0.0941(3) 0.6692(2) 0.96122(19)
H18_2 H 0.1196 0.7056 0.9470
C28_2 C 0.0807(3) 0.5567(2) 0.84918(17)
C29_2 C 0.1379(3) 0.5243(2) 0.82579(18)
H20_2 H 0.1935 0.5364 0.8352
C30_2 C 0.1130(3) 0.4746(2) 0.78880(18)
H21_2 H 0.1517 0.4518 0.7726
C31_2 C 0.0307(3) 0.4570(2) 0.77473(16)
C34_2 C 0.0047(3) 0.4026(2) 0.73402(17)
Zn1 Zn 0.94768(2) 0.31914(2) 0.66406(2)
N1 N 0.8282(2) 0.30648(18) 0.62765(15)
C1 C 0.7668(3) 0.3409(2) 0.64166(18)
H1 H 0.7789 0.3734 0.6695
C2 C 0.6864(3) 0.3307(2) 0.6170(2)
H2 H 0.6443 0.3555 0.6280
C3 C 0.6689(3) 0.2836(2) 0.57599(19)
C4 C 0.7328(3) 0.2498(3) 0.5600(2)
H3 H 0.7228 0.2189 0.5308
C5 C 0.8101(3) 0.2619(2) 0.5871(2)
H4 H 0.8531 0.2377 0.5768
C6 C 0.5836(3) 0.2680(2) 0.5523(2)
H5 H 0.5412 0.2963 0.5589
N2 N 0.5678(2) 0.2159(2) 0.52272(17)
N3 N 0.4874(2) 0.2016(2) 0.50471(17)
H6 H 0.4498 0.2300 0.5101
C7 C 0.4668(3) 0.1427(2) 0.4783(2)
O1 O 0.5174(2) 0.10426(19) 0.46628(17)
C8 C 0.3785(3) 0.1283(2) 0.46245(18)
C9 C 0.3221(3) 0.1569(2) 0.48930(17)
H7 H 0.3388 0.1884 0.5175
C10 C 0.2416(3) 0.1389(2) 0.47439(17)
Cl1 Cl 0.17151(7) 0.17455(6) 0.50812(5)
C11 C 0.2152(3) 0.0931(2) 0.43343(17)
H8 H 0.1595 0.0814 0.4238
C12 C 0.2722(2) 0.06427(19) 0.40651(16)
C13 C 0.3530(3) 0.0817(2) 0.42169(18)
H9 H 0.3918 0.0616 0.4040
C14 C 0.2506(3) 0.0117(2) 0.36366(17)
N4 N 0.1685(2) 0.00232(17) 0.34536(16)
H10 H 0.1328 0.0299 0.3547
C21 C 0.9945(2) 0.3667(2) 0.57978(17)
O4 O 0.9571(2) 0.41323(16) 0.59693(13)
H16 H 0.9997 0.4756 0.5189
C32 C 0.9746(3) 0.5093(2) 0.29827(17)
H22 H 0.9190 0.5212 0.2889
C33 C 0.9985(3) 0.4590(2) 0.33507(18)
H23 H 0.9597 0.4354 0.3506
O7 O 0.9298(2) 0.61180(16) 0.22153(12)
Zn3 Zn 0.94768(2) 0.68086(2) 0.16406(2)
N7 N 0.9786(2) 0.23014(18) 0.70394(15)
O9 O 0.9298(2) 0.38820(16) 0.72153(12)
C17 C 0.9547(3) 0.8653(2) 0.25508(19)
H12 H 0.9173 0.8921 0.2693
C18 C 0.9283(2) 0.8087(2) 0.22474(18)
H13 H 0.8724 0.7973 0.2186
N6 N 0.9786(2) 0.76986(18) 0.20394(15)
N1_2 N 0.8282(2) 0.69352(18) 0.12765(15)
C1_2 C 0.7668(3) 0.6591(2) 0.14166(18)
H1_2 H 0.7789 0.6266 0.1695
C2_2 C 0.6864(3) 0.6693(2) 0.1170(2)
H2_2 H 0.6443 0.6445 0.1280
C3_2 C 0.6689(3) 0.7164(2) 0.07599(19)
C4_2 C 0.7328(3) 0.7502(3) 0.0600(2)
H3_2 H 0.7228 0.7811 0.0308
C5_2 C 0.8101(3) 0.7381(2) 0.0871(2)
H4_2 H 0.8531 0.7623 0.0768
C6_2 C 0.5836(3) 0.7320(2) 0.0523(2)
H5_2 H 0.5412 0.7037 0.0589
N2_2 N 0.5678(2) 0.7841(2) 0.02272(17)
N3_2 N 0.4874(2) 0.7984(2) 0.00471(17)
H6_2 H 0.4498 0.7700 0.0101
H7_2 H 0.3388 0.8116 0.0175
Cl1_2 Cl 0.17151(7) 0.82545(6) 0.00812(5)
C21_2 C 0.9945(2) 0.6333(2) 0.07978(17)
O4_2 O 0.9571(2) 0.58677(16) 0.09693(13)
H16_2 H 0.9997 0.5244 0.0189
C7_2 C 0.4668(3) 0.8573(2) 0.9783(2)
O1_2 O 0.5174(2) 0.89574(19) 0.96628(17)
C8_2 C 0.3785(3) 0.8717(2) 0.96245(18)
C9_2 C 0.3221(3) 0.8431(2) 0.98930(17)
C10_2 C 0.2416(3) 0.8611(2) 0.97439(17)
C11_2 C 0.2152(3) 0.9069(2) 0.93343(17)
H8_2 H 0.1595 0.9186 0.9238
C12_2 C 0.2722(2) 0.93573(19) 0.90651(16)
C13_2 C 0.3530(3) 0.9183(2) 0.92169(18)
H9_2 H 0.3918 0.9384 0.9040
C14_2 C 0.2506(3) 0.9883(2) 0.86366(17)
N4_2 N 0.1685(2) 0.99768(17) 0.84536(16)
H10_2 H 0.1328 0.9701 0.8547
C32_2 C 0.9746(3) 0.4907(2) 0.79827(17)
H22_2 H 0.9190 0.4788 0.7889
C33_2 C 0.9985(3) 0.5410(2) 0.83507(18)
H23_2 H 0.9597 0.5646 0.8506
C17_2 C 0.9547(3) 0.1347(2) 0.75508(19)
H12_2 H 0.9173 0.1079 0.7693
C18_2 C 0.9283(2) 0.1913(2) 0.72474(18)
H13_2 H 0.8724 0.2027 0.7186
O2 O 0.3022(2) 0.97981(17) 0.34760(15)
N5 N 0.1444(2) 0.94889(18) 0.31226(15)
C15 C 0.0671(3) 0.9408(2) 0.29855(18)
H11 H 0.0307 0.9715 0.3100
C16 C 0.0368(3) 0.8826(2) 0.26465(18)
C19 C 0.0885(3) 0.8426(3) 0.2417(2)
H14 H 0.1445 0.8530 0.2467
C20 C 0.0568(3) 0.7873(3) 0.2115(3)
H15 H 0.0923 0.7606 0.1954
O2_2 O 0.3022(2) 0.02019(17) 0.84760(15)
N5_2 N 0.1444(2) 0.05111(18) 0.81226(15)
C15_2 C 0.0671(3) 0.0592(2) 0.79855(18)
H11_2 H 0.0307 0.0285 0.8100
C16_2 C 0.0368(3) 0.1174(2) 0.76465(18)
C19_2 C 0.0885(3) 0.1574(3) 0.7417(2)
H14_2 H 0.1445 0.1470 0.7467
C20_2 C 0.0568(3) 0.2127(3) 0.7115(3)
H15_2 H 0.0923 0.2394 0.6954
C30_3 C 0.6130(3) 0.0254(2) 0.28880(18)
H21_3 H 0.6517 0.0482 0.2726
C31_3 C 0.5307(3) 0.0430(2) 0.27473(16)
C32_3 C 0.4746(3) 0.0093(2) 0.29827(17)
H22_3 H 0.4190 0.0212 0.2889
C34_3 C 0.5047(3) 0.0974(2) 0.23402(17)
O6_2 O 0.5562(2) 0.12666(17) 0.21259(13)
O7_2 O 0.4298(2) 0.11180(16) 0.22153(12)
Zn3_2 Zn 0.44768(2) 0.18086(2) 0.16406(2)
N3_3 N 0.9874(2) 0.7016(2) 0.50471(17)
H6_3 H 0.9498 0.7300 0.5101
C7_3 C 0.9668(3) 0.6427(2) 0.4783(2)
C8_3 C 0.8785(3) 0.6283(2) 0.46245(18)
C9_3 C 0.8221(3) 0.6569(2) 0.48930(17)
H7_3 H 0.8388 0.6884 0.5175
C10_3 C 0.7416(3) 0.6389(2) 0.47439(17)
Cl1_3 Cl 0.67151(7) 0.67455(6) 0.50812(5)
C11_3 C 0.7152(3) 0.5931(2) 0.43343(17)
H8_3 H 0.6595 0.5814 0.4238
C12_3 C 0.7722(2) 0.56427(19) 0.40651(16)
C13_3 C 0.8530(3) 0.5817(2) 0.42169(18)
H9_3 H 0.8918 0.5616 0.4040
C14_3 C 0.7506(3) 0.5117(2) 0.36366(17)
O2_3 O 0.8022(2) 0.47981(17) 0.34760(15)
N4_3 N 0.6685(2) 0.50232(17) 0.34536(16)
H10_3 H 0.6328 0.5299 0.3547
N5_3 N 0.6444(2) 0.44889(18) 0.31226(15)
C15_3 C 0.5671(3) 0.4408(2) 0.29855(18)
H11_3 H 0.5307 0.4715 0.3100
C16_3 C 0.5368(3) 0.3826(2) 0.26465(18)
C17_3 C 0.4547(3) 0.3653(2) 0.25508(19)
H12_3 H 0.4173 0.3921 0.2693
C18_3 C 0.4283(2) 0.3087(2) 0.22474(18)
H13_3 H 0.3724 0.2973 0.2186
C19_3 C 0.5885(3) 0.3426(3) 0.2417(2)
H14_3 H 0.6445 0.3530 0.2467
C20_3 C 0.5568(3) 0.2873(3) 0.2115(3)
H15_3 H 0.5923 0.2606 0.1954
N6_2 N 0.4786(2) 0.26986(18) 0.20394(15)
N1_3 N 0.3282(2) 0.19352(18) 0.12765(15)
C1_3 C 0.2668(3) 0.1591(2) 0.14166(18)
H1_3 H 0.2789 0.1266 0.1695
C2_3 C 0.1864(3) 0.1693(2) 0.1170(2)
H2_3 H 0.1443 0.1445 0.1280
C3_3 C 0.1689(3) 0.2164(2) 0.07599(19)
C4_3 C 0.2328(3) 0.2502(3) 0.0600(2)
H3_3 H 0.2228 0.2811 0.0308
C5_3 C 0.3101(3) 0.2381(2) 0.0871(2)
H4_3 H 0.3531 0.2623 0.0768
C6_3 C 0.0836(3) 0.2320(2) 0.0523(2)
H5_3 H 0.0412 0.2037 0.0589
N2_3 N 0.0678(2) 0.2841(2) 0.02272(17)
C21_3 C 0.4945(2) 0.1333(2) 0.07978(17)
O3_3 O 0.5017(2) 0.19149(16) 0.10097(13)
O4_3 O 0.4571(2) 0.08677(16) 0.09693(13)
C22_3 C 0.5297(3) 0.1229(2) 0.03040(17)
C23_3 C 0.5229(3) 0.0615(2) 0.00390(17)
H16_3 H 0.4997 0.0244 0.0189
C27_3 C 0.5681(3) 0.1758(2) 0.00963(19)
H19_3 H 0.5765 0.2169 0.0289
Zn1_2 Zn 0.44768(2) 0.81914(2) 0.66406(2)
N1_4 N 0.3282(2) 0.80648(18) 0.62765(15)
C1_4 C 0.2668(3) 0.8409(2) 0.64166(18)
H1_4 H 0.2789 0.8734 0.6695
C2_4 C 0.1864(3) 0.8307(2) 0.6170(2)
H2_4 H 0.1443 0.8555 0.6280
C3_4 C 0.1689(3) 0.7836(2) 0.57599(19)
C4_4 C 0.2328(3) 0.7498(3) 0.5600(2)
H3_4 H 0.2228 0.7189 0.5308
C5_4 C 0.3101(3) 0.7619(2) 0.5871(2)
H4_4 H 0.3531 0.7377 0.5768
C6_4 C 0.0836(3) 0.7680(2) 0.5523(2)
H5_4 H 0.0412 0.7963 0.5589
N2_4 N 0.0678(2) 0.7159(2) 0.52272(17)
O1_3 O 0.0174(2) 0.60426(19) 0.46628(17)
C21_4 C 0.4945(2) 0.8667(2) 0.57978(17)
O3_4 O 0.5017(2) 0.80851(16) 0.60097(13)
O4_4 O 0.4571(2) 0.91323(16) 0.59693(13)
C22_4 C 0.5297(3) 0.8771(2) 0.53040(17)
C23_4 C 0.5229(3) 0.9385(2) 0.50390(17)
H16_4 H 0.4997 0.9756 0.5189
C24_3 C 0.5497(3) 0.9462(2) 0.45546(18)
H17_3 H 0.5456 0.9883 0.4376
C25_3 C 0.5824(3) 0.8912(2) 0.43398(18)
O5_3 O 0.6090(2) 0.89311(17) 0.38599(14)
C26_3 C 0.5941(3) 0.8308(2) 0.46122(19)
H18_3 H 0.6196 0.7944 0.4470
C27_4 C 0.5681(3) 0.8242(2) 0.50963(19)
H19_4 H 0.5765 0.7831 0.5289
C28_3 C 0.5807(3) 0.9433(2) 0.34918(17)
C29_3 C 0.6379(3) 0.9757(2) 0.32579(18)
H20_3 H 0.6935 0.9636 0.3352
C33_3 C 0.4985(3) 0.9590(2) 0.33507(18)
H23_3 H 0.4597 0.9354 0.3506
N7_2 N 0.4786(2) 0.73014(18) 0.70394(15)
O8_2 O 0.5562(2) 0.87334(17) 0.71259(13)
O9_2 O 0.4298(2) 0.88820(16) 0.72153(12)
C30_4 C 0.6130(3) 0.9746(2) 0.78880(18)
H21_4 H 0.6517 0.9518 0.7726
C31_4 C 0.5307(3) 0.9570(2) 0.77473(16)
C32_4 C 0.4746(3) 0.9907(2) 0.79827(17)
H22_4 H 0.4190 0.9788 0.7889
C34_4 C 0.5047(3) 0.9026(2) 0.73402(17)
C7_4 C 0.9668(3) 0.3573(2) 0.9783(2)
C8_4 C 0.8785(3) 0.3717(2) 0.96245(18)
C9_4 C 0.8221(3) 0.3431(2) 0.98930(17)
C10_4 C 0.7416(3) 0.3611(2) 0.97439(17)
C11_4 C 0.7152(3) 0.4069(2) 0.93343(17)
H8_4 H 0.6595 0.4186 0.9238
C12_4 C 0.7722(2) 0.43573(19) 0.90651(16)
C13_4 C 0.8530(3) 0.4183(2) 0.92169(18)
H9_4 H 0.8918 0.4384 0.9040
C14_4 C 0.7506(3) 0.4883(2) 0.86366(17)
O2_4 O 0.8022(2) 0.52019(17) 0.84760(15)
N4_4 N 0.6685(2) 0.49768(17) 0.84536(16)
H10_4 H 0.6328 0.4701 0.8547
N5_4 N 0.6444(2) 0.55111(18) 0.81226(15)
C15_4 C 0.5671(3) 0.5592(2) 0.79855(18)
H11_4 H 0.5307 0.5285 0.8100
C16_4 C 0.5368(3) 0.6174(2) 0.76465(18)
C17_4 C 0.4547(3) 0.6347(2) 0.75508(19)
H12_4 H 0.4173 0.6079 0.7693
C18_4 C 0.4283(2) 0.6913(2) 0.72474(18)
H13_4 H 0.3724 0.7027 0.7186
C19_4 C 0.5885(3) 0.6574(3) 0.7417(2)
H14_4 H 0.6445 0.6470 0.7467
C20_4 C 0.5568(3) 0.7127(3) 0.7115(3)
H15_4 H 0.5923 0.7394 0.6954
O1_4 O 0.0174(2) 0.39574(19) 0.96628(17)
C24_4 C 0.5497(3) 0.0538(2) 0.95546(18)
H17_4 H 0.5456 0.0117 0.9376
C25_4 C 0.5824(3) 0.1088(2) 0.93398(18)
O5_4 O 0.6090(2) 0.10689(17) 0.88599(14)
C26_4 C 0.5941(3) 0.1692(2) 0.96122(19)
H18_4 H 0.6196 0.2056 0.9470
C28_4 C 0.5807(3) 0.0567(2) 0.84918(17)
C29_4 C 0.6379(3) 0.0243(2) 0.82579(18)
H20_4 H 0.6935 0.0364 0.8352
C33_4 C 0.4985(3) 0.0410(2) 0.83507(18)
H23_4 H 0.4597 0.0646 0.8506
N3_4 N 0.9874(2) 0.2984(2) 0.00471(17)
H6_4 H 0.9498 0.2700 0.0101
H7_4 H 0.8388 0.3116 0.0175
Cl1_4 Cl 0.67151(7) 0.32545(6) 0.00812(5)
C51 C 0.0264(3) 0.6218(2) 0.7046(2)
H35 H 0.0517 0.5802 0.7155
C52 C 0.0542(3) 0.6801(2) 0.7314(2)
H36 H 0.0986 0.6775 0.7610
N13 N 0.0210(2) 0.74042(18) 0.71744(15)
Zn6 Zn 0.05400(2) 0.82480(2) 0.76486(2)
H45 H 0.1027 0.9906 0.6434
C68 C 0.0177(3) 0.9195(2) 0.70029(17)
O16 O 0.0900(2) 0.89897(17) 0.70958(13)
N8 N 0.1736(2) 0.80336(19) 0.79917(15)
C35 C 0.2345(3) 0.8343(2) 0.78219(18)
H24 H 0.2221 0.8691 0.7563
C36 C 0.3153(3) 0.8174(2) 0.80091(19)
H25 H 0.3571 0.8408 0.7884
C37 C 0.3339(3) 0.7658(2) 0.83813(17)
C38 C 0.2704(3) 0.7347(2) 0.85691(19)
H26 H 0.2810 0.7000 0.8831
C39 C 0.1920(3) 0.7554(2) 0.83663(19)
H27 H 0.1491 0.7346 0.8499
C40 C 0.4184(3) 0.7461(2) 0.85721(19)
H28 H 0.4608 0.7708 0.8465
N9 N 0.4351(2) 0.69536(19) 0.88833(16)
N10 N 0.5161(2) 0.68062(19) 0.90329(17)
H29 H 0.5530 0.7067 0.8938
C41 C 0.5373(3) 0.6243(2) 0.9333(2)
O10 O 0.4873(2) 0.5856(2) 0.94527(19)
C42 C 0.6265(3) 0.6122(2) 0.95140(18)
C43 C 0.6847(3) 0.6428(2) 0.92673(18)
H30 H 0.6688 0.6731 0.8976
C44 C 0.7662(3) 0.6281(2) 0.94564(18)
Cl2 Cl 0.83872(7) 0.66566(6) 0.91553(5)
C45 C 0.7908(3) 0.5840(2) 0.98830(18)
C47 C 0.6501(3) 0.5673(2) 0.99344(17)
C55 C 0.0128(3) 0.8552(2) 0.85403(17)
O12 O 0.0456(2) 0.90427(16) 0.83618(13)
O13 O 0.0035(2) 0.79965(16) 0.82876(13)
Zn4 Zn 0.05400(2) 0.17520(2) 0.26486(2)
N8_2 N 0.1736(2) 0.19664(19) 0.29917(15)
C35_2 C 0.2345(3) 0.1657(2) 0.28219(18)
H24_2 H 0.2221 0.1309 0.2563
C36_2 C 0.3153(3) 0.1826(2) 0.30091(19)
H25_2 H 0.3571 0.1592 0.2884
C37_2 C 0.3339(3) 0.2342(2) 0.33813(17)
C38_2 C 0.2704(3) 0.2653(2) 0.35691(19)
H26_2 H 0.2810 0.3000 0.3831
C39_2 C 0.1920(3) 0.2446(2) 0.33663(19)
H27_2 H 0.1491 0.2654 0.3499
C40_2 C 0.4184(3) 0.2539(2) 0.35721(19)
H28_2 H 0.4608 0.2292 0.3465
N9_2 N 0.4351(2) 0.30464(19) 0.38833(16)
N10_2 N 0.5161(2) 0.31938(19) 0.40329(17)
H29_2 H 0.5530 0.2933 0.3938
C41_2 C 0.5373(3) 0.3757(2) 0.4333(2)
O10_2 O 0.4873(2) 0.4144(2) 0.44527(19)
C42_2 C 0.6265(3) 0.3878(2) 0.45140(18)
C43_2 C 0.6847(3) 0.3572(2) 0.42673(18)
H30_2 H 0.6688 0.3269 0.3976
C44_2 C 0.7662(3) 0.3719(2) 0.44564(18)
Cl2_2 Cl 0.83872(7) 0.33434(6) 0.41553(5)
C45_2 C 0.7908(3) 0.4160(2) 0.48830(18)
H31 H 0.8467 0.4251 0.5010
C46 C 0.7326(3) 0.4465(2) 0.51189(17)
C47_2 C 0.6501(3) 0.4327(2) 0.49344(17)
H32 H 0.6105 0.4541 0.5097
C48 C 0.7528(3) 0.4993(2) 0.55504(18)
O11 O 0.7000(2) 0.53438(16) 0.56812(14)
N11 N 0.8328(2) 0.50634(18) 0.57649(16)
H33 H 0.8676 0.4747 0.5725
N12 N 0.8583(2) 0.56402(18) 0.60455(15)
C49 C 0.9294(3) 0.5635(2) 0.6338(2)
H34 H 0.9612 0.5238 0.6374
C50 C 0.9608(3) 0.6248(2) 0.66140(19)
C53 C 0.9572(3) 0.7424(2) 0.67691(18)
H37 H 0.9317 0.7844 0.6677
C54 C 0.9262(3) 0.6869(2) 0.64765(18)
H38 H 0.8815 0.6912 0.6183
C55_2 C 0.0128(3) 0.1448(2) 0.35403(17)
O12_2 O 0.0456(2) 0.09573(16) 0.33618(13)
O13_2 O 0.0035(2) 0.20035(16) 0.32876(13)
C66 C 0.0484(3) 0.0064(2) 0.63685(18)
C67 C 0.0255(3) 0.0585(2) 0.60007(19)
H46 H 0.0632 0.0783 0.5814
N14 N 0.0210(2) 0.25958(18) 0.21744(15)
O18 O 0.0900(2) 0.10103(17) 0.20958(13)
C51_2 C 0.0264(3) 0.3782(2) 0.2046(2)
H35_2 H 0.0517 0.4198 0.2155
C52_2 C 0.0542(3) 0.3199(2) 0.2314(2)
H36_2 H 0.0986 0.3225 0.2610
H45_2 H 0.1027 0.0094 0.1434
C68_2 C 0.0177(3) 0.0805(2) 0.20029(17)
C56 C 0.9851(2) 0.1396(2) 0.40614(17)
C57 C 0.9818(3) 0.0775(2) 0.43072(18)
H39 H 0.9952 0.0382 0.4132
C58 C 0.9595(3) 0.0723(2) 0.48036(19)
H40 H 0.9562 0.0298 0.4967
C59 C 0.9417(3) 0.1308(2) 0.50575(18)
O14 O 0.9173(2) 0.13052(17) 0.55469(15)
C60 C 0.9432(3) 0.1925(2) 0.48137(19)
H41 H 0.9307 0.2318 0.4992
C61 C 0.9629(3) 0.1971(2) 0.43125(18)
H42 H 0.9614 0.2393 0.4137
C62 C 0.9458(3) 0.0801(2) 0.59172(18)
C63 C 0.8908(3) 0.0541(2) 0.62041(19)
H43 H 0.8372 0.0714 0.6153
C64 C 0.9149(3) 0.0028(2) 0.65653(19)
O17 O 0.9644(2) 0.11023(16) 0.22120(14)
H44 H 0.8779 0.0155 0.1766
C65 C 0.9936(3) 0.0224(2) 0.16372(17)
H44_2 H 0.8779 0.9845 0.6766
C65_2 C 0.9936(3) 0.9776(2) 0.66372(17)
O15 O 0.9644(2) 0.88977(16) 0.72120(14)
C56_2 C 0.9851(2) 0.8604(2) 0.90614(17)
C57_2 C 0.9818(3) 0.9225(2) 0.93072(18)
H39_2 H 0.9952 0.9618 0.9132
C58_2 C 0.9595(3) 0.9277(2) 0.98036(19)
H40_2 H 0.9562 0.9702 0.9967
C60_2 C 0.9432(3) 0.8075(2) 0.98137(19)
H41_2 H 0.9307 0.7682 0.9992
C61_2 C 0.9629(3) 0.8029(2) 0.93125(18)
H42_2 H 0.9614 0.7607 0.9137
H31_2 H 0.8467 0.5749 0.0010
C46_2 C 0.7326(3) 0.5535(2) 0.01189(17)
H32_2 H 0.6105 0.5459 0.0097
C48_2 C 0.7528(3) 0.5007(2) 0.05504(18)
O11_2 O 0.7000(2) 0.46562(16) 0.06812(14)
N11_2 N 0.8328(2) 0.49366(18) 0.07649(16)
H33_2 H 0.8676 0.5253 0.0725
N12_2 N 0.8583(2) 0.43598(18) 0.10455(15)
C49_2 C 0.9294(3) 0.4365(2) 0.1338(2)
H34_2 H 0.9612 0.4762 0.1374
C50_2 C 0.9608(3) 0.3752(2) 0.16140(19)
C53_2 C 0.9572(3) 0.2576(2) 0.17691(18)
H37_2 H 0.9317 0.2156 0.1677
C54_2 C 0.9262(3) 0.3131(2) 0.14765(18)
H38_2 H 0.8815 0.3088 0.1183
C66_2 C 0.0484(3) 0.9936(2) 0.13685(18)
C67_2 C 0.0255(3) 0.9415(2) 0.10007(19)
H46_2 H 0.0632 0.9217 0.0814
C59_2 C 0.9417(3) 0.8692(2) 0.00575(18)
O14_2 O 0.9173(2) 0.86948(17) 0.05469(15)
C62_2 C 0.9458(3) 0.9199(2) 0.09172(18)
C63_2 C 0.8908(3) 0.9459(2) 0.12041(19)
H43_2 H 0.8372 0.9286 0.1153
C64_2 C 0.9149(3) 0.9972(2) 0.15653(19)
O11_3 O 0.2000(2) 0.03438(16) 0.56812(14)
N11_3 N 0.3328(2) 0.00634(18) 0.57649(16)
N12_3 N 0.3583(2) 0.06402(18) 0.60455(15)
C49_3 C 0.4294(3) 0.0635(2) 0.6338(2)
H34_3 H 0.4612 0.0238 0.6374
C50_3 C 0.4608(3) 0.1248(2) 0.66140(19)
C51_3 C 0.5264(3) 0.1218(2) 0.7046(2)
H35_3 H 0.5517 0.0802 0.7155
C52_3 C 0.5542(3) 0.1801(2) 0.7314(2)
H36_3 H 0.5986 0.1775 0.7610
C53_3 C 0.4572(3) 0.2424(2) 0.67691(18)
H37_3 H 0.4317 0.2844 0.6677
C54_3 C 0.4262(3) 0.1869(2) 0.64765(18)
H38_3 H 0.3815 0.1912 0.6183
N13_2 N 0.5210(2) 0.24042(18) 0.71744(15)
Zn6_2 Zn 0.55400(2) 0.32480(2) 0.76486(2)
Zn4_2 Zn 0.55400(2) 0.67520(2) 0.26486(2)
N8_3 N 0.6736(2) 0.69664(19) 0.29917(15)
C35_3 C 0.7345(3) 0.6657(2) 0.28219(18)
H24_3 H 0.7221 0.6309 0.2563
C36_3 C 0.8153(3) 0.6826(2) 0.30091(19)
H25_3 H 0.8571 0.6592 0.2884
C37_3 C 0.8339(3) 0.7342(2) 0.33813(17)
C38_3 C 0.7704(3) 0.7653(2) 0.35691(19)
H26_3 H 0.7810 0.8000 0.3831
C39_3 C 0.6920(3) 0.7446(2) 0.33663(19)
H27_3 H 0.6491 0.7654 0.3499
C40_3 C 0.9184(3) 0.7539(2) 0.35721(19)
H28_3 H 0.9608 0.7292 0.3465
N9_3 N 0.9351(2) 0.80464(19) 0.38833(16)
O10_3 O 0.9873(2) 0.9144(2) 0.44527(19)
C55_3 C 0.5128(3) 0.6448(2) 0.35403(17)
O12_3 O 0.5456(2) 0.59573(16) 0.33618(13)
O13_3 O 0.5035(2) 0.70035(16) 0.32876(13)
C56_3 C 0.4851(2) 0.6396(2) 0.40614(17)
C57_3 C 0.4818(3) 0.5775(2) 0.43072(18)
H39_3 H 0.4952 0.5382 0.4132
C58_3 C 0.4595(3) 0.5723(2) 0.48036(19)
H40_3 H 0.4562 0.5298 0.4967
C59_3 C 0.4417(3) 0.6308(2) 0.50575(18)
O14_3 O 0.4173(2) 0.63052(17) 0.55469(15)
C60_3 C 0.4432(3) 0.6925(2) 0.48137(19)
H41_3 H 0.4307 0.7318 0.4992
C61_3 C 0.4629(3) 0.6971(2) 0.43125(18)
H42_3 H 0.4614 0.7393 0.4137
C62_3 C 0.4458(3) 0.5801(2) 0.59172(18)
C63_3 C 0.3908(3) 0.5541(2) 0.62041(19)
H43_3 H 0.3372 0.5714 0.6153
C64_3 C 0.4149(3) 0.5028(2) 0.65653(19)
H44_3 H 0.3779 0.4845 0.6766
C65_3 C 0.4936(3) 0.4776(2) 0.66372(17)
C66_3 C 0.5484(3) 0.5064(2) 0.63685(18)
H45_3 H 0.6027 0.4906 0.6434
C67_3 C 0.5255(3) 0.5585(2) 0.60007(19)
H46_3 H 0.5632 0.5783 0.5814
C68_3 C 0.5177(3) 0.4195(2) 0.70029(17)
O15_2 O 0.4644(2) 0.38977(16) 0.72120(14)
O16_2 O 0.5900(2) 0.39897(17) 0.70958(13)
N14_2 N 0.5210(2) 0.75958(18) 0.21744(15)
O17_2 O 0.4644(2) 0.61023(16) 0.22120(14)
O18_2 O 0.5900(2) 0.60103(17) 0.20958(13)
O11_4 O 0.2000(2) 0.96562(16) 0.06812(14)
N11_4 N 0.3328(2) 0.99366(18) 0.07649(16)
N12_4 N 0.3583(2) 0.93598(18) 0.10455(15)
C49_4 C 0.4294(3) 0.9365(2) 0.1338(2)
H34_4 H 0.4612 0.9762 0.1374
C50_4 C 0.4608(3) 0.8752(2) 0.16140(19)
C51_4 C 0.5264(3) 0.8782(2) 0.2046(2)
H35_4 H 0.5517 0.9198 0.2155
C52_4 C 0.5542(3) 0.8199(2) 0.2314(2)
H36_4 H 0.5986 0.8225 0.2610
C53_4 C 0.4572(3) 0.7576(2) 0.17691(18)
H37_4 H 0.4317 0.7156 0.1677
C54_4 C 0.4262(3) 0.8131(2) 0.14765(18)
H38_4 H 0.3815 0.8088 0.1183
C59_4 C 0.4417(3) 0.3692(2) 0.00575(18)
O14_4 O 0.4173(2) 0.36948(17) 0.05469(15)
C62_4 C 0.4458(3) 0.4199(2) 0.09172(18)
C63_4 C 0.3908(3) 0.4459(2) 0.12041(19)
H43_4 H 0.3372 0.4286 0.1153
C64_4 C 0.4149(3) 0.4972(2) 0.15653(19)
H44_4 H 0.3779 0.5155 0.1766
C65_4 C 0.4936(3) 0.5224(2) 0.16372(17)
C66_4 C 0.5484(3) 0.4936(2) 0.13685(18)
H45_4 H 0.6027 0.5094 0.1434
C67_4 C 0.5255(3) 0.4415(2) 0.10007(19)
H46_4 H 0.5632 0.4217 0.0814
C68_4 C 0.5177(3) 0.5805(2) 0.20029(17)
N8_4 N 0.6736(2) 0.30336(19) 0.79917(15)
C35_4 C 0.7345(3) 0.3343(2) 0.78219(18)
H24_4 H 0.7221 0.3691 0.7563
C36_4 C 0.8153(3) 0.3174(2) 0.80091(19)
H25_4 H 0.8571 0.3408 0.7884
C37_4 C 0.8339(3) 0.2658(2) 0.83813(17)
C38_4 C 0.7704(3) 0.2347(2) 0.85691(19)
H26_4 H 0.7810 0.2000 0.8831
C39_4 C 0.6920(3) 0.2554(2) 0.83663(19)
H27_4 H 0.6491 0.2346 0.8499
C40_4 C 0.9184(3) 0.2461(2) 0.85721(19)
H28_4 H 0.9608 0.2708 0.8465
N9_4 N 0.9351(2) 0.19536(19) 0.88833(16)
O10_4 O 0.9873(2) 0.0856(2) 0.94527(19)
C55_4 C 0.5128(3) 0.3552(2) 0.85403(17)
O12_4 O 0.5456(2) 0.40427(16) 0.83618(13)
O13_4 O 0.5035(2) 0.29965(16) 0.82876(13)
C56_4 C 0.4851(2) 0.3604(2) 0.90614(17)
C57_4 C 0.4818(3) 0.4225(2) 0.93072(18)
H39_4 H 0.4952 0.4618 0.9132
C58_4 C 0.4595(3) 0.4277(2) 0.98036(19)
H40_4 H 0.4562 0.4702 0.9967
C60_4 C 0.4432(3) 0.3075(2) 0.98137(19)
H41_4 H 0.4307 0.2682 0.9992
C61_4 C 0.4629(3) 0.3029(2) 0.93125(18)
H42_4 H 0.4614 0.2607 0.9137
N10_3 N 0.0161(2) 0.81938(19) 0.40329(17)
H29_3 H 0.0530 0.7933 0.3938
C41_3 C 0.0373(3) 0.8757(2) 0.4333(2)
C42_3 C 0.1265(3) 0.8878(2) 0.45140(18)
C43_3 C 0.1847(3) 0.8572(2) 0.42673(18)
H30_3 H 0.1688 0.8269 0.3976
C44_3 C 0.2662(3) 0.8719(2) 0.44564(18)
Cl2_3 Cl 0.33872(7) 0.83434(6) 0.41553(5)
C45_3 C 0.2908(3) 0.9160(2) 0.48830(18)
H31_3 H 0.3467 0.9251 0.5010
C46_3 C 0.2326(3) 0.9465(2) 0.51189(17)
C47_3 C 0.1501(3) 0.9327(2) 0.49344(17)
H32_3 H 0.1105 0.9541 0.5097
C48_3 C 0.2528(3) 0.9993(2) 0.55504(18)
H33_3 H 0.3676 0.9747 0.5725
H31_4 H 0.3467 0.0749 0.0010
C46_4 C 0.2326(3) 0.0535(2) 0.01189(17)
H32_4 H 0.1105 0.0459 0.0097
C48_4 C 0.2528(3) 0.0007(2) 0.05504(18)
H33_4 H 0.3676 0.0253 0.0725
N10_4 N 0.0161(2) 0.18062(19) 0.90329(17)
H29_4 H 0.0530 0.2067 0.8938
C41_4 C 0.0373(3) 0.1243(2) 0.9333(2)
C42_4 C 0.1265(3) 0.1122(2) 0.95140(18)
C43_4 C 0.1847(3) 0.1428(2) 0.92673(18)
H30_4 H 0.1688 0.1731 0.8976
C44_4 C 0.2662(3) 0.1281(2) 0.94564(18)
Cl2_4 Cl 0.33872(7) 0.16566(6) 0.91553(5)
C45_4 C 0.2908(3) 0.0840(2) 0.98830(18)
C47_4 C 0.1501(3) 0.0673(2) 0.99344(17)
loop_
_geom_bond_atom_site_label_1
_geom_bond_atom_site_label_2
_geom_bond_site_symmetry_1
_geom_bond_site_symmetry_2
C23 C22 1_555 1_555
C24 C23 1_555 1_555
H17 C24 1_555 1_555
C25 C24 1_555 1_555
O5 C25 1_555 1_555
C26 C25 1_555 1_555
H18 C26 1_555 1_555
C27 C22 1_555 1_555
H19 C27 1_555 1_555
C28 O5 1_555 1_555
C29 C28 1_555 1_555
H20 C29 1_555 1_555
C30 C29 1_555 1_555
H21 C30 1_555 1_555
C31 C30 1_555 1_555
C34 C31 1_555 1_555
O6 C34 1_555 1_555
C26 C27 1_555 1_555
C23_2 C22_2 1_555 1_555
C27_2 C22_2 1_555 1_555
H19_2 C27_2 1_555 1_555
H17_2 C24_2 1_555 1_555
C25_2 C24_2 1_555 1_555
O5_2 C25_2 1_555 1_555
C26_2 C25_2 1_555 1_555
H18_2 C26_2 1_555 1_555
C28_2 O5_2 1_555 1_555
C29_2 C28_2 1_555 1_555
H20_2 C29_2 1_555 1_555
C30_2 C29_2 1_555 1_555
H21_2 C30_2 1_555 1_555
C31_2 C30_2 1_555 1_555
C34_2 C31_2 1_555 1_555
O8 C34_2 1_555 1_555
Zn1 N1 1_555 1_555
N1 C1 1_555 1_555
C1 H1 1_555 1_555
C2 C1 1_555 1_555
H2 C2 1_555 1_555
C3 C2 1_555 1_555
C4 C3 1_555 1_555
H3 C4 1_555 1_555
C5 N1 1_555 1_555
H4 C5 1_555 1_555
C6 C3 1_555 1_555
H5 C6 1_555 1_555
N2 C6 1_555 1_555
N3 N2 1_555 1_555
H6 N3 1_555 1_555
C7 N3 1_555 1_555
O1 C7 1_555 1_555
C8 C7 1_555 1_555
C9 C8 1_555 1_555
H7 C9 1_555 1_555
C10 C9 1_555 1_555
Cl1 C10 1_555 1_555
C11 C10 1_555 1_555
H8 C11 1_555 1_555
C12 C11 1_555 1_555
C13 C8 1_555 1_555
H9 C13 1_555 1_555
C14 C12 1_555 1_555
N4 C14 1_555 1_555
H10 N4 1_555 1_555
O4 Zn1 1_555 1_555
H22 C32 1_555 1_555
H23 C33 1_555 1_555
N7 Zn1 1_555 1_555
O9 Zn1 1_555 1_555
C4 C5 1_555 1_555
C12 C13 1_555 1_555
C21 O4 1_555 1_555
C32 C33 1_555 1_555
O7 Zn3 1_555 1_555
H12 C17 1_555 1_555
C18 C17 1_555 1_555
H13 C18 1_555 1_555
N6 C18 1_555 1_555
Zn3 N6 1_555 1_555
Zn3 N1_2 1_555 1_555
N1_2 C1_2 1_555 1_555
C1_2 H1_2 1_555 1_555
C2_2 C1_2 1_555 1_555
H2_2 C2_2 1_555 1_555
C3_2 C2_2 1_555 1_555
C4_2 C3_2 1_555 1_555
H3_2 C4_2 1_555 1_555
C5_2 N1_2 1_555 1_555
H4_2 C5_2 1_555 1_555
C6_2 C3_2 1_555 1_555
H5_2 C6_2 1_555 1_555
N2_2 C6_2 1_555 1_555
N3_2 N2_2 1_555 1_555
H6_2 N3_2 1_555 1_555
O4_2 Zn3 1_555 1_555
C4_2 C5_2 1_555 1_555
C21_2 O4_2 1_555 1_555
O1_2 C7_2 1_555 1_555
C8_2 C7_2 1_555 1_555
C9_2 C8_2 1_555 1_555
C10_2 C9_2 1_555 1_555
C11_2 C10_2 1_555 1_555
H8_2 C11_2 1_555 1_555
C12_2 C11_2 1_555 1_555
C13_2 C8_2 1_555 1_555
H9_2 C13_2 1_555 1_555
C14_2 C12_2 1_555 1_555
N4_2 C14_2 1_555 1_555
H10_2 N4_2 1_555 1_555
H22_2 C32_2 1_555 1_555
H23_2 C33_2 1_555 1_555
C12_2 C13_2 1_555 1_555
C32_2 C33_2 1_555 1_555
H12_2 C17_2 1_555 1_555
C18_2 C17_2 1_555 1_555
H13_2 C18_2 1_555 1_555
N7 C18_2 1_555 1_555
C15 N5 1_555 1_555
H11 C15 1_555 1_555
C16 C15 1_555 1_555
C19 C16 1_555 1_555
H14 C19 1_555 1_555
C20 C19 1_555 1_555
H15 C20 1_555 1_555
C15_2 N5_2 1_555 1_555
H11_2 C15_2 1_555 1_555
C16_2 C15_2 1_555 1_555
C19_2 C16_2 1_555 1_555
H14_2 C19_2 1_555 1_555
C20_2 C19_2 1_555 1_555
H15_2 C20_2 1_555 1_555
H21_3 C30_3 1_555 1_555
C31_3 C30_3 1_555 1_555
C32_3 C31_3 1_555 1_555
H22_3 C32_3 1_555 1_555
C34_3 C31_3 1_555 1_555
O6_2 C34_3 1_555 1_555
O7_2 C34_3 1_555 1_555
Zn3_2 O6_2 1_555 1_555
O7_2 Zn3_2 1_555 1_555
H6_3 N3_3 1_555 1_555
C7_3 N3_3 1_555 1_555
C8_3 C7_3 1_555 1_555
C9_3 C8_3 1_555 1_555
H7_3 C9_3 1_555 1_555
C10_3 C9_3 1_555 1_555
Cl1_3 C10_3 1_555 1_555
C11_3 C10_3 1_555 1_555
H8_3 C11_3 1_555 1_555
C12_3 C11_3 1_555 1_555
C13_3 C8_3 1_555 1_555
H9_3 C13_3 1_555 1_555
C14_3 C12_3 1_555 1_555
O2_3 C14_3 1_555 1_555
N4_3 C14_3 1_555 1_555
H10_3 N4_3 1_555 1_555
N5_3 N4_3 1_555 1_555
C15_3 N5_3 1_555 1_555
H11_3 C15_3 1_555 1_555
C16_3 C15_3 1_555 1_555
C17_3 C16_3 1_555 1_555
H12_3 C17_3 1_555 1_555
C18_3 C17_3 1_555 1_555
H13_3 C18_3 1_555 1_555
C19_3 C16_3 1_555 1_555
H14_3 C19_3 1_555 1_555
C20_3 C19_3 1_555 1_555
H15_3 C20_3 1_555 1_555
N6_2 C18_3 1_555 1_555
Zn3_2 N6_2 1_555 1_555
C12_3 C13_3 1_555 1_555
C20_3 N6_2 1_555 1_555
Zn3_2 N1_3 1_555 1_555
N1_3 C1_3 1_555 1_555
C1_3 H1_3 1_555 1_555
C2_3 C1_3 1_555 1_555
H2_3 C2_3 1_555 1_555
C3_3 C2_3 1_555 1_555
C4_3 C3_3 1_555 1_555
H3_3 C4_3 1_555 1_555
C5_3 N1_3 1_555 1_555
H4_3 C5_3 1_555 1_555
C6_3 C3_3 1_555 1_555
H5_3 C6_3 1_555 1_555
N2_3 C6_3 1_555 1_555
C21_3 O3_3 1_555 1_555
O3_3 Zn3_2 1_555 1_555
O4_3 Zn3_2 1_555 1_555
C22_3 C21_3 1_555 1_555
C23_3 C22_3 1_555 1_555
H16_3 C23_3 1_555 1_555
C27_3 C22_3 1_555 1_555
H19_3 C27_3 1_555 1_555
C4_3 C5_3 1_555 1_555
C21_3 O4_3 1_555 1_555
Zn1_2 N1_4 1_555 1_555
N1_4 C1_4 1_555 1_555
C1_4 H1_4 1_555 1_555
C2_4 C1_4 1_555 1_555
H2_4 C2_4 1_555 1_555
C3_4 C2_4 1_555 1_555
C4_4 C3_4 1_555 1_555
H3_4 C4_4 1_555 1_555
C5_4 N1_4 1_555 1_555
H4_4 C5_4 1_555 1_555
C6_4 C3_4 1_555 1_555
H5_4 C6_4 1_555 1_555
N2_4 C6_4 1_555 1_555
C21_4 O3_4 1_555 1_555
O3_4 Zn1_2 1_555 1_555
O4_4 Zn1_2 1_555 1_555
C22_4 C21_4 1_555 1_555
C23_4 C22_4 1_555 1_555
H16_4 C23_4 1_555 1_555
C24_3 C23_4 1_555 1_555
H17_3 C24_3 1_555 1_555
C25_3 C24_3 1_555 1_555
O5_3 C25_3 1_555 1_555
C26_3 C25_3 1_555 1_555
H18_3 C26_3 1_555 1_555
C27_4 C22_4 1_555 1_555
H19_4 C27_4 1_555 1_555
C28_3 O5_3 1_555 1_555
C29_3 C28_3 1_555 1_555
H20_3 C29_3 1_555 1_555
C33_3 C28_3 1_555 1_555
H23_3 C33_3 1_555 1_555
N7_2 Zn1_2 1_555 1_555
O8_2 Zn1_2 1_555 1_555
O9_2 Zn1_2 1_555 1_555
C4_4 C5_4 1_555 1_555
C21_4 O4_4 1_555 1_555
C26_3 C27_4 1_555 1_555
H21_4 C30_4 1_555 1_555
C31_4 C30_4 1_555 1_555
C32_4 C31_4 1_555 1_555
H22_4 C32_4 1_555 1_555
C34_4 C31_4 1_555 1_555
O8_2 C34_4 1_555 1_555
O9_2 C34_4 1_555 1_555
C8_4 C7_4 1_555 1_555
C9_4 C8_4 1_555 1_555
C10_4 C9_4 1_555 1_555
C11_4 C10_4 1_555 1_555
H8_4 C11_4 1_555 1_555
C12_4 C11_4 1_555 1_555
C13_4 C8_4 1_555 1_555
H9_4 C13_4 1_555 1_555
C14_4 C12_4 1_555 1_555
O2_4 C14_4 1_555 1_555
N4_4 C14_4 1_555 1_555
H10_4 N4_4 1_555 1_555
N5_4 N4_4 1_555 1_555
C15_4 N5_4 1_555 1_555
H11_4 C15_4 1_555 1_555
C16_4 C15_4 1_555 1_555
C17_4 C16_4 1_555 1_555
H12_4 C17_4 1_555 1_555
C18_4 C17_4 1_555 1_555
H13_4 C18_4 1_555 1_555
C19_4 C16_4 1_555 1_555
H14_4 C19_4 1_555 1_555
C20_4 C19_4 1_555 1_555
H15_4 C20_4 1_555 1_555
N7_2 C18_4 1_555 1_555
C12_4 C13_4 1_555 1_555
C20_4 N7_2 1_555 1_555
H17_4 C24_4 1_555 1_555
C25_4 C24_4 1_555 1_555
O5_4 C25_4 1_555 1_555
C26_4 C25_4 1_555 1_555
H18_4 C26_4 1_555 1_555
C28_4 O5_4 1_555 1_555
C29_4 C28_4 1_555 1_555
H20_4 C29_4 1_555 1_555
C33_4 C28_4 1_555 1_555
H23_4 C33_4 1_555 1_555
H6_4 N3_4 1_555 1_555
H35 C51 1_555 1_555
C52 C51 1_555 1_555
H36 C52 1_555 1_555
N13 C52 1_555 1_555
Zn6 N13 1_555 1_555
O16 C68 1_555 1_555
O16 Zn6 1_555 1_555
Zn6 N8 1_555 1_555
N8 C35 1_555 1_555
C35 H24 1_555 1_555
C36 C35 1_555 1_555
H25 C36 1_555 1_555
C37 C36 1_555 1_555
C38 C37 1_555 1_555
H26 C38 1_555 1_555
C39 N8 1_555 1_555
H27 C39 1_555 1_555
C40 C37 1_555 1_555
H28 C40 1_555 1_555
N9 C40 1_555 1_555
N10 N9 1_555 1_555
H29 N10 1_555 1_555
C41 N10 1_555 1_555
O10 C41 1_555 1_555
C42 C41 1_555 1_555
C43 C42 1_555 1_555
H30 C43 1_555 1_555
C44 C43 1_555 1_555
Cl2 C44 1_555 1_555
C45 C44 1_555 1_555
C47 C42 1_555 1_555
C55 O12 1_555 1_555
O12 Zn6 1_555 1_555
O13 Zn6 1_555 1_555
C38 C39 1_555 1_555
C55 O13 1_555 1_555
Zn4 N8_2 1_555 1_555
N8_2 C35_2 1_555 1_555
C35_2 H24_2 1_555 1_555
C36_2 C35_2 1_555 1_555
H25_2 C36_2 1_555 1_555
C37_2 C36_2 1_555 1_555
C38_2 C37_2 1_555 1_555
H26_2 C38_2 1_555 1_555
C39_2 N8_2 1_555 1_555
H27_2 C39_2 1_555 1_555
C40_2 C37_2 1_555 1_555
H28_2 C40_2 1_555 1_555
N9_2 C40_2 1_555 1_555
N10_2 N9_2 1_555 1_555
H29_2 N10_2 1_555 1_555
C41_2 N10_2 1_555 1_555
O10_2 C41_2 1_555 1_555
C42_2 C41_2 1_555 1_555
C43_2 C42_2 1_555 1_555
H30_2 C43_2 1_555 1_555
C44_2 C43_2 1_555 1_555
Cl2_2 C44_2 1_555 1_555
C45_2 C44_2 1_555 1_555
H31 C45_2 1_555 1_555
C46 C45_2 1_555 1_555
C47_2 C42_2 1_555 1_555
H32 C47_2 1_555 1_555
C48 C46 1_555 1_555
O11 C48 1_555 1_555
N11 C48 1_555 1_555
H33 N11 1_555 1_555
N12 N11 1_555 1_555
C49 N12 1_555 1_555
H34 C49 1_555 1_555
C50 C49 1_555 1_555
C53 H37 1_555 1_555
C54 C50 1_555 1_555
H38 C54 1_555 1_555
C55_2 O12_2 1_555 1_555
O12_2 Zn4 1_555 1_555
O13_2 Zn4 1_555 1_555
H46 C67 1_555 1_555
N14 Zn4 1_555 1_555
O18 Zn4 1_555 1_555
C38_2 C39_2 1_555 1_555
C46 C47_2 1_555 1_555
C53 C54 1_555 1_555
C55_2 O13_2 1_555 1_555
C66 C67 1_555 1_555
H35_2 C51_2 1_555 1_555
C52_2 C51_2 1_555 1_555
H36_2 C52_2 1_555 1_555
N14 C52_2 1_555 1_555
O18 C68_2 1_555 1_555
C57 C56 1_555 1_555
H39 C57 1_555 1_555
C58 C57 1_555 1_555
H40 C58 1_555 1_555
C59 C58 1_555 1_555
O14 C59 1_555 1_555
C60 C59 1_555 1_555
H41 C60 1_555 1_555
C61 C56 1_555 1_555
H42 C61 1_555 1_555
C62 O14 1_555 1_555
C63 C62 1_555 1_555
H43 C63 1_555 1_555
C64 C63 1_555 1_555
C60 C61 1_555 1_555
C57_2 C56_2 1_555 1_555
H39_2 C57_2 1_555 1_555
C58_2 C57_2 1_555 1_555
H40_2 C58_2 1_555 1_555
H41_2 C60_2 1_555 1_555
C61_2 C56_2 1_555 1_555
H42_2 C61_2 1_555 1_555
C60_2 C61_2 1_555 1_555
C48_2 C46_2 1_555 1_555
O11_2 C48_2 1_555 1_555
N11_2 C48_2 1_555 1_555
H33_2 N11_2 1_555 1_555
N12_2 N11_2 1_555 1_555
C49_2 N12_2 1_555 1_555
H34_2 C49_2 1_555 1_555
C50_2 C49_2 1_555 1_555
C53_2 H37_2 1_555 1_555
C54_2 C50_2 1_555 1_555
H38_2 C54_2 1_555 1_555
H46_2 C67_2 1_555 1_555
C53_2 C54_2 1_555 1_555
C66_2 C67_2 1_555 1_555
O14_2 C59_2 1_555 1_555
C62_2 O14_2 1_555 1_555
C63_2 C62_2 1_555 1_555
H43_2 C63_2 1_555 1_555
C64_2 C63_2 1_555 1_555
N12_3 N11_3 1_555 1_555
C49_3 N12_3 1_555 1_555
H34_3 C49_3 1_555 1_555
C50_3 C49_3 1_555 1_555
C51_3 C50_3 1_555 1_555
H35_3 C51_3 1_555 1_555
C52_3 C51_3 1_555 1_555
H36_3 C52_3 1_555 1_555
C53_3 H37_3 1_555 1_555
C54_3 C50_3 1_555 1_555
H38_3 C54_3 1_555 1_555
N13_2 C52_3 1_555 1_555
Zn6_2 N13_2 1_555 1_555
C53_3 C54_3 1_555 1_555
C53_3 N13_2 1_555 1_555
Zn4_2 N8_3 1_555 1_555
N8_3 C35_3 1_555 1_555
C35_3 H24_3 1_555 1_555
C36_3 C35_3 1_555 1_555
H25_3 C36_3 1_555 1_555
C37_3 C36_3 1_555 1_555
C38_3 C37_3 1_555 1_555
H26_3 C38_3 1_555 1_555
C39_3 N8_3 1_555 1_555
H27_3 C39_3 1_555 1_555
C40_3 C37_3 1_555 1_555
H28_3 C40_3 1_555 1_555
N9_3 C40_3 1_555 1_555
C55_3 O12_3 1_555 1_555
O12_3 Zn4_2 1_555 1_555
O13_3 Zn4_2 1_555 1_555
C56_3 C55_3 1_555 1_555
C57_3 C56_3 1_555 1_555
H39_3 C57_3 1_555 1_555
C58_3 C57_3 1_555 1_555
H40_3 C58_3 1_555 1_555
C59_3 C58_3 1_555 1_555
O14_3 C59_3 1_555 1_555
C60_3 C59_3 1_555 1_555
H41_3 C60_3 1_555 1_555
C61_3 C56_3 1_555 1_555
H42_3 C61_3 1_555 1_555
C62_3 O14_3 1_555 1_555
C63_3 C62_3 1_555 1_555
H43_3 C63_3 1_555 1_555
C64_3 C63_3 1_555 1_555
H44_3 C64_3 1_555 1_555
C65_3 C64_3 1_555 1_555
C66_3 C65_3 1_555 1_555
H45_3 C66_3 1_555 1_555
C67_3 C62_3 1_555 1_555
H46_3 C67_3 1_555 1_555
C68_3 C65_3 1_555 1_555
O15_2 C68_3 1_555 1_555
O16_2 C68_3 1_555 1_555
Zn6_2 O15_2 1_555 1_555
N14_2 Zn4_2 1_555 1_555
O17_2 Zn4_2 1_555 1_555
O18_2 Zn4_2 1_555 1_555
C38_3 C39_3 1_555 1_555
C55_3 O13_3 1_555 1_555
C60_3 C61_3 1_555 1_555
C66_3 C67_3 1_555 1_555
O16_2 Zn6_2 1_555 1_555
N12_4 N11_4 1_555 1_555
C49_4 N12_4 1_555 1_555
H34_4 C49_4 1_555 1_555
C50_4 C49_4 1_555 1_555
C51_4 C50_4 1_555 1_555
H35_4 C51_4 1_555 1_555
C52_4 C51_4 1_555 1_555
H36_4 C52_4 1_555 1_555
C53_4 H37_4 1_555 1_555
C54_4 C50_4 1_555 1_555
H38_4 C54_4 1_555 1_555
N14_2 C52_4 1_555 1_555
C53_4 C54_4 1_555 1_555
C53_4 N14_2 1_555 1_555
O14_4 C59_4 1_555 1_555
C62_4 O14_4 1_555 1_555
C63_4 C62_4 1_555 1_555
H43_4 C63_4 1_555 1_555
C64_4 C63_4 1_555 1_555
H44_4 C64_4 1_555 1_555
C65_4 C64_4 1_555 1_555
C66_4 C65_4 1_555 1_555
H45_4 C66_4 1_555 1_555
C67_4 C62_4 1_555 1_555
H46_4 C67_4 1_555 1_555
C68_4 C65_4 1_555 1_555
O17_2 C68_4 1_555 1_555
O18_2 C68_4 1_555 1_555
C66_4 C67_4 1_555 1_555
Zn6_2 N8_4 1_555 1_555
N8_4 C35_4 1_555 1_555
C35_4 H24_4 1_555 1_555
C36_4 C35_4 1_555 1_555
H25_4 C36_4 1_555 1_555
C37_4 C36_4 1_555 1_555
C38_4 C37_4 1_555 1_555
H26_4 C38_4 1_555 1_555
C39_4 N8_4 1_555 1_555
H27_4 C39_4 1_555 1_555
C40_4 C37_4 1_555 1_555
H28_4 C40_4 1_555 1_555
N9_4 C40_4 1_555 1_555
C55_4 O12_4 1_555 1_555
O12_4 Zn6_2 1_555 1_555
O13_4 Zn6_2 1_555 1_555
C56_4 C55_4 1_555 1_555
C57_4 C56_4 1_555 1_555
H39_4 C57_4 1_555 1_555
C58_4 C57_4 1_555 1_555
H40_4 C58_4 1_555 1_555
H41_4 C60_4 1_555 1_555
C61_4 C56_4 1_555 1_555
H42_4 C61_4 1_555 1_555
C38_4 C39_4 1_555 1_555
C55_4 O13_4 1_555 1_555
C60_4 C61_4 1_555 1_555
H29_3 N10_3 1_555 1_555
C41_3 N10_3 1_555 1_555
C42_3 C41_3 1_555 1_555
C43_3 C42_3 1_555 1_555
H30_3 C43_3 1_555 1_555
C44_3 C43_3 1_555 1_555
Cl2_3 C44_3 1_555 1_555
C45_3 C44_3 1_555 1_555
H31_3 C45_3 1_555 1_555
C46_3 C45_3 1_555 1_555
C47_3 C42_3 1_555 1_555
H32_3 C47_3 1_555 1_555
C48_3 C46_3 1_555 1_555
C46_3 C47_3 1_555 1_555
C48_4 C46_4 1_555 1_555
H29_4 N10_4 1_555 1_555
C41_4 N10_4 1_555 1_555
C42_4 C41_4 1_555 1_555
C43_4 C42_4 1_555 1_555
H30_4 C43_4 1_555 1_555
C44_4 C43_4 1_555 1_555
Cl2_4 C44_4 1_555 1_555
C45_4 C44_4 1_555 1_555
C47_4 C42_4 1_555 1_555

#END
