
###############################################################################
#
# This file contains modified crystal structure data generated from the
# MOF subset of the Cambridge Structural Database (CSD) v543 
# hosted by the Cambridge Crystallographic Data Centre (CCDC).
#
# This work is licensed under the Creative Commons
# Attribution-NonCommercial-ShareAlike 4.0 International License.
# To view a copy of this license, visit
# http://creativecommons.org/licenses/by-nc-sa/4.0/
# or send a letter to
# Creative Commons, PO Box 1866, Mountain View, CA 94042, USA.
#
# CIF created using the CSD Python API on 29 September 2022
# The structure has been converted into the P1 space group
# The structure has a 3D framework
# The original CSD entry GEGTAR is in the monoclinic crystal system
# The framework has been calculated to contain at least 10.0% void space
# The void calculation uses a probe of radius 1.32A, grid spacing 0.4
#
###############################################################################

data_GEGTAR
_chemical_formula_moiety         '(C272 H184 Br8 N48 O56 Zn8)n'
_symmetry_cell_setting           triclinic
_symmetry_space_group_name_H-M   'P 1'
_symmetry_Int_Tables_number      1
_space_group_name_Hall           'P 1'
loop_
_symmetry_equiv_pos_site_id
_symmetry_equiv_pos_as_xyz
1 x,y,z
_cell_length_a                   17.0102(3)
_cell_length_b                   20.0579(4)
_cell_length_c                   25.2472(5)
_cell_angle_alpha                90
_cell_angle_beta                 101.907(2)
_cell_angle_gamma                90
_cell_volume                     8428.72
loop_
_atom_site_label
_atom_site_type_symbol
_atom_site_fract_x
_atom_site_fract_y
_atom_site_fract_z
N6 N 0.1127(3) 0.7608(3) 0.7208(2)
C15 C 0.0177(4) 0.9367(4) 0.6354(3)
H11 H 0.050730 0.975150 0.636742
C16 C 0.0493(4) 0.8762(3) 0.6647(3)
C17 C 0.1205(4) 0.8790(4) 0.7053(4)
H12 H 0.148729 0.919800 0.713508
C18 C 0.1483(5) 0.8203(4) 0.7330(4)
H13 H 0.194317 0.822655 0.761622
C19 C 0.0455(4) 0.7607(3) 0.6821(3)
H14 H 0.017722 0.719668 0.674157
C20 C 0.0147(4) 0.8155(3) 0.6536(3)
Zn3 Zn 0.14651(4) 0.67674(3) 0.76771(3)
Br1 Br 0.93190(4) 0.16772(4) 0.41514(3)
Zn1 Zn 0.14651(4) 0.32326(3) 0.26771(3)
O1 O 0.5776(3) 0.0883(3) 0.4487(3)
N1 N 0.2656(3) 0.3027(3) 0.3020(2)
C1 C 0.3253(4) 0.3338(3) 0.2848(3)
H1 H 0.312244 0.369009 0.259343
N2 N 0.5256(3) 0.1962(3) 0.3908(2)
C2 C 0.4056(4) 0.3167(3) 0.3025(3)
H2 H 0.446353 0.338971 0.288607
O3 O 0.0975(3) 0.3004(2) 0.33227(18)
N3 N 0.6077(3) 0.1817(3) 0.4062(2)
H3 H 0.644344 0.207047 0.396259
C3 C 0.4255(4) 0.2661(3) 0.3410(2)
O4 O 0.1413(3) 0.4050(2) 0.33983(18)
H4 H 0.954966 0.026386 0.576197
C4 C 0.3626(4) 0.2343(3) 0.3588(3)
H5 H 0.373613 0.199045 0.384353
O5 O 0.0060(3) 0.3737(2) 0.5557(2)
C5 C 0.2843(4) 0.2543(4) 0.3391(3)
H6 H 0.242216 0.232944 0.352221
O6 O 0.0551(3) 0.6120(2) 0.72450(19)
C6 C 0.5094(4) 0.2469(3) 0.3596(3)
H7 H 0.551146 0.271413 0.348697
O7 O 0.1797(3) 0.6040(2) 0.71210(19)
C7 C 0.6278(4) 0.1265(4) 0.4374(3)
C8 C 0.7160(4) 0.1140(3) 0.4548(3)
C9 C 0.7728(4) 0.1431(3) 0.4297(3)
H8 H 0.756890 0.172198 0.399686
C10 C 0.8541(4) 0.1286(3) 0.4496(3)
C11 C 0.8789(4) 0.0843(3) 0.4913(2)
H9 H 0.934303 0.074055 0.503031
C12 C 0.8217(4) 0.0549(3) 0.5159(3)
C13 C 0.7409(4) 0.0689(3) 0.4966(3)
H10 H 0.701721 0.047088 0.512420
C14 C 0.8442(4) 0.0026(3) 0.5599(3)
C21 C 0.1069(4) 0.3570(3) 0.3578(3)
C22 C 0.0789(4) 0.3632(3) 0.4085(3)
C23 C 0.0731(4) 0.4245(3) 0.4323(3)
H16 H 0.085001 0.463449 0.414017
C24 C 0.0505(4) 0.4316(3) 0.4821(3)
H17 H 0.048160 0.474167 0.498219
C25 C 0.0313(4) 0.3731(3) 0.5072(3)
C26 C 0.0343(4) 0.3109(3) 0.4831(3)
H18 H 0.021353 0.271951 0.500932
C27 C 0.0560(4) 0.3058(3) 0.4332(3)
H19 H 0.055290 0.263655 0.415855
C28 C 0.0349(4) 0.4238(3) 0.5927(3)
C30 C 0.0045(4) 0.5015(3) 0.6578(3)
C31 C 0.0824(4) 0.5258(3) 0.6663(2)
C32 C 0.1387(4) 0.4957(3) 0.6388(3)
H22 H 0.192717 0.510984 0.645563
C33 C 0.1156(4) 0.4450(4) 0.6028(3)
H23 H 0.153207 0.424439 0.584953
C34 C 0.1076(4) 0.5821(3) 0.7028(3)
O8 O 0.0551(3) 0.3880(2) 0.22450(19)
N7 N 0.1127(3) 0.2392(3) 0.2208(2)
O9 O 0.1797(3) 0.3960(2) 0.21210(19)
C15_2 C 0.0177(4) 0.0633(4) 0.1354(3)
H11_2 H 0.050730 0.024850 0.136742
C16_2 C 0.0493(4) 0.1238(3) 0.1647(3)
C17_2 C 0.1205(4) 0.1210(4) 0.2053(4)
H12_2 H 0.148729 0.080200 0.213508
C18_2 C 0.1483(5) 0.1797(4) 0.2330(4)
H13_2 H 0.194317 0.177345 0.261622
C19_2 C 0.0455(4) 0.2393(3) 0.1821(3)
H14_2 H 0.017722 0.280332 0.174157
C20_2 C 0.0147(4) 0.1845(3) 0.1536(3)
H4_2 H 0.954966 0.973614 0.076197
O5_2 O 0.0060(3) 0.6263(2) 0.0557(2)
H9_2 H 0.934303 0.925945 0.003031
C12_2 C 0.8217(4) 0.9451(3) 0.0159(3)
H10_2 H 0.701721 0.952912 0.012420
C14_2 C 0.8442(4) 0.9974(3) 0.0599(3)
C25_2 C 0.0313(4) 0.6269(3) 0.0072(3)
H18_2 H 0.021353 0.728049 0.000932
C28_2 C 0.0349(4) 0.5762(3) 0.0927(3)
C30_2 C 0.0045(4) 0.4985(3) 0.1578(3)
C31_2 C 0.0824(4) 0.4742(3) 0.1663(2)
C32_2 C 0.1387(4) 0.5043(3) 0.1388(3)
H22_2 H 0.192717 0.489016 0.145563
C33_2 C 0.1156(4) 0.5550(4) 0.1028(3)
H23_2 H 0.153207 0.575561 0.084953
C34_2 C 0.1076(4) 0.4179(3) 0.2028(3)
Br1_2 Br 0.93190(4) 0.83228(4) 0.91514(3)
O1_2 O 0.5776(3) 0.9117(3) 0.9487(3)
N1_2 N 0.2656(3) 0.6973(3) 0.8020(2)
C1_2 C 0.3253(4) 0.6662(3) 0.7848(3)
H1_2 H 0.312244 0.630991 0.759343
N2_2 N 0.5256(3) 0.8038(3) 0.8908(2)
C2_2 C 0.4056(4) 0.6833(3) 0.8025(3)
H2_2 H 0.446353 0.661029 0.788607
O3_2 O 0.0975(3) 0.6996(2) 0.83227(18)
N3_2 N 0.6077(3) 0.8183(3) 0.9062(2)
H3_2 H 0.644344 0.792953 0.896259
C3_2 C 0.4255(4) 0.7339(3) 0.8410(2)
O4_2 O 0.1413(3) 0.5950(2) 0.83983(18)
C4_2 C 0.3626(4) 0.7657(3) 0.8588(3)
H5_2 H 0.373613 0.800955 0.884353
C5_2 C 0.2843(4) 0.7457(4) 0.8391(3)
H6_2 H 0.242216 0.767056 0.852221
C6_2 C 0.5094(4) 0.7531(3) 0.8596(3)
H7_2 H 0.551146 0.728587 0.848697
C7_2 C 0.6278(4) 0.8735(4) 0.9374(3)
C8_2 C 0.7160(4) 0.8860(3) 0.9548(3)
C9_2 C 0.7728(4) 0.8569(3) 0.9297(3)
H8_2 H 0.756890 0.827802 0.899686
C10_2 C 0.8541(4) 0.8714(3) 0.9496(3)
C11_2 C 0.8789(4) 0.9157(3) 0.9913(2)
C13_2 C 0.7409(4) 0.9311(3) 0.9966(3)
C21_2 C 0.1069(4) 0.6430(3) 0.8578(3)
C22_2 C 0.0789(4) 0.6368(3) 0.9085(3)
C23_2 C 0.0731(4) 0.5755(3) 0.9323(3)
H16_2 H 0.085001 0.536551 0.914017
C24_2 C 0.0505(4) 0.5684(3) 0.9821(3)
H17_2 H 0.048160 0.525833 0.998219
C26_2 C 0.0343(4) 0.6891(3) 0.9831(3)
C27_2 C 0.0560(4) 0.6942(3) 0.9332(3)
H19_2 H 0.055290 0.736345 0.915855
O2 O 0.7918(3) 0.9698(2) 0.5740(2)
N4 N 0.9208(3) 0.9949(3) 0.5805(2)
N5 N 0.9485(3) 0.9376(3) 0.6090(2)
H15 H 0.968385 0.811209 0.625407
C29 C 0.9801(4) 0.4495(3) 0.6218(3)
H20 H 0.927334 0.431745 0.616966
H21 H 0.967361 0.520526 0.676849
O2_2 O 0.7918(3) 0.0302(2) 0.0740(2)
N4_2 N 0.9208(3) 0.0051(3) 0.0805(2)
N5_2 N 0.9485(3) 0.0624(3) 0.1090(2)
H15_2 H 0.968385 0.188791 0.125407
C29_2 C 0.9801(4) 0.5505(3) 0.1218(3)
H20_2 H 0.927334 0.568255 0.116966
H21_2 H 0.967361 0.479474 0.176849
Br1_3 Br 0.43190(4) 0.66772(4) 0.41514(3)
O1_3 O 0.0776(3) 0.5883(3) 0.4487(3)
O2_3 O 0.2918(3) 0.4698(2) 0.5740(2)
N2_3 N 0.0256(3) 0.6962(3) 0.3908(2)
N3_3 N 0.1077(3) 0.6817(3) 0.4062(2)
H3_3 H 0.144344 0.707047 0.396259
N4_3 N 0.4208(3) 0.4949(3) 0.5805(2)
H4_3 H 0.454966 0.526386 0.576197
N5_3 N 0.4485(3) 0.4376(3) 0.6090(2)
N6_2 N 0.6127(3) 0.2608(3) 0.7208(2)
C6_3 C 0.0094(4) 0.7469(3) 0.3596(3)
H7_3 H 0.051146 0.771413 0.348697
C7_3 C 0.1278(4) 0.6265(4) 0.4374(3)
C8_3 C 0.2160(4) 0.6140(3) 0.4548(3)
C9_3 C 0.2728(4) 0.6431(3) 0.4297(3)
H8_3 H 0.256890 0.672198 0.399686
C10_3 C 0.3541(4) 0.6286(3) 0.4496(3)
C11_3 C 0.3789(4) 0.5843(3) 0.4913(2)
H9_3 H 0.434303 0.574055 0.503031
C12_3 C 0.3217(4) 0.5549(3) 0.5159(3)
C13_3 C 0.2409(4) 0.5689(3) 0.4966(3)
H10_3 H 0.201721 0.547088 0.512420
C14_3 C 0.3442(4) 0.5026(3) 0.5599(3)
C15_3 C 0.5177(4) 0.4367(4) 0.6354(3)
H11_3 H 0.550730 0.475150 0.636742
C16_3 C 0.5493(4) 0.3762(3) 0.6647(3)
C17_3 C 0.6205(4) 0.3790(4) 0.7053(4)
H12_3 H 0.648729 0.419800 0.713508
C18_3 C 0.6483(5) 0.3203(4) 0.7330(4)
H13_3 H 0.694317 0.322655 0.761622
C19_3 C 0.5455(4) 0.2607(3) 0.6821(3)
H14_3 H 0.517722 0.219668 0.674157
C20_3 C 0.5147(4) 0.3155(3) 0.6536(3)
H15_3 H 0.468385 0.311209 0.625407
Zn3_2 Zn 0.64651(4) 0.17674(3) 0.76771(3)
O6_2 O 0.5551(3) 0.1120(2) 0.72450(19)
O7_2 O 0.6797(3) 0.1040(2) 0.71210(19)
C30_3 C 0.5045(4) 0.0015(3) 0.6578(3)
H21_3 H 0.467361 0.020526 0.676849
C31_3 C 0.5824(4) 0.0258(3) 0.6663(2)
H22_3 H 0.692717 0.010984 0.645563
C34_3 C 0.6076(4) 0.0821(3) 0.7028(3)
N1_3 N 0.7656(3) 0.1973(3) 0.8020(2)
C1_3 C 0.8253(4) 0.1662(3) 0.7848(3)
H1_3 H 0.812244 0.130991 0.759343
C2_3 C 0.9056(4) 0.1833(3) 0.8025(3)
H2_3 H 0.946353 0.161029 0.788607
O3_3 O 0.5975(3) 0.1996(2) 0.83227(18)
C3_3 C 0.9255(4) 0.2339(3) 0.8410(2)
O4_3 O 0.6413(3) 0.0950(2) 0.83983(18)
C4_3 C 0.8626(4) 0.2657(3) 0.8588(3)
H5_3 H 0.873613 0.300955 0.884353
C5_3 C 0.7843(4) 0.2457(4) 0.8391(3)
H6_3 H 0.742216 0.267056 0.852221
C21_3 C 0.6069(4) 0.1430(3) 0.8578(3)
C22_3 C 0.5789(4) 0.1368(3) 0.9085(3)
C23_3 C 0.5731(4) 0.0755(3) 0.9323(3)
H16_3 H 0.585001 0.036551 0.914017
C24_3 C 0.5505(4) 0.0684(3) 0.9821(3)
H17_3 H 0.548160 0.025833 0.998219
C26_3 C 0.5343(4) 0.1891(3) 0.9831(3)
C27_3 C 0.5560(4) 0.1942(3) 0.9332(3)
H19_3 H 0.555290 0.236345 0.915855
Zn1_2 Zn 0.64651(4) 0.82326(3) 0.26771(3)
N1_4 N 0.7656(3) 0.8027(3) 0.3020(2)
C1_4 C 0.8253(4) 0.8338(3) 0.2848(3)
H1_4 H 0.812244 0.869009 0.259343
C2_4 C 0.9056(4) 0.8167(3) 0.3025(3)
H2_4 H 0.946353 0.838971 0.288607
O3_4 O 0.5975(3) 0.8004(2) 0.33227(18)
C3_4 C 0.9255(4) 0.7661(3) 0.3410(2)
O4_4 O 0.6413(3) 0.9050(2) 0.33983(18)
C4_4 C 0.8626(4) 0.7343(3) 0.3588(3)
H5_4 H 0.873613 0.699045 0.384353
O5_3 O 0.5060(3) 0.8737(2) 0.5557(2)
C5_4 C 0.7843(4) 0.7543(4) 0.3391(3)
H6_4 H 0.742216 0.732944 0.352221
C21_4 C 0.6069(4) 0.8570(3) 0.3578(3)
C22_4 C 0.5789(4) 0.8632(3) 0.4085(3)
C23_4 C 0.5731(4) 0.9245(3) 0.4323(3)
H16_4 H 0.585001 0.963449 0.414017
C24_4 C 0.5505(4) 0.9316(3) 0.4821(3)
H17_4 H 0.548160 0.974167 0.498219
C25_3 C 0.5313(4) 0.8731(3) 0.5072(3)
C26_4 C 0.5343(4) 0.8109(3) 0.4831(3)
H18_3 H 0.521353 0.771951 0.500932
C27_4 C 0.5560(4) 0.8058(3) 0.4332(3)
H19_4 H 0.555290 0.763655 0.415855
C28_3 C 0.5349(4) 0.9238(3) 0.5927(3)
C29_3 C 0.4801(4) 0.9495(3) 0.6218(3)
H20_3 H 0.427334 0.931745 0.616966
C32_3 C 0.6387(4) 0.9957(3) 0.6388(3)
C33_3 C 0.6156(4) 0.9450(4) 0.6028(3)
H23_3 H 0.653207 0.924439 0.584953
O8_2 O 0.5551(3) 0.8880(2) 0.22450(19)
N7_2 N 0.6127(3) 0.7392(3) 0.2208(2)
O9_2 O 0.6797(3) 0.8960(2) 0.21210(19)
O2_4 O 0.2918(3) 0.5302(2) 0.0740(2)
N4_4 N 0.4208(3) 0.5051(3) 0.0805(2)
H4_4 H 0.454966 0.473614 0.076197
N5_4 N 0.4485(3) 0.5624(3) 0.1090(2)
H9_4 H 0.434303 0.425945 0.003031
C12_4 C 0.3217(4) 0.4451(3) 0.0159(3)
H10_4 H 0.201721 0.452912 0.012420
C14_4 C 0.3442(4) 0.4974(3) 0.0599(3)
C15_4 C 0.5177(4) 0.5633(4) 0.1354(3)
H11_4 H 0.550730 0.524850 0.136742
C16_4 C 0.5493(4) 0.6238(3) 0.1647(3)
C17_4 C 0.6205(4) 0.6210(4) 0.2053(4)
H12_4 H 0.648729 0.580200 0.213508
C18_4 C 0.6483(5) 0.6797(4) 0.2330(4)
H13_4 H 0.694317 0.677345 0.261622
C19_4 C 0.5455(4) 0.7393(3) 0.1821(3)
H14_4 H 0.517722 0.780332 0.174157
C20_4 C 0.5147(4) 0.6845(3) 0.1536(3)
H15_4 H 0.468385 0.688791 0.125407
C30_4 C 0.5045(4) 0.9985(3) 0.1578(3)
H21_4 H 0.467361 0.979474 0.176849
C31_4 C 0.5824(4) 0.9742(3) 0.1663(2)
H22_4 H 0.692717 0.989016 0.145563
C34_4 C 0.6076(4) 0.9179(3) 0.2028(3)
Br1_4 Br 0.43190(4) 0.33228(4) 0.91514(3)
O1_4 O 0.0776(3) 0.4117(3) 0.9487(3)
N2_4 N 0.0256(3) 0.3038(3) 0.8908(2)
N3_4 N 0.1077(3) 0.3183(3) 0.9062(2)
H3_4 H 0.144344 0.292953 0.896259
C6_4 C 0.0094(4) 0.2531(3) 0.8596(3)
H7_4 H 0.051146 0.228587 0.848697
C7_4 C 0.1278(4) 0.3735(4) 0.9374(3)
C8_4 C 0.2160(4) 0.3860(3) 0.9548(3)
C9_4 C 0.2728(4) 0.3569(3) 0.9297(3)
H8_4 H 0.256890 0.327802 0.899686
C10_4 C 0.3541(4) 0.3714(3) 0.9496(3)
C11_4 C 0.3789(4) 0.4157(3) 0.9913(2)
C13_4 C 0.2409(4) 0.4311(3) 0.9966(3)
O5_4 O 0.5060(3) 0.1263(2) 0.0557(2)
C25_4 C 0.5313(4) 0.1269(3) 0.0072(3)
H18_4 H 0.521353 0.228049 0.000932
C28_4 C 0.5349(4) 0.0762(3) 0.0927(3)
C29_4 C 0.4801(4) 0.0505(3) 0.1218(3)
H20_4 H 0.427334 0.068255 0.116966
C32_4 C 0.6387(4) 0.0043(3) 0.1388(3)
C33_4 C 0.6156(4) 0.0550(4) 0.1028(3)
H23_4 H 0.653207 0.075561 0.084953
Zn4 Zn 0.03934(4) 0.18265(3) 0.66646(3)
O12 O 0.0460(3) 0.0870(2) 0.59914(18)
O13 O 0.0910(3) 0.1896(2) 0.60313(19)
O14 O 0.1969(3) 0.1064(3) 0.3879(2)
C55 C 0.0831(3) 0.1336(3) 0.5816(2)
C56 C 0.1176(4) 0.1239(3) 0.5314(3)
C57 C 0.1102(4) 0.0614(3) 0.5060(3)
H39 H 0.085798 0.025031 0.520603
C58 C 0.1395(4) 0.0540(3) 0.4589(3)
H40 H 0.138952 0.011283 0.442579
C59 C 0.1695(4) 0.1080(4) 0.4355(3)
C60 C 0.1801(4) 0.1681(4) 0.4626(3)
H41 H 0.204865 0.204381 0.448243
C61 C 0.1544(4) 0.1750(3) 0.5105(3)
H42 H 0.162570 0.216156 0.529451
C62 C 0.1692(4) 0.0557(4) 0.3512(3)
C63 C 0.2267(4) 0.0240(4) 0.3286(3)
H43 H 0.281661 0.036240 0.338899
C67 C 0.0894(4) 0.0409(4) 0.3369(3)
H46 H 0.050833 0.064485 0.352016
O17 O 0.1474(3) 0.1278(2) 0.71510(19)
N14 N 0.0719(3) 0.2712(3) 0.7067(2)
O18 O 0.0233(3) 0.1141(2) 0.72419(18)
C64 C 0.2023(4) 0.0265(4) 0.7903(3)
H44 H 0.240306 0.048564 0.773607
C65 C 0.1211(4) 0.0438(3) 0.7773(3)
C66 C 0.0660(4) 0.0108(3) 0.7987(3)
H45 H 0.010866 0.022492 0.788160
C68 C 0.0957(4) 0.0978(3) 0.7357(2)
O10 O 0.6098(3) 0.6042(3) 0.9692(3)
O11 O 0.3957(3) 0.4810(2) 0.8494(2)
N11 N 0.2613(3) 0.5019(3) 0.8480(2)
H27 H 0.225890 0.528337 0.858258
N12 N 0.2386(3) 0.4496(3) 0.8146(2)
C41 C 0.5608(4) 0.6427(4) 0.9809(3)
C42 C 0.4718(4) 0.6269(3) 0.9665(3)
C43 C 0.4170(4) 0.6554(3) 0.9935(3)
C44 C 0.3372(4) 0.6368(3) 0.9786(3)
C45 C 0.3103(4) 0.5926(3) 0.9370(2)
H32 H 0.254899 0.581433 0.927340
C46 C 0.3656(3) 0.5642(3) 0.9091(2)
C47 C 0.4466(4) 0.5809(3) 0.9241(2)
H33 H 0.484654 0.561542 0.905892
C48 C 0.3441(4) 0.5118(3) 0.8656(3)
C49 C 0.1591(4) 0.4419(3) 0.8006(3)
H34 H 0.123464 0.473137 0.811327
C50 C 0.1287(4) 0.3827(3) 0.7675(3)
C51 C 0.0501(3) 0.3674(3) 0.7569(3)
H35 H 0.013122 0.395038 0.770141
C52 C 0.0226(4) 0.3110(3) 0.7264(3)
C53 C 0.1491(5) 0.2900(4) 0.7140(4)
H37 H 0.183253 0.265203 0.695920
C54 C 0.1817(4) 0.3416(4) 0.7452(3)
H38 H 0.237841 0.350047 0.752077
O15 O 0.1474(3) 0.8722(2) 0.21510(19)
O16 O 0.0233(3) 0.8859(2) 0.22419(18)
C64_2 C 0.2023(4) 0.9735(4) 0.2903(3)
H44_2 H 0.240306 0.951436 0.273607
C65_2 C 0.1211(4) 0.9562(3) 0.2773(3)
C66_2 C 0.0660(4) 0.9892(3) 0.2987(3)
H45_2 H 0.010866 0.977508 0.288160
C68_2 C 0.0957(4) 0.9022(3) 0.2357(2)
Zn6 Zn 0.03934(4) 0.81735(3) 0.16646(3)
Br2 Br 0.26301(3) 0.32442(3) 0.51623(2)
O10_2 O 0.6098(3) 0.3958(3) 0.4692(3)
N8 N 0.9210(3) 0.1956(3) 0.6313(2)
C35 C 0.8598(4) 0.1613(3) 0.6453(3)
H24 H 0.871960 0.128728 0.673099
O11_2 O 0.3957(3) 0.5190(2) 0.3494(2)
N9 N 0.6591(3) 0.2852(3) 0.5269(3)
C36 C 0.7803(4) 0.1718(3) 0.6208(3)
H25 H 0.738978 0.147385 0.632296
N10 N 0.5798(3) 0.2991(3) 0.5079(2)
H26 H 0.542184 0.271184 0.512901
C37 C 0.7613(4) 0.2177(4) 0.5800(3)
N11_2 N 0.2613(3) 0.4981(3) 0.3480(2)
H27_2 H 0.225890 0.471663 0.358258
C38 C 0.8233(4) 0.2523(4) 0.5625(3)
H28 H 0.812298 0.282253 0.532753
N12_2 N 0.2386(3) 0.5504(3) 0.3146(2)
C39 C 0.9014(4) 0.2410(4) 0.5907(3)
H29 H 0.943523 0.266327 0.581081
N13 N 0.0719(3) 0.7288(3) 0.2067(2)
C40 C 0.6748(4) 0.2336(4) 0.5560(3)
H30 H 0.632865 0.205479 0.562634
C41_2 C 0.5608(4) 0.3573(4) 0.4809(3)
C42_2 C 0.4718(4) 0.3731(3) 0.4665(3)
C43_2 C 0.4170(4) 0.3446(3) 0.4935(3)
H31 H 0.433845 0.312974 0.521509
C44_2 C 0.3372(4) 0.3632(3) 0.4786(3)
C45_2 C 0.3103(4) 0.4074(3) 0.4370(2)
H32_2 H 0.254899 0.418567 0.427340
C46_2 C 0.3656(3) 0.4358(3) 0.4091(2)
C47_2 C 0.4466(4) 0.4191(3) 0.4241(2)
H33_2 H 0.484654 0.438458 0.405892
C48_2 C 0.3441(4) 0.4882(3) 0.3656(3)
C49_2 C 0.1591(4) 0.5581(3) 0.3006(3)
H34_2 H 0.123464 0.526863 0.311327
C50_2 C 0.1287(4) 0.6173(3) 0.2675(3)
C51_2 C 0.0501(3) 0.6326(3) 0.2569(3)
H35_2 H 0.013122 0.604962 0.270141
C52_2 C 0.0226(4) 0.6890(3) 0.2264(3)
C53_2 C 0.1491(5) 0.7100(4) 0.2140(4)
H37_2 H 0.183253 0.734797 0.195920
C54_2 C 0.1817(4) 0.6584(4) 0.2452(3)
H38_2 H 0.237841 0.649953 0.252077
O12_2 O 0.0460(3) 0.9130(2) 0.09914(18)
O13_2 O 0.0910(3) 0.8104(2) 0.10313(19)
C55_2 C 0.0831(3) 0.8664(3) 0.0816(2)
C56_2 C 0.1176(4) 0.8761(3) 0.0314(3)
C57_2 C 0.1102(4) 0.9386(3) 0.0060(3)
H39_2 H 0.085798 0.974969 0.020603
C61_2 C 0.1544(4) 0.8250(3) 0.0105(3)
H42_2 H 0.162570 0.783844 0.029451
H36 H 0.966866 0.699199 0.219445
O14_2 O 0.1969(3) 0.8936(3) 0.8879(2)
C58_2 C 0.1395(4) 0.9460(3) 0.9589(3)
H40_2 H 0.138952 0.988717 0.942579
C59_2 C 0.1695(4) 0.8920(4) 0.9355(3)
C60_2 C 0.1801(4) 0.8319(4) 0.9626(3)
H41_2 H 0.204865 0.795619 0.948243
C62_2 C 0.1692(4) 0.9443(4) 0.8512(3)
C63_2 C 0.2267(4) 0.9760(4) 0.8286(3)
H43_2 H 0.281661 0.963760 0.838899
C67_2 C 0.0894(4) 0.9591(4) 0.8369(3)
H46_2 H 0.050833 0.935515 0.852016
Br2_2 Br 0.26301(3) 0.67558(3) 0.01623(2)
N8_2 N 0.9210(3) 0.8044(3) 0.1313(2)
C35_2 C 0.8598(4) 0.8387(3) 0.1453(3)
H24_2 H 0.871960 0.871272 0.173099
N9_2 N 0.6591(3) 0.7148(3) 0.0269(3)
C36_2 C 0.7803(4) 0.8282(3) 0.1208(3)
H25_2 H 0.738978 0.852615 0.132296
N10_2 N 0.5798(3) 0.7009(3) 0.0079(2)
H26_2 H 0.542184 0.728816 0.012901
C37_2 C 0.7613(4) 0.7823(4) 0.0800(3)
C38_2 C 0.8233(4) 0.7477(4) 0.0625(3)
H28_2 H 0.812298 0.717747 0.032753
C39_2 C 0.9014(4) 0.7590(4) 0.0907(3)
H29_2 H 0.943523 0.733673 0.081081
C40_2 C 0.6748(4) 0.7664(4) 0.0560(3)
H30_2 H 0.632865 0.794521 0.062634
H31_2 H 0.433845 0.687026 0.021509
H36_2 H 0.966866 0.300801 0.719445
O10_3 O 0.1098(3) 0.8958(3) 0.4692(3)
N8_3 N 0.4210(3) 0.6956(3) 0.6313(2)
C35_3 C 0.3598(4) 0.6613(3) 0.6453(3)
H24_3 H 0.371960 0.628728 0.673099
Zn4_2 Zn 0.53934(4) 0.68265(3) 0.66646(3)
N9_3 N 0.1591(3) 0.7852(3) 0.5269(3)
C36_3 C 0.2803(4) 0.6718(3) 0.6208(3)
H25_3 H 0.238978 0.647385 0.632296
O12_3 O 0.5460(3) 0.5870(2) 0.59914(18)
N10_3 N 0.0798(3) 0.7991(3) 0.5079(2)
H26_3 H 0.042184 0.771184 0.512901
C37_3 C 0.2613(4) 0.7177(4) 0.5800(3)
O13_3 O 0.5910(3) 0.6896(2) 0.60313(19)
C38_3 C 0.3233(4) 0.7523(4) 0.5625(3)
H28_3 H 0.312298 0.782253 0.532753
O14_3 O 0.6969(3) 0.6064(3) 0.3879(2)
C39_3 C 0.4014(4) 0.7410(4) 0.5907(3)
H29_3 H 0.443523 0.766327 0.581081
O15_2 O 0.6474(3) 0.3722(2) 0.21510(19)
C40_3 C 0.1748(4) 0.7336(4) 0.5560(3)
H30_3 H 0.132865 0.705479 0.562634
O16_2 O 0.5233(3) 0.3859(2) 0.22419(18)
C41_3 C 0.0608(4) 0.8573(4) 0.4809(3)
C55_3 C 0.5831(3) 0.6336(3) 0.5816(2)
C56_3 C 0.6176(4) 0.6239(3) 0.5314(3)
C57_3 C 0.6102(4) 0.5614(3) 0.5060(3)
H39_3 H 0.585798 0.525031 0.520603
C58_3 C 0.6395(4) 0.5540(3) 0.4589(3)
H40_3 H 0.638952 0.511283 0.442579
C59_3 C 0.6695(4) 0.6080(4) 0.4355(3)
C60_3 C 0.6801(4) 0.6681(4) 0.4626(3)
H41_3 H 0.704865 0.704381 0.448243
C61_3 C 0.6544(4) 0.6750(3) 0.5105(3)
H42_3 H 0.662570 0.716156 0.529451
C62_3 C 0.6692(4) 0.5557(4) 0.3512(3)
C63_3 C 0.7267(4) 0.5240(4) 0.3286(3)
H43_3 H 0.781661 0.536240 0.338899
C64_3 C 0.7023(4) 0.4735(4) 0.2903(3)
H44_3 H 0.740306 0.451436 0.273607
C65_3 C 0.6211(4) 0.4562(3) 0.2773(3)
C66_3 C 0.5660(4) 0.4892(3) 0.2987(3)
H45_3 H 0.510866 0.477508 0.288160
C67_3 C 0.5894(4) 0.5409(4) 0.3369(3)
H46_3 H 0.550833 0.564485 0.352016
C68_3 C 0.5957(4) 0.4022(3) 0.2357(2)
Zn6_2 Zn 0.53934(4) 0.31735(3) 0.16646(3)
O17_2 O 0.6474(3) 0.6278(2) 0.71510(19)
N14_2 N 0.5719(3) 0.7712(3) 0.7067(2)
O18_2 O 0.5233(3) 0.6141(2) 0.72419(18)
O11_3 O 0.8957(3) 0.0190(2) 0.3494(2)
N12_3 N 0.7386(3) 0.0504(3) 0.3146(2)
N13_2 N 0.5719(3) 0.2288(3) 0.2067(2)
C49_3 C 0.6591(4) 0.0581(3) 0.3006(3)
H34_3 H 0.623464 0.026863 0.311327
C50_3 C 0.6287(4) 0.1173(3) 0.2675(3)
C51_3 C 0.5501(3) 0.1326(3) 0.2569(3)
H35_3 H 0.513122 0.104962 0.270141
C52_3 C 0.5226(4) 0.1890(3) 0.2264(3)
H36_3 H 0.466866 0.199199 0.219445
C53_3 C 0.6491(5) 0.2100(4) 0.2140(4)
H37_3 H 0.683253 0.234797 0.195920
C54_3 C 0.6817(4) 0.1584(4) 0.2452(3)
H38_3 H 0.737841 0.149953 0.252077
N8_4 N 0.4210(3) 0.3044(3) 0.1313(2)
C35_4 C 0.3598(4) 0.3387(3) 0.1453(3)
H24_4 H 0.371960 0.371272 0.173099
N9_4 N 0.1591(3) 0.2148(3) 0.0269(3)
C36_4 C 0.2803(4) 0.3282(3) 0.1208(3)
H25_4 H 0.238978 0.352615 0.132296
O12_4 O 0.5460(3) 0.4130(2) 0.09914(18)
N10_4 N 0.0798(3) 0.2009(3) 0.0079(2)
H26_4 H 0.042184 0.228816 0.012901
C37_4 C 0.2613(4) 0.2823(4) 0.0800(3)
O13_4 O 0.5910(3) 0.3104(2) 0.10313(19)
C38_4 C 0.3233(4) 0.2477(4) 0.0625(3)
H28_4 H 0.312298 0.217747 0.032753
C39_4 C 0.4014(4) 0.2590(4) 0.0907(3)
H29_4 H 0.443523 0.233673 0.081081
C40_4 C 0.1748(4) 0.2664(4) 0.0560(3)
H30_4 H 0.132865 0.294521 0.062634
C55_4 C 0.5831(3) 0.3664(3) 0.0816(2)
C56_4 C 0.6176(4) 0.3761(3) 0.0314(3)
C57_4 C 0.6102(4) 0.4386(3) 0.0060(3)
H39_4 H 0.585798 0.474969 0.020603
C61_4 C 0.6544(4) 0.3250(3) 0.0105(3)
H42_4 H 0.662570 0.283844 0.029451
O10_4 O 0.1098(3) 0.1042(3) 0.9692(3)
O14_4 O 0.6969(3) 0.3936(3) 0.8879(2)
C41_4 C 0.0608(4) 0.1427(4) 0.9809(3)
C58_4 C 0.6395(4) 0.4460(3) 0.9589(3)
H40_4 H 0.638952 0.488717 0.942579
C59_4 C 0.6695(4) 0.3920(4) 0.9355(3)
C60_4 C 0.6801(4) 0.3319(4) 0.9626(3)
H41_4 H 0.704865 0.295619 0.948243
C62_4 C 0.6692(4) 0.4443(4) 0.8512(3)
C63_4 C 0.7267(4) 0.4760(4) 0.8286(3)
H43_4 H 0.781661 0.463760 0.838899
C64_4 C 0.7023(4) 0.5265(4) 0.7903(3)
H44_4 H 0.740306 0.548564 0.773607
C65_4 C 0.6211(4) 0.5438(3) 0.7773(3)
C66_4 C 0.5660(4) 0.5108(3) 0.7987(3)
H45_4 H 0.510866 0.522492 0.788160
C67_4 C 0.5894(4) 0.4591(4) 0.8369(3)
H46_4 H 0.550833 0.435515 0.852016
C68_4 C 0.5957(4) 0.5978(3) 0.7357(2)
O11_4 O 0.8957(3) 0.9810(2) 0.8494(2)
N12_4 N 0.7386(3) 0.9496(3) 0.8146(2)
C49_4 C 0.6591(4) 0.9419(3) 0.8006(3)
H34_4 H 0.623464 0.973137 0.811327
C50_4 C 0.6287(4) 0.8827(3) 0.7675(3)
C51_4 C 0.5501(3) 0.8674(3) 0.7569(3)
H35_4 H 0.513122 0.895038 0.770141
C52_4 C 0.5226(4) 0.8110(3) 0.7264(3)
H36_4 H 0.466866 0.800801 0.719445
C53_4 C 0.6491(5) 0.7900(4) 0.7140(4)
H37_4 H 0.683253 0.765203 0.695920
C54_4 C 0.6817(4) 0.8416(4) 0.7452(3)
H38_4 H 0.737841 0.850047 0.752077
Br2_3 Br 0.76301(3) 0.82442(3) 0.51623(2)
N11_3 N 0.7613(3) 0.9981(3) 0.3480(2)
H27_3 H 0.725890 0.971663 0.358258
C42_3 C 0.9718(4) 0.8731(3) 0.4665(3)
C43_3 C 0.9170(4) 0.8446(3) 0.4935(3)
H31_3 H 0.933845 0.812974 0.521509
C44_3 C 0.8372(4) 0.8632(3) 0.4786(3)
C45_3 C 0.8103(4) 0.9074(3) 0.4370(2)
H32_3 H 0.754899 0.918567 0.427340
C46_3 C 0.8656(3) 0.9358(3) 0.4091(2)
C47_3 C 0.9466(4) 0.9191(3) 0.4241(2)
H33_3 H 0.984654 0.938458 0.405892
C48_3 C 0.8441(4) 0.9882(3) 0.3656(3)
Br2_4 Br 0.76301(3) 0.17558(3) 0.01623(2)
H31_4 H 0.933845 0.187026 0.021509
N11_4 N 0.7613(3) 0.0019(3) 0.8480(2)
H27_4 H 0.725890 0.028337 0.858258
C42_4 C 0.9718(4) 0.1269(3) 0.9665(3)
C43_4 C 0.9170(4) 0.1554(3) 0.9935(3)
C44_4 C 0.8372(4) 0.1368(3) 0.9786(3)
C45_4 C 0.8103(4) 0.0926(3) 0.9370(2)
H32_4 H 0.754899 0.081433 0.927340
C46_4 C 0.8656(3) 0.0642(3) 0.9091(2)
C47_4 C 0.9466(4) 0.0809(3) 0.9241(2)
H33_4 H 0.984654 0.061542 0.905892
C48_4 C 0.8441(4) 0.0118(3) 0.8656(3)
loop_
_geom_bond_atom_site_label_1
_geom_bond_atom_site_label_2
_geom_bond_site_symmetry_1
_geom_bond_site_symmetry_2
N6 C18 1_555 1_555
H11 C15 1_555 1_555
C16 C15 1_555 1_555
C17 C16 1_555 1_555
H12 C17 1_555 1_555
C18 C17 1_555 1_555
H13 C18 1_555 1_555
C19 N6 1_555 1_555
H14 C19 1_555 1_555
C20 C16 1_555 1_555
Zn3 N6 1_555 1_555
C19 C20 1_555 1_555
Br1 C10 1_555 1_555
Zn1 N1 1_555 1_555
O1 C7 1_555 1_555
N1 C1 1_555 1_555
C1 H1 1_555 1_555
N2 N3 1_555 1_555
C2 C1 1_555 1_555
H2 C2 1_555 1_555
O3 Zn1 1_555 1_555
N3 H3 1_555 1_555
C3 C2 1_555 1_555
O4 Zn1 1_555 1_555
C4 C3 1_555 1_555
H5 C4 1_555 1_555
O5 C25 1_555 1_555
C5 N1 1_555 1_555
H6 C5 1_555 1_555
O6 C34 1_555 1_555
C6 N2 1_555 1_555
H7 C6 1_555 1_555
O7 C34 1_555 1_555
C7 N3 1_555 1_555
C8 C7 1_555 1_555
C9 C8 1_555 1_555
H8 C9 1_555 1_555
C10 C9 1_555 1_555
C11 C10 1_555 1_555
H9 C11 1_555 1_555
C12 C11 1_555 1_555
C13 C8 1_555 1_555
H10 C13 1_555 1_555
C21 O3 1_555 1_555
C22 C21 1_555 1_555
C23 C22 1_555 1_555
H16 C23 1_555 1_555
C24 C23 1_555 1_555
H17 C24 1_555 1_555
C25 C24 1_555 1_555
C26 C25 1_555 1_555
H18 C26 1_555 1_555
C27 C22 1_555 1_555
H19 C27 1_555 1_555
C28 O5 1_555 1_555
C31 C30 1_555 1_555
C32 C31 1_555 1_555
H22 C32 1_555 1_555
C33 C28 1_555 1_555
H23 C33 1_555 1_555
C34 C31 1_555 1_555
Zn3 O6 1_555 1_555
O8 Zn1 1_555 1_555
N7 Zn1 1_555 1_555
O9 Zn1 1_555 1_555
C3 C6 1_555 1_555
O4 C21 1_555 1_555
C4 C5 1_555 1_555
O7 Zn3 1_555 1_555
C12 C13 1_555 1_555
C12 C14 1_555 1_555
C26 C27 1_555 1_555
C32 C33 1_555 1_555
N7 C18_2 1_555 1_555
H11_2 C15_2 1_555 1_555
C16_2 C15_2 1_555 1_555
C17_2 C16_2 1_555 1_555
H12_2 C17_2 1_555 1_555
C18_2 C17_2 1_555 1_555
H13_2 C18_2 1_555 1_555
C19_2 N7 1_555 1_555
H14_2 C19_2 1_555 1_555
C20_2 C16_2 1_555 1_555
C19_2 C20_2 1_555 1_555
O5_2 C25_2 1_555 1_555
O8 C34_2 1_555 1_555
O9 C34_2 1_555 1_555
C28_2 O5_2 1_555 1_555
C31_2 C30_2 1_555 1_555
C32_2 C31_2 1_555 1_555
H22_2 C32_2 1_555 1_555
C33_2 C28_2 1_555 1_555
H23_2 C33_2 1_555 1_555
C34_2 C31_2 1_555 1_555
C12_2 C14_2 1_555 1_555
C32_2 C33_2 1_555 1_555
Br1_2 C10_2 1_555 1_555
Zn3 N1_2 1_555 1_555
O1_2 C7_2 1_555 1_555
N1_2 C1_2 1_555 1_555
C1_2 H1_2 1_555 1_555
N2_2 N3_2 1_555 1_555
C2_2 C1_2 1_555 1_555
H2_2 C2_2 1_555 1_555
O3_2 Zn3 1_555 1_555
N3_2 H3_2 1_555 1_555
C3_2 C2_2 1_555 1_555
O4_2 Zn3 1_555 1_555
C4_2 C3_2 1_555 1_555
H5_2 C4_2 1_555 1_555
C5_2 N1_2 1_555 1_555
H6_2 C5_2 1_555 1_555
C6_2 N2_2 1_555 1_555
H7_2 C6_2 1_555 1_555
C7_2 N3_2 1_555 1_555
C8_2 C7_2 1_555 1_555
C9_2 C8_2 1_555 1_555
H8_2 C9_2 1_555 1_555
C10_2 C9_2 1_555 1_555
C11_2 C10_2 1_555 1_555
C13_2 C8_2 1_555 1_555
C21_2 O3_2 1_555 1_555
C22_2 C21_2 1_555 1_555
C23_2 C22_2 1_555 1_555
H16_2 C23_2 1_555 1_555
C24_2 C23_2 1_555 1_555
H17_2 C24_2 1_555 1_555
C27_2 C22_2 1_555 1_555
H19_2 C27_2 1_555 1_555
C3_2 C6_2 1_555 1_555
O4_2 C21_2 1_555 1_555
C4_2 C5_2 1_555 1_555
C26_2 C27_2 1_555 1_555
N5 N4 1_555 1_555
H20 C29 1_555 1_555
N5_2 N4_2 1_555 1_555
H20_2 C29_2 1_555 1_555
Br1_3 C10_3 1_555 1_555
O1_3 C7_3 1_555 1_555
O2_3 C14_3 1_555 1_555
N2_3 N3_3 1_555 1_555
N3_3 H3_3 1_555 1_555
N4_3 H4_3 1_555 1_555
N5_3 N4_3 1_555 1_555
N6_2 C18_3 1_555 1_555
C6_3 N2_3 1_555 1_555
H7_3 C6_3 1_555 1_555
C7_3 N3_3 1_555 1_555
C8_3 C7_3 1_555 1_555
C9_3 C8_3 1_555 1_555
H8_3 C9_3 1_555 1_555
C10_3 C9_3 1_555 1_555
C11_3 C10_3 1_555 1_555
H9_3 C11_3 1_555 1_555
C12_3 C11_3 1_555 1_555
C13_3 C8_3 1_555 1_555
H10_3 C13_3 1_555 1_555
C14_3 N4_3 1_555 1_555
C15_3 N5_3 1_555 1_555
H11_3 C15_3 1_555 1_555
C16_3 C15_3 1_555 1_555
C17_3 C16_3 1_555 1_555
H12_3 C17_3 1_555 1_555
C18_3 C17_3 1_555 1_555
H13_3 C18_3 1_555 1_555
C19_3 N6_2 1_555 1_555
H14_3 C19_3 1_555 1_555
C20_3 C16_3 1_555 1_555
H15_3 C20_3 1_555 1_555
Zn3_2 N6_2 1_555 1_555
C12_3 C13_3 1_555 1_555
C12_3 C14_3 1_555 1_555
C19_3 C20_3 1_555 1_555
O6_2 C34_3 1_555 1_555
O7_2 C34_3 1_555 1_555
H21_3 C30_3 1_555 1_555
C31_3 C30_3 1_555 1_555
C34_3 C31_3 1_555 1_555
Zn3_2 O6_2 1_555 1_555
O7_2 Zn3_2 1_555 1_555
Zn3_2 N1_3 1_555 1_555
N1_3 C1_3 1_555 1_555
C1_3 H1_3 1_555 1_555
C2_3 C1_3 1_555 1_555
H2_3 C2_3 1_555 1_555
O3_3 Zn3_2 1_555 1_555
C3_3 C2_3 1_555 1_555
O4_3 Zn3_2 1_555 1_555
C4_3 C3_3 1_555 1_555
H5_3 C4_3 1_555 1_555
C5_3 N1_3 1_555 1_555
H6_3 C5_3 1_555 1_555
C21_3 O3_3 1_555 1_555
C22_3 C21_3 1_555 1_555
C23_3 C22_3 1_555 1_555
H16_3 C23_3 1_555 1_555
C24_3 C23_3 1_555 1_555
H17_3 C24_3 1_555 1_555
C27_3 C22_3 1_555 1_555
H19_3 C27_3 1_555 1_555
O4_3 C21_3 1_555 1_555
C4_3 C5_3 1_555 1_555
C26_3 C27_3 1_555 1_555
Zn1_2 N1_4 1_555 1_555
N1_4 C1_4 1_555 1_555
C1_4 H1_4 1_555 1_555
C2_4 C1_4 1_555 1_555
H2_4 C2_4 1_555 1_555
O3_4 Zn1_2 1_555 1_555
C3_4 C2_4 1_555 1_555
O4_4 Zn1_2 1_555 1_555
C4_4 C3_4 1_555 1_555
H5_4 C4_4 1_555 1_555
O5_3 C25_3 1_555 1_555
C5_4 N1_4 1_555 1_555
H6_4 C5_4 1_555 1_555
C21_4 O3_4 1_555 1_555
C22_4 C21_4 1_555 1_555
C23_4 C22_4 1_555 1_555
H16_4 C23_4 1_555 1_555
C24_4 C23_4 1_555 1_555
H17_4 C24_4 1_555 1_555
C25_3 C24_4 1_555 1_555
C26_4 C25_3 1_555 1_555
H18_3 C26_4 1_555 1_555
C27_4 C22_4 1_555 1_555
H19_4 C27_4 1_555 1_555
C28_3 O5_3 1_555 1_555
C29_3 C28_3 1_555 1_555
H20_3 C29_3 1_555 1_555
C33_3 C28_3 1_555 1_555
H23_3 C33_3 1_555 1_555
O8_2 Zn1_2 1_555 1_555
N7_2 Zn1_2 1_555 1_555
O9_2 Zn1_2 1_555 1_555
O4_4 C21_4 1_555 1_555
C4_4 C5_4 1_555 1_555
C26_4 C27_4 1_555 1_555
C32_3 C33_3 1_555 1_555
O2_4 C14_4 1_555 1_555
N4_4 H4_4 1_555 1_555
N5_4 N4_4 1_555 1_555
N7_2 C18_4 1_555 1_555
C14_4 N4_4 1_555 1_555
C15_4 N5_4 1_555 1_555
H11_4 C15_4 1_555 1_555
C16_4 C15_4 1_555 1_555
C17_4 C16_4 1_555 1_555
H12_4 C17_4 1_555 1_555
C18_4 C17_4 1_555 1_555
H13_4 C18_4 1_555 1_555
C19_4 N7_2 1_555 1_555
H14_4 C19_4 1_555 1_555
C20_4 C16_4 1_555 1_555
H15_4 C20_4 1_555 1_555
C12_4 C14_4 1_555 1_555
C19_4 C20_4 1_555 1_555
O8_2 C34_4 1_555 1_555
O9_2 C34_4 1_555 1_555
H21_4 C30_4 1_555 1_555
C31_4 C30_4 1_555 1_555
C34_4 C31_4 1_555 1_555
Br1_4 C10_4 1_555 1_555
O1_4 C7_4 1_555 1_555
N2_4 N3_4 1_555 1_555
N3_4 H3_4 1_555 1_555
C6_4 N2_4 1_555 1_555
H7_4 C6_4 1_555 1_555
C7_4 N3_4 1_555 1_555
C8_4 C7_4 1_555 1_555
C9_4 C8_4 1_555 1_555
H8_4 C9_4 1_555 1_555
C10_4 C9_4 1_555 1_555
C11_4 C10_4 1_555 1_555
C13_4 C8_4 1_555 1_555
O5_4 C25_4 1_555 1_555
C28_4 O5_4 1_555 1_555
C29_4 C28_4 1_555 1_555
H20_4 C29_4 1_555 1_555
C33_4 C28_4 1_555 1_555
H23_4 C33_4 1_555 1_555
C32_4 C33_4 1_555 1_555
O12 Zn4 1_555 1_555
O13 Zn4 1_555 1_555
O14 C59 1_555 1_555
C55 O12 1_555 1_555
C56 C55 1_555 1_555
C57 C56 1_555 1_555
H39 C57 1_555 1_555
C58 C57 1_555 1_555
H40 C58 1_555 1_555
C59 C58 1_555 1_555
C60 C59 1_555 1_555
H41 C60 1_555 1_555
C61 C56 1_555 1_555
H42 C61 1_555 1_555
C62 O14 1_555 1_555
C63 C62 1_555 1_555
H43 C63 1_555 1_555
C67 C62 1_555 1_555
H46 C67 1_555 1_555
O17 Zn4 1_555 1_555
N14 Zn4 1_555 1_555
O18 Zn4 1_555 1_555
O13 C55 1_555 1_555
C60 C61 1_555 1_555
O17 C68 1_555 1_555
O18 C68 1_555 1_555
H44 C64 1_555 1_555
C65 C64 1_555 1_555
C66 C65 1_555 1_555
H45 C66 1_555 1_555
C68 C65 1_555 1_555
O10 C41 1_555 1_555
O11 C48 1_555 1_555
N11 H27 1_555 1_555
N12 N11 1_555 1_555
N14 C52 1_555 1_555
C42 C41 1_555 1_555
C43 C42 1_555 1_555
C44 C43 1_555 1_555
C45 C44 1_555 1_555
H32 C45 1_555 1_555
C46 C45 1_555 1_555
C47 C42 1_555 1_555
H33 C47 1_555 1_555
C48 N11 1_555 1_555
C49 N12 1_555 1_555
H34 C49 1_555 1_555
C50 C49 1_555 1_555
C51 C50 1_555 1_555
H35 C51 1_555 1_555
C52 C51 1_555 1_555
C53 N14 1_555 1_555
H37 C53 1_555 1_555
C54 C50 1_555 1_555
H38 C54 1_555 1_555
C46 C47 1_555 1_555
C46 C48 1_555 1_555
C53 C54 1_555 1_555
O15 C68_2 1_555 1_555
O16 C68_2 1_555 1_555
H44_2 C64_2 1_555 1_555
C65_2 C64_2 1_555 1_555
C66_2 C65_2 1_555 1_555
H45_2 C66_2 1_555 1_555
C68_2 C65_2 1_555 1_555
Zn6 O15 1_555 1_555
O16 Zn6 1_555 1_555
Br2 C44_2 1_555 1_555
O10_2 C41_2 1_555 1_555
N8 C35 1_555 1_555
C35 H24 1_555 1_555
O11_2 C48_2 1_555 1_555
N9 N10 1_555 1_555
C36 C35 1_555 1_555
H25 C36 1_555 1_555
N10 H26 1_555 1_555
C37 C36 1_555 1_555
N11_2 H27_2 1_555 1_555
C38 C37 1_555 1_555
H28 C38 1_555 1_555
N12_2 N11_2 1_555 1_555
C39 N8 1_555 1_555
H29 C39 1_555 1_555
N13 C52_2 1_555 1_555
C40 N9 1_555 1_555
H30 C40 1_555 1_555
C41_2 N10 1_555 1_555
C42_2 C41_2 1_555 1_555
C43_2 C42_2 1_555 1_555
H31 C43_2 1_555 1_555
C44_2 C43_2 1_555 1_555
C45_2 C44_2 1_555 1_555
H32_2 C45_2 1_555 1_555
C46_2 C45_2 1_555 1_555
C47_2 C42_2 1_555 1_555
H33_2 C47_2 1_555 1_555
C48_2 N11_2 1_555 1_555
C49_2 N12_2 1_555 1_555
H34_2 C49_2 1_555 1_555
C50_2 C49_2 1_555 1_555
C51_2 C50_2 1_555 1_555
H35_2 C51_2 1_555 1_555
C52_2 C51_2 1_555 1_555
C53_2 N13 1_555 1_555
H37_2 C53_2 1_555 1_555
C54_2 C50_2 1_555 1_555
H38_2 C54_2 1_555 1_555
Zn6 N13 1_555 1_555
C37 C40 1_555 1_555
C38 C39 1_555 1_555
C46_2 C47_2 1_555 1_555
C46_2 C48_2 1_555 1_555
C53_2 C54_2 1_555 1_555
O12_2 Zn6 1_555 1_555
O13_2 Zn6 1_555 1_555
C55_2 O12_2 1_555 1_555
C56_2 C55_2 1_555 1_555
C57_2 C56_2 1_555 1_555
H39_2 C57_2 1_555 1_555
C61_2 C56_2 1_555 1_555
H42_2 C61_2 1_555 1_555
O13_2 C55_2 1_555 1_555
O14_2 C59_2 1_555 1_555
H40_2 C58_2 1_555 1_555
C59_2 C58_2 1_555 1_555
C60_2 C59_2 1_555 1_555
H41_2 C60_2 1_555 1_555
C62_2 O14_2 1_555 1_555
C63_2 C62_2 1_555 1_555
H43_2 C63_2 1_555 1_555
C67_2 C62_2 1_555 1_555
H46_2 C67_2 1_555 1_555
N8_2 C35_2 1_555 1_555
C35_2 H24_2 1_555 1_555
N9_2 N10_2 1_555 1_555
C36_2 C35_2 1_555 1_555
H25_2 C36_2 1_555 1_555
N10_2 H26_2 1_555 1_555
C37_2 C36_2 1_555 1_555
C38_2 C37_2 1_555 1_555
H28_2 C38_2 1_555 1_555
C39_2 N8_2 1_555 1_555
H29_2 C39_2 1_555 1_555
C40_2 N9_2 1_555 1_555
H30_2 C40_2 1_555 1_555
C37_2 C40_2 1_555 1_555
C38_2 C39_2 1_555 1_555
O10_3 C41_3 1_555 1_555
N8_3 C35_3 1_555 1_555
C35_3 H24_3 1_555 1_555
Zn4_2 N8_3 1_555 1_555
N9_3 N10_3 1_555 1_555
C36_3 C35_3 1_555 1_555
H25_3 C36_3 1_555 1_555
O12_3 Zn4_2 1_555 1_555
N10_3 H26_3 1_555 1_555
C37_3 C36_3 1_555 1_555
O13_3 Zn4_2 1_555 1_555
C38_3 C37_3 1_555 1_555
H28_3 C38_3 1_555 1_555
O14_3 C59_3 1_555 1_555
C39_3 N8_3 1_555 1_555
H29_3 C39_3 1_555 1_555
O15_2 C68_3 1_555 1_555
C40_3 N9_3 1_555 1_555
H30_3 C40_3 1_555 1_555
O16_2 C68_3 1_555 1_555
C41_3 N10_3 1_555 1_555
C55_3 O12_3 1_555 1_555
C56_3 C55_3 1_555 1_555
C57_3 C56_3 1_555 1_555
H39_3 C57_3 1_555 1_555
C58_3 C57_3 1_555 1_555
H40_3 C58_3 1_555 1_555
C59_3 C58_3 1_555 1_555
C60_3 C59_3 1_555 1_555
H41_3 C60_3 1_555 1_555
C61_3 C56_3 1_555 1_555
H42_3 C61_3 1_555 1_555
C62_3 O14_3 1_555 1_555
C63_3 C62_3 1_555 1_555
H43_3 C63_3 1_555 1_555
C64_3 C63_3 1_555 1_555
H44_3 C64_3 1_555 1_555
C65_3 C64_3 1_555 1_555
C66_3 C65_3 1_555 1_555
H45_3 C66_3 1_555 1_555
C67_3 C62_3 1_555 1_555
H46_3 C67_3 1_555 1_555
C68_3 C65_3 1_555 1_555
Zn6_2 O15_2 1_555 1_555
O17_2 Zn4_2 1_555 1_555
N14_2 Zn4_2 1_555 1_555
O18_2 Zn4_2 1_555 1_555
C37_3 C40_3 1_555 1_555
O13_3 C55_3 1_555 1_555
C38_3 C39_3 1_555 1_555
O16_2 Zn6_2 1_555 1_555
C60_3 C61_3 1_555 1_555
C66_3 C67_3 1_555 1_555
N13_2 C52_3 1_555 1_555
C49_3 N12_3 1_555 1_555
H34_3 C49_3 1_555 1_555
C50_3 C49_3 1_555 1_555
C51_3 C50_3 1_555 1_555
H35_3 C51_3 1_555 1_555
C52_3 C51_3 1_555 1_555
H36_3 C52_3 1_555 1_555
C53_3 N13_2 1_555 1_555
H37_3 C53_3 1_555 1_555
C54_3 C50_3 1_555 1_555
H38_3 C54_3 1_555 1_555
Zn6_2 N13_2 1_555 1_555
C53_3 C54_3 1_555 1_555
N8_4 C35_4 1_555 1_555
C35_4 H24_4 1_555 1_555
Zn6_2 N8_4 1_555 1_555
N9_4 N10_4 1_555 1_555
C36_4 C35_4 1_555 1_555
H25_4 C36_4 1_555 1_555
O12_4 Zn6_2 1_555 1_555
N10_4 H26_4 1_555 1_555
C37_4 C36_4 1_555 1_555
O13_4 Zn6_2 1_555 1_555
C38_4 C37_4 1_555 1_555
H28_4 C38_4 1_555 1_555
C39_4 N8_4 1_555 1_555
H29_4 C39_4 1_555 1_555
C40_4 N9_4 1_555 1_555
H30_4 C40_4 1_555 1_555
C55_4 O12_4 1_555 1_555
C56_4 C55_4 1_555 1_555
C57_4 C56_4 1_555 1_555
H39_4 C57_4 1_555 1_555
C61_4 C56_4 1_555 1_555
H42_4 C61_4 1_555 1_555
C37_4 C40_4 1_555 1_555
O13_4 C55_4 1_555 1_555
C38_4 C39_4 1_555 1_555
O10_4 C41_4 1_555 1_555
O14_4 C59_4 1_555 1_555
O17_2 C68_4 1_555 1_555
O18_2 C68_4 1_555 1_555
H40_4 C58_4 1_555 1_555
C59_4 C58_4 1_555 1_555
C60_4 C59_4 1_555 1_555
H41_4 C60_4 1_555 1_555
C62_4 O14_4 1_555 1_555
C63_4 C62_4 1_555 1_555
H43_4 C63_4 1_555 1_555
C64_4 C63_4 1_555 1_555
H44_4 C64_4 1_555 1_555
C65_4 C64_4 1_555 1_555
C66_4 C65_4 1_555 1_555
H45_4 C66_4 1_555 1_555
C67_4 C62_4 1_555 1_555
H46_4 C67_4 1_555 1_555
C68_4 C65_4 1_555 1_555
C66_4 C67_4 1_555 1_555
N14_2 C52_4 1_555 1_555
C49_4 N12_4 1_555 1_555
H34_4 C49_4 1_555 1_555
C50_4 C49_4 1_555 1_555
C51_4 C50_4 1_555 1_555
H35_4 C51_4 1_555 1_555
C52_4 C51_4 1_555 1_555
H36_4 C52_4 1_555 1_555
C53_4 N14_2 1_555 1_555
H37_4 C53_4 1_555 1_555
C54_4 C50_4 1_555 1_555
H38_4 C54_4 1_555 1_555
C53_4 C54_4 1_555 1_555
Br2_3 C44_3 1_555 1_555
N11_3 H27_3 1_555 1_555
C43_3 C42_3 1_555 1_555
H31_3 C43_3 1_555 1_555
C44_3 C43_3 1_555 1_555
C45_3 C44_3 1_555 1_555
H32_3 C45_3 1_555 1_555
C46_3 C45_3 1_555 1_555
C47_3 C42_3 1_555 1_555
H33_3 C47_3 1_555 1_555
C48_3 N11_3 1_555 1_555
C46_3 C47_3 1_555 1_555
C46_3 C48_3 1_555 1_555
N11_4 H27_4 1_555 1_555
C43_4 C42_4 1_555 1_555
C44_4 C43_4 1_555 1_555
C45_4 C44_4 1_555 1_555
H32_4 C45_4 1_555 1_555
C46_4 C45_4 1_555 1_555
C47_4 C42_4 1_555 1_555
H33_4 C47_4 1_555 1_555
C48_4 N11_4 1_555 1_555
C46_4 C47_4 1_555 1_555
C46_4 C48_4 1_555 1_555

#END
