
###############################################################################
#
# This file contains modified crystal structure data generated from the
# MOF subset of the Cambridge Structural Database (CSD) v543 
# hosted by the Cambridge Crystallographic Data Centre (CCDC).
#
# This work is licensed under the Creative Commons
# Attribution-NonCommercial-ShareAlike 4.0 International License.
# To view a copy of this license, visit
# http://creativecommons.org/licenses/by-nc-sa/4.0/
# or send a letter to
# Creative Commons, PO Box 1866, Mountain View, CA 94042, USA.
#
# CIF created using the CSD Python API on 29 September 2022
# The structure has been converted into the P1 space group
# The structure has a 3D framework
# The original CSD entry GEGWAS is in the monoclinic crystal system
# The framework has been calculated to contain at least 10.0% void space
# The void calculation uses a probe of radius 1.32A, grid spacing 0.4
#
###############################################################################

data_GEGWAS
_chemical_formula_moiety         '(C84 H84 Ca19 Eu4 N12 O72)n'
_symmetry_cell_setting           triclinic
_symmetry_space_group_name_H-M   'P 1'
_symmetry_Int_Tables_number      1
_space_group_name_Hall           'P 1'
loop_
_symmetry_equiv_pos_site_id
_symmetry_equiv_pos_as_xyz
1 x,y,z
_cell_length_a                   16.1890(15)
_cell_length_b                   9.4514(10)
_cell_length_c                   23.983(2)
_cell_angle_alpha                90
_cell_angle_beta                 108.098(2)
_cell_angle_gamma                90
_cell_volume                     3488.06
loop_
_atom_site_label
_atom_site_type_symbol
_atom_site_fract_x
_atom_site_fract_y
_atom_site_fract_z
Ca5 Ca 0.0000 -0.0000 0.5000
H41 H 0.0196 0.5333 0.6312
H42 H 0.0099 0.3559 0.5622
Ca5_2 Ca 0.0000 1.0000 0.5000
Ca2 Ca 0.5000 1.0000 0.0000
H6 H 0.6293 0.9938 0.1097
O16 O 0.4150(2) 0.9093(3) 0.05360(15)
H7 H 0.4468 0.8798 0.0868
H8 H 0.3838 0.8414 0.0353
Ca4 Ca 0.5000 1.0000 0.5000
Ca2_2 Ca 0.5000 1.0000 1.0000
O27 O 0.5631(2) 0.7867(3) 0.99380(14)
O39 O 0.3865(2) 0.9363(4) 0.91348(16)
H26 H 0.3428 0.9036 0.9217
Ca3 Ca 1.0000 0.0000 0.0000
H31 H 0.9653 0.0124 0.1072
Ca3_2 Ca 1.0000 -0.0000 1.0000
H9 H 0.9620 0.0759 0.8821
H20 H 0.9804 0.5333 0.8688
H21 H 0.9901 0.3559 0.9378
O42 O 0.8611(2) 0.0965(4) 0.96542(18)
H32 H 0.8521 0.1406 0.9332
H33 H 0.8210 0.0367 0.9631
Ca3_3 Ca 1.0000 1.0000 1.0000
O36 O 0.9373(2) 0.7864(3) 0.96737(16)
H9_2 H 0.0380 0.0759 0.6179
H31_2 H 0.0347 0.0124 0.3928
O42_2 O 0.1389(2) 0.0965(4) 0.53458(18)
H32_2 H 0.1479 0.1406 0.5668
H33_2 H 0.1790 0.0367 0.5369
O36_2 O 0.0627(2) 0.7864(3) 0.53263(16)
O41 O 0.0105(3) 0.9474(5) 0.4067(2)
H6_2 H 0.3707 0.9938 0.3903
O16_2 O 0.5850(2) 0.9093(3) 0.44640(15)
H7_2 H 0.5532 0.8798 0.4132
H8_2 H 0.6162 0.8414 0.4647
O27_2 O 0.4369(2) 0.7867(3) 0.50620(14)
O39_2 O 0.6135(2) 0.9363(4) 0.58652(16)
H26_2 H 0.6572 0.9036 0.5783
N2 N 0.5460(2) 0.4909(3) 0.90225(16)
O5 O 0.6623(2) 0.6686(3) 0.96561(14)
O7 O 0.6090(2) 0.3157(3) 0.84230(14)
O8 O 0.4841(2) 0.1963(3) 0.80989(14)
O13 O 0.6514(2) 0.0818(3) 0.78876(15)
H1 H 0.6560 0.1453 0.8146
H2 H 0.6857 0.0141 0.8037
C8 C 0.5857(3) 0.6892(4) 0.96757(19)
C9 C 0.5177(3) 0.5845(4) 0.93458(19)
C10 C 0.4345(3) 0.5816(5) 0.9380(2)
H16 H 0.4164 0.6477 0.9605
C11 C 0.3789(3) 0.4788(5) 0.9074(3)
H17 H 0.3226 0.4733 0.9095
C12 C 0.4066(3) 0.3836(5) 0.8734(2)
H18 H 0.3692 0.3143 0.8521
C13 C 0.4908(3) 0.3926(4) 0.8714(2)
C14 C 0.5296(3) 0.2936(4) 0.83771(19)
Eu3 Eu 0.702555(14) 0.49558(2) 0.902750(10)
Eu4 Eu 0.297445(14) 0.49558(2) 0.597250(10)
N5 N 0.4540(2) 0.4909(3) 0.59775(16)
O23 O 0.3377(2) 0.6686(3) 0.53439(14)
O28 O 0.3910(2) 0.3157(3) 0.65770(14)
O31 O 0.5159(2) 0.1963(3) 0.69011(14)
O37 O 0.3486(2) 0.0818(3) 0.71124(15)
H22 H 0.3440 0.1453 0.6854
H23 H 0.3143 0.0141 0.6963
C29 C 0.4143(3) 0.6892(4) 0.53243(19)
C30 C 0.4823(3) 0.5845(4) 0.56542(19)
C31 C 0.5655(3) 0.5816(5) 0.5620(2)
H37 H 0.5836 0.6477 0.5395
C32 C 0.6211(3) 0.4788(5) 0.5926(3)
H38 H 0.6774 0.4733 0.5905
C33 C 0.5934(3) 0.3836(5) 0.6266(2)
H39 H 0.6308 0.3143 0.6479
C34 C 0.5092(3) 0.3926(4) 0.6286(2)
C35 C 0.4704(3) 0.2936(4) 0.66229(19)
Ca1 Ca 0.5000 0.99731(12) 0.7500
N1 N 0.7375(2) 0.5115(3) 0.80674(17)
N3 N 0.8282(2) 0.4914(3) 0.99919(17)
O1 O 0.8070(2) 0.3208(3) 0.88790(14)
O2 O 0.8848(2) 0.2272(4) 0.83451(16)
O3 O 0.6270(2) 0.6787(3) 0.83415(14)
O4 O 0.5995(2) 0.7997(3) 0.75024(14)
O9 O 0.6977(2) 0.3143(3) 0.97640(14)
O11 O 0.8180(2) 0.6743(3) 0.91542(14)
O14 O 0.5303(2) 0.8990(3) 0.85149(13)
H3 H 0.5694 0.8357 0.8579
H4 H 0.5475 0.9642 0.8769
C1 C 0.8326(3) 0.3144(5) 0.8424(2)
C2 C 0.7981(3) 0.4280(5) 0.7967(2)
C3 C 0.8283(4) 0.4468(6) 0.7500(2)
H13 H 0.8699 0.3864 0.7438
C4 C 0.7952(4) 0.5578(7) 0.7123(3)
H14 H 0.8155 0.5744 0.6806
C5 C 0.7326(4) 0.6436(5) 0.7217(2)
H15 H 0.7095 0.7182 0.6964
C6 C 0.7043(3) 0.6173(5) 0.7693(2)
C7 C 0.6374(3) 0.7076(4) 0.7847(2)
C21 C 0.8827(3) 0.6897(4) 0.9601(2)
N4 N 0.2625(2) 0.5115(3) 0.69326(17)
N8 N 0.1718(2) 0.4914(3) 0.50081(17)
O19 O 0.1930(2) 0.3208(3) 0.61210(14)
O20 O 0.1152(2) 0.2272(4) 0.66549(16)
O21 O 0.3730(2) 0.6787(3) 0.66585(14)
O22 O 0.4005(2) 0.7997(3) 0.74976(14)
O32 O 0.3023(2) 0.3143(3) 0.52360(14)
O33 O 0.2533(2) 0.2161(4) 0.43451(16)
O34 O 0.1820(2) 0.6743(3) 0.58458(14)
O38 O 0.4697(2) 0.8990(3) 0.64851(13)
H24 H 0.4306 0.8357 0.6421
H25 H 0.4525 0.9642 0.6231
C22 C 0.1674(3) 0.3144(5) 0.6576(2)
C23 C 0.2019(3) 0.4280(5) 0.7033(2)
C24 C 0.1717(4) 0.4468(6) 0.7500(2)
H34 H 0.1301 0.3864 0.7562
C25 C 0.2048(4) 0.5578(7) 0.7877(3)
H35 H 0.1845 0.5744 0.8194
C26 C 0.2674(4) 0.6436(5) 0.7783(2)
H36 H 0.2905 0.7182 0.8036
C27 C 0.2957(3) 0.6173(5) 0.7307(2)
C28 C 0.3626(3) 0.7076(4) 0.7153(2)
C36 C 0.2467(3) 0.2992(5) 0.4734(2)
C37 C 0.1689(3) 0.3925(5) 0.4598(2)
C38 C 0.0985(3) 0.3816(5) 0.4097(2)
H40 H 0.0975 0.3130 0.3817
C39 C 0.0294(4) 0.4744(6) 0.4015(3)
C40 C 0.0346(3) 0.5785(5) 0.4429(2)
C41 C 0.1067(3) 0.5832(4) 0.4918(2)
C42 C 0.1173(3) 0.6897(4) 0.5399(2)
Eu1 Eu 0.297445(14) 0.50442(2) 0.097250(10)
Ca1_2 Ca 0.5000 0.00269(12) 0.2500
Ca3_4 Ca 0.0000 0.0000 0.0000
N1_2 N 0.2625(2) 0.4885(3) 0.19326(17)
N3_2 N 0.1718(2) 0.5086(3) 0.00081(17)
O1_2 O 0.1930(2) 0.6792(3) 0.11210(14)
O2_2 O 0.1152(2) 0.7728(4) 0.16549(16)
O3_2 O 0.3730(2) 0.3213(3) 0.16585(14)
O4_2 O 0.4005(2) 0.2003(3) 0.24976(14)
O9_2 O 0.3023(2) 0.6857(3) 0.02360(14)
O11_2 O 0.1820(2) 0.3257(3) 0.08458(14)
O12 O 0.0627(2) 0.2136(3) 0.03263(16)
O14_2 O 0.4697(2) 0.1010(3) 0.14851(13)
H3_2 H 0.4306 0.1643 0.1421
H4_2 H 0.4525 0.0358 0.1231
C1_2 C 0.1674(3) 0.6856(5) 0.1576(2)
C2_2 C 0.2019(3) 0.5720(5) 0.2033(2)
C3_2 C 0.1717(4) 0.5532(6) 0.2500(2)
H13_2 H 0.1301 0.6136 0.2562
C4_2 C 0.2048(4) 0.4422(7) 0.2877(3)
H14_2 H 0.1845 0.4256 0.3194
C5_2 C 0.2674(4) 0.3564(5) 0.2783(2)
H15_2 H 0.2905 0.2818 0.3036
C6_2 C 0.2957(3) 0.3827(5) 0.2307(2)
C7_2 C 0.3626(3) 0.2924(4) 0.2153(2)
C21_2 C 0.1173(3) 0.3103(4) 0.0399(2)
Eu2 Eu 0.702555(14) 0.50442(2) 0.402750(10)
Ca5_3 Ca 1.0000 -0.0000 0.5000
N4_2 N 0.7375(2) 0.4885(3) 0.30674(17)
N6 N 0.4540(2) 0.5091(3) 0.09775(16)
N7 N 0.5460(2) 0.5091(3) 0.40225(16)
N8_2 N 0.8282(2) 0.5086(3) 0.49919(17)
O19_2 O 0.8070(2) 0.6792(3) 0.38790(14)
O20_2 O 0.8848(2) 0.7728(4) 0.33451(16)
O21_2 O 0.6270(2) 0.3213(3) 0.33415(14)
O22_2 O 0.5995(2) 0.2003(3) 0.25024(14)
O24 O 0.3377(2) 0.3314(3) 0.03439(14)
O25 O 0.6623(2) 0.3314(3) 0.46561(14)
O29 O 0.3910(2) 0.6843(3) 0.15770(14)
O30 O 0.6090(2) 0.6843(3) 0.34230(14)
O32_2 O 0.6977(2) 0.6857(3) 0.47640(14)
O33_2 O 0.7467(2) 0.7839(4) 0.56549(16)
O34_2 O 0.8180(2) 0.3257(3) 0.41542(14)
O35 O 0.9373(2) 0.2136(3) 0.46737(16)
O38_2 O 0.5303(2) 0.1010(3) 0.35149(13)
H24_2 H 0.5694 0.1643 0.3579
H25_2 H 0.5475 0.0358 0.3769
C22_2 C 0.8326(3) 0.6856(5) 0.3424(2)
C23_2 C 0.7981(3) 0.5720(5) 0.2967(2)
C24_2 C 0.8283(4) 0.5532(6) 0.2500(2)
H34_2 H 0.8699 0.6136 0.2438
C25_2 C 0.7952(4) 0.4422(7) 0.2123(3)
H35_2 H 0.8155 0.4256 0.1806
C26_2 C 0.7326(4) 0.3564(5) 0.2217(2)
H36_2 H 0.7095 0.2818 0.1964
C27_2 C 0.7043(3) 0.3827(5) 0.2693(2)
C28_2 C 0.6374(3) 0.2924(4) 0.2847(2)
C36_2 C 0.7533(3) 0.7008(5) 0.5266(2)
C37_2 C 0.8311(3) 0.6075(5) 0.5402(2)
C38_2 C 0.9015(3) 0.6184(5) 0.5903(2)
H40_2 H 0.9025 0.6870 0.6183
C39_2 C 0.9706(4) 0.5256(6) 0.5985(3)
C40_2 C 0.9654(3) 0.4215(5) 0.5571(2)
C41_2 C 0.8933(3) 0.4168(4) 0.5082(2)
C42_2 C 0.8827(3) 0.3103(4) 0.4601(2)
Ca2_3 Ca 0.5000 0.0000 0.0000
Ca3_5 Ca 0.0000 1.0000 0.0000
O6 O 0.4369(2) 0.2133(3) 0.00620(14)
O8_2 O 0.5159(2) 0.8037(3) 0.19011(14)
O13_2 O 0.3486(2) 0.9182(3) 0.21124(15)
H1_2 H 0.3440 0.8547 0.1854
H2_2 H 0.3143 0.9859 0.1963
O15 O 0.6135(2) 0.0637(4) 0.08652(16)
H5 H 0.6572 0.0964 0.0783
O18 O 0.1389(2) 0.9035(4) 0.03458(18)
H11 H 0.1479 0.8594 0.0668
H12 H 0.1790 0.9633 0.0369
C8_2 C 0.4143(3) 0.3108(4) 0.03243(19)
C9_2 C 0.4823(3) 0.4155(4) 0.06542(19)
C10_2 C 0.5655(3) 0.4184(5) 0.0620(2)
H16_2 H 0.5836 0.3523 0.0395
C11_2 C 0.6211(3) 0.5212(5) 0.0926(3)
H17_2 H 0.6774 0.5267 0.0905
C12_2 C 0.5934(3) 0.6164(5) 0.1266(2)
H18_2 H 0.6308 0.6857 0.1479
C13_2 C 0.5092(3) 0.6074(4) 0.1286(2)
C14_2 C 0.4704(3) 0.7064(4) 0.16229(19)
Ca4_2 Ca 0.5000 0.0000 0.5000
Ca5_4 Ca 1.0000 1.0000 0.5000
O26 O 0.5631(2) 0.2133(3) 0.49380(14)
O31_2 O 0.4841(2) 0.8037(3) 0.30989(14)
O37_2 O 0.6514(2) 0.9182(3) 0.28876(15)
H22_2 H 0.6560 0.8547 0.3146
H23_2 H 0.6857 0.9859 0.3037
H30 H 0.0380 0.9241 0.1179
C29_2 C 0.5857(3) 0.3108(4) 0.46757(19)
C30_2 C 0.5177(3) 0.4155(4) 0.43458(19)
C31_2 C 0.4345(3) 0.4184(5) 0.4380(2)
H37_2 H 0.4164 0.3523 0.4605
C32_2 C 0.3789(3) 0.5212(5) 0.4074(3)
H38_2 H 0.3226 0.5267 0.4095
C33_2 C 0.4066(3) 0.6164(5) 0.3734(2)
H39_2 H 0.3692 0.6857 0.3521
C34_2 C 0.4908(3) 0.6074(4) 0.3714(2)
C35_2 C 0.5296(3) 0.7064(4) 0.33771(19)
Ca2_4 Ca 0.5000 0.0000 1.0000
Ca3_6 Ca 0.0000 1.0000 1.0000
H10 H 0.0347 0.9876 0.8928
H27 H 0.3707 0.0062 0.8903
O40 O 0.5850(2) 0.0907(3) 0.94640(15)
H28 H 0.5532 0.1202 0.9132
H29 H 0.6162 0.1586 0.9647
O17 O 0.9895(3) 0.0526(5) 0.5933(2)
O15_2 O 0.3865(2) 0.0637(4) 0.41348(16)
H5_2 H 0.3428 0.0964 0.4217
H10_2 H 0.9653 0.9876 0.6072
O18_2 O 0.8611(2) 0.9035(4) 0.46542(18)
H11_2 H 0.8521 0.8594 0.4332
H12_2 H 0.8210 0.9633 0.4631
H27_2 H 0.6293 0.0062 0.6097
O40_2 O 0.4150(2) 0.0907(3) 0.55360(15)
H28_2 H 0.4468 0.1202 0.5868
H29_2 H 0.3838 0.1586 0.5353
H30_2 H 0.9620 0.9241 0.3821
H20_2 H 0.0196 0.4667 0.1312
H21_2 H 0.0099 0.6441 0.0622
H41_2 H 0.9804 0.4667 0.3688
H42_2 H 0.9901 0.6441 0.4378
Ca3_7 Ca 0.0000 -0.0000 1.0000
O10 O 0.2533(2) 0.7839(4) 0.93451(16)
O17_2 O 0.0105(3) 0.0526(5) 0.9067(2)
C15 C 0.2467(3) 0.7008(5) 0.9734(2)
C16 C 0.1689(3) 0.6075(5) 0.9598(2)
C17 C 0.0985(3) 0.6184(5) 0.9097(2)
H19 H 0.0975 0.6870 0.8817
C18 C 0.0294(4) 0.5256(6) 0.9015(3)
C19 C 0.0346(3) 0.4215(5) 0.9429(2)
C20 C 0.1067(3) 0.4168(4) 0.9918(2)
Ca3_8 Ca 1.0000 1.0000 0.0000
O41_2 O 0.9895(3) 0.9474(5) 0.0933(2)
O10_2 O 0.7467(2) 0.2161(4) 0.06549(16)
C15_2 C 0.7533(3) 0.2992(5) 0.0266(2)
C16_2 C 0.8311(3) 0.3925(5) 0.0402(2)
C17_2 C 0.9015(3) 0.3816(5) 0.0903(2)
H19_2 H 0.9025 0.3130 0.1183
C18_2 C 0.9706(4) 0.4744(6) 0.0985(3)
C19_2 C 0.9654(3) 0.5785(5) 0.0571(2)
C20_2 C 0.8933(3) 0.5832(4) 0.0082(2)
loop_
_geom_bond_atom_site_label_1
_geom_bond_atom_site_label_2
_geom_bond_site_symmetry_1
_geom_bond_site_symmetry_2
O16 Ca2 1_555 1_555
H7 O16 1_555 1_555
H8 O16 1_555 1_555
O27 Ca2_2 1_555 1_555
O39 Ca2_2 1_555 1_555
H26 O39 1_555 1_555
O42 Ca3_2 1_555 1_555
H32 O42 1_555 1_555
H33 O42 1_555 1_555
O36 Ca3_3 1_555 1_555
O42_2 Ca5 1_555 1_555
H32_2 O42_2 1_555 1_555
H33_2 O42_2 1_555 1_555
O36_2 Ca5_2 1_555 1_555
O41 Ca5_2 1_555 1_555
O16_2 Ca4 1_555 1_555
H7_2 O16_2 1_555 1_555
H8_2 O16_2 1_555 1_555
O27_2 Ca4 1_555 1_555
O39_2 Ca4 1_555 1_555
H26_2 O39_2 1_555 1_555
N2 C9 1_555 1_555
O5 C8 1_555 1_555
O27 C8 1_555 1_555
O7 C14 1_555 1_555
H1 O13 1_555 1_555
H2 O13 1_555 1_555
C8 C9 1_555 1_555
C9 C10 1_555 1_555
C10 H16 1_555 1_555
C11 C10 1_555 1_555
H17 C11 1_555 1_555
C12 C11 1_555 1_555
H18 C12 1_555 1_555
C13 N2 1_555 1_555
C14 O8 1_555 1_555
Eu3 N2 1_555 1_555
Eu4 N5 1_555 1_555
N5 C30 1_555 1_555
O23 Eu4 1_555 1_555
O27_2 C29 1_555 1_555
O28 Eu4 1_555 1_555
H22 O37 1_555 1_555
H23 O37 1_555 1_555
C29 O23 1_555 1_555
C30 C29 1_555 1_555
C31 C30 1_555 1_555
H37 C31 1_555 1_555
C32 C31 1_555 1_555
H38 C32 1_555 1_555
C33 C32 1_555 1_555
H39 C33 1_555 1_555
C34 N5 1_555 1_555
C35 O28 1_555 1_555
O5 Eu3 1_555 1_555
O7 Eu3 1_555 1_555
C12 C13 1_555 1_555
C13 C14 1_555 1_555
O31 C35 1_555 1_555
C33 C34 1_555 1_555
C34 C35 1_555 1_555
Eu3 N1 1_555 1_555
Ca1 O4 1_555 1_555
N1 C2 1_555 1_555
N3 Eu3 1_555 1_555
O1 Eu3 1_555 1_555
O2 C1 1_555 1_555
O3 Eu3 1_555 1_555
O4 C7 1_555 1_555
O9 Eu3 1_555 1_555
O11 Eu3 1_555 1_555
O36 C21 1_555 1_555
O14 Ca1 1_555 1_555
H3 O14 1_555 1_555
H4 O14 1_555 1_555
C1 O1 1_555 1_555
C2 C1 1_555 1_555
C3 C2 1_555 1_555
H13 C3 1_555 1_555
C4 C3 1_555 1_555
H14 C4 1_555 1_555
C5 C4 1_555 1_555
H15 C5 1_555 1_555
C6 N1 1_555 1_555
C7 O3 1_555 1_555
C21 O11 1_555 1_555
Eu4 N4 1_555 1_555
N4 C23 1_555 1_555
N8 Eu4 1_555 1_555
O19 Eu4 1_555 1_555
O20 C22 1_555 1_555
O21 Eu4 1_555 1_555
O22 Ca1 1_555 1_555
O32 Eu4 1_555 1_555
O33 C36 1_555 1_555
O34 Eu4 1_555 1_555
O36_2 C42 1_555 1_555
O38 Ca1 1_555 1_555
H24 O38 1_555 1_555
H25 O38 1_555 1_555
C22 O19 1_555 1_555
C23 C22 1_555 1_555
C24 C23 1_555 1_555
H34 C24 1_555 1_555
C25 C24 1_555 1_555
H35 C25 1_555 1_555
C26 C25 1_555 1_555
H36 C26 1_555 1_555
C27 N4 1_555 1_555
C28 O21 1_555 1_555
C36 O32 1_555 1_555
C37 N8 1_555 1_555
C38 C37 1_555 1_555
H40 C38 1_555 1_555
C39 C38 1_555 1_555
C40 C39 1_555 1_555
C41 N8 1_555 1_555
C42 O34 1_555 1_555
C5 C6 1_555 1_555
C6 C7 1_555 1_555
O22 C28 1_555 1_555
C26 C27 1_555 1_555
C27 C28 1_555 1_555
C36 C37 1_555 1_555
C40 C41 1_555 1_555
C41 C42 1_555 1_555
Eu1 N1_2 1_555 1_555
Ca1_2 O4_2 1_555 1_555
Ca3_4 O12 1_555 1_555
N1_2 C2_2 1_555 1_555
N3_2 Eu1 1_555 1_555
O1_2 Eu1 1_555 1_555
O2_2 C1_2 1_555 1_555
O3_2 Eu1 1_555 1_555
O4_2 C7_2 1_555 1_555
O9_2 Eu1 1_555 1_555
O11_2 Eu1 1_555 1_555
O12 C21_2 1_555 1_555
O14_2 Ca1_2 1_555 1_555
H3_2 O14_2 1_555 1_555
H4_2 O14_2 1_555 1_555
C1_2 O1_2 1_555 1_555
C2_2 C1_2 1_555 1_555
C3_2 C2_2 1_555 1_555
H13_2 C3_2 1_555 1_555
C4_2 C3_2 1_555 1_555
H14_2 C4_2 1_555 1_555
C5_2 C4_2 1_555 1_555
H15_2 C5_2 1_555 1_555
C6_2 N1_2 1_555 1_555
C7_2 O3_2 1_555 1_555
C21_2 O11_2 1_555 1_555
Eu2 N4_2 1_555 1_555
Ca5_3 O35 1_555 1_555
N4_2 C23_2 1_555 1_555
N6 Eu1 1_555 1_555
N7 Eu2 1_555 1_555
N8_2 Eu2 1_555 1_555
O19_2 Eu2 1_555 1_555
O20_2 C22_2 1_555 1_555
O21_2 Eu2 1_555 1_555
O22_2 Ca1_2 1_555 1_555
O24 Eu1 1_555 1_555
O25 Eu2 1_555 1_555
O29 Eu1 1_555 1_555
O30 Eu2 1_555 1_555
O32_2 Eu2 1_555 1_555
O33_2 C36_2 1_555 1_555
O34_2 Eu2 1_555 1_555
O35 C42_2 1_555 1_555
O38_2 Ca1_2 1_555 1_555
H24_2 O38_2 1_555 1_555
H25_2 O38_2 1_555 1_555
C22_2 O19_2 1_555 1_555
C23_2 C22_2 1_555 1_555
C24_2 C23_2 1_555 1_555
H34_2 C24_2 1_555 1_555
C25_2 C24_2 1_555 1_555
H35_2 C25_2 1_555 1_555
C26_2 C25_2 1_555 1_555
H36_2 C26_2 1_555 1_555
C27_2 N4_2 1_555 1_555
C28_2 O21_2 1_555 1_555
C36_2 O32_2 1_555 1_555
C37_2 N8_2 1_555 1_555
C38_2 C37_2 1_555 1_555
H40_2 C38_2 1_555 1_555
C39_2 C38_2 1_555 1_555
C40_2 C39_2 1_555 1_555
C41_2 N8_2 1_555 1_555
C42_2 O34_2 1_555 1_555
C5_2 C6_2 1_555 1_555
C6_2 C7_2 1_555 1_555
O22_2 C28_2 1_555 1_555
C26_2 C27_2 1_555 1_555
C27_2 C28_2 1_555 1_555
C36_2 C37_2 1_555 1_555
C40_2 C41_2 1_555 1_555
C41_2 C42_2 1_555 1_555
Ca2_3 O6 1_555 1_555
N6 C9_2 1_555 1_555
O24 C8_2 1_555 1_555
O6 C8_2 1_555 1_555
O29 C14_2 1_555 1_555
H1_2 O13_2 1_555 1_555
H2_2 O13_2 1_555 1_555
O15 Ca2_3 1_555 1_555
H5 O15 1_555 1_555
O18 Ca3_5 1_555 1_555
H11 O18 1_555 1_555
H12 O18 1_555 1_555
C8_2 C9_2 1_555 1_555
C9_2 C10_2 1_555 1_555
C10_2 H16_2 1_555 1_555
C11_2 C10_2 1_555 1_555
H17_2 C11_2 1_555 1_555
C12_2 C11_2 1_555 1_555
H18_2 C12_2 1_555 1_555
C13_2 N6 1_555 1_555
C14_2 O8_2 1_555 1_555
Ca4_2 O26 1_555 1_555
N7 C30_2 1_555 1_555
O26 C29_2 1_555 1_555
H22_2 O37_2 1_555 1_555
H23_2 O37_2 1_555 1_555
C29_2 O25 1_555 1_555
C30_2 C29_2 1_555 1_555
C31_2 C30_2 1_555 1_555
H37_2 C31_2 1_555 1_555
C32_2 C31_2 1_555 1_555
H38_2 C32_2 1_555 1_555
C33_2 C32_2 1_555 1_555
H39_2 C33_2 1_555 1_555
C34_2 N7 1_555 1_555
C35_2 O30 1_555 1_555
C12_2 C13_2 1_555 1_555
C13_2 C14_2 1_555 1_555
O31_2 C35_2 1_555 1_555
C33_2 C34_2 1_555 1_555
C34_2 C35_2 1_555 1_555
O40 Ca2_4 1_555 1_555
H28 O40 1_555 1_555
H29 O40 1_555 1_555
O17 Ca5_3 1_555 1_555
O15_2 Ca4_2 1_555 1_555
H5_2 O15_2 1_555 1_555
O18_2 Ca5_4 1_555 1_555
H11_2 O18_2 1_555 1_555
H12_2 O18_2 1_555 1_555
O40_2 Ca4_2 1_555 1_555
H28_2 O40_2 1_555 1_555
H29_2 O40_2 1_555 1_555
O10 C15 1_555 1_555
O17_2 Ca3_7 1_555 1_555
C17 C16 1_555 1_555
H19 C17 1_555 1_555
C18 C17 1_555 1_555
C19 C18 1_555 1_555
C15 C16 1_555 1_555
C19 C20 1_555 1_555
O41_2 Ca3_8 1_555 1_555
O10_2 C15_2 1_555 1_555
C17_2 C16_2 1_555 1_555
H19_2 C17_2 1_555 1_555
C18_2 C17_2 1_555 1_555
C19_2 C18_2 1_555 1_555
C15_2 C16_2 1_555 1_555
C19_2 C20_2 1_555 1_555

#END
