
###############################################################################
#
# This file contains modified crystal structure data generated from the
# MOF subset of the Cambridge Structural Database (CSD) v543 
# hosted by the Cambridge Crystallographic Data Centre (CCDC).
#
# This work is licensed under the Creative Commons
# Attribution-NonCommercial-ShareAlike 4.0 International License.
# To view a copy of this license, visit
# http://creativecommons.org/licenses/by-nc-sa/4.0/
# or send a letter to
# Creative Commons, PO Box 1866, Mountain View, CA 94042, USA.
#
# CIF created using the CSD Python API on 29 September 2022
# The structure has been converted into the P1 space group
# The structure has a 3D framework
# The original CSD entry GEJJEL01 is in the triclinic crystal system
# The framework has been calculated to contain at least 10.0% void space
# The void calculation uses a probe of radius 1.32A, grid spacing 0.4
# H atom positions have been added when not included in the experimental data
#
###############################################################################

data_GEJJEL01
_chemical_formula_moiety         '(C24 H32 Nd4 O28)n'
_symmetry_cell_setting           triclinic
_symmetry_space_group_name_H-M   'P 1'
_symmetry_Int_Tables_number      1
_space_group_name_Hall           'P 1'
loop_
_symmetry_equiv_pos_site_id
_symmetry_equiv_pos_as_xyz
1 x,y,z
_cell_length_a                   7.8354(7)
_cell_length_b                   12.0496(16)
_cell_length_c                   12.2524(16)
_cell_angle_alpha                112.015(5)
_cell_angle_beta                 89.967(7)
_cell_angle_gamma                99.921(7)
_cell_volume                     1053.81
loop_
_atom_site_label
_atom_site_type_symbol
_atom_site_fract_x
_atom_site_fract_y
_atom_site_fract_z
Nd6 Nd 0.00869(13) 0.35430(11) 0.64579(10)
H5 H 0.2863 0.0216 0.3233
C11 C 0.286(3) 0.037(2) 0.488(2)
H7 H 0.4093 0.0723 0.5012
C12 C 0.179(3) 0.144(2) 0.545(2)
O9 O 0.2311(17) 0.2231(13) 0.6534(12)
O12 O 0.0472(19) 0.1495(13) 0.4951(14)
Nd9 Nd 0.50907(14) 0.35487(11) 0.74725(10)
C1 C 0.647(3) 0.429(2) 0.149(2)
C2 C 0.722(3) 0.310(2) 0.0857(17)
H1 H 0.7441 0.2760 0.1432
H2 H 0.6356 0.2511 0.0262
C3 C 0.894(3) 0.333(2) 0.0257(19)
H3 H 0.9729 0.4021 0.0817
H4 H 0.9485 0.2624 0.0051
C5 C 0.144(3) 0.426(2) 0.2971(18)
C6 C 0.224(2) 0.3088(19) 0.2718(18)
C7 C 0.388(2) 0.333(2) 0.3512(18)
C8 C 0.365(2) 0.363(2) 0.476(2)
C9 C 0.323(3) 0.861(2) 0.3151(19)
C10 C 0.248(3) 0.969(2) 0.365(2)
H6 H 0.1226 0.9444 0.3507
H8 H 0.2647 0.9817 0.5292
Nd2 Nd 0.49093(14) 0.64513(11) 0.25275(10)
O1 O 0.7363(17) 0.5184(13) 0.2207(11)
O2 O 0.488(2) 0.4284(14) 0.1180(12)
O3 O 0.2317(17) 0.5179(13) 0.2899(13)
O5 O 0.2716(16) 0.7771(13) 0.3591(11)
O6 O 0.450(2) 0.8550(13) 0.2589(14)
O10 O 0.6738(18) 0.6722(14) 0.0986(13)
H9 H 0.6226 0.6244 0.0143
H10 H 0.7936 0.6472 0.0939
O11 O 0.1710(17) 0.6758(13) 0.5296(11)
H11 H 0.2693 0.6369 0.5133
H12 H 0.1109 0.6456 0.5828
O13 O 0.4862(16) 0.3500(13) 0.5355(12)
O14 O 0.2269(15) 0.3969(12) 0.5168(12)
Nd3 Nd 0.99131(13) 0.64570(11) 0.35421(10)
O16 O 0.2786(17) 0.6090(13) 0.0987(12)
O17 O 0.0156(14) 0.6539(11) 0.1510(11)
O19 O 0.7689(17) 0.7769(13) 0.3466(12)
O21 O 0.5138(16) 0.6500(13) 0.4645(12)
H13 H 0.256758 0.275067 0.180132
H14 H 0.127618 0.239947 0.286405
H15 H 0.477424 0.408726 0.342637
H16 H 0.445578 0.251483 0.319059
C4 C 0.863(2) 0.359(2) 0.9136(18)
O7 O 0.7214(17) 0.3910(13) 0.9013(12)
O8 O 0.9844(14) 0.3461(11) 0.8490(11)
O4 O 0.9909(19) 0.4285(14) 0.3268(12)
O20 O 0.9528(19) 0.8505(13) 0.5049(14)
O22 O 0.7731(15) 0.6031(12) 0.4832(12)
O4_2 O 0.0091(19) 0.5715(14) 0.6732(12)
O15 O 0.2637(17) 0.4816(13) 0.7793(11)
C4_2 C 0.137(2) 0.641(2) 0.0864(18)
C1_2 C 0.353(3) 0.571(2) 0.851(2)
C2_2 C 0.278(3) 0.690(2) 0.9143(17)
H1_2 H 0.2559 0.7240 0.8568
H2_2 H 0.3644 0.7489 0.9738
C3_2 C 0.106(3) 0.667(2) 0.9743(19)
H3_2 H 0.0271 0.5979 0.9183
H4_2 H 0.0515 0.7376 0.9949
C5_2 C 0.856(3) 0.574(2) 0.7029(18)
C6_2 C 0.776(2) 0.6912(19) 0.7282(18)
C7_2 C 0.612(2) 0.667(2) 0.6488(18)
C8_2 C 0.635(2) 0.637(2) 0.524(2)
C9_2 C 0.677(3) 0.139(2) 0.6849(19)
C10_2 C 0.752(3) 0.031(2) 0.635(2)
H6_2 H 0.8774 0.0556 0.6493
H8_2 H 0.7353 0.0183 0.4708
O2_2 O 0.512(2) 0.5716(14) 0.8820(12)
O3_2 O 0.7683(17) 0.4821(13) 0.7101(13)
O5_2 O 0.7284(16) 0.2229(13) 0.6409(11)
O6_2 O 0.550(2) 0.1450(13) 0.7411(14)
O10_2 O 0.3262(18) 0.3278(14) 0.9014(13)
H9_2 H 0.3774 0.3756 0.9857
H10_2 H 0.2064 0.3528 0.9061
O11_2 O 0.8290(17) 0.3242(13) 0.4704(11)
H11_2 H 0.7307 0.3631 0.4867
H12_2 H 0.8891 0.3544 0.4172
H13_2 H 0.743242 0.724933 0.819868
H14_2 H 0.872382 0.760053 0.713595
H15_2 H 0.522576 0.591274 0.657363
H16_2 H 0.554422 0.748517 0.680941
H5_2 H 0.7137 0.9784 0.6767
C11_2 C 0.714(3) 0.963(2) 0.512(2)
H7_2 H 0.5907 0.9277 0.4988
C12_2 C 0.821(3) 0.856(2) 0.455(2)
loop_
_geom_bond_atom_site_label_1
_geom_bond_atom_site_label_2
_geom_bond_site_symmetry_1
_geom_bond_site_symmetry_2
H7 C11 1_555 1_555
C12 C11 1_555 1_555
O9 C12 1_555 1_555
O12 C12 1_555 1_555
Nd6 O9 1_555 1_555
Nd9 O9 1_555 1_555
O12 Nd6 1_555 1_555
C1 C2 1_555 1_555
C2 H1 1_555 1_555
H2 C2 1_555 1_555
C3 C2 1_555 1_555
H3 C3 1_555 1_555
H4 C3 1_555 1_555
C5 C6 1_555 1_555
C6 C7 1_555 1_555
C7 C8 1_555 1_555
C8 O13 1_555 1_555
C9 C10 1_555 1_555
H6 C10 1_555 1_555
Nd2 O1 1_555 1_555
O1 C1 1_555 1_555
O2 C1 1_555 1_555
O3 C5 1_555 1_555
O5 C9 1_555 1_555
O6 C9 1_555 1_555
O10 Nd2 1_555 1_555
H9 O10 1_555 1_555
H10 O10 1_555 1_555
H11 O11 1_555 1_555
H12 O11 1_555 1_555
O13 Nd9 1_555 1_555
O14 C8 1_555 1_555
Nd3 O1 1_555 1_555
Nd6 O14 1_555 1_555
O16 Nd2 1_555 1_555
O19 Nd2 1_555 1_555
O21 Nd2 1_555 1_555
Nd2 O2 1_555 1_555
Nd2 O3 1_555 1_555
Nd2 O5 1_555 1_555
Nd2 O6 1_555 1_555
Nd3 O19 1_555 1_555
C6 H13 1_555 1_555
C6 H14 1_555 1_555
C7 H15 1_555 1_555
C7 H16 1_555 1_555
O7 C4 1_555 1_555
O8 C4 1_555 1_555
Nd9 O7 1_555 1_555
O20 Nd3 1_555 1_555
O22 Nd3 1_555 1_555
Nd3 O4 1_555 1_555
O15 Nd6 1_555 1_555
Nd6 O4_2 1_555 1_555
O16 C4_2 1_555 1_555
O17 C4_2 1_555 1_555
C1_2 C2_2 1_555 1_555
C2_2 H1_2 1_555 1_555
H2_2 C2_2 1_555 1_555
C3_2 C2_2 1_555 1_555
H3_2 C3_2 1_555 1_555
H4_2 C3_2 1_555 1_555
C5_2 C6_2 1_555 1_555
C6_2 C7_2 1_555 1_555
C7_2 C8_2 1_555 1_555
C8_2 O21 1_555 1_555
C9_2 C10_2 1_555 1_555
H6_2 C10_2 1_555 1_555
Nd9 O15 1_555 1_555
O15 C1_2 1_555 1_555
O2_2 C1_2 1_555 1_555
O3_2 C5_2 1_555 1_555
O5_2 C9_2 1_555 1_555
O6_2 C9_2 1_555 1_555
O10_2 Nd9 1_555 1_555
H9_2 O10_2 1_555 1_555
H10_2 O10_2 1_555 1_555
H11_2 O11_2 1_555 1_555
H12_2 O11_2 1_555 1_555
O22 C8_2 1_555 1_555
Nd9 O2_2 1_555 1_555
Nd9 O3_2 1_555 1_555
Nd9 O5_2 1_555 1_555
Nd9 O6_2 1_555 1_555
C6_2 H13_2 1_555 1_555
C6_2 H14_2 1_555 1_555
C7_2 H15_2 1_555 1_555
C7_2 H16_2 1_555 1_555
H7_2 C11_2 1_555 1_555
C12_2 C11_2 1_555 1_555
O19 C12_2 1_555 1_555
O20 C12_2 1_555 1_555

#END
